
###############################################################################
#
# This file contains modified crystal structure data generated from the
# MOF subset of the Cambridge Structural Database (CSD) v543 
# hosted by the Cambridge Crystallographic Data Centre (CCDC).
#
# This work is licensed under the Creative Commons
# Attribution-NonCommercial-ShareAlike 4.0 International License.
# To view a copy of this license, visit
# http://creativecommons.org/licenses/by-nc-sa/4.0/
# or send a letter to
# Creative Commons, PO Box 1866, Mountain View, CA 94042, USA.
#
# CIF created using the CSD Python API on 29 September 2022
# The structure has been converted into the P1 space group
# The structure has a 3D framework
# The original CSD entry YOZBUL01 is in the hexagonal crystal system
# The framework has been calculated to contain at least 10.0% void space
# The void calculation uses a probe of radius 1.32A, grid spacing 0.4
#
###############################################################################

data_YOZBUL01
_chemical_formula_moiety         '(C162 H90 Cl48 N120 O48 Zn24)n'
_symmetry_cell_setting           triclinic
_symmetry_space_group_name_H-M   'P 1'
_symmetry_Int_Tables_number      1
_space_group_name_Hall           'P 1'
loop_
_symmetry_equiv_pos_site_id
_symmetry_equiv_pos_as_xyz
1 x,y,z
_cell_length_a                   26.307(4)
_cell_length_b                   26.307(4)
_cell_length_c                   19.361(4)
_cell_angle_alpha                90
_cell_angle_beta                 90
_cell_angle_gamma                120
_cell_volume                     11603.8
loop_
_atom_site_label
_atom_site_type_symbol
_atom_site_fract_x
_atom_site_fract_y
_atom_site_fract_z
C3 C 0.0000 0.3882(8) 0.5000
H2 H -0.0000 0.4236 0.5000
Zn3 Zn 0.10424(8) 0.43601(11) 0.59428(11)
N8 N 0.0369(5) 0.3761(7) 0.5390(6)
C10 C 0.0227(6) 0.3189(9) 0.5233(7)
Cl4 Cl 0.0581(2) 0.28613(28) 0.5579(3)
Zn1 Zn 0.89576(8) 0.33177(7) 0.40572(11)
N1 N 0.8264(5) 0.2603(6) 0.4435(7)
C1 C 0.7820(2) 0.2180(2) 0.4031(11)
H1 H 0.7808 0.2192 0.3552
C2 C 0.8108(6) 0.2386(6) 0.5079(10)
Cl1 Cl 0.8511(2) 0.2789(3) 0.5799(3)
N2 N 0.9631(5) 0.3392(5) 0.4610(6)
C3_2 C 1.0000 0.3882(8) 0.5000
H2_2 H 1.0000 0.4236 0.5000
C4 C 0.9773(6) 0.2962(7) 0.4767(7)
Cl2 Cl 0.9419(2) 0.22803(19) 0.4421(3)
N3 N 0.8869(5) 0.4011(6) 0.4318(6)
C5 C 0.9086(14) 0.4543(7) 0.4158(14)
C6 C 0.8377(9) 0.3904(8) 0.4722(10)
H3 H 0.8112 0.3556 0.4941
N4 N 0.9603(14) 0.4802(7) 0.3780(14)
O1 O 0.9925(11) 0.5350(7) 0.3786(16)
N5 N 0.9148(5) 0.3261(4) 0.3067(8)
C7 C 0.8891(11) 0.3261(7) 0.2500
C8 C 0.9628(7) 0.3214(6) 0.2857(7)
H4 H 0.9898 0.3187 0.3142
N6 N 0.8354(12) 0.3259(8) 0.2500
O2 O 0.8149(4) 0.3263(4) 0.3071(7)
Zn2 Zn 0.66823(7) 0.10424(8) 0.40572(11)
Zn4 Zn 0.89576(8) 0.56399(11) 0.40572(11)
Zn5 Zn 0.89576(8) 0.33177(7) 0.09428(11)
N7 N 0.7397(6) 0.1736(5) 0.4435(7)
C9 C 0.7614(6) 0.1892(6) 0.5079(10)
Cl3 Cl 0.7211(3) 0.1489(2) 0.5799(3)
N9 N 0.6608(5) 0.0369(5) 0.4610(6)
N10 N 0.8869(5) 0.4858(8) 0.4318(6)
N11 N 0.5989(6) 0.1131(5) 0.4318(6)
C11 C 0.8377(9) 0.4473(12) 0.4722(10)
H5 H 0.8112 0.4556 0.4941
O3 O 0.9925(11) 0.4575(13) 0.3786(16)
N12 N 0.9148(5) 0.3261(4) 0.1933(8)
N13 N 0.6739(4) 0.0852(5) 0.3067(8)
C12 C 0.9628(7) 0.3214(6) 0.2143(7)
H6 H 0.9898 0.3187 0.1858
O4 O 0.8149(4) 0.3263(4) 0.1929(7)
Zn1_2 Zn 0.66823(7) 0.56399(11) 0.40572(11)
N1_2 N 0.7397(6) 0.5661(8) 0.4435(7)
C1_2 C 0.7820(2) 0.5640(3) 0.4031(11)
H1_2 H 0.7808 0.5616 0.3552
C2_2 C 0.7614(6) 0.5722(8) 0.5079(10)
Cl1_2 Cl 0.7211(3) 0.5722(4) 0.5799(3)
N2_2 N 0.6608(5) 0.6239(7) 0.4610(6)
C3_3 C 0.6118(8) 0.6118(8) 0.5000
H2_3 H 0.5764 0.5764 0.5000
C4_2 C 0.7038(7) 0.6811(9) 0.4767(7)
Cl2_2 Cl 0.77197(19) 0.71387(28) 0.4421(3)
N3_2 N 0.5989(6) 0.4858(8) 0.4318(6)
C5_2 C 0.5457(7) 0.4543(16) 0.4158(14)
C6_2 C 0.6096(8) 0.4473(12) 0.4722(10)
H3_2 H 0.6444 0.4556 0.4941
N4_2 N 0.5198(7) 0.4801(16) 0.3780(14)
O1_2 O 0.4650(7) 0.4575(13) 0.3786(16)
N5_2 N 0.6739(4) 0.5887(6) 0.3067(8)
C7_2 C 0.6739(7) 0.5630(13) 0.2500
C8_2 C 0.6786(6) 0.6414(9) 0.2857(7)
H4_2 H 0.6813 0.6711 0.3142
N6_2 N 0.6741(8) 0.5095(14) 0.2500
O2_2 O 0.6737(4) 0.4886(6) 0.3071(7)
Zn3_2 Zn 0.56399(11) 0.66823(14) 0.59428(11)
Zn4_2 Zn 0.43601(11) 0.33177(14) 0.40572(11)
Zn5_2 Zn 0.66823(7) 0.56399(11) 0.09428(11)
N7_2 N 0.8264(5) 0.5661(8) 0.4435(7)
C9_2 C 0.8108(6) 0.5722(8) 0.5079(10)
Cl3_2 Cl 0.8511(2) 0.5722(4) 0.5799(3)
N8_2 N 0.6239(7) 0.6608(9) 0.5390(6)
N9_2 N 0.9631(5) 0.6239(7) 0.4610(6)
C10_2 C 0.6811(9) 0.7038(11) 0.5233(7)
Cl4_2 Cl 0.71387(28) 0.77197(34) 0.5579(3)
N10_2 N 0.5142(8) 0.4011(9) 0.4318(6)
C11_2 C 0.5527(12) 0.3904(15) 0.4722(10)
H5_2 H 0.5444 0.3556 0.4941
O3_2 O 0.5425(13) 0.5350(17) 0.3786(16)
N12_2 N 0.6739(4) 0.5887(6) 0.1933(8)
N13_2 N 0.9148(5) 0.5887(6) 0.3067(8)
C12_2 C 0.6786(6) 0.6414(9) 0.2143(7)
H6_2 H 0.6813 0.6711 0.1858
O4_2 O 0.6737(4) 0.4886(6) 0.1929(7)
Zn1_3 Zn 0.43601(11) 0.10424(8) 0.40572(11)
N1_3 N 0.4339(8) 0.1736(5) 0.4435(7)
C1_3 C 0.4360(3) 0.2180(2) 0.4031(11)
H1_3 H 0.4384 0.2192 0.3552
C2_3 C 0.4278(8) 0.1892(6) 0.5079(10)
Cl1_3 Cl 0.4278(4) 0.1489(2) 0.5799(3)
N2_3 N 0.3761(7) 0.0369(5) 0.4610(6)
C3_4 C 0.3882(8) -0.0000 0.5000
H2_4 H 0.4236 0.0000 0.5000
C4_3 C 0.3189(9) 0.0227(6) 0.4767(7)
Cl2_3 Cl 0.28613(28) 0.0581(2) 0.4421(3)
N3_3 N 0.5142(8) 0.1131(5) 0.4318(6)
C5_3 C 0.5457(16) 0.0914(14) 0.4158(14)
C6_3 C 0.5527(12) 0.1623(9) 0.4722(10)
H3_3 H 0.5444 0.1888 0.4941
N4_3 N 0.5199(16) 0.0397(14) 0.3780(14)
O1_3 O 0.5425(13) 0.0075(11) 0.3786(16)
N5_3 N 0.4113(6) 0.0852(5) 0.3067(8)
C7_3 C 0.4370(13) 0.1109(11) 0.2500
C8_3 C 0.3586(9) 0.0372(7) 0.2857(7)
H4_3 H 0.3289 0.0102 0.3142
N6_3 N 0.4905(14) 0.1646(12) 0.2500
O2_3 O 0.5114(6) 0.1851(4) 0.3071(7)
Zn5_3 Zn 0.43601(11) 0.10424(8) 0.09428(11)
N7_3 N 0.4339(8) 0.2603(6) 0.4435(7)
C9_3 C 0.4278(8) 0.2386(6) 0.5079(10)
Cl3_3 Cl 0.4278(4) 0.2789(3) 0.5799(3)
N9_3 N 0.3761(7) 0.3392(5) 0.4610(6)
C11_3 C 0.6096(15) 0.1623(9) 0.4722(10)
H5_3 H 0.6444 0.1888 0.4941
O3_3 O 0.4650(17) 0.0075(11) 0.3786(16)
N12_3 N 0.4113(6) 0.0852(5) 0.1933(8)
N13_3 N 0.4113(6) 0.3261(4) 0.3067(8)
C12_3 C 0.3586(9) 0.0372(7) 0.2143(7)
H6_3 H 0.3289 0.0102 0.1858
O4_3 O 0.5114(6) 0.1851(4) 0.1929(7)
C3_5 C 0.3882(8) 1.0000 0.5000
H2_5 H 0.4236 1.0000 0.5000
Zn3_3 Zn 0.33177(14) 0.89576(8) 0.59428(11)
N8_3 N 0.3392(9) 0.9631(5) 0.5390(6)
C10_3 C 0.2962(11) 0.9773(6) 0.5233(7)
Cl4_3 Cl 0.22803(34) 0.9419(2) 0.5579(3)
Zn1_4 Zn 0.10424(8) 0.66823(7) 0.90572(11)
N1_4 N 0.1736(5) 0.7397(6) 0.9435(7)
C1_4 C 0.2180(2) 0.7820(2) 0.9031(11)
H1_4 H 0.2192 0.7808 0.8552
N2_4 N 0.0369(5) 0.6608(5) 0.9610(6)
C3_6 C -0.0000 0.6118(8) 1.0000
H2_6 H -0.0000 0.5764 1.0000
C4_4 C 0.0227(6) 0.7038(7) 0.9767(7)
Cl2_4 Cl 0.0581(2) 0.77197(19) 0.9421(3)
N3_4 N 0.1131(5) 0.5989(6) 0.9318(6)
C5_4 C 0.0914(14) 0.5457(7) 0.9158(14)
C6_4 C 0.1623(9) 0.6096(8) 0.9722(10)
H3_4 H 0.1888 0.6444 0.9941
N4_4 N 0.0397(14) 0.5198(7) 0.8780(14)
O1_4 O 0.0075(11) 0.4650(7) 0.8786(16)
N5_4 N 0.0852(5) 0.6739(4) 0.8067(8)
C7_4 C 0.1109(11) 0.6739(7) 0.7500
C8_4 C 0.0372(7) 0.6786(6) 0.7857(7)
H4_4 H 0.0102 0.6813 0.8142
N6_4 N 0.1646(12) 0.6741(8) 0.7500
O2_4 O 0.1851(4) 0.6737(4) 0.8071(7)
Zn2_2 Zn 0.33177(7) 0.89576(8) 0.90572(11)
Zn4_3 Zn 0.10424(8) 0.43601(11) 0.90572(11)
Zn5_4 Zn 0.10424(8) 0.66823(7) 0.59428(11)
N7_4 N 0.2603(6) 0.8264(5) 0.9435(7)
N9_4 N 0.3392(5) 0.9631(5) 0.9610(6)
N10_3 N 0.1131(5) 0.5142(8) 0.9318(6)
N11_2 N 0.4011(6) 0.8869(5) 0.9318(6)
C11_4 C 0.1623(9) 0.5527(12) 0.9722(10)
H5_4 H 0.1888 0.5444 0.9941
O3_4 O 0.0075(11) 0.5425(13) 0.8786(16)
N12_4 N 0.0852(5) 0.6739(4) 0.6933(8)
N13_4 N 0.3261(4) 0.9148(5) 0.8067(8)
C12_4 C 0.0372(7) 0.6786(6) 0.7143(7)
H6_4 H 0.0102 0.6813 0.6858
O4_4 O 0.1851(4) 0.6737(4) 0.6929(7)
C3_7 C 1.0000 0.6118(8) -0.0000
H2_7 H 1.0000 0.5764 -0.0000
Zn3_4 Zn 0.89576(8) 0.56399(11) 0.09428(11)
N8_4 N 0.9631(5) 0.6239(7) 0.0390(6)
C10_4 C 0.9773(6) 0.6811(9) 0.0233(7)
Cl4_4 Cl 0.9419(2) 0.71387(28) 0.0579(3)
C3_8 C 1.0000 0.6118(8) 1.0000
H2_8 H 1.0000 0.5764 1.0000
C2_4 C 0.2386(6) 0.4278(8) 0.0079(10)
Cl1_4 Cl 0.2789(3) 0.4278(4) 0.0799(3)
C3_9 C 0.3882(8) 0.3882(8) -0.0000
H2_9 H 0.4236 0.4236 -0.0000
Zn3_5 Zn 0.43601(11) 0.33177(14) 0.09428(11)
C9_4 C 0.1892(6) 0.4278(8) 0.0079(10)
Cl3_4 Cl 0.1489(2) 0.4278(4) 0.0799(3)
N8_5 N 0.3761(7) 0.3392(9) 0.0390(6)
C10_5 C 0.3189(9) 0.2962(11) 0.0233(7)
Cl4_5 Cl 0.28613(28) 0.22803(34) 0.0579(3)
Zn1_5 Zn 0.33177(7) 0.43601(11) 0.90572(11)
N1_5 N 0.2603(6) 0.4339(8) 0.9435(7)
C1_5 C 0.2180(2) 0.4360(3) 0.9031(11)
H1_5 H 0.2192 0.4384 0.8552
N2_5 N 0.3392(5) 0.3761(7) 0.9610(6)
C3_10 C 0.3882(8) 0.3882(8) 1.0000
H2_10 H 0.4236 0.4236 1.0000
C4_5 C 0.2962(7) 0.3189(9) 0.9767(7)
Cl2_5 Cl 0.22803(19) 0.28613(28) 0.9421(3)
N3_5 N 0.4011(6) 0.5142(8) 0.9318(6)
C5_5 C 0.4543(7) 0.5457(16) 0.9158(14)
C6_5 C 0.3904(8) 0.5527(12) 0.9722(10)
H3_5 H 0.3556 0.5444 0.9941
N4_5 N 0.4802(7) 0.5199(16) 0.8780(14)
O1_5 O 0.5350(7) 0.5425(13) 0.8786(16)
N5_5 N 0.3261(4) 0.4113(6) 0.8067(8)
C7_5 C 0.3261(7) 0.4370(13) 0.7500
C8_5 C 0.3214(6) 0.3586(9) 0.7857(7)
H4_5 H 0.3187 0.3289 0.8142
N6_5 N 0.3259(8) 0.4905(14) 0.7500
O2_5 O 0.3263(4) 0.5114(6) 0.8071(7)
Zn4_4 Zn 0.56399(11) 0.66823(14) 0.90572(11)
Zn5_5 Zn 0.33177(7) 0.43601(11) 0.59428(11)
N7_5 N 0.1736(5) 0.4339(8) 0.9435(7)
N9_5 N 0.0369(5) 0.3761(7) 0.9610(6)
N10_4 N 0.4858(8) 0.5989(9) 0.9318(6)
C11_5 C 0.4473(12) 0.6096(15) 0.9722(10)
H5_5 H 0.4556 0.6444 0.9941
O3_5 O 0.4575(13) 0.4650(17) 0.8786(16)
N12_5 N 0.3261(4) 0.4113(6) 0.6933(8)
N13_5 N 0.0852(5) 0.4113(6) 0.8067(8)
C12_5 C 0.3214(6) 0.3586(9) 0.7143(7)
H6_5 H 0.3187 0.3289 0.6858
O4_5 O 0.3263(4) 0.5114(6) 0.6929(7)
C3_11 C 0.6118(8) 0.0000 -0.0000
H2_11 H 0.5764 0.0000 -0.0000
Zn3_6 Zn 0.66823(14) 0.10424(8) 0.09428(11)
N8_6 N 0.6608(9) 0.0369(5) 0.0390(6)
C10_6 C 0.7038(11) 0.0227(6) 0.0233(7)
Cl4_6 Cl 0.77197(34) 0.0581(2) 0.0579(3)
C2_5 C 0.5722(8) 0.8108(6) 0.0079(10)
Cl1_5 Cl 0.5722(4) 0.8511(2) 0.0799(3)
C3_12 C 0.6118(8) 1.0000 -0.0000
H2_12 H 0.5764 1.0000 -0.0000
C9_5 C 0.5722(8) 0.7614(6) 0.0079(10)
Cl3_5 Cl 0.5722(4) 0.7211(3) 0.0799(3)
Zn1_6 Zn 0.56399(11) 0.89576(8) 0.90572(11)
N1_6 N 0.5661(8) 0.8264(5) 0.9435(7)
C1_6 C 0.5640(3) 0.7820(2) 0.9031(11)
H1_6 H 0.5616 0.7808 0.8552
N2_6 N 0.6239(7) 0.9631(5) 0.9610(6)
C3_13 C 0.6118(8) 1.0000 1.0000
H2_13 H 0.5764 1.0000 1.0000
C4_6 C 0.6811(9) 0.9773(6) 0.9767(7)
Cl2_6 Cl 0.71387(28) 0.9419(2) 0.9421(3)
N3_6 N 0.4858(8) 0.8869(5) 0.9318(6)
C5_6 C 0.4543(16) 0.9086(14) 0.9158(14)
C6_6 C 0.4473(12) 0.8377(9) 0.9722(10)
H3_6 H 0.4556 0.8112 0.9941
N4_6 N 0.4801(16) 0.9603(14) 0.8780(14)
O1_6 O 0.4575(13) 0.9925(11) 0.8786(16)
N5_6 N 0.5887(6) 0.9148(5) 0.8067(8)
C7_6 C 0.5630(13) 0.8891(11) 0.7500
C8_6 C 0.6414(9) 0.9628(7) 0.7857(7)
H4_6 H 0.6711 0.9898 0.8142
N6_6 N 0.5095(14) 0.8354(12) 0.7500
O2_6 O 0.4886(6) 0.8149(4) 0.8071(7)
Zn5_6 Zn 0.56399(11) 0.89576(8) 0.59428(11)
N7_6 N 0.5661(8) 0.7397(6) 0.9435(7)
N9_6 N 0.6239(7) 0.6608(5) 0.9610(6)
C11_6 C 0.3904(15) 0.8377(9) 0.9722(10)
H5_6 H 0.3556 0.8112 0.9941
O3_6 O 0.5350(17) 0.9925(11) 0.8786(16)
N12_6 N 0.5887(6) 0.9148(5) 0.6933(8)
N13_6 N 0.5887(6) 0.6739(4) 0.8067(8)
C12_6 C 0.6414(9) 0.9628(7) 0.7143(7)
H6_6 H 0.6711 0.9898 0.6858
O4_6 O 0.4886(6) 0.8149(4) 0.6929(7)
N1_7 N 0.2603(6) 0.8264(5) 0.5565(7)
C1_7 C 0.2180(2) 0.7820(2) 0.5969(11)
H1_7 H 0.2192 0.7808 0.6448
C2_6 C 0.2386(6) 0.8108(6) 0.4921(10)
Cl1_6 Cl 0.2789(3) 0.8511(2) 0.4201(3)
N3_7 N 0.4011(6) 0.8869(5) 0.5682(6)
C5_7 C 0.4543(7) 0.9086(14) 0.5842(14)
C6_7 C 0.3904(8) 0.8377(9) 0.5278(10)
H3_7 H 0.3556 0.8112 0.5059
N4_7 N 0.4802(7) 0.9603(14) 0.6220(14)
O1_7 O 0.5350(7) 0.9925(11) 0.6214(16)
N5_7 N 0.3261(4) 0.9148(5) 0.6933(8)
C7_7 C 0.3261(7) 0.8891(11) 0.7500
C8_7 C 0.3214(6) 0.9628(7) 0.7143(7)
H4_7 H 0.3187 0.9898 0.6858
N6_7 N 0.3259(8) 0.8354(12) 0.7500
O2_7 O 0.3263(4) 0.8149(4) 0.6929(7)
N7_7 N 0.1736(5) 0.7397(6) 0.5565(7)
C9_6 C 0.1892(6) 0.7614(6) 0.4921(10)
Cl3_6 Cl 0.1489(2) 0.7211(3) 0.4201(3)
N9_7 N 0.0369(5) 0.6608(5) 0.5390(6)
N10_5 N 0.4858(8) 0.8869(5) 0.5682(6)
N11_3 N 0.1131(5) 0.5989(6) 0.5682(6)
C11_7 C 0.4473(12) 0.8377(9) 0.5278(10)
H5_7 H 0.4556 0.8112 0.5059
O3_7 O 0.4575(13) 0.9925(11) 0.6214(16)
C12_7 C 0.3214(6) 0.9628(7) 0.7857(7)
H6_7 H 0.3187 0.9898 0.8142
O4_7 O 0.3263(4) 0.8149(4) 0.8071(7)
N1_8 N 0.5661(8) 0.7397(6) 0.5565(7)
C1_8 C 0.5640(3) 0.7820(2) 0.5969(11)
H1_8 H 0.5616 0.7808 0.6448
C2_7 C 0.5722(8) 0.7614(6) 0.4921(10)
Cl1_7 Cl 0.5722(4) 0.7211(3) 0.4201(3)
N3_8 N 0.4858(8) 0.5989(6) 0.5682(6)
C5_8 C 0.4543(16) 0.5457(7) 0.5842(14)
C6_8 C 0.4473(12) 0.6096(8) 0.5278(10)
H3_8 H 0.4556 0.6444 0.5059
N4_8 N 0.4801(16) 0.5198(7) 0.6220(14)
O1_8 O 0.4575(13) 0.4650(7) 0.6214(16)
N5_8 N 0.5887(6) 0.6739(4) 0.6933(8)
C7_8 C 0.5630(13) 0.6739(7) 0.7500
C8_8 C 0.6414(9) 0.6786(6) 0.7143(7)
H4_8 H 0.6711 0.6813 0.6858
N6_8 N 0.5095(14) 0.6741(8) 0.7500
O2_8 O 0.4886(6) 0.6737(4) 0.6929(7)
N7_8 N 0.5661(8) 0.8264(5) 0.5565(7)
C9_7 C 0.5722(8) 0.8108(6) 0.4921(10)
Cl3_7 Cl 0.5722(4) 0.8511(2) 0.4201(3)
N9_8 N 0.6239(7) 0.9631(5) 0.5390(6)
N10_6 N 0.4011(9) 0.5142(8) 0.5682(6)
C11_8 C 0.3904(15) 0.5527(12) 0.5278(10)
H5_8 H 0.3556 0.5444 0.5059
O3_8 O 0.5350(17) 0.5425(13) 0.6214(16)
C12_8 C 0.6414(9) 0.6786(6) 0.7857(7)
H6_8 H 0.6711 0.6813 0.8142
O4_8 O 0.4886(6) 0.6737(4) 0.8071(7)
N1_9 N 0.1736(5) 0.4339(8) 0.5565(7)
C1_9 C 0.2180(2) 0.4360(3) 0.5969(11)
H1_9 H 0.2192 0.4384 0.6448
C2_8 C 0.1892(6) 0.4278(8) 0.4921(10)
Cl1_8 Cl 0.1489(2) 0.4278(4) 0.4201(3)
N3_9 N 0.1131(5) 0.5142(8) 0.5682(6)
C5_9 C 0.0914(14) 0.5457(16) 0.5842(14)
C6_9 C 0.1623(9) 0.5527(12) 0.5278(10)
H3_9 H 0.1888 0.5444 0.5059
N4_9 N 0.0397(14) 0.5199(16) 0.6220(14)
O1_9 O 0.0075(11) 0.5425(13) 0.6214(16)
N5_9 N 0.0852(5) 0.4113(6) 0.6933(8)
C7_9 C 0.1109(11) 0.4370(13) 0.7500
C8_9 C 0.0372(7) 0.3586(9) 0.7143(7)
H4_9 H 0.0102 0.3289 0.6858
N6_9 N 0.1646(12) 0.4905(14) 0.7500
O2_9 O 0.1851(4) 0.5114(6) 0.6929(7)
N7_9 N 0.2603(6) 0.4339(8) 0.5565(7)
C9_8 C 0.2386(6) 0.4278(8) 0.4921(10)
Cl3_8 Cl 0.2789(3) 0.4278(4) 0.4201(3)
N9_9 N 0.3392(5) 0.3761(7) 0.5390(6)
C11_9 C 0.1623(9) 0.6096(15) 0.5278(10)
H5_9 H 0.1888 0.6444 0.5059
O3_9 O 0.0075(11) 0.4650(17) 0.6214(16)
C12_9 C 0.0372(7) 0.3586(9) 0.7857(7)
H6_9 H 0.0102 0.3289 0.8142
O4_9 O 0.1851(4) 0.5114(6) 0.8071(7)
N1_10 N 0.7397(6) 0.1736(5) 0.0565(7)
C1_10 C 0.7820(2) 0.2180(2) 0.0969(11)
H1_10 H 0.7808 0.2192 0.1448
N3_10 N 0.5989(6) 0.1131(5) 0.0682(6)
C5_10 C 0.5457(7) 0.0914(14) 0.0842(14)
C6_10 C 0.6096(8) 0.1623(9) 0.0278(10)
H3_10 H 0.6444 0.1888 0.0059
N4_10 N 0.5198(7) 0.0397(14) 0.1220(14)
O1_10 O 0.4650(7) 0.0075(11) 0.1214(16)
N5_10 N 0.6739(4) 0.0852(5) 0.1933(8)
C7_10 C 0.6739(7) 0.1109(11) 0.2500
C8_10 C 0.6786(6) 0.0372(7) 0.2143(7)
H4_10 H 0.6813 0.0102 0.1858
N6_10 N 0.6741(8) 0.1646(12) 0.2500
O2_10 O 0.6737(4) 0.1851(4) 0.1929(7)
N7_10 N 0.8264(5) 0.2603(6) 0.0565(7)
N9_10 N 0.9631(5) 0.3392(5) 0.0390(6)
N10_7 N 0.5142(8) 0.1131(5) 0.0682(6)
N11_4 N 0.8869(5) 0.4011(6) 0.0682(6)
C11_10 C 0.5527(12) 0.1623(9) 0.0278(10)
H5_10 H 0.5444 0.1888 0.0059
O3_10 O 0.5425(13) 0.0075(11) 0.1214(16)
C12_10 C 0.6786(6) 0.0372(7) 0.2857(7)
H6_10 H 0.6813 0.0102 0.3142
O4_10 O 0.6737(4) 0.1851(4) 0.3071(7)
N1_11 N 0.4339(8) 0.2603(6) 0.0565(7)
C1_11 C 0.4360(3) 0.2180(2) 0.0969(11)
H1_11 H 0.4384 0.2192 0.1448
N3_11 N 0.5142(8) 0.4011(6) 0.0682(6)
C5_11 C 0.5457(16) 0.4543(7) 0.0842(14)
C6_11 C 0.5527(12) 0.3904(8) 0.0278(10)
H3_11 H 0.5444 0.3556 0.0059
N4_11 N 0.5199(16) 0.4802(7) 0.1220(14)
O1_11 O 0.5425(13) 0.5350(7) 0.1214(16)
N5_11 N 0.4113(6) 0.3261(4) 0.1933(8)
C7_11 C 0.4370(13) 0.3261(7) 0.2500
C8_11 C 0.3586(9) 0.3214(6) 0.2143(7)
H4_11 H 0.3289 0.3187 0.1858
N6_11 N 0.4905(14) 0.3259(8) 0.2500
O2_11 O 0.5114(6) 0.3263(4) 0.1929(7)
N7_11 N 0.4339(8) 0.1736(5) 0.0565(7)
N9_11 N 0.3761(7) 0.0369(5) 0.0390(6)
N10_8 N 0.5989(9) 0.4858(8) 0.0682(6)
C11_11 C 0.6096(15) 0.4473(12) 0.0278(10)
H5_11 H 0.6444 0.4556 0.0059
O3_11 O 0.4650(17) 0.4575(13) 0.1214(16)
C12_11 C 0.3586(9) 0.3214(6) 0.2857(7)
H6_11 H 0.3289 0.3187 0.3142
O4_11 O 0.5114(6) 0.3263(4) 0.3071(7)
C2_9 C 0.4278(8) 0.2386(6) 0.9921(10)
Cl1_9 Cl 0.4278(4) 0.2789(3) 0.9201(3)
C9_9 C 0.4278(8) 0.1892(6) 0.9921(10)
Cl3_9 Cl 0.4278(4) 0.1489(2) 0.9201(3)
N1_12 N 0.8264(5) 0.5661(8) 0.0565(7)
C1_12 C 0.7820(2) 0.5640(3) 0.0969(11)
H1_12 H 0.7808 0.5616 0.1448
N3_12 N 0.8869(5) 0.4858(8) 0.0682(6)
C5_12 C 0.9086(14) 0.4543(16) 0.0842(14)
C6_12 C 0.8377(9) 0.4473(12) 0.0278(10)
H3_12 H 0.8112 0.4556 0.0059
N4_12 N 0.9603(14) 0.4801(16) 0.1220(14)
O1_12 O 0.9925(11) 0.4575(13) 0.1214(16)
N5_12 N 0.9148(5) 0.5887(6) 0.1933(8)
C7_12 C 0.8891(11) 0.5630(13) 0.2500
C8_12 C 0.9628(7) 0.6414(9) 0.2143(7)
H4_12 H 0.9898 0.6711 0.1858
N6_12 N 0.8354(12) 0.5095(14) 0.2500
O2_12 O 0.8149(4) 0.4886(6) 0.1929(7)
N7_12 N 0.7397(6) 0.5661(8) 0.0565(7)
N9_12 N 0.6608(5) 0.6239(7) 0.0390(6)
C11_12 C 0.8377(9) 0.3904(15) 0.0278(10)
H5_12 H 0.8112 0.3556 0.0059
O3_12 O 0.9925(11) 0.5350(17) 0.1214(16)
C12_12 C 0.9628(7) 0.6414(9) 0.2857(7)
H6_12 H 0.9898 0.6711 0.3142
O4_12 O 0.8149(4) 0.4886(6) 0.3071(7)
C2_10 C 0.8108(6) 0.5722(8) 0.9921(10)
Cl1_10 Cl 0.8511(2) 0.5722(4) 0.9201(3)
C9_10 C 0.7614(6) 0.5722(8) 0.9921(10)
Cl3_10 Cl 0.7211(3) 0.5722(4) 0.9201(3)
C3_14 C -0.0000 0.6118(8) 0.5000
H2_14 H -0.0000 0.5764 0.5000
C4_7 C 0.0227(6) 0.7038(7) 0.5233(7)
Cl2_7 Cl 0.0581(2) 0.77197(19) 0.5579(3)
C3_15 C 1.0000 0.6118(8) 0.5000
H2_15 H 1.0000 0.5764 0.5000
C10_7 C 0.9773(6) 0.6811(9) 0.4767(7)
Cl4_7 Cl 0.9419(2) 0.71387(28) 0.4421(3)
C3_16 C 0.3882(8) 0.3882(8) 0.5000
H2_16 H 0.4236 0.4236 0.5000
C4_8 C 0.2962(7) 0.3189(9) 0.5233(7)
Cl2_8 Cl 0.22803(19) 0.28613(28) 0.5579(3)
C10_8 C 0.3189(9) 0.2962(11) 0.4767(7)
Cl4_8 Cl 0.28613(28) 0.22803(34) 0.4421(3)
C3_17 C 0.6118(8) 0.0000 0.5000
H2_17 H 0.5764 0.0000 0.5000
C10_9 C 0.7038(11) 0.0227(6) 0.4767(7)
Cl4_9 Cl 0.77197(34) 0.0581(2) 0.4421(3)
C3_18 C 0.6118(8) 1.0000 0.5000
H2_18 H 0.5764 1.0000 0.5000
C4_9 C 0.6811(9) 0.9773(6) 0.5233(7)
Cl2_9 Cl 0.71387(28) 0.9419(2) 0.5579(3)
C3_19 C 0.0000 0.3882(8) 0.0000
H2_19 H -0.0000 0.4236 0.0000
C3_20 C 0.0000 0.3882(8) 1.0000
H2_20 H -0.0000 0.4236 1.0000
C10_10 C 0.0227(6) 0.3189(9) 0.9767(7)
Cl4_10 Cl 0.0581(2) 0.28613(28) 0.9421(3)
C3_21 C 1.0000 0.3882(8) 0.0000
H2_21 H 1.0000 0.4236 0.0000
C4_10 C 0.9773(6) 0.2962(7) 0.0233(7)
Cl2_10 Cl 0.9419(2) 0.22803(19) 0.0579(3)
C3_22 C 0.6118(8) 0.6118(8) 0.0000
H2_22 H 0.5764 0.5764 0.0000
C4_11 C 0.7038(7) 0.6811(9) 0.0233(7)
Cl2_11 Cl 0.77197(19) 0.71387(28) 0.0579(3)
C3_23 C 0.6118(8) 0.6118(8) 1.0000
H2_23 H 0.5764 0.5764 1.0000
C10_11 C 0.6811(9) 0.7038(11) 0.9767(7)
Cl4_11 Cl 0.71387(28) 0.77197(34) 0.9421(3)
C3_24 C 0.3882(8) -0.0000 0.0000
H2_24 H 0.4236 0.0000 0.0000
C4_12 C 0.3189(9) 0.0227(6) 0.0233(7)
Cl2_12 Cl 0.28613(28) 0.0581(2) 0.0579(3)
C3_25 C 0.3882(8) -0.0000 1.0000
H2_25 H 0.4236 0.0000 1.0000
C3_26 C 0.3882(8) 1.0000 1.0000
H2_26 H 0.4236 1.0000 1.0000
C10_12 C 0.2962(11) 0.9773(6) 0.9767(7)
Cl4_12 Cl 0.22803(34) 0.9419(2) 0.9421(3)
C2_11 C 0.1892(6) 0.7614(6) 0.0079(10)
Cl1_11 Cl 0.1489(2) 0.7211(3) 0.0799(3)
C3_27 C -0.0000 0.6118(8) -0.0000
H2_27 H 0.0000 0.5764 -0.0000
C9_11 C 0.2386(6) 0.8108(6) 0.0079(10)
Cl3_11 Cl 0.2789(3) 0.8511(2) 0.0799(3)
C3_28 C 0.3882(8) 1.0000 0.0000
H2_28 H 0.4236 1.0000 0.0000
C3_29 C 0.6118(8) 0.0000 1.0000
H2_29 H 0.5764 0.0000 1.0000
C2_12 C 0.7614(6) 0.1892(6) 0.9921(10)
Cl1_12 Cl 0.7211(3) 0.1489(2) 0.9201(3)
C9_12 C 0.8108(6) 0.2386(6) 0.9921(10)
Cl3_12 Cl 0.8511(2) 0.2789(3) 0.9201(3)
C3_30 C 1.0000 0.3882(8) 1.0000
H2_30 H 1.0000 0.4236 1.0000
loop_
_geom_bond_atom_site_label_1
_geom_bond_atom_site_label_2
_geom_bond_site_symmetry_1
_geom_bond_site_symmetry_2
H2 C3 1_555 1_555
Zn3 N8 1_555 1_555
N8 C3 1_555 1_555
Cl4 C10 1_555 1_555
N8 C10 1_555 1_555
Zn1 N1 1_555 1_555
N1 C1 1_555 1_555
C1 H1 1_555 1_555
C2 N1 1_555 1_555
Cl1 C2 1_555 1_555
N2 Zn1 1_555 1_555
C3_2 N2 1_555 1_555
H2_2 C3_2 1_555 1_555
C4 N2 1_555 1_555
Cl2 C4 1_555 1_555
N3 Zn1 1_555 1_555
C5 N3 1_555 1_555
C6 N3 1_555 1_555
H3 C6 1_555 1_555
N4 C5 1_555 1_555
O1 N4 1_555 1_555
N5 Zn1 1_555 1_555
C7 N5 1_555 1_555
C8 N5 1_555 1_555
H4 C8 1_555 1_555
N6 C7 1_555 1_555
O2 N6 1_555 1_555
Zn2 N7 1_555 1_555
Zn4 N10 1_555 1_555
Zn5 N12 1_555 1_555
N7 C1 1_555 1_555
C9 C2 1_555 1_555
Cl3 C9 1_555 1_555
N9 Zn2 1_555 1_555
N10 C5 1_555 1_555
N11 Zn2 1_555 1_555
C11 C6 1_555 1_555
H5 C11 1_555 1_555
O3 N4 1_555 1_555
N12 C7 1_555 1_555
N13 Zn2 1_555 1_555
C12 C8 1_555 1_555
H6 C12 1_555 1_555
O4 N6 1_555 1_555
N7 C9 1_555 1_555
N10 C11 1_555 1_555
N12 C12 1_555 1_555
Zn1_2 N1_2 1_555 1_555
N1_2 C1_2 1_555 1_555
C1_2 H1_2 1_555 1_555
C2_2 N1_2 1_555 1_555
Cl1_2 C2_2 1_555 1_555
N2_2 Zn1_2 1_555 1_555
C3_3 N2_2 1_555 1_555
H2_3 C3_3 1_555 1_555
C4_2 N2_2 1_555 1_555
Cl2_2 C4_2 1_555 1_555
N3_2 Zn1_2 1_555 1_555
C5_2 N3_2 1_555 1_555
C6_2 N3_2 1_555 1_555
H3_2 C6_2 1_555 1_555
N4_2 C5_2 1_555 1_555
O1_2 N4_2 1_555 1_555
N5_2 Zn1_2 1_555 1_555
C7_2 N5_2 1_555 1_555
C8_2 N5_2 1_555 1_555
H4_2 C8_2 1_555 1_555
N6_2 C7_2 1_555 1_555
O2_2 N6_2 1_555 1_555
Zn4 N7_2 1_555 1_555
Zn3_2 N8_2 1_555 1_555
Zn4_2 N10_2 1_555 1_555
Zn5_2 N12_2 1_555 1_555
N7_2 C1_2 1_555 1_555
C9_2 C2_2 1_555 1_555
Cl3_2 C9_2 1_555 1_555
N8_2 C3_3 1_555 1_555
N9_2 Zn4 1_555 1_555
C10_2 C4_2 1_555 1_555
Cl4_2 C10_2 1_555 1_555
N10_2 C5_2 1_555 1_555
C11_2 C6_2 1_555 1_555
H5_2 C11_2 1_555 1_555
O3_2 N4_2 1_555 1_555
N12_2 C7_2 1_555 1_555
N13_2 Zn4 1_555 1_555
C12_2 C8_2 1_555 1_555
H6_2 C12_2 1_555 1_555
O4_2 N6_2 1_555 1_555
N7_2 C9_2 1_555 1_555
N8_2 C10_2 1_555 1_555
N10_2 C11_2 1_555 1_555
N12_2 C12_2 1_555 1_555
Zn1_3 N1_3 1_555 1_555
N1_3 C1_3 1_555 1_555
C1_3 H1_3 1_555 1_555
C2_3 N1_3 1_555 1_555
Cl1_3 C2_3 1_555 1_555
N2_3 Zn1_3 1_555 1_555
C3_4 N2_3 1_555 1_555
H2_4 C3_4 1_555 1_555
C4_3 N2_3 1_555 1_555
Cl2_3 C4_3 1_555 1_555
N3_3 Zn1_3 1_555 1_555
C5_3 N3_3 1_555 1_555
C6_3 N3_3 1_555 1_555
H3_3 C6_3 1_555 1_555
N4_3 C5_3 1_555 1_555
O1_3 N4_3 1_555 1_555
N5_3 Zn1_3 1_555 1_555
C7_3 N5_3 1_555 1_555
C8_3 N5_3 1_555 1_555
H4_3 C8_3 1_555 1_555
N6_3 C7_3 1_555 1_555
O2_3 N6_3 1_555 1_555
Zn4_2 N7_3 1_555 1_555
Zn5_3 N12_3 1_555 1_555
N7_3 C1_3 1_555 1_555
C9_3 C2_3 1_555 1_555
Cl3_3 C9_3 1_555 1_555
N9_3 Zn4_2 1_555 1_555
N11 C5_3 1_555 1_555
C11_3 C6_3 1_555 1_555
H5_3 C11_3 1_555 1_555
O3_3 N4_3 1_555 1_555
N12_3 C7_3 1_555 1_555
N13_3 Zn4_2 1_555 1_555
C12_3 C8_3 1_555 1_555
H6_3 C12_3 1_555 1_555
O4_3 N6_3 1_555 1_555
N7_3 C9_3 1_555 1_555
N11 C11_3 1_555 1_555
N12_3 C12_3 1_555 1_555
H2_5 C3_5 1_555 1_555
Zn3_3 N8_3 1_555 1_555
N8_3 C3_5 1_555 1_555
Cl4_3 C10_3 1_555 1_555
N8_3 C10_3 1_555 1_555
Zn1_4 N1_4 1_555 1_555
N1_4 C1_4 1_555 1_555
C1_4 H1_4 1_555 1_555
N2_4 Zn1_4 1_555 1_555
C3_6 N2_4 1_555 1_555
H2_6 C3_6 1_555 1_555
C4_4 N2_4 1_555 1_555
Cl2_4 C4_4 1_555 1_555
N3_4 Zn1_4 1_555 1_555
C5_4 N3_4 1_555 1_555
C6_4 N3_4 1_555 1_555
H3_4 C6_4 1_555 1_555
N4_4 C5_4 1_555 1_555
O1_4 N4_4 1_555 1_555
N5_4 Zn1_4 1_555 1_555
C7_4 N5_4 1_555 1_555
C8_4 N5_4 1_555 1_555
H4_4 C8_4 1_555 1_555
N6_4 C7_4 1_555 1_555
O2_4 N6_4 1_555 1_555
Zn2_2 N7_4 1_555 1_555
Zn4_3 N10_3 1_555 1_555
Zn5_4 N12_4 1_555 1_555
N7_4 C1_4 1_555 1_555
N9_4 Zn2_2 1_555 1_555
N10_3 C5_4 1_555 1_555
N11_2 Zn2_2 1_555 1_555
C11_4 C6_4 1_555 1_555
H5_4 C11_4 1_555 1_555
O3_4 N4_4 1_555 1_555
N12_4 C7_4 1_555 1_555
N13_4 Zn2_2 1_555 1_555
C12_4 C8_4 1_555 1_555
H6_4 C12_4 1_555 1_555
O4_4 N6_4 1_555 1_555
N10_3 C11_4 1_555 1_555
N12_4 C12_4 1_555 1_555
H2_7 C3_7 1_555 1_555
Zn3_4 N8_4 1_555 1_555
N8_4 C3_7 1_555 1_555
Cl4_4 C10_4 1_555 1_555
N8_4 C10_4 1_555 1_555
H2_8 C3_8 1_555 1_555
Cl1_4 C2_4 1_555 1_555
H2_9 C3_9 1_555 1_555
Zn3_5 N8_5 1_555 1_555
C9_4 C2_4 1_555 1_555
Cl3_4 C9_4 1_555 1_555
N8_5 C3_9 1_555 1_555
Cl4_5 C10_5 1_555 1_555
N8_5 C10_5 1_555 1_555
Zn1_5 N1_5 1_555 1_555
N1_5 C1_5 1_555 1_555
C1_5 H1_5 1_555 1_555
N2_5 Zn1_5 1_555 1_555
C3_10 N2_5 1_555 1_555
H2_10 C3_10 1_555 1_555
C4_5 N2_5 1_555 1_555
Cl2_5 C4_5 1_555 1_555
N3_5 Zn1_5 1_555 1_555
C5_5 N3_5 1_555 1_555
C6_5 N3_5 1_555 1_555
H3_5 C6_5 1_555 1_555
N4_5 C5_5 1_555 1_555
O1_5 N4_5 1_555 1_555
N5_5 Zn1_5 1_555 1_555
C7_5 N5_5 1_555 1_555
C8_5 N5_5 1_555 1_555
H4_5 C8_5 1_555 1_555
N6_5 C7_5 1_555 1_555
O2_5 N6_5 1_555 1_555
Zn4_3 N7_5 1_555 1_555
Zn4_4 N10_4 1_555 1_555
Zn5_5 N12_5 1_555 1_555
N7_5 C1_5 1_555 1_555
N9_5 Zn4_3 1_555 1_555
N10_4 C5_5 1_555 1_555
C11_5 C6_5 1_555 1_555
H5_5 C11_5 1_555 1_555
O3_5 N4_5 1_555 1_555
N12_5 C7_5 1_555 1_555
N13_5 Zn4_3 1_555 1_555
C12_5 C8_5 1_555 1_555
H6_5 C12_5 1_555 1_555
O4_5 N6_5 1_555 1_555
N10_4 C11_5 1_555 1_555
N12_5 C12_5 1_555 1_555
H2_11 C3_11 1_555 1_555
Zn3_6 N8_6 1_555 1_555
N8_6 C3_11 1_555 1_555
Cl4_6 C10_6 1_555 1_555
N8_6 C10_6 1_555 1_555
Cl1_5 C2_5 1_555 1_555
H2_12 C3_12 1_555 1_555
C9_5 C2_5 1_555 1_555
Cl3_5 C9_5 1_555 1_555
Zn1_6 N1_6 1_555 1_555
N1_6 C1_6 1_555 1_555
C1_6 H1_6 1_555 1_555
N2_6 Zn1_6 1_555 1_555
C3_13 N2_6 1_555 1_555
H2_13 C3_13 1_555 1_555
C4_6 N2_6 1_555 1_555
Cl2_6 C4_6 1_555 1_555
N3_6 Zn1_6 1_555 1_555
C5_6 N3_6 1_555 1_555
C6_6 N3_6 1_555 1_555
H3_6 C6_6 1_555 1_555
N4_6 C5_6 1_555 1_555
O1_6 N4_6 1_555 1_555
N5_6 Zn1_6 1_555 1_555
C7_6 N5_6 1_555 1_555
C8_6 N5_6 1_555 1_555
H4_6 C8_6 1_555 1_555
N6_6 C7_6 1_555 1_555
O2_6 N6_6 1_555 1_555
Zn4_4 N7_6 1_555 1_555
Zn5_6 N12_6 1_555 1_555
N7_6 C1_6 1_555 1_555
N9_6 Zn4_4 1_555 1_555
N11_2 C5_6 1_555 1_555
C11_6 C6_6 1_555 1_555
H5_6 C11_6 1_555 1_555
O3_6 N4_6 1_555 1_555
N12_6 C7_6 1_555 1_555
N13_6 Zn4_4 1_555 1_555
C12_6 C8_6 1_555 1_555
H6_6 C12_6 1_555 1_555
O4_6 N6_6 1_555 1_555
N11_2 C11_6 1_555 1_555
N12_6 C12_6 1_555 1_555
Zn3_3 N1_7 1_555 1_555
N1_7 C1_7 1_555 1_555
C1_7 H1_7 1_555 1_555
C2_6 N1_7 1_555 1_555
Cl1_6 C2_6 1_555 1_555
N3_7 Zn3_3 1_555 1_555
C5_7 N3_7 1_555 1_555
C6_7 N3_7 1_555 1_555
H3_7 C6_7 1_555 1_555
N4_7 C5_7 1_555 1_555
O1_7 N4_7 1_555 1_555
N5_7 Zn3_3 1_555 1_555
C7_7 N5_7 1_555 1_555
C8_7 N5_7 1_555 1_555
H4_7 C8_7 1_555 1_555
N6_7 C7_7 1_555 1_555
O2_7 N6_7 1_555 1_555
Zn5_4 N7_7 1_555 1_555
Zn5_6 N10_5 1_555 1_555
N7_7 C1_7 1_555 1_555
C9_6 C2_6 1_555 1_555
Cl3_6 C9_6 1_555 1_555
N9_7 Zn5_4 1_555 1_555
N10_5 C5_7 1_555 1_555
N11_3 Zn5_4 1_555 1_555
C11_7 C6_7 1_555 1_555
H5_7 C11_7 1_555 1_555
O3_7 N4_7 1_555 1_555
N13_4 C7_7 1_555 1_555
C12_7 C8_7 1_555 1_555
H6_7 C12_7 1_555 1_555
O4_7 N6_7 1_555 1_555
N7_7 C9_6 1_555 1_555
N10_5 C11_7 1_555 1_555
N13_4 C12_7 1_555 1_555
Zn3_2 N1_8 1_555 1_555
N1_8 C1_8 1_555 1_555
C1_8 H1_8 1_555 1_555
C2_7 N1_8 1_555 1_555
Cl1_7 C2_7 1_555 1_555
N3_8 Zn3_2 1_555 1_555
C5_8 N3_8 1_555 1_555
C6_8 N3_8 1_555 1_555
H3_8 C6_8 1_555 1_555
N4_8 C5_8 1_555 1_555
O1_8 N4_8 1_555 1_555
N5_8 Zn3_2 1_555 1_555
C7_8 N5_8 1_555 1_555
C8_8 N5_8 1_555 1_555
H4_8 C8_8 1_555 1_555
N6_8 C7_8 1_555 1_555
O2_8 N6_8 1_555 1_555
Zn5_6 N7_8 1_555 1_555
Zn5_5 N10_6 1_555 1_555
N7_8 C1_8 1_555 1_555
C9_7 C2_7 1_555 1_555
Cl3_7 C9_7 1_555 1_555
N9_8 Zn5_6 1_555 1_555
N10_6 C5_8 1_555 1_555
C11_8 C6_8 1_555 1_555
H5_8 C11_8 1_555 1_555
O3_8 N4_8 1_555 1_555
N13_6 C7_8 1_555 1_555
C12_8 C8_8 1_555 1_555
H6_8 C12_8 1_555 1_555
O4_8 N6_8 1_555 1_555
N7_8 C9_7 1_555 1_555
N10_6 C11_8 1_555 1_555
N13_6 C12_8 1_555 1_555
Zn3 N1_9 1_555 1_555
N1_9 C1_9 1_555 1_555
C1_9 H1_9 1_555 1_555
C2_8 N1_9 1_555 1_555
Cl1_8 C2_8 1_555 1_555
N3_9 Zn3 1_555 1_555
C5_9 N3_9 1_555 1_555
C6_9 N3_9 1_555 1_555
H3_9 C6_9 1_555 1_555
N4_9 C5_9 1_555 1_555
O1_9 N4_9 1_555 1_555
N5_9 Zn3 1_555 1_555
C7_9 N5_9 1_555 1_555
C8_9 N5_9 1_555 1_555
H4_9 C8_9 1_555 1_555
N6_9 C7_9 1_555 1_555
O2_9 N6_9 1_555 1_555
Zn5_5 N7_9 1_555 1_555
N7_9 C1_9 1_555 1_555
C9_8 C2_8 1_555 1_555
Cl3_8 C9_8 1_555 1_555
N9_9 Zn5_5 1_555 1_555
N11_3 C5_9 1_555 1_555
C11_9 C6_9 1_555 1_555
H5_9 C11_9 1_555 1_555
O3_9 N4_9 1_555 1_555
N13_5 C7_9 1_555 1_555
C12_9 C8_9 1_555 1_555
H6_9 C12_9 1_555 1_555
O4_9 N6_9 1_555 1_555
N7_9 C9_8 1_555 1_555
N11_3 C11_9 1_555 1_555
N13_5 C12_9 1_555 1_555
Zn3_6 N1_10 1_555 1_555
N1_10 C1_10 1_555 1_555
C1_10 H1_10 1_555 1_555
N3_10 Zn3_6 1_555 1_555
C5_10 N3_10 1_555 1_555
C6_10 N3_10 1_555 1_555
H3_10 C6_10 1_555 1_555
N4_10 C5_10 1_555 1_555
O1_10 N4_10 1_555 1_555
N5_10 Zn3_6 1_555 1_555
C7_10 N5_10 1_555 1_555
C8_10 N5_10 1_555 1_555
H4_10 C8_10 1_555 1_555
N6_10 C7_10 1_555 1_555
O2_10 N6_10 1_555 1_555
Zn5 N7_10 1_555 1_555
Zn5_3 N10_7 1_555 1_555
N7_10 C1_10 1_555 1_555
N9_10 Zn5 1_555 1_555
N10_7 C5_10 1_555 1_555
N11_4 Zn5 1_555 1_555
C11_10 C6_10 1_555 1_555
H5_10 C11_10 1_555 1_555
O3_10 N4_10 1_555 1_555
N13 C7_10 1_555 1_555
C12_10 C8_10 1_555 1_555
H6_10 C12_10 1_555 1_555
O4_10 N6_10 1_555 1_555
N10_7 C11_10 1_555 1_555
N13 C12_10 1_555 1_555
Zn3_5 N1_11 1_555 1_555
N1_11 C1_11 1_555 1_555
C1_11 H1_11 1_555 1_555
N3_11 Zn3_5 1_555 1_555
C5_11 N3_11 1_555 1_555
C6_11 N3_11 1_555 1_555
H3_11 C6_11 1_555 1_555
N4_11 C5_11 1_555 1_555
O1_11 N4_11 1_555 1_555
N5_11 Zn3_5 1_555 1_555
C7_11 N5_11 1_555 1_555
C8_11 N5_11 1_555 1_555
H4_11 C8_11 1_555 1_555
N6_11 C7_11 1_555 1_555
O2_11 N6_11 1_555 1_555
Zn5_3 N7_11 1_555 1_555
Zn5_2 N10_8 1_555 1_555
N7_11 C1_11 1_555 1_555
N9_11 Zn5_3 1_555 1_555
N10_8 C5_11 1_555 1_555
C11_11 C6_11 1_555 1_555
H5_11 C11_11 1_555 1_555
O3_11 N4_11 1_555 1_555
N13_3 C7_11 1_555 1_555
C12_11 C8_11 1_555 1_555
H6_11 C12_11 1_555 1_555
O4_11 N6_11 1_555 1_555
N10_8 C11_11 1_555 1_555
N13_3 C12_11 1_555 1_555
Cl1_9 C2_9 1_555 1_555
C9_9 C2_9 1_555 1_555
Cl3_9 C9_9 1_555 1_555
Zn3_4 N1_12 1_555 1_555
N1_12 C1_12 1_555 1_555
C1_12 H1_12 1_555 1_555
N3_12 Zn3_4 1_555 1_555
C5_12 N3_12 1_555 1_555
C6_12 N3_12 1_555 1_555
H3_12 C6_12 1_555 1_555
N4_12 C5_12 1_555 1_555
O1_12 N4_12 1_555 1_555
N5_12 Zn3_4 1_555 1_555
C7_12 N5_12 1_555 1_555
C8_12 N5_12 1_555 1_555
H4_12 C8_12 1_555 1_555
N6_12 C7_12 1_555 1_555
O2_12 N6_12 1_555 1_555
Zn5_2 N7_12 1_555 1_555
N7_12 C1_12 1_555 1_555
N9_12 Zn5_2 1_555 1_555
N11_4 C5_12 1_555 1_555
C11_12 C6_12 1_555 1_555
H5_12 C11_12 1_555 1_555
O3_12 N4_12 1_555 1_555
N13_2 C7_12 1_555 1_555
C12_12 C8_12 1_555 1_555
H6_12 C12_12 1_555 1_555
O4_12 N6_12 1_555 1_555
N11_4 C11_12 1_555 1_555
N13_2 C12_12 1_555 1_555
Cl1_10 C2_10 1_555 1_555
C9_10 C2_10 1_555 1_555
Cl3_10 C9_10 1_555 1_555
C3_14 N9_7 1_555 1_555
H2_14 C3_14 1_555 1_555
C4_7 N9_7 1_555 1_555
Cl2_7 C4_7 1_555 1_555
H2_15 C3_15 1_555 1_555
N9_2 C3_15 1_555 1_555
Cl4_7 C10_7 1_555 1_555
N9_2 C10_7 1_555 1_555
C3_16 N9_9 1_555 1_555
H2_16 C3_16 1_555 1_555
C4_8 N9_9 1_555 1_555
Cl2_8 C4_8 1_555 1_555
N9_3 C3_16 1_555 1_555
C10_8 C4_8 1_555 1_555
Cl4_8 C10_8 1_555 1_555
N9_3 C10_8 1_555 1_555
H2_17 C3_17 1_555 1_555
N9 C3_17 1_555 1_555
Cl4_9 C10_9 1_555 1_555
N9 C10_9 1_555 1_555
C3_18 N9_8 1_555 1_555
H2_18 C3_18 1_555 1_555
C4_9 N9_8 1_555 1_555
Cl2_9 C4_9 1_555 1_555
H2_19 C3_19 1_555 1_555
H2_20 C3_20 1_555 1_555
N9_5 C3_20 1_555 1_555
Cl4_10 C10_10 1_555 1_555
N9_5 C10_10 1_555 1_555
C3_21 N9_10 1_555 1_555
H2_21 C3_21 1_555 1_555
C4_10 N9_10 1_555 1_555
Cl2_10 C4_10 1_555 1_555
C3_22 N9_12 1_555 1_555
H2_22 C3_22 1_555 1_555
C4_11 N9_12 1_555 1_555
Cl2_11 C4_11 1_555 1_555
H2_23 C3_23 1_555 1_555
N9_6 C3_23 1_555 1_555
Cl4_11 C10_11 1_555 1_555
N9_6 C10_11 1_555 1_555
C3_24 N9_11 1_555 1_555
H2_24 C3_24 1_555 1_555
C4_12 N9_11 1_555 1_555
Cl2_12 C4_12 1_555 1_555
H2_25 C3_25 1_555 1_555
H2_26 C3_26 1_555 1_555
N9_4 C3_26 1_555 1_555
Cl4_12 C10_12 1_555 1_555
N9_4 C10_12 1_555 1_555
Cl1_11 C2_11 1_555 1_555
H2_27 C3_27 1_555 1_555
C9_11 C2_11 1_555 1_555
Cl3_11 C9_11 1_555 1_555
H2_28 C3_28 1_555 1_555
H2_29 C3_29 1_555 1_555
Cl1_12 C2_12 1_555 1_555
C9_12 C2_12 1_555 1_555
Cl3_12 C9_12 1_555 1_555
H2_30 C3_30 1_555 1_555

#END
