
###############################################################################
#
# This file contains modified crystal structure data generated from the
# MOF subset of the Cambridge Structural Database (CSD) v543 
# hosted by the Cambridge Crystallographic Data Centre (CCDC).
#
# This work is licensed under the Creative Commons
# Attribution-NonCommercial-ShareAlike 4.0 International License.
# To view a copy of this license, visit
# http://creativecommons.org/licenses/by-nc-sa/4.0/
# or send a letter to
# Creative Commons, PO Box 1866, Mountain View, CA 94042, USA.
#
# CIF created using the CSD Python API on 29 September 2022
# The structure has been converted into the P1 space group
# The structure has a 3D framework
# The original CSD entry YOZDUP is in the monoclinic crystal system
# The framework has been calculated to contain at least 10.0% void space
# The void calculation uses a probe of radius 1.32A, grid spacing 0.4
#
###############################################################################

data_YOZDUP
_chemical_formula_moiety         '(C416 H416 Cd8 N32 O48 S20)n'
_symmetry_cell_setting           triclinic
_symmetry_space_group_name_H-M   'P 1'
_symmetry_Int_Tables_number      1
_space_group_name_Hall           'P 1'
loop_
_symmetry_equiv_pos_site_id
_symmetry_equiv_pos_as_xyz
1 x,y,z
_cell_length_a                   32.122(3)
_cell_length_b                   18.8092(12)
_cell_length_c                   17.9554(13)
_cell_angle_alpha                90
_cell_angle_beta                 93.169(6)
_cell_angle_gamma                90
_cell_volume                     10831.9
loop_
_atom_site_label
_atom_site_type_symbol
_atom_site_fract_x
_atom_site_fract_y
_atom_site_fract_z
C1 C 0.5910(6) 0.0165(10) 0.0209(13)
H2 H 0.6030 0.0187 0.0710
C4 C 0.6060(4) 0.1364(7) 0.0057(11)
H7 H 0.6120 0.1480 0.0572
C5 C 0.5385(3) 0.1102(6) 0.0542(6)
C6 C 0.5348(2) 0.0779(5) 0.1209(6)
H10 H 0.5534 0.0414 0.1340
C7 C 0.5046(2) 0.0959(4) 0.1717(4)
C8 C 0.4758(2) 0.1499(4) 0.1492(4)
C9 C 0.4801(2) 0.1833(4) 0.0830(4)
C10 C 0.5116(3) 0.1636(5) 0.0377(5)
C11 C 0.4081(3) 0.1285(6) 0.1782(6)
H12 H 0.4127 0.0776 0.1801
H13 H 0.3975 0.1414 0.1284
C12 C 0.3764(3) 0.1521(6) 0.2388(6)
H14 H 0.3857 0.1342 0.2875
H15 H 0.3751 0.2035 0.2414
C13 C 0.3369(4) 0.1243(10) 0.2178(8)
H16 H 0.3389 0.0733 0.2110
H17 H 0.3267 0.1453 0.1709
C14 C 0.2808(3) 0.1965(6) 0.2785(5)
H18 H 0.2799 0.2341 0.2448
C15 C 0.2993(4) 0.0974(7) 0.3310(7)
H19 H 0.3136 0.0557 0.3434
C16 C 0.2664(3) 0.1245(6) 0.3653(6)
H20 H 0.2527 0.1027 0.4035
C17 C 0.3404(3) 0.4947(6) 0.2148(7)
H21 H 0.3491 0.4804 0.2646
H22 H 0.3120 0.5105 0.2136
H23 H 0.3579 0.5329 0.1995
C18 C 0.3134(3) 0.3732(8) 0.1834(9)
H24 H 0.3208 0.3566 0.2330
H25 H 0.3149 0.3343 0.1490
H26 H 0.2856 0.3918 0.1815
C19 C 0.3314(3) 0.4561(7) 0.0844(7)
H27 H 0.3039 0.4762 0.0837
H28 H 0.3315 0.4160 0.0513
H29 H 0.3507 0.4912 0.0686
C20 C 0.3442(2) 0.4323(5) 0.1622(5)
C21 C 0.3876(2) 0.3989(4) 0.1628(4)
C22 C 0.4208(2) 0.4285(4) 0.2060(3)
H30 H 0.4159 0.4675 0.2363
C23 C 0.4608(2) 0.4008(3) 0.2046(4)
C24 C 0.4693(2) 0.3437(4) 0.1598(3)
C25 C 0.4367(2) 0.3139(4) 0.1169(4)
C26 C 0.3966(2) 0.3410(4) 0.1190(4)
H31 H 0.3752 0.3197 0.0901
C27 C 0.5324(3) 0.3545(5) 0.1060(5)
H32 H 0.5333 0.4045 0.1189
H33 H 0.5191 0.3500 0.0563
C28 C 0.5759(3) 0.3252(5) 0.1067(5)
H34 H 0.5760 0.2792 0.0824
H35 H 0.5873 0.3198 0.1576
C29 C 0.6014(3) 0.3787(5) 0.0648(7)
H36 H 0.5839 0.3989 0.0244
H37 H 0.6099 0.4170 0.0984
C31 C 0.7012(3) 0.3166(8) 0.0182(7)
H39 H 0.7294 0.3070 0.0275
C32 C 0.6759(4) 0.3422(9) 0.0671(7)
H40 H 0.6836 0.3540 0.1163
N1 N 0.3070(3) 0.1406(7) 0.2776(5)
N2 N 0.25677(18) 0.1891(4) 0.3346(3)
N4 N 0.6374(2) 0.3486(4) 0.0348(5)
O1 O 0.44517(17) 0.1653(3) 0.1976(3)
O2 O 0.50896(14) 0.3171(2) 0.1575(3)
S1 S 0.5000 0.45429(15) 0.2500
S2 S 0.44299(9) 0.24753(12) 0.04734(13)
S3 S 0.5000 0.04098(16) 0.2500
C53 C 0.4090(6) 0.0165(10) 0.4791(13)
H54 H 0.3970 0.0187 0.4290
H55 H 0.3877 0.0053 0.5126
C54 C 0.4286(3) 0.0891(7) 0.5006(7)
C55 C 0.4491(5) 0.0571(11) 0.5661(10)
H56 H 0.4714 0.0271 0.5514
H57 H 0.4294 0.0293 0.5918
H58 H 0.4602 0.0938 0.5987
C56 C 0.3940(4) 0.1364(7) 0.4943(11)
H59 H 0.3880 0.1480 0.4428
H60 H 0.4006 0.1791 0.5218
H61 H 0.3702 0.1141 0.5141
C57 C 0.4615(3) 0.1102(6) 0.4458(6)
C58 C 0.4652(2) 0.0779(5) 0.3791(6)
H62 H 0.4466 0.0414 0.3660
C59 C 0.4954(2) 0.0959(4) 0.3283(4)
C60 C 0.5242(2) 0.1499(4) 0.3508(4)
C61 C 0.5199(2) 0.1833(4) 0.4170(4)
C62 C 0.4884(3) 0.1636(5) 0.4623(5)
H63 H 0.4857 0.1884 0.5066
C63 C 0.5919(3) 0.1285(6) 0.3218(6)
H64 H 0.5873 0.0776 0.3199
H65 H 0.6025 0.1414 0.3716
C64 C 0.6236(3) 0.1521(6) 0.2612(6)
H66 H 0.6143 0.1342 0.2125
H67 H 0.6249 0.2035 0.2586
C65 C 0.6631(4) 0.1243(10) 0.2822(8)
H68 H 0.6611 0.0733 0.2890
H69 H 0.6733 0.1453 0.3291
C66 C 0.7192(3) 0.1965(6) 0.2215(5)
H70 H 0.7201 0.2341 0.2552
C67 C 0.7007(4) 0.0974(7) 0.1690(7)
H71 H 0.6864 0.0557 0.1566
C68 C 0.7336(3) 0.1245(6) 0.1347(6)
H72 H 0.7473 0.1027 0.0965
C69 C 0.6596(3) 0.4947(6) 0.2852(7)
H73 H 0.6509 0.4804 0.2354
H74 H 0.6880 0.5105 0.2864
H75 H 0.6421 0.5329 0.3005
C70 C 0.6866(3) 0.3732(8) 0.3166(9)
H76 H 0.6792 0.3566 0.2670
H77 H 0.6851 0.3343 0.3510
H78 H 0.7144 0.3918 0.3185
C71 C 0.6686(3) 0.4561(7) 0.4156(7)
H79 H 0.6961 0.4762 0.4163
H80 H 0.6685 0.4160 0.4487
H81 H 0.6493 0.4912 0.4314
C72 C 0.6558(2) 0.4323(5) 0.3378(5)
C73 C 0.6124(2) 0.3989(4) 0.3372(4)
C74 C 0.5792(2) 0.4285(4) 0.2940(3)
H82 H 0.5841 0.4675 0.2637
C75 C 0.5392(2) 0.4008(3) 0.2954(4)
C76 C 0.5307(2) 0.3437(4) 0.3402(3)
C77 C 0.5633(2) 0.3139(4) 0.3831(4)
C78 C 0.6034(2) 0.3410(4) 0.3810(4)
H83 H 0.6248 0.3197 0.4099
C79 C 0.4676(3) 0.3545(5) 0.3940(5)
H84 H 0.4667 0.4045 0.3811
H85 H 0.4809 0.3500 0.4437
C80 C 0.4241(3) 0.3252(5) 0.3933(5)
H86 H 0.4240 0.2792 0.4176
H87 H 0.4127 0.3198 0.3424
C81 C 0.3986(3) 0.3787(5) 0.4352(7)
H88 H 0.4161 0.3989 0.4756
H89 H 0.3901 0.4170 0.4016
C82 C 0.3574(3) 0.3256(5) 0.5372(6)
H90 H 0.3787 0.3242 0.5743
C83 C 0.2988(3) 0.3166(8) 0.4818(7)
H91 H 0.2706 0.3070 0.4725
C84 C 0.3241(4) 0.3422(9) 0.4329(7)
H92 H 0.3164 0.3540 0.3837
N5 N 0.6930(3) 0.1406(7) 0.2224(5)
N6 N 0.74323(18) 0.1891(4) 0.1654(3)
N7 N 0.3203(2) 0.3066(3) 0.5470(4)
N8 N 0.3626(2) 0.3486(4) 0.4652(5)
O7 O 0.55483(17) 0.1653(3) 0.3024(3)
O8 O 0.49104(14) 0.3171(2) 0.3425(3)
S4 S 0.55701(9) 0.24753(12) 0.45266(13)
Cd2 Cd 0.301627(13) 0.24982(2) 0.65346(3)
Cd5 Cd 0.801627(13) 0.25018(2) 0.15346(3)
Cd6 Cd 0.198373(13) 0.25018(2) 0.34654(3)
N9 N 0.24323(18) 0.3109(4) 0.6654(3)
O13 O 0.30265(18) 0.1484(3) 0.5932(3)
O14 O 0.2706(2) 0.1302(3) 0.6896(4)
O15 O 0.37007(19) 0.2749(4) 0.6984(4)
O16 O 0.3244(2) 0.2936(4) 0.7707(3)
H1 H 0.5698 0.9804 0.0177
H42 H 0.7021 0.9285 0.0260
H53 H 0.4302 0.9804 0.4823
C85 C 0.7827(2) 0.3978(4) 0.1317(5)
C86 C 0.77483(18) 0.4659(3) 0.1046(3)
C87 C 0.7923(2) 0.4897(4) 0.0435(4)
H93 H 0.8094 0.4594 0.0179
C88 C 0.7858(2) 0.5574(4) 0.0175(4)
C89 C 0.76181(19) 0.6052(3) 0.0545(4)
C90 C 0.7452(2) 0.5817(4) 0.1189(4)
H95 H 0.7296 0.6127 0.1466
C91 C 0.7514(2) 0.5130(4) 0.1427(4)
H96 H 0.7393 0.4980 0.1859
C92 C 0.75616(19) 0.6783(3) 0.0267(4)
C93 C 0.7290(3) 0.7262(4) 0.0595(5)
H97 H 0.7149 0.7119 0.1009
C94 C 0.7229(3) 0.7934(4) 0.0318(5)
H98 H 0.7033 0.8220 0.0537
O9 O 0.80265(18) 0.3516(3) 0.0932(3)
O10 O 0.7706(2) 0.3698(3) 0.1896(4)
C33 C 0.2827(2) 0.1022(4) 0.6317(5)
C34 C 0.27483(18) 0.0341(3) 0.6046(3)
C35 C 0.2923(2) 0.0103(4) 0.5435(4)
H41 H 0.3094 0.0406 0.5179
H44 H 0.2393 0.0020 0.6859
C43 C 0.3616(3) 0.3010(4) 0.7654(5)
C44 C 0.3886(3) 0.3380(4) 0.8094(4)
C45 C 0.4298(3) 0.3434(6) 0.7952(5)
H47 H 0.4395 0.3228 0.7523
C46 C 0.4573(3) 0.3789(7) 0.8438(6)
H48 H 0.4855 0.3793 0.8343
C47 C 0.4448(2) 0.4130(4) 0.9044(3)
C48 C 0.4047(3) 0.4076(7) 0.9172(5)
H49 H 0.3950 0.4289 0.9597
C49 C 0.3765(3) 0.3714(7) 0.8694(6)
H50 H 0.3485 0.3706 0.8799
C50 C 0.4732(2) 0.4568(4) 0.9551(3)
C51 C 0.5127(2) 0.4744(4) 0.9341(4)
H51 H 0.5217 0.4577 0.8890
C52 C 0.5390(2) 0.5164(4) 0.9792(4)
H52 H 0.5656 0.5266 0.9641
C36 C 0.2858(2) 0.9426(4) 0.5175(4)
H42_2 H 0.2979 0.9285 0.4740
C37 C 0.26181(19) 0.8948(3) 0.5545(4)
C38 C 0.2452(2) 0.9183(4) 0.6189(4)
H43 H 0.2296 0.8873 0.6466
C39 C 0.2514(2) 0.9870(4) 0.6427(4)
C40 C 0.25616(19) 0.8217(3) 0.5267(4)
C41 C 0.2290(3) 0.7738(4) 0.5595(5)
H45 H 0.2149 0.7881 0.6009
C42 C 0.2229(3) 0.7066(4) 0.5318(5)
H46 H 0.2033 0.6780 0.5537
C85_2 C 0.2173(2) 0.3978(4) 0.3683(5)
C86_2 C 0.22517(18) 0.4659(3) 0.3954(3)
C87_2 C 0.2077(2) 0.4897(4) 0.4565(4)
H93_2 H 0.1906 0.4594 0.4821
C88_2 C 0.2142(2) 0.5574(4) 0.4825(4)
H94 H 0.2021 0.5715 0.5260
C89_2 C 0.23819(19) 0.6052(3) 0.4455(4)
C90_2 C 0.2548(2) 0.5817(4) 0.3811(4)
H95_2 H 0.2704 0.6127 0.3534
C91_2 C 0.2486(2) 0.5130(4) 0.3573(4)
H96_2 H 0.2607 0.4980 0.3141
C92_2 C 0.24384(19) 0.6783(3) 0.4733(4)
C93_2 C 0.2710(3) 0.7262(4) 0.4405(5)
H97_2 H 0.2851 0.7119 0.3991
C94_2 C 0.2771(3) 0.7934(4) 0.4682(5)
H98_2 H 0.2967 0.8220 0.4463
O9_2 O 0.19735(18) 0.3516(3) 0.4068(3)
O10_2 O 0.2294(2) 0.3698(3) 0.3104(4)
C52_2 C 0.9610(2) 0.0164(4) 0.5208(4)
H52_2 H 0.9344 0.0266 0.5359
C95 C 0.8616(3) 0.1990(4) 0.2654(5)
C96 C 0.8886(3) 0.1620(4) 0.3094(4)
C97 C 0.9298(3) 0.1566(6) 0.2952(5)
H99 H 0.9395 0.1772 0.2523
C98 C 0.9573(3) 0.1211(7) 0.3438(6)
H100 H 0.9855 0.1207 0.3343
C99 C 0.9448(2) 0.0870(4) 0.4044(3)
C100 C 0.9047(3) 0.0924(7) 0.4172(5)
H101 H 0.8950 0.0711 0.4597
C101 C 0.8765(3) 0.1286(7) 0.3694(6)
H102 H 0.8485 0.1294 0.3799
C102 C 0.9732(2) 0.0432(4) 0.4551(3)
O11 O 0.87007(19) 0.2251(4) 0.1984(4)
O12 O 0.8244(2) 0.2064(4) 0.2707(3)
C95_2 C 0.1384(3) 0.1990(4) 0.2346(5)
C96_2 C 0.1114(3) 0.1620(4) 0.1906(4)
C97_2 C 0.0702(3) 0.1566(6) 0.2048(5)
H99_2 H 0.0605 0.1772 0.2477
C98_2 C 0.0427(3) 0.1211(7) 0.1562(6)
H100_2 H 0.0145 0.1207 0.1657
C99_2 C 0.0552(2) 0.0870(4) 0.0956(3)
C100_2 C 0.0953(3) 0.0924(7) 0.0828(5)
H101_2 H 0.1050 0.0711 0.0403
C101_2 C 0.1235(3) 0.1286(7) 0.1306(6)
H102_2 H 0.1515 0.1294 0.1201
C102_2 C 0.0268(2) 0.0432(4) 0.0449(3)
O11_2 O 0.12993(19) 0.2251(4) 0.3016(4)
O12_2 O 0.1756(2) 0.2064(4) 0.2293(3)
C8_2 C 0.0242(2) 0.3501(4) 0.8508(4)
C9_2 C 0.0199(2) 0.3167(4) 0.9170(4)
C11_2 C 0.0919(3) 0.3715(6) 0.8218(6)
H12_2 H 0.0873 0.4224 0.8199
H13_2 H 0.1025 0.3586 0.8716
C12_2 C 0.1236(3) 0.3479(6) 0.7612(6)
H14_2 H 0.1143 0.3658 0.7125
H15_2 H 0.1249 0.2965 0.7586
C13_2 C 0.1631(4) 0.3757(10) 0.7822(8)
H16_2 H 0.1611 0.4267 0.7890
H17_2 H 0.1733 0.3547 0.8291
C14_2 C 0.2192(3) 0.3035(6) 0.7215(5)
H18_2 H 0.2201 0.2659 0.7552
C15_2 C 0.2007(4) 0.4026(7) 0.6690(7)
H19_2 H 0.1864 0.4443 0.6566
C16_2 C 0.2336(3) 0.3755(6) 0.6347(6)
H20_2 H 0.2473 0.3973 0.5965
C17_2 C 0.1596(3) 0.0053(6) 0.7852(7)
H21_2 H 0.1509 0.0196 0.7354
C18_2 C 0.1866(3) 0.1268(8) 0.8166(9)
H24_2 H 0.1792 0.1434 0.7670
H25_2 H 0.1851 0.1657 0.8510
H26_2 H 0.2144 0.1082 0.8185
C19_2 C 0.1686(3) 0.0439(7) 0.9156(7)
H27_2 H 0.1961 0.0238 0.9163
H28_2 H 0.1685 0.0840 0.9487
H29_2 H 0.1493 0.0088 0.9314
C20_2 C 0.1558(2) 0.0677(5) 0.8378(5)
C21_2 C 0.1124(2) 0.1011(4) 0.8372(4)
C22_2 C 0.0792(2) 0.0715(4) 0.7940(3)
H30_2 H 0.0841 0.0325 0.7637
C23_2 C 0.0392(2) 0.0992(3) 0.7954(4)
C24_2 C 0.0307(2) 0.1563(4) 0.8402(3)
C25_2 C 0.0633(2) 0.1861(4) 0.8831(4)
C26_2 C 0.1034(2) 0.1590(4) 0.8810(4)
H31_2 H 0.1248 0.1803 0.9099
N1_2 N 0.1930(3) 0.3594(7) 0.7224(5)
O1_2 O 0.05483(17) 0.3347(3) 0.8024(3)
S1_2 S 0.0000 0.04571(15) 0.7500
S2_2 S 0.05701(9) 0.25247(12) 0.95266(13)
S3_2 S 0.0000 0.45902(16) 0.7500
C53_2 C 0.0910(6) 0.4835(10) 0.5209(13)
H53_2 H 0.0698 0.5196 0.5177
H54_2 H 0.1030 0.4813 0.5710
H55_2 H 0.1123 0.4947 0.4874
C54_2 C 0.0714(3) 0.4109(7) 0.4994(7)
C55_2 C 0.0509(5) 0.4429(11) 0.4339(10)
H56_2 H 0.0286 0.4729 0.4486
H57_2 H 0.0706 0.4707 0.4082
H58_2 H 0.0398 0.4062 0.4013
C56_2 C 0.1060(4) 0.3636(7) 0.5057(11)
H59_2 H 0.1120 0.3520 0.5572
H60_2 H 0.0994 0.3209 0.4782
H61_2 H 0.1298 0.3859 0.4859
C57_2 C 0.0385(3) 0.3898(6) 0.5542(6)
C58_2 C 0.0348(2) 0.4221(5) 0.6209(6)
H62_2 H 0.0534 0.4586 0.6340
C59_2 C 0.0046(2) 0.4041(4) 0.6717(4)
C62_2 C 0.0116(3) 0.3364(5) 0.5377(5)
H63_2 H 0.0143 0.3116 0.4934
C79_2 C 0.0324(3) 0.1455(5) 0.6060(5)
H84_2 H 0.0333 0.0955 0.6189
H85_2 H 0.0191 0.1500 0.5563
C80_2 C 0.0759(3) 0.1748(5) 0.6067(5)
H86_2 H 0.0760 0.2208 0.5824
H87_2 H 0.0873 0.1802 0.6576
C81_2 C 0.1014(3) 0.1213(5) 0.5648(7)
H88_2 H 0.0839 0.1011 0.5244
H89_2 H 0.1099 0.0830 0.5984
C82_2 C 0.1426(3) 0.1744(5) 0.4628(6)
H90_2 H 0.1213 0.1758 0.4257
C83_2 C 0.2012(3) 0.1834(8) 0.5182(7)
H91_2 H 0.2294 0.1930 0.5275
C84_2 C 0.1759(4) 0.1578(9) 0.5671(7)
H92_2 H 0.1836 0.1460 0.6163
N7_2 N 0.1797(2) 0.1934(3) 0.4530(4)
N8_2 N 0.1374(2) 0.1514(4) 0.5348(5)
O8_2 O 0.00896(14) 0.1829(2) 0.6575(3)
H3 H 0.8877 0.4947 0.0126
C2 C 0.9286(3) 0.4109(7) 0.0006(7)
C3 C 0.9491(5) 0.4429(11) 0.0661(10)
H4 H 0.9714 0.4729 0.0514
H5 H 0.9294 0.4707 0.0918
H6 H 0.9602 0.4062 0.0987
H8 H 0.9006 0.3209 0.0218
H9 H 0.8702 0.3859 0.0141
H11 H 0.9857 0.3116 0.0066
C30 C 0.8574(3) 0.1744(5) 0.0372(6)
H38 H 0.8787 0.1758 0.0743
N3 N 0.8203(2) 0.1934(3) 0.0470(4)
Cd1 Cd 0.698373(13) 0.24982(2) 0.84654(3)
H3_2 H 0.6123 0.0053 0.9874
C2_2 C 0.5714(3) 0.0891(7) 0.9994(7)
C3_2 C 0.5509(5) 0.0571(11) 0.9339(10)
H4_2 H 0.5286 0.0271 0.9486
H5_2 H 0.5706 0.0293 0.9082
H6_2 H 0.5398 0.0938 0.9013
H8_2 H 0.5994 0.1791 0.9782
H9_2 H 0.6298 0.1141 0.9859
H11_2 H 0.5143 0.1884 0.9934
C30_2 C 0.6426(3) 0.3256(5) 0.9628(6)
H38_2 H 0.6213 0.3242 0.9257
C33_2 C 0.7173(2) 0.1022(4) 0.8683(5)
C34_2 C 0.72517(18) 0.0341(3) 0.8954(3)
C35_2 C 0.7077(2) 0.0103(4) 0.9565(4)
H41_2 H 0.6906 0.0406 0.9821
H44_2 H 0.7607 0.0020 0.8141
C43_2 C 0.6384(3) 0.3010(4) 0.7346(5)
C44_2 C 0.6114(3) 0.3380(4) 0.6906(4)
C45_2 C 0.5702(3) 0.3434(6) 0.7048(5)
H47_2 H 0.5605 0.3228 0.7477
C46_2 C 0.5427(3) 0.3789(7) 0.6562(6)
H48_2 H 0.5145 0.3793 0.6657
C47_2 C 0.5552(2) 0.4130(4) 0.5956(3)
C48_2 C 0.5953(3) 0.4076(7) 0.5828(5)
H49_2 H 0.6050 0.4289 0.5403
C49_2 C 0.6235(3) 0.3714(7) 0.6306(6)
H50_2 H 0.6515 0.3706 0.6201
C50_2 C 0.5268(2) 0.4568(4) 0.5449(3)
C51_2 C 0.4873(2) 0.4744(4) 0.5659(4)
H51_2 H 0.4783 0.4577 0.6110
C52_3 C 0.4610(2) 0.5164(4) 0.5208(4)
H52_3 H 0.4344 0.5266 0.5359
N3_2 N 0.6797(2) 0.3066(3) 0.9530(4)
O3 O 0.69735(18) 0.1484(3) 0.9068(3)
O4 O 0.7294(2) 0.1302(3) 0.8104(4)
O5 O 0.62993(19) 0.2749(4) 0.8016(4)
O6 O 0.6756(2) 0.2936(4) 0.7293(3)
C95_3 C 0.3616(3) 0.6990(4) 0.2654(5)
C96_3 C 0.3886(3) 0.6620(4) 0.3094(4)
C97_3 C 0.4298(3) 0.6566(6) 0.2952(5)
H99_3 H 0.4395 0.6772 0.2523
C98_3 C 0.4573(3) 0.6211(7) 0.3438(6)
H100_3 H 0.4855 0.6207 0.3343
C99_3 C 0.4448(2) 0.5870(4) 0.4044(3)
C100_3 C 0.4047(3) 0.5924(7) 0.4172(5)
H101_3 H 0.3950 0.5711 0.4597
C101_3 C 0.3765(3) 0.6286(7) 0.3694(6)
H102_3 H 0.3485 0.6294 0.3799
C102_3 C 0.4732(2) 0.5432(4) 0.4551(3)
C103 C 0.5127(2) 0.5256(4) 0.4341(4)
H103 H 0.5217 0.5423 0.3890
C104 C 0.5390(2) 0.4836(4) 0.4792(4)
H104 H 0.5656 0.4734 0.4641
O11_3 O 0.37007(19) 0.7251(4) 0.1984(4)
O12_3 O 0.3244(2) 0.7064(4) 0.2707(3)
Cd3 Cd 0.301627(13) 0.75018(2) 0.15346(3)
N10 N 0.75677(18) 0.3109(4) 0.8346(3)
C36_2 C 0.7142(2) 0.9426(4) 0.9825(4)
C37_2 C 0.73819(19) 0.8948(3) 0.9455(4)
C38_2 C 0.7548(2) 0.9183(4) 0.8811(4)
H43_2 H 0.7704 0.8873 0.8534
C39_2 C 0.7486(2) 0.9870(4) 0.8573(4)
C40_2 C 0.74384(19) 0.8217(3) 0.9733(4)
C41_2 C 0.7710(3) 0.7738(4) 0.9405(5)
H45_2 H 0.7851 0.7881 0.8991
C42_2 C 0.7771(3) 0.7066(4) 0.9682(5)
H46_2 H 0.7967 0.6780 0.9463
H94_2 H 0.7979 0.5715 0.9740
C1_2 C 0.0910(6) 0.5165(10) 0.0209(13)
H1_2 H 0.0698 0.4804 0.0177
H2_2 H 0.1030 0.5187 0.0710
C4_2 C 0.1060(4) 0.6364(7) 0.0057(11)
H7_2 H 0.1120 0.6480 0.0572
C5_2 C 0.0385(3) 0.6102(6) 0.0542(6)
C6_2 C 0.0348(2) 0.5779(5) 0.1209(6)
H10_2 H 0.0534 0.5414 0.1340
C7_2 C 0.0046(2) 0.5959(4) 0.1717(4)
C10_2 C 0.0116(3) 0.6636(5) 0.0377(5)
C27_2 C 0.0324(3) 0.8545(5) 0.1060(5)
H32_2 H 0.0333 0.9045 0.1189
H33_2 H 0.0191 0.8500 0.0563
C28_2 C 0.0759(3) 0.8252(5) 0.1067(5)
H34_2 H 0.0760 0.7792 0.0824
H35_2 H 0.0873 0.8198 0.1576
C29_2 C 0.1014(3) 0.8787(5) 0.0648(7)
H36_2 H 0.0839 0.8989 0.0244
H37_2 H 0.1099 0.9170 0.0984
C31_2 C 0.2012(3) 0.8166(8) 0.0182(7)
H39_2 H 0.2294 0.8070 0.0275
C32_2 C 0.1759(4) 0.8422(9) 0.0671(7)
H40_2 H 0.1836 0.8540 0.1163
H42_3 H 0.2021 0.4285 0.0260
N4_2 N 0.1374(2) 0.8486(4) 0.0348(5)
O2_2 O 0.00896(14) 0.8171(2) 0.1575(3)
S1_3 S 0.0000 0.95429(15) 0.2500
S3_3 S 0.0000 0.54098(16) 0.2500
C60_2 C 0.0242(2) 0.6499(4) 0.3508(4)
C61_2 C 0.0199(2) 0.6833(4) 0.4170(4)
C63_2 C 0.0919(3) 0.6285(6) 0.3218(6)
H64_2 H 0.0873 0.5776 0.3199
H65_2 H 0.1025 0.6414 0.3716
C64_2 C 0.1236(3) 0.6521(6) 0.2612(6)
H66_2 H 0.1143 0.6342 0.2125
H67_2 H 0.1249 0.7035 0.2586
C65_2 C 0.1631(4) 0.6243(10) 0.2822(8)
H68_2 H 0.1611 0.5733 0.2890
H69_2 H 0.1733 0.6453 0.3291
C66_2 C 0.2192(3) 0.6965(6) 0.2215(5)
H70_2 H 0.2201 0.7341 0.2552
C67_2 C 0.2007(4) 0.5974(7) 0.1690(7)
H71_2 H 0.1864 0.5557 0.1566
C68_2 C 0.2336(3) 0.6245(6) 0.1347(6)
H72_2 H 0.2473 0.6027 0.0965
C69_2 C 0.1596(3) 0.9947(6) 0.2852(7)
H73_2 H 0.1509 0.9804 0.2354
C70_2 C 0.1866(3) 0.8732(8) 0.3166(9)
H76_2 H 0.1792 0.8566 0.2670
H77_2 H 0.1851 0.8343 0.3510
H78_2 H 0.2144 0.8918 0.3185
C71_2 C 0.1686(3) 0.9561(7) 0.4156(7)
H79_2 H 0.1961 0.9762 0.4163
H80_2 H 0.1685 0.9160 0.4487
H81_2 H 0.1493 0.9912 0.4314
C72_2 C 0.1558(2) 0.9323(5) 0.3378(5)
C73_2 C 0.1124(2) 0.8989(4) 0.3372(4)
C74_2 C 0.0792(2) 0.9285(4) 0.2940(3)
H82_2 H 0.0841 0.9675 0.2637
C75_2 C 0.0392(2) 0.9008(3) 0.2954(4)
C76_2 C 0.0307(2) 0.8437(4) 0.3402(3)
C77_2 C 0.0633(2) 0.8139(4) 0.3831(4)
C78_2 C 0.1034(2) 0.8410(4) 0.3810(4)
H83_2 H 0.1248 0.8197 0.4099
N5_2 N 0.1930(3) 0.6406(7) 0.2224(5)
N6_2 N 0.24323(18) 0.6891(4) 0.1654(3)
O7_2 O 0.05483(17) 0.6653(3) 0.3024(3)
S4_2 S 0.05701(9) 0.74753(12) 0.45266(13)
C88_3 C 0.2858(2) 0.0574(4) 0.0175(4)
C89_3 C 0.26181(19) 0.1052(3) 0.0545(4)
C90_3 C 0.2452(2) 0.0817(4) 0.1189(4)
H95_3 H 0.2296 0.1127 0.1466
C91_3 C 0.2514(2) 0.0130(4) 0.1427(4)
C92_3 C 0.25616(19) 0.1783(3) 0.0267(4)
C93_3 C 0.2290(3) 0.2262(4) 0.0595(5)
H97_3 H 0.2149 0.2119 0.1009
C94_3 C 0.2229(3) 0.2934(4) 0.0318(5)
H98_3 H 0.2033 0.3220 0.0537
C85_3 C 0.2827(2) 0.8978(4) 0.1317(5)
C86_3 C 0.27483(18) 0.9659(3) 0.1046(3)
C87_3 C 0.2923(2) 0.9897(4) 0.0435(4)
H93_3 H 0.3094 0.9594 0.0179
H96_3 H 0.2393 0.9980 0.1859
O9_3 O 0.30265(18) 0.8516(3) 0.0932(3)
O10_3 O 0.2706(2) 0.8698(3) 0.1896(4)
C51_3 C 0.0127(2) 0.9744(4) 0.9341(4)
H51_3 H 0.0217 0.9577 0.8890
C103_2 C 0.9873(2) 0.0256(4) 0.0659(4)
H103_2 H 0.9783 0.0423 0.1110
H3_3 H 0.3877 0.9947 0.0126
C2_3 C 0.4286(3) 0.9109(7) 0.0006(7)
C3_3 C 0.4491(5) 0.9429(11) 0.0661(10)
H4_3 H 0.4714 0.9729 0.0514
H5_3 H 0.4294 0.9707 0.0918
H6_3 H 0.4602 0.9062 0.0987
H8_3 H 0.4006 0.8209 0.0218
H9_3 H 0.3702 0.8859 0.0141
H11_3 H 0.4857 0.8116 0.0066
C30_3 C 0.3574(3) 0.6744(5) 0.0372(6)
H38_3 H 0.3787 0.6758 0.0743
N3_3 N 0.3203(2) 0.6934(3) 0.0470(4)
C1_3 C 0.9090(6) 0.4835(10) 0.9791(13)
H1_3 H 0.9302 0.5196 0.9823
H2_3 H 0.8970 0.4813 0.9290
C4_3 C 0.8940(4) 0.3636(7) 0.9943(11)
H7_3 H 0.8880 0.3520 0.9428
C5_3 C 0.9615(3) 0.3898(6) 0.9458(6)
C6_3 C 0.9652(2) 0.4221(5) 0.8791(6)
H10_3 H 0.9466 0.4586 0.8660
C7_3 C 0.9954(2) 0.4041(4) 0.8283(4)
C10_3 C 0.9884(3) 0.3364(5) 0.9623(5)
C27_3 C 0.9676(3) 0.1455(5) 0.8940(5)
H32_3 H 0.9667 0.0955 0.8811
H33_3 H 0.9809 0.1500 0.9437
C28_3 C 0.9241(3) 0.1748(5) 0.8933(5)
H34_3 H 0.9240 0.2208 0.9176
H35_3 H 0.9127 0.1802 0.8424
C29_3 C 0.8986(3) 0.1213(5) 0.9352(7)
H36_3 H 0.9161 0.1011 0.9756
H37_3 H 0.8901 0.0830 0.9016
C31_3 C 0.7988(3) 0.1834(8) 0.9818(7)
H39_3 H 0.7706 0.1930 0.9725
C32_3 C 0.8241(4) 0.1578(9) 0.9329(7)
H40_3 H 0.8164 0.1460 0.8837
N4_3 N 0.8626(2) 0.1514(4) 0.9652(5)
O2_3 O 0.99104(14) 0.1829(2) 0.8425(3)
S1_4 S 1.0000 0.04571(15) 0.7500
S3_4 S 1.0000 0.45902(16) 0.7500
C60_3 C 0.9758(2) 0.3501(4) 0.6492(4)
C61_3 C 0.9801(2) 0.3167(4) 0.5830(4)
C63_3 C 0.9081(3) 0.3715(6) 0.6782(6)
H64_3 H 0.9127 0.4224 0.6801
H65_3 H 0.8975 0.3586 0.6284
C64_3 C 0.8764(3) 0.3479(6) 0.7388(6)
H66_3 H 0.8857 0.3658 0.7875
H67_3 H 0.8751 0.2965 0.7414
C65_3 C 0.8369(4) 0.3757(10) 0.7178(8)
H68_3 H 0.8389 0.4267 0.7110
H69_3 H 0.8267 0.3547 0.6709
C66_3 C 0.7808(3) 0.3035(6) 0.7785(5)
H70_3 H 0.7799 0.2659 0.7448
C67_3 C 0.7993(4) 0.4026(7) 0.8310(7)
H71_3 H 0.8136 0.4443 0.8434
C68_3 C 0.7664(3) 0.3755(6) 0.8653(6)
H72_3 H 0.7527 0.3973 0.9035
C69_3 C 0.8404(3) 0.0053(6) 0.7148(7)
H73_3 H 0.8491 0.0196 0.7646
C70_3 C 0.8134(3) 0.1268(8) 0.6834(9)
H76_3 H 0.8208 0.1434 0.7330
H77_3 H 0.8149 0.1657 0.6490
H78_3 H 0.7856 0.1082 0.6815
C71_3 C 0.8314(3) 0.0439(7) 0.5844(7)
H79_3 H 0.8039 0.0238 0.5837
H80_3 H 0.8315 0.0840 0.5513
H81_3 H 0.8507 0.0088 0.5686
C72_3 C 0.8442(2) 0.0677(5) 0.6622(5)
C73_3 C 0.8876(2) 0.1011(4) 0.6628(4)
C74_3 C 0.9208(2) 0.0715(4) 0.7060(3)
H82_3 H 0.9159 0.0325 0.7363
C75_3 C 0.9608(2) 0.0992(3) 0.7046(4)
C76_3 C 0.9693(2) 0.1563(4) 0.6598(3)
C77_3 C 0.9367(2) 0.1861(4) 0.6169(4)
C78_3 C 0.8966(2) 0.1590(4) 0.6190(4)
H83_3 H 0.8752 0.1803 0.5901
N5_3 N 0.8070(3) 0.3594(7) 0.7776(5)
O7_3 O 0.94517(17) 0.3347(3) 0.6976(3)
S4_3 S 0.94299(9) 0.25247(12) 0.54734(13)
C95_4 C 0.6384(3) 0.6990(4) 0.2346(5)
C96_4 C 0.6114(3) 0.6620(4) 0.1906(4)
C97_4 C 0.5702(3) 0.6566(6) 0.2048(5)
H99_4 H 0.5605 0.6772 0.2477
C98_4 C 0.5427(3) 0.6211(7) 0.1562(6)
H100_4 H 0.5145 0.6207 0.1657
C99_4 C 0.5552(2) 0.5870(4) 0.0956(3)
C100_4 C 0.5953(3) 0.5924(7) 0.0828(5)
H101_4 H 0.6050 0.5711 0.0403
C101_4 C 0.6235(3) 0.6286(7) 0.1306(6)
H102_4 H 0.6515 0.6294 0.1201
C102_4 C 0.5268(2) 0.5432(4) 0.0449(3)
C103_3 C 0.4873(2) 0.5256(4) 0.0659(4)
H103_3 H 0.4783 0.5423 0.1110
C104_2 C 0.4610(2) 0.4836(4) 0.0208(4)
H104_2 H 0.4344 0.4734 0.0359
O11_4 O 0.62993(19) 0.7251(4) 0.3016(4)
O12_4 O 0.6756(2) 0.7064(4) 0.2293(3)
Cd3_2 Cd 0.698373(13) 0.75018(2) 0.34654(3)
Cd1_2 Cd 0.198373(13) 0.74982(2) 0.84654(3)
H3_4 H 0.1123 0.5053 0.9874
C2_4 C 0.0714(3) 0.5891(7) 0.9994(7)
C3_4 C 0.0509(5) 0.5571(11) 0.9339(10)
H4_4 H 0.0286 0.5271 0.9486
H5_4 H 0.0706 0.5293 0.9082
H6_4 H 0.0398 0.5938 0.9013
H8_4 H 0.0994 0.6791 0.9782
H9_4 H 0.1298 0.6141 0.9859
H11_4 H 0.0143 0.6884 0.9934
C30_4 C 0.1426(3) 0.8256(5) 0.9628(6)
H38_4 H 0.1213 0.8242 0.9257
C33_3 C 0.2173(2) 0.6022(4) 0.8683(5)
C34_3 C 0.22517(18) 0.5341(3) 0.8954(3)
C35_3 C 0.2077(2) 0.5103(4) 0.9565(4)
H41_3 H 0.1906 0.5406 0.9821
C36_3 C 0.2142(2) 0.4426(4) 0.9825(4)
C37_3 C 0.23819(19) 0.3948(3) 0.9455(4)
C38_3 C 0.2548(2) 0.4183(4) 0.8811(4)
H43_3 H 0.2704 0.3873 0.8534
C39_3 C 0.2486(2) 0.4870(4) 0.8573(4)
H44_3 H 0.2607 0.5020 0.8141
C40_3 C 0.24384(19) 0.3217(3) 0.9733(4)
C41_3 C 0.2710(3) 0.2738(4) 0.9405(5)
H45_3 H 0.2851 0.2881 0.8991
C42_3 C 0.2771(3) 0.2066(4) 0.9682(5)
H46_3 H 0.2967 0.1780 0.9463
C43_3 C 0.1384(3) 0.8010(4) 0.7346(5)
C44_3 C 0.1114(3) 0.8380(4) 0.6906(4)
C45_3 C 0.0702(3) 0.8434(6) 0.7048(5)
H47_3 H 0.0605 0.8228 0.7477
C46_3 C 0.0427(3) 0.8789(7) 0.6562(6)
H48_3 H 0.0145 0.8793 0.6657
C47_3 C 0.0552(2) 0.9130(4) 0.5956(3)
C48_3 C 0.0953(3) 0.9076(7) 0.5828(5)
H49_3 H 0.1050 0.9289 0.5403
C49_3 C 0.1235(3) 0.8714(7) 0.6306(6)
H50_3 H 0.1515 0.8706 0.6201
C50_3 C 0.0268(2) 0.9568(4) 0.5449(3)
N3_4 N 0.1797(2) 0.8066(3) 0.9530(4)
O3_2 O 0.19735(18) 0.6484(3) 0.9068(3)
O4_2 O 0.2294(2) 0.6302(3) 0.8104(4)
O5_2 O 0.12993(19) 0.7749(4) 0.8016(4)
O6_2 O 0.1756(2) 0.7936(4) 0.7293(3)
H94_3 H 0.2979 0.0715 0.9740
C104_3 C 0.0390(2) 0.9836(4) 0.4792(4)
H104_3 H 0.0656 0.9734 0.4641
N10_2 N 0.25677(18) 0.8109(4) 0.8346(3)
C8_3 C 0.9758(2) 0.6499(4) 0.1492(4)
C9_3 C 0.9801(2) 0.6833(4) 0.0830(4)
C11_3 C 0.9081(3) 0.6285(6) 0.1782(6)
H12_3 H 0.9127 0.5776 0.1801
H13_3 H 0.8975 0.6414 0.1284
C12_3 C 0.8764(3) 0.6521(6) 0.2388(6)
H14_3 H 0.8857 0.6342 0.2875
H15_3 H 0.8751 0.7035 0.2414
C13_3 C 0.8369(4) 0.6243(10) 0.2178(8)
H16_3 H 0.8389 0.5733 0.2110
H17_3 H 0.8267 0.6453 0.1709
C14_3 C 0.7808(3) 0.6965(6) 0.2785(5)
H18_3 H 0.7799 0.7341 0.2448
C15_3 C 0.7993(4) 0.5974(7) 0.3310(7)
H19_3 H 0.8136 0.5557 0.3434
C16_3 C 0.7664(3) 0.6245(6) 0.3653(6)
H20_3 H 0.7527 0.6027 0.4035
C17_3 C 0.8404(3) 0.9947(6) 0.2148(7)
H21_3 H 0.8491 0.9804 0.2646
C18_3 C 0.8134(3) 0.8732(8) 0.1834(9)
H24_3 H 0.8208 0.8566 0.2330
H25_3 H 0.8149 0.8343 0.1490
H26_3 H 0.7856 0.8918 0.1815
C19_3 C 0.8314(3) 0.9561(7) 0.0844(7)
H27_3 H 0.8039 0.9762 0.0837
H28_3 H 0.8315 0.9160 0.0513
H29_3 H 0.8507 0.9912 0.0686
C20_3 C 0.8442(2) 0.9323(5) 0.1622(5)
C21_3 C 0.8876(2) 0.8989(4) 0.1628(4)
C22_3 C 0.9208(2) 0.9285(4) 0.2060(3)
H30_3 H 0.9159 0.9675 0.2363
C23_3 C 0.9608(2) 0.9008(3) 0.2046(4)
C24_3 C 0.9693(2) 0.8437(4) 0.1598(3)
C25_3 C 0.9367(2) 0.8139(4) 0.1169(4)
C26_3 C 0.8966(2) 0.8410(4) 0.1190(4)
H31_3 H 0.8752 0.8197 0.0901
N1_3 N 0.8070(3) 0.6406(7) 0.2776(5)
N2_2 N 0.75677(18) 0.6891(4) 0.3346(3)
O1_3 O 0.94517(17) 0.6653(3) 0.1976(3)
S1_5 S 1.0000 0.95429(15) 0.2500
S2_3 S 0.94299(9) 0.74753(12) 0.04734(13)
S3_5 S 1.0000 0.54098(16) 0.2500
C53_3 C 0.9090(6) 0.5165(10) 0.4791(13)
H53_3 H 0.9302 0.4804 0.4823
H54_3 H 0.8970 0.5187 0.4290
H55_3 H 0.8877 0.5053 0.5126
C54_3 C 0.9286(3) 0.5891(7) 0.5006(7)
C55_3 C 0.9491(5) 0.5571(11) 0.5661(10)
H56_3 H 0.9714 0.5271 0.5514
H57_3 H 0.9294 0.5293 0.5918
H58_3 H 0.9602 0.5938 0.5987
C56_3 C 0.8940(4) 0.6364(7) 0.4943(11)
H59_3 H 0.8880 0.6480 0.4428
H60_3 H 0.9006 0.6791 0.5218
H61_3 H 0.8702 0.6141 0.5141
C57_3 C 0.9615(3) 0.6102(6) 0.4458(6)
C58_3 C 0.9652(2) 0.5779(5) 0.3791(6)
H62_3 H 0.9466 0.5414 0.3660
C59_3 C 0.9954(2) 0.5959(4) 0.3283(4)
C62_3 C 0.9884(3) 0.6636(5) 0.4623(5)
H63_3 H 0.9857 0.6884 0.5066
C79_3 C 0.9676(3) 0.8545(5) 0.3940(5)
H84_3 H 0.9667 0.9045 0.3811
H85_3 H 0.9809 0.8500 0.4437
C80_3 C 0.9241(3) 0.8252(5) 0.3933(5)
H86_3 H 0.9240 0.7792 0.4176
H87_3 H 0.9127 0.8198 0.3424
C81_3 C 0.8986(3) 0.8787(5) 0.4352(7)
H88_3 H 0.9161 0.8989 0.4756
H89_3 H 0.8901 0.9170 0.4016
C82_3 C 0.8574(3) 0.8256(5) 0.5372(6)
H90_3 H 0.8787 0.8242 0.5743
C83_3 C 0.7988(3) 0.8166(8) 0.4818(7)
H91_3 H 0.7706 0.8070 0.4725
C84_3 C 0.8241(4) 0.8422(9) 0.4329(7)
H92_3 H 0.8164 0.8540 0.3837
N7_3 N 0.8203(2) 0.8066(3) 0.5470(4)
N8_3 N 0.8626(2) 0.8486(4) 0.4652(5)
O8_3 O 0.99104(14) 0.8171(2) 0.3425(3)
Cd2_2 Cd 0.801627(13) 0.74982(2) 0.65346(3)
N9_2 N 0.74323(18) 0.8109(4) 0.6654(3)
O13_2 O 0.80265(18) 0.6484(3) 0.5932(3)
O14_2 O 0.7706(2) 0.6302(3) 0.6896(4)
O15_2 O 0.87007(19) 0.7749(4) 0.6984(4)
O16_2 O 0.8244(2) 0.7936(4) 0.7707(3)
C33_4 C 0.7827(2) 0.6022(4) 0.6317(5)
C34_4 C 0.77483(18) 0.5341(3) 0.6046(3)
C35_4 C 0.7923(2) 0.5103(4) 0.5435(4)
H41_4 H 0.8094 0.5406 0.5179
C36_4 C 0.7858(2) 0.4426(4) 0.5175(4)
H42_4 H 0.7979 0.4285 0.4740
C37_4 C 0.76181(19) 0.3948(3) 0.5545(4)
C38_4 C 0.7452(2) 0.4183(4) 0.6189(4)
H43_4 H 0.7296 0.3873 0.6466
C39_4 C 0.7514(2) 0.4870(4) 0.6427(4)
H44_4 H 0.7393 0.5020 0.6859
C40_4 C 0.75616(19) 0.3217(3) 0.5267(4)
C41_4 C 0.7290(3) 0.2738(4) 0.5595(5)
H45_4 H 0.7149 0.2881 0.6009
C42_4 C 0.7229(3) 0.2066(4) 0.5318(5)
H46_4 H 0.7033 0.1780 0.5537
C43_4 C 0.8616(3) 0.8010(4) 0.7654(5)
C44_4 C 0.8886(3) 0.8380(4) 0.8094(4)
C45_4 C 0.9298(3) 0.8434(6) 0.7952(5)
H47_4 H 0.9395 0.8228 0.7523
C46_4 C 0.9573(3) 0.8789(7) 0.8438(6)
H48_4 H 0.9855 0.8793 0.8343
C47_4 C 0.9448(2) 0.9130(4) 0.9044(3)
C48_4 C 0.9047(3) 0.9076(7) 0.9172(5)
H49_4 H 0.8950 0.9289 0.9597
C49_4 C 0.8765(3) 0.8714(7) 0.8694(6)
H50_4 H 0.8485 0.8706 0.8799
C50_4 C 0.9732(2) 0.9568(4) 0.9551(3)
C88_4 C 0.7142(2) 0.0574(4) 0.4825(4)
H94_4 H 0.7021 0.0715 0.5260
C89_4 C 0.73819(19) 0.1052(3) 0.4455(4)
C90_4 C 0.7548(2) 0.0817(4) 0.3811(4)
H95_4 H 0.7704 0.1127 0.3534
C91_4 C 0.7486(2) 0.0130(4) 0.3573(4)
C92_4 C 0.74384(19) 0.1783(3) 0.4733(4)
C93_4 C 0.7710(3) 0.2262(4) 0.4405(5)
H97_4 H 0.7851 0.2119 0.3991
C94_4 C 0.7771(3) 0.2934(4) 0.4682(5)
H98_4 H 0.7967 0.3220 0.4463
C85_4 C 0.7173(2) 0.8978(4) 0.3683(5)
C86_4 C 0.72517(18) 0.9659(3) 0.3954(3)
C87_4 C 0.7077(2) 0.9897(4) 0.4565(4)
H93_4 H 0.6906 0.9594 0.4821
H96_4 H 0.7607 0.9980 0.3141
O9_4 O 0.69735(18) 0.8516(3) 0.4068(3)
O10_4 O 0.7294(2) 0.8698(3) 0.3104(4)
H1_4 H 0.4302 0.0196 0.9823
H53_4 H 0.5698 0.0196 0.5177
C1_4 C 0.4090(6) 0.9835(10) 0.9791(13)
H2_4 H 0.3970 0.9813 0.9290
C4_4 C 0.3940(4) 0.8636(7) 0.9943(11)
H7_4 H 0.3880 0.8520 0.9428
C5_4 C 0.4615(3) 0.8898(6) 0.9458(6)
C6_4 C 0.4652(2) 0.9221(5) 0.8791(6)
H10_4 H 0.4466 0.9586 0.8660
C7_4 C 0.4954(2) 0.9041(4) 0.8283(4)
C8_4 C 0.5242(2) 0.8501(4) 0.8508(4)
C9_4 C 0.5199(2) 0.8167(4) 0.9170(4)
C10_4 C 0.4884(3) 0.8364(5) 0.9623(5)
C11_4 C 0.5919(3) 0.8715(6) 0.8218(6)
H12_4 H 0.5873 0.9224 0.8199
H13_4 H 0.6025 0.8586 0.8716
C12_4 C 0.6236(3) 0.8479(6) 0.7612(6)
H14_4 H 0.6143 0.8658 0.7125
H15_4 H 0.6249 0.7965 0.7586
C13_4 C 0.6631(4) 0.8757(10) 0.7822(8)
H16_4 H 0.6611 0.9267 0.7890
H17_4 H 0.6733 0.8547 0.8291
C14_4 C 0.7192(3) 0.8035(6) 0.7215(5)
H18_4 H 0.7201 0.7659 0.7552
C15_4 C 0.7007(4) 0.9026(7) 0.6690(7)
H19_4 H 0.6864 0.9443 0.6566
C16_4 C 0.7336(3) 0.8755(6) 0.6347(6)
H20_4 H 0.7473 0.8973 0.5965
C17_4 C 0.6596(3) 0.5053(6) 0.7852(7)
H21_4 H 0.6509 0.5196 0.7354
H22_2 H 0.6880 0.4895 0.7864
H23_2 H 0.6421 0.4671 0.8005
C18_4 C 0.6866(3) 0.6268(8) 0.8166(9)
H24_4 H 0.6792 0.6434 0.7670
H25_4 H 0.6851 0.6657 0.8510
H26_4 H 0.7144 0.6082 0.8185
C19_4 C 0.6686(3) 0.5439(7) 0.9156(7)
H27_4 H 0.6961 0.5238 0.9163
H28_4 H 0.6685 0.5840 0.9487
H29_4 H 0.6493 0.5088 0.9314
C20_4 C 0.6558(2) 0.5677(5) 0.8378(5)
C21_4 C 0.6124(2) 0.6011(4) 0.8372(4)
C22_4 C 0.5792(2) 0.5715(4) 0.7940(3)
H30_4 H 0.5841 0.5325 0.7637
C23_4 C 0.5392(2) 0.5992(3) 0.7954(4)
C24_4 C 0.5307(2) 0.6563(4) 0.8402(3)
C25_4 C 0.5633(2) 0.6861(4) 0.8831(4)
C26_4 C 0.6034(2) 0.6590(4) 0.8810(4)
H31_4 H 0.6248 0.6803 0.9099
C27_4 C 0.4676(3) 0.6455(5) 0.8940(5)
H32_4 H 0.4667 0.5955 0.8811
H33_4 H 0.4809 0.6500 0.9437
C28_4 C 0.4241(3) 0.6748(5) 0.8933(5)
H34_4 H 0.4240 0.7208 0.9176
H35_4 H 0.4127 0.6802 0.8424
C29_4 C 0.3986(3) 0.6213(5) 0.9352(7)
H36_4 H 0.4161 0.6011 0.9756
H37_4 H 0.3901 0.5830 0.9016
C31_4 C 0.2988(3) 0.6834(8) 0.9818(7)
H39_4 H 0.2706 0.6930 0.9725
C32_4 C 0.3241(4) 0.6578(9) 0.9329(7)
H40_4 H 0.3164 0.6460 0.8837
N1_4 N 0.6930(3) 0.8594(7) 0.7224(5)
N4_4 N 0.3626(2) 0.6514(4) 0.9652(5)
O1_4 O 0.55483(17) 0.8347(3) 0.8024(3)
O2_4 O 0.49104(14) 0.6829(2) 0.8425(3)
S1_6 S 0.5000 0.54571(15) 0.7500
S2_4 S 0.55701(9) 0.75247(12) 0.95266(13)
S3_6 S 0.5000 0.95902(16) 0.7500
C53_4 C 0.5910(6) 0.9835(10) 0.5209(13)
H54_4 H 0.6030 0.9813 0.5710
H55_4 H 0.6123 0.9947 0.4874
C54_4 C 0.5714(3) 0.9109(7) 0.4994(7)
C55_4 C 0.5509(5) 0.9429(11) 0.4339(10)
H56_4 H 0.5286 0.9729 0.4486
H57_4 H 0.5706 0.9707 0.4082
H58_4 H 0.5398 0.9062 0.4013
C56_4 C 0.6060(4) 0.8636(7) 0.5057(11)
H59_4 H 0.6120 0.8520 0.5572
H60_4 H 0.5994 0.8209 0.4782
H61_4 H 0.6298 0.8859 0.4859
C57_4 C 0.5385(3) 0.8898(6) 0.5542(6)
C58_4 C 0.5348(2) 0.9221(5) 0.6209(6)
H62_4 H 0.5534 0.9586 0.6340
C59_4 C 0.5046(2) 0.9041(4) 0.6717(4)
C60_4 C 0.4758(2) 0.8501(4) 0.6492(4)
C61_4 C 0.4801(2) 0.8167(4) 0.5830(4)
C62_4 C 0.5116(3) 0.8364(5) 0.5377(5)
H63_4 H 0.5143 0.8116 0.4934
C63_4 C 0.4081(3) 0.8715(6) 0.6782(6)
H64_4 H 0.4127 0.9224 0.6801
H65_4 H 0.3975 0.8586 0.6284
C64_4 C 0.3764(3) 0.8479(6) 0.7388(6)
H66_4 H 0.3857 0.8658 0.7875
H67_4 H 0.3751 0.7965 0.7414
C65_4 C 0.3369(4) 0.8757(10) 0.7178(8)
H68_4 H 0.3389 0.9267 0.7110
H69_4 H 0.3267 0.8547 0.6709
C66_4 C 0.2808(3) 0.8035(6) 0.7785(5)
H70_4 H 0.2799 0.7659 0.7448
C67_4 C 0.2993(4) 0.9026(7) 0.8310(7)
H71_4 H 0.3136 0.9443 0.8434
C68_4 C 0.2664(3) 0.8755(6) 0.8653(6)
H72_4 H 0.2527 0.8973 0.9035
C69_4 C 0.3404(3) 0.5053(6) 0.7148(7)
H73_4 H 0.3491 0.5196 0.7646
H74_2 H 0.3120 0.4895 0.7136
H75_2 H 0.3579 0.4671 0.6995
C70_4 C 0.3134(3) 0.6268(8) 0.6834(9)
H76_4 H 0.3208 0.6434 0.7330
H77_4 H 0.3149 0.6657 0.6490
H78_4 H 0.2856 0.6082 0.6815
C71_4 C 0.3314(3) 0.5439(7) 0.5844(7)
H79_4 H 0.3039 0.5238 0.5837
H80_4 H 0.3315 0.5840 0.5513
H81_4 H 0.3507 0.5088 0.5686
C72_4 C 0.3442(2) 0.5677(5) 0.6622(5)
C73_4 C 0.3876(2) 0.6011(4) 0.6628(4)
C74_4 C 0.4208(2) 0.5715(4) 0.7060(3)
H82_4 H 0.4159 0.5325 0.7363
C75_4 C 0.4608(2) 0.5992(3) 0.7046(4)
C76_4 C 0.4693(2) 0.6563(4) 0.6598(3)
C77_4 C 0.4367(2) 0.6861(4) 0.6169(4)
C78_4 C 0.3966(2) 0.6590(4) 0.6190(4)
H83_4 H 0.3752 0.6803 0.5901
C79_4 C 0.5324(3) 0.6455(5) 0.6060(5)
H84_4 H 0.5333 0.5955 0.6189
H85_4 H 0.5191 0.6500 0.5563
C80_4 C 0.5759(3) 0.6748(5) 0.6067(5)
H86_4 H 0.5760 0.7208 0.5824
H87_4 H 0.5873 0.6802 0.6576
C81_4 C 0.6014(3) 0.6213(5) 0.5648(7)
H88_4 H 0.5839 0.6011 0.5244
H89_4 H 0.6099 0.5830 0.5984
C82_4 C 0.6426(3) 0.6744(5) 0.4628(6)
H90_4 H 0.6213 0.6758 0.4257
C83_4 C 0.7012(3) 0.6834(8) 0.5182(7)
H91_4 H 0.7294 0.6930 0.5275
C84_4 C 0.6759(4) 0.6578(9) 0.5671(7)
H92_4 H 0.6836 0.6460 0.6163
N5_4 N 0.3070(3) 0.8594(7) 0.7776(5)
N7_4 N 0.6797(2) 0.6934(3) 0.4530(4)
N8_4 N 0.6374(2) 0.6514(4) 0.5348(5)
O7_4 O 0.44517(17) 0.8347(3) 0.6976(3)
O8_4 O 0.50896(14) 0.6829(2) 0.6575(3)
S4_4 S 0.44299(9) 0.75247(12) 0.54734(13)
H74_3 H 0.1880 0.0105 0.2864
H75_3 H 0.1421 0.0329 0.3005
C52_4 C 0.0390(2) 0.0164(4) 0.9792(4)
H52_4 H 0.0656 0.0266 0.9641
C103_4 C 0.0127(2) 0.0256(4) 0.4341(4)
H103_4 H 0.0217 0.0423 0.3890
H22_3 H 0.8120 0.0105 0.2136
H23_3 H 0.8579 0.0329 0.1995
C51_4 C 0.9873(2) 0.9744(4) 0.5659(4)
H51_4 H 0.9783 0.9577 0.6110
C104_4 C 0.9610(2) 0.9836(4) 0.0208(4)
H104_4 H 0.9344 0.9734 0.0359
H74_4 H 0.8120 0.9895 0.7136
H75_4 H 0.8579 0.9671 0.6995
H22_4 H 0.1880 0.9895 0.7864
H23_4 H 0.1421 0.9671 0.8005
loop_
_geom_bond_atom_site_label_1
_geom_bond_atom_site_label_2
_geom_bond_site_symmetry_1
_geom_bond_site_symmetry_2
H2 C1 1_555 1_555
H7 C4 1_555 1_555
C6 C5 1_555 1_555
H10 C6 1_555 1_555
C7 C6 1_555 1_555
C8 C7 1_555 1_555
C9 C8 1_555 1_555
C10 C5 1_555 1_555
C11 H12 1_555 1_555
H13 C11 1_555 1_555
C12 C11 1_555 1_555
H14 C12 1_555 1_555
H15 C12 1_555 1_555
C13 C12 1_555 1_555
H16 C13 1_555 1_555
H17 C13 1_555 1_555
C14 H18 1_555 1_555
C15 H19 1_555 1_555
C16 C15 1_555 1_555
H20 C16 1_555 1_555
C17 H21 1_555 1_555
H22 C17 1_555 1_555
H23 C17 1_555 1_555
C18 H24 1_555 1_555
H25 C18 1_555 1_555
H26 C18 1_555 1_555
C19 H27 1_555 1_555
H28 C19 1_555 1_555
H29 C19 1_555 1_555
C20 C17 1_555 1_555
C21 C20 1_555 1_555
C22 C21 1_555 1_555
H30 C22 1_555 1_555
C23 C22 1_555 1_555
C24 C23 1_555 1_555
C25 C24 1_555 1_555
C26 C21 1_555 1_555
H31 C26 1_555 1_555
C27 H32 1_555 1_555
H33 C27 1_555 1_555
C28 C27 1_555 1_555
H34 C28 1_555 1_555
H35 C28 1_555 1_555
C29 C28 1_555 1_555
H36 C29 1_555 1_555
H37 C29 1_555 1_555
C31 H39 1_555 1_555
C32 C31 1_555 1_555
H40 C32 1_555 1_555
N1 C13 1_555 1_555
N2 C14 1_555 1_555
N4 C29 1_555 1_555
O1 C8 1_555 1_555
O2 C24 1_555 1_555
S1 C23 1_555 1_555
S2 C9 1_555 1_555
S3 C7 1_555 1_555
H54 C53 1_555 1_555
H55 C53 1_555 1_555
C54 C53 1_555 1_555
C55 C54 1_555 1_555
H56 C55 1_555 1_555
H57 C55 1_555 1_555
H58 C55 1_555 1_555
C56 C54 1_555 1_555
H59 C56 1_555 1_555
H60 C56 1_555 1_555
H61 C56 1_555 1_555
C57 C54 1_555 1_555
C58 C57 1_555 1_555
H62 C58 1_555 1_555
C59 S3 1_555 1_555
C60 C59 1_555 1_555
C61 C60 1_555 1_555
C62 C57 1_555 1_555
H63 C62 1_555 1_555
C63 H64 1_555 1_555
H65 C63 1_555 1_555
C64 C63 1_555 1_555
H66 C64 1_555 1_555
H67 C64 1_555 1_555
C65 C64 1_555 1_555
H68 C65 1_555 1_555
H69 C65 1_555 1_555
C66 H70 1_555 1_555
C67 H71 1_555 1_555
C68 C67 1_555 1_555
H72 C68 1_555 1_555
C69 H73 1_555 1_555
H74 C69 1_555 1_555
H75 C69 1_555 1_555
C70 H76 1_555 1_555
H77 C70 1_555 1_555
H78 C70 1_555 1_555
C71 H79 1_555 1_555
H80 C71 1_555 1_555
H81 C71 1_555 1_555
C72 C69 1_555 1_555
C73 C72 1_555 1_555
C74 C73 1_555 1_555
H82 C74 1_555 1_555
C75 S1 1_555 1_555
C76 C75 1_555 1_555
C77 C76 1_555 1_555
C78 C73 1_555 1_555
H83 C78 1_555 1_555
C79 H84 1_555 1_555
H85 C79 1_555 1_555
C80 C79 1_555 1_555
H86 C80 1_555 1_555
H87 C80 1_555 1_555
C81 C80 1_555 1_555
H88 C81 1_555 1_555
H89 C81 1_555 1_555
C82 H90 1_555 1_555
C83 H91 1_555 1_555
C84 C83 1_555 1_555
H92 C84 1_555 1_555
N5 C65 1_555 1_555
N6 C66 1_555 1_555
N7 C82 1_555 1_555
N8 C81 1_555 1_555
O7 C60 1_555 1_555
O8 C76 1_555 1_555
S4 C61 1_555 1_555
Cd2 N7 1_555 1_555
Cd5 N6 1_555 1_555
Cd6 N2 1_555 1_555
N9 Cd2 1_555 1_555
O13 Cd2 1_555 1_555
O14 Cd2 1_555 1_555
O15 Cd2 1_555 1_555
O16 Cd2 1_555 1_555
C9 C10 1_555 1_555
C11 O1 1_555 1_555
C14 N1 1_555 1_555
C15 N1 1_555 1_555
C16 N2 1_555 1_555
C18 C20 1_555 1_555
C19 C20 1_555 1_555
C25 C26 1_555 1_555
C25 S2 1_555 1_555
C27 O2 1_555 1_555
C32 N4 1_555 1_555
C58 C59 1_555 1_555
C61 C62 1_555 1_555
C63 O7 1_555 1_555
C66 N5 1_555 1_555
C67 N5 1_555 1_555
C68 N6 1_555 1_555
C70 C72 1_555 1_555
C71 C72 1_555 1_555
C74 C75 1_555 1_555
C77 C78 1_555 1_555
C77 S4 1_555 1_555
C79 O8 1_555 1_555
C82 N8 1_555 1_555
C83 N7 1_555 1_555
C84 N8 1_555 1_555
C85 C86 1_555 1_555
C86 C87 1_555 1_555
C87 H93 1_555 1_555
C88 C87 1_555 1_555
C89 C88 1_555 1_555
C90 C89 1_555 1_555
H95 C90 1_555 1_555
C91 C86 1_555 1_555
H96 C91 1_555 1_555
C93 C92 1_555 1_555
H97 C93 1_555 1_555
H98 C94 1_555 1_555
O9 C85 1_555 1_555
O10 C85 1_555 1_555
Cd5 O9 1_555 1_555
C89 C92 1_555 1_555
C90 C91 1_555 1_555
C93 C94 1_555 1_555
O10 Cd5 1_555 1_555
C33 C34 1_555 1_555
C34 C35 1_555 1_555
C35 H41 1_555 1_555
C43 C44 1_555 1_555
C44 C45 1_555 1_555
C45 H47 1_555 1_555
C46 C45 1_555 1_555
H48 C46 1_555 1_555
C47 C46 1_555 1_555
C48 C47 1_555 1_555
H49 C48 1_555 1_555
C49 C44 1_555 1_555
H50 C49 1_555 1_555
C50 C47 1_555 1_555
C51 C50 1_555 1_555
H51 C51 1_555 1_555
C52 C51 1_555 1_555
H52 C52 1_555 1_555
C33 O13 1_555 1_555
C33 O14 1_555 1_555
C43 O15 1_555 1_555
C43 O16 1_555 1_555
C48 C49 1_555 1_555
H42_2 C36 1_555 1_555
C37 C36 1_555 1_555
C38 C37 1_555 1_555
H43 C38 1_555 1_555
C40 C37 1_555 1_555
C41 C40 1_555 1_555
H45 C41 1_555 1_555
C42 C41 1_555 1_555
H46 C42 1_555 1_555
C85_2 C86_2 1_555 1_555
C86_2 C87_2 1_555 1_555
C87_2 H93_2 1_555 1_555
C88_2 C87_2 1_555 1_555
H94 C88_2 1_555 1_555
C89_2 C88_2 1_555 1_555
C90_2 C89_2 1_555 1_555
H95_2 C90_2 1_555 1_555
C91_2 C86_2 1_555 1_555
H96_2 C91_2 1_555 1_555
C92_2 C42 1_555 1_555
C93_2 C92_2 1_555 1_555
H97_2 C93_2 1_555 1_555
C94_2 C40 1_555 1_555
H98_2 C94_2 1_555 1_555
O9_2 C85_2 1_555 1_555
O10_2 C85_2 1_555 1_555
Cd6 O9_2 1_555 1_555
C38 C39 1_555 1_555
C89_2 C92_2 1_555 1_555
C90_2 C91_2 1_555 1_555
C93_2 C94_2 1_555 1_555
O10_2 Cd6 1_555 1_555
H52_2 C52_2 1_555 1_555
C95 C96 1_555 1_555
C96 C97 1_555 1_555
C97 H99 1_555 1_555
C98 C97 1_555 1_555
H100 C98 1_555 1_555
C99 C98 1_555 1_555
C100 C99 1_555 1_555
H101 C100 1_555 1_555
C101 C96 1_555 1_555
H102 C101 1_555 1_555
C102 C52_2 1_555 1_555
O11 C95 1_555 1_555
O12 C95 1_555 1_555
Cd5 O11 1_555 1_555
C99 C102 1_555 1_555
C100 C101 1_555 1_555
O12 Cd5 1_555 1_555
C95_2 C96_2 1_555 1_555
C96_2 C97_2 1_555 1_555
C97_2 H99_2 1_555 1_555
C98_2 C97_2 1_555 1_555
H100_2 C98_2 1_555 1_555
C99_2 C98_2 1_555 1_555
C100_2 C99_2 1_555 1_555
H101_2 C100_2 1_555 1_555
C101_2 C96_2 1_555 1_555
H102_2 C101_2 1_555 1_555
O11_2 C95_2 1_555 1_555
O12_2 C95_2 1_555 1_555
Cd6 O11_2 1_555 1_555
C99_2 C102_2 1_555 1_555
C100_2 C101_2 1_555 1_555
O12_2 Cd6 1_555 1_555
C9_2 C8_2 1_555 1_555
C11_2 H12_2 1_555 1_555
H13_2 C11_2 1_555 1_555
C12_2 C11_2 1_555 1_555
H14_2 C12_2 1_555 1_555
H15_2 C12_2 1_555 1_555
C13_2 C12_2 1_555 1_555
H16_2 C13_2 1_555 1_555
H17_2 C13_2 1_555 1_555
C14_2 H18_2 1_555 1_555
C15_2 H19_2 1_555 1_555
C16_2 C15_2 1_555 1_555
H20_2 C16_2 1_555 1_555
C17_2 H21_2 1_555 1_555
C18_2 H24_2 1_555 1_555
H25_2 C18_2 1_555 1_555
H26_2 C18_2 1_555 1_555
C19_2 H27_2 1_555 1_555
H28_2 C19_2 1_555 1_555
H29_2 C19_2 1_555 1_555
C20_2 C17_2 1_555 1_555
C21_2 C20_2 1_555 1_555
C22_2 C21_2 1_555 1_555
H30_2 C22_2 1_555 1_555
C23_2 C22_2 1_555 1_555
C24_2 C23_2 1_555 1_555
C25_2 C24_2 1_555 1_555
C26_2 C21_2 1_555 1_555
H31_2 C26_2 1_555 1_555
N1_2 C13_2 1_555 1_555
N9 C14_2 1_555 1_555
O1_2 C8_2 1_555 1_555
S1_2 C23_2 1_555 1_555
S2_2 C9_2 1_555 1_555
C53_2 H53_2 1_555 1_555
H54_2 C53_2 1_555 1_555
H55_2 C53_2 1_555 1_555
C54_2 C53_2 1_555 1_555
C55_2 C54_2 1_555 1_555
H56_2 C55_2 1_555 1_555
H57_2 C55_2 1_555 1_555
H58_2 C55_2 1_555 1_555
C56_2 C54_2 1_555 1_555
H59_2 C56_2 1_555 1_555
H60_2 C56_2 1_555 1_555
H61_2 C56_2 1_555 1_555
C57_2 C54_2 1_555 1_555
C58_2 C57_2 1_555 1_555
H62_2 C58_2 1_555 1_555
C59_2 S3_2 1_555 1_555
C62_2 C57_2 1_555 1_555
H63_2 C62_2 1_555 1_555
C79_2 H84_2 1_555 1_555
H85_2 C79_2 1_555 1_555
C80_2 C79_2 1_555 1_555
H86_2 C80_2 1_555 1_555
H87_2 C80_2 1_555 1_555
C81_2 C80_2 1_555 1_555
H88_2 C81_2 1_555 1_555
H89_2 C81_2 1_555 1_555
C82_2 H90_2 1_555 1_555
C83_2 H91_2 1_555 1_555
C84_2 C83_2 1_555 1_555
H92_2 C84_2 1_555 1_555
N7_2 C82_2 1_555 1_555
N8_2 C81_2 1_555 1_555
Cd6 N7_2 1_555 1_555
C11_2 O1_2 1_555 1_555
C14_2 N1_2 1_555 1_555
C15_2 N1_2 1_555 1_555
C16_2 N9 1_555 1_555
C18_2 C20_2 1_555 1_555
C19_2 C20_2 1_555 1_555
C25_2 C26_2 1_555 1_555
C25_2 S2_2 1_555 1_555
C58_2 C59_2 1_555 1_555
C79_2 O8_2 1_555 1_555
C82_2 N8_2 1_555 1_555
C83_2 N7_2 1_555 1_555
C84_2 N8_2 1_555 1_555
Cd5 N3 1_555 1_555
C3 C2 1_555 1_555
H4 C3 1_555 1_555
H5 C3 1_555 1_555
H6 C3 1_555 1_555
C30 H38 1_555 1_555
N3 C30 1_555 1_555
Cd1 N3_2 1_555 1_555
C3_2 C2_2 1_555 1_555
H4_2 C3_2 1_555 1_555
H5_2 C3_2 1_555 1_555
H6_2 C3_2 1_555 1_555
C30_2 H38_2 1_555 1_555
C33_2 C34_2 1_555 1_555
C34_2 C35_2 1_555 1_555
C35_2 H41_2 1_555 1_555
C43_2 C44_2 1_555 1_555
C44_2 C45_2 1_555 1_555
C45_2 H47_2 1_555 1_555
C46_2 C45_2 1_555 1_555
H48_2 C46_2 1_555 1_555
C47_2 C46_2 1_555 1_555
C48_2 C47_2 1_555 1_555
H49_2 C48_2 1_555 1_555
C49_2 C44_2 1_555 1_555
H50_2 C49_2 1_555 1_555
C50_2 C47_2 1_555 1_555
C51_2 C50_2 1_555 1_555
H51_2 C51_2 1_555 1_555
C52_3 C51_2 1_555 1_555
H52_3 C52_3 1_555 1_555
N3_2 C30_2 1_555 1_555
O3 Cd1 1_555 1_555
O4 Cd1 1_555 1_555
O5 Cd1 1_555 1_555
O6 Cd1 1_555 1_555
C95_3 C96_3 1_555 1_555
C96_3 C97_3 1_555 1_555
C97_3 H99_3 1_555 1_555
C98_3 C97_3 1_555 1_555
H100_3 C98_3 1_555 1_555
C99_3 C98_3 1_555 1_555
C100_3 C99_3 1_555 1_555
H101_3 C100_3 1_555 1_555
C101_3 C96_3 1_555 1_555
H102_3 C101_3 1_555 1_555
C102_3 C52_3 1_555 1_555
C103 C102_3 1_555 1_555
H103 C103 1_555 1_555
C104 C50_2 1_555 1_555
H104 C104 1_555 1_555
O11_3 C95_3 1_555 1_555
O12_3 C95_3 1_555 1_555
Cd3 O11_3 1_555 1_555
N10 Cd1 1_555 1_555
C33_2 O3 1_555 1_555
C33_2 O4 1_555 1_555
C43_2 O5 1_555 1_555
C43_2 O6 1_555 1_555
C48_2 C49_2 1_555 1_555
C99_3 C102_3 1_555 1_555
C100_3 C101_3 1_555 1_555
C103 C104 1_555 1_555
O12_3 Cd3 1_555 1_555
C37_2 C36_2 1_555 1_555
C38_2 C37_2 1_555 1_555
H43_2 C38_2 1_555 1_555
C40_2 C37_2 1_555 1_555
C41_2 C40_2 1_555 1_555
H45_2 C41_2 1_555 1_555
C42_2 C41_2 1_555 1_555
H46_2 C42_2 1_555 1_555
C38_2 C39_2 1_555 1_555
C1_2 H1_2 1_555 1_555
H2_2 C1_2 1_555 1_555
H7_2 C4_2 1_555 1_555
C6_2 C5_2 1_555 1_555
H10_2 C6_2 1_555 1_555
C7_2 C6_2 1_555 1_555
C10_2 C5_2 1_555 1_555
C27_2 H32_2 1_555 1_555
H33_2 C27_2 1_555 1_555
C28_2 C27_2 1_555 1_555
H34_2 C28_2 1_555 1_555
H35_2 C28_2 1_555 1_555
C29_2 C28_2 1_555 1_555
H36_2 C29_2 1_555 1_555
H37_2 C29_2 1_555 1_555
C31_2 H39_2 1_555 1_555
C32_2 C31_2 1_555 1_555
H40_2 C32_2 1_555 1_555
N4_2 C29_2 1_555 1_555
S3_3 C7_2 1_555 1_555
C61_2 C60_2 1_555 1_555
C63_2 H64_2 1_555 1_555
H65_2 C63_2 1_555 1_555
C64_2 C63_2 1_555 1_555
H66_2 C64_2 1_555 1_555
H67_2 C64_2 1_555 1_555
C65_2 C64_2 1_555 1_555
H68_2 C65_2 1_555 1_555
H69_2 C65_2 1_555 1_555
C66_2 H70_2 1_555 1_555
C67_2 H71_2 1_555 1_555
C68_2 C67_2 1_555 1_555
H72_2 C68_2 1_555 1_555
C69_2 H73_2 1_555 1_555
C70_2 H76_2 1_555 1_555
H77_2 C70_2 1_555 1_555
H78_2 C70_2 1_555 1_555
C71_2 H79_2 1_555 1_555
H80_2 C71_2 1_555 1_555
H81_2 C71_2 1_555 1_555
C72_2 C69_2 1_555 1_555
C73_2 C72_2 1_555 1_555
C74_2 C73_2 1_555 1_555
H82_2 C74_2 1_555 1_555
C75_2 S1_3 1_555 1_555
C76_2 C75_2 1_555 1_555
C77_2 C76_2 1_555 1_555
C78_2 C73_2 1_555 1_555
H83_2 C78_2 1_555 1_555
N5_2 C65_2 1_555 1_555
N6_2 C66_2 1_555 1_555
O7_2 C60_2 1_555 1_555
S4_2 C61_2 1_555 1_555
C89_3 C88_3 1_555 1_555
C90_3 C89_3 1_555 1_555
H95_3 C90_3 1_555 1_555
C93_3 C92_3 1_555 1_555
H97_3 C93_3 1_555 1_555
H98_3 C94_3 1_555 1_555
Cd3 N6_2 1_555 1_555
C27_2 O2_2 1_555 1_555
C32_2 N4_2 1_555 1_555
C63_2 O7_2 1_555 1_555
C66_2 N5_2 1_555 1_555
C67_2 N5_2 1_555 1_555
C68_2 N6_2 1_555 1_555
C70_2 C72_2 1_555 1_555
C71_2 C72_2 1_555 1_555
C74_2 C75_2 1_555 1_555
C77_2 C78_2 1_555 1_555
C77_2 S4_2 1_555 1_555
C89_3 C92_3 1_555 1_555
C90_3 C91_3 1_555 1_555
C93_3 C94_3 1_555 1_555
C85_3 C86_3 1_555 1_555
C86_3 C87_3 1_555 1_555
C87_3 H93_3 1_555 1_555
O9_3 C85_3 1_555 1_555
O10_3 C85_3 1_555 1_555
Cd3 O9_3 1_555 1_555
O10_3 Cd3 1_555 1_555
H51_3 C51_3 1_555 1_555
H103_2 C103_2 1_555 1_555
Cd3 N3_3 1_555 1_555
C3_3 C2_3 1_555 1_555
H4_3 C3_3 1_555 1_555
H5_3 C3_3 1_555 1_555
H6_3 C3_3 1_555 1_555
C30_3 H38_3 1_555 1_555
N3_3 C30_3 1_555 1_555
C1_3 H1_3 1_555 1_555
H2_3 C1_3 1_555 1_555
H7_3 C4_3 1_555 1_555
C6_3 C5_3 1_555 1_555
H10_3 C6_3 1_555 1_555
C7_3 C6_3 1_555 1_555
C10_3 C5_3 1_555 1_555
C27_3 H32_3 1_555 1_555
H33_3 C27_3 1_555 1_555
C28_3 C27_3 1_555 1_555
H34_3 C28_3 1_555 1_555
H35_3 C28_3 1_555 1_555
C29_3 C28_3 1_555 1_555
H36_3 C29_3 1_555 1_555
H37_3 C29_3 1_555 1_555
C31_3 H39_3 1_555 1_555
C32_3 C31_3 1_555 1_555
H40_3 C32_3 1_555 1_555
N4_3 C29_3 1_555 1_555
S3_4 C7_3 1_555 1_555
C61_3 C60_3 1_555 1_555
C63_3 H64_3 1_555 1_555
H65_3 C63_3 1_555 1_555
C64_3 C63_3 1_555 1_555
H66_3 C64_3 1_555 1_555
H67_3 C64_3 1_555 1_555
C65_3 C64_3 1_555 1_555
H68_3 C65_3 1_555 1_555
H69_3 C65_3 1_555 1_555
C66_3 H70_3 1_555 1_555
C67_3 H71_3 1_555 1_555
C68_3 C67_3 1_555 1_555
H72_3 C68_3 1_555 1_555
C69_3 H73_3 1_555 1_555
C70_3 H76_3 1_555 1_555
H77_3 C70_3 1_555 1_555
H78_3 C70_3 1_555 1_555
C71_3 H79_3 1_555 1_555
H80_3 C71_3 1_555 1_555
H81_3 C71_3 1_555 1_555
C72_3 C69_3 1_555 1_555
C73_3 C72_3 1_555 1_555
C74_3 C73_3 1_555 1_555
H82_3 C74_3 1_555 1_555
C75_3 S1_4 1_555 1_555
C76_3 C75_3 1_555 1_555
C77_3 C76_3 1_555 1_555
C78_3 C73_3 1_555 1_555
H83_3 C78_3 1_555 1_555
N5_3 C65_3 1_555 1_555
N10 C66_3 1_555 1_555
O7_3 C60_3 1_555 1_555
S4_3 C61_3 1_555 1_555
C27_3 O2_3 1_555 1_555
C32_3 N4_3 1_555 1_555
C63_3 O7_3 1_555 1_555
C66_3 N5_3 1_555 1_555
C67_3 N5_3 1_555 1_555
C68_3 N10 1_555 1_555
C70_3 C72_3 1_555 1_555
C71_3 C72_3 1_555 1_555
C74_3 C75_3 1_555 1_555
C77_3 C78_3 1_555 1_555
C77_3 S4_3 1_555 1_555
C95_4 C96_4 1_555 1_555
C96_4 C97_4 1_555 1_555
C97_4 H99_4 1_555 1_555
C98_4 C97_4 1_555 1_555
H100_4 C98_4 1_555 1_555
C99_4 C98_4 1_555 1_555
C100_4 C99_4 1_555 1_555
H101_4 C100_4 1_555 1_555
C101_4 C96_4 1_555 1_555
H102_4 C101_4 1_555 1_555
C103_3 C102_4 1_555 1_555
H103_3 C103_3 1_555 1_555
H104_2 C104_2 1_555 1_555
O11_4 C95_4 1_555 1_555
O12_4 C95_4 1_555 1_555
Cd3_2 O11_4 1_555 1_555
C99_4 C102_4 1_555 1_555
C100_4 C101_4 1_555 1_555
C103_3 C104_2 1_555 1_555
O12_4 Cd3_2 1_555 1_555
Cd1_2 N3_4 1_555 1_555
C3_4 C2_4 1_555 1_555
H4_4 C3_4 1_555 1_555
H5_4 C3_4 1_555 1_555
H6_4 C3_4 1_555 1_555
C30_4 H38_4 1_555 1_555
C33_3 C34_3 1_555 1_555
C34_3 C35_3 1_555 1_555
C35_3 H41_3 1_555 1_555
C36_3 C35_3 1_555 1_555
C37_3 C36_3 1_555 1_555
C38_3 C37_3 1_555 1_555
H43_3 C38_3 1_555 1_555
C39_3 C34_3 1_555 1_555
H44_3 C39_3 1_555 1_555
C40_3 C37_3 1_555 1_555
C41_3 C40_3 1_555 1_555
H45_3 C41_3 1_555 1_555
C42_3 C41_3 1_555 1_555
H46_3 C42_3 1_555 1_555
C43_3 C44_3 1_555 1_555
C44_3 C45_3 1_555 1_555
C45_3 H47_3 1_555 1_555
C46_3 C45_3 1_555 1_555
H48_3 C46_3 1_555 1_555
C47_3 C46_3 1_555 1_555
C48_3 C47_3 1_555 1_555
H49_3 C48_3 1_555 1_555
C49_3 C44_3 1_555 1_555
H50_3 C49_3 1_555 1_555
C50_3 C47_3 1_555 1_555
N3_4 C30_4 1_555 1_555
O3_2 Cd1_2 1_555 1_555
O4_2 Cd1_2 1_555 1_555
O5_2 Cd1_2 1_555 1_555
O6_2 Cd1_2 1_555 1_555
C104_3 C50_3 1_555 1_555
H104_3 C104_3 1_555 1_555
N10_2 Cd1_2 1_555 1_555
C33_3 O3_2 1_555 1_555
C33_3 O4_2 1_555 1_555
C38_3 C39_3 1_555 1_555
C43_3 O5_2 1_555 1_555
C43_3 O6_2 1_555 1_555
C48_3 C49_3 1_555 1_555
C9_3 C8_3 1_555 1_555
C11_3 H12_3 1_555 1_555
H13_3 C11_3 1_555 1_555
C12_3 C11_3 1_555 1_555
H14_3 C12_3 1_555 1_555
H15_3 C12_3 1_555 1_555
C13_3 C12_3 1_555 1_555
H16_3 C13_3 1_555 1_555
H17_3 C13_3 1_555 1_555
C14_3 H18_3 1_555 1_555
C15_3 H19_3 1_555 1_555
C16_3 C15_3 1_555 1_555
H20_3 C16_3 1_555 1_555
C17_3 H21_3 1_555 1_555
C18_3 H24_3 1_555 1_555
H25_3 C18_3 1_555 1_555
H26_3 C18_3 1_555 1_555
C19_3 H27_3 1_555 1_555
H28_3 C19_3 1_555 1_555
H29_3 C19_3 1_555 1_555
C20_3 C17_3 1_555 1_555
C21_3 C20_3 1_555 1_555
C22_3 C21_3 1_555 1_555
H30_3 C22_3 1_555 1_555
C23_3 C22_3 1_555 1_555
C24_3 C23_3 1_555 1_555
C25_3 C24_3 1_555 1_555
C26_3 C21_3 1_555 1_555
H31_3 C26_3 1_555 1_555
N1_3 C13_3 1_555 1_555
N2_2 C14_3 1_555 1_555
O1_3 C8_3 1_555 1_555
S1_5 C23_3 1_555 1_555
S2_3 C9_3 1_555 1_555
C53_3 H53_3 1_555 1_555
H54_3 C53_3 1_555 1_555
H55_3 C53_3 1_555 1_555
C54_3 C53_3 1_555 1_555
C55_3 C54_3 1_555 1_555
H56_3 C55_3 1_555 1_555
H57_3 C55_3 1_555 1_555
H58_3 C55_3 1_555 1_555
C56_3 C54_3 1_555 1_555
H59_3 C56_3 1_555 1_555
H60_3 C56_3 1_555 1_555
H61_3 C56_3 1_555 1_555
C57_3 C54_3 1_555 1_555
C58_3 C57_3 1_555 1_555
H62_3 C58_3 1_555 1_555
C59_3 S3_5 1_555 1_555
C62_3 C57_3 1_555 1_555
H63_3 C62_3 1_555 1_555
C79_3 H84_3 1_555 1_555
H85_3 C79_3 1_555 1_555
C80_3 C79_3 1_555 1_555
H86_3 C80_3 1_555 1_555
H87_3 C80_3 1_555 1_555
C81_3 C80_3 1_555 1_555
H88_3 C81_3 1_555 1_555
H89_3 C81_3 1_555 1_555
C82_3 H90_3 1_555 1_555
C83_3 H91_3 1_555 1_555
C84_3 C83_3 1_555 1_555
H92_3 C84_3 1_555 1_555
N7_3 C82_3 1_555 1_555
N8_3 C81_3 1_555 1_555
Cd2_2 N7_3 1_555 1_555
Cd3_2 N2_2 1_555 1_555
N9_2 Cd2_2 1_555 1_555
O13_2 Cd2_2 1_555 1_555
O14_2 Cd2_2 1_555 1_555
O15_2 Cd2_2 1_555 1_555
O16_2 Cd2_2 1_555 1_555
C11_3 O1_3 1_555 1_555
C14_3 N1_3 1_555 1_555
C15_3 N1_3 1_555 1_555
C16_3 N2_2 1_555 1_555
C18_3 C20_3 1_555 1_555
C19_3 C20_3 1_555 1_555
C25_3 C26_3 1_555 1_555
C25_3 S2_3 1_555 1_555
C58_3 C59_3 1_555 1_555
C79_3 O8_3 1_555 1_555
C82_3 N8_3 1_555 1_555
C83_3 N7_3 1_555 1_555
C84_3 N8_3 1_555 1_555
C33_4 C34_4 1_555 1_555
C34_4 C35_4 1_555 1_555
C35_4 H41_4 1_555 1_555
C36_4 C35_4 1_555 1_555
H42_4 C36_4 1_555 1_555
C37_4 C36_4 1_555 1_555
C38_4 C37_4 1_555 1_555
H43_4 C38_4 1_555 1_555
C39_4 C34_4 1_555 1_555
H44_4 C39_4 1_555 1_555
C40_4 C37_4 1_555 1_555
C41_4 C40_4 1_555 1_555
H45_4 C41_4 1_555 1_555
C42_4 C41_4 1_555 1_555
H46_4 C42_4 1_555 1_555
C43_4 C44_4 1_555 1_555
C44_4 C45_4 1_555 1_555
C45_4 H47_4 1_555 1_555
C46_4 C45_4 1_555 1_555
H48_4 C46_4 1_555 1_555
C47_4 C46_4 1_555 1_555
C48_4 C47_4 1_555 1_555
H49_4 C48_4 1_555 1_555
C49_4 C44_4 1_555 1_555
H50_4 C49_4 1_555 1_555
C50_4 C47_4 1_555 1_555
H94_4 C88_4 1_555 1_555
C89_4 C88_4 1_555 1_555
C90_4 C89_4 1_555 1_555
H95_4 C90_4 1_555 1_555
C92_4 C42_4 1_555 1_555
C93_4 C92_4 1_555 1_555
H97_4 C93_4 1_555 1_555
C94_4 C40_4 1_555 1_555
H98_4 C94_4 1_555 1_555
C33_4 O13_2 1_555 1_555
C33_4 O14_2 1_555 1_555
C38_4 C39_4 1_555 1_555
C43_4 O15_2 1_555 1_555
C43_4 O16_2 1_555 1_555
C48_4 C49_4 1_555 1_555
C89_4 C92_4 1_555 1_555
C90_4 C91_4 1_555 1_555
C93_4 C94_4 1_555 1_555
C85_4 C86_4 1_555 1_555
C86_4 C87_4 1_555 1_555
C87_4 H93_4 1_555 1_555
O9_4 C85_4 1_555 1_555
O10_4 C85_4 1_555 1_555
Cd3_2 O9_4 1_555 1_555
O10_4 Cd3_2 1_555 1_555
H2_4 C1_4 1_555 1_555
H7_4 C4_4 1_555 1_555
C6_4 C5_4 1_555 1_555
H10_4 C6_4 1_555 1_555
C7_4 C6_4 1_555 1_555
C8_4 C7_4 1_555 1_555
C9_4 C8_4 1_555 1_555
C10_4 C5_4 1_555 1_555
C11_4 H12_4 1_555 1_555
H13_4 C11_4 1_555 1_555
C12_4 C11_4 1_555 1_555
H14_4 C12_4 1_555 1_555
H15_4 C12_4 1_555 1_555
C13_4 C12_4 1_555 1_555
H16_4 C13_4 1_555 1_555
H17_4 C13_4 1_555 1_555
C14_4 H18_4 1_555 1_555
C15_4 H19_4 1_555 1_555
C16_4 C15_4 1_555 1_555
H20_4 C16_4 1_555 1_555
C17_4 H21_4 1_555 1_555
H22_2 C17_4 1_555 1_555
H23_2 C17_4 1_555 1_555
C18_4 H24_4 1_555 1_555
H25_4 C18_4 1_555 1_555
H26_4 C18_4 1_555 1_555
C19_4 H27_4 1_555 1_555
H28_4 C19_4 1_555 1_555
H29_4 C19_4 1_555 1_555
C20_4 C17_4 1_555 1_555
C21_4 C20_4 1_555 1_555
C22_4 C21_4 1_555 1_555
H30_4 C22_4 1_555 1_555
C23_4 C22_4 1_555 1_555
C24_4 C23_4 1_555 1_555
C25_4 C24_4 1_555 1_555
C26_4 C21_4 1_555 1_555
H31_4 C26_4 1_555 1_555
C27_4 H32_4 1_555 1_555
H33_4 C27_4 1_555 1_555
C28_4 C27_4 1_555 1_555
H34_4 C28_4 1_555 1_555
H35_4 C28_4 1_555 1_555
C29_4 C28_4 1_555 1_555
H36_4 C29_4 1_555 1_555
H37_4 C29_4 1_555 1_555
C31_4 H39_4 1_555 1_555
C32_4 C31_4 1_555 1_555
H40_4 C32_4 1_555 1_555
N1_4 C13_4 1_555 1_555
N9_2 C14_4 1_555 1_555
N4_4 C29_4 1_555 1_555
O1_4 C8_4 1_555 1_555
O2_4 C24_4 1_555 1_555
S1_6 C23_4 1_555 1_555
S2_4 C9_4 1_555 1_555
S3_6 C7_4 1_555 1_555
H54_4 C53_4 1_555 1_555
H55_4 C53_4 1_555 1_555
C54_4 C53_4 1_555 1_555
C55_4 C54_4 1_555 1_555
H56_4 C55_4 1_555 1_555
H57_4 C55_4 1_555 1_555
H58_4 C55_4 1_555 1_555
C56_4 C54_4 1_555 1_555
H59_4 C56_4 1_555 1_555
H60_4 C56_4 1_555 1_555
H61_4 C56_4 1_555 1_555
C57_4 C54_4 1_555 1_555
C58_4 C57_4 1_555 1_555
H62_4 C58_4 1_555 1_555
C59_4 S3_6 1_555 1_555
C60_4 C59_4 1_555 1_555
C61_4 C60_4 1_555 1_555
C62_4 C57_4 1_555 1_555
H63_4 C62_4 1_555 1_555
C63_4 H64_4 1_555 1_555
H65_4 C63_4 1_555 1_555
C64_4 C63_4 1_555 1_555
H66_4 C64_4 1_555 1_555
H67_4 C64_4 1_555 1_555
C65_4 C64_4 1_555 1_555
H68_4 C65_4 1_555 1_555
H69_4 C65_4 1_555 1_555
C66_4 H70_4 1_555 1_555
C67_4 H71_4 1_555 1_555
C68_4 C67_4 1_555 1_555
H72_4 C68_4 1_555 1_555
C69_4 H73_4 1_555 1_555
H74_2 C69_4 1_555 1_555
H75_2 C69_4 1_555 1_555
C70_4 H76_4 1_555 1_555
H77_4 C70_4 1_555 1_555
H78_4 C70_4 1_555 1_555
C71_4 H79_4 1_555 1_555
H80_4 C71_4 1_555 1_555
H81_4 C71_4 1_555 1_555
C72_4 C69_4 1_555 1_555
C73_4 C72_4 1_555 1_555
C74_4 C73_4 1_555 1_555
H82_4 C74_4 1_555 1_555
C75_4 S1_6 1_555 1_555
C76_4 C75_4 1_555 1_555
C77_4 C76_4 1_555 1_555
C78_4 C73_4 1_555 1_555
H83_4 C78_4 1_555 1_555
C79_4 H84_4 1_555 1_555
H85_4 C79_4 1_555 1_555
C80_4 C79_4 1_555 1_555
H86_4 C80_4 1_555 1_555
H87_4 C80_4 1_555 1_555
C81_4 C80_4 1_555 1_555
H88_4 C81_4 1_555 1_555
H89_4 C81_4 1_555 1_555
C82_4 H90_4 1_555 1_555
C83_4 H91_4 1_555 1_555
C84_4 C83_4 1_555 1_555
H92_4 C84_4 1_555 1_555
N5_4 C65_4 1_555 1_555
N10_2 C66_4 1_555 1_555
N7_4 C82_4 1_555 1_555
N8_4 C81_4 1_555 1_555
O7_4 C60_4 1_555 1_555
O8_4 C76_4 1_555 1_555
S4_4 C61_4 1_555 1_555
Cd3_2 N7_4 1_555 1_555
C9_4 C10_4 1_555 1_555
C11_4 O1_4 1_555 1_555
C14_4 N1_4 1_555 1_555
C15_4 N1_4 1_555 1_555
C16_4 N9_2 1_555 1_555
C18_4 C20_4 1_555 1_555
C19_4 C20_4 1_555 1_555
C25_4 C26_4 1_555 1_555
C25_4 S2_4 1_555 1_555
C27_4 O2_4 1_555 1_555
C32_4 N4_4 1_555 1_555
C58_4 C59_4 1_555 1_555
C61_4 C62_4 1_555 1_555
C63_4 O7_4 1_555 1_555
C66_4 N5_4 1_555 1_555
C67_4 N5_4 1_555 1_555
C68_4 N10_2 1_555 1_555
C70_4 C72_4 1_555 1_555
C71_4 C72_4 1_555 1_555
C74_4 C75_4 1_555 1_555
C77_4 C78_4 1_555 1_555
C77_4 S4_4 1_555 1_555
C79_4 O8_4 1_555 1_555
C82_4 N8_4 1_555 1_555
C83_4 N7_4 1_555 1_555
C84_4 N8_4 1_555 1_555
H52_4 C52_4 1_555 1_555
H103_4 C103_4 1_555 1_555
H51_4 C51_4 1_555 1_555
H104_4 C104_4 1_555 1_555

#END
