
###############################################################################
#
# This file contains modified crystal structure data generated from the
# MOF subset of the Cambridge Structural Database (CSD) v543 
# hosted by the Cambridge Crystallographic Data Centre (CCDC).
#
# This work is licensed under the Creative Commons
# Attribution-NonCommercial-ShareAlike 4.0 International License.
# To view a copy of this license, visit
# http://creativecommons.org/licenses/by-nc-sa/4.0/
# or send a letter to
# Creative Commons, PO Box 1866, Mountain View, CA 94042, USA.
#
# CIF created using the CSD Python API on 29 September 2022
# The structure has been converted into the P1 space group
# The structure has a 3D framework
# The original CSD entry YOZDAV is in the monoclinic crystal system
# The framework has been calculated to contain at least 10.0% void space
# The void calculation uses a probe of radius 1.32A, grid spacing 0.4
#
###############################################################################

data_YOZDAV
_chemical_formula_moiety         '(C320 H352 Cd6 N32 O48 S16)n'
_symmetry_cell_setting           triclinic
_symmetry_space_group_name_H-M   'P 1'
_symmetry_Int_Tables_number      1
_space_group_name_Hall           'P 1'
loop_
_symmetry_equiv_pos_site_id
_symmetry_equiv_pos_as_xyz
1 x,y,z
_cell_length_a                   11.2404(6)
_cell_length_b                   32.7347(18)
_cell_length_c                   23.9133(13)
_cell_angle_alpha                90
_cell_angle_beta                 94.240(5)
_cell_angle_gamma                90
_cell_volume                     8774.84
loop_
_atom_site_label
_atom_site_type_symbol
_atom_site_fract_x
_atom_site_fract_y
_atom_site_fract_z
C33 C 0.0177(11) 0.0952(4) 0.3607(9)
H41 H 0.0181 0.0751 0.3900
H42 H 0.0675 0.1178 0.3729
H43 H 0.0474 0.0832 0.3278
Cd1 Cd 0.02717(5) 0.762243(17) 0.23987(3)
H59 H 0.0103 0.8217 0.3515
O13 O 0.2058(5) 0.7766(2) 0.2997(3)
O14 O 0.2222(4) 0.74837(18) 0.2196(2)
Cd2 Cd 0.24178(5) 0.236412(18) 0.49495(2)
C1 C 0.2373(16) 0.1581(3) 0.1460(9)
H1 H 0.2592 0.1563 0.1855
H2 H 0.2054 0.1848 0.1373
H3 H 0.3064 0.1536 0.1255
C2 C 0.0585(14) 0.1400(4) 0.1659(7)
H4 H 0.0859 0.1346 0.2042
H6 H 0.0450 0.1687 0.1609
C3 C 0.1177(14) 0.1325(4) 0.0737(6)
H7 H 0.1810 0.1221 0.0529
H8 H 0.1074 0.1611 0.0661
H9 H 0.0450 0.1182 0.0627
C4 C 0.1460(9) 0.1268(2) 0.1300(4)
C5 C 0.1937(7) 0.0834(2) 0.1445(3)
C6 C 0.2751(7) 0.0648(2) 0.1125(3)
H10 H 0.3035 0.0791 0.0827
C7 C 0.3164(7) 0.0252(2) 0.1236(3)
C8 C 0.2799(7) 0.0041(2) 0.1698(3)
C9 C 0.2032(6) 0.0233(2) 0.2037(3)
C10 C 0.1598(6) 0.0625(2) 0.1919(3)
H11 H 0.1083 0.0748 0.2155
C27 C 0.653(2) 0.0593(5) 0.1209(11)
H32 H 0.7385 0.0602 0.1301
H33 H 0.6376 0.0499 0.0826
C28 C 0.603(2) 0.0957(8) 0.1284(13)
H34 H 0.5448 0.0929 0.1563
H35 H 0.5606 0.1041 0.0935
C29 C 0.6886(16) 0.1272(6) 0.1466(7)
H36 H 0.7463 0.1315 0.1190
H37 H 0.7305 0.1202 0.1822
C30 C 0.5837(8) 0.1825(3) 0.2016(4)
H38 H 0.6080 0.1710 0.2361
C31 C 0.5053(13) 0.2230(4) 0.1389(5)
H39 H 0.4660 0.2450 0.1212
C32 C 0.5564(13) 0.1921(5) 0.1154(5)
H40 H 0.5564 0.1886 0.0768
C34 C 0.8638(13) 0.1294(4) 0.4023(6)
H44 H 0.7852 0.1410 0.3967
H45 H 0.9200 0.1506 0.4129
H46 H 0.8649 0.1092 0.4314
C35 C 0.890(2) 0.1406(5) 0.3094(8)
H47 H 0.8077 0.1483 0.3019
H48 H 0.9213 0.1317 0.2752
H49 H 0.9347 0.1636 0.3241
C36 C 0.8976(8) 0.1094(3) 0.3477(4)
C37 C 0.8170(6) 0.0734(2) 0.3289(4)
C38 C 0.7254(6) 0.0611(2) 0.3607(3)
H50 H 0.7096 0.0763 0.3921
C39 C 0.6561(6) 0.0267(2) 0.3473(3)
C40 C 0.6819(6) 0.0041(2) 0.3001(4)
C41 C 0.7667(7) 0.0172(3) 0.2659(4)
C42 C 0.8350(7) 0.0518(3) 0.2799(4)
H51 H 0.8927 0.0604 0.2566
C56 C 0.3600(6) 0.00140(18) 0.3242(3)
C59 C 0.3470(7) 0.07331(18) 0.3188(3)
H72 H 0.3636 0.0743 0.3591
H73 H 0.2614 0.0753 0.3103
C60 C 0.4106(8) 0.1081(2) 0.2908(3)
H74 H 0.4045 0.1038 0.2506
H75 H 0.4946 0.1076 0.3036
C61 C 0.3590(9) 0.1499(2) 0.3036(3)
H76 H 0.4005 0.1707 0.2836
H77 H 0.2756 0.1506 0.2898
C62 C 0.4571(8) 0.1523(3) 0.4034(4)
H78 H 0.5248 0.1367 0.3988
C63 C 0.4320(8) 0.1710(2) 0.4504(4)
H79 H 0.4797 0.1712 0.4839
C64 C 0.2915(7) 0.1829(2) 0.3885(3)
H80 H 0.2219 0.1931 0.3701
C65 C 0.3795(6) 0.2417(3) 0.5987(3)
C66 C 0.4325(5) 0.24561(18) 0.6550(3)
C67 C 0.5515(5) 0.23860(17) 0.6685(3)
H81 H 0.5995 0.2302 0.6406
C68 C 0.6007(5) 0.24360(18) 0.7214(3)
C69 C 0.5280(7) 0.2543(2) 0.7633(3)
H82 H 0.5607 0.2575 0.7999
C70 C 0.4076(7) 0.2601(2) 0.7511(3)
H83 H 0.3583 0.2661 0.7796
C71 C 0.3607(6) 0.2570(2) 0.6966(3)
H84 H 0.2804 0.2626 0.6878
C72 C 0.7327(6) 0.2390(2) 0.7350(3)
N3 N 0.6083(8) 0.1661(3) 0.1524(4)
N4 N 0.5227(6) 0.2157(2) 0.1959(3)
N7 N 0.3684(6) 0.15971(17) 0.3632(3)
N8 N 0.3219(5) 0.19028(16) 0.4407(2)
O2 O 0.5916(6) 0.0329(2) 0.1614(3)
O4 O 0.3919(4) 0.03634(12) 0.29654(18)
O5 O 0.4106(7) 0.2181(3) 0.5649(3)
O6 O 0.2951(7) 0.2634(3) 0.5812(3)
O7 O 0.7942(5) 0.2234(2) 0.7003(3)
O8 O 0.7778(4) 0.25163(18) 0.7804(2)
O9 O 0.0546(5) 0.22891(18) 0.4245(2)
O10 O 0.0526(5) 0.2294(2) 0.5144(2)
S1 S 0.56064(18) 0.01286(7) 0.39823(8)
S2 S 0.4031(3) 0.00389(8) 0.07155(10)
Cd4 Cd 0.47283(5) 0.262243(17) 0.26013(3)
Cd5 Cd 0.97283(5) 0.237757(17) 0.76013(3)
N9 N 0.2754(5) 0.29546(17) 0.4524(3)
C11 C 0.2402(9) 0.9344(2) 0.1564(4)
H12 H 0.2484 0.9327 0.1164
H13 H 0.1582 0.9413 0.1624
C12 C 0.2750(10) 0.8932(2) 0.1852(4)
H14 H 0.3531 0.8852 0.1744
H15 H 0.2809 0.8972 0.2255
C13 C 0.1868(11) 0.8587(3) 0.1706(5)
H16 H 0.2005 0.8369 0.1977
H17 H 0.1064 0.8688 0.1735
C14 C 0.2352(7) 0.8041(2) 0.1008(4)
H18 H 0.2665 0.7858 0.1278
C15 C 0.1583(11) 0.8582(3) 0.0647(6)
H19 H 0.1255 0.8841 0.0594
C16 C 0.1753(10) 0.8308(3) 0.0242(5)
C17 C 0.7661(12) 0.8559(3) 0.0861(6)
H21 H 0.7999 0.8739 0.0598
H22 H 0.7714 0.8282 0.0734
H23 H 0.8092 0.8587 0.1221
C18 C 0.5904(11) 0.8395(3) 0.1317(5)
H24 H 0.5972 0.8118 0.1194
H25 H 0.5079 0.8459 0.1353
H26 H 0.6343 0.8429 0.1674
C19 C 0.5665(15) 0.8603(3) 0.0338(5)
H27 H 0.5975 0.8778 0.0061
H28 H 0.4841 0.8667 0.0374
H29 H 0.5734 0.8323 0.0224
C20 C 0.6384(10) 0.8669(3) 0.0910(4)
C21 C 0.6276(8) 0.9120(2) 0.1099(3)
C22 C 0.7075(8) 0.9298(3) 0.1499(3)
H30 H 0.7709 0.9143 0.1654
C23 C 0.6965(7) 0.9685(3) 0.1668(4)
C24 C 0.6036(8) 0.9930(3) 0.1451(4)
C25 C 0.5200(7) 0.9763(3) 0.1065(3)
C26 C 0.5329(8) 0.9353(2) 0.0897(3)
H31 H 0.4757 0.9238 0.0644
C43 C 0.6746(8) 0.9324(3) 0.3121(4)
H52 H 0.6716 0.9335 0.3525
H53 H 0.7575 0.9307 0.3035
C44 C 0.6075(8) 0.8961(3) 0.2891(5)
H54 H 0.5238 0.8999 0.2950
H55 H 0.6145 0.8951 0.2489
C45 C 0.6445(10) 0.8573(3) 0.3123(6)
H56 H 0.5912 0.8365 0.2958
H57 H 0.6339 0.8579 0.3522
C46 C 0.8473(18) 0.8510(5) 0.3435(8)
H58 H 0.8442 0.8675 0.3750
C47 C 0.9433(16) 0.8277(6) 0.3277(8)
C48 C 0.8129(9) 0.8216(3) 0.2658(4)
H60 H 0.7676 0.8112 0.2349
C49 C 0.3351(12) 0.8893(4) 0.4717(6)
H61 H 0.3113 0.9127 0.4924
H62 H 0.4199 0.8899 0.4690
H63 H 0.3137 0.8648 0.4906
C50 C 0.3107(19) 0.8551(3) 0.3829(6)
H64 H 0.2909 0.8306 0.4024
H65 H 0.3955 0.8563 0.3804
H66 H 0.2715 0.8548 0.3458
C51 C 0.1425(10) 0.8903(4) 0.4260(6)
H67 H 0.1266 0.9142 0.4475
H68 H 0.1261 0.8663 0.4472
H69 H 0.0927 0.8904 0.3916
C52 C 0.2721(8) 0.8902(2) 0.4129(4)
C53 C 0.3046(6) 0.92962(19) 0.3816(3)
C54 C 0.4070(6) 0.9500(2) 0.3950(3)
H70 H 0.4594 0.9400 0.4237
C55 C 0.4372(6) 0.9859(2) 0.3671(3)
C57 C 0.2561(6) 0.98019(18) 0.3084(3)
C58 C 0.2295(6) 0.94452(19) 0.3374(3)
H71 H 0.1597 0.9304 0.3268
N1 N 0.1965(7) 0.8419(2) 0.1134(4)
N2 N 0.2246(5) 0.79546(17) 0.0476(3)
N5 N 0.9282(8) 0.8148(3) 0.2744(5)
N6 N 0.7652(8) 0.8447(2) 0.3051(4)
O1 O 0.3203(5) 0.96492(14) 0.1815(2)
O3 O 0.6191(4) 0.96831(17) 0.2864(2)
S3 S 0.14013(17) 0.99804(6) 0.26038(9)
S4 S 0.8211(2) 0.98806(12) 0.21047(14)
Cd6 Cd 0.25822(5) 0.736412(18) 0.00505(2)
N10 N 0.9773(6) 0.7157(2) 0.3041(3)
O15 O 0.8608(6) 0.7336(2) 0.1828(3)
O16 O 0.9869(5) 0.7697(2) 0.1462(3)
H5 H 0.9854 0.1255 0.1568
C73 C 0.9970(7) 0.2302(2) 0.4657(4)
C74 C 0.8648(7) 0.23544(19) 0.4644(3)
C75 C 0.7976(6) 0.23712(18) 0.4150(3)
H85 H 0.8337 0.2325 0.3818
C76 C 0.8095(8) 0.2404(2) 0.5139(3)
H86 H 0.8542 0.2391 0.5481
C77 C 0.6882(9) 0.2474(3) 0.5124(4)
H87 H 0.6511 0.2495 0.5458
C78 C 0.6756(6) 0.2456(2) 0.4126(3)
C79 C 0.6218(7) 0.2512(2) 0.4623(4)
H88 H 0.5411 0.2575 0.4616
C80 C 0.6042(7) 0.2502(2) 0.3593(4)
O11 O 0.6392(6) 0.2336(2) 0.3172(3)
O12 O 0.5131(5) 0.2697(2) 0.3538(3)
C1_2 C 0.2627(16) 0.6581(3) 0.3540(9)
H1_2 H 0.2408 0.6563 0.3145
H2_2 H 0.2946 0.6848 0.3627
H3_2 H 0.1936 0.6536 0.3745
C2_2 C 0.4415(14) 0.6400(4) 0.3341(7)
H4_2 H 0.4141 0.6346 0.2958
H5_2 H 0.5146 0.6255 0.3432
H6_2 H 0.4550 0.6687 0.3391
C3_2 C 0.3823(14) 0.6325(4) 0.4263(6)
H7_2 H 0.3190 0.6221 0.4471
H8_2 H 0.3926 0.6611 0.4339
H9_2 H 0.4550 0.6182 0.4373
C4_2 C 0.3540(9) 0.6268(2) 0.3700(4)
C5_2 C 0.3063(7) 0.5834(2) 0.3555(3)
C6_2 C 0.2249(7) 0.5648(2) 0.3875(3)
H10_2 H 0.1965 0.5791 0.4173
C7_2 C 0.1836(7) 0.5252(2) 0.3764(3)
C8_2 C 0.2201(7) 0.5041(2) 0.3302(3)
C9_2 C 0.2968(6) 0.5233(2) 0.2963(3)
C10_2 C 0.3402(6) 0.5625(2) 0.3081(3)
H11_2 H 0.3917 0.5748 0.2845
C11_2 C 0.2598(9) 0.4344(2) 0.3436(4)
H12_2 H 0.2516 0.4327 0.3836
H13_2 H 0.3418 0.4413 0.3376
C12_2 C 0.2250(10) 0.3932(2) 0.3148(4)
H14_2 H 0.1469 0.3852 0.3256
H15_2 H 0.2191 0.3972 0.2745
C13_2 C 0.3132(11) 0.3587(3) 0.3294(5)
H16_2 H 0.2995 0.3369 0.3023
H17_2 H 0.3936 0.3688 0.3265
C14_2 C 0.2648(7) 0.3041(2) 0.3992(4)
H18_2 H 0.2335 0.2858 0.3722
C15_2 C 0.3417(11) 0.3582(3) 0.4353(6)
H19_2 H 0.3745 0.3841 0.4406
C16_2 C 0.3247(10) 0.3308(3) 0.4758(5)
H20 H 0.3433 0.3349 0.5139
H28_2 H 0.0159 0.3667 0.4626
H31_2 H 0.0243 0.4238 0.4356
H39_2 H 0.0340 0.7450 0.3788
C49_2 C 0.1649(12) 0.3893(4) 0.0283(6)
H61_2 H 0.1887 0.4127 0.0076
H62_2 H 0.0801 0.3899 0.0310
H63_2 H 0.1863 0.3648 0.0094
C50_2 C 0.1893(19) 0.3551(3) 0.1171(6)
H64_2 H 0.2091 0.3306 0.0976
H65_2 H 0.1045 0.3563 0.1196
H66_2 H 0.2285 0.3548 0.1542
C51_2 C 0.3575(10) 0.3903(4) 0.0740(6)
H67_2 H 0.3734 0.4142 0.0525
H68_2 H 0.3739 0.3663 0.0528
H69_2 H 0.4073 0.3904 0.1084
C52_2 C 0.2279(8) 0.3902(2) 0.0871(4)
C53_2 C 0.1954(6) 0.42962(19) 0.1184(3)
C54_2 C 0.0930(6) 0.4500(2) 0.1050(3)
H70_2 H 0.0406 0.4400 0.0763
C55_2 C 0.0628(6) 0.4859(2) 0.1329(3)
C56_2 C 0.1400(6) 0.50140(18) 0.1758(3)
C57_2 C 0.2439(6) 0.48019(18) 0.1916(3)
C58_2 C 0.2705(6) 0.44452(19) 0.1626(3)
H71_2 H 0.3403 0.4304 0.1732
C59_2 C 0.1530(7) 0.57331(18) 0.1812(3)
H72_2 H 0.1364 0.5743 0.1409
H73_2 H 0.2386 0.5753 0.1897
C60_2 C 0.0894(8) 0.6081(2) 0.2092(3)
H74_2 H 0.0955 0.6038 0.2494
H75_2 H 0.0054 0.6076 0.1964
C61_2 C 0.1410(9) 0.6499(2) 0.1964(3)
H76_2 H 0.0995 0.6707 0.2164
H77_2 H 0.2244 0.6506 0.2102
C62_2 C 0.0429(8) 0.6523(3) 0.0966(4)
C63_2 C 0.0680(8) 0.6710(2) 0.0496(4)
H79_2 H 0.0203 0.6712 0.0161
C64_2 C 0.2085(7) 0.6829(2) 0.1115(3)
H80_2 H 0.2781 0.6931 0.1299
C73_2 C 0.5030(7) 0.7302(2) 0.0343(4)
C74_2 C 0.6352(7) 0.73544(19) 0.0356(3)
C75_2 C 0.7024(6) 0.73712(18) 0.0850(3)
H85_2 H 0.6663 0.7325 0.1182
C78_2 C 0.8244(6) 0.7456(2) 0.0874(3)
C79_2 C 0.8782(7) 0.7512(2) 0.0377(4)
H88_2 H 0.9589 0.7575 0.0384
C80_2 C 0.8958(7) 0.7502(2) 0.1407(4)
N1_2 N 0.3035(7) 0.3419(2) 0.3866(4)
N7_2 N 0.1316(6) 0.65971(17) 0.1368(3)
N8_2 N 0.1781(5) 0.69028(16) 0.0593(2)
O1_2 O 0.1797(5) 0.46492(14) 0.3185(2)
O4_2 O 0.1081(4) 0.53634(12) 0.20346(18)
O9_2 O 0.4454(5) 0.72891(18) 0.0755(2)
S2_2 S 0.0969(3) 0.50389(8) 0.42845(10)
S3_2 S 0.35987(17) 0.49804(6) 0.23962(9)
C17_2 C 0.7339(12) 0.3559(3) 0.4139(6)
H21_2 H 0.7001 0.3739 0.4402
H22_2 H 0.7286 0.3282 0.4266
H23_2 H 0.6908 0.3587 0.3779
C18_2 C 0.9096(11) 0.3395(3) 0.3683(5)
H24_2 H 0.9028 0.3118 0.3806
H25_2 H 0.9921 0.3459 0.3647
H26_2 H 0.8657 0.3429 0.3326
C19_2 C 0.9335(15) 0.3603(3) 0.4662(5)
H27_2 H 0.9025 0.3778 0.4939
H29_2 H 0.9266 0.3323 0.4776
C20_2 C 0.8616(10) 0.3669(3) 0.4090(4)
C21_2 C 0.8724(8) 0.4120(2) 0.3901(3)
C22_2 C 0.7925(8) 0.4298(3) 0.3501(3)
H30_2 H 0.7291 0.4143 0.3346
C23_2 C 0.8035(7) 0.4685(3) 0.3332(4)
C24_2 C 0.8964(8) 0.4930(3) 0.3549(4)
C25_2 C 0.9800(7) 0.4763(3) 0.3935(3)
C26_2 C 0.9671(8) 0.4353(2) 0.4103(3)
C27_2 C 0.847(2) 0.5593(5) 0.3791(11)
H32_2 H 0.7615 0.5602 0.3699
H33_2 H 0.8624 0.5499 0.4174
C28_2 C 0.897(2) 0.5957(8) 0.3716(13)
H34_2 H 0.9552 0.5929 0.3437
H35_2 H 0.9394 0.6041 0.4065
C29_2 C 0.8114(16) 0.6272(6) 0.3534(7)
H36_2 H 0.7537 0.6315 0.3810
H37_2 H 0.7695 0.6202 0.3178
C30_2 C 0.9163(8) 0.6825(3) 0.2984(4)
H38_2 H 0.8920 0.6710 0.2639
C31_2 C 0.9947(13) 0.7230(4) 0.3611(5)
C32_2 C 0.9436(13) 0.6921(5) 0.3846(5)
H40_2 H 0.9436 0.6886 0.4232
C33_2 C 0.4823(11) 0.5952(4) 0.1393(9)
H41_2 H 0.4819 0.5751 0.1100
H42_2 H 0.4325 0.6178 0.1271
H43_2 H 0.4526 0.5832 0.1722
C34_2 C 0.6362(13) 0.6294(4) 0.0977(6)
H44_2 H 0.7148 0.6410 0.1033
H45_2 H 0.5800 0.6506 0.0871
H46_2 H 0.6351 0.6092 0.0686
C35_2 C 0.610(2) 0.6406(5) 0.1906(8)
H47_2 H 0.6923 0.6483 0.1981
H48_2 H 0.5787 0.6317 0.2248
H49_2 H 0.5653 0.6636 0.1759
C36_2 C 0.6024(8) 0.6094(3) 0.1523(4)
C37_2 C 0.6830(6) 0.5734(2) 0.1711(4)
C38_2 C 0.7746(6) 0.5611(2) 0.1393(3)
H50_2 H 0.7904 0.5763 0.1079
C39_2 C 0.8439(6) 0.5267(2) 0.1527(3)
C40_2 C 0.8181(6) 0.5041(2) 0.1999(4)
C41_2 C 0.7333(7) 0.5172(3) 0.2341(4)
C42_2 C 0.6650(7) 0.5518(3) 0.2201(4)
H51_2 H 0.6073 0.5604 0.2434
C43_2 C 0.8254(8) 0.4324(3) 0.1879(4)
H52_2 H 0.8284 0.4335 0.1475
H53_2 H 0.7425 0.4307 0.1965
C44_2 C 0.8925(8) 0.3961(3) 0.2109(5)
H54_2 H 0.9762 0.3999 0.2050
H55_2 H 0.8855 0.3951 0.2511
C45_2 C 0.8555(10) 0.3573(3) 0.1877(6)
H56_2 H 0.9088 0.3365 0.2042
H57_2 H 0.8661 0.3579 0.1478
C46_2 C 0.6527(18) 0.3510(5) 0.1565(8)
H58_2 H 0.6558 0.3675 0.1250
C47_2 C 0.5567(16) 0.3277(6) 0.1723(8)
H59_2 H 0.4897 0.3217 0.1485
C48_2 C 0.6871(9) 0.3216(3) 0.2342(4)
H60_2 H 0.7324 0.3112 0.2651
H78_2 H 0.9752 0.6367 0.1012
N3_2 N 0.8917(8) 0.6661(3) 0.3476(4)
N5_2 N 0.5718(8) 0.3148(3) 0.2256(5)
N6_2 N 0.7348(8) 0.3447(2) 0.1949(4)
O2_2 O 0.9084(6) 0.5329(2) 0.3386(3)
O3_2 O 0.8809(4) 0.46831(17) 0.2136(2)
S1_2 S 0.93936(18) 0.51286(7) 0.10177(8)
S4_2 S 0.6789(2) 0.48806(12) 0.28953(14)
O13_2 O 0.2942(5) 0.2766(2) 0.2003(3)
O14_2 O 0.2778(4) 0.24837(18) 0.2804(2)
C67_2 C 0.9485(5) 0.73860(17) 0.8315(3)
H81_2 H 0.9005 0.7302 0.8594
C68_2 C 0.8993(5) 0.74360(18) 0.7786(3)
C69_2 C 0.9720(7) 0.7543(2) 0.7367(3)
H82_2 H 0.9393 0.7575 0.7001
C72_2 C 0.7673(6) 0.7390(2) 0.7650(3)
O7_2 O 0.7058(5) 0.7234(2) 0.7997(3)
O8_2 O 0.7222(4) 0.75163(18) 0.7196(2)
Cd5_2 Cd 0.52717(5) 0.737757(17) 0.73987(3)
H5_3 H 0.0146 0.8745 0.8432
C73_3 C 0.0030(7) 0.7698(2) 0.5343(4)
C74_3 C 0.1352(7) 0.76456(19) 0.5356(3)
C75_3 C 0.2024(6) 0.76288(18) 0.5850(3)
H85_3 H 0.1663 0.7675 0.6182
C76_2 C 0.1905(8) 0.7596(2) 0.4861(3)
H86_2 H 0.1458 0.7609 0.4519
C77_2 C 0.3118(9) 0.7526(3) 0.4876(4)
H87_2 H 0.3489 0.7505 0.4542
C78_3 C 0.3244(6) 0.7544(2) 0.5874(3)
C79_3 C 0.3782(7) 0.7488(2) 0.5377(4)
H88_3 H 0.4589 0.7425 0.5384
C80_3 C 0.3958(7) 0.7498(2) 0.6407(4)
O11_2 O 0.3608(6) 0.7664(2) 0.6828(3)
O12_2 O 0.4869(5) 0.7303(2) 0.6462(3)
C11_3 C 0.7598(9) 0.0656(2) 0.8436(4)
H12_3 H 0.7516 0.0673 0.8836
H13_3 H 0.8418 0.0587 0.8376
C12_3 C 0.7250(10) 0.1068(2) 0.8148(4)
H14_3 H 0.6469 0.1148 0.8256
H15_3 H 0.7191 0.1028 0.7745
C13_3 C 0.8132(11) 0.1413(3) 0.8294(5)
H16_3 H 0.7995 0.1631 0.8023
H17_3 H 0.8936 0.1312 0.8265
C14_3 C 0.7648(7) 0.1959(2) 0.8992(4)
H18_3 H 0.7335 0.2142 0.8722
C15_3 C 0.8417(11) 0.1418(3) 0.9353(6)
H19_3 H 0.8745 0.1159 0.9406
C16_3 C 0.8247(10) 0.1692(3) 0.9758(5)
C17_3 C 0.2339(12) 0.1441(3) 0.9139(6)
H21_3 H 0.2001 0.1261 0.9402
H22_3 H 0.2286 0.1718 0.9266
H23_3 H 0.1908 0.1413 0.8779
C18_3 C 0.4096(11) 0.1605(3) 0.8683(5)
H24_3 H 0.4028 0.1882 0.8806
H25_3 H 0.4921 0.1541 0.8647
H26_3 H 0.3657 0.1571 0.8326
C19_3 C 0.4335(15) 0.1397(3) 0.9662(5)
H27_3 H 0.4025 0.1222 0.9939
H28_3 H 0.5159 0.1333 0.9626
H29_3 H 0.4266 0.1677 0.9776
C20_3 C 0.3616(10) 0.1331(3) 0.9090(4)
C21_3 C 0.3724(8) 0.0880(2) 0.8901(3)
C22_3 C 0.2925(8) 0.0702(3) 0.8501(3)
H30_3 H 0.2291 0.0857 0.8346
C23_3 C 0.3035(7) 0.0315(3) 0.8332(4)
C24_3 C 0.3964(8) 0.0070(3) 0.8549(4)
C25_3 C 0.4800(7) 0.0237(3) 0.8935(3)
C26_3 C 0.4671(8) 0.0647(2) 0.9103(3)
H31_3 H 0.5243 0.0762 0.9356
C43_3 C 0.3254(8) 0.0676(3) 0.6879(4)
H52_3 H 0.3284 0.0665 0.6475
H53_3 H 0.2425 0.0693 0.6965
C44_3 C 0.3925(8) 0.1039(3) 0.7109(5)
H54_3 H 0.4762 0.1001 0.7050
H55_3 H 0.3855 0.1049 0.7511
C45_3 C 0.3555(10) 0.1427(3) 0.6877(6)
H56_3 H 0.4088 0.1635 0.7042
H57_3 H 0.3661 0.1421 0.6478
C46_3 C 0.1527(18) 0.1490(5) 0.6565(8)
H58_3 H 0.1558 0.1325 0.6250
C47_3 C 0.0567(16) 0.1723(6) 0.6723(8)
C48_3 C 0.1871(9) 0.1784(3) 0.7342(4)
H60_3 H 0.2324 0.1888 0.7651
C49_3 C 0.6649(12) 0.1107(4) 0.5283(6)
H61_3 H 0.6887 0.0873 0.5076
H62_3 H 0.5801 0.1101 0.5310
H63_3 H 0.6863 0.1352 0.5094
C50_3 C 0.6893(19) 0.1449(3) 0.6171(6)
H64_3 H 0.7091 0.1694 0.5976
H65_3 H 0.6045 0.1437 0.6196
H66_3 H 0.7285 0.1452 0.6542
C51_3 C 0.8575(10) 0.1097(4) 0.5740(6)
H67_3 H 0.8734 0.0858 0.5525
H68_3 H 0.8739 0.1337 0.5528
H69_3 H 0.9073 0.1096 0.6084
C52_3 C 0.7279(8) 0.1098(2) 0.5871(4)
C53_3 C 0.6954(6) 0.07038(19) 0.6184(3)
C54_3 C 0.5930(6) 0.0500(2) 0.6050(3)
H70_3 H 0.5406 0.0600 0.5763
C55_3 C 0.5628(6) 0.0141(2) 0.6329(3)
C57_3 C 0.7439(6) 0.01981(18) 0.6916(3)
C58_3 C 0.7705(6) 0.05548(19) 0.6626(3)
H71_3 H 0.8403 0.0696 0.6732
N1_3 N 0.8035(7) 0.1581(2) 0.8866(4)
N2_2 N 0.7754(5) 0.20454(17) 0.9524(3)
N5_3 N 0.0718(8) 0.1852(3) 0.7256(5)
N6_3 N 0.2348(8) 0.1553(2) 0.6949(4)
O1_3 O 0.6797(5) 0.03508(14) 0.8185(2)
O3_3 O 0.3809(4) 0.03169(17) 0.7136(2)
S3_3 S 0.85987(17) 0.00196(6) 0.73962(9)
S4_3 S 0.1789(2) 0.01194(12) 0.78953(14)
Cd6_2 Cd 0.74178(5) 0.263588(18) 0.99495(2)
N10_2 N 0.0227(6) 0.2843(2) 0.6959(3)
O15_2 O 0.1392(6) 0.2664(2) 0.8172(3)
O16_2 O 0.0131(5) 0.2303(2) 0.8538(3)
Cd2_2 Cd 0.75822(5) 0.763588(18) 0.50505(2)
C1_3 C 0.7627(16) 0.8419(3) 0.8540(9)
H1_3 H 0.7408 0.8437 0.8145
H2_3 H 0.7946 0.8152 0.8627
H3_3 H 0.6936 0.8464 0.8745
C2_3 C 0.9415(14) 0.8600(4) 0.8341(7)
H4_3 H 0.9141 0.8654 0.7958
H6_3 H 0.9550 0.8313 0.8391
C3_3 C 0.8823(14) 0.8675(4) 0.9263(6)
H7_3 H 0.8190 0.8779 0.9471
H8_3 H 0.8926 0.8389 0.9339
H9_3 H 0.9550 0.8818 0.9373
C4_3 C 0.8540(9) 0.8732(2) 0.8700(4)
C5_3 C 0.8063(7) 0.9166(2) 0.8555(3)
C6_3 C 0.7249(7) 0.9352(2) 0.8875(3)
H10_3 H 0.6965 0.9209 0.9173
C7_3 C 0.6836(7) 0.9748(2) 0.8764(3)
C8_3 C 0.7201(7) 0.9959(2) 0.8302(3)
C9_3 C 0.7968(6) 0.9767(2) 0.7963(3)
C10_3 C 0.8402(6) 0.9375(2) 0.8081(3)
H11_3 H 0.8917 0.9252 0.7845
C27_3 C 0.347(2) 0.9407(5) 0.8791(11)
H32_3 H 0.2615 0.9398 0.8699
H33_3 H 0.3624 0.9501 0.9174
C28_3 C 0.397(2) 0.9043(8) 0.8716(13)
H34_3 H 0.4552 0.9071 0.8437
H35_3 H 0.4394 0.8959 0.9065
C29_3 C 0.3114(16) 0.8728(6) 0.8534(7)
H36_3 H 0.2537 0.8685 0.8810
H37_3 H 0.2695 0.8798 0.8178
C30_3 C 0.4163(8) 0.8175(3) 0.7984(4)
H38_3 H 0.3920 0.8290 0.7639
C31_3 C 0.4947(13) 0.7770(4) 0.8611(5)
H39_3 H 0.5340 0.7550 0.8788
C32_3 C 0.4436(13) 0.8079(5) 0.8846(5)
H40_3 H 0.4436 0.8114 0.9232
C34_3 C 0.1362(13) 0.8706(4) 0.5977(6)
H44_3 H 0.2148 0.8590 0.6033
H45_3 H 0.0800 0.8494 0.5871
H46_3 H 0.1351 0.8908 0.5686
C35_3 C 0.110(2) 0.8594(5) 0.6906(8)
H47_3 H 0.1923 0.8517 0.6981
H48_3 H 0.0787 0.8683 0.7248
H49_3 H 0.0653 0.8364 0.6759
C36_3 C 0.1024(8) 0.8906(3) 0.6523(4)
C37_3 C 0.1830(6) 0.9266(2) 0.6711(4)
C38_3 C 0.2746(6) 0.9389(2) 0.6393(3)
H50_3 H 0.2904 0.9237 0.6079
C39_3 C 0.3439(6) 0.9733(2) 0.6527(3)
C40_3 C 0.3181(6) 0.9959(2) 0.6999(4)
C41_3 C 0.2333(7) 0.9828(3) 0.7341(4)
C42_3 C 0.1650(7) 0.9482(3) 0.7201(4)
H51_3 H 0.1073 0.9396 0.7434
C56_3 C 0.6400(6) 0.99860(18) 0.6758(3)
C59_3 C 0.6530(7) 0.92669(18) 0.6812(3)
H72_3 H 0.6364 0.9257 0.6409
H73_3 H 0.7386 0.9247 0.6897
C60_3 C 0.5894(8) 0.8919(2) 0.7092(3)
H74_3 H 0.5955 0.8962 0.7494
H75_3 H 0.5054 0.8924 0.6964
C61_3 C 0.6410(9) 0.8501(2) 0.6964(3)
H76_3 H 0.5995 0.8293 0.7164
H77_3 H 0.7244 0.8494 0.7102
C62_3 C 0.5429(8) 0.8477(3) 0.5966(4)
H78_3 H 0.4752 0.8633 0.6012
C63_3 C 0.5680(8) 0.8290(2) 0.5496(4)
H79_3 H 0.5203 0.8288 0.5161
C64_3 C 0.7085(7) 0.8171(2) 0.6115(3)
H80_3 H 0.7781 0.8069 0.6299
C65_2 C 0.6205(6) 0.7583(3) 0.4013(3)
C66_2 C 0.5675(5) 0.75439(18) 0.3450(3)
C67_3 C 0.4485(5) 0.76140(17) 0.3315(3)
H81_3 H 0.4005 0.7698 0.3594
C68_3 C 0.3993(5) 0.75640(18) 0.2786(3)
C69_3 C 0.4720(7) 0.7457(2) 0.2367(3)
H82_3 H 0.4393 0.7425 0.2001
C70_2 C 0.5924(7) 0.7399(2) 0.2489(3)
H83_2 H 0.6417 0.7339 0.2204
C71_2 C 0.6393(6) 0.7430(2) 0.3034(3)
H84_2 H 0.7196 0.7374 0.3122
C72_3 C 0.2673(6) 0.7610(2) 0.2650(3)
N3_3 N 0.3917(8) 0.8339(3) 0.8476(4)
N4_2 N 0.4773(6) 0.7843(2) 0.8041(3)
N7_3 N 0.6316(6) 0.84029(17) 0.6368(3)
N8_3 N 0.6781(5) 0.80972(16) 0.5593(2)
O2_3 O 0.4084(6) 0.9671(2) 0.8386(3)
O4_3 O 0.6081(4) 0.96366(12) 0.70346(18)
O5_2 O 0.5894(7) 0.7819(3) 0.4351(3)
O6_2 O 0.7049(7) 0.7366(3) 0.4188(3)
O9_3 O 0.9454(5) 0.77109(18) 0.5755(2)
O10_2 O 0.9474(5) 0.7706(2) 0.4856(2)
S1_3 S 0.43936(18) 0.98714(7) 0.60177(8)
S2_3 S 0.5969(3) 0.99611(8) 0.92845(10)
N9_2 N 0.7246(5) 0.70454(17) 0.5476(3)
H59_3 H 0.9897 0.1783 0.6485
C67_4 C 0.0515(5) 0.26140(17) 0.1685(3)
H81_4 H 0.0995 0.2698 0.1406
C68_4 C 0.1007(5) 0.25640(18) 0.2214(3)
C69_4 C 0.0280(7) 0.2457(2) 0.2633(3)
H82_4 H 0.0607 0.2425 0.2999
C72_4 C 0.2327(6) 0.2610(2) 0.2350(3)
C17_4 C 0.2661(12) 0.6441(3) 0.5861(6)
H21_4 H 0.2999 0.6261 0.5598
H22_4 H 0.2714 0.6718 0.5734
H23_4 H 0.3092 0.6413 0.6221
C18_4 C 0.0904(11) 0.6605(3) 0.6317(5)
H24_4 H 0.0972 0.6882 0.6194
H25_4 H 0.0079 0.6541 0.6353
H26_4 H 0.1343 0.6571 0.6674
C19_4 C 0.0665(15) 0.6397(3) 0.5338(5)
H27_4 H 0.0975 0.6222 0.5061
H29_4 H 0.0734 0.6677 0.5224
C20_4 C 0.1384(10) 0.6331(3) 0.5910(4)
C21_4 C 0.1276(8) 0.5880(2) 0.6099(3)
C22_4 C 0.2075(8) 0.5702(3) 0.6499(3)
H30_4 H 0.2709 0.5857 0.6654
C23_4 C 0.1965(7) 0.5315(3) 0.6668(4)
C24_4 C 0.1036(8) 0.5070(3) 0.6451(4)
C25_4 C 0.0200(7) 0.5237(3) 0.6065(3)
C26_4 C 0.0329(8) 0.5647(2) 0.5897(3)
C27_4 C 0.153(2) 0.4407(5) 0.6209(11)
H32_4 H 0.2385 0.4398 0.6301
H33_4 H 0.1376 0.4501 0.5826
C28_4 C 0.103(2) 0.4043(8) 0.6284(13)
H34_4 H 0.0448 0.4071 0.6563
H35_4 H 0.0606 0.3959 0.5935
C29_4 C 0.1886(16) 0.3728(6) 0.6466(7)
H36_4 H 0.2463 0.3685 0.6190
H37_4 H 0.2305 0.3798 0.6822
C30_4 C 0.0837(8) 0.3175(3) 0.7016(4)
H38_4 H 0.1080 0.3290 0.7361
C31_4 C 0.0053(13) 0.2770(4) 0.6389(5)
C32_4 C 0.0564(13) 0.3079(5) 0.6154(5)
H40_4 H 0.0564 0.3114 0.5768
C33_3 C 0.5177(11) 0.4048(4) 0.8607(9)
H41_3 H 0.5181 0.4249 0.8900
H42_3 H 0.5675 0.3822 0.8729
H43_3 H 0.5474 0.4168 0.8278
C34_4 C 0.3638(13) 0.3706(4) 0.9023(6)
H44_4 H 0.2852 0.3590 0.8967
H45_4 H 0.4200 0.3494 0.9129
H46_4 H 0.3649 0.3908 0.9314
C35_4 C 0.390(2) 0.3594(5) 0.8094(8)
H47_4 H 0.3077 0.3517 0.8019
H48_4 H 0.4213 0.3683 0.7752
H49_4 H 0.4347 0.3364 0.8241
C36_4 C 0.3976(8) 0.3906(3) 0.8477(4)
C37_4 C 0.3170(6) 0.4266(2) 0.8289(4)
C38_4 C 0.2254(6) 0.4389(2) 0.8607(3)
H50_4 H 0.2096 0.4237 0.8921
C39_4 C 0.1561(6) 0.4733(2) 0.8473(3)
C40_4 C 0.1819(6) 0.4959(2) 0.8001(4)
C41_4 C 0.2667(7) 0.4828(3) 0.7659(4)
C42_4 C 0.3350(7) 0.4482(3) 0.7799(4)
H51_4 H 0.3927 0.4396 0.7566
C43_4 C 0.1746(8) 0.5676(3) 0.8121(4)
H52_4 H 0.1716 0.5665 0.8525
H53_4 H 0.2575 0.5693 0.8035
C44_4 C 0.1075(8) 0.6039(3) 0.7891(5)
H54_4 H 0.0238 0.6001 0.7950
H55_4 H 0.1145 0.6049 0.7489
C45_4 C 0.1445(10) 0.6427(3) 0.8123(6)
H56_4 H 0.0912 0.6635 0.7958
H57_4 H 0.1339 0.6421 0.8522
C46_4 C 0.3473(18) 0.6490(5) 0.8435(8)
H58_4 H 0.3442 0.6325 0.8750
C47_4 C 0.4433(16) 0.6723(6) 0.8277(8)
H59_4 H 0.5103 0.6783 0.8515
C48_4 C 0.3129(9) 0.6784(3) 0.7658(4)
H60_4 H 0.2676 0.6888 0.7349
H78_4 H 0.0248 0.3633 0.8988
N3_4 N 0.1083(8) 0.3339(3) 0.6524(4)
N5_4 N 0.4282(8) 0.6852(3) 0.7744(5)
N6_4 N 0.2652(8) 0.6553(2) 0.8051(4)
O2_4 O 0.0916(6) 0.4671(2) 0.6614(3)
O3_4 O 0.1191(4) 0.53169(17) 0.7864(2)
S1_4 S 0.06064(18) 0.48714(7) 0.89823(8)
S4_4 S 0.3211(2) 0.51194(12) 0.71047(14)
C1_4 C 0.7373(16) 0.3419(3) 0.6460(9)
H1_4 H 0.7592 0.3437 0.6855
H2_4 H 0.7054 0.3152 0.6373
H3_4 H 0.8064 0.3464 0.6255
C2_4 C 0.5585(14) 0.3600(4) 0.6659(7)
H4_4 H 0.5859 0.3654 0.7042
H5_4 H 0.4854 0.3745 0.6568
H6_4 H 0.5450 0.3313 0.6609
C3_4 C 0.6177(14) 0.3675(4) 0.5737(6)
H7_4 H 0.6810 0.3779 0.5529
H8_4 H 0.6074 0.3389 0.5661
H9_4 H 0.5450 0.3818 0.5627
C4_4 C 0.6460(9) 0.3732(2) 0.6300(4)
C5_4 C 0.6937(7) 0.4166(2) 0.6445(3)
C6_4 C 0.7751(7) 0.4352(2) 0.6125(3)
H10_4 H 0.8035 0.4209 0.5827
C7_4 C 0.8164(7) 0.4748(2) 0.6236(3)
C8_4 C 0.7799(7) 0.4959(2) 0.6698(3)
C9_4 C 0.7032(6) 0.4767(2) 0.7037(3)
C10_4 C 0.6598(6) 0.4375(2) 0.6919(3)
H11_4 H 0.6083 0.4252 0.7155
C11_4 C 0.7402(9) 0.5656(2) 0.6564(4)
H12_4 H 0.7484 0.5673 0.6164
H13_4 H 0.6582 0.5587 0.6624
C12_4 C 0.7750(10) 0.6068(2) 0.6852(4)
H14_4 H 0.8531 0.6148 0.6744
H15_4 H 0.7809 0.6028 0.7255
C13_4 C 0.6868(11) 0.6413(3) 0.6706(5)
H16_4 H 0.7005 0.6631 0.6977
H17_4 H 0.6064 0.6312 0.6735
C14_4 C 0.7352(7) 0.6959(2) 0.6008(4)
H18_4 H 0.7665 0.7142 0.6278
C15_4 C 0.6583(11) 0.6418(3) 0.5647(6)
H19_4 H 0.6255 0.6159 0.5594
C16_4 C 0.6753(10) 0.6692(3) 0.5242(5)
H20_2 H 0.6567 0.6651 0.4861
H28_4 H 0.9841 0.6333 0.5374
H31_4 H 0.9757 0.5762 0.5644
H39_4 H 0.9660 0.2550 0.6212
C49_4 C 0.8351(12) 0.6107(4) 0.9717(6)
H61_4 H 0.8113 0.5873 0.9924
H62_4 H 0.9199 0.6101 0.9690
H63_4 H 0.8137 0.6352 0.9906
C50_4 C 0.8107(19) 0.6449(3) 0.8829(6)
H64_4 H 0.7909 0.6694 0.9024
H65_4 H 0.8955 0.6437 0.8804
H66_4 H 0.7715 0.6452 0.8458
C51_4 C 0.6425(10) 0.6097(4) 0.9260(6)
H67_4 H 0.6266 0.5858 0.9475
H68_4 H 0.6261 0.6337 0.9472
H69_4 H 0.5927 0.6096 0.8916
C52_4 C 0.7721(8) 0.6098(2) 0.9129(4)
C53_4 C 0.8046(6) 0.57038(19) 0.8816(3)
C54_4 C 0.9070(6) 0.5500(2) 0.8950(3)
H70_4 H 0.9594 0.5600 0.9237
C55_4 C 0.9372(6) 0.5141(2) 0.8671(3)
C56_4 C 0.8600(6) 0.49860(18) 0.8242(3)
C57_4 C 0.7561(6) 0.51981(18) 0.8084(3)
C58_4 C 0.7295(6) 0.55548(19) 0.8374(3)
H71_4 H 0.6597 0.5696 0.8268
C59_4 C 0.8470(7) 0.42669(18) 0.8188(3)
H72_4 H 0.8636 0.4257 0.8591
H73_4 H 0.7614 0.4247 0.8103
C60_4 C 0.9106(8) 0.3919(2) 0.7908(3)
H74_4 H 0.9045 0.3962 0.7506
H75_4 H 0.9946 0.3924 0.8036
C61_4 C 0.8590(9) 0.3501(2) 0.8036(3)
H76_4 H 0.9005 0.3293 0.7836
H77_4 H 0.7756 0.3494 0.7898
C62_4 C 0.9571(8) 0.3477(3) 0.9034(4)
C63_4 C 0.9320(8) 0.3290(2) 0.9504(4)
H79_4 H 0.9797 0.3288 0.9839
C64_4 C 0.7915(7) 0.3171(2) 0.8885(3)
H80_4 H 0.7219 0.3069 0.8701
C73_4 C 0.4970(7) 0.2698(2) 0.9657(4)
C74_4 C 0.3648(7) 0.26456(19) 0.9644(3)
C75_4 C 0.2976(6) 0.26288(18) 0.9150(3)
H85_4 H 0.3337 0.2675 0.8818
C78_4 C 0.1756(6) 0.2544(2) 0.9126(3)
C79_4 C 0.1218(7) 0.2488(2) 0.9623(4)
H88_4 H 0.0411 0.2425 0.9616
C80_4 C 0.1042(7) 0.2498(2) 0.8593(4)
N1_4 N 0.6965(7) 0.6581(2) 0.6134(4)
N7_4 N 0.8684(6) 0.34029(17) 0.8632(3)
N8_4 N 0.8219(5) 0.30972(16) 0.9407(2)
O1_4 O 0.8203(5) 0.53508(14) 0.6815(2)
O4_4 O 0.8919(4) 0.46366(12) 0.79654(18)
O9_4 O 0.5546(5) 0.27109(18) 0.9245(2)
S2_4 S 0.9031(3) 0.49611(8) 0.57155(10)
S3_4 S 0.64013(17) 0.50196(6) 0.76038(9)
H20_3 H 0.1567 0.8349 0.9861
C65_3 C 0.1205(6) 0.7417(3) 0.9013(3)
C66_3 C 0.0675(5) 0.74561(18) 0.8450(3)
C70_3 C 0.0924(7) 0.7601(2) 0.7489(3)
H83_3 H 0.1417 0.7661 0.7204
C71_3 C 0.1393(6) 0.7570(2) 0.8034(3)
H84_3 H 0.2196 0.7626 0.8122
C76_3 C 0.6905(8) 0.7404(2) 0.9861(3)
H86_3 H 0.6458 0.7391 0.9519
C77_3 C 0.8118(9) 0.7474(3) 0.9876(4)
H87_3 H 0.8489 0.7495 0.9542
O5_3 O 0.0894(7) 0.7181(3) 0.9351(3)
O6_3 O 0.2049(7) 0.7634(3) 0.9188(3)
O10_3 O 0.4474(5) 0.7294(2) 0.9856(2)
H20_4 H 0.8433 0.1651 0.0139
C33_4 C 0.9823(11) 0.9048(4) 0.6393(9)
H41_4 H 0.9819 0.9249 0.6100
H42_4 H 0.9325 0.8822 0.6271
H43_4 H 0.9526 0.9168 0.6722
C65_4 C 0.8795(6) 0.2583(3) 0.0987(3)
C66_4 C 0.9325(5) 0.25439(18) 0.1550(3)
C70_4 C 0.9076(7) 0.2399(2) 0.2511(3)
H83_4 H 0.8583 0.2339 0.2796
C71_4 C 0.8607(6) 0.2430(2) 0.1966(3)
H84_4 H 0.7804 0.2374 0.1878
C76_4 C 0.3095(8) 0.2596(2) 0.0139(3)
H86_4 H 0.3542 0.2609 0.0481
C77_4 C 0.1882(9) 0.2526(3) 0.0124(4)
H87_4 H 0.1511 0.2505 0.0458
O5_4 O 0.9106(7) 0.2819(3) 0.0649(3)
O6_4 O 0.7951(7) 0.2366(3) 0.0812(3)
O10_4 O 0.5526(5) 0.2706(2) 0.0144(2)
loop_
_geom_bond_atom_site_label_1
_geom_bond_atom_site_label_2
_geom_bond_site_symmetry_1
_geom_bond_site_symmetry_2
C33 H41 1_555 1_555
H42 C33 1_555 1_555
H43 C33 1_555 1_555
O13 Cd1 1_555 1_555
O14 Cd1 1_555 1_555
Cd2 N8 1_555 1_555
C1 H1 1_555 1_555
H2 C1 1_555 1_555
H3 C1 1_555 1_555
C2 H4 1_555 1_555
H6 C2 1_555 1_555
C3 H7 1_555 1_555
H8 C3 1_555 1_555
H9 C3 1_555 1_555
C4 C1 1_555 1_555
C5 C4 1_555 1_555
C6 C5 1_555 1_555
H10 C6 1_555 1_555
C7 C6 1_555 1_555
C8 C7 1_555 1_555
C9 C8 1_555 1_555
C10 C5 1_555 1_555
H11 C10 1_555 1_555
C27 H32 1_555 1_555
H33 C27 1_555 1_555
C28 C27 1_555 1_555
H34 C28 1_555 1_555
H35 C28 1_555 1_555
C29 C28 1_555 1_555
H36 C29 1_555 1_555
H37 C29 1_555 1_555
C30 H38 1_555 1_555
C31 H39 1_555 1_555
C32 C31 1_555 1_555
H40 C32 1_555 1_555
C34 H44 1_555 1_555
H45 C34 1_555 1_555
H46 C34 1_555 1_555
C35 H47 1_555 1_555
H48 C35 1_555 1_555
H49 C35 1_555 1_555
C37 C36 1_555 1_555
C38 C37 1_555 1_555
H50 C38 1_555 1_555
C39 C38 1_555 1_555
C40 C39 1_555 1_555
C41 C40 1_555 1_555
C42 C37 1_555 1_555
H51 C42 1_555 1_555
C59 H72 1_555 1_555
H73 C59 1_555 1_555
C60 C59 1_555 1_555
H74 C60 1_555 1_555
H75 C60 1_555 1_555
C61 C60 1_555 1_555
H76 C61 1_555 1_555
H77 C61 1_555 1_555
C62 H78 1_555 1_555
C63 C62 1_555 1_555
H79 C63 1_555 1_555
C64 H80 1_555 1_555
C65 C66 1_555 1_555
C66 C67 1_555 1_555
C67 H81 1_555 1_555
C68 C67 1_555 1_555
C69 C68 1_555 1_555
H82 C69 1_555 1_555
C70 C69 1_555 1_555
H83 C70 1_555 1_555
C71 C66 1_555 1_555
H84 C71 1_555 1_555
C72 C68 1_555 1_555
N3 C29 1_555 1_555
N4 C30 1_555 1_555
N7 C61 1_555 1_555
N8 C63 1_555 1_555
O4 C56 1_555 1_555
O5 Cd2 1_555 1_555
O6 Cd2 1_555 1_555
O7 C72 1_555 1_555
O8 C72 1_555 1_555
O9 Cd2 1_555 1_555
O10 Cd2 1_555 1_555
S1 C39 1_555 1_555
S2 C7 1_555 1_555
Cd4 N4 1_555 1_555
Cd5 O7 1_555 1_555
N9 Cd2 1_555 1_555
C2 C4 1_555 1_555
C3 C4 1_555 1_555
C9 C10 1_555 1_555
C27 O2 1_555 1_555
C30 N3 1_555 1_555
C31 N4 1_555 1_555
C32 N3 1_555 1_555
C34 C36 1_555 1_555
C35 C36 1_555 1_555
C41 C42 1_555 1_555
C59 O4 1_555 1_555
C62 N7 1_555 1_555
C64 N7 1_555 1_555
C64 N8 1_555 1_555
C65 O5 1_555 1_555
C65 O6 1_555 1_555
C70 C71 1_555 1_555
O8 Cd5 1_555 1_555
C11 H12 1_555 1_555
H13 C11 1_555 1_555
C12 C11 1_555 1_555
H14 C12 1_555 1_555
H15 C12 1_555 1_555
C13 C12 1_555 1_555
H16 C13 1_555 1_555
H17 C13 1_555 1_555
C14 H18 1_555 1_555
C15 H19 1_555 1_555
C16 C15 1_555 1_555
C17 H21 1_555 1_555
H22 C17 1_555 1_555
H23 C17 1_555 1_555
C18 H24 1_555 1_555
H25 C18 1_555 1_555
H26 C18 1_555 1_555
C19 H27 1_555 1_555
H28 C19 1_555 1_555
H29 C19 1_555 1_555
C20 C17 1_555 1_555
C21 C20 1_555 1_555
C22 C21 1_555 1_555
H30 C22 1_555 1_555
C23 C22 1_555 1_555
C24 C23 1_555 1_555
C25 C24 1_555 1_555
C26 C21 1_555 1_555
H31 C26 1_555 1_555
C43 H52 1_555 1_555
H53 C43 1_555 1_555
C44 C43 1_555 1_555
H54 C44 1_555 1_555
H55 C44 1_555 1_555
C45 C44 1_555 1_555
H56 C45 1_555 1_555
H57 C45 1_555 1_555
C46 H58 1_555 1_555
C47 C46 1_555 1_555
C48 H60 1_555 1_555
C49 H61 1_555 1_555
H62 C49 1_555 1_555
H63 C49 1_555 1_555
C50 H64 1_555 1_555
H65 C50 1_555 1_555
H66 C50 1_555 1_555
C51 H67 1_555 1_555
H68 C51 1_555 1_555
H69 C51 1_555 1_555
C52 C49 1_555 1_555
C53 C52 1_555 1_555
C54 C53 1_555 1_555
H70 C54 1_555 1_555
C55 C54 1_555 1_555
C58 C53 1_555 1_555
H71 C58 1_555 1_555
N1 C13 1_555 1_555
N2 C14 1_555 1_555
N5 C47 1_555 1_555
N6 C45 1_555 1_555
S4 C23 1_555 1_555
Cd6 N2 1_555 1_555
C11 O1 1_555 1_555
C14 N1 1_555 1_555
C15 N1 1_555 1_555
C16 N2 1_555 1_555
C18 C20 1_555 1_555
C19 C20 1_555 1_555
C25 C26 1_555 1_555
C43 O3 1_555 1_555
C46 N6 1_555 1_555
C48 N5 1_555 1_555
C48 N6 1_555 1_555
C50 C52 1_555 1_555
C51 C52 1_555 1_555
C57 C58 1_555 1_555
C57 S3 1_555 1_555
C73 C74 1_555 1_555
C74 C75 1_555 1_555
C75 H85 1_555 1_555
C76 C74 1_555 1_555
H86 C76 1_555 1_555
C77 C76 1_555 1_555
H87 C77 1_555 1_555
C78 C75 1_555 1_555
C79 C77 1_555 1_555
H88 C79 1_555 1_555
C80 C78 1_555 1_555
O11 C80 1_555 1_555
O12 C80 1_555 1_555
Cd4 O11 1_555 1_555
C78 C79 1_555 1_555
O12 Cd4 1_555 1_555
Cd6 N8_2 1_555 1_555
C1_2 H1_2 1_555 1_555
H2_2 C1_2 1_555 1_555
H3_2 C1_2 1_555 1_555
C2_2 H4_2 1_555 1_555
H5_2 C2_2 1_555 1_555
H6_2 C2_2 1_555 1_555
C3_2 H7_2 1_555 1_555
H8_2 C3_2 1_555 1_555
H9_2 C3_2 1_555 1_555
C4_2 C1_2 1_555 1_555
C5_2 C4_2 1_555 1_555
C6_2 C5_2 1_555 1_555
H10_2 C6_2 1_555 1_555
C7_2 C6_2 1_555 1_555
C8_2 C7_2 1_555 1_555
C9_2 C8_2 1_555 1_555
C10_2 C5_2 1_555 1_555
H11_2 C10_2 1_555 1_555
C11_2 H12_2 1_555 1_555
H13_2 C11_2 1_555 1_555
C12_2 C11_2 1_555 1_555
H14_2 C12_2 1_555 1_555
H15_2 C12_2 1_555 1_555
C13_2 C12_2 1_555 1_555
H16_2 C13_2 1_555 1_555
H17_2 C13_2 1_555 1_555
C14_2 H18_2 1_555 1_555
C15_2 H19_2 1_555 1_555
C16_2 C15_2 1_555 1_555
H20 C16_2 1_555 1_555
C49_2 H61_2 1_555 1_555
H62_2 C49_2 1_555 1_555
H63_2 C49_2 1_555 1_555
C50_2 H64_2 1_555 1_555
H65_2 C50_2 1_555 1_555
H66_2 C50_2 1_555 1_555
C51_2 H67_2 1_555 1_555
H68_2 C51_2 1_555 1_555
H69_2 C51_2 1_555 1_555
C52_2 C49_2 1_555 1_555
C53_2 C52_2 1_555 1_555
C54_2 C53_2 1_555 1_555
H70_2 C54_2 1_555 1_555
C55_2 C54_2 1_555 1_555
C56_2 C55_2 1_555 1_555
C57_2 C56_2 1_555 1_555
C58_2 C53_2 1_555 1_555
H71_2 C58_2 1_555 1_555
C59_2 H72_2 1_555 1_555
H73_2 C59_2 1_555 1_555
C60_2 C59_2 1_555 1_555
H74_2 C60_2 1_555 1_555
H75_2 C60_2 1_555 1_555
C61_2 C60_2 1_555 1_555
H76_2 C61_2 1_555 1_555
H77_2 C61_2 1_555 1_555
C63_2 C62_2 1_555 1_555
H79_2 C63_2 1_555 1_555
C64_2 H80_2 1_555 1_555
C73_2 C74_2 1_555 1_555
C74_2 C75_2 1_555 1_555
C75_2 H85_2 1_555 1_555
C78_2 C75_2 1_555 1_555
H88_2 C79_2 1_555 1_555
C80_2 C78_2 1_555 1_555
N1_2 C13_2 1_555 1_555
N9 C14_2 1_555 1_555
N7_2 C61_2 1_555 1_555
N8_2 C63_2 1_555 1_555
O1_2 C8_2 1_555 1_555
O4_2 C56_2 1_555 1_555
O9_2 Cd6 1_555 1_555
O15 C80_2 1_555 1_555
O16 C80_2 1_555 1_555
S2_2 C7_2 1_555 1_555
S3_2 C9_2 1_555 1_555
C2_2 C4_2 1_555 1_555
C3_2 C4_2 1_555 1_555
C9_2 C10_2 1_555 1_555
C11_2 O1_2 1_555 1_555
C14_2 N1_2 1_555 1_555
C15_2 N1_2 1_555 1_555
C16_2 N9 1_555 1_555
C50_2 C52_2 1_555 1_555
C51_2 C52_2 1_555 1_555
C57_2 C58_2 1_555 1_555
C57_2 S3_2 1_555 1_555
C59_2 O4_2 1_555 1_555
C62_2 N7_2 1_555 1_555
C64_2 N7_2 1_555 1_555
C64_2 N8_2 1_555 1_555
C73_2 O9_2 1_555 1_555
C78_2 C79_2 1_555 1_555
Cd4 N5_2 1_555 1_555
C17_2 H21_2 1_555 1_555
H22_2 C17_2 1_555 1_555
H23_2 C17_2 1_555 1_555
C18_2 H24_2 1_555 1_555
H25_2 C18_2 1_555 1_555
H26_2 C18_2 1_555 1_555
C19_2 H27_2 1_555 1_555
H29_2 C19_2 1_555 1_555
C20_2 C17_2 1_555 1_555
C21_2 C20_2 1_555 1_555
C22_2 C21_2 1_555 1_555
H30_2 C22_2 1_555 1_555
C23_2 C22_2 1_555 1_555
C24_2 C23_2 1_555 1_555
C25_2 C24_2 1_555 1_555
C26_2 C21_2 1_555 1_555
C27_2 H32_2 1_555 1_555
H33_2 C27_2 1_555 1_555
C28_2 C27_2 1_555 1_555
H34_2 C28_2 1_555 1_555
H35_2 C28_2 1_555 1_555
C29_2 C28_2 1_555 1_555
H36_2 C29_2 1_555 1_555
H37_2 C29_2 1_555 1_555
C30_2 H38_2 1_555 1_555
C32_2 C31_2 1_555 1_555
H40_2 C32_2 1_555 1_555
C33_2 H41_2 1_555 1_555
H42_2 C33_2 1_555 1_555
H43_2 C33_2 1_555 1_555
C34_2 H44_2 1_555 1_555
H45_2 C34_2 1_555 1_555
H46_2 C34_2 1_555 1_555
C35_2 H47_2 1_555 1_555
H48_2 C35_2 1_555 1_555
H49_2 C35_2 1_555 1_555
C36_2 C33_2 1_555 1_555
C37_2 C36_2 1_555 1_555
C38_2 C37_2 1_555 1_555
H50_2 C38_2 1_555 1_555
C39_2 C38_2 1_555 1_555
C40_2 C39_2 1_555 1_555
C41_2 C40_2 1_555 1_555
C42_2 C37_2 1_555 1_555
H51_2 C42_2 1_555 1_555
C43_2 H52_2 1_555 1_555
H53_2 C43_2 1_555 1_555
C44_2 C43_2 1_555 1_555
H54_2 C44_2 1_555 1_555
H55_2 C44_2 1_555 1_555
C45_2 C44_2 1_555 1_555
H56_2 C45_2 1_555 1_555
H57_2 C45_2 1_555 1_555
C46_2 H58_2 1_555 1_555
C47_2 C46_2 1_555 1_555
H59_2 C47_2 1_555 1_555
C48_2 H60_2 1_555 1_555
N3_2 C29_2 1_555 1_555
N10 C30_2 1_555 1_555
N5_2 C47_2 1_555 1_555
N6_2 C45_2 1_555 1_555
O2_2 C24_2 1_555 1_555
O3_2 C40_2 1_555 1_555
S1_2 C39_2 1_555 1_555
S4_2 C23_2 1_555 1_555
O13_2 Cd4 1_555 1_555
O14_2 Cd4 1_555 1_555
C18_2 C20_2 1_555 1_555
C19_2 C20_2 1_555 1_555
C25_2 C26_2 1_555 1_555
C27_2 O2_2 1_555 1_555
C30_2 N3_2 1_555 1_555
C31_2 N10 1_555 1_555
C32_2 N3_2 1_555 1_555
C34_2 C36_2 1_555 1_555
C35_2 C36_2 1_555 1_555
C41_2 C42_2 1_555 1_555
C41_2 S4_2 1_555 1_555
C43_2 O3_2 1_555 1_555
C46_2 N6_2 1_555 1_555
C48_2 N5_2 1_555 1_555
C48_2 N6_2 1_555 1_555
C67_2 H81_2 1_555 1_555
C68_2 C67_2 1_555 1_555
C69_2 C68_2 1_555 1_555
H82_2 C69_2 1_555 1_555
C72_2 C68_2 1_555 1_555
O7_2 C72_2 1_555 1_555
O8_2 C72_2 1_555 1_555
Cd5_2 O7_2 1_555 1_555
O8_2 Cd5_2 1_555 1_555
C73_3 C74_3 1_555 1_555
C74_3 C75_3 1_555 1_555
C75_3 H85_3 1_555 1_555
C76_2 C74_3 1_555 1_555
H86_2 C76_2 1_555 1_555
C77_2 C76_2 1_555 1_555
H87_2 C77_2 1_555 1_555
C78_3 C75_3 1_555 1_555
C79_3 C77_2 1_555 1_555
H88_3 C79_3 1_555 1_555
C80_3 C78_3 1_555 1_555
O11_2 C80_3 1_555 1_555
O12_2 C80_3 1_555 1_555
Cd5_2 O11_2 1_555 1_555
C78_3 C79_3 1_555 1_555
O12_2 Cd5_2 1_555 1_555
C11_3 H12_3 1_555 1_555
H13_3 C11_3 1_555 1_555
C12_3 C11_3 1_555 1_555
H14_3 C12_3 1_555 1_555
H15_3 C12_3 1_555 1_555
C13_3 C12_3 1_555 1_555
H16_3 C13_3 1_555 1_555
H17_3 C13_3 1_555 1_555
C14_3 H18_3 1_555 1_555
C15_3 H19_3 1_555 1_555
C16_3 C15_3 1_555 1_555
C17_3 H21_3 1_555 1_555
H22_3 C17_3 1_555 1_555
H23_3 C17_3 1_555 1_555
C18_3 H24_3 1_555 1_555
H25_3 C18_3 1_555 1_555
H26_3 C18_3 1_555 1_555
C19_3 H27_3 1_555 1_555
H28_3 C19_3 1_555 1_555
H29_3 C19_3 1_555 1_555
C20_3 C17_3 1_555 1_555
C21_3 C20_3 1_555 1_555
C22_3 C21_3 1_555 1_555
H30_3 C22_3 1_555 1_555
C23_3 C22_3 1_555 1_555
C24_3 C23_3 1_555 1_555
C25_3 C24_3 1_555 1_555
C26_3 C21_3 1_555 1_555
H31_3 C26_3 1_555 1_555
C43_3 H52_3 1_555 1_555
H53_3 C43_3 1_555 1_555
C44_3 C43_3 1_555 1_555
H54_3 C44_3 1_555 1_555
H55_3 C44_3 1_555 1_555
C45_3 C44_3 1_555 1_555
H56_3 C45_3 1_555 1_555
H57_3 C45_3 1_555 1_555
C46_3 H58_3 1_555 1_555
C47_3 C46_3 1_555 1_555
C48_3 H60_3 1_555 1_555
C49_3 H61_3 1_555 1_555
H62_3 C49_3 1_555 1_555
H63_3 C49_3 1_555 1_555
C50_3 H64_3 1_555 1_555
H65_3 C50_3 1_555 1_555
H66_3 C50_3 1_555 1_555
C51_3 H67_3 1_555 1_555
H68_3 C51_3 1_555 1_555
H69_3 C51_3 1_555 1_555
C52_3 C49_3 1_555 1_555
C53_3 C52_3 1_555 1_555
C54_3 C53_3 1_555 1_555
H70_3 C54_3 1_555 1_555
C55_3 C54_3 1_555 1_555
C58_3 C53_3 1_555 1_555
H71_3 C58_3 1_555 1_555
N1_3 C13_3 1_555 1_555
N2_2 C14_3 1_555 1_555
N5_3 C47_3 1_555 1_555
N6_3 C45_3 1_555 1_555
S4_3 C23_3 1_555 1_555
Cd6_2 N2_2 1_555 1_555
C11_3 O1_3 1_555 1_555
C14_3 N1_3 1_555 1_555
C15_3 N1_3 1_555 1_555
C16_3 N2_2 1_555 1_555
C18_3 C20_3 1_555 1_555
C19_3 C20_3 1_555 1_555
C25_3 C26_3 1_555 1_555
C43_3 O3_3 1_555 1_555
C46_3 N6_3 1_555 1_555
C48_3 N5_3 1_555 1_555
C48_3 N6_3 1_555 1_555
C50_3 C52_3 1_555 1_555
C51_3 C52_3 1_555 1_555
C57_3 C58_3 1_555 1_555
C57_3 S3_3 1_555 1_555
Cd2_2 N8_3 1_555 1_555
C1_3 H1_3 1_555 1_555
H2_3 C1_3 1_555 1_555
H3_3 C1_3 1_555 1_555
C2_3 H4_3 1_555 1_555
H6_3 C2_3 1_555 1_555
C3_3 H7_3 1_555 1_555
H8_3 C3_3 1_555 1_555
H9_3 C3_3 1_555 1_555
C4_3 C1_3 1_555 1_555
C5_3 C4_3 1_555 1_555
C6_3 C5_3 1_555 1_555
H10_3 C6_3 1_555 1_555
C7_3 C6_3 1_555 1_555
C8_3 C7_3 1_555 1_555
C9_3 C8_3 1_555 1_555
C10_3 C5_3 1_555 1_555
H11_3 C10_3 1_555 1_555
C27_3 H32_3 1_555 1_555
H33_3 C27_3 1_555 1_555
C28_3 C27_3 1_555 1_555
H34_3 C28_3 1_555 1_555
H35_3 C28_3 1_555 1_555
C29_3 C28_3 1_555 1_555
H36_3 C29_3 1_555 1_555
H37_3 C29_3 1_555 1_555
C30_3 H38_3 1_555 1_555
C31_3 H39_3 1_555 1_555
C32_3 C31_3 1_555 1_555
H40_3 C32_3 1_555 1_555
C34_3 H44_3 1_555 1_555
H45_3 C34_3 1_555 1_555
H46_3 C34_3 1_555 1_555
C35_3 H47_3 1_555 1_555
H48_3 C35_3 1_555 1_555
H49_3 C35_3 1_555 1_555
C37_3 C36_3 1_555 1_555
C38_3 C37_3 1_555 1_555
H50_3 C38_3 1_555 1_555
C39_3 C38_3 1_555 1_555
C40_3 C39_3 1_555 1_555
C41_3 C40_3 1_555 1_555
C42_3 C37_3 1_555 1_555
H51_3 C42_3 1_555 1_555
C59_3 H72_3 1_555 1_555
H73_3 C59_3 1_555 1_555
C60_3 C59_3 1_555 1_555
H74_3 C60_3 1_555 1_555
H75_3 C60_3 1_555 1_555
C61_3 C60_3 1_555 1_555
H76_3 C61_3 1_555 1_555
H77_3 C61_3 1_555 1_555
C62_3 H78_3 1_555 1_555
C63_3 C62_3 1_555 1_555
H79_3 C63_3 1_555 1_555
C64_3 H80_3 1_555 1_555
C65_2 C66_2 1_555 1_555
C66_2 C67_3 1_555 1_555
C67_3 H81_3 1_555 1_555
C68_3 C67_3 1_555 1_555
C69_3 C68_3 1_555 1_555
H82_3 C69_3 1_555 1_555
C70_2 C69_3 1_555 1_555
H83_2 C70_2 1_555 1_555
C71_2 C66_2 1_555 1_555
H84_2 C71_2 1_555 1_555
C72_3 C68_3 1_555 1_555
N3_3 C29_3 1_555 1_555
N4_2 C30_3 1_555 1_555
N7_3 C61_3 1_555 1_555
N8_3 C63_3 1_555 1_555
O4_3 C56_3 1_555 1_555
O5_2 Cd2_2 1_555 1_555
O6_2 Cd2_2 1_555 1_555
O13 C72_3 1_555 1_555
O14 C72_3 1_555 1_555
O9_3 Cd2_2 1_555 1_555
O10_2 Cd2_2 1_555 1_555
S1_3 C39_3 1_555 1_555
S2_3 C7_3 1_555 1_555
Cd5_2 N4_2 1_555 1_555
N9_2 Cd2_2 1_555 1_555
C2_3 C4_3 1_555 1_555
C3_3 C4_3 1_555 1_555
C9_3 C10_3 1_555 1_555
C27_3 O2_3 1_555 1_555
C30_3 N3_3 1_555 1_555
C31_3 N4_2 1_555 1_555
C32_3 N3_3 1_555 1_555
C34_3 C36_3 1_555 1_555
C35_3 C36_3 1_555 1_555
C41_3 C42_3 1_555 1_555
C59_3 O4_3 1_555 1_555
C62_3 N7_3 1_555 1_555
C64_3 N7_3 1_555 1_555
C64_3 N8_3 1_555 1_555
C65_2 O5_2 1_555 1_555
C65_2 O6_2 1_555 1_555
C70_2 C71_2 1_555 1_555
C67_4 H81_4 1_555 1_555
C68_4 C67_4 1_555 1_555
C69_4 C68_4 1_555 1_555
H82_4 C69_4 1_555 1_555
C72_4 C68_4 1_555 1_555
O13_2 C72_4 1_555 1_555
O14_2 C72_4 1_555 1_555
Cd5_2 N5_4 1_555 1_555
C17_4 H21_4 1_555 1_555
H22_4 C17_4 1_555 1_555
H23_4 C17_4 1_555 1_555
C18_4 H24_4 1_555 1_555
H25_4 C18_4 1_555 1_555
H26_4 C18_4 1_555 1_555
C19_4 H27_4 1_555 1_555
H29_4 C19_4 1_555 1_555
C20_4 C17_4 1_555 1_555
C21_4 C20_4 1_555 1_555
C22_4 C21_4 1_555 1_555
H30_4 C22_4 1_555 1_555
C23_4 C22_4 1_555 1_555
C24_4 C23_4 1_555 1_555
C25_4 C24_4 1_555 1_555
C26_4 C21_4 1_555 1_555
C27_4 H32_4 1_555 1_555
H33_4 C27_4 1_555 1_555
C28_4 C27_4 1_555 1_555
H34_4 C28_4 1_555 1_555
H35_4 C28_4 1_555 1_555
C29_4 C28_4 1_555 1_555
H36_4 C29_4 1_555 1_555
H37_4 C29_4 1_555 1_555
C30_4 H38_4 1_555 1_555
C32_4 C31_4 1_555 1_555
H40_4 C32_4 1_555 1_555
C33_3 H41_3 1_555 1_555
H42_3 C33_3 1_555 1_555
H43_3 C33_3 1_555 1_555
C34_4 H44_4 1_555 1_555
H45_4 C34_4 1_555 1_555
H46_4 C34_4 1_555 1_555
C35_4 H47_4 1_555 1_555
H48_4 C35_4 1_555 1_555
H49_4 C35_4 1_555 1_555
C36_4 C33_3 1_555 1_555
C37_4 C36_4 1_555 1_555
C38_4 C37_4 1_555 1_555
H50_4 C38_4 1_555 1_555
C39_4 C38_4 1_555 1_555
C40_4 C39_4 1_555 1_555
C41_4 C40_4 1_555 1_555
C42_4 C37_4 1_555 1_555
H51_4 C42_4 1_555 1_555
C43_4 H52_4 1_555 1_555
H53_4 C43_4 1_555 1_555
C44_4 C43_4 1_555 1_555
H54_4 C44_4 1_555 1_555
H55_4 C44_4 1_555 1_555
C45_4 C44_4 1_555 1_555
H56_4 C45_4 1_555 1_555
H57_4 C45_4 1_555 1_555
C46_4 H58_4 1_555 1_555
C47_4 C46_4 1_555 1_555
H59_4 C47_4 1_555 1_555
C48_4 H60_4 1_555 1_555
N3_4 C29_4 1_555 1_555
N10_2 C30_4 1_555 1_555
N5_4 C47_4 1_555 1_555
N6_4 C45_4 1_555 1_555
O2_4 C24_4 1_555 1_555
O3_4 C40_4 1_555 1_555
S1_4 C39_4 1_555 1_555
S4_4 C23_4 1_555 1_555
C18_4 C20_4 1_555 1_555
C19_4 C20_4 1_555 1_555
C25_4 C26_4 1_555 1_555
C27_4 O2_4 1_555 1_555
C30_4 N3_4 1_555 1_555
C31_4 N10_2 1_555 1_555
C32_4 N3_4 1_555 1_555
C34_4 C36_4 1_555 1_555
C35_4 C36_4 1_555 1_555
C41_4 C42_4 1_555 1_555
C41_4 S4_4 1_555 1_555
C43_4 O3_4 1_555 1_555
C46_4 N6_4 1_555 1_555
C48_4 N5_4 1_555 1_555
C48_4 N6_4 1_555 1_555
Cd6_2 N8_4 1_555 1_555
C1_4 H1_4 1_555 1_555
H2_4 C1_4 1_555 1_555
H3_4 C1_4 1_555 1_555
C2_4 H4_4 1_555 1_555
H5_4 C2_4 1_555 1_555
H6_4 C2_4 1_555 1_555
C3_4 H7_4 1_555 1_555
H8_4 C3_4 1_555 1_555
H9_4 C3_4 1_555 1_555
C4_4 C1_4 1_555 1_555
C5_4 C4_4 1_555 1_555
C6_4 C5_4 1_555 1_555
H10_4 C6_4 1_555 1_555
C7_4 C6_4 1_555 1_555
C8_4 C7_4 1_555 1_555
C9_4 C8_4 1_555 1_555
C10_4 C5_4 1_555 1_555
H11_4 C10_4 1_555 1_555
C11_4 H12_4 1_555 1_555
H13_4 C11_4 1_555 1_555
C12_4 C11_4 1_555 1_555
H14_4 C12_4 1_555 1_555
H15_4 C12_4 1_555 1_555
C13_4 C12_4 1_555 1_555
H16_4 C13_4 1_555 1_555
H17_4 C13_4 1_555 1_555
C14_4 H18_4 1_555 1_555
C15_4 H19_4 1_555 1_555
C16_4 C15_4 1_555 1_555
H20_2 C16_4 1_555 1_555
C49_4 H61_4 1_555 1_555
H62_4 C49_4 1_555 1_555
H63_4 C49_4 1_555 1_555
C50_4 H64_4 1_555 1_555
H65_4 C50_4 1_555 1_555
H66_4 C50_4 1_555 1_555
C51_4 H67_4 1_555 1_555
H68_4 C51_4 1_555 1_555
H69_4 C51_4 1_555 1_555
C52_4 C49_4 1_555 1_555
C53_4 C52_4 1_555 1_555
C54_4 C53_4 1_555 1_555
H70_4 C54_4 1_555 1_555
C55_4 C54_4 1_555 1_555
C56_4 C55_4 1_555 1_555
C57_4 C56_4 1_555 1_555
C58_4 C53_4 1_555 1_555
H71_4 C58_4 1_555 1_555
C59_4 H72_4 1_555 1_555
H73_4 C59_4 1_555 1_555
C60_4 C59_4 1_555 1_555
H74_4 C60_4 1_555 1_555
H75_4 C60_4 1_555 1_555
C61_4 C60_4 1_555 1_555
H76_4 C61_4 1_555 1_555
H77_4 C61_4 1_555 1_555
C63_4 C62_4 1_555 1_555
H79_4 C63_4 1_555 1_555
C64_4 H80_4 1_555 1_555
C73_4 C74_4 1_555 1_555
C74_4 C75_4 1_555 1_555
C75_4 H85_4 1_555 1_555
C78_4 C75_4 1_555 1_555
H88_4 C79_4 1_555 1_555
C80_4 C78_4 1_555 1_555
N1_4 C13_4 1_555 1_555
N9_2 C14_4 1_555 1_555
N7_4 C61_4 1_555 1_555
N8_4 C63_4 1_555 1_555
O1_4 C8_4 1_555 1_555
O4_4 C56_4 1_555 1_555
O9_4 Cd6_2 1_555 1_555
O15_2 C80_4 1_555 1_555
O16_2 C80_4 1_555 1_555
S2_4 C7_4 1_555 1_555
S3_4 C9_4 1_555 1_555
C2_4 C4_4 1_555 1_555
C3_4 C4_4 1_555 1_555
C9_4 C10_4 1_555 1_555
C11_4 O1_4 1_555 1_555
C14_4 N1_4 1_555 1_555
C15_4 N1_4 1_555 1_555
C16_4 N9_2 1_555 1_555
C50_4 C52_4 1_555 1_555
C51_4 C52_4 1_555 1_555
C57_4 C58_4 1_555 1_555
C57_4 S3_4 1_555 1_555
C59_4 O4_4 1_555 1_555
C62_4 N7_4 1_555 1_555
C64_4 N7_4 1_555 1_555
C64_4 N8_4 1_555 1_555
C73_4 O9_4 1_555 1_555
C78_4 C79_4 1_555 1_555
C65_3 C66_3 1_555 1_555
H83_3 C70_3 1_555 1_555
C71_3 C66_3 1_555 1_555
H84_3 C71_3 1_555 1_555
H86_3 C76_3 1_555 1_555
C77_3 C76_3 1_555 1_555
H87_3 C77_3 1_555 1_555
C65_3 O5_3 1_555 1_555
C65_3 O6_3 1_555 1_555
C70_3 C71_3 1_555 1_555
C33_4 H41_4 1_555 1_555
H42_4 C33_4 1_555 1_555
H43_4 C33_4 1_555 1_555
C65_4 C66_4 1_555 1_555
H83_4 C70_4 1_555 1_555
C71_4 C66_4 1_555 1_555
H84_4 C71_4 1_555 1_555
H86_4 C76_4 1_555 1_555
C77_4 C76_4 1_555 1_555
H87_4 C77_4 1_555 1_555
C65_4 O5_4 1_555 1_555
C65_4 O6_4 1_555 1_555
C70_4 C71_4 1_555 1_555

#END
