
###############################################################################
#
# This file contains modified crystal structure data generated from the
# MOF subset of the Cambridge Structural Database (CSD) v543 
# hosted by the Cambridge Crystallographic Data Centre (CCDC).
#
# This work is licensed under the Creative Commons
# Attribution-NonCommercial-ShareAlike 4.0 International License.
# To view a copy of this license, visit
# http://creativecommons.org/licenses/by-nc-sa/4.0/
# or send a letter to
# Creative Commons, PO Box 1866, Mountain View, CA 94042, USA.
#
# CIF created using the CSD Python API on 29 September 2022
# The structure has been converted into the P1 space group
# The structure has a 3D framework
# The original CSD entry YOZHIG is in the tetragonal crystal system
# The framework has been calculated to contain at least 10.0% void space
# The void calculation uses a probe of radius 1.32A, grid spacing 0.4
# The framework is charged, counterions have been retained in the structure
#
###############################################################################

data_YOZHIG
_chemical_formula_moiety         '(C768 H576 Cu16 N128 Nd32 O344)n'
_symmetry_cell_setting           triclinic
_symmetry_space_group_name_H-M   'P 1'
_symmetry_Int_Tables_number      1
_space_group_name_Hall           'P 1'
loop_
_symmetry_equiv_pos_site_id
_symmetry_equiv_pos_as_xyz
1 x,y,z
_cell_length_a                   45.3447(7)
_cell_length_b                   45.3447(7)
_cell_length_c                   11.2994(3)
_cell_angle_alpha                90
_cell_angle_beta                 90
_cell_angle_gamma                90
_cell_volume                     23233.2
loop_
_atom_site_label
_atom_site_type_symbol
_atom_site_fract_x
_atom_site_fract_y
_atom_site_fract_z
C26 C 0.00765(10) 0.89190(10) 0.2258(4)
C33 C 0.01538(10) 0.85118(11) 0.0492(4)
C34 C 0.02757(11) 0.86879(10) 0.2425(4)
C35 C 0.02010(11) 0.93151(11) 0.3801(4)
C37 C 0.00892(12) 0.99277(11) 0.1520(4)
H27 H 0.0134 0.9511 0.0946
C41 C 0.03110(11) 0.84837(11) 0.1528(4)
C42 C 0.04551(11) 0.86606(11) 0.3554(4)
C43 C 0.00916(12) 0.95031(11) 0.4663(4)
C44 C 0.05284(11) 0.93176(11) 0.3529(4)
H31 H 0.0288 0.9979 0.1475
H33 H 0.0441 0.8327 0.1625
O21 O 0.03197(7) 0.86913(8) 0.4515(3)
O22 O 0.07227(7) 0.86018(7) 0.3431(3)
H34 H 0.0221 0.9614 0.5125
O25 O 0.06000(7) 0.92774(7) 0.2473(3)
O26 O 0.06987(7) 0.93746(7) 0.4373(3)
Nd4 Nd 0.098920(6) 0.928708(6) 0.10280(2)
Nd5 Nd 0.100518(6) 0.931229(6) 0.60916(2)
C38 C 0.95837(10) 0.00591(10) 0.1936(4)
C45 C 0.98830(10) 0.01291(11) 0.1933(4)
C46 C 0.93659(11) 0.02608(11) 0.2552(4)
C48 C 0.90185(11) 0.01480(11) 0.0232(4)
H35 H 0.9945 0.0312 0.2210
O27 O 0.92470(8) 0.01689(8) 0.3475(3)
O28 O 0.93265(8) 0.05157(7) 0.2163(3)
O30 O 0.87910(7) 0.03153(7) 0.0185(3)
Nd6 Nd 0.899482(6) 0.068771(6) 0.39084(2)
O29 O 0.92572(7) 0.02168(7) 0.9785(3)
Nd7 Nd 0.901080(6) 0.071292(6) 0.89720(2)
Nd1 Nd 0.818771(6) 0.850518(6) 0.14084(2)
O1 O 0.78097(7) 0.87147(7) 0.2810(3)
O2 O 0.81338(8) 0.90494(7) 0.2265(3)
O3 O 0.85786(7) 0.86700(7) 0.0111(3)
O5 O 0.85117(7) 0.80727(7) 0.1164(3)
O6 O 0.86186(7) 0.86308(7) 0.2664(3)
O7 O 0.81254(7) 0.81987(7) 0.3127(3)
O8 O 0.76689(8) 0.82530(8) 0.0975(3)
C1 C 0.79159(11) 0.89738(11) 0.2861(4)
H2 H 0.8036 0.9034 0.0107
H3 H 0.8600 0.8030 0.1831
H4 H 0.8647 0.8108 0.0630
H5 H 0.8732 0.8469 0.2863
H6 H 0.8565 0.8717 0.3371
C3 C 0.77542(11) 0.91910(11) 0.3636(4)
C5 C 0.74551(11) 0.91442(11) 0.3867(4)
C6 C 0.78836(11) 0.94480(11) 0.4089(4)
H7 H 0.7364 0.8972 0.3614
C9 C 0.72956(11) 0.93557(11) 0.4475(4)
C10 C 0.82060(11) 0.95015(11) 0.4046(4)
N1 N 0.77227(9) 0.96607(9) 0.4625(3)
C12 C 0.92121(10) 0.86603(10) 0.0289(4)
H9 H 0.7098 0.9325 0.4665
C13 C 0.74364(11) 0.96131(11) 0.4790(4)
C14 C 0.84089(11) 0.93111(11) 0.4567(4)
N3 N 0.82887(10) 0.97540(9) 0.3501(3)
C16 C 0.91619(10) 0.83626(11) 0.0115(4)
N4 N 0.93390(9) 0.87581(9) 0.1308(3)
Cu1 Cu 0.953437(13) 0.916167(13) 0.13078(5)
C17 C 0.83173(11) 0.90345(11) 0.5191(4)
H17 H 0.7325 0.9762 0.5138
C18 C 0.87069(11) 0.93817(11) 0.4526(4)
C19 C 0.85758(11) 0.98191(11) 0.3510(4)
C20 C 0.92379(10) 0.81641(11) 0.0994(4)
C22 C 0.94084(11) 0.85632(11) 0.2173(4)
N5 N 0.99174(9) 0.89406(9) 0.1245(3)
N6 N 0.97076(9) 0.91754(9) 0.3297(3)
N7 N 0.97094(9) 0.95798(9) 0.1167(3)
N8 N 0.91588(9) 0.93933(9) 0.1537(3)
C23 C 0.87935(12) 0.96434(11) 0.4017(4)
H19 H 0.8846 0.9253 0.4839
H20 H 0.8635 0.9994 0.3152
C24 C 0.93616(11) 0.82676(11) 0.2031(4)
H21 H 0.9206 0.7963 0.0887
H22 H 0.9489 0.8632 0.2877
C25 C 0.99619(11) 0.87412(11) 0.0373(4)
C27 C 0.99975(10) 0.91436(10) 0.3167(4)
C28 C 0.96096(12) 0.93651(12) 0.4117(4)
C29 C 0.99958(11) 0.96506(11) 0.1176(4)
C30 C 0.95022(10) 0.97850(10) 0.1467(4)
C31 C 0.91968(10) 0.96827(11) 0.1268(4)
C32 C 0.88867(11) 0.92754(11) 0.1460(4)
H23 H 0.8990 0.9701 0.4012
H24 H 0.9413 0.8137 0.2630
H26 H 0.9407 0.9389 0.4204
C36 C 0.97926(12) 0.95261(12) 0.4834(4)
C39 C 0.89701(10) 0.98517(10) 0.0801(4)
H28 H 0.8860 0.9079 0.1672
C40 C 0.86443(11) 0.94372(11) 0.1076(4)
H30 H 0.9716 0.9648 0.5422
C47 C 0.86912(11) 0.97269(11) 0.0716(4)
H32 H 0.8457 0.9354 0.1061
H36 H 0.8535 0.9837 0.0418
Nd3 Nd 0.821292(6) 0.848920(6) 0.64720(2)
O23 O 0.83737(8) 0.87898(7) 0.4710(3)
O24 O 0.81977(8) 0.90524(8) 0.6187(3)
O4 O 0.79676(7) 0.88575(7) 0.9981(3)
O9 O 0.80157(7) 0.81735(8) 0.9663(3)
C2 C 0.86140(11) 0.87411(10) 0.9039(4)
H1 H 0.8010 0.8807 0.9257
C4 C 0.88836(11) 0.89242(11) 0.8777(4)
O10 O 0.84417(7) 0.86837(7) 0.8208(3)
C7 C 0.88655(11) 0.91463(11) 0.7924(4)
C8 C 0.91485(10) 0.88987(10) 0.9415(4)
H8 H 0.8698 0.9164 0.7456
C11 C 0.90970(12) 0.93382(12) 0.7782(4)
N2 N 0.93691(9) 0.90933(9) 0.9303(3)
O11 O 0.83332(7) 0.80454(7) 0.7692(3)
O12 O 0.87477(7) 0.84520(8) 0.6199(3)
O13 O 0.77625(8) 0.85774(8) 0.5151(3)
O16 O 0.82226(7) 0.81000(7) 0.5027(3)
O17 O 0.77168(7) 0.82428(7) 0.7285(3)
O18 O 0.78153(7) 0.87090(7) 0.7685(3)
H10 H 0.9090 0.9484 0.7205
C15 C 0.93384(11) 0.93104(12) 0.8505(4)
H11 H 0.8295 0.7888 0.7298
H12 H 0.8230 0.8046 0.8329
H13 H 0.8788 0.8343 0.5590
H14 H 0.8829 0.8374 0.6819
H15 H 0.7668 0.8412 0.5035
H16 H 0.7816 0.8647 0.4467
H18 H 0.9489 0.9449 0.8439
C21 C 0.90268(11) 0.82424(11) 0.8973(4)
O19 O 0.88196(7) 0.80608(7) 0.9098(3)
O20 O 0.91277(7) 0.83376(7) 0.8013(3)
H25 H 0.9858 0.8761 0.9667
O1_2 O 0.87853(7) 0.03097(7) 0.5310(3)
O2_2 O 0.84506(7) 0.06338(8) 0.4765(3)
O3_2 O 0.88300(7) 0.10786(7) 0.2611(3)
O4_2 O 0.86425(7) 0.04676(7) 0.2481(3)
O5_2 O 0.94273(7) 0.10117(7) 0.3664(3)
O6_2 O 0.88692(7) 0.11186(7) 0.5164(3)
O7_2 O 0.93013(7) 0.06254(7) 0.5627(3)
C1_2 C 0.85262(11) 0.04159(11) 0.5361(4)
C2_2 C 0.87589(10) 0.11140(11) 0.1539(4)
H1_2 H 0.8693 0.0510 0.1757
H2_2 H 0.8466 0.0536 0.2607
H3_2 H 0.9470 0.1100 0.4331
H4_2 H 0.9392 0.1147 0.3130
H5_2 H 0.9031 0.1232 0.5363
H6_2 H 0.8783 0.1065 0.5871
C3_2 C 0.83090(11) 0.02542(11) 0.6136(4)
C4_2 C 0.85758(11) 0.13836(11) 0.1277(4)
O10_2 O 0.88163(7) 0.09417(7) 0.0708(3)
C6_2 C 0.80520(11) 0.03836(11) 0.6589(4)
C7_2 C 0.83537(11) 0.13655(11) 0.0424(4)
C8_2 C 0.86013(10) 0.16485(10) 0.1915(4)
C10_2 C 0.79985(11) 0.07060(11) 0.6546(4)
N1_2 N 0.78393(9) 0.02227(9) 0.7125(3)
C11_2 C 0.81618(12) 0.15970(12) 0.0282(4)
C12_2 C 0.88397(10) 0.17121(10) 0.2789(4)
N2_2 N 0.84067(9) 0.18691(9) 0.1803(3)
O11_2 O 0.94546(7) 0.08332(7) 0.0192(3)
C14_2 C 0.81889(11) 0.09089(11) 0.7067(4)
N3_2 N 0.77460(9) 0.07887(10) 0.6001(3)
C15_2 C 0.81896(12) 0.18384(11) 0.1005(4)
C16_2 C 0.91374(11) 0.16619(10) 0.2615(4)
N4_2 N 0.87419(9) 0.18390(9) 0.3808(3)
Cu1_2 Cu 0.833833(13) 0.203437(13) 0.38078(5)
H12_2 H 0.9454 0.0730 0.0829
C17_2 C 0.84655(11) 0.08173(11) 0.7691(4)
C18_2 C 0.81183(11) 0.12069(11) 0.7026(4)
C19_2 C 0.76809(11) 0.10758(11) 0.6010(4)
H18_2 H 0.8051 0.1989 0.0939
C20_2 C 0.93359(11) 0.17379(10) 0.3494(4)
C21_2 C 0.92576(11) 0.15268(11) 0.1473(4)
C22_2 C 0.89368(11) 0.19084(11) 0.4673(4)
N5_2 N 0.85594(9) 0.24174(9) 0.3745(3)
N6_2 N 0.83246(9) 0.22076(9) 0.5797(3)
N7_2 N 0.79202(9) 0.22094(9) 0.3667(3)
N8_2 N 0.81067(9) 0.16588(9) 0.4037(3)
C23_2 C 0.78566(11) 0.12935(12) 0.6517(4)
H19_2 H 0.8247 0.1346 0.7339
H20_2 H 0.7506 0.1135 0.5652
C24_2 C 0.92324(11) 0.18616(11) 0.4531(4)
H21_2 H 0.9537 0.1706 0.3387
O19_2 O 0.94392(7) 0.13196(7) 0.1598(3)
O20_2 O 0.91624(7) 0.16277(7) 0.0513(3)
H22_2 H 0.8868 0.1989 0.5377
C25_2 C 0.87588(11) 0.24619(11) 0.2873(4)
C26_2 C 0.85810(10) 0.25765(10) 0.4758(4)
C27_2 C 0.83564(10) 0.24975(10) 0.5667(4)
C28_2 C 0.81349(12) 0.21096(12) 0.6617(4)
C29_2 C 0.78494(11) 0.24958(11) 0.3676(4)
C30_2 C 0.77150(10) 0.20022(10) 0.3967(4)
C31_2 C 0.78173(11) 0.16968(10) 0.3768(4)
C32_2 C 0.82246(11) 0.13867(11) 0.3960(4)
H23_2 H 0.7799 0.1490 0.6512
H24_2 H 0.9363 0.1913 0.5130
C33_2 C 0.89882(11) 0.26538(10) 0.2992(4)
H25_2 H 0.8739 0.2358 0.2167
C34_2 C 0.88121(10) 0.27757(11) 0.4925(4)
C35_2 C 0.81849(11) 0.27010(11) 0.6301(4)
H26_2 H 0.8111 0.1907 0.6704
C36_2 C 0.79739(12) 0.22926(12) 0.7334(4)
C37_2 C 0.75723(11) 0.25892(12) 0.4020(4)
H27_2 H 0.7989 0.2634 0.3446
C38_2 C 0.74409(10) 0.20837(10) 0.4436(4)
C39_2 C 0.76483(10) 0.14701(10) 0.3301(4)
H28_2 H 0.8421 0.1360 0.4172
C40_2 C 0.80628(11) 0.11443(11) 0.3576(4)
C41_2 C 0.90163(11) 0.28110(11) 0.4028(4)
H29 H 0.9124 0.2678 0.2382
C42_2 C 0.88394(11) 0.29551(11) 0.6054(4)
C43_2 C 0.79969(11) 0.25916(12) 0.7163(4)
C44_2 C 0.81824(11) 0.30284(11) 0.6029(4)
H30_2 H 0.7852 0.2216 0.7922
C45_2 C 0.73709(11) 0.23830(10) 0.4433(4)
H31_2 H 0.7521 0.2788 0.3975
C46_2 C 0.72392(11) 0.18659(11) 0.5052(4)
C47_2 C 0.77731(11) 0.11912(11) 0.3216(4)
C48_2 C 0.73520(11) 0.15185(11) 0.2732(4)
H32_2 H 0.8146 0.0957 0.3561
H33_2 H 0.9173 0.2941 0.4125
O21_2 O 0.88087(8) 0.28197(7) 0.7015(3)
O22_2 O 0.88982(7) 0.32227(7) 0.5931(3)
H34_2 H 0.7886 0.2721 0.7625
H35_2 H 0.7188 0.2445 0.4710
H36_2 H 0.7663 0.1035 0.2918
O23_2 O 0.87102(7) 0.08737(8) 0.7210(3)
O24_2 O 0.84476(8) 0.06977(8) 0.8687(3)
O25_2 O 0.82226(7) 0.31000(7) 0.4973(3)
O26_2 O 0.81254(7) 0.31987(7) 0.6873(3)
O27_2 O 0.73311(8) 0.17470(8) 0.5975(3)
O28_2 O 0.69843(7) 0.18265(8) 0.4663(3)
O29_2 O 0.72832(7) 0.17572(7) 0.2285(3)
O30_2 O 0.71847(7) 0.12910(7) 0.2685(3)
Nd4_2 Nd 0.821292(6) 0.348920(6) 0.35280(2)
Nd5_2 Nd 0.818771(6) 0.350518(6) 0.85916(2)
Nd6_2 Nd 0.681229(6) 0.149482(6) 0.64084(2)
Nd7_2 Nd 0.678708(6) 0.151080(6) 0.14720(2)
H8_2 H 0.8336 0.1198 0.9956
O12_2 O 0.90480(8) 0.12477(7) 0.8699(3)
O13_2 O 0.89226(8) 0.02625(8) 0.7651(3)
O16_2 O 0.94000(7) 0.07226(7) 0.7527(3)
H10_2 H 0.8016 0.1590 0.9705
H11_2 H 0.9612 0.0795 0.9798
H13_2 H 0.9157 0.1288 0.8090
H14_2 H 0.9126 0.1329 0.9319
H15_2 H 0.9088 0.0168 0.7535
H16_2 H 0.8853 0.0316 0.6967
Nd1_2 Nd 0.181229(6) 0.649482(6) 0.14084(2)
O1_3 O 0.21903(7) 0.62853(7) 0.2810(3)
O2_3 O 0.18662(8) 0.59506(7) 0.2265(3)
O3_3 O 0.14214(7) 0.63300(7) 0.0111(3)
O5_3 O 0.14883(7) 0.69273(7) 0.1164(3)
O6_3 O 0.13814(7) 0.63692(7) 0.2664(3)
O7_3 O 0.18746(7) 0.68013(7) 0.3127(3)
O8_2 O 0.23311(8) 0.67470(8) 0.0975(3)
C1_3 C 0.20841(11) 0.60262(11) 0.2861(4)
H2_3 H 0.1964 0.5966 0.0107
H3_3 H 0.1400 0.6970 0.1831
H4_3 H 0.1353 0.6892 0.0630
H5_3 H 0.1268 0.6531 0.2863
H6_3 H 0.1435 0.6283 0.3371
C3_3 C 0.22458(11) 0.58090(11) 0.3636(4)
C5_2 C 0.25449(11) 0.58558(11) 0.3867(4)
C6_3 C 0.21164(11) 0.55520(11) 0.4089(4)
H7_2 H 0.2636 0.6028 0.3614
C9_2 C 0.27044(11) 0.56443(11) 0.4475(4)
C10_3 C 0.17940(11) 0.54985(11) 0.4046(4)
N1_3 N 0.22773(9) 0.53393(9) 0.4625(3)
C12_3 C 0.07879(10) 0.63397(10) 0.0289(4)
H9_2 H 0.2902 0.5675 0.4665
C13_2 C 0.25636(11) 0.53869(11) 0.4790(4)
C14_3 C 0.15911(11) 0.56889(11) 0.4567(4)
N3_3 N 0.17113(10) 0.52460(9) 0.3501(3)
C16_3 C 0.08381(10) 0.66374(11) 0.0115(4)
N4_3 N 0.06610(9) 0.62419(9) 0.1308(3)
Cu1_3 Cu 0.046563(13) 0.583833(13) 0.13078(5)
C17_3 C 0.16827(11) 0.59655(11) 0.5191(4)
H17_2 H 0.2675 0.5238 0.5138
C18_3 C 0.12931(11) 0.56183(11) 0.4526(4)
C19_3 C 0.14242(11) 0.51809(11) 0.3510(4)
C20_3 C 0.07621(10) 0.68359(11) 0.0994(4)
C22_3 C 0.05916(11) 0.64368(11) 0.2173(4)
N5_3 N 0.00826(9) 0.60594(9) 0.1245(3)
N6_3 N 0.02924(9) 0.58246(9) 0.3297(3)
N7_3 N 0.02906(9) 0.54202(9) 0.1167(3)
N8_3 N 0.08412(9) 0.56067(9) 0.1537(3)
C23_3 C 0.12065(12) 0.53566(11) 0.4017(4)
H19_3 H 0.1154 0.5747 0.4839
H20_3 H 0.1365 0.5006 0.3152
C24_3 C 0.06384(11) 0.67324(11) 0.2031(4)
H21_3 H 0.0794 0.7037 0.0887
H22_3 H 0.0511 0.6368 0.2877
C25_3 C 0.00381(11) 0.62588(11) 0.0373(4)
C27_3 C 0.00025(10) 0.58564(10) 0.3167(4)
C28_3 C 0.03904(12) 0.56349(12) 0.4117(4)
C29_3 C 0.00042(11) 0.53494(11) 0.1176(4)
C30_3 C 0.04978(10) 0.52150(10) 0.1467(4)
C31_3 C 0.08032(10) 0.53173(11) 0.1268(4)
C32_3 C 0.11133(11) 0.57246(11) 0.1460(4)
H23_3 H 0.1010 0.5299 0.4012
H24_3 H 0.0587 0.6863 0.2630
H26_3 H 0.0593 0.5611 0.4204
C36_3 C 0.02074(12) 0.54739(12) 0.4834(4)
C38_3 C 0.04163(10) 0.49409(10) 0.1936(4)
C39_3 C 0.10299(10) 0.51483(10) 0.0801(4)
H28_3 H 0.1140 0.5921 0.1672
C40_3 C 0.13557(11) 0.55628(11) 0.1076(4)
H30_3 H 0.0284 0.5352 0.5422
C45_3 C 0.01170(10) 0.48709(11) 0.1933(4)
C46_3 C 0.06341(11) 0.47392(11) 0.2552(4)
C47_3 C 0.13088(11) 0.52731(11) 0.0716(4)
C48_3 C 0.09815(11) 0.48520(11) 0.0232(4)
H32_3 H 0.1543 0.5646 0.1061
H35_3 H 0.0055 0.4688 0.2210
H36_3 H 0.1465 0.5163 0.0418
Nd3_2 Nd 0.178708(6) 0.651080(6) 0.64720(2)
O23_3 O 0.16263(8) 0.62102(7) 0.4710(3)
O24_3 O 0.18023(8) 0.59476(8) 0.6187(3)
O27_3 O 0.07530(8) 0.48311(8) 0.3475(3)
O28_3 O 0.06735(8) 0.44843(7) 0.2163(3)
O30_3 O 0.12090(7) 0.46847(7) 0.0185(3)
Nd6_3 Nd 0.100518(6) 0.431229(6) 0.39084(2)
O4_3 O 0.20324(7) 0.61425(7) 0.9981(3)
O9_2 O 0.19843(7) 0.68265(8) 0.9663(3)
C2_3 C 0.13860(11) 0.62589(10) 0.9039(4)
H1_3 H 0.1990 0.6193 0.9257
C4_3 C 0.11164(11) 0.60758(11) 0.8777(4)
O10_3 O 0.15583(7) 0.63163(7) 0.8208(3)
C7_3 C 0.11345(11) 0.58537(11) 0.7924(4)
C8_3 C 0.08515(10) 0.61013(10) 0.9415(4)
H8_3 H 0.1302 0.5836 0.7456
C11_3 C 0.09030(12) 0.56618(12) 0.7782(4)
N2_3 N 0.06309(9) 0.59067(9) 0.9303(3)
O11_3 O 0.16668(7) 0.69546(7) 0.7692(3)
O12_3 O 0.12523(7) 0.65480(8) 0.6199(3)
O13_3 O 0.22375(8) 0.64226(8) 0.5151(3)
O16_3 O 0.17774(7) 0.69000(7) 0.5027(3)
O17_2 O 0.22832(7) 0.67572(7) 0.7285(3)
O18_2 O 0.21847(7) 0.62910(7) 0.7685(3)
H10_3 H 0.0910 0.5516 0.7205
C15_3 C 0.06616(11) 0.56896(12) 0.8505(4)
H11_3 H 0.1705 0.7112 0.7298
H12_3 H 0.1770 0.6954 0.8329
H13_3 H 0.1212 0.6657 0.5590
H14_3 H 0.1171 0.6626 0.6819
H15_3 H 0.2332 0.6588 0.5035
H16_3 H 0.2184 0.6353 0.4467
H18_3 H 0.0511 0.5551 0.8439
C21_3 C 0.09732(11) 0.67576(11) 0.8973(4)
O19_3 O 0.11804(7) 0.69392(7) 0.9098(3)
O20_3 O 0.08723(7) 0.66624(7) 0.8013(3)
H25_3 H 0.0142 0.6239 0.9667
O29_3 O 0.07428(7) 0.47832(7) 0.9785(3)
Nd7_3 Nd 0.098920(6) 0.428708(6) 0.89720(2)
C26_3 C 0.99235(10) 0.60810(10) 0.2258(4)
C33_3 C 0.98462(10) 0.64882(11) 0.0492(4)
C34_3 C 0.97243(11) 0.63121(10) 0.2425(4)
C35_3 C 0.97990(11) 0.56849(11) 0.3801(4)
C37_3 C 0.99108(12) 0.50723(11) 0.1520(4)
H27_3 H 0.9866 0.5489 0.0946
C41_3 C 0.96890(11) 0.65163(11) 0.1528(4)
C42_3 C 0.95449(11) 0.63394(11) 0.3554(4)
C43_3 C 0.99084(12) 0.54969(11) 0.4663(4)
C44_3 C 0.94716(11) 0.56824(11) 0.3529(4)
H31_3 H 0.9712 0.5021 0.1475
H33_3 H 0.9559 0.6673 0.1625
O21_3 O 0.96803(7) 0.63087(8) 0.4515(3)
O22_3 O 0.92773(7) 0.63982(7) 0.3431(3)
H34_3 H 0.9779 0.5386 0.5125
O25_3 O 0.94000(7) 0.57226(7) 0.2473(3)
O26_3 O 0.93013(7) 0.56254(7) 0.4373(3)
Nd4_3 Nd 0.901080(6) 0.571292(6) 0.10280(2)
Nd5_3 Nd 0.899482(6) 0.568771(6) 0.60916(2)
O1_4 O 0.12147(7) 0.46903(7) 0.5310(3)
O2_4 O 0.15494(7) 0.43662(8) 0.4765(3)
O3_4 O 0.11700(7) 0.39214(7) 0.2611(3)
O4_4 O 0.13575(7) 0.45324(7) 0.2481(3)
O5_4 O 0.05727(7) 0.39883(7) 0.3664(3)
O6_4 O 0.11308(7) 0.38814(7) 0.5164(3)
O7_4 O 0.06987(7) 0.43746(7) 0.5627(3)
C1_4 C 0.14738(11) 0.45841(11) 0.5361(4)
C2_4 C 0.12411(10) 0.38860(11) 0.1539(4)
H1_4 H 0.1307 0.4490 0.1757
H2_4 H 0.1534 0.4464 0.2607
H3_4 H 0.0530 0.3900 0.4331
H4_4 H 0.0608 0.3853 0.3130
H5_4 H 0.0969 0.3768 0.5363
H6_4 H 0.1217 0.3935 0.5871
C3_4 C 0.16910(11) 0.47458(11) 0.6136(4)
C4_4 C 0.14242(11) 0.36164(11) 0.1277(4)
O10_4 O 0.11837(7) 0.40583(7) 0.0708(3)
C5_3 C 0.16442(11) 0.50449(11) 0.6367(4)
C6_4 C 0.19480(11) 0.46164(11) 0.6589(4)
C7_4 C 0.16463(11) 0.36345(11) 0.0424(4)
C8_4 C 0.13987(10) 0.33515(10) 0.1915(4)
H7_3 H 0.1472 0.5136 0.6114
C9_3 C 0.18557(11) 0.52044(11) 0.6975(4)
C10_4 C 0.20015(11) 0.42940(11) 0.6546(4)
N1_4 N 0.21607(9) 0.47773(9) 0.7125(3)
C11_4 C 0.18382(12) 0.34030(12) 0.0282(4)
C12_4 C 0.11603(10) 0.32879(10) 0.2789(4)
N2_4 N 0.15933(9) 0.31309(9) 0.1803(3)
O11_4 O 0.05454(7) 0.41668(7) 0.0192(3)
H9_3 H 0.1825 0.5402 0.7165
C13_3 C 0.21131(11) 0.50636(11) 0.7290(4)
C14_4 C 0.18111(11) 0.40911(11) 0.7067(4)
N3_4 N 0.22540(9) 0.42113(10) 0.6001(3)
C15_4 C 0.18104(12) 0.31616(11) 0.1005(4)
C16_4 C 0.08626(11) 0.33381(10) 0.2615(4)
N4_4 N 0.12581(9) 0.31610(9) 0.3808(3)
Cu1_4 Cu 0.166167(13) 0.296563(13) 0.38078(5)
H12_4 H 0.0546 0.4270 0.0829
C17_4 C 0.15345(11) 0.41827(11) 0.7691(4)
H17_3 H 0.2262 0.5175 0.7638
C18_4 C 0.18817(11) 0.37931(11) 0.7026(4)
C19_4 C 0.23191(11) 0.39242(11) 0.6010(4)
H18_4 H 0.1949 0.3011 0.0939
C20_4 C 0.06641(11) 0.32621(10) 0.3494(4)
C21_4 C 0.07424(11) 0.34732(11) 0.1473(4)
C22_4 C 0.10632(11) 0.30916(11) 0.4673(4)
N5_4 N 0.14406(9) 0.25826(9) 0.3745(3)
N6_4 N 0.16754(9) 0.27924(9) 0.5797(3)
N7_4 N 0.20798(9) 0.27906(9) 0.3667(3)
N8_4 N 0.18933(9) 0.33412(9) 0.4037(3)
C23_4 C 0.21434(11) 0.37065(12) 0.6517(4)
H19_4 H 0.1753 0.3654 0.7339
H20_4 H 0.2494 0.3865 0.5652
C24_4 C 0.07676(11) 0.31384(11) 0.4531(4)
H21_4 H 0.0463 0.3294 0.3387
O19_4 O 0.05608(7) 0.36804(7) 0.1598(3)
O20_4 O 0.08376(7) 0.33723(7) 0.0513(3)
H22_4 H 0.1132 0.3011 0.5377
C25_4 C 0.12412(11) 0.25381(11) 0.2873(4)
C26_4 C 0.14190(10) 0.24235(10) 0.4758(4)
C27_4 C 0.16436(10) 0.25025(10) 0.5667(4)
C28_4 C 0.18651(12) 0.28904(12) 0.6617(4)
C29_4 C 0.21506(11) 0.25042(11) 0.3676(4)
C30_4 C 0.22850(10) 0.29978(10) 0.3967(4)
C31_4 C 0.21827(11) 0.33032(10) 0.3768(4)
C32_4 C 0.17754(11) 0.36133(11) 0.3960(4)
H23_4 H 0.2201 0.3510 0.6512
H24_4 H 0.0637 0.3087 0.5130
C33_4 C 0.10118(11) 0.23462(10) 0.2992(4)
H25_4 H 0.1261 0.2642 0.2167
C34_4 C 0.11879(10) 0.22243(11) 0.4925(4)
C35_4 C 0.18151(11) 0.22990(11) 0.6301(4)
H26_4 H 0.1889 0.3093 0.6704
C36_4 C 0.20261(12) 0.27074(12) 0.7334(4)
C37_4 C 0.24277(11) 0.24108(12) 0.4020(4)
H27_4 H 0.2011 0.2366 0.3446
C38_4 C 0.25591(10) 0.29163(10) 0.4436(4)
C39_4 C 0.23517(10) 0.35299(10) 0.3301(4)
H28_4 H 0.1579 0.3640 0.4172
C40_4 C 0.19372(11) 0.38557(11) 0.3576(4)
C41_4 C 0.09837(11) 0.21890(11) 0.4028(4)
H29_2 H 0.0876 0.2322 0.2382
C42_4 C 0.11606(11) 0.20449(11) 0.6054(4)
C43_4 C 0.20031(11) 0.24084(12) 0.7163(4)
C44_4 C 0.18176(11) 0.19716(11) 0.6029(4)
H30_4 H 0.2148 0.2784 0.7922
C45_4 C 0.26291(11) 0.26170(10) 0.4433(4)
H31_4 H 0.2479 0.2212 0.3975
C46_4 C 0.27608(11) 0.31341(11) 0.5052(4)
C47_4 C 0.22269(11) 0.38088(11) 0.3216(4)
C48_4 C 0.26480(11) 0.34815(11) 0.2732(4)
H32_4 H 0.1854 0.4043 0.3561
H33_4 H 0.0827 0.2059 0.4125
O21_4 O 0.11913(8) 0.21803(7) 0.7015(3)
O22_4 O 0.11018(7) 0.17773(7) 0.5931(3)
H34_4 H 0.2114 0.2279 0.7625
H35_4 H 0.2812 0.2555 0.4710
H36_4 H 0.2337 0.3965 0.2918
O23_4 O 0.12898(7) 0.41263(8) 0.7210(3)
O24_4 O 0.15524(8) 0.43023(8) 0.8687(3)
O25_4 O 0.17774(7) 0.19000(7) 0.4973(3)
O26_4 O 0.18746(7) 0.18013(7) 0.6873(3)
O27_4 O 0.26689(8) 0.32530(8) 0.5975(3)
O28_4 O 0.30157(7) 0.31735(8) 0.4663(3)
O29_4 O 0.27168(7) 0.32428(7) 0.2285(3)
O30_4 O 0.28153(7) 0.37090(7) 0.2685(3)
Nd4_4 Nd 0.178708(6) 0.151080(6) 0.35280(2)
Nd5_4 Nd 0.181229(6) 0.149482(6) 0.85916(2)
Nd6_4 Nd 0.318771(6) 0.350518(6) 0.64084(2)
Nd7_4 Nd 0.321292(6) 0.348920(6) 0.14720(2)
H8_4 H 0.1664 0.3802 0.9956
O12_4 O 0.09520(8) 0.37523(7) 0.8699(3)
O13_4 O 0.10774(8) 0.47375(8) 0.7651(3)
O16_4 O 0.06000(7) 0.42774(7) 0.7527(3)
H10_4 H 0.1984 0.3410 0.9705
H11_4 H 0.0388 0.4205 0.9798
H13_4 H 0.0843 0.3712 0.8090
H14_4 H 0.0874 0.3671 0.9319
H15_4 H 0.0912 0.4832 0.7535
H16_4 H 0.1147 0.4684 0.6967
C17_5 C 0.33173(11) 0.40345(11) 0.0191(4)
H17_4 H 0.2325 0.4762 0.0138
H30_5 H 0.4716 0.4648 0.0422
H34_5 H 0.5221 0.4614 0.0125
O24_5 O 0.31977(8) 0.40524(8) 0.1187(3)
Nd5_5 Nd 0.600518(6) 0.431229(6) 0.10916(2)
O1_5 O 0.28097(7) 0.37147(7) 0.7810(3)
O2_5 O 0.31338(8) 0.40494(7) 0.7265(3)
O3_5 O 0.35786(7) 0.36700(7) 0.5111(3)
O4_5 O 0.29676(7) 0.38575(7) 0.4981(3)
O5_5 O 0.35117(7) 0.30727(7) 0.6164(3)
O6_5 O 0.36186(7) 0.36308(7) 0.7664(3)
O7_5 O 0.31254(7) 0.31987(7) 0.8127(3)
C1_5 C 0.29159(11) 0.39738(11) 0.7861(4)
C2_5 C 0.36140(11) 0.37411(10) 0.4039(4)
H1_5 H 0.3010 0.3807 0.4257
H2_5 H 0.3036 0.4034 0.5107
H3_5 H 0.3600 0.3030 0.6831
H4_5 H 0.3647 0.3108 0.5630
H5_5 H 0.3732 0.3469 0.7863
H6_5 H 0.3565 0.3717 0.8371
C3_5 C 0.27542(11) 0.41910(11) 0.8636(4)
C4_5 C 0.38836(11) 0.39242(11) 0.3777(4)
O10_5 O 0.34417(7) 0.36837(7) 0.3208(3)
C5_4 C 0.24551(11) 0.41442(11) 0.8867(4)
C6_5 C 0.28836(11) 0.44480(11) 0.9089(4)
C7_5 C 0.38655(11) 0.41463(11) 0.2924(4)
C8_5 C 0.41485(10) 0.38987(10) 0.4415(4)
H7_4 H 0.2364 0.3972 0.8614
C9_4 C 0.22956(11) 0.43557(11) 0.9475(4)
C10_5 C 0.32060(11) 0.45015(11) 0.9046(4)
N1_5 N 0.27227(9) 0.46607(9) 0.9625(3)
H8_5 H 0.3698 0.4164 0.2456
C11_5 C 0.40970(12) 0.43382(12) 0.2782(4)
C12_5 C 0.42121(10) 0.36603(10) 0.5289(4)
N2_5 N 0.43691(9) 0.40933(9) 0.4303(3)
O11_5 O 0.33332(7) 0.30454(7) 0.2692(3)
O12_5 O 0.37477(7) 0.34520(8) 0.1199(3)
O13_5 O 0.27625(8) 0.35774(8) 0.0151(3)
O16_5 O 0.32226(7) 0.31000(7) 0.0027(3)
H9_4 H 0.2098 0.4325 0.9665
C13_4 C 0.24364(11) 0.46131(11) 0.9790(4)
C14_5 C 0.34089(11) 0.43111(11) 0.9567(4)
N3_5 N 0.32887(10) 0.47540(9) 0.8501(3)
H10_5 H 0.4090 0.4484 0.2205
C15_5 C 0.43384(11) 0.43104(12) 0.3505(4)
C16_5 C 0.41619(10) 0.33626(11) 0.5115(4)
N4_5 N 0.43390(9) 0.37581(9) 0.6308(3)
Cu1_5 Cu 0.453437(13) 0.416167(13) 0.63078(5)
H11_5 H 0.3295 0.2888 0.2298
H12_5 H 0.3230 0.3046 0.3329
H13_5 H 0.3788 0.3343 0.0590
H14_5 H 0.3829 0.3374 0.1819
H15_5 H 0.2668 0.3412 0.0035
C18_5 C 0.37069(11) 0.43817(11) 0.9526(4)
C19_5 C 0.35758(11) 0.48191(11) 0.8510(4)
H18_5 H 0.4489 0.4449 0.3439
C20_5 C 0.42379(10) 0.31641(11) 0.5994(4)
C21_5 C 0.40268(11) 0.32424(11) 0.3973(4)
C22_5 C 0.44084(11) 0.35632(11) 0.7173(4)
N5_5 N 0.49174(9) 0.39406(9) 0.6245(3)
N6_5 N 0.47076(9) 0.41754(9) 0.8297(3)
N7_5 N 0.47094(9) 0.45798(9) 0.6167(3)
N8_5 N 0.41588(9) 0.43933(9) 0.6537(3)
C23_5 C 0.37935(12) 0.46434(11) 0.9017(4)
H19_5 H 0.3846 0.4253 0.9839
H20_5 H 0.3635 0.4994 0.8152
C24_5 C 0.43616(11) 0.32676(11) 0.7031(4)
H21_5 H 0.4206 0.2963 0.5887
O19_5 O 0.38196(7) 0.30608(7) 0.4098(3)
O20_5 O 0.41277(7) 0.33376(7) 0.3013(3)
H22_5 H 0.4489 0.3632 0.7877
C25_5 C 0.49619(11) 0.37412(11) 0.5373(4)
C26_5 C 0.50765(10) 0.39190(10) 0.7258(4)
C27_5 C 0.49975(10) 0.41436(10) 0.8167(4)
C28_5 C 0.46096(12) 0.43651(12) 0.9117(4)
C29_5 C 0.49958(11) 0.46506(11) 0.6176(4)
C30_5 C 0.45022(10) 0.47850(10) 0.6467(4)
C31_5 C 0.41968(10) 0.46827(11) 0.6268(4)
C32_5 C 0.38867(11) 0.42754(11) 0.6460(4)
H23_5 H 0.3990 0.4701 0.9012
H24_5 H 0.4413 0.3137 0.7630
C33_5 C 0.51538(10) 0.35118(11) 0.5492(4)
H25_5 H 0.4858 0.3761 0.4667
C34_5 C 0.52757(11) 0.36879(10) 0.7425(4)
C35_5 C 0.52010(11) 0.43151(11) 0.8801(4)
H26_5 H 0.4407 0.4389 0.9204
C36_5 C 0.47926(12) 0.45261(12) 0.9834(4)
C37_5 C 0.50892(12) 0.49277(11) 0.6520(4)
H27_5 H 0.5134 0.4511 0.5946
C38_5 C 0.45837(10) 0.50591(10) 0.6936(4)
C39_5 C 0.39701(10) 0.48517(10) 0.5801(4)
H28_5 H 0.3860 0.4079 0.6672
C40_5 C 0.36443(11) 0.44372(11) 0.6076(4)
C41_5 C 0.53110(11) 0.34837(11) 0.6528(4)
H29_3 H 0.5178 0.3376 0.4882
C42_5 C 0.54551(11) 0.36606(11) 0.8554(4)
C43_5 C 0.50916(12) 0.45031(11) 0.9663(4)
C44_5 C 0.55284(11) 0.43176(11) 0.8529(4)
C45_5 C 0.48830(10) 0.51291(11) 0.6933(4)
H31_5 H 0.5288 0.4979 0.6475
C46_5 C 0.43659(11) 0.52608(11) 0.7552(4)
C47_5 C 0.36912(11) 0.47269(11) 0.5716(4)
C48_5 C 0.40185(11) 0.51480(11) 0.5232(4)
H32_5 H 0.3457 0.4354 0.6061
H33_5 H 0.5441 0.3327 0.6625
O21_5 O 0.53197(7) 0.36913(8) 0.9515(3)
O22_5 O 0.57227(7) 0.36018(7) 0.8431(3)
H35_5 H 0.4945 0.5312 0.7210
H36_5 H 0.3535 0.4837 0.5418
O23_5 O 0.33737(8) 0.37898(7) 0.9710(3)
O25_5 O 0.56000(7) 0.42774(7) 0.7473(3)
O26_5 O 0.56987(7) 0.43746(7) 0.9373(3)
O27_5 O 0.42470(8) 0.51689(8) 0.8475(3)
O28_5 O 0.43265(8) 0.55157(7) 0.7163(3)
O29_5 O 0.42572(7) 0.52168(7) 0.4785(3)
O30_5 O 0.37910(7) 0.53153(7) 0.5185(3)
Nd4_5 Nd 0.598920(6) 0.428708(6) 0.60280(2)
Nd6_5 Nd 0.399482(6) 0.568771(6) 0.89084(2)
Nd7_5 Nd 0.401080(6) 0.571292(6) 0.39720(2)
H16_5 H 0.2816 0.3647 0.9467
O1_6 O 0.37853(7) 0.53097(7) 0.0310(3)
O6_6 O 0.38692(7) 0.61186(7) 0.0164(3)
O7_6 O 0.43013(7) 0.56254(7) 0.0627(3)
C1_6 C 0.35262(11) 0.54159(11) 0.0361(4)
H5_6 H 0.4031 0.6232 0.0363
H6_6 H 0.3783 0.6065 0.0871
C3_6 C 0.33090(11) 0.52542(11) 0.1136(4)
C5_5 C 0.33558(11) 0.49551(11) 0.1367(4)
C6_6 C 0.30520(11) 0.53836(11) 0.1589(4)
H7_5 H 0.3528 0.4864 0.1114
C9_5 C 0.31443(11) 0.47956(11) 0.1975(4)
C10_6 C 0.29985(11) 0.57060(11) 0.1546(4)
N1_6 N 0.28393(9) 0.52227(9) 0.2125(3)
H9_5 H 0.3175 0.4598 0.2165
C13_5 C 0.28869(11) 0.49364(11) 0.2290(4)
C14_6 C 0.31889(11) 0.59089(11) 0.2067(4)
N3_6 N 0.27460(9) 0.57887(10) 0.1001(3)
C17_6 C 0.34655(11) 0.58173(11) 0.2691(4)
H17_5 H 0.2738 0.4825 0.2638
C18_6 C 0.31183(11) 0.62069(11) 0.2026(4)
C19_6 C 0.26809(11) 0.60758(11) 0.1010(4)
N6_6 N 0.33246(9) 0.72076(9) 0.0797(3)
C23_6 C 0.28566(11) 0.62935(12) 0.1517(4)
H19_6 H 0.3247 0.6346 0.2339
H20_6 H 0.2506 0.6135 0.0652
H22_6 H 0.3868 0.6989 0.0377
C27_6 C 0.33564(10) 0.74975(10) 0.0667(4)
C28_6 C 0.31349(12) 0.71096(12) 0.1617(4)
H23_6 H 0.2799 0.6490 0.1512
H24_6 H 0.4363 0.6913 0.0130
C35_6 C 0.31849(11) 0.77010(11) 0.1301(4)
H26_6 H 0.3111 0.6907 0.1704
C36_6 C 0.29739(12) 0.72926(12) 0.2334(4)
C42_6 C 0.38394(11) 0.79551(11) 0.1054(4)
C43_6 C 0.29969(11) 0.75916(12) 0.2163(4)
C44_6 C 0.31824(11) 0.80284(11) 0.1029(4)
H30_6 H 0.2852 0.7216 0.2922
C46_6 C 0.22392(11) 0.68659(11) 0.0052(4)
O21_6 O 0.38087(8) 0.78197(7) 0.2015(3)
O22_6 O 0.38982(7) 0.82227(7) 0.0931(3)
H34_6 H 0.2886 0.7721 0.2625
O23_6 O 0.37102(7) 0.58737(8) 0.2210(3)
O24_6 O 0.34476(8) 0.56977(8) 0.3687(3)
O26_6 O 0.31254(7) 0.81987(7) 0.1873(3)
Nd5_6 Nd 0.318771(6) 0.850518(6) 0.35916(2)
O2_6 O 0.34506(7) 0.56338(8) 0.9765(3)
O3_6 O 0.38300(7) 0.60786(7) 0.7611(3)
O4_6 O 0.36425(7) 0.54676(7) 0.7481(3)
O5_6 O 0.44273(7) 0.60117(7) 0.8664(3)
C2_6 C 0.37589(10) 0.61140(11) 0.6539(4)
H1_6 H 0.3693 0.5510 0.6757
H2_6 H 0.3466 0.5536 0.7607
H3_6 H 0.4470 0.6100 0.9331
H4_6 H 0.4392 0.6147 0.8130
C4_6 C 0.35758(11) 0.63836(11) 0.6277(4)
O10_6 O 0.38163(7) 0.59417(7) 0.5708(3)
C7_6 C 0.33537(11) 0.63655(11) 0.5424(4)
C8_6 C 0.36013(10) 0.66485(10) 0.6915(4)
H8_6 H 0.3336 0.6198 0.4956
C11_6 C 0.31618(12) 0.65970(12) 0.5282(4)
C12_6 C 0.38397(10) 0.67121(10) 0.7789(4)
N2_6 N 0.34067(9) 0.68691(9) 0.6803(3)
O11_6 O 0.44546(7) 0.58332(7) 0.5192(3)
O12_6 O 0.40480(8) 0.62477(7) 0.3699(3)
O13_6 O 0.39226(8) 0.52625(8) 0.2651(3)
O16_6 O 0.44000(7) 0.57226(7) 0.2527(3)
H10_6 H 0.3016 0.6590 0.4705
C15_6 C 0.31896(12) 0.68384(11) 0.6005(4)
C16_6 C 0.41374(11) 0.66619(10) 0.7615(4)
N4_6 N 0.37419(9) 0.68390(9) 0.8808(3)
Cu1_6 Cu 0.333833(13) 0.703437(13) 0.88078(5)
H11_6 H 0.4612 0.5795 0.4798
H12_6 H 0.4454 0.5730 0.5829
H13_6 H 0.4157 0.6288 0.3090
H14_6 H 0.4126 0.6329 0.4319
H15_6 H 0.4088 0.5168 0.2535
H16_6 H 0.3853 0.5316 0.1967
H18_6 H 0.3051 0.6989 0.5939
C20_6 C 0.43359(11) 0.67379(10) 0.8494(4)
C21_6 C 0.42576(11) 0.65268(11) 0.6473(4)
C22_6 C 0.39368(11) 0.69084(11) 0.9673(4)
N5_6 N 0.35594(9) 0.74174(9) 0.8745(3)
N7_6 N 0.29202(9) 0.72094(9) 0.8667(3)
N8_6 N 0.31067(9) 0.66588(9) 0.9037(3)
C24_6 C 0.42324(11) 0.68616(11) 0.9531(4)
H21_6 H 0.4537 0.6706 0.8387
O19_6 O 0.44392(7) 0.63196(7) 0.6598(3)
O20_6 O 0.41624(7) 0.66277(7) 0.5513(3)
C25_6 C 0.37588(11) 0.74619(11) 0.7873(4)
C26_6 C 0.35810(10) 0.75765(10) 0.9758(4)
C29_6 C 0.28494(11) 0.74958(11) 0.8676(4)
C30_6 C 0.27150(10) 0.70022(10) 0.8967(4)
C31_6 C 0.28173(11) 0.66968(10) 0.8768(4)
C32_6 C 0.32246(11) 0.63867(11) 0.8960(4)
C33_6 C 0.39882(11) 0.76538(10) 0.7992(4)
H25_6 H 0.3739 0.7358 0.7167
C34_6 C 0.38121(10) 0.77757(11) 0.9925(4)
C37_6 C 0.25723(11) 0.75892(12) 0.9020(4)
H27_6 H 0.2989 0.7634 0.8446
C38_6 C 0.24409(10) 0.70837(10) 0.9436(4)
C39_6 C 0.26483(10) 0.64701(10) 0.8301(4)
H28_6 H 0.3421 0.6360 0.9172
C40_6 C 0.30628(11) 0.61443(11) 0.8576(4)
C41_6 C 0.40163(11) 0.78110(11) 0.9028(4)
H29_4 H 0.4124 0.7678 0.7382
C45_6 C 0.23709(11) 0.73830(10) 0.9433(4)
H31_6 H 0.2521 0.7788 0.8975
C47_6 C 0.27731(11) 0.61912(11) 0.8216(4)
C48_6 C 0.23520(11) 0.65185(11) 0.7732(4)
H32_6 H 0.3146 0.5957 0.8561
H33_6 H 0.4173 0.7941 0.9125
H35_6 H 0.2188 0.7445 0.9710
H36_6 H 0.2663 0.6035 0.7918
O25_6 O 0.32226(7) 0.81000(7) 0.9973(3)
Nd4_6 Nd 0.321292(6) 0.848920(6) 0.85280(2)
C17_7 C 0.66827(11) 0.09655(11) 0.0191(4)
H17_6 H 0.7675 0.0238 0.0138
H30_7 H 0.5284 0.0352 0.0422
H34_7 H 0.4779 0.0386 0.0125
O24_7 O 0.68023(8) 0.09476(8) 0.1187(3)
Nd5_7 Nd 0.399482(6) 0.068771(6) 0.10916(2)
O1_7 O 0.71903(7) 0.12853(7) 0.7810(3)
O2_7 O 0.68662(8) 0.09506(7) 0.7265(3)
O3_7 O 0.64214(7) 0.13300(7) 0.5111(3)
O4_7 O 0.70324(7) 0.11425(7) 0.4981(3)
O5_7 O 0.64883(7) 0.19273(7) 0.6164(3)
O6_7 O 0.63814(7) 0.13692(7) 0.7664(3)
O7_7 O 0.68746(7) 0.18013(7) 0.8127(3)
C1_7 C 0.70841(11) 0.10262(11) 0.7861(4)
C2_7 C 0.63860(11) 0.12589(10) 0.4039(4)
H1_7 H 0.6990 0.1193 0.4257
H2_7 H 0.6964 0.0966 0.5107
H3_7 H 0.6400 0.1970 0.6831
H4_7 H 0.6353 0.1892 0.5630
H5_7 H 0.6268 0.1531 0.7863
H6_7 H 0.6435 0.1283 0.8371
C3_7 C 0.72458(11) 0.08090(11) 0.8636(4)
C4_7 C 0.61164(11) 0.10758(11) 0.3777(4)
O10_7 O 0.65583(7) 0.13163(7) 0.3208(3)
C5_6 C 0.75449(11) 0.08558(11) 0.8867(4)
C6_7 C 0.71164(11) 0.05520(11) 0.9089(4)
C7_7 C 0.61345(11) 0.08537(11) 0.2924(4)
C8_7 C 0.58515(10) 0.11013(10) 0.4415(4)
H7_6 H 0.7636 0.1028 0.8614
C9_6 C 0.77044(11) 0.06443(11) 0.9475(4)
C10_7 C 0.67940(11) 0.04985(11) 0.9046(4)
N1_7 N 0.72773(9) 0.03393(9) 0.9625(3)
H8_7 H 0.6302 0.0836 0.2456
C11_7 C 0.59030(12) 0.06618(12) 0.2782(4)
C12_7 C 0.57879(10) 0.13397(10) 0.5289(4)
N2_7 N 0.56309(9) 0.09067(9) 0.4303(3)
O11_7 O 0.66668(7) 0.19546(7) 0.2692(3)
O12_7 O 0.62523(7) 0.15480(8) 0.1199(3)
O13_7 O 0.72375(8) 0.14226(8) 0.0151(3)
O16_7 O 0.67774(7) 0.19000(7) 0.0027(3)
H9_6 H 0.7902 0.0675 0.9665
C13_6 C 0.75636(11) 0.03869(11) 0.9790(4)
C14_7 C 0.65911(11) 0.06889(11) 0.9567(4)
N3_7 N 0.67113(10) 0.02460(9) 0.8501(3)
H10_7 H 0.5910 0.0516 0.2205
C15_7 C 0.56616(11) 0.06896(12) 0.3505(4)
C16_7 C 0.58381(10) 0.16374(11) 0.5115(4)
N4_7 N 0.56610(9) 0.12419(9) 0.6308(3)
Cu1_7 Cu 0.546563(13) 0.083833(13) 0.63078(5)
H11_7 H 0.6705 0.2112 0.2298
H12_7 H 0.6770 0.1954 0.3329
H13_7 H 0.6212 0.1657 0.0590
H14_7 H 0.6171 0.1626 0.1819
H15_7 H 0.7332 0.1588 0.0035
C18_7 C 0.62931(11) 0.06183(11) 0.9526(4)
C19_7 C 0.64242(11) 0.01809(11) 0.8510(4)
H18_7 H 0.5511 0.0551 0.3439
C20_7 C 0.57621(10) 0.18359(11) 0.5994(4)
C21_7 C 0.59732(11) 0.17576(11) 0.3973(4)
C22_7 C 0.55916(11) 0.14368(11) 0.7173(4)
N5_7 N 0.50826(9) 0.10594(9) 0.6245(3)
N6_7 N 0.52924(9) 0.08246(9) 0.8297(3)
N7_7 N 0.52906(9) 0.04202(9) 0.6167(3)
N8_7 N 0.58412(9) 0.06067(9) 0.6537(3)
C23_7 C 0.62065(12) 0.03566(11) 0.9017(4)
H19_7 H 0.6154 0.0747 0.9839
H20_7 H 0.6365 0.0006 0.8152
C24_7 C 0.56384(11) 0.17324(11) 0.7031(4)
H21_7 H 0.5794 0.2037 0.5887
O19_7 O 0.61804(7) 0.19392(7) 0.4098(3)
O20_7 O 0.58723(7) 0.16624(7) 0.3013(3)
H22_7 H 0.5511 0.1368 0.7877
C25_7 C 0.50381(11) 0.12588(11) 0.5373(4)
C26_7 C 0.49235(10) 0.10810(10) 0.7258(4)
C27_7 C 0.50025(10) 0.08564(10) 0.8167(4)
C28_7 C 0.53904(12) 0.06349(12) 0.9117(4)
C29_7 C 0.50042(11) 0.03494(11) 0.6176(4)
C30_7 C 0.54978(10) 0.02150(10) 0.6467(4)
C31_7 C 0.58032(10) 0.03173(11) 0.6268(4)
C32_7 C 0.61133(11) 0.07246(11) 0.6460(4)
H23_7 H 0.6010 0.0299 0.9012
H24_7 H 0.5587 0.1863 0.7630
C33_7 C 0.48462(10) 0.14882(11) 0.5492(4)
H25_7 H 0.5142 0.1239 0.4667
C34_7 C 0.47243(11) 0.13121(10) 0.7425(4)
C35_7 C 0.47990(11) 0.06849(11) 0.8801(4)
H26_7 H 0.5593 0.0611 0.9204
C36_7 C 0.52074(12) 0.04739(12) 0.9834(4)
C37_7 C 0.49108(12) 0.00723(11) 0.6520(4)
H27_7 H 0.4866 0.0489 0.5946
C39_7 C 0.60299(10) 0.01483(10) 0.5801(4)
H28_7 H 0.6140 0.0921 0.6672
C40_7 C 0.63557(11) 0.05628(11) 0.6076(4)
C41_7 C 0.46890(11) 0.15163(11) 0.6528(4)
H29_5 H 0.4822 0.1624 0.4882
C42_7 C 0.45449(11) 0.13394(11) 0.8554(4)
C43_7 C 0.49084(12) 0.04969(11) 0.9663(4)
C44_7 C 0.44716(11) 0.06824(11) 0.8529(4)
H31_7 H 0.4712 0.0021 0.6475
C47_7 C 0.63088(11) 0.02731(11) 0.5716(4)
H32_7 H 0.6543 0.0646 0.6061
H33_7 H 0.4559 0.1673 0.6625
O21_7 O 0.46803(7) 0.13087(8) 0.9515(3)
O22_7 O 0.42773(7) 0.13982(7) 0.8431(3)
H36_7 H 0.6465 0.0163 0.5418
O23_7 O 0.66263(8) 0.12102(7) 0.9710(3)
O25_7 O 0.44000(7) 0.07226(7) 0.7473(3)
O26_7 O 0.43013(7) 0.06254(7) 0.9373(3)
Nd4_7 Nd 0.401080(6) 0.071292(6) 0.60280(2)
H16_7 H 0.7184 0.1353 0.9467
C38_7 C 0.54163(10) 0.99409(10) 0.6936(4)
C45_7 C 0.51170(10) 0.98709(11) 0.6933(4)
C46_7 C 0.56341(11) 0.97392(11) 0.7552(4)
C48_7 C 0.59815(11) 0.98520(11) 0.5232(4)
H35_7 H 0.5055 0.9688 0.7210
O27_6 O 0.57530(8) 0.98311(8) 0.8475(3)
O28_6 O 0.56735(8) 0.94843(7) 0.7163(3)
O29_6 O 0.57428(7) 0.97832(7) 0.4785(3)
O30_6 O 0.62090(7) 0.96847(7) 0.5185(3)
Nd6_6 Nd 0.600518(6) 0.931229(6) 0.89084(2)
Nd7_6 Nd 0.598920(6) 0.928708(6) 0.39720(2)
O1_8 O 0.62147(7) 0.96903(7) 0.0310(3)
O6_8 O 0.61308(7) 0.88814(7) 0.0164(3)
O7_8 O 0.56987(7) 0.93746(7) 0.0627(3)
C1_8 C 0.64738(11) 0.95841(11) 0.0361(4)
H5_8 H 0.5969 0.8768 0.0363
H6_8 H 0.6217 0.8935 0.0871
C3_8 C 0.66910(11) 0.97458(11) 0.1136(4)
C6_8 C 0.69480(11) 0.96164(11) 0.1589(4)
C10_8 C 0.70015(11) 0.92940(11) 0.1546(4)
N1_8 N 0.71607(9) 0.97773(9) 0.2125(3)
C14_8 C 0.68111(11) 0.90911(11) 0.2067(4)
N3_8 N 0.72540(9) 0.92113(10) 0.1001(3)
C17_8 C 0.65345(11) 0.91827(11) 0.2691(4)
C18_8 C 0.68817(11) 0.87931(11) 0.2026(4)
C19_8 C 0.73191(11) 0.89242(11) 0.1010(4)
N6_8 N 0.66754(9) 0.77924(9) 0.0797(3)
C23_8 C 0.71434(11) 0.87065(12) 0.1517(4)
H19_8 H 0.6753 0.8654 0.2339
H20_8 H 0.7494 0.8865 0.0652
H22_8 H 0.6132 0.8011 0.0377
C27_8 C 0.66436(10) 0.75025(10) 0.0667(4)
C28_8 C 0.68651(12) 0.78904(12) 0.1617(4)
H23_8 H 0.7201 0.8510 0.1512
H24_8 H 0.5637 0.8087 0.0130
C35_8 C 0.68151(11) 0.72990(11) 0.1301(4)
H26_8 H 0.6889 0.8093 0.1704
C36_8 C 0.70261(12) 0.77074(12) 0.2334(4)
C42_8 C 0.61606(11) 0.70449(11) 0.1054(4)
C43_8 C 0.70031(11) 0.74084(12) 0.2163(4)
C44_8 C 0.68176(11) 0.69716(11) 0.1029(4)
H30_8 H 0.7148 0.7784 0.2922
C46_8 C 0.77608(11) 0.81341(11) 0.0052(4)
O21_8 O 0.61913(8) 0.71803(7) 0.2015(3)
O22_8 O 0.61018(7) 0.67773(7) 0.0931(3)
H34_8 H 0.7114 0.7279 0.2625
O23_8 O 0.62898(7) 0.91263(8) 0.2210(3)
O24_8 O 0.65524(8) 0.93023(8) 0.3687(3)
O26_8 O 0.68746(7) 0.68013(7) 0.1873(3)
Nd5_8 Nd 0.681229(6) 0.649482(6) 0.35916(2)
O2_8 O 0.65494(7) 0.93662(8) 0.9765(3)
O3_8 O 0.61700(7) 0.89214(7) 0.7611(3)
O4_8 O 0.63575(7) 0.95324(7) 0.7481(3)
O5_8 O 0.55727(7) 0.89883(7) 0.8664(3)
C2_8 C 0.62411(10) 0.88860(11) 0.6539(4)
H1_8 H 0.6307 0.9490 0.6757
H2_8 H 0.6534 0.9464 0.7607
H3_8 H 0.5530 0.8900 0.9331
H4_8 H 0.5608 0.8853 0.8130
C4_8 C 0.64242(11) 0.86164(11) 0.6277(4)
O10_8 O 0.61837(7) 0.90583(7) 0.5708(3)
C7_8 C 0.66463(11) 0.86345(11) 0.5424(4)
C8_8 C 0.63987(10) 0.83515(10) 0.6915(4)
H8_8 H 0.6664 0.8802 0.4956
C11_8 C 0.68382(12) 0.84030(12) 0.5282(4)
C12_8 C 0.61603(10) 0.82879(10) 0.7789(4)
N2_8 N 0.65933(9) 0.81309(9) 0.6803(3)
O11_8 O 0.55454(7) 0.91668(7) 0.5192(3)
O12_8 O 0.59520(8) 0.87523(7) 0.3699(3)
O13_8 O 0.60774(8) 0.97375(8) 0.2651(3)
O16_8 O 0.56000(7) 0.92774(7) 0.2527(3)
H10_8 H 0.6984 0.8410 0.4705
C15_8 C 0.68104(12) 0.81616(11) 0.6005(4)
C16_8 C 0.58626(11) 0.83381(10) 0.7615(4)
N4_8 N 0.62581(9) 0.81610(9) 0.8808(3)
Cu1_8 Cu 0.666167(13) 0.796563(13) 0.88078(5)
H11_8 H 0.5388 0.9205 0.4798
H12_8 H 0.5546 0.9270 0.5829
H13_8 H 0.5843 0.8712 0.3090
H14_8 H 0.5874 0.8671 0.4319
H15_8 H 0.5912 0.9832 0.2535
H16_8 H 0.6147 0.9684 0.1967
H18_8 H 0.6949 0.8011 0.5939
C20_8 C 0.56641(11) 0.82621(10) 0.8494(4)
C21_8 C 0.57424(11) 0.84732(11) 0.6473(4)
C22_8 C 0.60632(11) 0.80916(11) 0.9673(4)
N5_8 N 0.64406(9) 0.75826(9) 0.8745(3)
N7_8 N 0.70798(9) 0.77906(9) 0.8667(3)
N8_8 N 0.68933(9) 0.83412(9) 0.9037(3)
C24_8 C 0.57676(11) 0.81384(11) 0.9531(4)
H21_8 H 0.5463 0.8294 0.8387
O19_8 O 0.55608(7) 0.86804(7) 0.6598(3)
O20_8 O 0.58376(7) 0.83723(7) 0.5513(3)
C25_8 C 0.62412(11) 0.75381(11) 0.7873(4)
C26_8 C 0.64190(10) 0.74235(10) 0.9758(4)
C29_8 C 0.71506(11) 0.75042(11) 0.8676(4)
C30_8 C 0.72850(10) 0.79978(10) 0.8967(4)
C31_8 C 0.71827(11) 0.83032(10) 0.8768(4)
C32_8 C 0.67754(11) 0.86133(11) 0.8960(4)
C33_8 C 0.60118(11) 0.73462(10) 0.7992(4)
H25_8 H 0.6261 0.7642 0.7167
C34_8 C 0.61879(10) 0.72243(11) 0.9925(4)
C37_8 C 0.74277(11) 0.74108(12) 0.9020(4)
H27_8 H 0.7011 0.7366 0.8446
C38_8 C 0.75591(10) 0.79163(10) 0.9436(4)
C39_8 C 0.73517(10) 0.85299(10) 0.8301(4)
H28_8 H 0.6579 0.8640 0.9172
C40_8 C 0.69372(11) 0.88557(11) 0.8576(4)
C41_8 C 0.59837(11) 0.71890(11) 0.9028(4)
H29_6 H 0.5876 0.7322 0.7382
C45_8 C 0.76291(11) 0.76170(10) 0.9433(4)
H31_8 H 0.7479 0.7212 0.8975
C47_8 C 0.72269(11) 0.88088(11) 0.8216(4)
C48_8 C 0.76480(11) 0.84815(11) 0.7732(4)
H32_8 H 0.6854 0.9043 0.8561
H33_8 H 0.5827 0.7059 0.9125
H35_8 H 0.7812 0.7555 0.9710
H36_8 H 0.7337 0.8965 0.7918
O25_8 O 0.67774(7) 0.69000(7) 0.9973(3)
Nd4_8 Nd 0.678708(6) 0.651080(6) 0.85280(2)
O4_9 O 0.20324(7) 0.11425(7) 0.0019(3)
O9_3 O 0.19843(7) 0.18265(8) 0.0337(3)
C2_9 C 0.13860(11) 0.12589(10) 0.0961(4)
H1_9 H 0.1990 0.1193 0.0743
C4_9 C 0.11164(11) 0.10758(11) 0.1223(4)
O10_9 O 0.15583(7) 0.13163(7) 0.1792(3)
C7_9 C 0.11345(11) 0.08537(11) 0.2076(4)
C8_9 C 0.08515(10) 0.11013(10) 0.0585(4)
H8_9 H 0.1302 0.0836 0.2544
C11_9 C 0.09030(12) 0.06618(12) 0.2218(4)
N2_9 N 0.06309(9) 0.09067(9) 0.0697(3)
O11_9 O 0.16668(7) 0.19546(7) 0.2308(3)
O12_9 O 0.12523(7) 0.15480(8) 0.3801(3)
O13_9 O 0.22375(8) 0.14226(8) 0.4849(3)
O14 O 0.16263(8) 0.12102(7) 0.5290(3)
O15 O 0.18023(8) 0.09476(8) 0.3813(3)
O17_3 O 0.22832(7) 0.17572(7) 0.2715(3)
O18_3 O 0.21847(7) 0.12910(7) 0.2315(3)
H10_9 H 0.0910 0.0516 0.2795
C15_9 C 0.06616(11) 0.06896(12) 0.1495(4)
H11_9 H 0.1705 0.2112 0.2702
H12_9 H 0.1770 0.1954 0.1671
H13_9 H 0.1212 0.1657 0.4410
H14_9 H 0.1171 0.1626 0.3181
H15_9 H 0.2332 0.1588 0.4965
H16_9 H 0.2184 0.1353 0.5533
H18_9 H 0.0511 0.0551 0.1561
C21_9 C 0.09732(11) 0.17576(11) 0.1027(4)
O19_9 O 0.11804(7) 0.19392(7) 0.0902(3)
O20_9 O 0.08723(7) 0.16624(7) 0.1987(3)
H25_9 H 0.0142 0.1239 0.0333
O1_9 O 0.21903(7) 0.12853(7) 0.7190(3)
O2_9 O 0.18662(8) 0.09506(7) 0.7735(3)
O3_9 O 0.14214(7) 0.13300(7) 0.9889(3)
O5_9 O 0.14883(7) 0.19273(7) 0.8836(3)
O6_9 O 0.13814(7) 0.13692(7) 0.7336(3)
O8_3 O 0.23311(8) 0.17470(8) 0.9025(3)
C1_9 C 0.20841(11) 0.10262(11) 0.7139(4)
H2_9 H 0.1964 0.0966 0.9893
H3_9 H 0.1400 0.1970 0.8169
H4_9 H 0.1353 0.1892 0.9370
H5_9 H 0.1268 0.1531 0.7137
H6_9 H 0.1435 0.1283 0.6629
C3_9 C 0.22458(11) 0.08090(11) 0.6364(4)
C5_7 C 0.25449(11) 0.08558(11) 0.6133(4)
C6_9 C 0.21164(11) 0.05520(11) 0.5911(4)
H7_7 H 0.2636 0.1028 0.6386
C9_7 C 0.27044(11) 0.06443(11) 0.5525(4)
C10_9 C 0.17940(11) 0.04985(11) 0.5954(4)
N1_9 N 0.22773(9) 0.03393(9) 0.5375(3)
C12_9 C 0.07879(10) 0.13397(10) 0.9711(4)
H9_7 H 0.2902 0.0675 0.5335
C13_7 C 0.25636(11) 0.03869(11) 0.5210(4)
C14_9 C 0.15911(11) 0.06889(11) 0.5433(4)
N3_9 N 0.17113(10) 0.02460(9) 0.6499(3)
C16_9 C 0.08381(10) 0.16374(11) 0.9885(4)
N4_9 N 0.06610(9) 0.12419(9) 0.8692(3)
Cu1_9 Cu 0.046563(13) 0.083833(13) 0.86922(5)
C17_9 C 0.16827(11) 0.09655(11) 0.4809(4)
H17_7 H 0.2675 0.0238 0.4862
C18_9 C 0.12931(11) 0.06183(11) 0.5474(4)
C19_9 C 0.14242(11) 0.01809(11) 0.6490(4)
C20_9 C 0.07621(10) 0.18359(11) 0.9006(4)
C22_9 C 0.05916(11) 0.14368(11) 0.7827(4)
N5_9 N 0.00826(9) 0.10594(9) 0.8755(3)
N6_9 N 0.02924(9) 0.08246(9) 0.6703(3)
N7_9 N 0.02906(9) 0.04202(9) 0.8833(3)
N8_9 N 0.08412(9) 0.06067(9) 0.8463(3)
C23_9 C 0.12065(12) 0.03566(11) 0.5983(4)
H19_9 H 0.1154 0.0747 0.5161
H20_9 H 0.1365 0.0006 0.6848
C24_9 C 0.06384(11) 0.17324(11) 0.7969(4)
H21_9 H 0.0794 0.2037 0.9113
H22_9 H 0.0511 0.1368 0.7123
C25_9 C 0.00381(11) 0.12588(11) 0.9627(4)
C27_9 C 0.00025(10) 0.08564(10) 0.6833(4)
C28_9 C 0.03904(12) 0.06349(12) 0.5883(4)
C29_9 C 0.00042(11) 0.03494(11) 0.8824(4)
C30_9 C 0.04978(10) 0.02150(10) 0.8533(4)
C31_9 C 0.08032(10) 0.03173(11) 0.8732(4)
C32_9 C 0.11133(11) 0.07246(11) 0.8540(4)
H23_9 H 0.1010 0.0299 0.5988
H24_9 H 0.0587 0.1863 0.7370
H26_9 H 0.0593 0.0611 0.5796
C36_9 C 0.02074(12) 0.04739(12) 0.5166(4)
C39_9 C 0.10299(10) 0.01483(10) 0.9199(4)
H28_9 H 0.1140 0.0921 0.8328
C40_9 C 0.13557(11) 0.05628(11) 0.8924(4)
H30_9 H 0.0284 0.0352 0.4578
C47_9 C 0.13088(11) 0.02731(11) 0.9284(4)
H32_9 H 0.1543 0.0646 0.8939
H36_9 H 0.1465 0.0163 0.9582
O29_7 O 0.07428(7) 0.97832(7) 0.0215(3)
C38_9 C 0.04163(10) 0.99409(10) 0.8064(4)
C45_9 C 0.01170(10) 0.98709(11) 0.8067(4)
C46_9 C 0.06341(11) 0.97392(11) 0.7448(4)
C48_9 C 0.09815(11) 0.98520(11) 0.9768(4)
H35_9 H 0.0055 0.9688 0.7790
O27_7 O 0.07530(8) 0.98311(8) 0.6525(3)
O28_7 O 0.06735(8) 0.94843(7) 0.7837(3)
O30_7 O 0.12090(7) 0.96847(7) 0.9815(3)
C26_9 C 0.99235(10) 0.10810(10) 0.7742(4)
C33_9 C 0.98462(10) 0.14882(11) 0.9508(4)
C34_9 C 0.97243(11) 0.13121(10) 0.7575(4)
C35_9 C 0.97990(11) 0.06849(11) 0.6199(4)
C37_9 C 0.99108(12) 0.00723(11) 0.8480(4)
H27_9 H 0.9866 0.0489 0.9054
C41_9 C 0.96890(11) 0.15163(11) 0.8472(4)
C42_9 C 0.95449(11) 0.13394(11) 0.6446(4)
C43_9 C 0.99084(12) 0.04969(11) 0.5337(4)
C44_9 C 0.94716(11) 0.06824(11) 0.6471(4)
H31_9 H 0.9712 0.0021 0.8525
H33_9 H 0.9559 0.1673 0.8375
O21_9 O 0.96803(7) 0.13087(8) 0.5485(3)
O22_9 O 0.92773(7) 0.13982(7) 0.6569(3)
H34_9 H 0.9779 0.0386 0.4875
H8_10 H 0.1664 0.8802 0.0044
O12_10 O 0.09520(8) 0.87523(7) 0.1301(3)
O13_10 O 0.10774(8) 0.97375(8) 0.2349(3)
O14_2 O 0.12898(7) 0.91263(8) 0.2790(3)
O15_2 O 0.15524(8) 0.93023(8) 0.1313(3)
H10_10 H 0.1984 0.8410 0.0295
H11_10 H 0.0388 0.9205 0.0202
H13_10 H 0.0843 0.8712 0.1910
H14_10 H 0.0874 0.8671 0.0681
H15_10 H 0.0912 0.9832 0.2465
H16_10 H 0.1147 0.9684 0.3033
O1_10 O 0.12147(7) 0.96903(7) 0.4690(3)
O2_10 O 0.15494(7) 0.93662(8) 0.5235(3)
O3_10 O 0.11700(7) 0.89214(7) 0.7389(3)
O4_10 O 0.13575(7) 0.95324(7) 0.7519(3)
O5_10 O 0.05727(7) 0.89883(7) 0.6336(3)
O6_10 O 0.11308(7) 0.88814(7) 0.4836(3)
C1_10 C 0.14738(11) 0.95841(11) 0.4639(4)
C2_10 C 0.12411(10) 0.88860(11) 0.8461(4)
H1_10 H 0.1307 0.9490 0.8243
H2_10 H 0.1534 0.9464 0.7393
H3_10 H 0.0530 0.8900 0.5669
H4_10 H 0.0608 0.8853 0.6870
H5_10 H 0.0969 0.8768 0.4637
H6_10 H 0.1217 0.8935 0.4129
C3_10 C 0.16910(11) 0.97458(11) 0.3864(4)
C4_10 C 0.14242(11) 0.86164(11) 0.8723(4)
O10_10 O 0.11837(7) 0.90583(7) 0.9292(3)
C6_10 C 0.19480(11) 0.96164(11) 0.3411(4)
C7_10 C 0.16463(11) 0.86345(11) 0.9576(4)
C8_10 C 0.13987(10) 0.83515(10) 0.8085(4)
C10_10 C 0.20015(11) 0.92940(11) 0.3454(4)
N1_10 N 0.21607(9) 0.97773(9) 0.2875(3)
C11_10 C 0.18382(12) 0.84030(12) 0.9718(4)
C12_10 C 0.11603(10) 0.82879(10) 0.7211(4)
N2_10 N 0.15933(9) 0.81309(9) 0.8197(3)
O11_10 O 0.05454(7) 0.91668(7) 0.9808(3)
C14_10 C 0.18111(11) 0.90911(11) 0.2933(4)
N3_10 N 0.22540(9) 0.92113(10) 0.3999(3)
C15_10 C 0.18104(12) 0.81616(11) 0.8995(4)
C16_10 C 0.08626(11) 0.83381(10) 0.7385(4)
N4_10 N 0.12581(9) 0.81610(9) 0.6192(3)
Cu1_10 Cu 0.166167(13) 0.796563(13) 0.61922(5)
H12_10 H 0.0546 0.9270 0.9171
C17_10 C 0.15345(11) 0.91827(11) 0.2309(4)
C18_10 C 0.18817(11) 0.87931(11) 0.2974(4)
C19_10 C 0.23191(11) 0.89242(11) 0.3990(4)
H18_10 H 0.1949 0.8011 0.9061
C20_10 C 0.06641(11) 0.82621(10) 0.6506(4)
C21_10 C 0.07424(11) 0.84732(11) 0.8527(4)
C22_10 C 0.10632(11) 0.80916(11) 0.5327(4)
N5_10 N 0.14406(9) 0.75826(9) 0.6255(3)
N6_10 N 0.16754(9) 0.77924(9) 0.4203(3)
N7_10 N 0.20798(9) 0.77906(9) 0.6333(3)
N8_10 N 0.18933(9) 0.83412(9) 0.5963(3)
C23_10 C 0.21434(11) 0.87065(12) 0.3483(4)
H19_10 H 0.1753 0.8654 0.2661
H20_10 H 0.2494 0.8865 0.4348
C24_10 C 0.07676(11) 0.81384(11) 0.5469(4)
H21_10 H 0.0463 0.8294 0.6613
O19_10 O 0.05608(7) 0.86804(7) 0.8402(3)
O20_10 O 0.08376(7) 0.83723(7) 0.9487(3)
H22_10 H 0.1132 0.8011 0.4623
C25_10 C 0.12412(11) 0.75381(11) 0.7127(4)
C26_10 C 0.14190(10) 0.74235(10) 0.5242(4)
C27_10 C 0.16436(10) 0.75025(10) 0.4333(4)
C28_10 C 0.18651(12) 0.78904(12) 0.3383(4)
C29_10 C 0.21506(11) 0.75042(11) 0.6324(4)
C30_10 C 0.22850(10) 0.79978(10) 0.6033(4)
C31_10 C 0.21827(11) 0.83032(10) 0.6232(4)
C32_10 C 0.17754(11) 0.86133(11) 0.6040(4)
H23_10 H 0.2201 0.8510 0.3488
H24_10 H 0.0637 0.8087 0.4870
C33_10 C 0.10118(11) 0.73462(10) 0.7008(4)
H25_10 H 0.1261 0.7642 0.7833
C34_10 C 0.11879(10) 0.72243(11) 0.5075(4)
C35_10 C 0.18151(11) 0.72990(11) 0.3699(4)
H26_10 H 0.1889 0.8093 0.3296
C36_10 C 0.20261(12) 0.77074(12) 0.2666(4)
C37_10 C 0.24277(11) 0.74108(12) 0.5980(4)
H27_10 H 0.2011 0.7366 0.6554
C38_10 C 0.25591(10) 0.79163(10) 0.5564(4)
C39_10 C 0.23517(10) 0.85299(10) 0.6699(4)
H28_10 H 0.1579 0.8640 0.5828
C40_10 C 0.19372(11) 0.88557(11) 0.6424(4)
C41_10 C 0.09837(11) 0.71890(11) 0.5972(4)
H29_7 H 0.0876 0.7322 0.7618
C42_10 C 0.11606(11) 0.70449(11) 0.3946(4)
C43_10 C 0.20031(11) 0.74084(12) 0.2837(4)
C44_10 C 0.18176(11) 0.69716(11) 0.3971(4)
H30_10 H 0.2148 0.7784 0.2078
C45_10 C 0.26291(11) 0.76170(10) 0.5567(4)
H31_10 H 0.2479 0.7212 0.6025
C46_10 C 0.27608(11) 0.81341(11) 0.4948(4)
C47_10 C 0.22269(11) 0.88088(11) 0.6784(4)
C48_10 C 0.26480(11) 0.84815(11) 0.7268(4)
H32_10 H 0.1854 0.9043 0.6439
H33_10 H 0.0827 0.7059 0.5875
O21_10 O 0.11913(8) 0.71803(7) 0.2985(3)
O22_10 O 0.11018(7) 0.67773(7) 0.4069(3)
H34_10 H 0.2114 0.7279 0.2375
H35_10 H 0.2812 0.7555 0.5290
H36_10 H 0.2337 0.8965 0.7082
O27_8 O 0.26689(8) 0.82530(8) 0.4025(3)
O28_8 O 0.30157(7) 0.81735(8) 0.5337(3)
O29_8 O 0.27168(7) 0.82428(7) 0.7715(3)
O30_8 O 0.28153(7) 0.87090(7) 0.7315(3)
C26_11 C 0.00765(10) 0.39190(10) 0.7742(4)
C33_11 C 0.01538(10) 0.35118(11) 0.9508(4)
C34_11 C 0.02757(11) 0.36879(10) 0.7575(4)
C35_11 C 0.02010(11) 0.43151(11) 0.6199(4)
C37_11 C 0.00892(12) 0.49277(11) 0.8480(4)
H27_11 H 0.0134 0.4511 0.9054
C41_11 C 0.03110(11) 0.34837(11) 0.8472(4)
C42_11 C 0.04551(11) 0.36606(11) 0.6446(4)
C43_11 C 0.00916(12) 0.45031(11) 0.5337(4)
C44_11 C 0.05284(11) 0.43176(11) 0.6471(4)
H31_11 H 0.0288 0.4979 0.8525
H33_11 H 0.0441 0.3327 0.8375
O21_11 O 0.03197(7) 0.36913(8) 0.5485(3)
O22_11 O 0.07227(7) 0.36018(7) 0.6569(3)
H34_11 H 0.0221 0.4614 0.4875
O4_11 O 0.79676(7) 0.38575(7) 0.0019(3)
O9_4 O 0.80157(7) 0.31735(8) 0.0337(3)
C2_11 C 0.86140(11) 0.37411(10) 0.0961(4)
H1_11 H 0.8010 0.3807 0.0743
C4_11 C 0.88836(11) 0.39242(11) 0.1223(4)
O10_11 O 0.84417(7) 0.36837(7) 0.1792(3)
C7_11 C 0.88655(11) 0.41463(11) 0.2076(4)
C8_11 C 0.91485(10) 0.38987(10) 0.0585(4)
H8_11 H 0.8698 0.4164 0.2544
C11_11 C 0.90970(12) 0.43382(12) 0.2218(4)
N2_11 N 0.93691(9) 0.40933(9) 0.0697(3)
O11_11 O 0.83332(7) 0.30454(7) 0.2308(3)
O12_11 O 0.87477(7) 0.34520(8) 0.3801(3)
O13_11 O 0.77625(8) 0.35774(8) 0.4849(3)
O14_3 O 0.83737(8) 0.37898(7) 0.5290(3)
O15_3 O 0.81977(8) 0.40524(8) 0.3813(3)
O17_4 O 0.77168(7) 0.32428(7) 0.2715(3)
O18_4 O 0.78153(7) 0.37090(7) 0.2315(3)
H10_11 H 0.9090 0.4484 0.2795
C15_11 C 0.93384(11) 0.43104(12) 0.1495(4)
H11_11 H 0.8295 0.2888 0.2702
H12_11 H 0.8230 0.3046 0.1671
H13_11 H 0.8788 0.3343 0.4410
H14_11 H 0.8829 0.3374 0.3181
H15_11 H 0.7668 0.3412 0.4965
H16_11 H 0.7816 0.3647 0.5533
H18_11 H 0.9489 0.4449 0.1561
C21_11 C 0.90268(11) 0.32424(11) 0.1027(4)
O19_11 O 0.88196(7) 0.30608(7) 0.0902(3)
O20_11 O 0.91277(7) 0.33376(7) 0.1987(3)
H25_11 H 0.9858 0.3761 0.0333
O29_9 O 0.92572(7) 0.52168(7) 0.0215(3)
O1_11 O 0.78097(7) 0.37147(7) 0.7190(3)
O2_11 O 0.81338(8) 0.40494(7) 0.7735(3)
O3_11 O 0.85786(7) 0.36700(7) 0.9889(3)
O5_11 O 0.85117(7) 0.30727(7) 0.8836(3)
O6_11 O 0.86186(7) 0.36308(7) 0.7336(3)
O8_4 O 0.76689(8) 0.32530(8) 0.9025(3)
C1_11 C 0.79159(11) 0.39738(11) 0.7139(4)
H2_11 H 0.8036 0.4034 0.9893
H3_11 H 0.8600 0.3030 0.8169
H4_11 H 0.8647 0.3108 0.9370
H5_11 H 0.8732 0.3469 0.7137
H6_11 H 0.8565 0.3717 0.6629
C3_11 C 0.77542(11) 0.41910(11) 0.6364(4)
C5_8 C 0.74551(11) 0.41442(11) 0.6133(4)
C6_11 C 0.78836(11) 0.44480(11) 0.5911(4)
H7_8 H 0.7364 0.3972 0.6386
C9_8 C 0.72956(11) 0.43557(11) 0.5525(4)
C10_11 C 0.82060(11) 0.45015(11) 0.5954(4)
N1_11 N 0.77227(9) 0.46607(9) 0.5375(3)
C12_11 C 0.92121(10) 0.36603(10) 0.9711(4)
H9_8 H 0.7098 0.4325 0.5335
C13_8 C 0.74364(11) 0.46131(11) 0.5210(4)
C14_11 C 0.84089(11) 0.43111(11) 0.5433(4)
N3_11 N 0.82887(10) 0.47540(9) 0.6499(3)
C16_11 C 0.91619(10) 0.33626(11) 0.9885(4)
N4_11 N 0.93390(9) 0.37581(9) 0.8692(3)
Cu1_11 Cu 0.953437(13) 0.416167(13) 0.86922(5)
C17_11 C 0.83173(11) 0.40345(11) 0.4809(4)
H17_8 H 0.7325 0.4762 0.4862
C18_11 C 0.87069(11) 0.43817(11) 0.5474(4)
C19_11 C 0.85758(11) 0.48191(11) 0.6490(4)
C20_11 C 0.92379(10) 0.31641(11) 0.9006(4)
C22_11 C 0.94084(11) 0.35632(11) 0.7827(4)
N5_11 N 0.99174(9) 0.39406(9) 0.8755(3)
N6_11 N 0.97076(9) 0.41754(9) 0.6703(3)
N7_11 N 0.97094(9) 0.45798(9) 0.8833(3)
N8_11 N 0.91588(9) 0.43933(9) 0.8463(3)
C23_11 C 0.87935(12) 0.46434(11) 0.5983(4)
H19_11 H 0.8846 0.4253 0.5161
H20_11 H 0.8635 0.4994 0.6848
C24_11 C 0.93616(11) 0.32676(11) 0.7969(4)
H21_11 H 0.9206 0.2963 0.9113
H22_11 H 0.9489 0.3632 0.7123
C25_11 C 0.99619(11) 0.37412(11) 0.9627(4)
C27_11 C 0.99975(10) 0.41436(10) 0.6833(4)
C28_11 C 0.96096(12) 0.43651(12) 0.5883(4)
C29_11 C 0.99958(11) 0.46506(11) 0.8824(4)
C30_11 C 0.95022(10) 0.47850(10) 0.8533(4)
C31_11 C 0.91968(10) 0.46827(11) 0.8732(4)
C32_11 C 0.88867(11) 0.42754(11) 0.8540(4)
H23_11 H 0.8990 0.4701 0.5988
H24_11 H 0.9413 0.3137 0.7370
H26_11 H 0.9407 0.4389 0.5796
C36_11 C 0.97926(12) 0.45261(12) 0.5166(4)
C38_11 C 0.95837(10) 0.50591(10) 0.8064(4)
C39_11 C 0.89701(10) 0.48517(10) 0.9199(4)
H28_11 H 0.8860 0.4079 0.8328
C40_11 C 0.86443(11) 0.44372(11) 0.8924(4)
H30_11 H 0.9716 0.4648 0.4578
C45_11 C 0.98830(10) 0.51291(11) 0.8067(4)
C46_11 C 0.93659(11) 0.52608(11) 0.7448(4)
C47_11 C 0.86912(11) 0.47269(11) 0.9284(4)
C48_11 C 0.90185(11) 0.51480(11) 0.9768(4)
H32_11 H 0.8457 0.4354 0.8939
H35_11 H 0.9945 0.5312 0.7790
H36_11 H 0.8535 0.4837 0.9582
O27_9 O 0.92470(8) 0.51689(8) 0.6525(3)
O28_9 O 0.93265(8) 0.55157(7) 0.7837(3)
O30_9 O 0.87910(7) 0.53153(7) 0.9815(3)
H8_12 H 0.8336 0.6198 0.0044
O12_12 O 0.90480(8) 0.62477(7) 0.1301(3)
O13_12 O 0.89226(8) 0.52625(8) 0.2349(3)
O14_4 O 0.87102(7) 0.58737(8) 0.2790(3)
O15_4 O 0.84476(8) 0.56977(8) 0.1313(3)
H10_12 H 0.8016 0.6590 0.0295
H11_12 H 0.9612 0.5795 0.0202
H13_12 H 0.9157 0.6288 0.1910
H14_12 H 0.9126 0.6329 0.0681
H15_12 H 0.9088 0.5168 0.2465
H16_12 H 0.8853 0.5316 0.3033
O1_12 O 0.87853(7) 0.53097(7) 0.4690(3)
O2_12 O 0.84506(7) 0.56338(8) 0.5235(3)
O3_12 O 0.88300(7) 0.60786(7) 0.7389(3)
O4_12 O 0.86425(7) 0.54676(7) 0.7519(3)
O5_12 O 0.94273(7) 0.60117(7) 0.6336(3)
O6_12 O 0.88692(7) 0.61186(7) 0.4836(3)
C1_12 C 0.85262(11) 0.54159(11) 0.4639(4)
C2_12 C 0.87589(10) 0.61140(11) 0.8461(4)
H1_12 H 0.8693 0.5510 0.8243
H2_12 H 0.8466 0.5536 0.7393
H3_12 H 0.9470 0.6100 0.5669
H4_12 H 0.9392 0.6147 0.6870
H5_12 H 0.9031 0.6232 0.4637
H6_12 H 0.8783 0.6065 0.4129
C3_12 C 0.83090(11) 0.52542(11) 0.3864(4)
C4_12 C 0.85758(11) 0.63836(11) 0.8723(4)
O10_12 O 0.88163(7) 0.59417(7) 0.9292(3)
C5_9 C 0.83558(11) 0.49551(11) 0.3633(4)
C6_12 C 0.80520(11) 0.53836(11) 0.3411(4)
C7_12 C 0.83537(11) 0.63655(11) 0.9576(4)
C8_12 C 0.86013(10) 0.66485(10) 0.8085(4)
H7_9 H 0.8528 0.4864 0.3886
C9_9 C 0.81443(11) 0.47956(11) 0.3025(4)
C10_12 C 0.79985(11) 0.57060(11) 0.3454(4)
N1_12 N 0.78393(9) 0.52227(9) 0.2875(3)
C11_12 C 0.81618(12) 0.65970(12) 0.9718(4)
C12_12 C 0.88397(10) 0.67121(10) 0.7211(4)
N2_12 N 0.84067(9) 0.68691(9) 0.8197(3)
O11_12 O 0.94546(7) 0.58332(7) 0.9808(3)
H9_9 H 0.8175 0.4598 0.2835
C13_9 C 0.78869(11) 0.49364(11) 0.2710(4)
C14_12 C 0.81889(11) 0.59089(11) 0.2933(4)
N3_12 N 0.77460(9) 0.57887(10) 0.3999(3)
C15_12 C 0.81896(12) 0.68384(11) 0.8995(4)
C16_12 C 0.91374(11) 0.66619(10) 0.7385(4)
N4_12 N 0.87419(9) 0.68390(9) 0.6192(3)
Cu1_12 Cu 0.833833(13) 0.703437(13) 0.61922(5)
H12_12 H 0.9454 0.5730 0.9171
C17_12 C 0.84655(11) 0.58173(11) 0.2309(4)
H17_9 H 0.7738 0.4825 0.2362
C18_12 C 0.81183(11) 0.62069(11) 0.2974(4)
C19_12 C 0.76809(11) 0.60758(11) 0.3990(4)
H18_12 H 0.8051 0.6989 0.9061
C20_12 C 0.93359(11) 0.67379(10) 0.6506(4)
C21_12 C 0.92576(11) 0.65268(11) 0.8527(4)
C22_12 C 0.89368(11) 0.69084(11) 0.5327(4)
N5_12 N 0.85594(9) 0.74174(9) 0.6255(3)
N6_12 N 0.83246(9) 0.72076(9) 0.4203(3)
N7_12 N 0.79202(9) 0.72094(9) 0.6333(3)
N8_12 N 0.81067(9) 0.66588(9) 0.5963(3)
C23_12 C 0.78566(11) 0.62935(12) 0.3483(4)
H19_12 H 0.8247 0.6346 0.2661
H20_12 H 0.7506 0.6135 0.4348
C24_12 C 0.92324(11) 0.68616(11) 0.5469(4)
H21_12 H 0.9537 0.6706 0.6613
O19_12 O 0.94392(7) 0.63196(7) 0.8402(3)
O20_12 O 0.91624(7) 0.66277(7) 0.9487(3)
H22_12 H 0.8868 0.6989 0.4623
C25_12 C 0.87588(11) 0.74619(11) 0.7127(4)
C26_12 C 0.85810(10) 0.75765(10) 0.5242(4)
C27_12 C 0.83564(10) 0.74975(10) 0.4333(4)
C28_12 C 0.81349(12) 0.71096(12) 0.3383(4)
C29_12 C 0.78494(11) 0.74958(11) 0.6324(4)
C30_12 C 0.77150(10) 0.70022(10) 0.6033(4)
C31_12 C 0.78173(11) 0.66968(10) 0.6232(4)
C32_12 C 0.82246(11) 0.63867(11) 0.6040(4)
H23_12 H 0.7799 0.6490 0.3488
H24_12 H 0.9363 0.6913 0.4870
C33_12 C 0.89882(11) 0.76538(10) 0.7008(4)
H25_12 H 0.8739 0.7358 0.7833
C34_12 C 0.88121(10) 0.77757(11) 0.5075(4)
C35_12 C 0.81849(11) 0.77010(11) 0.3699(4)
H26_12 H 0.8111 0.6907 0.3296
C36_12 C 0.79739(12) 0.72926(12) 0.2666(4)
C37_12 C 0.75723(11) 0.75892(12) 0.5980(4)
H27_12 H 0.7989 0.7634 0.6554
C38_12 C 0.74409(10) 0.70837(10) 0.5564(4)
C39_12 C 0.76483(10) 0.64701(10) 0.6699(4)
H28_12 H 0.8421 0.6360 0.5828
C40_12 C 0.80628(11) 0.61443(11) 0.6424(4)
C41_12 C 0.90163(11) 0.78110(11) 0.5972(4)
H29_8 H 0.9124 0.7678 0.7618
C42_12 C 0.88394(11) 0.79551(11) 0.3946(4)
C43_12 C 0.79969(11) 0.75916(12) 0.2837(4)
C44_12 C 0.81824(11) 0.80284(11) 0.3971(4)
H30_12 H 0.7852 0.7216 0.2078
C45_12 C 0.73709(11) 0.73830(10) 0.5567(4)
H31_12 H 0.7521 0.7788 0.6025
C46_12 C 0.72392(11) 0.68659(11) 0.4948(4)
C47_12 C 0.77731(11) 0.61912(11) 0.6784(4)
C48_12 C 0.73520(11) 0.65185(11) 0.7268(4)
H32_12 H 0.8146 0.5957 0.6439
H33_12 H 0.9173 0.7941 0.5875
O21_12 O 0.88087(8) 0.78197(7) 0.2985(3)
O22_12 O 0.88982(7) 0.82227(7) 0.4069(3)
H34_12 H 0.7886 0.7721 0.2375
H35_12 H 0.7188 0.7445 0.5290
H36_12 H 0.7663 0.6035 0.7082
O27_10 O 0.73311(8) 0.67470(8) 0.4025(3)
O28_10 O 0.69843(7) 0.68265(8) 0.5337(3)
O29_10 O 0.72832(7) 0.67572(7) 0.7715(3)
O30_10 O 0.71847(7) 0.62910(7) 0.7315(3)
O14_5 O 0.66263(8) 0.62102(7) 0.0290(3)
H16_13 H 0.7184 0.6353 0.0533
O1_13 O 0.71903(7) 0.62853(7) 0.2190(3)
O2_13 O 0.68662(8) 0.59506(7) 0.2735(3)
O3_13 O 0.64214(7) 0.63300(7) 0.4889(3)
O4_13 O 0.70324(7) 0.61425(7) 0.5019(3)
O5_13 O 0.64883(7) 0.69273(7) 0.3836(3)
O6_13 O 0.63814(7) 0.63692(7) 0.2336(3)
C1_13 C 0.70841(11) 0.60262(11) 0.2139(4)
C2_13 C 0.63860(11) 0.62589(10) 0.5961(4)
H1_13 H 0.6990 0.6193 0.5743
H2_13 H 0.6964 0.5966 0.4893
H3_13 H 0.6400 0.6970 0.3169
H4_13 H 0.6353 0.6892 0.4370
H5_13 H 0.6268 0.6531 0.2137
H6_13 H 0.6435 0.6283 0.1629
C3_13 C 0.72458(11) 0.58090(11) 0.1364(4)
C4_13 C 0.61164(11) 0.60758(11) 0.6223(4)
O10_13 O 0.65583(7) 0.63163(7) 0.6792(3)
C5_10 C 0.75449(11) 0.58558(11) 0.1133(4)
C6_13 C 0.71164(11) 0.55520(11) 0.0911(4)
C7_13 C 0.61345(11) 0.58537(11) 0.7076(4)
C8_13 C 0.58515(10) 0.61013(10) 0.5585(4)
H7_10 H 0.7636 0.6028 0.1386
C9_10 C 0.77044(11) 0.56443(11) 0.0525(4)
C10_13 C 0.67940(11) 0.54985(11) 0.0954(4)
N1_13 N 0.72773(9) 0.53393(9) 0.0375(3)
H8_13 H 0.6302 0.5836 0.7544
C11_13 C 0.59030(12) 0.56618(12) 0.7218(4)
C12_13 C 0.57879(10) 0.63397(10) 0.4711(4)
N2_13 N 0.56309(9) 0.59067(9) 0.5697(3)
O11_13 O 0.66668(7) 0.69546(7) 0.7308(3)
O12_13 O 0.62523(7) 0.65480(8) 0.8801(3)
O13_13 O 0.72375(8) 0.64226(8) 0.9849(3)
O15_5 O 0.68023(8) 0.59476(8) 0.8813(3)
H9_10 H 0.7902 0.5675 0.0335
C13_10 C 0.75636(11) 0.53869(11) 0.0210(4)
C14_13 C 0.65911(11) 0.56889(11) 0.0433(4)
N3_13 N 0.67113(10) 0.52460(9) 0.1499(3)
H10_13 H 0.5910 0.5516 0.7795
C15_13 C 0.56616(11) 0.56896(12) 0.6495(4)
C16_13 C 0.58381(10) 0.66374(11) 0.4885(4)
N4_13 N 0.56610(9) 0.62419(9) 0.3692(3)
Cu1_13 Cu 0.546563(13) 0.583833(13) 0.36922(5)
H11_13 H 0.6705 0.7112 0.7702
H12_13 H 0.6770 0.6954 0.6671
H13_13 H 0.6212 0.6657 0.9410
H14_13 H 0.6171 0.6626 0.8181
H15_13 H 0.7332 0.6588 0.9965
C18_13 C 0.62931(11) 0.56183(11) 0.0474(4)
C19_13 C 0.64242(11) 0.51809(11) 0.1490(4)
H18_13 H 0.5511 0.5551 0.6561
C20_13 C 0.57621(10) 0.68359(11) 0.4006(4)
C21_13 C 0.59732(11) 0.67576(11) 0.6027(4)
C22_13 C 0.55916(11) 0.64368(11) 0.2827(4)
N5_13 N 0.50826(9) 0.60594(9) 0.3755(3)
N6_13 N 0.52924(9) 0.58246(9) 0.1703(3)
N7_13 N 0.52906(9) 0.54202(9) 0.3833(3)
N8_13 N 0.58412(9) 0.56067(9) 0.3463(3)
C23_13 C 0.62065(12) 0.53566(11) 0.0983(4)
H19_13 H 0.6154 0.5747 0.0161
H20_13 H 0.6365 0.5006 0.1848
C24_13 C 0.56384(11) 0.67324(11) 0.2969(4)
H21_13 H 0.5794 0.7037 0.4113
O19_13 O 0.61804(7) 0.69392(7) 0.5902(3)
O20_13 O 0.58723(7) 0.66624(7) 0.6987(3)
H22_13 H 0.5511 0.6368 0.2123
C25_13 C 0.50381(11) 0.62588(11) 0.4627(4)
C26_13 C 0.49235(10) 0.60810(10) 0.2742(4)
C27_13 C 0.50025(10) 0.58564(10) 0.1833(4)
C28_13 C 0.53904(12) 0.56349(12) 0.0883(4)
C29_13 C 0.50042(11) 0.53494(11) 0.3824(4)
C30_13 C 0.54978(10) 0.52150(10) 0.3533(4)
C31_13 C 0.58032(10) 0.53173(11) 0.3732(4)
C32_13 C 0.61133(11) 0.57246(11) 0.3540(4)
H23_13 H 0.6010 0.5299 0.0988
H24_13 H 0.5587 0.6863 0.2370
C33_13 C 0.48462(10) 0.64882(11) 0.4508(4)
H25_13 H 0.5142 0.6239 0.5333
C34_13 C 0.47243(11) 0.63121(10) 0.2575(4)
C35_13 C 0.47990(11) 0.56849(11) 0.1199(4)
H26_13 H 0.5593 0.5611 0.0796
C36_13 C 0.52074(12) 0.54739(12) 0.0166(4)
C37_13 C 0.49108(12) 0.50723(11) 0.3480(4)
H27_13 H 0.4866 0.5489 0.4054
C38_13 C 0.54163(10) 0.49409(10) 0.3064(4)
C39_13 C 0.60299(10) 0.51483(10) 0.4199(4)
H28_13 H 0.6140 0.5921 0.3328
C40_13 C 0.63557(11) 0.55628(11) 0.3924(4)
C41_13 C 0.46890(11) 0.65163(11) 0.3472(4)
H29_9 H 0.4822 0.6624 0.5118
C42_13 C 0.45449(11) 0.63394(11) 0.1446(4)
C43_13 C 0.49084(12) 0.54969(11) 0.0337(4)
C44_13 C 0.44716(11) 0.56824(11) 0.1471(4)
C45_13 C 0.51170(10) 0.48709(11) 0.3067(4)
H31_13 H 0.4712 0.5021 0.3525
C46_13 C 0.56341(11) 0.47392(11) 0.2448(4)
C47_13 C 0.63088(11) 0.52731(11) 0.4284(4)
C48_13 C 0.59815(11) 0.48520(11) 0.4768(4)
H32_13 H 0.6543 0.5646 0.3939
H33_13 H 0.4559 0.6673 0.3375
O21_13 O 0.46803(7) 0.63087(8) 0.0485(3)
O22_13 O 0.42773(7) 0.63982(7) 0.1569(3)
H35_13 H 0.5055 0.4688 0.2790
H36_13 H 0.6465 0.5163 0.4582
O27_11 O 0.57530(8) 0.48311(8) 0.1525(3)
O28_11 O 0.56735(8) 0.44843(7) 0.2837(3)
O29_11 O 0.57428(7) 0.47832(7) 0.5215(3)
O30_11 O 0.62090(7) 0.46847(7) 0.4815(3)
C17_13 C 0.66827(11) 0.59655(11) 0.9809(4)
H17_10 H 0.7675 0.5238 0.9862
H30_13 H 0.5284 0.5352 0.9578
H34_13 H 0.4779 0.5386 0.9875
O2_14 O 0.65494(7) 0.43662(8) 0.0235(3)
O3_14 O 0.61700(7) 0.39214(7) 0.2389(3)
O4_14 O 0.63575(7) 0.45324(7) 0.2519(3)
O5_14 O 0.55727(7) 0.39883(7) 0.1336(3)
C2_14 C 0.62411(10) 0.38860(11) 0.3461(4)
H1_14 H 0.6307 0.4490 0.3243
H2_14 H 0.6534 0.4464 0.2393
H3_14 H 0.5530 0.3900 0.0669
H4_14 H 0.5608 0.3853 0.1870
C4_14 C 0.64242(11) 0.36164(11) 0.3723(4)
O10_14 O 0.61837(7) 0.40583(7) 0.4292(3)
C7_14 C 0.66463(11) 0.36345(11) 0.4576(4)
C8_14 C 0.63987(10) 0.33515(10) 0.3085(4)
H8_14 H 0.6664 0.3802 0.5044
C11_14 C 0.68382(12) 0.34030(12) 0.4718(4)
C12_14 C 0.61603(10) 0.32879(10) 0.2211(4)
N2_14 N 0.65933(9) 0.31309(9) 0.3197(3)
O11_14 O 0.55454(7) 0.41668(7) 0.4808(3)
O12_14 O 0.59520(8) 0.37523(7) 0.6301(3)
O13_14 O 0.60774(8) 0.47375(8) 0.7349(3)
O14_6 O 0.62898(7) 0.41263(8) 0.7790(3)
O15_6 O 0.65524(8) 0.43023(8) 0.6313(3)
H10_14 H 0.6984 0.3410 0.5295
C15_14 C 0.68104(12) 0.31616(11) 0.3995(4)
C16_14 C 0.58626(11) 0.33381(10) 0.2385(4)
N4_14 N 0.62581(9) 0.31610(9) 0.1192(3)
Cu1_14 Cu 0.666167(13) 0.296563(13) 0.11922(5)
H11_14 H 0.5388 0.4205 0.5202
H12_14 H 0.5546 0.4270 0.4171
H13_14 H 0.5843 0.3712 0.6910
H14_14 H 0.5874 0.3671 0.5681
H15_14 H 0.5912 0.4832 0.7465
H16_14 H 0.6147 0.4684 0.8033
H18_14 H 0.6949 0.3011 0.4061
C20_14 C 0.56641(11) 0.32621(10) 0.1506(4)
C21_14 C 0.57424(11) 0.34732(11) 0.3527(4)
C22_14 C 0.60632(11) 0.30916(11) 0.0327(4)
N5_14 N 0.64406(9) 0.25826(9) 0.1255(3)
N7_14 N 0.70798(9) 0.27906(9) 0.1333(3)
N8_14 N 0.68933(9) 0.33412(9) 0.0963(3)
C24_14 C 0.57676(11) 0.31384(11) 0.0469(4)
H21_14 H 0.5463 0.3294 0.1613
O19_14 O 0.55608(7) 0.36804(7) 0.3402(3)
O20_14 O 0.58376(7) 0.33723(7) 0.4487(3)
C25_14 C 0.62412(11) 0.25381(11) 0.2127(4)
C26_14 C 0.64190(10) 0.24235(10) 0.0242(4)
C29_14 C 0.71506(11) 0.25042(11) 0.1324(4)
C30_14 C 0.72850(10) 0.29978(10) 0.1033(4)
C31_14 C 0.71827(11) 0.33032(10) 0.1232(4)
C32_14 C 0.67754(11) 0.36133(11) 0.1040(4)
C33_14 C 0.60118(11) 0.23462(10) 0.2008(4)
H25_14 H 0.6261 0.2642 0.2833
C34_14 C 0.61879(10) 0.22243(11) 0.0075(4)
C37_14 C 0.74277(11) 0.24108(12) 0.0980(4)
H27_14 H 0.7011 0.2366 0.1554
C38_14 C 0.75591(10) 0.29163(10) 0.0564(4)
C39_14 C 0.73517(10) 0.35299(10) 0.1699(4)
H28_14 H 0.6579 0.3640 0.0828
C40_14 C 0.69372(11) 0.38557(11) 0.1424(4)
C41_14 C 0.59837(11) 0.21890(11) 0.0972(4)
H29_10 H 0.5876 0.2322 0.2618
C45_14 C 0.76291(11) 0.26170(10) 0.0567(4)
H31_14 H 0.7479 0.2212 0.1025
C47_14 C 0.72269(11) 0.38088(11) 0.1784(4)
C48_14 C 0.76480(11) 0.34815(11) 0.2268(4)
H32_14 H 0.6854 0.4043 0.1439
H33_14 H 0.5827 0.2059 0.0875
H35_14 H 0.7812 0.2555 0.0290
H36_14 H 0.7337 0.3965 0.2082
O1_14 O 0.62147(7) 0.46903(7) 0.9690(3)
O6_14 O 0.61308(7) 0.38814(7) 0.9836(3)
C1_14 C 0.64738(11) 0.45841(11) 0.9639(4)
H5_14 H 0.5969 0.3768 0.9637
H6_14 H 0.6217 0.3935 0.9129
C3_14 C 0.66910(11) 0.47458(11) 0.8864(4)
C5_11 C 0.66442(11) 0.50449(11) 0.8633(4)
C6_14 C 0.69480(11) 0.46164(11) 0.8411(4)
H7_11 H 0.6472 0.5136 0.8886
C9_11 C 0.68557(11) 0.52044(11) 0.8025(4)
C10_14 C 0.70015(11) 0.42940(11) 0.8454(4)
N1_14 N 0.71607(9) 0.47773(9) 0.7875(3)
H9_11 H 0.6825 0.5402 0.7835
C13_11 C 0.71131(11) 0.50636(11) 0.7710(4)
C14_14 C 0.68111(11) 0.40911(11) 0.7933(4)
N3_14 N 0.72540(9) 0.42113(10) 0.8999(3)
C17_14 C 0.65345(11) 0.41827(11) 0.7309(4)
H17_11 H 0.7262 0.5175 0.7362
C18_14 C 0.68817(11) 0.37931(11) 0.7974(4)
C19_14 C 0.73191(11) 0.39242(11) 0.8990(4)
N6_14 N 0.66754(9) 0.27924(9) 0.9203(3)
C23_14 C 0.71434(11) 0.37065(12) 0.8483(4)
H19_14 H 0.6753 0.3654 0.7661
H20_14 H 0.7494 0.3865 0.9348
H22_14 H 0.6132 0.3011 0.9623
C27_14 C 0.66436(10) 0.25025(10) 0.9333(4)
C28_14 C 0.68651(12) 0.28904(12) 0.8383(4)
H23_14 H 0.7201 0.3510 0.8488
H24_14 H 0.5637 0.3087 0.9870
C35_14 C 0.68151(11) 0.22990(11) 0.8699(4)
H26_14 H 0.6889 0.3093 0.8296
C36_14 C 0.70261(12) 0.27074(12) 0.7666(4)
C42_14 C 0.61606(11) 0.20449(11) 0.8946(4)
C43_14 C 0.70031(11) 0.24084(12) 0.7837(4)
C44_14 C 0.68176(11) 0.19716(11) 0.8971(4)
H30_14 H 0.7148 0.2784 0.7078
C46_14 C 0.77608(11) 0.31341(11) 0.9948(4)
O21_14 O 0.61913(8) 0.21803(7) 0.7985(3)
O22_14 O 0.61018(7) 0.17773(7) 0.9069(3)
H34_14 H 0.7114 0.2279 0.7375
C38_15 C 0.45837(10) 0.00591(10) 0.3064(4)
C45_15 C 0.48830(10) 0.01291(11) 0.3067(4)
C46_15 C 0.43659(11) 0.02608(11) 0.2448(4)
C48_15 C 0.40185(11) 0.01480(11) 0.4768(4)
H35_15 H 0.4945 0.0312 0.2790
O27_12 O 0.42470(8) 0.01689(8) 0.1525(3)
O28_12 O 0.43265(8) 0.05157(7) 0.2837(3)
O29_12 O 0.42572(7) 0.02168(7) 0.5215(3)
O30_12 O 0.37910(7) 0.03153(7) 0.4815(3)
O14_7 O 0.33737(8) 0.87898(7) 0.0290(3)
H16_15 H 0.2816 0.8647 0.0533
O1_15 O 0.28097(7) 0.87147(7) 0.2190(3)
O2_15 O 0.31338(8) 0.90494(7) 0.2735(3)
O3_15 O 0.35786(7) 0.86700(7) 0.4889(3)
O4_15 O 0.29676(7) 0.88575(7) 0.5019(3)
O5_15 O 0.35117(7) 0.80727(7) 0.3836(3)
O6_15 O 0.36186(7) 0.86308(7) 0.2336(3)
C1_15 C 0.29159(11) 0.89738(11) 0.2139(4)
C2_15 C 0.36140(11) 0.87411(10) 0.5961(4)
H1_15 H 0.3010 0.8807 0.5743
H2_15 H 0.3036 0.9034 0.4893
H3_15 H 0.3600 0.8030 0.3169
H4_15 H 0.3647 0.8108 0.4370
H5_15 H 0.3732 0.8469 0.2137
H6_15 H 0.3565 0.8717 0.1629
C3_15 C 0.27542(11) 0.91910(11) 0.1364(4)
C4_15 C 0.38836(11) 0.89242(11) 0.6223(4)
O10_15 O 0.34417(7) 0.86837(7) 0.6792(3)
C5_12 C 0.24551(11) 0.91442(11) 0.1133(4)
C6_15 C 0.28836(11) 0.94480(11) 0.0911(4)
C7_15 C 0.38655(11) 0.91463(11) 0.7076(4)
C8_15 C 0.41485(10) 0.88987(10) 0.5585(4)
H7_12 H 0.2364 0.8972 0.1386
C9_12 C 0.22956(11) 0.93557(11) 0.0525(4)
C10_15 C 0.32060(11) 0.95015(11) 0.0954(4)
N1_15 N 0.27227(9) 0.96607(9) 0.0375(3)
H8_15 H 0.3698 0.9164 0.7544
C11_15 C 0.40970(12) 0.93382(12) 0.7218(4)
C12_15 C 0.42121(10) 0.86603(10) 0.4711(4)
N2_15 N 0.43691(9) 0.90933(9) 0.5697(3)
O11_15 O 0.33332(7) 0.80454(7) 0.7308(3)
O12_15 O 0.37477(7) 0.84520(8) 0.8801(3)
O13_15 O 0.27625(8) 0.85774(8) 0.9849(3)
O15_7 O 0.31977(8) 0.90524(8) 0.8813(3)
H9_12 H 0.2098 0.9325 0.0335
C13_12 C 0.24364(11) 0.96131(11) 0.0210(4)
C14_15 C 0.34089(11) 0.93111(11) 0.0433(4)
N3_15 N 0.32887(10) 0.97540(9) 0.1499(3)
H10_15 H 0.4090 0.9484 0.7795
C15_15 C 0.43384(11) 0.93104(12) 0.6495(4)
C16_15 C 0.41619(10) 0.83626(11) 0.4885(4)
N4_15 N 0.43390(9) 0.87581(9) 0.3692(3)
Cu1_15 Cu 0.453437(13) 0.916167(13) 0.36922(5)
H11_15 H 0.3295 0.7888 0.7702
H12_15 H 0.3230 0.8046 0.6671
H13_15 H 0.3788 0.8343 0.9410
H14_15 H 0.3829 0.8374 0.8181
H15_15 H 0.2668 0.8412 0.9965
C18_15 C 0.37069(11) 0.93817(11) 0.0474(4)
C19_15 C 0.35758(11) 0.98191(11) 0.1490(4)
H18_15 H 0.4489 0.9449 0.6561
C20_15 C 0.42379(10) 0.81641(11) 0.4006(4)
C21_15 C 0.40268(11) 0.82424(11) 0.6027(4)
C22_15 C 0.44084(11) 0.85632(11) 0.2827(4)
N5_15 N 0.49174(9) 0.89406(9) 0.3755(3)
N6_15 N 0.47076(9) 0.91754(9) 0.1703(3)
N7_15 N 0.47094(9) 0.95798(9) 0.3833(3)
N8_15 N 0.41588(9) 0.93933(9) 0.3463(3)
C23_15 C 0.37935(12) 0.96434(11) 0.0983(4)
H19_15 H 0.3846 0.9253 0.0161
H20_15 H 0.3635 0.9994 0.1848
C24_15 C 0.43616(11) 0.82676(11) 0.2969(4)
H21_15 H 0.4206 0.7963 0.4113
O19_15 O 0.38196(7) 0.80608(7) 0.5902(3)
O20_15 O 0.41277(7) 0.83376(7) 0.6987(3)
H22_15 H 0.4489 0.8632 0.2123
C25_15 C 0.49619(11) 0.87412(11) 0.4627(4)
C26_15 C 0.50765(10) 0.89190(10) 0.2742(4)
C27_15 C 0.49975(10) 0.91436(10) 0.1833(4)
C28_15 C 0.46096(12) 0.93651(12) 0.0883(4)
C29_15 C 0.49958(11) 0.96506(11) 0.3824(4)
C30_15 C 0.45022(10) 0.97850(10) 0.3533(4)
C31_15 C 0.41968(10) 0.96827(11) 0.3732(4)
C32_15 C 0.38867(11) 0.92754(11) 0.3540(4)
H23_15 H 0.3990 0.9701 0.0988
H24_15 H 0.4413 0.8137 0.2370
C33_15 C 0.51538(10) 0.85118(11) 0.4508(4)
H25_15 H 0.4858 0.8761 0.5333
C34_15 C 0.52757(11) 0.86879(10) 0.2575(4)
C35_15 C 0.52010(11) 0.93151(11) 0.1199(4)
H26_15 H 0.4407 0.9389 0.0796
C36_15 C 0.47926(12) 0.95261(12) 0.0166(4)
C37_15 C 0.50892(12) 0.99277(11) 0.3480(4)
H27_15 H 0.5134 0.9511 0.4054
C39_15 C 0.39701(10) 0.98517(10) 0.4199(4)
H28_15 H 0.3860 0.9079 0.3328
C40_15 C 0.36443(11) 0.94372(11) 0.3924(4)
C41_15 C 0.53110(11) 0.84837(11) 0.3472(4)
H29_11 H 0.5178 0.8376 0.5118
C42_15 C 0.54551(11) 0.86606(11) 0.1446(4)
C43_15 C 0.50916(12) 0.95031(11) 0.0337(4)
C44_15 C 0.55284(11) 0.93176(11) 0.1471(4)
H31_15 H 0.5288 0.9979 0.3525
C47_15 C 0.36912(11) 0.97269(11) 0.4284(4)
H32_15 H 0.3457 0.9354 0.3939
H33_15 H 0.5441 0.8327 0.3375
O21_15 O 0.53197(7) 0.86913(8) 0.0485(3)
O22_15 O 0.57227(7) 0.86018(7) 0.1569(3)
H36_15 H 0.3535 0.9837 0.4582
C17_15 C 0.33173(11) 0.90345(11) 0.9809(4)
H17_12 H 0.2325 0.9762 0.9862
H30_15 H 0.4716 0.9648 0.9578
H34_15 H 0.5221 0.9614 0.9875
O2_16 O 0.34506(7) 0.06338(8) 0.0235(3)
O3_16 O 0.38300(7) 0.10786(7) 0.2389(3)
O4_16 O 0.36425(7) 0.04676(7) 0.2519(3)
O5_16 O 0.44273(7) 0.10117(7) 0.1336(3)
C2_16 C 0.37589(10) 0.11140(11) 0.3461(4)
H1_16 H 0.3693 0.0510 0.3243
H2_16 H 0.3466 0.0536 0.2393
H3_16 H 0.4470 0.1100 0.0669
H4_16 H 0.4392 0.1147 0.1870
C4_16 C 0.35758(11) 0.13836(11) 0.3723(4)
O10_16 O 0.38163(7) 0.09417(7) 0.4292(3)
C7_16 C 0.33537(11) 0.13655(11) 0.4576(4)
C8_16 C 0.36013(10) 0.16485(10) 0.3085(4)
H8_16 H 0.3336 0.1198 0.5044
C11_16 C 0.31618(12) 0.15970(12) 0.4718(4)
C12_16 C 0.38397(10) 0.17121(10) 0.2211(4)
N2_16 N 0.34067(9) 0.18691(9) 0.3197(3)
O11_16 O 0.44546(7) 0.08332(7) 0.4808(3)
O12_16 O 0.40480(8) 0.12477(7) 0.6301(3)
O13_16 O 0.39226(8) 0.02625(8) 0.7349(3)
O14_8 O 0.37102(7) 0.08737(8) 0.7790(3)
O15_8 O 0.34476(8) 0.06977(8) 0.6313(3)
H10_16 H 0.3016 0.1590 0.5295
C15_16 C 0.31896(12) 0.18384(11) 0.3995(4)
C16_16 C 0.41374(11) 0.16619(10) 0.2385(4)
N4_16 N 0.37419(9) 0.18390(9) 0.1192(3)
Cu1_16 Cu 0.333833(13) 0.203437(13) 0.11922(5)
H11_16 H 0.4612 0.0795 0.5202
H12_16 H 0.4454 0.0730 0.4171
H13_16 H 0.4157 0.1288 0.6910
H14_16 H 0.4126 0.1329 0.5681
H15_16 H 0.4088 0.0168 0.7465
H16_16 H 0.3853 0.0316 0.8033
H18_16 H 0.3051 0.1989 0.4061
C20_16 C 0.43359(11) 0.17379(10) 0.1506(4)
C21_16 C 0.42576(11) 0.15268(11) 0.3527(4)
C22_16 C 0.39368(11) 0.19084(11) 0.0327(4)
N5_16 N 0.35594(9) 0.24174(9) 0.1255(3)
N7_16 N 0.29202(9) 0.22094(9) 0.1333(3)
N8_16 N 0.31067(9) 0.16588(9) 0.0963(3)
C24_16 C 0.42324(11) 0.18616(11) 0.0469(4)
H21_16 H 0.4537 0.1706 0.1613
O19_16 O 0.44392(7) 0.13196(7) 0.3402(3)
O20_16 O 0.41624(7) 0.16277(7) 0.4487(3)
C25_16 C 0.37588(11) 0.24619(11) 0.2127(4)
C26_16 C 0.35810(10) 0.25765(10) 0.0242(4)
C29_16 C 0.28494(11) 0.24958(11) 0.1324(4)
C30_16 C 0.27150(10) 0.20022(10) 0.1033(4)
C31_16 C 0.28173(11) 0.16968(10) 0.1232(4)
C32_16 C 0.32246(11) 0.13867(11) 0.1040(4)
C33_16 C 0.39882(11) 0.26538(10) 0.2008(4)
H25_16 H 0.3739 0.2358 0.2833
C34_16 C 0.38121(10) 0.27757(11) 0.0075(4)
C37_16 C 0.25723(11) 0.25892(12) 0.0980(4)
H27_16 H 0.2989 0.2634 0.1554
C38_16 C 0.24409(10) 0.20837(10) 0.0564(4)
C39_16 C 0.26483(10) 0.14701(10) 0.1699(4)
H28_16 H 0.3421 0.1360 0.0828
C40_16 C 0.30628(11) 0.11443(11) 0.1424(4)
C41_16 C 0.40163(11) 0.28110(11) 0.0972(4)
H29_12 H 0.4124 0.2678 0.2618
C45_16 C 0.23709(11) 0.23830(10) 0.0567(4)
H31_16 H 0.2521 0.2788 0.1025
C47_16 C 0.27731(11) 0.11912(11) 0.1784(4)
C48_16 C 0.23520(11) 0.15185(11) 0.2268(4)
H32_16 H 0.3146 0.0957 0.1439
H33_16 H 0.4173 0.2941 0.0875
H35_16 H 0.2188 0.2445 0.0290
H36_16 H 0.2663 0.1035 0.2082
O1_16 O 0.37853(7) 0.03097(7) 0.9690(3)
O6_16 O 0.38692(7) 0.11186(7) 0.9836(3)
C1_16 C 0.35262(11) 0.04159(11) 0.9639(4)
H5_16 H 0.4031 0.1232 0.9637
H6_16 H 0.3783 0.1065 0.9129
C3_16 C 0.33090(11) 0.02542(11) 0.8864(4)
C6_16 C 0.30520(11) 0.03836(11) 0.8411(4)
C10_16 C 0.29985(11) 0.07060(11) 0.8454(4)
N1_16 N 0.28393(9) 0.02227(9) 0.7875(3)
C14_16 C 0.31889(11) 0.09089(11) 0.7933(4)
N3_16 N 0.27460(9) 0.07887(10) 0.8999(3)
C17_16 C 0.34655(11) 0.08173(11) 0.7309(4)
C18_16 C 0.31183(11) 0.12069(11) 0.7974(4)
C19_16 C 0.26809(11) 0.10758(11) 0.8990(4)
N6_16 N 0.33246(9) 0.22076(9) 0.9203(3)
C23_16 C 0.28566(11) 0.12935(12) 0.8483(4)
H19_16 H 0.3247 0.1346 0.7661
H20_16 H 0.2506 0.1135 0.9348
H22_16 H 0.3868 0.1989 0.9623
C27_16 C 0.33564(10) 0.24975(10) 0.9333(4)
C28_16 C 0.31349(12) 0.21096(12) 0.8383(4)
H23_16 H 0.2799 0.1490 0.8488
H24_16 H 0.4363 0.1913 0.9870
C35_16 C 0.31849(11) 0.27010(11) 0.8699(4)
H26_16 H 0.3111 0.1907 0.8296
C36_16 C 0.29739(12) 0.22926(12) 0.7666(4)
C42_16 C 0.38394(11) 0.29551(11) 0.8946(4)
C43_16 C 0.29969(11) 0.25916(12) 0.7837(4)
C44_16 C 0.31824(11) 0.30284(11) 0.8971(4)
H30_16 H 0.2852 0.2216 0.7078
C46_16 C 0.22392(11) 0.18659(11) 0.9948(4)
O21_16 O 0.38087(8) 0.28197(7) 0.7985(3)
O22_16 O 0.38982(7) 0.32227(7) 0.9069(3)
H34_16 H 0.2886 0.2721 0.7375
H29_13 H 0.0178 0.8376 0.9882
C5_13 C 0.83558(11) 0.99551(11) 0.6367(4)
H7_13 H 0.8528 0.9864 0.6114
C9_13 C 0.81443(11) 0.97956(11) 0.6975(4)
H9_13 H 0.8175 0.9598 0.7165
C13_13 C 0.78869(11) 0.99364(11) 0.7290(4)
H17_13 H 0.7738 0.9825 0.7638
H29_14 H 0.9822 0.6624 0.9882
C5_14 C 0.66442(11) 0.00449(11) 0.1367(4)
H7_14 H 0.6472 0.0136 0.1114
C9_14 C 0.68557(11) 0.02044(11) 0.1975(4)
H9_14 H 0.6825 0.0402 0.2165
C13_14 C 0.71131(11) 0.00636(11) 0.2290(4)
H17_14 H 0.7262 0.0175 0.2638
H29_15 H 0.9822 0.1624 0.0118
C5_15 C 0.16442(11) 0.00449(11) 0.3633(4)
H7_15 H 0.1472 0.0136 0.3886
C9_15 C 0.18557(11) 0.02044(11) 0.3025(4)
H9_15 H 0.1825 0.0402 0.2835
C13_15 C 0.21131(11) 0.00636(11) 0.2710(4)
H17_15 H 0.2262 0.0175 0.2362
H29_16 H 0.0178 0.3376 0.0118
C5_16 C 0.33558(11) 0.99551(11) 0.8633(4)
H7_16 H 0.3528 0.9864 0.8886
C9_16 C 0.31443(11) 0.97956(11) 0.8025(4)
H9_16 H 0.3175 0.9598 0.7835
C13_16 C 0.28869(11) 0.99364(11) 0.7710(4)
H17_16 H 0.2738 0.9825 0.7362
loop_
_geom_bond_atom_site_label_1
_geom_bond_atom_site_label_2
_geom_bond_site_symmetry_1
_geom_bond_site_symmetry_2
C34 C26 1_555 1_555
C41 C33 1_555 1_555
C42 C34 1_555 1_555
C43 C35 1_555 1_555
C44 C35 1_555 1_555
H31 C37 1_555 1_555
H33 C41 1_555 1_555
O21 C42 1_555 1_555
O22 C42 1_555 1_555
H34 C43 1_555 1_555
O25 C44 1_555 1_555
O26 C44 1_555 1_555
Nd4 O25 1_555 1_555
Nd5 O26 1_555 1_555
C34 C41 1_555 1_555
C46 C38 1_555 1_555
H35 C45 1_555 1_555
O27 C46 1_555 1_555
O28 C46 1_555 1_555
O30 C48 1_555 1_555
Nd6 O27 1_555 1_555
C38 C45 1_555 1_555
O28 Nd6 1_555 1_555
Nd7 O29 1_555 1_555
Nd1 O1 1_555 1_555
O1 C1 1_555 1_555
O2 Nd1 1_555 1_555
O3 Nd1 1_555 1_555
O5 Nd1 1_555 1_555
O6 Nd1 1_555 1_555
O7 Nd1 1_555 1_555
O8 Nd1 1_555 1_555
C1 O2 1_555 1_555
H3 O5 1_555 1_555
H4 O5 1_555 1_555
H5 O6 1_555 1_555
H6 O6 1_555 1_555
C3 C1 1_555 1_555
C5 C3 1_555 1_555
C6 C3 1_555 1_555
H7 C5 1_555 1_555
C9 C5 1_555 1_555
C10 C6 1_555 1_555
N1 C6 1_555 1_555
H9 C9 1_555 1_555
C13 C9 1_555 1_555
C14 C10 1_555 1_555
N3 C10 1_555 1_555
C16 C12 1_555 1_555
N4 C12 1_555 1_555
C17 C14 1_555 1_555
H17 C13 1_555 1_555
C18 C14 1_555 1_555
C19 N3 1_555 1_555
C20 C16 1_555 1_555
C22 N4 1_555 1_555
N5 Cu1 1_555 1_555
N6 Cu1 1_555 1_555
N7 Cu1 1_555 1_555
N8 Cu1 1_555 1_555
C23 C18 1_555 1_555
H19 C18 1_555 1_555
H20 C19 1_555 1_555
C24 C20 1_555 1_555
H21 C20 1_555 1_555
H22 C22 1_555 1_555
C25 N5 1_555 1_555
C27 N6 1_555 1_555
C28 N6 1_555 1_555
C29 N7 1_555 1_555
C30 N7 1_555 1_555
C31 N8 1_555 1_555
C32 N8 1_555 1_555
H23 C23 1_555 1_555
H24 C24 1_555 1_555
H26 C28 1_555 1_555
C36 C28 1_555 1_555
C39 C31 1_555 1_555
H28 C32 1_555 1_555
C40 C32 1_555 1_555
H30 C36 1_555 1_555
C47 C39 1_555 1_555
H32 C40 1_555 1_555
H36 C47 1_555 1_555
Nd3 O23 1_555 1_555
O23 C17 1_555 1_555
O24 C17 1_555 1_555
N1 C13 1_555 1_555
N4 Cu1 1_555 1_555
C19 C23 1_555 1_555
C22 C24 1_555 1_555
C30 C31 1_555 1_555
C40 C47 1_555 1_555
Nd3 O24 1_555 1_555
H1 O4 1_555 1_555
C4 C2 1_555 1_555
O10 C2 1_555 1_555
C7 C4 1_555 1_555
C8 C4 1_555 1_555
Nd3 O10 1_555 1_555
H8 C7 1_555 1_555
C11 C7 1_555 1_555
N2 C8 1_555 1_555
O11 Nd3 1_555 1_555
O12 Nd3 1_555 1_555
O13 Nd3 1_555 1_555
O16 Nd3 1_555 1_555
O17 Nd3 1_555 1_555
O18 Nd3 1_555 1_555
H10 C11 1_555 1_555
C15 C11 1_555 1_555
H11 O11 1_555 1_555
H12 O11 1_555 1_555
H13 O12 1_555 1_555
H14 O12 1_555 1_555
H15 O13 1_555 1_555
H16 O13 1_555 1_555
H18 C15 1_555 1_555
O19 C21 1_555 1_555
O20 C21 1_555 1_555
N2 C15 1_555 1_555
Nd6 O1_2 1_555 1_555
O1_2 C1_2 1_555 1_555
O2_2 Nd6 1_555 1_555
O3_2 Nd6 1_555 1_555
O4_2 Nd6 1_555 1_555
O5_2 Nd6 1_555 1_555
O6_2 Nd6 1_555 1_555
O7_2 Nd6 1_555 1_555
C1_2 O2_2 1_555 1_555
C2_2 O3_2 1_555 1_555
H1_2 O4_2 1_555 1_555
H2_2 O4_2 1_555 1_555
H3_2 O5_2 1_555 1_555
H4_2 O5_2 1_555 1_555
H5_2 O6_2 1_555 1_555
H6_2 O6_2 1_555 1_555
C3_2 C1_2 1_555 1_555
C4_2 C2_2 1_555 1_555
O10_2 C2_2 1_555 1_555
C6_2 C3_2 1_555 1_555
C7_2 C4_2 1_555 1_555
C8_2 C4_2 1_555 1_555
C10_2 C6_2 1_555 1_555
N1_2 C6_2 1_555 1_555
C11_2 C7_2 1_555 1_555
C12_2 C8_2 1_555 1_555
N2_2 C8_2 1_555 1_555
C14_2 C10_2 1_555 1_555
N3_2 C10_2 1_555 1_555
C15_2 C11_2 1_555 1_555
C16_2 C12_2 1_555 1_555
N4_2 C12_2 1_555 1_555
Cu1_2 N2_2 1_555 1_555
H12_2 O11_2 1_555 1_555
C17_2 C14_2 1_555 1_555
C18_2 C14_2 1_555 1_555
C19_2 N3_2 1_555 1_555
H18_2 C15_2 1_555 1_555
C20_2 C16_2 1_555 1_555
C21_2 C16_2 1_555 1_555
C22_2 N4_2 1_555 1_555
N5_2 Cu1_2 1_555 1_555
N6_2 Cu1_2 1_555 1_555
N7_2 Cu1_2 1_555 1_555
N8_2 Cu1_2 1_555 1_555
C23_2 C18_2 1_555 1_555
H19_2 C18_2 1_555 1_555
H20_2 C19_2 1_555 1_555
C24_2 C20_2 1_555 1_555
H21_2 C20_2 1_555 1_555
O19_2 C21_2 1_555 1_555
O20_2 C21_2 1_555 1_555
H22_2 C22_2 1_555 1_555
C25_2 N5_2 1_555 1_555
C26_2 N5_2 1_555 1_555
C27_2 N6_2 1_555 1_555
C28_2 N6_2 1_555 1_555
C29_2 N7_2 1_555 1_555
C30_2 N7_2 1_555 1_555
C31_2 N8_2 1_555 1_555
C32_2 N8_2 1_555 1_555
H23_2 C23_2 1_555 1_555
H24_2 C24_2 1_555 1_555
C33_2 C25_2 1_555 1_555
H25_2 C25_2 1_555 1_555
C34_2 C26_2 1_555 1_555
C35_2 C27_2 1_555 1_555
H26_2 C28_2 1_555 1_555
C36_2 C28_2 1_555 1_555
C37_2 C29_2 1_555 1_555
H27_2 C29_2 1_555 1_555
C38_2 C30_2 1_555 1_555
C39_2 C31_2 1_555 1_555
H28_2 C32_2 1_555 1_555
C40_2 C32_2 1_555 1_555
C41_2 C33_2 1_555 1_555
H29 C33_2 1_555 1_555
C42_2 C34_2 1_555 1_555
C43_2 C35_2 1_555 1_555
C44_2 C35_2 1_555 1_555
H30_2 C36_2 1_555 1_555
C45_2 C37_2 1_555 1_555
H31_2 C37_2 1_555 1_555
C46_2 C38_2 1_555 1_555
C47_2 C39_2 1_555 1_555
C48_2 C39_2 1_555 1_555
H32_2 C40_2 1_555 1_555
H33_2 C41_2 1_555 1_555
O21_2 C42_2 1_555 1_555
O22_2 C42_2 1_555 1_555
H34_2 C43_2 1_555 1_555
H35_2 C45_2 1_555 1_555
H36_2 C47_2 1_555 1_555
Nd7 O23_2 1_555 1_555
O23_2 C17_2 1_555 1_555
O24_2 C17_2 1_555 1_555
O25_2 C44_2 1_555 1_555
O26_2 C44_2 1_555 1_555
O27_2 C46_2 1_555 1_555
O28_2 C46_2 1_555 1_555
O29_2 C48_2 1_555 1_555
O30_2 C48_2 1_555 1_555
Nd4_2 O25_2 1_555 1_555
Nd5_2 O26_2 1_555 1_555
Nd6_2 O27_2 1_555 1_555
Nd7_2 O29_2 1_555 1_555
N2_2 C15_2 1_555 1_555
N4_2 Cu1_2 1_555 1_555
C19_2 C23_2 1_555 1_555
C22_2 C24_2 1_555 1_555
C26_2 C27_2 1_555 1_555
C30_2 C31_2 1_555 1_555
C34_2 C41_2 1_555 1_555
C36_2 C43_2 1_555 1_555
C38_2 C45_2 1_555 1_555
C40_2 C47_2 1_555 1_555
Nd7 O24_2 1_555 1_555
O28_2 Nd6_2 1_555 1_555
O30_2 Nd7_2 1_555 1_555
O12_2 Nd7 1_555 1_555
O13_2 Nd7 1_555 1_555
O16_2 Nd7 1_555 1_555
H13_2 O12_2 1_555 1_555
H14_2 O12_2 1_555 1_555
H15_2 O13_2 1_555 1_555
H16_2 O13_2 1_555 1_555
Nd1_2 O1_3 1_555 1_555
O1_3 C1_3 1_555 1_555
O2_3 Nd1_2 1_555 1_555
O3_3 Nd1_2 1_555 1_555
O5_3 Nd1_2 1_555 1_555
O6_3 Nd1_2 1_555 1_555
O7_3 Nd1_2 1_555 1_555
O8_2 Nd1_2 1_555 1_555
C1_3 O2_3 1_555 1_555
H3_3 O5_3 1_555 1_555
H4_3 O5_3 1_555 1_555
H5_3 O6_3 1_555 1_555
H6_3 O6_3 1_555 1_555
C3_3 C1_3 1_555 1_555
C5_2 C3_3 1_555 1_555
C6_3 C3_3 1_555 1_555
H7_2 C5_2 1_555 1_555
C9_2 C5_2 1_555 1_555
C10_3 C6_3 1_555 1_555
N1_3 C6_3 1_555 1_555
H9_2 C9_2 1_555 1_555
C13_2 C9_2 1_555 1_555
C14_3 C10_3 1_555 1_555
N3_3 C10_3 1_555 1_555
C16_3 C12_3 1_555 1_555
N4_3 C12_3 1_555 1_555
C17_3 C14_3 1_555 1_555
H17_2 C13_2 1_555 1_555
C18_3 C14_3 1_555 1_555
C19_3 N3_3 1_555 1_555
C20_3 C16_3 1_555 1_555
C22_3 N4_3 1_555 1_555
N5_3 Cu1_3 1_555 1_555
N6_3 Cu1_3 1_555 1_555
N7_3 Cu1_3 1_555 1_555
N8_3 Cu1_3 1_555 1_555
C23_3 C18_3 1_555 1_555
H19_3 C18_3 1_555 1_555
H20_3 C19_3 1_555 1_555
C24_3 C20_3 1_555 1_555
H21_3 C20_3 1_555 1_555
H22_3 C22_3 1_555 1_555
C25_3 N5_3 1_555 1_555
C27_3 N6_3 1_555 1_555
C28_3 N6_3 1_555 1_555
C29_3 N7_3 1_555 1_555
C30_3 N7_3 1_555 1_555
C31_3 N8_3 1_555 1_555
C32_3 N8_3 1_555 1_555
H23_3 C23_3 1_555 1_555
H24_3 C24_3 1_555 1_555
H26_3 C28_3 1_555 1_555
C36_3 C28_3 1_555 1_555
C38_3 C30_3 1_555 1_555
C39_3 C31_3 1_555 1_555
H28_3 C32_3 1_555 1_555
C40_3 C32_3 1_555 1_555
H30_3 C36_3 1_555 1_555
C46_3 C38_3 1_555 1_555
C47_3 C39_3 1_555 1_555
C48_3 C39_3 1_555 1_555
H32_3 C40_3 1_555 1_555
H35_3 C45_3 1_555 1_555
H36_3 C47_3 1_555 1_555
Nd3_2 O23_3 1_555 1_555
O23_3 C17_3 1_555 1_555
O24_3 C17_3 1_555 1_555
O27_3 C46_3 1_555 1_555
O28_3 C46_3 1_555 1_555
O30_3 C48_3 1_555 1_555
Nd6_3 O27_3 1_555 1_555
N1_3 C13_2 1_555 1_555
N4_3 Cu1_3 1_555 1_555
C19_3 C23_3 1_555 1_555
C22_3 C24_3 1_555 1_555
C30_3 C31_3 1_555 1_555
C38_3 C45_3 1_555 1_555
C40_3 C47_3 1_555 1_555
Nd3_2 O24_3 1_555 1_555
O28_3 Nd6_3 1_555 1_555
H1_3 O4_3 1_555 1_555
C4_3 C2_3 1_555 1_555
O10_3 C2_3 1_555 1_555
C7_3 C4_3 1_555 1_555
C8_3 C4_3 1_555 1_555
Nd3_2 O10_3 1_555 1_555
H8_3 C7_3 1_555 1_555
C11_3 C7_3 1_555 1_555
N2_3 C8_3 1_555 1_555
O11_3 Nd3_2 1_555 1_555
O12_3 Nd3_2 1_555 1_555
O13_3 Nd3_2 1_555 1_555
O16_3 Nd3_2 1_555 1_555
O17_2 Nd3_2 1_555 1_555
O18_2 Nd3_2 1_555 1_555
H10_3 C11_3 1_555 1_555
C15_3 C11_3 1_555 1_555
H11_3 O11_3 1_555 1_555
H12_3 O11_3 1_555 1_555
H13_3 O12_3 1_555 1_555
H14_3 O12_3 1_555 1_555
H15_3 O13_3 1_555 1_555
H16_3 O13_3 1_555 1_555
H18_3 C15_3 1_555 1_555
O19_3 C21_3 1_555 1_555
O20_3 C21_3 1_555 1_555
Nd7_3 O29_3 1_555 1_555
N2_3 C15_3 1_555 1_555
C34_3 C26_3 1_555 1_555
C41_3 C33_3 1_555 1_555
C42_3 C34_3 1_555 1_555
C43_3 C35_3 1_555 1_555
C44_3 C35_3 1_555 1_555
H31_3 C37_3 1_555 1_555
H33_3 C41_3 1_555 1_555
O21_3 C42_3 1_555 1_555
O22_3 C42_3 1_555 1_555
H34_3 C43_3 1_555 1_555
O25_3 C44_3 1_555 1_555
O26_3 C44_3 1_555 1_555
Nd4_3 O25_3 1_555 1_555
Nd5_3 O26_3 1_555 1_555
C34_3 C41_3 1_555 1_555
Nd6_3 O1_4 1_555 1_555
O1_4 C1_4 1_555 1_555
O2_4 Nd6_3 1_555 1_555
O3_4 Nd6_3 1_555 1_555
O4_4 Nd6_3 1_555 1_555
O5_4 Nd6_3 1_555 1_555
O6_4 Nd6_3 1_555 1_555
O7_4 Nd6_3 1_555 1_555
C1_4 O2_4 1_555 1_555
C2_4 O3_4 1_555 1_555
H1_4 O4_4 1_555 1_555
H2_4 O4_4 1_555 1_555
H3_4 O5_4 1_555 1_555
H4_4 O5_4 1_555 1_555
H5_4 O6_4 1_555 1_555
H6_4 O6_4 1_555 1_555
C3_4 C1_4 1_555 1_555
C4_4 C2_4 1_555 1_555
O10_4 C2_4 1_555 1_555
C5_3 C3_4 1_555 1_555
C6_4 C3_4 1_555 1_555
C7_4 C4_4 1_555 1_555
C8_4 C4_4 1_555 1_555
H7_3 C5_3 1_555 1_555
C9_3 C5_3 1_555 1_555
C10_4 C6_4 1_555 1_555
N1_4 C6_4 1_555 1_555
C11_4 C7_4 1_555 1_555
C12_4 C8_4 1_555 1_555
N2_4 C8_4 1_555 1_555
H9_3 C9_3 1_555 1_555
C13_3 C9_3 1_555 1_555
C14_4 C10_4 1_555 1_555
N3_4 C10_4 1_555 1_555
C15_4 C11_4 1_555 1_555
C16_4 C12_4 1_555 1_555
N4_4 C12_4 1_555 1_555
Cu1_4 N2_4 1_555 1_555
H12_4 O11_4 1_555 1_555
C17_4 C14_4 1_555 1_555
H17_3 C13_3 1_555 1_555
C18_4 C14_4 1_555 1_555
C19_4 N3_4 1_555 1_555
H18_4 C15_4 1_555 1_555
C20_4 C16_4 1_555 1_555
C21_4 C16_4 1_555 1_555
C22_4 N4_4 1_555 1_555
N5_4 Cu1_4 1_555 1_555
N6_4 Cu1_4 1_555 1_555
N7_4 Cu1_4 1_555 1_555
N8_4 Cu1_4 1_555 1_555
C23_4 C18_4 1_555 1_555
H19_4 C18_4 1_555 1_555
H20_4 C19_4 1_555 1_555
C24_4 C20_4 1_555 1_555
H21_4 C20_4 1_555 1_555
O19_4 C21_4 1_555 1_555
O20_4 C21_4 1_555 1_555
H22_4 C22_4 1_555 1_555
C25_4 N5_4 1_555 1_555
C26_4 N5_4 1_555 1_555
C27_4 N6_4 1_555 1_555
C28_4 N6_4 1_555 1_555
C29_4 N7_4 1_555 1_555
C30_4 N7_4 1_555 1_555
C31_4 N8_4 1_555 1_555
C32_4 N8_4 1_555 1_555
H23_4 C23_4 1_555 1_555
H24_4 C24_4 1_555 1_555
C33_4 C25_4 1_555 1_555
H25_4 C25_4 1_555 1_555
C34_4 C26_4 1_555 1_555
C35_4 C27_4 1_555 1_555
H26_4 C28_4 1_555 1_555
C36_4 C28_4 1_555 1_555
C37_4 C29_4 1_555 1_555
H27_4 C29_4 1_555 1_555
C38_4 C30_4 1_555 1_555
C39_4 C31_4 1_555 1_555
H28_4 C32_4 1_555 1_555
C40_4 C32_4 1_555 1_555
C41_4 C33_4 1_555 1_555
H29_2 C33_4 1_555 1_555
C42_4 C34_4 1_555 1_555
C43_4 C35_4 1_555 1_555
C44_4 C35_4 1_555 1_555
H30_4 C36_4 1_555 1_555
C45_4 C37_4 1_555 1_555
H31_4 C37_4 1_555 1_555
C46_4 C38_4 1_555 1_555
C47_4 C39_4 1_555 1_555
C48_4 C39_4 1_555 1_555
H32_4 C40_4 1_555 1_555
H33_4 C41_4 1_555 1_555
O21_4 C42_4 1_555 1_555
O22_4 C42_4 1_555 1_555
H34_4 C43_4 1_555 1_555
H35_4 C45_4 1_555 1_555
H36_4 C47_4 1_555 1_555
Nd7_3 O23_4 1_555 1_555
O23_4 C17_4 1_555 1_555
O24_4 C17_4 1_555 1_555
O25_4 C44_4 1_555 1_555
O26_4 C44_4 1_555 1_555
O27_4 C46_4 1_555 1_555
O28_4 C46_4 1_555 1_555
O29_4 C48_4 1_555 1_555
O30_4 C48_4 1_555 1_555
Nd4_4 O25_4 1_555 1_555
Nd5_4 O26_4 1_555 1_555
Nd6_4 O27_4 1_555 1_555
Nd7_4 O29_4 1_555 1_555
N1_4 C13_3 1_555 1_555
N2_4 C15_4 1_555 1_555
N4_4 Cu1_4 1_555 1_555
C19_4 C23_4 1_555 1_555
C22_4 C24_4 1_555 1_555
C26_4 C27_4 1_555 1_555
C30_4 C31_4 1_555 1_555
C34_4 C41_4 1_555 1_555
C36_4 C43_4 1_555 1_555
C38_4 C45_4 1_555 1_555
C40_4 C47_4 1_555 1_555
Nd7_3 O24_4 1_555 1_555
O28_4 Nd6_4 1_555 1_555
O30_4 Nd7_4 1_555 1_555
O12_4 Nd7_3 1_555 1_555
O13_4 Nd7_3 1_555 1_555
O16_4 Nd7_3 1_555 1_555
H13_4 O12_4 1_555 1_555
H14_4 O12_4 1_555 1_555
H15_4 O13_4 1_555 1_555
H16_4 O13_4 1_555 1_555
O24_5 C17_5 1_555 1_555
Nd7_4 O24_5 1_555 1_555
Nd6_4 O1_5 1_555 1_555
O1_5 C1_5 1_555 1_555
O2_5 Nd6_4 1_555 1_555
O3_5 Nd6_4 1_555 1_555
O4_5 Nd6_4 1_555 1_555
O5_5 Nd6_4 1_555 1_555
O6_5 Nd6_4 1_555 1_555
O7_5 Nd6_4 1_555 1_555
C1_5 O2_5 1_555 1_555
C2_5 O3_5 1_555 1_555
H1_5 O4_5 1_555 1_555
H2_5 O4_5 1_555 1_555
H3_5 O5_5 1_555 1_555
H4_5 O5_5 1_555 1_555
H5_5 O6_5 1_555 1_555
H6_5 O6_5 1_555 1_555
C3_5 C1_5 1_555 1_555
C4_5 C2_5 1_555 1_555
O10_5 C2_5 1_555 1_555
C5_4 C3_5 1_555 1_555
C6_5 C3_5 1_555 1_555
C7_5 C4_5 1_555 1_555
C8_5 C4_5 1_555 1_555
Nd7_4 O10_5 1_555 1_555
H7_4 C5_4 1_555 1_555
C9_4 C5_4 1_555 1_555
C10_5 C6_5 1_555 1_555
N1_5 C6_5 1_555 1_555
H8_5 C7_5 1_555 1_555
C11_5 C7_5 1_555 1_555
C12_5 C8_5 1_555 1_555
N2_5 C8_5 1_555 1_555
O11_5 Nd7_4 1_555 1_555
O12_5 Nd7_4 1_555 1_555
O13_5 Nd7_4 1_555 1_555
O16_5 Nd7_4 1_555 1_555
H9_4 C9_4 1_555 1_555
C13_4 C9_4 1_555 1_555
C14_5 C10_5 1_555 1_555
N3_5 C10_5 1_555 1_555
H10_5 C11_5 1_555 1_555
C15_5 C11_5 1_555 1_555
C16_5 C12_5 1_555 1_555
N4_5 C12_5 1_555 1_555
Cu1_5 N2_5 1_555 1_555
H11_5 O11_5 1_555 1_555
H12_5 O11_5 1_555 1_555
H13_5 O12_5 1_555 1_555
H14_5 O12_5 1_555 1_555
H15_5 O13_5 1_555 1_555
C18_5 C14_5 1_555 1_555
C19_5 N3_5 1_555 1_555
H18_5 C15_5 1_555 1_555
C20_5 C16_5 1_555 1_555
C21_5 C16_5 1_555 1_555
C22_5 N4_5 1_555 1_555
N5_5 Cu1_5 1_555 1_555
N6_5 Cu1_5 1_555 1_555
N7_5 Cu1_5 1_555 1_555
N8_5 Cu1_5 1_555 1_555
C23_5 C18_5 1_555 1_555
H19_5 C18_5 1_555 1_555
H20_5 C19_5 1_555 1_555
C24_5 C20_5 1_555 1_555
H21_5 C20_5 1_555 1_555
O19_5 C21_5 1_555 1_555
O20_5 C21_5 1_555 1_555
H22_5 C22_5 1_555 1_555
C25_5 N5_5 1_555 1_555
C26_5 N5_5 1_555 1_555
C27_5 N6_5 1_555 1_555
C28_5 N6_5 1_555 1_555
C29_5 N7_5 1_555 1_555
C30_5 N7_5 1_555 1_555
C31_5 N8_5 1_555 1_555
C32_5 N8_5 1_555 1_555
H23_5 C23_5 1_555 1_555
H24_5 C24_5 1_555 1_555
C33_5 C25_5 1_555 1_555
H25_5 C25_5 1_555 1_555
C34_5 C26_5 1_555 1_555
C35_5 C27_5 1_555 1_555
H26_5 C28_5 1_555 1_555
C36_5 C28_5 1_555 1_555
C37_5 C29_5 1_555 1_555
H27_5 C29_5 1_555 1_555
C38_5 C30_5 1_555 1_555
C39_5 C31_5 1_555 1_555
H28_5 C32_5 1_555 1_555
C40_5 C32_5 1_555 1_555
C41_5 C33_5 1_555 1_555
H29_3 C33_5 1_555 1_555
C42_5 C34_5 1_555 1_555
C43_5 C35_5 1_555 1_555
C44_5 C35_5 1_555 1_555
C45_5 C37_5 1_555 1_555
H31_5 C37_5 1_555 1_555
C46_5 C38_5 1_555 1_555
C47_5 C39_5 1_555 1_555
C48_5 C39_5 1_555 1_555
H32_5 C40_5 1_555 1_555
H33_5 C41_5 1_555 1_555
O21_5 C42_5 1_555 1_555
O22_5 C42_5 1_555 1_555
H35_5 C45_5 1_555 1_555
H36_5 C47_5 1_555 1_555
O25_5 C44_5 1_555 1_555
O26_5 C44_5 1_555 1_555
O27_5 C46_5 1_555 1_555
O28_5 C46_5 1_555 1_555
O29_5 C48_5 1_555 1_555
O30_5 C48_5 1_555 1_555
Nd4_5 O25_5 1_555 1_555
Nd6_5 O27_5 1_555 1_555
Nd7_5 O29_5 1_555 1_555
N1_5 C13_4 1_555 1_555
N2_5 C15_5 1_555 1_555
N4_5 Cu1_5 1_555 1_555
C19_5 C23_5 1_555 1_555
C22_5 C24_5 1_555 1_555
C26_5 C27_5 1_555 1_555
C30_5 C31_5 1_555 1_555
C34_5 C41_5 1_555 1_555
C36_5 C43_5 1_555 1_555
C38_5 C45_5 1_555 1_555
C40_5 C47_5 1_555 1_555
O28_5 Nd6_5 1_555 1_555
O30_5 Nd7_5 1_555 1_555
O1_6 C1_6 1_555 1_555
H5_6 O6_6 1_555 1_555
H6_6 O6_6 1_555 1_555
C3_6 C1_6 1_555 1_555
C5_5 C3_6 1_555 1_555
C6_6 C3_6 1_555 1_555
H7_5 C5_5 1_555 1_555
C9_5 C5_5 1_555 1_555
C10_6 C6_6 1_555 1_555
N1_6 C6_6 1_555 1_555
H9_5 C9_5 1_555 1_555
C13_5 C9_5 1_555 1_555
C14_6 C10_6 1_555 1_555
N3_6 C10_6 1_555 1_555
C17_6 C14_6 1_555 1_555
H17_5 C13_5 1_555 1_555
C18_6 C14_6 1_555 1_555
C19_6 N3_6 1_555 1_555
C23_6 C18_6 1_555 1_555
H19_6 C18_6 1_555 1_555
H20_6 C19_6 1_555 1_555
C27_6 N6_6 1_555 1_555
C28_6 N6_6 1_555 1_555
H23_6 C23_6 1_555 1_555
C35_6 C27_6 1_555 1_555
H26_6 C28_6 1_555 1_555
C36_6 C28_6 1_555 1_555
C43_6 C35_6 1_555 1_555
C44_6 C35_6 1_555 1_555
H30_6 C36_6 1_555 1_555
O21_6 C42_6 1_555 1_555
O22_6 C42_6 1_555 1_555
H34_6 C43_6 1_555 1_555
Nd7_5 O23_6 1_555 1_555
O23_6 C17_6 1_555 1_555
O24_6 C17_6 1_555 1_555
O26_6 C44_6 1_555 1_555
O8_2 C46_6 1_555 1_555
Nd5_6 O26_6 1_555 1_555
N1_6 C13_5 1_555 1_555
C19_6 C23_6 1_555 1_555
C36_6 C43_6 1_555 1_555
Nd7_5 O24_6 1_555 1_555
O2_6 Nd6_5 1_555 1_555
O3_6 Nd6_5 1_555 1_555
O4_6 Nd6_5 1_555 1_555
O5_6 Nd6_5 1_555 1_555
C2_6 O3_6 1_555 1_555
H1_6 O4_6 1_555 1_555
H2_6 O4_6 1_555 1_555
H3_6 O5_6 1_555 1_555
H4_6 O5_6 1_555 1_555
C4_6 C2_6 1_555 1_555
O10_6 C2_6 1_555 1_555
C7_6 C4_6 1_555 1_555
C8_6 C4_6 1_555 1_555
Nd7_5 O10_6 1_555 1_555
H8_6 C7_6 1_555 1_555
C11_6 C7_6 1_555 1_555
C12_6 C8_6 1_555 1_555
N2_6 C8_6 1_555 1_555
O11_6 Nd7_5 1_555 1_555
O12_6 Nd7_5 1_555 1_555
O13_6 Nd7_5 1_555 1_555
O16_6 Nd7_5 1_555 1_555
H10_6 C11_6 1_555 1_555
C15_6 C11_6 1_555 1_555
C16_6 C12_6 1_555 1_555
N4_6 C12_6 1_555 1_555
Cu1_6 N2_6 1_555 1_555
H11_6 O11_6 1_555 1_555
H12_6 O11_6 1_555 1_555
H13_6 O12_6 1_555 1_555
H14_6 O12_6 1_555 1_555
H15_6 O13_6 1_555 1_555
H16_6 O13_6 1_555 1_555
H18_6 C15_6 1_555 1_555
C20_6 C16_6 1_555 1_555
C21_6 C16_6 1_555 1_555
C22_6 N4_6 1_555 1_555
N5_6 Cu1_6 1_555 1_555
N7_6 Cu1_6 1_555 1_555
N8_6 Cu1_6 1_555 1_555
C24_6 C20_6 1_555 1_555
H21_6 C20_6 1_555 1_555
O19_6 C21_6 1_555 1_555
O20_6 C21_6 1_555 1_555
C25_6 N5_6 1_555 1_555
C26_6 N5_6 1_555 1_555
C29_6 N7_6 1_555 1_555
C30_6 N7_6 1_555 1_555
C31_6 N8_6 1_555 1_555
C32_6 N8_6 1_555 1_555
C33_6 C25_6 1_555 1_555
H25_6 C25_6 1_555 1_555
C34_6 C26_6 1_555 1_555
C37_6 C29_6 1_555 1_555
H27_6 C29_6 1_555 1_555
C38_6 C30_6 1_555 1_555
C39_6 C31_6 1_555 1_555
H28_6 C32_6 1_555 1_555
C40_6 C32_6 1_555 1_555
C41_6 C33_6 1_555 1_555
H29_4 C33_6 1_555 1_555
C45_6 C37_6 1_555 1_555
H31_6 C37_6 1_555 1_555
C47_6 C39_6 1_555 1_555
C48_6 C39_6 1_555 1_555
H32_6 C40_6 1_555 1_555
H33_6 C41_6 1_555 1_555
H35_6 C45_6 1_555 1_555
H36_6 C47_6 1_555 1_555
O17_2 C48_6 1_555 1_555
O18_2 C48_6 1_555 1_555
Nd4_6 O25_6 1_555 1_555
N2_6 C15_6 1_555 1_555
N4_6 Cu1_6 1_555 1_555
C22_6 C24_6 1_555 1_555
C30_6 C31_6 1_555 1_555
C34_6 C41_6 1_555 1_555
C38_6 C45_6 1_555 1_555
C40_6 C47_6 1_555 1_555
O24_7 C17_7 1_555 1_555
Nd7_2 O24_7 1_555 1_555
Nd6_2 O1_7 1_555 1_555
O1_7 C1_7 1_555 1_555
O2_7 Nd6_2 1_555 1_555
O3_7 Nd6_2 1_555 1_555
O4_7 Nd6_2 1_555 1_555
O5_7 Nd6_2 1_555 1_555
O6_7 Nd6_2 1_555 1_555
O7_7 Nd6_2 1_555 1_555
C1_7 O2_7 1_555 1_555
C2_7 O3_7 1_555 1_555
H1_7 O4_7 1_555 1_555
H2_7 O4_7 1_555 1_555
H3_7 O5_7 1_555 1_555
H4_7 O5_7 1_555 1_555
H5_7 O6_7 1_555 1_555
H6_7 O6_7 1_555 1_555
C3_7 C1_7 1_555 1_555
C4_7 C2_7 1_555 1_555
O10_7 C2_7 1_555 1_555
C5_6 C3_7 1_555 1_555
C6_7 C3_7 1_555 1_555
C7_7 C4_7 1_555 1_555
C8_7 C4_7 1_555 1_555
Nd7_2 O10_7 1_555 1_555
H7_6 C5_6 1_555 1_555
C9_6 C5_6 1_555 1_555
C10_7 C6_7 1_555 1_555
N1_7 C6_7 1_555 1_555
H8_7 C7_7 1_555 1_555
C11_7 C7_7 1_555 1_555
C12_7 C8_7 1_555 1_555
N2_7 C8_7 1_555 1_555
O11_7 Nd7_2 1_555 1_555
O12_7 Nd7_2 1_555 1_555
O13_7 Nd7_2 1_555 1_555
O16_7 Nd7_2 1_555 1_555
H9_6 C9_6 1_555 1_555
C13_6 C9_6 1_555 1_555
C14_7 C10_7 1_555 1_555
N3_7 C10_7 1_555 1_555
H10_7 C11_7 1_555 1_555
C15_7 C11_7 1_555 1_555
C16_7 C12_7 1_555 1_555
N4_7 C12_7 1_555 1_555
Cu1_7 N2_7 1_555 1_555
H11_7 O11_7 1_555 1_555
H12_7 O11_7 1_555 1_555
H13_7 O12_7 1_555 1_555
H14_7 O12_7 1_555 1_555
H15_7 O13_7 1_555 1_555
C18_7 C14_7 1_555 1_555
C19_7 N3_7 1_555 1_555
H18_7 C15_7 1_555 1_555
C20_7 C16_7 1_555 1_555
C21_7 C16_7 1_555 1_555
C22_7 N4_7 1_555 1_555
N5_7 Cu1_7 1_555 1_555
N6_7 Cu1_7 1_555 1_555
N7_7 Cu1_7 1_555 1_555
N8_7 Cu1_7 1_555 1_555
C23_7 C18_7 1_555 1_555
H19_7 C18_7 1_555 1_555
H20_7 C19_7 1_555 1_555
C24_7 C20_7 1_555 1_555
H21_7 C20_7 1_555 1_555
O19_7 C21_7 1_555 1_555
O20_7 C21_7 1_555 1_555
H22_7 C22_7 1_555 1_555
C25_7 N5_7 1_555 1_555
C26_7 N5_7 1_555 1_555
C27_7 N6_7 1_555 1_555
C28_7 N6_7 1_555 1_555
C29_7 N7_7 1_555 1_555
C30_7 N7_7 1_555 1_555
C31_7 N8_7 1_555 1_555
C32_7 N8_7 1_555 1_555
H23_7 C23_7 1_555 1_555
H24_7 C24_7 1_555 1_555
C33_7 C25_7 1_555 1_555
H25_7 C25_7 1_555 1_555
C34_7 C26_7 1_555 1_555
C35_7 C27_7 1_555 1_555
H26_7 C28_7 1_555 1_555
C36_7 C28_7 1_555 1_555
C37_7 C29_7 1_555 1_555
H27_7 C29_7 1_555 1_555
C39_7 C31_7 1_555 1_555
H28_7 C32_7 1_555 1_555
C40_7 C32_7 1_555 1_555
C41_7 C33_7 1_555 1_555
H29_5 C33_7 1_555 1_555
C42_7 C34_7 1_555 1_555
C43_7 C35_7 1_555 1_555
C44_7 C35_7 1_555 1_555
H31_7 C37_7 1_555 1_555
C47_7 C39_7 1_555 1_555
H32_7 C40_7 1_555 1_555
H33_7 C41_7 1_555 1_555
O21_7 C42_7 1_555 1_555
O22_7 C42_7 1_555 1_555
H36_7 C47_7 1_555 1_555
O25_7 C44_7 1_555 1_555
O26_7 C44_7 1_555 1_555
Nd4_7 O25_7 1_555 1_555
N1_7 C13_6 1_555 1_555
N2_7 C15_7 1_555 1_555
N4_7 Cu1_7 1_555 1_555
C19_7 C23_7 1_555 1_555
C22_7 C24_7 1_555 1_555
C26_7 C27_7 1_555 1_555
C30_7 C31_7 1_555 1_555
C34_7 C41_7 1_555 1_555
C36_7 C43_7 1_555 1_555
C40_7 C47_7 1_555 1_555
C46_7 C38_7 1_555 1_555
H35_7 C45_7 1_555 1_555
O27_6 C46_7 1_555 1_555
O28_6 C46_7 1_555 1_555
O29_6 C48_7 1_555 1_555
O30_6 C48_7 1_555 1_555
Nd6_6 O27_6 1_555 1_555
Nd7_6 O29_6 1_555 1_555
C38_7 C45_7 1_555 1_555
O28_6 Nd6_6 1_555 1_555
O30_6 Nd7_6 1_555 1_555
O1_8 C1_8 1_555 1_555
H5_8 O6_8 1_555 1_555
H6_8 O6_8 1_555 1_555
C3_8 C1_8 1_555 1_555
C6_8 C3_8 1_555 1_555
C10_8 C6_8 1_555 1_555
N1_8 C6_8 1_555 1_555
C14_8 C10_8 1_555 1_555
N3_8 C10_8 1_555 1_555
C17_8 C14_8 1_555 1_555
C18_8 C14_8 1_555 1_555
C19_8 N3_8 1_555 1_555
C23_8 C18_8 1_555 1_555
H19_8 C18_8 1_555 1_555
H20_8 C19_8 1_555 1_555
C27_8 N6_8 1_555 1_555
C28_8 N6_8 1_555 1_555
H23_8 C23_8 1_555 1_555
C35_8 C27_8 1_555 1_555
H26_8 C28_8 1_555 1_555
C36_8 C28_8 1_555 1_555
C43_8 C35_8 1_555 1_555
C44_8 C35_8 1_555 1_555
H30_8 C36_8 1_555 1_555
O21_8 C42_8 1_555 1_555
O22_8 C42_8 1_555 1_555
H34_8 C43_8 1_555 1_555
Nd7_6 O23_8 1_555 1_555
O23_8 C17_8 1_555 1_555
O24_8 C17_8 1_555 1_555
O26_8 C44_8 1_555 1_555
O8 C46_8 1_555 1_555
Nd5_8 O26_8 1_555 1_555
C19_8 C23_8 1_555 1_555
C36_8 C43_8 1_555 1_555
Nd7_6 O24_8 1_555 1_555
O2_8 Nd6_6 1_555 1_555
O3_8 Nd6_6 1_555 1_555
O4_8 Nd6_6 1_555 1_555
O5_8 Nd6_6 1_555 1_555
C2_8 O3_8 1_555 1_555
H1_8 O4_8 1_555 1_555
H2_8 O4_8 1_555 1_555
H3_8 O5_8 1_555 1_555
H4_8 O5_8 1_555 1_555
C4_8 C2_8 1_555 1_555
O10_8 C2_8 1_555 1_555
C7_8 C4_8 1_555 1_555
C8_8 C4_8 1_555 1_555
Nd7_6 O10_8 1_555 1_555
H8_8 C7_8 1_555 1_555
C11_8 C7_8 1_555 1_555
C12_8 C8_8 1_555 1_555
N2_8 C8_8 1_555 1_555
O11_8 Nd7_6 1_555 1_555
O12_8 Nd7_6 1_555 1_555
O13_8 Nd7_6 1_555 1_555
O16_8 Nd7_6 1_555 1_555
H10_8 C11_8 1_555 1_555
C15_8 C11_8 1_555 1_555
C16_8 C12_8 1_555 1_555
N4_8 C12_8 1_555 1_555
Cu1_8 N2_8 1_555 1_555
H11_8 O11_8 1_555 1_555
H12_8 O11_8 1_555 1_555
H13_8 O12_8 1_555 1_555
H14_8 O12_8 1_555 1_555
H15_8 O13_8 1_555 1_555
H16_8 O13_8 1_555 1_555
H18_8 C15_8 1_555 1_555
C20_8 C16_8 1_555 1_555
C21_8 C16_8 1_555 1_555
C22_8 N4_8 1_555 1_555
N5_8 Cu1_8 1_555 1_555
N7_8 Cu1_8 1_555 1_555
N8_8 Cu1_8 1_555 1_555
C24_8 C20_8 1_555 1_555
H21_8 C20_8 1_555 1_555
O19_8 C21_8 1_555 1_555
O20_8 C21_8 1_555 1_555
C25_8 N5_8 1_555 1_555
C26_8 N5_8 1_555 1_555
C29_8 N7_8 1_555 1_555
C30_8 N7_8 1_555 1_555
C31_8 N8_8 1_555 1_555
C32_8 N8_8 1_555 1_555
C33_8 C25_8 1_555 1_555
H25_8 C25_8 1_555 1_555
C34_8 C26_8 1_555 1_555
C37_8 C29_8 1_555 1_555
H27_8 C29_8 1_555 1_555
C38_8 C30_8 1_555 1_555
C39_8 C31_8 1_555 1_555
H28_8 C32_8 1_555 1_555
C40_8 C32_8 1_555 1_555
C41_8 C33_8 1_555 1_555
H29_6 C33_8 1_555 1_555
C45_8 C37_8 1_555 1_555
H31_8 C37_8 1_555 1_555
C47_8 C39_8 1_555 1_555
C48_8 C39_8 1_555 1_555
H32_8 C40_8 1_555 1_555
H33_8 C41_8 1_555 1_555
H35_8 C45_8 1_555 1_555
H36_8 C47_8 1_555 1_555
O17 C48_8 1_555 1_555
O18 C48_8 1_555 1_555
Nd4_8 O25_8 1_555 1_555
N2_8 C15_8 1_555 1_555
N4_8 Cu1_8 1_555 1_555
C22_8 C24_8 1_555 1_555
C30_8 C31_8 1_555 1_555
C34_8 C41_8 1_555 1_555
C38_8 C45_8 1_555 1_555
C40_8 C47_8 1_555 1_555
H1_9 O4_9 1_555 1_555
C4_9 C2_9 1_555 1_555
O10_9 C2_9 1_555 1_555
C7_9 C4_9 1_555 1_555
C8_9 C4_9 1_555 1_555
Nd4_4 O10_9 1_555 1_555
H8_9 C7_9 1_555 1_555
C11_9 C7_9 1_555 1_555
N2_9 C8_9 1_555 1_555
O11_9 Nd4_4 1_555 1_555
O12_9 Nd4_4 1_555 1_555
O13_9 Nd4_4 1_555 1_555
O14 Nd4_4 1_555 1_555
O15 Nd4_4 1_555 1_555
O17_3 Nd4_4 1_555 1_555
O18_3 Nd4_4 1_555 1_555
H10_9 C11_9 1_555 1_555
C15_9 C11_9 1_555 1_555
H11_9 O11_9 1_555 1_555
H12_9 O11_9 1_555 1_555
H13_9 O12_9 1_555 1_555
H14_9 O12_9 1_555 1_555
H15_9 O13_9 1_555 1_555
H16_9 O13_9 1_555 1_555
H18_9 C15_9 1_555 1_555
O19_9 C21_9 1_555 1_555
O20_9 C21_9 1_555 1_555
N2_9 C15_9 1_555 1_555
Nd5_4 O1_9 1_555 1_555
O1_9 C1_9 1_555 1_555
O2_9 Nd5_4 1_555 1_555
O3_9 Nd5_4 1_555 1_555
O5_9 Nd5_4 1_555 1_555
O6_9 Nd5_4 1_555 1_555
O8_3 Nd5_4 1_555 1_555
C1_9 O2_9 1_555 1_555
H3_9 O5_9 1_555 1_555
H4_9 O5_9 1_555 1_555
H5_9 O6_9 1_555 1_555
H6_9 O6_9 1_555 1_555
C3_9 C1_9 1_555 1_555
C5_7 C3_9 1_555 1_555
C6_9 C3_9 1_555 1_555
H7_7 C5_7 1_555 1_555
C9_7 C5_7 1_555 1_555
C10_9 C6_9 1_555 1_555
N1_9 C6_9 1_555 1_555
H9_7 C9_7 1_555 1_555
C13_7 C9_7 1_555 1_555
C14_9 C10_9 1_555 1_555
N3_9 C10_9 1_555 1_555
C16_9 C12_9 1_555 1_555
N4_9 C12_9 1_555 1_555
C17_9 C14_9 1_555 1_555
H17_7 C13_7 1_555 1_555
C18_9 C14_9 1_555 1_555
C19_9 N3_9 1_555 1_555
C20_9 C16_9 1_555 1_555
C22_9 N4_9 1_555 1_555
N5_9 Cu1_9 1_555 1_555
N6_9 Cu1_9 1_555 1_555
N7_9 Cu1_9 1_555 1_555
N8_9 Cu1_9 1_555 1_555
C23_9 C18_9 1_555 1_555
H19_9 C18_9 1_555 1_555
H20_9 C19_9 1_555 1_555
C24_9 C20_9 1_555 1_555
H21_9 C20_9 1_555 1_555
H22_9 C22_9 1_555 1_555
C25_9 N5_9 1_555 1_555
C27_9 N6_9 1_555 1_555
C28_9 N6_9 1_555 1_555
C29_9 N7_9 1_555 1_555
C30_9 N7_9 1_555 1_555
C31_9 N8_9 1_555 1_555
C32_9 N8_9 1_555 1_555
H23_9 C23_9 1_555 1_555
H24_9 C24_9 1_555 1_555
H26_9 C28_9 1_555 1_555
C36_9 C28_9 1_555 1_555
C39_9 C31_9 1_555 1_555
H28_9 C32_9 1_555 1_555
C40_9 C32_9 1_555 1_555
H30_9 C36_9 1_555 1_555
C47_9 C39_9 1_555 1_555
H32_9 C40_9 1_555 1_555
H36_9 C47_9 1_555 1_555
O14 C17_9 1_555 1_555
O15 C17_9 1_555 1_555
N1_9 C13_7 1_555 1_555
N4_9 Cu1_9 1_555 1_555
C19_9 C23_9 1_555 1_555
C22_9 C24_9 1_555 1_555
C30_9 C31_9 1_555 1_555
C40_9 C47_9 1_555 1_555
Nd4 O29_7 1_555 1_555
C46_9 C38_9 1_555 1_555
H35_9 C45_9 1_555 1_555
O27_7 C46_9 1_555 1_555
O28_7 C46_9 1_555 1_555
O30_7 C48_9 1_555 1_555
Nd5 O27_7 1_555 1_555
C38_9 C45_9 1_555 1_555
O28_7 Nd5 1_555 1_555
C34_9 C26_9 1_555 1_555
C41_9 C33_9 1_555 1_555
C42_9 C34_9 1_555 1_555
C43_9 C35_9 1_555 1_555
C44_9 C35_9 1_555 1_555
H31_9 C37_9 1_555 1_555
H33_9 C41_9 1_555 1_555
O21_9 C42_9 1_555 1_555
O22_9 C42_9 1_555 1_555
H34_9 C43_9 1_555 1_555
O16_2 C44_9 1_555 1_555
O7_2 C44_9 1_555 1_555
C34_9 C41_9 1_555 1_555
O12_10 Nd4 1_555 1_555
O13_10 Nd4 1_555 1_555
O14_2 Nd4 1_555 1_555
O15_2 Nd4 1_555 1_555
H13_10 O12_10 1_555 1_555
H14_10 O12_10 1_555 1_555
H15_10 O13_10 1_555 1_555
H16_10 O13_10 1_555 1_555
Nd5 O1_10 1_555 1_555
O1_10 C1_10 1_555 1_555
O2_10 Nd5 1_555 1_555
O3_10 Nd5 1_555 1_555
O4_10 Nd5 1_555 1_555
O5_10 Nd5 1_555 1_555
O6_10 Nd5 1_555 1_555
C1_10 O2_10 1_555 1_555
C2_10 O3_10 1_555 1_555
H1_10 O4_10 1_555 1_555
H2_10 O4_10 1_555 1_555
H3_10 O5_10 1_555 1_555
H4_10 O5_10 1_555 1_555
H5_10 O6_10 1_555 1_555
H6_10 O6_10 1_555 1_555
C3_10 C1_10 1_555 1_555
C4_10 C2_10 1_555 1_555
O10_10 C2_10 1_555 1_555
C6_10 C3_10 1_555 1_555
C7_10 C4_10 1_555 1_555
C8_10 C4_10 1_555 1_555
C10_10 C6_10 1_555 1_555
N1_10 C6_10 1_555 1_555
C11_10 C7_10 1_555 1_555
C12_10 C8_10 1_555 1_555
N2_10 C8_10 1_555 1_555
C14_10 C10_10 1_555 1_555
N3_10 C10_10 1_555 1_555
C15_10 C11_10 1_555 1_555
C16_10 C12_10 1_555 1_555
N4_10 C12_10 1_555 1_555
Cu1_10 N2_10 1_555 1_555
H12_10 O11_10 1_555 1_555
C17_10 C14_10 1_555 1_555
C18_10 C14_10 1_555 1_555
C19_10 N3_10 1_555 1_555
H18_10 C15_10 1_555 1_555
C20_10 C16_10 1_555 1_555
C21_10 C16_10 1_555 1_555
C22_10 N4_10 1_555 1_555
N5_10 Cu1_10 1_555 1_555
N6_10 Cu1_10 1_555 1_555
N7_10 Cu1_10 1_555 1_555
N8_10 Cu1_10 1_555 1_555
C23_10 C18_10 1_555 1_555
H19_10 C18_10 1_555 1_555
H20_10 C19_10 1_555 1_555
C24_10 C20_10 1_555 1_555
H21_10 C20_10 1_555 1_555
O19_10 C21_10 1_555 1_555
O20_10 C21_10 1_555 1_555
H22_10 C22_10 1_555 1_555
C25_10 N5_10 1_555 1_555
C26_10 N5_10 1_555 1_555
C27_10 N6_10 1_555 1_555
C28_10 N6_10 1_555 1_555
C29_10 N7_10 1_555 1_555
C30_10 N7_10 1_555 1_555
C31_10 N8_10 1_555 1_555
C32_10 N8_10 1_555 1_555
H23_10 C23_10 1_555 1_555
H24_10 C24_10 1_555 1_555
C33_10 C25_10 1_555 1_555
H25_10 C25_10 1_555 1_555
C34_10 C26_10 1_555 1_555
C35_10 C27_10 1_555 1_555
H26_10 C28_10 1_555 1_555
C36_10 C28_10 1_555 1_555
C37_10 C29_10 1_555 1_555
H27_10 C29_10 1_555 1_555
C38_10 C30_10 1_555 1_555
C39_10 C31_10 1_555 1_555
H28_10 C32_10 1_555 1_555
C40_10 C32_10 1_555 1_555
C41_10 C33_10 1_555 1_555
H29_7 C33_10 1_555 1_555
C42_10 C34_10 1_555 1_555
C43_10 C35_10 1_555 1_555
C44_10 C35_10 1_555 1_555
H30_10 C36_10 1_555 1_555
C45_10 C37_10 1_555 1_555
H31_10 C37_10 1_555 1_555
C46_10 C38_10 1_555 1_555
C47_10 C39_10 1_555 1_555
C48_10 C39_10 1_555 1_555
H32_10 C40_10 1_555 1_555
H33_10 C41_10 1_555 1_555
O21_10 C42_10 1_555 1_555
O22_10 C42_10 1_555 1_555
H34_10 C43_10 1_555 1_555
H35_10 C45_10 1_555 1_555
H36_10 C47_10 1_555 1_555
O14_2 C17_10 1_555 1_555
O15_2 C17_10 1_555 1_555
O16_3 C44_10 1_555 1_555
O7_3 C44_10 1_555 1_555
O27_8 C46_10 1_555 1_555
O28_8 C46_10 1_555 1_555
O29_8 C48_10 1_555 1_555
O30_8 C48_10 1_555 1_555
Nd5_6 O27_8 1_555 1_555
Nd4_6 O29_8 1_555 1_555
N2_10 C15_10 1_555 1_555
N4_10 Cu1_10 1_555 1_555
C19_10 C23_10 1_555 1_555
C22_10 C24_10 1_555 1_555
C26_10 C27_10 1_555 1_555
C30_10 C31_10 1_555 1_555
C34_10 C41_10 1_555 1_555
C36_10 C43_10 1_555 1_555
C38_10 C45_10 1_555 1_555
C40_10 C47_10 1_555 1_555
O28_8 Nd5_6 1_555 1_555
O30_8 Nd4_6 1_555 1_555
C34_11 C26_11 1_555 1_555
C41_11 C33_11 1_555 1_555
C42_11 C34_11 1_555 1_555
C43_11 C35_11 1_555 1_555
C44_11 C35_11 1_555 1_555
H31_11 C37_11 1_555 1_555
H33_11 C41_11 1_555 1_555
O21_11 C42_11 1_555 1_555
O22_11 C42_11 1_555 1_555
H34_11 C43_11 1_555 1_555
O16_4 C44_11 1_555 1_555
O7_4 C44_11 1_555 1_555
C34_11 C41_11 1_555 1_555
H1_11 O4_11 1_555 1_555
C4_11 C2_11 1_555 1_555
O10_11 C2_11 1_555 1_555
C7_11 C4_11 1_555 1_555
C8_11 C4_11 1_555 1_555
Nd4_2 O10_11 1_555 1_555
H8_11 C7_11 1_555 1_555
C11_11 C7_11 1_555 1_555
N2_11 C8_11 1_555 1_555
O11_11 Nd4_2 1_555 1_555
O12_11 Nd4_2 1_555 1_555
O13_11 Nd4_2 1_555 1_555
O14_3 Nd4_2 1_555 1_555
O15_3 Nd4_2 1_555 1_555
O17_4 Nd4_2 1_555 1_555
O18_4 Nd4_2 1_555 1_555
H10_11 C11_11 1_555 1_555
C15_11 C11_11 1_555 1_555
H11_11 O11_11 1_555 1_555
H12_11 O11_11 1_555 1_555
H13_11 O12_11 1_555 1_555
H14_11 O12_11 1_555 1_555
H15_11 O13_11 1_555 1_555
H16_11 O13_11 1_555 1_555
H18_11 C15_11 1_555 1_555
O19_11 C21_11 1_555 1_555
O20_11 C21_11 1_555 1_555
Nd4_3 O29_9 1_555 1_555
N2_11 C15_11 1_555 1_555
Nd5_2 O1_11 1_555 1_555
O1_11 C1_11 1_555 1_555
O2_11 Nd5_2 1_555 1_555
O3_11 Nd5_2 1_555 1_555
O5_11 Nd5_2 1_555 1_555
O6_11 Nd5_2 1_555 1_555
O8_4 Nd5_2 1_555 1_555
C1_11 O2_11 1_555 1_555
H3_11 O5_11 1_555 1_555
H4_11 O5_11 1_555 1_555
H5_11 O6_11 1_555 1_555
H6_11 O6_11 1_555 1_555
C3_11 C1_11 1_555 1_555
C5_8 C3_11 1_555 1_555
C6_11 C3_11 1_555 1_555
H7_8 C5_8 1_555 1_555
C9_8 C5_8 1_555 1_555
C10_11 C6_11 1_555 1_555
N1_11 C6_11 1_555 1_555
H9_8 C9_8 1_555 1_555
C13_8 C9_8 1_555 1_555
C14_11 C10_11 1_555 1_555
N3_11 C10_11 1_555 1_555
C16_11 C12_11 1_555 1_555
N4_11 C12_11 1_555 1_555
C17_11 C14_11 1_555 1_555
H17_8 C13_8 1_555 1_555
C18_11 C14_11 1_555 1_555
C19_11 N3_11 1_555 1_555
C20_11 C16_11 1_555 1_555
C22_11 N4_11 1_555 1_555
N5_11 Cu1_11 1_555 1_555
N6_11 Cu1_11 1_555 1_555
N7_11 Cu1_11 1_555 1_555
N8_11 Cu1_11 1_555 1_555
C23_11 C18_11 1_555 1_555
H19_11 C18_11 1_555 1_555
H20_11 C19_11 1_555 1_555
C24_11 C20_11 1_555 1_555
H21_11 C20_11 1_555 1_555
H22_11 C22_11 1_555 1_555
C25_11 N5_11 1_555 1_555
C27_11 N6_11 1_555 1_555
C28_11 N6_11 1_555 1_555
C29_11 N7_11 1_555 1_555
C30_11 N7_11 1_555 1_555
C31_11 N8_11 1_555 1_555
C32_11 N8_11 1_555 1_555
H23_11 C23_11 1_555 1_555
H24_11 C24_11 1_555 1_555
H26_11 C28_11 1_555 1_555
C36_11 C28_11 1_555 1_555
C38_11 C30_11 1_555 1_555
C39_11 C31_11 1_555 1_555
H28_11 C32_11 1_555 1_555
C40_11 C32_11 1_555 1_555
H30_11 C36_11 1_555 1_555
C46_11 C38_11 1_555 1_555
C47_11 C39_11 1_555 1_555
C48_11 C39_11 1_555 1_555
H32_11 C40_11 1_555 1_555
H35_11 C45_11 1_555 1_555
H36_11 C47_11 1_555 1_555
O14_3 C17_11 1_555 1_555
O15_3 C17_11 1_555 1_555
O27_9 C46_11 1_555 1_555
O28_9 C46_11 1_555 1_555
O30_9 C48_11 1_555 1_555
Nd5_3 O27_9 1_555 1_555
N1_11 C13_8 1_555 1_555
N4_11 Cu1_11 1_555 1_555
C19_11 C23_11 1_555 1_555
C22_11 C24_11 1_555 1_555
C30_11 C31_11 1_555 1_555
C38_11 C45_11 1_555 1_555
C40_11 C47_11 1_555 1_555
O28_9 Nd5_3 1_555 1_555
O12_12 Nd4_3 1_555 1_555
O13_12 Nd4_3 1_555 1_555
O14_4 Nd4_3 1_555 1_555
O15_4 Nd4_3 1_555 1_555
H13_12 O12_12 1_555 1_555
H14_12 O12_12 1_555 1_555
H15_12 O13_12 1_555 1_555
H16_12 O13_12 1_555 1_555
Nd5_3 O1_12 1_555 1_555
O1_12 C1_12 1_555 1_555
O2_12 Nd5_3 1_555 1_555
O3_12 Nd5_3 1_555 1_555
O4_12 Nd5_3 1_555 1_555
O5_12 Nd5_3 1_555 1_555
O6_12 Nd5_3 1_555 1_555
C1_12 O2_12 1_555 1_555
C2_12 O3_12 1_555 1_555
H1_12 O4_12 1_555 1_555
H2_12 O4_12 1_555 1_555
H3_12 O5_12 1_555 1_555
H4_12 O5_12 1_555 1_555
H5_12 O6_12 1_555 1_555
H6_12 O6_12 1_555 1_555
C3_12 C1_12 1_555 1_555
C4_12 C2_12 1_555 1_555
O10_12 C2_12 1_555 1_555
C5_9 C3_12 1_555 1_555
C6_12 C3_12 1_555 1_555
C7_12 C4_12 1_555 1_555
C8_12 C4_12 1_555 1_555
H7_9 C5_9 1_555 1_555
C9_9 C5_9 1_555 1_555
C10_12 C6_12 1_555 1_555
N1_12 C6_12 1_555 1_555
C11_12 C7_12 1_555 1_555
C12_12 C8_12 1_555 1_555
N2_12 C8_12 1_555 1_555
H9_9 C9_9 1_555 1_555
C13_9 C9_9 1_555 1_555
C14_12 C10_12 1_555 1_555
N3_12 C10_12 1_555 1_555
C15_12 C11_12 1_555 1_555
C16_12 C12_12 1_555 1_555
N4_12 C12_12 1_555 1_555
Cu1_12 N2_12 1_555 1_555
H12_12 O11_12 1_555 1_555
C17_12 C14_12 1_555 1_555
H17_9 C13_9 1_555 1_555
C18_12 C14_12 1_555 1_555
C19_12 N3_12 1_555 1_555
H18_12 C15_12 1_555 1_555
C20_12 C16_12 1_555 1_555
C21_12 C16_12 1_555 1_555
C22_12 N4_12 1_555 1_555
N5_12 Cu1_12 1_555 1_555
N6_12 Cu1_12 1_555 1_555
N7_12 Cu1_12 1_555 1_555
N8_12 Cu1_12 1_555 1_555
C23_12 C18_12 1_555 1_555
H19_12 C18_12 1_555 1_555
H20_12 C19_12 1_555 1_555
C24_12 C20_12 1_555 1_555
H21_12 C20_12 1_555 1_555
O19_12 C21_12 1_555 1_555
O20_12 C21_12 1_555 1_555
H22_12 C22_12 1_555 1_555
C25_12 N5_12 1_555 1_555
C26_12 N5_12 1_555 1_555
C27_12 N6_12 1_555 1_555
C28_12 N6_12 1_555 1_555
C29_12 N7_12 1_555 1_555
C30_12 N7_12 1_555 1_555
C31_12 N8_12 1_555 1_555
C32_12 N8_12 1_555 1_555
H23_12 C23_12 1_555 1_555
H24_12 C24_12 1_555 1_555
C33_12 C25_12 1_555 1_555
H25_12 C25_12 1_555 1_555
C34_12 C26_12 1_555 1_555
C35_12 C27_12 1_555 1_555
H26_12 C28_12 1_555 1_555
C36_12 C28_12 1_555 1_555
C37_12 C29_12 1_555 1_555
H27_12 C29_12 1_555 1_555
C38_12 C30_12 1_555 1_555
C39_12 C31_12 1_555 1_555
H28_12 C32_12 1_555 1_555
C40_12 C32_12 1_555 1_555
C41_12 C33_12 1_555 1_555
H29_8 C33_12 1_555 1_555
C42_12 C34_12 1_555 1_555
C43_12 C35_12 1_555 1_555
C44_12 C35_12 1_555 1_555
H30_12 C36_12 1_555 1_555
C45_12 C37_12 1_555 1_555
H31_12 C37_12 1_555 1_555
C46_12 C38_12 1_555 1_555
C47_12 C39_12 1_555 1_555
C48_12 C39_12 1_555 1_555
H32_12 C40_12 1_555 1_555
H33_12 C41_12 1_555 1_555
O21_12 C42_12 1_555 1_555
O22_12 C42_12 1_555 1_555
H34_12 C43_12 1_555 1_555
H35_12 C45_12 1_555 1_555
H36_12 C47_12 1_555 1_555
O14_4 C17_12 1_555 1_555
O15_4 C17_12 1_555 1_555
O16 C44_12 1_555 1_555
O7 C44_12 1_555 1_555
O27_10 C46_12 1_555 1_555
O28_10 C46_12 1_555 1_555
O29_10 C48_12 1_555 1_555
O30_10 C48_12 1_555 1_555
Nd5_8 O27_10 1_555 1_555
Nd4_8 O29_10 1_555 1_555
N1_12 C13_9 1_555 1_555
N2_12 C15_12 1_555 1_555
N4_12 Cu1_12 1_555 1_555
C19_12 C23_12 1_555 1_555
C22_12 C24_12 1_555 1_555
C26_12 C27_12 1_555 1_555
C30_12 C31_12 1_555 1_555
C34_12 C41_12 1_555 1_555
C36_12 C43_12 1_555 1_555
C38_12 C45_12 1_555 1_555
C40_12 C47_12 1_555 1_555
O28_10 Nd5_8 1_555 1_555
O30_10 Nd4_8 1_555 1_555
Nd5_8 O1_13 1_555 1_555
O1_13 C1_13 1_555 1_555
O2_13 Nd5_8 1_555 1_555
O3_13 Nd5_8 1_555 1_555
O4_13 Nd5_8 1_555 1_555
O5_13 Nd5_8 1_555 1_555
O6_13 Nd5_8 1_555 1_555
C1_13 O2_13 1_555 1_555
C2_13 O3_13 1_555 1_555
H1_13 O4_13 1_555 1_555
H2_13 O4_13 1_555 1_555
H3_13 O5_13 1_555 1_555
H4_13 O5_13 1_555 1_555
H5_13 O6_13 1_555 1_555
H6_13 O6_13 1_555 1_555
C3_13 C1_13 1_555 1_555
C4_13 C2_13 1_555 1_555
O10_13 C2_13 1_555 1_555
C5_10 C3_13 1_555 1_555
C6_13 C3_13 1_555 1_555
C7_13 C4_13 1_555 1_555
C8_13 C4_13 1_555 1_555
Nd4_8 O10_13 1_555 1_555
H7_10 C5_10 1_555 1_555
C9_10 C5_10 1_555 1_555
C10_13 C6_13 1_555 1_555
N1_13 C6_13 1_555 1_555
H8_13 C7_13 1_555 1_555
C11_13 C7_13 1_555 1_555
C12_13 C8_13 1_555 1_555
N2_13 C8_13 1_555 1_555
O11_13 Nd4_8 1_555 1_555
O12_13 Nd4_8 1_555 1_555
O13_13 Nd4_8 1_555 1_555
O15_5 Nd4_8 1_555 1_555
H9_10 C9_10 1_555 1_555
C13_10 C9_10 1_555 1_555
C14_13 C10_13 1_555 1_555
N3_13 C10_13 1_555 1_555
H10_13 C11_13 1_555 1_555
C15_13 C11_13 1_555 1_555
C16_13 C12_13 1_555 1_555
N4_13 C12_13 1_555 1_555
Cu1_13 N2_13 1_555 1_555
H11_13 O11_13 1_555 1_555
H12_13 O11_13 1_555 1_555
H13_13 O12_13 1_555 1_555
H14_13 O12_13 1_555 1_555
H15_13 O13_13 1_555 1_555
C18_13 C14_13 1_555 1_555
C19_13 N3_13 1_555 1_555
H18_13 C15_13 1_555 1_555
C20_13 C16_13 1_555 1_555
C21_13 C16_13 1_555 1_555
C22_13 N4_13 1_555 1_555
N5_13 Cu1_13 1_555 1_555
N6_13 Cu1_13 1_555 1_555
N7_13 Cu1_13 1_555 1_555
N8_13 Cu1_13 1_555 1_555
C23_13 C18_13 1_555 1_555
H19_13 C18_13 1_555 1_555
H20_13 C19_13 1_555 1_555
C24_13 C20_13 1_555 1_555
H21_13 C20_13 1_555 1_555
O19_13 C21_13 1_555 1_555
O20_13 C21_13 1_555 1_555
H22_13 C22_13 1_555 1_555
C25_13 N5_13 1_555 1_555
C26_13 N5_13 1_555 1_555
C27_13 N6_13 1_555 1_555
C28_13 N6_13 1_555 1_555
C29_13 N7_13 1_555 1_555
C30_13 N7_13 1_555 1_555
C31_13 N8_13 1_555 1_555
C32_13 N8_13 1_555 1_555
H23_13 C23_13 1_555 1_555
H24_13 C24_13 1_555 1_555
C33_13 C25_13 1_555 1_555
H25_13 C25_13 1_555 1_555
C34_13 C26_13 1_555 1_555
C35_13 C27_13 1_555 1_555
H26_13 C28_13 1_555 1_555
C36_13 C28_13 1_555 1_555
C37_13 C29_13 1_555 1_555
H27_13 C29_13 1_555 1_555
C38_13 C30_13 1_555 1_555
C39_13 C31_13 1_555 1_555
H28_13 C32_13 1_555 1_555
C40_13 C32_13 1_555 1_555
C41_13 C33_13 1_555 1_555
H29_9 C33_13 1_555 1_555
C42_13 C34_13 1_555 1_555
C43_13 C35_13 1_555 1_555
C44_13 C35_13 1_555 1_555
C45_13 C37_13 1_555 1_555
H31_13 C37_13 1_555 1_555
C46_13 C38_13 1_555 1_555
C47_13 C39_13 1_555 1_555
C48_13 C39_13 1_555 1_555
H32_13 C40_13 1_555 1_555
H33_13 C41_13 1_555 1_555
O21_13 C42_13 1_555 1_555
O22_13 C42_13 1_555 1_555
H35_13 C45_13 1_555 1_555
H36_13 C47_13 1_555 1_555
O16_6 C44_13 1_555 1_555
O7_6 C44_13 1_555 1_555
O27_11 C46_13 1_555 1_555
O28_11 C46_13 1_555 1_555
O29_11 C48_13 1_555 1_555
O30_11 C48_13 1_555 1_555
Nd5_5 O27_11 1_555 1_555
Nd4_5 O29_11 1_555 1_555
N1_13 C13_10 1_555 1_555
N2_13 C15_13 1_555 1_555
N4_13 Cu1_13 1_555 1_555
C19_13 C23_13 1_555 1_555
C22_13 C24_13 1_555 1_555
C26_13 C27_13 1_555 1_555
C30_13 C31_13 1_555 1_555
C34_13 C41_13 1_555 1_555
C36_13 C43_13 1_555 1_555
C38_13 C45_13 1_555 1_555
C40_13 C47_13 1_555 1_555
O28_11 Nd5_5 1_555 1_555
O30_11 Nd4_5 1_555 1_555
O15_5 C17_13 1_555 1_555
O2_14 Nd5_5 1_555 1_555
O3_14 Nd5_5 1_555 1_555
O4_14 Nd5_5 1_555 1_555
O5_14 Nd5_5 1_555 1_555
C2_14 O3_14 1_555 1_555
H1_14 O4_14 1_555 1_555
H2_14 O4_14 1_555 1_555
H3_14 O5_14 1_555 1_555
H4_14 O5_14 1_555 1_555
C4_14 C2_14 1_555 1_555
O10_14 C2_14 1_555 1_555
C7_14 C4_14 1_555 1_555
C8_14 C4_14 1_555 1_555
Nd4_5 O10_14 1_555 1_555
H8_14 C7_14 1_555 1_555
C11_14 C7_14 1_555 1_555
C12_14 C8_14 1_555 1_555
N2_14 C8_14 1_555 1_555
O11_14 Nd4_5 1_555 1_555
O12_14 Nd4_5 1_555 1_555
O13_14 Nd4_5 1_555 1_555
O14_6 Nd4_5 1_555 1_555
O15_6 Nd4_5 1_555 1_555
H10_14 C11_14 1_555 1_555
C15_14 C11_14 1_555 1_555
C16_14 C12_14 1_555 1_555
N4_14 C12_14 1_555 1_555
Cu1_14 N2_14 1_555 1_555
H11_14 O11_14 1_555 1_555
H12_14 O11_14 1_555 1_555
H13_14 O12_14 1_555 1_555
H14_14 O12_14 1_555 1_555
H15_14 O13_14 1_555 1_555
H16_14 O13_14 1_555 1_555
H18_14 C15_14 1_555 1_555
C20_14 C16_14 1_555 1_555
C21_14 C16_14 1_555 1_555
C22_14 N4_14 1_555 1_555
N5_14 Cu1_14 1_555 1_555
N7_14 Cu1_14 1_555 1_555
N8_14 Cu1_14 1_555 1_555
C24_14 C20_14 1_555 1_555
H21_14 C20_14 1_555 1_555
O19_14 C21_14 1_555 1_555
O20_14 C21_14 1_555 1_555
C25_14 N5_14 1_555 1_555
C26_14 N5_14 1_555 1_555
C29_14 N7_14 1_555 1_555
C30_14 N7_14 1_555 1_555
C31_14 N8_14 1_555 1_555
C32_14 N8_14 1_555 1_555
C33_14 C25_14 1_555 1_555
H25_14 C25_14 1_555 1_555
C34_14 C26_14 1_555 1_555
C37_14 C29_14 1_555 1_555
H27_14 C29_14 1_555 1_555
C38_14 C30_14 1_555 1_555
C39_14 C31_14 1_555 1_555
H28_14 C32_14 1_555 1_555
C40_14 C32_14 1_555 1_555
C41_14 C33_14 1_555 1_555
H29_10 C33_14 1_555 1_555
C45_14 C37_14 1_555 1_555
H31_14 C37_14 1_555 1_555
C47_14 C39_14 1_555 1_555
C48_14 C39_14 1_555 1_555
H32_14 C40_14 1_555 1_555
H33_14 C41_14 1_555 1_555
H35_14 C45_14 1_555 1_555
H36_14 C47_14 1_555 1_555
O17_4 C48_14 1_555 1_555
O18_4 C48_14 1_555 1_555
N2_14 C15_14 1_555 1_555
N4_14 Cu1_14 1_555 1_555
C22_14 C24_14 1_555 1_555
C30_14 C31_14 1_555 1_555
C34_14 C41_14 1_555 1_555
C38_14 C45_14 1_555 1_555
C40_14 C47_14 1_555 1_555
O1_14 C1_14 1_555 1_555
H5_14 O6_14 1_555 1_555
H6_14 O6_14 1_555 1_555
C3_14 C1_14 1_555 1_555
C5_11 C3_14 1_555 1_555
C6_14 C3_14 1_555 1_555
H7_11 C5_11 1_555 1_555
C9_11 C5_11 1_555 1_555
C10_14 C6_14 1_555 1_555
N1_14 C6_14 1_555 1_555
H9_11 C9_11 1_555 1_555
C13_11 C9_11 1_555 1_555
C14_14 C10_14 1_555 1_555
N3_14 C10_14 1_555 1_555
C17_14 C14_14 1_555 1_555
H17_11 C13_11 1_555 1_555
C18_14 C14_14 1_555 1_555
C19_14 N3_14 1_555 1_555
C23_14 C18_14 1_555 1_555
H19_14 C18_14 1_555 1_555
H20_14 C19_14 1_555 1_555
C27_14 N6_14 1_555 1_555
C28_14 N6_14 1_555 1_555
H23_14 C23_14 1_555 1_555
C35_14 C27_14 1_555 1_555
H26_14 C28_14 1_555 1_555
C36_14 C28_14 1_555 1_555
C43_14 C35_14 1_555 1_555
C44_14 C35_14 1_555 1_555
H30_14 C36_14 1_555 1_555
O21_14 C42_14 1_555 1_555
O22_14 C42_14 1_555 1_555
H34_14 C43_14 1_555 1_555
O14_6 C17_14 1_555 1_555
O15_6 C17_14 1_555 1_555
O7_7 C44_14 1_555 1_555
O8_4 C46_14 1_555 1_555
N1_14 C13_11 1_555 1_555
C19_14 C23_14 1_555 1_555
C36_14 C43_14 1_555 1_555
C46_15 C38_15 1_555 1_555
H35_15 C45_15 1_555 1_555
O27_12 C46_15 1_555 1_555
O28_12 C46_15 1_555 1_555
O29_12 C48_15 1_555 1_555
O30_12 C48_15 1_555 1_555
Nd5_7 O27_12 1_555 1_555
Nd4_7 O29_12 1_555 1_555
C38_15 C45_15 1_555 1_555
O28_12 Nd5_7 1_555 1_555
O30_12 Nd4_7 1_555 1_555
Nd5_6 O1_15 1_555 1_555
O1_15 C1_15 1_555 1_555
O2_15 Nd5_6 1_555 1_555
O3_15 Nd5_6 1_555 1_555
O4_15 Nd5_6 1_555 1_555
O5_15 Nd5_6 1_555 1_555
O6_15 Nd5_6 1_555 1_555
C1_15 O2_15 1_555 1_555
C2_15 O3_15 1_555 1_555
H1_15 O4_15 1_555 1_555
H2_15 O4_15 1_555 1_555
H3_15 O5_15 1_555 1_555
H4_15 O5_15 1_555 1_555
H5_15 O6_15 1_555 1_555
H6_15 O6_15 1_555 1_555
C3_15 C1_15 1_555 1_555
C4_15 C2_15 1_555 1_555
O10_15 C2_15 1_555 1_555
C5_12 C3_15 1_555 1_555
C6_15 C3_15 1_555 1_555
C7_15 C4_15 1_555 1_555
C8_15 C4_15 1_555 1_555
Nd4_6 O10_15 1_555 1_555
H7_12 C5_12 1_555 1_555
C9_12 C5_12 1_555 1_555
C10_15 C6_15 1_555 1_555
N1_15 C6_15 1_555 1_555
H8_15 C7_15 1_555 1_555
C11_15 C7_15 1_555 1_555
C12_15 C8_15 1_555 1_555
N2_15 C8_15 1_555 1_555
O11_15 Nd4_6 1_555 1_555
O12_15 Nd4_6 1_555 1_555
O13_15 Nd4_6 1_555 1_555
O15_7 Nd4_6 1_555 1_555
H9_12 C9_12 1_555 1_555
C13_12 C9_12 1_555 1_555
C14_15 C10_15 1_555 1_555
N3_15 C10_15 1_555 1_555
H10_15 C11_15 1_555 1_555
C15_15 C11_15 1_555 1_555
C16_15 C12_15 1_555 1_555
N4_15 C12_15 1_555 1_555
Cu1_15 N2_15 1_555 1_555
H11_15 O11_15 1_555 1_555
H12_15 O11_15 1_555 1_555
H13_15 O12_15 1_555 1_555
H14_15 O12_15 1_555 1_555
H15_15 O13_15 1_555 1_555
C18_15 C14_15 1_555 1_555
C19_15 N3_15 1_555 1_555
H18_15 C15_15 1_555 1_555
C20_15 C16_15 1_555 1_555
C21_15 C16_15 1_555 1_555
C22_15 N4_15 1_555 1_555
N5_15 Cu1_15 1_555 1_555
N6_15 Cu1_15 1_555 1_555
N7_15 Cu1_15 1_555 1_555
N8_15 Cu1_15 1_555 1_555
C23_15 C18_15 1_555 1_555
H19_15 C18_15 1_555 1_555
H20_15 C19_15 1_555 1_555
C24_15 C20_15 1_555 1_555
H21_15 C20_15 1_555 1_555
O19_15 C21_15 1_555 1_555
O20_15 C21_15 1_555 1_555
H22_15 C22_15 1_555 1_555
C25_15 N5_15 1_555 1_555
C26_15 N5_15 1_555 1_555
C27_15 N6_15 1_555 1_555
C28_15 N6_15 1_555 1_555
C29_15 N7_15 1_555 1_555
C30_15 N7_15 1_555 1_555
C31_15 N8_15 1_555 1_555
C32_15 N8_15 1_555 1_555
H23_15 C23_15 1_555 1_555
H24_15 C24_15 1_555 1_555
C33_15 C25_15 1_555 1_555
H25_15 C25_15 1_555 1_555
C34_15 C26_15 1_555 1_555
C35_15 C27_15 1_555 1_555
H26_15 C28_15 1_555 1_555
C36_15 C28_15 1_555 1_555
C37_15 C29_15 1_555 1_555
H27_15 C29_15 1_555 1_555
C39_15 C31_15 1_555 1_555
H28_15 C32_15 1_555 1_555
C40_15 C32_15 1_555 1_555
C41_15 C33_15 1_555 1_555
H29_11 C33_15 1_555 1_555
C42_15 C34_15 1_555 1_555
C43_15 C35_15 1_555 1_555
C44_15 C35_15 1_555 1_555
H31_15 C37_15 1_555 1_555
C47_15 C39_15 1_555 1_555
H32_15 C40_15 1_555 1_555
H33_15 C41_15 1_555 1_555
O21_15 C42_15 1_555 1_555
O22_15 C42_15 1_555 1_555
H36_15 C47_15 1_555 1_555
O16_8 C44_15 1_555 1_555
O7_8 C44_15 1_555 1_555
N1_15 C13_12 1_555 1_555
N2_15 C15_15 1_555 1_555
N4_15 Cu1_15 1_555 1_555
C19_15 C23_15 1_555 1_555
C22_15 C24_15 1_555 1_555
C26_15 C27_15 1_555 1_555
C30_15 C31_15 1_555 1_555
C34_15 C41_15 1_555 1_555
C36_15 C43_15 1_555 1_555
C40_15 C47_15 1_555 1_555
O15_7 C17_15 1_555 1_555
O2_16 Nd5_7 1_555 1_555
O3_16 Nd5_7 1_555 1_555
O4_16 Nd5_7 1_555 1_555
O5_16 Nd5_7 1_555 1_555
C2_16 O3_16 1_555 1_555
H1_16 O4_16 1_555 1_555
H2_16 O4_16 1_555 1_555
H3_16 O5_16 1_555 1_555
H4_16 O5_16 1_555 1_555
C4_16 C2_16 1_555 1_555
O10_16 C2_16 1_555 1_555
C7_16 C4_16 1_555 1_555
C8_16 C4_16 1_555 1_555
Nd4_7 O10_16 1_555 1_555
H8_16 C7_16 1_555 1_555
C11_16 C7_16 1_555 1_555
C12_16 C8_16 1_555 1_555
N2_16 C8_16 1_555 1_555
O11_16 Nd4_7 1_555 1_555
O12_16 Nd4_7 1_555 1_555
O13_16 Nd4_7 1_555 1_555
O14_8 Nd4_7 1_555 1_555
O15_8 Nd4_7 1_555 1_555
H10_16 C11_16 1_555 1_555
C15_16 C11_16 1_555 1_555
C16_16 C12_16 1_555 1_555
N4_16 C12_16 1_555 1_555
Cu1_16 N2_16 1_555 1_555
H11_16 O11_16 1_555 1_555
H12_16 O11_16 1_555 1_555
H13_16 O12_16 1_555 1_555
H14_16 O12_16 1_555 1_555
H15_16 O13_16 1_555 1_555
H16_16 O13_16 1_555 1_555
H18_16 C15_16 1_555 1_555
C20_16 C16_16 1_555 1_555
C21_16 C16_16 1_555 1_555
C22_16 N4_16 1_555 1_555
N5_16 Cu1_16 1_555 1_555
N7_16 Cu1_16 1_555 1_555
N8_16 Cu1_16 1_555 1_555
C24_16 C20_16 1_555 1_555
H21_16 C20_16 1_555 1_555
O19_16 C21_16 1_555 1_555
O20_16 C21_16 1_555 1_555
C25_16 N5_16 1_555 1_555
C26_16 N5_16 1_555 1_555
C29_16 N7_16 1_555 1_555
C30_16 N7_16 1_555 1_555
C31_16 N8_16 1_555 1_555
C32_16 N8_16 1_555 1_555
C33_16 C25_16 1_555 1_555
H25_16 C25_16 1_555 1_555
C34_16 C26_16 1_555 1_555
C37_16 C29_16 1_555 1_555
H27_16 C29_16 1_555 1_555
C38_16 C30_16 1_555 1_555
C39_16 C31_16 1_555 1_555
H28_16 C32_16 1_555 1_555
C40_16 C32_16 1_555 1_555
C41_16 C33_16 1_555 1_555
H29_12 C33_16 1_555 1_555
C45_16 C37_16 1_555 1_555
H31_16 C37_16 1_555 1_555
C47_16 C39_16 1_555 1_555
C48_16 C39_16 1_555 1_555
H32_16 C40_16 1_555 1_555
H33_16 C41_16 1_555 1_555
H35_16 C45_16 1_555 1_555
H36_16 C47_16 1_555 1_555
O17_3 C48_16 1_555 1_555
O18_3 C48_16 1_555 1_555
N2_16 C15_16 1_555 1_555
N4_16 Cu1_16 1_555 1_555
C22_16 C24_16 1_555 1_555
C30_16 C31_16 1_555 1_555
C34_16 C41_16 1_555 1_555
C38_16 C45_16 1_555 1_555
C40_16 C47_16 1_555 1_555
O1_16 C1_16 1_555 1_555
H5_16 O6_16 1_555 1_555
H6_16 O6_16 1_555 1_555
C3_16 C1_16 1_555 1_555
C6_16 C3_16 1_555 1_555
C10_16 C6_16 1_555 1_555
N1_16 C6_16 1_555 1_555
C14_16 C10_16 1_555 1_555
N3_16 C10_16 1_555 1_555
C17_16 C14_16 1_555 1_555
C18_16 C14_16 1_555 1_555
C19_16 N3_16 1_555 1_555
C23_16 C18_16 1_555 1_555
H19_16 C18_16 1_555 1_555
H20_16 C19_16 1_555 1_555
C27_16 N6_16 1_555 1_555
C28_16 N6_16 1_555 1_555
H23_16 C23_16 1_555 1_555
C35_16 C27_16 1_555 1_555
H26_16 C28_16 1_555 1_555
C36_16 C28_16 1_555 1_555
C43_16 C35_16 1_555 1_555
C44_16 C35_16 1_555 1_555
H30_16 C36_16 1_555 1_555
O21_16 C42_16 1_555 1_555
O22_16 C42_16 1_555 1_555
H34_16 C43_16 1_555 1_555
O14_8 C17_16 1_555 1_555
O15_8 C17_16 1_555 1_555
O7_5 C44_16 1_555 1_555
O8_3 C46_16 1_555 1_555
C19_16 C23_16 1_555 1_555
C36_16 C43_16 1_555 1_555
H7_13 C5_13 1_555 1_555
C9_13 C5_13 1_555 1_555
H9_13 C9_13 1_555 1_555
C13_13 C9_13 1_555 1_555
H17_13 C13_13 1_555 1_555
H7_14 C5_14 1_555 1_555
C9_14 C5_14 1_555 1_555
H9_14 C9_14 1_555 1_555
C13_14 C9_14 1_555 1_555
H17_14 C13_14 1_555 1_555
H7_15 C5_15 1_555 1_555
C9_15 C5_15 1_555 1_555
H9_15 C9_15 1_555 1_555
C13_15 C9_15 1_555 1_555
H17_15 C13_15 1_555 1_555
H7_16 C5_16 1_555 1_555
C9_16 C5_16 1_555 1_555
H9_16 C9_16 1_555 1_555
C13_16 C9_16 1_555 1_555
H17_16 C13_16 1_555 1_555

#END
