
###############################################################################
#
# This file contains modified crystal structure data generated from the
# MOF subset of the Cambridge Structural Database (CSD) v543 
# hosted by the Cambridge Crystallographic Data Centre (CCDC).
#
# This work is licensed under the Creative Commons
# Attribution-NonCommercial-ShareAlike 4.0 International License.
# To view a copy of this license, visit
# http://creativecommons.org/licenses/by-nc-sa/4.0/
# or send a letter to
# Creative Commons, PO Box 1866, Mountain View, CA 94042, USA.
#
# CIF created using the CSD Python API on 29 September 2022
# The structure has been converted into the P1 space group
# The structure has a 3D framework
# The original CSD entry YOZJEE01 is in the rhombohedral crystal system
# The framework has been calculated to contain at least 10.0% void space
# The void calculation uses a probe of radius 1.32A, grid spacing 0.4
#
###############################################################################

data_YOZJEE01
_chemical_formula_moiety         '(C144 H72 Ag17 Fe15 N72)n'
_symmetry_cell_setting           triclinic
_symmetry_space_group_name_H-M   'P 1'
_symmetry_Int_Tables_number      1
_space_group_name_Hall           'P 1'
loop_
_symmetry_equiv_pos_site_id
_symmetry_equiv_pos_as_xyz
1 x,y,z
_cell_length_a                   26.8761(8)
_cell_length_b                   26.8761(8)
_cell_length_c                   10.0456(4)
_cell_angle_alpha                90
_cell_angle_beta                 90
_cell_angle_gamma                120
_cell_volume                     6284.04
loop_
_atom_site_label
_atom_site_type_symbol
_atom_site_fract_x
_atom_site_fract_y
_atom_site_fract_z
Fe4 Fe -0.0000 0.5000 0.0000
Ag1 Ag 0.6667 0.03506(3) 0.3333
Fe1 Fe 0.5000 0.0000 0.0000
N2 N 0.55882(17) 0.00066(17) 0.1466(4)
C5 C 0.5958(2) 0.0079(2) 0.2137(6)
N17 N 0.77451(17) 0.10851(24) 0.5201(4)
C41 C 0.7375(2) 0.0788(3) 0.4530(6)
N21 N 0.44184(24) 0.00066(17) 0.1466(4)
C45 C 0.4121(3) 0.0079(2) 0.2137(6)
Ag9 Ag 0.36836(3) 0.03506(3) 0.3333
Fe4_2 Fe 1.0000 0.5000 0.0000
Fe5 Fe 0.5000 0.5000 0.0000
Fe6 Fe 0.8333 0.1667 0.6667
Fe1_2 Fe 0.5000 1.0000 0.0000
N1 N 0.45257(10) 0.9051(2) 0.0040(5)
N3 N 0.30391(10) 0.69609(10) 0.0044(5)
C1 C 0.48015(18) 0.87555(18) 0.0053(6)
H1 H 0.5201 0.8959 0.0058
C2 C 0.45279(18) 0.81674(17) 0.0059(5)
H2 H 0.4739 0.7979 0.0082
C3 C 0.39264(11) 0.7853(2) 0.0031(6)
C4 C 0.36149(11) 0.7230(2) 0.0031(5)
N4 N 0.0949(2) 0.54747(22) 0.0040(5)
N5 N 0.30391(10) 0.60782(14) 0.0044(5)
C6 C 0.12445(18) 0.60460(25) 0.0053(6)
H3 H 0.1041 0.6242 0.0058
C7 C 0.18326(17) 0.63605(25) 0.0059(5)
H4 H 0.2021 0.6760 0.0082
C8 C 0.2147(2) 0.60734(23) 0.0031(6)
C9 C 0.2770(2) 0.63849(23) 0.0031(5)
N6 N 0.45253(22) 0.54743(10) 0.0040(5)
N7 N 0.39218(14) 0.69609(10) 0.0044(5)
C10 C 0.39540(25) 0.51985(18) 0.0053(6)
H5 H 0.3758 0.4799 0.0058
C11 C 0.36395(25) 0.54721(18) 0.0059(5)
H6 H 0.3240 0.5261 0.0082
C12 C 0.39266(23) 0.60736(11) 0.0031(6)
C13 C 0.36151(23) 0.63851(11) 0.0031(5)
C14 C 0.39540(25) 0.87555(18) 0.0053(6)
H7 H 0.3758 0.8959 0.0058
C15 C 0.36395(25) 0.81674(17) 0.0059(5)
H8 H 0.3240 0.7979 0.0082
C16 C 0.48015(18) 0.60460(25) 0.0053(6)
H9 H 0.5201 0.6242 0.0058
C17 C 0.45279(18) 0.63605(25) 0.0059(5)
H10 H 0.4739 0.6760 0.0082
C18 C 0.12445(18) 0.51985(18) 0.0053(6)
H11 H 0.1041 0.4799 0.0058
C19 C 0.18326(17) 0.54721(18) 0.0059(5)
H12 H 0.2021 0.5261 0.0082
N9 N 0.44184(24) 0.44118(17) 0.1466(4)
C21 C 0.4121(3) 0.4042(2) 0.2137(6)
N24 N 0.55882(17) 0.55816(24) 0.1466(4)
C48 C 0.5958(2) 0.5879(3) 0.2137(6)
Ag3 Ag 0.36836(3) 0.3333 0.3333
Ag10 Ag 0.6667 0.63164(3) 0.3333
C51 C 0.3412(2) 0.2625(2) 0.4530(6)
N8 N 0.99934(17) 0.55816(24) 0.1466(4)
C20 C 0.9921(2) 0.5879(3) 0.2137(6)
N22 N 0.99934(17) 0.44118(17) 0.1466(4)
C46 C 0.9921(2) 0.4042(2) 0.2137(6)
Ag2 Ag 0.96494(3) 0.63164(3) 0.3333
Ag11 Ag 0.96494(3) 0.3333 0.3333
C50 C 0.9212(3) 0.6588(2) 0.4530(6)
N17_2 N 0.89149(24) 0.66601(29) 0.5201(4)
Fe6_2 Fe 0.8333 0.6667 0.6667
N17_3 N 0.33399(29) 0.22549(17) 0.5201(4)
Fe6_3 Fe 0.3333 0.1667 0.6667
C52 C 0.7375(4) 0.6588(2) 0.4530(6)
C53 C 0.3412(4) 0.0788(3) 0.4530(6)
C52_2 C 0.9212(3) 0.2625(4) 0.4530(6)
Ag4 Ag 0.29831(3) 0.29827(3) 1.0000
Ag5 Ag -0.0000 0.29827(3) 1.0000
Ag8 Ag 0.29831(3) 0.0000 1.0000
C49 C 0.3254(2) 0.2546(3) 0.8804(6)
Ag8_2 Ag 0.29831(3) 1.0000 1.0000
Ag5_2 Ag 1.0000 0.29827(3) 1.0000
Ag7 Ag 0.70173(3) 0.0000 1.0000
C53_2 C 0.9291(2) 0.2546(3) 0.8804(6)
Ag6 Ag 0.70173(3) 0.70169(3) 1.0000
Ag7_2 Ag 0.70173(3) 1.0000 1.0000
C52_3 C 0.7454(3) 0.6746(2) 0.8804(6)
C52_4 C 0.3254(2) 0.0709(4) 0.8804(6)
Ag7_3 Ag -0.0000 0.70169(3) 1.0000
C49_2 C 0.7454(3) 0.0709(4) 0.8804(6)
Ag7_4 Ag 1.0000 0.70169(3) 1.0000
C49_3 C 0.9291(4) 0.6746(2) 0.8804(6)
N17_4 N 0.33267(29) 0.22483(24) 0.8133(4)
N17_5 N 0.89215(17) 0.66733(29) 0.8133(4)
N17_6 N 0.77517(24) 0.10785(17) 0.8133(4)
N14 N 0.02942(10) 0.05885(14) 0.6623(5)
N15 N 0.2384(2) 0.11924(10) 0.6627(5)
C31 C 0.20888(18) 0.14682(18) 0.6614(6)
H17 H 0.2292 0.1868 0.6609
C32 C 0.15007(17) 0.11946(18) 0.6608(5)
H18 H 0.1312 0.1406 0.6585
C33 C 0.1186(2) 0.05931(11) 0.6636(6)
C34 C 0.0563(2) 0.02816(11) 0.6636(5)
C37 C 0.20888(18) 0.06207(25) 0.6614(6)
H21 H 0.2292 0.0425 0.6609
C38 C 0.15007(17) 0.03062(25) 0.6608(5)
H24 H 0.0093 0.1406 0.6585
H14 H 0.0093 0.8688 0.6585
N16 N 0.02942(10) 0.97058(10) 0.6623(5)
H22 H 0.1312 0.9907 0.6585
N13 N 0.88076(10) 0.11920(22) 0.6627(5)
C27 C 0.85318(18) 0.06207(25) 0.6614(6)
H15 H 0.8132 0.0425 0.6609
C28 C 0.88054(18) 0.03062(25) 0.6608(5)
C29 C 0.94069(11) 0.05933(23) 0.6636(6)
C30 C 0.97184(11) 0.02818(23) 0.6636(5)
C39 C 0.93793(25) 0.14682(18) 0.6614(6)
H23 H 0.9575 0.1868 0.6609
C40 C 0.96938(25) 0.11946(18) 0.6608(5)
N1_2 N 0.78590(10) 0.5718(2) 0.6707(5)
N3_2 N 0.63724(10) 0.36276(10) 0.6711(5)
C1_2 C 0.81348(18) 0.54222(18) 0.6720(6)
H1_2 H 0.8534 0.5626 0.6725
C2_2 C 0.78612(18) 0.48341(17) 0.6726(5)
H2_2 H 0.8072 0.4646 0.6749
C3_2 C 0.72597(11) 0.4520(2) 0.6698(6)
C4_2 C 0.69482(11) 0.3897(2) 0.6698(5)
N4_2 N 0.4282(2) 0.21414(22) 0.6707(5)
N5_2 N 0.63724(10) 0.27449(14) 0.6711(5)
C6_2 C 0.45778(18) 0.27127(25) 0.6720(6)
H3_2 H 0.4374 0.2909 0.6725
C7_2 C 0.51659(17) 0.30272(25) 0.6726(5)
H4_2 H 0.5354 0.3427 0.6749
C8_2 C 0.5480(2) 0.27401(23) 0.6698(6)
C9_2 C 0.6103(2) 0.30516(23) 0.6698(5)
N6_2 N 0.78586(22) 0.21410(10) 0.6707(5)
N7_2 N 0.72551(14) 0.36276(10) 0.6711(5)
C10_2 C 0.72873(25) 0.18652(18) 0.6720(6)
H5_2 H 0.7091 0.1466 0.6725
C11_2 C 0.69728(25) 0.21388(18) 0.6726(5)
H6_2 H 0.6573 0.1928 0.6749
C12_2 C 0.72599(23) 0.27403(11) 0.6698(6)
C13_2 C 0.69484(23) 0.30518(11) 0.6698(5)
C14_2 C 0.72873(25) 0.54222(18) 0.6720(6)
H7_2 H 0.7091 0.5626 0.6725
C15_2 C 0.69728(25) 0.48341(17) 0.6726(5)
H8_2 H 0.6573 0.4646 0.6749
C16_2 C 0.81348(18) 0.27127(25) 0.6720(6)
H9_2 H 0.8534 0.2909 0.6725
C17_2 C 0.78612(18) 0.30272(25) 0.6726(5)
H10_2 H 0.8072 0.3427 0.6749
C18_2 C 0.45778(18) 0.18652(18) 0.6720(6)
H11_2 H 0.4374 0.1466 0.6725
C19_2 C 0.51659(17) 0.21388(18) 0.6726(5)
H12_2 H 0.5354 0.1928 0.6749
N10 N 0.88080(22) 0.7616(2) 0.6627(5)
N12 N 0.94115(14) 0.97058(10) 0.6623(5)
C22 C 0.93793(25) 0.79112(18) 0.6614(6)
H13 H 0.9575 0.7708 0.6609
C23 C 0.96938(25) 0.84993(17) 0.6608(5)
C24 C 0.94067(23) 0.8814(2) 0.6636(6)
C25 C 0.97182(23) 0.9437(2) 0.6636(5)
H16 H 0.8594 0.9907 0.6585
C35 C 0.85318(18) 0.79112(18) 0.6614(6)
H19 H 0.8132 0.7708 0.6609
C36 C 0.88054(18) 0.84993(17) 0.6608(5)
H20 H 0.8594 0.8688 0.6585
N18 N 0.77451(17) 0.66601(17) 0.5201(4)
N19 N 0.33399(17) 0.10851(24) 0.5201(4)
N20 N 0.89149(24) 0.22549(17) 0.5201(4)
N21_2 N 0.77517(24) 0.66733(17) 0.8133(4)
N22_2 N 0.33267(17) 0.10785(17) 0.8133(4)
N24_2 N 0.89215(17) 0.22483(24) 0.8133(4)
Fe4_3 Fe -0.0000 0.5000 1.0000
Fe1_3 Fe 0.5000 0.0000 1.0000
N10_2 N 0.54747(22) 0.0949(2) 0.9960(5)
N12_2 N 0.60782(14) 0.30391(10) 0.9956(5)
C22_2 C 0.60460(25) 0.12445(18) 0.9947(6)
H13_2 H 0.6242 0.1041 0.9942
C23_2 C 0.63605(25) 0.18326(17) 0.9941(5)
H14_2 H 0.6760 0.2021 0.9918
C24_2 C 0.60734(23) 0.2147(2) 0.9969(6)
C25_2 C 0.63849(23) 0.2770(2) 0.9969(5)
N13_2 N 0.54743(10) 0.45253(22) 0.9960(5)
N14_2 N 0.69609(10) 0.39218(14) 0.9956(5)
C27_2 C 0.51985(18) 0.39540(25) 0.9947(6)
H15_2 H 0.4799 0.3758 0.9942
C28_2 C 0.54721(18) 0.36395(25) 0.9941(5)
H16_2 H 0.5261 0.3240 0.9918
C29_2 C 0.60736(11) 0.39266(23) 0.9969(6)
C30_2 C 0.63851(11) 0.36151(23) 0.9969(5)
N15_2 N 0.9051(2) 0.45257(10) 0.9960(5)
N16_2 N 0.69609(10) 0.30391(10) 0.9956(5)
C31_2 C 0.87555(18) 0.48015(18) 0.9947(6)
H17_2 H 0.8959 0.5201 0.9942
C32_2 C 0.81674(17) 0.45279(18) 0.9941(5)
H18_2 H 0.7979 0.4739 0.9918
C33_2 C 0.7853(2) 0.39264(11) 0.9969(6)
C34_2 C 0.7230(2) 0.36149(11) 0.9969(5)
C35_2 C 0.51985(18) 0.12445(18) 0.9947(6)
H19_2 H 0.4799 0.1041 0.9942
C36_2 C 0.54721(18) 0.18326(17) 0.9941(5)
H20_2 H 0.5261 0.2021 0.9918
C37_2 C 0.87555(18) 0.39540(25) 0.9947(6)
H21_2 H 0.8959 0.3758 0.9942
C38_2 C 0.81674(17) 0.36395(25) 0.9941(5)
H22_2 H 0.7979 0.3240 0.9918
C39_2 C 0.60460(25) 0.48015(18) 0.9947(6)
H23_2 H 0.6242 0.5201 0.9942
C40_2 C 0.63605(25) 0.45279(18) 0.9941(5)
H24_2 H 0.6760 0.4739 0.9918
Fe4_4 Fe 1.0000 0.5000 1.0000
Fe5_2 Fe 0.5000 0.5000 1.0000
Fe1_4 Fe 0.5000 1.0000 1.0000
N11 N 0.55816(24) 0.99934(17) 0.8534(4)
C26 C 0.5879(3) 0.9921(2) 0.7863(6)
N18_2 N 0.44118(17) 0.99934(17) 0.8534(4)
C42 C 0.4042(2) 0.9921(2) 0.7863(6)
N19_2 N 0.00066(17) 0.44184(24) 0.8534(4)
C43 C 0.0079(2) 0.4121(3) 0.7863(6)
N20_2 N 0.55816(24) 0.55882(17) 0.8534(4)
C44 C 0.5879(3) 0.5958(2) 0.7863(6)
N23 N 0.00066(17) 0.55882(17) 0.8534(4)
C47 C 0.0079(2) 0.5958(2) 0.7863(6)
Ag4_2 Ag 0.63164(3) 0.96494(3) 0.6667
Ag5_3 Ag 0.3333 0.96494(3) 0.6667
Ag6_2 Ag 0.03506(3) 0.36836(3) 0.6667
Ag7_5 Ag 0.03506(3) 0.6667 0.6667
Ag8_3 Ag 0.63164(3) 0.6667 0.6667
N27 N 0.44118(17) 0.44184(24) 0.8534(4)
C49_4 C 0.6588(2) 0.9212(3) 0.5470(6)
C52_5 C 0.0788(3) 0.3412(2) 0.5470(6)
C53_3 C 0.2625(2) 0.9212(3) 0.5470(6)
C47_2 C 0.4042(2) 0.4121(3) 0.7863(6)
Ag7_6 Ag 0.3333 0.36836(3) 0.6667
C49_5 C 0.0788(3) 0.7375(4) 0.5470(6)
C52_6 C 0.6588(2) 0.7375(4) 0.5470(6)
C49_6 C 0.2625(4) 0.3412(2) 0.5470(6)
N17_7 N 0.66601(29) 0.89149(24) 0.4799(4)
Fe6_4 Fe 0.6667 0.8333 0.3333
N17_8 N 0.22549(17) 0.33399(29) 0.4799(4)
Fe6_5 Fe 0.1667 0.3333 0.3333
N17_9 N 0.10851(24) 0.77451(17) 0.4799(4)
Fe6_6 Fe 0.1667 0.8333 0.3333
N1_3 N 0.11924(10) 0.2384(2) 0.3373(5)
C1_3 C 0.14682(18) 0.20888(18) 0.3386(6)
H1_3 H 0.1868 0.2292 0.3391
C2_3 C 0.11946(18) 0.15007(17) 0.3392(5)
H2_3 H 0.1406 0.1312 0.3415
C3_3 C 0.05931(11) 0.1186(2) 0.3364(6)
C4_3 C 0.02816(11) 0.0563(2) 0.3364(5)
N7_3 N 0.05885(14) 0.02942(10) 0.3377(5)
C14_3 C 0.06207(25) 0.20888(18) 0.3386(6)
H7_3 H 0.0425 0.2292 0.3391
C15_3 C 0.03062(25) 0.15007(17) 0.3392(5)
H10_3 H 0.1406 0.0093 0.3415
N10_3 N 0.21414(22) 0.4282(2) 0.3293(5)
N11_2 N 0.22483(24) 0.33267(17) 0.1867(4)
N12_3 N 0.27449(14) 0.63724(10) 0.3289(5)
C22_3 C 0.27127(25) 0.45778(18) 0.3280(6)
H13_3 H 0.2909 0.4374 0.3275
C23_3 C 0.30272(25) 0.51659(17) 0.3274(5)
H14_3 H 0.3427 0.5354 0.3251
C24_3 C 0.27401(23) 0.5480(2) 0.3302(6)
C25_3 C 0.30516(23) 0.6103(2) 0.3302(5)
C26_2 C 0.2546(3) 0.3254(2) 0.1196(6)
N13_3 N 0.21410(10) 0.78586(22) 0.3293(5)
N14_3 N 0.36276(10) 0.72551(14) 0.3289(5)
C27_3 C 0.18652(18) 0.72873(25) 0.3280(6)
H15_3 H 0.1466 0.7091 0.3275
C28_3 C 0.21388(18) 0.69728(25) 0.3274(5)
H16_3 H 0.1928 0.6573 0.3251
C29_3 C 0.27403(11) 0.72599(23) 0.3302(6)
C30_3 C 0.30518(11) 0.69484(23) 0.3302(5)
N15_3 N 0.5718(2) 0.78590(10) 0.3293(5)
N16_3 N 0.36276(10) 0.63724(10) 0.3289(5)
C31_3 C 0.54222(18) 0.81348(18) 0.3280(6)
H17_3 H 0.5626 0.8534 0.3275
C32_3 C 0.48341(17) 0.78612(18) 0.3274(5)
H18_3 H 0.4646 0.8072 0.3251
C33_3 C 0.4520(2) 0.72597(11) 0.3302(6)
C34_3 C 0.3897(2) 0.69482(11) 0.3302(5)
C35_3 C 0.18652(18) 0.45778(18) 0.3280(6)
H19_3 H 0.1466 0.4374 0.3275
C36_3 C 0.21388(18) 0.51659(17) 0.3274(5)
H20_3 H 0.1928 0.5354 0.3251
C37_3 C 0.54222(18) 0.72873(25) 0.3280(6)
H21_3 H 0.5626 0.7091 0.3275
C38_3 C 0.48341(17) 0.69728(25) 0.3274(5)
H22_3 H 0.4646 0.6573 0.3251
C39_3 C 0.27127(25) 0.81348(18) 0.3280(6)
H23_3 H 0.2909 0.8534 0.3275
C40_3 C 0.30272(25) 0.78612(18) 0.3274(5)
H24_3 H 0.3427 0.8072 0.3251
N18_3 N 0.10785(17) 0.33267(17) 0.1867(4)
C42_2 C 0.0709(2) 0.3254(2) 0.1196(6)
N21_3 N 0.10851(24) 0.33399(17) 0.4799(4)
Ag4_3 Ag 0.29831(3) 0.29827(3) 0.0000
Ag5_4 Ag -0.0000 0.29827(3) 0.0000
Ag8_4 Ag 0.29831(3) 0.0000 0.0000
N6_3 N 0.11920(22) 0.88076(10) 0.3373(5)
C10_3 C 0.06207(25) 0.85318(18) 0.3386(6)
H5_3 H 0.0425 0.8132 0.3391
C11_3 C 0.03062(25) 0.88054(18) 0.3392(5)
C12_3 C 0.05933(23) 0.94069(11) 0.3364(6)
C13_3 C 0.02818(23) 0.97184(11) 0.3364(5)
C16_3 C 0.14682(18) 0.93793(25) 0.3386(6)
H9_3 H 0.1868 0.9575 0.3391
C17_3 C 0.11946(18) 0.96938(25) 0.3392(5)
N20_3 N 0.22483(24) 0.89215(17) 0.1867(4)
C44_2 C 0.2546(3) 0.9291(2) 0.1196(6)
N24_3 N 0.22549(17) 0.89149(24) 0.4799(4)
Ag8_5 Ag 0.29831(3) 1.0000 0.0000
N27_2 N 0.10785(17) 0.77517(24) 0.1867(4)
N3_3 N 0.97058(10) 0.02942(10) 0.3377(5)
H4_3 H 0.8688 0.0093 0.3415
H8_3 H 0.9907 0.1312 0.3415
Ag5_5 Ag 1.0000 0.29827(3) 0.0000
Ag7_7 Ag 0.70173(3) 0.0000 0.0000
N4_3 N 0.7616(2) 0.88080(22) 0.3373(5)
N5_3 N 0.97058(10) 0.94115(14) 0.3377(5)
C6_3 C 0.79112(18) 0.93793(25) 0.3386(6)
H3_3 H 0.7708 0.9575 0.3391
C7_3 C 0.84993(17) 0.96938(25) 0.3392(5)
C8_3 C 0.8814(2) 0.94067(23) 0.3364(6)
C9_3 C 0.9437(2) 0.97182(23) 0.3364(5)
H6_3 H 0.9907 0.8594 0.3415
C18_3 C 0.79112(18) 0.85318(18) 0.3386(6)
H11_3 H 0.7708 0.8132 0.3391
C19_3 C 0.84993(17) 0.88054(18) 0.3392(5)
H12_3 H 0.8688 0.8594 0.3415
N19_3 N 0.66733(17) 0.77517(24) 0.1867(4)
C43_2 C 0.6746(2) 0.7454(3) 0.1196(6)
N22_3 N 0.66601(17) 0.77451(17) 0.4799(4)
N23_2 N 0.66733(17) 0.89215(17) 0.1867(4)
C47_3 C 0.6746(2) 0.9291(2) 0.1196(6)
Ag6_3 Ag 0.70173(3) 0.70169(3) 0.0000
Ag7_8 Ag 0.70173(3) 1.0000 0.0000
C47_4 C 0.0709(2) 0.7454(3) 0.1196(6)
Ag7_9 Ag -0.0000 0.70169(3) 0.0000
Ag7_10 Ag 1.0000 0.70169(3) 0.0000
loop_
_geom_bond_atom_site_label_1
_geom_bond_atom_site_label_2
_geom_bond_site_symmetry_1
_geom_bond_site_symmetry_2
Ag1 C5 1_555 1_555
N2 Fe1 1_555 1_555
C5 N2 1_555 1_555
N17 C41 1_555 1_555
C41 Ag1 1_555 1_555
N21 Fe1 1_555 1_555
C45 N21 1_555 1_555
Ag9 C45 1_555 1_555
Fe6 N17 1_555 1_555
Fe1_2 N1 1_555 1_555
N1 C1 1_555 1_555
N3 C4 1_555 1_555
C1 H1 1_555 1_555
C2 C1 1_555 1_555
H2 C2 1_555 1_555
C3 C2 1_555 1_555
C4 C3 1_555 1_555
N4 C6 1_555 1_555
N5 C9 1_555 1_555
C6 H3 1_555 1_555
C7 C6 1_555 1_555
H4 C7 1_555 1_555
C8 C7 1_555 1_555
C9 N3 1_555 1_555
N6 C10 1_555 1_555
N7 C4 1_555 1_555
C10 H5 1_555 1_555
C11 C10 1_555 1_555
H6 C11 1_555 1_555
C12 C11 1_555 1_555
C13 N5 1_555 1_555
C14 N1 1_555 1_555
H7 C14 1_555 1_555
C15 C3 1_555 1_555
H8 C15 1_555 1_555
C16 N6 1_555 1_555
H9 C16 1_555 1_555
C17 C12 1_555 1_555
H10 C17 1_555 1_555
C18 N4 1_555 1_555
H11 C18 1_555 1_555
C19 C8 1_555 1_555
H12 C19 1_555 1_555
Fe4 N4 1_555 1_555
Fe5 N6 1_555 1_555
N9 Fe5 1_555 1_555
C21 N9 1_555 1_555
N24 Fe5 1_555 1_555
C48 N24 1_555 1_555
Ag3 C21 1_555 1_555
Ag10 C48 1_555 1_555
C51 Ag3 1_555 1_555
C8 C9 1_555 1_555
N7 C13 1_555 1_555
C12 C13 1_555 1_555
C14 C15 1_555 1_555
C16 C17 1_555 1_555
C18 C19 1_555 1_555
N8 Fe4_2 1_555 1_555
C20 N8 1_555 1_555
N22 Fe4_2 1_555 1_555
C46 N22 1_555 1_555
Ag2 C20 1_555 1_555
Ag11 C46 1_555 1_555
C50 Ag2 1_555 1_555
N17_2 C50 1_555 1_555
Fe6_2 N17_2 1_555 1_555
N17_3 C51 1_555 1_555
Fe6_3 N17_3 1_555 1_555
C52 Ag10 1_555 1_555
C53 Ag9 1_555 1_555
C52_2 Ag11 1_555 1_555
C49 Ag4 1_555 1_555
C53_2 Ag5_2 1_555 1_555
C52_3 Ag6 1_555 1_555
C52_4 Ag8 1_555 1_555
C49_2 Ag7 1_555 1_555
C49_3 Ag7_4 1_555 1_555
N17_4 C49 1_555 1_555
Fe6_3 N17_4 1_555 1_555
N17_5 C49_3 1_555 1_555
Fe6_2 N17_5 1_555 1_555
N17_6 C49_2 1_555 1_555
Fe6 N17_6 1_555 1_555
N15 C31 1_555 1_555
C31 H17 1_555 1_555
C32 C31 1_555 1_555
H18 C32 1_555 1_555
C33 C32 1_555 1_555
C34 N14 1_555 1_555
C37 N15 1_555 1_555
H21 C37 1_555 1_555
C38 C33 1_555 1_555
Fe6_3 N15 1_555 1_555
C33 C34 1_555 1_555
C37 C38 1_555 1_555
N13 C27 1_555 1_555
C27 H15 1_555 1_555
C28 C27 1_555 1_555
C29 C28 1_555 1_555
C39 N13 1_555 1_555
H23 C39 1_555 1_555
C40 C29 1_555 1_555
Fe6 N13 1_555 1_555
C29 C30 1_555 1_555
C39 C40 1_555 1_555
Fe6_2 N1_2 1_555 1_555
N1_2 C1_2 1_555 1_555
N3_2 C4_2 1_555 1_555
C1_2 H1_2 1_555 1_555
C2_2 C1_2 1_555 1_555
H2_2 C2_2 1_555 1_555
C3_2 C2_2 1_555 1_555
C4_2 C3_2 1_555 1_555
N4_2 C6_2 1_555 1_555
N5_2 C9_2 1_555 1_555
C6_2 H3_2 1_555 1_555
C7_2 C6_2 1_555 1_555
H4_2 C7_2 1_555 1_555
C8_2 C7_2 1_555 1_555
C9_2 N3_2 1_555 1_555
N6_2 C10_2 1_555 1_555
N7_2 C4_2 1_555 1_555
C10_2 H5_2 1_555 1_555
C11_2 C10_2 1_555 1_555
H6_2 C11_2 1_555 1_555
C12_2 C11_2 1_555 1_555
C13_2 N5_2 1_555 1_555
C14_2 N1_2 1_555 1_555
H7_2 C14_2 1_555 1_555
C15_2 C3_2 1_555 1_555
H8_2 C15_2 1_555 1_555
C16_2 N6_2 1_555 1_555
H9_2 C16_2 1_555 1_555
C17_2 C12_2 1_555 1_555
H10_2 C17_2 1_555 1_555
C18_2 N4_2 1_555 1_555
H11_2 C18_2 1_555 1_555
C19_2 C8_2 1_555 1_555
H12_2 C19_2 1_555 1_555
Fe6_3 N4_2 1_555 1_555
Fe6 N6_2 1_555 1_555
N10 Fe6_2 1_555 1_555
N12 C25 1_555 1_555
C22 N10 1_555 1_555
H13 C22 1_555 1_555
C23 C22 1_555 1_555
C24 C23 1_555 1_555
C25 C24 1_555 1_555
C35 N10 1_555 1_555
H19 C35 1_555 1_555
C36 C24 1_555 1_555
H20 C36 1_555 1_555
N18 Fe6_2 1_555 1_555
C52 N18 1_555 1_555
N19 Fe6_3 1_555 1_555
C53 N19 1_555 1_555
N20 Fe6 1_555 1_555
C52_2 N20 1_555 1_555
N21_2 Fe6_2 1_555 1_555
C52_3 N21_2 1_555 1_555
N22_2 Fe6_3 1_555 1_555
C52_4 N22_2 1_555 1_555
N24_2 Fe6 1_555 1_555
C53_2 N24_2 1_555 1_555
C8_2 C9_2 1_555 1_555
N7_2 C13_2 1_555 1_555
C12_2 C13_2 1_555 1_555
C14_2 C15_2 1_555 1_555
C16_2 C17_2 1_555 1_555
C18_2 C19_2 1_555 1_555
C35 C36 1_555 1_555
N10_2 Fe1_3 1_555 1_555
N12_2 C25_2 1_555 1_555
C22_2 N10_2 1_555 1_555
H13_2 C22_2 1_555 1_555
C23_2 C22_2 1_555 1_555
H14_2 C23_2 1_555 1_555
C24_2 C23_2 1_555 1_555
C25_2 C24_2 1_555 1_555
N13_2 C27_2 1_555 1_555
N14_2 C30_2 1_555 1_555
C27_2 H15_2 1_555 1_555
C28_2 C27_2 1_555 1_555
H16_2 C28_2 1_555 1_555
C29_2 C28_2 1_555 1_555
C30_2 N12_2 1_555 1_555
N15_2 C31_2 1_555 1_555
N16_2 C25_2 1_555 1_555
C31_2 H17_2 1_555 1_555
C32_2 C31_2 1_555 1_555
H18_2 C32_2 1_555 1_555
C33_2 C32_2 1_555 1_555
C34_2 N14_2 1_555 1_555
C35_2 N10_2 1_555 1_555
H19_2 C35_2 1_555 1_555
C36_2 C24_2 1_555 1_555
H20_2 C36_2 1_555 1_555
C37_2 N15_2 1_555 1_555
H21_2 C37_2 1_555 1_555
C38_2 C33_2 1_555 1_555
H22_2 C38_2 1_555 1_555
C39_2 N13_2 1_555 1_555
H23_2 C39_2 1_555 1_555
C40_2 C29_2 1_555 1_555
H24_2 C40_2 1_555 1_555
Fe4_4 N15_2 1_555 1_555
Fe5_2 N13_2 1_555 1_555
C29_2 C30_2 1_555 1_555
N16_2 C34_2 1_555 1_555
C33_2 C34_2 1_555 1_555
C35_2 C36_2 1_555 1_555
C37_2 C38_2 1_555 1_555
C39_2 C40_2 1_555 1_555
N11 Fe1_4 1_555 1_555
C26 N11 1_555 1_555
N18_2 Fe1_4 1_555 1_555
C42 N18_2 1_555 1_555
N19_2 Fe4_3 1_555 1_555
C43 N19_2 1_555 1_555
N20_2 Fe5_2 1_555 1_555
C44 N20_2 1_555 1_555
N23 Fe4_3 1_555 1_555
C47 N23 1_555 1_555
Ag4_2 C26 1_555 1_555
Ag5_3 C42 1_555 1_555
Ag6_2 C43 1_555 1_555
Ag7_5 C47 1_555 1_555
Ag8_3 C44 1_555 1_555
N27 Fe5_2 1_555 1_555
C49_4 Ag4_2 1_555 1_555
C52_5 Ag6_2 1_555 1_555
C53_3 Ag5_3 1_555 1_555
C47_2 N27 1_555 1_555
Ag7_6 C47_2 1_555 1_555
C49_5 Ag7_5 1_555 1_555
C52_6 Ag8_3 1_555 1_555
C49_6 Ag7_6 1_555 1_555
N17_7 C49_4 1_555 1_555
Fe6_4 N17_7 1_555 1_555
N17_8 C49_6 1_555 1_555
Fe6_5 N17_8 1_555 1_555
N17_9 C49_5 1_555 1_555
Fe6_6 N17_9 1_555 1_555
Fe6_5 N1_3 1_555 1_555
N1_3 C1_3 1_555 1_555
C1_3 H1_3 1_555 1_555
C2_3 C1_3 1_555 1_555
H2_3 C2_3 1_555 1_555
C3_3 C2_3 1_555 1_555
C4_3 C3_3 1_555 1_555
N7_3 C4_3 1_555 1_555
C14_3 N1_3 1_555 1_555
H7_3 C14_3 1_555 1_555
C15_3 C3_3 1_555 1_555
N10_3 Fe6_5 1_555 1_555
N11_2 Fe6_5 1_555 1_555
N12_3 C25_3 1_555 1_555
C22_3 N10_3 1_555 1_555
H13_3 C22_3 1_555 1_555
C23_3 C22_3 1_555 1_555
H14_3 C23_3 1_555 1_555
C24_3 C23_3 1_555 1_555
C25_3 C24_3 1_555 1_555
C26_2 N11_2 1_555 1_555
N13_3 C27_3 1_555 1_555
N14_3 C30_3 1_555 1_555
C27_3 H15_3 1_555 1_555
C28_3 C27_3 1_555 1_555
H16_3 C28_3 1_555 1_555
C29_3 C28_3 1_555 1_555
C30_3 N12_3 1_555 1_555
N15_3 C31_3 1_555 1_555
N16_3 C25_3 1_555 1_555
C31_3 H17_3 1_555 1_555
C32_3 C31_3 1_555 1_555
H18_3 C32_3 1_555 1_555
C33_3 C32_3 1_555 1_555
C34_3 N14_3 1_555 1_555
C35_3 N10_3 1_555 1_555
H19_3 C35_3 1_555 1_555
C36_3 C24_3 1_555 1_555
H20_3 C36_3 1_555 1_555
C37_3 N15_3 1_555 1_555
H21_3 C37_3 1_555 1_555
C38_3 C33_3 1_555 1_555
H22_3 C38_3 1_555 1_555
C39_3 N13_3 1_555 1_555
H23_3 C39_3 1_555 1_555
C40_3 C29_3 1_555 1_555
H24_3 C40_3 1_555 1_555
N18_3 Fe6_5 1_555 1_555
C42_2 N18_3 1_555 1_555
N21_3 Fe6_5 1_555 1_555
C52_5 N21_3 1_555 1_555
Ag4_3 C26_2 1_555 1_555
Ag5_4 C42_2 1_555 1_555
Fe6_4 N15_3 1_555 1_555
Fe6_6 N13_3 1_555 1_555
C14_3 C15_3 1_555 1_555
C29_3 C30_3 1_555 1_555
N16_3 C34_3 1_555 1_555
C33_3 C34_3 1_555 1_555
C35_3 C36_3 1_555 1_555
C37_3 C38_3 1_555 1_555
C39_3 C40_3 1_555 1_555
N6_3 C10_3 1_555 1_555
C10_3 H5_3 1_555 1_555
C11_3 C10_3 1_555 1_555
C12_3 C11_3 1_555 1_555
C16_3 N6_3 1_555 1_555
H9_3 C16_3 1_555 1_555
C17_3 C12_3 1_555 1_555
Fe6_6 N6_3 1_555 1_555
N20_3 Fe6_6 1_555 1_555
C44_2 N20_3 1_555 1_555
N24_3 Fe6_6 1_555 1_555
C53_3 N24_3 1_555 1_555
Ag8_5 C44_2 1_555 1_555
N27_2 Fe6_6 1_555 1_555
C12_3 C13_3 1_555 1_555
C16_3 C17_3 1_555 1_555
N4_3 C6_3 1_555 1_555
N5_3 C9_3 1_555 1_555
C6_3 H3_3 1_555 1_555
C7_3 C6_3 1_555 1_555
C8_3 C7_3 1_555 1_555
C18_3 N4_3 1_555 1_555
H11_3 C18_3 1_555 1_555
C19_3 C8_3 1_555 1_555
H12_3 C19_3 1_555 1_555
Fe6_4 N4_3 1_555 1_555
N19_3 Fe6_4 1_555 1_555
C43_2 N19_3 1_555 1_555
N22_3 Fe6_4 1_555 1_555
C52_6 N22_3 1_555 1_555
N23_2 Fe6_4 1_555 1_555
C47_3 N23_2 1_555 1_555
Ag6_3 C43_2 1_555 1_555
Ag7_8 C47_3 1_555 1_555
C8_3 C9_3 1_555 1_555
C18_3 C19_3 1_555 1_555
C47_4 N27_2 1_555 1_555
Ag7_9 C47_4 1_555 1_555

#END
