
###############################################################################
#
# This file contains modified crystal structure data generated from the
# MOF subset of the Cambridge Structural Database (CSD) v543 
# hosted by the Cambridge Crystallographic Data Centre (CCDC).
#
# This work is licensed under the Creative Commons
# Attribution-NonCommercial-ShareAlike 4.0 International License.
# To view a copy of this license, visit
# http://creativecommons.org/licenses/by-nc-sa/4.0/
# or send a letter to
# Creative Commons, PO Box 1866, Mountain View, CA 94042, USA.
#
# CIF created using the CSD Python API on 29 September 2022
# The structure has been converted into the P1 space group
# The structure has a 3D framework
# The original CSD entry YOZJEE is in the rhombohedral crystal system
# The framework has been calculated to contain at least 10.0% void space
# The void calculation uses a probe of radius 1.32A, grid spacing 0.4
#
###############################################################################

data_YOZJEE
_chemical_formula_moiety         '(C144 H72 Ag18 Fe15 N72)n'
_symmetry_cell_setting           triclinic
_symmetry_space_group_name_H-M   'P 1'
_symmetry_Int_Tables_number      1
_space_group_name_Hall           'P 1'
loop_
_symmetry_equiv_pos_site_id
_symmetry_equiv_pos_as_xyz
1 x,y,z
_cell_length_a                   26.2174(12)
_cell_length_b                   26.2174(12)
_cell_length_c                   9.5734(5)
_cell_angle_alpha                90
_cell_angle_beta                 90
_cell_angle_gamma                120
_cell_volume                     5698.7
loop_
_atom_site_label
_atom_site_type_symbol
_atom_site_fract_x
_atom_site_fract_y
_atom_site_fract_z
Fe2 Fe 0.0000 0.5000 0.0000
N26 N 0.0877(2) 0.54387(11) 0.0056(5)
Fe1 Fe 0.5000 -0.0000 0.0000
Fe2_2 Fe 1.0000 0.5000 0.0000
Fe3 Fe 0.5000 0.5000 0.0000
N11 N 0.44721(23) 0.00155(16) 0.1413(4)
C26 C 0.4147(3) 0.0066(2) 0.2141(5)
N18 N 0.55434(16) 0.00155(16) 0.1413(4)
C42 C 0.5919(2) 0.0066(2) 0.2141(5)
N19 N 0.99845(16) 0.55279(23) 0.1413(4)
C43 C 0.9934(2) 0.5853(3) 0.2141(5)
N22 N 0.99845(16) 0.44566(16) 0.1413(4)
C46 C 0.9934(2) 0.4081(2) 0.2141(5)
N23 N 0.44721(23) 0.44566(16) 0.1413(4)
C47 C 0.4147(3) 0.4081(2) 0.2141(5)
Ag4 Ag 0.36737(2) 0.03407(2) 0.3333
Ag5 Ag 0.6667 0.03407(2) 0.3333
Ag6 Ag 0.96593(2) 0.63263(2) 0.3333
Ag7 Ag 0.96593(2) 0.3333 0.3333
Ag8 Ag 0.36737(2) 0.3333 0.3333
N25 N 0.45613(11) 0.54383(23) 0.0056(5)
N27 N 0.55434(16) 0.55279(23) 0.1413(4)
C51 C 0.3399(2) 0.0814(3) 0.4526(5)
C52 C 0.9186(3) 0.6601(2) 0.4526(5)
C53 C 0.7414(2) 0.0814(3) 0.4526(5)
Fe1_2 Fe 0.5000 1.0000 0.0000
N10 N 0.45617(23) 0.9123(2) 0.0056(5)
N12 N 0.30293(23) 0.69703(12) 0.0010(5)
C22 C 0.48468(25) 0.88142(18) 0.0062(5)
H13 H 0.5256 0.9021 0.0079
C23 C 0.45596(26) 0.82045(18) 0.0043(5)
H14 H 0.4772 0.8007 0.0038
C24 C 0.39477(33) 0.7895(3) 0.0034(8)
C25 C 0.36195(23) 0.7239(2) 0.0004(7)
N14 N 0.3941(2) 0.69707(23) 0.0010(5)
C27 C 0.39674(18) 0.51532(25) 0.0062(5)
H15 H 0.3765 0.4744 0.0079
C28 C 0.36449(19) 0.54404(26) 0.0043(5)
H16 H 0.3235 0.5228 0.0038
C29 C 0.39473(13) 0.60523(33) 0.0034(8)
C30 C 0.36195(12) 0.63805(23) 0.0004(7)
N16 N 0.30297(12) 0.6059(2) 0.0010(5)
C31 C 0.11858(18) 0.60326(18) 0.0062(5)
H17 H 0.0979 0.6235 0.0079
C32 C 0.17955(18) 0.63551(19) 0.0043(5)
H18 H 0.1993 0.6765 0.0038
C33 C 0.2105(3) 0.60527(13) 0.0034(8)
C34 C 0.2761(2) 0.63805(12) 0.0004(7)
C35 C 0.39674(18) 0.88142(18) 0.0062(5)
H19 H 0.3765 0.9021 0.0079
C36 C 0.36449(19) 0.82045(18) 0.0043(5)
H20 H 0.3235 0.8007 0.0038
C37 C 0.11858(18) 0.51532(25) 0.0062(5)
H21 H 0.0979 0.4744 0.0079
C38 C 0.17955(18) 0.54404(26) 0.0043(5)
H22 H 0.1993 0.5228 0.0038
C39 C 0.48468(25) 0.60326(18) 0.0062(5)
H23 H 0.5256 0.6235 0.0079
C40 C 0.45596(26) 0.63551(19) 0.0043(5)
H24 H 0.4772 0.6765 0.0038
C46_2 C 0.5919(2) 0.5853(3) 0.2141(5)
Ag7_2 Ag 0.6667 0.63263(2) 0.3333
C51_2 C 0.9186(3) 0.2586(4) 0.4526(5)
C52_2 C 0.3399(2) 0.2586(4) 0.4526(5)
C51_3 C 0.7414(4) 0.6601(2) 0.4526(5)
N17 N 0.33488(28) 0.11388(23) 0.5254(4)
Fe6 Fe 0.3333 0.1667 0.6667
N17_2 N 0.77899(16) 0.66512(28) 0.5254(4)
Fe6_2 Fe 0.8333 0.6667 0.6667
N17_3 N 0.88612(23) 0.22101(16) 0.5254(4)
Fe6_3 Fe 0.8333 0.1667 0.6667
Ag3 Ag 0.29930(2) 0.0000 1.0000
Ag11 Ag 0.70074(2) 0.0000 1.0000
C50 C 0.3267(2) 0.0748(2) 0.8808(5)
Ag1 Ag -0.0000 0.29926(2) 1.0000
Ag2 Ag 0.70074(2) 0.70070(2) 1.0000
Ag3_2 Ag 0.29930(2) 1.0000 1.0000
Ag9 Ag 0.29930(2) 0.29926(2) 1.0000
Ag10 Ag -0.0000 0.70070(2) 1.0000
Ag11_2 Ag 0.70074(2) 1.0000 1.0000
C49 C 0.7480(3) 0.6733(2) 0.8808(5)
Ag1_2 Ag 1.0000 0.29926(2) 1.0000
N17_4 N 0.88767(16) 0.21946(23) 0.8080(4)
C41 C 0.9252(2) 0.2520(3) 0.8808(5)
Ag10_2 Ag 1.0000 0.70070(2) 1.0000
N17_5 N 0.78054(23) 0.66822(28) 0.8080(4)
N17_6 N 0.33178(28) 0.11233(16) 0.8080(4)
C53_2 C 0.3267(4) 0.2520(3) 0.8808(5)
C52_3 C 0.9252(4) 0.6733(2) 0.8808(5)
C52_4 C 0.7480(3) 0.0748(4) 0.8808(5)
N4 N 0.2456(2) 0.12284(23) 0.6611(5)
C6 C 0.21475(18) 0.15135(25) 0.6605(5)
H3 H 0.2354 0.1923 0.6588
C7 C 0.15378(18) 0.12263(26) 0.6624(5)
H4 H 0.1340 0.1439 0.6629
C8 C 0.1228(3) 0.06144(33) 0.6633(8)
C9 C 0.0572(2) 0.02862(23) 0.6663(7)
N7 N 0.03040(23) 0.0608(2) 0.6657(5)
H10 H 0.0098 0.1439 0.6629
C18 C 0.21475(18) 0.06341(18) 0.6605(5)
H11 H 0.2354 0.0432 0.6588
C19 C 0.15378(18) 0.03116(19) 0.6624(5)
N19_2 N 0.33178(16) 0.21946(23) 0.8080(4)
N21 N 0.33488(16) 0.22101(16) 0.5254(4)
N26_2 N 0.4210(2) 0.21054(11) 0.6723(5)
H2 H 0.0098 0.8660 0.6629
N5 N 0.03036(12) 0.96960(23) 0.6657(5)
H12 H 0.1340 0.9902 0.6629
N6 N 0.87716(23) 0.12280(11) 0.6611(5)
C10 C 0.84865(25) 0.06341(18) 0.6605(5)
H5 H 0.8077 0.0432 0.6588
C11 C 0.87737(26) 0.03116(19) 0.6624(5)
C12 C 0.93856(33) 0.06140(13) 0.6633(8)
C13 C 0.97138(23) 0.02862(12) 0.6663(7)
C16 C 0.93659(18) 0.15135(25) 0.6605(5)
H9 H 0.9568 0.1923 0.6588
C17 C 0.96884(19) 0.12263(26) 0.6624(5)
N23_2 N 0.78054(23) 0.11233(16) 0.8080(4)
N24 N 0.77899(16) 0.11388(23) 0.5254(4)
N25_2 N 0.78946(11) 0.21050(23) 0.6723(5)
N1 N 0.87720(11) 0.7544(2) 0.6611(5)
N3 N 0.9392(2) 0.96964(12) 0.6657(5)
C1 C 0.93659(18) 0.78525(18) 0.6605(5)
H1 H 0.9568 0.7646 0.6588
C2 C 0.96884(19) 0.84622(18) 0.6624(5)
C3 C 0.93860(13) 0.8772(3) 0.6633(8)
C4 C 0.97138(12) 0.9428(2) 0.6663(7)
H6 H 0.8561 0.9902 0.6629
C14 C 0.84865(25) 0.78525(18) 0.6605(5)
H7 H 0.8077 0.7646 0.6588
C15 C 0.87737(26) 0.84622(18) 0.6624(5)
H8 H 0.8561 0.8660 0.6629
N10_2 N 0.78950(23) 0.5790(2) 0.6723(5)
N12_2 N 0.63626(23) 0.36370(12) 0.6677(5)
C22_2 C 0.81801(25) 0.54809(18) 0.6729(5)
H13_2 H 0.8589 0.5688 0.6746
C23_2 C 0.78929(26) 0.48712(18) 0.6710(5)
H14_2 H 0.8105 0.4674 0.6705
C24_2 C 0.72810(33) 0.4562(3) 0.6701(8)
C25_2 C 0.69528(23) 0.3906(2) 0.6671(7)
N14_2 N 0.7274(2) 0.36374(23) 0.6677(5)
C27_2 C 0.73007(18) 0.18199(25) 0.6729(5)
H15_2 H 0.7098 0.1411 0.6746
C28_2 C 0.69782(19) 0.21071(26) 0.6710(5)
H16_2 H 0.6568 0.1895 0.6705
C29_2 C 0.72806(13) 0.27190(33) 0.6701(8)
C30_2 C 0.69528(12) 0.30472(23) 0.6671(7)
N16_2 N 0.63630(12) 0.2726(2) 0.6677(5)
C31_2 C 0.45191(18) 0.26993(18) 0.6729(5)
H17_2 H 0.4312 0.2902 0.6746
C32_2 C 0.51288(18) 0.30218(19) 0.6710(5)
H18_2 H 0.5326 0.3432 0.6705
C33_2 C 0.5438(3) 0.27194(13) 0.6701(8)
C34_2 C 0.6094(2) 0.30472(12) 0.6671(7)
C35_2 C 0.73007(18) 0.54809(18) 0.6729(5)
H19_2 H 0.7098 0.5688 0.6746
C36_2 C 0.69782(19) 0.48712(18) 0.6710(5)
H20_2 H 0.6568 0.4674 0.6705
C37_2 C 0.45191(18) 0.18199(25) 0.6729(5)
H21_2 H 0.4312 0.1411 0.6746
C38_2 C 0.51288(18) 0.21071(26) 0.6710(5)
H22_2 H 0.5326 0.1895 0.6705
C39_2 C 0.81801(25) 0.26993(18) 0.6729(5)
H23_2 H 0.8589 0.2902 0.6746
C40_2 C 0.78929(26) 0.30218(19) 0.6710(5)
H24_2 H 0.8105 0.3432 0.6705
N18_2 N 0.88767(16) 0.66822(16) 0.8080(4)
N20 N 0.88612(23) 0.66512(16) 0.5254(4)
Fe2_3 Fe 0.0000 0.5000 1.0000
N8 N 0.00155(16) 0.44721(23) 0.8587(4)
C20 C 0.0066(2) 0.4147(3) 0.7859(5)
N21_2 N 0.00155(16) 0.55434(16) 0.8587(4)
C45 C 0.0066(2) 0.5919(2) 0.7859(5)
Ag2_2 Ag 0.03407(2) 0.36737(2) 0.6667
Ag11_3 Ag 0.03407(2) 0.6667 0.6667
C49_2 C 0.0814(3) 0.3399(2) 0.5474(5)
Fe1_3 Fe 0.5000 0.0000 1.0000
N1_2 N 0.54387(11) 0.0877(2) 0.9944(5)
N3_2 N 0.6059(2) 0.30297(12) 0.9990(5)
C1_2 C 0.60326(18) 0.11858(18) 0.9938(5)
H1_2 H 0.6235 0.0979 0.9921
C2_2 C 0.63551(19) 0.17955(18) 0.9957(5)
H2_2 H 0.6765 0.1993 0.9962
C3_2 C 0.60527(13) 0.2105(3) 0.9966(8)
C4_2 C 0.63805(12) 0.2761(2) 0.9996(7)
N4_2 N 0.9123(2) 0.45617(23) 0.9944(5)
N5_2 N 0.69703(12) 0.30293(23) 0.9990(5)
C6_2 C 0.88142(18) 0.48468(25) 0.9938(5)
H3_2 H 0.9021 0.5256 0.9921
C7_2 C 0.82045(18) 0.45596(26) 0.9957(5)
H4_2 H 0.8007 0.4772 0.9962
C8_2 C 0.7895(3) 0.39477(33) 0.9966(8)
C9_2 C 0.7239(2) 0.36195(23) 0.9996(7)
N6_2 N 0.54383(23) 0.45613(11) 0.9944(5)
N7_2 N 0.69707(23) 0.3941(2) 0.9990(5)
C10_2 C 0.51532(25) 0.39674(18) 0.9938(5)
H5_2 H 0.4744 0.3765 0.9921
C11_2 C 0.54404(26) 0.36449(19) 0.9957(5)
H6_2 H 0.5228 0.3235 0.9962
C12_2 C 0.60523(33) 0.39473(13) 0.9966(8)
C13_2 C 0.63805(23) 0.36195(12) 0.9996(7)
C14_2 C 0.51532(25) 0.11858(18) 0.9938(5)
H7_2 H 0.4744 0.0979 0.9921
C15_2 C 0.54404(26) 0.17955(18) 0.9957(5)
H8_2 H 0.5228 0.1993 0.9962
C16_2 C 0.60326(18) 0.48468(25) 0.9938(5)
H9_2 H 0.6235 0.5256 0.9921
C17_2 C 0.63551(19) 0.45596(26) 0.9957(5)
H10_2 H 0.6765 0.4772 0.9962
C18_2 C 0.88142(18) 0.39674(18) 0.9938(5)
H11_2 H 0.9021 0.3765 0.9921
C19_2 C 0.82045(18) 0.36449(19) 0.9957(5)
H12_2 H 0.8007 0.3235 0.9962
Fe2_4 Fe 1.0000 0.5000 1.0000
Fe3_2 Fe 0.5000 0.5000 1.0000
N9 N 0.55279(23) 0.55434(16) 0.8587(4)
C21 C 0.5853(3) 0.5919(2) 0.7859(5)
N24_2 N 0.44566(16) 0.44721(23) 0.8587(4)
C48 C 0.4081(2) 0.4147(3) 0.7859(5)
Ag3_3 Ag 0.63263(2) 0.6667 0.6667
Ag10_3 Ag 0.3333 0.36737(2) 0.6667
C50_2 C 0.6601(2) 0.7414(2) 0.5474(5)
Ag1_3 Ag 0.3333 0.96593(2) 0.6667
Fe1_4 Fe 0.5000 1.0000 1.0000
N2 N 0.44566(16) 0.99845(16) 0.8587(4)
C5 C 0.4081(2) 0.9934(2) 0.7859(5)
N17_7 N 0.22101(16) 0.88612(23) 0.4746(4)
C41_2 C 0.2586(2) 0.9186(3) 0.5474(5)
N20_2 N 0.55279(23) 0.99845(16) 0.8587(4)
C44 C 0.5853(3) 0.9934(2) 0.7859(5)
Ag9_2 Ag 0.63263(2) 0.96593(2) 0.6667
Fe6_4 Fe 0.1667 0.8333 0.3333
N17_8 N 0.11388(23) 0.33488(28) 0.4746(4)
Fe6_5 Fe 0.1667 0.3333 0.3333
N17_9 N 0.66512(28) 0.77899(16) 0.4746(4)
Fe6_6 Fe 0.6667 0.8333 0.3333
C52_5 C 0.2586(4) 0.3399(2) 0.5474(5)
C53_3 C 0.6601(4) 0.9186(3) 0.5474(5)
C52_6 C 0.0814(3) 0.7414(4) 0.5474(5)
Ag3_4 Ag 0.29930(2) 0.0000 0.0000
Ag11_4 Ag 0.70074(2) 0.0000 0.0000
Ag1_4 Ag -0.0000 0.29926(2) 0.0000
N1_3 N 0.21054(11) 0.4210(2) 0.3277(5)
N2_2 N 0.11233(16) 0.33178(16) 0.1920(4)
N3_3 N 0.2726(2) 0.63630(12) 0.3323(5)
C1_3 C 0.26993(18) 0.45191(18) 0.3271(5)
H1_3 H 0.2902 0.4312 0.3254
C2_3 C 0.30218(19) 0.51288(18) 0.3290(5)
H2_3 H 0.3432 0.5326 0.3295
C3_3 C 0.27194(13) 0.5438(3) 0.3299(8)
C4_3 C 0.30472(12) 0.6094(2) 0.3329(7)
C5_2 C 0.0748(2) 0.3267(2) 0.1192(5)
N4_3 N 0.5790(2) 0.78950(23) 0.3277(5)
N5_3 N 0.36370(12) 0.63626(23) 0.3323(5)
C6_3 C 0.54809(18) 0.81801(25) 0.3271(5)
H3_3 H 0.5688 0.8589 0.3254
C7_3 C 0.48712(18) 0.78929(26) 0.3290(5)
H4_3 H 0.4674 0.8105 0.3295
C8_3 C 0.4562(3) 0.72810(33) 0.3299(8)
C9_3 C 0.3906(2) 0.69528(23) 0.3329(7)
N6_3 N 0.21050(23) 0.78946(11) 0.3277(5)
N7_3 N 0.36374(23) 0.7274(2) 0.3323(5)
C10_3 C 0.18199(25) 0.73007(18) 0.3271(5)
H5_3 H 0.1411 0.7098 0.3254
C11_3 C 0.21071(26) 0.69782(19) 0.3290(5)
H6_3 H 0.1895 0.6568 0.3295
C12_3 C 0.27190(33) 0.72806(13) 0.3299(8)
C13_3 C 0.30472(23) 0.69528(12) 0.3329(7)
C14_3 C 0.18199(25) 0.45191(18) 0.3271(5)
H7_3 H 0.1411 0.4312 0.3254
C15_3 C 0.21071(26) 0.51288(18) 0.3290(5)
H8_3 H 0.1895 0.5326 0.3295
C16_3 C 0.26993(18) 0.81801(25) 0.3271(5)
H9_3 H 0.2902 0.8589 0.3254
C17_3 C 0.30218(19) 0.78929(26) 0.3290(5)
H10_3 H 0.3432 0.8105 0.3295
C18_3 C 0.54809(18) 0.73007(18) 0.3271(5)
H11_3 H 0.5688 0.7098 0.3254
C19_3 C 0.48712(18) 0.69782(19) 0.3290(5)
H12_3 H 0.4674 0.6568 0.3295
N8_2 N 0.66822(16) 0.78054(23) 0.1920(4)
C20_2 C 0.6733(2) 0.7480(3) 0.1192(5)
N9_2 N 0.21946(23) 0.88767(16) 0.1920(4)
C21_2 C 0.2520(3) 0.9252(2) 0.1192(5)
N10_3 N 0.12284(23) 0.2456(2) 0.3389(5)
C22_3 C 0.15135(25) 0.21475(18) 0.3395(5)
H13_3 H 0.1923 0.2354 0.3412
C23_3 C 0.12263(26) 0.15378(18) 0.3376(5)
H14_3 H 0.1439 0.1340 0.3371
C24_3 C 0.06144(33) 0.1228(3) 0.3367(8)
C25_3 C 0.02862(23) 0.0572(2) 0.3337(7)
N14_3 N 0.0608(2) 0.03040(23) 0.3343(5)
C35_3 C 0.06341(18) 0.21475(18) 0.3395(5)
H19_3 H 0.0432 0.2354 0.3412
C36_3 C 0.03116(19) 0.15378(18) 0.3376(5)
H24_3 H 0.1439 0.0098 0.3371
N18_3 N 0.22101(16) 0.33488(16) 0.4746(4)
N19_3 N 0.66512(16) 0.88612(23) 0.4746(4)
N20_3 N 0.21946(23) 0.33178(16) 0.1920(4)
C44_2 C 0.2520(3) 0.3267(2) 0.1192(5)
N21_3 N 0.66822(16) 0.88767(16) 0.1920(4)
C45_2 C 0.6733(2) 0.9252(2) 0.1192(5)
N23_3 N 0.11388(23) 0.77899(16) 0.4746(4)
N24_3 N 0.11233(16) 0.78054(23) 0.1920(4)
C48_2 C 0.0748(2) 0.7480(3) 0.1192(5)
Ag2_3 Ag 0.70074(2) 0.70070(2) 0.0000
Ag3_5 Ag 0.29930(2) 1.0000 0.0000
Ag9_3 Ag 0.29930(2) 0.29926(2) 0.0000
Ag10_4 Ag -0.0000 0.70070(2) 0.0000
Ag11_5 Ag 0.70074(2) 1.0000 0.0000
N25_3 N 0.12280(11) 0.87716(23) 0.3389(5)
N26_3 N 0.7544(2) 0.87720(11) 0.3389(5)
C27_3 C 0.06341(18) 0.84865(25) 0.3395(5)
H15_3 H 0.0432 0.8077 0.3412
C28_3 C 0.03116(19) 0.87737(26) 0.3376(5)
C29_3 C 0.06140(13) 0.93856(33) 0.3367(8)
C30_3 C 0.02862(12) 0.97138(23) 0.3337(7)
C39_3 C 0.15135(25) 0.93659(18) 0.3395(5)
H23_3 H 0.1923 0.9568 0.3412
C40_3 C 0.12263(26) 0.96884(19) 0.3376(5)
Ag1_5 Ag 1.0000 0.29926(2) 0.0000
N12_3 N 0.96960(23) 0.03036(12) 0.3343(5)
H18_3 H 0.8660 0.0098 0.3371
H20_3 H 0.9902 0.1340 0.3371
Ag10_5 Ag 1.0000 0.70070(2) 0.0000
H16_3 H 0.9902 0.8561 0.3371
N16_3 N 0.96964(12) 0.9392(2) 0.3343(5)
C31_3 C 0.78525(18) 0.93659(18) 0.3395(5)
H17_3 H 0.7646 0.9568 0.3412
C32_3 C 0.84622(18) 0.96884(19) 0.3376(5)
C33_3 C 0.8772(3) 0.93860(13) 0.3367(8)
C34_3 C 0.9428(2) 0.97138(12) 0.3337(7)
C37_3 C 0.78525(18) 0.84865(25) 0.3395(5)
H21_3 H 0.7646 0.8077 0.3412
C38_3 C 0.84622(18) 0.87737(26) 0.3376(5)
H22_3 H 0.8660 0.8561 0.3371
loop_
_geom_bond_atom_site_label_1
_geom_bond_atom_site_label_2
_geom_bond_site_symmetry_1
_geom_bond_site_symmetry_2
N26 Fe2 1_555 1_555
N11 Fe1 1_555 1_555
C26 N11 1_555 1_555
N18 Fe1 1_555 1_555
C42 N18 1_555 1_555
N19 Fe2_2 1_555 1_555
C43 N19 1_555 1_555
N22 Fe2_2 1_555 1_555
C46 N22 1_555 1_555
N23 Fe3 1_555 1_555
C47 N23 1_555 1_555
Ag4 C26 1_555 1_555
Ag5 C42 1_555 1_555
Ag6 C43 1_555 1_555
Ag7 C46 1_555 1_555
Ag8 C47 1_555 1_555
N25 Fe3 1_555 1_555
N27 Fe3 1_555 1_555
C51 Ag4 1_555 1_555
C52 Ag6 1_555 1_555
C53 Ag5 1_555 1_555
N10 Fe1_2 1_555 1_555
N12 C25 1_555 1_555
C22 N10 1_555 1_555
H13 C22 1_555 1_555
C23 C22 1_555 1_555
H14 C23 1_555 1_555
C24 C23 1_555 1_555
C25 C24 1_555 1_555
N25 C27 1_555 1_555
N14 C25 1_555 1_555
C27 H15 1_555 1_555
C28 C27 1_555 1_555
H16 C28 1_555 1_555
C29 C28 1_555 1_555
C30 N14 1_555 1_555
N26 C31 1_555 1_555
N16 C30 1_555 1_555
C31 H17 1_555 1_555
C32 C31 1_555 1_555
H18 C32 1_555 1_555
C33 C32 1_555 1_555
C34 N12 1_555 1_555
C35 N10 1_555 1_555
H19 C35 1_555 1_555
C36 C24 1_555 1_555
H20 C36 1_555 1_555
C37 N26 1_555 1_555
H21 C37 1_555 1_555
C38 C33 1_555 1_555
H22 C38 1_555 1_555
C39 N25 1_555 1_555
H23 C39 1_555 1_555
C40 C29 1_555 1_555
H24 C40 1_555 1_555
C29 C30 1_555 1_555
N16 C34 1_555 1_555
C33 C34 1_555 1_555
C35 C36 1_555 1_555
C37 C38 1_555 1_555
C39 C40 1_555 1_555
C46_2 N27 1_555 1_555
Ag7_2 C46_2 1_555 1_555
C51_2 Ag7 1_555 1_555
C52_2 Ag8 1_555 1_555
C51_3 Ag7_2 1_555 1_555
N17 C51 1_555 1_555
Fe6 N17 1_555 1_555
N17_2 C51_3 1_555 1_555
Fe6_2 N17_2 1_555 1_555
N17_3 C51_2 1_555 1_555
Fe6_3 N17_3 1_555 1_555
C50 Ag3 1_555 1_555
C49 Ag2 1_555 1_555
N17_4 C41 1_555 1_555
C41 Ag1_2 1_555 1_555
Fe6_3 N17_4 1_555 1_555
N17_5 C49 1_555 1_555
Fe6_2 N17_5 1_555 1_555
N17_6 C50 1_555 1_555
Fe6 N17_6 1_555 1_555
C53_2 Ag9 1_555 1_555
C52_3 Ag10_2 1_555 1_555
C52_4 Ag11 1_555 1_555
N4 C6 1_555 1_555
C6 H3 1_555 1_555
C7 C6 1_555 1_555
H4 C7 1_555 1_555
C8 C7 1_555 1_555
N7 C9 1_555 1_555
C18 N4 1_555 1_555
H11 C18 1_555 1_555
C19 C8 1_555 1_555
Fe6 N4 1_555 1_555
N19_2 Fe6 1_555 1_555
C53_2 N19_2 1_555 1_555
N21 Fe6 1_555 1_555
C52_2 N21 1_555 1_555
N26_2 Fe6 1_555 1_555
C8 C9 1_555 1_555
C18 C19 1_555 1_555
N6 C10 1_555 1_555
C10 H5 1_555 1_555
C11 C10 1_555 1_555
C12 C11 1_555 1_555
C16 N6 1_555 1_555
H9 C16 1_555 1_555
C17 C12 1_555 1_555
Fe6_3 N6 1_555 1_555
N23_2 Fe6_3 1_555 1_555
C52_4 N23_2 1_555 1_555
N24 Fe6_3 1_555 1_555
C53 N24 1_555 1_555
N25_2 Fe6_3 1_555 1_555
C12 C13 1_555 1_555
C16 C17 1_555 1_555
Fe6_2 N1 1_555 1_555
N1 C1 1_555 1_555
N3 C4 1_555 1_555
C1 H1 1_555 1_555
C2 C1 1_555 1_555
C3 C2 1_555 1_555
C4 C3 1_555 1_555
C14 N1 1_555 1_555
H7 C14 1_555 1_555
C15 C3 1_555 1_555
H8 C15 1_555 1_555
N10_2 Fe6_2 1_555 1_555
N12_2 C25_2 1_555 1_555
C22_2 N10_2 1_555 1_555
H13_2 C22_2 1_555 1_555
C23_2 C22_2 1_555 1_555
H14_2 C23_2 1_555 1_555
C24_2 C23_2 1_555 1_555
C25_2 C24_2 1_555 1_555
N25_2 C27_2 1_555 1_555
N14_2 C25_2 1_555 1_555
C27_2 H15_2 1_555 1_555
C28_2 C27_2 1_555 1_555
H16_2 C28_2 1_555 1_555
C29_2 C28_2 1_555 1_555
C30_2 N14_2 1_555 1_555
N26_2 C31_2 1_555 1_555
N16_2 C30_2 1_555 1_555
C31_2 H17_2 1_555 1_555
C32_2 C31_2 1_555 1_555
H18_2 C32_2 1_555 1_555
C33_2 C32_2 1_555 1_555
C34_2 N12_2 1_555 1_555
C35_2 N10_2 1_555 1_555
H19_2 C35_2 1_555 1_555
C36_2 C24_2 1_555 1_555
H20_2 C36_2 1_555 1_555
C37_2 N26_2 1_555 1_555
H21_2 C37_2 1_555 1_555
C38_2 C33_2 1_555 1_555
H22_2 C38_2 1_555 1_555
C39_2 N25_2 1_555 1_555
H23_2 C39_2 1_555 1_555
C40_2 C29_2 1_555 1_555
H24_2 C40_2 1_555 1_555
N18_2 Fe6_2 1_555 1_555
C52_3 N18_2 1_555 1_555
N20 Fe6_2 1_555 1_555
C52 N20 1_555 1_555
C14 C15 1_555 1_555
C29_2 C30_2 1_555 1_555
N16_2 C34_2 1_555 1_555
C33_2 C34_2 1_555 1_555
C35_2 C36_2 1_555 1_555
C37_2 C38_2 1_555 1_555
C39_2 C40_2 1_555 1_555
N8 Fe2_3 1_555 1_555
C20 N8 1_555 1_555
N21_2 Fe2_3 1_555 1_555
C45 N21_2 1_555 1_555
Ag2_2 C20 1_555 1_555
Ag11_3 C45 1_555 1_555
C49_2 Ag2_2 1_555 1_555
Fe1_3 N1_2 1_555 1_555
N1_2 C1_2 1_555 1_555
N3_2 C4_2 1_555 1_555
C1_2 H1_2 1_555 1_555
C2_2 C1_2 1_555 1_555
H2_2 C2_2 1_555 1_555
C3_2 C2_2 1_555 1_555
C4_2 C3_2 1_555 1_555
N4_2 C6_2 1_555 1_555
N5_2 C4_2 1_555 1_555
C6_2 H3_2 1_555 1_555
C7_2 C6_2 1_555 1_555
H4_2 C7_2 1_555 1_555
C8_2 C7_2 1_555 1_555
C9_2 N5_2 1_555 1_555
N6_2 C10_2 1_555 1_555
N7_2 C9_2 1_555 1_555
C10_2 H5_2 1_555 1_555
C11_2 C10_2 1_555 1_555
H6_2 C11_2 1_555 1_555
C12_2 C11_2 1_555 1_555
C13_2 N3_2 1_555 1_555
C14_2 N1_2 1_555 1_555
H7_2 C14_2 1_555 1_555
C15_2 C3_2 1_555 1_555
H8_2 C15_2 1_555 1_555
C16_2 N6_2 1_555 1_555
H9_2 C16_2 1_555 1_555
C17_2 C12_2 1_555 1_555
H10_2 C17_2 1_555 1_555
C18_2 N4_2 1_555 1_555
H11_2 C18_2 1_555 1_555
C19_2 C8_2 1_555 1_555
H12_2 C19_2 1_555 1_555
Fe2_4 N4_2 1_555 1_555
Fe3_2 N6_2 1_555 1_555
N9 Fe3_2 1_555 1_555
C21 N9 1_555 1_555
N24_2 Fe3_2 1_555 1_555
C48 N24_2 1_555 1_555
Ag3_3 C21 1_555 1_555
Ag10_3 C48 1_555 1_555
C50_2 Ag3_3 1_555 1_555
C8_2 C9_2 1_555 1_555
N7_2 C13_2 1_555 1_555
C12_2 C13_2 1_555 1_555
C14_2 C15_2 1_555 1_555
C16_2 C17_2 1_555 1_555
C18_2 C19_2 1_555 1_555
Ag1_3 C5 1_555 1_555
N2 Fe1_4 1_555 1_555
C5 N2 1_555 1_555
N17_7 C41_2 1_555 1_555
C41_2 Ag1_3 1_555 1_555
N20_2 Fe1_4 1_555 1_555
C44 N20_2 1_555 1_555
Ag9_2 C44 1_555 1_555
Fe6_4 N17_7 1_555 1_555
N17_8 C49_2 1_555 1_555
Fe6_5 N17_8 1_555 1_555
N17_9 C50_2 1_555 1_555
Fe6_6 N17_9 1_555 1_555
C52_5 Ag10_3 1_555 1_555
C53_3 Ag9_2 1_555 1_555
C52_6 Ag11_3 1_555 1_555
Ag1_4 C5_2 1_555 1_555
Fe6_5 N1_3 1_555 1_555
N1_3 C1_3 1_555 1_555
N2_2 Fe6_5 1_555 1_555
N3_3 C4_3 1_555 1_555
C1_3 H1_3 1_555 1_555
C2_3 C1_3 1_555 1_555
H2_3 C2_3 1_555 1_555
C3_3 C2_3 1_555 1_555
C4_3 C3_3 1_555 1_555
C5_2 N2_2 1_555 1_555
N4_3 C6_3 1_555 1_555
N5_3 C4_3 1_555 1_555
C6_3 H3_3 1_555 1_555
C7_3 C6_3 1_555 1_555
H4_3 C7_3 1_555 1_555
C8_3 C7_3 1_555 1_555
C9_3 N5_3 1_555 1_555
N6_3 C10_3 1_555 1_555
N7_3 C9_3 1_555 1_555
C10_3 H5_3 1_555 1_555
C11_3 C10_3 1_555 1_555
H6_3 C11_3 1_555 1_555
C12_3 C11_3 1_555 1_555
C13_3 N3_3 1_555 1_555
C14_3 N1_3 1_555 1_555
H7_3 C14_3 1_555 1_555
C15_3 C3_3 1_555 1_555
H8_3 C15_3 1_555 1_555
C16_3 N6_3 1_555 1_555
H9_3 C16_3 1_555 1_555
C17_3 C12_3 1_555 1_555
H10_3 C17_3 1_555 1_555
C18_3 N4_3 1_555 1_555
H11_3 C18_3 1_555 1_555
C19_3 C8_3 1_555 1_555
H12_3 C19_3 1_555 1_555
Fe6_6 N4_3 1_555 1_555
N8_2 Fe6_6 1_555 1_555
C20_2 N8_2 1_555 1_555
Fe6_4 N6_3 1_555 1_555
N9_2 Fe6_4 1_555 1_555
C21_2 N9_2 1_555 1_555
N10_3 Fe6_5 1_555 1_555
C22_3 N10_3 1_555 1_555
H13_3 C22_3 1_555 1_555
C23_3 C22_3 1_555 1_555
H14_3 C23_3 1_555 1_555
C24_3 C23_3 1_555 1_555
C25_3 C24_3 1_555 1_555
N14_3 C25_3 1_555 1_555
C35_3 N10_3 1_555 1_555
H19_3 C35_3 1_555 1_555
C36_3 C24_3 1_555 1_555
N18_3 Fe6_5 1_555 1_555
C52_5 N18_3 1_555 1_555
N19_3 Fe6_6 1_555 1_555
C53_3 N19_3 1_555 1_555
N20_3 Fe6_5 1_555 1_555
C44_2 N20_3 1_555 1_555
N21_3 Fe6_6 1_555 1_555
C45_2 N21_3 1_555 1_555
N23_3 Fe6_4 1_555 1_555
C52_6 N23_3 1_555 1_555
N24_3 Fe6_4 1_555 1_555
C48_2 N24_3 1_555 1_555
Ag2_3 C20_2 1_555 1_555
Ag3_5 C21_2 1_555 1_555
Ag9_3 C44_2 1_555 1_555
Ag10_4 C48_2 1_555 1_555
Ag11_5 C45_2 1_555 1_555
N25_3 Fe6_4 1_555 1_555
N26_3 Fe6_6 1_555 1_555
C8_3 C9_3 1_555 1_555
N7_3 C13_3 1_555 1_555
C12_3 C13_3 1_555 1_555
C14_3 C15_3 1_555 1_555
C16_3 C17_3 1_555 1_555
C18_3 C19_3 1_555 1_555
C35_3 C36_3 1_555 1_555
N25_3 C27_3 1_555 1_555
C27_3 H15_3 1_555 1_555
C28_3 C27_3 1_555 1_555
C29_3 C28_3 1_555 1_555
C39_3 N25_3 1_555 1_555
H23_3 C39_3 1_555 1_555
C40_3 C29_3 1_555 1_555
C29_3 C30_3 1_555 1_555
C39_3 C40_3 1_555 1_555
N26_3 C31_3 1_555 1_555
C31_3 H17_3 1_555 1_555
C32_3 C31_3 1_555 1_555
C33_3 C32_3 1_555 1_555
C37_3 N26_3 1_555 1_555
H21_3 C37_3 1_555 1_555
C38_3 C33_3 1_555 1_555
H22_3 C38_3 1_555 1_555
N16_3 C34_3 1_555 1_555
C33_3 C34_3 1_555 1_555
C37_3 C38_3 1_555 1_555

#END
