
###############################################################################
#
# This file contains modified crystal structure data generated from the
# MOF subset of the Cambridge Structural Database (CSD) v543 
# hosted by the Cambridge Crystallographic Data Centre (CCDC).
#
# This work is licensed under the Creative Commons
# Attribution-NonCommercial-ShareAlike 4.0 International License.
# To view a copy of this license, visit
# http://creativecommons.org/licenses/by-nc-sa/4.0/
# or send a letter to
# Creative Commons, PO Box 1866, Mountain View, CA 94042, USA.
#
# CIF created using the CSD Python API on 29 September 2022
# The structure has been converted into the P1 space group
# The structure has a 3D framework
# The original CSD entry YOZQEK is in the triclinic crystal system
# The framework has been calculated to contain at least 10.0% void space
# The void calculation uses a probe of radius 1.32A, grid spacing 0.4
# The framework is charged, counterions have been retained in the structure
# H atom positions have been added when not included in the experimental data
#
###############################################################################

data_YOZQEK
_chemical_formula_moiety         '(C140 H68 O68 S10 Zn12 2-)n'
_symmetry_cell_setting           triclinic
_symmetry_space_group_name_H-M   'P 1'
_symmetry_Int_Tables_number      1
_space_group_name_Hall           'P 1'
loop_
_symmetry_equiv_pos_site_id
_symmetry_equiv_pos_as_xyz
1 x,y,z
_cell_length_a                   21.441(4)
_cell_length_b                   23.212(5)
_cell_length_c                   24.646(5)
_cell_angle_alpha                68.10(3)
_cell_angle_beta                 67.49(3)
_cell_angle_gamma                79.99(3)
_cell_volume                     10506.9
loop_
_atom_site_label
_atom_site_type_symbol
_atom_site_fract_x
_atom_site_fract_y
_atom_site_fract_z
C60 C 0.0128(3) 0.0109(3) 0.8673(3)
H26 H 0.0356 0.0358 0.8267
O29 O 0.0109(3) 0.1484(2) 0.8875(2)
H21 H 0.0273 0.4141 0.1321
C50 C 0.0029(3) 0.5296(3) 0.0546(3)
C51 C 0.0728(3) 0.5312(3) 0.0259(3)
H22 H 0.0998 0.4974 0.0401
Zn2 Zn 0.09323(3) 0.80013(3) 0.80771(3)
C25 C 0.0016(3) 0.8668(3) 0.6667(5)
C26 C 0.0471(3) 0.8343(3) 0.7074(5)
C27 C 0.0146(3) 0.8618(3) 0.6112(4)
H11 H 0.0500 0.8364 0.5953
O9 O 0.0987(2) 0.81013(19) 0.6771(2)
O10 O 0.0291(2) 0.8322(2) 0.7628(2)
O11 O 0.0416(2) 0.9116(2) 0.4599(2)
C53 C 0.1018(3) 0.5822(3) 0.9770(3)
H23 H 0.1486 0.5826 0.9580
C55 C 0.0627(3) 0.6338(3) 0.9548(3)
C56 C 0.0968(4) 0.6882(3) 0.8998(3)
O21 O 0.05483(19) 0.72650(18) 0.87542(17)
O22 O 0.1576(2) 0.69702(19) 0.88098(18)
O25 O 0.1015(2) 0.95032(19) 0.7881(2)
O26 O 0.0638(2) 0.8573(2) 0.85702(19)
C57 C 0.0643(3) 0.9164(4) 0.8412(3)
C58 C 0.0211(3) 0.9472(3) 0.8844(3)
Zn9 Zn 0.24078(3) 0.69128(3) 0.90766(3)
Zn11 Zn 0.16945(4) 0.91672(3) 0.72547(3)
Zn13 Zn 0.19742(3) 0.79560(3) 0.67778(3)
O44 O 0.18048(18) 0.82681(16) 0.74915(16)
Zn1 Zn 0.74203(3) 0.18920(3) 0.22661(3)
Zn3 Zn 0.75922(3) 0.30872(3) 0.09234(3)
Zn4 Zn 0.83055(4) 0.08328(3) 0.27453(3)
C9 C 0.5083(3) 0.0128(3) 0.4092(3)
H4 H 0.4640 0.0276 0.4140
C11 C 0.5608(3) 0.0490(3) 0.3659(3)
H5 H 0.5516 0.0885 0.3410
C13 C 0.6282(3) 0.0287(3) 0.3578(3)
C14 C 0.6865(4) 0.0701(4) 0.3105(3)
O3 O 0.7450(2) 0.04483(19) 0.30214(18)
O4 O 0.67204(19) 0.1258(2) 0.28566(18)
C34 C 0.3522(3) 0.4641(3) 0.0151(3)
H15 H 0.3263 0.4460 0.0569
C36 C 0.4633(3) 0.4059(3) 0.0274(3)
C37 C 0.4446(3) 0.3697(3) 0.0905(3)
H16 H 0.3996 0.3686 0.1164
C39 C 0.4937(4) 0.3354(3) 0.1140(3)
H17 H 0.4806 0.3098 0.1556
C40 C 0.5799(3) 0.3720(3) 0.0166(3)
C41 C 0.5605(3) 0.3377(3) 0.0786(3)
C42 C 0.6110(4) 0.3065(3) 0.1076(4)
O15 O 0.6730(2) 0.31684(19) 0.07222(19)
O16 O 0.59470(19) 0.27154(19) 0.1633(2)
C64 C 0.8951(3) 0.0382(3) 0.0115(3)
C65 C 0.8540(3) 0.0202(3) 0.0744(3)
C67 C 0.8677(3) 0.1458(3) 0.0064(3)
C68 C 0.8245(3) 0.0631(3) 0.1022(3)
H30 H 0.7999 0.0500 0.1448
C69 C 0.8298(3) 0.1263(3) 0.0691(3)
C70 C 0.7971(3) 0.1684(4) 0.1041(4)
O27 O 0.7721(2) 0.1480(2) 0.1634(2)
O28 O 0.7970(2) 0.2274(2) 0.0719(2)
O31 O 0.81952(18) 0.17319(16) 0.25085(16)
O32 O 0.70355(17) 0.26915(17) 0.18865(16)
Zn7 Zn 0.90677(3) 0.19987(3) 0.19229(3)
Zn15 Zn 0.80258(3) 0.20440(3) 0.32222(3)
Zn18 Zn 0.68102(3) 0.32578(3) 0.23632(3)
O36 O 0.8607(2) 0.0455(2) 0.3468(2)
O38 O 0.7325(2) 0.39835(18) 0.10695(19)
O42 O 0.8424(2) 0.30298(19) 0.11902(18)
O43 O 0.8985(2) 0.04968(19) 0.2119(2)
O7 O 0.7870(2) 0.1106(2) 0.39218(19)
C15 C 0.8293(4) 0.0660(4) 0.3921(4)
C16 C 0.8503(3) 0.0311(3) 0.4486(4)
C18 C 0.8222(4) 0.0489(4) 0.5001(5)
H8 H 0.7894 0.0810 0.5001
C19 C 0.8407(3) 0.0210(4) 0.5523(3)
H9 H 0.8213 0.0342 0.5867
S3 S 0.54301(9) 0.45108(10) 0.91277(9)
O13 O 0.2675(2) 0.60165(18) 0.89305(19)
O14 O 0.36328(19) 0.60285(18) 0.8127(2)
C29 C 0.3256(4) 0.5828(3) 0.8709(3)
C30 C 0.3600(3) 0.5345(3) 0.9124(3)
C31 C 0.4294(3) 0.5199(3) 0.8899(3)
H13 H 0.4556 0.5388 0.8484
C32 C 0.3231(3) 0.5067(3) 0.9743(3)
H14 H 0.2772 0.5169 0.9890
C33 C 0.4576(3) 0.4766(3) 0.9312(3)
C35 C 0.4204(4) 0.4483(3) 0.9935(3)
C38 C 0.5295(3) 0.4049(3) 0.9922(3)
H18 H 0.6251 0.3735 0.9911
O17 O 0.5878(2) 0.5007(2) 0.8906(2)
O18 O 0.5598(2) 0.4128(3) 0.8758(2)
S5 S 0.95201(11) 0.11750(9) 0.89981(9)
C62 C 0.9710(3) 0.0373(3) 0.9100(3)
C63 C 0.9354(3) 0.0020(3) 0.9717(3)
C66 C 0.8985(3) 0.1045(3) 0.9782(3)
H29 H 0.8717 0.1881 0.9838
O30 O 0.9143(2) 0.1438(2) 0.8581(2)
O33 O 0.8068(2) 0.35358(19) 0.99695(17)
Zn16 Zn 0.31898(3) 0.67422(3) 0.76368(3)
H31 H 0.784751 0.39521 0.983963
H32 H 0.855207 0.358331 0.988152
S1 S 0.59393(10) 0.85877(10) 0.49061(12)
O1 O 0.39078(19) 0.7179(2) 0.68321(18)
O2 O 0.2973(2) 0.77667(19) 0.68080(18)
C1 C 0.3604(4) 0.7659(3) 0.6575(3)
C2 C 0.4000(3) 0.8136(3) 0.5983(3)
C3 C 0.3678(3) 0.8659(3) 0.5688(3)
H1 H 0.3209 0.8693 0.5830
C4 C 0.4681(3) 0.8072(3) 0.5772(3)
H2 H 0.4900 0.7715 0.5960
C5 C 0.4045(3) 0.9125(3) 0.5189(3)
H3 H 0.3820 0.9475 0.5000
C6 C 0.5049(3) 0.8557(3) 0.5261(3)
C7 C 0.4738(3) 0.9088(3) 0.4960(3)
C8 C 0.5213(3) 0.9540(3) 0.4456(3)
C10 C 0.5883(3) 0.9336(3) 0.4384(3)
C12 C 0.6417(3) 0.9685(3) 0.3940(3)
H6 H 0.6858 0.9526 0.3880
O5 O 0.6238(2) 0.8600(3) 0.5324(3)
O6 O 0.6215(3) 0.8146(3) 0.4571(3)
S4 S 0.87681(8) 0.57211(8) 0.07417(9)
O19 O 0.7514(2) 0.36240(18) 0.24205(17)
O20 O 0.83488(19) 0.2919(2) 0.25653(18)
C43 C 0.8126(4) 0.3457(3) 0.2336(3)
C44 C 0.8633(3) 0.3926(3) 0.1929(3)
C45 C 0.8420(3) 0.4516(3) 0.1620(3)
H19 H 0.7963 0.4618 0.1690
C46 C 0.9337(3) 0.3797(3) 0.1818(3)
H20 H 0.9481 0.3409 0.2036
C47 C 0.9815(3) 0.4236(3) 0.1391(3)
C48 C 0.8914(3) 0.4957(3) 0.1200(3)
C49 C 0.9604(3) 0.4809(3) 0.1077(3)
C52 C 0.9640(3) 0.5828(3) 0.0315(3)
O23 O 0.84131(19) 0.57355(18) 0.0345(2)
O24 O 0.8499(2) 0.6114(2) 0.1123(2)
H27 H 0.9229 0.9128 0.0293
H28 H 0.8470 0.9783 0.0973
O34 O 0.2280(2) 0.7657(2) 0.6033(2)
O35 O 0.2130(2) 0.8894(2) 0.60782(19)
O40 O 0.2486(2) 0.63760(18) 0.75795(17)
O41 O 0.16512(19) 0.7081(2) 0.74347(18)
O46 O 0.29645(17) 0.73085(17) 0.81135(16)
H33 H 0.244664 0.72174 0.615541
H34 H 0.189343 0.76896 0.589409
S1_2 S 0.40607(10) 0.14123(10) 0.50939(12)
O1_2 O 0.60922(19) 0.2821(2) 0.31679(18)
O2_2 O 0.7027(2) 0.22333(19) 0.31920(18)
C1_2 C 0.6396(4) 0.2341(3) 0.3425(3)
C2_2 C 0.6000(3) 0.1864(3) 0.4017(3)
C3_2 C 0.6322(3) 0.1341(3) 0.4312(3)
H1_2 H 0.6791 0.1307 0.4170
C4_2 C 0.5319(3) 0.1928(3) 0.4228(3)
H2_2 H 0.5100 0.2285 0.4040
C5_2 C 0.5955(3) 0.0875(3) 0.4811(3)
H3_2 H 0.6180 0.0525 0.5000
C6_2 C 0.4951(3) 0.1443(3) 0.4739(3)
C7_2 C 0.5262(3) 0.0912(3) 0.5040(3)
C8_2 C 0.4787(3) 0.0460(3) 0.5544(3)
C10_2 C 0.4117(3) 0.0664(3) 0.5616(3)
C12_2 C 0.3583(3) 0.0315(3) 0.6060(3)
H6_2 H 0.3142 0.0474 0.6120
O5_2 O 0.3762(2) 0.1400(3) 0.4676(3)
O6_2 O 0.3785(3) 0.1854(3) 0.5429(3)
S4_2 S 0.12319(8) 0.42789(8) 0.92583(9)
C43_2 C 0.1874(4) 0.6543(3) 0.7664(3)
C44_2 C 0.1367(3) 0.6074(3) 0.8071(3)
C45_2 C 0.1580(3) 0.5484(3) 0.8380(3)
H19_2 H 0.2037 0.5382 0.8310
C46_2 C 0.0663(3) 0.6203(3) 0.8182(3)
H20_2 H 0.0519 0.6591 0.7964
C47_2 C 0.0185(3) 0.5764(3) 0.8609(3)
C48_2 C 0.1086(3) 0.5043(3) 0.8800(3)
C49_2 C 0.0396(3) 0.5191(3) 0.8923(3)
C52_2 C 0.0360(3) 0.4172(3) 0.9685(3)
O23_2 O 0.15869(19) 0.42645(18) 0.9655(2)
O24_2 O 0.1501(2) 0.3886(2) 0.8877(2)
H27_2 H 0.0771 0.0872 0.9707
H28_2 H 0.1530 0.0217 0.9027
O34_2 O 0.7720(2) 0.2343(2) 0.3967(2)
O37 O 0.9013(2) 0.18987(19) 0.3229(2)
O39 O 0.63672(19) 0.39715(18) 0.1873(2)
H33_2 H 0.755336 0.27826 0.384459
H34_2 H 0.810657 0.23104 0.410591
O8 O 0.1393(2) 0.9545(2) 0.6532(2)
C15_2 C 0.1707(4) 0.9340(4) 0.6079(4)
C16_2 C 0.1497(3) 0.9689(3) 0.5514(4)
C18_2 C 0.1778(4) 0.9511(4) 0.4999(5)
H8_2 H 0.2106 0.9190 0.4999
C19_2 C 0.1593(3) 0.9790(4) 0.4477(3)
H9_2 H 0.1787 0.9658 0.4133
S3_2 S 0.45699(9) 0.54892(10) 0.08723(9)
C29_2 C 0.6744(4) 0.4172(3) 0.1291(3)
C30_2 C 0.6400(3) 0.4655(3) 0.0876(3)
C31_2 C 0.5706(3) 0.4801(3) 0.1101(3)
H13_2 H 0.5444 0.4612 0.1516
C32_2 C 0.6769(3) 0.4933(3) 0.0257(3)
H14_2 H 0.7228 0.4831 0.0110
C33_2 C 0.5424(3) 0.5234(3) 0.0688(3)
C35_2 C 0.5796(4) 0.5517(3) 0.0065(3)
C38_2 C 0.4705(3) 0.5951(3) 0.0078(3)
H18_2 H 0.3749 0.6265 0.0089
O17_2 O 0.4122(2) 0.4993(2) 0.1094(2)
O18_2 O 0.4402(2) 0.5872(3) 0.1242(2)
S5_2 S 0.04799(11) 0.88250(9) 0.10019(9)
C62_2 C 0.0290(3) 0.9627(3) 0.0900(3)
C63_2 C 0.0646(3) 0.9980(3) 0.0283(3)
C66_2 C 0.1015(3) 0.8955(3) 0.0218(3)
H29_2 H 0.1283 0.8119 0.0162
O30_2 O 0.0857(2) 0.8562(2) 0.1419(2)
O33_2 O 0.1932(2) 0.64642(19) 0.00305(17)
H31_2 H 0.215249 0.60479 0.0160372
H32_2 H 0.144793 0.641669 0.0118476
Zn1_2 Zn 0.25797(3) 0.81080(3) 0.77339(3)
C9_2 C 0.4917(3) 0.9872(3) 0.5908(3)
H4_2 H 0.5360 0.9724 0.5860
C11_2 C 0.4392(3) 0.9510(3) 0.6341(3)
H5_2 H 0.4484 0.9115 0.6590
C13_2 C 0.3718(3) 0.9713(3) 0.6422(3)
C14_2 C 0.3135(4) 0.9299(4) 0.6895(3)
O3_2 O 0.2550(2) 0.95517(19) 0.69786(18)
O4_2 O 0.32796(19) 0.8742(2) 0.71434(18)
C34_2 C 0.6478(3) 0.5359(3) 0.9849(3)
H15_2 H 0.6737 0.5540 0.9431
C36_2 C 0.5367(3) 0.5941(3) 0.9726(3)
C37_2 C 0.5554(3) 0.6303(3) 0.9095(3)
H16_2 H 0.6004 0.6314 0.8836
C39_2 C 0.5063(4) 0.6646(3) 0.8860(3)
H17_2 H 0.5194 0.6902 0.8444
C40_2 C 0.4201(3) 0.6280(3) 0.9834(3)
C41_2 C 0.4395(3) 0.6623(3) 0.9214(3)
C42_2 C 0.3890(4) 0.6935(3) 0.8924(4)
O15_2 O 0.3270(2) 0.68316(19) 0.92778(19)
O16_2 O 0.40530(19) 0.72846(19) 0.8367(2)
C64_2 C 0.1049(3) 0.9618(3) 0.9885(3)
C65_2 C 0.1460(3) 0.9798(3) 0.9256(3)
C67_2 C 0.1323(3) 0.8542(3) 0.9936(3)
C68_2 C 0.1755(3) 0.9369(3) 0.8978(3)
H30_2 H 0.2001 0.9500 0.8552
C69_2 C 0.1702(3) 0.8737(3) 0.9309(3)
C70_2 C 0.2029(3) 0.8316(4) 0.8959(4)
O27_2 O 0.2279(2) 0.8520(2) 0.8366(2)
O28_2 O 0.2030(2) 0.7726(2) 0.9281(2)
C25_2 C 0.9984(3) 0.1332(3) 0.3333(5)
C26_2 C 0.9529(3) 0.1657(3) 0.2926(5)
C27_2 C 0.9854(3) 0.1382(3) 0.3888(4)
H11_2 H 0.9500 0.1636 0.4047
O10_2 O 0.9709(2) 0.1678(2) 0.2372(2)
O11_2 O 0.9584(2) 0.0884(2) 0.5401(2)
C53_2 C 0.8982(3) 0.4178(3) 0.0230(3)
H23_2 H 0.8514 0.4174 0.0420
C55_2 C 0.9373(3) 0.3662(3) 0.0452(3)
C56_2 C 0.9032(4) 0.3118(3) 0.1002(3)
O21_2 O 0.94517(19) 0.27350(18) 0.12458(17)
O26_2 O 0.9362(2) 0.1427(2) 0.14298(19)
C57_2 C 0.9357(3) 0.0836(4) 0.1588(3)
C58_2 C 0.9789(3) 0.0528(3) 0.1156(3)
S2 S 0.97677(10) 0.89301(10) 0.50705(9)
C17 C 0.8990(3) 0.9837(3) 0.4466(3)
H7 H 0.9184 0.9713 0.4117
C20 C 0.9174(3) 0.9561(3) 0.4974(4)
C21 C 0.8897(3) 0.9722(3) 0.5518(4)
C22 C 0.9223(4) 0.9373(4) 0.5984(4)
C23 C 0.9094(4) 0.9431(4) 0.6544(4)
H10 H 0.8754 0.9702 0.6689
C24 C 0.9732(4) 0.8960(3) 0.5785(3)
C28 C 0.9499(4) 0.9059(4) 0.6906(3)
H12 H 0.9419 0.9079 0.7297
O12 O 0.9499(3) 0.8366(2) 0.5163(2)
C54 C 0.9922(3) 0.6330(3) 0.9834(3)
H24 H 0.9654 0.6669 0.9691
C59 C 0.9839(3) 0.9126(3) 0.9476(3)
H25 H 0.9880 0.8695 0.9602
C61 C 0.9448(3) 0.9378(3) 0.9885(4)
S2_2 S 0.02323(10) 0.10699(10) 0.49295(9)
C17_2 C 0.1010(3) 0.0163(3) 0.5534(3)
H7_2 H 0.0816 0.0287 0.5883
C20_2 C 0.0826(3) 0.0439(3) 0.5026(4)
C21_2 C 0.1103(3) 0.0278(3) 0.4482(4)
C22_2 C 0.0777(4) 0.0627(4) 0.4016(4)
C23_2 C 0.0906(4) 0.0569(4) 0.3456(4)
H10_2 H 0.1246 0.0298 0.3311
C24_2 C 0.0268(4) 0.1040(3) 0.4215(3)
C28_2 C 0.0501(4) 0.0941(4) 0.3094(3)
H12_2 H 0.0581 0.0921 0.2703
O12_2 O 0.0501(3) 0.1634(2) 0.4837(2)
C54_2 C 0.0078(3) 0.3670(3) 0.0166(3)
H24_2 H 0.0346 0.3331 0.0309
C59_2 C 0.0161(3) 0.0874(3) 0.0524(3)
H25_2 H 0.0120 0.1305 0.0398
C61_2 C 0.0552(3) 0.0622(3) 0.0115(4)
H21_2 H 0.9727 0.5859 0.8679
C50_2 C 0.9971(3) 0.4704(3) 0.9454(3)
C51_2 C 0.9272(3) 0.4688(3) 0.9741(3)
H22_2 H 0.9002 0.5026 0.9599
C60_2 C 0.9872(3) 0.9891(3) 0.1327(3)
H26_2 H 0.9644 0.9642 0.1733
O29_2 O 0.9891(3) 0.8516(2) 0.1125(2)
loop_
_geom_bond_atom_site_label_1
_geom_bond_atom_site_label_2
_geom_bond_site_symmetry_1
_geom_bond_site_symmetry_2
H26 C60 1_555 1_555
C51 C50 1_555 1_555
H22 C51 1_555 1_555
Zn2 O10 1_555 1_555
C25 C26 1_555 1_555
C26 O9 1_555 1_555
H11 C27 1_555 1_555
O9 Zn13 1_555 1_555
O10 C26 1_555 1_555
H23 C53 1_555 1_555
C55 C53 1_555 1_555
C56 C55 1_555 1_555
O21 Zn2 1_555 1_555
O22 C56 1_555 1_555
O25 C57 1_555 1_555
O26 Zn2 1_555 1_555
C57 O26 1_555 1_555
C58 C57 1_555 1_555
Zn9 O22 1_555 1_555
Zn11 O25 1_555 1_555
Zn13 O44 1_555 1_555
O44 Zn2 1_555 1_555
C25 C27 1_555 1_555
C56 O21 1_555 1_555
Zn11 O44 1_555 1_555
Zn1 O4 1_555 1_555
Zn3 O15 1_555 1_555
Zn4 O3 1_555 1_555
H4 C9 1_555 1_555
C11 C9 1_555 1_555
H5 C11 1_555 1_555
C13 C11 1_555 1_555
C14 C13 1_555 1_555
O3 C14 1_555 1_555
O4 C14 1_555 1_555
H15 C34 1_555 1_555
C37 C36 1_555 1_555
H16 C37 1_555 1_555
C39 C37 1_555 1_555
H17 C39 1_555 1_555
C41 C39 1_555 1_555
C42 C41 1_555 1_555
O15 C42 1_555 1_555
O16 C42 1_555 1_555
C65 C64 1_555 1_555
C68 C65 1_555 1_555
H30 C68 1_555 1_555
C69 C67 1_555 1_555
C70 C69 1_555 1_555
O27 Zn1 1_555 1_555
O28 Zn3 1_555 1_555
O31 Zn1 1_555 1_555
O32 Zn1 1_555 1_555
Zn7 O31 1_555 1_555
Zn15 O31 1_555 1_555
Zn18 O32 1_555 1_555
O36 Zn4 1_555 1_555
O38 Zn3 1_555 1_555
O42 Zn3 1_555 1_555
O43 Zn4 1_555 1_555
Zn3 O32 1_555 1_555
Zn4 O31 1_555 1_555
C40 C41 1_555 1_555
C68 C69 1_555 1_555
C70 O27 1_555 1_555
C70 O28 1_555 1_555
O7 C15 1_555 1_555
O36 C15 1_555 1_555
C15 C16 1_555 1_555
C18 C16 1_555 1_555
H8 C18 1_555 1_555
C19 C18 1_555 1_555
H9 C19 1_555 1_555
S3 C33 1_555 1_555
O13 C29 1_555 1_555
O14 C29 1_555 1_555
C29 C30 1_555 1_555
C30 C31 1_555 1_555
C31 H13 1_555 1_555
C32 C30 1_555 1_555
H14 C32 1_555 1_555
C33 C31 1_555 1_555
C35 C33 1_555 1_555
C38 S3 1_555 1_555
O17 S3 1_555 1_555
O18 S3 1_555 1_555
S5 C62 1_555 1_555
C66 S5 1_555 1_555
O30 S5 1_555 1_555
Zn9 O13 1_555 1_555
Zn15 O7 1_555 1_555
Zn16 O14 1_555 1_555
C62 C63 1_555 1_555
O33 H31 1_555 1_555
O33 H32 1_555 1_555
Zn13 O2 1_555 1_555
Zn16 O1 1_555 1_555
S1 C6 1_555 1_555
O1 C1 1_555 1_555
O2 C1 1_555 1_555
C1 C2 1_555 1_555
C2 C3 1_555 1_555
C3 H1 1_555 1_555
C4 C2 1_555 1_555
H2 C4 1_555 1_555
C5 C3 1_555 1_555
H3 C5 1_555 1_555
C6 C4 1_555 1_555
C7 C5 1_555 1_555
C8 C7 1_555 1_555
C10 S1 1_555 1_555
C12 C10 1_555 1_555
H6 C12 1_555 1_555
O5 S1 1_555 1_555
O6 S1 1_555 1_555
S4 C48 1_555 1_555
O19 C43 1_555 1_555
O20 C43 1_555 1_555
C43 C44 1_555 1_555
C44 C45 1_555 1_555
C45 H19 1_555 1_555
C46 C44 1_555 1_555
H20 C46 1_555 1_555
C47 C46 1_555 1_555
C48 C45 1_555 1_555
C49 C47 1_555 1_555
C52 S4 1_555 1_555
O23 S4 1_555 1_555
O24 S4 1_555 1_555
O34 Zn13 1_555 1_555
Zn15 O20 1_555 1_555
Zn18 O19 1_555 1_555
O35 Zn13 1_555 1_555
O40 Zn16 1_555 1_555
O41 Zn13 1_555 1_555
O46 Zn16 1_555 1_555
C6 C7 1_555 1_555
C8 C10 1_555 1_555
C48 C49 1_555 1_555
O34 H33 1_555 1_555
O34 H34 1_555 1_555
Zn15 O2_2 1_555 1_555
Zn18 O1_2 1_555 1_555
S1_2 C6_2 1_555 1_555
O1_2 C1_2 1_555 1_555
O2_2 C1_2 1_555 1_555
C1_2 C2_2 1_555 1_555
C2_2 C3_2 1_555 1_555
C3_2 H1_2 1_555 1_555
C4_2 C2_2 1_555 1_555
H2_2 C4_2 1_555 1_555
C5_2 C3_2 1_555 1_555
H3_2 C5_2 1_555 1_555
C6_2 C4_2 1_555 1_555
C7_2 C5_2 1_555 1_555
C8_2 C7_2 1_555 1_555
C10_2 S1_2 1_555 1_555
C12_2 C10_2 1_555 1_555
H6_2 C12_2 1_555 1_555
O5_2 S1_2 1_555 1_555
O6_2 S1_2 1_555 1_555
S4_2 C48_2 1_555 1_555
O40 C43_2 1_555 1_555
O41 C43_2 1_555 1_555
C43_2 C44_2 1_555 1_555
C44_2 C45_2 1_555 1_555
C45_2 H19_2 1_555 1_555
C46_2 C44_2 1_555 1_555
H20_2 C46_2 1_555 1_555
C47_2 C46_2 1_555 1_555
C48_2 C45_2 1_555 1_555
C49_2 C47_2 1_555 1_555
C52_2 S4_2 1_555 1_555
O23_2 S4_2 1_555 1_555
O24_2 S4_2 1_555 1_555
O34_2 Zn15 1_555 1_555
O37 Zn15 1_555 1_555
O39 Zn18 1_555 1_555
C6_2 C7_2 1_555 1_555
C8_2 C10_2 1_555 1_555
C48_2 C49_2 1_555 1_555
O34_2 H33_2 1_555 1_555
O34_2 H34_2 1_555 1_555
O35 C15_2 1_555 1_555
O8 C15_2 1_555 1_555
C15_2 C16_2 1_555 1_555
C18_2 C16_2 1_555 1_555
H8_2 C18_2 1_555 1_555
C19_2 C18_2 1_555 1_555
H9_2 C19_2 1_555 1_555
S3_2 C33_2 1_555 1_555
O38 C29_2 1_555 1_555
O39 C29_2 1_555 1_555
C29_2 C30_2 1_555 1_555
C30_2 C31_2 1_555 1_555
C31_2 H13_2 1_555 1_555
C32_2 C30_2 1_555 1_555
H14_2 C32_2 1_555 1_555
C33_2 C31_2 1_555 1_555
C35_2 C33_2 1_555 1_555
C38_2 S3_2 1_555 1_555
O17_2 S3_2 1_555 1_555
O18_2 S3_2 1_555 1_555
S5_2 C62_2 1_555 1_555
C66_2 S5_2 1_555 1_555
O30_2 S5_2 1_555 1_555
Zn11 O8 1_555 1_555
C62_2 C63_2 1_555 1_555
O33_2 H31_2 1_555 1_555
O33_2 H32_2 1_555 1_555
Zn1_2 O4_2 1_555 1_555
Zn9 O15_2 1_555 1_555
Zn11 O3_2 1_555 1_555
H4_2 C9_2 1_555 1_555
C11_2 C9_2 1_555 1_555
H5_2 C11_2 1_555 1_555
C13_2 C11_2 1_555 1_555
C14_2 C13_2 1_555 1_555
O3_2 C14_2 1_555 1_555
O4_2 C14_2 1_555 1_555
H15_2 C34_2 1_555 1_555
C37_2 C36_2 1_555 1_555
H16_2 C37_2 1_555 1_555
C39_2 C37_2 1_555 1_555
H17_2 C39_2 1_555 1_555
C41_2 C39_2 1_555 1_555
C42_2 C41_2 1_555 1_555
O15_2 C42_2 1_555 1_555
O16_2 C42_2 1_555 1_555
C65_2 C64_2 1_555 1_555
C68_2 C65_2 1_555 1_555
H30_2 C68_2 1_555 1_555
C69_2 C67_2 1_555 1_555
C70_2 C69_2 1_555 1_555
O27_2 Zn1_2 1_555 1_555
O28_2 Zn9 1_555 1_555
O44 Zn1_2 1_555 1_555
O46 Zn1_2 1_555 1_555
Zn9 O46 1_555 1_555
C40_2 C41_2 1_555 1_555
C68_2 C69_2 1_555 1_555
C70_2 O27_2 1_555 1_555
C70_2 O28_2 1_555 1_555
Zn7 O10_2 1_555 1_555
C25_2 C26_2 1_555 1_555
C26_2 O37 1_555 1_555
H11_2 C27_2 1_555 1_555
O10_2 C26_2 1_555 1_555
H23_2 C53_2 1_555 1_555
C55_2 C53_2 1_555 1_555
C56_2 C55_2 1_555 1_555
O21_2 Zn7 1_555 1_555
O42 C56_2 1_555 1_555
O43 C57_2 1_555 1_555
O26_2 Zn7 1_555 1_555
C57_2 O26_2 1_555 1_555
C58_2 C57_2 1_555 1_555
C25_2 C27_2 1_555 1_555
C56_2 O21_2 1_555 1_555
S2 C20 1_555 1_555
C17 H7 1_555 1_555
C20 C17 1_555 1_555
C22 C21 1_555 1_555
C23 C22 1_555 1_555
H10 C23 1_555 1_555
C24 S2 1_555 1_555
C28 C23 1_555 1_555
H12 C28 1_555 1_555
O12 S2 1_555 1_555
H24 C54 1_555 1_555
H25 C59 1_555 1_555
C61 C59 1_555 1_555
C20 C21 1_555 1_555
C22 C24 1_555 1_555
S2_2 C20_2 1_555 1_555
C17_2 H7_2 1_555 1_555
C20_2 C17_2 1_555 1_555
C22_2 C21_2 1_555 1_555
C23_2 C22_2 1_555 1_555
H10_2 C23_2 1_555 1_555
C24_2 S2_2 1_555 1_555
C28_2 C23_2 1_555 1_555
H12_2 C28_2 1_555 1_555
O12_2 S2_2 1_555 1_555
H24_2 C54_2 1_555 1_555
H25_2 C59_2 1_555 1_555
C61_2 C59_2 1_555 1_555
C20_2 C21_2 1_555 1_555
C22_2 C24_2 1_555 1_555
C51_2 C50_2 1_555 1_555
H22_2 C51_2 1_555 1_555
H26_2 C60_2 1_555 1_555

#END
