
###############################################################################
#
# This file contains modified crystal structure data generated from the
# MOF subset of the Cambridge Structural Database (CSD) v543 
# hosted by the Cambridge Crystallographic Data Centre (CCDC).
#
# This work is licensed under the Creative Commons
# Attribution-NonCommercial-ShareAlike 4.0 International License.
# To view a copy of this license, visit
# http://creativecommons.org/licenses/by-nc-sa/4.0/
# or send a letter to
# Creative Commons, PO Box 1866, Mountain View, CA 94042, USA.
#
# CIF created using the CSD Python API on 29 September 2022
# The structure has been converted into the P1 space group
# The structure has a 3D framework
# The original CSD entry YOZQAG is in the rhombohedral crystal system
# The framework has been calculated to contain at least 10.0% void space
# The void calculation uses a probe of radius 1.32A, grid spacing 0.4
# H atom positions have been added when not included in the experimental data
# Generated hydrogen atom positions removed from atoms on special positions
#
###############################################################################

data_YOZQAG
_chemical_formula_moiety         '(C504 H274 O248 S36 Zn46 6+)n'
_symmetry_cell_setting           triclinic
_symmetry_space_group_name_H-M   'P 1'
_symmetry_Int_Tables_number      1
_space_group_name_Hall           'P 1'
loop_
_symmetry_equiv_pos_site_id
_symmetry_equiv_pos_as_xyz
1 x,y,z
_cell_length_a                   23.078(3)
_cell_length_b                   23.078(3)
_cell_length_c                   71.754(14)
_cell_angle_alpha                90
_cell_angle_beta                 90
_cell_angle_gamma                120
_cell_volume                     33095.8
loop_
_atom_site_label
_atom_site_type_symbol
_atom_site_fract_x
_atom_site_fract_y
_atom_site_fract_z
O11 O 0.0135(5) 0.6487(4) 0.00880(12)
Zn2 Zn 0.17270(5) 0.59803(5) 0.907300(13)
Zn3 Zn 0.22673(5) 0.72621(6) 0.929290(14)
C2 C 0.0281(5) 0.8510(4) 0.80308(12)
C3 C 0.0067(5) 0.7854(5) 0.80852(14)
C4 C 0.0758(5) 0.9032(5) 0.81374(12)
H2 H 0.0901 0.9470 0.8101
C5 C 0.0338(4) 0.7754(4) 0.82478(13)
C6 C 0.1026(5) 0.8918(4) 0.82952(13)
H3 H 0.1361 0.9277 0.8361
C7 C 0.0802(4) 0.8285(5) 0.83548(12)
C8 C 0.1008(5) 0.8041(5) 0.85157(14)
C9 C 0.0708(4) 0.7352(5) 0.85293(14)
C10 C 0.1472(5) 0.8433(4) 0.86534(13)
H4 H 0.1688 0.8898 0.8647
C11 C 0.1603(5) 0.8121(5) 0.87973(14)
H5 H 0.1881 0.8378 0.8894
C12 C 0.0878(4) 0.7048(5) 0.86695(15)
H6 H 0.0684 0.6585 0.8673
C13 C 0.1331(4) 0.7434(5) 0.88006(13)
C14 C 0.1547(4) 0.7118(6) 0.89439(14)
O1 O 0.1375(3) 0.6512(3) 0.89298(8)
O2 O 0.1917(3) 0.7509(3) 0.90735(9)
O4 O 0.0143(3) 0.9267(3) 0.78375(7)
S1 S 0.01747(15) 0.69821(14) 0.83372(5)
O6 O 0.0427(4) 0.6667(4) 0.82135(11)
C15 C 0.1026(4) 0.5990(5) 0.93978(12)
C16 C 0.0470(4) 0.5667(5) 0.95400(12)
C17 C 0.0120(5) 0.4974(5) 0.95531(12)
H7 H 0.0216 0.4726 0.9470
C18 C 0.0333(4) 0.6047(5) 0.96585(13)
H8 H 0.0565 0.6511 0.9650
O9 O 0.1082(3) 0.5623(3) 0.92795(8)
O10 O 0.1390(3) 0.6610(3) 0.94119(8)
Zn17 Zn 0.05954(6) 0.16615(8) 0.737377(14)
C29 C 0.2009(5) 0.5362(7) 0.87957(13)
C31 C 0.1843(4) 0.4896(6) 0.86359(12)
C33 C 0.1187(5) 0.4454(7) 0.85815(14)
H13 H 0.0827 0.4407 0.8651
C35 C 0.2365(5) 0.4941(7) 0.85293(12)
H15 H 0.2803 0.5236 0.8566
C37 C 0.1087(4) 0.4083(6) 0.84189(13)
C39 C 0.2251(4) 0.4559(6) 0.83715(13)
H17 H 0.2610 0.4583 0.8306
C41 C 0.1618(5) 0.4150(6) 0.83119(12)
C43 C 0.1374(5) 0.3700(7) 0.81510(14)
C45 C 0.0685(5) 0.3311(6) 0.81374(14)
C47 C 0.1766(4) 0.3628(6) 0.80133(13)
H19 H 0.2231 0.3877 0.8020
C49 C 0.1454(5) 0.3185(7) 0.78694(14)
H21 H 0.1711 0.3164 0.7773
C51 C 0.0381(5) 0.2837(6) 0.79972(15)
C53 C 0.0767(5) 0.2770(6) 0.78661(13)
C55 C 0.0451(6) 0.2238(7) 0.77228(14)
O17 O 0.0842(3) 0.2259(4) 0.75932(9)
O20 O 0.1518(3) 0.5300(4) 0.88927(10)
O24 O 0.2600(3) 0.5791(4) 0.88292(7)
S3 S 0.03154(14) 0.34741(21) 0.83295(5)
O28 O 0.0000(4) 0.2907(6) 0.84532(11)
O34 O 0.2748(8) 0.7695(5) 0.95067(15)
O47 O 0.2596(2) 0.6716(2) 0.91564(6)
Zn1 Zn 0.6667 0.3333 0.06818(2)
C23 C 0.9016(5) 0.5324(6) 0.00617(16)
C24 C 0.8589(5) 0.4156(5) 0.00301(14)
C25 C 0.8608(6) 0.5237(5) 0.02126(14)
H11 H 0.8614 0.5598 0.0272
C26 C 0.8189(6) 0.4052(6) 0.01808(15)
H12 H 0.7911 0.3618 0.0223
C27 C 0.8190(7) 0.4581(6) 0.02709(15)
C28 C 0.7748(7) 0.4457(6) 0.04396(16)
O7 O 0.7471(4) 0.3891(3) 0.05069(9)
O8 O 0.7695(5) 0.4947(6) 0.04933(15)
O13 O 0.7404(2) 0.3284(2) 0.08436(6)
Zn7 Zn 0.82730(5) 0.40197(5) 0.092700(13)
Zn8 Zn 0.59803(5) 0.42533(7) 0.092700(13)
Zn9 Zn 0.57467(7) 0.17270(5) 0.092700(13)
Zn14 Zn 0.72621(6) 0.49948(8) 0.070710(14)
Zn15 Zn 0.77327(5) 0.27379(6) 0.070710(14)
Zn16 Zn 0.50052(8) 0.22673(5) 0.070710(14)
C73 C 0.4676(6) 0.3692(8) 0.00617(16)
C74 C 0.6308(8) 0.0984(5) 0.00617(16)
C75 C 0.5844(5) 0.4433(7) 0.00301(14)
C76 C 0.5567(7) 0.1411(5) 0.00301(14)
C77 C 0.4763(5) 0.3371(8) 0.02126(14)
C78 C 0.6629(8) 0.1392(6) 0.02126(14)
H33 H 0.4402 0.3016 0.0272
H34 H 0.6984 0.1386 0.0272
C79 C 0.5948(6) 0.4137(8) 0.01808(15)
C80 C 0.5863(8) 0.1811(6) 0.01808(15)
H35 H 0.6382 0.4293 0.0223
H36 H 0.5707 0.2089 0.0223
C81 C 0.5419(6) 0.3609(9) 0.02709(15)
C82 C 0.6391(9) 0.1810(7) 0.02709(15)
C83 C 0.5543(6) 0.3291(9) 0.04396(16)
C84 C 0.6709(9) 0.2252(7) 0.04396(16)
O30 O 0.6109(3) 0.3580(5) 0.05069(9)
O31 O 0.6420(5) 0.2529(4) 0.05069(9)
O32 O 0.5053(6) 0.2748(8) 0.04933(15)
O33 O 0.7252(8) 0.2305(5) 0.04933(15)
O41 O 0.3513(4) 0.3648(6) 0.00880(12)
O45 O 0.6716(2) 0.4120(3) 0.08436(6)
O46 O 0.5880(3) 0.2596(2) 0.08436(6)
C1 C 0.9981(5) 0.8676(5) 0.78710(13)
H1 H 0.9754 0.7494 0.8016
O3 O 0.9552(3) 0.8185(3) 0.77740(10)
O5 O 0.9497(3) 0.6606(4) 0.83967(13)
C19 C 0.9626(5) 0.4640(5) 0.96882(14)
H9 H 0.9396 0.4176 0.9698
C20 C 0.9848(5) 0.5730(5) 0.97895(13)
C21 C 0.9493(5) 0.5036(5) 0.98082(13)
C22 C 0.9010(6) 0.4797(5) 0.99658(13)
H10 H 0.8580 0.3794 0.9970
S2 S 0.9597(2) 0.61086(17) 0.99600(5)
O12 O 0.9280(5) 0.6434(4) 0.98770(13)
Zn4 Zn 0.40197(5) 0.57467(7) 0.907300(13)
Zn6 Zn 0.90800(7) 0.83937(5) 0.759367(13)
Zn10 Zn 0.93136(5) 0.09200(7) 0.759367(13)
Zn11 Zn 0.16063(5) 0.06864(5) 0.759367(13)
Zn12 Zn 0.27379(6) 0.50052(8) 0.929290(14)
C30 C 0.1324(5) 0.1305(7) 0.78710(13)
C32 C 0.1490(4) 0.1771(6) 0.80308(12)
C34 C 0.2146(5) 0.2213(7) 0.80852(14)
H14 H 0.2506 0.2260 0.8016
C36 C 0.0968(5) 0.1726(7) 0.81374(12)
H16 H 0.0530 0.1431 0.8101
C38 C 0.2246(4) 0.2584(6) 0.82478(13)
C40 C 0.1082(4) 0.2108(6) 0.82952(13)
H18 H 0.0723 0.2084 0.8361
C42 C 0.1715(5) 0.2517(6) 0.83548(12)
C44 C 0.1959(5) 0.2967(7) 0.85157(14)
C46 C 0.2648(5) 0.3356(6) 0.85293(14)
C48 C 0.1567(4) 0.3039(6) 0.86534(13)
H20 H 0.1102 0.2790 0.8647
C50 C 0.1879(5) 0.3482(7) 0.87973(14)
H22 H 0.1622 0.3503 0.8894
C52 C 0.2952(5) 0.3830(6) 0.86695(15)
H23 H 0.9918 0.2568 0.7994
H24 H 0.3415 0.4099 0.8673
C54 C 0.2566(5) 0.3897(6) 0.88006(13)
C56 C 0.2882(6) 0.4429(7) 0.89439(14)
O14 O 0.9845(3) 0.1804(4) 0.77369(8)
O15 O 0.3488(3) 0.4863(4) 0.89298(8)
O18 O 0.2491(3) 0.4408(4) 0.90735(9)
O21 O 0.1815(3) 0.1367(4) 0.77740(10)
O22 O 0.4700(4) 0.6219(3) 0.88927(10)
O25 O 0.0733(3) 0.0876(4) 0.78375(7)
S4 S 0.30179(14) 0.31926(21) 0.83372(5)
O26 O 0.9939(4) 0.3776(5) 0.82700(13)
O27 O 0.3394(4) 0.2891(5) 0.83967(13)
O28_2 O 1.0000(4) 0.2907(6) 0.84532(11)
O29 O 0.3333(4) 0.3760(6) 0.82135(11)
C57 C 0.4010(5) 0.5036(6) 0.93978(12)
C59 C 0.4333(5) 0.4803(6) 0.95400(12)
C61 C 0.5026(5) 0.5146(7) 0.95531(12)
H25 H 0.5274 0.5490 0.9470
C63 C 0.3953(5) 0.4286(6) 0.96585(13)
H27 H 0.3489 0.4054 0.9650
C65 C 0.5360(5) 0.4986(7) 0.96882(14)
C66 C 0.5014(7) 0.0374(5) 0.96882(14)
H29 H 0.5824 0.5220 0.9698
H30 H 0.4780 0.0604 0.9698
C67 C 0.4270(5) 0.4118(7) 0.97895(13)
C68 C 0.5882(7) 0.0152(5) 0.97895(13)
C69 C 0.4964(5) 0.4457(7) 0.98082(13)
C70 C 0.5543(7) 0.0507(5) 0.98082(13)
C71 C 0.5203(5) 0.4213(8) 0.99658(13)
C72 C 0.5787(8) 0.0990(6) 0.99658(13)
H31 H 0.6206 0.4786 0.9970
H32 H 0.5214 0.1420 0.9970
O35 O 0.2305(5) 0.5053(6) 0.95067(15)
O37 O 0.4377(3) 0.5459(4) 0.92795(8)
O39 O 0.3390(3) 0.4780(4) 0.94119(8)
S5 S 0.38914(17) 0.34884(26) 0.99600(5)
S6 S 0.65116(26) 0.0403(2) 0.99600(5)
O43 O 0.3566(4) 0.2846(6) 0.98770(13)
O44 O 0.7154(6) 0.0720(5) 0.98770(13)
O48 O 0.3284(2) 0.5880(3) 0.91564(6)
Zn5 Zn 0.42533(7) 0.82730(5) 0.907300(13)
Zn13 Zn 0.49948(8) 0.77327(5) 0.929290(14)
O16 O 0.5137(4) 0.8625(3) 0.89298(8)
O19 O 0.5592(4) 0.8083(3) 0.90735(9)
O23 O 0.3781(3) 0.8482(3) 0.88927(10)
C58 C 0.4964(6) 0.8974(4) 0.93978(12)
C60 C 0.5197(6) 0.9530(4) 0.95400(12)
C62 C 0.4854(7) 0.9880(5) 0.95531(12)
H26 H 0.4510 0.9784 0.9470
C64 C 0.5714(6) 0.9667(4) 0.96585(13)
H28 H 0.5946 0.9435 0.9650
O36 O 0.4947(6) 0.7252(8) 0.95067(15)
O38 O 0.4541(4) 0.8918(3) 0.92795(8)
O40 O 0.5220(4) 0.8610(3) 0.94119(8)
O49 O 0.4120(3) 0.7404(2) 0.91564(6)
Zn17_2 Zn 0.83385(8) 0.89340(10) 0.737377(14)
C29_2 C 0.4638(7) 0.6648(9) 0.87957(13)
C30_2 C 0.8695(7) 0.0019(9) 0.78710(13)
C31_2 C 0.5104(6) 0.6948(7) 0.86359(12)
C33_2 C 0.5546(7) 0.6734(9) 0.85815(14)
H13_2 H 0.5593 0.6421 0.8651
H14_2 H 0.7740 0.0246 0.8016
C35_2 C 0.5059(7) 0.7425(9) 0.85293(12)
H15_2 H 0.4764 0.7568 0.8566
C37_2 C 0.5917(6) 0.7005(7) 0.84189(13)
C39_2 C 0.5441(6) 0.7693(7) 0.83715(13)
H17_2 H 0.5417 0.8028 0.8306
C41_2 C 0.5850(6) 0.7469(8) 0.83119(12)
C43_2 C 0.6300(7) 0.7675(9) 0.81510(14)
C45_2 C 0.6689(6) 0.7375(8) 0.81374(14)
C47_2 C 0.6372(6) 0.8139(7) 0.80133(13)
H19_2 H 0.6123 0.8355 0.8020
C49_2 C 0.6815(7) 0.8270(9) 0.78694(14)
H21_2 H 0.6836 0.8548 0.7773
C51_2 C 0.7163(6) 0.7545(8) 0.79972(15)
H23_2 H 0.7432 0.7351 0.7994
C53_2 C 0.7230(6) 0.7998(8) 0.78661(13)
C55_2 C 0.7762(7) 0.8214(9) 0.77228(14)
O14_2 O 0.8196(4) 0.8042(5) 0.77369(8)
O17_2 O 0.7741(4) 0.8584(5) 0.75932(9)
O21_2 O 0.8633(4) 0.0448(5) 0.77740(10)
O24_2 O 0.4209(4) 0.6810(5) 0.88292(7)
S3_2 S 0.65259(21) 0.68414(25) 0.83295(5)
O26_2 O 0.6224(5) 0.6164(6) 0.82700(13)
O27_2 O 0.7109(5) 0.0503(6) 0.83967(13)
O28_3 O 0.7093(6) 0.7094(7) 0.84532(11)
C32_2 C 0.8229(6) 0.9719(7) 0.80308(12)
C34_2 C 0.7787(7) 0.9933(9) 0.80852(14)
C36_2 C 0.8274(7) 0.9242(9) 0.81374(12)
H16_2 H 0.8569 0.9099 0.8101
C38_2 C 0.7416(6) 0.9662(7) 0.82478(13)
C40_2 C 0.7892(6) 0.8974(7) 0.82952(13)
H18_2 H 0.7916 0.8639 0.8361
C42_2 C 0.7483(6) 0.9198(8) 0.83548(12)
C44_2 C 0.7033(7) 0.8992(9) 0.85157(14)
C46_2 C 0.6644(6) 0.9292(8) 0.85293(14)
C48_2 C 0.6961(6) 0.8528(7) 0.86534(13)
H20_2 H 0.7210 0.8312 0.8647
C50_2 C 0.6518(7) 0.8397(9) 0.87973(14)
H22_2 H 0.6497 0.8119 0.8894
C52_2 C 0.6170(6) 0.9122(8) 0.86695(15)
H24_2 H 0.5901 0.9316 0.8673
C54_2 C 0.6103(6) 0.8669(8) 0.88006(13)
C56_2 C 0.5571(7) 0.8453(9) 0.89439(14)
O25_2 O 0.9124(4) 0.9857(5) 0.78375(7)
S4_2 S 0.68074(21) 0.98253(25) 0.83372(5)
O29_2 O 0.6240(6) 0.9573(7) 0.82135(11)
H23_3 H 0.2649 0.0082 0.7994
O14_3 O 0.1958(5) 0.0155(3) 0.77369(8)
O26_3 O 0.3836(6) 0.0061(4) 0.82700(13)
O28_4 O 0.2906(7) -0.0000(4) 0.84532(11)
Zn17_3 Zn 0.10660(10) 0.94046(6) 0.737377(14)
C29_3 C 0.3352(9) 0.7991(5) 0.87957(13)
C31_3 C 0.3052(7) 0.8157(4) 0.86359(12)
C33_3 C 0.3266(9) 0.8813(5) 0.85815(14)
H13_3 H 0.3579 0.9173 0.8651
C35_3 C 0.2575(9) 0.7635(5) 0.85293(12)
H15_3 H 0.2432 0.7197 0.8566
C37_3 C 0.2995(7) 0.8913(4) 0.84189(13)
C39_3 C 0.2307(7) 0.7749(4) 0.83715(13)
H17_3 H 0.1972 0.7390 0.8306
C41_3 C 0.2531(8) 0.8382(5) 0.83119(12)
C43_3 C 0.2325(9) 0.8626(5) 0.81510(14)
C45_3 C 0.2625(8) 0.9315(5) 0.81374(14)
C47_3 C 0.1861(7) 0.8234(4) 0.80133(13)
H19_3 H 0.1645 0.7769 0.8020
C49_3 C 0.1730(9) 0.8546(5) 0.78694(14)
H21_3 H 0.1452 0.8289 0.7773
C51_3 C 0.2455(8) 0.9619(5) 0.79972(15)
C53_3 C 0.2002(8) 0.9233(5) 0.78661(13)
C55_3 C 0.1786(9) 0.9549(6) 0.77228(14)
O17_3 O 0.1416(5) 0.9158(3) 0.75932(9)
O24_3 O 0.3190(5) 0.7400(3) 0.88292(7)
S3_3 S 0.31586(25) 0.96846(14) 0.83295(5)
O28_5 O 0.2906(7) 1.0000(4) 0.84532(11)
Zn3_2 Zn 0.89340(5) 0.05954(6) 0.262623(14)
C1_2 C 0.6648(5) 0.2009(5) 0.12043(13)
C2_2 C 0.6948(5) 0.1843(4) 0.13641(12)
C3_2 C 0.6734(5) 0.1187(5) 0.14185(14)
H1_2 H 0.6421 0.0827 0.1349
C4_2 C 0.7425(5) 0.2365(5) 0.14707(12)
H2_2 H 0.7568 0.2803 0.1434
C5_2 C 0.7005(4) 0.1087(4) 0.15811(13)
C6_2 C 0.7693(5) 0.2251(4) 0.16285(13)
H3_2 H 0.8028 0.2610 0.1694
C7_2 C 0.7469(4) 0.1618(5) 0.16881(12)
C8_2 C 0.7675(5) 0.1374(5) 0.18490(14)
C9_2 C 0.7375(4) 0.0685(5) 0.18626(14)
C10_2 C 0.8139(5) 0.1766(4) 0.19867(13)
H4_2 H 0.8355 0.2231 0.1980
C11_2 C 0.8270(5) 0.1454(5) 0.21306(14)
H5_2 H 0.8548 0.1711 0.2227
C12_2 C 0.7545(4) 0.0381(5) 0.20028(15)
C13_2 C 0.7998(4) 0.0767(5) 0.21339(13)
C14_2 C 0.8214(4) 0.0451(6) 0.22772(14)
O2_2 O 0.8584(3) 0.0842(3) 0.24068(9)
O3_2 O 0.6219(3) 0.1518(3) 0.11073(10)
O4_2 O 0.6810(3) 0.2600(3) 0.11708(7)
S1_2 S 0.68414(15) 0.03154(14) 0.16705(5)
O6_2 O 0.7094(4) 0.0000(4) 0.15468(11)
O34_2 O 0.9415(8) 0.1028(5) 0.28400(15)
O47_2 O 0.9263(2) 0.0049(2) 0.24897(6)
Zn1_2 Zn 0.3334 0.6666 0.40151(2)
Zn2_2 Zn 0.83937(5) 0.93136(5) 0.240633(13)
H6_2 H 0.7351 0.9918 0.2006
O1_2 O 0.8042(3) 0.9845(3) 0.22631(8)
O5_2 O 0.6164(3) 0.9939(4) 0.17300(13)
O6_3 O 0.7094(4) 1.0000(4) 0.15468(11)
C15_2 C 0.7693(4) 0.9323(5) 0.27311(12)
C16_2 C 0.7137(4) 0.9000(5) 0.28733(12)
C17_2 C 0.6787(5) 0.8307(5) 0.28864(12)
H7_2 H 0.6883 0.8059 0.2803
C18_2 C 0.7000(4) 0.9380(5) 0.29918(13)
H8_2 H 0.7232 0.9844 0.2983
C19_2 C 0.6293(5) 0.7973(5) 0.30215(14)
H9_2 H 0.6063 0.7509 0.3031
C20_2 C 0.6515(5) 0.9063(5) 0.31228(13)
C21_2 C 0.6160(5) 0.8369(5) 0.31415(13)
C22_2 C 0.5677(6) 0.8130(5) 0.32991(13)
C23_2 C 0.5683(5) 0.8657(6) 0.33950(16)
C24_2 C 0.5256(5) 0.7489(5) 0.33634(14)
H10_2 H 0.5247 0.7127 0.3303
C25_2 C 0.5275(6) 0.8570(5) 0.35459(14)
H11_2 H 0.5281 0.8931 0.3605
C26_2 C 0.4856(6) 0.7385(6) 0.35141(15)
H12_2 H 0.4578 0.6951 0.3556
C27_2 C 0.4857(7) 0.7914(6) 0.36042(15)
C28_2 C 0.4415(7) 0.7790(6) 0.37729(16)
O7_2 O 0.4138(4) 0.7224(3) 0.38402(9)
O8_2 O 0.4362(5) 0.8280(6) 0.38266(15)
O9_2 O 0.7749(3) 0.8956(3) 0.26128(8)
O10_2 O 0.8057(3) 0.9943(3) 0.27452(8)
S2_2 S 0.6264(2) 0.94419(17) 0.32933(5)
O11_2 O 0.6802(5) 0.9820(4) 0.34213(12)
O12_2 O 0.5947(5) 0.9767(4) 0.32103(13)
O13_2 O 0.4071(2) 0.6617(2) 0.41769(6)
Zn4_2 Zn 0.06864(5) 0.90800(7) 0.240633(13)
Zn5_2 Zn 0.09200(7) 0.16063(5) 0.240633(13)
Zn7_2 Zn 0.49397(5) 0.73530(5) 0.426033(13)
Zn8_2 Zn 0.26470(5) 0.75866(7) 0.426033(13)
Zn9_2 Zn 0.24134(7) 0.50603(5) 0.426033(13)
Zn13_2 Zn 0.16615(8) 0.10660(5) 0.262623(14)
Zn14_2 Zn 0.39288(6) 0.83281(8) 0.404043(14)
Zn15_2 Zn 0.43994(5) 0.60712(6) 0.404043(14)
Zn16_2 Zn 0.16719(8) 0.56006(5) 0.404043(14)
C29_4 C 0.8676(5) 0.8695(7) 0.21290(13)
C31_4 C 0.8510(4) 0.8229(6) 0.19692(12)
C33_4 C 0.7854(5) 0.7787(7) 0.19148(14)
H13_4 H 0.7494 0.7740 0.1984
C35_4 C 0.9032(5) 0.8274(7) 0.18626(12)
H15_4 H 0.9470 0.8569 0.1899
C37_4 C 0.7754(4) 0.7416(6) 0.17522(13)
C39_4 C 0.8918(4) 0.7892(6) 0.17048(13)
H17_4 H 0.9277 0.7916 0.1639
C41_4 C 0.8285(5) 0.7483(6) 0.16452(12)
C43_4 C 0.8041(5) 0.7033(7) 0.14843(14)
C45_4 C 0.7352(5) 0.6644(6) 0.14707(14)
C47_4 C 0.8433(4) 0.6961(6) 0.13466(13)
H19_4 H 0.8898 0.7210 0.1353
C49_4 C 0.8121(5) 0.6518(7) 0.12027(14)
H21_4 H 0.8378 0.6497 0.1106
C51_4 C 0.7048(5) 0.6170(6) 0.13305(15)
H23_4 H 0.6585 0.5901 0.1327
H24_3 H 0.0082 0.7432 0.2006
C53_4 C 0.7434(5) 0.6103(6) 0.11994(13)
C55_4 C 0.7118(6) 0.5571(7) 0.10561(14)
O14_4 O 0.6512(3) 0.5137(4) 0.10702(8)
O15_2 O 0.0155(3) 0.8196(4) 0.22631(8)
O16_2 O 0.1804(4) 0.1958(3) 0.22631(8)
O17_4 O 0.7509(3) 0.5592(4) 0.09265(9)
O19_2 O 0.2259(4) 0.1416(3) 0.24068(9)
O20_2 O 0.8185(3) 0.8633(4) 0.22260(10)
O22_2 O 0.1367(4) 0.9552(3) 0.22260(10)
O23_2 O 0.0448(3) 0.1815(3) 0.22260(10)
O24_4 O 0.9267(3) 0.9124(4) 0.21625(7)
S3_4 S 0.69821(14) 0.68074(21) 0.16628(5)
O26_4 O 0.6606(4) 0.7109(5) 0.16033(13)
O27_3 O 0.0061(4) 0.6224(5) 0.17300(13)
O28_6 O 0.6667(4) 0.6240(6) 0.17865(11)
O29_3 O -0.0000(4) 0.7093(6) 0.15468(11)
C57_2 C 0.0677(5) 0.8369(6) 0.27311(12)
C58_2 C 0.1631(6) 0.2307(4) 0.27311(12)
C59_2 C 0.1000(5) 0.8136(6) 0.28733(12)
C60_2 C 0.1864(6) 0.2863(4) 0.28733(12)
C61_2 C 0.1693(5) 0.8479(7) 0.28864(12)
C62_2 C 0.1521(7) 0.3213(5) 0.28864(12)
H25_2 H 0.1941 0.8823 0.2803
H26_2 H 0.1177 0.3117 0.2803
C63_2 C 0.0620(5) 0.7619(6) 0.29918(13)
C64_2 C 0.2381(6) 0.3000(4) 0.29918(13)
H27_2 H 0.0156 0.7387 0.2983
H28_2 H 0.2613 0.2768 0.2983
C65_2 C 0.2027(5) 0.8319(7) 0.30215(14)
C66_2 C 0.1681(7) 0.3707(5) 0.30215(14)
H29_2 H 0.2491 0.8553 0.3031
H30_2 H 0.1447 0.3937 0.3031
C67_2 C 0.0937(5) 0.7451(7) 0.31228(13)
C68_2 C 0.2549(7) 0.3485(5) 0.31228(13)
C69_2 C 0.1631(5) 0.7790(7) 0.31415(13)
C70_2 C 0.2210(7) 0.3840(5) 0.31415(13)
C71_2 C 0.1870(5) 0.7546(8) 0.32991(13)
C72_2 C 0.2454(8) 0.4323(6) 0.32991(13)
C73_2 C 0.1343(6) 0.7025(8) 0.33950(16)
C74_2 C 0.2975(8) 0.4317(5) 0.33950(16)
C75_2 C 0.2511(5) 0.7766(7) 0.33634(14)
C76_2 C 0.2234(7) 0.4744(5) 0.33634(14)
H31_2 H 0.2873 0.8119 0.3303
H32_2 H 0.1881 0.4753 0.3303
C77_2 C 0.1430(5) 0.6704(8) 0.35459(14)
C78_2 C 0.3296(8) 0.4725(6) 0.35459(14)
H33_2 H 0.1069 0.6349 0.3605
H34_2 H 0.3651 0.4719 0.3605
C79_2 C 0.2615(6) 0.7470(8) 0.35141(15)
C80_2 C 0.2530(8) 0.5144(6) 0.35141(15)
H35_2 H 0.3049 0.7626 0.3556
H36_2 H 0.2374 0.5422 0.3556
C81_2 C 0.2086(6) 0.6942(9) 0.36042(15)
C82_2 C 0.3058(9) 0.5143(7) 0.36042(15)
C83_2 C 0.2210(6) 0.6624(9) 0.37729(16)
C84_2 C 0.3376(9) 0.5585(7) 0.37729(16)
O30_2 O 0.2776(3) 0.6913(5) 0.38402(9)
O31_2 O 0.3087(5) 0.5862(4) 0.38402(9)
O32_2 O 0.1720(6) 0.6081(8) 0.38266(15)
O33_2 O 0.3919(8) 0.5638(5) 0.38266(15)
O36_2 O 0.1614(6) 0.0585(8) 0.28400(15)
O37_2 O 0.1044(3) 0.8792(4) 0.26128(8)
O38_2 O 0.1208(4) 0.2251(3) 0.26128(8)
O39_2 O 0.0057(3) 0.8113(4) 0.27452(8)
O40_2 O 0.1887(4) 0.1943(3) 0.27452(8)
S5_2 S 0.05581(17) 0.68217(26) 0.32933(5)
S6_2 S 0.31783(26) 0.3736(2) 0.32933(5)
O41_2 O 0.0180(4) 0.6981(6) 0.34213(12)
O42 O 0.3019(6) 0.3198(5) 0.34213(12)
O43_2 O 0.0233(4) 0.6179(6) 0.32103(13)
O44_2 O 0.3821(6) 0.4053(5) 0.32103(13)
O45_2 O 0.3383(2) 0.7453(3) 0.41769(6)
O46_2 O 0.2547(3) 0.5929(2) 0.41769(6)
O49_2 O 0.0787(3) 0.0737(2) 0.24897(6)
Zn12_2 Zn 0.94046(6) 0.83385(8) 0.262623(14)
C30_3 C 0.7991(5) 0.4638(7) 0.12043(13)
C32_3 C 0.8157(4) 0.5104(6) 0.13641(12)
C34_3 C 0.8813(5) 0.5546(7) 0.14185(14)
H14_3 H 0.9173 0.5593 0.1349
C36_3 C 0.7635(5) 0.5059(7) 0.14707(12)
H16_3 H 0.7197 0.4764 0.1434
C38_3 C 0.8913(4) 0.5917(6) 0.15811(13)
C40_3 C 0.7749(4) 0.5441(6) 0.16285(13)
H18_3 H 0.7390 0.5417 0.1694
C42_3 C 0.8382(5) 0.5850(6) 0.16881(12)
C44_3 C 0.8626(5) 0.6300(7) 0.18490(14)
C46_3 C 0.9315(5) 0.6689(6) 0.18626(14)
C48_3 C 0.8234(4) 0.6372(6) 0.19867(13)
H20_3 H 0.7769 0.6123 0.1980
C50_3 C 0.8546(5) 0.6815(7) 0.21306(14)
H22_3 H 0.8289 0.6836 0.2227
C52_3 C 0.9619(5) 0.7163(6) 0.20028(15)
C54_3 C 0.9233(5) 0.7230(6) 0.21339(13)
C56_3 C 0.9549(6) 0.7762(7) 0.22772(14)
O18_2 O 0.9158(3) 0.7741(4) 0.24068(9)
O21_3 O 0.8482(3) 0.4700(4) 0.11073(10)
O25_3 O 0.7400(3) 0.4209(4) 0.11708(7)
S4_3 S 0.96846(14) 0.65259(21) 0.16705(5)
O29_4 O 1.0000(4) 0.7093(6) 0.15468(11)
O35_2 O 0.8972(5) 0.8386(6) 0.28400(15)
O48_2 O 0.9951(2) 0.9213(3) 0.24897(6)
C31_5 C 0.1771(6) 0.0281(7) 0.19692(12)
C33_5 C 0.2213(7) 0.0067(9) 0.19148(14)
C35_5 C 0.1726(7) 0.0758(9) 0.18626(12)
H15_5 H 0.1431 0.0901 0.1899
C37_5 C 0.2584(6) 0.0338(7) 0.17522(13)
C39_5 C 0.2108(6) 0.1026(7) 0.17048(13)
H17_5 H 0.2084 0.1361 0.1639
C41_5 C 0.2517(6) 0.0802(8) 0.16452(12)
C43_5 C 0.2967(7) 0.1008(9) 0.14843(14)
C45_5 C 0.3356(6) 0.0708(8) 0.14707(14)
C47_5 C 0.3039(6) 0.1472(7) 0.13466(13)
H19_5 H 0.2790 0.1688 0.1353
C49_5 C 0.3482(7) 0.1603(9) 0.12027(14)
H21_5 H 0.3503 0.1881 0.1106
C51_5 C 0.3830(6) 0.0878(8) 0.13305(15)
H23_5 H 0.4099 0.0684 0.1327
C53_5 C 0.3897(6) 0.1331(8) 0.11994(13)
C55_5 C 0.4429(7) 0.1547(9) 0.10561(14)
O14_5 O 0.4863(4) 0.1375(5) 0.10702(8)
O17_5 O 0.4408(4) 0.1917(5) 0.09265(9)
O24_5 O 0.0876(4) 0.0143(5) 0.21625(7)
S3_5 S 0.31926(21) 0.01747(25) 0.16628(5)
O28_7 O 0.3760(6) 0.0427(7) 0.17865(11)
C29_5 C 0.1305(7) 0.9981(9) 0.21290(13)
C30_4 C 0.5362(7) 0.3352(9) 0.12043(13)
C32_4 C 0.4896(6) 0.3052(7) 0.13641(12)
C34_4 C 0.4454(7) 0.3266(9) 0.14185(14)
H13_5 H 0.2260 0.9754 0.1984
H14_4 H 0.4407 0.3579 0.1349
C36_4 C 0.4941(7) 0.2575(9) 0.14707(12)
H16_4 H 0.5236 0.2432 0.1434
C38_4 C 0.4083(6) 0.2995(7) 0.15811(13)
C40_4 C 0.4559(6) 0.2307(7) 0.16285(13)
H18_4 H 0.4583 0.1972 0.1694
C42_4 C 0.4150(6) 0.2531(8) 0.16881(12)
C44_4 C 0.3700(7) 0.2325(9) 0.18490(14)
C46_4 C 0.3311(6) 0.2625(8) 0.18626(14)
C48_4 C 0.3628(6) 0.1861(7) 0.19867(13)
H20_4 H 0.3877 0.1645 0.1980
C50_4 C 0.3185(7) 0.1730(9) 0.21306(14)
H22_4 H 0.3164 0.1452 0.2227
C52_4 C 0.2837(6) 0.2455(8) 0.20028(15)
H24_4 H 0.2568 0.2649 0.2006
C54_4 C 0.2770(6) 0.2002(8) 0.21339(13)
C56_4 C 0.2238(7) 0.1786(9) 0.22772(14)
O21_4 O 0.5300(4) 0.3781(5) 0.11073(10)
O25_4 O 0.5791(4) 0.3190(5) 0.11708(7)
S4_4 S 0.34741(21) 0.31586(25) 0.16705(5)
O26_5 O 0.2891(5) 0.9497(6) 0.16033(13)
O27_4 O 0.3776(5) 0.3836(6) 0.17300(13)
O29_5 O 0.2907(6) 0.2906(7) 0.15468(11)
C29_6 C 0.0019(9) 0.1324(5) 0.21290(13)
H13_6 H 0.0246 0.2506 0.1984
O26_6 O 0.0503(6) 0.3394(4) 0.16033(13)
C31_6 C 0.9719(7) 0.1490(4) 0.19692(12)
C33_6 C 0.9933(9) 0.2146(5) 0.19148(14)
C35_6 C 0.9242(9) 0.0968(5) 0.18626(12)
H15_6 H 0.9099 0.0530 0.1899
C37_6 C 0.9662(7) 0.2246(4) 0.17522(13)
C39_6 C 0.8974(7) 0.1082(4) 0.17048(13)
H17_6 H 0.8639 0.0723 0.1639
C41_6 C 0.9198(8) 0.1715(5) 0.16452(12)
C43_6 C 0.8992(9) 0.1959(5) 0.14843(14)
C45_6 C 0.9292(8) 0.2648(5) 0.14707(14)
C47_6 C 0.8528(7) 0.1567(4) 0.13466(13)
H19_6 H 0.8312 0.1102 0.1353
C49_6 C 0.8397(9) 0.1879(5) 0.12027(14)
H21_6 H 0.8119 0.1622 0.1106
C51_6 C 0.9122(8) 0.2952(5) 0.13305(15)
H23_6 H 0.9316 0.3415 0.1327
C53_6 C 0.8669(8) 0.2566(5) 0.11994(13)
C55_6 C 0.8453(9) 0.2882(6) 0.10561(14)
O14_6 O 0.8625(5) 0.3488(3) 0.10702(8)
O17_6 O 0.8083(5) 0.2491(3) 0.09265(9)
O24_6 O 0.9857(5) 0.0733(3) 0.21625(7)
S3_6 S 0.98253(25) 0.30179(14) 0.16628(5)
O28_8 O 0.9573(7) 0.3333(4) 0.17865(11)
Zn1_3 Zn 0.0000 -0.0000 0.73485(2)
Zn2_3 Zn 0.50603(5) 0.26470(5) 0.573967(13)
Zn3_3 Zn 0.56006(5) 0.39288(6) 0.595957(14)
C1_3 C 0.3314(5) 0.5343(5) 0.45377(13)
C2_3 C 0.3614(5) 0.5177(4) 0.46975(12)
C3_3 C 0.3400(5) 0.4521(5) 0.47519(14)
H1_3 H 0.3087 0.4161 0.4683
C4_3 C 0.4091(5) 0.5699(5) 0.48041(12)
H2_3 H 0.4234 0.6137 0.4768
C5_3 C 0.3671(4) 0.4421(4) 0.49145(13)
C6_3 C 0.4359(5) 0.5585(4) 0.49619(13)
H3_3 H 0.4694 0.5944 0.5028
C7_3 C 0.4135(4) 0.4952(5) 0.50215(12)
C8_3 C 0.4341(5) 0.4708(5) 0.51824(14)
C9_3 C 0.4041(4) 0.4019(5) 0.51960(14)
C10_3 C 0.4805(5) 0.5100(4) 0.53201(13)
H4_3 H 0.5021 0.5565 0.5314
C11_3 C 0.4936(5) 0.4788(5) 0.54640(14)
H5_3 H 0.5214 0.5045 0.5561
C12_3 C 0.4211(4) 0.3715(5) 0.53362(15)
H6_3 H 0.4017 0.3252 0.5340
C13_3 C 0.4664(4) 0.4101(5) 0.54673(13)
C14_3 C 0.4880(4) 0.3785(6) 0.56106(14)
O1_3 O 0.4708(3) 0.3179(3) 0.55965(8)
O2_3 O 0.5250(3) 0.4176(3) 0.57402(9)
O3_3 O 0.2885(3) 0.4852(3) 0.44407(10)
O4_3 O 0.3476(3) 0.5934(3) 0.45042(7)
S1_3 S 0.35080(15) 0.36488(14) 0.50039(5)
O5_3 O 0.2830(3) 0.3273(4) 0.50634(13)
O6_4 O 0.3760(4) 0.3334(4) 0.48802(11)
C15_3 C 0.4359(4) 0.2657(5) 0.60645(12)
C16_3 C 0.3803(4) 0.2334(5) 0.62067(12)
C17_3 C 0.3453(5) 0.1641(5) 0.62198(12)
H7_3 H 0.3549 0.1393 0.6137
C18_3 C 0.3666(4) 0.2714(5) 0.63252(13)
H8_3 H 0.3898 0.3178 0.6317
C19_3 C 0.2959(5) 0.1307(5) 0.63549(14)
H9_3 H 0.2729 0.0843 0.6365
C20_3 C 0.3181(5) 0.2397(5) 0.64562(13)
C21_3 C 0.2826(5) 0.1703(5) 0.64749(13)
C22_3 C 0.2343(6) 0.1464(5) 0.66325(13)
C23_3 C 0.2349(5) 0.1991(6) 0.67284(16)
C24_3 C 0.1922(5) 0.0823(5) 0.66968(14)
H10_3 H 0.1913 0.0461 0.6637
C25_3 C 0.1941(6) 0.1904(5) 0.68793(14)
H11_3 H 0.1947 0.2265 0.6939
C26_3 C 0.1522(6) 0.0719(6) 0.68475(15)
H12_3 H 0.1244 0.0285 0.6890
C27_3 C 0.1523(7) 0.1248(6) 0.69376(15)
C28_3 C 0.1081(7) 0.1124(6) 0.71063(16)
O7_3 O 0.0804(4) 0.0558(3) 0.71736(9)
O8_3 O 0.1028(5) 0.1614(6) 0.71600(15)
O9_3 O 0.4415(3) 0.2290(3) 0.59462(8)
O10_3 O 0.4723(3) 0.3277(3) 0.60786(8)
S2_3 S 0.2930(2) 0.27753(17) 0.66267(5)
O11_3 O 0.3468(5) 0.3154(4) 0.67547(12)
O12_3 O 0.2613(5) 0.3101(4) 0.65437(13)
C29_7 C 0.5343(5) 0.2028(7) 0.54623(13)
C31_7 C 0.5177(4) 0.1562(6) 0.53025(12)
C33_7 C 0.4521(5) 0.1120(7) 0.52481(14)
H13_7 H 0.4161 0.1073 0.5317
C35_7 C 0.5699(5) 0.1607(7) 0.51959(12)
H15_7 H 0.6137 0.1902 0.5232
C37_7 C 0.4421(4) 0.0749(6) 0.50855(13)
C39_7 C 0.5585(4) 0.1225(6) 0.50381(13)
H17_7 H 0.5944 0.1249 0.4972
C41_7 C 0.4952(5) 0.0816(6) 0.49785(12)
C43_7 C 0.4708(5) 0.0366(7) 0.48176(14)
C47_7 C 0.5100(4) 0.0294(6) 0.46799(13)
H19_7 H 0.5565 0.0543 0.4686
O20_3 O 0.4852(3) 0.1966(4) 0.55593(10)
O24_7 O 0.5934(3) 0.2457(4) 0.54958(7)
S3_7 S 0.36488(14) 0.01407(21) 0.49961(5)
O26_7 O 0.3273(4) 0.0442(5) 0.49366(13)
O34_3 O 0.6081(8) 0.4362(5) 0.61734(15)
O45_3 O 0.0049(2) 0.0787(3) 0.75103(6)
O47_3 O 0.5929(2) 0.3383(2) 0.58231(6)
Zn1_4 Zn 0.0000 1.0000 0.73485(2)
O13_3 O 0.0737(2) 0.9951(2) 0.75103(6)
C45_7 C 0.4019(5) 0.9977(6) 0.48040(14)
C49_7 C 0.4788(5) 0.9851(7) 0.45360(14)
H21_7 H 0.5045 0.9830 0.4439
C51_7 C 0.3715(5) 0.9503(6) 0.46638(15)
H23_7 H 0.3252 0.9234 0.4660
C53_7 C 0.4101(5) 0.9436(6) 0.45327(13)
C55_7 C 0.3785(6) 0.8904(7) 0.43894(14)
O14_7 O 0.3179(3) 0.8470(4) 0.44035(8)
O17_7 O 0.4176(3) 0.8925(4) 0.42598(9)
O28_9 O 0.3334(4) 0.9573(6) 0.51198(11)
H34_3 H 0.0317 0.8053 0.6939
C84_3 C 0.0042(9) 0.8919(7) 0.71063(16)
O33_3 O 0.0585(8) 0.8972(5) 0.71600(15)
O44_3 O 0.0487(6) 0.7387(5) 0.65437(13)
Zn1_5 Zn 1.0000 -0.0000 0.73485(2)
Zn4_3 Zn 0.73530(5) 0.24134(7) 0.573967(13)
Zn12_3 Zn 0.60712(6) 0.16719(8) 0.595957(14)
C46_5 C 0.5981(5) 0.0023(6) 0.51960(14)
C50_5 C 0.5212(5) 0.0149(7) 0.54640(14)
H22_5 H 0.4955 0.0170 0.5561
C52_5 C 0.6285(5) 0.0497(6) 0.53362(15)
H24_5 H 0.6748 0.0766 0.5340
C54_5 C 0.5899(5) 0.0564(6) 0.54673(13)
C56_5 C 0.6215(6) 0.1096(7) 0.56106(14)
O15_3 O 0.6821(3) 0.1530(4) 0.55965(8)
O18_3 O 0.5824(3) 0.1075(4) 0.57402(9)
O22_3 O 0.8034(4) 0.2885(3) 0.55593(10)
O29_6 O 0.6666(4) 0.0427(6) 0.48802(11)
C57_3 C 0.7343(5) 0.1703(6) 0.60645(12)
C59_3 C 0.7666(5) 0.1470(6) 0.62067(12)
C61_3 C 0.8359(5) 0.1813(7) 0.62198(12)
H25_3 H 0.8607 0.2157 0.6137
C63_3 C 0.7286(5) 0.0953(6) 0.63252(13)
H27_3 H 0.6822 0.0721 0.6317
C65_3 C 0.8693(5) 0.1653(7) 0.63549(14)
H29_3 H 0.9157 0.1887 0.6365
C67_3 C 0.7603(5) 0.0785(7) 0.64562(13)
C69_3 C 0.8297(5) 0.1124(7) 0.64749(13)
C71_3 C 0.8536(5) 0.0880(8) 0.66325(13)
C73_3 C 0.8009(6) 0.0359(8) 0.67284(16)
C75_3 C 0.9177(5) 0.1100(7) 0.66968(14)
H31_3 H 0.9539 0.1453 0.6637
C77_3 C 0.8096(5) 0.0038(8) 0.68793(14)
C79_3 C 0.9281(6) 0.0804(8) 0.68475(15)
H35_3 H 0.9715 0.0960 0.6890
C81_3 C 0.8752(6) 0.0276(9) 0.69376(15)
O30_3 O 0.9442(3) 0.0247(5) 0.71736(9)
O35_3 O 0.5638(5) 0.1720(6) 0.61734(15)
O37_3 O 0.7710(3) 0.2126(4) 0.59462(8)
O39_3 O 0.6723(3) 0.1447(4) 0.60786(8)
S5_3 S 0.72247(17) 0.01551(26) 0.66267(5)
O41_3 O 0.6846(4) 0.0315(6) 0.67547(12)
O48_3 O 0.6617(2) 0.2547(3) 0.58231(6)
Zn1_6 Zn 1.0000 1.0000 0.73485(2)
Zn5_3 Zn 0.75866(7) 0.49397(5) 0.573967(13)
Zn13_3 Zn 0.83281(8) 0.43994(5) 0.595957(14)
C30_5 C 0.4657(5) 0.7972(7) 0.45377(13)
C32_5 C 0.4823(4) 0.8438(6) 0.46975(12)
C34_5 C 0.5479(5) 0.8880(7) 0.47519(14)
H14_5 H 0.5839 0.8927 0.4683
C36_5 C 0.4301(5) 0.8393(7) 0.48041(12)
H16_5 H 0.3863 0.8098 0.4768
C38_5 C 0.5579(4) 0.9251(6) 0.49145(13)
C40_5 C 0.4415(4) 0.8775(6) 0.49619(13)
H18_5 H 0.4056 0.8751 0.5028
C42_5 C 0.5048(5) 0.9184(6) 0.50215(12)
C44_5 C 0.5292(5) 0.9634(7) 0.51824(14)
C48_5 C 0.4900(4) 0.9706(6) 0.53201(13)
H20_5 H 0.4435 0.9457 0.5314
O16_3 O 0.8470(4) 0.5292(3) 0.55965(8)
O19_3 O 0.8925(4) 0.4750(3) 0.57402(9)
O21_5 O 0.5148(3) 0.8034(4) 0.44407(10)
O23_3 O 0.7115(3) 0.5148(3) 0.55593(10)
O25_5 O 0.4066(3) 0.7543(4) 0.45042(7)
S4_5 S 0.63512(14) 0.98593(21) 0.50039(5)
O27_5 O 0.6727(4) 0.9558(5) 0.50634(13)
C58_3 C 0.8297(6) 0.5641(4) 0.60645(12)
C60_3 C 0.8530(6) 0.6197(4) 0.62067(12)
C62_3 C 0.8187(7) 0.6547(5) 0.62198(12)
H26_3 H 0.7843 0.6451 0.6137
C64_3 C 0.9047(6) 0.6334(4) 0.63252(13)
H28_3 H 0.9279 0.6102 0.6317
C66_3 C 0.8347(7) 0.7041(5) 0.63549(14)
H30_3 H 0.8113 0.7271 0.6365
C68_3 C 0.9215(7) 0.6819(5) 0.64562(13)
C70_3 C 0.8876(7) 0.7174(5) 0.64749(13)
C72_3 C 0.9120(8) 0.7657(6) 0.66325(13)
C74_3 C 0.9641(8) 0.7651(5) 0.67284(16)
C76_3 C 0.8900(7) 0.8078(5) 0.66968(14)
H32_3 H 0.8547 0.8087 0.6637
C78_3 C 0.9962(8) 0.8059(6) 0.68793(14)
H33_3 H 0.7735 0.9683 0.6939
C80_3 C 0.9196(8) 0.8478(6) 0.68475(15)
H36_3 H 0.9040 0.8756 0.6890
C82_3 C 0.9724(9) 0.8477(7) 0.69376(15)
C83_3 C 0.8876(6) 0.9958(9) 0.71063(16)
O31_3 O 0.9753(5) 0.9196(4) 0.71736(9)
O32_3 O 0.8386(6) 0.9415(8) 0.71600(15)
O36_3 O 0.8280(6) 0.3919(8) 0.61734(15)
O38_3 O 0.7874(4) 0.5585(3) 0.59462(8)
O40_3 O 0.8553(4) 0.5277(3) 0.60786(8)
S6_3 S 0.98449(26) 0.7070(2) 0.66267(5)
O42_2 O 0.9685(6) 0.6532(5) 0.67547(12)
O43_3 O 0.6899(4) 0.9513(6) 0.65437(13)
O46_3 O 0.9213(3) 0.9263(2) 0.75103(6)
O49_3 O 0.7453(3) 0.4071(2) 0.58231(6)
C45_8 C 0.0023(6) 0.4041(8) 0.48040(14)
C49_8 C 0.0149(7) 0.4936(9) 0.45360(14)
H21_8 H 0.0170 0.5214 0.4439
C51_8 C 0.0497(6) 0.4211(8) 0.46638(15)
H23_8 H 0.0766 0.4017 0.4660
C53_8 C 0.0564(6) 0.4664(8) 0.45327(13)
C55_8 C 0.1096(7) 0.4880(9) 0.43894(14)
O14_8 O 0.1530(4) 0.4708(5) 0.44035(8)
O17_8 O 0.1075(4) 0.5250(5) 0.42598(9)
O28_10 O 0.0427(6) 0.3760(7) 0.51198(11)
C30_6 C 0.2028(7) 0.6686(9) 0.45377(13)
C32_6 C 0.1562(6) 0.6386(7) 0.46975(12)
C34_6 C 0.1120(7) 0.6600(9) 0.47519(14)
H14_6 H 0.1073 0.6913 0.4683
C36_6 C 0.1607(7) 0.5909(9) 0.48041(12)
H16_6 H 0.1902 0.5766 0.4768
C38_6 C 0.0749(6) 0.6329(7) 0.49145(13)
C40_6 C 0.1225(6) 0.5641(7) 0.49619(13)
H18_6 H 0.1249 0.5306 0.5028
C42_6 C 0.0816(6) 0.5865(8) 0.50215(12)
C44_6 C 0.0366(7) 0.5659(9) 0.51824(14)
C48_6 C 0.0294(6) 0.5195(7) 0.53201(13)
H20_6 H 0.0543 0.4979 0.5314
O21_6 O 0.1966(4) 0.7115(5) 0.44407(10)
O25_6 O 0.2457(4) 0.6524(5) 0.45042(7)
S4_6 S 0.01407(21) 0.64920(25) 0.50039(5)
O27_6 O 0.0442(5) 0.7170(6) 0.50634(13)
C29_8 C 0.7972(7) 0.3314(9) 0.54623(13)
C31_8 C 0.8438(6) 0.3614(7) 0.53025(12)
C33_8 C 0.8880(7) 0.3400(9) 0.52481(14)
H13_8 H 0.8927 0.3087 0.5317
C35_8 C 0.8393(7) 0.4091(9) 0.51959(12)
H15_8 H 0.8098 0.4234 0.5232
C37_8 C 0.9251(6) 0.3671(7) 0.50855(13)
C39_8 C 0.8775(6) 0.4359(7) 0.50381(13)
H17_8 H 0.8751 0.4694 0.4972
C41_8 C 0.9184(6) 0.4135(8) 0.49785(12)
C43_8 C 0.9634(7) 0.4341(9) 0.48176(14)
C47_8 C 0.9706(6) 0.4805(7) 0.46799(13)
H19_8 H 0.9457 0.5021 0.4686
O24_8 O 0.7543(4) 0.3476(5) 0.54958(7)
S3_8 S 0.98593(21) 0.35080(25) 0.49961(5)
O26_8 O 0.9558(5) 0.2830(6) 0.49366(13)
C46_6 C 0.9977(6) 0.5959(8) 0.51960(14)
C50_6 C 0.9851(7) 0.5064(9) 0.54640(14)
H22_6 H 0.9830 0.4786 0.5561
C52_6 C 0.9503(6) 0.5789(8) 0.53362(15)
H24_6 H 0.9234 0.5983 0.5340
C54_6 C 0.9436(6) 0.5336(8) 0.54673(13)
C56_6 C 0.8904(7) 0.5120(9) 0.56106(14)
O29_7 O 0.9573(6) 0.6240(7) 0.48802(11)
C29_9 C 0.6686(9) 0.4657(5) 0.54623(13)
C31_9 C 0.6386(7) 0.4823(4) 0.53025(12)
C33_9 C 0.6600(9) 0.5479(5) 0.52481(14)
H13_9 H 0.6913 0.5839 0.5317
C35_9 C 0.5909(9) 0.4301(5) 0.51959(12)
H15_9 H 0.5766 0.3863 0.5232
C37_9 C 0.6329(7) 0.5579(4) 0.50855(13)
C39_9 C 0.5641(7) 0.4415(4) 0.50381(13)
H17_9 H 0.5306 0.4056 0.4972
C41_9 C 0.5865(8) 0.5048(5) 0.49785(12)
C43_9 C 0.5659(9) 0.5292(5) 0.48176(14)
C45_9 C 0.5959(8) 0.5981(5) 0.48040(14)
C47_9 C 0.5195(7) 0.4900(4) 0.46799(13)
H19_9 H 0.4979 0.4435 0.4686
C49_9 C 0.5064(9) 0.5212(5) 0.45360(14)
H21_9 H 0.4786 0.4955 0.4439
C51_9 C 0.5789(8) 0.6285(5) 0.46638(15)
H23_9 H 0.5983 0.6748 0.4660
C53_9 C 0.5336(8) 0.5899(5) 0.45327(13)
C55_9 C 0.5120(9) 0.6215(6) 0.43894(14)
O14_9 O 0.5292(5) 0.6821(3) 0.44035(8)
O17_9 O 0.4750(5) 0.5824(3) 0.42598(9)
O24_9 O 0.6524(5) 0.4066(3) 0.54958(7)
S3_9 S 0.64920(25) 0.63512(14) 0.49961(5)
O26_9 O 0.7170(6) 0.6727(4) 0.49366(13)
O28_11 O 0.6240(7) 0.6666(4) 0.51198(11)
C58_4 C 0.5036(6) 0.1026(4) 0.06022(12)
C60_4 C 0.4803(6) 0.0470(4) 0.04600(12)
C62_4 C 0.5146(7) 0.0120(5) 0.04469(12)
H26_4 H 0.5490 0.0216 0.0530
C64_4 C 0.4286(6) 0.0333(4) 0.03415(13)
H28_4 H 0.4054 0.0565 0.0350
O38_4 O 0.5459(4) 0.1082(3) 0.07205(8)
O40_4 O 0.4780(4) 0.1390(3) 0.05881(8)
C19_4 C 0.0374(5) 0.5360(5) 0.03118(14)
H9_4 H 0.0604 0.5824 0.0302
C20_4 C 0.0152(5) 0.4270(5) 0.02105(13)
C21_4 C 0.0507(5) 0.4964(5) 0.01918(13)
C22_4 C 0.0990(6) 0.5203(5) 0.00342(13)
H10_4 H 0.1420 0.6206 0.0030
S2_4 S 0.0403(2) 0.38914(17) 0.00400(5)
O12_4 O 0.0720(5) 0.3566(4) 0.01230(13)
C57_4 C 0.5990(5) 0.4964(6) 0.06022(12)
C59_4 C 0.5667(5) 0.5197(6) 0.04600(12)
C61_4 C 0.4974(5) 0.4854(7) 0.04469(12)
H25_4 H 0.4726 0.4510 0.0530
C63_4 C 0.6047(5) 0.5714(6) 0.03415(13)
H27_4 H 0.6511 0.5946 0.0350
C65_4 C 0.4640(5) 0.5014(7) 0.03118(14)
C66_4 C 0.4986(7) 0.9626(5) 0.03118(14)
H29_4 H 0.4176 0.4780 0.0302
H30_4 H 0.5220 0.9396 0.0302
C67_4 C 0.5730(5) 0.5882(7) 0.02105(13)
C68_4 C 0.4118(7) 0.9848(5) 0.02105(13)
C69_4 C 0.5036(5) 0.5543(7) 0.01918(13)
C70_4 C 0.4457(7) 0.9493(5) 0.01918(13)
C71_4 C 0.4797(5) 0.5787(8) 0.00342(13)
C72_4 C 0.4213(8) 0.9010(6) 0.00342(13)
H31_4 H 0.3794 0.5214 0.0030
H32_4 H 0.4786 0.8580 0.0030
O37_4 O 0.5623(3) 0.4541(4) 0.07205(8)
O39_4 O 0.6610(3) 0.5220(4) 0.05881(8)
S5_4 S 0.61086(17) 0.65116(26) 0.00400(5)
S6_4 S 0.34884(26) 0.9597(2) 0.00400(5)
O43_4 O 0.6434(4) 0.7154(6) 0.01230(13)
O44_4 O 0.2846(6) 0.9280(5) 0.01230(13)
Zn1_7 Zn 0.3333 0.6667 0.93182(2)
C23_4 C 0.0984(5) 0.4676(6) 0.99383(16)
C24_4 C 0.1411(5) 0.5844(5) 0.99699(14)
C25_4 C 0.1392(6) 0.4763(5) 0.97874(14)
H11_4 H 0.1386 0.4402 0.9728
C26_4 C 0.1811(6) 0.5948(6) 0.98192(15)
H12_4 H 0.2089 0.6382 0.9777
C27_4 C 0.1810(7) 0.5419(6) 0.97291(15)
C28_4 C 0.2252(7) 0.5543(6) 0.95604(16)
O7_4 O 0.2529(4) 0.6109(3) 0.94931(9)
C73_4 C 0.5324(6) 0.6308(8) 0.99383(16)
C74_4 C 0.3692(8) 0.9016(5) 0.99383(16)
C75_4 C 0.4156(5) 0.5567(7) 0.99699(14)
C76_4 C 0.4433(7) 0.8589(5) 0.99699(14)
C77_4 C 0.5237(5) 0.6629(8) 0.97874(14)
C78_4 C 0.3371(8) 0.8608(6) 0.97874(14)
H33_4 H 0.5598 0.6984 0.9728
H34_4 H 0.3016 0.8614 0.9728
C79_4 C 0.4052(6) 0.5863(8) 0.98192(15)
C80_4 C 0.4137(8) 0.8189(6) 0.98192(15)
H35_4 H 0.3618 0.5707 0.9777
H36_4 H 0.4293 0.7911 0.9777
C81_4 C 0.4581(6) 0.6391(9) 0.97291(15)
C82_4 C 0.3609(9) 0.8190(7) 0.97291(15)
C83_4 C 0.4457(6) 0.6709(9) 0.95604(16)
C84_4 C 0.3291(9) 0.7748(7) 0.95604(16)
O30_4 O 0.3891(3) 0.6420(5) 0.94931(9)
O31_4 O 0.3580(5) 0.7471(4) 0.94931(9)
O41_4 O 0.6487(4) 0.6352(6) 0.99120(12)
C15_4 C 0.8974(4) 0.4010(5) 0.06022(12)
C16_4 C 0.9530(4) 0.4333(5) 0.04600(12)
C17_4 C 0.9880(5) 0.5026(5) 0.04469(12)
H7_4 H 0.9784 0.5274 0.0530
C18_4 C 0.9667(4) 0.3953(5) 0.03415(13)
H8_4 H 0.9435 0.3489 0.0350
O9_4 O 0.8918(3) 0.4377(3) 0.07205(8)
O10_4 O 0.8610(3) 0.3390(3) 0.05881(8)
Zn1_8 Zn 0.6666 0.3334 0.59849(2)
C15_5 C 0.2307(4) 0.0677(5) 0.72689(12)
C16_5 C 0.2863(4) 0.1000(5) 0.71267(12)
C17_5 C 0.3213(5) 0.1693(5) 0.71136(12)
H7_5 H 0.3117 0.1941 0.7197
C18_5 C 0.3000(4) 0.0620(5) 0.70082(13)
H8_5 H 0.2768 0.0156 0.7017
C19_5 C 0.3707(5) 0.2027(5) 0.69785(14)
H9_5 H 0.3937 0.2491 0.6969
C20_5 C 0.3485(5) 0.0937(5) 0.68772(13)
C21_5 C 0.3840(5) 0.1631(5) 0.68585(13)
C22_5 C 0.4323(6) 0.1870(5) 0.67009(13)
C23_5 C 0.4317(5) 0.1343(6) 0.66050(16)
C24_5 C 0.4744(5) 0.2511(5) 0.66366(14)
H10_5 H 0.4753 0.2873 0.6697
C25_5 C 0.4725(6) 0.1430(5) 0.64541(14)
H11_5 H 0.4719 0.1069 0.6395
C26_5 C 0.5144(6) 0.2615(6) 0.64859(15)
H12_5 H 0.5422 0.3049 0.6444
C27_5 C 0.5143(7) 0.2086(6) 0.63958(15)
C28_5 C 0.5585(7) 0.2210(6) 0.62271(16)
O7_5 O 0.5862(4) 0.2776(3) 0.61598(9)
O9_5 O 0.2251(3) 0.1044(3) 0.73872(8)
O10_5 O 0.1943(3) 0.0057(3) 0.72548(8)
S2_5 S 0.3736(2) 0.05581(17) 0.67067(5)
O11_4 O 0.3198(5) 0.0180(4) 0.65787(12)
O12_5 O 0.4053(5) 0.0233(4) 0.67897(13)
C57_5 C 0.9323(5) 0.1631(6) 0.72689(12)
C58_5 C 0.8369(6) 0.7693(4) 0.72689(12)
C59_5 C 0.9000(5) 0.1864(6) 0.71267(12)
C60_5 C 0.8136(6) 0.7137(4) 0.71267(12)
C61_5 C 0.8307(5) 0.1521(7) 0.71136(12)
C62_5 C 0.8479(7) 0.6787(5) 0.71136(12)
H25_5 H 0.8059 0.1177 0.7197
H26_5 H 0.8823 0.6883 0.7197
C63_5 C 0.9380(5) 0.2381(6) 0.70082(13)
C64_5 C 0.7619(6) 0.7000(4) 0.70082(13)
H27_5 H 0.9844 0.2613 0.7017
H28_5 H 0.7387 0.7232 0.7017
C65_5 C 0.7973(5) 0.1681(7) 0.69785(14)
C66_5 C 0.8319(7) 0.6293(5) 0.69785(14)
H29_5 H 0.7509 0.1447 0.6969
H30_5 H 0.8553 0.6063 0.6969
C67_5 C 0.9063(5) 0.2549(7) 0.68772(13)
C68_5 C 0.7451(7) 0.6515(5) 0.68772(13)
C69_5 C 0.8369(5) 0.2210(7) 0.68585(13)
C70_5 C 0.7790(7) 0.6160(5) 0.68585(13)
C71_5 C 0.8130(5) 0.2454(8) 0.67009(13)
C72_5 C 0.7546(8) 0.5677(6) 0.67009(13)
C73_5 C 0.8657(6) 0.2975(8) 0.66050(16)
C74_5 C 0.7025(8) 0.5683(5) 0.66050(16)
C75_5 C 0.7489(5) 0.2234(7) 0.66366(14)
C76_5 C 0.7766(7) 0.5256(5) 0.66366(14)
H31_5 H 0.7127 0.1881 0.6697
H32_5 H 0.8119 0.5247 0.6697
C77_5 C 0.8570(5) 0.3296(8) 0.64541(14)
C78_5 C 0.6704(8) 0.5275(6) 0.64541(14)
H33_5 H 0.8931 0.3651 0.6395
H34_5 H 0.6349 0.5281 0.6395
C79_5 C 0.7385(6) 0.2530(8) 0.64859(15)
C80_5 C 0.7470(8) 0.4856(6) 0.64859(15)
H35_5 H 0.6951 0.2374 0.6444
H36_5 H 0.7626 0.4578 0.6444
C81_5 C 0.7914(6) 0.3058(9) 0.63958(15)
C82_5 C 0.6942(9) 0.4857(7) 0.63958(15)
C83_5 C 0.7790(6) 0.3376(9) 0.62271(16)
C84_5 C 0.6624(9) 0.4415(7) 0.62271(16)
O30_5 O 0.7224(3) 0.3087(5) 0.61598(9)
O31_5 O 0.6913(5) 0.4138(4) 0.61598(9)
O37_5 O 0.8956(3) 0.1208(4) 0.73872(8)
O38_5 O 0.8792(4) 0.7749(3) 0.73872(8)
O39_5 O 0.9943(3) 0.1887(4) 0.72548(8)
O40_5 O 0.8113(4) 0.8057(3) 0.72548(8)
S5_5 S 0.94419(17) 0.31783(26) 0.67067(5)
S6_5 S 0.68217(26) 0.6264(2) 0.67067(5)
O41_5 O 0.9820(4) 0.3019(6) 0.65787(12)
O42_3 O 0.6981(6) 0.6802(5) 0.65787(12)
O43_5 O 0.9767(4) 0.3821(6) 0.67897(13)
O44_5 O 0.6179(6) 0.5947(5) 0.67897(13)
Zn1_9 Zn -0.0000 0.0000 0.26515(2)
C58_6 C 0.1703(6) 0.4359(4) 0.39355(12)
C60_6 C 0.1470(6) 0.3803(4) 0.37933(12)
C62_6 C 0.1813(7) 0.3453(5) 0.37802(12)
H26_6 H 0.2157 0.3549 0.3863
C64_6 C 0.0953(6) 0.3666(4) 0.36748(13)
H28_6 H 0.0721 0.3898 0.3683
C66_6 C 0.1653(7) 0.2959(5) 0.36451(14)
H30_6 H 0.1887 0.2729 0.3635
C68_6 C 0.0785(7) 0.3181(5) 0.35438(13)
C70_6 C 0.1124(7) 0.2826(5) 0.35251(13)
C72_6 C 0.0880(8) 0.2343(6) 0.33675(13)
C74_6 C 0.0359(8) 0.2349(5) 0.32716(16)
C76_6 C 0.1100(7) 0.1922(5) 0.33032(14)
H32_6 H 0.1453 0.1913 0.3363
C78_6 C 0.0038(8) 0.1941(6) 0.31207(14)
H33_6 H 0.2265 0.0317 0.3061
C80_6 C 0.0804(8) 0.1522(6) 0.31525(15)
H36_6 H 0.0960 0.1244 0.3110
C82_6 C 0.0276(9) 0.1523(7) 0.30624(15)
C83_6 C 0.1124(6) 0.0042(9) 0.28937(16)
O31_6 O 0.0247(5) 0.0804(4) 0.28264(9)
O38_6 O 0.2126(4) 0.4415(3) 0.40538(8)
O40_6 O 0.1447(4) 0.4723(3) 0.39214(8)
S6_6 S 0.01551(26) 0.2930(2) 0.33733(5)
O42_4 O 0.0315(6) 0.3468(5) 0.32453(12)
O43_6 O 0.3101(4) 0.0487(6) 0.34563(13)
Zn1_10 Zn -0.0000 1.0000 0.26515(2)
C57_6 C 0.2657(5) 0.8297(6) 0.39355(12)
C59_6 C 0.2334(5) 0.8530(6) 0.37933(12)
C61_6 C 0.1641(5) 0.8187(7) 0.37802(12)
H25_6 H 0.1393 0.7843 0.3863
C63_6 C 0.2714(5) 0.9047(6) 0.36748(13)
H27_6 H 0.3178 0.9279 0.3683
C65_6 C 0.1307(5) 0.8347(7) 0.36451(14)
H29_6 H 0.0843 0.8113 0.3635
C67_6 C 0.2397(5) 0.9215(7) 0.35438(13)
C69_6 C 0.1703(5) 0.8876(7) 0.35251(13)
C71_6 C 0.1464(5) 0.9120(8) 0.33675(13)
C73_6 C 0.1991(6) 0.9641(8) 0.32716(16)
C75_6 C 0.0823(5) 0.8900(7) 0.33032(14)
H31_6 H 0.0461 0.8547 0.3363
C77_6 C 0.1904(5) 0.9962(8) 0.31207(14)
C79_6 C 0.0719(6) 0.9196(8) 0.31525(15)
H35_6 H 0.0285 0.9040 0.3110
C81_6 C 0.1248(6) 0.9724(9) 0.30624(15)
O30_6 O 0.0558(3) 0.9753(5) 0.28264(9)
O37_6 O 0.2290(3) 0.7874(4) 0.40538(8)
O39_6 O 0.3277(3) 0.8553(4) 0.39214(8)
S5_6 S 0.27753(17) 0.98449(26) 0.33733(5)
O41_6 O 0.3154(4) 0.9685(6) 0.32453(12)
Zn1_11 Zn 1.0000 0.0000 0.26515(2)
H34_6 H 0.9683 0.1947 0.3061
C84_6 C 0.9958(9) 0.1081(7) 0.28937(16)
O44_6 O 0.9513(6) 0.2613(5) 0.34563(13)
Zn1_12 Zn 1.0000 1.0000 0.26515(2)
C15_6 C 0.5641(4) 0.7343(5) 0.39355(12)
C16_6 C 0.6197(4) 0.7666(5) 0.37933(12)
C17_6 C 0.6547(5) 0.8359(5) 0.37802(12)
H7_6 H 0.6451 0.8607 0.3863
C18_6 C 0.6334(4) 0.7286(5) 0.36748(13)
H8_6 H 0.6102 0.6822 0.3683
C19_6 C 0.7041(5) 0.8693(5) 0.36451(14)
H9_6 H 0.7271 0.9157 0.3635
C20_6 C 0.6819(5) 0.7603(5) 0.35438(13)
C21_6 C 0.7174(5) 0.8297(5) 0.35251(13)
C22_6 C 0.7657(6) 0.8536(5) 0.33675(13)
C23_6 C 0.7651(5) 0.8009(6) 0.32716(16)
C24_6 C 0.8078(5) 0.9177(5) 0.33032(14)
H10_6 H 0.8087 0.9539 0.3363
C25_6 C 0.8059(6) 0.8096(5) 0.31207(14)
H11_6 H 0.8053 0.7735 0.3061
C26_6 C 0.8478(6) 0.9281(6) 0.31525(15)
H12_6 H 0.8756 0.9715 0.3110
C27_6 C 0.8477(7) 0.8752(6) 0.30624(15)
C28_6 C 0.8919(7) 0.8876(6) 0.28937(16)
O7_6 O 0.9196(4) 0.9442(3) 0.28264(9)
O9_6 O 0.5585(3) 0.7710(3) 0.40538(8)
O10_6 O 0.5277(3) 0.6723(3) 0.39214(8)
S2_6 S 0.7070(2) 0.72247(17) 0.33733(5)
O11_5 O 0.6532(5) 0.6846(4) 0.32453(12)
O12_6 O 0.7387(5) 0.6899(4) 0.34563(13)
O42_5 O 0.6352(6) 0.9865(5) 0.00880(12)
O42_6 O 0.3648(6) 0.0135(5) 0.99120(12)
O11_6 O 0.9865(5) 0.3513(4) 0.99120(12)
O50 O 0.0000 0.0000 0.19509(8)
O50_2 O 0.0000 1.0000 0.19509(8)
H37 H 0.043028 1 0.19509
H38 H 0.0346263 0.994059 0.188566
O50_3 O 1.0000 0.0000 0.19509(8)
H37_2 H 1 0.043028 0.19509
H39 H 0.994059 0.0346263 0.188566
O50_4 O 1.0000 1.0000 0.19509(8)
O50_5 O 0.6667 0.3333 0.52842(8)
O50_6 O 0.3333 0.6667 0.86176(8)
O50_7 O -0.0000 0.0000 0.80491(8)
O50_8 O -0.0000 1.0000 0.80491(8)
H37_3 H -2.89271e-17 0.956972 0.80491
H39_2 H 0.00594093 0.965374 0.811434
O50_9 O 1.0000 0.0000 0.80491(8)
H37_4 H 0.956972 0 0.80491
H38_2 H 0.965374 0.00594093 0.811434
O50_10 O 1.0000 1.0000 0.80491(8)
O50_11 O 0.3333 0.6667 0.47158(8)
O50_12 O 0.6667 0.3333 0.13824(8)
loop_
_geom_bond_atom_site_label_1
_geom_bond_atom_site_label_2
_geom_bond_site_symmetry_1
_geom_bond_site_symmetry_2
Zn2 O1 1_555 1_555
Zn3 O2 1_555 1_555
C2 C3 1_555 1_555
C4 C2 1_555 1_555
H2 C4 1_555 1_555
C5 C3 1_555 1_555
C6 C4 1_555 1_555
H3 C6 1_555 1_555
C7 C5 1_555 1_555
C8 C7 1_555 1_555
C9 C8 1_555 1_555
C10 C8 1_555 1_555
H4 C10 1_555 1_555
C11 C10 1_555 1_555
H5 C11 1_555 1_555
C12 C9 1_555 1_555
H6 C12 1_555 1_555
C13 C11 1_555 1_555
C14 C13 1_555 1_555
O1 C14 1_555 1_555
O2 C14 1_555 1_555
S1 C5 1_555 1_555
O6 S1 1_555 1_555
C15 C16 1_555 1_555
C16 C17 1_555 1_555
C17 H7 1_555 1_555
C18 C16 1_555 1_555
H8 C18 1_555 1_555
O9 Zn2 1_555 1_555
O10 Zn3 1_555 1_555
Zn17 O17 1_555 1_555
C29 C31 1_555 1_555
C31 C33 1_555 1_555
C33 H13 1_555 1_555
C35 C31 1_555 1_555
H15 C35 1_555 1_555
C37 C33 1_555 1_555
C39 C35 1_555 1_555
H17 C39 1_555 1_555
C41 C37 1_555 1_555
C43 C41 1_555 1_555
C45 C43 1_555 1_555
C47 C43 1_555 1_555
H19 C47 1_555 1_555
C49 C47 1_555 1_555
H21 C49 1_555 1_555
C51 C45 1_555 1_555
C53 C49 1_555 1_555
C55 C53 1_555 1_555
O17 C55 1_555 1_555
O20 Zn2 1_555 1_555
O24 C29 1_555 1_555
S3 C37 1_555 1_555
O28 S3 1_555 1_555
O34 Zn3 1_555 1_555
O47 Zn2 1_555 1_555
Zn3 O47 1_555 1_555
C6 C7 1_555 1_555
C9 S1 1_555 1_555
C12 C13 1_555 1_555
C15 O9 1_555 1_555
C15 O10 1_555 1_555
C29 O20 1_555 1_555
C39 C41 1_555 1_555
C45 S3 1_555 1_555
C51 C53 1_555 1_555
Zn1 O7 1_555 1_555
C25 C23 1_555 1_555
H11 C25 1_555 1_555
C26 C24 1_555 1_555
H12 C26 1_555 1_555
C27 C25 1_555 1_555
C28 C27 1_555 1_555
O7 C28 1_555 1_555
O8 C28 1_555 1_555
O13 Zn1 1_555 1_555
Zn7 O13 1_555 1_555
Zn8 O45 1_555 1_555
Zn9 O46 1_555 1_555
Zn14 O8 1_555 1_555
Zn15 O13 1_555 1_555
Zn16 O32 1_555 1_555
C77 C73 1_555 1_555
C78 C74 1_555 1_555
H33 C77 1_555 1_555
H34 C78 1_555 1_555
C79 C75 1_555 1_555
C80 C76 1_555 1_555
H35 C79 1_555 1_555
H36 C80 1_555 1_555
C81 C77 1_555 1_555
C82 C78 1_555 1_555
C83 C81 1_555 1_555
C84 C82 1_555 1_555
O30 Zn1 1_555 1_555
O31 Zn1 1_555 1_555
O32 C83 1_555 1_555
O33 Zn15 1_555 1_555
O45 Zn1 1_555 1_555
O46 Zn1 1_555 1_555
C26 C27 1_555 1_555
Zn14 O45 1_555 1_555
Zn16 O46 1_555 1_555
C79 C81 1_555 1_555
C80 C82 1_555 1_555
C83 O30 1_555 1_555
C84 O31 1_555 1_555
C84 O33 1_555 1_555
O3 C1 1_555 1_555
H9 C19 1_555 1_555
C21 C19 1_555 1_555
C22 C21 1_555 1_555
S2 C20 1_555 1_555
O12 S2 1_555 1_555
Zn4 O15 1_555 1_555
Zn6 O3 1_555 1_555
Zn10 O14 1_555 1_555
Zn11 O21 1_555 1_555
Zn12 O18 1_555 1_555
C30 C32 1_555 1_555
C32 C34 1_555 1_555
C34 H14 1_555 1_555
C36 C32 1_555 1_555
H16 C36 1_555 1_555
C38 C34 1_555 1_555
C40 C36 1_555 1_555
H18 C40 1_555 1_555
C42 C38 1_555 1_555
C44 C42 1_555 1_555
C46 C44 1_555 1_555
C48 C44 1_555 1_555
H20 C48 1_555 1_555
C50 C48 1_555 1_555
H22 C50 1_555 1_555
C52 C46 1_555 1_555
H24 C52 1_555 1_555
C54 C50 1_555 1_555
C56 C54 1_555 1_555
O15 C56 1_555 1_555
O18 C56 1_555 1_555
O21 C30 1_555 1_555
O22 Zn4 1_555 1_555
O25 C30 1_555 1_555
S4 C38 1_555 1_555
O27 S4 1_555 1_555
O29 S4 1_555 1_555
C57 C59 1_555 1_555
C59 C61 1_555 1_555
C61 H25 1_555 1_555
C63 C59 1_555 1_555
H27 C63 1_555 1_555
C65 C61 1_555 1_555
H29 C65 1_555 1_555
H30 C66 1_555 1_555
C67 C63 1_555 1_555
C69 C65 1_555 1_555
C70 C66 1_555 1_555
C71 C69 1_555 1_555
C72 C70 1_555 1_555
O35 Zn12 1_555 1_555
O37 Zn4 1_555 1_555
O39 Zn12 1_555 1_555
S5 C67 1_555 1_555
S6 C68 1_555 1_555
O43 S5 1_555 1_555
O44 S6 1_555 1_555
O48 Zn4 1_555 1_555
C20 C21 1_555 1_555
Zn12 O48 1_555 1_555
C40 C42 1_555 1_555
C46 S4 1_555 1_555
C52 C54 1_555 1_555
C57 O37 1_555 1_555
C57 O39 1_555 1_555
C67 C69 1_555 1_555
C68 C70 1_555 1_555
Zn5 O16 1_555 1_555
Zn13 O19 1_555 1_555
O23 Zn5 1_555 1_555
C58 C60 1_555 1_555
C60 C62 1_555 1_555
C62 H26 1_555 1_555
C64 C60 1_555 1_555
H28 C64 1_555 1_555
O36 Zn13 1_555 1_555
O38 Zn5 1_555 1_555
O40 Zn13 1_555 1_555
O49 Zn5 1_555 1_555
Zn13 O49 1_555 1_555
C58 O38 1_555 1_555
C58 O40 1_555 1_555
Zn6 O14_2 1_555 1_555
Zn10 O21_2 1_555 1_555
Zn17_2 O17_2 1_555 1_555
C29_2 C31_2 1_555 1_555
C31_2 C33_2 1_555 1_555
C33_2 H13_2 1_555 1_555
C35_2 C31_2 1_555 1_555
H15_2 C35_2 1_555 1_555
C37_2 C33_2 1_555 1_555
C39_2 C35_2 1_555 1_555
H17_2 C39_2 1_555 1_555
C41_2 C37_2 1_555 1_555
C43_2 C41_2 1_555 1_555
C45_2 C43_2 1_555 1_555
C47_2 C43_2 1_555 1_555
H19_2 C47_2 1_555 1_555
C49_2 C47_2 1_555 1_555
H21_2 C49_2 1_555 1_555
C51_2 C45_2 1_555 1_555
H23_2 C51_2 1_555 1_555
C53_2 C49_2 1_555 1_555
C55_2 C53_2 1_555 1_555
O14_2 C55_2 1_555 1_555
O17_2 C55_2 1_555 1_555
O21_2 C30_2 1_555 1_555
O24_2 C29_2 1_555 1_555
S3_2 C37_2 1_555 1_555
O26_2 S3_2 1_555 1_555
O28_3 S3_2 1_555 1_555
C29_2 O22 1_555 1_555
C39_2 C41_2 1_555 1_555
C45_2 S3_2 1_555 1_555
C51_2 C53_2 1_555 1_555
C32_2 C34_2 1_555 1_555
C36_2 C32_2 1_555 1_555
H16_2 C36_2 1_555 1_555
C38_2 C34_2 1_555 1_555
C40_2 C36_2 1_555 1_555
H18_2 C40_2 1_555 1_555
C42_2 C38_2 1_555 1_555
C44_2 C42_2 1_555 1_555
C46_2 C44_2 1_555 1_555
C48_2 C44_2 1_555 1_555
H20_2 C48_2 1_555 1_555
C50_2 C48_2 1_555 1_555
H22_2 C50_2 1_555 1_555
C52_2 C46_2 1_555 1_555
H24_2 C52_2 1_555 1_555
C54_2 C50_2 1_555 1_555
C56_2 C54_2 1_555 1_555
O16 C56_2 1_555 1_555
O19 C56_2 1_555 1_555
S4_2 C38_2 1_555 1_555
O29_2 S4_2 1_555 1_555
C40_2 C42_2 1_555 1_555
C46_2 S4_2 1_555 1_555
C52_2 C54_2 1_555 1_555
Zn11 O14_3 1_555 1_555
Zn17_3 O17_3 1_555 1_555
C29_3 C31_3 1_555 1_555
C31_3 C33_3 1_555 1_555
C33_3 H13_3 1_555 1_555
C35_3 C31_3 1_555 1_555
H15_3 C35_3 1_555 1_555
C37_3 C33_3 1_555 1_555
C39_3 C35_3 1_555 1_555
H17_3 C39_3 1_555 1_555
C41_3 C37_3 1_555 1_555
C43_3 C41_3 1_555 1_555
C45_3 C43_3 1_555 1_555
C47_3 C43_3 1_555 1_555
H19_3 C47_3 1_555 1_555
C49_3 C47_3 1_555 1_555
H21_3 C49_3 1_555 1_555
C51_3 C45_3 1_555 1_555
C53_3 C49_3 1_555 1_555
C55_3 C53_3 1_555 1_555
O17_3 C55_3 1_555 1_555
O24_3 C29_3 1_555 1_555
S3_3 C37_3 1_555 1_555
O28_5 S3_3 1_555 1_555
C29_3 O23 1_555 1_555
C39_3 C41_3 1_555 1_555
C45_3 S3_3 1_555 1_555
C51_3 C53_3 1_555 1_555
Zn3_2 O2_2 1_555 1_555
C1_2 C2_2 1_555 1_555
C2_2 C3_2 1_555 1_555
C3_2 H1_2 1_555 1_555
C4_2 C2_2 1_555 1_555
H2_2 C4_2 1_555 1_555
C5_2 C3_2 1_555 1_555
C6_2 C4_2 1_555 1_555
H3_2 C6_2 1_555 1_555
C7_2 C5_2 1_555 1_555
C8_2 C7_2 1_555 1_555
C9_2 C8_2 1_555 1_555
C10_2 C8_2 1_555 1_555
H4_2 C10_2 1_555 1_555
C11_2 C10_2 1_555 1_555
H5_2 C11_2 1_555 1_555
C12_2 C9_2 1_555 1_555
C13_2 C11_2 1_555 1_555
C14_2 C13_2 1_555 1_555
O2_2 C14_2 1_555 1_555
O3_2 C1_2 1_555 1_555
O4_2 C1_2 1_555 1_555
S1_2 C5_2 1_555 1_555
O6_2 S1_2 1_555 1_555
Zn9 O3_2 1_555 1_555
O34_2 Zn3_2 1_555 1_555
Zn3_2 O47_2 1_555 1_555
C6_2 C7_2 1_555 1_555
C9_2 S1_2 1_555 1_555
C12_2 C13_2 1_555 1_555
Zn1_2 O7_2 1_555 1_555
Zn2_2 O1_2 1_555 1_555
C15_2 C16_2 1_555 1_555
C16_2 C17_2 1_555 1_555
C17_2 H7_2 1_555 1_555
C18_2 C16_2 1_555 1_555
H8_2 C18_2 1_555 1_555
C19_2 C17_2 1_555 1_555
H9_2 C19_2 1_555 1_555
C20_2 C18_2 1_555 1_555
C21_2 C19_2 1_555 1_555
C22_2 C21_2 1_555 1_555
C23_2 C22_2 1_555 1_555
C24_2 C22_2 1_555 1_555
H10_2 C24_2 1_555 1_555
C25_2 C23_2 1_555 1_555
H11_2 C25_2 1_555 1_555
C26_2 C24_2 1_555 1_555
H12_2 C26_2 1_555 1_555
C27_2 C25_2 1_555 1_555
C28_2 C27_2 1_555 1_555
O7_2 C28_2 1_555 1_555
O8_2 C28_2 1_555 1_555
O9_2 Zn2_2 1_555 1_555
S2_2 C20_2 1_555 1_555
O11_2 S2_2 1_555 1_555
O12_2 S2_2 1_555 1_555
O13_2 Zn1_2 1_555 1_555
Zn4_2 O15_2 1_555 1_555
Zn5_2 O16_2 1_555 1_555
Zn7_2 O13_2 1_555 1_555
Zn8_2 O45_2 1_555 1_555
Zn9_2 O46_2 1_555 1_555
Zn8 O14_4 1_555 1_555
Zn13_2 O19_2 1_555 1_555
Zn14_2 O8_2 1_555 1_555
Zn15_2 O13_2 1_555 1_555
Zn16_2 O32_2 1_555 1_555
Zn14 O17_4 1_555 1_555
C29_4 C31_4 1_555 1_555
C31_4 C33_4 1_555 1_555
C33_4 H13_4 1_555 1_555
C35_4 C31_4 1_555 1_555
H15_4 C35_4 1_555 1_555
C37_4 C33_4 1_555 1_555
C39_4 C35_4 1_555 1_555
H17_4 C39_4 1_555 1_555
C41_4 C37_4 1_555 1_555
C43_4 C41_4 1_555 1_555
C45_4 C43_4 1_555 1_555
C47_4 C43_4 1_555 1_555
H19_4 C47_4 1_555 1_555
C49_4 C47_4 1_555 1_555
H21_4 C49_4 1_555 1_555
C51_4 C45_4 1_555 1_555
H23_4 C51_4 1_555 1_555
C53_4 C49_4 1_555 1_555
C55_4 C53_4 1_555 1_555
O14_4 C55_4 1_555 1_555
O17_4 C55_4 1_555 1_555
O20_2 Zn2_2 1_555 1_555
O22_2 Zn4_2 1_555 1_555
O23_2 Zn5_2 1_555 1_555
O24_4 C29_4 1_555 1_555
S3_4 C37_4 1_555 1_555
O26_4 S3_4 1_555 1_555
O28_6 S3_4 1_555 1_555
C57_2 C59_2 1_555 1_555
C58_2 C60_2 1_555 1_555
C59_2 C61_2 1_555 1_555
C60_2 C62_2 1_555 1_555
C61_2 H25_2 1_555 1_555
C62_2 H26_2 1_555 1_555
C63_2 C59_2 1_555 1_555
C64_2 C60_2 1_555 1_555
H27_2 C63_2 1_555 1_555
H28_2 C64_2 1_555 1_555
C65_2 C61_2 1_555 1_555
C66_2 C62_2 1_555 1_555
H29_2 C65_2 1_555 1_555
H30_2 C66_2 1_555 1_555
C67_2 C63_2 1_555 1_555
C68_2 C64_2 1_555 1_555
C69_2 C65_2 1_555 1_555
C70_2 C66_2 1_555 1_555
C71_2 C69_2 1_555 1_555
C72_2 C70_2 1_555 1_555
C73_2 C71_2 1_555 1_555
C74_2 C72_2 1_555 1_555
C75_2 C71_2 1_555 1_555
C76_2 C72_2 1_555 1_555
H31_2 C75_2 1_555 1_555
H32_2 C76_2 1_555 1_555
C77_2 C73_2 1_555 1_555
C78_2 C74_2 1_555 1_555
H33_2 C77_2 1_555 1_555
H34_2 C78_2 1_555 1_555
C79_2 C75_2 1_555 1_555
C80_2 C76_2 1_555 1_555
H35_2 C79_2 1_555 1_555
H36_2 C80_2 1_555 1_555
C81_2 C77_2 1_555 1_555
C82_2 C78_2 1_555 1_555
C83_2 C81_2 1_555 1_555
C84_2 C82_2 1_555 1_555
O30_2 Zn1_2 1_555 1_555
O31_2 Zn1_2 1_555 1_555
O32_2 C83_2 1_555 1_555
O33_2 Zn15_2 1_555 1_555
O36_2 Zn13_2 1_555 1_555
O37_2 Zn4_2 1_555 1_555
O38_2 Zn5_2 1_555 1_555
O40_2 Zn13_2 1_555 1_555
S5_2 C67_2 1_555 1_555
S6_2 C68_2 1_555 1_555
O41_2 S5_2 1_555 1_555
O42 S6_2 1_555 1_555
O43_2 S5_2 1_555 1_555
O44_2 S6_2 1_555 1_555
O45_2 Zn1_2 1_555 1_555
O46_2 Zn1_2 1_555 1_555
O49_2 Zn5_2 1_555 1_555
C15_2 O9_2 1_555 1_555
C15_2 O10_2 1_555 1_555
C20_2 C21_2 1_555 1_555
C23_2 S2_2 1_555 1_555
C26_2 C27_2 1_555 1_555
Zn13_2 O49_2 1_555 1_555
Zn14_2 O45_2 1_555 1_555
Zn16_2 O46_2 1_555 1_555
C29_4 O20_2 1_555 1_555
C39_4 C41_4 1_555 1_555
C45_4 S3_4 1_555 1_555
C51_4 C53_4 1_555 1_555
C57_2 O37_2 1_555 1_555
C57_2 O39_2 1_555 1_555
C58_2 O38_2 1_555 1_555
C58_2 O40_2 1_555 1_555
C67_2 C69_2 1_555 1_555
C68_2 C70_2 1_555 1_555
C73_2 S5_2 1_555 1_555
C74_2 S6_2 1_555 1_555
C79_2 C81_2 1_555 1_555
C80_2 C82_2 1_555 1_555
C83_2 O30_2 1_555 1_555
C84_2 O31_2 1_555 1_555
C84_2 O33_2 1_555 1_555
Zn7 O21_3 1_555 1_555
Zn12_2 O18_2 1_555 1_555
C30_3 C32_3 1_555 1_555
C32_3 C34_3 1_555 1_555
C34_3 H14_3 1_555 1_555
C36_3 C32_3 1_555 1_555
H16_3 C36_3 1_555 1_555
C38_3 C34_3 1_555 1_555
C40_3 C36_3 1_555 1_555
H18_3 C40_3 1_555 1_555
C42_3 C38_3 1_555 1_555
C44_3 C42_3 1_555 1_555
C46_3 C44_3 1_555 1_555
C48_3 C44_3 1_555 1_555
H20_3 C48_3 1_555 1_555
C50_3 C48_3 1_555 1_555
H22_3 C50_3 1_555 1_555
C52_3 C46_3 1_555 1_555
C54_3 C50_3 1_555 1_555
C56_3 C54_3 1_555 1_555
O18_2 C56_3 1_555 1_555
O21_3 C30_3 1_555 1_555
O25_3 C30_3 1_555 1_555
S4_3 C38_3 1_555 1_555
O29_4 S4_3 1_555 1_555
O35_2 Zn12_2 1_555 1_555
Zn12_2 O48_2 1_555 1_555
C40_3 C42_3 1_555 1_555
C46_3 S4_3 1_555 1_555
C52_3 C54_3 1_555 1_555
Zn9 O14_5 1_555 1_555
Zn16 O17_5 1_555 1_555
C31_5 C33_5 1_555 1_555
C35_5 C31_5 1_555 1_555
H15_5 C35_5 1_555 1_555
C37_5 C33_5 1_555 1_555
C39_5 C35_5 1_555 1_555
H17_5 C39_5 1_555 1_555
C41_5 C37_5 1_555 1_555
C43_5 C41_5 1_555 1_555
C45_5 C43_5 1_555 1_555
C47_5 C43_5 1_555 1_555
H19_5 C47_5 1_555 1_555
C49_5 C47_5 1_555 1_555
H21_5 C49_5 1_555 1_555
C51_5 C45_5 1_555 1_555
H23_5 C51_5 1_555 1_555
C53_5 C49_5 1_555 1_555
C55_5 C53_5 1_555 1_555
O14_5 C55_5 1_555 1_555
O17_5 C55_5 1_555 1_555
S3_5 C37_5 1_555 1_555
O28_7 S3_5 1_555 1_555
C39_5 C41_5 1_555 1_555
C45_5 S3_5 1_555 1_555
C51_5 C53_5 1_555 1_555
Zn8 O21_4 1_555 1_555
C30_4 C32_4 1_555 1_555
C32_4 C34_4 1_555 1_555
C34_4 H14_4 1_555 1_555
C36_4 C32_4 1_555 1_555
H16_4 C36_4 1_555 1_555
C38_4 C34_4 1_555 1_555
C40_4 C36_4 1_555 1_555
H18_4 C40_4 1_555 1_555
C42_4 C38_4 1_555 1_555
C44_4 C42_4 1_555 1_555
C46_4 C44_4 1_555 1_555
C48_4 C44_4 1_555 1_555
H20_4 C48_4 1_555 1_555
C50_4 C48_4 1_555 1_555
H22_4 C50_4 1_555 1_555
C52_4 C46_4 1_555 1_555
H24_4 C52_4 1_555 1_555
C54_4 C50_4 1_555 1_555
C56_4 C54_4 1_555 1_555
O16_2 C56_4 1_555 1_555
O19_2 C56_4 1_555 1_555
O21_4 C30_4 1_555 1_555
O25_4 C30_4 1_555 1_555
S4_4 C38_4 1_555 1_555
O27_4 S4_4 1_555 1_555
O29_5 S4_4 1_555 1_555
C29_5 O22_2 1_555 1_555
C40_4 C42_4 1_555 1_555
C46_4 S4_4 1_555 1_555
C52_4 C54_4 1_555 1_555
C29_6 O23_2 1_555 1_555
Zn7 O14_6 1_555 1_555
Zn15 O17_6 1_555 1_555
C31_6 C33_6 1_555 1_555
C35_6 C31_6 1_555 1_555
H15_6 C35_6 1_555 1_555
C37_6 C33_6 1_555 1_555
C39_6 C35_6 1_555 1_555
H17_6 C39_6 1_555 1_555
C41_6 C37_6 1_555 1_555
C43_6 C41_6 1_555 1_555
C45_6 C43_6 1_555 1_555
C47_6 C43_6 1_555 1_555
H19_6 C47_6 1_555 1_555
C49_6 C47_6 1_555 1_555
H21_6 C49_6 1_555 1_555
C51_6 C45_6 1_555 1_555
H23_6 C51_6 1_555 1_555
C53_6 C49_6 1_555 1_555
C55_6 C53_6 1_555 1_555
O14_6 C55_6 1_555 1_555
O17_6 C55_6 1_555 1_555
S3_6 C37_6 1_555 1_555
O28_8 S3_6 1_555 1_555
C39_6 C41_6 1_555 1_555
C45_6 S3_6 1_555 1_555
C51_6 C53_6 1_555 1_555
Zn1_3 O7_3 1_555 1_555
Zn2_3 O1_3 1_555 1_555
Zn3_3 O2_3 1_555 1_555
C1_3 C2_3 1_555 1_555
C2_3 C3_3 1_555 1_555
C3_3 H1_3 1_555 1_555
C4_3 C2_3 1_555 1_555
H2_3 C4_3 1_555 1_555
C5_3 C3_3 1_555 1_555
C6_3 C4_3 1_555 1_555
H3_3 C6_3 1_555 1_555
C7_3 C5_3 1_555 1_555
C8_3 C7_3 1_555 1_555
C9_3 C8_3 1_555 1_555
C10_3 C8_3 1_555 1_555
H4_3 C10_3 1_555 1_555
C11_3 C10_3 1_555 1_555
H5_3 C11_3 1_555 1_555
C12_3 C9_3 1_555 1_555
H6_3 C12_3 1_555 1_555
C13_3 C11_3 1_555 1_555
C14_3 C13_3 1_555 1_555
O1_3 C14_3 1_555 1_555
O2_3 C14_3 1_555 1_555
O3_3 C1_3 1_555 1_555
O4_3 C1_3 1_555 1_555
S1_3 C5_3 1_555 1_555
O5_3 S1_3 1_555 1_555
O6_4 S1_3 1_555 1_555
C15_3 C16_3 1_555 1_555
C16_3 C17_3 1_555 1_555
C17_3 H7_3 1_555 1_555
C18_3 C16_3 1_555 1_555
H8_3 C18_3 1_555 1_555
C19_3 C17_3 1_555 1_555
H9_3 C19_3 1_555 1_555
C20_3 C18_3 1_555 1_555
C21_3 C19_3 1_555 1_555
C22_3 C21_3 1_555 1_555
C23_3 C22_3 1_555 1_555
C24_3 C22_3 1_555 1_555
H10_3 C24_3 1_555 1_555
C25_3 C23_3 1_555 1_555
H11_3 C25_3 1_555 1_555
C26_3 C24_3 1_555 1_555
H12_3 C26_3 1_555 1_555
C27_3 C25_3 1_555 1_555
C28_3 C27_3 1_555 1_555
O7_3 C28_3 1_555 1_555
O8_3 C28_3 1_555 1_555
O9_3 Zn2_3 1_555 1_555
O10_3 Zn3_3 1_555 1_555
S2_3 C20_3 1_555 1_555
O11_3 S2_3 1_555 1_555
O12_3 S2_3 1_555 1_555
Zn9_2 O3_3 1_555 1_555
Zn17 O8_3 1_555 1_555
C29_7 C31_7 1_555 1_555
C31_7 C33_7 1_555 1_555
C33_7 H13_7 1_555 1_555
C35_7 C31_7 1_555 1_555
H15_7 C35_7 1_555 1_555
C37_7 C33_7 1_555 1_555
C39_7 C35_7 1_555 1_555
H17_7 C39_7 1_555 1_555
C41_7 C37_7 1_555 1_555
C43_7 C41_7 1_555 1_555
C47_7 C43_7 1_555 1_555
H19_7 C47_7 1_555 1_555
O20_3 Zn2_3 1_555 1_555
O24_7 C29_7 1_555 1_555
S3_7 C37_7 1_555 1_555
O26_7 S3_7 1_555 1_555
O34_3 Zn3_3 1_555 1_555
O45_3 Zn1_3 1_555 1_555
O47_3 Zn2_3 1_555 1_555
Zn3_3 O47_3 1_555 1_555
C6_3 C7_3 1_555 1_555
C9_3 S1_3 1_555 1_555
C12_3 C13_3 1_555 1_555
C15_3 O9_3 1_555 1_555
C15_3 O10_3 1_555 1_555
C20_3 C21_3 1_555 1_555
C23_3 S2_3 1_555 1_555
C26_3 C27_3 1_555 1_555
Zn17 O45_3 1_555 1_555
C29_7 O20_3 1_555 1_555
C39_7 C41_7 1_555 1_555
O13_3 Zn1_4 1_555 1_555
Zn8_2 O14_7 1_555 1_555
Zn17_3 O13_3 1_555 1_555
Zn14_2 O17_7 1_555 1_555
H21_7 C49_7 1_555 1_555
C51_7 C45_7 1_555 1_555
H23_7 C51_7 1_555 1_555
C53_7 C49_7 1_555 1_555
C55_7 C53_7 1_555 1_555
O14_7 C55_7 1_555 1_555
O17_7 C55_7 1_555 1_555
O33_3 Zn17_3 1_555 1_555
C51_7 C53_7 1_555 1_555
C84_3 O33_3 1_555 1_555
Zn4_3 O15_3 1_555 1_555
Zn12_3 O18_3 1_555 1_555
H22_5 C50_5 1_555 1_555
C52_5 C46_5 1_555 1_555
H24_5 C52_5 1_555 1_555
C54_5 C50_5 1_555 1_555
C56_5 C54_5 1_555 1_555
O15_3 C56_5 1_555 1_555
O18_3 C56_5 1_555 1_555
O22_3 Zn4_3 1_555 1_555
C57_3 C59_3 1_555 1_555
C59_3 C61_3 1_555 1_555
C61_3 H25_3 1_555 1_555
C63_3 C59_3 1_555 1_555
H27_3 C63_3 1_555 1_555
C65_3 C61_3 1_555 1_555
H29_3 C65_3 1_555 1_555
C67_3 C63_3 1_555 1_555
C69_3 C65_3 1_555 1_555
C71_3 C69_3 1_555 1_555
C73_3 C71_3 1_555 1_555
C75_3 C71_3 1_555 1_555
H31_3 C75_3 1_555 1_555
C77_3 C73_3 1_555 1_555
C79_3 C75_3 1_555 1_555
H35_3 C79_3 1_555 1_555
C81_3 C77_3 1_555 1_555
O30_3 Zn1_5 1_555 1_555
O35_3 Zn12_3 1_555 1_555
O37_3 Zn4_3 1_555 1_555
O39_3 Zn12_3 1_555 1_555
S5_3 C67_3 1_555 1_555
O41_3 S5_3 1_555 1_555
O48_3 Zn4_3 1_555 1_555
Zn12_3 O48_3 1_555 1_555
C52_5 C54_5 1_555 1_555
C57_3 O37_3 1_555 1_555
C57_3 O39_3 1_555 1_555
C67_3 C69_3 1_555 1_555
C73_3 S5_3 1_555 1_555
C79_3 C81_3 1_555 1_555
Zn5_3 O16_3 1_555 1_555
Zn6 O46_3 1_555 1_555
Zn7_2 O21_5 1_555 1_555
Zn13_3 O19_3 1_555 1_555
Zn17_2 O32_3 1_555 1_555
C30_5 C32_5 1_555 1_555
C32_5 C34_5 1_555 1_555
C34_5 H14_5 1_555 1_555
C36_5 C32_5 1_555 1_555
H16_5 C36_5 1_555 1_555
C38_5 C34_5 1_555 1_555
C40_5 C36_5 1_555 1_555
H18_5 C40_5 1_555 1_555
C42_5 C38_5 1_555 1_555
C44_5 C42_5 1_555 1_555
C48_5 C44_5 1_555 1_555
H20_5 C48_5 1_555 1_555
O21_5 C30_5 1_555 1_555
O23_3 Zn5_3 1_555 1_555
O25_5 C30_5 1_555 1_555
S4_5 C38_5 1_555 1_555
O27_5 S4_5 1_555 1_555
C58_3 C60_3 1_555 1_555
C60_3 C62_3 1_555 1_555
C62_3 H26_3 1_555 1_555
C64_3 C60_3 1_555 1_555
H28_3 C64_3 1_555 1_555
C66_3 C62_3 1_555 1_555
H30_3 C66_3 1_555 1_555
C68_3 C64_3 1_555 1_555
C70_3 C66_3 1_555 1_555
C72_3 C70_3 1_555 1_555
C74_3 C72_3 1_555 1_555
C76_3 C72_3 1_555 1_555
H32_3 C76_3 1_555 1_555
C78_3 C74_3 1_555 1_555
C80_3 C76_3 1_555 1_555
H36_3 C80_3 1_555 1_555
C82_3 C78_3 1_555 1_555
O31_3 Zn1_6 1_555 1_555
O32_3 C83_3 1_555 1_555
O36_3 Zn13_3 1_555 1_555
O38_3 Zn5_3 1_555 1_555
O40_3 Zn13_3 1_555 1_555
S6_3 C68_3 1_555 1_555
O42_2 S6_3 1_555 1_555
O46_3 Zn1_6 1_555 1_555
O49_3 Zn5_3 1_555 1_555
Zn13_3 O49_3 1_555 1_555
Zn17_2 O46_3 1_555 1_555
C40_5 C42_5 1_555 1_555
C58_3 O38_3 1_555 1_555
C58_3 O40_3 1_555 1_555
C68_3 C70_3 1_555 1_555
C74_3 S6_3 1_555 1_555
C80_3 C82_3 1_555 1_555
Zn9_2 O14_8 1_555 1_555
Zn16_2 O17_8 1_555 1_555
H21_8 C49_8 1_555 1_555
C51_8 C45_8 1_555 1_555
H23_8 C51_8 1_555 1_555
C53_8 C49_8 1_555 1_555
C55_8 C53_8 1_555 1_555
O14_8 C55_8 1_555 1_555
O17_8 C55_8 1_555 1_555
C51_8 C53_8 1_555 1_555
Zn8_2 O21_6 1_555 1_555
C30_6 C32_6 1_555 1_555
C32_6 C34_6 1_555 1_555
C34_6 H14_6 1_555 1_555
C36_6 C32_6 1_555 1_555
H16_6 C36_6 1_555 1_555
C38_6 C34_6 1_555 1_555
C40_6 C36_6 1_555 1_555
H18_6 C40_6 1_555 1_555
C42_6 C38_6 1_555 1_555
C44_6 C42_6 1_555 1_555
C48_6 C44_6 1_555 1_555
H20_6 C48_6 1_555 1_555
O21_6 C30_6 1_555 1_555
O25_6 C30_6 1_555 1_555
S4_6 C38_6 1_555 1_555
O27_6 S4_6 1_555 1_555
C40_6 C42_6 1_555 1_555
C29_8 C31_8 1_555 1_555
C31_8 C33_8 1_555 1_555
C33_8 H13_8 1_555 1_555
C35_8 C31_8 1_555 1_555
H15_8 C35_8 1_555 1_555
C37_8 C33_8 1_555 1_555
C39_8 C35_8 1_555 1_555
H17_8 C39_8 1_555 1_555
C41_8 C37_8 1_555 1_555
C43_8 C41_8 1_555 1_555
C47_8 C43_8 1_555 1_555
H19_8 C47_8 1_555 1_555
O24_8 C29_8 1_555 1_555
S3_8 C37_8 1_555 1_555
O26_8 S3_8 1_555 1_555
C29_8 O22_3 1_555 1_555
C39_8 C41_8 1_555 1_555
H22_6 C50_6 1_555 1_555
C52_6 C46_6 1_555 1_555
H24_6 C52_6 1_555 1_555
C54_6 C50_6 1_555 1_555
C56_6 C54_6 1_555 1_555
O16_3 C56_6 1_555 1_555
O19_3 C56_6 1_555 1_555
C52_6 C54_6 1_555 1_555
Zn7_2 O14_9 1_555 1_555
Zn15_2 O17_9 1_555 1_555
C29_9 C31_9 1_555 1_555
C31_9 C33_9 1_555 1_555
C33_9 H13_9 1_555 1_555
C35_9 C31_9 1_555 1_555
H15_9 C35_9 1_555 1_555
C37_9 C33_9 1_555 1_555
C39_9 C35_9 1_555 1_555
H17_9 C39_9 1_555 1_555
C41_9 C37_9 1_555 1_555
C43_9 C41_9 1_555 1_555
C45_9 C43_9 1_555 1_555
C47_9 C43_9 1_555 1_555
H19_9 C47_9 1_555 1_555
C49_9 C47_9 1_555 1_555
H21_9 C49_9 1_555 1_555
C51_9 C45_9 1_555 1_555
H23_9 C51_9 1_555 1_555
C53_9 C49_9 1_555 1_555
C55_9 C53_9 1_555 1_555
O14_9 C55_9 1_555 1_555
O17_9 C55_9 1_555 1_555
O24_9 C29_9 1_555 1_555
S3_9 C37_9 1_555 1_555
O26_9 S3_9 1_555 1_555
O28_11 S3_9 1_555 1_555
C29_9 O23_3 1_555 1_555
C39_9 C41_9 1_555 1_555
C45_9 S3_9 1_555 1_555
C51_9 C53_9 1_555 1_555
C58_4 C60_4 1_555 1_555
C60_4 C62_4 1_555 1_555
C62_4 H26_4 1_555 1_555
C64_4 C60_4 1_555 1_555
H28_4 C64_4 1_555 1_555
O38_4 Zn9 1_555 1_555
O40_4 Zn16 1_555 1_555
C58_4 O38_4 1_555 1_555
C58_4 O40_4 1_555 1_555
H9_4 C19_4 1_555 1_555
C21_4 C19_4 1_555 1_555
C22_4 C21_4 1_555 1_555
S2_4 C20_4 1_555 1_555
O12_4 S2_4 1_555 1_555
C57_4 C59_4 1_555 1_555
C59_4 C61_4 1_555 1_555
C61_4 H25_4 1_555 1_555
C63_4 C59_4 1_555 1_555
H27_4 C63_4 1_555 1_555
C65_4 C61_4 1_555 1_555
H29_4 C65_4 1_555 1_555
H30_4 C66_4 1_555 1_555
C67_4 C63_4 1_555 1_555
C69_4 C65_4 1_555 1_555
C70_4 C66_4 1_555 1_555
C71_4 C69_4 1_555 1_555
C72_4 C70_4 1_555 1_555
O37_4 Zn8 1_555 1_555
O39_4 Zn14 1_555 1_555
S5_4 C67_4 1_555 1_555
S6_4 C68_4 1_555 1_555
O43_4 S5_4 1_555 1_555
O44_4 S6_4 1_555 1_555
C20_4 C21_4 1_555 1_555
C57_4 O37_4 1_555 1_555
C57_4 O39_4 1_555 1_555
C67_4 C69_4 1_555 1_555
C68_4 C70_4 1_555 1_555
Zn1_7 O7_4 1_555 1_555
C25_4 C23_4 1_555 1_555
H11_4 C25_4 1_555 1_555
C26_4 C24_4 1_555 1_555
H12_4 C26_4 1_555 1_555
C27_4 C25_4 1_555 1_555
C28_4 C27_4 1_555 1_555
O7_4 C28_4 1_555 1_555
O35 C28_4 1_555 1_555
O47 Zn1_7 1_555 1_555
C77_4 C73_4 1_555 1_555
C78_4 C74_4 1_555 1_555
H33_4 C77_4 1_555 1_555
H34_4 C78_4 1_555 1_555
C79_4 C75_4 1_555 1_555
C80_4 C76_4 1_555 1_555
H35_4 C79_4 1_555 1_555
H36_4 C80_4 1_555 1_555
C81_4 C77_4 1_555 1_555
C82_4 C78_4 1_555 1_555
C83_4 C81_4 1_555 1_555
C84_4 C82_4 1_555 1_555
O30_4 Zn1_7 1_555 1_555
O31_4 Zn1_7 1_555 1_555
O36 C83_4 1_555 1_555
O48 Zn1_7 1_555 1_555
O49 Zn1_7 1_555 1_555
C26_4 C27_4 1_555 1_555
C79_4 C81_4 1_555 1_555
C80_4 C82_4 1_555 1_555
C83_4 O30_4 1_555 1_555
C84_4 O31_4 1_555 1_555
C84_4 O34 1_555 1_555
C15_4 C16_4 1_555 1_555
C16_4 C17_4 1_555 1_555
C17_4 H7_4 1_555 1_555
C18_4 C16_4 1_555 1_555
H8_4 C18_4 1_555 1_555
O9_4 Zn7 1_555 1_555
O10_4 Zn15 1_555 1_555
C15_4 O9_4 1_555 1_555
C15_4 O10_4 1_555 1_555
Zn1_8 O7_5 1_555 1_555
C15_5 C16_5 1_555 1_555
C16_5 C17_5 1_555 1_555
C17_5 H7_5 1_555 1_555
C18_5 C16_5 1_555 1_555
H8_5 C18_5 1_555 1_555
C19_5 C17_5 1_555 1_555
H9_5 C19_5 1_555 1_555
C20_5 C18_5 1_555 1_555
C21_5 C19_5 1_555 1_555
C22_5 C21_5 1_555 1_555
C23_5 C22_5 1_555 1_555
C24_5 C22_5 1_555 1_555
H10_5 C24_5 1_555 1_555
C25_5 C23_5 1_555 1_555
H11_5 C25_5 1_555 1_555
C26_5 C24_5 1_555 1_555
H12_5 C26_5 1_555 1_555
C27_5 C25_5 1_555 1_555
C28_5 C27_5 1_555 1_555
O7_5 C28_5 1_555 1_555
O35_3 C28_5 1_555 1_555
O9_5 Zn11 1_555 1_555
S2_5 C20_5 1_555 1_555
O11_4 S2_5 1_555 1_555
O12_5 S2_5 1_555 1_555
O47_3 Zn1_8 1_555 1_555
C57_5 C59_5 1_555 1_555
C58_5 C60_5 1_555 1_555
C59_5 C61_5 1_555 1_555
C60_5 C62_5 1_555 1_555
C61_5 H25_5 1_555 1_555
C62_5 H26_5 1_555 1_555
C63_5 C59_5 1_555 1_555
C64_5 C60_5 1_555 1_555
H27_5 C63_5 1_555 1_555
H28_5 C64_5 1_555 1_555
C65_5 C61_5 1_555 1_555
C66_5 C62_5 1_555 1_555
H29_5 C65_5 1_555 1_555
H30_5 C66_5 1_555 1_555
C67_5 C63_5 1_555 1_555
C68_5 C64_5 1_555 1_555
C69_5 C65_5 1_555 1_555
C70_5 C66_5 1_555 1_555
C71_5 C69_5 1_555 1_555
C72_5 C70_5 1_555 1_555
C73_5 C71_5 1_555 1_555
C74_5 C72_5 1_555 1_555
C75_5 C71_5 1_555 1_555
C76_5 C72_5 1_555 1_555
H31_5 C75_5 1_555 1_555
H32_5 C76_5 1_555 1_555
C77_5 C73_5 1_555 1_555
C78_5 C74_5 1_555 1_555
H33_5 C77_5 1_555 1_555
H34_5 C78_5 1_555 1_555
C79_5 C75_5 1_555 1_555
C80_5 C76_5 1_555 1_555
H35_5 C79_5 1_555 1_555
H36_5 C80_5 1_555 1_555
C81_5 C77_5 1_555 1_555
C82_5 C78_5 1_555 1_555
C83_5 C81_5 1_555 1_555
C84_5 C82_5 1_555 1_555
O30_5 Zn1_8 1_555 1_555
O31_5 Zn1_8 1_555 1_555
O36_3 C83_5 1_555 1_555
O37_5 Zn10 1_555 1_555
O38_5 Zn6 1_555 1_555
O40_5 Zn17_2 1_555 1_555
S5_5 C67_5 1_555 1_555
S6_5 C68_5 1_555 1_555
O41_5 S5_5 1_555 1_555
O42_3 S6_5 1_555 1_555
O43_5 S5_5 1_555 1_555
O44_5 S6_5 1_555 1_555
O48_3 Zn1_8 1_555 1_555
O49_3 Zn1_8 1_555 1_555
C15_5 O9_5 1_555 1_555
C15_5 O10_5 1_555 1_555
C20_5 C21_5 1_555 1_555
C23_5 S2_5 1_555 1_555
C26_5 C27_5 1_555 1_555
C57_5 O37_5 1_555 1_555
C57_5 O39_5 1_555 1_555
C58_5 O38_5 1_555 1_555
C58_5 O40_5 1_555 1_555
C67_5 C69_5 1_555 1_555
C68_5 C70_5 1_555 1_555
C73_5 S5_5 1_555 1_555
C74_5 S6_5 1_555 1_555
C79_5 C81_5 1_555 1_555
C80_5 C82_5 1_555 1_555
C83_5 O30_5 1_555 1_555
C84_5 O31_5 1_555 1_555
C84_5 O34_3 1_555 1_555
C58_6 C60_6 1_555 1_555
C60_6 C62_6 1_555 1_555
C62_6 H26_6 1_555 1_555
C64_6 C60_6 1_555 1_555
H28_6 C64_6 1_555 1_555
C66_6 C62_6 1_555 1_555
H30_6 C66_6 1_555 1_555
C68_6 C64_6 1_555 1_555
C70_6 C66_6 1_555 1_555
C72_6 C70_6 1_555 1_555
C74_6 C72_6 1_555 1_555
C76_6 C72_6 1_555 1_555
H32_6 C76_6 1_555 1_555
C78_6 C74_6 1_555 1_555
C80_6 C76_6 1_555 1_555
H36_6 C80_6 1_555 1_555
C82_6 C78_6 1_555 1_555
O31_6 Zn1_9 1_555 1_555
O36_2 C83_6 1_555 1_555
O38_6 Zn9_2 1_555 1_555
O40_6 Zn16_2 1_555 1_555
S6_6 C68_6 1_555 1_555
O42_4 S6_6 1_555 1_555
O49_2 Zn1_9 1_555 1_555
C58_6 O38_6 1_555 1_555
C58_6 O40_6 1_555 1_555
C68_6 C70_6 1_555 1_555
C74_6 S6_6 1_555 1_555
C80_6 C82_6 1_555 1_555
C57_6 C59_6 1_555 1_555
C59_6 C61_6 1_555 1_555
C61_6 H25_6 1_555 1_555
C63_6 C59_6 1_555 1_555
H27_6 C63_6 1_555 1_555
C65_6 C61_6 1_555 1_555
H29_6 C65_6 1_555 1_555
C67_6 C63_6 1_555 1_555
C69_6 C65_6 1_555 1_555
C71_6 C69_6 1_555 1_555
C73_6 C71_6 1_555 1_555
C75_6 C71_6 1_555 1_555
H31_6 C75_6 1_555 1_555
C77_6 C73_6 1_555 1_555
C79_6 C75_6 1_555 1_555
H35_6 C79_6 1_555 1_555
C81_6 C77_6 1_555 1_555
O30_6 Zn1_10 1_555 1_555
O37_6 Zn8_2 1_555 1_555
O39_6 Zn14_2 1_555 1_555
S5_6 C67_6 1_555 1_555
O41_6 S5_6 1_555 1_555
C57_6 O37_6 1_555 1_555
C57_6 O39_6 1_555 1_555
C67_6 C69_6 1_555 1_555
C73_6 S5_6 1_555 1_555
C79_6 C81_6 1_555 1_555
O47_2 Zn1_11 1_555 1_555
C84_6 O34_2 1_555 1_555
Zn1_12 O7_6 1_555 1_555
C15_6 C16_6 1_555 1_555
C16_6 C17_6 1_555 1_555
C17_6 H7_6 1_555 1_555
C18_6 C16_6 1_555 1_555
H8_6 C18_6 1_555 1_555
C19_6 C17_6 1_555 1_555
H9_6 C19_6 1_555 1_555
C20_6 C18_6 1_555 1_555
C21_6 C19_6 1_555 1_555
C22_6 C21_6 1_555 1_555
C23_6 C22_6 1_555 1_555
C24_6 C22_6 1_555 1_555
H10_6 C24_6 1_555 1_555
C25_6 C23_6 1_555 1_555
H11_6 C25_6 1_555 1_555
C26_6 C24_6 1_555 1_555
H12_6 C26_6 1_555 1_555
C27_6 C25_6 1_555 1_555
C28_6 C27_6 1_555 1_555
O7_6 C28_6 1_555 1_555
O35_2 C28_6 1_555 1_555
O9_6 Zn7_2 1_555 1_555
O10_6 Zn15_2 1_555 1_555
S2_6 C20_6 1_555 1_555
O11_5 S2_6 1_555 1_555
O12_6 S2_6 1_555 1_555
O48_2 Zn1_12 1_555 1_555
C15_6 O9_6 1_555 1_555
C15_6 O10_6 1_555 1_555
C20_6 C21_6 1_555 1_555
C23_6 S2_6 1_555 1_555
C26_6 C27_6 1_555 1_555
O50_2 H37 1_555 1_555
O50_2 H38 1_555 1_555
O50_3 H37_2 1_555 1_555
O50_3 H39 1_555 1_555
O50_8 H37_3 1_555 1_555
O50_8 H39_2 1_555 1_555
O50_9 H37_4 1_555 1_555
O50_9 H38_2 1_555 1_555

#END
