
###############################################################################
#
# This file contains modified crystal structure data generated from the
# MOF subset of the Cambridge Structural Database (CSD) v543 
# hosted by the Cambridge Crystallographic Data Centre (CCDC).
#
# This work is licensed under the Creative Commons
# Attribution-NonCommercial-ShareAlike 4.0 International License.
# To view a copy of this license, visit
# http://creativecommons.org/licenses/by-nc-sa/4.0/
# or send a letter to
# Creative Commons, PO Box 1866, Mountain View, CA 94042, USA.
#
# CIF created using the CSD Python API on 29 September 2022
# The structure has been converted into the P1 space group
# The structure has a 3D framework
# The original CSD entry YOZROW is in the tetragonal crystal system
# The framework has been calculated to contain at least 10.0% void space
# The void calculation uses a probe of radius 1.32A, grid spacing 0.4
#
###############################################################################

data_YOZROW
_chemical_formula_moiety         '(C80 H48 Cl8 Co14 N32 O23)n'
_symmetry_cell_setting           triclinic
_symmetry_space_group_name_H-M   'P 1'
_symmetry_Int_Tables_number      1
_space_group_name_Hall           'P 1'
loop_
_symmetry_equiv_pos_site_id
_symmetry_equiv_pos_as_xyz
1 x,y,z
_cell_length_a                   11.3528(16)
_cell_length_b                   11.3528(16)
_cell_length_c                   23.145(5)
_cell_angle_alpha                90
_cell_angle_beta                 90
_cell_angle_gamma                90
_cell_volume                     2983.07
loop_
_atom_site_label
_atom_site_type_symbol
_atom_site_fract_x
_atom_site_fract_y
_atom_site_fract_z
Co2 Co 0.0000 0.0000 0.0000
C2 C 0.1146(7) 0.0139(6) 0.1253(3)
H1 H 0.1157 0.0956 0.1226
H2 H 0.1845 0.0078 0.2041
O8 O 0.1825(4) 0.0179(5) 0.5047(2)
Co6 Co 0.5000 0.0000 0.0000
Co8 Co 0.5000 -0.0000 0.5000
Co9 Co 0.0000 -0.0000 0.5000
O12 O 0.0179(5) 0.1825(4) 0.0047(2)
Co2_2 Co 0.0000 0.0000 1.0000
Co6_2 Co 0.5000 0.0000 1.0000
Co1 Co 0.2500 0.7500 0.2500
Co2_3 Co 0.0000 1.0000 0.0000
Cl1 Cl 0.09940(17) 0.59940(17) 0.2500
N1 N 0.0729(5) 0.9505(5) 0.0814(2)
N2 N 0.1560(6) 0.8444(6) 0.1813(2)
C1 C 0.0685(6) 0.8331(6) 0.0882(3)
C3 C 0.1557(7) 0.9607(7) 0.1744(3)
C4 C 0.1098(7) 0.7806(7) 0.1383(3)
H3 H 0.1053 0.6992 0.1421
C5 C 0.0179(6) 0.7624(7) 0.0388(3)
O1 O 0.0171(6) 0.6550(5) 0.0461(2)
Cl2 Cl 0.40060(17) 0.90060(17) 0.2500
N3 N 0.4271(5) 0.5495(5) 0.0814(2)
N4 N 0.3440(6) 0.6556(6) 0.1813(2)
C6 C 0.4315(6) 0.6669(6) 0.0882(3)
C7 C 0.3854(7) 0.4861(6) 0.1253(3)
H4 H 0.3843 0.4044 0.1226
C8 C 0.3443(7) 0.5393(7) 0.1744(3)
H5 H 0.3155 0.4922 0.2041
C9 C 0.3902(7) 0.7194(7) 0.1383(3)
H6 H 0.3947 0.8008 0.1421
C10 C 0.4821(6) 0.7376(7) 0.0388(3)
O3 O 0.4829(6) 0.8450(5) 0.0461(2)
N7 N 0.0495(5) 0.9271(5) 0.4186(2)
N8 N 0.1556(6) 0.8440(6) 0.3187(2)
C16 C 0.1669(6) 0.9315(6) 0.4118(3)
C18 C 0.0393(7) 0.8443(7) 0.3256(3)
C19 C 0.2194(7) 0.8902(7) 0.3617(3)
H12 H 0.3008 0.8947 0.3579
C20 C 0.2376(7) 0.9821(6) 0.4612(3)
O7 O 0.3450(5) 0.9829(6) 0.4539(2)
Co5 Co 0.5000 0.5000 0.0000
Co6_3 Co 0.5000 1.0000 0.0000
Co7 Co 0.0000 0.5000 0.0000
Co8_2 Co 0.5000 1.0000 0.5000
Co9_2 Co 0.0000 1.0000 0.5000
N11 N 0.3444(6) 0.6560(6) 0.3187(2)
Co2_4 Co 0.0000 1.0000 1.0000
O4 O 0.5179(5) 0.6825(4) 0.9953(2)
Co5_2 Co 0.5000 0.5000 1.0000
Co6_4 Co 0.5000 1.0000 1.0000
Co7_2 Co 0.0000 0.5000 1.0000
O11 O 0.1550(5) 0.9829(6) 0.9539(2)
Co2_5 Co 1.0000 0.0000 0.0000
N5 N 0.5495(5) 0.0729(5) 0.0814(2)
N6 N 0.6556(6) 0.1560(6) 0.1813(2)
C11 C 0.6669(6) 0.0685(6) 0.0882(3)
C12 C 0.4861(6) 0.1146(7) 0.1253(3)
H7 H 0.4044 0.1157 0.1226
C13 C 0.5393(7) 0.1557(7) 0.1744(3)
H8 H 0.4922 0.1845 0.2041
C14 C 0.7194(7) 0.1098(7) 0.1383(3)
H9 H 0.8008 0.1053 0.1421
C15 C 0.7376(7) 0.0179(6) 0.0388(3)
O5 O 0.8450(5) 0.0171(6) 0.0461(2)
Co4 Co 0.7500 0.2500 0.2500
Co9_3 Co 1.0000 -0.0000 0.5000
O13 O 0.3175(4) 0.0179(5) 0.0047(2)
Co2_6 Co 1.0000 0.0000 1.0000
N9 N 0.9271(5) 0.0495(5) 0.9186(2)
O10 O 0.5171(6) 0.1550(5) 0.9539(2)
Co2_7 Co 1.0000 1.0000 0.0000
C17 C 0.9861(6) 0.8854(7) 0.3747(3)
H10 H 0.9044 0.8843 0.3774
H11 H 0.9922 0.8155 0.2959
Co7_3 Co 1.0000 0.5000 0.0000
Co9_4 Co 1.0000 1.0000 0.5000
Co2_8 Co 1.0000 1.0000 1.0000
O2 O 0.9821(5) 0.8175(4) 0.9953(2)
O6 O 0.6825(4) 0.9821(5) 0.9953(2)
Co7_4 Co 1.0000 0.5000 1.0000
N10 N 0.4505(5) 0.9271(5) 0.9186(2)
C12_2 C 0.0139(6) 0.3854(7) 0.1253(3)
H7_2 H 0.0956 0.3843 0.1226
H8_2 H 0.0078 0.3155 0.2041
O13_2 O 0.1825(4) 0.4821(5) 0.0047(2)
N10_2 N 0.0495(5) 0.5729(5) 0.9186(2)
N5_2 N 0.9505(5) 0.4271(5) 0.0814(2)
N6_2 N 0.8444(6) 0.3440(6) 0.1813(2)
C11_2 C 0.8331(6) 0.4315(6) 0.0882(3)
C13_2 C 0.9607(7) 0.3443(7) 0.1744(3)
C14_2 C 0.7806(7) 0.3902(7) 0.1383(3)
H9_2 H 0.6992 0.3947 0.1421
C15_2 C 0.7624(7) 0.4821(6) 0.0388(3)
O5_2 O 0.6550(5) 0.4829(6) 0.0461(2)
N7_2 N 0.4505(5) 0.5729(5) 0.4186(2)
C16_2 C 0.3331(6) 0.5685(6) 0.4118(3)
C17_2 C 0.5139(6) 0.6146(7) 0.3747(3)
H10_2 H 0.5956 0.6157 0.3774
C18_2 C 0.4607(7) 0.6557(7) 0.3256(3)
H11_2 H 0.5078 0.6845 0.2959
C19_2 C 0.2806(7) 0.6098(7) 0.3617(3)
H12_2 H 0.1992 0.6053 0.3579
C20_2 C 0.2624(7) 0.5179(6) 0.4612(3)
O7_2 O 0.1550(5) 0.5171(6) 0.4539(2)
O8_2 O 0.3175(4) 0.4821(5) 0.5047(2)
Co8_3 Co -0.0000 0.5000 0.5000
Co9_5 Co 0.5000 0.5000 0.5000
O12_2 O 0.4821(5) 0.3175(4) 0.0047(2)
O6_2 O 0.8175(4) 0.5179(5) 0.9953(2)
N9_2 N 0.5729(5) 0.4505(5) 0.9186(2)
O10_2 O 0.9829(6) 0.3450(5) 0.9539(2)
O11_2 O 0.3450(5) 0.5171(6) 0.9539(2)
Co8_4 Co 1.0000 0.5000 0.5000
Cl1_2 Cl 0.90060(17) 0.09940(17) 0.2500
Cl2_2 Cl 0.59940(17) 0.40060(17) 0.2500
N7_3 N 0.5729(5) 0.0495(5) 0.4186(2)
N8_2 N 0.6560(6) 0.1556(6) 0.3187(2)
C16_3 C 0.5685(6) 0.1669(6) 0.4118(3)
C18_3 C 0.6557(7) 0.0393(7) 0.3256(3)
C19_3 C 0.6098(7) 0.2194(7) 0.3617(3)
H12_3 H 0.6053 0.3008 0.3579
C20_3 C 0.5179(6) 0.2376(7) 0.4612(3)
O7_3 O 0.5171(6) 0.3450(5) 0.4539(2)
O8_3 O 0.4821(5) 0.1825(4) 0.5047(2)
N11_2 N 0.8440(6) 0.3444(6) 0.3187(2)
C17_3 C 0.6146(7) 0.9861(6) 0.3747(3)
H10_3 H 0.6157 0.9044 0.3774
H11_3 H 0.6845 0.9922 0.2959
O8_4 O 0.0179(5) 0.3175(4) 0.5047(2)
N7_4 N 0.9271(5) 0.4505(5) 0.4186(2)
C16_4 C 0.9315(6) 0.3331(6) 0.4118(3)
C17_4 C 0.8854(7) 0.5139(6) 0.3747(3)
H10_4 H 0.8843 0.5956 0.3774
C18_4 C 0.8443(7) 0.4607(7) 0.3256(3)
H11_4 H 0.8155 0.5078 0.2959
C19_4 C 0.8902(7) 0.2806(7) 0.3617(3)
H12_4 H 0.8947 0.1992 0.3579
C20_4 C 0.9821(6) 0.2624(7) 0.4612(3)
O7_4 O 0.9829(6) 0.1550(5) 0.4539(2)
N9_3 N 0.0729(5) 0.5495(5) 0.5814(2)
N10_3 N 0.5495(5) 0.4271(5) 0.5814(2)
O10_3 O 0.4829(6) 0.6550(5) 0.5461(2)
O13_3 O 0.6825(4) 0.5179(5) 0.4953(2)
O11_3 O 0.8450(5) 0.4829(6) 0.5461(2)
O12_3 O 0.9821(5) 0.6825(4) 0.4953(2)
O11_4 O 0.6550(5) 0.0171(6) 0.5461(2)
N9_4 N 0.4271(5) 0.9505(5) 0.5814(2)
O10_4 O 0.0171(6) 0.8450(5) 0.5461(2)
O12_4 O 0.5179(5) 0.8175(4) 0.4953(2)
N10_4 N 0.9505(5) 0.0729(5) 0.5814(2)
O13_4 O 0.8175(4) 0.9821(5) 0.4953(2)
C17_5 C 0.0139(6) 0.1146(7) 0.6253(3)
H10_5 H 0.0956 0.1157 0.6226
H11_5 H 0.0078 0.1845 0.7041
N6_3 N 0.3444(6) 0.8440(6) 0.8187(2)
C11_3 C 0.3331(6) 0.9315(6) 0.9118(3)
C12_3 C 0.5139(6) 0.8854(7) 0.8747(3)
H7_3 H 0.5956 0.8843 0.8774
C13_3 C 0.4607(7) 0.8443(7) 0.8256(3)
H8_3 H 0.5078 0.8155 0.7959
C14_3 C 0.2806(7) 0.8902(7) 0.8617(3)
H9_3 H 0.1992 0.8947 0.8579
C15_3 C 0.2624(7) 0.9821(6) 0.9612(3)
Co4_2 Co 0.2500 0.7500 0.7500
Co1_2 Co 0.7500 0.2500 0.7500
Cl1_3 Cl 0.90060(17) 0.40060(17) 0.7500
N2_2 N 0.8440(6) 0.1556(6) 0.8187(2)
C1_2 C 0.9315(6) 0.1669(6) 0.9118(3)
C3_2 C 0.8443(7) 0.0393(7) 0.8256(3)
C4_2 C 0.8902(7) 0.2194(7) 0.8617(3)
H3_2 H 0.8947 0.3008 0.8579
C5_2 C 0.9821(6) 0.2376(7) 0.9612(3)
Cl2_3 Cl 0.59940(17) 0.09940(17) 0.7500
N4_2 N 0.6560(6) 0.3444(6) 0.8187(2)
C6_2 C 0.5685(6) 0.3331(6) 0.9118(3)
C7_2 C 0.6146(7) 0.5139(6) 0.8747(3)
H4_2 H 0.6157 0.5956 0.8774
C8_2 C 0.6557(7) 0.4607(7) 0.8256(3)
H5_2 H 0.6845 0.5078 0.7959
C9_2 C 0.6098(7) 0.2806(7) 0.8617(3)
H6_2 H 0.6053 0.1992 0.8579
C10_2 C 0.5179(6) 0.2624(7) 0.9612(3)
N8_3 N 0.8444(6) 0.1560(6) 0.6813(2)
C16_5 C 0.8331(6) 0.0685(6) 0.5882(3)
C18_5 C 0.9607(7) 0.1557(7) 0.6744(3)
C19_5 C 0.7806(7) 0.1098(7) 0.6383(3)
H12_5 H 0.6992 0.1053 0.6421
C20_5 C 0.7624(7) 0.0179(6) 0.5388(3)
N11_3 N 0.6556(6) 0.3440(6) 0.6813(2)
C2_2 C 0.8854(7) 0.9861(6) 0.8747(3)
H1_2 H 0.8843 0.9044 0.8774
H2_2 H 0.8155 0.9922 0.7959
N6_4 N 0.1556(6) 0.6560(6) 0.8187(2)
C11_4 C 0.1669(6) 0.5685(6) 0.9118(3)
C13_4 C 0.0393(7) 0.6557(7) 0.8256(3)
C14_4 C 0.2194(7) 0.6098(7) 0.8617(3)
H9_4 H 0.3008 0.6053 0.8579
C15_4 C 0.2376(7) 0.5179(6) 0.9612(3)
C16_6 C 0.6669(6) 0.4315(6) 0.5882(3)
C17_6 C 0.4861(6) 0.3854(7) 0.6253(3)
H10_6 H 0.4044 0.3843 0.6226
C18_6 C 0.5393(7) 0.3443(7) 0.6744(3)
H11_6 H 0.4922 0.3155 0.7041
C19_6 C 0.7194(7) 0.3902(7) 0.6383(3)
H12_6 H 0.8008 0.3947 0.6421
C20_6 C 0.7376(7) 0.4821(6) 0.5388(3)
C12_4 C 0.9861(6) 0.6146(7) 0.8747(3)
H7_4 H 0.9044 0.6157 0.8774
H8_4 H 0.9922 0.6845 0.7959
C17_7 C 0.3854(7) 0.0139(6) 0.6253(3)
H10_7 H 0.3843 0.0956 0.6226
H11_7 H 0.3155 0.0078 0.7041
Cl1_4 Cl 0.09940(17) 0.90060(17) 0.7500
Cl2_4 Cl 0.40060(17) 0.59940(17) 0.7500
N8_4 N 0.3440(6) 0.8444(6) 0.6813(2)
C16_7 C 0.4315(6) 0.8331(6) 0.5882(3)
C18_7 C 0.3443(7) 0.9607(7) 0.6744(3)
C19_7 C 0.3902(7) 0.7806(7) 0.6383(3)
H12_7 H 0.3947 0.6992 0.6421
C20_7 C 0.4821(6) 0.7624(7) 0.5388(3)
N11_4 N 0.1560(6) 0.6556(6) 0.6813(2)
C16_8 C 0.0685(6) 0.6669(6) 0.5882(3)
C17_8 C 0.1146(7) 0.4861(6) 0.6253(3)
H10_8 H 0.1157 0.4044 0.6226
C18_8 C 0.1557(7) 0.5393(7) 0.6744(3)
H11_8 H 0.1845 0.4922 0.7041
C19_8 C 0.1098(7) 0.7194(7) 0.6383(3)
H12_8 H 0.1053 0.8008 0.6421
C20_8 C 0.0179(6) 0.7376(7) 0.5388(3)
loop_
_geom_bond_atom_site_label_1
_geom_bond_atom_site_label_2
_geom_bond_site_symmetry_1
_geom_bond_site_symmetry_2
H1 C2 1_555 1_555
O12 Co2 1_555 1_555
O8 Co9 1_555 1_555
Co1 Cl1 1_555 1_555
Co2_3 N1 1_555 1_555
N1 C1 1_555 1_555
N2 Co1 1_555 1_555
C1 C4 1_555 1_555
C3 N2 1_555 1_555
C4 N2 1_555 1_555
H3 C4 1_555 1_555
C5 C1 1_555 1_555
O1 C5 1_555 1_555
Cl2 Co1 1_555 1_555
N3 C6 1_555 1_555
N4 Co1 1_555 1_555
C6 C9 1_555 1_555
C7 N3 1_555 1_555
H4 C7 1_555 1_555
C8 N4 1_555 1_555
H5 C8 1_555 1_555
C9 N4 1_555 1_555
H6 C9 1_555 1_555
C10 C6 1_555 1_555
O3 C10 1_555 1_555
N7 C16 1_555 1_555
N8 Co1 1_555 1_555
C16 C19 1_555 1_555
C18 N8 1_555 1_555
C19 N8 1_555 1_555
H12 C19 1_555 1_555
C20 C16 1_555 1_555
O7 C20 1_555 1_555
Co5 N3 1_555 1_555
Co6_3 O3 1_555 1_555
Co7 O1 1_555 1_555
Co8_2 O7 1_555 1_555
Co9_2 N7 1_555 1_555
N11 Co1 1_555 1_555
C7 C8 1_555 1_555
O11 Co2_4 1_555 1_555
O4 Co5_2 1_555 1_555
Co6 N5 1_555 1_555
N5 C11 1_555 1_555
N6 C13 1_555 1_555
C11 C14 1_555 1_555
C12 N5 1_555 1_555
H7 C12 1_555 1_555
C13 C12 1_555 1_555
H8 C13 1_555 1_555
C14 N6 1_555 1_555
H9 C14 1_555 1_555
C15 C11 1_555 1_555
O5 Co2_5 1_555 1_555
Co4 N6 1_555 1_555
O13 Co6 1_555 1_555
C15 O5 1_555 1_555
N9 Co2_6 1_555 1_555
O10 Co6_2 1_555 1_555
H10 C17 1_555 1_555
O2 Co2_8 1_555 1_555
O6 Co6_4 1_555 1_555
N10 Co6_4 1_555 1_555
H7_2 C12_2 1_555 1_555
O13_2 Co7 1_555 1_555
N10_2 Co7_2 1_555 1_555
Co7_3 N5_2 1_555 1_555
N5_2 C11_2 1_555 1_555
N6_2 C13_2 1_555 1_555
C11_2 C14_2 1_555 1_555
C14_2 N6_2 1_555 1_555
H9_2 C14_2 1_555 1_555
C15_2 C11_2 1_555 1_555
O5_2 Co5 1_555 1_555
N7_2 C16_2 1_555 1_555
C16_2 C19_2 1_555 1_555
C17_2 N7_2 1_555 1_555
H10_2 C17_2 1_555 1_555
C18_2 N11 1_555 1_555
H11_2 C18_2 1_555 1_555
C19_2 N11 1_555 1_555
H12_2 C19_2 1_555 1_555
C20_2 C16_2 1_555 1_555
O7_2 C20_2 1_555 1_555
O8_2 C20_2 1_555 1_555
Co4 N6_2 1_555 1_555
Co8_3 O7_2 1_555 1_555
Co9_5 N7_2 1_555 1_555
O12_2 Co5 1_555 1_555
C15_2 O5_2 1_555 1_555
C17_2 C18_2 1_555 1_555
O8_2 Co9_5 1_555 1_555
O6_2 Co7_4 1_555 1_555
N9_2 Co5_2 1_555 1_555
O10_2 Co7_4 1_555 1_555
O11_2 Co5_2 1_555 1_555
Co4 Cl1_2 1_555 1_555
Cl2_2 Co4 1_555 1_555
N7_3 C16_3 1_555 1_555
N8_2 Co4 1_555 1_555
C16_3 C19_3 1_555 1_555
C18_3 N8_2 1_555 1_555
C19_3 N8_2 1_555 1_555
H12_3 C19_3 1_555 1_555
C20_3 C16_3 1_555 1_555
O7_3 C20_3 1_555 1_555
O8_3 C20_3 1_555 1_555
Co9_5 O7_3 1_555 1_555
Co8 N7_3 1_555 1_555
N11_2 Co4 1_555 1_555
O8_3 Co8 1_555 1_555
H10_3 C17_3 1_555 1_555
O8_4 Co8_3 1_555 1_555
N7_4 C16_4 1_555 1_555
C16_4 C19_4 1_555 1_555
C17_4 N7_4 1_555 1_555
H10_4 C17_4 1_555 1_555
C18_4 N11_2 1_555 1_555
H11_4 C18_4 1_555 1_555
C19_4 N11_2 1_555 1_555
H12_4 C19_4 1_555 1_555
C20_4 C16_4 1_555 1_555
O7_4 C20_4 1_555 1_555
Co9_3 O7_4 1_555 1_555
Co8_4 N7_4 1_555 1_555
C17_4 C18_4 1_555 1_555
N9_3 Co8_3 1_555 1_555
N10_3 Co9_5 1_555 1_555
O10_3 Co9_5 1_555 1_555
O13_3 Co9_5 1_555 1_555
O11_3 Co8_4 1_555 1_555
O12_3 Co8_4 1_555 1_555
O11_4 Co8 1_555 1_555
N9_4 Co8_2 1_555 1_555
O10_4 Co9_2 1_555 1_555
O12_4 Co8_2 1_555 1_555
N10_4 Co9_3 1_555 1_555
O13_4 Co9_4 1_555 1_555
H10_5 C17_5 1_555 1_555
N10 C11_3 1_555 1_555
N6_3 C13_3 1_555 1_555
C11_3 C14_3 1_555 1_555
C12_3 N10 1_555 1_555
H7_3 C12_3 1_555 1_555
C13_3 C12_3 1_555 1_555
H8_3 C13_3 1_555 1_555
C14_3 N6_3 1_555 1_555
H9_3 C14_3 1_555 1_555
C15_3 C11_3 1_555 1_555
Co4_2 N6_3 1_555 1_555
C15_3 O11 1_555 1_555
Co1_2 Cl1_3 1_555 1_555
N9 C1_2 1_555 1_555
N2_2 Co1_2 1_555 1_555
C1_2 C4_2 1_555 1_555
C3_2 N2_2 1_555 1_555
C4_2 N2_2 1_555 1_555
H3_2 C4_2 1_555 1_555
C5_2 C1_2 1_555 1_555
O10_2 C5_2 1_555 1_555
Cl2_3 Co1_2 1_555 1_555
N9_2 C6_2 1_555 1_555
N4_2 Co1_2 1_555 1_555
C6_2 C9_2 1_555 1_555
C7_2 N9_2 1_555 1_555
H4_2 C7_2 1_555 1_555
C8_2 N4_2 1_555 1_555
H5_2 C8_2 1_555 1_555
C9_2 N4_2 1_555 1_555
H6_2 C9_2 1_555 1_555
C10_2 C6_2 1_555 1_555
O10 C10_2 1_555 1_555
N10_4 C16_5 1_555 1_555
N8_3 Co1_2 1_555 1_555
C16_5 C19_5 1_555 1_555
C18_5 N8_3 1_555 1_555
C19_5 N8_3 1_555 1_555
H12_5 C19_5 1_555 1_555
C20_5 C16_5 1_555 1_555
O11_4 C20_5 1_555 1_555
N11_3 Co1_2 1_555 1_555
C7_2 C8_2 1_555 1_555
H1_2 C2_2 1_555 1_555
N10_2 C11_4 1_555 1_555
N6_4 C13_4 1_555 1_555
C11_4 C14_4 1_555 1_555
C14_4 N6_4 1_555 1_555
H9_4 C14_4 1_555 1_555
C15_4 C11_4 1_555 1_555
N10_3 C16_6 1_555 1_555
C16_6 C19_6 1_555 1_555
C17_6 N10_3 1_555 1_555
H10_6 C17_6 1_555 1_555
C18_6 N11_3 1_555 1_555
H11_6 C18_6 1_555 1_555
C19_6 N11_3 1_555 1_555
H12_6 C19_6 1_555 1_555
C20_6 C16_6 1_555 1_555
O11_3 C20_6 1_555 1_555
O13_3 C20_6 1_555 1_555
Co4_2 N6_4 1_555 1_555
C15_4 O11_2 1_555 1_555
C17_6 C18_6 1_555 1_555
H7_4 C12_4 1_555 1_555
H10_7 C17_7 1_555 1_555
Co4_2 Cl1_4 1_555 1_555
Cl2_4 Co4_2 1_555 1_555
N9_4 C16_7 1_555 1_555
N8_4 Co4_2 1_555 1_555
C16_7 C19_7 1_555 1_555
C18_7 N8_4 1_555 1_555
C19_7 N8_4 1_555 1_555
H12_7 C19_7 1_555 1_555
C20_7 C16_7 1_555 1_555
O10_3 C20_7 1_555 1_555
O12_4 C20_7 1_555 1_555
N11_4 Co4_2 1_555 1_555
N9_3 C16_8 1_555 1_555
C16_8 C19_8 1_555 1_555
C17_8 N9_3 1_555 1_555
H10_8 C17_8 1_555 1_555
C18_8 N11_4 1_555 1_555
H11_8 C18_8 1_555 1_555
C19_8 N11_4 1_555 1_555
H12_8 C19_8 1_555 1_555
C20_8 C16_8 1_555 1_555
O10_4 C20_8 1_555 1_555
C17_8 C18_8 1_555 1_555

#END
