
###############################################################################
#
# This file contains modified crystal structure data generated from the
# MOF subset of the Cambridge Structural Database (CSD) v543 
# hosted by the Cambridge Crystallographic Data Centre (CCDC).
#
# This work is licensed under the Creative Commons
# Attribution-NonCommercial-ShareAlike 4.0 International License.
# To view a copy of this license, visit
# http://creativecommons.org/licenses/by-nc-sa/4.0/
# or send a letter to
# Creative Commons, PO Box 1866, Mountain View, CA 94042, USA.
#
# CIF created using the CSD Python API on 29 September 2022
# The structure has been converted into the P1 space group
# The structure has a 3D framework
# The original CSD entry YOZRUC is in the orthorhombic crystal system
# The original CSD entry YOZRUC is in a Sohncke space group
# The framework has been calculated to contain at least 10.0% void space
# The void calculation uses a probe of radius 1.32A, grid spacing 0.4
#
###############################################################################

data_YOZRUC
_chemical_formula_moiety         '(C24 H16 Co4 N8 O12)n'
_symmetry_cell_setting           triclinic
_symmetry_space_group_name_H-M   'P 1'
_symmetry_Int_Tables_number      1
_space_group_name_Hall           'P 1'
loop_
_symmetry_equiv_pos_site_id
_symmetry_equiv_pos_as_xyz
1 x,y,z
_cell_length_a                   8.9978(18)
_cell_length_b                   9.4638(19)
_cell_length_c                   10.433(2)
_cell_angle_alpha                90
_cell_angle_beta                 90
_cell_angle_gamma                90
_cell_volume                     888.405
loop_
_atom_site_label
_atom_site_type_symbol
_atom_site_fract_x
_atom_site_fract_y
_atom_site_fract_z
O3 O 0.1525(6) 0.3472(6) 0.4431(4)
O4 O 0.2805(6) 0.4795(6) 0.5811(5)
N1 N 0.1281(7) 0.3856(6) 0.7770(6)
C2 C 0.1834(9) 0.3905(8) 0.5527(6)
C3 C 0.0962(9) 0.3332(9) 0.6638(7)
C6 C 0.0521(10) 0.3359(9) 0.8794(7)
H4 H 0.0776 0.3657 0.9615
Co2 Co 0.20432(10) 0.44728(10) 0.26901(9)
Co4 Co 0.29568(10) 0.55272(10) 0.76901(9)
Co1 Co 0.70432(10) 0.05272(10) 0.73099(9)
N2 N 0.8987(7) 0.1883(6) 0.7477(6)
C4 C 0.9777(9) 0.2354(9) 0.6469(7)
H2 H 0.9545 0.2035 0.5650
C5 C 0.9371(11) 0.2415(9) 0.8629(7)
H3 H 0.8834 0.2131 0.9346
O5 O 0.5849(7) 0.2165(6) 0.8152(5)
O6 O 0.6525(6) 0.1528(6) 0.5569(4)
O1 O 0.5397(7) 0.9155(6) 0.6795(6)
O2 O 0.4151(7) 0.7165(6) 0.6848(5)
C1 C 0.5057(9) 0.8014(8) 0.7259(7)
H1 H 0.5543 0.7763 0.8012
O7 O 0.7195(6) 0.9795(6) 0.9189(5)
N3 N 0.8719(7) 0.8856(6) 0.7230(6)
O2_2 O 0.0849(7) 0.2835(6) 0.1848(5)
O1_2 O 0.9603(7) 0.0845(6) 0.1795(6)
C1_2 C 0.9943(9) 0.1986(8) 0.2259(7)
H1_2 H 0.9457 0.2237 0.3012
O7_2 O 0.7805(6) 0.0205(6) 0.4189(5)
N3_2 N 0.6281(7) 0.1144(6) 0.2230(6)
Co1_2 Co 0.79568(10) 0.94728(10) 0.23099(9)
O4_2 O 0.2195(6) 0.5205(6) 0.0811(5)
N1_2 N 0.3719(7) 0.6144(6) 0.2770(6)
N2_2 N 0.6013(7) 0.8117(6) 0.2477(6)
C2_2 C 0.3166(9) 0.6095(8) 0.0527(6)
C3_2 C 0.4038(9) 0.6668(9) 0.1638(7)
C4_2 C 0.5223(9) 0.7646(9) 0.1469(7)
H2_2 H 0.5455 0.7965 0.0650
C5_2 C 0.5629(11) 0.7585(9) 0.3629(7)
H3_2 H 0.6166 0.7869 0.4346
C6_2 C 0.4479(10) 0.6641(9) 0.3794(7)
H4_2 H 0.4224 0.6343 0.4615
O5_2 O 0.9151(7) 0.7835(6) 0.3152(5)
O6_2 O 0.8475(6) 0.8472(6) 0.0569(4)
O3_2 O 0.3475(6) 0.6528(6) 0.9431(4)
O1_3 O 0.0397(7) 0.5845(6) 0.3205(6)
N2_3 N 0.3987(7) 0.3117(6) 0.2523(6)
C1_3 C 0.0057(9) 0.6986(8) 0.2741(7)
H1_3 H 0.0543 0.7237 0.1988
C2_3 C 0.6834(9) 0.1095(8) 0.4473(6)
C3_3 C 0.5962(9) 0.1668(9) 0.3362(7)
C4_3 C 0.4777(9) 0.2646(9) 0.3531(7)
H2_3 H 0.4545 0.2965 0.4350
C5_3 C 0.4371(11) 0.2585(9) 0.1371(7)
H3_3 H 0.3834 0.2869 0.0654
C6_3 C 0.5521(10) 0.1641(9) 0.1206(7)
H4_3 H 0.5776 0.1343 0.0385
O1_4 O 0.4603(7) 0.4155(6) 0.8205(6)
N2_4 N 0.1013(7) 0.6883(6) 0.7523(6)
C1_4 C 0.4943(9) 0.3014(8) 0.7741(7)
H1_4 H 0.4457 0.2763 0.6988
C4_4 C 0.0223(9) 0.7354(9) 0.8531(7)
H2_4 H 0.0455 0.7035 0.9350
C5_4 C 0.0629(11) 0.7415(9) 0.6371(7)
H3_4 H 0.1166 0.7131 0.5654
C2_4 C 0.8166(9) 0.8905(8) 0.9473(6)
C3_4 C 0.9038(9) 0.8332(9) 0.8362(7)
C6_4 C 0.9479(10) 0.8359(9) 0.6206(7)
H4_4 H 0.9224 0.8657 0.5385
loop_
_geom_bond_atom_site_label_1
_geom_bond_atom_site_label_2
_geom_bond_site_symmetry_1
_geom_bond_site_symmetry_2
O3 C2 1_555 1_555
O4 C2 1_555 1_555
N1 C3 1_555 1_555
C2 C3 1_555 1_555
C6 N1 1_555 1_555
H4 C6 1_555 1_555
Co2 O3 1_555 1_555
Co4 O4 1_555 1_555
N1 Co4 1_555 1_555
N2 Co1 1_555 1_555
C4 N2 1_555 1_555
H2 C4 1_555 1_555
C5 N2 1_555 1_555
H3 C5 1_555 1_555
O5 Co1 1_555 1_555
O6 Co1 1_555 1_555
O1 C1 1_555 1_555
O2 C1 1_555 1_555
C1 H1 1_555 1_555
Co4 O2 1_555 1_555
Co2 O2_2 1_555 1_555
O1_2 C1_2 1_555 1_555
C1_2 H1_2 1_555 1_555
O4_2 C2_2 1_555 1_555
N1_2 C3_2 1_555 1_555
N2_2 Co1_2 1_555 1_555
C2_2 C3_2 1_555 1_555
C3_2 C4_2 1_555 1_555
C4_2 N2_2 1_555 1_555
H2_2 C4_2 1_555 1_555
C5_2 N2_2 1_555 1_555
H3_2 C5_2 1_555 1_555
C6_2 N1_2 1_555 1_555
H4_2 C6_2 1_555 1_555
Co2 O4_2 1_555 1_555
O5_2 Co1_2 1_555 1_555
O6_2 Co1_2 1_555 1_555
N1_2 Co2 1_555 1_555
C5_2 C6_2 1_555 1_555
Co4 O3_2 1_555 1_555
Co2 O1_3 1_555 1_555
O1_3 C1_3 1_555 1_555
O6 C2_3 1_555 1_555
O7_2 C2_3 1_555 1_555
N3_2 C3_3 1_555 1_555
N2_3 Co2 1_555 1_555
C1_3 H1_3 1_555 1_555
C2_3 C3_3 1_555 1_555
C3_3 C4_3 1_555 1_555
C4_3 N2_3 1_555 1_555
H2_3 C4_3 1_555 1_555
C5_3 N2_3 1_555 1_555
H3_3 C5_3 1_555 1_555
C6_3 N3_2 1_555 1_555
H4_3 C6_3 1_555 1_555
C5_3 C6_3 1_555 1_555
Co4 O1_4 1_555 1_555
O1_4 C1_4 1_555 1_555
O5 C1_4 1_555 1_555
N2_4 Co4 1_555 1_555
C1_4 H1_4 1_555 1_555
C4_4 N2_4 1_555 1_555
H2_4 C4_4 1_555 1_555
C5_4 N2_4 1_555 1_555
H3_4 C5_4 1_555 1_555
O7 C2_4 1_555 1_555
N3 C3_4 1_555 1_555
C2_4 C3_4 1_555 1_555
C6_4 N3 1_555 1_555
H4_4 C6_4 1_555 1_555

#END
