
###############################################################################
#
# This file contains modified crystal structure data generated from the
# MOF subset of the Cambridge Structural Database (CSD) v543 
# hosted by the Cambridge Crystallographic Data Centre (CCDC).
#
# This work is licensed under the Creative Commons
# Attribution-NonCommercial-ShareAlike 4.0 International License.
# To view a copy of this license, visit
# http://creativecommons.org/licenses/by-nc-sa/4.0/
# or send a letter to
# Creative Commons, PO Box 1866, Mountain View, CA 94042, USA.
#
# CIF created using the CSD Python API on 29 September 2022
# The structure has been converted into the P1 space group
# The structure has a 3D framework
# The original CSD entry YOZSAJ is in the orthorhombic crystal system
# The original CSD entry YOZSAJ is in a Sohncke space group
# The framework has been calculated to contain at least 10.0% void space
# The void calculation uses a probe of radius 1.32A, grid spacing 0.4
#
###############################################################################

data_YOZSAJ
_chemical_formula_moiety         '(C24 H16 Co2 N8 O14)n'
_symmetry_cell_setting           triclinic
_symmetry_space_group_name_H-M   'P 1'
_symmetry_Int_Tables_number      1
_space_group_name_Hall           'P 1'
loop_
_symmetry_equiv_pos_site_id
_symmetry_equiv_pos_as_xyz
1 x,y,z
_cell_length_a                   8.9199(18)
_cell_length_b                   9.4566(19)
_cell_length_c                   10.414(2)
_cell_angle_alpha                90
_cell_angle_beta                 90
_cell_angle_gamma                90
_cell_volume                     878.441
loop_
_atom_site_label
_atom_site_type_symbol
_atom_site_fract_x
_atom_site_fract_y
_atom_site_fract_z
O2 O 0.0470(11) 0.1902(10) 0.3057(8)
C1 C 0.0048(14) 0.3063(12) 0.2770(12)
H1 H 0.0373 0.3353 0.1964
Co4 Co 0.20244(14) 0.05381(14) 0.22601(13)
Co1 Co 0.79756(14) 0.55381(14) 0.27399(13)
O1 O 0.9313(11) 0.3905(9) 0.3296(9)
O3 O 0.7785(8) 0.4806(7) 0.0846(7)
N1 N 0.6136(10) 0.3995(9) 0.2790(10)
N2 N 0.3814(11) 0.2085(11) 0.2488(10)
C2 C 0.6756(11) 0.3978(11) 0.0582(9)
C3 C 0.5815(13) 0.3451(13) 0.1704(10)
C4 C 0.4615(15) 0.2514(12) 0.1505(11)
H2 H 0.4390 0.2200 0.0681
C5 C 0.4118(15) 0.2611(13) 0.3647(10)
H3 H 0.3540 0.2328 0.4345
C6 C 0.5277(15) 0.3571(15) 0.3840(11)
H4 H 0.5476 0.3925 0.4656
O5 O 0.9530(11) 0.6902(10) 0.1943(8)
O6 O 0.8559(9) 0.6469(8) 0.4482(7)
N3 N 0.6186(11) 0.7085(11) 0.2512(10)
O4 O 0.6441(9) 0.3531(8) 0.9482(7)
Co2 Co 0.70244(14) 0.44619(14) 0.77399(13)
N2_2 N 0.1186(11) 0.7915(11) 0.7488(10)
C4_2 C 0.0385(15) 0.7486(12) 0.6505(11)
H2_2 H 0.0610 0.7800 0.5681
C5_2 C 0.0882(15) 0.7389(13) 0.8647(10)
H3_2 H 0.1460 0.7672 0.9345
Co3 Co 0.29756(14) 0.94619(14) 0.72601(13)
O1_2 O 0.5687(11) 0.6095(9) 0.8296(9)
O2_2 O 0.4530(11) 0.8098(10) 0.8057(8)
O3_2 O 0.7215(8) 0.5194(7) 0.5846(7)
N1_2 N 0.8864(10) 0.6005(9) 0.7790(10)
C1_2 C 0.4952(14) 0.6937(12) 0.7770(12)
H1_2 H 0.4627 0.6647 0.6964
C2_2 C 0.8244(11) 0.6022(11) 0.5582(9)
C3_2 C 0.9185(13) 0.6549(13) 0.6704(10)
C6_2 C 0.9723(15) 0.6429(15) 0.8840(11)
H4_2 H 0.9524 0.6075 0.9656
O5_2 O 0.5470(11) 0.3098(10) 0.6943(8)
N3_2 N 0.8814(11) 0.2915(11) 0.7512(10)
O4_2 O 0.1441(9) 0.1469(8) 0.0518(7)
O1_3 O 0.4313(11) 0.1095(9) 0.6704(9)
O3_3 O 0.2785(8) 0.0194(7) 0.9154(7)
N1_3 N 0.1136(10) 0.1005(9) 0.7210(10)
C1_3 C 0.5048(14) 0.1937(12) 0.7230(12)
H1_3 H 0.5373 0.1647 0.8036
C2_3 C 0.1756(11) 0.1022(11) 0.9418(9)
C3_3 C 0.0815(13) 0.1549(13) 0.8296(10)
C6_3 C 0.0277(15) 0.1429(15) 0.6160(11)
H4_3 H 0.0476 0.1075 0.5344
O6_2 O 0.3559(9) 0.8531(8) 0.5518(7)
C4_3 C 0.9615(15) 0.2486(12) 0.8495(11)
H2_3 H 0.9390 0.2800 0.9319
C5_3 C 0.9118(15) 0.2389(13) 0.6353(10)
H3_3 H 0.8540 0.2672 0.5655
O1_4 O 0.0687(11) 0.8905(9) 0.1704(9)
O3_4 O 0.2215(8) 0.9806(7) 0.4154(7)
N1_4 N 0.3864(10) 0.8995(9) 0.2210(10)
C2_4 C 0.3244(11) 0.8978(11) 0.4418(9)
C3_4 C 0.4185(13) 0.8451(13) 0.3296(10)
C4_4 C 0.5385(15) 0.7514(12) 0.3495(11)
H2_4 H 0.5610 0.7200 0.4319
C5_4 C 0.5882(15) 0.7611(13) 0.1353(10)
H3_4 H 0.6460 0.7328 0.0655
C6_4 C 0.4723(15) 0.8571(15) 0.1160(11)
H4_4 H 0.4524 0.8925 0.0344
C1_4 C 0.9952(14) 0.8063(12) 0.2230(12)
H1_4 H 0.9627 0.8353 0.3036
loop_
_geom_bond_atom_site_label_1
_geom_bond_atom_site_label_2
_geom_bond_site_symmetry_1
_geom_bond_site_symmetry_2
O2 C1 1_555 1_555
C1 H1 1_555 1_555
Co4 O2 1_555 1_555
Co1 O1 1_555 1_555
O3 Co1 1_555 1_555
N1 Co1 1_555 1_555
N2 C4 1_555 1_555
C2 O3 1_555 1_555
C3 N1 1_555 1_555
C4 C3 1_555 1_555
H2 C4 1_555 1_555
C5 N2 1_555 1_555
H3 C5 1_555 1_555
C6 N1 1_555 1_555
H4 C6 1_555 1_555
Co4 N2 1_555 1_555
O5 Co1 1_555 1_555
O6 Co1 1_555 1_555
N3 Co1 1_555 1_555
C2 C3 1_555 1_555
C5 C6 1_555 1_555
Co2 O4 1_555 1_555
N2_2 C4_2 1_555 1_555
H2_2 C4_2 1_555 1_555
C5_2 N2_2 1_555 1_555
H3_2 C5_2 1_555 1_555
Co3 N2_2 1_555 1_555
Co2 O1_2 1_555 1_555
O1_2 C1_2 1_555 1_555
O2_2 C1_2 1_555 1_555
O3_2 Co2 1_555 1_555
O6 C2_2 1_555 1_555
N1_2 Co2 1_555 1_555
C1_2 H1_2 1_555 1_555
C2_2 O3_2 1_555 1_555
C3_2 N1_2 1_555 1_555
C6_2 N1_2 1_555 1_555
H4_2 C6_2 1_555 1_555
Co3 O2_2 1_555 1_555
O5_2 Co2 1_555 1_555
N3_2 Co2 1_555 1_555
C2_2 C3_2 1_555 1_555
Co4 O4_2 1_555 1_555
O1_3 C1_3 1_555 1_555
O5_2 C1_3 1_555 1_555
C1_3 H1_3 1_555 1_555
C2_3 O3_3 1_555 1_555
C3_3 N1_3 1_555 1_555
C6_3 N1_3 1_555 1_555
H4_3 C6_3 1_555 1_555
C2_3 C3_3 1_555 1_555
O6_2 Co3 1_555 1_555
N3_2 C4_3 1_555 1_555
H2_3 C4_3 1_555 1_555
C5_3 N3_2 1_555 1_555
H3_3 C5_3 1_555 1_555
O6_2 C2_4 1_555 1_555
N3 C4_4 1_555 1_555
C2_4 O3_4 1_555 1_555
C3_4 N1_4 1_555 1_555
C4_4 C3_4 1_555 1_555
H2_4 C4_4 1_555 1_555
C5_4 N3 1_555 1_555
H3_4 C5_4 1_555 1_555
C6_4 N1_4 1_555 1_555
H4_4 C6_4 1_555 1_555
C2_4 C3_4 1_555 1_555
C5_4 C6_4 1_555 1_555
O5 C1_4 1_555 1_555
C1_4 H1_4 1_555 1_555

#END
