
###############################################################################
#
# This file contains modified crystal structure data generated from the
# MOF subset of the Cambridge Structural Database (CSD) v543 
# hosted by the Cambridge Crystallographic Data Centre (CCDC).
#
# This work is licensed under the Creative Commons
# Attribution-NonCommercial-ShareAlike 4.0 International License.
# To view a copy of this license, visit
# http://creativecommons.org/licenses/by-nc-sa/4.0/
# or send a letter to
# Creative Commons, PO Box 1866, Mountain View, CA 94042, USA.
#
# CIF created using the CSD Python API on 29 September 2022
# The structure has been converted into the P1 space group
# The structure has a 3D framework
# The original CSD entry YOZYOD is in the monoclinic crystal system
# The framework has been calculated to contain at least 10.0% void space
# The void calculation uses a probe of radius 1.32A, grid spacing 0.4
#
###############################################################################

data_YOZYOD
_chemical_formula_moiety         '(C152 H112 N8 O72 Zn14)n'
_symmetry_cell_setting           triclinic
_symmetry_space_group_name_H-M   'P 1'
_symmetry_Int_Tables_number      1
_space_group_name_Hall           'P 1'
loop_
_symmetry_equiv_pos_site_id
_symmetry_equiv_pos_as_xyz
1 x,y,z
_cell_length_a                   16.646(6)
_cell_length_b                   18.345(7)
_cell_length_c                   16.309(6)
_cell_angle_alpha                90
_cell_angle_beta                 108.893(4)
_cell_angle_gamma                90
_cell_volume                     4711.98
loop_
_atom_site_label
_atom_site_type_symbol
_atom_site_fract_x
_atom_site_fract_y
_atom_site_fract_z
O26 O 0.0436(2) 0.0770(2) 0.1766(2)
Zn7 Zn 0.05950(3) 0.86228(3) 0.86451(4)
Zn3 Zn 0.94050(3) 0.13772(3) 0.13549(4)
O10 O 0.9031(2) 0.09731(19) 0.0188(2)
Zn10 Zn 0.7500 0.2500 -0.0000
O20 O 0.9895(2) 0.23439(19) 0.1503(3)
O23 O 0.8642(2) 0.09608(19) 0.1915(2)
Zn1 Zn 0.05950(3) 0.13772(3) 0.36451(4)
Zn2 Zn 0.2500 0.2500 0.5000
O1 O 0.0969(2) 0.09731(19) 0.4812(2)
O2 O 0.2264(2) 0.14091(17) 0.5046(2)
O3 O 0.5105(2) 0.26561(19) 0.8497(3)
O4 O 0.6217(3) 0.2248(2) 0.9492(4)
C1 C 0.1745(3) 0.1052(2) 0.5274(3)
C2 C 0.2015(3) 0.0682(3) 0.6141(3)
C3 C 0.2816(3) 0.0820(3) 0.6721(3)
H2 H 0.3174 0.1147 0.6574
C4 C 0.3092(3) 0.0470(3) 0.7533(3)
C7 C 0.1488(3) 0.0188(3) 0.6342(3)
H4 H 0.0961 0.0085 0.5940
C9 C 0.3974(3) 0.0593(3) 0.8126(3)
C10 C 0.4338(3) 0.1285(3) 0.8240(3)
H5 H 0.4033 0.1676 0.7927
C11 C 0.5151(3) 0.1400(3) 0.8813(3)
C12 C 0.5634(3) 0.0811(3) 0.9232(3)
H6 H 0.6180 0.0884 0.9614
C13 C 0.5302(3) 0.0114(3) 0.9079(3)
C14 C 0.4473(3) 0.0017(3) 0.8553(4)
C15 C 0.5528(3) 0.2156(3) 0.8938(4)
N1 N 0.2009(4) 0.2941(3) 0.7362(4)
O9 O 0.2488(4) 0.2615(3) 0.6297(4)
C17 C 0.1968(5) 0.2862(4) 0.6494(9)
H8 H 0.1484 0.3024 0.6063
C18 C 0.2762(7) 0.2826(6) 0.8069(6)
H9 H 0.2753 0.2347 0.8301
H10 H 0.2798 0.3183 0.8510
H11 H 0.3246 0.2872 0.7874
C19 C 0.1278(6) 0.3208(6) 0.7567(7)
H12 H 0.1443 0.3616 0.7955
H13 H 0.1059 0.2828 0.7839
H14 H 0.0847 0.3359 0.7044
O11 O 0.7736(2) 0.14091(17) 0.9954(2)
O12 O 0.4895(2) 0.26561(19) 0.6503(3)
O13 O 0.3783(3) 0.2248(2) 0.5508(4)
C20 C 0.8255(3) 0.1052(2) 0.9726(3)
C21 C 0.7985(3) 0.0682(3) 0.8859(3)
C22 C 0.7184(3) 0.0820(3) 0.8279(3)
H16 H 0.6826 0.1147 0.8426
C23 C 0.6908(3) 0.0470(3) 0.7467(3)
C26 C 0.8512(3) 0.0188(3) 0.8658(3)
H18 H 0.9039 0.0085 0.9060
C28 C 0.6026(3) 0.0593(3) 0.6874(3)
C29 C 0.5662(3) 0.1285(3) 0.6760(3)
H19 H 0.5967 0.1676 0.7073
C30 C 0.4849(3) 0.1400(3) 0.6187(3)
C31 C 0.4366(3) 0.0811(3) 0.5768(3)
H20 H 0.3820 0.0884 0.5386
C32 C 0.4698(3) 0.0114(3) 0.5921(3)
C33 C 0.5527(3) 0.0017(3) 0.6447(4)
C34 C 0.4472(3) 0.2156(3) 0.6062(4)
N2 N 0.2991(4) 0.2059(3) 0.2638(4)
O18 O 0.2512(4) 0.2385(3) 0.3703(4)
C36 C 0.3032(5) 0.2138(4) 0.3506(9)
H22 H 0.3516 0.1976 0.3937
C37 C 0.2238(7) 0.2174(6) 0.1931(6)
H23 H 0.2247 0.2653 0.1699
H24 H 0.2202 0.1817 0.1490
H25 H 0.1754 0.2128 0.2126
C38 C 0.3722(6) 0.1792(6) 0.2433(7)
H26 H 0.3557 0.1384 0.2045
H27 H 0.3941 0.2172 0.2161
H28 H 0.4153 0.1641 0.2956
Zn8 Zn 0.44050(3) 0.36228(3) 0.63549(4)
Zn9 Zn 0.55950(3) 0.36228(3) 0.86451(4)
Zn10_2 Zn 0.7500 0.2500 1.0000
O19 O 0.2736(2) 0.35909(17) 0.4954(2)
O21 O 0.0105(2) 0.23439(19) 0.3497(3)
O22 O 0.1217(3) 0.2752(2) 0.4492(4)
O24 O 0.1358(2) 0.09608(19) 0.3085(2)
O5 O 0.6587(3) 0.9596(2) 0.9950(3)
O6 O 0.5535(3) 0.8839(2) 0.9272(3)
O7 O 0.1358(2) 0.90392(19) 0.8085(2)
O8 O 0.0436(2) 0.9230(2) 0.6766(2)
C5 C 0.2536(3) 0.9975(3) 0.7741(3)
H3 H 0.2702 0.9740 0.8275
C6 C 0.1737(3) 0.9842(3) 0.7143(3)
C8 C 0.1128(3) 0.9332(3) 0.7353(3)
H7 H 0.4242 0.9550 0.8484
C16 C 0.5812(3) 0.9455(3) 0.9444(4)
O14 O 0.3413(3) 0.9596(2) 0.5050(3)
H15 H 0.3141 0.9215 0.4937
O15 O 0.4465(3) 0.8839(2) 0.5728(3)
O16 O 0.8642(2) 0.90392(19) 0.6915(2)
O17 O 0.9564(2) 0.9230(2) 0.8234(2)
C24 C 0.7464(3) 0.9975(3) 0.7259(3)
H17 H 0.7298 0.9740 0.6725
C25 C 0.8263(3) 0.9842(3) 0.7857(3)
C27 C 0.8872(3) 0.9332(3) 0.7647(3)
H21 H 0.5758 0.9550 0.6516
C35 C 0.4188(3) 0.9455(3) 0.5556(4)
Zn5 Zn 0.94050(3) 0.86228(3) 0.63549(4)
O25 O 0.9564(2) 0.0770(2) 0.3234(2)
N2_2 N 0.7009(4) 0.2059(3) 0.2362(4)
O18_2 O 0.7488(4) 0.2385(3) 0.1297(4)
C36_2 C 0.6968(5) 0.2138(4) 0.1494(9)
H22_2 H 0.6484 0.1976 0.1063
C37_2 C 0.7762(7) 0.2174(6) 0.3069(6)
H23_2 H 0.7753 0.2653 0.3301
H24_2 H 0.7798 0.1817 0.3510
H25_2 H 0.8246 0.2128 0.2874
C38_2 C 0.6278(6) 0.1792(6) 0.2567(7)
H26_2 H 0.6443 0.1384 0.2955
H27_2 H 0.6059 0.2172 0.2839
H28_2 H 0.5847 0.1641 0.2044
O19_2 O 0.7264(2) 0.35909(17) 0.0046(2)
O22_2 O 0.8783(3) 0.2752(2) 0.0508(4)
N1_2 N 0.7991(4) 0.2941(3) 0.7638(4)
O9_2 O 0.7512(4) 0.2615(3) 0.8703(4)
C17_2 C 0.8032(5) 0.2862(4) 0.8506(9)
H8_2 H 0.8516 0.3024 0.8937
C18_2 C 0.7238(7) 0.2826(6) 0.6931(6)
H9_2 H 0.7247 0.2347 0.6699
H10_2 H 0.7202 0.3183 0.6490
H11_2 H 0.6754 0.2872 0.7126
C19_2 C 0.8722(6) 0.3208(6) 0.7433(7)
H12_2 H 0.8557 0.3616 0.7045
H13_2 H 0.8941 0.2828 0.7161
H14_2 H 0.9153 0.3359 0.7956
H1 H 0.1859 0.4215 0.0063
Zn3_2 Zn 0.44050(3) 0.63772(3) 0.13549(4)
O10_2 O 0.4031(2) 0.59731(19) 0.0188(2)
Zn10_3 Zn 0.2500 0.7500 -0.0000
O20_2 O 0.4895(2) 0.73439(19) 0.1503(3)
O23_2 O 0.3642(2) 0.59608(19) 0.1915(2)
O26_2 O 0.5436(2) 0.5770(2) 0.1766(2)
O3_2 O 0.0105(2) 0.76561(19) 0.8497(3)
O4_2 O 0.1217(3) 0.7248(2) 0.9492(4)
O5_2 O 0.1587(3) 0.4596(2) 0.9950(3)
O6_2 O 0.0535(3) 0.3839(2) 0.9272(3)
C11_2 C 0.0151(3) 0.6400(3) 0.8813(3)
C12_2 C 0.0634(3) 0.5811(3) 0.9232(3)
H6_2 H 0.1180 0.5884 0.9614
C13_2 C 0.0302(3) 0.5114(3) 0.9079(3)
C15_2 C 0.0528(3) 0.7156(3) 0.8938(4)
C16_2 C 0.0812(3) 0.4455(3) 0.9444(4)
O11_2 O 0.2736(2) 0.64091(17) 0.9954(2)
O16_2 O 0.3642(2) 0.40392(19) 0.6915(2)
O17_2 O 0.4564(2) 0.4230(2) 0.8234(2)
C20_2 C 0.3255(3) 0.6052(2) 0.9726(3)
C21_2 C 0.2985(3) 0.5682(3) 0.8859(3)
C22_2 C 0.2184(3) 0.5820(3) 0.8279(3)
H16_2 H 0.1826 0.6147 0.8426
C23_2 C 0.1908(3) 0.5470(3) 0.7467(3)
C24_2 C 0.2464(3) 0.4975(3) 0.7259(3)
H17_2 H 0.2298 0.4740 0.6725
C25_2 C 0.3263(3) 0.4842(3) 0.7857(3)
C26_2 C 0.3512(3) 0.5188(3) 0.8658(3)
H18_2 H 0.4039 0.5085 0.9060
C27_2 C 0.3872(3) 0.4332(3) 0.7647(3)
C28_2 C 0.1026(3) 0.5593(3) 0.6874(3)
C29_2 C 0.0662(3) 0.6285(3) 0.6760(3)
H19_2 H 0.0967 0.6676 0.7073
C33_2 C 0.0527(3) 0.5017(3) 0.6447(4)
H21_2 H 0.0758 0.4550 0.6516
Zn10_4 Zn 0.2500 0.7500 1.0000
Zn1_2 Zn 0.55950(3) 0.63772(3) 0.36451(4)
Zn2_2 Zn 0.7500 0.7500 0.5000
O1_2 O 0.5969(2) 0.59731(19) 0.4812(2)
O2_2 O 0.7264(2) 0.64091(17) 0.5046(2)
O7_2 O 0.6358(2) 0.40392(19) 0.8085(2)
O8_2 O 0.5436(2) 0.4230(2) 0.6766(2)
C1_2 C 0.6745(3) 0.6052(2) 0.5274(3)
C2_2 C 0.7015(3) 0.5682(3) 0.6141(3)
C3_2 C 0.7816(3) 0.5820(3) 0.6721(3)
H2_2 H 0.8174 0.6147 0.6574
C4_2 C 0.8092(3) 0.5470(3) 0.7533(3)
C5_2 C 0.7536(3) 0.4975(3) 0.7741(3)
H3_2 H 0.7702 0.4740 0.8275
C6_2 C 0.6737(3) 0.4842(3) 0.7143(3)
C7_2 C 0.6488(3) 0.5188(3) 0.6342(3)
H4_2 H 0.5961 0.5085 0.5940
C8_2 C 0.6128(3) 0.4332(3) 0.7353(3)
C9_2 C 0.8974(3) 0.5593(3) 0.8126(3)
C10_2 C 0.9338(3) 0.6285(3) 0.8240(3)
H5_2 H 0.9033 0.6676 0.7927
C14_2 C 0.9473(3) 0.5017(3) 0.8553(4)
H7_2 H 0.9242 0.4550 0.8484
N1_3 N 0.7009(4) 0.7941(3) 0.7362(4)
O9_3 O 0.7488(4) 0.7615(3) 0.6297(4)
C17_3 C 0.6968(5) 0.7862(4) 0.6494(9)
H8_3 H 0.6484 0.8024 0.6063
C18_3 C 0.7762(7) 0.7826(6) 0.8069(6)
H9_3 H 0.7753 0.7347 0.8301
H10_3 H 0.7798 0.8183 0.8510
H11_3 H 0.8246 0.7872 0.7874
C19_3 C 0.6278(6) 0.8208(6) 0.7567(7)
H12_3 H 0.6443 0.8616 0.7955
H13_3 H 0.6059 0.7828 0.7839
H14_3 H 0.5847 0.8359 0.7044
O12_2 O 0.9895(2) 0.76561(19) 0.6503(3)
O13_2 O 0.8783(3) 0.7248(2) 0.5508(4)
O14_2 O 0.8413(3) 0.4596(2) 0.5050(3)
H15_2 H 0.8141 0.4215 0.4937
O15_2 O 0.9465(3) 0.3839(2) 0.5728(3)
C30_2 C 0.9849(3) 0.6400(3) 0.6187(3)
C31_2 C 0.9366(3) 0.5811(3) 0.5768(3)
H20_2 H 0.8820 0.5884 0.5386
C32_2 C 0.9698(3) 0.5114(3) 0.5921(3)
C34_2 C 0.9472(3) 0.7156(3) 0.6062(4)
C35_2 C 0.9188(3) 0.4455(3) 0.5556(4)
N2_3 N 0.7991(4) 0.7059(3) 0.2638(4)
O18_3 O 0.7512(4) 0.7385(3) 0.3703(4)
C36_3 C 0.8032(5) 0.7138(4) 0.3506(9)
H22_3 H 0.8516 0.6976 0.3937
C37_3 C 0.7238(7) 0.7174(6) 0.1931(6)
H23_3 H 0.7247 0.7653 0.1699
H24_3 H 0.7202 0.6817 0.1490
H25_3 H 0.6754 0.7128 0.2126
C38_3 C 0.8722(6) 0.6792(6) 0.2433(7)
H26_3 H 0.8557 0.6384 0.2045
H27_3 H 0.8941 0.7172 0.2161
H28_3 H 0.9153 0.6641 0.2956
O19_3 O 0.7736(2) 0.85909(17) 0.4954(2)
O21_2 O 0.5105(2) 0.73439(19) 0.3497(3)
O22_3 O 0.6217(3) 0.7752(2) 0.4492(4)
O24_2 O 0.6358(2) 0.59608(19) 0.3085(2)
O25_2 O 0.4564(2) 0.5770(2) 0.3234(2)
N2_4 N 0.2009(4) 0.7059(3) 0.2362(4)
O18_4 O 0.2488(4) 0.7385(3) 0.1297(4)
C36_4 C 0.1968(5) 0.7138(4) 0.1494(9)
H22_4 H 0.1484 0.6976 0.1063
C37_4 C 0.2762(7) 0.7174(6) 0.3069(6)
H23_4 H 0.2753 0.7653 0.3301
H24_4 H 0.2798 0.6817 0.3510
H25_4 H 0.3246 0.7128 0.2874
C38_4 C 0.1278(6) 0.6792(6) 0.2567(7)
H26_4 H 0.1443 0.6384 0.2955
H27_4 H 0.1059 0.7172 0.2839
H28_4 H 0.0847 0.6641 0.2044
O19_4 O 0.2264(2) 0.85909(17) 0.0046(2)
O22_4 O 0.3783(3) 0.7752(2) 0.0508(4)
N1_4 N 0.2991(4) 0.7941(3) 0.7638(4)
O9_4 O 0.2512(4) 0.7615(3) 0.8703(4)
C17_4 C 0.3032(5) 0.7862(4) 0.8506(9)
H8_4 H 0.3516 0.8024 0.8937
C18_4 C 0.2238(7) 0.7826(6) 0.6931(6)
H9_4 H 0.2247 0.7347 0.6699
H10_4 H 0.2202 0.8183 0.6490
H11_4 H 0.1754 0.7872 0.7126
C19_4 C 0.3722(6) 0.8208(6) 0.7433(7)
H12_4 H 0.3557 0.8616 0.7045
H13_4 H 0.3941 0.7828 0.7161
H14_4 H 0.4153 0.8359 0.7956
O5_3 O 0.3413(3) 0.0404(2) 0.0050(3)
O6_3 O 0.4465(3) 0.1161(2) 0.0728(3)
C5_3 C 0.7464(3) 0.0025(3) 0.2259(3)
H3_3 H 0.7298 0.0260 0.1725
C6_3 C 0.8263(3) 0.0158(3) 0.2857(3)
C8_3 C 0.8872(3) 0.0668(3) 0.2647(3)
H7_3 H 0.5758 0.0450 0.1516
C16_3 C 0.4188(3) 0.0545(3) 0.0556(4)
O14_3 O 0.6587(3) 0.0404(2) 0.4950(3)
H15_3 H 0.6859 0.0785 0.5063
O15_3 O 0.5535(3) 0.1161(2) 0.4272(3)
C24_3 C 0.2536(3) 0.0025(3) 0.2741(3)
H17_3 H 0.2702 0.0260 0.3275
C25_3 C 0.1737(3) 0.0158(3) 0.2143(3)
C27_3 C 0.1128(3) 0.0668(3) 0.2353(3)
H21_3 H 0.4242 0.0450 0.3484
C35_3 C 0.5812(3) 0.0545(3) 0.4444(4)
O1_3 O 0.9031(2) 0.90269(19) 0.5188(2)
C1_3 C 0.8255(3) 0.8948(2) 0.4726(3)
C2_3 C 0.7985(3) 0.9318(3) 0.3859(3)
C3_3 C 0.7184(3) 0.9180(3) 0.3279(3)
H2_3 H 0.6826 0.8853 0.3426
C4_3 C 0.6908(3) 0.9530(3) 0.2467(3)
C7_3 C 0.8512(3) 0.9812(3) 0.3658(3)
H4_3 H 0.9039 0.9915 0.4060
C9_3 C 0.6026(3) 0.9407(3) 0.1874(3)
C10_3 C 0.5662(3) 0.8715(3) 0.1760(3)
H5_3 H 0.5967 0.8324 0.2073
C11_3 C 0.4849(3) 0.8600(3) 0.1187(3)
C12_3 C 0.4366(3) 0.9189(3) 0.0768(3)
H6_3 H 0.3820 0.9116 0.0386
C13_3 C 0.4698(3) 0.9886(3) 0.0921(3)
C14_3 C 0.5527(3) 0.9983(3) 0.1447(4)
C15_3 C 0.4472(3) 0.7844(3) 0.1062(4)
C20_3 C 0.1745(3) 0.8948(2) 0.0274(3)
C21_3 C 0.2015(3) 0.9318(3) 0.1141(3)
C22_3 C 0.2816(3) 0.9180(3) 0.1721(3)
H16_3 H 0.3174 0.8853 0.1574
C23_3 C 0.3092(3) 0.9530(3) 0.2533(3)
C26_3 C 0.1488(3) 0.9812(3) 0.1342(3)
H18_3 H 0.0961 0.9915 0.0940
C28_3 C 0.3974(3) 0.9407(3) 0.3126(3)
C29_3 C 0.4338(3) 0.8715(3) 0.3240(3)
H19_3 H 0.4033 0.8324 0.2927
C30_3 C 0.5151(3) 0.8600(3) 0.3813(3)
C31_3 C 0.5634(3) 0.9189(3) 0.4232(3)
H20_3 H 0.6180 0.9116 0.4614
C32_3 C 0.5302(3) 0.9886(3) 0.4079(3)
C33_3 C 0.4473(3) 0.9983(3) 0.3553(4)
C34_3 C 0.5528(3) 0.7844(3) 0.3938(4)
O10_3 O 0.0969(2) 0.90269(19) 0.9812(2)
O1_4 O 0.4031(2) 0.40269(19) 0.5188(2)
C1_4 C 0.3255(3) 0.3948(2) 0.4726(3)
C2_4 C 0.2985(3) 0.4318(3) 0.3859(3)
C3_4 C 0.2184(3) 0.4180(3) 0.3279(3)
H2_4 H 0.1826 0.3853 0.3426
C4_4 C 0.1908(3) 0.4530(3) 0.2467(3)
C5_4 C 0.2464(3) 0.5025(3) 0.2259(3)
H3_4 H 0.2298 0.5260 0.1725
C6_4 C 0.3263(3) 0.5158(3) 0.2857(3)
C7_4 C 0.3512(3) 0.4812(3) 0.3658(3)
H4_4 H 0.4039 0.4915 0.4060
C8_4 C 0.3872(3) 0.5668(3) 0.2647(3)
C9_4 C 0.1026(3) 0.4407(3) 0.1874(3)
C10_4 C 0.0662(3) 0.3715(3) 0.1760(3)
H5_4 H 0.0967 0.3324 0.2073
C14_4 C 0.0527(3) 0.4983(3) 0.1447(4)
H7_4 H 0.0758 0.5450 0.1516
O14_4 O 0.1587(3) 0.5404(2) 0.4950(3)
H15_4 H 0.1859 0.5785 0.5063
O15_4 O 0.0535(3) 0.6161(2) 0.4272(3)
C30_4 C 0.0151(3) 0.3600(3) 0.3813(3)
C31_4 C 0.0634(3) 0.4189(3) 0.4232(3)
H20_4 H 0.1180 0.4116 0.4614
C32_4 C 0.0302(3) 0.4886(3) 0.4079(3)
C34_4 C 0.0528(3) 0.2844(3) 0.3938(4)
C35_4 C 0.0812(3) 0.5545(3) 0.4444(4)
O5_4 O 0.8413(3) 0.5404(2) 0.0050(3)
O6_4 O 0.9465(3) 0.6161(2) 0.0728(3)
C11_4 C 0.9849(3) 0.3600(3) 0.1187(3)
C12_4 C 0.9366(3) 0.4189(3) 0.0768(3)
H6_4 H 0.8820 0.4116 0.0386
C13_4 C 0.9698(3) 0.4886(3) 0.0921(3)
C15_4 C 0.9472(3) 0.2844(3) 0.1062(4)
C16_4 C 0.9188(3) 0.5545(3) 0.0556(4)
C20_4 C 0.6745(3) 0.3948(2) 0.0274(3)
C21_4 C 0.7015(3) 0.4318(3) 0.1141(3)
C22_4 C 0.7816(3) 0.4180(3) 0.1721(3)
H16_4 H 0.8174 0.3853 0.1574
C23_4 C 0.8092(3) 0.4530(3) 0.2533(3)
C24_4 C 0.7536(3) 0.5025(3) 0.2741(3)
H17_4 H 0.7702 0.5260 0.3275
C25_4 C 0.6737(3) 0.5158(3) 0.2143(3)
C26_4 C 0.6488(3) 0.4812(3) 0.1342(3)
H18_4 H 0.5961 0.4915 0.0940
C27_4 C 0.6128(3) 0.5668(3) 0.2353(3)
C28_4 C 0.8974(3) 0.4407(3) 0.3126(3)
C29_4 C 0.9338(3) 0.3715(3) 0.3240(3)
H19_4 H 0.9033 0.3324 0.2927
C33_4 C 0.9473(3) 0.4983(3) 0.3553(4)
H21_4 H 0.9242 0.5450 0.3484
H1_2 H 0.8141 0.5785 0.9937
O10_4 O 0.5969(2) 0.40269(19) 0.9812(2)
H1_3 H 0.6859 0.9215 0.0063
H1_4 H 0.3141 0.0785 0.9937
loop_
_geom_bond_atom_site_label_1
_geom_bond_atom_site_label_2
_geom_bond_site_symmetry_1
_geom_bond_site_symmetry_2
Zn3 O10 1_555 1_555
O20 Zn3 1_555 1_555
O23 Zn3 1_555 1_555
Zn1 O1 1_555 1_555
Zn2 O2 1_555 1_555
O1 C1 1_555 1_555
O2 C1 1_555 1_555
O3 C15 1_555 1_555
O4 C15 1_555 1_555
C1 C2 1_555 1_555
C2 C3 1_555 1_555
C3 H2 1_555 1_555
C4 C3 1_555 1_555
C7 C2 1_555 1_555
H4 C7 1_555 1_555
C9 C4 1_555 1_555
C10 C9 1_555 1_555
H5 C10 1_555 1_555
C11 C10 1_555 1_555
C12 C11 1_555 1_555
H6 C12 1_555 1_555
C13 C12 1_555 1_555
C14 C9 1_555 1_555
C15 C11 1_555 1_555
N1 C17 1_555 1_555
O9 Zn2 1_555 1_555
C17 O9 1_555 1_555
H8 C17 1_555 1_555
C18 N1 1_555 1_555
H9 C18 1_555 1_555
H10 C18 1_555 1_555
H11 C18 1_555 1_555
C19 N1 1_555 1_555
H12 C19 1_555 1_555
H13 C19 1_555 1_555
H14 C19 1_555 1_555
O11 C20 1_555 1_555
O12 C34 1_555 1_555
O13 Zn2 1_555 1_555
C20 C21 1_555 1_555
C21 C22 1_555 1_555
C22 H16 1_555 1_555
C23 C22 1_555 1_555
C26 C21 1_555 1_555
H18 C26 1_555 1_555
C28 C23 1_555 1_555
C29 C28 1_555 1_555
H19 C29 1_555 1_555
C30 C29 1_555 1_555
C31 C30 1_555 1_555
H20 C31 1_555 1_555
C32 C31 1_555 1_555
C33 C28 1_555 1_555
C34 O13 1_555 1_555
N2 C36 1_555 1_555
O18 Zn2 1_555 1_555
C36 O18 1_555 1_555
H22 C36 1_555 1_555
C37 N2 1_555 1_555
H23 C37 1_555 1_555
H24 C37 1_555 1_555
H25 C37 1_555 1_555
C38 N2 1_555 1_555
H26 C38 1_555 1_555
H27 C38 1_555 1_555
H28 C38 1_555 1_555
Zn8 O12 1_555 1_555
Zn9 O3 1_555 1_555
Zn10_2 O4 1_555 1_555
O19 Zn2 1_555 1_555
O21 Zn1 1_555 1_555
O22 Zn2 1_555 1_555
O24 Zn1 1_555 1_555
C13 C14 1_555 1_555
O11 Zn10_2 1_555 1_555
C30 C34 1_555 1_555
C32 C33 1_555 1_555
O6 C16 1_555 1_555
O7 C8 1_555 1_555
O8 C8 1_555 1_555
H3 C5 1_555 1_555
C6 C5 1_555 1_555
C8 C6 1_555 1_555
C16 O5 1_555 1_555
O14 H15 1_555 1_555
O15 C35 1_555 1_555
O16 C27 1_555 1_555
O17 C27 1_555 1_555
H17 C24 1_555 1_555
C25 C24 1_555 1_555
C27 C25 1_555 1_555
C35 O14 1_555 1_555
Zn5 O16 1_555 1_555
Zn7 O7 1_555 1_555
N2_2 C36_2 1_555 1_555
O18_2 Zn10 1_555 1_555
C36_2 O18_2 1_555 1_555
H22_2 C36_2 1_555 1_555
C37_2 N2_2 1_555 1_555
H23_2 C37_2 1_555 1_555
H24_2 C37_2 1_555 1_555
H25_2 C37_2 1_555 1_555
C38_2 N2_2 1_555 1_555
H26_2 C38_2 1_555 1_555
H27_2 C38_2 1_555 1_555
H28_2 C38_2 1_555 1_555
O19_2 Zn10 1_555 1_555
O22_2 Zn10 1_555 1_555
N1_2 C17_2 1_555 1_555
O9_2 Zn10_2 1_555 1_555
C17_2 O9_2 1_555 1_555
H8_2 C17_2 1_555 1_555
C18_2 N1_2 1_555 1_555
H9_2 C18_2 1_555 1_555
H10_2 C18_2 1_555 1_555
H11_2 C18_2 1_555 1_555
C19_2 N1_2 1_555 1_555
H12_2 C19_2 1_555 1_555
H13_2 C19_2 1_555 1_555
H14_2 C19_2 1_555 1_555
Zn3_2 O10_2 1_555 1_555
O20_2 Zn3_2 1_555 1_555
O23_2 Zn3_2 1_555 1_555
O26_2 Zn3_2 1_555 1_555
O3_2 C15_2 1_555 1_555
O4_2 C15_2 1_555 1_555
O6_2 C16_2 1_555 1_555
C12_2 C11_2 1_555 1_555
H6_2 C12_2 1_555 1_555
C13_2 C12_2 1_555 1_555
C15_2 C11_2 1_555 1_555
C16_2 O5_2 1_555 1_555
O11_2 C20_2 1_555 1_555
O16_2 C27_2 1_555 1_555
O17_2 C27_2 1_555 1_555
C20_2 C21_2 1_555 1_555
C21_2 C22_2 1_555 1_555
C22_2 H16_2 1_555 1_555
C23_2 C22_2 1_555 1_555
C24_2 C23_2 1_555 1_555
H17_2 C24_2 1_555 1_555
C25_2 C24_2 1_555 1_555
C26_2 C21_2 1_555 1_555
H18_2 C26_2 1_555 1_555
C27_2 C25_2 1_555 1_555
C28_2 C23_2 1_555 1_555
C29_2 C28_2 1_555 1_555
H19_2 C29_2 1_555 1_555
C33_2 C28_2 1_555 1_555
H21_2 C33_2 1_555 1_555
Zn8 O16_2 1_555 1_555
Zn9 O17_2 1_555 1_555
Zn7 O3_2 1_555 1_555
Zn10_4 O4_2 1_555 1_555
C13_2 C16_2 1_555 1_555
O11_2 Zn10_4 1_555 1_555
C25_2 C26_2 1_555 1_555
Zn1_2 O1_2 1_555 1_555
Zn2_2 O2_2 1_555 1_555
O1_2 C1_2 1_555 1_555
O2_2 C1_2 1_555 1_555
O7_2 C8_2 1_555 1_555
O8_2 C8_2 1_555 1_555
C1_2 C2_2 1_555 1_555
C2_2 C3_2 1_555 1_555
C3_2 H2_2 1_555 1_555
C4_2 C3_2 1_555 1_555
C5_2 C4_2 1_555 1_555
H3_2 C5_2 1_555 1_555
C6_2 C5_2 1_555 1_555
C7_2 C2_2 1_555 1_555
H4_2 C7_2 1_555 1_555
C8_2 C6_2 1_555 1_555
C9_2 C4_2 1_555 1_555
C10_2 C9_2 1_555 1_555
H5_2 C10_2 1_555 1_555
C14_2 C9_2 1_555 1_555
H7_2 C14_2 1_555 1_555
N1_3 C17_3 1_555 1_555
O9_3 Zn2_2 1_555 1_555
C17_3 O9_3 1_555 1_555
H8_3 C17_3 1_555 1_555
C18_3 N1_3 1_555 1_555
H9_3 C18_3 1_555 1_555
H10_3 C18_3 1_555 1_555
H11_3 C18_3 1_555 1_555
C19_3 N1_3 1_555 1_555
H12_3 C19_3 1_555 1_555
H13_3 C19_3 1_555 1_555
H14_3 C19_3 1_555 1_555
O12_2 C34_2 1_555 1_555
O13_2 Zn2_2 1_555 1_555
O14_2 H15_2 1_555 1_555
O15_2 C35_2 1_555 1_555
C31_2 C30_2 1_555 1_555
H20_2 C31_2 1_555 1_555
C32_2 C31_2 1_555 1_555
C34_2 O13_2 1_555 1_555
C35_2 O14_2 1_555 1_555
N2_3 C36_3 1_555 1_555
O18_3 Zn2_2 1_555 1_555
C36_3 O18_3 1_555 1_555
H22_3 C36_3 1_555 1_555
C37_3 N2_3 1_555 1_555
H23_3 C37_3 1_555 1_555
H24_3 C37_3 1_555 1_555
H25_3 C37_3 1_555 1_555
C38_3 N2_3 1_555 1_555
H26_3 C38_3 1_555 1_555
H27_3 C38_3 1_555 1_555
H28_3 C38_3 1_555 1_555
Zn8 O8_2 1_555 1_555
Zn9 O7_2 1_555 1_555
Zn5 O12_2 1_555 1_555
O19_3 Zn2_2 1_555 1_555
O21_2 Zn1_2 1_555 1_555
O22_3 Zn2_2 1_555 1_555
O24_2 Zn1_2 1_555 1_555
O25_2 Zn1_2 1_555 1_555
C6_2 C7_2 1_555 1_555
C30_2 C34_2 1_555 1_555
C32_2 C35_2 1_555 1_555
N2_4 C36_4 1_555 1_555
O18_4 Zn10_3 1_555 1_555
C36_4 O18_4 1_555 1_555
H22_4 C36_4 1_555 1_555
C37_4 N2_4 1_555 1_555
H23_4 C37_4 1_555 1_555
H24_4 C37_4 1_555 1_555
H25_4 C37_4 1_555 1_555
C38_4 N2_4 1_555 1_555
H26_4 C38_4 1_555 1_555
H27_4 C38_4 1_555 1_555
H28_4 C38_4 1_555 1_555
O19_4 Zn10_3 1_555 1_555
O22_4 Zn10_3 1_555 1_555
N1_4 C17_4 1_555 1_555
O9_4 Zn10_4 1_555 1_555
C17_4 O9_4 1_555 1_555
H8_4 C17_4 1_555 1_555
C18_4 N1_4 1_555 1_555
H9_4 C18_4 1_555 1_555
H10_4 C18_4 1_555 1_555
H11_4 C18_4 1_555 1_555
C19_4 N1_4 1_555 1_555
H12_4 C19_4 1_555 1_555
H13_4 C19_4 1_555 1_555
H14_4 C19_4 1_555 1_555
O6_3 C16_3 1_555 1_555
O23 C8_3 1_555 1_555
O25 C8_3 1_555 1_555
H3_3 C5_3 1_555 1_555
C6_3 C5_3 1_555 1_555
C8_3 C6_3 1_555 1_555
C16_3 O5_3 1_555 1_555
O14_3 H15_3 1_555 1_555
O15_3 C35_3 1_555 1_555
O24 C27_3 1_555 1_555
O26 C27_3 1_555 1_555
H17_3 C24_3 1_555 1_555
C25_3 C24_3 1_555 1_555
C27_3 C25_3 1_555 1_555
C35_3 O14_3 1_555 1_555
Zn5 O1_3 1_555 1_555
O1_3 C1_3 1_555 1_555
O19_3 C1_3 1_555 1_555
O20_2 C15_3 1_555 1_555
O22_4 C15_3 1_555 1_555
C1_3 C2_3 1_555 1_555
C2_3 C3_3 1_555 1_555
C3_3 H2_3 1_555 1_555
C4_3 C3_3 1_555 1_555
C7_3 C2_3 1_555 1_555
H4_3 C7_3 1_555 1_555
C9_3 C4_3 1_555 1_555
C10_3 C9_3 1_555 1_555
H5_3 C10_3 1_555 1_555
C11_3 C10_3 1_555 1_555
C12_3 C11_3 1_555 1_555
H6_3 C12_3 1_555 1_555
C13_3 C12_3 1_555 1_555
C14_3 C9_3 1_555 1_555
C15_3 C11_3 1_555 1_555
O19_4 C20_3 1_555 1_555
O21_2 C34_3 1_555 1_555
C20_3 C21_3 1_555 1_555
C21_3 C22_3 1_555 1_555
C22_3 H16_3 1_555 1_555
C23_3 C22_3 1_555 1_555
C26_3 C21_3 1_555 1_555
H18_3 C26_3 1_555 1_555
C28_3 C23_3 1_555 1_555
C29_3 C28_3 1_555 1_555
H19_3 C29_3 1_555 1_555
C30_3 C29_3 1_555 1_555
C31_3 C30_3 1_555 1_555
H20_3 C31_3 1_555 1_555
C32_3 C31_3 1_555 1_555
C33_3 C28_3 1_555 1_555
C34_3 O22_3 1_555 1_555
C13_3 C14_3 1_555 1_555
C30_3 C34_3 1_555 1_555
C32_3 C33_3 1_555 1_555
Zn7 O10_3 1_555 1_555
Zn8 O1_4 1_555 1_555
O1_4 C1_4 1_555 1_555
O19 C1_4 1_555 1_555
O23_2 C8_4 1_555 1_555
O25_2 C8_4 1_555 1_555
C1_4 C2_4 1_555 1_555
C2_4 C3_4 1_555 1_555
C3_4 H2_4 1_555 1_555
C4_4 C3_4 1_555 1_555
C5_4 C4_4 1_555 1_555
H3_4 C5_4 1_555 1_555
C6_4 C5_4 1_555 1_555
C7_4 C2_4 1_555 1_555
H4_4 C7_4 1_555 1_555
C8_4 C6_4 1_555 1_555
C9_4 C4_4 1_555 1_555
C10_4 C9_4 1_555 1_555
H5_4 C10_4 1_555 1_555
C14_4 C9_4 1_555 1_555
H7_4 C14_4 1_555 1_555
O21 C34_4 1_555 1_555
O14_4 H15_4 1_555 1_555
O15_4 C35_4 1_555 1_555
C31_4 C30_4 1_555 1_555
H20_4 C31_4 1_555 1_555
C32_4 C31_4 1_555 1_555
C34_4 O22 1_555 1_555
C35_4 O14_4 1_555 1_555
C6_4 C7_4 1_555 1_555
C30_4 C34_4 1_555 1_555
C32_4 C35_4 1_555 1_555
O20 C15_4 1_555 1_555
O22_2 C15_4 1_555 1_555
O6_4 C16_4 1_555 1_555
C12_4 C11_4 1_555 1_555
H6_4 C12_4 1_555 1_555
C13_4 C12_4 1_555 1_555
C15_4 C11_4 1_555 1_555
C16_4 O5_4 1_555 1_555
O19_2 C20_4 1_555 1_555
O24_2 C27_4 1_555 1_555
O26_2 C27_4 1_555 1_555
C20_4 C21_4 1_555 1_555
C21_4 C22_4 1_555 1_555
C22_4 H16_4 1_555 1_555
C23_4 C22_4 1_555 1_555
C24_4 C23_4 1_555 1_555
H17_4 C24_4 1_555 1_555
C25_4 C24_4 1_555 1_555
C26_4 C21_4 1_555 1_555
H18_4 C26_4 1_555 1_555
C27_4 C25_4 1_555 1_555
C28_4 C23_4 1_555 1_555
C29_4 C28_4 1_555 1_555
H19_4 C29_4 1_555 1_555
C33_4 C28_4 1_555 1_555
H21_4 C33_4 1_555 1_555
C13_4 C16_4 1_555 1_555
C25_4 C26_4 1_555 1_555
Zn9 O10_4 1_555 1_555

#END
