
###############################################################################
#
# This file contains modified crystal structure data generated from the
# MOF subset of the Cambridge Structural Database (CSD) v543 
# hosted by the Cambridge Crystallographic Data Centre (CCDC).
#
# This work is licensed under the Creative Commons
# Attribution-NonCommercial-ShareAlike 4.0 International License.
# To view a copy of this license, visit
# http://creativecommons.org/licenses/by-nc-sa/4.0/
# or send a letter to
# Creative Commons, PO Box 1866, Mountain View, CA 94042, USA.
#
# CIF created using the CSD Python API on 29 September 2022
# The structure has been converted into the P1 space group
# The structure has a 3D framework
# The original CSD entry YUBFUX is in the rhombohedral crystal system
# The framework has been calculated to contain at least 10.0% void space
# The void calculation uses a probe of radius 1.32A, grid spacing 0.4
#
###############################################################################

data_YUBFUX
_chemical_formula_moiety         '(C72 H108 F6 N58 Zn8)n'
_symmetry_cell_setting           triclinic
_symmetry_space_group_name_H-M   'P 1'
_symmetry_Int_Tables_number      1
_space_group_name_Hall           'P 1'
loop_
_symmetry_equiv_pos_site_id
_symmetry_equiv_pos_as_xyz
1 x,y,z
_cell_length_a                   18.8698(12)
_cell_length_b                   18.8698(12)
_cell_length_c                   9.7902(13)
_cell_angle_alpha                90
_cell_angle_beta                 90
_cell_angle_gamma                120
_cell_volume                     3018.96
loop_
_atom_site_label
_atom_site_type_symbol
_atom_site_fract_x
_atom_site_fract_y
_atom_site_fract_z
N1 N 0.18367(13) 0.85034(13) 0.0833
N2 N 0.05731(11) 0.75379(12) 0.0324(2)
C1 C 0.11672(14) 0.82940(14) 0.0064(2)
Zn2 Zn 0.291500(24) 0.958170(17) 0.0833
Zn3 Zn -0.000003(17) 0.624833(24) 0.2500
N4 N 0.08712(12) 0.72398(11) 0.1343(2)
C3 C 0.16273(14) 0.78339(14) 0.1603(2)
C4 C 0.22010(16) 0.77654(17) 0.2571(3)
H4 H 0.1901 0.7294 0.3141
H5 H 0.2464 0.8248 0.3130
H6 H 0.2607 0.7712 0.2064
F1 F 0.00000(10) 0.7369 0.7500
C2 C 0.10987(17) 0.88677(16) 0.9096(3)
H1 H 0.0627 0.8568 0.8526
H2 H 0.1581 0.9131 0.8537
H3 H 0.1045 0.9274 0.9603
Zn4 Zn 0.041830(17) 0.708500(24) 0.5833
Zn3_2 Zn 0.999997(17) 0.624833(24) 0.2500
F2 F 0.9298 0.59643(10) 0.0833
Zn1 Zn 0.958170(17) 0.666670(17) 0.9167
F1_2 F 1.00000(10) 0.7369 0.7500
N3 N 0.85034(13) 0.66667(18) 0.9167
N5 N 0.97019(16) 0.57954(12) 0.8009(2)
N1_2 N 0.14966(13) 0.33333(18) 0.0833
N2_2 N 0.24621(12) 0.30352(16) 0.0324(2)
C1_2 C 0.17060(14) 0.28732(20) 0.0064(2)
Zn2_2 Zn 0.041830(17) 0.333330(29) 0.0833
Zn3_3 Zn 0.375167(24) 0.375163(29) 0.2500
F2_2 F 0.40357(10) 0.33333(10) 0.0833
N4_2 N 0.27602(11) 0.36315(16) 0.1343(2)
C3_2 C 0.21661(14) 0.37935(20) 0.1603(2)
C4_2 C 0.22346(17) 0.44357(23) 0.2571(3)
H4_2 H 0.2706 0.4608 0.3141
H5_2 H 0.1752 0.4217 0.3130
H6_2 H 0.2288 0.4896 0.2064
Zn1_2 Zn 0.333330(17) 0.291500(24) 0.9167
F1_3 F 0.2631 0.26310(10) 0.7500
C2_2 C 0.11323(16) 0.22310(23) 0.9096(3)
H1_2 H 0.1432 0.2059 0.8526
H2_2 H 0.0869 0.2450 0.8537
H3_2 H 0.0726 0.1771 0.9603
Zn4_2 Zn 0.291500(24) 0.333330(29) 0.5833
N3_2 N 0.33333(18) 0.18367(22) 0.9167
N5_2 N 0.42046(12) 0.39064(20) 0.8009(2)
Zn3_4 Zn 0.624837(29) 0.000003(17) 0.2500
F2_3 F 0.66667(10) 0.0702 0.0833
Zn1_3 Zn 0.708500(24) 0.041830(17) 0.9167
F1_4 F 0.73690(10) -0.00000(10) 0.7500
N3_3 N 0.81633(22) 0.14966(13) 0.9167
N5_3 N 0.60936(20) 0.02981(16) 0.8009(2)
N1_3 N 0.66667(18) 0.81633(13) 0.0833
N2_3 N 0.69648(16) 0.94269(11) 0.0324(2)
C1_3 C 0.71268(20) 0.88328(14) 0.0064(2)
Zn2_3 Zn 0.666670(29) 0.708500(24) 0.0833
Zn3_5 Zn 0.624837(29) 1.000003(17) 0.2500
N4_3 N 0.63685(16) 0.91288(12) 0.1343(2)
C3_3 C 0.62065(20) 0.83727(14) 0.1603(2)
C4_3 C 0.55643(23) 0.77990(16) 0.2571(3)
H4_3 H 0.5392 0.8099 0.3141
H5_3 H 0.5783 0.7536 0.3130
H6_3 H 0.5104 0.7393 0.2064
F1_5 F 0.73690(10) 1.00000(10) 0.7500
C2_3 C 0.77690(23) 0.89013(17) 0.9096(3)
H1_3 H 0.7941 0.9373 0.8526
H2_3 H 0.7550 0.8419 0.8537
H3_3 H 0.8229 0.8955 0.9603
Zn4_3 Zn 0.666670(29) 0.958170(17) 0.5833
N1_4 N 0.85034(13) 0.18367(13) 0.4167
N2_4 N 0.75379(12) 0.05731(11) 0.4676(2)
C1_4 C 0.82940(14) 0.11672(14) 0.4936(2)
C2_4 C 0.88677(16) 0.10987(17) 0.5904(3)
H1_4 H 0.8568 0.0627 0.6474
H2_4 H 0.9131 0.1581 0.6463
H3_4 H 0.9274 0.1045 0.5397
Zn2_4 Zn 0.958170(17) 0.291500(24) 0.4167
N4_4 N 0.72398(11) 0.08712(12) 0.3657(2)
C3_4 C 0.78339(14) 0.16273(14) 0.3397(2)
C4_4 C 0.77654(17) 0.22010(16) 0.2429(3)
H4_4 H 0.7294 0.1901 0.1859
H5_4 H 0.8248 0.2464 0.1870
H6_4 H 0.7712 0.2607 0.2936
F2_4 F 0.59643(10) 0.9298 0.4167
N3_4 N 0.66667(18) 0.85034(13) 0.5833
N5_4 N 0.57954(12) 0.97019(16) 0.6991(2)
N1_5 N 0.33333(18) 0.14966(13) 0.4167
N2_5 N 0.30352(16) 0.24621(12) 0.4676(2)
C1_5 C 0.28732(20) 0.17060(14) 0.4936(2)
C2_5 C 0.22310(23) 0.11323(16) 0.5904(3)
H1_5 H 0.2059 0.1432 0.6474
H2_5 H 0.2450 0.0869 0.6463
H3_5 H 0.1771 0.0726 0.5397
Zn2_5 Zn 0.333330(29) 0.041830(17) 0.4167
F2_5 F 0.33333(10) 0.40357(10) 0.4167
N3_5 N 0.18367(22) 0.33333(18) 0.5833
N4_5 N 0.36315(16) 0.27602(11) 0.3657(2)
N5_5 N 0.39064(20) 0.42046(12) 0.6991(2)
C3_5 C 0.37935(20) 0.21661(14) 0.3397(2)
C4_5 C 0.44357(23) 0.22346(17) 0.2429(3)
H4_5 H 0.4608 0.2706 0.1859
H5_5 H 0.4217 0.1752 0.1870
H6_5 H 0.4896 0.2288 0.2936
F2_6 F 0.0702 0.66667(10) 0.4167
N3_6 N 0.14966(13) 0.81633(22) 0.5833
N5_6 N 0.02981(16) 0.60936(20) 0.6991(2)
N1_6 N 0.81633(13) 0.66667(18) 0.4167
N2_6 N 0.94269(11) 0.69648(16) 0.4676(2)
C1_6 C 0.88328(14) 0.71268(20) 0.4936(2)
C2_6 C 0.89013(17) 0.77690(23) 0.5904(3)
H1_6 H 0.9373 0.7941 0.6474
H2_6 H 0.8419 0.7550 0.6463
H3_6 H 0.8955 0.8229 0.5397
Zn2_6 Zn 0.708500(24) 0.666670(29) 0.4167
N4_6 N 0.91288(12) 0.63685(16) 0.3657(2)
C3_6 C 0.83727(14) 0.62065(20) 0.3397(2)
C4_6 C 0.77990(16) 0.55643(23) 0.2429(3)
H4_6 H 0.8099 0.5392 0.1859
H5_6 H 0.7536 0.5783 0.1870
H6_6 H 0.7393 0.5104 0.2936
N3_7 N 0.51701(13) 0.00000(18) 0.2500
N3_8 N 0.51701(13) 1.00000(18) 0.2500
N3_9 N -0.00000(18) 0.51700(22) 0.2500
N3_10 N 1.00000(18) 0.51700(22) 0.2500
N3_11 N 0.48300(22) 0.48299(13) 0.2500
N1_7 N 0.51701(13) 0.51700(13) 0.7500
C1_7 C 0.49607(14) 0.45005(14) 0.8269(2)
C2_7 C 0.55344(16) 0.44320(17) 0.9237(3)
H1_7 H 0.5235 0.3960 0.9807
H2_7 H 0.5798 0.4914 0.9796
H3_7 H 0.5941 0.4378 0.8730
Zn2_7 Zn 0.624837(17) 0.624833(24) 0.7500
C3_7 C 0.45005(14) 0.49607(14) 0.6731(2)
C4_7 C 0.44320(17) 0.55344(16) 0.5763(3)
H4_7 H 0.3960 0.5235 0.5193
H5_7 H 0.4914 0.5798 0.5204
H6_7 H 0.4378 0.5941 0.6270
N1_8 N -0.00000(18) 0.48299(13) 0.7500
Zn2_8 Zn -0.000003(29) 0.375163(17) 0.7500
C3_8 C 0.04601(20) 0.54995(14) 0.6731(2)
C4_8 C 0.11023(23) 0.55680(17) 0.5763(3)
H4_8 H 0.1274 0.6040 0.5193
H5_8 H 0.0883 0.5086 0.5204
H6_8 H 0.1562 0.5622 0.6270
N1_9 N 1.00000(18) 0.48299(13) 0.7500
C1_8 C 0.95399(20) 0.50393(14) 0.8269(2)
C2_8 C 0.88977(23) 0.44656(16) 0.9237(3)
H1_8 H 0.8726 0.4765 0.9807
H2_8 H 0.9117 0.4202 0.9796
H3_8 H 0.8438 0.4059 0.8730
Zn2_9 Zn 0.999997(29) 0.375163(17) 0.7500
N1_10 N 0.48300(13) 0.00000(18) 0.7500
C1_9 C 0.54995(14) 0.04601(20) 0.8269(2)
C2_9 C 0.55680(17) 0.11023(23) 0.9237(3)
H1_9 H 0.6040 0.1274 0.9807
H2_9 H 0.5086 0.0883 0.9796
H3_9 H 0.5622 0.1562 0.8730
Zn2_10 Zn 0.375167(24) 0.000003(29) 0.7500
N1_11 N 0.48300(13) 1.00000(18) 0.7500
Zn2_11 Zn 0.375167(24) 1.000003(29) 0.7500
C3_9 C 0.50393(14) 0.95399(20) 0.6731(2)
C4_9 C 0.44656(16) 0.88977(23) 0.5763(3)
H4_9 H 0.4765 0.8726 0.5193
H5_9 H 0.4202 0.9117 0.5204
H6_9 H 0.4059 0.8438 0.6270
F1_6 F -0.00000(10) 0.2631 0.2500
N5_7 N 0.02981(16) 0.42046(12) 0.1991(2)
F2_7 F 0.0702 0.40357(10) 0.9167
F1_7 F 1.00000(10) 0.2631 0.2500
C2_10 C 0.89013(17) 0.11323(16) 0.0904(3)
H1_10 H 0.9373 0.1432 0.1474
H2_10 H 0.8419 0.0869 0.1463
H3_10 H 0.8955 0.0726 0.0397
N2_7 N 0.94269(11) 0.24621(12) 0.9676(2)
C1_10 C 0.88328(14) 0.17060(14) 0.9936(2)
N4_7 N 0.91288(12) 0.27602(11) 0.8657(2)
C3_10 C 0.83727(14) 0.21661(14) 0.8397(2)
C4_10 C 0.77990(16) 0.22346(17) 0.7429(3)
H4_10 H 0.8099 0.2706 0.6859
H5_10 H 0.7536 0.1752 0.6870
H6_10 H 0.7393 0.2288 0.7936
F1_8 F 0.7369 0.73690(10) 0.2500
C2_11 C 0.88677(16) 0.77690(23) 0.0904(3)
H1_11 H 0.8568 0.7941 0.1474
H2_11 H 0.9131 0.7550 0.1463
H3_11 H 0.9274 0.8229 0.0397
N5_8 N 0.57954(12) 0.60936(20) 0.1991(2)
N2_8 N 0.75379(12) 0.69648(16) 0.9676(2)
C1_11 C 0.82940(14) 0.71268(20) 0.9936(2)
F2_8 F 0.59643(10) 0.66667(10) 0.9167
N4_8 N 0.72398(11) 0.63685(16) 0.8657(2)
C3_11 C 0.78339(14) 0.62065(20) 0.8397(2)
C4_11 C 0.77654(17) 0.55643(23) 0.7429(3)
H4_11 H 0.7294 0.5392 0.6859
H5_11 H 0.8248 0.5783 0.6870
H6_11 H 0.7712 0.5104 0.7936
F1_9 F 0.26310(10) 0.00000(10) 0.2500
C2_12 C 0.22310(23) 0.10987(17) 0.0904(3)
H1_12 H 0.2059 0.0627 0.1474
H2_12 H 0.2450 0.1581 0.1463
H3_12 H 0.1771 0.1045 0.0397
N2_9 N 0.30352(16) 0.05731(11) 0.9676(2)
C1_12 C 0.28732(20) 0.11672(14) 0.9936(2)
N4_9 N 0.36315(16) 0.08712(12) 0.8657(2)
C3_12 C 0.37935(20) 0.16273(14) 0.8397(2)
C4_12 C 0.44357(23) 0.22010(16) 0.7429(3)
H4_12 H 0.4608 0.1901 0.6859
H5_12 H 0.4217 0.2464 0.6870
H6_12 H 0.4896 0.2607 0.7936
F1_10 F 0.26310(10) 1.00000(10) 0.2500
N5_9 N 0.39064(20) 0.97019(16) 0.1991(2)
F2_9 F 0.33333(10) 0.9298 0.9167
F2_10 F 0.40357(10) 0.0702 0.5833
N5_10 N 0.42046(12) 0.02981(16) 0.3009(2)
N2_10 N 0.24621(12) 0.94269(11) 0.5324(2)
C1_13 C 0.17060(14) 0.88328(14) 0.5064(2)
C2_13 C 0.11323(16) 0.89013(17) 0.4096(3)
H1_13 H 0.1432 0.9373 0.3526
H2_13 H 0.0869 0.8419 0.3537
H3_13 H 0.0726 0.8955 0.4603
N4_10 N 0.27602(11) 0.91288(12) 0.6343(2)
C3_13 C 0.21661(14) 0.83727(14) 0.6603(2)
C4_13 C 0.22346(17) 0.77990(16) 0.7571(3)
H4_13 H 0.2706 0.8099 0.8141
H5_13 H 0.1752 0.7536 0.8130
H6_13 H 0.2288 0.7393 0.7064
N2_11 N 0.69648(16) 0.75379(12) 0.5324(2)
C1_14 C 0.71268(20) 0.82940(14) 0.5064(2)
C2_14 C 0.77690(23) 0.88677(16) 0.4096(3)
H1_14 H 0.7941 0.8568 0.3526
H2_14 H 0.7550 0.9131 0.3537
H3_14 H 0.8229 0.9274 0.4603
F2_11 F 0.66667(10) 0.59643(10) 0.5833
N4_11 N 0.63685(16) 0.72398(11) 0.6343(2)
N5_11 N 0.60936(20) 0.57954(12) 0.3009(2)
C3_14 C 0.62065(20) 0.78339(14) 0.6603(2)
C4_14 C 0.55643(23) 0.77654(17) 0.7571(3)
H4_14 H 0.5392 0.7294 0.8141
H5_14 H 0.5783 0.8248 0.8130
H6_14 H 0.5104 0.7712 0.7064
N2_12 N 0.05731(11) 0.30352(16) 0.5324(2)
C1_15 C 0.11672(14) 0.28732(20) 0.5064(2)
C2_15 C 0.10987(17) 0.22310(23) 0.4096(3)
H1_15 H 0.0627 0.2059 0.3526
H2_15 H 0.1581 0.2450 0.3537
H3_15 H 0.1045 0.1771 0.4603
N4_12 N 0.08712(12) 0.36315(16) 0.6343(2)
C3_15 C 0.16273(14) 0.37935(20) 0.6603(2)
C4_15 C 0.22010(16) 0.44357(23) 0.7571(3)
H4_15 H 0.1901 0.4608 0.8141
H5_15 H 0.2464 0.4217 0.8130
H6_15 H 0.2607 0.4896 0.7064
F2_12 F 0.9298 0.33333(10) 0.5833
N5_12 N 0.97019(16) 0.39064(20) 0.3009(2)
C1_16 C 0.50393(14) 0.54995(14) 0.1731(2)
C2_16 C 0.44656(16) 0.55680(17) 0.0763(3)
H1_16 H 0.4765 0.6040 0.0193
H2_16 H 0.4202 0.5086 0.0204
H3_16 H 0.4059 0.5622 0.1270
C3_16 C 0.54995(14) 0.50393(14) 0.3269(2)
C4_16 C 0.55680(17) 0.44656(16) 0.4237(3)
H4_16 H 0.6040 0.4765 0.4807
H5_16 H 0.5086 0.4202 0.4796
H6_16 H 0.5622 0.4059 0.3730
C1_17 C 0.04601(20) 0.49607(14) 0.1731(2)
C2_17 C 0.11023(23) 0.55344(16) 0.0763(3)
H1_17 H 0.1274 0.5235 0.0193
H2_17 H 0.0883 0.5798 0.0204
H3_17 H 0.1562 0.5941 0.1270
C3_17 C 0.95399(20) 0.45005(14) 0.3269(2)
C4_17 C 0.88977(23) 0.44320(17) 0.4237(3)
H4_17 H 0.8726 0.3960 0.4807
H5_17 H 0.9117 0.4914 0.4796
H6_17 H 0.8438 0.4378 0.3730
C3_18 C 0.49607(14) 0.04601(20) 0.3269(2)
C4_18 C 0.55344(16) 0.11023(23) 0.4237(3)
H4_18 H 0.5235 0.1274 0.4807
H5_18 H 0.5798 0.0883 0.4796
H6_18 H 0.5941 0.1562 0.3730
C1_18 C 0.45005(14) 0.95399(20) 0.1731(2)
C2_18 C 0.44320(17) 0.88977(23) 0.0763(3)
H1_18 H 0.3960 0.8726 0.0193
H2_18 H 0.4914 0.9117 0.0204
H3_18 H 0.4378 0.8438 0.1270
loop_
_geom_bond_atom_site_label_1
_geom_bond_atom_site_label_2
_geom_bond_site_symmetry_1
_geom_bond_site_symmetry_2
N1 C1 1_555 1_555
C1 N2 1_555 1_555
Zn2 N1 1_555 1_555
N4 N2 1_555 1_555
C3 N1 1_555 1_555
C4 C3 1_555 1_555
H4 C4 1_555 1_555
H5 C4 1_555 1_555
H6 C4 1_555 1_555
Zn3 N4 1_555 1_555
N4 C3 1_555 1_555
F1 Zn4 1_555 1_555
H1 C2 1_555 1_555
H2 C2 1_555 1_555
H3 C2 1_555 1_555
Zn3_2 F2 1_555 1_555
Zn1 F1_2 1_555 1_555
N3 Zn1 1_555 1_555
N5 Zn1 1_555 1_555
N1_2 C1_2 1_555 1_555
C1_2 N2_2 1_555 1_555
Zn2_2 N1_2 1_555 1_555
Zn3_3 F2_2 1_555 1_555
N4_2 N2_2 1_555 1_555
C3_2 N1_2 1_555 1_555
C4_2 C3_2 1_555 1_555
H4_2 C4_2 1_555 1_555
H5_2 C4_2 1_555 1_555
H6_2 C4_2 1_555 1_555
Zn3_3 N4_2 1_555 1_555
N4_2 C3_2 1_555 1_555
Zn1_2 F1_3 1_555 1_555
F1_3 Zn4_2 1_555 1_555
H1_2 C2_2 1_555 1_555
H2_2 C2_2 1_555 1_555
H3_2 C2_2 1_555 1_555
N3_2 Zn1_2 1_555 1_555
N5_2 Zn1_2 1_555 1_555
Zn3_4 F2_3 1_555 1_555
Zn1_3 F1_4 1_555 1_555
N3_3 Zn1_3 1_555 1_555
N5_3 Zn1_3 1_555 1_555
N1_3 C1_3 1_555 1_555
C1_3 N2_3 1_555 1_555
Zn2_3 N1_3 1_555 1_555
N4_3 N2_3 1_555 1_555
C3_3 N1_3 1_555 1_555
C4_3 C3_3 1_555 1_555
H4_3 C4_3 1_555 1_555
H5_3 C4_3 1_555 1_555
H6_3 C4_3 1_555 1_555
Zn3_5 N4_3 1_555 1_555
N4_3 C3_3 1_555 1_555
F1_5 Zn4_3 1_555 1_555
H1_3 C2_3 1_555 1_555
H2_3 C2_3 1_555 1_555
H3_3 C2_3 1_555 1_555
N1_4 C1_4 1_555 1_555
C1_4 N2_4 1_555 1_555
C2_4 C1_4 1_555 1_555
H1_4 C2_4 1_555 1_555
H2_4 C2_4 1_555 1_555
H3_4 C2_4 1_555 1_555
Zn2_4 N1_4 1_555 1_555
N4_4 N2_4 1_555 1_555
C3_4 N1_4 1_555 1_555
C4_4 C3_4 1_555 1_555
H4_4 C4_4 1_555 1_555
H5_4 C4_4 1_555 1_555
H6_4 C4_4 1_555 1_555
Zn3_4 N4_4 1_555 1_555
N4_4 C3_4 1_555 1_555
Zn3_5 F2_4 1_555 1_555
F2_4 Zn4_3 1_555 1_555
N3_4 Zn4_3 1_555 1_555
N5_4 Zn4_3 1_555 1_555
N1_5 C1_5 1_555 1_555
N2_5 Zn4_2 1_555 1_555
C1_5 N2_5 1_555 1_555
C2_5 C1_5 1_555 1_555
H1_5 C2_5 1_555 1_555
H2_5 C2_5 1_555 1_555
H3_5 C2_5 1_555 1_555
Zn2_5 N1_5 1_555 1_555
Zn3_3 F2_5 1_555 1_555
F2_5 Zn4_2 1_555 1_555
N3_5 Zn4_2 1_555 1_555
N4_5 N2_5 1_555 1_555
N5_5 Zn4_2 1_555 1_555
C3_5 N1_5 1_555 1_555
C4_5 C3_5 1_555 1_555
H4_5 C4_5 1_555 1_555
H5_5 C4_5 1_555 1_555
H6_5 C4_5 1_555 1_555
Zn3_3 N4_5 1_555 1_555
N4_5 C3_5 1_555 1_555
Zn3 F2_6 1_555 1_555
F2_6 Zn4 1_555 1_555
N3_6 Zn4 1_555 1_555
N5_6 Zn4 1_555 1_555
N1_6 C1_6 1_555 1_555
C1_6 N2_6 1_555 1_555
C2_6 C1_6 1_555 1_555
H1_6 C2_6 1_555 1_555
H2_6 C2_6 1_555 1_555
H3_6 C2_6 1_555 1_555
Zn2_6 N1_6 1_555 1_555
N4_6 N2_6 1_555 1_555
C3_6 N1_6 1_555 1_555
C4_6 C3_6 1_555 1_555
H4_6 C4_6 1_555 1_555
H5_6 C4_6 1_555 1_555
H6_6 C4_6 1_555 1_555
Zn3_2 N4_6 1_555 1_555
N4_6 C3_6 1_555 1_555
N3_7 Zn3_4 1_555 1_555
N3_8 Zn3_5 1_555 1_555
N3_9 Zn3 1_555 1_555
N3_10 Zn3_2 1_555 1_555
N3_11 Zn3_3 1_555 1_555
N1_7 C1_7 1_555 1_555
C1_7 N5_2 1_555 1_555
C2_7 C1_7 1_555 1_555
H1_7 C2_7 1_555 1_555
H2_7 C2_7 1_555 1_555
H3_7 C2_7 1_555 1_555
Zn2_7 N1_7 1_555 1_555
N5_5 N5_2 1_555 1_555
C3_7 N1_7 1_555 1_555
C4_7 C3_7 1_555 1_555
H4_7 C4_7 1_555 1_555
H5_7 C4_7 1_555 1_555
H6_7 C4_7 1_555 1_555
N5_5 C3_7 1_555 1_555
Zn2_8 N1_8 1_555 1_555
C3_8 N1_8 1_555 1_555
C4_8 C3_8 1_555 1_555
H4_8 C4_8 1_555 1_555
H5_8 C4_8 1_555 1_555
H6_8 C4_8 1_555 1_555
N5_6 C3_8 1_555 1_555
N1_9 C1_8 1_555 1_555
C1_8 N5 1_555 1_555
C2_8 C1_8 1_555 1_555
H1_8 C2_8 1_555 1_555
H2_8 C2_8 1_555 1_555
H3_8 C2_8 1_555 1_555
Zn2_9 N1_9 1_555 1_555
N1_10 C1_9 1_555 1_555
C1_9 N5_3 1_555 1_555
C2_9 C1_9 1_555 1_555
H1_9 C2_9 1_555 1_555
H2_9 C2_9 1_555 1_555
H3_9 C2_9 1_555 1_555
Zn2_10 N1_10 1_555 1_555
Zn2_11 N1_11 1_555 1_555
C3_9 N1_11 1_555 1_555
C4_9 C3_9 1_555 1_555
H4_9 C4_9 1_555 1_555
H5_9 C4_9 1_555 1_555
H6_9 C4_9 1_555 1_555
N5_4 C3_9 1_555 1_555
Zn2_2 F1_6 1_555 1_555
N5_7 Zn2_2 1_555 1_555
Zn2_8 F2_7 1_555 1_555
F1_7 Zn2_4 1_555 1_555
H1_10 C2_10 1_555 1_555
H2_10 C2_10 1_555 1_555
H3_10 C2_10 1_555 1_555
N3_3 C1_10 1_555 1_555
C1_10 N2_7 1_555 1_555
N4_7 N2_7 1_555 1_555
C3_10 N3_3 1_555 1_555
C4_10 C3_10 1_555 1_555
H4_10 C4_10 1_555 1_555
H5_10 C4_10 1_555 1_555
H6_10 C4_10 1_555 1_555
Zn2_9 N4_7 1_555 1_555
N4_7 C3_10 1_555 1_555
Zn2_3 F1_8 1_555 1_555
F1_8 Zn2_6 1_555 1_555
H1_11 C2_11 1_555 1_555
H2_11 C2_11 1_555 1_555
H3_11 C2_11 1_555 1_555
N5_8 Zn2_3 1_555 1_555
N3 C1_11 1_555 1_555
C1_11 N2_8 1_555 1_555
Zn2_7 F2_8 1_555 1_555
N4_8 N2_8 1_555 1_555
C3_11 N3 1_555 1_555
C4_11 C3_11 1_555 1_555
H4_11 C4_11 1_555 1_555
H5_11 C4_11 1_555 1_555
H6_11 C4_11 1_555 1_555
Zn2_7 N4_8 1_555 1_555
N4_8 C3_11 1_555 1_555
F1_9 Zn2_5 1_555 1_555
H1_12 C2_12 1_555 1_555
H2_12 C2_12 1_555 1_555
H3_12 C2_12 1_555 1_555
N3_2 C1_12 1_555 1_555
C1_12 N2_9 1_555 1_555
N4_9 N2_9 1_555 1_555
C3_12 N3_2 1_555 1_555
C4_12 C3_12 1_555 1_555
H4_12 C4_12 1_555 1_555
H5_12 C4_12 1_555 1_555
H6_12 C4_12 1_555 1_555
Zn2_10 N4_9 1_555 1_555
N4_9 C3_12 1_555 1_555
Zn2 F1_10 1_555 1_555
N5_9 Zn2 1_555 1_555
Zn2_11 F2_9 1_555 1_555
Zn2_10 F2_10 1_555 1_555
F2_10 Zn2_5 1_555 1_555
N5_10 Zn2_5 1_555 1_555
N3_6 C1_13 1_555 1_555
C1_13 N2_10 1_555 1_555
C2_13 C1_13 1_555 1_555
H1_13 C2_13 1_555 1_555
H2_13 C2_13 1_555 1_555
H3_13 C2_13 1_555 1_555
N4_10 N2_10 1_555 1_555
C3_13 N3_6 1_555 1_555
C4_13 C3_13 1_555 1_555
H4_13 C4_13 1_555 1_555
H5_13 C4_13 1_555 1_555
H6_13 C4_13 1_555 1_555
Zn2_11 N4_10 1_555 1_555
N4_10 C3_13 1_555 1_555
N3_4 C1_14 1_555 1_555
N2_11 Zn2_6 1_555 1_555
C1_14 N2_11 1_555 1_555
C2_14 C1_14 1_555 1_555
H1_14 C2_14 1_555 1_555
H2_14 C2_14 1_555 1_555
H3_14 C2_14 1_555 1_555
Zn2_7 F2_11 1_555 1_555
F2_11 Zn2_6 1_555 1_555
N4_11 N2_11 1_555 1_555
N5_11 Zn2_6 1_555 1_555
C3_14 N3_4 1_555 1_555
C4_14 C3_14 1_555 1_555
H4_14 C4_14 1_555 1_555
H5_14 C4_14 1_555 1_555
H6_14 C4_14 1_555 1_555
Zn2_7 N4_11 1_555 1_555
N4_11 C3_14 1_555 1_555
N3_5 C1_15 1_555 1_555
C1_15 N2_12 1_555 1_555
C2_15 C1_15 1_555 1_555
H1_15 C2_15 1_555 1_555
H2_15 C2_15 1_555 1_555
H3_15 C2_15 1_555 1_555
N4_12 N2_12 1_555 1_555
C3_15 N3_5 1_555 1_555
C4_15 C3_15 1_555 1_555
H4_15 C4_15 1_555 1_555
H5_15 C4_15 1_555 1_555
H6_15 C4_15 1_555 1_555
Zn2_8 N4_12 1_555 1_555
N4_12 C3_15 1_555 1_555
Zn2_9 F2_12 1_555 1_555
F2_12 Zn2_4 1_555 1_555
N5_12 Zn2_4 1_555 1_555
N3_11 C1_16 1_555 1_555
C1_16 N5_8 1_555 1_555
C2_16 C1_16 1_555 1_555
H1_16 C2_16 1_555 1_555
H2_16 C2_16 1_555 1_555
H3_16 C2_16 1_555 1_555
N5_11 N5_8 1_555 1_555
C3_16 N3_11 1_555 1_555
C4_16 C3_16 1_555 1_555
H4_16 C4_16 1_555 1_555
H5_16 C4_16 1_555 1_555
H6_16 C4_16 1_555 1_555
N5_11 C3_16 1_555 1_555
N3_9 C1_17 1_555 1_555
C1_17 N5_7 1_555 1_555
C2_17 C1_17 1_555 1_555
H1_17 C2_17 1_555 1_555
H2_17 C2_17 1_555 1_555
H3_17 C2_17 1_555 1_555
C3_17 N3_10 1_555 1_555
C4_17 C3_17 1_555 1_555
H4_17 C4_17 1_555 1_555
H5_17 C4_17 1_555 1_555
H6_17 C4_17 1_555 1_555
N5_12 C3_17 1_555 1_555
C3_18 N3_7 1_555 1_555
C4_18 C3_18 1_555 1_555
H4_18 C4_18 1_555 1_555
H5_18 C4_18 1_555 1_555
H6_18 C4_18 1_555 1_555
N5_10 C3_18 1_555 1_555
N3_8 C1_18 1_555 1_555
C1_18 N5_9 1_555 1_555
C2_18 C1_18 1_555 1_555
H1_18 C2_18 1_555 1_555
H2_18 C2_18 1_555 1_555
H3_18 C2_18 1_555 1_555

#END
