
###############################################################################
#
# This file contains modified crystal structure data generated from the
# MOF subset of the Cambridge Structural Database (CSD) v543 
# hosted by the Cambridge Crystallographic Data Centre (CCDC).
#
# This work is licensed under the Creative Commons
# Attribution-NonCommercial-ShareAlike 4.0 International License.
# To view a copy of this license, visit
# http://creativecommons.org/licenses/by-nc-sa/4.0/
# or send a letter to
# Creative Commons, PO Box 1866, Mountain View, CA 94042, USA.
#
# CIF created using the CSD Python API on 29 September 2022
# The structure has been converted into the P1 space group
# The structure has a 3D framework
# The original CSD entry YUBGIN is in the triclinic crystal system
# The framework has been calculated to contain at least 10.0% void space
# The void calculation uses a probe of radius 1.32A, grid spacing 0.4
#
###############################################################################

data_YUBGIN
_chemical_formula_moiety         '(C32 H18 O24 U4)n'
_symmetry_cell_setting           triclinic
_symmetry_space_group_name_H-M   'P 1'
_symmetry_Int_Tables_number      1
_space_group_name_Hall           'P 1'
loop_
_symmetry_equiv_pos_site_id
_symmetry_equiv_pos_as_xyz
1 x,y,z
_cell_length_a                   9.6655(19)
_cell_length_b                   11.002(2)
_cell_length_c                   15.304(3)
_cell_angle_alpha                108.95(3)
_cell_angle_beta                 95.14(3)
_cell_angle_gamma                109.32(3)
_cell_volume                     1416.71
loop_
_atom_site_label
_atom_site_type_symbol
_atom_site_fract_x
_atom_site_fract_y
_atom_site_fract_z
O1 O 0.0525(12) 0.2643(13) 0.1991(9)
U4 U 0.11330(6) 0.81096(5) 0.88625(4)
O15 O 0.0274(17) 0.1823(13) 0.9995(10)
U3 U 0.88670(6) 0.18904(5) 0.11375(4)
O2 O 0.7238(16) 0.1144(14) 0.0281(10)
O3 O 0.8256(11) 0.3857(10) 0.2053(8)
O4 O 0.9393(12) 0.4076(10) 0.0892(7)
C1 C 0.8836(16) 0.4583(14) 0.1576(11)
C2 C 0.8851(16) 0.6006(14) 0.1832(11)
C3 C 0.9087(16) 0.6668(14) 0.1190(11)
H1 H 0.9244 0.6215 0.0602
C4 C 0.9091(16) 0.7981(14) 0.1420(11)
C5 C 0.887(2) 0.8652(17) 0.2300(12)
H2 H 0.8831 0.9528 0.2448
C6 C 0.871(2) 0.8045(19) 0.2954(13)
H3 H 0.8644 0.8535 0.3562
C7 C 0.8632(19) 0.6670(16) 0.2699(12)
H4 H 0.8436 0.6218 0.3119
C8 C 0.9305(19) 0.8689(15) 0.0734(12)
O5 O 0.9040(16) 0.9753(12) 0.0884(9)
O6 O 0.9726(17) 0.8177(13) 0.0005(10)
C9 C 0.6785(17) 0.0796(16) 0.2729(11)
O12 O 0.7463(13) 0.1128(11) 0.2132(9)
O13 O 0.724(2) 0.157(2) 0.3555(13)
U6 U 0.85028(7) 0.33593(6) 0.50024(4)
U2 U 0.14972(7) 0.66407(6) 0.49976(4)
O7 O 0.2883(16) 0.6009(17) 0.5146(11)
O8 O 0.0163(16) 0.7362(15) 0.4876(10)
H5 H -0.00(2) 0.42(2) 0.354(6)
O10 O 0.1760(12) 0.6302(12) 0.3362(8)
O11 O 0.3253(15) 0.8283(14) 0.4452(10)
C10 C 0.5515(15) 0.9465(14) 0.2462(10)
C11 C 0.4805(16) 0.9095(15) 0.3139(11)
H7 H 0.5158 0.9683 0.3774
C12 C 0.3579(15) 0.7861(15) 0.2877(11)
C13 C 0.2999(19) 0.7018(18) 0.1923(12)
H8 H 0.2158 0.6198 0.1744
C14 C 0.367(2) 0.7397(19) 0.1243(13)
H9 H 0.3286 0.6827 0.0606
C15 C 0.4923(18) 0.8637(17) 0.1510(12)
H10 H 0.5360 0.8906 0.1051
C16 C 0.2812(18) 0.7478(16) 0.3602(12)
O16 O 0.0236(14) 0.5580(14) 0.5934(8)
O17 O 0.276(2) 0.843(2) 0.6445(13)
O9 O 0.9764(14) 0.4420(14) 0.4066(8)
H5_2 H 1.00(2) 0.42(2) 0.354(6)
H6 H 0.896(14) 0.46(2) 0.403(12)
H5_3 H 0.00(2) 0.58(2) 0.646(6)
H6_2 H 0.104(14) 0.54(2) 0.597(12)
O7_2 O 0.7117(16) 0.3991(17) 0.4854(11)
O8_2 O 0.9837(16) 0.2638(15) 0.5124(10)
H5_4 H 1.00(2) 0.58(2) 0.646(6)
O10_2 O 0.8240(12) 0.3698(12) 0.6638(8)
O11_2 O 0.6747(15) 0.1717(14) 0.5548(10)
C10_2 C 0.4485(15) 0.0535(14) 0.7538(10)
C11_2 C 0.5195(16) 0.0905(15) 0.6861(11)
H7_2 H 0.4842 0.0317 0.6226
C12_2 C 0.6421(15) 0.2139(15) 0.7123(11)
C13_2 C 0.7001(19) 0.2982(18) 0.8077(12)
H8_2 H 0.7842 0.3802 0.8256
C14_2 C 0.633(2) 0.2603(19) 0.8757(13)
H9_2 H 0.6714 0.3173 0.9394
C15_2 C 0.5077(18) 0.1363(17) 0.8490(12)
H10_2 H 0.4640 0.1094 0.8949
C16_2 C 0.7188(18) 0.2522(16) 0.6398(12)
O14 O 0.0960(16) 0.0247(12) 0.9116(9)
O2_2 O 0.2762(16) 0.8856(14) 0.9719(10)
O3_2 O 0.1744(11) 0.6143(10) 0.7947(8)
O4_2 O 0.0607(12) 0.5924(10) 0.9108(7)
C1_2 C 0.1164(16) 0.5417(14) 0.8424(11)
C2_2 C 0.1149(16) 0.3994(14) 0.8168(11)
C3_2 C 0.0913(16) 0.3332(14) 0.8810(11)
H1_2 H 0.0756 0.3785 0.9398
C4_2 C 0.0909(16) 0.2019(14) 0.8580(11)
C5_2 C 0.113(2) 0.1348(17) 0.7700(12)
H2_2 H 0.1169 0.0472 0.7552
C6_2 C 0.129(2) 0.1955(19) 0.7046(13)
H3_2 H 0.1356 0.1465 0.6438
C7_2 C 0.1368(19) 0.3330(16) 0.7301(12)
H4_2 H 0.1564 0.3782 0.6881
C8_2 C 0.0695(19) 0.1311(15) 0.9266(12)
C9_2 C 0.3215(17) 0.9204(16) 0.7271(11)
O12_2 O 0.2537(13) 0.8872(11) 0.7868(9)
O1_2 O 0.9475(12) 0.7357(13) 0.8009(9)
loop_
_geom_bond_atom_site_label_1
_geom_bond_atom_site_label_2
_geom_bond_site_symmetry_1
_geom_bond_site_symmetry_2
O2 U3 1_555 1_555
O3 U3 1_555 1_555
O4 U3 1_555 1_555
C1 O3 1_555 1_555
C2 C1 1_555 1_555
C3 C2 1_555 1_555
H1 C3 1_555 1_555
C4 C3 1_555 1_555
C5 C4 1_555 1_555
H2 C5 1_555 1_555
C6 C5 1_555 1_555
H3 C6 1_555 1_555
C7 C2 1_555 1_555
H4 C7 1_555 1_555
C8 C4 1_555 1_555
O5 C8 1_555 1_555
O6 C8 1_555 1_555
O12 U3 1_555 1_555
O13 C9 1_555 1_555
U6 O13 1_555 1_555
O4 C1 1_555 1_555
C6 C7 1_555 1_555
C9 O12 1_555 1_555
U2 O7 1_555 1_555
O8 U2 1_555 1_555
O10 U2 1_555 1_555
O11 U2 1_555 1_555
C10 C11 1_555 1_555
C11 H7 1_555 1_555
C12 C11 1_555 1_555
C13 C12 1_555 1_555
H8 C13 1_555 1_555
C14 C13 1_555 1_555
H9 C14 1_555 1_555
C15 C10 1_555 1_555
H10 C15 1_555 1_555
C16 O10 1_555 1_555
O16 U2 1_555 1_555
O17 U2 1_555 1_555
O11 C16 1_555 1_555
C12 C16 1_555 1_555
C14 C15 1_555 1_555
H5_2 O9 1_555 1_555
H6 O9 1_555 1_555
U6 O9 1_555 1_555
H5_3 O16 1_555 1_555
H6_2 O16 1_555 1_555
U6 O7_2 1_555 1_555
O8_2 U6 1_555 1_555
O10_2 U6 1_555 1_555
O11_2 U6 1_555 1_555
C10_2 C11_2 1_555 1_555
C11_2 H7_2 1_555 1_555
C12_2 C11_2 1_555 1_555
C13_2 C12_2 1_555 1_555
H8_2 C13_2 1_555 1_555
C14_2 C13_2 1_555 1_555
H9_2 C14_2 1_555 1_555
C15_2 C10_2 1_555 1_555
H10_2 C15_2 1_555 1_555
C16_2 O10_2 1_555 1_555
O11_2 C16_2 1_555 1_555
C12_2 C16_2 1_555 1_555
C14_2 C15_2 1_555 1_555
O2_2 U4 1_555 1_555
O3_2 U4 1_555 1_555
O4_2 U4 1_555 1_555
C1_2 O3_2 1_555 1_555
C2_2 C1_2 1_555 1_555
C3_2 C2_2 1_555 1_555
H1_2 C3_2 1_555 1_555
C4_2 C3_2 1_555 1_555
C5_2 C4_2 1_555 1_555
H2_2 C5_2 1_555 1_555
C6_2 C5_2 1_555 1_555
H3_2 C6_2 1_555 1_555
C7_2 C2_2 1_555 1_555
H4_2 C7_2 1_555 1_555
C8_2 C4_2 1_555 1_555
O14 C8_2 1_555 1_555
O15 C8_2 1_555 1_555
O12_2 U4 1_555 1_555
O17 C9_2 1_555 1_555
O4_2 C1_2 1_555 1_555
C6_2 C7_2 1_555 1_555
C9_2 O12_2 1_555 1_555

#END
