
###############################################################################
#
# This file contains modified crystal structure data generated from the
# MOF subset of the Cambridge Structural Database (CSD) v543 
# hosted by the Cambridge Crystallographic Data Centre (CCDC).
#
# This work is licensed under the Creative Commons
# Attribution-NonCommercial-ShareAlike 4.0 International License.
# To view a copy of this license, visit
# http://creativecommons.org/licenses/by-nc-sa/4.0/
# or send a letter to
# Creative Commons, PO Box 1866, Mountain View, CA 94042, USA.
#
# CIF created using the CSD Python API on 29 September 2022
# The structure has been converted into the P1 space group
# The structure has a 3D framework
# The original CSD entry YUBGOU is in the monoclinic crystal system
# The framework has been calculated to contain at least 10.0% void space
# The void calculation uses a probe of radius 1.32A, grid spacing 0.4
#
###############################################################################

data_YUBGOU
_chemical_formula_moiety         '(C272 H160 N16 O74 Zn12)n'
_symmetry_cell_setting           triclinic
_symmetry_space_group_name_H-M   'P 1'
_symmetry_Int_Tables_number      1
_space_group_name_Hall           'P 1'
loop_
_symmetry_equiv_pos_site_id
_symmetry_equiv_pos_as_xyz
1 x,y,z
_cell_length_a                   18.3561(13)
_cell_length_b                   17.6069(10)
_cell_length_c                   24.6404(12)
_cell_angle_alpha                90
_cell_angle_beta                 92.611(5)
_cell_angle_gamma                90
_cell_volume                     7955.36
loop_
_atom_site_label
_atom_site_type_symbol
_atom_site_fract_x
_atom_site_fract_y
_atom_site_fract_z
O17 O 0.1418(12) 0.0098(9) 0.2972(7)
O18 O 0.0112(12) 0.2473(10) 0.4707(7)
C46 C 0.0683(13) 0.0585(11) 0.4288(8)
H24 H 0.064708 0.009560 0.442573
C56 C 0.0493(16) 0.1933(14) 0.4310(11)
C61 C 0.0713(16) 0.2086(15) 0.3804(12)
H35 H 0.067157 0.256019 0.363846
C64 C 0.1008(15) 0.1448(13) 0.3561(10)
H38 H 0.122254 0.151055 0.322883
C66 C 0.1396(14) 0.0052(12) 0.3520(8)
C67 C 0.0422(17) 0.1237(12) 0.4569(11)
H40 H 0.021696 0.119633 0.490546
C68 C 0.1001(13) 0.0738(12) 0.3782(9)
Zn14 Zn 0.2324(2) 0.00552(14) 0.24026(10)
O8 O 0.1585(9) 0.9595(8) 0.3849(5)
Zn10 Zn 0.23099(16) 0.88747(12) 0.36980(8)
O3 O 0.7344(8) 0.0115(7) 0.5108(5)
O7 O 0.3330(10) 0.0963(11) 0.1163(6)
C6 C 0.4254(14) 0.0180(11) 0.1562(6)
C9 C 0.5570(14) 0.0358(12) 0.1385(7)
H1 H 0.594068 0.063816 0.123485
C13 C 0.4843(12) 0.0584(10) 0.1314(6)
H2 H 0.473216 0.100781 0.110013
C17 C 0.6011(11) 0.0231(10) 0.5033(6)
C34 C 0.5984(11) 0.0906(9) 0.4806(6)
H14 H 0.641891 0.116524 0.476327
C40 C 0.3509(18) 0.0428(16) 0.1470(11)
O19 O 0.3132(13) 0.0122(12) 0.1827(9)
N5 N 0.3341(9) 0.0874(8) 0.4532(5)
O21 O 0.3987(8) 0.1881(8) 0.4279(5)
C69 C 0.4691(9) 0.0187(9) 0.4923(6)
C70 C 0.4705(11) 0.0873(9) 0.4669(5)
C71 C 0.3300(13) 0.0106(11) 0.4813(6)
N6 N 0.2232(10) 0.2978(7) 0.5556(5)
C72 C 0.4018(12) 0.1258(11) 0.4499(6)
C74 C 0.2486(11) 0.1859(8) 0.4784(6)
C75 C 0.5382(12) 0.1226(9) 0.4640(7)
H41 H 0.540086 0.171328 0.449543
C76 C 0.2667(10) 0.1244(10) 0.4377(7)
H42 H 0.270422 0.146976 0.401988
H43 H 0.227706 0.087246 0.435566
C77 C 0.2348(11) 0.2585(9) 0.4633(7)
H44 H 0.233609 0.272183 0.426781
C78 C 0.2221(12) 0.3134(9) 0.5035(5)
H45 H 0.212376 0.363076 0.492599
C80 C 0.2209(15) 0.2210(8) 0.5661(7)
H47 H 0.204000 0.206562 0.599543
C81 C 0.2409(14) 0.1633(10) 0.5319(6)
H48 H 0.248673 0.113627 0.543632
Zn7 Zn 0.23100(14) 0.12109(11) 0.11654(7)
Zn8 Zn 0.23100(14) 0.37891(11) 0.61654(7)
O45 O 0.1405(10) 0.0073(7) 0.1754(5)
O49 O 0.2437(12) 0.1278(7) 0.2507(5)
Zn1 Zn 0.76900(14) 0.62109(11) 0.38346(7)
O1 O 0.8448(8) 0.5477(7) 0.4089(5)
N1 N 0.6659(9) 0.9126(8) 0.5468(5)
O2 O 0.4004(7) 0.6858(7) 0.5697(5)
N2 N 0.3395(10) 0.5877(7) 0.5360(5)
O4 O 0.2666(9) 0.4874(7) 0.4925(6)
O5 O 0.6013(8) 0.8119(8) 0.5721(5)
C1 C 0.5309(9) 0.9813(9) 0.5077(6)
O6 O 0.2222(9) 0.8171(7) 0.3100(5)
C2 C 0.4007(12) 0.4753(9) 0.4958(6)
C3 C 0.5295(11) 0.9127(9) 0.5331(5)
O9 O 0.6441(9) 0.9538(8) 0.1730(6)
O10 O 0.6655(8) 0.4161(8) 0.1243(5)
C4 C 0.5732(15) 0.9681(12) 0.1695(8)
C5 C 0.6700(13) 0.9894(11) 0.5187(6)
C7 C 0.7290(12) 0.7523(9) 0.2474(6)
C8 C 0.4011(14) 0.6276(11) 0.5461(7)
O11 O 0.7789(8) 0.6935(7) 0.3246(4)
N3 N 0.7768(10) 0.7022(7) 0.4444(5)
N4 N 0.2276(10) 0.8068(10) 0.4269(5)
C10 C 0.4696(14) 0.5908(11) 0.5329(6)
C11 C 0.3270(14) 0.5113(10) 0.5047(7)
C12 C 0.5741(13) 0.4895(11) 0.1597(7)
C14 C 0.6535(14) 0.4676(14) 0.1568(8)
C15 C 0.3981(11) 0.4080(9) 0.4723(6)
H3 H 0.354668 0.382234 0.464443
C16 C 0.5982(12) 0.8742(11) 0.5501(6)
C18 C 0.4645(11) 0.5192(10) 0.5072(6)
O12 O 0.3583(10) 0.5554(9) 0.1692(7)
C19 C 0.7514(11) 0.8141(8) 0.5216(6)
C20 C 0.2519(11) 0.6846(10) 0.5050(6)
O13 O 0.8595(10) 0.5073(7) 0.3246(5)
C21 C 0.2822(13) 0.7554(10) 0.2390(7)
O14 O 0.7127(11) 0.4987(10) 0.1879(6)
C22 C 0.9024(10) 0.4354(9) 0.4011(7)
C23 C 0.4618(12) 0.8774(9) 0.5360(7)
H4 H 0.459914 0.828672 0.550457
C24 C 0.8679(13) 0.5038(10) 0.3771(8)
C25 C 0.4846(14) 0.5821(13) 0.1901(8)
H5 H 0.472695 0.628044 0.206113
C26 C 0.7333(10) 0.8756(10) 0.5623(7)
H6 H 0.729578 0.853024 0.598012
H7 H 0.772294 0.912754 0.564434
C27 C 0.4299(16) 0.5413(12) 0.1684(8)
C28 C 0.7652(11) 0.7415(9) 0.5367(7)
H8 H 0.766391 0.727817 0.573219
C29 C 0.6912(13) 0.7496(11) 0.1989(8)
H9 H 0.684939 0.702815 0.181769
C30 C 0.2664(11) 0.6262(9) 0.5436(6)
H10 H 0.227924 0.588519 0.540317
H11 H 0.266107 0.647583 0.579834
C31 C 0.7569(15) 0.6849(11) 0.2731(7)
C32 C 0.5303(14) 0.6227(9) 0.5406(7)
H12 H 0.529886 0.670891 0.556116
C33 C 0.7779(12) 0.6866(9) 0.4965(5)
H13 H 0.787624 0.636924 0.507401
C35 C 0.4488(14) 0.4751(10) 0.1396(7)
H15 H 0.410976 0.447160 0.123049
C36 C 0.5606(13) 0.5618(11) 0.1909(7)
H16 H 0.597344 0.589964 0.208689
C37 C 0.9050(11) 0.3644(9) 0.3744(8)
H17 H 0.885229 0.358681 0.339181
C38 C 0.5163(14) 0.4497(10) 0.1342(7)
H18 H 0.524858 0.406322 0.113939
O15 O 0.7563(12) 0.6278(7) 0.2493(5)
O16 O 0.2460(12) 0.8828(8) 0.2346(6)
C39 C 0.2454(17) 0.8299(13) 0.2593(9)
C41 C 0.7328(13) 0.8310(10) 0.2742(7)
H19 H 0.750705 0.835362 0.310007
C42 C 0.4475(13) 0.9506(11) 0.1862(6)
H20 H 0.411382 0.920644 0.200583
C43 C 0.5215(14) 0.9275(13) 0.1950(8)
H21 H 0.534009 0.886433 0.217168
C44 C 0.3409(14) 0.6943(11) 0.1674(9)
H22 H 0.361487 0.696522 0.133619
C45 C 0.7119(13) 0.8907(11) 0.2486(8)
H23 H 0.723368 0.937784 0.263717
C47 C 0.6598(12) 0.8174(10) 0.1722(7)
H25 H 0.632929 0.812301 0.139523
C48 C 0.6696(14) 0.8881(12) 0.1948(9)
C49 C 0.3157(13) 0.7610(11) 0.1906(7)
H26 H 0.321509 0.807793 0.173739
C50 C 0.3360(12) 0.6253(12) 0.1930(8)
C51 C 0.2697(13) 0.6828(9) 0.2611(7)
H27 H 0.239970 0.679269 0.290577
C52 C 0.7791(15) 0.7790(8) 0.4339(7)
H28 H 0.796000 0.793438 0.400457
C53 C 0.7591(14) 0.8367(10) 0.4681(6)
H29 H 0.751327 0.886373 0.456368
C54 C 0.2096(14) 0.8150(12) 0.4782(7)
H30 H 0.193846 0.861379 0.491511
C55 C 0.9379(14) 0.3025(12) 0.4020(10)
H31 H 0.934656 0.254104 0.387001
C57 C 0.9722(17) 0.3129(15) 0.4475(11)
C58 C 0.2992(11) 0.6168(11) 0.2412(8)
H32 H 0.294953 0.570146 0.258495
C59 C 0.9313(13) 0.4389(12) 0.4535(9)
H33 H 0.923272 0.481913 0.474342
C60 C 0.2152(14) 0.7526(11) 0.5101(7)
H34 H 0.189373 0.756099 0.541548
C62 C 0.9717(14) 0.3800(13) 0.4756(9)
H36 H 0.997863 0.385429 0.508550
C63 C 0.2665(17) 0.6772(13) 0.4519(7)
H37 H 0.284473 0.632434 0.437648
C65 C 0.2514(16) 0.7466(14) 0.4178(8)
H39 H 0.263569 0.740466 0.381811
O20 O 0.2656(8) 0.9885(7) 0.4892(5)
C73 C 0.3989(11) 0.9769(10) 0.4967(6)
C79 C 0.4016(11) 0.9094(9) 0.5194(6)
H46 H 0.358109 0.883476 0.523673
O22 O 0.5996(7) 0.3142(7) 0.4303(5)
N7 N 0.6605(10) 0.4123(7) 0.4640(5)
O23 O 0.7334(9) 0.5126(7) 0.5075(6)
C82 C 0.5993(12) 0.5247(9) 0.5042(6)
C83 C 0.5989(14) 0.3724(11) 0.4539(7)
N8 N 0.7724(10) 0.1932(10) 0.5731(5)
C84 C 0.5304(14) 0.4092(11) 0.4671(6)
C85 C 0.6730(14) 0.4887(10) 0.4953(7)
C86 C 0.6019(11) 0.5920(9) 0.5277(6)
H49 H 0.645332 0.617766 0.535557
C87 C 0.5355(11) 0.4808(10) 0.4928(6)
C88 C 0.7481(11) 0.3154(10) 0.4950(6)
C89 C 0.7336(11) 0.3738(9) 0.4564(6)
H50 H 0.772076 0.411481 0.459683
H51 H 0.733893 0.352417 0.420166
C90 C 0.4697(14) 0.3773(9) 0.4594(7)
H52 H 0.470114 0.329109 0.443884
C91 C 0.7904(14) 0.1850(12) 0.5218(7)
H53 H 0.806154 0.138621 0.508489
C92 C 0.7848(14) 0.2474(11) 0.4899(7)
H54 H 0.810627 0.243901 0.458452
C93 C 0.7335(17) 0.3228(13) 0.5481(7)
H55 H 0.715527 0.367566 0.562352
C94 C 0.7486(16) 0.2534(14) 0.5822(8)
H56 H 0.736431 0.259534 0.618189
Zn5 Zn 0.76901(16) 0.11253(12) 0.63020(8)
O24 O 0.1552(8) 0.4523(7) 0.5911(5)
O25 O 0.7778(9) 0.1829(7) 0.6900(5)
O28 O 0.3559(9) 0.0462(8) 0.8270(6)
O29 O 0.3345(8) 0.5839(8) 0.8757(5)
C95 C 0.4268(15) 0.0319(12) 0.8305(8)
C97 C 0.2710(12) 0.2477(9) 0.7526(6)
O30 O 0.2211(8) 0.3065(7) 0.6754(4)
C99 C 0.4259(13) 0.5105(11) 0.8403(7)
C101 C 0.3465(14) 0.5324(14) 0.8432(8)
O31 O 0.6417(10) 0.4446(9) 0.8308(7)
O32 O 0.1405(10) 0.4927(7) 0.6754(5)
C102 C 0.7178(13) 0.2446(10) 0.7610(7)
O33 O 0.2873(11) 0.5013(10) 0.8121(6)
C103 C 0.0976(10) 0.5646(9) 0.5989(7)
C104 C 0.1321(13) 0.4962(10) 0.6229(8)
C105 C 0.5154(14) 0.4179(13) 0.8099(8)
H59 H 0.527305 0.371956 0.793887
C106 C 0.5701(16) 0.4587(12) 0.8316(8)
C107 C 0.3088(13) 0.2504(11) 0.8011(8)
H60 H 0.315061 0.297185 0.818231
C108 C 0.2431(15) 0.3151(11) 0.7269(7)
C109 C 0.5512(14) 0.5249(10) 0.8604(7)
H61 H 0.589024 0.552840 0.876951
C110 C 0.4394(13) 0.4382(11) 0.8091(7)
H62 H 0.402656 0.410036 0.791311
C111 C 0.0950(11) 0.6356(9) 0.6256(8)
H63 H 0.114771 0.641319 0.660819
C112 C 0.4837(14) 0.5503(10) 0.8658(7)
H64 H 0.475142 0.593678 0.886061
O34 O 0.2437(12) 0.3722(7) 0.7507(5)
O35 O 0.7540(12) 0.1172(8) 0.7654(6)
C113 C 0.7546(17) 0.1701(13) 0.7407(9)
C115 C 0.2672(13) 0.1690(10) 0.7258(7)
H65 H 0.249295 0.164638 0.689993
C116 C 0.5525(13) 0.0494(11) 0.8138(6)
H66 H 0.588618 0.079356 0.799417
C117 C 0.4785(14) 0.0725(13) 0.8050(8)
H67 H 0.465991 0.113567 0.782832
C118 C 0.6591(14) 0.3057(11) 0.8326(9)
H68 H 0.638513 0.303478 0.866381
C119 C 0.2881(13) 0.1093(11) 0.7514(8)
H69 H 0.276632 0.062216 0.736283
C121 C 0.3402(12) 0.1826(10) 0.8278(7)
H71 H 0.367071 0.187699 0.860477
C122 C 0.3304(14) 0.1119(12) 0.8052(9)
C123 C 0.6843(13) 0.2390(11) 0.8094(7)
H72 H 0.678491 0.192207 0.826261
C124 C 0.6640(12) 0.3747(12) 0.8070(8)
C125 C 0.7303(13) 0.3172(9) 0.7389(7)
H73 H 0.760030 0.320731 0.709423
C126 C 0.0621(14) 0.6975(12) 0.5980(10)
H74 H 0.065344 0.745896 0.612999
C128 C 0.0278(17) 0.6871(15) 0.5525(11)
C129 C 0.7008(11) 0.3832(11) 0.7588(8)
H75 H 0.705047 0.429854 0.741505
C130 C 0.0687(13) 0.5611(12) 0.5465(9)
H76 H 0.076728 0.518087 0.525658
C132 C 0.0283(14) 0.6200(13) 0.5244(9)
H78 H 0.002137 0.614571 0.491450
Zn11 Zn 0.76901(16) 0.38747(12) 0.13020(8)
Zn13 Zn 0.23099(16) 0.61253(12) 0.86980(8)
Zn15 Zn 0.7676(2) 0.50552(14) 0.25974(10)
Zn17 Zn 0.2324(2) 0.49448(14) 0.74026(10)
O39 O 0.6670(10) 0.5963(11) 0.3837(6)
O40 O 0.3330(10) 0.4037(11) 0.6163(6)
O42 O 0.8415(9) 0.0405(8) 0.6151(5)
O43 O 0.3345(8) 0.9161(8) 0.3757(5)
O44 O 0.6655(8) 0.0839(8) 0.6243(5)
O47 O 0.2873(11) 0.9987(10) 0.3121(6)
O48 O 0.7127(11) 0.0013(10) 0.6879(6)
Zn6 Zn 0.7676(2) 0.99448(14) 0.75974(10)
O26 O 0.6670(10) 0.9037(11) 0.8837(6)
C96 C 0.5746(14) 0.9820(11) 0.8438(6)
C98 C 0.4430(14) 0.9642(12) 0.8615(7)
H57 H 0.405932 0.936184 0.876515
C100 C 0.5157(12) 0.9416(10) 0.8686(6)
H58 H 0.526784 0.899219 0.889987
C114 C 0.6491(18) 0.9572(16) 0.8530(11)
O38 O 0.6868(13) 0.9878(12) 0.8173(9)
Zn9 Zn 0.76900(14) 0.87891(11) 0.88346(7)
O46 O 0.8595(10) 0.9927(7) 0.8246(5)
O50 O 0.7563(12) 0.8722(7) 0.7493(5)
O52 O 0.8582(12) 0.9902(9) 0.7028(7)
O37 O 0.9888(12) 0.7527(10) 0.5293(7)
C120 C 0.9317(13) 0.9415(11) 0.5712(8)
H70 H 0.935292 0.990440 0.557427
C127 C 0.9507(16) 0.8067(14) 0.5690(11)
C131 C 0.9287(16) 0.7914(15) 0.6196(12)
H77 H 0.932843 0.743981 0.636154
C133 C 0.8992(15) 0.8552(13) 0.6439(10)
H79 H 0.877746 0.848945 0.677117
C134 C 0.8604(14) 0.9948(12) 0.6480(8)
C135 C 0.9578(17) 0.8763(12) 0.5431(11)
H80 H 0.978304 0.880367 0.509454
C136 C 0.8999(13) 0.9262(12) 0.6218(9)
O27 O 0.1585(9) 0.5405(8) 0.8849(5)
O36 O 0.1418(12) 0.4902(9) 0.7972(7)
O37_2 O 0.0112(12) 0.2527(10) 0.9707(7)
C120_2 C 0.0683(13) 0.4415(11) 0.9288(8)
H70_2 H 0.064708 0.490440 0.942573
C127_2 C 0.0493(16) 0.3067(14) 0.9310(11)
C131_2 C 0.0713(16) 0.2914(15) 0.8804(12)
H77_2 H 0.067157 0.243981 0.863846
C133_2 C 0.1008(15) 0.3552(13) 0.8561(10)
H79_2 H 0.122254 0.348945 0.822883
C134_2 C 0.1396(14) 0.4948(12) 0.8520(8)
C135_2 C 0.0422(17) 0.3763(12) 0.9569(11)
H80_2 H 0.021696 0.380367 0.990546
C136_2 C 0.1001(13) 0.4262(12) 0.8782(9)
O1_2 O 0.1552(8) 0.0477(7) 0.0911(5)
O6_2 O 0.7778(9) 0.3171(7) 0.1900(5)
O9_2 O 0.3559(9) 0.4538(8) 0.3270(6)
C4_2 C 0.4268(15) 0.4681(12) 0.3305(8)
C6_2 C 0.5746(14) 0.5180(11) 0.3438(6)
C7_2 C 0.2710(12) 0.2523(9) 0.2526(6)
C9_2 C 0.4430(14) 0.5358(12) 0.3615(7)
H1_2 H 0.405932 0.563816 0.376515
O11_2 O 0.2211(8) 0.1935(7) 0.1754(4)
N3_2 N 0.2232(10) 0.2022(7) 0.0556(5)
N4_2 N 0.7724(10) 0.3068(10) 0.0731(5)
C13_2 C 0.5157(12) 0.5584(10) 0.3686(6)
H2_2 H 0.526784 0.600781 0.389987
O12_2 O 0.6417(10) 0.0554(9) 0.3308(7)
C21_2 C 0.7178(13) 0.2554(10) 0.2610(7)
C24_2 C 0.1321(13) 0.0038(10) 0.1229(8)
C25_2 C 0.5154(14) 0.0821(13) 0.3099(8)
H5_2 H 0.527305 0.128044 0.293887
C27_2 C 0.5701(16) 0.0413(12) 0.3316(8)
C29_2 C 0.3088(13) 0.2496(11) 0.3011(8)
H9_2 H 0.315061 0.202815 0.318231
C31_2 C 0.2431(15) 0.1849(11) 0.2269(7)
C33_2 C 0.2221(12) 0.1866(9) 0.0035(5)
C34_2 C 0.4016(11) 0.5906(9) 0.0194(6)
H14_2 H 0.358109 0.616524 0.023673
C36_2 C 0.4394(13) 0.0618(11) 0.3091(7)
H16_2 H 0.402656 0.089964 0.291311
O16_2 O 0.7540(12) 0.3828(8) 0.2654(6)
C39_2 C 0.7546(17) 0.3299(13) 0.2407(9)
C40_2 C 0.6491(18) 0.5428(16) 0.3530(11)
C41_2 C 0.2672(13) 0.3310(10) 0.2258(7)
H19_2 H 0.249295 0.335362 0.189993
C42_2 C 0.5525(13) 0.4506(11) 0.3138(6)
H20_2 H 0.588618 0.420644 0.299417
C43_2 C 0.4785(14) 0.4275(13) 0.3050(8)
H21_2 H 0.465991 0.386433 0.282832
C44_2 C 0.6591(14) 0.1943(11) 0.3326(9)
H22_2 H 0.638513 0.196522 0.366381
C45_2 C 0.2881(13) 0.3907(11) 0.2514(8)
H23_2 H 0.276632 0.437784 0.236283
C47_2 C 0.3402(12) 0.3174(10) 0.3278(7)
H25_2 H 0.367071 0.312301 0.360477
C48_2 C 0.3304(14) 0.3881(12) 0.3052(9)
C49_2 C 0.6843(13) 0.2610(11) 0.3094(7)
H26_2 H 0.678491 0.307793 0.326261
C50_2 C 0.6640(12) 0.1253(12) 0.3070(8)
C51_2 C 0.7303(13) 0.1828(9) 0.2389(7)
H27_2 H 0.760030 0.179269 0.209423
C52_2 C 0.2209(15) 0.2790(8) 0.0661(7)
H28_2 H 0.204000 0.293438 0.099543
C53_2 C 0.2409(14) 0.3367(10) 0.0319(6)
H29_2 H 0.248673 0.386373 0.043632
O19_2 O 0.6868(13) 0.5122(12) 0.3173(9)
C54_2 C 0.7904(14) 0.3150(12) 0.0218(7)
H30_2 H 0.806154 0.361379 0.008489
C58_2 C 0.7008(11) 0.1168(11) 0.2588(8)
H32_2 H 0.705047 0.070146 0.241505
C63_2 C 0.7335(17) 0.1772(13) 0.0481(7)
H37_2 H 0.715527 0.132434 0.062352
C65_2 C 0.7486(16) 0.2466(14) 0.0822(8)
H39_2 H 0.736431 0.240466 0.118189
N5_2 N 0.6659(9) 0.5874(8) 0.0468(5)
O20_2 O 0.7344(8) 0.4885(7) 0.0108(5)
O21_2 O 0.6013(8) 0.6881(8) 0.0721(5)
C69_2 C 0.5309(9) 0.5187(9) 0.0077(6)
C70_2 C 0.5295(11) 0.5873(9) 0.0331(5)
C71_2 C 0.6700(13) 0.5106(11) 0.0187(6)
C72_2 C 0.5982(12) 0.6258(11) 0.0501(6)
C73_2 C 0.6011(11) 0.4769(10) 0.0033(6)
C74_2 C 0.7514(11) 0.6859(8) 0.0216(6)
C75_2 C 0.4618(12) 0.6226(9) 0.0360(7)
H41_2 H 0.459914 0.671328 0.050457
C76_2 C 0.7333(10) 0.6244(10) 0.0623(7)
H42_2 H 0.729578 0.646976 0.098012
H43_2 H 0.772294 0.587246 0.064434
C77_2 C 0.7652(11) 0.7585(9) 0.0367(7)
H44_2 H 0.766391 0.772183 0.073219
H45_2 H 0.787624 0.863076 0.007401
H78_2 H 0.997863 0.114571 0.008550
O41 O 0.8415(9) 0.4595(8) 0.1151(5)
O51 O 0.8582(12) 0.5098(9) 0.2028(7)
N1_2 N 0.3341(9) 0.4126(8) 0.9532(5)
O2_2 O 0.5996(7) 0.1858(7) 0.9303(5)
N2_2 N 0.6605(10) 0.0877(7) 0.9640(5)
O3_2 O 0.2656(8) 0.5115(7) 0.9892(5)
O5_2 O 0.3987(8) 0.3119(8) 0.9279(5)
C1_2 C 0.4691(9) 0.4813(9) 0.9923(6)
C3_2 C 0.4705(11) 0.4127(9) 0.9669(5)
C5_2 C 0.3300(13) 0.4894(11) 0.9813(6)
C8_2 C 0.5989(14) 0.1276(11) 0.9539(7)
C10_2 C 0.5304(14) 0.0908(11) 0.9671(6)
C11_2 C 0.6730(14) 0.0113(10) 0.9953(7)
C16_2 C 0.4018(12) 0.3742(11) 0.9499(6)
C17_2 C 0.3989(11) 0.5231(10) 0.9967(6)
C18_2 C 0.5355(11) 0.0192(10) 0.9928(6)
C19_2 C 0.2486(11) 0.3141(8) 0.9784(6)
C20_2 C 0.7481(11) 0.1846(10) 0.9950(6)
C23_2 C 0.5382(12) 0.3774(9) 0.9640(7)
H4_2 H 0.540086 0.328672 0.949543
C26_2 C 0.2667(10) 0.3756(10) 0.9377(7)
H6_2 H 0.270422 0.353024 0.901988
H7_2 H 0.227706 0.412754 0.935566
C28_2 C 0.2348(11) 0.2415(9) 0.9633(7)
H8_2 H 0.233609 0.227817 0.926781
C30_2 C 0.7336(11) 0.1262(9) 0.9564(6)
H10_2 H 0.772076 0.088519 0.959683
H11_2 H 0.733893 0.147583 0.920166
C32_2 C 0.4697(14) 0.1227(9) 0.9594(7)
H12_2 H 0.470114 0.170891 0.943884
H13_2 H 0.212376 0.136924 0.992599
C60_2 C 0.7848(14) 0.2526(11) 0.9899(7)
H34_2 H 0.810627 0.256099 0.958452
N6_2 N 0.7768(10) 0.7978(7) 0.9444(5)
C78_2 C 0.7779(12) 0.8134(9) 0.9965(5)
C79_2 C 0.5984(11) 0.4094(9) 0.9806(6)
H46_2 H 0.641891 0.383476 0.976327
C80_2 C 0.7791(15) 0.7210(8) 0.9339(7)
H47_2 H 0.796000 0.706562 0.900457
C81_2 C 0.7591(14) 0.6633(10) 0.9681(6)
H48_2 H 0.751327 0.613627 0.956368
O23_2 O 0.2666(9) 0.0126(7) 0.9925(6)
C82_2 C 0.4007(12) 0.0247(9) 0.9958(6)
C86_2 C 0.3981(11) 0.0920(9) 0.9723(6)
H49_2 H 0.354668 0.117766 0.964443
C99_2 C 0.5741(13) 0.0105(11) 0.6597(7)
C101_2 C 0.6535(14) 0.0324(14) 0.6568(8)
C103_2 C 0.9024(10) 0.0646(9) 0.9011(7)
C109_2 C 0.4488(14) 0.0249(10) 0.6396(7)
H61_2 H 0.410976 0.052840 0.623049
C111_2 C 0.9050(11) 0.1356(9) 0.8744(8)
H63_2 H 0.885229 0.141319 0.839181
C112_2 C 0.5163(14) 0.0503(10) 0.6342(7)
H64_2 H 0.524858 0.093678 0.613939
C126_2 C 0.9379(14) 0.1975(12) 0.9020(10)
H74_2 H 0.934656 0.245896 0.887001
C128_2 C 0.9722(17) 0.1871(15) 0.9475(11)
C130_2 C 0.9313(13) 0.0611(12) 0.9535(9)
H76_2 H 0.923272 0.018087 0.974342
C132_2 C 0.9717(14) 0.1200(13) 0.9756(9)
O4_2 O 0.7334(9) 0.9874(7) 0.0075(6)
C2_2 C 0.5993(12) 0.9753(9) 0.0042(6)
C12_2 C 0.4259(13) 0.9895(11) 0.3403(7)
C14_2 C 0.3465(14) 0.9676(14) 0.3432(8)
C15_2 C 0.6019(11) 0.9080(9) 0.0277(6)
H3_2 H 0.645332 0.882234 0.035557
C22_2 C 0.0976(10) 0.9354(9) 0.0989(7)
C35_2 C 0.5512(14) 0.9751(10) 0.3604(7)
H15_2 H 0.589024 0.947160 0.376951
C37_2 C 0.0950(11) 0.8644(9) 0.1256(8)
H17_2 H 0.114771 0.858681 0.160819
C38_2 C 0.4837(14) 0.9497(10) 0.3658(7)
H18_2 H 0.475142 0.906322 0.386061
C55_2 C 0.0621(14) 0.8025(12) 0.0980(10)
H31_2 H 0.065344 0.754104 0.112999
C57_2 C 0.0278(17) 0.8129(15) 0.0525(11)
C59_2 C 0.0687(13) 0.9389(12) 0.0465(9)
H33_2 H 0.076728 0.981913 0.025658
C62_2 C 0.0283(14) 0.8800(13) 0.0244(9)
O22_2 O 0.4004(7) 0.8142(7) 0.0697(5)
N7_2 N 0.3395(10) 0.9123(7) 0.0360(5)
C83_2 C 0.4011(14) 0.8724(11) 0.0461(7)
C84_2 C 0.4696(14) 0.9092(11) 0.0329(6)
C85_2 C 0.3270(14) 0.9887(10) 0.0047(7)
C87_2 C 0.4645(11) 0.9808(10) 0.0072(6)
C88_2 C 0.2519(11) 0.8154(10) 0.0050(6)
C89_2 C 0.2664(11) 0.8738(9) 0.0436(6)
H50_2 H 0.227924 0.911481 0.040317
H51_2 H 0.266107 0.852417 0.079834
C90_2 C 0.5303(14) 0.8773(9) 0.0406(7)
H52_2 H 0.529886 0.829109 0.056116
C92_2 C 0.2152(14) 0.7474(11) 0.0101(7)
H54_2 H 0.189373 0.743901 0.041548
H36_2 H 0.002137 0.885429 0.991450
N8_2 N 0.2276(10) 0.6932(10) 0.9269(5)
C91_2 C 0.2096(14) 0.6850(12) 0.9782(7)
H53_2 H 0.193846 0.638621 0.991511
C93_2 C 0.2665(17) 0.8228(13) 0.9519(7)
H55_2 H 0.284473 0.867566 0.937648
C94_2 C 0.2514(16) 0.7534(14) 0.9178(8)
H56_2 H 0.263569 0.759534 0.881811
O24_2 O 0.8448(8) 0.9523(7) 0.9089(5)
O25_2 O 0.2222(9) 0.6829(7) 0.8100(5)
O28_2 O 0.6441(9) 0.5462(8) 0.6730(6)
C95_2 C 0.5732(15) 0.5319(12) 0.6695(8)
C96_2 C 0.4254(14) 0.4820(11) 0.6562(6)
C97_2 C 0.7290(12) 0.7477(9) 0.7474(6)
C98_2 C 0.5570(14) 0.4642(12) 0.6385(7)
H57_2 H 0.594068 0.436184 0.623485
O30_2 O 0.7789(8) 0.8065(7) 0.8246(4)
C100_2 C 0.4843(12) 0.4416(10) 0.6314(6)
H58_2 H 0.473216 0.399219 0.610013
O31_2 O 0.3583(10) 0.9446(9) 0.6692(7)
C102_2 C 0.2822(13) 0.7446(10) 0.7390(7)
C104_2 C 0.8679(13) 0.9962(10) 0.8771(8)
C105_2 C 0.4846(14) 0.9179(13) 0.6901(8)
H59_2 H 0.472695 0.871956 0.706113
C106_2 C 0.4299(16) 0.9587(12) 0.6684(8)
C107_2 C 0.6912(13) 0.7504(11) 0.6989(8)
H60_2 H 0.684939 0.797185 0.681769
C108_2 C 0.7569(15) 0.8151(11) 0.7731(7)
C110_2 C 0.5606(13) 0.9382(11) 0.6909(7)
H62_2 H 0.597344 0.910036 0.708689
O35_2 O 0.2460(12) 0.6172(8) 0.7346(6)
C113_2 C 0.2454(17) 0.6701(13) 0.7593(9)
C114_2 C 0.3509(18) 0.4572(16) 0.6470(11)
C115_2 C 0.7328(13) 0.6690(10) 0.7742(7)
H65_2 H 0.750705 0.664638 0.810007
C116_2 C 0.4475(13) 0.5494(11) 0.6862(6)
H66_2 H 0.411382 0.579356 0.700583
C117_2 C 0.5215(14) 0.5725(13) 0.6950(8)
H67_2 H 0.534009 0.613567 0.717168
C118_2 C 0.3409(14) 0.8057(11) 0.6674(9)
H68_2 H 0.361487 0.803478 0.633619
C119_2 C 0.7119(13) 0.6093(11) 0.7486(8)
H69_2 H 0.723368 0.562216 0.763717
C121_2 C 0.6598(12) 0.6826(10) 0.6722(7)
H71_2 H 0.632929 0.687699 0.639523
C122_2 C 0.6696(14) 0.6119(12) 0.6948(9)
C123_2 C 0.3157(13) 0.7390(11) 0.6906(7)
H72_2 H 0.321509 0.692207 0.673739
C124_2 C 0.3360(12) 0.8747(12) 0.6930(8)
C125_2 C 0.2697(13) 0.8172(9) 0.7611(7)
H73_2 H 0.239970 0.820731 0.790577
O38_2 O 0.3132(13) 0.4878(12) 0.6827(9)
C129_2 C 0.2992(11) 0.8832(11) 0.7412(8)
H75_2 H 0.294953 0.929854 0.758495
O18_2 O 0.9888(12) 0.7473(10) 0.0293(7)
C46_2 C 0.9317(13) 0.5585(11) 0.0712(8)
H24_2 H 0.935292 0.509560 0.057427
C56_2 C 0.9507(16) 0.6933(14) 0.0690(11)
C61_2 C 0.9287(16) 0.7086(15) 0.1196(12)
H35_2 H 0.932843 0.756019 0.136154
C64_2 C 0.8992(15) 0.6448(13) 0.1439(10)
H38_2 H 0.877746 0.651055 0.177117
C66_2 C 0.8604(14) 0.5052(12) 0.1480(8)
C67_2 C 0.9578(17) 0.6237(12) 0.0431(11)
H40_2 H 0.978304 0.619633 0.009454
C68_2 C 0.8999(13) 0.5738(12) 0.1218(9)
loop_
_geom_bond_atom_site_label_1
_geom_bond_atom_site_label_2
_geom_bond_site_symmetry_1
_geom_bond_site_symmetry_2
O17 C66 1_555 1_555
O18 C56 1_555 1_555
C46 H24 1_555 1_555
C56 C61 1_555 1_555
C61 H35 1_555 1_555
C64 C61 1_555 1_555
H38 C64 1_555 1_555
C66 C68 1_555 1_555
C67 C46 1_555 1_555
H40 C67 1_555 1_555
C68 C46 1_555 1_555
Zn14 O17 1_555 1_555
C56 C67 1_555 1_555
C64 C68 1_555 1_555
Zn10 O8 1_555 1_555
O7 C40 1_555 1_555
C6 C13 1_555 1_555
C9 H1 1_555 1_555
C13 C9 1_555 1_555
H2 C13 1_555 1_555
C34 C17 1_555 1_555
H14 C34 1_555 1_555
C40 C6 1_555 1_555
O19 Zn14 1_555 1_555
N5 C71 1_555 1_555
O21 C72 1_555 1_555
C70 C69 1_555 1_555
N6 C78 1_555 1_555
C72 N5 1_555 1_555
C74 C76 1_555 1_555
C75 C34 1_555 1_555
H41 C75 1_555 1_555
C76 N5 1_555 1_555
H42 C76 1_555 1_555
H43 C76 1_555 1_555
C77 C74 1_555 1_555
H44 C77 1_555 1_555
C78 C77 1_555 1_555
H45 C78 1_555 1_555
C80 N6 1_555 1_555
H47 C80 1_555 1_555
C81 C74 1_555 1_555
H48 C81 1_555 1_555
Zn7 O7 1_555 1_555
Zn8 N6 1_555 1_555
O45 Zn14 1_555 1_555
O49 Zn14 1_555 1_555
C40 O19 1_555 1_555
C70 C72 1_555 1_555
C70 C75 1_555 1_555
C80 C81 1_555 1_555
Zn1 O1 1_555 1_555
Zn10 O6 1_555 1_555
O1 C24 1_555 1_555
N1 C5 1_555 1_555
O2 C8 1_555 1_555
N2 C8 1_555 1_555
O4 C11 1_555 1_555
O5 C16 1_555 1_555
C1 C3 1_555 1_555
O6 C39 1_555 1_555
C2 C11 1_555 1_555
C3 C16 1_555 1_555
O9 C4 1_555 1_555
O10 C14 1_555 1_555
C7 C29 1_555 1_555
C8 C10 1_555 1_555
O11 Zn1 1_555 1_555
N3 Zn1 1_555 1_555
N4 Zn10 1_555 1_555
C10 C18 1_555 1_555
C11 N2 1_555 1_555
C12 C14 1_555 1_555
C14 O14 1_555 1_555
C15 C2 1_555 1_555
H3 C15 1_555 1_555
C16 N1 1_555 1_555
C18 C2 1_555 1_555
O12 C27 1_555 1_555
C19 C26 1_555 1_555
C20 C30 1_555 1_555
O13 C24 1_555 1_555
C21 C39 1_555 1_555
O14 Zn15 1_555 1_555
C22 C24 1_555 1_555
C23 C3 1_555 1_555
H4 C23 1_555 1_555
C25 H5 1_555 1_555
C26 N1 1_555 1_555
H6 C26 1_555 1_555
H7 C26 1_555 1_555
C27 C25 1_555 1_555
C28 C19 1_555 1_555
H8 C28 1_555 1_555
C29 H9 1_555 1_555
C30 N2 1_555 1_555
H10 C30 1_555 1_555
H11 C30 1_555 1_555
C31 C7 1_555 1_555
C32 C10 1_555 1_555
H12 C32 1_555 1_555
C33 N3 1_555 1_555
H13 C33 1_555 1_555
C35 C27 1_555 1_555
H15 C35 1_555 1_555
C36 C12 1_555 1_555
H16 C36 1_555 1_555
C37 C22 1_555 1_555
H17 C37 1_555 1_555
C38 C12 1_555 1_555
H18 C38 1_555 1_555
O15 C31 1_555 1_555
O16 C39 1_555 1_555
C41 C7 1_555 1_555
H19 C41 1_555 1_555
H20 C42 1_555 1_555
C43 C4 1_555 1_555
H21 C43 1_555 1_555
C44 H22 1_555 1_555
C45 C41 1_555 1_555
H23 C45 1_555 1_555
C47 C29 1_555 1_555
H25 C47 1_555 1_555
C48 O9 1_555 1_555
C49 C21 1_555 1_555
H26 C49 1_555 1_555
C50 O12 1_555 1_555
C51 C21 1_555 1_555
H27 C51 1_555 1_555
C52 N3 1_555 1_555
H28 C52 1_555 1_555
C53 C19 1_555 1_555
H29 C53 1_555 1_555
C54 N4 1_555 1_555
H30 C54 1_555 1_555
C55 C37 1_555 1_555
H31 C55 1_555 1_555
C58 C50 1_555 1_555
H32 C58 1_555 1_555
C59 C22 1_555 1_555
H33 C59 1_555 1_555
C60 C20 1_555 1_555
H34 C60 1_555 1_555
C62 C57 1_555 1_555
H36 C62 1_555 1_555
C63 C20 1_555 1_555
H37 C63 1_555 1_555
C65 N4 1_555 1_555
H39 C65 1_555 1_555
C79 C23 1_555 1_555
H46 C79 1_555 1_555
O22 C83 1_555 1_555
N7 C83 1_555 1_555
O23 C85 1_555 1_555
C82 C85 1_555 1_555
C83 C84 1_555 1_555
N8 C91 1_555 1_555
C84 C87 1_555 1_555
C85 N7 1_555 1_555
C86 C32 1_555 1_555
H49 C86 1_555 1_555
C87 C18 1_555 1_555
C88 C89 1_555 1_555
C89 N7 1_555 1_555
H50 C89 1_555 1_555
H51 C89 1_555 1_555
C90 C15 1_555 1_555
H52 C90 1_555 1_555
C91 H53 1_555 1_555
C92 C88 1_555 1_555
H54 C92 1_555 1_555
C93 C88 1_555 1_555
H55 C93 1_555 1_555
C94 N8 1_555 1_555
H56 C94 1_555 1_555
Zn8 O24 1_555 1_555
Zn5 N8 1_555 1_555
O24 C104 1_555 1_555
O25 Zn5 1_555 1_555
O28 C95 1_555 1_555
O29 C101 1_555 1_555
C97 C107 1_555 1_555
O30 Zn8 1_555 1_555
C99 C101 1_555 1_555
C101 O33 1_555 1_555
O31 C106 1_555 1_555
O32 C104 1_555 1_555
C102 C113 1_555 1_555
O33 Zn17 1_555 1_555
C103 C104 1_555 1_555
C105 H59 1_555 1_555
C106 C105 1_555 1_555
C107 H60 1_555 1_555
C108 C97 1_555 1_555
C109 C106 1_555 1_555
H61 C109 1_555 1_555
C110 C99 1_555 1_555
H62 C110 1_555 1_555
C111 C103 1_555 1_555
H63 C111 1_555 1_555
C112 C99 1_555 1_555
H64 C112 1_555 1_555
O34 C108 1_555 1_555
O35 C113 1_555 1_555
C113 O25 1_555 1_555
C115 C97 1_555 1_555
H65 C115 1_555 1_555
H66 C116 1_555 1_555
C117 C95 1_555 1_555
H67 C117 1_555 1_555
C118 H68 1_555 1_555
C119 C115 1_555 1_555
H69 C119 1_555 1_555
C121 C107 1_555 1_555
H71 C121 1_555 1_555
C122 O28 1_555 1_555
C123 C102 1_555 1_555
H72 C123 1_555 1_555
C124 O31 1_555 1_555
C125 C102 1_555 1_555
H73 C125 1_555 1_555
C126 C111 1_555 1_555
H74 C126 1_555 1_555
C129 C124 1_555 1_555
H75 C129 1_555 1_555
C130 C103 1_555 1_555
H76 C130 1_555 1_555
C132 C128 1_555 1_555
H78 C132 1_555 1_555
Zn11 O10 1_555 1_555
Zn13 O29 1_555 1_555
Zn15 O13 1_555 1_555
Zn17 O32 1_555 1_555
O39 Zn1 1_555 1_555
O40 Zn8 1_555 1_555
O42 Zn5 1_555 1_555
O43 Zn10 1_555 1_555
O44 Zn5 1_555 1_555
O11 C31 1_555 1_555
C25 C36 1_555 1_555
C28 C33 1_555 1_555
C35 C38 1_555 1_555
O15 Zn15 1_555 1_555
C42 C43 1_555 1_555
C44 C49 1_555 1_555
C44 C50 1_555 1_555
C45 C48 1_555 1_555
C47 C48 1_555 1_555
C51 C58 1_555 1_555
C52 C53 1_555 1_555
C54 C60 1_555 1_555
C55 C57 1_555 1_555
C59 C62 1_555 1_555
C63 C65 1_555 1_555
C73 C79 1_555 1_555
C82 C86 1_555 1_555
C82 C87 1_555 1_555
C84 C90 1_555 1_555
C91 C92 1_555 1_555
C93 C94 1_555 1_555
O30 C108 1_555 1_555
C105 C110 1_555 1_555
C109 C112 1_555 1_555
O34 Zn17 1_555 1_555
C116 C117 1_555 1_555
C118 C123 1_555 1_555
C118 C124 1_555 1_555
C119 C122 1_555 1_555
C121 C122 1_555 1_555
C125 C129 1_555 1_555
C126 C128 1_555 1_555
C130 C132 1_555 1_555
O26 C114 1_555 1_555
C96 C100 1_555 1_555
C98 H57 1_555 1_555
C100 C98 1_555 1_555
H58 C100 1_555 1_555
C114 C96 1_555 1_555
O38 Zn6 1_555 1_555
Zn9 O26 1_555 1_555
O46 Zn6 1_555 1_555
O50 Zn6 1_555 1_555
O52 Zn6 1_555 1_555
C114 O38 1_555 1_555
O52 C134 1_555 1_555
O37 C127 1_555 1_555
C120 H70 1_555 1_555
C127 C131 1_555 1_555
C131 H77 1_555 1_555
C133 C131 1_555 1_555
H79 C133 1_555 1_555
C134 C136 1_555 1_555
C135 C120 1_555 1_555
H80 C135 1_555 1_555
C136 C120 1_555 1_555
C127 C135 1_555 1_555
C133 C136 1_555 1_555
O27 C134_2 1_555 1_555
O36 C134_2 1_555 1_555
O37_2 C127_2 1_555 1_555
C120_2 H70_2 1_555 1_555
C127_2 C131_2 1_555 1_555
C131_2 H77_2 1_555 1_555
C133_2 C131_2 1_555 1_555
H79_2 C133_2 1_555 1_555
C134_2 C136_2 1_555 1_555
C135_2 C120_2 1_555 1_555
H80_2 C135_2 1_555 1_555
C136_2 C120_2 1_555 1_555
Zn13 O27 1_555 1_555
Zn17 O36 1_555 1_555
C127_2 C135_2 1_555 1_555
C133_2 C136_2 1_555 1_555
Zn7 O1_2 1_555 1_555
Zn11 O6_2 1_555 1_555
Zn15 O16_2 1_555 1_555
O1_2 C24_2 1_555 1_555
O6_2 C39_2 1_555 1_555
O39 C40_2 1_555 1_555
O9_2 C4_2 1_555 1_555
C4_2 C9_2 1_555 1_555
C6_2 C13_2 1_555 1_555
C7_2 C29_2 1_555 1_555
C9_2 H1_2 1_555 1_555
O11_2 Zn7 1_555 1_555
N3_2 Zn7 1_555 1_555
N4_2 Zn11 1_555 1_555
C13_2 C9_2 1_555 1_555
H2_2 C13_2 1_555 1_555
O12_2 C27_2 1_555 1_555
O45 C24_2 1_555 1_555
C21_2 C39_2 1_555 1_555
C25_2 H5_2 1_555 1_555
C27_2 C25_2 1_555 1_555
C29_2 H9_2 1_555 1_555
C31_2 C7_2 1_555 1_555
C33_2 N3_2 1_555 1_555
H14_2 C34_2 1_555 1_555
H16_2 C36_2 1_555 1_555
O49 C31_2 1_555 1_555
O16_2 C39_2 1_555 1_555
C40_2 C6_2 1_555 1_555
C41_2 C7_2 1_555 1_555
H19_2 C41_2 1_555 1_555
C42_2 C6_2 1_555 1_555
H20_2 C42_2 1_555 1_555
C43_2 C4_2 1_555 1_555
H21_2 C43_2 1_555 1_555
C44_2 H22_2 1_555 1_555
C45_2 C41_2 1_555 1_555
H23_2 C45_2 1_555 1_555
C47_2 C29_2 1_555 1_555
H25_2 C47_2 1_555 1_555
C48_2 O9_2 1_555 1_555
C49_2 C21_2 1_555 1_555
H26_2 C49_2 1_555 1_555
C50_2 O12_2 1_555 1_555
C51_2 C21_2 1_555 1_555
H27_2 C51_2 1_555 1_555
C52_2 N3_2 1_555 1_555
H28_2 C52_2 1_555 1_555
H29_2 C53_2 1_555 1_555
O19_2 Zn15 1_555 1_555
C54_2 N4_2 1_555 1_555
H30_2 C54_2 1_555 1_555
C58_2 C50_2 1_555 1_555
H32_2 C58_2 1_555 1_555
H37_2 C63_2 1_555 1_555
C65_2 N4_2 1_555 1_555
H39_2 C65_2 1_555 1_555
N5_2 C71_2 1_555 1_555
O20_2 C71_2 1_555 1_555
O21_2 C72_2 1_555 1_555
C70_2 C69_2 1_555 1_555
C71_2 C73_2 1_555 1_555
C72_2 N5_2 1_555 1_555
C73_2 C69_2 1_555 1_555
C74_2 C76_2 1_555 1_555
C75_2 C34_2 1_555 1_555
H41_2 C75_2 1_555 1_555
C76_2 N5_2 1_555 1_555
H42_2 C76_2 1_555 1_555
H43_2 C76_2 1_555 1_555
C77_2 C74_2 1_555 1_555
H44_2 C77_2 1_555 1_555
O41 Zn11 1_555 1_555
O51 Zn15 1_555 1_555
O11_2 C31_2 1_555 1_555
C25_2 C36_2 1_555 1_555
C40_2 O19_2 1_555 1_555
C42_2 C43_2 1_555 1_555
C44_2 C49_2 1_555 1_555
C44_2 C50_2 1_555 1_555
C45_2 C48_2 1_555 1_555
C47_2 C48_2 1_555 1_555
C51_2 C58_2 1_555 1_555
C52_2 C53_2 1_555 1_555
C63_2 C65_2 1_555 1_555
C70_2 C72_2 1_555 1_555
C70_2 C75_2 1_555 1_555
N1_2 C5_2 1_555 1_555
O2_2 C8_2 1_555 1_555
N2_2 C8_2 1_555 1_555
O3_2 C5_2 1_555 1_555
O5_2 C16_2 1_555 1_555
C1_2 C3_2 1_555 1_555
C3_2 C16_2 1_555 1_555
C5_2 C17_2 1_555 1_555
C8_2 C10_2 1_555 1_555
C10_2 C18_2 1_555 1_555
C11_2 N2_2 1_555 1_555
C16_2 N1_2 1_555 1_555
C17_2 C1_2 1_555 1_555
C19_2 C26_2 1_555 1_555
C20_2 C30_2 1_555 1_555
C23_2 C3_2 1_555 1_555
H4_2 C23_2 1_555 1_555
C26_2 N1_2 1_555 1_555
H6_2 C26_2 1_555 1_555
H7_2 C26_2 1_555 1_555
C28_2 C19_2 1_555 1_555
H8_2 C28_2 1_555 1_555
C30_2 N2_2 1_555 1_555
H10_2 C30_2 1_555 1_555
H11_2 C30_2 1_555 1_555
C32_2 C10_2 1_555 1_555
H12_2 C32_2 1_555 1_555
C60_2 C20_2 1_555 1_555
H34_2 C60_2 1_555 1_555
N6_2 C78_2 1_555 1_555
C79_2 C23_2 1_555 1_555
H46_2 C79_2 1_555 1_555
C80_2 N6_2 1_555 1_555
H47_2 C80_2 1_555 1_555
H48_2 C81_2 1_555 1_555
C86_2 C32_2 1_555 1_555
H49_2 C86_2 1_555 1_555
O44 C101_2 1_555 1_555
C99_2 C101_2 1_555 1_555
C101_2 O48 1_555 1_555
H61_2 C109_2 1_555 1_555
C111_2 C103_2 1_555 1_555
H63_2 C111_2 1_555 1_555
C112_2 C99_2 1_555 1_555
H64_2 C112_2 1_555 1_555
C126_2 C111_2 1_555 1_555
H74_2 C126_2 1_555 1_555
C130_2 C103_2 1_555 1_555
H76_2 C130_2 1_555 1_555
C132_2 C128_2 1_555 1_555
Zn9 N6_2 1_555 1_555
C80_2 C81_2 1_555 1_555
C82_2 C86_2 1_555 1_555
C109_2 C112_2 1_555 1_555
C126_2 C128_2 1_555 1_555
C130_2 C132_2 1_555 1_555
O43 C14_2 1_555 1_555
C12_2 C14_2 1_555 1_555
C14_2 O47 1_555 1_555
C15_2 C2_2 1_555 1_555
H3_2 C15_2 1_555 1_555
H15_2 C35_2 1_555 1_555
C37_2 C22_2 1_555 1_555
H17_2 C37_2 1_555 1_555
C38_2 C12_2 1_555 1_555
H18_2 C38_2 1_555 1_555
C55_2 C37_2 1_555 1_555
H31_2 C55_2 1_555 1_555
C59_2 C22_2 1_555 1_555
H33_2 C59_2 1_555 1_555
C62_2 C57_2 1_555 1_555
O22_2 C83_2 1_555 1_555
N7_2 C83_2 1_555 1_555
C83_2 C84_2 1_555 1_555
C84_2 C87_2 1_555 1_555
C85_2 N7_2 1_555 1_555
C88_2 C89_2 1_555 1_555
C89_2 N7_2 1_555 1_555
H50_2 C89_2 1_555 1_555
H51_2 C89_2 1_555 1_555
C90_2 C15_2 1_555 1_555
H52_2 C90_2 1_555 1_555
C92_2 C88_2 1_555 1_555
H54_2 C92_2 1_555 1_555
C35_2 C38_2 1_555 1_555
C55_2 C57_2 1_555 1_555
C59_2 C62_2 1_555 1_555
C84_2 C90_2 1_555 1_555
N8_2 C91_2 1_555 1_555
C91_2 H53_2 1_555 1_555
H55_2 C93_2 1_555 1_555
C94_2 N8_2 1_555 1_555
H56_2 C94_2 1_555 1_555
Zn9 O24_2 1_555 1_555
Zn13 N8_2 1_555 1_555
Zn17 O35_2 1_555 1_555
O24_2 C104_2 1_555 1_555
O25_2 Zn13 1_555 1_555
O40 C114_2 1_555 1_555
O28_2 C95_2 1_555 1_555
C95_2 C98_2 1_555 1_555
C96_2 C100_2 1_555 1_555
C97_2 C107_2 1_555 1_555
C98_2 H57_2 1_555 1_555
O30_2 Zn9 1_555 1_555
C100_2 C98_2 1_555 1_555
H58_2 C100_2 1_555 1_555
O31_2 C106_2 1_555 1_555
O46 C104_2 1_555 1_555
C102_2 C113_2 1_555 1_555
C105_2 H59_2 1_555 1_555
C106_2 C105_2 1_555 1_555
C107_2 H60_2 1_555 1_555
C108_2 C97_2 1_555 1_555
H62_2 C110_2 1_555 1_555
O50 C108_2 1_555 1_555
O35_2 C113_2 1_555 1_555
C113_2 O25_2 1_555 1_555
C114_2 C96_2 1_555 1_555
C115_2 C97_2 1_555 1_555
H65_2 C115_2 1_555 1_555
C116_2 C96_2 1_555 1_555
H66_2 C116_2 1_555 1_555
C117_2 C95_2 1_555 1_555
H67_2 C117_2 1_555 1_555
C118_2 H68_2 1_555 1_555
C119_2 C115_2 1_555 1_555
H69_2 C119_2 1_555 1_555
C121_2 C107_2 1_555 1_555
H71_2 C121_2 1_555 1_555
C122_2 O28_2 1_555 1_555
C123_2 C102_2 1_555 1_555
H72_2 C123_2 1_555 1_555
C124_2 O31_2 1_555 1_555
C125_2 C102_2 1_555 1_555
H73_2 C125_2 1_555 1_555
O38_2 Zn17 1_555 1_555
C129_2 C124_2 1_555 1_555
H75_2 C129_2 1_555 1_555
C93_2 C94_2 1_555 1_555
O30_2 C108_2 1_555 1_555
C105_2 C110_2 1_555 1_555
C114_2 O38_2 1_555 1_555
C116_2 C117_2 1_555 1_555
C118_2 C123_2 1_555 1_555
C118_2 C124_2 1_555 1_555
C119_2 C122_2 1_555 1_555
C121_2 C122_2 1_555 1_555
C125_2 C129_2 1_555 1_555
O41 C66_2 1_555 1_555
O51 C66_2 1_555 1_555
O18_2 C56_2 1_555 1_555
C46_2 H24_2 1_555 1_555
C56_2 C61_2 1_555 1_555
C61_2 H35_2 1_555 1_555
C64_2 C61_2 1_555 1_555
H38_2 C64_2 1_555 1_555
C66_2 C68_2 1_555 1_555
C67_2 C46_2 1_555 1_555
H40_2 C67_2 1_555 1_555
C68_2 C46_2 1_555 1_555
C56_2 C67_2 1_555 1_555
C64_2 C68_2 1_555 1_555

#END
