
###############################################################################
#
# This file contains modified crystal structure data generated from the
# MOF subset of the Cambridge Structural Database (CSD) v543 
# hosted by the Cambridge Crystallographic Data Centre (CCDC).
#
# This work is licensed under the Creative Commons
# Attribution-NonCommercial-ShareAlike 4.0 International License.
# To view a copy of this license, visit
# http://creativecommons.org/licenses/by-nc-sa/4.0/
# or send a letter to
# Creative Commons, PO Box 1866, Mountain View, CA 94042, USA.
#
# CIF created using the CSD Python API on 29 September 2022
# The structure has been converted into the P1 space group
# The structure has a 3D framework
# The original CSD entry YUBHAG is in the monoclinic crystal system
# The framework has been calculated to contain at least 10.0% void space
# The void calculation uses a probe of radius 1.32A, grid spacing 0.4
#
###############################################################################

data_YUBHAG
_chemical_formula_moiety         '(C64 H36 O52 U8)n'
_symmetry_cell_setting           triclinic
_symmetry_space_group_name_H-M   'P 1'
_symmetry_Int_Tables_number      1
_space_group_name_Hall           'P 1'
loop_
_symmetry_equiv_pos_site_id
_symmetry_equiv_pos_as_xyz
1 x,y,z
_cell_length_a                   19.703(4)
_cell_length_b                   9.5197(19)
_cell_length_c                   20.127(4)
_cell_angle_alpha                90
_cell_angle_beta                 106.26(3)
_cell_angle_gamma                90
_cell_volume                     3624.15
loop_
_atom_site_label
_atom_site_type_symbol
_atom_site_fract_x
_atom_site_fract_y
_atom_site_fract_z
U1 U 0.10488(2) 0.63492(6) 0.11128(2)
O1 O 0.0511(6) 0.7865(14) 0.0971(5)
O2 O 0.1584(5) 0.4834(15) 0.1258(6)
O3 O 0.0932(4) 0.6200(10) 0.2192(4)
C1 C 0.1179(6) 0.5382(15) 0.2761(6)
C2 C 0.1802(6) 0.4646(15) 0.2902(6)
H1 H 0.2063 0.4658 0.2583
C3 C 0.2054(7) 0.3877(19) 0.3516(7)
C4 C 0.1653(7) 0.3833(18) 0.3984(6)
H2 H 0.1809 0.3312 0.4389
C5 C 0.1014(7) 0.4573(17) 0.3845(6)
C6 C 0.0777(7) 0.5304(16) 0.3239(7)
H3 H 0.0342 0.5758 0.3140
C7 C 0.2699(8) 0.301(2) 0.3634(8)
C8 C 0.0565(7) 0.4477(16) 0.4336(7)
O4 O 0.2968(5) 0.2705(13) 0.3152(4)
O5 O 0.3001(6) 0.2578(17) 0.4242(5)
O6 O 0.0820(7) 0.3914(16) 0.4912(6)
H4 H 0.123(5) 0.354(19) 0.500(4)
U3 U 0.39512(2) 0.13492(6) 0.38872(2)
U4 U 0.10488(2) 0.36508(6) 0.61128(2)
O8 O 0.2032(5) 0.7705(13) 0.1848(4)
O9 O 0.1999(6) 0.7578(17) 0.0758(5)
O11 O 0.0045(5) 0.4945(12) 0.0851(5)
O10 O 0.0820(7) 0.6086(16) 0.9912(6)
O7 O 0.9955(5) 0.4945(12) 0.4149(5)
U2 U 0.89512(2) 0.63492(6) 0.38872(2)
O1_2 O 0.9489(6) 0.7865(14) 0.4029(5)
O2_2 O 0.8416(5) 0.4834(15) 0.3742(6)
O3_2 O 0.9068(4) 0.6200(10) 0.2808(4)
C1_2 C 0.8821(6) 0.5382(15) 0.2239(6)
C2_2 C 0.8198(6) 0.4646(15) 0.2098(6)
H1_2 H 0.7937 0.4658 0.2417
C3_2 C 0.7946(7) 0.3877(19) 0.1484(7)
C4_2 C 0.8347(7) 0.3833(18) 0.1016(6)
H2_2 H 0.8191 0.3312 0.0611
C5_2 C 0.8986(7) 0.4573(17) 0.1155(6)
C6_2 C 0.9223(7) 0.5304(16) 0.1761(7)
H3_2 H 0.9658 0.5758 0.1860
C7_2 C 0.7301(8) 0.301(2) 0.1366(8)
C8_2 C 0.9435(7) 0.4477(16) 0.0664(7)
O4_2 O 0.7032(5) 0.2705(13) 0.1848(4)
O5_2 O 0.6999(6) 0.2578(17) 0.0758(5)
O6_2 O 0.9180(7) 0.3914(16) 0.0088(6)
H4_2 H 0.877(5) 0.354(19) 0.000(4)
U3_2 U 0.60488(2) 0.13492(6) 0.11128(2)
O8_2 O 0.7968(5) 0.7705(13) 0.3152(4)
O9_2 O 0.8001(6) 0.7578(17) 0.4242(5)
O10_2 O 0.9180(7) 0.6086(16) 0.5088(6)
H4_3 H 0.877(5) 0.354(19) 1.000(4)
U4_2 U 0.89512(2) 0.36508(6) 0.88872(2)
O1_3 O 0.5511(6) 0.2865(14) 0.0971(5)
O3_3 O 0.5932(4) 0.1200(10) 0.2192(4)
C1_3 C 0.6179(6) 0.0382(15) 0.2761(6)
C6_3 C 0.5777(7) 0.0304(16) 0.3239(7)
H3_3 H 0.5342 0.0758 0.3140
O10_3 O 0.5820(7) 0.1086(16) 0.9912(6)
O2_3 O 0.6584(5) 0.9834(15) 0.1258(6)
C2_3 C 0.6802(6) 0.9646(15) 0.2902(6)
H1_3 H 0.7063 0.9658 0.2583
C3_3 C 0.7054(7) 0.8877(19) 0.3516(7)
C4_3 C 0.6653(7) 0.8833(18) 0.3984(6)
H2_3 H 0.6809 0.8312 0.4389
C5_3 C 0.6014(7) 0.9573(17) 0.3845(6)
C7_3 C 0.7699(8) 0.801(2) 0.3634(8)
C8_3 C 0.5565(7) 0.9477(16) 0.4336(7)
O6_3 O 0.5820(7) 0.8914(16) 0.4912(6)
H4_4 H 0.623(5) 0.854(19) 0.500(4)
O7_2 O 0.4955(5) 0.9945(12) 0.4149(5)
U4_3 U 0.60488(2) 0.86508(6) 0.61128(2)
O11_2 O 0.5045(5) 0.9945(12) 0.0851(5)
O1_4 O 0.4489(6) 0.2865(14) 0.4029(5)
O3_4 O 0.4068(4) 0.1200(10) 0.2808(4)
C1_4 C 0.3821(6) 0.0382(15) 0.2239(6)
C6_4 C 0.4223(7) 0.0304(16) 0.1761(7)
H3_4 H 0.4658 0.0758 0.1860
O10_4 O 0.4180(7) 0.1086(16) 0.5088(6)
O2_4 O 0.3416(5) 0.9834(15) 0.3742(6)
C2_4 C 0.3198(6) 0.9646(15) 0.2098(6)
H1_4 H 0.2937 0.9658 0.2417
C3_4 C 0.2946(7) 0.8877(19) 0.1484(7)
C4_4 C 0.3347(7) 0.8833(18) 0.1016(6)
H2_4 H 0.3191 0.8312 0.0611
C5_4 C 0.3986(7) 0.9573(17) 0.1155(6)
C7_4 C 0.2301(8) 0.801(2) 0.1366(8)
C8_4 C 0.4435(7) 0.9477(16) 0.0664(7)
O6_4 O 0.4180(7) 0.8914(16) 0.0088(6)
H4_5 H 0.377(5) 0.854(19) 0.000(4)
H4_6 H 0.377(5) 0.854(19) 1.000(4)
U4_4 U 0.39512(2) 0.86508(6) 0.88872(2)
O7_3 O 0.0045(5) 0.5055(12) 0.5851(5)
O1_5 O 0.9489(6) 0.2135(14) 0.9029(5)
O2_5 O 0.8416(5) 0.5166(15) 0.8742(6)
O3_5 O 0.9068(4) 0.3800(10) 0.7808(4)
C1_5 C 0.8821(6) 0.4618(15) 0.7239(6)
C2_5 C 0.8198(6) 0.5354(15) 0.7098(6)
H1_5 H 0.7937 0.5342 0.7417
C3_5 C 0.7946(7) 0.6123(19) 0.6484(7)
C4_5 C 0.8347(7) 0.6167(18) 0.6016(6)
H2_5 H 0.8191 0.6688 0.5611
C5_5 C 0.8986(7) 0.5427(17) 0.6155(6)
C6_5 C 0.9223(7) 0.4696(16) 0.6761(7)
H3_5 H 0.9658 0.4242 0.6860
C7_5 C 0.7301(8) 0.699(2) 0.6366(8)
C8_5 C 0.9435(7) 0.5523(16) 0.5664(7)
O4_3 O 0.7032(5) 0.7295(13) 0.6848(4)
O5_3 O 0.6999(6) 0.7422(17) 0.5758(5)
H4_7 H 0.877(5) 0.646(19) 0.500(4)
O8_3 O 0.7968(5) 0.2295(13) 0.8152(4)
O9_3 O 0.8001(6) 0.2422(17) 0.9242(5)
O11_3 O 0.9955(5) 0.5055(12) 0.9149(5)
H4_8 H 0.123(5) 0.646(19) 0.000(4)
O1_6 O 0.0511(6) 0.2135(14) 0.5971(5)
O2_6 O 0.1584(5) 0.5166(15) 0.6258(6)
O3_6 O 0.0932(4) 0.3800(10) 0.7192(4)
C1_6 C 0.1179(6) 0.4618(15) 0.7761(6)
C2_6 C 0.1802(6) 0.5354(15) 0.7902(6)
H1_6 H 0.2063 0.5342 0.7583
C3_6 C 0.2054(7) 0.6123(19) 0.8516(7)
C4_6 C 0.1653(7) 0.6167(18) 0.8984(6)
H2_6 H 0.1809 0.6688 0.9389
C5_6 C 0.1014(7) 0.5427(17) 0.8845(6)
C6_6 C 0.0777(7) 0.4696(16) 0.8239(7)
H3_6 H 0.0342 0.4242 0.8140
C7_6 C 0.2699(8) 0.699(2) 0.8634(8)
C8_6 C 0.0565(7) 0.5523(16) 0.9336(7)
O4_4 O 0.2968(5) 0.7295(13) 0.8152(4)
O5_4 O 0.3001(6) 0.7422(17) 0.9242(5)
H4_9 H 0.123(5) 0.646(19) 1.000(4)
O8_4 O 0.2032(5) 0.2295(13) 0.6848(4)
O9_4 O 0.1999(6) 0.2422(17) 0.5758(5)
O2_7 O 0.3416(5) 0.0166(15) 0.8742(6)
C2_7 C 0.3198(6) 0.0354(15) 0.7098(6)
H1_7 H 0.2937 0.0342 0.7417
C3_7 C 0.2946(7) 0.1123(19) 0.6484(7)
C4_7 C 0.3347(7) 0.1167(18) 0.6016(6)
H2_7 H 0.3191 0.1688 0.5611
C5_7 C 0.3986(7) 0.0427(17) 0.6155(6)
C7_7 C 0.2301(8) 0.199(2) 0.6366(8)
C8_7 C 0.4435(7) 0.0523(16) 0.5664(7)
H4_10 H 0.377(5) 0.146(19) 0.500(4)
O7_4 O 0.5045(5) 0.0055(12) 0.5851(5)
O11_4 O 0.4955(5) 0.0055(12) 0.9149(5)
O1_7 O 0.4489(6) 0.7135(14) 0.9029(5)
O3_7 O 0.4068(4) 0.8800(10) 0.7808(4)
C1_7 C 0.3821(6) 0.9618(15) 0.7239(6)
C6_7 C 0.4223(7) 0.9696(16) 0.6761(7)
H3_7 H 0.4658 0.9242 0.6860
H4_11 H 0.623(5) 0.146(19) 0.000(4)
O2_8 O 0.6584(5) 0.0166(15) 0.6258(6)
C2_8 C 0.6802(6) 0.0354(15) 0.7902(6)
H1_8 H 0.7063 0.0342 0.7583
C3_8 C 0.7054(7) 0.1123(19) 0.8516(7)
C4_8 C 0.6653(7) 0.1167(18) 0.8984(6)
H2_8 H 0.6809 0.1688 0.9389
C5_8 C 0.6014(7) 0.0427(17) 0.8845(6)
C7_8 C 0.7699(8) 0.199(2) 0.8634(8)
C8_8 C 0.5565(7) 0.0523(16) 0.9336(7)
H4_12 H 0.623(5) 0.146(19) 1.000(4)
O1_8 O 0.5511(6) 0.7135(14) 0.5971(5)
O3_8 O 0.5932(4) 0.8800(10) 0.7192(4)
C1_8 C 0.6179(6) 0.9618(15) 0.7761(6)
C6_8 C 0.5777(7) 0.9696(16) 0.8239(7)
H3_8 H 0.5342 0.9242 0.8140
loop_
_geom_bond_atom_site_label_1
_geom_bond_atom_site_label_2
_geom_bond_site_symmetry_1
_geom_bond_site_symmetry_2
U1 O1 1_555 1_555
O2 U1 1_555 1_555
O3 U1 1_555 1_555
C1 O3 1_555 1_555
C2 C1 1_555 1_555
H1 C2 1_555 1_555
C3 C2 1_555 1_555
C4 C3 1_555 1_555
H2 C4 1_555 1_555
C5 C4 1_555 1_555
C6 C1 1_555 1_555
H3 C6 1_555 1_555
C7 C3 1_555 1_555
C8 C5 1_555 1_555
O4 C7 1_555 1_555
O5 C7 1_555 1_555
O6 C8 1_555 1_555
H4 O6 1_555 1_555
U3 O4 1_555 1_555
U4 O6 1_555 1_555
O8 U1 1_555 1_555
O9 U1 1_555 1_555
O11 U1 1_555 1_555
C5 C6 1_555 1_555
O5 U3 1_555 1_555
U2 O7 1_555 1_555
U2 O1_2 1_555 1_555
O2_2 U2 1_555 1_555
O3_2 U2 1_555 1_555
C1_2 O3_2 1_555 1_555
C2_2 C1_2 1_555 1_555
H1_2 C2_2 1_555 1_555
C3_2 C2_2 1_555 1_555
C4_2 C3_2 1_555 1_555
H2_2 C4_2 1_555 1_555
C5_2 C4_2 1_555 1_555
C6_2 C1_2 1_555 1_555
H3_2 C6_2 1_555 1_555
C7_2 C3_2 1_555 1_555
C8_2 C5_2 1_555 1_555
O4_2 C7_2 1_555 1_555
O5_2 C7_2 1_555 1_555
O6_2 C8_2 1_555 1_555
H4_2 O6_2 1_555 1_555
U3_2 O4_2 1_555 1_555
O8_2 U2 1_555 1_555
O9_2 U2 1_555 1_555
O10_2 U2 1_555 1_555
C5_2 C6_2 1_555 1_555
O5_2 U3_2 1_555 1_555
U3_2 O1_3 1_555 1_555
O3_3 U3_2 1_555 1_555
C1_3 O3_3 1_555 1_555
C6_3 C1_3 1_555 1_555
H3_3 C6_3 1_555 1_555
H1_3 C2_3 1_555 1_555
C3_3 C2_3 1_555 1_555
C4_3 C3_3 1_555 1_555
H2_3 C4_3 1_555 1_555
C5_3 C4_3 1_555 1_555
C7_3 C3_3 1_555 1_555
C8_3 C5_3 1_555 1_555
O8_2 C7_3 1_555 1_555
O9_2 C7_3 1_555 1_555
O6_3 C8_3 1_555 1_555
H4_4 O6_3 1_555 1_555
O7_2 C8_3 1_555 1_555
U4_3 O6_3 1_555 1_555
U3 O1_4 1_555 1_555
O3_4 U3 1_555 1_555
C1_4 O3_4 1_555 1_555
C6_4 C1_4 1_555 1_555
H3_4 C6_4 1_555 1_555
O10_4 U3 1_555 1_555
H1_4 C2_4 1_555 1_555
C3_4 C2_4 1_555 1_555
C4_4 C3_4 1_555 1_555
H2_4 C4_4 1_555 1_555
C5_4 C4_4 1_555 1_555
C7_4 C3_4 1_555 1_555
C8_4 C5_4 1_555 1_555
O8 C7_4 1_555 1_555
O9 C7_4 1_555 1_555
O6_4 C8_4 1_555 1_555
H4_5 O6_4 1_555 1_555
O11_2 C8_4 1_555 1_555
U4 O7_3 1_555 1_555
U4_2 O1_5 1_555 1_555
O2_5 U4_2 1_555 1_555
O3_5 U4_2 1_555 1_555
C1_5 O3_5 1_555 1_555
C2_5 C1_5 1_555 1_555
H1_5 C2_5 1_555 1_555
C3_5 C2_5 1_555 1_555
C4_5 C3_5 1_555 1_555
H2_5 C4_5 1_555 1_555
C5_5 C4_5 1_555 1_555
C6_5 C1_5 1_555 1_555
H3_5 C6_5 1_555 1_555
C7_5 C3_5 1_555 1_555
C8_5 C5_5 1_555 1_555
O4_3 C7_5 1_555 1_555
O5_3 C7_5 1_555 1_555
O10_2 C8_5 1_555 1_555
H4_7 O10_2 1_555 1_555
U4_3 O4_3 1_555 1_555
O8_3 U4_2 1_555 1_555
O9_3 U4_2 1_555 1_555
O11_3 U4_2 1_555 1_555
C5_5 C6_5 1_555 1_555
O5_3 U4_3 1_555 1_555
U4 O1_6 1_555 1_555
O2_6 U4 1_555 1_555
O3_6 U4 1_555 1_555
C1_6 O3_6 1_555 1_555
C2_6 C1_6 1_555 1_555
H1_6 C2_6 1_555 1_555
C3_6 C2_6 1_555 1_555
C4_6 C3_6 1_555 1_555
H2_6 C4_6 1_555 1_555
C5_6 C4_6 1_555 1_555
C6_6 C1_6 1_555 1_555
H3_6 C6_6 1_555 1_555
C7_6 C3_6 1_555 1_555
C8_6 C5_6 1_555 1_555
O4_4 C7_6 1_555 1_555
O5_4 C7_6 1_555 1_555
O10 C8_6 1_555 1_555
H4_9 O10 1_555 1_555
U4_4 O4_4 1_555 1_555
O8_4 U4 1_555 1_555
O9_4 U4 1_555 1_555
C5_6 C6_6 1_555 1_555
O5_4 U4_4 1_555 1_555
H1_7 C2_7 1_555 1_555
C3_7 C2_7 1_555 1_555
C4_7 C3_7 1_555 1_555
H2_7 C4_7 1_555 1_555
C5_7 C4_7 1_555 1_555
C7_7 C3_7 1_555 1_555
C8_7 C5_7 1_555 1_555
O8_4 C7_7 1_555 1_555
O9_4 C7_7 1_555 1_555
O10_4 C8_7 1_555 1_555
H4_10 O10_4 1_555 1_555
O7_4 C8_7 1_555 1_555
U4_4 O1_7 1_555 1_555
O3_7 U4_4 1_555 1_555
C1_7 O3_7 1_555 1_555
C6_7 C1_7 1_555 1_555
H3_7 C6_7 1_555 1_555
H1_8 C2_8 1_555 1_555
C3_8 C2_8 1_555 1_555
C4_8 C3_8 1_555 1_555
H2_8 C4_8 1_555 1_555
C5_8 C4_8 1_555 1_555
C7_8 C3_8 1_555 1_555
C8_8 C5_8 1_555 1_555
O8_3 C7_8 1_555 1_555
O9_3 C7_8 1_555 1_555
O10_3 C8_8 1_555 1_555
H4_12 O10_3 1_555 1_555
O11_4 C8_8 1_555 1_555
U4_3 O1_8 1_555 1_555
O3_8 U4_3 1_555 1_555
C1_8 O3_8 1_555 1_555
C6_8 C1_8 1_555 1_555
H3_8 C6_8 1_555 1_555

#END
