
###############################################################################
#
# This file contains modified crystal structure data generated from the
# MOF subset of the Cambridge Structural Database (CSD) v543 
# hosted by the Cambridge Crystallographic Data Centre (CCDC).
#
# This work is licensed under the Creative Commons
# Attribution-NonCommercial-ShareAlike 4.0 International License.
# To view a copy of this license, visit
# http://creativecommons.org/licenses/by-nc-sa/4.0/
# or send a letter to
# Creative Commons, PO Box 1866, Mountain View, CA 94042, USA.
#
# CIF created using the CSD Python API on 29 September 2022
# The structure has been converted into the P1 space group
# The structure has a 3D framework
# The original CSD entry YUBLIT is in the monoclinic crystal system
# The framework has been calculated to contain at least 10.0% void space
# The void calculation uses a probe of radius 1.32A, grid spacing 0.4
# H atom positions have been added when not included in the experimental data
#
###############################################################################

data_YUBLIT
_chemical_formula_moiety         '(C192 H120 Eu8 N48 O46)n'
_symmetry_cell_setting           triclinic
_symmetry_space_group_name_H-M   'P 1'
_symmetry_Int_Tables_number      1
_space_group_name_Hall           'P 1'
loop_
_symmetry_equiv_pos_site_id
_symmetry_equiv_pos_as_xyz
1 x,y,z
_cell_length_a                   30.627(2)
_cell_length_b                   20.4998(17)
_cell_length_c                   15.1793(11)
_cell_angle_alpha                90
_cell_angle_beta                 102.171(7)
_cell_angle_gamma                90
_cell_volume                     9316.07
loop_
_atom_site_label
_atom_site_type_symbol
_atom_site_fract_x
_atom_site_fract_y
_atom_site_fract_z
O6 O 0.2956(5) 0.1634(7) 0.1097(9)
C36 C 0.3936(4) 0.0328(7) 0.0715(7)
H17 H 0.4161 0.0201 0.1195
C37 C 0.3608(5) 0.0761(7) 0.0856(6)
H18 H 0.3614 0.0922 0.1430
C38 C 0.3271(4) 0.0951(5) 0.0137(8)
C41 C 0.2931(6) 0.1429(8) 0.0291(9)
Eu10 Eu 0.26542(3) 0.24994(5) 0.17429(6)
Eu1 Eu 0.23498(3) 0.23156(4) 0.40719(6)
O1 O 0.2010(3) 0.2334(6) 0.5516(7)
O2 O 0.1618(3) 0.2732(6) 0.4235(7)
O3 O 0.2880(4) 0.1902(6) 0.5533(8)
O4 O 0.2590(4) 0.1206(6) 0.4480(7)
O5 O 0.2665(4) 0.1668(6) 0.9628(8)
C1 C 0.1657(4) 0.2603(7) 0.5080(9)
C2 C 0.1254(3) 0.2714(6) 0.5465(6)
C3 C 0.1240(3) 0.2505(5) 0.6330(6)
H1 H 0.1468 0.2245 0.6650
C4 C 0.0884(4) 0.2683(6) 0.6716(6)
H2 H 0.0875 0.2543 0.7295
C5 C 0.0543(4) 0.3071(7) 0.6238(8)
C6 C 0.0557(4) 0.3281(6) 0.5374(8)
H3 H 0.0329 0.3540 0.5054
C7 C 0.0912(4) 0.3102(6) 0.4987(6)
H4 H 0.0922 0.3242 0.4409
N1 N 0.0201(5) 0.3256(8) 0.6744(9)
C25 C 0.2872(6) 0.1333(8) 0.5205(10)
C26 C 0.3195(4) 0.0827(5) 0.5648(7)
C27 C 0.3506(4) 0.0956(5) 0.6437(7)
H13 H 0.3501 0.1354 0.6728
C28 C 0.3825(4) 0.0491(6) 0.6791(6)
H14 H 0.4034 0.0577 0.7318
C31 C 0.3202(4) 0.0231(6) 0.5213(7)
H16 H 0.2994 0.0145 0.4686
C35 C 0.3927(4) 0.0086(6) 0.9856(9)
C39 C 0.3262(4) 0.0709(6) 0.9278(7)
H19 H 0.3036 0.0836 0.8798
C40 C 0.3590(4) 0.0276(6) 0.9137(7)
H20 H 0.3584 0.0115 0.8563
Eu2 Eu 0.26542(3) 0.25006(5) 0.67429(6)
Eu6 Eu 0.23498(3) 0.26844(4) 0.90719(6)
O13 O 0.2665(4) 0.3332(6) 0.4628(8)
O14 O 0.2956(5) 0.3366(7) 0.6097(9)
O15 O 0.1809(5) 0.1621(8) 0.3213(11)
O16 O 0.2233(5) 0.3360(7) 0.7178(13)
O17 O 0.2179(3) 0.1988(5) 0.7753(8)
O18 O 0.2179(3) 0.3012(5) 0.2753(8)
O19 O 0.2569(4) 0.1329(6) 0.7061(8)
O20 O 0.3016(3) 0.2308(5) 0.3433(7)
O21 O 0.3016(3) 0.2692(5) 0.8433(7)
O22 O 0.3429(4) 0.2326(6) 0.7503(7)
H27 H 0.0225069 0.305418 0.7363
O11 O 0.6984(3) 0.7308(5) 0.1567(7)
O12 O 0.6571(4) 0.7674(6) 0.2497(7)
C44 C 0.6241(3) 0.7487(5) 0.0040(6)
C45 C 0.6233(3) 0.7691(4) 0.0910(5)
C46 C 0.5895(4) 0.8102(6) 0.1059(5)
H23 H 0.5889 0.8238 0.1641
C47 C 0.5564(3) 0.8308(6) 0.0339(7)
H24 H 0.5338 0.8582 0.0438
C48 C 0.6617(5) 0.7558(8) 0.1712(10)
Eu4 Eu 0.76502(3) 0.73156(4) 0.09281(6)
Eu9 Eu 0.73458(3) 0.74994(5) 0.32571(6)
H29 H 0.447152 0.950248 0.0446152
O7 O 0.8191(5) 0.6621(8) 0.1787(11)
O8 O 0.7767(5) 0.6640(7) 0.2822(13)
O9 O 0.7821(3) 0.6988(5) 0.7247(8)
O10 O 0.7431(4) 0.6329(6) 0.7939(8)
C8 C 0.9859(4) 0.3670(6) 0.6456(8)
N2 N 0.9606(4) 0.3823(7) 0.7088(6)
C9 C 0.9248(4) 0.4251(6) 0.6863(7)
N3 N 0.9143(4) 0.4526(6) 0.6008(7)
C10 C 0.9396(4) 0.4373(6) 0.5376(6)
N4 N 0.9754(4) 0.3945(6) 0.5601(7)
N5 N 0.9015(6) 0.4365(9) 0.7560(12)
C11 C 0.8685(4) 0.4886(5) 0.7410(9)
C12 C 0.8725(4) 0.5478(6) 0.6987(9)
H5 H 0.8957 0.5542 0.6688
C13 C 0.8417(4) 0.5973(5) 0.7010(8)
H6 H 0.8444 0.6369 0.6727
C14 C 0.8070(4) 0.5876(5) 0.7456(8)
C15 C 0.8030(4) 0.5284(6) 0.7880(8)
H7 H 0.7798 0.5220 0.8178
C16 C 0.8338(4) 0.4789(5) 0.7857(9)
H8 H 0.8311 0.4393 0.8140
N6 N 0.9329(6) 0.4594(9) 0.4510(9)
C17 C 0.8986(4) 0.5026(7) 0.4074(9)
C18 C 0.8622(5) 0.5250(7) 0.4401(8)
H9 H 0.8575 0.5099 0.4951
C19 C 0.8329(4) 0.5699(7) 0.3906(9)
H10 H 0.8086 0.5848 0.4125
C20 C 0.8400(4) 0.5924(6) 0.3084(8)
C21 C 0.8764(5) 0.5700(7) 0.2757(8)
H11 H 0.8811 0.5851 0.2207
C22 C 0.9057(4) 0.5251(7) 0.3251(9)
H12 H 0.9300 0.5102 0.3032
C23 C 0.7748(5) 0.6424(7) 0.7542(10)
C24 C 0.8095(6) 0.6422(9) 0.2515(13)
Eu5 Eu 0.76502(3) 0.76844(4) 0.59281(6)
Eu7 Eu 0.73458(3) 0.75006(5) 0.82571(6)
H25 H 0.907497 0.409706 0.813523
H26 H 0.954626 0.443398 0.413681
O8_2 O 0.2233(5) 0.1640(7) 0.2178(13)
C17_2 C 0.1014(4) 0.0026(7) 0.0926(9)
C18_2 C 0.1378(5) 0.0250(7) 0.0599(8)
H9_2 H 0.1425 0.0099 0.0049
C19_2 C 0.1671(4) 0.0699(7) 0.1094(9)
H10_2 H 0.1914 0.0848 0.0875
C20_2 C 0.1600(4) 0.0924(6) 0.1916(8)
C21_2 C 0.1236(5) 0.0700(7) 0.2243(8)
H11_2 H 0.1189 0.0851 0.2793
C22_2 C 0.0943(4) 0.0251(7) 0.1749(9)
H12_2 H 0.0700 0.0102 0.1968
C24_2 C 0.1905(6) 0.1422(9) 0.2485(13)
C12_2 C 0.1275(4) 0.0478(6) 0.8013(9)
H5_2 H 0.1043 0.0542 0.8312
C13_2 C 0.1583(4) 0.0973(5) 0.7990(8)
H6_2 H 0.1556 0.1369 0.8273
C14_2 C 0.1930(4) 0.0876(5) 0.7544(8)
C15_2 C 0.1970(4) 0.0284(6) 0.7120(8)
H7_2 H 0.2202 0.0220 0.6822
C23_2 C 0.2252(5) 0.1424(7) 0.7458(10)
O2_2 O 0.8382(3) 0.7732(6) 0.0765(7)
O4_2 O 0.7410(4) 0.6206(6) 0.0520(7)
C7_2 C 0.9088(4) 0.8102(6) 0.0013(6)
H4_2 H 0.9078 0.8242 0.0591
H16_2 H 0.7006 0.5145 0.0314
O13_2 O 0.7335(4) 0.8332(6) 0.0372(8)
O18_2 O 0.7821(3) 0.8012(5) 0.2247(8)
O1_2 O 0.7990(3) 0.7334(6) 0.9484(7)
O3_2 O 0.7120(4) 0.6902(6) 0.9467(8)
O5_2 O 0.7335(4) 0.6668(6) 0.5372(8)
O6_2 O 0.7044(5) 0.6634(7) 0.3903(9)
O12_2 O 0.3429(4) 0.2674(6) 0.2503(7)
C1_2 C 0.8343(4) 0.7603(7) 0.9920(9)
C2_2 C 0.8746(3) 0.7714(6) 0.9535(6)
C3_2 C 0.8760(3) 0.7505(5) 0.8670(6)
H1_2 H 0.8532 0.7245 0.8350
C4_2 C 0.9116(4) 0.7683(6) 0.8284(6)
H2_2 H 0.9125 0.7543 0.7705
C5_2 C 0.9457(4) 0.8071(7) 0.8762(8)
C6_2 C 0.9443(4) 0.8281(6) 0.9626(8)
H3_2 H 0.9671 0.8540 0.9946
N1_2 N 0.9799(5) 0.8256(8) 0.8256(9)
C25_2 C 0.7128(6) 0.6333(8) 0.9795(10)
C26_2 C 0.6805(4) 0.5827(5) 0.9352(7)
C27_2 C 0.6494(4) 0.5956(5) 0.8563(7)
H13_2 H 0.6499 0.6354 0.8272
C28_2 C 0.6175(4) 0.5491(6) 0.8209(6)
H14_2 H 0.5966 0.5577 0.7682
C29 C 0.6167(4) 0.4895(6) 0.8645(8)
C30 C 0.6479(5) 0.4766(5) 0.9433(8)
H15 H 0.6474 0.4367 0.9724
C31_2 C 0.6798(4) 0.5231(6) 0.9787(7)
N7 N 0.5837(5) 0.4393(8) 0.8393(9)
C32 C 0.5641(4) 0.4272(7) 0.7504(5)
N8 N 0.5286(4) 0.3836(7) 0.7331(6)
C33 C 0.5080(4) 0.3689(6) 0.6447(7)
N9 N 0.5229(4) 0.3979(6) 0.5736(5)
C34 C 0.5584(4) 0.4416(6) 0.5910(6)
N10 N 0.5790(4) 0.4563(6) 0.6794(7)
N11 N 0.5710(5) 0.4651(8) 0.5159(10)
C35_2 C 0.6073(4) 0.5086(6) 0.5144(9)
C36_2 C 0.6064(4) 0.5328(7) 0.4285(7)
H17_2 H 0.5839 0.5201 0.3805
C37_2 C 0.6392(5) 0.5761(7) 0.4144(6)
H18_2 H 0.6386 0.5922 0.3570
C38_2 C 0.6729(4) 0.5951(5) 0.4863(8)
C39_2 C 0.6738(4) 0.5709(6) 0.5722(7)
H19_2 H 0.6964 0.5836 0.6202
C40_2 C 0.6410(4) 0.5276(6) 0.5863(7)
H20_2 H 0.6416 0.5115 0.6437
C41_2 C 0.7069(6) 0.6429(8) 0.4709(9)
N12 N 0.4730(5) 0.3271(9) 0.6389(10)
C42 C 0.4428(3) 0.3104(4) 0.5531(6)
C43 C 0.4089(3) 0.2694(5) 0.5681(5)
H21 H 0.4084 0.2557 0.6262
C44_2 C 0.3759(3) 0.2487(5) 0.4960(6)
H22 H 0.3533 0.2213 0.5060
C45_2 C 0.3767(3) 0.2691(4) 0.4090(5)
C46_2 C 0.4105(4) 0.3102(6) 0.3941(5)
H23_2 H 0.4111 0.3238 0.3359
C47_2 C 0.4436(3) 0.3308(6) 0.4661(7)
H24_2 H 0.4662 0.3582 0.4562
C48_2 C 0.3383(5) 0.2558(8) 0.3288(10)
O14_2 O 0.7044(5) 0.8366(7) 0.8903(9)
O16_2 O 0.7767(5) 0.8360(7) 0.7822(13)
O21_2 O 0.6984(3) 0.7692(5) 0.6567(7)
O22_2 O 0.6571(4) 0.7326(6) 0.7497(7)
H27_2 H 0.977493 0.805418 0.7637
H28 H 0.574571 0.412017 0.888231
H29_2 H 0.552848 0.450248 0.455385
H30 H 0.467495 0.306523 0.696401
O7_2 O 0.1809(5) 0.3379(8) 0.8213(11)
O10_2 O 0.2569(4) 0.3671(6) 0.2061(8)
C8_2 C 0.0141(4) 0.6330(6) 0.3544(8)
N2_2 N 0.0394(4) 0.6177(7) 0.2912(6)
C9_2 C 0.0752(4) 0.5749(6) 0.3137(7)
N3_2 N 0.0857(4) 0.5474(6) 0.3992(7)
C10_2 C 0.0604(4) 0.5627(6) 0.4624(6)
N4_2 N 0.0246(4) 0.6055(6) 0.4399(7)
N5_2 N 0.0985(6) 0.5635(9) 0.2440(12)
C11_2 C 0.1315(4) 0.5114(5) 0.2590(9)
C12_3 C 0.1275(4) 0.4522(6) 0.3013(9)
H5_3 H 0.1043 0.4458 0.3312
C13_3 C 0.1583(4) 0.4027(5) 0.2990(8)
H6_3 H 0.1556 0.3631 0.3273
C14_3 C 0.1930(4) 0.4124(5) 0.2544(8)
C15_3 C 0.1970(4) 0.4716(6) 0.2120(8)
H7_3 H 0.2202 0.4780 0.1822
C16_2 C 0.1662(4) 0.5211(5) 0.2143(9)
H8_2 H 0.1689 0.5607 0.1860
N6_2 N 0.0671(6) 0.5406(9) 0.5490(9)
C17_3 C 0.1014(4) 0.4974(7) 0.5926(9)
C18_3 C 0.1378(5) 0.4750(7) 0.5599(8)
H9_3 H 0.1425 0.4901 0.5049
C19_3 C 0.1671(4) 0.4301(7) 0.6094(9)
H10_3 H 0.1914 0.4152 0.5875
C20_3 C 0.1600(4) 0.4076(6) 0.6916(8)
C21_3 C 0.1236(5) 0.4300(7) 0.7243(8)
H11_3 H 0.1189 0.4149 0.7793
C22_3 C 0.0943(4) 0.4749(7) 0.6749(9)
H12_3 H 0.0700 0.4898 0.6968
C23_3 C 0.2252(5) 0.3576(7) 0.2458(10)
C24_3 C 0.1905(6) 0.3578(9) 0.7485(13)
H25_2 H 0.0925026 0.590294 0.186477
H26_2 H 0.0453738 0.556602 0.586319
C44_3 C 0.3759(3) 0.2513(5) 0.9960(6)
C45_3 C 0.3767(3) 0.2309(4) 0.9090(5)
C46_3 C 0.4105(4) 0.1898(6) 0.8941(5)
H23_3 H 0.4111 0.1762 0.8359
C47_3 C 0.4436(3) 0.1692(6) 0.9661(7)
H24_3 H 0.4662 0.1418 0.9562
C48_3 C 0.3383(5) 0.2442(8) 0.8288(10)
H29_3 H 0.552848 0.0497516 0.955385
O1_3 O 0.7990(3) 0.7666(6) 0.4484(7)
O2_3 O 0.8382(3) 0.7268(6) 0.5765(7)
O3_3 O 0.7120(4) 0.8098(6) 0.4467(8)
O4_3 O 0.7410(4) 0.8794(6) 0.5520(7)
C1_3 C 0.8343(4) 0.7397(7) 0.4920(9)
C2_3 C 0.8746(3) 0.7286(6) 0.4535(6)
C3_3 C 0.8760(3) 0.7495(5) 0.3670(6)
H1_3 H 0.8532 0.7755 0.3350
C4_3 C 0.9116(4) 0.7317(6) 0.3284(6)
H2_3 H 0.9125 0.7457 0.2705
C5_3 C 0.9457(4) 0.6929(7) 0.3762(8)
C6_3 C 0.9443(4) 0.6719(6) 0.4626(8)
H3_3 H 0.9671 0.6460 0.4946
C7_3 C 0.9088(4) 0.6898(6) 0.5013(6)
H4_3 H 0.9078 0.6758 0.5591
N1_3 N 0.9799(5) 0.6744(8) 0.3256(9)
C25_3 C 0.7128(6) 0.8667(8) 0.4795(10)
C26_3 C 0.6805(4) 0.9173(5) 0.4352(7)
C27_3 C 0.6494(4) 0.9044(5) 0.3563(7)
H13_3 H 0.6499 0.8646 0.3272
C28_3 C 0.6175(4) 0.9509(6) 0.3209(6)
H14_3 H 0.5966 0.9423 0.2682
C31_3 C 0.6798(4) 0.9769(6) 0.4787(7)
H16_3 H 0.7006 0.9855 0.5314
C35_3 C 0.6073(4) 0.9914(6) 0.0144(9)
C39_3 C 0.6738(4) 0.9291(6) 0.0722(7)
H19_3 H 0.6964 0.9164 0.1202
C40_3 C 0.6410(4) 0.9724(6) 0.0863(7)
H20_3 H 0.6416 0.9885 0.1437
O15_2 O 0.8191(5) 0.8379(8) 0.6787(11)
O19_2 O 0.7431(4) 0.8671(6) 0.2939(8)
H27_3 H 0.977493 0.694582 0.2637
C36_3 C 0.6064(4) 0.9672(7) 0.9285(7)
H17_3 H 0.5839 0.9799 0.8805
C37_3 C 0.6392(5) 0.9239(7) 0.9144(6)
H18_3 H 0.6386 0.9078 0.8570
C38_3 C 0.6729(4) 0.9049(5) 0.9863(8)
C41_3 C 0.7069(6) 0.8571(8) 0.9709(9)
O1_4 O 0.2010(3) 0.2666(6) 0.0516(7)
O3_4 O 0.2880(4) 0.3098(6) 0.0533(8)
C1_4 C 0.1657(4) 0.2397(7) 0.0080(9)
C2_4 C 0.1254(3) 0.2286(6) 0.0465(6)
C3_4 C 0.1240(3) 0.2495(5) 0.1330(6)
H1_4 H 0.1468 0.2755 0.1650
C4_4 C 0.0884(4) 0.2317(6) 0.1716(6)
H2_4 H 0.0875 0.2457 0.2295
C5_4 C 0.0543(4) 0.1929(7) 0.1238(8)
C6_4 C 0.0557(4) 0.1719(6) 0.0374(8)
H3_4 H 0.0329 0.1460 0.0054
N1_4 N 0.0201(5) 0.1744(8) 0.1744(9)
C25_4 C 0.2872(6) 0.3667(8) 0.0205(10)
C26_4 C 0.3195(4) 0.4173(5) 0.0648(7)
C27_4 C 0.3506(4) 0.4044(5) 0.1437(7)
H13_4 H 0.3501 0.3646 0.1728
C28_4 C 0.3825(4) 0.4509(6) 0.1791(6)
H14_4 H 0.4034 0.4423 0.2318
C29_2 C 0.3833(4) 0.5105(6) 0.1355(8)
C30_2 C 0.3521(5) 0.5234(5) 0.0567(8)
H15_2 H 0.3526 0.5633 0.0276
C31_4 C 0.3202(4) 0.4769(6) 0.0213(7)
N7_2 N 0.4163(5) 0.5607(8) 0.1607(9)
C32_2 C 0.4359(4) 0.5728(7) 0.2496(5)
N8_2 N 0.4714(4) 0.6164(7) 0.2669(6)
C33_2 C 0.4920(4) 0.6311(6) 0.3553(7)
N9_2 N 0.4771(4) 0.6021(6) 0.4264(5)
C34_2 C 0.4416(4) 0.5584(6) 0.4090(6)
N10_2 N 0.4210(4) 0.5437(6) 0.3206(7)
N11_2 N 0.4290(5) 0.5349(8) 0.4841(10)
C35_4 C 0.3927(4) 0.4914(6) 0.4856(9)
C36_4 C 0.3936(4) 0.4672(7) 0.5715(7)
H17_4 H 0.4161 0.4799 0.6195
C37_4 C 0.3608(5) 0.4239(7) 0.5856(6)
H18_4 H 0.3614 0.4078 0.6430
C38_4 C 0.3271(4) 0.4049(5) 0.5137(8)
C39_4 C 0.3262(4) 0.4291(6) 0.4278(7)
H19_4 H 0.3036 0.4164 0.3798
C40_4 C 0.3590(4) 0.4724(6) 0.4137(7)
H20_4 H 0.3584 0.4885 0.3563
C41_4 C 0.2931(6) 0.3571(8) 0.5291(9)
N12_2 N 0.5270(5) 0.6729(9) 0.3611(10)
C42_2 C 0.5572(3) 0.6896(4) 0.4469(6)
C43_2 C 0.5911(3) 0.7306(5) 0.4319(5)
H21_2 H 0.5916 0.7443 0.3738
C44_4 C 0.6241(3) 0.7513(5) 0.5040(6)
H22_2 H 0.6467 0.7787 0.4940
C45_4 C 0.6233(3) 0.7309(4) 0.5910(5)
C46_4 C 0.5895(4) 0.6898(6) 0.6059(5)
H23_4 H 0.5889 0.6762 0.6641
C47_4 C 0.5564(3) 0.6692(6) 0.5339(7)
H24_4 H 0.5338 0.6418 0.5438
C48_4 C 0.6617(5) 0.7442(8) 0.6712(10)
H27_4 H 0.0225069 0.194582 0.2363
H28_2 H 0.425429 0.587983 0.111769
H29_4 H 0.447152 0.549752 0.544615
H30_2 H 0.532505 0.693477 0.303599
O2_4 O 0.1618(3) 0.2268(6) 0.9235(7)
O4_4 O 0.2590(4) 0.3794(6) 0.9480(7)
C7_4 C 0.0912(4) 0.1898(6) 0.9987(6)
H4_4 H 0.0922 0.1758 0.9409
H16_4 H 0.2994 0.4855 0.9686
C12_4 C 0.8725(4) 0.9522(6) 0.1987(9)
H5_4 H 0.8957 0.9458 0.1688
C13_4 C 0.8417(4) 0.9027(5) 0.2010(8)
H6_4 H 0.8444 0.8631 0.1727
C14_4 C 0.8070(4) 0.9124(5) 0.2456(8)
C15_4 C 0.8030(4) 0.9716(6) 0.2880(8)
H7_4 H 0.7798 0.9780 0.3178
C23_4 C 0.7748(5) 0.8576(7) 0.2542(10)
C17_4 C 0.8986(4) 0.9974(7) 0.9074(9)
C18_4 C 0.8622(5) 0.9750(7) 0.9401(8)
H9_4 H 0.8575 0.9901 0.9951
C19_4 C 0.8329(4) 0.9301(7) 0.8906(9)
H10_4 H 0.8086 0.9152 0.9125
C20_4 C 0.8400(4) 0.9076(6) 0.8084(8)
C21_4 C 0.8764(5) 0.9300(7) 0.7757(8)
H11_4 H 0.8811 0.9149 0.7207
C22_4 C 0.9057(4) 0.9749(7) 0.8251(9)
H12_4 H 0.9300 0.9898 0.8032
C24_4 C 0.8095(6) 0.8578(9) 0.7515(13)
C29_3 C 0.3833(4) 0.9895(6) 0.6355(8)
C30_3 C 0.3521(5) 0.9766(5) 0.5567(8)
H15_3 H 0.3526 0.9367 0.5276
N7_3 N 0.4163(5) 0.9393(8) 0.6607(9)
C32_3 C 0.4359(4) 0.9272(7) 0.7496(5)
N8_3 N 0.4714(4) 0.8836(7) 0.7669(6)
C33_3 C 0.4920(4) 0.8689(6) 0.8553(7)
N9_3 N 0.4771(4) 0.8979(6) 0.9264(5)
C34_3 C 0.4416(4) 0.9416(6) 0.9090(6)
N10_3 N 0.4210(4) 0.9563(6) 0.8206(7)
N11_3 N 0.4290(5) 0.9651(8) 0.9841(10)
N12_3 N 0.5270(5) 0.8271(9) 0.8611(10)
C42_3 C 0.5572(3) 0.8104(4) 0.9469(6)
C43_3 C 0.5911(3) 0.7694(5) 0.9319(5)
H21_3 H 0.5916 0.7557 0.8738
H22_3 H 0.6467 0.7213 0.9940
H28_3 H 0.425429 0.912017 0.611769
H30_3 H 0.532505 0.806523 0.803599
N6_3 N 0.0671(6) 0.9594(9) 0.0490(9)
H26_3 H 0.0453738 0.943398 0.0863195
C8_3 C 0.0141(4) 0.8670(6) 0.8544(8)
N2_3 N 0.0394(4) 0.8823(7) 0.7912(6)
C9_3 C 0.0752(4) 0.9251(6) 0.8137(7)
N3_3 N 0.0857(4) 0.9526(6) 0.8992(7)
C10_3 C 0.0604(4) 0.9373(6) 0.9624(6)
N4_3 N 0.0246(4) 0.8945(6) 0.9399(7)
N5_3 N 0.0985(6) 0.9365(9) 0.7440(12)
C11_3 C 0.1315(4) 0.9886(5) 0.7590(9)
C16_3 C 0.1662(4) 0.9789(5) 0.7143(9)
H8_3 H 0.1689 0.9393 0.6860
H25_3 H 0.0925026 0.909706 0.686477
C29_4 C 0.6167(4) 0.0105(6) 0.3645(8)
C30_4 C 0.6479(5) 0.0234(5) 0.4433(8)
H15_4 H 0.6474 0.0633 0.4724
N7_4 N 0.5837(5) 0.0607(8) 0.3393(9)
C32_4 C 0.5641(4) 0.0728(7) 0.2504(5)
N8_4 N 0.5286(4) 0.1164(7) 0.2331(6)
C33_4 C 0.5080(4) 0.1311(6) 0.1447(7)
N9_4 N 0.5229(4) 0.1021(6) 0.0736(5)
C34_4 C 0.5584(4) 0.0584(6) 0.0910(6)
N10_4 N 0.5790(4) 0.0437(6) 0.1794(7)
N11_4 N 0.5710(5) 0.0349(8) 0.0159(10)
N12_4 N 0.4730(5) 0.1729(9) 0.1389(10)
C42_4 C 0.4428(3) 0.1896(4) 0.0531(6)
C43_4 C 0.4089(3) 0.2306(5) 0.0681(5)
H21_4 H 0.4084 0.2443 0.1262
H22_4 H 0.3533 0.2787 0.0060
H28_4 H 0.574571 0.0879832 0.388231
H30_4 H 0.467495 0.193477 0.196401
C8_4 C 0.9859(4) 0.1330(6) 0.1456(8)
N2_4 N 0.9606(4) 0.1177(7) 0.2088(6)
C9_4 C 0.9248(4) 0.0749(6) 0.1863(7)
N3_4 N 0.9143(4) 0.0474(6) 0.1008(7)
C10_4 C 0.9396(4) 0.0627(6) 0.0376(6)
N4_4 N 0.9754(4) 0.1055(6) 0.0601(7)
N5_4 N 0.9015(6) 0.0635(9) 0.2560(12)
C11_4 C 0.8685(4) 0.0114(5) 0.2410(9)
C16_4 C 0.8338(4) 0.0211(5) 0.2857(9)
H8_4 H 0.8311 0.0607 0.3140
H25_4 H 0.907497 0.090294 0.313523
N6_4 N 0.9329(6) 0.0406(9) 0.9510(9)
H26_4 H 0.954626 0.0566023 0.913681
loop_
_geom_bond_atom_site_label_1
_geom_bond_atom_site_label_2
_geom_bond_site_symmetry_1
_geom_bond_site_symmetry_2
O6 C41 1_555 1_555
H17 C36 1_555 1_555
C37 C36 1_555 1_555
H18 C37 1_555 1_555
C38 C37 1_555 1_555
C41 C38 1_555 1_555
Eu10 O6 1_555 1_555
Eu1 O1 1_555 1_555
O1 C1 1_555 1_555
O2 Eu1 1_555 1_555
O3 Eu1 1_555 1_555
O4 Eu1 1_555 1_555
C1 O2 1_555 1_555
C2 C1 1_555 1_555
C3 C2 1_555 1_555
H1 C3 1_555 1_555
C4 C3 1_555 1_555
H2 C4 1_555 1_555
C5 C4 1_555 1_555
C6 C5 1_555 1_555
H3 C6 1_555 1_555
C7 C2 1_555 1_555
H4 C7 1_555 1_555
N1 C5 1_555 1_555
C25 O3 1_555 1_555
C26 C25 1_555 1_555
C27 C26 1_555 1_555
H13 C27 1_555 1_555
C28 C27 1_555 1_555
H14 C28 1_555 1_555
C31 C26 1_555 1_555
H16 C31 1_555 1_555
H19 C39 1_555 1_555
C40 C35 1_555 1_555
H20 C40 1_555 1_555
Eu2 O1 1_555 1_555
Eu6 O5 1_555 1_555
O13 Eu1 1_555 1_555
O14 Eu2 1_555 1_555
O15 Eu1 1_555 1_555
O16 Eu2 1_555 1_555
O17 Eu2 1_555 1_555
O18 Eu1 1_555 1_555
O19 Eu2 1_555 1_555
O20 Eu1 1_555 1_555
O21 Eu2 1_555 1_555
O22 Eu2 1_555 1_555
O3 Eu2 1_555 1_555
O4 C25 1_555 1_555
C6 C7 1_555 1_555
C39 C40 1_555 1_555
Eu6 O17 1_555 1_555
Eu6 O21 1_555 1_555
N1 H27 1_555 1_555
O11 C48 1_555 1_555
O12 C48 1_555 1_555
C45 C44 1_555 1_555
C46 C45 1_555 1_555
H23 C46 1_555 1_555
H24 C47 1_555 1_555
C48 C45 1_555 1_555
Eu4 O11 1_555 1_555
Eu9 O11 1_555 1_555
O12 Eu9 1_555 1_555
C46 C47 1_555 1_555
O7 C24 1_555 1_555
O8 C24 1_555 1_555
O9 C23 1_555 1_555
O10 C23 1_555 1_555
N2 C8 1_555 1_555
C9 N2 1_555 1_555
N3 C9 1_555 1_555
C10 N3 1_555 1_555
N4 C8 1_555 1_555
N5 C9 1_555 1_555
C11 N5 1_555 1_555
C12 C11 1_555 1_555
H5 C12 1_555 1_555
C13 C12 1_555 1_555
H6 C13 1_555 1_555
C14 C13 1_555 1_555
C15 C14 1_555 1_555
H7 C15 1_555 1_555
C16 C11 1_555 1_555
H8 C16 1_555 1_555
N6 C10 1_555 1_555
C17 N6 1_555 1_555
C18 C17 1_555 1_555
H9 C18 1_555 1_555
C19 C18 1_555 1_555
H10 C19 1_555 1_555
C20 C19 1_555 1_555
C21 C20 1_555 1_555
H11 C21 1_555 1_555
C22 C17 1_555 1_555
H12 C22 1_555 1_555
C23 C14 1_555 1_555
C24 C20 1_555 1_555
Eu4 O7 1_555 1_555
Eu5 O9 1_555 1_555
Eu7 O9 1_555 1_555
Eu9 O8 1_555 1_555
O10 Eu7 1_555 1_555
C10 N4 1_555 1_555
C15 C16 1_555 1_555
C21 C22 1_555 1_555
N5 H25 1_555 1_555
N6 H26 1_555 1_555
O15 C24_2 1_555 1_555
O8_2 C24_2 1_555 1_555
C18_2 C17_2 1_555 1_555
H9_2 C18_2 1_555 1_555
C19_2 C18_2 1_555 1_555
H10_2 C19_2 1_555 1_555
C20_2 C19_2 1_555 1_555
C21_2 C20_2 1_555 1_555
H11_2 C21_2 1_555 1_555
C22_2 C17_2 1_555 1_555
H12_2 C22_2 1_555 1_555
C24_2 C20_2 1_555 1_555
Eu10 O8_2 1_555 1_555
C21_2 C22_2 1_555 1_555
O17 C23_2 1_555 1_555
O19 C23_2 1_555 1_555
H5_2 C12_2 1_555 1_555
C13_2 C12_2 1_555 1_555
H6_2 C13_2 1_555 1_555
C14_2 C13_2 1_555 1_555
C15_2 C14_2 1_555 1_555
H7_2 C15_2 1_555 1_555
C23_2 C14_2 1_555 1_555
O2_2 Eu4 1_555 1_555
O4_2 Eu4 1_555 1_555
H4_2 C7_2 1_555 1_555
O13_2 Eu4 1_555 1_555
O18_2 Eu4 1_555 1_555
O1_2 C1_2 1_555 1_555
O5_2 C41_2 1_555 1_555
O6_2 C41_2 1_555 1_555
O20 C48_2 1_555 1_555
O12_2 C48_2 1_555 1_555
C2_2 C1_2 1_555 1_555
C3_2 C2_2 1_555 1_555
H1_2 C3_2 1_555 1_555
C4_2 C3_2 1_555 1_555
H2_2 C4_2 1_555 1_555
C5_2 C4_2 1_555 1_555
C6_2 C5_2 1_555 1_555
H3_2 C6_2 1_555 1_555
N1_2 C5_2 1_555 1_555
C25_2 O3_2 1_555 1_555
C26_2 C25_2 1_555 1_555
C27_2 C26_2 1_555 1_555
H13_2 C27_2 1_555 1_555
C28_2 C27_2 1_555 1_555
H14_2 C28_2 1_555 1_555
C29 C28_2 1_555 1_555
C30 C29 1_555 1_555
H15 C30 1_555 1_555
C31_2 C26_2 1_555 1_555
N7 C29 1_555 1_555
C32 N7 1_555 1_555
N8 C32 1_555 1_555
C33 N8 1_555 1_555
N9 C33 1_555 1_555
C34 N9 1_555 1_555
N10 C32 1_555 1_555
N11 C34 1_555 1_555
C35_2 N11 1_555 1_555
C36_2 C35_2 1_555 1_555
H17_2 C36_2 1_555 1_555
C37_2 C36_2 1_555 1_555
H18_2 C37_2 1_555 1_555
C38_2 C37_2 1_555 1_555
C39_2 C38_2 1_555 1_555
H19_2 C39_2 1_555 1_555
C40_2 C35_2 1_555 1_555
H20_2 C40_2 1_555 1_555
C41_2 C38_2 1_555 1_555
N12 C33 1_555 1_555
C42 N12 1_555 1_555
C43 C42 1_555 1_555
H21 C43 1_555 1_555
C44_2 C43 1_555 1_555
H22 C44_2 1_555 1_555
C45_2 C44_2 1_555 1_555
C46_2 C45_2 1_555 1_555
H23_2 C46_2 1_555 1_555
C47_2 C42 1_555 1_555
H24_2 C47_2 1_555 1_555
C48_2 C45_2 1_555 1_555
Eu7 O1_2 1_555 1_555
Eu5 O5_2 1_555 1_555
O14_2 Eu7 1_555 1_555
O16_2 Eu7 1_555 1_555
O21_2 Eu7 1_555 1_555
O22_2 Eu7 1_555 1_555
Eu10 O20 1_555 1_555
Eu9 O6_2 1_555 1_555
O3_2 Eu7 1_555 1_555
O12_2 Eu10 1_555 1_555
C30 C31_2 1_555 1_555
C34 N10 1_555 1_555
C39_2 C40_2 1_555 1_555
C46_2 C47_2 1_555 1_555
Eu5 O21_2 1_555 1_555
N1_2 H27_2 1_555 1_555
N7 H28 1_555 1_555
N11 H29_2 1_555 1_555
N12 H30 1_555 1_555
O7_2 C24_3 1_555 1_555
O16 C24_3 1_555 1_555
O18 C23_3 1_555 1_555
O10_2 C23_3 1_555 1_555
N2_2 C8_2 1_555 1_555
C9_2 N2_2 1_555 1_555
N3_2 C9_2 1_555 1_555
C10_2 N3_2 1_555 1_555
N4_2 C8_2 1_555 1_555
N5_2 C9_2 1_555 1_555
C11_2 N5_2 1_555 1_555
C12_3 C11_2 1_555 1_555
H5_3 C12_3 1_555 1_555
C13_3 C12_3 1_555 1_555
H6_3 C13_3 1_555 1_555
C14_3 C13_3 1_555 1_555
C15_3 C14_3 1_555 1_555
H7_3 C15_3 1_555 1_555
C16_2 C11_2 1_555 1_555
H8_2 C16_2 1_555 1_555
N6_2 C10_2 1_555 1_555
C17_3 N6_2 1_555 1_555
C18_3 C17_3 1_555 1_555
H9_3 C18_3 1_555 1_555
C19_3 C18_3 1_555 1_555
H10_3 C19_3 1_555 1_555
C20_3 C19_3 1_555 1_555
C21_3 C20_3 1_555 1_555
H11_3 C21_3 1_555 1_555
C22_3 C17_3 1_555 1_555
H12_3 C22_3 1_555 1_555
C23_3 C14_3 1_555 1_555
C24_3 C20_3 1_555 1_555
Eu6 O7_2 1_555 1_555
Eu10 O18 1_555 1_555
O10_2 Eu10 1_555 1_555
C10_2 N4_2 1_555 1_555
C15_3 C16_2 1_555 1_555
C21_3 C22_3 1_555 1_555
N5_2 H25_2 1_555 1_555
N6_2 H26_2 1_555 1_555
O21 C48_3 1_555 1_555
O22 C48_3 1_555 1_555
C45_3 C44_3 1_555 1_555
C46_3 C45_3 1_555 1_555
H23_3 C46_3 1_555 1_555
H24_3 C47_3 1_555 1_555
C48_3 C45_3 1_555 1_555
C46_3 C47_3 1_555 1_555
Eu5 O1_3 1_555 1_555
O1_3 C1_3 1_555 1_555
O2_3 Eu5 1_555 1_555
O3_3 Eu5 1_555 1_555
O4_3 Eu5 1_555 1_555
C1_3 O2_3 1_555 1_555
C2_3 C1_3 1_555 1_555
C3_3 C2_3 1_555 1_555
H1_3 C3_3 1_555 1_555
C4_3 C3_3 1_555 1_555
H2_3 C4_3 1_555 1_555
C5_3 C4_3 1_555 1_555
C6_3 C5_3 1_555 1_555
H3_3 C6_3 1_555 1_555
C7_3 C2_3 1_555 1_555
H4_3 C7_3 1_555 1_555
N1_3 C5_3 1_555 1_555
C25_3 O3_3 1_555 1_555
C26_3 C25_3 1_555 1_555
C27_3 C26_3 1_555 1_555
H13_3 C27_3 1_555 1_555
C28_3 C27_3 1_555 1_555
H14_3 C28_3 1_555 1_555
C31_3 C26_3 1_555 1_555
H16_3 C31_3 1_555 1_555
H19_3 C39_3 1_555 1_555
C40_3 C35_3 1_555 1_555
H20_3 C40_3 1_555 1_555
Eu9 O1_3 1_555 1_555
O15_2 Eu5 1_555 1_555
O18_2 Eu9 1_555 1_555
O19_2 Eu9 1_555 1_555
O3_3 Eu9 1_555 1_555
O4_3 C25_3 1_555 1_555
C6_3 C7_3 1_555 1_555
C39_3 C40_3 1_555 1_555
N1_3 H27_3 1_555 1_555
O14_2 C41_3 1_555 1_555
H17_3 C36_3 1_555 1_555
C37_3 C36_3 1_555 1_555
H18_3 C37_3 1_555 1_555
C38_3 C37_3 1_555 1_555
C41_3 C38_3 1_555 1_555
O1_4 C1_4 1_555 1_555
O13 C41_4 1_555 1_555
O14 C41_4 1_555 1_555
O21_2 C48_4 1_555 1_555
O22_2 C48_4 1_555 1_555
C2_4 C1_4 1_555 1_555
C3_4 C2_4 1_555 1_555
H1_4 C3_4 1_555 1_555
C4_4 C3_4 1_555 1_555
H2_4 C4_4 1_555 1_555
C5_4 C4_4 1_555 1_555
C6_4 C5_4 1_555 1_555
H3_4 C6_4 1_555 1_555
N1_4 C5_4 1_555 1_555
C25_4 O3_4 1_555 1_555
C26_4 C25_4 1_555 1_555
C27_4 C26_4 1_555 1_555
H13_4 C27_4 1_555 1_555
C28_4 C27_4 1_555 1_555
H14_4 C28_4 1_555 1_555
C29_2 C28_4 1_555 1_555
C30_2 C29_2 1_555 1_555
H15_2 C30_2 1_555 1_555
C31_4 C26_4 1_555 1_555
N7_2 C29_2 1_555 1_555
C32_2 N7_2 1_555 1_555
N8_2 C32_2 1_555 1_555
C33_2 N8_2 1_555 1_555
N9_2 C33_2 1_555 1_555
C34_2 N9_2 1_555 1_555
N10_2 C32_2 1_555 1_555
N11_2 C34_2 1_555 1_555
C35_4 N11_2 1_555 1_555
C36_4 C35_4 1_555 1_555
H17_4 C36_4 1_555 1_555
C37_4 C36_4 1_555 1_555
H18_4 C37_4 1_555 1_555
C38_4 C37_4 1_555 1_555
C39_4 C38_4 1_555 1_555
H19_4 C39_4 1_555 1_555
C40_4 C35_4 1_555 1_555
H20_4 C40_4 1_555 1_555
C41_4 C38_4 1_555 1_555
N12_2 C33_2 1_555 1_555
C42_2 N12_2 1_555 1_555
C43_2 C42_2 1_555 1_555
H21_2 C43_2 1_555 1_555
C44_4 C43_2 1_555 1_555
H22_2 C44_4 1_555 1_555
C45_4 C44_4 1_555 1_555
C46_4 C45_4 1_555 1_555
H23_4 C46_4 1_555 1_555
C47_4 C42_2 1_555 1_555
H24_4 C47_4 1_555 1_555
C48_4 C45_4 1_555 1_555
Eu10 O1_4 1_555 1_555
O3_4 Eu10 1_555 1_555
C30_2 C31_4 1_555 1_555
C34_2 N10_2 1_555 1_555
C39_4 C40_4 1_555 1_555
C46_4 C47_4 1_555 1_555
N1_4 H27_4 1_555 1_555
N7_2 H28_2 1_555 1_555
N11_2 H29_4 1_555 1_555
N12_2 H30_2 1_555 1_555
O2_4 Eu6 1_555 1_555
O4_4 Eu6 1_555 1_555
H4_4 C7_4 1_555 1_555
O18_2 C23_4 1_555 1_555
O19_2 C23_4 1_555 1_555
H5_4 C12_4 1_555 1_555
C13_4 C12_4 1_555 1_555
H6_4 C13_4 1_555 1_555
C14_4 C13_4 1_555 1_555
C15_4 C14_4 1_555 1_555
H7_4 C15_4 1_555 1_555
C23_4 C14_4 1_555 1_555
O15_2 C24_4 1_555 1_555
O16_2 C24_4 1_555 1_555
C18_4 C17_4 1_555 1_555
H9_4 C18_4 1_555 1_555
C19_4 C18_4 1_555 1_555
H10_4 C19_4 1_555 1_555
C20_4 C19_4 1_555 1_555
C21_4 C20_4 1_555 1_555
H11_4 C21_4 1_555 1_555
C22_4 C17_4 1_555 1_555
H12_4 C22_4 1_555 1_555
C24_4 C20_4 1_555 1_555
C21_4 C22_4 1_555 1_555
C30_3 C29_3 1_555 1_555
H15_3 C30_3 1_555 1_555
N7_3 C29_3 1_555 1_555
C32_3 N7_3 1_555 1_555
N8_3 C32_3 1_555 1_555
C33_3 N8_3 1_555 1_555
N9_3 C33_3 1_555 1_555
C34_3 N9_3 1_555 1_555
N10_3 C32_3 1_555 1_555
N11_3 C34_3 1_555 1_555
N12_3 C33_3 1_555 1_555
C42_3 N12_3 1_555 1_555
C43_3 C42_3 1_555 1_555
H21_3 C43_3 1_555 1_555
C34_3 N10_3 1_555 1_555
N7_3 H28_3 1_555 1_555
N12_3 H30_3 1_555 1_555
N6_3 H26_3 1_555 1_555
N2_3 C8_3 1_555 1_555
C9_3 N2_3 1_555 1_555
N3_3 C9_3 1_555 1_555
C10_3 N3_3 1_555 1_555
N4_3 C8_3 1_555 1_555
N5_3 C9_3 1_555 1_555
C11_3 N5_3 1_555 1_555
C16_3 C11_3 1_555 1_555
H8_3 C16_3 1_555 1_555
C10_3 N4_3 1_555 1_555
N5_3 H25_3 1_555 1_555
C30_4 C29_4 1_555 1_555
H15_4 C30_4 1_555 1_555
N7_4 C29_4 1_555 1_555
C32_4 N7_4 1_555 1_555
N8_4 C32_4 1_555 1_555
C33_4 N8_4 1_555 1_555
N9_4 C33_4 1_555 1_555
C34_4 N9_4 1_555 1_555
N10_4 C32_4 1_555 1_555
N11_4 C34_4 1_555 1_555
N12_4 C33_4 1_555 1_555
C42_4 N12_4 1_555 1_555
C43_4 C42_4 1_555 1_555
H21_4 C43_4 1_555 1_555
C34_4 N10_4 1_555 1_555
N7_4 H28_4 1_555 1_555
N12_4 H30_4 1_555 1_555
N2_4 C8_4 1_555 1_555
C9_4 N2_4 1_555 1_555
N3_4 C9_4 1_555 1_555
C10_4 N3_4 1_555 1_555
N4_4 C8_4 1_555 1_555
N5_4 C9_4 1_555 1_555
C11_4 N5_4 1_555 1_555
C16_4 C11_4 1_555 1_555
H8_4 C16_4 1_555 1_555
C10_4 N4_4 1_555 1_555
N5_4 H25_4 1_555 1_555
N6_4 H26_4 1_555 1_555

#END
