
###############################################################################
#
# This file contains modified crystal structure data generated from the
# MOF subset of the Cambridge Structural Database (CSD) v543 
# hosted by the Cambridge Crystallographic Data Centre (CCDC).
#
# This work is licensed under the Creative Commons
# Attribution-NonCommercial-ShareAlike 4.0 International License.
# To view a copy of this license, visit
# http://creativecommons.org/licenses/by-nc-sa/4.0/
# or send a letter to
# Creative Commons, PO Box 1866, Mountain View, CA 94042, USA.
#
# CIF created using the CSD Python API on 29 September 2022
# The structure has been converted into the P1 space group
# The structure has a 3D framework
# The original CSD entry YUBRUI is in the cubic crystal system
# The framework has been calculated to contain at least 10.0% void space
# The void calculation uses a probe of radius 1.32A, grid spacing 0.4
# The framework is charged, counterions have been retained in the structure
#
###############################################################################

data_YUBRUI
_chemical_formula_moiety         '(C144 H96 Cl8 Hg3 N48 O32 2-)n'
_symmetry_cell_setting           triclinic
_symmetry_space_group_name_H-M   'P 1'
_symmetry_Int_Tables_number      1
_space_group_name_Hall           'P 1'
loop_
_symmetry_equiv_pos_site_id
_symmetry_equiv_pos_as_xyz
1 x,y,z
_cell_length_a                   19.460(3)
_cell_length_b                   19.460(3)
_cell_length_c                   19.460(3)
_cell_angle_alpha                90
_cell_angle_beta                 90
_cell_angle_gamma                90
_cell_volume                     7369.34
loop_
_atom_site_label
_atom_site_type_symbol
_atom_site_fract_x
_atom_site_fract_y
_atom_site_fract_z
Hg4 Hg -0.0000 0.0000 0.5000
Hg1 Hg 0.0000 0.5000 0.0000
N1 N 0.0309(4) 0.3845(4) 0.0382(4)
C1 C 0.0812(5) 0.3494(5) 0.0038(6)
C2 C 0.1074(5) 0.2883(5) 0.0261(5)
C3 C 0.0825(5) 0.2604(5) 0.0858(5)
C4 C 0.0311(5) 0.2960(5) 0.1215(5)
H3 H 0.0095(5) 0.2755(5) 0.1684(5)
C5 C 0.0094(5) 0.3561(5) 0.0961(5)
C6 C 0.1131(5) 0.1959(5) 0.1145(5)
N2 N 0.1685(4) 0.1710(4) 0.0839(4)
C7 C 0.1959(5) 0.1145(5) 0.1131(5)
C8 C 0.2604(5) 0.0858(5) 0.0825(5)
C9 C 0.2883(5) 0.0261(5) 0.1074(5)
C10 C 0.3494(5) 0.0038(6) 0.0812(5)
N3 N 0.3845(4) 0.0382(4) 0.0309(4)
C11 C 0.3561(5) 0.0961(5) 0.0094(5)
C12 C 0.2960(5) 0.1215(5) 0.0311(5)
H5 H 0.2755(5) 0.1684(5) 0.0095(5)
N4 N 0.1710(4) 0.0839(4) 0.1685(4)
C13 C 0.1145(5) 0.1131(5) 0.1959(5)
C14 C 0.0858(5) 0.0825(5) 0.2604(5)
C15 C 0.0261(5) 0.1074(5) 0.2883(5)
C16 C 0.0038(6) 0.0812(5) 0.3494(5)
N5 N 0.0382(4) 0.0309(4) 0.3845(4)
C17 C 0.0961(5) 0.0094(5) 0.3561(5)
C18 C 0.1215(5) 0.0311(5) 0.2960(5)
H9 H 0.1684(5) 0.0095(5) 0.2755(5)
N6 N 0.0839(4) 0.1685(4) 0.1710(4)
H13 H 0.0432(6) 0.6012(5) 0.1289(5)
H14 H 0.0028(5) 0.6471(5) 0.2377(5)
H18 H 0.0288(5) 0.8838(5) 0.3746(5)
N16 N 0.1155(4) 0.5382(4) 0.0309(4)
Hg2 Hg 0.5000 0.0000 0.0000
Hg4_2 Hg -0.0000 1.0000 0.5000
Hg1_2 Hg -0.0000 0.5000 1.0000
H1 H 0.1012(5) 0.3711(5) 0.9568(6)
H2 H 0.1471(5) 0.2623(5) 0.9972(5)
H6 H 0.3838(5) 0.1254(5) 0.9712(5)
N15 N 0.0382(4) 0.4691(4) 0.8845(4)
Hg2_2 Hg 0.5000 0.0000 1.0000
H7 H 0.3711(5) 0.9568(6) 0.1012(5)
H8 H 0.2623(5) 0.9972(5) 0.1471(5)
H10 H 0.1254(5) 0.9712(5) 0.3838(5)
Hg2_3 Hg 0.5000 1.0000 0.0000
Hg2_4 Hg 0.5000 1.0000 1.0000
Hg4_3 Hg 1.0000 0.0000 0.5000
Hg1_3 Hg 1.0000 0.5000 0.0000
H4 H 0.9712(5) 0.3838(5) 0.1254(5)
H11 H 0.9568(6) 0.1012(5) 0.3711(5)
H12 H 0.9972(5) 0.1471(5) 0.2623(5)
N7 N 0.9618(4) 0.5309(4) 0.1155(4)
C19 C 0.9962(6) 0.5812(5) 0.1506(5)
C20 C 0.9739(5) 0.6074(5) 0.2117(5)
C21 C 0.9142(5) 0.5825(5) 0.2396(5)
C22 C 0.8785(5) 0.5311(5) 0.2040(5)
H15 H 0.8316(5) 0.5095(5) 0.2245(5)
C23 C 0.9039(5) 0.5094(5) 0.1439(5)
H16 H 0.8746(5) 0.4712(5) 0.1162(5)
C24 C 0.8855(5) 0.6131(5) 0.3041(5)
N8 N 0.9161(4) 0.6685(4) 0.3290(4)
C25 C 0.8869(5) 0.6959(5) 0.3855(5)
C26 C 0.9175(5) 0.7604(5) 0.4142(5)
C27 C 0.8926(5) 0.7883(5) 0.4739(5)
C28 C 0.9188(5) 0.8494(5) 0.4962(6)
N9 N 0.9691(4) 0.8845(4) 0.4618(4)
C29 C 0.9906(5) 0.8561(5) 0.4039(5)
C30 C 0.9689(5) 0.7960(5) 0.3785(5)
H17 H 0.9905(5) 0.7755(5) 0.3316(5)
H19 H 0.8988(5) 0.8711(5) 0.5432(6)
H20 H 0.8529(5) 0.7623(5) 0.5028(5)
N10 N 0.8315(4) 0.6710(4) 0.4161(4)
C31 C 0.8041(5) 0.6145(5) 0.3869(5)
C32 C 0.7396(5) 0.5858(5) 0.4175(5)
C33 C 0.7117(5) 0.5261(5) 0.3926(5)
C34 C 0.6506(5) 0.5038(6) 0.4188(5)
N11 N 0.6155(4) 0.5382(4) 0.4691(4)
C35 C 0.6439(5) 0.5961(5) 0.4906(5)
C36 C 0.7040(5) 0.6215(5) 0.4689(5)
H21 H 0.7245(5) 0.6684(5) 0.4905(5)
H22 H 0.6162(5) 0.6254(5) 0.5288(5)
H23 H 0.6289(5) 0.4568(6) 0.3988(5)
H24 H 0.7377(5) 0.4972(5) 0.3529(5)
N12 N 0.8290(4) 0.5839(4) 0.3315(4)
Hg4_4 Hg 1.0000 1.0000 0.5000
Hg5 Hg 0.5000 0.5000 0.5000
Hg1_4 Hg 1.0000 0.5000 1.0000
N13 N 0.8845(4) 0.4618(4) 0.9691(4)
N14 N 0.9691(4) 0.6155(4) 0.9618(4)
H7_2 H 0.1289(5) 0.0432(6) 0.6012(5)
H8_2 H 0.2377(5) 0.0028(5) 0.6471(5)
H10_2 H 0.3746(5) 0.0288(5) 0.8838(5)
H19_2 H 0.6012(5) 0.1289(5) 0.0432(6)
H20_2 H 0.6471(5) 0.2377(5) 0.0028(5)
H22_2 H 0.8838(5) 0.3746(5) 0.0288(5)
N1_2 N 0.4691(4) 0.6155(4) 0.5382(4)
C1_2 C 0.4188(5) 0.6506(5) 0.5038(6)
H1_2 H 0.3988(5) 0.6289(5) 0.4568(6)
C2_2 C 0.3926(5) 0.7117(5) 0.5261(5)
H2_2 H 0.3529(5) 0.7377(5) 0.4972(5)
C3_2 C 0.4175(5) 0.7396(5) 0.5858(5)
C4_2 C 0.4689(5) 0.7040(5) 0.6215(5)
H3_2 H 0.4905(5) 0.7245(5) 0.6684(5)
C5_2 C 0.4906(5) 0.6439(5) 0.5961(5)
H4_2 H 0.5288(5) 0.6162(5) 0.6254(5)
C6_2 C 0.3869(5) 0.8041(5) 0.6145(5)
N2_2 N 0.3315(4) 0.8290(4) 0.5839(4)
C7_2 C 0.3041(5) 0.8855(5) 0.6131(5)
C8_2 C 0.2396(5) 0.9142(5) 0.5825(5)
C9_2 C 0.2117(5) 0.9739(5) 0.6074(5)
C10_2 C 0.1506(5) 0.9962(6) 0.5812(5)
N3_2 N 0.1155(4) 0.9618(4) 0.5309(4)
C11_2 C 0.1439(5) 0.9039(5) 0.5094(5)
C12_2 C 0.2040(5) 0.8785(5) 0.5311(5)
H5_2 H 0.2245(5) 0.8316(5) 0.5095(5)
H6_2 H 0.1162(5) 0.8746(5) 0.4712(5)
N4_2 N 0.3290(4) 0.9161(4) 0.6685(4)
C13_2 C 0.3855(5) 0.8869(5) 0.6959(5)
C14_2 C 0.4142(5) 0.9175(5) 0.7604(5)
C15_2 C 0.4739(5) 0.8926(5) 0.7883(5)
C16_2 C 0.4962(6) 0.9188(5) 0.8494(5)
N5_2 N 0.4618(4) 0.9691(4) 0.8845(4)
C17_2 C 0.4039(5) 0.9906(5) 0.8561(5)
C18_2 C 0.3785(5) 0.9689(5) 0.7960(5)
H9_2 H 0.3316(5) 0.9905(5) 0.7755(5)
H11_2 H 0.5432(6) 0.8988(5) 0.8711(5)
H12_2 H 0.5028(5) 0.8529(5) 0.7623(5)
N6_2 N 0.4161(4) 0.8315(4) 0.6710(4)
N7_2 N 0.5382(4) 0.4691(4) 0.6155(4)
C19_2 C 0.5038(6) 0.4188(5) 0.6506(5)
H13_2 H 0.4568(6) 0.3988(5) 0.6289(5)
C20_2 C 0.5261(5) 0.3926(5) 0.7117(5)
H14_2 H 0.4972(5) 0.3529(5) 0.7377(5)
C21_2 C 0.5858(5) 0.4175(5) 0.7396(5)
C22_2 C 0.6215(5) 0.4689(5) 0.7040(5)
H15_2 H 0.6684(5) 0.4905(5) 0.7245(5)
C23_2 C 0.5961(5) 0.4906(5) 0.6439(5)
H16_2 H 0.6254(5) 0.5288(5) 0.6162(5)
C24_2 C 0.6145(5) 0.3869(5) 0.8041(5)
N8_2 N 0.5839(4) 0.3315(4) 0.8290(4)
C25_2 C 0.6131(5) 0.3041(5) 0.8855(5)
C26_2 C 0.5825(5) 0.2396(5) 0.9142(5)
C27_2 C 0.6074(5) 0.2117(5) 0.9739(5)
C28_2 C 0.5812(5) 0.1506(5) 0.9962(6)
N9_2 N 0.5309(4) 0.1155(4) 0.9618(4)
C29_2 C 0.5094(5) 0.1439(5) 0.9039(5)
C30_2 C 0.5311(5) 0.2040(5) 0.8785(5)
H17_2 H 0.5095(5) 0.2245(5) 0.8316(5)
H18_2 H 0.4712(5) 0.1162(5) 0.8746(5)
N10_2 N 0.6685(4) 0.3290(4) 0.9161(4)
C31_2 C 0.6959(5) 0.3855(5) 0.8869(5)
C32_2 C 0.7604(5) 0.4142(5) 0.9175(5)
C33_2 C 0.7883(5) 0.4739(5) 0.8926(5)
C34_2 C 0.8494(5) 0.4962(6) 0.9188(5)
C35_2 C 0.8561(5) 0.4039(5) 0.9906(5)
C36_2 C 0.7960(5) 0.3785(5) 0.9689(5)
H21_2 H 0.7755(5) 0.3316(5) 0.9905(5)
H23_2 H 0.8711(5) 0.5432(6) 0.8988(5)
H24_2 H 0.7623(5) 0.5028(5) 0.8529(5)
N12_2 N 0.6710(4) 0.4161(4) 0.8315(4)
N14_2 N 0.5309(4) 0.3845(4) 0.4618(4)
N15_2 N 0.4618(4) 0.5309(4) 0.3845(4)
N16_2 N 0.3845(4) 0.4618(4) 0.5309(4)
N15_3 N 0.5382(4) 0.0309(4) 0.1155(4)
N14_3 N 0.4691(4) 0.8845(4) 0.0382(4)
N16_3 N 0.6155(4) 0.9618(4) 0.9691(4)
N16_4 N 0.0309(4) 0.1155(4) 0.5382(4)
N15_4 N 0.8845(4) 0.0382(4) 0.4691(4)
N14_4 N 0.9618(4) 0.9691(4) 0.6155(4)
H4_3 H 0.0288(5) 0.6162(5) 0.8746(5)
H11_3 H 0.0432(6) 0.8988(5) 0.6289(5)
H12_3 H 0.0028(5) 0.8529(5) 0.7377(5)
C19_3 C 0.0038(6) 0.4188(5) 0.8494(5)
C20_3 C 0.0261(5) 0.3926(5) 0.7883(5)
C21_3 C 0.0858(5) 0.4175(5) 0.7604(5)
C22_3 C 0.1215(5) 0.4689(5) 0.7960(5)
H15_3 H 0.1684(5) 0.4905(5) 0.7755(5)
C23_3 C 0.0961(5) 0.4906(5) 0.8561(5)
H16_3 H 0.1254(5) 0.5288(5) 0.8838(5)
C24_3 C 0.1145(5) 0.3869(5) 0.6959(5)
N8_3 N 0.0839(4) 0.3315(4) 0.6710(4)
C25_3 C 0.1131(5) 0.3041(5) 0.6145(5)
C26_3 C 0.0825(5) 0.2396(5) 0.5858(5)
C27_3 C 0.1074(5) 0.2117(5) 0.5261(5)
C28_3 C 0.0812(5) 0.1506(5) 0.5038(6)
C29_3 C 0.0094(5) 0.1439(5) 0.5961(5)
C30_3 C 0.0311(5) 0.2040(5) 0.6215(5)
H17_3 H 0.0095(5) 0.2245(5) 0.6684(5)
H19_3 H 0.1012(5) 0.1289(5) 0.4568(6)
H20_3 H 0.1471(5) 0.2377(5) 0.4972(5)
N10_3 N 0.1685(4) 0.3290(4) 0.5839(4)
C31_3 C 0.1959(5) 0.3855(5) 0.6131(5)
C32_3 C 0.2604(5) 0.4142(5) 0.5825(5)
C33_3 C 0.2883(5) 0.4739(5) 0.6074(5)
C34_3 C 0.3494(5) 0.4962(6) 0.5812(5)
C35_3 C 0.3561(5) 0.4039(5) 0.5094(5)
C36_3 C 0.2960(5) 0.3785(5) 0.5311(5)
H21_3 H 0.2755(5) 0.3316(5) 0.5095(5)
H22_3 H 0.3838(5) 0.3746(5) 0.4712(5)
H23_3 H 0.3711(5) 0.5432(6) 0.6012(5)
H24_3 H 0.2623(5) 0.5028(5) 0.6471(5)
N12_3 N 0.1710(4) 0.4161(4) 0.6685(4)
H7_3 H 0.6289(5) 0.0432(6) 0.8988(5)
H8_3 H 0.7377(5) 0.0028(5) 0.8529(5)
H10_3 H 0.8746(5) 0.0288(5) 0.6162(5)
H1_3 H 0.8988(5) 0.6289(5) 0.0432(6)
H2_3 H 0.8529(5) 0.7377(5) 0.0028(5)
H6_3 H 0.6162(5) 0.8746(5) 0.0288(5)
C1_3 C 0.9188(5) 0.6506(5) 0.9962(6)
C2_3 C 0.8926(5) 0.7117(5) 0.9739(5)
C3_3 C 0.9175(5) 0.7396(5) 0.9142(5)
C4_3 C 0.9689(5) 0.7040(5) 0.8785(5)
H3_3 H 0.9905(5) 0.7245(5) 0.8316(5)
C5_3 C 0.9906(5) 0.6439(5) 0.9039(5)
C6_3 C 0.8869(5) 0.8041(5) 0.8855(5)
N2_3 N 0.8315(4) 0.8290(4) 0.9161(4)
C7_3 C 0.8041(5) 0.8855(5) 0.8869(5)
C8_3 C 0.7396(5) 0.9142(5) 0.9175(5)
C9_3 C 0.7117(5) 0.9739(5) 0.8926(5)
C10_3 C 0.6506(5) 0.9962(6) 0.9188(5)
C11_3 C 0.6439(5) 0.9039(5) 0.9906(5)
C12_3 C 0.7040(5) 0.8785(5) 0.9689(5)
H5_3 H 0.7245(5) 0.8316(5) 0.9905(5)
N4_3 N 0.8290(4) 0.9161(4) 0.8315(4)
C13_3 C 0.8855(5) 0.8869(5) 0.8041(5)
C14_3 C 0.9142(5) 0.9175(5) 0.7396(5)
C15_3 C 0.9739(5) 0.8926(5) 0.7117(5)
C16_3 C 0.9962(6) 0.9188(5) 0.6506(5)
C17_3 C 0.9039(5) 0.9906(5) 0.6439(5)
C18_3 C 0.8785(5) 0.9689(5) 0.7040(5)
H9_3 H 0.8316(5) 0.9905(5) 0.7245(5)
N6_3 N 0.9161(4) 0.8315(4) 0.8290(4)
H13_3 H 0.9568(6) 0.3988(5) 0.8711(5)
H14_3 H 0.9972(5) 0.3529(5) 0.7623(5)
H18_3 H 0.9712(5) 0.1162(5) 0.6254(5)
C1_4 C 0.5812(5) 0.3494(5) 0.4962(6)
H1_4 H 0.6012(5) 0.3711(5) 0.5432(6)
C2_4 C 0.6074(5) 0.2883(5) 0.4739(5)
H2_4 H 0.6471(5) 0.2623(5) 0.5028(5)
C3_4 C 0.5825(5) 0.2604(5) 0.4142(5)
C4_4 C 0.5311(5) 0.2960(5) 0.3785(5)
H3_4 H 0.5095(5) 0.2755(5) 0.3316(5)
C5_4 C 0.5094(5) 0.3561(5) 0.4039(5)
H4_4 H 0.4712(5) 0.3838(5) 0.3746(5)
C6_4 C 0.6131(5) 0.1959(5) 0.3855(5)
N2_4 N 0.6685(4) 0.1710(4) 0.4161(4)
C7_4 C 0.6959(5) 0.1145(5) 0.3869(5)
C8_4 C 0.7604(5) 0.0858(5) 0.4175(5)
C9_4 C 0.7883(5) 0.0261(5) 0.3926(5)
C10_4 C 0.8494(5) 0.0038(6) 0.4188(5)
C11_4 C 0.8561(5) 0.0961(5) 0.4906(5)
C12_4 C 0.7960(5) 0.1215(5) 0.4689(5)
H5_4 H 0.7755(5) 0.1684(5) 0.4905(5)
H6_4 H 0.8838(5) 0.1254(5) 0.5288(5)
N4_4 N 0.6710(4) 0.0839(4) 0.3315(4)
C13_4 C 0.6145(5) 0.1131(5) 0.3041(5)
C14_4 C 0.5858(5) 0.0825(5) 0.2396(5)
C15_4 C 0.5261(5) 0.1074(5) 0.2117(5)
C16_4 C 0.5038(6) 0.0812(5) 0.1506(5)
C17_4 C 0.5961(5) 0.0094(5) 0.1439(5)
C18_4 C 0.6215(5) 0.0311(5) 0.2040(5)
H9_4 H 0.6684(5) 0.0095(5) 0.2245(5)
H11_4 H 0.4568(6) 0.1012(5) 0.1289(5)
H12_4 H 0.4972(5) 0.1471(5) 0.2377(5)
N6_4 N 0.5839(4) 0.1685(4) 0.3290(4)
C19_4 C 0.4962(6) 0.5812(5) 0.3494(5)
H13_4 H 0.5432(6) 0.6012(5) 0.3711(5)
C20_4 C 0.4739(5) 0.6074(5) 0.2883(5)
H14_4 H 0.5028(5) 0.6471(5) 0.2623(5)
C21_4 C 0.4142(5) 0.5825(5) 0.2604(5)
C22_4 C 0.3785(5) 0.5311(5) 0.2960(5)
H15_4 H 0.3316(5) 0.5095(5) 0.2755(5)
C23_4 C 0.4039(5) 0.5094(5) 0.3561(5)
H16_4 H 0.3746(5) 0.4712(5) 0.3838(5)
C24_4 C 0.3855(5) 0.6131(5) 0.1959(5)
N8_4 N 0.4161(4) 0.6685(4) 0.1710(4)
C25_4 C 0.3869(5) 0.6959(5) 0.1145(5)
C26_4 C 0.4175(5) 0.7604(5) 0.0858(5)
C27_4 C 0.3926(5) 0.7883(5) 0.0261(5)
C28_4 C 0.4188(5) 0.8494(5) 0.0038(6)
C29_4 C 0.4906(5) 0.8561(5) 0.0961(5)
C30_4 C 0.4689(5) 0.7960(5) 0.1215(5)
H17_4 H 0.4905(5) 0.7755(5) 0.1684(5)
H18_4 H 0.5288(5) 0.8838(5) 0.1254(5)
N10_4 N 0.3315(4) 0.6710(4) 0.0839(4)
C31_4 C 0.3041(5) 0.6145(5) 0.1131(5)
C32_4 C 0.2396(5) 0.5858(5) 0.0825(5)
C33_4 C 0.2117(5) 0.5261(5) 0.1074(5)
C34_4 C 0.1506(5) 0.5038(6) 0.0812(5)
C35_4 C 0.1439(5) 0.5961(5) 0.0094(5)
C36_4 C 0.2040(5) 0.6215(5) 0.0311(5)
H21_4 H 0.2245(5) 0.6684(5) 0.0095(5)
H23_4 H 0.1289(5) 0.4568(6) 0.1012(5)
H24_4 H 0.2377(5) 0.4972(5) 0.1471(5)
N12_4 N 0.3290(4) 0.5839(4) 0.1685(4)
H19_4 H 0.3988(5) 0.8711(5) 0.9568(6)
H20_4 H 0.3529(5) 0.7623(5) 0.9972(5)
H22_4 H 0.1162(5) 0.6254(5) 0.9712(5)
H7_4 H 0.8711(5) 0.9568(6) 0.3988(5)
H8_4 H 0.7623(5) 0.9972(5) 0.3529(5)
H10_4 H 0.6254(5) 0.9712(5) 0.1162(5)
Cl1 Cl 0.3280(1) 0.3280(1) 0.3280(1)
O1 O 0.2862(4) 0.2862(4) 0.2862(4)
O2 O 0.3598(5) 0.2885(5) 0.3805(5)
O3 O 0.3805(5) 0.3598(5) 0.2885(5)
O4 O 0.2885(5) 0.3805(5) 0.3598(5)
Cl1_2 Cl 0.1720(1) 0.6720(1) 0.8280(1)
O1_2 O 0.2138(4) 0.7138(4) 0.7862(4)
O2_2 O 0.1402(5) 0.7115(5) 0.8805(5)
O3_2 O 0.1195(5) 0.6402(5) 0.7885(5)
O4_2 O 0.2115(5) 0.6195(5) 0.8598(5)
Cl1_3 Cl 0.8280(1) 0.1720(1) 0.6720(1)
O1_3 O 0.7862(4) 0.2138(4) 0.7138(4)
O2_3 O 0.8598(5) 0.2115(5) 0.6195(5)
O3_3 O 0.8805(5) 0.1402(5) 0.7115(5)
O4_3 O 0.7885(5) 0.1195(5) 0.6402(5)
Cl1_4 Cl 0.6720(1) 0.8280(1) 0.1720(1)
O1_4 O 0.7138(4) 0.7862(4) 0.2138(4)
O2_4 O 0.6402(5) 0.7885(5) 0.1195(5)
O3_4 O 0.6195(5) 0.8598(5) 0.2115(5)
O4_4 O 0.7115(5) 0.8805(5) 0.1402(5)
Cl1_5 Cl 0.6720(1) 0.6720(1) 0.6720(1)
O1_5 O 0.7138(4) 0.7138(4) 0.7138(4)
O2_5 O 0.6402(5) 0.7115(5) 0.6195(5)
O3_5 O 0.6195(5) 0.6402(5) 0.7115(5)
O4_5 O 0.7115(5) 0.6195(5) 0.6402(5)
Cl1_6 Cl 0.8280(1) 0.3280(1) 0.1720(1)
O1_6 O 0.7862(4) 0.2862(4) 0.2138(4)
O2_6 O 0.8598(5) 0.2885(5) 0.1195(5)
O3_6 O 0.8805(5) 0.3598(5) 0.2115(5)
O4_6 O 0.7885(5) 0.3805(5) 0.1402(5)
Cl1_7 Cl 0.1720(1) 0.8280(1) 0.3280(1)
O1_7 O 0.2138(4) 0.7862(4) 0.2862(4)
O2_7 O 0.1402(5) 0.7885(5) 0.3805(5)
O3_7 O 0.1195(5) 0.8598(5) 0.2885(5)
O4_7 O 0.2115(5) 0.8805(5) 0.3598(5)
Cl1_8 Cl 0.3280(1) 0.1720(1) 0.8280(1)
O1_8 O 0.2862(4) 0.2138(4) 0.7862(4)
O2_8 O 0.3598(5) 0.2115(5) 0.8805(5)
O3_8 O 0.3805(5) 0.1402(5) 0.7885(5)
O4_8 O 0.2885(5) 0.1195(5) 0.8598(5)
loop_
_geom_bond_atom_site_label_1
_geom_bond_atom_site_label_2
_geom_bond_site_symmetry_1
_geom_bond_site_symmetry_2
Hg1 N1 1_555 1_555
N1 C1 1_555 1_555
C2 C1 1_555 1_555
C3 C2 1_555 1_555
C4 C3 1_555 1_555
H3 C4 1_555 1_555
C5 N1 1_555 1_555
C6 C3 1_555 1_555
N2 C6 1_555 1_555
C7 N2 1_555 1_555
C8 C7 1_555 1_555
C9 C8 1_555 1_555
C10 C9 1_555 1_555
N3 C10 1_555 1_555
C11 N3 1_555 1_555
C12 C8 1_555 1_555
H5 C12 1_555 1_555
N4 C7 1_555 1_555
C13 N4 1_555 1_555
C14 C13 1_555 1_555
C15 C14 1_555 1_555
C16 C15 1_555 1_555
N5 C16 1_555 1_555
C17 N5 1_555 1_555
C18 C14 1_555 1_555
H9 C18 1_555 1_555
N6 C6 1_555 1_555
N16 Hg1 1_555 1_555
Hg2 N3 1_555 1_555
Hg4 N5 1_555 1_555
C4 C5 1_555 1_555
C11 C12 1_555 1_555
C13 N6 1_555 1_555
C17 C18 1_555 1_555
N15 Hg1_2 1_555 1_555
N7 Hg1_3 1_555 1_555
C19 N7 1_555 1_555
C20 C19 1_555 1_555
C21 C20 1_555 1_555
C22 C21 1_555 1_555
H15 C22 1_555 1_555
C23 N7 1_555 1_555
H16 C23 1_555 1_555
C24 C21 1_555 1_555
N8 C24 1_555 1_555
C25 N8 1_555 1_555
C26 C25 1_555 1_555
C27 C26 1_555 1_555
C28 C27 1_555 1_555
N9 C28 1_555 1_555
C29 N9 1_555 1_555
C30 C26 1_555 1_555
H17 C30 1_555 1_555
H19 C28 1_555 1_555
H20 C27 1_555 1_555
N10 C25 1_555 1_555
C31 N10 1_555 1_555
C32 C31 1_555 1_555
C33 C32 1_555 1_555
C34 C33 1_555 1_555
N11 C34 1_555 1_555
C35 N11 1_555 1_555
C36 C32 1_555 1_555
H21 C36 1_555 1_555
H22 C35 1_555 1_555
H23 C34 1_555 1_555
H24 C33 1_555 1_555
N12 C24 1_555 1_555
Hg4_4 N9 1_555 1_555
Hg5 N11 1_555 1_555
C22 C23 1_555 1_555
C29 C30 1_555 1_555
C31 N12 1_555 1_555
C35 C36 1_555 1_555
N13 Hg1_4 1_555 1_555
N14 Hg1_4 1_555 1_555
Hg5 N1_2 1_555 1_555
N1_2 C1_2 1_555 1_555
C1_2 H1_2 1_555 1_555
C2_2 C1_2 1_555 1_555
H2_2 C2_2 1_555 1_555
C3_2 C2_2 1_555 1_555
C4_2 C3_2 1_555 1_555
H3_2 C4_2 1_555 1_555
C5_2 N1_2 1_555 1_555
H4_2 C5_2 1_555 1_555
C6_2 C3_2 1_555 1_555
N2_2 C6_2 1_555 1_555
C7_2 N2_2 1_555 1_555
C8_2 C7_2 1_555 1_555
C9_2 C8_2 1_555 1_555
C10_2 C9_2 1_555 1_555
N3_2 C10_2 1_555 1_555
C11_2 N3_2 1_555 1_555
C12_2 C8_2 1_555 1_555
H5_2 C12_2 1_555 1_555
H6_2 C11_2 1_555 1_555
N4_2 C7_2 1_555 1_555
C13_2 N4_2 1_555 1_555
C14_2 C13_2 1_555 1_555
C15_2 C14_2 1_555 1_555
C16_2 C15_2 1_555 1_555
N5_2 C16_2 1_555 1_555
C17_2 N5_2 1_555 1_555
C18_2 C14_2 1_555 1_555
H9_2 C18_2 1_555 1_555
H11_2 C16_2 1_555 1_555
H12_2 C15_2 1_555 1_555
N6_2 C6_2 1_555 1_555
N7_2 Hg5 1_555 1_555
C19_2 N7_2 1_555 1_555
H13_2 C19_2 1_555 1_555
C20_2 C19_2 1_555 1_555
H14_2 C20_2 1_555 1_555
C21_2 C20_2 1_555 1_555
C22_2 C21_2 1_555 1_555
H15_2 C22_2 1_555 1_555
C23_2 N7_2 1_555 1_555
H16_2 C23_2 1_555 1_555
C24_2 C21_2 1_555 1_555
N8_2 C24_2 1_555 1_555
C25_2 N8_2 1_555 1_555
C26_2 C25_2 1_555 1_555
C27_2 C26_2 1_555 1_555
C28_2 C27_2 1_555 1_555
N9_2 C28_2 1_555 1_555
C29_2 N9_2 1_555 1_555
C30_2 C26_2 1_555 1_555
H17_2 C30_2 1_555 1_555
H18_2 C29_2 1_555 1_555
N10_2 C25_2 1_555 1_555
C31_2 N10_2 1_555 1_555
C32_2 C31_2 1_555 1_555
C33_2 C32_2 1_555 1_555
C34_2 C33_2 1_555 1_555
N13 C34_2 1_555 1_555
C35_2 N13 1_555 1_555
C36_2 C32_2 1_555 1_555
H21_2 C36_2 1_555 1_555
H23_2 C34_2 1_555 1_555
H24_2 C33_2 1_555 1_555
N12_2 C24_2 1_555 1_555
N14_2 Hg5 1_555 1_555
N15_2 Hg5 1_555 1_555
N16_2 Hg5 1_555 1_555
Hg4_2 N3_2 1_555 1_555
Hg2_4 N5_2 1_555 1_555
Hg2_2 N9_2 1_555 1_555
C4_2 C5_2 1_555 1_555
C11_2 C12_2 1_555 1_555
C13_2 N6_2 1_555 1_555
C17_2 C18_2 1_555 1_555
C22_2 C23_2 1_555 1_555
C29_2 C30_2 1_555 1_555
C31_2 N12_2 1_555 1_555
C35_2 C36_2 1_555 1_555
N15_3 Hg2 1_555 1_555
N14_3 Hg2_3 1_555 1_555
N16_3 Hg2_4 1_555 1_555
N16_4 Hg4 1_555 1_555
N15_4 Hg4_3 1_555 1_555
N14_4 Hg4_4 1_555 1_555
C19_3 N15 1_555 1_555
C20_3 C19_3 1_555 1_555
C21_3 C20_3 1_555 1_555
C22_3 C21_3 1_555 1_555
H15_3 C22_3 1_555 1_555
C23_3 N15 1_555 1_555
H16_3 C23_3 1_555 1_555
C24_3 C21_3 1_555 1_555
N8_3 C24_3 1_555 1_555
C25_3 N8_3 1_555 1_555
C26_3 C25_3 1_555 1_555
C27_3 C26_3 1_555 1_555
C28_3 C27_3 1_555 1_555
N16_4 C28_3 1_555 1_555
C29_3 N16_4 1_555 1_555
C30_3 C26_3 1_555 1_555
H17_3 C30_3 1_555 1_555
H19_3 C28_3 1_555 1_555
H20_3 C27_3 1_555 1_555
N10_3 C25_3 1_555 1_555
C31_3 N10_3 1_555 1_555
C32_3 C31_3 1_555 1_555
C33_3 C32_3 1_555 1_555
C34_3 C33_3 1_555 1_555
N16_2 C34_3 1_555 1_555
C35_3 N16_2 1_555 1_555
C36_3 C32_3 1_555 1_555
H21_3 C36_3 1_555 1_555
H22_3 C35_3 1_555 1_555
H23_3 C34_3 1_555 1_555
H24_3 C33_3 1_555 1_555
N12_3 C24_3 1_555 1_555
C22_3 C23_3 1_555 1_555
C29_3 C30_3 1_555 1_555
C31_3 N12_3 1_555 1_555
C35_3 C36_3 1_555 1_555
N14 C1_3 1_555 1_555
C2_3 C1_3 1_555 1_555
C3_3 C2_3 1_555 1_555
C4_3 C3_3 1_555 1_555
H3_3 C4_3 1_555 1_555
C5_3 N14 1_555 1_555
C6_3 C3_3 1_555 1_555
N2_3 C6_3 1_555 1_555
C7_3 N2_3 1_555 1_555
C8_3 C7_3 1_555 1_555
C9_3 C8_3 1_555 1_555
C10_3 C9_3 1_555 1_555
N16_3 C10_3 1_555 1_555
C11_3 N16_3 1_555 1_555
C12_3 C8_3 1_555 1_555
H5_3 C12_3 1_555 1_555
N4_3 C7_3 1_555 1_555
C13_3 N4_3 1_555 1_555
C14_3 C13_3 1_555 1_555
C15_3 C14_3 1_555 1_555
C16_3 C15_3 1_555 1_555
N14_4 C16_3 1_555 1_555
C17_3 N14_4 1_555 1_555
C18_3 C14_3 1_555 1_555
H9_3 C18_3 1_555 1_555
N6_3 C6_3 1_555 1_555
C4_3 C5_3 1_555 1_555
C11_3 C12_3 1_555 1_555
C13_3 N6_3 1_555 1_555
C17_3 C18_3 1_555 1_555
N14_2 C1_4 1_555 1_555
C1_4 H1_4 1_555 1_555
C2_4 C1_4 1_555 1_555
H2_4 C2_4 1_555 1_555
C3_4 C2_4 1_555 1_555
C4_4 C3_4 1_555 1_555
H3_4 C4_4 1_555 1_555
C5_4 N14_2 1_555 1_555
H4_4 C5_4 1_555 1_555
C6_4 C3_4 1_555 1_555
N2_4 C6_4 1_555 1_555
C7_4 N2_4 1_555 1_555
C8_4 C7_4 1_555 1_555
C9_4 C8_4 1_555 1_555
C10_4 C9_4 1_555 1_555
N15_4 C10_4 1_555 1_555
C11_4 N15_4 1_555 1_555
C12_4 C8_4 1_555 1_555
H5_4 C12_4 1_555 1_555
H6_4 C11_4 1_555 1_555
N4_4 C7_4 1_555 1_555
C13_4 N4_4 1_555 1_555
C14_4 C13_4 1_555 1_555
C15_4 C14_4 1_555 1_555
C16_4 C15_4 1_555 1_555
N15_3 C16_4 1_555 1_555
C17_4 N15_3 1_555 1_555
C18_4 C14_4 1_555 1_555
H9_4 C18_4 1_555 1_555
H11_4 C16_4 1_555 1_555
H12_4 C15_4 1_555 1_555
N6_4 C6_4 1_555 1_555
C19_4 N15_2 1_555 1_555
H13_4 C19_4 1_555 1_555
C20_4 C19_4 1_555 1_555
H14_4 C20_4 1_555 1_555
C21_4 C20_4 1_555 1_555
C22_4 C21_4 1_555 1_555
H15_4 C22_4 1_555 1_555
C23_4 N15_2 1_555 1_555
H16_4 C23_4 1_555 1_555
C24_4 C21_4 1_555 1_555
N8_4 C24_4 1_555 1_555
C25_4 N8_4 1_555 1_555
C26_4 C25_4 1_555 1_555
C27_4 C26_4 1_555 1_555
C28_4 C27_4 1_555 1_555
N14_3 C28_4 1_555 1_555
C29_4 N14_3 1_555 1_555
C30_4 C26_4 1_555 1_555
H17_4 C30_4 1_555 1_555
H18_4 C29_4 1_555 1_555
N10_4 C25_4 1_555 1_555
C31_4 N10_4 1_555 1_555
C32_4 C31_4 1_555 1_555
C33_4 C32_4 1_555 1_555
C34_4 C33_4 1_555 1_555
N16 C34_4 1_555 1_555
C35_4 N16 1_555 1_555
C36_4 C32_4 1_555 1_555
H21_4 C36_4 1_555 1_555
H23_4 C34_4 1_555 1_555
H24_4 C33_4 1_555 1_555
N12_4 C24_4 1_555 1_555
C4_4 C5_4 1_555 1_555
C11_4 C12_4 1_555 1_555
C13_4 N6_4 1_555 1_555
C17_4 C18_4 1_555 1_555
C22_4 C23_4 1_555 1_555
C29_4 C30_4 1_555 1_555
C31_4 N12_4 1_555 1_555
C35_4 C36_4 1_555 1_555
Cl1 O1 1_555 1_555
O2 Cl1 1_555 1_555
O3 Cl1 1_555 1_555
O4 Cl1 1_555 1_555
Cl1_2 O1_2 1_555 1_555
O2_2 Cl1_2 1_555 1_555
O3_2 Cl1_2 1_555 1_555
O4_2 Cl1_2 1_555 1_555
Cl1_3 O1_3 1_555 1_555
O2_3 Cl1_3 1_555 1_555
O3_3 Cl1_3 1_555 1_555
O4_3 Cl1_3 1_555 1_555
Cl1_4 O1_4 1_555 1_555
O2_4 Cl1_4 1_555 1_555
O3_4 Cl1_4 1_555 1_555
O4_4 Cl1_4 1_555 1_555
Cl1_5 O1_5 1_555 1_555
O2_5 Cl1_5 1_555 1_555
O3_5 Cl1_5 1_555 1_555
O4_5 Cl1_5 1_555 1_555
Cl1_6 O1_6 1_555 1_555
O2_6 Cl1_6 1_555 1_555
O3_6 Cl1_6 1_555 1_555
O4_6 Cl1_6 1_555 1_555
Cl1_7 O1_7 1_555 1_555
O2_7 Cl1_7 1_555 1_555
O3_7 Cl1_7 1_555 1_555
O4_7 Cl1_7 1_555 1_555
Cl1_8 O1_8 1_555 1_555
O2_8 Cl1_8 1_555 1_555
O3_8 Cl1_8 1_555 1_555
O4_8 Cl1_8 1_555 1_555

#END
