
###############################################################################
#
# This file contains modified crystal structure data generated from the
# MOF subset of the Cambridge Structural Database (CSD) v543 
# hosted by the Cambridge Crystallographic Data Centre (CCDC).
#
# This work is licensed under the Creative Commons
# Attribution-NonCommercial-ShareAlike 4.0 International License.
# To view a copy of this license, visit
# http://creativecommons.org/licenses/by-nc-sa/4.0/
# or send a letter to
# Creative Commons, PO Box 1866, Mountain View, CA 94042, USA.
#
# CIF created using the CSD Python API on 29 September 2022
# The structure has been converted into the P1 space group
# The structure has a 3D framework
# The original CSD entry YUBTIA is in the orthorhombic crystal system
# The framework has been calculated to contain at least 10.0% void space
# The void calculation uses a probe of radius 1.32A, grid spacing 0.4
#
###############################################################################

data_YUBTIA
_chemical_formula_moiety         '(C112 H72 Co4 N40 O16)n'
_symmetry_cell_setting           triclinic
_symmetry_space_group_name_H-M   'P 1'
_symmetry_Int_Tables_number      1
_space_group_name_Hall           'P 1'
loop_
_symmetry_equiv_pos_site_id
_symmetry_equiv_pos_as_xyz
1 x,y,z
_cell_length_a                   19.4254(7)
_cell_length_b                   21.878(2)
_cell_length_c                   15.5780(8)
_cell_angle_alpha                90
_cell_angle_beta                 90
_cell_angle_gamma                90
_cell_volume                     6620.48
loop_
_atom_site_label
_atom_site_type_symbol
_atom_site_fract_x
_atom_site_fract_y
_atom_site_fract_z
C14 C 0.4224(6) 0.0000 0.5756(7)
H10 H 0.4656 0.0000 0.6014
N5 N 0.2999(7) 0.0000 0.4948(7)
N6 N 0.44043(12) 0.40041(17) 0.59947(17)
C19 C 0.4437(2) 0.2734(3) 0.5960(3)
C20 C 0.4465(4) 0.2058(3) 0.5991(4)
C21 C 0.3949(3) 0.3701(3) 0.5548(3)
H12 H 0.3610 0.3916 0.5254
N7 N 0.3999(3) 0.17006(19) 0.5625(4)
H13 H 0.3617 0.1813 0.5395
N8 N 0.4963(2) 0.17399(19) 0.6320(3)
C22 C 0.4873(2) 0.3687(2) 0.6419(4)
H14 H 0.5211 0.3900 0.6720
C23 C 0.3955(3) 0.3051(2) 0.5496(4)
H15 H 0.3638 0.2846 0.5154
C24 C 0.4887(3) 0.3077(2) 0.6438(4)
H16 H 0.5209 0.2880 0.6783
N9 N 0.4851(3) 0.1147(2) 0.6270(4)
C25 C 0.4245(5) 0.1117(3) 0.5687(4)
C26 C 0.3958(5) 0.0532(2) 0.5597(5)
C27 C 0.3289(6) 0.0522(3) 0.5233(6)
H17 H 0.3044 0.0886 0.5189
Co2 Co 0.43996(3) 0.5000 0.59942(4)
Co3 Co 0.06004(3) 0.5000 0.09942(4)
O1 O 0.03646(19) 0.5000 0.8472(4)
N1 N 0.44043(12) 0.59959(17) 0.59947(17)
C1 C 0.0878(3) 0.5000 0.8982(4)
C2 C 0.4437(2) 0.7266(3) 0.5960(3)
O2 O 0.0844(3) 0.5000 0.9791(3)
O3 O 0.3969(3) 0.5000 0.7410(5)
C3 C 0.4465(4) 0.7942(3) 0.5991(4)
C4 C 0.2793(2) 0.5000 0.8559(5)
H1 H 0.3209 0.5000 0.8855
C5 C 0.2800(3) 0.5000 0.7659(4)
C6 C 0.2189(3) 0.5000 0.7282(4)
H2 H 0.2181 0.5000 0.6685
C7 C 0.3949(3) 0.6299(3) 0.5548(3)
H3 H 0.3610 0.6084 0.5254
C8 C 0.2165(3) 0.5000 0.9035(4)
H4 H 0.2167 0.5000 0.9632
N2 N 0.3999(3) 0.82994(19) 0.5625(4)
H5 H 0.3617 0.8187 0.5395
C9 C 0.1549(2) 0.5000 0.8575(3)
N3 N 0.4963(2) 0.82601(19) 0.6320(3)
C10 C 0.4873(2) 0.6313(2) 0.6419(4)
H6 H 0.5211 0.6100 0.6720
C11 C 0.3955(3) 0.6949(2) 0.5496(4)
H7 H 0.3638 0.7154 0.5154
C12 C 0.4887(3) 0.6923(2) 0.6438(4)
H8 H 0.5209 0.7120 0.6783
C13 C 0.1588(3) 0.5000 0.7686(5)
H9 H 0.1184 0.5000 0.7366
N4 N 0.4851(3) 0.8853(2) 0.6270(4)
C14_2 C 0.4224(6) 1.0000 0.5756(7)
H10_2 H 0.4656 1.0000 0.6014
C15 C 0.4245(5) 0.8883(3) 0.5687(4)
C16 C 0.3958(5) 0.9468(2) 0.5597(5)
N5_2 N 0.2999(7) 1.0000 0.4948(7)
C17 C 0.3289(6) 0.9478(3) 0.5233(6)
H11 H 0.3044 0.9114 0.5189
O4 O 0.3311(3) 0.5000 0.6236(4)
C18 C 0.3462(5) 0.5000 0.7134(7)
O5 O 0.53646(19) 0.5000 0.6528(4)
O6 O 0.4156(3) 0.5000 0.4791(3)
Co4 Co 0.93996(3) 0.5000 0.90058(4)
O1_2 O 0.46354(19) 0.5000 0.3472(4)
N1_2 N 0.05957(12) 0.40041(17) 0.09947(17)
C1_2 C 0.4122(3) 0.5000 0.3982(4)
C2_2 C 0.0563(2) 0.2734(3) 0.0960(3)
O3_2 O 0.1031(3) 0.5000 0.2410(5)
C3_2 C 0.0535(4) 0.2058(3) 0.0991(4)
C4_2 C 0.2207(2) 0.5000 0.3559(5)
H1_2 H 0.1791 0.5000 0.3855
C5_2 C 0.2200(3) 0.5000 0.2659(4)
C6_2 C 0.2811(3) 0.5000 0.2282(4)
H2_2 H 0.2819 0.5000 0.1685
C7_2 C 0.1051(3) 0.3701(3) 0.0548(3)
H3_2 H 0.1390 0.3916 0.0254
C8_2 C 0.2835(3) 0.5000 0.4035(4)
H4_2 H 0.2833 0.5000 0.4632
N2_2 N 0.1001(3) 0.17006(19) 0.0625(4)
H5_2 H 0.1383 0.1813 0.0395
C9_2 C 0.3451(2) 0.5000 0.3575(3)
N3_2 N 0.0037(2) 0.17399(19) 0.1320(3)
C10_2 C 0.0127(2) 0.3687(2) 0.1419(4)
C11_2 C 0.1045(3) 0.3051(2) 0.0496(4)
H7_2 H 0.1362 0.2846 0.0154
C12_2 C 0.0113(3) 0.3077(2) 0.1438(4)
C13_2 C 0.3412(3) 0.5000 0.2686(5)
H9_2 H 0.3816 0.5000 0.2366
N4_2 N 0.0149(3) 0.1147(2) 0.1270(4)
C14_3 C 0.0776(6) 0.0000 0.0756(7)
H10_3 H 0.0344 0.0000 0.1014
C15_2 C 0.0755(5) 0.1117(3) 0.0687(4)
C16_2 C 0.1042(5) 0.0532(2) 0.0597(5)
C17_2 C 0.1711(6) 0.0522(3) 0.0233(6)
H11_2 H 0.1956 0.0886 0.0189
O4_2 O 0.1689(3) 0.5000 0.1236(4)
C18_2 C 0.1538(5) 0.5000 0.2134(7)
Co4_2 Co 0.56004(3) 0.5000 0.40058(4)
N10 N 0.05957(12) 0.59959(17) 0.09947(17)
N5_3 N 0.2001(7) 0.0000 0.9948(7)
C14_4 C 0.0776(6) 1.0000 0.0756(7)
H10_4 H 0.0344 1.0000 0.1014
C19_2 C 0.0563(2) 0.7266(3) 0.0960(3)
C20_2 C 0.0535(4) 0.7942(3) 0.0991(4)
C21_2 C 0.1051(3) 0.6299(3) 0.0548(3)
H12_2 H 0.1390 0.6084 0.0254
N7_2 N 0.1001(3) 0.82994(19) 0.0625(4)
H13_2 H 0.1383 0.8187 0.0395
N8_2 N 0.0037(2) 0.82601(19) 0.1320(3)
C22_2 C 0.0127(2) 0.6313(2) 0.1419(4)
C23_2 C 0.1045(3) 0.6949(2) 0.0496(4)
H15_2 H 0.1362 0.7154 0.0154
C24_2 C 0.0113(3) 0.6923(2) 0.1438(4)
N9_2 N 0.0149(3) 0.8853(2) 0.1270(4)
C25_2 C 0.0755(5) 0.8883(3) 0.0687(4)
C26_2 C 0.1042(5) 0.9468(2) 0.0597(5)
C27_2 C 0.1711(6) 0.9478(3) 0.0233(6)
H17_2 H 0.1956 0.9114 0.0189
N5_4 N 0.2001(7) 1.0000 0.9948(7)
H6_2 H 0.9789 0.3900 0.1720
H8_2 H 0.9791 0.2880 0.1783
O5_2 O 0.96354(19) 0.5000 0.1528(4)
H14_2 H 0.9789 0.6100 0.1720
H16_2 H 0.9791 0.7120 0.1783
H6_3 H 0.0211 0.3900 0.8280
H8_3 H 0.0209 0.2880 0.8217
H14_3 H 0.0211 0.6100 0.8280
H16_3 H 0.0209 0.7120 0.8217
N5_5 N 0.7999(7) 0.0000 0.0052(7)
O6_2 O 0.9156(3) 0.5000 0.0209(3)
N1_3 N 0.94043(12) 0.40041(17) 0.90053(17)
C1_3 C 0.5878(3) 0.5000 0.6018(4)
C2_3 C 0.9437(2) 0.2734(3) 0.9040(3)
O2_2 O 0.5844(3) 0.5000 0.5209(3)
O3_3 O 0.8969(3) 0.5000 0.7590(5)
C3_3 C 0.9465(4) 0.2058(3) 0.9009(4)
C4_3 C 0.7793(2) 0.5000 0.6441(5)
H1_3 H 0.8209 0.5000 0.6145
C5_3 C 0.7800(3) 0.5000 0.7341(4)
C6_3 C 0.7189(3) 0.5000 0.7718(4)
H2_3 H 0.7181 0.5000 0.8315
C7_3 C 0.8949(3) 0.3701(3) 0.9452(3)
H3_3 H 0.8610 0.3916 0.9746
C8_3 C 0.7165(3) 0.5000 0.5965(4)
H4_3 H 0.7167 0.5000 0.5368
N2_3 N 0.8999(3) 0.17006(19) 0.9375(4)
H5_3 H 0.8617 0.1813 0.9605
C9_3 C 0.6549(2) 0.5000 0.6425(3)
N3_3 N 0.9963(2) 0.17399(19) 0.8680(3)
C10_3 C 0.9873(2) 0.3687(2) 0.8581(4)
C11_3 C 0.8955(3) 0.3051(2) 0.9504(4)
H7_3 H 0.8638 0.2846 0.9846
C12_3 C 0.9887(3) 0.3077(2) 0.8562(4)
C13_3 C 0.6588(3) 0.5000 0.7314(5)
H9_3 H 0.6184 0.5000 0.7634
N4_3 N 0.9851(3) 0.1147(2) 0.8730(4)
C14_5 C 0.9224(6) -0.0000 0.9244(7)
H10_5 H 0.9656 -0.0000 0.8986
C15_3 C 0.9245(5) 0.1117(3) 0.9313(4)
C16_3 C 0.8958(5) 0.0532(2) 0.9403(5)
C17_3 C 0.8289(6) 0.0522(3) 0.9767(6)
H11_3 H 0.8044 0.0886 0.9811
O4_3 O 0.8311(3) 0.5000 0.8764(4)
C18_3 C 0.8462(5) 0.5000 0.7866(7)
N10_2 N 0.94043(12) 0.59959(17) 0.90053(17)
N5_6 N 0.7999(7) 1.0000 0.0052(7)
C14_6 C 0.9224(6) 1.0000 0.9244(7)
H10_6 H 0.9656 1.0000 0.8986
C19_3 C 0.9437(2) 0.7266(3) 0.9040(3)
C20_3 C 0.9465(4) 0.7942(3) 0.9009(4)
C21_3 C 0.8949(3) 0.6299(3) 0.9452(3)
H12_3 H 0.8610 0.6084 0.9746
N7_3 N 0.8999(3) 0.82994(19) 0.9375(4)
H13_3 H 0.8617 0.8187 0.9605
N8_3 N 0.9963(2) 0.82601(19) 0.8680(3)
C22_3 C 0.9873(2) 0.6313(2) 0.8581(4)
C23_3 C 0.8955(3) 0.6949(2) 0.9504(4)
H15_3 H 0.8638 0.7154 0.9846
C24_3 C 0.9887(3) 0.6923(2) 0.8562(4)
N9_3 N 0.9851(3) 0.8853(2) 0.8730(4)
C25_3 C 0.9245(5) 0.8883(3) 0.9313(4)
C26_3 C 0.8958(5) 0.9468(2) 0.9403(5)
C27_3 C 0.8289(6) 0.9478(3) 0.9767(6)
H17_3 H 0.8044 0.9114 0.9811
C14_7 C 0.5776(6) 0.0000 0.4244(7)
H10_7 H 0.5344 0.0000 0.3986
N5_7 N 0.7001(7) 0.0000 0.5052(7)
N6_2 N 0.55957(12) 0.40041(17) 0.40053(17)
C19_4 C 0.5563(2) 0.2734(3) 0.4040(3)
C20_4 C 0.5535(4) 0.2058(3) 0.4009(4)
C21_4 C 0.6051(3) 0.3701(3) 0.4452(3)
H12_4 H 0.6390 0.3916 0.4746
N7_4 N 0.6001(3) 0.17006(19) 0.4375(4)
H13_4 H 0.6383 0.1813 0.4605
N8_4 N 0.5037(2) 0.17399(19) 0.3680(3)
C22_4 C 0.5127(2) 0.3687(2) 0.3581(4)
H14_4 H 0.4789 0.3900 0.3280
C23_4 C 0.6045(3) 0.3051(2) 0.4504(4)
H15_4 H 0.6362 0.2846 0.4846
C24_4 C 0.5113(3) 0.3077(2) 0.3562(4)
H16_4 H 0.4791 0.2880 0.3217
N9_4 N 0.5149(3) 0.1147(2) 0.3730(4)
C25_4 C 0.5755(5) 0.1117(3) 0.4313(4)
C26_4 C 0.6042(5) 0.0532(2) 0.4403(5)
C27_4 C 0.6711(6) 0.0522(3) 0.4767(6)
H17_4 H 0.6956 0.0886 0.4811
N1_4 N 0.55957(12) 0.59959(17) 0.40053(17)
C1_4 C 0.9122(3) 0.5000 0.1018(4)
C2_4 C 0.5563(2) 0.7266(3) 0.4040(3)
O3_4 O 0.6031(3) 0.5000 0.2590(5)
C3_4 C 0.5535(4) 0.7942(3) 0.4009(4)
C4_4 C 0.7207(2) 0.5000 0.1441(5)
H1_4 H 0.6791 0.5000 0.1145
C5_4 C 0.7200(3) 0.5000 0.2341(4)
C6_4 C 0.7811(3) 0.5000 0.2718(4)
H2_4 H 0.7819 0.5000 0.3315
C7_4 C 0.6051(3) 0.6299(3) 0.4452(3)
H3_4 H 0.6390 0.6084 0.4746
C8_4 C 0.7835(3) 0.5000 0.0965(4)
H4_4 H 0.7833 0.5000 0.0368
N2_4 N 0.6001(3) 0.82994(19) 0.4375(4)
H5_4 H 0.6383 0.8187 0.4605
C9_4 C 0.8451(2) 0.5000 0.1425(3)
N3_4 N 0.5037(2) 0.82601(19) 0.3680(3)
C10_4 C 0.5127(2) 0.6313(2) 0.3581(4)
H6_4 H 0.4789 0.6100 0.3280
C11_4 C 0.6045(3) 0.6949(2) 0.4504(4)
H7_4 H 0.6362 0.7154 0.4846
C12_4 C 0.5113(3) 0.6923(2) 0.3562(4)
H8_4 H 0.4791 0.7120 0.3217
C13_4 C 0.8412(3) 0.5000 0.2314(5)
H9_4 H 0.8816 0.5000 0.2634
N4_4 N 0.5149(3) 0.8853(2) 0.3730(4)
C14_8 C 0.5776(6) 1.0000 0.4244(7)
H10_8 H 0.5344 1.0000 0.3986
C15_4 C 0.5755(5) 0.8883(3) 0.4313(4)
C16_4 C 0.6042(5) 0.9468(2) 0.4403(5)
N5_8 N 0.7001(7) 1.0000 0.5052(7)
C17_4 C 0.6711(6) 0.9478(3) 0.4767(6)
H11_4 H 0.6956 0.9114 0.4811
O4_4 O 0.6689(3) 0.5000 0.3764(4)
C18_4 C 0.6538(5) 0.5000 0.2866(7)
loop_
_geom_bond_atom_site_label_1
_geom_bond_atom_site_label_2
_geom_bond_site_symmetry_1
_geom_bond_site_symmetry_2
C14 H10 1_555 1_555
N6 C21 1_555 1_555
C19 C20 1_555 1_555
C20 N7 1_555 1_555
C21 H12 1_555 1_555
N7 H13 1_555 1_555
N8 C20 1_555 1_555
C22 N6 1_555 1_555
H14 C22 1_555 1_555
C23 C19 1_555 1_555
H15 C23 1_555 1_555
C24 C19 1_555 1_555
H16 C24 1_555 1_555
N9 N8 1_555 1_555
C25 N7 1_555 1_555
C26 C14 1_555 1_555
C27 N5 1_555 1_555
H17 C27 1_555 1_555
Co2 N6 1_555 1_555
C21 C23 1_555 1_555
C22 C24 1_555 1_555
N9 C25 1_555 1_555
C25 C26 1_555 1_555
C26 C27 1_555 1_555
Co2 N1 1_555 1_555
O1 C1 1_555 1_555
N1 C7 1_555 1_555
C1 O2 1_555 1_555
C2 C3 1_555 1_555
O3 Co2 1_555 1_555
C3 N2 1_555 1_555
C4 H1 1_555 1_555
C5 C4 1_555 1_555
C6 C5 1_555 1_555
H2 C6 1_555 1_555
C7 H3 1_555 1_555
C8 C4 1_555 1_555
H4 C8 1_555 1_555
N2 H5 1_555 1_555
C9 C1 1_555 1_555
N3 C3 1_555 1_555
C10 N1 1_555 1_555
H6 C10 1_555 1_555
C11 C2 1_555 1_555
H7 C11 1_555 1_555
C12 C2 1_555 1_555
H8 C12 1_555 1_555
C13 C6 1_555 1_555
H9 C13 1_555 1_555
N4 N3 1_555 1_555
C14_2 H10_2 1_555 1_555
C15 N2 1_555 1_555
C16 C14_2 1_555 1_555
N5_2 C17 1_555 1_555
C17 C16 1_555 1_555
H11 C17 1_555 1_555
O4 Co2 1_555 1_555
C18 O3 1_555 1_555
O5 Co2 1_555 1_555
O6 Co2 1_555 1_555
C5 C18 1_555 1_555
C7 C11 1_555 1_555
C8 C9 1_555 1_555
C9 C13 1_555 1_555
C10 C12 1_555 1_555
N4 C15 1_555 1_555
C15 C16 1_555 1_555
O4 C18 1_555 1_555
Co3 N1_2 1_555 1_555
O1_2 C1_2 1_555 1_555
N1_2 C7_2 1_555 1_555
C1_2 O6 1_555 1_555
C2_2 C3_2 1_555 1_555
O3_2 Co3 1_555 1_555
C3_2 N2_2 1_555 1_555
C4_2 H1_2 1_555 1_555
C5_2 C4_2 1_555 1_555
C6_2 C5_2 1_555 1_555
H2_2 C6_2 1_555 1_555
C7_2 H3_2 1_555 1_555
C8_2 C4_2 1_555 1_555
H4_2 C8_2 1_555 1_555
N2_2 H5_2 1_555 1_555
C9_2 C1_2 1_555 1_555
N3_2 C3_2 1_555 1_555
C10_2 N1_2 1_555 1_555
C11_2 C2_2 1_555 1_555
H7_2 C11_2 1_555 1_555
C12_2 C2_2 1_555 1_555
C13_2 C6_2 1_555 1_555
H9_2 C13_2 1_555 1_555
N4_2 N3_2 1_555 1_555
C14_3 H10_3 1_555 1_555
C15_2 N2_2 1_555 1_555
C16_2 C14_3 1_555 1_555
C17_2 C16_2 1_555 1_555
H11_2 C17_2 1_555 1_555
O4_2 Co3 1_555 1_555
C18_2 O3_2 1_555 1_555
Co4_2 O1_2 1_555 1_555
N10 Co3 1_555 1_555
C5_2 C18_2 1_555 1_555
C7_2 C11_2 1_555 1_555
C8_2 C9_2 1_555 1_555
C9_2 C13_2 1_555 1_555
C10_2 C12_2 1_555 1_555
N4_2 C15_2 1_555 1_555
C15_2 C16_2 1_555 1_555
O4_2 C18_2 1_555 1_555
C14_4 H10_4 1_555 1_555
N10 C21_2 1_555 1_555
C19_2 C20_2 1_555 1_555
C20_2 N7_2 1_555 1_555
C21_2 H12_2 1_555 1_555
N7_2 H13_2 1_555 1_555
N8_2 C20_2 1_555 1_555
C22_2 N10 1_555 1_555
C23_2 C19_2 1_555 1_555
H15_2 C23_2 1_555 1_555
C24_2 C19_2 1_555 1_555
N9_2 N8_2 1_555 1_555
C25_2 N7_2 1_555 1_555
C26_2 C14_4 1_555 1_555
H17_2 C27_2 1_555 1_555
C21_2 C23_2 1_555 1_555
C22_2 C24_2 1_555 1_555
N9_2 C25_2 1_555 1_555
C25_2 C26_2 1_555 1_555
C26_2 C27_2 1_555 1_555
Co4 N1_3 1_555 1_555
O5 C1_3 1_555 1_555
N1_3 C7_3 1_555 1_555
C1_3 O2_2 1_555 1_555
C2_3 C3_3 1_555 1_555
O2_2 Co4_2 1_555 1_555
O3_3 Co4 1_555 1_555
C3_3 N2_3 1_555 1_555
C4_3 H1_3 1_555 1_555
C5_3 C4_3 1_555 1_555
C6_3 C5_3 1_555 1_555
H2_3 C6_3 1_555 1_555
C7_3 H3_3 1_555 1_555
C8_3 C4_3 1_555 1_555
H4_3 C8_3 1_555 1_555
N2_3 H5_3 1_555 1_555
C9_3 C1_3 1_555 1_555
N3_3 C3_3 1_555 1_555
C10_3 N1_3 1_555 1_555
C11_3 C2_3 1_555 1_555
H7_3 C11_3 1_555 1_555
C12_3 C2_3 1_555 1_555
C13_3 C6_3 1_555 1_555
H9_3 C13_3 1_555 1_555
N4_3 N3_3 1_555 1_555
C14_5 H10_5 1_555 1_555
C15_3 N2_3 1_555 1_555
C16_3 C14_5 1_555 1_555
C17_3 C16_3 1_555 1_555
H11_3 C17_3 1_555 1_555
O4_3 Co4 1_555 1_555
C18_3 O3_3 1_555 1_555
N10_2 Co4 1_555 1_555
C5_3 C18_3 1_555 1_555
C7_3 C11_3 1_555 1_555
C8_3 C9_3 1_555 1_555
C9_3 C13_3 1_555 1_555
C10_3 C12_3 1_555 1_555
N4_3 C15_3 1_555 1_555
C15_3 C16_3 1_555 1_555
O4_3 C18_3 1_555 1_555
C14_6 H10_6 1_555 1_555
N10_2 C21_3 1_555 1_555
C19_3 C20_3 1_555 1_555
C20_3 N7_3 1_555 1_555
C21_3 H12_3 1_555 1_555
N7_3 H13_3 1_555 1_555
N8_3 C20_3 1_555 1_555
C22_3 N10_2 1_555 1_555
C23_3 C19_3 1_555 1_555
H15_3 C23_3 1_555 1_555
C24_3 C19_3 1_555 1_555
N9_3 N8_3 1_555 1_555
C25_3 N7_3 1_555 1_555
C26_3 C14_6 1_555 1_555
H17_3 C27_3 1_555 1_555
C21_3 C23_3 1_555 1_555
C22_3 C24_3 1_555 1_555
N9_3 C25_3 1_555 1_555
C25_3 C26_3 1_555 1_555
C26_3 C27_3 1_555 1_555
C14_7 H10_7 1_555 1_555
N6_2 C21_4 1_555 1_555
C19_4 C20_4 1_555 1_555
C20_4 N7_4 1_555 1_555
C21_4 H12_4 1_555 1_555
N7_4 H13_4 1_555 1_555
N8_4 C20_4 1_555 1_555
C22_4 N6_2 1_555 1_555
H14_4 C22_4 1_555 1_555
C23_4 C19_4 1_555 1_555
H15_4 C23_4 1_555 1_555
C24_4 C19_4 1_555 1_555
H16_4 C24_4 1_555 1_555
N9_4 N8_4 1_555 1_555
C25_4 N7_4 1_555 1_555
C26_4 C14_7 1_555 1_555
C27_4 N5_7 1_555 1_555
H17_4 C27_4 1_555 1_555
Co4_2 N6_2 1_555 1_555
C21_4 C23_4 1_555 1_555
C22_4 C24_4 1_555 1_555
N9_4 C25_4 1_555 1_555
C25_4 C26_4 1_555 1_555
C26_4 C27_4 1_555 1_555
Co4_2 N1_4 1_555 1_555
O5_2 C1_4 1_555 1_555
N1_4 C7_4 1_555 1_555
C1_4 O6_2 1_555 1_555
C2_4 C3_4 1_555 1_555
O3_4 Co4_2 1_555 1_555
C3_4 N2_4 1_555 1_555
C4_4 H1_4 1_555 1_555
C5_4 C4_4 1_555 1_555
C6_4 C5_4 1_555 1_555
H2_4 C6_4 1_555 1_555
C7_4 H3_4 1_555 1_555
C8_4 C4_4 1_555 1_555
H4_4 C8_4 1_555 1_555
N2_4 H5_4 1_555 1_555
C9_4 C1_4 1_555 1_555
N3_4 C3_4 1_555 1_555
C10_4 N1_4 1_555 1_555
H6_4 C10_4 1_555 1_555
C11_4 C2_4 1_555 1_555
H7_4 C11_4 1_555 1_555
C12_4 C2_4 1_555 1_555
H8_4 C12_4 1_555 1_555
C13_4 C6_4 1_555 1_555
H9_4 C13_4 1_555 1_555
N4_4 N3_4 1_555 1_555
C14_8 H10_8 1_555 1_555
C15_4 N2_4 1_555 1_555
C16_4 C14_8 1_555 1_555
N5_8 C17_4 1_555 1_555
C17_4 C16_4 1_555 1_555
H11_4 C17_4 1_555 1_555
O4_4 Co4_2 1_555 1_555
C18_4 O3_4 1_555 1_555
C5_4 C18_4 1_555 1_555
C7_4 C11_4 1_555 1_555
C8_4 C9_4 1_555 1_555
C9_4 C13_4 1_555 1_555
C10_4 C12_4 1_555 1_555
N4_4 C15_4 1_555 1_555
C15_4 C16_4 1_555 1_555
O4_4 C18_4 1_555 1_555

#END
