
###############################################################################
#
# This file contains modified crystal structure data generated from the
# MOF subset of the Cambridge Structural Database (CSD) v543 
# hosted by the Cambridge Crystallographic Data Centre (CCDC).
#
# This work is licensed under the Creative Commons
# Attribution-NonCommercial-ShareAlike 4.0 International License.
# To view a copy of this license, visit
# http://creativecommons.org/licenses/by-nc-sa/4.0/
# or send a letter to
# Creative Commons, PO Box 1866, Mountain View, CA 94042, USA.
#
# CIF created using the CSD Python API on 29 September 2022
# The structure has been converted into the P1 space group
# The structure has a 3D framework
# The original CSD entry YUCZOM is in the monoclinic crystal system
# The framework has been calculated to contain at least 10.0% void space
# The void calculation uses a probe of radius 1.32A, grid spacing 0.4
#
###############################################################################

data_YUCZOM
_chemical_formula_moiety         '(C48 H48 Fe4 N8 O20)n'
_symmetry_cell_setting           triclinic
_symmetry_space_group_name_H-M   'P 1'
_symmetry_Int_Tables_number      1
_space_group_name_Hall           'P 1'
loop_
_symmetry_equiv_pos_site_id
_symmetry_equiv_pos_as_xyz
1 x,y,z
_cell_length_a                   10.5021(6)
_cell_length_b                   20.1959(11)
_cell_length_c                   8.1256(4)
_cell_angle_alpha                90
_cell_angle_beta                 102.3670(10)
_cell_angle_gamma                90
_cell_volume                     1683.44
loop_
_atom_site_label
_atom_site_type_symbol
_atom_site_fract_x
_atom_site_fract_y
_atom_site_fract_z
C2 C 0.0318(4) 0.76341(18) 0.2832(5)
H6 H 0.0269 0.8989 0.5445
O3 O 0.0696(2) 0.78393(11) 0.4317(3)
O4 O 0.0559(3) 0.78812(16) 0.1566(4)
N3 N 0.0956(3) 0.66024(12) 0.6509(3)
O6 O 0.1621(2) 0.80112(11) 0.7902(3)
H5 H 0.9321 0.0007 0.5475
C8 C 0.7165(3) 0.03639(15) 0.6479(4)
C9 C 0.5937(3) 0.04287(16) 0.6846(5)
H7 H 0.5493 0.0055 0.7090
C10 C 0.5377(3) 0.10457(17) 0.6847(5)
H8 H 0.4555 0.1076 0.7096
C11 C 0.7777(4) 0.09450(16) 0.6157(5)
H9 H 0.8609 0.0932 0.5932
C12 C 0.7138(3) 0.15402(16) 0.6174(4)
H10 H 0.7559 0.1923 0.5938
N1 N 0.5956(3) 0.16024(12) 0.6509(3)
Fe2 Fe 0.49831(11) 0.253902(16) 0.64202(13)
Fe1 Fe 0.99831(11) 0.753902(16) 0.64202(13)
C1 C 0.7398(3) 0.72764(15) 0.4049(4)
H1 H 0.7212 0.7713 0.4273
H2 H 0.9801 0.7256 0.2686
C3 C 0.7896(3) 0.85353(16) 0.6887(5)
H3 H 0.7527 0.8158 0.7245
C4 C 0.7264(3) 0.91325(17) 0.6933(4)
H4 H 0.6487 0.9149 0.7306
C5 C 0.7789(3) 0.97064(15) 0.6424(4)
C6 C 0.8935(4) 0.96383(17) 0.5850(5)
C7 C 0.9502(4) 0.90224(16) 0.5837(5)
N2 N 0.9005(3) 0.84703(12) 0.6360(3)
O1 O 0.8405(2) 0.70271(10) 0.4923(3)
O2 O 0.6621(2) 0.69888(11) 0.2902(3)
O5 O 0.9382(3) 0.73151(14) 0.8633(3)
H11 H 0.946(5) 0.7580(16) 0.942(5)
H12 H 0.892(4) 0.6994(13) 0.871(5)
Fe3 Fe 0.49831(11) 0.746098(16) 0.14202(13)
H6_2 H 0.0269 0.1011 0.0445
N3_2 N 0.0956(3) 0.33976(12) 0.1509(3)
O6_2 O 0.1621(2) 0.19888(11) 0.2902(3)
Fe1_2 Fe 0.99831(11) 0.246098(16) 0.14202(13)
C3_2 C 0.7896(3) 0.14647(16) 0.1887(5)
H3_2 H 0.7527 0.1842 0.2245
C4_2 C 0.7264(3) 0.08675(17) 0.1933(4)
H4_2 H 0.6487 0.0851 0.2306
C5_2 C 0.7789(3) 0.02936(15) 0.1424(4)
C6_2 C 0.8935(4) 0.03617(17) 0.0850(5)
C7_2 C 0.9502(4) 0.09776(16) 0.0837(5)
N2_2 N 0.9005(3) 0.15297(12) 0.1360(3)
O5_2 O 0.9382(3) 0.26849(14) 0.3633(3)
H11_2 H 0.946(5) 0.2420(16) 0.442(5)
H12_2 H 0.892(4) 0.3006(13) 0.371(5)
C1_2 C 0.7398(3) 0.27236(15) 0.9049(4)
H1_2 H 0.7212 0.2287 0.9273
H2_2 H 0.9801 0.2744 0.7686
O1_2 O 0.8405(2) 0.29729(10) 0.9923(3)
O2_2 O 0.6621(2) 0.30112(11) 0.7902(3)
H5_2 H 0.9321 0.9993 0.0475
C8_2 C 0.7165(3) 0.96361(15) 0.1479(4)
C9_2 C 0.5937(3) 0.95713(16) 0.1846(5)
H7_2 H 0.5493 0.9945 0.2090
C10_2 C 0.5377(3) 0.89543(17) 0.1847(5)
H8_2 H 0.4555 0.8924 0.2096
C11_2 C 0.7777(4) 0.90550(16) 0.1157(5)
H9_2 H 0.8609 0.9068 0.0932
C12_2 C 0.7138(3) 0.84598(16) 0.1174(4)
H10_2 H 0.7559 0.8077 0.0938
N1_2 N 0.5956(3) 0.83976(12) 0.1509(3)
C1_3 C 0.2398(3) 0.22764(15) 0.4049(4)
H1_3 H 0.2212 0.2713 0.4273
C2_2 C 0.5318(4) 0.26341(18) 0.2832(5)
H2_3 H 0.4801 0.2256 0.2686
C3_3 C 0.2896(3) 0.35353(16) 0.6887(5)
H3_3 H 0.2527 0.3158 0.7245
C4_3 C 0.2264(3) 0.41325(17) 0.6933(4)
H4_3 H 0.1487 0.4149 0.7306
C5_3 C 0.2789(3) 0.47064(15) 0.6424(4)
C6_3 C 0.3935(4) 0.46383(17) 0.5850(5)
H5_3 H 0.4321 0.5007 0.5475
C7_3 C 0.4502(4) 0.40224(16) 0.5837(5)
H6_3 H 0.5269 0.3989 0.5445
C8_3 C 0.2165(3) 0.53639(15) 0.6479(4)
C9_3 C 0.0937(3) 0.54287(16) 0.6846(5)
H7_3 H 0.0493 0.5055 0.7090
C10_3 C 0.0377(3) 0.60457(17) 0.6847(5)
C11_3 C 0.2777(4) 0.59450(16) 0.6157(5)
H9_3 H 0.3609 0.5932 0.5932
C12_3 C 0.2138(3) 0.65402(16) 0.6174(4)
H10_3 H 0.2559 0.6923 0.5938
N2_3 N 0.4005(3) 0.34703(12) 0.6360(3)
O1_3 O 0.3405(2) 0.20271(10) 0.4923(3)
O3_2 O 0.5696(2) 0.28393(11) 0.4317(3)
O4_2 O 0.5559(3) 0.28812(16) 0.1566(4)
O5_3 O 0.4382(3) 0.23151(14) 0.8633(3)
H11_3 H 0.446(5) 0.2580(16) 0.942(5)
H12_3 H 0.392(4) 0.1994(13) 0.871(5)
H8_3 H 0.9555 0.6076 0.7096
C3_4 C 0.2896(3) 0.64647(16) 0.1887(5)
H3_4 H 0.2527 0.6842 0.2245
C4_4 C 0.2264(3) 0.58675(17) 0.1933(4)
H4_4 H 0.1487 0.5851 0.2306
C5_4 C 0.2789(3) 0.52936(15) 0.1424(4)
C6_4 C 0.3935(4) 0.53617(17) 0.0850(5)
H5_4 H 0.4321 0.4993 0.0475
C7_4 C 0.4502(4) 0.59776(16) 0.0837(5)
H6_4 H 0.5269 0.6011 0.0445
C8_4 C 0.2165(3) 0.46361(15) 0.1479(4)
C9_4 C 0.0937(3) 0.45713(16) 0.1846(5)
H7_4 H 0.0493 0.4945 0.2090
C10_4 C 0.0377(3) 0.39543(17) 0.1847(5)
C11_4 C 0.2777(4) 0.40550(16) 0.1157(5)
H9_4 H 0.3609 0.4068 0.0932
C12_4 C 0.2138(3) 0.34598(16) 0.1174(4)
H10_4 H 0.2559 0.3077 0.0938
N2_4 N 0.4005(3) 0.65297(12) 0.1360(3)
O5_4 O 0.4382(3) 0.76849(14) 0.3633(3)
H11_4 H 0.446(5) 0.7420(16) 0.442(5)
H12_4 H 0.392(4) 0.8006(13) 0.371(5)
C1_4 C 0.2398(3) 0.77236(15) 0.9049(4)
H1_4 H 0.2212 0.7287 0.9273
C2_3 C 0.5318(4) 0.73659(18) 0.7832(5)
H2_4 H 0.4801 0.7744 0.7686
O1_4 O 0.3405(2) 0.79729(10) 0.9923(3)
O3_3 O 0.5696(2) 0.71607(11) 0.9317(3)
O4_3 O 0.5559(3) 0.71188(16) 0.6566(4)
H8_4 H 0.9555 0.3924 0.2096
C2_4 C 0.0318(4) 0.23659(18) 0.7832(5)
O3_4 O 0.0696(2) 0.21607(11) 0.9317(3)
O4_4 O 0.0559(3) 0.21188(16) 0.6566(4)
loop_
_geom_bond_atom_site_label_1
_geom_bond_atom_site_label_2
_geom_bond_site_symmetry_1
_geom_bond_site_symmetry_2
O4 C2 1_555 1_555
C2 O3 1_555 1_555
C9 C8 1_555 1_555
H7 C9 1_555 1_555
C10 C9 1_555 1_555
H8 C10 1_555 1_555
C11 C8 1_555 1_555
H9 C11 1_555 1_555
C12 C11 1_555 1_555
H10 C12 1_555 1_555
N1 C10 1_555 1_555
Fe2 N1 1_555 1_555
C12 N1 1_555 1_555
Fe1 N2 1_555 1_555
C1 H1 1_555 1_555
C3 H3 1_555 1_555
C4 C3 1_555 1_555
H4 C4 1_555 1_555
C5 C4 1_555 1_555
C6 C5 1_555 1_555
C7 C6 1_555 1_555
N2 C3 1_555 1_555
O1 Fe1 1_555 1_555
O2 C1 1_555 1_555
O5 Fe1 1_555 1_555
H11 O5 1_555 1_555
H12 O5 1_555 1_555
Fe3 O2 1_555 1_555
C1 O1 1_555 1_555
C7 N2 1_555 1_555
Fe1_2 N2_2 1_555 1_555
C3_2 H3_2 1_555 1_555
C4_2 C3_2 1_555 1_555
H4_2 C4_2 1_555 1_555
C5_2 C4_2 1_555 1_555
C6_2 C5_2 1_555 1_555
C7_2 C6_2 1_555 1_555
N2_2 C3_2 1_555 1_555
O5_2 Fe1_2 1_555 1_555
H11_2 O5_2 1_555 1_555
H12_2 O5_2 1_555 1_555
C7_2 N2_2 1_555 1_555
C1_2 H1_2 1_555 1_555
O2_2 C1_2 1_555 1_555
Fe2 O2_2 1_555 1_555
C1_2 O1_2 1_555 1_555
C9_2 C8_2 1_555 1_555
H7_2 C9_2 1_555 1_555
C10_2 C9_2 1_555 1_555
H8_2 C10_2 1_555 1_555
C11_2 C8_2 1_555 1_555
H9_2 C11_2 1_555 1_555
C12_2 C11_2 1_555 1_555
H10_2 C12_2 1_555 1_555
N1_2 C10_2 1_555 1_555
Fe3 N1_2 1_555 1_555
C12_2 N1_2 1_555 1_555
Fe2 N2_3 1_555 1_555
C1_3 H1_3 1_555 1_555
C2_2 H2_3 1_555 1_555
C3_3 H3_3 1_555 1_555
C4_3 C3_3 1_555 1_555
H4_3 C4_3 1_555 1_555
C5_3 C4_3 1_555 1_555
C6_3 C5_3 1_555 1_555
H5_3 C6_3 1_555 1_555
C7_3 C6_3 1_555 1_555
H6_3 C7_3 1_555 1_555
C8_3 C5_3 1_555 1_555
C9_3 C8_3 1_555 1_555
H7_3 C9_3 1_555 1_555
C10_3 C9_3 1_555 1_555
C11_3 C8_3 1_555 1_555
H9_3 C11_3 1_555 1_555
C12_3 C11_3 1_555 1_555
H10_3 C12_3 1_555 1_555
N3 C10_3 1_555 1_555
N2_3 C3_3 1_555 1_555
O1_3 Fe2 1_555 1_555
O6_2 C1_3 1_555 1_555
O3_2 Fe2 1_555 1_555
O4_2 C2_2 1_555 1_555
O5_3 Fe2 1_555 1_555
H11_3 O5_3 1_555 1_555
H12_3 O5_3 1_555 1_555
C1_3 O1_3 1_555 1_555
C2_2 O3_2 1_555 1_555
C7_3 N2_3 1_555 1_555
C12_3 N3 1_555 1_555
Fe3 N2_4 1_555 1_555
C3_4 H3_4 1_555 1_555
C4_4 C3_4 1_555 1_555
H4_4 C4_4 1_555 1_555
C5_4 C4_4 1_555 1_555
C6_4 C5_4 1_555 1_555
H5_4 C6_4 1_555 1_555
C7_4 C6_4 1_555 1_555
H6_4 C7_4 1_555 1_555
C8_4 C5_4 1_555 1_555
C9_4 C8_4 1_555 1_555
H7_4 C9_4 1_555 1_555
C10_4 C9_4 1_555 1_555
C11_4 C8_4 1_555 1_555
H9_4 C11_4 1_555 1_555
C12_4 C11_4 1_555 1_555
H10_4 C12_4 1_555 1_555
N3_2 C10_4 1_555 1_555
N2_4 C3_4 1_555 1_555
O5_4 Fe3 1_555 1_555
H11_4 O5_4 1_555 1_555
H12_4 O5_4 1_555 1_555
C7_4 N2_4 1_555 1_555
C12_4 N3_2 1_555 1_555
C1_4 H1_4 1_555 1_555
C2_3 H2_4 1_555 1_555
O6 C1_4 1_555 1_555
O4_3 C2_3 1_555 1_555
C1_4 O1_4 1_555 1_555
C2_3 O3_3 1_555 1_555
O4_4 C2_4 1_555 1_555
C2_4 O3_4 1_555 1_555

#END
