
###############################################################################
#
# This file contains modified crystal structure data generated from the
# MOF subset of the Cambridge Structural Database (CSD) v543 
# hosted by the Cambridge Crystallographic Data Centre (CCDC).
#
# This work is licensed under the Creative Commons
# Attribution-NonCommercial-ShareAlike 4.0 International License.
# To view a copy of this license, visit
# http://creativecommons.org/licenses/by-nc-sa/4.0/
# or send a letter to
# Creative Commons, PO Box 1866, Mountain View, CA 94042, USA.
#
# CIF created using the CSD Python API on 29 September 2022
# The structure has been converted into the P1 space group
# The structure has a 3D framework
# The original CSD entry YUDFEK is in the monoclinic crystal system
# The framework has been calculated to contain at least 10.0% void space
# The void calculation uses a probe of radius 1.32A, grid spacing 0.4
#
###############################################################################

data_YUDFEK
_chemical_formula_moiety         '(C216 H160 Gd8 N64 O158)n'
_symmetry_cell_setting           triclinic
_symmetry_space_group_name_H-M   'P 1'
_symmetry_Int_Tables_number      1
_space_group_name_Hall           'P 1'
loop_
_symmetry_equiv_pos_site_id
_symmetry_equiv_pos_as_xyz
1 x,y,z
_cell_length_a                   13.137(5)
_cell_length_b                   30.227(5)
_cell_length_c                   23.326(5)
_cell_angle_alpha                90
_cell_angle_beta                 102.075(5)
_cell_angle_gamma                90
_cell_volume                     9057.63
loop_
_atom_site_label
_atom_site_type_symbol
_atom_site_fract_x
_atom_site_fract_y
_atom_site_fract_z
H3 H 0.0306 0.2045 0.4530
H27 H 0.0034 0.1768 0.7002
O10 O 0.0326(4) 0.1864(2) 0.5540(2)
O39 O 0.0905(3) 0.22644(12) 0.36222(15)
Gd4 Gd 0.149697(18) 0.229819(7) 0.271435(10)
Gd1 Gd 0.649697(18) 0.270181(7) 0.771435(10)
Gd2 Gd 0.349247(18) 0.245125(7) 0.699151(10)
C1 C 0.5089(4) 0.24441(16) 0.6289(2)
C2 C 0.5891(4) 0.24237(17) 0.5908(2)
C3 C 0.6739(4) 0.27051(17) 0.6008(2)
H1 H 0.6831 0.2908 0.6315
C4 C 0.7445(4) 0.26807(18) 0.5646(2)
C5 C 0.7347(4) 0.23883(17) 0.5177(2)
C6 C 0.6469(4) 0.21185(19) 0.5091(2)
C7 C 0.5746(4) 0.21317(18) 0.5442(2)
H2 H 0.5168 0.1946 0.5366
C8 C 0.8053(4) 0.23909(18) 0.4749(2)
C9 C 0.9021(4) 0.21782(18) 0.4845(2)
C10 C 0.9650(4) 0.21743(17) 0.4440(2)
C11 C 0.9288(4) 0.23656(16) 0.3897(2)
C12 C 0.8333(4) 0.25760(17) 0.3771(2)
H4 H 0.8087 0.2703 0.3406
C13 C 0.7749(4) 0.25928(18) 0.4202(2)
C14 C 0.9961(4) 0.23453(15) 0.3449(2)
C15 C 0.4574(4) 0.34741(16) 0.7268(2)
C16 C 0.4330(4) 0.39660(16) 0.7289(2)
C17 C 0.5066(4) 0.42559(16) 0.7583(2)
H5 H 0.5732 0.4155 0.7748
C18 C 0.4818(4) 0.46978(17) 0.7632(3)
C19 C 0.3841(4) 0.48737(17) 0.7396(2)
C20 C 0.3121(4) 0.45649(19) 0.7100(3)
C21 C 0.3352(4) 0.41269(19) 0.7044(3)
H6 H 0.2847 0.3937 0.6840
C22 C 0.5415(4) 0.16981(16) 0.7532(2)
C23 C 0.5654(4) 0.12080(16) 0.7569(2)
C24 C 0.4906(4) 0.09056(17) 0.7317(2)
H7 H 0.4240 0.1000 0.7141
C25 C 0.5160(4) 0.04583(17) 0.7331(2)
C26 C 0.6138(4) 0.02937(17) 0.7568(2)
C27 C 0.6887(4) 0.06159(17) 0.7807(2)
C28 C 0.6645(4) 0.10584(17) 0.7817(2)
H8 H 0.7151 0.1259 0.7992
C36 C 0.2581(4) 0.66685(16) 0.7851(2)
C37 C 0.2979(4) 0.62144(16) 0.7748(2)
C38 C 0.3159(4) 0.61060(17) 0.7202(2)
H11 H 0.3068 0.6317 0.6906
C39 C 0.3475(4) 0.56826(17) 0.7097(2)
C40 C 0.3563(4) 0.53408(17) 0.7513(2)
C41 C 0.3411(4) 0.54752(17) 0.8057(2)
C42 C 0.3149(4) 0.59021(17) 0.8187(2)
H12 H 0.3088 0.5976 0.8565
C43 C 0.1955(4) 0.27687(19) 0.5674(3)
H13 H 0.2015 0.2515 0.5459
C44 C 0.1179(6) 0.3124(2) 0.4750(3)
H14 H 0.0897 0.3408 0.4622
H15 H 0.0651 0.2902 0.4640
H16 H 0.1756 0.3059 0.4571
C45 C 0.1371(7) 0.3528(2) 0.5703(4)
H17 H 0.1061 0.3751 0.5428
H18 H 0.2029 0.3632 0.5921
H19 H 0.0919 0.3466 0.5967
C46 C 0.2042(5) 0.31265(19) 0.7642(3)
H20 H 0.2637 0.3272 0.7838
C47 C 0.1064(7) 0.3726(3) 0.7937(4)
H21 H 0.0340 0.3802 0.7883
H22 H 0.1425 0.3955 0.7774
H23 H 0.1358 0.3697 0.8348
C48 C 0.8265(6) 0.2099(3) 0.7220(3)
H24 H 0.8778 0.2272 0.7450
C49 C 0.9585(8) 0.1563(4) 0.7144(4)
H25 H 0.9595 0.1284 0.6949
H26 H 0.9824 0.1523 0.7558
C50 C 0.7781(8) 0.1435(3) 0.6667(4)
H28 H 0.8106 0.1173 0.6555
H29 H 0.7444 0.1592 0.6322
H30 H 0.7275 0.1353 0.6891
C51 C 0.8209(4) 0.23954(19) 0.8902(3)
H31 H 0.8045 0.2640 0.9108
C52 C 0.8936(5) 0.1657(2) 0.8912(3)
H32 H 0.9285 0.1451 0.9200
H33 H 0.9382 0.1730 0.8647
H34 H 0.8305 0.1526 0.8696
C53 C 0.8952(5) 0.2060(3) 0.9837(3)
H35 H 0.9297 0.1788 0.9973
H36 H 0.8329 0.2087 0.9987
H37 H 0.9406 0.2304 0.9971
C54 C 0.0226(9) 0.3131(6) 0.7320(11)
H39 H 0.0145 0.2835 0.7454
H40 H 0.0250 0.3125 0.6911
N1 N 0.8314(4) 0.29953(17) 0.5759(2)
N2 N 0.6273(4) 0.18179(19) 0.4586(2)
N3 N 0.9411(4) 0.19419(18) 0.5398(2)
N4 N 0.6764(4) 0.28409(17) 0.4056(2)
N5 N 0.5630(4) 0.49791(15) 0.7984(2)
N6 N 0.2059(4) 0.47053(17) 0.6826(3)
N7 N 0.4329(4) 0.01593(15) 0.7030(3)
N8 N 0.7980(4) 0.04906(16) 0.8012(2)
N11 N 0.3546(4) 0.51525(16) 0.8549(2)
N12 N 0.3711(5) 0.56035(16) 0.6519(2)
N13 N 0.1530(4) 0.31256(16) 0.5386(2)
N14 N 0.1165(5) 0.3314(2) 0.7646(3)
N15 N 0.8594(5) 0.1726(2) 0.7033(2)
N16 N 0.8688(4) 0.20588(16) 0.9203(2)
O1 O 0.4197(3) 0.23056(12) 0.60916(15)
O2 O 0.5360(3) 0.26098(11) 0.67969(15)
O3 O 0.8147(4) 0.33628(16) 0.5918(2)
O4 O 0.9166(4) 0.2863(2) 0.5704(2)
O5 O 0.5375(5) 0.1776(2) 0.4328(2)
O6 O 0.6979(4) 0.16212(16) 0.4447(2)
O7 O 0.6350(3) 0.28734(19) 0.35435(19)
O8 O 0.6429(4) 0.30120(17) 0.44512(19)
O9 O 0.8775(4) 0.1804(2) 0.5664(2)
O11 O 0.9550(3) 0.24111(11) 0.29186(14)
O12 O 0.3844(3) 0.32336(11) 0.70105(16)
O13 O 0.5473(3) 0.33620(11) 0.75136(16)
O14 O 0.1499(5) 0.4448(2) 0.6539(5)
O15 O 0.1742(4) 0.50604(15) 0.6946(3)
O16 O 0.6280(3) 0.47965(14) 0.8362(2)
O17 O 0.5612(3) 0.53759(13) 0.7892(2)
O18 O 0.6078(3) 0.19420(11) 0.78422(16)
O19 O 0.4591(3) 0.18051(11) 0.71869(16)
O21 O 0.3680(3) 0.03111(13) 0.6631(2)
O22 O 0.8231(3) 0.01023(13) 0.7979(2)
O23 O 0.8611(3) 0.07855(15) 0.8182(2)
O25 O 0.6741(3) 0.03445(13) 0.65668(19)
O27 O 0.6201(5) 0.00152(14) 0.8647(2)
O29 O 0.2239(3) 0.69026(11) 0.74132(16)
O30 O 0.2571(3) 0.67871(12) 0.83690(15)
O31 O 0.3935(5) 0.59151(16) 0.6248(2)
O32 O 0.3728(7) 0.52336(17) 0.6347(3)
O33 O 0.3879(5) 0.52969(16) 0.9039(2)
O34 O 0.3301(4) 0.47700(13) 0.8438(2)
O35 O 0.2271(3) 0.27540(13) 0.62057(18)
O36 O 0.2168(3) 0.27750(12) 0.74041(18)
O37 O 0.7413(3) 0.22475(13) 0.71406(17)
O38 O 0.7963(3) 0.24038(12) 0.83590(17)
Gd5 Gd 0.150753(18) 0.745125(7) 0.800849(10)
Gd6 Gd 0.849247(18) 0.254875(7) 0.199151(10)
O41 O 0.4550(3) 0.25889(11) 0.79186(14)
O42 O 0.7501(3) 0.33537(12) 0.81922(16)
O43 O 0.2761(3) 0.19026(11) 0.75868(16)
O44 O 0.2429(3) 0.17871(12) 0.66310(15)
O45 O 0.5905(3) 0.27356(12) 0.86222(15)
O46 O 0.7556(3) 0.32060(11) 0.72695(17)
C29 C 0.6405(4) 0.98165(16) 0.7511(2)
C30 C 0.6597(4) 0.96558(17) 0.6986(2)
C31 C 0.6859(4) 0.92213(17) 0.6905(2)
H9 H 0.6980 0.9129 0.6544
C32 C 0.6942(4) 0.89238(16) 0.7366(2)
C33 C 0.6720(4) 0.90651(17) 0.7894(2)
H10 H 0.6755 0.8867 0.8203
C34 C 0.6447(4) 0.95019(17) 0.7957(2)
C35 C 0.7306(4) 0.84596(16) 0.7292(2)
N9 N 0.6545(4) 0.99527(15) 0.6477(2)
N10 N 0.6193(4) 0.96267(16) 0.8519(2)
O20 O 0.4345(3) 0.97719(14) 0.7181(3)
O24 O 0.6304(4) 0.97868(15) 0.59922(19)
O26 O 0.5983(4) 0.93361(15) 0.8830(2)
O28 O 0.7499(3) 0.83537(12) 0.68078(16)
O40 O 0.7444(3) 0.82060(11) 0.77305(17)
Gd3 Gd 0.850303(18) 0.770181(7) 0.728565(10)
C36_2 C 0.2419(4) 0.16685(16) 0.7149(2)
C37_2 C 0.2021(4) 0.12144(16) 0.7252(2)
C38_2 C 0.1841(4) 0.11060(17) 0.7798(2)
H11_2 H 0.1932 0.1317 0.8094
C39_2 C 0.1525(4) 0.06826(17) 0.7903(2)
C40_2 C 0.1437(4) 0.03408(17) 0.7487(2)
C41_2 C 0.1589(4) 0.04752(17) 0.6943(2)
C42_2 C 0.1851(4) 0.09021(17) 0.6813(2)
H12_2 H 0.1912 0.0976 0.6435
N11_2 N 0.1454(4) 0.01525(16) 0.6451(2)
N12_2 N 0.1289(5) 0.06035(16) 0.8481(2)
O15_2 O 0.3258(4) 0.00604(15) 0.8054(3)
O31_2 O 0.1065(5) 0.09151(16) 0.8752(2)
O32_2 O 0.1272(7) 0.02336(17) 0.8653(3)
O33_2 O 0.1121(5) 0.02969(16) 0.5961(2)
C15_2 C 0.0426(4) 0.84741(16) 0.7732(2)
C16_2 C 0.0670(4) 0.89660(16) 0.7711(2)
C18_2 C 0.0182(4) 0.96978(17) 0.7368(3)
C19_2 C 0.1159(4) 0.98737(17) 0.7604(2)
C20_2 C 0.1879(4) 0.95649(19) 0.7900(3)
C21_2 C 0.1648(4) 0.91269(19) 0.7956(3)
H6_2 H 0.2153 0.8937 0.8160
C24_2 C 0.0094(4) 0.59056(17) 0.7683(2)
H7_2 H 0.0760 0.6000 0.7859
C43_2 C 0.3045(4) 0.77687(19) 0.9326(3)
H13_2 H 0.2985 0.7515 0.9541
C45_2 C 0.3629(7) 0.8528(2) 0.9297(4)
H17_2 H 0.3939 0.8751 0.9572
H18_2 H 0.2971 0.8632 0.9079
H19_2 H 0.4081 0.8466 0.9033
C46_2 C 0.2958(5) 0.81265(19) 0.7358(3)
H20_2 H 0.2363 0.8272 0.7162
C47_2 C 0.3936(7) 0.8726(3) 0.7063(4)
H21_2 H 0.4660 0.8802 0.7117
H22_2 H 0.3575 0.8955 0.7226
H23_2 H 0.3642 0.8697 0.6652
C54_2 C 0.4774(9) 0.8131(6) 0.7680(11)
H38 H 0.5352 0.8308 0.7625
H39_2 H 0.4855 0.7835 0.7546
H40_2 H 0.4750 0.8125 0.8089
N6_2 N 0.2941(4) 0.97053(17) 0.8174(3)
N7_2 N 0.0671(4) 0.51593(15) 0.7970(3)
N13_2 N 0.3470(4) 0.81256(16) 0.9614(2)
N14_2 N 0.3835(5) 0.8314(2) 0.7354(3)
O1_2 O 0.0803(3) 0.73056(12) 0.89084(15)
O12_2 O 0.1156(3) 0.82336(11) 0.79895(16)
O14_2 O 0.3501(5) 0.9448(2) 0.8461(5)
O19_2 O 0.0409(3) 0.68051(11) 0.78131(16)
O20_2 O 0.0655(3) 0.47719(14) 0.7819(3)
O21_2 O 0.1320(3) 0.53111(13) 0.8369(2)
O34_2 O 0.1699(4) 0.97700(13) 0.6562(2)
O35_2 O 0.2729(3) 0.77540(13) 0.87943(18)
O36_2 O 0.2832(3) 0.77750(12) 0.75959(18)
O41_2 O 0.0450(3) 0.75889(11) 0.70814(14)
C8_2 C 0.6947(4) 0.73909(18) 0.0251(2)
C9_2 C 0.5979(4) 0.71782(18) 0.0155(2)
C10_2 C 0.5350(4) 0.71743(17) 0.0560(2)
H3_2 H 0.4694 0.7045 0.0470
C11_2 C 0.5712(4) 0.73656(16) 0.1103(2)
C12_2 C 0.6667(4) 0.75760(17) 0.1229(2)
H4_2 H 0.6913 0.7703 0.1594
C13_2 C 0.7251(4) 0.75928(18) 0.0798(2)
C14_2 C 0.5039(4) 0.73453(15) 0.1551(2)
N2_2 N 0.8727(4) 0.68179(19) 0.0414(2)
N4_2 N 0.8236(4) 0.78409(17) 0.0944(2)
O5_2 O 0.9625(5) 0.6776(2) 0.0672(2)
O6_2 O 0.8021(4) 0.66212(16) 0.0553(2)
O7_2 O 0.8650(3) 0.78734(19) 0.14565(19)
O8_2 O 0.8571(4) 0.80120(17) 0.05488(19)
O11_2 O 0.5450(3) 0.74111(11) 0.20814(14)
O39_2 O 0.4095(3) 0.72644(12) 0.13778(15)
Gd4_2 Gd 0.350303(18) 0.729819(7) 0.228565(10)
Gd6_2 Gd 0.650753(18) 0.754875(7) 0.300849(10)
C1_2 C 0.9911(4) 0.74441(16) 0.8711(2)
C2_2 C 0.9109(4) 0.74237(17) 0.9092(2)
C3_2 C 0.8261(4) 0.77051(17) 0.8992(2)
H1_2 H 0.8169 0.7908 0.8685
C4_2 C 0.7555(4) 0.76807(18) 0.9354(2)
C5_2 C 0.7653(4) 0.73883(17) 0.9823(2)
C6_2 C 0.8531(4) 0.71185(19) 0.9909(2)
C7_2 C 0.9254(4) 0.71317(18) 0.9558(2)
H2_2 H 0.9832 0.6946 0.9634
C17_2 C 0.9934(4) 0.92559(16) 0.7417(2)
H5_2 H 0.9268 0.9155 0.7252
C22_2 C 0.9585(4) 0.66981(16) 0.7468(2)
C23_2 C 0.9346(4) 0.62080(16) 0.7431(2)
C25_2 C 0.9840(4) 0.54583(17) 0.7669(2)
C26_2 C 0.8862(4) 0.52937(17) 0.7432(2)
C27_2 C 0.8113(4) 0.56159(17) 0.7193(2)
C28_2 C 0.8355(4) 0.60584(17) 0.7183(2)
H8_2 H 0.7849 0.6259 0.7008
C29_2 C 0.8595(4) 0.48165(16) 0.7489(2)
C30_2 C 0.8403(4) 0.46558(17) 0.8014(2)
C31_2 C 0.8141(4) 0.42213(17) 0.8095(2)
H9_2 H 0.8020 0.4129 0.8456
C32_2 C 0.8058(4) 0.39238(16) 0.7634(2)
C33_2 C 0.8280(4) 0.40651(17) 0.7106(2)
H10_2 H 0.8245 0.3867 0.6797
C34_2 C 0.8553(4) 0.45019(17) 0.7043(2)
C35_2 C 0.7694(4) 0.34596(16) 0.7708(2)
C48_2 C 0.6735(6) 0.7099(3) 0.7780(3)
H24_2 H 0.6222 0.7272 0.7550
C49_2 C 0.5415(8) 0.6563(4) 0.7856(4)
H25_2 H 0.5405 0.6284 0.8051
H26_2 H 0.5176 0.6523 0.7442
H27_2 H 0.4966 0.6768 0.7998
C50_2 C 0.7219(8) 0.6435(3) 0.8333(4)
H28_2 H 0.6894 0.6173 0.8445
H29_2 H 0.7556 0.6592 0.8678
H30_2 H 0.7725 0.6353 0.8109
C51_2 C 0.6791(4) 0.73954(19) 0.6098(3)
H31_2 H 0.6955 0.7640 0.5892
C52_2 C 0.6064(5) 0.6657(2) 0.6088(3)
H32_2 H 0.5715 0.6451 0.5800
H33_2 H 0.5618 0.6730 0.6353
H34_2 H 0.6695 0.6526 0.6304
C53_2 C 0.6048(5) 0.7060(3) 0.5163(3)
H35_2 H 0.5703 0.6788 0.5027
H36_2 H 0.6671 0.7087 0.5013
H37_2 H 0.5594 0.7304 0.5029
N1_2 N 0.6686(4) 0.79953(17) 0.9241(2)
N3_2 N 0.5589(4) 0.69419(18) 0.9602(2)
N5_2 N 0.9370(4) 0.99791(15) 0.7016(2)
N8_2 N 0.7020(4) 0.54906(16) 0.6988(2)
N9_2 N 0.8455(4) 0.49527(15) 0.8523(2)
N10_2 N 0.8807(4) 0.46267(16) 0.6481(2)
N15_2 N 0.6406(5) 0.6726(2) 0.7967(2)
N16_2 N 0.6312(4) 0.70588(16) 0.5797(2)
O2_2 O 0.9640(3) 0.76098(11) 0.82031(15)
O3_2 O 0.6853(4) 0.83628(16) 0.9082(2)
O4_2 O 0.5834(4) 0.7863(2) 0.9296(2)
O9_2 O 0.6225(4) 0.6804(2) 0.9336(2)
O10_2 O 0.4674(4) 0.6864(2) 0.9460(2)
O13_2 O 0.9527(3) 0.83620(11) 0.74864(16)
O16_2 O 0.8720(3) 0.97965(14) 0.6638(2)
O18_2 O 0.8922(3) 0.69420(11) 0.71578(16)
O22_2 O 0.6769(3) 0.51023(13) 0.7021(2)
O23_2 O 0.6389(3) 0.57855(15) 0.6818(2)
O24_2 O 0.8696(4) 0.47868(15) 0.90078(19)
O25_2 O 0.8259(3) 0.53445(13) 0.84332(19)
O26_2 O 0.9017(4) 0.43361(15) 0.6170(2)
O27_2 O 0.8799(5) 0.50152(14) 0.6353(2)
O37_2 O 0.7587(3) 0.72475(13) 0.78594(17)
O38_2 O 0.7037(3) 0.74038(12) 0.66410(17)
O45_2 O 0.9095(3) 0.77356(12) 0.63778(15)
C29_3 C 0.3595(4) 0.01835(16) 0.2489(2)
C30_3 C 0.3403(4) 0.03442(17) 0.3014(2)
C31_3 C 0.3141(4) 0.07787(17) 0.3095(2)
H9_3 H 0.3020 0.0871 0.3456
C32_3 C 0.3058(4) 0.10762(16) 0.2634(2)
C33_3 C 0.3280(4) 0.09349(17) 0.2106(2)
H10_3 H 0.3245 0.1133 0.1797
C34_3 C 0.3553(4) 0.04981(17) 0.2043(2)
C35_3 C 0.2694(4) 0.15404(16) 0.2708(2)
N9_3 N 0.3455(4) 0.00473(15) 0.3523(2)
N10_3 N 0.3807(4) 0.03733(16) 0.1481(2)
O20_3 O 0.5655(3) 0.02281(14) 0.2819(3)
O24_3 O 0.3696(4) 0.02132(15) 0.40078(19)
O26_3 O 0.4017(4) 0.06639(15) 0.1170(2)
O28_2 O 0.2501(3) 0.16463(12) 0.31922(16)
O40_2 O 0.2556(3) 0.17940(11) 0.22695(17)
C1_3 C 0.4911(4) 0.75559(16) 0.3711(2)
C2_3 C 0.4109(4) 0.75763(17) 0.4092(2)
C3_3 C 0.3261(4) 0.72949(17) 0.3992(2)
H1_3 H 0.3169 0.7092 0.3685
C4_3 C 0.2555(4) 0.73193(18) 0.4354(2)
C5_3 C 0.2653(4) 0.76117(17) 0.4823(2)
C6_3 C 0.3531(4) 0.78815(19) 0.4909(2)
C7_3 C 0.4254(4) 0.78683(18) 0.4558(2)
H2_3 H 0.4832 0.8054 0.4634
C8_3 C 0.1947(4) 0.76091(18) 0.5251(2)
C9_3 C 0.0979(4) 0.78218(18) 0.5155(2)
C10_3 C 0.0350(4) 0.78257(17) 0.5560(2)
C11_3 C 0.0712(4) 0.76344(16) 0.6103(2)
C12_3 C 0.1667(4) 0.74240(17) 0.6229(2)
H4_3 H 0.1913 0.7297 0.6594
C13_3 C 0.2251(4) 0.74072(18) 0.5798(2)
C14_3 C 0.0039(4) 0.76547(15) 0.6551(2)
C15_3 C 0.5426(4) 0.65259(16) 0.2732(2)
C16_3 C 0.5670(4) 0.60340(16) 0.2711(2)
C17_3 C 0.4934(4) 0.57441(16) 0.2417(2)
H5_3 H 0.4268 0.5845 0.2252
C18_3 C 0.5182(4) 0.53022(17) 0.2368(3)
C19_3 C 0.6159(4) 0.51263(17) 0.2604(2)
C20_3 C 0.6879(4) 0.54351(19) 0.2900(3)
C21_3 C 0.6648(4) 0.58731(19) 0.2956(3)
H6_3 H 0.7153 0.6063 0.3160
C22_3 C 0.4585(4) 0.83019(16) 0.2468(2)
C23_3 C 0.4346(4) 0.87920(16) 0.2431(2)
C24_3 C 0.5094(4) 0.90944(17) 0.2683(2)
H7_3 H 0.5760 0.9000 0.2859
C25_3 C 0.4840(4) 0.95417(17) 0.2669(2)
C26_3 C 0.3862(4) 0.97063(17) 0.2432(2)
C27_3 C 0.3113(4) 0.93841(17) 0.2193(2)
C28_3 C 0.3355(4) 0.89416(17) 0.2183(2)
H8_3 H 0.2849 0.8741 0.2008
C36_3 C 0.7419(4) 0.33315(16) 0.2149(2)
C37_3 C 0.7021(4) 0.37856(16) 0.2252(2)
C38_3 C 0.6841(4) 0.38940(17) 0.2798(2)
H11_3 H 0.6932 0.3683 0.3094
C39_3 C 0.6525(4) 0.43174(17) 0.2903(2)
C40_3 C 0.6437(4) 0.46592(17) 0.2487(2)
C41_3 C 0.6589(4) 0.45248(17) 0.1943(2)
C42_3 C 0.6851(4) 0.40979(17) 0.1813(2)
H12_3 H 0.6912 0.4024 0.1435
C43_3 C 0.8045(4) 0.72313(19) 0.4326(3)
H13_3 H 0.7985 0.7485 0.4541
C44_2 C 0.8821(6) 0.6876(2) 0.5250(3)
H14_2 H 0.9103 0.6592 0.5378
H15_2 H 0.9349 0.7098 0.5360
H16_2 H 0.8244 0.6941 0.5429
C45_3 C 0.8629(7) 0.6472(2) 0.4297(4)
H17_3 H 0.8939 0.6249 0.4572
H18_3 H 0.7971 0.6368 0.4079
H19_3 H 0.9081 0.6534 0.4033
C46_3 C 0.7958(5) 0.68735(19) 0.2358(3)
H20_3 H 0.7363 0.6728 0.2162
C47_3 C 0.8936(7) 0.6274(3) 0.2063(4)
H21_3 H 0.9660 0.6198 0.2117
H22_3 H 0.8575 0.6045 0.2226
H23_3 H 0.8642 0.6303 0.1652
C48_3 C 0.1735(6) 0.7901(3) 0.2780(3)
H24_3 H 0.1222 0.7728 0.2550
C49_3 C 0.0415(8) 0.8437(4) 0.2856(4)
H25_3 H 0.0405 0.8716 0.3051
H26_3 H 0.0176 0.8477 0.2442
C50_3 C 0.2219(8) 0.8565(3) 0.3333(4)
H28_3 H 0.1894 0.8827 0.3445
H29_3 H 0.2556 0.8408 0.3678
H30_3 H 0.2725 0.8647 0.3109
C51_3 C 0.1791(4) 0.76046(19) 0.1098(3)
H31_3 H 0.1955 0.7360 0.0892
C52_3 C 0.1064(5) 0.8343(2) 0.1088(3)
H32_3 H 0.0715 0.8549 0.0800
H33_3 H 0.0618 0.8270 0.1353
H34_3 H 0.1695 0.8474 0.1304
C53_3 C 0.1048(5) 0.7940(3) 0.0163(3)
H35_3 H 0.0703 0.8212 0.0027
H36_3 H 0.1671 0.7913 0.0013
H37_3 H 0.0594 0.7696 0.0029
C54_3 C 0.9774(9) 0.6869(6) 0.2680(11)
H39_3 H 0.9855 0.7165 0.2546
H40_3 H 0.9750 0.6875 0.3089
N1_3 N 0.1686(4) 0.70047(17) 0.4241(2)
N2_3 N 0.3727(4) 0.81821(19) 0.5414(2)
N3_3 N 0.0589(4) 0.80581(18) 0.4602(2)
N4_3 N 0.3236(4) 0.71591(17) 0.5944(2)
N5_3 N 0.4370(4) 0.50209(15) 0.2016(2)
N6_3 N 0.7941(4) 0.52947(17) 0.3174(3)
N7_3 N 0.5671(4) 0.98407(15) 0.2970(3)
N8_3 N 0.2020(4) 0.95094(16) 0.1988(2)
N11_3 N 0.6454(4) 0.48475(16) 0.1451(2)
N12_3 N 0.6289(5) 0.43965(16) 0.3481(2)
N13_3 N 0.8470(4) 0.68744(16) 0.4614(2)
N14_3 N 0.8835(5) 0.6686(2) 0.2354(3)
N15_3 N 0.1406(5) 0.8274(2) 0.2967(2)
N16_3 N 0.1312(4) 0.79412(16) 0.0797(2)
O1_3 O 0.5803(3) 0.76944(12) 0.39084(15)
O2_3 O 0.4640(3) 0.73902(11) 0.32031(15)
O3_3 O 0.1853(4) 0.66372(16) 0.4082(2)
O4_3 O 0.0834(4) 0.7137(2) 0.4296(2)
O5_3 O 0.4625(5) 0.8224(2) 0.5672(2)
O6_3 O 0.3021(4) 0.83788(16) 0.5553(2)
O7_3 O 0.3650(3) 0.71266(19) 0.64565(19)
O8_3 O 0.3571(4) 0.69880(17) 0.55488(19)
O9_3 O 0.1225(4) 0.8196(2) 0.4336(2)
O12_3 O 0.6156(3) 0.67664(11) 0.29895(16)
O13_3 O 0.4527(3) 0.66380(11) 0.24864(16)
O14_3 O 0.8501(5) 0.5552(2) 0.3461(5)
O15_3 O 0.8258(4) 0.49396(15) 0.3054(3)
O16_3 O 0.3720(3) 0.52035(14) 0.1638(2)
O17_2 O 0.4388(3) 0.46241(13) 0.2108(2)
O18_3 O 0.3922(3) 0.80580(11) 0.21578(16)
O19_3 O 0.5409(3) 0.81949(11) 0.28131(16)
O21_3 O 0.6320(3) 0.96889(13) 0.3369(2)
O22_3 O 0.1769(3) 0.98977(13) 0.2021(2)
O23_3 O 0.1389(3) 0.92145(15) 0.1818(2)
O25_3 O 0.3259(3) 0.96555(13) 0.34332(19)
O27_3 O 0.3799(5) 0.99848(14) 0.1353(2)
O29_2 O 0.7761(3) 0.30974(11) 0.25868(16)
O30_2 O 0.7429(3) 0.32129(12) 0.16310(15)
O31_3 O 0.6065(5) 0.40849(16) 0.3752(2)
O32_3 O 0.6272(7) 0.47664(17) 0.3653(3)
O33_3 O 0.6121(5) 0.47031(16) 0.0961(2)
O34_3 O 0.6699(4) 0.52300(13) 0.1562(2)
O35_3 O 0.7729(3) 0.72460(13) 0.37943(18)
O36_3 O 0.7832(3) 0.72250(12) 0.25959(18)
O37_3 O 0.2587(3) 0.77525(13) 0.28594(17)
O38_3 O 0.2037(3) 0.75962(12) 0.16410(17)
O42_2 O 0.2499(3) 0.66463(12) 0.18078(16)
O43_2 O 0.7239(3) 0.80974(11) 0.24132(16)
O44_2 O 0.7571(3) 0.82129(12) 0.33690(15)
O46_2 O 0.2444(3) 0.67940(11) 0.27305(17)
H3_3 H 0.9694 0.7955 0.5470
H27_3 H 0.9966 0.8232 0.2998
O10_3 O 0.9674(4) 0.8136(2) 0.4460(2)
C1_4 C 0.0089(4) 0.25559(16) 0.1289(2)
C2_4 C 0.0891(4) 0.25763(17) 0.0908(2)
C3_4 C 0.1739(4) 0.22949(17) 0.1008(2)
H1_4 H 0.1831 0.2092 0.1315
C4_4 C 0.2445(4) 0.23193(18) 0.0646(2)
C5_4 C 0.2347(4) 0.26117(17) 0.0177(2)
C6_4 C 0.1469(4) 0.28815(19) 0.0091(2)
C7_4 C 0.0746(4) 0.28683(18) 0.0442(2)
H2_4 H 0.0168 0.3054 0.0366
C17_4 C 0.0066(4) 0.07441(16) 0.2583(2)
H5_4 H 0.0732 0.0845 0.2748
C22_4 C 0.0415(4) 0.33019(16) 0.2532(2)
C23_4 C 0.0654(4) 0.37920(16) 0.2569(2)
C25_4 C 0.0160(4) 0.45417(17) 0.2331(2)
C26_4 C 0.1138(4) 0.47063(17) 0.2568(2)
C27_4 C 0.1887(4) 0.43841(17) 0.2807(2)
C28_4 C 0.1645(4) 0.39416(17) 0.2817(2)
H8_4 H 0.2151 0.3741 0.2992
C29_4 C 0.1405(4) 0.51835(16) 0.2511(2)
C30_4 C 0.1597(4) 0.53442(17) 0.1986(2)
C31_4 C 0.1859(4) 0.57787(17) 0.1905(2)
H9_4 H 0.1980 0.5871 0.1544
C32_4 C 0.1942(4) 0.60762(16) 0.2366(2)
C33_4 C 0.1720(4) 0.59349(17) 0.2894(2)
H10_4 H 0.1755 0.6133 0.3203
C34_4 C 0.1447(4) 0.54981(17) 0.2957(2)
C35_4 C 0.2306(4) 0.65404(16) 0.2292(2)
C48_4 C 0.3265(6) 0.2901(3) 0.2220(3)
H24_4 H 0.3778 0.2728 0.2450
C49_4 C 0.4585(8) 0.3437(4) 0.2144(4)
H25_4 H 0.4595 0.3716 0.1949
H26_4 H 0.4824 0.3477 0.2558
H27_4 H 0.5034 0.3232 0.2002
C50_4 C 0.2781(8) 0.3565(3) 0.1667(4)
H28_4 H 0.3106 0.3827 0.1555
H29_4 H 0.2444 0.3408 0.1322
H30_4 H 0.2275 0.3647 0.1891
C51_4 C 0.3209(4) 0.26046(19) 0.3902(3)
H31_4 H 0.3045 0.2360 0.4108
C52_4 C 0.3936(5) 0.3343(2) 0.3912(3)
H32_4 H 0.4285 0.3549 0.4200
H33_4 H 0.4382 0.3270 0.3647
H34_4 H 0.3305 0.3474 0.3696
C53_4 C 0.3952(5) 0.2940(3) 0.4837(3)
H35_4 H 0.4297 0.3212 0.4973
H36_4 H 0.3329 0.2913 0.4987
H37_4 H 0.4406 0.2696 0.4971
N1_4 N 0.3314(4) 0.20047(17) 0.0759(2)
N3_4 N 0.4411(4) 0.30581(18) 0.0398(2)
N5_4 N 0.0630(4) 0.00209(15) 0.2984(2)
N8_4 N 0.2980(4) 0.45094(16) 0.3012(2)
N9_4 N 0.1545(4) 0.50473(15) 0.1477(2)
N10_4 N 0.1193(4) 0.53733(16) 0.3519(2)
N15_4 N 0.3594(5) 0.3274(2) 0.2033(2)
N16_4 N 0.3688(4) 0.29412(16) 0.4203(2)
O2_4 O 0.0360(3) 0.23902(11) 0.17969(15)
O3_4 O 0.3147(4) 0.16372(16) 0.0918(2)
O4_4 O 0.4166(4) 0.2137(2) 0.0704(2)
O9_4 O 0.3775(4) 0.3196(2) 0.0664(2)
O10_4 O 0.5326(4) 0.3136(2) 0.0540(2)
O13_4 O 0.0473(3) 0.16380(11) 0.25136(16)
O16_4 O 0.1280(3) 0.02035(14) 0.3362(2)
O18_4 O 0.1078(3) 0.30580(11) 0.28422(16)
O22_4 O 0.3231(3) 0.48977(13) 0.2979(2)
O23_4 O 0.3611(3) 0.42145(15) 0.3182(2)
O24_4 O 0.1304(4) 0.52132(15) 0.09922(19)
O25_4 O 0.1741(3) 0.46555(13) 0.15668(19)
O26_4 O 0.0983(4) 0.56639(15) 0.3830(2)
O27_4 O 0.1201(5) 0.49848(14) 0.3647(2)
O37_4 O 0.2413(3) 0.27525(13) 0.21406(17)
O38_4 O 0.2963(3) 0.25962(12) 0.33590(17)
C8_4 C 0.3053(4) 0.26091(18) 0.9749(2)
C9_4 C 0.4021(4) 0.28218(18) 0.9845(2)
C10_4 C 0.4650(4) 0.28257(17) 0.9440(2)
H3_4 H 0.5306 0.2955 0.9530
C11_4 C 0.4288(4) 0.26344(16) 0.8897(2)
C12_4 C 0.3333(4) 0.24240(17) 0.8771(2)
H4_4 H 0.3087 0.2297 0.8406
C13_4 C 0.2749(4) 0.24072(18) 0.9202(2)
C14_4 C 0.4961(4) 0.26547(15) 0.8449(2)
N2_4 N 0.1273(4) 0.31821(19) 0.9586(2)
N4_4 N 0.1764(4) 0.21591(17) 0.9056(2)
O5_4 O 0.0375(5) 0.3224(2) 0.9328(2)
O6_4 O 0.1979(4) 0.33788(16) 0.9447(2)
O7_4 O 0.1350(3) 0.21266(19) 0.85435(19)
O8_4 O 0.1429(4) 0.19880(17) 0.94512(19)
C15_4 C 0.9574(4) 0.15259(16) 0.2268(2)
C16_4 C 0.9330(4) 0.10340(16) 0.2289(2)
C18_4 C 0.9818(4) 0.03022(17) 0.2632(3)
C19_4 C 0.8841(4) 0.01263(17) 0.2396(2)
C20_4 C 0.8121(4) 0.04351(19) 0.2100(3)
C21_4 C 0.8352(4) 0.08731(19) 0.2044(3)
H6_4 H 0.7847 0.1063 0.1840
C24_4 C 0.9906(4) 0.40944(17) 0.2317(2)
H7_4 H 0.9240 0.4000 0.2141
C43_4 C 0.6955(4) 0.22313(19) 0.0674(3)
H13_4 H 0.7015 0.2485 0.0459
C45_4 C 0.6371(7) 0.1472(2) 0.0703(4)
H17_4 H 0.6061 0.1249 0.0428
H18_4 H 0.7029 0.1368 0.0921
H19_4 H 0.5919 0.1534 0.0967
C46_4 C 0.7042(5) 0.18735(19) 0.2642(3)
H20_4 H 0.7637 0.1728 0.2838
C47_4 C 0.6064(7) 0.1274(3) 0.2937(4)
H21_4 H 0.5340 0.1198 0.2883
H22_4 H 0.6425 0.1045 0.2774
H23_4 H 0.6358 0.1303 0.3348
C54_4 C 0.5226(9) 0.1869(6) 0.2320(11)
H38_2 H 0.4648 0.1692 0.2375
H39_4 H 0.5145 0.2165 0.2454
H40_4 H 0.5250 0.1875 0.1911
N6_4 N 0.7059(4) 0.02947(17) 0.1826(3)
N7_4 N 0.9329(4) 0.48407(15) 0.2030(3)
N13_4 N 0.6530(4) 0.18744(16) 0.0386(2)
N14_4 N 0.6165(5) 0.1686(2) 0.2646(3)
O1_4 O 0.9197(3) 0.26944(12) 0.10916(15)
O12_4 O 0.8844(3) 0.17664(11) 0.20105(16)
O14_4 O 0.6499(5) 0.0552(2) 0.1539(5)
O19_4 O 0.9591(3) 0.31949(11) 0.21869(16)
O20_4 O 0.9345(3) 0.52281(14) 0.2181(3)
O21_4 O 0.8680(3) 0.46889(13) 0.1631(2)
O34_4 O 0.8301(4) 0.02300(13) 0.3438(2)
O35_4 O 0.7271(3) 0.22460(13) 0.12057(18)
O36_4 O 0.7168(3) 0.22250(12) 0.24041(18)
C36_4 C 0.7581(4) 0.83315(16) 0.2851(2)
C37_4 C 0.7979(4) 0.87856(16) 0.2748(2)
C38_4 C 0.8159(4) 0.88940(17) 0.2202(2)
H11_4 H 0.8068 0.8683 0.1906
C39_4 C 0.8475(4) 0.93174(17) 0.2097(2)
C40_4 C 0.8563(4) 0.96592(17) 0.2513(2)
C41_4 C 0.8411(4) 0.95248(17) 0.3057(2)
C42_4 C 0.8149(4) 0.90979(17) 0.3187(2)
H12_4 H 0.8088 0.9024 0.3565
N11_4 N 0.8546(4) 0.98475(16) 0.3549(2)
N12_4 N 0.8711(5) 0.93965(16) 0.1519(2)
O15_4 O 0.6742(4) 0.99396(15) 0.1946(3)
O31_4 O 0.8935(5) 0.90849(16) 0.1248(2)
O32_4 O 0.8728(7) 0.97664(17) 0.1347(3)
O33_4 O 0.8879(5) 0.97031(16) 0.4039(2)
H38_3 H 0.9648 0.3308 0.7375
C44_3 C 0.3821(6) 0.8124(2) 0.0250(3)
H14_3 H 0.4103 0.8408 0.0378
H15_3 H 0.4349 0.7902 0.0360
H16_3 H 0.3244 0.8059 0.0429
O17_3 O 0.9388(3) 0.03759(13) 0.7108(2)
H38_4 H 0.0352 0.6692 0.2625
O17_4 O 0.0612(3) 0.96241(13) 0.2892(2)
C44_4 C 0.6179(6) 0.1876(2) 0.9750(3)
H14_4 H 0.5897 0.1592 0.9622
H15_4 H 0.5651 0.2098 0.9640
H16_4 H 0.6756 0.1941 0.9571
loop_
_geom_bond_atom_site_label_1
_geom_bond_atom_site_label_2
_geom_bond_site_symmetry_1
_geom_bond_site_symmetry_2
O39 Gd4 1_555 1_555
Gd1 O2 1_555 1_555
Gd2 O1 1_555 1_555
C1 C2 1_555 1_555
C2 C3 1_555 1_555
C3 H1 1_555 1_555
C4 C3 1_555 1_555
C5 C4 1_555 1_555
C6 C5 1_555 1_555
C7 C2 1_555 1_555
H2 C7 1_555 1_555
C8 C5 1_555 1_555
C9 C8 1_555 1_555
C10 C9 1_555 1_555
C11 C10 1_555 1_555
C12 C11 1_555 1_555
H4 C12 1_555 1_555
C13 C8 1_555 1_555
C14 C11 1_555 1_555
C15 C16 1_555 1_555
C16 C17 1_555 1_555
C17 H5 1_555 1_555
C18 C17 1_555 1_555
C19 C18 1_555 1_555
C20 C19 1_555 1_555
C21 C16 1_555 1_555
H6 C21 1_555 1_555
C22 C23 1_555 1_555
C23 C24 1_555 1_555
C24 H7 1_555 1_555
C25 C24 1_555 1_555
C26 C25 1_555 1_555
C27 C26 1_555 1_555
C28 C23 1_555 1_555
H8 C28 1_555 1_555
C36 C37 1_555 1_555
C37 C38 1_555 1_555
C38 H11 1_555 1_555
C39 C38 1_555 1_555
C40 C19 1_555 1_555
C41 C40 1_555 1_555
C42 C37 1_555 1_555
H12 C42 1_555 1_555
C43 H13 1_555 1_555
C44 H14 1_555 1_555
H15 C44 1_555 1_555
H16 C44 1_555 1_555
C45 H17 1_555 1_555
H18 C45 1_555 1_555
H19 C45 1_555 1_555
C46 H20 1_555 1_555
C47 H21 1_555 1_555
H22 C47 1_555 1_555
H23 C47 1_555 1_555
C48 H24 1_555 1_555
C49 H25 1_555 1_555
H26 C49 1_555 1_555
C50 H28 1_555 1_555
H29 C50 1_555 1_555
H30 C50 1_555 1_555
C51 H31 1_555 1_555
C52 H32 1_555 1_555
H33 C52 1_555 1_555
H34 C52 1_555 1_555
C53 H35 1_555 1_555
H36 C53 1_555 1_555
H37 C53 1_555 1_555
H39 C54 1_555 1_555
H40 C54 1_555 1_555
N1 C4 1_555 1_555
N2 C6 1_555 1_555
N3 C9 1_555 1_555
N4 C13 1_555 1_555
N5 C18 1_555 1_555
N6 C20 1_555 1_555
N7 C25 1_555 1_555
N8 C27 1_555 1_555
N11 C41 1_555 1_555
N12 C39 1_555 1_555
N13 C43 1_555 1_555
N14 C46 1_555 1_555
N15 C48 1_555 1_555
N16 C51 1_555 1_555
O1 C1 1_555 1_555
O2 Gd2 1_555 1_555
O3 N1 1_555 1_555
O4 N1 1_555 1_555
O5 N2 1_555 1_555
O6 N2 1_555 1_555
O7 N4 1_555 1_555
O8 N4 1_555 1_555
O9 N3 1_555 1_555
O11 C14 1_555 1_555
O12 Gd2 1_555 1_555
O13 Gd1 1_555 1_555
O14 N6 1_555 1_555
O15 N6 1_555 1_555
O16 N5 1_555 1_555
O17 N5 1_555 1_555
O18 Gd1 1_555 1_555
O19 Gd2 1_555 1_555
O21 N7 1_555 1_555
O22 N8 1_555 1_555
O23 N8 1_555 1_555
O29 C36 1_555 1_555
O30 C36 1_555 1_555
O31 N12 1_555 1_555
O32 N12 1_555 1_555
O33 N11 1_555 1_555
O34 N11 1_555 1_555
O35 Gd2 1_555 1_555
O36 Gd2 1_555 1_555
O37 Gd1 1_555 1_555
O38 Gd1 1_555 1_555
Gd5 O29 1_555 1_555
Gd6 O11 1_555 1_555
O41 Gd1 1_555 1_555
O42 Gd1 1_555 1_555
O43 Gd2 1_555 1_555
O44 Gd2 1_555 1_555
O45 Gd1 1_555 1_555
O46 Gd1 1_555 1_555
Gd2 O41 1_555 1_555
C1 O2 1_555 1_555
C6 C7 1_555 1_555
C12 C13 1_555 1_555
C15 O12 1_555 1_555
C15 O13 1_555 1_555
C20 C21 1_555 1_555
C22 O18 1_555 1_555
C22 O19 1_555 1_555
C27 C28 1_555 1_555
C39 C40 1_555 1_555
C41 C42 1_555 1_555
C43 O35 1_555 1_555
C44 N13 1_555 1_555
C45 N13 1_555 1_555
C46 O36 1_555 1_555
C47 N14 1_555 1_555
C48 O37 1_555 1_555
C49 N15 1_555 1_555
C50 N15 1_555 1_555
C51 O38 1_555 1_555
C52 N16 1_555 1_555
C53 N16 1_555 1_555
C54 N14 1_555 1_555
O30 Gd5 1_555 1_555
C30 C29 1_555 1_555
C31 C30 1_555 1_555
H9 C31 1_555 1_555
C32 C31 1_555 1_555
C33 C32 1_555 1_555
H10 C33 1_555 1_555
C34 C29 1_555 1_555
C35 C32 1_555 1_555
N9 C30 1_555 1_555
N10 C34 1_555 1_555
O24 N9 1_555 1_555
O26 N10 1_555 1_555
O28 C35 1_555 1_555
O40 C35 1_555 1_555
Gd3 O28 1_555 1_555
C33 C34 1_555 1_555
O40 Gd3 1_555 1_555
C36_2 C37_2 1_555 1_555
C37_2 C38_2 1_555 1_555
C38_2 H11_2 1_555 1_555
C39_2 C38_2 1_555 1_555
C41_2 C40_2 1_555 1_555
C42_2 C37_2 1_555 1_555
H12_2 C42_2 1_555 1_555
N11_2 C41_2 1_555 1_555
N12_2 C39_2 1_555 1_555
O43 C36_2 1_555 1_555
O44 C36_2 1_555 1_555
O31_2 N12_2 1_555 1_555
O32_2 N12_2 1_555 1_555
O33_2 N11_2 1_555 1_555
C39_2 C40_2 1_555 1_555
C41_2 C42_2 1_555 1_555
Gd5 O1_2 1_555 1_555
C15_2 C16_2 1_555 1_555
C19_2 C18_2 1_555 1_555
C20_2 C19_2 1_555 1_555
C21_2 C16_2 1_555 1_555
H6_2 C21_2 1_555 1_555
C24_2 H7_2 1_555 1_555
C43_2 H13_2 1_555 1_555
C45_2 H17_2 1_555 1_555
H18_2 C45_2 1_555 1_555
H19_2 C45_2 1_555 1_555
C46_2 H20_2 1_555 1_555
C47_2 H21_2 1_555 1_555
H22_2 C47_2 1_555 1_555
H23_2 C47_2 1_555 1_555
C54_2 H38 1_555 1_555
H39_2 C54_2 1_555 1_555
H40_2 C54_2 1_555 1_555
N6_2 C20_2 1_555 1_555
N13_2 C43_2 1_555 1_555
N14_2 C46_2 1_555 1_555
O12_2 Gd5 1_555 1_555
O14_2 N6_2 1_555 1_555
O19_2 Gd5 1_555 1_555
O20_2 N7_2 1_555 1_555
O21_2 N7_2 1_555 1_555
O35_2 Gd5 1_555 1_555
O36_2 Gd5 1_555 1_555
Gd5 O41_2 1_555 1_555
C15_2 O12_2 1_555 1_555
C20_2 C21_2 1_555 1_555
C43_2 O35_2 1_555 1_555
C45_2 N13_2 1_555 1_555
C46_2 O36_2 1_555 1_555
C47_2 N14_2 1_555 1_555
C54_2 N14_2 1_555 1_555
C9_2 C8_2 1_555 1_555
C10_2 C9_2 1_555 1_555
H3_2 C10_2 1_555 1_555
C11_2 C10_2 1_555 1_555
C12_2 C11_2 1_555 1_555
H4_2 C12_2 1_555 1_555
C13_2 C8_2 1_555 1_555
C14_2 C11_2 1_555 1_555
N4_2 C13_2 1_555 1_555
O5_2 N2_2 1_555 1_555
O6_2 N2_2 1_555 1_555
O7_2 N4_2 1_555 1_555
O8_2 N4_2 1_555 1_555
O11_2 C14_2 1_555 1_555
O39_2 C14_2 1_555 1_555
Gd4_2 O11_2 1_555 1_555
Gd6_2 O11_2 1_555 1_555
C12_2 C13_2 1_555 1_555
O39_2 Gd4_2 1_555 1_555
Gd3 O2_2 1_555 1_555
C1_2 C2_2 1_555 1_555
C2_2 C3_2 1_555 1_555
C3_2 H1_2 1_555 1_555
C4_2 C3_2 1_555 1_555
C5_2 C4_2 1_555 1_555
C6_2 C5_2 1_555 1_555
C7_2 C2_2 1_555 1_555
H2_2 C7_2 1_555 1_555
C17_2 H5_2 1_555 1_555
C22_2 C23_2 1_555 1_555
C26_2 C25_2 1_555 1_555
C27_2 C26_2 1_555 1_555
C28_2 C23_2 1_555 1_555
H8_2 C28_2 1_555 1_555
C29_2 C26_2 1_555 1_555
C30_2 C29_2 1_555 1_555
C31_2 C30_2 1_555 1_555
H9_2 C31_2 1_555 1_555
C32_2 C31_2 1_555 1_555
C33_2 C32_2 1_555 1_555
H10_2 C33_2 1_555 1_555
C34_2 C29_2 1_555 1_555
C35_2 C32_2 1_555 1_555
C48_2 H24_2 1_555 1_555
C49_2 H25_2 1_555 1_555
H26_2 C49_2 1_555 1_555
H27_2 C49_2 1_555 1_555
C50_2 H28_2 1_555 1_555
H29_2 C50_2 1_555 1_555
H30_2 C50_2 1_555 1_555
C51_2 H31_2 1_555 1_555
C52_2 H32_2 1_555 1_555
H33_2 C52_2 1_555 1_555
H34_2 C52_2 1_555 1_555
C53_2 H35_2 1_555 1_555
H36_2 C53_2 1_555 1_555
H37_2 C53_2 1_555 1_555
N1_2 C4_2 1_555 1_555
N8_2 C27_2 1_555 1_555
N9_2 C30_2 1_555 1_555
N10_2 C34_2 1_555 1_555
N15_2 C48_2 1_555 1_555
N16_2 C51_2 1_555 1_555
O3_2 N1_2 1_555 1_555
O4_2 N1_2 1_555 1_555
O9_2 N3_2 1_555 1_555
O10_2 N3_2 1_555 1_555
O13_2 Gd3 1_555 1_555
O16_2 N5_2 1_555 1_555
O18_2 Gd3 1_555 1_555
O22_2 N8_2 1_555 1_555
O23_2 N8_2 1_555 1_555
O24_2 N9_2 1_555 1_555
O25_2 N9_2 1_555 1_555
O26_2 N10_2 1_555 1_555
O27_2 N10_2 1_555 1_555
O42 C35_2 1_555 1_555
O37_2 Gd3 1_555 1_555
O38_2 Gd3 1_555 1_555
O46 C35_2 1_555 1_555
O45_2 Gd3 1_555 1_555
C1_2 O2_2 1_555 1_555
C6_2 C7_2 1_555 1_555
C22_2 O18_2 1_555 1_555
C27_2 C28_2 1_555 1_555
C33_2 C34_2 1_555 1_555
C48_2 O37_2 1_555 1_555
C49_2 N15_2 1_555 1_555
C50_2 N15_2 1_555 1_555
C51_2 O38_2 1_555 1_555
C52_2 N16_2 1_555 1_555
C53_2 N16_2 1_555 1_555
C30_3 C29_3 1_555 1_555
C31_3 C30_3 1_555 1_555
H9_3 C31_3 1_555 1_555
C32_3 C31_3 1_555 1_555
C33_3 C32_3 1_555 1_555
H10_3 C33_3 1_555 1_555
C34_3 C29_3 1_555 1_555
C35_3 C32_3 1_555 1_555
N9_3 C30_3 1_555 1_555
N10_3 C34_3 1_555 1_555
O24_3 N9_3 1_555 1_555
O26_3 N10_3 1_555 1_555
O28_2 C35_3 1_555 1_555
O40_2 C35_3 1_555 1_555
Gd4 O28_2 1_555 1_555
C33_3 C34_3 1_555 1_555
O40_2 Gd4 1_555 1_555
Gd4_2 O2_3 1_555 1_555
Gd6_2 O1_3 1_555 1_555
C1_3 C2_3 1_555 1_555
C2_3 C3_3 1_555 1_555
C3_3 H1_3 1_555 1_555
C4_3 C3_3 1_555 1_555
C5_3 C4_3 1_555 1_555
C6_3 C5_3 1_555 1_555
C7_3 C2_3 1_555 1_555
H2_3 C7_3 1_555 1_555
C8_3 C5_3 1_555 1_555
C9_3 C8_3 1_555 1_555
C10_3 C9_3 1_555 1_555
C11_3 C10_3 1_555 1_555
C12_3 C11_3 1_555 1_555
H4_3 C12_3 1_555 1_555
C13_3 C8_3 1_555 1_555
C14_3 C11_3 1_555 1_555
C15_3 C16_3 1_555 1_555
C16_3 C17_3 1_555 1_555
C17_3 H5_3 1_555 1_555
C18_3 C17_3 1_555 1_555
C19_3 C18_3 1_555 1_555
C20_3 C19_3 1_555 1_555
C21_3 C16_3 1_555 1_555
H6_3 C21_3 1_555 1_555
C22_3 C23_3 1_555 1_555
C23_3 C24_3 1_555 1_555
C24_3 H7_3 1_555 1_555
C25_3 C24_3 1_555 1_555
C26_3 C25_3 1_555 1_555
C27_3 C26_3 1_555 1_555
C28_3 C23_3 1_555 1_555
H8_3 C28_3 1_555 1_555
C36_3 C37_3 1_555 1_555
C37_3 C38_3 1_555 1_555
C38_3 H11_3 1_555 1_555
C39_3 C38_3 1_555 1_555
C40_3 C19_3 1_555 1_555
C41_3 C40_3 1_555 1_555
C42_3 C37_3 1_555 1_555
H12_3 C42_3 1_555 1_555
C43_3 H13_3 1_555 1_555
C44_2 H14_2 1_555 1_555
H15_2 C44_2 1_555 1_555
H16_2 C44_2 1_555 1_555
C45_3 H17_3 1_555 1_555
H18_3 C45_3 1_555 1_555
H19_3 C45_3 1_555 1_555
C46_3 H20_3 1_555 1_555
C47_3 H21_3 1_555 1_555
H22_3 C47_3 1_555 1_555
H23_3 C47_3 1_555 1_555
C48_3 H24_3 1_555 1_555
C49_3 H25_3 1_555 1_555
H26_3 C49_3 1_555 1_555
C50_3 H28_3 1_555 1_555
H29_3 C50_3 1_555 1_555
H30_3 C50_3 1_555 1_555
C51_3 H31_3 1_555 1_555
C52_3 H32_3 1_555 1_555
H33_3 C52_3 1_555 1_555
H34_3 C52_3 1_555 1_555
C53_3 H35_3 1_555 1_555
H36_3 C53_3 1_555 1_555
H37_3 C53_3 1_555 1_555
H39_3 C54_3 1_555 1_555
H40_3 C54_3 1_555 1_555
N1_3 C4_3 1_555 1_555
N2_3 C6_3 1_555 1_555
N3_3 C9_3 1_555 1_555
N4_3 C13_3 1_555 1_555
N5_3 C18_3 1_555 1_555
N6_3 C20_3 1_555 1_555
N7_3 C25_3 1_555 1_555
N8_3 C27_3 1_555 1_555
N11_3 C41_3 1_555 1_555
N12_3 C39_3 1_555 1_555
N13_3 C43_3 1_555 1_555
N14_3 C46_3 1_555 1_555
N15_3 C48_3 1_555 1_555
N16_3 C51_3 1_555 1_555
O1_3 C1_3 1_555 1_555
O2_3 Gd6_2 1_555 1_555
O3_3 N1_3 1_555 1_555
O4_3 N1_3 1_555 1_555
O5_3 N2_3 1_555 1_555
O6_3 N2_3 1_555 1_555
O7_3 N4_3 1_555 1_555
O8_3 N4_3 1_555 1_555
O9_3 N3_3 1_555 1_555
O41_2 C14_3 1_555 1_555
O12_3 Gd6_2 1_555 1_555
O13_3 Gd4_2 1_555 1_555
O14_3 N6_3 1_555 1_555
O15_3 N6_3 1_555 1_555
O16_3 N5_3 1_555 1_555
O17_2 N5_3 1_555 1_555
O18_3 Gd4_2 1_555 1_555
O19_3 Gd6_2 1_555 1_555
O21_3 N7_3 1_555 1_555
O22_3 N8_3 1_555 1_555
O23_3 N8_3 1_555 1_555
O29_2 C36_3 1_555 1_555
O30_2 C36_3 1_555 1_555
O31_3 N12_3 1_555 1_555
O32_3 N12_3 1_555 1_555
O33_3 N11_3 1_555 1_555
O34_3 N11_3 1_555 1_555
O35_3 Gd6_2 1_555 1_555
O36_3 Gd6_2 1_555 1_555
O37_3 Gd4_2 1_555 1_555
O38_3 Gd4_2 1_555 1_555
Gd6 O29_2 1_555 1_555
O42_2 Gd4_2 1_555 1_555
O43_2 Gd6_2 1_555 1_555
O44_2 Gd6_2 1_555 1_555
O46_2 Gd4_2 1_555 1_555
C1_3 O2_3 1_555 1_555
C6_3 C7_3 1_555 1_555
C12_3 C13_3 1_555 1_555
C15_3 O12_3 1_555 1_555
C15_3 O13_3 1_555 1_555
C20_3 C21_3 1_555 1_555
C22_3 O18_3 1_555 1_555
C22_3 O19_3 1_555 1_555
C27_3 C28_3 1_555 1_555
C39_3 C40_3 1_555 1_555
C41_3 C42_3 1_555 1_555
C43_3 O35_3 1_555 1_555
C44_2 N13_3 1_555 1_555
C45_3 N13_3 1_555 1_555
C46_3 O36_3 1_555 1_555
C47_3 N14_3 1_555 1_555
C48_3 O37_3 1_555 1_555
C49_3 N15_3 1_555 1_555
C50_3 N15_3 1_555 1_555
C51_3 O38_3 1_555 1_555
C52_3 N16_3 1_555 1_555
C53_3 N16_3 1_555 1_555
C54_3 N14_3 1_555 1_555
O30_2 Gd6 1_555 1_555
Gd4 O2_4 1_555 1_555
C1_4 C2_4 1_555 1_555
C2_4 C3_4 1_555 1_555
C3_4 H1_4 1_555 1_555
C4_4 C3_4 1_555 1_555
C5_4 C4_4 1_555 1_555
C6_4 C5_4 1_555 1_555
C7_4 C2_4 1_555 1_555
H2_4 C7_4 1_555 1_555
C17_4 H5_4 1_555 1_555
C22_4 C23_4 1_555 1_555
C26_4 C25_4 1_555 1_555
C27_4 C26_4 1_555 1_555
C28_4 C23_4 1_555 1_555
H8_4 C28_4 1_555 1_555
C29_4 C26_4 1_555 1_555
C30_4 C29_4 1_555 1_555
C31_4 C30_4 1_555 1_555
H9_4 C31_4 1_555 1_555
C32_4 C31_4 1_555 1_555
C33_4 C32_4 1_555 1_555
H10_4 C33_4 1_555 1_555
C34_4 C29_4 1_555 1_555
C35_4 C32_4 1_555 1_555
C48_4 H24_4 1_555 1_555
C49_4 H25_4 1_555 1_555
H26_4 C49_4 1_555 1_555
H27_4 C49_4 1_555 1_555
C50_4 H28_4 1_555 1_555
H29_4 C50_4 1_555 1_555
H30_4 C50_4 1_555 1_555
C51_4 H31_4 1_555 1_555
C52_4 H32_4 1_555 1_555
H33_4 C52_4 1_555 1_555
H34_4 C52_4 1_555 1_555
C53_4 H35_4 1_555 1_555
H36_4 C53_4 1_555 1_555
H37_4 C53_4 1_555 1_555
N1_4 C4_4 1_555 1_555
N8_4 C27_4 1_555 1_555
N9_4 C30_4 1_555 1_555
N10_4 C34_4 1_555 1_555
N15_4 C48_4 1_555 1_555
N16_4 C51_4 1_555 1_555
O3_4 N1_4 1_555 1_555
O4_4 N1_4 1_555 1_555
O9_4 N3_4 1_555 1_555
O10_4 N3_4 1_555 1_555
O13_4 Gd4 1_555 1_555
O16_4 N5_4 1_555 1_555
O18_4 Gd4 1_555 1_555
O22_4 N8_4 1_555 1_555
O23_4 N8_4 1_555 1_555
O24_4 N9_4 1_555 1_555
O25_4 N9_4 1_555 1_555
O26_4 N10_4 1_555 1_555
O27_4 N10_4 1_555 1_555
O42_2 C35_4 1_555 1_555
O37_4 Gd4 1_555 1_555
O38_4 Gd4 1_555 1_555
O46_2 C35_4 1_555 1_555
C1_4 O2_4 1_555 1_555
C6_4 C7_4 1_555 1_555
C22_4 O18_4 1_555 1_555
C27_4 C28_4 1_555 1_555
C33_4 C34_4 1_555 1_555
C48_4 O37_4 1_555 1_555
C49_4 N15_4 1_555 1_555
C50_4 N15_4 1_555 1_555
C51_4 O38_4 1_555 1_555
C52_4 N16_4 1_555 1_555
C53_4 N16_4 1_555 1_555
C9_4 C8_4 1_555 1_555
C10_4 C9_4 1_555 1_555
H3_4 C10_4 1_555 1_555
C11_4 C10_4 1_555 1_555
C12_4 C11_4 1_555 1_555
H4_4 C12_4 1_555 1_555
C13_4 C8_4 1_555 1_555
C14_4 C11_4 1_555 1_555
N4_4 C13_4 1_555 1_555
O5_4 N2_4 1_555 1_555
O6_4 N2_4 1_555 1_555
O7_4 N4_4 1_555 1_555
O8_4 N4_4 1_555 1_555
O41 C14_4 1_555 1_555
O45 C14_4 1_555 1_555
C12_4 C13_4 1_555 1_555
Gd6 O1_4 1_555 1_555
C15_4 C16_4 1_555 1_555
C19_4 C18_4 1_555 1_555
C20_4 C19_4 1_555 1_555
C21_4 C16_4 1_555 1_555
H6_4 C21_4 1_555 1_555
C24_4 H7_4 1_555 1_555
C43_4 H13_4 1_555 1_555
C45_4 H17_4 1_555 1_555
H18_4 C45_4 1_555 1_555
H19_4 C45_4 1_555 1_555
C46_4 H20_4 1_555 1_555
C47_4 H21_4 1_555 1_555
H22_4 C47_4 1_555 1_555
H23_4 C47_4 1_555 1_555
C54_4 H38_2 1_555 1_555
H39_4 C54_4 1_555 1_555
H40_4 C54_4 1_555 1_555
N6_4 C20_4 1_555 1_555
N13_4 C43_4 1_555 1_555
N14_4 C46_4 1_555 1_555
O12_4 Gd6 1_555 1_555
O14_4 N6_4 1_555 1_555
O19_4 Gd6 1_555 1_555
O20_4 N7_4 1_555 1_555
O21_4 N7_4 1_555 1_555
O35_4 Gd6 1_555 1_555
O36_4 Gd6 1_555 1_555
C15_4 O12_4 1_555 1_555
C20_4 C21_4 1_555 1_555
C43_4 O35_4 1_555 1_555
C45_4 N13_4 1_555 1_555
C46_4 O36_4 1_555 1_555
C47_4 N14_4 1_555 1_555
C54_4 N14_4 1_555 1_555
C36_4 C37_4 1_555 1_555
C37_4 C38_4 1_555 1_555
C38_4 H11_4 1_555 1_555
C39_4 C38_4 1_555 1_555
C41_4 C40_4 1_555 1_555
C42_4 C37_4 1_555 1_555
H12_4 C42_4 1_555 1_555
N11_4 C41_4 1_555 1_555
N12_4 C39_4 1_555 1_555
O43_2 C36_4 1_555 1_555
O44_2 C36_4 1_555 1_555
O31_4 N12_4 1_555 1_555
O32_4 N12_4 1_555 1_555
O33_4 N11_4 1_555 1_555
C39_4 C40_4 1_555 1_555
C41_4 C42_4 1_555 1_555
C44_3 H14_3 1_555 1_555
H15_3 C44_3 1_555 1_555
H16_3 C44_3 1_555 1_555
C44_4 H14_4 1_555 1_555
H15_4 C44_4 1_555 1_555
H16_4 C44_4 1_555 1_555

#END
