
###############################################################################
#
# This file contains modified crystal structure data generated from the
# MOF subset of the Cambridge Structural Database (CSD) v543 
# hosted by the Cambridge Crystallographic Data Centre (CCDC).
#
# This work is licensed under the Creative Commons
# Attribution-NonCommercial-ShareAlike 4.0 International License.
# To view a copy of this license, visit
# http://creativecommons.org/licenses/by-nc-sa/4.0/
# or send a letter to
# Creative Commons, PO Box 1866, Mountain View, CA 94042, USA.
#
# CIF created using the CSD Python API on 29 September 2022
# The structure has been converted into the P1 space group
# The structure has a 3D framework
# The original CSD entry YUDFOU is in the monoclinic crystal system
# The framework has been calculated to contain at least 10.0% void space
# The void calculation uses a probe of radius 1.32A, grid spacing 0.4
# H atom positions have been added when not included in the experimental data
# Generated hydrogen atom positions removed from atoms on special positions
#
###############################################################################

data_YUDFOU
_chemical_formula_moiety         '(C192 H200 Gd8 N56 O176)n'
_symmetry_cell_setting           triclinic
_symmetry_space_group_name_H-M   'P 1'
_symmetry_Int_Tables_number      1
_space_group_name_Hall           'P 1'
loop_
_symmetry_equiv_pos_site_id
_symmetry_equiv_pos_as_xyz
1 x,y,z
_cell_length_a                   25.466(5)
_cell_length_b                   14.961(5)
_cell_length_c                   26.140(5)
_cell_angle_alpha                90
_cell_angle_beta                 94.842(5)
_cell_angle_gamma                90
_cell_volume                     9923.71
loop_
_atom_site_label
_atom_site_type_symbol
_atom_site_fract_x
_atom_site_fract_y
_atom_site_fract_z
Gd1 Gd 0.348238(18) 0.26371(3) 0.006582(18)
C22 C 0.4170(8) 0.343(2) 0.1795(10)
H7 H 0.4303 0.3624 0.2132
H8 H 0.4118 0.2796 0.1796
H9 H 0.3841 0.3724 0.1700
C23 C 0.4968(9) 0.4185(17) 0.1620(10)
H10 H 0.4982 0.4257 0.1986
H11 H 0.4935 0.4761 0.1459
H12 H 0.5285 0.3901 0.1529
C24 C 0.4445(5) 0.3438(10) 0.0972(5)
N7 N 0.4523(4) 0.3646(7) 0.1451(4)
O5 O 0.4114(4) 0.1476(8) 0.0190(6)
O22 O 0.4090(4) 0.3005(7) 0.0797(5)
O45 O 0.3042(3) 0.2081(5) 0.0763(3)
O48 O 0.3143(3) 0.3912(5) 0.0506(3)
H25 H 0.472683 0.367983 0.071312
C1 C 0.2432(4) 0.3197(6) 0.9201(4)
C2 C 0.2555(4) 0.3515(7) 0.8683(4)
C3 C 0.2201(4) 0.3387(7) 0.8252(4)
H1 H 0.1878 0.3114 0.8289
C4 C 0.2322(4) 0.3659(7) 0.7773(4)
C5 C 0.2780(4) 0.4124(7) 0.7685(4)
C6 C 0.3121(4) 0.4249(7) 0.8125(4)
C7 C 0.3039(4) 0.3943(7) 0.8616(4)
H2 H 0.3294 0.4018 0.8889
C8 C 0.2918(4) 0.4413(7) 0.7156(4)
C9 C 0.2738(4) 0.5245(8) 0.6946(4)
C10 C 0.2873(4) 0.5558(8) 0.6488(4)
H3 H 0.2754 0.6116 0.6371
C11 C 0.3182(4) 0.5061(7) 0.6198(4)
C12 C 0.3371(4) 0.4233(7) 0.6386(4)
H4 H 0.3589 0.3890 0.6196
C13 C 0.3232(4) 0.3932(7) 0.6855(4)
C14 C 0.3347(4) 0.5384(7) 0.5679(4)
C15 C 0.3691(4) 0.1825(7) 0.8874(4)
C16 C 0.4078(4) 0.1913(6) 0.8459(3)
C17 C 0.4042(4) 0.1361(6) 0.8043(4)
H5 H 0.3780 0.0927 0.8010
C18 C 0.4393(4) 0.1442(6) 0.7668(4)
C19 C 0.4801(3) 0.2065(7) 0.7696(4)
C20 C 0.4825(4) 0.2627(6) 0.8131(4)
C21 C 0.4470(4) 0.2555(6) 0.8507(4)
H6 H 0.4497 0.2937 0.8789
N1 N 0.3627(4) 0.4720(7) 0.8082(4)
N2 N 0.1927(4) 0.3449(6) 0.7347(3)
N3 N 0.2398(4) 0.5818(8) 0.7241(4)
N4 N 0.3432(4) 0.3011(9) 0.7008(6)
N5 N 0.5248(3) 0.3286(6) 0.8228(4)
N6 N 0.4317(3) 0.0849(6) 0.7220(4)
O1 O 0.2778(3) 0.3201(4) 0.9555(3)
O2 O 0.1958(3) 0.2919(5) 0.9237(3)
O3 O 0.3936(4) 0.3943(5) 0.9772(3)
O4 O 0.4010(3) 0.4471(6) 0.8370(3)
O6 O 0.3633(3) 0.5336(6) 0.7781(3)
O7 O 0.3000(3) 0.1312(4) 0.9726(3)
O8 O 0.1486(3) 0.3207(6) 0.7439(3)
O9 O 0.2065(3) 0.3454(7) 0.6901(3)
O10 O 0.3463(4) 0.2875(9) 0.7467(5)
O11 O 0.3563(5) 0.2508(6) 0.6682(5)
O12 O 0.2046(3) 0.5462(7) 0.7445(4)
O13 O 0.2513(4) 0.6624(7) 0.7255(3)
O14 O 0.3687(4) 0.4923(5) 0.5486(3)
O15 O 0.3143(3) 0.6088(5) 0.5506(3)
O16 O 0.3782(3) 0.2304(5) 0.9260(3)
O17 O 0.3321(3) 0.1298(5) 0.8790(3)
O18 O 0.5342(3) 0.3569(7) 0.8652(3)
O19 O 0.5484(3) 0.3526(5) 0.7859(3)
O20 O 0.4121(4) 0.0121(6) 0.7298(3)
O21 O 0.4431(3) 0.1116(5) 0.6802(3)
C25 C 0.6309(4) 0.1825(7) 0.6126(4)
C26 C 0.5922(4) 0.1913(6) 0.6541(3)
C27 C 0.5958(4) 0.1361(6) 0.6957(4)
H13 H 0.6220 0.0927 0.6990
C28 C 0.5607(4) 0.1442(6) 0.7332(4)
C29 C 0.5199(3) 0.2065(7) 0.7304(4)
C30 C 0.5175(4) 0.2627(6) 0.6869(4)
C31 C 0.5530(4) 0.2555(6) 0.6493(4)
H14 H 0.5503 0.2937 0.6211
N8 N 0.4752(3) 0.3286(6) 0.6772(4)
N9 N 0.5683(3) 0.0849(6) 0.7780(4)
O23 O 0.6218(3) 0.2304(5) 0.5740(3)
O24 O 0.6679(3) 0.1298(5) 0.6210(3)
O25 O 0.4658(3) 0.3569(7) 0.6348(3)
O26 O 0.4516(3) 0.3526(5) 0.7141(3)
O27 O 0.5879(4) 0.0121(6) 0.7702(3)
O28 O 0.5569(3) 0.1116(5) 0.8198(3)
Gd2 Gd 0.651762(18) 0.26371(3) 0.493418(18)
C32 C 0.7568(4) 0.3197(6) 0.5799(4)
C33 C 0.7445(4) 0.3515(7) 0.6317(4)
C34 C 0.7799(4) 0.3387(7) 0.6748(4)
H15 H 0.8122 0.3114 0.6711
C35 C 0.7678(4) 0.3659(7) 0.7227(4)
C36 C 0.7220(4) 0.4124(7) 0.7315(4)
C37 C 0.6879(4) 0.4249(7) 0.6875(4)
C38 C 0.6961(4) 0.3943(7) 0.6384(4)
H16 H 0.6706 0.4018 0.6111
C39 C 0.7082(4) 0.4413(7) 0.7844(4)
C40 C 0.7262(4) 0.5245(8) 0.8054(4)
C41 C 0.7127(4) 0.5558(8) 0.8512(4)
H17 H 0.7246 0.6116 0.8629
C42 C 0.6818(4) 0.5061(7) 0.8802(4)
C43 C 0.6629(4) 0.4233(7) 0.8614(4)
H18 H 0.6411 0.3890 0.8804
C44 C 0.6768(4) 0.3932(7) 0.8145(4)
C45 C 0.6653(4) 0.5384(7) 0.9321(4)
C46 C 0.5830(8) 0.343(2) 0.3205(10)
H19 H 0.5697 0.3624 0.2868
H20 H 0.5882 0.2796 0.3204
H21 H 0.6159 0.3724 0.3300
C47 C 0.5032(9) 0.4185(17) 0.3380(10)
H22 H 0.5018 0.4257 0.3014
H23 H 0.5065 0.4761 0.3541
H24 H 0.4715 0.3901 0.3471
C48 C 0.5555(5) 0.3438(10) 0.4028(5)
N10 N 0.6373(4) 0.4720(7) 0.6918(4)
N11 N 0.8073(4) 0.3449(6) 0.7653(3)
N12 N 0.7602(4) 0.5818(8) 0.7759(4)
N13 N 0.6568(4) 0.3011(9) 0.7992(6)
N14 N 0.5477(4) 0.3646(7) 0.3549(4)
O29 O 0.7222(3) 0.3201(4) 0.5445(3)
O30 O 0.8042(3) 0.2919(5) 0.5763(3)
O31 O 0.6064(4) 0.3943(5) 0.5228(3)
O32 O 0.5990(3) 0.4471(6) 0.6630(3)
O33 O 0.5886(4) 0.1476(8) 0.4810(6)
O34 O 0.6367(3) 0.5336(6) 0.7219(3)
O35 O 0.7000(3) 0.1312(4) 0.5274(3)
O36 O 0.8514(3) 0.3207(6) 0.7561(3)
O37 O 0.7935(3) 0.3454(7) 0.8099(3)
O38 O 0.6537(4) 0.2875(9) 0.7533(5)
O39 O 0.6437(5) 0.2508(6) 0.8318(5)
O40 O 0.7954(3) 0.5462(7) 0.7555(4)
O41 O 0.7487(4) 0.6624(7) 0.7745(3)
O42 O 0.6313(4) 0.4923(5) 0.9514(3)
O43 O 0.6857(3) 0.6088(5) 0.9494(3)
O44 O 0.5910(4) 0.3005(7) 0.4203(5)
Gd3 Gd 0.651762(18) 0.73629(3) 0.993418(18)
Gd4 Gd 0.348238(18) 0.73629(3) 0.506582(18)
Gd5 Gd 0.151762(18) 0.23629(3) 0.993418(18)
Gd6 Gd 0.848238(18) 0.23629(3) 0.506582(18)
O46 O 0.6958(3) 0.2081(5) 0.4237(3)
O47 O 0.6857(3) 0.3912(5) 0.4494(3)
H26 H 0.433216 0.145556 0.989279
H32 H 0.527317 0.367983 0.428688
H36 H 0.392982 0.442577 0.00321156
C40_2 C 0.2262(4) 0.0245(8) 0.8054(4)
C41_2 C 0.2127(4) 0.0558(8) 0.8512(4)
H17_2 H 0.2246 0.1116 0.8629
C42_2 C 0.1818(4) 0.0061(7) 0.8802(4)
C45_2 C 0.1653(4) 0.0384(7) 0.9321(4)
N12_2 N 0.2602(4) 0.0818(8) 0.7759(4)
O34_2 O 0.1367(3) 0.0336(6) 0.7219(3)
O40_2 O 0.2954(3) 0.0462(7) 0.7555(4)
O41_2 O 0.2487(4) 0.1624(7) 0.7745(3)
O43_2 O 0.1857(3) 0.1088(5) 0.9494(3)
N5_2 N 0.0248(3) 0.8286(6) 0.8228(4)
O18_2 O 0.0342(3) 0.8569(7) 0.8652(3)
O19_2 O 0.0484(3) 0.8526(5) 0.7859(3)
C25_2 C 0.1309(4) 0.6825(7) 0.6126(4)
C26_2 C 0.0922(4) 0.6913(6) 0.6541(3)
C27_2 C 0.0958(4) 0.6361(6) 0.6957(4)
H13_2 H 0.1220 0.5927 0.6990
C28_2 C 0.0607(4) 0.6442(6) 0.7332(4)
C29_2 C 0.0199(3) 0.7065(7) 0.7304(4)
C30_2 C 0.0175(4) 0.7627(6) 0.6869(4)
C31_2 C 0.0530(4) 0.7555(6) 0.6493(4)
H14_2 H 0.0503 0.7937 0.6211
N9_2 N 0.0683(3) 0.5849(6) 0.7780(4)
O23_2 O 0.1218(3) 0.7304(5) 0.5740(3)
O24_2 O 0.1679(3) 0.6298(5) 0.6210(3)
O27_2 O 0.0879(4) 0.5121(6) 0.7702(3)
O28_2 O 0.0569(3) 0.6116(5) 0.8198(3)
Gd2_2 Gd 0.151762(18) 0.76371(3) 0.493418(18)
C32_2 C 0.2568(4) 0.8197(6) 0.5799(4)
C33_2 C 0.2445(4) 0.8515(7) 0.6317(4)
C34_2 C 0.2799(4) 0.8387(7) 0.6748(4)
H15_2 H 0.3122 0.8114 0.6711
C35_2 C 0.2678(4) 0.8659(7) 0.7227(4)
C36_2 C 0.2220(4) 0.9124(7) 0.7315(4)
C37_2 C 0.1879(4) 0.9249(7) 0.6875(4)
C38_2 C 0.1961(4) 0.8943(7) 0.6384(4)
H16_2 H 0.1706 0.9018 0.6111
C39_2 C 0.2082(4) 0.9413(7) 0.7844(4)
C43_2 C 0.1629(4) 0.9233(7) 0.8614(4)
H18_2 H 0.1411 0.8890 0.8804
C44_2 C 0.1768(4) 0.8932(7) 0.8145(4)
C46_2 C 0.0830(8) 0.843(2) 0.3205(10)
H19_2 H 0.0697 0.8624 0.2868
H20_2 H 0.0882 0.7796 0.3204
H21_2 H 0.1159 0.8724 0.3300
C47_2 C 0.0032(9) 0.9185(17) 0.3380(10)
H22_2 H 0.0018 0.9257 0.3014
H23_2 H 0.0065 0.9761 0.3541
C48_2 C 0.0555(5) 0.8438(10) 0.4028(5)
N10_2 N 0.1373(4) 0.9720(7) 0.6918(4)
N11_2 N 0.3073(4) 0.8449(6) 0.7653(3)
N13_2 N 0.1568(4) 0.8011(9) 0.7992(6)
N14_2 N 0.0477(4) 0.8646(7) 0.3549(4)
O29_2 O 0.2222(3) 0.8201(4) 0.5445(3)
O30_2 O 0.3042(3) 0.7919(5) 0.5763(3)
O31_2 O 0.1064(4) 0.8943(5) 0.5228(3)
O32_2 O 0.0990(3) 0.9471(6) 0.6630(3)
O33_2 O 0.0886(4) 0.6476(8) 0.4810(6)
O35_2 O 0.2000(3) 0.6312(4) 0.5274(3)
O36_2 O 0.3514(3) 0.8207(6) 0.7561(3)
O37_2 O 0.2935(3) 0.8454(7) 0.8099(3)
O38_2 O 0.1537(4) 0.7875(9) 0.7533(5)
O39_2 O 0.1437(5) 0.7508(6) 0.8318(5)
O42_2 O 0.1313(4) 0.9923(5) 0.9514(3)
O44_2 O 0.0910(4) 0.8005(7) 0.4203(5)
O46_2 O 0.1958(3) 0.7081(5) 0.4237(3)
O47_2 O 0.1857(3) 0.8912(5) 0.4494(3)
H32_2 H 0.0273175 0.867983 0.428688
C9_2 C 0.7738(4) 0.0245(8) 0.6946(4)
C10_2 C 0.7873(4) 0.0558(8) 0.6488(4)
H3_2 H 0.7754 0.1116 0.6371
C11_2 C 0.8182(4) 0.0061(7) 0.6198(4)
C14_2 C 0.8347(4) 0.0384(7) 0.5679(4)
N3_2 N 0.7398(4) 0.0818(8) 0.7241(4)
O6_2 O 0.8633(3) 0.0336(6) 0.7781(3)
O12_2 O 0.7046(3) 0.0462(7) 0.7445(4)
O13_2 O 0.7513(4) 0.1624(7) 0.7255(3)
O15_2 O 0.8143(3) 0.1088(5) 0.5506(3)
Gd1_2 Gd 0.848238(18) 0.76371(3) 0.006582(18)
C22_2 C 0.9170(8) 0.843(2) 0.1795(10)
H7_2 H 0.9303 0.8624 0.2132
H8_2 H 0.9118 0.7796 0.1796
H9_2 H 0.8841 0.8724 0.1700
C23_2 C 0.9968(9) 0.9185(17) 0.1620(10)
H10_2 H 0.9982 0.9257 0.1986
H11_2 H 0.9935 0.9761 0.1459
C24_2 C 0.9445(5) 0.8438(10) 0.0972(5)
N7_2 N 0.9523(4) 0.8646(7) 0.1451(4)
O5_2 O 0.9114(4) 0.6476(8) 0.0190(6)
O22_2 O 0.9090(4) 0.8005(7) 0.0797(5)
O45_2 O 0.8042(3) 0.7081(5) 0.0763(3)
O48_2 O 0.8143(3) 0.8912(5) 0.0506(3)
H25_2 H 0.972683 0.867983 0.071312
C1_2 C 0.7432(4) 0.8197(6) 0.9201(4)
C2_2 C 0.7555(4) 0.8515(7) 0.8683(4)
C3_2 C 0.7201(4) 0.8387(7) 0.8252(4)
H1_2 H 0.6878 0.8114 0.8289
C4_2 C 0.7322(4) 0.8659(7) 0.7773(4)
C5_2 C 0.7780(4) 0.9124(7) 0.7685(4)
C6_2 C 0.8121(4) 0.9249(7) 0.8125(4)
C7_2 C 0.8039(4) 0.8943(7) 0.8616(4)
H2_2 H 0.8294 0.9018 0.8889
C8_2 C 0.7918(4) 0.9413(7) 0.7156(4)
C12_2 C 0.8371(4) 0.9233(7) 0.6386(4)
H4_2 H 0.8589 0.8890 0.6196
C13_2 C 0.8232(4) 0.8932(7) 0.6855(4)
C15_2 C 0.8691(4) 0.6825(7) 0.8874(4)
C16_2 C 0.9078(4) 0.6913(6) 0.8459(3)
C17_2 C 0.9042(4) 0.6361(6) 0.8043(4)
H5_2 H 0.8780 0.5927 0.8010
C18_2 C 0.9393(4) 0.6442(6) 0.7668(4)
C19_2 C 0.9801(3) 0.7065(7) 0.7696(4)
C20_2 C 0.9825(4) 0.7627(6) 0.8131(4)
C21_2 C 0.9470(4) 0.7555(6) 0.8507(4)
H6_2 H 0.9497 0.7937 0.8789
N1_2 N 0.8627(4) 0.9720(7) 0.8082(4)
N2_2 N 0.6927(4) 0.8449(6) 0.7347(3)
N4_2 N 0.8432(4) 0.8011(9) 0.7008(6)
N6_2 N 0.9317(3) 0.5849(6) 0.7220(4)
O1_2 O 0.7778(3) 0.8201(4) 0.9555(3)
O2_2 O 0.6958(3) 0.7919(5) 0.9237(3)
O3_2 O 0.8936(4) 0.8943(5) 0.9772(3)
O4_2 O 0.9010(3) 0.9471(6) 0.8370(3)
O7_2 O 0.8000(3) 0.6312(4) 0.9726(3)
O8_2 O 0.6486(3) 0.8207(6) 0.7439(3)
O9_2 O 0.7065(3) 0.8454(7) 0.6901(3)
O10_2 O 0.8463(4) 0.7875(9) 0.7467(5)
O11_2 O 0.8563(5) 0.7508(6) 0.6682(5)
O14_2 O 0.8687(4) 0.9923(5) 0.5486(3)
O16_2 O 0.8782(3) 0.7304(5) 0.9260(3)
O17_2 O 0.8321(3) 0.6298(5) 0.8790(3)
O20_2 O 0.9121(4) 0.5121(6) 0.7298(3)
O21_2 O 0.9431(3) 0.6116(5) 0.6802(3)
N8_2 N 0.9752(3) 0.8286(6) 0.6772(4)
O25_2 O 0.9658(3) 0.8569(7) 0.6348(3)
O26_2 O 0.9516(3) 0.8526(5) 0.7141(3)
H24_2 H 0.9715 0.8901 0.3471
H26_2 H 0.933216 0.645556 0.989279
H36_2 H 0.892982 0.942577 0.00321156
C1_3 C 0.7568(4) 0.6803(6) 0.0799(4)
C2_3 C 0.7445(4) 0.6485(7) 0.1317(4)
C3_3 C 0.7799(4) 0.6613(7) 0.1748(4)
H1_3 H 0.8122 0.6886 0.1711
C4_3 C 0.7678(4) 0.6341(7) 0.2227(4)
C5_3 C 0.7220(4) 0.5876(7) 0.2315(4)
C6_3 C 0.6879(4) 0.5751(7) 0.1875(4)
C7_3 C 0.6961(4) 0.6057(7) 0.1384(4)
H2_3 H 0.6706 0.5982 0.1111
C8_3 C 0.7082(4) 0.5587(7) 0.2844(4)
C9_3 C 0.7262(4) 0.4755(8) 0.3054(4)
C10_3 C 0.7127(4) 0.4442(8) 0.3512(4)
H3_3 H 0.7246 0.3884 0.3629
C11_3 C 0.6818(4) 0.4939(7) 0.3802(4)
C12_3 C 0.6629(4) 0.5767(7) 0.3614(4)
H4_3 H 0.6411 0.6110 0.3804
C13_3 C 0.6768(4) 0.6068(7) 0.3145(4)
C14_3 C 0.6653(4) 0.4616(7) 0.4321(4)
C15_3 C 0.6309(4) 0.8175(7) 0.1126(4)
C16_3 C 0.5922(4) 0.8087(6) 0.1541(3)
C17_3 C 0.5958(4) 0.8639(6) 0.1957(4)
H5_3 H 0.6220 0.9073 0.1990
C18_3 C 0.5607(4) 0.8558(6) 0.2332(4)
C19_3 C 0.5199(3) 0.7935(7) 0.2304(4)
C20_3 C 0.5175(4) 0.7373(6) 0.1869(4)
C21_3 C 0.5530(4) 0.7445(6) 0.1493(4)
H6_3 H 0.5503 0.7063 0.1211
N1_3 N 0.6373(4) 0.5280(7) 0.1918(4)
N2_3 N 0.8073(4) 0.6551(6) 0.2653(3)
N3_3 N 0.7602(4) 0.4182(8) 0.2759(4)
N4_3 N 0.6568(4) 0.6989(9) 0.2992(6)
N5_3 N 0.4752(3) 0.6714(6) 0.1772(4)
N6_3 N 0.5683(3) 0.9151(6) 0.2780(4)
O1_3 O 0.7222(3) 0.6799(4) 0.0445(3)
O3_3 O 0.6064(4) 0.6057(5) 0.0228(3)
O4_3 O 0.5990(3) 0.5529(6) 0.1630(3)
O6_3 O 0.6367(3) 0.4664(6) 0.2219(3)
O7_3 O 0.7000(3) 0.8688(4) 0.0274(3)
O8_3 O 0.8514(3) 0.6793(6) 0.2561(3)
O9_3 O 0.7935(3) 0.6546(7) 0.3099(3)
O10_3 O 0.6537(4) 0.7125(9) 0.2533(5)
O11_3 O 0.6437(5) 0.7492(6) 0.3318(5)
O12_3 O 0.7954(3) 0.4538(7) 0.2555(4)
O13_3 O 0.7487(4) 0.3376(7) 0.2745(3)
O14_3 O 0.6313(4) 0.5077(5) 0.4514(3)
O16_3 O 0.6218(3) 0.7696(5) 0.0740(3)
O17_3 O 0.6679(3) 0.8702(5) 0.1210(3)
O18_3 O 0.4658(3) 0.6431(7) 0.1348(3)
O19_3 O 0.4516(3) 0.6474(5) 0.2141(3)
O20_3 O 0.5879(4) 0.9879(6) 0.2702(3)
O21_3 O 0.5569(3) 0.8884(5) 0.3198(3)
C25_3 C 0.3691(4) 0.8175(7) 0.3874(4)
C26_3 C 0.4078(4) 0.8087(6) 0.3459(3)
C27_3 C 0.4042(4) 0.8639(6) 0.3043(4)
H13_3 H 0.3780 0.9073 0.3010
C28_3 C 0.4393(4) 0.8558(6) 0.2668(4)
C29_3 C 0.4801(3) 0.7935(7) 0.2696(4)
C30_3 C 0.4825(4) 0.7373(6) 0.3131(4)
C31_3 C 0.4470(4) 0.7445(6) 0.3507(4)
H14_3 H 0.4497 0.7063 0.3789
N8_3 N 0.5248(3) 0.6714(6) 0.3228(4)
N9_3 N 0.4317(3) 0.9151(6) 0.2220(4)
O23_3 O 0.3782(3) 0.7696(5) 0.4260(3)
O24_3 O 0.3321(3) 0.8702(5) 0.3790(3)
O25_3 O 0.5342(3) 0.6431(7) 0.3652(3)
O26_3 O 0.5484(3) 0.6474(5) 0.2859(3)
O27_3 O 0.4121(4) 0.9879(6) 0.2298(3)
O28_3 O 0.4431(3) 0.8884(5) 0.1802(3)
C32_3 C 0.2432(4) 0.6803(6) 0.4201(4)
C33_3 C 0.2555(4) 0.6485(7) 0.3683(4)
C34_3 C 0.2201(4) 0.6613(7) 0.3252(4)
H15_3 H 0.1878 0.6886 0.3289
C35_3 C 0.2322(4) 0.6341(7) 0.2773(4)
C36_3 C 0.2780(4) 0.5876(7) 0.2685(4)
C37_3 C 0.3121(4) 0.5751(7) 0.3125(4)
C38_3 C 0.3039(4) 0.6057(7) 0.3616(4)
H16_3 H 0.3294 0.5982 0.3889
C39_3 C 0.2918(4) 0.5587(7) 0.2156(4)
C40_3 C 0.2738(4) 0.4755(8) 0.1946(4)
C41_3 C 0.2873(4) 0.4442(8) 0.1488(4)
H17_3 H 0.2754 0.3884 0.1371
C42_3 C 0.3182(4) 0.4939(7) 0.1198(4)
C43_3 C 0.3371(4) 0.5767(7) 0.1386(4)
H18_3 H 0.3589 0.6110 0.1196
C44_3 C 0.3232(4) 0.6068(7) 0.1855(4)
C45_3 C 0.3347(4) 0.4616(7) 0.0679(4)
C46_3 C 0.4170(8) 0.657(2) 0.6795(10)
H19_3 H 0.4303 0.6376 0.7132
H20_3 H 0.4118 0.7204 0.6796
H21_3 H 0.3841 0.6276 0.6700
C47_3 C 0.4968(9) 0.5815(17) 0.6620(10)
H22_3 H 0.4982 0.5743 0.6986
H23_3 H 0.4935 0.5239 0.6459
H24_3 H 0.5285 0.6099 0.6529
C48_3 C 0.4445(5) 0.6562(10) 0.5972(5)
N10_3 N 0.3627(4) 0.5280(7) 0.3082(4)
N11_3 N 0.1927(4) 0.6551(6) 0.2347(3)
N12_3 N 0.2398(4) 0.4182(8) 0.2241(4)
N13_3 N 0.3432(4) 0.6989(9) 0.2008(6)
N14_3 N 0.4523(4) 0.6354(7) 0.6451(4)
O29_3 O 0.2778(3) 0.6799(4) 0.4555(3)
O31_3 O 0.3936(4) 0.6057(5) 0.4772(3)
O32_3 O 0.4010(3) 0.5529(6) 0.3370(3)
O33_3 O 0.4114(4) 0.8524(8) 0.5190(6)
O34_3 O 0.3633(3) 0.4664(6) 0.2781(3)
O35_3 O 0.3000(3) 0.8688(4) 0.4726(3)
O36_3 O 0.1486(3) 0.6793(6) 0.2439(3)
O37_3 O 0.2065(3) 0.6546(7) 0.1901(3)
O38_3 O 0.3463(4) 0.7125(9) 0.2467(5)
O39_3 O 0.3563(5) 0.7492(6) 0.1682(5)
O40_3 O 0.2046(3) 0.4538(7) 0.2445(4)
O41_3 O 0.2513(4) 0.3376(7) 0.2255(3)
O42_3 O 0.3687(4) 0.5077(5) 0.0486(3)
O44_3 O 0.4090(4) 0.6995(7) 0.5797(5)
H26_3 H 0.566784 0.854444 0.0107211
H32_3 H 0.472683 0.632017 0.571312
C22_3 C 0.5830(8) 0.657(2) 0.8205(10)
H7_3 H 0.5697 0.6376 0.7868
H8_3 H 0.5882 0.7204 0.8204
H9_3 H 0.6159 0.6276 0.8300
C23_3 C 0.5032(9) 0.5815(17) 0.8380(10)
H10_3 H 0.5018 0.5743 0.8014
H11_3 H 0.5065 0.5239 0.8541
H12_2 H 0.4715 0.6099 0.8471
C24_3 C 0.5555(5) 0.6562(10) 0.9028(5)
N7_3 N 0.5477(4) 0.6354(7) 0.8549(4)
O5_3 O 0.5886(4) 0.8524(8) 0.9810(6)
O22_3 O 0.5910(4) 0.6995(7) 0.9203(5)
H25_3 H 0.527317 0.632017 0.928688
H36_3 H 0.607018 0.557423 0.996788
C1_4 C 0.2568(4) 0.1803(6) 0.0799(4)
C2_4 C 0.2445(4) 0.1485(7) 0.1317(4)
C3_4 C 0.2799(4) 0.1613(7) 0.1748(4)
H1_4 H 0.3122 0.1886 0.1711
C4_4 C 0.2678(4) 0.1341(7) 0.2227(4)
C5_4 C 0.2220(4) 0.0876(7) 0.2315(4)
C6_4 C 0.1879(4) 0.0751(7) 0.1875(4)
C7_4 C 0.1961(4) 0.1057(7) 0.1384(4)
H2_4 H 0.1706 0.0982 0.1111
C8_4 C 0.2082(4) 0.0587(7) 0.2844(4)
C12_4 C 0.1629(4) 0.0767(7) 0.3614(4)
H4_4 H 0.1411 0.1110 0.3804
C13_4 C 0.1768(4) 0.1068(7) 0.3145(4)
C15_4 C 0.1309(4) 0.3175(7) 0.1126(4)
C16_4 C 0.0922(4) 0.3087(6) 0.1541(3)
C17_4 C 0.0958(4) 0.3639(6) 0.1957(4)
H5_4 H 0.1220 0.4073 0.1990
C18_4 C 0.0607(4) 0.3558(6) 0.2332(4)
C19_4 C 0.0199(3) 0.2935(7) 0.2304(4)
C20_4 C 0.0175(4) 0.2373(6) 0.1869(4)
C21_4 C 0.0530(4) 0.2445(6) 0.1493(4)
H6_4 H 0.0503 0.2063 0.1211
N1_4 N 0.1373(4) 0.0280(7) 0.1918(4)
N2_4 N 0.3073(4) 0.1551(6) 0.2653(3)
N4_4 N 0.1568(4) 0.1989(9) 0.2992(6)
N6_4 N 0.0683(3) 0.4151(6) 0.2780(4)
O1_4 O 0.2222(3) 0.1799(4) 0.0445(3)
O3_4 O 0.1064(4) 0.1057(5) 0.0228(3)
O4_4 O 0.0990(3) 0.0529(6) 0.1630(3)
O7_4 O 0.2000(3) 0.3688(4) 0.0274(3)
O8_4 O 0.3514(3) 0.1793(6) 0.2561(3)
O9_4 O 0.2935(3) 0.1546(7) 0.3099(3)
O10_4 O 0.1537(4) 0.2125(9) 0.2533(5)
O11_4 O 0.1437(5) 0.2492(6) 0.3318(5)
O14_4 O 0.1313(4) 0.0077(5) 0.4514(3)
O16_4 O 0.1218(3) 0.2696(5) 0.0740(3)
O17_4 O 0.1679(3) 0.3702(5) 0.1210(3)
O20_4 O 0.0879(4) 0.4879(6) 0.2702(3)
O21_4 O 0.0569(3) 0.3884(5) 0.3198(3)
N8_4 N 0.0248(3) 0.1714(6) 0.3228(4)
O25_4 O 0.0342(3) 0.1431(7) 0.3652(3)
O26_4 O 0.0484(3) 0.1474(5) 0.2859(3)
H24_4 H 0.0285 0.1099 0.6529
H26_4 H 0.0667838 0.354444 0.0107211
C22_4 C 0.0830(8) 0.157(2) 0.8205(10)
H7_4 H 0.0697 0.1376 0.7868
H8_4 H 0.0882 0.2204 0.8204
H9_4 H 0.1159 0.1276 0.8300
C23_4 C 0.0032(9) 0.0815(17) 0.8380(10)
H10_4 H 0.0018 0.0743 0.8014
H11_4 H 0.0065 0.0239 0.8541
C24_4 C 0.0555(5) 0.1562(10) 0.9028(5)
N7_4 N 0.0477(4) 0.1354(7) 0.8549(4)
O5_4 O 0.0886(4) 0.3524(8) 0.9810(6)
O22_4 O 0.0910(4) 0.1995(7) 0.9203(5)
H25_4 H 0.0273175 0.132017 0.928688
C9_4 C 0.2262(4) 0.9755(8) 0.3054(4)
C10_4 C 0.2127(4) 0.9442(8) 0.3512(4)
H3_4 H 0.2246 0.8884 0.3629
C11_4 C 0.1818(4) 0.9939(7) 0.3802(4)
C14_4 C 0.1653(4) 0.9616(7) 0.4321(4)
N3_4 N 0.2602(4) 0.9182(8) 0.2759(4)
O6_4 O 0.1367(3) 0.9664(6) 0.2219(3)
O12_4 O 0.2954(3) 0.9538(7) 0.2555(4)
O13_4 O 0.2487(4) 0.8376(7) 0.2745(3)
N5_4 N 0.9752(3) 0.1714(6) 0.1772(4)
O18_4 O 0.9658(3) 0.1431(7) 0.1348(3)
O19_4 O 0.9516(3) 0.1474(5) 0.2141(3)
C25_4 C 0.8691(4) 0.3175(7) 0.3874(4)
C26_4 C 0.9078(4) 0.3087(6) 0.3459(3)
C27_4 C 0.9042(4) 0.3639(6) 0.3043(4)
H13_4 H 0.8780 0.4073 0.3010
C28_4 C 0.9393(4) 0.3558(6) 0.2668(4)
C29_4 C 0.9801(3) 0.2935(7) 0.2696(4)
C30_4 C 0.9825(4) 0.2373(6) 0.3131(4)
C31_4 C 0.9470(4) 0.2445(6) 0.3507(4)
H14_4 H 0.9497 0.2063 0.3789
N9_4 N 0.9317(3) 0.4151(6) 0.2220(4)
O23_4 O 0.8782(3) 0.2696(5) 0.4260(3)
O24_4 O 0.8321(3) 0.3702(5) 0.3790(3)
O27_4 O 0.9121(4) 0.4879(6) 0.2298(3)
O28_4 O 0.9431(3) 0.3884(5) 0.1802(3)
C32_4 C 0.7432(4) 0.1803(6) 0.4201(4)
C33_4 C 0.7555(4) 0.1485(7) 0.3683(4)
C34_4 C 0.7201(4) 0.1613(7) 0.3252(4)
H15_4 H 0.6878 0.1886 0.3289
C35_4 C 0.7322(4) 0.1341(7) 0.2773(4)
C36_4 C 0.7780(4) 0.0876(7) 0.2685(4)
C37_4 C 0.8121(4) 0.0751(7) 0.3125(4)
C38_4 C 0.8039(4) 0.1057(7) 0.3616(4)
H16_4 H 0.8294 0.0982 0.3889
C39_4 C 0.7918(4) 0.0587(7) 0.2156(4)
C43_4 C 0.8371(4) 0.0767(7) 0.1386(4)
H18_4 H 0.8589 0.1110 0.1196
C44_4 C 0.8232(4) 0.1068(7) 0.1855(4)
C46_4 C 0.9170(8) 0.157(2) 0.6795(10)
H19_4 H 0.9303 0.1376 0.7132
H20_4 H 0.9118 0.2204 0.6796
H21_4 H 0.8841 0.1276 0.6700
C47_4 C 0.9968(9) 0.0815(17) 0.6620(10)
H22_4 H 0.9982 0.0743 0.6986
H23_4 H 0.9935 0.0239 0.6459
C48_4 C 0.9445(5) 0.1562(10) 0.5972(5)
N10_4 N 0.8627(4) 0.0280(7) 0.3082(4)
N11_4 N 0.6927(4) 0.1551(6) 0.2347(3)
N13_4 N 0.8432(4) 0.1989(9) 0.2008(6)
N14_4 N 0.9523(4) 0.1354(7) 0.6451(4)
O29_4 O 0.7778(3) 0.1799(4) 0.4555(3)
O31_4 O 0.8936(4) 0.1057(5) 0.4772(3)
O32_4 O 0.9010(3) 0.0529(6) 0.3370(3)
O33_4 O 0.9114(4) 0.3524(8) 0.5190(6)
O35_4 O 0.8000(3) 0.3688(4) 0.4726(3)
O36_4 O 0.6486(3) 0.1793(6) 0.2439(3)
O37_4 O 0.7065(3) 0.1546(7) 0.1901(3)
O38_4 O 0.8463(4) 0.2125(9) 0.2467(5)
O39_4 O 0.8563(5) 0.2492(6) 0.1682(5)
O42_4 O 0.8687(4) 0.0077(5) 0.0486(3)
O44_4 O 0.9090(4) 0.1995(7) 0.5797(5)
H32_4 H 0.972683 0.132017 0.571312
C40_4 C 0.7738(4) 0.9755(8) 0.1946(4)
C41_4 C 0.7873(4) 0.9442(8) 0.1488(4)
H17_4 H 0.7754 0.8884 0.1371
C42_4 C 0.8182(4) 0.9939(7) 0.1198(4)
C45_4 C 0.8347(4) 0.9616(7) 0.0679(4)
N12_4 N 0.7398(4) 0.9182(8) 0.2241(4)
O34_4 O 0.8633(3) 0.9664(6) 0.2781(3)
O40_4 O 0.7046(3) 0.9538(7) 0.2445(4)
O41_4 O 0.7513(4) 0.8376(7) 0.2255(3)
H36_4 H 0.107018 0.0574232 0.996788
H12_3 H 0.0285 0.8901 0.1529
H12_4 H 0.9715 0.1099 0.8471
loop_
_geom_bond_atom_site_label_1
_geom_bond_atom_site_label_2
_geom_bond_site_symmetry_1
_geom_bond_site_symmetry_2
C22 H7 1_555 1_555
H8 C22 1_555 1_555
H9 C22 1_555 1_555
C23 H10 1_555 1_555
H11 C23 1_555 1_555
H12 C23 1_555 1_555
C24 N7 1_555 1_555
N7 C22 1_555 1_555
O5 Gd1 1_555 1_555
O22 Gd1 1_555 1_555
O45 Gd1 1_555 1_555
O48 Gd1 1_555 1_555
C23 N7 1_555 1_555
C24 O22 1_555 1_555
C24 H25 1_555 1_555
C1 C2 1_555 1_555
C2 C3 1_555 1_555
C3 H1 1_555 1_555
C4 C3 1_555 1_555
C5 C4 1_555 1_555
C6 C5 1_555 1_555
C7 C2 1_555 1_555
H2 C7 1_555 1_555
C8 C5 1_555 1_555
C9 C8 1_555 1_555
C10 C9 1_555 1_555
H3 C10 1_555 1_555
C11 C10 1_555 1_555
C12 C11 1_555 1_555
H4 C12 1_555 1_555
C13 C8 1_555 1_555
C14 C11 1_555 1_555
C15 C16 1_555 1_555
C16 C17 1_555 1_555
C17 H5 1_555 1_555
C18 C17 1_555 1_555
C19 C18 1_555 1_555
C20 C19 1_555 1_555
C21 C16 1_555 1_555
H6 C21 1_555 1_555
N1 C6 1_555 1_555
N2 C4 1_555 1_555
N3 C9 1_555 1_555
N4 C13 1_555 1_555
N5 C20 1_555 1_555
N6 C18 1_555 1_555
O1 C1 1_555 1_555
O2 C1 1_555 1_555
O4 N1 1_555 1_555
O6 N1 1_555 1_555
O8 N2 1_555 1_555
O9 N2 1_555 1_555
O10 N4 1_555 1_555
O11 N4 1_555 1_555
O12 N3 1_555 1_555
O13 N3 1_555 1_555
O14 C14 1_555 1_555
O15 C14 1_555 1_555
O17 C15 1_555 1_555
O18 N5 1_555 1_555
O19 N5 1_555 1_555
O20 N6 1_555 1_555
O21 N6 1_555 1_555
C25 C26 1_555 1_555
C26 C27 1_555 1_555
C27 H13 1_555 1_555
C28 C27 1_555 1_555
C29 C19 1_555 1_555
C30 C29 1_555 1_555
C31 C26 1_555 1_555
H14 C31 1_555 1_555
N8 C30 1_555 1_555
N9 C28 1_555 1_555
O23 C25 1_555 1_555
O24 C25 1_555 1_555
O25 N8 1_555 1_555
O26 N8 1_555 1_555
O27 N9 1_555 1_555
O28 N9 1_555 1_555
Gd2 O23 1_555 1_555
C32 C33 1_555 1_555
C33 C34 1_555 1_555
C34 H15 1_555 1_555
C35 C34 1_555 1_555
C36 C35 1_555 1_555
C37 C36 1_555 1_555
C38 C33 1_555 1_555
H16 C38 1_555 1_555
C39 C36 1_555 1_555
C40 C39 1_555 1_555
C41 C40 1_555 1_555
H17 C41 1_555 1_555
C42 C41 1_555 1_555
C43 C42 1_555 1_555
H18 C43 1_555 1_555
C44 C39 1_555 1_555
C45 C42 1_555 1_555
C46 H19 1_555 1_555
H20 C46 1_555 1_555
H21 C46 1_555 1_555
C47 H22 1_555 1_555
H23 C47 1_555 1_555
H24 C47 1_555 1_555
C48 N14 1_555 1_555
N10 C37 1_555 1_555
N11 C35 1_555 1_555
N12 C40 1_555 1_555
N13 C44 1_555 1_555
N14 C46 1_555 1_555
O29 Gd2 1_555 1_555
O30 C32 1_555 1_555
O31 Gd2 1_555 1_555
O32 N10 1_555 1_555
O33 Gd2 1_555 1_555
O34 N10 1_555 1_555
O35 Gd2 1_555 1_555
O36 N11 1_555 1_555
O37 N11 1_555 1_555
O38 N13 1_555 1_555
O39 N13 1_555 1_555
O40 N12 1_555 1_555
O41 N12 1_555 1_555
O42 C45 1_555 1_555
O43 C45 1_555 1_555
O44 Gd2 1_555 1_555
Gd3 O43 1_555 1_555
Gd4 O15 1_555 1_555
Gd5 O2 1_555 1_555
Gd6 O30 1_555 1_555
O46 Gd2 1_555 1_555
O47 Gd2 1_555 1_555
C6 C7 1_555 1_555
C12 C13 1_555 1_555
C15 O16 1_555 1_555
C20 C21 1_555 1_555
C28 C29 1_555 1_555
C30 C31 1_555 1_555
C32 O29 1_555 1_555
C37 C38 1_555 1_555
C43 C44 1_555 1_555
C47 N14 1_555 1_555
C48 O44 1_555 1_555
C48 H32 1_555 1_555
C41_2 C40_2 1_555 1_555
H17_2 C41_2 1_555 1_555
C42_2 C41_2 1_555 1_555
C45_2 C42_2 1_555 1_555
N12_2 C40_2 1_555 1_555
O40_2 N12_2 1_555 1_555
O41_2 N12_2 1_555 1_555
O43_2 C45_2 1_555 1_555
Gd5 O43_2 1_555 1_555
O18_2 N5_2 1_555 1_555
O19_2 N5_2 1_555 1_555
C25_2 C26_2 1_555 1_555
C26_2 C27_2 1_555 1_555
C27_2 H13_2 1_555 1_555
C28_2 C27_2 1_555 1_555
C30_2 C29_2 1_555 1_555
C31_2 C26_2 1_555 1_555
H14_2 C31_2 1_555 1_555
N9_2 C28_2 1_555 1_555
O23_2 C25_2 1_555 1_555
O24_2 C25_2 1_555 1_555
O27_2 N9_2 1_555 1_555
O28_2 N9_2 1_555 1_555
Gd2_2 O23_2 1_555 1_555
C32_2 C33_2 1_555 1_555
C33_2 C34_2 1_555 1_555
C34_2 H15_2 1_555 1_555
C35_2 C34_2 1_555 1_555
C36_2 C35_2 1_555 1_555
C37_2 C36_2 1_555 1_555
C38_2 C33_2 1_555 1_555
H16_2 C38_2 1_555 1_555
C39_2 C36_2 1_555 1_555
H18_2 C43_2 1_555 1_555
C44_2 C39_2 1_555 1_555
C46_2 H19_2 1_555 1_555
H20_2 C46_2 1_555 1_555
H21_2 C46_2 1_555 1_555
C47_2 H22_2 1_555 1_555
H23_2 C47_2 1_555 1_555
C48_2 N14_2 1_555 1_555
N10_2 C37_2 1_555 1_555
N11_2 C35_2 1_555 1_555
N13_2 C44_2 1_555 1_555
N14_2 C46_2 1_555 1_555
O29_2 Gd2_2 1_555 1_555
O30_2 C32_2 1_555 1_555
O31_2 Gd2_2 1_555 1_555
O32_2 N10_2 1_555 1_555
O33_2 Gd2_2 1_555 1_555
O35_2 Gd2_2 1_555 1_555
O36_2 N11_2 1_555 1_555
O37_2 N11_2 1_555 1_555
O38_2 N13_2 1_555 1_555
O39_2 N13_2 1_555 1_555
O44_2 Gd2_2 1_555 1_555
Gd4 O30_2 1_555 1_555
O46_2 Gd2_2 1_555 1_555
O47_2 Gd2_2 1_555 1_555
C28_2 C29_2 1_555 1_555
C30_2 C31_2 1_555 1_555
C32_2 O29_2 1_555 1_555
C37_2 C38_2 1_555 1_555
C43_2 C44_2 1_555 1_555
C47_2 N14_2 1_555 1_555
C48_2 O44_2 1_555 1_555
C48_2 H32_2 1_555 1_555
C10_2 C9_2 1_555 1_555
H3_2 C10_2 1_555 1_555
C11_2 C10_2 1_555 1_555
C14_2 C11_2 1_555 1_555
N3_2 C9_2 1_555 1_555
O12_2 N3_2 1_555 1_555
O13_2 N3_2 1_555 1_555
O15_2 C14_2 1_555 1_555
Gd6 O15_2 1_555 1_555
C22_2 H7_2 1_555 1_555
H8_2 C22_2 1_555 1_555
H9_2 C22_2 1_555 1_555
C23_2 H10_2 1_555 1_555
H11_2 C23_2 1_555 1_555
C24_2 N7_2 1_555 1_555
N7_2 C22_2 1_555 1_555
O5_2 Gd1_2 1_555 1_555
O22_2 Gd1_2 1_555 1_555
O45_2 Gd1_2 1_555 1_555
O48_2 Gd1_2 1_555 1_555
C23_2 N7_2 1_555 1_555
C24_2 O22_2 1_555 1_555
C24_2 H25_2 1_555 1_555
C1_2 C2_2 1_555 1_555
C2_2 C3_2 1_555 1_555
C3_2 H1_2 1_555 1_555
C4_2 C3_2 1_555 1_555
C5_2 C4_2 1_555 1_555
C6_2 C5_2 1_555 1_555
C7_2 C2_2 1_555 1_555
H2_2 C7_2 1_555 1_555
C8_2 C5_2 1_555 1_555
H4_2 C12_2 1_555 1_555
C13_2 C8_2 1_555 1_555
C15_2 C16_2 1_555 1_555
C16_2 C17_2 1_555 1_555
C17_2 H5_2 1_555 1_555
C18_2 C17_2 1_555 1_555
C19_2 C18_2 1_555 1_555
C20_2 C19_2 1_555 1_555
C21_2 C16_2 1_555 1_555
H6_2 C21_2 1_555 1_555
N1_2 C6_2 1_555 1_555
N2_2 C4_2 1_555 1_555
N4_2 C13_2 1_555 1_555
N6_2 C18_2 1_555 1_555
O1_2 C1_2 1_555 1_555
O2_2 C1_2 1_555 1_555
O4_2 N1_2 1_555 1_555
O8_2 N2_2 1_555 1_555
O9_2 N2_2 1_555 1_555
O10_2 N4_2 1_555 1_555
O11_2 N4_2 1_555 1_555
O17_2 C15_2 1_555 1_555
O20_2 N6_2 1_555 1_555
O21_2 N6_2 1_555 1_555
O25_2 N8_2 1_555 1_555
O26_2 N8_2 1_555 1_555
Gd3 O2_2 1_555 1_555
C6_2 C7_2 1_555 1_555
C12_2 C13_2 1_555 1_555
C15_2 O16_2 1_555 1_555
C20_2 C21_2 1_555 1_555
C1_3 C2_3 1_555 1_555
C2_3 C3_3 1_555 1_555
C3_3 H1_3 1_555 1_555
C4_3 C3_3 1_555 1_555
C5_3 C4_3 1_555 1_555
C6_3 C5_3 1_555 1_555
C7_3 C2_3 1_555 1_555
H2_3 C7_3 1_555 1_555
C8_3 C5_3 1_555 1_555
C9_3 C8_3 1_555 1_555
C10_3 C9_3 1_555 1_555
H3_3 C10_3 1_555 1_555
C11_3 C10_3 1_555 1_555
C12_3 C11_3 1_555 1_555
H4_3 C12_3 1_555 1_555
C13_3 C8_3 1_555 1_555
C14_3 C11_3 1_555 1_555
C15_3 C16_3 1_555 1_555
C16_3 C17_3 1_555 1_555
C17_3 H5_3 1_555 1_555
C18_3 C17_3 1_555 1_555
C19_3 C18_3 1_555 1_555
C20_3 C19_3 1_555 1_555
C21_3 C16_3 1_555 1_555
H6_3 C21_3 1_555 1_555
N1_3 C6_3 1_555 1_555
N2_3 C4_3 1_555 1_555
N3_3 C9_3 1_555 1_555
N4_3 C13_3 1_555 1_555
N5_3 C20_3 1_555 1_555
N6_3 C18_3 1_555 1_555
O1_3 C1_3 1_555 1_555
O45_2 C1_3 1_555 1_555
O4_3 N1_3 1_555 1_555
O6_3 N1_3 1_555 1_555
O8_3 N2_3 1_555 1_555
O9_3 N2_3 1_555 1_555
O10_3 N4_3 1_555 1_555
O11_3 N4_3 1_555 1_555
O12_3 N3_3 1_555 1_555
O13_3 N3_3 1_555 1_555
O14_3 C14_3 1_555 1_555
O47 C14_3 1_555 1_555
O17_3 C15_3 1_555 1_555
O18_3 N5_3 1_555 1_555
O19_3 N5_3 1_555 1_555
O20_3 N6_3 1_555 1_555
O21_3 N6_3 1_555 1_555
C25_3 C26_3 1_555 1_555
C26_3 C27_3 1_555 1_555
C27_3 H13_3 1_555 1_555
C28_3 C27_3 1_555 1_555
C29_3 C19_3 1_555 1_555
C30_3 C29_3 1_555 1_555
C31_3 C26_3 1_555 1_555
H14_3 C31_3 1_555 1_555
N8_3 C30_3 1_555 1_555
N9_3 C28_3 1_555 1_555
O23_3 C25_3 1_555 1_555
O24_3 C25_3 1_555 1_555
O25_3 N8_3 1_555 1_555
O26_3 N8_3 1_555 1_555
O27_3 N9_3 1_555 1_555
O28_3 N9_3 1_555 1_555
Gd4 O23_3 1_555 1_555
C32_3 C33_3 1_555 1_555
C33_3 C34_3 1_555 1_555
C34_3 H15_3 1_555 1_555
C35_3 C34_3 1_555 1_555
C36_3 C35_3 1_555 1_555
C37_3 C36_3 1_555 1_555
C38_3 C33_3 1_555 1_555
H16_3 C38_3 1_555 1_555
C39_3 C36_3 1_555 1_555
C40_3 C39_3 1_555 1_555
C41_3 C40_3 1_555 1_555
H17_3 C41_3 1_555 1_555
C42_3 C41_3 1_555 1_555
C43_3 C42_3 1_555 1_555
H18_3 C43_3 1_555 1_555
C44_3 C39_3 1_555 1_555
C45_3 C42_3 1_555 1_555
C46_3 H19_3 1_555 1_555
H20_3 C46_3 1_555 1_555
H21_3 C46_3 1_555 1_555
C47_3 H22_3 1_555 1_555
H23_3 C47_3 1_555 1_555
H24_3 C47_3 1_555 1_555
C48_3 N14_3 1_555 1_555
N10_3 C37_3 1_555 1_555
N11_3 C35_3 1_555 1_555
N12_3 C40_3 1_555 1_555
N13_3 C44_3 1_555 1_555
N14_3 C46_3 1_555 1_555
O29_3 Gd4 1_555 1_555
O46_2 C32_3 1_555 1_555
O31_3 Gd4 1_555 1_555
O32_3 N10_3 1_555 1_555
O33_3 Gd4 1_555 1_555
O34_3 N10_3 1_555 1_555
O35_3 Gd4 1_555 1_555
O36_3 N11_3 1_555 1_555
O37_3 N11_3 1_555 1_555
O38_3 N13_3 1_555 1_555
O39_3 N13_3 1_555 1_555
O40_3 N12_3 1_555 1_555
O41_3 N12_3 1_555 1_555
O42_3 C45_3 1_555 1_555
O48 C45_3 1_555 1_555
O44_3 Gd4 1_555 1_555
C6_3 C7_3 1_555 1_555
C12_3 C13_3 1_555 1_555
C15_3 O16_3 1_555 1_555
C20_3 C21_3 1_555 1_555
C28_3 C29_3 1_555 1_555
C30_3 C31_3 1_555 1_555
C32_3 O29_3 1_555 1_555
C37_3 C38_3 1_555 1_555
C43_3 C44_3 1_555 1_555
C47_3 N14_3 1_555 1_555
C48_3 O44_3 1_555 1_555
C48_3 H32_3 1_555 1_555
C22_3 H7_3 1_555 1_555
H8_3 C22_3 1_555 1_555
H9_3 C22_3 1_555 1_555
C23_3 H10_3 1_555 1_555
H11_3 C23_3 1_555 1_555
H12_2 C23_3 1_555 1_555
C24_3 N7_3 1_555 1_555
N7_3 C22_3 1_555 1_555
O5_3 Gd3 1_555 1_555
O22_3 Gd3 1_555 1_555
C23_3 N7_3 1_555 1_555
C24_3 O22_3 1_555 1_555
C24_3 H25_3 1_555 1_555
C1_4 C2_4 1_555 1_555
C2_4 C3_4 1_555 1_555
C3_4 H1_4 1_555 1_555
C4_4 C3_4 1_555 1_555
C5_4 C4_4 1_555 1_555
C6_4 C5_4 1_555 1_555
C7_4 C2_4 1_555 1_555
H2_4 C7_4 1_555 1_555
C8_4 C5_4 1_555 1_555
H4_4 C12_4 1_555 1_555
C13_4 C8_4 1_555 1_555
C15_4 C16_4 1_555 1_555
C16_4 C17_4 1_555 1_555
C17_4 H5_4 1_555 1_555
C18_4 C17_4 1_555 1_555
C19_4 C18_4 1_555 1_555
C20_4 C19_4 1_555 1_555
C21_4 C16_4 1_555 1_555
H6_4 C21_4 1_555 1_555
N1_4 C6_4 1_555 1_555
N2_4 C4_4 1_555 1_555
N4_4 C13_4 1_555 1_555
N6_4 C18_4 1_555 1_555
O1_4 C1_4 1_555 1_555
O45 C1_4 1_555 1_555
O4_4 N1_4 1_555 1_555
O8_4 N2_4 1_555 1_555
O9_4 N2_4 1_555 1_555
O10_4 N4_4 1_555 1_555
O11_4 N4_4 1_555 1_555
O17_4 C15_4 1_555 1_555
O20_4 N6_4 1_555 1_555
O21_4 N6_4 1_555 1_555
O25_4 N8_4 1_555 1_555
O26_4 N8_4 1_555 1_555
C6_4 C7_4 1_555 1_555
C12_4 C13_4 1_555 1_555
C15_4 O16_4 1_555 1_555
C20_4 C21_4 1_555 1_555
C22_4 H7_4 1_555 1_555
H8_4 C22_4 1_555 1_555
H9_4 C22_4 1_555 1_555
C23_4 H10_4 1_555 1_555
H11_4 C23_4 1_555 1_555
C24_4 N7_4 1_555 1_555
N7_4 C22_4 1_555 1_555
O5_4 Gd5 1_555 1_555
O22_4 Gd5 1_555 1_555
C23_4 N7_4 1_555 1_555
C24_4 O22_4 1_555 1_555
C24_4 H25_4 1_555 1_555
C10_4 C9_4 1_555 1_555
H3_4 C10_4 1_555 1_555
C11_4 C10_4 1_555 1_555
C14_4 C11_4 1_555 1_555
N3_4 C9_4 1_555 1_555
O12_4 N3_4 1_555 1_555
O13_4 N3_4 1_555 1_555
O47_2 C14_4 1_555 1_555
O18_4 N5_4 1_555 1_555
O19_4 N5_4 1_555 1_555
C25_4 C26_4 1_555 1_555
C26_4 C27_4 1_555 1_555
C27_4 H13_4 1_555 1_555
C28_4 C27_4 1_555 1_555
C30_4 C29_4 1_555 1_555
C31_4 C26_4 1_555 1_555
H14_4 C31_4 1_555 1_555
N9_4 C28_4 1_555 1_555
O23_4 C25_4 1_555 1_555
O24_4 C25_4 1_555 1_555
O27_4 N9_4 1_555 1_555
O28_4 N9_4 1_555 1_555
Gd6 O23_4 1_555 1_555
C32_4 C33_4 1_555 1_555
C33_4 C34_4 1_555 1_555
C34_4 H15_4 1_555 1_555
C35_4 C34_4 1_555 1_555
C36_4 C35_4 1_555 1_555
C37_4 C36_4 1_555 1_555
C38_4 C33_4 1_555 1_555
H16_4 C38_4 1_555 1_555
C39_4 C36_4 1_555 1_555
H18_4 C43_4 1_555 1_555
C44_4 C39_4 1_555 1_555
C46_4 H19_4 1_555 1_555
H20_4 C46_4 1_555 1_555
H21_4 C46_4 1_555 1_555
C47_4 H22_4 1_555 1_555
H23_4 C47_4 1_555 1_555
C48_4 N14_4 1_555 1_555
N10_4 C37_4 1_555 1_555
N11_4 C35_4 1_555 1_555
N13_4 C44_4 1_555 1_555
N14_4 C46_4 1_555 1_555
O29_4 Gd6 1_555 1_555
O46 C32_4 1_555 1_555
O31_4 Gd6 1_555 1_555
O32_4 N10_4 1_555 1_555
O33_4 Gd6 1_555 1_555
O35_4 Gd6 1_555 1_555
O36_4 N11_4 1_555 1_555
O37_4 N11_4 1_555 1_555
O38_4 N13_4 1_555 1_555
O39_4 N13_4 1_555 1_555
O44_4 Gd6 1_555 1_555
C28_4 C29_4 1_555 1_555
C30_4 C31_4 1_555 1_555
C32_4 O29_4 1_555 1_555
C37_4 C38_4 1_555 1_555
C43_4 C44_4 1_555 1_555
C47_4 N14_4 1_555 1_555
C48_4 O44_4 1_555 1_555
C48_4 H32_4 1_555 1_555
C41_4 C40_4 1_555 1_555
H17_4 C41_4 1_555 1_555
C42_4 C41_4 1_555 1_555
C45_4 C42_4 1_555 1_555
N12_4 C40_4 1_555 1_555
O40_4 N12_4 1_555 1_555
O41_4 N12_4 1_555 1_555
O48_2 C45_4 1_555 1_555

#END
