
###############################################################################
#
# This file contains modified crystal structure data generated from the
# MOF subset of the Cambridge Structural Database (CSD) v543 
# hosted by the Cambridge Crystallographic Data Centre (CCDC).
#
# This work is licensed under the Creative Commons
# Attribution-NonCommercial-ShareAlike 4.0 International License.
# To view a copy of this license, visit
# http://creativecommons.org/licenses/by-nc-sa/4.0/
# or send a letter to
# Creative Commons, PO Box 1866, Mountain View, CA 94042, USA.
#
# CIF created using the CSD Python API on 29 September 2022
# The structure has been converted into the P1 space group
# The structure has a 3D framework
# The original CSD entry YUDFIO is in the monoclinic crystal system
# The framework has been calculated to contain at least 10.0% void space
# The void calculation uses a probe of radius 1.32A, grid spacing 0.4
# H atom positions have been added when not included in the experimental data
# Generated hydrogen atom positions removed from atoms on special positions
#
###############################################################################

data_YUDFIO
_chemical_formula_moiety         '(C192 H200 Gd8 N56 O176)n'
_symmetry_cell_setting           triclinic
_symmetry_space_group_name_H-M   'P 1'
_symmetry_Int_Tables_number      1
_space_group_name_Hall           'P 1'
loop_
_symmetry_equiv_pos_site_id
_symmetry_equiv_pos_as_xyz
1 x,y,z
_cell_length_a                   25.179(5)
_cell_length_b                   14.747(5)
_cell_length_c                   26.053(5)
_cell_angle_alpha                90
_cell_angle_beta                 94.964(5)
_cell_angle_gamma                90
_cell_volume                     9637.58
loop_
_atom_site_label
_atom_site_type_symbol
_atom_site_fract_x
_atom_site_fract_y
_atom_site_fract_z
H9 H 0.0200 0.0915 0.1633
N6 N 0.0256(2) 0.1830(4) 0.8219(2)
O15 O 0.0361(2) 0.1562(5) 0.8657(2)
O16 O 0.0491(2) 0.1577(4) 0.78565(19)
C25 C 0.1331(3) 0.3256(5) 0.6143(2)
C26 C 0.0934(3) 0.3188(4) 0.6545(2)
C27 C 0.0525(3) 0.2566(4) 0.6493(3)
H14 H 0.0486 0.2190 0.6206
C28 C 0.0174(3) 0.2502(4) 0.6869(3)
C29 C 0.0203(3) 0.3040(4) 0.7304(2)
C30 C 0.0623(3) 0.3662(5) 0.7345(3)
C31 C 0.0989(3) 0.3729(5) 0.6970(3)
H15 H 0.1269 0.4142 0.7012
N8 N 0.0718(3) 0.4251(5) 0.7791(3)
O23 O 0.1206(2) 0.2815(4) 0.57329(19)
O24 O 0.1733(2) 0.3715(3) 0.62401(18)
O27 O 0.0969(4) 0.4919(6) 0.7751(3)
O28 O 0.0569(3) 0.3989(5) 0.8198(2)
Gd2 Gd 0.149750(14) 0.24571(2) 0.492922(11)
C32 C 0.1582(3) 0.0413(5) 0.4301(2)
C33 C 0.1759(3) 0.0075(5) 0.3795(2)
C34 C 0.2052(3) 0.0610(5) 0.3497(2)
H16 H 0.2159 0.1183 0.3613
C35 C 0.2189(3) 0.0306(5) 0.3024(2)
C45 C 0.0552(5) 0.1659(9) 0.4018(5)
H20 H 0.0327 0.1355 0.4225
C46 C 0.0160(6) 0.0768(10) 0.3304(5)
H21 H 0.0190 0.0739 0.2940
H23 H 0.0254 0.0191 0.3457
C47 C 0.0813(5) 0.1909(11) 0.3170(5)
H24 H 0.0725 0.1681 0.2828
H25 H 0.1185 0.1816 0.3266
H26 H 0.0734 0.2545 0.3179
N10 N 0.2486(3) 0.0913(5) 0.2719(2)
N14 N 0.0506(3) 0.1438(6) 0.3523(3)
O29 O 0.1785(2) 0.1140(4) 0.44669(17)
O31 O 0.1043(3) 0.3861(6) 0.4739(3)
O32 O 0.2350(3) 0.1704(5) 0.2704(2)
O33 O 0.2058(2) 0.3709(3) 0.52905(18)
O35 O 0.1014(2) 0.1159(4) 0.52295(18)
O39 O 0.1273(2) 0.0279(4) 0.2225(2)
O41 O 0.0849(3) 0.2204(6) 0.4232(3)
O44 O 0.2856(3) 0.0608(5) 0.2496(2)
O45 O 0.1993(2) 0.2962(4) 0.42488(17)
O47 O 0.21751(19) 0.1764(3) 0.54327(16)
C36 C 0.2048(3) 0.9444(5) 0.2827(2)
C37 C 0.1756(3) 0.8922(5) 0.3150(2)
C38 C 0.1612(3) 0.9209(5) 0.3619(2)
H17 H 0.1418 0.8830 0.3818
C39 C 0.2184(3) 0.9150(4) 0.2303(2)
C40 C 0.1821(3) 0.9236(4) 0.1871(2)
C41 C 0.1920(3) 0.8929(4) 0.1384(2)
H18 H 0.1661 0.8980 0.1109
C42 C 0.2412(3) 0.8548(4) 0.1315(2)
C43 C 0.2784(3) 0.8466(4) 0.1727(2)
H19 H 0.3118 0.8225 0.1681
C44 C 0.2665(3) 0.8743(5) 0.2213(2)
C48 C 0.2544(3) 0.8228(4) 0.0784(2)
N11 N 0.1602(3) 0.7989(4) 0.3001(2)
N12 N 0.1304(2) 0.9659(4) 0.1913(2)
N13 N 0.3069(3) 0.8550(5) 0.2638(2)
O30 O 0.1234(2) 0.9963(4) 0.44969(19)
O34 O 0.1576(3) 0.7787(5) 0.2547(2)
O36 O 0.1491(3) 0.7472(3) 0.3339(2)
O37 O 0.2936(3) 0.8584(7) 0.3078(2)
O38 O 0.3509(2) 0.8309(4) 0.25367(19)
O40 O 0.0924(2) 0.9383(4) 0.1636(2)
O42 O 0.3007(2) 0.7962(4) 0.07512(17)
O43 O 0.21751(19) 0.8236(3) 0.04327(16)
Gd3 Gd 0.350250(14) 0.74571(2) 0.007078(11)
Gd5 Gd 0.149750(14) 0.75429(2) 0.992922(11)
Gd1 Gd 0.850250(14) 0.24571(2) 0.007078(11)
C1 C 0.8418(3) 0.0413(5) 0.0699(2)
C2 C 0.8241(3) 0.0075(5) 0.1205(2)
C3 C 0.7948(3) 0.0610(5) 0.1503(2)
H1 H 0.7841 0.1183 0.1387
C4 C 0.7811(3) 0.0306(5) 0.1976(2)
C21 C 0.9448(5) 0.1659(9) 0.0982(5)
H7 H 0.9673 0.1355 0.0775
C22 C 0.9840(6) 0.0768(10) 0.1696(5)
H8 H 0.9810 0.0739 0.2060
H10 H 0.9746 0.0191 0.1543
C23 C 0.9187(5) 0.1909(11) 0.1830(5)
H11 H 0.9275 0.1681 0.2172
H12 H 0.8815 0.1816 0.1734
H13 H 0.9266 0.2545 0.1821
N1 N 0.7514(3) 0.0913(5) 0.2281(2)
N7 N 0.9494(3) 0.1438(6) 0.1477(3)
O1 O 0.8215(2) 0.1140(4) 0.05331(17)
O3 O 0.8957(3) 0.3861(6) 0.0261(3)
O4 O 0.7650(3) 0.1704(5) 0.2296(2)
O11 O 0.8727(2) 0.0279(4) 0.2775(2)
O19 O 0.9151(3) 0.2204(6) 0.0768(3)
O22 O 0.7144(3) 0.0608(5) 0.2504(2)
O46 O 0.8007(2) 0.2962(4) 0.07512(17)
C14 C 0.8669(3) 0.3256(5) 0.8857(2)
C15 C 0.9066(3) 0.3188(4) 0.8455(2)
C16 C 0.9475(3) 0.2566(4) 0.8507(3)
H5 H 0.9514 0.2190 0.8794
C17 C 0.9826(3) 0.2502(4) 0.8131(3)
C18 C 0.9797(3) 0.3040(4) 0.7696(2)
C19 C 0.9377(3) 0.3662(5) 0.7655(3)
C20 C 0.9011(3) 0.3729(5) 0.8030(3)
H6 H 0.8731 0.4142 0.7988
N5 N 0.9282(3) 0.4251(5) 0.7209(3)
O5 O 0.7942(2) 0.3709(3) 0.97095(18)
O7 O 0.8986(2) 0.1159(4) 0.97705(18)
O13 O 0.8794(2) 0.2815(4) 0.92671(19)
O14 O 0.8267(2) 0.3715(3) 0.87599(18)
O17 O 0.9031(4) 0.4919(6) 0.7249(3)
O18 O 0.9431(3) 0.3989(5) 0.6802(2)
N9 N 0.9744(2) 0.1830(4) 0.6781(2)
O25 O 0.9639(2) 0.1562(5) 0.6343(2)
O26 O 0.9509(2) 0.1577(4) 0.71435(19)
H22 H 0.9800 0.0915 0.3367
O48 O 0.78249(19) 0.1764(3) 0.95673(16)
H28 H 0.898735 0.420304 0.993653
C5 C 0.7952(3) 0.9444(5) 0.2173(2)
C6 C 0.8244(3) 0.8922(5) 0.1850(2)
C7 C 0.8388(3) 0.9209(5) 0.1381(2)
H2 H 0.8582 0.8830 0.1182
C8 C 0.7816(3) 0.9150(4) 0.2697(2)
C9 C 0.8179(3) 0.9236(4) 0.3129(2)
C10 C 0.8080(3) 0.8929(4) 0.3616(2)
H3 H 0.8339 0.8980 0.3891
C11 C 0.7588(3) 0.8548(4) 0.3685(2)
C12 C 0.7216(3) 0.8466(4) 0.3273(2)
H4 H 0.6882 0.8225 0.3319
C13 C 0.7335(3) 0.8743(5) 0.2787(2)
C24 C 0.7456(3) 0.8228(4) 0.4216(2)
N2 N 0.8398(3) 0.7989(4) 0.1999(2)
N3 N 0.8696(2) 0.9659(4) 0.3087(2)
N4 N 0.6931(3) 0.8550(5) 0.2362(2)
O2 O 0.8766(2) 0.9963(4) 0.05031(19)
O6 O 0.8424(3) 0.7787(5) 0.2453(2)
O8 O 0.8509(3) 0.7472(3) 0.1661(2)
O9 O 0.7064(3) 0.8584(7) 0.1922(2)
O10 O 0.6491(2) 0.8309(4) 0.24633(19)
O12 O 0.9076(2) 0.9383(4) 0.3364(2)
O20 O 0.6993(2) 0.7962(4) 0.42488(17)
O21 O 0.78249(19) 0.8236(3) 0.45673(16)
Gd4 Gd 0.649750(14) 0.74571(2) 0.492922(11)
Gd6 Gd 0.850250(14) 0.75429(2) 0.507078(11)
H34 H 0.899047 0.0665873 0.00303755
C1_2 C 0.3418(3) 0.5413(5) 0.0699(2)
C2_2 C 0.3241(3) 0.5075(5) 0.1205(2)
C3_2 C 0.2948(3) 0.5610(5) 0.1503(2)
H1_2 H 0.2841 0.6183 0.1387
C4_2 C 0.2811(3) 0.5306(5) 0.1976(2)
C5_2 C 0.2952(3) 0.4444(5) 0.2173(2)
C6_2 C 0.3244(3) 0.3922(5) 0.1850(2)
C7_2 C 0.3388(3) 0.4209(5) 0.1381(2)
H2_2 H 0.3582 0.3830 0.1182
C8_2 C 0.2816(3) 0.4150(4) 0.2697(2)
C9_2 C 0.3179(3) 0.4236(4) 0.3129(2)
C10_2 C 0.3080(3) 0.3929(4) 0.3616(2)
H3_2 H 0.3339 0.3980 0.3891
C11_2 C 0.2588(3) 0.3548(4) 0.3685(2)
C12_2 C 0.2216(3) 0.3466(4) 0.3273(2)
H4_2 H 0.1882 0.3225 0.3319
C13_2 C 0.2335(3) 0.3743(5) 0.2787(2)
C21_2 C 0.4448(5) 0.6659(9) 0.0982(5)
H7_2 H 0.4673 0.6355 0.0775
C22_2 C 0.4840(6) 0.5768(10) 0.1696(5)
H8_2 H 0.4810 0.5739 0.2060
H9_2 H 0.5200 0.5915 0.1633
H10_2 H 0.4746 0.5191 0.1543
C23_2 C 0.4187(5) 0.6909(11) 0.1830(5)
H11_2 H 0.4275 0.6681 0.2172
H12_2 H 0.3815 0.6816 0.1734
H13_2 H 0.4266 0.7545 0.1821
C24_2 C 0.2456(3) 0.3228(4) 0.4216(2)
N1_2 N 0.2514(3) 0.5913(5) 0.2281(2)
N2_2 N 0.3398(3) 0.2989(4) 0.1999(2)
N3_2 N 0.3696(2) 0.4659(4) 0.3087(2)
N4_2 N 0.1931(3) 0.3550(5) 0.2362(2)
N7_2 N 0.4494(3) 0.6438(6) 0.1477(3)
O1_2 O 0.3215(2) 0.6140(4) 0.05331(17)
O2_2 O 0.3766(2) 0.4963(4) 0.05031(19)
O3_2 O 0.3957(3) 0.8861(6) 0.0261(3)
O4_2 O 0.2650(3) 0.6704(5) 0.2296(2)
O6_2 O 0.3424(3) 0.2787(5) 0.2453(2)
O8_2 O 0.3509(3) 0.2472(3) 0.1661(2)
O9_2 O 0.2064(3) 0.3584(7) 0.1922(2)
O10_2 O 0.1491(2) 0.3309(4) 0.24633(19)
O11_2 O 0.3727(2) 0.5279(4) 0.2775(2)
O12_2 O 0.4076(2) 0.4383(4) 0.3364(2)
O19_2 O 0.4151(3) 0.7204(6) 0.0768(3)
O21_2 O 0.28249(19) 0.3236(3) 0.45673(16)
O22_2 O 0.2144(3) 0.5608(5) 0.2504(2)
Gd6_2 Gd 0.350250(14) 0.25429(2) 0.507078(11)
C14_2 C 0.3669(3) 0.8256(5) 0.8857(2)
C15_2 C 0.4066(3) 0.8188(4) 0.8455(2)
C16_2 C 0.4475(3) 0.7566(4) 0.8507(3)
H5_2 H 0.4514 0.7190 0.8794
C17_2 C 0.4826(3) 0.7502(4) 0.8131(3)
C18_2 C 0.4797(3) 0.8040(4) 0.7696(2)
C19_2 C 0.4377(3) 0.8662(5) 0.7655(3)
C20_2 C 0.4011(3) 0.8729(5) 0.8030(3)
H6_2 H 0.3731 0.9142 0.7988
N5_2 N 0.4282(3) 0.9251(5) 0.7209(3)
N6_2 N 0.5256(2) 0.6830(4) 0.8219(2)
O5_2 O 0.2942(2) 0.8709(3) 0.97095(18)
O7_2 O 0.3986(2) 0.6159(4) 0.97705(18)
O13_2 O 0.3794(2) 0.7815(4) 0.92671(19)
O14_2 O 0.3267(2) 0.8715(3) 0.87599(18)
O15_2 O 0.5361(2) 0.6562(5) 0.8657(2)
O16_2 O 0.5491(2) 0.6577(4) 0.78565(19)
O17_2 O 0.4031(4) 0.9919(6) 0.7249(3)
O18_2 O 0.4431(3) 0.8989(5) 0.6802(2)
C25_2 C 0.6331(3) 0.8256(5) 0.6143(2)
C26_2 C 0.5934(3) 0.8188(4) 0.6545(2)
C27_2 C 0.5525(3) 0.7566(4) 0.6493(3)
H14_2 H 0.5486 0.7190 0.6206
C28_2 C 0.5174(3) 0.7502(4) 0.6869(3)
C29_2 C 0.5203(3) 0.8040(4) 0.7304(2)
C30_2 C 0.5623(3) 0.8662(5) 0.7345(3)
C31_2 C 0.5989(3) 0.8729(5) 0.6970(3)
H15_2 H 0.6269 0.9142 0.7012
N8_2 N 0.5718(3) 0.9251(5) 0.7791(3)
N9_2 N 0.4744(2) 0.6830(4) 0.6781(2)
O23_2 O 0.6206(2) 0.7815(4) 0.57329(19)
O24_2 O 0.6733(2) 0.8715(3) 0.62401(18)
O25_2 O 0.4639(2) 0.6562(5) 0.6343(2)
O26_2 O 0.4509(2) 0.6577(4) 0.71435(19)
O27_2 O 0.5969(4) 0.9919(6) 0.7751(3)
O28_2 O 0.5569(3) 0.8989(5) 0.8198(2)
C32_2 C 0.6582(3) 0.5413(5) 0.4301(2)
C33_2 C 0.6759(3) 0.5075(5) 0.3795(2)
C34_2 C 0.7052(3) 0.5610(5) 0.3497(2)
H16_2 H 0.7159 0.6183 0.3613
C35_2 C 0.7189(3) 0.5306(5) 0.3024(2)
C36_2 C 0.7048(3) 0.4444(5) 0.2827(2)
C37_2 C 0.6756(3) 0.3922(5) 0.3150(2)
C38_2 C 0.6612(3) 0.4209(5) 0.3619(2)
H17_2 H 0.6418 0.3830 0.3818
C39_2 C 0.7184(3) 0.4150(4) 0.2303(2)
C40_2 C 0.6821(3) 0.4236(4) 0.1871(2)
C41_2 C 0.6920(3) 0.3929(4) 0.1384(2)
H18_2 H 0.6661 0.3980 0.1109
C42_2 C 0.7412(3) 0.3548(4) 0.1315(2)
C43_2 C 0.7784(3) 0.3466(4) 0.1727(2)
H19_2 H 0.8118 0.3225 0.1681
C44_2 C 0.7665(3) 0.3743(5) 0.2213(2)
C45_2 C 0.5552(5) 0.6659(9) 0.4018(5)
H20_2 H 0.5327 0.6355 0.4225
C46_2 C 0.5160(6) 0.5768(10) 0.3304(5)
H21_2 H 0.5190 0.5739 0.2940
H22_2 H 0.4800 0.5915 0.3367
H23_2 H 0.5254 0.5191 0.3457
C47_2 C 0.5813(5) 0.6909(11) 0.3170(5)
H24_2 H 0.5725 0.6681 0.2828
H25_2 H 0.6185 0.6816 0.3266
H26_2 H 0.5734 0.7545 0.3179
C48_2 C 0.7544(3) 0.3228(4) 0.0784(2)
N10_2 N 0.7486(3) 0.5913(5) 0.2719(2)
N11_2 N 0.6602(3) 0.2989(4) 0.3001(2)
N12_2 N 0.6304(2) 0.4659(4) 0.1913(2)
N13_2 N 0.8069(3) 0.3550(5) 0.2638(2)
N14_2 N 0.5506(3) 0.6438(6) 0.3523(3)
O29_2 O 0.6785(2) 0.6140(4) 0.44669(17)
O30_2 O 0.6234(2) 0.4963(4) 0.44969(19)
O31_2 O 0.6043(3) 0.8861(6) 0.4739(3)
O32_2 O 0.7350(3) 0.6704(5) 0.2704(2)
O33_2 O 0.7058(2) 0.8709(3) 0.52905(18)
O34_2 O 0.6576(3) 0.2787(5) 0.2547(2)
O35_2 O 0.6014(2) 0.6159(4) 0.52295(18)
O36_2 O 0.6491(3) 0.2472(3) 0.3339(2)
O37_2 O 0.7936(3) 0.3584(7) 0.3078(2)
O38_2 O 0.8509(2) 0.3309(4) 0.25367(19)
O39_2 O 0.6273(2) 0.5279(4) 0.2225(2)
O40_2 O 0.5924(2) 0.4383(4) 0.1636(2)
O41_2 O 0.5849(3) 0.7204(6) 0.4232(3)
O43_2 O 0.71751(19) 0.3236(3) 0.04327(16)
O44_2 O 0.7856(3) 0.5608(5) 0.2496(2)
O47_2 O 0.71751(19) 0.6764(3) 0.54327(16)
O48_2 O 0.28249(19) 0.6764(3) 0.95673(16)
H28_2 H 0.398735 0.920304 0.993653
Gd5_2 Gd 0.649750(14) 0.25429(2) 0.992922(11)
H34_2 H 0.399047 0.566587 0.00303755
C5_3 C 0.2048(3) 0.0556(5) 0.7827(2)
C6_3 C 0.1756(3) 0.1078(5) 0.8150(2)
C7_3 C 0.1612(3) 0.0791(5) 0.8619(2)
H2_3 H 0.1418 0.1170 0.8818
C8_3 C 0.2184(3) 0.0850(4) 0.7303(2)
C9_3 C 0.1821(3) 0.0764(4) 0.6871(2)
C10_3 C 0.1920(3) 0.1071(4) 0.6384(2)
H3_3 H 0.1661 0.1020 0.6109
C11_3 C 0.2412(3) 0.1452(4) 0.6315(2)
C12_3 C 0.2784(3) 0.1534(4) 0.6727(2)
H4_3 H 0.3118 0.1775 0.6681
C13_3 C 0.2665(3) 0.1257(5) 0.7213(2)
C24_3 C 0.2544(3) 0.1772(4) 0.5784(2)
N2_3 N 0.1602(3) 0.2011(4) 0.8001(2)
N3_3 N 0.1304(2) 0.0341(4) 0.6913(2)
N4_3 N 0.3069(3) 0.1450(5) 0.7638(2)
O2_3 O 0.1234(2) 0.0037(4) 0.94969(19)
O6_3 O 0.1576(3) 0.2213(5) 0.7547(2)
O8_3 O 0.1491(3) 0.2528(3) 0.8339(2)
O9_3 O 0.2936(3) 0.1416(7) 0.8078(2)
O10_3 O 0.3509(2) 0.1691(4) 0.75367(19)
O12_3 O 0.0924(2) 0.0617(4) 0.6636(2)
O20_2 O 0.3007(2) 0.2038(4) 0.57512(17)
C14_3 C 0.1331(3) 0.6744(5) 0.1143(2)
C15_3 C 0.0934(3) 0.6812(4) 0.1545(2)
C16_3 C 0.0525(3) 0.7434(4) 0.1493(3)
H5_3 H 0.0486 0.7810 0.1206
C17_3 C 0.0174(3) 0.7498(4) 0.1869(3)
C18_3 C 0.0203(3) 0.6960(4) 0.2304(2)
C19_3 C 0.0623(3) 0.6338(5) 0.2345(3)
C20_3 C 0.0989(3) 0.6271(5) 0.1970(3)
H6_3 H 0.1269 0.5858 0.2012
N5_3 N 0.0718(3) 0.5749(5) 0.2791(3)
O5_3 O 0.2058(2) 0.6291(3) 0.02905(18)
O7_3 O 0.1014(2) 0.8841(4) 0.02295(18)
O13_3 O 0.1206(2) 0.7185(4) 0.07329(19)
O14_3 O 0.1733(2) 0.6285(3) 0.12401(18)
O17_3 O 0.0969(4) 0.5081(6) 0.2751(3)
O18_3 O 0.0569(3) 0.6011(5) 0.3198(2)
N9_3 N 0.0256(2) 0.8170(4) 0.3219(2)
O25_3 O 0.0361(2) 0.8438(5) 0.3657(2)
O26_3 O 0.0491(2) 0.8423(4) 0.28565(19)
H22_3 H 0.0200 0.9085 0.6633
H28_3 H 0.101265 0.579696 0.00634693
C1_3 C 0.1582(3) 0.9587(5) 0.9301(2)
C2_3 C 0.1759(3) 0.9925(5) 0.8795(2)
C3_3 C 0.2052(3) 0.9390(5) 0.8497(2)
H1_3 H 0.2159 0.8817 0.8613
C4_3 C 0.2189(3) 0.9694(5) 0.8024(2)
C21_3 C 0.0552(5) 0.8341(9) 0.9018(5)
H7_3 H 0.0327 0.8645 0.9225
C22_3 C 0.0160(6) 0.9232(10) 0.8304(5)
H8_3 H 0.0190 0.9261 0.7940
H10_3 H 0.0254 0.9809 0.8457
C23_3 C 0.0813(5) 0.8091(11) 0.8170(5)
H11_3 H 0.0725 0.8319 0.7828
H12_3 H 0.1185 0.8184 0.8266
H13_3 H 0.0734 0.7455 0.8179
N1_3 N 0.2486(3) 0.9087(5) 0.7719(2)
N7_3 N 0.0506(3) 0.8562(6) 0.8523(3)
O1_3 O 0.1785(2) 0.8860(4) 0.94669(17)
O3_3 O 0.1043(3) 0.6139(6) 0.9739(3)
O4_3 O 0.2350(3) 0.8296(5) 0.7704(2)
O11_3 O 0.1273(2) 0.9721(4) 0.7225(2)
O19_3 O 0.0849(3) 0.7796(6) 0.9232(3)
O22_3 O 0.2856(3) 0.9392(5) 0.7496(2)
O46_2 O 0.1993(2) 0.7038(4) 0.92488(17)
C36_3 C 0.7952(3) 0.0556(5) 0.7173(2)
C37_3 C 0.8244(3) 0.1078(5) 0.6850(2)
C38_3 C 0.8388(3) 0.0791(5) 0.6381(2)
H17_3 H 0.8582 0.1170 0.6182
C39_3 C 0.7816(3) 0.0850(4) 0.7697(2)
C40_3 C 0.8179(3) 0.0764(4) 0.8129(2)
C41_3 C 0.8080(3) 0.1071(4) 0.8616(2)
H18_3 H 0.8339 0.1020 0.8891
C42_3 C 0.7588(3) 0.1452(4) 0.8685(2)
C43_3 C 0.7216(3) 0.1534(4) 0.8273(2)
H19_3 H 0.6882 0.1775 0.8319
C44_3 C 0.7335(3) 0.1257(5) 0.7787(2)
C48_3 C 0.7456(3) 0.1772(4) 0.9216(2)
N11_3 N 0.8398(3) 0.2011(4) 0.6999(2)
N12_3 N 0.8696(2) 0.0341(4) 0.8087(2)
N13_3 N 0.6931(3) 0.1450(5) 0.7362(2)
O30_3 O 0.8766(2) 0.0037(4) 0.55031(19)
O34_3 O 0.8424(3) 0.2213(5) 0.7453(2)
O36_3 O 0.8509(3) 0.2528(3) 0.6661(2)
O37_3 O 0.7064(3) 0.1416(7) 0.6922(2)
O38_3 O 0.6491(2) 0.1691(4) 0.74633(19)
O40_3 O 0.9076(2) 0.0617(4) 0.8364(2)
O42_2 O 0.6993(2) 0.2038(4) 0.92488(17)
N6_3 N 0.9744(2) 0.8170(4) 0.1781(2)
O15_3 O 0.9639(2) 0.8438(5) 0.1343(2)
O16_3 O 0.9509(2) 0.8423(4) 0.21435(19)
C25_3 C 0.8669(3) 0.6744(5) 0.3857(2)
C26_3 C 0.9066(3) 0.6812(4) 0.3455(2)
C27_3 C 0.9475(3) 0.7434(4) 0.3507(3)
H14_3 H 0.9514 0.7810 0.3794
C28_3 C 0.9826(3) 0.7498(4) 0.3131(3)
C29_3 C 0.9797(3) 0.6960(4) 0.2696(2)
C30_3 C 0.9377(3) 0.6338(5) 0.2655(3)
C31_3 C 0.9011(3) 0.6271(5) 0.3030(3)
H15_3 H 0.8731 0.5858 0.2988
N8_3 N 0.9282(3) 0.5749(5) 0.2209(3)
O23_3 O 0.8794(2) 0.7185(4) 0.42671(19)
O24_3 O 0.8267(2) 0.6285(3) 0.37599(18)
O27_3 O 0.9031(4) 0.5081(6) 0.2249(3)
O28_3 O 0.9431(3) 0.6011(5) 0.1802(2)
C32_3 C 0.8418(3) 0.9587(5) 0.5699(2)
C33_3 C 0.8241(3) 0.9925(5) 0.6205(2)
C34_3 C 0.7948(3) 0.9390(5) 0.6503(2)
H16_3 H 0.7841 0.8817 0.6387
C35_3 C 0.7811(3) 0.9694(5) 0.6976(2)
C45_3 C 0.9448(5) 0.8341(9) 0.5982(5)
H20_3 H 0.9673 0.8645 0.5775
C46_3 C 0.9840(6) 0.9232(10) 0.6696(5)
H21_3 H 0.9810 0.9261 0.7060
H23_3 H 0.9746 0.9809 0.6543
C47_3 C 0.9187(5) 0.8091(11) 0.6830(5)
H24_3 H 0.9275 0.8319 0.7172
H25_3 H 0.8815 0.8184 0.6734
H26_3 H 0.9266 0.7455 0.6821
N10_3 N 0.7514(3) 0.9087(5) 0.7281(2)
N14_3 N 0.9494(3) 0.8562(6) 0.6477(3)
O29_3 O 0.8215(2) 0.8860(4) 0.55331(17)
O31_3 O 0.8957(3) 0.6139(6) 0.5261(3)
O32_3 O 0.7650(3) 0.8296(5) 0.7296(2)
O33_3 O 0.7942(2) 0.6291(3) 0.47095(18)
O35_3 O 0.8986(2) 0.8841(4) 0.47705(18)
O39_3 O 0.8727(2) 0.9721(4) 0.7775(2)
O41_3 O 0.9151(3) 0.7796(6) 0.5768(3)
O44_3 O 0.7144(3) 0.9392(5) 0.7504(2)
O45_2 O 0.8007(2) 0.7038(4) 0.57512(17)
H34_3 H 0.100953 0.933413 0.996962
C14_4 C 0.6331(3) 0.1744(5) 0.1143(2)
C15_4 C 0.5934(3) 0.1812(4) 0.1545(2)
C16_4 C 0.5525(3) 0.2434(4) 0.1493(3)
H5_4 H 0.5486 0.2810 0.1206
C17_4 C 0.5174(3) 0.2498(4) 0.1869(3)
C18_4 C 0.5203(3) 0.1960(4) 0.2304(2)
C19_4 C 0.5623(3) 0.1338(5) 0.2345(3)
C20_4 C 0.5989(3) 0.1271(5) 0.1970(3)
H6_4 H 0.6269 0.0858 0.2012
N5_4 N 0.5718(3) 0.0749(5) 0.2791(3)
N6_4 N 0.4744(2) 0.3170(4) 0.1781(2)
O5_4 O 0.7058(2) 0.1291(3) 0.02905(18)
O7_4 O 0.6014(2) 0.3841(4) 0.02295(18)
O13_4 O 0.6206(2) 0.2185(4) 0.07329(19)
O14_4 O 0.6733(2) 0.1285(3) 0.12401(18)
O15_4 O 0.4639(2) 0.3438(5) 0.1343(2)
O16_4 O 0.4509(2) 0.3423(4) 0.21435(19)
O17_4 O 0.5969(4) 0.0081(6) 0.2751(3)
O18_4 O 0.5569(3) 0.1011(5) 0.3198(2)
C25_4 C 0.3669(3) 0.1744(5) 0.3857(2)
C26_4 C 0.4066(3) 0.1812(4) 0.3455(2)
C27_4 C 0.4475(3) 0.2434(4) 0.3507(3)
H14_4 H 0.4514 0.2810 0.3794
C28_4 C 0.4826(3) 0.2498(4) 0.3131(3)
C29_4 C 0.4797(3) 0.1960(4) 0.2696(2)
C30_4 C 0.4377(3) 0.1338(5) 0.2655(3)
C31_4 C 0.4011(3) 0.1271(5) 0.3030(3)
H15_4 H 0.3731 0.0858 0.2988
N8_4 N 0.4282(3) 0.0749(5) 0.2209(3)
N9_4 N 0.5256(2) 0.3170(4) 0.3219(2)
O23_4 O 0.3794(2) 0.2185(4) 0.42671(19)
O24_4 O 0.3267(2) 0.1285(3) 0.37599(18)
O25_4 O 0.5361(2) 0.3438(5) 0.3657(2)
O26_4 O 0.5491(2) 0.3423(4) 0.28565(19)
O27_4 O 0.4031(4) 0.0081(6) 0.2249(3)
O28_4 O 0.4431(3) 0.1011(5) 0.1802(2)
C32_4 C 0.3418(3) 0.4587(5) 0.5699(2)
C33_4 C 0.3241(3) 0.4925(5) 0.6205(2)
C34_4 C 0.2948(3) 0.4390(5) 0.6503(2)
H16_4 H 0.2841 0.3817 0.6387
C35_4 C 0.2811(3) 0.4694(5) 0.6976(2)
C36_4 C 0.2952(3) 0.5556(5) 0.7173(2)
C37_4 C 0.3244(3) 0.6078(5) 0.6850(2)
C38_4 C 0.3388(3) 0.5791(5) 0.6381(2)
H17_4 H 0.3582 0.6170 0.6182
C39_4 C 0.2816(3) 0.5850(4) 0.7697(2)
C40_4 C 0.3179(3) 0.5764(4) 0.8129(2)
C41_4 C 0.3080(3) 0.6071(4) 0.8616(2)
H18_4 H 0.3339 0.6020 0.8891
C42_4 C 0.2588(3) 0.6452(4) 0.8685(2)
C43_4 C 0.2216(3) 0.6534(4) 0.8273(2)
H19_4 H 0.1882 0.6775 0.8319
C44_4 C 0.2335(3) 0.6257(5) 0.7787(2)
C45_4 C 0.4448(5) 0.3341(9) 0.5982(5)
H20_4 H 0.4673 0.3645 0.5775
C46_4 C 0.4840(6) 0.4232(10) 0.6696(5)
H21_4 H 0.4810 0.4261 0.7060
H22_4 H 0.5200 0.4085 0.6633
H23_4 H 0.4746 0.4809 0.6543
C47_4 C 0.4187(5) 0.3091(11) 0.6830(5)
H24_4 H 0.4275 0.3319 0.7172
H25_4 H 0.3815 0.3184 0.6734
H26_4 H 0.4266 0.2455 0.6821
C48_4 C 0.2456(3) 0.6772(4) 0.9216(2)
N10_4 N 0.2514(3) 0.4087(5) 0.7281(2)
N11_4 N 0.3398(3) 0.7011(4) 0.6999(2)
N12_4 N 0.3696(2) 0.5341(4) 0.8087(2)
N13_4 N 0.1931(3) 0.6450(5) 0.7362(2)
N14_4 N 0.4494(3) 0.3562(6) 0.6477(3)
O29_4 O 0.3215(2) 0.3860(4) 0.55331(17)
O30_4 O 0.3766(2) 0.5037(4) 0.55031(19)
O31_4 O 0.3957(3) 0.1139(6) 0.5261(3)
O32_4 O 0.2650(3) 0.3296(5) 0.7296(2)
O33_4 O 0.2942(2) 0.1291(3) 0.47095(18)
O34_4 O 0.3424(3) 0.7213(5) 0.7453(2)
O35_4 O 0.3986(2) 0.3841(4) 0.47705(18)
O36_4 O 0.3509(3) 0.7528(3) 0.6661(2)
O37_4 O 0.2064(3) 0.6416(7) 0.6922(2)
O38_4 O 0.1491(2) 0.6691(4) 0.74633(19)
O39_4 O 0.3727(2) 0.4721(4) 0.7775(2)
O40_4 O 0.4076(2) 0.5617(4) 0.8364(2)
O41_4 O 0.4151(3) 0.2796(6) 0.5768(3)
O44_4 O 0.2144(3) 0.4392(5) 0.7504(2)
H28_4 H 0.601265 0.0796959 0.00634693
C1_4 C 0.6582(3) 0.4587(5) 0.9301(2)
C2_4 C 0.6759(3) 0.4925(5) 0.8795(2)
C3_4 C 0.7052(3) 0.4390(5) 0.8497(2)
H1_4 H 0.7159 0.3817 0.8613
C4_4 C 0.7189(3) 0.4694(5) 0.8024(2)
C5_4 C 0.7048(3) 0.5556(5) 0.7827(2)
C6_4 C 0.6756(3) 0.6078(5) 0.8150(2)
C7_4 C 0.6612(3) 0.5791(5) 0.8619(2)
H2_4 H 0.6418 0.6170 0.8818
C8_4 C 0.7184(3) 0.5850(4) 0.7303(2)
C9_4 C 0.6821(3) 0.5764(4) 0.6871(2)
C10_4 C 0.6920(3) 0.6071(4) 0.6384(2)
H3_4 H 0.6661 0.6020 0.6109
C11_4 C 0.7412(3) 0.6452(4) 0.6315(2)
C12_4 C 0.7784(3) 0.6534(4) 0.6727(2)
H4_4 H 0.8118 0.6775 0.6681
C13_4 C 0.7665(3) 0.6257(5) 0.7213(2)
C21_4 C 0.5552(5) 0.3341(9) 0.9018(5)
H7_4 H 0.5327 0.3645 0.9225
C22_4 C 0.5160(6) 0.4232(10) 0.8304(5)
H8_4 H 0.5190 0.4261 0.7940
H9_3 H 0.4800 0.4085 0.8367
H10_4 H 0.5254 0.4809 0.8457
C23_4 C 0.5813(5) 0.3091(11) 0.8170(5)
H11_4 H 0.5725 0.3319 0.7828
H12_4 H 0.6185 0.3184 0.8266
H13_4 H 0.5734 0.2455 0.8179
C24_4 C 0.7544(3) 0.6772(4) 0.5784(2)
N1_4 N 0.7486(3) 0.4087(5) 0.7719(2)
N2_4 N 0.6602(3) 0.7011(4) 0.8001(2)
N3_4 N 0.6304(2) 0.5341(4) 0.6913(2)
N4_4 N 0.8069(3) 0.6450(5) 0.7638(2)
N7_4 N 0.5506(3) 0.3562(6) 0.8523(3)
O1_4 O 0.6785(2) 0.3860(4) 0.94669(17)
O2_4 O 0.6234(2) 0.5037(4) 0.94969(19)
O3_4 O 0.6043(3) 0.1139(6) 0.9739(3)
O4_4 O 0.7350(3) 0.3296(5) 0.7704(2)
O6_4 O 0.6576(3) 0.7213(5) 0.7547(2)
O8_4 O 0.6491(3) 0.7528(3) 0.8339(2)
O9_4 O 0.7936(3) 0.6416(7) 0.8078(2)
O10_4 O 0.8509(2) 0.6691(4) 0.75367(19)
O11_4 O 0.6273(2) 0.4721(4) 0.7225(2)
O12_4 O 0.5924(2) 0.5617(4) 0.6636(2)
O19_4 O 0.5849(3) 0.2796(6) 0.9232(3)
O22_4 O 0.7856(3) 0.4392(5) 0.7496(2)
H34_4 H 0.600953 0.433413 0.996962
H9_4 H 0.9800 0.9085 0.8367
loop_
_geom_bond_atom_site_label_1
_geom_bond_atom_site_label_2
_geom_bond_site_symmetry_1
_geom_bond_site_symmetry_2
O15 N6 1_555 1_555
O16 N6 1_555 1_555
C25 C26 1_555 1_555
C26 C27 1_555 1_555
C27 H14 1_555 1_555
C28 C27 1_555 1_555
C30 C29 1_555 1_555
C31 C26 1_555 1_555
H15 C31 1_555 1_555
N8 C30 1_555 1_555
O23 C25 1_555 1_555
O24 C25 1_555 1_555
O27 N8 1_555 1_555
O28 N8 1_555 1_555
Gd2 O23 1_555 1_555
C32 C33 1_555 1_555
C33 C34 1_555 1_555
C34 H16 1_555 1_555
C35 C34 1_555 1_555
C45 H20 1_555 1_555
C46 H21 1_555 1_555
H23 C46 1_555 1_555
C47 H24 1_555 1_555
H25 C47 1_555 1_555
H26 C47 1_555 1_555
N10 C35 1_555 1_555
N14 C45 1_555 1_555
O29 Gd2 1_555 1_555
O31 Gd2 1_555 1_555
O32 N10 1_555 1_555
O33 Gd2 1_555 1_555
O35 Gd2 1_555 1_555
O41 Gd2 1_555 1_555
O44 N10 1_555 1_555
O45 Gd2 1_555 1_555
O47 Gd2 1_555 1_555
C28 C29 1_555 1_555
C30 C31 1_555 1_555
C32 O29 1_555 1_555
C45 O41 1_555 1_555
C46 N14 1_555 1_555
C47 N14 1_555 1_555
C37 C36 1_555 1_555
H17 C38 1_555 1_555
C39 C36 1_555 1_555
C40 C39 1_555 1_555
C41 C40 1_555 1_555
H18 C41 1_555 1_555
C42 C41 1_555 1_555
C43 C42 1_555 1_555
H19 C43 1_555 1_555
C44 C39 1_555 1_555
C48 C42 1_555 1_555
N11 C37 1_555 1_555
N12 C40 1_555 1_555
N13 C44 1_555 1_555
O34 N11 1_555 1_555
O36 N11 1_555 1_555
O37 N13 1_555 1_555
O38 N13 1_555 1_555
O40 N12 1_555 1_555
O42 C48 1_555 1_555
O43 C48 1_555 1_555
Gd3 O42 1_555 1_555
C37 C38 1_555 1_555
C43 C44 1_555 1_555
Gd1 O1 1_555 1_555
C1 C2 1_555 1_555
C2 C3 1_555 1_555
C3 H1 1_555 1_555
C4 C3 1_555 1_555
C21 H7 1_555 1_555
C22 H8 1_555 1_555
H10 C22 1_555 1_555
C23 H11 1_555 1_555
H12 C23 1_555 1_555
H13 C23 1_555 1_555
N1 C4 1_555 1_555
N7 C21 1_555 1_555
O1 C1 1_555 1_555
O3 Gd1 1_555 1_555
O4 N1 1_555 1_555
O19 Gd1 1_555 1_555
O22 N1 1_555 1_555
O46 Gd1 1_555 1_555
C21 O19 1_555 1_555
C22 N7 1_555 1_555
C23 N7 1_555 1_555
C14 C15 1_555 1_555
C15 C16 1_555 1_555
C16 H5 1_555 1_555
C17 C16 1_555 1_555
C18 C17 1_555 1_555
C19 C18 1_555 1_555
C20 C15 1_555 1_555
H6 C20 1_555 1_555
N5 C19 1_555 1_555
O14 C14 1_555 1_555
O17 N5 1_555 1_555
O18 N5 1_555 1_555
O25 N9 1_555 1_555
O26 N9 1_555 1_555
C14 O13 1_555 1_555
C19 C20 1_555 1_555
C6 C5 1_555 1_555
H2 C7 1_555 1_555
C8 C5 1_555 1_555
C9 C8 1_555 1_555
C10 C9 1_555 1_555
H3 C10 1_555 1_555
C11 C10 1_555 1_555
C12 C11 1_555 1_555
H4 C12 1_555 1_555
C13 C8 1_555 1_555
C24 C11 1_555 1_555
N2 C6 1_555 1_555
N3 C9 1_555 1_555
N4 C13 1_555 1_555
O6 N2 1_555 1_555
O8 N2 1_555 1_555
O9 N4 1_555 1_555
O10 N4 1_555 1_555
O12 N3 1_555 1_555
O20 C24 1_555 1_555
O21 C24 1_555 1_555
Gd4 O20 1_555 1_555
Gd6 O21 1_555 1_555
C6 C7 1_555 1_555
C12 C13 1_555 1_555
Gd3 O1_2 1_555 1_555
C1_2 C2_2 1_555 1_555
C2_2 C3_2 1_555 1_555
C3_2 H1_2 1_555 1_555
C4_2 C3_2 1_555 1_555
C5_2 C4_2 1_555 1_555
C6_2 C5_2 1_555 1_555
C7_2 C2_2 1_555 1_555
H2_2 C7_2 1_555 1_555
C8_2 C5_2 1_555 1_555
C9_2 C8_2 1_555 1_555
C10_2 C9_2 1_555 1_555
H3_2 C10_2 1_555 1_555
C11_2 C10_2 1_555 1_555
C12_2 C11_2 1_555 1_555
H4_2 C12_2 1_555 1_555
C13_2 C8_2 1_555 1_555
C21_2 H7_2 1_555 1_555
C22_2 H8_2 1_555 1_555
H9_2 C22_2 1_555 1_555
H10_2 C22_2 1_555 1_555
C23_2 H11_2 1_555 1_555
H12_2 C23_2 1_555 1_555
H13_2 C23_2 1_555 1_555
C24_2 C11_2 1_555 1_555
N1_2 C4_2 1_555 1_555
N2_2 C6_2 1_555 1_555
N3_2 C9_2 1_555 1_555
N4_2 C13_2 1_555 1_555
N7_2 C21_2 1_555 1_555
O1_2 C1_2 1_555 1_555
O2_2 C1_2 1_555 1_555
O3_2 Gd3 1_555 1_555
O4_2 N1_2 1_555 1_555
O6_2 N2_2 1_555 1_555
O8_2 N2_2 1_555 1_555
O9_2 N4_2 1_555 1_555
O10_2 N4_2 1_555 1_555
O11_2 N3_2 1_555 1_555
O12_2 N3_2 1_555 1_555
O19_2 Gd3 1_555 1_555
O45 C24_2 1_555 1_555
O21_2 C24_2 1_555 1_555
O22_2 N1_2 1_555 1_555
Gd6_2 O21_2 1_555 1_555
C6_2 C7_2 1_555 1_555
C12_2 C13_2 1_555 1_555
C21_2 O19_2 1_555 1_555
C22_2 N7_2 1_555 1_555
C23_2 N7_2 1_555 1_555
C14_2 C15_2 1_555 1_555
C15_2 C16_2 1_555 1_555
C16_2 H5_2 1_555 1_555
C17_2 C16_2 1_555 1_555
C18_2 C17_2 1_555 1_555
C19_2 C18_2 1_555 1_555
C20_2 C15_2 1_555 1_555
H6_2 C20_2 1_555 1_555
N5_2 C19_2 1_555 1_555
N6_2 C17_2 1_555 1_555
O14_2 C14_2 1_555 1_555
O15_2 N6_2 1_555 1_555
O16_2 N6_2 1_555 1_555
O17_2 N5_2 1_555 1_555
O18_2 N5_2 1_555 1_555
C25_2 C26_2 1_555 1_555
C26_2 C27_2 1_555 1_555
C27_2 H14_2 1_555 1_555
C28_2 C27_2 1_555 1_555
C29_2 C18_2 1_555 1_555
C30_2 C29_2 1_555 1_555
C31_2 C26_2 1_555 1_555
H15_2 C31_2 1_555 1_555
N8_2 C30_2 1_555 1_555
N9_2 C28_2 1_555 1_555
O23_2 C25_2 1_555 1_555
O24_2 C25_2 1_555 1_555
O25_2 N9_2 1_555 1_555
O26_2 N9_2 1_555 1_555
O27_2 N8_2 1_555 1_555
O28_2 N8_2 1_555 1_555
Gd4 O23_2 1_555 1_555
C32_2 C33_2 1_555 1_555
C33_2 C34_2 1_555 1_555
C34_2 H16_2 1_555 1_555
C35_2 C34_2 1_555 1_555
C36_2 C35_2 1_555 1_555
C37_2 C36_2 1_555 1_555
C38_2 C33_2 1_555 1_555
H17_2 C38_2 1_555 1_555
C39_2 C36_2 1_555 1_555
C40_2 C39_2 1_555 1_555
C41_2 C40_2 1_555 1_555
H18_2 C41_2 1_555 1_555
C42_2 C41_2 1_555 1_555
C43_2 C42_2 1_555 1_555
H19_2 C43_2 1_555 1_555
C44_2 C39_2 1_555 1_555
C45_2 H20_2 1_555 1_555
C46_2 H21_2 1_555 1_555
H22_2 C46_2 1_555 1_555
H23_2 C46_2 1_555 1_555
C47_2 H24_2 1_555 1_555
H25_2 C47_2 1_555 1_555
H26_2 C47_2 1_555 1_555
C48_2 C42_2 1_555 1_555
N10_2 C35_2 1_555 1_555
N11_2 C37_2 1_555 1_555
N12_2 C40_2 1_555 1_555
N13_2 C44_2 1_555 1_555
N14_2 C45_2 1_555 1_555
O29_2 Gd4 1_555 1_555
O30_2 C32_2 1_555 1_555
O31_2 Gd4 1_555 1_555
O32_2 N10_2 1_555 1_555
O33_2 Gd4 1_555 1_555
O34_2 N11_2 1_555 1_555
O35_2 Gd4 1_555 1_555
O36_2 N11_2 1_555 1_555
O37_2 N13_2 1_555 1_555
O38_2 N13_2 1_555 1_555
O39_2 N12_2 1_555 1_555
O40_2 N12_2 1_555 1_555
O41_2 Gd4 1_555 1_555
O46 C48_2 1_555 1_555
O43_2 C48_2 1_555 1_555
O44_2 N10_2 1_555 1_555
O47_2 Gd4 1_555 1_555
C14_2 O13_2 1_555 1_555
C19_2 C20_2 1_555 1_555
C28_2 C29_2 1_555 1_555
C30_2 C31_2 1_555 1_555
C32_2 O29_2 1_555 1_555
C37_2 C38_2 1_555 1_555
C43_2 C44_2 1_555 1_555
C45_2 O41_2 1_555 1_555
C46_2 N14_2 1_555 1_555
C47_2 N14_2 1_555 1_555
C6_3 C5_3 1_555 1_555
H2_3 C7_3 1_555 1_555
C8_3 C5_3 1_555 1_555
C9_3 C8_3 1_555 1_555
C10_3 C9_3 1_555 1_555
H3_3 C10_3 1_555 1_555
C11_3 C10_3 1_555 1_555
C12_3 C11_3 1_555 1_555
H4_3 C12_3 1_555 1_555
C13_3 C8_3 1_555 1_555
C24_3 C11_3 1_555 1_555
N2_3 C6_3 1_555 1_555
N3_3 C9_3 1_555 1_555
N4_3 C13_3 1_555 1_555
O6_3 N2_3 1_555 1_555
O8_3 N2_3 1_555 1_555
O9_3 N4_3 1_555 1_555
O10_3 N4_3 1_555 1_555
O12_3 N3_3 1_555 1_555
O20_2 C24_3 1_555 1_555
O47 C24_3 1_555 1_555
Gd6_2 O20_2 1_555 1_555
C6_3 C7_3 1_555 1_555
C12_3 C13_3 1_555 1_555
C14_3 C15_3 1_555 1_555
C15_3 C16_3 1_555 1_555
C16_3 H5_3 1_555 1_555
C17_3 C16_3 1_555 1_555
C18_3 C17_3 1_555 1_555
C19_3 C18_3 1_555 1_555
C20_3 C15_3 1_555 1_555
H6_3 C20_3 1_555 1_555
N5_3 C19_3 1_555 1_555
O14_3 C14_3 1_555 1_555
O17_3 N5_3 1_555 1_555
O18_3 N5_3 1_555 1_555
O25_3 N9_3 1_555 1_555
O26_3 N9_3 1_555 1_555
C14_3 O13_3 1_555 1_555
C19_3 C20_3 1_555 1_555
Gd5 O1_3 1_555 1_555
C1_3 C2_3 1_555 1_555
C2_3 C3_3 1_555 1_555
C3_3 H1_3 1_555 1_555
C4_3 C3_3 1_555 1_555
C21_3 H7_3 1_555 1_555
C22_3 H8_3 1_555 1_555
H10_3 C22_3 1_555 1_555
C23_3 H11_3 1_555 1_555
H12_3 C23_3 1_555 1_555
H13_3 C23_3 1_555 1_555
N1_3 C4_3 1_555 1_555
N7_3 C21_3 1_555 1_555
O1_3 C1_3 1_555 1_555
O3_3 Gd5 1_555 1_555
O4_3 N1_3 1_555 1_555
O19_3 Gd5 1_555 1_555
O22_3 N1_3 1_555 1_555
O46_2 Gd5 1_555 1_555
C21_3 O19_3 1_555 1_555
C22_3 N7_3 1_555 1_555
C23_3 N7_3 1_555 1_555
C37_3 C36_3 1_555 1_555
H17_3 C38_3 1_555 1_555
C39_3 C36_3 1_555 1_555
C40_3 C39_3 1_555 1_555
C41_3 C40_3 1_555 1_555
H18_3 C41_3 1_555 1_555
C42_3 C41_3 1_555 1_555
C43_3 C42_3 1_555 1_555
H19_3 C43_3 1_555 1_555
C44_3 C39_3 1_555 1_555
C48_3 C42_3 1_555 1_555
N11_3 C37_3 1_555 1_555
N12_3 C40_3 1_555 1_555
N13_3 C44_3 1_555 1_555
O34_3 N11_3 1_555 1_555
O36_3 N11_3 1_555 1_555
O37_3 N13_3 1_555 1_555
O38_3 N13_3 1_555 1_555
O40_3 N12_3 1_555 1_555
O42_2 C48_3 1_555 1_555
O48 C48_3 1_555 1_555
Gd5_2 O42_2 1_555 1_555
C37_3 C38_3 1_555 1_555
C43_3 C44_3 1_555 1_555
O15_3 N6_3 1_555 1_555
O16_3 N6_3 1_555 1_555
C25_3 C26_3 1_555 1_555
C26_3 C27_3 1_555 1_555
C27_3 H14_3 1_555 1_555
C28_3 C27_3 1_555 1_555
C30_3 C29_3 1_555 1_555
C31_3 C26_3 1_555 1_555
H15_3 C31_3 1_555 1_555
N8_3 C30_3 1_555 1_555
O23_3 C25_3 1_555 1_555
O24_3 C25_3 1_555 1_555
O27_3 N8_3 1_555 1_555
O28_3 N8_3 1_555 1_555
Gd6 O23_3 1_555 1_555
C32_3 C33_3 1_555 1_555
C33_3 C34_3 1_555 1_555
C34_3 H16_3 1_555 1_555
C35_3 C34_3 1_555 1_555
C45_3 H20_3 1_555 1_555
C46_3 H21_3 1_555 1_555
H23_3 C46_3 1_555 1_555
C47_3 H24_3 1_555 1_555
H25_3 C47_3 1_555 1_555
H26_3 C47_3 1_555 1_555
N10_3 C35_3 1_555 1_555
N14_3 C45_3 1_555 1_555
O29_3 Gd6 1_555 1_555
O31_3 Gd6 1_555 1_555
O32_3 N10_3 1_555 1_555
O33_3 Gd6 1_555 1_555
O35_3 Gd6 1_555 1_555
O41_3 Gd6 1_555 1_555
O44_3 N10_3 1_555 1_555
O45_2 Gd6 1_555 1_555
C28_3 C29_3 1_555 1_555
C30_3 C31_3 1_555 1_555
C32_3 O29_3 1_555 1_555
C45_3 O41_3 1_555 1_555
C46_3 N14_3 1_555 1_555
C47_3 N14_3 1_555 1_555
C14_4 C15_4 1_555 1_555
C15_4 C16_4 1_555 1_555
C16_4 H5_4 1_555 1_555
C17_4 C16_4 1_555 1_555
C18_4 C17_4 1_555 1_555
C19_4 C18_4 1_555 1_555
C20_4 C15_4 1_555 1_555
H6_4 C20_4 1_555 1_555
N5_4 C19_4 1_555 1_555
N6_4 C17_4 1_555 1_555
O14_4 C14_4 1_555 1_555
O15_4 N6_4 1_555 1_555
O16_4 N6_4 1_555 1_555
O17_4 N5_4 1_555 1_555
O18_4 N5_4 1_555 1_555
C25_4 C26_4 1_555 1_555
C26_4 C27_4 1_555 1_555
C27_4 H14_4 1_555 1_555
C28_4 C27_4 1_555 1_555
C29_4 C18_4 1_555 1_555
C30_4 C29_4 1_555 1_555
C31_4 C26_4 1_555 1_555
H15_4 C31_4 1_555 1_555
N8_4 C30_4 1_555 1_555
N9_4 C28_4 1_555 1_555
O23_4 C25_4 1_555 1_555
O24_4 C25_4 1_555 1_555
O25_4 N9_4 1_555 1_555
O26_4 N9_4 1_555 1_555
O27_4 N8_4 1_555 1_555
O28_4 N8_4 1_555 1_555
Gd6_2 O23_4 1_555 1_555
C32_4 C33_4 1_555 1_555
C33_4 C34_4 1_555 1_555
C34_4 H16_4 1_555 1_555
C35_4 C34_4 1_555 1_555
C36_4 C35_4 1_555 1_555
C37_4 C36_4 1_555 1_555
C38_4 C33_4 1_555 1_555
H17_4 C38_4 1_555 1_555
C39_4 C36_4 1_555 1_555
C40_4 C39_4 1_555 1_555
C41_4 C40_4 1_555 1_555
H18_4 C41_4 1_555 1_555
C42_4 C41_4 1_555 1_555
C43_4 C42_4 1_555 1_555
H19_4 C43_4 1_555 1_555
C44_4 C39_4 1_555 1_555
C45_4 H20_4 1_555 1_555
C46_4 H21_4 1_555 1_555
H22_4 C46_4 1_555 1_555
H23_4 C46_4 1_555 1_555
C47_4 H24_4 1_555 1_555
H25_4 C47_4 1_555 1_555
H26_4 C47_4 1_555 1_555
C48_4 C42_4 1_555 1_555
N10_4 C35_4 1_555 1_555
N11_4 C37_4 1_555 1_555
N12_4 C40_4 1_555 1_555
N13_4 C44_4 1_555 1_555
N14_4 C45_4 1_555 1_555
O29_4 Gd6_2 1_555 1_555
O30_4 C32_4 1_555 1_555
O31_4 Gd6_2 1_555 1_555
O32_4 N10_4 1_555 1_555
O33_4 Gd6_2 1_555 1_555
O34_4 N11_4 1_555 1_555
O35_4 Gd6_2 1_555 1_555
O36_4 N11_4 1_555 1_555
O37_4 N13_4 1_555 1_555
O38_4 N13_4 1_555 1_555
O39_4 N12_4 1_555 1_555
O40_4 N12_4 1_555 1_555
O41_4 Gd6_2 1_555 1_555
O46_2 C48_4 1_555 1_555
O48_2 C48_4 1_555 1_555
O44_4 N10_4 1_555 1_555
C14_4 O13_4 1_555 1_555
C19_4 C20_4 1_555 1_555
C28_4 C29_4 1_555 1_555
C30_4 C31_4 1_555 1_555
C32_4 O29_4 1_555 1_555
C37_4 C38_4 1_555 1_555
C43_4 C44_4 1_555 1_555
C45_4 O41_4 1_555 1_555
C46_4 N14_4 1_555 1_555
C47_4 N14_4 1_555 1_555
Gd5_2 O1_4 1_555 1_555
C1_4 C2_4 1_555 1_555
C2_4 C3_4 1_555 1_555
C3_4 H1_4 1_555 1_555
C4_4 C3_4 1_555 1_555
C5_4 C4_4 1_555 1_555
C6_4 C5_4 1_555 1_555
C7_4 C2_4 1_555 1_555
H2_4 C7_4 1_555 1_555
C8_4 C5_4 1_555 1_555
C9_4 C8_4 1_555 1_555
C10_4 C9_4 1_555 1_555
H3_4 C10_4 1_555 1_555
C11_4 C10_4 1_555 1_555
C12_4 C11_4 1_555 1_555
H4_4 C12_4 1_555 1_555
C13_4 C8_4 1_555 1_555
C21_4 H7_4 1_555 1_555
C22_4 H8_4 1_555 1_555
H9_3 C22_4 1_555 1_555
H10_4 C22_4 1_555 1_555
C23_4 H11_4 1_555 1_555
H12_4 C23_4 1_555 1_555
H13_4 C23_4 1_555 1_555
C24_4 C11_4 1_555 1_555
N1_4 C4_4 1_555 1_555
N2_4 C6_4 1_555 1_555
N3_4 C9_4 1_555 1_555
N4_4 C13_4 1_555 1_555
N7_4 C21_4 1_555 1_555
O1_4 C1_4 1_555 1_555
O2_4 C1_4 1_555 1_555
O3_4 Gd5_2 1_555 1_555
O4_4 N1_4 1_555 1_555
O6_4 N2_4 1_555 1_555
O8_4 N2_4 1_555 1_555
O9_4 N4_4 1_555 1_555
O10_4 N4_4 1_555 1_555
O11_4 N3_4 1_555 1_555
O12_4 N3_4 1_555 1_555
O19_4 Gd5_2 1_555 1_555
O45_2 C24_4 1_555 1_555
O47_2 C24_4 1_555 1_555
O22_4 N1_4 1_555 1_555
C6_4 C7_4 1_555 1_555
C12_4 C13_4 1_555 1_555
C21_4 O19_4 1_555 1_555
C22_4 N7_4 1_555 1_555
C23_4 N7_4 1_555 1_555

#END
