
###############################################################################
#
# This file contains modified crystal structure data generated from the
# MOF subset of the Cambridge Structural Database (CSD) v543 
# hosted by the Cambridge Crystallographic Data Centre (CCDC).
#
# This work is licensed under the Creative Commons
# Attribution-NonCommercial-ShareAlike 4.0 International License.
# To view a copy of this license, visit
# http://creativecommons.org/licenses/by-nc-sa/4.0/
# or send a letter to
# Creative Commons, PO Box 1866, Mountain View, CA 94042, USA.
#
# CIF created using the CSD Python API on 29 September 2022
# The structure has been converted into the P1 space group
# The structure has a 3D framework
# The original CSD entry YUGLES is in the rhombohedral crystal system
# The framework has been calculated to contain at least 10.0% void space
# The void calculation uses a probe of radius 1.32A, grid spacing 0.4
# H atom positions have been added when not included in the experimental data
# Generated hydrogen atom positions removed from atoms on special positions
#
###############################################################################

data_YUGLES
_chemical_formula_moiety         '(C162 H162 Cu18 O90)n'
_symmetry_cell_setting           triclinic
_symmetry_space_group_name_H-M   'P 1'
_symmetry_Int_Tables_number      1
_space_group_name_Hall           'P 1'
loop_
_symmetry_equiv_pos_site_id
_symmetry_equiv_pos_as_xyz
1 x,y,z
_cell_length_a                   18.6844(11)
_cell_length_b                   18.6844(11)
_cell_length_c                   32.862(4)
_cell_angle_alpha                90
_cell_angle_beta                 90
_cell_angle_gamma                120
_cell_volume                     9935.34
loop_
_atom_site_label
_atom_site_type_symbol
_atom_site_fract_x
_atom_site_fract_y
_atom_site_fract_z
Cu5 Cu 0.19005(5) 0.38010(5) 0.80017(2)
Cu6 Cu 0.14328(2) 0.28657(5) 0.86650(2)
Cu7 Cu 0.19005(2) 0.80995(5) 0.80017(2)
Cu8 Cu 0.14328(5) 0.85672(2) 0.86650(2)
C8 C 0.0969(3) 0.6132(4) 0.88466(14)
C9 C 0.0969(3) 0.4837(3) 0.88466(14)
C11 C 0.0642(3) 0.5958(4) 0.92303(13)
C12 C 0.0642(3) 0.4684(3) 0.92303(13)
H4 H 0.0528 0.4197 0.9361
H5 H 0.0528 0.6331 0.9361
C13 C 0.0475(5) 0.5238(5) 0.9429(2)
C14 C 0.0129(5) 0.5064(6) 0.98332(18)
C15 C 0.1135(4) 0.55675(44) 0.86486(18)
H6 H 0.1354 0.5677 0.8387
C17 C 0.1193(3) 0.4257(3) 0.86433(14)
C18 C 0.1193(3) 0.6936(4) 0.86433(14)
O5 O 0.14983(18) 0.44505(17) 0.82907(9)
O6 O 0.14983(18) 0.70478(25) 0.82907(9)
O10 O 0.10888(18) 0.36406(18) 0.88503(9)
O11 O 0.10888(18) 0.74482(25) 0.88503(9)
Cu1 Cu 0.80995(2) 0.61990(5) 0.19983(2)
C1 C 0.9031(3) 0.5163(3) 0.11534(14)
C2 C 0.9358(3) 0.5316(3) 0.07697(13)
H1 H 0.9472 0.5803 0.0639
C3 C 0.9525(5) 0.4763(2) 0.0571(2)
C4 C 0.9871(5) 0.4935(3) 0.01668(18)
C5 C 0.8865(4) 0.44325(18) 0.13514(18)
H2 H 0.8646 0.4323 0.1613
C6 C 0.8807(3) 0.5743(3) 0.13567(14)
O1 O 0.85017(18) 0.55495(17) 0.17093(9)
O2 O 0.89112(18) 0.63594(18) 0.11497(9)
O3 O 0.77392(16) 0.5478(3) 0.25478(14)
Cu2 Cu 0.80995(5) 0.19005(2) 0.19983(2)
Cu3 Cu 0.85672(5) 0.71343(5) 0.13350(2)
Cu4 Cu 0.85672(2) 0.14328(5) 0.13350(2)
C7 C 0.9031(3) 0.3868(4) 0.11534(14)
C10 C 0.9358(3) 0.4042(4) 0.07697(13)
H3 H 0.9472 0.3669 0.0639
C16 C 0.8807(3) 0.3064(4) 0.13567(14)
O4 O 0.85017(18) 0.29522(25) 0.17093(9)
O7 O 0.70478(25) 0.55495(17) 0.17093(9)
O8 O 0.70478(25) 0.14983(18) 0.17093(9)
O9 O 0.89112(18) 0.25518(25) 0.11497(9)
O12 O 0.92185(25) 0.69739(18) 0.21836(9)
O13 O 0.77555(18) 0.69739(18) 0.21836(9)
O14 O 0.92185(25) 0.22445(18) 0.21836(9)
O15 O 0.77555(18) 0.07815(25) 0.21836(9)
O16 O 0.77392(16) 0.22612(34) 0.25478(14)
Cu1_2 Cu 0.38010(5) 0.19005(5) 0.19983(2)
C1_2 C 0.4837(3) 0.3868(4) 0.11534(14)
C2_2 C 0.4684(3) 0.4042(4) 0.07697(13)
H1_2 H 0.4197 0.3669 0.0639
C3_2 C 0.5237(2) 0.4762(5) 0.0571(2)
C4_2 C 0.5065(3) 0.4936(6) 0.01668(18)
C5_2 C 0.55675(18) 0.44325(44) 0.13514(18)
H2_2 H 0.5677 0.4323 0.1613
C6_2 C 0.4257(3) 0.3064(4) 0.13567(14)
O1_2 O 0.44505(17) 0.29522(25) 0.17093(9)
O2_2 O 0.36406(18) 0.25518(25) 0.11497(9)
O3_2 O 0.4522(3) 0.22612(34) 0.25478(14)
Cu3_2 Cu 0.28657(5) 0.14328(7) 0.13350(2)
C7_2 C 0.6132(4) 0.5163(5) 0.11534(14)
C10_2 C 0.5958(4) 0.5316(5) 0.07697(13)
H3_2 H 0.6331 0.5803 0.0639
C16_2 C 0.6936(4) 0.5743(5) 0.13567(14)
O7_2 O 0.44505(17) 0.14983(30) 0.17093(9)
O9_2 O 0.74482(25) 0.63594(31) 0.11497(9)
O12_2 O 0.30261(18) 0.22445(31) 0.21836(9)
O13_2 O 0.30261(18) 0.07815(25) 0.21836(9)
Cu5_2 Cu 0.61990(5) 0.80995(7) 0.80017(2)
Cu6_2 Cu 0.71343(5) 0.85672(5) 0.86650(2)
C8_2 C 0.3868(4) 0.4837(5) 0.88466(14)
C9_2 C 0.5163(3) 0.6132(4) 0.88466(14)
C11_2 C 0.4042(4) 0.4684(5) 0.92303(13)
C12_2 C 0.5316(3) 0.5958(4) 0.92303(13)
H4_2 H 0.5803 0.6331 0.9361
H5_2 H 0.3669 0.4197 0.9361
C13_2 C 0.4762(5) 0.5237(7) 0.9429(2)
C14_2 C 0.4936(6) 0.5065(8) 0.98332(18)
C15_2 C 0.44325(44) 0.55675(59) 0.86486(18)
H6_2 H 0.4323 0.5677 0.8387
C17_2 C 0.5743(3) 0.6936(4) 0.86433(14)
C18_2 C 0.3064(4) 0.4257(5) 0.86433(14)
O5_2 O 0.55495(17) 0.70478(25) 0.82907(9)
O6_2 O 0.29522(25) 0.44505(31) 0.82907(9)
O10_2 O 0.63594(18) 0.74482(25) 0.88503(9)
O11_2 O 0.25518(25) 0.36406(31) 0.88503(9)
C1_3 C 0.6132(4) 0.0969(3) 0.11534(14)
C2_3 C 0.5958(4) 0.0642(3) 0.07697(13)
H1_3 H 0.6331 0.0528 0.0639
C3_3 C 0.5238(5) 0.0475(5) 0.0571(2)
C4_3 C 0.5064(6) 0.0129(5) 0.01668(18)
C5_3 C 0.55675(44) 0.1135(4) 0.13514(18)
H2_3 H 0.5677 0.1354 0.1613
C6_3 C 0.6936(4) 0.1193(3) 0.13567(14)
O2_3 O 0.74482(25) 0.10888(18) 0.11497(9)
C7_3 C 0.4837(5) 0.0969(3) 0.11534(14)
C10_3 C 0.4684(5) 0.0642(3) 0.07697(13)
H3_3 H 0.4197 0.0528 0.0639
C16_3 C 0.4257(5) 0.1193(3) 0.13567(14)
O9_3 O 0.36406(31) 0.10888(18) 0.11497(9)
C8_3 C 0.5163(5) 0.9031(3) 0.88466(14)
C9_3 C 0.3868(4) 0.9031(3) 0.88466(14)
C11_3 C 0.5316(5) 0.9358(3) 0.92303(13)
C12_3 C 0.4042(4) 0.9358(3) 0.92303(13)
H4_3 H 0.3669 0.9472 0.9361
H5_3 H 0.5803 0.9472 0.9361
C13_3 C 0.4763(7) 0.9525(5) 0.9429(2)
C14_3 C 0.4935(8) 0.9871(5) 0.98332(18)
C15_3 C 0.44325(59) 0.8865(4) 0.86486(18)
H6_3 H 0.4323 0.8646 0.8387
C17_3 C 0.3064(4) 0.8807(3) 0.86433(14)
C18_3 C 0.5743(5) 0.8807(3) 0.86433(14)
O5_3 O 0.29522(25) 0.85017(18) 0.82907(9)
O6_3 O 0.55495(31) 0.85017(18) 0.82907(9)
O10_3 O 0.25518(25) 0.89112(18) 0.88503(9)
O11_3 O 0.63594(31) 0.89112(18) 0.88503(9)
O3_3 O 0.5478(3) 0.77392(16) 0.74522(14)
O12_3 O 0.69739(18) 0.92185(25) 0.78164(9)
O13_3 O 0.69739(18) 0.77555(18) 0.78164(9)
O14_2 O 0.22445(18) 0.92185(25) 0.78164(9)
O15_2 O 0.07815(25) 0.77555(18) 0.78164(9)
O16_2 O 0.22612(34) 0.77392(16) 0.74522(14)
O3_4 O 0.22612(34) 0.4522(3) 0.74522(14)
O12_4 O 0.22445(31) 0.30261(18) 0.78164(9)
O13_4 O 0.07815(25) 0.30261(18) 0.78164(9)
Cu3_3 Cu 0.52338(5) 0.04677(5) 0.46684(2)
C18_4 C 0.7860(3) 0.0269(4) 0.19766(14)
O6_4 O 0.81650(18) 0.03811(25) 0.16240(9)
O12_5 O 0.58851(25) 0.03073(18) 0.55170(9)
O13_5 O 0.44221(18) 0.03073(18) 0.55170(9)
Cu1_3 Cu 0.47662(2) 0.95323(5) 0.53316(2)
C1_4 C 0.5698(3) 0.8496(3) 0.44867(14)
C2_4 C 0.6025(3) 0.8649(3) 0.41030(13)
H1_4 H 0.6139 0.9136 0.3972
C3_4 C 0.6192(5) 0.8096(2) 0.3904(2)
C4_4 C 0.6538(5) 0.8268(3) 0.35001(18)
C5_4 C 0.5532(4) 0.77658(18) 0.46847(18)
H2_4 H 0.5313 0.7656 0.4946
C6_4 C 0.5474(3) 0.9076(3) 0.46900(14)
O1_3 O 0.51684(18) 0.88828(17) 0.50426(9)
O2_4 O 0.55779(18) 0.96927(18) 0.44830(9)
O3_5 O 0.44059(16) 0.8811(3) 0.58811(14)
Cu2_2 Cu 0.47662(5) 0.52338(2) 0.53316(2)
Cu4_2 Cu 0.52338(2) 0.47662(5) 0.46684(2)
C7_4 C 0.5698(3) 0.7201(4) 0.44867(14)
C8_4 C 0.7636(3) 0.9465(4) 0.21799(14)
C9_4 C 0.7636(3) 0.8170(3) 0.21799(14)
C10_4 C 0.6025(3) 0.7375(4) 0.41030(13)
C11_4 C 0.7309(3) 0.9291(4) 0.25636(13)
C12_4 C 0.7309(3) 0.8017(3) 0.25636(13)
H3_4 H 0.6139 0.7002 0.3972
H4_4 H 0.7195 0.7530 0.2694
H5_4 H 0.7195 0.9664 0.2694
C13_4 C 0.7142(5) 0.8571(5) 0.2762(2)
C14_4 C 0.6796(5) 0.8397(6) 0.31665(18)
C15_4 C 0.7802(4) 0.89008(44) 0.19819(18)
H6_4 H 0.8021 0.9010 0.1720
C16_4 C 0.5474(3) 0.6397(4) 0.46900(14)
C17_4 C 0.7860(3) 0.7590(3) 0.19766(14)
O4_2 O 0.51684(18) 0.62855(25) 0.50426(9)
O5_4 O 0.81650(18) 0.77838(17) 0.16240(9)
O7_3 O 0.37145(25) 0.88828(17) 0.50426(9)
O8_2 O 0.37145(25) 0.48316(18) 0.50426(9)
O9_4 O 0.55779(18) 0.58851(25) 0.44830(9)
O14_3 O 0.58851(25) 0.55779(18) 0.55170(9)
O15_3 O 0.44221(18) 0.41149(25) 0.55170(9)
O16_3 O 0.44059(16) 0.55945(34) 0.58811(14)
C17_5 C 0.2410(3) 0.0269(4) 0.19766(14)
O5_5 O 0.22162(17) 0.03811(25) 0.16240(9)
Cu1_4 Cu 0.04677(5) 0.52338(5) 0.53316(2)
C1_5 C 0.1504(3) 0.7201(4) 0.44867(14)
C2_5 C 0.1351(3) 0.7375(4) 0.41030(13)
H1_5 H 0.0864 0.7002 0.3972
C3_5 C 0.1904(2) 0.8095(5) 0.3904(2)
C4_5 C 0.1732(3) 0.8269(6) 0.35001(18)
C5_5 C 0.22342(18) 0.77658(44) 0.46847(18)
H2_5 H 0.2344 0.7656 0.4946
C6_5 C 0.0924(3) 0.6397(4) 0.46900(14)
O1_4 O 0.11172(17) 0.62855(25) 0.50426(9)
O2_5 O 0.03073(18) 0.58851(25) 0.44830(9)
O3_6 O 0.1189(3) 0.55945(34) 0.58811(14)
C7_5 C 0.2799(4) 0.8496(5) 0.44867(14)
C8_5 C 0.0535(4) 0.8170(5) 0.21799(14)
C9_5 C 0.1830(3) 0.9465(4) 0.21799(14)
C10_5 C 0.2625(4) 0.8649(5) 0.41030(13)
C11_5 C 0.0709(4) 0.8017(5) 0.25636(13)
C12_5 C 0.1983(3) 0.9291(4) 0.25636(13)
H3_5 H 0.2998 0.9136 0.3972
H4_5 H 0.2470 0.9664 0.2694
H5_5 H 0.0336 0.7530 0.2694
C13_5 C 0.1429(5) 0.8570(7) 0.2762(2)
C14_5 C 0.1603(6) 0.8398(8) 0.31665(18)
C15_5 C 0.10992(44) 0.89008(59) 0.19819(18)
H6_5 H 0.0990 0.9010 0.1720
C16_5 C 0.3603(4) 0.9076(5) 0.46900(14)
O7_4 O 0.11172(17) 0.48316(30) 0.50426(9)
O9_5 O 0.41149(25) 0.96927(31) 0.44830(9)
Cu3_4 Cu 0.95323(5) 0.47662(7) 0.46684(2)
C18_5 C 0.9731(4) 0.7590(5) 0.19766(14)
O6_5 O 0.96189(25) 0.77838(31) 0.16240(9)
O12_6 O 0.96927(18) 0.55779(31) 0.55170(9)
O13_6 O 0.96927(18) 0.41149(25) 0.55170(9)
C1_6 C 0.2799(4) 0.4302(3) 0.44867(14)
C2_6 C 0.2625(4) 0.3975(3) 0.41030(13)
H1_6 H 0.2998 0.3861 0.3972
C3_6 C 0.1905(5) 0.3808(5) 0.3904(2)
C4_6 C 0.1731(6) 0.3462(5) 0.35001(18)
C5_6 C 0.22342(44) 0.4468(4) 0.46847(18)
H2_6 H 0.2344 0.4687 0.4946
C6_6 C 0.3603(4) 0.4526(3) 0.46900(14)
O2_6 O 0.41149(25) 0.44221(18) 0.44830(9)
C7_6 C 0.1504(5) 0.4302(3) 0.44867(14)
C8_6 C 0.1830(5) 0.2364(3) 0.21799(14)
C9_6 C 0.0535(4) 0.2364(3) 0.21799(14)
C10_6 C 0.1351(5) 0.3975(3) 0.41030(13)
C11_6 C 0.1983(5) 0.2691(3) 0.25636(13)
C12_6 C 0.0709(4) 0.2691(3) 0.25636(13)
H3_6 H 0.0864 0.3861 0.3972
H4_6 H 0.0336 0.2805 0.2694
H5_6 H 0.2470 0.2805 0.2694
C13_6 C 0.1430(7) 0.2858(5) 0.2762(2)
C14_6 C 0.1602(8) 0.3204(5) 0.31665(18)
C15_6 C 0.10992(59) 0.2198(4) 0.19819(18)
H6_6 H 0.0990 0.1979 0.1720
C16_6 C 0.0924(5) 0.4526(3) 0.46900(14)
C18_6 C 0.2410(5) 0.2140(3) 0.19766(14)
O6_6 O 0.22162(31) 0.18350(18) 0.16240(9)
O9_6 O 0.03073(31) 0.44221(18) 0.44830(9)
C17_6 C 0.9731(4) 0.2140(3) 0.19766(14)
O5_6 O 0.96189(25) 0.18350(18) 0.16240(9)
O3_7 O 0.2145(3) 0.10725(16) 0.07855(14)
O16_4 O 0.89279(34) 0.10725(16) 0.07855(14)
O3_8 O 0.89279(34) 0.7855(3) 0.07855(14)
C1_7 C 0.2364(3) 0.1830(3) 0.78201(14)
C2_7 C 0.2691(3) 0.1983(3) 0.74364(13)
H1_7 H 0.2805 0.2470 0.7306
C3_7 C 0.2858(5) 0.1430(2) 0.7238(2)
C4_7 C 0.3204(5) 0.1602(3) 0.68335(18)
C5_7 C 0.2198(4) 0.10992(18) 0.80181(18)
H2_7 H 0.1979 0.0990 0.8280
C6_7 C 0.2140(3) 0.2410(3) 0.80234(14)
O1_5 O 0.18350(18) 0.22162(17) 0.83760(9)
O3_9 O 0.10725(16) 0.2145(3) 0.92145(14)
C7_7 C 0.2364(3) 0.0535(4) 0.78201(14)
C8_7 C 0.4302(3) 0.2799(4) 0.55133(14)
C9_7 C 0.4302(3) 0.1504(3) 0.55133(14)
C10_7 C 0.2691(3) 0.0709(4) 0.74364(13)
C11_7 C 0.3975(3) 0.2625(4) 0.58970(13)
C12_7 C 0.3975(3) 0.1351(3) 0.58970(13)
H3_7 H 0.2805 0.0336 0.7306
H4_7 H 0.3861 0.0864 0.6028
H5_7 H 0.3861 0.2998 0.6028
C13_7 C 0.3808(5) 0.1905(5) 0.6096(2)
C14_7 C 0.3462(5) 0.1731(6) 0.64999(18)
C15_7 C 0.4468(4) 0.22342(44) 0.53153(18)
H6_7 H 0.4687 0.2344 0.5054
C17_7 C 0.4526(3) 0.0924(3) 0.53100(14)
C18_7 C 0.4526(3) 0.3603(4) 0.53100(14)
O5_7 O 0.48316(18) 0.11172(17) 0.49574(9)
O6_7 O 0.48316(18) 0.37145(25) 0.49574(9)
O7_5 O 0.03811(25) 0.22162(17) 0.83760(9)
C16_7 C 0.2140(3) 0.9731(4) 0.80234(14)
O4_3 O 0.18350(18) 0.96189(25) 0.83760(9)
O8_3 O 0.03811(25) 0.81650(18) 0.83760(9)
O16_5 O 0.10725(16) 0.89279(34) 0.92145(14)
C16_8 C 0.0269(4) 0.2410(5) 0.80234(14)
C1_8 C 0.8170(3) 0.0535(4) 0.78201(14)
C2_8 C 0.8017(3) 0.0709(4) 0.74364(13)
H1_8 H 0.7530 0.0336 0.7306
C3_8 C 0.8570(2) 0.1429(5) 0.7238(2)
C4_8 C 0.8398(3) 0.1603(6) 0.68335(18)
C5_8 C 0.89008(18) 0.10992(44) 0.80181(18)
H2_8 H 0.9010 0.0990 0.8280
C7_8 C 0.9465(4) 0.1830(5) 0.78201(14)
C8_8 C 0.7201(4) 0.1504(5) 0.55133(14)
C9_8 C 0.8496(3) 0.2799(4) 0.55133(14)
C10_8 C 0.9291(4) 0.1983(5) 0.74364(13)
C11_8 C 0.7375(4) 0.1351(5) 0.58970(13)
C12_8 C 0.8649(3) 0.2625(4) 0.58970(13)
H3_8 H 0.9664 0.2470 0.7306
H4_8 H 0.9136 0.2998 0.6028
H5_8 H 0.7002 0.0864 0.6028
C13_8 C 0.8095(5) 0.1904(7) 0.6096(2)
C14_8 C 0.8269(6) 0.1732(8) 0.64999(18)
C15_8 C 0.77658(44) 0.22342(59) 0.53153(18)
H6_8 H 0.7656 0.2344 0.5054
C17_8 C 0.9076(3) 0.3603(4) 0.53100(14)
C18_8 C 0.6397(4) 0.0924(5) 0.53100(14)
O5_8 O 0.88828(17) 0.37145(25) 0.49574(9)
O6_8 O 0.62855(25) 0.11172(31) 0.49574(9)
C6_8 C 0.7590(3) 0.9731(4) 0.80234(14)
O1_6 O 0.77838(17) 0.96189(25) 0.83760(9)
O3_10 O 0.7855(3) 0.89279(34) 0.92145(14)
O7_6 O 0.77838(17) 0.81650(30) 0.83760(9)
C6_9 C 0.0269(4) 0.7860(3) 0.80234(14)
C1_9 C 0.9465(4) 0.7636(3) 0.78201(14)
C2_9 C 0.9291(4) 0.7309(3) 0.74364(13)
H1_9 H 0.9664 0.7195 0.7306
C3_9 C 0.8571(5) 0.7142(5) 0.7238(2)
C4_9 C 0.8397(6) 0.6796(5) 0.68335(18)
C5_9 C 0.89008(44) 0.7802(4) 0.80181(18)
H2_9 H 0.9010 0.8021 0.8280
C7_9 C 0.8170(5) 0.7636(3) 0.78201(14)
C8_9 C 0.8496(5) 0.5698(3) 0.55133(14)
C9_9 C 0.7201(4) 0.5698(3) 0.55133(14)
C10_9 C 0.8017(5) 0.7309(3) 0.74364(13)
C11_9 C 0.8649(5) 0.6025(3) 0.58970(13)
C12_9 C 0.7375(4) 0.6025(3) 0.58970(13)
H3_9 H 0.7530 0.7195 0.7306
H4_9 H 0.7002 0.6139 0.6028
H5_9 H 0.9136 0.6139 0.6028
C13_9 C 0.8096(7) 0.6192(5) 0.6096(2)
C14_9 C 0.8268(8) 0.6538(5) 0.64999(18)
C15_9 C 0.77658(59) 0.5532(4) 0.53153(18)
H6_9 H 0.7656 0.5313 0.5054
C16_9 C 0.7590(5) 0.7860(3) 0.80234(14)
C17_9 C 0.6397(4) 0.5474(3) 0.53100(14)
C18_9 C 0.9076(5) 0.5474(3) 0.53100(14)
O5_9 O 0.62855(25) 0.51684(18) 0.49574(9)
O6_9 O 0.88828(31) 0.51684(18) 0.49574(9)
O3_11 O 0.8811(3) 0.44059(16) 0.41189(14)
O16_6 O 0.55945(34) 0.44059(16) 0.41189(14)
O3_12 O 0.55945(34) 0.1189(3) 0.41189(14)
loop_
_geom_bond_atom_site_label_1
_geom_bond_atom_site_label_2
_geom_bond_site_symmetry_1
_geom_bond_site_symmetry_2
Cu5 O5 1_555 1_555
Cu6 O10 1_555 1_555
Cu7 O6 1_555 1_555
Cu8 O11 1_555 1_555
C8 C11 1_555 1_555
C9 C12 1_555 1_555
C11 H5 1_555 1_555
C12 H4 1_555 1_555
C13 C11 1_555 1_555
C15 C8 1_555 1_555
H6 C15 1_555 1_555
C17 C9 1_555 1_555
C18 C8 1_555 1_555
O5 C17 1_555 1_555
O6 C18 1_555 1_555
O10 C17 1_555 1_555
O11 C18 1_555 1_555
C9 C15 1_555 1_555
C12 C13 1_555 1_555
C13 C14 1_555 1_555
Cu1 O1 1_555 1_555
C1 C2 1_555 1_555
C2 H1 1_555 1_555
C3 C2 1_555 1_555
C4 C3 1_555 1_555
C5 C1 1_555 1_555
H2 C5 1_555 1_555
C6 C1 1_555 1_555
O1 C6 1_555 1_555
O2 C6 1_555 1_555
O3 Cu1 1_555 1_555
Cu2 O4 1_555 1_555
Cu3 O2 1_555 1_555
Cu4 O9 1_555 1_555
C7 C5 1_555 1_555
C10 C3 1_555 1_555
H3 C10 1_555 1_555
C16 C7 1_555 1_555
O4 C16 1_555 1_555
O7 Cu1 1_555 1_555
O8 Cu2 1_555 1_555
O9 C16 1_555 1_555
O12 Cu1 1_555 1_555
O13 Cu1 1_555 1_555
O14 Cu2 1_555 1_555
O15 Cu2 1_555 1_555
O16 Cu2 1_555 1_555
C7 C10 1_555 1_555
Cu1_2 O1_2 1_555 1_555
C1_2 C2_2 1_555 1_555
C2_2 H1_2 1_555 1_555
C3_2 C2_2 1_555 1_555
C4_2 C3_2 1_555 1_555
C5_2 C1_2 1_555 1_555
H2_2 C5_2 1_555 1_555
C6_2 C1_2 1_555 1_555
O1_2 C6_2 1_555 1_555
O2_2 C6_2 1_555 1_555
O3_2 Cu1_2 1_555 1_555
Cu3_2 O2_2 1_555 1_555
Cu3 O9_2 1_555 1_555
C7_2 C5_2 1_555 1_555
C10_2 C3_2 1_555 1_555
H3_2 C10_2 1_555 1_555
C16_2 C7_2 1_555 1_555
O7 C16_2 1_555 1_555
O7_2 Cu1_2 1_555 1_555
O9_2 C16_2 1_555 1_555
O12_2 Cu1_2 1_555 1_555
O13_2 Cu1_2 1_555 1_555
C7_2 C10_2 1_555 1_555
Cu5_2 O5_2 1_555 1_555
Cu6_2 O10_2 1_555 1_555
Cu5 O6_2 1_555 1_555
Cu6 O11_2 1_555 1_555
C8_2 C11_2 1_555 1_555
C9_2 C12_2 1_555 1_555
C11_2 H5_2 1_555 1_555
C12_2 H4_2 1_555 1_555
C13_2 C11_2 1_555 1_555
C15_2 C8_2 1_555 1_555
H6_2 C15_2 1_555 1_555
C17_2 C9_2 1_555 1_555
C18_2 C8_2 1_555 1_555
O5_2 C17_2 1_555 1_555
O6_2 C18_2 1_555 1_555
O10_2 C17_2 1_555 1_555
O11_2 C18_2 1_555 1_555
C9_2 C15_2 1_555 1_555
C12_2 C13_2 1_555 1_555
C13_2 C14_2 1_555 1_555
C1_3 C2_3 1_555 1_555
C2_3 H1_3 1_555 1_555
C3_3 C2_3 1_555 1_555
C4_3 C3_3 1_555 1_555
C5_3 C1_3 1_555 1_555
H2_3 C5_3 1_555 1_555
C6_3 C1_3 1_555 1_555
O8 C6_3 1_555 1_555
O2_3 C6_3 1_555 1_555
Cu4 O2_3 1_555 1_555
Cu3_2 O9_3 1_555 1_555
C7_3 C5_3 1_555 1_555
C10_3 C3_3 1_555 1_555
H3_3 C10_3 1_555 1_555
C16_3 C7_3 1_555 1_555
O7_2 C16_3 1_555 1_555
O9_3 C16_3 1_555 1_555
C7_3 C10_3 1_555 1_555
Cu7 O5_3 1_555 1_555
Cu8 O10_3 1_555 1_555
Cu5_2 O6_3 1_555 1_555
Cu6_2 O11_3 1_555 1_555
C8_3 C11_3 1_555 1_555
C9_3 C12_3 1_555 1_555
C11_3 H5_3 1_555 1_555
C12_3 H4_3 1_555 1_555
C13_3 C11_3 1_555 1_555
C15_3 C8_3 1_555 1_555
H6_3 C15_3 1_555 1_555
C17_3 C9_3 1_555 1_555
C18_3 C8_3 1_555 1_555
O5_3 C17_3 1_555 1_555
O6_3 C18_3 1_555 1_555
O10_3 C17_3 1_555 1_555
O11_3 C18_3 1_555 1_555
C9_3 C15_3 1_555 1_555
C12_3 C13_3 1_555 1_555
C13_3 C14_3 1_555 1_555
O3_3 Cu5_2 1_555 1_555
O12_3 Cu5_2 1_555 1_555
O13_3 Cu5_2 1_555 1_555
O14_2 Cu7 1_555 1_555
O15_2 Cu7 1_555 1_555
O16_2 Cu7 1_555 1_555
O3_4 Cu5 1_555 1_555
O12_4 Cu5 1_555 1_555
O13_4 Cu5 1_555 1_555
Cu4 O6_4 1_555 1_555
O6_4 C18_4 1_555 1_555
O15 C18_4 1_555 1_555
Cu1_3 O1_3 1_555 1_555
C1_4 C2_4 1_555 1_555
C2_4 H1_4 1_555 1_555
C3_4 C2_4 1_555 1_555
C4_4 C3_4 1_555 1_555
C5_4 C1_4 1_555 1_555
H2_4 C5_4 1_555 1_555
C6_4 C1_4 1_555 1_555
O1_3 C6_4 1_555 1_555
O2_4 C6_4 1_555 1_555
O3_5 Cu1_3 1_555 1_555
Cu2_2 O4_2 1_555 1_555
Cu4_2 O9_4 1_555 1_555
Cu3 O5_4 1_555 1_555
C7_4 C5_4 1_555 1_555
C8_4 C11_4 1_555 1_555
C9_4 C12_4 1_555 1_555
C10_4 C3_4 1_555 1_555
C11_4 H5_4 1_555 1_555
C12_4 H4_4 1_555 1_555
H3_4 C10_4 1_555 1_555
C13_4 C11_4 1_555 1_555
C14_4 C4_4 1_555 1_555
C15_4 C8_4 1_555 1_555
H6_4 C15_4 1_555 1_555
C16_4 C7_4 1_555 1_555
C17_4 C9_4 1_555 1_555
O4_2 C16_4 1_555 1_555
O5_4 C17_4 1_555 1_555
O7_3 Cu1_3 1_555 1_555
O8_2 Cu2_2 1_555 1_555
O9_4 C16_4 1_555 1_555
O13 C17_4 1_555 1_555
O14_3 Cu2_2 1_555 1_555
O15_3 Cu2_2 1_555 1_555
O16_3 Cu2_2 1_555 1_555
C7_4 C10_4 1_555 1_555
C9_4 C15_4 1_555 1_555
C12_4 C13_4 1_555 1_555
C13_4 C14_4 1_555 1_555
Cu3_2 O5_5 1_555 1_555
O5_5 C17_5 1_555 1_555
O13_2 C17_5 1_555 1_555
Cu1_4 O1_4 1_555 1_555
C1_5 C2_5 1_555 1_555
C2_5 H1_5 1_555 1_555
C3_5 C2_5 1_555 1_555
C4_5 C3_5 1_555 1_555
C5_5 C1_5 1_555 1_555
H2_5 C5_5 1_555 1_555
C6_5 C1_5 1_555 1_555
O1_4 C6_5 1_555 1_555
O2_5 C6_5 1_555 1_555
O3_6 Cu1_4 1_555 1_555
C7_5 C5_5 1_555 1_555
C8_5 C11_5 1_555 1_555
C9_5 C12_5 1_555 1_555
C10_5 C3_5 1_555 1_555
C11_5 H5_5 1_555 1_555
C12_5 H4_5 1_555 1_555
H3_5 C10_5 1_555 1_555
C13_5 C11_5 1_555 1_555
C14_5 C4_5 1_555 1_555
C15_5 C8_5 1_555 1_555
H6_5 C15_5 1_555 1_555
C16_5 C7_5 1_555 1_555
O7_3 C16_5 1_555 1_555
O7_4 Cu1_4 1_555 1_555
O9_5 C16_5 1_555 1_555
C7_5 C10_5 1_555 1_555
C9_5 C15_5 1_555 1_555
C12_5 C13_5 1_555 1_555
C13_5 C14_5 1_555 1_555
Cu3 O6_5 1_555 1_555
O6_5 C18_5 1_555 1_555
O12 C18_5 1_555 1_555
C1_6 C2_6 1_555 1_555
C2_6 H1_6 1_555 1_555
C3_6 C2_6 1_555 1_555
C4_6 C3_6 1_555 1_555
C5_6 C1_6 1_555 1_555
H2_6 C5_6 1_555 1_555
C6_6 C1_6 1_555 1_555
O8_2 C6_6 1_555 1_555
O2_6 C6_6 1_555 1_555
Cu4_2 O2_6 1_555 1_555
Cu3_2 O6_6 1_555 1_555
C7_6 C5_6 1_555 1_555
C8_6 C11_6 1_555 1_555
C9_6 C12_6 1_555 1_555
C10_6 C3_6 1_555 1_555
C11_6 H5_6 1_555 1_555
C12_6 H4_6 1_555 1_555
H3_6 C10_6 1_555 1_555
C13_6 C11_6 1_555 1_555
C14_6 C4_6 1_555 1_555
C15_6 C8_6 1_555 1_555
H6_6 C15_6 1_555 1_555
C16_6 C7_6 1_555 1_555
C18_6 C8_6 1_555 1_555
O7_4 C16_6 1_555 1_555
O6_6 C18_6 1_555 1_555
O9_6 C16_6 1_555 1_555
O12_2 C18_6 1_555 1_555
C7_6 C10_6 1_555 1_555
C9_6 C15_6 1_555 1_555
C12_6 C13_6 1_555 1_555
C13_6 C14_6 1_555 1_555
Cu4 O5_6 1_555 1_555
O5_6 C17_6 1_555 1_555
O14 C17_6 1_555 1_555
O3_7 Cu3_2 1_555 1_555
O16_4 Cu4 1_555 1_555
O3_8 Cu3 1_555 1_555
Cu6 O1_5 1_555 1_555
C1_7 C2_7 1_555 1_555
C2_7 H1_7 1_555 1_555
C3_7 C2_7 1_555 1_555
C4_7 C3_7 1_555 1_555
C5_7 C1_7 1_555 1_555
H2_7 C5_7 1_555 1_555
C6_7 C1_7 1_555 1_555
O1_5 C6_7 1_555 1_555
O12_4 C6_7 1_555 1_555
O3_9 Cu6 1_555 1_555
Cu3_3 O5_7 1_555 1_555
Cu4_2 O6_7 1_555 1_555
C7_7 C5_7 1_555 1_555
C8_7 C11_7 1_555 1_555
C9_7 C12_7 1_555 1_555
C10_7 C3_7 1_555 1_555
C11_7 H5_7 1_555 1_555
C12_7 H4_7 1_555 1_555
H3_7 C10_7 1_555 1_555
C13_7 C11_7 1_555 1_555
C14_7 C4_7 1_555 1_555
C15_7 C8_7 1_555 1_555
H6_7 C15_7 1_555 1_555
C17_7 C9_7 1_555 1_555
C18_7 C8_7 1_555 1_555
O5_7 C17_7 1_555 1_555
O6_7 C18_7 1_555 1_555
O7_5 Cu6 1_555 1_555
O13_5 C17_7 1_555 1_555
O15_3 C18_7 1_555 1_555
C7_7 C10_7 1_555 1_555
C9_7 C15_7 1_555 1_555
C12_7 C13_7 1_555 1_555
C13_7 C14_7 1_555 1_555
Cu8 O4_3 1_555 1_555
O4_3 C16_7 1_555 1_555
O8_3 Cu8 1_555 1_555
O14_2 C16_7 1_555 1_555
O16_5 Cu8 1_555 1_555
O7_5 C16_8 1_555 1_555
O13_4 C16_8 1_555 1_555
C1_8 C2_8 1_555 1_555
C2_8 H1_8 1_555 1_555
C3_8 C2_8 1_555 1_555
C4_8 C3_8 1_555 1_555
C5_8 C1_8 1_555 1_555
H2_8 C5_8 1_555 1_555
Cu3_4 O5_8 1_555 1_555
Cu3_3 O6_8 1_555 1_555
C7_8 C5_8 1_555 1_555
C8_8 C11_8 1_555 1_555
C9_8 C12_8 1_555 1_555
C10_8 C3_8 1_555 1_555
C11_8 H5_8 1_555 1_555
C12_8 H4_8 1_555 1_555
H3_8 C10_8 1_555 1_555
C13_8 C11_8 1_555 1_555
C14_8 C4_8 1_555 1_555
C15_8 C8_8 1_555 1_555
H6_8 C15_8 1_555 1_555
C17_8 C9_8 1_555 1_555
C18_8 C8_8 1_555 1_555
O5_8 C17_8 1_555 1_555
O6_8 C18_8 1_555 1_555
O13_6 C17_8 1_555 1_555
O12_5 C18_8 1_555 1_555
C7_8 C10_8 1_555 1_555
C9_8 C15_8 1_555 1_555
C12_8 C13_8 1_555 1_555
C13_8 C14_8 1_555 1_555
Cu6_2 O1_6 1_555 1_555
O1_6 C6_8 1_555 1_555
O12_3 C6_8 1_555 1_555
O3_10 Cu6_2 1_555 1_555
O7_6 Cu6_2 1_555 1_555
O8_3 C6_9 1_555 1_555
O15_2 C6_9 1_555 1_555
C1_9 C2_9 1_555 1_555
C2_9 H1_9 1_555 1_555
C3_9 C2_9 1_555 1_555
C4_9 C3_9 1_555 1_555
C5_9 C1_9 1_555 1_555
H2_9 C5_9 1_555 1_555
Cu4_2 O5_9 1_555 1_555
Cu3_4 O6_9 1_555 1_555
C7_9 C5_9 1_555 1_555
C8_9 C11_9 1_555 1_555
C9_9 C12_9 1_555 1_555
C10_9 C3_9 1_555 1_555
C11_9 H5_9 1_555 1_555
C12_9 H4_9 1_555 1_555
H3_9 C10_9 1_555 1_555
C13_9 C11_9 1_555 1_555
C14_9 C4_9 1_555 1_555
C15_9 C8_9 1_555 1_555
H6_9 C15_9 1_555 1_555
C16_9 C7_9 1_555 1_555
C17_9 C9_9 1_555 1_555
C18_9 C8_9 1_555 1_555
O7_6 C16_9 1_555 1_555
O5_9 C17_9 1_555 1_555
O6_9 C18_9 1_555 1_555
O13_3 C16_9 1_555 1_555
O14_3 C17_9 1_555 1_555
O12_6 C18_9 1_555 1_555
C7_9 C10_9 1_555 1_555
C9_9 C15_9 1_555 1_555
C12_9 C13_9 1_555 1_555
C13_9 C14_9 1_555 1_555
O3_11 Cu3_4 1_555 1_555
O16_6 Cu4_2 1_555 1_555
O3_12 Cu3_3 1_555 1_555

#END
