
###############################################################################
#
# This file contains modified crystal structure data generated from the
# MOF subset of the Cambridge Structural Database (CSD) v543 
# hosted by the Cambridge Crystallographic Data Centre (CCDC).
#
# This work is licensed under the Creative Commons
# Attribution-NonCommercial-ShareAlike 4.0 International License.
# To view a copy of this license, visit
# http://creativecommons.org/licenses/by-nc-sa/4.0/
# or send a letter to
# Creative Commons, PO Box 1866, Mountain View, CA 94042, USA.
#
# CIF created using the CSD Python API on 29 September 2022
# The structure has been converted into the P1 space group
# The structure has a 3D framework
# The original CSD entry YUGLOE is in the orthorhombic crystal system
# The framework has been calculated to contain at least 10.0% void space
# The void calculation uses a probe of radius 1.32A, grid spacing 0.4
#
###############################################################################

data_YUGLOE
_chemical_formula_moiety         '(C160 H96 Cd8 N48 O32)n'
_symmetry_cell_setting           triclinic
_symmetry_space_group_name_H-M   'P 1'
_symmetry_Int_Tables_number      1
_space_group_name_Hall           'P 1'
loop_
_symmetry_equiv_pos_site_id
_symmetry_equiv_pos_as_xyz
1 x,y,z
_cell_length_a                   14.374(2)
_cell_length_b                   15.700(2)
_cell_length_c                   20.961(3)
_cell_angle_alpha                90
_cell_angle_beta                 90
_cell_angle_gamma                90
_cell_volume                     4730.31
loop_
_atom_site_label
_atom_site_type_symbol
_atom_site_fract_x
_atom_site_fract_y
_atom_site_fract_z
H10 H 0.366864 0.720240 0.033030
C17 C 0.2317(2) 0.7243(2) 0.00458(13)
C20 C 0.1897(2) 0.7220(2) 0.07003(13)
O3 O 0.10236(15) 0.71765(17) 0.07381(12)
O4 O 0.24030(17) 0.72256(18) 0.11819(11)
Cd4 Cd 0.10277(2) 0.71585(2) 0.18517(2)
C1 C 0.3687(3) 0.5209(2) 0.72876(18)
H1 H 0.336079 0.547270 0.761581
C2 C 0.3707(3) 0.4332(2) 0.72941(19)
H2 H 0.339104 0.402746 0.760678
C3 C 0.4207(3) 0.3915(2) 0.68252(16)
C4 C 0.4631(2) 0.4369(2) 0.63686(16)
H3 H 0.494861 0.410579 0.603619
C5 C 0.4575(2) 0.5284(2) 0.64147(14)
H4 H 0.490048 0.559999 0.611321
C6 C 0.4219(3) 0.3006(2) 0.68250(17)
C7 C 0.4240(3) 0.1385(2) 0.68291(17)
C8 C 0.4144(2) 0.0421(2) 0.68397(14)
H5 H 0.338123 0.027150 0.762361
H8 H 0.495937 0.018218 0.605079
C13 C 0.3578(2) 0.71775(19) 0.81999(13)
C14 C 0.3147(2) 0.72144(18) 0.88375(12)
C15 C 0.3663(2) 0.7187(2) 0.93735(15)
H9 H 0.430679 0.715205 0.933482
C16 C 0.3285(2) 0.7210(2) 0.99732(14)
C18 C 0.1767(2) 0.7261(2) 0.94982(14)
H11 H 0.112307 0.727982 0.953598
C19 C 0.2170(2) 0.7251(2) 0.88999(14)
H12 H 0.179694 0.726824 0.853771
Cd1 Cd 0.39723(2) 0.71585(2) 0.68517(2)
N1 N 0.40881(19) 0.57203(19) 0.68598(11)
N2 N 0.3938(2) 0.2578(2) 0.73560(15)
N3 N 0.39098(19) 0.1738(2) 0.73566(15)
N4 N 0.4585(2) 0.1741(2) 0.63175(14)
N5 N 0.4593(2) 0.25773(19) 0.63309(14)
O1 O 0.4416(2) 0.71721(18) 0.81290(10)
O2 O 0.30335(17) 0.71377(15) 0.77139(10)
Cd3 Cd 0.60277(2) 0.71585(2) 0.81483(2)
N7 N 0.4104(2) 0.8717(3) 0.68585(14)
O5 O 0.5584(2) 0.71721(18) 0.68710(10)
O6 O 0.39764(15) 0.71765(17) 0.57381(12)
O7 O 0.25970(17) 0.72256(18) 0.61819(11)
C9 C 0.3687(3) 0.9976(3) 0.73014(18)
C10 C 0.3667(3) 0.9109(2) 0.73026(19)
H6 H 0.334507 0.881110 0.761610
C11 C 0.4544(3) 0.9035(3) 0.64022(19)
H7 H 0.481596 0.869123 0.609274
C12 C 0.4613(3) 0.9922(3) 0.63712(19)
C1_2 C 0.6313(3) 0.5209(2) 0.77124(18)
H1_2 H 0.663921 0.547270 0.738419
C2_2 C 0.6293(3) 0.4332(2) 0.77059(19)
H2_2 H 0.660896 0.402746 0.739322
C3_2 C 0.5793(3) 0.3915(2) 0.81748(16)
C4_2 C 0.5369(2) 0.4369(2) 0.86314(16)
H3_2 H 0.505139 0.410579 0.896381
C5_2 C 0.5425(2) 0.5284(2) 0.85853(14)
H4_2 H 0.509952 0.559999 0.888679
C6_2 C 0.5781(3) 0.3006(2) 0.81750(17)
C7_2 C 0.5760(3) 0.1385(2) 0.81709(17)
C8_2 C 0.5856(2) 0.0421(2) 0.81603(14)
H5_2 H 0.661877 0.027150 0.737639
H8_2 H 0.504063 0.018218 0.894921
C13_2 C 0.6422(2) 0.71775(19) 0.68001(13)
C14_2 C 0.6853(2) 0.72144(18) 0.61625(12)
C15_2 C 0.6337(2) 0.7187(2) 0.56265(15)
H9_2 H 0.569321 0.715205 0.566518
C16_2 C 0.6715(2) 0.7210(2) 0.50268(14)
H10_2 H 0.633136 0.720240 0.466970
C17_2 C 0.7683(2) 0.7243(2) 0.49542(13)
C18_2 C 0.8233(2) 0.7261(2) 0.55018(14)
H11_2 H 0.887693 0.727982 0.546402
C19_2 C 0.7830(2) 0.7251(2) 0.61001(14)
H12_2 H 0.820306 0.726824 0.646229
C20_2 C 0.8103(2) 0.7220(2) 0.42997(13)
N1_2 N 0.59119(19) 0.57203(19) 0.81402(11)
N2_2 N 0.6062(2) 0.2578(2) 0.76440(15)
N3_2 N 0.60902(19) 0.1738(2) 0.76434(15)
N4_2 N 0.5415(2) 0.1741(2) 0.86825(14)
N5_2 N 0.5407(2) 0.25773(19) 0.86691(14)
O2_2 O 0.69665(17) 0.71377(15) 0.72861(10)
O3_2 O 0.89764(15) 0.71765(17) 0.42619(12)
O4_2 O 0.75970(17) 0.72256(18) 0.38181(11)
Cd4_2 Cd 0.89723(2) 0.71585(2) 0.31483(2)
N7_2 N 0.5896(2) 0.8717(3) 0.81415(14)
O6_2 O 0.60236(15) 0.71765(17) 0.92619(12)
O7_2 O 0.74030(17) 0.72256(18) 0.88181(11)
C9_2 C 0.6313(3) 0.9976(3) 0.76986(18)
C10_2 C 0.6333(3) 0.9109(2) 0.76974(19)
H6_2 H 0.665493 0.881110 0.738390
C11_2 C 0.5456(3) 0.9035(3) 0.85978(19)
H7_2 H 0.518404 0.869123 0.890726
C12_2 C 0.5387(3) 0.9922(3) 0.86288(19)
O5_2 O 0.0584(2) 0.71721(18) 0.31290(10)
C1_3 C 0.8687(3) 0.5209(2) 0.27124(18)
H1_3 H 0.836079 0.547270 0.238419
C2_3 C 0.8707(3) 0.4332(2) 0.27059(19)
H2_3 H 0.839104 0.402746 0.239322
C3_3 C 0.9207(3) 0.3915(2) 0.31748(16)
C4_3 C 0.9631(2) 0.4369(2) 0.36314(16)
H3_3 H 0.994861 0.410579 0.396381
C5_3 C 0.9575(2) 0.5284(2) 0.35853(14)
H4_3 H 0.990048 0.559999 0.388679
C6_3 C 0.9219(3) 0.3006(2) 0.31750(17)
C7_3 C 0.9240(3) 0.1385(2) 0.31709(17)
C8_3 C 0.9144(2) 0.0421(2) 0.31603(14)
H5_3 H 0.838123 0.027150 0.237639
H8_3 H 0.995937 0.018218 0.394921
C13_3 C 0.8578(2) 0.71775(19) 0.18001(13)
C14_3 C 0.8147(2) 0.72144(18) 0.11625(12)
C15_3 C 0.8663(2) 0.7187(2) 0.06265(15)
H9_3 H 0.930679 0.715205 0.066518
C16_3 C 0.8285(2) 0.7210(2) 0.00268(14)
C18_3 C 0.6767(2) 0.7261(2) 0.05018(14)
H11_3 H 0.612307 0.727982 0.046402
C19_3 C 0.7170(2) 0.7251(2) 0.11001(14)
H12_3 H 0.679694 0.726824 0.146229
N1_3 N 0.90881(19) 0.57203(19) 0.31402(11)
N2_3 N 0.8938(2) 0.2578(2) 0.26440(15)
N3_3 N 0.89098(19) 0.1738(2) 0.26434(15)
N4_3 N 0.9585(2) 0.1741(2) 0.36825(14)
N5_3 N 0.9593(2) 0.25773(19) 0.36691(14)
O1_2 O 0.9416(2) 0.71721(18) 0.18710(10)
O2_3 O 0.80335(17) 0.71377(15) 0.22861(10)
N7_3 N 0.9104(2) 0.8717(3) 0.31415(14)
H10_3 H 0.866864 0.720240 0.966970
C17_3 C 0.7317(2) 0.7243(2) 0.99542(13)
C20_3 C 0.6897(2) 0.7220(2) 0.92997(13)
C9_3 C 0.8687(3) 0.9976(3) 0.26986(18)
C10_3 C 0.8667(3) 0.9109(2) 0.26974(19)
H6_3 H 0.834507 0.881110 0.238390
C11_3 C 0.9544(3) 0.9035(3) 0.35978(19)
H7_3 H 0.981596 0.869123 0.390726
C12_3 C 0.9613(3) 0.9922(3) 0.36288(19)
C1_4 C 0.1313(3) 0.5209(2) 0.22876(18)
H1_4 H 0.163921 0.547270 0.261581
C2_4 C 0.1293(3) 0.4332(2) 0.22941(19)
H2_4 H 0.160896 0.402746 0.260678
C3_4 C 0.0793(3) 0.3915(2) 0.18252(16)
C4_4 C 0.0369(2) 0.4369(2) 0.13686(16)
H3_4 H 0.005139 0.410579 0.103619
C5_4 C 0.0425(2) 0.5284(2) 0.14147(14)
H4_4 H 0.009952 0.559999 0.111321
C6_4 C 0.0781(3) 0.3006(2) 0.18250(17)
C7_4 C 0.0760(3) 0.1385(2) 0.18291(17)
C8_4 C 0.0856(2) 0.0421(2) 0.18397(14)
H5_4 H 0.161877 0.027150 0.262361
H8_4 H 0.004063 0.018218 0.105079
C13_4 C 0.1422(2) 0.71775(19) 0.31999(13)
C14_4 C 0.1853(2) 0.72144(18) 0.38375(12)
C15_4 C 0.1337(2) 0.7187(2) 0.43735(15)
H9_4 H 0.069321 0.715205 0.433482
C16_4 C 0.1715(2) 0.7210(2) 0.49732(14)
H10_4 H 0.133136 0.720240 0.533030
C17_4 C 0.2683(2) 0.7243(2) 0.50458(13)
C18_4 C 0.3233(2) 0.7261(2) 0.44982(14)
H11_4 H 0.387693 0.727982 0.453598
C19_4 C 0.2830(2) 0.7251(2) 0.38999(14)
H12_4 H 0.320306 0.726824 0.353771
C20_4 C 0.3103(2) 0.7220(2) 0.57003(13)
N1_4 N 0.09119(19) 0.57203(19) 0.18598(11)
N2_4 N 0.1062(2) 0.2578(2) 0.23560(15)
N3_4 N 0.10902(19) 0.1738(2) 0.23566(15)
N4_4 N 0.0415(2) 0.1741(2) 0.13175(14)
N5_4 N 0.0407(2) 0.25773(19) 0.13309(14)
O2_4 O 0.19665(17) 0.71377(15) 0.27139(10)
N7_4 N 0.0896(2) 0.8717(3) 0.18585(14)
C9_4 C 0.1313(3) 0.9976(3) 0.23014(18)
C10_4 C 0.1333(3) 0.9109(2) 0.23026(19)
H6_4 H 0.165493 0.881110 0.261610
C11_4 C 0.0456(3) 0.9035(3) 0.14022(19)
H7_4 H 0.018404 0.869123 0.109274
C12_4 C 0.0387(3) 0.9922(3) 0.13712(19)
C9_5 C 0.1313(3) 0.0024(3) 0.73014(18)
C10_5 C 0.1333(3) 0.0891(2) 0.73026(19)
H6_5 H 0.165493 0.118890 0.761610
C11_5 C 0.0456(3) 0.0965(3) 0.64022(19)
H7_5 H 0.018404 0.130877 0.609274
C12_5 C 0.0387(3) 0.0078(3) 0.63712(19)
N6 N 0.0896(2) 0.1283(3) 0.68585(14)
Cd2 Cd 0.10277(2) 0.28415(2) 0.68517(2)
H10_5 H 0.133136 0.279760 0.033030
C17_5 C 0.2683(2) 0.2757(2) 0.00458(13)
C20_5 C 0.3103(2) 0.2780(2) 0.07003(13)
O3_3 O 0.39764(15) 0.28235(17) 0.07381(12)
O4_3 O 0.25970(17) 0.27744(18) 0.11819(11)
Cd4_3 Cd 0.39723(2) 0.28415(2) 0.18517(2)
C1_5 C 0.1313(3) 0.4791(2) 0.72876(18)
H1_5 H 0.163921 0.452730 0.761581
C2_5 C 0.1293(3) 0.5668(2) 0.72941(19)
H2_5 H 0.160896 0.597254 0.760678
C3_5 C 0.0793(3) 0.6085(2) 0.68252(16)
C4_5 C 0.0369(2) 0.5631(2) 0.63686(16)
H3_5 H 0.005139 0.589421 0.603619
C5_5 C 0.0425(2) 0.4716(2) 0.64147(14)
H4_5 H 0.009952 0.440001 0.611321
C6_5 C 0.0781(3) 0.6994(2) 0.68250(17)
C7_5 C 0.0760(3) 0.8615(2) 0.68291(17)
C8_5 C 0.0856(2) 0.9579(2) 0.68397(14)
H5_5 H 0.161877 0.972850 0.762361
H8_5 H 0.004063 0.981782 0.605079
C13_5 C 0.1422(2) 0.28225(19) 0.81999(13)
C14_5 C 0.1853(2) 0.27856(18) 0.88375(12)
C15_5 C 0.1337(2) 0.2813(2) 0.93735(15)
H9_5 H 0.069321 0.284795 0.933482
C16_5 C 0.1715(2) 0.2790(2) 0.99732(14)
C18_5 C 0.3233(2) 0.2739(2) 0.94982(14)
H11_5 H 0.387693 0.272018 0.953598
C19_5 C 0.2830(2) 0.2749(2) 0.88999(14)
H12_5 H 0.320306 0.273176 0.853771
N1_5 N 0.09119(19) 0.42797(19) 0.68598(11)
N2_5 N 0.1062(2) 0.7422(2) 0.73560(15)
N3_5 N 0.10902(19) 0.8262(2) 0.73566(15)
N4_5 N 0.0415(2) 0.8259(2) 0.63175(14)
N5_5 N 0.0407(2) 0.74227(19) 0.63309(14)
O1_3 O 0.0584(2) 0.28279(18) 0.81290(10)
O2_5 O 0.19665(17) 0.28623(15) 0.77139(10)
O6_3 O 0.10236(15) 0.28235(17) 0.57381(12)
O7_3 O 0.24030(17) 0.27744(18) 0.61819(11)
Cd3_2 Cd 0.89723(2) 0.28415(2) 0.81483(2)
O5_3 O 0.9416(2) 0.28279(18) 0.68710(10)
C9_6 C 0.8687(3) 0.0024(3) 0.76986(18)
C10_6 C 0.8667(3) 0.0891(2) 0.76974(19)
H6_6 H 0.834507 0.118890 0.738390
C11_6 C 0.9544(3) 0.0965(3) 0.85978(19)
H7_6 H 0.981596 0.130877 0.890726
C12_6 C 0.9613(3) 0.0078(3) 0.86288(19)
N6_2 N 0.9104(2) 0.1283(3) 0.81415(14)
C1_6 C 0.8687(3) 0.4791(2) 0.77124(18)
H1_6 H 0.836079 0.452730 0.738419
C2_6 C 0.8707(3) 0.5668(2) 0.77059(19)
H2_6 H 0.839104 0.597254 0.739322
C3_6 C 0.9207(3) 0.6085(2) 0.81748(16)
C4_6 C 0.9631(2) 0.5631(2) 0.86314(16)
H3_6 H 0.994861 0.589421 0.896381
C5_6 C 0.9575(2) 0.4716(2) 0.85853(14)
H4_6 H 0.990048 0.440001 0.888679
C6_6 C 0.9219(3) 0.6994(2) 0.81750(17)
C7_6 C 0.9240(3) 0.8615(2) 0.81709(17)
C8_6 C 0.9144(2) 0.9579(2) 0.81603(14)
H5_6 H 0.838123 0.972850 0.737639
H8_6 H 0.995937 0.981782 0.894921
C13_6 C 0.8578(2) 0.28225(19) 0.68001(13)
C14_6 C 0.8147(2) 0.27856(18) 0.61625(12)
C15_6 C 0.8663(2) 0.2813(2) 0.56265(15)
H9_6 H 0.930679 0.284795 0.566518
C16_6 C 0.8285(2) 0.2790(2) 0.50268(14)
H10_6 H 0.866864 0.279760 0.466970
C17_6 C 0.7317(2) 0.2757(2) 0.49542(13)
C18_6 C 0.6767(2) 0.2739(2) 0.55018(14)
H11_6 H 0.612307 0.272018 0.546402
C19_6 C 0.7170(2) 0.2749(2) 0.61001(14)
H12_6 H 0.679694 0.273176 0.646229
C20_6 C 0.6897(2) 0.2780(2) 0.42997(13)
N1_6 N 0.90881(19) 0.42797(19) 0.81402(11)
N2_6 N 0.8938(2) 0.7422(2) 0.76440(15)
N3_6 N 0.89098(19) 0.8262(2) 0.76434(15)
N4_6 N 0.9585(2) 0.8259(2) 0.86825(14)
N5_6 N 0.9593(2) 0.74227(19) 0.86691(14)
O2_6 O 0.80335(17) 0.28623(15) 0.72861(10)
O3_4 O 0.60236(15) 0.28235(17) 0.42619(12)
O4_4 O 0.74030(17) 0.27744(18) 0.38181(11)
Cd4_4 Cd 0.60277(2) 0.28415(2) 0.31483(2)
O6_4 O 0.89764(15) 0.28235(17) 0.92619(12)
O7_4 O 0.75970(17) 0.27744(18) 0.88181(11)
C9_7 C 0.6313(3) 0.0024(3) 0.26986(18)
C10_7 C 0.6333(3) 0.0891(2) 0.26974(19)
H6_7 H 0.665493 0.118890 0.238390
C11_7 C 0.5456(3) 0.0965(3) 0.35978(19)
H7_7 H 0.518404 0.130877 0.390726
C12_7 C 0.5387(3) 0.0078(3) 0.36288(19)
N6_3 N 0.5896(2) 0.1283(3) 0.31415(14)
C1_7 C 0.6313(3) 0.4791(2) 0.27124(18)
H1_7 H 0.663921 0.452730 0.238419
C2_7 C 0.6293(3) 0.5668(2) 0.27059(19)
H2_7 H 0.660896 0.597254 0.239322
C3_7 C 0.5793(3) 0.6085(2) 0.31748(16)
C4_7 C 0.5369(2) 0.5631(2) 0.36314(16)
H3_7 H 0.505139 0.589421 0.396381
C5_7 C 0.5425(2) 0.4716(2) 0.35853(14)
H4_7 H 0.509952 0.440001 0.388679
C6_7 C 0.5781(3) 0.6994(2) 0.31750(17)
C7_7 C 0.5760(3) 0.8615(2) 0.31709(17)
C8_7 C 0.5856(2) 0.9579(2) 0.31603(14)
H5_7 H 0.661877 0.972850 0.237639
H8_7 H 0.504063 0.981782 0.394921
C13_7 C 0.6422(2) 0.28225(19) 0.18001(13)
C14_7 C 0.6853(2) 0.27856(18) 0.11625(12)
C15_7 C 0.6337(2) 0.2813(2) 0.06265(15)
H9_7 H 0.569321 0.284795 0.066518
C16_7 C 0.6715(2) 0.2790(2) 0.00268(14)
C18_7 C 0.8233(2) 0.2739(2) 0.05018(14)
H11_7 H 0.887693 0.272018 0.046402
C19_7 C 0.7830(2) 0.2749(2) 0.11001(14)
H12_7 H 0.820306 0.273176 0.146229
N1_7 N 0.59119(19) 0.42797(19) 0.31402(11)
N2_7 N 0.6062(2) 0.7422(2) 0.26440(15)
N3_7 N 0.60902(19) 0.8262(2) 0.26434(15)
N4_7 N 0.5415(2) 0.8259(2) 0.36825(14)
N5_7 N 0.5407(2) 0.74227(19) 0.36691(14)
O1_4 O 0.5584(2) 0.28279(18) 0.18710(10)
O2_7 O 0.69665(17) 0.28623(15) 0.22861(10)
O5_4 O 0.4416(2) 0.28279(18) 0.31290(10)
H10_7 H 0.633136 0.279760 0.966970
C17_7 C 0.7683(2) 0.2757(2) 0.99542(13)
C20_7 C 0.8103(2) 0.2780(2) 0.92997(13)
C9_8 C 0.3687(3) 0.0024(3) 0.23014(18)
C10_8 C 0.3667(3) 0.0891(2) 0.23026(19)
H6_8 H 0.334507 0.118890 0.261610
C11_8 C 0.4544(3) 0.0965(3) 0.14022(19)
H7_8 H 0.481596 0.130877 0.109274
C12_8 C 0.4613(3) 0.0078(3) 0.13712(19)
N6_4 N 0.4104(2) 0.1283(3) 0.18585(14)
C1_8 C 0.3687(3) 0.4791(2) 0.22876(18)
H1_8 H 0.336079 0.452730 0.261581
C2_8 C 0.3707(3) 0.5668(2) 0.22941(19)
H2_8 H 0.339104 0.597254 0.260678
C3_8 C 0.4207(3) 0.6085(2) 0.18252(16)
C4_8 C 0.4631(2) 0.5631(2) 0.13686(16)
H3_8 H 0.494861 0.589421 0.103619
C5_8 C 0.4575(2) 0.4716(2) 0.14147(14)
H4_8 H 0.490048 0.440001 0.111321
C6_8 C 0.4219(3) 0.6994(2) 0.18250(17)
C7_8 C 0.4240(3) 0.8615(2) 0.18291(17)
C8_8 C 0.4144(2) 0.9579(2) 0.18397(14)
H5_8 H 0.338123 0.972850 0.262361
H8_8 H 0.495937 0.981782 0.105079
C13_8 C 0.3578(2) 0.28225(19) 0.31999(13)
C14_8 C 0.3147(2) 0.27856(18) 0.38375(12)
C15_8 C 0.3663(2) 0.2813(2) 0.43735(15)
H9_8 H 0.430679 0.284795 0.433482
C16_8 C 0.3285(2) 0.2790(2) 0.49732(14)
H10_8 H 0.366864 0.279760 0.533030
C17_8 C 0.2317(2) 0.2757(2) 0.50458(13)
C18_8 C 0.1767(2) 0.2739(2) 0.44982(14)
H11_8 H 0.112307 0.272018 0.453598
C19_8 C 0.2170(2) 0.2749(2) 0.38999(14)
H12_8 H 0.179694 0.273176 0.353771
C20_8 C 0.1897(2) 0.2780(2) 0.57003(13)
N1_8 N 0.40881(19) 0.42797(19) 0.18598(11)
N2_8 N 0.3938(2) 0.7422(2) 0.23560(15)
N3_8 N 0.39098(19) 0.8262(2) 0.23566(15)
N4_8 N 0.4585(2) 0.8259(2) 0.13175(14)
N5_8 N 0.4593(2) 0.74227(19) 0.13309(14)
O2_8 O 0.30335(17) 0.28623(15) 0.27139(10)
loop_
_geom_bond_atom_site_label_1
_geom_bond_atom_site_label_2
_geom_bond_site_symmetry_1
_geom_bond_site_symmetry_2
C20 C17 1_555 1_555
O3 C20 1_555 1_555
O4 C20 1_555 1_555
Cd4 O3 1_555 1_555
O4 Cd4 1_555 1_555
C1 H1 1_555 1_555
C2 C1 1_555 1_555
H2 C2 1_555 1_555
C3 C2 1_555 1_555
C4 C3 1_555 1_555
H3 C4 1_555 1_555
C5 C4 1_555 1_555
H4 C5 1_555 1_555
C6 C3 1_555 1_555
C7 C8 1_555 1_555
C13 C14 1_555 1_555
C14 C15 1_555 1_555
C15 H9 1_555 1_555
C16 C15 1_555 1_555
H11 C18 1_555 1_555
C19 C14 1_555 1_555
H12 C19 1_555 1_555
Cd1 N1 1_555 1_555
N1 C1 1_555 1_555
N2 C6 1_555 1_555
N3 C7 1_555 1_555
N4 C7 1_555 1_555
N5 C6 1_555 1_555
O1 C13 1_555 1_555
O2 C13 1_555 1_555
Cd3 O1 1_555 1_555
N7 Cd1 1_555 1_555
O5 Cd1 1_555 1_555
O6 Cd1 1_555 1_555
O7 Cd1 1_555 1_555
C5 N1 1_555 1_555
C18 C19 1_555 1_555
Cd1 O1 1_555 1_555
Cd1 O2 1_555 1_555
N2 N3 1_555 1_555
N4 N5 1_555 1_555
Cd3 O5 1_555 1_555
C10 C9 1_555 1_555
H6 C10 1_555 1_555
C11 H7 1_555 1_555
N7 C10 1_555 1_555
C11 C12 1_555 1_555
C11 N7 1_555 1_555
C1_2 H1_2 1_555 1_555
C2_2 C1_2 1_555 1_555
H2_2 C2_2 1_555 1_555
C3_2 C2_2 1_555 1_555
C4_2 C3_2 1_555 1_555
H3_2 C4_2 1_555 1_555
C5_2 C4_2 1_555 1_555
H4_2 C5_2 1_555 1_555
C6_2 C3_2 1_555 1_555
C7_2 C8_2 1_555 1_555
C13_2 C14_2 1_555 1_555
C14_2 C15_2 1_555 1_555
C15_2 H9_2 1_555 1_555
C16_2 C15_2 1_555 1_555
H10_2 C16_2 1_555 1_555
C17_2 C16_2 1_555 1_555
C18_2 C17_2 1_555 1_555
H11_2 C18_2 1_555 1_555
C19_2 C14_2 1_555 1_555
H12_2 C19_2 1_555 1_555
C20_2 C17_2 1_555 1_555
Cd3 N1_2 1_555 1_555
N1_2 C1_2 1_555 1_555
N2_2 C6_2 1_555 1_555
N3_2 C7_2 1_555 1_555
N4_2 C7_2 1_555 1_555
N5_2 C6_2 1_555 1_555
O5 C13_2 1_555 1_555
O2_2 C13_2 1_555 1_555
O3_2 C20_2 1_555 1_555
O4_2 C20_2 1_555 1_555
Cd4_2 O3_2 1_555 1_555
N7_2 Cd3 1_555 1_555
O6_2 Cd3 1_555 1_555
O7_2 Cd3 1_555 1_555
C5_2 N1_2 1_555 1_555
C18_2 C19_2 1_555 1_555
Cd3 O2_2 1_555 1_555
N2_2 N3_2 1_555 1_555
N4_2 N5_2 1_555 1_555
O4_2 Cd4_2 1_555 1_555
C10_2 C9_2 1_555 1_555
H6_2 C10_2 1_555 1_555
C11_2 H7_2 1_555 1_555
N7_2 C10_2 1_555 1_555
C11_2 C12_2 1_555 1_555
C11_2 N7_2 1_555 1_555
Cd4 O5_2 1_555 1_555
C1_3 H1_3 1_555 1_555
C2_3 C1_3 1_555 1_555
H2_3 C2_3 1_555 1_555
C3_3 C2_3 1_555 1_555
C4_3 C3_3 1_555 1_555
H3_3 C4_3 1_555 1_555
C5_3 C4_3 1_555 1_555
H4_3 C5_3 1_555 1_555
C6_3 C3_3 1_555 1_555
C7_3 C8_3 1_555 1_555
C13_3 C14_3 1_555 1_555
C14_3 C15_3 1_555 1_555
C15_3 H9_3 1_555 1_555
C16_3 C15_3 1_555 1_555
H11_3 C18_3 1_555 1_555
C19_3 C14_3 1_555 1_555
H12_3 C19_3 1_555 1_555
Cd4_2 N1_3 1_555 1_555
N1_3 C1_3 1_555 1_555
N2_3 C6_3 1_555 1_555
N3_3 C7_3 1_555 1_555
N4_3 C7_3 1_555 1_555
N5_3 C6_3 1_555 1_555
O1_2 C13_3 1_555 1_555
O2_3 C13_3 1_555 1_555
N7_3 Cd4_2 1_555 1_555
C5_3 N1_3 1_555 1_555
C18_3 C19_3 1_555 1_555
Cd4_2 O1_2 1_555 1_555
Cd4_2 O2_3 1_555 1_555
N2_3 N3_3 1_555 1_555
N4_3 N5_3 1_555 1_555
C20_3 C17_3 1_555 1_555
O6_2 C20_3 1_555 1_555
O7_2 C20_3 1_555 1_555
C10_3 C9_3 1_555 1_555
H6_3 C10_3 1_555 1_555
C11_3 H7_3 1_555 1_555
N7_3 C10_3 1_555 1_555
C11_3 C12_3 1_555 1_555
C11_3 N7_3 1_555 1_555
C1_4 H1_4 1_555 1_555
C2_4 C1_4 1_555 1_555
H2_4 C2_4 1_555 1_555
C3_4 C2_4 1_555 1_555
C4_4 C3_4 1_555 1_555
H3_4 C4_4 1_555 1_555
C5_4 C4_4 1_555 1_555
H4_4 C5_4 1_555 1_555
C6_4 C3_4 1_555 1_555
C7_4 C8_4 1_555 1_555
C13_4 C14_4 1_555 1_555
C14_4 C15_4 1_555 1_555
C15_4 H9_4 1_555 1_555
C16_4 C15_4 1_555 1_555
H10_4 C16_4 1_555 1_555
C17_4 C16_4 1_555 1_555
C18_4 C17_4 1_555 1_555
H11_4 C18_4 1_555 1_555
C19_4 C14_4 1_555 1_555
H12_4 C19_4 1_555 1_555
C20_4 C17_4 1_555 1_555
Cd4 N1_4 1_555 1_555
N1_4 C1_4 1_555 1_555
N2_4 C6_4 1_555 1_555
N3_4 C7_4 1_555 1_555
N4_4 C7_4 1_555 1_555
N5_4 C6_4 1_555 1_555
O5_2 C13_4 1_555 1_555
O2_4 C13_4 1_555 1_555
O6 C20_4 1_555 1_555
O7 C20_4 1_555 1_555
N7_4 Cd4 1_555 1_555
C5_4 N1_4 1_555 1_555
C18_4 C19_4 1_555 1_555
Cd4 O2_4 1_555 1_555
N2_4 N3_4 1_555 1_555
N4_4 N5_4 1_555 1_555
C10_4 C9_4 1_555 1_555
H6_4 C10_4 1_555 1_555
C11_4 H7_4 1_555 1_555
N7_4 C10_4 1_555 1_555
C11_4 C12_4 1_555 1_555
C11_4 N7_4 1_555 1_555
C10_5 C9_5 1_555 1_555
H6_5 C10_5 1_555 1_555
C11_5 H7_5 1_555 1_555
N6 C10_5 1_555 1_555
Cd2 N6 1_555 1_555
C11_5 C12_5 1_555 1_555
C11_5 N6 1_555 1_555
C20_5 C17_5 1_555 1_555
O3_3 C20_5 1_555 1_555
O4_3 C20_5 1_555 1_555
Cd4_3 O3_3 1_555 1_555
O4_3 Cd4_3 1_555 1_555
C1_5 H1_5 1_555 1_555
C2_5 C1_5 1_555 1_555
H2_5 C2_5 1_555 1_555
C3_5 C2_5 1_555 1_555
C4_5 C3_5 1_555 1_555
H3_5 C4_5 1_555 1_555
C5_5 C4_5 1_555 1_555
H4_5 C5_5 1_555 1_555
C6_5 C3_5 1_555 1_555
C7_5 C8_5 1_555 1_555
C13_5 C14_5 1_555 1_555
C14_5 C15_5 1_555 1_555
C15_5 H9_5 1_555 1_555
C16_5 C15_5 1_555 1_555
H11_5 C18_5 1_555 1_555
C19_5 C14_5 1_555 1_555
H12_5 C19_5 1_555 1_555
Cd2 N1_5 1_555 1_555
N1_5 C1_5 1_555 1_555
N2_5 C6_5 1_555 1_555
N3_5 C7_5 1_555 1_555
N4_5 C7_5 1_555 1_555
N5_5 C6_5 1_555 1_555
O1_3 C13_5 1_555 1_555
O2_5 C13_5 1_555 1_555
O6_3 Cd2 1_555 1_555
O7_3 Cd2 1_555 1_555
C5_5 N1_5 1_555 1_555
C18_5 C19_5 1_555 1_555
Cd2 O1_3 1_555 1_555
Cd2 O2_5 1_555 1_555
N2_5 N3_5 1_555 1_555
N4_5 N5_5 1_555 1_555
Cd3_2 O5_3 1_555 1_555
C10_6 C9_6 1_555 1_555
H6_6 C10_6 1_555 1_555
C11_6 H7_6 1_555 1_555
N6_2 C10_6 1_555 1_555
Cd3_2 N6_2 1_555 1_555
C11_6 C12_6 1_555 1_555
C11_6 N6_2 1_555 1_555
C1_6 H1_6 1_555 1_555
C2_6 C1_6 1_555 1_555
H2_6 C2_6 1_555 1_555
C3_6 C2_6 1_555 1_555
C4_6 C3_6 1_555 1_555
H3_6 C4_6 1_555 1_555
C5_6 C4_6 1_555 1_555
H4_6 C5_6 1_555 1_555
C6_6 C3_6 1_555 1_555
C7_6 C8_6 1_555 1_555
C13_6 C14_6 1_555 1_555
C14_6 C15_6 1_555 1_555
C15_6 H9_6 1_555 1_555
C16_6 C15_6 1_555 1_555
H10_6 C16_6 1_555 1_555
C17_6 C16_6 1_555 1_555
C18_6 C17_6 1_555 1_555
H11_6 C18_6 1_555 1_555
C19_6 C14_6 1_555 1_555
H12_6 C19_6 1_555 1_555
C20_6 C17_6 1_555 1_555
Cd3_2 N1_6 1_555 1_555
N1_6 C1_6 1_555 1_555
N2_6 C6_6 1_555 1_555
N3_6 C7_6 1_555 1_555
N4_6 C7_6 1_555 1_555
N5_6 C6_6 1_555 1_555
O5_3 C13_6 1_555 1_555
O2_6 C13_6 1_555 1_555
O3_4 C20_6 1_555 1_555
O4_4 C20_6 1_555 1_555
Cd4_4 O3_4 1_555 1_555
O6_4 Cd3_2 1_555 1_555
O7_4 Cd3_2 1_555 1_555
C5_6 N1_6 1_555 1_555
C18_6 C19_6 1_555 1_555
Cd3_2 O2_6 1_555 1_555
N2_6 N3_6 1_555 1_555
N4_6 N5_6 1_555 1_555
O4_4 Cd4_4 1_555 1_555
C10_7 C9_7 1_555 1_555
H6_7 C10_7 1_555 1_555
C11_7 H7_7 1_555 1_555
N6_3 C10_7 1_555 1_555
Cd4_4 N6_3 1_555 1_555
C11_7 C12_7 1_555 1_555
C11_7 N6_3 1_555 1_555
C1_7 H1_7 1_555 1_555
C2_7 C1_7 1_555 1_555
H2_7 C2_7 1_555 1_555
C3_7 C2_7 1_555 1_555
C4_7 C3_7 1_555 1_555
H3_7 C4_7 1_555 1_555
C5_7 C4_7 1_555 1_555
H4_7 C5_7 1_555 1_555
C6_7 C3_7 1_555 1_555
C7_7 C8_7 1_555 1_555
C13_7 C14_7 1_555 1_555
C14_7 C15_7 1_555 1_555
C15_7 H9_7 1_555 1_555
C16_7 C15_7 1_555 1_555
H11_7 C18_7 1_555 1_555
C19_7 C14_7 1_555 1_555
H12_7 C19_7 1_555 1_555
Cd4_4 N1_7 1_555 1_555
N1_7 C1_7 1_555 1_555
N2_7 C6_7 1_555 1_555
N3_7 C7_7 1_555 1_555
N4_7 C7_7 1_555 1_555
N5_7 C6_7 1_555 1_555
O1_4 C13_7 1_555 1_555
O2_7 C13_7 1_555 1_555
Cd4_3 O1_4 1_555 1_555
O5_4 Cd4_4 1_555 1_555
C5_7 N1_7 1_555 1_555
C18_7 C19_7 1_555 1_555
Cd4_4 O1_4 1_555 1_555
Cd4_4 O2_7 1_555 1_555
N2_7 N3_7 1_555 1_555
N4_7 N5_7 1_555 1_555
Cd4_3 O5_4 1_555 1_555
C20_7 C17_7 1_555 1_555
O6_4 C20_7 1_555 1_555
O7_4 C20_7 1_555 1_555
C10_8 C9_8 1_555 1_555
H6_8 C10_8 1_555 1_555
C11_8 H7_8 1_555 1_555
N6_4 C10_8 1_555 1_555
Cd4_3 N6_4 1_555 1_555
C11_8 C12_8 1_555 1_555
C11_8 N6_4 1_555 1_555
C1_8 H1_8 1_555 1_555
C2_8 C1_8 1_555 1_555
H2_8 C2_8 1_555 1_555
C3_8 C2_8 1_555 1_555
C4_8 C3_8 1_555 1_555
H3_8 C4_8 1_555 1_555
C5_8 C4_8 1_555 1_555
H4_8 C5_8 1_555 1_555
C6_8 C3_8 1_555 1_555
C7_8 C8_8 1_555 1_555
C13_8 C14_8 1_555 1_555
C14_8 C15_8 1_555 1_555
C15_8 H9_8 1_555 1_555
C16_8 C15_8 1_555 1_555
H10_8 C16_8 1_555 1_555
C17_8 C16_8 1_555 1_555
C18_8 C17_8 1_555 1_555
H11_8 C18_8 1_555 1_555
C19_8 C14_8 1_555 1_555
H12_8 C19_8 1_555 1_555
C20_8 C17_8 1_555 1_555
Cd4_3 N1_8 1_555 1_555
N1_8 C1_8 1_555 1_555
N2_8 C6_8 1_555 1_555
N3_8 C7_8 1_555 1_555
N4_8 C7_8 1_555 1_555
N5_8 C6_8 1_555 1_555
O5_4 C13_8 1_555 1_555
O2_8 C13_8 1_555 1_555
O6_3 C20_8 1_555 1_555
O7_3 C20_8 1_555 1_555
C5_8 N1_8 1_555 1_555
C18_8 C19_8 1_555 1_555
Cd4_3 O2_8 1_555 1_555
N2_8 N3_8 1_555 1_555
N4_8 N5_8 1_555 1_555

#END
