
###############################################################################
#
# This file contains modified crystal structure data generated from the
# MOF subset of the Cambridge Structural Database (CSD) v543 
# hosted by the Cambridge Crystallographic Data Centre (CCDC).
#
# This work is licensed under the Creative Commons
# Attribution-NonCommercial-ShareAlike 4.0 International License.
# To view a copy of this license, visit
# http://creativecommons.org/licenses/by-nc-sa/4.0/
# or send a letter to
# Creative Commons, PO Box 1866, Mountain View, CA 94042, USA.
#
# CIF created using the CSD Python API on 29 September 2022
# The structure has been converted into the P1 space group
# The structure has a 3D framework
# The original CSD entry YUJGES is in the cubic crystal system
# The framework has been calculated to contain at least 10.0% void space
# The void calculation uses a probe of radius 1.32A, grid spacing 0.4
# The framework is charged, counterions have been retained in the structure
# H atom positions have been added when not included in the experimental data
# Generated hydrogen atom positions removed from atoms on special positions
#
###############################################################################

data_YUJGES
_chemical_formula_moiety         '(C288 H264 O192 S24 Zr36 12+)n'
_symmetry_cell_setting           triclinic
_symmetry_space_group_name_H-M   'P 1'
_symmetry_Int_Tables_number      1
_space_group_name_Hall           'P 1'
loop_
_symmetry_equiv_pos_site_id
_symmetry_equiv_pos_as_xyz
1 x,y,z
_cell_length_a                   23.6938
_cell_length_b                   23.6938
_cell_length_c                   23.6938
_cell_angle_alpha                90
_cell_angle_beta                 90
_cell_angle_gamma                90
_cell_volume                     13301.6
loop_
_atom_site_label
_atom_site_type_symbol
_atom_site_fract_x
_atom_site_fract_y
_atom_site_fract_z
Zr9 Zr 0.00000 0.39610 0.00000
Zr9_2 Zr 0.00000 0.39610 1.00000
O1 O 0.39257 0.34881 0.04933
O2 O 0.31096 0.39319 0.00000
O3 O 0.42150 0.15150 0.00000
O4 O 0.34830 0.07850 0.00000
O5 O 0.07850 0.34850 0.00000
O6 O 0.15170 0.42150 0.00000
S1 S 0.35838 0.34753 0.00000
C1 C 0.16932 0.31795 0.00000
C2 C 0.22625 0.32432 0.00000
C3 C 0.26529 0.27890 0.00000
C4 C 0.23735 0.22032 0.00000
C5 C 0.17826 0.21556 0.00000
C6 C 0.14463 0.26382 0.00000
C7 C 0.26965 0.17348 0.00000
C8 C 0.32845 0.17757 0.00000
C9 C 0.35559 0.23012 0.00000
C10 C 0.32303 0.28165 0.00000
C11 C 0.36840 0.13240 0.00000
C12 C 0.13160 0.36750 0.00000
H1 H 0.24195 0.36972 0.00000
H2 H 0.15778 0.17217 0.00000
H3 H 0.09681 0.25969 0.00000
H4 H 0.24838 0.13041 0.00000
H5 H 0.40354 0.23235 0.00000
O7 O 0.05000 0.45000 0.05000
Zr1 Zr 0.10390 0.50000 0.00000
Zr2 Zr 0.50000 0.10390 0.00000
Zr3 Zr 0.39610 0.00000 0.00000
O12 O 0.68904 0.39319 0.00000
O13 O 0.57850 0.15150 0.00000
O14 O 0.65170 0.07850 0.00000
O15 O 0.92150 0.34850 0.00000
O16 O 0.84830 0.42150 0.00000
S2 S 0.64162 0.34753 0.00000
C13 C 0.83068 0.31795 0.00000
C14 C 0.77375 0.32432 0.00000
C15 C 0.73471 0.27890 0.00000
C16 C 0.76265 0.22032 0.00000
C17 C 0.82174 0.21556 0.00000
C18 C 0.85537 0.26382 0.00000
C19 C 0.73035 0.17348 0.00000
C20 C 0.67155 0.17757 0.00000
C21 C 0.64441 0.23012 0.00000
C22 C 0.67697 0.28165 0.00000
C23 C 0.63160 0.13240 0.00000
C24 C 0.86840 0.36750 0.00000
H6 H 0.75805 0.36972 0.00000
H7 H 0.84222 0.17217 0.00000
H8 H 0.90319 0.25969 0.00000
H9 H 0.75162 0.13041 0.00000
H10 H 0.59646 0.23235 0.00000
O17 O 0.50000 0.17524 0.05781
O18 O 0.60743 0.34881 0.04933
O20 O 0.17047 0.50000 0.06324
O21 O 0.05000 0.55000 0.05000
O24 O 0.34850 0.00000 0.07850
O26 O 0.15170 0.57850 0.00000
O27 O 0.45000 0.05000 0.05000
O31 O 0.55000 0.05000 0.05000
Zr4 Zr 0.89610 0.50000 0.00000
Zr5 Zr 0.00000 0.50000 0.10390
Zr7 Zr 0.60390 0.00000 0.00000
Zr9_3 Zr 1.00000 0.39610 0.00000
Zr10 Zr 0.00000 0.60390 0.00000
O2_2 O 0.31096 0.39319 1.00000
O3_2 O 0.42150 0.15150 1.00000
O4_2 O 0.34830 0.07850 1.00000
O5_2 O 0.07850 0.34850 1.00000
O6_2 O 0.15170 0.42150 1.00000
S1_2 S 0.35838 0.34753 1.00000
C1_2 C 0.16932 0.31795 1.00000
C2_2 C 0.22625 0.32432 1.00000
C3_2 C 0.26529 0.27890 1.00000
C4_2 C 0.23735 0.22032 1.00000
C5_2 C 0.17826 0.21556 1.00000
C6_2 C 0.14463 0.26382 1.00000
C7_2 C 0.26965 0.17348 1.00000
C8_2 C 0.32845 0.17757 1.00000
C9_2 C 0.35559 0.23012 1.00000
C10_2 C 0.32303 0.28165 1.00000
C11_2 C 0.36840 0.13240 1.00000
C12_2 C 0.13160 0.36750 1.00000
H1_2 H 0.24195 0.36972 1.00000
H2_2 H 0.15778 0.17217 1.00000
H3_2 H 0.09681 0.25969 1.00000
H4_2 H 0.24838 0.13041 1.00000
H5_2 H 0.40354 0.23235 1.00000
Zr1_2 Zr 0.10390 0.50000 1.00000
Zr2_2 Zr 0.50000 0.10390 1.00000
Zr3_2 Zr 0.39610 0.00000 1.00000
O8 O 0.17047 0.50000 0.93676
O9 O 0.50000 0.17524 0.94219
O10 O 0.39257 0.34881 0.95067
O11 O 0.60743 0.34881 0.95067
O12_2 O 0.68904 0.39319 1.00000
O13_2 O 0.57850 0.15150 1.00000
O14_2 O 0.65170 0.07850 1.00000
O15_2 O 0.92150 0.34850 1.00000
O16_2 O 0.84830 0.42150 1.00000
S2_2 S 0.64162 0.34753 1.00000
C13_2 C 0.83068 0.31795 1.00000
C14_2 C 0.77375 0.32432 1.00000
C15_2 C 0.73471 0.27890 1.00000
C16_2 C 0.76265 0.22032 1.00000
C17_2 C 0.82174 0.21556 1.00000
C18_2 C 0.85537 0.26382 1.00000
C19_2 C 0.73035 0.17348 1.00000
C20_2 C 0.67155 0.17757 1.00000
C21_2 C 0.64441 0.23012 1.00000
C22_2 C 0.67697 0.28165 1.00000
C23_2 C 0.63160 0.13240 1.00000
C24_2 C 0.86840 0.36750 1.00000
H6_2 H 0.75805 0.36972 1.00000
H7_2 H 0.84222 0.17217 1.00000
H8_2 H 0.90319 0.25969 1.00000
H9_2 H 0.75162 0.13041 1.00000
H10_2 H 0.59646 0.23235 1.00000
O19 O 0.05000 0.55000 0.95000
O22 O 0.05000 0.45000 0.95000
O25 O 0.34850 0.00000 0.92150
O26_2 O 0.15170 0.57850 1.00000
O28 O 0.55000 0.05000 0.95000
O32 O 0.45000 0.05000 0.95000
Zr4_2 Zr 0.89610 0.50000 1.00000
Zr6 Zr 0.00000 0.50000 0.89610
Zr7_2 Zr 0.60390 0.00000 1.00000
Zr9_4 Zr 1.00000 0.39610 1.00000
Zr10_2 Zr 0.00000 0.60390 1.00000
Zr3_3 Zr 0.39610 1.00000 0.00000
O23 O 0.34830 0.92150 0.00000
O24_2 O 0.34850 1.00000 0.07850
O30 O 0.45000 0.95000 0.05000
Zr7_3 Zr 0.60390 1.00000 0.00000
Zr3_4 Zr 0.39610 1.00000 1.00000
O23_2 O 0.34830 0.92150 1.00000
O25_2 O 0.34850 1.00000 0.92150
O29 O 0.45000 0.95000 0.95000
Zr7_4 Zr 0.60390 1.00000 1.00000
Zr5_2 Zr 1.00000 0.50000 0.10390
Zr10_3 Zr 1.00000 0.60390 0.00000
Zr6_2 Zr 1.00000 0.50000 0.89610
Zr10_4 Zr 1.00000 0.60390 1.00000
O24_3 O 0.65150 0.00000 0.07850
O25_3 O 0.65150 0.00000 0.92150
O1_2 O 0.60743 0.65119 0.04933
O2_3 O 0.68904 0.60681 0.00000
O3_3 O 0.57850 0.84850 0.00000
O4_3 O 0.65170 0.92150 0.00000
O5_3 O 0.92150 0.65150 0.00000
O6_3 O 0.84830 0.57850 0.00000
S1_3 S 0.64162 0.65247 0.00000
C1_3 C 0.83068 0.68205 0.00000
C2_3 C 0.77375 0.67568 0.00000
C3_3 C 0.73471 0.72110 0.00000
C4_3 C 0.76265 0.77968 0.00000
C5_3 C 0.82174 0.78444 0.00000
C6_3 C 0.85537 0.73618 0.00000
C7_3 C 0.73035 0.82652 0.00000
C8_3 C 0.67155 0.82243 0.00000
C9_3 C 0.64441 0.76988 0.00000
C10_3 C 0.67697 0.71835 0.00000
C11_3 C 0.63160 0.86760 0.00000
C12_3 C 0.86840 0.63250 0.00000
H1_3 H 0.75805 0.63028 0.00000
H2_3 H 0.84222 0.82783 0.00000
H3_3 H 0.90319 0.74031 0.00000
H4_3 H 0.75162 0.86959 0.00000
H5_3 H 0.59646 0.76765 0.00000
O7_2 O 0.95000 0.55000 0.05000
Zr2_3 Zr 0.50000 0.89610 0.00000
O12_3 O 0.31096 0.60681 0.00000
O13_3 O 0.42150 0.84850 0.00000
O15_3 O 0.07850 0.65150 0.00000
S2_3 S 0.35838 0.65247 0.00000
C13_3 C 0.16932 0.68205 0.00000
C14_3 C 0.22625 0.67568 0.00000
C15_3 C 0.26529 0.72110 0.00000
C16_3 C 0.23735 0.77968 0.00000
C17_3 C 0.17826 0.78444 0.00000
C18_3 C 0.14463 0.73618 0.00000
C19_3 C 0.26965 0.82652 0.00000
C20_3 C 0.32845 0.82243 0.00000
C21_3 C 0.35559 0.76988 0.00000
C22_3 C 0.32303 0.71835 0.00000
C23_3 C 0.36840 0.86760 0.00000
C24_3 C 0.13160 0.63250 0.00000
H6_3 H 0.24195 0.63028 0.00000
H7_3 H 0.15778 0.82783 0.00000
H8_3 H 0.09681 0.74031 0.00000
H9_3 H 0.24838 0.86959 0.00000
H10_3 H 0.40354 0.76765 0.00000
O17_2 O 0.50000 0.82476 0.05781
O18_2 O 0.39257 0.65119 0.04933
O20_2 O 0.82953 0.50000 0.06324
O21_2 O 0.95000 0.45000 0.05000
O24_4 O 0.65150 1.00000 0.07850
O27_2 O 0.55000 0.95000 0.05000
O2_4 O 0.68904 0.60681 1.00000
O3_4 O 0.57850 0.84850 1.00000
O4_4 O 0.65170 0.92150 1.00000
O5_4 O 0.92150 0.65150 1.00000
O6_4 O 0.84830 0.57850 1.00000
S1_4 S 0.64162 0.65247 1.00000
C1_4 C 0.83068 0.68205 1.00000
C2_4 C 0.77375 0.67568 1.00000
C3_4 C 0.73471 0.72110 1.00000
C4_4 C 0.76265 0.77968 1.00000
C5_4 C 0.82174 0.78444 1.00000
C6_4 C 0.85537 0.73618 1.00000
C7_4 C 0.73035 0.82652 1.00000
C8_4 C 0.67155 0.82243 1.00000
C9_4 C 0.64441 0.76988 1.00000
C10_4 C 0.67697 0.71835 1.00000
C11_4 C 0.63160 0.86760 1.00000
C12_4 C 0.86840 0.63250 1.00000
H1_4 H 0.75805 0.63028 1.00000
H2_4 H 0.84222 0.82783 1.00000
H3_4 H 0.90319 0.74031 1.00000
H4_4 H 0.75162 0.86959 1.00000
H5_4 H 0.59646 0.76765 1.00000
Zr2_4 Zr 0.50000 0.89610 1.00000
O8_2 O 0.82953 0.50000 0.93676
O9_2 O 0.50000 0.82476 0.94219
O10_2 O 0.60743 0.65119 0.95067
O11_2 O 0.39257 0.65119 0.95067
O12_4 O 0.31096 0.60681 1.00000
O13_4 O 0.42150 0.84850 1.00000
O15_4 O 0.07850 0.65150 1.00000
S2_4 S 0.35838 0.65247 1.00000
C13_4 C 0.16932 0.68205 1.00000
C14_4 C 0.22625 0.67568 1.00000
C15_4 C 0.26529 0.72110 1.00000
C16_4 C 0.23735 0.77968 1.00000
C17_4 C 0.17826 0.78444 1.00000
C18_4 C 0.14463 0.73618 1.00000
C19_4 C 0.26965 0.82652 1.00000
C20_4 C 0.32845 0.82243 1.00000
C21_4 C 0.35559 0.76988 1.00000
C22_4 C 0.32303 0.71835 1.00000
C23_4 C 0.36840 0.86760 1.00000
C24_4 C 0.13160 0.63250 1.00000
H6_4 H 0.24195 0.63028 1.00000
H7_4 H 0.15778 0.82783 1.00000
H8_4 H 0.09681 0.74031 1.00000
H9_4 H 0.24838 0.86959 1.00000
H10_4 H 0.40354 0.76765 1.00000
O19_2 O 0.95000 0.45000 0.95000
O22_2 O 0.95000 0.55000 0.95000
O25_4 O 0.65150 1.00000 0.92150
O32_2 O 0.55000 0.95000 0.95000
Zr9_5 Zr 0.00000 0.00000 0.39610
O1_3 O 0.04933 0.39257 0.34881
O2_5 O 0.00000 0.31096 0.39319
O3_5 O 0.00000 0.42150 0.15150
O4_5 O 0.00000 0.34830 0.07850
O5_5 O 0.00000 0.07850 0.34850
O6_5 O 0.00000 0.15170 0.42150
S1_5 S 0.00000 0.35838 0.34753
C1_5 C 0.00000 0.16932 0.31795
C2_5 C 0.00000 0.22625 0.32432
C3_5 C 0.00000 0.26529 0.27890
C4_5 C 0.00000 0.23735 0.22032
C5_5 C 0.00000 0.17826 0.21556
C6_5 C -0.00000 0.14463 0.26382
C7_5 C 0.00000 0.26965 0.17348
C8_5 C 0.00000 0.32845 0.17757
C9_5 C 0.00000 0.35559 0.23012
C10_5 C 0.00000 0.32303 0.28165
C11_5 C 0.00000 0.36840 0.13240
C12_5 C 0.00000 0.13160 0.36750
H1_5 H 0.00000 0.24195 0.36972
H2_5 H 0.00000 0.15778 0.17217
H3_5 H 0.00000 0.09681 0.25969
H4_5 H 0.00000 0.24838 0.13041
H5_5 H 0.00000 0.40354 0.23235
O7_3 O 0.05000 0.05000 0.45000
Zr1_3 Zr 0.00000 0.10390 0.50000
O12_5 O 0.00000 0.68904 0.39319
O13_5 O 0.00000 0.57850 0.15150
O14_3 O 0.00000 0.65170 0.07850
O15_5 O 0.00000 0.92150 0.34850
O16_3 O 0.00000 0.84830 0.42150
S2_5 S 0.00000 0.64162 0.34753
C13_5 C 0.00000 0.83068 0.31795
C14_5 C 0.00000 0.77375 0.32432
C15_5 C 0.00000 0.73471 0.27890
C16_5 C 0.00000 0.76265 0.22032
C17_5 C 0.00000 0.82174 0.21556
C18_5 C 0.00000 0.85537 0.26382
C19_5 C 0.00000 0.73035 0.17348
C20_5 C 0.00000 0.67155 0.17757
C21_5 C 0.00000 0.64441 0.23012
C22_5 C 0.00000 0.67697 0.28165
C23_5 C 0.00000 0.63160 0.13240
C24_5 C 0.00000 0.86840 0.36750
H6_5 H -0.00000 0.75805 0.36972
H7_5 H 0.00000 0.84222 0.17217
H8_5 H -0.00000 0.90319 0.25969
H9_5 H 0.00000 0.75162 0.13041
H10_5 H -0.00000 0.59646 0.23235
O17_3 O 0.05781 0.50000 0.17524
O18_3 O 0.04933 0.60743 0.34881
O20_3 O 0.06324 0.17047 0.50000
O21_3 O 0.05000 0.05000 0.55000
O26_3 O -0.00000 0.15170 0.57850
Zr4_3 Zr 0.00000 0.89610 0.50000
Zr5_3 Zr 0.10390 0.00000 0.50000
Zr9_6 Zr 0.00000 1.00000 0.39610
Zr10_5 Zr 0.00000 0.00000 0.60390
O23_3 O 0.00000 0.34830 0.92150
Zr5_4 Zr 0.10390 1.00000 0.50000
Zr10_6 Zr 0.00000 1.00000 0.60390
Zr9_7 Zr 1.00000 0.00000 0.39610
O2_6 O 1.00000 0.31096 0.39319
O3_6 O 1.00000 0.42150 0.15150
O4_6 O 1.00000 0.34830 0.07850
O5_6 O 1.00000 0.07850 0.34850
O6_6 O 1.00000 0.15170 0.42150
S1_6 S 1.00000 0.35838 0.34753
C1_6 C 1.00000 0.16932 0.31795
C2_6 C 1.00000 0.22625 0.32432
C3_6 C 1.00000 0.26529 0.27890
C4_6 C 1.00000 0.23735 0.22032
C5_6 C 1.00000 0.17826 0.21556
C6_6 C 1.00000 0.14463 0.26382
C7_6 C 1.00000 0.26965 0.17348
C8_6 C 1.00000 0.32845 0.17757
C9_6 C 1.00000 0.35559 0.23012
C10_6 C 1.00000 0.32303 0.28165
C11_6 C 1.00000 0.36840 0.13240
C12_6 C 1.00000 0.13160 0.36750
H1_6 H 1.00000 0.24195 0.36972
H2_6 H 1.00000 0.15778 0.17217
H3_6 H 1.00000 0.09681 0.25969
H4_6 H 1.00000 0.24838 0.13041
H5_6 H 1.00000 0.40354 0.23235
Zr1_4 Zr 1.00000 0.10390 0.50000
O8_3 O 0.93676 0.17047 0.50000
O9_3 O 0.94219 0.50000 0.17524
O10_3 O 0.95067 0.39257 0.34881
O11_3 O 0.95067 0.60743 0.34881
O12_6 O 1.00000 0.68904 0.39319
O13_6 O 1.00000 0.57850 0.15150
O14_4 O 1.00000 0.65170 0.07850
O15_6 O 1.00000 0.92150 0.34850
O16_4 O 1.00000 0.84830 0.42150
S2_6 S 1.00000 0.64162 0.34753
C13_6 C 1.00000 0.83068 0.31795
C14_6 C 1.00000 0.77375 0.32432
C15_6 C 1.00000 0.73471 0.27890
C16_6 C 1.00000 0.76265 0.22032
C17_6 C 1.00000 0.82174 0.21556
C18_6 C 1.00000 0.85537 0.26382
C19_6 C 1.00000 0.73035 0.17348
C20_6 C 1.00000 0.67155 0.17757
C21_6 C 1.00000 0.64441 0.23012
C22_6 C 1.00000 0.67697 0.28165
C23_6 C 1.00000 0.63160 0.13240
C24_6 C 1.00000 0.86840 0.36750
H6_6 H 1.00000 0.75805 0.36972
H7_6 H 1.00000 0.84222 0.17217
H8_6 H 1.00000 0.90319 0.25969
H9_6 H 1.00000 0.75162 0.13041
H10_6 H 1.00000 0.59646 0.23235
O19_3 O 0.95000 0.05000 0.55000
O22_3 O 0.95000 0.05000 0.45000
O26_4 O 1.00000 0.15170 0.57850
Zr4_4 Zr 1.00000 0.89610 0.50000
Zr6_3 Zr 0.89610 0.00000 0.50000
Zr9_8 Zr 1.00000 1.00000 0.39610
Zr10_7 Zr 1.00000 0.00000 0.60390
O23_4 O 1.00000 0.34830 0.92150
Zr6_4 Zr 0.89610 1.00000 0.50000
Zr10_8 Zr 1.00000 1.00000 0.60390
O1_4 O 0.04933 0.60743 0.65119
O2_7 O 0.00000 0.68904 0.60681
O3_7 O 0.00000 0.57850 0.84850
O4_7 O 0.00000 0.65170 0.92150
O5_7 O 0.00000 0.92150 0.65150
O6_7 O 0.00000 0.84830 0.57850
S1_7 S 0.00000 0.64162 0.65247
C1_7 C 0.00000 0.83068 0.68205
C2_7 C 0.00000 0.77375 0.67568
C3_7 C 0.00000 0.73471 0.72110
C4_7 C 0.00000 0.76265 0.77968
C5_7 C 0.00000 0.82174 0.78444
C6_7 C 0.00000 0.85537 0.73618
C7_7 C 0.00000 0.73035 0.82652
C8_7 C 0.00000 0.67155 0.82243
C9_7 C 0.00000 0.64441 0.76988
C10_7 C 0.00000 0.67697 0.71835
C11_7 C 0.00000 0.63160 0.86760
C12_7 C 0.00000 0.86840 0.63250
H1_7 H 0.00000 0.75805 0.63028
H2_7 H 0.00000 0.84222 0.82783
H3_7 H 0.00000 0.90319 0.74031
H4_7 H 0.00000 0.75162 0.86959
H5_7 H 0.00000 0.59646 0.76765
O7_4 O 0.05000 0.95000 0.55000
O12_7 O 0.00000 0.31096 0.60681
O13_7 O 0.00000 0.42150 0.84850
O15_7 O 0.00000 0.07850 0.65150
S2_7 S 0.00000 0.35838 0.65247
C13_7 C 0.00000 0.16932 0.68205
C14_7 C 0.00000 0.22625 0.67568
C15_7 C 0.00000 0.26529 0.72110
C16_7 C 0.00000 0.23735 0.77968
C17_7 C 0.00000 0.17826 0.78444
C18_7 C 0.00000 0.14463 0.73618
C19_7 C 0.00000 0.26965 0.82652
C20_7 C 0.00000 0.32845 0.82243
C21_7 C 0.00000 0.35559 0.76988
C22_7 C 0.00000 0.32303 0.71835
C23_7 C -0.00000 0.36840 0.86760
C24_7 C 0.00000 0.13160 0.63250
H6_7 H 0.00000 0.24195 0.63028
H7_7 H 0.00000 0.15778 0.82783
H8_7 H 0.00000 0.09681 0.74031
H9_7 H -0.00000 0.24838 0.86959
H10_7 H 0.00000 0.40354 0.76765
O17_4 O 0.05781 0.50000 0.82476
O18_4 O 0.04933 0.39257 0.65119
O20_4 O 0.06324 0.82953 0.50000
O21_4 O 0.05000 0.95000 0.45000
O2_8 O 1.00000 0.68904 0.60681
O3_8 O 1.00000 0.57850 0.84850
O4_8 O 1.00000 0.65170 0.92150
O5_8 O 1.00000 0.92150 0.65150
O6_8 O 1.00000 0.84830 0.57850
S1_8 S 1.00000 0.64162 0.65247
C1_8 C 1.00000 0.83068 0.68205
C2_8 C 1.00000 0.77375 0.67568
C3_8 C 1.00000 0.73471 0.72110
C4_8 C 1.00000 0.76265 0.77968
C5_8 C 1.00000 0.82174 0.78444
C6_8 C 1.00000 0.85537 0.73618
C7_8 C 1.00000 0.73035 0.82652
C8_8 C 1.00000 0.67155 0.82243
C9_8 C 1.00000 0.64441 0.76988
C10_8 C 1.00000 0.67697 0.71835
C11_8 C 1.00000 0.63160 0.86760
C12_8 C 1.00000 0.86840 0.63250
H1_8 H 1.00000 0.75805 0.63028
H2_8 H 1.00000 0.84222 0.82783
H3_8 H 1.00000 0.90319 0.74031
H4_8 H 1.00000 0.75162 0.86959
H5_8 H 1.00000 0.59646 0.76765
O8_4 O 0.93676 0.82953 0.50000
O9_4 O 0.94219 0.50000 0.82476
O10_4 O 0.95067 0.60743 0.65119
O11_4 O 0.95067 0.39257 0.65119
O12_8 O 1.00000 0.31096 0.60681
O13_8 O 1.00000 0.42150 0.84850
O15_8 O 1.00000 0.07850 0.65150
S2_8 S 1.00000 0.35838 0.65247
C13_8 C 1.00000 0.16932 0.68205
C14_8 C 1.00000 0.22625 0.67568
C15_8 C 1.00000 0.26529 0.72110
C16_8 C 1.00000 0.23735 0.77968
C17_8 C 1.00000 0.17826 0.78444
C18_8 C 1.00000 0.14463 0.73618
C19_8 C 1.00000 0.26965 0.82652
C20_8 C 1.00000 0.32845 0.82243
C21_8 C 1.00000 0.35559 0.76988
C22_8 C 1.00000 0.32303 0.71835
C23_8 C 1.00000 0.36840 0.86760
C24_8 C 1.00000 0.13160 0.63250
H6_8 H 1.00000 0.24195 0.63028
H7_8 H 1.00000 0.15778 0.82783
H8_8 H 1.00000 0.09681 0.74031
H9_8 H 1.00000 0.24838 0.86959
H10_8 H 1.00000 0.40354 0.76765
O19_4 O 0.95000 0.95000 0.45000
O22_4 O 0.95000 0.95000 0.55000
O1_5 O 0.34881 0.04933 0.39257
O2_9 O 0.39319 0.00000 0.31096
O3_9 O 0.15150 0.00000 0.42150
O4_9 O 0.07850 0.00000 0.34830
O6_9 O 0.42150 0.00000 0.15170
S1_9 S 0.34753 0.00000 0.35838
C1_9 C 0.31795 0.00000 0.16932
C2_9 C 0.32432 0.00000 0.22625
C3_9 C 0.27890 0.00000 0.26529
C4_9 C 0.22032 0.00000 0.23735
C5_9 C 0.21556 0.00000 0.17826
C6_9 C 0.26382 0.00000 0.14463
C7_9 C 0.17348 0.00000 0.26965
C8_9 C 0.17757 0.00000 0.32845
C9_9 C 0.23012 0.00000 0.35559
C10_9 C 0.28165 0.00000 0.32303
C11_9 C 0.13240 0.00000 0.36840
C12_9 C 0.36750 0.00000 0.13160
H1_9 H 0.36972 0.00000 0.24195
H2_9 H 0.17217 0.00000 0.15778
H3_9 H 0.25969 0.00000 0.09681
H4_9 H 0.13041 0.00000 0.24838
H5_9 H 0.23235 0.00000 0.40354
Zr1_5 Zr 0.50000 0.00000 0.10390
O12_9 O 0.39319 0.00000 0.68904
O13_9 O 0.15150 0.00000 0.57850
O14_5 O 0.07850 0.00000 0.65170
O16_5 O 0.42150 0.00000 0.84830
S2_9 S 0.34753 0.00000 0.64162
C13_9 C 0.31795 0.00000 0.83068
C14_9 C 0.32432 0.00000 0.77375
C15_9 C 0.27890 0.00000 0.73471
C16_9 C 0.22032 0.00000 0.76265
C17_9 C 0.21556 0.00000 0.82174
C18_9 C 0.26382 0.00000 0.85537
C19_9 C 0.17348 0.00000 0.73035
C20_9 C 0.17757 0.00000 0.67155
C21_9 C 0.23012 0.00000 0.64441
C22_9 C 0.28165 0.00000 0.67697
C23_9 C 0.13240 0.00000 0.63160
C24_9 C 0.36750 0.00000 0.86840
H6_9 H 0.36972 0.00000 0.75805
H7_9 H 0.17217 0.00000 0.84222
H8_9 H 0.25969 0.00000 0.90319
H9_9 H 0.13041 -0.00000 0.75162
H10_9 H 0.23235 0.00000 0.59646
O17_5 O 0.17524 0.05781 0.50000
O18_5 O 0.34881 0.04933 0.60743
O20_5 O 0.50000 0.06324 0.17047
O26_5 O 0.57850 0.00000 0.15170
Zr4_5 Zr 0.50000 0.00000 0.89610
O2_10 O 0.39319 1.00000 0.31096
O3_10 O 0.15150 1.00000 0.42150
O4_10 O 0.07850 1.00000 0.34830
O6_10 O 0.42150 1.00000 0.15170
S1_10 S 0.34753 1.00000 0.35838
C1_10 C 0.31795 1.00000 0.16932
C2_10 C 0.32432 1.00000 0.22625
C3_10 C 0.27890 1.00000 0.26529
C4_10 C 0.22032 1.00000 0.23735
C5_10 C 0.21556 1.00000 0.17826
C6_10 C 0.26382 1.00000 0.14463
C7_10 C 0.17348 1.00000 0.26965
C8_10 C 0.17757 1.00000 0.32845
C9_10 C 0.23012 1.00000 0.35559
C10_10 C 0.28165 1.00000 0.32303
C11_10 C 0.13240 1.00000 0.36840
C12_10 C 0.36750 1.00000 0.13160
H1_10 H 0.36972 1.00000 0.24195
H2_10 H 0.17217 1.00000 0.15778
H3_10 H 0.25969 1.00000 0.09681
H4_10 H 0.13041 1.00000 0.24838
H5_10 H 0.23235 1.00000 0.40354
Zr1_6 Zr 0.50000 1.00000 0.10390
O8_5 O 0.50000 0.93676 0.17047
O9_5 O 0.17524 0.94219 0.50000
O10_5 O 0.34881 0.95067 0.39257
O11_5 O 0.34881 0.95067 0.60743
O12_10 O 0.39319 1.00000 0.68904
O13_10 O 0.15150 1.00000 0.57850
O14_6 O 0.07850 1.00000 0.65170
O16_6 O 0.42150 1.00000 0.84830
S2_10 S 0.34753 1.00000 0.64162
C13_10 C 0.31795 1.00000 0.83068
C14_10 C 0.32432 1.00000 0.77375
C15_10 C 0.27890 1.00000 0.73471
C16_10 C 0.22032 1.00000 0.76265
C17_10 C 0.21556 1.00000 0.82174
C18_10 C 0.26382 1.00000 0.85537
C19_10 C 0.17348 1.00000 0.73035
C20_10 C 0.17757 1.00000 0.67155
C21_10 C 0.23012 1.00000 0.64441
C22_10 C 0.28165 1.00000 0.67697
C23_10 C 0.13240 1.00000 0.63160
C24_10 C 0.36750 1.00000 0.86840
H6_10 H 0.36972 1.00000 0.75805
H7_10 H 0.17217 1.00000 0.84222
H8_10 H 0.25969 1.00000 0.90319
H9_10 H 0.13041 1.00000 0.75162
H10_10 H 0.23235 1.00000 0.59646
O26_6 O 0.57850 1.00000 0.15170
Zr4_6 Zr 0.50000 1.00000 0.89610
O23_5 O 0.92150 0.00000 0.34830
O23_6 O 0.92150 1.00000 0.34830
O1_6 O 0.65119 0.04933 0.60743
O2_11 O 0.60681 0.00000 0.68904
O3_11 O 0.84850 0.00000 0.57850
O4_11 O 0.92150 0.00000 0.65170
O6_11 O 0.57850 0.00000 0.84830
S1_11 S 0.65247 0.00000 0.64162
C1_11 C 0.68205 0.00000 0.83068
C2_11 C 0.67568 0.00000 0.77375
C3_11 C 0.72110 0.00000 0.73471
C4_11 C 0.77968 0.00000 0.76265
C5_11 C 0.78444 0.00000 0.82174
C6_11 C 0.73618 0.00000 0.85537
C7_11 C 0.82652 0.00000 0.73035
C8_11 C 0.82243 0.00000 0.67155
C9_11 C 0.76988 0.00000 0.64441
C10_11 C 0.71835 0.00000 0.67697
C11_11 C 0.86760 0.00000 0.63160
C12_11 C 0.63250 0.00000 0.86840
H1_11 H 0.63028 0.00000 0.75805
H2_11 H 0.82783 0.00000 0.84222
H3_11 H 0.74031 0.00000 0.90319
H4_11 H 0.86959 0.00000 0.75162
H5_11 H 0.76765 0.00000 0.59646
O12_11 O 0.60681 0.00000 0.31096
O13_11 O 0.84850 0.00000 0.42150
S2_11 S 0.65247 0.00000 0.35838
C13_11 C 0.68205 0.00000 0.16932
C14_11 C 0.67568 0.00000 0.22625
C15_11 C 0.72110 0.00000 0.26529
C16_11 C 0.77968 0.00000 0.23735
C17_11 C 0.78444 0.00000 0.17826
C18_11 C 0.73618 0.00000 0.14463
C19_11 C 0.82652 0.00000 0.26965
C20_11 C 0.82243 0.00000 0.32845
C21_11 C 0.76988 0.00000 0.35559
C22_11 C 0.71835 0.00000 0.32303
C23_11 C 0.86760 0.00000 0.36840
C24_11 C 0.63250 0.00000 0.13160
H6_11 H 0.63028 0.00000 0.24195
H7_11 H 0.82783 0.00000 0.15778
H8_11 H 0.74031 0.00000 0.09681
H9_11 H 0.86959 0.00000 0.24838
H10_11 H 0.76765 0.00000 0.40354
O17_6 O 0.82476 0.05781 0.50000
O18_6 O 0.65119 0.04933 0.39257
O20_6 O 0.50000 0.06324 0.82953
O2_12 O 0.60681 1.00000 0.68904
O3_12 O 0.84850 1.00000 0.57850
O4_12 O 0.92150 1.00000 0.65170
O6_12 O 0.57850 1.00000 0.84830
S1_12 S 0.65247 1.00000 0.64162
C1_12 C 0.68205 1.00000 0.83068
C2_12 C 0.67568 1.00000 0.77375
C3_12 C 0.72110 1.00000 0.73471
C4_12 C 0.77968 1.00000 0.76265
C5_12 C 0.78444 1.00000 0.82174
C6_12 C 0.73618 1.00000 0.85537
C7_12 C 0.82652 1.00000 0.73035
C8_12 C 0.82243 1.00000 0.67155
C9_12 C 0.76988 1.00000 0.64441
C10_12 C 0.71835 1.00000 0.67697
C11_12 C 0.86760 1.00000 0.63160
C12_12 C 0.63250 1.00000 0.86840
H1_12 H 0.63028 1.00000 0.75805
H2_12 H 0.82783 1.00000 0.84222
H3_12 H 0.74031 1.00000 0.90319
H4_12 H 0.86959 1.00000 0.75162
H5_12 H 0.76765 1.00000 0.59646
O8_6 O 0.50000 0.93676 0.82953
O9_6 O 0.82476 0.94219 0.50000
O10_6 O 0.65119 0.95067 0.60743
O11_6 O 0.65119 0.95067 0.39257
O12_12 O 0.60681 1.00000 0.31096
O13_12 O 0.84850 1.00000 0.42150
S2_12 S 0.65247 1.00000 0.35838
C13_12 C 0.68205 1.00000 0.16932
C14_12 C 0.67568 1.00000 0.22625
C15_12 C 0.72110 1.00000 0.26529
C16_12 C 0.77968 1.00000 0.23735
C17_12 C 0.78444 1.00000 0.17826
C18_12 C 0.73618 1.00000 0.14463
C19_12 C 0.82652 1.00000 0.26965
C20_12 C 0.82243 1.00000 0.32845
C21_12 C 0.76988 1.00000 0.35559
C22_12 C 0.71835 1.00000 0.32303
C23_12 C 0.86760 1.00000 0.36840
C24_12 C 0.63250 1.00000 0.13160
H6_12 H 0.63028 1.00000 0.24195
H7_12 H 0.82783 1.00000 0.15778
H8_12 H 0.74031 1.00000 0.09681
H9_12 H 0.86959 1.00000 0.24838
H10_12 H 0.76765 1.00000 0.40354
loop_
_geom_bond_atom_site_label_1
_geom_bond_atom_site_label_2
_geom_bond_site_symmetry_1
_geom_bond_site_symmetry_2
O1 S1 1_555 1_555
O2 S1 1_555 1_555
O3 C11 1_555 1_555
O4 C11 1_555 1_555
O5 C12 1_555 1_555
O6 C12 1_555 1_555
S1 C10 1_555 1_555
C1 C2 1_555 1_555
C2 C3 1_555 1_555
C3 C4 1_555 1_555
C4 C5 1_555 1_555
C5 C6 1_555 1_555
C6 C1 1_555 1_555
C7 C4 1_555 1_555
C8 C7 1_555 1_555
C9 C8 1_555 1_555
C10 C3 1_555 1_555
C11 C8 1_555 1_555
C12 C1 1_555 1_555
H1 C2 1_555 1_555
H2 C5 1_555 1_555
H3 C6 1_555 1_555
H4 C7 1_555 1_555
H5 C9 1_555 1_555
O7 Zr1 1_555 1_555
Zr1 O6 1_555 1_555
Zr2 O3 1_555 1_555
Zr3 O4 1_555 1_555
O12 S2 1_555 1_555
O13 Zr2 1_555 1_555
O14 C23 1_555 1_555
O15 C24 1_555 1_555
O16 C24 1_555 1_555
S2 C22 1_555 1_555
C13 C14 1_555 1_555
C14 C15 1_555 1_555
C15 C16 1_555 1_555
C16 C17 1_555 1_555
C17 C18 1_555 1_555
C18 C13 1_555 1_555
C19 C16 1_555 1_555
C20 C19 1_555 1_555
C21 C20 1_555 1_555
C22 C15 1_555 1_555
C23 O13 1_555 1_555
C24 C13 1_555 1_555
H6 C14 1_555 1_555
H7 C17 1_555 1_555
H8 C18 1_555 1_555
H9 C19 1_555 1_555
H10 C21 1_555 1_555
O17 Zr2 1_555 1_555
O18 S2 1_555 1_555
O20 Zr1 1_555 1_555
O21 Zr1 1_555 1_555
O24 Zr3 1_555 1_555
O26 Zr1 1_555 1_555
O27 Zr2 1_555 1_555
O31 Zr2 1_555 1_555
Zr4 O16 1_555 1_555
Zr5 O7 1_555 1_555
Zr7 O14 1_555 1_555
Zr9 O5 1_555 1_555
Zr9_3 O15 1_555 1_555
C9 C10 1_555 1_555
O7 Zr9 1_555 1_555
Zr3 O27 1_555 1_555
C20 C23 1_555 1_555
C21 C22 1_555 1_555
O21 Zr5 1_555 1_555
O21 Zr10 1_555 1_555
O31 Zr7 1_555 1_555
O2_2 S1_2 1_555 1_555
O3_2 C11_2 1_555 1_555
O4_2 C11_2 1_555 1_555
O5_2 C12_2 1_555 1_555
O6_2 C12_2 1_555 1_555
S1_2 C10_2 1_555 1_555
C1_2 C2_2 1_555 1_555
C2_2 C3_2 1_555 1_555
C3_2 C4_2 1_555 1_555
C4_2 C5_2 1_555 1_555
C5_2 C6_2 1_555 1_555
C6_2 C1_2 1_555 1_555
C7_2 C4_2 1_555 1_555
C8_2 C7_2 1_555 1_555
C9_2 C8_2 1_555 1_555
C10_2 C3_2 1_555 1_555
C11_2 C8_2 1_555 1_555
C12_2 C1_2 1_555 1_555
H1_2 C2_2 1_555 1_555
H2_2 C5_2 1_555 1_555
H3_2 C6_2 1_555 1_555
H4_2 C7_2 1_555 1_555
H5_2 C9_2 1_555 1_555
Zr1_2 O6_2 1_555 1_555
Zr2_2 O3_2 1_555 1_555
Zr3_2 O4_2 1_555 1_555
O8 Zr1_2 1_555 1_555
O9 Zr2_2 1_555 1_555
O10 S1_2 1_555 1_555
O11 S2_2 1_555 1_555
O12_2 S2_2 1_555 1_555
O13_2 Zr2_2 1_555 1_555
O14_2 C23_2 1_555 1_555
O15_2 C24_2 1_555 1_555
O16_2 C24_2 1_555 1_555
S2_2 C22_2 1_555 1_555
C13_2 C14_2 1_555 1_555
C14_2 C15_2 1_555 1_555
C15_2 C16_2 1_555 1_555
C16_2 C17_2 1_555 1_555
C17_2 C18_2 1_555 1_555
C18_2 C13_2 1_555 1_555
C19_2 C16_2 1_555 1_555
C20_2 C19_2 1_555 1_555
C21_2 C20_2 1_555 1_555
C22_2 C15_2 1_555 1_555
C23_2 O13_2 1_555 1_555
C24_2 C13_2 1_555 1_555
H6_2 C14_2 1_555 1_555
H7_2 C17_2 1_555 1_555
H8_2 C18_2 1_555 1_555
H9_2 C19_2 1_555 1_555
H10_2 C21_2 1_555 1_555
O19 Zr1_2 1_555 1_555
O22 Zr1_2 1_555 1_555
O25 Zr3_2 1_555 1_555
O26_2 Zr1_2 1_555 1_555
O28 Zr2_2 1_555 1_555
O32 Zr2_2 1_555 1_555
Zr4_2 O16_2 1_555 1_555
Zr6 O19 1_555 1_555
Zr7_2 O14_2 1_555 1_555
Zr9_2 O5_2 1_555 1_555
Zr9_4 O15_2 1_555 1_555
Zr10_2 O19 1_555 1_555
C9_2 C10_2 1_555 1_555
Zr3_2 O32 1_555 1_555
C20_2 C23_2 1_555 1_555
C21_2 C22_2 1_555 1_555
O22 Zr6 1_555 1_555
O22 Zr9_2 1_555 1_555
O28 Zr7_2 1_555 1_555
O23 Zr3_3 1_555 1_555
O24_2 Zr3_3 1_555 1_555
O30 Zr3_3 1_555 1_555
O23_2 Zr3_4 1_555 1_555
O25_2 Zr3_4 1_555 1_555
O29 Zr3_4 1_555 1_555
O24_3 Zr7 1_555 1_555
O25_3 Zr7_2 1_555 1_555
O1_2 S1_3 1_555 1_555
O2_3 S1_3 1_555 1_555
O3_3 C11_3 1_555 1_555
O4_3 C11_3 1_555 1_555
O5_3 C12_3 1_555 1_555
O6_3 C12_3 1_555 1_555
S1_3 C10_3 1_555 1_555
C1_3 C2_3 1_555 1_555
C2_3 C3_3 1_555 1_555
C3_3 C4_3 1_555 1_555
C4_3 C5_3 1_555 1_555
C5_3 C6_3 1_555 1_555
C6_3 C1_3 1_555 1_555
C7_3 C4_3 1_555 1_555
C8_3 C7_3 1_555 1_555
C9_3 C8_3 1_555 1_555
C10_3 C3_3 1_555 1_555
C11_3 C8_3 1_555 1_555
C12_3 C1_3 1_555 1_555
H1_3 C2_3 1_555 1_555
H2_3 C5_3 1_555 1_555
H3_3 C6_3 1_555 1_555
H4_3 C7_3 1_555 1_555
H5_3 C9_3 1_555 1_555
O7_2 Zr4 1_555 1_555
Zr4 O6_3 1_555 1_555
Zr2_3 O3_3 1_555 1_555
Zr7_3 O4_3 1_555 1_555
O12_3 S2_3 1_555 1_555
O13_3 Zr2_3 1_555 1_555
O23 C23_3 1_555 1_555
O15_3 C24_3 1_555 1_555
O26 C24_3 1_555 1_555
S2_3 C22_3 1_555 1_555
C13_3 C14_3 1_555 1_555
C14_3 C15_3 1_555 1_555
C15_3 C16_3 1_555 1_555
C16_3 C17_3 1_555 1_555
C17_3 C18_3 1_555 1_555
C18_3 C13_3 1_555 1_555
C19_3 C16_3 1_555 1_555
C20_3 C19_3 1_555 1_555
C21_3 C20_3 1_555 1_555
C22_3 C15_3 1_555 1_555
C23_3 O13_3 1_555 1_555
C24_3 C13_3 1_555 1_555
H6_3 C14_3 1_555 1_555
H7_3 C17_3 1_555 1_555
H8_3 C18_3 1_555 1_555
H9_3 C19_3 1_555 1_555
H10_3 C21_3 1_555 1_555
O17_2 Zr2_3 1_555 1_555
O18_2 S2_3 1_555 1_555
O20_2 Zr4 1_555 1_555
O21_2 Zr4 1_555 1_555
O24_4 Zr7_3 1_555 1_555
O27_2 Zr2_3 1_555 1_555
O30 Zr2_3 1_555 1_555
Zr5_2 O7_2 1_555 1_555
Zr10_3 O5_3 1_555 1_555
Zr10 O15_3 1_555 1_555
C9_3 C10_3 1_555 1_555
O7_2 Zr10_3 1_555 1_555
Zr7_3 O27_2 1_555 1_555
C20_3 C23_3 1_555 1_555
C21_3 C22_3 1_555 1_555
O21_2 Zr5_2 1_555 1_555
O21_2 Zr9_3 1_555 1_555
O2_4 S1_4 1_555 1_555
O3_4 C11_4 1_555 1_555
O4_4 C11_4 1_555 1_555
O5_4 C12_4 1_555 1_555
O6_4 C12_4 1_555 1_555
S1_4 C10_4 1_555 1_555
C1_4 C2_4 1_555 1_555
C2_4 C3_4 1_555 1_555
C3_4 C4_4 1_555 1_555
C4_4 C5_4 1_555 1_555
C5_4 C6_4 1_555 1_555
C6_4 C1_4 1_555 1_555
C7_4 C4_4 1_555 1_555
C8_4 C7_4 1_555 1_555
C9_4 C8_4 1_555 1_555
C10_4 C3_4 1_555 1_555
C11_4 C8_4 1_555 1_555
C12_4 C1_4 1_555 1_555
H1_4 C2_4 1_555 1_555
H2_4 C5_4 1_555 1_555
H3_4 C6_4 1_555 1_555
H4_4 C7_4 1_555 1_555
H5_4 C9_4 1_555 1_555
Zr4_2 O6_4 1_555 1_555
Zr2_4 O3_4 1_555 1_555
Zr7_4 O4_4 1_555 1_555
O8_2 Zr4_2 1_555 1_555
O9_2 Zr2_4 1_555 1_555
O10_2 S1_4 1_555 1_555
O11_2 S2_4 1_555 1_555
O12_4 S2_4 1_555 1_555
O13_4 Zr2_4 1_555 1_555
O23_2 C23_4 1_555 1_555
O15_4 C24_4 1_555 1_555
O26_2 C24_4 1_555 1_555
S2_4 C22_4 1_555 1_555
C13_4 C14_4 1_555 1_555
C14_4 C15_4 1_555 1_555
C15_4 C16_4 1_555 1_555
C16_4 C17_4 1_555 1_555
C17_4 C18_4 1_555 1_555
C18_4 C13_4 1_555 1_555
C19_4 C16_4 1_555 1_555
C20_4 C19_4 1_555 1_555
C21_4 C20_4 1_555 1_555
C22_4 C15_4 1_555 1_555
C23_4 O13_4 1_555 1_555
C24_4 C13_4 1_555 1_555
H6_4 C14_4 1_555 1_555
H7_4 C17_4 1_555 1_555
H8_4 C18_4 1_555 1_555
H9_4 C19_4 1_555 1_555
H10_4 C21_4 1_555 1_555
O19_2 Zr4_2 1_555 1_555
O22_2 Zr4_2 1_555 1_555
O25_4 Zr7_4 1_555 1_555
O29 Zr2_4 1_555 1_555
O32_2 Zr2_4 1_555 1_555
Zr6_2 O19_2 1_555 1_555
Zr10_4 O5_4 1_555 1_555
Zr10_2 O15_4 1_555 1_555
Zr9_4 O19_2 1_555 1_555
C9_4 C10_4 1_555 1_555
Zr7_4 O32_2 1_555 1_555
C20_4 C23_4 1_555 1_555
C21_4 C22_4 1_555 1_555
O22_2 Zr6_2 1_555 1_555
O22_2 Zr10_4 1_555 1_555
O1_3 S1_5 1_555 1_555
O2_5 S1_5 1_555 1_555
O3_5 C11_5 1_555 1_555
O4_5 C11_5 1_555 1_555
O5_5 C12_5 1_555 1_555
O6_5 C12_5 1_555 1_555
S1_5 C10_5 1_555 1_555
C1_5 C2_5 1_555 1_555
C2_5 C3_5 1_555 1_555
C3_5 C4_5 1_555 1_555
C4_5 C5_5 1_555 1_555
C5_5 C6_5 1_555 1_555
C6_5 C1_5 1_555 1_555
C7_5 C4_5 1_555 1_555
C8_5 C7_5 1_555 1_555
C9_5 C8_5 1_555 1_555
C10_5 C3_5 1_555 1_555
C11_5 C8_5 1_555 1_555
C12_5 C1_5 1_555 1_555
H1_5 C2_5 1_555 1_555
H2_5 C5_5 1_555 1_555
H3_5 C6_5 1_555 1_555
H4_5 C7_5 1_555 1_555
H5_5 C9_5 1_555 1_555
O7_3 Zr1_3 1_555 1_555
Zr1_3 O6_5 1_555 1_555
Zr5 O3_5 1_555 1_555
Zr9 O4_5 1_555 1_555
O12_5 S2_5 1_555 1_555
O13_5 Zr5 1_555 1_555
O14_3 C23_5 1_555 1_555
O15_5 C24_5 1_555 1_555
O16_3 C24_5 1_555 1_555
S2_5 C22_5 1_555 1_555
C13_5 C14_5 1_555 1_555
C14_5 C15_5 1_555 1_555
C15_5 C16_5 1_555 1_555
C16_5 C17_5 1_555 1_555
C17_5 C18_5 1_555 1_555
C18_5 C13_5 1_555 1_555
C19_5 C16_5 1_555 1_555
C20_5 C19_5 1_555 1_555
C21_5 C20_5 1_555 1_555
C22_5 C15_5 1_555 1_555
C23_5 O13_5 1_555 1_555
C24_5 C13_5 1_555 1_555
H6_5 C14_5 1_555 1_555
H7_5 C17_5 1_555 1_555
H8_5 C18_5 1_555 1_555
H9_5 C19_5 1_555 1_555
H10_5 C21_5 1_555 1_555
O17_3 Zr5 1_555 1_555
O18_3 S2_5 1_555 1_555
O20_3 Zr1_3 1_555 1_555
O21_3 Zr1_3 1_555 1_555
O26_3 Zr1_3 1_555 1_555
Zr4_3 O16_3 1_555 1_555
Zr5_3 O7_3 1_555 1_555
Zr10 O14_3 1_555 1_555
Zr9_5 O5_5 1_555 1_555
Zr9_6 O15_5 1_555 1_555
C9_5 C10_5 1_555 1_555
O7_3 Zr9_5 1_555 1_555
C20_5 C23_5 1_555 1_555
C21_5 C22_5 1_555 1_555
O21_3 Zr5_3 1_555 1_555
O21_3 Zr10_5 1_555 1_555
O23_3 Zr9_2 1_555 1_555
O2_6 S1_6 1_555 1_555
O3_6 C11_6 1_555 1_555
O4_6 C11_6 1_555 1_555
O5_6 C12_6 1_555 1_555
O6_6 C12_6 1_555 1_555
S1_6 C10_6 1_555 1_555
C1_6 C2_6 1_555 1_555
C2_6 C3_6 1_555 1_555
C3_6 C4_6 1_555 1_555
C4_6 C5_6 1_555 1_555
C5_6 C6_6 1_555 1_555
C6_6 C1_6 1_555 1_555
C7_6 C4_6 1_555 1_555
C8_6 C7_6 1_555 1_555
C9_6 C8_6 1_555 1_555
C10_6 C3_6 1_555 1_555
C11_6 C8_6 1_555 1_555
C12_6 C1_6 1_555 1_555
H1_6 C2_6 1_555 1_555
H2_6 C5_6 1_555 1_555
H3_6 C6_6 1_555 1_555
H4_6 C7_6 1_555 1_555
H5_6 C9_6 1_555 1_555
Zr1_4 O6_6 1_555 1_555
Zr5_2 O3_6 1_555 1_555
Zr9_3 O4_6 1_555 1_555
O8_3 Zr1_4 1_555 1_555
O9_3 Zr5_2 1_555 1_555
O10_3 S1_6 1_555 1_555
O11_3 S2_6 1_555 1_555
O12_6 S2_6 1_555 1_555
O13_6 Zr5_2 1_555 1_555
O14_4 C23_6 1_555 1_555
O15_6 C24_6 1_555 1_555
O16_4 C24_6 1_555 1_555
S2_6 C22_6 1_555 1_555
C13_6 C14_6 1_555 1_555
C14_6 C15_6 1_555 1_555
C15_6 C16_6 1_555 1_555
C16_6 C17_6 1_555 1_555
C17_6 C18_6 1_555 1_555
C18_6 C13_6 1_555 1_555
C19_6 C16_6 1_555 1_555
C20_6 C19_6 1_555 1_555
C21_6 C20_6 1_555 1_555
C22_6 C15_6 1_555 1_555
C23_6 O13_6 1_555 1_555
C24_6 C13_6 1_555 1_555
H6_6 C14_6 1_555 1_555
H7_6 C17_6 1_555 1_555
H8_6 C18_6 1_555 1_555
H9_6 C19_6 1_555 1_555
H10_6 C21_6 1_555 1_555
O19_3 Zr1_4 1_555 1_555
O22_3 Zr1_4 1_555 1_555
O26_4 Zr1_4 1_555 1_555
Zr4_4 O16_4 1_555 1_555
Zr6_3 O19_3 1_555 1_555
Zr10_3 O14_4 1_555 1_555
Zr9_7 O5_6 1_555 1_555
Zr9_8 O15_6 1_555 1_555
Zr10_7 O19_3 1_555 1_555
C9_6 C10_6 1_555 1_555
C20_6 C23_6 1_555 1_555
C21_6 C22_6 1_555 1_555
O22_3 Zr6_3 1_555 1_555
O22_3 Zr9_7 1_555 1_555
O23_4 Zr9_4 1_555 1_555
O1_4 S1_7 1_555 1_555
O2_7 S1_7 1_555 1_555
O3_7 C11_7 1_555 1_555
O4_7 C11_7 1_555 1_555
O5_7 C12_7 1_555 1_555
O6_7 C12_7 1_555 1_555
S1_7 C10_7 1_555 1_555
C1_7 C2_7 1_555 1_555
C2_7 C3_7 1_555 1_555
C3_7 C4_7 1_555 1_555
C4_7 C5_7 1_555 1_555
C5_7 C6_7 1_555 1_555
C6_7 C1_7 1_555 1_555
C7_7 C4_7 1_555 1_555
C8_7 C7_7 1_555 1_555
C9_7 C8_7 1_555 1_555
C10_7 C3_7 1_555 1_555
C11_7 C8_7 1_555 1_555
C12_7 C1_7 1_555 1_555
H1_7 C2_7 1_555 1_555
H2_7 C5_7 1_555 1_555
H3_7 C6_7 1_555 1_555
H4_7 C7_7 1_555 1_555
H5_7 C9_7 1_555 1_555
O7_4 Zr4_3 1_555 1_555
Zr4_3 O6_7 1_555 1_555
Zr6 O3_7 1_555 1_555
Zr10_2 O4_7 1_555 1_555
O12_7 S2_7 1_555 1_555
O13_7 Zr6 1_555 1_555
O23_3 C23_7 1_555 1_555
O15_7 C24_7 1_555 1_555
O26_3 C24_7 1_555 1_555
S2_7 C22_7 1_555 1_555
C13_7 C14_7 1_555 1_555
C14_7 C15_7 1_555 1_555
C15_7 C16_7 1_555 1_555
C16_7 C17_7 1_555 1_555
C17_7 C18_7 1_555 1_555
C18_7 C13_7 1_555 1_555
C19_7 C16_7 1_555 1_555
C20_7 C19_7 1_555 1_555
C21_7 C20_7 1_555 1_555
C22_7 C15_7 1_555 1_555
C23_7 O13_7 1_555 1_555
C24_7 C13_7 1_555 1_555
H6_7 C14_7 1_555 1_555
H7_7 C17_7 1_555 1_555
H8_7 C18_7 1_555 1_555
H9_7 C19_7 1_555 1_555
H10_7 C21_7 1_555 1_555
O17_4 Zr6 1_555 1_555
O18_4 S2_7 1_555 1_555
O20_4 Zr4_3 1_555 1_555
O21_4 Zr4_3 1_555 1_555
Zr5_4 O7_4 1_555 1_555
Zr10_6 O5_7 1_555 1_555
Zr10_5 O15_7 1_555 1_555
C9_7 C10_7 1_555 1_555
O7_4 Zr10_6 1_555 1_555
C20_7 C23_7 1_555 1_555
C21_7 C22_7 1_555 1_555
O21_4 Zr5_4 1_555 1_555
O21_4 Zr9_6 1_555 1_555
O2_8 S1_8 1_555 1_555
O3_8 C11_8 1_555 1_555
O4_8 C11_8 1_555 1_555
O5_8 C12_8 1_555 1_555
O6_8 C12_8 1_555 1_555
S1_8 C10_8 1_555 1_555
C1_8 C2_8 1_555 1_555
C2_8 C3_8 1_555 1_555
C3_8 C4_8 1_555 1_555
C4_8 C5_8 1_555 1_555
C5_8 C6_8 1_555 1_555
C6_8 C1_8 1_555 1_555
C7_8 C4_8 1_555 1_555
C8_8 C7_8 1_555 1_555
C9_8 C8_8 1_555 1_555
C10_8 C3_8 1_555 1_555
C11_8 C8_8 1_555 1_555
C12_8 C1_8 1_555 1_555
H1_8 C2_8 1_555 1_555
H2_8 C5_8 1_555 1_555
H3_8 C6_8 1_555 1_555
H4_8 C7_8 1_555 1_555
H5_8 C9_8 1_555 1_555
Zr4_4 O6_8 1_555 1_555
Zr6_2 O3_8 1_555 1_555
Zr10_4 O4_8 1_555 1_555
O8_4 Zr4_4 1_555 1_555
O9_4 Zr6_2 1_555 1_555
O10_4 S1_8 1_555 1_555
O11_4 S2_8 1_555 1_555
O12_8 S2_8 1_555 1_555
O13_8 Zr6_2 1_555 1_555
O23_4 C23_8 1_555 1_555
O15_8 C24_8 1_555 1_555
O26_4 C24_8 1_555 1_555
S2_8 C22_8 1_555 1_555
C13_8 C14_8 1_555 1_555
C14_8 C15_8 1_555 1_555
C15_8 C16_8 1_555 1_555
C16_8 C17_8 1_555 1_555
C17_8 C18_8 1_555 1_555
C18_8 C13_8 1_555 1_555
C19_8 C16_8 1_555 1_555
C20_8 C19_8 1_555 1_555
C21_8 C20_8 1_555 1_555
C22_8 C15_8 1_555 1_555
C23_8 O13_8 1_555 1_555
C24_8 C13_8 1_555 1_555
H6_8 C14_8 1_555 1_555
H7_8 C17_8 1_555 1_555
H8_8 C18_8 1_555 1_555
H9_8 C19_8 1_555 1_555
H10_8 C21_8 1_555 1_555
O19_4 Zr4_4 1_555 1_555
O22_4 Zr4_4 1_555 1_555
Zr6_4 O19_4 1_555 1_555
Zr10_8 O5_8 1_555 1_555
Zr10_7 O15_8 1_555 1_555
Zr9_8 O19_4 1_555 1_555
C9_8 C10_8 1_555 1_555
C20_8 C23_8 1_555 1_555
C21_8 C22_8 1_555 1_555
O22_4 Zr6_4 1_555 1_555
O22_4 Zr10_8 1_555 1_555
O1_5 S1_9 1_555 1_555
O2_9 S1_9 1_555 1_555
O3_9 C11_9 1_555 1_555
O4_9 C11_9 1_555 1_555
O24 C12_9 1_555 1_555
O6_9 C12_9 1_555 1_555
S1_9 C10_9 1_555 1_555
C1_9 C2_9 1_555 1_555
C2_9 C3_9 1_555 1_555
C3_9 C4_9 1_555 1_555
C4_9 C5_9 1_555 1_555
C5_9 C6_9 1_555 1_555
C6_9 C1_9 1_555 1_555
C7_9 C4_9 1_555 1_555
C8_9 C7_9 1_555 1_555
C9_9 C8_9 1_555 1_555
C10_9 C3_9 1_555 1_555
C11_9 C8_9 1_555 1_555
C12_9 C1_9 1_555 1_555
H1_9 C2_9 1_555 1_555
H2_9 C5_9 1_555 1_555
H3_9 C6_9 1_555 1_555
H4_9 C7_9 1_555 1_555
H5_9 C9_9 1_555 1_555
O27 Zr1_5 1_555 1_555
Zr1_5 O6_9 1_555 1_555
Zr5_3 O3_9 1_555 1_555
Zr9_5 O4_9 1_555 1_555
O12_9 S2_9 1_555 1_555
O13_9 Zr5_3 1_555 1_555
O14_5 C23_9 1_555 1_555
O25 C24_9 1_555 1_555
O16_5 C24_9 1_555 1_555
S2_9 C22_9 1_555 1_555
C13_9 C14_9 1_555 1_555
C14_9 C15_9 1_555 1_555
C15_9 C16_9 1_555 1_555
C16_9 C17_9 1_555 1_555
C17_9 C18_9 1_555 1_555
C18_9 C13_9 1_555 1_555
C19_9 C16_9 1_555 1_555
C20_9 C19_9 1_555 1_555
C21_9 C20_9 1_555 1_555
C22_9 C15_9 1_555 1_555
C23_9 O13_9 1_555 1_555
C24_9 C13_9 1_555 1_555
H6_9 C14_9 1_555 1_555
H7_9 C17_9 1_555 1_555
H8_9 C18_9 1_555 1_555
H9_9 C19_9 1_555 1_555
H10_9 C21_9 1_555 1_555
O17_5 Zr5_3 1_555 1_555
O18_5 S2_9 1_555 1_555
O20_5 Zr1_5 1_555 1_555
O31 Zr1_5 1_555 1_555
O26_5 Zr1_5 1_555 1_555
Zr4_5 O16_5 1_555 1_555
Zr10_5 O14_5 1_555 1_555
C9_9 C10_9 1_555 1_555
C20_9 C23_9 1_555 1_555
C21_9 C22_9 1_555 1_555
O2_10 S1_10 1_555 1_555
O3_10 C11_10 1_555 1_555
O4_10 C11_10 1_555 1_555
O24_2 C12_10 1_555 1_555
O6_10 C12_10 1_555 1_555
S1_10 C10_10 1_555 1_555
C1_10 C2_10 1_555 1_555
C2_10 C3_10 1_555 1_555
C3_10 C4_10 1_555 1_555
C4_10 C5_10 1_555 1_555
C5_10 C6_10 1_555 1_555
C6_10 C1_10 1_555 1_555
C7_10 C4_10 1_555 1_555
C8_10 C7_10 1_555 1_555
C9_10 C8_10 1_555 1_555
C10_10 C3_10 1_555 1_555
C11_10 C8_10 1_555 1_555
C12_10 C1_10 1_555 1_555
H1_10 C2_10 1_555 1_555
H2_10 C5_10 1_555 1_555
H3_10 C6_10 1_555 1_555
H4_10 C7_10 1_555 1_555
H5_10 C9_10 1_555 1_555
Zr1_6 O6_10 1_555 1_555
Zr5_4 O3_10 1_555 1_555
Zr9_6 O4_10 1_555 1_555
O8_5 Zr1_6 1_555 1_555
O9_5 Zr5_4 1_555 1_555
O10_5 S1_10 1_555 1_555
O11_5 S2_10 1_555 1_555
O12_10 S2_10 1_555 1_555
O13_10 Zr5_4 1_555 1_555
O14_6 C23_10 1_555 1_555
O25_2 C24_10 1_555 1_555
O16_6 C24_10 1_555 1_555
S2_10 C22_10 1_555 1_555
C13_10 C14_10 1_555 1_555
C14_10 C15_10 1_555 1_555
C15_10 C16_10 1_555 1_555
C16_10 C17_10 1_555 1_555
C17_10 C18_10 1_555 1_555
C18_10 C13_10 1_555 1_555
C19_10 C16_10 1_555 1_555
C20_10 C19_10 1_555 1_555
C21_10 C20_10 1_555 1_555
C22_10 C15_10 1_555 1_555
C23_10 O13_10 1_555 1_555
C24_10 C13_10 1_555 1_555
H6_10 C14_10 1_555 1_555
H7_10 C17_10 1_555 1_555
H8_10 C18_10 1_555 1_555
H9_10 C19_10 1_555 1_555
H10_10 C21_10 1_555 1_555
O27_2 Zr1_6 1_555 1_555
O30 Zr1_6 1_555 1_555
O26_6 Zr1_6 1_555 1_555
Zr4_6 O16_6 1_555 1_555
Zr10_6 O14_6 1_555 1_555
C9_10 C10_10 1_555 1_555
C20_10 C23_10 1_555 1_555
C21_10 C22_10 1_555 1_555
O23_5 Zr9_7 1_555 1_555
O23_6 Zr9_8 1_555 1_555
O1_6 S1_11 1_555 1_555
O2_11 S1_11 1_555 1_555
O3_11 C11_11 1_555 1_555
O4_11 C11_11 1_555 1_555
O25_3 C12_11 1_555 1_555
O6_11 C12_11 1_555 1_555
S1_11 C10_11 1_555 1_555
C1_11 C2_11 1_555 1_555
C2_11 C3_11 1_555 1_555
C3_11 C4_11 1_555 1_555
C4_11 C5_11 1_555 1_555
C5_11 C6_11 1_555 1_555
C6_11 C1_11 1_555 1_555
C7_11 C4_11 1_555 1_555
C8_11 C7_11 1_555 1_555
C9_11 C8_11 1_555 1_555
C10_11 C3_11 1_555 1_555
C11_11 C8_11 1_555 1_555
C12_11 C1_11 1_555 1_555
H1_11 C2_11 1_555 1_555
H2_11 C5_11 1_555 1_555
H3_11 C6_11 1_555 1_555
H4_11 C7_11 1_555 1_555
H5_11 C9_11 1_555 1_555
O28 Zr4_5 1_555 1_555
Zr4_5 O6_11 1_555 1_555
Zr6_3 O3_11 1_555 1_555
Zr10_7 O4_11 1_555 1_555
O12_11 S2_11 1_555 1_555
O13_11 Zr6_3 1_555 1_555
O23_5 C23_11 1_555 1_555
O24_3 C24_11 1_555 1_555
O26_5 C24_11 1_555 1_555
S2_11 C22_11 1_555 1_555
C13_11 C14_11 1_555 1_555
C14_11 C15_11 1_555 1_555
C15_11 C16_11 1_555 1_555
C16_11 C17_11 1_555 1_555
C17_11 C18_11 1_555 1_555
C18_11 C13_11 1_555 1_555
C19_11 C16_11 1_555 1_555
C20_11 C19_11 1_555 1_555
C21_11 C20_11 1_555 1_555
C22_11 C15_11 1_555 1_555
C23_11 O13_11 1_555 1_555
C24_11 C13_11 1_555 1_555
H6_11 C14_11 1_555 1_555
H7_11 C17_11 1_555 1_555
H8_11 C18_11 1_555 1_555
H9_11 C19_11 1_555 1_555
H10_11 C21_11 1_555 1_555
O17_6 Zr6_3 1_555 1_555
O18_6 S2_11 1_555 1_555
O20_6 Zr4_5 1_555 1_555
O32 Zr4_5 1_555 1_555
C9_11 C10_11 1_555 1_555
C20_11 C23_11 1_555 1_555
C21_11 C22_11 1_555 1_555
O2_12 S1_12 1_555 1_555
O3_12 C11_12 1_555 1_555
O4_12 C11_12 1_555 1_555
O25_4 C12_12 1_555 1_555
O6_12 C12_12 1_555 1_555
S1_12 C10_12 1_555 1_555
C1_12 C2_12 1_555 1_555
C2_12 C3_12 1_555 1_555
C3_12 C4_12 1_555 1_555
C4_12 C5_12 1_555 1_555
C5_12 C6_12 1_555 1_555
C6_12 C1_12 1_555 1_555
C7_12 C4_12 1_555 1_555
C8_12 C7_12 1_555 1_555
C9_12 C8_12 1_555 1_555
C10_12 C3_12 1_555 1_555
C11_12 C8_12 1_555 1_555
C12_12 C1_12 1_555 1_555
H1_12 C2_12 1_555 1_555
H2_12 C5_12 1_555 1_555
H3_12 C6_12 1_555 1_555
H4_12 C7_12 1_555 1_555
H5_12 C9_12 1_555 1_555
Zr4_6 O6_12 1_555 1_555
Zr6_4 O3_12 1_555 1_555
Zr10_8 O4_12 1_555 1_555
O8_6 Zr4_6 1_555 1_555
O9_6 Zr6_4 1_555 1_555
O10_6 S1_12 1_555 1_555
O11_6 S2_12 1_555 1_555
O12_12 S2_12 1_555 1_555
O13_12 Zr6_4 1_555 1_555
O23_6 C23_12 1_555 1_555
O24_4 C24_12 1_555 1_555
O26_6 C24_12 1_555 1_555
S2_12 C22_12 1_555 1_555
C13_12 C14_12 1_555 1_555
C14_12 C15_12 1_555 1_555
C15_12 C16_12 1_555 1_555
C16_12 C17_12 1_555 1_555
C17_12 C18_12 1_555 1_555
C18_12 C13_12 1_555 1_555
C19_12 C16_12 1_555 1_555
C20_12 C19_12 1_555 1_555
C21_12 C20_12 1_555 1_555
C22_12 C15_12 1_555 1_555
C23_12 O13_12 1_555 1_555
C24_12 C13_12 1_555 1_555
H6_12 C14_12 1_555 1_555
H7_12 C17_12 1_555 1_555
H8_12 C18_12 1_555 1_555
H9_12 C19_12 1_555 1_555
H10_12 C21_12 1_555 1_555
O29 Zr4_6 1_555 1_555
O32_2 Zr4_6 1_555 1_555
C9_12 C10_12 1_555 1_555
C20_12 C23_12 1_555 1_555
C21_12 C22_12 1_555 1_555

#END
