
###############################################################################
#
# This file contains modified crystal structure data generated from the
# MOF subset of the Cambridge Structural Database (CSD) v543 
# hosted by the Cambridge Crystallographic Data Centre (CCDC).
#
# This work is licensed under the Creative Commons
# Attribution-NonCommercial-ShareAlike 4.0 International License.
# To view a copy of this license, visit
# http://creativecommons.org/licenses/by-nc-sa/4.0/
# or send a letter to
# Creative Commons, PO Box 1866, Mountain View, CA 94042, USA.
#
# CIF created using the CSD Python API on 29 September 2022
# The structure has been converted into the P1 space group
# The structure has a 3D framework
# The original CSD entry YUJKIA is in the orthorhombic crystal system
# The framework has been calculated to contain at least 10.0% void space
# The void calculation uses a probe of radius 1.32A, grid spacing 0.4
#
###############################################################################

data_YUJKIA
_chemical_formula_moiety         '(C176 H88 N24 O28 Zr1)n'
_symmetry_cell_setting           triclinic
_symmetry_space_group_name_H-M   'P 1'
_symmetry_Int_Tables_number      1
_space_group_name_Hall           'P 1'
loop_
_symmetry_equiv_pos_site_id
_symmetry_equiv_pos_as_xyz
1 x,y,z
_cell_length_a                   38.058(12)
_cell_length_b                   10.009(4)
_cell_length_c                   7.2953(20)
_cell_angle_alpha                90
_cell_angle_beta                 90
_cell_angle_gamma                90
_cell_volume                     2778.94
loop_
_atom_site_label
_atom_site_type_symbol
_atom_site_fract_x
_atom_site_fract_y
_atom_site_fract_z
_atom_site_U_iso_or_equiv
_atom_site_thermal_displace_type
C1 C 0.15380(32) 0.2005(8) 0.000 0.0394 Uiso
C2 C 0.11514(32) 0.1846(8) 0.000 0.0394 Uiso
C3 C 0.16661(30) 0.3304(9) 0.000 0.0394 Uiso
O1 O 0.04180(33) 0.1245(10) 0.3135(8) 0.0243 Uiso
C4 C 0.09826(32) 0.1764(8) 0.1703(8) 0.0394 Uiso
C5 C 0.06193(33) 0.1505(9) 0.1733(8) 0.0394 Uiso
H1 H 0.11354(32) 0.1826(8) 0.2955(23) 0.0550 Uiso
O2 O 0.01177(34) 0.1055(12) 0.000 0.0243 Uiso
C6 C 0.04526(33) 0.1402(10) 0.000 0.0394 Uiso
C7 C 0.31751(30) 0.3832(16) 0.000 0.0394 Uiso
C8 C 0.33007(30) 0.5188(17) 0.000 0.0394 Uiso
C9 C 0.30075(31) 0.5971(15) 0.000 0.0394 Uiso
C10 C 0.27040(30) 0.5116(13) 0.000 0.0394 Uiso
C11 C 0.23627(31) 0.5632(11) 0.000 0.0394 Uiso
C12 C 0.16880(31) 0.5542(9) 0.000 0.0394 Uiso
C13 C 0.14569(30) 0.4501(8) 0.000 0.0394 Uiso
C14 C 0.20407(30) 0.4975(10) 0.000 0.0394 Uiso
N1 N 0.28135(30) 0.3813(14) 0.000 0.0394 Uiso
N2 N 0.20154(30) 0.3614(10) 0.000 0.0394 Uiso
H2 H 0.35775(31) 0.5461(19) 0.000 0.0550 Uiso
H3 H 0.16119(32) 0.6584(8) 0.000 0.0550 Uiso
H4 H 0.11708(30) 0.4533(8) 0.000 0.0550 Uiso
H5 H 0.29910(33) 0.7040(15) 0.000 0.0550 Uiso
H6 H 0.23513(33) 0.6708(11) 0.000 0.0550 Uiso
H7 H 0.22558(31) 0.2959(11) 0.000 0.0550 Uiso
Zr1 Zr -0.000 -0.000 0.250 0.0080 Uiso
C17 C 0.34620(32) 0.2995(8) 0.000 0.0394 Uiso
C18 C 0.38486(32) 0.3154(8) 0.000 0.0394 Uiso
C19 C 0.33339(30) 0.1696(9) 0.000 0.0394 Uiso
O4 O 0.45820(33) 0.3755(10) 0.3135(8) 0.0243 Uiso
C20 C 0.40174(32) 0.3236(8) 0.1703(8) 0.0394 Uiso
C21 C 0.43807(33) 0.3495(9) 0.1733(8) 0.0394 Uiso
H9 H 0.38646(32) 0.3174(8) 0.2955(23) 0.0550 Uiso
O5 O 0.48823(34) 0.3945(12) 0.000 0.0243 Uiso
C22 C 0.45474(33) 0.3598(10) 0.000 0.0394 Uiso
C23 C 0.18249(30) 0.1168(16) 0.000 0.0394 Uiso
C29 C 0.35431(30) 0.0499(8) 0.000 0.0394 Uiso
C30 C 0.29593(30) 0.0025(10) 0.000 0.0394 Uiso
N3 N 0.21865(30) 0.1187(14) 0.000 0.0394 Uiso
N4 N 0.29846(30) 0.1386(10) 0.000 0.0394 Uiso
H12 H 0.38292(30) 0.0467(8) 0.000 0.0550 Uiso
H15 H 0.27442(31) 0.2041(11) 0.000 0.0550 Uiso
Zr3 Zr 0.500 0.500 0.250 0.0080 Uiso
C1_2 C 0.15380(32) 0.2005(8) 1.000 0.0394 Uiso
C2_2 C 0.11514(32) 0.1846(8) 1.000 0.0394 Uiso
C3_2 C 0.16661(30) 0.3304(9) 1.000 0.0394 Uiso
O2_2 O 0.01177(34) 0.1055(12) 1.000 0.0243 Uiso
C6_2 C 0.04526(33) 0.1402(10) 1.000 0.0394 Uiso
C7_2 C 0.31751(30) 0.3832(16) 1.000 0.0394 Uiso
C8_2 C 0.33007(30) 0.5188(17) 1.000 0.0394 Uiso
C9_2 C 0.30075(31) 0.5971(15) 1.000 0.0394 Uiso
C10_2 C 0.27040(30) 0.5116(13) 1.000 0.0394 Uiso
C11_2 C 0.23627(31) 0.5632(11) 1.000 0.0394 Uiso
C12_2 C 0.16880(31) 0.5542(9) 1.000 0.0394 Uiso
C13_2 C 0.14569(30) 0.4501(8) 1.000 0.0394 Uiso
C14_2 C 0.20407(30) 0.4975(10) 1.000 0.0394 Uiso
N1_2 N 0.28135(30) 0.3813(14) 1.000 0.0394 Uiso
N2_2 N 0.20154(30) 0.3614(10) 1.000 0.0394 Uiso
H2_2 H 0.35775(31) 0.5461(19) 1.000 0.0550 Uiso
H3_2 H 0.16119(32) 0.6584(8) 1.000 0.0550 Uiso
H4_2 H 0.11708(30) 0.4533(8) 1.000 0.0550 Uiso
H5_2 H 0.29910(33) 0.7040(15) 1.000 0.0550 Uiso
H6_2 H 0.23513(33) 0.6708(11) 1.000 0.0550 Uiso
H7_2 H 0.22558(31) 0.2959(11) 1.000 0.0550 Uiso
O3 O 0.04180(33) 0.1245(10) 0.6865(8) 0.0243 Uiso
C15 C 0.09826(32) 0.1764(8) 0.8297(8) 0.0394 Uiso
C16 C 0.06193(33) 0.1505(9) 0.8267(8) 0.0394 Uiso
H8 H 0.11354(32) 0.1826(8) 0.7045(23) 0.0550 Uiso
C17_2 C 0.34620(32) 0.2995(8) 1.000 0.0394 Uiso
C18_2 C 0.38486(32) 0.3154(8) 1.000 0.0394 Uiso
C19_2 C 0.33339(30) 0.1696(9) 1.000 0.0394 Uiso
O5_2 O 0.48823(34) 0.3945(12) 1.000 0.0243 Uiso
C22_2 C 0.45474(33) 0.3598(10) 1.000 0.0394 Uiso
C23_2 C 0.18249(30) 0.1168(16) 1.000 0.0394 Uiso
C29_2 C 0.35431(30) 0.0499(8) 1.000 0.0394 Uiso
C30_2 C 0.29593(30) 0.0025(10) 1.000 0.0394 Uiso
N3_2 N 0.21865(30) 0.1187(14) 1.000 0.0394 Uiso
N4_2 N 0.29846(30) 0.1386(10) 1.000 0.0394 Uiso
H12_2 H 0.38292(30) 0.0467(8) 1.000 0.0550 Uiso
H15_2 H 0.27442(31) 0.2041(11) 1.000 0.0550 Uiso
O6 O 0.45820(33) 0.3755(10) 0.6865(8) 0.0243 Uiso
C31 C 0.40174(32) 0.3236(8) 0.8297(8) 0.0394 Uiso
C32 C 0.43807(33) 0.3495(9) 0.8267(8) 0.0394 Uiso
H16 H 0.38646(32) 0.3174(8) 0.7045(23) 0.0550 Uiso
Zr2 Zr 0.000 0.000 0.750 0.0080 Uiso
Zr4 Zr 0.500 0.500 0.750 0.0080 Uiso
Zr1_2 Zr -0.000 1.000 0.250 0.0080 Uiso
C24 C 0.16993(30) 0.9812(17) 0.000 0.0394 Uiso
C25 C 0.19925(31) 0.9029(15) 0.000 0.0394 Uiso
C26 C 0.22960(30) 0.9884(13) 0.000 0.0394 Uiso
C27 C 0.26373(31) 0.9368(11) 0.000 0.0394 Uiso
C28 C 0.33120(31) 0.9458(9) 0.000 0.0394 Uiso
H10 H 0.14225(31) 0.9539(19) 0.000 0.0550 Uiso
H11 H 0.33881(32) 0.8416(8) 0.000 0.0550 Uiso
H13 H 0.20090(33) 0.7960(15) 0.000 0.0550 Uiso
H14 H 0.26487(33) 0.8292(11) 0.000 0.0550 Uiso
O8 O 0.04180(33) 0.8755(10) 0.1865(8) 0.0243 Uiso
O11 O 0.01177(34) 0.8945(12) 0.500 0.0243 Uiso
C24_2 C 0.16993(30) 0.9812(17) 1.000 0.0394 Uiso
C25_2 C 0.19925(31) 0.9029(15) 1.000 0.0394 Uiso
C26_2 C 0.22960(30) 0.9884(13) 1.000 0.0394 Uiso
C27_2 C 0.26373(31) 0.9368(11) 1.000 0.0394 Uiso
C28_2 C 0.33120(31) 0.9458(9) 1.000 0.0394 Uiso
H10_2 H 0.14225(31) 0.9539(19) 1.000 0.0550 Uiso
H11_2 H 0.33881(32) 0.8416(8) 1.000 0.0550 Uiso
H13_2 H 0.20090(33) 0.7960(15) 1.000 0.0550 Uiso
H14_2 H 0.26487(33) 0.8292(11) 1.000 0.0550 Uiso
Zr2_2 Zr -0.000 1.000 0.750 0.0080 Uiso
Zr1_3 Zr 1.000 -0.000 0.250 0.0080 Uiso
O9 O 0.95820(33) 0.1245(10) 0.1865(8) 0.0243 Uiso
O10 O 0.98823(34) 0.1055(12) 0.500 0.0243 Uiso
Zr2_3 Zr 1.000 0.000 0.750 0.0080 Uiso
Zr1_4 Zr 1.000 1.000 0.250 0.0080 Uiso
O7 O 0.95820(33) 0.8755(10) 0.3135(8) 0.0243 Uiso
O12 O 0.98823(34) 0.8945(12) 0.000 0.0243 Uiso
O12_2 O 0.98823(34) 0.8945(12) 1.000 0.0243 Uiso
Zr2_4 Zr 1.000 1.000 0.750 0.0080 Uiso
C24_3 C 0.83007(30) 0.0188(17) 0.000 0.0394 Uiso
C25_3 C 0.80075(31) 0.0971(15) 0.000 0.0394 Uiso
C26_3 C 0.77040(30) 0.0116(13) 0.000 0.0394 Uiso
C27_3 C 0.73627(31) 0.0632(11) 0.000 0.0394 Uiso
C28_3 C 0.66880(31) 0.0542(9) 0.000 0.0394 Uiso
H10_3 H 0.85775(31) 0.0461(19) 0.000 0.0550 Uiso
H11_3 H 0.66119(32) 0.1584(8) 0.000 0.0550 Uiso
H13_3 H 0.79910(33) 0.2040(15) 0.000 0.0550 Uiso
H14_3 H 0.73513(33) 0.1708(11) 0.000 0.0550 Uiso
C24_4 C 0.83007(30) 0.0188(17) 1.000 0.0394 Uiso
C25_4 C 0.80075(31) 0.0971(15) 1.000 0.0394 Uiso
C26_4 C 0.77040(30) 0.0116(13) 1.000 0.0394 Uiso
C27_4 C 0.73627(31) 0.0632(11) 1.000 0.0394 Uiso
C28_4 C 0.66880(31) 0.0542(9) 1.000 0.0394 Uiso
H10_4 H 0.85775(31) 0.0461(19) 1.000 0.0550 Uiso
H11_4 H 0.66119(32) 0.1584(8) 1.000 0.0550 Uiso
H13_4 H 0.79910(33) 0.2040(15) 1.000 0.0550 Uiso
H14_4 H 0.73513(33) 0.1708(11) 1.000 0.0550 Uiso
C1_3 C 0.84620(32) 0.7995(8) 0.000 0.0394 Uiso
C2_3 C 0.88486(32) 0.8154(8) 0.000 0.0394 Uiso
C3_3 C 0.83339(30) 0.6696(9) 0.000 0.0394 Uiso
C4_2 C 0.90174(32) 0.8236(8) 0.1703(8) 0.0394 Uiso
C5_2 C 0.93807(33) 0.8495(9) 0.1733(8) 0.0394 Uiso
H1_2 H 0.88646(32) 0.8174(8) 0.2955(23) 0.0550 Uiso
C6_3 C 0.95474(33) 0.8598(10) 0.000 0.0394 Uiso
C7_3 C 0.68249(30) 0.6168(16) 0.000 0.0394 Uiso
C8_3 C 0.66993(30) 0.4812(17) 0.000 0.0394 Uiso
C9_3 C 0.69925(31) 0.4029(15) 0.000 0.0394 Uiso
C10_3 C 0.72960(30) 0.4884(13) 0.000 0.0394 Uiso
C11_3 C 0.76373(31) 0.4368(11) 0.000 0.0394 Uiso
C12_3 C 0.83120(31) 0.4458(9) 0.000 0.0394 Uiso
C13_3 C 0.85431(30) 0.5499(8) 0.000 0.0394 Uiso
C14_3 C 0.79593(30) 0.5025(10) 0.000 0.0394 Uiso
N1_3 N 0.71865(30) 0.6187(14) 0.000 0.0394 Uiso
N2_3 N 0.79846(30) 0.6386(10) 0.000 0.0394 Uiso
H2_3 H 0.64225(31) 0.4539(19) 0.000 0.0550 Uiso
H3_3 H 0.83881(32) 0.3416(8) 0.000 0.0550 Uiso
H4_3 H 0.88292(30) 0.5467(8) 0.000 0.0550 Uiso
H5_3 H 0.70090(33) 0.2960(15) 0.000 0.0550 Uiso
H6_3 H 0.76487(33) 0.3292(11) 0.000 0.0550 Uiso
H7_3 H 0.77442(31) 0.7041(11) 0.000 0.0550 Uiso
C17_3 C 0.65380(32) 0.7005(8) 0.000 0.0394 Uiso
C18_3 C 0.61514(32) 0.6846(8) 0.000 0.0394 Uiso
C19_3 C 0.66661(30) 0.8304(9) 0.000 0.0394 Uiso
O4_2 O 0.54180(33) 0.6245(10) 0.3135(8) 0.0243 Uiso
C20_2 C 0.59826(32) 0.6764(8) 0.1703(8) 0.0394 Uiso
C21_2 C 0.56193(33) 0.6505(9) 0.1733(8) 0.0394 Uiso
H9_2 H 0.61354(32) 0.6826(8) 0.2955(23) 0.0550 Uiso
O5_3 O 0.51177(34) 0.6055(12) 0.000 0.0243 Uiso
C22_3 C 0.54526(33) 0.6402(10) 0.000 0.0394 Uiso
C23_3 C 0.81751(30) 0.8832(16) 0.000 0.0394 Uiso
C29_3 C 0.64569(30) 0.9501(8) 0.000 0.0394 Uiso
C30_3 C 0.70407(30) 0.9975(10) 0.000 0.0394 Uiso
N3_3 N 0.78135(30) 0.8813(14) 0.000 0.0394 Uiso
N4_3 N 0.70154(30) 0.8614(10) 0.000 0.0394 Uiso
H12_3 H 0.61708(30) 0.9533(8) 0.000 0.0550 Uiso
H15_3 H 0.72558(31) 0.7959(11) 0.000 0.0550 Uiso
C1_4 C 0.84620(32) 0.7995(8) 1.000 0.0394 Uiso
C2_4 C 0.88486(32) 0.8154(8) 1.000 0.0394 Uiso
C3_4 C 0.83339(30) 0.6696(9) 1.000 0.0394 Uiso
C6_4 C 0.95474(33) 0.8598(10) 1.000 0.0394 Uiso
C7_4 C 0.68249(30) 0.6168(16) 1.000 0.0394 Uiso
C8_4 C 0.66993(30) 0.4812(17) 1.000 0.0394 Uiso
C9_4 C 0.69925(31) 0.4029(15) 1.000 0.0394 Uiso
C10_4 C 0.72960(30) 0.4884(13) 1.000 0.0394 Uiso
C11_4 C 0.76373(31) 0.4368(11) 1.000 0.0394 Uiso
C12_4 C 0.83120(31) 0.4458(9) 1.000 0.0394 Uiso
C13_4 C 0.85431(30) 0.5499(8) 1.000 0.0394 Uiso
C14_4 C 0.79593(30) 0.5025(10) 1.000 0.0394 Uiso
N1_4 N 0.71865(30) 0.6187(14) 1.000 0.0394 Uiso
N2_4 N 0.79846(30) 0.6386(10) 1.000 0.0394 Uiso
H2_4 H 0.64225(31) 0.4539(19) 1.000 0.0550 Uiso
H3_4 H 0.83881(32) 0.3416(8) 1.000 0.0550 Uiso
H4_4 H 0.88292(30) 0.5467(8) 1.000 0.0550 Uiso
H5_4 H 0.70090(33) 0.2960(15) 1.000 0.0550 Uiso
H6_4 H 0.76487(33) 0.3292(11) 1.000 0.0550 Uiso
H7_4 H 0.77442(31) 0.7041(11) 1.000 0.0550 Uiso
O3_2 O 0.95820(33) 0.8755(10) 0.6865(8) 0.0243 Uiso
C15_2 C 0.90174(32) 0.8236(8) 0.8297(8) 0.0394 Uiso
C16_2 C 0.93807(33) 0.8495(9) 0.8267(8) 0.0394 Uiso
H8_2 H 0.88646(32) 0.8174(8) 0.7045(23) 0.0550 Uiso
C17_4 C 0.65380(32) 0.7005(8) 1.000 0.0394 Uiso
C18_4 C 0.61514(32) 0.6846(8) 1.000 0.0394 Uiso
C19_4 C 0.66661(30) 0.8304(9) 1.000 0.0394 Uiso
O5_4 O 0.51177(34) 0.6055(12) 1.000 0.0243 Uiso
C22_4 C 0.54526(33) 0.6402(10) 1.000 0.0394 Uiso
C23_4 C 0.81751(30) 0.8832(16) 1.000 0.0394 Uiso
C29_4 C 0.64569(30) 0.9501(8) 1.000 0.0394 Uiso
C30_4 C 0.70407(30) 0.9975(10) 1.000 0.0394 Uiso
N3_4 N 0.78135(30) 0.8813(14) 1.000 0.0394 Uiso
N4_4 N 0.70154(30) 0.8614(10) 1.000 0.0394 Uiso
H12_4 H 0.61708(30) 0.9533(8) 1.000 0.0550 Uiso
H15_4 H 0.72558(31) 0.7959(11) 1.000 0.0550 Uiso
O6_2 O 0.54180(33) 0.6245(10) 0.6865(8) 0.0243 Uiso
C31_2 C 0.59826(32) 0.6764(8) 0.8297(8) 0.0394 Uiso
C32_2 C 0.56193(33) 0.6505(9) 0.8267(8) 0.0394 Uiso
H16_2 H 0.61354(32) 0.6826(8) 0.7045(23) 0.0550 Uiso
C24_5 C 0.16993(30) 0.0188(17) 0.500 0.0394 Uiso
C25_5 C 0.19925(31) 0.0971(15) 0.500 0.0394 Uiso
C26_5 C 0.22960(30) 0.0116(13) 0.500 0.0394 Uiso
C27_5 C 0.26373(31) 0.0632(11) 0.500 0.0394 Uiso
C28_5 C 0.33120(31) 0.0542(9) 0.500 0.0394 Uiso
H10_5 H 0.14225(31) 0.0461(19) 0.500 0.0550 Uiso
H11_5 H 0.33881(32) 0.1584(8) 0.500 0.0550 Uiso
H13_5 H 0.20090(33) 0.2040(15) 0.500 0.0550 Uiso
H14_5 H 0.26487(33) 0.1708(11) 0.500 0.0550 Uiso
C1_5 C 0.15380(32) 0.7995(8) 0.500 0.0394 Uiso
C2_5 C 0.11514(32) 0.8154(8) 0.500 0.0394 Uiso
C3_5 C 0.16661(30) 0.6696(9) 0.500 0.0394 Uiso
C4_3 C 0.09826(32) 0.8236(8) 0.3297(8) 0.0394 Uiso
C5_3 C 0.06193(33) 0.8495(9) 0.3267(8) 0.0394 Uiso
H1_3 H 0.11354(32) 0.8174(8) 0.2045(23) 0.0550 Uiso
C6_5 C 0.04526(33) 0.8598(10) 0.500 0.0394 Uiso
C7_5 C 0.31751(30) 0.6168(16) 0.500 0.0394 Uiso
C8_5 C 0.33007(30) 0.4812(17) 0.500 0.0394 Uiso
C9_5 C 0.30075(31) 0.4029(15) 0.500 0.0394 Uiso
C10_5 C 0.27040(30) 0.4884(13) 0.500 0.0394 Uiso
C11_5 C 0.23627(31) 0.4368(11) 0.500 0.0394 Uiso
C12_5 C 0.16880(31) 0.4458(9) 0.500 0.0394 Uiso
C13_5 C 0.14569(30) 0.5499(8) 0.500 0.0394 Uiso
C14_5 C 0.20407(30) 0.5025(10) 0.500 0.0394 Uiso
N1_5 N 0.28135(30) 0.6187(14) 0.500 0.0394 Uiso
N2_5 N 0.20154(30) 0.6386(10) 0.500 0.0394 Uiso
H2_5 H 0.35775(31) 0.4539(19) 0.500 0.0550 Uiso
H3_5 H 0.16119(32) 0.3416(8) 0.500 0.0550 Uiso
H4_5 H 0.11708(30) 0.5467(8) 0.500 0.0550 Uiso
H5_5 H 0.29910(33) 0.2960(15) 0.500 0.0550 Uiso
H6_5 H 0.23513(33) 0.3292(11) 0.500 0.0550 Uiso
H7_5 H 0.22558(31) 0.7041(11) 0.500 0.0550 Uiso
O3_3 O 0.04180(33) 0.8755(10) 0.8135(8) 0.0243 Uiso
C15_3 C 0.09826(32) 0.8236(8) 0.6703(8) 0.0394 Uiso
C16_3 C 0.06193(33) 0.8495(9) 0.6733(8) 0.0394 Uiso
H8_3 H 0.11354(32) 0.8174(8) 0.7955(23) 0.0550 Uiso
C17_5 C 0.34620(32) 0.7005(8) 0.500 0.0394 Uiso
C18_5 C 0.38486(32) 0.6846(8) 0.500 0.0394 Uiso
C19_5 C 0.33339(30) 0.8304(9) 0.500 0.0394 Uiso
O4_3 O 0.45820(33) 0.6245(10) 0.1865(8) 0.0243 Uiso
C20_3 C 0.40174(32) 0.6764(8) 0.3297(8) 0.0394 Uiso
C21_3 C 0.43807(33) 0.6505(9) 0.3267(8) 0.0394 Uiso
H9_3 H 0.38646(32) 0.6826(8) 0.2045(23) 0.0550 Uiso
O5_5 O 0.48823(34) 0.6055(12) 0.500 0.0243 Uiso
C22_5 C 0.45474(33) 0.6402(10) 0.500 0.0394 Uiso
C23_5 C 0.18249(30) 0.8832(16) 0.500 0.0394 Uiso
C29_5 C 0.35431(30) 0.9501(8) 0.500 0.0394 Uiso
C30_5 C 0.29593(30) 0.9975(10) 0.500 0.0394 Uiso
N3_5 N 0.21865(30) 0.8813(14) 0.500 0.0394 Uiso
N4_5 N 0.29846(30) 0.8614(10) 0.500 0.0394 Uiso
H12_5 H 0.38292(30) 0.9533(8) 0.500 0.0550 Uiso
H15_5 H 0.27442(31) 0.7959(11) 0.500 0.0550 Uiso
O6_3 O 0.45820(33) 0.6245(10) 0.8135(8) 0.0243 Uiso
C31_3 C 0.40174(32) 0.6764(8) 0.6703(8) 0.0394 Uiso
C32_3 C 0.43807(33) 0.6505(9) 0.6733(8) 0.0394 Uiso
H16_3 H 0.38646(32) 0.6826(8) 0.7955(23) 0.0550 Uiso
C1_6 C 0.84620(32) 0.2005(8) 0.500 0.0394 Uiso
C2_6 C 0.88486(32) 0.1846(8) 0.500 0.0394 Uiso
C3_6 C 0.83339(30) 0.3304(9) 0.500 0.0394 Uiso
C4_4 C 0.90174(32) 0.1764(8) 0.3297(8) 0.0394 Uiso
C5_4 C 0.93807(33) 0.1505(9) 0.3267(8) 0.0394 Uiso
H1_4 H 0.88646(32) 0.1826(8) 0.2045(23) 0.0550 Uiso
C6_6 C 0.95474(33) 0.1402(10) 0.500 0.0394 Uiso
C7_6 C 0.68249(30) 0.3832(16) 0.500 0.0394 Uiso
C8_6 C 0.66993(30) 0.5188(17) 0.500 0.0394 Uiso
C9_6 C 0.69925(31) 0.5971(15) 0.500 0.0394 Uiso
C10_6 C 0.72960(30) 0.5116(13) 0.500 0.0394 Uiso
C11_6 C 0.76373(31) 0.5632(11) 0.500 0.0394 Uiso
C12_6 C 0.83120(31) 0.5542(9) 0.500 0.0394 Uiso
C13_6 C 0.85431(30) 0.4501(8) 0.500 0.0394 Uiso
C14_6 C 0.79593(30) 0.4975(10) 0.500 0.0394 Uiso
N1_6 N 0.71865(30) 0.3813(14) 0.500 0.0394 Uiso
N2_6 N 0.79846(30) 0.3614(10) 0.500 0.0394 Uiso
H2_6 H 0.64225(31) 0.5461(19) 0.500 0.0550 Uiso
H3_6 H 0.83881(32) 0.6584(8) 0.500 0.0550 Uiso
H4_6 H 0.88292(30) 0.4533(8) 0.500 0.0550 Uiso
H5_6 H 0.70090(33) 0.7040(15) 0.500 0.0550 Uiso
H6_6 H 0.76487(33) 0.6708(11) 0.500 0.0550 Uiso
H7_6 H 0.77442(31) 0.2959(11) 0.500 0.0550 Uiso
O3_4 O 0.95820(33) 0.1245(10) 0.8135(8) 0.0243 Uiso
C15_4 C 0.90174(32) 0.1764(8) 0.6703(8) 0.0394 Uiso
C16_4 C 0.93807(33) 0.1505(9) 0.6733(8) 0.0394 Uiso
H8_4 H 0.88646(32) 0.1826(8) 0.7955(23) 0.0550 Uiso
C17_6 C 0.65380(32) 0.2995(8) 0.500 0.0394 Uiso
C18_6 C 0.61514(32) 0.3154(8) 0.500 0.0394 Uiso
C19_6 C 0.66661(30) 0.1696(9) 0.500 0.0394 Uiso
O4_4 O 0.54180(33) 0.3755(10) 0.1865(8) 0.0243 Uiso
C20_4 C 0.59826(32) 0.3236(8) 0.3297(8) 0.0394 Uiso
C21_4 C 0.56193(33) 0.3495(9) 0.3267(8) 0.0394 Uiso
H9_4 H 0.61354(32) 0.3174(8) 0.2045(23) 0.0550 Uiso
O5_6 O 0.51177(34) 0.3945(12) 0.500 0.0243 Uiso
C22_6 C 0.54526(33) 0.3598(10) 0.500 0.0394 Uiso
C23_6 C 0.81751(30) 0.1168(16) 0.500 0.0394 Uiso
C29_6 C 0.64569(30) 0.0499(8) 0.500 0.0394 Uiso
C30_6 C 0.70407(30) 0.0025(10) 0.500 0.0394 Uiso
N3_6 N 0.78135(30) 0.1187(14) 0.500 0.0394 Uiso
N4_6 N 0.70154(30) 0.1386(10) 0.500 0.0394 Uiso
H12_6 H 0.61708(30) 0.0467(8) 0.500 0.0550 Uiso
H15_6 H 0.72558(31) 0.2041(11) 0.500 0.0550 Uiso
O6_4 O 0.54180(33) 0.3755(10) 0.8135(8) 0.0243 Uiso
C31_4 C 0.59826(32) 0.3236(8) 0.6703(8) 0.0394 Uiso
C32_4 C 0.56193(33) 0.3495(9) 0.6733(8) 0.0394 Uiso
H16_4 H 0.61354(32) 0.3174(8) 0.7955(23) 0.0550 Uiso
C24_6 C 0.83007(30) 0.9812(17) 0.500 0.0394 Uiso
C25_6 C 0.80075(31) 0.9029(15) 0.500 0.0394 Uiso
C26_6 C 0.77040(30) 0.9884(13) 0.500 0.0394 Uiso
C27_6 C 0.73627(31) 0.9368(11) 0.500 0.0394 Uiso
C28_6 C 0.66880(31) 0.9458(9) 0.500 0.0394 Uiso
H10_6 H 0.85775(31) 0.9539(19) 0.500 0.0550 Uiso
H11_6 H 0.66119(32) 0.8416(8) 0.500 0.0550 Uiso
H13_6 H 0.79910(33) 0.7960(15) 0.500 0.0550 Uiso
H14_6 H 0.73513(33) 0.8292(11) 0.500 0.0550 Uiso
loop_
_geom_bond_atom_site_label_1
_geom_bond_atom_site_label_2
_geom_bond_site_symmetry_1
_geom_bond_site_symmetry_2
C1 C2 1_555 1_555
C2 C4 1_555 1_555
C3 C1 1_555 1_555
O1 C5 1_555 1_555
C4 C5 1_555 1_555
C5 C6 1_555 1_555
H1 C4 1_555 1_555
O2 C6 1_555 1_555
C7 C8 1_555 1_555
C8 C9 1_555 1_555
C9 C10 1_555 1_555
C10 C11 1_555 1_555
C11 C14 1_555 1_555
C12 C13 1_555 1_555
C13 C3 1_555 1_555
C14 C12 1_555 1_555
N1 C7 1_555 1_555
N2 C3 1_555 1_555
H2 C8 1_555 1_555
H3 C12 1_555 1_555
H4 C13 1_555 1_555
H5 C9 1_555 1_555
H6 C11 1_555 1_555
H7 N2 1_555 1_555
Zr1 O1 1_555 1_555
C17 C7 1_555 1_555
C18 C17 1_555 1_555
C19 C17 1_555 1_555
O4 C21 1_555 1_555
C20 C18 1_555 1_555
C21 C20 1_555 1_555
H9 C20 1_555 1_555
O5 C22 1_555 1_555
C22 C21 1_555 1_555
C23 C1 1_555 1_555
C29 C19 1_555 1_555
N3 C23 1_555 1_555
N4 C19 1_555 1_555
H12 C29 1_555 1_555
H15 N4 1_555 1_555
Zr3 O4 1_555 1_555
O2 Zr1 1_555 1_555
C10 N1 1_555 1_555
C14 N2 1_555 1_555
O5 Zr3 1_555 1_555
C30 N4 1_555 1_555
C1_2 C2_2 1_555 1_555
C3_2 C1_2 1_555 1_555
O2_2 C6_2 1_555 1_555
C6_2 C16 1_555 1_555
C7_2 C8_2 1_555 1_555
C8_2 C9_2 1_555 1_555
C9_2 C10_2 1_555 1_555
C10_2 C11_2 1_555 1_555
C11_2 C14_2 1_555 1_555
C12_2 C13_2 1_555 1_555
C13_2 C3_2 1_555 1_555
C14_2 C12_2 1_555 1_555
N1_2 C7_2 1_555 1_555
N2_2 C3_2 1_555 1_555
H2_2 C8_2 1_555 1_555
H3_2 C12_2 1_555 1_555
H4_2 C13_2 1_555 1_555
H5_2 C9_2 1_555 1_555
H6_2 C11_2 1_555 1_555
H7_2 N2_2 1_555 1_555
O3 C16 1_555 1_555
C15 C2_2 1_555 1_555
C16 C15 1_555 1_555
H8 C15 1_555 1_555
C17_2 C7_2 1_555 1_555
C18_2 C17_2 1_555 1_555
C19_2 C17_2 1_555 1_555
O5_2 C22_2 1_555 1_555
C23_2 C1_2 1_555 1_555
C29_2 C19_2 1_555 1_555
N3_2 C23_2 1_555 1_555
N4_2 C19_2 1_555 1_555
H12_2 C29_2 1_555 1_555
H15_2 N4_2 1_555 1_555
O6 C32 1_555 1_555
C31 C18_2 1_555 1_555
C32 C22_2 1_555 1_555
H16 C31 1_555 1_555
Zr2 O2_2 1_555 1_555
Zr4 O5_2 1_555 1_555
C10_2 N1_2 1_555 1_555
C14_2 N2_2 1_555 1_555
O3 Zr2 1_555 1_555
C30_2 N4_2 1_555 1_555
O6 Zr4 1_555 1_555
C31 C32 1_555 1_555
C25 C24 1_555 1_555
C26 C25 1_555 1_555
C27 C26 1_555 1_555
H10 C24 1_555 1_555
H11 C28 1_555 1_555
H13 C25 1_555 1_555
H14 C27 1_555 1_555
O8 Zr1_2 1_555 1_555
O11 Zr1_2 1_555 1_555
C25_2 C24_2 1_555 1_555
C26_2 C25_2 1_555 1_555
C27_2 C26_2 1_555 1_555
H10_2 C24_2 1_555 1_555
H11_2 C28_2 1_555 1_555
H13_2 C25_2 1_555 1_555
H14_2 C27_2 1_555 1_555
O9 Zr1_3 1_555 1_555
O10 Zr1_3 1_555 1_555
O7 Zr1_4 1_555 1_555
O12 Zr1_4 1_555 1_555
O12_2 Zr2_4 1_555 1_555
C25_3 C24_3 1_555 1_555
C26_3 C25_3 1_555 1_555
C27_3 C26_3 1_555 1_555
H10_3 C24_3 1_555 1_555
H11_3 C28_3 1_555 1_555
H13_3 C25_3 1_555 1_555
H14_3 C27_3 1_555 1_555
C25_4 C24_4 1_555 1_555
C26_4 C25_4 1_555 1_555
C27_4 C26_4 1_555 1_555
H10_4 C24_4 1_555 1_555
H11_4 C28_4 1_555 1_555
H13_4 C25_4 1_555 1_555
H14_4 C27_4 1_555 1_555
C1_3 C2_3 1_555 1_555
C2_3 C4_2 1_555 1_555
C3_3 C1_3 1_555 1_555
O7 C5_2 1_555 1_555
C4_2 C5_2 1_555 1_555
C5_2 C6_3 1_555 1_555
H1_2 C4_2 1_555 1_555
O12 C6_3 1_555 1_555
C7_3 C8_3 1_555 1_555
C8_3 C9_3 1_555 1_555
C9_3 C10_3 1_555 1_555
C10_3 C11_3 1_555 1_555
C11_3 C14_3 1_555 1_555
C12_3 C13_3 1_555 1_555
C13_3 C3_3 1_555 1_555
C14_3 C12_3 1_555 1_555
N1_3 C7_3 1_555 1_555
N2_3 C3_3 1_555 1_555
H2_3 C8_3 1_555 1_555
H3_3 C12_3 1_555 1_555
H4_3 C13_3 1_555 1_555
H5_3 C9_3 1_555 1_555
H6_3 C11_3 1_555 1_555
H7_3 N2_3 1_555 1_555
C17_3 C7_3 1_555 1_555
C18_3 C17_3 1_555 1_555
C19_3 C17_3 1_555 1_555
O4_2 C21_2 1_555 1_555
C20_2 C18_3 1_555 1_555
C21_2 C20_2 1_555 1_555
H9_2 C20_2 1_555 1_555
O5_3 C22_3 1_555 1_555
C22_3 C21_2 1_555 1_555
C23_3 C1_3 1_555 1_555
C29_3 C19_3 1_555 1_555
N3_3 C23_3 1_555 1_555
N4_3 C19_3 1_555 1_555
H12_3 C29_3 1_555 1_555
H15_3 N4_3 1_555 1_555
Zr3 O4_2 1_555 1_555
C10_3 N1_3 1_555 1_555
C14_3 N2_3 1_555 1_555
O5_3 Zr3 1_555 1_555
C30_3 N4_3 1_555 1_555
C1_4 C2_4 1_555 1_555
C3_4 C1_4 1_555 1_555
O12_2 C6_4 1_555 1_555
C6_4 C16_2 1_555 1_555
C7_4 C8_4 1_555 1_555
C8_4 C9_4 1_555 1_555
C9_4 C10_4 1_555 1_555
C10_4 C11_4 1_555 1_555
C11_4 C14_4 1_555 1_555
C12_4 C13_4 1_555 1_555
C13_4 C3_4 1_555 1_555
C14_4 C12_4 1_555 1_555
N1_4 C7_4 1_555 1_555
N2_4 C3_4 1_555 1_555
H2_4 C8_4 1_555 1_555
H3_4 C12_4 1_555 1_555
H4_4 C13_4 1_555 1_555
H5_4 C9_4 1_555 1_555
H6_4 C11_4 1_555 1_555
H7_4 N2_4 1_555 1_555
O3_2 C16_2 1_555 1_555
C15_2 C2_4 1_555 1_555
C16_2 C15_2 1_555 1_555
H8_2 C15_2 1_555 1_555
C17_4 C7_4 1_555 1_555
C18_4 C17_4 1_555 1_555
C19_4 C17_4 1_555 1_555
O5_4 C22_4 1_555 1_555
C23_4 C1_4 1_555 1_555
C29_4 C19_4 1_555 1_555
N3_4 C23_4 1_555 1_555
N4_4 C19_4 1_555 1_555
H12_4 C29_4 1_555 1_555
H15_4 N4_4 1_555 1_555
O6_2 C32_2 1_555 1_555
C31_2 C18_4 1_555 1_555
C32_2 C22_4 1_555 1_555
H16_2 C31_2 1_555 1_555
Zr4 O5_4 1_555 1_555
C10_4 N1_4 1_555 1_555
C14_4 N2_4 1_555 1_555
O3_2 Zr2_4 1_555 1_555
C30_4 N4_4 1_555 1_555
O6_2 Zr4 1_555 1_555
C31_2 C32_2 1_555 1_555
C25_5 C24_5 1_555 1_555
C26_5 C25_5 1_555 1_555
C27_5 C26_5 1_555 1_555
H10_5 C24_5 1_555 1_555
H11_5 C28_5 1_555 1_555
H13_5 C25_5 1_555 1_555
H14_5 C27_5 1_555 1_555
C1_5 C2_5 1_555 1_555
C2_5 C4_3 1_555 1_555
C3_5 C1_5 1_555 1_555
O8 C5_3 1_555 1_555
C4_3 C5_3 1_555 1_555
C5_3 C6_5 1_555 1_555
H1_3 C4_3 1_555 1_555
O11 C6_5 1_555 1_555
C6_5 C16_3 1_555 1_555
C7_5 C8_5 1_555 1_555
C8_5 C9_5 1_555 1_555
C9_5 C10_5 1_555 1_555
C10_5 C11_5 1_555 1_555
C11_5 C14_5 1_555 1_555
C12_5 C13_5 1_555 1_555
C13_5 C3_5 1_555 1_555
C14_5 C12_5 1_555 1_555
N1_5 C7_5 1_555 1_555
N2_5 C3_5 1_555 1_555
H2_5 C8_5 1_555 1_555
H3_5 C12_5 1_555 1_555
H4_5 C13_5 1_555 1_555
H5_5 C9_5 1_555 1_555
H6_5 C11_5 1_555 1_555
H7_5 N2_5 1_555 1_555
O3_3 C16_3 1_555 1_555
C15_3 C2_5 1_555 1_555
C16_3 C15_3 1_555 1_555
H8_3 C15_3 1_555 1_555
C17_5 C7_5 1_555 1_555
C18_5 C17_5 1_555 1_555
C19_5 C17_5 1_555 1_555
O4_3 C21_3 1_555 1_555
C20_3 C18_5 1_555 1_555
C21_3 C20_3 1_555 1_555
H9_3 C20_3 1_555 1_555
O5_5 C22_5 1_555 1_555
C22_5 C21_3 1_555 1_555
C23_5 C1_5 1_555 1_555
C29_5 C19_5 1_555 1_555
N3_5 C23_5 1_555 1_555
N4_5 C19_5 1_555 1_555
H12_5 C29_5 1_555 1_555
H15_5 N4_5 1_555 1_555
O6_3 C32_3 1_555 1_555
C31_3 C18_5 1_555 1_555
C32_3 C22_5 1_555 1_555
H16_3 C31_3 1_555 1_555
Zr2_2 O11 1_555 1_555
Zr3 O4_3 1_555 1_555
Zr4 O5_5 1_555 1_555
C10_5 N1_5 1_555 1_555
C14_5 N2_5 1_555 1_555
O3_3 Zr2_2 1_555 1_555
O5_5 Zr3 1_555 1_555
C30_5 N4_5 1_555 1_555
O6_3 Zr4 1_555 1_555
C31_3 C32_3 1_555 1_555
O10 Zr2_3 1_555 1_555
C1_6 C2_6 1_555 1_555
C2_6 C4_4 1_555 1_555
C3_6 C1_6 1_555 1_555
O9 C5_4 1_555 1_555
C4_4 C5_4 1_555 1_555
C5_4 C6_6 1_555 1_555
H1_4 C4_4 1_555 1_555
O10 C6_6 1_555 1_555
C6_6 C16_4 1_555 1_555
C7_6 C8_6 1_555 1_555
C8_6 C9_6 1_555 1_555
C9_6 C10_6 1_555 1_555
C10_6 C11_6 1_555 1_555
C11_6 C14_6 1_555 1_555
C12_6 C13_6 1_555 1_555
C13_6 C3_6 1_555 1_555
C14_6 C12_6 1_555 1_555
N1_6 C7_6 1_555 1_555
N2_6 C3_6 1_555 1_555
H2_6 C8_6 1_555 1_555
H3_6 C12_6 1_555 1_555
H4_6 C13_6 1_555 1_555
H5_6 C9_6 1_555 1_555
H6_6 C11_6 1_555 1_555
H7_6 N2_6 1_555 1_555
O3_4 C16_4 1_555 1_555
C15_4 C2_6 1_555 1_555
C16_4 C15_4 1_555 1_555
H8_4 C15_4 1_555 1_555
C17_6 C7_6 1_555 1_555
C18_6 C17_6 1_555 1_555
C19_6 C17_6 1_555 1_555
O4_4 C21_4 1_555 1_555
C20_4 C18_6 1_555 1_555
C21_4 C20_4 1_555 1_555
H9_4 C20_4 1_555 1_555
O5_6 C22_6 1_555 1_555
C22_6 C21_4 1_555 1_555
C23_6 C1_6 1_555 1_555
C29_6 C19_6 1_555 1_555
N3_6 C23_6 1_555 1_555
N4_6 C19_6 1_555 1_555
H12_6 C29_6 1_555 1_555
H15_6 N4_6 1_555 1_555
O6_4 C32_4 1_555 1_555
C31_4 C18_6 1_555 1_555
C32_4 C22_6 1_555 1_555
H16_4 C31_4 1_555 1_555
Zr3 O4_4 1_555 1_555
Zr4 O5_6 1_555 1_555
C10_6 N1_6 1_555 1_555
C14_6 N2_6 1_555 1_555
O3_4 Zr2_3 1_555 1_555
O5_6 Zr3 1_555 1_555
C30_6 N4_6 1_555 1_555
O6_4 Zr4 1_555 1_555
C31_4 C32_4 1_555 1_555
C25_6 C24_6 1_555 1_555
C26_6 C25_6 1_555 1_555
C27_6 C26_6 1_555 1_555
H10_6 C24_6 1_555 1_555
H11_6 C28_6 1_555 1_555
H13_6 C25_6 1_555 1_555
H14_6 C27_6 1_555 1_555

#END
