
###############################################################################
#
# This file contains modified crystal structure data generated from the
# MOF subset of the Cambridge Structural Database (CSD) v543 
# hosted by the Cambridge Crystallographic Data Centre (CCDC).
#
# This work is licensed under the Creative Commons
# Attribution-NonCommercial-ShareAlike 4.0 International License.
# To view a copy of this license, visit
# http://creativecommons.org/licenses/by-nc-sa/4.0/
# or send a letter to
# Creative Commons, PO Box 1866, Mountain View, CA 94042, USA.
#
# CIF created using the CSD Python API on 29 September 2022
# The structure has been converted into the P1 space group
# The structure has a 3D framework
# The original CSD entry YUJNIB is in the monoclinic crystal system
# The framework has been calculated to contain at least 10.0% void space
# The void calculation uses a probe of radius 1.32A, grid spacing 0.4
#
###############################################################################

data_YUJNIB
_chemical_formula_moiety         '(C32 H32 N62 O46 Sr14)n'
_symmetry_cell_setting           triclinic
_symmetry_space_group_name_H-M   'P 1'
_symmetry_Int_Tables_number      1
_space_group_name_Hall           'P 1'
loop_
_symmetry_equiv_pos_site_id
_symmetry_equiv_pos_as_xyz
1 x,y,z
_cell_length_a                   17.5090(6)
_cell_length_b                   9.2732(3)
_cell_length_c                   18.4285(7)
_cell_angle_alpha                90
_cell_angle_beta                 106.031(4)
_cell_angle_gamma                90
_cell_volume                     2875.78
loop_
_atom_site_label
_atom_site_type_symbol
_atom_site_fract_x
_atom_site_fract_y
_atom_site_fract_z
Sr7 Sr 0.37767(3) 0.15876(7) 0.17620(4)
Sr1 Sr 0.13307(3) 0.66290(7) 0.32518(3)
Sr3 Sr 0.41182(3) 0.49522(7) 0.32657(3)
O1 O 0.0473(2) 0.4245(4) 0.2951(3)
O2 O 0.0198(2) 0.2208(4) 0.2251(3)
O3 O 0.4754(2) 0.7066(4) 0.2586(3)
O4 O 0.4581(2) 0.9180(4) 0.1973(3)
O5 O 0.4765(2) 0.3637(4) 0.4634(2)
O6 O 0.4719(2) 0.3488(4) 0.5834(2)
O7 O 0.0551(2) 0.6286(4) 0.4244(2)
O8 O 0.0404(2) 0.6622(5) 0.5403(2)
O9 O 0.11866(5) 0.95211(8) 0.31043(5)
H1 H 0.0861 0.9919 0.3346
H2 H 0.1567 0.9866 0.3207
O10 O 0.09235(5) 0.71178(8) 0.18234(5)
H3 H 0.0505 0.6666 0.1678
H4 H 0.1475 0.6799 0.1654
O11 O 0.38442(5) 0.43884(8) 0.17328(5)
H5 H 0.3428 0.5005 0.1456
H6 H 0.4126 0.4512 0.1555
O13 O 0.39035(5) 0.20473(8) 0.31805(5)
H9 H 0.4313 0.1516 0.3496
H10 H 0.3550 0.1838 0.3328
N1 N 0.19361(5) 0.44207(8) 0.26240(5)
N2 N 0.25822(5) 0.40417(8) 0.24149(5)
N3 N 0.24592(5) 0.27388(8) 0.20849(5)
N4 N 0.17352(5) 0.22613(8) 0.20754(5)
N5 N 0.32459(5) 0.73407(8) 0.27937(5)
N6 N 0.24993(5) 0.78191(8) 0.27338(5)
N7 N 0.23705(5) 0.89665(8) 0.22955(5)
N8 N 0.30173(5) 0.92865(8) 0.20797(5)
N9 N 0.32104(5) 0.47550(8) 0.42406(5)
N10 N 0.24563(5) 0.49389(8) 0.42653(5)
N11 N 0.23732(5) 0.44502(8) 0.49046(5)
N12 N 0.30777(5) 0.39490(8) 0.53252(5)
N13 N 0.19313(5) 0.79310(8) 0.46377(5)
N14 N 0.25647(5) 0.87057(8) 0.50341(5)
N15 N 0.25197(5) 0.88554(8) 0.57304(5)
N16 N 0.18663(5) 0.81770(8) 0.57968(5)
C1 C 0.14421(5) 0.33015(8) 0.24112(5)
C2 C 0.06378(5) 0.32513(8) 0.25586(5)
C3 C 0.35431(5) 0.82549(8) 0.23984(5)
C4 C 0.43496(5) 0.81436(8) 0.23092(5)
C5 C 0.35686(5) 0.41656(8) 0.49038(5)
C6 C 0.44184(5) 0.37339(8) 0.51367(5)
C7 C 0.15353(5) 0.76308(8) 0.51282(5)
C8 C 0.07575(5) 0.67643(8) 0.49042(5)
Sr6 Sr 0.62233(3) 0.65876(7) 0.32380(4)
Sr8 Sr 0.37767(3) 0.34124(7) 0.67620(4)
Sr9 Sr 0.58818(3) 0.99522(7) 0.17343(3)
Sr10 Sr 0.58818(3) 0.50478(7) 0.67343(3)
Sr12 Sr 0.07572(3) 0.50248(7) 0.66326(3)
Sr13 Sr 0.07572(3) 0.99752(7) 0.16326(3)
O15 O 0.5246(2) 0.2066(4) 0.2414(3)
O17 O 0.5419(2) 0.4180(4) 0.3027(3)
O18 O 0.4719(2) 0.1512(4) 0.0834(2)
O19 O 0.5281(2) 0.6512(4) 0.4166(2)
N20 N 0.30777(5) 0.10510(8) 0.03252(5)
Sr4 Sr 0.92428(3) 0.49752(7) 0.33674(3)
O12 O 0.88824(5) 0.62062(8) 0.45094(5)
H7 H 0.9287 0.6163 0.4787
H8 H 0.8491 0.6079 0.4729
Sr5 Sr 0.86693(3) 0.16290(7) 0.17482(3)
O14 O 0.9802(2) 0.7208(4) 0.2749(3)
O20 O 0.9596(2) 0.3378(5) 0.4597(2)
O21 O 0.88134(5) 0.45211(8) 0.18957(5)
H11 H 0.9139 0.4919 0.1654
H12 H 0.8433 0.4866 0.1793
O22 O 0.90765(5) 0.21178(8) 0.31766(5)
H13 H 0.9495 0.1666 0.3322
H14 H 0.8525 0.1799 0.3346
N17 N 0.82648(5) 0.72613(8) 0.29246(5)
N18 N 0.76295(5) 0.39665(8) 0.27045(5)
O12_2 O 0.11176(5) 0.12062(8) 0.04906(5)
H7_2 H 0.0713 0.1163 0.0213
H8_2 H 0.1509 0.1079 0.0271
O20_2 O 0.0404(2) 0.8378(5) 0.0403(2)
O7_2 O 0.9449(2) 0.1286(4) 0.0756(2)
H5_2 H 0.6572 0.0005 0.3544
N5_2 N 0.67541(5) 0.23407(8) 0.22063(5)
N6_2 N 0.75007(5) 0.28191(8) 0.22662(5)
N8_2 N 0.69827(5) 0.42865(8) 0.29203(5)
N13_2 N 0.80687(5) 0.29310(8) 0.03623(5)
C3_2 C 0.64569(5) 0.32549(8) 0.26016(5)
C4_2 C 0.56504(5) 0.31436(8) 0.26908(5)
C8_2 C 0.92425(5) 0.17643(8) 0.00958(5)
O8_2 O 0.9596(2) 0.1622(5) 0.9597(2)
N14_2 N 0.74353(5) 0.37057(8) 0.99659(5)
N15_2 N 0.74803(5) 0.38554(8) 0.92696(5)
N16_2 N 0.81337(5) 0.31770(8) 0.92032(5)
C7_2 C 0.84647(5) 0.26308(8) 0.98718(5)
Sr10_2 Sr 0.41182(3) 0.00478(7) 0.82657(3)
Sr12_2 Sr 0.92428(3) 0.00248(7) 0.83674(3)
O1_2 O 0.9527(2) 0.9245(4) 0.2049(3)
O5_2 O 0.5235(2) 0.8637(4) 0.0366(2)
O11_2 O 0.61558(5) 0.93884(8) 0.32672(5)
H6_2 H 0.5874 0.9512 0.3445
O13_2 O 0.60965(5) 0.70473(8) 0.18195(5)
H9_2 H 0.5687 0.6516 0.1504
H10_2 H 0.6450 0.6838 0.1672
N1_2 N 0.80639(5) 0.94207(8) 0.23760(5)
N2_2 N 0.74178(5) 0.90417(8) 0.25851(5)
N3_2 N 0.75408(5) 0.77388(8) 0.29151(5)
N9_2 N 0.67896(5) 0.97550(8) 0.07594(5)
N10_2 N 0.75437(5) 0.99389(8) 0.07347(5)
N11_2 N 0.76268(5) 0.94502(8) 0.00954(5)
C1_2 C 0.85579(5) 0.83015(8) 0.25888(5)
C2_2 C 0.93622(5) 0.82513(8) 0.24414(5)
C5_2 C 0.64314(5) 0.91656(8) 0.00962(5)
N20_2 N 0.69223(5) 0.60510(8) 0.46748(5)
O6_2 O 0.5281(2) 0.8488(4) 0.9166(2)
N12_2 N 0.69223(5) 0.89490(8) 0.96748(5)
C6_2 C 0.55816(5) 0.87339(8) 0.98633(5)
Sr8_2 Sr 0.62233(3) 0.84124(7) 0.82380(4)
O12_3 O 0.11176(5) 0.37938(8) 0.54906(5)
H7_3 H 0.0713 0.3837 0.5213
H8_3 H 0.1509 0.3921 0.5271
Sr5_2 Sr 0.13307(3) 0.83710(7) 0.82518(3)
O14_2 O 0.0198(2) 0.2792(4) 0.7251(3)
O21_2 O 0.11866(5) 0.54789(8) 0.81043(5)
H11_2 H 0.0861 0.5081 0.8346
H12_2 H 0.1567 0.5134 0.8207
O22_2 O 0.09235(5) 0.78822(8) 0.68234(5)
H13_2 H 0.0505 0.8334 0.6678
H14_2 H 0.1475 0.8201 0.6654
N17_2 N 0.17352(5) 0.27387(8) 0.70754(5)
N18_2 N 0.23705(5) 0.60335(8) 0.72955(5)
O16 O 0.5419(2) 0.0820(4) 0.8027(3)
N19 N 0.69827(5) 0.07135(8) 0.79203(5)
Sr1_2 Sr 0.86693(3) 0.33710(7) 0.67482(3)
O1_3 O 0.9527(2) 0.5755(4) 0.7049(3)
O2_2 O 0.9802(2) 0.7792(4) 0.7749(3)
O3_2 O 0.5246(2) 0.2934(4) 0.7414(3)
O5_3 O 0.5235(2) 0.6363(4) 0.5366(2)
O7_3 O 0.9449(2) 0.3714(4) 0.5756(2)
O9_2 O 0.88134(5) 0.04789(8) 0.68957(5)
H1_2 H 0.9139 0.0081 0.6654
H2_2 H 0.8433 0.0134 0.6793
O10_2 O 0.90765(5) 0.28822(8) 0.81766(5)
H3_2 H 0.9495 0.3334 0.8322
H4_2 H 0.8525 0.3201 0.8346
O11_3 O 0.61558(5) 0.56116(8) 0.82672(5)
H5_3 H 0.6572 0.4995 0.8544
H6_3 H 0.5874 0.5488 0.8445
O13_3 O 0.60965(5) 0.79527(8) 0.68195(5)
H9_3 H 0.5687 0.8484 0.6504
H10_3 H 0.6450 0.8162 0.6672
N1_3 N 0.80639(5) 0.55793(8) 0.73760(5)
N2_3 N 0.74178(5) 0.59583(8) 0.75851(5)
N3_3 N 0.75408(5) 0.72612(8) 0.79151(5)
N4_2 N 0.82648(5) 0.77387(8) 0.79246(5)
N5_3 N 0.67541(5) 0.26593(8) 0.72063(5)
N6_3 N 0.75007(5) 0.21809(8) 0.72662(5)
N7_2 N 0.76295(5) 0.10335(8) 0.77045(5)
N9_3 N 0.67896(5) 0.52450(8) 0.57594(5)
N10_3 N 0.75437(5) 0.50611(8) 0.57347(5)
N11_3 N 0.76268(5) 0.55498(8) 0.50954(5)
N13_3 N 0.80687(5) 0.20690(8) 0.53623(5)
N14_3 N 0.74353(5) 0.12943(8) 0.49659(5)
N15_3 N 0.74803(5) 0.11446(8) 0.42696(5)
N16_3 N 0.81337(5) 0.18230(8) 0.42032(5)
C1_3 C 0.85579(5) 0.66985(8) 0.75888(5)
C2_3 C 0.93622(5) 0.67487(8) 0.74414(5)
C3_3 C 0.64569(5) 0.17451(8) 0.76016(5)
C4_3 C 0.56504(5) 0.18564(8) 0.76908(5)
C5_3 C 0.64314(5) 0.58344(8) 0.50962(5)
C6_3 C 0.55816(5) 0.62661(8) 0.48633(5)
C7_3 C 0.84647(5) 0.23692(8) 0.48718(5)
C8_3 C 0.92425(5) 0.32357(8) 0.50958(5)
O15_2 O 0.4754(2) 0.7934(4) 0.7586(3)
O17_2 O 0.4581(2) 0.5820(4) 0.6973(3)
C6_4 C 0.44184(5) 0.12661(8) 0.01367(5)
O1_4 O 0.0473(2) 0.0755(4) 0.7951(3)
O5_4 O 0.4765(2) 0.1363(4) 0.9634(2)
O11_4 O 0.38442(5) 0.06116(8) 0.67328(5)
H6_4 H 0.4126 0.0488 0.6555
O13_4 O 0.39035(5) 0.29527(8) 0.81805(5)
H9_4 H 0.4313 0.3484 0.8496
H10_4 H 0.3550 0.3162 0.8328
N1_4 N 0.19361(5) 0.05793(8) 0.76240(5)
N2_4 N 0.25822(5) 0.09583(8) 0.74149(5)
N3_4 N 0.24592(5) 0.22612(8) 0.70849(5)
N9_4 N 0.32104(5) 0.02450(8) 0.92406(5)
N10_4 N 0.24563(5) 0.00611(8) 0.92653(5)
N11_4 N 0.23732(5) 0.05498(8) 0.99046(5)
C1_4 C 0.14421(5) 0.16985(8) 0.74112(5)
C2_4 C 0.06378(5) 0.17487(8) 0.75586(5)
C5_4 C 0.35686(5) 0.08344(8) 0.99038(5)
N19_2 N 0.30173(5) 0.57135(8) 0.70797(5)
N14_4 N 0.25647(5) 0.62943(8) 0.00341(5)
N15_4 N 0.25197(5) 0.61446(8) 0.07304(5)
N16_4 N 0.18663(5) 0.68230(8) 0.07968(5)
C7_4 C 0.15353(5) 0.73692(8) 0.01282(5)
O7_4 O 0.0551(2) 0.8714(4) 0.9244(2)
H5_4 H 0.3428 0.9995 0.6456
N5_4 N 0.32459(5) 0.76593(8) 0.77937(5)
N6_4 N 0.24993(5) 0.71809(8) 0.77338(5)
N13_4 N 0.19313(5) 0.70690(8) 0.96377(5)
C3_4 C 0.35431(5) 0.67451(8) 0.73984(5)
C4_4 C 0.43496(5) 0.68564(8) 0.73092(5)
C8_4 C 0.07575(5) 0.82357(8) 0.99042(5)
O12_4 O 0.88824(5) 0.87938(8) 0.95094(5)
H7_4 H 0.9287 0.8837 0.9787
H8_4 H 0.8491 0.8921 0.9729
loop_
_geom_bond_atom_site_label_1
_geom_bond_atom_site_label_2
_geom_bond_site_symmetry_1
_geom_bond_site_symmetry_2
Sr1 O1 1_555 1_555
Sr7 O11 1_555 1_555
Sr3 O3 1_555 1_555
O1 C2 1_555 1_555
O2 C2 1_555 1_555
O3 C4 1_555 1_555
O4 C4 1_555 1_555
O5 Sr3 1_555 1_555
O6 C6 1_555 1_555
O7 Sr1 1_555 1_555
O8 C8 1_555 1_555
O9 Sr1 1_555 1_555
H1 O9 1_555 1_555
H2 O9 1_555 1_555
O10 Sr1 1_555 1_555
H3 O10 1_555 1_555
H4 O10 1_555 1_555
O11 Sr3 1_555 1_555
H5 O11 1_555 1_555
H6 O11 1_555 1_555
O13 Sr7 1_555 1_555
H9 O13 1_555 1_555
H10 O13 1_555 1_555
N1 Sr1 1_555 1_555
N2 Sr3 1_555 1_555
N3 Sr7 1_555 1_555
N4 N3 1_555 1_555
N5 Sr3 1_555 1_555
N6 Sr1 1_555 1_555
N7 N6 1_555 1_555
N8 N7 1_555 1_555
N9 Sr3 1_555 1_555
N10 Sr1 1_555 1_555
N11 N10 1_555 1_555
N12 N11 1_555 1_555
N13 Sr1 1_555 1_555
N14 N13 1_555 1_555
N15 N14 1_555 1_555
N16 N15 1_555 1_555
C1 N1 1_555 1_555
C2 C1 1_555 1_555
C3 N5 1_555 1_555
C4 C3 1_555 1_555
C5 N9 1_555 1_555
C6 O5 1_555 1_555
C7 N13 1_555 1_555
C8 O7 1_555 1_555
Sr6 O3 1_555 1_555
Sr8 O6 1_555 1_555
Sr9 O4 1_555 1_555
Sr10 O6 1_555 1_555
Sr12 O8 1_555 1_555
Sr13 O9 1_555 1_555
O15 Sr7 1_555 1_555
O17 Sr3 1_555 1_555
O18 Sr7 1_555 1_555
O19 Sr3 1_555 1_555
N20 Sr7 1_555 1_555
Sr3 O13 1_555 1_555
O10 Sr13 1_555 1_555
N1 N2 1_555 1_555
N2 N3 1_555 1_555
N4 C1 1_555 1_555
N5 N6 1_555 1_555
N7 Sr13 1_555 1_555
N8 C3 1_555 1_555
N9 N10 1_555 1_555
N12 C5 1_555 1_555
N12 Sr8 1_555 1_555
N16 C7 1_555 1_555
C5 C6 1_555 1_555
C7 C8 1_555 1_555
Sr6 O17 1_555 1_555
Sr6 O19 1_555 1_555
O12 Sr4 1_555 1_555
H7 O12 1_555 1_555
H8 O12 1_555 1_555
O20 Sr4 1_555 1_555
O21 Sr4 1_555 1_555
H11 O21 1_555 1_555
H12 O21 1_555 1_555
O22 Sr4 1_555 1_555
H13 O22 1_555 1_555
H14 O22 1_555 1_555
N17 Sr4 1_555 1_555
N18 Sr4 1_555 1_555
Sr4 O14 1_555 1_555
Sr5 O21 1_555 1_555
Sr5 O22 1_555 1_555
H7_2 O12_2 1_555 1_555
H8_2 O12_2 1_555 1_555
O20_2 Sr13 1_555 1_555
O15 C4_2 1_555 1_555
O17 C4_2 1_555 1_555
O7_2 Sr5 1_555 1_555
N6_2 Sr5 1_555 1_555
N18 N6_2 1_555 1_555
N8_2 N18 1_555 1_555
N13_2 Sr5 1_555 1_555
C3_2 N5_2 1_555 1_555
C4_2 C3_2 1_555 1_555
C8_2 O7_2 1_555 1_555
N5_2 N6_2 1_555 1_555
N8_2 C3_2 1_555 1_555
N8_2 Sr6 1_555 1_555
N15_2 N14_2 1_555 1_555
N16_2 N15_2 1_555 1_555
Sr12_2 O8_2 1_555 1_555
N16_2 C7_2 1_555 1_555
Sr6 O11_2 1_555 1_555
O1_2 C2_2 1_555 1_555
O14 C2_2 1_555 1_555
O5_2 Sr9 1_555 1_555
O11_2 Sr9 1_555 1_555
H6_2 O11_2 1_555 1_555
O13_2 Sr6 1_555 1_555
H9_2 O13_2 1_555 1_555
H10_2 O13_2 1_555 1_555
N2_2 Sr9 1_555 1_555
N3_2 Sr6 1_555 1_555
N17 N3_2 1_555 1_555
N9_2 Sr9 1_555 1_555
N11_2 N10_2 1_555 1_555
C1_2 N1_2 1_555 1_555
C2_2 C1_2 1_555 1_555
C5_2 N9_2 1_555 1_555
N20_2 Sr6 1_555 1_555
Sr9 O13_2 1_555 1_555
N1_2 N2_2 1_555 1_555
N2_2 N3_2 1_555 1_555
N17 C1_2 1_555 1_555
N9_2 N10_2 1_555 1_555
O6_2 C6_2 1_555 1_555
Sr8_2 O6_2 1_555 1_555
N12_2 Sr8_2 1_555 1_555
O12_3 Sr12 1_555 1_555
H7_3 O12_3 1_555 1_555
H8_3 O12_3 1_555 1_555
O21_2 Sr12 1_555 1_555
H11_2 O21_2 1_555 1_555
H12_2 O21_2 1_555 1_555
O22_2 Sr12 1_555 1_555
H13_2 O22_2 1_555 1_555
H14_2 O22_2 1_555 1_555
N17_2 Sr12 1_555 1_555
N18_2 Sr12 1_555 1_555
Sr12 O14_2 1_555 1_555
Sr5_2 O21_2 1_555 1_555
Sr5_2 O22_2 1_555 1_555
Sr1_2 O1_3 1_555 1_555
Sr8_2 O11_3 1_555 1_555
Sr10 O3_2 1_555 1_555
O1_3 C2_3 1_555 1_555
O2_2 C2_3 1_555 1_555
O3_2 C4_3 1_555 1_555
O16 C4_3 1_555 1_555
O5_3 Sr10 1_555 1_555
O19 C6_3 1_555 1_555
O7_3 Sr1_2 1_555 1_555
O20 C8_3 1_555 1_555
O9_2 Sr1_2 1_555 1_555
H1_2 O9_2 1_555 1_555
H2_2 O9_2 1_555 1_555
O10_2 Sr1_2 1_555 1_555
H3_2 O10_2 1_555 1_555
H4_2 O10_2 1_555 1_555
O11_3 Sr10 1_555 1_555
H5_3 O11_3 1_555 1_555
H6_3 O11_3 1_555 1_555
O13_3 Sr8_2 1_555 1_555
H9_3 O13_3 1_555 1_555
H10_3 O13_3 1_555 1_555
N1_3 Sr1_2 1_555 1_555
N2_3 Sr10 1_555 1_555
N3_3 Sr8_2 1_555 1_555
N4_2 N3_3 1_555 1_555
N5_3 Sr10 1_555 1_555
N6_3 Sr1_2 1_555 1_555
N7_2 N6_3 1_555 1_555
N19 N7_2 1_555 1_555
N9_3 Sr10 1_555 1_555
N10_3 Sr1_2 1_555 1_555
N11_3 N10_3 1_555 1_555
N20_2 N11_3 1_555 1_555
N13_3 Sr1_2 1_555 1_555
N14_3 N13_3 1_555 1_555
N15_3 N14_3 1_555 1_555
N16_3 N15_3 1_555 1_555
C1_3 N1_3 1_555 1_555
C2_3 C1_3 1_555 1_555
C3_3 N5_3 1_555 1_555
C4_3 C3_3 1_555 1_555
C5_3 N9_3 1_555 1_555
C6_3 O5_3 1_555 1_555
C7_3 N13_3 1_555 1_555
C8_3 O7_3 1_555 1_555
Sr8 O3_2 1_555 1_555
Sr10_2 O16 1_555 1_555
Sr12_2 O9_2 1_555 1_555
O15_2 Sr8_2 1_555 1_555
O17_2 Sr10 1_555 1_555
Sr10 O13_3 1_555 1_555
O10_2 Sr12_2 1_555 1_555
N1_3 N2_3 1_555 1_555
N2_3 N3_3 1_555 1_555
N4_2 C1_3 1_555 1_555
N5_3 N6_3 1_555 1_555
N7_2 Sr12_2 1_555 1_555
N19 C3_3 1_555 1_555
N9_3 N10_3 1_555 1_555
N20_2 C5_3 1_555 1_555
N16_3 C7_3 1_555 1_555
C5_3 C6_3 1_555 1_555
C7_3 C8_3 1_555 1_555
Sr8 O17_2 1_555 1_555
O18 C6_4 1_555 1_555
Sr8 O11_4 1_555 1_555
O1_4 C2_4 1_555 1_555
O14_2 C2_4 1_555 1_555
O5_4 Sr10_2 1_555 1_555
O11_4 Sr10_2 1_555 1_555
H6_4 O11_4 1_555 1_555
O13_4 Sr8 1_555 1_555
H9_4 O13_4 1_555 1_555
H10_4 O13_4 1_555 1_555
N2_4 Sr10_2 1_555 1_555
N3_4 Sr8 1_555 1_555
N17_2 N3_4 1_555 1_555
N9_4 Sr10_2 1_555 1_555
N11_4 N10_4 1_555 1_555
C1_4 N1_4 1_555 1_555
C2_4 C1_4 1_555 1_555
C5_4 N9_4 1_555 1_555
N19_2 Sr8 1_555 1_555
Sr10_2 O13_4 1_555 1_555
N1_4 N2_4 1_555 1_555
N2_4 N3_4 1_555 1_555
N17_2 C1_4 1_555 1_555
N9_4 N10_4 1_555 1_555
N15_4 N14_4 1_555 1_555
N16_4 N15_4 1_555 1_555
N16_4 C7_4 1_555 1_555
O15_2 C4_4 1_555 1_555
O17_2 C4_4 1_555 1_555
O7_4 Sr5_2 1_555 1_555
N6_4 Sr5_2 1_555 1_555
N18_2 N6_4 1_555 1_555
N19_2 N18_2 1_555 1_555
N13_4 Sr5_2 1_555 1_555
C3_4 N5_4 1_555 1_555
C4_4 C3_4 1_555 1_555
C8_4 O7_4 1_555 1_555
N5_4 N6_4 1_555 1_555
N19_2 C3_4 1_555 1_555
H7_4 O12_4 1_555 1_555
H8_4 O12_4 1_555 1_555

#END
