
###############################################################################
#
# This file contains modified crystal structure data generated from the
# MOF subset of the Cambridge Structural Database (CSD) v543 
# hosted by the Cambridge Crystallographic Data Centre (CCDC).
#
# This work is licensed under the Creative Commons
# Attribution-NonCommercial-ShareAlike 4.0 International License.
# To view a copy of this license, visit
# http://creativecommons.org/licenses/by-nc-sa/4.0/
# or send a letter to
# Creative Commons, PO Box 1866, Mountain View, CA 94042, USA.
#
# CIF created using the CSD Python API on 29 September 2022
# The structure has been converted into the P1 space group
# The structure has a 3D framework
# The original CSD entry YUJNOH is in the tetragonal crystal system
# The framework has been calculated to contain at least 10.0% void space
# The void calculation uses a probe of radius 1.32A, grid spacing 0.4
#
###############################################################################

data_YUJNOH
_chemical_formula_moiety         '(C16 H32 N32 O32 Sr8)n'
_symmetry_cell_setting           triclinic
_symmetry_space_group_name_H-M   'P 1'
_symmetry_Int_Tables_number      1
_space_group_name_Hall           'P 1'
loop_
_symmetry_equiv_pos_site_id
_symmetry_equiv_pos_as_xyz
1 x,y,z
_cell_length_a                   12.9854(2)
_cell_length_b                   12.9854(2)
_cell_length_c                   8.8601(3)
_cell_angle_alpha                90
_cell_angle_beta                 90
_cell_angle_gamma                90
_cell_volume                     1494
loop_
_atom_site_label
_atom_site_type_symbol
_atom_site_fract_x
_atom_site_fract_y
_atom_site_fract_z
O4 O 0.14479(16) 0.0833(2) 0.2848(4)
H1 H 0.165(3) 0.084(3) 0.213(4)
H3 H 0.170(3) 0.067(3) 0.356(4)
O1 O 0.00128(12) 0.88953(12) 0.44152(17)
O2 O 0.01614(12) 0.71777(14) 0.43986(19)
N1 N 0.00220(14) 0.88794(14) 0.1233(2)
N2 N 0.01814(15) 0.71892(16) 0.1258(2)
C1 C 0.00850(19) 0.8038(2) 0.3766(3)
C2 C 0.00889(17) 0.80357(18) 0.2079(3)
Sr4 Sr 0.048835(15) 0.944938(15) 0.71359(2)
Sr5 Sr 0.055062(15) 0.548835(15) 0.28641(2)
O15 O 0.21777(14) 0.98386(12) 0.56014(19)
O18 O 0.1388(3) 0.7649(2) 0.6940(4)
N13 N 0.21892(16) 0.98186(15) 0.8742(2)
N18 N 0.00759(15) 0.85268(16) 0.9815(2)
H10 H 0.180(4) 0.775(5) 0.716(7)
H16 H 0.125(3) 0.737(3) 0.627(5)
N4 N 0.01704(17) 0.75222(17) 0.9823(2)
Sr11 Sr 0.951165(15) 0.055062(15) 0.28641(2)
N16 N 0.99241(15) 0.14732(16) 0.0185(2)
N21 N 0.98296(17) 0.24778(17) 0.0177(2)
O3 O 0.8612(3) 0.2351(2) 0.3060(4)
H2 H 0.820(4) 0.225(5) 0.284(7)
H4 H 0.875(3) 0.263(3) 0.373(5)
Sr6 Sr 0.555062(15) 0.048835(15) 0.71359(2)
Sr10 Sr 0.944938(15) 0.451165(15) 0.71359(2)
O5 O 0.61047(12) 0.00128(12) 0.44152(17)
O7 O 0.99872(12) 0.11047(12) 0.55848(17)
O10 O 0.78223(14) 0.01614(12) 0.43986(19)
O12 O 0.98386(12) 0.28223(14) 0.56014(19)
N5 N 0.61206(14) 0.00220(14) 0.1233(2)
N7 N 0.99780(14) 0.11206(14) 0.8767(2)
N8 N 0.78108(16) 0.01814(15) 0.1258(2)
N10 N 0.98186(15) 0.28108(16) 0.8742(2)
C3 C 0.6962(2) 0.00850(19) 0.3766(3)
C5 C 0.99150(19) 0.1962(2) 0.6234(3)
O19 O 0.4167(2) 0.14479(16) 0.2848(4)
C6 C 0.69643(18) 0.00889(17) 0.2079(3)
C8 C 0.99111(17) 0.19643(18) 0.7921(3)
H5 H 0.416(3) 0.165(3) 0.213(4)
H11 H 0.433(3) 0.170(3) 0.356(4)
N14 N 0.64732(16) 0.00759(15) 0.9815(2)
N19 N 0.74778(17) 0.01704(17) 0.9823(2)
Sr2 Sr 0.444938(15) 0.951165(15) 0.28641(2)
O8 O 0.38953(12) 0.99872(12) 0.55848(17)
O13 O 0.48386(12) 0.78223(14) 0.43986(19)
O16 O 0.2649(2) 0.8612(3) 0.3060(4)
N11 N 0.48186(15) 0.78108(16) 0.1258(2)
N17 N 0.35268(16) 0.99241(15) 0.0185(2)
O21 O 0.85521(16) 0.9167(2) 0.7152(4)
H7 H 0.835(3) 0.916(3) 0.787(4)
H8 H 0.275(5) 0.820(4) 0.284(7)
H13 H 0.830(3) 0.933(3) 0.644(4)
H14 H 0.237(3) 0.875(3) 0.373(5)
O8_2 O 0.11047(12) 0.50128(12) 0.55848(17)
O16_2 O 0.2351(2) 0.6388(3) 0.3060(4)
N17_2 N 0.14732(16) 0.50759(15) 0.0185(2)
O19_2 O 0.0833(2) 0.35521(16) 0.2848(4)
H5_2 H 0.084(3) 0.335(3) 0.213(4)
H8_2 H 0.225(5) 0.680(4) 0.284(7)
H11_2 H 0.067(3) 0.330(3) 0.356(4)
H14_2 H 0.263(3) 0.625(3) 0.373(5)
Sr11_2 Sr 0.548835(15) 0.444938(15) 0.28641(2)
N16_2 N 0.50759(15) 0.35268(16) 0.0185(2)
N21_2 N 0.51704(17) 0.25222(17) 0.0177(2)
O1_2 O 0.49872(12) 0.61047(12) 0.44152(17)
O3_2 O 0.6388(3) 0.2649(2) 0.3060(4)
N1_2 N 0.49780(14) 0.61206(14) 0.1233(2)
C1_2 C 0.49150(19) 0.6962(2) 0.3766(3)
O4_2 O 0.35521(16) 0.4167(2) 0.2848(4)
C2_2 C 0.49111(17) 0.69643(18) 0.2079(3)
H1_2 H 0.335(3) 0.416(3) 0.213(4)
H2_2 H 0.680(4) 0.275(5) 0.284(7)
H3_2 H 0.330(3) 0.433(3) 0.356(4)
H4_2 H 0.625(3) 0.237(3) 0.373(5)
Sr4_2 Sr 0.451165(15) 0.555062(15) 0.71359(2)
O5_2 O 0.88953(12) 0.49872(12) 0.44152(17)
O7_2 O 0.50128(12) 0.38953(12) 0.55848(17)
O10_2 O 0.71777(14) 0.48386(12) 0.43986(19)
O12_2 O 0.51614(12) 0.21777(14) 0.56014(19)
O15_2 O 0.28223(14) 0.51614(12) 0.56014(19)
O18_2 O 0.3612(3) 0.7351(2) 0.6940(4)
N5_2 N 0.88794(14) 0.49780(14) 0.1233(2)
N7_2 N 0.50220(14) 0.38794(14) 0.8767(2)
N8_2 N 0.71892(16) 0.48186(15) 0.1258(2)
N10_2 N 0.51814(15) 0.21892(16) 0.8742(2)
N13_2 N 0.28108(16) 0.51814(15) 0.8742(2)
C3_2 C 0.8038(2) 0.49150(19) 0.3766(3)
C5_2 C 0.50850(19) 0.3038(2) 0.6234(3)
N18_2 N 0.49241(15) 0.64732(16) 0.9815(2)
O21_2 O 0.64479(16) 0.5833(2) 0.7152(4)
C6_2 C 0.80357(18) 0.49111(17) 0.2079(3)
C8_2 C 0.50889(17) 0.30357(18) 0.7921(3)
H7_2 H 0.665(3) 0.584(3) 0.787(4)
H10_2 H 0.320(4) 0.725(5) 0.716(7)
H13_2 H 0.670(3) 0.567(3) 0.644(4)
H16_2 H 0.375(3) 0.763(3) 0.627(5)
N4_2 N 0.48296(17) 0.74778(17) 0.9823(2)
N14_2 N 0.85268(16) 0.49241(15) 0.9815(2)
N19_2 N 0.75222(17) 0.48296(17) 0.9823(2)
O18_3 O 0.7351(2) 0.1388(3) 0.6940(4)
H10_3 H 0.725(5) 0.180(4) 0.716(7)
H16_3 H 0.763(3) 0.125(3) 0.627(5)
N21_3 N 0.25222(17) 0.98296(17) 0.0177(2)
N7_3 N 0.38794(14) 0.99780(14) 0.8767(2)
C5_3 C 0.3038(2) 0.99150(19) 0.6234(3)
O21_3 O 0.5833(2) 0.85521(16) 0.7152(4)
C8_3 C 0.30357(18) 0.99111(17) 0.7921(3)
H7_3 H 0.584(3) 0.835(3) 0.787(4)
H13_3 H 0.567(3) 0.830(3) 0.644(4)
N21_4 N 0.24778(17) 0.51704(17) 0.0177(2)
N7_4 N 0.11206(14) 0.50220(14) 0.8767(2)
C5_4 C 0.1962(2) 0.50850(19) 0.6234(3)
C8_4 C 0.19643(18) 0.50889(17) 0.7921(3)
O18_4 O 0.7649(2) 0.3612(3) 0.6940(4)
O21_4 O 0.9167(2) 0.64479(16) 0.7152(4)
H7_4 H 0.916(3) 0.665(3) 0.787(4)
H10_4 H 0.775(5) 0.320(4) 0.716(7)
H13_4 H 0.933(3) 0.670(3) 0.644(4)
H16_4 H 0.737(3) 0.375(3) 0.627(5)
loop_
_geom_bond_atom_site_label_1
_geom_bond_atom_site_label_2
_geom_bond_site_symmetry_1
_geom_bond_site_symmetry_2
H1 O4 1_555 1_555
H3 O4 1_555 1_555
O1 C1 1_555 1_555
O2 C1 1_555 1_555
C1 C2 1_555 1_555
C2 N1 1_555 1_555
Sr4 O1 1_555 1_555
Sr5 O2 1_555 1_555
O15 Sr4 1_555 1_555
O18 Sr4 1_555 1_555
N13 Sr4 1_555 1_555
N18 Sr4 1_555 1_555
H10 O18 1_555 1_555
H16 O18 1_555 1_555
N2 C2 1_555 1_555
N2 Sr5 1_555 1_555
N4 N18 1_555 1_555
Sr11 N16 1_555 1_555
N16 N21 1_555 1_555
O3 Sr11 1_555 1_555
H2 O3 1_555 1_555
H4 O3 1_555 1_555
Sr6 O5 1_555 1_555
Sr10 O12 1_555 1_555
O5 C3 1_555 1_555
O7 Sr11 1_555 1_555
O10 Sr11 1_555 1_555
O12 C5 1_555 1_555
N8 Sr11 1_555 1_555
N10 Sr10 1_555 1_555
C3 O10 1_555 1_555
C5 O7 1_555 1_555
C6 N5 1_555 1_555
C8 N7 1_555 1_555
H5 O19 1_555 1_555
H11 O19 1_555 1_555
N8 C6 1_555 1_555
N10 C8 1_555 1_555
C3 C6 1_555 1_555
C5 C8 1_555 1_555
Sr6 N14 1_555 1_555
N14 N19 1_555 1_555
O8 Sr2 1_555 1_555
O13 Sr2 1_555 1_555
O16 Sr2 1_555 1_555
N11 Sr2 1_555 1_555
N17 Sr2 1_555 1_555
H7 O21 1_555 1_555
H8 O16 1_555 1_555
H13 O21 1_555 1_555
H14 O16 1_555 1_555
O8_2 Sr5 1_555 1_555
O16_2 Sr5 1_555 1_555
N17_2 Sr5 1_555 1_555
O19_2 Sr5 1_555 1_555
H5_2 O19_2 1_555 1_555
H8_2 O16_2 1_555 1_555
H11_2 O19_2 1_555 1_555
H14_2 O16_2 1_555 1_555
Sr11_2 N16_2 1_555 1_555
N16_2 N21_2 1_555 1_555
Sr11_2 O1_2 1_555 1_555
O1_2 C1_2 1_555 1_555
O13 C1_2 1_555 1_555
O3_2 Sr11_2 1_555 1_555
N1_2 Sr11_2 1_555 1_555
C1_2 C2_2 1_555 1_555
O4_2 Sr11_2 1_555 1_555
C2_2 N1_2 1_555 1_555
H1_2 O4_2 1_555 1_555
H2_2 O3_2 1_555 1_555
H3_2 O4_2 1_555 1_555
H4_2 O3_2 1_555 1_555
Sr4_2 O1_2 1_555 1_555
Sr10 O5_2 1_555 1_555
Sr6 O12_2 1_555 1_555
O5_2 C3_2 1_555 1_555
O7_2 Sr11_2 1_555 1_555
O10_2 Sr11_2 1_555 1_555
O12_2 C5_2 1_555 1_555
O15_2 Sr4_2 1_555 1_555
O18_2 Sr4_2 1_555 1_555
N7_2 Sr4_2 1_555 1_555
N8_2 Sr11_2 1_555 1_555
N10_2 Sr6 1_555 1_555
N13_2 Sr4_2 1_555 1_555
C3_2 O10_2 1_555 1_555
C5_2 O7_2 1_555 1_555
N18_2 Sr4_2 1_555 1_555
O21_2 Sr4_2 1_555 1_555
C6_2 N5_2 1_555 1_555
C8_2 N7_2 1_555 1_555
H7_2 O21_2 1_555 1_555
H10_2 O18_2 1_555 1_555
H13_2 O21_2 1_555 1_555
H16_2 O18_2 1_555 1_555
N11 C2_2 1_555 1_555
Sr4_2 O7_2 1_555 1_555
N8_2 C6_2 1_555 1_555
N10_2 C8_2 1_555 1_555
C3_2 C6_2 1_555 1_555
C5_2 C8_2 1_555 1_555
N4_2 N18_2 1_555 1_555
Sr10 N14_2 1_555 1_555
N14_2 N19_2 1_555 1_555
O18_3 Sr6 1_555 1_555
H10_3 O18_3 1_555 1_555
H16_3 O18_3 1_555 1_555
N17 N21_3 1_555 1_555
O15 C5_3 1_555 1_555
C5_3 O8 1_555 1_555
C8_3 N7_3 1_555 1_555
H7_3 O21_3 1_555 1_555
H13_3 O21_3 1_555 1_555
N13 C8_3 1_555 1_555
C5_3 C8_3 1_555 1_555
N17_2 N21_4 1_555 1_555
O15_2 C5_4 1_555 1_555
C5_4 O8_2 1_555 1_555
C8_4 N7_4 1_555 1_555
N13_2 C8_4 1_555 1_555
C5_4 C8_4 1_555 1_555
O18_4 Sr10 1_555 1_555
O21_4 Sr10 1_555 1_555
H7_4 O21_4 1_555 1_555
H10_4 O18_4 1_555 1_555
H13_4 O21_4 1_555 1_555
H16_4 O18_4 1_555 1_555

#END
