
###############################################################################
#
# This file contains modified crystal structure data generated from the
# MOF subset of the Cambridge Structural Database (CSD) v543 
# hosted by the Cambridge Crystallographic Data Centre (CCDC).
#
# This work is licensed under the Creative Commons
# Attribution-NonCommercial-ShareAlike 4.0 International License.
# To view a copy of this license, visit
# http://creativecommons.org/licenses/by-nc-sa/4.0/
# or send a letter to
# Creative Commons, PO Box 1866, Mountain View, CA 94042, USA.
#
# CIF created using the CSD Python API on 29 September 2022
# The structure has been converted into the P1 space group
# The structure has a 3D framework
# The original CSD entry YUKJIZ is in the triclinic crystal system
# The framework has been calculated to contain at least 10.0% void space
# The void calculation uses a probe of radius 1.32A, grid spacing 0.4
#
###############################################################################

data_YUKJIZ
_chemical_formula_moiety         '(C30 H24 N4 O26 Yb2 Zn2)n'
_symmetry_cell_setting           triclinic
_symmetry_space_group_name_H-M   'P 1'
_symmetry_Int_Tables_number      1
_space_group_name_Hall           'P 1'
loop_
_symmetry_equiv_pos_site_id
_symmetry_equiv_pos_as_xyz
1 x,y,z
_cell_length_a                   9.992(6)
_cell_length_b                   10.543(6)
_cell_length_c                   10.962(7)
_cell_angle_alpha                80.556(9)
_cell_angle_beta                 71.799(7)
_cell_angle_gamma                74.477(8)
_cell_volume                     1052.91
loop_
_atom_site_label
_atom_site_type_symbol
_atom_site_fract_x
_atom_site_fract_y
_atom_site_fract_z
_atom_site_U_iso_or_equiv
_atom_site_thermal_displace_type
H6 H 0.702(6) 0.232(5) 0.002(5) 0.0300 Uiso
C11 C 0.5061(4) 0.1618(4) 0.0786(4) 0.0157 Uani
C12 C 0.3878(4) 0.1490(4) 0.0424(4) 0.0147 Uani
C13 C 0.2729(4) 0.0775(4) 0.1275(4) 0.0184 Uani
C14 C 0.5257(4) 0.1184(4) 0.2119(4) 0.0142 Uani
O5 O 0.1814(3) 0.0623(3) 0.0748(3) 0.0236 Uani
O6 O 0.2751(4) 0.0379(3) 0.2403(3) 0.0254 Uani
O7 O 0.4673(3) 0.2040(3) 0.2913(3) 0.0212 Uani
O8 O 0.6034(3) 0.0072(3) 0.2330(3) 0.0206 Uani
Yb3 Yb 0.327211(16) 0.307865(14) 0.466384(14) 0.0117 Uani
Zn1 Zn 0.20938(5) 0.13215(5) 0.88175(4) 0.0179 Uani
N1 N 0.0211(4) 0.2977(3) 0.9270(3) 0.0182 Uani
N2 N 0.3704(4) 0.1963(3) 0.9249(3) 0.0178 Uani
C6 C 0.0988(4) 0.3307(4) 0.6959(4) 0.0148 Uani
C8 C 0.4684(5) 0.2567(4) 0.8398(4) 0.0230 Uani
H4 H 0.452(6) 0.289(5) 0.761(6) 0.0310 Uiso
C9 C 0.5894(5) 0.2705(5) 0.8686(4) 0.0271 Uani
H5 H 0.6567 0.3117 0.8079 0.0330 Uiso
C10 C 0.6086(5) 0.2222(4) 0.9885(4) 0.0242 Uani
C15 C 0.5591(4) 0.4808(4) 0.4370(4) 0.0147 Uani
O1 O 0.2125(3) 0.2416(3) 0.7006(3) 0.0166 Uani
O2 O 0.0835(3) 0.3940(3) 0.5932(3) 0.0184 Uani
O9 O 0.5414(3) 0.3947(3) 0.3795(3) 0.0212 Uani
O10 O 0.6621(3) 0.5375(3) 0.4030(3) 0.0209 Uani
O11 O 0.0976(4) 0.0010(4) 0.8617(3) 0.0328 Uani
H7 H 0.010(2) 0.028(6) 0.862(7) 0.0490 Uiso
O12 O 0.2425(4) 0.1152(3) 0.4811(3) 0.0255 Uani
H9 H 0.174(4) 0.092(6) 0.542(4) 0.0380 Uiso
H10 H 0.258(7) 0.094(6) 0.406(2) 0.0380 Uiso
O13 O 0.5018(3) 0.1566(3) 0.5522(3) 0.0257 Uani
H11 H 0.482(7) 0.102(5) 0.617(4) 0.0390 Uiso
H12 H 0.444(5) 0.205(5) 0.512(5) 0.0390 Uiso
C16 C 0.4409(4) 0.5192(4) 0.5630(4) 0.0147 Uani
O14 O 0.4586(3) 0.6053(3) 0.6205(3) 0.0212 Uani
O15 O 0.3379(3) 0.4625(3) 0.5970(3) 0.0209 Uani
C19 C 0.2304(5) 0.5042(4) 0.0477(4) 0.0236 Uani
H15 H 0.327(7) 0.433(6) 0.034(6) 0.0460 Uiso
C20 C 0.1410(4) 0.5363(4) 0.1706(4) 0.0159 Uani
C21 C 0.0143(4) 0.6350(4) 0.1785(4) 0.0151 Uani
C23 C 0.1896(4) 0.4607(4) 0.2859(4) 0.0171 Uani
O18 O 0.2569(3) 0.5101(3) 0.3390(3) 0.0245 Uani
O19 O 0.1715(3) 0.3453(3) 0.3180(2) 0.0117 Uani
Yb5 Yb 0.672789(16) 0.692135(14) 0.533616(14) 0.0117 Uani
Zn4 Zn 0.79062(5) 0.86785(5) 0.11825(4) 0.0179 Uani
H8 H 0.119(8) 0.962(6) 0.794(4) 0.0490 Uiso
O30 O 0.3966(3) 0.9928(3) 0.7670(3) 0.0206 Uani
H20 H 0.881(8) 0.038(6) 0.206(4) 0.0490 Uiso
C3 C 0.7696(5) 0.4958(4) 0.9523(4) 0.0236 Uani
H3 H 0.673(7) 0.567(6) 0.966(6) 0.0460 Uiso
C4 C 0.8590(4) 0.4637(4) 0.8294(4) 0.0159 Uani
C5 C 0.9857(4) 0.3650(4) 0.8215(4) 0.0151 Uani
C7 C 0.8104(4) 0.5393(4) 0.7141(4) 0.0171 Uani
O3 O 0.7431(3) 0.4899(3) 0.6610(3) 0.0245 Uani
O4 O 0.8285(3) 0.6547(3) 0.6820(2) 0.0117 Uani
N3 N 0.9789(4) 0.7023(3) 0.0730(3) 0.0182 Uani
N4 N 0.6296(4) 0.8037(3) 0.0751(3) 0.0178 Uani
C22 C 0.9012(4) 0.6693(4) 0.3041(4) 0.0148 Uani
C24 C 0.5316(5) 0.7433(4) 0.1602(4) 0.0230 Uani
H16 H 0.548(6) 0.711(5) 0.239(6) 0.0310 Uiso
C25 C 0.4106(5) 0.7295(5) 0.1314(4) 0.0271 Uani
H17 H 0.3433 0.6883 0.1921 0.0330 Uiso
C26 C 0.3914(5) 0.7778(4) 0.0115(4) 0.0242 Uani
O16 O 0.7875(3) 0.7584(3) 0.2994(3) 0.0166 Uani
O17 O 0.9165(3) 0.6060(3) 0.4068(3) 0.0184 Uani
O24 O 0.9024(4) 0.9990(4) 0.1383(3) 0.0328 Uani
H19 H 0.990(2) 0.972(6) 0.138(7) 0.0490 Uiso
O25 O 0.7575(4) 0.8848(3) 0.5189(3) 0.0255 Uani
H21 H 0.826(4) 0.908(6) 0.458(4) 0.0380 Uiso
H22 H 0.742(7) 0.906(6) 0.594(2) 0.0380 Uiso
O26 O 0.4982(3) 0.8434(3) 0.4478(3) 0.0257 Uani
H23 H 0.518(7) 0.898(5) 0.383(4) 0.0390 Uiso
H24 H 0.556(5) 0.795(5) 0.488(5) 0.0390 Uiso
O28 O 0.5327(3) 0.7960(3) 0.7087(3) 0.0212 Uani
H18 H 0.298(6) 0.768(5) 0.998(5) 0.0300 Uiso
C27 C 0.4939(4) 0.8382(4) 0.9214(4) 0.0157 Uani
C28 C 0.6122(4) 0.8510(4) 0.9576(4) 0.0147 Uani
C29 C 0.7271(4) 0.9225(4) 0.8725(4) 0.0184 Uani
C30 C 0.4743(4) 0.8816(4) 0.7881(4) 0.0142 Uani
O20 O 0.8186(3) 0.9377(3) 0.9252(3) 0.0236 Uani
O21 O 0.7249(4) 0.9621(3) 0.7597(3) 0.0254 Uani
C17 C 0.0646(5) 0.6697(5) 0.9559(4) 0.0233 Uani
H13 H 0.038(6) 0.709(5) 0.888(5) 0.0220 Uiso
C18 C 0.1908(5) 0.5700(5) 0.9393(4) 0.0268 Uani
H14 H 0.250(7) 0.556(6) 0.859(6) 0.0400 Uiso
C1 C 0.9354(5) 0.3303(5) 0.0441(4) 0.0233 Uani
H1 H 0.962(6) 0.291(5) 0.112(5) 0.0220 Uiso
C2 C 0.8092(5) 0.4300(5) 0.0607(4) 0.0268 Uani
H2 H 0.750(7) 0.444(6) 0.141(6) 0.0400 Uiso
loop_
_atom_site_aniso_label
_atom_site_aniso_U_11
_atom_site_aniso_U_22
_atom_site_aniso_U_33
_atom_site_aniso_U_23
_atom_site_aniso_U_13
_atom_site_aniso_U_12
C11 0.022 0.0119 0.0133 -0.0032 -0.0057 -0.0021
C12 0.0192 0.012 0.0101 -0.0025 -0.0039 0.0015
C13 0.019 0.017 0.02 -0.0022 -0.0066 -0.004
C14 0.014 0.0174 0.0136 -0.0013 -0.004 -0.0077
O5 0.0231 0.0294 0.0204 0.0036 -0.0089 -0.0097
O6 0.0369 0.0293 0.0144 0.0047 -0.0104 -0.0154
O7 0.0244 0.0215 0.0178 -0.0101 -0.004 -0.0028
O8 0.0237 0.0175 0.0173 -0.0005 -0.007 0.0015
Yb3 0.01274 0.01141 0.01082 -0.00183 -0.00258 -0.00275
Zn1 0.0191 0.0196 0.0155 0.00095 -0.00782 -0.00312
N1 0.0198 0.02 0.0129 0.0015 -0.0042 -0.0037
N2 0.0234 0.0154 0.0156 -0.0016 -0.0078 -0.0032
C6 0.0142 0.0173 0.0141 -0.0031 -0.0028 -0.0061
C8 0.034 0.02 0.015 0.0018 -0.0081 -0.0069
C9 0.036 0.028 0.02 0.0046 -0.0053 -0.019
C10 0.028 0.025 0.022 -0.0011 -0.0061 -0.012
C15 0.0154 0.0146 0.0136 -0.001 -0.0039 -0.003
O1 0.0132 0.018 0.0158 -0.0014 -0.0024 -0.0009
O2 0.0167 0.0223 0.0138 0.0037 -0.0047 -0.003
O9 0.0216 0.0229 0.0204 -0.0087 -0.0009 -0.009
O10 0.0216 0.0216 0.0202 -0.0051 -0.001 -0.01
O11 0.0271 0.046 0.0318 -0.008 -0.0052 -0.0202
O12 0.0354 0.0252 0.0195 -0.0031 -0.0042 -0.0166
O13 0.0218 0.0286 0.0198 0.0067 -0.008 0.0027
C16 0.0154 0.0146 0.0136 -0.001 -0.0039 -0.003
O14 0.0216 0.0229 0.0204 -0.0087 -0.0009 -0.009
O15 0.0216 0.0216 0.0202 -0.0051 -0.001 -0.01
C19 0.023 0.019 0.022 -0.0027 -0.0014 0.0012
C20 0.019 0.0142 0.0143 0.0003 -0.0044 -0.0046
C21 0.0148 0.0146 0.0144 -0.0006 -0.0029 -0.003
C23 0.0137 0.0141 0.0166 0.0029 0.0013 -0.0009
O18 0.0242 0.0278 0.0243 0.0057 -0.0113 -0.01
O19 0.01274 0.01141 0.01082 -0.00183 -0.00258 -0.00275
Yb5 0.01274 0.01141 0.01082 -0.00183 -0.00258 -0.00275
Zn4 0.0191 0.0196 0.0155 0.00095 -0.00782 -0.00312
O30 0.0237 0.0175 0.0173 -0.0005 -0.007 0.0015
C3 0.023 0.019 0.022 -0.0027 -0.0014 0.0012
C4 0.019 0.0142 0.0143 0.0003 -0.0044 -0.0046
C5 0.0148 0.0146 0.0144 -0.0006 -0.0029 -0.003
C7 0.0137 0.0141 0.0166 0.0029 0.0013 -0.0009
O3 0.0242 0.0278 0.0243 0.0057 -0.0113 -0.01
O4 0.01274 0.01141 0.01082 -0.00183 -0.00258 -0.00275
N3 0.0198 0.02 0.0129 0.0015 -0.0042 -0.0037
N4 0.0234 0.0154 0.0156 -0.0016 -0.0078 -0.0032
C22 0.0142 0.0173 0.0141 -0.0031 -0.0028 -0.0061
C24 0.034 0.02 0.015 0.0018 -0.0081 -0.0069
C25 0.036 0.028 0.02 0.0046 -0.0053 -0.019
C26 0.028 0.025 0.022 -0.0011 -0.0061 -0.012
O16 0.0132 0.018 0.0158 -0.0014 -0.0024 -0.0009
O17 0.0167 0.0223 0.0138 0.0037 -0.0047 -0.003
O24 0.0271 0.046 0.0318 -0.008 -0.0052 -0.0202
O25 0.0354 0.0252 0.0195 -0.0031 -0.0042 -0.0166
O26 0.0218 0.0286 0.0198 0.0067 -0.008 0.0027
O28 0.0244 0.0215 0.0178 -0.0101 -0.004 -0.0028
C27 0.022 0.0119 0.0133 -0.0032 -0.0057 -0.0021
C28 0.0192 0.012 0.0101 -0.0025 -0.0039 0.0015
C29 0.019 0.017 0.02 -0.0022 -0.0066 -0.004
C30 0.014 0.0174 0.0136 -0.0013 -0.004 -0.0077
O20 0.0231 0.0294 0.0204 0.0036 -0.0089 -0.0097
O21 0.0369 0.0293 0.0144 0.0047 -0.0104 -0.0154
C17 0.029 0.026 0.012 0.0003 -0.0055 -0.003
C18 0.032 0.028 0.014 -0.0037 0.0002 -0.0033
C1 0.029 0.026 0.012 0.0003 -0.0055 -0.003
C2 0.032 0.028 0.014 -0.0037 0.0002 -0.0033
loop_
_geom_bond_atom_site_label_1
_geom_bond_atom_site_label_2
_geom_bond_site_symmetry_1
_geom_bond_site_symmetry_2
C13 C12 1_555 1_555
C14 C11 1_555 1_555
O6 C13 1_555 1_555
O7 C14 1_555 1_555
O8 C14 1_555 1_555
Yb3 O7 1_555 1_555
C11 C12 1_555 1_555
C13 O5 1_555 1_555
Yb3 O1 1_555 1_555
Zn1 N1 1_555 1_555
N2 Zn1 1_555 1_555
C8 N2 1_555 1_555
H4 C8 1_555 1_555
C9 C8 1_555 1_555
H5 C9 1_555 1_555
C10 C9 1_555 1_555
C15 O9 1_555 1_555
O1 Zn1 1_555 1_555
O2 Yb3 1_555 1_555
O9 Yb3 1_555 1_555
O10 C15 1_555 1_555
O11 Zn1 1_555 1_555
H7 O11 1_555 1_555
O12 Yb3 1_555 1_555
H9 O12 1_555 1_555
H10 O12 1_555 1_555
O13 Yb3 1_555 1_555
H11 O13 1_555 1_555
H12 O13 1_555 1_555
C16 C15 1_555 1_555
O14 C16 1_555 1_555
O15 Yb3 1_555 1_555
H15 C19 1_555 1_555
C20 C19 1_555 1_555
C23 C20 1_555 1_555
O18 Yb3 1_555 1_555
O19 Yb3 1_555 1_555
Yb5 O10 1_555 1_555
C6 O1 1_555 1_555
C6 O2 1_555 1_555
C16 O15 1_555 1_555
O14 Yb5 1_555 1_555
C20 C21 1_555 1_555
C23 O18 1_555 1_555
C23 O19 1_555 1_555
H3 C3 1_555 1_555
C4 C3 1_555 1_555
C7 C4 1_555 1_555
O3 C7 1_555 1_555
O4 C7 1_555 1_555
Yb5 O3 1_555 1_555
Zn4 N3 1_555 1_555
N4 Zn4 1_555 1_555
C24 N4 1_555 1_555
H16 C24 1_555 1_555
C25 C24 1_555 1_555
H17 C25 1_555 1_555
C26 C25 1_555 1_555
O16 Yb5 1_555 1_555
O17 Yb5 1_555 1_555
O24 Zn4 1_555 1_555
H19 O24 1_555 1_555
O25 Yb5 1_555 1_555
H21 O25 1_555 1_555
H22 O25 1_555 1_555
O26 Yb5 1_555 1_555
H23 O26 1_555 1_555
H24 O26 1_555 1_555
O28 Yb5 1_555 1_555
C4 C5 1_555 1_555
O4 Yb5 1_555 1_555
Zn4 O16 1_555 1_555
C22 O16 1_555 1_555
C22 O17 1_555 1_555
C29 C28 1_555 1_555
C30 C27 1_555 1_555
O21 C29 1_555 1_555
O28 C30 1_555 1_555
O30 C30 1_555 1_555
C27 C28 1_555 1_555
C29 O20 1_555 1_555
C17 H13 1_555 1_555
C18 C17 1_555 1_555
H14 C18 1_555 1_555
C1 H1 1_555 1_555
C2 C1 1_555 1_555
H2 C2 1_555 1_555

#END
