
###############################################################################
#
# This file contains modified crystal structure data generated from the
# MOF subset of the Cambridge Structural Database (CSD) v543 
# hosted by the Cambridge Crystallographic Data Centre (CCDC).
#
# This work is licensed under the Creative Commons
# Attribution-NonCommercial-ShareAlike 4.0 International License.
# To view a copy of this license, visit
# http://creativecommons.org/licenses/by-nc-sa/4.0/
# or send a letter to
# Creative Commons, PO Box 1866, Mountain View, CA 94042, USA.
#
# CIF created using the CSD Python API on 29 September 2022
# The structure has been converted into the P1 space group
# The structure has a 3D framework
# The original CSD entry YUKJUL is in the triclinic crystal system
# The framework has been calculated to contain at least 10.0% void space
# The void calculation uses a probe of radius 1.32A, grid spacing 0.4
#
###############################################################################

data_YUKJUL
_chemical_formula_moiety         '(C30 H24 Eu2 N4 O24 Zn2)n'
_symmetry_cell_setting           triclinic
_symmetry_space_group_name_H-M   'P 1'
_symmetry_Int_Tables_number      1
_space_group_name_Hall           'P 1'
loop_
_symmetry_equiv_pos_site_id
_symmetry_equiv_pos_as_xyz
1 x,y,z
_cell_length_a                   9.9939(4)
_cell_length_b                   10.6523(4)
_cell_length_c                   10.9658(4)
_cell_angle_alpha                80.5580(10)
_cell_angle_beta                 72.2570(10)
_cell_angle_gamma                74.5410(10)
_cell_volume                     1067.27
loop_
_atom_site_label
_atom_site_type_symbol
_atom_site_fract_x
_atom_site_fract_y
_atom_site_fract_z
_atom_site_U_iso_or_equiv
_atom_site_thermal_displace_type
C3 C 0.0068(3) 0.1615(2) 0.0762(2) 0.0193 Uani
H1 H 0.189(4) 0.225(4) 0.006(4) 0.0460 Uiso
C7 C 0.0296(3) 0.1157(3) 0.2077(2) 0.0183 Uani
O4 O 0.1094(2) 0.00632(19) 0.22630(18) 0.0250 Uani
H20 H 0.371(8) 0.036(7) 0.205(5) 0.1600 Uiso
C4 C 0.1059(3) 0.2245(3) 0.9871(3) 0.0283 Uani
C5 C 0.0841(4) 0.2752(3) 0.8686(3) 0.0324 Uani
H2 H 0.146(4) 0.325(4) 0.806(4) 0.0570 Uiso
C15 C 0.0596(3) 0.4787(2) 0.4381(2) 0.0187 Uani
O9 O 0.0435(2) 0.39274(19) 0.38287(18) 0.0261 Uani
O10 O 0.1621(2) 0.5351(2) 0.40385(18) 0.0257 Uani
O13 O 0.0021(2) 0.1493(2) 0.5572(2) 0.0346 Uani
H12 H 0.082(2) 0.113(4) 0.509(3) 0.0610 Uiso
Eu5 Eu 0.175092(12) 0.694402(12) 0.534338(11) 0.0153 Uani
Zn4 Zn 0.29213(3) 0.86777(3) 0.11650(3) 0.0219 Uani
C1 C 0.7769(3) 0.0753(3) 0.1257(2) 0.0203 Uani
C2 C 0.8888(3) 0.1483(2) 0.0412(2) 0.0182 Uani
C12 C 0.3149(3) 0.4257(3) 0.0647(3) 0.0319 Uani
H5 H 0.261(4) 0.437(3) 0.147(4) 0.0380 Uiso
C13 C 0.4390(3) 0.3268(3) 0.0468(3) 0.0280 Uani
H6 H 0.468(4) 0.281(3) 0.116(3) 0.0350 Uiso
O1 O 0.6856(2) 0.0603(2) 0.07393(18) 0.0267 Uani
O2 O 0.7827(2) 0.0338(2) 0.23664(18) 0.0292 Uani
O3 O 0.9727(2) 0.19714(19) 0.28870(18) 0.0259 Uani
Eu3 Eu 0.824908(12) 0.305598(12) 0.465662(11) 0.0153 Uani
Zn1 Zn 0.70787(3) 0.13223(3) 0.88350(3) 0.0219 Uani
N1 N 0.8687(2) 0.1978(2) 0.9250(2) 0.0221 Uani
N2 N 0.5228(2) 0.2951(2) 0.9299(2) 0.0227 Uani
C6 C 0.9633(3) 0.2604(3) 0.8413(3) 0.0270 Uani
H3 H 0.942(4) 0.294(3) 0.766(3) 0.0360 Uiso
C8 C 0.5947(3) 0.3309(3) 0.6999(2) 0.0187 Uani
C9 C 0.4856(3) 0.3638(3) 0.8258(2) 0.0194 Uani
C10 C 0.3606(3) 0.4627(3) 0.8349(2) 0.0208 Uani
C11 C 0.2751(3) 0.4930(3) 0.9574(3) 0.0280 Uani
H4 H 0.196(4) 0.561(3) 0.963(3) 0.0300 Uiso
C14 C 0.3119(3) 0.5386(3) 0.7198(2) 0.0208 Uani
O5 O 0.70790(19) 0.24081(18) 0.70312(17) 0.0212 Uani
O6 O 0.57662(19) 0.39473(19) 0.59858(17) 0.0232 Uani
O7 O 0.3309(2) 0.65233(19) 0.68727(19) 0.0278 Uani
O8 O 0.2444(2) 0.4889(2) 0.66786(19) 0.0276 Uani
O11 O 0.5937(3) 0.0063(3) 0.8612(2) 0.0393 Uani
H7 H 0.5040(16) 0.029(6) 0.869(6) 0.1000 Uiso
O12 O 0.7339(3) 0.1107(2) 0.4794(2) 0.0337 Uani
H9 H 0.735(5) 0.091(4) 0.407(2) 0.0610 Uiso
H10 H 0.674(4) 0.079(5) 0.541(3) 0.0830 Uiso
H11 H 0.980(5) 0.094(4) 0.620(3) 0.0720 Uiso
C16 C 0.9404(3) 0.5213(2) 0.5619(2) 0.0187 Uani
O14 O 0.9565(2) 0.60726(19) 0.61713(18) 0.0261 Uani
O15 O 0.8379(2) 0.4649(2) 0.59615(18) 0.0257 Uani
N3 N 0.1313(2) 0.8022(2) 0.0750(2) 0.0221 Uani
N4 N 0.4772(2) 0.7049(2) 0.0701(2) 0.0227 Uani
C22 C 0.0367(3) 0.7396(3) 0.1587(3) 0.0270 Uani
H15 H 0.058(4) 0.706(3) 0.234(3) 0.0360 Uiso
C24 C 0.4053(3) 0.6691(3) 0.3001(2) 0.0187 Uani
C25 C 0.5144(3) 0.6362(3) 0.1742(2) 0.0194 Uani
C26 C 0.6394(3) 0.5373(3) 0.1651(2) 0.0208 Uani
C27 C 0.7249(3) 0.5070(3) 0.0426(3) 0.0280 Uani
H16 H 0.804(4) 0.439(3) 0.037(3) 0.0300 Uiso
C30 C 0.6881(3) 0.4614(3) 0.2802(2) 0.0208 Uani
O20 O 0.29210(19) 0.75919(18) 0.29688(17) 0.0212 Uani
O21 O 0.42338(19) 0.60527(19) 0.40142(17) 0.0232 Uani
O22 O 0.6691(2) 0.34767(19) 0.31273(19) 0.0278 Uani
O23 O 0.7556(2) 0.5111(2) 0.33214(19) 0.0276 Uani
O24 O 0.4063(3) 0.9937(3) 0.1388(2) 0.0393 Uani
H19 H 0.4960(16) 0.971(6) 0.131(6) 0.1000 Uiso
O25 O 0.2661(3) 0.8893(2) 0.5206(2) 0.0337 Uani
H21 H 0.265(5) 0.909(4) 0.593(2) 0.0610 Uiso
H22 H 0.326(4) 0.921(5) 0.459(3) 0.0830 Uiso
H23 H 0.020(5) 0.906(4) 0.380(3) 0.0720 Uiso
O28 O 0.0273(2) 0.80286(19) 0.71130(18) 0.0259 Uani
C17 C 0.2231(3) 0.9247(3) 0.8743(2) 0.0203 Uani
C18 C 0.1112(3) 0.8517(2) 0.9588(2) 0.0182 Uani
C28 C 0.6851(3) 0.5743(3) 0.9353(3) 0.0319 Uani
H17 H 0.739(4) 0.563(3) 0.853(4) 0.0380 Uiso
C29 C 0.5610(3) 0.6732(3) 0.9532(3) 0.0280 Uani
H18 H 0.532(4) 0.719(3) 0.884(3) 0.0350 Uiso
O16 O 0.3144(2) 0.9397(2) 0.92607(18) 0.0267 Uani
O17 O 0.2173(2) 0.9662(2) 0.76336(18) 0.0292 Uani
C20 C 0.8941(3) 0.7755(3) 0.0129(3) 0.0283 Uani
C21 C 0.9159(4) 0.7248(3) 0.1314(3) 0.0324 Uani
H14 H 0.854(4) 0.675(4) 0.194(4) 0.0570 Uiso
O26 O 0.9979(2) 0.8507(2) 0.4428(2) 0.0346 Uani
H24 H 0.918(2) 0.887(4) 0.491(3) 0.0610 Uiso
H8 H 0.629(8) 0.964(7) 0.795(5) 0.1600 Uiso
O30 O 0.8906(2) 0.99368(19) 0.77370(18) 0.0250 Uani
C19 C 0.9932(3) 0.8385(2) 0.9238(2) 0.0193 Uani
H13 H 0.811(4) 0.775(4) 0.994(4) 0.0460 Uiso
C23 C 0.9704(3) 0.8843(3) 0.7923(2) 0.0183 Uani
loop_
_atom_site_aniso_label
_atom_site_aniso_U_11
_atom_site_aniso_U_22
_atom_site_aniso_U_33
_atom_site_aniso_U_23
_atom_site_aniso_U_13
_atom_site_aniso_U_12
C3 0.0234 0.0164 0.0176 -0.0027 -0.0063 -0.0024
C7 0.0162 0.0234 0.0166 -0.0028 -0.0045 -0.0063
O4 0.0267 0.0242 0.0208 -0.0014 -0.0086 0.0016
C4 0.0308 0.0327 0.0256 0.0001 -0.0102 -0.0132
C5 0.0403 0.0338 0.0238 0.0057 -0.006 -0.0181
C15 0.0192 0.0186 0.0179 -0.0022 -0.0053 -0.003
O9 0.0238 0.0308 0.0245 -0.0115 0.0001 -0.01
O10 0.0219 0.032 0.0235 -0.0082 0.0013 -0.0122
O13 0.0257 0.043 0.0243 0.0058 -0.0055 0.003
Eu5 0.01496 0.0171 0.01328 -0.00155 -0.00354 -0.00308
Zn4 0.02167 0.02565 0.018 0.00099 -0.00901 -0.00249
C1 0.0214 0.0188 0.0196 -0.0025 -0.0065 -0.0011
C2 0.0216 0.0166 0.0157 -0.0032 -0.0065 -0.0006
C12 0.0336 0.0383 0.0174 -0.0062 -0.0009 -0.0024
C13 0.0317 0.0339 0.0147 0.0016 -0.0067 -0.0035
O1 0.0247 0.0355 0.0219 0.0031 -0.0107 -0.0087
O2 0.04 0.0343 0.0187 0.0038 -0.0119 -0.0168
O3 0.0272 0.029 0.021 -0.0096 -0.0062 -0.0019
Eu3 0.01496 0.0171 0.01328 -0.00155 -0.00354 -0.00308
Zn1 0.02167 0.02565 0.018 0.00099 -0.00901 -0.00249
N1 0.0271 0.0222 0.0173 -0.0019 -0.0085 -0.0032
N2 0.0222 0.0276 0.0154 0.0019 -0.006 -0.002
C6 0.0381 0.0261 0.0162 0.0034 -0.0089 -0.0079
C8 0.0172 0.0224 0.018 -0.0005 -0.0054 -0.0072
C9 0.019 0.0226 0.0158 -0.0003 -0.0049 -0.0043
C10 0.0201 0.021 0.0204 0.0015 -0.0061 -0.0047
C11 0.0238 0.0279 0.0247 -0.0065 -0.0033 0.0055
C14 0.0153 0.0227 0.0187 0.001 -0.0024 0.0007
O5 0.0175 0.0244 0.0171 0.0014 -0.0044 0.0005
O6 0.0194 0.0304 0.0146 0.0044 -0.004 -0.0018
O7 0.0325 0.0214 0.0305 0.0017 -0.0141 -0.0038
O8 0.029 0.0286 0.0285 0.0065 -0.0142 -0.0103
O11 0.0326 0.0545 0.0371 -0.0053 -0.0073 -0.0224
O12 0.0446 0.0371 0.0238 -0.0042 -0.0035 -0.0229
C16 0.0192 0.0186 0.0179 -0.0022 -0.0053 -0.003
O14 0.0238 0.0308 0.0245 -0.0115 0.0001 -0.01
O15 0.0219 0.032 0.0235 -0.0082 0.0013 -0.0122
N3 0.0271 0.0222 0.0173 -0.0019 -0.0085 -0.0032
N4 0.0222 0.0276 0.0154 0.0019 -0.006 -0.002
C22 0.0381 0.0261 0.0162 0.0034 -0.0089 -0.0079
C24 0.0172 0.0224 0.018 -0.0005 -0.0054 -0.0072
C25 0.019 0.0226 0.0158 -0.0003 -0.0049 -0.0043
C26 0.0201 0.021 0.0204 0.0015 -0.0061 -0.0047
C27 0.0238 0.0279 0.0247 -0.0065 -0.0033 0.0055
C30 0.0153 0.0227 0.0187 0.001 -0.0024 0.0007
O20 0.0175 0.0244 0.0171 0.0014 -0.0044 0.0005
O21 0.0194 0.0304 0.0146 0.0044 -0.004 -0.0018
O22 0.0325 0.0214 0.0305 0.0017 -0.0141 -0.0038
O23 0.029 0.0286 0.0285 0.0065 -0.0142 -0.0103
O24 0.0326 0.0545 0.0371 -0.0053 -0.0073 -0.0224
O25 0.0446 0.0371 0.0238 -0.0042 -0.0035 -0.0229
O28 0.0272 0.029 0.021 -0.0096 -0.0062 -0.0019
C17 0.0214 0.0188 0.0196 -0.0025 -0.0065 -0.0011
C18 0.0216 0.0166 0.0157 -0.0032 -0.0065 -0.0006
C28 0.0336 0.0383 0.0174 -0.0062 -0.0009 -0.0024
C29 0.0317 0.0339 0.0147 0.0016 -0.0067 -0.0035
O16 0.0247 0.0355 0.0219 0.0031 -0.0107 -0.0087
O17 0.04 0.0343 0.0187 0.0038 -0.0119 -0.0168
C20 0.0308 0.0327 0.0256 0.0001 -0.0102 -0.0132
C21 0.0403 0.0338 0.0238 0.0057 -0.006 -0.0181
O26 0.0257 0.043 0.0243 0.0058 -0.0055 0.003
O30 0.0267 0.0242 0.0208 -0.0014 -0.0086 0.0016
C19 0.0234 0.0164 0.0176 -0.0027 -0.0063 -0.0024
C23 0.0162 0.0234 0.0166 -0.0028 -0.0045 -0.0063
loop_
_geom_bond_atom_site_label_1
_geom_bond_atom_site_label_2
_geom_bond_site_symmetry_1
_geom_bond_site_symmetry_2
C7 C3 1_555 1_555
O4 C7 1_555 1_555
C5 C4 1_555 1_555
H2 C5 1_555 1_555
C15 O9 1_555 1_555
O10 C15 1_555 1_555
H12 O13 1_555 1_555
Eu5 O10 1_555 1_555
C1 C2 1_555 1_555
H5 C12 1_555 1_555
H6 C13 1_555 1_555
O2 C1 1_555 1_555
Eu3 O3 1_555 1_555
C1 O1 1_555 1_555
C12 C13 1_555 1_555
Eu3 O5 1_555 1_555
Zn1 N1 1_555 1_555
N2 Zn1 1_555 1_555
C6 N1 1_555 1_555
H3 C6 1_555 1_555
C8 C9 1_555 1_555
C9 N2 1_555 1_555
C10 C9 1_555 1_555
C11 C10 1_555 1_555
H4 C11 1_555 1_555
C14 C10 1_555 1_555
O5 Zn1 1_555 1_555
O6 Eu3 1_555 1_555
O7 C14 1_555 1_555
O8 C14 1_555 1_555
O11 Zn1 1_555 1_555
H7 O11 1_555 1_555
O12 Eu3 1_555 1_555
H9 O12 1_555 1_555
H10 O12 1_555 1_555
O14 C16 1_555 1_555
O15 Eu3 1_555 1_555
Eu5 O7 1_555 1_555
Zn4 N3 1_555 1_555
N4 Zn4 1_555 1_555
C22 N3 1_555 1_555
H15 C22 1_555 1_555
C24 C25 1_555 1_555
C25 N4 1_555 1_555
C26 C25 1_555 1_555
C27 C26 1_555 1_555
H16 C27 1_555 1_555
C30 C26 1_555 1_555
O20 Eu5 1_555 1_555
O21 Eu5 1_555 1_555
O22 Eu3 1_555 1_555
O23 Eu3 1_555 1_555
O24 Zn4 1_555 1_555
H19 O24 1_555 1_555
O25 Eu5 1_555 1_555
H21 O25 1_555 1_555
H22 O25 1_555 1_555
O28 Eu5 1_555 1_555
C8 O5 1_555 1_555
C8 O6 1_555 1_555
O8 Eu5 1_555 1_555
C16 O15 1_555 1_555
Zn4 O20 1_555 1_555
C24 O20 1_555 1_555
C24 O21 1_555 1_555
C30 O22 1_555 1_555
C30 O23 1_555 1_555
C17 C18 1_555 1_555
H17 C28 1_555 1_555
H18 C29 1_555 1_555
O17 C17 1_555 1_555
C17 O16 1_555 1_555
C28 C29 1_555 1_555
C21 C20 1_555 1_555
H14 C21 1_555 1_555
H24 O26 1_555 1_555
C23 C19 1_555 1_555
O30 C23 1_555 1_555

#END
