
###############################################################################
#
# This file contains modified crystal structure data generated from the
# MOF subset of the Cambridge Structural Database (CSD) v543 
# hosted by the Cambridge Crystallographic Data Centre (CCDC).
#
# This work is licensed under the Creative Commons
# Attribution-NonCommercial-ShareAlike 4.0 International License.
# To view a copy of this license, visit
# http://creativecommons.org/licenses/by-nc-sa/4.0/
# or send a letter to
# Creative Commons, PO Box 1866, Mountain View, CA 94042, USA.
#
# CIF created using the CSD Python API on 29 September 2022
# The structure has been converted into the P1 space group
# The structure has a 3D framework
# The original CSD entry YUKJOF is in the triclinic crystal system
# The framework has been calculated to contain at least 10.0% void space
# The void calculation uses a probe of radius 1.32A, grid spacing 0.4
#
###############################################################################

data_YUKJOF
_chemical_formula_moiety         '(C30 H24 N4 O24 Sm2 Zn2)n'
_symmetry_cell_setting           triclinic
_symmetry_space_group_name_H-M   'P 1'
_symmetry_Int_Tables_number      1
_space_group_name_Hall           'P 1'
loop_
_symmetry_equiv_pos_site_id
_symmetry_equiv_pos_as_xyz
1 x,y,z
_cell_length_a                   10.0243(9)
_cell_length_b                   10.6908(10)
_cell_length_c                   11.0053(10)
_cell_angle_alpha                80.4820(10)
_cell_angle_beta                 72.2410(10)
_cell_angle_gamma                74.5610(10)
_cell_volume                     1078.12
loop_
_atom_site_label
_atom_site_type_symbol
_atom_site_fract_x
_atom_site_fract_y
_atom_site_fract_z
_atom_site_U_iso_or_equiv
_atom_site_thermal_displace_type
Sm1 Sm 0.175420(15) 0.194911(14) 0.534460(13) 0.0145 Uani
Zn1 Zn 0.29255(4) 0.36789(4) 0.11603(4) 0.0212 Uani
N1 N 0.4776(3) 0.2048(3) 0.0696(3) 0.0226 Uani
N2 N 0.1311(3) 0.3026(3) 0.0752(3) 0.0209 Uani
C1 C 0.4054(3) 0.1693(3) 0.2998(3) 0.0177 Uani
C2 C 0.5142(3) 0.1363(3) 0.1732(3) 0.0186 Uani
C3 C 0.6390(4) 0.0373(3) 0.1649(3) 0.0202 Uani
C4 C 0.7242(4) 0.0070(4) 0.0421(4) 0.0288 Uani
C13 C 0.0377(4) 0.2396(4) 0.1583(3) 0.0264 Uani
H6 H 0.061(5) 0.202(4) 0.231(5) 0.0370 Uiso
O1 O 0.2929(2) 0.2594(2) 0.2961(2) 0.0201 Uani
O2 O 0.4242(2) 0.1056(2) 0.4002(2) 0.0230 Uani
O4 O 0.7553(3) 0.0109(2) 0.3309(2) 0.0277 Uani
O9 O 0.1621(3) 0.0350(2) 0.4040(2) 0.0251 Uani
H7 H 0.026(6) 0.402(4) 0.375(3) 0.0510 Uiso
O12 O 0.2682(3) 0.3909(3) 0.5205(3) 0.0347 Uani
H9 H 0.264(6) 0.412(5) 0.593(3) 0.0520 Uiso
H10 H 0.240(6) 0.325(3) 0.515(5) 0.0520 Uiso
O13 O 0.4071(3) 0.4933(3) 0.1383(3) 0.0386 Uani
H11 H 0.4976(14) 0.478(6) 0.125(6) 0.0580 Uiso
H12 H 0.364(6) 0.529(5) 0.207(3) 0.0580 Uiso
O28 O 0.3316(3) 0.1515(2) 0.6880(2) 0.0273 Uani
O31 O 0.0270(3) 0.3039(2) 0.7113(2) 0.0259 Uani
O34 O 0.1104(3) 0.5061(2) 0.2252(2) 0.0249 Uani
C5 C 0.6845(4) 0.0743(4) 0.9348(4) 0.0308 Uani
H2 H 0.739(5) 0.058(4) 0.852(5) 0.0360 Uiso
C6 C 0.5607(4) 0.1743(4) 0.9523(3) 0.0277 Uani
H3 H 0.536(4) 0.224(3) 0.886(4) 0.0110 Uiso
C8 C 0.2228(3) 0.4249(3) 0.8744(3) 0.0196 Uani
C9 C 0.1110(3) 0.3518(3) 0.9590(3) 0.0177 Uani
O5 O 0.3139(3) 0.4404(3) 0.9259(2) 0.0266 Uani
O6 O 0.2162(3) 0.4669(3) 0.7638(2) 0.0287 Uani
C26 C 0.0068(3) 0.6615(3) 0.0759(3) 0.0189 Uani
H16 H 0.190(6) 0.728(6) 0.008(5) 0.0590 Uiso
C30 C 0.0301(3) 0.6152(3) 0.2070(3) 0.0172 Uani
C11 C 0.8946(4) 0.2750(4) 0.0134(4) 0.0280 Uani
C12 C 0.9172(5) 0.2246(4) 0.1311(4) 0.0322 Uani
H5 H 0.859(6) 0.183(5) 0.190(5) 0.0460 Uiso
O11 O 0.9977(3) 0.3524(3) 0.4419(3) 0.0343 Uani
H8 H 0.920(3) 0.387(5) 0.494(4) 0.0510 Uiso
C16 C 0.9399(3) 0.0214(3) 0.5620(3) 0.0184 Uani
O15 O 0.9561(3) 0.1079(2) 0.6166(2) 0.0259 Uani
H13 H 0.198(5) 0.059(5) 0.961(4) 0.0360 Uiso
C23 C 0.3125(3) 0.0382(3) 0.7206(3) 0.0203 Uani
H1 H 0.802(5) 0.941(5) 0.039(4) 0.0360 Uiso
C7 C 0.6875(3) 0.9618(3) 0.2794(3) 0.0203 Uani
C15 C 0.0601(3) 0.9786(3) 0.4380(3) 0.0184 Uani
O3 O 0.6684(3) 0.8485(2) 0.3120(2) 0.0273 Uani
O10 O 0.0439(3) 0.8921(2) 0.3834(2) 0.0259 Uani
C27 C 0.1054(4) 0.7250(4) 0.9866(4) 0.0280 Uani
C28 C 0.0828(5) 0.7754(4) 0.8689(4) 0.0322 Uani
H17 H 0.141(6) 0.817(5) 0.810(5) 0.0460 Uiso
O24 O 0.0023(3) 0.6476(3) 0.5581(3) 0.0343 Uani
H20 H 0.080(3) 0.613(5) 0.506(4) 0.0510 Uiso
Sm6 Sm 0.824580(15) 0.805089(14) 0.465540(13) 0.0145 Uani
O30 O 0.2447(3) 0.9891(2) 0.6691(2) 0.0277 Uani
C10 C 0.9932(3) 0.3385(3) 0.9241(3) 0.0189 Uani
H4 H 0.810(6) 0.272(6) 0.992(5) 0.0590 Uiso
C14 C 0.9699(3) 0.3848(3) 0.7930(3) 0.0172 Uani
O8 O 0.8896(3) 0.4939(2) 0.7748(2) 0.0249 Uani
Zn4 Zn 0.70745(4) 0.63211(4) 0.88397(4) 0.0212 Uani
C21 C 0.3155(4) 0.9257(4) 0.0652(4) 0.0308 Uani
H14 H 0.261(5) 0.942(4) 0.148(5) 0.0360 Uiso
C22 C 0.4393(4) 0.8257(4) 0.0477(3) 0.0277 Uani
H15 H 0.464(4) 0.776(3) 0.114(4) 0.0110 Uiso
C24 C 0.7772(3) 0.5751(3) 0.1256(3) 0.0196 Uani
C25 C 0.8890(3) 0.6482(3) 0.0410(3) 0.0177 Uani
O20 O 0.6861(3) 0.5596(3) 0.0741(2) 0.0266 Uani
O21 O 0.7838(3) 0.5331(3) 0.2362(2) 0.0287 Uani
O22 O 0.9730(3) 0.6961(2) 0.2887(2) 0.0259 Uani
O14 O 0.8379(3) 0.9650(2) 0.5960(2) 0.0251 Uani
N3 N 0.5224(3) 0.7952(3) 0.9304(3) 0.0226 Uani
N4 N 0.8689(3) 0.6974(3) 0.9248(3) 0.0209 Uani
C17 C 0.5946(3) 0.8307(3) 0.7002(3) 0.0177 Uani
C18 C 0.4858(3) 0.8637(3) 0.8268(3) 0.0186 Uani
C19 C 0.3610(4) 0.9627(3) 0.8351(3) 0.0202 Uani
C20 C 0.2758(4) 0.9930(4) 0.9579(4) 0.0288 Uani
C29 C 0.9623(4) 0.7604(4) 0.8417(3) 0.0264 Uani
H18 H 0.939(5) 0.798(4) 0.769(5) 0.0370 Uiso
O16 O 0.7071(2) 0.7406(2) 0.7039(2) 0.0201 Uani
O17 O 0.5758(2) 0.8944(2) 0.5998(2) 0.0230 Uani
H19 H 0.974(6) 0.598(4) 0.625(3) 0.0510 Uiso
O25 O 0.7318(3) 0.6091(3) 0.4795(3) 0.0347 Uani
H21 H 0.736(6) 0.588(5) 0.407(3) 0.0520 Uiso
H22 H 0.760(6) 0.675(3) 0.485(5) 0.0520 Uiso
O26 O 0.5929(3) 0.5067(3) 0.8617(3) 0.0386 Uani
H23 H 0.5024(14) 0.522(6) 0.875(6) 0.0580 Uiso
H24 H 0.636(6) 0.471(5) 0.793(3) 0.0580 Uiso
loop_
_atom_site_aniso_label
_atom_site_aniso_U_11
_atom_site_aniso_U_22
_atom_site_aniso_U_33
_atom_site_aniso_U_23
_atom_site_aniso_U_13
_atom_site_aniso_U_12
Sm1 0.01455 0.01564 0.01303 -0.00404 -0.00387 -0.00132
Zn1 0.0213 0.0242 0.018 -0.00152 -0.00953 -0.00069
N1 0.0219 0.0267 0.016 -0.0011 -0.0062 0.0002
N2 0.0268 0.0205 0.0155 -0.0032 -0.0086 -0.0014
C1 0.0147 0.0204 0.0179 -0.0035 -0.0044 -0.0027
C2 0.0166 0.0219 0.016 -0.003 -0.0043 -0.0019
C3 0.0207 0.0204 0.0186 -0.0021 -0.0053 -0.0031
C4 0.0268 0.0278 0.0244 -0.007 -0.0036 0.0047
C13 0.039 0.0242 0.0168 0.0006 -0.0104 -0.0067
O1 0.0168 0.0226 0.0167 -0.002 -0.0037 0.0017
O2 0.0206 0.0291 0.0153 0.0002 -0.006 0.0009
O4 0.0289 0.0285 0.029 0.0041 -0.0149 -0.0083
O9 0.0226 0.0319 0.0225 -0.0102 0 -0.0116
O12 0.0478 0.0358 0.0267 -0.0088 -0.0051 -0.0223
O13 0.0313 0.0552 0.0358 -0.0099 -0.007 -0.0198
O28 0.0314 0.0216 0.0301 0.0006 -0.0144 -0.003
O31 0.0277 0.0291 0.0207 -0.0137 -0.0064 0.0003
O34 0.0284 0.0224 0.0207 -0.0037 -0.0092 0.0035
C5 0.033 0.035 0.0171 -0.008 -0.0011 0.0012
C6 0.0325 0.033 0.0146 -0.0013 -0.008 -0.0013
C8 0.0209 0.0188 0.0185 -0.0047 -0.0069 -0.0001
C9 0.0217 0.0157 0.0157 -0.005 -0.0077 0.0007
O5 0.0244 0.035 0.0229 0.0009 -0.0106 -0.0084
O6 0.0391 0.0332 0.018 0.0012 -0.0118 -0.0131
C26 0.0221 0.0153 0.0185 -0.0054 -0.0059 -0.0003
C30 0.0157 0.0197 0.0179 -0.0048 -0.0045 -0.0053
C11 0.0289 0.032 0.0267 -0.0006 -0.0093 -0.0122
C12 0.041 0.035 0.0228 0.0027 -0.0065 -0.0182
O11 0.0282 0.0411 0.0224 0.0039 -0.0063 0.0058
C16 0.0181 0.0197 0.0182 -0.0044 -0.0073 -0.0012
O15 0.0224 0.0311 0.0259 -0.016 -0.0008 -0.0076
C23 0.0153 0.0221 0.0189 -0.0026 -0.0032 0.0021
C7 0.0153 0.0221 0.0189 -0.0026 -0.0032 0.0021
C15 0.0181 0.0197 0.0182 -0.0044 -0.0073 -0.0012
O3 0.0314 0.0216 0.0301 0.0006 -0.0144 -0.003
O10 0.0224 0.0311 0.0259 -0.016 -0.0008 -0.0076
C27 0.0289 0.032 0.0267 -0.0006 -0.0093 -0.0122
C28 0.041 0.035 0.0228 0.0027 -0.0065 -0.0182
O24 0.0282 0.0411 0.0224 0.0039 -0.0063 0.0058
Sm6 0.01455 0.01564 0.01303 -0.00404 -0.00387 -0.00132
O30 0.0289 0.0285 0.029 0.0041 -0.0149 -0.0083
C10 0.0221 0.0153 0.0185 -0.0054 -0.0059 -0.0003
C14 0.0157 0.0197 0.0179 -0.0048 -0.0045 -0.0053
O8 0.0284 0.0224 0.0207 -0.0037 -0.0092 0.0035
Zn4 0.0213 0.0242 0.018 -0.00152 -0.00953 -0.00069
C21 0.033 0.035 0.0171 -0.008 -0.0011 0.0012
C22 0.0325 0.033 0.0146 -0.0013 -0.008 -0.0013
C24 0.0209 0.0188 0.0185 -0.0047 -0.0069 -0.0001
C25 0.0217 0.0157 0.0157 -0.005 -0.0077 0.0007
O20 0.0244 0.035 0.0229 0.0009 -0.0106 -0.0084
O21 0.0391 0.0332 0.018 0.0012 -0.0118 -0.0131
O22 0.0277 0.0291 0.0207 -0.0137 -0.0064 0.0003
O14 0.0226 0.0319 0.0225 -0.0102 0 -0.0116
N3 0.0219 0.0267 0.016 -0.0011 -0.0062 0.0002
N4 0.0268 0.0205 0.0155 -0.0032 -0.0086 -0.0014
C17 0.0147 0.0204 0.0179 -0.0035 -0.0044 -0.0027
C18 0.0166 0.0219 0.016 -0.003 -0.0043 -0.0019
C19 0.0207 0.0204 0.0186 -0.0021 -0.0053 -0.0031
C20 0.0268 0.0278 0.0244 -0.007 -0.0036 0.0047
C29 0.039 0.0242 0.0168 0.0006 -0.0104 -0.0067
O16 0.0168 0.0226 0.0167 -0.002 -0.0037 0.0017
O17 0.0206 0.0291 0.0153 0.0002 -0.006 0.0009
O25 0.0478 0.0358 0.0267 -0.0088 -0.0051 -0.0223
O26 0.0313 0.0552 0.0358 -0.0099 -0.007 -0.0198
loop_
_geom_bond_atom_site_label_1
_geom_bond_atom_site_label_2
_geom_bond_site_symmetry_1
_geom_bond_site_symmetry_2
Sm1 O1 1_555 1_555
Zn1 N1 1_555 1_555
N1 C2 1_555 1_555
N2 Zn1 1_555 1_555
C1 C2 1_555 1_555
C2 C3 1_555 1_555
C3 C4 1_555 1_555
C13 N2 1_555 1_555
H6 C13 1_555 1_555
O1 Zn1 1_555 1_555
O2 Sm1 1_555 1_555
O9 Sm1 1_555 1_555
O12 Sm1 1_555 1_555
H9 O12 1_555 1_555
H10 O12 1_555 1_555
O13 Zn1 1_555 1_555
H11 O13 1_555 1_555
H12 O13 1_555 1_555
O28 Sm1 1_555 1_555
O31 Sm1 1_555 1_555
O34 Zn1 1_555 1_555
C1 O1 1_555 1_555
C1 O2 1_555 1_555
H2 C5 1_555 1_555
H3 C6 1_555 1_555
C8 C9 1_555 1_555
O6 C8 1_555 1_555
C5 C6 1_555 1_555
C8 O5 1_555 1_555
C30 C26 1_555 1_555
O34 C30 1_555 1_555
C12 C11 1_555 1_555
H5 C12 1_555 1_555
H8 O11 1_555 1_555
O28 C23 1_555 1_555
C16 O15 1_555 1_555
O3 C7 1_555 1_555
O10 C15 1_555 1_555
C28 C27 1_555 1_555
H17 C28 1_555 1_555
H20 O24 1_555 1_555
Sm6 O3 1_555 1_555
C14 C10 1_555 1_555
O8 C14 1_555 1_555
Zn4 O8 1_555 1_555
H14 C21 1_555 1_555
H15 C22 1_555 1_555
C24 C25 1_555 1_555
O21 C24 1_555 1_555
Sm6 O22 1_555 1_555
C21 C22 1_555 1_555
C24 O20 1_555 1_555
Zn4 N3 1_555 1_555
N3 C18 1_555 1_555
N4 Zn4 1_555 1_555
C17 C18 1_555 1_555
C18 C19 1_555 1_555
C19 C20 1_555 1_555
C29 N4 1_555 1_555
H18 C29 1_555 1_555
O16 Sm6 1_555 1_555
O17 Sm6 1_555 1_555
O25 Sm6 1_555 1_555
H21 O25 1_555 1_555
H22 O25 1_555 1_555
O26 Zn4 1_555 1_555
H23 O26 1_555 1_555
H24 O26 1_555 1_555
O14 Sm6 1_555 1_555
Zn4 O16 1_555 1_555
C17 O16 1_555 1_555
C17 O17 1_555 1_555

#END
