
###############################################################################
#
# This file contains modified crystal structure data generated from the
# MOF subset of the Cambridge Structural Database (CSD) v543 
# hosted by the Cambridge Crystallographic Data Centre (CCDC).
#
# This work is licensed under the Creative Commons
# Attribution-NonCommercial-ShareAlike 4.0 International License.
# To view a copy of this license, visit
# http://creativecommons.org/licenses/by-nc-sa/4.0/
# or send a letter to
# Creative Commons, PO Box 1866, Mountain View, CA 94042, USA.
#
# CIF created using the CSD Python API on 29 September 2022
# The structure has been converted into the P1 space group
# The structure has a 3D framework
# The original CSD entry YUKKAR is in the monoclinic crystal system
# The framework has been calculated to contain at least 10.0% void space
# The void calculation uses a probe of radius 1.32A, grid spacing 0.4
#
###############################################################################

data_YUKKAR
_chemical_formula_moiety         '(C70 H40 Mn6 N6 O24 2+)n'
_symmetry_cell_setting           triclinic
_symmetry_space_group_name_H-M   'P 1'
_symmetry_Int_Tables_number      1
_space_group_name_Hall           'P 1'
loop_
_symmetry_equiv_pos_site_id
_symmetry_equiv_pos_as_xyz
1 x,y,z
_cell_length_a                   9.4700(16)
_cell_length_b                   17.125(3)
_cell_length_c                   12.7425(18)
_cell_angle_alpha                90
_cell_angle_beta                 95.697(13)
_cell_angle_gamma                90
_cell_volume                     2056.29
loop_
_atom_site_label
_atom_site_type_symbol
_atom_site_fract_x
_atom_site_fract_y
_atom_site_fract_z
Mn4 Mn -0.0000 0.34574(5) -0.0000
Mn5 Mn 0.0000 0.65426(5) -0.0000
Mn4_2 Mn 0.0000 0.34574(5) 1.0000
Mn5_2 Mn -0.0000 0.65426(5) 1.0000
Mn4_3 Mn 1.0000 0.34574(5) -0.0000
Mn5_3 Mn 1.0000 0.65426(5) -0.0000
Mn4_4 Mn 1.0000 0.34574(5) 1.0000
Mn5_4 Mn 1.0000 0.65426(5) 1.0000
O5 O 0.9408(3) 0.43537(16) 0.8877(3)
O6 O 0.9408(3) 0.56463(16) 0.8877(3)
N2 N 0.1868(5) 0.5000 0.7509(4)
C11 C 0.0402(7) 0.5000 0.5528(5)
C12 C 0.0770(8) 0.5681(3) 0.6064(4)
C13 C 0.0770(8) 0.4319(3) 0.6064(4)
H6 H 0.0525 0.3831 0.5742
H7 H 0.0525 0.6169 0.5742
C15 C 0.1479(7) 0.5666(3) 0.7049(4)
C16 C 0.1479(7) 0.4334(3) 0.7049(4)
H9 H 0.1697 0.3857 0.7410
H10 H 0.1697 0.6143 0.7410
C18 C 0.2645(6) 0.5000 0.8596(4)
C19 C 0.4233(5) 0.5000 0.8558(4)
C20 C 0.4962(4) 0.4303(2) 0.8575(4)
C21 C 0.4962(4) 0.5697(2) 0.8575(4)
H12 H 0.4456 0.6177 0.8557
H13 H 0.4456 0.3823 0.8557
C23 C 0.6439(4) 0.4299(2) 0.8619(4)
C24 C 0.6439(4) 0.5701(2) 0.8619(4)
H15 H 0.6935 0.6182 0.8613
H16 H 0.6935 0.3818 0.8613
C26 C 0.7187(5) 0.5000 0.8672(4)
C27 C 0.8775(5) 0.5000 0.8825(4)
H18 H 0.234(5) 0.550(3) 0.892(4)
H19 H 0.234(5) 0.450(3) 0.892(4)
O1 O 0.0592(3) 0.43537(16) 0.1123(3)
N1 N 0.8132(5) 0.5000 0.2491(4)
C1 C 0.9598(7) 0.5000 0.4472(5)
C2 C 0.9230(8) 0.5681(3) 0.3936(4)
H1 H 0.9475 0.6169 0.4258
C3 C 0.8521(7) 0.5666(3) 0.2951(4)
H2 H 0.8303 0.6143 0.2590
C4 C 0.7355(6) 0.5000 0.1404(4)
C5 C 0.5767(5) 0.5000 0.1442(4)
C6 C 0.5038(4) 0.4303(2) 0.1425(4)
H3 H 0.5544 0.3823 0.1443
C7 C 0.3561(4) 0.4299(2) 0.1381(4)
H4 H 0.3065 0.3818 0.1387
C8 C 0.2813(5) 0.5000 0.1328(4)
C9 C 0.1225(5) 0.5000 0.1175(4)
H5 H 0.766(5) 0.550(3) 0.108(4)
Mn3 Mn 0.5000 0.15426(5) 0.0000
Mn6 Mn 0.5000 0.84574(5) 0.0000
O4 O 0.0592(3) 0.56463(16) 0.1123(3)
O9 O 0.3205(3) 0.18130(17) 0.0915(3)
O13 O 0.3205(3) 0.81870(17) 0.0915(3)
O14 O 0.1305(3) 0.25735(17) 0.0946(3)
O17 O 0.1305(3) 0.74265(17) 0.0946(3)
C14 C 0.9230(8) 0.4319(3) 0.3936(4)
H8 H 0.9475 0.3831 0.4258
C17 C 0.8521(7) 0.4334(3) 0.2951(4)
H11 H 0.8303 0.3857 0.2590
C22 C 0.5038(4) 0.5697(2) 0.1425(4)
H14 H 0.5544 0.6177 0.1443
C25 C 0.3561(4) 0.5701(2) 0.1381(4)
H17 H 0.3065 0.6182 0.1387
C28 C 0.2359(4) 0.2323(2) 0.0531(4)
C30 C 0.2359(4) 0.7677(2) 0.0531(4)
H20 H 0.766(5) 0.450(3) 0.108(4)
O2 O 0.1795(3) 0.31870(17) 0.9085(3)
O3 O 0.3695(3) 0.24265(17) 0.9054(3)
C10 C 0.2641(4) 0.2677(2) 0.9469(4)
Mn3_2 Mn 0.5000 0.15426(5) 1.0000
Mn6_2 Mn 0.5000 0.84574(5) 1.0000
O11 O 0.1795(3) 0.68130(17) 0.9085(3)
O18 O 0.3695(3) 0.75735(17) 0.9054(3)
C29 C 0.2641(4) 0.7323(2) 0.9469(4)
O10 O 0.8205(3) 0.31870(17) 0.0915(3)
O12 O 0.8205(3) 0.68130(17) 0.0915(3)
O15 O 0.8695(3) 0.25735(17) 0.9054(3)
O16 O 0.8695(3) 0.74265(17) 0.9054(3)
O3_2 O 0.6305(3) 0.24265(17) 0.0946(3)
C10_2 C 0.7359(4) 0.2677(2) 0.0531(4)
O18_2 O 0.6305(3) 0.75735(17) 0.0946(3)
C29_2 C 0.7359(4) 0.7323(2) 0.0531(4)
O9_2 O 0.6795(3) 0.18130(17) 0.9085(3)
O13_2 O 0.6795(3) 0.81870(17) 0.9085(3)
C28_2 C 0.7641(4) 0.2323(2) 0.9469(4)
C30_2 C 0.7641(4) 0.7677(2) 0.9469(4)
O6_2 O 0.4408(3) 0.06463(16) 0.8877(3)
C24_2 C 0.1439(4) 0.0701(2) 0.8619(4)
H15_2 H 0.1935 0.1182 0.8613
C26_2 C 0.2187(5) -0.0000 0.8672(4)
C27_2 C 0.3775(5) -0.0000 0.8825(4)
O5_2 O 0.4408(3) 0.93537(16) 0.8877(3)
C23_2 C 0.1439(4) 0.9299(2) 0.8619(4)
H16_2 H 0.1935 0.8818 0.8613
C26_3 C 0.2187(5) 1.0000 0.8672(4)
C27_3 C 0.3775(5) 1.0000 0.8825(4)
N1_2 N 0.3132(5) 0.0000 0.2491(4)
C1_2 C 0.4598(7) 0.0000 0.4472(5)
C2_2 C 0.4230(8) 0.0681(3) 0.3936(4)
H1_2 H 0.4475 0.1169 0.4258
C3_2 C 0.3521(7) 0.0666(3) 0.2951(4)
H2_2 H 0.3303 0.1143 0.2590
C4_2 C 0.2355(6) -0.0000 0.1404(4)
C5_2 C 0.0767(5) 0.0000 0.1442(4)
H5_2 H 0.266(5) 0.050(3) 0.108(4)
N2_2 N 0.6868(5) -0.0000 0.7509(4)
C11_2 C 0.5402(7) -0.0000 0.5528(5)
C12_2 C 0.5770(8) 0.0681(3) 0.6064(4)
H7_2 H 0.5525 0.1169 0.5742
C15_2 C 0.6479(7) 0.0666(3) 0.7049(4)
H10_2 H 0.6697 0.1143 0.7410
C18_2 C 0.7645(6) -0.0000 0.8596(4)
C19_2 C 0.9233(5) -0.0000 0.8558(4)
C21_2 C 0.9962(4) 0.0697(2) 0.8575(4)
C22_2 C 0.0038(4) 0.0697(2) 0.1425(4)
H12_2 H 0.9456 0.1177 0.8557
H14_2 H 0.0544 0.1177 0.1443
H18_2 H 0.734(5) 0.050(3) 0.892(4)
N1_3 N 0.3132(5) 1.0000 0.2491(4)
C1_3 C 0.4598(7) 1.0000 0.4472(5)
C4_3 C 0.2355(6) 1.0000 0.1404(4)
C5_3 C 0.0767(5) 1.0000 0.1442(4)
C6_2 C 0.0038(4) 0.9303(2) 0.1425(4)
H3_2 H 0.0544 0.8823 0.1443
N2_3 N 0.6868(5) 1.0000 0.7509(4)
C11_3 C 0.5402(7) 1.0000 0.5528(5)
C13_2 C 0.5770(8) 0.9319(3) 0.6064(4)
C14_2 C 0.4230(8) 0.9319(3) 0.3936(4)
H6_2 H 0.5525 0.8831 0.5742
H8_2 H 0.4475 0.8831 0.4258
C16_2 C 0.6479(7) 0.9334(3) 0.7049(4)
C17_2 C 0.3521(7) 0.9334(3) 0.2951(4)
H9_2 H 0.6697 0.8857 0.7410
H11_2 H 0.3303 0.8857 0.2590
C18_3 C 0.7645(6) 1.0000 0.8596(4)
C19_3 C 0.9233(5) 1.0000 0.8558(4)
C20_2 C 0.9962(4) 0.9303(2) 0.8575(4)
H13_2 H 0.9456 0.8823 0.8557
H19_2 H 0.734(5) 0.950(3) 0.892(4)
H20_2 H 0.266(5) 0.950(3) 0.108(4)
C8_2 C 0.7813(5) -0.0000 0.1328(4)
C9_2 C 0.6225(5) 0.0000 0.1175(4)
O4_2 O 0.5592(3) 0.06463(16) 0.1123(3)
C25_2 C 0.8561(4) 0.0701(2) 0.1381(4)
H17_2 H 0.8065 0.1182 0.1387
O1_2 O 0.5592(3) 0.93537(16) 0.1123(3)
C7_2 C 0.8561(4) 0.9299(2) 0.1381(4)
H4_2 H 0.8065 0.8818 0.1387
C8_3 C 0.7813(5) 1.0000 0.1328(4)
C9_3 C 0.6225(5) 1.0000 0.1175(4)
loop_
_geom_bond_atom_site_label_1
_geom_bond_atom_site_label_2
_geom_bond_site_symmetry_1
_geom_bond_site_symmetry_2
Mn4_4 O5 1_555 1_555
Mn5_4 O6 1_555 1_555
O5 C27 1_555 1_555
O6 C27 1_555 1_555
N2 C15 1_555 1_555
C12 C11 1_555 1_555
C13 C11 1_555 1_555
H6 C13 1_555 1_555
H7 C12 1_555 1_555
C15 C12 1_555 1_555
C16 N2 1_555 1_555
H9 C16 1_555 1_555
H10 C15 1_555 1_555
C18 N2 1_555 1_555
C19 C18 1_555 1_555
C20 C19 1_555 1_555
C21 C19 1_555 1_555
H12 C21 1_555 1_555
H13 C20 1_555 1_555
C23 C20 1_555 1_555
C24 C21 1_555 1_555
H15 C24 1_555 1_555
H16 C23 1_555 1_555
C26 C23 1_555 1_555
C27 C26 1_555 1_555
H18 C18 1_555 1_555
H19 C18 1_555 1_555
C13 C16 1_555 1_555
C24 C26 1_555 1_555
Mn4 O1 1_555 1_555
O1 C9 1_555 1_555
N1 C3 1_555 1_555
C1 C2 1_555 1_555
C2 H1 1_555 1_555
C3 C2 1_555 1_555
H2 C3 1_555 1_555
C4 N1 1_555 1_555
C5 C4 1_555 1_555
C6 C5 1_555 1_555
H3 C6 1_555 1_555
C7 C6 1_555 1_555
H4 C7 1_555 1_555
C8 C7 1_555 1_555
C9 C8 1_555 1_555
H5 C4 1_555 1_555
Mn5 O4 1_555 1_555
Mn6 O13 1_555 1_555
O4 C9 1_555 1_555
O9 Mn3 1_555 1_555
O13 C30 1_555 1_555
O14 Mn4 1_555 1_555
O17 Mn5 1_555 1_555
C14 C1 1_555 1_555
H8 C14 1_555 1_555
C17 N1 1_555 1_555
H11 C17 1_555 1_555
C22 C5 1_555 1_555
H14 C22 1_555 1_555
C25 C8 1_555 1_555
H17 C25 1_555 1_555
C30 O17 1_555 1_555
H20 C4 1_555 1_555
O9 C28 1_555 1_555
O14 C28 1_555 1_555
C14 C17 1_555 1_555
C22 C25 1_555 1_555
O2 Mn4_2 1_555 1_555
O3 C10 1_555 1_555
C10 O2 1_555 1_555
Mn3_2 O3 1_555 1_555
O11 Mn5_2 1_555 1_555
O18 Mn6_2 1_555 1_555
C29 O11 1_555 1_555
O18 C29 1_555 1_555
O10 Mn4_3 1_555 1_555
O12 Mn5_3 1_555 1_555
O15 Mn4_4 1_555 1_555
O16 Mn5_4 1_555 1_555
O3_2 C10_2 1_555 1_555
C10_2 O10 1_555 1_555
Mn3 O3_2 1_555 1_555
O18_2 Mn6 1_555 1_555
C29_2 O12 1_555 1_555
O18_2 C29_2 1_555 1_555
Mn6_2 O13_2 1_555 1_555
O9_2 Mn3_2 1_555 1_555
O13_2 C30_2 1_555 1_555
C30_2 O16 1_555 1_555
O9_2 C28_2 1_555 1_555
O15 C28_2 1_555 1_555
Mn3_2 O6_2 1_555 1_555
O6_2 C27_2 1_555 1_555
H15_2 C24_2 1_555 1_555
C27_2 C26_2 1_555 1_555
C24_2 C26_2 1_555 1_555
Mn6_2 O5_2 1_555 1_555
O5_2 C27_3 1_555 1_555
H16_2 C23_2 1_555 1_555
C26_3 C23_2 1_555 1_555
C27_3 C26_3 1_555 1_555
N1_2 C3_2 1_555 1_555
C1_2 C2_2 1_555 1_555
C2_2 H1_2 1_555 1_555
C3_2 C2_2 1_555 1_555
H2_2 C3_2 1_555 1_555
C4_2 N1_2 1_555 1_555
C5_2 C4_2 1_555 1_555
H5_2 C4_2 1_555 1_555
N2_2 C15_2 1_555 1_555
C11_2 C1_2 1_555 1_555
C12_2 C11_2 1_555 1_555
H7_2 C12_2 1_555 1_555
C15_2 C12_2 1_555 1_555
H10_2 C15_2 1_555 1_555
C18_2 N2_2 1_555 1_555
C19_2 C18_2 1_555 1_555
C21_2 C19_2 1_555 1_555
C22_2 C5_2 1_555 1_555
H12_2 C21_2 1_555 1_555
H14_2 C22_2 1_555 1_555
H18_2 C18_2 1_555 1_555
C4_3 N1_3 1_555 1_555
C5_3 C4_3 1_555 1_555
C6_2 C5_3 1_555 1_555
H3_2 C6_2 1_555 1_555
C11_3 C1_3 1_555 1_555
C13_2 C11_3 1_555 1_555
C14_2 C1_3 1_555 1_555
H6_2 C13_2 1_555 1_555
H8_2 C14_2 1_555 1_555
C16_2 N2_3 1_555 1_555
C17_2 N1_3 1_555 1_555
H9_2 C16_2 1_555 1_555
H11_2 C17_2 1_555 1_555
C18_3 N2_3 1_555 1_555
C19_3 C18_3 1_555 1_555
C20_2 C19_3 1_555 1_555
H13_2 C20_2 1_555 1_555
H19_2 C18_3 1_555 1_555
H20_2 C4_3 1_555 1_555
C13_2 C16_2 1_555 1_555
C14_2 C17_2 1_555 1_555
C9_2 C8_2 1_555 1_555
Mn3 O4_2 1_555 1_555
O4_2 C9_2 1_555 1_555
C25_2 C8_2 1_555 1_555
H17_2 C25_2 1_555 1_555
Mn6 O1_2 1_555 1_555
O1_2 C9_3 1_555 1_555
H4_2 C7_2 1_555 1_555
C8_3 C7_2 1_555 1_555
C9_3 C8_3 1_555 1_555

#END
