
###############################################################################
#
# This file contains modified crystal structure data generated from the
# MOF subset of the Cambridge Structural Database (CSD) v543 
# hosted by the Cambridge Crystallographic Data Centre (CCDC).
#
# This work is licensed under the Creative Commons
# Attribution-NonCommercial-ShareAlike 4.0 International License.
# To view a copy of this license, visit
# http://creativecommons.org/licenses/by-nc-sa/4.0/
# or send a letter to
# Creative Commons, PO Box 1866, Mountain View, CA 94042, USA.
#
# CIF created using the CSD Python API on 29 September 2022
# The structure has been converted into the P1 space group
# The structure has a 3D framework
# The original CSD entry YUKLEY is in the monoclinic crystal system
# The framework has been calculated to contain at least 10.0% void space
# The void calculation uses a probe of radius 1.32A, grid spacing 0.4
# The framework is charged, counterions have been retained in the structure
# H atom positions have been added when not included in the experimental data
#
###############################################################################

data_YUKLEY
_chemical_formula_moiety         '(C416 H304 In8 N40 O60)n'
_symmetry_cell_setting           triclinic
_symmetry_space_group_name_H-M   'P 1'
_symmetry_Int_Tables_number      1
_space_group_name_Hall           'P 1'
loop_
_symmetry_equiv_pos_site_id
_symmetry_equiv_pos_as_xyz
1 x,y,z
_cell_length_a                   30.028(3)
_cell_length_b                   15.1160(17)
_cell_length_c                   32.922(3)
_cell_angle_alpha                90
_cell_angle_beta                 91.553(2)
_cell_angle_gamma                90
_cell_volume                     14937.9
loop_
_atom_site_label
_atom_site_type_symbol
_atom_site_fract_x
_atom_site_fract_y
_atom_site_fract_z
C1 C 0.2633(10) 0.236(2) 0.3078(9)
H1 H 0.2417 0.2577 0.2877
H2 H 0.2586 0.1727 0.3101
N1 N 0.3089(10) 0.250(2) 0.2912(9)
H3 H 0.3152 0.3079 0.2937
H4 H 0.3284 0.2207 0.3075
C2 C 0.3171(9) 0.227(2) 0.2531(9)
H5 H 0.2914 0.2428 0.2362
H6 H 0.3198 0.1628 0.2522
C3 C 0.3558(11) 0.264(2) 0.2357(10)
H7 H 0.3582 0.2437 0.2082
H8 H 0.3818 0.2464 0.2513
H9 H 0.3535 0.3275 0.2359
C4 C 0.2519(14) 0.276(3) 0.3479(12)
H10 H 0.2218 0.2616 0.3542
H11 H 0.2549 0.3396 0.3463
H12 H 0.2718 0.2541 0.3688
C1_2 C 0.7367(10) 0.236(2) 0.1922(9)
H1_2 H 0.7583 0.2577 0.2123
H2_2 H 0.7414 0.1727 0.1899
N1_2 N 0.6911(10) 0.250(2) 0.2088(9)
H3_2 H 0.6848 0.3079 0.2063
H4_2 H 0.6716 0.2207 0.1925
C2_2 C 0.6829(9) 0.227(2) 0.2469(9)
H5_2 H 0.7086 0.2428 0.2638
H6_2 H 0.6802 0.1628 0.2478
C3_2 C 0.6442(11) 0.264(2) 0.2643(10)
H7_2 H 0.6418 0.2437 0.2918
H8_2 H 0.6182 0.2464 0.2487
H9_2 H 0.6465 0.3275 0.2641
C4_2 C 0.7481(14) 0.276(3) 0.1521(12)
H10_2 H 0.7782 0.2616 0.1458
H11_2 H 0.7451 0.3396 0.1537
H12_2 H 0.7282 0.2541 0.1312
C1_3 C 0.7633(10) 0.736(2) 0.3078(9)
H1_3 H 0.7417 0.7577 0.2877
H2_3 H 0.7586 0.6727 0.3101
N1_3 N 0.8089(10) 0.750(2) 0.2912(9)
H3_3 H 0.8152 0.8079 0.2937
H4_3 H 0.8284 0.7207 0.3075
C2_3 C 0.8171(9) 0.727(2) 0.2531(9)
H5_3 H 0.7914 0.7428 0.2362
H6_3 H 0.8198 0.6628 0.2522
C3_3 C 0.8558(11) 0.764(2) 0.2357(10)
H7_3 H 0.8582 0.7437 0.2082
H8_3 H 0.8818 0.7464 0.2513
H9_3 H 0.8535 0.8275 0.2359
C4_3 C 0.7519(14) 0.776(3) 0.3479(12)
H10_3 H 0.7218 0.7616 0.3542
H11_3 H 0.7549 0.8396 0.3463
H12_3 H 0.7718 0.7541 0.3688
C1_4 C 0.2367(10) 0.736(2) 0.1922(9)
H1_4 H 0.2583 0.7577 0.2123
H2_4 H 0.2414 0.6727 0.1899
N1_4 N 0.1911(10) 0.750(2) 0.2088(9)
H3_4 H 0.1848 0.8079 0.2063
H4_4 H 0.1716 0.7207 0.1925
C2_4 C 0.1829(9) 0.727(2) 0.2469(9)
H5_4 H 0.2086 0.7428 0.2638
H6_4 H 0.1802 0.6628 0.2478
C3_4 C 0.1442(11) 0.764(2) 0.2643(10)
H7_4 H 0.1418 0.7437 0.2918
H8_4 H 0.1182 0.7464 0.2487
H9_4 H 0.1465 0.8275 0.2641
C4_4 C 0.2481(14) 0.776(3) 0.1521(12)
H10_4 H 0.2782 0.7616 0.1458
H11_4 H 0.2451 0.8396 0.1537
H12_4 H 0.2282 0.7541 0.1312
C1_5 C 0.7367(10) 0.764(2) 0.6922(9)
H1_5 H 0.7583 0.7423 0.7123
H2_5 H 0.7414 0.8273 0.6899
N1_5 N 0.6911(10) 0.750(2) 0.7088(9)
H3_5 H 0.6848 0.6921 0.7063
H4_5 H 0.6716 0.7793 0.6925
C2_5 C 0.6829(9) 0.773(2) 0.7469(9)
H5_5 H 0.7086 0.7572 0.7638
H6_5 H 0.6802 0.8372 0.7478
C3_5 C 0.6442(11) 0.736(2) 0.7643(10)
H7_5 H 0.6418 0.7563 0.7918
H8_5 H 0.6182 0.7536 0.7487
H9_5 H 0.6465 0.6725 0.7641
C4_5 C 0.7481(14) 0.724(3) 0.6521(12)
H10_5 H 0.7782 0.7384 0.6458
H11_5 H 0.7451 0.6604 0.6537
H12_5 H 0.7282 0.7459 0.6312
C1_6 C 0.2633(10) 0.764(2) 0.8078(9)
H1_6 H 0.2417 0.7423 0.7877
H2_6 H 0.2586 0.8273 0.8101
N1_6 N 0.3089(10) 0.750(2) 0.7912(9)
H3_6 H 0.3152 0.6921 0.7937
H4_6 H 0.3284 0.7793 0.8075
C2_6 C 0.3171(9) 0.773(2) 0.7531(9)
H5_6 H 0.2914 0.7572 0.7362
H6_6 H 0.3198 0.8372 0.7522
C3_6 C 0.3558(11) 0.736(2) 0.7357(10)
H7_6 H 0.3582 0.7563 0.7082
H8_6 H 0.3818 0.7536 0.7513
H9_6 H 0.3535 0.6725 0.7359
C4_6 C 0.2519(14) 0.724(3) 0.8479(12)
H10_6 H 0.2218 0.7384 0.8542
H11_6 H 0.2549 0.6604 0.8463
H12_6 H 0.2718 0.7459 0.8688
C1_7 C 0.2367(10) 0.264(2) 0.6922(9)
H1_7 H 0.2583 0.2423 0.7123
H2_7 H 0.2414 0.3273 0.6899
N1_7 N 0.1911(10) 0.250(2) 0.7088(9)
H3_7 H 0.1848 0.1921 0.7063
H4_7 H 0.1716 0.2793 0.6925
C2_7 C 0.1829(9) 0.273(2) 0.7469(9)
H5_7 H 0.2086 0.2572 0.7638
H6_7 H 0.1802 0.3372 0.7478
C3_7 C 0.1442(11) 0.236(2) 0.7643(10)
H7_7 H 0.1418 0.2563 0.7918
H8_7 H 0.1182 0.2536 0.7487
H9_7 H 0.1465 0.1725 0.7641
C4_7 C 0.2481(14) 0.224(3) 0.6521(12)
H10_7 H 0.2782 0.2384 0.6458
H11_7 H 0.2451 0.1604 0.6537
H12_7 H 0.2282 0.2459 0.6312
C1_8 C 0.7633(10) 0.264(2) 0.8078(9)
H1_8 H 0.7417 0.2423 0.7877
H2_8 H 0.7586 0.3273 0.8101
N1_8 N 0.8089(10) 0.250(2) 0.7912(9)
H3_8 H 0.8152 0.1921 0.7937
H4_8 H 0.8284 0.2793 0.8075
C2_8 C 0.8171(9) 0.273(2) 0.7531(9)
H5_8 H 0.7914 0.2572 0.7362
H6_8 H 0.8198 0.3372 0.7522
C3_8 C 0.8558(11) 0.236(2) 0.7357(10)
H7_8 H 0.8582 0.2563 0.7082
H8_8 H 0.8818 0.2536 0.7513
H9_8 H 0.8535 0.1725 0.7359
C4_8 C 0.7519(14) 0.224(3) 0.8479(12)
H10_8 H 0.7218 0.2384 0.8542
H11_8 H 0.7549 0.1604 0.8463
H12_8 H 0.7718 0.2459 0.8688
In1 In 0.29290(3) 0.52926(7) 0.27590(3)
C8 C 0.2333(5) 0.4517(12) 0.2287(5)
C11 C 0.1750(6) 0.3435(13) 0.0522(6)
H15 H 0.1967 0.3662 0.0700
C17 C 0.1810(5) 0.4698(12) 0.1679(5)
H19 H 0.1866 0.5303 0.1684
C25 C 0.1169(5) 0.3080(10) 0.1030(5)
C27 C 0.2008(5) 0.4150(12) 0.1971(5)
C28 C 0.0597(6) 0.2694(12) 0.1546(5)
H22 H 0.0736 0.2910 0.1782
C30 C 0.1655(5) 0.2909(11) 0.1656(5)
H24 H 0.1597 0.2305 0.1651
C31 C 0.1461(5) 0.3449(11) 0.1361(5)
C33 C 0.1933(4) 0.3251(10) 0.1954(4)
H25 H 0.2069 0.2878 0.2145
C37 C 0.1785(6) 0.3368(14) 0.0119(6)
C40 C 0.0199(6) 0.2314(12) 0.1515(5)
H29 H 0.0011 0.2216 0.1730
C43 C 0.1330(6) 0.3108(12) 0.0635(5)
C46 C 0.1539(6) 0.4353(12) 0.1389(5)
H33 H 0.1399 0.4729 0.1202
C48 C 0.0105(5) 0.2079(11) 0.1109(4)
C50 C 0.0773(5) 0.2707(11) 0.1143(5)
N3 N 0.1110(4) 0.2816(9) 0.0288(4)
N5 N 0.0457(4) 0.2329(9) 0.0881(4)
O1 O 0.2372(3) 0.5370(8) 0.2306(3)
O2 O 0.2568(3) 0.4031(7) 0.2509(3)
O9 O 0.3504(3) 0.5629(8) 0.3198(3)
O10 O 0.2475(3) 0.5068(8) 0.3291(3)
O11 O 0.2592(3) 0.6411(7) 0.3080(3)
O12 O 0.3404(3) 0.4957(8) 0.2271(3)
O13 O 0.3337(4) 0.4229(7) 0.3096(3)
O14 O 0.3249(3) 0.6357(7) 0.2363(3)
H37 H 0.0223217 0.181736 0.0258368
H38 H 0.080358 0.253251 0.0273
C13 C 0.2411(5) 0.4120(13) 0.8325(4)
C18 C 0.2141(5) 0.3760(12) 0.8655(5)
C19 C 0.0398(5) 0.1736(11) 0.8985(4)
H20 H 0.0250 0.1535 0.8751
C20 C 0.1278(5) 0.2804(12) 0.9565(5)
C22 C 0.1899(6) 0.4324(13) 0.8870(5)
H21 H 0.1920 0.4929 0.8823
C23 C 0.0244(5) 0.1652(11) 0.9388(4)
C36 C 0.1595(6) 0.3113(14) 0.9257(5)
H27 H 0.2026 0.3541 0.9966
C41 C 0.1865(7) 0.2547(14) 0.9041(6)
H30 H 0.1872 0.1947 0.9103
C44 C 0.0906(6) 0.2341(12) 0.9413(5)
C45 C 0.2122(6) 0.2870(13) 0.8737(6)
H32 H 0.2287 0.2479 0.8584
C47 C 0.1613(6) 0.4001(15) 0.9168(5)
H34 H 0.1433 0.4395 0.9306
C49 C 0.1376(5) 0.2975(12) 0.9970(5)
C51 C 0.0795(5) 0.2156(12) 0.8999(5)
H35 H 0.0966 0.2299 0.8777
N4 N 0.0566(4) 0.2019(9) 0.9649(4)
O4 O 0.2475(3) 0.4932(8) 0.8291(3)
O5 O 0.2592(3) 0.3589(7) 0.8080(3)
In3 In 0.29290(3) 0.47074(7) 0.77590(3)
C6 C 0.9285(6) 0.0820(12) 0.0005(6)
C9 C 0.8455(5) 0.0764(14) 0.2180(5)
C10 C 0.9317(6) 0.0544(13) 0.1381(6)
H14 H 0.9482 0.0092 0.1266
C12 C 0.9248(6) 0.0919(13) 0.0415(5)
H16 H 0.9013 0.0723 0.0570
C14 C 0.9015(5) 0.0341(12) 0.1673(5)
C24 C 0.9628(5) 0.1372(11) 0.0562(5)
C26 C 0.9714(5) 0.1628(12) 0.0964(5)
C32 C 0.8760(5) 0.0982(12) 0.1859(5)
C38 C 0.8814(6) 0.1845(13) 0.1730(5)
H28 H 0.8644 0.2297 0.1840
C39 C 0.9381(5) 0.1403(12) 0.1256(5)
C42 C 0.9126(6) 0.2036(13) 0.1430(6)
H31 H 0.9159 0.2620 0.1348
N2 N 0.9919(4) 0.1525(9) 0.0241(4)
O8 O 0.8249(3) 0.1357(7) 0.2363(3)
In2 In 0.79290(3) 0.02926(7) 0.27590(3)
C5 C 0.8569(5) 0.0173(13) 0.8275(5)
H13 H 0.9077 0.0558 0.9828
C7 C 0.9705(5) 0.1196(11) 0.9900(5)
C16 C 0.8916(5) 0.0451(12) 0.8581(5)
C21 C 0.9537(5) 0.0976(13) 0.9163(4)
C29 C 0.9003(6) 0.1348(13) 0.8645(5)
H23 H 0.8848 0.1774 0.8495
C34 C 0.9319(6) 0.1593(12) 0.8931(5)
H26 H 0.9385 0.2189 0.8967
C35 C 0.9857(5) 0.1270(11) 0.9503(5)
C52 C 0.9460(5) 0.0079(12) 0.9095(5)
O7 O 0.8337(4) 0.0771(7) 0.8096(3)
H17 H 0.8979 0.9753 0.1748
O6 O 0.8404(3) 0.9957(8) 0.2271(3)
C15 C 0.9162(5) 0.9824(11) 0.8803(5)
H18 H 0.9120 0.9225 0.8750
H36 H 0.9614 0.9657 0.9249
O3 O 0.8504(3) 0.9371(8) 0.8198(3)
In4 In 0.79290(3) 0.97074(7) 0.77590(3)
H19_2 H 0.6866 0.0303 0.1684
O1_2 O 0.7372(3) 0.0370(8) 0.2306(3)
O9_2 O 0.8504(3) 0.0629(8) 0.3198(3)
O10_2 O 0.7475(3) 0.0068(8) 0.3291(3)
O11_2 O 0.7592(3) 0.1411(7) 0.3080(3)
C6_2 C 0.4285(6) 0.5820(12) 0.0005(6)
C8_2 C 0.7333(5) 0.9517(12) 0.2287(5)
C9_2 C 0.3455(5) 0.5764(14) 0.2180(5)
C10_2 C 0.4317(6) 0.5544(13) 0.1381(6)
H14_2 H 0.4482 0.5092 0.1266
C11_2 C 0.6750(6) 0.8435(13) 0.0522(6)
H15_2 H 0.6967 0.8662 0.0700
C12_2 C 0.4248(6) 0.5919(13) 0.0415(5)
H16_2 H 0.4013 0.5723 0.0570
C14_2 C 0.4015(5) 0.5341(12) 0.1673(5)
H17_2 H 0.3979 0.4753 0.1748
C17_2 C 0.6810(5) 0.9698(12) 0.1679(5)
C24_2 C 0.4628(5) 0.6372(11) 0.0562(5)
C25_2 C 0.6169(5) 0.8080(10) 0.1030(5)
C26_2 C 0.4714(5) 0.6628(12) 0.0964(5)
C27_2 C 0.7008(5) 0.9150(12) 0.1971(5)
C28_2 C 0.5597(6) 0.7694(12) 0.1546(5)
H22_2 H 0.5736 0.7910 0.1782
C30_2 C 0.6655(5) 0.7909(11) 0.1656(5)
H24_2 H 0.6597 0.7305 0.1651
C31_2 C 0.6461(5) 0.8449(11) 0.1361(5)
C32_2 C 0.3760(5) 0.5982(12) 0.1859(5)
C33_2 C 0.6933(4) 0.8251(10) 0.1954(4)
H25_2 H 0.7069 0.7878 0.2145
C37_2 C 0.6785(6) 0.8368(14) 0.0119(6)
C38_2 C 0.3814(6) 0.6845(13) 0.1730(5)
H28_2 H 0.3644 0.7297 0.1840
C39_2 C 0.4381(5) 0.6403(12) 0.1256(5)
C40_2 C 0.5199(6) 0.7314(12) 0.1515(5)
H29_2 H 0.5011 0.7216 0.1730
C42_2 C 0.4126(6) 0.7036(13) 0.1430(6)
H31_2 H 0.4159 0.7620 0.1348
C43_2 C 0.6330(6) 0.8108(12) 0.0635(5)
C46_2 C 0.6539(6) 0.9353(12) 0.1389(5)
H33_2 H 0.6399 0.9729 0.1202
C48_2 C 0.5105(5) 0.7079(11) 0.1109(4)
C50_2 C 0.5773(5) 0.7707(11) 0.1143(5)
N2_2 N 0.4919(4) 0.6525(9) 0.0241(4)
N3_2 N 0.6110(4) 0.7816(9) 0.0288(4)
N5_2 N 0.5457(4) 0.7329(9) 0.0881(4)
O2_2 O 0.7568(3) 0.9031(7) 0.2509(3)
O13_2 O 0.8337(4) 0.9229(7) 0.3096(3)
H37_2 H 0.522322 0.681736 0.0258368
H38_2 H 0.580358 0.753251 0.0273
C5_2 C 0.3569(5) 0.5173(13) 0.8275(5)
H13_2 H 0.4077 0.5558 0.9828
C7_2 C 0.4705(5) 0.6196(11) 0.9900(5)
C13_2 C 0.7411(5) 0.9120(13) 0.8325(4)
C15_2 C 0.4162(5) 0.4824(11) 0.8803(5)
H18_2 H 0.4120 0.4225 0.8750
C16_2 C 0.3916(5) 0.5451(12) 0.8581(5)
C18_2 C 0.7141(5) 0.8760(12) 0.8655(5)
C19_2 C 0.5398(5) 0.6736(11) 0.8985(4)
H20_2 H 0.5250 0.6535 0.8751
C20_2 C 0.6278(5) 0.7804(12) 0.9565(5)
C21_2 C 0.4537(5) 0.5976(13) 0.9163(4)
C22_2 C 0.6899(6) 0.9324(13) 0.8870(5)
H21_2 H 0.6920 0.9929 0.8823
C23_2 C 0.5244(5) 0.6652(11) 0.9388(4)
C29_2 C 0.4003(6) 0.6348(13) 0.8645(5)
H23_2 H 0.3848 0.6774 0.8495
C34_2 C 0.4319(6) 0.6593(12) 0.8931(5)
H26_2 H 0.4385 0.7189 0.8967
C35_2 C 0.4857(5) 0.6270(11) 0.9503(5)
C36_2 C 0.6595(6) 0.8113(14) 0.9257(5)
H27_2 H 0.7026 0.8541 0.9966
C41_2 C 0.6865(7) 0.7547(14) 0.9041(6)
H30_2 H 0.6872 0.6947 0.9103
C44_2 C 0.5906(6) 0.7341(12) 0.9413(5)
C45_2 C 0.7122(6) 0.7870(13) 0.8737(6)
H32_2 H 0.7287 0.7479 0.8584
C47_2 C 0.6613(6) 0.9001(15) 0.9168(5)
H34_2 H 0.6433 0.9395 0.9306
C49_2 C 0.6376(5) 0.7975(12) 0.9970(5)
C51_2 C 0.5795(5) 0.7156(12) 0.8999(5)
H35_2 H 0.5966 0.7299 0.8777
C52_2 C 0.4460(5) 0.5079(12) 0.9095(5)
H36_2 H 0.4614 0.4657 0.9249
N4_2 N 0.5566(4) 0.7019(9) 0.9649(4)
O3_2 O 0.3504(3) 0.4371(8) 0.8198(3)
O4_2 O 0.7475(3) 0.9932(8) 0.8291(3)
O5_2 O 0.7592(3) 0.8589(7) 0.8080(3)
O7_2 O 0.3337(4) 0.5771(7) 0.8096(3)
C8_3 C 0.2333(5) 0.5483(12) 0.7287(5)
C11_3 C 0.1750(6) 0.6565(13) 0.5522(6)
H15_3 H 0.1967 0.6338 0.5700
C13_3 C 0.2411(5) 0.5880(13) 0.3325(4)
C17_3 C 0.1810(5) 0.5302(12) 0.6679(5)
H19_3 H 0.1866 0.4697 0.6684
C18_3 C 0.2141(5) 0.6240(12) 0.3655(5)
C19_3 C 0.0398(5) 0.8264(11) 0.3985(4)
H20_3 H 0.0250 0.8465 0.3751
C20_3 C 0.1278(5) 0.7196(12) 0.4565(5)
C22_3 C 0.1899(6) 0.5676(13) 0.3870(5)
H21_3 H 0.1920 0.5071 0.3823
C23_3 C 0.0244(5) 0.8348(11) 0.4388(4)
C25_3 C 0.1169(5) 0.6920(10) 0.6030(5)
C27_3 C 0.2008(5) 0.5850(12) 0.6971(5)
C28_3 C 0.0597(6) 0.7306(12) 0.6546(5)
H22_3 H 0.0736 0.7090 0.6782
C30_3 C 0.1655(5) 0.7091(11) 0.6656(5)
H24_3 H 0.1597 0.7695 0.6651
C31_3 C 0.1461(5) 0.6551(11) 0.6361(5)
C33_3 C 0.1933(4) 0.6749(10) 0.6954(4)
H25_3 H 0.2069 0.7122 0.7145
C36_3 C 0.1595(6) 0.6887(14) 0.4257(5)
C37_3 C 0.1785(6) 0.6632(14) 0.5119(6)
H27_3 H 0.2026 0.6459 0.4966
C40_3 C 0.0199(6) 0.7686(12) 0.6515(5)
H29_3 H 0.0011 0.7784 0.6730
C41_3 C 0.1865(7) 0.7453(14) 0.4041(6)
H30_3 H 0.1872 0.8053 0.4103
C43_3 C 0.1330(6) 0.6892(12) 0.5635(5)
C44_3 C 0.0906(6) 0.7659(12) 0.4413(5)
C45_3 C 0.2122(6) 0.7130(13) 0.3737(6)
H32_3 H 0.2287 0.7521 0.3584
C46_3 C 0.1539(6) 0.5647(12) 0.6389(5)
H33_3 H 0.1399 0.5271 0.6202
C47_3 C 0.1613(6) 0.5999(15) 0.4168(5)
H34_3 H 0.1433 0.5605 0.4306
C48_3 C 0.0105(5) 0.7921(11) 0.6109(4)
C49_3 C 0.1376(5) 0.7025(12) 0.4970(5)
C50_3 C 0.0773(5) 0.7293(11) 0.6143(5)
C51_3 C 0.0795(5) 0.7844(12) 0.3999(5)
H35_3 H 0.0966 0.7701 0.3777
N3_3 N 0.1110(4) 0.7184(9) 0.5288(4)
N4_3 N 0.0566(4) 0.7981(9) 0.4649(4)
N5_3 N 0.0457(4) 0.7671(9) 0.5881(4)
O1_3 O 0.2372(3) 0.4630(8) 0.7306(3)
O2_3 O 0.2568(3) 0.5969(7) 0.7509(3)
O12_2 O 0.3404(3) 0.5043(8) 0.7271(3)
O14_2 O 0.3249(3) 0.3643(7) 0.7363(3)
H37_3 H 0.0223217 0.818264 0.525837
H38_3 H 0.080358 0.746749 0.5273
H17_3 H 0.8979 0.0247 0.6748
C15_3 C 0.9162(5) 0.0176(11) 0.3803(5)
H18_3 H 0.9120 0.0775 0.3750
H36_3 H 0.9614 0.0343 0.4249
O6_2 O 0.8404(3) 0.0043(8) 0.7271(3)
C5_3 C 0.8569(5) 0.9827(13) 0.3275(5)
C6_3 C 0.9285(6) 0.9180(12) 0.5005(6)
H13_3 H 0.9077 0.9442 0.4828
C7_3 C 0.9705(5) 0.8804(11) 0.4900(5)
C9_3 C 0.8455(5) 0.9236(14) 0.7180(5)
C10_3 C 0.9317(6) 0.9456(13) 0.6381(6)
H14_3 H 0.9482 0.9908 0.6266
C12_3 C 0.9248(6) 0.9081(13) 0.5415(5)
H16_3 H 0.9013 0.9277 0.5570
C14_3 C 0.9015(5) 0.9659(12) 0.6673(5)
C16_3 C 0.8916(5) 0.9549(12) 0.3581(5)
C21_3 C 0.9537(5) 0.9024(13) 0.4163(4)
C24_3 C 0.9628(5) 0.8628(11) 0.5562(5)
C26_3 C 0.9714(5) 0.8372(12) 0.5964(5)
C29_3 C 0.9003(6) 0.8652(13) 0.3645(5)
H23_3 H 0.8848 0.8226 0.3495
C32_3 C 0.8760(5) 0.9018(12) 0.6859(5)
C34_3 C 0.9319(6) 0.8407(12) 0.3931(5)
H26_3 H 0.9385 0.7811 0.3967
C35_3 C 0.9857(5) 0.8730(11) 0.4503(5)
C38_3 C 0.8814(6) 0.8155(13) 0.6730(5)
H28_3 H 0.8644 0.7703 0.6840
C39_3 C 0.9381(5) 0.8597(12) 0.6256(5)
C42_3 C 0.9126(6) 0.7964(13) 0.6430(6)
H31_3 H 0.9159 0.7380 0.6348
C52_3 C 0.9460(5) 0.9921(12) 0.4095(5)
N2_3 N 0.9919(4) 0.8475(9) 0.5241(4)
O8_2 O 0.8249(3) 0.8643(7) 0.7363(3)
C5_4 C 0.3569(5) 0.4827(13) 0.3275(5)
C6_4 C 0.4285(6) 0.4180(12) 0.5005(6)
H13_4 H 0.4077 0.4442 0.4828
C7_4 C 0.4705(5) 0.3804(11) 0.4900(5)
C8_4 C 0.7333(5) 0.0483(12) 0.7287(5)
C9_4 C 0.3455(5) 0.4236(14) 0.7180(5)
C10_4 C 0.4317(6) 0.4456(13) 0.6381(6)
H14_4 H 0.4482 0.4908 0.6266
C11_4 C 0.6750(6) 0.1565(13) 0.5522(6)
H15_4 H 0.6967 0.1338 0.5700
C12_4 C 0.4248(6) 0.4081(13) 0.5415(5)
H16_4 H 0.4013 0.4277 0.5570
C13_4 C 0.7411(5) 0.0880(13) 0.3325(4)
C14_4 C 0.4015(5) 0.4659(12) 0.6673(5)
H17_4 H 0.3979 0.5247 0.6748
C15_4 C 0.4162(5) 0.5176(11) 0.3803(5)
H18_4 H 0.4120 0.5775 0.3750
C16_4 C 0.3916(5) 0.4549(12) 0.3581(5)
C17_4 C 0.6810(5) 0.0302(12) 0.6679(5)
C18_4 C 0.7141(5) 0.1240(12) 0.3655(5)
C19_4 C 0.5398(5) 0.3264(11) 0.3985(4)
H20_4 H 0.5250 0.3465 0.3751
C20_4 C 0.6278(5) 0.2196(12) 0.4565(5)
C21_4 C 0.4537(5) 0.4024(13) 0.4163(4)
C22_4 C 0.6899(6) 0.0676(13) 0.3870(5)
H21_4 H 0.6920 0.0071 0.3823
C23_4 C 0.5244(5) 0.3348(11) 0.4388(4)
C24_4 C 0.4628(5) 0.3628(11) 0.5562(5)
C25_4 C 0.6169(5) 0.1920(10) 0.6030(5)
C26_4 C 0.4714(5) 0.3372(12) 0.5964(5)
C27_4 C 0.7008(5) 0.0850(12) 0.6971(5)
C28_4 C 0.5597(6) 0.2306(12) 0.6546(5)
H22_4 H 0.5736 0.2090 0.6782
C29_4 C 0.4003(6) 0.3652(13) 0.3645(5)
H23_4 H 0.3848 0.3226 0.3495
C30_4 C 0.6655(5) 0.2091(11) 0.6656(5)
H24_4 H 0.6597 0.2695 0.6651
C31_4 C 0.6461(5) 0.1551(11) 0.6361(5)
C32_4 C 0.3760(5) 0.4018(12) 0.6859(5)
C33_4 C 0.6933(4) 0.1749(10) 0.6954(4)
H25_4 H 0.7069 0.2122 0.7145
C34_4 C 0.4319(6) 0.3407(12) 0.3931(5)
H26_4 H 0.4385 0.2811 0.3967
C35_4 C 0.4857(5) 0.3730(11) 0.4503(5)
C36_4 C 0.6595(6) 0.1887(14) 0.4257(5)
C37_4 C 0.6785(6) 0.1632(14) 0.5119(6)
H27_4 H 0.7026 0.1459 0.4966
C38_4 C 0.3814(6) 0.3155(13) 0.6730(5)
H28_4 H 0.3644 0.2703 0.6840
C39_4 C 0.4381(5) 0.3597(12) 0.6256(5)
C40_4 C 0.5199(6) 0.2686(12) 0.6515(5)
H29_4 H 0.5011 0.2784 0.6730
C41_4 C 0.6865(7) 0.2453(14) 0.4041(6)
H30_4 H 0.6872 0.3053 0.4103
C42_4 C 0.4126(6) 0.2964(13) 0.6430(6)
H31_4 H 0.4159 0.2380 0.6348
C43_4 C 0.6330(6) 0.1892(12) 0.5635(5)
C44_4 C 0.5906(6) 0.2659(12) 0.4413(5)
C45_4 C 0.7122(6) 0.2130(13) 0.3737(6)
H32_4 H 0.7287 0.2521 0.3584
C46_4 C 0.6539(6) 0.0647(12) 0.6389(5)
H33_4 H 0.6399 0.0271 0.6202
C47_4 C 0.6613(6) 0.0999(15) 0.4168(5)
H34_4 H 0.6433 0.0605 0.4306
C48_4 C 0.5105(5) 0.2921(11) 0.6109(4)
C49_4 C 0.6376(5) 0.2025(12) 0.4970(5)
C50_4 C 0.5773(5) 0.2293(11) 0.6143(5)
C51_4 C 0.5795(5) 0.2844(12) 0.3999(5)
H35_4 H 0.5966 0.2701 0.3777
C52_4 C 0.4460(5) 0.4921(12) 0.4095(5)
H36_4 H 0.4614 0.5343 0.4249
N2_4 N 0.4919(4) 0.3475(9) 0.5241(4)
N3_4 N 0.6110(4) 0.2184(9) 0.5288(4)
N4_4 N 0.5566(4) 0.2981(9) 0.4649(4)
N5_4 N 0.5457(4) 0.2671(9) 0.5881(4)
O2_4 O 0.7568(3) 0.0969(7) 0.7509(3)
H37_4 H 0.522322 0.318264 0.525837
H38_4 H 0.580358 0.246749 0.5273
H19_4 H 0.6866 0.9697 0.6684
O1_4 O 0.7372(3) 0.9630(8) 0.7306(3)
C5_5 C 0.1431(5) 0.0173(13) 0.6725(5)
C6_5 C 0.0715(6) 0.0820(12) 0.4995(6)
H13_5 H 0.0923 0.0558 0.5172
C7_5 C 0.0295(5) 0.1196(11) 0.5100(5)
C9_5 C 0.1545(5) 0.0764(14) 0.2820(5)
C10_5 C 0.0683(6) 0.0544(13) 0.3619(6)
H14_5 H 0.0518 0.0092 0.3734
C12_5 C 0.0752(6) 0.0919(13) 0.4585(5)
H16_5 H 0.0987 0.0723 0.4430
C14_5 C 0.0985(5) 0.0341(12) 0.3327(5)
C16_5 C 0.1084(5) 0.0451(12) 0.6419(5)
C21_5 C 0.0463(5) 0.0976(13) 0.5837(4)
C24_5 C 0.0372(5) 0.1372(11) 0.4438(5)
C26_5 C 0.0286(5) 0.1628(12) 0.4036(5)
C29_5 C 0.0997(6) 0.1348(13) 0.6355(5)
H23_5 H 0.1152 0.1774 0.6505
C32_5 C 0.1240(5) 0.0982(12) 0.3141(5)
C34_5 C 0.0681(6) 0.1593(12) 0.6069(5)
H26_5 H 0.0615 0.2189 0.6033
C35_5 C 0.0143(5) 0.1270(11) 0.5497(5)
C38_5 C 0.1186(6) 0.1845(13) 0.3270(5)
H28_5 H 0.1356 0.2297 0.3160
C39_5 C 0.0619(5) 0.1403(12) 0.3744(5)
C42_5 C 0.0874(6) 0.2036(13) 0.3570(6)
H31_5 H 0.0841 0.2620 0.3652
C52_5 C 0.0540(5) 0.0079(12) 0.5905(5)
N2_5 N 0.0081(4) 0.1525(9) 0.4759(4)
O7_3 O 0.1663(4) 0.0771(7) 0.6904(3)
O8_3 O 0.1751(3) 0.1357(7) 0.2637(3)
In2_2 In 0.20710(3) 0.02926(7) 0.22410(3)
H17_5 H 0.1021 0.9753 0.3252
C15_5 C 0.0838(5) 0.9824(11) 0.6197(5)
H18_5 H 0.0880 0.9225 0.6250
H36_5 H 0.0386 0.9657 0.5751
O3_3 O 0.1496(3) 0.9371(8) 0.6802(3)
O6_3 O 0.1596(3) 0.9957(8) 0.2729(3)
In4_2 In 0.20710(3) 0.97074(7) 0.72410(3)
In1_2 In 0.70710(3) 0.52926(7) 0.22410(3)
C8_5 C 0.7667(5) 0.4517(12) 0.2713(5)
C11_5 C 0.8250(6) 0.3435(13) 0.4478(6)
H15_5 H 0.8033 0.3662 0.4300
C13_5 C 0.7589(5) 0.4120(13) 0.6675(4)
C17_5 C 0.8190(5) 0.4698(12) 0.3321(5)
H19_5 H 0.8134 0.5303 0.3316
C18_5 C 0.7859(5) 0.3760(12) 0.6345(5)
C19_5 C 0.9602(5) 0.1736(11) 0.6015(4)
H20_5 H 0.9750 0.1535 0.6249
C20_5 C 0.8722(5) 0.2804(12) 0.5435(5)
C22_5 C 0.8101(6) 0.4324(13) 0.6130(5)
H21_5 H 0.8080 0.4929 0.6177
C23_5 C 0.9756(5) 0.1652(11) 0.5612(4)
C25_5 C 0.8831(5) 0.3080(10) 0.3970(5)
C27_5 C 0.7992(5) 0.4150(12) 0.3029(5)
C28_5 C 0.9403(6) 0.2694(12) 0.3454(5)
H22_5 H 0.9264 0.2910 0.3218
C30_5 C 0.8345(5) 0.2909(11) 0.3344(5)
H24_5 H 0.8403 0.2305 0.3349
C31_5 C 0.8539(5) 0.3449(11) 0.3639(5)
C33_5 C 0.8067(4) 0.3251(10) 0.3046(4)
H25_5 H 0.7931 0.2878 0.2855
C36_5 C 0.8405(6) 0.3113(14) 0.5743(5)
C37_5 C 0.8215(6) 0.3368(14) 0.4881(6)
H27_5 H 0.7974 0.3541 0.5034
C40_5 C 0.9801(6) 0.2314(12) 0.3485(5)
H29_5 H 0.9989 0.2216 0.3270
C41_5 C 0.8135(7) 0.2547(14) 0.5959(6)
H30_5 H 0.8128 0.1947 0.5897
C43_5 C 0.8670(6) 0.3108(12) 0.4365(5)
C44_5 C 0.9094(6) 0.2341(12) 0.5587(5)
C45_5 C 0.7878(6) 0.2870(13) 0.6263(6)
H32_5 H 0.7713 0.2479 0.6416
C46_5 C 0.8461(6) 0.4353(12) 0.3611(5)
H33_5 H 0.8601 0.4729 0.3798
C47_5 C 0.8387(6) 0.4001(15) 0.5832(5)
H34_5 H 0.8567 0.4395 0.5694
C48_5 C 0.9895(5) 0.2079(11) 0.3891(4)
C49_5 C 0.8624(5) 0.2975(12) 0.5030(5)
C50_5 C 0.9227(5) 0.2707(11) 0.3857(5)
C51_5 C 0.9205(5) 0.2156(12) 0.6001(5)
H35_5 H 0.9034 0.2299 0.6223
N3_5 N 0.8890(4) 0.2816(9) 0.4712(4)
N4_5 N 0.9434(4) 0.2019(9) 0.5351(4)
N5_5 N 0.9543(4) 0.2329(9) 0.4119(4)
O1_5 O 0.7628(3) 0.5370(8) 0.2694(3)
O2_5 O 0.7432(3) 0.4031(7) 0.2491(3)
O4_3 O 0.7525(3) 0.4932(8) 0.6709(3)
O5_3 O 0.7408(3) 0.3589(7) 0.6920(3)
In3_2 In 0.70710(3) 0.47074(7) 0.72410(3)
O9_3 O 0.6496(3) 0.5629(8) 0.1802(3)
O10_3 O 0.7525(3) 0.5068(8) 0.1709(3)
O11_3 O 0.7408(3) 0.6411(7) 0.1920(3)
O12_3 O 0.6596(3) 0.4957(8) 0.2729(3)
O13_3 O 0.6663(4) 0.4229(7) 0.1904(3)
O14_3 O 0.6751(3) 0.6357(7) 0.2637(3)
H37_5 H 0.977678 0.181736 0.474163
H38_5 H 0.919642 0.253251 0.4727
H19_6 H 0.3134 0.0303 0.3316
O1_6 O 0.2628(3) 0.0370(8) 0.2694(3)
O9_4 O 0.1496(3) 0.0629(8) 0.1802(3)
O10_4 O 0.2525(3) 0.0068(8) 0.1709(3)
O11_4 O 0.2408(3) 0.1411(7) 0.1920(3)
C5_6 C 0.6431(5) 0.5173(13) 0.6725(5)
C6_6 C 0.5715(6) 0.5820(12) 0.4995(6)
H13_6 H 0.5923 0.5558 0.5172
C7_6 C 0.5295(5) 0.6196(11) 0.5100(5)
C8_6 C 0.2667(5) 0.9517(12) 0.2713(5)
C9_6 C 0.6545(5) 0.5764(14) 0.2820(5)
C10_6 C 0.5683(6) 0.5544(13) 0.3619(6)
H14_6 H 0.5518 0.5092 0.3734
C11_6 C 0.3250(6) 0.8435(13) 0.4478(6)
H15_6 H 0.3033 0.8662 0.4300
C12_6 C 0.5752(6) 0.5919(13) 0.4585(5)
H16_6 H 0.5987 0.5723 0.4430
C13_6 C 0.2589(5) 0.9120(13) 0.6675(4)
C14_6 C 0.5985(5) 0.5341(12) 0.3327(5)
H17_6 H 0.6021 0.4753 0.3252
C15_6 C 0.5838(5) 0.4824(11) 0.6197(5)
H18_6 H 0.5880 0.4225 0.6250
C16_6 C 0.6084(5) 0.5451(12) 0.6419(5)
C17_6 C 0.3190(5) 0.9698(12) 0.3321(5)
C18_6 C 0.2859(5) 0.8760(12) 0.6345(5)
C19_6 C 0.4602(5) 0.6736(11) 0.6015(4)
H20_6 H 0.4750 0.6535 0.6249
C20_6 C 0.3722(5) 0.7804(12) 0.5435(5)
C21_6 C 0.5463(5) 0.5976(13) 0.5837(4)
C22_6 C 0.3101(6) 0.9324(13) 0.6130(5)
H21_6 H 0.3080 0.9929 0.6177
C23_6 C 0.4756(5) 0.6652(11) 0.5612(4)
C24_6 C 0.5372(5) 0.6372(11) 0.4438(5)
C25_6 C 0.3831(5) 0.8080(10) 0.3970(5)
C26_6 C 0.5286(5) 0.6628(12) 0.4036(5)
C27_6 C 0.2992(5) 0.9150(12) 0.3029(5)
C28_6 C 0.4403(6) 0.7694(12) 0.3454(5)
H22_6 H 0.4264 0.7910 0.3218
C29_6 C 0.5997(6) 0.6348(13) 0.6355(5)
H23_6 H 0.6152 0.6774 0.6505
C30_6 C 0.3345(5) 0.7909(11) 0.3344(5)
H24_6 H 0.3403 0.7305 0.3349
C31_6 C 0.3539(5) 0.8449(11) 0.3639(5)
C32_6 C 0.6240(5) 0.5982(12) 0.3141(5)
C33_6 C 0.3067(4) 0.8251(10) 0.3046(4)
H25_6 H 0.2931 0.7878 0.2855
C34_6 C 0.5681(6) 0.6593(12) 0.6069(5)
H26_6 H 0.5615 0.7189 0.6033
C35_6 C 0.5143(5) 0.6270(11) 0.5497(5)
C36_6 C 0.3405(6) 0.8113(14) 0.5743(5)
C37_6 C 0.3215(6) 0.8368(14) 0.4881(6)
H27_6 H 0.2974 0.8541 0.5034
C38_6 C 0.6186(6) 0.6845(13) 0.3270(5)
H28_6 H 0.6356 0.7297 0.3160
C39_6 C 0.5619(5) 0.6403(12) 0.3744(5)
C40_6 C 0.4801(6) 0.7314(12) 0.3485(5)
H29_6 H 0.4989 0.7216 0.3270
C41_6 C 0.3135(7) 0.7547(14) 0.5959(6)
H30_6 H 0.3128 0.6947 0.5897
C42_6 C 0.5874(6) 0.7036(13) 0.3570(6)
H31_6 H 0.5841 0.7620 0.3652
C43_6 C 0.3670(6) 0.8108(12) 0.4365(5)
C44_6 C 0.4094(6) 0.7341(12) 0.5587(5)
C45_6 C 0.2878(6) 0.7870(13) 0.6263(6)
H32_6 H 0.2713 0.7479 0.6416
C46_6 C 0.3461(6) 0.9353(12) 0.3611(5)
H33_6 H 0.3601 0.9729 0.3798
C47_6 C 0.3387(6) 0.9001(15) 0.5832(5)
H34_6 H 0.3567 0.9395 0.5694
C48_6 C 0.4895(5) 0.7079(11) 0.3891(4)
C49_6 C 0.3624(5) 0.7975(12) 0.5030(5)
C50_6 C 0.4227(5) 0.7707(11) 0.3857(5)
C51_6 C 0.4205(5) 0.7156(12) 0.6001(5)
H35_6 H 0.4034 0.7299 0.6223
C52_6 C 0.5540(5) 0.5079(12) 0.5905(5)
H36_6 H 0.5386 0.4657 0.5751
N2_6 N 0.5081(4) 0.6525(9) 0.4759(4)
N3_6 N 0.3890(4) 0.7816(9) 0.4712(4)
N4_6 N 0.4434(4) 0.7019(9) 0.5351(4)
N5_6 N 0.4543(4) 0.7329(9) 0.4119(4)
O2_6 O 0.2432(3) 0.9031(7) 0.2491(3)
O3_4 O 0.6496(3) 0.4371(8) 0.6802(3)
O4_4 O 0.2525(3) 0.9932(8) 0.6709(3)
O5_4 O 0.2408(3) 0.8589(7) 0.6920(3)
O7_4 O 0.6663(4) 0.5771(7) 0.6904(3)
O13_4 O 0.1663(4) 0.9229(7) 0.1904(3)
H37_6 H 0.477678 0.681736 0.474163
H38_6 H 0.419642 0.753251 0.4727
C15_7 C 0.0838(5) 0.0176(11) 0.1197(5)
H18_7 H 0.0880 0.0775 0.1250
H36_7 H 0.0386 0.0343 0.0751
H17_7 H 0.1021 0.0247 0.8252
O6_4 O 0.1596(3) 0.0043(8) 0.7729(3)
C5_7 C 0.1431(5) 0.9827(13) 0.1725(5)
H13_7 H 0.0923 0.9442 0.0172
C7_7 C 0.0295(5) 0.8804(11) 0.0100(5)
C16_7 C 0.1084(5) 0.9549(12) 0.1419(5)
C21_7 C 0.0463(5) 0.9024(13) 0.0837(4)
C29_7 C 0.0997(6) 0.8652(13) 0.1355(5)
H23_7 H 0.1152 0.8226 0.1505
C34_7 C 0.0681(6) 0.8407(12) 0.1069(5)
H26_7 H 0.0615 0.7811 0.1033
C35_7 C 0.0143(5) 0.8730(11) 0.0497(5)
C52_7 C 0.0540(5) 0.9921(12) 0.0905(5)
C6_7 C 0.0715(6) 0.9180(12) 0.9995(6)
C9_7 C 0.1545(5) 0.9236(14) 0.7820(5)
C10_7 C 0.0683(6) 0.9456(13) 0.8619(6)
H14_7 H 0.0518 0.9908 0.8734
C12_7 C 0.0752(6) 0.9081(13) 0.9585(5)
H16_7 H 0.0987 0.9277 0.9430
C14_7 C 0.0985(5) 0.9659(12) 0.8327(5)
C24_7 C 0.0372(5) 0.8628(11) 0.9438(5)
C26_7 C 0.0286(5) 0.8372(12) 0.9036(5)
C32_7 C 0.1240(5) 0.9018(12) 0.8141(5)
C38_7 C 0.1186(6) 0.8155(13) 0.8270(5)
H28_7 H 0.1356 0.7703 0.8160
C39_7 C 0.0619(5) 0.8597(12) 0.8744(5)
C42_7 C 0.0874(6) 0.7964(13) 0.8570(6)
H31_7 H 0.0841 0.7380 0.8652
N2_7 N 0.0081(4) 0.8475(9) 0.9759(4)
O8_4 O 0.1751(3) 0.8643(7) 0.7637(3)
C13_7 C 0.7589(5) 0.5880(13) 0.1675(4)
C18_7 C 0.7859(5) 0.6240(12) 0.1345(5)
C19_7 C 0.9602(5) 0.8264(11) 0.1015(4)
H20_7 H 0.9750 0.8465 0.1249
C20_7 C 0.8722(5) 0.7196(12) 0.0435(5)
C22_7 C 0.8101(6) 0.5676(13) 0.1130(5)
H21_7 H 0.8080 0.5071 0.1177
C23_7 C 0.9756(5) 0.8348(11) 0.0612(4)
C36_7 C 0.8405(6) 0.6887(14) 0.0743(5)
H27_7 H 0.7974 0.6459 0.0034
C41_7 C 0.8135(7) 0.7453(14) 0.0959(6)
H30_7 H 0.8128 0.8053 0.0897
C44_7 C 0.9094(6) 0.7659(12) 0.0587(5)
C45_7 C 0.7878(6) 0.7130(13) 0.1263(6)
H32_7 H 0.7713 0.7521 0.1416
C47_7 C 0.8387(6) 0.5999(15) 0.0832(5)
H34_7 H 0.8567 0.5605 0.0694
C49_7 C 0.8624(5) 0.7025(12) 0.0030(5)
C51_7 C 0.9205(5) 0.7844(12) 0.1001(5)
H35_7 H 0.9034 0.7701 0.1223
N4_7 N 0.9434(4) 0.7981(9) 0.0351(4)
C8_7 C 0.7667(5) 0.5483(12) 0.7713(5)
C11_7 C 0.8250(6) 0.6565(13) 0.9478(6)
H15_7 H 0.8033 0.6338 0.9300
C17_7 C 0.8190(5) 0.5302(12) 0.8321(5)
H19_7 H 0.8134 0.4697 0.8316
C25_7 C 0.8831(5) 0.6920(10) 0.8970(5)
C27_7 C 0.7992(5) 0.5850(12) 0.8029(5)
C28_7 C 0.9403(6) 0.7306(12) 0.8454(5)
H22_7 H 0.9264 0.7090 0.8218
C30_7 C 0.8345(5) 0.7091(11) 0.8344(5)
H24_7 H 0.8403 0.7695 0.8349
C31_7 C 0.8539(5) 0.6551(11) 0.8639(5)
C33_7 C 0.8067(4) 0.6749(10) 0.8046(4)
H25_7 H 0.7931 0.7122 0.7855
C37_7 C 0.8215(6) 0.6632(14) 0.9881(6)
C40_7 C 0.9801(6) 0.7686(12) 0.8485(5)
H29_7 H 0.9989 0.7784 0.8270
C43_7 C 0.8670(6) 0.6892(12) 0.9365(5)
C46_7 C 0.8461(6) 0.5647(12) 0.8611(5)
H33_7 H 0.8601 0.5271 0.8798
C48_7 C 0.9895(5) 0.7921(11) 0.8891(4)
C50_7 C 0.9227(5) 0.7293(11) 0.8857(5)
N3_7 N 0.8890(4) 0.7184(9) 0.9712(4)
N5_7 N 0.9543(4) 0.7671(9) 0.9119(4)
O1_7 O 0.7628(3) 0.4630(8) 0.7694(3)
O2_7 O 0.7432(3) 0.5969(7) 0.7491(3)
O12_4 O 0.6596(3) 0.5043(8) 0.7729(3)
O14_4 O 0.6751(3) 0.3643(7) 0.7637(3)
H37_7 H 0.977678 0.818264 0.974163
H38_7 H 0.919642 0.746749 0.9727
C5_8 C 0.6431(5) 0.4827(13) 0.1725(5)
H13_8 H 0.5923 0.4442 0.0172
C7_8 C 0.5295(5) 0.3804(11) 0.0100(5)
C13_8 C 0.2589(5) 0.0880(13) 0.1675(4)
C15_8 C 0.5838(5) 0.5176(11) 0.1197(5)
H18_8 H 0.5880 0.5775 0.1250
C16_8 C 0.6084(5) 0.4549(12) 0.1419(5)
C18_8 C 0.2859(5) 0.1240(12) 0.1345(5)
C19_8 C 0.4602(5) 0.3264(11) 0.1015(4)
H20_8 H 0.4750 0.3465 0.1249
C20_8 C 0.3722(5) 0.2196(12) 0.0435(5)
C21_8 C 0.5463(5) 0.4024(13) 0.0837(4)
C22_8 C 0.3101(6) 0.0676(13) 0.1130(5)
H21_8 H 0.3080 0.0071 0.1177
C23_8 C 0.4756(5) 0.3348(11) 0.0612(4)
C29_8 C 0.5997(6) 0.3652(13) 0.1355(5)
H23_8 H 0.6152 0.3226 0.1505
C34_8 C 0.5681(6) 0.3407(12) 0.1069(5)
H26_8 H 0.5615 0.2811 0.1033
C35_8 C 0.5143(5) 0.3730(11) 0.0497(5)
C36_8 C 0.3405(6) 0.1887(14) 0.0743(5)
H27_8 H 0.2974 0.1459 0.0034
C41_8 C 0.3135(7) 0.2453(14) 0.0959(6)
H30_8 H 0.3128 0.3053 0.0897
C44_8 C 0.4094(6) 0.2659(12) 0.0587(5)
C45_8 C 0.2878(6) 0.2130(13) 0.1263(6)
H32_8 H 0.2713 0.2521 0.1416
C47_8 C 0.3387(6) 0.0999(15) 0.0832(5)
H34_8 H 0.3567 0.0605 0.0694
C49_8 C 0.3624(5) 0.2025(12) 0.0030(5)
C51_8 C 0.4205(5) 0.2844(12) 0.1001(5)
H35_8 H 0.4034 0.2701 0.1223
C52_8 C 0.5540(5) 0.4921(12) 0.0905(5)
H36_8 H 0.5386 0.5343 0.0751
N4_8 N 0.4434(4) 0.2981(9) 0.0351(4)
C6_8 C 0.5715(6) 0.4180(12) 0.9995(6)
C8_8 C 0.2667(5) 0.0483(12) 0.7713(5)
C9_8 C 0.6545(5) 0.4236(14) 0.7820(5)
C10_8 C 0.5683(6) 0.4456(13) 0.8619(6)
H14_8 H 0.5518 0.4908 0.8734
C11_8 C 0.3250(6) 0.1565(13) 0.9478(6)
H15_8 H 0.3033 0.1338 0.9300
C12_8 C 0.5752(6) 0.4081(13) 0.9585(5)
H16_8 H 0.5987 0.4277 0.9430
C14_8 C 0.5985(5) 0.4659(12) 0.8327(5)
H17_8 H 0.6021 0.5247 0.8252
C17_8 C 0.3190(5) 0.0302(12) 0.8321(5)
C24_8 C 0.5372(5) 0.3628(11) 0.9438(5)
C25_8 C 0.3831(5) 0.1920(10) 0.8970(5)
C26_8 C 0.5286(5) 0.3372(12) 0.9036(5)
C27_8 C 0.2992(5) 0.0850(12) 0.8029(5)
C28_8 C 0.4403(6) 0.2306(12) 0.8454(5)
H22_8 H 0.4264 0.2090 0.8218
C30_8 C 0.3345(5) 0.2091(11) 0.8344(5)
H24_8 H 0.3403 0.2695 0.8349
C31_8 C 0.3539(5) 0.1551(11) 0.8639(5)
C32_8 C 0.6240(5) 0.4018(12) 0.8141(5)
C33_8 C 0.3067(4) 0.1749(10) 0.8046(4)
H25_8 H 0.2931 0.2122 0.7855
C37_8 C 0.3215(6) 0.1632(14) 0.9881(6)
C38_8 C 0.6186(6) 0.3155(13) 0.8270(5)
H28_8 H 0.6356 0.2703 0.8160
C39_8 C 0.5619(5) 0.3597(12) 0.8744(5)
C40_8 C 0.4801(6) 0.2686(12) 0.8485(5)
H29_8 H 0.4989 0.2784 0.8270
C42_8 C 0.5874(6) 0.2964(13) 0.8570(6)
H31_8 H 0.5841 0.2380 0.8652
C43_8 C 0.3670(6) 0.1892(12) 0.9365(5)
C46_8 C 0.3461(6) 0.0647(12) 0.8611(5)
H33_8 H 0.3601 0.0271 0.8798
C48_8 C 0.4895(5) 0.2921(11) 0.8891(4)
C50_8 C 0.4227(5) 0.2293(11) 0.8857(5)
N2_8 N 0.5081(4) 0.3475(9) 0.9759(4)
N3_8 N 0.3890(4) 0.2184(9) 0.9712(4)
N5_8 N 0.4543(4) 0.2671(9) 0.9119(4)
O2_8 O 0.2432(3) 0.0969(7) 0.7491(3)
H37_8 H 0.477678 0.318264 0.974163
H38_8 H 0.419642 0.246749 0.9727
H19_8 H 0.3134 0.9697 0.8316
O1_8 O 0.2628(3) 0.9630(8) 0.7694(3)
loop_
_geom_bond_atom_site_label_1
_geom_bond_atom_site_label_2
_geom_bond_site_symmetry_1
_geom_bond_site_symmetry_2
C1 H1 1_555 1_555
H2 C1 1_555 1_555
N1 C1 1_555 1_555
H3 N1 1_555 1_555
H4 N1 1_555 1_555
C2 N1 1_555 1_555
H5 C2 1_555 1_555
H6 C2 1_555 1_555
C3 C2 1_555 1_555
H7 C3 1_555 1_555
H8 C3 1_555 1_555
H9 C3 1_555 1_555
C4 C1 1_555 1_555
H10 C4 1_555 1_555
H11 C4 1_555 1_555
H12 C4 1_555 1_555
C1_2 H1_2 1_555 1_555
H2_2 C1_2 1_555 1_555
N1_2 C1_2 1_555 1_555
H3_2 N1_2 1_555 1_555
H4_2 N1_2 1_555 1_555
C2_2 N1_2 1_555 1_555
H5_2 C2_2 1_555 1_555
H6_2 C2_2 1_555 1_555
C3_2 C2_2 1_555 1_555
H7_2 C3_2 1_555 1_555
H8_2 C3_2 1_555 1_555
H9_2 C3_2 1_555 1_555
C4_2 C1_2 1_555 1_555
H10_2 C4_2 1_555 1_555
H11_2 C4_2 1_555 1_555
H12_2 C4_2 1_555 1_555
C1_3 H1_3 1_555 1_555
H2_3 C1_3 1_555 1_555
N1_3 C1_3 1_555 1_555
H3_3 N1_3 1_555 1_555
H4_3 N1_3 1_555 1_555
C2_3 N1_3 1_555 1_555
H5_3 C2_3 1_555 1_555
H6_3 C2_3 1_555 1_555
C3_3 C2_3 1_555 1_555
H7_3 C3_3 1_555 1_555
H8_3 C3_3 1_555 1_555
H9_3 C3_3 1_555 1_555
C4_3 C1_3 1_555 1_555
H10_3 C4_3 1_555 1_555
H11_3 C4_3 1_555 1_555
H12_3 C4_3 1_555 1_555
C1_4 H1_4 1_555 1_555
H2_4 C1_4 1_555 1_555
N1_4 C1_4 1_555 1_555
H3_4 N1_4 1_555 1_555
H4_4 N1_4 1_555 1_555
C2_4 N1_4 1_555 1_555
H5_4 C2_4 1_555 1_555
H6_4 C2_4 1_555 1_555
C3_4 C2_4 1_555 1_555
H7_4 C3_4 1_555 1_555
H8_4 C3_4 1_555 1_555
H9_4 C3_4 1_555 1_555
C4_4 C1_4 1_555 1_555
H10_4 C4_4 1_555 1_555
H11_4 C4_4 1_555 1_555
H12_4 C4_4 1_555 1_555
C1_5 H1_5 1_555 1_555
H2_5 C1_5 1_555 1_555
N1_5 C1_5 1_555 1_555
H3_5 N1_5 1_555 1_555
H4_5 N1_5 1_555 1_555
C2_5 N1_5 1_555 1_555
H5_5 C2_5 1_555 1_555
H6_5 C2_5 1_555 1_555
C3_5 C2_5 1_555 1_555
H7_5 C3_5 1_555 1_555
H8_5 C3_5 1_555 1_555
H9_5 C3_5 1_555 1_555
C4_5 C1_5 1_555 1_555
H10_5 C4_5 1_555 1_555
H11_5 C4_5 1_555 1_555
H12_5 C4_5 1_555 1_555
C1_6 H1_6 1_555 1_555
H2_6 C1_6 1_555 1_555
N1_6 C1_6 1_555 1_555
H3_6 N1_6 1_555 1_555
H4_6 N1_6 1_555 1_555
C2_6 N1_6 1_555 1_555
H5_6 C2_6 1_555 1_555
H6_6 C2_6 1_555 1_555
C3_6 C2_6 1_555 1_555
H7_6 C3_6 1_555 1_555
H8_6 C3_6 1_555 1_555
H9_6 C3_6 1_555 1_555
C4_6 C1_6 1_555 1_555
H10_6 C4_6 1_555 1_555
H11_6 C4_6 1_555 1_555
H12_6 C4_6 1_555 1_555
C1_7 H1_7 1_555 1_555
H2_7 C1_7 1_555 1_555
N1_7 C1_7 1_555 1_555
H3_7 N1_7 1_555 1_555
H4_7 N1_7 1_555 1_555
C2_7 N1_7 1_555 1_555
H5_7 C2_7 1_555 1_555
H6_7 C2_7 1_555 1_555
C3_7 C2_7 1_555 1_555
H7_7 C3_7 1_555 1_555
H8_7 C3_7 1_555 1_555
H9_7 C3_7 1_555 1_555
C4_7 C1_7 1_555 1_555
H10_7 C4_7 1_555 1_555
H11_7 C4_7 1_555 1_555
H12_7 C4_7 1_555 1_555
C1_8 H1_8 1_555 1_555
H2_8 C1_8 1_555 1_555
N1_8 C1_8 1_555 1_555
H3_8 N1_8 1_555 1_555
H4_8 N1_8 1_555 1_555
C2_8 N1_8 1_555 1_555
H5_8 C2_8 1_555 1_555
H6_8 C2_8 1_555 1_555
C3_8 C2_8 1_555 1_555
H7_8 C3_8 1_555 1_555
H8_8 C3_8 1_555 1_555
H9_8 C3_8 1_555 1_555
C4_8 C1_8 1_555 1_555
H10_8 C4_8 1_555 1_555
H11_8 C4_8 1_555 1_555
H12_8 C4_8 1_555 1_555
In1 O1 1_555 1_555
C8 C27 1_555 1_555
C11 H15 1_555 1_555
C17 H19 1_555 1_555
C25 C31 1_555 1_555
C27 C17 1_555 1_555
C28 H22 1_555 1_555
C30 H24 1_555 1_555
C31 C30 1_555 1_555
C33 C27 1_555 1_555
H25 C33 1_555 1_555
C37 C11 1_555 1_555
C40 C28 1_555 1_555
H29 C40 1_555 1_555
C43 C11 1_555 1_555
C46 C17 1_555 1_555
H33 C46 1_555 1_555
C50 C25 1_555 1_555
N3 C43 1_555 1_555
N5 C48 1_555 1_555
O1 C8 1_555 1_555
O2 In1 1_555 1_555
O9 In1 1_555 1_555
O10 In1 1_555 1_555
O11 In1 1_555 1_555
O12 In1 1_555 1_555
O13 In1 1_555 1_555
O14 In1 1_555 1_555
C8 O2 1_555 1_555
C25 C43 1_555 1_555
C28 C50 1_555 1_555
C30 C33 1_555 1_555
C31 C46 1_555 1_555
C40 C48 1_555 1_555
C50 N5 1_555 1_555
N3 H38 1_555 1_555
C13 C18 1_555 1_555
C18 C22 1_555 1_555
C19 H20 1_555 1_555
C20 C36 1_555 1_555
C22 H21 1_555 1_555
C23 C19 1_555 1_555
C36 C41 1_555 1_555
C41 H30 1_555 1_555
C44 C20 1_555 1_555
C45 C18 1_555 1_555
H32 C45 1_555 1_555
C47 C22 1_555 1_555
H34 C47 1_555 1_555
C49 C20 1_555 1_555
C51 C19 1_555 1_555
H35 C51 1_555 1_555
N4 C23 1_555 1_555
O4 C13 1_555 1_555
O5 C13 1_555 1_555
In3 O4 1_555 1_555
C36 C47 1_555 1_555
C41 C45 1_555 1_555
C44 C51 1_555 1_555
C44 N4 1_555 1_555
O5 In3 1_555 1_555
C9 C32 1_555 1_555
C10 H14 1_555 1_555
C12 C6 1_555 1_555
H16 C12 1_555 1_555
C14 C10 1_555 1_555
C24 C12 1_555 1_555
C26 C24 1_555 1_555
C32 C14 1_555 1_555
C38 C32 1_555 1_555
H28 C38 1_555 1_555
C39 C10 1_555 1_555
C42 C38 1_555 1_555
H31 C42 1_555 1_555
O8 C9 1_555 1_555
C24 N2 1_555 1_555
C26 C39 1_555 1_555
C39 C42 1_555 1_555
O8 In2 1_555 1_555
C5 C16 1_555 1_555
C21 C34 1_555 1_555
C29 C16 1_555 1_555
H23 C29 1_555 1_555
C34 C29 1_555 1_555
H26 C34 1_555 1_555
C35 C7 1_555 1_555
O7 C5 1_555 1_555
C21 C35 1_555 1_555
C21 C52 1_555 1_555
C15 H18 1_555 1_555
In4 O3 1_555 1_555
In2 O1_2 1_555 1_555
O9_2 In2 1_555 1_555
O10_2 In2 1_555 1_555
O11_2 In2 1_555 1_555
C8_2 C27_2 1_555 1_555
C9_2 C32_2 1_555 1_555
C10_2 H14_2 1_555 1_555
C11_2 H15_2 1_555 1_555
C12_2 C6_2 1_555 1_555
H16_2 C12_2 1_555 1_555
C14_2 C10_2 1_555 1_555
H17_2 C14_2 1_555 1_555
C24_2 C12_2 1_555 1_555
C25_2 C31_2 1_555 1_555
C26_2 C24_2 1_555 1_555
C27_2 C17_2 1_555 1_555
C28_2 H22_2 1_555 1_555
C30_2 H24_2 1_555 1_555
C31_2 C30_2 1_555 1_555
C32_2 C14_2 1_555 1_555
C33_2 C27_2 1_555 1_555
H25_2 C33_2 1_555 1_555
C37_2 C11_2 1_555 1_555
C38_2 C32_2 1_555 1_555
H28_2 C38_2 1_555 1_555
C39_2 C10_2 1_555 1_555
C40_2 C28_2 1_555 1_555
H29_2 C40_2 1_555 1_555
C42_2 C38_2 1_555 1_555
H31_2 C42_2 1_555 1_555
C43_2 C11_2 1_555 1_555
C46_2 C17_2 1_555 1_555
H33_2 C46_2 1_555 1_555
C48_2 C26_2 1_555 1_555
C50_2 C25_2 1_555 1_555
N3_2 C43_2 1_555 1_555
N5_2 C48_2 1_555 1_555
O12 C9_2 1_555 1_555
O14 C9_2 1_555 1_555
C8_2 O2_2 1_555 1_555
C24_2 N2_2 1_555 1_555
C25_2 C43_2 1_555 1_555
C26_2 C39_2 1_555 1_555
C28_2 C50_2 1_555 1_555
C30_2 C33_2 1_555 1_555
C31_2 C46_2 1_555 1_555
C39_2 C42_2 1_555 1_555
C40_2 C48_2 1_555 1_555
C50_2 N5_2 1_555 1_555
N2_2 H37_2 1_555 1_555
N3_2 H38_2 1_555 1_555
C5_2 C16_2 1_555 1_555
C13_2 C18_2 1_555 1_555
C15_2 H18_2 1_555 1_555
C16_2 C15_2 1_555 1_555
C18_2 C22_2 1_555 1_555
C19_2 H20_2 1_555 1_555
C20_2 C36_2 1_555 1_555
C21_2 C34_2 1_555 1_555
C22_2 H21_2 1_555 1_555
C23_2 C19_2 1_555 1_555
C29_2 C16_2 1_555 1_555
H23_2 C29_2 1_555 1_555
C34_2 C29_2 1_555 1_555
H26_2 C34_2 1_555 1_555
C35_2 C7_2 1_555 1_555
C36_2 C41_2 1_555 1_555
C41_2 H30_2 1_555 1_555
C44_2 C20_2 1_555 1_555
C45_2 C18_2 1_555 1_555
H32_2 C45_2 1_555 1_555
C47_2 C22_2 1_555 1_555
H34_2 C47_2 1_555 1_555
C49_2 C20_2 1_555 1_555
C51_2 C19_2 1_555 1_555
H35_2 C51_2 1_555 1_555
C52_2 C15_2 1_555 1_555
H36_2 C52_2 1_555 1_555
N4_2 C23_2 1_555 1_555
O3_2 C5_2 1_555 1_555
O4_2 C13_2 1_555 1_555
O5_2 C13_2 1_555 1_555
O7_2 C5_2 1_555 1_555
In4 O4_2 1_555 1_555
In3 O3_2 1_555 1_555
C21_2 C35_2 1_555 1_555
C21_2 C52_2 1_555 1_555
C23_2 C35_2 1_555 1_555
C36_2 C47_2 1_555 1_555
C41_2 C45_2 1_555 1_555
C44_2 C51_2 1_555 1_555
C44_2 N4_2 1_555 1_555
O5_2 In4 1_555 1_555
O7_2 In3 1_555 1_555
In3 O1_3 1_555 1_555
C8_3 C27_3 1_555 1_555
C11_3 H15_3 1_555 1_555
C13_3 C18_3 1_555 1_555
C17_3 H19_3 1_555 1_555
C18_3 C22_3 1_555 1_555
C19_3 H20_3 1_555 1_555
C20_3 C36_3 1_555 1_555
C22_3 H21_3 1_555 1_555
C23_3 C19_3 1_555 1_555
C25_3 C31_3 1_555 1_555
C27_3 C17_3 1_555 1_555
C28_3 H22_3 1_555 1_555
C30_3 H24_3 1_555 1_555
C31_3 C30_3 1_555 1_555
C33_3 C27_3 1_555 1_555
H25_3 C33_3 1_555 1_555
C36_3 C41_3 1_555 1_555
C37_3 C11_3 1_555 1_555
H27_3 C37_3 1_555 1_555
C40_3 C28_3 1_555 1_555
H29_3 C40_3 1_555 1_555
C41_3 H30_3 1_555 1_555
C43_3 C11_3 1_555 1_555
C44_3 C20_3 1_555 1_555
C45_3 C18_3 1_555 1_555
H32_3 C45_3 1_555 1_555
C46_3 C17_3 1_555 1_555
H33_3 C46_3 1_555 1_555
C47_3 C22_3 1_555 1_555
H34_3 C47_3 1_555 1_555
C49_3 C20_3 1_555 1_555
C50_3 C25_3 1_555 1_555
C51_3 C19_3 1_555 1_555
H35_3 C51_3 1_555 1_555
N3_3 C43_3 1_555 1_555
N4_3 C23_3 1_555 1_555
N5_3 C48_3 1_555 1_555
O1_3 C8_3 1_555 1_555
O2_3 In3 1_555 1_555
O10 C13_3 1_555 1_555
O11 C13_3 1_555 1_555
O12_2 In3 1_555 1_555
O14_2 In3 1_555 1_555
C8_3 O2_3 1_555 1_555
C25_3 C43_3 1_555 1_555
C28_3 C50_3 1_555 1_555
C30_3 C33_3 1_555 1_555
C31_3 C46_3 1_555 1_555
C36_3 C47_3 1_555 1_555
C37_3 C49_3 1_555 1_555
C40_3 C48_3 1_555 1_555
C41_3 C45_3 1_555 1_555
C44_3 C51_3 1_555 1_555
C44_3 N4_3 1_555 1_555
C49_3 N3_3 1_555 1_555
C50_3 N5_3 1_555 1_555
N3_3 H38_3 1_555 1_555
C15_3 H18_3 1_555 1_555
C5_3 C16_3 1_555 1_555
C6_3 H13_3 1_555 1_555
C7_3 C6_3 1_555 1_555
C9_3 C32_3 1_555 1_555
C10_3 H14_3 1_555 1_555
C12_3 C6_3 1_555 1_555
H16_3 C12_3 1_555 1_555
C14_3 C10_3 1_555 1_555
C21_3 C34_3 1_555 1_555
C24_3 C12_3 1_555 1_555
C26_3 C24_3 1_555 1_555
C29_3 C16_3 1_555 1_555
H23_3 C29_3 1_555 1_555
C32_3 C14_3 1_555 1_555
C34_3 C29_3 1_555 1_555
H26_3 C34_3 1_555 1_555
C35_3 C7_3 1_555 1_555
C38_3 C32_3 1_555 1_555
H28_3 C38_3 1_555 1_555
C39_3 C10_3 1_555 1_555
C42_3 C38_3 1_555 1_555
H31_3 C42_3 1_555 1_555
N2_3 C7_3 1_555 1_555
O13_2 C5_3 1_555 1_555
O8_2 C9_3 1_555 1_555
C21_3 C35_3 1_555 1_555
C21_3 C52_3 1_555 1_555
C24_3 N2_3 1_555 1_555
C26_3 C39_3 1_555 1_555
C39_3 C42_3 1_555 1_555
O8_2 In4 1_555 1_555
C5_4 C16_4 1_555 1_555
C6_4 H13_4 1_555 1_555
C7_4 C6_4 1_555 1_555
C8_4 C27_4 1_555 1_555
C9_4 C32_4 1_555 1_555
C10_4 H14_4 1_555 1_555
C11_4 H15_4 1_555 1_555
C12_4 C6_4 1_555 1_555
H16_4 C12_4 1_555 1_555
C13_4 C18_4 1_555 1_555
C14_4 C10_4 1_555 1_555
H17_4 C14_4 1_555 1_555
C15_4 H18_4 1_555 1_555
C16_4 C15_4 1_555 1_555
C18_4 C22_4 1_555 1_555
C19_4 H20_4 1_555 1_555
C20_4 C36_4 1_555 1_555
C21_4 C34_4 1_555 1_555
C22_4 H21_4 1_555 1_555
C23_4 C19_4 1_555 1_555
C24_4 C12_4 1_555 1_555
C25_4 C31_4 1_555 1_555
C26_4 C24_4 1_555 1_555
C27_4 C17_4 1_555 1_555
C28_4 H22_4 1_555 1_555
C29_4 C16_4 1_555 1_555
H23_4 C29_4 1_555 1_555
C30_4 H24_4 1_555 1_555
C31_4 C30_4 1_555 1_555
C32_4 C14_4 1_555 1_555
C33_4 C27_4 1_555 1_555
H25_4 C33_4 1_555 1_555
C34_4 C29_4 1_555 1_555
H26_4 C34_4 1_555 1_555
C35_4 C7_4 1_555 1_555
C36_4 C41_4 1_555 1_555
C37_4 C11_4 1_555 1_555
H27_4 C37_4 1_555 1_555
C38_4 C32_4 1_555 1_555
H28_4 C38_4 1_555 1_555
C39_4 C10_4 1_555 1_555
C40_4 C28_4 1_555 1_555
H29_4 C40_4 1_555 1_555
C41_4 H30_4 1_555 1_555
C42_4 C38_4 1_555 1_555
H31_4 C42_4 1_555 1_555
C43_4 C11_4 1_555 1_555
C44_4 C20_4 1_555 1_555
C45_4 C18_4 1_555 1_555
H32_4 C45_4 1_555 1_555
C46_4 C17_4 1_555 1_555
H33_4 C46_4 1_555 1_555
C47_4 C22_4 1_555 1_555
H34_4 C47_4 1_555 1_555
C48_4 C26_4 1_555 1_555
C49_4 C20_4 1_555 1_555
C50_4 C25_4 1_555 1_555
C51_4 C19_4 1_555 1_555
H35_4 C51_4 1_555 1_555
C52_4 C15_4 1_555 1_555
H36_4 C52_4 1_555 1_555
N2_4 C7_4 1_555 1_555
N3_4 C43_4 1_555 1_555
N4_4 C23_4 1_555 1_555
N5_4 C48_4 1_555 1_555
O9 C5_4 1_555 1_555
O10_2 C13_4 1_555 1_555
O11_2 C13_4 1_555 1_555
O12_2 C9_4 1_555 1_555
O13 C5_4 1_555 1_555
O14_2 C9_4 1_555 1_555
C8_4 O2_4 1_555 1_555
C21_4 C35_4 1_555 1_555
C21_4 C52_4 1_555 1_555
C23_4 C35_4 1_555 1_555
C24_4 N2_4 1_555 1_555
C25_4 C43_4 1_555 1_555
C26_4 C39_4 1_555 1_555
C28_4 C50_4 1_555 1_555
C30_4 C33_4 1_555 1_555
C31_4 C46_4 1_555 1_555
C36_4 C47_4 1_555 1_555
C37_4 C49_4 1_555 1_555
C39_4 C42_4 1_555 1_555
C40_4 C48_4 1_555 1_555
C41_4 C45_4 1_555 1_555
C44_4 C51_4 1_555 1_555
C44_4 N4_4 1_555 1_555
C49_4 N3_4 1_555 1_555
C50_4 N5_4 1_555 1_555
N2_4 H37_4 1_555 1_555
N3_4 H38_4 1_555 1_555
In4 O1_4 1_555 1_555
C5_5 C16_5 1_555 1_555
C6_5 H13_5 1_555 1_555
C7_5 C6_5 1_555 1_555
C9_5 C32_5 1_555 1_555
C10_5 H14_5 1_555 1_555
C12_5 C6_5 1_555 1_555
H16_5 C12_5 1_555 1_555
C14_5 C10_5 1_555 1_555
C21_5 C34_5 1_555 1_555
C24_5 C12_5 1_555 1_555
C26_5 C24_5 1_555 1_555
C29_5 C16_5 1_555 1_555
H23_5 C29_5 1_555 1_555
C32_5 C14_5 1_555 1_555
C34_5 C29_5 1_555 1_555
H26_5 C34_5 1_555 1_555
C35_5 C7_5 1_555 1_555
C38_5 C32_5 1_555 1_555
H28_5 C38_5 1_555 1_555
C39_5 C10_5 1_555 1_555
C42_5 C38_5 1_555 1_555
H31_5 C42_5 1_555 1_555
N2_5 C7_5 1_555 1_555
O7_3 C5_5 1_555 1_555
O8_3 C9_5 1_555 1_555
C21_5 C35_5 1_555 1_555
C21_5 C52_5 1_555 1_555
C24_5 N2_5 1_555 1_555
C26_5 C39_5 1_555 1_555
C39_5 C42_5 1_555 1_555
O8_3 In2_2 1_555 1_555
C15_5 H18_5 1_555 1_555
In4_2 O3_3 1_555 1_555
In1_2 O1_5 1_555 1_555
C8_5 C27_5 1_555 1_555
C11_5 H15_5 1_555 1_555
C13_5 C18_5 1_555 1_555
C17_5 H19_5 1_555 1_555
C18_5 C22_5 1_555 1_555
C19_5 H20_5 1_555 1_555
C20_5 C36_5 1_555 1_555
C22_5 H21_5 1_555 1_555
C23_5 C19_5 1_555 1_555
C25_5 C31_5 1_555 1_555
C27_5 C17_5 1_555 1_555
C28_5 H22_5 1_555 1_555
C30_5 H24_5 1_555 1_555
C31_5 C30_5 1_555 1_555
C33_5 C27_5 1_555 1_555
H25_5 C33_5 1_555 1_555
C36_5 C41_5 1_555 1_555
C37_5 C11_5 1_555 1_555
H27_5 C37_5 1_555 1_555
C40_5 C28_5 1_555 1_555
H29_5 C40_5 1_555 1_555
C41_5 H30_5 1_555 1_555
C43_5 C11_5 1_555 1_555
C44_5 C20_5 1_555 1_555
C45_5 C18_5 1_555 1_555
H32_5 C45_5 1_555 1_555
C46_5 C17_5 1_555 1_555
H33_5 C46_5 1_555 1_555
C47_5 C22_5 1_555 1_555
H34_5 C47_5 1_555 1_555
C49_5 C20_5 1_555 1_555
C50_5 C25_5 1_555 1_555
C51_5 C19_5 1_555 1_555
H35_5 C51_5 1_555 1_555
N3_5 C43_5 1_555 1_555
N4_5 C23_5 1_555 1_555
N5_5 C48_5 1_555 1_555
O1_5 C8_5 1_555 1_555
O2_5 In1_2 1_555 1_555
O4_3 C13_5 1_555 1_555
O5_3 C13_5 1_555 1_555
In3_2 O4_3 1_555 1_555
O9_3 In1_2 1_555 1_555
O10_3 In1_2 1_555 1_555
O11_3 In1_2 1_555 1_555
O12_3 In1_2 1_555 1_555
O13_3 In1_2 1_555 1_555
O14_3 In1_2 1_555 1_555
C8_5 O2_5 1_555 1_555
C25_5 C43_5 1_555 1_555
C28_5 C50_5 1_555 1_555
C30_5 C33_5 1_555 1_555
C31_5 C46_5 1_555 1_555
C36_5 C47_5 1_555 1_555
C37_5 C49_5 1_555 1_555
C40_5 C48_5 1_555 1_555
C41_5 C45_5 1_555 1_555
C44_5 C51_5 1_555 1_555
C44_5 N4_5 1_555 1_555
C49_5 N3_5 1_555 1_555
C50_5 N5_5 1_555 1_555
O5_3 In3_2 1_555 1_555
N3_5 H38_5 1_555 1_555
In2_2 O1_6 1_555 1_555
O9_4 In2_2 1_555 1_555
O10_4 In2_2 1_555 1_555
O11_4 In2_2 1_555 1_555
C5_6 C16_6 1_555 1_555
C6_6 H13_6 1_555 1_555
C7_6 C6_6 1_555 1_555
C8_6 C27_6 1_555 1_555
C9_6 C32_6 1_555 1_555
C10_6 H14_6 1_555 1_555
C11_6 H15_6 1_555 1_555
C12_6 C6_6 1_555 1_555
H16_6 C12_6 1_555 1_555
C13_6 C18_6 1_555 1_555
C14_6 C10_6 1_555 1_555
H17_6 C14_6 1_555 1_555
C15_6 H18_6 1_555 1_555
C16_6 C15_6 1_555 1_555
C18_6 C22_6 1_555 1_555
C19_6 H20_6 1_555 1_555
C20_6 C36_6 1_555 1_555
C21_6 C34_6 1_555 1_555
C22_6 H21_6 1_555 1_555
C23_6 C19_6 1_555 1_555
C24_6 C12_6 1_555 1_555
C25_6 C31_6 1_555 1_555
C26_6 C24_6 1_555 1_555
C27_6 C17_6 1_555 1_555
C28_6 H22_6 1_555 1_555
C29_6 C16_6 1_555 1_555
H23_6 C29_6 1_555 1_555
C30_6 H24_6 1_555 1_555
C31_6 C30_6 1_555 1_555
C32_6 C14_6 1_555 1_555
C33_6 C27_6 1_555 1_555
H25_6 C33_6 1_555 1_555
C34_6 C29_6 1_555 1_555
H26_6 C34_6 1_555 1_555
C35_6 C7_6 1_555 1_555
C36_6 C41_6 1_555 1_555
C37_6 C11_6 1_555 1_555
H27_6 C37_6 1_555 1_555
C38_6 C32_6 1_555 1_555
H28_6 C38_6 1_555 1_555
C39_6 C10_6 1_555 1_555
C40_6 C28_6 1_555 1_555
H29_6 C40_6 1_555 1_555
C41_6 H30_6 1_555 1_555
C42_6 C38_6 1_555 1_555
H31_6 C42_6 1_555 1_555
C43_6 C11_6 1_555 1_555
C44_6 C20_6 1_555 1_555
C45_6 C18_6 1_555 1_555
H32_6 C45_6 1_555 1_555
C46_6 C17_6 1_555 1_555
H33_6 C46_6 1_555 1_555
C47_6 C22_6 1_555 1_555
H34_6 C47_6 1_555 1_555
C48_6 C26_6 1_555 1_555
C49_6 C20_6 1_555 1_555
C50_6 C25_6 1_555 1_555
C51_6 C19_6 1_555 1_555
H35_6 C51_6 1_555 1_555
C52_6 C15_6 1_555 1_555
H36_6 C52_6 1_555 1_555
N2_6 C7_6 1_555 1_555
N3_6 C43_6 1_555 1_555
N4_6 C23_6 1_555 1_555
N5_6 C48_6 1_555 1_555
O3_4 C5_6 1_555 1_555
O4_4 C13_6 1_555 1_555
O5_4 C13_6 1_555 1_555
O12_3 C9_6 1_555 1_555
O7_4 C5_6 1_555 1_555
O14_3 C9_6 1_555 1_555
In4_2 O4_4 1_555 1_555
In3_2 O3_4 1_555 1_555
C8_6 O2_6 1_555 1_555
C21_6 C35_6 1_555 1_555
C21_6 C52_6 1_555 1_555
C23_6 C35_6 1_555 1_555
C24_6 N2_6 1_555 1_555
C25_6 C43_6 1_555 1_555
C26_6 C39_6 1_555 1_555
C28_6 C50_6 1_555 1_555
C30_6 C33_6 1_555 1_555
C31_6 C46_6 1_555 1_555
C36_6 C47_6 1_555 1_555
C37_6 C49_6 1_555 1_555
C39_6 C42_6 1_555 1_555
C40_6 C48_6 1_555 1_555
C41_6 C45_6 1_555 1_555
C44_6 C51_6 1_555 1_555
C44_6 N4_6 1_555 1_555
C49_6 N3_6 1_555 1_555
C50_6 N5_6 1_555 1_555
O5_4 In4_2 1_555 1_555
O7_4 In3_2 1_555 1_555
N2_6 H37_6 1_555 1_555
N3_6 H38_6 1_555 1_555
C15_7 H18_7 1_555 1_555
C5_7 C16_7 1_555 1_555
C21_7 C34_7 1_555 1_555
C29_7 C16_7 1_555 1_555
H23_7 C29_7 1_555 1_555
C34_7 C29_7 1_555 1_555
H26_7 C34_7 1_555 1_555
C35_7 C7_7 1_555 1_555
O13_4 C5_7 1_555 1_555
C21_7 C35_7 1_555 1_555
C21_7 C52_7 1_555 1_555
C9_7 C32_7 1_555 1_555
C10_7 H14_7 1_555 1_555
C12_7 C6_7 1_555 1_555
H16_7 C12_7 1_555 1_555
C14_7 C10_7 1_555 1_555
C24_7 C12_7 1_555 1_555
C26_7 C24_7 1_555 1_555
C32_7 C14_7 1_555 1_555
C38_7 C32_7 1_555 1_555
H28_7 C38_7 1_555 1_555
C39_7 C10_7 1_555 1_555
C42_7 C38_7 1_555 1_555
H31_7 C42_7 1_555 1_555
O8_4 C9_7 1_555 1_555
C24_7 N2_7 1_555 1_555
C26_7 C39_7 1_555 1_555
C39_7 C42_7 1_555 1_555
O8_4 In4_2 1_555 1_555
C13_7 C18_7 1_555 1_555
C18_7 C22_7 1_555 1_555
C19_7 H20_7 1_555 1_555
C20_7 C36_7 1_555 1_555
C22_7 H21_7 1_555 1_555
C23_7 C19_7 1_555 1_555
C36_7 C41_7 1_555 1_555
C41_7 H30_7 1_555 1_555
C44_7 C20_7 1_555 1_555
C45_7 C18_7 1_555 1_555
H32_7 C45_7 1_555 1_555
C47_7 C22_7 1_555 1_555
H34_7 C47_7 1_555 1_555
C49_7 C20_7 1_555 1_555
C51_7 C19_7 1_555 1_555
H35_7 C51_7 1_555 1_555
N4_7 C23_7 1_555 1_555
O10_3 C13_7 1_555 1_555
O11_3 C13_7 1_555 1_555
C36_7 C47_7 1_555 1_555
C41_7 C45_7 1_555 1_555
C44_7 C51_7 1_555 1_555
C44_7 N4_7 1_555 1_555
In3_2 O1_7 1_555 1_555
C8_7 C27_7 1_555 1_555
C11_7 H15_7 1_555 1_555
C17_7 H19_7 1_555 1_555
C25_7 C31_7 1_555 1_555
C27_7 C17_7 1_555 1_555
C28_7 H22_7 1_555 1_555
C30_7 H24_7 1_555 1_555
C31_7 C30_7 1_555 1_555
C33_7 C27_7 1_555 1_555
H25_7 C33_7 1_555 1_555
C37_7 C11_7 1_555 1_555
C40_7 C28_7 1_555 1_555
H29_7 C40_7 1_555 1_555
C43_7 C11_7 1_555 1_555
C46_7 C17_7 1_555 1_555
H33_7 C46_7 1_555 1_555
C50_7 C25_7 1_555 1_555
N3_7 C43_7 1_555 1_555
N5_7 C48_7 1_555 1_555
O1_7 C8_7 1_555 1_555
O2_7 In3_2 1_555 1_555
O12_4 In3_2 1_555 1_555
O14_4 In3_2 1_555 1_555
C8_7 O2_7 1_555 1_555
C25_7 C43_7 1_555 1_555
C28_7 C50_7 1_555 1_555
C30_7 C33_7 1_555 1_555
C31_7 C46_7 1_555 1_555
C40_7 C48_7 1_555 1_555
C50_7 N5_7 1_555 1_555
N3_7 H38_7 1_555 1_555
C5_8 C16_8 1_555 1_555
C13_8 C18_8 1_555 1_555
C15_8 H18_8 1_555 1_555
C16_8 C15_8 1_555 1_555
C18_8 C22_8 1_555 1_555
C19_8 H20_8 1_555 1_555
C20_8 C36_8 1_555 1_555
C21_8 C34_8 1_555 1_555
C22_8 H21_8 1_555 1_555
C23_8 C19_8 1_555 1_555
C29_8 C16_8 1_555 1_555
H23_8 C29_8 1_555 1_555
C34_8 C29_8 1_555 1_555
H26_8 C34_8 1_555 1_555
C35_8 C7_8 1_555 1_555
C36_8 C41_8 1_555 1_555
C41_8 H30_8 1_555 1_555
C44_8 C20_8 1_555 1_555
C45_8 C18_8 1_555 1_555
H32_8 C45_8 1_555 1_555
C47_8 C22_8 1_555 1_555
H34_8 C47_8 1_555 1_555
C49_8 C20_8 1_555 1_555
C51_8 C19_8 1_555 1_555
H35_8 C51_8 1_555 1_555
C52_8 C15_8 1_555 1_555
H36_8 C52_8 1_555 1_555
N4_8 C23_8 1_555 1_555
O9_3 C5_8 1_555 1_555
O10_4 C13_8 1_555 1_555
O11_4 C13_8 1_555 1_555
O13_3 C5_8 1_555 1_555
C21_8 C35_8 1_555 1_555
C21_8 C52_8 1_555 1_555
C23_8 C35_8 1_555 1_555
C36_8 C47_8 1_555 1_555
C41_8 C45_8 1_555 1_555
C44_8 C51_8 1_555 1_555
C44_8 N4_8 1_555 1_555
C8_8 C27_8 1_555 1_555
C9_8 C32_8 1_555 1_555
C10_8 H14_8 1_555 1_555
C11_8 H15_8 1_555 1_555
C12_8 C6_8 1_555 1_555
H16_8 C12_8 1_555 1_555
C14_8 C10_8 1_555 1_555
H17_8 C14_8 1_555 1_555
C24_8 C12_8 1_555 1_555
C25_8 C31_8 1_555 1_555
C26_8 C24_8 1_555 1_555
C27_8 C17_8 1_555 1_555
C28_8 H22_8 1_555 1_555
C30_8 H24_8 1_555 1_555
C31_8 C30_8 1_555 1_555
C32_8 C14_8 1_555 1_555
C33_8 C27_8 1_555 1_555
H25_8 C33_8 1_555 1_555
C37_8 C11_8 1_555 1_555
C38_8 C32_8 1_555 1_555
H28_8 C38_8 1_555 1_555
C39_8 C10_8 1_555 1_555
C40_8 C28_8 1_555 1_555
H29_8 C40_8 1_555 1_555
C42_8 C38_8 1_555 1_555
H31_8 C42_8 1_555 1_555
C43_8 C11_8 1_555 1_555
C46_8 C17_8 1_555 1_555
H33_8 C46_8 1_555 1_555
C48_8 C26_8 1_555 1_555
C50_8 C25_8 1_555 1_555
N3_8 C43_8 1_555 1_555
N5_8 C48_8 1_555 1_555
O12_4 C9_8 1_555 1_555
O14_4 C9_8 1_555 1_555
C8_8 O2_8 1_555 1_555
C24_8 N2_8 1_555 1_555
C25_8 C43_8 1_555 1_555
C26_8 C39_8 1_555 1_555
C28_8 C50_8 1_555 1_555
C30_8 C33_8 1_555 1_555
C31_8 C46_8 1_555 1_555
C39_8 C42_8 1_555 1_555
C40_8 C48_8 1_555 1_555
C50_8 N5_8 1_555 1_555
N2_8 H37_8 1_555 1_555
N3_8 H38_8 1_555 1_555
In4_2 O1_8 1_555 1_555

#END
