
###############################################################################
#
# This file contains modified crystal structure data generated from the
# MOF subset of the Cambridge Structural Database (CSD) v543 
# hosted by the Cambridge Crystallographic Data Centre (CCDC).
#
# This work is licensed under the Creative Commons
# Attribution-NonCommercial-ShareAlike 4.0 International License.
# To view a copy of this license, visit
# http://creativecommons.org/licenses/by-nc-sa/4.0/
# or send a letter to
# Creative Commons, PO Box 1866, Mountain View, CA 94042, USA.
#
# CIF created using the CSD Python API on 29 September 2022
# The structure has been converted into the P1 space group
# The structure has a 3D framework
# The original CSD entry YULPON is in the monoclinic crystal system
# The framework has been calculated to contain at least 10.0% void space
# The void calculation uses a probe of radius 1.32A, grid spacing 0.4
#
###############################################################################

data_YULPON
_chemical_formula_moiety         '(C288 H192 I48 N96 Zn24)n'
_symmetry_cell_setting           triclinic
_symmetry_space_group_name_H-M   'P 1'
_symmetry_Int_Tables_number      1
_space_group_name_Hall           'P 1'
loop_
_symmetry_equiv_pos_site_id
_symmetry_equiv_pos_as_xyz
1 x,y,z
_cell_length_a                   35.263(3)
_cell_length_b                   15.0150(12)
_cell_length_c                   31.402(3)
_cell_angle_alpha                90
_cell_angle_beta                 101.831(4)
_cell_angle_gamma                90
_cell_volume                     16273.3
loop_
_atom_site_label
_atom_site_type_symbol
_atom_site_fract_x
_atom_site_fract_y
_atom_site_fract_z
I3 I 0.35255(3) 0.07855(9) 0.51152(3)
I4 I 0.39033(3) 0.22926(6) 0.40487(4)
Zn2 Zn 0.37282(3) 0.08649(8) 0.43939(4)
N5 N 0.1235(3) 0.0507(6) 0.1389(3)
N6 N 0.3306(2) 0.0249(5) 0.3926(3)
N7 N 0.4189(2) 0.0021(5) 0.4412(4)
C10 C 0.1724(3) 0.0476(6) 0.2046(3)
H5 H 0.1907 0.0797 0.2255
C11 C 0.1490(3) 0.0920(7) 0.1721(4)
H6 H 0.1502 0.1552 0.1722
C17 C 0.3079(3) 0.0697(6) 0.3616(4)
H11 H 0.3115 0.1322 0.3596
C18 C 0.2801(3) 0.0302(7) 0.3327(3)
H12 H 0.2653 0.0641 0.3096
H16 H 0.4243 0.0256 0.3823
Zn5 Zn 0.08388(4) 0.11717(8) 0.09206(4)
I5 I 0.02611(3) 0.14565(7) 0.12646(3)
I6 I 0.12062(3) 0.23030(6) 0.05721(3)
N11 N 0.0702(3) 0.0146(6) 0.0489(3)
H23 H 0.1144 0.0315 0.0201
I1 I 0.12519(4) 0.33819(7) 0.20069(3)
I2 I 0.23197(3) 0.26931(7) 0.29684(5)
I5_2 I 0.52611(3) 0.35435(7) 0.62646(3)
I6_2 I 0.62062(3) 0.26970(6) 0.55721(3)
Zn1 Zn 0.17111(4) 0.36127(9) 0.27351(5)
Zn3 Zn 0.58388(4) 0.38283(8) 0.59206(4)
N1 N 0.1840(3) 0.4986(6) 0.2780(3)
N2 N 0.2331(2) 0.8126(6) 0.3094(3)
N3 N 0.1831(2) 0.8218(5) 0.2469(3)
N4 N 0.2200(2) 0.9468(5) 0.2721(2)
N8 N 0.5225(2) 0.7711(6) 0.4707(2)
N9 N 0.5750(2) 0.7261(5) 0.4392(3)
N10 N 0.5377(2) 0.8537(5) 0.4136(3)
N11_2 N 0.5702(3) 0.4854(6) 0.5489(3)
N12 N 0.6406(3) 0.8491(7) 0.3228(4)
C1 C 0.2128(4) 0.5316(7) 0.3031(4)
H1 H 0.2306 0.4921 0.3205
C2 C 0.2202(3) 0.6223(8) 0.3070(4)
H2 H 0.2406 0.6447 0.3290
C3 C 0.1981(3) 0.6770(6) 0.2793(4)
C4 C 0.1673(3) 0.6408(7) 0.2532(4)
H3 H 0.1491 0.6782 0.2350
C5 C 0.1616(3) 0.5512(8) 0.2524(4)
H4 H 0.1404 0.5270 0.2321
C6 C 0.2051(2) 0.7777(6) 0.2799(3)
C7 C 0.2395(3) 0.8994(7) 0.3024(3)
C8 C 0.1910(3) 0.9063(6) 0.2451(3)
C9 C 0.1701(2) 0.9577(6) 0.2078(3)
C12 C 0.1218(4) 0.9619(9) 0.1450(4)
H7 H 0.1022 0.9306 0.1253
C13 C 0.1449(4) 0.9124(7) 0.1762(4)
H8 H 0.1435 0.8492 0.1761
C14 C 0.2724(3) 0.9413(6) 0.3358(3)
C15 C 0.2941(3) 0.8947(7) 0.3685(3)
H9 H 0.2896 0.8331 0.3724
C16 C 0.3228(3) 0.9397(7) 0.3958(3)
H10 H 0.3384 0.9071 0.4188
C19 C 0.4351(3) 0.9570(9) 0.4776(4)
H13 H 0.4249 0.9621 0.5032
C20 C 0.4695(3) 0.8991(8) 0.4769(4)
H14 H 0.4807 0.8648 0.5017
C21 C 0.4834(3) 0.8961(6) 0.4432(4)
C22 C 0.4680(4) 0.9352(12) 0.4061(4)
H15 H 0.4776 0.9267 0.3803
C23 C 0.4350(4) 0.9926(9) 0.4078(4)
C24 C 0.5178(3) 0.8397(7) 0.4442(3)
C25 C 0.5516(3) 0.7176(7) 0.4664(3)
C26 C 0.5675(3) 0.7982(6) 0.4143(3)
C27 C 0.5937(3) 0.8143(7) 0.3818(4)
C28 C 0.6286(4) 0.7771(9) 0.3831(5)
H17 H 0.6385 0.7366 0.4059
C29 C 0.6500(4) 0.7949(10) 0.3534(5)
H18 H 0.6740 0.7644 0.3559
C30 C 0.6072(5) 0.8868(10) 0.3217(6)
H19 H 0.5983 0.9264 0.2982
C31 C 0.5828(4) 0.8757(12) 0.3514(5)
H20 H 0.5599 0.9099 0.3498
C32 C 0.5575(3) 0.6358(7) 0.4941(3)
C33 C 0.5316(3) 0.6148(7) 0.5199(4)
H21 H 0.5095 0.6506 0.5204
C34 C 0.5399(3) 0.5352(7) 0.5462(3)
H22 H 0.5214 0.5181 0.5629
C35 C 0.5931(4) 0.5065(9) 0.5214(6)
H23_2 H 0.6144 0.4685 0.5201
C36 C 0.5873(4) 0.5832(8) 0.4936(4)
H24 H 0.6048 0.5959 0.4751
Zn4 Zn 0.67111(4) 0.86127(9) 0.27351(5)
N13 N 0.6235(3) 0.4493(6) 0.6389(3)
N14 N 0.1406(3) 0.3491(7) 0.3228(4)
N8_2 N 0.0225(2) 0.2711(6) 0.4707(2)
N9_2 N 0.0750(2) 0.2261(5) 0.4392(3)
N10_2 N 0.0377(2) 0.3537(5) 0.4136(3)
C24_2 C 0.0178(3) 0.3397(7) 0.4442(3)
C25_2 C 0.0516(3) 0.2176(7) 0.4664(3)
C26_2 C 0.0675(3) 0.2982(6) 0.4143(3)
C27_2 C 0.0937(3) 0.3143(7) 0.3818(4)
C28_2 C 0.1286(4) 0.2771(9) 0.3831(5)
H17_2 H 0.1385 0.2366 0.4059
C29_2 C 0.1500(4) 0.2949(10) 0.3534(5)
H18_2 H 0.1740 0.2644 0.3559
C30_2 C 0.1072(5) 0.3868(10) 0.3217(6)
H19_2 H 0.0983 0.4264 0.2982
C31_2 C 0.0828(4) 0.3757(12) 0.3514(5)
H20_2 H 0.0599 0.4099 0.3498
C32_2 C 0.0575(3) 0.1358(7) 0.4941(3)
C33_2 C 0.0316(3) 0.1148(7) 0.5199(4)
H21_2 H 0.0095 0.1506 0.5204
C34_2 C 0.0399(3) 0.0352(7) 0.5462(3)
H22_2 H 0.0214 0.0181 0.5629
C35_2 C 0.0931(4) 0.0065(9) 0.5214(6)
C36_2 C 0.0873(4) 0.0832(8) 0.4936(4)
H24_2 H 0.1048 0.0959 0.4751
I1_2 I 0.62519(4) 0.83819(7) 0.20069(3)
I2_2 I 0.73197(3) 0.76931(7) 0.29684(5)
N1_2 N 0.6840(3) 0.9986(6) 0.2780(3)
H1_2 H 0.7306 0.9921 0.3205
I4_2 I 0.89033(3) 0.27074(6) 0.90487(4)
Zn2_2 Zn 0.87282(3) 0.41351(8) 0.93939(4)
N2_2 N 0.7331(2) 0.6874(6) 0.8094(3)
N3_2 N 0.6831(2) 0.6782(5) 0.7469(3)
N4_2 N 0.7200(2) 0.5532(5) 0.7721(2)
N6_2 N 0.8306(2) 0.4751(5) 0.8926(3)
N7_2 N 0.9189(2) 0.4979(5) 0.9412(4)
C1_2 C 0.7128(4) 0.9684(7) 0.8031(4)
C2_2 C 0.7202(3) 0.8777(8) 0.8070(4)
H2_2 H 0.7406 0.8553 0.8290
C3_2 C 0.6981(3) 0.8230(6) 0.7793(4)
C4_2 C 0.6673(3) 0.8592(7) 0.7532(4)
H3_2 H 0.6491 0.8218 0.7350
C5_2 C 0.6616(3) 0.9488(8) 0.7524(4)
H4_2 H 0.6404 0.9730 0.7321
C6_2 C 0.7051(2) 0.7223(6) 0.7799(3)
C7_2 C 0.7395(3) 0.6006(7) 0.8024(3)
C8_2 C 0.6910(3) 0.5937(6) 0.7451(3)
C9_2 C 0.6701(2) 0.5423(6) 0.7078(3)
C10_2 C 0.6724(3) 0.4524(6) 0.7046(3)
H5_2 H 0.6907 0.4203 0.7255
C11_2 C 0.6490(3) 0.4080(7) 0.6721(4)
H6_2 H 0.6502 0.3448 0.6722
C12_2 C 0.6218(4) 0.5381(9) 0.6450(4)
H7_2 H 0.6022 0.5694 0.6253
C13_2 C 0.6449(4) 0.5876(7) 0.6762(4)
H8_2 H 0.6435 0.6508 0.6761
C14_2 C 0.7724(3) 0.5587(6) 0.8358(3)
C15_2 C 0.7941(3) 0.6053(7) 0.8685(3)
H9_2 H 0.7896 0.6669 0.8724
C16_2 C 0.8228(3) 0.5603(7) 0.8958(3)
H10_2 H 0.8384 0.5929 0.9188
C17_2 C 0.8079(3) 0.4303(6) 0.8616(4)
H11_2 H 0.8115 0.3678 0.8596
C18_2 C 0.7801(3) 0.4698(7) 0.8327(3)
H12_2 H 0.7653 0.4359 0.8096
C19_2 C 0.9351(3) 0.5430(9) 0.9776(4)
C20_2 C 0.9695(3) 0.6009(8) 0.9769(4)
C21_2 C 0.9834(3) 0.6039(6) 0.9432(4)
C22_2 C 0.9680(4) 0.5648(12) 0.9061(4)
H15_2 H 0.9776 0.5733 0.8803
C23_2 C 0.9350(4) 0.5074(9) 0.9078(4)
H16_2 H 0.9243 0.4744 0.8823
I4_3 I 0.60967(3) 0.22926(6) 0.09513(4)
Zn2_3 Zn 0.62718(3) 0.08649(8) 0.06061(4)
N5_2 N 0.8765(3) 0.0507(6) 0.3611(3)
N6_3 N 0.6694(2) 0.0249(5) 0.1074(3)
N7_3 N 0.5811(2) 0.0021(5) 0.0588(4)
C10_3 C 0.8276(3) 0.0476(6) 0.2954(3)
H5_3 H 0.8093 0.0797 0.2745
C11_3 C 0.8510(3) 0.0920(7) 0.3279(4)
H6_3 H 0.8498 0.1552 0.3278
C17_3 C 0.6921(3) 0.0697(6) 0.1384(4)
H11_3 H 0.6885 0.1322 0.1404
C18_3 C 0.7199(3) 0.0302(7) 0.1673(3)
H12_3 H 0.7347 0.0641 0.1904
H16_3 H 0.5757 0.0256 0.1177
Zn5_2 Zn 0.91612(4) 0.11717(8) 0.40794(4)
I5_3 I 0.97389(3) 0.14565(7) 0.37354(3)
I6_3 I 0.87938(3) 0.23030(6) 0.44279(3)
N11_3 N 0.9298(3) 0.0146(6) 0.4511(3)
H23_3 H 0.8856 0.0315 0.4799
I3_2 I 0.64745(3) 0.07855(9) 0.98848(3)
I1_3 I 0.87481(4) 0.33819(7) 0.29931(3)
I2_3 I 0.76803(3) 0.26931(7) 0.20316(5)
Zn1_2 Zn 0.82889(4) 0.36127(9) 0.22649(5)
N1_3 N 0.8160(3) 0.4986(6) 0.2220(3)
N2_3 N 0.7669(2) 0.8126(6) 0.1906(3)
N3_3 N 0.8169(2) 0.8218(5) 0.2531(3)
N4_3 N 0.7800(2) 0.9468(5) 0.2279(2)
N8_3 N 0.4775(2) 0.7711(6) 0.0293(2)
N9_3 N 0.4250(2) 0.7261(5) 0.0608(3)
N10_3 N 0.4623(2) 0.8537(5) 0.0864(3)
N12_2 N 0.3594(3) 0.8491(7) 0.1772(4)
C1_3 C 0.7872(4) 0.5316(7) 0.1969(4)
H1_3 H 0.7694 0.4921 0.1795
C2_3 C 0.7798(3) 0.6223(8) 0.1930(4)
H2_3 H 0.7594 0.6447 0.1710
C3_3 C 0.8019(3) 0.6770(6) 0.2207(4)
C4_3 C 0.8327(3) 0.6408(7) 0.2468(4)
H3_3 H 0.8509 0.6782 0.2650
C5_3 C 0.8384(3) 0.5512(8) 0.2476(4)
H4_3 H 0.8596 0.5270 0.2679
C6_3 C 0.7949(2) 0.7777(6) 0.2201(3)
C7_3 C 0.7605(3) 0.8994(7) 0.1976(3)
C8_3 C 0.8090(3) 0.9063(6) 0.2549(3)
C9_3 C 0.8299(2) 0.9577(6) 0.2922(3)
C12_3 C 0.8782(4) 0.9619(9) 0.3550(4)
H7_3 H 0.8978 0.9306 0.3747
C13_3 C 0.8551(4) 0.9124(7) 0.3238(4)
H8_3 H 0.8565 0.8492 0.3239
C14_3 C 0.7276(3) 0.9413(6) 0.1642(3)
C15_3 C 0.7059(3) 0.8947(7) 0.1315(3)
H9_3 H 0.7104 0.8331 0.1276
C16_3 C 0.6772(3) 0.9397(7) 0.1042(3)
H10_3 H 0.6616 0.9071 0.0812
C19_3 C 0.5649(3) 0.9570(9) 0.0224(4)
C20_3 C 0.5305(3) 0.8991(8) 0.0231(4)
C21_3 C 0.5166(3) 0.8961(6) 0.0568(4)
C22_3 C 0.5320(4) 0.9352(12) 0.0939(4)
H15_3 H 0.5224 0.9267 0.1197
C23_3 C 0.5650(4) 0.9926(9) 0.0922(4)
C24_3 C 0.4822(3) 0.8397(7) 0.0558(3)
C25_3 C 0.4484(3) 0.7176(7) 0.0336(3)
C26_3 C 0.4325(3) 0.7982(6) 0.0857(3)
C27_3 C 0.4063(3) 0.8143(7) 0.1182(4)
C28_3 C 0.3714(4) 0.7771(9) 0.1169(5)
H17_3 H 0.3615 0.7366 0.0941
C29_3 C 0.3500(4) 0.7949(10) 0.1466(5)
H18_3 H 0.3260 0.7644 0.1441
C30_3 C 0.3928(5) 0.8868(10) 0.1783(6)
H19_3 H 0.4017 0.9264 0.2018
C31_3 C 0.4172(4) 0.8757(12) 0.1486(5)
H20_3 H 0.4401 0.9099 0.1502
C32_3 C 0.4425(3) 0.6358(7) 0.0059(3)
C36_3 C 0.4127(4) 0.5832(8) 0.0064(4)
H24_3 H 0.3952 0.5959 0.0249
Zn4_2 Zn 0.32889(4) 0.86127(9) 0.22649(5)
N14_2 N 0.8594(3) 0.3491(7) 0.1772(4)
I1_4 I 0.37481(4) 0.83819(7) 0.29931(3)
I2_4 I 0.26803(3) 0.76931(7) 0.20316(5)
N1_4 N 0.3160(3) 0.9986(6) 0.2220(3)
H1_4 H 0.2694 0.9921 0.1795
N8_4 N 0.9775(2) 0.2711(6) 0.0293(2)
N9_4 N 0.9250(2) 0.2261(5) 0.0608(3)
N10_4 N 0.9623(2) 0.3537(5) 0.0864(3)
C24_4 C 0.9822(3) 0.3397(7) 0.0558(3)
C25_4 C 0.9484(3) 0.2176(7) 0.0336(3)
C26_4 C 0.9325(3) 0.2982(6) 0.0857(3)
C27_4 C 0.9063(3) 0.3143(7) 0.1182(4)
C28_4 C 0.8714(4) 0.2771(9) 0.1169(5)
H17_4 H 0.8615 0.2366 0.0941
C29_4 C 0.8500(4) 0.2949(10) 0.1466(5)
H18_4 H 0.8260 0.2644 0.1441
C30_4 C 0.8928(5) 0.3868(10) 0.1783(6)
H19_4 H 0.9017 0.4264 0.2018
C31_4 C 0.9172(4) 0.3757(12) 0.1486(5)
H20_4 H 0.9401 0.4099 0.1502
C32_4 C 0.9425(3) 0.1358(7) 0.0059(3)
C36_4 C 0.9127(4) 0.0832(8) 0.0064(4)
H24_4 H 0.8952 0.0959 0.0249
I5_4 I 0.47389(3) 0.35435(7) 0.87354(3)
I6_4 I 0.37938(3) 0.26970(6) 0.94279(3)
Zn3_2 Zn 0.41612(4) 0.38283(8) 0.90794(4)
N11_4 N 0.4298(3) 0.4854(6) 0.9511(3)
H13_2 H 0.5751 0.9621 0.9968
H14_2 H 0.5193 0.8648 0.9983
C33_3 C 0.4684(3) 0.6148(7) 0.9801(4)
H21_3 H 0.4905 0.6506 0.9796
C34_3 C 0.4601(3) 0.5352(7) 0.9538(3)
H22_3 H 0.4786 0.5181 0.9371
C35_3 C 0.4069(4) 0.5065(9) 0.9786(6)
H23_4 H 0.3856 0.4685 0.9799
N13_2 N 0.3765(3) 0.4493(6) 0.8611(3)
I3_3 I 0.14745(3) 0.42145(9) 0.48848(3)
I4_4 I 0.10967(3) 0.27074(6) 0.59513(4)
Zn2_4 Zn 0.12718(3) 0.41351(8) 0.56061(4)
N2_4 N 0.2669(2) 0.6874(6) 0.6906(3)
N3_4 N 0.3169(2) 0.6782(5) 0.7531(3)
N4_4 N 0.2800(2) 0.5532(5) 0.7279(2)
N6_4 N 0.1694(2) 0.4751(5) 0.6074(3)
N7_4 N 0.0811(2) 0.4979(5) 0.5588(4)
C1_4 C 0.2872(4) 0.9684(7) 0.6969(4)
C2_4 C 0.2798(3) 0.8777(8) 0.6930(4)
H2_4 H 0.2594 0.8553 0.6710
C3_4 C 0.3019(3) 0.8230(6) 0.7207(4)
C4_4 C 0.3327(3) 0.8592(7) 0.7468(4)
H3_4 H 0.3509 0.8218 0.7650
C5_4 C 0.3384(3) 0.9488(8) 0.7476(4)
H4_4 H 0.3596 0.9730 0.7679
C6_4 C 0.2949(2) 0.7223(6) 0.7201(3)
C7_4 C 0.2605(3) 0.6006(7) 0.6976(3)
C8_4 C 0.3090(3) 0.5937(6) 0.7549(3)
C9_4 C 0.3299(2) 0.5423(6) 0.7922(3)
C10_4 C 0.3276(3) 0.4524(6) 0.7954(3)
H5_4 H 0.3093 0.4203 0.7745
C11_4 C 0.3510(3) 0.4080(7) 0.8279(4)
H6_4 H 0.3498 0.3448 0.8278
C12_4 C 0.3782(4) 0.5381(9) 0.8550(4)
H7_4 H 0.3978 0.5694 0.8747
C13_4 C 0.3551(4) 0.5876(7) 0.8238(4)
H8_4 H 0.3565 0.6508 0.8239
C14_4 C 0.2276(3) 0.5587(6) 0.6642(3)
C15_4 C 0.2059(3) 0.6053(7) 0.6315(3)
H9_4 H 0.2104 0.6669 0.6276
C16_4 C 0.1772(3) 0.5603(7) 0.6042(3)
H10_4 H 0.1616 0.5929 0.5812
C17_4 C 0.1921(3) 0.4303(6) 0.6384(4)
H11_4 H 0.1885 0.3678 0.6404
C18_4 C 0.2199(3) 0.4698(7) 0.6673(3)
H12_4 H 0.2347 0.4359 0.6904
C19_4 C 0.0649(3) 0.5430(9) 0.5224(4)
H13_3 H 0.0751 0.5379 0.4968
C20_4 C 0.0305(3) 0.6009(8) 0.5231(4)
H14_3 H 0.0193 0.6352 0.4983
C21_4 C 0.0166(3) 0.6039(6) 0.5568(4)
C22_4 C 0.0320(4) 0.5648(12) 0.5939(4)
H15_4 H 0.0224 0.5733 0.6197
C23_4 C 0.0650(4) 0.5074(9) 0.5922(4)
H16_4 H 0.0757 0.4744 0.6177
I5_5 I 0.02611(3) 0.85435(7) 0.62646(3)
I6_5 I 0.12062(3) 0.76970(6) 0.55721(3)
Zn3_3 Zn 0.08388(4) 0.88283(8) 0.59206(4)
N11_5 N 0.0702(3) 0.9854(6) 0.5489(3)
H23_5 H 0.1144 0.9685 0.5201
N13_3 N 0.1235(3) 0.9493(6) 0.6389(3)
I4_5 I 0.39033(3) 0.77074(6) 0.90487(4)
Zn2_5 Zn 0.37282(3) 0.91351(8) 0.93939(4)
N6_5 N 0.3306(2) 0.9751(5) 0.8926(3)
N7_5 N 0.4189(2) 0.9979(5) 0.9412(4)
C10_5 C 0.1724(3) 0.9524(6) 0.7046(3)
H5_5 H 0.1907 0.9203 0.7255
C11_5 C 0.1490(3) 0.9080(7) 0.6721(4)
H6_5 H 0.1502 0.8448 0.6722
C17_5 C 0.3079(3) 0.9303(6) 0.8616(4)
H11_5 H 0.3115 0.8678 0.8596
C18_5 C 0.2801(3) 0.9698(7) 0.8327(3)
H12_5 H 0.2653 0.9359 0.8096
H16_5 H 0.4243 0.9744 0.8823
I3_4 I 0.85255(3) 0.57855(9) 0.51152(3)
I4_6 I 0.89033(3) 0.72926(6) 0.40487(4)
Zn2_6 Zn 0.87282(3) 0.58649(8) 0.43939(4)
N2_5 N 0.7331(2) 0.3126(6) 0.3094(3)
N3_5 N 0.6831(2) 0.3218(5) 0.2469(3)
N4_5 N 0.7200(2) 0.4468(5) 0.2721(2)
N5_3 N 0.6235(3) 0.5507(6) 0.1389(3)
N6_6 N 0.8306(2) 0.5249(5) 0.3926(3)
N7_6 N 0.9189(2) 0.5021(5) 0.4412(4)
C1_5 C 0.7128(4) 0.0316(7) 0.3031(4)
C2_5 C 0.7202(3) 0.1223(8) 0.3070(4)
H2_5 H 0.7406 0.1447 0.3290
C3_5 C 0.6981(3) 0.1770(6) 0.2793(4)
C4_5 C 0.6673(3) 0.1408(7) 0.2532(4)
H3_5 H 0.6491 0.1782 0.2350
C5_5 C 0.6616(3) 0.0512(8) 0.2524(4)
H4_5 H 0.6404 0.0270 0.2321
C6_5 C 0.7051(2) 0.2777(6) 0.2799(3)
C7_5 C 0.7395(3) 0.3994(7) 0.3024(3)
C8_5 C 0.6910(3) 0.4063(6) 0.2451(3)
C9_5 C 0.6701(2) 0.4577(6) 0.2078(3)
C10_6 C 0.6724(3) 0.5476(6) 0.2046(3)
H5_6 H 0.6907 0.5797 0.2255
C11_6 C 0.6490(3) 0.5920(7) 0.1721(4)
H6_6 H 0.6502 0.6552 0.1722
C12_5 C 0.6218(4) 0.4619(9) 0.1450(4)
H7_5 H 0.6022 0.4306 0.1253
C13_5 C 0.6449(4) 0.4124(7) 0.1762(4)
H8_5 H 0.6435 0.3492 0.1761
C14_5 C 0.7724(3) 0.4413(6) 0.3358(3)
C15_5 C 0.7941(3) 0.3947(7) 0.3685(3)
H9_5 H 0.7896 0.3331 0.3724
C16_5 C 0.8228(3) 0.4397(7) 0.3958(3)
H10_5 H 0.8384 0.4071 0.4188
C17_6 C 0.8079(3) 0.5697(6) 0.3616(4)
H11_6 H 0.8115 0.6322 0.3596
C18_6 C 0.7801(3) 0.5302(7) 0.3327(3)
H12_6 H 0.7653 0.5641 0.3096
C19_5 C 0.9351(3) 0.4570(9) 0.4776(4)
H13_4 H 0.9249 0.4621 0.5032
C20_5 C 0.9695(3) 0.3991(8) 0.4769(4)
H14_4 H 0.9807 0.3648 0.5017
C21_5 C 0.9834(3) 0.3961(6) 0.4432(4)
C22_5 C 0.9680(4) 0.4352(12) 0.4061(4)
H15_5 H 0.9776 0.4267 0.3803
C23_5 C 0.9350(4) 0.4926(9) 0.4078(4)
H16_6 H 0.9243 0.5256 0.3823
Zn5_3 Zn 0.58388(4) 0.61717(8) 0.09206(4)
I5_6 I 0.52611(3) 0.64565(7) 0.12646(3)
I6_6 I 0.62062(3) 0.73030(6) 0.05721(3)
N11_6 N 0.5702(3) 0.5146(6) 0.0489(3)
H13_5 H 0.4249 0.0379 0.0032
H14_5 H 0.4807 0.1352 0.0017
C33_4 C 0.5316(3) 0.3852(7) 0.0199(4)
H21_4 H 0.5095 0.3494 0.0204
C34_4 C 0.5399(3) 0.4648(7) 0.0462(3)
H22_4 H 0.5214 0.4819 0.0629
C35_4 C 0.5931(4) 0.4935(9) 0.0214(6)
H23_6 H 0.6144 0.5315 0.0201
I4_7 I 0.10967(3) 0.72926(6) 0.09513(4)
Zn2_7 Zn 0.12718(3) 0.58649(8) 0.06061(4)
N2_6 N 0.2669(2) 0.3126(6) 0.1906(3)
N3_6 N 0.3169(2) 0.3218(5) 0.2531(3)
N4_6 N 0.2800(2) 0.4468(5) 0.2279(2)
N5_4 N 0.3765(3) 0.5507(6) 0.3611(3)
N6_7 N 0.1694(2) 0.5249(5) 0.1074(3)
N7_7 N 0.0811(2) 0.5021(5) 0.0588(4)
C1_6 C 0.2872(4) 0.0316(7) 0.1969(4)
C2_6 C 0.2798(3) 0.1223(8) 0.1930(4)
H2_6 H 0.2594 0.1447 0.1710
C3_6 C 0.3019(3) 0.1770(6) 0.2207(4)
C4_6 C 0.3327(3) 0.1408(7) 0.2468(4)
H3_6 H 0.3509 0.1782 0.2650
C5_6 C 0.3384(3) 0.0512(8) 0.2476(4)
H4_6 H 0.3596 0.0270 0.2679
C6_6 C 0.2949(2) 0.2777(6) 0.2201(3)
C7_6 C 0.2605(3) 0.3994(7) 0.1976(3)
C8_6 C 0.3090(3) 0.4063(6) 0.2549(3)
C9_6 C 0.3299(2) 0.4577(6) 0.2922(3)
C10_7 C 0.3276(3) 0.5476(6) 0.2954(3)
H5_7 H 0.3093 0.5797 0.2745
C11_7 C 0.3510(3) 0.5920(7) 0.3279(4)
H6_7 H 0.3498 0.6552 0.3278
C12_6 C 0.3782(4) 0.4619(9) 0.3550(4)
H7_6 H 0.3978 0.4306 0.3747
C13_6 C 0.3551(4) 0.4124(7) 0.3238(4)
H8_6 H 0.3565 0.3492 0.3239
C14_6 C 0.2276(3) 0.4413(6) 0.1642(3)
C15_6 C 0.2059(3) 0.3947(7) 0.1315(3)
H9_6 H 0.2104 0.3331 0.1276
C16_6 C 0.1772(3) 0.4397(7) 0.1042(3)
H10_6 H 0.1616 0.4071 0.0812
C17_7 C 0.1921(3) 0.5697(6) 0.1384(4)
H11_7 H 0.1885 0.6322 0.1404
C18_7 C 0.2199(3) 0.5302(7) 0.1673(3)
H12_7 H 0.2347 0.5641 0.1904
C19_6 C 0.0649(3) 0.4570(9) 0.0224(4)
C20_6 C 0.0305(3) 0.3991(8) 0.0231(4)
C21_6 C 0.0166(3) 0.3961(6) 0.0568(4)
C22_6 C 0.0320(4) 0.4352(12) 0.0939(4)
H15_6 H 0.0224 0.4267 0.1197
C23_6 C 0.0650(4) 0.4926(9) 0.0922(4)
H16_7 H 0.0757 0.5256 0.1177
Zn5_4 Zn 0.41612(4) 0.61717(8) 0.40794(4)
I1_5 I 0.87481(4) 0.66181(7) 0.79931(3)
I2_5 I 0.76803(3) 0.73069(7) 0.70316(5)
I5_7 I 0.47389(3) 0.64565(7) 0.37354(3)
I6_7 I 0.37938(3) 0.73030(6) 0.44279(3)
Zn1_3 Zn 0.82889(4) 0.63873(9) 0.72649(5)
N1_5 N 0.8160(3) 0.5014(6) 0.7220(3)
N2_7 N 0.7669(2) 0.1874(6) 0.6906(3)
N3_7 N 0.8169(2) 0.1782(5) 0.7531(3)
N4_7 N 0.7800(2) 0.0532(5) 0.7279(2)
N8_5 N 0.4775(2) 0.2289(6) 0.5293(2)
N9_5 N 0.4250(2) 0.2739(5) 0.5608(3)
N10_5 N 0.4623(2) 0.1463(5) 0.5864(3)
N11_7 N 0.4298(3) 0.5146(6) 0.4511(3)
N12_3 N 0.3594(3) 0.1509(7) 0.6772(4)
C1_7 C 0.7872(4) 0.4684(7) 0.6969(4)
H1_5 H 0.7694 0.5079 0.6795
C2_7 C 0.7798(3) 0.3777(8) 0.6930(4)
H2_7 H 0.7594 0.3553 0.6710
C3_7 C 0.8019(3) 0.3230(6) 0.7207(4)
C4_7 C 0.8327(3) 0.3592(7) 0.7468(4)
H3_7 H 0.8509 0.3218 0.7650
C5_7 C 0.8384(3) 0.4488(8) 0.7476(4)
H4_7 H 0.8596 0.4730 0.7679
C6_7 C 0.7949(2) 0.2223(6) 0.7201(3)
C7_7 C 0.7605(3) 0.1006(7) 0.6976(3)
C8_7 C 0.8090(3) 0.0937(6) 0.7549(3)
C9_7 C 0.8299(2) 0.0423(6) 0.7922(3)
C12_7 C 0.8782(4) 0.0381(9) 0.8550(4)
H7_7 H 0.8978 0.0694 0.8747
C13_7 C 0.8551(4) 0.0876(7) 0.8238(4)
H8_7 H 0.8565 0.1508 0.8239
C14_7 C 0.7276(3) 0.0587(6) 0.6642(3)
C15_7 C 0.7059(3) 0.1053(7) 0.6315(3)
H9_7 H 0.7104 0.1669 0.6276
C16_7 C 0.6772(3) 0.0603(7) 0.6042(3)
H10_7 H 0.6616 0.0929 0.5812
C19_7 C 0.5649(3) 0.0430(9) 0.5224(4)
H13_6 H 0.5751 0.0379 0.4968
C20_7 C 0.5305(3) 0.1009(8) 0.5231(4)
H14_6 H 0.5193 0.1352 0.4983
C21_7 C 0.5166(3) 0.1039(6) 0.5568(4)
C22_7 C 0.5320(4) 0.0648(12) 0.5939(4)
H15_7 H 0.5224 0.0733 0.6197
C23_7 C 0.5650(4) 0.0074(9) 0.5922(4)
C24_5 C 0.4822(3) 0.1603(7) 0.5558(3)
C25_5 C 0.4484(3) 0.2824(7) 0.5336(3)
C26_5 C 0.4325(3) 0.2018(6) 0.5857(3)
C27_5 C 0.4063(3) 0.1857(7) 0.6182(4)
C28_5 C 0.3714(4) 0.2229(9) 0.6169(5)
H17_5 H 0.3615 0.2634 0.5941
C29_5 C 0.3500(4) 0.2051(10) 0.6466(5)
H18_5 H 0.3260 0.2356 0.6441
C30_5 C 0.3928(5) 0.1132(10) 0.6783(6)
H19_5 H 0.4017 0.0736 0.7018
C31_5 C 0.4172(4) 0.1243(12) 0.6486(5)
H20_5 H 0.4401 0.0901 0.6502
C32_5 C 0.4425(3) 0.3642(7) 0.5059(3)
C33_5 C 0.4684(3) 0.3852(7) 0.4801(4)
H21_5 H 0.4905 0.3494 0.4796
C34_5 C 0.4601(3) 0.4648(7) 0.4538(3)
H22_5 H 0.4786 0.4819 0.4371
C35_5 C 0.4069(4) 0.4935(9) 0.4786(6)
H23_7 H 0.3856 0.5315 0.4799
C36_5 C 0.4127(4) 0.4168(8) 0.5064(4)
H24_5 H 0.3952 0.4041 0.5249
Zn4_3 Zn 0.32889(4) 0.13873(9) 0.72649(5)
N14_3 N 0.8594(3) 0.6509(7) 0.6772(4)
I1_6 I 0.37481(4) 0.16181(7) 0.79931(3)
I2_6 I 0.26803(3) 0.23069(7) 0.70316(5)
N1_6 N 0.3160(3) 0.0014(6) 0.7220(3)
H1_6 H 0.2694 0.0079 0.6795
N8_6 N 0.9775(2) 0.7289(6) 0.5293(2)
N9_6 N 0.9250(2) 0.7739(5) 0.5608(3)
N10_6 N 0.9623(2) 0.6463(5) 0.5864(3)
C24_6 C 0.9822(3) 0.6603(7) 0.5558(3)
C25_6 C 0.9484(3) 0.7824(7) 0.5336(3)
C26_6 C 0.9325(3) 0.7018(6) 0.5857(3)
C27_6 C 0.9063(3) 0.6857(7) 0.6182(4)
C28_6 C 0.8714(4) 0.7229(9) 0.6169(5)
H17_6 H 0.8615 0.7634 0.5941
C29_6 C 0.8500(4) 0.7051(10) 0.6466(5)
H18_6 H 0.8260 0.7356 0.6441
C30_6 C 0.8928(5) 0.6132(10) 0.6783(6)
H19_6 H 0.9017 0.5736 0.7018
C31_6 C 0.9172(4) 0.6243(12) 0.6486(5)
H20_6 H 0.9401 0.5901 0.6502
C32_6 C 0.9425(3) 0.8642(7) 0.5059(3)
C33_6 C 0.9684(3) 0.8852(7) 0.4801(4)
H21_6 H 0.9905 0.8494 0.4796
C34_6 C 0.9601(3) 0.9648(7) 0.4538(3)
H22_6 H 0.9786 0.9819 0.4371
C35_6 C 0.9069(4) 0.9935(9) 0.4786(6)
C36_6 C 0.9127(4) 0.9168(8) 0.5064(4)
H24_6 H 0.8952 0.9041 0.5249
I3_5 I 0.14745(3) 0.57855(9) 0.98848(3)
H13_7 H 0.0751 0.4621 0.9968
H14_7 H 0.0193 0.3648 0.9983
C33_7 C 0.9684(3) 0.1148(7) 0.9801(4)
H21_7 H 0.9905 0.1506 0.9796
C34_7 C 0.9601(3) 0.0352(7) 0.9538(3)
H22_7 H 0.9786 0.0181 0.9371
C35_7 C 0.9069(4) 0.0065(9) 0.9786(6)
I5_8 I 0.97389(3) 0.85435(7) 0.87354(3)
I6_8 I 0.87938(3) 0.76970(6) 0.94279(3)
Zn3_4 Zn 0.91612(4) 0.88283(8) 0.90794(4)
N11_8 N 0.9298(3) 0.9854(6) 0.9511(3)
H23_8 H 0.8856 0.9685 0.9799
N13_4 N 0.8765(3) 0.9493(6) 0.8611(3)
I3_6 I 0.64745(3) 0.92145(9) 0.48848(3)
I4_8 I 0.60967(3) 0.77074(6) 0.59513(4)
Zn2_8 Zn 0.62718(3) 0.91351(8) 0.56061(4)
N6_8 N 0.6694(2) 0.9751(5) 0.6074(3)
N7_8 N 0.5811(2) 0.9979(5) 0.5588(4)
C10_8 C 0.8276(3) 0.9524(6) 0.7954(3)
H5_8 H 0.8093 0.9203 0.7745
C11_8 C 0.8510(3) 0.9080(7) 0.8279(4)
H6_8 H 0.8498 0.8448 0.8278
C17_8 C 0.6921(3) 0.9303(6) 0.6384(4)
H11_8 H 0.6885 0.8678 0.6404
C18_8 C 0.7199(3) 0.9698(7) 0.6673(3)
H12_8 H 0.7347 0.9359 0.6904
H16_8 H 0.5757 0.9744 0.6177
I1_7 I 0.12519(4) 0.66181(7) 0.70069(3)
I2_7 I 0.23197(3) 0.73069(7) 0.79684(5)
Zn1_4 Zn 0.17111(4) 0.63873(9) 0.77351(5)
N1_7 N 0.1840(3) 0.5014(6) 0.7780(3)
N2_8 N 0.2331(2) 0.1874(6) 0.8094(3)
N3_8 N 0.1831(2) 0.1782(5) 0.7469(3)
N4_8 N 0.2200(2) 0.0532(5) 0.7721(2)
N8_7 N 0.5225(2) 0.2289(6) 0.9707(2)
N9_7 N 0.5750(2) 0.2739(5) 0.9392(3)
N10_7 N 0.5377(2) 0.1463(5) 0.9136(3)
N12_4 N 0.6406(3) 0.1509(7) 0.8228(4)
C1_8 C 0.2128(4) 0.4684(7) 0.8031(4)
H1_7 H 0.2306 0.5079 0.8205
C2_8 C 0.2202(3) 0.3777(8) 0.8070(4)
H2_8 H 0.2406 0.3553 0.8290
C3_8 C 0.1981(3) 0.3230(6) 0.7793(4)
C4_8 C 0.1673(3) 0.3592(7) 0.7532(4)
H3_8 H 0.1491 0.3218 0.7350
C5_8 C 0.1616(3) 0.4488(8) 0.7524(4)
H4_8 H 0.1404 0.4730 0.7321
C6_8 C 0.2051(2) 0.2223(6) 0.7799(3)
C7_8 C 0.2395(3) 0.1006(7) 0.8024(3)
C8_8 C 0.1910(3) 0.0937(6) 0.7451(3)
C9_8 C 0.1701(2) 0.0423(6) 0.7078(3)
C12_8 C 0.1218(4) 0.0381(9) 0.6450(4)
H7_8 H 0.1022 0.0694 0.6253
C13_8 C 0.1449(4) 0.0876(7) 0.6762(4)
H8_8 H 0.1435 0.1508 0.6761
C14_8 C 0.2724(3) 0.0587(6) 0.8358(3)
C15_8 C 0.2941(3) 0.1053(7) 0.8685(3)
H9_8 H 0.2896 0.1669 0.8724
C16_8 C 0.3228(3) 0.0603(7) 0.8958(3)
H10_8 H 0.3384 0.0929 0.9188
C19_8 C 0.4351(3) 0.0430(9) 0.9776(4)
C20_8 C 0.4695(3) 0.1009(8) 0.9769(4)
C21_8 C 0.4834(3) 0.1039(6) 0.9432(4)
C22_8 C 0.4680(4) 0.0648(12) 0.9061(4)
H15_8 H 0.4776 0.0733 0.8803
C23_8 C 0.4350(4) 0.0074(9) 0.9078(4)
C24_7 C 0.5178(3) 0.1603(7) 0.9442(3)
C25_7 C 0.5516(3) 0.2824(7) 0.9664(3)
C26_7 C 0.5675(3) 0.2018(6) 0.9143(3)
C27_7 C 0.5937(3) 0.1857(7) 0.8818(4)
C28_7 C 0.6286(4) 0.2229(9) 0.8831(5)
H17_7 H 0.6385 0.2634 0.9059
C29_7 C 0.6500(4) 0.2051(10) 0.8534(5)
H18_7 H 0.6740 0.2356 0.8559
C30_7 C 0.6072(5) 0.1132(10) 0.8217(6)
H19_7 H 0.5983 0.0736 0.7982
C31_7 C 0.5828(4) 0.1243(12) 0.8514(5)
H20_7 H 0.5599 0.0901 0.8498
C32_7 C 0.5575(3) 0.3642(7) 0.9941(3)
C36_7 C 0.5873(4) 0.4168(8) 0.9936(4)
H24_7 H 0.6048 0.4041 0.9751
Zn4_4 Zn 0.67111(4) 0.13873(9) 0.77351(5)
N14_4 N 0.1406(3) 0.6509(7) 0.8228(4)
N8_8 N 0.0225(2) 0.7289(6) 0.9707(2)
N9_8 N 0.0750(2) 0.7739(5) 0.9392(3)
N10_8 N 0.0377(2) 0.6463(5) 0.9136(3)
C24_8 C 0.0178(3) 0.6603(7) 0.9442(3)
C25_8 C 0.0516(3) 0.7824(7) 0.9664(3)
C26_8 C 0.0675(3) 0.7018(6) 0.9143(3)
C27_8 C 0.0937(3) 0.6857(7) 0.8818(4)
C28_8 C 0.1286(4) 0.7229(9) 0.8831(5)
H17_8 H 0.1385 0.7634 0.9059
C29_8 C 0.1500(4) 0.7051(10) 0.8534(5)
H18_8 H 0.1740 0.7356 0.8559
C30_8 C 0.1072(5) 0.6132(10) 0.8217(6)
H19_8 H 0.0983 0.5736 0.7982
C31_8 C 0.0828(4) 0.6243(12) 0.8514(5)
H20_8 H 0.0599 0.5901 0.8498
C32_8 C 0.0575(3) 0.8642(7) 0.9941(3)
C36_8 C 0.0873(4) 0.9168(8) 0.9936(4)
H24_8 H 0.1048 0.9041 0.9751
I1_8 I 0.62519(4) 0.16181(7) 0.70069(3)
I2_8 I 0.73197(3) 0.23069(7) 0.79684(5)
N1_8 N 0.6840(3) 0.0014(6) 0.7780(3)
H1_8 H 0.7306 0.0079 0.8205
I3_7 I 0.35255(3) 0.92145(9) 0.01152(3)
C33_8 C 0.0316(3) 0.8852(7) 0.0199(4)
H21_8 H 0.0095 0.8494 0.0204
C34_8 C 0.0399(3) 0.9648(7) 0.0462(3)
H22_8 H 0.0214 0.9819 0.0629
C35_8 C 0.0931(4) 0.9935(9) 0.0214(6)
I3_8 I 0.85255(3) 0.42145(9) 0.01152(3)
H13_8 H 0.9249 0.5379 0.0032
H14_8 H 0.9807 0.6352 0.0017
loop_
_geom_bond_atom_site_label_1
_geom_bond_atom_site_label_2
_geom_bond_site_symmetry_1
_geom_bond_site_symmetry_2
I3 Zn2 1_555 1_555
I4 Zn2 1_555 1_555
Zn2 N6 1_555 1_555
N5 C11 1_555 1_555
N7 Zn2 1_555 1_555
H5 C10 1_555 1_555
C11 C10 1_555 1_555
H6 C11 1_555 1_555
C17 N6 1_555 1_555
H11 C17 1_555 1_555
H12 C18 1_555 1_555
Zn5 N5 1_555 1_555
C17 C18 1_555 1_555
I5 Zn5 1_555 1_555
I6 Zn5 1_555 1_555
Zn5 N11 1_555 1_555
I1 Zn1 1_555 1_555
I2 Zn1 1_555 1_555
I5_2 Zn3 1_555 1_555
I6_2 Zn3 1_555 1_555
Zn1 N1 1_555 1_555
Zn3 N11_2 1_555 1_555
N1 C1 1_555 1_555
N2 C6 1_555 1_555
N3 C6 1_555 1_555
N4 C7 1_555 1_555
N8 C24 1_555 1_555
N9 C25 1_555 1_555
N10 C24 1_555 1_555
N11_2 C34 1_555 1_555
N12 C29 1_555 1_555
C1 H1 1_555 1_555
C2 C1 1_555 1_555
H2 C2 1_555 1_555
C3 C2 1_555 1_555
C4 C3 1_555 1_555
H3 C4 1_555 1_555
C5 N1 1_555 1_555
H4 C5 1_555 1_555
C6 C3 1_555 1_555
C7 N2 1_555 1_555
C8 N3 1_555 1_555
C9 C8 1_555 1_555
H7 C12 1_555 1_555
C13 C9 1_555 1_555
H8 C13 1_555 1_555
C14 C7 1_555 1_555
C15 C14 1_555 1_555
H9 C15 1_555 1_555
C16 C15 1_555 1_555
H10 C16 1_555 1_555
H13 C19 1_555 1_555
C20 C19 1_555 1_555
H14 C20 1_555 1_555
C21 C20 1_555 1_555
C22 C21 1_555 1_555
H15 C22 1_555 1_555
C24 C21 1_555 1_555
C25 N8 1_555 1_555
C26 N9 1_555 1_555
C27 C26 1_555 1_555
C28 C27 1_555 1_555
H17 C28 1_555 1_555
C29 C28 1_555 1_555
H18 C29 1_555 1_555
C30 N12 1_555 1_555
H19 C30 1_555 1_555
C31 C27 1_555 1_555
H20 C31 1_555 1_555
C32 C25 1_555 1_555
C33 C32 1_555 1_555
H21 C33 1_555 1_555
C34 C33 1_555 1_555
H22 C34 1_555 1_555
C35 N11_2 1_555 1_555
H23_2 C35 1_555 1_555
C36 C32 1_555 1_555
H24 C36 1_555 1_555
Zn4 N12 1_555 1_555
N13 Zn3 1_555 1_555
N14 Zn1 1_555 1_555
N4 C8 1_555 1_555
N10 C26 1_555 1_555
C4 C5 1_555 1_555
C12 C13 1_555 1_555
C22 C23 1_555 1_555
C30 C31 1_555 1_555
C35 C36 1_555 1_555
N8_2 C24_2 1_555 1_555
N9_2 C25_2 1_555 1_555
N10_2 C24_2 1_555 1_555
N14 C29_2 1_555 1_555
C25_2 N8_2 1_555 1_555
C26_2 N9_2 1_555 1_555
C27_2 C26_2 1_555 1_555
C28_2 C27_2 1_555 1_555
H17_2 C28_2 1_555 1_555
C29_2 C28_2 1_555 1_555
H18_2 C29_2 1_555 1_555
C30_2 N14 1_555 1_555
H19_2 C30_2 1_555 1_555
C31_2 C27_2 1_555 1_555
H20_2 C31_2 1_555 1_555
C32_2 C25_2 1_555 1_555
C33_2 C32_2 1_555 1_555
H21_2 C33_2 1_555 1_555
C34_2 C33_2 1_555 1_555
H22_2 C34_2 1_555 1_555
C36_2 C32_2 1_555 1_555
H24_2 C36_2 1_555 1_555
N10_2 C26_2 1_555 1_555
C30_2 C31_2 1_555 1_555
C35_2 C36_2 1_555 1_555
I1_2 Zn4 1_555 1_555
I2_2 Zn4 1_555 1_555
Zn4 N1_2 1_555 1_555
I4_2 Zn2_2 1_555 1_555
Zn2_2 N6_2 1_555 1_555
N2_2 C6_2 1_555 1_555
N3_2 C6_2 1_555 1_555
N4_2 C7_2 1_555 1_555
N13 C11_2 1_555 1_555
N6_2 C16_2 1_555 1_555
N7_2 Zn2_2 1_555 1_555
C2_2 C1_2 1_555 1_555
H2_2 C2_2 1_555 1_555
C3_2 C2_2 1_555 1_555
C4_2 C3_2 1_555 1_555
H3_2 C4_2 1_555 1_555
H4_2 C5_2 1_555 1_555
C6_2 C3_2 1_555 1_555
C7_2 N2_2 1_555 1_555
C8_2 N3_2 1_555 1_555
C9_2 C8_2 1_555 1_555
C10_2 C9_2 1_555 1_555
H5_2 C10_2 1_555 1_555
C11_2 C10_2 1_555 1_555
H6_2 C11_2 1_555 1_555
C12_2 N13 1_555 1_555
H7_2 C12_2 1_555 1_555
C13_2 C9_2 1_555 1_555
H8_2 C13_2 1_555 1_555
C14_2 C7_2 1_555 1_555
C15_2 C14_2 1_555 1_555
H9_2 C15_2 1_555 1_555
C16_2 C15_2 1_555 1_555
H10_2 C16_2 1_555 1_555
C17_2 N6_2 1_555 1_555
H11_2 C17_2 1_555 1_555
C18_2 C14_2 1_555 1_555
H12_2 C18_2 1_555 1_555
C19_2 N7_2 1_555 1_555
C20_2 C19_2 1_555 1_555
C21_2 C20_2 1_555 1_555
C22_2 C21_2 1_555 1_555
H15_2 C22_2 1_555 1_555
C23_2 N7_2 1_555 1_555
H16_2 C23_2 1_555 1_555
N4_2 C8_2 1_555 1_555
C4_2 C5_2 1_555 1_555
C12_2 C13_2 1_555 1_555
C17_2 C18_2 1_555 1_555
C22_2 C23_2 1_555 1_555
I4_3 Zn2_3 1_555 1_555
Zn2_3 N6_3 1_555 1_555
N5_2 C11_3 1_555 1_555
N7_3 Zn2_3 1_555 1_555
H5_3 C10_3 1_555 1_555
C11_3 C10_3 1_555 1_555
H6_3 C11_3 1_555 1_555
C17_3 N6_3 1_555 1_555
H11_3 C17_3 1_555 1_555
H12_3 C18_3 1_555 1_555
Zn5_2 N5_2 1_555 1_555
C17_3 C18_3 1_555 1_555
I5_3 Zn5_2 1_555 1_555
I6_3 Zn5_2 1_555 1_555
Zn5_2 N11_3 1_555 1_555
I1_3 Zn1_2 1_555 1_555
I2_3 Zn1_2 1_555 1_555
Zn1_2 N1_3 1_555 1_555
N1_3 C1_3 1_555 1_555
N2_3 C6_3 1_555 1_555
N3_3 C6_3 1_555 1_555
N4_3 C7_3 1_555 1_555
N8_3 C24_3 1_555 1_555
N9_3 C25_3 1_555 1_555
N10_3 C24_3 1_555 1_555
N12_2 C29_3 1_555 1_555
C1_3 H1_3 1_555 1_555
C2_3 C1_3 1_555 1_555
H2_3 C2_3 1_555 1_555
C3_3 C2_3 1_555 1_555
C4_3 C3_3 1_555 1_555
H3_3 C4_3 1_555 1_555
C5_3 N1_3 1_555 1_555
H4_3 C5_3 1_555 1_555
C6_3 C3_3 1_555 1_555
C7_3 N2_3 1_555 1_555
C8_3 N3_3 1_555 1_555
C9_3 C8_3 1_555 1_555
H7_3 C12_3 1_555 1_555
C13_3 C9_3 1_555 1_555
H8_3 C13_3 1_555 1_555
C14_3 C7_3 1_555 1_555
C15_3 C14_3 1_555 1_555
H9_3 C15_3 1_555 1_555
C16_3 C15_3 1_555 1_555
H10_3 C16_3 1_555 1_555
C20_3 C19_3 1_555 1_555
C21_3 C20_3 1_555 1_555
C22_3 C21_3 1_555 1_555
H15_3 C22_3 1_555 1_555
C24_3 C21_3 1_555 1_555
C25_3 N8_3 1_555 1_555
C26_3 N9_3 1_555 1_555
C27_3 C26_3 1_555 1_555
C28_3 C27_3 1_555 1_555
H17_3 C28_3 1_555 1_555
C29_3 C28_3 1_555 1_555
H18_3 C29_3 1_555 1_555
C30_3 N12_2 1_555 1_555
H19_3 C30_3 1_555 1_555
C31_3 C27_3 1_555 1_555
H20_3 C31_3 1_555 1_555
C32_3 C25_3 1_555 1_555
C36_3 C32_3 1_555 1_555
H24_3 C36_3 1_555 1_555
Zn4_2 N12_2 1_555 1_555
N14_2 Zn1_2 1_555 1_555
N4_3 C8_3 1_555 1_555
N10_3 C26_3 1_555 1_555
C4_3 C5_3 1_555 1_555
C12_3 C13_3 1_555 1_555
C22_3 C23_3 1_555 1_555
C30_3 C31_3 1_555 1_555
I1_4 Zn4_2 1_555 1_555
I2_4 Zn4_2 1_555 1_555
Zn4_2 N1_4 1_555 1_555
N8_4 C24_4 1_555 1_555
N9_4 C25_4 1_555 1_555
N10_4 C24_4 1_555 1_555
N14_2 C29_4 1_555 1_555
C25_4 N8_4 1_555 1_555
C26_4 N9_4 1_555 1_555
C27_4 C26_4 1_555 1_555
C28_4 C27_4 1_555 1_555
H17_4 C28_4 1_555 1_555
C29_4 C28_4 1_555 1_555
H18_4 C29_4 1_555 1_555
C30_4 N14_2 1_555 1_555
H19_4 C30_4 1_555 1_555
C31_4 C27_4 1_555 1_555
H20_4 C31_4 1_555 1_555
C32_4 C25_4 1_555 1_555
C36_4 C32_4 1_555 1_555
H24_4 C36_4 1_555 1_555
N10_4 C26_4 1_555 1_555
C30_4 C31_4 1_555 1_555
I5_4 Zn3_2 1_555 1_555
I6_4 Zn3_2 1_555 1_555
Zn3_2 N11_4 1_555 1_555
N11_4 C34_3 1_555 1_555
H21_3 C33_3 1_555 1_555
C34_3 C33_3 1_555 1_555
H22_3 C34_3 1_555 1_555
C35_3 N11_4 1_555 1_555
H23_4 C35_3 1_555 1_555
N13_2 Zn3_2 1_555 1_555
I3_3 Zn2_4 1_555 1_555
I4_4 Zn2_4 1_555 1_555
Zn2_4 N6_4 1_555 1_555
N2_4 C6_4 1_555 1_555
N3_4 C6_4 1_555 1_555
N4_4 C7_4 1_555 1_555
N13_2 C11_4 1_555 1_555
N6_4 C16_4 1_555 1_555
N7_4 Zn2_4 1_555 1_555
C2_4 C1_4 1_555 1_555
H2_4 C2_4 1_555 1_555
C3_4 C2_4 1_555 1_555
C4_4 C3_4 1_555 1_555
H3_4 C4_4 1_555 1_555
H4_4 C5_4 1_555 1_555
C6_4 C3_4 1_555 1_555
C7_4 N2_4 1_555 1_555
C8_4 N3_4 1_555 1_555
C9_4 C8_4 1_555 1_555
C10_4 C9_4 1_555 1_555
H5_4 C10_4 1_555 1_555
C11_4 C10_4 1_555 1_555
H6_4 C11_4 1_555 1_555
C12_4 N13_2 1_555 1_555
H7_4 C12_4 1_555 1_555
C13_4 C9_4 1_555 1_555
H8_4 C13_4 1_555 1_555
C14_4 C7_4 1_555 1_555
C15_4 C14_4 1_555 1_555
H9_4 C15_4 1_555 1_555
C16_4 C15_4 1_555 1_555
H10_4 C16_4 1_555 1_555
C17_4 N6_4 1_555 1_555
H11_4 C17_4 1_555 1_555
C18_4 C14_4 1_555 1_555
H12_4 C18_4 1_555 1_555
C19_4 N7_4 1_555 1_555
H13_3 C19_4 1_555 1_555
C20_4 C19_4 1_555 1_555
H14_3 C20_4 1_555 1_555
C21_4 C20_4 1_555 1_555
C22_4 C21_4 1_555 1_555
H15_4 C22_4 1_555 1_555
C23_4 N7_4 1_555 1_555
H16_4 C23_4 1_555 1_555
N4_4 C8_4 1_555 1_555
C4_4 C5_4 1_555 1_555
C12_4 C13_4 1_555 1_555
C17_4 C18_4 1_555 1_555
C22_4 C23_4 1_555 1_555
I5_5 Zn3_3 1_555 1_555
I6_5 Zn3_3 1_555 1_555
Zn3_3 N11_5 1_555 1_555
N13_3 Zn3_3 1_555 1_555
I4_5 Zn2_5 1_555 1_555
Zn2_5 N6_5 1_555 1_555
N13_3 C11_5 1_555 1_555
N7_5 Zn2_5 1_555 1_555
H5_5 C10_5 1_555 1_555
C11_5 C10_5 1_555 1_555
H6_5 C11_5 1_555 1_555
C17_5 N6_5 1_555 1_555
H11_5 C17_5 1_555 1_555
H12_5 C18_5 1_555 1_555
C17_5 C18_5 1_555 1_555
I3_4 Zn2_6 1_555 1_555
I4_6 Zn2_6 1_555 1_555
Zn2_6 N6_6 1_555 1_555
N2_5 C6_5 1_555 1_555
N3_5 C6_5 1_555 1_555
N4_5 C7_5 1_555 1_555
N5_3 C11_6 1_555 1_555
N6_6 C16_5 1_555 1_555
N7_6 Zn2_6 1_555 1_555
C2_5 C1_5 1_555 1_555
H2_5 C2_5 1_555 1_555
C3_5 C2_5 1_555 1_555
C4_5 C3_5 1_555 1_555
H3_5 C4_5 1_555 1_555
H4_5 C5_5 1_555 1_555
C6_5 C3_5 1_555 1_555
C7_5 N2_5 1_555 1_555
C8_5 N3_5 1_555 1_555
C9_5 C8_5 1_555 1_555
C10_6 C9_5 1_555 1_555
H5_6 C10_6 1_555 1_555
C11_6 C10_6 1_555 1_555
H6_6 C11_6 1_555 1_555
C12_5 N5_3 1_555 1_555
H7_5 C12_5 1_555 1_555
C13_5 C9_5 1_555 1_555
H8_5 C13_5 1_555 1_555
C14_5 C7_5 1_555 1_555
C15_5 C14_5 1_555 1_555
H9_5 C15_5 1_555 1_555
C16_5 C15_5 1_555 1_555
H10_5 C16_5 1_555 1_555
C17_6 N6_6 1_555 1_555
H11_6 C17_6 1_555 1_555
C18_6 C14_5 1_555 1_555
H12_6 C18_6 1_555 1_555
C19_5 N7_6 1_555 1_555
H13_4 C19_5 1_555 1_555
C20_5 C19_5 1_555 1_555
H14_4 C20_5 1_555 1_555
C21_5 C20_5 1_555 1_555
C22_5 C21_5 1_555 1_555
H15_5 C22_5 1_555 1_555
C23_5 N7_6 1_555 1_555
H16_6 C23_5 1_555 1_555
Zn5_3 N5_3 1_555 1_555
N4_5 C8_5 1_555 1_555
C4_5 C5_5 1_555 1_555
C12_5 C13_5 1_555 1_555
C17_6 C18_6 1_555 1_555
C22_5 C23_5 1_555 1_555
I5_6 Zn5_3 1_555 1_555
I6_6 Zn5_3 1_555 1_555
Zn5_3 N11_6 1_555 1_555
N11_6 C34_4 1_555 1_555
H21_4 C33_4 1_555 1_555
C34_4 C33_4 1_555 1_555
H22_4 C34_4 1_555 1_555
C35_4 N11_6 1_555 1_555
H23_6 C35_4 1_555 1_555
I4_7 Zn2_7 1_555 1_555
Zn2_7 N6_7 1_555 1_555
N2_6 C6_6 1_555 1_555
N3_6 C6_6 1_555 1_555
N4_6 C7_6 1_555 1_555
N5_4 C11_7 1_555 1_555
N6_7 C16_6 1_555 1_555
N7_7 Zn2_7 1_555 1_555
C2_6 C1_6 1_555 1_555
H2_6 C2_6 1_555 1_555
C3_6 C2_6 1_555 1_555
C4_6 C3_6 1_555 1_555
H3_6 C4_6 1_555 1_555
H4_6 C5_6 1_555 1_555
C6_6 C3_6 1_555 1_555
C7_6 N2_6 1_555 1_555
C8_6 N3_6 1_555 1_555
C9_6 C8_6 1_555 1_555
C10_7 C9_6 1_555 1_555
H5_7 C10_7 1_555 1_555
C11_7 C10_7 1_555 1_555
H6_7 C11_7 1_555 1_555
C12_6 N5_4 1_555 1_555
H7_6 C12_6 1_555 1_555
C13_6 C9_6 1_555 1_555
H8_6 C13_6 1_555 1_555
C14_6 C7_6 1_555 1_555
C15_6 C14_6 1_555 1_555
H9_6 C15_6 1_555 1_555
C16_6 C15_6 1_555 1_555
H10_6 C16_6 1_555 1_555
C17_7 N6_7 1_555 1_555
H11_7 C17_7 1_555 1_555
C18_7 C14_6 1_555 1_555
H12_7 C18_7 1_555 1_555
C19_6 N7_7 1_555 1_555
C20_6 C19_6 1_555 1_555
C21_6 C20_6 1_555 1_555
C22_6 C21_6 1_555 1_555
H15_6 C22_6 1_555 1_555
C23_6 N7_7 1_555 1_555
H16_7 C23_6 1_555 1_555
Zn5_4 N5_4 1_555 1_555
N4_6 C8_6 1_555 1_555
C4_6 C5_6 1_555 1_555
C12_6 C13_6 1_555 1_555
C17_7 C18_7 1_555 1_555
C22_6 C23_6 1_555 1_555
I1_5 Zn1_3 1_555 1_555
I2_5 Zn1_3 1_555 1_555
I5_7 Zn5_4 1_555 1_555
I6_7 Zn5_4 1_555 1_555
Zn1_3 N1_5 1_555 1_555
Zn5_4 N11_7 1_555 1_555
N1_5 C1_7 1_555 1_555
N2_7 C6_7 1_555 1_555
N3_7 C6_7 1_555 1_555
N4_7 C7_7 1_555 1_555
N8_5 C24_5 1_555 1_555
N9_5 C25_5 1_555 1_555
N10_5 C24_5 1_555 1_555
N11_7 C34_5 1_555 1_555
N12_3 C29_5 1_555 1_555
C1_7 H1_5 1_555 1_555
C2_7 C1_7 1_555 1_555
H2_7 C2_7 1_555 1_555
C3_7 C2_7 1_555 1_555
C4_7 C3_7 1_555 1_555
H3_7 C4_7 1_555 1_555
C5_7 N1_5 1_555 1_555
H4_7 C5_7 1_555 1_555
C6_7 C3_7 1_555 1_555
C7_7 N2_7 1_555 1_555
C8_7 N3_7 1_555 1_555
C9_7 C8_7 1_555 1_555
H7_7 C12_7 1_555 1_555
C13_7 C9_7 1_555 1_555
H8_7 C13_7 1_555 1_555
C14_7 C7_7 1_555 1_555
C15_7 C14_7 1_555 1_555
H9_7 C15_7 1_555 1_555
C16_7 C15_7 1_555 1_555
H10_7 C16_7 1_555 1_555
H13_6 C19_7 1_555 1_555
C20_7 C19_7 1_555 1_555
H14_6 C20_7 1_555 1_555
C21_7 C20_7 1_555 1_555
C22_7 C21_7 1_555 1_555
H15_7 C22_7 1_555 1_555
C24_5 C21_7 1_555 1_555
C25_5 N8_5 1_555 1_555
C26_5 N9_5 1_555 1_555
C27_5 C26_5 1_555 1_555
C28_5 C27_5 1_555 1_555
H17_5 C28_5 1_555 1_555
C29_5 C28_5 1_555 1_555
H18_5 C29_5 1_555 1_555
C30_5 N12_3 1_555 1_555
H19_5 C30_5 1_555 1_555
C31_5 C27_5 1_555 1_555
H20_5 C31_5 1_555 1_555
C32_5 C25_5 1_555 1_555
C33_5 C32_5 1_555 1_555
H21_5 C33_5 1_555 1_555
C34_5 C33_5 1_555 1_555
H22_5 C34_5 1_555 1_555
C35_5 N11_7 1_555 1_555
H23_7 C35_5 1_555 1_555
C36_5 C32_5 1_555 1_555
H24_5 C36_5 1_555 1_555
Zn4_3 N12_3 1_555 1_555
N14_3 Zn1_3 1_555 1_555
N4_7 C8_7 1_555 1_555
N10_5 C26_5 1_555 1_555
C4_7 C5_7 1_555 1_555
C12_7 C13_7 1_555 1_555
C22_7 C23_7 1_555 1_555
C30_5 C31_5 1_555 1_555
C35_5 C36_5 1_555 1_555
I1_6 Zn4_3 1_555 1_555
I2_6 Zn4_3 1_555 1_555
Zn4_3 N1_6 1_555 1_555
N8_6 C24_6 1_555 1_555
N9_6 C25_6 1_555 1_555
N10_6 C24_6 1_555 1_555
N14_3 C29_6 1_555 1_555
C25_6 N8_6 1_555 1_555
C26_6 N9_6 1_555 1_555
C27_6 C26_6 1_555 1_555
C28_6 C27_6 1_555 1_555
H17_6 C28_6 1_555 1_555
C29_6 C28_6 1_555 1_555
H18_6 C29_6 1_555 1_555
C30_6 N14_3 1_555 1_555
H19_6 C30_6 1_555 1_555
C31_6 C27_6 1_555 1_555
H20_6 C31_6 1_555 1_555
C32_6 C25_6 1_555 1_555
C33_6 C32_6 1_555 1_555
H21_6 C33_6 1_555 1_555
C34_6 C33_6 1_555 1_555
H22_6 C34_6 1_555 1_555
C36_6 C32_6 1_555 1_555
H24_6 C36_6 1_555 1_555
N10_6 C26_6 1_555 1_555
C30_6 C31_6 1_555 1_555
C35_6 C36_6 1_555 1_555
H21_7 C33_7 1_555 1_555
C34_7 C33_7 1_555 1_555
H22_7 C34_7 1_555 1_555
I5_8 Zn3_4 1_555 1_555
I6_8 Zn3_4 1_555 1_555
Zn3_4 N11_8 1_555 1_555
N13_4 Zn3_4 1_555 1_555
I3_6 Zn2_8 1_555 1_555
I4_8 Zn2_8 1_555 1_555
Zn2_8 N6_8 1_555 1_555
N13_4 C11_8 1_555 1_555
N7_8 Zn2_8 1_555 1_555
H5_8 C10_8 1_555 1_555
C11_8 C10_8 1_555 1_555
H6_8 C11_8 1_555 1_555
C17_8 N6_8 1_555 1_555
H11_8 C17_8 1_555 1_555
H12_8 C18_8 1_555 1_555
C17_8 C18_8 1_555 1_555
I1_7 Zn1_4 1_555 1_555
I2_7 Zn1_4 1_555 1_555
Zn1_4 N1_7 1_555 1_555
N1_7 C1_8 1_555 1_555
N2_8 C6_8 1_555 1_555
N3_8 C6_8 1_555 1_555
N4_8 C7_8 1_555 1_555
N8_7 C24_7 1_555 1_555
N9_7 C25_7 1_555 1_555
N10_7 C24_7 1_555 1_555
N12_4 C29_7 1_555 1_555
C1_8 H1_7 1_555 1_555
C2_8 C1_8 1_555 1_555
H2_8 C2_8 1_555 1_555
C3_8 C2_8 1_555 1_555
C4_8 C3_8 1_555 1_555
H3_8 C4_8 1_555 1_555
C5_8 N1_7 1_555 1_555
H4_8 C5_8 1_555 1_555
C6_8 C3_8 1_555 1_555
C7_8 N2_8 1_555 1_555
C8_8 N3_8 1_555 1_555
C9_8 C8_8 1_555 1_555
H7_8 C12_8 1_555 1_555
C13_8 C9_8 1_555 1_555
H8_8 C13_8 1_555 1_555
C14_8 C7_8 1_555 1_555
C15_8 C14_8 1_555 1_555
H9_8 C15_8 1_555 1_555
C16_8 C15_8 1_555 1_555
H10_8 C16_8 1_555 1_555
C20_8 C19_8 1_555 1_555
C21_8 C20_8 1_555 1_555
C22_8 C21_8 1_555 1_555
H15_8 C22_8 1_555 1_555
C24_7 C21_8 1_555 1_555
C25_7 N8_7 1_555 1_555
C26_7 N9_7 1_555 1_555
C27_7 C26_7 1_555 1_555
C28_7 C27_7 1_555 1_555
H17_7 C28_7 1_555 1_555
C29_7 C28_7 1_555 1_555
H18_7 C29_7 1_555 1_555
C30_7 N12_4 1_555 1_555
H19_7 C30_7 1_555 1_555
C31_7 C27_7 1_555 1_555
H20_7 C31_7 1_555 1_555
C32_7 C25_7 1_555 1_555
C36_7 C32_7 1_555 1_555
H24_7 C36_7 1_555 1_555
Zn4_4 N12_4 1_555 1_555
N14_4 Zn1_4 1_555 1_555
N4_8 C8_8 1_555 1_555
N10_7 C26_7 1_555 1_555
C4_8 C5_8 1_555 1_555
C12_8 C13_8 1_555 1_555
C22_8 C23_8 1_555 1_555
C30_7 C31_7 1_555 1_555
N8_8 C24_8 1_555 1_555
N9_8 C25_8 1_555 1_555
N10_8 C24_8 1_555 1_555
N14_4 C29_8 1_555 1_555
C25_8 N8_8 1_555 1_555
C26_8 N9_8 1_555 1_555
C27_8 C26_8 1_555 1_555
C28_8 C27_8 1_555 1_555
H17_8 C28_8 1_555 1_555
C29_8 C28_8 1_555 1_555
H18_8 C29_8 1_555 1_555
C30_8 N14_4 1_555 1_555
H19_8 C30_8 1_555 1_555
C31_8 C27_8 1_555 1_555
H20_8 C31_8 1_555 1_555
C32_8 C25_8 1_555 1_555
C36_8 C32_8 1_555 1_555
H24_8 C36_8 1_555 1_555
N10_8 C26_8 1_555 1_555
C30_8 C31_8 1_555 1_555
I1_8 Zn4_4 1_555 1_555
I2_8 Zn4_4 1_555 1_555
Zn4_4 N1_8 1_555 1_555
H21_8 C33_8 1_555 1_555
C34_8 C33_8 1_555 1_555
H22_8 C34_8 1_555 1_555

#END
