
###############################################################################
#
# This file contains modified crystal structure data generated from the
# MOF subset of the Cambridge Structural Database (CSD) v543 
# hosted by the Cambridge Crystallographic Data Centre (CCDC).
#
# This work is licensed under the Creative Commons
# Attribution-NonCommercial-ShareAlike 4.0 International License.
# To view a copy of this license, visit
# http://creativecommons.org/licenses/by-nc-sa/4.0/
# or send a letter to
# Creative Commons, PO Box 1866, Mountain View, CA 94042, USA.
#
# CIF created using the CSD Python API on 29 September 2022
# The structure has been converted into the P1 space group
# The structure has a 3D framework
# The original CSD entry YULQAA is in the monoclinic crystal system
# The framework has been calculated to contain at least 10.0% void space
# The void calculation uses a probe of radius 1.32A, grid spacing 0.4
#
###############################################################################

data_YULQAA
_chemical_formula_moiety         '(C368 H304 Cu16 N16 O96)n'
_symmetry_cell_setting           triclinic
_symmetry_space_group_name_H-M   'P 1'
_symmetry_Int_Tables_number      1
_space_group_name_Hall           'P 1'
loop_
_symmetry_equiv_pos_site_id
_symmetry_equiv_pos_as_xyz
1 x,y,z
_cell_length_a                   24.4730(6)
_cell_length_b                   27.0553(4)
_cell_length_c                   20.2370(5)
_cell_angle_alpha                90
_cell_angle_beta                 113.928(3)
_cell_angle_gamma                90
_cell_volume                     12247.8
loop_
_atom_site_label
_atom_site_type_symbol
_atom_site_fract_x
_atom_site_fract_y
_atom_site_fract_z
Cu1 Cu 0.52324(2) 0.60526(2) 0.32125(2)
O1 O 0.04658(12) 0.45693(10) 0.10509(18)
O2 O 0.47467(15) 0.05749(10) 0.41266(16)
O4 O 0.66628(17) 0.3445(3) 0.4499(3)
O5 O 0.07567(10) 0.15499(9) 0.31148(13)
O6 O 0.04074(10) 0.15484(8) 0.19049(13)
O7 O 0.42765(11) 0.55185(9) 0.19774(14)
O8 O 0.08493(12) 0.46048(10) 0.02168(16)
O9 O 0.46823(12) 0.55387(9) 0.31895(14)
O10 O 0.43684(12) 0.06166(9) 0.49678(18)
O11 O 0.56599(14) 0.60558(12) 0.43628(15)
H1 H 0.5494(17) 0.5920(17) 0.4619(10)
O12 O 0.65832(16) 0.3103(2) 0.5435(2)
C1 C 0.34522(13) 0.26797(10) 0.32817(19)
C2 C 0.07765(13) 0.16686(10) 0.25279(17)
C3 C 0.28590(12) 0.28061(10) 0.28612(19)
N1 N 0.28548(12) 0.32677(11) 0.25588(19)
C4 C 0.34413(13) 0.34313(11) 0.27956(19)
C5 C 0.38120(13) 0.30685(11) 0.32461(19)
C6 C 0.13054(13) 0.19776(11) 0.25922(18)
C7 C 0.40643(15) 0.48712(12) 0.26186(19)
C8 C 0.23265(13) 0.25192(11) 0.27557(19)
C9 C 0.43558(14) 0.53513(11) 0.25863(19)
C10 C 0.23256(14) 0.35514(12) 0.2102(2)
C11 C 0.14159(14) 0.21004(12) 0.19881(19)
H2 H 0.115066 0.200116 0.152996
C12 C 0.36260(15) 0.39353(12) 0.2716(2)
C13 C 0.36770(14) 0.21876(12) 0.3578(2)
C14 C 0.13587(15) 0.41348(12) 0.1260(2)
C15 C 0.37853(17) 0.45906(13) 0.20077(19)
H3 H 0.373812 0.471562 0.155964
C16 C 0.17009(16) 0.21282(14) 0.3271(2)
H4 H 0.162850 0.204780 0.367466
C17 C 0.08498(14) 0.44613(11) 0.0805(2)
C18 C 0.41575(15) 0.12632(12) 0.4115(2)
C19 C 0.19228(15) 0.23713(13) 0.2071(2)
H5 H 0.199311 0.245454 0.166657
C20 C 0.44621(14) 0.31045(14) 0.3631(2)
C21 C 0.44418(15) 0.07765(11) 0.4426(2)
C22 C 0.35720(17) 0.41195(13) 0.2054(2)
H6 H 0.339301 0.392858 0.163962
C23 C 0.3881(2) 0.42301(15) 0.3326(2)
H7 H 0.389670 0.411751 0.376723
C24 C 0.53617(18) 0.29840(19) 0.4706(2)
H8 H 0.554752 0.286328 0.517549
C25 C 0.4001(2) 0.19250(16) 0.3270(3)
H9 H 0.405649 0.205682 0.287725
C26 C 0.19244(18) 0.37141(17) 0.2376(3)
H10 H 0.197965 0.362930 0.284475
C27 C 0.4244(2) 0.14676(17) 0.3544(3)
H11 H 0.446773 0.129807 0.333877
C28 C 0.48074(18) 0.3322(3) 0.3311(3)
H12 H 0.462761 0.343636 0.283758
C29 C 0.56975(18) 0.3202(2) 0.4389(3)
C30 C 0.5419(2) 0.3368(3) 0.3694(3)
H13 H 0.564523 0.351589 0.347380
C31 C 0.6355(2) 0.3276(3) 0.4793(3)
C32 C 0.6067(3) 0.6394(2) 0.4784(3)
H14 H 0.603351 0.642577 0.524319
H15 H 0.598139 0.671396 0.454687
C33 C 0.6686(3) 0.6244(3) 0.4913(4)
H16 H 0.671097 0.619231 0.445163
H17 H 0.677733 0.593242 0.517303
C34 C 0.7147(5) 0.6630(5) 0.5345(5)
H18 H 0.699155 0.695316 0.515227
H19 H 0.718181 0.662035 0.583999
C35 C 0.7718(4) 0.6589(5) 0.5361(7)
H20 H 0.769796 0.641562 0.493738
H21 H 0.796845 0.640922 0.578463
H22 H 0.788092 0.691256 0.537035
C36 C 0.22050(15) 0.23985(14) 0.3351(2)
H23 H 0.246603 0.250076 0.380970
C37 C 0.17507(18) 0.39584(15) 0.0979(2)
H24 H 0.169341 0.403811 0.050791
C38 C 0.38437(19) 0.15224(14) 0.4433(3)
H25 H 0.379403 0.139061 0.483004
C39 C 0.22290(17) 0.36625(15) 0.1398(2)
H26 H 0.248612 0.353830 0.120360
C40 C 0.47462(16) 0.29397(15) 0.4337(2)
H27 H 0.452284 0.279818 0.456574
C41 C 0.14364(19) 0.40051(16) 0.1954(3)
H28 H 0.116465 0.411141 0.213816
C42 C 0.36009(19) 0.19824(14) 0.4160(3)
H29 H 0.338440 0.215370 0.437228
C43 C 0.4114(2) 0.46896(15) 0.3285(2)
H30 H 0.430211 0.487709 0.370122
H38 H 0.697(2) 0.321(2) 0.568(3)
Cu3 Cu 0.47676(2) 0.60526(2) 0.17875(2)
Cu4 Cu 0.02324(2) 0.10526(2) 0.32125(2)
Cu6 Cu 0.47728(2) 0.00213(2) 0.54854(2)
O15 O 0.57567(10) 0.65499(9) 0.31148(13)
O16 O 0.45926(10) 0.65484(8) 0.30951(13)
O17 O 0.57235(11) 0.55185(9) 0.30226(14)
O18 O 0.06316(12) 0.56166(9) 0.00322(18)
Cu2 Cu 0.02272(2) 0.50213(2) 0.95146(2)
O3 O 0.0614(2) 0.50582(18) 0.8747(3)
N2 N 0.1277(11) 0.4948(7) 0.8361(10)
C44 C 0.0927(14) 0.4748(12) 0.7652(12)
H31 H 0.118109 0.469412 0.740041
H32 H 0.075180 0.444049 0.769970
H33 H 0.061697 0.497754 0.738386
C45 C 0.1097(15) 0.5072(10) 0.8867(16)
H34 H 0.137177 0.516986 0.932082
C46 C 0.1926(11) 0.5048(12) 0.8605(16)
H35 H 0.205254 0.495575 0.823057
H36 H 0.200154 0.539332 0.871023
H37 H 0.214503 0.485843 0.903271
Cu8 Cu 0.52272(2) 0.99787(2) 0.45146(2)
Cu5 Cu 0.97676(2) 0.10526(2) 0.17875(2)
Cu7 Cu 0.97728(2) 0.49787(2) 0.04854(2)
O13 O 0.95342(12) 0.54307(10) 0.89491(18)
O14 O 0.97467(15) 0.44251(10) 0.91266(16)
Cu7_2 Cu 0.02272(2) 0.49787(2) 0.45146(2)
O13_2 O 0.04658(12) 0.54307(10) 0.60509(18)
O14_2 O 0.02533(15) 0.44251(10) 0.58734(16)
Cu2_2 Cu 0.97728(2) 0.50213(2) 0.54854(2)
O1_2 O 0.95342(12) 0.45693(10) 0.39491(18)
O2_2 O 0.52533(15) 0.05749(10) 0.08734(16)
O3_2 O 0.9386(2) 0.50582(18) 0.6253(3)
O4_2 O 0.33372(17) 0.3445(3) 0.0501(3)
O5_2 O 0.92433(10) 0.15499(9) 0.18852(13)
O6_2 O 0.95926(10) 0.15484(8) 0.30951(13)
O8_2 O 0.91507(12) 0.46048(10) 0.47832(16)
O9_2 O 0.53177(12) 0.55387(9) 0.18105(14)
O10_2 O 0.56316(12) 0.06166(9) 0.00322(18)
O11_2 O 0.43401(14) 0.60558(12) 0.06372(15)
H1_2 H 0.4506(17) 0.5920(17) 0.0381(10)
C1_2 C 0.65478(13) 0.26797(10) 0.17183(19)
C2_2 C 0.92235(13) 0.16686(10) 0.24721(17)
C3_2 C 0.71410(12) 0.28061(10) 0.21388(19)
N1_2 N 0.71452(12) 0.32677(11) 0.24412(19)
C4_2 C 0.65587(13) 0.34313(11) 0.22044(19)
C5_2 C 0.61880(13) 0.30685(11) 0.17539(19)
C6_2 C 0.86946(13) 0.19776(11) 0.24078(18)
C7_2 C 0.59357(15) 0.48712(12) 0.23814(19)
C8_2 C 0.76735(13) 0.25192(11) 0.22443(19)
C9_2 C 0.56442(14) 0.53513(11) 0.24137(19)
C10_2 C 0.76744(14) 0.35514(12) 0.2898(2)
C11_2 C 0.85841(14) 0.21004(12) 0.30119(19)
H2_2 H 0.884934 0.200116 0.347004
C12_2 C 0.63740(15) 0.39353(12) 0.2284(2)
C13_2 C 0.63230(14) 0.21876(12) 0.1422(2)
C14_2 C 0.86413(15) 0.41348(12) 0.3740(2)
C15_2 C 0.62147(17) 0.45906(13) 0.29923(19)
H3_2 H 0.626188 0.471562 0.344036
C16_2 C 0.82991(16) 0.21282(14) 0.1729(2)
H4_2 H 0.837150 0.204780 0.132534
C17_2 C 0.91502(14) 0.44613(11) 0.4195(2)
C18_2 C 0.58425(15) 0.12632(12) 0.0885(2)
C19_2 C 0.80772(15) 0.23713(13) 0.2929(2)
H5_2 H 0.800689 0.245454 0.333343
C20_2 C 0.55379(14) 0.31045(14) 0.1369(2)
C21_2 C 0.55582(15) 0.07765(11) 0.0574(2)
C22_2 C 0.64280(17) 0.41195(13) 0.2946(2)
H6_2 H 0.660699 0.392858 0.336038
C23_2 C 0.6119(2) 0.42301(15) 0.1674(2)
H7_2 H 0.610330 0.411751 0.123277
C24_2 C 0.46383(18) 0.29840(19) 0.0294(2)
C25_2 C 0.5999(2) 0.19250(16) 0.1730(3)
H9_2 H 0.594351 0.205682 0.212275
C26_2 C 0.80756(18) 0.37141(17) 0.2624(3)
H10_2 H 0.802035 0.362930 0.215525
C27_2 C 0.5756(2) 0.14676(17) 0.1456(3)
H11_2 H 0.553227 0.129807 0.166123
C28_2 C 0.51926(18) 0.3322(3) 0.1689(3)
H12_2 H 0.537239 0.343636 0.216242
C29_2 C 0.43025(18) 0.3202(2) 0.0611(3)
C30_2 C 0.4581(2) 0.3368(3) 0.1306(3)
H13_2 H 0.435477 0.351589 0.152620
C31_2 C 0.3645(2) 0.3276(3) 0.0207(3)
C32_2 C 0.3933(3) 0.6394(2) 0.0216(3)
H15_2 H 0.401861 0.671396 0.045313
C33_2 C 0.3314(3) 0.6244(3) 0.0087(4)
H16_2 H 0.328903 0.619231 0.054837
H20_2 H 0.230204 0.641562 0.006262
C36_2 C 0.77950(15) 0.23985(14) 0.1649(2)
H23_2 H 0.753397 0.250076 0.119030
C37_2 C 0.82493(18) 0.39584(15) 0.4021(2)
H24_2 H 0.830659 0.403811 0.449209
C38_2 C 0.61563(19) 0.15224(14) 0.0567(3)
H25_2 H 0.620597 0.139061 0.016996
C39_2 C 0.77710(17) 0.36625(15) 0.3602(2)
H26_2 H 0.751388 0.353830 0.379640
C40_2 C 0.52538(16) 0.29397(15) 0.0663(2)
H27_2 H 0.547716 0.279818 0.043426
C41_2 C 0.85636(19) 0.40051(16) 0.3046(3)
H28_2 H 0.883535 0.411141 0.286184
C42_2 C 0.63991(19) 0.19824(14) 0.0840(3)
H29_2 H 0.661560 0.215370 0.062772
C43_2 C 0.5886(2) 0.46896(15) 0.1715(2)
H30_2 H 0.569789 0.487709 0.129878
N2_2 N 0.8723(11) 0.4948(7) 0.6639(10)
C44_2 C 0.9073(14) 0.4748(12) 0.7348(12)
H31_2 H 0.881891 0.469412 0.759959
H32_2 H 0.924820 0.444049 0.730030
H33_2 H 0.938303 0.497754 0.761614
C45_2 C 0.8903(15) 0.5072(10) 0.6133(16)
H34_2 H 0.862823 0.516986 0.567918
C46_2 C 0.8074(11) 0.5048(12) 0.6395(16)
H35_2 H 0.794746 0.495575 0.676943
H36_2 H 0.799846 0.539332 0.628977
H37_2 H 0.785497 0.485843 0.596729
O15_2 O 0.42433(10) 0.65499(9) 0.18852(13)
O16_2 O 0.54074(10) 0.65484(8) 0.19049(13)
O18_2 O 0.93684(12) 0.56166(9) 0.49678(18)
O12_2 O 0.34168(16) 0.3103(2) 0.9565(2)
H8_2 H 0.445248 0.286328 0.982451
H14_2 H 0.396649 0.642577 0.975681
H17_2 H 0.322267 0.593242 0.982697
C34_2 C 0.2853(5) 0.6630(5) 0.9655(5)
H18_2 H 0.300845 0.695316 0.984773
H19_2 H 0.281819 0.662035 0.916001
C35_2 C 0.2282(4) 0.6589(5) 0.9639(7)
H21_2 H 0.203155 0.640922 0.921537
H22_2 H 0.211908 0.691256 0.962965
H38_2 H 0.303(2) 0.321(2) 0.932(3)
Cu6_2 Cu 0.52272(2) 0.00213(2) 0.95146(2)
Cu8_2 Cu 0.47728(2) 0.99787(2) 0.04854(2)
O11_3 O 0.06599(14) 0.10558(12) 0.43628(15)
H1_3 H 0.0494(17) 0.0920(17) 0.4619(10)
C32_3 C 0.1067(3) 0.1394(2) 0.4784(3)
H14_3 H 0.103351 0.142577 0.524319
H15_3 H 0.098139 0.171396 0.454687
C33_3 C 0.1686(3) 0.1244(3) 0.4913(4)
H16_3 H 0.171097 0.119231 0.445163
H17_3 H 0.177733 0.093242 0.517303
C34_3 C 0.2147(5) 0.1630(5) 0.5345(5)
H18_3 H 0.199155 0.195316 0.515227
H19_3 H 0.218181 0.162035 0.583999
C35_3 C 0.2718(4) 0.1589(5) 0.5361(7)
H20_3 H 0.269796 0.141562 0.493738
H21_3 H 0.296845 0.140922 0.578463
H22_3 H 0.288092 0.191256 0.537035
O17_2 O 0.07235(11) 0.05185(9) 0.30226(14)
O4_3 O 0.16628(17) 0.8445(3) 0.4499(3)
O12_3 O 0.15832(16) 0.8103(2) 0.5435(2)
C24_3 C 0.03617(18) 0.79840(19) 0.4706(2)
H8_3 H 0.054752 0.786328 0.517549
C29_3 C 0.06975(18) 0.8202(2) 0.4389(3)
C30_3 C 0.0419(2) 0.8368(3) 0.3694(3)
H13_3 H 0.064523 0.851589 0.347380
C31_3 C 0.1355(2) 0.8276(3) 0.4793(3)
H38_3 H 0.197(2) 0.821(2) 0.568(3)
O7_2 O 0.92765(11) 0.05185(9) 0.19774(14)
O9_3 O 0.96823(12) 0.05387(9) 0.31895(14)
C9_3 C 0.93558(14) 0.03513(11) 0.25863(19)
O3_3 O 0.5614(2) 0.00582(18) 0.8747(3)
C45_3 C 0.6097(15) 0.0072(10) 0.8867(16)
H34_3 H 0.637177 0.016986 0.932082
C46_3 C 0.6926(11) 0.0048(12) 0.8605(16)
H36_3 H 0.700154 0.039332 0.871023
O13_3 O 0.45342(12) 0.04307(10) 0.89491(18)
O1_3 O 0.54658(12) 0.95693(10) 0.10509(18)
O2_3 O 0.97467(15) 0.55749(10) 0.41266(16)
O8_3 O 0.58493(12) 0.96048(10) 0.02168(16)
C1_3 C 0.84522(13) 0.76797(10) 0.32817(19)
C2_3 C 0.57765(13) 0.66686(10) 0.25279(17)
C3_3 C 0.78590(12) 0.78061(10) 0.28612(19)
N1_3 N 0.78548(12) 0.82677(11) 0.25588(19)
C4_3 C 0.84413(13) 0.84313(11) 0.27956(19)
C5_3 C 0.88120(13) 0.80685(11) 0.32461(19)
C6_3 C 0.63054(13) 0.69776(11) 0.25922(18)
C7_3 C 0.90643(15) 0.98712(12) 0.26186(19)
C8_3 C 0.73265(13) 0.75192(11) 0.27557(19)
C10_3 C 0.73256(14) 0.85514(12) 0.2102(2)
C11_3 C 0.64159(14) 0.71004(12) 0.19881(19)
H2_3 H 0.615066 0.700116 0.152996
C12_3 C 0.86260(15) 0.89353(12) 0.2716(2)
C13_3 C 0.86770(14) 0.71876(12) 0.3578(2)
C14_3 C 0.63587(15) 0.91348(12) 0.1260(2)
C15_3 C 0.87853(17) 0.95906(13) 0.20077(19)
H3_3 H 0.873812 0.971562 0.155964
C16_3 C 0.67009(16) 0.71282(14) 0.3271(2)
H4_3 H 0.662850 0.704780 0.367466
C17_3 C 0.58498(14) 0.94613(11) 0.0805(2)
C18_3 C 0.91575(15) 0.62632(12) 0.4115(2)
C19_3 C 0.69228(15) 0.73713(13) 0.2071(2)
H5_3 H 0.699311 0.745454 0.166657
C20_3 C 0.94621(14) 0.81045(14) 0.3631(2)
C21_3 C 0.94418(15) 0.57765(11) 0.4426(2)
C22_3 C 0.85720(17) 0.91195(13) 0.2054(2)
H6_3 H 0.839301 0.892858 0.163962
C23_3 C 0.8881(2) 0.92301(15) 0.3326(2)
H7_3 H 0.889670 0.911751 0.376723
C25_3 C 0.9001(2) 0.69250(16) 0.3270(3)
H9_3 H 0.905649 0.705682 0.287725
C26_3 C 0.69244(18) 0.87141(17) 0.2376(3)
H10_3 H 0.697965 0.862930 0.284475
C27_3 C 0.9244(2) 0.64676(17) 0.3544(3)
H11_3 H 0.946773 0.629807 0.333877
C28_3 C 0.98074(18) 0.8322(3) 0.3311(3)
H12_3 H 0.962761 0.843636 0.283758
C36_3 C 0.72050(15) 0.73985(14) 0.3351(2)
H23_3 H 0.746603 0.750076 0.380970
C37_3 C 0.67507(18) 0.89584(15) 0.0979(2)
H24_3 H 0.669341 0.903811 0.050791
C38_3 C 0.88437(19) 0.65224(14) 0.4433(3)
H25_3 H 0.879403 0.639061 0.483004
C39_3 C 0.72290(17) 0.86625(15) 0.1398(2)
H26_3 H 0.748612 0.853830 0.120360
C40_3 C 0.97462(16) 0.79397(15) 0.4337(2)
H27_3 H 0.952284 0.779818 0.456574
C41_3 C 0.64364(19) 0.90051(16) 0.1954(3)
H28_3 H 0.616465 0.911141 0.213816
C42_3 C 0.86009(19) 0.69824(14) 0.4160(3)
H29_3 H 0.838440 0.715370 0.437228
C43_3 C 0.9114(2) 0.96896(15) 0.3285(2)
H30_3 H 0.930211 0.987709 0.370122
N2_3 N 0.6277(11) 0.9948(7) 0.8361(10)
C44_3 C 0.5927(14) 0.9748(12) 0.7652(12)
H31_3 H 0.618109 0.969412 0.740041
H32_3 H 0.575180 0.944049 0.769970
H33_3 H 0.561697 0.997754 0.738386
H35_3 H 0.705254 0.995575 0.823057
H37_3 H 0.714503 0.985843 0.903271
O14_3 O 0.47467(15) 0.94251(10) 0.91266(16)
O3_4 O 0.4386(2) 0.00582(18) 0.6253(3)
O9_4 O 0.03177(12) 0.05387(9) 0.18105(14)
C9_4 C 0.06442(14) 0.03513(11) 0.24137(19)
C45_4 C 0.3903(15) 0.0072(10) 0.6133(16)
H34_4 H 0.362823 0.016986 0.567918
C46_4 C 0.3074(11) 0.0048(12) 0.6395(16)
H36_4 H 0.299846 0.039332 0.628977
O13_4 O 0.54658(12) 0.04307(10) 0.60509(18)
O1_4 O 0.45342(12) 0.95693(10) 0.39491(18)
O2_4 O 0.02533(15) 0.55749(10) 0.08734(16)
O8_4 O 0.41507(12) 0.96048(10) 0.47832(16)
C1_4 C 0.15478(13) 0.76797(10) 0.17183(19)
C2_4 C 0.42235(13) 0.66686(10) 0.24721(17)
C3_4 C 0.21410(12) 0.78061(10) 0.21388(19)
N1_4 N 0.21452(12) 0.82677(11) 0.24412(19)
C4_4 C 0.15587(13) 0.84313(11) 0.22044(19)
C5_4 C 0.11880(13) 0.80685(11) 0.17539(19)
C6_4 C 0.36946(13) 0.69776(11) 0.24078(18)
C7_4 C 0.09357(15) 0.98712(12) 0.23814(19)
C8_4 C 0.26735(13) 0.75192(11) 0.22443(19)
C10_4 C 0.26744(14) 0.85514(12) 0.2898(2)
C11_4 C 0.35841(14) 0.71004(12) 0.30119(19)
H2_4 H 0.384934 0.700116 0.347004
C12_4 C 0.13740(15) 0.89353(12) 0.2284(2)
C13_4 C 0.13230(14) 0.71876(12) 0.1422(2)
C14_4 C 0.36413(15) 0.91348(12) 0.3740(2)
C15_4 C 0.12147(17) 0.95906(13) 0.29923(19)
H3_4 H 0.126188 0.971562 0.344036
C16_4 C 0.32991(16) 0.71282(14) 0.1729(2)
H4_4 H 0.337150 0.704780 0.132534
C17_4 C 0.41502(14) 0.94613(11) 0.4195(2)
C18_4 C 0.08425(15) 0.62632(12) 0.0885(2)
C19_4 C 0.30772(15) 0.73713(13) 0.2929(2)
H5_4 H 0.300689 0.745454 0.333343
C20_4 C 0.05379(14) 0.81045(14) 0.1369(2)
C21_4 C 0.05582(15) 0.57765(11) 0.0574(2)
C22_4 C 0.14280(17) 0.91195(13) 0.2946(2)
H6_4 H 0.160699 0.892858 0.336038
C23_4 C 0.1119(2) 0.92301(15) 0.1674(2)
H7_4 H 0.110330 0.911751 0.123277
C25_4 C 0.0999(2) 0.69250(16) 0.1730(3)
H9_4 H 0.094351 0.705682 0.212275
C26_4 C 0.30756(18) 0.87141(17) 0.2624(3)
H10_4 H 0.302035 0.862930 0.215525
C27_4 C 0.0756(2) 0.64676(17) 0.1456(3)
H11_4 H 0.053227 0.629807 0.166123
C28_4 C 0.01926(18) 0.8322(3) 0.1689(3)
H12_4 H 0.037239 0.843636 0.216242
C36_4 C 0.27950(15) 0.73985(14) 0.1649(2)
H23_4 H 0.253397 0.750076 0.119030
C37_4 C 0.32493(18) 0.89584(15) 0.4021(2)
H24_4 H 0.330659 0.903811 0.449209
C38_4 C 0.11563(19) 0.65224(14) 0.0567(3)
H25_4 H 0.120597 0.639061 0.016996
C39_4 C 0.27710(17) 0.86625(15) 0.3602(2)
H26_4 H 0.251388 0.853830 0.379640
C40_4 C 0.02538(16) 0.79397(15) 0.0663(2)
H27_4 H 0.047716 0.779818 0.043426
C41_4 C 0.35636(19) 0.90051(16) 0.3046(3)
H28_4 H 0.383535 0.911141 0.286184
C42_4 C 0.13991(19) 0.69824(14) 0.0840(3)
H29_4 H 0.161560 0.715370 0.062772
C43_4 C 0.0886(2) 0.96896(15) 0.1715(2)
H30_4 H 0.069789 0.987709 0.129878
N2_4 N 0.3723(11) 0.9948(7) 0.6639(10)
C44_4 C 0.4073(14) 0.9748(12) 0.7348(12)
H31_4 H 0.381891 0.969412 0.759959
H32_4 H 0.424820 0.944049 0.730030
H33_4 H 0.438303 0.997754 0.761614
H35_4 H 0.294746 0.995575 0.676943
H37_4 H 0.285497 0.985843 0.596729
O14_4 O 0.52533(15) 0.94251(10) 0.58734(16)
O11_4 O 0.93401(14) 0.10558(12) 0.06372(15)
H1_4 H 0.9506(17) 0.0920(17) 0.0381(10)
C32_4 C 0.8933(3) 0.1394(2) 0.0216(3)
H15_4 H 0.901861 0.171396 0.045313
C33_4 C 0.8314(3) 0.1244(3) 0.0087(4)
H16_4 H 0.828903 0.119231 0.054837
H20_4 H 0.730204 0.141562 0.006262
O4_4 O 0.83372(17) 0.8445(3) 0.0501(3)
C24_4 C 0.96383(18) 0.79840(19) 0.0294(2)
C29_4 C 0.93025(18) 0.8202(2) 0.0611(3)
C30_4 C 0.9581(2) 0.8368(3) 0.1306(3)
H13_4 H 0.935477 0.851589 0.152620
C31_4 C 0.8645(2) 0.8276(3) 0.0207(3)
Cu5_2 Cu 0.02324(2) 0.89474(2) 0.82125(2)
O3_5 O 0.9386(2) 0.49418(18) 0.1253(3)
N2_5 N 0.8723(11) 0.5052(7) 0.1639(10)
C44_5 C 0.9073(14) 0.5252(12) 0.2348(12)
H31_5 H 0.881891 0.530588 0.259959
H32_5 H 0.924820 0.555951 0.230030
H33_5 H 0.938303 0.502246 0.261614
C45_5 C 0.8903(15) 0.4928(10) 0.1133(16)
H34_5 H 0.862823 0.483014 0.067918
C46_5 C 0.8074(11) 0.4952(12) 0.1395(16)
H35_5 H 0.794746 0.504425 0.176943
H36_5 H 0.799846 0.460668 0.128977
H37_5 H 0.785497 0.514157 0.096729
Cu1_2 Cu 0.47676(2) 0.39474(2) 0.67875(2)
O4_5 O 0.33372(17) 0.6555(3) 0.5501(3)
O5_3 O 0.92433(10) 0.84501(9) 0.68852(13)
O6_3 O 0.95926(10) 0.84516(8) 0.80951(13)
O7_3 O 0.57235(11) 0.44815(9) 0.80226(14)
O8_5 O 0.91507(12) 0.53952(10) 0.97832(16)
O9_5 O 0.53177(12) 0.44613(9) 0.68105(14)
O10_3 O 0.56316(12) 0.93834(9) 0.50322(18)
O11_5 O 0.43401(14) 0.39442(12) 0.56372(15)
H1_5 H 0.4506(17) 0.4080(17) 0.5381(10)
O12_4 O 0.34168(16) 0.6897(2) 0.4565(2)
C1_5 C 0.65478(13) 0.73203(10) 0.67183(19)
C2_5 C 0.92235(13) 0.83314(10) 0.74721(17)
C3_5 C 0.71410(12) 0.71939(10) 0.71388(19)
N1_5 N 0.71452(12) 0.67323(11) 0.74412(19)
C4_5 C 0.65587(13) 0.65687(11) 0.72044(19)
C5_5 C 0.61880(13) 0.69315(11) 0.67539(19)
C6_5 C 0.86946(13) 0.80224(11) 0.74078(18)
C7_5 C 0.59357(15) 0.51288(12) 0.73814(19)
C8_5 C 0.76735(13) 0.74808(11) 0.72443(19)
C9_5 C 0.56442(14) 0.46487(11) 0.74137(19)
C10_5 C 0.76744(14) 0.64486(12) 0.7898(2)
C11_5 C 0.85841(14) 0.78996(12) 0.80119(19)
H2_5 H 0.884934 0.799884 0.847004
C12_5 C 0.63740(15) 0.60647(12) 0.7284(2)
C13_5 C 0.63230(14) 0.78124(12) 0.6422(2)
C14_5 C 0.86413(15) 0.58652(12) 0.8740(2)
C15_5 C 0.62147(17) 0.54094(13) 0.79923(19)
H3_5 H 0.626188 0.528438 0.844036
C16_5 C 0.82991(16) 0.78718(14) 0.6729(2)
H4_5 H 0.837150 0.795220 0.632534
C17_5 C 0.91502(14) 0.55387(11) 0.9195(2)
C18_5 C 0.58425(15) 0.87368(12) 0.5885(2)
C19_5 C 0.80772(15) 0.76287(13) 0.7929(2)
H5_5 H 0.800689 0.754546 0.833343
C20_5 C 0.55379(14) 0.68955(14) 0.6369(2)
C21_5 C 0.55582(15) 0.92235(11) 0.5574(2)
C22_5 C 0.64280(17) 0.58805(13) 0.7946(2)
H6_5 H 0.660699 0.607142 0.836038
C23_5 C 0.6119(2) 0.57699(15) 0.6674(2)
H7_5 H 0.610330 0.588249 0.623277
C24_5 C 0.46383(18) 0.70160(19) 0.5294(2)
H8_4 H 0.445248 0.713672 0.482451
C25_5 C 0.5999(2) 0.80750(16) 0.6730(3)
H9_5 H 0.594351 0.794318 0.712275
C26_5 C 0.80756(18) 0.62859(17) 0.7624(3)
H10_5 H 0.802035 0.637070 0.715525
C27_5 C 0.5756(2) 0.85324(17) 0.6456(3)
H11_5 H 0.553227 0.870193 0.666123
C28_5 C 0.51926(18) 0.6678(3) 0.6689(3)
H12_5 H 0.537239 0.656364 0.716242
C29_5 C 0.43025(18) 0.6798(2) 0.5611(3)
C30_5 C 0.4581(2) 0.6632(3) 0.6306(3)
H13_5 H 0.435477 0.648411 0.652620
C31_5 C 0.3645(2) 0.6724(3) 0.5207(3)
C32_5 C 0.3933(3) 0.3606(2) 0.5216(3)
H14_4 H 0.396649 0.357423 0.475681
H15_5 H 0.401861 0.328604 0.545313
C33_5 C 0.3314(3) 0.3756(3) 0.5087(4)
H16_5 H 0.328903 0.380769 0.554837
H17_4 H 0.322267 0.406758 0.482697
C34_4 C 0.2853(5) 0.3370(5) 0.4655(5)
H18_4 H 0.300845 0.304684 0.484773
H19_4 H 0.281819 0.337965 0.416001
C35_4 C 0.2282(4) 0.3411(5) 0.4639(7)
H20_5 H 0.230204 0.358438 0.506262
H21_4 H 0.203155 0.359078 0.421537
H22_4 H 0.211908 0.308744 0.462965
C36_5 C 0.77950(15) 0.76015(14) 0.6649(2)
H23_5 H 0.753397 0.749924 0.619030
C37_5 C 0.82493(18) 0.60416(15) 0.9021(2)
H24_5 H 0.830659 0.596189 0.949209
C38_5 C 0.61563(19) 0.84776(14) 0.5567(3)
H25_5 H 0.620597 0.860939 0.516996
C39_5 C 0.77710(17) 0.63375(15) 0.8602(2)
H26_5 H 0.751388 0.646170 0.879640
C40_5 C 0.52538(16) 0.70603(15) 0.5663(2)
H27_5 H 0.547716 0.720182 0.543426
C41_5 C 0.85636(19) 0.59949(16) 0.8046(3)
H28_5 H 0.883535 0.588859 0.786184
C42_5 C 0.63991(19) 0.80176(14) 0.5840(3)
H29_5 H 0.661560 0.784630 0.562772
C43_5 C 0.5886(2) 0.53104(15) 0.6715(2)
H30_5 H 0.569789 0.512291 0.629878
H38_4 H 0.303(2) 0.679(2) 0.432(3)
Cu3_2 Cu 0.52324(2) 0.39474(2) 0.82125(2)
Cu4_2 Cu 0.97676(2) 0.89474(2) 0.67875(2)
O15_3 O 0.42433(10) 0.34501(9) 0.68852(13)
O16_3 O 0.54074(10) 0.34516(8) 0.69049(13)
O17_3 O 0.42765(11) 0.44815(9) 0.69774(14)
O18_3 O 0.93684(12) 0.43834(9) 0.99678(18)
O12_5 O 0.65832(16) 0.6897(2) 0.0435(2)
H8_5 H 0.554752 0.713672 0.017549
H14_5 H 0.603351 0.357423 0.024319
H17_5 H 0.677733 0.406758 0.017303
C34_5 C 0.7147(5) 0.3370(5) 0.0345(5)
H18_5 H 0.699155 0.304684 0.015227
H19_5 H 0.718181 0.337965 0.083999
C35_5 C 0.7718(4) 0.3411(5) 0.0361(7)
H21_5 H 0.796845 0.359078 0.078463
H22_5 H 0.788092 0.308744 0.037035
H38_5 H 0.697(2) 0.679(2) 0.068(3)
O3_6 O 0.0614(2) 0.49418(18) 0.3747(3)
O4_6 O 0.66628(17) 0.6555(3) 0.9499(3)
O5_4 O 0.07567(10) 0.84501(9) 0.81148(13)
O6_4 O 0.04074(10) 0.84516(8) 0.69049(13)
O8_6 O 0.08493(12) 0.53952(10) 0.52168(16)
O9_6 O 0.46823(12) 0.44613(9) 0.81895(14)
O10_4 O 0.43684(12) 0.93834(9) 0.99678(18)
O11_6 O 0.56599(14) 0.39442(12) 0.93628(15)
H1_6 H 0.5494(17) 0.4080(17) 0.9619(10)
C1_6 C 0.34522(13) 0.73203(10) 0.82817(19)
C2_6 C 0.07765(13) 0.83314(10) 0.75279(17)
C3_6 C 0.28590(12) 0.71939(10) 0.78612(19)
N1_6 N 0.28548(12) 0.67323(11) 0.75588(19)
C4_6 C 0.34413(13) 0.65687(11) 0.77956(19)
C5_6 C 0.38120(13) 0.69315(11) 0.82461(19)
C6_6 C 0.13054(13) 0.80224(11) 0.75922(18)
C7_6 C 0.40643(15) 0.51288(12) 0.76186(19)
C8_6 C 0.23265(13) 0.74808(11) 0.77557(19)
C9_6 C 0.43558(14) 0.46487(11) 0.75863(19)
C10_6 C 0.23256(14) 0.64486(12) 0.7102(2)
C11_6 C 0.14159(14) 0.78996(12) 0.69881(19)
H2_6 H 0.115066 0.799884 0.652996
C12_6 C 0.36260(15) 0.60647(12) 0.7716(2)
C13_6 C 0.36770(14) 0.78124(12) 0.8578(2)
C14_6 C 0.13587(15) 0.58652(12) 0.6260(2)
C15_6 C 0.37853(17) 0.54094(13) 0.70077(19)
H3_6 H 0.373812 0.528438 0.655964
C16_6 C 0.17009(16) 0.78718(14) 0.8271(2)
H4_6 H 0.162850 0.795220 0.867466
C17_6 C 0.08498(14) 0.55387(11) 0.5805(2)
C18_6 C 0.41575(15) 0.87368(12) 0.9115(2)
C19_6 C 0.19228(15) 0.76287(13) 0.7071(2)
H5_6 H 0.199311 0.754546 0.666657
C20_6 C 0.44621(14) 0.68955(14) 0.8631(2)
C21_6 C 0.44418(15) 0.92235(11) 0.9426(2)
C22_6 C 0.35720(17) 0.58805(13) 0.7054(2)
H6_6 H 0.339301 0.607142 0.663962
C23_6 C 0.3881(2) 0.57699(15) 0.8326(2)
H7_6 H 0.389670 0.588249 0.876723
C24_6 C 0.53617(18) 0.70160(19) 0.9706(2)
C25_6 C 0.4001(2) 0.80750(16) 0.8270(3)
H9_6 H 0.405649 0.794318 0.787725
C26_6 C 0.19244(18) 0.62859(17) 0.7376(3)
H10_6 H 0.197965 0.637070 0.784475
C27_6 C 0.4244(2) 0.85324(17) 0.8544(3)
H11_6 H 0.446773 0.870193 0.833877
C28_6 C 0.48074(18) 0.6678(3) 0.8311(3)
H12_6 H 0.462761 0.656364 0.783758
C29_6 C 0.56975(18) 0.6798(2) 0.9389(3)
C30_6 C 0.5419(2) 0.6632(3) 0.8694(3)
H13_6 H 0.564523 0.648411 0.847380
C31_6 C 0.6355(2) 0.6724(3) 0.9793(3)
C32_6 C 0.6067(3) 0.3606(2) 0.9784(3)
H15_6 H 0.598139 0.328604 0.954687
C33_6 C 0.6686(3) 0.3756(3) 0.9913(4)
H16_6 H 0.671097 0.380769 0.945163
H20_6 H 0.769796 0.358438 0.993738
C36_6 C 0.22050(15) 0.76015(14) 0.8351(2)
H23_6 H 0.246603 0.749924 0.880970
C37_6 C 0.17507(18) 0.60416(15) 0.5979(2)
H24_6 H 0.169341 0.596189 0.550791
C38_6 C 0.38437(19) 0.84776(14) 0.9433(3)
H25_6 H 0.379403 0.860939 0.983004
C39_6 C 0.22290(17) 0.63375(15) 0.6398(2)
H26_6 H 0.248612 0.646170 0.620360
C40_6 C 0.47462(16) 0.70603(15) 0.9337(2)
H27_6 H 0.452284 0.720182 0.956574
C41_6 C 0.14364(19) 0.59949(16) 0.6954(3)
H28_6 H 0.116465 0.588859 0.713816
C42_6 C 0.36009(19) 0.80176(14) 0.9160(3)
H29_6 H 0.338440 0.784630 0.937228
C43_6 C 0.4114(2) 0.53104(15) 0.8285(2)
H30_6 H 0.430211 0.512291 0.870122
N2_6 N 0.1277(11) 0.5052(7) 0.3361(10)
C44_6 C 0.0927(14) 0.5252(12) 0.2652(12)
H31_6 H 0.118109 0.530588 0.240041
H32_6 H 0.075180 0.555951 0.269970
H33_6 H 0.061697 0.502246 0.238386
C45_6 C 0.1097(15) 0.4928(10) 0.3867(16)
H34_6 H 0.137177 0.483014 0.432082
C46_6 C 0.1926(11) 0.4952(12) 0.3605(16)
H35_6 H 0.205254 0.504425 0.323057
H36_6 H 0.200154 0.460668 0.371023
H37_6 H 0.214503 0.514157 0.403271
O15_4 O 0.57567(10) 0.34501(9) 0.81148(13)
O16_4 O 0.45926(10) 0.34516(8) 0.80951(13)
O18_4 O 0.06316(12) 0.43834(9) 0.50322(18)
N2_7 N 0.3723(11) 0.0052(7) 0.1639(10)
C44_7 C 0.4073(14) 0.0252(12) 0.2348(12)
H31_7 H 0.381891 0.030588 0.259959
H32_7 H 0.424820 0.055951 0.230030
H33_7 H 0.438303 0.002246 0.261614
H35_7 H 0.294746 0.004425 0.176943
H37_7 H 0.285497 0.014157 0.096729
O8_7 O 0.41507(12) 0.03952(10) 0.97832(16)
C1_7 C 0.15478(13) 0.23203(10) 0.67183(19)
C2_7 C 0.42235(13) 0.33314(10) 0.74721(17)
C3_7 C 0.21410(12) 0.21939(10) 0.71388(19)
N1_7 N 0.21452(12) 0.17323(11) 0.74412(19)
C4_7 C 0.15587(13) 0.15687(11) 0.72044(19)
C5_7 C 0.11880(13) 0.19315(11) 0.67539(19)
C6_7 C 0.36946(13) 0.30224(11) 0.74078(18)
C7_7 C 0.09357(15) 0.01288(12) 0.73814(19)
C8_7 C 0.26735(13) 0.24808(11) 0.72443(19)
C10_7 C 0.26744(14) 0.14486(12) 0.7898(2)
C11_7 C 0.35841(14) 0.28996(12) 0.80119(19)
H2_7 H 0.384934 0.299884 0.847004
C12_7 C 0.13740(15) 0.10647(12) 0.7284(2)
C13_7 C 0.13230(14) 0.28124(12) 0.6422(2)
C14_7 C 0.36413(15) 0.08652(12) 0.8740(2)
C15_7 C 0.12147(17) 0.04094(13) 0.79923(19)
H3_7 H 0.126188 0.028438 0.844036
C16_7 C 0.32991(16) 0.28718(14) 0.6729(2)
H4_7 H 0.337150 0.295220 0.632534
C17_7 C 0.41502(14) 0.05387(11) 0.9195(2)
C18_7 C 0.08425(15) 0.37368(12) 0.5885(2)
C19_7 C 0.30772(15) 0.26287(13) 0.7929(2)
H5_7 H 0.300689 0.254546 0.833343
C20_7 C 0.05379(14) 0.18955(14) 0.6369(2)
C21_7 C 0.05582(15) 0.42235(11) 0.5574(2)
C22_7 C 0.14280(17) 0.08805(13) 0.7946(2)
H6_7 H 0.160699 0.107142 0.836038
C23_7 C 0.1119(2) 0.07699(15) 0.6674(2)
H7_7 H 0.110330 0.088249 0.623277
C25_7 C 0.0999(2) 0.30750(16) 0.6730(3)
H9_7 H 0.094351 0.294318 0.712275
C26_7 C 0.30756(18) 0.12859(17) 0.7624(3)
H10_7 H 0.302035 0.137070 0.715525
C27_7 C 0.0756(2) 0.35324(17) 0.6456(3)
H11_7 H 0.053227 0.370193 0.666123
C28_7 C 0.01926(18) 0.1678(3) 0.6689(3)
H12_7 H 0.037239 0.156364 0.716242
C36_7 C 0.27950(15) 0.26015(14) 0.6649(2)
H23_7 H 0.253397 0.249924 0.619030
C37_7 C 0.32493(18) 0.10416(15) 0.9021(2)
H24_7 H 0.330659 0.096189 0.949209
C38_7 C 0.11563(19) 0.34776(14) 0.5567(3)
H25_7 H 0.120597 0.360939 0.516996
C39_7 C 0.27710(17) 0.13375(15) 0.8602(2)
H26_7 H 0.251388 0.146170 0.879640
C40_7 C 0.02538(16) 0.20603(15) 0.5663(2)
H27_7 H 0.047716 0.220182 0.543426
C41_7 C 0.35636(19) 0.09949(16) 0.8046(3)
H28_7 H 0.383535 0.088859 0.786184
C42_7 C 0.13991(19) 0.30176(14) 0.5840(3)
H29_7 H 0.161560 0.284630 0.562772
C43_7 C 0.0886(2) 0.03104(15) 0.6715(2)
H30_7 H 0.069789 0.012291 0.629878
O3_7 O 0.4386(2) 0.99418(18) 0.1253(3)
C45_7 C 0.3903(15) 0.9928(10) 0.1133(16)
H34_7 H 0.362823 0.983014 0.067918
C46_7 C 0.3074(11) 0.9952(12) 0.1395(16)
H36_7 H 0.299846 0.960668 0.128977
O7_4 O 0.07235(11) 0.94815(9) 0.80226(14)
O9_7 O 0.03177(12) 0.94613(9) 0.68105(14)
C9_7 C 0.06442(14) 0.96487(11) 0.74137(19)
O4_7 O 0.83372(17) 0.1555(3) 0.5501(3)
O12_6 O 0.84168(16) 0.1897(2) 0.4565(2)
C24_7 C 0.96383(18) 0.20160(19) 0.5294(2)
H8_6 H 0.945248 0.213672 0.482451
C29_7 C 0.93025(18) 0.1798(2) 0.5611(3)
C30_7 C 0.9581(2) 0.1632(3) 0.6306(3)
H13_7 H 0.935477 0.148411 0.652620
C31_7 C 0.8645(2) 0.1724(3) 0.5207(3)
H38_6 H 0.803(2) 0.179(2) 0.432(3)
O11_7 O 0.93401(14) 0.89442(12) 0.56372(15)
H1_7 H 0.9506(17) 0.9080(17) 0.5381(10)
C32_7 C 0.8933(3) 0.8606(2) 0.5216(3)
H14_6 H 0.896649 0.857423 0.475681
H15_7 H 0.901861 0.828604 0.545313
C33_7 C 0.8314(3) 0.8756(3) 0.5087(4)
H16_7 H 0.828903 0.880769 0.554837
H17_6 H 0.822267 0.906758 0.482697
C34_6 C 0.7853(5) 0.8370(5) 0.4655(5)
H18_6 H 0.800845 0.804684 0.484773
H19_6 H 0.781819 0.837965 0.416001
C35_6 C 0.7282(4) 0.8411(5) 0.4639(7)
H20_7 H 0.730204 0.858438 0.506262
H21_6 H 0.703155 0.859078 0.421537
H22_6 H 0.711908 0.808744 0.462965
O17_4 O 0.92765(11) 0.94815(9) 0.69774(14)
O4_8 O 0.16628(17) 0.1555(3) 0.9499(3)
C24_8 C 0.03617(18) 0.20160(19) 0.9706(2)
C29_8 C 0.06975(18) 0.1798(2) 0.9389(3)
C30_8 C 0.0419(2) 0.1632(3) 0.8694(3)
H13_8 H 0.064523 0.148411 0.847380
C31_8 C 0.1355(2) 0.1724(3) 0.9793(3)
O11_8 O 0.06599(14) 0.89442(12) 0.93628(15)
H1_8 H 0.0494(17) 0.9080(17) 0.9619(10)
C32_8 C 0.1067(3) 0.8606(2) 0.9784(3)
H15_8 H 0.098139 0.828604 0.954687
C33_8 C 0.1686(3) 0.8756(3) 0.9913(4)
H16_8 H 0.171097 0.880769 0.945163
H20_8 H 0.269796 0.858438 0.993738
O8_8 O 0.58493(12) 0.03952(10) 0.52168(16)
C1_8 C 0.84522(13) 0.23203(10) 0.82817(19)
C2_8 C 0.57765(13) 0.33314(10) 0.75279(17)
C3_8 C 0.78590(12) 0.21939(10) 0.78612(19)
N1_8 N 0.78548(12) 0.17323(11) 0.75588(19)
C4_8 C 0.84413(13) 0.15687(11) 0.77956(19)
C5_8 C 0.88120(13) 0.19315(11) 0.82461(19)
C6_8 C 0.63054(13) 0.30224(11) 0.75922(18)
C7_8 C 0.90643(15) 0.01288(12) 0.76186(19)
C8_8 C 0.73265(13) 0.24808(11) 0.77557(19)
C10_8 C 0.73256(14) 0.14486(12) 0.7102(2)
C11_8 C 0.64159(14) 0.28996(12) 0.69881(19)
H2_8 H 0.615066 0.299884 0.652996
C12_8 C 0.86260(15) 0.10647(12) 0.7716(2)
C13_8 C 0.86770(14) 0.28124(12) 0.8578(2)
C14_8 C 0.63587(15) 0.08652(12) 0.6260(2)
C15_8 C 0.87853(17) 0.04094(13) 0.70077(19)
H3_8 H 0.873812 0.028438 0.655964
C16_8 C 0.67009(16) 0.28718(14) 0.8271(2)
H4_8 H 0.662850 0.295220 0.867466
C17_8 C 0.58498(14) 0.05387(11) 0.5805(2)
C18_8 C 0.91575(15) 0.37368(12) 0.9115(2)
C19_8 C 0.69228(15) 0.26287(13) 0.7071(2)
H5_8 H 0.699311 0.254546 0.666657
C20_8 C 0.94621(14) 0.18955(14) 0.8631(2)
C21_8 C 0.94418(15) 0.42235(11) 0.9426(2)
C22_8 C 0.85720(17) 0.08805(13) 0.7054(2)
H6_8 H 0.839301 0.107142 0.663962
C23_8 C 0.8881(2) 0.07699(15) 0.8326(2)
H7_8 H 0.889670 0.088249 0.876723
C25_8 C 0.9001(2) 0.30750(16) 0.8270(3)
H9_8 H 0.905649 0.294318 0.787725
C26_8 C 0.69244(18) 0.12859(17) 0.7376(3)
H10_8 H 0.697965 0.137070 0.784475
C27_8 C 0.9244(2) 0.35324(17) 0.8544(3)
H11_8 H 0.946773 0.370193 0.833877
C28_8 C 0.98074(18) 0.1678(3) 0.8311(3)
H12_8 H 0.962761 0.156364 0.783758
C36_8 C 0.72050(15) 0.26015(14) 0.8351(2)
H23_8 H 0.746603 0.249924 0.880970
C37_8 C 0.67507(18) 0.10416(15) 0.5979(2)
H24_8 H 0.669341 0.096189 0.550791
C38_8 C 0.88437(19) 0.34776(14) 0.9433(3)
H25_8 H 0.879403 0.360939 0.983004
C39_8 C 0.72290(17) 0.13375(15) 0.6398(2)
H26_8 H 0.748612 0.146170 0.620360
C40_8 C 0.97462(16) 0.20603(15) 0.9337(2)
H27_8 H 0.952284 0.220182 0.956574
C41_8 C 0.64364(19) 0.09949(16) 0.6954(3)
H28_8 H 0.616465 0.088859 0.713816
C42_8 C 0.86009(19) 0.30176(14) 0.9160(3)
H29_8 H 0.838440 0.284630 0.937228
C43_8 C 0.9114(2) 0.03104(15) 0.8285(2)
H30_8 H 0.930211 0.012291 0.870122
N2_8 N 0.6277(11) 0.0052(7) 0.3361(10)
C44_8 C 0.5927(14) 0.0252(12) 0.2652(12)
H31_8 H 0.618109 0.030588 0.240041
H32_8 H 0.575180 0.055951 0.269970
H33_8 H 0.561697 0.002246 0.238386
H35_8 H 0.705254 0.004425 0.323057
H37_8 H 0.714503 0.014157 0.403271
O3_8 O 0.5614(2) 0.99418(18) 0.3747(3)
O9_8 O 0.96823(12) 0.94613(9) 0.81895(14)
C9_8 C 0.93558(14) 0.96487(11) 0.75863(19)
C45_8 C 0.6097(15) 0.9928(10) 0.3867(16)
H34_8 H 0.637177 0.983014 0.432082
C46_8 C 0.6926(11) 0.9952(12) 0.3605(16)
H36_8 H 0.700154 0.960668 0.371023
H14_7 H 0.896649 0.142577 0.975681
H17_7 H 0.822267 0.093242 0.982697
C34_7 C 0.7853(5) 0.1630(5) 0.9655(5)
H18_7 H 0.800845 0.195316 0.984773
H19_7 H 0.781819 0.162035 0.916001
C35_7 C 0.7282(4) 0.1589(5) 0.9639(7)
H21_7 H 0.703155 0.140922 0.921537
H22_7 H 0.711908 0.191256 0.962965
O12_7 O 0.84168(16) 0.8103(2) 0.9565(2)
H8_7 H 0.945248 0.786328 0.982451
H38_7 H 0.803(2) 0.821(2) 0.932(3)
O12_8 O 0.15832(16) 0.1897(2) 0.0435(2)
H8_8 H 0.054752 0.213672 0.017549
H38_8 H 0.197(2) 0.179(2) 0.068(3)
H14_8 H 0.103351 0.857423 0.024319
H17_8 H 0.177733 0.906758 0.017303
C34_8 C 0.2147(5) 0.8370(5) 0.0345(5)
H18_8 H 0.199155 0.804684 0.015227
H19_8 H 0.218181 0.837965 0.083999
C35_8 C 0.2718(4) 0.8411(5) 0.0361(7)
H21_8 H 0.296845 0.859078 0.078463
H22_8 H 0.288092 0.808744 0.037035
loop_
_geom_bond_atom_site_label_1
_geom_bond_atom_site_label_2
_geom_bond_site_symmetry_1
_geom_bond_site_symmetry_2
Cu1 O9 1_555 1_555
O1 C17 1_555 1_555
O2 C21 1_555 1_555
O4 C31 1_555 1_555
O5 C2 1_555 1_555
O6 C2 1_555 1_555
O7 C9 1_555 1_555
O9 C9 1_555 1_555
O10 C21 1_555 1_555
O11 Cu1 1_555 1_555
H1 O11 1_555 1_555
O12 C31 1_555 1_555
C1 C3 1_555 1_555
C2 C6 1_555 1_555
C3 N1 1_555 1_555
N1 C4 1_555 1_555
C4 C5 1_555 1_555
C5 C1 1_555 1_555
C6 C11 1_555 1_555
C7 C9 1_555 1_555
C8 C3 1_555 1_555
C10 N1 1_555 1_555
C11 H2 1_555 1_555
C12 C4 1_555 1_555
C13 C1 1_555 1_555
C14 C17 1_555 1_555
C15 C7 1_555 1_555
H3 C15 1_555 1_555
C16 C6 1_555 1_555
H4 C16 1_555 1_555
C17 O8 1_555 1_555
C18 C21 1_555 1_555
C19 C8 1_555 1_555
H5 C19 1_555 1_555
C20 C5 1_555 1_555
C22 C12 1_555 1_555
H6 C22 1_555 1_555
C23 C12 1_555 1_555
H7 C23 1_555 1_555
C24 H8 1_555 1_555
C25 C13 1_555 1_555
H9 C25 1_555 1_555
C26 C10 1_555 1_555
H10 C26 1_555 1_555
C27 C18 1_555 1_555
H11 C27 1_555 1_555
C28 C20 1_555 1_555
H12 C28 1_555 1_555
C29 C24 1_555 1_555
C30 C28 1_555 1_555
H13 C30 1_555 1_555
C31 C29 1_555 1_555
C32 O11 1_555 1_555
H14 C32 1_555 1_555
H15 C32 1_555 1_555
C33 C32 1_555 1_555
H16 C33 1_555 1_555
H17 C33 1_555 1_555
C34 C33 1_555 1_555
H18 C34 1_555 1_555
H19 C34 1_555 1_555
C35 C34 1_555 1_555
H20 C35 1_555 1_555
H21 C35 1_555 1_555
H22 C35 1_555 1_555
C36 C8 1_555 1_555
H23 C36 1_555 1_555
C37 C14 1_555 1_555
H24 C37 1_555 1_555
C38 C18 1_555 1_555
H25 C38 1_555 1_555
C39 C10 1_555 1_555
H26 C39 1_555 1_555
C40 C20 1_555 1_555
H27 C40 1_555 1_555
C41 C14 1_555 1_555
H28 C41 1_555 1_555
C42 C13 1_555 1_555
H29 C42 1_555 1_555
C43 C7 1_555 1_555
H30 C43 1_555 1_555
H38 O12 1_555 1_555
Cu3 Cu1 1_555 1_555
Cu4 O5 1_555 1_555
Cu6 O10 1_555 1_555
O15 Cu1 1_555 1_555
O16 Cu1 1_555 1_555
O17 Cu1 1_555 1_555
O7 Cu3 1_555 1_555
C11 C19 1_555 1_555
C15 C22 1_555 1_555
C16 C36 1_555 1_555
C23 C43 1_555 1_555
C24 C40 1_555 1_555
C25 C27 1_555 1_555
C26 C41 1_555 1_555
C29 C30 1_555 1_555
C37 C39 1_555 1_555
C38 C42 1_555 1_555
Cu2 O3 1_555 1_555
O3 C45 1_555 1_555
N2 C44 1_555 1_555
C44 H31 1_555 1_555
H32 C44 1_555 1_555
H33 C44 1_555 1_555
C45 N2 1_555 1_555
H34 C45 1_555 1_555
C46 N2 1_555 1_555
H35 C46 1_555 1_555
H36 C46 1_555 1_555
H37 C46 1_555 1_555
Cu3 O9_2 1_555 1_555
Cu2_2 O3_2 1_555 1_555
O1_2 C17_2 1_555 1_555
O2_2 C21_2 1_555 1_555
O3_2 C45_2 1_555 1_555
O4_2 C31_2 1_555 1_555
O5_2 C2_2 1_555 1_555
O6_2 C2_2 1_555 1_555
O17 C9_2 1_555 1_555
O8_2 Cu2_2 1_555 1_555
O9_2 C9_2 1_555 1_555
O10_2 C21_2 1_555 1_555
O11_2 Cu3 1_555 1_555
H1_2 O11_2 1_555 1_555
C1_2 C3_2 1_555 1_555
C2_2 C6_2 1_555 1_555
C3_2 N1_2 1_555 1_555
N1_2 C4_2 1_555 1_555
C4_2 C5_2 1_555 1_555
C5_2 C1_2 1_555 1_555
C6_2 C11_2 1_555 1_555
C7_2 C9_2 1_555 1_555
C8_2 C3_2 1_555 1_555
C10_2 N1_2 1_555 1_555
C11_2 H2_2 1_555 1_555
C12_2 C4_2 1_555 1_555
C13_2 C1_2 1_555 1_555
C14_2 C17_2 1_555 1_555
C15_2 C7_2 1_555 1_555
H3_2 C15_2 1_555 1_555
C16_2 C6_2 1_555 1_555
H4_2 C16_2 1_555 1_555
C17_2 O8_2 1_555 1_555
C18_2 C21_2 1_555 1_555
C19_2 C8_2 1_555 1_555
H5_2 C19_2 1_555 1_555
C20_2 C5_2 1_555 1_555
C22_2 C12_2 1_555 1_555
H6_2 C22_2 1_555 1_555
C23_2 C12_2 1_555 1_555
H7_2 C23_2 1_555 1_555
C25_2 C13_2 1_555 1_555
H9_2 C25_2 1_555 1_555
C26_2 C10_2 1_555 1_555
H10_2 C26_2 1_555 1_555
C27_2 C18_2 1_555 1_555
H11_2 C27_2 1_555 1_555
C28_2 C20_2 1_555 1_555
H12_2 C28_2 1_555 1_555
C29_2 C24_2 1_555 1_555
C30_2 C28_2 1_555 1_555
H13_2 C30_2 1_555 1_555
C31_2 C29_2 1_555 1_555
C32_2 O11_2 1_555 1_555
H15_2 C32_2 1_555 1_555
C33_2 C32_2 1_555 1_555
H16_2 C33_2 1_555 1_555
C36_2 C8_2 1_555 1_555
H23_2 C36_2 1_555 1_555
C37_2 C14_2 1_555 1_555
H24_2 C37_2 1_555 1_555
C38_2 C18_2 1_555 1_555
H25_2 C38_2 1_555 1_555
C39_2 C10_2 1_555 1_555
H26_2 C39_2 1_555 1_555
C40_2 C20_2 1_555 1_555
H27_2 C40_2 1_555 1_555
C41_2 C14_2 1_555 1_555
H28_2 C41_2 1_555 1_555
C42_2 C13_2 1_555 1_555
H29_2 C42_2 1_555 1_555
C43_2 C7_2 1_555 1_555
H30_2 C43_2 1_555 1_555
N2_2 C44_2 1_555 1_555
C44_2 H31_2 1_555 1_555
H32_2 C44_2 1_555 1_555
H33_2 C44_2 1_555 1_555
C45_2 N2_2 1_555 1_555
H34_2 C45_2 1_555 1_555
C46_2 N2_2 1_555 1_555
H35_2 C46_2 1_555 1_555
H36_2 C46_2 1_555 1_555
H37_2 C46_2 1_555 1_555
Cu5 O5_2 1_555 1_555
O15_2 Cu3 1_555 1_555
O16_2 Cu3 1_555 1_555
O18_2 Cu2_2 1_555 1_555
C11_2 C19_2 1_555 1_555
C15_2 C22_2 1_555 1_555
C16_2 C36_2 1_555 1_555
C23_2 C43_2 1_555 1_555
C24_2 C40_2 1_555 1_555
C25_2 C27_2 1_555 1_555
C26_2 C41_2 1_555 1_555
C29_2 C30_2 1_555 1_555
C37_2 C39_2 1_555 1_555
C38_2 C42_2 1_555 1_555
H18_2 C34_2 1_555 1_555
H19_2 C34_2 1_555 1_555
C35_2 C34_2 1_555 1_555
H21_2 C35_2 1_555 1_555
H22_2 C35_2 1_555 1_555
H38_2 O12_2 1_555 1_555
O11_3 Cu4 1_555 1_555
H1_3 O11_3 1_555 1_555
C32_3 O11_3 1_555 1_555
H14_3 C32_3 1_555 1_555
H15_3 C32_3 1_555 1_555
C33_3 C32_3 1_555 1_555
H16_3 C33_3 1_555 1_555
H17_3 C33_3 1_555 1_555
C34_3 C33_3 1_555 1_555
H18_3 C34_3 1_555 1_555
H19_3 C34_3 1_555 1_555
C35_3 C34_3 1_555 1_555
H20_3 C35_3 1_555 1_555
H21_3 C35_3 1_555 1_555
H22_3 C35_3 1_555 1_555
O17_2 Cu4 1_555 1_555
O4_3 C31_3 1_555 1_555
O12_3 C31_3 1_555 1_555
C24_3 H8_3 1_555 1_555
C29_3 C24_3 1_555 1_555
H13_3 C30_3 1_555 1_555
C31_3 C29_3 1_555 1_555
H38_3 O12_3 1_555 1_555
C29_3 C30_3 1_555 1_555
O7_2 C9_3 1_555 1_555
O9_3 C9_3 1_555 1_555
O7_2 Cu5 1_555 1_555
Cu6_2 O3_3 1_555 1_555
O3_3 C45_3 1_555 1_555
H34_3 C45_3 1_555 1_555
H36_3 C46_3 1_555 1_555
O13_3 Cu6_2 1_555 1_555
O1_3 C17_3 1_555 1_555
O2_3 C21_3 1_555 1_555
O15 C2_3 1_555 1_555
O16_2 C2_3 1_555 1_555
O18_2 C21_3 1_555 1_555
C1_3 C3_3 1_555 1_555
C2_3 C6_3 1_555 1_555
C3_3 N1_3 1_555 1_555
N1_3 C4_3 1_555 1_555
C4_3 C5_3 1_555 1_555
C5_3 C1_3 1_555 1_555
C6_3 C11_3 1_555 1_555
C8_3 C3_3 1_555 1_555
C10_3 N1_3 1_555 1_555
C11_3 H2_3 1_555 1_555
C12_3 C4_3 1_555 1_555
C13_3 C1_3 1_555 1_555
C14_3 C17_3 1_555 1_555
C15_3 C7_3 1_555 1_555
H3_3 C15_3 1_555 1_555
C16_3 C6_3 1_555 1_555
H4_3 C16_3 1_555 1_555
C17_3 O8_3 1_555 1_555
C18_3 C21_3 1_555 1_555
C19_3 C8_3 1_555 1_555
H5_3 C19_3 1_555 1_555
C20_3 C5_3 1_555 1_555
C22_3 C12_3 1_555 1_555
H6_3 C22_3 1_555 1_555
C23_3 C12_3 1_555 1_555
H7_3 C23_3 1_555 1_555
C25_3 C13_3 1_555 1_555
H9_3 C25_3 1_555 1_555
C26_3 C10_3 1_555 1_555
H10_3 C26_3 1_555 1_555
C27_3 C18_3 1_555 1_555
H11_3 C27_3 1_555 1_555
C28_3 C20_3 1_555 1_555
H12_3 C28_3 1_555 1_555
C36_3 C8_3 1_555 1_555
H23_3 C36_3 1_555 1_555
C37_3 C14_3 1_555 1_555
H24_3 C37_3 1_555 1_555
C38_3 C18_3 1_555 1_555
H25_3 C38_3 1_555 1_555
C39_3 C10_3 1_555 1_555
H26_3 C39_3 1_555 1_555
C40_3 C20_3 1_555 1_555
H27_3 C40_3 1_555 1_555
C41_3 C14_3 1_555 1_555
H28_3 C41_3 1_555 1_555
C42_3 C13_3 1_555 1_555
H29_3 C42_3 1_555 1_555
C43_3 C7_3 1_555 1_555
H30_3 C43_3 1_555 1_555
O1_3 Cu8_2 1_555 1_555
C11_3 C19_3 1_555 1_555
C15_3 C22_3 1_555 1_555
C16_3 C36_3 1_555 1_555
C23_3 C43_3 1_555 1_555
C25_3 C27_3 1_555 1_555
C26_3 C41_3 1_555 1_555
C37_3 C39_3 1_555 1_555
C38_3 C42_3 1_555 1_555
N2_3 C44_3 1_555 1_555
C44_3 H31_3 1_555 1_555
H32_3 C44_3 1_555 1_555
H33_3 C44_3 1_555 1_555
Cu6 O3_4 1_555 1_555
O3_4 C45_4 1_555 1_555
O17_2 C9_4 1_555 1_555
O9_4 C9_4 1_555 1_555
H34_4 C45_4 1_555 1_555
H36_4 C46_4 1_555 1_555
O13_4 Cu6 1_555 1_555
O1_4 C17_4 1_555 1_555
O2_4 C21_4 1_555 1_555
O15_2 C2_4 1_555 1_555
O16 C2_4 1_555 1_555
O18 C21_4 1_555 1_555
C1_4 C3_4 1_555 1_555
C2_4 C6_4 1_555 1_555
C3_4 N1_4 1_555 1_555
N1_4 C4_4 1_555 1_555
C4_4 C5_4 1_555 1_555
C5_4 C1_4 1_555 1_555
C6_4 C11_4 1_555 1_555
C8_4 C3_4 1_555 1_555
C10_4 N1_4 1_555 1_555
C11_4 H2_4 1_555 1_555
C12_4 C4_4 1_555 1_555
C13_4 C1_4 1_555 1_555
C14_4 C17_4 1_555 1_555
C15_4 C7_4 1_555 1_555
H3_4 C15_4 1_555 1_555
C16_4 C6_4 1_555 1_555
H4_4 C16_4 1_555 1_555
C17_4 O8_4 1_555 1_555
C18_4 C21_4 1_555 1_555
C19_4 C8_4 1_555 1_555
H5_4 C19_4 1_555 1_555
C20_4 C5_4 1_555 1_555
C22_4 C12_4 1_555 1_555
H6_4 C22_4 1_555 1_555
C23_4 C12_4 1_555 1_555
H7_4 C23_4 1_555 1_555
C25_4 C13_4 1_555 1_555
H9_4 C25_4 1_555 1_555
C26_4 C10_4 1_555 1_555
H10_4 C26_4 1_555 1_555
C27_4 C18_4 1_555 1_555
H11_4 C27_4 1_555 1_555
C28_4 C20_4 1_555 1_555
H12_4 C28_4 1_555 1_555
C36_4 C8_4 1_555 1_555
H23_4 C36_4 1_555 1_555
C37_4 C14_4 1_555 1_555
H24_4 C37_4 1_555 1_555
C38_4 C18_4 1_555 1_555
H25_4 C38_4 1_555 1_555
C39_4 C10_4 1_555 1_555
H26_4 C39_4 1_555 1_555
C40_4 C20_4 1_555 1_555
H27_4 C40_4 1_555 1_555
C41_4 C14_4 1_555 1_555
H28_4 C41_4 1_555 1_555
C42_4 C13_4 1_555 1_555
H29_4 C42_4 1_555 1_555
C43_4 C7_4 1_555 1_555
H30_4 C43_4 1_555 1_555
N2_4 C44_4 1_555 1_555
C44_4 H31_4 1_555 1_555
H32_4 C44_4 1_555 1_555
H33_4 C44_4 1_555 1_555
O1_4 Cu8 1_555 1_555
C11_4 C19_4 1_555 1_555
C15_4 C22_4 1_555 1_555
C16_4 C36_4 1_555 1_555
C23_4 C43_4 1_555 1_555
C25_4 C27_4 1_555 1_555
C26_4 C41_4 1_555 1_555
C37_4 C39_4 1_555 1_555
C38_4 C42_4 1_555 1_555
O11_4 Cu5 1_555 1_555
H1_4 O11_4 1_555 1_555
C32_4 O11_4 1_555 1_555
H15_4 C32_4 1_555 1_555
C33_4 C32_4 1_555 1_555
H16_4 C33_4 1_555 1_555
O4_4 C31_4 1_555 1_555
C29_4 C24_4 1_555 1_555
H13_4 C30_4 1_555 1_555
C31_4 C29_4 1_555 1_555
C29_4 C30_4 1_555 1_555
Cu7 O3_5 1_555 1_555
O3_5 C45_5 1_555 1_555
N2_5 C44_5 1_555 1_555
C44_5 H31_5 1_555 1_555
H32_5 C44_5 1_555 1_555
H33_5 C44_5 1_555 1_555
C45_5 N2_5 1_555 1_555
H34_5 C45_5 1_555 1_555
C46_5 N2_5 1_555 1_555
H35_5 C46_5 1_555 1_555
H36_5 C46_5 1_555 1_555
H37_5 C46_5 1_555 1_555
Cu1_2 O9_5 1_555 1_555
O13 C17_5 1_555 1_555
O14_4 C21_5 1_555 1_555
O4_5 C31_5 1_555 1_555
O5_3 C2_5 1_555 1_555
O6_3 C2_5 1_555 1_555
O7_3 C9_5 1_555 1_555
O9_5 C9_5 1_555 1_555
O10_3 C21_5 1_555 1_555
O11_5 Cu1_2 1_555 1_555
H1_5 O11_5 1_555 1_555
O12_4 C31_5 1_555 1_555
C1_5 C3_5 1_555 1_555
C2_5 C6_5 1_555 1_555
C3_5 N1_5 1_555 1_555
N1_5 C4_5 1_555 1_555
C4_5 C5_5 1_555 1_555
C5_5 C1_5 1_555 1_555
C6_5 C11_5 1_555 1_555
C7_5 C9_5 1_555 1_555
C8_5 C3_5 1_555 1_555
C10_5 N1_5 1_555 1_555
C11_5 H2_5 1_555 1_555
C12_5 C4_5 1_555 1_555
C13_5 C1_5 1_555 1_555
C14_5 C17_5 1_555 1_555
C15_5 C7_5 1_555 1_555
H3_5 C15_5 1_555 1_555
C16_5 C6_5 1_555 1_555
H4_5 C16_5 1_555 1_555
C17_5 O8_5 1_555 1_555
C18_5 C21_5 1_555 1_555
C19_5 C8_5 1_555 1_555
H5_5 C19_5 1_555 1_555
C20_5 C5_5 1_555 1_555
C22_5 C12_5 1_555 1_555
H6_5 C22_5 1_555 1_555
C23_5 C12_5 1_555 1_555
H7_5 C23_5 1_555 1_555
C24_5 H8_4 1_555 1_555
C25_5 C13_5 1_555 1_555
H9_5 C25_5 1_555 1_555
C26_5 C10_5 1_555 1_555
H10_5 C26_5 1_555 1_555
C27_5 C18_5 1_555 1_555
H11_5 C27_5 1_555 1_555
C28_5 C20_5 1_555 1_555
H12_5 C28_5 1_555 1_555
C29_5 C24_5 1_555 1_555
C30_5 C28_5 1_555 1_555
H13_5 C30_5 1_555 1_555
C31_5 C29_5 1_555 1_555
C32_5 O11_5 1_555 1_555
H14_4 C32_5 1_555 1_555
H15_5 C32_5 1_555 1_555
C33_5 C32_5 1_555 1_555
H16_5 C33_5 1_555 1_555
H17_4 C33_5 1_555 1_555
C34_4 C33_5 1_555 1_555
H18_4 C34_4 1_555 1_555
H19_4 C34_4 1_555 1_555
C35_4 C34_4 1_555 1_555
H20_5 C35_4 1_555 1_555
H21_4 C35_4 1_555 1_555
H22_4 C35_4 1_555 1_555
C36_5 C8_5 1_555 1_555
H23_5 C36_5 1_555 1_555
C37_5 C14_5 1_555 1_555
H24_5 C37_5 1_555 1_555
C38_5 C18_5 1_555 1_555
H25_5 C38_5 1_555 1_555
C39_5 C10_5 1_555 1_555
H26_5 C39_5 1_555 1_555
C40_5 C20_5 1_555 1_555
H27_5 C40_5 1_555 1_555
C41_5 C14_5 1_555 1_555
H28_5 C41_5 1_555 1_555
C42_5 C13_5 1_555 1_555
H29_5 C42_5 1_555 1_555
C43_5 C7_5 1_555 1_555
H30_5 C43_5 1_555 1_555
H38_4 O12_4 1_555 1_555
Cu3_2 Cu1_2 1_555 1_555
Cu4_2 O5_3 1_555 1_555
Cu8 O10_3 1_555 1_555
O15_3 Cu1_2 1_555 1_555
O16_3 Cu1_2 1_555 1_555
O17_3 Cu1_2 1_555 1_555
O7_3 Cu3_2 1_555 1_555
C11_5 C19_5 1_555 1_555
C15_5 C22_5 1_555 1_555
C16_5 C36_5 1_555 1_555
C23_5 C43_5 1_555 1_555
C24_5 C40_5 1_555 1_555
C25_5 C27_5 1_555 1_555
C26_5 C41_5 1_555 1_555
C29_5 C30_5 1_555 1_555
C37_5 C39_5 1_555 1_555
C38_5 C42_5 1_555 1_555
H18_5 C34_5 1_555 1_555
H19_5 C34_5 1_555 1_555
C35_5 C34_5 1_555 1_555
H21_5 C35_5 1_555 1_555
H22_5 C35_5 1_555 1_555
H38_5 O12_5 1_555 1_555
Cu3_2 O9_6 1_555 1_555
Cu7_2 O3_6 1_555 1_555
O13_2 C17_6 1_555 1_555
O14_3 C21_6 1_555 1_555
O3_6 C45_6 1_555 1_555
O4_6 C31_6 1_555 1_555
O5_4 C2_6 1_555 1_555
O6_4 C2_6 1_555 1_555
O17_3 C9_6 1_555 1_555
O8_6 Cu7_2 1_555 1_555
O9_6 C9_6 1_555 1_555
O10_4 C21_6 1_555 1_555
O11_6 Cu3_2 1_555 1_555
H1_6 O11_6 1_555 1_555
C1_6 C3_6 1_555 1_555
C2_6 C6_6 1_555 1_555
C3_6 N1_6 1_555 1_555
N1_6 C4_6 1_555 1_555
C4_6 C5_6 1_555 1_555
C5_6 C1_6 1_555 1_555
C6_6 C11_6 1_555 1_555
C7_6 C9_6 1_555 1_555
C8_6 C3_6 1_555 1_555
C10_6 N1_6 1_555 1_555
C11_6 H2_6 1_555 1_555
C12_6 C4_6 1_555 1_555
C13_6 C1_6 1_555 1_555
C14_6 C17_6 1_555 1_555
C15_6 C7_6 1_555 1_555
H3_6 C15_6 1_555 1_555
C16_6 C6_6 1_555 1_555
H4_6 C16_6 1_555 1_555
C17_6 O8_6 1_555 1_555
C18_6 C21_6 1_555 1_555
C19_6 C8_6 1_555 1_555
H5_6 C19_6 1_555 1_555
C20_6 C5_6 1_555 1_555
C22_6 C12_6 1_555 1_555
H6_6 C22_6 1_555 1_555
C23_6 C12_6 1_555 1_555
H7_6 C23_6 1_555 1_555
C25_6 C13_6 1_555 1_555
H9_6 C25_6 1_555 1_555
C26_6 C10_6 1_555 1_555
H10_6 C26_6 1_555 1_555
C27_6 C18_6 1_555 1_555
H11_6 C27_6 1_555 1_555
C28_6 C20_6 1_555 1_555
H12_6 C28_6 1_555 1_555
C29_6 C24_6 1_555 1_555
C30_6 C28_6 1_555 1_555
H13_6 C30_6 1_555 1_555
C31_6 C29_6 1_555 1_555
C32_6 O11_6 1_555 1_555
H15_6 C32_6 1_555 1_555
C33_6 C32_6 1_555 1_555
H16_6 C33_6 1_555 1_555
C36_6 C8_6 1_555 1_555
H23_6 C36_6 1_555 1_555
C37_6 C14_6 1_555 1_555
H24_6 C37_6 1_555 1_555
C38_6 C18_6 1_555 1_555
H25_6 C38_6 1_555 1_555
C39_6 C10_6 1_555 1_555
H26_6 C39_6 1_555 1_555
C40_6 C20_6 1_555 1_555
H27_6 C40_6 1_555 1_555
C41_6 C14_6 1_555 1_555
H28_6 C41_6 1_555 1_555
C42_6 C13_6 1_555 1_555
H29_6 C42_6 1_555 1_555
C43_6 C7_6 1_555 1_555
H30_6 C43_6 1_555 1_555
N2_6 C44_6 1_555 1_555
C44_6 H31_6 1_555 1_555
H32_6 C44_6 1_555 1_555
H33_6 C44_6 1_555 1_555
C45_6 N2_6 1_555 1_555
H34_6 C45_6 1_555 1_555
C46_6 N2_6 1_555 1_555
H35_6 C46_6 1_555 1_555
H36_6 C46_6 1_555 1_555
H37_6 C46_6 1_555 1_555
Cu5_2 O5_4 1_555 1_555
O15_4 Cu3_2 1_555 1_555
O16_4 Cu3_2 1_555 1_555
O18_4 Cu7_2 1_555 1_555
C11_6 C19_6 1_555 1_555
C15_6 C22_6 1_555 1_555
C16_6 C36_6 1_555 1_555
C23_6 C43_6 1_555 1_555
C24_6 C40_6 1_555 1_555
C25_6 C27_6 1_555 1_555
C26_6 C41_6 1_555 1_555
C29_6 C30_6 1_555 1_555
C37_6 C39_6 1_555 1_555
C38_6 C42_6 1_555 1_555
N2_7 C44_7 1_555 1_555
C44_7 H31_7 1_555 1_555
H32_7 C44_7 1_555 1_555
H33_7 C44_7 1_555 1_555
O13_3 C17_7 1_555 1_555
O14_2 C21_7 1_555 1_555
O15_3 C2_7 1_555 1_555
O16_4 C2_7 1_555 1_555
O18_4 C21_7 1_555 1_555
C1_7 C3_7 1_555 1_555
C2_7 C6_7 1_555 1_555
C3_7 N1_7 1_555 1_555
N1_7 C4_7 1_555 1_555
C4_7 C5_7 1_555 1_555
C5_7 C1_7 1_555 1_555
C6_7 C11_7 1_555 1_555
C8_7 C3_7 1_555 1_555
C10_7 N1_7 1_555 1_555
C11_7 H2_7 1_555 1_555
C12_7 C4_7 1_555 1_555
C13_7 C1_7 1_555 1_555
C14_7 C17_7 1_555 1_555
C15_7 C7_7 1_555 1_555
H3_7 C15_7 1_555 1_555
C16_7 C6_7 1_555 1_555
H4_7 C16_7 1_555 1_555
C17_7 O8_7 1_555 1_555
C18_7 C21_7 1_555 1_555
C19_7 C8_7 1_555 1_555
H5_7 C19_7 1_555 1_555
C20_7 C5_7 1_555 1_555
C22_7 C12_7 1_555 1_555
H6_7 C22_7 1_555 1_555
C23_7 C12_7 1_555 1_555
H7_7 C23_7 1_555 1_555
C25_7 C13_7 1_555 1_555
H9_7 C25_7 1_555 1_555
C26_7 C10_7 1_555 1_555
H10_7 C26_7 1_555 1_555
C27_7 C18_7 1_555 1_555
H11_7 C27_7 1_555 1_555
C28_7 C20_7 1_555 1_555
H12_7 C28_7 1_555 1_555
C36_7 C8_7 1_555 1_555
H23_7 C36_7 1_555 1_555
C37_7 C14_7 1_555 1_555
H24_7 C37_7 1_555 1_555
C38_7 C18_7 1_555 1_555
H25_7 C38_7 1_555 1_555
C39_7 C10_7 1_555 1_555
H26_7 C39_7 1_555 1_555
C40_7 C20_7 1_555 1_555
H27_7 C40_7 1_555 1_555
C41_7 C14_7 1_555 1_555
H28_7 C41_7 1_555 1_555
C42_7 C13_7 1_555 1_555
H29_7 C42_7 1_555 1_555
C43_7 C7_7 1_555 1_555
H30_7 C43_7 1_555 1_555
C11_7 C19_7 1_555 1_555
C15_7 C22_7 1_555 1_555
C16_7 C36_7 1_555 1_555
C23_7 C43_7 1_555 1_555
C25_7 C27_7 1_555 1_555
C26_7 C41_7 1_555 1_555
C37_7 C39_7 1_555 1_555
C38_7 C42_7 1_555 1_555
Cu8_2 O3_7 1_555 1_555
O3_7 C45_7 1_555 1_555
H34_7 C45_7 1_555 1_555
H36_7 C46_7 1_555 1_555
O7_4 C9_7 1_555 1_555
O9_7 C9_7 1_555 1_555
O7_4 Cu5_2 1_555 1_555
O4_7 C31_7 1_555 1_555
O12_6 C31_7 1_555 1_555
C24_7 H8_6 1_555 1_555
C29_7 C24_7 1_555 1_555
H13_7 C30_7 1_555 1_555
C31_7 C29_7 1_555 1_555
H38_6 O12_6 1_555 1_555
C29_7 C30_7 1_555 1_555
O11_7 Cu4_2 1_555 1_555
H1_7 O11_7 1_555 1_555
C32_7 O11_7 1_555 1_555
H14_6 C32_7 1_555 1_555
H15_7 C32_7 1_555 1_555
C33_7 C32_7 1_555 1_555
H16_7 C33_7 1_555 1_555
H17_6 C33_7 1_555 1_555
C34_6 C33_7 1_555 1_555
H18_6 C34_6 1_555 1_555
H19_6 C34_6 1_555 1_555
C35_6 C34_6 1_555 1_555
H20_7 C35_6 1_555 1_555
H21_6 C35_6 1_555 1_555
H22_6 C35_6 1_555 1_555
O17_4 Cu4_2 1_555 1_555
O4_8 C31_8 1_555 1_555
C29_8 C24_8 1_555 1_555
H13_8 C30_8 1_555 1_555
C31_8 C29_8 1_555 1_555
C29_8 C30_8 1_555 1_555
O11_8 Cu5_2 1_555 1_555
H1_8 O11_8 1_555 1_555
C32_8 O11_8 1_555 1_555
H15_8 C32_8 1_555 1_555
C33_8 C32_8 1_555 1_555
H16_8 C33_8 1_555 1_555
O13_4 C17_8 1_555 1_555
O14 C21_8 1_555 1_555
O15_4 C2_8 1_555 1_555
O16_3 C2_8 1_555 1_555
O18_3 C21_8 1_555 1_555
C1_8 C3_8 1_555 1_555
C2_8 C6_8 1_555 1_555
C3_8 N1_8 1_555 1_555
N1_8 C4_8 1_555 1_555
C4_8 C5_8 1_555 1_555
C5_8 C1_8 1_555 1_555
C6_8 C11_8 1_555 1_555
C8_8 C3_8 1_555 1_555
C10_8 N1_8 1_555 1_555
C11_8 H2_8 1_555 1_555
C12_8 C4_8 1_555 1_555
C13_8 C1_8 1_555 1_555
C14_8 C17_8 1_555 1_555
C15_8 C7_8 1_555 1_555
H3_8 C15_8 1_555 1_555
C16_8 C6_8 1_555 1_555
H4_8 C16_8 1_555 1_555
C17_8 O8_8 1_555 1_555
C18_8 C21_8 1_555 1_555
C19_8 C8_8 1_555 1_555
H5_8 C19_8 1_555 1_555
C20_8 C5_8 1_555 1_555
C22_8 C12_8 1_555 1_555
H6_8 C22_8 1_555 1_555
C23_8 C12_8 1_555 1_555
H7_8 C23_8 1_555 1_555
C25_8 C13_8 1_555 1_555
H9_8 C25_8 1_555 1_555
C26_8 C10_8 1_555 1_555
H10_8 C26_8 1_555 1_555
C27_8 C18_8 1_555 1_555
H11_8 C27_8 1_555 1_555
C28_8 C20_8 1_555 1_555
H12_8 C28_8 1_555 1_555
C36_8 C8_8 1_555 1_555
H23_8 C36_8 1_555 1_555
C37_8 C14_8 1_555 1_555
H24_8 C37_8 1_555 1_555
C38_8 C18_8 1_555 1_555
H25_8 C38_8 1_555 1_555
C39_8 C10_8 1_555 1_555
H26_8 C39_8 1_555 1_555
C40_8 C20_8 1_555 1_555
H27_8 C40_8 1_555 1_555
C41_8 C14_8 1_555 1_555
H28_8 C41_8 1_555 1_555
C42_8 C13_8 1_555 1_555
H29_8 C42_8 1_555 1_555
C43_8 C7_8 1_555 1_555
H30_8 C43_8 1_555 1_555
N2_8 C44_8 1_555 1_555
C44_8 H31_8 1_555 1_555
H32_8 C44_8 1_555 1_555
H33_8 C44_8 1_555 1_555
C11_8 C19_8 1_555 1_555
C15_8 C22_8 1_555 1_555
C16_8 C36_8 1_555 1_555
C23_8 C43_8 1_555 1_555
C25_8 C27_8 1_555 1_555
C26_8 C41_8 1_555 1_555
C37_8 C39_8 1_555 1_555
C38_8 C42_8 1_555 1_555
Cu8 O3_8 1_555 1_555
O3_8 C45_8 1_555 1_555
O17_4 C9_8 1_555 1_555
O9_8 C9_8 1_555 1_555
H34_8 C45_8 1_555 1_555
H36_8 C46_8 1_555 1_555
H18_7 C34_7 1_555 1_555
H19_7 C34_7 1_555 1_555
C35_7 C34_7 1_555 1_555
H21_7 C35_7 1_555 1_555
H22_7 C35_7 1_555 1_555
H38_7 O12_7 1_555 1_555
H38_8 O12_8 1_555 1_555
H18_8 C34_8 1_555 1_555
H19_8 C34_8 1_555 1_555
C35_8 C34_8 1_555 1_555
H21_8 C35_8 1_555 1_555
H22_8 C35_8 1_555 1_555

#END
