
###############################################################################
#
# This file contains modified crystal structure data generated from the
# MOF subset of the Cambridge Structural Database (CSD) v543 
# hosted by the Cambridge Crystallographic Data Centre (CCDC).
#
# This work is licensed under the Creative Commons
# Attribution-NonCommercial-ShareAlike 4.0 International License.
# To view a copy of this license, visit
# http://creativecommons.org/licenses/by-nc-sa/4.0/
# or send a letter to
# Creative Commons, PO Box 1866, Mountain View, CA 94042, USA.
#
# CIF created using the CSD Python API on 29 September 2022
# The structure has been converted into the P1 space group
# The structure has a 3D framework
# The original CSD entry YULVAF is in the orthorhombic crystal system
# The framework has been calculated to contain at least 10.0% void space
# The void calculation uses a probe of radius 1.32A, grid spacing 0.4
# The framework is charged, counterions have been retained in the structure
# H atom positions have been added when not included in the experimental data
#
###############################################################################

data_YULVAF
_chemical_formula_moiety         '(C544 H496 N8 O104 Zn14)n'
_symmetry_cell_setting           triclinic
_symmetry_space_group_name_H-M   'P 1'
_symmetry_Int_Tables_number      1
_space_group_name_Hall           'P 1'
loop_
_symmetry_equiv_pos_site_id
_symmetry_equiv_pos_as_xyz
1 x,y,z
_cell_length_a                   46.3675(19)
_cell_length_b                   19.1670(8)
_cell_length_c                   15.0370(6)
_cell_angle_alpha                90
_cell_angle_beta                 90
_cell_angle_gamma                90
_cell_volume                     13363.8
loop_
_atom_site_label
_atom_site_type_symbol
_atom_site_fract_x
_atom_site_fract_y
_atom_site_fract_z
O18 O 0.03317(8) 0.71077(19) 0.3440(2)
O32 O 0.01208(8) 0.6401(2) 0.5111(3)
H115 H 0.0293047 0.746878 0.298169
H116 H 0.0476286 0.728673 0.38704
Zn9 Zn -0.000000 0.12309(6) 0.750000
Zn3 Zn 0.99635(2) 0.68795(3) 0.40859(4)
O14 O 0.96999(8) 0.6537(2) 0.3178(2)
C67 C 0.94665(12) 0.6303(3) 0.3512(4)
O15 O 0.94149(8) 0.6278(2) 0.4302(3)
C68 C 0.92588(11) 0.6015(3) 0.2809(4)
H53 H 0.925013 0.633269 0.230778
H54 H 0.932854 0.556804 0.259601
O16 O 0.89855(8) 0.5935(2) 0.3170(2)
C69 C 0.87775(12) 0.5710(3) 0.2587(4)
C70 C 0.85000(11) 0.5665(3) 0.2939(4)
H55 H 0.846684 0.580214 0.352328
C71 C 0.82748(12) 0.5422(3) 0.2432(3)
C72 C 0.83266(11) 0.5217(3) 0.1544(3)
C73 C 0.86044(11) 0.5271(3) 0.1189(3)
C74 C 0.88289(11) 0.5526(3) 0.1710(4)
H56 H 0.901273 0.557394 0.147071
C75 C 0.86702(11) 0.5064(3) 0.0228(3)
H57 H 0.883595 0.531728 0.002266
H59 H 0.870861 0.457245 0.019965
C76 C 0.79827(12) 0.5347(3) 0.2849(4)
H60 H 0.790592 0.489387 0.271513
H61 H 0.785613 0.569919 0.261708
H62 H 0.799887 0.540031 0.348196
C77 C 0.80942(10) 0.4889(3) 0.1008(3)
O24 O 0.94197(9) 0.1136(2) 0.0029(4)
C78 C 0.81288(10) 0.4212(3) 0.0728(3)
H63 H 0.829540 0.397376 0.089166
C79 C 0.79238(10) 0.3864(2) 0.0206(3)
O26 O 0.52016(11) 0.0590(3) 0.0886(3)
C81 C 0.76308(10) 0.4899(3) 0.0275(3)
H64 H 0.746148 0.513598 0.013991
C82 C 0.78384(10) 0.5226(3) 0.0781(3)
H65 H 0.780706 0.568015 0.097383
C86 C 0.89585(13) 0.1337(3) 0.0565(4)
H68 H 0.901919 0.113329 0.109446
C87 C 0.86829(12) 0.1574(3) 0.0483(4)
C92 C 0.84878(15) 0.1512(3) 0.1277(4)
H73 H 0.830584 0.132016 0.109585
H74 H 0.845786 0.196541 0.153253
H75 H 0.857512 0.121111 0.171075
H78 H 0.839424 0.310741 0.012116
C115 C 0.52336(12) 0.0843(3) 0.0133(4)
H95 H 0.570257 0.158395 0.014574
C123 C 0.61676(12) 0.2265(3) 0.0684(4)
H96 H 0.599100 0.230120 0.101408
H97 H 0.623338 0.272308 0.052508
H98 H 0.631108 0.203875 0.104335
Zn6 Zn 0.49635(2) 0.18795(3) 0.09141(4)
O29 O 0.97581(9) 0.7694(2) 0.4674(3)
Zn1 Zn 0.00365(2) 0.68795(3) 0.09141(4)
O1 O 0.03001(8) 0.6537(2) 0.1822(2)
C1 C 0.05335(12) 0.6303(3) 0.1488(4)
Zn2 Zn 0.500000 0.62309(6) 0.750000
O2 O 0.05851(8) 0.6278(2) 0.0698(3)
C2 C 0.07412(11) 0.6015(3) 0.2191(4)
H1 H 0.074987 0.633269 0.269222
H2 H 0.067146 0.556804 0.240399
O3 O 0.10145(8) 0.5935(2) 0.1830(2)
C3 C 0.12225(12) 0.5710(3) 0.2413(4)
C4 C 0.15000(11) 0.5665(3) 0.2061(4)
H3 H 0.153316 0.580214 0.147672
O4 O 0.44646(7) 0.0829(2) 0.6225(3)
C5 C 0.17252(12) 0.5422(3) 0.2568(3)
C6 C 0.16734(11) 0.5217(3) 0.3456(3)
O6 O 0.47468(11) 0.5650(3) 0.8203(4)
C7 C 0.13956(11) 0.5271(3) 0.3811(3)
O7 O 0.44750(10) 0.6575(2) 0.8474(3)
C8 C 0.11711(11) 0.5526(3) 0.3290(4)
H4 H 0.098727 0.557394 0.352929
O8 O 0.40895(10) 0.5753(2) 0.9388(3)
C9 C 0.13298(11) 0.5064(3) 0.4772(3)
H5 H 0.116405 0.531728 0.497734
H6 H 0.149258 0.517298 0.514107
H7 H 0.129139 0.457245 0.480035
O9 O 0.01566(10) 0.1897(2) 0.6645(4)
C10 C 0.20173(12) 0.5347(3) 0.2151(4)
H8 H 0.209408 0.489387 0.228487
H9 H 0.214387 0.569919 0.238292
H10 H 0.200113 0.540031 0.151804
O10 O 0.02419(9) 0.2306(2) 0.5326(3)
C11 C 0.19058(10) 0.4889(3) 0.3992(3)
O11 O 0.05803(9) 0.1136(2) 0.4971(4)
C12 C 0.18712(10) 0.4212(3) 0.4272(3)
H11 H 0.170460 0.397376 0.410834
O12 O 0.48792(8) 0.1401(2) 0.5111(3)
C13 C 0.20762(10) 0.3864(2) 0.4794(3)
O13 O 0.47984(11) 0.0590(3) 0.4114(3)
C14 C 0.23312(10) 0.4218(3) 0.5040(3)
C15 C 0.23692(10) 0.4899(3) 0.4725(3)
H12 H 0.253852 0.513598 0.486009
C16 C 0.21616(10) 0.5226(3) 0.4219(3)
H13 H 0.219294 0.568015 0.402617
C17 C 0.02522(11) 0.1826(3) 0.5901(6)
C18 C 0.03905(15) 0.1116(3) 0.5648(6)
H14 H 0.048774 0.093133 0.616815
H15 H 0.023733 0.079364 0.549375
C19 C 0.08535(12) 0.1399(3) 0.5136(5)
C20 C 0.10415(13) 0.1337(3) 0.4435(4)
H16 H 0.098081 0.113329 0.390554
C21 C 0.13171(12) 0.1574(3) 0.4517(4)
C22 C 0.14131(11) 0.1877(2) 0.5316(3)
C23 C 0.12282(11) 0.1935(3) 0.6028(4)
C24 C 0.09392(12) 0.1692(3) 0.5928(5)
H17 H 0.080926 0.173141 0.639641
C25 C 0.13222(13) 0.2242(3) 0.6903(4)
H18 H 0.115831 0.228610 0.728855
H19 H 0.140570 0.269350 0.680349
H20 H 0.146268 0.194153 0.717402
C26 C 0.15122(15) 0.1512(3) 0.3723(4)
H21 H 0.169416 0.132016 0.390415
H22 H 0.154214 0.196541 0.346747
H23 H 0.142488 0.121111 0.328925
C27 C 0.17136(10) 0.2166(3) 0.5353(3)
C28 C 0.19501(11) 0.1781(3) 0.5671(4)
H24 H 0.192308 0.132541 0.586699
C29 C 0.22223(11) 0.2073(3) 0.5695(3)
H25 H 0.237500 0.181139 0.591724
C30 C 0.22749(10) 0.2759(3) 0.5391(3)
C31 C 0.20351(10) 0.3149(2) 0.5085(3)
C32 C 0.17615(10) 0.2844(3) 0.5077(3)
H26 H 0.160576 0.310741 0.487884
C33 C 0.45443(15) 0.5955(4) 0.8577(5)
C34 C 0.43758(15) 0.5501(4) 0.9198(5)
H27 H 0.436110 0.503804 0.894154
H28 H 0.448128 0.546002 0.975240
C35 C 0.38807(12) 0.5583(3) 0.8774(4)
C36 C 0.36019(13) 0.5576(3) 0.9061(4)
H29 H 0.356102 0.571665 0.963908
C37 C 0.33771(12) 0.5363(3) 0.8513(3)
C38 C 0.34385(11) 0.5159(3) 0.7634(3)
C39 C 0.37219(11) 0.5196(3) 0.7334(3)
C40 C 0.39417(12) 0.5403(3) 0.7902(4)
H30 H 0.413064 0.542174 0.769612
C41 C 0.38044(12) 0.5018(3) 0.6372(4)
H31 H 0.399408 0.519320 0.624851
H32 H 0.366837 0.522804 0.597242
H33 H 0.380221 0.452073 0.629450
C42 C 0.30762(13) 0.5306(3) 0.8900(4)
H34 H 0.297612 0.492483 0.862315
H35 H 0.297289 0.573155 0.879467
H36 H 0.308908 0.522356 0.952901
C43 C 0.32099(10) 0.4855(3) 0.7063(3)
C44 C 0.29437(10) 0.5186(3) 0.6881(3)
H37 H 0.290766 0.562456 0.712180
C45 C 0.27406(10) 0.4882(3) 0.6368(3)
H38 H 0.257049 0.512162 0.624845
C46 C 0.27814(9) 0.4207(2) 0.6008(3)
C47 C 0.30352(10) 0.3843(2) 0.6221(3)
C48 C 0.32420(10) 0.4189(3) 0.6734(3)
H39 H 0.341250 0.395364 0.686099
C49 C 0.47664(12) 0.0843(3) 0.4867(4)
C50 C 0.45856(12) 0.0429(3) 0.5527(4)
H40 H 0.443035 0.020092 0.520664
H41 H 0.470529 0.006625 0.578547
C51 C 0.42051(10) 0.1154(3) 0.6041(4)
C52 C 0.39954(11) 0.1081(3) 0.6680(3)
H42 H 0.403203 0.081971 0.718816
C53 C 0.37282(10) 0.1400(3) 0.6566(3)
C54 C 0.36724(10) 0.1783(2) 0.5796(3)
C55 C 0.38832(11) 0.1845(3) 0.5144(3)
C56 C 0.41531(10) 0.1534(3) 0.5279(3)
H43 H 0.429743 0.158395 0.485426
C57 C 0.38324(12) 0.2265(3) 0.4316(4)
H44 H 0.400900 0.230120 0.398592
H45 H 0.376662 0.272308 0.447492
H46 H 0.368892 0.203875 0.395665
C58 C 0.35033(12) 0.1331(3) 0.7287(4)
H47 H 0.333045 0.113474 0.704080
H48 H 0.346169 0.178373 0.752947
H49 H 0.357483 0.103254 0.774936
C59 C 0.33410(10) 0.2798(3) 0.5961(3)
H50 H 0.349940 0.304484 0.617211
C60 C 0.30723(10) 0.3134(3) 0.5934(3)
C61 C 0.28275(10) 0.2753(3) 0.5621(3)
C62 C 0.28731(11) 0.2065(3) 0.5335(3)
H51 H 0.271811 0.181080 0.511311
C63 C 0.31427(11) 0.1754(3) 0.5373(4)
H52 H 0.316512 0.129466 0.518521
C64 C 0.33805(10) 0.2123(3) 0.5691(3)
C65 C 0.25534(10) 0.3114(3) 0.5516(3)
C66 C 0.25552(10) 0.3844(3) 0.5520(3)
O17 O 0.55354(7) 0.0829(2) 0.8775(3)
O19 O 0.52532(11) 0.5650(3) 0.6797(4)
O20 O 0.55250(10) 0.6575(2) 0.6526(3)
O21 O 0.59105(10) 0.5753(2) 0.5612(3)
H58 H 0.850742 0.517298 0.985893
O22 O 0.98434(10) 0.1897(2) 0.8355(4)
O23 O 0.97581(9) 0.2306(2) 0.9674(3)
O25 O 0.51208(8) 0.1401(2) 0.9889(3)
C80 C 0.76688(10) 0.4218(3) 0.9960(3)
C83 C 0.97478(11) 0.1826(3) 0.9099(6)
C84 C 0.96095(15) 0.1116(3) 0.9352(6)
H66 H 0.951226 0.093133 0.883185
H67 H 0.976267 0.079364 0.950625
C85 C 0.91465(12) 0.1399(3) 0.9864(5)
C88 C 0.85869(11) 0.1877(2) 0.9684(3)
C89 C 0.87718(11) 0.1935(3) 0.8972(4)
C90 C 0.90608(12) 0.1692(3) 0.9072(5)
H69 H 0.919074 0.173141 0.860359
C91 C 0.86778(13) 0.2242(3) 0.8097(4)
H70 H 0.884169 0.228610 0.771145
H71 H 0.859430 0.269350 0.819651
H72 H 0.853732 0.194153 0.782598
C93 C 0.82864(10) 0.2166(3) 0.9647(3)
C94 C 0.80499(11) 0.1781(3) 0.9329(4)
H76 H 0.807692 0.132541 0.913301
C95 C 0.77777(11) 0.2073(3) 0.9305(3)
H77 H 0.762500 0.181139 0.908276
C96 C 0.77251(10) 0.2759(3) 0.9609(3)
C97 C 0.79649(10) 0.3149(2) 0.9915(3)
C98 C 0.82385(10) 0.2844(3) 0.9923(3)
C99 C 0.54557(15) 0.5955(4) 0.6423(5)
C100 C 0.56242(15) 0.5501(4) 0.5802(5)
H79 H 0.563890 0.503804 0.605846
H80 H 0.551872 0.546002 0.524760
C101 C 0.61193(12) 0.5583(3) 0.6226(4)
C102 C 0.63981(13) 0.5576(3) 0.5939(4)
H81 H 0.643898 0.571665 0.536092
C103 C 0.66229(12) 0.5363(3) 0.6487(3)
C104 C 0.65615(11) 0.5159(3) 0.7366(3)
C105 C 0.62781(11) 0.5196(3) 0.7666(3)
C106 C 0.60583(12) 0.5403(3) 0.7098(4)
H82 H 0.586936 0.542174 0.730388
C107 C 0.61956(12) 0.5018(3) 0.8628(4)
H83 H 0.600592 0.519320 0.875149
H84 H 0.633163 0.522804 0.902758
H85 H 0.619779 0.452073 0.870550
C108 C 0.69238(13) 0.5306(3) 0.6100(4)
H86 H 0.702388 0.492483 0.637685
H87 H 0.702711 0.573155 0.620533
H88 H 0.691092 0.522356 0.547099
C109 C 0.67901(10) 0.4855(3) 0.7937(3)
C110 C 0.70563(10) 0.5186(3) 0.8119(3)
H89 H 0.709234 0.562456 0.787820
C111 C 0.72594(10) 0.4882(3) 0.8632(3)
H90 H 0.742951 0.512162 0.875155
C112 C 0.72186(9) 0.4207(2) 0.8992(3)
C113 C 0.69648(10) 0.3843(2) 0.8779(3)
C114 C 0.67580(10) 0.4189(3) 0.8266(3)
H91 H 0.658750 0.395364 0.813901
C116 C 0.54144(12) 0.0429(3) 0.9473(4)
H92 H 0.556965 0.020092 0.979336
H93 H 0.529471 0.006625 0.921453
C117 C 0.57949(10) 0.1154(3) 0.8959(4)
C118 C 0.60046(11) 0.1081(3) 0.8320(3)
H94 H 0.596797 0.081971 0.781184
C119 C 0.62718(10) 0.1400(3) 0.8434(3)
C120 C 0.63276(10) 0.1783(2) 0.9204(3)
C121 C 0.61168(11) 0.1845(3) 0.9856(3)
C122 C 0.58469(10) 0.1534(3) 0.9721(3)
C124 C 0.64967(12) 0.1331(3) 0.7713(4)
H99 H 0.666955 0.113474 0.795920
H100 H 0.653831 0.178373 0.747053
H101 H 0.642517 0.103254 0.725064
C125 C 0.66590(10) 0.2798(3) 0.9039(3)
H102 H 0.650060 0.304484 0.882789
C126 C 0.69277(10) 0.3134(3) 0.9066(3)
C127 C 0.71725(10) 0.2753(3) 0.9379(3)
C128 C 0.71269(11) 0.2065(3) 0.9665(3)
H103 H 0.728189 0.181080 0.988689
C129 C 0.68573(11) 0.1754(3) 0.9627(4)
H104 H 0.683488 0.129466 0.981479
C130 C 0.66195(10) 0.2123(3) 0.9309(3)
C131 C 0.74466(10) 0.3114(3) 0.9484(3)
C132 C 0.74448(10) 0.3844(3) 0.9480(3)
Zn4 Zn 0.99635(2) 0.31205(3) 0.90859(4)
Zn5 Zn 0.50365(2) 0.18795(3) 0.40859(4)
Zn7 Zn 0.00365(2) 0.31205(3) 0.59141(4)
Zn9_2 Zn 1.000000 0.12309(6) 0.750000
O27 O 0.51566(10) 0.6897(2) 0.8355(4)
O28 O 0.48434(10) 0.6897(2) 0.6645(4)
O30 O 0.02419(9) 0.7694(2) 0.0326(3)
O5 O 0.96683(8) 0.71077(19) 0.1560(2)
H113 H 0.970695 0.746878 0.201831
H114 H 0.952371 0.728673 0.11296
O31 O 0.98792(8) 0.6401(2) 0.9889(3)
O4_2 O 0.05354(7) 0.4171(2) 0.1225(3)
O9_2 O 0.48434(10) 0.3103(2) 0.1645(4)
O10_2 O 0.47581(9) 0.2694(2) 0.0326(3)
O12_2 O 0.01208(8) 0.3599(2) 0.0111(3)
C14_2 C 0.26688(10) 0.0782(3) 0.0040(3)
C17_2 C 0.47478(11) 0.3174(3) 0.0901(6)
C18_2 C 0.46095(15) 0.3884(3) 0.0648(6)
H14_2 H 0.451226 0.406867 0.116815
H15_2 H 0.476267 0.420636 0.049375
C19_2 C 0.41465(12) 0.3601(3) 0.0136(5)
C22_2 C 0.35869(11) 0.3123(2) 0.0316(3)
C23_2 C 0.37718(11) 0.3065(3) 0.1028(4)
C24_2 C 0.40608(12) 0.3308(3) 0.0928(5)
H17_2 H 0.419074 0.326859 0.139641
C25_2 C 0.36778(13) 0.2758(3) 0.1903(4)
H18_2 H 0.384169 0.271390 0.228855
H19_2 H 0.359430 0.230650 0.180349
H20_2 H 0.353732 0.305847 0.217402
C27_2 C 0.32864(10) 0.2834(3) 0.0353(3)
C28_2 C 0.30499(11) 0.3219(3) 0.0671(4)
H24_2 H 0.307692 0.367459 0.086699
C29_2 C 0.27777(11) 0.2927(3) 0.0695(3)
H25_2 H 0.262500 0.318861 0.091724
C30_2 C 0.27251(10) 0.2241(3) 0.0391(3)
C31_2 C 0.29649(10) 0.1851(2) 0.0085(3)
C32_2 C 0.32385(10) 0.2156(3) 0.0077(3)
H33_2 H 0.119779 0.047927 0.129450
H34_2 H 0.202388 0.007517 0.362315
C43_2 C 0.17901(10) 0.0145(3) 0.2063(3)
C45_2 C 0.22594(10) 0.0118(3) 0.1368(3)
C46_2 C 0.22186(9) 0.0793(2) 0.1008(3)
C47_2 C 0.19648(10) 0.1157(2) 0.1221(3)
C48_2 C 0.17580(10) 0.0811(3) 0.1734(3)
H39_2 H 0.158750 0.104636 0.186099
C50_2 C 0.04144(12) 0.4571(3) 0.0527(4)
H40_2 H 0.056965 0.479908 0.020664
H41_2 H 0.029471 0.493375 0.078547
C51_2 C 0.07949(10) 0.3846(3) 0.1041(4)
C52_2 C 0.10046(11) 0.3919(3) 0.1680(3)
H42_2 H 0.096797 0.418029 0.218816
C53_2 C 0.12718(10) 0.3600(3) 0.1566(3)
C54_2 C 0.13276(10) 0.3217(2) 0.0796(3)
C55_2 C 0.11168(11) 0.3155(3) 0.0144(3)
C56_2 C 0.08469(10) 0.3466(3) 0.0279(3)
C58_2 C 0.14967(12) 0.3669(3) 0.2287(4)
H47_2 H 0.166955 0.386526 0.204080
H48_2 H 0.153831 0.321627 0.252947
H49_2 H 0.142517 0.396746 0.274936
C59_2 C 0.16590(10) 0.2202(3) 0.0961(3)
H50_2 H 0.150060 0.195516 0.117211
C60_2 C 0.19277(10) 0.1866(3) 0.0934(3)
C61_2 C 0.21725(10) 0.2247(3) 0.0621(3)
C62_2 C 0.21269(11) 0.2935(3) 0.0335(3)
H51_2 H 0.228189 0.318920 0.011311
C63_2 C 0.18573(11) 0.3246(3) 0.0373(4)
H52_2 H 0.183488 0.370534 0.018521
C64_2 C 0.16195(10) 0.2877(3) 0.0691(3)
C65_2 C 0.24466(10) 0.1886(3) 0.0516(3)
C66_2 C 0.24448(10) 0.1156(3) 0.0520(3)
Zn8 Zn 0.500000 0.37691(6) 0.250000
Zn2_2 Zn -0.000000 0.87691(6) 0.250000
O6_2 O 0.02532(11) 0.9350(3) 0.3203(4)
O7_2 O 0.05250(10) 0.8425(2) 0.3474(3)
O8_2 O 0.09105(10) 0.9247(2) 0.4388(3)
H6_2 H 0.350742 0.982702 0.014107
C33_2 C 0.04557(15) 0.9045(4) 0.3577(5)
C34_2 C 0.06242(15) 0.9499(4) 0.4198(5)
H27_2 H 0.063890 0.996196 0.394154
H28_2 H 0.051872 0.953998 0.475240
C35_2 C 0.11193(12) 0.9417(3) 0.3774(4)
C36_2 C 0.13981(13) 0.9424(3) 0.4061(4)
H29_2 H 0.143898 0.928335 0.463908
C37_2 C 0.16229(12) 0.9637(3) 0.3513(3)
C38_2 C 0.15615(11) 0.9841(3) 0.2634(3)
C39_2 C 0.12781(11) 0.9804(3) 0.2334(3)
C40_2 C 0.10583(12) 0.9597(3) 0.2902(4)
H30_2 H 0.086936 0.957826 0.269612
C41_2 C 0.11956(12) 0.9982(3) 0.1372(4)
H31_2 H 0.100592 0.980680 0.124851
H32_2 H 0.133163 0.977196 0.097242
C42_2 C 0.19238(13) 0.9694(3) 0.3900(4)
H35_2 H 0.202711 0.926845 0.379467
H36_2 H 0.191092 0.977644 0.452901
C44_2 C 0.20563(10) 0.9814(3) 0.1881(3)
H37_2 H 0.209234 0.937544 0.212180
H38_2 H 0.242951 0.987838 0.124845
O28_2 O 0.01566(10) 0.8103(2) 0.1645(4)
Zn1_2 Zn 0.49635(2) 0.81205(3) 0.59141(4)
O1_2 O 0.46999(8) 0.8463(2) 0.6822(2)
C1_2 C 0.44665(12) 0.8697(3) 0.6488(4)
O2_2 O 0.44149(8) 0.8722(2) 0.5698(3)
C2_2 C 0.42588(11) 0.8985(3) 0.7191(4)
H1_2 H 0.425013 0.866731 0.769222
H2_2 H 0.432854 0.943196 0.740399
O3_2 O 0.39855(8) 0.9065(2) 0.6830(2)
C3_2 C 0.37775(12) 0.9290(3) 0.7413(4)
C4_2 C 0.35000(11) 0.9335(3) 0.7061(4)
H3_2 H 0.346684 0.919786 0.647672
C5_2 C 0.32748(12) 0.9578(3) 0.7568(3)
O5_2 O 0.53317(8) 0.78923(19) 0.6560(2)
C6_2 C 0.33266(11) 0.9783(3) 0.8456(3)
C7_2 C 0.36044(11) 0.9729(3) 0.8811(3)
C8_2 C 0.38289(11) 0.9474(3) 0.8290(4)
H4_2 H 0.401273 0.942606 0.852929
C9_2 C 0.36702(11) 0.9936(3) 0.9772(3)
H5_2 H 0.383595 0.968272 0.997734
C10_2 C 0.29827(12) 0.9653(3) 0.7151(4)
H9_2 H 0.285613 0.930081 0.738292
H10_2 H 0.299887 0.959969 0.651804
H12_2 H 0.246148 0.986402 0.986009
C16_2 C 0.28384(10) 0.9774(3) 0.9219(3)
H13_2 H 0.280706 0.931985 0.902617
O30_2 O 0.47581(9) 0.7306(2) 0.5326(3)
O31_2 O 0.51208(8) 0.8599(2) 0.4889(3)
H113_2 H 0.529305 0.753122 0.701831
H114_2 H 0.547629 0.771327 0.61296
O17_2 O 0.94646(7) 0.4171(2) 0.3775(3)
H59_2 H 0.629139 0.042755 0.519965
O22_2 O 0.51566(10) 0.3103(2) 0.3355(4)
H60_2 H 0.709408 0.010613 0.771513
O23_2 O 0.52419(9) 0.2694(2) 0.4674(3)
C77_2 C 0.69058(10) 0.0111(3) 0.6008(3)
O24_2 O 0.55803(9) 0.3864(2) 0.5029(4)
C78_2 C 0.68712(10) 0.0788(3) 0.5728(3)
H63_2 H 0.670460 0.102624 0.589166
O25_2 O 0.98792(8) 0.3599(2) 0.4889(3)
C79_2 C 0.70762(10) 0.1136(2) 0.5206(3)
O26_2 O 0.97984(11) 0.4410(3) 0.5886(3)
C80_2 C 0.73312(10) 0.0782(3) 0.4960(3)
C81_2 C 0.73692(10) 0.0101(3) 0.5275(3)
C83_2 C 0.52522(11) 0.3174(3) 0.4099(6)
C84_2 C 0.53905(15) 0.3884(3) 0.4352(6)
H66_2 H 0.548774 0.406867 0.383185
H67_2 H 0.523733 0.420636 0.450625
C85_2 C 0.58535(12) 0.3601(3) 0.4864(5)
C86_2 C 0.60415(13) 0.3663(3) 0.5565(4)
H68_2 H 0.598081 0.386671 0.609446
C87_2 C 0.63171(12) 0.3426(3) 0.5483(4)
C88_2 C 0.64131(11) 0.3123(2) 0.4684(3)
C89_2 C 0.62282(11) 0.3065(3) 0.3972(4)
C90_2 C 0.59392(12) 0.3308(3) 0.4072(5)
H69_2 H 0.580926 0.326859 0.360359
C91_2 C 0.63222(13) 0.2758(3) 0.3097(4)
H70_2 H 0.615831 0.271390 0.271145
H71_2 H 0.640570 0.230650 0.319651
H72_2 H 0.646268 0.305847 0.282598
C92_2 C 0.65122(15) 0.3488(3) 0.6277(4)
H73_2 H 0.669416 0.367984 0.609585
H74_2 H 0.654214 0.303459 0.653253
H75_2 H 0.642488 0.378889 0.671075
C93_2 C 0.67136(10) 0.2834(3) 0.4647(3)
C94_2 C 0.69501(11) 0.3219(3) 0.4329(4)
H76_2 H 0.692308 0.367459 0.413301
C95_2 C 0.72223(11) 0.2927(3) 0.4305(3)
H77_2 H 0.737500 0.318861 0.408276
C96_2 C 0.72749(10) 0.2241(3) 0.4609(3)
C97_2 C 0.70351(10) 0.1851(2) 0.4915(3)
C98_2 C 0.67615(10) 0.2156(3) 0.4923(3)
H78_2 H 0.660576 0.189259 0.512116
H85_2 H 0.880221 0.047927 0.370550
H86_2 H 0.797612 0.007517 0.137685
C109_2 C 0.82099(10) 0.0145(3) 0.2937(3)
C111_2 C 0.77406(10) 0.0118(3) 0.3632(3)
C112_2 C 0.77814(9) 0.0793(2) 0.3992(3)
C113_2 C 0.80352(10) 0.1157(2) 0.3779(3)
C114_2 C 0.82420(10) 0.0811(3) 0.3266(3)
H91_2 H 0.841250 0.104636 0.313901
C115_2 C 0.97664(12) 0.4157(3) 0.5133(4)
C116_2 C 0.95856(12) 0.4571(3) 0.4473(4)
H92_2 H 0.943035 0.479908 0.479336
H93_2 H 0.970529 0.493375 0.421453
C117_2 C 0.92051(10) 0.3846(3) 0.3959(4)
C118_2 C 0.89954(11) 0.3919(3) 0.3320(3)
H94_2 H 0.903203 0.418029 0.281184
C119_2 C 0.87282(10) 0.3600(3) 0.3434(3)
C120_2 C 0.86724(10) 0.3217(2) 0.4204(3)
C121_2 C 0.88832(11) 0.3155(3) 0.4856(3)
C122_2 C 0.91531(10) 0.3466(3) 0.4721(3)
H95_2 H 0.929743 0.341605 0.514574
C123_2 C 0.88324(12) 0.2735(3) 0.5684(4)
H96_2 H 0.900900 0.269880 0.601408
H97_2 H 0.876662 0.227692 0.552508
H98_2 H 0.868892 0.296125 0.604335
C124_2 C 0.85033(12) 0.3669(3) 0.2713(4)
H99_2 H 0.833045 0.386526 0.295920
H100_2 H 0.846169 0.321627 0.247053
H101_2 H 0.857483 0.396746 0.225064
C125_2 C 0.83410(10) 0.2202(3) 0.4039(3)
H102_2 H 0.849940 0.195516 0.382789
C126_2 C 0.80723(10) 0.1866(3) 0.4066(3)
C127_2 C 0.78275(10) 0.2247(3) 0.4379(3)
C128_2 C 0.78731(11) 0.2935(3) 0.4665(3)
H103_2 H 0.771811 0.318920 0.488689
C129_2 C 0.81427(11) 0.3246(3) 0.4627(4)
H104_2 H 0.816512 0.370534 0.481479
C130_2 C 0.83805(10) 0.2877(3) 0.4309(3)
C131_2 C 0.75534(10) 0.1886(3) 0.4484(3)
C132_2 C 0.75552(10) 0.1156(3) 0.4480(3)
O32_2 O 0.48792(8) 0.8599(2) 0.0111(3)
Zn2_3 Zn 1.000000 0.87691(6) 0.250000
Zn3_2 Zn 0.50365(2) 0.81205(3) 0.90859(4)
O14_2 O 0.53001(8) 0.8463(2) 0.8178(2)
C67_2 C 0.55335(12) 0.8697(3) 0.8512(4)
O15_2 O 0.55851(8) 0.8722(2) 0.9302(3)
C68_2 C 0.57412(11) 0.8985(3) 0.7809(4)
H53_2 H 0.574987 0.866731 0.730778
H54_2 H 0.567146 0.943196 0.759601
O16_2 O 0.60145(8) 0.9065(2) 0.8170(2)
C69_2 C 0.62225(12) 0.9290(3) 0.7587(4)
C70_2 C 0.65000(11) 0.9335(3) 0.7939(4)
H55_2 H 0.653316 0.919786 0.852328
C71_2 C 0.67252(12) 0.9578(3) 0.7432(3)
O18_2 O 0.46683(8) 0.78923(19) 0.8440(2)
C72_2 C 0.66734(11) 0.9783(3) 0.6544(3)
O19_2 O 0.97468(11) 0.9350(3) 0.1797(4)
C73_2 C 0.63956(11) 0.9729(3) 0.6189(3)
O20_2 O 0.94750(10) 0.8425(2) 0.1526(3)
C74_2 C 0.61711(11) 0.9474(3) 0.6710(4)
H56_2 H 0.598727 0.942606 0.647071
O21_2 O 0.90895(10) 0.9247(2) 0.0612(3)
C75_2 C 0.63298(11) 0.9936(3) 0.5228(3)
H57_2 H 0.616405 0.968272 0.502266
H58_2 H 0.649258 0.982702 0.485893
C76_2 C 0.70173(12) 0.9653(3) 0.7849(4)
H61_2 H 0.714387 0.930081 0.761708
H62_2 H 0.700113 0.959969 0.848196
H64_2 H 0.753852 0.986402 0.513991
C82_2 C 0.71616(10) 0.9774(3) 0.5781(3)
H65_2 H 0.719294 0.931985 0.597383
C99_2 C 0.95443(15) 0.9045(4) 0.1423(5)
C100_2 C 0.93758(15) 0.9499(4) 0.0802(5)
H79_2 H 0.936110 0.996196 0.105846
H80_2 H 0.948128 0.953998 0.024760
C101_2 C 0.88807(12) 0.9417(3) 0.1226(4)
C102_2 C 0.86019(13) 0.9424(3) 0.0939(4)
H81_2 H 0.856102 0.928335 0.036092
C103_2 C 0.83771(12) 0.9637(3) 0.1487(3)
C104_2 C 0.84385(11) 0.9841(3) 0.2366(3)
C105_2 C 0.87219(11) 0.9804(3) 0.2666(3)
C106_2 C 0.89417(12) 0.9597(3) 0.2098(4)
H82_2 H 0.913064 0.957826 0.230388
C107_2 C 0.88044(12) 0.9982(3) 0.3628(4)
H83_2 H 0.899408 0.980680 0.375149
H84_2 H 0.866837 0.977196 0.402758
C108_2 C 0.80762(13) 0.9694(3) 0.1100(4)
H87_2 H 0.797289 0.926845 0.120533
H88_2 H 0.808908 0.977644 0.047099
C110_2 C 0.79437(10) 0.9814(3) 0.3119(3)
H89_2 H 0.790766 0.937544 0.287820
H90_2 H 0.757049 0.987838 0.375155
O27_2 O 0.98434(10) 0.8103(2) 0.3355(4)
O29_2 O 0.52419(9) 0.7306(2) 0.9674(3)
H115_2 H 0.470695 0.753122 0.798169
H116_2 H 0.452371 0.771327 0.88704
O5_3 O 0.03317(8) 0.28923(19) 0.8440(2)
H113_3 H 0.0293047 0.253122 0.798169
H114_3 H 0.0476286 0.271327 0.88704
O1_3 O 0.96999(8) 0.3463(2) 0.8178(2)
C1_3 C 0.94665(12) 0.3697(3) 0.8512(4)
O2_3 O 0.94149(8) 0.3722(2) 0.9302(3)
C2_3 C 0.92588(11) 0.3985(3) 0.7809(4)
H1_3 H 0.925013 0.366731 0.730778
H2_3 H 0.932854 0.443196 0.759601
O3_3 O 0.89855(8) 0.4065(2) 0.8170(2)
C3_3 C 0.87775(12) 0.4290(3) 0.7587(4)
C4_3 C 0.85000(11) 0.4335(3) 0.7939(4)
H3_3 H 0.846684 0.419786 0.852328
O4_3 O 0.55354(7) 0.9171(2) 0.3775(3)
C5_3 C 0.82748(12) 0.4578(3) 0.7432(3)
C6_3 C 0.83266(11) 0.4783(3) 0.6544(3)
O6_3 O 0.52532(11) 0.4350(3) 0.1797(4)
C7_3 C 0.86044(11) 0.4729(3) 0.6189(3)
O7_3 O 0.55250(10) 0.3425(2) 0.1526(3)
C8_3 C 0.88289(11) 0.4474(3) 0.6710(4)
H4_3 H 0.901273 0.442606 0.647071
O8_3 O 0.59105(10) 0.4247(2) 0.0612(3)
C9_3 C 0.86702(11) 0.4936(3) 0.5228(3)
H5_3 H 0.883595 0.468272 0.502266
H6_3 H 0.850742 0.482702 0.485893
H7_2 H 0.870861 0.542755 0.519965
C10_3 C 0.79827(12) 0.4653(3) 0.7849(4)
H8_2 H 0.790592 0.510613 0.771513
H9_3 H 0.785613 0.430081 0.761708
H10_3 H 0.799887 0.459969 0.848196
C11_2 C 0.80942(10) 0.5111(3) 0.6008(3)
O11_2 O 0.94197(9) 0.8864(2) 0.5029(4)
C12_2 C 0.81288(10) 0.5788(3) 0.5728(3)
H11_2 H 0.829540 0.602624 0.589166
C13_2 C 0.79238(10) 0.6136(2) 0.5206(3)
O13_2 O 0.52016(11) 0.9410(3) 0.5886(3)
C14_3 C 0.76688(10) 0.5782(3) 0.4960(3)
C15_2 C 0.76308(10) 0.5101(3) 0.5275(3)
H12_3 H 0.746148 0.486402 0.513991
C16_3 C 0.78384(10) 0.4774(3) 0.5781(3)
H13_3 H 0.780706 0.431985 0.597383
C17_3 C 0.97478(11) 0.8174(3) 0.4099(6)
C18_3 C 0.96095(15) 0.8884(3) 0.4352(6)
H14_3 H 0.951226 0.906867 0.383185
H15_3 H 0.976267 0.920636 0.450625
C19_3 C 0.91465(12) 0.8601(3) 0.4864(5)
C20_2 C 0.89585(13) 0.8663(3) 0.5565(4)
H16_2 H 0.901919 0.886671 0.609446
C21_2 C 0.86829(12) 0.8426(3) 0.5483(4)
C22_3 C 0.85869(11) 0.8123(2) 0.4684(3)
C23_3 C 0.87718(11) 0.8065(3) 0.3972(4)
C24_3 C 0.90608(12) 0.8308(3) 0.4072(5)
H17_3 H 0.919074 0.826859 0.360359
C25_3 C 0.86778(13) 0.7758(3) 0.3097(4)
H18_3 H 0.884169 0.771390 0.271145
H19_3 H 0.859430 0.730650 0.319651
H20_3 H 0.853732 0.805847 0.282598
C26_2 C 0.84878(15) 0.8488(3) 0.6277(4)
H21_2 H 0.830584 0.867984 0.609585
H22_2 H 0.845786 0.803459 0.653253
H23_2 H 0.857512 0.878889 0.671075
C27_3 C 0.82864(10) 0.7834(3) 0.4647(3)
C28_3 C 0.80499(11) 0.8219(3) 0.4329(4)
H24_3 H 0.807692 0.867459 0.413301
C29_3 C 0.77777(11) 0.7927(3) 0.4305(3)
H25_3 H 0.762500 0.818861 0.408276
C30_3 C 0.77251(10) 0.7241(3) 0.4609(3)
C31_3 C 0.79649(10) 0.6851(2) 0.4915(3)
C32_3 C 0.82385(10) 0.7156(3) 0.4923(3)
H26_2 H 0.839424 0.689259 0.512116
C33_3 C 0.54557(15) 0.4045(4) 0.1423(5)
C34_3 C 0.56242(15) 0.4499(4) 0.0802(5)
H27_3 H 0.563890 0.496196 0.105846
H28_3 H 0.551872 0.453998 0.024760
C35_3 C 0.61193(12) 0.4417(3) 0.1226(4)
C36_3 C 0.63981(13) 0.4424(3) 0.0939(4)
H29_3 H 0.643898 0.428335 0.036092
C37_3 C 0.66229(12) 0.4637(3) 0.1487(3)
C38_3 C 0.65615(11) 0.4841(3) 0.2366(3)
C39_3 C 0.62781(11) 0.4804(3) 0.2666(3)
C40_3 C 0.60583(12) 0.4597(3) 0.2098(4)
H30_3 H 0.586936 0.457826 0.230388
C41_3 C 0.61956(12) 0.4982(3) 0.3628(4)
H31_3 H 0.600592 0.480680 0.375149
H32_3 H 0.633163 0.477196 0.402758
H33_3 H 0.619779 0.547927 0.370550
C42_3 C 0.69238(13) 0.4694(3) 0.1100(4)
H34_3 H 0.702388 0.507517 0.137685
H35_3 H 0.702711 0.426845 0.120533
H36_3 H 0.691092 0.477644 0.047099
C43_3 C 0.67901(10) 0.5145(3) 0.2937(3)
C44_3 C 0.70563(10) 0.4814(3) 0.3119(3)
H37_3 H 0.709234 0.437544 0.287820
C45_3 C 0.72594(10) 0.5118(3) 0.3632(3)
H38_3 H 0.742951 0.487838 0.375155
C46_3 C 0.72186(9) 0.5793(2) 0.3992(3)
C47_3 C 0.69648(10) 0.6157(2) 0.3779(3)
C48_3 C 0.67580(10) 0.5811(3) 0.3266(3)
H39_3 H 0.658750 0.604636 0.313901
C49_2 C 0.52336(12) 0.9157(3) 0.5133(4)
C50_3 C 0.54144(12) 0.9571(3) 0.4473(4)
H40_3 H 0.556965 0.979908 0.479336
H41_3 H 0.529471 0.993375 0.421453
C51_3 C 0.57949(10) 0.8846(3) 0.3959(4)
C52_3 C 0.60046(11) 0.8919(3) 0.3320(3)
H42_3 H 0.596797 0.918029 0.281184
C53_3 C 0.62718(10) 0.8600(3) 0.3434(3)
C54_3 C 0.63276(10) 0.8217(2) 0.4204(3)
C55_3 C 0.61168(11) 0.8155(3) 0.4856(3)
C56_3 C 0.58469(10) 0.8466(3) 0.4721(3)
H43_2 H 0.570257 0.841605 0.514574
C57_2 C 0.61676(12) 0.7735(3) 0.5684(4)
H44_2 H 0.599100 0.769880 0.601408
H45_2 H 0.623338 0.727692 0.552508
H46_2 H 0.631108 0.796125 0.604335
C58_3 C 0.64967(12) 0.8669(3) 0.2713(4)
H47_3 H 0.666955 0.886526 0.295920
H48_3 H 0.653831 0.821627 0.247053
H49_3 H 0.642517 0.896746 0.225064
C59_3 C 0.66590(10) 0.7202(3) 0.4039(3)
H50_3 H 0.650060 0.695516 0.382789
C60_3 C 0.69277(10) 0.6866(3) 0.4066(3)
C61_3 C 0.71725(10) 0.7247(3) 0.4379(3)
C62_3 C 0.71269(11) 0.7935(3) 0.4665(3)
H51_3 H 0.728189 0.818920 0.488689
C63_3 C 0.68573(11) 0.8246(3) 0.4627(4)
H52_3 H 0.683488 0.870534 0.481479
C64_3 C 0.66195(10) 0.7877(3) 0.4309(3)
C65_3 C 0.74466(10) 0.6886(3) 0.4484(3)
C66_3 C 0.74448(10) 0.6156(3) 0.4480(3)
O17_3 O 0.44646(7) 0.9171(2) 0.1225(3)
O19_3 O 0.47468(11) 0.4350(3) 0.3203(4)
O20_3 O 0.44750(10) 0.3425(2) 0.3474(3)
O21_3 O 0.40895(10) 0.4247(2) 0.4388(3)
H58_3 H 0.149258 0.482702 0.014107
C80_3 C 0.23312(10) 0.5782(3) 0.0040(3)
C83_3 C 0.02522(11) 0.8174(3) 0.0901(6)
C84_3 C 0.03905(15) 0.8884(3) 0.0648(6)
H66_3 H 0.048774 0.906867 0.116815
H67_3 H 0.023733 0.920636 0.049375
C85_3 C 0.08535(12) 0.8601(3) 0.0136(5)
C88_3 C 0.14131(11) 0.8123(2) 0.0316(3)
C89_3 C 0.12282(11) 0.8065(3) 0.1028(4)
C90_3 C 0.09392(12) 0.8308(3) 0.0928(5)
H69_3 H 0.080926 0.826859 0.139641
C91_3 C 0.13222(13) 0.7758(3) 0.1903(4)
H70_3 H 0.115831 0.771390 0.228855
H71_3 H 0.140570 0.730650 0.180349
H72_3 H 0.146268 0.805847 0.217402
C93_3 C 0.17136(10) 0.7834(3) 0.0353(3)
C94_3 C 0.19501(11) 0.8219(3) 0.0671(4)
H76_3 H 0.192308 0.867459 0.086699
C95_3 C 0.22223(11) 0.7927(3) 0.0695(3)
H77_3 H 0.237500 0.818861 0.091724
C96_3 C 0.22749(10) 0.7241(3) 0.0391(3)
C97_3 C 0.20351(10) 0.6851(2) 0.0085(3)
C98_3 C 0.17615(10) 0.7156(3) 0.0077(3)
C99_3 C 0.45443(15) 0.4045(4) 0.3577(5)
C100_3 C 0.43758(15) 0.4499(4) 0.4198(5)
H79_3 H 0.436110 0.496196 0.394154
H80_3 H 0.448128 0.453998 0.475240
C101_3 C 0.38807(12) 0.4417(3) 0.3774(4)
C102_3 C 0.36019(13) 0.4424(3) 0.4061(4)
H81_3 H 0.356102 0.428335 0.463908
C103_3 C 0.33771(12) 0.4637(3) 0.3513(3)
C104_3 C 0.34385(11) 0.4841(3) 0.2634(3)
C105_3 C 0.37219(11) 0.4804(3) 0.2334(3)
C106_3 C 0.39417(12) 0.4597(3) 0.2902(4)
H82_3 H 0.413064 0.457826 0.269612
C107_3 C 0.38044(12) 0.4982(3) 0.1372(4)
H83_3 H 0.399408 0.480680 0.124851
H84_3 H 0.366837 0.477196 0.097242
H85_3 H 0.380221 0.547927 0.129450
C108_3 C 0.30762(13) 0.4694(3) 0.3900(4)
H86_3 H 0.297612 0.507517 0.362315
H87_3 H 0.297289 0.426845 0.379467
H88_3 H 0.308908 0.477644 0.452901
C109_3 C 0.32099(10) 0.5145(3) 0.2063(3)
C110_3 C 0.29437(10) 0.4814(3) 0.1881(3)
H89_3 H 0.290766 0.437544 0.212180
C111_3 C 0.27406(10) 0.5118(3) 0.1368(3)
H90_3 H 0.257049 0.487838 0.124845
C112_3 C 0.27814(9) 0.5793(2) 0.1008(3)
C113_3 C 0.30352(10) 0.6157(2) 0.1221(3)
C114_3 C 0.32420(10) 0.5811(3) 0.1734(3)
H91_3 H 0.341250 0.604636 0.186099
C116_3 C 0.45856(12) 0.9571(3) 0.0527(4)
H92_3 H 0.443035 0.979908 0.020664
H93_3 H 0.470529 0.993375 0.078547
C117_3 C 0.42051(10) 0.8846(3) 0.1041(4)
C118_3 C 0.39954(11) 0.8919(3) 0.1680(3)
H94_3 H 0.403203 0.918029 0.218816
C119_3 C 0.37282(10) 0.8600(3) 0.1566(3)
C120_3 C 0.36724(10) 0.8217(2) 0.0796(3)
C121_3 C 0.38832(11) 0.8155(3) 0.0144(3)
C122_3 C 0.41531(10) 0.8466(3) 0.0279(3)
C124_3 C 0.35033(12) 0.8669(3) 0.2287(4)
H99_3 H 0.333045 0.886526 0.204080
H100_3 H 0.346169 0.821627 0.252947
H101_3 H 0.357483 0.896746 0.274936
C125_3 C 0.33410(10) 0.7202(3) 0.0961(3)
H102_3 H 0.349940 0.695516 0.117211
C126_3 C 0.30723(10) 0.6866(3) 0.0934(3)
C127_3 C 0.28275(10) 0.7247(3) 0.0621(3)
C128_3 C 0.28731(11) 0.7935(3) 0.0335(3)
H103_3 H 0.271811 0.818920 0.011311
C129_3 C 0.31427(11) 0.8246(3) 0.0373(4)
H104_3 H 0.316512 0.870534 0.018521
C130_3 C 0.33805(10) 0.7877(3) 0.0691(3)
C131_3 C 0.25534(10) 0.6886(3) 0.0516(3)
C132_3 C 0.25552(10) 0.6156(3) 0.0520(3)
O14_3 O 0.03001(8) 0.3463(2) 0.6822(2)
C67_3 C 0.05335(12) 0.3697(3) 0.6488(4)
O15_3 O 0.05851(8) 0.3722(2) 0.5698(3)
C68_3 C 0.07412(11) 0.3985(3) 0.7191(4)
H53_3 H 0.074987 0.366731 0.769222
H54_3 H 0.067146 0.443196 0.740399
O16_3 O 0.10145(8) 0.4065(2) 0.6830(2)
C69_3 C 0.12225(12) 0.4290(3) 0.7413(4)
C70_3 C 0.15000(11) 0.4335(3) 0.7061(4)
H55_3 H 0.153316 0.419786 0.647672
C71_3 C 0.17252(12) 0.4578(3) 0.7568(3)
C72_3 C 0.16734(11) 0.4783(3) 0.8456(3)
C73_3 C 0.13956(11) 0.4729(3) 0.8811(3)
C74_3 C 0.11711(11) 0.4474(3) 0.8290(4)
H56_3 H 0.098727 0.442606 0.852929
C75_3 C 0.13298(11) 0.4936(3) 0.9772(3)
H57_3 H 0.116405 0.468272 0.997734
H59_3 H 0.129139 0.542755 0.980035
C76_3 C 0.20173(12) 0.4653(3) 0.7151(4)
H60_3 H 0.209408 0.510613 0.728487
H61_3 H 0.214387 0.430081 0.738292
H62_3 H 0.200113 0.459969 0.651804
C77_3 C 0.19058(10) 0.5111(3) 0.8992(3)
O24_3 O 0.05803(9) 0.8864(2) 0.9971(4)
C78_3 C 0.18712(10) 0.5788(3) 0.9272(3)
H63_3 H 0.170460 0.602624 0.910834
C79_3 C 0.20762(10) 0.6136(2) 0.9794(3)
O26_3 O 0.47984(11) 0.9410(3) 0.9114(3)
C81_3 C 0.23692(10) 0.5101(3) 0.9725(3)
H64_3 H 0.253852 0.486402 0.986009
C82_3 C 0.21616(10) 0.4774(3) 0.9219(3)
H65_3 H 0.219294 0.431985 0.902617
C86_3 C 0.10415(13) 0.8663(3) 0.9435(4)
H68_3 H 0.098081 0.886671 0.890554
C87_3 C 0.13171(12) 0.8426(3) 0.9517(4)
C92_3 C 0.15122(15) 0.8488(3) 0.8723(4)
H73_3 H 0.169416 0.867984 0.890415
H74_3 H 0.154214 0.803459 0.846747
H75_3 H 0.142488 0.878889 0.828925
H78_3 H 0.160576 0.689259 0.987884
C115_3 C 0.47664(12) 0.9157(3) 0.9867(4)
H95_3 H 0.429743 0.841605 0.985426
C123_3 C 0.38324(12) 0.7735(3) 0.9316(4)
H96_3 H 0.400900 0.769880 0.898592
H97_3 H 0.376662 0.727692 0.947492
H98_3 H 0.368892 0.796125 0.895665
O18_3 O 0.96683(8) 0.28923(19) 0.6560(2)
H115_3 H 0.970695 0.253122 0.701831
H116_3 H 0.952371 0.271327 0.61296
O14_4 O 0.46999(8) 0.1537(2) 0.1822(2)
C67_4 C 0.44665(12) 0.1303(3) 0.1488(4)
O15_4 O 0.44149(8) 0.1278(2) 0.0698(3)
C68_4 C 0.42588(11) 0.1015(3) 0.2191(4)
H53_4 H 0.425013 0.133269 0.269222
H54_4 H 0.432854 0.056804 0.240399
O16_4 O 0.39855(8) 0.0935(2) 0.1830(2)
C69_4 C 0.37775(12) 0.0710(3) 0.2413(4)
C70_4 C 0.35000(11) 0.0665(3) 0.2061(4)
H55_4 H 0.346684 0.080214 0.147672
C71_4 C 0.32748(12) 0.0422(3) 0.2568(3)
O18_4 O 0.53317(8) 0.21077(19) 0.1560(2)
C72_4 C 0.33266(11) 0.0217(3) 0.3456(3)
O19_4 O 0.02532(11) 0.0650(3) 0.8203(4)
C73_4 C 0.36044(11) 0.0271(3) 0.3811(3)
O20_4 O 0.05250(10) 0.1575(2) 0.8474(3)
C74_4 C 0.38289(11) 0.0526(3) 0.3290(4)
H56_4 H 0.401273 0.057394 0.352929
O21_4 O 0.09105(10) 0.0753(2) 0.9388(3)
C75_4 C 0.36702(11) 0.0064(3) 0.4772(3)
H57_4 H 0.383595 0.031728 0.497734
H58_4 H 0.350742 0.017298 0.514107
C76_4 C 0.29827(12) 0.0347(3) 0.2151(4)
H61_4 H 0.285613 0.069919 0.238292
H62_4 H 0.299887 0.040031 0.151804
H64_4 H 0.246148 0.013598 0.486009
C82_4 C 0.28384(10) 0.0226(3) 0.4219(3)
H65_4 H 0.280706 0.068015 0.402617
C99_4 C 0.04557(15) 0.0955(4) 0.8577(5)
C100_4 C 0.06242(15) 0.0501(4) 0.9198(5)
H79_4 H 0.063890 0.003804 0.894154
H80_4 H 0.051872 0.046002 0.975240
C101_4 C 0.11193(12) 0.0583(3) 0.8774(4)
C102_4 C 0.13981(13) 0.0576(3) 0.9061(4)
H81_4 H 0.143898 0.071665 0.963908
C103_4 C 0.16229(12) 0.0363(3) 0.8513(3)
C104_4 C 0.15615(11) 0.0159(3) 0.7634(3)
C105_4 C 0.12781(11) 0.0196(3) 0.7334(3)
C106_4 C 0.10583(12) 0.0403(3) 0.7902(4)
H82_4 H 0.086936 0.042174 0.769612
C107_4 C 0.11956(12) 0.0018(3) 0.6372(4)
H83_4 H 0.100592 0.019320 0.624851
H84_4 H 0.133163 0.022804 0.597242
C108_4 C 0.19238(13) 0.0306(3) 0.8900(4)
H87_4 H 0.202711 0.073155 0.879467
H88_4 H 0.191092 0.022356 0.952901
C110_4 C 0.20563(10) 0.0186(3) 0.6881(3)
H89_4 H 0.209234 0.062456 0.712180
H90_4 H 0.242951 0.012162 0.624845
H115_4 H 0.529305 0.246878 0.201831
H116_4 H 0.547629 0.228673 0.11296
O17_4 O 0.05354(7) 0.5829(2) 0.6225(3)
H59_4 H 0.370861 0.957245 0.480035
H60_4 H 0.290592 0.989387 0.228487
C77_4 C 0.30942(10) 0.9889(3) 0.3992(3)
O24_4 O 0.44197(9) 0.6136(2) 0.4971(4)
C78_4 C 0.31288(10) 0.9212(3) 0.4272(3)
H63_4 H 0.329540 0.897376 0.410834
C79_4 C 0.29238(10) 0.8864(2) 0.4794(3)
O26_4 O 0.02016(11) 0.5590(3) 0.4114(3)
C80_4 C 0.26688(10) 0.9218(3) 0.5040(3)
C81_4 C 0.26308(10) 0.9899(3) 0.4725(3)
C83_4 C 0.47478(11) 0.6826(3) 0.5901(6)
C84_4 C 0.46095(15) 0.6116(3) 0.5648(6)
H66_4 H 0.451226 0.593133 0.616815
H67_4 H 0.476267 0.579364 0.549375
C85_4 C 0.41465(12) 0.6399(3) 0.5136(5)
C86_4 C 0.39585(13) 0.6337(3) 0.4435(4)
H68_4 H 0.401919 0.613329 0.390554
C87_4 C 0.36829(12) 0.6574(3) 0.4517(4)
C88_4 C 0.35869(11) 0.6877(2) 0.5316(3)
C89_4 C 0.37718(11) 0.6935(3) 0.6028(4)
C90_4 C 0.40608(12) 0.6692(3) 0.5928(5)
H69_4 H 0.419074 0.673141 0.639641
C91_4 C 0.36778(13) 0.7242(3) 0.6903(4)
H70_4 H 0.384169 0.728610 0.728855
H71_4 H 0.359430 0.769350 0.680349
H72_4 H 0.353732 0.694153 0.717402
C92_4 C 0.34878(15) 0.6512(3) 0.3723(4)
H73_4 H 0.330584 0.632016 0.390415
H74_4 H 0.345786 0.696541 0.346747
H75_4 H 0.357512 0.621111 0.328925
C93_4 C 0.32864(10) 0.7166(3) 0.5353(3)
C94_4 C 0.30499(11) 0.6781(3) 0.5671(4)
H76_4 H 0.307692 0.632541 0.586699
C95_4 C 0.27777(11) 0.7073(3) 0.5695(3)
H77_4 H 0.262500 0.681139 0.591724
C96_4 C 0.27251(10) 0.7759(3) 0.5391(3)
C97_4 C 0.29649(10) 0.8149(2) 0.5085(3)
C98_4 C 0.32385(10) 0.7844(3) 0.5077(3)
H78_4 H 0.339424 0.810741 0.487884
H85_4 H 0.119779 0.952073 0.629450
H86_4 H 0.202388 0.992483 0.862315
C109_4 C 0.17901(10) 0.9855(3) 0.7063(3)
C111_4 C 0.22594(10) 0.9882(3) 0.6368(3)
C112_4 C 0.22186(9) 0.9207(2) 0.6008(3)
C113_4 C 0.19648(10) 0.8843(2) 0.6221(3)
C114_4 C 0.17580(10) 0.9189(3) 0.6734(3)
H91_4 H 0.158750 0.895364 0.686099
C115_4 C 0.02336(12) 0.5843(3) 0.4867(4)
C116_4 C 0.04144(12) 0.5429(3) 0.5527(4)
H92_4 H 0.056965 0.520092 0.520664
H93_4 H 0.029471 0.506625 0.578547
C117_4 C 0.07949(10) 0.6154(3) 0.6041(4)
C118_4 C 0.10046(11) 0.6081(3) 0.6680(3)
H94_4 H 0.096797 0.581971 0.718816
C119_4 C 0.12718(10) 0.6400(3) 0.6566(3)
C120_4 C 0.13276(10) 0.6783(2) 0.5796(3)
C121_4 C 0.11168(11) 0.6845(3) 0.5144(3)
C122_4 C 0.08469(10) 0.6534(3) 0.5279(3)
H95_4 H 0.070257 0.658395 0.485426
C123_4 C 0.11676(12) 0.7265(3) 0.4316(4)
H96_4 H 0.099100 0.730120 0.398592
H97_4 H 0.123338 0.772308 0.447492
H98_4 H 0.131108 0.703875 0.395665
C124_4 C 0.14967(12) 0.6331(3) 0.7287(4)
H99_4 H 0.166955 0.613474 0.704080
H100_4 H 0.153831 0.678373 0.752947
H101_4 H 0.142517 0.603254 0.774936
C125_4 C 0.16590(10) 0.7798(3) 0.5961(3)
H102_4 H 0.150060 0.804484 0.617211
C126_4 C 0.19277(10) 0.8134(3) 0.5934(3)
C127_4 C 0.21725(10) 0.7753(3) 0.5621(3)
C128_4 C 0.21269(11) 0.7065(3) 0.5335(3)
H103_4 H 0.228189 0.681080 0.511311
C129_4 C 0.18573(11) 0.6754(3) 0.5373(4)
H104_4 H 0.183488 0.629466 0.518521
C130_4 C 0.16195(10) 0.7123(3) 0.5691(3)
C131_4 C 0.24466(10) 0.8114(3) 0.5516(3)
C132_4 C 0.24448(10) 0.8844(3) 0.5520(3)
O1_4 O 0.53001(8) 0.1537(2) 0.3178(2)
C1_4 C 0.55335(12) 0.1303(3) 0.3512(4)
O2_4 O 0.55851(8) 0.1278(2) 0.4302(3)
C2_4 C 0.57412(11) 0.1015(3) 0.2809(4)
H1_4 H 0.574987 0.133269 0.230778
H2_4 H 0.567146 0.056804 0.259601
O3_4 O 0.60145(8) 0.0935(2) 0.3170(2)
C3_4 C 0.62225(12) 0.0710(3) 0.2587(4)
C4_4 C 0.65000(11) 0.0665(3) 0.2939(4)
H3_4 H 0.653316 0.080214 0.352328
C5_4 C 0.67252(12) 0.0422(3) 0.2432(3)
O5_4 O 0.46683(8) 0.21077(19) 0.3440(2)
C6_4 C 0.66734(11) 0.0217(3) 0.1544(3)
C7_4 C 0.63956(11) 0.0271(3) 0.1189(3)
C8_4 C 0.61711(11) 0.0526(3) 0.1710(4)
H4_4 H 0.598727 0.057394 0.147071
C9_4 C 0.63298(11) 0.0064(3) 0.0228(3)
H5_4 H 0.616405 0.031728 0.002266
C10_4 C 0.70173(12) 0.0347(3) 0.2849(4)
H9_4 H 0.714387 0.069919 0.261708
H10_4 H 0.700113 0.040031 0.348196
H12_4 H 0.753852 0.013598 0.013991
C16_4 C 0.71616(10) 0.0226(3) 0.0781(3)
H13_4 H 0.719294 0.068015 0.097383
H113_4 H 0.470695 0.246878 0.298169
H114_4 H 0.452371 0.228673 0.38704
O6_4 O 0.97468(11) 0.0650(3) 0.6797(4)
O7_4 O 0.94750(10) 0.1575(2) 0.6526(3)
O8_4 O 0.90895(10) 0.0753(2) 0.5612(3)
H6_4 H 0.649258 0.017298 0.985893
C33_4 C 0.95443(15) 0.0955(4) 0.6423(5)
C34_4 C 0.93758(15) 0.0501(4) 0.5802(5)
H27_4 H 0.936110 0.003804 0.605846
H28_4 H 0.948128 0.046002 0.524760
C35_4 C 0.88807(12) 0.0583(3) 0.6226(4)
C36_4 C 0.86019(13) 0.0576(3) 0.5939(4)
H29_4 H 0.856102 0.071665 0.536092
C37_4 C 0.83771(12) 0.0363(3) 0.6487(3)
C38_4 C 0.84385(11) 0.0159(3) 0.7366(3)
C39_4 C 0.87219(11) 0.0196(3) 0.7666(3)
C40_4 C 0.89417(12) 0.0403(3) 0.7098(4)
H30_4 H 0.913064 0.042174 0.730388
C41_4 C 0.88044(12) 0.0018(3) 0.8628(4)
H31_4 H 0.899408 0.019320 0.875149
H32_4 H 0.866837 0.022804 0.902758
C42_4 C 0.80762(13) 0.0306(3) 0.6100(4)
H35_4 H 0.797289 0.073155 0.620533
H36_4 H 0.808908 0.022356 0.547099
C44_4 C 0.79437(10) 0.0186(3) 0.8119(3)
H37_4 H 0.790766 0.062456 0.787820
H38_4 H 0.757049 0.012162 0.875155
O4_4 O 0.94646(7) 0.5829(2) 0.8775(3)
C14_4 C 0.73312(10) 0.9218(3) 0.9960(3)
C17_4 C 0.52522(11) 0.6826(3) 0.9099(6)
C18_4 C 0.53905(15) 0.6116(3) 0.9352(6)
H14_4 H 0.548774 0.593133 0.883185
H15_4 H 0.523733 0.579364 0.950625
C19_4 C 0.58535(12) 0.6399(3) 0.9864(5)
C22_4 C 0.64131(11) 0.6877(2) 0.9684(3)
C23_4 C 0.62282(11) 0.6935(3) 0.8972(4)
C24_4 C 0.59392(12) 0.6692(3) 0.9072(5)
H17_4 H 0.580926 0.673141 0.860359
C25_4 C 0.63222(13) 0.7242(3) 0.8097(4)
H18_4 H 0.615831 0.728610 0.771145
H19_4 H 0.640570 0.769350 0.819651
H20_4 H 0.646268 0.694153 0.782598
C27_4 C 0.67136(10) 0.7166(3) 0.9647(3)
C28_4 C 0.69501(11) 0.6781(3) 0.9329(4)
H24_4 H 0.692308 0.632541 0.913301
C29_4 C 0.72223(11) 0.7073(3) 0.9305(3)
H25_4 H 0.737500 0.681139 0.908276
C30_4 C 0.72749(10) 0.7759(3) 0.9609(3)
C31_4 C 0.70351(10) 0.8149(2) 0.9915(3)
C32_4 C 0.67615(10) 0.7844(3) 0.9923(3)
H33_4 H 0.880221 0.952073 0.870550
H34_4 H 0.797612 0.992483 0.637685
C43_4 C 0.82099(10) 0.9855(3) 0.7937(3)
C45_4 C 0.77406(10) 0.9882(3) 0.8632(3)
C46_4 C 0.77814(9) 0.9207(2) 0.8992(3)
C47_4 C 0.80352(10) 0.8843(2) 0.8779(3)
C48_4 C 0.82420(10) 0.9189(3) 0.8266(3)
H39_4 H 0.841250 0.895364 0.813901
C50_4 C 0.95856(12) 0.5429(3) 0.9473(4)
H40_4 H 0.943035 0.520092 0.979336
H41_4 H 0.970529 0.506625 0.921453
C51_4 C 0.92051(10) 0.6154(3) 0.8959(4)
C52_4 C 0.89954(11) 0.6081(3) 0.8320(3)
H42_4 H 0.903203 0.581971 0.781184
C53_4 C 0.87282(10) 0.6400(3) 0.8434(3)
C54_4 C 0.86724(10) 0.6783(2) 0.9204(3)
C55_4 C 0.88832(11) 0.6845(3) 0.9856(3)
C56_4 C 0.91531(10) 0.6534(3) 0.9721(3)
C58_4 C 0.85033(12) 0.6331(3) 0.7713(4)
H47_4 H 0.833045 0.613474 0.795920
H48_4 H 0.846169 0.678373 0.747053
H49_4 H 0.857483 0.603254 0.725064
C59_4 C 0.83410(10) 0.7798(3) 0.9039(3)
H50_4 H 0.849940 0.804484 0.882789
C60_4 C 0.80723(10) 0.8134(3) 0.9066(3)
C61_4 C 0.78275(10) 0.7753(3) 0.9379(3)
C62_4 C 0.78731(11) 0.7065(3) 0.9665(3)
H51_4 H 0.771811 0.681080 0.988689
C63_4 C 0.81427(11) 0.6754(3) 0.9627(4)
H52_4 H 0.816512 0.629466 0.981479
C64_4 C 0.83805(10) 0.7123(3) 0.9309(3)
C65_4 C 0.75534(10) 0.8114(3) 0.9484(3)
C66_4 C 0.75552(10) 0.8844(3) 0.9480(3)
H7_3 H 0.370861 0.042755 0.980035
H8_3 H 0.290592 0.010613 0.728487
C11_3 C 0.30942(10) 0.0111(3) 0.8992(3)
O11_3 O 0.44197(9) 0.3864(2) 0.9971(4)
C12_3 C 0.31288(10) 0.0788(3) 0.9272(3)
H11_3 H 0.329540 0.102624 0.910834
C13_3 C 0.29238(10) 0.1136(2) 0.9794(3)
O13_3 O 0.02016(11) 0.4410(3) 0.9114(3)
C15_3 C 0.26308(10) 0.0101(3) 0.9725(3)
C20_3 C 0.39585(13) 0.3663(3) 0.9435(4)
H16_3 H 0.401919 0.386671 0.890554
C21_3 C 0.36829(12) 0.3426(3) 0.9517(4)
C26_3 C 0.34878(15) 0.3488(3) 0.8723(4)
H21_3 H 0.330584 0.367984 0.890415
H22_3 H 0.345786 0.303459 0.846747
H23_3 H 0.357512 0.378889 0.828925
H26_3 H 0.339424 0.189259 0.987884
C49_3 C 0.02336(12) 0.4157(3) 0.9867(4)
H43_3 H 0.070257 0.341605 0.985426
C57_3 C 0.11676(12) 0.2735(3) 0.9316(4)
H44_3 H 0.099100 0.269880 0.898592
H45_3 H 0.123338 0.227692 0.947492
H46_3 H 0.131108 0.296125 0.895665
H7_4 H 0.629139 0.957245 0.019965
H8_4 H 0.709408 0.989387 0.271513
C11_4 C 0.69058(10) 0.9889(3) 0.1008(3)
O11_4 O 0.55803(9) 0.6136(2) 0.0029(4)
C12_4 C 0.68712(10) 0.9212(3) 0.0728(3)
H11_4 H 0.670460 0.897376 0.089166
C13_4 C 0.70762(10) 0.8864(2) 0.0206(3)
O13_4 O 0.97984(11) 0.5590(3) 0.0886(3)
C15_4 C 0.73692(10) 0.9899(3) 0.0275(3)
C20_4 C 0.60415(13) 0.6337(3) 0.0565(4)
H16_4 H 0.598081 0.613329 0.109446
C21_4 C 0.63171(12) 0.6574(3) 0.0483(4)
C26_4 C 0.65122(15) 0.6512(3) 0.1277(4)
H21_4 H 0.669416 0.632016 0.109585
H22_4 H 0.654214 0.696541 0.153253
H23_4 H 0.642488 0.621111 0.171075
H26_4 H 0.660576 0.810741 0.012116
C49_4 C 0.97664(12) 0.5843(3) 0.0133(4)
H43_4 H 0.929743 0.658395 0.014574
C57_4 C 0.88324(12) 0.7265(3) 0.0684(4)
H44_4 H 0.900900 0.730120 0.101408
H45_4 H 0.876662 0.772308 0.052508
H46_4 H 0.868892 0.703875 0.104335
N1 N 0.0593(2) 0.3208(5) 0.3981(7)
H105 H 0.055630 0.284344 0.363320
H106 H 0.050611 0.313365 0.450010
C133 C 0.0958(3) 0.3254(7) 0.4157(8)
H107 H 0.104857 0.284417 0.391975
H108 H 0.099534 0.328330 0.478385
H109 H 0.103385 0.366022 0.386626
C134 C 0.0458(3) 0.3881(7) 0.3541(8)
H110 H 0.026028 0.379211 0.338795
H111 H 0.056407 0.399812 0.301315
H112 H 0.046721 0.426297 0.395322
N1_2 N 0.4407(2) 0.1792(5) 0.8981(7)
H105_2 H 0.444370 0.215656 0.863320
H106_2 H 0.449389 0.186635 0.950010
C133_2 C 0.4042(3) 0.1746(7) 0.9157(8)
H107_2 H 0.395143 0.215583 0.891975
H108_2 H 0.400466 0.171670 0.978385
H109_2 H 0.396615 0.133978 0.886626
C134_2 C 0.4542(3) 0.1119(7) 0.8541(8)
H110_2 H 0.473972 0.120789 0.838795
H111_2 H 0.443593 0.100188 0.801315
H112_2 H 0.453279 0.073703 0.895322
N1_3 N 0.5593(2) 0.1792(5) 0.6019(7)
H105_3 H 0.555630 0.215656 0.636680
H106_3 H 0.550611 0.186635 0.549990
C133_3 C 0.5958(3) 0.1746(7) 0.5843(8)
H107_3 H 0.604857 0.215583 0.608025
H108_3 H 0.599534 0.171670 0.521615
H109_3 H 0.603385 0.133978 0.613374
C134_3 C 0.5458(3) 0.1119(7) 0.6459(8)
H110_3 H 0.526028 0.120789 0.661205
H111_3 H 0.556407 0.100188 0.698685
H112_3 H 0.546721 0.073703 0.604678
N1_4 N 0.9407(2) 0.3208(5) 0.1019(7)
H105_4 H 0.944370 0.284344 0.136680
H106_4 H 0.949389 0.313365 0.049990
C133_4 C 0.9042(3) 0.3254(7) 0.0843(8)
H107_4 H 0.895143 0.284417 0.108025
H108_4 H 0.900466 0.328330 0.021615
H109_4 H 0.896615 0.366022 0.113374
C134_4 C 0.9542(3) 0.3881(7) 0.1459(8)
H110_4 H 0.973972 0.379211 0.161205
H111_4 H 0.943593 0.399812 0.198685
H112_4 H 0.953279 0.426297 0.104678
N1_5 N 0.9407(2) 0.6792(5) 0.6019(7)
H105_5 H 0.944370 0.715656 0.636680
H106_5 H 0.949389 0.686635 0.549990
C133_5 C 0.9042(3) 0.6746(7) 0.5843(8)
H107_5 H 0.895143 0.715583 0.608025
H108_5 H 0.900466 0.671670 0.521615
H109_5 H 0.896615 0.633978 0.613374
C134_5 C 0.9542(3) 0.6119(7) 0.6459(8)
H110_5 H 0.973972 0.620789 0.661205
H111_5 H 0.943593 0.600188 0.698685
H112_5 H 0.953279 0.573703 0.604678
N1_6 N 0.5593(2) 0.8208(5) 0.1019(7)
H105_6 H 0.555630 0.784344 0.136680
H106_6 H 0.550611 0.813365 0.049990
C133_6 C 0.5958(3) 0.8254(7) 0.0843(8)
H107_6 H 0.604857 0.784417 0.108025
H108_6 H 0.599534 0.828330 0.021615
H109_6 H 0.603385 0.866022 0.113374
C134_6 C 0.5458(3) 0.8881(7) 0.1459(8)
H110_6 H 0.526028 0.879211 0.161205
H111_6 H 0.556407 0.899812 0.198685
H112_6 H 0.546721 0.926297 0.104678
N1_7 N 0.4407(2) 0.8208(5) 0.3981(7)
H105_7 H 0.444370 0.784344 0.363320
H106_7 H 0.449389 0.813365 0.450010
C133_7 C 0.4042(3) 0.8254(7) 0.4157(8)
H107_7 H 0.395143 0.784417 0.391975
H108_7 H 0.400466 0.828330 0.478385
H109_7 H 0.396615 0.866022 0.386626
C134_7 C 0.4542(3) 0.8881(7) 0.3541(8)
H110_7 H 0.473972 0.879211 0.338795
H111_7 H 0.443593 0.899812 0.301315
H112_7 H 0.453279 0.926297 0.395322
N1_8 N 0.0593(2) 0.6792(5) 0.8981(7)
H105_8 H 0.055630 0.715656 0.863320
H106_8 H 0.050611 0.686635 0.950010
C133_8 C 0.0958(3) 0.6746(7) 0.9157(8)
H107_8 H 0.104857 0.715583 0.891975
H108_8 H 0.099534 0.671670 0.978385
H109_8 H 0.103385 0.633978 0.886626
C134_8 C 0.0458(3) 0.6119(7) 0.8541(8)
H110_8 H 0.026028 0.620789 0.838795
H111_8 H 0.056407 0.600188 0.801315
H112_8 H 0.046721 0.573703 0.895322
loop_
_geom_bond_atom_site_label_1
_geom_bond_atom_site_label_2
_geom_bond_site_symmetry_1
_geom_bond_site_symmetry_2
O18 H115 1_555 1_555
O18 H116 1_555 1_555
Zn3 O14 1_555 1_555
O14 C67 1_555 1_555
C67 O15 1_555 1_555
C68 C67 1_555 1_555
H53 C68 1_555 1_555
H54 C68 1_555 1_555
O16 C68 1_555 1_555
C69 O16 1_555 1_555
C70 C69 1_555 1_555
H55 C70 1_555 1_555
C71 C70 1_555 1_555
C72 C71 1_555 1_555
C73 C72 1_555 1_555
C74 C69 1_555 1_555
H56 C74 1_555 1_555
C75 C73 1_555 1_555
H57 C75 1_555 1_555
H59 C75 1_555 1_555
C76 C71 1_555 1_555
H60 C76 1_555 1_555
H61 C76 1_555 1_555
H62 C76 1_555 1_555
C77 C72 1_555 1_555
C78 C77 1_555 1_555
H63 C78 1_555 1_555
C79 C78 1_555 1_555
O26 C115 1_555 1_555
H64 C81 1_555 1_555
C82 C77 1_555 1_555
H65 C82 1_555 1_555
H68 C86 1_555 1_555
C87 C86 1_555 1_555
C92 C87 1_555 1_555
H73 C92 1_555 1_555
H74 C92 1_555 1_555
H75 C92 1_555 1_555
H96 C123 1_555 1_555
H97 C123 1_555 1_555
H98 C123 1_555 1_555
O29 Zn3 1_555 1_555
C73 C74 1_555 1_555
C81 C82 1_555 1_555
Zn1 O1 1_555 1_555
O1 C1 1_555 1_555
C1 O2 1_555 1_555
Zn2 O6 1_555 1_555
C2 C1 1_555 1_555
H1 C2 1_555 1_555
H2 C2 1_555 1_555
O3 C2 1_555 1_555
C3 O3 1_555 1_555
C4 C3 1_555 1_555
H3 C4 1_555 1_555
O4 C50 1_555 1_555
C5 C4 1_555 1_555
C6 C5 1_555 1_555
O6 C33 1_555 1_555
C7 C6 1_555 1_555
O7 C33 1_555 1_555
C8 C3 1_555 1_555
H4 C8 1_555 1_555
O8 C34 1_555 1_555
C9 C7 1_555 1_555
H5 C9 1_555 1_555
H6 C9 1_555 1_555
H7 C9 1_555 1_555
O9 C17 1_555 1_555
C10 C5 1_555 1_555
H8 C10 1_555 1_555
H9 C10 1_555 1_555
H10 C10 1_555 1_555
O10 C17 1_555 1_555
C11 C6 1_555 1_555
O11 C18 1_555 1_555
C12 C11 1_555 1_555
H11 C12 1_555 1_555
O12 C49 1_555 1_555
C13 C12 1_555 1_555
O13 C49 1_555 1_555
C14 C13 1_555 1_555
C15 C14 1_555 1_555
H12 C15 1_555 1_555
C16 C11 1_555 1_555
H13 C16 1_555 1_555
C17 C18 1_555 1_555
C18 H14 1_555 1_555
H15 C18 1_555 1_555
C19 O11 1_555 1_555
C20 C19 1_555 1_555
H16 C20 1_555 1_555
C21 C20 1_555 1_555
C22 C21 1_555 1_555
C23 C22 1_555 1_555
C24 C19 1_555 1_555
H17 C24 1_555 1_555
C25 C23 1_555 1_555
H18 C25 1_555 1_555
H19 C25 1_555 1_555
H20 C25 1_555 1_555
C26 C21 1_555 1_555
H21 C26 1_555 1_555
H22 C26 1_555 1_555
H23 C26 1_555 1_555
C27 C22 1_555 1_555
C28 C27 1_555 1_555
H24 C28 1_555 1_555
C29 C28 1_555 1_555
H25 C29 1_555 1_555
C30 C29 1_555 1_555
C31 C13 1_555 1_555
C32 C27 1_555 1_555
H26 C32 1_555 1_555
C33 C34 1_555 1_555
C34 H27 1_555 1_555
H28 C34 1_555 1_555
C35 O8 1_555 1_555
C36 C35 1_555 1_555
H29 C36 1_555 1_555
C37 C36 1_555 1_555
C38 C37 1_555 1_555
C39 C38 1_555 1_555
C40 C35 1_555 1_555
H30 C40 1_555 1_555
C41 C39 1_555 1_555
H31 C41 1_555 1_555
H32 C41 1_555 1_555
H33 C41 1_555 1_555
C42 C37 1_555 1_555
H34 C42 1_555 1_555
H35 C42 1_555 1_555
H36 C42 1_555 1_555
C43 C38 1_555 1_555
C44 C43 1_555 1_555
H37 C44 1_555 1_555
C45 C44 1_555 1_555
H38 C45 1_555 1_555
C46 C45 1_555 1_555
C47 C46 1_555 1_555
C48 C43 1_555 1_555
H39 C48 1_555 1_555
C49 C50 1_555 1_555
C50 H40 1_555 1_555
H41 C50 1_555 1_555
C51 O4 1_555 1_555
C52 C51 1_555 1_555
H42 C52 1_555 1_555
C53 C52 1_555 1_555
C54 C53 1_555 1_555
C55 C54 1_555 1_555
C56 C51 1_555 1_555
H43 C56 1_555 1_555
C57 C55 1_555 1_555
H44 C57 1_555 1_555
H45 C57 1_555 1_555
H46 C57 1_555 1_555
C58 C53 1_555 1_555
H47 C58 1_555 1_555
H48 C58 1_555 1_555
H49 C58 1_555 1_555
C59 H50 1_555 1_555
C60 C47 1_555 1_555
C61 C60 1_555 1_555
C62 C61 1_555 1_555
H51 C62 1_555 1_555
C63 C62 1_555 1_555
H52 C63 1_555 1_555
C64 C54 1_555 1_555
C65 C30 1_555 1_555
C66 C14 1_555 1_555
O17 C116 1_555 1_555
O19 Zn2 1_555 1_555
O20 C99 1_555 1_555
O21 C100 1_555 1_555
O22 C83 1_555 1_555
O23 C83 1_555 1_555
C83 C84 1_555 1_555
C84 H66 1_555 1_555
H67 C84 1_555 1_555
C89 C88 1_555 1_555
C90 C85 1_555 1_555
H69 C90 1_555 1_555
C91 C89 1_555 1_555
H70 C91 1_555 1_555
H71 C91 1_555 1_555
H72 C91 1_555 1_555
C93 C88 1_555 1_555
C94 C93 1_555 1_555
H76 C94 1_555 1_555
C95 C94 1_555 1_555
H77 C95 1_555 1_555
C96 C95 1_555 1_555
C98 C93 1_555 1_555
C99 O19 1_555 1_555
C100 C99 1_555 1_555
H79 C100 1_555 1_555
H80 C100 1_555 1_555
C101 O21 1_555 1_555
C102 C101 1_555 1_555
H81 C102 1_555 1_555
C103 C102 1_555 1_555
C104 C103 1_555 1_555
C105 C104 1_555 1_555
C106 C101 1_555 1_555
H82 C106 1_555 1_555
C107 C105 1_555 1_555
H83 C107 1_555 1_555
H84 C107 1_555 1_555
H85 C107 1_555 1_555
C108 C103 1_555 1_555
H86 C108 1_555 1_555
H87 C108 1_555 1_555
H88 C108 1_555 1_555
C109 C104 1_555 1_555
C110 C109 1_555 1_555
H89 C110 1_555 1_555
C111 C110 1_555 1_555
H90 C111 1_555 1_555
C112 C111 1_555 1_555
C113 C112 1_555 1_555
C114 C109 1_555 1_555
H91 C114 1_555 1_555
C116 H92 1_555 1_555
H93 C116 1_555 1_555
C117 O17 1_555 1_555
C118 C117 1_555 1_555
H94 C118 1_555 1_555
C119 C118 1_555 1_555
C120 C119 1_555 1_555
C121 C120 1_555 1_555
C122 C117 1_555 1_555
C124 C119 1_555 1_555
H99 C124 1_555 1_555
H100 C124 1_555 1_555
H101 C124 1_555 1_555
C125 H102 1_555 1_555
C126 C113 1_555 1_555
C127 C126 1_555 1_555
C128 C127 1_555 1_555
H103 C128 1_555 1_555
C129 C128 1_555 1_555
H104 C129 1_555 1_555
C130 C120 1_555 1_555
C131 C96 1_555 1_555
C132 C80 1_555 1_555
Zn4 O23 1_555 1_555
Zn5 O12 1_555 1_555
Zn7 O10 1_555 1_555
Zn9 O9 1_555 1_555
Zn9_2 O22 1_555 1_555
O27 Zn2 1_555 1_555
O28 Zn2 1_555 1_555
O30 Zn1 1_555 1_555
C7 C8 1_555 1_555
C15 C16 1_555 1_555
C23 C24 1_555 1_555
C30 C31 1_555 1_555
C31 C32 1_555 1_555
C39 C40 1_555 1_555
C46 C66 1_555 1_555
C47 C48 1_555 1_555
C55 C56 1_555 1_555
C59 C60 1_555 1_555
C59 C64 1_555 1_555
C61 C65 1_555 1_555
C63 C64 1_555 1_555
C65 C66 1_555 1_555
C89 C90 1_555 1_555
C96 C97 1_555 1_555
C97 C98 1_555 1_555
C105 C106 1_555 1_555
C112 C132 1_555 1_555
C113 C114 1_555 1_555
C121 C122 1_555 1_555
C125 C126 1_555 1_555
C125 C130 1_555 1_555
C127 C131 1_555 1_555
C129 C130 1_555 1_555
C131 C132 1_555 1_555
O5 H113 1_555 1_555
O5 H114 1_555 1_555
O4_2 C50_2 1_555 1_555
O9_2 C17_2 1_555 1_555
O10_2 C17_2 1_555 1_555
C17_2 C18_2 1_555 1_555
C18_2 H14_2 1_555 1_555
H15_2 C18_2 1_555 1_555
C23_2 C22_2 1_555 1_555
C24_2 C19_2 1_555 1_555
H17_2 C24_2 1_555 1_555
C25_2 C23_2 1_555 1_555
H18_2 C25_2 1_555 1_555
H19_2 C25_2 1_555 1_555
H20_2 C25_2 1_555 1_555
C27_2 C22_2 1_555 1_555
C28_2 C27_2 1_555 1_555
H24_2 C28_2 1_555 1_555
C29_2 C28_2 1_555 1_555
H25_2 C29_2 1_555 1_555
C30_2 C29_2 1_555 1_555
C32_2 C27_2 1_555 1_555
C46_2 C45_2 1_555 1_555
C47_2 C46_2 1_555 1_555
C48_2 C43_2 1_555 1_555
H39_2 C48_2 1_555 1_555
C50_2 H40_2 1_555 1_555
H41_2 C50_2 1_555 1_555
C51_2 O4_2 1_555 1_555
C52_2 C51_2 1_555 1_555
H42_2 C52_2 1_555 1_555
C53_2 C52_2 1_555 1_555
C54_2 C53_2 1_555 1_555
C55_2 C54_2 1_555 1_555
C56_2 C51_2 1_555 1_555
C58_2 C53_2 1_555 1_555
H47_2 C58_2 1_555 1_555
H48_2 C58_2 1_555 1_555
H49_2 C58_2 1_555 1_555
C59_2 H50_2 1_555 1_555
C60_2 C47_2 1_555 1_555
C61_2 C60_2 1_555 1_555
C62_2 C61_2 1_555 1_555
H51_2 C62_2 1_555 1_555
C63_2 C62_2 1_555 1_555
H52_2 C63_2 1_555 1_555
C64_2 C54_2 1_555 1_555
C65_2 C30_2 1_555 1_555
C66_2 C14_2 1_555 1_555
Zn6 O10_2 1_555 1_555
Zn8 O9_2 1_555 1_555
C23_2 C24_2 1_555 1_555
C30_2 C31_2 1_555 1_555
C31_2 C32_2 1_555 1_555
C46_2 C66_2 1_555 1_555
C47_2 C48_2 1_555 1_555
C55_2 C56_2 1_555 1_555
C59_2 C60_2 1_555 1_555
C59_2 C64_2 1_555 1_555
C61_2 C65_2 1_555 1_555
C63_2 C64_2 1_555 1_555
C65_2 C66_2 1_555 1_555
Zn2_2 O6_2 1_555 1_555
O6_2 C33_2 1_555 1_555
O7_2 C33_2 1_555 1_555
O8_2 C34_2 1_555 1_555
C33_2 C34_2 1_555 1_555
C34_2 H27_2 1_555 1_555
H28_2 C34_2 1_555 1_555
C35_2 O8_2 1_555 1_555
C36_2 C35_2 1_555 1_555
H29_2 C36_2 1_555 1_555
C37_2 C36_2 1_555 1_555
C38_2 C37_2 1_555 1_555
C39_2 C38_2 1_555 1_555
C40_2 C35_2 1_555 1_555
H30_2 C40_2 1_555 1_555
C41_2 C39_2 1_555 1_555
H31_2 C41_2 1_555 1_555
H32_2 C41_2 1_555 1_555
C42_2 C37_2 1_555 1_555
H35_2 C42_2 1_555 1_555
H36_2 C42_2 1_555 1_555
H37_2 C44_2 1_555 1_555
O28_2 Zn2_2 1_555 1_555
C39_2 C40_2 1_555 1_555
Zn1_2 O1_2 1_555 1_555
O1_2 C1_2 1_555 1_555
C1_2 O2_2 1_555 1_555
C2_2 C1_2 1_555 1_555
H1_2 C2_2 1_555 1_555
H2_2 C2_2 1_555 1_555
O3_2 C2_2 1_555 1_555
C3_2 O3_2 1_555 1_555
C4_2 C3_2 1_555 1_555
H3_2 C4_2 1_555 1_555
C5_2 C4_2 1_555 1_555
O5_2 Zn1_2 1_555 1_555
C6_2 C5_2 1_555 1_555
C7_2 C6_2 1_555 1_555
C8_2 C3_2 1_555 1_555
H4_2 C8_2 1_555 1_555
C9_2 C7_2 1_555 1_555
H5_2 C9_2 1_555 1_555
C10_2 C5_2 1_555 1_555
H9_2 C10_2 1_555 1_555
H10_2 C10_2 1_555 1_555
H13_2 C16_2 1_555 1_555
O30_2 Zn1_2 1_555 1_555
O31_2 Zn1_2 1_555 1_555
C7_2 C8_2 1_555 1_555
O5_2 H113_2 1_555 1_555
O5_2 H114_2 1_555 1_555
O17_2 C116_2 1_555 1_555
O22_2 C83_2 1_555 1_555
O23_2 C83_2 1_555 1_555
O24_2 C84_2 1_555 1_555
C78_2 C77_2 1_555 1_555
H63_2 C78_2 1_555 1_555
O25_2 C115_2 1_555 1_555
C79_2 C78_2 1_555 1_555
O26_2 C115_2 1_555 1_555
C80_2 C79_2 1_555 1_555
C81_2 C80_2 1_555 1_555
C83_2 C84_2 1_555 1_555
C84_2 H66_2 1_555 1_555
H67_2 C84_2 1_555 1_555
C85_2 O24_2 1_555 1_555
C86_2 C85_2 1_555 1_555
H68_2 C86_2 1_555 1_555
C87_2 C86_2 1_555 1_555
C88_2 C87_2 1_555 1_555
C89_2 C88_2 1_555 1_555
C90_2 C85_2 1_555 1_555
H69_2 C90_2 1_555 1_555
C91_2 C89_2 1_555 1_555
H70_2 C91_2 1_555 1_555
H71_2 C91_2 1_555 1_555
H72_2 C91_2 1_555 1_555
C92_2 C87_2 1_555 1_555
H73_2 C92_2 1_555 1_555
H74_2 C92_2 1_555 1_555
H75_2 C92_2 1_555 1_555
C93_2 C88_2 1_555 1_555
C94_2 C93_2 1_555 1_555
H76_2 C94_2 1_555 1_555
C95_2 C94_2 1_555 1_555
H77_2 C95_2 1_555 1_555
C96_2 C95_2 1_555 1_555
C97_2 C79_2 1_555 1_555
C98_2 C93_2 1_555 1_555
H78_2 C98_2 1_555 1_555
C112_2 C111_2 1_555 1_555
C113_2 C112_2 1_555 1_555
C114_2 C109_2 1_555 1_555
H91_2 C114_2 1_555 1_555
C115_2 C116_2 1_555 1_555
C116_2 H92_2 1_555 1_555
H93_2 C116_2 1_555 1_555
C117_2 O17_2 1_555 1_555
C118_2 C117_2 1_555 1_555
H94_2 C118_2 1_555 1_555
C119_2 C118_2 1_555 1_555
C120_2 C119_2 1_555 1_555
C121_2 C120_2 1_555 1_555
C122_2 C117_2 1_555 1_555
H95_2 C122_2 1_555 1_555
C123_2 C121_2 1_555 1_555
H96_2 C123_2 1_555 1_555
H97_2 C123_2 1_555 1_555
H98_2 C123_2 1_555 1_555
C124_2 C119_2 1_555 1_555
H99_2 C124_2 1_555 1_555
H100_2 C124_2 1_555 1_555
H101_2 C124_2 1_555 1_555
C125_2 H102_2 1_555 1_555
C126_2 C113_2 1_555 1_555
C127_2 C126_2 1_555 1_555
C128_2 C127_2 1_555 1_555
H103_2 C128_2 1_555 1_555
C129_2 C128_2 1_555 1_555
H104_2 C129_2 1_555 1_555
C130_2 C120_2 1_555 1_555
C131_2 C96_2 1_555 1_555
C132_2 C80_2 1_555 1_555
Zn5 O23_2 1_555 1_555
Zn8 O22_2 1_555 1_555
C89_2 C90_2 1_555 1_555
C96_2 C97_2 1_555 1_555
C97_2 C98_2 1_555 1_555
C112_2 C132_2 1_555 1_555
C113_2 C114_2 1_555 1_555
C121_2 C122_2 1_555 1_555
C125_2 C126_2 1_555 1_555
C125_2 C130_2 1_555 1_555
C127_2 C131_2 1_555 1_555
C129_2 C130_2 1_555 1_555
C131_2 C132_2 1_555 1_555
Zn3_2 O14_2 1_555 1_555
O14_2 C67_2 1_555 1_555
C67_2 O15_2 1_555 1_555
C68_2 C67_2 1_555 1_555
H53_2 C68_2 1_555 1_555
H54_2 C68_2 1_555 1_555
O16_2 C68_2 1_555 1_555
C69_2 O16_2 1_555 1_555
C70_2 C69_2 1_555 1_555
H55_2 C70_2 1_555 1_555
C71_2 C70_2 1_555 1_555
O18_2 Zn3_2 1_555 1_555
C72_2 C71_2 1_555 1_555
O19_2 Zn2_3 1_555 1_555
C73_2 C72_2 1_555 1_555
O20_2 C99_2 1_555 1_555
C74_2 C69_2 1_555 1_555
H56_2 C74_2 1_555 1_555
O21_2 C100_2 1_555 1_555
C75_2 C73_2 1_555 1_555
H57_2 C75_2 1_555 1_555
H58_2 C75_2 1_555 1_555
C76_2 C71_2 1_555 1_555
H61_2 C76_2 1_555 1_555
H62_2 C76_2 1_555 1_555
H65_2 C82_2 1_555 1_555
C99_2 O19_2 1_555 1_555
C100_2 C99_2 1_555 1_555
H79_2 C100_2 1_555 1_555
H80_2 C100_2 1_555 1_555
C101_2 O21_2 1_555 1_555
C102_2 C101_2 1_555 1_555
H81_2 C102_2 1_555 1_555
C103_2 C102_2 1_555 1_555
C104_2 C103_2 1_555 1_555
C105_2 C104_2 1_555 1_555
C106_2 C101_2 1_555 1_555
H82_2 C106_2 1_555 1_555
C107_2 C105_2 1_555 1_555
H83_2 C107_2 1_555 1_555
H84_2 C107_2 1_555 1_555
C108_2 C103_2 1_555 1_555
H87_2 C108_2 1_555 1_555
H88_2 C108_2 1_555 1_555
H89_2 C110_2 1_555 1_555
O27_2 Zn2_3 1_555 1_555
O29_2 Zn3_2 1_555 1_555
C73_2 C74_2 1_555 1_555
C105_2 C106_2 1_555 1_555
O18_2 H115_2 1_555 1_555
O18_2 H116_2 1_555 1_555
O5_3 H113_3 1_555 1_555
O5_3 H114_3 1_555 1_555
Zn4 O1_3 1_555 1_555
O1_3 C1_3 1_555 1_555
C1_3 O2_3 1_555 1_555
Zn8 O6_3 1_555 1_555
C2_3 C1_3 1_555 1_555
H1_3 C2_3 1_555 1_555
H2_3 C2_3 1_555 1_555
O3_3 C2_3 1_555 1_555
C3_3 O3_3 1_555 1_555
C4_3 C3_3 1_555 1_555
H3_3 C4_3 1_555 1_555
O4_3 C50_3 1_555 1_555
C5_3 C4_3 1_555 1_555
C6_3 C5_3 1_555 1_555
O6_3 C33_3 1_555 1_555
C7_3 C6_3 1_555 1_555
O7_3 C33_3 1_555 1_555
C8_3 C3_3 1_555 1_555
H4_3 C8_3 1_555 1_555
O8_3 C34_3 1_555 1_555
C9_3 C7_3 1_555 1_555
H5_3 C9_3 1_555 1_555
H6_3 C9_3 1_555 1_555
H7_2 C9_3 1_555 1_555
O27_2 C17_3 1_555 1_555
C10_3 C5_3 1_555 1_555
H8_2 C10_3 1_555 1_555
H9_3 C10_3 1_555 1_555
H10_3 C10_3 1_555 1_555
O29 C17_3 1_555 1_555
C11_2 C6_3 1_555 1_555
O11_2 C18_3 1_555 1_555
C12_2 C11_2 1_555 1_555
H11_2 C12_2 1_555 1_555
O31_2 C49_2 1_555 1_555
C13_2 C12_2 1_555 1_555
O13_2 C49_2 1_555 1_555
C14_3 C13_2 1_555 1_555
C15_2 C14_3 1_555 1_555
H12_3 C15_2 1_555 1_555
C16_3 C11_2 1_555 1_555
H13_3 C16_3 1_555 1_555
C17_3 C18_3 1_555 1_555
C18_3 H14_3 1_555 1_555
H15_3 C18_3 1_555 1_555
C19_3 O11_2 1_555 1_555
C20_2 C19_3 1_555 1_555
H16_2 C20_2 1_555 1_555
C21_2 C20_2 1_555 1_555
C22_3 C21_2 1_555 1_555
C23_3 C22_3 1_555 1_555
C24_3 C19_3 1_555 1_555
H17_3 C24_3 1_555 1_555
C25_3 C23_3 1_555 1_555
H18_3 C25_3 1_555 1_555
H19_3 C25_3 1_555 1_555
H20_3 C25_3 1_555 1_555
C26_2 C21_2 1_555 1_555
H21_2 C26_2 1_555 1_555
H22_2 C26_2 1_555 1_555
H23_2 C26_2 1_555 1_555
C27_3 C22_3 1_555 1_555
C28_3 C27_3 1_555 1_555
H24_3 C28_3 1_555 1_555
C29_3 C28_3 1_555 1_555
H25_3 C29_3 1_555 1_555
C30_3 C29_3 1_555 1_555
C31_3 C13_2 1_555 1_555
C32_3 C27_3 1_555 1_555
H26_2 C32_3 1_555 1_555
C33_3 C34_3 1_555 1_555
C34_3 H27_3 1_555 1_555
H28_3 C34_3 1_555 1_555
C35_3 O8_3 1_555 1_555
C36_3 C35_3 1_555 1_555
H29_3 C36_3 1_555 1_555
C37_3 C36_3 1_555 1_555
C38_3 C37_3 1_555 1_555
C39_3 C38_3 1_555 1_555
C40_3 C35_3 1_555 1_555
H30_3 C40_3 1_555 1_555
C41_3 C39_3 1_555 1_555
H31_3 C41_3 1_555 1_555
H32_3 C41_3 1_555 1_555
H33_3 C41_3 1_555 1_555
C42_3 C37_3 1_555 1_555
H34_3 C42_3 1_555 1_555
H35_3 C42_3 1_555 1_555
H36_3 C42_3 1_555 1_555
C43_3 C38_3 1_555 1_555
C44_3 C43_3 1_555 1_555
H37_3 C44_3 1_555 1_555
C45_3 C44_3 1_555 1_555
H38_3 C45_3 1_555 1_555
C46_3 C45_3 1_555 1_555
C47_3 C46_3 1_555 1_555
C48_3 C43_3 1_555 1_555
H39_3 C48_3 1_555 1_555
C49_2 C50_3 1_555 1_555
C50_3 H40_3 1_555 1_555
H41_3 C50_3 1_555 1_555
C51_3 O4_3 1_555 1_555
C52_3 C51_3 1_555 1_555
H42_3 C52_3 1_555 1_555
C53_3 C52_3 1_555 1_555
C54_3 C53_3 1_555 1_555
C55_3 C54_3 1_555 1_555
C56_3 C51_3 1_555 1_555
H43_2 C56_3 1_555 1_555
C57_2 C55_3 1_555 1_555
H44_2 C57_2 1_555 1_555
H45_2 C57_2 1_555 1_555
H46_2 C57_2 1_555 1_555
C58_3 C53_3 1_555 1_555
H47_3 C58_3 1_555 1_555
H48_3 C58_3 1_555 1_555
H49_3 C58_3 1_555 1_555
C59_3 H50_3 1_555 1_555
C60_3 C47_3 1_555 1_555
C61_3 C60_3 1_555 1_555
C62_3 C61_3 1_555 1_555
H51_3 C62_3 1_555 1_555
C63_3 C62_3 1_555 1_555
H52_3 C63_3 1_555 1_555
C64_3 C54_3 1_555 1_555
C65_3 C30_3 1_555 1_555
C66_3 C14_3 1_555 1_555
O17_3 C116_3 1_555 1_555
O19_3 Zn8 1_555 1_555
O20_3 C99_3 1_555 1_555
O21_3 C100_3 1_555 1_555
O28_2 C83_3 1_555 1_555
O30 C83_3 1_555 1_555
C83_3 C84_3 1_555 1_555
C84_3 H66_3 1_555 1_555
H67_3 C84_3 1_555 1_555
C89_3 C88_3 1_555 1_555
C90_3 C85_3 1_555 1_555
H69_3 C90_3 1_555 1_555
C91_3 C89_3 1_555 1_555
H70_3 C91_3 1_555 1_555
H71_3 C91_3 1_555 1_555
H72_3 C91_3 1_555 1_555
C93_3 C88_3 1_555 1_555
C94_3 C93_3 1_555 1_555
H76_3 C94_3 1_555 1_555
C95_3 C94_3 1_555 1_555
H77_3 C95_3 1_555 1_555
C96_3 C95_3 1_555 1_555
C98_3 C93_3 1_555 1_555
C99_3 O19_3 1_555 1_555
C100_3 C99_3 1_555 1_555
H79_3 C100_3 1_555 1_555
H80_3 C100_3 1_555 1_555
C101_3 O21_3 1_555 1_555
C102_3 C101_3 1_555 1_555
H81_3 C102_3 1_555 1_555
C103_3 C102_3 1_555 1_555
C104_3 C103_3 1_555 1_555
C105_3 C104_3 1_555 1_555
C106_3 C101_3 1_555 1_555
H82_3 C106_3 1_555 1_555
C107_3 C105_3 1_555 1_555
H83_3 C107_3 1_555 1_555
H84_3 C107_3 1_555 1_555
H85_3 C107_3 1_555 1_555
C108_3 C103_3 1_555 1_555
H86_3 C108_3 1_555 1_555
H87_3 C108_3 1_555 1_555
H88_3 C108_3 1_555 1_555
C109_3 C104_3 1_555 1_555
C110_3 C109_3 1_555 1_555
H89_3 C110_3 1_555 1_555
C111_3 C110_3 1_555 1_555
H90_3 C111_3 1_555 1_555
C112_3 C111_3 1_555 1_555
C113_3 C112_3 1_555 1_555
C114_3 C109_3 1_555 1_555
H91_3 C114_3 1_555 1_555
C116_3 H92_3 1_555 1_555
H93_3 C116_3 1_555 1_555
C117_3 O17_3 1_555 1_555
C118_3 C117_3 1_555 1_555
H94_3 C118_3 1_555 1_555
C119_3 C118_3 1_555 1_555
C120_3 C119_3 1_555 1_555
C121_3 C120_3 1_555 1_555
C122_3 C117_3 1_555 1_555
C124_3 C119_3 1_555 1_555
H99_3 C124_3 1_555 1_555
H100_3 C124_3 1_555 1_555
H101_3 C124_3 1_555 1_555
C125_3 H102_3 1_555 1_555
C126_3 C113_3 1_555 1_555
C127_3 C126_3 1_555 1_555
C128_3 C127_3 1_555 1_555
H103_3 C128_3 1_555 1_555
C129_3 C128_3 1_555 1_555
H104_3 C129_3 1_555 1_555
C130_3 C120_3 1_555 1_555
C131_3 C96_3 1_555 1_555
C132_3 C80_3 1_555 1_555
C7_3 C8_3 1_555 1_555
C15_2 C16_3 1_555 1_555
C23_3 C24_3 1_555 1_555
C30_3 C31_3 1_555 1_555
C31_3 C32_3 1_555 1_555
C39_3 C40_3 1_555 1_555
C46_3 C66_3 1_555 1_555
C47_3 C48_3 1_555 1_555
C55_3 C56_3 1_555 1_555
C59_3 C60_3 1_555 1_555
C59_3 C64_3 1_555 1_555
C61_3 C65_3 1_555 1_555
C63_3 C64_3 1_555 1_555
C65_3 C66_3 1_555 1_555
C89_3 C90_3 1_555 1_555
C96_3 C97_3 1_555 1_555
C97_3 C98_3 1_555 1_555
C105_3 C106_3 1_555 1_555
C112_3 C132_3 1_555 1_555
C113_3 C114_3 1_555 1_555
C121_3 C122_3 1_555 1_555
C125_3 C126_3 1_555 1_555
C125_3 C130_3 1_555 1_555
C127_3 C131_3 1_555 1_555
C129_3 C130_3 1_555 1_555
C131_3 C132_3 1_555 1_555
Zn7 O14_3 1_555 1_555
O14_3 C67_3 1_555 1_555
C67_3 O15_3 1_555 1_555
C68_3 C67_3 1_555 1_555
H53_3 C68_3 1_555 1_555
H54_3 C68_3 1_555 1_555
O16_3 C68_3 1_555 1_555
C69_3 O16_3 1_555 1_555
C70_3 C69_3 1_555 1_555
H55_3 C70_3 1_555 1_555
C71_3 C70_3 1_555 1_555
C72_3 C71_3 1_555 1_555
C73_3 C72_3 1_555 1_555
C74_3 C69_3 1_555 1_555
H56_3 C74_3 1_555 1_555
C75_3 C73_3 1_555 1_555
H57_3 C75_3 1_555 1_555
H59_3 C75_3 1_555 1_555
C76_3 C71_3 1_555 1_555
H60_3 C76_3 1_555 1_555
H61_3 C76_3 1_555 1_555
H62_3 C76_3 1_555 1_555
C77_3 C72_3 1_555 1_555
C78_3 C77_3 1_555 1_555
H63_3 C78_3 1_555 1_555
C79_3 C78_3 1_555 1_555
O26_3 C115_3 1_555 1_555
H64_3 C81_3 1_555 1_555
C82_3 C77_3 1_555 1_555
H65_3 C82_3 1_555 1_555
H68_3 C86_3 1_555 1_555
C87_3 C86_3 1_555 1_555
C92_3 C87_3 1_555 1_555
H73_3 C92_3 1_555 1_555
H74_3 C92_3 1_555 1_555
H75_3 C92_3 1_555 1_555
H96_3 C123_3 1_555 1_555
H97_3 C123_3 1_555 1_555
H98_3 C123_3 1_555 1_555
C73_3 C74_3 1_555 1_555
C81_3 C82_3 1_555 1_555
O18_3 H115_3 1_555 1_555
O18_3 H116_3 1_555 1_555
Zn6 O14_4 1_555 1_555
O14_4 C67_4 1_555 1_555
C67_4 O15_4 1_555 1_555
C68_4 C67_4 1_555 1_555
H53_4 C68_4 1_555 1_555
H54_4 C68_4 1_555 1_555
O16_4 C68_4 1_555 1_555
C69_4 O16_4 1_555 1_555
C70_4 C69_4 1_555 1_555
H55_4 C70_4 1_555 1_555
C71_4 C70_4 1_555 1_555
O18_4 Zn6 1_555 1_555
C72_4 C71_4 1_555 1_555
O19_4 Zn9 1_555 1_555
C73_4 C72_4 1_555 1_555
O20_4 C99_4 1_555 1_555
C74_4 C69_4 1_555 1_555
H56_4 C74_4 1_555 1_555
O21_4 C100_4 1_555 1_555
C75_4 C73_4 1_555 1_555
H57_4 C75_4 1_555 1_555
H58_4 C75_4 1_555 1_555
C76_4 C71_4 1_555 1_555
H61_4 C76_4 1_555 1_555
H62_4 C76_4 1_555 1_555
H65_4 C82_4 1_555 1_555
C99_4 O19_4 1_555 1_555
C100_4 C99_4 1_555 1_555
H79_4 C100_4 1_555 1_555
H80_4 C100_4 1_555 1_555
C101_4 O21_4 1_555 1_555
C102_4 C101_4 1_555 1_555
H81_4 C102_4 1_555 1_555
C103_4 C102_4 1_555 1_555
C104_4 C103_4 1_555 1_555
C105_4 C104_4 1_555 1_555
C106_4 C101_4 1_555 1_555
H82_4 C106_4 1_555 1_555
C107_4 C105_4 1_555 1_555
H83_4 C107_4 1_555 1_555
H84_4 C107_4 1_555 1_555
C108_4 C103_4 1_555 1_555
H87_4 C108_4 1_555 1_555
H88_4 C108_4 1_555 1_555
H89_4 C110_4 1_555 1_555
C73_4 C74_4 1_555 1_555
C105_4 C106_4 1_555 1_555
O18_4 H115_4 1_555 1_555
O18_4 H116_4 1_555 1_555
O17_4 C116_4 1_555 1_555
O28 C83_4 1_555 1_555
O30_2 C83_4 1_555 1_555
O24_4 C84_4 1_555 1_555
C78_4 C77_4 1_555 1_555
H63_4 C78_4 1_555 1_555
O32 C115_4 1_555 1_555
C79_4 C78_4 1_555 1_555
O26_4 C115_4 1_555 1_555
C80_4 C79_4 1_555 1_555
C81_4 C80_4 1_555 1_555
C83_4 C84_4 1_555 1_555
C84_4 H66_4 1_555 1_555
H67_4 C84_4 1_555 1_555
C85_4 O24_4 1_555 1_555
C86_4 C85_4 1_555 1_555
H68_4 C86_4 1_555 1_555
C87_4 C86_4 1_555 1_555
C88_4 C87_4 1_555 1_555
C89_4 C88_4 1_555 1_555
C90_4 C85_4 1_555 1_555
H69_4 C90_4 1_555 1_555
C91_4 C89_4 1_555 1_555
H70_4 C91_4 1_555 1_555
H71_4 C91_4 1_555 1_555
H72_4 C91_4 1_555 1_555
C92_4 C87_4 1_555 1_555
H73_4 C92_4 1_555 1_555
H74_4 C92_4 1_555 1_555
H75_4 C92_4 1_555 1_555
C93_4 C88_4 1_555 1_555
C94_4 C93_4 1_555 1_555
H76_4 C94_4 1_555 1_555
C95_4 C94_4 1_555 1_555
H77_4 C95_4 1_555 1_555
C96_4 C95_4 1_555 1_555
C97_4 C79_4 1_555 1_555
C98_4 C93_4 1_555 1_555
H78_4 C98_4 1_555 1_555
C112_4 C111_4 1_555 1_555
C113_4 C112_4 1_555 1_555
C114_4 C109_4 1_555 1_555
H91_4 C114_4 1_555 1_555
C115_4 C116_4 1_555 1_555
C116_4 H92_4 1_555 1_555
H93_4 C116_4 1_555 1_555
C117_4 O17_4 1_555 1_555
C118_4 C117_4 1_555 1_555
H94_4 C118_4 1_555 1_555
C119_4 C118_4 1_555 1_555
C120_4 C119_4 1_555 1_555
C121_4 C120_4 1_555 1_555
C122_4 C117_4 1_555 1_555
H95_4 C122_4 1_555 1_555
C123_4 C121_4 1_555 1_555
H96_4 C123_4 1_555 1_555
H97_4 C123_4 1_555 1_555
H98_4 C123_4 1_555 1_555
C124_4 C119_4 1_555 1_555
H99_4 C124_4 1_555 1_555
H100_4 C124_4 1_555 1_555
H101_4 C124_4 1_555 1_555
C125_4 H102_4 1_555 1_555
C126_4 C113_4 1_555 1_555
C127_4 C126_4 1_555 1_555
C128_4 C127_4 1_555 1_555
H103_4 C128_4 1_555 1_555
C129_4 C128_4 1_555 1_555
H104_4 C129_4 1_555 1_555
C130_4 C120_4 1_555 1_555
C131_4 C96_4 1_555 1_555
C132_4 C80_4 1_555 1_555
C89_4 C90_4 1_555 1_555
C96_4 C97_4 1_555 1_555
C97_4 C98_4 1_555 1_555
C112_4 C132_4 1_555 1_555
C113_4 C114_4 1_555 1_555
C121_4 C122_4 1_555 1_555
C125_4 C126_4 1_555 1_555
C125_4 C130_4 1_555 1_555
C127_4 C131_4 1_555 1_555
C129_4 C130_4 1_555 1_555
C131_4 C132_4 1_555 1_555
Zn5 O1_4 1_555 1_555
O1_4 C1_4 1_555 1_555
C1_4 O2_4 1_555 1_555
C2_4 C1_4 1_555 1_555
H1_4 C2_4 1_555 1_555
H2_4 C2_4 1_555 1_555
O3_4 C2_4 1_555 1_555
C3_4 O3_4 1_555 1_555
C4_4 C3_4 1_555 1_555
H3_4 C4_4 1_555 1_555
C5_4 C4_4 1_555 1_555
O5_4 Zn5 1_555 1_555
C6_4 C5_4 1_555 1_555
C7_4 C6_4 1_555 1_555
C8_4 C3_4 1_555 1_555
H4_4 C8_4 1_555 1_555
C9_4 C7_4 1_555 1_555
H5_4 C9_4 1_555 1_555
C10_4 C5_4 1_555 1_555
H9_4 C10_4 1_555 1_555
H10_4 C10_4 1_555 1_555
H13_4 C16_4 1_555 1_555
C7_4 C8_4 1_555 1_555
O5_4 H113_4 1_555 1_555
O5_4 H114_4 1_555 1_555
Zn9_2 O6_4 1_555 1_555
O6_4 C33_4 1_555 1_555
O7_4 C33_4 1_555 1_555
O8_4 C34_4 1_555 1_555
C33_4 C34_4 1_555 1_555
C34_4 H27_4 1_555 1_555
H28_4 C34_4 1_555 1_555
C35_4 O8_4 1_555 1_555
C36_4 C35_4 1_555 1_555
H29_4 C36_4 1_555 1_555
C37_4 C36_4 1_555 1_555
C38_4 C37_4 1_555 1_555
C39_4 C38_4 1_555 1_555
C40_4 C35_4 1_555 1_555
H30_4 C40_4 1_555 1_555
C41_4 C39_4 1_555 1_555
H31_4 C41_4 1_555 1_555
H32_4 C41_4 1_555 1_555
C42_4 C37_4 1_555 1_555
H35_4 C42_4 1_555 1_555
H36_4 C42_4 1_555 1_555
H37_4 C44_4 1_555 1_555
C39_4 C40_4 1_555 1_555
O4_4 C50_4 1_555 1_555
O27 C17_4 1_555 1_555
O29_2 C17_4 1_555 1_555
C17_4 C18_4 1_555 1_555
C18_4 H14_4 1_555 1_555
H15_4 C18_4 1_555 1_555
C23_4 C22_4 1_555 1_555
C24_4 C19_4 1_555 1_555
H17_4 C24_4 1_555 1_555
C25_4 C23_4 1_555 1_555
H18_4 C25_4 1_555 1_555
H19_4 C25_4 1_555 1_555
H20_4 C25_4 1_555 1_555
C27_4 C22_4 1_555 1_555
C28_4 C27_4 1_555 1_555
H24_4 C28_4 1_555 1_555
C29_4 C28_4 1_555 1_555
H25_4 C29_4 1_555 1_555
C30_4 C29_4 1_555 1_555
C32_4 C27_4 1_555 1_555
C46_4 C45_4 1_555 1_555
C47_4 C46_4 1_555 1_555
C48_4 C43_4 1_555 1_555
H39_4 C48_4 1_555 1_555
C50_4 H40_4 1_555 1_555
H41_4 C50_4 1_555 1_555
C51_4 O4_4 1_555 1_555
C52_4 C51_4 1_555 1_555
H42_4 C52_4 1_555 1_555
C53_4 C52_4 1_555 1_555
C54_4 C53_4 1_555 1_555
C55_4 C54_4 1_555 1_555
C56_4 C51_4 1_555 1_555
C58_4 C53_4 1_555 1_555
H47_4 C58_4 1_555 1_555
H48_4 C58_4 1_555 1_555
H49_4 C58_4 1_555 1_555
C59_4 H50_4 1_555 1_555
C60_4 C47_4 1_555 1_555
C61_4 C60_4 1_555 1_555
C62_4 C61_4 1_555 1_555
H51_4 C62_4 1_555 1_555
C63_4 C62_4 1_555 1_555
H52_4 C63_4 1_555 1_555
C64_4 C54_4 1_555 1_555
C65_4 C30_4 1_555 1_555
C66_4 C14_4 1_555 1_555
C23_4 C24_4 1_555 1_555
C30_4 C31_4 1_555 1_555
C31_4 C32_4 1_555 1_555
C46_4 C66_4 1_555 1_555
C47_4 C48_4 1_555 1_555
C55_4 C56_4 1_555 1_555
C59_4 C60_4 1_555 1_555
C59_4 C64_4 1_555 1_555
C61_4 C65_4 1_555 1_555
C63_4 C64_4 1_555 1_555
C65_4 C66_4 1_555 1_555
C12_3 C11_3 1_555 1_555
H11_3 C12_3 1_555 1_555
C13_3 C12_3 1_555 1_555
O13_3 C49_3 1_555 1_555
H16_3 C20_3 1_555 1_555
C21_3 C20_3 1_555 1_555
C26_3 C21_3 1_555 1_555
H21_3 C26_3 1_555 1_555
H22_3 C26_3 1_555 1_555
H23_3 C26_3 1_555 1_555
H44_3 C57_3 1_555 1_555
H45_3 C57_3 1_555 1_555
H46_3 C57_3 1_555 1_555
C12_4 C11_4 1_555 1_555
H11_4 C12_4 1_555 1_555
C13_4 C12_4 1_555 1_555
O13_4 C49_4 1_555 1_555
H16_4 C20_4 1_555 1_555
C21_4 C20_4 1_555 1_555
C26_4 C21_4 1_555 1_555
H21_4 C26_4 1_555 1_555
H22_4 C26_4 1_555 1_555
H23_4 C26_4 1_555 1_555
H44_4 C57_4 1_555 1_555
H45_4 C57_4 1_555 1_555
H46_4 C57_4 1_555 1_555
N1 H105 1_555 1_555
H106 N1 1_555 1_555
C133 N1 1_555 1_555
H107 C133 1_555 1_555
H108 C133 1_555 1_555
H109 C133 1_555 1_555
C134 N1 1_555 1_555
H110 C134 1_555 1_555
H111 C134 1_555 1_555
H112 C134 1_555 1_555
N1_2 H105_2 1_555 1_555
H106_2 N1_2 1_555 1_555
C133_2 N1_2 1_555 1_555
H107_2 C133_2 1_555 1_555
H108_2 C133_2 1_555 1_555
H109_2 C133_2 1_555 1_555
C134_2 N1_2 1_555 1_555
H110_2 C134_2 1_555 1_555
H111_2 C134_2 1_555 1_555
H112_2 C134_2 1_555 1_555
N1_3 H105_3 1_555 1_555
H106_3 N1_3 1_555 1_555
C133_3 N1_3 1_555 1_555
H107_3 C133_3 1_555 1_555
H108_3 C133_3 1_555 1_555
H109_3 C133_3 1_555 1_555
C134_3 N1_3 1_555 1_555
H110_3 C134_3 1_555 1_555
H111_3 C134_3 1_555 1_555
H112_3 C134_3 1_555 1_555
N1_4 H105_4 1_555 1_555
H106_4 N1_4 1_555 1_555
C133_4 N1_4 1_555 1_555
H107_4 C133_4 1_555 1_555
H108_4 C133_4 1_555 1_555
H109_4 C133_4 1_555 1_555
C134_4 N1_4 1_555 1_555
H110_4 C134_4 1_555 1_555
H111_4 C134_4 1_555 1_555
H112_4 C134_4 1_555 1_555
N1_5 H105_5 1_555 1_555
H106_5 N1_5 1_555 1_555
C133_5 N1_5 1_555 1_555
H107_5 C133_5 1_555 1_555
H108_5 C133_5 1_555 1_555
H109_5 C133_5 1_555 1_555
C134_5 N1_5 1_555 1_555
H110_5 C134_5 1_555 1_555
H111_5 C134_5 1_555 1_555
H112_5 C134_5 1_555 1_555
N1_6 H105_6 1_555 1_555
H106_6 N1_6 1_555 1_555
C133_6 N1_6 1_555 1_555
H107_6 C133_6 1_555 1_555
H108_6 C133_6 1_555 1_555
H109_6 C133_6 1_555 1_555
C134_6 N1_6 1_555 1_555
H110_6 C134_6 1_555 1_555
H111_6 C134_6 1_555 1_555
H112_6 C134_6 1_555 1_555
N1_7 H105_7 1_555 1_555
H106_7 N1_7 1_555 1_555
C133_7 N1_7 1_555 1_555
H107_7 C133_7 1_555 1_555
H108_7 C133_7 1_555 1_555
H109_7 C133_7 1_555 1_555
C134_7 N1_7 1_555 1_555
H110_7 C134_7 1_555 1_555
H111_7 C134_7 1_555 1_555
H112_7 C134_7 1_555 1_555
N1_8 H105_8 1_555 1_555
H106_8 N1_8 1_555 1_555
C133_8 N1_8 1_555 1_555
H107_8 C133_8 1_555 1_555
H108_8 C133_8 1_555 1_555
H109_8 C133_8 1_555 1_555
C134_8 N1_8 1_555 1_555
H110_8 C134_8 1_555 1_555
H111_8 C134_8 1_555 1_555
H112_8 C134_8 1_555 1_555

#END
