
###############################################################################
#
# This file contains modified crystal structure data generated from the
# MOF subset of the Cambridge Structural Database (CSD) v543 
# hosted by the Cambridge Crystallographic Data Centre (CCDC).
#
# This work is licensed under the Creative Commons
# Attribution-NonCommercial-ShareAlike 4.0 International License.
# To view a copy of this license, visit
# http://creativecommons.org/licenses/by-nc-sa/4.0/
# or send a letter to
# Creative Commons, PO Box 1866, Mountain View, CA 94042, USA.
#
# CIF created using the CSD Python API on 29 September 2022
# The structure has been converted into the P1 space group
# The structure has a 3D framework
# The original CSD entry YUMFES is in the monoclinic crystal system
# The framework has been calculated to contain at least 10.0% void space
# The void calculation uses a probe of radius 1.32A, grid spacing 0.4
#
###############################################################################

data_YUMFES
_chemical_formula_moiety         '(C216 H120 Co14 N48 O48 S24)n'
_symmetry_cell_setting           triclinic
_symmetry_space_group_name_H-M   'P 1'
_symmetry_Int_Tables_number      1
_space_group_name_Hall           'P 1'
loop_
_symmetry_equiv_pos_site_id
_symmetry_equiv_pos_as_xyz
1 x,y,z
_cell_length_a                   24.1418(8)
_cell_length_b                   17.5088(6)
_cell_length_c                   14.4562(5)
_cell_angle_alpha                90
_cell_angle_beta                 96.0390(10)
_cell_angle_gamma                90
_cell_volume                     6076.64
loop_
_atom_site_label
_atom_site_type_symbol
_atom_site_fract_x
_atom_site_fract_y
_atom_site_fract_z
H1 H 0.0014 0.0349 0.1770
Co3 Co 0.199190(10) 0.062140(14) 0.284180(16)
C28 C 0.11350(8) 0.00946(10) 0.34471(12)
O8 O 0.10521(6) 0.05752(7) 0.28092(9)
N10 N 0.19530(6) 0.16351(8) 0.37157(10)
O10 O 0.19954(5) 0.14494(7) 0.18592(8)
N16 N 0.28724(6) 0.05526(8) 0.31340(10)
Co2 Co -0.0000 0.608078(19) 0.7500
C6 C 0.02841(8) 0.80446(11) 0.93489(14)
H2 H 0.0607 0.8341 0.9529
C7 C 0.03103(8) 0.74399(11) 0.87429(14)
H3 H 0.0657 0.7330 0.8516
C22 C 0.03560(7) 0.45325(10) 0.63222(12)
C23 C 0.09685(7) 0.45143(10) 0.65207(12)
C24 C 0.12348(8) 0.38418(10) 0.68254(13)
H12 H 0.1025 0.3395 0.6920
C25 C 0.18079(8) 0.38345(11) 0.69874(13)
H13 H 0.1986 0.3373 0.7196
C26 C 0.18653(8) 0.50964(10) 0.65781(13)
H14 H 0.2084 0.5538 0.6494
C27 C 0.12941(8) 0.51504(11) 0.64000(13)
H15 H 0.1125 0.5620 0.6196
N5 N 0.00282(6) 0.51036(8) 0.64931(10)
N6 N 0.21276(6) 0.44474(8) 0.68660(10)
S3 S 0.00041(2) 0.37566(3) 0.58082(4)
Co5 Co 0.300810(10) 0.437860(14) 0.715820(16)
C29 C 0.06514(7) 0.97210(10) 0.38260(12)
C30 C 0.01089(8) 0.99332(11) 0.36214(12)
C31 C 0.02663(7) 0.88544(10) 0.46585(13)
C32 C 0.02165(7) 0.82178(10) 0.53055(13)
C35 C 0.06171(8) 0.71784(10) 0.62226(13)
H19 H 0.0937 0.6884 0.6431
C36 C 0.06771(7) 0.77713(10) 0.56045(13)
H20 H 0.1028 0.7871 0.5388
N7 N 0.07390(6) 0.91093(8) 0.44226(11)
N8 N 0.01305(6) 0.69985(8) 0.65414(11)
O7 O 0.16239(5) 0.99018(7) 0.37717(9)
N12 N 0.20053(6) 0.97068(8) 0.18716(10)
C46 C 0.09629(8) 0.54954(11) 0.86001(14)
C47 C 0.05212(7) 0.49312(10) 0.87934(13)
C48 C 0.06118(8) 0.42302(11) 0.91795(13)
H26 H 0.0966 0.4032 0.9409
O12 O 0.08020(5) 0.60239(7) 0.80187(9)
O13 O 0.14371(6) 0.54155(8) 0.89880(12)
Co1 Co 0.800810(10) 0.062140(14) 0.215820(16)
C1 C 0.88650(8) 0.00946(10) 0.15529(12)
O2 O 0.89479(6) 0.05752(7) 0.21908(9)
C10 C 0.80560(7) 0.21474(10) 0.28889(13)
C11 C 0.80913(7) 0.22647(10) 0.18671(12)
C12 C 0.81890(7) 0.29366(11) 0.14538(13)
H6 H 0.8224 0.3416 0.1763
C13 C 0.81147(7) 0.18333(10) 0.04253(12)
H10 H 0.7506 0.0579 0.0107
S2 S 0.824090(19) 0.28000(3) 0.02976(3)
N3 N 0.80470(6) 0.16351(8) 0.12843(10)
O3 O 0.80046(5) 0.14494(7) 0.31408(8)
O4 O 0.80850(6) 0.27098(8) 0.33970(9)
H24 H 0.7455 0.0238 0.3850
N15 N 0.71276(6) 0.05526(8) 0.18660(10)
C14 C 0.80678(7) 0.13110(10) 0.96283(12)
C15 C 0.83540(8) 0.14468(11) 0.88544(13)
H7 H 0.8579 0.1889 0.8827
C16 C 0.83053(8) 0.09289(11) 0.81287(13)
H8 H 0.8501 0.1028 0.7605
C17 C 0.76962(7) 0.01912(10) 0.88562(12)
C18 C 0.77225(7) 0.06771(10) 0.96073(12)
N4 N 0.79947(6) 0.02932(8) 0.81284(10)
H16 H 0.9986 0.0349 0.3230
C2 C 0.93486(7) 0.97210(10) 0.11740(12)
C3 C 0.98911(8) 0.99332(11) 0.13786(12)
C4 C 0.97337(7) 0.88544(10) 0.03415(13)
N1 N 0.92610(6) 0.91093(8) 0.05774(11)
O1 O 0.83761(5) 0.99018(7) 0.12283(9)
Co7 Co 0.800810(10) 0.937860(14) 0.715820(16)
C37 C 0.80560(7) 0.78526(10) 0.78889(13)
C38 C 0.80913(7) 0.77353(10) 0.68671(12)
C39 C 0.81890(7) 0.70634(11) 0.64538(13)
H21 H 0.8224 0.6584 0.6763
C40 C 0.81147(7) 0.81667(10) 0.54253(12)
C41 C 0.80678(7) 0.86890(10) 0.46283(12)
C42 C 0.83540(8) 0.85532(11) 0.38544(13)
H22 H 0.8579 0.8111 0.3827
C43 C 0.83053(8) 0.90711(11) 0.31287(13)
H23 H 0.8501 0.8972 0.2605
C44 C 0.76962(7) 0.98088(10) 0.38562(12)
C45 C 0.77225(7) 0.93229(10) 0.46073(12)
H25 H 0.7506 0.9421 0.5107
S5 S 0.824090(19) 0.72000(3) 0.52976(3)
N9 N 0.80470(6) 0.83649(8) 0.62843(10)
N11 N 0.79947(6) 0.97068(8) 0.31284(10)
O9 O 0.80046(5) 0.85506(7) 0.81408(8)
O11 O 0.80850(6) 0.72902(8) 0.83970(9)
Co2_2 Co 1.0000 0.608078(19) 0.7500
C5 C 0.97835(7) 0.82178(10) 0.96945(13)
C8 C 0.93829(8) 0.71784(10) 0.87774(13)
H4 H 0.9063 0.6884 0.8569
C9 C 0.93229(7) 0.77713(10) 0.93955(13)
H5 H 0.8972 0.7871 0.9612
N2 N 0.98695(6) 0.69985(8) 0.84586(11)
H9 H 0.7455 0.9762 0.8850
C19 C 0.90371(8) 0.54954(11) 0.63999(14)
C20 C 0.94788(7) 0.49312(10) 0.62066(13)
C21 C 0.93882(8) 0.42302(11) 0.58205(13)
H11 H 0.9034 0.4032 0.5591
O5 O 0.91980(5) 0.60239(7) 0.69813(9)
O6 O 0.85629(6) 0.54155(8) 0.60120(12)
Co6 Co 0.699190(10) 0.437860(14) 0.784180(16)
C33 C 0.97159(8) 0.80446(11) 0.56511(14)
H17 H 0.9393 0.8341 0.5471
C34 C 0.96897(8) 0.74399(11) 0.62571(14)
H18 H 0.9343 0.7330 0.6484
S4 S 0.968390(19) 0.93507(3) 0.41624(3)
C49 C 0.96440(7) 0.45325(10) 0.86778(12)
C50 C 0.90315(7) 0.45143(10) 0.84793(12)
C51 C 0.87652(8) 0.38418(10) 0.81746(13)
H27 H 0.8975 0.3395 0.8080
C52 C 0.81921(8) 0.38345(11) 0.80126(13)
H28 H 0.8014 0.3373 0.7804
C53 C 0.81347(8) 0.50964(10) 0.84219(13)
H29 H 0.7916 0.5538 0.8506
C54 C 0.87059(8) 0.51504(11) 0.86000(13)
H30 H 0.8875 0.5620 0.8804
N13 N 0.99718(6) 0.51036(8) 0.85069(10)
N14 N 0.78724(6) 0.44474(8) 0.81340(10)
S6 S 0.99959(2) 0.37566(3) 0.91918(4)
C10_2 C 0.19440(7) 0.21474(10) 0.21111(13)
C11_2 C 0.19087(7) 0.22647(10) 0.31329(12)
C12_2 C 0.18110(7) 0.29366(11) 0.35462(13)
H6_2 H 0.1776 0.3416 0.3237
C13_2 C 0.18853(7) 0.18333(10) 0.45747(12)
C14_2 C 0.19322(7) 0.13110(10) 0.53717(12)
C15_2 C 0.16460(8) 0.14468(11) 0.61456(13)
H7_2 H 0.1421 0.1889 0.6173
C16_2 C 0.16947(8) 0.09289(11) 0.68713(13)
H8_2 H 0.1499 0.1028 0.7395
C17_2 C 0.23038(7) 0.01912(10) 0.61438(12)
C18_2 C 0.22775(7) 0.06771(10) 0.53927(12)
H10_2 H 0.2494 0.0579 0.4893
S2_2 S 0.175910(19) 0.28000(3) 0.47024(3)
N4_2 N 0.20053(6) 0.02932(8) 0.68716(10)
O4_2 O 0.19150(6) 0.27098(8) 0.16030(9)
H24_2 H 0.2545 0.0238 0.1150
H9_2 H 0.2545 0.9762 0.6150
Co4 Co 0.199190(10) 0.937860(14) 0.784180(16)
C41_2 C 0.19322(7) 0.86890(10) 0.03717(12)
C42_2 C 0.16460(8) 0.85532(11) 0.11456(13)
H22_2 H 0.1421 0.8111 0.1173
C43_2 C 0.16947(8) 0.90711(11) 0.18713(13)
H23_2 H 0.1499 0.8972 0.2395
C44_2 C 0.23038(7) 0.98088(10) 0.11438(12)
C45_2 C 0.22775(7) 0.93229(10) 0.03927(12)
C37_2 C 0.19440(7) 0.78526(10) 0.71111(13)
C38_2 C 0.19087(7) 0.77353(10) 0.81329(12)
C39_2 C 0.18110(7) 0.70634(11) 0.85462(13)
H21_2 H 0.1776 0.6584 0.8237
C40_2 C 0.18853(7) 0.81667(10) 0.95747(12)
H25_2 H 0.2494 0.9421 0.9893
S5_2 S 0.175910(19) 0.72000(3) 0.97024(3)
N9_2 N 0.19530(6) 0.83649(8) 0.87157(10)
O9_2 O 0.19954(5) 0.85506(7) 0.68592(8)
O11_2 O 0.19150(6) 0.72902(8) 0.66030(9)
Co1_2 Co 0.300810(10) 0.562140(14) 0.215820(16)
C1_2 C 0.38650(8) 0.50946(10) 0.15529(12)
C2_2 C 0.43486(7) 0.47210(10) 0.11740(12)
C3_2 C 0.48911(8) 0.49332(11) 0.13786(12)
H1_2 H 0.5014 0.5349 0.1770
C4_2 C 0.47337(7) 0.38544(10) 0.03415(13)
N1_2 N 0.42610(6) 0.41093(8) 0.05774(11)
O1_2 O 0.33761(5) 0.49018(7) 0.12283(9)
O2_2 O 0.39479(6) 0.55752(7) 0.21908(9)
S1 S 0.531610(19) 0.43507(3) 0.08376(3)
C10_3 C 0.30560(7) 0.71474(10) 0.28889(13)
C11_3 C 0.30913(7) 0.72647(10) 0.18671(12)
C12_3 C 0.31890(7) 0.79366(11) 0.14538(13)
H6_3 H 0.3224 0.8416 0.1763
C13_3 C 0.31147(7) 0.68333(10) 0.04253(12)
H10_3 H 0.2506 0.5579 0.0107
S2_3 S 0.324090(19) 0.78000(3) 0.02976(3)
N3_2 N 0.30470(6) 0.66351(8) 0.12843(10)
O3_2 O 0.30046(5) 0.64494(7) 0.31408(8)
O4_3 O 0.30850(6) 0.77098(8) 0.33970(9)
C37_3 C 0.30560(7) 0.28526(10) 0.78889(13)
C38_3 C 0.30913(7) 0.27353(10) 0.68671(12)
C39_3 C 0.31890(7) 0.20634(11) 0.64538(13)
H21_3 H 0.3224 0.1584 0.6763
C40_3 C 0.31147(7) 0.31667(10) 0.54253(12)
C41_3 C 0.30678(7) 0.36890(10) 0.46283(12)
C42_3 C 0.33540(8) 0.35532(11) 0.38544(13)
H22_3 H 0.3579 0.3111 0.3827
C43_3 C 0.33053(8) 0.40711(11) 0.31287(13)
H23_3 H 0.3501 0.3972 0.2605
C44_3 C 0.26962(7) 0.48088(10) 0.38562(12)
H24_3 H 0.2455 0.5238 0.3850
C45_3 C 0.27225(7) 0.43229(10) 0.46073(12)
H25_3 H 0.2506 0.4421 0.5107
S5_3 S 0.324090(19) 0.22000(3) 0.52976(3)
N9_3 N 0.30470(6) 0.33649(8) 0.62843(10)
N11_2 N 0.29947(6) 0.47068(8) 0.31284(10)
O9_3 O 0.30046(5) 0.35506(7) 0.81408(8)
O11_3 O 0.30850(6) 0.22902(8) 0.83970(9)
N15_2 N 0.21276(6) 0.55526(8) 0.18660(10)
Co2_3 Co 0.5000 0.108078(19) 0.7500
C5_2 C 0.47835(7) 0.32178(10) 0.96945(13)
C6_2 C 0.52841(8) 0.30446(11) 0.93489(14)
H2_2 H 0.5607 0.3341 0.9529
C7_2 C 0.53103(8) 0.24399(11) 0.87429(14)
H3_2 H 0.5657 0.2330 0.8516
C8_2 C 0.43829(8) 0.21784(10) 0.87774(13)
H4_2 H 0.4063 0.1884 0.8569
C9_2 C 0.43229(7) 0.27713(10) 0.93955(13)
H5_2 H 0.3972 0.2871 0.9612
N2_2 N 0.48695(6) 0.19985(8) 0.84586(11)
C14_3 C 0.30678(7) 0.63110(10) 0.96283(12)
C15_3 C 0.33540(8) 0.64468(11) 0.88544(13)
H7_3 H 0.3579 0.6889 0.8827
C16_3 C 0.33053(8) 0.59289(11) 0.81287(13)
H8_3 H 0.3501 0.6028 0.7605
C17_3 C 0.26962(7) 0.51912(10) 0.88562(12)
H9_3 H 0.2455 0.4762 0.8850
C18_3 C 0.27225(7) 0.56771(10) 0.96073(12)
N4_3 N 0.29947(6) 0.52932(8) 0.81284(10)
C19_2 C 0.40371(8) 0.04954(11) 0.63999(14)
C26_2 C 0.68653(8) 0.00964(10) 0.65781(13)
H14_2 H 0.7084 0.0538 0.6494
C27_2 C 0.62941(8) 0.01504(11) 0.64000(13)
H15_2 H 0.6125 0.0620 0.6196
N5_2 N 0.50282(6) 0.01036(8) 0.64931(10)
O5_2 O 0.41980(5) 0.10239(7) 0.69813(9)
O6_2 O 0.35629(6) 0.04155(8) 0.60120(12)
Co3_2 Co 0.699190(10) 0.562140(14) 0.284180(16)
C28_2 C 0.61350(8) 0.50946(10) 0.34471(12)
C29_2 C 0.56514(7) 0.47210(10) 0.38260(12)
C30_2 C 0.51089(8) 0.49332(11) 0.36214(12)
H16_2 H 0.4986 0.5349 0.3230
C31_2 C 0.52663(7) 0.38544(10) 0.46585(13)
C32_2 C 0.52165(7) 0.32178(10) 0.53055(13)
C33_2 C 0.47159(8) 0.30446(11) 0.56511(14)
H17_2 H 0.4393 0.3341 0.5471
C34_2 C 0.46897(8) 0.24399(11) 0.62571(14)
H18_2 H 0.4343 0.2330 0.6484
C35_2 C 0.56171(8) 0.21784(10) 0.62226(13)
H19_2 H 0.5937 0.1884 0.6431
C36_2 C 0.56771(7) 0.27713(10) 0.56045(13)
H20_2 H 0.6028 0.2871 0.5388
N7_2 N 0.57390(6) 0.41093(8) 0.44226(11)
N8_2 N 0.51305(6) 0.19985(8) 0.65414(11)
O7_2 O 0.66239(5) 0.49018(7) 0.37717(9)
O8_2 O 0.60521(6) 0.55752(7) 0.28092(9)
S4_2 S 0.468390(19) 0.43507(3) 0.41624(3)
N10_2 N 0.69530(6) 0.66351(8) 0.37157(10)
N12_2 N 0.70053(6) 0.47068(8) 0.18716(10)
O10_2 O 0.69954(5) 0.64494(7) 0.18592(8)
C46_2 C 0.59629(8) 0.04954(11) 0.86001(14)
C53_2 C 0.31347(8) 0.00964(10) 0.84219(13)
H29_2 H 0.2916 0.0538 0.8506
C54_2 C 0.37059(8) 0.01504(11) 0.86000(13)
H30_2 H 0.3875 0.0620 0.8804
N13_2 N 0.49718(6) 0.01036(8) 0.85069(10)
N16_2 N 0.78724(6) 0.55526(8) 0.31340(10)
O12_2 O 0.58020(5) 0.10239(7) 0.80187(9)
O13_2 O 0.64371(6) 0.04155(8) 0.89880(12)
C20_2 C 0.44788(7) 0.99312(10) 0.62066(13)
C21_2 C 0.43882(8) 0.92302(11) 0.58205(13)
H11_2 H 0.4034 0.9032 0.5591
C22_2 C 0.53560(7) 0.95325(10) 0.63222(12)
C23_2 C 0.59685(7) 0.95143(10) 0.65207(12)
C24_2 C 0.62348(8) 0.88418(10) 0.68254(13)
H12_2 H 0.6025 0.8395 0.6920
C25_2 C 0.68079(8) 0.88345(11) 0.69874(13)
H13_2 H 0.6986 0.8373 0.7196
N6_2 N 0.71276(6) 0.94474(8) 0.68660(10)
S3_2 S 0.50041(2) 0.87566(3) 0.58082(4)
C47_2 C 0.55212(7) 0.99312(10) 0.87934(13)
C48_2 C 0.56118(8) 0.92302(11) 0.91795(13)
H26_2 H 0.5966 0.9032 0.9409
C49_2 C 0.46440(7) 0.95325(10) 0.86778(12)
C50_2 C 0.40315(7) 0.95143(10) 0.84793(12)
C51_2 C 0.37652(8) 0.88418(10) 0.81746(13)
H27_2 H 0.3975 0.8395 0.8080
C52_2 C 0.31921(8) 0.88345(11) 0.80126(13)
H28_2 H 0.3014 0.8373 0.7804
N14_2 N 0.28724(6) 0.94474(8) 0.81340(10)
S6_2 S 0.49959(2) 0.87566(3) 0.91918(4)
C10_4 C 0.69440(7) 0.71474(10) 0.21111(13)
C11_4 C 0.69087(7) 0.72647(10) 0.31329(12)
C12_4 C 0.68110(7) 0.79366(11) 0.35462(13)
H6_4 H 0.6776 0.8416 0.3237
C13_4 C 0.68853(7) 0.68333(10) 0.45747(12)
C14_4 C 0.69322(7) 0.63110(10) 0.53717(12)
C15_4 C 0.66460(8) 0.64468(11) 0.61456(13)
H7_4 H 0.6421 0.6889 0.6173
C16_4 C 0.66947(8) 0.59289(11) 0.68713(13)
H8_4 H 0.6499 0.6028 0.7395
C17_4 C 0.73038(7) 0.51912(10) 0.61438(12)
H9_4 H 0.7545 0.4762 0.6150
C18_4 C 0.72775(7) 0.56771(10) 0.53927(12)
H10_4 H 0.7494 0.5579 0.4893
S2_4 S 0.675910(19) 0.78000(3) 0.47024(3)
N4_4 N 0.70053(6) 0.52932(8) 0.68716(10)
O4_4 O 0.69150(6) 0.77098(8) 0.16030(9)
C41_4 C 0.69322(7) 0.36890(10) 0.03717(12)
C42_4 C 0.66460(8) 0.35532(11) 0.11456(13)
H22_4 H 0.6421 0.3111 0.1173
C43_4 C 0.66947(8) 0.40711(11) 0.18713(13)
H23_4 H 0.6499 0.3972 0.2395
C44_4 C 0.73038(7) 0.48088(10) 0.11438(12)
H24_4 H 0.7545 0.5238 0.1150
C45_4 C 0.72775(7) 0.43229(10) 0.03927(12)
C37_4 C 0.69440(7) 0.28526(10) 0.71111(13)
C38_4 C 0.69087(7) 0.27353(10) 0.81329(12)
C39_4 C 0.68110(7) 0.20634(11) 0.85462(13)
H21_4 H 0.6776 0.1584 0.8237
C40_4 C 0.68853(7) 0.31667(10) 0.95747(12)
H25_4 H 0.7494 0.4421 0.9893
S5_4 S 0.675910(19) 0.22000(3) 0.97024(3)
N9_4 N 0.69530(6) 0.33649(8) 0.87157(10)
O9_4 O 0.69954(5) 0.35506(7) 0.68592(8)
O11_4 O 0.69150(6) 0.22902(8) 0.66030(9)
Co2_4 Co 0.0000 0.391922(19) 0.2500
C5_3 C 0.02165(7) 0.17822(10) 0.03055(13)
C8_3 C 0.06171(8) 0.28216(10) 0.12226(13)
H4_3 H 0.0937 0.3116 0.1431
C9_3 C 0.06771(7) 0.22287(10) 0.06045(13)
H5_3 H 0.1028 0.2129 0.0388
N2_3 N 0.01305(6) 0.30015(8) 0.15414(11)
C19_3 C 0.09629(8) 0.45046(11) 0.36001(14)
C20_3 C 0.05212(7) 0.50688(10) 0.37934(13)
C21_3 C 0.06118(8) 0.57698(11) 0.41795(13)
H11_3 H 0.0966 0.5968 0.4409
O5_3 O 0.08020(5) 0.39761(7) 0.30187(9)
O6_3 O 0.14371(6) 0.45845(8) 0.39880(12)
C33_3 C 0.02841(8) 0.19554(11) 0.43489(14)
H17_3 H 0.0607 0.1659 0.4529
C34_3 C 0.03103(8) 0.25601(11) 0.37429(14)
H18_3 H 0.0657 0.2670 0.3516
S4_3 S 0.031610(19) 0.06493(3) 0.58376(3)
C49_3 C 0.03560(7) 0.54675(10) 0.13222(12)
C50_3 C 0.09685(7) 0.54857(10) 0.15207(12)
C51_3 C 0.12348(8) 0.61582(10) 0.18254(13)
H27_3 H 0.1025 0.6605 0.1920
C52_3 C 0.18079(8) 0.61655(11) 0.19874(13)
H28_3 H 0.1986 0.6627 0.2196
C53_3 C 0.18653(8) 0.49036(10) 0.15781(13)
H29_3 H 0.2084 0.4462 0.1494
C54_3 C 0.12941(8) 0.48496(11) 0.14000(13)
H30_3 H 0.1125 0.4380 0.1196
N13_3 N 0.00282(6) 0.48964(8) 0.14931(10)
S6_3 S 0.00041(2) 0.62434(3) 0.08082(4)
C2_3 C 0.06514(7) 0.02790(10) 0.88260(12)
C3_3 C 0.01089(8) 0.00668(11) 0.86214(12)
C4_3 C 0.02663(7) 0.11456(10) 0.96585(13)
N1_3 N 0.07390(6) 0.08907(8) 0.94226(11)
O1_3 O 0.16239(5) 0.00982(7) 0.87717(9)
H16_3 H 0.0014 0.9651 0.6770
C1_3 C 0.11350(8) 0.99054(10) 0.84471(12)
O2_3 O 0.10521(6) 0.94248(7) 0.78092(9)
Co2_5 Co 1.0000 0.391922(19) 0.2500
C6_3 C 0.97159(8) 0.19554(11) 0.06511(14)
H2_3 H 0.9393 0.1659 0.0471
C7_3 C 0.96897(8) 0.25601(11) 0.12571(14)
H3_3 H 0.9343 0.2670 0.1484
C22_3 C 0.96440(7) 0.54675(10) 0.36778(12)
C23_3 C 0.90315(7) 0.54857(10) 0.34793(12)
C24_3 C 0.87652(8) 0.61582(10) 0.31746(13)
H12_3 H 0.8975 0.6605 0.3080
C25_3 C 0.81921(8) 0.61655(11) 0.30126(13)
H13_3 H 0.8014 0.6627 0.2804
C26_3 C 0.81347(8) 0.49036(10) 0.34219(13)
H14_3 H 0.7916 0.4462 0.3506
C27_3 C 0.87059(8) 0.48496(11) 0.36000(13)
H15_3 H 0.8875 0.4380 0.3804
N5_3 N 0.99718(6) 0.48964(8) 0.35069(10)
S3_3 S 0.99959(2) 0.62434(3) 0.41918(4)
C29_3 C 0.93486(7) 0.02790(10) 0.61740(12)
C30_3 C 0.98911(8) 0.00668(11) 0.63786(12)
C31_3 C 0.97337(7) 0.11456(10) 0.53415(13)
C32_3 C 0.97835(7) 0.17822(10) 0.46945(13)
C35_3 C 0.93829(8) 0.28216(10) 0.37774(13)
H19_3 H 0.9063 0.3116 0.3569
C36_3 C 0.93229(7) 0.22287(10) 0.43955(13)
H20_3 H 0.8972 0.2129 0.4612
N7_3 N 0.92610(6) 0.08907(8) 0.55774(11)
N8_3 N 0.98695(6) 0.30015(8) 0.34586(11)
O7_3 O 0.83761(5) 0.00982(7) 0.62283(9)
C46_3 C 0.90371(8) 0.45046(11) 0.13999(14)
C47_3 C 0.94788(7) 0.50688(10) 0.12066(13)
C48_3 C 0.93882(8) 0.57698(11) 0.08205(13)
H26_3 H 0.9034 0.5968 0.0591
O12_3 O 0.91980(5) 0.39761(7) 0.19813(9)
O13_3 O 0.85629(6) 0.45845(8) 0.10120(12)
C28_3 C 0.88650(8) 0.99054(10) 0.65529(12)
O8_3 O 0.89479(6) 0.94248(7) 0.71908(9)
C20_4 C 0.55212(7) 0.00688(10) 0.37934(13)
C21_4 C 0.56118(8) 0.07698(11) 0.41795(13)
H11_4 H 0.5966 0.0968 0.4409
C22_4 C 0.46440(7) 0.04675(10) 0.36778(12)
C23_4 C 0.40315(7) 0.04857(10) 0.34793(12)
C24_4 C 0.37652(8) 0.11582(10) 0.31746(13)
H12_4 H 0.3975 0.1605 0.3080
C25_4 C 0.31921(8) 0.11655(11) 0.30126(13)
H13_4 H 0.3014 0.1627 0.2804
S3_4 S 0.49959(2) 0.12434(3) 0.41918(4)
C47_4 C 0.44788(7) 0.00688(10) 0.12066(13)
C48_4 C 0.43882(8) 0.07698(11) 0.08205(13)
H26_4 H 0.4034 0.0968 0.0591
C49_4 C 0.53560(7) 0.04675(10) 0.13222(12)
C50_4 C 0.59685(7) 0.04857(10) 0.15207(12)
C51_4 C 0.62348(8) 0.11582(10) 0.18254(13)
H27_4 H 0.6025 0.1605 0.1920
C52_4 C 0.68079(8) 0.11655(11) 0.19874(13)
H28_4 H 0.6986 0.1627 0.2196
S6_4 S 0.50041(2) 0.12434(3) 0.08082(4)
Co2_6 Co 0.5000 0.891922(19) 0.2500
C5_4 C 0.52165(7) 0.67822(10) 0.03055(13)
C6_4 C 0.47159(8) 0.69554(11) 0.06511(14)
H2_4 H 0.4393 0.6659 0.0471
C7_4 C 0.46897(8) 0.75601(11) 0.12571(14)
H3_4 H 0.4343 0.7670 0.1484
C8_4 C 0.56171(8) 0.78216(10) 0.12226(13)
H4_4 H 0.5937 0.8116 0.1431
C9_4 C 0.56771(7) 0.72287(10) 0.06045(13)
H5_4 H 0.6028 0.7129 0.0388
N2_4 N 0.51305(6) 0.80015(8) 0.15414(11)
C19_4 C 0.59629(8) 0.95046(11) 0.36001(14)
C26_4 C 0.31347(8) 0.99036(10) 0.34219(13)
H14_4 H 0.2916 0.9462 0.3506
C27_4 C 0.37059(8) 0.98496(11) 0.36000(13)
H15_4 H 0.3875 0.9380 0.3804
N5_4 N 0.49718(6) 0.98964(8) 0.35069(10)
O5_4 O 0.58020(5) 0.89761(7) 0.30187(9)
O6_4 O 0.64371(6) 0.95845(8) 0.39880(12)
C28_4 C 0.38650(8) 0.49054(10) 0.65529(12)
C29_4 C 0.43486(7) 0.52790(10) 0.61740(12)
C30_4 C 0.48911(8) 0.50668(11) 0.63786(12)
H16_4 H 0.5014 0.4651 0.6770
C31_4 C 0.47337(7) 0.61456(10) 0.53415(13)
C32_4 C 0.47835(7) 0.67822(10) 0.46945(13)
C33_4 C 0.52841(8) 0.69554(11) 0.43489(14)
H17_4 H 0.5607 0.6659 0.4529
C34_4 C 0.53103(8) 0.75601(11) 0.37429(14)
H18_4 H 0.5657 0.7670 0.3516
C35_4 C 0.43829(8) 0.78216(10) 0.37774(13)
H19_4 H 0.4063 0.8116 0.3569
C36_4 C 0.43229(7) 0.72287(10) 0.43955(13)
H20_4 H 0.3972 0.7129 0.4612
N7_4 N 0.42610(6) 0.58907(8) 0.55774(11)
N8_4 N 0.48695(6) 0.80015(8) 0.34586(11)
O7_4 O 0.33761(5) 0.50982(7) 0.62283(9)
O8_4 O 0.39479(6) 0.44248(7) 0.71908(9)
S4_4 S 0.531610(19) 0.56493(3) 0.58376(3)
C46_4 C 0.40371(8) 0.95046(11) 0.13999(14)
C53_4 C 0.68653(8) 0.99036(10) 0.15781(13)
H29_4 H 0.7084 0.9462 0.1494
C54_4 C 0.62941(8) 0.98496(11) 0.14000(13)
H30_4 H 0.6125 0.9380 0.1196
N13_4 N 0.50282(6) 0.98964(8) 0.14931(10)
O12_4 O 0.41980(5) 0.89761(7) 0.19813(9)
O13_4 O 0.35629(6) 0.95845(8) 0.10120(12)
C1_4 C 0.61350(8) 0.49054(10) 0.84471(12)
C2_4 C 0.56514(7) 0.52790(10) 0.88260(12)
C3_4 C 0.51089(8) 0.50668(11) 0.86214(12)
H1_3 H 0.4986 0.4651 0.8230
C4_4 C 0.52663(7) 0.61456(10) 0.96585(13)
N1_4 N 0.57390(6) 0.58907(8) 0.94226(11)
O1_4 O 0.66239(5) 0.50982(7) 0.87717(9)
O2_4 O 0.60521(6) 0.44248(7) 0.78092(9)
S1_2 S 0.468390(19) 0.56493(3) 0.91624(3)
S1_3 S 0.031610(19) 0.93507(3) 0.08376(3)
S1_4 S 0.968390(19) 0.06493(3) 0.91624(3)
H1_4 H 0.9986 0.9651 0.8230
loop_
_geom_bond_atom_site_label_1
_geom_bond_atom_site_label_2
_geom_bond_site_symmetry_1
_geom_bond_site_symmetry_2
O8 Co3 1_555 1_555
N10 Co3 1_555 1_555
O10 Co3 1_555 1_555
N16 Co3 1_555 1_555
C28 O8 1_555 1_555
C6 H2 1_555 1_555
C7 C6 1_555 1_555
H3 C7 1_555 1_555
C22 C23 1_555 1_555
C23 C24 1_555 1_555
C24 H12 1_555 1_555
C25 C24 1_555 1_555
H13 C25 1_555 1_555
C26 H14 1_555 1_555
C27 C23 1_555 1_555
H15 C27 1_555 1_555
N5 Co2 1_555 1_555
N6 C25 1_555 1_555
Co5 N6 1_555 1_555
C29 C30 1_555 1_555
C31 C32 1_555 1_555
C35 H19 1_555 1_555
C36 C32 1_555 1_555
H20 C36 1_555 1_555
N7 C29 1_555 1_555
N8 Co2 1_555 1_555
C46 C47 1_555 1_555
C47 C48 1_555 1_555
C48 H26 1_555 1_555
O12 Co2 1_555 1_555
O13 C46 1_555 1_555
C22 N5 1_555 1_555
C22 S3 1_555 1_555
C26 C27 1_555 1_555
C26 N6 1_555 1_555
C31 N7 1_555 1_555
C35 C36 1_555 1_555
C35 N8 1_555 1_555
C46 O12 1_555 1_555
O2 Co1 1_555 1_555
C10 C11 1_555 1_555
C11 C12 1_555 1_555
C12 H6 1_555 1_555
S2 C12 1_555 1_555
N3 Co1 1_555 1_555
O3 Co1 1_555 1_555
O4 C10 1_555 1_555
N15 Co1 1_555 1_555
C1 O2 1_555 1_555
C10 O3 1_555 1_555
C11 N3 1_555 1_555
C13 S2 1_555 1_555
C13 N3 1_555 1_555
C14 C15 1_555 1_555
C15 H7 1_555 1_555
C16 C15 1_555 1_555
H8 C16 1_555 1_555
C18 C14 1_555 1_555
N4 C16 1_555 1_555
C17 C18 1_555 1_555
C17 N4 1_555 1_555
C2 C3 1_555 1_555
N1 C2 1_555 1_555
Co7 N9 1_555 1_555
C37 C38 1_555 1_555
C38 C39 1_555 1_555
C39 H21 1_555 1_555
C40 C41 1_555 1_555
C41 C42 1_555 1_555
C42 H22 1_555 1_555
C43 C42 1_555 1_555
H23 C43 1_555 1_555
C45 C41 1_555 1_555
H25 C45 1_555 1_555
S5 C39 1_555 1_555
N9 C38 1_555 1_555
O9 Co7 1_555 1_555
O11 C37 1_555 1_555
C4 N1 1_555 1_555
C37 O9 1_555 1_555
C40 S5 1_555 1_555
C40 N9 1_555 1_555
C43 N11 1_555 1_555
C44 C45 1_555 1_555
C44 N11 1_555 1_555
Co2_2 N2 1_555 1_555
C8 H4 1_555 1_555
C9 C5 1_555 1_555
H5 C9 1_555 1_555
C19 C20 1_555 1_555
C20 C21 1_555 1_555
C21 H11 1_555 1_555
O5 Co2_2 1_555 1_555
O6 C19 1_555 1_555
Co6 N14 1_555 1_555
C33 H17 1_555 1_555
C34 C33 1_555 1_555
H18 C34 1_555 1_555
C49 C50 1_555 1_555
C50 C51 1_555 1_555
C51 H27 1_555 1_555
C52 C51 1_555 1_555
H28 C52 1_555 1_555
C53 H29 1_555 1_555
C54 C50 1_555 1_555
H30 C54 1_555 1_555
N13 Co2_2 1_555 1_555
N14 C52 1_555 1_555
C8 C9 1_555 1_555
C8 N2 1_555 1_555
C19 O5 1_555 1_555
C49 N13 1_555 1_555
C49 S6 1_555 1_555
C53 C54 1_555 1_555
C53 N14 1_555 1_555
C10_2 C11_2 1_555 1_555
C11_2 C12_2 1_555 1_555
C12_2 H6_2 1_555 1_555
C13_2 C14_2 1_555 1_555
C14_2 C15_2 1_555 1_555
C15_2 H7_2 1_555 1_555
C16_2 C15_2 1_555 1_555
H8_2 C16_2 1_555 1_555
C18_2 C14_2 1_555 1_555
H10_2 C18_2 1_555 1_555
S2_2 C12_2 1_555 1_555
N4_2 C16_2 1_555 1_555
O4_2 C10_2 1_555 1_555
C10_2 O10 1_555 1_555
C11_2 N10 1_555 1_555
C13_2 S2_2 1_555 1_555
C13_2 N10 1_555 1_555
C17_2 C18_2 1_555 1_555
C17_2 N4_2 1_555 1_555
C41_2 C42_2 1_555 1_555
C42_2 H22_2 1_555 1_555
C43_2 C42_2 1_555 1_555
H23_2 C43_2 1_555 1_555
C45_2 C41_2 1_555 1_555
C43_2 N12 1_555 1_555
C44_2 C45_2 1_555 1_555
C44_2 N12 1_555 1_555
Co4 N9_2 1_555 1_555
C37_2 C38_2 1_555 1_555
C38_2 C39_2 1_555 1_555
C39_2 H21_2 1_555 1_555
S5_2 C39_2 1_555 1_555
N9_2 C38_2 1_555 1_555
O9_2 Co4 1_555 1_555
O11_2 C37_2 1_555 1_555
C37_2 O9_2 1_555 1_555
C40_2 S5_2 1_555 1_555
C40_2 N9_2 1_555 1_555
Co1_2 O1_2 1_555 1_555
C1_2 C2_2 1_555 1_555
C2_2 C3_2 1_555 1_555
C3_2 H1_2 1_555 1_555
N1_2 C2_2 1_555 1_555
O1_2 C1_2 1_555 1_555
O2_2 Co1_2 1_555 1_555
S1 C3_2 1_555 1_555
C10_3 C11_3 1_555 1_555
C11_3 C12_3 1_555 1_555
C12_3 H6_3 1_555 1_555
S2_3 C12_3 1_555 1_555
N3_2 Co1_2 1_555 1_555
O3_2 Co1_2 1_555 1_555
O4_3 C10_3 1_555 1_555
Co5 N9_3 1_555 1_555
C37_3 C38_3 1_555 1_555
C38_3 C39_3 1_555 1_555
C39_3 H21_3 1_555 1_555
C40_3 C41_3 1_555 1_555
C41_3 C42_3 1_555 1_555
C42_3 H22_3 1_555 1_555
C43_3 C42_3 1_555 1_555
H23_3 C43_3 1_555 1_555
C44_3 H24_3 1_555 1_555
C45_3 C41_3 1_555 1_555
H25_3 C45_3 1_555 1_555
S5_3 C39_3 1_555 1_555
N9_3 C38_3 1_555 1_555
N11_2 Co1_2 1_555 1_555
O9_3 Co5 1_555 1_555
O11_3 C37_3 1_555 1_555
N15_2 Co1_2 1_555 1_555
C1_2 O2_2 1_555 1_555
C4_2 N1_2 1_555 1_555
C4_2 S1 1_555 1_555
C10_3 O3_2 1_555 1_555
C11_3 N3_2 1_555 1_555
C13_3 S2_3 1_555 1_555
C13_3 N3_2 1_555 1_555
C37_3 O9_3 1_555 1_555
C40_3 S5_3 1_555 1_555
C40_3 N9_3 1_555 1_555
C43_3 N11_2 1_555 1_555
C44_3 C45_3 1_555 1_555
C44_3 N11_2 1_555 1_555
Co2_3 N2_2 1_555 1_555
C5_2 C6_2 1_555 1_555
C6_2 H2_2 1_555 1_555
C7_2 C6_2 1_555 1_555
H3_2 C7_2 1_555 1_555
C8_2 H4_2 1_555 1_555
C9_2 C5_2 1_555 1_555
H5_2 C9_2 1_555 1_555
N2_2 C7_2 1_555 1_555
C14_3 C15_3 1_555 1_555
C15_3 H7_3 1_555 1_555
C16_3 C15_3 1_555 1_555
H8_3 C16_3 1_555 1_555
C17_3 H9_3 1_555 1_555
C18_3 C14_3 1_555 1_555
N4_3 C16_3 1_555 1_555
C26_2 H14_2 1_555 1_555
H15_2 C27_2 1_555 1_555
N5_2 Co2_3 1_555 1_555
O5_2 Co2_3 1_555 1_555
O6_2 C19_2 1_555 1_555
Co3_2 O7_2 1_555 1_555
Co5 N4_3 1_555 1_555
C28_2 C29_2 1_555 1_555
C29_2 C30_2 1_555 1_555
C30_2 H16_2 1_555 1_555
C31_2 C32_2 1_555 1_555
C32_2 C33_2 1_555 1_555
C33_2 H17_2 1_555 1_555
C34_2 C33_2 1_555 1_555
H18_2 C34_2 1_555 1_555
C35_2 H19_2 1_555 1_555
C36_2 C32_2 1_555 1_555
H20_2 C36_2 1_555 1_555
N7_2 C29_2 1_555 1_555
N8_2 Co2_3 1_555 1_555
O7_2 C28_2 1_555 1_555
O8_2 Co3_2 1_555 1_555
S4_2 C30_2 1_555 1_555
N10_2 Co3_2 1_555 1_555
N12_2 Co3_2 1_555 1_555
O10_2 Co3_2 1_555 1_555
C53_2 H29_2 1_555 1_555
H30_2 C54_2 1_555 1_555
N13_2 Co2_3 1_555 1_555
N16_2 Co3_2 1_555 1_555
O12_2 Co2_3 1_555 1_555
O13_2 C46_2 1_555 1_555
C8_2 C9_2 1_555 1_555
C8_2 N2_2 1_555 1_555
C17_3 C18_3 1_555 1_555
C17_3 N4_3 1_555 1_555
C19_2 O5_2 1_555 1_555
C26_2 C27_2 1_555 1_555
C28_2 O8_2 1_555 1_555
C31_2 N7_2 1_555 1_555
C31_2 S4_2 1_555 1_555
C34_2 N8_2 1_555 1_555
C35_2 C36_2 1_555 1_555
C35_2 N8_2 1_555 1_555
C46_2 O12_2 1_555 1_555
C53_2 C54_2 1_555 1_555
C20_2 C21_2 1_555 1_555
C21_2 H11_2 1_555 1_555
C22_2 C23_2 1_555 1_555
C23_2 C24_2 1_555 1_555
C24_2 H12_2 1_555 1_555
C25_2 C24_2 1_555 1_555
H13_2 C25_2 1_555 1_555
N6_2 C25_2 1_555 1_555
S3_2 C21_2 1_555 1_555
Co7 N6_2 1_555 1_555
Co4 N14_2 1_555 1_555
C47_2 C48_2 1_555 1_555
C48_2 H26_2 1_555 1_555
C49_2 C50_2 1_555 1_555
C50_2 C51_2 1_555 1_555
C51_2 H27_2 1_555 1_555
C52_2 C51_2 1_555 1_555
H28_2 C52_2 1_555 1_555
N14_2 C52_2 1_555 1_555
S6_2 C48_2 1_555 1_555
C22_2 S3_2 1_555 1_555
C49_2 S6_2 1_555 1_555
C10_4 C11_4 1_555 1_555
C11_4 C12_4 1_555 1_555
C12_4 H6_4 1_555 1_555
C13_4 C14_4 1_555 1_555
C14_4 C15_4 1_555 1_555
C15_4 H7_4 1_555 1_555
C16_4 C15_4 1_555 1_555
H8_4 C16_4 1_555 1_555
C17_4 H9_4 1_555 1_555
C18_4 C14_4 1_555 1_555
H10_4 C18_4 1_555 1_555
S2_4 C12_4 1_555 1_555
N4_4 C16_4 1_555 1_555
O4_4 C10_4 1_555 1_555
Co6 N4_4 1_555 1_555
C41_4 C42_4 1_555 1_555
C42_4 H22_4 1_555 1_555
C43_4 C42_4 1_555 1_555
H23_4 C43_4 1_555 1_555
C44_4 H24_4 1_555 1_555
C45_4 C41_4 1_555 1_555
C10_4 O10_2 1_555 1_555
C11_4 N10_2 1_555 1_555
C13_4 S2_4 1_555 1_555
C13_4 N10_2 1_555 1_555
C17_4 C18_4 1_555 1_555
C17_4 N4_4 1_555 1_555
C43_4 N12_2 1_555 1_555
C44_4 C45_4 1_555 1_555
C44_4 N12_2 1_555 1_555
Co6 N9_4 1_555 1_555
C37_4 C38_4 1_555 1_555
C38_4 C39_4 1_555 1_555
C39_4 H21_4 1_555 1_555
S5_4 C39_4 1_555 1_555
N9_4 C38_4 1_555 1_555
O9_4 Co6 1_555 1_555
O11_4 C37_4 1_555 1_555
C37_4 O9_4 1_555 1_555
C40_4 S5_4 1_555 1_555
C40_4 N9_4 1_555 1_555
Co2_4 N2_3 1_555 1_555
C8_3 H4_3 1_555 1_555
C9_3 C5_3 1_555 1_555
H5_3 C9_3 1_555 1_555
C19_3 C20_3 1_555 1_555
C20_3 C21_3 1_555 1_555
C21_3 H11_3 1_555 1_555
O5_3 Co2_4 1_555 1_555
O6_3 C19_3 1_555 1_555
C33_3 H17_3 1_555 1_555
C34_3 C33_3 1_555 1_555
H18_3 C34_3 1_555 1_555
C49_3 C50_3 1_555 1_555
C50_3 C51_3 1_555 1_555
C51_3 H27_3 1_555 1_555
C52_3 C51_3 1_555 1_555
H28_3 C52_3 1_555 1_555
C53_3 H29_3 1_555 1_555
C54_3 C50_3 1_555 1_555
H30_3 C54_3 1_555 1_555
N13_3 Co2_4 1_555 1_555
N15_2 C52_3 1_555 1_555
C8_3 C9_3 1_555 1_555
C8_3 N2_3 1_555 1_555
C19_3 O5_3 1_555 1_555
C49_3 N13_3 1_555 1_555
C49_3 S6_3 1_555 1_555
C53_3 C54_3 1_555 1_555
C53_3 N15_2 1_555 1_555
C2_3 C3_3 1_555 1_555
N1_3 C2_3 1_555 1_555
C4_3 N1_3 1_555 1_555
O2_3 Co4 1_555 1_555
C1_3 O2_3 1_555 1_555
C6_3 H2_3 1_555 1_555
C7_3 C6_3 1_555 1_555
H3_3 C7_3 1_555 1_555
C22_3 C23_3 1_555 1_555
C23_3 C24_3 1_555 1_555
C24_3 H12_3 1_555 1_555
C25_3 C24_3 1_555 1_555
H13_3 C25_3 1_555 1_555
C26_3 H14_3 1_555 1_555
C27_3 C23_3 1_555 1_555
H15_3 C27_3 1_555 1_555
N5_3 Co2_5 1_555 1_555
N16_2 C25_3 1_555 1_555
C29_3 C30_3 1_555 1_555
C31_3 C32_3 1_555 1_555
C35_3 H19_3 1_555 1_555
C36_3 C32_3 1_555 1_555
H20_3 C36_3 1_555 1_555
N7_3 C29_3 1_555 1_555
N8_3 Co2_5 1_555 1_555
C46_3 C47_3 1_555 1_555
C47_3 C48_3 1_555 1_555
C48_3 H26_3 1_555 1_555
O12_3 Co2_5 1_555 1_555
O13_3 C46_3 1_555 1_555
C22_3 N5_3 1_555 1_555
C22_3 S3_3 1_555 1_555
C26_3 C27_3 1_555 1_555
C26_3 N16_2 1_555 1_555
C31_3 N7_3 1_555 1_555
C35_3 C36_3 1_555 1_555
C35_3 N8_3 1_555 1_555
C46_3 O12_3 1_555 1_555
O8_3 Co7 1_555 1_555
C28_3 O8_3 1_555 1_555
C20_4 C21_4 1_555 1_555
C21_4 H11_4 1_555 1_555
C22_4 C23_4 1_555 1_555
C23_4 C24_4 1_555 1_555
C24_4 H12_4 1_555 1_555
C25_4 C24_4 1_555 1_555
H13_4 C25_4 1_555 1_555
N16 C25_4 1_555 1_555
S3_4 C21_4 1_555 1_555
C47_4 C48_4 1_555 1_555
C48_4 H26_4 1_555 1_555
C49_4 C50_4 1_555 1_555
C50_4 C51_4 1_555 1_555
C51_4 H27_4 1_555 1_555
C52_4 C51_4 1_555 1_555
H28_4 C52_4 1_555 1_555
N15 C52_4 1_555 1_555
S6_4 C48_4 1_555 1_555
C22_4 S3_4 1_555 1_555
C49_4 S6_4 1_555 1_555
Co2_6 N2_4 1_555 1_555
C5_4 C6_4 1_555 1_555
C6_4 H2_4 1_555 1_555
C7_4 C6_4 1_555 1_555
H3_4 C7_4 1_555 1_555
C8_4 H4_4 1_555 1_555
C9_4 C5_4 1_555 1_555
H5_4 C9_4 1_555 1_555
N2_4 C7_4 1_555 1_555
C26_4 H14_4 1_555 1_555
H15_4 C27_4 1_555 1_555
N5_4 Co2_6 1_555 1_555
O5_4 Co2_6 1_555 1_555
O6_4 C19_4 1_555 1_555
Co5 O7_4 1_555 1_555
C28_4 C29_4 1_555 1_555
C29_4 C30_4 1_555 1_555
C30_4 H16_4 1_555 1_555
C31_4 C32_4 1_555 1_555
C32_4 C33_4 1_555 1_555
C33_4 H17_4 1_555 1_555
C34_4 C33_4 1_555 1_555
H18_4 C34_4 1_555 1_555
C35_4 H19_4 1_555 1_555
C36_4 C32_4 1_555 1_555
H20_4 C36_4 1_555 1_555
N7_4 C29_4 1_555 1_555
N8_4 Co2_6 1_555 1_555
O7_4 C28_4 1_555 1_555
O8_4 Co5 1_555 1_555
S4_4 C30_4 1_555 1_555
C53_4 H29_4 1_555 1_555
H30_4 C54_4 1_555 1_555
N13_4 Co2_6 1_555 1_555
O12_4 Co2_6 1_555 1_555
O13_4 C46_4 1_555 1_555
C8_4 C9_4 1_555 1_555
C8_4 N2_4 1_555 1_555
C19_4 O5_4 1_555 1_555
C26_4 C27_4 1_555 1_555
C28_4 O8_4 1_555 1_555
C31_4 N7_4 1_555 1_555
C31_4 S4_4 1_555 1_555
C34_4 N8_4 1_555 1_555
C35_4 C36_4 1_555 1_555
C35_4 N8_4 1_555 1_555
C46_4 O12_4 1_555 1_555
C53_4 C54_4 1_555 1_555
Co6 O1_4 1_555 1_555
C1_4 C2_4 1_555 1_555
C2_4 C3_4 1_555 1_555
C3_4 H1_3 1_555 1_555
N1_4 C2_4 1_555 1_555
O1_4 C1_4 1_555 1_555
O2_4 Co6 1_555 1_555
S1_2 C3_4 1_555 1_555
C1_4 O2_4 1_555 1_555
C4_4 N1_4 1_555 1_555
C4_4 S1_2 1_555 1_555

#END
