
###############################################################################
#
# This file contains modified crystal structure data generated from the
# MOF subset of the Cambridge Structural Database (CSD) v543 
# hosted by the Cambridge Crystallographic Data Centre (CCDC).
#
# This work is licensed under the Creative Commons
# Attribution-NonCommercial-ShareAlike 4.0 International License.
# To view a copy of this license, visit
# http://creativecommons.org/licenses/by-nc-sa/4.0/
# or send a letter to
# Creative Commons, PO Box 1866, Mountain View, CA 94042, USA.
#
# CIF created using the CSD Python API on 29 September 2022
# The structure has been converted into the P1 space group
# The structure has a 3D framework
# The original CSD entry YUMKAV is in the monoclinic crystal system
# The framework has been calculated to contain at least 10.0% void space
# The void calculation uses a probe of radius 1.32A, grid spacing 0.4
# H atom positions have been added when not included in the experimental data
#
###############################################################################

data_YUMKAV
_chemical_formula_moiety         '(C404 H332 N60 O142 Zn28)n'
_symmetry_cell_setting           triclinic
_symmetry_space_group_name_H-M   'P 1'
_symmetry_Int_Tables_number      1
_space_group_name_Hall           'P 1'
loop_
_symmetry_equiv_pos_site_id
_symmetry_equiv_pos_as_xyz
1 x,y,z
_cell_length_a                   29.6681(15)
_cell_length_b                   27.6756(17)
_cell_length_c                   14.3832(7)
_cell_angle_alpha                90
_cell_angle_beta                 92.371(2)
_cell_angle_gamma                90
_cell_volume                     11799.7
loop_
_atom_site_label
_atom_site_type_symbol
_atom_site_fract_x
_atom_site_fract_y
_atom_site_fract_z
C1 C 0.1355(3) 0.1355(4) 0.0340(7)
C13 C 0.0560(3) 0.1581(4) 0.1193(7)
C31 C 0.0773(3) 0.1936(4) 0.0710(7)
H11 H 0.0654 0.2246 0.0658
C35 C 0.1180(3) 0.1814(4) 0.0295(7)
C76 C 0.0738(3) 0.1130(4) 0.1250(7)
H40 H 0.0591 0.0892 0.1580
C85 C 0.1138(3) 0.1015(4) 0.0823(7)
H45 H 0.1255 0.0704 0.0871
C96 C 0.0035(5) 0.0509(6) 0.6517(15)
H57 H 0.0025 0.0624 0.7145
H59 H 0.0344 0.0467 0.6358
N6 N 0.0145(2) 0.1684(3) 0.1590(6)
H13 H 0.1334 0.2052 0.9980
C78 C 0.1763(3) 0.1227(4) 0.9814(8)
O22 O 0.1931(3) 0.0831(3) 0.9888(6)
O33 O 0.1909(2) 0.1543(3) 0.9263(5)
Zn14 Zn 0.24142(4) 0.13025(5) 0.85811(8)
C21 C 0.3601(3) 0.1474(4) 0.9971(7)
H18 H 0.3610 0.2197 0.9906
C75 C 0.2454(4) 0.2053(5) 0.7244(12)
H39 H 0.2620 0.2213 0.7713
C81 C 0.3142(4) 0.1437(5) 0.9454(8)
C93 C 0.2527(5) 0.2783(5) 0.6303(11)
H50 H 0.2759 0.2845 0.6773
H51 H 0.2283 0.3005 0.6374
H52 H 0.2648 0.2823 0.5699
C94 C 0.2112(5) 0.2089(6) 0.5646(11)
H53 H 0.1797 0.2147 0.5722
H54 H 0.2166 0.1747 0.5618
H55 H 0.2203 0.2237 0.5080
N15 N 0.2361(3) 0.2286(4) 0.6400(8)
O24 O 0.2989(3) 0.1034(4) 0.9359(6)
O25 O 0.2959(3) 0.1792(4) 0.9107(6)
O26 O 0.2330(3) 0.1667(4) 0.7370(6)
O36 O 0.2373(3) 0.0656(3) 0.7910(5)
H80 H 0.232949 0.0394029 0.836943
H81 H 0.211354 0.0660762 0.745125
C7 C 0.1422(3) 0.6657(5) 0.4910(8)
C11 C 0.0581(3) 0.6767(4) 0.5637(7)
C72 C 0.0800(3) 0.7151(5) 0.5277(8)
H36 H 0.0664 0.7454 0.5276
C84 C 0.1230(3) 0.7097(5) 0.4903(8)
H44 H 0.1377 0.7361 0.4657
C88 C 0.0773(3) 0.6309(4) 0.5651(8)
H47 H 0.0622 0.6044 0.5885
C90 C 0.1865(4) 0.6581(5) 0.4474(9)
C92 C 0.1204(3) 0.6261(5) 0.5296(8)
H49 H 0.1348 0.5962 0.5317
C97 C 0.0065(6) 0.9633(6) 0.6350(16)
H61 H 0.0128 0.9496 0.6954
H62 H 0.0343 0.9710 0.6066
N11 N 0.0158(2) 0.6832(3) 0.6044(5)
O30 O 0.2063(3) 0.6181(5) 0.4598(7)
O32 O 0.2030(3) 0.6891(5) 0.4021(7)
Zn13 Zn 0.25721(4) 0.63835(5) 0.36098(9)
Zn1 Zn 0.74945(4) 0.09471(4) 0.75828(9)
O1 O 0.7435(4) 0.1006(4) 0.6217(8)
C5 C 0.5732(3) 0.2463(4) 0.2021(7)
C9 C 0.5430(3) 0.2042(4) 0.1831(7)
C10 C 0.4444(3) 0.1583(4) 0.0824(7)
C14 C 0.5492(3) 0.1550(4) 0.2026(7)
C26 C 0.5860(3) 0.1278(4) 0.2516(7)
C30 C 0.6047(3) 0.0878(4) 0.2096(7)
H10 H 0.5933 0.0779 0.1515
C32 C 0.6198(3) 0.2419(4) 0.2133(7)
H12 H 0.6334 0.2116 0.2118
C33 C 0.8659(3) 0.3240(4) 0.2217(8)
C36 C 0.5804(3) 0.3322(4) 0.2158(7)
H14 H 0.5672 0.3627 0.2167
C37 C 0.9576(3) 0.2069(4) 0.2017(8)
C41 C 0.9560(3) 0.1593(4) 0.2347(8)
C43 C 0.3774(3) 0.1928(4) 0.0107(7)
C44 C 0.6551(3) 0.0768(4) 0.3407(7)
C48 C 0.4195(3) 0.1985(4) 0.0544(7)
H20 H 0.4311 0.2294 0.0649
C49 C 0.5541(3) 0.2924(4) 0.2012(7)
H21 H 0.5231 0.2960 0.1906
C52 C 0.6400(3) 0.0624(4) 0.2526(7)
H23 H 0.6532 0.0364 0.2231
C54 C 0.9255(3) 0.2473(4) 0.2102(8)
C56 C 0.6461(3) 0.2834(4) 0.2269(7)
H25 H 0.6773 0.2808 0.2344
C57 C 0.8521(4) 0.2789(4) 0.2410(8)
H26 H 0.8224 0.2737 0.2566
C61 C 0.6012(3) 0.1417(4) 0.3364(7)
H30 H 0.5890 0.1689 0.3640
C62 C 0.6260(3) 0.3278(4) 0.2292(7)
C63 C 0.8816(3) 0.2396(4) 0.2379(7)
H31 H 0.8721 0.2089 0.2541
C64 C 0.8616(3) 0.0815(4) 0.3177(8)
H32 H 0.8376 0.0635 0.2925
C65 C 0.9230(3) 0.1344(4) 0.2950(8)
C66 C 0.6359(3) 0.1150(4) 0.3845(7)
H33 H 0.6453 0.1233 0.4449
C67 C 0.3846(3) 0.1078(4) 0.0257(7)
H34 H 0.3722 0.0772 0.0168
C68 C 0.8674(3) 0.0844(4) 0.4108(8)
C73 C 0.9390(3) 0.2926(4) 0.1902(7)
H37 H 0.9685 0.2980 0.1732
C77 C 0.6559(3) 0.3720(4) 0.2450(7)
C79 C 0.9283(3) 0.1387(4) 0.3918(8)
H41 H 0.9504 0.1591 0.4173
C80 C 0.6935(3) 0.0495(4) 0.3858(8)
C82 C 0.4274(3) 0.1123(4) 0.0679(7)
H42 H 0.4441 0.0851 0.0858
C83 C 0.9095(3) 0.3308(4) 0.1948(8)
H43 H 0.9192 0.3617 0.1797
C86 C 0.8375(4) 0.0534(4) 0.4732(8)
C87 C 0.8904(3) 0.1045(4) 0.2582(8)
H46 H 0.8875 0.0997 0.1943
C89 C 0.8315(4) 0.3641(5) 0.2285(9)
C91 C 0.9014(3) 0.1130(4) 0.4497(8)
H48 H 0.9059 0.1149 0.5139
C95 C 0.9356(5) 0.0040(6) 0.6415(15)
H56 H 0.9196 0.0326 0.6483
H58 H 0.9892 0.0738 0.6102
N1 N 0.4873(2) 0.1661(3) 0.1280(5)
N3 N 0.5041(2) 0.2106(3) 0.1373(5)
N4 N 0.5133(2) 0.1312(3) 0.1648(5)
N5 N 0.9918(2) 0.1351(3) 0.2068(6)
N7 N 0.9953(2) 0.2121(3) 0.1555(5)
N14 N 0.9807(4) 0.0059(4) 0.6439(12)
O3 O 0.6979(3) 0.0482(3) 0.4713(6)
O4 O 0.7283(3) 0.0339(3) 0.7132(6)
O6 O 0.7979(3) 0.0525(3) 0.4523(6)
O8 O 0.8575(3) 0.0300(3) 0.5359(6)
O11 O 0.6596(3) 0.0194(3) 0.8803(6)
O12 O 0.6394(3) 0.0191(3) 0.5942(6)
O14 O 0.6962(3) 0.3648(3) 0.2629(7)
O15 O 0.6372(3) 0.4120(3) 0.2381(7)
O17 O 0.7656(3) 0.0700(3) 0.8871(6)
O19 O 0.7935(3) 0.3570(3) 0.2426(7)
O20 O 0.8466(4) 0.4046(4) 0.2130(10)
O31 O 0.7219(3) 0.0285(3) 0.3347(6)
O34 O 0.8387(3) 0.0054(3) 0.7380(6)
Zn4 Zn 0.66448(4) 0.02215(4) 0.73083(9)
Zn8 Zn 0.74945(4) 0.40529(4) 0.25828(9)
O39 O 0.6962(3) 0.1352(3) 0.7629(7)
O40 O 0.6372(3) 0.0880(3) 0.7381(7)
O42 O 0.7935(3) 0.1430(3) 0.7426(7)
Zn11 Zn 0.66448(4) 0.47785(4) 0.23083(9)
H70 H 0.66987 0.0506248 0.907797
H71 H 0.627776 0.0134563 0.895859
H72 H 0.798906 0.0674321 0.895459
H73 H 0.754031 0.092718 0.933935
H75 H 0.606382 0.0131297 0.593362
H77 H 0.869823 0.00890998 0.765283
H82 H 0.711666 0.094673 0.60076
H83 H 0.752529 0.133621 0.6029
O18 O 0.7105(2) 0.6213(3) 0.0097(5)
Zn9 Zn 0.74483(3) 0.59106(4) 0.11306(7)
Zn12 Zn 0.84080(4) 0.52853(4) 0.11197(8)
C2 C 0.6347(3) 0.8728(3) 0.7018(6)
C3 C 0.3891(3) 0.6996(4) 0.5144(6)
H1 H 0.3673 0.7219 0.4947
C4 C 0.5877(3) 0.8720(3) 0.6995(6)
H2 H 0.5722 0.9008 0.7074
C6 C 0.4637(3) 0.6821(3) 0.5768(6)
C8 C 0.6246(3) 0.6972(3) 0.8244(6)
H3 H 0.6182 0.7298 0.8330
C12 C 0.8679(3) 0.5936(3) 0.8518(7)
C15 C 0.5597(3) 0.7421(3) 0.6607(6)
C16 C 0.4119(3) 0.6183(4) 0.5388(6)
H4 H 0.4054 0.5855 0.5364
C17 C 0.6598(3) 0.9187(3) 0.7157(6)
C18 C 0.6039(3) 0.6720(3) 0.7505(6)
C19 C 0.4536(3) 0.6336(3) 0.5714(6)
H5 H 0.4752 0.6109 0.5900
C20 C 0.9272(3) 0.6425(3) 0.7391(7)
C22 C 0.9585(3) 0.6687(4) 0.6806(7)
C23 C 0.6550(3) 0.6737(3) 0.8853(6)
H6 H 0.6681 0.6903 0.9357
C24 C 0.6478(3) 0.6020(3) 0.7967(6)
H7 H 0.6563 0.5702 0.7856
C25 C 0.5861(3) 0.7865(3) 0.6749(6)
C27 C 0.5639(3) 0.8306(3) 0.6862(6)
H8 H 0.5325 0.8315 0.6845
C28 C 0.3795(3) 0.6515(4) 0.5096(7)
C29 C 0.8467(3) 0.7801(3) 0.6816(6)
H9 H 0.8168 0.7717 0.6901
C34 C 0.6986(3) 0.5999(3) 0.9369(6)
C38 C 0.6169(3) 0.6241(3) 0.7368(6)
H15 H 0.6045 0.6069 0.6864
C39 C 0.5683(3) 0.6940(3) 0.6904(6)
C40 C 0.8931(3) 0.6323(3) 0.8859(7)
H16 H 0.8904 0.6417 0.9475
C42 C 0.4311(3) 0.7161(4) 0.5485(6)
H17 H 0.4373 0.7490 0.5524
C45 C 0.6659(3) 0.6257(3) 0.8713(6)
C46 C 0.6333(3) 0.7877(3) 0.6770(6)
H19 H 0.6492 0.7590 0.6701
C47 C 0.8244(3) 0.8673(4) 0.6718(7)
C50 C 0.8584(3) 0.8286(3) 0.6710(6)
C51 C 0.8798(3) 0.7437(4) 0.6796(6)
H22 H 0.8719 0.7117 0.6901
C53 C 0.9580(3) 0.7177(4) 0.6521(7)
C55 C 0.9040(3) 0.8401(4) 0.6553(6)
H24 H 0.9128 0.8721 0.6491
C58 C 0.9217(3) 0.6571(4) 0.8316(6)
H27 H 0.9376 0.6836 0.8556
C59 C 0.6569(3) 0.8310(3) 0.6894(6)
H28 H 0.6883 0.8310 0.6891
C60 C 0.9350(3) 0.8037(3) 0.6494(6)
H29 H 0.9646 0.8115 0.6364
C69 C 0.3347(3) 0.6339(4) 0.4712(7)
C70 C 0.8367(3) 0.5675(4) 0.9134(7)
C71 C 0.8739(3) 0.5779(4) 0.7625(6)
H35 H 0.8580 0.5511 0.7397
C74 C 0.9037(3) 0.6021(3) 0.7059(7)
H38 H 0.9078 0.5911 0.6458
H60 H 0.9899 0.9405 0.5968
C98 C 0.2299(7) 0.6770(8) 0.0013(15)
H63 H 0.2312 0.6423 0.0020
C99 C 0.9238(3) 0.7553(3) 0.6621(6)
C100 C 0.2476(7) 0.6625(9) 0.1580(17)
H66 H 0.2367 0.6315 0.1456
C101 C 0.2641(7) 0.7438(8) 0.0929(14)
H67 H 0.2417 0.7634 0.1213
H68 H 0.2686 0.7552 0.0310
H69 H 0.2920 0.7459 0.1290
N2 N 0.2476(6) 0.6936(7) 0.0863(12)
N8 N 0.5060(2) 0.6977(3) 0.6153(5)
N9 N 0.5200(2) 0.7432(3) 0.6151(5)
N10 N 0.5338(2) 0.6668(2) 0.6605(5)
N12 N 0.9948(2) 0.6476(3) 0.6475(6)
N13 N 0.9953(2) 0.7263(3) 0.6044(5)
O2 O 0.7686(2) 0.9733(2) 0.5860(5)
O5 O 0.7100(2) 0.5593(3) 0.9175(5)
O7 O 0.6369(2) 0.9558(3) 0.7377(5)
O9 O 0.8046(2) 0.5440(3) 0.8774(5)
O10 O 0.9140(3) 0.9653(3) 0.6302(6)
O13 O 0.3218(2) 0.5923(3) 0.4888(6)
O16 O 0.3128(2) 0.6623(3) 0.4203(5)
O21 O 0.7837(2) 0.8559(2) 0.6512(5)
O23 O 0.8370(2) 0.9092(3) 0.6905(5)
O27 O 0.2597(3) 0.6726(3) 0.2327(6)
O28 O 0.7024(2) 0.9200(2) 0.7119(5)
O29 O 0.8427(3) 0.5746(3) 0.9984(5)
O35 O 0.2509(3) 0.5700(3) 0.3170(6)
Zn2 Zn 0.74483(3) 0.90894(4) 0.61306(7)
Zn3 Zn 0.75805(3) 0.99286(3) 0.45099(7)
Zn5 Zn 0.84080(4) 0.97147(4) 0.61197(8)
O37 O 0.7100(2) 0.9407(3) 0.4175(5)
O38 O 0.8046(2) 0.9560(3) 0.3774(5)
O41 O 0.7105(2) 0.8787(3) 0.5097(5)
O43 O 0.8427(3) 0.9254(3) 0.4984(5)
Zn10 Zn 0.75805(3) 0.50714(3) 0.95099(7)
H74 H 0.654441 0.992471 0.561131
H76 H 0.820395 0.985917 0.780459
H78 H 0.255843 0.547706 0.370548
H79 H 0.220129 0.56499 0.288845
C1_2 C 0.1355(3) 0.3645(4) 0.5340(7)
C7_2 C 0.1422(3) 0.8343(5) 0.9910(8)
C13_2 C 0.0560(3) 0.3419(4) 0.6193(7)
C31_2 C 0.0773(3) 0.3064(4) 0.5710(7)
H11_2 H 0.0654 0.2754 0.5658
C35_2 C 0.1180(3) 0.3186(4) 0.5295(7)
H13_2 H 0.1334 0.2948 0.4980
C76_2 C 0.0738(3) 0.3870(4) 0.6250(7)
H40_2 H 0.0591 0.4108 0.6580
C78_2 C 0.1763(3) 0.3773(4) 0.4814(8)
C84_2 C 0.1230(3) 0.7903(5) 0.9903(8)
H44_2 H 0.1377 0.7639 0.9657
C85_2 C 0.1138(3) 0.3985(4) 0.5823(7)
H45_2 H 0.1255 0.4296 0.5871
C90_2 C 0.1865(4) 0.8419(5) 0.9474(9)
N6_2 N 0.0145(2) 0.3316(3) 0.6590(6)
O22_2 O 0.1931(3) 0.4169(3) 0.4888(6)
O30_2 O 0.2063(3) 0.8819(5) 0.9598(7)
O32_2 O 0.2030(3) 0.8109(5) 0.9021(7)
O33_2 O 0.1909(2) 0.3457(3) 0.4263(5)
Zn13_2 Zn 0.25721(4) 0.86165(5) 0.86098(9)
Zn14_2 Zn 0.24142(4) 0.36975(5) 0.35811(8)
O1_2 O 0.7435(4) 0.3994(4) 0.1217(8)
C2_2 C 0.6347(3) 0.6272(3) 0.2018(6)
C3_2 C 0.3891(3) 0.8004(4) 0.0144(6)
C4_2 C 0.5877(3) 0.6280(3) 0.1995(6)
H2_2 H 0.5722 0.5992 0.2074
C6_2 C 0.4637(3) 0.8179(3) 0.0768(6)
C8_2 C 0.6246(3) 0.8028(3) 0.3244(6)
H3_2 H 0.6182 0.7702 0.3330
C12_2 C 0.8679(3) 0.9064(3) 0.3518(7)
C15_2 C 0.5597(3) 0.7579(3) 0.1607(6)
C16_2 C 0.4119(3) 0.8817(4) 0.0388(6)
H4_2 H 0.4054 0.9145 0.0364
C17_2 C 0.6598(3) 0.5813(3) 0.2157(6)
C18_2 C 0.6039(3) 0.8280(3) 0.2505(6)
C19_2 C 0.4536(3) 0.8664(3) 0.0714(6)
H5_2 H 0.4752 0.8891 0.0900
C20_2 C 0.9272(3) 0.8575(3) 0.2391(7)
C22_2 C 0.9585(3) 0.8313(4) 0.1806(7)
C23_2 C 0.6550(3) 0.8263(3) 0.3853(6)
H6_2 H 0.6681 0.8097 0.4357
C24_2 C 0.6478(3) 0.8980(3) 0.2967(6)
H7_2 H 0.6563 0.9298 0.2856
C25_2 C 0.5861(3) 0.7135(3) 0.1749(6)
C27_2 C 0.5639(3) 0.6694(3) 0.1862(6)
H8_2 H 0.5325 0.6685 0.1845
C28_2 C 0.3795(3) 0.8485(4) 0.0096(7)
C29_2 C 0.8467(3) 0.7199(3) 0.1816(6)
H9_2 H 0.8168 0.7283 0.1901
C34_2 C 0.6986(3) 0.9001(3) 0.4369(6)
C38_2 C 0.6169(3) 0.8759(3) 0.2368(6)
H15_2 H 0.6045 0.8931 0.1864
C39_2 C 0.5683(3) 0.8060(3) 0.1904(6)
C40_2 C 0.8931(3) 0.8677(3) 0.3859(7)
H16_2 H 0.8904 0.8583 0.4475
C42_2 C 0.4311(3) 0.7839(4) 0.0485(6)
H17_2 H 0.4373 0.7510 0.0524
C45_2 C 0.6659(3) 0.8743(3) 0.3713(6)
C46_2 C 0.6333(3) 0.7123(3) 0.1770(6)
H19_2 H 0.6492 0.7410 0.1701
C47_2 C 0.8244(3) 0.6327(4) 0.1718(7)
C50_2 C 0.8584(3) 0.6714(3) 0.1710(6)
C51_2 C 0.8798(3) 0.7563(4) 0.1796(6)
H22_2 H 0.8719 0.7883 0.1901
C53_2 C 0.9580(3) 0.7823(4) 0.1521(7)
C55_2 C 0.9040(3) 0.6599(4) 0.1553(6)
H24_2 H 0.9128 0.6279 0.1491
C58_2 C 0.9217(3) 0.8429(4) 0.3316(6)
H27_2 H 0.9376 0.8164 0.3556
C59_2 C 0.6569(3) 0.6690(3) 0.1894(6)
H28_2 H 0.6883 0.6690 0.1891
C60_2 C 0.9350(3) 0.6963(3) 0.1494(6)
H29_2 H 0.9646 0.6885 0.1364
C70_2 C 0.8367(3) 0.9325(4) 0.4134(7)
C71_2 C 0.8739(3) 0.9221(4) 0.2625(6)
H35_2 H 0.8580 0.9489 0.2397
C74_2 C 0.9037(3) 0.8979(3) 0.2059(7)
H38_2 H 0.9078 0.9089 0.1458
H48_2 H 0.9059 0.3851 0.0139
C95_2 C 0.9356(5) 0.4960(6) 0.1415(15)
H56_2 H 0.9196 0.4674 0.1483
H58_2 H 0.9892 0.4262 0.1102
H60_2 H 0.9899 0.5595 0.0968
C99_2 C 0.9238(3) 0.7447(3) 0.1621(6)
N8_2 N 0.5060(2) 0.8023(3) 0.1153(5)
N9_2 N 0.5200(2) 0.7568(3) 0.1151(5)
N10_2 N 0.5338(2) 0.8332(2) 0.1605(5)
N12_2 N 0.9948(2) 0.8524(3) 0.1475(6)
N13_2 N 0.9953(2) 0.7737(3) 0.1044(5)
N14_2 N 0.9807(4) 0.4941(4) 0.1439(12)
O2_2 O 0.7686(2) 0.5267(2) 0.0860(5)
O4_2 O 0.7283(3) 0.4661(3) 0.2132(6)
O7_2 O 0.6369(2) 0.5442(3) 0.2377(5)
O8_2 O 0.8575(3) 0.4700(3) 0.0359(6)
O10_2 O 0.9140(3) 0.5347(3) 0.1302(6)
O11_2 O 0.6596(3) 0.4806(3) 0.3803(6)
O12_2 O 0.6394(3) 0.4809(3) 0.0942(6)
O17_2 O 0.7656(3) 0.4300(3) 0.3871(6)
O21_2 O 0.7837(2) 0.6441(2) 0.1512(5)
O23_2 O 0.8370(2) 0.5908(3) 0.1905(5)
O28_2 O 0.7024(2) 0.5800(2) 0.2119(5)
O34_2 O 0.8387(3) 0.4946(3) 0.2380(6)
H70_2 H 0.66987 0.449375 0.407797
H71_2 H 0.627776 0.486544 0.395859
H72_2 H 0.798906 0.432568 0.395459
H73_2 H 0.754031 0.407282 0.433935
H74_2 H 0.654441 0.507529 0.0611312
H75_2 H 0.606382 0.48687 0.0933618
H76_2 H 0.820395 0.514083 0.280459
H77_2 H 0.869823 0.49109 0.265283
H82_2 H 0.711666 0.405327 0.10076
H83_2 H 0.752529 0.366379 0.1029
H1_2 H 0.3673 0.7781 0.9947
C5_2 C 0.5732(3) 0.2537(4) 0.7021(7)
C9_2 C 0.5430(3) 0.2958(4) 0.6831(7)
C10_2 C 0.4444(3) 0.3417(4) 0.5824(7)
C14_2 C 0.5492(3) 0.3450(4) 0.7026(7)
C21_2 C 0.3601(3) 0.3526(4) 0.4971(7)
C26_2 C 0.5860(3) 0.3722(4) 0.7516(7)
C30_2 C 0.6047(3) 0.4122(4) 0.7096(7)
H10_2 H 0.5933 0.4221 0.6515
C32_2 C 0.6198(3) 0.2581(4) 0.7133(7)
H12_2 H 0.6334 0.2884 0.7118
C33_2 C 0.8659(3) 0.1760(4) 0.7217(8)
C36_2 C 0.5804(3) 0.1678(4) 0.7158(7)
H14_2 H 0.5672 0.1373 0.7167
C37_2 C 0.9576(3) 0.2931(4) 0.7017(8)
C41_2 C 0.9560(3) 0.3407(4) 0.7347(8)
C43_2 C 0.3774(3) 0.3072(4) 0.5107(7)
H18_2 H 0.3610 0.2803 0.4906
C44_2 C 0.6551(3) 0.4232(4) 0.8407(7)
C48_2 C 0.4195(3) 0.3015(4) 0.5544(7)
H20_2 H 0.4311 0.2706 0.5649
C49_2 C 0.5541(3) 0.2076(4) 0.7012(7)
H21_2 H 0.5231 0.2040 0.6906
C52_2 C 0.6400(3) 0.4376(4) 0.7526(7)
H23_2 H 0.6532 0.4636 0.7231
C54_2 C 0.9255(3) 0.2527(4) 0.7102(8)
C56_2 C 0.6461(3) 0.2166(4) 0.7269(7)
H25_2 H 0.6773 0.2192 0.7344
C57_2 C 0.8521(4) 0.2211(4) 0.7410(8)
H26_2 H 0.8224 0.2263 0.7566
C61_2 C 0.6012(3) 0.3583(4) 0.8364(7)
H30_2 H 0.5890 0.3311 0.8640
C62_2 C 0.6260(3) 0.1722(4) 0.7292(7)
C63_2 C 0.8816(3) 0.2604(4) 0.7379(7)
H31_2 H 0.8721 0.2911 0.7541
C64_2 C 0.8616(3) 0.4185(4) 0.8177(8)
H32_2 H 0.8376 0.4365 0.7925
C65_2 C 0.9230(3) 0.3656(4) 0.7950(8)
C66_2 C 0.6359(3) 0.3850(4) 0.8845(7)
H33_2 H 0.6453 0.3767 0.9449
C67_2 C 0.3846(3) 0.3922(4) 0.5257(7)
H34_2 H 0.3722 0.4228 0.5168
C68_2 C 0.8674(3) 0.4156(4) 0.9108(8)
C69_2 C 0.3347(3) 0.8661(4) 0.9712(7)
C73_2 C 0.9390(3) 0.2074(4) 0.6902(7)
H37_2 H 0.9685 0.2020 0.6732
C75_2 C 0.2454(4) 0.2947(5) 0.2244(12)
H39_2 H 0.2620 0.2787 0.2713
C77_2 C 0.6559(3) 0.1280(4) 0.7450(7)
C79_2 C 0.9283(3) 0.3613(4) 0.8918(8)
H41_2 H 0.9504 0.3409 0.9173
C80_2 C 0.6935(3) 0.4505(4) 0.8858(8)
C81_2 C 0.3142(4) 0.3563(5) 0.4454(8)
C82_2 C 0.4274(3) 0.3877(4) 0.5679(7)
H42_2 H 0.4441 0.4149 0.5858
C83_2 C 0.9095(3) 0.1692(4) 0.6948(8)
H43_2 H 0.9192 0.1383 0.6797
C86_2 C 0.8375(4) 0.4466(4) 0.9732(8)
C87_2 C 0.8904(3) 0.3955(4) 0.7582(8)
H46_2 H 0.8875 0.4003 0.6943
C89_2 C 0.8315(4) 0.1359(5) 0.7285(9)
C91_2 C 0.9014(3) 0.3870(4) 0.9497(8)
C93_2 C 0.2527(5) 0.2217(5) 0.1303(11)
H50_2 H 0.2759 0.2155 0.1773
H51_2 H 0.2283 0.1995 0.1374
H52_2 H 0.2648 0.2177 0.0699
C94_2 C 0.2112(5) 0.2911(6) 0.0646(11)
H53_2 H 0.1797 0.2853 0.0722
H54_2 H 0.2166 0.3253 0.0618
H55_2 H 0.2203 0.2763 0.0080
C98_2 C 0.2299(7) 0.8230(8) 0.5013(15)
H63_2 H 0.2312 0.8577 0.5020
H64 H 0.2471 0.8110 0.4511
H65 H 0.1991 0.8127 0.4929
C100_2 C 0.2476(7) 0.8375(9) 0.6580(17)
H66_2 H 0.2367 0.8685 0.6456
C101_2 C 0.2641(7) 0.7562(8) 0.5929(14)
H67_2 H 0.2417 0.7366 0.6213
H68_2 H 0.2686 0.7448 0.5310
H69_2 H 0.2920 0.7541 0.6290
N1_2 N 0.4873(2) 0.3339(3) 0.6280(5)
N2_2 N 0.2476(6) 0.8064(7) 0.5863(12)
N3_2 N 0.5041(2) 0.2894(3) 0.6373(5)
N4_2 N 0.5133(2) 0.3688(3) 0.6648(5)
N5_2 N 0.9918(2) 0.3649(3) 0.7068(6)
N7_2 N 0.9953(2) 0.2879(3) 0.6555(5)
N15_2 N 0.2361(3) 0.2714(4) 0.1400(8)
O3_2 O 0.6979(3) 0.4518(3) 0.9713(6)
O6_2 O 0.7979(3) 0.4475(3) 0.9523(6)
O13_2 O 0.3218(2) 0.9077(3) 0.9888(6)
O16_2 O 0.3128(2) 0.8377(3) 0.9203(5)
O20_2 O 0.8466(4) 0.0954(4) 0.7130(10)
O24_2 O 0.2989(3) 0.3966(4) 0.4359(6)
O25_2 O 0.2959(3) 0.3208(4) 0.4107(6)
O26_2 O 0.2330(3) 0.3333(4) 0.2370(6)
O27_2 O 0.2597(3) 0.8274(3) 0.7327(6)
O31_2 O 0.7219(3) 0.4715(3) 0.8347(6)
O35_2 O 0.2509(3) 0.9300(3) 0.8170(6)
O36_2 O 0.2373(3) 0.4344(3) 0.2910(5)
H78_2 H 0.255843 0.952294 0.870548
H79_2 H 0.220129 0.93501 0.788845
H80_2 H 0.232949 0.460597 0.336943
H81_2 H 0.211354 0.433924 0.245125
H64_2 H 0.2471 0.6890 0.9511
H65_2 H 0.1991 0.6873 0.9929
H1_3 H 0.6327 0.2219 0.0053
C5_3 C 0.4268(3) 0.7463(4) 0.2979(7)
C9_3 C 0.4570(3) 0.7042(4) 0.3169(7)
C10_3 C 0.5556(3) 0.6583(4) 0.4176(7)
C14_3 C 0.4508(3) 0.6550(4) 0.2974(7)
C21_3 C 0.6399(3) 0.6474(4) 0.5029(7)
C26_3 C 0.4140(3) 0.6278(4) 0.2484(7)
C30_3 C 0.3953(3) 0.5878(4) 0.2904(7)
H10_3 H 0.4067 0.5779 0.3485
C32_3 C 0.3802(3) 0.7419(4) 0.2867(7)
H12_3 H 0.3666 0.7116 0.2882
C33_3 C 0.1341(3) 0.8240(4) 0.2783(8)
C36_3 C 0.4196(3) 0.8322(4) 0.2842(7)
H14_3 H 0.4328 0.8627 0.2833
C37_3 C 0.0424(3) 0.7069(4) 0.2983(8)
C41_3 C 0.0440(3) 0.6593(4) 0.2653(8)
C43_3 C 0.6226(3) 0.6928(4) 0.4893(7)
H18_3 H 0.6390 0.7197 0.5094
C44_3 C 0.3449(3) 0.5768(4) 0.1593(7)
C48_3 C 0.5805(3) 0.6985(4) 0.4456(7)
H20_3 H 0.5689 0.7294 0.4351
C49_3 C 0.4459(3) 0.7924(4) 0.2988(7)
H21_3 H 0.4769 0.7960 0.3094
C52_3 C 0.3600(3) 0.5624(4) 0.2474(7)
H23_3 H 0.3468 0.5364 0.2769
C54_3 C 0.0745(3) 0.7473(4) 0.2898(8)
C56_3 C 0.3539(3) 0.7834(4) 0.2731(7)
H25_3 H 0.3227 0.7808 0.2656
C57_3 C 0.1479(4) 0.7789(4) 0.2590(8)
H26_3 H 0.1776 0.7737 0.2434
C61_3 C 0.3988(3) 0.6417(4) 0.1636(7)
H30_3 H 0.4110 0.6689 0.1360
C62_3 C 0.3740(3) 0.8278(4) 0.2708(7)
C63_3 C 0.1184(3) 0.7396(4) 0.2621(7)
H31_3 H 0.1279 0.7089 0.2459
C64_3 C 0.1384(3) 0.5815(4) 0.1823(8)
H32_3 H 0.1624 0.5635 0.2075
C65_3 C 0.0770(3) 0.6344(4) 0.2050(8)
C66_3 C 0.3641(3) 0.6150(4) 0.1155(7)
H33_3 H 0.3547 0.6233 0.0551
C67_3 C 0.6154(3) 0.6078(4) 0.4743(7)
H34_3 H 0.6278 0.5772 0.4832
C68_3 C 0.1326(3) 0.5844(4) 0.0892(8)
C69_3 C 0.6653(3) 0.1339(4) 0.0288(7)
C73_3 C 0.0610(3) 0.7926(4) 0.3098(7)
H37_3 H 0.0315 0.7980 0.3268
C75_3 C 0.7546(4) 0.7053(5) 0.7756(12)
H39_3 H 0.7380 0.7213 0.7287
C77_3 C 0.3441(3) 0.8720(4) 0.2550(7)
C79_3 C 0.0717(3) 0.6387(4) 0.1082(8)
H41_3 H 0.0496 0.6591 0.0827
C80_3 C 0.3065(3) 0.5495(4) 0.1142(8)
C81_3 C 0.6858(4) 0.6437(5) 0.5546(8)
C82_3 C 0.5726(3) 0.6123(4) 0.4321(7)
H42_3 H 0.5559 0.5851 0.4142
C83_3 C 0.0905(3) 0.8308(4) 0.3052(8)
H43_3 H 0.0808 0.8617 0.3203
C86_3 C 0.1625(4) 0.5534(4) 0.0268(8)
C87_3 C 0.1096(3) 0.6045(4) 0.2418(8)
H46_3 H 0.1125 0.5997 0.3057
C89_3 C 0.1685(4) 0.8641(5) 0.2715(9)
C91_3 C 0.0986(3) 0.6130(4) 0.0503(8)
C93_3 C 0.7473(5) 0.7783(5) 0.8697(11)
H50_3 H 0.7241 0.7845 0.8227
H51_3 H 0.7717 0.8005 0.8626
H52_3 H 0.7352 0.7823 0.9301
C94_3 C 0.7888(5) 0.7089(6) 0.9354(11)
H53_3 H 0.8203 0.7147 0.9278
H54_3 H 0.7834 0.6747 0.9382
H55_3 H 0.7797 0.7237 0.9920
C98_3 C 0.7701(7) 0.1770(8) 0.4987(15)
H63_3 H 0.7688 0.1423 0.4980
H64_3 H 0.7529 0.1890 0.5489
H65_3 H 0.8009 0.1873 0.5071
C100_3 C 0.7524(7) 0.1625(9) 0.3420(17)
H66_3 H 0.7633 0.1315 0.3544
C101_3 C 0.7359(7) 0.2438(8) 0.4071(14)
H67_3 H 0.7583 0.2634 0.3787
H68_3 H 0.7314 0.2552 0.4690
H69_3 H 0.7080 0.2459 0.3710
N1_3 N 0.5127(2) 0.6661(3) 0.3720(5)
N2_3 N 0.7524(6) 0.1936(7) 0.4137(12)
N3_3 N 0.4959(2) 0.7106(3) 0.3627(5)
N4_3 N 0.4867(2) 0.6312(3) 0.3352(5)
N5_3 N 0.0082(2) 0.6351(3) 0.2932(6)
N7_3 N 0.0047(2) 0.7121(3) 0.3445(5)
N15_3 N 0.7639(3) 0.7286(4) 0.8600(8)
O3_3 O 0.3021(3) 0.5482(3) 0.0287(6)
O6_3 O 0.2021(3) 0.5525(3) 0.0477(6)
O13_3 O 0.6782(2) 0.0923(3) 0.0112(6)
O14_2 O 0.3038(3) 0.8648(3) 0.2371(7)
O15_2 O 0.3628(3) 0.9120(3) 0.2619(7)
O16_3 O 0.6872(2) 0.1623(3) 0.0797(5)
O19_2 O 0.2065(3) 0.8570(3) 0.2574(7)
O20_3 O 0.1534(4) 0.9046(4) 0.2870(10)
O24_3 O 0.7011(3) 0.6034(4) 0.5641(6)
O25_3 O 0.7041(3) 0.6792(4) 0.5893(6)
O26_3 O 0.7670(3) 0.6667(4) 0.7630(6)
O27_3 O 0.7403(3) 0.1726(3) 0.2673(6)
O31_3 O 0.2781(3) 0.5285(3) 0.1653(6)
O35_3 O 0.7491(3) 0.0700(3) 0.1830(6)
Zn3_2 Zn 0.24195(3) 0.49286(3) 0.04901(7)
Zn6 Zn 0.74279(4) 0.13835(5) 0.13902(9)
Zn7 Zn 0.75858(4) 0.63025(5) 0.64189(8)
O36_3 O 0.7627(3) 0.5656(3) 0.7090(5)
Zn8_2 Zn 0.25055(4) 0.90529(4) 0.24172(9)
O37_2 O 0.2900(2) 0.4407(3) 0.0825(5)
O38_2 O 0.1954(2) 0.4560(3) 0.1226(5)
O43_2 O 0.1573(3) 0.4254(3) 0.0016(5)
O44 O 0.7937(3) 0.1181(5) 0.0402(7)
O45 O 0.7970(3) 0.1891(5) 0.0979(7)
O46 O 0.8091(2) 0.6543(3) 0.5737(5)
Zn11_2 Zn 0.33552(4) 0.97785(4) 0.26917(9)
H78_3 H 0.744157 0.0477056 0.129452
H79_3 H 0.779871 0.0649905 0.211155
H80_3 H 0.767051 0.539403 0.663057
H81_3 H 0.788646 0.566076 0.754875
Zn1_2 Zn 0.25055(4) 0.59471(4) 0.74172(9)
O1_3 O 0.2565(4) 0.6006(4) 0.8783(8)
C2_3 C 0.3653(3) 0.3728(3) 0.7982(6)
C3_3 C 0.6109(3) 0.1996(4) 0.9856(6)
C4_3 C 0.4123(3) 0.3720(3) 0.8005(6)
H2_3 H 0.4278 0.4008 0.7926
C6_3 C 0.5363(3) 0.1821(3) 0.9232(6)
C8_3 C 0.3754(3) 0.1972(3) 0.6756(6)
H3_3 H 0.3818 0.2298 0.6670
C12_3 C 0.1321(3) 0.0936(3) 0.6482(7)
C15_3 C 0.4403(3) 0.2421(3) 0.8393(6)
C16_3 C 0.5881(3) 0.1183(4) 0.9612(6)
H4_3 H 0.5946 0.0855 0.9636
C17_3 C 0.3402(3) 0.4187(3) 0.7843(6)
C18_3 C 0.3961(3) 0.1720(3) 0.7495(6)
C19_3 C 0.5464(3) 0.1336(3) 0.9286(6)
H5_3 H 0.5248 0.1109 0.9100
C20_3 C 0.0728(3) 0.1425(3) 0.7609(7)
C22_3 C 0.0415(3) 0.1687(4) 0.8194(7)
C23_3 C 0.3450(3) 0.1737(3) 0.6147(6)
H6_3 H 0.3319 0.1903 0.5643
C24_3 C 0.3522(3) 0.1020(3) 0.7033(6)
H7_3 H 0.3437 0.0702 0.7144
C25_3 C 0.4139(3) 0.2865(3) 0.8251(6)
C27_3 C 0.4361(3) 0.3306(3) 0.8138(6)
H8_3 H 0.4675 0.3315 0.8155
C28_3 C 0.6205(3) 0.1515(4) 0.9904(7)
C29_3 C 0.1533(3) 0.2801(3) 0.8184(6)
H9_3 H 0.1832 0.2717 0.8099
C34_3 C 0.3014(3) 0.0999(3) 0.5631(6)
C38_3 C 0.3831(3) 0.1241(3) 0.7632(6)
H15_3 H 0.3955 0.1069 0.8136
C39_3 C 0.4317(3) 0.1940(3) 0.8096(6)
C40_3 C 0.1069(3) 0.1323(3) 0.6141(7)
H16_3 H 0.1096 0.1417 0.5525
C42_3 C 0.5689(3) 0.2161(4) 0.9515(6)
H17_3 H 0.5627 0.2490 0.9476
C45_3 C 0.3341(3) 0.1257(3) 0.6287(6)
C46_3 C 0.3667(3) 0.2877(3) 0.8230(6)
H19_3 H 0.3508 0.2590 0.8299
C47_3 C 0.1756(3) 0.3673(4) 0.8282(7)
C50_3 C 0.1416(3) 0.3286(3) 0.8290(6)
C51_3 C 0.1202(3) 0.2437(4) 0.8204(6)
H22_3 H 0.1281 0.2117 0.8099
C53_3 C 0.0420(3) 0.2177(4) 0.8479(7)
C55_3 C 0.0960(3) 0.3401(4) 0.8447(6)
H24_3 H 0.0872 0.3721 0.8509
C58_3 C 0.0783(3) 0.1571(4) 0.6684(6)
H27_3 H 0.0624 0.1836 0.6444
C59_3 C 0.3431(3) 0.3310(3) 0.8106(6)
H28_3 H 0.3117 0.3310 0.8109
C60_3 C 0.0650(3) 0.3037(3) 0.8506(6)
H29_3 H 0.0354 0.3115 0.8636
C70_3 C 0.1633(3) 0.0675(4) 0.5866(7)
C71_3 C 0.1261(3) 0.0779(4) 0.7375(6)
H35_3 H 0.1420 0.0511 0.7603
C74_3 C 0.0963(3) 0.1021(3) 0.7941(7)
H38_3 H 0.0922 0.0911 0.8542
H48_3 H 0.0941 0.6149 0.9861
C95_3 C 0.0644(5) 0.5040(6) 0.8585(15)
H56_3 H 0.0804 0.5326 0.8517
H58_3 H 0.0108 0.5738 0.8898
H60_3 H 0.0101 0.4405 0.9032
C99_3 C 0.0762(3) 0.2553(3) 0.8379(6)
N8_3 N 0.4940(2) 0.1977(3) 0.8847(5)
N9_3 N 0.4800(2) 0.2432(3) 0.8849(5)
N10_3 N 0.4662(2) 0.1668(2) 0.8395(5)
N12_3 N 0.0052(2) 0.1476(3) 0.8525(6)
N13_3 N 0.0047(2) 0.2263(3) 0.8956(5)
N14_3 N 0.0193(4) 0.5059(4) 0.8561(12)
O2_3 O 0.2314(2) 0.4733(2) 0.9140(5)
O4_3 O 0.2717(3) 0.5339(3) 0.7868(6)
O5_2 O 0.2900(2) 0.0593(3) 0.5825(5)
O7_3 O 0.3631(2) 0.4558(3) 0.7623(5)
O8_3 O 0.1425(3) 0.5300(3) 0.9641(6)
O9_2 O 0.1954(2) 0.0440(3) 0.6226(5)
O10_3 O 0.0860(3) 0.4653(3) 0.8698(6)
O11_3 O 0.3404(3) 0.5194(3) 0.6197(6)
O12_3 O 0.3606(3) 0.5191(3) 0.9058(6)
O17_3 O 0.2344(3) 0.5700(3) 0.6129(6)
O18_2 O 0.2895(2) 0.1213(3) 0.4903(5)
O21_3 O 0.2163(2) 0.3559(2) 0.8488(5)
O23_3 O 0.1630(2) 0.4092(3) 0.8095(5)
O28_3 O 0.2976(2) 0.4200(2) 0.7881(5)
O29_2 O 0.1573(3) 0.0746(3) 0.5016(5)
O34_3 O 0.1613(3) 0.5054(3) 0.7620(6)
Zn2_2 Zn 0.25517(3) 0.40894(4) 0.88694(7)
Zn4_2 Zn 0.33552(4) 0.52215(4) 0.76917(9)
Zn5_2 Zn 0.15920(4) 0.47147(4) 0.88803(8)
O39_2 O 0.3038(3) 0.6352(3) 0.7371(7)
O40_2 O 0.3628(3) 0.5880(3) 0.7619(7)
O41_2 O 0.2895(2) 0.3787(3) 0.9903(5)
O42_2 O 0.2065(3) 0.6430(3) 0.7574(7)
Zn9_2 Zn 0.25517(3) 0.09106(4) 0.38694(7)
Zn10_2 Zn 0.24195(3) 0.00714(3) 0.54901(7)
Zn12_2 Zn 0.15920(4) 0.02853(4) 0.38803(8)
H70_3 H 0.33013 0.550625 0.592203
H71_3 H 0.372224 0.513456 0.604141
H72_3 H 0.201094 0.567432 0.604541
H73_3 H 0.245969 0.592718 0.566065
H74_3 H 0.345559 0.492471 0.938869
H75_3 H 0.393618 0.51313 0.906638
H76_3 H 0.179605 0.485917 0.719541
H77_3 H 0.130177 0.50891 0.734717
H82_3 H 0.288334 0.594673 0.89924
H83_3 H 0.247471 0.633621 0.8971
C1_3 C 0.8645(3) 0.6355(4) 0.4660(7)
C7_3 C 0.8578(3) 0.1657(5) 0.0090(8)
C13_3 C 0.9440(3) 0.6581(4) 0.3807(7)
C31_3 C 0.9227(3) 0.6936(4) 0.4290(7)
H11_3 H 0.9346 0.7246 0.4342
C35_3 C 0.8820(3) 0.6814(4) 0.4705(7)
H13_3 H 0.8666 0.7052 0.5020
C76_3 C 0.9262(3) 0.6130(4) 0.3750(7)
H40_3 H 0.9409 0.5892 0.3420
C78_3 C 0.8237(3) 0.6227(4) 0.5186(8)
C84_3 C 0.8770(3) 0.2097(5) 0.0097(8)
H44_3 H 0.8623 0.2361 0.0343
C85_3 C 0.8862(3) 0.6015(4) 0.4177(7)
H45_3 H 0.8745 0.5704 0.4129
C90_3 C 0.8135(4) 0.1581(5) 0.0526(9)
N6_3 N 0.9855(2) 0.6684(3) 0.3410(6)
O22_3 O 0.8069(3) 0.5831(3) 0.5112(6)
C2_4 C 0.3653(3) 0.1272(3) 0.2982(6)
C3_4 C 0.6109(3) 0.3004(4) 0.4856(6)
H1_4 H 0.6327 0.2781 0.5053
C4_4 C 0.4123(3) 0.1280(3) 0.3005(6)
H2_4 H 0.4278 0.0992 0.2926
C6_4 C 0.5363(3) 0.3179(3) 0.4232(6)
C8_4 C 0.3754(3) 0.3028(3) 0.1756(6)
H3_4 H 0.3818 0.2702 0.1670
C12_4 C 0.1321(3) 0.4064(3) 0.1482(7)
C15_4 C 0.4403(3) 0.2579(3) 0.3393(6)
C16_4 C 0.5881(3) 0.3817(4) 0.4612(6)
H4_4 H 0.5946 0.4145 0.4636
C17_4 C 0.3402(3) 0.0813(3) 0.2843(6)
C18_4 C 0.3961(3) 0.3280(3) 0.2495(6)
C19_4 C 0.5464(3) 0.3664(3) 0.4286(6)
H5_4 H 0.5248 0.3891 0.4100
C20_4 C 0.0728(3) 0.3575(3) 0.2609(7)
C22_4 C 0.0415(3) 0.3313(4) 0.3194(7)
C23_4 C 0.3450(3) 0.3263(3) 0.1147(6)
H6_4 H 0.3319 0.3097 0.0643
C24_4 C 0.3522(3) 0.3980(3) 0.2033(6)
H7_4 H 0.3437 0.4298 0.2144
C25_4 C 0.4139(3) 0.2135(3) 0.3251(6)
C27_4 C 0.4361(3) 0.1694(3) 0.3138(6)
H8_4 H 0.4675 0.1685 0.3155
C28_4 C 0.6205(3) 0.3485(4) 0.4904(7)
C29_4 C 0.1533(3) 0.2199(3) 0.3184(6)
H9_4 H 0.1832 0.2283 0.3099
C34_4 C 0.3014(3) 0.4001(3) 0.0631(6)
C38_4 C 0.3831(3) 0.3759(3) 0.2632(6)
H15_4 H 0.3955 0.3931 0.3136
C39_4 C 0.4317(3) 0.3060(3) 0.3096(6)
C40_4 C 0.1069(3) 0.3677(3) 0.1141(7)
H16_4 H 0.1096 0.3583 0.0525
C42_4 C 0.5689(3) 0.2839(4) 0.4515(6)
H17_4 H 0.5627 0.2510 0.4476
C45_4 C 0.3341(3) 0.3743(3) 0.1287(6)
C46_4 C 0.3667(3) 0.2123(3) 0.3230(6)
H19_4 H 0.3508 0.2410 0.3299
C47_4 C 0.1756(3) 0.1327(4) 0.3282(7)
C50_4 C 0.1416(3) 0.1714(3) 0.3290(6)
C51_4 C 0.1202(3) 0.2563(4) 0.3204(6)
H22_4 H 0.1281 0.2883 0.3099
C53_4 C 0.0420(3) 0.2823(4) 0.3479(7)
C55_4 C 0.0960(3) 0.1599(4) 0.3447(6)
H24_4 H 0.0872 0.1279 0.3509
C58_4 C 0.0783(3) 0.3429(4) 0.1684(6)
H27_4 H 0.0624 0.3164 0.1444
C59_4 C 0.3431(3) 0.1690(3) 0.3106(6)
H28_4 H 0.3117 0.1690 0.3109
C60_4 C 0.0650(3) 0.1963(3) 0.3506(6)
H29_4 H 0.0354 0.1885 0.3636
C69_4 C 0.6653(3) 0.3661(4) 0.5288(7)
C70_4 C 0.1633(3) 0.4325(4) 0.0866(7)
C71_4 C 0.1261(3) 0.4221(4) 0.2375(6)
H35_4 H 0.1420 0.4489 0.2603
C74_4 C 0.0963(3) 0.3979(3) 0.2941(7)
H38_4 H 0.0922 0.4089 0.3542
H60_4 H 0.0101 0.0595 0.4032
C98_4 C 0.7701(7) 0.3230(8) 0.9987(15)
H63_4 H 0.7688 0.3577 0.9980
C99_4 C 0.0762(3) 0.2447(3) 0.3379(6)
C100_4 C 0.7524(7) 0.3375(9) 0.8420(17)
H66_4 H 0.7633 0.3685 0.8544
C101_4 C 0.7359(7) 0.2562(8) 0.9071(14)
H67_4 H 0.7583 0.2366 0.8787
H68_4 H 0.7314 0.2448 0.9690
H69_4 H 0.7080 0.2541 0.8710
N2_4 N 0.7524(6) 0.3064(7) 0.9137(12)
N8_4 N 0.4940(2) 0.3023(3) 0.3847(5)
N9_4 N 0.4800(2) 0.2568(3) 0.3849(5)
N10_4 N 0.4662(2) 0.3332(2) 0.3395(5)
N12_4 N 0.0052(2) 0.3524(3) 0.3525(6)
N13_4 N 0.0047(2) 0.2737(3) 0.3956(5)
O2_4 O 0.2314(2) 0.0267(2) 0.4140(5)
O7_4 O 0.3631(2) 0.0442(3) 0.2623(5)
O10_4 O 0.0860(3) 0.0347(3) 0.3698(6)
O13_4 O 0.6782(2) 0.4077(3) 0.5112(6)
O16_4 O 0.6872(2) 0.3377(3) 0.5797(5)
O21_4 O 0.2163(2) 0.1441(2) 0.3488(5)
O23_4 O 0.1630(2) 0.0908(3) 0.3095(5)
O27_4 O 0.7403(3) 0.3274(3) 0.7673(6)
O28_4 O 0.2976(2) 0.0800(2) 0.2881(5)
O35_4 O 0.7491(3) 0.4300(3) 0.6830(6)
Zn6_2 Zn 0.74279(4) 0.36165(5) 0.63902(9)
O44_2 O 0.7937(3) 0.3819(5) 0.5402(7)
O45_2 O 0.7970(3) 0.3109(5) 0.5979(7)
H74_4 H 0.345559 0.00752883 0.438869
H76_4 H 0.179605 0.0140833 0.219541
H78_4 H 0.744157 0.452294 0.629452
H79_4 H 0.779871 0.43501 0.711155
O1_4 O 0.2565(4) 0.8994(4) 0.3783(8)
C5_4 C 0.4268(3) 0.7537(4) 0.7979(7)
C9_4 C 0.4570(3) 0.7958(4) 0.8169(7)
C10_4 C 0.5556(3) 0.8417(4) 0.9176(7)
C14_4 C 0.4508(3) 0.8450(4) 0.7974(7)
C26_4 C 0.4140(3) 0.8722(4) 0.7484(7)
C30_4 C 0.3953(3) 0.9122(4) 0.7904(7)
H10_4 H 0.4067 0.9221 0.8485
C32_4 C 0.3802(3) 0.7581(4) 0.7867(7)
H12_4 H 0.3666 0.7884 0.7882
C33_4 C 0.1341(3) 0.6760(4) 0.7783(8)
C36_4 C 0.4196(3) 0.6678(4) 0.7842(7)
H14_4 H 0.4328 0.6373 0.7833
C37_4 C 0.0424(3) 0.7931(4) 0.7983(8)
C41_4 C 0.0440(3) 0.8407(4) 0.7653(8)
C43_4 C 0.6226(3) 0.8072(4) 0.9893(7)
C44_4 C 0.3449(3) 0.9232(4) 0.6593(7)
C48_4 C 0.5805(3) 0.8015(4) 0.9456(7)
H20_4 H 0.5689 0.7706 0.9351
C49_4 C 0.4459(3) 0.7076(4) 0.7988(7)
H21_4 H 0.4769 0.7040 0.8094
C52_4 C 0.3600(3) 0.9376(4) 0.7474(7)
H23_4 H 0.3468 0.9636 0.7769
C54_4 C 0.0745(3) 0.7527(4) 0.7898(8)
C56_4 C 0.3539(3) 0.7166(4) 0.7731(7)
H25_4 H 0.3227 0.7192 0.7656
C57_4 C 0.1479(4) 0.7211(4) 0.7590(8)
H26_4 H 0.1776 0.7263 0.7434
C61_4 C 0.3988(3) 0.8583(4) 0.6636(7)
H30_4 H 0.4110 0.8311 0.6360
C62_4 C 0.3740(3) 0.6722(4) 0.7708(7)
C63_4 C 0.1184(3) 0.7604(4) 0.7621(7)
H31_4 H 0.1279 0.7911 0.7459
C64_4 C 0.1384(3) 0.9185(4) 0.6823(8)
H32_4 H 0.1624 0.9365 0.7075
C65_4 C 0.0770(3) 0.8656(4) 0.7050(8)
C66_4 C 0.3641(3) 0.8850(4) 0.6155(7)
H33_4 H 0.3547 0.8767 0.5551
C67_4 C 0.6154(3) 0.8922(4) 0.9743(7)
H34_4 H 0.6278 0.9228 0.9832
C68_4 C 0.1326(3) 0.9156(4) 0.5892(8)
C73_4 C 0.0610(3) 0.7074(4) 0.8098(7)
H37_4 H 0.0315 0.7020 0.8268
C77_4 C 0.3441(3) 0.6280(4) 0.7550(7)
C79_4 C 0.0717(3) 0.8613(4) 0.6082(8)
H41_4 H 0.0496 0.8409 0.5827
C80_4 C 0.3065(3) 0.9505(4) 0.6142(8)
C82_4 C 0.5726(3) 0.8877(4) 0.9321(7)
H42_4 H 0.5559 0.9149 0.9142
C83_4 C 0.0905(3) 0.6692(4) 0.8052(8)
H43_4 H 0.0808 0.6383 0.8203
C86_4 C 0.1625(4) 0.9466(4) 0.5268(8)
C87_4 C 0.1096(3) 0.8955(4) 0.7418(8)
H46_4 H 0.1125 0.9003 0.8057
C89_4 C 0.1685(4) 0.6359(5) 0.7715(9)
C91_4 C 0.0986(3) 0.8870(4) 0.5503(8)
H48_4 H 0.0941 0.8851 0.4861
C95_4 C 0.0644(5) 0.9960(6) 0.3585(15)
H56_4 H 0.0804 0.9674 0.3517
H58_4 H 0.0108 0.9262 0.3898
N1_4 N 0.5127(2) 0.8339(3) 0.8720(5)
N3_4 N 0.4959(2) 0.7894(3) 0.8627(5)
N4_4 N 0.4867(2) 0.8688(3) 0.8352(5)
N5_4 N 0.0082(2) 0.8649(3) 0.7932(6)
N7_4 N 0.0047(2) 0.7879(3) 0.8445(5)
N14_4 N 0.0193(4) 0.9941(4) 0.3561(12)
O3_4 O 0.3021(3) 0.9518(3) 0.5287(6)
O4_4 O 0.2717(3) 0.9661(3) 0.2868(6)
O6_4 O 0.2021(3) 0.9475(3) 0.5477(6)
O8_4 O 0.1425(3) 0.9700(3) 0.4641(6)
O11_4 O 0.3404(3) 0.9806(3) 0.1197(6)
O12_4 O 0.3606(3) 0.9809(3) 0.4058(6)
O17_4 O 0.2344(3) 0.9300(3) 0.1129(6)
O20_4 O 0.1534(4) 0.5954(4) 0.7870(10)
O31_4 O 0.2781(3) 0.9715(3) 0.6653(6)
O34_4 O 0.1613(3) 0.9946(3) 0.2620(6)
H70_4 H 0.33013 0.949375 0.0922035
H71_4 H 0.372224 0.986544 0.104141
H72_4 H 0.201094 0.932568 0.104541
H73_4 H 0.245969 0.907282 0.0660645
H75_4 H 0.393618 0.98687 0.406638
H77_4 H 0.130177 0.99109 0.234717
H82_4 H 0.288334 0.905327 0.39924
H83_4 H 0.247471 0.866379 0.3971
C7_4 C 0.8578(3) 0.3343(5) 0.5090(8)
C11_2 C 0.9419(3) 0.3233(4) 0.4363(7)
C72_2 C 0.9200(3) 0.2849(5) 0.4723(8)
H36_2 H 0.9336 0.2546 0.4724
C84_4 C 0.8770(3) 0.2903(5) 0.5097(8)
H44_4 H 0.8623 0.2639 0.5343
C88_2 C 0.9227(3) 0.3691(4) 0.4349(8)
H47_2 H 0.9378 0.3956 0.4115
C90_4 C 0.8135(4) 0.3419(5) 0.5526(9)
C92_2 C 0.8796(3) 0.3739(5) 0.4704(8)
H49_2 H 0.8652 0.4038 0.4683
C97_2 C 0.9935(6) 0.0367(6) 0.3650(16)
H61_2 H 0.9872 0.0504 0.3046
H62_2 H 0.9657 0.0290 0.3934
N11_2 N 0.9842(2) 0.3168(3) 0.3956(5)
C11_3 C 0.9419(3) 0.1767(4) 0.9363(7)
C72_3 C 0.9200(3) 0.2151(5) 0.9723(8)
H36_3 H 0.9336 0.2454 0.9724
C88_3 C 0.9227(3) 0.1309(4) 0.9349(8)
H47_3 H 0.9378 0.1044 0.9115
C92_3 C 0.8796(3) 0.1261(5) 0.9704(8)
H49_3 H 0.8652 0.0962 0.9683
C96_2 C 0.9965(5) 0.5509(6) 0.8483(15)
H57_2 H 0.9975 0.5624 0.7855
H59_2 H 0.9656 0.5467 0.8642
C97_3 C 0.9935(6) 0.4633(6) 0.8650(16)
H61_3 H 0.9872 0.4496 0.8046
H62_3 H 0.9657 0.4710 0.8934
N11_3 N 0.9842(2) 0.1832(3) 0.8956(5)
H64_4 H 0.7529 0.3110 0.0489
H65_4 H 0.8009 0.3127 0.0071
C21_4 C 0.6399(3) 0.8526(4) 0.0029(7)
H18_4 H 0.6390 0.7803 0.0094
C75_4 C 0.7546(4) 0.7947(5) 0.2756(12)
H39_4 H 0.7380 0.7787 0.2287
C81_4 C 0.6858(4) 0.8563(5) 0.0546(8)
C93_4 C 0.7473(5) 0.7217(5) 0.3697(11)
H50_4 H 0.7241 0.7155 0.3227
H51_4 H 0.7717 0.6995 0.3626
H52_4 H 0.7352 0.7177 0.4301
C94_4 C 0.7888(5) 0.7911(6) 0.4354(11)
H53_4 H 0.8203 0.7853 0.4278
H54_4 H 0.7834 0.8253 0.4382
H55_4 H 0.7797 0.7763 0.4920
N15_4 N 0.7639(3) 0.7714(4) 0.3600(8)
O24_4 O 0.7011(3) 0.8966(4) 0.0641(6)
O25_4 O 0.7041(3) 0.8208(4) 0.0893(6)
O26_4 O 0.7670(3) 0.8333(4) 0.2630(6)
Zn7_2 Zn 0.75858(4) 0.86975(5) 0.14189(8)
O36_4 O 0.7627(3) 0.9344(3) 0.2090(5)
O46_2 O 0.8091(2) 0.8457(3) 0.0737(5)
H80_4 H 0.767051 0.960597 0.163057
H81_4 H 0.788646 0.933924 0.254875
H13_4 H 0.8666 0.7948 0.0020
C78_4 C 0.8237(3) 0.8773(4) 0.0186(8)
O22_4 O 0.8069(3) 0.9169(3) 0.0112(6)
C1_4 C 0.8645(3) 0.8645(4) 0.9660(7)
C13_4 C 0.9440(3) 0.8419(4) 0.8807(7)
C31_4 C 0.9227(3) 0.8064(4) 0.9290(7)
H11_4 H 0.9346 0.7754 0.9342
C35_4 C 0.8820(3) 0.8186(4) 0.9705(7)
C76_4 C 0.9262(3) 0.8870(4) 0.8750(7)
H40_4 H 0.9409 0.9108 0.8420
C85_4 C 0.8862(3) 0.8985(4) 0.9177(7)
H45_4 H 0.8745 0.9296 0.9129
C96_3 C 0.9965(5) 0.9491(6) 0.3483(15)
H57_3 H 0.9975 0.9376 0.2855
H59_3 H 0.9656 0.9533 0.3642
N6_4 N 0.9855(2) 0.8316(3) 0.8410(6)
C11_4 C 0.0581(3) 0.8233(4) 0.0637(7)
C72_4 C 0.0800(3) 0.7849(5) 0.0277(8)
H36_4 H 0.0664 0.7546 0.0276
C88_4 C 0.0773(3) 0.8691(4) 0.0651(8)
H47_4 H 0.0622 0.8956 0.0885
C92_4 C 0.1204(3) 0.8739(5) 0.0296(8)
H49_4 H 0.1348 0.9038 0.0317
C96_4 C 0.0035(5) 0.4491(6) 0.1517(15)
H57_4 H 0.0025 0.4376 0.2145
H59_4 H 0.0344 0.4533 0.1358
C97_4 C 0.0065(6) 0.5367(6) 0.1350(16)
H61_4 H 0.0128 0.5504 0.1954
H62_4 H 0.0343 0.5290 0.1066
N11_4 N 0.0158(2) 0.8168(3) 0.1044(5)
loop_
_geom_bond_atom_site_label_1
_geom_bond_atom_site_label_2
_geom_bond_site_symmetry_1
_geom_bond_site_symmetry_2
C1 C35 1_555 1_555
C13 C31 1_555 1_555
C31 H11 1_555 1_555
C35 C31 1_555 1_555
C76 C13 1_555 1_555
H40 C76 1_555 1_555
C85 C1 1_555 1_555
H45 C85 1_555 1_555
C96 H57 1_555 1_555
H59 C96 1_555 1_555
N6 C13 1_555 1_555
C76 C85 1_555 1_555
O22 C78 1_555 1_555
O33 C78 1_555 1_555
Zn14 O33 1_555 1_555
C75 H39 1_555 1_555
C81 C21 1_555 1_555
C93 H50 1_555 1_555
H51 C93 1_555 1_555
H52 C93 1_555 1_555
C94 H53 1_555 1_555
H54 C94 1_555 1_555
H55 C94 1_555 1_555
N15 C75 1_555 1_555
O24 C81 1_555 1_555
O25 C81 1_555 1_555
O26 C75 1_555 1_555
Zn14 O24 1_555 1_555
O36 Zn14 1_555 1_555
C93 N15 1_555 1_555
C94 N15 1_555 1_555
O25 Zn14 1_555 1_555
O26 Zn14 1_555 1_555
O36 H80 1_555 1_555
O36 H81 1_555 1_555
C7 C84 1_555 1_555
C11 C72 1_555 1_555
C72 H36 1_555 1_555
C84 C72 1_555 1_555
H44 C84 1_555 1_555
C88 C11 1_555 1_555
H47 C88 1_555 1_555
C90 C7 1_555 1_555
C92 C7 1_555 1_555
H49 C92 1_555 1_555
H61 C97 1_555 1_555
H62 C97 1_555 1_555
N11 C11 1_555 1_555
O30 C90 1_555 1_555
O32 C90 1_555 1_555
Zn13 O30 1_555 1_555
C88 C92 1_555 1_555
O32 Zn13 1_555 1_555
Zn1 O1 1_555 1_555
C5 C9 1_555 1_555
C9 C14 1_555 1_555
C10 C48 1_555 1_555
C14 C26 1_555 1_555
C26 C30 1_555 1_555
C30 H10 1_555 1_555
C32 C5 1_555 1_555
H12 C32 1_555 1_555
C33 C57 1_555 1_555
C36 H14 1_555 1_555
C37 C41 1_555 1_555
C41 C65 1_555 1_555
C44 C52 1_555 1_555
C48 C43 1_555 1_555
H20 C48 1_555 1_555
C49 C5 1_555 1_555
H21 C49 1_555 1_555
C52 C30 1_555 1_555
H23 C52 1_555 1_555
C54 C37 1_555 1_555
C56 C32 1_555 1_555
H25 C56 1_555 1_555
C57 H26 1_555 1_555
C61 C26 1_555 1_555
H30 C61 1_555 1_555
C62 C36 1_555 1_555
C63 C54 1_555 1_555
H31 C63 1_555 1_555
C64 H32 1_555 1_555
C65 C79 1_555 1_555
C66 C44 1_555 1_555
H33 C66 1_555 1_555
H34 C67 1_555 1_555
C68 C64 1_555 1_555
C73 C54 1_555 1_555
H37 C73 1_555 1_555
C77 C62 1_555 1_555
C79 H41 1_555 1_555
C80 C44 1_555 1_555
C82 C10 1_555 1_555
H42 C82 1_555 1_555
C83 C33 1_555 1_555
H43 C83 1_555 1_555
C86 C68 1_555 1_555
C87 C64 1_555 1_555
H46 C87 1_555 1_555
C89 C33 1_555 1_555
C91 C68 1_555 1_555
H48 C91 1_555 1_555
C95 H56 1_555 1_555
N1 C10 1_555 1_555
N3 C9 1_555 1_555
N4 C14 1_555 1_555
N5 C41 1_555 1_555
N7 C37 1_555 1_555
N14 C95 1_555 1_555
O3 C80 1_555 1_555
O4 Zn1 1_555 1_555
O6 C86 1_555 1_555
O8 C86 1_555 1_555
O11 Zn4 1_555 1_555
O12 Zn4 1_555 1_555
O14 C77 1_555 1_555
O15 C77 1_555 1_555
O17 Zn1 1_555 1_555
O19 C89 1_555 1_555
O20 C89 1_555 1_555
O31 C80 1_555 1_555
Zn4 O4 1_555 1_555
Zn8 O14 1_555 1_555
O39 Zn1 1_555 1_555
O40 Zn4 1_555 1_555
O42 Zn1 1_555 1_555
Zn11 O15 1_555 1_555
C36 C49 1_555 1_555
C56 C62 1_555 1_555
C57 C63 1_555 1_555
C61 C66 1_555 1_555
C65 C87 1_555 1_555
C67 C82 1_555 1_555
C73 C83 1_555 1_555
C79 C91 1_555 1_555
N1 N3 1_555 1_555
N1 N4 1_555 1_555
O19 Zn8 1_555 1_555
O11 H70 1_555 1_555
O11 H71 1_555 1_555
O17 H72 1_555 1_555
O17 H73 1_555 1_555
O12 H75 1_555 1_555
O34 H77 1_555 1_555
O1 H82 1_555 1_555
O1 H83 1_555 1_555
Zn9 O18 1_555 1_555
C2 C4 1_555 1_555
C3 H1 1_555 1_555
C4 H2 1_555 1_555
C6 C19 1_555 1_555
C8 H3 1_555 1_555
C12 C40 1_555 1_555
C15 C25 1_555 1_555
C16 H4 1_555 1_555
C17 C2 1_555 1_555
C18 C8 1_555 1_555
C19 C16 1_555 1_555
H5 C19 1_555 1_555
C20 C22 1_555 1_555
C22 C53 1_555 1_555
C23 C8 1_555 1_555
H6 C23 1_555 1_555
C24 H7 1_555 1_555
C25 C27 1_555 1_555
C27 C4 1_555 1_555
H8 C27 1_555 1_555
C28 C3 1_555 1_555
C29 H9 1_555 1_555
C34 C45 1_555 1_555
C38 C18 1_555 1_555
H15 C38 1_555 1_555
C39 C15 1_555 1_555
C40 H16 1_555 1_555
C42 C3 1_555 1_555
H17 C42 1_555 1_555
C45 C23 1_555 1_555
C46 C25 1_555 1_555
H19 C46 1_555 1_555
C47 C50 1_555 1_555
C50 C29 1_555 1_555
C51 C29 1_555 1_555
H22 C51 1_555 1_555
C53 C99 1_555 1_555
C55 C50 1_555 1_555
H24 C55 1_555 1_555
C58 C20 1_555 1_555
H27 C58 1_555 1_555
C59 C2 1_555 1_555
H28 C59 1_555 1_555
C60 C55 1_555 1_555
H29 C60 1_555 1_555
C69 C28 1_555 1_555
C70 C12 1_555 1_555
C71 C12 1_555 1_555
H35 C71 1_555 1_555
C74 C20 1_555 1_555
H38 C74 1_555 1_555
C98 H63 1_555 1_555
C99 C51 1_555 1_555
C100 H66 1_555 1_555
C101 H67 1_555 1_555
H68 C101 1_555 1_555
H69 C101 1_555 1_555
N2 C98 1_555 1_555
N8 C6 1_555 1_555
N9 C15 1_555 1_555
N10 C39 1_555 1_555
N12 C22 1_555 1_555
N13 C53 1_555 1_555
O2 Zn2 1_555 1_555
O5 C34 1_555 1_555
O7 C17 1_555 1_555
O9 C70 1_555 1_555
O13 C69 1_555 1_555
O16 C69 1_555 1_555
O21 C47 1_555 1_555
O23 C47 1_555 1_555
O27 C100 1_555 1_555
O28 C17 1_555 1_555
O29 C70 1_555 1_555
O35 Zn13 1_555 1_555
Zn2 O21 1_555 1_555
Zn3 O2 1_555 1_555
Zn5 O2 1_555 1_555
Zn13 O16 1_555 1_555
O37 Zn3 1_555 1_555
O38 Zn3 1_555 1_555
O41 Zn2 1_555 1_555
O43 Zn5 1_555 1_555
Zn10 O5 1_555 1_555
C6 C42 1_555 1_555
C16 C28 1_555 1_555
C18 C39 1_555 1_555
C24 C38 1_555 1_555
C24 C45 1_555 1_555
C40 C58 1_555 1_555
C46 C59 1_555 1_555
C60 C99 1_555 1_555
C71 C74 1_555 1_555
C100 N2 1_555 1_555
C101 N2 1_555 1_555
N8 N9 1_555 1_555
N8 N10 1_555 1_555
O9 Zn10 1_555 1_555
O10 Zn5 1_555 1_555
O23 Zn5 1_555 1_555
O27 Zn13 1_555 1_555
O28 Zn2 1_555 1_555
O35 H78 1_555 1_555
O35 H79 1_555 1_555
C1_2 C35_2 1_555 1_555
C7_2 C84_2 1_555 1_555
C13_2 C31_2 1_555 1_555
C31_2 H11_2 1_555 1_555
C35_2 C31_2 1_555 1_555
H13_2 C35_2 1_555 1_555
C76_2 C13_2 1_555 1_555
H40_2 C76_2 1_555 1_555
C78_2 C1_2 1_555 1_555
H44_2 C84_2 1_555 1_555
C85_2 C1_2 1_555 1_555
H45_2 C85_2 1_555 1_555
C90_2 C7_2 1_555 1_555
N6_2 C13_2 1_555 1_555
O22_2 C78_2 1_555 1_555
O30_2 C90_2 1_555 1_555
O32_2 C90_2 1_555 1_555
O33_2 C78_2 1_555 1_555
Zn13_2 O30_2 1_555 1_555
Zn14_2 O33_2 1_555 1_555
C76_2 C85_2 1_555 1_555
O32_2 Zn13_2 1_555 1_555
Zn8 O1_2 1_555 1_555
C2_2 C4_2 1_555 1_555
C4_2 H2_2 1_555 1_555
C6_2 C19_2 1_555 1_555
C8_2 H3_2 1_555 1_555
C12_2 C40_2 1_555 1_555
C15_2 C25_2 1_555 1_555
C16_2 H4_2 1_555 1_555
C17_2 C2_2 1_555 1_555
C18_2 C8_2 1_555 1_555
C19_2 C16_2 1_555 1_555
H5_2 C19_2 1_555 1_555
C20_2 C22_2 1_555 1_555
C22_2 C53_2 1_555 1_555
C23_2 C8_2 1_555 1_555
H6_2 C23_2 1_555 1_555
C24_2 H7_2 1_555 1_555
C25_2 C27_2 1_555 1_555
C27_2 C4_2 1_555 1_555
H8_2 C27_2 1_555 1_555
C28_2 C3_2 1_555 1_555
C29_2 H9_2 1_555 1_555
C34_2 C45_2 1_555 1_555
C38_2 C18_2 1_555 1_555
H15_2 C38_2 1_555 1_555
C39_2 C15_2 1_555 1_555
C40_2 H16_2 1_555 1_555
C42_2 C3_2 1_555 1_555
H17_2 C42_2 1_555 1_555
C45_2 C23_2 1_555 1_555
C46_2 C25_2 1_555 1_555
H19_2 C46_2 1_555 1_555
C47_2 C50_2 1_555 1_555
C50_2 C29_2 1_555 1_555
C51_2 C29_2 1_555 1_555
H22_2 C51_2 1_555 1_555
C53_2 C99_2 1_555 1_555
C55_2 C50_2 1_555 1_555
H24_2 C55_2 1_555 1_555
C58_2 C20_2 1_555 1_555
H27_2 C58_2 1_555 1_555
C59_2 C2_2 1_555 1_555
H28_2 C59_2 1_555 1_555
C60_2 C55_2 1_555 1_555
H29_2 C60_2 1_555 1_555
C70_2 C12_2 1_555 1_555
C71_2 C12_2 1_555 1_555
H35_2 C71_2 1_555 1_555
C74_2 C20_2 1_555 1_555
H38_2 C74_2 1_555 1_555
C95_2 H56_2 1_555 1_555
C99_2 C51_2 1_555 1_555
N8_2 C6_2 1_555 1_555
N9_2 C15_2 1_555 1_555
N10_2 C39_2 1_555 1_555
N12_2 C22_2 1_555 1_555
N13_2 C53_2 1_555 1_555
N14_2 C95_2 1_555 1_555
O2_2 Zn9 1_555 1_555
O4_2 Zn8 1_555 1_555
O37 C34_2 1_555 1_555
O7_2 C17_2 1_555 1_555
O38 C70_2 1_555 1_555
O10_2 C95_2 1_555 1_555
O11_2 Zn11 1_555 1_555
O12_2 Zn11 1_555 1_555
O17_2 Zn8 1_555 1_555
O41 C34_2 1_555 1_555
O21_2 C47_2 1_555 1_555
O23_2 C47_2 1_555 1_555
O28_2 C17_2 1_555 1_555
O43 C70_2 1_555 1_555
O34_2 Zn12 1_555 1_555
Zn9 O21_2 1_555 1_555
Zn11 O4_2 1_555 1_555
Zn12 O2_2 1_555 1_555
C6_2 C42_2 1_555 1_555
C16_2 C28_2 1_555 1_555
C18_2 C39_2 1_555 1_555
C24_2 C38_2 1_555 1_555
C24_2 C45_2 1_555 1_555
C40_2 C58_2 1_555 1_555
C46_2 C59_2 1_555 1_555
C60_2 C99_2 1_555 1_555
C71_2 C74_2 1_555 1_555
N8_2 N9_2 1_555 1_555
N8_2 N10_2 1_555 1_555
O7_2 Zn11 1_555 1_555
O8_2 Zn12 1_555 1_555
O10_2 Zn12 1_555 1_555
O23_2 Zn12 1_555 1_555
O28_2 Zn9 1_555 1_555
O11_2 H70_2 1_555 1_555
O11_2 H71_2 1_555 1_555
O17_2 H72_2 1_555 1_555
O17_2 H73_2 1_555 1_555
O12_2 H74_2 1_555 1_555
O12_2 H75_2 1_555 1_555
O34_2 H76_2 1_555 1_555
O34_2 H77_2 1_555 1_555
O1_2 H82_2 1_555 1_555
O1_2 H83_2 1_555 1_555
C5_2 C9_2 1_555 1_555
C9_2 C14_2 1_555 1_555
C10_2 C48_2 1_555 1_555
C14_2 C26_2 1_555 1_555
C21_2 C43_2 1_555 1_555
C26_2 C30_2 1_555 1_555
C30_2 H10_2 1_555 1_555
C32_2 C5_2 1_555 1_555
H12_2 C32_2 1_555 1_555
C33_2 C57_2 1_555 1_555
C36_2 H14_2 1_555 1_555
C37_2 C41_2 1_555 1_555
C41_2 C65_2 1_555 1_555
C43_2 H18_2 1_555 1_555
C44_2 C52_2 1_555 1_555
C48_2 C43_2 1_555 1_555
H20_2 C48_2 1_555 1_555
C49_2 C5_2 1_555 1_555
H21_2 C49_2 1_555 1_555
C52_2 C30_2 1_555 1_555
H23_2 C52_2 1_555 1_555
C54_2 C37_2 1_555 1_555
C56_2 C32_2 1_555 1_555
H25_2 C56_2 1_555 1_555
C57_2 H26_2 1_555 1_555
C61_2 C26_2 1_555 1_555
H30_2 C61_2 1_555 1_555
C62_2 C36_2 1_555 1_555
C63_2 C54_2 1_555 1_555
H31_2 C63_2 1_555 1_555
C64_2 H32_2 1_555 1_555
C65_2 C79_2 1_555 1_555
C66_2 C44_2 1_555 1_555
H33_2 C66_2 1_555 1_555
C67_2 C21_2 1_555 1_555
H34_2 C67_2 1_555 1_555
C68_2 C64_2 1_555 1_555
C73_2 C54_2 1_555 1_555
H37_2 C73_2 1_555 1_555
C75_2 H39_2 1_555 1_555
C77_2 C62_2 1_555 1_555
C79_2 H41_2 1_555 1_555
C80_2 C44_2 1_555 1_555
C81_2 C21_2 1_555 1_555
C82_2 C10_2 1_555 1_555
H42_2 C82_2 1_555 1_555
C83_2 C33_2 1_555 1_555
H43_2 C83_2 1_555 1_555
C86_2 C68_2 1_555 1_555
C87_2 C64_2 1_555 1_555
H46_2 C87_2 1_555 1_555
C89_2 C33_2 1_555 1_555
C91_2 C68_2 1_555 1_555
C93_2 H50_2 1_555 1_555
H51_2 C93_2 1_555 1_555
H52_2 C93_2 1_555 1_555
C94_2 H53_2 1_555 1_555
H54_2 C94_2 1_555 1_555
H55_2 C94_2 1_555 1_555
C98_2 H63_2 1_555 1_555
H64 C98_2 1_555 1_555
H65 C98_2 1_555 1_555
C100_2 H66_2 1_555 1_555
C101_2 H67_2 1_555 1_555
H68_2 C101_2 1_555 1_555
H69_2 C101_2 1_555 1_555
N1_2 C10_2 1_555 1_555
N2_2 C98_2 1_555 1_555
N3_2 C9_2 1_555 1_555
N4_2 C14_2 1_555 1_555
N5_2 C41_2 1_555 1_555
N7_2 C37_2 1_555 1_555
N15_2 C75_2 1_555 1_555
O3_2 C80_2 1_555 1_555
O6_2 C86_2 1_555 1_555
O13_2 C69_2 1_555 1_555
O39 C77_2 1_555 1_555
O40 C77_2 1_555 1_555
O16_2 C69_2 1_555 1_555
O42 C89_2 1_555 1_555
O20_2 C89_2 1_555 1_555
O24_2 C81_2 1_555 1_555
O25_2 C81_2 1_555 1_555
O26_2 C75_2 1_555 1_555
O27_2 C100_2 1_555 1_555
O31_2 C80_2 1_555 1_555
O35_2 Zn13_2 1_555 1_555
Zn13_2 O16_2 1_555 1_555
Zn14_2 O24_2 1_555 1_555
O36_2 Zn14_2 1_555 1_555
C36_2 C49_2 1_555 1_555
C56_2 C62_2 1_555 1_555
C57_2 C63_2 1_555 1_555
C61_2 C66_2 1_555 1_555
C65_2 C87_2 1_555 1_555
C67_2 C82_2 1_555 1_555
C73_2 C83_2 1_555 1_555
C79_2 C91_2 1_555 1_555
C93_2 N15_2 1_555 1_555
C94_2 N15_2 1_555 1_555
C100_2 N2_2 1_555 1_555
C101_2 N2_2 1_555 1_555
N1_2 N3_2 1_555 1_555
N1_2 N4_2 1_555 1_555
O3_2 Zn10 1_555 1_555
O6_2 Zn10 1_555 1_555
O25_2 Zn14_2 1_555 1_555
O26_2 Zn14_2 1_555 1_555
O27_2 Zn13_2 1_555 1_555
O31_2 Zn10 1_555 1_555
O35_2 H78_2 1_555 1_555
O35_2 H79_2 1_555 1_555
O36_2 H80_2 1_555 1_555
O36_2 H81_2 1_555 1_555
C5_3 C9_3 1_555 1_555
C9_3 C14_3 1_555 1_555
C10_3 C48_3 1_555 1_555
C14_3 C26_3 1_555 1_555
C21_3 C43_3 1_555 1_555
C26_3 C30_3 1_555 1_555
C30_3 H10_3 1_555 1_555
C32_3 C5_3 1_555 1_555
H12_3 C32_3 1_555 1_555
C33_3 C57_3 1_555 1_555
C36_3 H14_3 1_555 1_555
C37_3 C41_3 1_555 1_555
C41_3 C65_3 1_555 1_555
C43_3 H18_3 1_555 1_555
C44_3 C52_3 1_555 1_555
C48_3 C43_3 1_555 1_555
H20_3 C48_3 1_555 1_555
C49_3 C5_3 1_555 1_555
H21_3 C49_3 1_555 1_555
C52_3 C30_3 1_555 1_555
H23_3 C52_3 1_555 1_555
C54_3 C37_3 1_555 1_555
C56_3 C32_3 1_555 1_555
H25_3 C56_3 1_555 1_555
C57_3 H26_3 1_555 1_555
C61_3 C26_3 1_555 1_555
H30_3 C61_3 1_555 1_555
C62_3 C36_3 1_555 1_555
C63_3 C54_3 1_555 1_555
H31_3 C63_3 1_555 1_555
C64_3 H32_3 1_555 1_555
C65_3 C79_3 1_555 1_555
C66_3 C44_3 1_555 1_555
H33_3 C66_3 1_555 1_555
C67_3 C21_3 1_555 1_555
H34_3 C67_3 1_555 1_555
C68_3 C64_3 1_555 1_555
C73_3 C54_3 1_555 1_555
H37_3 C73_3 1_555 1_555
C75_3 H39_3 1_555 1_555
C77_3 C62_3 1_555 1_555
C79_3 H41_3 1_555 1_555
C80_3 C44_3 1_555 1_555
C81_3 C21_3 1_555 1_555
C82_3 C10_3 1_555 1_555
H42_3 C82_3 1_555 1_555
C83_3 C33_3 1_555 1_555
H43_3 C83_3 1_555 1_555
C86_3 C68_3 1_555 1_555
C87_3 C64_3 1_555 1_555
H46_3 C87_3 1_555 1_555
C89_3 C33_3 1_555 1_555
C91_3 C68_3 1_555 1_555
C93_3 H50_3 1_555 1_555
H51_3 C93_3 1_555 1_555
H52_3 C93_3 1_555 1_555
C94_3 H53_3 1_555 1_555
H54_3 C94_3 1_555 1_555
H55_3 C94_3 1_555 1_555
C98_3 H63_3 1_555 1_555
H64_3 C98_3 1_555 1_555
H65_3 C98_3 1_555 1_555
C100_3 H66_3 1_555 1_555
C101_3 H67_3 1_555 1_555
H68_3 C101_3 1_555 1_555
H69_3 C101_3 1_555 1_555
N1_3 C10_3 1_555 1_555
N2_3 C98_3 1_555 1_555
N3_3 C9_3 1_555 1_555
N4_3 C14_3 1_555 1_555
N5_3 C41_3 1_555 1_555
N7_3 C37_3 1_555 1_555
N15_3 C75_3 1_555 1_555
O3_3 C80_3 1_555 1_555
O6_3 C86_3 1_555 1_555
O13_3 C69_3 1_555 1_555
O14_2 C77_3 1_555 1_555
O15_2 C77_3 1_555 1_555
O16_3 C69_3 1_555 1_555
O19_2 C89_3 1_555 1_555
O20_3 C89_3 1_555 1_555
O24_3 C81_3 1_555 1_555
O25_3 C81_3 1_555 1_555
O26_3 C75_3 1_555 1_555
O27_3 C100_3 1_555 1_555
O31_3 C80_3 1_555 1_555
O35_3 Zn6 1_555 1_555
Zn6 O16_3 1_555 1_555
Zn7 O24_3 1_555 1_555
O36_3 Zn7 1_555 1_555
Zn8_2 O14_2 1_555 1_555
O37_2 Zn3_2 1_555 1_555
O38_2 Zn3_2 1_555 1_555
O44 Zn6 1_555 1_555
O45 Zn6 1_555 1_555
O46 Zn7 1_555 1_555
Zn11_2 O15_2 1_555 1_555
C36_3 C49_3 1_555 1_555
C56_3 C62_3 1_555 1_555
C57_3 C63_3 1_555 1_555
C61_3 C66_3 1_555 1_555
C65_3 C87_3 1_555 1_555
C67_3 C82_3 1_555 1_555
C73_3 C83_3 1_555 1_555
C79_3 C91_3 1_555 1_555
C93_3 N15_3 1_555 1_555
C94_3 N15_3 1_555 1_555
C100_3 N2_3 1_555 1_555
C101_3 N2_3 1_555 1_555
N1_3 N3_3 1_555 1_555
N1_3 N4_3 1_555 1_555
O3_3 Zn3_2 1_555 1_555
O6_3 Zn3_2 1_555 1_555
O19_2 Zn8_2 1_555 1_555
O25_3 Zn7 1_555 1_555
O26_3 Zn7 1_555 1_555
O27_3 Zn6 1_555 1_555
O31_3 Zn3_2 1_555 1_555
O35_3 H78_3 1_555 1_555
O35_3 H79_3 1_555 1_555
O36_3 H80_3 1_555 1_555
O36_3 H81_3 1_555 1_555
Zn1_2 O1_3 1_555 1_555
C2_3 C4_3 1_555 1_555
C4_3 H2_3 1_555 1_555
C6_3 C19_3 1_555 1_555
C8_3 H3_3 1_555 1_555
C12_3 C40_3 1_555 1_555
C15_3 C25_3 1_555 1_555
C16_3 H4_3 1_555 1_555
C17_3 C2_3 1_555 1_555
C18_3 C8_3 1_555 1_555
C19_3 C16_3 1_555 1_555
H5_3 C19_3 1_555 1_555
C20_3 C22_3 1_555 1_555
C22_3 C53_3 1_555 1_555
C23_3 C8_3 1_555 1_555
H6_3 C23_3 1_555 1_555
C24_3 H7_3 1_555 1_555
C25_3 C27_3 1_555 1_555
C27_3 C4_3 1_555 1_555
H8_3 C27_3 1_555 1_555
C28_3 C3_3 1_555 1_555
C29_3 H9_3 1_555 1_555
C34_3 C45_3 1_555 1_555
C38_3 C18_3 1_555 1_555
H15_3 C38_3 1_555 1_555
C39_3 C15_3 1_555 1_555
C40_3 H16_3 1_555 1_555
C42_3 C3_3 1_555 1_555
H17_3 C42_3 1_555 1_555
C45_3 C23_3 1_555 1_555
C46_3 C25_3 1_555 1_555
H19_3 C46_3 1_555 1_555
C47_3 C50_3 1_555 1_555
C50_3 C29_3 1_555 1_555
C51_3 C29_3 1_555 1_555
H22_3 C51_3 1_555 1_555
C53_3 C99_3 1_555 1_555
C55_3 C50_3 1_555 1_555
H24_3 C55_3 1_555 1_555
C58_3 C20_3 1_555 1_555
H27_3 C58_3 1_555 1_555
C59_3 C2_3 1_555 1_555
H28_3 C59_3 1_555 1_555
C60_3 C55_3 1_555 1_555
H29_3 C60_3 1_555 1_555
C70_3 C12_3 1_555 1_555
C71_3 C12_3 1_555 1_555
H35_3 C71_3 1_555 1_555
C74_3 C20_3 1_555 1_555
H38_3 C74_3 1_555 1_555
C95_3 H56_3 1_555 1_555
C99_3 C51_3 1_555 1_555
N8_3 C6_3 1_555 1_555
N9_3 C15_3 1_555 1_555
N10_3 C39_3 1_555 1_555
N12_3 C22_3 1_555 1_555
N13_3 C53_3 1_555 1_555
N14_3 C95_3 1_555 1_555
O2_3 Zn2_2 1_555 1_555
O4_3 Zn1_2 1_555 1_555
O5_2 C34_3 1_555 1_555
O7_3 C17_3 1_555 1_555
O9_2 C70_3 1_555 1_555
O10_3 C95_3 1_555 1_555
O11_3 Zn4_2 1_555 1_555
O12_3 Zn4_2 1_555 1_555
O17_3 Zn1_2 1_555 1_555
O18_2 C34_3 1_555 1_555
O21_3 C47_3 1_555 1_555
O23_3 C47_3 1_555 1_555
O28_3 C17_3 1_555 1_555
O29_2 C70_3 1_555 1_555
O34_3 Zn5_2 1_555 1_555
Zn2_2 O21_3 1_555 1_555
Zn4_2 O4_3 1_555 1_555
Zn5_2 O2_3 1_555 1_555
O39_2 Zn1_2 1_555 1_555
O40_2 Zn4_2 1_555 1_555
O41_2 Zn2_2 1_555 1_555
O42_2 Zn1_2 1_555 1_555
Zn9_2 O18_2 1_555 1_555
Zn10_2 O5_2 1_555 1_555
Zn12_2 O29_2 1_555 1_555
C6_3 C42_3 1_555 1_555
C16_3 C28_3 1_555 1_555
C18_3 C39_3 1_555 1_555
C24_3 C38_3 1_555 1_555
C24_3 C45_3 1_555 1_555
C40_3 C58_3 1_555 1_555
C46_3 C59_3 1_555 1_555
C60_3 C99_3 1_555 1_555
C71_3 C74_3 1_555 1_555
N8_3 N9_3 1_555 1_555
N8_3 N10_3 1_555 1_555
O7_3 Zn4_2 1_555 1_555
O8_3 Zn5_2 1_555 1_555
O9_2 Zn10_2 1_555 1_555
O10_3 Zn5_2 1_555 1_555
O23_3 Zn5_2 1_555 1_555
O28_3 Zn2_2 1_555 1_555
O11_3 H70_3 1_555 1_555
O11_3 H71_3 1_555 1_555
O17_3 H72_3 1_555 1_555
O17_3 H73_3 1_555 1_555
O12_3 H74_3 1_555 1_555
O12_3 H75_3 1_555 1_555
O34_3 H76_3 1_555 1_555
O34_3 H77_3 1_555 1_555
O1_3 H82_3 1_555 1_555
O1_3 H83_3 1_555 1_555
C1_3 C35_3 1_555 1_555
C7_3 C84_3 1_555 1_555
C13_3 C31_3 1_555 1_555
C31_3 H11_3 1_555 1_555
C35_3 C31_3 1_555 1_555
H13_3 C35_3 1_555 1_555
C76_3 C13_3 1_555 1_555
H40_3 C76_3 1_555 1_555
C78_3 C1_3 1_555 1_555
H44_3 C84_3 1_555 1_555
C85_3 C1_3 1_555 1_555
H45_3 C85_3 1_555 1_555
C90_3 C7_3 1_555 1_555
N6_3 C13_3 1_555 1_555
O22_3 C78_3 1_555 1_555
O44 C90_3 1_555 1_555
O45 C90_3 1_555 1_555
O46 C78_3 1_555 1_555
C76_3 C85_3 1_555 1_555
C2_4 C4_4 1_555 1_555
C3_4 H1_4 1_555 1_555
C4_4 H2_4 1_555 1_555
C6_4 C19_4 1_555 1_555
C8_4 H3_4 1_555 1_555
C12_4 C40_4 1_555 1_555
C15_4 C25_4 1_555 1_555
C16_4 H4_4 1_555 1_555
C17_4 C2_4 1_555 1_555
C18_4 C8_4 1_555 1_555
C19_4 C16_4 1_555 1_555
H5_4 C19_4 1_555 1_555
C20_4 C22_4 1_555 1_555
C22_4 C53_4 1_555 1_555
C23_4 C8_4 1_555 1_555
H6_4 C23_4 1_555 1_555
C24_4 H7_4 1_555 1_555
C25_4 C27_4 1_555 1_555
C27_4 C4_4 1_555 1_555
H8_4 C27_4 1_555 1_555
C28_4 C3_4 1_555 1_555
C29_4 H9_4 1_555 1_555
C34_4 C45_4 1_555 1_555
C38_4 C18_4 1_555 1_555
H15_4 C38_4 1_555 1_555
C39_4 C15_4 1_555 1_555
C40_4 H16_4 1_555 1_555
C42_4 C3_4 1_555 1_555
H17_4 C42_4 1_555 1_555
C45_4 C23_4 1_555 1_555
C46_4 C25_4 1_555 1_555
H19_4 C46_4 1_555 1_555
C47_4 C50_4 1_555 1_555
C50_4 C29_4 1_555 1_555
C51_4 C29_4 1_555 1_555
H22_4 C51_4 1_555 1_555
C53_4 C99_4 1_555 1_555
C55_4 C50_4 1_555 1_555
H24_4 C55_4 1_555 1_555
C58_4 C20_4 1_555 1_555
H27_4 C58_4 1_555 1_555
C59_4 C2_4 1_555 1_555
H28_4 C59_4 1_555 1_555
C60_4 C55_4 1_555 1_555
H29_4 C60_4 1_555 1_555
C69_4 C28_4 1_555 1_555
C70_4 C12_4 1_555 1_555
C71_4 C12_4 1_555 1_555
H35_4 C71_4 1_555 1_555
C74_4 C20_4 1_555 1_555
H38_4 C74_4 1_555 1_555
C98_4 H63_4 1_555 1_555
C99_4 C51_4 1_555 1_555
C100_4 H66_4 1_555 1_555
C101_4 H67_4 1_555 1_555
H68_4 C101_4 1_555 1_555
H69_4 C101_4 1_555 1_555
N2_4 C98_4 1_555 1_555
N8_4 C6_4 1_555 1_555
N9_4 C15_4 1_555 1_555
N10_4 C39_4 1_555 1_555
N12_4 C22_4 1_555 1_555
N13_4 C53_4 1_555 1_555
O2_4 Zn9_2 1_555 1_555
O37_2 C34_4 1_555 1_555
O7_4 C17_4 1_555 1_555
O38_2 C70_4 1_555 1_555
O13_4 C69_4 1_555 1_555
O16_4 C69_4 1_555 1_555
O21_4 C47_4 1_555 1_555
O23_4 C47_4 1_555 1_555
O27_4 C100_4 1_555 1_555
O28_4 C17_4 1_555 1_555
O43_2 C70_4 1_555 1_555
O35_4 Zn6_2 1_555 1_555
Zn9_2 O21_4 1_555 1_555
Zn10_2 O2_4 1_555 1_555
Zn12_2 O2_4 1_555 1_555
Zn6_2 O16_4 1_555 1_555
O44_2 Zn6_2 1_555 1_555
O45_2 Zn6_2 1_555 1_555
C6_4 C42_4 1_555 1_555
C16_4 C28_4 1_555 1_555
C18_4 C39_4 1_555 1_555
C24_4 C38_4 1_555 1_555
C24_4 C45_4 1_555 1_555
C40_4 C58_4 1_555 1_555
C46_4 C59_4 1_555 1_555
C60_4 C99_4 1_555 1_555
C71_4 C74_4 1_555 1_555
C100_4 N2_4 1_555 1_555
C101_4 N2_4 1_555 1_555
N8_4 N9_4 1_555 1_555
N8_4 N10_4 1_555 1_555
O10_4 Zn12_2 1_555 1_555
O23_4 Zn12_2 1_555 1_555
O27_4 Zn6_2 1_555 1_555
O28_4 Zn9_2 1_555 1_555
O35_4 H78_4 1_555 1_555
O35_4 H79_4 1_555 1_555
Zn8_2 O1_4 1_555 1_555
C5_4 C9_4 1_555 1_555
C9_4 C14_4 1_555 1_555
C10_4 C48_4 1_555 1_555
C14_4 C26_4 1_555 1_555
C26_4 C30_4 1_555 1_555
C30_4 H10_4 1_555 1_555
C32_4 C5_4 1_555 1_555
H12_4 C32_4 1_555 1_555
C33_4 C57_4 1_555 1_555
C36_4 H14_4 1_555 1_555
C37_4 C41_4 1_555 1_555
C41_4 C65_4 1_555 1_555
C44_4 C52_4 1_555 1_555
C48_4 C43_4 1_555 1_555
H20_4 C48_4 1_555 1_555
C49_4 C5_4 1_555 1_555
H21_4 C49_4 1_555 1_555
C52_4 C30_4 1_555 1_555
H23_4 C52_4 1_555 1_555
C54_4 C37_4 1_555 1_555
C56_4 C32_4 1_555 1_555
H25_4 C56_4 1_555 1_555
C57_4 H26_4 1_555 1_555
C61_4 C26_4 1_555 1_555
H30_4 C61_4 1_555 1_555
C62_4 C36_4 1_555 1_555
C63_4 C54_4 1_555 1_555
H31_4 C63_4 1_555 1_555
C64_4 H32_4 1_555 1_555
C65_4 C79_4 1_555 1_555
C66_4 C44_4 1_555 1_555
H33_4 C66_4 1_555 1_555
H34_4 C67_4 1_555 1_555
C68_4 C64_4 1_555 1_555
C73_4 C54_4 1_555 1_555
H37_4 C73_4 1_555 1_555
C77_4 C62_4 1_555 1_555
C79_4 H41_4 1_555 1_555
C80_4 C44_4 1_555 1_555
C82_4 C10_4 1_555 1_555
H42_4 C82_4 1_555 1_555
C83_4 C33_4 1_555 1_555
H43_4 C83_4 1_555 1_555
C86_4 C68_4 1_555 1_555
C87_4 C64_4 1_555 1_555
H46_4 C87_4 1_555 1_555
C89_4 C33_4 1_555 1_555
C91_4 C68_4 1_555 1_555
H48_4 C91_4 1_555 1_555
C95_4 H56_4 1_555 1_555
N1_4 C10_4 1_555 1_555
N3_4 C9_4 1_555 1_555
N4_4 C14_4 1_555 1_555
N5_4 C41_4 1_555 1_555
N7_4 C37_4 1_555 1_555
N14_4 C95_4 1_555 1_555
O3_4 C80_4 1_555 1_555
O4_4 Zn8_2 1_555 1_555
O6_4 C86_4 1_555 1_555
O8_4 C86_4 1_555 1_555
O11_4 Zn11_2 1_555 1_555
O12_4 Zn11_2 1_555 1_555
O39_2 C77_4 1_555 1_555
O40_2 C77_4 1_555 1_555
O17_4 Zn8_2 1_555 1_555
O42_2 C89_4 1_555 1_555
O20_4 C89_4 1_555 1_555
O31_4 C80_4 1_555 1_555
Zn11_2 O4_4 1_555 1_555
C36_4 C49_4 1_555 1_555
C56_4 C62_4 1_555 1_555
C57_4 C63_4 1_555 1_555
C61_4 C66_4 1_555 1_555
C65_4 C87_4 1_555 1_555
C67_4 C82_4 1_555 1_555
C73_4 C83_4 1_555 1_555
C79_4 C91_4 1_555 1_555
N1_4 N3_4 1_555 1_555
N1_4 N4_4 1_555 1_555
O11_4 H70_4 1_555 1_555
O11_4 H71_4 1_555 1_555
O17_4 H72_4 1_555 1_555
O17_4 H73_4 1_555 1_555
O12_4 H75_4 1_555 1_555
O34_4 H77_4 1_555 1_555
O1_4 H82_4 1_555 1_555
O1_4 H83_4 1_555 1_555
C7_4 C84_4 1_555 1_555
C11_2 C72_2 1_555 1_555
C72_2 H36_2 1_555 1_555
C84_4 C72_2 1_555 1_555
H44_4 C84_4 1_555 1_555
C88_2 C11_2 1_555 1_555
H47_2 C88_2 1_555 1_555
C90_4 C7_4 1_555 1_555
C92_2 C7_4 1_555 1_555
H49_2 C92_2 1_555 1_555
H61_2 C97_2 1_555 1_555
H62_2 C97_2 1_555 1_555
N11_2 C11_2 1_555 1_555
O44_2 C90_4 1_555 1_555
O45_2 C90_4 1_555 1_555
C88_2 C92_2 1_555 1_555
C11_3 C72_3 1_555 1_555
C72_3 H36_3 1_555 1_555
C88_3 C11_3 1_555 1_555
H47_3 C88_3 1_555 1_555
H49_3 C92_3 1_555 1_555
C96_2 H57_2 1_555 1_555
H59_2 C96_2 1_555 1_555
H61_3 C97_3 1_555 1_555
H62_3 C97_3 1_555 1_555
N11_3 C11_3 1_555 1_555
C88_3 C92_3 1_555 1_555
C75_4 H39_4 1_555 1_555
C81_4 C21_4 1_555 1_555
C93_4 H50_4 1_555 1_555
H51_4 C93_4 1_555 1_555
H52_4 C93_4 1_555 1_555
C94_4 H53_4 1_555 1_555
H54_4 C94_4 1_555 1_555
H55_4 C94_4 1_555 1_555
N15_4 C75_4 1_555 1_555
O24_4 C81_4 1_555 1_555
O25_4 C81_4 1_555 1_555
O26_4 C75_4 1_555 1_555
Zn7_2 O24_4 1_555 1_555
O36_4 Zn7_2 1_555 1_555
O46_2 Zn7_2 1_555 1_555
C93_4 N15_4 1_555 1_555
C94_4 N15_4 1_555 1_555
O25_4 Zn7_2 1_555 1_555
O26_4 Zn7_2 1_555 1_555
O36_4 H80_4 1_555 1_555
O36_4 H81_4 1_555 1_555
O22_4 C78_4 1_555 1_555
O46_2 C78_4 1_555 1_555
C1_4 C35_4 1_555 1_555
C13_4 C31_4 1_555 1_555
C31_4 H11_4 1_555 1_555
C35_4 C31_4 1_555 1_555
C76_4 C13_4 1_555 1_555
H40_4 C76_4 1_555 1_555
C85_4 C1_4 1_555 1_555
H45_4 C85_4 1_555 1_555
C96_3 H57_3 1_555 1_555
H59_3 C96_3 1_555 1_555
N6_4 C13_4 1_555 1_555
C76_4 C85_4 1_555 1_555
C11_4 C72_4 1_555 1_555
C72_4 H36_4 1_555 1_555
C88_4 C11_4 1_555 1_555
H47_4 C88_4 1_555 1_555
H49_4 C92_4 1_555 1_555
C96_4 H57_4 1_555 1_555
H59_4 C96_4 1_555 1_555
H61_4 C97_4 1_555 1_555
H62_4 C97_4 1_555 1_555
N11_4 C11_4 1_555 1_555
C88_4 C92_4 1_555 1_555

#END
