
###############################################################################
#
# This file contains modified crystal structure data generated from the
# MOF subset of the Cambridge Structural Database (CSD) v543 
# hosted by the Cambridge Crystallographic Data Centre (CCDC).
#
# This work is licensed under the Creative Commons
# Attribution-NonCommercial-ShareAlike 4.0 International License.
# To view a copy of this license, visit
# http://creativecommons.org/licenses/by-nc-sa/4.0/
# or send a letter to
# Creative Commons, PO Box 1866, Mountain View, CA 94042, USA.
#
# CIF created using the CSD Python API on 29 September 2022
# The structure has been converted into the P1 space group
# The structure has a 3D framework
# The original CSD entry YUMKAU is in the monoclinic crystal system
# The framework has been calculated to contain at least 10.0% void space
# The void calculation uses a probe of radius 1.32A, grid spacing 0.4
#
###############################################################################

data_YUMKAU
_chemical_formula_moiety         '(C144 H112 Cd12 N24 O38)n'
_symmetry_cell_setting           triclinic
_symmetry_space_group_name_H-M   'P 1'
_symmetry_Int_Tables_number      1
_space_group_name_Hall           'P 1'
loop_
_symmetry_equiv_pos_site_id
_symmetry_equiv_pos_as_xyz
1 x,y,z
_cell_length_a                   16.860(5)
_cell_length_b                   24.513(5)
_cell_length_c                   11.920(5)
_cell_angle_alpha                90
_cell_angle_beta                 109.392(5)
_cell_angle_gamma                90
_cell_volume                     4646.93
loop_
_atom_site_label
_atom_site_type_symbol
_atom_site_fract_x
_atom_site_fract_y
_atom_site_fract_z
Cd4 Cd 0.052518(13) 0.136869(9) 0.600159(19)
Cd5 Cd 0.006621(16) 0.120044(9) 0.86633(2)
C20 C 0.3003(2) 0.24369(16) 0.0824(3)
H12 H 0.2894 0.2639 0.1417
C21 C 0.3826(2) 0.23359(16) 0.0893(3)
H13 H 0.4518 0.1959 0.0038
C24 C 0.4521(2) 0.25459(16) 0.1913(3)
H15 H 0.4370 0.2746 0.2473
C25 C 0.5332(2) 0.24821(16) 0.2122(3)
H16 H 0.5488 0.2272 0.1580
C26 C 0.6019(2) 0.27113(15) 0.3131(3)
C27 C 0.6853(2) 0.25877(16) 0.3269(3)
H17 H 0.6973 0.2356 0.2728
C28 C 0.7503(2) 0.28054(16) 0.4199(3)
H18 H 0.8056 0.2725 0.4270
C29 C 0.5868(2) 0.30557(18) 0.3956(3)
H19 H 0.5317 0.3154 0.3867
C30 C 0.8036(2) 0.33827(14) 0.6034(3)
C31 C 0.7338(2) 0.31414(15) 0.5024(3)
C32 C 0.6514(2) 0.32551(17) 0.4907(3)
H20 H 0.6394 0.3468 0.5476
O3 O 0.78988(16) 0.35169(13) 0.6955(2)
O4 O 0.87495(15) 0.34399(12) 0.5923(2)
O9 O 0.0931(3) 0.09483(18) 0.0529(3)
H26 H 0.089(3) 0.108(2) 0.100(4)
H28 H 0.124(3) 0.070(2) 0.069(4)
Cd9 Cd 0.933768(14) 0.374489(9) 0.790906(19)
C1 C 0.1122(2) 0.12101(13) 0.3576(3)
C2 C 0.2061(2) 0.12698(14) 0.3914(3)
C3 C 0.2574(2) 0.10949(17) 0.5019(3)
H1 H 0.2339 0.0946 0.5554
C4 C 0.3439(2) 0.11410(18) 0.5327(3)
H2 H 0.3780 0.1021 0.6071
C5 C 0.3807(2) 0.13631(15) 0.4546(3)
C6 C 0.3282(2) 0.15428(16) 0.3454(4)
H3 H 0.3514 0.1694 0.2918
C7 C 0.2421(2) 0.15023(15) 0.3144(3)
H4 H 0.2080 0.1633 0.2410
C8 C 0.4726(2) 0.13829(17) 0.4895(4)
H5 H 0.5025 0.1404 0.5705
C9 C 0.5169(2) 0.13741(18) 0.4167(4)
H6 H 0.4872 0.1378 0.3355
C10 C 0.6096(2) 0.13581(17) 0.4526(3)
C11 C 0.6606(2) 0.15550(18) 0.5611(4)
H7 H 0.6362 0.1723 0.6115
C12 C 0.7471(2) 0.15081(17) 0.5963(3)
H8 H 0.7800 0.1635 0.6707
C13 C 0.7850(2) 0.12735(14) 0.5215(3)
C14 C 0.7345(2) 0.10885(17) 0.4112(3)
H9 H 0.7589 0.0935 0.3592
C15 C 0.6479(2) 0.11300(19) 0.3779(4)
H10 H 0.6149 0.1002 0.3036
C16 C 0.87835(19) 0.12441(12) 0.5564(3)
C17 C 0.1783(2) 0.17431(14) 0.7935(3)
C18 C 0.2491(2) 0.19500(14) 0.8975(3)
C19 C 0.2336(2) 0.22381(16) 0.9869(3)
H11 H 0.1785 0.2301 0.9838
C22 C 0.3969(2) 0.20393(19) 0.9993(3)
C23 C 0.3310(2) 0.18607(18) 0.9030(3)
H14 H 0.3419 0.1678 0.8412
C34 C 0.0802(2) 0.00303(13) 0.6561(3)
C36 C 0.0129(2) 0.26758(13) 0.5140(3)
H24 H 0.0378 0.2835 0.5883
N1 N 0.06555(17) 0.05234(10) 0.6857(2)
N2 N 0.04555(18) 0.04700(11) 0.7880(2)
N5 N 0.00525(17) 0.21495(11) 0.4971(2)
O1 O 0.06649(14) 0.13107(10) 0.2525(2)
O2 O 0.08130(13) 0.10596(9) 0.43554(19)
O5 O 0.91115(13) 0.10700(9) 0.48206(18)
O6 O 0.92249(13) 0.14109(9) 0.65862(19)
O7 O 0.10550(13) 0.17158(10) 0.8007(2)
O8 O 0.19279(15) 0.16085(12) 0.7009(2)
Cd6 Cd 0.006621(16) 0.379956(9) 0.36633(2)
Cd7 Cd 0.933768(14) 0.125511(9) 0.290906(19)
C33 C 0.0503(2) 0.99430(13) 0.8115(3)
H21 H 0.0395 0.9792 0.8766
H22 H 0.0947 0.9951 0.5891
N3 N 0.07203(17) 0.96493(10) 0.7325(2)
Cd8 Cd 0.066232(14) 0.874489(9) 0.709094(19)
C35 C 0.9525(2) 0.25738(13) 0.3315(3)
H23 H 0.9264 0.2645 0.2510
N4 N 0.96496(17) 0.20822(10) 0.3761(2)
N6 N 0.98098(17) 0.29650(11) 0.4131(2)
O10 O 0.8963(3) 0.09062(19) 0.9181(4)
H25 H 0.883(3) 0.113(2) 0.969(5)
H27 H 0.877(3) 0.0669(19) 0.909(4)
N7 N 0.92797(17) 0.03507(10) 0.2675(2)
N8 N 0.98098(17) 0.20350(11) 0.9131(2)
O11 O 0.78988(16) 0.14831(13) 0.1955(2)
O12 O 0.87495(15) 0.15601(12) 0.0923(2)
C35_2 C 0.0475(2) 0.75738(13) 0.1685(3)
H23_2 H 0.0736 0.7645 0.2490
Cd3 Cd 0.066232(14) 0.625511(9) 0.209094(19)
N4_2 N 0.03504(17) 0.70822(10) 0.1239(2)
N6_2 N 0.01902(17) 0.79650(11) 0.0869(2)
N7_2 N 0.07203(17) 0.53507(10) 0.2325(2)
O11_2 O 0.21012(16) 0.64831(13) 0.3045(2)
O12_2 O 0.12505(15) 0.65601(12) 0.4077(2)
O13 O 0.08885(13) 0.60700(9) 0.01794(18)
O10_2 O 0.1037(3) 0.59062(19) 0.5819(4)
H25_2 H 0.117(3) 0.613(2) 0.531(5)
H27_2 H 0.123(3) 0.5669(19) 0.591(4)
N8_2 N 0.01902(17) 0.70350(11) 0.5869(2)
O14 O 0.07751(13) 0.64109(9) 0.84138(19)
C1_2 C 0.8878(2) 0.62101(13) 0.1424(3)
C2_2 C 0.7939(2) 0.62698(14) 0.1086(3)
C5_2 C 0.6193(2) 0.63631(15) 0.0454(3)
C6_2 C 0.6718(2) 0.65428(16) 0.1546(4)
H3_2 H 0.6486 0.6694 0.2082
C7_2 C 0.7579(2) 0.65023(15) 0.1856(3)
H4_2 H 0.7920 0.6633 0.2590
C8_2 C 0.5274(2) 0.63829(17) 0.0105(4)
C9_2 C 0.4831(2) 0.63741(18) 0.0833(4)
H6_2 H 0.5128 0.6378 0.1645
C10_2 C 0.3904(2) 0.63581(17) 0.0474(3)
C14_2 C 0.2655(2) 0.60885(17) 0.0888(3)
H9_2 H 0.2411 0.5935 0.1408
C15_2 C 0.3521(2) 0.61300(19) 0.1221(4)
H10_2 H 0.3851 0.6002 0.1964
N5_2 N 0.99475(17) 0.71495(11) 0.0029(2)
O1_2 O 0.93351(14) 0.63107(10) 0.2475(2)
O2_2 O 0.91870(13) 0.60596(9) 0.06446(19)
Cd6_2 Cd 0.993379(16) 0.879956(9) 0.13367(2)
C3_2 C 0.7426(2) 0.60949(17) 0.9981(3)
H1_2 H 0.7661 0.5946 0.9446
C4_2 C 0.6561(2) 0.61410(18) 0.9673(3)
H2_2 H 0.6220 0.6021 0.8929
H5_2 H 0.4975 0.6404 0.9295
C11_2 C 0.3394(2) 0.65550(18) 0.9389(4)
H7_2 H 0.3638 0.6723 0.8885
C12_2 C 0.2529(2) 0.65081(17) 0.9037(3)
H8_2 H 0.2200 0.6635 0.8293
C13_2 C 0.2150(2) 0.62735(14) 0.9785(3)
C16_2 C 0.12165(19) 0.62441(12) 0.9436(3)
C17_2 C 0.8217(2) 0.67431(14) 0.7065(3)
C18_2 C 0.7509(2) 0.69500(14) 0.6025(3)
C19_2 C 0.7664(2) 0.72381(16) 0.5131(3)
H11_2 H 0.8215 0.7301 0.5162
C20_2 C 0.6997(2) 0.74369(16) 0.4176(3)
H12_2 H 0.7106 0.7639 0.3583
C21_2 C 0.6174(2) 0.73359(16) 0.4107(3)
C22_2 C 0.6031(2) 0.70393(19) 0.5007(3)
H13_2 H 0.5482 0.6959 0.4962
C23_2 C 0.6690(2) 0.68607(18) 0.5970(3)
H14_2 H 0.6581 0.6678 0.6588
C24_2 C 0.5479(2) 0.75459(16) 0.3087(3)
H15_2 H 0.5630 0.7746 0.2527
C25_2 C 0.4668(2) 0.74821(16) 0.2878(3)
H16_2 H 0.4512 0.7272 0.3420
C26_2 C 0.3981(2) 0.77113(15) 0.1869(3)
C27_2 C 0.3147(2) 0.75877(16) 0.1731(3)
H17_2 H 0.3027 0.7356 0.2272
C28_2 C 0.2497(2) 0.78054(16) 0.0801(3)
H18_2 H 0.1944 0.7725 0.0730
C29_2 C 0.4132(2) 0.80557(18) 0.1044(3)
H19_2 H 0.4683 0.8154 0.1133
C32_2 C 0.3486(2) 0.82551(17) 0.0093(3)
C33_2 C 0.9497(2) 0.49430(13) 0.6885(3)
H21_2 H 0.9605 0.4792 0.6234
C34_2 C 0.9198(2) 0.50303(13) 0.8439(3)
H22_2 H 0.9053 0.4951 0.9109
C36_2 C 0.9871(2) 0.76758(13) 0.9860(3)
H24_2 H 0.9622 0.7835 0.9117
Cd1 Cd 0.947482(13) 0.636869(9) 0.899841(19)
Cd2 Cd 0.993379(16) 0.620044(9) 0.63367(2)
N1_2 N 0.93445(17) 0.55234(10) 0.8143(2)
N2_2 N 0.95445(18) 0.54700(11) 0.7120(2)
N3_2 N 0.92797(17) 0.46493(10) 0.7675(2)
O7_2 O 0.89450(13) 0.67158(10) 0.6993(2)
O8_2 O 0.80721(15) 0.66085(12) 0.7991(2)
O9_2 O 0.9069(3) 0.59483(18) 0.4471(3)
H26_2 H 0.911(3) 0.608(2) 0.400(4)
H28_2 H 0.876(3) 0.570(2) 0.431(4)
C30_2 C 0.1964(2) 0.83827(14) 0.8966(3)
C31_2 C 0.2662(2) 0.81414(15) 0.9976(3)
H20_2 H 0.3606 0.8468 0.9524
O3_2 O 0.21012(16) 0.85169(13) 0.8045(2)
O4_2 O 0.12505(15) 0.84399(12) 0.9077(2)
C35_3 C 0.0475(2) 0.74262(13) 0.6685(3)
H23_3 H 0.0736 0.7355 0.7490
N4_3 N 0.03504(17) 0.79178(10) 0.6239(2)
O10_3 O 0.1037(3) 0.90938(19) 0.0819(4)
H25_3 H 0.117(3) 0.887(2) 0.031(5)
H27_3 H 0.123(3) 0.9331(19) 0.091(4)
O13_2 O 0.08885(13) 0.89300(9) 0.51794(18)
O14_2 O 0.07751(13) 0.85891(9) 0.34138(19)
C33_3 C 0.9497(2) 0.00570(13) 0.1885(3)
H21_3 H 0.9605 0.0208 0.1234
H22_3 H 0.9053 0.0049 0.4109
C1_3 C 0.8878(2) 0.87899(13) 0.6424(3)
C2_3 C 0.7939(2) 0.87302(14) 0.6086(3)
C3_3 C 0.7426(2) 0.89051(17) 0.4981(3)
H1_3 H 0.7661 0.9054 0.4446
C4_3 C 0.6561(2) 0.88590(18) 0.4673(3)
H2_3 H 0.6220 0.8979 0.3929
C5_3 C 0.6193(2) 0.86369(15) 0.5454(3)
C6_3 C 0.6718(2) 0.84572(16) 0.6546(4)
H3_3 H 0.6486 0.8306 0.7082
C7_3 C 0.7579(2) 0.84977(15) 0.6856(3)
H4_3 H 0.7920 0.8367 0.7590
C8_3 C 0.5274(2) 0.86171(17) 0.5105(4)
H5_3 H 0.4975 0.8596 0.4295
C9_3 C 0.4831(2) 0.86259(18) 0.5833(4)
H6_3 H 0.5128 0.8622 0.6645
C10_3 C 0.3904(2) 0.86419(17) 0.5474(3)
C11_3 C 0.3394(2) 0.84450(18) 0.4389(4)
H7_3 H 0.3638 0.8277 0.3885
C12_3 C 0.2529(2) 0.84919(17) 0.4037(3)
H8_3 H 0.2200 0.8365 0.3293
C13_3 C 0.2150(2) 0.87265(14) 0.4785(3)
C14_3 C 0.2655(2) 0.89115(17) 0.5888(3)
H9_3 H 0.2411 0.9065 0.6408
C15_3 C 0.3521(2) 0.88700(19) 0.6221(4)
H10_3 H 0.3851 0.8998 0.6964
C16_3 C 0.12165(19) 0.87559(12) 0.4436(3)
C17_3 C 0.8217(2) 0.82569(14) 0.2065(3)
C18_3 C 0.7509(2) 0.80500(14) 0.1025(3)
C19_3 C 0.7664(2) 0.77619(16) 0.0131(3)
H11_3 H 0.8215 0.7699 0.0162
C22_3 C 0.6031(2) 0.79607(19) 0.0007(3)
C23_3 C 0.6690(2) 0.81393(18) 0.0970(3)
H14_3 H 0.6581 0.8322 0.1588
C34_3 C 0.9198(2) 0.99697(13) 0.3439(3)
C36_3 C 0.9871(2) 0.73242(13) 0.4860(3)
H24_3 H 0.9622 0.7165 0.4117
Cd1_2 Cd 0.947482(13) 0.863131(9) 0.399841(19)
N1_3 N 0.93445(17) 0.94766(10) 0.3143(2)
N2_3 N 0.95445(18) 0.95300(11) 0.2120(2)
N5_3 N 0.99475(17) 0.78505(11) 0.5029(2)
O1_3 O 0.93351(14) 0.86893(10) 0.7475(2)
O2_3 O 0.91870(13) 0.89404(9) 0.56446(19)
O7_3 O 0.89450(13) 0.82842(10) 0.1993(2)
O8_3 O 0.80721(15) 0.83915(12) 0.2991(2)
C20_3 C 0.6997(2) 0.75631(16) 0.9176(3)
H12_3 H 0.7106 0.7361 0.8583
C21_3 C 0.6174(2) 0.76641(16) 0.9107(3)
H13_3 H 0.5482 0.8041 0.9962
C24_3 C 0.5479(2) 0.74541(16) 0.8087(3)
H15_3 H 0.5630 0.7254 0.7527
C25_3 C 0.4668(2) 0.75179(16) 0.7878(3)
H16_3 H 0.4512 0.7728 0.8420
C26_3 C 0.3981(2) 0.72887(15) 0.6869(3)
C27_3 C 0.3147(2) 0.74123(16) 0.6731(3)
H17_3 H 0.3027 0.7644 0.7272
C28_3 C 0.2497(2) 0.71946(16) 0.5801(3)
H18_3 H 0.1944 0.7275 0.5730
C29_3 C 0.4132(2) 0.69443(18) 0.6044(3)
H19_3 H 0.4683 0.6846 0.6133
C30_3 C 0.1964(2) 0.66173(14) 0.3966(3)
C31_3 C 0.2662(2) 0.68586(15) 0.4976(3)
C32_3 C 0.3486(2) 0.67449(17) 0.5093(3)
H20_3 H 0.3606 0.6532 0.4524
O9_3 O 0.9069(3) 0.90517(18) 0.9471(3)
H26_3 H 0.911(3) 0.892(2) 0.900(4)
H28_3 H 0.876(3) 0.930(2) 0.931(4)
Cd4_2 Cd 0.052518(13) 0.363131(9) 0.100159(19)
C30_4 C 0.8036(2) 0.16173(14) 0.1034(3)
C31_4 C 0.7338(2) 0.18586(15) 0.0024(3)
H20_4 H 0.6394 0.1532 0.0476
C3_4 C 0.2574(2) 0.39051(17) 0.0019(3)
H1_4 H 0.2339 0.4054 0.0554
C4_4 C 0.3439(2) 0.38590(18) 0.0327(3)
H2_4 H 0.3780 0.3979 0.1071
H5_4 H 0.5025 0.3596 0.0705
C11_4 C 0.6606(2) 0.34450(18) 0.0611(4)
H7_4 H 0.6362 0.3277 0.1115
C12_4 C 0.7471(2) 0.34919(17) 0.0963(3)
H8_4 H 0.7800 0.3365 0.1707
C13_4 C 0.7850(2) 0.37265(14) 0.0215(3)
C16_4 C 0.87835(19) 0.37559(12) 0.0564(3)
C17_4 C 0.1783(2) 0.32569(14) 0.2935(3)
C18_4 C 0.2491(2) 0.30500(14) 0.3975(3)
C19_4 C 0.2336(2) 0.27619(16) 0.4869(3)
H11_4 H 0.1785 0.2699 0.4838
C20_4 C 0.3003(2) 0.25631(16) 0.5824(3)
H12_4 H 0.2894 0.2361 0.6417
C21_4 C 0.3826(2) 0.26641(16) 0.5893(3)
C22_4 C 0.3969(2) 0.29607(19) 0.4993(3)
H13_4 H 0.4518 0.3041 0.5038
C23_4 C 0.3310(2) 0.31393(18) 0.4030(3)
H14_4 H 0.3419 0.3322 0.3412
C24_4 C 0.4521(2) 0.24541(16) 0.6913(3)
H15_4 H 0.4370 0.2254 0.7473
C25_4 C 0.5332(2) 0.25179(16) 0.7122(3)
H16_4 H 0.5488 0.2728 0.6580
C26_4 C 0.6019(2) 0.22887(15) 0.8131(3)
C27_4 C 0.6853(2) 0.24123(16) 0.8269(3)
H17_4 H 0.6973 0.2644 0.7728
C28_4 C 0.7503(2) 0.21946(16) 0.9199(3)
H18_4 H 0.8056 0.2275 0.9270
C29_4 C 0.5868(2) 0.19443(18) 0.8956(3)
H19_4 H 0.5317 0.1846 0.8867
C32_4 C 0.6514(2) 0.17449(17) 0.9907(3)
C33_4 C 0.0503(2) 0.50570(13) 0.3115(3)
H21_4 H 0.0395 0.5208 0.3766
C34_4 C 0.0802(2) 0.49697(13) 0.1561(3)
H22_4 H 0.0947 0.5049 0.0891
C36_4 C 0.0129(2) 0.23242(13) 0.0140(3)
H24_4 H 0.0378 0.2165 0.0883
N1_4 N 0.06555(17) 0.44766(10) 0.1857(2)
N2_4 N 0.04555(18) 0.45300(11) 0.2880(2)
O6_2 O 0.92249(13) 0.35891(9) 0.15862(19)
O7_4 O 0.10550(13) 0.32842(10) 0.3007(2)
O8_4 O 0.19279(15) 0.33915(12) 0.2009(2)
O9_4 O 0.0931(3) 0.40517(18) 0.5529(3)
H26_4 H 0.089(3) 0.392(2) 0.600(4)
H28_4 H 0.124(3) 0.430(2) 0.569(4)
C1_4 C 0.1122(2) 0.37899(13) 0.8576(3)
C2_4 C 0.2061(2) 0.37302(14) 0.8914(3)
C5_4 C 0.3807(2) 0.36369(15) 0.9546(3)
C6_4 C 0.3282(2) 0.34572(16) 0.8454(4)
H3_4 H 0.3514 0.3306 0.7918
C7_4 C 0.2421(2) 0.34977(15) 0.8144(3)
H4_4 H 0.2080 0.3367 0.7410
C8_4 C 0.4726(2) 0.36171(17) 0.9895(4)
C9_4 C 0.5169(2) 0.36259(18) 0.9167(4)
H6_4 H 0.4872 0.3622 0.8355
C10_4 C 0.6096(2) 0.36419(17) 0.9526(3)
C14_4 C 0.7345(2) 0.39115(17) 0.9112(3)
H9_4 H 0.7589 0.4065 0.8592
C15_4 C 0.6479(2) 0.38700(19) 0.8779(4)
H10_4 H 0.6149 0.3998 0.8036
N5_4 N 0.00525(17) 0.28505(11) 0.9971(2)
O1_4 O 0.06649(14) 0.36893(10) 0.7525(2)
O2_4 O 0.08130(13) 0.39404(9) 0.93554(19)
O5_2 O 0.91115(13) 0.39300(9) 0.98206(18)
O10_4 O 0.8963(3) 0.40938(19) 0.4181(4)
H25_4 H 0.883(3) 0.387(2) 0.469(5)
H27_4 H 0.877(3) 0.4331(19) 0.409(4)
C35_4 C 0.9525(2) 0.24262(13) 0.8315(3)
H23_4 H 0.9264 0.2355 0.7510
N4_4 N 0.96496(17) 0.29178(10) 0.8761(2)
loop_
_geom_bond_atom_site_label_1
_geom_bond_atom_site_label_2
_geom_bond_site_symmetry_1
_geom_bond_site_symmetry_2
H12 C20 1_555 1_555
C21 C20 1_555 1_555
C24 C21 1_555 1_555
H15 C24 1_555 1_555
C25 C24 1_555 1_555
H16 C25 1_555 1_555
C26 C25 1_555 1_555
C27 C26 1_555 1_555
H17 C27 1_555 1_555
C28 C27 1_555 1_555
H18 C28 1_555 1_555
C29 C26 1_555 1_555
H19 C29 1_555 1_555
C30 C31 1_555 1_555
C31 C28 1_555 1_555
C32 C29 1_555 1_555
H20 C32 1_555 1_555
O3 C30 1_555 1_555
O4 C30 1_555 1_555
H26 O9 1_555 1_555
H28 O9 1_555 1_555
Cd9 O3 1_555 1_555
C31 C32 1_555 1_555
O4 Cd9 1_555 1_555
C1 C2 1_555 1_555
C2 C3 1_555 1_555
C3 H1 1_555 1_555
C4 C3 1_555 1_555
H2 C4 1_555 1_555
C5 C4 1_555 1_555
C6 C5 1_555 1_555
H3 C6 1_555 1_555
C7 C2 1_555 1_555
H4 C7 1_555 1_555
C8 C5 1_555 1_555
H5 C8 1_555 1_555
C9 C8 1_555 1_555
H6 C9 1_555 1_555
C10 C9 1_555 1_555
C11 C10 1_555 1_555
H7 C11 1_555 1_555
C12 C11 1_555 1_555
H8 C12 1_555 1_555
C13 C12 1_555 1_555
C14 C13 1_555 1_555
H9 C14 1_555 1_555
C15 C10 1_555 1_555
H10 C15 1_555 1_555
C16 C13 1_555 1_555
C17 C18 1_555 1_555
C18 C19 1_555 1_555
C19 H11 1_555 1_555
C23 C18 1_555 1_555
H14 C23 1_555 1_555
C36 H24 1_555 1_555
Cd4 N1 1_555 1_555
Cd5 N2 1_555 1_555
N1 C34 1_555 1_555
N5 C36 1_555 1_555
O1 C1 1_555 1_555
O2 C1 1_555 1_555
O5 C16 1_555 1_555
O6 C16 1_555 1_555
O7 C17 1_555 1_555
O8 C17 1_555 1_555
Cd7 O5 1_555 1_555
C6 C7 1_555 1_555
C14 C15 1_555 1_555
C22 C23 1_555 1_555
Cd4 N5 1_555 1_555
Cd4 O2 1_555 1_555
Cd4 O7 1_555 1_555
Cd4 O8 1_555 1_555
Cd5 O7 1_555 1_555
N1 N2 1_555 1_555
C33 H21 1_555 1_555
N3 C33 1_555 1_555
Cd8 N3 1_555 1_555
C35 H23 1_555 1_555
Cd7 N4 1_555 1_555
N4 C35 1_555 1_555
N6 C35 1_555 1_555
H25 O10 1_555 1_555
H27 O10 1_555 1_555
N7 Cd7 1_555 1_555
O11 Cd7 1_555 1_555
O12 Cd7 1_555 1_555
C35_2 H23_2 1_555 1_555
Cd3 N4_2 1_555 1_555
N4_2 C35_2 1_555 1_555
N6_2 C35_2 1_555 1_555
N7_2 Cd3 1_555 1_555
O11_2 Cd3 1_555 1_555
O12_2 Cd3 1_555 1_555
Cd3 O13 1_555 1_555
H25_2 O10_2 1_555 1_555
H27_2 O10_2 1_555 1_555
C1_2 C2_2 1_555 1_555
C6_2 C5_2 1_555 1_555
H3_2 C6_2 1_555 1_555
C7_2 C2_2 1_555 1_555
H4_2 C7_2 1_555 1_555
C8_2 C5_2 1_555 1_555
C9_2 C8_2 1_555 1_555
H6_2 C9_2 1_555 1_555
C10_2 C9_2 1_555 1_555
H9_2 C14_2 1_555 1_555
C15_2 C10_2 1_555 1_555
H10_2 C15_2 1_555 1_555
O1_2 C1_2 1_555 1_555
O2_2 C1_2 1_555 1_555
C6_2 C7_2 1_555 1_555
C14_2 C15_2 1_555 1_555
C3_2 H1_2 1_555 1_555
C4_2 C3_2 1_555 1_555
H2_2 C4_2 1_555 1_555
H7_2 C11_2 1_555 1_555
C12_2 C11_2 1_555 1_555
H8_2 C12_2 1_555 1_555
C13_2 C12_2 1_555 1_555
C16_2 C13_2 1_555 1_555
C17_2 C18_2 1_555 1_555
C18_2 C19_2 1_555 1_555
C19_2 H11_2 1_555 1_555
C20_2 C19_2 1_555 1_555
H12_2 C20_2 1_555 1_555
C21_2 C20_2 1_555 1_555
C22_2 C21_2 1_555 1_555
H13_2 C22_2 1_555 1_555
C23_2 C18_2 1_555 1_555
H14_2 C23_2 1_555 1_555
C24_2 C21_2 1_555 1_555
H15_2 C24_2 1_555 1_555
C25_2 C24_2 1_555 1_555
H16_2 C25_2 1_555 1_555
C26_2 C25_2 1_555 1_555
C27_2 C26_2 1_555 1_555
H17_2 C27_2 1_555 1_555
C28_2 C27_2 1_555 1_555
H18_2 C28_2 1_555 1_555
C29_2 C26_2 1_555 1_555
H19_2 C29_2 1_555 1_555
C32_2 C29_2 1_555 1_555
C33_2 H21_2 1_555 1_555
C34_2 H22_2 1_555 1_555
C36_2 H24_2 1_555 1_555
Cd1 N1_2 1_555 1_555
Cd2 N2_2 1_555 1_555
N1_2 C34_2 1_555 1_555
N2_2 C33_2 1_555 1_555
N3_2 C33_2 1_555 1_555
O14 C16_2 1_555 1_555
O7_2 C17_2 1_555 1_555
O8_2 C17_2 1_555 1_555
O9_2 Cd2 1_555 1_555
H26_2 O9_2 1_555 1_555
H28_2 O9_2 1_555 1_555
Cd9 N3_2 1_555 1_555
C22_2 C23_2 1_555 1_555
C34_2 N3_2 1_555 1_555
Cd1 O7_2 1_555 1_555
Cd1 O8_2 1_555 1_555
Cd2 O7_2 1_555 1_555
N1_2 N2_2 1_555 1_555
C30_2 C31_2 1_555 1_555
O3_2 C30_2 1_555 1_555
O4_2 C30_2 1_555 1_555
Cd8 O3_2 1_555 1_555
O4_2 Cd8 1_555 1_555
C35_3 H23_3 1_555 1_555
Cd8 N4_3 1_555 1_555
N4_3 C35_3 1_555 1_555
N8_2 C35_3 1_555 1_555
H25_3 O10_3 1_555 1_555
H27_3 O10_3 1_555 1_555
Cd8 O13_2 1_555 1_555
C33_3 H21_3 1_555 1_555
N7 C33_3 1_555 1_555
C1_3 C2_3 1_555 1_555
C2_3 C3_3 1_555 1_555
C3_3 H1_3 1_555 1_555
C4_3 C3_3 1_555 1_555
H2_3 C4_3 1_555 1_555
C5_3 C4_3 1_555 1_555
C6_3 C5_3 1_555 1_555
H3_3 C6_3 1_555 1_555
C7_3 C2_3 1_555 1_555
H4_3 C7_3 1_555 1_555
C8_3 C5_3 1_555 1_555
H5_3 C8_3 1_555 1_555
C9_3 C8_3 1_555 1_555
H6_3 C9_3 1_555 1_555
C10_3 C9_3 1_555 1_555
C11_3 C10_3 1_555 1_555
H7_3 C11_3 1_555 1_555
C12_3 C11_3 1_555 1_555
H8_3 C12_3 1_555 1_555
C13_3 C12_3 1_555 1_555
C14_3 C13_3 1_555 1_555
H9_3 C14_3 1_555 1_555
C15_3 C10_3 1_555 1_555
H10_3 C15_3 1_555 1_555
C16_3 C13_3 1_555 1_555
C17_3 C18_3 1_555 1_555
C18_3 C19_3 1_555 1_555
C19_3 H11_3 1_555 1_555
C23_3 C18_3 1_555 1_555
H14_3 C23_3 1_555 1_555
C36_3 H24_3 1_555 1_555
Cd1_2 N1_3 1_555 1_555
Cd6_2 N2_3 1_555 1_555
N1_3 C34_3 1_555 1_555
N5_3 C36_3 1_555 1_555
O1_3 C1_3 1_555 1_555
O2_3 C1_3 1_555 1_555
O13_2 C16_3 1_555 1_555
O14_2 C16_3 1_555 1_555
O7_3 C17_3 1_555 1_555
O8_3 C17_3 1_555 1_555
C6_3 C7_3 1_555 1_555
C14_3 C15_3 1_555 1_555
C22_3 C23_3 1_555 1_555
Cd1_2 N5_3 1_555 1_555
Cd1_2 O2_3 1_555 1_555
Cd1_2 O7_3 1_555 1_555
Cd1_2 O8_3 1_555 1_555
Cd6_2 O7_3 1_555 1_555
N1_3 N2_3 1_555 1_555
H12_3 C20_3 1_555 1_555
C21_3 C20_3 1_555 1_555
C24_3 C21_3 1_555 1_555
H15_3 C24_3 1_555 1_555
C25_3 C24_3 1_555 1_555
H16_3 C25_3 1_555 1_555
C26_3 C25_3 1_555 1_555
C27_3 C26_3 1_555 1_555
H17_3 C27_3 1_555 1_555
C28_3 C27_3 1_555 1_555
H18_3 C28_3 1_555 1_555
C29_3 C26_3 1_555 1_555
H19_3 C29_3 1_555 1_555
C30_3 C31_3 1_555 1_555
C31_3 C28_3 1_555 1_555
C32_3 C29_3 1_555 1_555
H20_3 C32_3 1_555 1_555
O11_2 C30_3 1_555 1_555
O12_2 C30_3 1_555 1_555
H26_3 O9_3 1_555 1_555
H28_3 O9_3 1_555 1_555
C31_3 C32_3 1_555 1_555
C30_4 C31_4 1_555 1_555
O11 C30_4 1_555 1_555
O12 C30_4 1_555 1_555
C3_4 H1_4 1_555 1_555
C4_4 C3_4 1_555 1_555
H2_4 C4_4 1_555 1_555
H7_4 C11_4 1_555 1_555
C12_4 C11_4 1_555 1_555
H8_4 C12_4 1_555 1_555
C13_4 C12_4 1_555 1_555
C16_4 C13_4 1_555 1_555
C17_4 C18_4 1_555 1_555
C18_4 C19_4 1_555 1_555
C19_4 H11_4 1_555 1_555
C20_4 C19_4 1_555 1_555
H12_4 C20_4 1_555 1_555
C21_4 C20_4 1_555 1_555
C22_4 C21_4 1_555 1_555
H13_4 C22_4 1_555 1_555
C23_4 C18_4 1_555 1_555
H14_4 C23_4 1_555 1_555
C24_4 C21_4 1_555 1_555
H15_4 C24_4 1_555 1_555
C25_4 C24_4 1_555 1_555
H16_4 C25_4 1_555 1_555
C26_4 C25_4 1_555 1_555
C27_4 C26_4 1_555 1_555
H17_4 C27_4 1_555 1_555
C28_4 C27_4 1_555 1_555
H18_4 C28_4 1_555 1_555
C29_4 C26_4 1_555 1_555
H19_4 C29_4 1_555 1_555
C32_4 C29_4 1_555 1_555
C33_4 H21_4 1_555 1_555
C34_4 H22_4 1_555 1_555
C36_4 H24_4 1_555 1_555
Cd4_2 N1_4 1_555 1_555
Cd6 N2_4 1_555 1_555
N1_4 C34_4 1_555 1_555
N2_4 C33_4 1_555 1_555
N7_2 C33_4 1_555 1_555
O6_2 C16_4 1_555 1_555
O7_4 C17_4 1_555 1_555
O8_4 C17_4 1_555 1_555
O9_4 Cd6 1_555 1_555
H26_4 O9_4 1_555 1_555
H28_4 O9_4 1_555 1_555
C22_4 C23_4 1_555 1_555
C34_4 N7_2 1_555 1_555
Cd4_2 O7_4 1_555 1_555
Cd4_2 O8_4 1_555 1_555
Cd6 O7_4 1_555 1_555
N1_4 N2_4 1_555 1_555
C1_4 C2_4 1_555 1_555
C6_4 C5_4 1_555 1_555
H3_4 C6_4 1_555 1_555
C7_4 C2_4 1_555 1_555
H4_4 C7_4 1_555 1_555
C8_4 C5_4 1_555 1_555
C9_4 C8_4 1_555 1_555
H6_4 C9_4 1_555 1_555
C10_4 C9_4 1_555 1_555
H9_4 C14_4 1_555 1_555
C15_4 C10_4 1_555 1_555
H10_4 C15_4 1_555 1_555
O1_4 C1_4 1_555 1_555
O2_4 C1_4 1_555 1_555
Cd9 O5_2 1_555 1_555
C6_4 C7_4 1_555 1_555
C14_4 C15_4 1_555 1_555
H25_4 O10_4 1_555 1_555
H27_4 O10_4 1_555 1_555
C35_4 H23_4 1_555 1_555
Cd9 N4_4 1_555 1_555
N4_4 C35_4 1_555 1_555
N8 C35_4 1_555 1_555

#END
