
###############################################################################
#
# This file contains modified crystal structure data generated from the
# MOF subset of the Cambridge Structural Database (CSD) v543 
# hosted by the Cambridge Crystallographic Data Centre (CCDC).
#
# This work is licensed under the Creative Commons
# Attribution-NonCommercial-ShareAlike 4.0 International License.
# To view a copy of this license, visit
# http://creativecommons.org/licenses/by-nc-sa/4.0/
# or send a letter to
# Creative Commons, PO Box 1866, Mountain View, CA 94042, USA.
#
# CIF created using the CSD Python API on 29 September 2022
# The structure has been converted into the P1 space group
# The structure has a 3D framework
# The original CSD entry YUMPEE is in the hexagonal crystal system
# The framework has been calculated to contain at least 10.0% void space
# The void calculation uses a probe of radius 1.32A, grid spacing 0.4
# The framework is charged, counterions have been retained in the structure
#
###############################################################################

data_YUMPEE
_chemical_formula_moiety         '(C78 H36 N30 O56 Zn12 2-)n'
_symmetry_cell_setting           triclinic
_symmetry_space_group_name_H-M   'P 1'
_symmetry_Int_Tables_number      1
_space_group_name_Hall           'P 1'
loop_
_symmetry_equiv_pos_site_id
_symmetry_equiv_pos_as_xyz
1 x,y,z
_cell_length_a                   19.049(3)
_cell_length_b                   19.049(3)
_cell_length_c                   17.487(3)
_cell_angle_alpha                90
_cell_angle_beta                 90
_cell_angle_gamma                120
_cell_volume                     5495.29
loop_
_atom_site_label
_atom_site_type_symbol
_atom_site_fract_x
_atom_site_fract_y
_atom_site_fract_z
Zn6 Zn 0.52158(2) 0.04316(5) 0.92173(4)
Zn1 Zn 0.04316(5) 0.52158(2) 0.07827(4)
O2 O 0.1137(2) 0.4844(3) 0.0247(2)
N1 N 0.0769(4) 0.53843(19) 0.1876(3)
N2 N 0.1507(5) 0.5753(3) 0.2128(4)
C4 C 0.0364(8) 0.5182(4) 0.250000
O4 O 0.3707(4) 0.4844(3) 0.0247(2)
N4 N 0.0769(4) 0.53847(44) 0.3124(3)
N5 N 0.1507(5) 0.5754(6) 0.2872(4)
Zn2 Zn 0.47842(2) 0.52158(5) 0.07827(4)
O7 O 0.5156(3) 0.6293(4) 0.0247(2)
O9 O 0.5156(3) 0.8863(2) 0.0247(2)
Zn3 Zn 0.47842(5) 0.95684(5) 0.07827(4)
Zn5 Zn 0.04316(5) 0.52158(5) 0.42173(4)
O11 O 0.1137(2) 0.6293(4) 0.0247(2)
O12 O 0.5986(5) 0.5514(4) 0.0862(2)
O15 O 0.4486(4) 0.4014(5) 0.0862(2)
N6 N 0.46157(19) 0.53847(44) 0.1876(3)
O1 O 0.23012(18) 0.4602(4) 0.9678(3)
O3 O 0.0472(3) 0.4486(4) 0.9138(2)
C1 C 0.1035(3) 0.4598(4) 0.9583(3)
C2 C 0.1630(4) 0.4397(5) 0.9257(3)
C3 C 0.1664(5) 0.4049(6) 0.8602(4)
H2 H 0.127229 0.384520 0.821992
O5 O 0.4014(5) 0.4486(4) 0.9138(2)
C5 C 0.3563(5) 0.4598(4) 0.9583(3)
C6 C 0.2767(6) 0.4397(5) 0.9257(3)
C7 C 0.2385(8) 0.4049(6) 0.8602(4)
H3 H 0.257291 0.384520 0.821992
O6 O 0.5398(4) 0.76992(44) 0.9678(3)
O8 O 0.5514(4) 0.5986(5) 0.9138(2)
C8 C 0.5402(4) 0.6437(5) 0.9583(3)
C9 C 0.5603(5) 0.7233(6) 0.9257(3)
C10 C 0.5951(6) 0.7615(8) 0.8602(4)
H5 H 0.615480 0.742709 0.821992
O10 O 0.5514(4) 0.9528(3) 0.9138(2)
C11 C 0.5402(4) 0.8965(3) 0.9583(3)
C12 C 0.5603(5) 0.8370(4) 0.9257(3)
C13 C 0.5951(6) 0.8336(5) 0.8602(4)
H6 H 0.615480 0.872771 0.821992
Zn4 Zn 0.52158(5) 0.47842(2) 0.92173(4)
N3 N 0.9536(8) 0.4768(4) 0.250000
H1 H 0.927563 0.463874 0.207410
H4 H 0.927563 0.463689 0.292590
O13 O 0.9528(3) 0.4014(5) 0.0862(2)
O14 O 0.9528(3) 0.5514(4) 0.0862(2)
Zn7 Zn 0.95684(5) 0.47842(5) 0.92173(4)
O12_2 O 0.0472(6) 0.5986(5) 0.5862(2)
O15_2 O 0.0472(6) 0.4486(4) 0.5862(2)
Zn1_2 Zn 0.52158(5) 0.04316(5) 0.57827(4)
O1_2 O 0.76992(44) 0.23012(18) 0.4678(3)
O2_2 O 0.6293(4) 0.1137(2) 0.5247(2)
O3_2 O 0.5986(5) 0.0472(3) 0.4138(2)
N1_2 N 0.53847(44) 0.0769(4) 0.6876(3)
N2_2 N 0.5754(6) 0.1507(5) 0.7128(4)
C1_2 C 0.6437(5) 0.1035(3) 0.4583(3)
C2_2 C 0.7233(6) 0.1630(4) 0.4257(3)
C3_2 C 0.7615(8) 0.1664(5) 0.3602(4)
H2_2 H 0.742709 0.127229 0.321992
C4_2 C 0.5182(9) 0.0364(8) 0.750000
O4_2 O 0.8863(5) 0.3707(4) 0.5247(2)
O5_2 O 0.9528(6) 0.4014(5) 0.4138(2)
C5_2 C 0.8965(6) 0.3563(5) 0.4583(3)
C6_2 C 0.8370(8) 0.2767(6) 0.4257(3)
C7_2 C 0.8336(10) 0.2385(8) 0.3602(4)
H3_2 H 0.872771 0.257291 0.321992
N4_2 N 0.53843(59) 0.0769(4) 0.8124(3)
N5_2 N 0.5753(8) 0.1507(5) 0.7872(4)
Zn2_2 Zn 0.95684(5) 0.47842(2) 0.57827(4)
O6_2 O 0.76988(59) 0.5398(4) 0.4678(3)
O7_2 O 0.8863(5) 0.5156(3) 0.5247(2)
O8_2 O 0.9528(6) 0.5514(4) 0.4138(2)
C8_2 C 0.8965(6) 0.5402(4) 0.4583(3)
C9_2 C 0.8370(8) 0.5603(5) 0.4257(3)
C10_2 C 0.8336(10) 0.5951(6) 0.3602(4)
H5_2 H 0.872771 0.615480 0.321992
O9_2 O 0.6293(4) 0.5156(3) 0.5247(2)
O10_2 O 0.5986(5) 0.5514(4) 0.4138(2)
C11_2 C 0.6437(5) 0.5402(4) 0.4583(3)
C12_2 C 0.7233(6) 0.5603(5) 0.4257(3)
C13_2 C 0.7615(8) 0.5951(6) 0.3602(4)
H6_2 H 0.742709 0.615480 0.321992
Zn3_2 Zn 0.52158(7) 0.47842(5) 0.57827(4)
Zn6_2 Zn 0.47842(5) 0.52158(2) 0.42173(4)
O11_2 O 0.4844(4) 0.1137(2) 0.5247(2)
N6_2 N 0.92310(48) 0.46157(19) 0.6876(3)
N3_2 N 0.4768(9) 0.9536(8) 0.750000
H1_2 H 0.463689 0.927563 0.707410
H4_2 H 0.463874 0.927563 0.792590
Zn7_2 Zn 0.47842(7) 0.95684(5) 0.42173(4)
O13_2 O 0.5514(6) 0.9528(3) 0.5862(2)
O14_2 O 0.4014(5) 0.9528(3) 0.5862(2)
O12_3 O 0.4486(4) 0.0472(6) 0.0862(2)
O15_3 O 0.5986(5) 0.0472(6) 0.0862(2)
N2_3 N 0.4247(3) 0.5754(6) 0.2128(4)
N3_3 N 0.5232(4) 0.4768(9) 0.250000
H1_3 H 0.536126 0.463689 0.207410
C4_3 C 0.4818(4) 0.5182(9) 0.250000
N4_3 N 0.46153(44) 0.53843(59) 0.3124(3)
N5_3 N 0.4246(6) 0.5753(8) 0.2872(4)
H4_3 H 0.536311 0.463874 0.292590
O7_3 O 0.3707(4) 0.8863(5) 0.0247(2)
N6_3 N 0.46153(44) 0.92310(48) 0.1876(3)
O6_3 O 0.23008(44) 0.76988(59) 0.9678(3)
O8_3 O 0.4014(5) 0.9528(6) 0.9138(2)
C8_3 C 0.3563(5) 0.8965(6) 0.9583(3)
C9_3 C 0.2767(6) 0.8370(8) 0.9257(3)
C10_3 C 0.2385(8) 0.8336(10) 0.8602(4)
H5_3 H 0.257291 0.872771 0.821992
O10_3 O 0.0472(3) 0.5986(5) 0.9138(2)
C11_3 C 0.1035(3) 0.6437(5) 0.9583(3)
C12_3 C 0.1630(4) 0.7233(6) 0.9257(3)
C13_3 C 0.1664(5) 0.7615(8) 0.8602(4)
H6_3 H 0.127229 0.742709 0.821992
N3_4 N 0.0464(8) 0.5232(4) 0.750000
H1_4 H 0.072437 0.536126 0.707410
H4_4 H 0.072437 0.536311 0.792590
N2_4 N 0.8493(5) 0.4247(3) 0.7128(4)
C4_4 C 0.9636(8) 0.4818(4) 0.750000
N4_4 N 0.9231(4) 0.46153(44) 0.8124(3)
N5_4 N 0.8493(5) 0.4246(6) 0.7872(4)
O6_4 O 0.4602(4) 0.23008(44) 0.4678(3)
O7_4 O 0.4844(3) 0.3707(4) 0.5247(2)
O8_4 O 0.4486(4) 0.4014(5) 0.4138(2)
C8_4 C 0.4598(4) 0.3563(5) 0.4583(3)
C9_4 C 0.4397(5) 0.2767(6) 0.4257(3)
C10_4 C 0.4049(6) 0.2385(8) 0.3602(4)
H5_4 H 0.384520 0.257291 0.321992
O10_4 O 0.4486(4) 0.0472(3) 0.4138(2)
C11_4 C 0.4598(4) 0.1035(3) 0.4583(3)
C12_4 C 0.4397(5) 0.1630(4) 0.4257(3)
C13_4 C 0.4049(6) 0.1664(5) 0.3602(4)
H6_4 H 0.384520 0.127229 0.321992
O12_4 O 0.4014(5) 0.4486(4) 0.5862(2)
O15_4 O 0.5514(4) 0.5986(5) 0.5862(2)
N6_4 N 0.53843(19) 0.46153(44) 0.6876(3)
N3_5 N 0.5232(9) 0.0464(8) 0.250000
H1_5 H 0.536311 0.072437 0.207410
H4_5 H 0.536126 0.072437 0.292590
N2_5 N 0.4246(6) 0.8493(5) 0.2128(4)
C4_5 C 0.4818(9) 0.9636(8) 0.250000
N4_5 N 0.46157(59) 0.9231(4) 0.3124(3)
N5_5 N 0.4247(8) 0.8493(5) 0.2872(4)
N2_6 N 0.5753(3) 0.4246(6) 0.7128(4)
N3_6 N 0.4768(4) 0.5232(9) 0.750000
H1_6 H 0.463874 0.536311 0.707410
C4_6 C 0.5182(4) 0.4818(9) 0.750000
N4_6 N 0.53847(44) 0.46157(59) 0.8124(3)
N5_6 N 0.5754(6) 0.4247(8) 0.7872(4)
H4_6 H 0.463689 0.536126 0.792590
O1_3 O 0.5398(4) 0.76988(18) 0.5322(3)
O2_3 O 0.5156(3) 0.8863(2) 0.4753(2)
C1_3 C 0.5402(4) 0.8965(3) 0.5417(3)
C2_3 C 0.5603(5) 0.8370(4) 0.5743(3)
C3_3 C 0.5951(6) 0.8336(5) 0.6398(4)
H2_3 H 0.615480 0.872771 0.678008
O4_3 O 0.5156(3) 0.6293(4) 0.4753(2)
C5_3 C 0.5402(4) 0.6437(5) 0.5417(3)
C6_3 C 0.5603(5) 0.7233(6) 0.5743(3)
C7_3 C 0.5951(6) 0.7615(8) 0.6398(4)
H3_3 H 0.615480 0.742709 0.678008
O6_5 O 0.23008(44) 0.4602(4) 0.5322(3)
O7_5 O 0.3707(4) 0.4844(3) 0.4753(2)
C8_5 C 0.3563(5) 0.4598(4) 0.5417(3)
C9_5 C 0.2767(6) 0.4397(5) 0.5743(3)
C10_5 C 0.2385(8) 0.4049(6) 0.6398(4)
H5_5 H 0.257291 0.384520 0.678008
O9_3 O 0.1137(2) 0.4844(3) 0.4753(2)
C11_5 C 0.1035(3) 0.4598(4) 0.5417(3)
C12_5 C 0.1630(4) 0.4397(5) 0.5743(3)
C13_5 C 0.1664(5) 0.4049(6) 0.6398(4)
H6_5 H 0.127229 0.384520 0.678008
O11_3 O 0.3707(4) 0.8863(2) 0.4753(2)
O1_4 O 0.76992(44) 0.5398(4) 0.0322(3)
C1_4 C 0.6437(5) 0.5402(4) 0.0417(3)
C2_4 C 0.7233(6) 0.5603(5) 0.0743(3)
C3_4 C 0.7615(8) 0.5951(6) 0.1398(4)
H2_4 H 0.742709 0.615480 0.178008
C5_4 C 0.8965(6) 0.5402(4) 0.0417(3)
C6_4 C 0.8370(8) 0.5603(5) 0.0743(3)
C7_4 C 0.8336(10) 0.5951(6) 0.1398(4)
H3_4 H 0.872771 0.615480 0.178008
O6_6 O 0.76988(59) 0.23008(44) 0.0322(3)
C8_6 C 0.8965(6) 0.3563(5) 0.0417(3)
C9_6 C 0.8370(8) 0.2767(6) 0.0743(3)
C10_6 C 0.8336(10) 0.2385(8) 0.1398(4)
H5_6 H 0.872771 0.257291 0.178008
C11_6 C 0.6437(5) 0.1035(3) 0.0417(3)
C12_6 C 0.7233(6) 0.1630(4) 0.0743(3)
C13_6 C 0.7615(8) 0.1664(5) 0.1398(4)
H6_6 H 0.742709 0.127229 0.178008
O2_4 O 0.6293(4) 0.5156(3) 0.9753(2)
O4_4 O 0.8863(5) 0.5156(3) 0.9753(2)
O7_6 O 0.8863(5) 0.3707(4) 0.9753(2)
O9_4 O 0.6293(4) 0.1137(2) 0.9753(2)
O11_4 O 0.4844(4) 0.3707(4) 0.9753(2)
O1_5 O 0.23012(18) 0.76992(44) 0.5322(3)
O2_5 O 0.1137(2) 0.6293(4) 0.4753(2)
C1_5 C 0.1035(3) 0.6437(5) 0.5417(3)
C2_5 C 0.1630(4) 0.7233(6) 0.5743(3)
C3_5 C 0.1664(5) 0.7615(8) 0.6398(4)
H2_5 H 0.127229 0.742709 0.678008
C5_5 C 0.3563(5) 0.8965(6) 0.5417(3)
C6_5 C 0.2767(6) 0.8370(8) 0.5743(3)
C7_5 C 0.2385(8) 0.8336(10) 0.6398(4)
H3_5 H 0.257291 0.872771 0.678008
O1_6 O 0.4602(4) 0.23012(18) 0.0322(3)
C1_6 C 0.4598(4) 0.1035(3) 0.0417(3)
C2_6 C 0.4397(5) 0.1630(4) 0.0743(3)
C3_6 C 0.4049(6) 0.1664(5) 0.1398(4)
H2_6 H 0.384520 0.127229 0.178008
C5_6 C 0.4598(4) 0.3563(5) 0.0417(3)
C6_6 C 0.4397(5) 0.2767(6) 0.0743(3)
C7_6 C 0.4049(6) 0.2385(8) 0.1398(4)
H3_6 H 0.384520 0.257291 0.178008
O2_6 O 0.4844(3) 0.1137(2) 0.9753(2)
loop_
_geom_bond_atom_site_label_1
_geom_bond_atom_site_label_2
_geom_bond_site_symmetry_1
_geom_bond_site_symmetry_2
Zn1 O2 1_555 1_555
N1 Zn1 1_555 1_555
N2 N1 1_555 1_555
C4 N1 1_555 1_555
N4 C4 1_555 1_555
N5 N2 1_555 1_555
Zn2 O4 1_555 1_555
O7 Zn2 1_555 1_555
Zn3 O9 1_555 1_555
Zn5 N4 1_555 1_555
O11 Zn1 1_555 1_555
O12 Zn2 1_555 1_555
O15 Zn2 1_555 1_555
N6 Zn2 1_555 1_555
N4 N5 1_555 1_555
O1 C2 1_555 1_555
O3 C1 1_555 1_555
C1 C2 1_555 1_555
C2 C3 1_555 1_555
C3 H2 1_555 1_555
O5 C5 1_555 1_555
C5 C6 1_555 1_555
C6 O1 1_555 1_555
C7 C3 1_555 1_555
H3 C7 1_555 1_555
O6 C9 1_555 1_555
O8 C8 1_555 1_555
C9 C8 1_555 1_555
C10 C9 1_555 1_555
H5 C10 1_555 1_555
O10 C11 1_555 1_555
C11 C12 1_555 1_555
C12 O6 1_555 1_555
C13 C10 1_555 1_555
H6 C13 1_555 1_555
Zn4 O5 1_555 1_555
C6 C7 1_555 1_555
O8 Zn4 1_555 1_555
C12 C13 1_555 1_555
N3 H1 1_555 1_555
H4 N3 1_555 1_555
Zn1_2 O2_2 1_555 1_555
O1_2 C2_2 1_555 1_555
O2_2 C1_2 1_555 1_555
O3_2 C1_2 1_555 1_555
N1_2 Zn1_2 1_555 1_555
N2_2 N1_2 1_555 1_555
C1_2 C2_2 1_555 1_555
C2_2 C3_2 1_555 1_555
C3_2 H2_2 1_555 1_555
C4_2 N1_2 1_555 1_555
O4_2 C5_2 1_555 1_555
O5_2 C5_2 1_555 1_555
C5_2 C6_2 1_555 1_555
C6_2 O1_2 1_555 1_555
C7_2 C3_2 1_555 1_555
H3_2 C7_2 1_555 1_555
N4_2 C4_2 1_555 1_555
N5_2 N2_2 1_555 1_555
Zn2_2 O4_2 1_555 1_555
O6_2 C9_2 1_555 1_555
O7_2 Zn2_2 1_555 1_555
O8_2 C8_2 1_555 1_555
C8_2 O7_2 1_555 1_555
C9_2 C8_2 1_555 1_555
C10_2 C9_2 1_555 1_555
H5_2 C10_2 1_555 1_555
O9_2 C11_2 1_555 1_555
O10_2 C11_2 1_555 1_555
C11_2 C12_2 1_555 1_555
C12_2 O6_2 1_555 1_555
C13_2 C10_2 1_555 1_555
H6_2 C13_2 1_555 1_555
Zn3_2 O9_2 1_555 1_555
Zn6 N4_2 1_555 1_555
Zn6_2 O10_2 1_555 1_555
O11_2 Zn1_2 1_555 1_555
N6_2 Zn2_2 1_555 1_555
C6_2 C7_2 1_555 1_555
N4_2 N5_2 1_555 1_555
C12_2 C13_2 1_555 1_555
N3_2 H1_2 1_555 1_555
H4_2 N3_2 1_555 1_555
N2_3 N6 1_555 1_555
N3_3 H1_3 1_555 1_555
C4_3 N6 1_555 1_555
N4_3 C4_3 1_555 1_555
N5_3 N2_3 1_555 1_555
H4_3 N3_3 1_555 1_555
O7_3 Zn3 1_555 1_555
Zn6_2 N4_3 1_555 1_555
N6_3 Zn3 1_555 1_555
N3_3 C4_3 1_555 1_555
N4_3 N5_3 1_555 1_555
O6_3 C9_3 1_555 1_555
O8_3 C8_3 1_555 1_555
C9_3 C8_3 1_555 1_555
C10_3 C9_3 1_555 1_555
H5_3 C10_3 1_555 1_555
O10_3 C11_3 1_555 1_555
C11_3 C12_3 1_555 1_555
C12_3 O6_3 1_555 1_555
C13_3 C10_3 1_555 1_555
H6_3 C13_3 1_555 1_555
C12_3 C13_3 1_555 1_555
N3_4 H1_4 1_555 1_555
H4_4 N3_4 1_555 1_555
N2_4 N6_2 1_555 1_555
C4_4 N6_2 1_555 1_555
N4_4 C4_4 1_555 1_555
N5_4 N2_4 1_555 1_555
O6_4 C9_4 1_555 1_555
O7_4 Zn3_2 1_555 1_555
O8_4 C8_4 1_555 1_555
C8_4 O7_4 1_555 1_555
C9_4 C8_4 1_555 1_555
C10_4 C9_4 1_555 1_555
H5_4 C10_4 1_555 1_555
O11_2 C11_4 1_555 1_555
O10_4 C11_4 1_555 1_555
C11_4 C12_4 1_555 1_555
C12_4 O6_4 1_555 1_555
C13_4 C10_4 1_555 1_555
H6_4 C13_4 1_555 1_555
Zn7 N4_4 1_555 1_555
O12_4 Zn3_2 1_555 1_555
O15_4 Zn3_2 1_555 1_555
N6_4 Zn3_2 1_555 1_555
N4_4 N5_4 1_555 1_555
O8_4 Zn6_2 1_555 1_555
C12_4 C13_4 1_555 1_555
N3_5 H1_5 1_555 1_555
H4_5 N3_5 1_555 1_555
N2_5 N6_3 1_555 1_555
C4_5 N6_3 1_555 1_555
N4_5 C4_5 1_555 1_555
N5_5 N2_5 1_555 1_555
Zn7_2 N4_5 1_555 1_555
N4_5 N5_5 1_555 1_555
N2_6 N6_4 1_555 1_555
N3_6 H1_6 1_555 1_555
C4_6 N6_4 1_555 1_555
N4_6 C4_6 1_555 1_555
N5_6 N2_6 1_555 1_555
H4_6 N3_6 1_555 1_555
Zn4 N4_6 1_555 1_555
N3_6 C4_6 1_555 1_555
N4_6 N5_6 1_555 1_555
Zn7_2 O2_3 1_555 1_555
O1_3 C2_3 1_555 1_555
O2_3 C1_3 1_555 1_555
O13_2 C1_3 1_555 1_555
C1_3 C2_3 1_555 1_555
C2_3 C3_3 1_555 1_555
C3_3 H2_3 1_555 1_555
O4_3 C5_3 1_555 1_555
O15_4 C5_3 1_555 1_555
C5_3 C6_3 1_555 1_555
C6_3 O1_3 1_555 1_555
C7_3 C3_3 1_555 1_555
H3_3 C7_3 1_555 1_555
Zn6_2 O4_3 1_555 1_555
O6_5 C9_5 1_555 1_555
O7_5 Zn6_2 1_555 1_555
O12_4 C8_5 1_555 1_555
C8_5 O7_5 1_555 1_555
C9_5 C8_5 1_555 1_555
C10_5 C9_5 1_555 1_555
H5_5 C10_5 1_555 1_555
O9_3 C11_5 1_555 1_555
O15_2 C11_5 1_555 1_555
C11_5 C12_5 1_555 1_555
C12_5 O6_5 1_555 1_555
C13_5 C10_5 1_555 1_555
H6_5 C13_5 1_555 1_555
Zn5 O9_3 1_555 1_555
O11_3 Zn7_2 1_555 1_555
C6_3 C7_3 1_555 1_555
C12_5 C13_5 1_555 1_555
O1_4 C2_4 1_555 1_555
O12 C1_4 1_555 1_555
C1_4 C2_4 1_555 1_555
C2_4 C3_4 1_555 1_555
C3_4 H2_4 1_555 1_555
O14 C5_4 1_555 1_555
C5_4 C6_4 1_555 1_555
C6_4 O1_4 1_555 1_555
C7_4 C3_4 1_555 1_555
H3_4 C7_4 1_555 1_555
O6_6 C9_6 1_555 1_555
O13 C8_6 1_555 1_555
C9_6 C8_6 1_555 1_555
C10_6 C9_6 1_555 1_555
H5_6 C10_6 1_555 1_555
O15_3 C11_6 1_555 1_555
C11_6 C12_6 1_555 1_555
C12_6 O6_6 1_555 1_555
C13_6 C10_6 1_555 1_555
H6_6 C13_6 1_555 1_555
C6_4 C7_4 1_555 1_555
C12_6 C13_6 1_555 1_555
Zn4 O2_4 1_555 1_555
Zn7 O4_4 1_555 1_555
O7_6 Zn7 1_555 1_555
Zn6 O9_4 1_555 1_555
O11_4 Zn4 1_555 1_555
Zn5 O2_5 1_555 1_555
O1_5 C2_5 1_555 1_555
O2_5 C1_5 1_555 1_555
O12_2 C1_5 1_555 1_555
C1_5 C2_5 1_555 1_555
C2_5 C3_5 1_555 1_555
C3_5 H2_5 1_555 1_555
O11_3 C5_5 1_555 1_555
O14_2 C5_5 1_555 1_555
C5_5 C6_5 1_555 1_555
C6_5 O1_5 1_555 1_555
C7_5 C3_5 1_555 1_555
H3_5 C7_5 1_555 1_555
C6_5 C7_5 1_555 1_555
O1_6 C2_6 1_555 1_555
O12_3 C1_6 1_555 1_555
C1_6 C2_6 1_555 1_555
C2_6 C3_6 1_555 1_555
C3_6 H2_6 1_555 1_555
O15 C5_6 1_555 1_555
C5_6 C6_6 1_555 1_555
C6_6 O1_6 1_555 1_555
C7_6 C3_6 1_555 1_555
H3_6 C7_6 1_555 1_555
C6_6 C7_6 1_555 1_555
Zn6 O2_6 1_555 1_555

#END
