
###############################################################################
#
# This file contains modified crystal structure data generated from the
# MOF subset of the Cambridge Structural Database (CSD) v543 
# hosted by the Cambridge Crystallographic Data Centre (CCDC).
#
# This work is licensed under the Creative Commons
# Attribution-NonCommercial-ShareAlike 4.0 International License.
# To view a copy of this license, visit
# http://creativecommons.org/licenses/by-nc-sa/4.0/
# or send a letter to
# Creative Commons, PO Box 1866, Mountain View, CA 94042, USA.
#
# CIF created using the CSD Python API on 29 September 2022
# The structure has been converted into the P1 space group
# The structure has a 3D framework
# The original CSD entry YUMVAF is in the monoclinic crystal system
# The framework has been calculated to contain at least 10.0% void space
# The void calculation uses a probe of radius 1.32A, grid spacing 0.4
#
###############################################################################

data_YUMVAF
_chemical_formula_moiety         '(C64 H52 Cl4 Cu8 N8 O34)n'
_symmetry_cell_setting           triclinic
_symmetry_space_group_name_H-M   'P 1'
_symmetry_Int_Tables_number      1
_space_group_name_Hall           'P 1'
loop_
_symmetry_equiv_pos_site_id
_symmetry_equiv_pos_as_xyz
1 x,y,z
_cell_length_a                   8.697(6)
_cell_length_b                   25.050(17)
_cell_length_c                   11.638(8)
_cell_angle_alpha                90
_cell_angle_beta                 104.010(10)
_cell_angle_gamma                90
_cell_volume                     2460.03
loop_
_atom_site_label
_atom_site_type_symbol
_atom_site_fract_x
_atom_site_fract_y
_atom_site_fract_z
O4 O 0.1808(3) 0.04856(10) 0.22133(17)
H3 H 0.0864 0.0807 0.0098
C3 C 0.2247(3) 0.01499(11) 0.0416(2)
C8 C 0.2506(3) 0.01485(12) 0.1761(2)
Cu5 Cu 0.27507(4) 0.084852(12) 0.40521(3)
Cu1 Cu 0.58793(4) 0.033192(12) 0.60365(2)
Cl1 Cl 0.75889(11) 0.10140(4) 0.60414(8)
O1 O 0.3567(2) 0.05262(9) 0.66777(17)
O2 O 0.1848(2) 0.03370(8) 0.49698(15)
O6 O 0.6664(3) 0.33427(11) 0.0491(2)
O7 O 0.3624(3) 0.14424(9) 0.3320(2)
O8 O 0.5650(3) 0.10552(10) 0.2763(2)
O9 O 0.4742(2) 0.04340(7) 0.43822(14)
H1 H 0.5455 0.0567 0.3912
N1 N 0.1588(3) 0.01098(10) 0.79894(19)
N2 N 0.4283(3) 0.26219(9) 0.0093(2)
C1 C 0.0971(4) 0.05014(14) 0.8518(3)
H2 H 0.0321 0.0756 0.8059
C2 C 0.1290(4) 0.05315(13) 0.9736(2)
C6 C 0.1143(4) 0.00653(15) 0.6678(2)
H6 H 0.0101 0.0221 0.6380
C7 C 0.2315(3) 0.03409(11) 0.6090(2)
C9 C 0.3242(4) 0.26132(14) 0.0775(4)
H8 H 0.2444 0.2869 0.0668
C10 C 0.3348(4) 0.22277(13) 0.1633(4)
H9 H 0.2633 0.2226 0.2112
C11 C 0.4520(3) 0.18431(11) 0.1782(3)
C12 C 0.5575(4) 0.18577(13) 0.1059(3)
H10 H 0.6371 0.1603 0.1140
C13 C 0.5426(4) 0.22544(13) 0.0221(3)
C16 C 0.4632(4) 0.14025(11) 0.2700(3)
O10 O 0.6593(3) 0.02152(9) 0.77249(16)
O12 O 0.0755(2) 0.12563(9) 0.37524(18)
C4 C 0.7091(4) 0.02409(13) 0.0154(3)
C5 C 0.7442(4) 0.02532(14) 0.1374(3)
H5 H 0.7000 0.0517 0.1757
H7 H 0.8924 0.0309 0.3540
H4 H 0.6411 0.0494 0.9717
O6_2 O 0.1664(3) 0.16573(11) 0.5491(2)
O8_2 O 0.0650(3) 0.39448(10) 0.7763(2)
H1_2 H 0.0455 0.4433 0.8912
C12_2 C 0.0575(4) 0.31423(13) 0.6059(3)
H10_2 H 0.1371 0.3397 0.6140
C13_2 C 0.0426(4) 0.27456(13) 0.5221(3)
H11 H 0.1133 0.2733 0.4737
C15 C 0.0688(3) 0.15944(11) 0.4549(3)
O5 O 0.5755(2) 0.37437(9) 0.87524(18)
H11_2 H 0.6133 0.2267 0.9737
C14 C 0.4214(4) 0.30504(12) 0.9213(3)
H12 H 0.3274 0.3266 0.9168
H13 H 0.4141 0.2894 0.8439
C15_2 C 0.5688(3) 0.34056(11) 0.9549(3)
Cu6 Cu 0.77507(4) 0.415148(12) 0.90521(3)
Cu1_2 Cu 0.91207(4) 0.533192(12) 0.89635(2)
Cl1_2 Cl 0.74111(11) 0.60140(4) 0.89586(8)
O10_2 O 0.8407(3) 0.52152(9) 0.72751(16)
O13 O 0.9742(2) 0.45660(7) 0.93822(14)
O1_2 O 0.8567(2) 0.44738(9) 0.16777(17)
O4_2 O 0.6808(3) 0.45144(10) 0.72133(17)
N1_2 N 0.6588(3) 0.48902(10) 0.29894(19)
C1_2 C 0.5971(4) 0.44986(14) 0.3518(3)
H2_2 H 0.5321 0.4244 0.3059
C2_2 C 0.6290(4) 0.44685(13) 0.4736(2)
H3_2 H 0.5864 0.4193 0.5098
C3_2 C 0.7247(3) 0.48501(11) 0.5416(2)
C4_2 C 0.7909(4) 0.52409(13) 0.4846(3)
H4_2 H 0.8589 0.5494 0.5283
C5_2 C 0.7558(4) 0.52532(14) 0.3626(3)
H5_2 H 0.8000 0.5517 0.3243
C6_2 C 0.6143(4) 0.49347(15) 0.1678(2)
H6_2 H 0.5101 0.4779 0.1380
H7_2 H 0.6076 0.5309 0.1460
C7_2 C 0.7315(3) 0.46591(11) 0.1090(2)
C8_2 C 0.7506(3) 0.48515(12) 0.6761(2)
O2_2 O 0.6848(2) 0.46630(8) 0.99698(15)
O7_2 O 0.8624(3) 0.35576(9) 0.8320(2)
N2_2 N 0.9283(3) 0.23781(9) 0.5093(2)
C9_2 C 0.8242(4) 0.23868(14) 0.5775(4)
H8_2 H 0.7444 0.2131 0.5668
C10_2 C 0.8348(4) 0.27723(13) 0.6633(4)
H9_2 H 0.7633 0.2774 0.7112
C11_2 C 0.9520(3) 0.31569(11) 0.6782(3)
C14_2 C 0.9214(4) 0.19496(12) 0.4213(3)
H12_2 H 0.8274 0.1734 0.4168
H13_2 H 0.9141 0.2106 0.3439
C16_2 C 0.9632(4) 0.35975(11) 0.7700(3)
O3 O 0.3407(3) 0.97848(9) 0.22751(16)
H4_3 H 0.3589 0.9506 0.0283
Cu4 Cu 0.41207(4) 0.966808(12) 0.39635(2)
C4_3 C 0.2909(4) 0.97591(13) 0.9846(3)
C5_3 C 0.2558(4) 0.97468(14) 0.8626(3)
H5_3 H 0.3000 0.9483 0.8243
H7_3 H 0.1076 0.9691 0.6460
O13_2 O 0.5258(2) 0.95660(7) 0.56178(14)
O5_2 O 0.9245(2) 0.87437(9) 0.62476(18)
O6_3 O 0.8336(3) 0.83427(11) 0.4509(2)
O8_3 O 0.9350(3) 0.60552(10) 0.2237(2)
H1_3 H 0.9545 0.5567 0.1088
C12_3 C 0.9425(4) 0.68577(13) 0.3941(3)
H10_3 H 0.8629 0.6603 0.3860
C13_3 C 0.9574(4) 0.72544(13) 0.4779(3)
H11_3 H 0.8867 0.7267 0.5263
C15_3 C 0.9312(3) 0.84056(11) 0.5451(3)
Cu6_2 Cu 0.72493(4) 0.915148(12) 0.59479(3)
Cl1_3 Cl 0.24111(11) 0.89860(4) 0.39586(8)
O1_3 O 0.6433(2) 0.94738(9) 0.33223(17)
O2_3 O 0.8152(2) 0.96630(8) 0.50302(15)
O6_4 O 0.3336(3) 0.66573(11) 0.9509(2)
O7_3 O 0.6376(3) 0.85576(9) 0.6680(2)
O8_4 O 0.4350(3) 0.89448(10) 0.7237(2)
H1_4 H 0.4545 0.9433 0.6088
N1_3 N 0.8412(3) 0.98902(10) 0.20106(19)
N2_3 N 0.5717(3) 0.73781(9) 0.9907(2)
C1_3 C 0.9029(4) 0.94986(14) 0.1482(3)
H2_3 H 0.9679 0.9244 0.1941
C2_3 C 0.8710(4) 0.94685(13) 0.0264(2)
C6_3 C 0.8857(4) 0.99347(15) 0.3322(2)
H6_3 H 0.9899 0.9779 0.3620
C7_3 C 0.7685(3) 0.96591(11) 0.3910(2)
C9_3 C 0.6758(4) 0.73868(14) 0.9225(4)
H8_3 H 0.7556 0.7131 0.9332
C10_3 C 0.6652(4) 0.77723(13) 0.8367(4)
H9_3 H 0.7367 0.7774 0.7888
C11_3 C 0.5480(3) 0.81569(11) 0.8218(3)
C12_4 C 0.4425(4) 0.81423(13) 0.8941(3)
H10_4 H 0.3629 0.8397 0.8860
C13_4 C 0.4574(4) 0.77456(13) 0.9779(3)
C16_3 C 0.5368(4) 0.85975(11) 0.7300(3)
O11 O 0.8192(3) 0.95144(10) 0.77867(17)
H3_3 H 0.9136 0.9193 0.9902
C3_3 C 0.7753(3) 0.98501(11) 0.9584(2)
C8_3 C 0.7494(3) 0.98515(12) 0.8239(2)
Cu2 Cu 0.22493(4) 0.584852(12) 0.09479(3)
O2_4 O 0.3152(2) 0.53370(8) 0.00302(15)
O7_4 O 0.1376(3) 0.64424(9) 0.1680(2)
O9_2 O 0.0258(2) 0.54340(7) 0.06178(14)
N2_4 N 0.0717(3) 0.76219(9) 0.4907(2)
C9_4 C 0.1758(4) 0.76132(14) 0.4225(4)
H8_4 H 0.2556 0.7869 0.4332
C10_4 C 0.1652(4) 0.72277(13) 0.3367(4)
H9_4 H 0.2367 0.7226 0.2888
C11_4 C 0.0480(3) 0.68431(11) 0.3218(3)
C14_3 C 0.0786(4) 0.80504(12) 0.5787(3)
H12_3 H 0.1726 0.8266 0.5832
H13_3 H 0.0859 0.7894 0.6561
C16_4 C 0.0368(4) 0.64025(11) 0.2300(3)
Cu3 Cu 0.08793(4) 0.466808(12) 0.10365(2)
O11_2 O 0.3192(3) 0.54856(10) 0.27867(17)
O12_2 O 0.4245(2) 0.62563(9) 0.12476(18)
O1_4 O 0.1433(2) 0.55262(9) 0.83223(17)
O3_2 O 0.1593(3) 0.47848(9) 0.27249(16)
N1_4 N 0.3412(3) 0.51098(10) 0.70106(19)
C1_4 C 0.4029(4) 0.55014(14) 0.6482(3)
H2_4 H 0.4679 0.5756 0.6941
C2_4 C 0.3710(4) 0.55315(13) 0.5264(2)
H3_4 H 0.4136 0.5807 0.4902
C3_4 C 0.2753(3) 0.51499(11) 0.4584(2)
C4_4 C 0.2091(4) 0.47591(13) 0.5154(3)
H4_4 H 0.1411 0.4506 0.4717
C5_4 C 0.2442(4) 0.47468(14) 0.6374(3)
H5_4 H 0.2000 0.4483 0.6757
C6_4 C 0.3857(4) 0.50653(15) 0.8322(2)
H6_4 H 0.4899 0.5221 0.8620
H7_4 H 0.3924 0.4691 0.8540
C7_4 C 0.2685(3) 0.53409(11) 0.8910(2)
C8_4 C 0.2494(3) 0.51485(12) 0.3239(2)
H11_4 H 0.3867 0.7733 0.0263
C14_4 C 0.5786(4) 0.69496(12) 0.0787(3)
H12_4 H 0.6726 0.6734 0.0832
H13_4 H 0.5859 0.7106 0.1561
C15_4 C 0.4312(3) 0.65944(11) 0.0451(3)
Cl1_4 Cl 0.25889(11) 0.39860(4) 0.10414(8)
loop_
_geom_bond_atom_site_label_1
_geom_bond_atom_site_label_2
_geom_bond_site_symmetry_1
_geom_bond_site_symmetry_2
O4 C8 1_555 1_555
C8 C3 1_555 1_555
Cu5 O4 1_555 1_555
Cu1 Cl1 1_555 1_555
Cu5 O2 1_555 1_555
O1 Cu1 1_555 1_555
O2 C7 1_555 1_555
O7 Cu5 1_555 1_555
O8 C16 1_555 1_555
O9 Cu1 1_555 1_555
H1 O9 1_555 1_555
N1 C1 1_555 1_555
N2 C9 1_555 1_555
C1 H2 1_555 1_555
C2 C1 1_555 1_555
C6 N1 1_555 1_555
H6 C6 1_555 1_555
C7 O1 1_555 1_555
C9 H8 1_555 1_555
C10 C9 1_555 1_555
H9 C10 1_555 1_555
C11 C10 1_555 1_555
C12 C11 1_555 1_555
H10 C12 1_555 1_555
C13 N2 1_555 1_555
C16 O7 1_555 1_555
O10 Cu1 1_555 1_555
O12 Cu5 1_555 1_555
Cu5 O9 1_555 1_555
C6 C7 1_555 1_555
C11 C16 1_555 1_555
C12 C13 1_555 1_555
H5 C5 1_555 1_555
C4 C5 1_555 1_555
O12 C15 1_555 1_555
O6_2 C15 1_555 1_555
H10_2 C12_2 1_555 1_555
H11 C13_2 1_555 1_555
C12_2 C13_2 1_555 1_555
O5 C15_2 1_555 1_555
H12 C14 1_555 1_555
H13 C14 1_555 1_555
C15_2 C14 1_555 1_555
Cu6 O5 1_555 1_555
Cu1_2 Cl1_2 1_555 1_555
O10_2 Cu1_2 1_555 1_555
O13 Cu1_2 1_555 1_555
O10_2 C8_2 1_555 1_555
O4_2 C8_2 1_555 1_555
N1_2 C1_2 1_555 1_555
C1_2 H2_2 1_555 1_555
C2_2 C1_2 1_555 1_555
H3_2 C2_2 1_555 1_555
C3_2 C2_2 1_555 1_555
C4_2 C3_2 1_555 1_555
H4_2 C4_2 1_555 1_555
C5_2 N1_2 1_555 1_555
H5_2 C5_2 1_555 1_555
C6_2 N1_2 1_555 1_555
H6_2 C6_2 1_555 1_555
H7_2 C6_2 1_555 1_555
C7_2 O1_2 1_555 1_555
C8_2 C3_2 1_555 1_555
Cu6 O4_2 1_555 1_555
C4_2 C5_2 1_555 1_555
C6_2 C7_2 1_555 1_555
Cu6 O2_2 1_555 1_555
O7_2 Cu6 1_555 1_555
N2_2 C9_2 1_555 1_555
C9_2 H8_2 1_555 1_555
C10_2 C9_2 1_555 1_555
H9_2 C10_2 1_555 1_555
C11_2 C10_2 1_555 1_555
C14_2 N2_2 1_555 1_555
H12_2 C14_2 1_555 1_555
H13_2 C14_2 1_555 1_555
C16_2 O7_2 1_555 1_555
Cu6 O13 1_555 1_555
C11_2 C16_2 1_555 1_555
Cu4 O3 1_555 1_555
H5_3 C5_3 1_555 1_555
C4_3 C5_3 1_555 1_555
Cu4 O13_2 1_555 1_555
O5_2 C15_3 1_555 1_555
O6_3 C15_3 1_555 1_555
H10_3 C12_3 1_555 1_555
H11_3 C13_3 1_555 1_555
Cu6_2 O5_2 1_555 1_555
C12_3 C13_3 1_555 1_555
Cu4 Cl1_3 1_555 1_555
Cu6_2 O2_3 1_555 1_555
O1_3 Cu4 1_555 1_555
O2_3 C7_3 1_555 1_555
O7_3 Cu6_2 1_555 1_555
O8_4 C16_3 1_555 1_555
H1_4 O13_2 1_555 1_555
N1_3 C1_3 1_555 1_555
N2_3 C9_3 1_555 1_555
C1_3 H2_3 1_555 1_555
C2_3 C1_3 1_555 1_555
C6_3 N1_3 1_555 1_555
H6_3 C6_3 1_555 1_555
C7_3 O1_3 1_555 1_555
C9_3 H8_3 1_555 1_555
C10_3 C9_3 1_555 1_555
H9_3 C10_3 1_555 1_555
C11_3 C10_3 1_555 1_555
C12_4 C11_3 1_555 1_555
H10_4 C12_4 1_555 1_555
C13_4 N2_3 1_555 1_555
C16_3 O7_3 1_555 1_555
O11 Cu6_2 1_555 1_555
Cu6_2 O13_2 1_555 1_555
C6_3 C7_3 1_555 1_555
C11_3 C16_3 1_555 1_555
C12_4 C13_4 1_555 1_555
O11 C8_3 1_555 1_555
C8_3 C3_3 1_555 1_555
Cu2 O2_4 1_555 1_555
O7_4 Cu2 1_555 1_555
N2_4 C9_4 1_555 1_555
C9_4 H8_4 1_555 1_555
C10_4 C9_4 1_555 1_555
H9_4 C10_4 1_555 1_555
C11_4 C10_4 1_555 1_555
C14_3 N2_4 1_555 1_555
H12_3 C14_3 1_555 1_555
H13_3 C14_3 1_555 1_555
C16_4 O7_4 1_555 1_555
Cu3 O9_2 1_555 1_555
O11_2 Cu2 1_555 1_555
O12_2 Cu2 1_555 1_555
Cu2 O9_2 1_555 1_555
C11_4 C16_4 1_555 1_555
O3_2 C8_4 1_555 1_555
O11_2 C8_4 1_555 1_555
N1_4 C1_4 1_555 1_555
C1_4 H2_4 1_555 1_555
C2_4 C1_4 1_555 1_555
H3_4 C2_4 1_555 1_555
C3_4 C2_4 1_555 1_555
C4_4 C3_4 1_555 1_555
H4_4 C4_4 1_555 1_555
C5_4 N1_4 1_555 1_555
H5_4 C5_4 1_555 1_555
C6_4 N1_4 1_555 1_555
H6_4 C6_4 1_555 1_555
H7_4 C6_4 1_555 1_555
C7_4 O1_4 1_555 1_555
C8_4 C3_4 1_555 1_555
Cu3 O3_2 1_555 1_555
C4_4 C5_4 1_555 1_555
C6_4 C7_4 1_555 1_555
O12_2 C15_4 1_555 1_555
H12_4 C14_4 1_555 1_555
H13_4 C14_4 1_555 1_555
C15_4 C14_4 1_555 1_555
Cu3 Cl1_4 1_555 1_555

#END
