
###############################################################################
#
# This file contains modified crystal structure data generated from the
# MOF subset of the Cambridge Structural Database (CSD) v543 
# hosted by the Cambridge Crystallographic Data Centre (CCDC).
#
# This work is licensed under the Creative Commons
# Attribution-NonCommercial-ShareAlike 4.0 International License.
# To view a copy of this license, visit
# http://creativecommons.org/licenses/by-nc-sa/4.0/
# or send a letter to
# Creative Commons, PO Box 1866, Mountain View, CA 94042, USA.
#
# CIF created using the CSD Python API on 29 September 2022
# The structure has been converted into the P1 space group
# The structure has a 3D framework
# The original CSD entry YUNJUO is in the triclinic crystal system
# The framework has been calculated to contain at least 10.0% void space
# The void calculation uses a probe of radius 1.32A, grid spacing 0.4
#
###############################################################################

data_YUNJUO
_chemical_formula_moiety         '(C34 H20 Ca3 O8)n'
_symmetry_cell_setting           triclinic
_symmetry_space_group_name_H-M   'P 1'
_symmetry_Int_Tables_number      1
_space_group_name_Hall           'P 1'
loop_
_symmetry_equiv_pos_site_id
_symmetry_equiv_pos_as_xyz
1 x,y,z
_cell_length_a                   5.1812(3)
_cell_length_b                   10.7420(6)
_cell_length_c                   15.1224(6)
_cell_angle_alpha                82.466(4)
_cell_angle_beta                 84.928(4)
_cell_angle_gamma                82.691(5)
_cell_volume                     825.409
loop_
_atom_site_label
_atom_site_type_symbol
_atom_site_fract_x
_atom_site_fract_y
_atom_site_fract_z
Ca6 Ca -0.0000 0.0000 -0.0000
Ca6_2 Ca 0.0000 0.0000 1.0000
Ca6_3 Ca 0.0000 1.0000 -0.0000
Ca6_4 Ca 0.0000 1.0000 1.0000
Ca6_5 Ca 1.0000 0.0000 -0.0000
C2 C 0.0857(5) 0.5673(3) 0.56424(17)
C3 C 0.0997(5) 0.4348(3) 0.57933(17)
C4 C 0.1897(5) 0.3598(3) 0.66371(18)
C5 C 0.4160(6) 0.2736(3) 0.66223(18)
H2 H 0.5085 0.2589 0.6068
C6 C 0.5060(6) 0.2093(3) 0.74146(18)
H3 H 0.6636 0.1535 0.7402
C7 C 0.1337(5) 0.3083(3) 0.82434(18)
H4 H 0.0337 0.3178 0.8793
C8 C 0.0496(5) 0.3758(3) 0.74507(18)
C9 C 0.3660(5) 0.2264(3) 0.82281(17)
C10 C 0.4674(5) 0.1601(3) 0.90891(18)
C11 C 0.1734(5) 0.6431(3) 0.63030(17)
C12 C 0.4016(5) 0.6035(3) 0.67280(18)
H6 H 0.5134 0.5321 0.6558
C13 C 0.4676(5) 0.6677(3) 0.74000(18)
H7 H 0.6230 0.6395 0.7694
C14 C 0.3054(5) 0.7738(3) 0.76433(18)
C15 C 0.0828(6) 0.8175(3) 0.71869(18)
C16 C 0.0198(6) 0.7534(3) 0.65131(18)
C17 C 0.3591(6) 0.8354(3) 0.84231(18)
O1 O 0.3005(4) 0.14812(19) 0.97672(12)
O2 O 0.7037(4) 0.1233(2) 0.91043(14)
O3 O 0.1984(4) 0.9143(2) 0.87453(13)
O4 O 0.5872(4) 0.7974(2) 0.87251(14)
H10 H 0.6054 0.8356 0.9162
C18 C 0.0158(5) 0.3703(3) 0.51459(17)
H11 H 0.0282 0.2807 0.5245
H15 H 0.1054 0.5665 0.2535
H18 H 0.0255 0.1090 0.2662
H19 H 0.1290 0.2153 0.3809
Ca6_6 Ca 1.0000 0.0000 1.0000
O11 O 0.2963(4) 0.8767(2) 0.08957(14)
Ca6_7 Ca 1.0000 1.0000 -0.0000
Ca6_8 Ca 1.0000 1.0000 1.0000
O13 O 0.8016(4) 0.0857(2) 0.12547(13)
C1 C 0.9842(5) 0.6297(3) 0.48541(17)
H1 H 0.9718 0.7193 0.4755
H5 H 0.8946 0.4335 0.7465
H8 H 0.9745 0.8910 0.7338
H9 H 0.8710 0.7847 0.6191
C19 C 0.9143(5) 0.4327(3) 0.43576(17)
C20 C 0.9003(5) 0.5652(3) 0.42067(17)
C21 C 0.8103(5) 0.6402(3) 0.33629(18)
C22 C 0.5840(6) 0.7264(3) 0.33777(18)
H12 H 0.4915 0.7411 0.3932
C23 C 0.4940(6) 0.7907(3) 0.25854(18)
H13 H 0.3364 0.8465 0.2598
C24 C 0.8663(5) 0.6917(3) 0.17566(18)
H14 H 0.9663 0.6822 0.1207
C25 C 0.9504(5) 0.6242(3) 0.25493(18)
C26 C 0.6340(5) 0.7736(3) 0.17719(17)
C27 C 0.5326(5) 0.8399(3) 0.09109(18)
C28 C 0.8266(5) 0.3569(3) 0.36970(17)
C29 C 0.5984(5) 0.3965(3) 0.32720(18)
H16 H 0.4866 0.4679 0.3442
C30 C 0.5324(5) 0.3323(3) 0.26000(18)
H17 H 0.3770 0.3605 0.2306
C31 C 0.6946(5) 0.2262(3) 0.23567(18)
C32 C 0.9172(6) 0.1825(3) 0.28131(18)
C33 C 0.9802(6) 0.2466(3) 0.34869(18)
C34 C 0.6409(6) 0.1646(3) 0.15769(18)
O5 O 0.6995(4) 0.85188(19) 0.02328(12)
O8 O 0.4128(4) 0.2026(2) 0.12749(14)
H20 H 0.3946 0.1644 0.0838
loop_
_geom_bond_atom_site_label_1
_geom_bond_atom_site_label_2
_geom_bond_site_symmetry_1
_geom_bond_site_symmetry_2
C3 C2 1_555 1_555
C4 C3 1_555 1_555
C5 C4 1_555 1_555
H2 C5 1_555 1_555
C6 C5 1_555 1_555
H3 C6 1_555 1_555
C7 H4 1_555 1_555
C8 C4 1_555 1_555
C9 C6 1_555 1_555
C10 C9 1_555 1_555
C11 C2 1_555 1_555
C12 C11 1_555 1_555
H6 C12 1_555 1_555
C13 C12 1_555 1_555
H7 C13 1_555 1_555
C14 C13 1_555 1_555
C15 C14 1_555 1_555
C16 C11 1_555 1_555
C17 C14 1_555 1_555
O1 C10 1_555 1_555
O2 C10 1_555 1_555
O3 C17 1_555 1_555
O4 C17 1_555 1_555
H10 O4 1_555 1_555
Ca6_2 O1 1_555 1_555
C18 C3 1_555 1_555
H11 C18 1_555 1_555
Ca6_4 O3 1_555 1_555
Ca6_6 O2 1_555 1_555
C7 C8 1_555 1_555
C7 C9 1_555 1_555
C15 C16 1_555 1_555
O11 Ca6_3 1_555 1_555
O13 Ca6_5 1_555 1_555
C1 H1 1_555 1_555
C20 C1 1_555 1_555
C21 C20 1_555 1_555
C22 C21 1_555 1_555
H12 C22 1_555 1_555
C23 C22 1_555 1_555
H13 C23 1_555 1_555
C24 H14 1_555 1_555
C25 C21 1_555 1_555
C26 C23 1_555 1_555
C27 C26 1_555 1_555
C28 C19 1_555 1_555
C29 C28 1_555 1_555
H16 C29 1_555 1_555
C30 C29 1_555 1_555
H17 C30 1_555 1_555
C31 C30 1_555 1_555
C32 C31 1_555 1_555
C33 C28 1_555 1_555
C34 C31 1_555 1_555
O5 C27 1_555 1_555
O11 C27 1_555 1_555
O13 C34 1_555 1_555
O8 C34 1_555 1_555
H20 O8 1_555 1_555
Ca6_7 O5 1_555 1_555
C19 C20 1_555 1_555
C24 C25 1_555 1_555
C24 C26 1_555 1_555
C32 C33 1_555 1_555

#END
