
###############################################################################
#
# This file contains modified crystal structure data generated from the
# MOF subset of the Cambridge Structural Database (CSD) v543 
# hosted by the Cambridge Crystallographic Data Centre (CCDC).
#
# This work is licensed under the Creative Commons
# Attribution-NonCommercial-ShareAlike 4.0 International License.
# To view a copy of this license, visit
# http://creativecommons.org/licenses/by-nc-sa/4.0/
# or send a letter to
# Creative Commons, PO Box 1866, Mountain View, CA 94042, USA.
#
# CIF created using the CSD Python API on 29 September 2022
# The structure has been converted into the P1 space group
# The structure has a 3D framework
# The original CSD entry YUNKAV is in the triclinic crystal system
# The framework has been calculated to contain at least 10.0% void space
# The void calculation uses a probe of radius 1.32A, grid spacing 0.4
#
###############################################################################

data_YUNKAV
_chemical_formula_moiety         '(C34 H20 Ca3 O8)n'
_symmetry_cell_setting           triclinic
_symmetry_space_group_name_H-M   'P 1'
_symmetry_Int_Tables_number      1
_space_group_name_Hall           'P 1'
loop_
_symmetry_equiv_pos_site_id
_symmetry_equiv_pos_as_xyz
1 x,y,z
_cell_length_a                   5.1161(3)
_cell_length_b                   10.8239(4)
_cell_length_c                   15.2598(4)
_cell_angle_alpha                82.990(2)
_cell_angle_beta                 85.885(3)
_cell_angle_gamma                83.050(4)
_cell_volume                     831.156
loop_
_atom_site_label
_atom_site_type_symbol
_atom_site_fract_x
_atom_site_fract_y
_atom_site_fract_z
Ca6 Ca 0.0000 -0.0000 0.0000
Ca6_2 Ca 0.0000 -0.0000 1.0000
Ca6_3 Ca 0.0000 1.0000 0.0000
Ca6_4 Ca 0.0000 1.0000 1.0000
Ca6_5 Ca 1.0000 -0.0000 0.0000
C2 C 0.0823(4) 0.56412(17) 0.56694(11)
C3 C 0.0973(4) 0.43225(17) 0.57818(11)
C4 C 0.1858(4) 0.35482(17) 0.66115(12)
C5 C 0.4109(4) 0.26833(18) 0.65918(12)
H2 H 0.5025 0.2540 0.6043
C6 C 0.5017(4) 0.20282(18) 0.73773(13)
H3 H 0.6586 0.1462 0.7364
C7 C 0.3635(4) 0.22007(17) 0.81785(12)
C8 C 0.1320(4) 0.30211(18) 0.81946(12)
H4 H 0.0325 0.3113 0.8737
C9 C 0.0463(4) 0.37062(18) 0.74161(12)
C10 C 0.4674(4) 0.15452(17) 0.90324(12)
C11 C 0.1684(4) 0.63697(17) 0.63547(11)
C12 C 0.3979(4) 0.59565(18) 0.67927(12)
H6 H 0.5100 0.5251 0.6621
C13 C 0.4635(4) 0.65680(19) 0.74765(12)
H7 H 0.6196 0.6277 0.7776
C14 C 0.3008(4) 0.76137(18) 0.77277(12)
C15 C 0.0779(4) 0.80704(18) 0.72628(12)
C16 C 0.0130(4) 0.74548(18) 0.65744(12)
C17 C 0.3548(4) 0.82222(18) 0.85110(12)
O1 O 0.3034(3) 0.14723(12) 0.97079(8)
O2 O 0.7047(3) 0.11340(13) 0.90431(9)
O3 O 0.1978(3) 0.90318(13) 0.88093(9)
O4 O 0.5810(3) 0.77941(15) 0.88467(9)
H10 H 0.6004 0.8170 0.9284
C18 C 0.0166(4) 0.37124(17) 0.51111(12)
H11 H 0.0292 0.2823 0.5187
H15 H 0.1085 0.5714 0.2567
H18 H 0.0295 0.1199 0.2584
H19 H 0.1375 0.2227 0.3748
Ca6_6 Ca 1.0000 -0.0000 1.0000
O11 O 0.2953(3) 0.88660(13) 0.09569(9)
Ca6_7 Ca 1.0000 1.0000 0.0000
Ca6_8 Ca 1.0000 1.0000 1.0000
O13 O 0.8022(3) 0.09682(13) 0.11907(9)
C1 C 0.9834(4) 0.62876(17) 0.48889(12)
H1 H 0.9708 0.7177 0.4813
H5 H 0.8915 0.4286 0.7433
H8 H 0.9705 0.8801 0.7416
H9 H 0.8625 0.7773 0.6252
C19 C 0.9177(4) 0.43588(17) 0.43306(11)
C20 C 0.9027(4) 0.56775(17) 0.42182(11)
C21 C 0.8142(4) 0.64518(17) 0.33885(12)
C22 C 0.5891(4) 0.73167(18) 0.34082(12)
H12 H 0.4975 0.7460 0.3957
C23 C 0.4983(4) 0.79718(18) 0.26227(13)
H13 H 0.3414 0.8538 0.2636
C24 C 0.6365(4) 0.77993(17) 0.18215(12)
C25 C 0.8680(4) 0.69789(18) 0.18054(12)
H14 H 0.9675 0.6887 0.1263
C26 C 0.9537(4) 0.62938(18) 0.25839(12)
C27 C 0.5326(4) 0.84548(17) 0.09676(12)
C28 C 0.8316(4) 0.36303(17) 0.36453(11)
C29 C 0.6021(4) 0.40435(18) 0.32073(12)
H16 H 0.4900 0.4749 0.3379
C30 C 0.5365(4) 0.34320(19) 0.25235(12)
H17 H 0.3804 0.3723 0.2224
C31 C 0.6992(4) 0.23863(18) 0.22723(12)
C32 C 0.9221(4) 0.19296(18) 0.27372(12)
C33 C 0.9870(4) 0.25452(18) 0.34256(12)
C34 C 0.6452(4) 0.17778(18) 0.14890(12)
O5 O 0.6966(3) 0.85277(12) 0.02921(8)
O8 O 0.4190(3) 0.22059(15) 0.11533(9)
H20 H 0.3996 0.1830 0.0716
loop_
_geom_bond_atom_site_label_1
_geom_bond_atom_site_label_2
_geom_bond_site_symmetry_1
_geom_bond_site_symmetry_2
C3 C2 1_555 1_555
C4 C3 1_555 1_555
C5 C4 1_555 1_555
H2 C5 1_555 1_555
C6 C5 1_555 1_555
H3 C6 1_555 1_555
C7 C6 1_555 1_555
C8 C7 1_555 1_555
H4 C8 1_555 1_555
C9 C4 1_555 1_555
C10 C7 1_555 1_555
C11 C2 1_555 1_555
C12 C11 1_555 1_555
H6 C12 1_555 1_555
C13 C12 1_555 1_555
H7 C13 1_555 1_555
C14 C13 1_555 1_555
C15 C14 1_555 1_555
C16 C11 1_555 1_555
C17 C14 1_555 1_555
O1 C10 1_555 1_555
O2 C10 1_555 1_555
O3 C17 1_555 1_555
O4 C17 1_555 1_555
H10 O4 1_555 1_555
Ca6_2 O1 1_555 1_555
C18 C3 1_555 1_555
H11 C18 1_555 1_555
Ca6_4 O3 1_555 1_555
Ca6_6 O2 1_555 1_555
C8 C9 1_555 1_555
C15 C16 1_555 1_555
O11 Ca6_3 1_555 1_555
O13 Ca6_5 1_555 1_555
C1 H1 1_555 1_555
C20 C1 1_555 1_555
C21 C20 1_555 1_555
C22 C21 1_555 1_555
H12 C22 1_555 1_555
C23 C22 1_555 1_555
H13 C23 1_555 1_555
C24 C23 1_555 1_555
C25 C24 1_555 1_555
H14 C25 1_555 1_555
C26 C21 1_555 1_555
C27 C24 1_555 1_555
C28 C19 1_555 1_555
C29 C28 1_555 1_555
H16 C29 1_555 1_555
C30 C29 1_555 1_555
H17 C30 1_555 1_555
C31 C30 1_555 1_555
C32 C31 1_555 1_555
C33 C28 1_555 1_555
C34 C31 1_555 1_555
O5 C27 1_555 1_555
O11 C27 1_555 1_555
O13 C34 1_555 1_555
O8 C34 1_555 1_555
H20 O8 1_555 1_555
Ca6_7 O5 1_555 1_555
C19 C20 1_555 1_555
C25 C26 1_555 1_555
C32 C33 1_555 1_555

#END
