
###############################################################################
#
# This file contains modified crystal structure data generated from the
# MOF subset of the Cambridge Structural Database (CSD) v543 
# hosted by the Cambridge Crystallographic Data Centre (CCDC).
#
# This work is licensed under the Creative Commons
# Attribution-NonCommercial-ShareAlike 4.0 International License.
# To view a copy of this license, visit
# http://creativecommons.org/licenses/by-nc-sa/4.0/
# or send a letter to
# Creative Commons, PO Box 1866, Mountain View, CA 94042, USA.
#
# CIF created using the CSD Python API on 29 September 2022
# The structure has been converted into the P1 space group
# The structure has a 3D framework
# The original CSD entry YUNKIC is in the monoclinic crystal system
# The framework has been calculated to contain at least 10.0% void space
# The void calculation uses a probe of radius 1.32A, grid spacing 0.4
# The framework is charged, counterions have been retained in the structure
# H atom positions have been added when not included in the experimental data
#
###############################################################################

data_YUNKIC
_chemical_formula_moiety         '(C112 H124 Cu16 F72 N64 O18 Si23 9-)n'
_symmetry_cell_setting           triclinic
_symmetry_space_group_name_H-M   'P 1'
_symmetry_Int_Tables_number      1
_space_group_name_Hall           'P 1'
loop_
_symmetry_equiv_pos_site_id
_symmetry_equiv_pos_as_xyz
1 x,y,z
_cell_length_a                   18.924(2)
_cell_length_b                   18.028(2)
_cell_length_c                   18.484(2)
_cell_angle_alpha                90
_cell_angle_beta                 109.975(2)
_cell_angle_gamma                90
_cell_volume                     5926.68
loop_
_atom_site_label
_atom_site_type_symbol
_atom_site_fract_x
_atom_site_fract_y
_atom_site_fract_z
H5 H 0.0098 0.4959 0.7865
Cu7 Cu 0.42242(6) 0.57470(7) 0.76229(7)
Cu11 Cu 0.31203(5) 0.45480(6) 0.63327(6)
N37 N 0.0009(4) 0.6561(4) 0.7030(4)
N38 N 0.1895(4) 0.6161(4) 0.6981(5)
N39 N 0.2649(4) 0.5325(4) 0.6807(4)
N41 N 0.3082(4) 0.5889(4) 0.7244(5)
H48 H 0.0120 0.7136 0.4960
C40 C 0.0391(6) 0.7978(7) 0.4380(7)
H49 H 0.0882 0.8045 0.4713
C41 C 0.0115(5) 0.8409(7) 0.3742(6)
H50 H 0.0423 0.8775 0.3655
C51 C 0.0528(6) 0.7675(6) 0.6746(8)
H59 H 0.0471 0.8180 0.6643
C52 C 0.1185(6) 0.7310(6) 0.6777(7)
H60 H 0.1579 0.7562 0.6693
C53 C 0.1229(5) 0.6569(6) 0.6935(6)
C54 C 0.0630(5) 0.6201(5) 0.7062(6)
H61 H 0.0667 0.5695 0.7169
C55 C 0.1942(5) 0.5505(5) 0.6658(5)
H62 H 0.1533 0.5220 0.6371
C56 C 0.2626(5) 0.6370(5) 0.7350(6)
H63 H 0.2773 0.6802 0.7637
H35 H 0.7607 0.0528 0.0036
H40 H 0.5269 0.0012 0.3956
C30 C 0.6341(7) 0.0099(8) 0.4017(8)
H41 H 0.6515 0.0327 0.4497
H42 H 0.7315 0.0113 0.3820
Cu5 Cu 0.57758(6) 0.07470(7) 0.73771(7)
O8 O 0.5962(3) 0.0059(4) 0.8209(4)
O10 O 0.7319(4) 0.0152(4) 0.9938(4)
H33 H 0.6888 0.0176 0.9589
N18 N 0.4676(4) 0.0461(4) 0.6975(4)
N36 N 0.5594(4) 0.1456(4) 0.6467(5)
N40 N 0.7351(4) 0.0325(4) 0.8193(4)
N42 N 0.6918(4) 0.0889(4) 0.7756(5)
O15 O 0.5624(5) 0.1782(5) 0.8197(5)
C16 C 0.6284(5) 0.8131(5) 0.0095(5)
H20 H 0.6354 0.7913 0.0570
H21 H 0.4970 0.7581 0.0321
H22 H 0.4046 0.6687 0.0079
Cu8 Cu 0.42242(6) 0.92530(7) 0.26229(7)
Cu12 Cu 0.77156(5) 0.90547(6) 0.06234(6)
Cu17 Cu 0.91059(6) 0.89115(6) 0.22425(6)
O11 O 0.8704(3) 0.9344(4) 0.1253(3)
H36 H 0.8979 0.9685 0.1080
N17 N 0.5324(4) 0.9539(4) 0.3025(4)
N19 N 0.7037(4) 0.9402(4) 0.2514(4)
N20 N 0.7464(4) 0.9195(4) 0.1587(4)
N21 N 0.8046(4) 0.9117(4) 0.2276(4)
C29 C 0.5596(6) 0.9895(7) 0.3694(7)
C31 C 0.6815(6) 0.9962(8) 0.3626(7)
C32 C 0.6541(5) 0.9594(5) 0.2935(5)
C33 C 0.5797(4) 0.9377(5) 0.2650(5)
H43 H 0.5622 0.9114 0.2189
C34 C 0.6861(5) 0.9358(5) 0.1732(5)
H44 H 0.6386 0.9432 0.1367
C35 C 0.7778(5) 0.9244(5) 0.2825(5)
H45 H 0.8052 0.9228 0.3349
O16 O 0.8049(4) 0.7687(5) 0.1302(5)
Cu3 Cu 0.77156(5) 0.59453(6) 0.56234(6)
Cu4 Cu 0.91059(6) 0.60885(6) 0.72425(6)
O1 O 0.4038(3) 0.5059(4) 0.6791(4)
H1 H 0.4425 0.4969 0.6599
O2 O 0.2681(4) 0.5152(4) 0.5062(4)
H2 H 0.3112 0.5176 0.5411
H3 H 0.2393 0.5528 0.4964
O3 O 0.8704(3) 0.5656(4) 0.6253(3)
H4 H 0.8979 0.5315 0.6080
O4 O 0.9640(5) 0.5046(4) 0.7805(4)
H6 H 0.9387 0.4732 0.7958
N1 N 0.5324(4) 0.5461(4) 0.8025(4)
N2 N 0.7037(4) 0.5598(4) 0.7514(4)
N3 N 0.7464(4) 0.5805(4) 0.6587(4)
N4 N 0.8046(4) 0.5883(4) 0.7276(4)
N5 N 0.2181(4) 0.3936(4) 0.5964(4)
N6 N 0.1884(4) 0.3738(4) 0.5201(4)
N7 N 0.1289(4) 0.3137(4) 0.5831(4)
N8 N 0.0578(4) 0.1668(4) 0.6766(5)
N9 N 0.6410(4) 0.8829(4) 0.9195(4)
N10 N 0.6710(4) 0.8652(4) 0.9969(4)
N11 N 0.5724(4) 0.7956(4) 0.9428(4)
N12 N 0.4406(4) 0.6456(4) 0.8533(5)
C1 C 0.5596(6) 0.5105(7) 0.8694(7)
H7 H 0.5269 0.4988 0.8956
C2 C 0.6341(7) 0.4901(8) 0.9017(8)
H8 H 0.6515 0.4673 0.9497
C3 C 0.6815(6) 0.5038(8) 0.8626(7)
H9 H 0.7315 0.4887 0.8820
C4 C 0.6541(5) 0.5406(5) 0.7935(5)
C5 C 0.5797(4) 0.5623(5) 0.7650(5)
H10 H 0.5622 0.5886 0.7189
C6 C 0.6861(5) 0.5642(5) 0.6732(5)
H11 H 0.6386 0.5568 0.6367
C7 C 0.7778(5) 0.5756(5) 0.7825(5)
H12 H 0.8052 0.5772 0.8349
C8 C 0.1810(5) 0.3570(5) 0.6323(5)
H13 H 0.1894 0.3604 0.6848
C9 C 0.1354(5) 0.3255(5) 0.5136(5)
H14 H 0.1065 0.3026 0.4679
C10 C 0.0781(5) 0.2622(5) 0.5980(5)
C11 C 0.0058(5) 0.2558(6) 0.5469(6)
C14 C 0.1034(5) 0.2178(5) 0.6622(5)
H18 H 0.1524 0.2230 0.6960
C15 C 0.5818(5) 0.8407(5) 0.8878(5)
H19 H 0.5513 0.8416 0.8363
C17 C 0.5154(4) 0.7411(5) 0.9326(5)
C18 C 0.4828(5) 0.7304(6) 0.9870(5)
C19 C 0.4283(6) 0.6774(6) 0.9722(6)
C20 C 0.4079(6) 0.6368(6) 0.9059(6)
H23 H 0.3698 0.6018 0.8973
C21 C 0.4939(5) 0.6980(5) 0.8667(5)
H24 H 0.5172 0.7056 0.8304
O5 O 0.3907(5) 0.4752(5) 0.8452(6)
O6 O 0.4376(5) 0.6782(5) 0.6803(5)
O7 O 0.8049(4) 0.7313(5) 0.6302(5)
Cu9 Cu 0.68797(5) 0.95480(6) 0.86673(6)
Cu10 Cu 0.68797(5) 0.54520(6) 0.36673(6)
Cu13 Cu 0.22844(5) 0.40547(6) 0.43766(6)
Cu15 Cu 0.08941(6) 0.10885(6) 0.77575(6)
H31 H 0.5575 0.9969 0.8401
O9 O 0.7319(4) 0.4848(4) 0.4938(4)
H32 H 0.6888 0.4824 0.4589
H34 H 0.7607 0.4472 0.5036
N23 N 0.7819(4) 0.6064(4) 0.4036(4)
N24 N 0.7819(4) 0.8936(4) 0.9036(4)
N25 N 0.8116(4) 0.6262(4) 0.4799(4)
N26 N 0.8116(4) 0.8738(4) 0.9799(4)
N27 N 0.8711(4) 0.6863(4) 0.4169(4)
N28 N 0.9422(4) 0.8332(4) 0.3234(5)
N29 N 0.9422(4) 0.6668(4) 0.8234(5)
N31 N 0.3590(4) 0.3829(4) 0.5805(4)
N32 N 0.3290(4) 0.3652(4) 0.5031(4)
N33 N 0.6710(4) 0.6348(4) 0.4969(4)
N34 N 0.4276(4) 0.2956(4) 0.5572(4)
C36 C 0.8190(5) 0.6430(5) 0.3677(5)
H46 H 0.8106 0.6396 0.3152
C37 C 0.8646(5) 0.6745(5) 0.4864(5)
H47 H 0.8935 0.6974 0.5321
C38 C 0.9219(5) 0.7378(5) 0.4020(5)
C39 C 0.9942(5) 0.7442(6) 0.4531(6)
C42 C 0.8966(5) 0.7822(5) 0.3378(5)
H51 H 0.8476 0.7770 0.3040
C43 C 0.4182(5) 0.3407(5) 0.6122(5)
H52 H 0.4487 0.3416 0.6637
C44 C 0.3716(5) 0.3131(5) 0.4905(5)
H53 H 0.3646 0.2913 0.4430
C45 C 0.4846(4) 0.2411(5) 0.5674(5)
C46 C 0.5172(5) 0.2304(6) 0.5130(5)
H54 H 0.5030 0.2581 0.4679
C47 C 0.5717(6) 0.1774(6) 0.5278(6)
H55 H 0.5954 0.1687 0.4921
C48 C 0.5921(6) 0.1368(6) 0.5941(6)
H56 H 0.6302 0.1018 0.6027
C49 C 0.5061(5) 0.1980(5) 0.6333(5)
H57 H 0.4828 0.2056 0.6696
C50 C 0.9964(5) 0.7273(7) 0.6870(6)
H58 H 0.9523 0.7520 0.6839
O14 O 0.6093(5) 0.9752(5) 0.6548(6)
H15 H 0.9880 0.2864 0.5040
C12 C 0.9609(6) 0.2022(7) 0.5620(7)
H16 H 0.9118 0.1955 0.5287
C13 C 0.9885(5) 0.1591(7) 0.6258(6)
H17 H 0.9577 0.1225 0.6345
H64 H 0.858208 0.607205 0.587842
C22 C 0.0036(5) 0.2273(7) 0.8130(6)
H25 H 0.0477 0.2520 0.8161
O12 O 0.1296(3) 0.0656(4) 0.8747(3)
H37 H 0.1021 0.0315 0.8920
O13 O 0.0360(5) 0.0046(4) 0.7195(4)
N22 N 0.1954(4) 0.0883(4) 0.7724(4)
H64_2 H 0.141792 0.107205 0.912158
H15_2 H 0.0120 0.7864 0.9960
C12_2 C 0.0391(6) 0.7022(7) 0.9380(7)
H16_2 H 0.0882 0.6955 0.9713
C13_2 C 0.0115(5) 0.6591(7) 0.8742(6)
H17_2 H 0.0423 0.6225 0.8655
H39 H 0.0613 0.9732 0.7042
Cu10_2 Cu 0.31203(5) 0.04520(6) 0.13327(6)
Cu16 Cu 0.08941(6) 0.39115(6) 0.27575(6)
N23_2 N 0.2181(4) 0.1064(4) 0.0964(4)
N25_2 N 0.1884(4) 0.1262(4) 0.0201(4)
N27_2 N 0.1289(4) 0.1863(4) 0.0831(4)
N28_2 N 0.0578(4) 0.3332(4) 0.1766(5)
N33_2 N 0.3290(4) 0.1348(4) 0.0031(4)
C36_2 C 0.1810(5) 0.1430(5) 0.1323(5)
H46_2 H 0.1894 0.1396 0.1848
C37_2 C 0.1354(5) 0.1745(5) 0.0136(5)
C38_2 C 0.0781(5) 0.2378(5) 0.0980(5)
C39_2 C 0.0058(5) 0.2442(6) 0.0469(6)
C42_2 C 0.1034(5) 0.2822(5) 0.1622(5)
H51_2 H 0.1524 0.2770 0.1960
Cu3_2 Cu 0.22844(5) 0.09453(6) 0.93766(6)
N2_2 N 0.2963(4) 0.0598(4) 0.7486(4)
N3_2 N 0.2536(4) 0.0805(4) 0.8413(4)
N13 N 0.9991(4) 0.1561(4) 0.7970(4)
N14 N 0.8105(4) 0.1161(4) 0.8019(5)
C1_2 C 0.4404(6) 0.0105(7) 0.6306(7)
C3_2 C 0.3185(6) 0.0038(8) 0.6374(7)
C4_2 C 0.3459(5) 0.0406(5) 0.7065(5)
C5_2 C 0.4203(4) 0.0623(5) 0.7350(5)
H10_2 H 0.4378 0.0886 0.7811
C6_2 C 0.3139(5) 0.0642(5) 0.8268(5)
H11_2 H 0.3614 0.0568 0.8633
C7_2 C 0.2222(5) 0.0756(5) 0.7175(5)
H12_2 H 0.1948 0.0772 0.6651
C23 C 0.9472(6) 0.2675(6) 0.8254(8)
H26 H 0.9529 0.3180 0.8357
C24 C 0.8815(6) 0.2310(6) 0.8223(7)
H27 H 0.8421 0.2562 0.8307
C25 C 0.8771(5) 0.1569(6) 0.8065(6)
C26 C 0.9370(5) 0.1201(5) 0.7938(6)
H28 H 0.9333 0.0695 0.7831
C27 C 0.8058(5) 0.0505(5) 0.8342(5)
H29 H 0.8467 0.0220 0.8629
C28 C 0.7374(5) 0.1370(5) 0.7650(6)
H30 H 0.7227 0.1802 0.7363
O7_2 O 0.1951(4) 0.2313(5) 0.8698(5)
Cu8_2 Cu 0.57758(6) 0.42530(7) 0.23771(7)
O11_2 O 0.1296(3) 0.4344(4) 0.3747(3)
H36_2 H 0.1021 0.4685 0.3920
N17_2 N 0.4676(4) 0.4539(4) 0.1975(4)
N19_2 N 0.2963(4) 0.4402(4) 0.2486(4)
N20_2 N 0.2536(4) 0.4195(4) 0.3413(4)
N21_2 N 0.1954(4) 0.4117(4) 0.2724(4)
C29_2 C 0.4404(6) 0.4895(7) 0.1306(7)
H40_2 H 0.4731 0.5012 0.1044
C30_2 C 0.3659(7) 0.5099(8) 0.0983(8)
H41_2 H 0.3485 0.5327 0.0503
C31_2 C 0.3185(6) 0.4962(8) 0.1374(7)
H42_2 H 0.2685 0.5113 0.1180
C32_2 C 0.3459(5) 0.4594(5) 0.2065(5)
C33_2 C 0.4203(4) 0.4377(5) 0.2350(5)
H43_2 H 0.4378 0.4114 0.2811
C34_2 C 0.3139(5) 0.4358(5) 0.3268(5)
H44_2 H 0.3614 0.4432 0.3633
C35_2 C 0.2222(5) 0.4244(5) 0.2175(5)
H45_2 H 0.1948 0.4228 0.1651
H47_2 H 0.1065 0.1974 0.9679
O16_2 O 0.1951(4) 0.2687(5) 0.3698(5)
H14_2 H 0.8935 0.8026 0.0321
O9_2 O 0.2681(4) 0.9848(4) 0.0062(4)
H32_2 H 0.3112 0.9824 0.0411
N7_2 N 0.8711(4) 0.8137(4) 0.9169(4)
H7_2 H 0.4731 0.9988 0.6044
C2_2 C 0.3659(7) 0.9901(8) 0.5983(8)
H8_2 H 0.3485 0.9673 0.5503
H9_2 H 0.2685 0.9887 0.6180
C8_2 C 0.8190(5) 0.8570(5) 0.8677(5)
H13_2 H 0.8106 0.8604 0.8152
C9_2 C 0.8646(5) 0.8255(5) 0.9864(5)
C10_2 C 0.9219(5) 0.7622(5) 0.9020(5)
C11_2 C 0.9942(5) 0.7558(6) 0.9531(6)
C14_2 C 0.8966(5) 0.7178(5) 0.8378(5)
H18_2 H 0.8476 0.7230 0.8040
H34_2 H 0.2393 0.9472 0.9964
H38 H 0.9902 0.9959 0.7135
H48_2 H 0.9880 0.2136 0.0040
C40_2 C 0.9609(6) 0.2978(7) 0.0620(7)
H49_2 H 0.9118 0.3045 0.0287
C41_2 C 0.9885(5) 0.3409(7) 0.1258(6)
H50_2 H 0.9577 0.3775 0.1345
C22_2 C 0.0036(5) 0.2727(7) 0.3130(6)
H25_2 H 0.0477 0.2480 0.3161
O13_2 O 0.0360(5) 0.4954(4) 0.2195(4)
H39_2 H 0.0613 0.5268 0.2042
H64_3 H 0.141792 0.392795 0.412158
O1_2 O 0.5962(3) 0.4941(4) 0.3209(4)
H1_2 H 0.5575 0.5031 0.3401
N9_2 N 0.3590(4) 0.1171(4) 0.0805(4)
N11_2 N 0.4276(4) 0.2044(4) 0.0572(4)
N12_2 N 0.5594(4) 0.3544(4) 0.1467(5)
N13_2 N 0.9991(4) 0.3439(4) 0.2970(4)
N14_2 N 0.8105(4) 0.3839(4) 0.3019(5)
N15 N 0.7351(4) 0.4675(4) 0.3193(4)
N16 N 0.6918(4) 0.4111(4) 0.2756(5)
C15_2 C 0.4182(5) 0.1593(5) 0.1122(5)
H19_2 H 0.4487 0.1584 0.1637
C17_2 C 0.4846(4) 0.2589(5) 0.0674(5)
C18_2 C 0.5172(5) 0.2696(6) 0.0130(5)
C19_2 C 0.5717(6) 0.3226(6) 0.0278(6)
C20_2 C 0.5921(6) 0.3632(6) 0.0941(6)
H23_2 H 0.6302 0.3982 0.1027
C21_2 C 0.5061(5) 0.3020(5) 0.1333(5)
H24_2 H 0.4828 0.2944 0.1696
C23_2 C 0.9472(6) 0.2325(6) 0.3254(8)
H26_2 H 0.9529 0.1820 0.3357
C24_2 C 0.8815(6) 0.2690(6) 0.3223(7)
H27_2 H 0.8421 0.2438 0.3307
C25_2 C 0.8771(5) 0.3431(6) 0.3065(6)
C26_2 C 0.9370(5) 0.3799(5) 0.2938(6)
H28_2 H 0.9333 0.4305 0.2831
C27_2 C 0.8058(5) 0.4495(5) 0.3342(5)
H29_2 H 0.8467 0.4780 0.3629
C28_2 C 0.7374(5) 0.3630(5) 0.2650(6)
H30_2 H 0.7227 0.3198 0.2363
O5_2 O 0.6093(5) 0.5248(5) 0.1548(6)
O6_2 O 0.5624(5) 0.3218(5) 0.3197(5)
H31_2 H 0.4425 0.0031 0.1599
H38_2 H 0.9902 0.5041 0.2135
N31_2 N 0.6410(4) 0.6171(4) 0.4195(4)
N34_2 N 0.5724(4) 0.7044(4) 0.4428(4)
N35 N 0.4406(4) 0.8544(4) 0.3533(5)
C43_2 C 0.5818(5) 0.6593(5) 0.3878(5)
H52_2 H 0.5513 0.6584 0.3363
C44_2 C 0.6284(5) 0.6869(5) 0.5095(5)
H53_2 H 0.6354 0.7087 0.5570
C45_2 C 0.5154(4) 0.7589(5) 0.4326(5)
C46_2 C 0.4828(5) 0.7696(6) 0.4870(5)
H54_2 H 0.4970 0.7419 0.5321
C47_2 C 0.4283(6) 0.8226(6) 0.4722(6)
H55_2 H 0.4046 0.8313 0.5079
C48_2 C 0.4079(6) 0.8632(6) 0.4059(6)
H56_2 H 0.3698 0.8982 0.3973
C49_2 C 0.4939(5) 0.8020(5) 0.3667(5)
H57_2 H 0.5172 0.7944 0.3304
O14_2 O 0.3907(5) 0.0248(5) 0.3452(6)
C16_2 C 0.3716(5) 0.1869(5) 0.9905(5)
H20_2 H 0.3646 0.2087 0.9430
H21_2 H 0.5030 0.2419 0.9679
H22_2 H 0.5954 0.3313 0.9921
O8_2 O 0.4038(3) 0.9941(4) 0.1791(4)
N40_2 N 0.2649(4) 0.9675(4) 0.1807(4)
N42_2 N 0.3082(4) 0.9111(4) 0.2244(5)
O15_2 O 0.4376(5) 0.8218(5) 0.1803(5)
H5_2 H 0.0098 0.0041 0.2865
N37_2 N 0.0009(4) 0.8439(4) 0.2030(4)
N38_2 N 0.1895(4) 0.8839(4) 0.1981(5)
C51_2 C 0.0528(6) 0.7325(6) 0.1746(8)
H59_2 H 0.0471 0.6820 0.1643
C52_2 C 0.1185(6) 0.7690(6) 0.1777(7)
H60_2 H 0.1579 0.7438 0.1693
C53_2 C 0.1229(5) 0.8431(6) 0.1935(6)
C54_2 C 0.0630(5) 0.8799(5) 0.2062(6)
H61_2 H 0.0667 0.9305 0.2169
C55_2 C 0.1942(5) 0.9495(5) 0.1658(5)
H62_2 H 0.1533 0.9780 0.1371
C56_2 C 0.2626(5) 0.8630(5) 0.2350(6)
H63_2 H 0.2773 0.8198 0.2637
H6_2 H 0.9387 0.0268 0.2958
O4_2 O 0.9640(5) 0.9954(4) 0.2805(4)
C50_2 C 0.9964(5) 0.7727(7) 0.1870(6)
H58_2 H 0.9523 0.7480 0.1839
H64_4 H 0.858208 0.892795 0.0878421
Si1 Si 0.7981(4) 0.4453(6) 0.0924(5)
F1 F 0.7484(10) 0.4773(11) 0.1399(12)
F2 F 0.8186(12) 0.3663(13) 0.1342(12)
F3 F 0.8754(12) 0.4837(13) 0.1425(14)
F4 F 0.8382(15) 0.4206(15) 0.0291(15)
F5 F 0.7784(11) 0.5251(11) 0.0417(12)
F6 F 0.7286(12) 0.3980(12) 0.0313(13)
F5_2 F 0.2216(11) 0.0251(11) 0.4583(12)
Si1_2 Si 0.2019(4) 0.9453(6) 0.4076(5)
F1_2 F 0.2516(10) 0.9773(11) 0.3601(12)
F2_2 F 0.1814(12) 0.8663(13) 0.3658(12)
F3_2 F 0.1246(12) 0.9837(13) 0.3575(14)
F4_2 F 0.1618(15) 0.9206(15) 0.4709(15)
F6_2 F 0.2714(12) 0.8980(12) 0.4687(13)
Si1_3 Si 0.2019(4) 0.5547(6) 0.9076(5)
F1_3 F 0.2516(10) 0.5227(11) 0.8601(12)
F2_3 F 0.1814(12) 0.6337(13) 0.8658(12)
F3_3 F 0.1246(12) 0.5163(13) 0.8575(14)
F4_3 F 0.1618(15) 0.5794(15) 0.9709(15)
F5_3 F 0.2216(11) 0.4749(11) 0.9583(12)
F6_3 F 0.2714(12) 0.6020(12) 0.9687(13)
Si1_4 Si 0.7981(4) 0.0547(6) 0.5924(5)
F1_4 F 0.7484(10) 0.0227(11) 0.6399(12)
F2_4 F 0.8186(12) 0.1337(13) 0.6342(12)
F3_4 F 0.8754(12) 0.0163(13) 0.6425(14)
F4_4 F 0.8382(15) 0.0794(15) 0.5291(15)
F6_4 F 0.7286(12) 0.1020(12) 0.5313(13)
F5_4 F 0.7784(11) 0.9749(11) 0.5417(12)
Si2 Si 0.36932(15) 0.27448(15) 0.78653(15)
F7 F 0.3727(6) 0.2343(4) 0.7070(4)
F8 F 0.4028(4) 0.1967(4) 0.8360(4)
F9 F 0.4572(4) 0.3053(6) 0.8039(6)
F10 F 0.3699(6) 0.3132(4) 0.8674(4)
F11 F 0.2821(4) 0.2442(5) 0.7686(5)
F12 F 0.3383(3) 0.3543(3) 0.7391(3)
Si2_2 Si 0.63068(15) 0.77448(15) 0.71347(15)
F7_2 F 0.6273(6) 0.7343(4) 0.7930(4)
F8_2 F 0.5972(4) 0.6967(4) 0.6640(4)
F9_2 F 0.5428(4) 0.8053(6) 0.6961(6)
F10_2 F 0.6301(6) 0.8132(4) 0.6326(4)
F11_2 F 0.7179(4) 0.7442(5) 0.7314(5)
F12_2 F 0.6617(3) 0.8543(3) 0.7609(3)
Si2_3 Si 0.63068(15) 0.72552(15) 0.21347(15)
F7_3 F 0.6273(6) 0.7657(4) 0.2930(4)
F8_3 F 0.5972(4) 0.8033(4) 0.1640(4)
F9_3 F 0.5428(4) 0.6947(6) 0.1961(6)
F10_3 F 0.6301(6) 0.6868(4) 0.1326(4)
F11_3 F 0.7179(4) 0.7558(5) 0.2314(5)
F12_3 F 0.6617(3) 0.6457(3) 0.2609(3)
Si2_4 Si 0.36932(15) 0.22552(15) 0.28653(15)
F7_4 F 0.3727(6) 0.2657(4) 0.2070(4)
F8_4 F 0.4028(4) 0.3033(4) 0.3360(4)
F9_4 F 0.4572(4) 0.1947(6) 0.3039(6)
F10_4 F 0.3699(6) 0.1868(4) 0.3674(4)
F11_4 F 0.2821(4) 0.2558(5) 0.2686(5)
F12_4 F 0.3383(3) 0.1457(3) 0.2391(3)
Si3 Si 0.0000 0.5000 0.5000
F13 F 0.0806(4) 0.5177(6) 0.4863(5)
F17 F 0.0062(5) 0.5815(4) 0.5420(4)
F18 F 0.0483(3) 0.4614(4) 0.5851(4)
Si3_2 Si 1.0000 0.5000 0.5000
F14 F 0.9938(5) 0.4185(4) 0.4580(4)
F15 F 0.9517(3) 0.5386(4) 0.4149(4)
F16 F 0.9194(4) 0.4823(6) 0.5137(5)
Si3_3 Si 0.0000 -0.0000 0.0000
F15_2 F 0.0483(3) 0.0386(4) 0.0851(4)
Si3_4 Si 0.0000 -0.0000 1.0000
Si3_5 Si 0.0000 1.0000 0.0000
F14_2 F 0.0062(5) 0.9185(4) 0.0420(4)
Si3_6 Si 0.0000 1.0000 1.0000
F16_2 F 0.0806(4) 0.9823(6) 0.9863(5)
Si3_7 Si 1.0000 -0.0000 0.0000
F13_2 F 0.9194(4) 0.0177(6) 0.0137(5)
Si3_8 Si 1.0000 -0.0000 1.0000
F17_2 F 0.9938(5) 0.0815(4) 0.9580(4)
Si3_9 Si 1.0000 1.0000 0.0000
Si3_10 Si 1.0000 1.0000 1.0000
F18_2 F 0.9517(3) 0.9614(4) 0.9149(4)
Si4 Si 0.5000 0.0000 0.0000
F19 F 0.5093(4) 0.0110(6) 0.0940(4)
F21 F 0.5936(3) 0.0056(5) 0.0224(4)
Si4_2 Si 0.5000 0.0000 1.0000
F23 F 0.4943(5) 0.0904(4) 0.9875(6)
Si4_3 Si 0.5000 1.0000 0.0000
F20 F 0.5057(5) 0.9096(4) 0.0125(6)
Si4_4 Si 0.5000 1.0000 1.0000
F22 F 0.4907(4) 0.9890(6) 0.9060(4)
F24 F 0.4064(3) 0.9944(5) 0.9776(4)
Si4_5 Si 0.5000 0.5000 0.5000
F19_2 F 0.4907(4) 0.5110(6) 0.4060(4)
F20_2 F 0.4943(5) 0.4096(4) 0.4875(6)
F21_2 F 0.4064(3) 0.5056(5) 0.4776(4)
F22_2 F 0.5093(4) 0.4890(6) 0.5940(4)
F23_2 F 0.5057(5) 0.5904(4) 0.5125(6)
F24_2 F 0.5936(3) 0.4944(5) 0.5224(4)
loop_
_geom_bond_atom_site_label_1
_geom_bond_atom_site_label_2
_geom_bond_site_symmetry_1
_geom_bond_site_symmetry_2
Cu7 N41 1_555 1_555
Cu11 N39 1_555 1_555
N38 C53 1_555 1_555
N39 N41 1_555 1_555
N41 C56 1_555 1_555
H49 C40 1_555 1_555
C41 C40 1_555 1_555
H50 C41 1_555 1_555
H59 C51 1_555 1_555
C52 C51 1_555 1_555
H60 C52 1_555 1_555
C53 C52 1_555 1_555
C54 N37 1_555 1_555
H61 C54 1_555 1_555
C55 N38 1_555 1_555
H62 C55 1_555 1_555
C56 N38 1_555 1_555
H63 C56 1_555 1_555
N39 C55 1_555 1_555
C53 C54 1_555 1_555
H41 C30 1_555 1_555
Cu5 O8 1_555 1_555
H33 O10 1_555 1_555
N18 Cu5 1_555 1_555
N36 Cu5 1_555 1_555
N42 Cu5 1_555 1_555
O15 Cu5 1_555 1_555
N40 N42 1_555 1_555
H20 C16 1_555 1_555
Cu8 N17 1_555 1_555
Cu17 O11 1_555 1_555
O11 Cu12 1_555 1_555
H36 O11 1_555 1_555
N17 C29 1_555 1_555
N19 C32 1_555 1_555
N20 Cu12 1_555 1_555
N21 Cu17 1_555 1_555
C32 C31 1_555 1_555
C33 N17 1_555 1_555
H43 C33 1_555 1_555
C34 N19 1_555 1_555
H44 C34 1_555 1_555
C35 N19 1_555 1_555
H45 C35 1_555 1_555
O16 Cu12 1_555 1_555
N20 N21 1_555 1_555
N20 C34 1_555 1_555
N21 C35 1_555 1_555
C32 C33 1_555 1_555
Cu7 O1 1_555 1_555
Cu11 O1 1_555 1_555
Cu3 O3 1_555 1_555
Cu4 O3 1_555 1_555
O1 H1 1_555 1_555
O2 Cu11 1_555 1_555
H2 O2 1_555 1_555
H3 O2 1_555 1_555
O3 H4 1_555 1_555
O4 Cu4 1_555 1_555
H6 O4 1_555 1_555
N1 Cu7 1_555 1_555
N2 C4 1_555 1_555
N3 Cu3 1_555 1_555
N4 Cu4 1_555 1_555
N5 Cu11 1_555 1_555
N6 N5 1_555 1_555
N7 C8 1_555 1_555
N9 N10 1_555 1_555
N11 C15 1_555 1_555
N12 Cu7 1_555 1_555
C1 N1 1_555 1_555
H7 C1 1_555 1_555
C2 C1 1_555 1_555
H8 C2 1_555 1_555
C3 C2 1_555 1_555
H9 C3 1_555 1_555
C4 C3 1_555 1_555
C5 N1 1_555 1_555
H10 C5 1_555 1_555
C6 N2 1_555 1_555
H11 C6 1_555 1_555
C7 N2 1_555 1_555
H12 C7 1_555 1_555
C8 N5 1_555 1_555
H13 C8 1_555 1_555
C9 N6 1_555 1_555
H14 C9 1_555 1_555
C10 N7 1_555 1_555
C11 C10 1_555 1_555
C14 N8 1_555 1_555
H18 C14 1_555 1_555
C15 N9 1_555 1_555
H19 C15 1_555 1_555
C17 N11 1_555 1_555
C18 C17 1_555 1_555
C19 C18 1_555 1_555
C20 N12 1_555 1_555
H23 C20 1_555 1_555
C21 N12 1_555 1_555
H24 C21 1_555 1_555
O5 Cu7 1_555 1_555
O6 Cu7 1_555 1_555
O7 Cu3 1_555 1_555
Cu9 N9 1_555 1_555
Cu10 O9 1_555 1_555
Cu13 O2 1_555 1_555
Cu15 N8 1_555 1_555
Cu17 N28 1_555 1_555
O9 Cu3 1_555 1_555
H32 O9 1_555 1_555
H34 O9 1_555 1_555
N23 Cu10 1_555 1_555
N24 Cu9 1_555 1_555
N25 Cu3 1_555 1_555
N27 C36 1_555 1_555
N29 Cu4 1_555 1_555
N31 Cu11 1_555 1_555
N32 Cu13 1_555 1_555
N33 Cu3 1_555 1_555
N34 C43 1_555 1_555
N36 C48 1_555 1_555
C36 N23 1_555 1_555
H46 C36 1_555 1_555
C37 N25 1_555 1_555
H47 C37 1_555 1_555
C38 N27 1_555 1_555
C39 C38 1_555 1_555
C42 N28 1_555 1_555
H51 C42 1_555 1_555
C43 N31 1_555 1_555
H52 C43 1_555 1_555
C44 N32 1_555 1_555
H53 C44 1_555 1_555
C45 N34 1_555 1_555
C46 C45 1_555 1_555
H54 C46 1_555 1_555
C47 C46 1_555 1_555
H55 C47 1_555 1_555
C48 C47 1_555 1_555
H56 C48 1_555 1_555
C49 N36 1_555 1_555
H57 C49 1_555 1_555
H58 C50 1_555 1_555
N3 N4 1_555 1_555
N3 C6 1_555 1_555
N4 C7 1_555 1_555
N6 Cu13 1_555 1_555
N7 C9 1_555 1_555
C4 C5 1_555 1_555
C10 C14 1_555 1_555
C17 C21 1_555 1_555
C19 C20 1_555 1_555
N23 N25 1_555 1_555
N24 N26 1_555 1_555
N27 C37 1_555 1_555
N31 N32 1_555 1_555
N34 C44 1_555 1_555
C38 C42 1_555 1_555
C45 C49 1_555 1_555
H16 C12 1_555 1_555
C13 C12 1_555 1_555
H17 C13 1_555 1_555
O3 H64 1_555 1_555
C22 H25 1_555 1_555
O12 Cu15 1_555 1_555
H37 O12 1_555 1_555
O13 Cu15 1_555 1_555
N22 Cu15 1_555 1_555
O12 H64_2 1_555 1_555
H16_2 C12_2 1_555 1_555
C13_2 C12_2 1_555 1_555
H17_2 C13_2 1_555 1_555
Cu16 N28_2 1_555 1_555
N23_2 Cu10_2 1_555 1_555
N27_2 C36_2 1_555 1_555
C36_2 N23_2 1_555 1_555
H46_2 C36_2 1_555 1_555
C37_2 N25_2 1_555 1_555
C38_2 N27_2 1_555 1_555
C39_2 C38_2 1_555 1_555
C42_2 N28_2 1_555 1_555
H51_2 C42_2 1_555 1_555
N23_2 N25_2 1_555 1_555
N27_2 C37_2 1_555 1_555
C38_2 C42_2 1_555 1_555
Cu3_2 O12 1_555 1_555
N2_2 C4_2 1_555 1_555
N3_2 Cu3_2 1_555 1_555
N14 C25 1_555 1_555
C1_2 N18 1_555 1_555
C4_2 C3_2 1_555 1_555
C5_2 N18 1_555 1_555
H10_2 C5_2 1_555 1_555
C6_2 N2_2 1_555 1_555
H11_2 C6_2 1_555 1_555
C7_2 N2_2 1_555 1_555
H12_2 C7_2 1_555 1_555
H26 C23 1_555 1_555
C24 C23 1_555 1_555
H27 C24 1_555 1_555
C25 C24 1_555 1_555
C26 N13 1_555 1_555
H28 C26 1_555 1_555
C27 N14 1_555 1_555
H29 C27 1_555 1_555
C28 N14 1_555 1_555
H30 C28 1_555 1_555
O7_2 Cu3_2 1_555 1_555
Cu8_2 N17_2 1_555 1_555
Cu16 O11_2 1_555 1_555
O11_2 Cu13 1_555 1_555
H36_2 O11_2 1_555 1_555
N17_2 C29_2 1_555 1_555
N19_2 C32_2 1_555 1_555
N20_2 Cu13 1_555 1_555
N21_2 Cu16 1_555 1_555
C29_2 H40_2 1_555 1_555
C30_2 C29_2 1_555 1_555
H41_2 C30_2 1_555 1_555
C31_2 C30_2 1_555 1_555
H42_2 C31_2 1_555 1_555
C32_2 C31_2 1_555 1_555
C33_2 N17_2 1_555 1_555
H43_2 C33_2 1_555 1_555
C34_2 N19_2 1_555 1_555
H44_2 C34_2 1_555 1_555
C35_2 N19_2 1_555 1_555
H45_2 C35_2 1_555 1_555
O16_2 Cu13 1_555 1_555
N3_2 N22 1_555 1_555
N3_2 C6_2 1_555 1_555
N22 C7_2 1_555 1_555
N40 C27 1_555 1_555
N42 C28 1_555 1_555
C4_2 C5_2 1_555 1_555
C25 C26 1_555 1_555
N20_2 N21_2 1_555 1_555
N20_2 C34_2 1_555 1_555
N21_2 C35_2 1_555 1_555
C32_2 C33_2 1_555 1_555
H32_2 O9_2 1_555 1_555
N7_2 C8_2 1_555 1_555
H8_2 C2_2 1_555 1_555
C8_2 N24 1_555 1_555
H13_2 C8_2 1_555 1_555
C9_2 N26 1_555 1_555
C10_2 N7_2 1_555 1_555
C11_2 C10_2 1_555 1_555
C14_2 N29 1_555 1_555
H18_2 C14_2 1_555 1_555
N7_2 C9_2 1_555 1_555
C10_2 C14_2 1_555 1_555
H49_2 C40_2 1_555 1_555
C41_2 C40_2 1_555 1_555
H50_2 C41_2 1_555 1_555
C22_2 H25_2 1_555 1_555
O13_2 Cu16 1_555 1_555
H39_2 O13_2 1_555 1_555
O11_2 H64_3 1_555 1_555
Cu8_2 O1_2 1_555 1_555
Cu10 O1_2 1_555 1_555
O1_2 H1_2 1_555 1_555
N9_2 N33_2 1_555 1_555
N11_2 C15_2 1_555 1_555
N12_2 Cu8_2 1_555 1_555
N14_2 C25_2 1_555 1_555
N15 Cu10 1_555 1_555
N16 Cu8_2 1_555 1_555
C15_2 N9_2 1_555 1_555
H19_2 C15_2 1_555 1_555
C17_2 N11_2 1_555 1_555
C18_2 C17_2 1_555 1_555
C19_2 C18_2 1_555 1_555
C20_2 N12_2 1_555 1_555
H23_2 C20_2 1_555 1_555
C21_2 N12_2 1_555 1_555
H24_2 C21_2 1_555 1_555
H26_2 C23_2 1_555 1_555
C24_2 C23_2 1_555 1_555
H27_2 C24_2 1_555 1_555
C25_2 C24_2 1_555 1_555
C26_2 N13_2 1_555 1_555
H28_2 C26_2 1_555 1_555
C27_2 N14_2 1_555 1_555
H29_2 C27_2 1_555 1_555
C28_2 N14_2 1_555 1_555
H30_2 C28_2 1_555 1_555
O5_2 Cu8_2 1_555 1_555
O6_2 Cu8_2 1_555 1_555
Cu8 N35 1_555 1_555
Cu10_2 N9_2 1_555 1_555
N31_2 Cu10 1_555 1_555
N34_2 C43_2 1_555 1_555
N35 C48_2 1_555 1_555
C43_2 N31_2 1_555 1_555
H52_2 C43_2 1_555 1_555
C44_2 N33 1_555 1_555
H53_2 C44_2 1_555 1_555
C45_2 N34_2 1_555 1_555
C46_2 C45_2 1_555 1_555
H54_2 C46_2 1_555 1_555
C47_2 C46_2 1_555 1_555
H55_2 C47_2 1_555 1_555
C48_2 C47_2 1_555 1_555
H56_2 C48_2 1_555 1_555
C49_2 N35 1_555 1_555
H57_2 C49_2 1_555 1_555
N15 N16 1_555 1_555
N15 C27_2 1_555 1_555
N16 C28_2 1_555 1_555
C17_2 C21_2 1_555 1_555
C19_2 C20_2 1_555 1_555
C25_2 C26_2 1_555 1_555
N31_2 N33 1_555 1_555
N34_2 C44_2 1_555 1_555
C45_2 C49_2 1_555 1_555
H20_2 C16_2 1_555 1_555
Cu8 O8_2 1_555 1_555
N42_2 Cu8 1_555 1_555
O15_2 Cu8 1_555 1_555
N40_2 N42_2 1_555 1_555
N38_2 C53_2 1_555 1_555
N42_2 C56_2 1_555 1_555
H59_2 C51_2 1_555 1_555
C52_2 C51_2 1_555 1_555
H60_2 C52_2 1_555 1_555
C53_2 C52_2 1_555 1_555
C54_2 N37_2 1_555 1_555
H61_2 C54_2 1_555 1_555
C55_2 N38_2 1_555 1_555
H62_2 C55_2 1_555 1_555
C56_2 N38_2 1_555 1_555
H63_2 C56_2 1_555 1_555
N40_2 C55_2 1_555 1_555
C53_2 C54_2 1_555 1_555
O4_2 Cu17 1_555 1_555
H58_2 C50_2 1_555 1_555
O11 H64_4 1_555 1_555
Si1 F1 1_555 1_555
F2 Si1 1_555 1_555
F3 Si1 1_555 1_555
F4 Si1 1_555 1_555
F5 Si1 1_555 1_555
F6 Si1 1_555 1_555
Si1_2 F1_2 1_555 1_555
F2_2 Si1_2 1_555 1_555
F3_2 Si1_2 1_555 1_555
F4_2 Si1_2 1_555 1_555
F6_2 Si1_2 1_555 1_555
Si1_3 F1_3 1_555 1_555
F2_3 Si1_3 1_555 1_555
F3_3 Si1_3 1_555 1_555
F4_3 Si1_3 1_555 1_555
F5_3 Si1_3 1_555 1_555
F6_3 Si1_3 1_555 1_555
Si1_4 F1_4 1_555 1_555
F2_4 Si1_4 1_555 1_555
F3_4 Si1_4 1_555 1_555
F4_4 Si1_4 1_555 1_555
F6_4 Si1_4 1_555 1_555
Si2 F7 1_555 1_555
F8 Si2 1_555 1_555
F9 Si2 1_555 1_555
F10 Si2 1_555 1_555
F11 Si2 1_555 1_555
F12 Si2 1_555 1_555
Si2_2 F7_2 1_555 1_555
F8_2 Si2_2 1_555 1_555
F9_2 Si2_2 1_555 1_555
F10_2 Si2_2 1_555 1_555
F11_2 Si2_2 1_555 1_555
F12_2 Si2_2 1_555 1_555
Si2_3 F7_3 1_555 1_555
F8_3 Si2_3 1_555 1_555
F9_3 Si2_3 1_555 1_555
F10_3 Si2_3 1_555 1_555
F11_3 Si2_3 1_555 1_555
F12_3 Si2_3 1_555 1_555
Si2_4 F7_4 1_555 1_555
F8_4 Si2_4 1_555 1_555
F9_4 Si2_4 1_555 1_555
F10_4 Si2_4 1_555 1_555
F11_4 Si2_4 1_555 1_555
F12_4 Si2_4 1_555 1_555
Si3 F13 1_555 1_555
F17 Si3 1_555 1_555
F18 Si3 1_555 1_555
F14 Si3_2 1_555 1_555
F15 Si3_2 1_555 1_555
F16 Si3_2 1_555 1_555
F15_2 Si3_3 1_555 1_555
F14_2 Si3_5 1_555 1_555
F16_2 Si3_6 1_555 1_555
Si3_7 F13_2 1_555 1_555
F17_2 Si3_8 1_555 1_555
F18_2 Si3_10 1_555 1_555
Si4 F19 1_555 1_555
F21 Si4 1_555 1_555
F23 Si4_2 1_555 1_555
F20 Si4_3 1_555 1_555
F22 Si4_4 1_555 1_555
F24 Si4_4 1_555 1_555
Si4_5 F19_2 1_555 1_555
F20_2 Si4_5 1_555 1_555
F21_2 Si4_5 1_555 1_555
F22_2 Si4_5 1_555 1_555
F23_2 Si4_5 1_555 1_555
F24_2 Si4_5 1_555 1_555

#END
