
###############################################################################
#
# This file contains modified crystal structure data generated from the
# MOF subset of the Cambridge Structural Database (CSD) v543 
# hosted by the Cambridge Crystallographic Data Centre (CCDC).
#
# This work is licensed under the Creative Commons
# Attribution-NonCommercial-ShareAlike 4.0 International License.
# To view a copy of this license, visit
# http://creativecommons.org/licenses/by-nc-sa/4.0/
# or send a letter to
# Creative Commons, PO Box 1866, Mountain View, CA 94042, USA.
#
# CIF created using the CSD Python API on 29 September 2022
# The structure has been converted into the P1 space group
# The structure has a 3D framework
# The original CSD entry YUNPIH is in the triclinic crystal system
# The framework has been calculated to contain at least 10.0% void space
# The void calculation uses a probe of radius 1.32A, grid spacing 0.4
#
###############################################################################

data_YUNPIH
_chemical_formula_moiety         '(C72 H84 Cd4 N12 O16)n'
_symmetry_cell_setting           triclinic
_symmetry_space_group_name_H-M   'P 1'
_symmetry_Int_Tables_number      1
_space_group_name_Hall           'P 1'
loop_
_symmetry_equiv_pos_site_id
_symmetry_equiv_pos_as_xyz
1 x,y,z
_cell_length_a                   10.2938(16)
_cell_length_b                   10.5884(16)
_cell_length_c                   18.556(3)
_cell_angle_alpha                90.444(2)
_cell_angle_beta                 95.115(2)
_cell_angle_gamma                93.133(2)
_cell_volume                     2011.28
loop_
_atom_site_label
_atom_site_type_symbol
_atom_site_fract_x
_atom_site_fract_y
_atom_site_fract_z
Cd5 Cd 0.640147(14) 0.079310(13) 0.559854(8)
Cd1 Cd 0.139917(13) 0.572050(12) 0.064731(7)
H5 H 0.0321 0.3597 0.1680
C21 C 0.13475(18) 0.30710(18) 0.04149(10)
C22 C 0.1317(2) 0.16475(19) 0.03406(13)
H18 H 0.1079 0.1273 0.0789
C23 C 0.2628(2) 0.1163(2) 0.01633(12)
H19 H 0.3312 0.1515 0.0513
H20 H 0.2599 0.0250 0.0208
O1 O 0.22339(13) 0.36462(13) 0.08262(8)
O2 O 0.04707(14) 0.36825(14) 0.00773(8)
O10 O 0.19380(14) 0.78626(13) 0.10506(8)
O11 O 0.33509(6) 0.64424(6) 0.13938(4)
C11 C 0.2607(2) 0.72935(19) 0.93405(11)
H9 H 0.1976 0.7854 0.9436
C12 C 0.3502(2) 0.76626(19) 0.88597(10)
H10 H 0.3467 0.8446 0.8638
C13 C 0.44620(19) 0.68360(18) 0.87135(10)
C14 C 0.4444(2) 0.56637(19) 0.90550(11)
H11 H 0.5056 0.5081 0.8967
C15 C 0.3506(2) 0.53837(19) 0.95234(11)
H12 H 0.3506 0.4600 0.9746
C16 C 0.6978(2) 0.8893(2) 0.68827(11)
H13 H 0.7801 0.9001 0.6715
C17 C 0.6828(2) 0.8119(2) 0.74635(11)
H14 H 0.7541 0.7720 0.7682
C18 C 0.55964(19) 0.79322(18) 0.77271(10)
C19 C 0.4567(2) 0.85593(18) 0.73778(10)
H15 H 0.3731 0.8463 0.7530
C20 C 0.4815(2) 0.93270(19) 0.68013(11)
H16 H 0.4123 0.9748 0.6576
H17 H 0.0649 0.1375 0.9961
C24 C 0.2966(2) 0.1513(2) 0.94007(12)
H21 H 0.2374 0.1030 0.9053
H22 H 0.2819 0.2401 0.9326
C25 C 0.4363(2) 0.1278(2) 0.92506(11)
H23 H 0.4541 0.0409 0.9365
H24 H 0.4960 0.1824 0.9564
C26 C 0.4613(2) 0.1525(2) 0.84638(11)
H25 H 0.4371 0.2374 0.8341
H26 H 0.4054 0.0939 0.8155
C27 C 0.6034(2) 0.1387(2) 0.83033(12)
H27 H 0.6311 0.0575 0.8479
H28 H 0.6078 0.1390 0.7783
C28 C 0.6971(2) 0.24203(19) 0.86426(10)
N4 N 0.25906(16) 0.61775(15) 0.96773(8)
N5 N 0.59881(17) 0.95041(16) 0.65453(9)
N6 N 0.54902(17) 0.71050(17) 0.82908(9)
H42 H 0.6191(18) 0.676(2) 0.8423(12)
O3 O 0.80620(14) 0.21374(13) 0.89494(8)
O4 O 0.66491(6) 0.35576(6) 0.86062(4)
Cd4 Cd 0.860083(13) 0.427950(12) 0.935269(7)
C1 C 0.5830(2) 0.2993(2) 0.44666(12)
H1 H 0.5072 0.2984 0.4704
C2 C 0.5947(2) 0.38239(19) 0.39067(12)
H2 H 0.5279 0.4354 0.3773
C3 C 0.7078(2) 0.38648(19) 0.35405(10)
C4 C 0.8062(2) 0.3078(2) 0.37939(11)
H3 H 0.8853 0.3099 0.3586
C5 C 0.7847(2) 0.2270(2) 0.43551(11)
H4 H 0.8507 0.1744 0.4511
C6 C 0.9793(2) 0.4233(2) 0.18079(10)
C7 C 0.8889(2) 0.3940(2) 0.22931(10)
H6 H 0.8808 0.3129 0.2479
C8 C 0.80983(19) 0.4880(2) 0.25011(10)
C9 C 0.8248(2) 0.6067(2) 0.21766(11)
H7 H 0.7724 0.6716 0.2289
C10 C 0.91715(19) 0.6263(2) 0.16931(11)
H8 H 0.9254 0.7055 0.1484
N1 N 0.67494(17) 0.21964(16) 0.46894(9)
N2 N 0.99649(16) 0.53672(16) 0.15063(8)
N3 N 0.71476(18) 0.47106(18) 0.29784(10)
H41 H 0.654(2) 0.518(2) 0.2922(13)
O12 O 0.41393(6) 0.08784(6) 0.52913(4)
O13 O 0.64729(6) 0.26873(6) 0.63302(4)
O14 O 0.83038(6) 0.17174(6) 0.63016(4)
O9 O 0.95293(14) 0.63175(14) 0.99227(8)
C29 C 0.7023(2) 0.87889(19) 0.47098(12)
C30 C 0.7310(3) 0.7673(2) 0.42498(14)
H29 H 0.7689 0.7982 0.3820
H30 H 0.6496 0.7203 0.4095
C31 C 0.8245(3) 0.6778(2) 0.46460(14)
H31 H 0.8368 0.6069 0.4330
H32 H 0.9088 0.7222 0.4761
C32 C 0.7726(3) 0.6287(2) 0.53400(14)
H33 H 0.7742 0.6991 0.5679
H34 H 0.6820 0.5997 0.5230
C33 C 0.8441(2) 0.5227(2) 0.57151(13)
H35 H 0.9375 0.5422 0.5735
H36 H 0.8246 0.4448 0.5438
C34 C 0.8043(3) 0.5039(2) 0.64814(13)
H37 H 0.8430 0.5736 0.6784
H38 H 0.7102 0.5071 0.6471
C35 C 0.8446(3) 0.3802(2) 0.68244(14)
H39 H 0.9374 0.3725 0.6794
H40 H 0.8292 0.3818 0.7332
C36 C 0.7702(2) 0.2657(2) 0.64603(12)
O5 O 0.58607(6) 0.91216(6) 0.47087(4)
O6 O 0.79159(6) 0.93797(6) 0.50924(4)
Cd6 Cd 0.359853(14) 0.920690(13) 0.440146(8)
C29_2 C 0.2977(2) 0.12111(19) 0.52902(12)
C30_2 C 0.2690(3) 0.2327(2) 0.57502(14)
H29_2 H 0.2311 0.2018 0.6180
H30_2 H 0.3504 0.2797 0.5905
C31_2 C 0.1755(3) 0.3222(2) 0.53540(14)
H31_2 H 0.1632 0.3931 0.5670
H32_2 H 0.0912 0.2778 0.5239
C32_2 C 0.2274(3) 0.3713(2) 0.46600(14)
H33_2 H 0.2258 0.3009 0.4321
H34_2 H 0.3180 0.4003 0.4770
C33_2 C 0.1559(2) 0.4773(2) 0.42849(13)
H35_2 H 0.0625 0.4578 0.4265
H36_2 H 0.1754 0.5552 0.4562
C34_2 C 0.1957(3) 0.4961(2) 0.35186(13)
H37_2 H 0.1570 0.4264 0.3216
H38_2 H 0.2898 0.4929 0.3529
C35_2 C 0.1554(3) 0.6198(2) 0.31756(14)
H39_2 H 0.0626 0.6275 0.3206
H40_2 H 0.1708 0.6182 0.2668
C36_2 C 0.2298(2) 0.7343(2) 0.35397(12)
O6_2 O 0.20841(6) 0.06203(6) 0.49076(4)
O7 O 0.35271(6) 0.73127(6) 0.36698(4)
O8 O 0.16962(6) 0.82826(6) 0.36984(4)
N7 N 0.40119(17) 0.04959(16) 0.34547(9)
C1_2 C 0.4170(2) 0.7007(2) 0.55334(12)
H1_2 H 0.4928 0.7016 0.5296
C2_2 C 0.4053(2) 0.61761(19) 0.60933(12)
H2_2 H 0.4721 0.5646 0.6227
C3_2 C 0.2922(2) 0.61352(19) 0.64595(10)
C4_2 C 0.1938(2) 0.6922(2) 0.62061(11)
H3_2 H 0.1147 0.6901 0.6414
C5_2 C 0.2153(2) 0.7730(2) 0.56449(11)
H4_2 H 0.1493 0.8256 0.5489
C6_2 C 0.0207(2) 0.5767(2) 0.81921(10)
C7_2 C 0.1111(2) 0.6060(2) 0.77069(10)
H6_2 H 0.1192 0.6871 0.7521
C8_2 C 0.19017(19) 0.5120(2) 0.74989(10)
C9_2 C 0.1752(2) 0.3933(2) 0.78234(11)
H7_2 H 0.2276 0.3284 0.7711
C10_2 C 0.08285(19) 0.3737(2) 0.83069(11)
H8_2 H 0.0746 0.2945 0.8516
N1_2 N 0.32506(17) 0.78036(16) 0.53106(9)
N2_2 N 0.00351(16) 0.46328(16) 0.84937(8)
N3_2 N 0.28524(18) 0.52894(18) 0.70216(10)
H41_2 H 0.346(2) 0.482(2) 0.7078(13)
C11_2 C 0.7393(2) 0.27065(19) 0.06595(11)
H9_2 H 0.8024 0.2146 0.0564
C12_2 C 0.6498(2) 0.23374(19) 0.11403(10)
H10_2 H 0.6533 0.1554 0.1362
C13_2 C 0.55380(19) 0.31640(18) 0.12865(10)
C14_2 C 0.5556(2) 0.43363(19) 0.09450(11)
H11_2 H 0.4944 0.4919 0.1033
C15_2 C 0.6494(2) 0.46163(19) 0.04766(11)
H12_2 H 0.6494 0.5400 0.0254
C16_2 C 0.3022(2) 0.1107(2) 0.31173(11)
H13_2 H 0.2199 0.0999 0.3285
C17_2 C 0.3172(2) 0.1881(2) 0.25365(11)
H14_2 H 0.2459 0.2280 0.2318
C18_2 C 0.44036(19) 0.20678(18) 0.22729(10)
C19_2 C 0.5433(2) 0.14407(18) 0.26222(10)
H15_2 H 0.6269 0.1537 0.2470
C20_2 C 0.5185(2) 0.06730(19) 0.31987(11)
H16_2 H 0.5877 0.0252 0.3424
H17_2 H 0.9351 0.8625 0.0039
C24_2 C 0.7034(2) 0.8487(2) 0.05993(12)
H21_2 H 0.7626 0.8970 0.0947
H22_2 H 0.7181 0.7599 0.0674
C25_2 C 0.5637(2) 0.8722(2) 0.07494(11)
H23_2 H 0.5459 0.9591 0.0635
H24_2 H 0.5040 0.8176 0.0436
C26_2 C 0.5387(2) 0.8475(2) 0.15362(11)
H25_2 H 0.5629 0.7626 0.1659
H26_2 H 0.5946 0.9061 0.1845
C27_2 C 0.3966(2) 0.8613(2) 0.16967(12)
H27_2 H 0.3689 0.9425 0.1521
H28_2 H 0.3922 0.8610 0.2217
C28_2 C 0.3029(2) 0.75797(19) 0.13574(10)
N4_2 N 0.74094(16) 0.38225(15) 0.03227(8)
N6_2 N 0.45098(17) 0.28950(17) 0.17092(9)
H42_2 H 0.3809(18) 0.324(2) 0.1577(12)
H5_2 H 0.9679 0.6403 0.8320
C21_2 C 0.86525(18) 0.69290(18) 0.95851(10)
C22_2 C 0.8683(2) 0.83525(19) 0.96594(13)
H18_2 H 0.8921 0.8727 0.9211
C23_2 C 0.7372(2) 0.8837(2) 0.98367(12)
H19_2 H 0.6688 0.8485 0.9487
H20_2 H 0.7401 0.9750 0.9792
O1_2 O 0.77661(13) 0.63538(13) 0.91738(8)
loop_
_geom_bond_atom_site_label_1
_geom_bond_atom_site_label_2
_geom_bond_site_symmetry_1
_geom_bond_site_symmetry_2
C21 C22 1_555 1_555
H18 C22 1_555 1_555
C23 C22 1_555 1_555
H19 C23 1_555 1_555
H20 C23 1_555 1_555
O1 Cd1 1_555 1_555
O2 Cd1 1_555 1_555
O10 Cd1 1_555 1_555
O11 Cd1 1_555 1_555
C21 O1 1_555 1_555
C21 O2 1_555 1_555
C11 H9 1_555 1_555
C12 C11 1_555 1_555
H10 C12 1_555 1_555
C13 C12 1_555 1_555
C14 C13 1_555 1_555
H11 C14 1_555 1_555
C15 C14 1_555 1_555
H12 C15 1_555 1_555
C16 H13 1_555 1_555
C17 C16 1_555 1_555
H14 C17 1_555 1_555
C18 C17 1_555 1_555
C19 C18 1_555 1_555
H15 C19 1_555 1_555
C20 C19 1_555 1_555
H16 C20 1_555 1_555
H21 C24 1_555 1_555
H22 C24 1_555 1_555
C25 C24 1_555 1_555
H23 C25 1_555 1_555
H24 C25 1_555 1_555
C26 C25 1_555 1_555
H25 C26 1_555 1_555
H26 C26 1_555 1_555
C27 C26 1_555 1_555
H27 C27 1_555 1_555
H28 C27 1_555 1_555
C28 C27 1_555 1_555
N5 C16 1_555 1_555
N6 C13 1_555 1_555
H42 N6 1_555 1_555
O3 C28 1_555 1_555
O4 C28 1_555 1_555
Cd4 O3 1_555 1_555
C11 N4 1_555 1_555
C15 N4 1_555 1_555
C18 N6 1_555 1_555
C20 N5 1_555 1_555
O4 Cd4 1_555 1_555
Cd5 N1 1_555 1_555
C1 H1 1_555 1_555
C2 C1 1_555 1_555
H2 C2 1_555 1_555
C3 C2 1_555 1_555
C4 C3 1_555 1_555
H3 C4 1_555 1_555
C5 C4 1_555 1_555
H4 C5 1_555 1_555
C7 C6 1_555 1_555
H6 C7 1_555 1_555
C8 C7 1_555 1_555
C9 C8 1_555 1_555
H7 C9 1_555 1_555
C10 C9 1_555 1_555
H8 C10 1_555 1_555
N1 C1 1_555 1_555
N2 C6 1_555 1_555
N3 C3 1_555 1_555
H41 N3 1_555 1_555
O12 Cd5 1_555 1_555
O13 Cd5 1_555 1_555
O14 Cd5 1_555 1_555
C5 N1 1_555 1_555
C8 N3 1_555 1_555
C10 N2 1_555 1_555
Cd4 O9 1_555 1_555
C29 C30 1_555 1_555
C30 H29 1_555 1_555
H30 C30 1_555 1_555
C31 C30 1_555 1_555
H31 C31 1_555 1_555
H32 C31 1_555 1_555
C32 C31 1_555 1_555
H33 C32 1_555 1_555
H34 C32 1_555 1_555
C33 C32 1_555 1_555
H35 C33 1_555 1_555
H36 C33 1_555 1_555
C34 C33 1_555 1_555
H37 C34 1_555 1_555
H38 C34 1_555 1_555
C35 C34 1_555 1_555
H39 C35 1_555 1_555
H40 C35 1_555 1_555
C36 C35 1_555 1_555
O13 C36 1_555 1_555
O14 C36 1_555 1_555
Cd6 O5 1_555 1_555
C29 O5 1_555 1_555
C29 O6 1_555 1_555
C29_2 C30_2 1_555 1_555
C30_2 H29_2 1_555 1_555
H30_2 C30_2 1_555 1_555
C31_2 C30_2 1_555 1_555
H31_2 C31_2 1_555 1_555
H32_2 C31_2 1_555 1_555
C32_2 C31_2 1_555 1_555
H33_2 C32_2 1_555 1_555
H34_2 C32_2 1_555 1_555
C33_2 C32_2 1_555 1_555
H35_2 C33_2 1_555 1_555
H36_2 C33_2 1_555 1_555
C34_2 C33_2 1_555 1_555
H37_2 C34_2 1_555 1_555
H38_2 C34_2 1_555 1_555
C35_2 C34_2 1_555 1_555
H39_2 C35_2 1_555 1_555
H40_2 C35_2 1_555 1_555
C36_2 C35_2 1_555 1_555
O7 C36_2 1_555 1_555
O8 C36_2 1_555 1_555
Cd6 O7 1_555 1_555
C29_2 O12 1_555 1_555
C29_2 O6_2 1_555 1_555
O8 Cd6 1_555 1_555
Cd6 N1_2 1_555 1_555
C1_2 H1_2 1_555 1_555
C2_2 C1_2 1_555 1_555
H2_2 C2_2 1_555 1_555
C3_2 C2_2 1_555 1_555
C4_2 C3_2 1_555 1_555
H3_2 C4_2 1_555 1_555
C5_2 C4_2 1_555 1_555
H4_2 C5_2 1_555 1_555
C7_2 C6_2 1_555 1_555
H6_2 C7_2 1_555 1_555
C8_2 C7_2 1_555 1_555
C9_2 C8_2 1_555 1_555
H7_2 C9_2 1_555 1_555
C10_2 C9_2 1_555 1_555
H8_2 C10_2 1_555 1_555
N1_2 C1_2 1_555 1_555
N2_2 C6_2 1_555 1_555
N3_2 C3_2 1_555 1_555
H41_2 N3_2 1_555 1_555
C5_2 N1_2 1_555 1_555
C8_2 N3_2 1_555 1_555
C10_2 N2_2 1_555 1_555
C11_2 H9_2 1_555 1_555
C12_2 C11_2 1_555 1_555
H10_2 C12_2 1_555 1_555
C13_2 C12_2 1_555 1_555
C14_2 C13_2 1_555 1_555
H11_2 C14_2 1_555 1_555
C15_2 C14_2 1_555 1_555
H12_2 C15_2 1_555 1_555
C16_2 H13_2 1_555 1_555
C17_2 C16_2 1_555 1_555
H14_2 C17_2 1_555 1_555
C18_2 C17_2 1_555 1_555
C19_2 C18_2 1_555 1_555
H15_2 C19_2 1_555 1_555
C20_2 C19_2 1_555 1_555
H16_2 C20_2 1_555 1_555
H21_2 C24_2 1_555 1_555
H22_2 C24_2 1_555 1_555
C25_2 C24_2 1_555 1_555
H23_2 C25_2 1_555 1_555
H24_2 C25_2 1_555 1_555
C26_2 C25_2 1_555 1_555
H25_2 C26_2 1_555 1_555
H26_2 C26_2 1_555 1_555
C27_2 C26_2 1_555 1_555
H27_2 C27_2 1_555 1_555
H28_2 C27_2 1_555 1_555
C28_2 C27_2 1_555 1_555
N7 C16_2 1_555 1_555
N6_2 C13_2 1_555 1_555
H42_2 N6_2 1_555 1_555
O10 C28_2 1_555 1_555
O11 C28_2 1_555 1_555
C11_2 N4_2 1_555 1_555
C15_2 N4_2 1_555 1_555
C18_2 N6_2 1_555 1_555
C20_2 N7 1_555 1_555
C21_2 C22_2 1_555 1_555
H18_2 C22_2 1_555 1_555
C23_2 C22_2 1_555 1_555
H19_2 C23_2 1_555 1_555
H20_2 C23_2 1_555 1_555
O1_2 Cd4 1_555 1_555
C21_2 O1_2 1_555 1_555
C21_2 O9 1_555 1_555

#END
