
###############################################################################
#
# This file contains modified crystal structure data generated from the
# MOF subset of the Cambridge Structural Database (CSD) v543 
# hosted by the Cambridge Crystallographic Data Centre (CCDC).
#
# This work is licensed under the Creative Commons
# Attribution-NonCommercial-ShareAlike 4.0 International License.
# To view a copy of this license, visit
# http://creativecommons.org/licenses/by-nc-sa/4.0/
# or send a letter to
# Creative Commons, PO Box 1866, Mountain View, CA 94042, USA.
#
# CIF created using the CSD Python API on 29 September 2022
# The structure has been converted into the P1 space group
# The structure has a 3D framework
# The original CSD entry YUPSIM is in the orthorhombic crystal system
# The framework has been calculated to contain at least 10.0% void space
# The void calculation uses a probe of radius 1.32A, grid spacing 0.4
#
###############################################################################

data_YUPSIM
_chemical_formula_moiety         '(C96 H76 N20 O72 Pr8)n'
_symmetry_cell_setting           triclinic
_symmetry_space_group_name_H-M   'P 1'
_symmetry_Int_Tables_number      1
_space_group_name_Hall           'P 1'
loop_
_symmetry_equiv_pos_site_id
_symmetry_equiv_pos_as_xyz
1 x,y,z
_cell_length_a                   8.5785(4)
_cell_length_b                   31.9322(15)
_cell_length_c                   13.8236(7)
_cell_angle_alpha                90
_cell_angle_beta                 90
_cell_angle_gamma                90
_cell_volume                     3786.7
loop_
_atom_site_label
_atom_site_type_symbol
_atom_site_fract_x
_atom_site_fract_y
_atom_site_fract_z
C19 C 0.4483(6) 0.08519(19) 0.0136(4)
C20 C 0.5458(6) 0.07248(19) 0.0870(4)
C21 C 0.5230(6) 0.03585(18) 0.1358(4)
H13 H 0.5903 0.0282 0.1855
C22 C 0.3984(5) 0.00995(17) 0.1109(4)
C23 C 0.2976(5) 0.02253(16) 0.0402(4)
H14 H 0.2121 0.0059 0.0248
N5 N 0.6775(6) 0.09948(15) 0.1170(4)
H15 H 0.6571 0.1106 0.1746
H16 H 0.6905 0.1198 0.0737
H17 H 0.7641 0.0842 0.1206
Pr7 Pr 0.42104(3) 0.103430(9) 0.70127(2)
C17 C 0.2075(6) 0.07328(17) 0.9157(4)
C18 C 0.3215(5) 0.05992(17) 0.9912(4)
H12 H 0.4667 0.1099 0.9801
O10 O 0.2474(4) 0.09505(11) 0.8429(3)
O13 O 0.0658(4) 0.06351(13) 0.9287(3)
O15 O 0.0802(4) 0.13846(12) 0.6800(3)
O21 O 0.0200(4) 0.04201(12) 0.7214(3)
O24 O 0.0599(4) 0.16370(15) 0.9097(4)
Pr1 Pr 0.07896(3) 0.896570(9) 0.20127(2)
C4 C 0.0637(5) 0.78730(18) 0.3898(4)
H2 H 0.1129 0.8124 0.4052
C5 C 0.1310(8) 0.7500 0.4132(5)
N1 N 0.0417(7) 0.8382(2) 0.0274(5)
N2 N 0.2778(8) 0.7500 0.4665(6)
H6 H 0.3206 0.7733 0.4828
H7 H 0.3216 0.7267 0.4818
O7 O 0.1466(5) 0.86563(14) 0.0317(3)
Pr6 Pr 0.07896(3) 0.603430(9) 0.20127(2)
Pr8 Pr 0.57896(3) 0.896570(9) 0.29873(2)
C16 C 0.0637(5) 0.71270(18) 0.3898(4)
H11 H 0.1129 0.6876 0.4052
C24 C 0.3751(6) 0.96935(18) 0.1618(4)
O11 O 0.2526(4) 0.90495(11) 0.3429(3)
O17 O 0.2035(4) 0.82652(12) 0.2116(3)
O19 O 0.4800(4) 0.95799(12) 0.2214(3)
O22 O 0.2571(4) 0.94806(12) 0.1409(3)
C13 C 0.6249(6) 0.03065(18) 0.8382(4)
O5 O 0.5200(4) 0.04201(12) 0.7786(3)
O6 O 0.7429(4) 0.05194(12) 0.8591(3)
Pr2 Pr 0.92104(3) 0.103430(9) 0.79873(2)
N4 N 0.9583(7) 0.1618(2) 0.9726(5)
O12 O 0.7474(4) 0.09505(11) 0.6571(3)
O18 O 0.7965(4) 0.17348(12) 0.7884(3)
O23 O 0.8534(5) 0.13437(14) 0.9683(3)
C1 C 0.8417(6) 0.82750(18) 0.3146(4)
C2 C 0.9196(5) 0.78741(17) 0.3422(4)
C3 C 0.8475(8) 0.7500 0.3207(5)
H1 H 0.7497 0.7500 0.2916
C6 C 0.7925(6) 0.92672(17) 0.0843(4)
C7 C 0.6785(5) 0.94008(17) 0.0088(4)
H3 H 0.5333 0.8901 0.0199
O1 O 0.7526(4) 0.90495(11) 0.1571(3)
O2 O 0.9342(4) 0.93649(13) 0.0713(3)
O3 O 0.9198(4) 0.86154(12) 0.3200(3)
O4 O 0.7035(4) 0.82652(12) 0.2884(3)
O8 O 0.9401(4) 0.83630(15) 0.0903(4)
Pr5 Pr 0.57896(3) 0.603430(9) 0.29873(2)
C14 C 0.8417(6) 0.67250(18) 0.3146(4)
C15 C 0.9196(5) 0.71259(17) 0.3422(4)
O14 O 0.9198(4) 0.63846(12) 0.3200(3)
O16 O 0.7035(4) 0.67348(12) 0.2884(3)
O20 O 0.9800(4) 0.95799(12) 0.2786(3)
C1_2 C 0.6583(6) 0.17250(18) 0.8146(4)
C2_2 C 0.5804(5) 0.21259(17) 0.8422(4)
C3_2 C 0.6525(8) 0.2500 0.8207(5)
H1_2 H 0.7503 0.2500 0.7916
C4_2 C 0.4363(5) 0.21270(18) 0.8898(4)
H2_2 H 0.3871 0.1876 0.9052
C5_2 C 0.3690(8) 0.2500 0.9132(5)
C6_2 C 0.7075(6) 0.07328(17) 0.5843(4)
C7_2 C 0.8215(5) 0.05992(17) 0.5088(4)
C8 C 0.9483(6) 0.08519(19) 0.4864(4)
H3_2 H 0.9667 0.1099 0.5199
C11 C 0.8984(5) 0.00995(17) 0.3891(4)
C12 C 0.7976(5) 0.02253(16) 0.4598(4)
H5 H 0.7121 0.0059 0.4752
N1_2 N 0.4583(7) 0.1618(2) 0.5274(5)
N2_2 N 0.2222(8) 0.2500 0.9665(6)
H6_2 H 0.1794 0.2267 0.9828
H7_2 H 0.1784 0.2733 0.9818
O2_2 O 0.5658(4) 0.06351(13) 0.5713(3)
O3_2 O 0.5802(4) 0.13846(12) 0.8200(3)
O7_2 O 0.3534(5) 0.13437(14) 0.5317(3)
O8_2 O 0.5599(4) 0.16370(15) 0.5903(4)
O9 O 0.4537(7) 0.1887(3) 0.4614(5)
Pr5_2 Pr 0.92104(3) 0.396570(9) 0.79873(2)
Pr6_2 Pr 0.42104(3) 0.396570(9) 0.70127(2)
C14_2 C 0.6583(6) 0.32750(18) 0.8146(4)
C15_2 C 0.5804(5) 0.28741(17) 0.8422(4)
C16_2 C 0.4363(5) 0.28730(18) 0.8898(4)
H11_2 H 0.3871 0.3124 0.9052
C24_2 C 0.1249(6) 0.03065(18) 0.6618(4)
O14_2 O 0.5802(4) 0.36154(12) 0.8200(3)
O16_2 O 0.7965(4) 0.32652(12) 0.7884(3)
O17_2 O 0.2965(4) 0.17348(12) 0.7116(3)
O22_2 O 0.2429(4) 0.05194(12) 0.6409(3)
C13_2 C 0.8751(6) 0.96935(18) 0.3382(4)
O6_2 O 0.7571(4) 0.94806(12) 0.3591(3)
C17_2 C 0.2925(6) 0.92672(17) 0.4157(4)
C18_2 C 0.1785(5) 0.94008(17) 0.4912(4)
C19_2 C 0.0517(6) 0.91481(19) 0.5136(4)
H12_2 H 0.0333 0.8901 0.4801
C22_2 C 0.1016(5) 0.99005(17) 0.6109(4)
C23_2 C 0.2024(5) 0.97747(16) 0.5402(4)
H14_2 H 0.2879 0.9941 0.5248
N4_2 N 0.5417(7) 0.8382(2) 0.4726(5)
O13_2 O 0.4342(4) 0.93649(13) 0.4287(3)
O15_2 O 0.4198(4) 0.86154(12) 0.1800(3)
O23_2 O 0.6466(5) 0.86563(14) 0.4683(3)
O24_2 O 0.4401(4) 0.83630(15) 0.4097(4)
O25 O 0.5463(7) 0.8113(3) 0.5386(5)
C8_2 C 0.4483(6) 0.41481(19) 0.0136(4)
C9 C 0.5458(6) 0.42752(19) 0.0870(4)
C10 C 0.5230(6) 0.46415(18) 0.1358(4)
H4 H 0.5903 0.4718 0.1855
C11_2 C 0.3984(5) 0.49005(17) 0.1109(4)
C12_2 C 0.2976(5) 0.47747(16) 0.0402(4)
H5_2 H 0.2121 0.4941 0.0248
C13_3 C 0.3751(6) 0.53065(18) 0.1618(4)
N3 N 0.6775(6) 0.40052(15) 0.1170(4)
H8 H 0.6571 0.3894 0.1746
H9 H 0.6905 0.3802 0.0737
H10 H 0.7641 0.4158 0.1206
O5_2 O 0.4800(4) 0.54201(12) 0.2214(3)
O6_3 O 0.2571(4) 0.55194(12) 0.1409(3)
N4_3 N 0.0417(7) 0.6618(2) 0.0274(5)
O12_2 O 0.2526(4) 0.59505(11) 0.3429(3)
O18_2 O 0.2035(4) 0.67348(12) 0.2116(3)
O23_3 O 0.1466(5) 0.63437(14) 0.0317(3)
C1_3 C 0.1583(6) 0.32750(18) 0.6854(4)
C2_3 C 0.0804(5) 0.28741(17) 0.6578(4)
C3_3 C 0.1525(8) 0.2500 0.6793(5)
H1_3 H 0.2503 0.2500 0.7084
C6_3 C 0.2075(6) 0.42672(17) 0.9157(4)
C7_3 C 0.3215(5) 0.44008(17) 0.9912(4)
H3_3 H 0.4667 0.3901 0.9801
O1_2 O 0.2474(4) 0.40495(11) 0.8429(3)
O2_3 O 0.0658(4) 0.43649(13) 0.9287(3)
O3_3 O 0.0802(4) 0.36154(12) 0.6800(3)
O4_2 O 0.2965(4) 0.32652(12) 0.7116(3)
O8_3 O 0.0599(4) 0.33630(15) 0.9097(4)
C14_3 C 0.1583(6) 0.17250(18) 0.6854(4)
C15_3 C 0.0804(5) 0.21259(17) 0.6578(4)
O20_2 O 0.0200(4) 0.45799(12) 0.7214(3)
O25_2 O 0.0463(7) 0.6887(3) 0.9614(5)
O9_2 O 0.9537(7) 0.3113(3) 0.0386(5)
C17_3 C 0.7925(6) 0.57328(17) 0.0843(4)
C18_3 C 0.6785(5) 0.55992(17) 0.0088(4)
H12_3 H 0.5333 0.6099 0.0199
O10_2 O 0.7526(4) 0.59505(11) 0.1571(3)
O13_3 O 0.9342(4) 0.56351(13) 0.0713(3)
O21_2 O 0.9800(4) 0.54201(12) 0.2786(3)
O24_3 O 0.9401(4) 0.66370(15) 0.0903(4)
C4_3 C 0.9363(5) 0.28730(18) 0.6102(4)
H2_3 H 0.8871 0.3124 0.5948
C5_3 C 0.8690(8) 0.2500 0.5868(5)
N1_3 N 0.9583(7) 0.3382(2) 0.9726(5)
N2_3 N 0.7222(8) 0.2500 0.5335(6)
H6_3 H 0.6794 0.2733 0.5172
H7_3 H 0.6784 0.2267 0.5182
O7_3 O 0.8534(5) 0.36563(14) 0.9683(3)
C16_3 C 0.9363(5) 0.21270(18) 0.6102(4)
H11_3 H 0.8871 0.1876 0.5948
C19_3 C 0.5517(6) 0.58519(19) 0.9864(4)
C20_2 C 0.4542(6) 0.57248(19) 0.9130(4)
C21_2 C 0.4770(6) 0.53585(18) 0.8642(4)
H13_2 H 0.4097 0.5282 0.8145
C22_3 C 0.6016(5) 0.50995(17) 0.8891(4)
C23_3 C 0.7024(5) 0.52253(16) 0.9598(4)
H14_3 H 0.7879 0.5059 0.9752
C24_3 C 0.6249(6) 0.46935(18) 0.8382(4)
N5_2 N 0.3225(6) 0.59948(15) 0.8830(4)
H15_2 H 0.3429 0.6106 0.8254
H16_2 H 0.3095 0.6198 0.9263
H17_2 H 0.2359 0.5842 0.8794
O11_2 O 0.7474(4) 0.40495(11) 0.6571(3)
O19_2 O 0.5200(4) 0.45799(12) 0.7786(3)
O22_3 O 0.7429(4) 0.44806(12) 0.8591(3)
C20_3 C 0.0458(6) 0.42752(19) 0.4130(4)
C21_3 C 0.0230(6) 0.46415(18) 0.3642(4)
H13_3 H 0.0903 0.4718 0.3145
N5_3 N 0.1775(6) 0.40052(15) 0.3830(4)
H15_3 H 0.1571 0.3894 0.3254
H16_3 H 0.1905 0.3802 0.4263
H17_3 H 0.2641 0.4158 0.3794
C1_4 C 0.3417(6) 0.67250(18) 0.1854(4)
C2_4 C 0.4196(5) 0.71259(17) 0.1578(4)
C3_4 C 0.3475(8) 0.7500 0.1793(5)
H1_4 H 0.2497 0.7500 0.2084
C4_4 C 0.5637(5) 0.71270(18) 0.1102(4)
H2_4 H 0.6129 0.6876 0.0948
C5_4 C 0.6310(8) 0.7500 0.0868(5)
C6_4 C 0.2925(6) 0.57328(17) 0.4157(4)
C7_4 C 0.1785(5) 0.55992(17) 0.4912(4)
C8_3 C 0.0517(6) 0.58519(19) 0.5136(4)
H3_4 H 0.0333 0.6099 0.4801
C11_3 C 0.1016(5) 0.50995(17) 0.6109(4)
C12_3 C 0.2024(5) 0.52253(16) 0.5402(4)
H5_3 H 0.2879 0.5059 0.5248
C13_4 C 0.1249(6) 0.46935(18) 0.6618(4)
N1_4 N 0.5417(7) 0.6618(2) 0.4726(5)
N2_4 N 0.7778(8) 0.7500 0.0335(6)
H6_4 H 0.8206 0.7267 0.0172
H7_4 H 0.8216 0.7733 0.0182
O2_4 O 0.4342(4) 0.56351(13) 0.4287(3)
O3_4 O 0.4198(4) 0.63846(12) 0.1800(3)
O6_4 O 0.2429(4) 0.44806(12) 0.6409(3)
O7_4 O 0.6466(5) 0.63437(14) 0.4683(3)
O8_4 O 0.4401(4) 0.66370(15) 0.4097(4)
O9_3 O 0.5463(7) 0.6887(3) 0.5386(5)
C14_4 C 0.3417(6) 0.82750(18) 0.1854(4)
C15_4 C 0.4196(5) 0.78741(17) 0.1578(4)
C16_4 C 0.5637(5) 0.78730(18) 0.1102(4)
H11_4 H 0.6129 0.8124 0.0948
C17_4 C 0.7075(6) 0.42672(17) 0.5843(4)
C18_4 C 0.8215(5) 0.44008(17) 0.5088(4)
C19_4 C 0.9483(6) 0.41481(19) 0.4864(4)
H12_4 H 0.9667 0.3901 0.5199
C22_4 C 0.8984(5) 0.49005(17) 0.3891(4)
C23_4 C 0.7976(5) 0.47747(16) 0.4598(4)
H14_4 H 0.7121 0.4941 0.4752
C24_4 C 0.8751(6) 0.53065(18) 0.3382(4)
N4_4 N 0.4583(7) 0.3382(2) 0.5274(5)
O13_4 O 0.5658(4) 0.43649(13) 0.5713(3)
O22_4 O 0.7571(4) 0.55194(12) 0.3591(3)
O23_4 O 0.3534(5) 0.36563(14) 0.5317(3)
O24_4 O 0.5599(4) 0.33630(15) 0.5903(4)
O25_3 O 0.4537(7) 0.3113(3) 0.4614(5)
C9_2 C 0.9542(6) 0.57248(19) 0.5870(4)
C10_2 C 0.9770(6) 0.53585(18) 0.6358(4)
H4_2 H 0.9097 0.5282 0.6855
N3_2 N 0.8225(6) 0.59948(15) 0.6170(4)
H8_2 H 0.8429 0.6106 0.6746
H9_2 H 0.8095 0.6198 0.5737
H10_2 H 0.7359 0.5842 0.6206
H6_5 H 0.6794 0.2267 0.5172
H7_5 H 0.6784 0.2733 0.5182
H6_6 H 0.8206 0.7733 0.0172
H7_6 H 0.8216 0.7267 0.0182
H6_7 H 0.3206 0.7267 0.4828
H7_7 H 0.3216 0.7733 0.4818
H6_8 H 0.1794 0.2733 0.9828
H7_8 H 0.1784 0.2267 0.9818
O9_4 O 0.0463(7) 0.8113(3) 0.9614(5)
O25_4 O 0.9537(7) 0.1887(3) 0.0386(5)
C8_4 C 0.5517(6) 0.91481(19) 0.9864(4)
C9_3 C 0.4542(6) 0.92752(19) 0.9130(4)
C10_3 C 0.4770(6) 0.96415(18) 0.8642(4)
H4_3 H 0.4097 0.9718 0.8145
C11_4 C 0.6016(5) 0.99005(17) 0.8891(4)
C12_4 C 0.7024(5) 0.97747(16) 0.9598(4)
H5_4 H 0.7879 0.9941 0.9752
N3_3 N 0.3225(6) 0.90052(15) 0.8830(4)
H8_3 H 0.3429 0.8894 0.8254
H9_3 H 0.3095 0.8802 0.9263
H10_3 H 0.2359 0.9158 0.8794
C9_4 C 0.0458(6) 0.07248(19) 0.4130(4)
C10_4 C 0.0230(6) 0.03585(18) 0.3642(4)
H4_4 H 0.0903 0.0282 0.3145
N3_4 N 0.1775(6) 0.09948(15) 0.3830(4)
H8_4 H 0.1571 0.1106 0.3254
H9_4 H 0.1905 0.1198 0.4263
H10_4 H 0.2641 0.0842 0.3794
C20_4 C 0.9542(6) 0.92752(19) 0.5870(4)
C21_4 C 0.9770(6) 0.96415(18) 0.6358(4)
H13_4 H 0.9097 0.9718 0.6855
N5_4 N 0.8225(6) 0.90052(15) 0.6170(4)
H15_4 H 0.8429 0.8894 0.6746
H16_4 H 0.8095 0.8802 0.5737
H17_4 H 0.7359 0.9158 0.6206
loop_
_geom_bond_atom_site_label_1
_geom_bond_atom_site_label_2
_geom_bond_site_symmetry_1
_geom_bond_site_symmetry_2
C20 C19 1_555 1_555
C21 C20 1_555 1_555
H13 C21 1_555 1_555
C22 C21 1_555 1_555
H14 C23 1_555 1_555
N5 C20 1_555 1_555
H15 N5 1_555 1_555
H16 N5 1_555 1_555
H17 N5 1_555 1_555
C22 C23 1_555 1_555
Pr7 O10 1_555 1_555
C17 C18 1_555 1_555
C17 O10 1_555 1_555
C17 O13 1_555 1_555
H2 C4 1_555 1_555
C5 C4 1_555 1_555
N1 O7 1_555 1_555
N2 C5 1_555 1_555
H6 N2 1_555 1_555
H7 N2 1_555 1_555
O7 Pr1 1_555 1_555
Pr8 O11 1_555 1_555
C16 C5 1_555 1_555
H11 C16 1_555 1_555
O11 Pr1 1_555 1_555
O17 Pr1 1_555 1_555
O19 Pr8 1_555 1_555
O22 Pr1 1_555 1_555
C24 O19 1_555 1_555
C24 O22 1_555 1_555
O5 C13 1_555 1_555
O6 C13 1_555 1_555
Pr2 O6 1_555 1_555
Pr7 O5 1_555 1_555
N4 O23 1_555 1_555
O12 Pr2 1_555 1_555
O18 Pr2 1_555 1_555
O23 Pr2 1_555 1_555
Pr7 O12 1_555 1_555
C1 C2 1_555 1_555
C2 C3 1_555 1_555
C3 H1 1_555 1_555
C6 C7 1_555 1_555
O1 C6 1_555 1_555
O4 C1 1_555 1_555
Pr8 O1 1_555 1_555
Pr5 O16 1_555 1_555
C14 C15 1_555 1_555
C15 C3 1_555 1_555
O14 C14 1_555 1_555
O16 C14 1_555 1_555
C1 O3 1_555 1_555
C6 O2 1_555 1_555
O4 Pr8 1_555 1_555
C1_2 C2_2 1_555 1_555
C2_2 C3_2 1_555 1_555
C3_2 H1_2 1_555 1_555
C4_2 C2_2 1_555 1_555
H2_2 C4_2 1_555 1_555
C5_2 C4_2 1_555 1_555
C6_2 C7_2 1_555 1_555
C7_2 C8 1_555 1_555
C8 H3_2 1_555 1_555
C12 C7_2 1_555 1_555
H5 C12 1_555 1_555
N1_2 O7_2 1_555 1_555
N2_2 C5_2 1_555 1_555
H6_2 N2_2 1_555 1_555
H7_2 N2_2 1_555 1_555
O12 C6_2 1_555 1_555
O2_2 Pr7 1_555 1_555
O3_2 Pr7 1_555 1_555
O18 C1_2 1_555 1_555
O7_2 Pr7 1_555 1_555
O8_2 Pr7 1_555 1_555
O9 N1_2 1_555 1_555
Pr5_2 O16_2 1_555 1_555
Pr6_2 O14_2 1_555 1_555
C14_2 C15_2 1_555 1_555
C15_2 C3_2 1_555 1_555
C16_2 C5_2 1_555 1_555
H11_2 C16_2 1_555 1_555
O14_2 C14_2 1_555 1_555
O16_2 C14_2 1_555 1_555
O17_2 Pr7 1_555 1_555
O22_2 Pr7 1_555 1_555
C1_2 O3_2 1_555 1_555
C6_2 O2_2 1_555 1_555
C11 C12 1_555 1_555
N1_2 O8_2 1_555 1_555
C15_2 C16_2 1_555 1_555
C24_2 O21 1_555 1_555
C24_2 O22_2 1_555 1_555
O20 C13_2 1_555 1_555
O6_2 C13_2 1_555 1_555
Pr8 O6_2 1_555 1_555
C17_2 C18_2 1_555 1_555
C18_2 C19_2 1_555 1_555
C19_2 H12_2 1_555 1_555
C23_2 C18_2 1_555 1_555
H14_2 C23_2 1_555 1_555
N4_2 O23_2 1_555 1_555
O13_2 Pr8 1_555 1_555
O15_2 Pr8 1_555 1_555
O23_2 Pr8 1_555 1_555
O24_2 Pr8 1_555 1_555
O25 N4_2 1_555 1_555
C17_2 O11 1_555 1_555
C17_2 O13_2 1_555 1_555
C22_2 C23_2 1_555 1_555
N4_2 O24_2 1_555 1_555
C9 C8_2 1_555 1_555
C10 C9 1_555 1_555
H4 C10 1_555 1_555
C11_2 C10 1_555 1_555
H5_2 C12_2 1_555 1_555
C13_3 C11_2 1_555 1_555
N3 C9 1_555 1_555
H8 N3 1_555 1_555
H9 N3 1_555 1_555
H10 N3 1_555 1_555
O5_2 C13_3 1_555 1_555
O6_3 C13_3 1_555 1_555
Pr6 O6_3 1_555 1_555
Pr5 O5_2 1_555 1_555
N4_3 O23_3 1_555 1_555
O12_2 Pr6 1_555 1_555
O18_2 Pr6 1_555 1_555
O23_3 Pr6 1_555 1_555
C11_2 C12_2 1_555 1_555
Pr5 O12_2 1_555 1_555
C1_3 C2_3 1_555 1_555
C2_3 C3_3 1_555 1_555
C3_3 H1_3 1_555 1_555
C6_3 C7_3 1_555 1_555
O1_2 C6_3 1_555 1_555
O4_2 C1_3 1_555 1_555
Pr6_2 O1_2 1_555 1_555
C14_3 C15_3 1_555 1_555
C15_3 C3_3 1_555 1_555
O15 C14_3 1_555 1_555
O17_2 C14_3 1_555 1_555
C1_3 O3_3 1_555 1_555
C6_3 O2_3 1_555 1_555
O4_2 Pr6_2 1_555 1_555
Pr5 O10_2 1_555 1_555
C17_3 C18_3 1_555 1_555
C17_3 O10_2 1_555 1_555
C17_3 O13_3 1_555 1_555
H2_3 C4_3 1_555 1_555
C5_3 C4_3 1_555 1_555
N1_3 O7_3 1_555 1_555
N2_3 C5_3 1_555 1_555
H6_3 N2_3 1_555 1_555
H7_3 N2_3 1_555 1_555
O7_3 Pr5_2 1_555 1_555
Pr6_2 O11_2 1_555 1_555
C16_3 C5_3 1_555 1_555
H11_3 C16_3 1_555 1_555
C20_2 C19_3 1_555 1_555
C21_2 C20_2 1_555 1_555
H13_2 C21_2 1_555 1_555
C22_3 C21_2 1_555 1_555
H14_3 C23_3 1_555 1_555
C24_3 C22_3 1_555 1_555
N5_2 C20_2 1_555 1_555
H15_2 N5_2 1_555 1_555
H16_2 N5_2 1_555 1_555
H17_2 N5_2 1_555 1_555
O11_2 Pr5_2 1_555 1_555
O19_2 Pr6_2 1_555 1_555
O22_3 Pr5_2 1_555 1_555
C22_3 C23_3 1_555 1_555
C24_3 O19_2 1_555 1_555
C24_3 O22_3 1_555 1_555
C21_3 C20_3 1_555 1_555
H13_3 C21_3 1_555 1_555
N5_3 C20_3 1_555 1_555
H15_3 N5_3 1_555 1_555
H16_3 N5_3 1_555 1_555
H17_3 N5_3 1_555 1_555
C1_4 C2_4 1_555 1_555
C2_4 C3_4 1_555 1_555
C3_4 H1_4 1_555 1_555
C4_4 C2_4 1_555 1_555
H2_4 C4_4 1_555 1_555
C5_4 C4_4 1_555 1_555
C6_4 C7_4 1_555 1_555
C7_4 C8_3 1_555 1_555
C8_3 H3_4 1_555 1_555
C12_3 C7_4 1_555 1_555
H5_3 C12_3 1_555 1_555
C13_4 C11_3 1_555 1_555
N1_4 O7_4 1_555 1_555
N2_4 C5_4 1_555 1_555
H6_4 N2_4 1_555 1_555
H7_4 N2_4 1_555 1_555
O12_2 C6_4 1_555 1_555
O2_4 Pr5 1_555 1_555
O3_4 Pr5 1_555 1_555
O18_2 C1_4 1_555 1_555
O20_2 C13_4 1_555 1_555
O6_4 C13_4 1_555 1_555
O7_4 Pr5 1_555 1_555
O8_4 Pr5 1_555 1_555
O9_3 N1_4 1_555 1_555
Pr6_2 O6_4 1_555 1_555
C14_4 C15_4 1_555 1_555
C15_4 C3_4 1_555 1_555
C16_4 C5_4 1_555 1_555
H11_4 C16_4 1_555 1_555
C17_4 C18_4 1_555 1_555
C18_4 C19_4 1_555 1_555
C19_4 H12_4 1_555 1_555
C23_4 C18_4 1_555 1_555
H14_4 C23_4 1_555 1_555
C24_4 C22_4 1_555 1_555
N4_4 O23_4 1_555 1_555
O13_4 Pr6_2 1_555 1_555
O15_2 C14_4 1_555 1_555
O17 C14_4 1_555 1_555
O22_4 Pr5 1_555 1_555
O23_4 Pr6_2 1_555 1_555
O24_4 Pr6_2 1_555 1_555
O25_3 N4_4 1_555 1_555
C1_4 O3_4 1_555 1_555
C6_4 O2_4 1_555 1_555
C11_3 C12_3 1_555 1_555
N1_4 O8_4 1_555 1_555
C15_4 C16_4 1_555 1_555
C17_4 O11_2 1_555 1_555
C17_4 O13_4 1_555 1_555
C22_4 C23_4 1_555 1_555
C24_4 O21_2 1_555 1_555
C24_4 O22_4 1_555 1_555
N4_4 O24_4 1_555 1_555
C10_2 C9_2 1_555 1_555
H4_2 C10_2 1_555 1_555
N3_2 C9_2 1_555 1_555
H8_2 N3_2 1_555 1_555
H9_2 N3_2 1_555 1_555
H10_2 N3_2 1_555 1_555
H6_5 N2_3 1_555 1_555
H7_5 N2_3 1_555 1_555
H6_6 N2_4 1_555 1_555
H7_6 N2_4 1_555 1_555
H6_7 N2 1_555 1_555
H7_7 N2 1_555 1_555
H6_8 N2_2 1_555 1_555
H7_8 N2_2 1_555 1_555
C9_3 C8_4 1_555 1_555
C10_3 C9_3 1_555 1_555
H4_3 C10_3 1_555 1_555
C11_4 C10_3 1_555 1_555
H5_4 C12_4 1_555 1_555
N3_3 C9_3 1_555 1_555
H8_3 N3_3 1_555 1_555
H9_3 N3_3 1_555 1_555
H10_3 N3_3 1_555 1_555
C11_4 C12_4 1_555 1_555
C10_4 C9_4 1_555 1_555
H4_4 C10_4 1_555 1_555
N3_4 C9_4 1_555 1_555
H8_4 N3_4 1_555 1_555
H9_4 N3_4 1_555 1_555
H10_4 N3_4 1_555 1_555
C21_4 C20_4 1_555 1_555
H13_4 C21_4 1_555 1_555
N5_4 C20_4 1_555 1_555
H15_4 N5_4 1_555 1_555
H16_4 N5_4 1_555 1_555
H17_4 N5_4 1_555 1_555

#END
