
###############################################################################
#
# This file contains modified crystal structure data generated from the
# MOF subset of the Cambridge Structural Database (CSD) v543 
# hosted by the Cambridge Crystallographic Data Centre (CCDC).
#
# This work is licensed under the Creative Commons
# Attribution-NonCommercial-ShareAlike 4.0 International License.
# To view a copy of this license, visit
# http://creativecommons.org/licenses/by-nc-sa/4.0/
# or send a letter to
# Creative Commons, PO Box 1866, Mountain View, CA 94042, USA.
#
# CIF created using the CSD Python API on 29 September 2022
# The structure has been converted into the P1 space group
# The structure has a 3D framework
# The original CSD entry YUQDUL is in the orthorhombic crystal system
# The framework has been calculated to contain at least 10.0% void space
# The void calculation uses a probe of radius 1.32A, grid spacing 0.4
#
###############################################################################

data_YUQDUL
_chemical_formula_moiety         '(C432 H262 Al22 O150)n'
_symmetry_cell_setting           triclinic
_symmetry_space_group_name_H-M   'P 1'
_symmetry_Int_Tables_number      1
_space_group_name_Hall           'P 1'
loop_
_symmetry_equiv_pos_site_id
_symmetry_equiv_pos_as_xyz
1 x,y,z
_cell_length_a                   27.1386(15)
_cell_length_b                   29.9214(19)
_cell_length_c                   17.1971(9)
_cell_angle_alpha                90
_cell_angle_beta                 90
_cell_angle_gamma                90
_cell_volume                     13964.5
loop_
_atom_site_label
_atom_site_type_symbol
_atom_site_fract_x
_atom_site_fract_y
_atom_site_fract_z
Al2 Al 0.0000 -0.0000 -0.0000
O23 O 0.03734(8) 0.05141(7) 0.02901(11)
Al1 Al 0.02535(3) 0.05415(3) 0.83645(4)
Al2_2 Al 0.0000 -0.0000 1.0000
C1 C 0.06003(10) 0.10731(9) 0.70946(15)
C2 C 0.09562(11) 0.13932(10) 0.67524(16)
C3 C 0.08778(13) 0.15447(11) 0.59948(18)
H1 H 0.0605 0.1445 0.5718
C4 C 0.12024(12) 0.18408(11) 0.56531(17)
H2 H 0.1147 0.1942 0.5149
C5 C 0.16075(12) 0.19858(10) 0.60604(18)
C6 C 0.16902(14) 0.18432(13) 0.68114(19)
H3 H 0.1962 0.1945 0.7088
C7 C 0.13628(13) 0.15458(12) 0.71472(18)
H4 H 0.1419 0.1447 0.7652
C8 C 0.44402(10) 0.08270(9) 0.49093(16)
C9 C 0.41799(11) 0.11819(10) 0.53483(16)
C10 C 0.40109(14) 0.15626(11) 0.49763(18)
H5 H 0.4053 0.1591 0.4442
C11 C 0.37830(15) 0.18976(12) 0.5384(2)
H6 H 0.3663 0.2148 0.5126
C12 C 0.37337(13) 0.18606(11) 0.61708(19)
C13 C 0.38910(14) 0.14892(12) 0.65503(19)
H7 H 0.3848 0.1464 0.7085
C14 C 0.41166(15) 0.11476(11) 0.61375(19)
H8 H 0.4226 0.0894 0.6397
C15 C 0.41827(10) 0.47840(9) 0.60601(15)
C16 C 0.37904(11) 0.44539(10) 0.62313(17)
C17 C 0.36507(13) 0.41408(12) 0.56804(19)
H9 H 0.3805 0.4139 0.5198
C18 C 0.32882(14) 0.38337(13) 0.5836(2)
H10 H 0.3202 0.3622 0.5464
C19 C 0.30532(12) 0.38420(11) 0.6546(2)
C20 C 0.31815(13) 0.41470(12) 0.7096(2)
H11 H 0.3024 0.4150 0.7576
C21 C 0.35480(13) 0.44519(11) 0.69327(19)
H12 H 0.3634 0.4662 0.7308
C22 C 0.27342(13) 0.22139(11) 0.61234(18)
H13 H 0.2742 0.1912 0.5997
C23 C 0.23171(12) 0.24665(11) 0.60130(17)
C24 C 0.22933(12) 0.29109(11) 0.6199(2)
H14 H 0.2004 0.3072 0.6126
C25 C 0.27041(12) 0.31137(10) 0.64938(19)
C26 C 0.31326(13) 0.28778(11) 0.66159(19)
H15 H 0.3410 0.3018 0.6819
C27 C 0.31436(12) 0.24289(11) 0.64316(18)
O1 O 0.07039(7) 0.08875(6) 0.77324(10)
O2 O 0.02093(7) 0.10135(6) 0.67150(10)
O3 O 0.46266(8) 0.05141(7) 0.52901(11)
O4 O 0.44488(7) 0.08701(6) 0.41848(10)
O5 O 0.42479(7) 0.50935(6) 0.65440(10)
O6 O 0.44203(7) 0.47326(7) 0.54423(11)
O7 O 0.0000 0.02646(8) 0.7500
O9 O 0.19068(9) 0.22739(8) 0.56543(13)
O10 O 0.35690(9) 0.22071(9) 0.66331(14)
O11 O 0.26634(9) 0.35551(7) 0.67110(16)
O18 O 0.01515(6) 0.02464(6) 0.59422(10)
H33 H 0.0451 0.0223 0.6080
Al5 Al 0.47465(3) 0.55415(3) 0.66355(4)
Al7 Al 0.47465(3) 0.05415(3) 0.33645(4)
Al9 Al 0.0000 -0.0000 0.5000
Al10 Al 0.5000 -0.0000 0.5000
Al12 Al 0.5000 0.5000 0.5000
O25 O 0.05512(7) 0.08701(6) 0.91848(10)
O27 O 0.07521(7) 0.00935(6) 0.84560(10)
Al2_3 Al 0.0000 1.0000 -0.0000
O30 O 0.01515(6) 0.97536(6) 0.09422(10)
Al2_4 Al 0.0000 1.0000 1.0000
H16 H 0.0000 0.9980 0.7500
Al9_2 Al 0.0000 1.0000 0.5000
Al10_2 Al 0.5000 1.0000 0.5000
O28 O 0.05797(7) 0.97326(7) 0.95577(11)
Al2_5 Al 1.0000 -0.0000 -0.0000
C35 C 0.55598(10) 0.08270(9) 0.00907(16)
C37 C 0.59891(14) 0.15626(11) 0.00237(18)
H22 H 0.5947 0.1591 0.0558
O15 O 0.55512(7) 0.08701(6) 0.08152(10)
Al6 Al 0.52535(3) 0.05415(3) 0.16355(4)
Al8 Al 0.5000 -0.0000 -0.0000
Al11 Al 0.5000 0.5000 -0.0000
O29 O 0.94203(7) 0.02674(7) 0.04423(11)
Al2_6 Al 1.0000 -0.0000 1.0000
O7_2 O 1.0000 0.02646(8) 0.7500
O8 O 0.98485(6) 0.02464(6) 0.90578(10)
H17 H 0.9549 0.0223 0.8920
Al3 Al 0.97465(3) 0.05415(3) 0.66355(4)
C28 C 0.93997(10) 0.10731(9) 0.79054(15)
C29 C 0.90438(11) 0.13932(10) 0.82476(16)
C30 C 0.91222(13) 0.15447(11) 0.90052(18)
H18 H 0.9395 0.1445 0.9282
C31 C 0.87976(12) 0.18408(11) 0.93469(17)
H19 H 0.8853 0.1942 0.9851
C32 C 0.83925(12) 0.19858(10) 0.89396(18)
C33 C 0.83098(14) 0.18432(13) 0.81886(19)
H20 H 0.8038 0.1945 0.7912
C34 C 0.86372(13) 0.15458(12) 0.78528(18)
H21 H 0.8581 0.1447 0.7348
C36 C 0.58201(11) 0.11819(10) 0.96517(16)
C38 C 0.62170(15) 0.18976(12) 0.9616(2)
H23 H 0.6337 0.2148 0.9874
C39 C 0.62663(13) 0.18606(11) 0.88292(19)
C40 C 0.61090(14) 0.14892(12) 0.84497(19)
H24 H 0.6152 0.1464 0.7915
C41 C 0.58834(15) 0.11476(11) 0.88625(19)
H25 H 0.5774 0.0894 0.8603
C42 C 0.58173(10) 0.47840(9) 0.89399(15)
C43 C 0.62096(11) 0.44539(10) 0.87687(17)
C44 C 0.63493(13) 0.41408(12) 0.93196(19)
H26 H 0.6195 0.4139 0.9802
C45 C 0.67118(14) 0.38337(13) 0.9164(2)
H27 H 0.6798 0.3622 0.9536
C46 C 0.69468(12) 0.38420(11) 0.8454(2)
C47 C 0.68185(13) 0.41470(12) 0.7904(2)
H28 H 0.6976 0.4150 0.7424
C48 C 0.64520(13) 0.44519(11) 0.80673(19)
H29 H 0.6366 0.4662 0.7692
C49 C 0.72658(13) 0.22139(11) 0.88766(18)
H30 H 0.7258 0.1912 0.9003
C50 C 0.76829(12) 0.24665(11) 0.89870(17)
C51 C 0.77067(12) 0.29109(11) 0.8801(2)
H31 H 0.7996 0.3072 0.8874
C52 C 0.72959(12) 0.31137(10) 0.85062(19)
C53 C 0.68674(13) 0.28778(11) 0.83841(19)
H32 H 0.6590 0.3018 0.8181
C54 C 0.68564(12) 0.24289(11) 0.85684(18)
O12 O 0.92961(7) 0.08875(6) 0.72676(10)
O13 O 0.97907(7) 0.10135(6) 0.82850(10)
O14 O 0.53734(8) 0.05141(7) 0.97099(11)
O16 O 0.57521(7) 0.50935(6) 0.84560(10)
O17 O 0.55797(7) 0.47326(7) 0.95577(11)
O19 O 0.80932(9) 0.22739(8) 0.93457(13)
O20 O 0.64310(9) 0.22071(9) 0.83669(14)
O21 O 0.73366(9) 0.35551(7) 0.82890(16)
Al4 Al 0.52535(3) 0.55415(3) 0.83645(4)
Al8_2 Al 0.5000 -0.0000 1.0000
Al9_3 Al 1.0000 -0.0000 0.5000
Al11_2 Al 0.5000 0.5000 1.0000
O24 O 0.94488(7) 0.08701(6) 0.58152(10)
O26 O 0.92479(7) 0.00935(6) 0.65440(10)
Al2_7 Al 1.0000 1.0000 -0.0000
Al8_3 Al 0.5000 1.0000 -0.0000
Al2_8 Al 1.0000 1.0000 1.0000
H16_2 H 1.0000 0.9980 0.7500
Al8_4 Al 0.5000 1.0000 1.0000
Al9_4 Al 1.0000 1.0000 0.5000
O22 O 0.96266(8) 0.94859(7) 0.97099(11)
Al11_3 Al 0.0000 0.5000 -0.0000
Al11_4 Al 0.0000 0.5000 1.0000
O30_2 O 0.48485(6) 0.02464(6) 0.09422(10)
H16_3 H 0.5000 0.0020 0.7500
O28_2 O 0.44203(7) 0.02674(7) 0.95577(11)
C35_2 C 0.94402(10) 0.91730(9) 0.00907(16)
C37_2 C 0.90109(14) 0.84374(11) 0.00237(18)
H22_2 H 0.9053 0.8409 0.0558
O15_2 O 0.94488(7) 0.91299(6) 0.08152(10)
Al6_2 Al 0.97465(3) 0.94585(3) 0.16355(4)
Al11_5 Al 1.0000 0.5000 -0.0000
O23_2 O 0.46266(8) 0.94859(7) 0.02901(11)
O29_2 O 0.55797(7) 0.97326(7) 0.04423(11)
Al1_2 Al 0.47465(3) 0.94585(3) 0.83645(4)
C1_2 C 0.43997(10) 0.89269(9) 0.70946(15)
C2_2 C 0.40438(11) 0.86068(10) 0.67524(16)
C3_2 C 0.41222(13) 0.84553(11) 0.59948(18)
H1_2 H 0.4395 0.8555 0.5718
C4_2 C 0.37976(12) 0.81592(11) 0.56531(17)
H2_2 H 0.3853 0.8058 0.5149
C5_2 C 0.33925(12) 0.80142(10) 0.60604(18)
C6_2 C 0.33098(14) 0.81568(13) 0.68114(19)
H3_2 H 0.3038 0.8055 0.7088
C7_2 C 0.36372(13) 0.84542(12) 0.71472(18)
H4_2 H 0.3581 0.8553 0.7652
C8_2 C 0.05598(10) 0.91730(9) 0.49093(16)
C9_2 C 0.08201(11) 0.88181(10) 0.53483(16)
C10_2 C 0.09891(14) 0.84374(11) 0.49763(18)
H5_2 H 0.0947 0.8409 0.4442
C11_2 C 0.12170(15) 0.81024(12) 0.5384(2)
H6_2 H 0.1337 0.7852 0.5126
C12_2 C 0.12663(13) 0.81394(11) 0.61708(19)
C13_2 C 0.11090(14) 0.85108(12) 0.65503(19)
H7_2 H 0.1152 0.8536 0.7085
C14_2 C 0.08834(15) 0.88524(11) 0.61375(19)
H8_2 H 0.0774 0.9106 0.6397
C15_2 C 0.08173(10) 0.52160(9) 0.60601(15)
C16_2 C 0.12096(11) 0.55461(10) 0.62313(17)
C17_2 C 0.13493(13) 0.58592(12) 0.56804(19)
H9_2 H 0.1195 0.5861 0.5198
C18_2 C 0.17118(14) 0.61663(13) 0.5836(2)
H10_2 H 0.1798 0.6378 0.5464
C19_2 C 0.19468(12) 0.61580(11) 0.6546(2)
C20_2 C 0.18185(13) 0.58530(12) 0.7096(2)
H11_2 H 0.1976 0.5850 0.7576
C21_2 C 0.14520(13) 0.55481(11) 0.69327(19)
H12_2 H 0.1366 0.5338 0.7308
C22_2 C 0.22658(13) 0.77861(11) 0.61234(18)
H13_2 H 0.2258 0.8088 0.5997
C23_2 C 0.26829(12) 0.75335(11) 0.60130(17)
C24_2 C 0.27067(12) 0.70891(11) 0.6199(2)
H14_2 H 0.2996 0.6928 0.6126
C25_2 C 0.22959(12) 0.68863(10) 0.64938(19)
C26_2 C 0.18674(13) 0.71222(11) 0.66159(19)
H15_2 H 0.1590 0.6982 0.6819
C27_2 C 0.18564(12) 0.75711(11) 0.64316(18)
O1_2 O 0.42961(7) 0.91125(6) 0.77324(10)
O2_2 O 0.47907(7) 0.89865(6) 0.67150(10)
O3_2 O 0.03734(8) 0.94859(7) 0.52901(11)
O4_2 O 0.05512(7) 0.91299(6) 0.41848(10)
O5_2 O 0.07521(7) 0.49065(6) 0.65440(10)
O6_2 O 0.05797(7) 0.52674(7) 0.54423(11)
O7_3 O 0.5000 0.97354(8) 0.7500
O8_2 O 0.51515(6) 0.97536(6) 0.90578(10)
H17_2 H 0.5451 0.9777 0.8920
O9_2 O 0.30932(9) 0.77261(8) 0.56543(13)
O10_2 O 0.14310(9) 0.77929(9) 0.66331(14)
O11_2 O 0.23366(9) 0.64449(7) 0.67110(16)
Al3_2 Al 0.52535(3) 0.94585(3) 0.66355(4)
C28_2 C 0.56003(10) 0.89269(9) 0.79054(15)
C29_2 C 0.59562(11) 0.86068(10) 0.82476(16)
C30_2 C 0.58778(13) 0.84553(11) 0.90052(18)
H18_2 H 0.5605 0.8555 0.9282
C31_2 C 0.62024(12) 0.81592(11) 0.93469(17)
H19_2 H 0.6147 0.8058 0.9851
C32_2 C 0.66075(12) 0.80142(10) 0.89396(18)
C33_2 C 0.66902(14) 0.81568(13) 0.81886(19)
H20_2 H 0.6962 0.8055 0.7912
C34_2 C 0.63628(13) 0.84542(12) 0.78528(18)
H21_2 H 0.6419 0.8553 0.7348
C36_2 C 0.91799(11) 0.88181(10) 0.96517(16)
C38_2 C 0.87830(15) 0.81024(12) 0.9616(2)
H23_2 H 0.8663 0.7852 0.9874
C39_2 C 0.87337(13) 0.81394(11) 0.88292(19)
C40_2 C 0.88910(14) 0.85108(12) 0.84497(19)
H24_2 H 0.8848 0.8536 0.7915
C41_2 C 0.91166(15) 0.88524(11) 0.88625(19)
H25_2 H 0.9226 0.9106 0.8603
C42_2 C 0.91827(10) 0.52160(9) 0.89399(15)
C43_2 C 0.87904(11) 0.55461(10) 0.87687(17)
C44_2 C 0.86507(13) 0.58592(12) 0.93196(19)
H26_2 H 0.8805 0.5861 0.9802
C45_2 C 0.82882(14) 0.61663(13) 0.9164(2)
H27_2 H 0.8202 0.6378 0.9536
C46_2 C 0.80532(12) 0.61580(11) 0.8454(2)
C47_2 C 0.81815(13) 0.58530(12) 0.7904(2)
H28_2 H 0.8024 0.5850 0.7424
C48_2 C 0.85480(13) 0.55481(11) 0.80673(19)
H29_2 H 0.8634 0.5338 0.7692
C49_2 C 0.77342(13) 0.77861(11) 0.88766(18)
H30_2 H 0.7742 0.8088 0.9003
C50_2 C 0.73171(12) 0.75335(11) 0.89870(17)
C51_2 C 0.72933(12) 0.70891(11) 0.8801(2)
H31_2 H 0.7004 0.6928 0.8874
C52_2 C 0.77041(12) 0.68863(10) 0.85062(19)
C53_2 C 0.81326(13) 0.71222(11) 0.83841(19)
H32_2 H 0.8410 0.6982 0.8181
C54_2 C 0.81436(12) 0.75711(11) 0.85684(18)
O12_2 O 0.57039(7) 0.91125(6) 0.72676(10)
O13_2 O 0.52093(7) 0.89865(6) 0.82850(10)
O16_2 O 0.92479(7) 0.49065(6) 0.84560(10)
O17_2 O 0.94203(7) 0.52674(7) 0.95577(11)
O18_2 O 0.48485(6) 0.97536(6) 0.59422(10)
H33_2 H 0.4549 0.9777 0.6080
O19_2 O 0.69068(9) 0.77261(8) 0.93457(13)
O20_2 O 0.85690(9) 0.77929(9) 0.83669(14)
O21_2 O 0.76634(9) 0.64449(7) 0.82890(16)
Al4_2 Al 0.97465(3) 0.44585(3) 0.83645(4)
Al5_2 Al 0.02535(3) 0.44585(3) 0.66355(4)
Al7_2 Al 0.02535(3) 0.94585(3) 0.33645(4)
Al11_6 Al 1.0000 0.5000 1.0000
Al12_2 Al -0.0000 0.5000 0.5000
O24_2 O 0.55512(7) 0.91299(6) 0.58152(10)
O25_2 O 0.44488(7) 0.91299(6) 0.91848(10)
O26_2 O 0.57521(7) 0.99065(6) 0.65440(10)
O27_2 O 0.42479(7) 0.99065(6) 0.84560(10)
Al12_3 Al 1.0000 0.5000 0.5000
O29_3 O 0.05797(7) 0.02674(7) 0.45577(11)
O23_3 O 0.96266(8) 0.05141(7) 0.47099(11)
O28_3 O 0.94203(7) 0.97326(7) 0.54423(11)
O30_3 O 0.98485(6) 0.97536(6) 0.40578(10)
O28_4 O 0.55797(7) 0.02674(7) 0.54423(11)
O30_4 O 0.51515(6) 0.02464(6) 0.40578(10)
O23_4 O 0.53734(8) 0.94859(7) 0.47099(11)
O29_4 O 0.44203(7) 0.97326(7) 0.45577(11)
C35_3 C 0.05598(10) 0.58270(9) 0.00907(16)
C37_3 C 0.09891(14) 0.65626(11) 0.00237(18)
H22_3 H 0.0947 0.6591 0.0558
O15_3 O 0.05512(7) 0.58701(6) 0.08152(10)
Al6_3 Al 0.02535(3) 0.55415(3) 0.16355(4)
O23_5 O 0.53734(8) 0.55141(7) 0.02901(11)
O29_5 O 0.44203(7) 0.52674(7) 0.04423(11)
O30_5 O 0.51515(6) 0.47536(6) 0.09422(10)
C1_3 C 0.56003(10) 0.60731(9) 0.70946(15)
C2_3 C 0.59562(11) 0.63932(10) 0.67524(16)
C3_3 C 0.58778(13) 0.65447(11) 0.59948(18)
H1_3 H 0.5605 0.6445 0.5718
C4_3 C 0.62024(12) 0.68408(11) 0.56531(17)
H2_3 H 0.6147 0.6942 0.5149
C5_3 C 0.66075(12) 0.69858(10) 0.60604(18)
C6_3 C 0.66902(14) 0.68432(13) 0.68114(19)
H3_3 H 0.6962 0.6945 0.7088
C7_3 C 0.63628(13) 0.65458(12) 0.71472(18)
H4_3 H 0.6419 0.6447 0.7652
C8_3 C 0.94402(10) 0.58270(9) 0.49093(16)
C9_3 C 0.91799(11) 0.61819(10) 0.53483(16)
C10_3 C 0.90109(14) 0.65626(11) 0.49763(18)
H5_3 H 0.9053 0.6591 0.4442
C11_3 C 0.87830(15) 0.68976(12) 0.5384(2)
H6_3 H 0.8663 0.7148 0.5126
C12_3 C 0.87337(13) 0.68606(11) 0.61708(19)
C13_3 C 0.88910(14) 0.64892(12) 0.65503(19)
H7_3 H 0.8848 0.6464 0.7085
C14_3 C 0.91166(15) 0.61476(11) 0.61375(19)
H8_3 H 0.9226 0.5894 0.6397
C15_3 C 0.91827(10) 0.97840(9) 0.60601(15)
C16_3 C 0.87904(11) 0.94539(10) 0.62313(17)
C17_3 C 0.86507(13) 0.91408(12) 0.56804(19)
H9_3 H 0.8805 0.9139 0.5198
C18_3 C 0.82882(14) 0.88337(13) 0.5836(2)
H10_3 H 0.8202 0.8622 0.5464
C19_3 C 0.80532(12) 0.88420(11) 0.6546(2)
C20_3 C 0.81815(13) 0.91470(12) 0.7096(2)
H11_3 H 0.8024 0.9150 0.7576
C21_3 C 0.85480(13) 0.94519(11) 0.69327(19)
H12_3 H 0.8634 0.9662 0.7308
C22_3 C 0.77342(13) 0.72139(11) 0.61234(18)
H13_3 H 0.7742 0.6912 0.5997
C23_3 C 0.73171(12) 0.74665(11) 0.60130(17)
C24_3 C 0.72933(12) 0.79109(11) 0.6199(2)
H14_3 H 0.7004 0.8072 0.6126
C25_3 C 0.77041(12) 0.81137(10) 0.64938(19)
C26_3 C 0.81326(13) 0.78778(11) 0.66159(19)
H15_3 H 0.8410 0.8018 0.6819
C27_3 C 0.81436(12) 0.74289(11) 0.64316(18)
O1_3 O 0.57039(7) 0.58875(6) 0.77324(10)
O2_3 O 0.52093(7) 0.60135(6) 0.67150(10)
O3_3 O 0.96266(8) 0.55141(7) 0.52901(11)
O4_3 O 0.94488(7) 0.58701(6) 0.41848(10)
O7_4 O 0.5000 0.52646(8) 0.7500
H16_4 H 0.5000 0.4980 0.7500
O8_3 O 0.48485(6) 0.52464(6) 0.90578(10)
H17_3 H 0.4549 0.5223 0.8920
O9_3 O 0.69068(9) 0.72739(8) 0.56543(13)
O10_3 O 0.85690(9) 0.72071(9) 0.66331(14)
O11_3 O 0.76634(9) 0.85551(7) 0.67110(16)
C28_3 C 0.43997(10) 0.60731(9) 0.79054(15)
C29_3 C 0.40438(11) 0.63932(10) 0.82476(16)
C30_3 C 0.41222(13) 0.65447(11) 0.90052(18)
H18_3 H 0.4395 0.6445 0.9282
C31_3 C 0.37976(12) 0.68408(11) 0.93469(17)
H19_3 H 0.3853 0.6942 0.9851
C32_3 C 0.33925(12) 0.69858(10) 0.89396(18)
C33_3 C 0.33098(14) 0.68432(13) 0.81886(19)
H20_3 H 0.3038 0.6945 0.7912
C34_3 C 0.36372(13) 0.65458(12) 0.78528(18)
H21_3 H 0.3581 0.6447 0.7348
C36_3 C 0.08201(11) 0.61819(10) 0.96517(16)
C38_3 C 0.12170(15) 0.68976(12) 0.9616(2)
H23_3 H 0.1337 0.7148 0.9874
C39_3 C 0.12663(13) 0.68606(11) 0.88292(19)
C40_3 C 0.11090(14) 0.64892(12) 0.84497(19)
H24_3 H 0.1152 0.6464 0.7915
C41_3 C 0.08834(15) 0.61476(11) 0.88625(19)
H25_3 H 0.0774 0.5894 0.8603
C42_3 C 0.08173(10) 0.97840(9) 0.89399(15)
C43_3 C 0.12096(11) 0.94539(10) 0.87687(17)
C44_3 C 0.13493(13) 0.91408(12) 0.93196(19)
H26_3 H 0.1195 0.9139 0.9802
C45_3 C 0.17118(14) 0.88337(13) 0.9164(2)
H27_3 H 0.1798 0.8622 0.9536
C46_3 C 0.19468(12) 0.88420(11) 0.8454(2)
C47_3 C 0.18185(13) 0.91470(12) 0.7904(2)
H28_3 H 0.1976 0.9150 0.7424
C48_3 C 0.14520(13) 0.94519(11) 0.80673(19)
H29_3 H 0.1366 0.9662 0.7692
C49_3 C 0.22658(13) 0.72139(11) 0.88766(18)
H30_3 H 0.2258 0.6912 0.9003
C50_3 C 0.26829(12) 0.74665(11) 0.89870(17)
C51_3 C 0.27067(12) 0.79109(11) 0.8801(2)
H31_3 H 0.2996 0.8072 0.8874
C52_3 C 0.22959(12) 0.81137(10) 0.85062(19)
C53_3 C 0.18674(13) 0.78778(11) 0.83841(19)
H32_3 H 0.1590 0.8018 0.8181
C54_3 C 0.18564(12) 0.74289(11) 0.85684(18)
O12_3 O 0.42961(7) 0.58875(6) 0.72676(10)
O13_3 O 0.47907(7) 0.60135(6) 0.82850(10)
O14_2 O 0.03734(8) 0.55141(7) 0.97099(11)
O18_3 O 0.51515(6) 0.52464(6) 0.59422(10)
H33_3 H 0.5451 0.5223 0.6080
O19_3 O 0.30932(9) 0.72739(8) 0.93457(13)
O20_3 O 0.14310(9) 0.72071(9) 0.83669(14)
O21_3 O 0.23366(9) 0.85551(7) 0.82890(16)
Al7_3 Al 0.97465(3) 0.55415(3) 0.33645(4)
O22_2 O 0.46266(8) 0.44859(7) 0.97099(11)
O24_3 O 0.44488(7) 0.58701(6) 0.58152(10)
O25_3 O 0.55512(7) 0.58701(6) 0.91848(10)
C35_4 C 0.44402(10) 0.41730(9) 0.00907(16)
C37_4 C 0.40109(14) 0.34374(11) 0.00237(18)
H22_4 H 0.4053 0.3409 0.0558
O15_4 O 0.44488(7) 0.41299(6) 0.08152(10)
Al6_4 Al 0.47465(3) 0.44585(3) 0.16355(4)
O29_6 O 0.05797(7) 0.47326(7) 0.04423(11)
O7_5 O 0.0000 0.47354(8) 0.7500
H16_5 H 0.0000 0.5020 0.7500
O8_4 O 0.01515(6) 0.47536(6) 0.90578(10)
H17_4 H 0.0451 0.4777 0.8920
C28_4 C 0.06003(10) 0.39269(9) 0.79054(15)
C29_4 C 0.09562(11) 0.36068(10) 0.82476(16)
C30_4 C 0.08778(13) 0.34553(11) 0.90052(18)
H18_4 H 0.0605 0.3555 0.9282
C31_4 C 0.12024(12) 0.31592(11) 0.93469(17)
H19_4 H 0.1147 0.3058 0.9851
C32_4 C 0.16075(12) 0.30142(10) 0.89396(18)
C33_4 C 0.16902(14) 0.31568(13) 0.81886(19)
H20_4 H 0.1962 0.3055 0.7912
C34_4 C 0.13628(13) 0.34542(12) 0.78528(18)
H21_4 H 0.1419 0.3553 0.7348
C36_4 C 0.41799(11) 0.38181(10) 0.96517(16)
C38_4 C 0.37830(15) 0.31024(12) 0.9616(2)
H23_4 H 0.3663 0.2852 0.9874
C39_4 C 0.37337(13) 0.31394(11) 0.88292(19)
C40_4 C 0.38910(14) 0.35108(12) 0.84497(19)
H24_4 H 0.3848 0.3536 0.7915
C41_4 C 0.41166(15) 0.38524(11) 0.88625(19)
H25_4 H 0.4226 0.4106 0.8603
C42_4 C 0.41827(10) 0.02160(9) 0.89399(15)
C43_4 C 0.37904(11) 0.05461(10) 0.87687(17)
C44_4 C 0.36507(13) 0.08592(12) 0.93196(19)
H26_4 H 0.3805 0.0861 0.9802
C45_4 C 0.32882(14) 0.11663(13) 0.9164(2)
H27_4 H 0.3202 0.1378 0.9536
C46_4 C 0.30532(12) 0.11580(11) 0.8454(2)
C47_4 C 0.31815(13) 0.08530(12) 0.7904(2)
H28_4 H 0.3024 0.0850 0.7424
C48_4 C 0.35480(13) 0.05481(11) 0.80673(19)
H29_4 H 0.3634 0.0338 0.7692
C49_4 C 0.27342(13) 0.27861(11) 0.88766(18)
H30_4 H 0.2742 0.3088 0.9003
C50_4 C 0.23171(12) 0.25335(11) 0.89870(17)
C51_4 C 0.22933(12) 0.20891(11) 0.8801(2)
H31_4 H 0.2004 0.1928 0.8874
C52_4 C 0.27041(12) 0.18863(10) 0.85062(19)
C53_4 C 0.31326(13) 0.21222(11) 0.83841(19)
H32_4 H 0.3410 0.1982 0.8181
C54_4 C 0.31436(12) 0.25711(11) 0.85684(18)
O12_4 O 0.07039(7) 0.41125(6) 0.72676(10)
O13_4 O 0.02093(7) 0.39865(6) 0.82850(10)
O19_4 O 0.19068(9) 0.27261(8) 0.93457(13)
O20_4 O 0.35690(9) 0.27929(9) 0.83669(14)
O21_4 O 0.26634(9) 0.14449(7) 0.82890(16)
O24_4 O 0.05512(7) 0.41299(6) 0.58152(10)
O23_6 O 0.96266(8) 0.44859(7) 0.02901(11)
O30_6 O 0.98485(6) 0.52464(6) 0.09422(10)
C1_4 C 0.93997(10) 0.39269(9) 0.70946(15)
C2_4 C 0.90438(11) 0.36068(10) 0.67524(16)
C3_4 C 0.91222(13) 0.34553(11) 0.59948(18)
H1_4 H 0.9395 0.3555 0.5718
C4_4 C 0.87976(12) 0.31592(11) 0.56531(17)
H2_4 H 0.8853 0.3058 0.5149
C5_4 C 0.83925(12) 0.30142(10) 0.60604(18)
C6_4 C 0.83098(14) 0.31568(13) 0.68114(19)
H3_4 H 0.8038 0.3055 0.7088
C7_4 C 0.86372(13) 0.34542(12) 0.71472(18)
H4_4 H 0.8581 0.3553 0.7652
C8_4 C 0.55598(10) 0.41730(9) 0.49093(16)
C9_4 C 0.58201(11) 0.38181(10) 0.53483(16)
C10_4 C 0.59891(14) 0.34374(11) 0.49763(18)
H5_4 H 0.5947 0.3409 0.4442
C11_4 C 0.62170(15) 0.31024(12) 0.5384(2)
H6_4 H 0.6337 0.2852 0.5126
C12_4 C 0.62663(13) 0.31394(11) 0.61708(19)
C13_4 C 0.61090(14) 0.35108(12) 0.65503(19)
H7_4 H 0.6152 0.3536 0.7085
C14_4 C 0.58834(15) 0.38524(11) 0.61375(19)
H8_4 H 0.5774 0.4106 0.6397
C15_4 C 0.58173(10) 0.02160(9) 0.60601(15)
C16_4 C 0.62096(11) 0.05461(10) 0.62313(17)
C17_4 C 0.63493(13) 0.08592(12) 0.56804(19)
H9_4 H 0.6195 0.0861 0.5198
C18_4 C 0.67118(14) 0.11663(13) 0.5836(2)
H10_4 H 0.6798 0.1378 0.5464
C19_4 C 0.69468(12) 0.11580(11) 0.6546(2)
C20_4 C 0.68185(13) 0.08530(12) 0.7096(2)
H11_4 H 0.6976 0.0850 0.7576
C21_4 C 0.64520(13) 0.05481(11) 0.69327(19)
H12_4 H 0.6366 0.0338 0.7308
C22_4 C 0.72658(13) 0.27861(11) 0.61234(18)
H13_4 H 0.7258 0.3088 0.5997
C23_4 C 0.76829(12) 0.25335(11) 0.60130(17)
C24_4 C 0.77067(12) 0.20891(11) 0.6199(2)
H14_4 H 0.7996 0.1928 0.6126
C25_4 C 0.72959(12) 0.18863(10) 0.64938(19)
C26_4 C 0.68674(13) 0.21222(11) 0.66159(19)
H15_4 H 0.6590 0.1982 0.6819
C27_4 C 0.68564(12) 0.25711(11) 0.64316(18)
O1_4 O 0.92961(7) 0.41125(6) 0.77324(10)
O2_4 O 0.97907(7) 0.39865(6) 0.67150(10)
O3_4 O 0.53734(8) 0.44859(7) 0.52901(11)
O4_4 O 0.55512(7) 0.41299(6) 0.41848(10)
O7_6 O 1.0000 0.47354(8) 0.7500
H16_6 H 1.0000 0.5020 0.7500
O9_4 O 0.80932(9) 0.27261(8) 0.56543(13)
O10_4 O 0.64310(9) 0.27929(9) 0.66331(14)
O11_4 O 0.73366(9) 0.14449(7) 0.67110(16)
O18_4 O 0.98485(6) 0.47536(6) 0.59422(10)
H33_4 H 0.9549 0.4777 0.6080
Al7_4 Al 0.52535(3) 0.44585(3) 0.33645(4)
O25_4 O 0.94488(7) 0.41299(6) 0.91848(10)
O23_7 O 0.46266(8) 0.55141(7) 0.47099(11)
O29_7 O 0.55797(7) 0.52674(7) 0.45577(11)
O30_7 O 0.48485(6) 0.47536(6) 0.40578(10)
O23_8 O 0.03734(8) 0.44859(7) 0.47099(11)
O30_8 O 0.01515(6) 0.52464(6) 0.40578(10)
O29_8 O 0.94203(7) 0.47326(7) 0.45577(11)
H16_7 H -0.0000 0.0020 0.2500
O7_7 O -0.0000 0.97354(8) 0.2500
H17_5 H 0.0451 0.9777 0.1080
C28_5 C 0.06003(10) 0.89269(9) 0.20946(15)
C29_5 C 0.09562(11) 0.86068(10) 0.17524(16)
C30_5 C 0.08778(13) 0.84553(11) 0.09948(18)
H18_5 H 0.0605 0.8555 0.0718
C31_5 C 0.12024(12) 0.81592(11) 0.06531(17)
H19_5 H 0.1147 0.8058 0.0149
C32_5 C 0.16075(12) 0.80142(10) 0.10604(18)
C33_5 C 0.16902(14) 0.81568(13) 0.18114(19)
H20_5 H 0.1962 0.8055 0.2088
C34_5 C 0.13628(13) 0.84542(12) 0.21472(18)
H21_5 H 0.1419 0.8553 0.2652
C36_5 C 0.41799(11) 0.88181(10) 0.03483(16)
C38_5 C 0.37830(15) 0.81024(12) 0.0384(2)
H23_5 H 0.3663 0.7852 0.0126
C39_5 C 0.37337(13) 0.81394(11) 0.11708(19)
C40_5 C 0.38910(14) 0.85108(12) 0.15503(19)
H24_5 H 0.3848 0.8536 0.2085
C41_5 C 0.41166(15) 0.88524(11) 0.11375(19)
H25_5 H 0.4226 0.9106 0.1397
C42_5 C 0.41827(10) 0.52160(9) 0.10601(15)
C43_5 C 0.37904(11) 0.55461(10) 0.12313(17)
C44_5 C 0.36507(13) 0.58592(12) 0.06804(19)
H26_5 H 0.3805 0.5861 0.0198
C45_5 C 0.32882(14) 0.61663(13) 0.0836(2)
H27_5 H 0.3202 0.6378 0.0464
C46_5 C 0.30532(12) 0.61580(11) 0.1546(2)
C47_5 C 0.31815(13) 0.58530(12) 0.2096(2)
H28_5 H 0.3024 0.5850 0.2576
C48_5 C 0.35480(13) 0.55481(11) 0.19327(19)
H29_5 H 0.3634 0.5338 0.2308
C49_5 C 0.27342(13) 0.77861(11) 0.11234(18)
H30_5 H 0.2742 0.8088 0.0997
C50_5 C 0.23171(12) 0.75335(11) 0.10130(17)
C51_5 C 0.22933(12) 0.70891(11) 0.1199(2)
H31_5 H 0.2004 0.6928 0.1126
C52_5 C 0.27041(12) 0.68863(10) 0.14938(19)
C53_5 C 0.31326(13) 0.71222(11) 0.16159(19)
H32_5 H 0.3410 0.6982 0.1819
C54_5 C 0.31436(12) 0.75711(11) 0.14316(18)
O12_5 O 0.07039(7) 0.91125(6) 0.27324(10)
O13_5 O 0.02093(7) 0.89865(6) 0.17150(10)
O16_3 O 0.42479(7) 0.49065(6) 0.15440(10)
O19_5 O 0.19068(9) 0.77261(8) 0.06543(13)
O20_5 O 0.35690(9) 0.77929(9) 0.16331(14)
O21_5 O 0.26634(9) 0.64449(7) 0.17110(16)
O26_3 O 0.07521(7) 0.99065(6) 0.34560(10)
C35_5 C 0.44402(10) 0.91730(9) 0.99093(16)
C37_5 C 0.40109(14) 0.84374(11) 0.99763(18)
H22_5 H 0.4053 0.8409 0.9442
H16_8 H 1.0000 0.0020 0.2500
C1_5 C 0.93997(10) 0.89269(9) 0.29054(15)
C2_5 C 0.90438(11) 0.86068(10) 0.32476(16)
C3_5 C 0.91222(13) 0.84553(11) 0.40052(18)
H1_5 H 0.9395 0.8555 0.4282
C4_5 C 0.87976(12) 0.81592(11) 0.43469(17)
H2_5 H 0.8853 0.8058 0.4851
C5_5 C 0.83925(12) 0.80142(10) 0.39396(18)
C6_5 C 0.83098(14) 0.81568(13) 0.31886(19)
H3_5 H 0.8038 0.8055 0.2912
C7_5 C 0.86372(13) 0.84542(12) 0.28528(18)
H4_5 H 0.8581 0.8553 0.2348
C8_5 C 0.55598(10) 0.91730(9) 0.50907(16)
C9_5 C 0.58201(11) 0.88181(10) 0.46517(16)
C10_5 C 0.59891(14) 0.84374(11) 0.50237(18)
H5_5 H 0.5947 0.8409 0.5558
C11_5 C 0.62170(15) 0.81024(12) 0.4616(2)
H6_5 H 0.6337 0.7852 0.4874
C12_5 C 0.62663(13) 0.81394(11) 0.38292(19)
C13_5 C 0.61090(14) 0.85108(12) 0.34497(19)
H7_5 H 0.6152 0.8536 0.2915
C14_5 C 0.58834(15) 0.88524(11) 0.38625(19)
H8_5 H 0.5774 0.9106 0.3603
C15_5 C 0.58173(10) 0.52160(9) 0.39399(15)
C16_5 C 0.62096(11) 0.55461(10) 0.37687(17)
C17_5 C 0.63493(13) 0.58592(12) 0.43196(19)
H9_5 H 0.6195 0.5861 0.4802
C18_5 C 0.67118(14) 0.61663(13) 0.4164(2)
H10_5 H 0.6798 0.6378 0.4536
C19_5 C 0.69468(12) 0.61580(11) 0.3454(2)
C20_5 C 0.68185(13) 0.58530(12) 0.2904(2)
H11_5 H 0.6976 0.5850 0.2424
C21_5 C 0.64520(13) 0.55481(11) 0.30673(19)
H12_5 H 0.6366 0.5338 0.2692
C22_5 C 0.72658(13) 0.77861(11) 0.38766(18)
H13_5 H 0.7258 0.8088 0.4003
C23_5 C 0.76829(12) 0.75335(11) 0.39870(17)
C24_5 C 0.77067(12) 0.70891(11) 0.3801(2)
H14_5 H 0.7996 0.6928 0.3874
C25_5 C 0.72959(12) 0.68863(10) 0.35062(19)
C26_5 C 0.68674(13) 0.71222(11) 0.33841(19)
H15_5 H 0.6590 0.6982 0.3181
C27_5 C 0.68564(12) 0.75711(11) 0.35684(18)
O1_5 O 0.92961(7) 0.91125(6) 0.22676(10)
O2_5 O 0.97907(7) 0.89865(6) 0.32850(10)
O5_3 O 0.57521(7) 0.49065(6) 0.34560(10)
O7_8 O 1.0000 0.97354(8) 0.2500
O9_5 O 0.80932(9) 0.77261(8) 0.43457(13)
O10_5 O 0.64310(9) 0.77929(9) 0.33669(14)
O11_5 O 0.73366(9) 0.64449(7) 0.32890(16)
H33_5 H 0.9549 0.9777 0.3920
O27_3 O 0.92479(7) 0.99065(6) 0.15440(10)
C1_6 C 0.56003(10) 0.10731(9) 0.29054(15)
C2_6 C 0.59562(11) 0.13932(10) 0.32476(16)
C3_6 C 0.58778(13) 0.15447(11) 0.40052(18)
H1_6 H 0.5605 0.1445 0.4282
C4_6 C 0.62024(12) 0.18408(11) 0.43469(17)
H2_6 H 0.6147 0.1942 0.4851
C5_6 C 0.66075(12) 0.19858(10) 0.39396(18)
C6_6 C 0.66902(14) 0.18432(13) 0.31886(19)
H3_6 H 0.6962 0.1945 0.2912
C7_6 C 0.63628(13) 0.15458(12) 0.28528(18)
H4_6 H 0.6419 0.1447 0.2348
C8_6 C 0.94402(10) 0.08270(9) 0.50907(16)
C9_6 C 0.91799(11) 0.11819(10) 0.46517(16)
C10_6 C 0.90109(14) 0.15626(11) 0.50237(18)
H5_6 H 0.9053 0.1591 0.5558
C11_6 C 0.87830(15) 0.18976(12) 0.4616(2)
H6_6 H 0.8663 0.2148 0.4874
C12_6 C 0.87337(13) 0.18606(11) 0.38292(19)
C13_6 C 0.88910(14) 0.14892(12) 0.34497(19)
H7_6 H 0.8848 0.1464 0.2915
C14_6 C 0.91166(15) 0.11476(11) 0.38625(19)
H8_6 H 0.9226 0.0894 0.3603
C15_6 C 0.91827(10) 0.47840(9) 0.39399(15)
C16_6 C 0.87904(11) 0.44539(10) 0.37687(17)
C17_6 C 0.86507(13) 0.41408(12) 0.43196(19)
H9_6 H 0.8805 0.4139 0.4802
C18_6 C 0.82882(14) 0.38337(13) 0.4164(2)
H10_6 H 0.8202 0.3622 0.4536
C19_6 C 0.80532(12) 0.38420(11) 0.3454(2)
C20_6 C 0.81815(13) 0.41470(12) 0.2904(2)
H11_6 H 0.8024 0.4150 0.2424
C21_6 C 0.85480(13) 0.44519(11) 0.30673(19)
H12_6 H 0.8634 0.4662 0.2692
C22_6 C 0.77342(13) 0.22139(11) 0.38766(18)
H13_6 H 0.7742 0.1912 0.4003
C23_6 C 0.73171(12) 0.24665(11) 0.39870(17)
C24_6 C 0.72933(12) 0.29109(11) 0.3801(2)
H14_6 H 0.7004 0.3072 0.3874
C25_6 C 0.77041(12) 0.31137(10) 0.35062(19)
C26_6 C 0.81326(13) 0.28778(11) 0.33841(19)
H15_6 H 0.8410 0.3018 0.3181
C27_6 C 0.81436(12) 0.24289(11) 0.35684(18)
O1_6 O 0.57039(7) 0.08875(6) 0.22676(10)
O2_6 O 0.52093(7) 0.10135(6) 0.32850(10)
O5_4 O 0.92479(7) 0.50935(6) 0.34560(10)
O7_9 O 0.5000 0.02646(8) 0.2500
H17_6 H 0.4549 0.0223 0.1080
O9_6 O 0.69068(9) 0.22739(8) 0.43457(13)
O10_6 O 0.85690(9) 0.22071(9) 0.33669(14)
O11_6 O 0.76634(9) 0.35551(7) 0.32890(16)
C28_6 C 0.43997(10) 0.10731(9) 0.20946(15)
C29_6 C 0.40438(11) 0.13932(10) 0.17524(16)
C30_6 C 0.41222(13) 0.15447(11) 0.09948(18)
H18_6 H 0.4395 0.1445 0.0718
C31_6 C 0.37976(12) 0.18408(11) 0.06531(17)
H19_6 H 0.3853 0.1942 0.0149
C32_6 C 0.33925(12) 0.19858(10) 0.10604(18)
C33_6 C 0.33098(14) 0.18432(13) 0.18114(19)
H20_6 H 0.3038 0.1945 0.2088
C34_6 C 0.36372(13) 0.15458(12) 0.21472(18)
H21_6 H 0.3581 0.1447 0.2652
C36_6 C 0.08201(11) 0.11819(10) 0.03483(16)
C38_6 C 0.12170(15) 0.18976(12) 0.0384(2)
H23_6 H 0.1337 0.2148 0.0126
C39_6 C 0.12663(13) 0.18606(11) 0.11708(19)
C40_6 C 0.11090(14) 0.14892(12) 0.15503(19)
H24_6 H 0.1152 0.1464 0.2085
C41_6 C 0.08834(15) 0.11476(11) 0.11375(19)
H25_6 H 0.0774 0.0894 0.1397
C42_6 C 0.08173(10) 0.47840(9) 0.10601(15)
C43_6 C 0.12096(11) 0.44539(10) 0.12313(17)
C44_6 C 0.13493(13) 0.41408(12) 0.06804(19)
H26_6 H 0.1195 0.4139 0.0198
C45_6 C 0.17118(14) 0.38337(13) 0.0836(2)
H27_6 H 0.1798 0.3622 0.0464
C46_6 C 0.19468(12) 0.38420(11) 0.1546(2)
C47_6 C 0.18185(13) 0.41470(12) 0.2096(2)
H28_6 H 0.1976 0.4150 0.2576
C48_6 C 0.14520(13) 0.44519(11) 0.19327(19)
H29_6 H 0.1366 0.4662 0.2308
C49_6 C 0.22658(13) 0.22139(11) 0.11234(18)
H30_6 H 0.2258 0.1912 0.0997
C50_6 C 0.26829(12) 0.24665(11) 0.10130(17)
C51_6 C 0.27067(12) 0.29109(11) 0.1199(2)
H31_6 H 0.2996 0.3072 0.1126
C52_6 C 0.22959(12) 0.31137(10) 0.14938(19)
C53_6 C 0.18674(13) 0.28778(11) 0.16159(19)
H32_6 H 0.1590 0.3018 0.1819
C54_6 C 0.18564(12) 0.24289(11) 0.14316(18)
O12_6 O 0.42961(7) 0.08875(6) 0.27324(10)
O13_6 O 0.47907(7) 0.10135(6) 0.17150(10)
O16_4 O 0.07521(7) 0.50935(6) 0.15440(10)
H33_6 H 0.5451 0.0223 0.3920
O19_6 O 0.30932(9) 0.22739(8) 0.06543(13)
O20_6 O 0.14310(9) 0.22071(9) 0.16331(14)
O21_6 O 0.23366(9) 0.35551(7) 0.17110(16)
O26_4 O 0.42479(7) 0.00935(6) 0.34560(10)
O27_4 O 0.57521(7) 0.00935(6) 0.15440(10)
C35_6 C 0.05598(10) 0.08270(9) 0.99093(16)
C37_6 C 0.09891(14) 0.15626(11) 0.99763(18)
H22_6 H 0.0947 0.1591 0.9442
H16_9 H 0.5000 0.9980 0.2500
C1_7 C 0.43997(10) 0.39269(9) 0.29054(15)
C2_7 C 0.40438(11) 0.36068(10) 0.32476(16)
C3_7 C 0.41222(13) 0.34553(11) 0.40052(18)
H1_7 H 0.4395 0.3555 0.4282
C4_7 C 0.37976(12) 0.31592(11) 0.43469(17)
H2_7 H 0.3853 0.3058 0.4851
C5_7 C 0.33925(12) 0.30142(10) 0.39396(18)
C6_7 C 0.33098(14) 0.31568(13) 0.31886(19)
H3_7 H 0.3038 0.3055 0.2912
C7_7 C 0.36372(13) 0.34542(12) 0.28528(18)
H4_7 H 0.3581 0.3553 0.2348
C8_7 C 0.05598(10) 0.41730(9) 0.50907(16)
C9_7 C 0.08201(11) 0.38181(10) 0.46517(16)
C10_7 C 0.09891(14) 0.34374(11) 0.50237(18)
H5_7 H 0.0947 0.3409 0.5558
C11_7 C 0.12170(15) 0.31024(12) 0.4616(2)
H6_7 H 0.1337 0.2852 0.4874
C12_7 C 0.12663(13) 0.31394(11) 0.38292(19)
C13_7 C 0.11090(14) 0.35108(12) 0.34497(19)
H7_7 H 0.1152 0.3536 0.2915
C14_7 C 0.08834(15) 0.38524(11) 0.38625(19)
H8_7 H 0.0774 0.4106 0.3603
C15_7 C 0.08173(10) 0.02160(9) 0.39399(15)
C16_7 C 0.12096(11) 0.05461(10) 0.37687(17)
C17_7 C 0.13493(13) 0.08592(12) 0.43196(19)
H9_7 H 0.1195 0.0861 0.4802
C18_7 C 0.17118(14) 0.11663(13) 0.4164(2)
H10_7 H 0.1798 0.1378 0.4536
C19_7 C 0.19468(12) 0.11580(11) 0.3454(2)
C20_7 C 0.18185(13) 0.08530(12) 0.2904(2)
H11_7 H 0.1976 0.0850 0.2424
C21_7 C 0.14520(13) 0.05481(11) 0.30673(19)
H12_7 H 0.1366 0.0338 0.2692
C22_7 C 0.22658(13) 0.27861(11) 0.38766(18)
H13_7 H 0.2258 0.3088 0.4003
C23_7 C 0.26829(12) 0.25335(11) 0.39870(17)
C24_7 C 0.27067(12) 0.20891(11) 0.3801(2)
H14_7 H 0.2996 0.1928 0.3874
C25_7 C 0.22959(12) 0.18863(10) 0.35062(19)
C26_7 C 0.18674(13) 0.21222(11) 0.33841(19)
H15_7 H 0.1590 0.1982 0.3181
C27_7 C 0.18564(12) 0.25711(11) 0.35684(18)
O1_7 O 0.42961(7) 0.41125(6) 0.22676(10)
O2_7 O 0.47907(7) 0.39865(6) 0.32850(10)
O7_10 O 0.5000 0.47354(8) 0.2500
H16_10 H 0.5000 0.5020 0.2500
H17_7 H 0.5451 0.4777 0.1080
O9_7 O 0.30932(9) 0.27261(8) 0.43457(13)
O10_7 O 0.14310(9) 0.27929(9) 0.33669(14)
O11_7 O 0.23366(9) 0.14449(7) 0.32890(16)
C28_7 C 0.56003(10) 0.39269(9) 0.20946(15)
C29_7 C 0.59562(11) 0.36068(10) 0.17524(16)
C30_7 C 0.58778(13) 0.34553(11) 0.09948(18)
H18_7 H 0.5605 0.3555 0.0718
C31_7 C 0.62024(12) 0.31592(11) 0.06531(17)
H19_7 H 0.6147 0.3058 0.0149
C32_7 C 0.66075(12) 0.30142(10) 0.10604(18)
C33_7 C 0.66902(14) 0.31568(13) 0.18114(19)
H20_7 H 0.6962 0.3055 0.2088
C34_7 C 0.63628(13) 0.34542(12) 0.21472(18)
H21_7 H 0.6419 0.3553 0.2652
C36_7 C 0.91799(11) 0.38181(10) 0.03483(16)
C38_7 C 0.87830(15) 0.31024(12) 0.0384(2)
H23_7 H 0.8663 0.2852 0.0126
C39_7 C 0.87337(13) 0.31394(11) 0.11708(19)
C40_7 C 0.88910(14) 0.35108(12) 0.15503(19)
H24_7 H 0.8848 0.3536 0.2085
C41_7 C 0.91166(15) 0.38524(11) 0.11375(19)
H25_7 H 0.9226 0.4106 0.1397
C42_7 C 0.91827(10) 0.02160(9) 0.10601(15)
C43_7 C 0.87904(11) 0.05461(10) 0.12313(17)
C44_7 C 0.86507(13) 0.08592(12) 0.06804(19)
H26_7 H 0.8805 0.0861 0.0198
C45_7 C 0.82882(14) 0.11663(13) 0.0836(2)
H27_7 H 0.8202 0.1378 0.0464
C46_7 C 0.80532(12) 0.11580(11) 0.1546(2)
C47_7 C 0.81815(13) 0.08530(12) 0.2096(2)
H28_7 H 0.8024 0.0850 0.2576
C48_7 C 0.85480(13) 0.05481(11) 0.19327(19)
H29_7 H 0.8634 0.0338 0.2308
C49_7 C 0.77342(13) 0.27861(11) 0.11234(18)
H30_7 H 0.7742 0.3088 0.0997
C50_7 C 0.73171(12) 0.25335(11) 0.10130(17)
C51_7 C 0.72933(12) 0.20891(11) 0.1199(2)
H31_7 H 0.7004 0.1928 0.1126
C52_7 C 0.77041(12) 0.18863(10) 0.14938(19)
C53_7 C 0.81326(13) 0.21222(11) 0.16159(19)
H32_7 H 0.8410 0.1982 0.1819
C54_7 C 0.81436(12) 0.25711(11) 0.14316(18)
O12_7 O 0.57039(7) 0.41125(6) 0.27324(10)
O13_7 O 0.52093(7) 0.39865(6) 0.17150(10)
H33_7 H 0.4549 0.4777 0.3920
O19_7 O 0.69068(9) 0.27261(8) 0.06543(13)
O20_7 O 0.85690(9) 0.27929(9) 0.16331(14)
O21_7 O 0.76634(9) 0.14449(7) 0.17110(16)
C35_7 C 0.94402(10) 0.41730(9) 0.99093(16)
C37_7 C 0.90109(14) 0.34374(11) 0.99763(18)
H22_7 H 0.9053 0.3409 0.9442
C1_8 C 0.06003(10) 0.60731(9) 0.29054(15)
C2_8 C 0.09562(11) 0.63932(10) 0.32476(16)
C3_8 C 0.08778(13) 0.65447(11) 0.40052(18)
H1_8 H 0.0605 0.6445 0.4282
C4_8 C 0.12024(12) 0.68408(11) 0.43469(17)
H2_8 H 0.1147 0.6942 0.4851
C5_8 C 0.16075(12) 0.69858(10) 0.39396(18)
C6_8 C 0.16902(14) 0.68432(13) 0.31886(19)
H3_8 H 0.1962 0.6945 0.2912
C7_8 C 0.13628(13) 0.65458(12) 0.28528(18)
H4_8 H 0.1419 0.6447 0.2348
C8_8 C 0.44402(10) 0.58270(9) 0.50907(16)
C9_8 C 0.41799(11) 0.61819(10) 0.46517(16)
C10_8 C 0.40109(14) 0.65626(11) 0.50237(18)
H5_8 H 0.4053 0.6591 0.5558
C11_8 C 0.37830(15) 0.68976(12) 0.4616(2)
H6_8 H 0.3663 0.7148 0.4874
C12_8 C 0.37337(13) 0.68606(11) 0.38292(19)
C13_8 C 0.38910(14) 0.64892(12) 0.34497(19)
H7_8 H 0.3848 0.6464 0.2915
C14_8 C 0.41166(15) 0.61476(11) 0.38625(19)
H8_8 H 0.4226 0.5894 0.3603
C15_8 C 0.41827(10) 0.97840(9) 0.39399(15)
C16_8 C 0.37904(11) 0.94539(10) 0.37687(17)
C17_8 C 0.36507(13) 0.91408(12) 0.43196(19)
H9_8 H 0.3805 0.9139 0.4802
C18_8 C 0.32882(14) 0.88337(13) 0.4164(2)
H10_8 H 0.3202 0.8622 0.4536
C19_8 C 0.30532(12) 0.88420(11) 0.3454(2)
C20_8 C 0.31815(13) 0.91470(12) 0.2904(2)
H11_8 H 0.3024 0.9150 0.2424
C21_8 C 0.35480(13) 0.94519(11) 0.30673(19)
H12_8 H 0.3634 0.9662 0.2692
C22_8 C 0.27342(13) 0.72139(11) 0.38766(18)
H13_8 H 0.2742 0.6912 0.4003
C23_8 C 0.23171(12) 0.74665(11) 0.39870(17)
C24_8 C 0.22933(12) 0.79109(11) 0.3801(2)
H14_8 H 0.2004 0.8072 0.3874
C25_8 C 0.27041(12) 0.81137(10) 0.35062(19)
C26_8 C 0.31326(13) 0.78778(11) 0.33841(19)
H15_8 H 0.3410 0.8018 0.3181
C27_8 C 0.31436(12) 0.74289(11) 0.35684(18)
O1_8 O 0.07039(7) 0.58875(6) 0.22676(10)
O2_8 O 0.02093(7) 0.60135(6) 0.32850(10)
O7_11 O 0.0000 0.52646(8) 0.2500
H16_11 H 0.0000 0.4980 0.2500
O9_8 O 0.19068(9) 0.72739(8) 0.43457(13)
O10_8 O 0.35690(9) 0.72071(9) 0.33669(14)
O11_8 O 0.26634(9) 0.85551(7) 0.32890(16)
H33_8 H 0.0451 0.5223 0.3920
O7_12 O 1.0000 0.52646(8) 0.2500
H16_12 H 1.0000 0.4980 0.2500
H17_8 H 0.9549 0.5223 0.1080
C28_8 C 0.93997(10) 0.60731(9) 0.20946(15)
C29_8 C 0.90438(11) 0.63932(10) 0.17524(16)
C30_8 C 0.91222(13) 0.65447(11) 0.09948(18)
H18_8 H 0.9395 0.6445 0.0718
C31_8 C 0.87976(12) 0.68408(11) 0.06531(17)
H19_8 H 0.8853 0.6942 0.0149
C32_8 C 0.83925(12) 0.69858(10) 0.10604(18)
C33_8 C 0.83098(14) 0.68432(13) 0.18114(19)
H20_8 H 0.8038 0.6945 0.2088
C34_8 C 0.86372(13) 0.65458(12) 0.21472(18)
H21_8 H 0.8581 0.6447 0.2652
C36_8 C 0.58201(11) 0.61819(10) 0.03483(16)
C38_8 C 0.62170(15) 0.68976(12) 0.0384(2)
H23_8 H 0.6337 0.7148 0.0126
C39_8 C 0.62663(13) 0.68606(11) 0.11708(19)
C40_8 C 0.61090(14) 0.64892(12) 0.15503(19)
H24_8 H 0.6152 0.6464 0.2085
C41_8 C 0.58834(15) 0.61476(11) 0.11375(19)
H25_8 H 0.5774 0.5894 0.1397
C42_8 C 0.58173(10) 0.97840(9) 0.10601(15)
C43_8 C 0.62096(11) 0.94539(10) 0.12313(17)
C44_8 C 0.63493(13) 0.91408(12) 0.06804(19)
H26_8 H 0.6195 0.9139 0.0198
C45_8 C 0.67118(14) 0.88337(13) 0.0836(2)
H27_8 H 0.6798 0.8622 0.0464
C46_8 C 0.69468(12) 0.88420(11) 0.1546(2)
C47_8 C 0.68185(13) 0.91470(12) 0.2096(2)
H28_8 H 0.6976 0.9150 0.2576
C48_8 C 0.64520(13) 0.94519(11) 0.19327(19)
H29_8 H 0.6366 0.9662 0.2308
C49_8 C 0.72658(13) 0.72139(11) 0.11234(18)
H30_8 H 0.7258 0.6912 0.0997
C50_8 C 0.76829(12) 0.74665(11) 0.10130(17)
C51_8 C 0.77067(12) 0.79109(11) 0.1199(2)
H31_8 H 0.7996 0.8072 0.1126
C52_8 C 0.72959(12) 0.81137(10) 0.14938(19)
C53_8 C 0.68674(13) 0.78778(11) 0.16159(19)
H32_8 H 0.6590 0.8018 0.1819
C54_8 C 0.68564(12) 0.74289(11) 0.14316(18)
O12_8 O 0.92961(7) 0.58875(6) 0.27324(10)
O13_8 O 0.97907(7) 0.60135(6) 0.17150(10)
O19_8 O 0.80932(9) 0.72739(8) 0.06543(13)
O20_8 O 0.64310(9) 0.72071(9) 0.16331(14)
O21_8 O 0.73366(9) 0.85551(7) 0.17110(16)
C35_8 C 0.55598(10) 0.58270(9) 0.99093(16)
C37_8 C 0.59891(14) 0.65626(11) 0.99763(18)
H22_8 H 0.5947 0.6591 0.9442
loop_
_geom_bond_atom_site_label_1
_geom_bond_atom_site_label_2
_geom_bond_site_symmetry_1
_geom_bond_site_symmetry_2
O23 Al2 1_555 1_555
Al1 O1 1_555 1_555
C1 C2 1_555 1_555
C2 C3 1_555 1_555
C3 H1 1_555 1_555
C4 C3 1_555 1_555
H2 C4 1_555 1_555
C5 C4 1_555 1_555
C6 C5 1_555 1_555
H3 C6 1_555 1_555
C7 C2 1_555 1_555
H4 C7 1_555 1_555
C8 C9 1_555 1_555
C9 C10 1_555 1_555
C10 H5 1_555 1_555
C11 C10 1_555 1_555
H6 C11 1_555 1_555
C12 C11 1_555 1_555
C13 C12 1_555 1_555
H7 C13 1_555 1_555
C14 C9 1_555 1_555
H8 C14 1_555 1_555
C15 C16 1_555 1_555
C16 C17 1_555 1_555
C17 H9 1_555 1_555
C18 C17 1_555 1_555
H10 C18 1_555 1_555
C19 C18 1_555 1_555
C20 C19 1_555 1_555
H11 C20 1_555 1_555
C21 C16 1_555 1_555
H12 C21 1_555 1_555
C22 H13 1_555 1_555
C23 C22 1_555 1_555
C24 C23 1_555 1_555
H14 C24 1_555 1_555
C25 C24 1_555 1_555
C26 C25 1_555 1_555
H15 C26 1_555 1_555
C27 C22 1_555 1_555
O1 C1 1_555 1_555
O2 C1 1_555 1_555
O3 C8 1_555 1_555
O4 C8 1_555 1_555
O5 C15 1_555 1_555
O6 C15 1_555 1_555
O7 Al1 1_555 1_555
O9 C5 1_555 1_555
O10 C12 1_555 1_555
O11 C19 1_555 1_555
H33 O18 1_555 1_555
Al5 O5 1_555 1_555
Al7 O4 1_555 1_555
Al9 O18 1_555 1_555
Al10 O3 1_555 1_555
Al12 O6 1_555 1_555
O25 Al1 1_555 1_555
O27 Al1 1_555 1_555
C6 C7 1_555 1_555
C13 C14 1_555 1_555
C20 C21 1_555 1_555
C23 O9 1_555 1_555
C25 O11 1_555 1_555
C26 C27 1_555 1_555
C27 O10 1_555 1_555
O30 Al2_3 1_555 1_555
O28 Al2_4 1_555 1_555
C37 H22 1_555 1_555
O15 C35 1_555 1_555
Al6 O15 1_555 1_555
O29 Al2_5 1_555 1_555
Al2_6 O8 1_555 1_555
H17 O8 1_555 1_555
C28 C29 1_555 1_555
C29 C30 1_555 1_555
C30 H18 1_555 1_555
C31 C30 1_555 1_555
H19 C31 1_555 1_555
C32 C31 1_555 1_555
C33 C32 1_555 1_555
H20 C33 1_555 1_555
C34 C29 1_555 1_555
H21 C34 1_555 1_555
H23 C38 1_555 1_555
C39 C38 1_555 1_555
C40 C39 1_555 1_555
H24 C40 1_555 1_555
C41 C36 1_555 1_555
H25 C41 1_555 1_555
C42 C43 1_555 1_555
C43 C44 1_555 1_555
C44 H26 1_555 1_555
C45 C44 1_555 1_555
H27 C45 1_555 1_555
C46 C45 1_555 1_555
C47 C46 1_555 1_555
H28 C47 1_555 1_555
C48 C43 1_555 1_555
H29 C48 1_555 1_555
C49 H30 1_555 1_555
C50 C49 1_555 1_555
C51 C50 1_555 1_555
H31 C51 1_555 1_555
C52 C51 1_555 1_555
C53 C52 1_555 1_555
H32 C53 1_555 1_555
C54 C49 1_555 1_555
O12 Al3 1_555 1_555
O16 C42 1_555 1_555
O17 C42 1_555 1_555
O19 C32 1_555 1_555
O20 C39 1_555 1_555
O21 C46 1_555 1_555
Al4 O16 1_555 1_555
Al8_2 O14 1_555 1_555
Al11_2 O17 1_555 1_555
O24 Al3 1_555 1_555
O26 Al3 1_555 1_555
O7_2 Al3 1_555 1_555
C28 O12 1_555 1_555
C28 O13 1_555 1_555
C33 C34 1_555 1_555
C40 C41 1_555 1_555
C47 C48 1_555 1_555
C50 O19 1_555 1_555
C52 O21 1_555 1_555
C53 C54 1_555 1_555
C54 O20 1_555 1_555
O22 Al2_8 1_555 1_555
O30_2 Al8 1_555 1_555
O28_2 Al8_2 1_555 1_555
C37_2 H22_2 1_555 1_555
O15_2 C35_2 1_555 1_555
Al6_2 O15_2 1_555 1_555
O23_2 Al8_3 1_555 1_555
O29_2 Al8_3 1_555 1_555
Al1_2 O1_2 1_555 1_555
Al8_4 O8_2 1_555 1_555
C1_2 C2_2 1_555 1_555
C2_2 C3_2 1_555 1_555
C3_2 H1_2 1_555 1_555
C4_2 C3_2 1_555 1_555
H2_2 C4_2 1_555 1_555
C5_2 C4_2 1_555 1_555
C6_2 C5_2 1_555 1_555
H3_2 C6_2 1_555 1_555
C7_2 C2_2 1_555 1_555
H4_2 C7_2 1_555 1_555
C8_2 C9_2 1_555 1_555
C9_2 C10_2 1_555 1_555
C10_2 H5_2 1_555 1_555
C11_2 C10_2 1_555 1_555
H6_2 C11_2 1_555 1_555
C12_2 C11_2 1_555 1_555
C13_2 C12_2 1_555 1_555
H7_2 C13_2 1_555 1_555
C14_2 C9_2 1_555 1_555
H8_2 C14_2 1_555 1_555
C15_2 C16_2 1_555 1_555
C16_2 C17_2 1_555 1_555
C17_2 H9_2 1_555 1_555
C18_2 C17_2 1_555 1_555
H10_2 C18_2 1_555 1_555
C19_2 C18_2 1_555 1_555
C20_2 C19_2 1_555 1_555
H11_2 C20_2 1_555 1_555
C21_2 C16_2 1_555 1_555
H12_2 C21_2 1_555 1_555
C22_2 H13_2 1_555 1_555
C23_2 C22_2 1_555 1_555
C24_2 C23_2 1_555 1_555
H14_2 C24_2 1_555 1_555
C25_2 C24_2 1_555 1_555
C26_2 C25_2 1_555 1_555
H15_2 C26_2 1_555 1_555
C27_2 C22_2 1_555 1_555
O1_2 C1_2 1_555 1_555
O2_2 C1_2 1_555 1_555
O3_2 C8_2 1_555 1_555
O4_2 C8_2 1_555 1_555
O5_2 C15_2 1_555 1_555
O6_2 C15_2 1_555 1_555
O7_3 Al1_2 1_555 1_555
O8_2 Al1_2 1_555 1_555
H17_2 O8_2 1_555 1_555
O9_2 C5_2 1_555 1_555
O10_2 C12_2 1_555 1_555
O11_2 C19_2 1_555 1_555
Al3_2 O2_2 1_555 1_555
C28_2 C29_2 1_555 1_555
C29_2 C30_2 1_555 1_555
C30_2 H18_2 1_555 1_555
C31_2 C30_2 1_555 1_555
H19_2 C31_2 1_555 1_555
C32_2 C31_2 1_555 1_555
C33_2 C32_2 1_555 1_555
H20_2 C33_2 1_555 1_555
C34_2 C29_2 1_555 1_555
H21_2 C34_2 1_555 1_555
H23_2 C38_2 1_555 1_555
C39_2 C38_2 1_555 1_555
C40_2 C39_2 1_555 1_555
H24_2 C40_2 1_555 1_555
C41_2 C36_2 1_555 1_555
H25_2 C41_2 1_555 1_555
C42_2 C43_2 1_555 1_555
C43_2 C44_2 1_555 1_555
C44_2 H26_2 1_555 1_555
C45_2 C44_2 1_555 1_555
H27_2 C45_2 1_555 1_555
C46_2 C45_2 1_555 1_555
C47_2 C46_2 1_555 1_555
H28_2 C47_2 1_555 1_555
C48_2 C43_2 1_555 1_555
H29_2 C48_2 1_555 1_555
C49_2 H30_2 1_555 1_555
C50_2 C49_2 1_555 1_555
C51_2 C50_2 1_555 1_555
H31_2 C51_2 1_555 1_555
C52_2 C51_2 1_555 1_555
C53_2 C52_2 1_555 1_555
H32_2 C53_2 1_555 1_555
C54_2 C49_2 1_555 1_555
O12_2 Al3_2 1_555 1_555
O13_2 Al1_2 1_555 1_555
O16_2 C42_2 1_555 1_555
O17_2 C42_2 1_555 1_555
O18_2 Al3_2 1_555 1_555
H33_2 O18_2 1_555 1_555
O19_2 C32_2 1_555 1_555
O20_2 C39_2 1_555 1_555
O21_2 C46_2 1_555 1_555
Al4_2 O16_2 1_555 1_555
Al5_2 O5_2 1_555 1_555
Al7_2 O4_2 1_555 1_555
Al10_2 O18_2 1_555 1_555
Al9_2 O3_2 1_555 1_555
Al11_6 O17_2 1_555 1_555
Al12_2 O6_2 1_555 1_555
O24_2 Al3_2 1_555 1_555
O25_2 Al1_2 1_555 1_555
O26_2 Al3_2 1_555 1_555
O27_2 Al1_2 1_555 1_555
C6_2 C7_2 1_555 1_555
C13_2 C14_2 1_555 1_555
C20_2 C21_2 1_555 1_555
C23_2 O9_2 1_555 1_555
C25_2 O11_2 1_555 1_555
C26_2 C27_2 1_555 1_555
C27_2 O10_2 1_555 1_555
O7_3 Al3_2 1_555 1_555
C28_2 O12_2 1_555 1_555
C28_2 O13_2 1_555 1_555
C33_2 C34_2 1_555 1_555
C40_2 C41_2 1_555 1_555
C47_2 C48_2 1_555 1_555
C50_2 O19_2 1_555 1_555
C52_2 O21_2 1_555 1_555
C53_2 C54_2 1_555 1_555
C54_2 O20_2 1_555 1_555
O29_3 Al9 1_555 1_555
O23_3 Al9_3 1_555 1_555
O28_3 Al9_4 1_555 1_555
O30_3 Al9_4 1_555 1_555
O28_4 Al10 1_555 1_555
O30_4 Al10 1_555 1_555
O23_4 Al10_2 1_555 1_555
O29_4 Al10_2 1_555 1_555
C37_3 H22_3 1_555 1_555
O15_3 C35_3 1_555 1_555
Al6_3 O15_3 1_555 1_555
O23_5 Al11 1_555 1_555
O29_5 Al11 1_555 1_555
O30_5 Al11 1_555 1_555
Al4 O1_3 1_555 1_555
Al11_2 O8_3 1_555 1_555
C1_3 C2_3 1_555 1_555
C2_3 C3_3 1_555 1_555
C3_3 H1_3 1_555 1_555
C4_3 C3_3 1_555 1_555
H2_3 C4_3 1_555 1_555
C5_3 C4_3 1_555 1_555
C6_3 C5_3 1_555 1_555
H3_3 C6_3 1_555 1_555
C7_3 C2_3 1_555 1_555
H4_3 C7_3 1_555 1_555
C8_3 C9_3 1_555 1_555
C9_3 C10_3 1_555 1_555
C10_3 H5_3 1_555 1_555
C11_3 C10_3 1_555 1_555
H6_3 C11_3 1_555 1_555
C12_3 C11_3 1_555 1_555
C13_3 C12_3 1_555 1_555
H7_3 C13_3 1_555 1_555
C14_3 C9_3 1_555 1_555
H8_3 C14_3 1_555 1_555
C15_3 C16_3 1_555 1_555
C16_3 C17_3 1_555 1_555
C17_3 H9_3 1_555 1_555
C18_3 C17_3 1_555 1_555
H10_3 C18_3 1_555 1_555
C19_3 C18_3 1_555 1_555
C20_3 C19_3 1_555 1_555
H11_3 C20_3 1_555 1_555
C21_3 C16_3 1_555 1_555
H12_3 C21_3 1_555 1_555
C22_3 H13_3 1_555 1_555
C23_3 C22_3 1_555 1_555
C24_3 C23_3 1_555 1_555
H14_3 C24_3 1_555 1_555
C25_3 C24_3 1_555 1_555
C26_3 C25_3 1_555 1_555
H15_3 C26_3 1_555 1_555
C27_3 C22_3 1_555 1_555
O1_3 C1_3 1_555 1_555
O2_3 C1_3 1_555 1_555
O3_3 C8_3 1_555 1_555
O4_3 C8_3 1_555 1_555
O28_3 C15_3 1_555 1_555
O7_4 Al4 1_555 1_555
H16_4 O7_4 1_555 1_555
O8_3 Al4 1_555 1_555
H17_3 O8_3 1_555 1_555
O9_3 C5_3 1_555 1_555
O10_3 C12_3 1_555 1_555
O11_3 C19_3 1_555 1_555
Al5 O2_3 1_555 1_555
C28_3 C29_3 1_555 1_555
C29_3 C30_3 1_555 1_555
C30_3 H18_3 1_555 1_555
C31_3 C30_3 1_555 1_555
H19_3 C31_3 1_555 1_555
C32_3 C31_3 1_555 1_555
C33_3 C32_3 1_555 1_555
H20_3 C33_3 1_555 1_555
C34_3 C29_3 1_555 1_555
H21_3 C34_3 1_555 1_555
H23_3 C38_3 1_555 1_555
C39_3 C38_3 1_555 1_555
C40_3 C39_3 1_555 1_555
H24_3 C40_3 1_555 1_555
C41_3 C36_3 1_555 1_555
H25_3 C41_3 1_555 1_555
C42_3 C43_3 1_555 1_555
C43_3 C44_3 1_555 1_555
C44_3 H26_3 1_555 1_555
C45_3 C44_3 1_555 1_555
H27_3 C45_3 1_555 1_555
C46_3 C45_3 1_555 1_555
C47_3 C46_3 1_555 1_555
H28_3 C47_3 1_555 1_555
C48_3 C43_3 1_555 1_555
H29_3 C48_3 1_555 1_555
C49_3 H30_3 1_555 1_555
C50_3 C49_3 1_555 1_555
C51_3 C50_3 1_555 1_555
H31_3 C51_3 1_555 1_555
C52_3 C51_3 1_555 1_555
C53_3 C52_3 1_555 1_555
H32_3 C53_3 1_555 1_555
C54_3 C49_3 1_555 1_555
O12_3 Al5 1_555 1_555
O13_3 Al4 1_555 1_555
O28 C42_3 1_555 1_555
O18_3 Al5 1_555 1_555
H33_3 O18_3 1_555 1_555
O19_3 C32_3 1_555 1_555
O20_3 C39_3 1_555 1_555
O21_3 C46_3 1_555 1_555
Al7_3 O4_3 1_555 1_555
Al11_4 O14_2 1_555 1_555
Al12 O18_3 1_555 1_555
Al12_3 O3_3 1_555 1_555
O22_2 Al11_2 1_555 1_555
O24_3 Al5 1_555 1_555
O25_3 Al4 1_555 1_555
C6_3 C7_3 1_555 1_555
C13_3 C14_3 1_555 1_555
C20_3 C21_3 1_555 1_555
C23_3 O9_3 1_555 1_555
C25_3 O11_3 1_555 1_555
C26_3 C27_3 1_555 1_555
C27_3 O10_3 1_555 1_555
O7_4 Al5 1_555 1_555
C28_3 O12_3 1_555 1_555
C28_3 O13_3 1_555 1_555
C33_3 C34_3 1_555 1_555
C40_3 C41_3 1_555 1_555
C47_3 C48_3 1_555 1_555
C50_3 O19_3 1_555 1_555
C52_3 O21_3 1_555 1_555
C53_3 C54_3 1_555 1_555
C54_3 O20_3 1_555 1_555
C37_4 H22_4 1_555 1_555
O15_4 C35_4 1_555 1_555
Al6_4 O15_4 1_555 1_555
O29_6 Al11_3 1_555 1_555
Al11_4 O8_4 1_555 1_555
H16_5 O7_5 1_555 1_555
H17_4 O8_4 1_555 1_555
C28_4 C29_4 1_555 1_555
C29_4 C30_4 1_555 1_555
C30_4 H18_4 1_555 1_555
C31_4 C30_4 1_555 1_555
H19_4 C31_4 1_555 1_555
C32_4 C31_4 1_555 1_555
C33_4 C32_4 1_555 1_555
H20_4 C33_4 1_555 1_555
C34_4 C29_4 1_555 1_555
H21_4 C34_4 1_555 1_555
H23_4 C38_4 1_555 1_555
C39_4 C38_4 1_555 1_555
C40_4 C39_4 1_555 1_555
H24_4 C40_4 1_555 1_555
C41_4 C36_4 1_555 1_555
H25_4 C41_4 1_555 1_555
C42_4 C43_4 1_555 1_555
C43_4 C44_4 1_555 1_555
C44_4 H26_4 1_555 1_555
C45_4 C44_4 1_555 1_555
H27_4 C45_4 1_555 1_555
C46_4 C45_4 1_555 1_555
C47_4 C46_4 1_555 1_555
H28_4 C47_4 1_555 1_555
C48_4 C43_4 1_555 1_555
H29_4 C48_4 1_555 1_555
C49_4 H30_4 1_555 1_555
C50_4 C49_4 1_555 1_555
C51_4 C50_4 1_555 1_555
H31_4 C51_4 1_555 1_555
C52_4 C51_4 1_555 1_555
C53_4 C52_4 1_555 1_555
H32_4 C53_4 1_555 1_555
C54_4 C49_4 1_555 1_555
O12_4 Al5_2 1_555 1_555
O28_2 C42_4 1_555 1_555
O19_4 C32_4 1_555 1_555
O20_4 C39_4 1_555 1_555
O21_4 C46_4 1_555 1_555
O24_4 Al5_2 1_555 1_555
O7_5 Al5_2 1_555 1_555
C28_4 O12_4 1_555 1_555
C28_4 O13_4 1_555 1_555
C33_4 C34_4 1_555 1_555
C40_4 C41_4 1_555 1_555
C47_4 C48_4 1_555 1_555
C50_4 O19_4 1_555 1_555
C52_4 O21_4 1_555 1_555
C53_4 C54_4 1_555 1_555
C54_4 O20_4 1_555 1_555
O23_6 Al11_5 1_555 1_555
O30_6 Al11_5 1_555 1_555
Al4_2 O1_4 1_555 1_555
C1_4 C2_4 1_555 1_555
C2_4 C3_4 1_555 1_555
C3_4 H1_4 1_555 1_555
C4_4 C3_4 1_555 1_555
H2_4 C4_4 1_555 1_555
C5_4 C4_4 1_555 1_555
C6_4 C5_4 1_555 1_555
H3_4 C6_4 1_555 1_555
C7_4 C2_4 1_555 1_555
H4_4 C7_4 1_555 1_555
C8_4 C9_4 1_555 1_555
C9_4 C10_4 1_555 1_555
C10_4 H5_4 1_555 1_555
C11_4 C10_4 1_555 1_555
H6_4 C11_4 1_555 1_555
C12_4 C11_4 1_555 1_555
C13_4 C12_4 1_555 1_555
H7_4 C13_4 1_555 1_555
C14_4 C9_4 1_555 1_555
H8_4 C14_4 1_555 1_555
C15_4 C16_4 1_555 1_555
C16_4 C17_4 1_555 1_555
C17_4 H9_4 1_555 1_555
C18_4 C17_4 1_555 1_555
H10_4 C18_4 1_555 1_555
C19_4 C18_4 1_555 1_555
C20_4 C19_4 1_555 1_555
H11_4 C20_4 1_555 1_555
C21_4 C16_4 1_555 1_555
H12_4 C21_4 1_555 1_555
C22_4 H13_4 1_555 1_555
C23_4 C22_4 1_555 1_555
C24_4 C23_4 1_555 1_555
H14_4 C24_4 1_555 1_555
C25_4 C24_4 1_555 1_555
C26_4 C25_4 1_555 1_555
H15_4 C26_4 1_555 1_555
C27_4 C22_4 1_555 1_555
O1_4 C1_4 1_555 1_555
O2_4 C1_4 1_555 1_555
O3_4 C8_4 1_555 1_555
O4_4 C8_4 1_555 1_555
O28_4 C15_4 1_555 1_555
O7_6 Al4_2 1_555 1_555
H16_6 O7_6 1_555 1_555
O9_4 C5_4 1_555 1_555
O10_4 C12_4 1_555 1_555
O11_4 C19_4 1_555 1_555
H33_4 O18_4 1_555 1_555
Al7_4 O4_4 1_555 1_555
Al12_3 O18_4 1_555 1_555
Al12 O3_4 1_555 1_555
O25_4 Al4_2 1_555 1_555
C6_4 C7_4 1_555 1_555
C13_4 C14_4 1_555 1_555
C20_4 C21_4 1_555 1_555
C23_4 O9_4 1_555 1_555
C25_4 O11_4 1_555 1_555
C26_4 C27_4 1_555 1_555
C27_4 O10_4 1_555 1_555
O23_7 Al12 1_555 1_555
O29_7 Al12 1_555 1_555
O30_7 Al12 1_555 1_555
O23_8 Al12_2 1_555 1_555
O30_8 Al12_2 1_555 1_555
O29_8 Al12_3 1_555 1_555
H17_5 O30 1_555 1_555
C28_5 C29_5 1_555 1_555
C29_5 C30_5 1_555 1_555
C30_5 H18_5 1_555 1_555
C31_5 C30_5 1_555 1_555
H19_5 C31_5 1_555 1_555
C32_5 C31_5 1_555 1_555
C33_5 C32_5 1_555 1_555
H20_5 C33_5 1_555 1_555
C34_5 C29_5 1_555 1_555
H21_5 C34_5 1_555 1_555
H23_5 C38_5 1_555 1_555
C39_5 C38_5 1_555 1_555
C40_5 C39_5 1_555 1_555
H24_5 C40_5 1_555 1_555
C41_5 C36_5 1_555 1_555
H25_5 C41_5 1_555 1_555
C42_5 C43_5 1_555 1_555
C43_5 C44_5 1_555 1_555
C44_5 H26_5 1_555 1_555
C45_5 C44_5 1_555 1_555
H27_5 C45_5 1_555 1_555
C46_5 C45_5 1_555 1_555
C47_5 C46_5 1_555 1_555
H28_5 C47_5 1_555 1_555
C48_5 C43_5 1_555 1_555
H29_5 C48_5 1_555 1_555
C49_5 H30_5 1_555 1_555
C50_5 C49_5 1_555 1_555
C51_5 C50_5 1_555 1_555
H31_5 C51_5 1_555 1_555
C52_5 C51_5 1_555 1_555
C53_5 C52_5 1_555 1_555
H32_5 C53_5 1_555 1_555
C54_5 C49_5 1_555 1_555
O12_5 Al7_2 1_555 1_555
O16_3 C42_5 1_555 1_555
O29_5 C42_5 1_555 1_555
O19_5 C32_5 1_555 1_555
O20_5 C39_5 1_555 1_555
O21_5 C46_5 1_555 1_555
Al6_4 O16_3 1_555 1_555
O26_3 Al7_2 1_555 1_555
O7_7 Al7_2 1_555 1_555
C28_5 O12_5 1_555 1_555
C28_5 O13_5 1_555 1_555
C33_5 C34_5 1_555 1_555
C40_5 C41_5 1_555 1_555
C47_5 C48_5 1_555 1_555
C50_5 O19_5 1_555 1_555
C52_5 O21_5 1_555 1_555
C53_5 C54_5 1_555 1_555
C54_5 O20_5 1_555 1_555
C37_5 H22_5 1_555 1_555
O25_2 C35_5 1_555 1_555
Al6_2 O1_5 1_555 1_555
C1_5 C2_5 1_555 1_555
C2_5 C3_5 1_555 1_555
C3_5 H1_5 1_555 1_555
C4_5 C3_5 1_555 1_555
H2_5 C4_5 1_555 1_555
C5_5 C4_5 1_555 1_555
C6_5 C5_5 1_555 1_555
H3_5 C6_5 1_555 1_555
C7_5 C2_5 1_555 1_555
H4_5 C7_5 1_555 1_555
C8_5 C9_5 1_555 1_555
C9_5 C10_5 1_555 1_555
C10_5 H5_5 1_555 1_555
C11_5 C10_5 1_555 1_555
H6_5 C11_5 1_555 1_555
C12_5 C11_5 1_555 1_555
C13_5 C12_5 1_555 1_555
H7_5 C13_5 1_555 1_555
C14_5 C9_5 1_555 1_555
H8_5 C14_5 1_555 1_555
C15_5 C16_5 1_555 1_555
C16_5 C17_5 1_555 1_555
C17_5 H9_5 1_555 1_555
C18_5 C17_5 1_555 1_555
H10_5 C18_5 1_555 1_555
C19_5 C18_5 1_555 1_555
C20_5 C19_5 1_555 1_555
H11_5 C20_5 1_555 1_555
C21_5 C16_5 1_555 1_555
H12_5 C21_5 1_555 1_555
C22_5 H13_5 1_555 1_555
C23_5 C22_5 1_555 1_555
C24_5 C23_5 1_555 1_555
H14_5 C24_5 1_555 1_555
C25_5 C24_5 1_555 1_555
C26_5 C25_5 1_555 1_555
H15_5 C26_5 1_555 1_555
C27_5 C22_5 1_555 1_555
O1_5 C1_5 1_555 1_555
O2_5 C1_5 1_555 1_555
O23_4 C8_5 1_555 1_555
O24_2 C8_5 1_555 1_555
O5_3 C15_5 1_555 1_555
O29_7 C15_5 1_555 1_555
O7_8 Al6_2 1_555 1_555
O9_5 C5_5 1_555 1_555
O10_5 C12_5 1_555 1_555
O11_5 C19_5 1_555 1_555
H33_5 O30_3 1_555 1_555
Al7_4 O5_3 1_555 1_555
O27_3 Al6_2 1_555 1_555
C6_5 C7_5 1_555 1_555
C13_5 C14_5 1_555 1_555
C20_5 C21_5 1_555 1_555
C23_5 O9_5 1_555 1_555
C25_5 O11_5 1_555 1_555
C26_5 C27_5 1_555 1_555
C27_5 O10_5 1_555 1_555
Al6 O1_6 1_555 1_555
C1_6 C2_6 1_555 1_555
C2_6 C3_6 1_555 1_555
C3_6 H1_6 1_555 1_555
C4_6 C3_6 1_555 1_555
H2_6 C4_6 1_555 1_555
C5_6 C4_6 1_555 1_555
C6_6 C5_6 1_555 1_555
H3_6 C6_6 1_555 1_555
C7_6 C2_6 1_555 1_555
H4_6 C7_6 1_555 1_555
C8_6 C9_6 1_555 1_555
C9_6 C10_6 1_555 1_555
C10_6 H5_6 1_555 1_555
C11_6 C10_6 1_555 1_555
H6_6 C11_6 1_555 1_555
C12_6 C11_6 1_555 1_555
C13_6 C12_6 1_555 1_555
H7_6 C13_6 1_555 1_555
C14_6 C9_6 1_555 1_555
H8_6 C14_6 1_555 1_555
C15_6 C16_6 1_555 1_555
C16_6 C17_6 1_555 1_555
C17_6 H9_6 1_555 1_555
C18_6 C17_6 1_555 1_555
H10_6 C18_6 1_555 1_555
C19_6 C18_6 1_555 1_555
C20_6 C19_6 1_555 1_555
H11_6 C20_6 1_555 1_555
C21_6 C16_6 1_555 1_555
H12_6 C21_6 1_555 1_555
C22_6 H13_6 1_555 1_555
C23_6 C22_6 1_555 1_555
C24_6 C23_6 1_555 1_555
H14_6 C24_6 1_555 1_555
C25_6 C24_6 1_555 1_555
C26_6 C25_6 1_555 1_555
H15_6 C26_6 1_555 1_555
C27_6 C22_6 1_555 1_555
O1_6 C1_6 1_555 1_555
O2_6 C1_6 1_555 1_555
O23_3 C8_6 1_555 1_555
O24 C8_6 1_555 1_555
O5_4 C15_6 1_555 1_555
O29_8 C15_6 1_555 1_555
O7_9 Al6 1_555 1_555
O30_2 Al6 1_555 1_555
H17_6 O30_2 1_555 1_555
O9_6 C5_6 1_555 1_555
O10_6 C12_6 1_555 1_555
O11_6 C19_6 1_555 1_555
Al7 O2_6 1_555 1_555
C28_6 C29_6 1_555 1_555
C29_6 C30_6 1_555 1_555
C30_6 H18_6 1_555 1_555
C31_6 C30_6 1_555 1_555
H19_6 C31_6 1_555 1_555
C32_6 C31_6 1_555 1_555
C33_6 C32_6 1_555 1_555
H20_6 C33_6 1_555 1_555
C34_6 C29_6 1_555 1_555
H21_6 C34_6 1_555 1_555
H23_6 C38_6 1_555 1_555
C39_6 C38_6 1_555 1_555
C40_6 C39_6 1_555 1_555
H24_6 C40_6 1_555 1_555
C41_6 C36_6 1_555 1_555
H25_6 C41_6 1_555 1_555
C42_6 C43_6 1_555 1_555
C43_6 C44_6 1_555 1_555
C44_6 H26_6 1_555 1_555
C45_6 C44_6 1_555 1_555
H27_6 C45_6 1_555 1_555
C46_6 C45_6 1_555 1_555
C47_6 C46_6 1_555 1_555
H28_6 C47_6 1_555 1_555
C48_6 C43_6 1_555 1_555
H29_6 C48_6 1_555 1_555
C49_6 H30_6 1_555 1_555
C50_6 C49_6 1_555 1_555
C51_6 C50_6 1_555 1_555
H31_6 C51_6 1_555 1_555
C52_6 C51_6 1_555 1_555
C53_6 C52_6 1_555 1_555
H32_6 C53_6 1_555 1_555
C54_6 C49_6 1_555 1_555
O12_6 Al7 1_555 1_555
O13_6 Al6 1_555 1_555
O16_4 C42_6 1_555 1_555
O29_6 C42_6 1_555 1_555
O30_4 Al7 1_555 1_555
H33_6 O30_4 1_555 1_555
O19_6 C32_6 1_555 1_555
O20_6 C39_6 1_555 1_555
O21_6 C46_6 1_555 1_555
Al6_3 O16_4 1_555 1_555
Al7_3 O5_4 1_555 1_555
O26_4 Al7 1_555 1_555
O27_4 Al6 1_555 1_555
C6_6 C7_6 1_555 1_555
C13_6 C14_6 1_555 1_555
C20_6 C21_6 1_555 1_555
C23_6 O9_6 1_555 1_555
C25_6 O11_6 1_555 1_555
C26_6 C27_6 1_555 1_555
C27_6 O10_6 1_555 1_555
O7_9 Al7 1_555 1_555
C28_6 O12_6 1_555 1_555
C28_6 O13_6 1_555 1_555
C33_6 C34_6 1_555 1_555
C40_6 C41_6 1_555 1_555
C47_6 C48_6 1_555 1_555
C50_6 O19_6 1_555 1_555
C52_6 O21_6 1_555 1_555
C53_6 C54_6 1_555 1_555
C54_6 O20_6 1_555 1_555
C37_6 H22_6 1_555 1_555
O25 C35_6 1_555 1_555
Al6_4 O1_7 1_555 1_555
C1_7 C2_7 1_555 1_555
C2_7 C3_7 1_555 1_555
C3_7 H1_7 1_555 1_555
C4_7 C3_7 1_555 1_555
H2_7 C4_7 1_555 1_555
C5_7 C4_7 1_555 1_555
C6_7 C5_7 1_555 1_555
H3_7 C6_7 1_555 1_555
C7_7 C2_7 1_555 1_555
H4_7 C7_7 1_555 1_555
C8_7 C9_7 1_555 1_555
C9_7 C10_7 1_555 1_555
C10_7 H5_7 1_555 1_555
C11_7 C10_7 1_555 1_555
H6_7 C11_7 1_555 1_555
C12_7 C11_7 1_555 1_555
C13_7 C12_7 1_555 1_555
H7_7 C13_7 1_555 1_555
C14_7 C9_7 1_555 1_555
H8_7 C14_7 1_555 1_555
C15_7 C16_7 1_555 1_555
C16_7 C17_7 1_555 1_555
C17_7 H9_7 1_555 1_555
C18_7 C17_7 1_555 1_555
H10_7 C18_7 1_555 1_555
C19_7 C18_7 1_555 1_555
C20_7 C19_7 1_555 1_555
H11_7 C20_7 1_555 1_555
C21_7 C16_7 1_555 1_555
H12_7 C21_7 1_555 1_555
C22_7 H13_7 1_555 1_555
C23_7 C22_7 1_555 1_555
C24_7 C23_7 1_555 1_555
H14_7 C24_7 1_555 1_555
C25_7 C24_7 1_555 1_555
C26_7 C25_7 1_555 1_555
H15_7 C26_7 1_555 1_555
C27_7 C22_7 1_555 1_555
O1_7 C1_7 1_555 1_555
O2_7 C1_7 1_555 1_555
O23_8 C8_7 1_555 1_555
O24_4 C8_7 1_555 1_555
O29_3 C15_7 1_555 1_555
O7_10 Al6_4 1_555 1_555
H16_10 O7_10 1_555 1_555
O30_5 Al6_4 1_555 1_555
H17_7 O30_5 1_555 1_555
O9_7 C5_7 1_555 1_555
O10_7 C12_7 1_555 1_555
O11_7 C19_7 1_555 1_555
Al7_4 O2_7 1_555 1_555
C28_7 C29_7 1_555 1_555
C29_7 C30_7 1_555 1_555
C30_7 H18_7 1_555 1_555
C31_7 C30_7 1_555 1_555
H19_7 C31_7 1_555 1_555
C32_7 C31_7 1_555 1_555
C33_7 C32_7 1_555 1_555
H20_7 C33_7 1_555 1_555
C34_7 C29_7 1_555 1_555
H21_7 C34_7 1_555 1_555
H23_7 C38_7 1_555 1_555
C39_7 C38_7 1_555 1_555
C40_7 C39_7 1_555 1_555
H24_7 C40_7 1_555 1_555
C41_7 C36_7 1_555 1_555
H25_7 C41_7 1_555 1_555
C42_7 C43_7 1_555 1_555
C43_7 C44_7 1_555 1_555
C44_7 H26_7 1_555 1_555
C45_7 C44_7 1_555 1_555
H27_7 C45_7 1_555 1_555
C46_7 C45_7 1_555 1_555
C47_7 C46_7 1_555 1_555
H28_7 C47_7 1_555 1_555
C48_7 C43_7 1_555 1_555
H29_7 C48_7 1_555 1_555
C49_7 H30_7 1_555 1_555
C50_7 C49_7 1_555 1_555
C51_7 C50_7 1_555 1_555
H31_7 C51_7 1_555 1_555
C52_7 C51_7 1_555 1_555
C53_7 C52_7 1_555 1_555
H32_7 C53_7 1_555 1_555
C54_7 C49_7 1_555 1_555
O12_7 Al7_4 1_555 1_555
O13_7 Al6_4 1_555 1_555
O29 C42_7 1_555 1_555
O30_7 Al7_4 1_555 1_555
H33_7 O30_7 1_555 1_555
O19_7 C32_7 1_555 1_555
O20_7 C39_7 1_555 1_555
O21_7 C46_7 1_555 1_555
C6_7 C7_7 1_555 1_555
C13_7 C14_7 1_555 1_555
C20_7 C21_7 1_555 1_555
C23_7 O9_7 1_555 1_555
C25_7 O11_7 1_555 1_555
C26_7 C27_7 1_555 1_555
C27_7 O10_7 1_555 1_555
O7_10 Al7_4 1_555 1_555
C28_7 O12_7 1_555 1_555
C28_7 O13_7 1_555 1_555
C33_7 C34_7 1_555 1_555
C40_7 C41_7 1_555 1_555
C47_7 C48_7 1_555 1_555
C50_7 O19_7 1_555 1_555
C52_7 O21_7 1_555 1_555
C53_7 C54_7 1_555 1_555
C54_7 O20_7 1_555 1_555
C37_7 H22_7 1_555 1_555
O25_4 C35_7 1_555 1_555
Al6_3 O1_8 1_555 1_555
C1_8 C2_8 1_555 1_555
C2_8 C3_8 1_555 1_555
C3_8 H1_8 1_555 1_555
C4_8 C3_8 1_555 1_555
H2_8 C4_8 1_555 1_555
C5_8 C4_8 1_555 1_555
C6_8 C5_8 1_555 1_555
H3_8 C6_8 1_555 1_555
C7_8 C2_8 1_555 1_555
H4_8 C7_8 1_555 1_555
C8_8 C9_8 1_555 1_555
C9_8 C10_8 1_555 1_555
C10_8 H5_8 1_555 1_555
C11_8 C10_8 1_555 1_555
H6_8 C11_8 1_555 1_555
C12_8 C11_8 1_555 1_555
C13_8 C12_8 1_555 1_555
H7_8 C13_8 1_555 1_555
C14_8 C9_8 1_555 1_555
H8_8 C14_8 1_555 1_555
C15_8 C16_8 1_555 1_555
C16_8 C17_8 1_555 1_555
C17_8 H9_8 1_555 1_555
C18_8 C17_8 1_555 1_555
H10_8 C18_8 1_555 1_555
C19_8 C18_8 1_555 1_555
C20_8 C19_8 1_555 1_555
H11_8 C20_8 1_555 1_555
C21_8 C16_8 1_555 1_555
H12_8 C21_8 1_555 1_555
C22_8 H13_8 1_555 1_555
C23_8 C22_8 1_555 1_555
C24_8 C23_8 1_555 1_555
H14_8 C24_8 1_555 1_555
C25_8 C24_8 1_555 1_555
C26_8 C25_8 1_555 1_555
H15_8 C26_8 1_555 1_555
C27_8 C22_8 1_555 1_555
O1_8 C1_8 1_555 1_555
O2_8 C1_8 1_555 1_555
O23_7 C8_8 1_555 1_555
O24_3 C8_8 1_555 1_555
O29_4 C15_8 1_555 1_555
O7_11 Al6_3 1_555 1_555
H16_11 O7_11 1_555 1_555
O9_8 C5_8 1_555 1_555
O10_8 C12_8 1_555 1_555
O11_8 C19_8 1_555 1_555
H33_8 O30_8 1_555 1_555
C6_8 C7_8 1_555 1_555
C13_8 C14_8 1_555 1_555
C20_8 C21_8 1_555 1_555
C23_8 O9_8 1_555 1_555
C25_8 O11_8 1_555 1_555
C26_8 C27_8 1_555 1_555
C27_8 O10_8 1_555 1_555
H16_12 O7_12 1_555 1_555
H17_8 O30_6 1_555 1_555
C28_8 C29_8 1_555 1_555
C29_8 C30_8 1_555 1_555
C30_8 H18_8 1_555 1_555
C31_8 C30_8 1_555 1_555
H19_8 C31_8 1_555 1_555
C32_8 C31_8 1_555 1_555
C33_8 C32_8 1_555 1_555
H20_8 C33_8 1_555 1_555
C34_8 C29_8 1_555 1_555
H21_8 C34_8 1_555 1_555
H23_8 C38_8 1_555 1_555
C39_8 C38_8 1_555 1_555
C40_8 C39_8 1_555 1_555
H24_8 C40_8 1_555 1_555
C41_8 C36_8 1_555 1_555
H25_8 C41_8 1_555 1_555
C42_8 C43_8 1_555 1_555
C43_8 C44_8 1_555 1_555
C44_8 H26_8 1_555 1_555
C45_8 C44_8 1_555 1_555
H27_8 C45_8 1_555 1_555
C46_8 C45_8 1_555 1_555
C47_8 C46_8 1_555 1_555
H28_8 C47_8 1_555 1_555
C48_8 C43_8 1_555 1_555
H29_8 C48_8 1_555 1_555
C49_8 H30_8 1_555 1_555
C50_8 C49_8 1_555 1_555
C51_8 C50_8 1_555 1_555
H31_8 C51_8 1_555 1_555
C52_8 C51_8 1_555 1_555
C53_8 C52_8 1_555 1_555
H32_8 C53_8 1_555 1_555
C54_8 C49_8 1_555 1_555
O12_8 Al7_3 1_555 1_555
O29_2 C42_8 1_555 1_555
O19_8 C32_8 1_555 1_555
O20_8 C39_8 1_555 1_555
O21_8 C46_8 1_555 1_555
O7_12 Al7_3 1_555 1_555
C28_8 O12_8 1_555 1_555
C28_8 O13_8 1_555 1_555
C33_8 C34_8 1_555 1_555
C40_8 C41_8 1_555 1_555
C47_8 C48_8 1_555 1_555
C50_8 O19_8 1_555 1_555
C52_8 O21_8 1_555 1_555
C53_8 C54_8 1_555 1_555
C54_8 O20_8 1_555 1_555
C37_8 H22_8 1_555 1_555
O25_3 C35_8 1_555 1_555

#END
