
###############################################################################
#
# This file contains modified crystal structure data generated from the
# MOF subset of the Cambridge Structural Database (CSD) v543 
# hosted by the Cambridge Crystallographic Data Centre (CCDC).
#
# This work is licensed under the Creative Commons
# Attribution-NonCommercial-ShareAlike 4.0 International License.
# To view a copy of this license, visit
# http://creativecommons.org/licenses/by-nc-sa/4.0/
# or send a letter to
# Creative Commons, PO Box 1866, Mountain View, CA 94042, USA.
#
# CIF created using the CSD Python API on 29 September 2022
# The structure has been converted into the P1 space group
# The structure has a 3D framework
# The original CSD entry YUQQEI is in the monoclinic crystal system
# The framework has been calculated to contain at least 10.0% void space
# The void calculation uses a probe of radius 1.32A, grid spacing 0.4
#
###############################################################################

data_YUQQEI
_chemical_formula_moiety         '(C200 H128 N16 O40 Zn8)n'
_symmetry_cell_setting           triclinic
_symmetry_space_group_name_H-M   'P 1'
_symmetry_Int_Tables_number      1
_space_group_name_Hall           'P 1'
loop_
_symmetry_equiv_pos_site_id
_symmetry_equiv_pos_as_xyz
1 x,y,z
_cell_length_a                   14.8175(15)
_cell_length_b                   25.123(2)
_cell_length_c                   16.457(2)
_cell_angle_alpha                90
_cell_angle_beta                 112.148(5)
_cell_angle_gamma                90
_cell_volume                     5674.24
loop_
_atom_site_label
_atom_site_type_symbol
_atom_site_fract_x
_atom_site_fract_y
_atom_site_fract_z
Zn1 Zn 0.41851(2) 0.00465(2) 0.14014(2)
N1 N 0.33347(13) 0.02187(7) 0.01230(12)
O11 O 0.36468(12) 0.04677(6) 0.21113(11)
O13 O 0.53459(12) 0.04807(6) 0.14873(10)
O1 O 0.47337(12) 0.93037(6) 0.13784(12)
O2 O 0.33285(14) 0.93285(6) 0.14934(12)
O3 O 0.39200(12) 0.68299(6) 0.13684(11)
O4 O 0.13532(12) 0.54677(6) 0.28887(11)
O5 O 0.03459(12) 0.54807(6) 0.14873(10)
H1 H 0.2100 0.9906 0.0080
C12 C 0.40165(17) 0.90657(9) 0.14397(14)
C13 C 0.39850(15) 0.84754(8) 0.14345(13)
C14 C 0.46926(17) 0.81799(9) 0.12912(16)
H9 H 0.5205 0.8353 0.1206
C15 C 0.46550(17) 0.76341(9) 0.12722(17)
H10 H 0.5141 0.7439 0.1180
C16 C 0.38921(16) 0.73755(9) 0.13914(15)
C17 C 0.31770(17) 0.76631(9) 0.15338(16)
H11 H 0.2663 0.7491 0.1617
C18 C 0.32320(17) 0.82096(9) 0.15508(16)
H12 H 0.2746 0.8405 0.1644
C19 C 0.32025(18) 0.65431(8) 0.15501(17)
C20 C 0.33886(18) 0.63860(10) 0.23867(17)
H13 H 0.3968 0.6482 0.2837
C21 C 0.27072(18) 0.60821(9) 0.25599(16)
H14 H 0.2834 0.5973 0.3133
C22 C 0.18456(16) 0.59369(8) 0.19052(14)
C23 C 0.16882(19) 0.60987(10) 0.10620(16)
H15 H 0.1114 0.6002 0.0605
C24 C 0.2371(2) 0.64024(11) 0.08855(17)
H16 H 0.2258 0.6509 0.0314
C25 C 0.11191(17) 0.56011(8) 0.20994(16)
Zn4 Zn 0.08149(2) 0.50465(2) 0.35986(2)
Zn3 Zn 0.91851(2) 0.50465(2) 0.14014(2)
C11 C 0.0307(2) 0.90349(11) 0.98016(18)
H8 H 0.0352 0.8697 0.9589
Zn1_2 Zn 0.58149(2) 0.00465(2) 0.35986(2)
N1_2 N 0.66653(13) 0.02187(7) 0.48770(12)
N2 N 0.90356(14) 0.02768(8) 0.80494(13)
C1 C 0.76023(18) 0.00661(9) 0.52634(16)
C2 C 0.81324(18) 0.01361(10) 0.61330(16)
H2 H 0.8778 0.0024 0.6374
C3 C 0.77045(16) 0.03755(9) 0.66584(15)
C4 C 0.67488(17) 0.05385(9) 0.62617(16)
H3 H 0.6441 0.0708 0.6589
C5 C 0.62527(17) 0.04501(9) 0.53799(15)
H4 H 0.5605 0.0556 0.5125
C6 C 0.81900(18) 0.04474(10) 0.76103(16)
H5 H 0.7857 0.0628 0.7905
C7 C 0.93489(19) 0.08766(11) 0.92915(18)
H6 H 0.9087 0.1158 0.8907
C8 C 0.93936(17) 0.03825(11) 0.89659(16)
O11_2 O 0.63532(12) 0.04677(6) 0.28887(11)
O13_2 O 0.46541(12) 0.04807(6) 0.35127(10)
O1_2 O 0.52663(12) 0.93037(6) 0.36216(12)
O2_2 O 0.66715(14) 0.93285(6) 0.35066(12)
O3_2 O 0.60800(12) 0.68299(6) 0.36316(11)
O4_2 O 0.86468(12) 0.54677(6) 0.21113(11)
O5_2 O 0.96541(12) 0.54807(6) 0.35127(10)
H1_2 H 0.7900 0.9906 0.4920
C9 C 0.98255(16) 0.99525(10) 0.95404(15)
C10 C 0.99094(17) 0.94384(10) 0.92336(16)
H7 H 0.9689 0.9375 0.8633
C12_2 C 0.59835(17) 0.90657(9) 0.35603(14)
C13_2 C 0.60150(15) 0.84754(8) 0.35655(13)
C14_2 C 0.53074(17) 0.81799(9) 0.37088(16)
H9_2 H 0.4795 0.8353 0.3794
C15_2 C 0.53450(17) 0.76341(9) 0.37278(17)
H10_2 H 0.4859 0.7439 0.3820
C16_2 C 0.61079(16) 0.73755(9) 0.36086(15)
C17_2 C 0.68230(17) 0.76631(9) 0.34662(16)
H11_2 H 0.7337 0.7491 0.3383
C18_2 C 0.67680(17) 0.82096(9) 0.34492(16)
H12_2 H 0.7254 0.8405 0.3356
C19_2 C 0.67975(18) 0.65431(8) 0.34499(17)
C20_2 C 0.66114(18) 0.63860(10) 0.26133(17)
H13_2 H 0.6032 0.6482 0.2163
C21_2 C 0.72928(18) 0.60821(9) 0.24401(16)
H14_2 H 0.7166 0.5973 0.1867
C22_2 C 0.81544(16) 0.59369(8) 0.30948(14)
C23_2 C 0.83118(19) 0.60987(10) 0.39380(16)
H15_2 H 0.8886 0.6002 0.4395
C24_2 C 0.7629(2) 0.64024(11) 0.41145(17)
H16_2 H 0.7742 0.6509 0.4686
C25_2 C 0.88809(17) 0.56011(8) 0.29006(16)
H9_3 H 0.0205 0.3353 0.1206
H10_3 H 0.0141 0.2439 0.1180
O1_3 O 0.97337(12) 0.43037(6) 0.13784(12)
O2_3 O 0.83285(14) 0.43285(6) 0.14934(12)
O3_3 O 0.89200(12) 0.18299(6) 0.13684(11)
N1_3 N 0.83347(13) 0.52187(7) 0.01230(12)
H1_3 H 0.7100 0.4906 0.0080
C12_3 C 0.90165(17) 0.40657(9) 0.14397(14)
C13_3 C 0.89850(15) 0.34754(8) 0.14345(13)
C14_3 C 0.96926(17) 0.31799(9) 0.12912(16)
C15_3 C 0.96550(17) 0.26341(9) 0.12722(17)
C16_3 C 0.88921(16) 0.23755(9) 0.13914(15)
C17_3 C 0.81770(17) 0.26631(9) 0.15338(16)
H11_3 H 0.7663 0.2491 0.1617
C18_3 C 0.82320(17) 0.32096(9) 0.15508(16)
H12_3 H 0.7746 0.3405 0.1644
C19_3 C 0.82025(18) 0.15431(8) 0.15501(17)
C20_3 C 0.83886(18) 0.13860(10) 0.23867(17)
H13_3 H 0.8968 0.1482 0.2837
C21_3 C 0.77072(18) 0.10821(9) 0.25599(16)
H14_3 H 0.7834 0.0973 0.3133
C22_3 C 0.68456(16) 0.09369(8) 0.19052(14)
C23_3 C 0.66882(19) 0.10987(10) 0.10620(16)
H15_3 H 0.6114 0.1002 0.0605
C24_3 C 0.7371(2) 0.14024(11) 0.08855(17)
H16_3 H 0.7258 0.1509 0.0314
C25_3 C 0.61191(17) 0.06011(8) 0.20994(16)
O1_4 O 0.02663(12) 0.43037(6) 0.36216(12)
O2_4 O 0.16715(14) 0.43285(6) 0.35066(12)
O3_4 O 0.10800(12) 0.18299(6) 0.36316(11)
N1_4 N 0.16653(13) 0.52187(7) 0.48770(12)
N2_2 N 0.40356(14) 0.52768(8) 0.80494(13)
C1_2 C 0.26023(18) 0.50661(9) 0.52634(16)
H1_4 H 0.2900 0.4906 0.4920
C2_2 C 0.31324(18) 0.51361(10) 0.61330(16)
H2_2 H 0.3778 0.5024 0.6374
C3_2 C 0.27045(16) 0.53755(9) 0.66584(15)
C4_2 C 0.17488(17) 0.55385(9) 0.62617(16)
H3_2 H 0.1441 0.5708 0.6589
C5_2 C 0.12527(17) 0.54501(9) 0.53799(15)
H4_2 H 0.0605 0.5556 0.5125
C6_2 C 0.31900(18) 0.54474(10) 0.76103(16)
H5_2 H 0.2857 0.5628 0.7905
C7_2 C 0.43489(19) 0.58766(11) 0.92915(18)
H6_2 H 0.4087 0.6158 0.8907
C8_2 C 0.43936(17) 0.53825(11) 0.89659(16)
C9_2 C 0.48255(16) 0.49525(10) 0.95404(15)
C10_2 C 0.49094(17) 0.44384(10) 0.92336(16)
H7_2 H 0.4689 0.4375 0.8633
C11_2 C 0.5307(2) 0.40349(11) 0.98016(18)
H8_2 H 0.5352 0.3697 0.9589
C12_4 C 0.09835(17) 0.40657(9) 0.35603(14)
C13_4 C 0.10150(15) 0.34754(8) 0.35655(13)
C14_4 C 0.03074(17) 0.31799(9) 0.37088(16)
C15_4 C 0.03450(17) 0.26341(9) 0.37278(17)
C16_4 C 0.11079(16) 0.23755(9) 0.36086(15)
C17_4 C 0.18230(17) 0.26631(9) 0.34662(16)
H11_4 H 0.2337 0.2491 0.3383
C18_4 C 0.17680(17) 0.32096(9) 0.34492(16)
H12_4 H 0.2254 0.3405 0.3356
C19_4 C 0.17975(18) 0.15431(8) 0.34499(17)
C20_4 C 0.16114(18) 0.13860(10) 0.26133(17)
H13_4 H 0.1032 0.1482 0.2163
C21_4 C 0.22928(18) 0.10821(9) 0.24401(16)
H14_4 H 0.2166 0.0973 0.1867
C22_4 C 0.31544(16) 0.09369(8) 0.30948(14)
C23_4 C 0.33118(19) 0.10987(10) 0.39380(16)
H15_4 H 0.3886 0.1002 0.4395
C24_4 C 0.2629(2) 0.14024(11) 0.41145(17)
H16_4 H 0.2742 0.1509 0.4686
C25_4 C 0.38809(17) 0.06011(8) 0.29006(16)
H9_4 H 0.9795 0.3353 0.3794
H10_4 H 0.9859 0.2439 0.3820
N2_3 N 0.09644(14) 0.02768(8) 0.69506(13)
C1_3 C 0.23977(18) 0.00661(9) 0.97366(16)
C2_3 C 0.18676(18) 0.01361(10) 0.88670(16)
H2_3 H 0.1222 0.0024 0.8626
C3_3 C 0.22955(16) 0.03755(9) 0.83416(15)
C4_3 C 0.32512(17) 0.05385(9) 0.87383(16)
H3_3 H 0.3559 0.0708 0.8411
C5_3 C 0.37473(17) 0.04501(9) 0.96201(15)
H4_3 H 0.4395 0.0556 0.9875
C6_3 C 0.18100(18) 0.04474(10) 0.73897(16)
H5_3 H 0.2143 0.0628 0.7095
C7_3 C 0.06511(19) 0.08766(11) 0.57085(18)
H6_3 H 0.0913 0.1158 0.6093
C8_3 C 0.06064(17) 0.03825(11) 0.60341(16)
C36 C 0.0307(2) 0.09651(11) 0.48016(18)
H24 H 0.0352 0.1303 0.4589
Zn5 Zn 0.08149(2) 0.49535(2) 0.85986(2)
H17 H 0.7900 0.0094 0.9920
O6 O 0.52663(12) 0.06963(6) 0.86216(12)
O7 O 0.66715(14) 0.06715(6) 0.85066(12)
O8 O 0.60800(12) 0.31701(6) 0.86316(11)
O9 O 0.86468(12) 0.45323(6) 0.71113(11)
O10 O 0.96541(12) 0.45193(6) 0.85127(10)
C37 C 0.59835(17) 0.09343(9) 0.85603(14)
C38 C 0.60150(15) 0.15246(8) 0.85655(13)
C39 C 0.53074(17) 0.18201(9) 0.87088(16)
H25 H 0.4795 0.1647 0.8794
C40 C 0.53450(17) 0.23659(9) 0.87278(17)
H26 H 0.4859 0.2561 0.8820
C41 C 0.61079(16) 0.26245(9) 0.86086(15)
C42 C 0.68230(17) 0.23369(9) 0.84662(16)
H27 H 0.7337 0.2509 0.8383
C43 C 0.67680(17) 0.17904(9) 0.84492(16)
H28 H 0.7254 0.1595 0.8356
C44 C 0.67975(18) 0.34569(8) 0.84499(17)
C45 C 0.66114(18) 0.36140(10) 0.76133(17)
H29 H 0.6032 0.3518 0.7163
C46 C 0.72928(18) 0.39179(9) 0.74401(16)
H30 H 0.7166 0.4027 0.6867
C47 C 0.81544(16) 0.40631(8) 0.80948(14)
C48 C 0.83118(19) 0.39013(10) 0.89380(16)
H31 H 0.8886 0.3998 0.9395
C49 C 0.7629(2) 0.35976(11) 0.91145(17)
H32 H 0.7742 0.3491 0.9686
C50 C 0.88809(17) 0.43989(8) 0.79006(16)
Zn6 Zn 0.91851(2) 0.49535(2) 0.64014(2)
N3 N 0.66653(13) 0.97813(7) 0.98770(12)
Zn2 Zn 0.58149(2) 0.99535(2) 0.85986(2)
O12 O 0.63532(12) 0.95323(6) 0.78887(11)
O14 O 0.46541(12) 0.95193(6) 0.85127(10)
H17_2 H 0.2100 0.0094 0.5080
C34 C 0.01745(16) 0.00475(10) 0.04596(15)
C35 C 0.00906(17) 0.05616(10) 0.07664(16)
H23 H 0.0311 0.0625 0.1367
O6_2 O 0.47337(12) 0.06963(6) 0.63784(12)
O7_2 O 0.33285(14) 0.06715(6) 0.64934(12)
O8_2 O 0.39200(12) 0.31701(6) 0.63684(11)
O9_2 O 0.13532(12) 0.45323(6) 0.78887(11)
O10_2 O 0.03459(12) 0.45193(6) 0.64873(10)
C37_2 C 0.40165(17) 0.09343(9) 0.64397(14)
C38_2 C 0.39850(15) 0.15246(8) 0.64345(13)
C39_2 C 0.46926(17) 0.18201(9) 0.62912(16)
H25_2 H 0.5205 0.1647 0.6206
C40_2 C 0.46550(17) 0.23659(9) 0.62722(17)
H26_2 H 0.5141 0.2561 0.6180
C41_2 C 0.38921(16) 0.26245(9) 0.63914(15)
C42_2 C 0.31770(17) 0.23369(9) 0.65338(16)
H27_2 H 0.2663 0.2509 0.6617
C43_2 C 0.32320(17) 0.17904(9) 0.65508(16)
H28_2 H 0.2746 0.1595 0.6644
C44_2 C 0.32025(18) 0.34569(8) 0.65501(17)
C45_2 C 0.33886(18) 0.36140(10) 0.73867(17)
H29_2 H 0.3968 0.3518 0.7837
C46_2 C 0.27072(18) 0.39179(9) 0.75599(16)
H30_2 H 0.2834 0.4027 0.8133
C47_2 C 0.18456(16) 0.40631(8) 0.69052(14)
C48_2 C 0.16882(19) 0.39013(10) 0.60620(16)
H31_2 H 0.1114 0.3998 0.5605
C49_2 C 0.2371(2) 0.35976(11) 0.58855(17)
H32_2 H 0.2258 0.3491 0.5314
C50_2 C 0.11191(17) 0.43989(8) 0.70994(16)
N3_2 N 0.33347(13) 0.97813(7) 0.51230(12)
N4 N 0.09644(14) 0.97232(8) 0.19506(13)
C26 C 0.23977(18) 0.99339(9) 0.47366(16)
C27 C 0.18676(18) 0.98639(10) 0.38670(16)
H18 H 0.1222 0.9976 0.3626
C28 C 0.22955(16) 0.96245(9) 0.33416(15)
C29 C 0.32512(17) 0.94615(9) 0.37383(16)
H19 H 0.3559 0.9292 0.3411
C30 C 0.37473(17) 0.95499(9) 0.46201(15)
H20 H 0.4395 0.9444 0.4875
C31 C 0.18100(18) 0.95526(10) 0.23897(16)
H21 H 0.2143 0.9372 0.2095
C32 C 0.06511(19) 0.91234(11) 0.07085(18)
H22 H 0.0913 0.8842 0.1093
C33 C 0.06064(17) 0.96175(11) 0.10341(16)
Zn2_2 Zn 0.41851(2) 0.99535(2) 0.64014(2)
O12_2 O 0.36468(12) 0.95323(6) 0.71113(11)
O14_2 O 0.53459(12) 0.95193(6) 0.64873(10)
C36_2 C 0.9693(2) 0.09651(11) 0.01984(18)
H24_2 H 0.9648 0.1303 0.0411
N3_3 N 0.16653(13) 0.47813(7) 0.98770(12)
H17_3 H 0.2900 0.5094 0.9920
O6_3 O 0.02663(12) 0.56963(6) 0.86216(12)
O7_3 O 0.16715(14) 0.56715(6) 0.85066(12)
O8_3 O 0.10800(12) 0.81701(6) 0.86316(11)
C37_3 C 0.09835(17) 0.59343(9) 0.85603(14)
C38_3 C 0.10150(15) 0.65246(8) 0.85655(13)
C39_3 C 0.03074(17) 0.68201(9) 0.87088(16)
C40_3 C 0.03450(17) 0.73659(9) 0.87278(17)
C41_3 C 0.11079(16) 0.76245(9) 0.86086(15)
C42_3 C 0.18230(17) 0.73369(9) 0.84662(16)
H27_3 H 0.2337 0.7509 0.8383
C43_3 C 0.17680(17) 0.67904(9) 0.84492(16)
H28_3 H 0.2254 0.6595 0.8356
C44_3 C 0.17975(18) 0.84569(8) 0.84499(17)
C45_3 C 0.16114(18) 0.86140(10) 0.76133(17)
H29_3 H 0.1032 0.8518 0.7163
C46_3 C 0.22928(18) 0.89179(9) 0.74401(16)
H30_3 H 0.2166 0.9027 0.6867
C47_3 C 0.31544(16) 0.90631(8) 0.80948(14)
C48_3 C 0.33118(19) 0.89013(10) 0.89380(16)
H31_3 H 0.3886 0.8998 0.9395
C49_3 C 0.2629(2) 0.85976(11) 0.91145(17)
H32_3 H 0.2742 0.8491 0.9686
C50_3 C 0.38809(17) 0.93989(8) 0.79006(16)
H25_3 H 0.9795 0.6647 0.8794
H26_3 H 0.9859 0.7561 0.8820
H25_4 H 0.0205 0.6647 0.6206
H26_4 H 0.0141 0.7561 0.6180
N3_4 N 0.83347(13) 0.47813(7) 0.51230(12)
N4_2 N 0.59644(14) 0.47232(8) 0.19506(13)
C26_2 C 0.73977(18) 0.49339(9) 0.47366(16)
H17_4 H 0.7100 0.5094 0.5080
C27_2 C 0.68676(18) 0.48639(10) 0.38670(16)
H18_2 H 0.6222 0.4976 0.3626
C28_2 C 0.72955(16) 0.46245(9) 0.33416(15)
C29_2 C 0.82512(17) 0.44615(9) 0.37383(16)
H19_2 H 0.8559 0.4292 0.3411
C30_2 C 0.87473(17) 0.45499(9) 0.46201(15)
H20_2 H 0.9395 0.4444 0.4875
C31_2 C 0.68100(18) 0.45526(10) 0.23897(16)
H21_2 H 0.7143 0.4372 0.2095
C32_2 C 0.56511(19) 0.41234(11) 0.07085(18)
H22_2 H 0.5913 0.3842 0.1093
C33_2 C 0.56064(17) 0.46175(11) 0.10341(16)
C34_2 C 0.51745(16) 0.50475(10) 0.04596(15)
C35_2 C 0.50906(17) 0.55616(10) 0.07664(16)
H23_2 H 0.5311 0.5625 0.1367
C36_3 C 0.4693(2) 0.59651(11) 0.01984(18)
H24_3 H 0.4648 0.6303 0.0411
O6_4 O 0.97337(12) 0.56963(6) 0.63784(12)
O7_4 O 0.83285(14) 0.56715(6) 0.64934(12)
O8_4 O 0.89200(12) 0.81701(6) 0.63684(11)
C37_4 C 0.90165(17) 0.59343(9) 0.64397(14)
C38_4 C 0.89850(15) 0.65246(8) 0.64345(13)
C39_4 C 0.96926(17) 0.68201(9) 0.62912(16)
C40_4 C 0.96550(17) 0.73659(9) 0.62722(17)
C41_4 C 0.88921(16) 0.76245(9) 0.63914(15)
C42_4 C 0.81770(17) 0.73369(9) 0.65338(16)
H27_4 H 0.7663 0.7509 0.6617
C43_4 C 0.82320(17) 0.67904(9) 0.65508(16)
H28_4 H 0.7746 0.6595 0.6644
C44_4 C 0.82025(18) 0.84569(8) 0.65501(17)
C45_4 C 0.83886(18) 0.86140(10) 0.73867(17)
H29_4 H 0.8968 0.8518 0.7837
C46_4 C 0.77072(18) 0.89179(9) 0.75599(16)
H30_4 H 0.7834 0.9027 0.8133
C47_4 C 0.68456(16) 0.90631(8) 0.69052(14)
C48_4 C 0.66882(19) 0.89013(10) 0.60620(16)
H31_4 H 0.6114 0.8998 0.5605
C49_4 C 0.7371(2) 0.85976(11) 0.58855(17)
H32_4 H 0.7258 0.8491 0.5314
C50_4 C 0.61191(17) 0.93989(8) 0.70994(16)
C9_3 C 0.01745(16) 0.99525(10) 0.54596(15)
C10_3 C 0.00906(17) 0.94384(10) 0.57664(16)
H7_3 H 0.0311 0.9375 0.6367
C34_3 C 0.98255(16) 0.00475(10) 0.45404(15)
C35_3 C 0.99094(17) 0.05616(10) 0.42336(16)
H23_3 H 0.9689 0.0625 0.3633
C11_3 C 0.9693(2) 0.90349(11) 0.51984(18)
H8_3 H 0.9648 0.8697 0.5411
N4_3 N 0.90356(14) 0.97232(8) 0.30494(13)
C26_3 C 0.76023(18) 0.99339(9) 0.02634(16)
C27_3 C 0.81324(18) 0.98639(10) 0.11330(16)
H18_3 H 0.8778 0.9976 0.1374
C28_3 C 0.77045(16) 0.96245(9) 0.16584(15)
C29_3 C 0.67488(17) 0.94615(9) 0.12617(16)
H19_3 H 0.6441 0.9292 0.1589
C30_3 C 0.62527(17) 0.95499(9) 0.03799(15)
H20_3 H 0.5605 0.9444 0.0125
C31_3 C 0.81900(18) 0.95526(10) 0.26103(16)
H21_3 H 0.7857 0.9372 0.2905
C32_3 C 0.93489(19) 0.91234(11) 0.42915(18)
H22_3 H 0.9087 0.8842 0.3907
C33_3 C 0.93936(17) 0.96175(11) 0.39659(16)
N2_4 N 0.59644(14) 0.52768(8) 0.69506(13)
C1_4 C 0.73977(18) 0.50661(9) 0.97366(16)
C2_4 C 0.68676(18) 0.51361(10) 0.88670(16)
H2_4 H 0.6222 0.5024 0.8626
C3_4 C 0.72955(16) 0.53755(9) 0.83416(15)
C4_4 C 0.82512(17) 0.55385(9) 0.87383(16)
H3_4 H 0.8559 0.5708 0.8411
C5_4 C 0.87473(17) 0.54501(9) 0.96201(15)
H4_4 H 0.9395 0.5556 0.9875
C6_4 C 0.68100(18) 0.54474(10) 0.73897(16)
H5_4 H 0.7143 0.5628 0.7095
C7_4 C 0.56511(19) 0.58766(11) 0.57085(18)
H6_4 H 0.5913 0.6158 0.6093
C8_4 C 0.56064(17) 0.53825(11) 0.60341(16)
C9_4 C 0.51745(16) 0.49525(10) 0.54596(15)
C10_4 C 0.50906(17) 0.44384(10) 0.57664(16)
H7_4 H 0.5311 0.4375 0.6367
C11_4 C 0.4693(2) 0.40349(11) 0.51984(18)
H8_4 H 0.4648 0.3697 0.5411
N4_4 N 0.40356(14) 0.47232(8) 0.30494(13)
C26_4 C 0.26023(18) 0.49339(9) 0.02634(16)
C27_4 C 0.31324(18) 0.48639(10) 0.11330(16)
H18_4 H 0.3778 0.4976 0.1374
C28_4 C 0.27045(16) 0.46245(9) 0.16584(15)
C29_4 C 0.17488(17) 0.44615(9) 0.12617(16)
H19_4 H 0.1441 0.4292 0.1589
C30_4 C 0.12527(17) 0.45499(9) 0.03799(15)
H20_4 H 0.0605 0.4444 0.0125
C31_4 C 0.31900(18) 0.45526(10) 0.26103(16)
H21_4 H 0.2857 0.4372 0.2905
C32_4 C 0.43489(19) 0.41234(11) 0.42915(18)
H22_4 H 0.4087 0.3842 0.3907
C33_4 C 0.43936(17) 0.46175(11) 0.39659(16)
C34_4 C 0.48255(16) 0.50475(10) 0.45404(15)
C35_4 C 0.49094(17) 0.55616(10) 0.42336(16)
H23_4 H 0.4689 0.5625 0.3633
C36_4 C 0.5307(2) 0.59651(11) 0.48016(18)
H24_4 H 0.5352 0.6303 0.4589
loop_
_geom_bond_atom_site_label_1
_geom_bond_atom_site_label_2
_geom_bond_site_symmetry_1
_geom_bond_site_symmetry_2
N1 Zn1 1_555 1_555
O11 Zn1 1_555 1_555
O13 Zn1 1_555 1_555
O1 C12 1_555 1_555
O3 C16 1_555 1_555
O4 C25 1_555 1_555
O5 C25 1_555 1_555
C12 O2 1_555 1_555
C13 C12 1_555 1_555
C14 C13 1_555 1_555
H9 C14 1_555 1_555
C15 C14 1_555 1_555
H10 C15 1_555 1_555
C16 C15 1_555 1_555
C17 C16 1_555 1_555
H11 C17 1_555 1_555
C18 C13 1_555 1_555
H12 C18 1_555 1_555
C19 O3 1_555 1_555
C20 C19 1_555 1_555
H13 C20 1_555 1_555
C21 C20 1_555 1_555
H14 C21 1_555 1_555
C22 C21 1_555 1_555
C23 C22 1_555 1_555
H15 C23 1_555 1_555
C24 C19 1_555 1_555
H16 C24 1_555 1_555
C25 C22 1_555 1_555
Zn4 O4 1_555 1_555
C17 C18 1_555 1_555
C23 C24 1_555 1_555
H8 C11 1_555 1_555
N1_2 Zn1_2 1_555 1_555
N2 C6 1_555 1_555
C1 N1_2 1_555 1_555
C2 C1 1_555 1_555
H2 C2 1_555 1_555
C3 C2 1_555 1_555
C4 C3 1_555 1_555
H3 C4 1_555 1_555
C5 N1_2 1_555 1_555
H4 C5 1_555 1_555
C6 C3 1_555 1_555
H5 C6 1_555 1_555
C7 H6 1_555 1_555
C8 N2 1_555 1_555
O11_2 Zn1_2 1_555 1_555
O13_2 Zn1_2 1_555 1_555
C4 C5 1_555 1_555
C7 C8 1_555 1_555
O1_2 C12_2 1_555 1_555
O3_2 C16_2 1_555 1_555
O4_2 C25_2 1_555 1_555
O5_2 C25_2 1_555 1_555
C10 C9 1_555 1_555
H7 C10 1_555 1_555
C12_2 O2_2 1_555 1_555
C13_2 C12_2 1_555 1_555
C14_2 C13_2 1_555 1_555
H9_2 C14_2 1_555 1_555
C15_2 C14_2 1_555 1_555
H10_2 C15_2 1_555 1_555
C16_2 C15_2 1_555 1_555
C17_2 C16_2 1_555 1_555
H11_2 C17_2 1_555 1_555
C18_2 C13_2 1_555 1_555
H12_2 C18_2 1_555 1_555
C19_2 O3_2 1_555 1_555
C20_2 C19_2 1_555 1_555
H13_2 C20_2 1_555 1_555
C21_2 C20_2 1_555 1_555
H14_2 C21_2 1_555 1_555
C22_2 C21_2 1_555 1_555
C23_2 C22_2 1_555 1_555
H15_2 C23_2 1_555 1_555
C24_2 C19_2 1_555 1_555
H16_2 C24_2 1_555 1_555
C25_2 C22_2 1_555 1_555
Zn3 O4_2 1_555 1_555
C17_2 C18_2 1_555 1_555
C23_2 C24_2 1_555 1_555
Zn3 O1_3 1_555 1_555
O1_3 C12_3 1_555 1_555
O2_3 Zn3 1_555 1_555
O3_3 C16_3 1_555 1_555
O11_2 C25_3 1_555 1_555
O13 C25_3 1_555 1_555
N1_3 Zn3 1_555 1_555
C12_3 O2_3 1_555 1_555
C13_3 C12_3 1_555 1_555
C14_3 C13_3 1_555 1_555
C15_3 C14_3 1_555 1_555
C16_3 C15_3 1_555 1_555
C17_3 C16_3 1_555 1_555
H11_3 C17_3 1_555 1_555
C18_3 C13_3 1_555 1_555
H12_3 C18_3 1_555 1_555
C19_3 O3_3 1_555 1_555
C20_3 C19_3 1_555 1_555
H13_3 C20_3 1_555 1_555
C21_3 C20_3 1_555 1_555
H14_3 C21_3 1_555 1_555
C22_3 C21_3 1_555 1_555
C23_3 C22_3 1_555 1_555
H15_3 C23_3 1_555 1_555
C24_3 C19_3 1_555 1_555
H16_3 C24_3 1_555 1_555
C25_3 C22_3 1_555 1_555
C17_3 C18_3 1_555 1_555
C23_3 C24_3 1_555 1_555
Zn4 O1_4 1_555 1_555
O1_4 C12_4 1_555 1_555
O2_4 Zn4 1_555 1_555
O3_4 C16_4 1_555 1_555
O11 C25_4 1_555 1_555
O13_2 C25_4 1_555 1_555
N1_4 Zn4 1_555 1_555
N2_2 C6_2 1_555 1_555
C1_2 N1_4 1_555 1_555
H1_4 C1_2 1_555 1_555
C2_2 C1_2 1_555 1_555
H2_2 C2_2 1_555 1_555
C3_2 C2_2 1_555 1_555
C4_2 C3_2 1_555 1_555
H3_2 C4_2 1_555 1_555
C5_2 N1_4 1_555 1_555
H4_2 C5_2 1_555 1_555
C6_2 C3_2 1_555 1_555
H5_2 C6_2 1_555 1_555
C7_2 H6_2 1_555 1_555
C8_2 N2_2 1_555 1_555
C9_2 C8_2 1_555 1_555
C10_2 C9_2 1_555 1_555
H7_2 C10_2 1_555 1_555
C11_2 C10_2 1_555 1_555
H8_2 C11_2 1_555 1_555
C12_4 O2_4 1_555 1_555
C13_4 C12_4 1_555 1_555
C14_4 C13_4 1_555 1_555
C15_4 C14_4 1_555 1_555
C16_4 C15_4 1_555 1_555
C17_4 C16_4 1_555 1_555
H11_4 C17_4 1_555 1_555
C18_4 C13_4 1_555 1_555
H12_4 C18_4 1_555 1_555
C19_4 O3_4 1_555 1_555
C20_4 C19_4 1_555 1_555
H13_4 C20_4 1_555 1_555
C21_4 C20_4 1_555 1_555
H14_4 C21_4 1_555 1_555
C22_4 C21_4 1_555 1_555
C23_4 C22_4 1_555 1_555
H15_4 C23_4 1_555 1_555
C24_4 C19_4 1_555 1_555
H16_4 C24_4 1_555 1_555
C25_4 C22_4 1_555 1_555
C4_2 C5_2 1_555 1_555
C7_2 C8_2 1_555 1_555
C17_4 C18_4 1_555 1_555
C23_4 C24_4 1_555 1_555
N2_3 C6_3 1_555 1_555
C2_3 C1_3 1_555 1_555
H2_3 C2_3 1_555 1_555
C3_3 C2_3 1_555 1_555
C4_3 C3_3 1_555 1_555
H3_3 C4_3 1_555 1_555
H4_3 C5_3 1_555 1_555
C6_3 C3_3 1_555 1_555
H5_3 C6_3 1_555 1_555
C7_3 H6_3 1_555 1_555
C8_3 N2_3 1_555 1_555
C36 C7_3 1_555 1_555
H24 C36 1_555 1_555
C4_3 C5_3 1_555 1_555
C7_3 C8_3 1_555 1_555
O8 C41 1_555 1_555
O9 C50 1_555 1_555
O10 C50 1_555 1_555
C37 O6 1_555 1_555
C38 C37 1_555 1_555
C39 C38 1_555 1_555
H25 C39 1_555 1_555
C40 C39 1_555 1_555
H26 C40 1_555 1_555
C41 C40 1_555 1_555
C42 C41 1_555 1_555
H27 C42 1_555 1_555
C43 C38 1_555 1_555
H28 C43 1_555 1_555
C44 O8 1_555 1_555
C45 C44 1_555 1_555
H29 C45 1_555 1_555
C46 C45 1_555 1_555
H30 C46 1_555 1_555
C47 C46 1_555 1_555
C48 C47 1_555 1_555
H31 C48 1_555 1_555
C49 C44 1_555 1_555
H32 C49 1_555 1_555
C50 C47 1_555 1_555
Zn6 O9 1_555 1_555
O7 C37 1_555 1_555
C42 C43 1_555 1_555
C48 C49 1_555 1_555
Zn2 N3 1_555 1_555
O12 Zn2 1_555 1_555
O14 Zn2 1_555 1_555
C35 C34 1_555 1_555
H23 C35 1_555 1_555
O8_2 C41_2 1_555 1_555
O9_2 C50_2 1_555 1_555
O10_2 C50_2 1_555 1_555
C37_2 O6_2 1_555 1_555
C38_2 C37_2 1_555 1_555
C39_2 C38_2 1_555 1_555
H25_2 C39_2 1_555 1_555
C40_2 C39_2 1_555 1_555
H26_2 C40_2 1_555 1_555
C41_2 C40_2 1_555 1_555
C42_2 C41_2 1_555 1_555
H27_2 C42_2 1_555 1_555
C43_2 C38_2 1_555 1_555
H28_2 C43_2 1_555 1_555
C44_2 O8_2 1_555 1_555
C45_2 C44_2 1_555 1_555
H29_2 C45_2 1_555 1_555
C46_2 C45_2 1_555 1_555
H30_2 C46_2 1_555 1_555
C47_2 C46_2 1_555 1_555
C48_2 C47_2 1_555 1_555
H31_2 C48_2 1_555 1_555
C49_2 C44_2 1_555 1_555
H32_2 C49_2 1_555 1_555
C50_2 C47_2 1_555 1_555
Zn5 O9_2 1_555 1_555
O7_2 C37_2 1_555 1_555
C42_2 C43_2 1_555 1_555
C48_2 C49_2 1_555 1_555
N3_2 C26 1_555 1_555
N4 C31 1_555 1_555
C27 C26 1_555 1_555
H18 C27 1_555 1_555
C28 C27 1_555 1_555
C29 C28 1_555 1_555
H19 C29 1_555 1_555
C30 N3_2 1_555 1_555
H20 C30 1_555 1_555
C31 C28 1_555 1_555
H21 C31 1_555 1_555
H22 C32 1_555 1_555
C33 N4 1_555 1_555
Zn2_2 N3_2 1_555 1_555
O12_2 Zn2_2 1_555 1_555
O14_2 Zn2_2 1_555 1_555
C29 C30 1_555 1_555
C32 C33 1_555 1_555
H24_2 C36_2 1_555 1_555
Zn5 N3_3 1_555 1_555
O6_3 Zn5 1_555 1_555
O7_3 Zn5 1_555 1_555
O8_3 C41_3 1_555 1_555
O12_2 C50_3 1_555 1_555
O14 C50_3 1_555 1_555
C37_3 O6_3 1_555 1_555
C38_3 C37_3 1_555 1_555
C39_3 C38_3 1_555 1_555
C40_3 C39_3 1_555 1_555
C41_3 C40_3 1_555 1_555
C42_3 C41_3 1_555 1_555
H27_3 C42_3 1_555 1_555
C43_3 C38_3 1_555 1_555
H28_3 C43_3 1_555 1_555
C44_3 O8_3 1_555 1_555
C45_3 C44_3 1_555 1_555
H29_3 C45_3 1_555 1_555
C46_3 C45_3 1_555 1_555
H30_3 C46_3 1_555 1_555
C47_3 C46_3 1_555 1_555
C48_3 C47_3 1_555 1_555
H31_3 C48_3 1_555 1_555
C49_3 C44_3 1_555 1_555
H32_3 C49_3 1_555 1_555
C50_3 C47_3 1_555 1_555
O7_3 C37_3 1_555 1_555
C42_3 C43_3 1_555 1_555
C48_3 C49_3 1_555 1_555
N3_4 C26_2 1_555 1_555
N4_2 C31_2 1_555 1_555
C26_2 H17_4 1_555 1_555
C27_2 C26_2 1_555 1_555
H18_2 C27_2 1_555 1_555
C28_2 C27_2 1_555 1_555
C29_2 C28_2 1_555 1_555
H19_2 C29_2 1_555 1_555
C30_2 N3_4 1_555 1_555
H20_2 C30_2 1_555 1_555
C31_2 C28_2 1_555 1_555
H21_2 C31_2 1_555 1_555
H22_2 C32_2 1_555 1_555
C33_2 N4_2 1_555 1_555
C35_2 C34_2 1_555 1_555
H23_2 C35_2 1_555 1_555
H24_3 C36_3 1_555 1_555
Zn6 N3_4 1_555 1_555
O6_4 Zn6 1_555 1_555
O7_4 Zn6 1_555 1_555
O8_4 C41_4 1_555 1_555
O12 C50_4 1_555 1_555
O14_2 C50_4 1_555 1_555
C37_4 O6_4 1_555 1_555
C38_4 C37_4 1_555 1_555
C39_4 C38_4 1_555 1_555
C40_4 C39_4 1_555 1_555
C41_4 C40_4 1_555 1_555
C42_4 C41_4 1_555 1_555
H27_4 C42_4 1_555 1_555
C43_4 C38_4 1_555 1_555
H28_4 C43_4 1_555 1_555
C44_4 O8_4 1_555 1_555
C45_4 C44_4 1_555 1_555
H29_4 C45_4 1_555 1_555
C46_4 C45_4 1_555 1_555
H30_4 C46_4 1_555 1_555
C47_4 C46_4 1_555 1_555
C48_4 C47_4 1_555 1_555
H31_4 C48_4 1_555 1_555
C49_4 C44_4 1_555 1_555
H32_4 C49_4 1_555 1_555
C50_4 C47_4 1_555 1_555
C29_2 C30_2 1_555 1_555
C32_2 C33_2 1_555 1_555
C33_2 C34_2 1_555 1_555
C35_2 C36_3 1_555 1_555
O7_4 C37_4 1_555 1_555
C42_4 C43_4 1_555 1_555
C48_4 C49_4 1_555 1_555
C10_3 C9_3 1_555 1_555
H7_3 C10_3 1_555 1_555
C35_3 C34_3 1_555 1_555
H23_3 C35_3 1_555 1_555
H8_3 C11_3 1_555 1_555
N4_3 C31_3 1_555 1_555
C27_3 C26_3 1_555 1_555
H18_3 C27_3 1_555 1_555
C28_3 C27_3 1_555 1_555
C29_3 C28_3 1_555 1_555
H19_3 C29_3 1_555 1_555
H20_3 C30_3 1_555 1_555
C31_3 C28_3 1_555 1_555
H21_3 C31_3 1_555 1_555
C32_3 C11_3 1_555 1_555
H22_3 C32_3 1_555 1_555
C33_3 N4_3 1_555 1_555
C29_3 C30_3 1_555 1_555
C32_3 C33_3 1_555 1_555
N2_4 C6_4 1_555 1_555
C2_4 C1_4 1_555 1_555
H2_4 C2_4 1_555 1_555
C3_4 C2_4 1_555 1_555
C4_4 C3_4 1_555 1_555
H3_4 C4_4 1_555 1_555
H4_4 C5_4 1_555 1_555
C6_4 C3_4 1_555 1_555
H5_4 C6_4 1_555 1_555
C7_4 H6_4 1_555 1_555
C8_4 N2_4 1_555 1_555
C9_4 C8_4 1_555 1_555
C10_4 C9_4 1_555 1_555
H7_4 C10_4 1_555 1_555
C11_4 C10_4 1_555 1_555
H8_4 C11_4 1_555 1_555
N4_4 C31_4 1_555 1_555
C27_4 C26_4 1_555 1_555
H18_4 C27_4 1_555 1_555
C28_4 C27_4 1_555 1_555
C29_4 C28_4 1_555 1_555
H19_4 C29_4 1_555 1_555
H20_4 C30_4 1_555 1_555
C31_4 C28_4 1_555 1_555
H21_4 C31_4 1_555 1_555
C32_4 C11_4 1_555 1_555
H22_4 C32_4 1_555 1_555
C33_4 N4_4 1_555 1_555
C34_4 C9_4 1_555 1_555
C35_4 C34_4 1_555 1_555
H23_4 C35_4 1_555 1_555
C36_4 C7_4 1_555 1_555
H24_4 C36_4 1_555 1_555
C4_4 C5_4 1_555 1_555
C7_4 C8_4 1_555 1_555
C29_4 C30_4 1_555 1_555
C32_4 C33_4 1_555 1_555
C33_4 C34_4 1_555 1_555
C35_4 C36_4 1_555 1_555

#END
