
###############################################################################
#
# This file contains modified crystal structure data generated from the
# MOF subset of the Cambridge Structural Database (CSD) v543 
# hosted by the Cambridge Crystallographic Data Centre (CCDC).
#
# This work is licensed under the Creative Commons
# Attribution-NonCommercial-ShareAlike 4.0 International License.
# To view a copy of this license, visit
# http://creativecommons.org/licenses/by-nc-sa/4.0/
# or send a letter to
# Creative Commons, PO Box 1866, Mountain View, CA 94042, USA.
#
# CIF created using the CSD Python API on 29 September 2022
# The structure has been converted into the P1 space group
# The structure has a 3D framework
# The original CSD entry YURHOL is in the rhombohedral crystal system
# The framework has been calculated to contain at least 10.0% void space
# The void calculation uses a probe of radius 1.32A, grid spacing 0.4
#
###############################################################################

data_YURHOL
_chemical_formula_moiety         '(C378 H234 Co11 N54)n'
_symmetry_cell_setting           triclinic
_symmetry_space_group_name_H-M   'P 1'
_symmetry_Int_Tables_number      1
_space_group_name_Hall           'P 1'
loop_
_symmetry_equiv_pos_site_id
_symmetry_equiv_pos_as_xyz
1 x,y,z
_cell_length_a                   32.7808(7)
_cell_length_b                   32.7808(7)
_cell_length_c                   9.3592(3)
_cell_angle_alpha                90
_cell_angle_beta                 90
_cell_angle_gamma                120
_cell_volume                     8709.81
loop_
_atom_site_label
_atom_site_type_symbol
_atom_site_fract_x
_atom_site_fract_y
_atom_site_fract_z
C22 C 0.56918(13) 0.16253(14) 0.1617(4)
H14 H 0.5783 0.1831 0.2416
C40 C 0.56780(16) 0.17831(14) 0.0290(5)
H24 H 0.5760 0.2103 0.0167
C41 C 0.55735(12) 0.11710(14) 0.1784(4)
H25 H 0.5585 0.1060 0.2712
C42 C 0.54346(11) 0.08598(12) 0.0636(3)
H26 H 0.5347 0.0540 0.0786
Co1 Co 0.5000 0.0000 0.5000
N2 N 0.55806(7) 0.05613(8) 0.5718(2)
N3 N 0.75954(8) 0.13727(8) 0.2627(2)
C4 C 0.59381(10) 0.01090(12) 0.1681(3)
H3 H 0.6244 0.0241 0.1274
C5 C 0.58132(10) 0.02615(10) 0.2970(3)
C6 C 0.61338(9) 0.06243(10) 0.3839(3)
C7 C 0.66403(9) 0.08809(10) 0.3398(3)
C8 C 0.68020(10) 0.12122(12) 0.2306(3)
H4 H 0.6590 0.1278 0.1802
C9 C 0.72769(10) 0.14456(11) 0.1962(3)
H5 H 0.7382 0.1670 0.1210
C10 C 0.74381(10) 0.10545(11) 0.3684(3)
H6 H 0.7658 0.0998 0.4178
C11 C 0.69689(10) 0.08044(11) 0.4091(3)
H7 H 0.6873 0.0581 0.4845
C12 C 0.60216(9) 0.07640(10) 0.5109(3)
C13 C 0.63612(10) 0.11401(11) 0.5995(3)
H8 H 0.6688 0.1335 0.5801
C14 C 0.61285(10) 0.11643(11) 0.7150(3)
H9 H 0.6260 0.1379 0.7923
C15 C 0.56427(9) 0.08018(10) 0.6987(3)
N4 N 0.46624(7) 0.00122(8) 0.6769(2)
C23 C 0.48335(10) 0.03343(10) 0.7865(3)
C24 C 0.44600(11) 0.02561(11) 0.8836(3)
H15 H 0.4489 0.0430 0.9680
C37 C 0.52949(9) 0.07031(10) 0.7998(3)
C38 C 0.54251(10) 0.10199(10) 0.9272(3)
C39 C 0.55469(13) 0.14902(12) 0.9108(4)
H23 H 0.5540 0.1609 0.8188
Co3 Co 0.8333 0.1667 0.1667
N8 N 0.47060(8) 0.04440(11) 0.4040(2)
Co1_2 Co 0.5000 1.0000 0.5000
N1 N 0.53376(7) 0.99878(8) 0.3231(2)
C2 C 0.51665(10) 0.96657(10) 0.2135(3)
C3 C 0.55400(11) 0.97439(11) 0.1164(3)
H2 H 0.5511 0.9570 0.0320
C16 C 0.47051(9) 0.92969(10) 0.2002(3)
C17 C 0.45749(10) 0.89801(10) 0.0728(3)
C18 C 0.44531(13) 0.85098(12) 0.0892(4)
H10 H 0.4460 0.8391 0.1812
N5 N 0.44194(7) 0.94387(8) 0.4282(2)
N6 N 0.24046(8) 0.86273(8) 0.7373(2)
C25 C 0.40619(10) 0.98910(12) 0.8319(3)
H16 H 0.3756 0.9759 0.8726
C26 C 0.41868(10) 0.97385(10) 0.7030(3)
C27 C 0.38662(9) 0.93757(10) 0.6161(3)
C28 C 0.33597(9) 0.91191(10) 0.6602(3)
C29 C 0.31980(10) 0.87878(12) 0.7694(3)
H17 H 0.3410 0.8722 0.8198
C30 C 0.27231(10) 0.85544(11) 0.8038(3)
H18 H 0.2618 0.8330 0.8790
C31 C 0.25619(10) 0.89455(11) 0.6316(3)
H19 H 0.2342 0.9002 0.5822
C32 C 0.30311(10) 0.91956(11) 0.5909(3)
H20 H 0.3127 0.9419 0.5155
C33 C 0.39784(9) 0.92360(10) 0.4891(3)
C34 C 0.36388(10) 0.88599(11) 0.4005(3)
H21 H 0.3312 0.8665 0.4199
C35 C 0.38715(10) 0.88357(11) 0.2850(3)
H22 H 0.3740 0.8621 0.2077
C36 C 0.43573(9) 0.91982(10) 0.3013(3)
Co2 Co 0.1667 0.8333 0.8333
N7 N 0.52940(8) 0.95560(11) 0.5960(2)
Co1_3 Co 0.0000 0.5000 0.5000
N1_2 N 0.00122(8) 0.53498(11) 0.3231(2)
C2_2 C 0.03343(10) 0.55008(14) 0.2135(3)
C3_2 C 0.02561(11) 0.57961(16) 0.1164(3)
H2_2 H 0.0430 0.5941 0.0320
C16_2 C 0.07031(10) 0.54082(13) 0.2002(3)
C17_2 C 0.10199(10) 0.55948(14) 0.0728(3)
C18_2 C 0.14902(12) 0.59433(18) 0.0892(4)
H10_2 H 0.1609 0.6069 0.1812
N5_2 N 0.05613(8) 0.49807(11) 0.4282(2)
N6_2 N 0.13727(8) 0.37773(11) 0.7373(2)
C25_2 C 0.01090(12) 0.41709(16) 0.8319(3)
H16_2 H 0.0241 0.3997 0.8726
C26_2 C 0.02615(10) 0.44483(14) 0.7030(3)
C27_2 C 0.06243(10) 0.44905(13) 0.6161(3)
C28_2 C 0.08809(10) 0.42406(13) 0.6602(3)
C29_2 C 0.12122(12) 0.44102(16) 0.7694(3)
H17_2 H 0.1278 0.4688 0.8198
C30_2 C 0.14456(11) 0.41687(15) 0.8038(3)
H18_2 H 0.1670 0.4288 0.8790
C31_2 C 0.10545(11) 0.36164(15) 0.6316(3)
H19_2 H 0.0998 0.3340 0.5822
C32_2 C 0.08044(11) 0.38355(15) 0.5909(3)
H20_2 H 0.0581 0.3708 0.5155
C33_2 C 0.07640(10) 0.47424(13) 0.4891(3)
C34_2 C 0.11401(11) 0.47789(15) 0.4005(3)
H21_2 H 0.1335 0.4647 0.4199
C35_2 C 0.11643(11) 0.50358(15) 0.2850(3)
H22_2 H 0.1379 0.5119 0.2077
C36_2 C 0.08018(10) 0.51591(13) 0.3013(3)
Co2_2 Co 0.1667 0.3333 0.8333
N7_2 N 0.04440(11) 0.57379(14) 0.5960(2)
Co1_4 Co 1.0000 0.5000 0.5000
N2_2 N 0.94387(8) 0.50193(11) 0.5718(2)
N3_2 N 0.86273(8) 0.62227(11) 0.2627(2)
C4_2 C 0.98910(12) 0.58291(16) 0.1681(3)
H3_2 H 0.9759 0.6003 0.1274
C5_2 C 0.97385(10) 0.55517(14) 0.2970(3)
C6_2 C 0.93757(10) 0.55095(13) 0.3839(3)
C7_2 C 0.91191(10) 0.57594(13) 0.3398(3)
C8_2 C 0.87878(12) 0.55898(16) 0.2306(3)
H4_2 H 0.8722 0.5312 0.1802
C9_2 C 0.85544(11) 0.58313(15) 0.1962(3)
H5_2 H 0.8330 0.5712 0.1210
C10_2 C 0.89455(11) 0.63836(15) 0.3684(3)
H6_2 H 0.9002 0.6660 0.4178
C11_2 C 0.91956(11) 0.61645(15) 0.4091(3)
H7_2 H 0.9419 0.6292 0.4845
C12_2 C 0.92360(10) 0.52576(13) 0.5109(3)
C13_2 C 0.88599(11) 0.52211(15) 0.5995(3)
H8_2 H 0.8665 0.5353 0.5801
C14_2 C 0.88357(11) 0.49642(15) 0.7150(3)
H9_2 H 0.8621 0.4881 0.7923
C15_2 C 0.91982(10) 0.48409(13) 0.6987(3)
N4_2 N 0.99878(8) 0.46502(11) 0.6769(2)
C23_2 C 0.96657(10) 0.44992(14) 0.7865(3)
C24_2 C 0.97439(11) 0.42039(16) 0.8836(3)
H15_2 H 0.9570 0.4059 0.9680
C37_2 C 0.92969(10) 0.45918(13) 0.7998(3)
C38_2 C 0.89801(10) 0.44052(14) 0.9272(3)
C39_2 C 0.85098(12) 0.40567(18) 0.9108(4)
H23_2 H 0.8391 0.3931 0.8188
Co3_2 Co 0.8333 0.6667 0.1667
N8_2 N 0.95560(11) 0.42621(14) 0.4040(2)
Co1_5 Co 0.5000 0.5000 0.5000
N1_3 N 0.46502(11) 0.46624(7) 0.3231(2)
N2_3 N 0.49807(11) 0.44194(7) 0.5718(2)
N3_3 N 0.37773(11) 0.24046(8) 0.2627(2)
C2_3 C 0.44992(14) 0.48335(10) 0.2135(3)
C3_3 C 0.42039(16) 0.44600(11) 0.1164(3)
H2_3 H 0.4059 0.4489 0.0320
C4_3 C 0.41709(16) 0.40619(10) 0.1681(3)
H3_3 H 0.3997 0.3756 0.1274
C5_3 C 0.44483(14) 0.41868(10) 0.2970(3)
C6_3 C 0.44905(13) 0.38662(9) 0.3839(3)
C7_3 C 0.42406(13) 0.33597(9) 0.3398(3)
C8_3 C 0.44102(16) 0.31980(10) 0.2306(3)
H4_3 H 0.4688 0.3410 0.1802
C9_3 C 0.41687(15) 0.27231(10) 0.1962(3)
H5_3 H 0.4288 0.2618 0.1210
C10_3 C 0.36164(15) 0.25619(10) 0.3684(3)
H6_3 H 0.3340 0.2342 0.4178
C11_3 C 0.38355(15) 0.30311(10) 0.4091(3)
H7_3 H 0.3708 0.3127 0.4845
C12_3 C 0.47424(13) 0.39784(9) 0.5109(3)
C13_3 C 0.47789(15) 0.36388(10) 0.5995(3)
H8_3 H 0.4647 0.3312 0.5801
C14_3 C 0.50358(15) 0.38715(10) 0.7150(3)
H9_3 H 0.5119 0.3740 0.7923
C15_3 C 0.51591(13) 0.43573(9) 0.6987(3)
C16_3 C 0.45918(13) 0.52949(9) 0.2002(3)
C17_3 C 0.44052(14) 0.54251(10) 0.0728(3)
C18_3 C 0.40567(18) 0.55469(13) 0.0892(4)
H10_3 H 0.3931 0.5540 0.1812
N4_3 N 0.53498(11) 0.53376(7) 0.6769(2)
N5_3 N 0.50193(11) 0.55806(7) 0.4282(2)
N6_3 N 0.62227(11) 0.75954(8) 0.7373(2)
C23_3 C 0.55008(14) 0.51665(10) 0.7865(3)
C24_3 C 0.57961(16) 0.55400(11) 0.8836(3)
H15_3 H 0.5941 0.5511 0.9680
C25_3 C 0.58291(16) 0.59381(10) 0.8319(3)
H16_3 H 0.6003 0.6244 0.8726
C26_3 C 0.55517(14) 0.58132(10) 0.7030(3)
C27_3 C 0.55095(13) 0.61338(9) 0.6161(3)
C28_3 C 0.57594(13) 0.66403(9) 0.6602(3)
C29_3 C 0.55898(16) 0.68020(10) 0.7694(3)
H17_3 H 0.5312 0.6590 0.8198
C30_3 C 0.58313(15) 0.72769(10) 0.8038(3)
H18_3 H 0.5712 0.7382 0.8790
C31_3 C 0.63836(15) 0.74381(10) 0.6316(3)
H19_3 H 0.6660 0.7658 0.5822
C32_3 C 0.61645(15) 0.69689(10) 0.5909(3)
H20_3 H 0.6292 0.6873 0.5155
C33_3 C 0.52576(13) 0.60216(9) 0.4891(3)
C34_3 C 0.52211(15) 0.63612(10) 0.4005(3)
H21_3 H 0.5353 0.6688 0.4199
C35_3 C 0.49642(15) 0.61285(10) 0.2850(3)
H22_3 H 0.4881 0.6260 0.2077
C36_3 C 0.48409(13) 0.56427(9) 0.3013(3)
C37_3 C 0.54082(13) 0.47051(9) 0.7998(3)
C38_3 C 0.55948(14) 0.45749(10) 0.9272(3)
C39_3 C 0.59433(18) 0.44531(13) 0.9108(4)
H23_3 H 0.6069 0.4460 0.8188
Co2_3 Co 0.6667 0.8333 0.8333
Co3_3 Co 0.3333 0.1667 0.1667
N7_3 N 0.42621(14) 0.47060(8) 0.5960(2)
N8_3 N 0.57379(14) 0.52940(8) 0.4040(2)
N1_4 N 0.20043(7) 0.33211(8) 0.6564(2)
N2_4 N 0.22473(7) 0.38946(8) 0.9051(2)
C1 C 0.09749(13) 0.17080(14) 0.1716(4)
H1 H 0.0884 0.1502 0.0917
C2_4 C 0.18332(10) 0.29990(10) 0.5468(3)
C3_4 C 0.22067(11) 0.30772(11) 0.4497(3)
H2_4 H 0.2178 0.2903 0.3653
C4_4 C 0.26048(10) 0.34423(12) 0.5014(3)
H3_4 H 0.2911 0.3574 0.4607
C5_4 C 0.24799(10) 0.35948(10) 0.6303(3)
C6_4 C 0.28005(9) 0.39576(10) 0.7172(3)
C7_4 C 0.33070(9) 0.42142(10) 0.6731(3)
C8_4 C 0.34687(10) 0.45455(12) 0.5639(3)
H4_4 H 0.3257 0.4611 0.5135
C9_4 C 0.39436(10) 0.47789(11) 0.5295(3)
H5_4 H 0.4049 0.5003 0.4543
C10_4 C 0.41048(10) 0.43878(11) 0.7017(3)
H6_4 H 0.4325 0.4331 0.7511
C11_4 C 0.36356(10) 0.41377(11) 0.7424(3)
H7_4 H 0.3540 0.3914 0.8178
C12_4 C 0.26883(9) 0.40973(10) 0.8442(3)
C13_4 C 0.30279(10) 0.44734(11) 0.9328(3)
H8_4 H 0.3355 0.4668 0.9134
C16_4 C 0.13718(9) 0.26302(10) 0.5335(3)
C17_4 C 0.12416(10) 0.23134(10) 0.4061(3)
C18_4 C 0.11198(13) 0.18431(12) 0.4225(4)
H10_4 H 0.1127 0.1724 0.5145
C19 C 0.09887(16) 0.15502(14) 0.3043(5)
H11 H 0.0907 0.1230 0.3166
C20 C 0.10932(12) 0.21623(14) 0.1549(4)
H12 H 0.1082 0.2273 0.0621
C21 C 0.12321(11) 0.24735(12) 0.2697(3)
H13 H 0.1320 0.2793 0.2547
N5_4 N 0.10861(7) 0.27720(8) 0.7615(2)
C27_4 C 0.05329(9) 0.27090(10) 0.9494(3)
C28_4 C 0.00264(9) 0.24524(10) 0.9935(3)
C33_4 C 0.06451(9) 0.25693(10) 0.8224(3)
C34_4 C 0.03055(10) 0.21932(11) 0.7338(3)
C35_4 C 0.05382(10) 0.21690(11) 0.6183(3)
H22_4 H 0.0407 0.1954 0.5410
C36_4 C 0.10240(9) 0.25315(10) 0.6346(3)
N7_4 N 0.19606(8) 0.28894(11) 0.9294(2)
N6_4 N 0.90713(8) 0.19606(8) 0.0706(2)
C29_4 C 0.98647(10) 0.21211(12) 0.1027(3)
C30_4 C 0.93898(10) 0.18877(11) 0.1371(3)
H18_4 H 0.9285 0.1663 0.2123
C14_4 C 0.55024(11) 0.82975(15) 0.0483(3)
H9_4 H 0.5288 0.8214 0.1256
C15_4 C 0.58649(10) 0.81742(13) 0.0320(3)
N4_4 N 0.66545(8) 0.79835(11) 0.0102(2)
N6_5 N 0.80394(8) 0.71106(11) 0.0706(2)
C22_2 C 0.50414(14) 0.73998(19) 0.4950(4)
H14_2 H 0.4836 0.7285 0.5749
C23_4 C 0.63324(10) 0.78325(14) 0.1198(3)
C24_4 C 0.64106(11) 0.75372(16) 0.2169(3)
H15_4 H 0.6237 0.7392 0.3013
C25_4 C 0.67757(12) 0.75042(16) 0.1652(3)
H16_4 H 0.6908 0.7330 0.2059
C26_4 C 0.69282(10) 0.77816(14) 0.0363(3)
C29_5 C 0.78789(12) 0.77435(16) 0.1027(3)
H17_4 H 0.7945 0.8021 0.1531
C30_5 C 0.81123(11) 0.75020(15) 0.1371(3)
H18_5 H 0.8337 0.7621 0.2123
C37_4 C 0.59636(10) 0.79251(13) 0.1331(3)
C38_4 C 0.56468(10) 0.77385(14) 0.2605(3)
C39_4 C 0.51765(12) 0.73900(18) 0.2441(4)
H23_4 H 0.5058 0.7264 0.1521
C40_2 C 0.48836(14) 0.72282(21) 0.3623(5)
H24_2 H 0.4564 0.6990 0.3500
C41_2 C 0.54957(14) 0.77358(18) 0.5117(4)
H25_2 H 0.5607 0.7858 0.6045
C42_2 C 0.58069(12) 0.79081(16) 0.3969(3)
H26_2 H 0.6127 0.8140 0.4119
N1_5 N 0.66789(8) 0.86831(11) 0.6564(2)
N2_5 N 0.61054(8) 0.83526(11) 0.9051(2)
C1_2 C 0.82920(14) 0.92668(19) 0.1716(4)
H1_2 H 0.8498 0.9381 0.0917
C2_5 C 0.70010(10) 0.88341(14) 0.5468(3)
C3_5 C 0.69228(11) 0.91294(16) 0.4497(3)
H2_5 H 0.7097 0.9274 0.3653
C4_5 C 0.65577(12) 0.91624(16) 0.5014(3)
H3_5 H 0.6426 0.9336 0.4607
C5_5 C 0.64052(10) 0.88850(14) 0.6303(3)
C6_5 C 0.60424(10) 0.88428(13) 0.7172(3)
C7_5 C 0.57858(10) 0.90927(13) 0.6731(3)
C8_5 C 0.54545(12) 0.89231(16) 0.5639(3)
H4_5 H 0.5389 0.8645 0.5135
C9_5 C 0.52211(11) 0.91646(15) 0.5295(3)
H5_5 H 0.4997 0.9045 0.4543
C10_5 C 0.56122(11) 0.97169(15) 0.7017(3)
H6_5 H 0.5669 0.9993 0.7511
C11_5 C 0.58623(11) 0.94978(15) 0.7424(3)
H7_5 H 0.6086 0.9625 0.8178
C12_5 C 0.59027(10) 0.85909(13) 0.8442(3)
C13_5 C 0.55266(11) 0.85544(15) 0.9328(3)
H8_5 H 0.5332 0.8686 0.9134
C16_5 C 0.73698(10) 0.87415(13) 0.5335(3)
C17_5 C 0.76866(10) 0.89281(14) 0.4061(3)
C18_5 C 0.81569(12) 0.92766(18) 0.4225(4)
H10_5 H 0.8276 0.9402 0.5145
C19_2 C 0.84498(14) 0.94384(21) 0.3043(5)
H11_2 H 0.8770 0.9676 0.3166
C20_2 C 0.78377(14) 0.89308(18) 0.1549(4)
H12_2 H 0.7727 0.8808 0.0621
C21_2 C 0.75265(12) 0.87585(16) 0.2697(3)
H13_2 H 0.7207 0.8526 0.2547
N5_5 N 0.72280(8) 0.83140(11) 0.7615(2)
C27_5 C 0.72910(10) 0.78238(13) 0.9494(3)
C28_5 C 0.75476(10) 0.75739(13) 0.9935(3)
C31_4 C 0.77212(11) 0.69497(15) 0.9649(3)
H19_4 H 0.7665 0.6673 0.9155
C32_4 C 0.74711(11) 0.71688(15) 0.9242(3)
H20_4 H 0.7248 0.7041 0.8488
C33_5 C 0.74307(10) 0.80757(13) 0.8224(3)
C34_5 C 0.78068(11) 0.81122(15) 0.7338(3)
H21_4 H 0.8002 0.7980 0.7532
C35_5 C 0.78310(11) 0.83691(15) 0.6183(3)
H22_5 H 0.8046 0.8452 0.5410
C36_5 C 0.74685(10) 0.84924(13) 0.6346(3)
N7_5 N 0.71106(11) 0.90713(14) 0.9294(2)
N6_6 N 0.28894(11) 0.09287(8) 0.0706(2)
C29_6 C 0.22565(16) 0.01353(10) 0.1027(3)
C30_6 C 0.24980(15) 0.06102(10) 0.1371(3)
H18_6 H 0.2379 0.0715 0.2123
N1_6 N 0.13169(11) 0.79957(7) 0.6564(2)
N2_6 N 0.16474(11) 0.77527(7) 0.9051(2)
C1_3 C 0.07332(19) 0.90251(13) 0.1716(4)
H1_3 H 0.0619 0.9116 0.0917
C2_6 C 0.11659(14) 0.81668(10) 0.5468(3)
C3_6 C 0.08706(16) 0.77933(11) 0.4497(3)
H2_6 H 0.0726 0.7822 0.3653
C4_6 C 0.08376(16) 0.73952(10) 0.5014(3)
H3_6 H 0.0664 0.7089 0.4607
C5_6 C 0.11150(14) 0.75201(10) 0.6303(3)
C6_6 C 0.11572(13) 0.71995(9) 0.7172(3)
C7_6 C 0.09073(13) 0.66930(9) 0.6731(3)
C8_6 C 0.10769(16) 0.65313(10) 0.5639(3)
H4_6 H 0.1355 0.6743 0.5135
C9_6 C 0.08354(15) 0.60564(10) 0.5295(3)
H5_6 H 0.0955 0.5951 0.4543
C10_6 C 0.02831(15) 0.58952(10) 0.7017(3)
H6_6 H 0.0007 0.5675 0.7511
C11_6 C 0.05022(15) 0.63644(10) 0.7424(3)
H7_6 H 0.0375 0.6460 0.8178
C12_6 C 0.14091(13) 0.73117(9) 0.8442(3)
C13_6 C 0.14456(15) 0.69721(10) 0.9328(3)
H8_6 H 0.1314 0.6645 0.9134
C16_6 C 0.12585(13) 0.86282(9) 0.5335(3)
C17_6 C 0.10719(14) 0.87584(10) 0.4061(3)
C18_6 C 0.07234(18) 0.88802(13) 0.4225(4)
H10_6 H 0.0598 0.8873 0.5145
C19_3 C 0.05616(21) 0.90113(16) 0.3043(5)
H11_3 H 0.0324 0.9093 0.3166
C20_3 C 0.10692(18) 0.89068(12) 0.1549(4)
H12_3 H 0.1192 0.8918 0.0621
C21_3 C 0.12415(16) 0.87679(11) 0.2697(3)
H13_3 H 0.1474 0.8680 0.2547
N5_6 N 0.16860(11) 0.89139(7) 0.7615(2)
C27_6 C 0.21762(13) 0.94671(9) 0.9494(3)
C28_6 C 0.24261(13) 0.99736(9) 0.9935(3)
C33_6 C 0.19243(13) 0.93549(9) 0.8224(3)
C34_6 C 0.18878(15) 0.96945(10) 0.7338(3)
C35_6 C 0.16309(15) 0.94618(10) 0.6183(3)
H22_6 H 0.1548 0.9593 0.5410
C36_6 C 0.15076(13) 0.89760(9) 0.6346(3)
N7_6 N 0.09287(14) 0.80394(8) 0.9294(2)
C8_7 C 0.01353(10) 0.78789(12) 0.8973(3)
C9_7 C 0.06102(10) 0.81123(11) 0.8629(3)
H5_7 H 0.0715 0.8337 0.7877
N2_7 N 0.89139(7) 0.72280(8) 0.2385(2)
C6_7 C 0.94671(9) 0.72910(10) 0.0506(3)
C7_7 C 0.99736(9) 0.75476(10) 0.0065(3)
C12_7 C 0.93549(9) 0.74307(10) 0.1776(3)
C13_7 C 0.96945(10) 0.78068(11) 0.2662(3)
C14_5 C 0.94618(10) 0.78310(11) 0.3817(3)
H9_5 H 0.9593 0.8046 0.4590
C15_5 C 0.89760(9) 0.74685(10) 0.3654(3)
N4_5 N 0.79957(7) 0.66789(8) 0.3436(2)
N5_7 N 0.77527(7) 0.61054(8) 0.0949(2)
C22_3 C 0.90251(13) 0.82920(14) 0.8284(4)
H14_3 H 0.9116 0.8498 0.9083
C23_5 C 0.81668(10) 0.70010(10) 0.4532(3)
C24_5 C 0.77933(11) 0.69228(11) 0.5503(3)
H15_5 H 0.7822 0.7097 0.6347
C25_5 C 0.73952(10) 0.65577(12) 0.4986(3)
H16_5 H 0.7089 0.6426 0.5393
C26_5 C 0.75201(10) 0.64052(10) 0.3697(3)
C27_7 C 0.71995(9) 0.60424(10) 0.2828(3)
C28_7 C 0.66930(9) 0.57858(10) 0.3269(3)
C29_7 C 0.65313(10) 0.54545(12) 0.4361(3)
H17_5 H 0.6743 0.5389 0.4865
C30_7 C 0.60564(10) 0.52211(11) 0.4705(3)
H18_7 H 0.5951 0.4997 0.5457
C31_5 C 0.58952(10) 0.56122(11) 0.2983(3)
H19_5 H 0.5675 0.5669 0.2489
C32_5 C 0.63644(10) 0.58623(11) 0.2576(3)
H20_5 H 0.6460 0.6086 0.1822
C33_7 C 0.73117(9) 0.59027(10) 0.1558(3)
C34_7 C 0.69721(10) 0.55266(11) 0.0672(3)
H21_5 H 0.6645 0.5332 0.0866
C37_5 C 0.86282(9) 0.73698(10) 0.4665(3)
C38_5 C 0.87584(10) 0.76866(10) 0.5939(3)
C39_5 C 0.88802(13) 0.81569(12) 0.5775(4)
H23_5 H 0.8873 0.8276 0.4855
C40_3 C 0.90113(16) 0.84498(14) 0.6957(5)
H24_3 H 0.9093 0.8770 0.6834
C41_3 C 0.89068(12) 0.78377(14) 0.8451(4)
H25_3 H 0.8918 0.7727 0.9379
C42_3 C 0.87679(11) 0.75265(12) 0.7303(3)
H26_3 H 0.8680 0.7207 0.7453
N2_8 N 0.27720(8) 0.16860(11) 0.2385(2)
C6_8 C 0.27090(10) 0.21762(13) 0.0506(3)
C7_8 C 0.24524(10) 0.24261(13) 0.0065(3)
C10_7 C 0.22788(11) 0.30503(15) 0.0351(3)
H6_7 H 0.2335 0.3327 0.0845
C11_7 C 0.25289(11) 0.28312(15) 0.0758(3)
H7_7 H 0.2752 0.2959 0.1512
C12_8 C 0.25693(10) 0.19243(13) 0.1776(3)
C13_8 C 0.21932(11) 0.18878(15) 0.2662(3)
H8_7 H 0.1998 0.2020 0.2468
C14_6 C 0.21690(11) 0.16309(15) 0.3817(3)
H9_6 H 0.1954 0.1548 0.4590
C15_6 C 0.25315(10) 0.15076(13) 0.3654(3)
N4_6 N 0.33211(8) 0.13169(11) 0.3436(2)
N5_8 N 0.38946(8) 0.16474(11) 0.0949(2)
C22_4 C 0.17080(14) 0.07332(19) 0.8284(4)
H14_4 H 0.1502 0.0619 0.9083
C23_6 C 0.29990(10) 0.11659(14) 0.4532(3)
C24_6 C 0.30772(11) 0.08706(16) 0.5503(3)
H15_6 H 0.2903 0.0726 0.6347
C25_6 C 0.34423(12) 0.08376(16) 0.4986(3)
H16_6 H 0.3574 0.0664 0.5393
C26_6 C 0.35948(10) 0.11150(14) 0.3697(3)
C27_8 C 0.39576(10) 0.11572(13) 0.2828(3)
C28_8 C 0.42142(10) 0.09073(13) 0.3269(3)
C29_8 C 0.45455(12) 0.10769(16) 0.4361(3)
H17_6 H 0.4611 0.1355 0.4865
C30_8 C 0.47789(11) 0.08354(15) 0.4705(3)
H18_8 H 0.5003 0.0955 0.5457
C31_6 C 0.43878(11) 0.02831(15) 0.2983(3)
H19_6 H 0.4331 0.0007 0.2489
C32_6 C 0.41377(11) 0.05022(15) 0.2576(3)
H20_6 H 0.3914 0.0375 0.1822
C33_8 C 0.40973(10) 0.14091(13) 0.1558(3)
C34_8 C 0.44734(11) 0.14456(15) 0.0672(3)
H21_6 H 0.4668 0.1314 0.0866
C37_6 C 0.26302(10) 0.12585(13) 0.4665(3)
C38_6 C 0.23134(10) 0.10719(14) 0.5939(3)
C39_6 C 0.18431(12) 0.07234(18) 0.5775(4)
H23_6 H 0.1724 0.0598 0.4855
C40_4 C 0.15502(14) 0.05616(21) 0.6957(5)
H24_4 H 0.1230 0.0324 0.6834
C41_4 C 0.21623(14) 0.10692(18) 0.8451(4)
H25_4 H 0.2273 0.1192 0.9379
C42_4 C 0.24735(12) 0.12415(16) 0.7303(3)
H26_4 H 0.2793 0.1474 0.7453
N1_7 N 0.33455(8) 0.20165(11) 0.9898(2)
C1_4 C 0.49586(14) 0.26002(19) 0.5050(4)
H1_4 H 0.5164 0.2715 0.4251
C2_7 C 0.36676(10) 0.21675(14) 0.8802(3)
C3_7 C 0.35894(11) 0.24628(16) 0.7831(3)
H2_7 H 0.3763 0.2608 0.6987
C4_7 C 0.32243(12) 0.24958(16) 0.8348(3)
H3_7 H 0.3092 0.2670 0.7941
C5_7 C 0.30718(10) 0.22184(14) 0.9637(3)
C8_8 C 0.21211(12) 0.22565(16) 0.8973(3)
H4_7 H 0.2055 0.1979 0.8469
C9_8 C 0.18877(11) 0.24980(15) 0.8629(3)
H5_8 H 0.1663 0.2379 0.7877
C16_7 C 0.40364(10) 0.20749(13) 0.8669(3)
C17_7 C 0.43532(10) 0.22615(14) 0.7395(3)
C18_7 C 0.48235(12) 0.26100(18) 0.7559(4)
H10_7 H 0.4942 0.2736 0.8479
C19_4 C 0.51164(14) 0.27718(21) 0.6377(5)
H11_4 H 0.5436 0.3010 0.6500
C20_4 C 0.45043(14) 0.22642(18) 0.4883(4)
H12_4 H 0.4393 0.2142 0.3955
C21_4 C 0.41931(12) 0.20919(16) 0.6031(3)
H13_4 H 0.3873 0.1860 0.5881
C35_7 C 0.44976(11) 0.17025(15) 0.9517(3)
H22_7 H 0.4712 0.1786 0.8744
C36_7 C 0.41351(10) 0.18258(13) 0.9680(3)
N2_9 N 0.83140(11) 0.10861(7) 0.2385(2)
C6_9 C 0.78238(13) 0.05329(9) 0.0506(3)
C7_9 C 0.75739(13) 0.00264(9) 0.0065(3)
C12_9 C 0.80757(13) 0.06451(9) 0.1776(3)
C13_9 C 0.81122(15) 0.03055(10) 0.2662(3)
C14_7 C 0.83691(15) 0.05382(10) 0.3817(3)
H9_7 H 0.8452 0.0407 0.4590
C15_7 C 0.84924(13) 0.10240(9) 0.3654(3)
N4_7 N 0.86831(11) 0.20043(7) 0.3436(2)
N5_9 N 0.83526(11) 0.22473(7) 0.0949(2)
C22_5 C 0.92668(19) 0.09749(13) 0.8284(4)
H14_5 H 0.9381 0.0884 0.9083
C23_7 C 0.88341(14) 0.18332(10) 0.4532(3)
C24_7 C 0.91294(16) 0.22067(11) 0.5503(3)
H15_7 H 0.9274 0.2178 0.6347
C25_7 C 0.91624(16) 0.26048(10) 0.4986(3)
H16_7 H 0.9336 0.2911 0.5393
C26_7 C 0.88850(14) 0.24799(10) 0.3697(3)
C27_9 C 0.88428(13) 0.28005(9) 0.2828(3)
C28_9 C 0.90927(13) 0.33070(9) 0.3269(3)
C29_9 C 0.89231(16) 0.34687(10) 0.4361(3)
H17_7 H 0.8645 0.3257 0.4865
C30_9 C 0.91646(15) 0.39436(10) 0.4705(3)
H18_9 H 0.9045 0.4049 0.5457
C31_7 C 0.97169(15) 0.41048(10) 0.2983(3)
H19_7 H 0.9993 0.4325 0.2489
C32_7 C 0.94978(15) 0.36356(10) 0.2576(3)
H20_7 H 0.9625 0.3540 0.1822
C33_9 C 0.85909(13) 0.26883(9) 0.1558(3)
C34_9 C 0.85544(15) 0.30279(10) 0.0672(3)
H21_7 H 0.8686 0.3355 0.0866
C37_7 C 0.87415(13) 0.13718(9) 0.4665(3)
C38_7 C 0.89281(14) 0.12416(10) 0.5939(3)
C39_7 C 0.92766(18) 0.11198(13) 0.5775(4)
H23_7 H 0.9402 0.1127 0.4855
C40_5 C 0.94384(21) 0.09887(16) 0.6957(5)
H24_5 H 0.9676 0.0907 0.6834
C41_5 C 0.89308(18) 0.10932(12) 0.8451(4)
H25_5 H 0.8808 0.1082 0.9379
C42_5 C 0.87585(16) 0.12321(11) 0.7303(3)
H26_5 H 0.8526 0.1320 0.7453
C8_9 C 0.77435(16) 0.98647(10) 0.8973(3)
C9_9 C 0.75020(15) 0.93898(10) 0.8629(3)
H5_9 H 0.7621 0.9285 0.7877
C1_5 C 0.43082(13) 0.83747(14) 0.8383(4)
H1_5 H 0.4217 0.8169 0.7584
C19_5 C 0.43220(16) 0.82169(14) 0.9710(5)
H11_5 H 0.4240 0.7897 0.9833
C20_5 C 0.44265(12) 0.88290(14) 0.8216(4)
H12_5 H 0.4415 0.8940 0.7288
C21_5 C 0.45654(11) 0.91402(12) 0.9364(3)
H13_5 H 0.4653 0.9460 0.9214
C1_6 C 0.16253(14) 0.59335(19) 0.8383(4)
H1_6 H 0.1831 0.6048 0.7584
C19_6 C 0.17831(14) 0.61051(21) 0.9710(5)
H11_6 H 0.2103 0.6343 0.9833
C20_6 C 0.11710(14) 0.55975(18) 0.8216(4)
H12_6 H 0.1060 0.5475 0.7288
C21_6 C 0.08598(12) 0.54252(16) 0.9364(3)
H13_6 H 0.0540 0.5193 0.9214
C22_6 C 0.83747(14) 0.40665(19) 0.1617(4)
H14_6 H 0.8169 0.3952 0.2416
C40_6 C 0.82169(14) 0.38949(21) 0.0290(5)
H24_6 H 0.7897 0.3657 0.0167
C41_6 C 0.88290(14) 0.44025(18) 0.1784(4)
H25_6 H 0.8940 0.4525 0.2712
C42_6 C 0.91402(12) 0.45748(16) 0.0636(3)
H26_6 H 0.9460 0.4807 0.0786
C22_7 C 0.59335(19) 0.43082(13) 0.1617(4)
H14_7 H 0.6048 0.4217 0.2416
C40_7 C 0.61051(21) 0.43220(16) 0.0290(5)
H24_7 H 0.6343 0.4240 0.0167
C41_7 C 0.55975(18) 0.44265(12) 0.1784(4)
H25_7 H 0.5475 0.4415 0.2712
C42_7 C 0.54252(16) 0.45654(11) 0.0636(3)
H26_7 H 0.5193 0.4653 0.0786
C1_7 C 0.40665(19) 0.56918(13) 0.8383(4)
H1_7 H 0.3952 0.5783 0.7584
C19_7 C 0.38949(21) 0.56780(16) 0.9710(5)
H11_7 H 0.3657 0.5760 0.9833
C20_7 C 0.44025(18) 0.55735(12) 0.8216(4)
H12_7 H 0.4525 0.5585 0.7288
C21_7 C 0.45748(16) 0.54346(11) 0.9364(3)
H13_7 H 0.4807 0.5347 0.9214
C14_8 C 0.27952(10) 0.44976(11) 0.0483(3)
H9_8 H 0.2927 0.4712 0.1256
C15_8 C 0.23094(9) 0.41351(10) 0.0320(3)
N4_8 N 0.13291(7) 0.33455(8) 0.0102(2)
C22_8 C 0.23585(13) 0.49586(14) 0.4950(4)
H14_8 H 0.2450 0.5164 0.5749
C23_8 C 0.15002(10) 0.36676(10) 0.1198(3)
C24_8 C 0.11267(11) 0.35894(11) 0.2169(3)
H15_8 H 0.1156 0.3763 0.3013
C25_8 C 0.07286(10) 0.32243(12) 0.1652(3)
H16_8 H 0.0423 0.3092 0.2059
C26_8 C 0.08535(10) 0.30718(10) 0.0363(3)
H17_8 H 0.0077 0.2055 0.1531
C37_8 C 0.19616(9) 0.40364(10) 0.1331(3)
C38_8 C 0.20918(10) 0.43532(10) 0.2605(3)
C39_8 C 0.22136(13) 0.48235(12) 0.2441(4)
H23_8 H 0.2207 0.4942 0.1521
C40_8 C 0.23447(16) 0.51164(14) 0.3623(5)
H24_8 H 0.2427 0.5436 0.3500
C41_8 C 0.22402(12) 0.45043(14) 0.5117(4)
H25_8 H 0.2252 0.4393 0.6045
C42_8 C 0.21013(11) 0.41931(12) 0.3969(3)
H26_8 H 0.2014 0.3873 0.4119
C31_8 C 0.92286(10) 0.22788(11) 0.9649(3)
H19_8 H 0.9009 0.2335 0.9155
C32_8 C 0.96978(10) 0.25289(11) 0.9242(3)
H20_8 H 0.9794 0.2752 0.8488
H21_8 H 0.9979 0.1998 0.7532
C31_9 C 0.30503(15) 0.07714(10) 0.9649(3)
H19_9 H 0.3327 0.0991 0.9155
C32_9 C 0.28312(15) 0.03022(10) 0.9242(3)
H20_9 H 0.2959 0.0206 0.8488
H21_9 H 0.2020 0.0021 0.7532
C14_9 C 0.17025(15) 0.72048(10) 0.0483(3)
H9_9 H 0.1786 0.7073 0.1256
C15_9 C 0.18258(13) 0.76906(9) 0.0320(3)
N4_9 N 0.20165(11) 0.86709(7) 0.0102(2)
C22_9 C 0.26002(19) 0.76415(13) 0.4950(4)
H14_9 H 0.2715 0.7550 0.5749
C23_9 C 0.21675(14) 0.84998(10) 0.1198(3)
C24_9 C 0.24628(16) 0.88733(11) 0.2169(3)
H15_9 H 0.2608 0.8844 0.3013
C25_9 C 0.24958(16) 0.92714(10) 0.1652(3)
H16_9 H 0.2670 0.9577 0.2059
C26_9 C 0.22184(14) 0.91465(10) 0.0363(3)
H17_9 H 0.1979 0.9923 0.1531
C37_9 C 0.20749(13) 0.80384(9) 0.1331(3)
C38_9 C 0.22615(14) 0.79082(10) 0.2605(3)
C39_9 C 0.26100(18) 0.77864(13) 0.2441(4)
H23_9 H 0.2736 0.7793 0.1521
C40_9 C 0.27718(21) 0.76553(16) 0.3623(5)
H24_9 H 0.3010 0.7573 0.3500
C41_9 C 0.22642(18) 0.77598(12) 0.5117(4)
H25_9 H 0.2142 0.7748 0.6045
C42_9 C 0.20919(16) 0.78987(11) 0.3969(3)
H26_9 H 0.1860 0.7986 0.4119
C10_8 C 0.07714(10) 0.77212(11) 0.0351(3)
H6_8 H 0.0991 0.7665 0.0845
C11_8 C 0.03022(10) 0.74711(11) 0.0758(3)
H7_8 H 0.0206 0.7248 0.1512
H8_8 H 0.0021 0.8002 0.2468
N1_8 N 0.86709(7) 0.66545(8) 0.9898(2)
C1_8 C 0.76415(13) 0.50414(14) 0.5050(4)
H1_8 H 0.7550 0.4836 0.4251
C2_8 C 0.84998(10) 0.63324(10) 0.8802(3)
C3_8 C 0.88733(11) 0.64106(11) 0.7831(3)
H2_8 H 0.8844 0.6237 0.6987
C4_8 C 0.92714(10) 0.67757(12) 0.8348(3)
H3_8 H 0.9577 0.6908 0.7941
C5_8 C 0.91465(10) 0.69282(10) 0.9637(3)
H4_8 H 0.9923 0.7945 0.8469
C16_8 C 0.80384(9) 0.59636(10) 0.8669(3)
C17_8 C 0.79082(10) 0.56468(10) 0.7395(3)
C18_8 C 0.77864(13) 0.51765(12) 0.7559(4)
H10_8 H 0.7793 0.5058 0.8479
C19_8 C 0.76553(16) 0.48836(14) 0.6377(5)
H11_8 H 0.7573 0.4564 0.6500
C20_8 C 0.77598(12) 0.54957(14) 0.4883(4)
H12_8 H 0.7748 0.5607 0.3955
C21_8 C 0.78987(11) 0.58069(12) 0.6031(3)
H13_8 H 0.7986 0.6127 0.5881
C35_8 C 0.72048(10) 0.55024(11) 0.9517(3)
H22_8 H 0.7073 0.5288 0.8744
C36_8 C 0.76906(9) 0.58649(10) 0.9680(3)
N1_9 N 0.79835(11) 0.13291(7) 0.9898(2)
C1_9 C 0.73998(19) 0.23585(13) 0.5050(4)
H1_9 H 0.7285 0.2450 0.4251
C2_9 C 0.78325(14) 0.15002(10) 0.8802(3)
C3_9 C 0.75372(16) 0.11267(11) 0.7831(3)
H2_9 H 0.7392 0.1156 0.6987
C4_9 C 0.75042(16) 0.07286(10) 0.8348(3)
H3_9 H 0.7330 0.0423 0.7941
C5_9 C 0.77816(14) 0.08535(10) 0.9637(3)
H4_9 H 0.8021 0.0077 0.8469
C16_9 C 0.79251(13) 0.19616(9) 0.8669(3)
C17_9 C 0.77385(14) 0.20918(10) 0.7395(3)
C18_9 C 0.73900(18) 0.22136(13) 0.7559(4)
H10_9 H 0.7264 0.2207 0.8479
C19_9 C 0.72282(21) 0.23447(16) 0.6377(5)
H11_9 H 0.6990 0.2427 0.6500
C20_9 C 0.77358(18) 0.22402(12) 0.4883(4)
H12_9 H 0.7858 0.2252 0.3955
C21_9 C 0.79081(16) 0.21013(11) 0.6031(3)
H13_9 H 0.8140 0.2014 0.5881
C35_9 C 0.82975(15) 0.27952(10) 0.9517(3)
H22_9 H 0.8214 0.2927 0.8744
C36_9 C 0.81742(13) 0.23094(9) 0.9680(3)
C10_9 C 0.69497(15) 0.92286(10) 0.0351(3)
H6_9 H 0.6673 0.9009 0.0845
C11_9 C 0.71688(15) 0.96978(10) 0.0758(3)
H7_9 H 0.7041 0.9794 0.1512
H8_9 H 0.7980 0.9979 0.2468
loop_
_geom_bond_atom_site_label_1
_geom_bond_atom_site_label_2
_geom_bond_site_symmetry_1
_geom_bond_site_symmetry_2
C22 H14 1_555 1_555
C40 C22 1_555 1_555
H24 C40 1_555 1_555
C41 C22 1_555 1_555
H25 C41 1_555 1_555
H26 C42 1_555 1_555
C41 C42 1_555 1_555
N2 Co1 1_555 1_555
N3 C9 1_555 1_555
H3 C4 1_555 1_555
C6 C5 1_555 1_555
C7 C6 1_555 1_555
C8 C7 1_555 1_555
H4 C8 1_555 1_555
C9 C8 1_555 1_555
H5 C9 1_555 1_555
C10 N3 1_555 1_555
H6 C10 1_555 1_555
C11 C7 1_555 1_555
H7 C11 1_555 1_555
C12 N2 1_555 1_555
C13 C12 1_555 1_555
H8 C13 1_555 1_555
C14 C13 1_555 1_555
H9 C14 1_555 1_555
C15 N2 1_555 1_555
N4 Co1 1_555 1_555
C23 N4 1_555 1_555
C24 C23 1_555 1_555
H15 C24 1_555 1_555
C37 C15 1_555 1_555
C38 C37 1_555 1_555
C39 C38 1_555 1_555
H23 C39 1_555 1_555
Co3 N3 1_555 1_555
N8 Co1 1_555 1_555
C4 C5 1_555 1_555
C6 C12 1_555 1_555
C10 C11 1_555 1_555
C14 C15 1_555 1_555
C23 C37 1_555 1_555
Co1_2 N1 1_555 1_555
N1 C2 1_555 1_555
C2 C3 1_555 1_555
C3 H2 1_555 1_555
C16 C2 1_555 1_555
C17 C16 1_555 1_555
C18 C17 1_555 1_555
H10 C18 1_555 1_555
N5 Co1_2 1_555 1_555
N6 C30 1_555 1_555
H16 C25 1_555 1_555
C27 C26 1_555 1_555
C28 C27 1_555 1_555
C29 C28 1_555 1_555
H17 C29 1_555 1_555
C30 C29 1_555 1_555
H18 C30 1_555 1_555
C31 N6 1_555 1_555
H19 C31 1_555 1_555
C32 C28 1_555 1_555
H20 C32 1_555 1_555
C33 N5 1_555 1_555
C34 C33 1_555 1_555
H21 C34 1_555 1_555
C35 C34 1_555 1_555
H22 C35 1_555 1_555
C36 C16 1_555 1_555
Co2 N6 1_555 1_555
N7 Co1_2 1_555 1_555
N5 C36 1_555 1_555
C25 C26 1_555 1_555
C27 C33 1_555 1_555
C31 C32 1_555 1_555
C35 C36 1_555 1_555
Co1_3 N1_2 1_555 1_555
N1_2 C2_2 1_555 1_555
C2_2 C3_2 1_555 1_555
C3_2 H2_2 1_555 1_555
C16_2 C2_2 1_555 1_555
C17_2 C16_2 1_555 1_555
C18_2 C17_2 1_555 1_555
H10_2 C18_2 1_555 1_555
N5_2 Co1_3 1_555 1_555
N6_2 C30_2 1_555 1_555
H16_2 C25_2 1_555 1_555
C27_2 C26_2 1_555 1_555
C28_2 C27_2 1_555 1_555
C29_2 C28_2 1_555 1_555
H17_2 C29_2 1_555 1_555
C30_2 C29_2 1_555 1_555
H18_2 C30_2 1_555 1_555
C31_2 N6_2 1_555 1_555
H19_2 C31_2 1_555 1_555
C32_2 C28_2 1_555 1_555
H20_2 C32_2 1_555 1_555
C33_2 N5_2 1_555 1_555
C34_2 C33_2 1_555 1_555
H21_2 C34_2 1_555 1_555
C35_2 C34_2 1_555 1_555
H22_2 C35_2 1_555 1_555
C36_2 C16_2 1_555 1_555
Co2_2 N6_2 1_555 1_555
N7_2 Co1_3 1_555 1_555
N5_2 C36_2 1_555 1_555
C25_2 C26_2 1_555 1_555
C27_2 C33_2 1_555 1_555
C31_2 C32_2 1_555 1_555
C35_2 C36_2 1_555 1_555
N2_2 Co1_4 1_555 1_555
N3_2 C9_2 1_555 1_555
H3_2 C4_2 1_555 1_555
C6_2 C5_2 1_555 1_555
C7_2 C6_2 1_555 1_555
C8_2 C7_2 1_555 1_555
H4_2 C8_2 1_555 1_555
C9_2 C8_2 1_555 1_555
H5_2 C9_2 1_555 1_555
C10_2 N3_2 1_555 1_555
H6_2 C10_2 1_555 1_555
C11_2 C7_2 1_555 1_555
H7_2 C11_2 1_555 1_555
C12_2 N2_2 1_555 1_555
C13_2 C12_2 1_555 1_555
H8_2 C13_2 1_555 1_555
C14_2 C13_2 1_555 1_555
H9_2 C14_2 1_555 1_555
C15_2 N2_2 1_555 1_555
N4_2 Co1_4 1_555 1_555
C23_2 N4_2 1_555 1_555
C24_2 C23_2 1_555 1_555
H15_2 C24_2 1_555 1_555
C37_2 C15_2 1_555 1_555
C38_2 C37_2 1_555 1_555
C39_2 C38_2 1_555 1_555
H23_2 C39_2 1_555 1_555
Co3_2 N3_2 1_555 1_555
N8_2 Co1_4 1_555 1_555
C4_2 C5_2 1_555 1_555
C6_2 C12_2 1_555 1_555
C10_2 C11_2 1_555 1_555
C14_2 C15_2 1_555 1_555
C23_2 C37_2 1_555 1_555
Co1_5 N1_3 1_555 1_555
N1_3 C2_3 1_555 1_555
N2_3 Co1_5 1_555 1_555
N3_3 C9_3 1_555 1_555
C2_3 C3_3 1_555 1_555
C3_3 H2_3 1_555 1_555
C4_3 C3_3 1_555 1_555
H3_3 C4_3 1_555 1_555
C5_3 N1_3 1_555 1_555
C6_3 C5_3 1_555 1_555
C7_3 C6_3 1_555 1_555
C8_3 C7_3 1_555 1_555
H4_3 C8_3 1_555 1_555
C9_3 C8_3 1_555 1_555
H5_3 C9_3 1_555 1_555
C10_3 N3_3 1_555 1_555
H6_3 C10_3 1_555 1_555
C11_3 C7_3 1_555 1_555
H7_3 C11_3 1_555 1_555
C12_3 N2_3 1_555 1_555
C13_3 C12_3 1_555 1_555
H8_3 C13_3 1_555 1_555
C14_3 C13_3 1_555 1_555
H9_3 C14_3 1_555 1_555
C15_3 N2_3 1_555 1_555
C16_3 C2_3 1_555 1_555
C17_3 C16_3 1_555 1_555
C18_3 C17_3 1_555 1_555
H10_3 C18_3 1_555 1_555
N4_3 Co1_5 1_555 1_555
N5_3 Co1_5 1_555 1_555
N6_3 C30_3 1_555 1_555
C23_3 N4_3 1_555 1_555
C24_3 C23_3 1_555 1_555
H15_3 C24_3 1_555 1_555
C25_3 C24_3 1_555 1_555
H16_3 C25_3 1_555 1_555
C26_3 N4_3 1_555 1_555
C27_3 C26_3 1_555 1_555
C28_3 C27_3 1_555 1_555
C29_3 C28_3 1_555 1_555
H17_3 C29_3 1_555 1_555
C30_3 C29_3 1_555 1_555
H18_3 C30_3 1_555 1_555
C31_3 N6_3 1_555 1_555
H19_3 C31_3 1_555 1_555
C32_3 C28_3 1_555 1_555
H20_3 C32_3 1_555 1_555
C33_3 N5_3 1_555 1_555
C34_3 C33_3 1_555 1_555
H21_3 C34_3 1_555 1_555
C35_3 C34_3 1_555 1_555
H22_3 C35_3 1_555 1_555
C36_3 C16_3 1_555 1_555
C37_3 C15_3 1_555 1_555
C38_3 C37_3 1_555 1_555
C39_3 C38_3 1_555 1_555
H23_3 C39_3 1_555 1_555
Co2_3 N6_3 1_555 1_555
Co3_3 N3_3 1_555 1_555
N7_3 Co1_5 1_555 1_555
N8_3 Co1_5 1_555 1_555
C4_3 C5_3 1_555 1_555
C6_3 C12_3 1_555 1_555
C10_3 C11_3 1_555 1_555
C14_3 C15_3 1_555 1_555
N5_3 C36_3 1_555 1_555
C23_3 C37_3 1_555 1_555
C25_3 C26_3 1_555 1_555
C27_3 C33_3 1_555 1_555
C31_3 C32_3 1_555 1_555
C35_3 C36_3 1_555 1_555
Co2_2 N1_4 1_555 1_555
N1_4 C2_4 1_555 1_555
N2_4 Co2_2 1_555 1_555
N7_3 C9_4 1_555 1_555
C1 H1 1_555 1_555
C2_4 C3_4 1_555 1_555
C3_4 H2_4 1_555 1_555
C4_4 C3_4 1_555 1_555
H3_4 C4_4 1_555 1_555
C5_4 N1_4 1_555 1_555
C6_4 C5_4 1_555 1_555
C7_4 C6_4 1_555 1_555
C8_4 C7_4 1_555 1_555
H4_4 C8_4 1_555 1_555
C9_4 C8_4 1_555 1_555
H5_4 C9_4 1_555 1_555
C10_4 N7_3 1_555 1_555
H6_4 C10_4 1_555 1_555
C11_4 C7_4 1_555 1_555
H7_4 C11_4 1_555 1_555
C12_4 N2_4 1_555 1_555
C13_4 C12_4 1_555 1_555
H8_4 C13_4 1_555 1_555
C16_4 C2_4 1_555 1_555
C17_4 C16_4 1_555 1_555
C18_4 C17_4 1_555 1_555
H10_4 C18_4 1_555 1_555
C19 C1 1_555 1_555
H11 C19 1_555 1_555
C20 C1 1_555 1_555
H12 C20 1_555 1_555
C21 C17_4 1_555 1_555
H13 C21 1_555 1_555
N5_4 Co2_2 1_555 1_555
C28_4 C27_4 1_555 1_555
C33_4 N5_4 1_555 1_555
C34_4 C33_4 1_555 1_555
C35_4 C34_4 1_555 1_555
H22_4 C35_4 1_555 1_555
C36_4 C16_4 1_555 1_555
N7_4 Co2_2 1_555 1_555
C4_4 C5_4 1_555 1_555
C6_4 C12_4 1_555 1_555
C10_4 C11_4 1_555 1_555
C18_4 C19 1_555 1_555
C20 C21 1_555 1_555
N5_4 C36_4 1_555 1_555
C27_4 C33_4 1_555 1_555
C35_4 C36_4 1_555 1_555
N6_4 C30_4 1_555 1_555
C30_4 C29_4 1_555 1_555
H18_4 C30_4 1_555 1_555
Co3 N6_4 1_555 1_555
H9_4 C14_4 1_555 1_555
N6_5 C30_5 1_555 1_555
C22_2 H14_2 1_555 1_555
C23_4 N4_4 1_555 1_555
C24_4 C23_4 1_555 1_555
H15_4 C24_4 1_555 1_555
C25_4 C24_4 1_555 1_555
H16_4 C25_4 1_555 1_555
C26_4 N4_4 1_555 1_555
H17_4 C29_5 1_555 1_555
C30_5 C29_5 1_555 1_555
H18_5 C30_5 1_555 1_555
C37_4 C15_4 1_555 1_555
C38_4 C37_4 1_555 1_555
C39_4 C38_4 1_555 1_555
H23_4 C39_4 1_555 1_555
C40_2 C22_2 1_555 1_555
H24_2 C40_2 1_555 1_555
C41_2 C22_2 1_555 1_555
H25_2 C41_2 1_555 1_555
C42_2 C38_4 1_555 1_555
H26_2 C42_2 1_555 1_555
Co3_2 N6_5 1_555 1_555
C14_4 C15_4 1_555 1_555
C23_4 C37_4 1_555 1_555
C25_4 C26_4 1_555 1_555
C39_4 C40_2 1_555 1_555
C41_2 C42_2 1_555 1_555
Co2_3 N1_5 1_555 1_555
N1_5 C2_5 1_555 1_555
N2_5 Co2_3 1_555 1_555
N7 C9_5 1_555 1_555
C1_2 H1_2 1_555 1_555
C2_5 C3_5 1_555 1_555
C3_5 H2_5 1_555 1_555
C4_5 C3_5 1_555 1_555
H3_5 C4_5 1_555 1_555
C5_5 N1_5 1_555 1_555
C6_5 C5_5 1_555 1_555
C7_5 C6_5 1_555 1_555
C8_5 C7_5 1_555 1_555
H4_5 C8_5 1_555 1_555
C9_5 C8_5 1_555 1_555
H5_5 C9_5 1_555 1_555
C10_5 N7 1_555 1_555
H6_5 C10_5 1_555 1_555
C11_5 C7_5 1_555 1_555
H7_5 C11_5 1_555 1_555
C12_5 N2_5 1_555 1_555
C13_5 C12_5 1_555 1_555
H8_5 C13_5 1_555 1_555
C16_5 C2_5 1_555 1_555
C17_5 C16_5 1_555 1_555
C18_5 C17_5 1_555 1_555
H10_5 C18_5 1_555 1_555
C19_2 C1_2 1_555 1_555
H11_2 C19_2 1_555 1_555
C20_2 C1_2 1_555 1_555
H12_2 C20_2 1_555 1_555
C21_2 C17_5 1_555 1_555
H13_2 C21_2 1_555 1_555
N5_5 Co2_3 1_555 1_555
C28_5 C27_5 1_555 1_555
H19_4 C31_4 1_555 1_555
C32_4 C28_5 1_555 1_555
H20_4 C32_4 1_555 1_555
C33_5 N5_5 1_555 1_555
C34_5 C33_5 1_555 1_555
H21_4 C34_5 1_555 1_555
C35_5 C34_5 1_555 1_555
H22_5 C35_5 1_555 1_555
C36_5 C16_5 1_555 1_555
N7_5 Co2_3 1_555 1_555
C4_5 C5_5 1_555 1_555
C6_5 C12_5 1_555 1_555
C10_5 C11_5 1_555 1_555
C18_5 C19_2 1_555 1_555
C20_2 C21_2 1_555 1_555
N5_5 C36_5 1_555 1_555
C27_5 C33_5 1_555 1_555
C31_4 C32_4 1_555 1_555
C35_5 C36_5 1_555 1_555
N6_6 C30_6 1_555 1_555
C30_6 C29_6 1_555 1_555
H18_6 C30_6 1_555 1_555
Co3_3 N6_6 1_555 1_555
Co2 N1_6 1_555 1_555
N1_6 C2_6 1_555 1_555
N2_6 Co2 1_555 1_555
N7_2 C9_6 1_555 1_555
C1_3 H1_3 1_555 1_555
C2_6 C3_6 1_555 1_555
C3_6 H2_6 1_555 1_555
C4_6 C3_6 1_555 1_555
H3_6 C4_6 1_555 1_555
C5_6 N1_6 1_555 1_555
C6_6 C5_6 1_555 1_555
C7_6 C6_6 1_555 1_555
C8_6 C7_6 1_555 1_555
H4_6 C8_6 1_555 1_555
C9_6 C8_6 1_555 1_555
H5_6 C9_6 1_555 1_555
C10_6 N7_2 1_555 1_555
H6_6 C10_6 1_555 1_555
C11_6 C7_6 1_555 1_555
H7_6 C11_6 1_555 1_555
C12_6 N2_6 1_555 1_555
C13_6 C12_6 1_555 1_555
H8_6 C13_6 1_555 1_555
C16_6 C2_6 1_555 1_555
C17_6 C16_6 1_555 1_555
C18_6 C17_6 1_555 1_555
H10_6 C18_6 1_555 1_555
C19_3 C1_3 1_555 1_555
H11_3 C19_3 1_555 1_555
C20_3 C1_3 1_555 1_555
H12_3 C20_3 1_555 1_555
C21_3 C17_6 1_555 1_555
H13_3 C21_3 1_555 1_555
N5_6 Co2 1_555 1_555
C28_6 C27_6 1_555 1_555
C33_6 N5_6 1_555 1_555
C34_6 C33_6 1_555 1_555
C35_6 C34_6 1_555 1_555
H22_6 C35_6 1_555 1_555
C36_6 C16_6 1_555 1_555
N7_6 Co2 1_555 1_555
C4_6 C5_6 1_555 1_555
C6_6 C12_6 1_555 1_555
C10_6 C11_6 1_555 1_555
C18_6 C19_3 1_555 1_555
C20_3 C21_3 1_555 1_555
N5_6 C36_6 1_555 1_555
C27_6 C33_6 1_555 1_555
C35_6 C36_6 1_555 1_555
N7_6 C9_7 1_555 1_555
C9_7 C8_7 1_555 1_555
H5_7 C9_7 1_555 1_555
N2_7 Co3_2 1_555 1_555
C7_7 C6_7 1_555 1_555
C12_7 N2_7 1_555 1_555
C13_7 C12_7 1_555 1_555
C14_5 C13_7 1_555 1_555
H9_5 C14_5 1_555 1_555
C15_5 N2_7 1_555 1_555
N4_5 Co3_2 1_555 1_555
N5_7 Co3_2 1_555 1_555
N8_3 C30_7 1_555 1_555
C22_3 H14_3 1_555 1_555
C23_5 N4_5 1_555 1_555
C24_5 C23_5 1_555 1_555
H15_5 C24_5 1_555 1_555
C25_5 C24_5 1_555 1_555
H16_5 C25_5 1_555 1_555
C26_5 N4_5 1_555 1_555
C27_7 C26_5 1_555 1_555
C28_7 C27_7 1_555 1_555
C29_7 C28_7 1_555 1_555
H17_5 C29_7 1_555 1_555
C30_7 C29_7 1_555 1_555
H18_7 C30_7 1_555 1_555
C31_5 N8_3 1_555 1_555
H19_5 C31_5 1_555 1_555
C32_5 C28_7 1_555 1_555
H20_5 C32_5 1_555 1_555
C33_7 N5_7 1_555 1_555
C34_7 C33_7 1_555 1_555
H21_5 C34_7 1_555 1_555
C37_5 C15_5 1_555 1_555
C38_5 C37_5 1_555 1_555
C39_5 C38_5 1_555 1_555
H23_5 C39_5 1_555 1_555
C40_3 C22_3 1_555 1_555
H24_3 C40_3 1_555 1_555
C41_3 C22_3 1_555 1_555
H25_3 C41_3 1_555 1_555
C42_3 C38_5 1_555 1_555
H26_3 C42_3 1_555 1_555
C6_7 C12_7 1_555 1_555
C14_5 C15_5 1_555 1_555
C23_5 C37_5 1_555 1_555
C25_5 C26_5 1_555 1_555
C27_7 C33_7 1_555 1_555
C31_5 C32_5 1_555 1_555
C39_5 C40_3 1_555 1_555
C41_3 C42_3 1_555 1_555
N2_8 Co3_3 1_555 1_555
C7_8 C6_8 1_555 1_555
H6_7 C10_7 1_555 1_555
C11_7 C7_8 1_555 1_555
H7_7 C11_7 1_555 1_555
C12_8 N2_8 1_555 1_555
C13_8 C12_8 1_555 1_555
H8_7 C13_8 1_555 1_555
C14_6 C13_8 1_555 1_555
H9_6 C14_6 1_555 1_555
C15_6 N2_8 1_555 1_555
N4_6 Co3_3 1_555 1_555
N5_8 Co3_3 1_555 1_555
N8 C30_8 1_555 1_555
C22_4 H14_4 1_555 1_555
C23_6 N4_6 1_555 1_555
C24_6 C23_6 1_555 1_555
H15_6 C24_6 1_555 1_555
C25_6 C24_6 1_555 1_555
H16_6 C25_6 1_555 1_555
C26_6 N4_6 1_555 1_555
C27_8 C26_6 1_555 1_555
C28_8 C27_8 1_555 1_555
C29_8 C28_8 1_555 1_555
H17_6 C29_8 1_555 1_555
C30_8 C29_8 1_555 1_555
H18_8 C30_8 1_555 1_555
C31_6 N8 1_555 1_555
H19_6 C31_6 1_555 1_555
C32_6 C28_8 1_555 1_555
H20_6 C32_6 1_555 1_555
C33_8 N5_8 1_555 1_555
C34_8 C33_8 1_555 1_555
H21_6 C34_8 1_555 1_555
C37_6 C15_6 1_555 1_555
C38_6 C37_6 1_555 1_555
C39_6 C38_6 1_555 1_555
H23_6 C39_6 1_555 1_555
C40_4 C22_4 1_555 1_555
H24_4 C40_4 1_555 1_555
C41_4 C22_4 1_555 1_555
H25_4 C41_4 1_555 1_555
C42_4 C38_6 1_555 1_555
H26_4 C42_4 1_555 1_555
C6_8 C12_8 1_555 1_555
C10_7 C11_7 1_555 1_555
C14_6 C15_6 1_555 1_555
C23_6 C37_6 1_555 1_555
C25_6 C26_6 1_555 1_555
C27_8 C33_8 1_555 1_555
C31_6 C32_6 1_555 1_555
C39_6 C40_4 1_555 1_555
C41_4 C42_4 1_555 1_555
N1_7 C2_7 1_555 1_555
N7_4 C9_8 1_555 1_555
C1_4 H1_4 1_555 1_555
C2_7 C3_7 1_555 1_555
C3_7 H2_7 1_555 1_555
C4_7 C3_7 1_555 1_555
H3_7 C4_7 1_555 1_555
C5_7 N1_7 1_555 1_555
H4_7 C8_8 1_555 1_555
C9_8 C8_8 1_555 1_555
H5_8 C9_8 1_555 1_555
C16_7 C2_7 1_555 1_555
C17_7 C16_7 1_555 1_555
C18_7 C17_7 1_555 1_555
H10_7 C18_7 1_555 1_555
C19_4 C1_4 1_555 1_555
H11_4 C19_4 1_555 1_555
C20_4 C1_4 1_555 1_555
H12_4 C20_4 1_555 1_555
C21_4 C17_7 1_555 1_555
H13_4 C21_4 1_555 1_555
H22_7 C35_7 1_555 1_555
C36_7 C16_7 1_555 1_555
C4_7 C5_7 1_555 1_555
C18_7 C19_4 1_555 1_555
C20_4 C21_4 1_555 1_555
C35_7 C36_7 1_555 1_555
N2_9 Co3 1_555 1_555
C7_9 C6_9 1_555 1_555
C12_9 N2_9 1_555 1_555
C13_9 C12_9 1_555 1_555
C14_7 C13_9 1_555 1_555
H9_7 C14_7 1_555 1_555
C15_7 N2_9 1_555 1_555
N4_7 Co3 1_555 1_555
N5_9 Co3 1_555 1_555
N8_2 C30_9 1_555 1_555
C22_5 H14_5 1_555 1_555
C23_7 N4_7 1_555 1_555
C24_7 C23_7 1_555 1_555
H15_7 C24_7 1_555 1_555
C25_7 C24_7 1_555 1_555
H16_7 C25_7 1_555 1_555
C26_7 N4_7 1_555 1_555
C27_9 C26_7 1_555 1_555
C28_9 C27_9 1_555 1_555
C29_9 C28_9 1_555 1_555
H17_7 C29_9 1_555 1_555
C30_9 C29_9 1_555 1_555
H18_9 C30_9 1_555 1_555
C31_7 N8_2 1_555 1_555
H19_7 C31_7 1_555 1_555
C32_7 C28_9 1_555 1_555
H20_7 C32_7 1_555 1_555
C33_9 N5_9 1_555 1_555
C34_9 C33_9 1_555 1_555
H21_7 C34_9 1_555 1_555
C37_7 C15_7 1_555 1_555
C38_7 C37_7 1_555 1_555
C39_7 C38_7 1_555 1_555
H23_7 C39_7 1_555 1_555
C40_5 C22_5 1_555 1_555
H24_5 C40_5 1_555 1_555
C41_5 C22_5 1_555 1_555
H25_5 C41_5 1_555 1_555
C42_5 C38_7 1_555 1_555
H26_5 C42_5 1_555 1_555
C6_9 C12_9 1_555 1_555
C14_7 C15_7 1_555 1_555
C23_7 C37_7 1_555 1_555
C25_7 C26_7 1_555 1_555
C27_9 C33_9 1_555 1_555
C31_7 C32_7 1_555 1_555
C39_7 C40_5 1_555 1_555
C41_5 C42_5 1_555 1_555
N7_5 C9_9 1_555 1_555
C9_9 C8_9 1_555 1_555
H5_9 C9_9 1_555 1_555
C1_5 H1_5 1_555 1_555
C19_5 C1_5 1_555 1_555
H11_5 C19_5 1_555 1_555
C20_5 C1_5 1_555 1_555
H12_5 C20_5 1_555 1_555
H13_5 C21_5 1_555 1_555
C20_5 C21_5 1_555 1_555
C1_6 H1_6 1_555 1_555
C19_6 C1_6 1_555 1_555
H11_6 C19_6 1_555 1_555
C20_6 C1_6 1_555 1_555
H12_6 C20_6 1_555 1_555
H13_6 C21_6 1_555 1_555
C20_6 C21_6 1_555 1_555
C22_6 H14_6 1_555 1_555
C40_6 C22_6 1_555 1_555
H24_6 C40_6 1_555 1_555
C41_6 C22_6 1_555 1_555
H25_6 C41_6 1_555 1_555
H26_6 C42_6 1_555 1_555
C41_6 C42_6 1_555 1_555
C22_7 H14_7 1_555 1_555
C40_7 C22_7 1_555 1_555
H24_7 C40_7 1_555 1_555
C41_7 C22_7 1_555 1_555
H25_7 C41_7 1_555 1_555
H26_7 C42_7 1_555 1_555
C41_7 C42_7 1_555 1_555
C1_7 H1_7 1_555 1_555
C19_7 C1_7 1_555 1_555
H11_7 C19_7 1_555 1_555
C20_7 C1_7 1_555 1_555
H12_7 C20_7 1_555 1_555
H13_7 C21_7 1_555 1_555
C20_7 C21_7 1_555 1_555
H9_8 C14_8 1_555 1_555
C22_8 H14_8 1_555 1_555
C23_8 N4_8 1_555 1_555
C24_8 C23_8 1_555 1_555
H15_8 C24_8 1_555 1_555
C25_8 C24_8 1_555 1_555
H16_8 C25_8 1_555 1_555
C26_8 N4_8 1_555 1_555
C37_8 C15_8 1_555 1_555
C38_8 C37_8 1_555 1_555
C39_8 C38_8 1_555 1_555
H23_8 C39_8 1_555 1_555
C40_8 C22_8 1_555 1_555
H24_8 C40_8 1_555 1_555
C41_8 C22_8 1_555 1_555
H25_8 C41_8 1_555 1_555
C42_8 C38_8 1_555 1_555
H26_8 C42_8 1_555 1_555
C14_8 C15_8 1_555 1_555
C23_8 C37_8 1_555 1_555
C25_8 C26_8 1_555 1_555
C39_8 C40_8 1_555 1_555
C41_8 C42_8 1_555 1_555
H19_8 C31_8 1_555 1_555
H20_8 C32_8 1_555 1_555
C31_8 C32_8 1_555 1_555
H19_9 C31_9 1_555 1_555
H20_9 C32_9 1_555 1_555
C31_9 C32_9 1_555 1_555
H9_9 C14_9 1_555 1_555
C22_9 H14_9 1_555 1_555
C23_9 N4_9 1_555 1_555
C24_9 C23_9 1_555 1_555
H15_9 C24_9 1_555 1_555
C25_9 C24_9 1_555 1_555
H16_9 C25_9 1_555 1_555
C26_9 N4_9 1_555 1_555
C37_9 C15_9 1_555 1_555
C38_9 C37_9 1_555 1_555
C39_9 C38_9 1_555 1_555
H23_9 C39_9 1_555 1_555
C40_9 C22_9 1_555 1_555
H24_9 C40_9 1_555 1_555
C41_9 C22_9 1_555 1_555
H25_9 C41_9 1_555 1_555
C42_9 C38_9 1_555 1_555
H26_9 C42_9 1_555 1_555
C14_9 C15_9 1_555 1_555
C23_9 C37_9 1_555 1_555
C25_9 C26_9 1_555 1_555
C39_9 C40_9 1_555 1_555
C41_9 C42_9 1_555 1_555
H6_8 C10_8 1_555 1_555
H7_8 C11_8 1_555 1_555
C10_8 C11_8 1_555 1_555
N1_8 C2_8 1_555 1_555
C1_8 H1_8 1_555 1_555
C2_8 C3_8 1_555 1_555
C3_8 H2_8 1_555 1_555
C4_8 C3_8 1_555 1_555
H3_8 C4_8 1_555 1_555
C5_8 N1_8 1_555 1_555
C16_8 C2_8 1_555 1_555
C17_8 C16_8 1_555 1_555
C18_8 C17_8 1_555 1_555
H10_8 C18_8 1_555 1_555
C19_8 C1_8 1_555 1_555
H11_8 C19_8 1_555 1_555
C20_8 C1_8 1_555 1_555
H12_8 C20_8 1_555 1_555
C21_8 C17_8 1_555 1_555
H13_8 C21_8 1_555 1_555
H22_8 C35_8 1_555 1_555
C36_8 C16_8 1_555 1_555
C4_8 C5_8 1_555 1_555
C18_8 C19_8 1_555 1_555
C20_8 C21_8 1_555 1_555
C35_8 C36_8 1_555 1_555
N1_9 C2_9 1_555 1_555
C1_9 H1_9 1_555 1_555
C2_9 C3_9 1_555 1_555
C3_9 H2_9 1_555 1_555
C4_9 C3_9 1_555 1_555
H3_9 C4_9 1_555 1_555
C5_9 N1_9 1_555 1_555
C16_9 C2_9 1_555 1_555
C17_9 C16_9 1_555 1_555
C18_9 C17_9 1_555 1_555
H10_9 C18_9 1_555 1_555
C19_9 C1_9 1_555 1_555
H11_9 C19_9 1_555 1_555
C20_9 C1_9 1_555 1_555
H12_9 C20_9 1_555 1_555
C21_9 C17_9 1_555 1_555
H13_9 C21_9 1_555 1_555
H22_9 C35_9 1_555 1_555
C36_9 C16_9 1_555 1_555
C4_9 C5_9 1_555 1_555
C18_9 C19_9 1_555 1_555
C20_9 C21_9 1_555 1_555
C35_9 C36_9 1_555 1_555
H6_9 C10_9 1_555 1_555
H7_9 C11_9 1_555 1_555
C10_9 C11_9 1_555 1_555

#END
