
###############################################################################
#
# This file contains modified crystal structure data generated from the
# MOF subset of the Cambridge Structural Database (CSD) v543 
# hosted by the Cambridge Crystallographic Data Centre (CCDC).
#
# This work is licensed under the Creative Commons
# Attribution-NonCommercial-ShareAlike 4.0 International License.
# To view a copy of this license, visit
# http://creativecommons.org/licenses/by-nc-sa/4.0/
# or send a letter to
# Creative Commons, PO Box 1866, Mountain View, CA 94042, USA.
#
# CIF created using the CSD Python API on 29 September 2022
# The structure has been converted into the P1 space group
# The structure has a 3D framework
# The original CSD entry YURHIF is in the rhombohedral crystal system
# The framework has been calculated to contain at least 10.0% void space
# The void calculation uses a probe of radius 1.32A, grid spacing 0.4
#
###############################################################################

data_YURHIF
_chemical_formula_moiety         '(C360 H216 Co12 N72)n'
_symmetry_cell_setting           triclinic
_symmetry_space_group_name_H-M   'P 1'
_symmetry_Int_Tables_number      1
_space_group_name_Hall           'P 1'
loop_
_symmetry_equiv_pos_site_id
_symmetry_equiv_pos_as_xyz
1 x,y,z
_cell_length_a                   32.640
_cell_length_b                   32.640
_cell_length_c                   9.271
_cell_angle_alpha                90
_cell_angle_beta                 90
_cell_angle_gamma                120
_cell_volume                     8553.77
loop_
_atom_site_label
_atom_site_type_symbol
_atom_site_fract_x
_atom_site_fract_y
_atom_site_fract_z
N5 N 0.26018(13) 0.49650(12) 0.0008(4)
C21 C 0.22746(13) 0.45152(13) 0.0141(4)
H13 H 0.2152 0.4401 0.1077
Co1 Co 0.1667 0.3333 0.3333
N2 N 0.16827(7) 0.27682(7) 0.2614(2)
N3 N 0.20172(7) 0.33481(7) 0.5113(2)
N4 N 0.28920(8) 0.19629(8) 0.5708(2)
H3 H 0.0598 0.1710 0.0115
C6 C 0.12562(9) 0.26254(9) 0.0320(3)
C7 C 0.15050(9) 0.25272(9) 0.1346(3)
C8 C 0.16270(10) 0.21622(10) 0.1188(3)
H5 H 0.1542 0.1945 0.0409
C9 C 0.18828(10) 0.21876(10) 0.2350(3)
H6 H 0.2013 0.1991 0.2552
C10 C 0.19233(9) 0.25676(9) 0.3233(3)
C11 C 0.21764(9) 0.27103(10) 0.4510(3)
C12 C 0.22174(9) 0.30726(10) 0.5377(3)
C13 C 0.24947(11) 0.32250(11) 0.6677(3)
H7 H 0.2668 0.3091 0.7091
C14 C 0.24625(10) 0.35924(10) 0.7196(3)
H8 H 0.2608 0.3768 0.8047
C15 C 0.11649(9) 0.29964(9) 0.0448(3)
C16 C 0.24274(10) 0.24550(9) 0.4949(3)
C17 C 0.28379(10) 0.25391(10) 0.4267(3)
H9 H 0.2970 0.2770 0.3524
C18 C 0.30563(10) 0.22884(10) 0.4665(3)
H10 H 0.3337 0.2350 0.4174
C19 C 0.24982(10) 0.18852(10) 0.6366(3)
H11 H 0.2377 0.1656 0.7114
C20 C 0.22548(10) 0.21170(11) 0.6028(3)
H12 H 0.1973 0.2046 0.6529
N6 N 0.16506(7) 0.38985(7) 0.4053(2)
N7 N 0.13161(7) 0.33186(7) 0.1554(2)
N8 N 0.04413(8) 0.47038(8) 0.0959(2)
C22 C 0.20995(11) 0.42015(11) 0.9008(3)
H14 H 0.1867 0.3880 0.9171
C23 C 0.22650(10) 0.43588(10) 0.7626(3)
C24 C 0.26088(12) 0.48303(11) 0.7475(4)
H15 H 0.2735 0.4957 0.6552
C25 C 0.27637(14) 0.51134(13) 0.8682(5)
H16 H 0.3001 0.5436 0.8560
C26 C 0.20771(9) 0.40413(9) 0.6347(3)
C27 C 0.18283(9) 0.41395(9) 0.5321(3)
C28 C 0.17063(10) 0.45045(10) 0.5479(3)
H17 H 0.1791 0.4722 0.6258
C29 C 0.14505(10) 0.44791(10) 0.4317(3)
H18 H 0.1320 0.4676 0.4115
C30 C 0.14100(9) 0.40991(9) 0.3434(3)
C31 C 0.11569(9) 0.39564(10) 0.2157(3)
C32 C 0.11159(9) 0.35941(10) 0.1290(3)
C35 C 0.21684(9) 0.36703(9) 0.6219(3)
C36 C 0.09059(10) 0.42117(9) 0.1718(3)
C37 C 0.04954(10) 0.41276(10) 0.2400(3)
H21 H 0.0363 0.3897 0.3143
C38 C 0.02770(10) 0.43783(10) 0.2002(3)
C39 C 0.08351(10) 0.47815(10) 0.0301(3)
C40 C 0.10785(10) 0.45497(11) 0.0639(3)
H24 H 0.1360 0.4621 0.0138
Co2 Co 0.3334 0.1667 0.6666
Co3 Co 0.0000 0.5001 -0.0000
N9 N 0.24042(11) 0.37747(8) 0.2375(2)
N10 N 0.09291(11) 0.28920(8) 0.4292(2)
N4_2 N 0.80371(8) 0.09291(11) 0.5708(2)
H6_2 H 0.8009 0.0022 0.2552
C17_2 C 0.74609(10) 0.02988(14) 0.4267(3)
H9_2 H 0.7230 0.0200 0.3524
C18_2 C 0.77116(10) 0.07679(14) 0.4665(3)
H10_2 H 0.7650 0.0987 0.4174
C19_2 C 0.81148(10) 0.06130(14) 0.6366(3)
H11_2 H 0.8344 0.0721 0.7114
C20_2 C 0.78830(11) 0.01378(15) 0.6028(3)
Co2_2 Co 0.8333 0.1666 0.6666
Co1_2 Co 0.6667 0.8334 0.3333
N2_2 N 0.72318(7) 0.89145(10) 0.2614(2)
N3_2 N 0.66519(7) 0.86691(10) 0.5113(2)
H3_2 H 0.8290 0.8888 0.0115
C6_2 C 0.73746(9) 0.86308(13) 0.0320(3)
C7_2 C 0.74728(9) 0.89778(13) 0.1346(3)
C8_2 C 0.78378(10) 0.94648(14) 0.1188(3)
H5_2 H 0.8055 0.9597 0.0409
C9_2 C 0.78124(10) 0.96952(14) 0.2350(3)
C10_2 C 0.74324(9) 0.93557(13) 0.3233(3)
C11_2 C 0.72897(10) 0.94661(13) 0.4510(3)
C12_2 C 0.69274(10) 0.91448(13) 0.5377(3)
C13_2 C 0.67750(11) 0.92697(16) 0.6677(3)
H7_2 H 0.6909 0.9577 0.7091
C14_2 C 0.64076(10) 0.88701(14) 0.7196(3)
H8_2 H 0.6232 0.8840 0.8047
C15_2 C 0.70036(9) 0.81685(13) 0.0448(3)
C16_2 C 0.75450(9) 0.99724(13) 0.4949(3)
H12_2 H 0.7954 0.9927 0.6529
N6_2 N 0.61015(7) 0.77522(10) 0.4053(2)
N7_2 N 0.66814(7) 0.79976(10) 0.1554(2)
N8_2 N 0.52962(8) 0.57376(11) 0.0959(2)
C22_2 C 0.57985(11) 0.78981(16) 0.9008(3)
H14_2 H 0.6120 0.7988 0.9171
C23_2 C 0.56412(10) 0.79063(14) 0.7626(3)
C24_2 C 0.51697(11) 0.77786(16) 0.7475(4)
H15_2 H 0.5043 0.7779 0.6552
C25_2 C 0.48866(13) 0.76504(19) 0.8682(5)
H16_2 H 0.4564 0.7566 0.8560
C26_2 C 0.59587(9) 0.80359(13) 0.6347(3)
C27_2 C 0.58605(9) 0.76889(13) 0.5321(3)
C28_2 C 0.54955(10) 0.72019(14) 0.5479(3)
H17_2 H 0.5278 0.7070 0.6258
C29_2 C 0.55209(10) 0.69715(14) 0.4317(3)
H18_2 H 0.5324 0.6645 0.4115
C30_2 C 0.59009(9) 0.73110(13) 0.3434(3)
C31_2 C 0.60436(10) 0.72006(13) 0.2157(3)
C32_2 C 0.64059(10) 0.75219(13) 0.1290(3)
C35_2 C 0.63297(9) 0.84982(13) 0.6219(3)
C36_2 C 0.57883(9) 0.66943(13) 0.1718(3)
C37_2 C 0.58724(10) 0.63679(14) 0.2400(3)
H21_2 H 0.6103 0.6467 0.3143
C38_2 C 0.56217(10) 0.58988(14) 0.2002(3)
H22 H 0.5683 0.5680 0.2493
C39_2 C 0.52185(10) 0.60537(14) 0.0301(3)
C40_2 C 0.54503(11) 0.65289(15) 0.0639(3)
H24_2 H 0.5379 0.6740 0.0138
Co3_2 Co 0.4999 0.5000 -0.0000
N9_2 N 0.62253(8) 0.86296(14) 0.2375(2)
N10_2 N 0.71080(8) 0.80371(14) 0.4292(2)
N1 N 0.82983(12) 0.90298(18) 0.6659(4)
C1 C 0.78485(13) 0.89072(18) 0.6526(4)
H1 H 0.7734 0.8915 0.5590
C2 C 0.75348(11) 0.87686(16) 0.7659(3)
H2 H 0.7213 0.8679 0.7496
C3 C 0.76921(10) 0.87604(14) 0.9041(3)
C4 C 0.81636(11) 0.88881(16) 0.9192(4)
C5 C 0.84467(13) 0.90163(19) 0.7985(5)
H4 H 0.8769 0.9101 0.8107
C33 C 0.65583(11) 0.73970(16) 0.9990(3)
H19 H 0.6424 0.7090 0.9576
C34 C 0.69257(10) 0.77966(14) 0.9471(3)
H20 H 0.7101 0.7827 0.8620
H23 H 0.4989 0.5946 0.9553
Co3_3 Co 0.4999 0.5000 1.0000
Co1_3 Co 0.1666 0.8333 0.3333
N2_3 N 0.10855(10) 0.83173(7) 0.2614(2)
N3_3 N 0.13309(10) 0.79828(7) 0.5113(2)
H3_3 H 0.1112 0.9402 0.0115
C6_3 C 0.13692(13) 0.87438(9) 0.0320(3)
C7_3 C 0.10222(13) 0.84950(9) 0.1346(3)
C8_3 C 0.05352(14) 0.83730(10) 0.1188(3)
H5_3 H 0.0403 0.8458 0.0409
C9_3 C 0.03048(14) 0.81172(10) 0.2350(3)
C10_3 C 0.06443(13) 0.80767(9) 0.3233(3)
C11_3 C 0.05339(13) 0.78236(9) 0.4510(3)
C12_3 C 0.08552(13) 0.77826(9) 0.5377(3)
C13_3 C 0.07303(16) 0.75053(11) 0.6677(3)
H7_3 H 0.0423 0.7332 0.7091
C14_3 C 0.11299(14) 0.75375(10) 0.7196(3)
H8_3 H 0.1160 0.7392 0.8047
C15_3 C 0.18315(13) 0.88351(9) 0.0448(3)
C16_3 C 0.00276(13) 0.75726(10) 0.4949(3)
H12_3 H 0.0073 0.8027 0.6529
N6_3 N 0.22478(10) 0.83494(7) 0.4053(2)
N7_3 N 0.20024(10) 0.86839(7) 0.1554(2)
N8_3 N 0.42624(11) 0.95587(8) 0.0959(2)
C22_3 C 0.21019(16) 0.79005(11) 0.9008(3)
H14_3 H 0.2012 0.8133 0.9171
C23_3 C 0.20937(14) 0.77350(10) 0.7626(3)
C24_3 C 0.22214(16) 0.73912(12) 0.7475(4)
H15_3 H 0.2221 0.7265 0.6552
C25_3 C 0.23496(19) 0.72363(14) 0.8682(5)
H16_3 H 0.2434 0.6999 0.8560
C26_3 C 0.19641(13) 0.79229(9) 0.6347(3)
C27_3 C 0.23111(13) 0.81717(9) 0.5321(3)
C28_3 C 0.27981(14) 0.82937(10) 0.5479(3)
H17_3 H 0.2930 0.8209 0.6258
C29_3 C 0.30285(14) 0.85495(10) 0.4317(3)
H18_3 H 0.3355 0.8680 0.4115
C30_3 C 0.26890(13) 0.85900(9) 0.3434(3)
C31_3 C 0.27994(13) 0.88431(9) 0.2157(3)
C32_3 C 0.24781(13) 0.88841(9) 0.1290(3)
C35_3 C 0.15018(13) 0.78316(9) 0.6219(3)
C36_3 C 0.33057(13) 0.90941(10) 0.1718(3)
C37_3 C 0.36321(14) 0.95046(10) 0.2400(3)
H21_3 H 0.3533 0.9637 0.3143
C38_3 C 0.41012(14) 0.97230(10) 0.2002(3)
C39_3 C 0.39463(14) 0.91649(10) 0.0301(3)
C40_3 C 0.34711(15) 0.89215(10) 0.0639(3)
H24_3 H 0.3260 0.8640 0.0138
Co3_4 Co 0.5000 1.0000 -0.0000
N9_3 N 0.13704(14) 0.75958(11) 0.2375(2)
N10_3 N 0.19629(14) 0.90709(11) 0.4292(2)
N4_3 N 0.90709(11) 0.71080(8) 0.5708(2)
H6_3 H 0.9978 0.7987 0.2552
C17_3 C 0.97012(14) 0.71621(10) 0.4267(3)
H9_3 H 0.9800 0.7030 0.3524
C18_3 C 0.92321(14) 0.69437(10) 0.4665(3)
H10_3 H 0.9013 0.6663 0.4174
C19_3 C 0.93870(14) 0.75018(10) 0.6366(3)
H11_3 H 0.9279 0.7623 0.7114
C20_3 C 0.98622(15) 0.77452(10) 0.6028(3)
Co2_3 Co 0.8334 0.6666 0.6666
N2_4 N 0.83494(7) 0.61015(7) 0.5947(2)
N3_4 N 0.86839(7) 0.66814(7) 0.8446(2)
N4_4 N 0.95587(8) 0.52962(8) 0.9041(2)
C2_2 C 0.79005(11) 0.57985(11) 0.0992(3)
H2_2 H 0.8133 0.6120 0.0829
C3_2 C 0.77350(10) 0.56412(10) 0.2374(3)
C4_2 C 0.73912(12) 0.51697(11) 0.2525(4)
H3_4 H 0.7265 0.5043 0.3448
C5_2 C 0.72363(14) 0.48866(13) 0.1318(5)
H4_2 H 0.6999 0.4564 0.1440
C6_4 C 0.79229(9) 0.59587(9) 0.3653(3)
C7_4 C 0.81717(9) 0.58605(9) 0.4679(3)
C8_4 C 0.82937(10) 0.54955(10) 0.4521(3)
H5_4 H 0.8209 0.5278 0.3742
C9_4 C 0.85495(10) 0.55209(10) 0.5683(3)
H6_4 H 0.8680 0.5324 0.5885
C10_4 C 0.85900(9) 0.59009(9) 0.6566(3)
C11_4 C 0.88431(9) 0.60436(10) 0.7843(3)
C12_4 C 0.88841(9) 0.64059(10) 0.8710(3)
C15_4 C 0.78316(9) 0.63297(9) 0.3781(3)
C16_4 C 0.90941(10) 0.57883(9) 0.8282(3)
C17_4 C 0.95046(10) 0.58724(10) 0.7600(3)
H9_4 H 0.9637 0.6103 0.6857
C18_4 C 0.97230(10) 0.56217(10) 0.7998(3)
C19_4 C 0.91649(10) 0.52185(10) 0.9699(3)
C20_4 C 0.89215(10) 0.54503(11) 0.9361(3)
H12_4 H 0.8640 0.5379 0.9862
N6_4 N 0.83173(7) 0.72318(7) 0.7386(2)
N7_4 N 0.79828(7) 0.66519(7) 0.4887(2)
H15_4 H 0.9402 0.8290 0.9885
C26_4 C 0.87438(9) 0.73746(9) 0.9680(3)
C27_4 C 0.84950(9) 0.74728(9) 0.8654(3)
C28_4 C 0.83730(10) 0.78378(10) 0.8812(3)
H17_4 H 0.8458 0.8055 0.9591
C29_4 C 0.81172(10) 0.78124(10) 0.7650(3)
H18_4 H 0.7987 0.8009 0.7448
C30_4 C 0.80767(9) 0.74324(9) 0.6767(3)
C31_4 C 0.78236(9) 0.72897(10) 0.5490(3)
C32_4 C 0.77826(9) 0.69274(10) 0.4623(3)
C33_2 C 0.75053(11) 0.67750(11) 0.3323(3)
H19_2 H 0.7332 0.6909 0.2909
C34_2 C 0.75375(10) 0.64076(10) 0.2804(3)
H20_2 H 0.7392 0.6232 0.1953
C35_4 C 0.88351(9) 0.70036(9) 0.9552(3)
C36_4 C 0.75726(10) 0.75450(9) 0.5051(3)
C37_4 C 0.71621(10) 0.74609(10) 0.5733(3)
H21_4 H 0.7030 0.7230 0.6476
C38_4 C 0.69437(10) 0.77116(10) 0.5335(3)
H22_2 H 0.6663 0.7650 0.5826
C39_4 C 0.75018(10) 0.81148(10) 0.3634(3)
H23_2 H 0.7623 0.8344 0.2886
C40_4 C 0.77452(10) 0.78830(11) 0.3972(3)
H24_4 H 0.8027 0.7954 0.3471
N10_4 N 0.75958(11) 0.62253(8) 0.7625(2)
C13_4 C 0.34417(11) 0.26030(16) 0.0010(3)
H7_4 H 0.3576 0.2910 0.0424
C14_4 C 0.30743(10) 0.22034(14) 0.0529(3)
H8_4 H 0.2899 0.2173 0.1380
H11_4 H 0.5011 0.4054 0.0447
N5_2 N 0.17017(12) 0.09702(18) 0.3341(4)
C21_2 C 0.21515(13) 0.10928(18) 0.3474(4)
H13_2 H 0.2266 0.1085 0.4410
C22_4 C 0.24652(11) 0.12314(16) 0.2341(3)
H14_4 H 0.2787 0.1321 0.2504
C23_4 C 0.23079(10) 0.12396(14) 0.0959(3)
C24_4 C 0.18364(11) 0.11119(16) 0.0808(4)
C25_4 C 0.15533(13) 0.09837(19) 0.2015(5)
H16_4 H 0.1231 0.0899 0.1893
N2_5 N 0.38985(7) 0.22478(10) 0.5947(2)
N3_5 N 0.33186(7) 0.20024(10) 0.8446(2)
N4_5 N 0.47038(8) 0.42624(11) 0.9041(2)
C2_3 C 0.42015(11) 0.21019(16) 0.0992(3)
H2_3 H 0.3880 0.2012 0.0829
C3_3 C 0.43588(10) 0.20937(14) 0.2374(3)
C4_3 C 0.48303(11) 0.22214(16) 0.2525(4)
H3_5 H 0.4957 0.2221 0.3448
C5_3 C 0.51134(13) 0.23496(19) 0.1318(5)
H4_3 H 0.5436 0.2434 0.1440
C6_5 C 0.40413(9) 0.19641(13) 0.3653(3)
C7_5 C 0.41395(9) 0.23111(13) 0.4679(3)
C8_5 C 0.45045(10) 0.27981(14) 0.4521(3)
H5_5 H 0.4722 0.2930 0.3742
C9_5 C 0.44791(10) 0.30285(14) 0.5683(3)
H6_5 H 0.4676 0.3355 0.5885
C10_5 C 0.40991(9) 0.26890(13) 0.6566(3)
C11_5 C 0.39564(10) 0.27994(13) 0.7843(3)
C12_5 C 0.35941(10) 0.24781(13) 0.8710(3)
C15_5 C 0.36703(9) 0.15018(13) 0.3781(3)
C16_5 C 0.42117(9) 0.33057(13) 0.8282(3)
C17_5 C 0.41276(10) 0.36321(14) 0.7600(3)
H9_5 H 0.3897 0.3533 0.6857
C18_5 C 0.43783(10) 0.41012(14) 0.7998(3)
H10_4 H 0.4317 0.4320 0.7507
C19_5 C 0.47815(10) 0.39463(14) 0.9699(3)
C20_5 C 0.45497(11) 0.34711(15) 0.9361(3)
H12_5 H 0.4621 0.3260 0.9862
N6_5 N 0.27682(7) 0.10855(10) 0.7386(2)
N7_5 N 0.33481(7) 0.13309(10) 0.4887(2)
H15_5 H 0.1710 0.1112 0.9885
C26_5 C 0.26254(9) 0.13692(13) 0.9680(3)
C27_5 C 0.25272(9) 0.10222(13) 0.8654(3)
C28_5 C 0.21622(10) 0.05352(14) 0.8812(3)
H17_5 H 0.1945 0.0403 0.9591
C29_5 C 0.21876(10) 0.03048(14) 0.7650(3)
C30_5 C 0.25676(9) 0.06443(13) 0.6767(3)
C31_5 C 0.27103(10) 0.05339(13) 0.5490(3)
C32_5 C 0.30726(10) 0.08552(13) 0.4623(3)
C33_3 C 0.32250(11) 0.07303(16) 0.3323(3)
H19_3 H 0.3091 0.0423 0.2909
C34_3 C 0.35924(10) 0.11299(14) 0.2804(3)
H20_3 H 0.3768 0.1160 0.1953
C35_5 C 0.29964(9) 0.18315(13) 0.9552(3)
C36_5 C 0.24550(9) 0.00276(13) 0.5051(3)
H24_5 H 0.2046 0.0073 0.3471
N10_5 N 0.37747(8) 0.13704(14) 0.7625(2)
H18_5 H 0.1991 0.9978 0.7448
C37_5 C 0.25391(10) 0.97012(14) 0.5733(3)
H21_5 H 0.2770 0.9800 0.6476
C38_5 C 0.22884(10) 0.92321(14) 0.5335(3)
H22_3 H 0.2350 0.9013 0.5826
C39_5 C 0.18852(10) 0.93870(14) 0.3634(3)
H23_3 H 0.1656 0.9279 0.2886
C40_5 C 0.21170(11) 0.98622(15) 0.3972(3)
H18_6 H 0.0022 0.2013 0.7448
C37_6 C 0.02988(14) 0.28379(10) 0.5733(3)
H21_6 H 0.0200 0.2970 0.6476
C38_6 C 0.07679(14) 0.30563(10) 0.5335(3)
H22_4 H 0.0987 0.3337 0.5826
C39_6 C 0.06130(14) 0.24982(10) 0.3634(3)
H23_4 H 0.0721 0.2377 0.2886
C40_6 C 0.01378(15) 0.22548(10) 0.3972(3)
N2_6 N 0.77522(10) 0.16506(7) 0.5947(2)
N3_6 N 0.79976(10) 0.13161(7) 0.8446(2)
N4_6 N 0.57376(11) 0.04413(8) 0.9041(2)
C2_4 C 0.78981(16) 0.20995(11) 0.0992(3)
H2_4 H 0.7988 0.1867 0.0829
C3_4 C 0.79063(14) 0.22650(10) 0.2374(3)
C4_4 C 0.77786(16) 0.26088(12) 0.2525(4)
H3_6 H 0.7779 0.2735 0.3448
C5_4 C 0.76504(19) 0.27637(14) 0.1318(5)
H4_4 H 0.7566 0.3001 0.1440
C6_6 C 0.80359(13) 0.20771(9) 0.3653(3)
C7_6 C 0.76889(13) 0.18283(9) 0.4679(3)
C8_6 C 0.72019(14) 0.17063(10) 0.4521(3)
H5_6 H 0.7070 0.1791 0.3742
C9_6 C 0.69715(14) 0.14505(10) 0.5683(3)
H6_6 H 0.6645 0.1320 0.5885
C10_6 C 0.73110(13) 0.14100(9) 0.6566(3)
C11_6 C 0.72006(13) 0.11569(9) 0.7843(3)
C12_6 C 0.75219(13) 0.11159(9) 0.8710(3)
C15_6 C 0.84982(13) 0.21684(9) 0.3781(3)
C16_6 C 0.66943(13) 0.09059(10) 0.8282(3)
C17_6 C 0.63679(14) 0.04954(10) 0.7600(3)
H9_6 H 0.6467 0.0363 0.6857
C18_6 C 0.58988(14) 0.02770(10) 0.7998(3)
C19_6 C 0.60537(14) 0.08351(10) 0.9699(3)
C20_6 C 0.65289(15) 0.10785(10) 0.9361(3)
H12_6 H 0.6740 0.1360 0.9862
N6_6 N 0.89145(10) 0.16827(7) 0.7386(2)
N7_6 N 0.86691(10) 0.20172(7) 0.4887(2)
H15_6 H 0.8888 0.0598 0.9885
C26_6 C 0.86308(13) 0.12562(9) 0.9680(3)
C27_6 C 0.89778(13) 0.15050(9) 0.8654(3)
C28_6 C 0.94648(14) 0.16270(10) 0.8812(3)
H17_6 H 0.9597 0.1542 0.9591
C29_6 C 0.96952(14) 0.18828(10) 0.7650(3)
C30_6 C 0.93557(13) 0.19233(9) 0.6767(3)
C31_6 C 0.94661(13) 0.21764(9) 0.5490(3)
C32_6 C 0.91448(13) 0.22174(9) 0.4623(3)
C33_4 C 0.92697(16) 0.24947(11) 0.3323(3)
H19_4 H 0.9577 0.2668 0.2909
C34_4 C 0.88701(14) 0.24625(10) 0.2804(3)
H20_4 H 0.8840 0.2608 0.1953
C35_6 C 0.81685(13) 0.11649(9) 0.9552(3)
C36_6 C 0.99724(13) 0.24274(10) 0.5051(3)
H24_6 H 0.9927 0.1973 0.3471
N10_6 N 0.86296(14) 0.24042(11) 0.7625(2)
C31_7 C 0.44903(9) 0.06230(10) 0.8823(3)
C32_7 C 0.44493(9) 0.02607(10) 0.7956(3)
C33_5 C 0.41720(11) 0.01083(11) 0.6656(3)
H19_5 H 0.3999 0.0242 0.6242
C36_7 C 0.42393(10) 0.08783(9) 0.8384(3)
C37_7 C 0.38288(10) 0.07942(10) 0.9066(3)
H21_7 H 0.3697 0.0563 0.9809
C38_7 C 0.36104(10) 0.10449(10) 0.8668(3)
H22_5 H 0.3330 0.0983 0.9159
C39_7 C 0.41685(10) 0.14481(10) 0.6967(3)
H23_5 H 0.4290 0.1677 0.6219
C40_7 C 0.44119(10) 0.12163(11) 0.7305(3)
H24_7 H 0.4694 0.1287 0.6804
C11_7 C 0.55097(9) 0.93770(10) 0.1177(3)
C12_7 C 0.55507(9) 0.97393(10) 0.2044(3)
C13_5 C 0.58280(11) 0.98917(11) 0.3344(3)
H7_5 H 0.6001 0.9758 0.3758
C16_7 C 0.57607(10) 0.91217(9) 0.1616(3)
C17_7 C 0.61712(10) 0.92058(10) 0.0934(3)
H9_7 H 0.6303 0.9437 0.0191
C18_7 C 0.63896(10) 0.89551(10) 0.1332(3)
H10_5 H 0.6670 0.9017 0.0841
C19_7 C 0.58315(10) 0.85519(10) 0.3033(3)
H11_5 H 0.5710 0.8323 0.3781
C20_7 C 0.55881(10) 0.87837(11) 0.2695(3)
H12_7 H 0.5306 0.8713 0.3196
C11_8 C 0.06230(10) 0.61328(13) 0.1177(3)
C12_8 C 0.02607(10) 0.58115(13) 0.2044(3)
C13_6 C 0.01083(11) 0.59364(16) 0.3344(3)
H7_6 H 0.0242 0.6244 0.3758
C16_8 C 0.08783(9) 0.66391(13) 0.1616(3)
C17_8 C 0.07942(10) 0.69655(14) 0.0934(3)
H9_8 H 0.0563 0.6867 0.0191
C18_8 C 0.10449(10) 0.74346(14) 0.1332(3)
H10_6 H 0.0983 0.7654 0.0841
C19_8 C 0.14481(10) 0.72797(14) 0.3033(3)
H11_6 H 0.1677 0.7388 0.3781
C20_8 C 0.12163(11) 0.68045(15) 0.2695(3)
H12_8 H 0.1287 0.6594 0.3196
C31_8 C 0.93770(10) 0.38672(13) 0.8823(3)
C32_8 C 0.97393(10) 0.41885(13) 0.7956(3)
C33_6 C 0.98917(11) 0.40636(16) 0.6656(3)
H19_6 H 0.9758 0.3756 0.6242
C36_8 C 0.91217(9) 0.33609(13) 0.8384(3)
C37_8 C 0.92058(10) 0.30345(14) 0.9066(3)
H21_8 H 0.9437 0.3133 0.9809
C38_8 C 0.89551(10) 0.25654(14) 0.8668(3)
H22_6 H 0.9017 0.2346 0.9159
C39_8 C 0.85519(10) 0.27203(14) 0.6967(3)
H23_6 H 0.8323 0.2612 0.6219
C40_8 C 0.87837(11) 0.31955(15) 0.7305(3)
H24_8 H 0.8713 0.3406 0.6804
N3_7 N 0.46642(10) 0.46495(7) 0.1780(2)
C11_9 C 0.38672(13) 0.44903(9) 0.1177(3)
C12_9 C 0.41885(13) 0.44493(9) 0.2044(3)
C13_7 C 0.40636(16) 0.41720(11) 0.3344(3)
H7_7 H 0.3756 0.3999 0.3758
C14_5 C 0.44632(14) 0.42042(10) 0.3863(3)
H8_5 H 0.4493 0.4059 0.4714
C16_9 C 0.33609(13) 0.42393(10) 0.1616(3)
C17_9 C 0.30345(14) 0.38288(10) 0.0934(3)
H9_9 H 0.3133 0.3697 0.0191
C18_9 C 0.25654(14) 0.36104(10) 0.1332(3)
H10_7 H 0.2346 0.3330 0.0841
C19_9 C 0.27203(14) 0.41685(10) 0.3033(3)
H11_7 H 0.2612 0.4290 0.3781
C20_9 C 0.31955(15) 0.44119(10) 0.2695(3)
H12_9 H 0.3406 0.4694 0.3196
N5_3 N 0.56965(18) 0.40648(13) 0.6674(4)
N6_7 N 0.55812(10) 0.50160(7) 0.0719(2)
C21_3 C 0.55739(18) 0.43920(13) 0.6807(4)
H13_3 H 0.5582 0.4514 0.7743
C22_5 C 0.54353(16) 0.45671(11) 0.5674(3)
H14_5 H 0.5346 0.4799 0.5837
C23_5 C 0.54271(14) 0.44016(10) 0.4292(3)
C24_5 C 0.55548(16) 0.40578(12) 0.4141(4)
H15_7 H 0.5555 0.3931 0.3218
C25_5 C 0.56830(19) 0.39029(14) 0.5348(5)
H16_5 H 0.5768 0.3665 0.5226
C26_7 C 0.52975(13) 0.45895(9) 0.3013(3)
C27_7 C 0.56445(13) 0.48383(9) 0.1987(3)
C28_7 C 0.61315(14) 0.49603(10) 0.2145(3)
H17_7 H 0.6264 0.4875 0.2924
C29_7 C 0.63619(14) 0.52161(10) 0.0983(3)
H18_7 H 0.6689 0.5346 0.0781
C30_7 C 0.60224(13) 0.52566(9) 0.0100(3)
C35_7 C 0.48352(13) 0.44982(9) 0.2885(3)
N1_2 N 0.43035(18) 0.59352(13) 0.3326(4)
N2_7 N 0.44188(10) 0.49840(7) 0.9281(2)
C1_2 C 0.44261(18) 0.56080(13) 0.3193(4)
H1_2 H 0.4418 0.5486 0.2257
C2_5 C 0.45647(16) 0.54329(11) 0.4326(3)
H2_5 H 0.4654 0.5201 0.4163
C3_5 C 0.45729(14) 0.55984(10) 0.5708(3)
C4_5 C 0.44452(16) 0.59422(12) 0.5859(4)
H3_7 H 0.4445 0.6069 0.6782
C5_5 C 0.43170(19) 0.60971(14) 0.4652(5)
H4_5 H 0.4232 0.6335 0.4774
C6_7 C 0.47025(13) 0.54105(9) 0.6987(3)
C7_7 C 0.43555(13) 0.51617(9) 0.8013(3)
C8_7 C 0.38685(14) 0.50397(10) 0.7855(3)
H5_7 H 0.3736 0.5125 0.7076
C9_7 C 0.36381(14) 0.47839(10) 0.9017(3)
H6_7 H 0.3311 0.4654 0.9219
C10_7 C 0.39776(13) 0.47434(9) 0.9900(3)
C15_7 C 0.51648(13) 0.55018(9) 0.7115(3)
N7_7 N 0.53358(10) 0.53505(7) 0.8220(2)
C31_9 C 0.61328(13) 0.55097(9) 0.8823(3)
C32_9 C 0.58115(13) 0.55507(9) 0.7956(3)
C33_7 C 0.59364(16) 0.58280(11) 0.6656(3)
H19_7 H 0.6244 0.6001 0.6242
C34_5 C 0.55368(14) 0.57958(10) 0.6137(3)
H20_5 H 0.5507 0.5941 0.5286
C36_9 C 0.66391(13) 0.57607(10) 0.8384(3)
C37_9 C 0.69655(14) 0.61712(10) 0.9066(3)
H21_9 H 0.6867 0.6303 0.9809
C38_9 C 0.74346(14) 0.63896(10) 0.8668(3)
H22_7 H 0.7654 0.6670 0.9159
C39_9 C 0.72797(14) 0.58315(10) 0.6967(3)
H23_7 H 0.7388 0.5710 0.6219
C40_9 C 0.68045(15) 0.55881(10) 0.7305(3)
H24_9 H 0.6594 0.5306 0.6804
Co3_5 Co 1.0000 0.4999 1.0000
Co3_6 Co 0.5000 0.0000 1.0000
N1_3 N 0.07315(13) 0.17017(12) 0.6659(4)
C1_3 C 0.10587(13) 0.21515(13) 0.6526(4)
H1_3 H 0.1181 0.2266 0.5590
C2_6 C 0.12338(11) 0.24652(11) 0.7659(3)
H2_6 H 0.1466 0.2787 0.7496
C3_6 C 0.10683(10) 0.23079(10) 0.9041(3)
C4_6 C 0.07245(12) 0.18364(11) 0.9192(4)
C5_6 C 0.05696(14) 0.15533(13) 0.7985(5)
H4_6 H 0.0332 0.1231 0.8107
C33_8 C 0.08386(11) 0.34417(11) 0.9990(3)
H19_8 H 0.0665 0.3576 0.9576
C34_6 C 0.08708(10) 0.30743(10) 0.9471(3)
H20_6 H 0.0725 0.2899 0.8620
H23_8 H 0.0956 0.5011 0.9553
Co3_7 Co 0.0000 0.5001 1.0000
H10_8 H 0.0004 0.5683 0.7507
N1_4 N 0.16316(12) 0.56965(18) 0.3326(4)
N2_8 N 0.05651(7) 0.55812(10) 0.9281(2)
C1_4 C 0.11818(13) 0.55739(18) 0.3193(4)
H1_4 H 0.1067 0.5582 0.2257
C2_7 C 0.08681(11) 0.54353(16) 0.4326(3)
H2_7 H 0.0546 0.5346 0.4163
C3_7 C 0.10254(10) 0.54271(14) 0.5708(3)
C4_7 C 0.14969(11) 0.55548(16) 0.5859(4)
H3_8 H 0.1623 0.5555 0.6782
C5_7 C 0.17800(13) 0.56830(19) 0.4652(5)
H4_7 H 0.2102 0.5768 0.4774
C6_8 C 0.07079(9) 0.52975(13) 0.6987(3)
C7_8 C 0.08061(9) 0.56445(13) 0.8013(3)
C8_8 C 0.11711(10) 0.61315(14) 0.7855(3)
H5_8 H 0.1388 0.6264 0.7076
C9_8 C 0.11457(10) 0.63619(14) 0.9017(3)
H6_8 H 0.1342 0.6689 0.9219
C10_8 C 0.07657(9) 0.60224(13) 0.9900(3)
C15_8 C 0.03369(9) 0.48352(13) 0.7115(3)
N7_8 N 0.00148(7) 0.46642(10) 0.8220(2)
C34_7 C 0.02591(10) 0.44632(14) 0.6137(3)
H20_7 H 0.0435 0.4493 0.5286
H22_8 H 0.9996 0.4317 0.2493
C13_8 C 0.91614(11) 0.65583(11) 0.0010(3)
H7_8 H 0.9335 0.6424 0.0424
C14_6 C 0.91292(10) 0.69257(10) 0.0529(3)
H8_6 H 0.9275 0.7101 0.1380
H11_8 H 0.9044 0.4989 0.0447
N5_4 N 0.92685(13) 0.82983(12) 0.3341(4)
C21_4 C 0.89413(13) 0.78485(13) 0.3474(4)
H13_4 H 0.8819 0.7734 0.4410
C22_6 C 0.87662(11) 0.75348(11) 0.2341(3)
H14_6 H 0.8534 0.7213 0.2504
C23_6 C 0.89317(10) 0.76921(10) 0.0959(3)
C24_6 C 0.92755(12) 0.81636(11) 0.0808(4)
C25_6 C 0.94304(14) 0.84467(13) 0.2015(5)
H16_6 H 0.9668 0.8769 0.1893
N3_8 N 0.99852(7) 0.53358(10) 0.1780(2)
C14_7 C 0.97409(10) 0.55368(14) 0.3863(3)
H8_7 H 0.9565 0.5507 0.4714
N5_5 N 0.83684(12) 0.43035(18) 0.6674(4)
N6_8 N 0.94349(7) 0.44188(10) 0.0719(2)
C21_5 C 0.88182(13) 0.44261(18) 0.6807(4)
H13_5 H 0.8933 0.4418 0.7743
C22_7 C 0.91319(11) 0.45647(16) 0.5674(3)
H14_7 H 0.9454 0.4654 0.5837
C23_7 C 0.89746(10) 0.45729(14) 0.4292(3)
C24_7 C 0.85031(11) 0.44452(16) 0.4141(4)
H15_8 H 0.8377 0.4445 0.3218
C25_7 C 0.82200(13) 0.43170(19) 0.5348(5)
H16_7 H 0.7898 0.4232 0.5226
C26_8 C 0.92921(9) 0.47025(13) 0.3013(3)
C27_8 C 0.91939(9) 0.43555(13) 0.1987(3)
C28_8 C 0.88289(10) 0.38685(14) 0.2145(3)
H17_8 H 0.8612 0.3736 0.2924
C29_8 C 0.88543(10) 0.36381(14) 0.0983(3)
H18_8 H 0.8658 0.3311 0.0781
C30_8 C 0.92343(9) 0.39776(13) 0.0100(3)
C35_8 C 0.96631(9) 0.51648(13) 0.2885(3)
Co3_8 Co 1.0000 0.4999 0.0000
N5_6 N 0.50350(12) 0.76369(18) 0.0008(4)
C21_6 C 0.54848(13) 0.77595(18) 0.0141(4)
H13_6 H 0.5599 0.7752 0.1077
H22_9 H 0.4320 0.0004 0.2493
C13_9 C 0.73970(16) 0.08386(11) 0.0010(3)
H7_9 H 0.7090 0.0665 0.0424
C14_8 C 0.77966(14) 0.08708(10) 0.0529(3)
H8_8 H 0.7827 0.0725 0.1380
H11_9 H 0.5946 0.0956 0.0447
N5_7 N 0.90298(18) 0.07315(13) 0.3341(4)
C21_7 C 0.89072(18) 0.10587(13) 0.3474(4)
H13_7 H 0.8915 0.1181 0.4410
C22_8 C 0.87686(16) 0.12338(11) 0.2341(3)
H14_8 H 0.8679 0.1466 0.2504
C23_8 C 0.87604(14) 0.10683(10) 0.0959(3)
C24_8 C 0.88881(16) 0.07245(12) 0.0808(4)
C25_8 C 0.90163(19) 0.05696(14) 0.2015(5)
H16_8 H 0.9101 0.0332 0.1893
N3_9 N 0.53505(7) 0.00148(7) 0.1780(2)
C14_9 C 0.57958(10) 0.02591(10) 0.3863(3)
H8_9 H 0.5941 0.0435 0.4714
N5_8 N 0.59352(13) 0.16316(12) 0.6674(4)
N6_9 N 0.49840(7) 0.05651(7) 0.0719(2)
C21_8 C 0.56080(13) 0.11818(13) 0.6807(4)
H13_8 H 0.5486 0.1067 0.7743
C22_9 C 0.54329(11) 0.08681(11) 0.5674(3)
H14_9 H 0.5201 0.0546 0.5837
C23_9 C 0.55984(10) 0.10254(10) 0.4292(3)
C24_9 C 0.59422(12) 0.14969(11) 0.4141(4)
H15_9 H 0.6069 0.1623 0.3218
C25_9 C 0.60971(14) 0.17800(13) 0.5348(5)
H16_9 H 0.6335 0.2102 0.5226
C26_9 C 0.54105(9) 0.07079(9) 0.3013(3)
C27_9 C 0.51617(9) 0.08061(9) 0.1987(3)
C28_9 C 0.50397(10) 0.11711(10) 0.2145(3)
H17_9 H 0.5125 0.1388 0.2924
C29_9 C 0.47839(10) 0.11457(10) 0.0983(3)
H18_9 H 0.4654 0.1342 0.0781
C30_9 C 0.47434(9) 0.07657(9) 0.0100(3)
C35_9 C 0.55018(9) 0.03369(9) 0.2885(3)
Co3_9 Co 0.5000 0.0000 0.0000
N5_9 N 0.23631(18) 0.73982(13) 0.0008(4)
C21_9 C 0.22405(18) 0.77254(13) 0.0141(4)
H13_9 H 0.2248 0.7848 0.1077
N1_5 N 0.09702(18) 0.92685(13) 0.6659(4)
C1_5 C 0.10928(18) 0.89413(13) 0.6526(4)
H1_5 H 0.1085 0.8819 0.5590
C2_8 C 0.12314(16) 0.87662(11) 0.7659(3)
H2_8 H 0.1321 0.8534 0.7496
C3_8 C 0.12396(14) 0.89317(10) 0.9041(3)
C4_8 C 0.11119(16) 0.92755(12) 0.9192(4)
C5_8 C 0.09837(19) 0.94304(14) 0.7985(5)
H4_8 H 0.0899 0.9668 0.8107
C33_9 C 0.26030(16) 0.91614(11) 0.9990(3)
H19_9 H 0.2910 0.9335 0.9576
C34_8 C 0.22034(14) 0.91292(10) 0.9471(3)
H20_8 H 0.2173 0.9275 0.8620
H23_9 H 0.4054 0.9044 0.9553
Co3_10 Co 0.5000 1.0000 1.0000
H10_9 H 0.5680 0.9996 0.7507
N1_6 N 0.40648(13) 0.83684(12) 0.3326(4)
N2_9 N 0.50160(7) 0.94349(7) 0.9281(2)
C1_6 C 0.43920(13) 0.88182(13) 0.3193(4)
H1_6 H 0.4514 0.8933 0.2257
C2_9 C 0.45671(11) 0.91319(11) 0.4326(3)
H2_9 H 0.4799 0.9454 0.4163
C3_9 C 0.44016(10) 0.89746(10) 0.5708(3)
C4_9 C 0.40578(12) 0.85031(11) 0.5859(4)
H3_9 H 0.3931 0.8377 0.6782
C5_9 C 0.39029(14) 0.82200(13) 0.4652(5)
H4_9 H 0.3665 0.7898 0.4774
C6_9 C 0.45895(9) 0.92921(9) 0.6987(3)
C7_9 C 0.48383(9) 0.91939(9) 0.8013(3)
C8_9 C 0.49603(10) 0.88289(10) 0.7855(3)
H5_9 H 0.4875 0.8612 0.7076
C9_9 C 0.52161(10) 0.88543(10) 0.9017(3)
H6_9 H 0.5346 0.8658 0.9219
C10_9 C 0.52566(9) 0.92343(9) 0.9900(3)
C15_9 C 0.44982(9) 0.96631(9) 0.7115(3)
N7_9 N 0.46495(7) 0.99852(7) 0.8220(2)
C34_9 C 0.42042(10) 0.97409(10) 0.6137(3)
H20_9 H 0.4059 0.9565 0.5286
N1_7 N 0.73982(13) 0.50350(12) 0.9992(4)
C1_7 C 0.77254(13) 0.54848(13) 0.9859(4)
H1_7 H 0.7848 0.5599 0.8923
N1_8 N 0.49650(12) 0.23631(18) 0.9992(4)
C1_8 C 0.45152(13) 0.22405(18) 0.9859(4)
H1_8 H 0.4401 0.2248 0.8923
N1_9 N 0.76369(18) 0.26018(13) 0.9992(4)
C1_9 C 0.77595(18) 0.22746(13) 0.9859(4)
H1_9 H 0.7752 0.2152 0.8923
loop_
_geom_bond_atom_site_label_1
_geom_bond_atom_site_label_2
_geom_bond_site_symmetry_1
_geom_bond_site_symmetry_2
N5 C21 1_555 1_555
C21 H13 1_555 1_555
Co1 N2 1_555 1_555
N2 C7 1_555 1_555
N3 Co1 1_555 1_555
N4 C18 1_555 1_555
C7 C6 1_555 1_555
C8 C7 1_555 1_555
H5 C8 1_555 1_555
C9 C8 1_555 1_555
H6 C9 1_555 1_555
C10 N2 1_555 1_555
C11 C10 1_555 1_555
C12 N3 1_555 1_555
C13 C12 1_555 1_555
H7 C13 1_555 1_555
C14 C13 1_555 1_555
H8 C14 1_555 1_555
C15 C6 1_555 1_555
C16 C11 1_555 1_555
C17 C16 1_555 1_555
H9 C17 1_555 1_555
C18 C17 1_555 1_555
H10 C18 1_555 1_555
C19 N4 1_555 1_555
H11 C19 1_555 1_555
C20 C16 1_555 1_555
H12 C20 1_555 1_555
N6 Co1 1_555 1_555
N7 Co1 1_555 1_555
N8 C38 1_555 1_555
H14 C22 1_555 1_555
C23 C22 1_555 1_555
C24 C23 1_555 1_555
H15 C24 1_555 1_555
H16 C25 1_555 1_555
C26 C23 1_555 1_555
C27 N6 1_555 1_555
C28 C27 1_555 1_555
H17 C28 1_555 1_555
C29 C28 1_555 1_555
H18 C29 1_555 1_555
C30 N6 1_555 1_555
C31 C30 1_555 1_555
C32 N7 1_555 1_555
C35 N3 1_555 1_555
C36 C31 1_555 1_555
C37 C36 1_555 1_555
H21 C37 1_555 1_555
C38 C37 1_555 1_555
C39 N8 1_555 1_555
C40 C36 1_555 1_555
H24 C40 1_555 1_555
Co2 N4 1_555 1_555
Co3 N8 1_555 1_555
N9 Co1 1_555 1_555
N10 Co1 1_555 1_555
C9 C10 1_555 1_555
C11 C12 1_555 1_555
C14 C35 1_555 1_555
C15 N7 1_555 1_555
C19 C20 1_555 1_555
C24 C25 1_555 1_555
C26 C27 1_555 1_555
C26 C35 1_555 1_555
C29 C30 1_555 1_555
C31 C32 1_555 1_555
C39 C40 1_555 1_555
N4_2 C18_2 1_555 1_555
H9_2 C17_2 1_555 1_555
C18_2 C17_2 1_555 1_555
H10_2 C18_2 1_555 1_555
C19_2 N4_2 1_555 1_555
H11_2 C19_2 1_555 1_555
Co2_2 N4_2 1_555 1_555
C19_2 C20_2 1_555 1_555
Co1_2 N2_2 1_555 1_555
N2_2 C7_2 1_555 1_555
N3_2 Co1_2 1_555 1_555
C7_2 C6_2 1_555 1_555
C8_2 C7_2 1_555 1_555
H5_2 C8_2 1_555 1_555
C9_2 C8_2 1_555 1_555
C10_2 N2_2 1_555 1_555
C11_2 C10_2 1_555 1_555
C12_2 N3_2 1_555 1_555
C13_2 C12_2 1_555 1_555
H7_2 C13_2 1_555 1_555
C14_2 C13_2 1_555 1_555
H8_2 C14_2 1_555 1_555
C15_2 C6_2 1_555 1_555
C16_2 C11_2 1_555 1_555
N6_2 Co1_2 1_555 1_555
N7_2 Co1_2 1_555 1_555
N8_2 C38_2 1_555 1_555
H14_2 C22_2 1_555 1_555
C23_2 C22_2 1_555 1_555
C24_2 C23_2 1_555 1_555
H15_2 C24_2 1_555 1_555
H16_2 C25_2 1_555 1_555
C26_2 C23_2 1_555 1_555
C27_2 N6_2 1_555 1_555
C28_2 C27_2 1_555 1_555
H17_2 C28_2 1_555 1_555
C29_2 C28_2 1_555 1_555
H18_2 C29_2 1_555 1_555
C30_2 N6_2 1_555 1_555
C31_2 C30_2 1_555 1_555
C32_2 N7_2 1_555 1_555
C35_2 N3_2 1_555 1_555
C36_2 C31_2 1_555 1_555
C37_2 C36_2 1_555 1_555
H21_2 C37_2 1_555 1_555
C38_2 C37_2 1_555 1_555
H22 C38_2 1_555 1_555
C39_2 N8_2 1_555 1_555
C40_2 C36_2 1_555 1_555
H24_2 C40_2 1_555 1_555
Co3_2 N8_2 1_555 1_555
N9_2 Co1_2 1_555 1_555
N10_2 Co1_2 1_555 1_555
C9_2 C10_2 1_555 1_555
C11_2 C12_2 1_555 1_555
C14_2 C35_2 1_555 1_555
C15_2 N7_2 1_555 1_555
C24_2 C25_2 1_555 1_555
C26_2 C27_2 1_555 1_555
C26_2 C35_2 1_555 1_555
C29_2 C30_2 1_555 1_555
C31_2 C32_2 1_555 1_555
C39_2 C40_2 1_555 1_555
N1 C1 1_555 1_555
C1 H1 1_555 1_555
C2 C1 1_555 1_555
H2 C2 1_555 1_555
C3 C2 1_555 1_555
C4 C3 1_555 1_555
C5 N1 1_555 1_555
H4 C5 1_555 1_555
H19 C33 1_555 1_555
H20 C34 1_555 1_555
C4 C5 1_555 1_555
C33 C34 1_555 1_555
Co1_3 N2_3 1_555 1_555
N2_3 C7_3 1_555 1_555
N3_3 Co1_3 1_555 1_555
C7_3 C6_3 1_555 1_555
C8_3 C7_3 1_555 1_555
H5_3 C8_3 1_555 1_555
C9_3 C8_3 1_555 1_555
C10_3 N2_3 1_555 1_555
C11_3 C10_3 1_555 1_555
C12_3 N3_3 1_555 1_555
C13_3 C12_3 1_555 1_555
H7_3 C13_3 1_555 1_555
C14_3 C13_3 1_555 1_555
H8_3 C14_3 1_555 1_555
C15_3 C6_3 1_555 1_555
C16_3 C11_3 1_555 1_555
N6_3 Co1_3 1_555 1_555
N7_3 Co1_3 1_555 1_555
N8_3 C38_3 1_555 1_555
H14_3 C22_3 1_555 1_555
C23_3 C22_3 1_555 1_555
C24_3 C23_3 1_555 1_555
H15_3 C24_3 1_555 1_555
H16_3 C25_3 1_555 1_555
C26_3 C23_3 1_555 1_555
C27_3 N6_3 1_555 1_555
C28_3 C27_3 1_555 1_555
H17_3 C28_3 1_555 1_555
C29_3 C28_3 1_555 1_555
H18_3 C29_3 1_555 1_555
C30_3 N6_3 1_555 1_555
C31_3 C30_3 1_555 1_555
C32_3 N7_3 1_555 1_555
C35_3 N3_3 1_555 1_555
C36_3 C31_3 1_555 1_555
C37_3 C36_3 1_555 1_555
H21_3 C37_3 1_555 1_555
C38_3 C37_3 1_555 1_555
C39_3 N8_3 1_555 1_555
C40_3 C36_3 1_555 1_555
H24_3 C40_3 1_555 1_555
Co3_4 N8_3 1_555 1_555
N9_3 Co1_3 1_555 1_555
N10_3 Co1_3 1_555 1_555
C9_3 C10_3 1_555 1_555
C11_3 C12_3 1_555 1_555
C14_3 C35_3 1_555 1_555
C15_3 N7_3 1_555 1_555
C24_3 C25_3 1_555 1_555
C26_3 C27_3 1_555 1_555
C26_3 C35_3 1_555 1_555
C29_3 C30_3 1_555 1_555
C31_3 C32_3 1_555 1_555
C39_3 C40_3 1_555 1_555
N4_3 C18_3 1_555 1_555
H9_3 C17_3 1_555 1_555
C18_3 C17_3 1_555 1_555
H10_3 C18_3 1_555 1_555
C19_3 N4_3 1_555 1_555
H11_3 C19_3 1_555 1_555
Co2_3 N4_3 1_555 1_555
C19_3 C20_3 1_555 1_555
Co2_3 N2_4 1_555 1_555
N2_4 C7_4 1_555 1_555
N3_4 Co2_3 1_555 1_555
N4_4 C18_4 1_555 1_555
H2_2 C2_2 1_555 1_555
C3_2 C2_2 1_555 1_555
C4_2 C3_2 1_555 1_555
H3_4 C4_2 1_555 1_555
H4_2 C5_2 1_555 1_555
C6_4 C3_2 1_555 1_555
C7_4 C6_4 1_555 1_555
C8_4 C7_4 1_555 1_555
H5_4 C8_4 1_555 1_555
C9_4 C8_4 1_555 1_555
H6_4 C9_4 1_555 1_555
C10_4 N2_4 1_555 1_555
C11_4 C10_4 1_555 1_555
C12_4 N3_4 1_555 1_555
C15_4 C6_4 1_555 1_555
C16_4 C11_4 1_555 1_555
C17_4 C16_4 1_555 1_555
H9_4 C17_4 1_555 1_555
C18_4 C17_4 1_555 1_555
C19_4 N4_4 1_555 1_555
C20_4 C16_4 1_555 1_555
H12_4 C20_4 1_555 1_555
N6_4 Co2_3 1_555 1_555
N7_4 Co2_3 1_555 1_555
N10_2 C38_4 1_555 1_555
C27_4 N6_4 1_555 1_555
C28_4 C27_4 1_555 1_555
H17_4 C28_4 1_555 1_555
C29_4 C28_4 1_555 1_555
H18_4 C29_4 1_555 1_555
C30_4 N6_4 1_555 1_555
C31_4 C30_4 1_555 1_555
C32_4 N7_4 1_555 1_555
C33_2 C32_4 1_555 1_555
H19_2 C33_2 1_555 1_555
C34_2 C15_4 1_555 1_555
H20_2 C34_2 1_555 1_555
C35_4 N3_4 1_555 1_555
C36_4 C31_4 1_555 1_555
C37_4 C36_4 1_555 1_555
H21_4 C37_4 1_555 1_555
C38_4 C37_4 1_555 1_555
H22_2 C38_4 1_555 1_555
C39_4 N10_2 1_555 1_555
H23_2 C39_4 1_555 1_555
C40_4 C36_4 1_555 1_555
H24_4 C40_4 1_555 1_555
N10_4 Co2_3 1_555 1_555
C4_2 C5_2 1_555 1_555
C9_4 C10_4 1_555 1_555
C11_4 C12_4 1_555 1_555
C15_4 N7_4 1_555 1_555
C19_4 C20_4 1_555 1_555
C26_4 C27_4 1_555 1_555
C26_4 C35_4 1_555 1_555
C29_4 C30_4 1_555 1_555
C31_4 C32_4 1_555 1_555
C33_2 C34_2 1_555 1_555
C39_4 C40_4 1_555 1_555
H7_4 C13_4 1_555 1_555
C14_4 C13_4 1_555 1_555
H8_4 C14_4 1_555 1_555
N5_2 C21_2 1_555 1_555
C21_2 H13_2 1_555 1_555
C22_4 C21_2 1_555 1_555
H14_4 C22_4 1_555 1_555
C23_4 C22_4 1_555 1_555
C24_4 C23_4 1_555 1_555
C25_4 N5_2 1_555 1_555
H16_4 C25_4 1_555 1_555
C24_4 C25_4 1_555 1_555
Co2 N2_5 1_555 1_555
N2_5 C7_5 1_555 1_555
N3_5 Co2 1_555 1_555
N4_5 C18_5 1_555 1_555
H2_3 C2_3 1_555 1_555
C3_3 C2_3 1_555 1_555
C4_3 C3_3 1_555 1_555
H3_5 C4_3 1_555 1_555
H4_3 C5_3 1_555 1_555
C6_5 C3_3 1_555 1_555
C7_5 C6_5 1_555 1_555
C8_5 C7_5 1_555 1_555
H5_5 C8_5 1_555 1_555
C9_5 C8_5 1_555 1_555
H6_5 C9_5 1_555 1_555
C10_5 N2_5 1_555 1_555
C11_5 C10_5 1_555 1_555
C12_5 N3_5 1_555 1_555
C15_5 C6_5 1_555 1_555
C16_5 C11_5 1_555 1_555
C17_5 C16_5 1_555 1_555
H9_5 C17_5 1_555 1_555
C18_5 C17_5 1_555 1_555
H10_4 C18_5 1_555 1_555
C19_5 N4_5 1_555 1_555
C20_5 C16_5 1_555 1_555
H12_5 C20_5 1_555 1_555
N6_5 Co2 1_555 1_555
N7_5 Co2 1_555 1_555
C27_5 N6_5 1_555 1_555
C28_5 C27_5 1_555 1_555
H17_5 C28_5 1_555 1_555
C29_5 C28_5 1_555 1_555
C30_5 N6_5 1_555 1_555
C31_5 C30_5 1_555 1_555
C32_5 N7_5 1_555 1_555
C33_3 C32_5 1_555 1_555
H19_3 C33_3 1_555 1_555
C34_3 C15_5 1_555 1_555
H20_3 C34_3 1_555 1_555
C35_5 N3_5 1_555 1_555
C36_5 C31_5 1_555 1_555
Co3_3 N4_5 1_555 1_555
N10_5 Co2 1_555 1_555
C4_3 C5_3 1_555 1_555
C9_5 C10_5 1_555 1_555
C11_5 C12_5 1_555 1_555
C15_5 N7_5 1_555 1_555
C19_5 C20_5 1_555 1_555
C26_5 C27_5 1_555 1_555
C26_5 C35_5 1_555 1_555
C29_5 C30_5 1_555 1_555
C31_5 C32_5 1_555 1_555
C33_3 C34_3 1_555 1_555
N10_3 C38_5 1_555 1_555
H21_5 C37_5 1_555 1_555
C38_5 C37_5 1_555 1_555
H22_3 C38_5 1_555 1_555
C39_5 N10_3 1_555 1_555
H23_3 C39_5 1_555 1_555
C39_5 C40_5 1_555 1_555
N10 C38_6 1_555 1_555
H21_6 C37_6 1_555 1_555
C38_6 C37_6 1_555 1_555
H22_4 C38_6 1_555 1_555
C39_6 N10 1_555 1_555
H23_4 C39_6 1_555 1_555
C39_6 C40_6 1_555 1_555
Co2_2 N2_6 1_555 1_555
N2_6 C7_6 1_555 1_555
N3_6 Co2_2 1_555 1_555
N4_6 C18_6 1_555 1_555
H2_4 C2_4 1_555 1_555
C3_4 C2_4 1_555 1_555
C4_4 C3_4 1_555 1_555
H3_6 C4_4 1_555 1_555
H4_4 C5_4 1_555 1_555
C6_6 C3_4 1_555 1_555
C7_6 C6_6 1_555 1_555
C8_6 C7_6 1_555 1_555
H5_6 C8_6 1_555 1_555
C9_6 C8_6 1_555 1_555
H6_6 C9_6 1_555 1_555
C10_6 N2_6 1_555 1_555
C11_6 C10_6 1_555 1_555
C12_6 N3_6 1_555 1_555
C15_6 C6_6 1_555 1_555
C16_6 C11_6 1_555 1_555
C17_6 C16_6 1_555 1_555
H9_6 C17_6 1_555 1_555
C18_6 C17_6 1_555 1_555
C19_6 N4_6 1_555 1_555
C20_6 C16_6 1_555 1_555
H12_6 C20_6 1_555 1_555
N6_6 Co2_2 1_555 1_555
N7_6 Co2_2 1_555 1_555
C27_6 N6_6 1_555 1_555
C28_6 C27_6 1_555 1_555
H17_6 C28_6 1_555 1_555
C29_6 C28_6 1_555 1_555
C30_6 N6_6 1_555 1_555
C31_6 C30_6 1_555 1_555
C32_6 N7_6 1_555 1_555
C33_4 C32_6 1_555 1_555
H19_4 C33_4 1_555 1_555
C34_4 C15_6 1_555 1_555
H20_4 C34_4 1_555 1_555
C35_6 N3_6 1_555 1_555
C36_6 C31_6 1_555 1_555
N10_6 Co2_2 1_555 1_555
C4_4 C5_4 1_555 1_555
C9_6 C10_6 1_555 1_555
C11_6 C12_6 1_555 1_555
C15_6 N7_6 1_555 1_555
C19_6 C20_6 1_555 1_555
C26_6 C27_6 1_555 1_555
C26_6 C35_6 1_555 1_555
C29_6 C30_6 1_555 1_555
C31_6 C32_6 1_555 1_555
C33_4 C34_4 1_555 1_555
N10_5 C38_7 1_555 1_555
C33_5 C32_7 1_555 1_555
H19_5 C33_5 1_555 1_555
C36_7 C31_7 1_555 1_555
C37_7 C36_7 1_555 1_555
H21_7 C37_7 1_555 1_555
C38_7 C37_7 1_555 1_555
H22_5 C38_7 1_555 1_555
C39_7 N10_5 1_555 1_555
H23_5 C39_7 1_555 1_555
C40_7 C36_7 1_555 1_555
H24_7 C40_7 1_555 1_555
C31_7 C32_7 1_555 1_555
C39_7 C40_7 1_555 1_555
N9_2 C18_7 1_555 1_555
C13_5 C12_7 1_555 1_555
H7_5 C13_5 1_555 1_555
C16_7 C11_7 1_555 1_555
C17_7 C16_7 1_555 1_555
H9_7 C17_7 1_555 1_555
C18_7 C17_7 1_555 1_555
H10_5 C18_7 1_555 1_555
C19_7 N9_2 1_555 1_555
H11_5 C19_7 1_555 1_555
C20_7 C16_7 1_555 1_555
H12_7 C20_7 1_555 1_555
C11_7 C12_7 1_555 1_555
C19_7 C20_7 1_555 1_555
N9_3 C18_8 1_555 1_555
C13_6 C12_8 1_555 1_555
H7_6 C13_6 1_555 1_555
C16_8 C11_8 1_555 1_555
C17_8 C16_8 1_555 1_555
H9_8 C17_8 1_555 1_555
C18_8 C17_8 1_555 1_555
H10_6 C18_8 1_555 1_555
C19_8 N9_3 1_555 1_555
H11_6 C19_8 1_555 1_555
C20_8 C16_8 1_555 1_555
H12_8 C20_8 1_555 1_555
C11_8 C12_8 1_555 1_555
C19_8 C20_8 1_555 1_555
N10_6 C38_8 1_555 1_555
C33_6 C32_8 1_555 1_555
H19_6 C33_6 1_555 1_555
C36_8 C31_8 1_555 1_555
C37_8 C36_8 1_555 1_555
H21_8 C37_8 1_555 1_555
C38_8 C37_8 1_555 1_555
H22_6 C38_8 1_555 1_555
C39_8 N10_6 1_555 1_555
H23_6 C39_8 1_555 1_555
C40_8 C36_8 1_555 1_555
H24_8 C40_8 1_555 1_555
C31_8 C32_8 1_555 1_555
C39_8 C40_8 1_555 1_555
N3_7 Co3_2 1_555 1_555
N9 C18_9 1_555 1_555
C12_9 N3_7 1_555 1_555
C13_7 C12_9 1_555 1_555
H7_7 C13_7 1_555 1_555
C14_5 C13_7 1_555 1_555
H8_5 C14_5 1_555 1_555
C16_9 C11_9 1_555 1_555
C17_9 C16_9 1_555 1_555
H9_9 C17_9 1_555 1_555
C18_9 C17_9 1_555 1_555
H10_7 C18_9 1_555 1_555
C19_9 N9 1_555 1_555
H11_7 C19_9 1_555 1_555
C20_9 C16_9 1_555 1_555
H12_9 C20_9 1_555 1_555
N5_3 C21_3 1_555 1_555
N6_7 Co3_2 1_555 1_555
C21_3 H13_3 1_555 1_555
C22_5 C21_3 1_555 1_555
H14_5 C22_5 1_555 1_555
C23_5 C22_5 1_555 1_555
C24_5 C23_5 1_555 1_555
H15_7 C24_5 1_555 1_555
C25_5 N5_3 1_555 1_555
H16_5 C25_5 1_555 1_555
C26_7 C23_5 1_555 1_555
C27_7 N6_7 1_555 1_555
C28_7 C27_7 1_555 1_555
H17_7 C28_7 1_555 1_555
C29_7 C28_7 1_555 1_555
H18_7 C29_7 1_555 1_555
C30_7 N6_7 1_555 1_555
C35_7 N3_7 1_555 1_555
C11_9 C12_9 1_555 1_555
C14_5 C35_7 1_555 1_555
C19_9 C20_9 1_555 1_555
C24_5 C25_5 1_555 1_555
C26_7 C27_7 1_555 1_555
C26_7 C35_7 1_555 1_555
C29_7 C30_7 1_555 1_555
Co3_3 N2_7 1_555 1_555
N1_2 C1_2 1_555 1_555
N2_7 C7_7 1_555 1_555
C1_2 H1_2 1_555 1_555
C2_5 C1_2 1_555 1_555
H2_5 C2_5 1_555 1_555
C3_5 C2_5 1_555 1_555
C4_5 C3_5 1_555 1_555
H3_7 C4_5 1_555 1_555
C5_5 N1_2 1_555 1_555
H4_5 C5_5 1_555 1_555
C6_7 C3_5 1_555 1_555
C7_7 C6_7 1_555 1_555
C8_7 C7_7 1_555 1_555
H5_7 C8_7 1_555 1_555
C9_7 C8_7 1_555 1_555
H6_7 C9_7 1_555 1_555
C10_7 N2_7 1_555 1_555
C15_7 C6_7 1_555 1_555
N7_7 Co3_3 1_555 1_555
N10_4 C38_9 1_555 1_555
C32_9 N7_7 1_555 1_555
C33_7 C32_9 1_555 1_555
H19_7 C33_7 1_555 1_555
C34_5 C15_7 1_555 1_555
H20_5 C34_5 1_555 1_555
C36_9 C31_9 1_555 1_555
C37_9 C36_9 1_555 1_555
H21_9 C37_9 1_555 1_555
C38_9 C37_9 1_555 1_555
H22_7 C38_9 1_555 1_555
C39_9 N10_4 1_555 1_555
H23_7 C39_9 1_555 1_555
C40_9 C36_9 1_555 1_555
H24_9 C40_9 1_555 1_555
C4_5 C5_5 1_555 1_555
C9_7 C10_7 1_555 1_555
C15_7 N7_7 1_555 1_555
C31_9 C32_9 1_555 1_555
C33_7 C34_5 1_555 1_555
C39_9 C40_9 1_555 1_555
Co3_5 N4_4 1_555 1_555
Co3_6 N4_6 1_555 1_555
N1_3 C1_3 1_555 1_555
C1_3 H1_3 1_555 1_555
C2_6 C1_3 1_555 1_555
H2_6 C2_6 1_555 1_555
C3_6 C2_6 1_555 1_555
C4_6 C3_6 1_555 1_555
C5_6 N1_3 1_555 1_555
H4_6 C5_6 1_555 1_555
H19_8 C33_8 1_555 1_555
H20_6 C34_6 1_555 1_555
C4_6 C5_6 1_555 1_555
C33_8 C34_6 1_555 1_555
Co3_7 N2_8 1_555 1_555
N1_4 C1_4 1_555 1_555
N2_8 C7_8 1_555 1_555
C1_4 H1_4 1_555 1_555
C2_7 C1_4 1_555 1_555
H2_7 C2_7 1_555 1_555
C3_7 C2_7 1_555 1_555
C4_7 C3_7 1_555 1_555
H3_8 C4_7 1_555 1_555
C5_7 N1_4 1_555 1_555
H4_7 C5_7 1_555 1_555
C6_8 C3_7 1_555 1_555
C7_8 C6_8 1_555 1_555
C8_8 C7_8 1_555 1_555
H5_8 C8_8 1_555 1_555
C9_8 C8_8 1_555 1_555
H6_8 C9_8 1_555 1_555
C10_8 N2_8 1_555 1_555
C15_8 C6_8 1_555 1_555
N7_8 Co3_7 1_555 1_555
C34_7 C15_8 1_555 1_555
H20_7 C34_7 1_555 1_555
C4_7 C5_7 1_555 1_555
C9_8 C10_8 1_555 1_555
C15_8 N7_8 1_555 1_555
H7_8 C13_8 1_555 1_555
C14_6 C13_8 1_555 1_555
H8_6 C14_6 1_555 1_555
N5_4 C21_4 1_555 1_555
C21_4 H13_4 1_555 1_555
C22_6 C21_4 1_555 1_555
H14_6 C22_6 1_555 1_555
C23_6 C22_6 1_555 1_555
C24_6 C23_6 1_555 1_555
C25_6 N5_4 1_555 1_555
H16_6 C25_6 1_555 1_555
C24_6 C25_6 1_555 1_555
H8_7 C14_7 1_555 1_555
N5_5 C21_5 1_555 1_555
C21_5 H13_5 1_555 1_555
C22_7 C21_5 1_555 1_555
H14_7 C22_7 1_555 1_555
C23_7 C22_7 1_555 1_555
C24_7 C23_7 1_555 1_555
H15_8 C24_7 1_555 1_555
C25_7 N5_5 1_555 1_555
H16_7 C25_7 1_555 1_555
C26_8 C23_7 1_555 1_555
C27_8 N6_8 1_555 1_555
C28_8 C27_8 1_555 1_555
H17_8 C28_8 1_555 1_555
C29_8 C28_8 1_555 1_555
H18_8 C29_8 1_555 1_555
C30_8 N6_8 1_555 1_555
C35_8 N3_8 1_555 1_555
C14_7 C35_8 1_555 1_555
C24_7 C25_7 1_555 1_555
C26_8 C27_8 1_555 1_555
C26_8 C35_8 1_555 1_555
C29_8 C30_8 1_555 1_555
Co3_8 N6_8 1_555 1_555
N3_8 Co3_8 1_555 1_555
N5_6 C21_6 1_555 1_555
C21_6 H13_6 1_555 1_555
H7_9 C13_9 1_555 1_555
C14_8 C13_9 1_555 1_555
H8_8 C14_8 1_555 1_555
N5_7 C21_7 1_555 1_555
C21_7 H13_7 1_555 1_555
C22_8 C21_7 1_555 1_555
H14_8 C22_8 1_555 1_555
C23_8 C22_8 1_555 1_555
C24_8 C23_8 1_555 1_555
C25_8 N5_7 1_555 1_555
H16_8 C25_8 1_555 1_555
C24_8 C25_8 1_555 1_555
H8_9 C14_9 1_555 1_555
N5_8 C21_8 1_555 1_555
C21_8 H13_8 1_555 1_555
C22_9 C21_8 1_555 1_555
H14_9 C22_9 1_555 1_555
C23_9 C22_9 1_555 1_555
C24_9 C23_9 1_555 1_555
H15_9 C24_9 1_555 1_555
C25_9 N5_8 1_555 1_555
H16_9 C25_9 1_555 1_555
C26_9 C23_9 1_555 1_555
C27_9 N6_9 1_555 1_555
C28_9 C27_9 1_555 1_555
H17_9 C28_9 1_555 1_555
C29_9 C28_9 1_555 1_555
H18_9 C29_9 1_555 1_555
C30_9 N6_9 1_555 1_555
C35_9 N3_9 1_555 1_555
C14_9 C35_9 1_555 1_555
C24_9 C25_9 1_555 1_555
C26_9 C27_9 1_555 1_555
C26_9 C35_9 1_555 1_555
C29_9 C30_9 1_555 1_555
Co3_9 N6_9 1_555 1_555
N3_9 Co3_9 1_555 1_555
N5_9 C21_9 1_555 1_555
C21_9 H13_9 1_555 1_555
N1_5 C1_5 1_555 1_555
C1_5 H1_5 1_555 1_555
C2_8 C1_5 1_555 1_555
H2_8 C2_8 1_555 1_555
C3_8 C2_8 1_555 1_555
C4_8 C3_8 1_555 1_555
C5_8 N1_5 1_555 1_555
H4_8 C5_8 1_555 1_555
H19_9 C33_9 1_555 1_555
H20_8 C34_8 1_555 1_555
C4_8 C5_8 1_555 1_555
C33_9 C34_8 1_555 1_555
Co3_10 N2_9 1_555 1_555
N1_6 C1_6 1_555 1_555
N2_9 C7_9 1_555 1_555
C1_6 H1_6 1_555 1_555
C2_9 C1_6 1_555 1_555
H2_9 C2_9 1_555 1_555
C3_9 C2_9 1_555 1_555
C4_9 C3_9 1_555 1_555
H3_9 C4_9 1_555 1_555
C5_9 N1_6 1_555 1_555
H4_9 C5_9 1_555 1_555
C6_9 C3_9 1_555 1_555
C7_9 C6_9 1_555 1_555
C8_9 C7_9 1_555 1_555
H5_9 C8_9 1_555 1_555
C9_9 C8_9 1_555 1_555
H6_9 C9_9 1_555 1_555
C10_9 N2_9 1_555 1_555
C15_9 C6_9 1_555 1_555
N7_9 Co3_10 1_555 1_555
C34_9 C15_9 1_555 1_555
H20_9 C34_9 1_555 1_555
C4_9 C5_9 1_555 1_555
C9_9 C10_9 1_555 1_555
C15_9 N7_9 1_555 1_555
N1_7 C1_7 1_555 1_555
C1_7 H1_7 1_555 1_555
N1_8 C1_8 1_555 1_555
C1_8 H1_8 1_555 1_555
N1_9 C1_9 1_555 1_555
C1_9 H1_9 1_555 1_555

#END
