
###############################################################################
#
# This file contains modified crystal structure data generated from the
# MOF subset of the Cambridge Structural Database (CSD) v543 
# hosted by the Cambridge Crystallographic Data Centre (CCDC).
#
# This work is licensed under the Creative Commons
# Attribution-NonCommercial-ShareAlike 4.0 International License.
# To view a copy of this license, visit
# http://creativecommons.org/licenses/by-nc-sa/4.0/
# or send a letter to
# Creative Commons, PO Box 1866, Mountain View, CA 94042, USA.
#
# CIF created using the CSD Python API on 29 September 2022
# The structure has been converted into the P1 space group
# The structure has a 3D framework
# The original CSD entry YURJIH is in the rhombohedral crystal system
# The framework has been calculated to contain at least 10.0% void space
# The void calculation uses a probe of radius 1.32A, grid spacing 0.4
#
###############################################################################

data_YURJIH
_chemical_formula_moiety         '(C360 H216 Co11 N72)n'
_symmetry_cell_setting           triclinic
_symmetry_space_group_name_H-M   'P 1'
_symmetry_Int_Tables_number      1
_space_group_name_Hall           'P 1'
loop_
_symmetry_equiv_pos_site_id
_symmetry_equiv_pos_as_xyz
1 x,y,z
_cell_length_a                   32.7781(7)
_cell_length_b                   32.7781(7)
_cell_length_c                   9.2733(3)
_cell_angle_alpha                90
_cell_angle_beta                 90
_cell_angle_gamma                120
_cell_volume                     8628.44
loop_
_atom_site_label
_atom_site_type_symbol
_atom_site_fract_x
_atom_site_fract_y
_atom_site_fract_z
H18 H 0.002157 0.202426 0.247989
C33 C 0.02961(17) 0.28416(19) 0.0722(5)
H19 H 0.019605 0.297532 0.145328
C34 C 0.07638(17) 0.30597(18) 0.0326(5)
H20 H 0.098083 0.334121 0.081080
N8 N 0.09258(13) 0.28946(14) 0.9297(4)
C35 C 0.06119(18) 0.24957(18) 0.8658(6)
H21 H 0.072131 0.236983 0.793017
C36 C 0.01384(18) 0.22541(19) 0.8986(6)
Co3 Co 0.166666 0.333333 0.833334
Co1 Co 0.833333 0.166667 0.166667
N1 N 0.77531(12) 0.16483(12) 0.0949(4)
N2 N 0.79965(12) 0.13145(13) 0.3442(4)
N4 N 0.57409(13) 0.04387(14) 0.4036(4)
C9 C 0.69724(17) 0.14444(19) 0.0665(5)
H6 H 0.664510 0.130907 0.085344
C10 C 0.73126(16) 0.14094(16) 0.1558(5)
C11 C 0.72023(16) 0.11554(16) 0.2839(5)
C12 C 0.66931(16) 0.09050(18) 0.3280(5)
C13 C 0.63706(17) 0.04917(19) 0.2611(5)
H7 H 0.647062 0.035801 0.188005
C14 C 0.59029(17) 0.02736(18) 0.3007(5)
C15 C 0.60548(18) 0.08376(18) 0.4675(6)
H9 H 0.594536 0.096350 0.540316
C16 C 0.65283(18) 0.10792(19) 0.4347(6)
H10 H 0.673744 0.136055 0.484616
C17 C 0.75209(16) 0.11157(17) 0.3709(5)
C18 C 0.73975(18) 0.0835(2) 0.5011(6)
H11 H 0.709199 0.065978 0.542160
C19 C 0.77941(18) 0.08667(19) 0.5529(5)
H12 H 0.782281 0.072124 0.637893
C20 C 0.81700(16) 0.11640(17) 0.4552(5)
N5 N 0.89136(12) 0.16850(12) 0.2384(4)
N7 N 0.9024(2) 0.0748(3) 0.8379(7)
C21 C 0.8906(2) 0.1076(3) 0.8507(7)
H13 H 0.891542 0.120434 0.943493
C22 C 0.8769(2) 0.1240(2) 0.7350(6)
H14 H 0.867970 0.147171 0.749600
C23 C 0.87592(17) 0.10726(18) 0.5972(6)
C24 C 0.8888(2) 0.0729(2) 0.5824(8)
H15 H 0.889091 0.060254 0.490529
C25 C 0.9014(3) 0.0576(3) 0.7076(11)
H16 H 0.909626 0.033734 0.698537
C26 C 0.86292(16) 0.12559(16) 0.4679(5)
C27 C 0.89759(16) 0.15050(16) 0.3663(5)
C28 C 0.94599(17) 0.16279(18) 0.3821(6)
H17 H 0.959034 0.154095 0.459662
C29 C 0.96943(17) 0.18889(19) 0.2668(5)
C30 C 0.93541(16) 0.19239(16) 0.1775(5)
C31 C 0.94644(16) 0.21779(16) 0.0494(5)
C32 C 0.99736(16) 0.24283(18) 0.0053(5)
Co2 Co 0.500000 -0.000001 0.500000
N9 N 0.80311(19) 0.09258(13) 0.0703(4)
N10 N 0.86355(19) 0.24076(13) 0.2631(4)
H8 H 0.568584 0.999212 0.252253
Co2_2 Co 0.500000 0.999999 0.500000
H8_2 H 0.000788 0.569372 0.252253
Co2_3 Co 0.000001 0.500000 0.500000
Co1_2 Co 0.833333 0.666666 0.166667
N1_2 N 0.83517(12) 0.61048(17) 0.0949(4)
N2_2 N 0.86855(13) 0.66820(18) 0.3442(4)
N4_2 N 0.95613(14) 0.53022(19) 0.4036(4)
C9_2 C 0.85556(19) 0.55280(25) 0.0665(5)
H6_2 H 0.869093 0.533603 0.085344
C10_2 C 0.85906(16) 0.59032(23) 0.1558(5)
C11_2 C 0.88446(16) 0.60469(23) 0.2839(5)
C12_2 C 0.90950(18) 0.57881(24) 0.3280(5)
C13_2 C 0.95083(19) 0.58789(25) 0.2611(5)
H7_2 H 0.964199 0.611261 0.188005
C14_2 C 0.97264(18) 0.56293(25) 0.3007(5)
C15_2 C 0.91624(18) 0.52172(25) 0.4675(6)
H9_2 H 0.903650 0.498186 0.540316
C16_2 C 0.89208(19) 0.54491(26) 0.4347(6)
H10_2 H 0.863945 0.537689 0.484616
C17_2 C 0.88843(17) 0.64052(23) 0.3709(5)
C18_2 C 0.9165(2) 0.65625(27) 0.5011(6)
H11_2 H 0.934022 0.643221 0.542160
C19_2 C 0.91333(19) 0.69274(26) 0.5529(5)
H12_2 H 0.927876 0.710157 0.637893
C20_2 C 0.88360(17) 0.70060(23) 0.4552(5)
N5_2 N 0.83150(12) 0.72285(17) 0.2384(4)
N7_2 N 0.9252(3) 0.8275(4) 0.8379(7)
C21_2 C 0.8924(3) 0.7829(4) 0.8507(7)
H13_2 H 0.879566 0.771107 0.943493
C22_2 C 0.8760(2) 0.7528(3) 0.7350(6)
H14_2 H 0.852829 0.720798 0.749600
C23_2 C 0.89274(18) 0.76865(25) 0.5972(6)
C24_2 C 0.9271(2) 0.8158(3) 0.5824(8)
H15_2 H 0.939746 0.828836 0.490529
C25_2 C 0.9424(3) 0.8437(4) 0.7076(11)
H16_2 H 0.966266 0.875891 0.698537
C26_2 C 0.87441(16) 0.73732(23) 0.4679(5)
C27_2 C 0.84950(16) 0.74708(23) 0.3663(5)
C28_2 C 0.83721(18) 0.78319(25) 0.3821(6)
H17_2 H 0.845905 0.804938 0.459662
C29_2 C 0.81111(19) 0.78053(25) 0.2668(5)
H18_2 H 0.797574 0.799730 0.247989
C30_2 C 0.80761(16) 0.74301(23) 0.1775(5)
C31_2 C 0.78221(16) 0.72864(23) 0.0494(5)
C32_2 C 0.75717(18) 0.75452(24) 0.0053(5)
C33_2 C 0.71584(19) 0.74544(25) 0.0722(5)
H19_2 H 0.702468 0.722072 0.145328
C34_2 C 0.69403(18) 0.77040(25) 0.0326(5)
H20_2 H 0.665879 0.763961 0.081080
Co2_4 Co 1.000001 0.500000 0.500000
N9_2 N 0.90742(13) 0.71054(23) 0.0703(4)
N10_2 N 0.75924(13) 0.62280(23) 0.2631(4)
N3 N 0.7415(3) 0.5058(4) 0.4954(7)
C1 C 0.7743(3) 0.5504(4) 0.4826(7)
H1 H 0.787101 0.562226 0.389840
C2 C 0.7907(2) 0.5805(3) 0.5983(6)
H2 H 0.813838 0.612535 0.583733
C3 C 0.77393(18) 0.56468(25) 0.7361(6)
C4 C 0.7396(2) 0.5175(3) 0.7509(8)
H3 H 0.726921 0.504497 0.842804
C5 C 0.7243(3) 0.4896(4) 0.6257(11)
H4 H 0.700401 0.457442 0.634796
C6 C 0.79226(16) 0.59601(23) 0.8654(5)
C7 C 0.81717(16) 0.58625(23) 0.9670(5)
C8 C 0.82946(18) 0.55014(25) 0.9512(6)
H5 H 0.820762 0.528395 0.873671
N6 N 0.79812(13) 0.66513(18) 0.9891(4)
N8_2 N 0.71054(14) 0.80311(19) 0.9297(4)
C35_2 C 0.75043(18) 0.81161(25) 0.8658(6)
H21_2 H 0.763017 0.835147 0.793017
C36_2 C 0.77459(19) 0.78842(26) 0.8986(6)
H22 H 0.802722 0.795644 0.848717
C37 C 0.77824(17) 0.69281(23) 0.9624(5)
C38 C 0.7502(2) 0.67708(27) 0.8322(6)
H23 H 0.732645 0.690112 0.791173
C39 C 0.75334(19) 0.64059(26) 0.7804(5)
H24 H 0.738791 0.623176 0.695440
C40 C 0.78307(17) 0.63273(23) 0.8781(5)
Co3_2 Co 0.666667 0.833334 0.833334
Co1_3 Co 0.333334 0.166667 0.166667
N1_3 N 0.38952(17) 0.22469(12) 0.0949(4)
N2_3 N 0.33180(18) 0.20035(12) 0.3442(4)
N4_3 N 0.46978(19) 0.42591(13) 0.4036(4)
C9_3 C 0.44720(25) 0.30276(17) 0.0665(5)
H6_3 H 0.466397 0.335490 0.085344
C10_3 C 0.40968(23) 0.26874(16) 0.1558(5)
C11_3 C 0.39531(23) 0.27977(16) 0.2839(5)
C12_3 C 0.42119(24) 0.33069(16) 0.3280(5)
C13_3 C 0.41211(25) 0.36294(17) 0.2611(5)
H7_3 H 0.388739 0.352938 0.188005
C14_3 C 0.43707(25) 0.40971(17) 0.3007(5)
H8_3 H 0.430628 0.431416 0.252253
C15_3 C 0.47828(25) 0.39452(18) 0.4675(6)
H9_3 H 0.501814 0.405464 0.540316
C16_3 C 0.45509(26) 0.34717(18) 0.4347(6)
H10_3 H 0.462311 0.326256 0.484616
C17_3 C 0.35948(23) 0.24791(16) 0.3709(5)
C18_3 C 0.34375(27) 0.26025(18) 0.5011(6)
H11_3 H 0.356779 0.290801 0.542160
C19_3 C 0.30726(26) 0.22059(18) 0.5529(5)
H12_3 H 0.289843 0.217719 0.637893
C20_3 C 0.29940(23) 0.18300(16) 0.4552(5)
N5_3 N 0.27715(17) 0.10864(12) 0.2384(4)
N7_3 N 0.1725(4) 0.0976(2) 0.8379(7)
C21_3 C 0.2171(4) 0.1094(2) 0.8507(7)
H13_3 H 0.228893 0.108458 0.943493
C22_3 C 0.2472(3) 0.1231(2) 0.7350(6)
H14_3 H 0.279202 0.132030 0.749600
C23_3 C 0.23135(25) 0.12408(17) 0.5972(6)
C24_3 C 0.1842(3) 0.1112(2) 0.5824(8)
H15_3 H 0.171164 0.110909 0.490529
C25_3 C 0.1563(4) 0.0986(3) 0.7076(11)
H16_3 H 0.124109 0.090374 0.698537
C26_3 C 0.26268(23) 0.13708(16) 0.4679(5)
C27_3 C 0.25292(23) 0.10241(16) 0.3663(5)
C28_3 C 0.21681(25) 0.05401(17) 0.3821(6)
H17_3 H 0.195062 0.040966 0.459662
C29_3 C 0.21947(25) 0.03057(17) 0.2668(5)
C30_3 C 0.25699(23) 0.06459(16) 0.1775(5)
C31_3 C 0.27136(23) 0.05356(16) 0.0494(5)
C32_3 C 0.24548(24) 0.00264(16) 0.0053(5)
Co2_5 Co 0.500000 0.500000 0.500000
N9_3 N 0.28946(23) 0.19689(19) 0.0703(4)
N10_3 N 0.37720(23) 0.13645(19) 0.2631(4)
N8_3 N 0.19689(19) 0.90742(13) 0.9297(4)
C35_3 C 0.18839(25) 0.93881(18) 0.8658(6)
H21_3 H 0.164853 0.927869 0.793017
C36_3 C 0.21158(26) 0.98616(18) 0.8986(6)
Co3_3 Co 0.166666 0.833334 0.833334
N1_4 N 0.44198(12) 0.49816(12) 0.4282(4)
N2_4 N 0.46632(12) 0.46478(13) 0.6775(4)
N4_4 N 0.24076(13) 0.37720(14) 0.7369(4)
C3_2 C 0.45742(17) 0.55940(18) 0.0694(6)
C4_2 C 0.4446(2) 0.5937(2) 0.0842(8)
H3_2 H 0.444243 0.606412 0.176137
C6_2 C 0.47042(16) 0.54107(16) 0.1987(5)
C7_2 C 0.43575(16) 0.51616(16) 0.3003(5)
C8_2 C 0.38735(17) 0.50387(18) 0.2845(6)
H5_2 H 0.374300 0.512571 0.207004
C9_4 C 0.36391(17) 0.47777(19) 0.3998(5)
H6_4 H 0.331177 0.464240 0.418677
C10_4 C 0.39793(16) 0.47427(16) 0.4891(5)
C11_4 C 0.38690(16) 0.44887(16) 0.6172(5)
C12_4 C 0.33598(16) 0.42383(18) 0.6613(5)
C13_4 C 0.30373(17) 0.38250(19) 0.5944(5)
H7_4 H 0.313729 0.369134 0.521338
C14_4 C 0.25696(17) 0.36069(18) 0.6340(5)
H8_4 H 0.235251 0.332545 0.585586
C15_4 C 0.27215(18) 0.41709(18) 0.8008(6)
H9_4 H 0.261203 0.429683 0.873649
C16_4 C 0.31950(18) 0.44125(19) 0.7680(6)
H10_4 H 0.340411 0.469388 0.817949
C17_4 C 0.41876(16) 0.44490(17) 0.7042(5)
C18_4 C 0.40642(18) 0.4168(2) 0.8344(6)
H11_4 H 0.375866 0.399311 0.875493
C19_4 C 0.44608(18) 0.42000(19) 0.8862(5)
H12_4 H 0.448948 0.405457 0.971226
C20_4 C 0.48367(16) 0.44973(17) 0.7885(5)
N5_4 N 0.55802(12) 0.50184(12) 0.5718(4)
N6_2 N 0.53368(12) 0.53522(13) 0.3225(4)
C23_4 C 0.54258(17) 0.44060(18) 0.9306(6)
C24_4 C 0.5554(2) 0.4063(2) 0.9158(8)
H15_4 H 0.555757 0.393588 0.823863
C26_4 C 0.52958(16) 0.45893(16) 0.8013(5)
C27_4 C 0.56425(16) 0.48384(16) 0.6997(5)
C28_4 C 0.61265(17) 0.49613(18) 0.7155(6)
H17_4 H 0.625700 0.487429 0.792996
C29_4 C 0.63609(17) 0.52223(19) 0.6002(5)
H18_3 H 0.668823 0.535760 0.581323
C30_4 C 0.60207(16) 0.52573(16) 0.5109(5)
C31_4 C 0.61310(16) 0.55113(16) 0.3828(5)
C32_4 C 0.66402(16) 0.57617(18) 0.3387(5)
C33_3 C 0.69627(17) 0.61750(19) 0.4056(5)
H19_3 H 0.686271 0.630866 0.478662
C34_3 C 0.74304(17) 0.63931(18) 0.3660(5)
H20_3 H 0.764749 0.667455 0.414414
C35_4 C 0.72785(18) 0.58291(18) 0.1992(6)
H21_4 H 0.738797 0.570317 0.126351
C36_4 C 0.68050(18) 0.55875(19) 0.2320(6)
H22_2 H 0.659589 0.530612 0.182051
C37_2 C 0.58124(16) 0.55510(17) 0.2958(5)
C38_2 C 0.59358(18) 0.5832(2) 0.1656(6)
H23_2 H 0.624134 0.600689 0.124507
C39_2 C 0.55392(18) 0.58000(19) 0.1138(5)
H24_2 H 0.551052 0.594543 0.028774
C40_2 C 0.51633(16) 0.55027(17) 0.2115(5)
N10_4 N 0.53022(19) 0.57409(13) 0.5964(4)
N2_5 N 0.53522(13) 0.00153(18) 0.6775(4)
C19_5 C 0.58000(19) 0.02607(26) 0.8862(5)
H12_5 H 0.594543 0.043490 0.971226
C20_5 C 0.55027(17) 0.03393(23) 0.7885(5)
N5_5 N 0.49816(12) 0.05619(17) 0.5718(4)
C23_5 C 0.55940(18) 0.10199(25) 0.9306(6)
C24_5 C 0.5937(2) 0.1492(3) 0.9158(8)
H15_5 H 0.606412 0.162170 0.823863
C26_5 C 0.54107(16) 0.07066(23) 0.8013(5)
C27_5 C 0.51616(16) 0.08042(23) 0.6997(5)
C28_5 C 0.50387(18) 0.11653(25) 0.7155(6)
H17_5 H 0.512571 0.138272 0.792996
C29_5 C 0.47777(19) 0.11387(25) 0.6002(5)
H18_4 H 0.464240 0.133064 0.581323
C30_5 C 0.47427(16) 0.07635(23) 0.5109(5)
C31_5 C 0.44887(16) 0.06198(23) 0.3828(5)
C32_5 C 0.42383(18) 0.08786(24) 0.3387(5)
C33_4 C 0.38250(19) 0.07878(25) 0.4056(5)
H19_4 H 0.369134 0.055406 0.478662
C34_4 C 0.36069(18) 0.10374(25) 0.3660(5)
H20_4 H 0.332545 0.097295 0.414414
C35_5 C 0.41709(18) 0.14495(25) 0.1992(6)
H21_5 H 0.429683 0.168481 0.126351
C36_5 C 0.44125(19) 0.12176(26) 0.2320(6)
H22_3 H 0.469388 0.128978 0.182051
C37_3 C 0.44490(17) 0.02615(23) 0.2958(5)
C38_3 C 0.4168(2) 0.01042(27) 0.1656(6)
H23_3 H 0.399311 0.023446 0.124507
N1_5 N 0.50184(12) 0.94381(17) 0.4282(4)
N4_5 N 0.62280(14) 0.86355(19) 0.7369(4)
C3_3 C 0.44060(18) 0.89801(25) 0.0694(6)
C4_3 C 0.4063(2) 0.8508(3) 0.0842(8)
H3_3 H 0.393588 0.837830 0.176137
C6_3 C 0.45893(16) 0.92934(23) 0.1987(5)
C7_3 C 0.48384(16) 0.91958(23) 0.3003(5)
C8_3 C 0.49613(18) 0.88347(25) 0.2845(6)
H5_3 H 0.487429 0.861728 0.207004
C9_5 C 0.52223(19) 0.88613(25) 0.3998(5)
H6_5 H 0.535760 0.866936 0.418677
C10_5 C 0.52573(16) 0.92365(23) 0.4891(5)
C11_5 C 0.55113(16) 0.93802(23) 0.6172(5)
C12_5 C 0.57617(18) 0.91214(24) 0.6613(5)
C13_5 C 0.61750(19) 0.92122(25) 0.5944(5)
H7_5 H 0.630866 0.944594 0.521338
C14_5 C 0.63931(18) 0.89626(25) 0.6340(5)
H8_5 H 0.667455 0.902705 0.585586
C15_5 C 0.58291(18) 0.85505(25) 0.8008(6)
H9_5 H 0.570317 0.831519 0.873649
C16_5 C 0.55875(19) 0.87824(26) 0.7680(6)
H10_5 H 0.530612 0.871022 0.817949
C17_5 C 0.55510(17) 0.97385(23) 0.7042(5)
C18_5 C 0.5832(2) 0.98958(27) 0.8344(6)
H11_5 H 0.600689 0.976554 0.875493
N6_3 N 0.46478(13) 0.99847(18) 0.3225(4)
C39_3 C 0.42000(19) 0.97393(26) 0.1138(5)
H24_3 H 0.405457 0.956510 0.028774
C40_3 C 0.44973(17) 0.96607(23) 0.2115(5)
N10_5 N 0.42591(13) 0.95613(23) 0.5964(4)
N1_6 N 0.05619(17) 0.55802(12) 0.4282(4)
N4_6 N 0.13645(19) 0.75924(13) 0.7369(4)
C3_4 C 0.10199(25) 0.54258(17) 0.0694(6)
C4_4 C 0.1492(3) 0.5554(2) 0.0842(8)
H3_4 H 0.162170 0.555757 0.176137
C6_4 C 0.07066(23) 0.52958(16) 0.1987(5)
C7_4 C 0.08042(23) 0.56425(16) 0.3003(5)
C8_4 C 0.11653(25) 0.61265(17) 0.2845(6)
H5_4 H 0.138272 0.625700 0.207004
C9_6 C 0.11387(25) 0.63609(17) 0.3998(5)
H6_6 H 0.133064 0.668823 0.418677
C10_6 C 0.07635(23) 0.60207(16) 0.4891(5)
C11_6 C 0.06198(23) 0.61310(16) 0.6172(5)
C12_6 C 0.08786(24) 0.66402(16) 0.6613(5)
C13_6 C 0.07878(25) 0.69627(17) 0.5944(5)
H7_6 H 0.055406 0.686271 0.521338
C14_6 C 0.10374(25) 0.74304(17) 0.6340(5)
H8_6 H 0.097295 0.764749 0.585586
C15_6 C 0.14495(25) 0.72785(18) 0.8008(6)
H9_6 H 0.168481 0.738797 0.873649
C16_6 C 0.12176(26) 0.68050(18) 0.7680(6)
H10_6 H 0.128978 0.659589 0.817949
C17_6 C 0.02615(23) 0.58124(16) 0.7042(5)
C18_6 C 0.01042(27) 0.59358(18) 0.8344(6)
H11_6 H 0.023446 0.624134 0.875493
N6_4 N 0.00153(18) 0.46632(12) 0.3225(4)
C39_4 C 0.02607(26) 0.44608(18) 0.1138(5)
H24_4 H 0.043490 0.448948 0.028774
C40_4 C 0.03393(23) 0.48367(16) 0.2115(5)
N10_6 N 0.04387(23) 0.46978(19) 0.5964(4)
N2_6 N 0.99847(18) 0.53368(12) 0.6775(4)
C19_6 C 0.97393(26) 0.55392(18) 0.8862(5)
H12_6 H 0.956510 0.551052 0.971226
C20_6 C 0.96607(23) 0.51633(16) 0.7885(5)
N5_6 N 0.94381(17) 0.44198(12) 0.5718(4)
C23_6 C 0.89801(25) 0.45742(17) 0.9306(6)
C24_6 C 0.8508(3) 0.4446(2) 0.9158(8)
H15_6 H 0.837830 0.444243 0.823863
C26_6 C 0.92934(23) 0.47042(16) 0.8013(5)
C27_6 C 0.91958(23) 0.43575(16) 0.6997(5)
C28_6 C 0.88347(25) 0.38735(17) 0.7155(6)
H17_6 H 0.861728 0.374300 0.792996
C29_6 C 0.88613(25) 0.36391(17) 0.6002(5)
H18_5 H 0.866936 0.331177 0.581323
C30_6 C 0.92365(23) 0.39793(16) 0.5109(5)
C31_6 C 0.93802(23) 0.38690(16) 0.3828(5)
C32_6 C 0.91214(24) 0.33598(16) 0.3387(5)
C33_5 C 0.92122(25) 0.30373(17) 0.4056(5)
H19_5 H 0.944594 0.313729 0.478662
C34_5 C 0.89626(25) 0.25696(17) 0.3660(5)
H20_5 H 0.902705 0.235251 0.414414
C35_6 C 0.85505(25) 0.27215(18) 0.1992(6)
H21_6 H 0.831519 0.261203 0.126351
C36_6 C 0.87824(26) 0.31950(18) 0.2320(6)
H22_4 H 0.871022 0.340411 0.182051
C37_4 C 0.97385(23) 0.41876(16) 0.2958(5)
C38_4 C 0.98958(27) 0.40642(18) 0.1656(6)
H23_4 H 0.976554 0.375866 0.124507
H20_6 H 0.431416 0.000788 0.747747
N1_7 N 0.10864(12) 0.83150(12) 0.7616(4)
N3_2 N 0.0976(2) 0.9252(3) 0.1621(7)
C1_2 C 0.1094(2) 0.8924(3) 0.1493(7)
H1_2 H 0.108458 0.879566 0.056507
C2_2 C 0.1231(2) 0.8760(2) 0.2650(6)
H2_2 H 0.132030 0.852829 0.250400
C3_5 C 0.12408(17) 0.89274(18) 0.4028(6)
C4_5 C 0.1112(2) 0.9271(2) 0.4176(8)
H3_5 H 0.110909 0.939746 0.509471
C5_2 C 0.0986(3) 0.9424(3) 0.2924(11)
H4_2 H 0.090374 0.966266 0.301463
C6_5 C 0.13708(16) 0.87441(16) 0.5321(5)
C7_5 C 0.10241(16) 0.84950(16) 0.6337(5)
C8_5 C 0.05401(17) 0.83721(18) 0.6179(6)
H5_5 H 0.040966 0.845905 0.540338
C9_7 C 0.03057(17) 0.81111(19) 0.7332(5)
C10_7 C 0.06459(16) 0.80761(16) 0.8225(5)
C11_7 C 0.05356(16) 0.78221(16) 0.9506(5)
C12_7 C 0.00264(16) 0.75717(18) 0.9947(5)
N5_7 N 0.22469(12) 0.83517(12) 0.9051(4)
N6_5 N 0.20035(12) 0.86855(13) 0.6558(4)
C29_7 C 0.30276(17) 0.85556(19) 0.9335(5)
H18_6 H 0.335490 0.869093 0.914656
C30_7 C 0.26874(16) 0.85906(16) 0.8442(5)
C31_7 C 0.27977(16) 0.88446(16) 0.7161(5)
C32_7 C 0.33069(16) 0.90950(18) 0.6720(5)
C33_6 C 0.36294(17) 0.95083(19) 0.7389(5)
H19_6 H 0.352938 0.964199 0.811995
C34_6 C 0.40971(17) 0.97264(18) 0.6993(5)
C35_7 C 0.39452(18) 0.91624(18) 0.5325(6)
H21_7 H 0.405464 0.903650 0.459684
C36_7 C 0.34717(18) 0.89208(19) 0.5653(6)
H22_5 H 0.326256 0.863945 0.515384
C37_5 C 0.24791(16) 0.88843(17) 0.6291(5)
C38_5 C 0.26025(18) 0.9165(2) 0.4989(6)
H23_5 H 0.290801 0.934022 0.457840
C39_5 C 0.22059(18) 0.91333(19) 0.4471(5)
H24_5 H 0.217719 0.927876 0.362107
C40_5 C 0.18300(16) 0.88360(17) 0.5448(5)
C15_7 C 0.93881(18) 0.75043(18) 0.1342(6)
H9_7 H 0.927869 0.763017 0.206983
C16_7 C 0.98616(18) 0.77459(19) 0.1014(6)
N2_7 N 0.20188(13) 0.33487(18) 0.0109(4)
C15_8 C 0.24957(18) 0.18839(25) 0.1342(6)
H9_8 H 0.236983 0.164853 0.206983
C16_8 C 0.22541(19) 0.21158(26) 0.1014(6)
H10_7 H 0.197278 0.204356 0.151283
C17_7 C 0.22176(17) 0.30719(23) 0.0376(5)
C18_7 C 0.2498(2) 0.32292(27) 0.1678(6)
H11_7 H 0.267355 0.309888 0.208827
C19_7 C 0.24666(19) 0.35941(26) 0.2196(5)
H12_7 H 0.261209 0.376824 0.304560
C20_7 C 0.21693(17) 0.36727(23) 0.1219(5)
N7_4 N 0.2585(3) 0.4942(4) 0.5046(7)
C21_4 C 0.2257(3) 0.4496(4) 0.5174(7)
H13_4 H 0.212899 0.437774 0.610160
C22_4 C 0.2093(2) 0.4195(3) 0.4017(6)
H14_4 H 0.186162 0.387465 0.416267
C23_7 C 0.22607(18) 0.43532(25) 0.2639(6)
C24_7 C 0.2604(2) 0.4825(3) 0.2491(8)
H15_7 H 0.273079 0.495503 0.157196
C25_4 C 0.2757(3) 0.5104(4) 0.3743(11)
H16_4 H 0.299599 0.542558 0.365204
C26_7 C 0.20774(16) 0.40399(23) 0.1346(5)
C27_7 C 0.18283(16) 0.41375(23) 0.0330(5)
C28_7 C 0.17054(18) 0.44986(25) 0.0488(6)
H17_7 H 0.179238 0.471605 0.126329
N1_8 N 0.16850(12) 0.27715(17) 0.7616(4)
N3_3 N 0.0748(3) 0.1725(4) 0.1621(7)
C1_3 C 0.1076(3) 0.2171(4) 0.1493(7)
H1_3 H 0.120434 0.228893 0.056507
C2_3 C 0.1240(2) 0.2472(3) 0.2650(6)
H2_3 H 0.147171 0.279202 0.250400
C3_6 C 0.10726(18) 0.23135(25) 0.4028(6)
C4_6 C 0.0729(2) 0.1842(3) 0.4176(8)
H3_6 H 0.060254 0.171164 0.509471
C5_3 C 0.0576(3) 0.1563(4) 0.2924(11)
H4_3 H 0.033734 0.124109 0.301463
C6_6 C 0.12559(16) 0.26268(23) 0.5321(5)
C7_6 C 0.15050(16) 0.25292(23) 0.6337(5)
C8_6 C 0.16279(18) 0.21681(25) 0.6179(6)
H5_6 H 0.154095 0.195062 0.540338
C9_8 C 0.18889(19) 0.21947(25) 0.7332(5)
H6_7 H 0.202426 0.200270 0.752011
C10_8 C 0.19239(16) 0.25699(23) 0.8225(5)
C11_8 C 0.21779(16) 0.27136(23) 0.9506(5)
C12_8 C 0.24283(18) 0.24548(24) 0.9947(5)
C13_7 C 0.28416(19) 0.25456(25) 0.9278(5)
H7_7 H 0.297532 0.277928 0.854672
C14_7 C 0.30597(18) 0.22960(25) 0.9674(5)
H8_7 H 0.334121 0.236039 0.918920
N5_8 N 0.16483(12) 0.38952(17) 0.9051(4)
N6_6 N 0.13145(13) 0.33180(18) 0.6558(4)
C29_8 C 0.14444(19) 0.44720(25) 0.9335(5)
H18_7 H 0.130907 0.466397 0.914656
C30_8 C 0.14094(16) 0.40968(23) 0.8442(5)
C31_8 C 0.11554(16) 0.39531(23) 0.7161(5)
C32_8 C 0.09050(18) 0.42119(24) 0.6720(5)
C33_7 C 0.04917(19) 0.41211(25) 0.7389(5)
H19_7 H 0.035801 0.388739 0.811995
C34_7 C 0.02736(18) 0.43707(25) 0.6993(5)
C35_8 C 0.08376(18) 0.47828(25) 0.5325(6)
H21_8 H 0.096350 0.501814 0.459684
C36_8 C 0.10792(19) 0.45509(26) 0.5653(6)
H22_6 H 0.136055 0.462311 0.515384
C37_6 C 0.11157(17) 0.35948(23) 0.6291(5)
C38_6 C 0.0835(2) 0.34375(27) 0.4989(6)
H23_6 H 0.065978 0.356779 0.457840
C39_6 C 0.08667(19) 0.30726(26) 0.4471(5)
H24_6 H 0.072124 0.289843 0.362107
C40_6 C 0.11640(17) 0.29940(23) 0.5448(5)
H20_7 H 0.999212 0.430628 0.747747
C15_9 C 0.81161(25) 0.06119(18) 0.1342(6)
H9_9 H 0.835147 0.072131 0.206983
C16_9 C 0.78842(26) 0.01384(18) 0.1014(6)
N1_9 N 0.72285(17) 0.89136(12) 0.7616(4)
N3_4 N 0.8275(4) 0.9024(2) 0.1621(7)
C1_4 C 0.7829(4) 0.8906(2) 0.1493(7)
H1_4 H 0.771107 0.891542 0.056507
C2_4 C 0.7528(3) 0.8769(2) 0.2650(6)
H2_4 H 0.720798 0.867970 0.250400
C3_7 C 0.76865(25) 0.87592(17) 0.4028(6)
C4_7 C 0.8158(3) 0.8888(2) 0.4176(8)
H3_7 H 0.828836 0.889091 0.509471
C5_4 C 0.8437(4) 0.9014(3) 0.2924(11)
H4_4 H 0.875891 0.909626 0.301463
C6_7 C 0.73732(23) 0.86292(16) 0.5321(5)
C7_7 C 0.74708(23) 0.89759(16) 0.6337(5)
C8_7 C 0.78319(25) 0.94599(17) 0.6179(6)
H5_7 H 0.804938 0.959034 0.540338
C9_9 C 0.78053(25) 0.96943(17) 0.7332(5)
C10_9 C 0.74301(23) 0.93541(16) 0.8225(5)
C11_9 C 0.72864(23) 0.94644(16) 0.9506(5)
C12_9 C 0.75452(24) 0.99736(16) 0.9947(5)
N5_9 N 0.61048(17) 0.77531(12) 0.9051(4)
N6_7 N 0.66820(18) 0.79965(12) 0.6558(4)
C29_9 C 0.55280(25) 0.69724(17) 0.9335(5)
H18_8 H 0.533603 0.664510 0.914656
C30_9 C 0.59032(23) 0.73126(16) 0.8442(5)
C31_9 C 0.60469(23) 0.72023(16) 0.7161(5)
C32_9 C 0.57881(24) 0.66931(16) 0.6720(5)
C33_8 C 0.58789(25) 0.63706(17) 0.7389(5)
H19_8 H 0.611261 0.647062 0.811995
C34_8 C 0.56293(25) 0.59029(17) 0.6993(5)
H20_8 H 0.569372 0.568584 0.747747
C35_9 C 0.52172(25) 0.60548(18) 0.5325(6)
H21_9 H 0.498186 0.594536 0.459684
C36_9 C 0.54491(26) 0.65283(18) 0.5653(6)
H22_7 H 0.537689 0.673744 0.515384
C37_7 C 0.64052(23) 0.75209(16) 0.6291(5)
C38_7 C 0.65625(27) 0.73975(18) 0.4989(6)
H23_7 H 0.643221 0.709199 0.457840
C39_7 C 0.69274(26) 0.77941(18) 0.4471(5)
H24_7 H 0.710157 0.782281 0.362107
C40_7 C 0.70060(23) 0.81700(16) 0.5448(5)
N3_5 N 0.7643(2) 0.2585(3) 0.4954(7)
C1_5 C 0.7761(2) 0.2257(3) 0.4826(7)
H1_5 H 0.775125 0.212899 0.389840
C2_5 C 0.7898(2) 0.2093(2) 0.5983(6)
H2_5 H 0.798697 0.186162 0.583733
C3_8 C 0.79075(17) 0.22607(18) 0.7361(6)
C4_8 C 0.7779(2) 0.2604(2) 0.7509(8)
H3_8 H 0.777576 0.273079 0.842804
C5_5 C 0.7653(3) 0.2757(3) 0.6257(11)
H4_5 H 0.757041 0.299599 0.634796
C6_8 C 0.80375(16) 0.20774(16) 0.8654(5)
C7_8 C 0.76908(16) 0.18283(16) 0.9670(5)
C8_8 C 0.72068(17) 0.17054(18) 0.9512(6)
H5_8 H 0.707633 0.179238 0.873671
N6_8 N 0.86702(12) 0.20188(13) 0.9891(4)
H22_8 H 0.992923 0.197278 0.848717
C37_8 C 0.91458(16) 0.22176(17) 0.9624(5)
C38_8 C 0.92692(18) 0.2498(2) 0.8322(6)
H23_8 H 0.957468 0.267355 0.791173
C39_8 C 0.88726(18) 0.24666(19) 0.7804(5)
H24_8 H 0.884386 0.261209 0.695440
C40_8 C 0.84967(16) 0.21693(17) 0.8781(5)
N3_6 N 0.4942(4) 0.2357(2) 0.4954(7)
C1_6 C 0.4496(4) 0.2239(2) 0.4826(7)
H1_6 H 0.437774 0.224875 0.389840
C2_6 C 0.4195(3) 0.2102(2) 0.5983(6)
H2_6 H 0.387465 0.201303 0.583733
C3_9 C 0.43532(25) 0.20925(17) 0.7361(6)
C4_9 C 0.4825(3) 0.2221(2) 0.7509(8)
H3_9 H 0.495503 0.222424 0.842804
C5_6 C 0.5104(4) 0.2347(3) 0.6257(11)
H4_6 H 0.542558 0.242959 0.634796
C6_9 C 0.40399(23) 0.19625(16) 0.8654(5)
C7_9 C 0.41375(23) 0.23092(16) 0.9670(5)
C8_9 C 0.44986(25) 0.27932(17) 0.9512(6)
H5_9 H 0.471605 0.292367 0.873671
N6_9 N 0.33487(18) 0.13298(12) 0.9891(4)
H22_9 H 0.204356 0.007077 0.848717
C37_9 C 0.30719(23) 0.08542(16) 0.9624(5)
C38_9 C 0.32292(27) 0.07308(18) 0.8322(6)
H23_9 H 0.309888 0.042532 0.791173
C39_9 C 0.35941(26) 0.11274(18) 0.7804(5)
H24_9 H 0.376824 0.115614 0.695440
C40_9 C 0.36727(23) 0.15033(16) 0.8781(5)
H18_9 H 0.200270 0.997843 0.247989
C33_9 C 0.25456(25) 0.97039(17) 0.0722(5)
H19_9 H 0.277928 0.980395 0.145328
C34_9 C 0.22960(25) 0.92362(17) 0.0326(5)
H20_9 H 0.236039 0.901917 0.081080
N7_5 N 0.5690(2) 0.4082(3) 0.1713(7)
C21_5 C 0.5572(2) 0.4410(3) 0.1841(7)
H13_5 H 0.558208 0.453768 0.276827
C22_5 C 0.5435(2) 0.4574(2) 0.0684(6)
H14_5 H 0.534636 0.480505 0.082934
C25_5 C 0.5680(3) 0.3910(3) 0.0410(11)
H16_5 H 0.576292 0.367068 0.031871
N3_7 N 0.4310(2) 0.5918(3) 0.8287(7)
C1_7 C 0.4428(2) 0.5590(3) 0.8159(7)
H1_7 H 0.441792 0.546232 0.723173
C2_7 C 0.4565(2) 0.5426(2) 0.9316(6)
H2_7 H 0.465364 0.519495 0.917066
C5_7 C 0.4320(3) 0.6090(3) 0.9590(11)
H4_7 H 0.423708 0.632932 0.968129
N7_6 N 0.5918(3) 0.1609(4) 0.1713(7)
C21_6 C 0.5590(3) 0.1163(4) 0.1841(7)
H13_6 H 0.546232 0.104441 0.276827
C22_6 C 0.5426(2) 0.0862(3) 0.0684(6)
H14_6 H 0.519495 0.054132 0.082934
C25_6 C 0.6090(3) 0.1771(4) 0.0410(11)
H16_6 H 0.632932 0.209225 0.031871
N3_8 N 0.4082(3) 0.8391(4) 0.8287(7)
C1_8 C 0.4410(3) 0.8837(4) 0.8159(7)
H1_8 H 0.453768 0.895559 0.723173
C2_8 C 0.4574(2) 0.9138(3) 0.9316(6)
H2_8 H 0.480505 0.945868 0.917066
C5_8 C 0.3910(3) 0.8229(4) 0.9590(11)
H4_8 H 0.367068 0.790775 0.968129
N3_9 N 0.1609(4) 0.5690(2) 0.8287(7)
C1_9 C 0.1163(4) 0.5572(2) 0.8159(7)
H1_9 H 0.104441 0.558208 0.723173
C2_9 C 0.0862(3) 0.5435(2) 0.9316(6)
H2_9 H 0.054132 0.534636 0.917066
C5_9 C 0.1771(4) 0.5680(3) 0.9590(11)
H4_9 H 0.209225 0.576292 0.968129
N7_7 N 0.8391(4) 0.4310(2) 0.1713(7)
C21_7 C 0.8837(4) 0.4428(2) 0.1841(7)
H13_7 H 0.895559 0.441792 0.276827
C22_7 C 0.9138(3) 0.4565(2) 0.0684(6)
H14_7 H 0.945868 0.465364 0.082934
C25_7 C 0.8229(4) 0.4320(3) 0.0410(11)
H16_7 H 0.790775 0.423708 0.031871
N2_8 N 0.13298(12) 0.79812(13) 0.0109(4)
H10_8 H 0.007077 0.802722 0.151283
C17_8 C 0.08542(16) 0.77824(17) 0.0376(5)
C18_8 C 0.07308(18) 0.7502(2) 0.1678(6)
H11_8 H 0.042532 0.732645 0.208827
C19_8 C 0.11274(18) 0.75334(19) 0.2196(5)
H12_8 H 0.115614 0.738791 0.304560
C20_8 C 0.15033(16) 0.78307(17) 0.1219(5)
N7_8 N 0.2357(2) 0.7415(3) 0.5046(7)
C21_8 C 0.2239(2) 0.7743(3) 0.5174(7)
H13_8 H 0.224875 0.787101 0.610160
C22_8 C 0.2102(2) 0.7907(2) 0.4017(6)
H14_8 H 0.201303 0.813838 0.416267
C23_8 C 0.20925(17) 0.77393(18) 0.2639(6)
C24_8 C 0.2221(2) 0.7396(2) 0.2491(8)
H15_8 H 0.222424 0.726921 0.157196
C25_8 C 0.2347(3) 0.7243(3) 0.3743(11)
H16_8 H 0.242959 0.700401 0.365204
C26_8 C 0.19625(16) 0.79226(16) 0.1346(5)
C27_8 C 0.23092(16) 0.81717(16) 0.0330(5)
C28_8 C 0.27932(17) 0.82946(18) 0.0488(6)
H17_8 H 0.292367 0.820762 0.126329
H6_8 H 0.997843 0.797574 0.752011
C13_8 C 0.97039(17) 0.71584(19) 0.9278(5)
H7_8 H 0.980395 0.702468 0.854672
C14_8 C 0.92362(17) 0.69403(18) 0.9674(5)
H8_8 H 0.901917 0.665879 0.918920
H6_9 H 0.799730 0.002157 0.752011
C13_9 C 0.74544(25) 0.02961(17) 0.9278(5)
H7_9 H 0.722072 0.019605 0.854672
C14_9 C 0.77040(25) 0.07638(17) 0.9674(5)
H8_9 H 0.763961 0.098083 0.918920
N2_9 N 0.66513(18) 0.86702(12) 0.0109(4)
H10_9 H 0.795644 0.992923 0.151283
C17_9 C 0.69281(23) 0.91458(16) 0.0376(5)
C18_9 C 0.67708(27) 0.92692(18) 0.1678(6)
H11_9 H 0.690112 0.957468 0.208827
C19_9 C 0.64059(26) 0.88726(18) 0.2196(5)
H12_9 H 0.623176 0.884386 0.304560
C20_9 C 0.63273(23) 0.84967(16) 0.1219(5)
N7_9 N 0.5058(4) 0.7643(2) 0.5046(7)
C21_9 C 0.5504(4) 0.7761(2) 0.5174(7)
H13_9 H 0.562226 0.775125 0.610160
C22_9 C 0.5805(3) 0.7898(2) 0.4017(6)
H14_9 H 0.612535 0.798697 0.416267
C23_9 C 0.56468(25) 0.79075(17) 0.2639(6)
C24_9 C 0.5175(3) 0.7779(2) 0.2491(8)
H15_9 H 0.504497 0.777576 0.157196
C25_9 C 0.4896(4) 0.7653(3) 0.3743(11)
H16_9 H 0.457442 0.757041 0.365204
C26_9 C 0.59601(23) 0.80375(16) 0.1346(5)
C27_9 C 0.58625(23) 0.76908(16) 0.0330(5)
C28_9 C 0.55014(25) 0.72068(17) 0.0488(6)
H17_9 H 0.528395 0.707633 0.126329
loop_
_geom_bond_atom_site_label_1
_geom_bond_atom_site_label_2
_geom_bond_site_symmetry_1
_geom_bond_site_symmetry_2
H19 C33 1_555 1_555
C34 C33 1_555 1_555
H20 C34 1_555 1_555
C35 N8 1_555 1_555
H21 C35 1_555 1_555
Co3 N8 1_555 1_555
C35 C36 1_555 1_555
Co1 N1 1_555 1_555
N2 Co1 1_555 1_555
N4 C14 1_555 1_555
H6 C9 1_555 1_555
C10 N1 1_555 1_555
C11 C10 1_555 1_555
C12 C11 1_555 1_555
C13 C12 1_555 1_555
H7 C13 1_555 1_555
C14 C13 1_555 1_555
C15 N4 1_555 1_555
H9 C15 1_555 1_555
C16 C12 1_555 1_555
H10 C16 1_555 1_555
C17 N2 1_555 1_555
C18 C17 1_555 1_555
H11 C18 1_555 1_555
C19 C18 1_555 1_555
H12 C19 1_555 1_555
C20 N2 1_555 1_555
N5 Co1 1_555 1_555
N7 C21 1_555 1_555
C21 H13 1_555 1_555
C22 C21 1_555 1_555
H14 C22 1_555 1_555
C23 C22 1_555 1_555
C24 C23 1_555 1_555
H15 C24 1_555 1_555
C25 N7 1_555 1_555
H16 C25 1_555 1_555
C26 C20 1_555 1_555
C27 N5 1_555 1_555
C28 C27 1_555 1_555
H17 C28 1_555 1_555
C29 C28 1_555 1_555
C30 N5 1_555 1_555
C31 C30 1_555 1_555
C32 C31 1_555 1_555
Co2 N4 1_555 1_555
N9 Co1 1_555 1_555
N10 Co1 1_555 1_555
C9 C10 1_555 1_555
C11 C17 1_555 1_555
C15 C16 1_555 1_555
C19 C20 1_555 1_555
C23 C26 1_555 1_555
C24 C25 1_555 1_555
C26 C27 1_555 1_555
C29 C30 1_555 1_555
Co1_2 N1_2 1_555 1_555
N2_2 Co1_2 1_555 1_555
N4_2 C14_2 1_555 1_555
H6_2 C9_2 1_555 1_555
C10_2 N1_2 1_555 1_555
C11_2 C10_2 1_555 1_555
C12_2 C11_2 1_555 1_555
C13_2 C12_2 1_555 1_555
H7_2 C13_2 1_555 1_555
C14_2 C13_2 1_555 1_555
C15_2 N4_2 1_555 1_555
H9_2 C15_2 1_555 1_555
C16_2 C12_2 1_555 1_555
H10_2 C16_2 1_555 1_555
C17_2 N2_2 1_555 1_555
C18_2 C17_2 1_555 1_555
H11_2 C18_2 1_555 1_555
C19_2 C18_2 1_555 1_555
H12_2 C19_2 1_555 1_555
C20_2 N2_2 1_555 1_555
N5_2 Co1_2 1_555 1_555
N7_2 C21_2 1_555 1_555
C21_2 H13_2 1_555 1_555
C22_2 C21_2 1_555 1_555
H14_2 C22_2 1_555 1_555
C23_2 C22_2 1_555 1_555
C24_2 C23_2 1_555 1_555
H15_2 C24_2 1_555 1_555
C25_2 N7_2 1_555 1_555
H16_2 C25_2 1_555 1_555
C26_2 C20_2 1_555 1_555
C27_2 N5_2 1_555 1_555
C28_2 C27_2 1_555 1_555
H17_2 C28_2 1_555 1_555
C29_2 C28_2 1_555 1_555
H18_2 C29_2 1_555 1_555
C30_2 N5_2 1_555 1_555
C31_2 C30_2 1_555 1_555
C32_2 C31_2 1_555 1_555
C33_2 C32_2 1_555 1_555
H19_2 C33_2 1_555 1_555
C34_2 C33_2 1_555 1_555
H20_2 C34_2 1_555 1_555
Co2_4 N4_2 1_555 1_555
N9_2 Co1_2 1_555 1_555
N10_2 Co1_2 1_555 1_555
C9_2 C10_2 1_555 1_555
C11_2 C17_2 1_555 1_555
C15_2 C16_2 1_555 1_555
C19_2 C20_2 1_555 1_555
C23_2 C26_2 1_555 1_555
C24_2 C25_2 1_555 1_555
C26_2 C27_2 1_555 1_555
C29_2 C30_2 1_555 1_555
N3 C1 1_555 1_555
C1 H1 1_555 1_555
C2 C1 1_555 1_555
H2 C2 1_555 1_555
C3 C2 1_555 1_555
C4 C3 1_555 1_555
H3 C4 1_555 1_555
C5 N3 1_555 1_555
H4 C5 1_555 1_555
C6 C3 1_555 1_555
C7 C6 1_555 1_555
C8 C7 1_555 1_555
H5 C8 1_555 1_555
C35_2 N8_2 1_555 1_555
H21_2 C35_2 1_555 1_555
H22 C36_2 1_555 1_555
C37 N6 1_555 1_555
C38 C37 1_555 1_555
H23 C38 1_555 1_555
C39 C38 1_555 1_555
H24 C39 1_555 1_555
C40 C6 1_555 1_555
Co3_2 N8_2 1_555 1_555
C4 C5 1_555 1_555
N6 C40 1_555 1_555
C35_2 C36_2 1_555 1_555
C39 C40 1_555 1_555
Co1_3 N1_3 1_555 1_555
N2_3 Co1_3 1_555 1_555
N4_3 C14_3 1_555 1_555
H6_3 C9_3 1_555 1_555
C10_3 N1_3 1_555 1_555
C11_3 C10_3 1_555 1_555
C12_3 C11_3 1_555 1_555
C13_3 C12_3 1_555 1_555
H7_3 C13_3 1_555 1_555
C14_3 C13_3 1_555 1_555
H8_3 C14_3 1_555 1_555
C15_3 N4_3 1_555 1_555
H9_3 C15_3 1_555 1_555
C16_3 C12_3 1_555 1_555
H10_3 C16_3 1_555 1_555
C17_3 N2_3 1_555 1_555
C18_3 C17_3 1_555 1_555
H11_3 C18_3 1_555 1_555
C19_3 C18_3 1_555 1_555
H12_3 C19_3 1_555 1_555
C20_3 N2_3 1_555 1_555
N5_3 Co1_3 1_555 1_555
N7_3 C21_3 1_555 1_555
C21_3 H13_3 1_555 1_555
C22_3 C21_3 1_555 1_555
H14_3 C22_3 1_555 1_555
C23_3 C22_3 1_555 1_555
C24_3 C23_3 1_555 1_555
H15_3 C24_3 1_555 1_555
C25_3 N7_3 1_555 1_555
H16_3 C25_3 1_555 1_555
C26_3 C20_3 1_555 1_555
C27_3 N5_3 1_555 1_555
C28_3 C27_3 1_555 1_555
H17_3 C28_3 1_555 1_555
C29_3 C28_3 1_555 1_555
C30_3 N5_3 1_555 1_555
C31_3 C30_3 1_555 1_555
C32_3 C31_3 1_555 1_555
Co2_5 N4_3 1_555 1_555
N9_3 Co1_3 1_555 1_555
N10_3 Co1_3 1_555 1_555
C9_3 C10_3 1_555 1_555
C11_3 C17_3 1_555 1_555
C15_3 C16_3 1_555 1_555
C19_3 C20_3 1_555 1_555
C23_3 C26_3 1_555 1_555
C24_3 C25_3 1_555 1_555
C26_3 C27_3 1_555 1_555
C29_3 C30_3 1_555 1_555
C35_3 N8_3 1_555 1_555
H21_3 C35_3 1_555 1_555
Co3_3 N8_3 1_555 1_555
C35_3 C36_3 1_555 1_555
Co2_5 N1_4 1_555 1_555
N1_4 C7_2 1_555 1_555
N2_4 Co2_5 1_555 1_555
N4_4 C14_4 1_555 1_555
C4_2 C3_2 1_555 1_555
H3_2 C4_2 1_555 1_555
C6_2 C3_2 1_555 1_555
C7_2 C6_2 1_555 1_555
C8_2 C7_2 1_555 1_555
H5_2 C8_2 1_555 1_555
C9_4 C8_2 1_555 1_555
H6_4 C9_4 1_555 1_555
C10_4 N1_4 1_555 1_555
C11_4 C10_4 1_555 1_555
C12_4 C11_4 1_555 1_555
C13_4 C12_4 1_555 1_555
H7_4 C13_4 1_555 1_555
C14_4 C13_4 1_555 1_555
H8_4 C14_4 1_555 1_555
C15_4 N4_4 1_555 1_555
H9_4 C15_4 1_555 1_555
C16_4 C12_4 1_555 1_555
H10_4 C16_4 1_555 1_555
C17_4 N2_4 1_555 1_555
C18_4 C17_4 1_555 1_555
H11_4 C18_4 1_555 1_555
C19_4 C18_4 1_555 1_555
H12_4 C19_4 1_555 1_555
C20_4 N2_4 1_555 1_555
N5_4 Co2_5 1_555 1_555
N6_2 Co2_5 1_555 1_555
N10_2 C34_3 1_555 1_555
C24_4 C23_4 1_555 1_555
H15_4 C24_4 1_555 1_555
C26_4 C20_4 1_555 1_555
C27_4 N5_4 1_555 1_555
C28_4 C27_4 1_555 1_555
H17_4 C28_4 1_555 1_555
C29_4 C28_4 1_555 1_555
H18_3 C29_4 1_555 1_555
C30_4 N5_4 1_555 1_555
C31_4 C30_4 1_555 1_555
C32_4 C31_4 1_555 1_555
C33_3 C32_4 1_555 1_555
H19_3 C33_3 1_555 1_555
C34_3 C33_3 1_555 1_555
H20_3 C34_3 1_555 1_555
C35_4 N10_2 1_555 1_555
H21_4 C35_4 1_555 1_555
C36_4 C32_4 1_555 1_555
H22_2 C36_4 1_555 1_555
C37_2 N6_2 1_555 1_555
C38_2 C37_2 1_555 1_555
H23_2 C38_2 1_555 1_555
C39_2 C38_2 1_555 1_555
H24_2 C39_2 1_555 1_555
C40_2 C6_2 1_555 1_555
Co3 N4_4 1_555 1_555
N10_4 Co2_5 1_555 1_555
C9_4 C10_4 1_555 1_555
C11_4 C17_4 1_555 1_555
C15_4 C16_4 1_555 1_555
C19_4 C20_4 1_555 1_555
N6_2 C40_2 1_555 1_555
C23_4 C26_4 1_555 1_555
C26_4 C27_4 1_555 1_555
C29_4 C30_4 1_555 1_555
C31_4 C37_2 1_555 1_555
C35_4 C36_4 1_555 1_555
C39_2 C40_2 1_555 1_555
N2_5 Co2 1_555 1_555
H12_5 C19_5 1_555 1_555
C20_5 N2_5 1_555 1_555
N5_5 Co2 1_555 1_555
N10_3 C34_4 1_555 1_555
C24_5 C23_5 1_555 1_555
H15_5 C24_5 1_555 1_555
C26_5 C20_5 1_555 1_555
C27_5 N5_5 1_555 1_555
C28_5 C27_5 1_555 1_555
H17_5 C28_5 1_555 1_555
C29_5 C28_5 1_555 1_555
H18_4 C29_5 1_555 1_555
C30_5 N5_5 1_555 1_555
C31_5 C30_5 1_555 1_555
C32_5 C31_5 1_555 1_555
C33_4 C32_5 1_555 1_555
H19_4 C33_4 1_555 1_555
C34_4 C33_4 1_555 1_555
H20_4 C34_4 1_555 1_555
C35_5 N10_3 1_555 1_555
H21_5 C35_5 1_555 1_555
C36_5 C32_5 1_555 1_555
H22_3 C36_5 1_555 1_555
C38_3 C37_3 1_555 1_555
H23_3 C38_3 1_555 1_555
C19_5 C20_5 1_555 1_555
C23_5 C26_5 1_555 1_555
C26_5 C27_5 1_555 1_555
C29_5 C30_5 1_555 1_555
C31_5 C37_3 1_555 1_555
C35_5 C36_5 1_555 1_555
Co2_2 N1_5 1_555 1_555
N1_5 C7_3 1_555 1_555
N4_5 C14_5 1_555 1_555
C4_3 C3_3 1_555 1_555
H3_3 C4_3 1_555 1_555
C6_3 C3_3 1_555 1_555
C7_3 C6_3 1_555 1_555
C8_3 C7_3 1_555 1_555
H5_3 C8_3 1_555 1_555
C9_5 C8_3 1_555 1_555
H6_5 C9_5 1_555 1_555
C10_5 N1_5 1_555 1_555
C11_5 C10_5 1_555 1_555
C12_5 C11_5 1_555 1_555
C13_5 C12_5 1_555 1_555
H7_5 C13_5 1_555 1_555
C14_5 C13_5 1_555 1_555
H8_5 C14_5 1_555 1_555
C15_5 N4_5 1_555 1_555
H9_5 C15_5 1_555 1_555
C16_5 C12_5 1_555 1_555
H10_5 C16_5 1_555 1_555
C18_5 C17_5 1_555 1_555
H11_5 C18_5 1_555 1_555
N6_3 Co2_2 1_555 1_555
H24_3 C39_3 1_555 1_555
C40_3 C6_3 1_555 1_555
Co3_2 N4_5 1_555 1_555
N10_5 Co2_2 1_555 1_555
C9_5 C10_5 1_555 1_555
C11_5 C17_5 1_555 1_555
C15_5 C16_5 1_555 1_555
N6_3 C40_3 1_555 1_555
C39_3 C40_3 1_555 1_555
Co2_3 N1_6 1_555 1_555
N1_6 C7_4 1_555 1_555
N4_6 C14_6 1_555 1_555
C4_4 C3_4 1_555 1_555
H3_4 C4_4 1_555 1_555
C6_4 C3_4 1_555 1_555
C7_4 C6_4 1_555 1_555
C8_4 C7_4 1_555 1_555
H5_4 C8_4 1_555 1_555
C9_6 C8_4 1_555 1_555
H6_6 C9_6 1_555 1_555
C10_6 N1_6 1_555 1_555
C11_6 C10_6 1_555 1_555
C12_6 C11_6 1_555 1_555
C13_6 C12_6 1_555 1_555
H7_6 C13_6 1_555 1_555
C14_6 C13_6 1_555 1_555
H8_6 C14_6 1_555 1_555
C15_6 N4_6 1_555 1_555
H9_6 C15_6 1_555 1_555
C16_6 C12_6 1_555 1_555
H10_6 C16_6 1_555 1_555
C18_6 C17_6 1_555 1_555
H11_6 C18_6 1_555 1_555
N6_4 Co2_3 1_555 1_555
H24_4 C39_4 1_555 1_555
C40_4 C6_4 1_555 1_555
Co3_3 N4_6 1_555 1_555
N10_6 Co2_3 1_555 1_555
C9_6 C10_6 1_555 1_555
C11_6 C17_6 1_555 1_555
C15_6 C16_6 1_555 1_555
N6_4 C40_4 1_555 1_555
C39_4 C40_4 1_555 1_555
N2_6 Co2_4 1_555 1_555
H12_6 C19_6 1_555 1_555
C20_6 N2_6 1_555 1_555
N5_6 Co2_4 1_555 1_555
N10 C34_5 1_555 1_555
C24_6 C23_6 1_555 1_555
H15_6 C24_6 1_555 1_555
C26_6 C20_6 1_555 1_555
C27_6 N5_6 1_555 1_555
C28_6 C27_6 1_555 1_555
H17_6 C28_6 1_555 1_555
C29_6 C28_6 1_555 1_555
H18_5 C29_6 1_555 1_555
C30_6 N5_6 1_555 1_555
C31_6 C30_6 1_555 1_555
C32_6 C31_6 1_555 1_555
C33_5 C32_6 1_555 1_555
H19_5 C33_5 1_555 1_555
C34_5 C33_5 1_555 1_555
H20_5 C34_5 1_555 1_555
C35_6 N10 1_555 1_555
H21_6 C35_6 1_555 1_555
C36_6 C32_6 1_555 1_555
H22_4 C36_6 1_555 1_555
C38_4 C37_4 1_555 1_555
H23_4 C38_4 1_555 1_555
C19_6 C20_6 1_555 1_555
C23_6 C26_6 1_555 1_555
C26_6 C27_6 1_555 1_555
C29_6 C30_6 1_555 1_555
C31_6 C37_4 1_555 1_555
C35_6 C36_6 1_555 1_555
Co3_3 N1_7 1_555 1_555
N1_7 C7_5 1_555 1_555
N3_2 C1_2 1_555 1_555
C1_2 H1_2 1_555 1_555
C2_2 C1_2 1_555 1_555
H2_2 C2_2 1_555 1_555
C3_5 C2_2 1_555 1_555
C4_5 C3_5 1_555 1_555
H3_5 C4_5 1_555 1_555
C5_2 N3_2 1_555 1_555
H4_2 C5_2 1_555 1_555
C6_5 C3_5 1_555 1_555
C7_5 C6_5 1_555 1_555
C8_5 C7_5 1_555 1_555
H5_5 C8_5 1_555 1_555
C9_7 C8_5 1_555 1_555
C10_7 N1_7 1_555 1_555
C11_7 C10_7 1_555 1_555
C12_7 C11_7 1_555 1_555
N5_7 Co3_3 1_555 1_555
N6_5 Co3_3 1_555 1_555
N10_5 C34_6 1_555 1_555
H18_6 C29_7 1_555 1_555
C30_7 N5_7 1_555 1_555
C31_7 C30_7 1_555 1_555
C32_7 C31_7 1_555 1_555
C33_6 C32_7 1_555 1_555
H19_6 C33_6 1_555 1_555
C34_6 C33_6 1_555 1_555
C35_7 N10_5 1_555 1_555
H21_7 C35_7 1_555 1_555
C36_7 C32_7 1_555 1_555
H22_5 C36_7 1_555 1_555
C37_5 N6_5 1_555 1_555
C38_5 C37_5 1_555 1_555
H23_5 C38_5 1_555 1_555
C39_5 C38_5 1_555 1_555
H24_5 C39_5 1_555 1_555
C40_5 C6_5 1_555 1_555
C4_5 C5_2 1_555 1_555
C9_7 C10_7 1_555 1_555
N6_5 C40_5 1_555 1_555
C29_7 C30_7 1_555 1_555
C31_7 C37_5 1_555 1_555
C35_7 C36_7 1_555 1_555
C39_5 C40_5 1_555 1_555
C15_7 N9_2 1_555 1_555
H9_7 C15_7 1_555 1_555
C15_7 C16_7 1_555 1_555
C15_8 N9_3 1_555 1_555
H9_8 C15_8 1_555 1_555
H10_7 C16_8 1_555 1_555
C17_7 N2_7 1_555 1_555
C18_7 C17_7 1_555 1_555
H11_7 C18_7 1_555 1_555
C19_7 C18_7 1_555 1_555
H12_7 C19_7 1_555 1_555
C20_7 N2_7 1_555 1_555
N7_4 C21_4 1_555 1_555
C21_4 H13_4 1_555 1_555
C22_4 C21_4 1_555 1_555
H14_4 C22_4 1_555 1_555
C23_7 C22_4 1_555 1_555
C24_7 C23_7 1_555 1_555
H15_7 C24_7 1_555 1_555
C25_4 N7_4 1_555 1_555
H16_4 C25_4 1_555 1_555
C26_7 C20_7 1_555 1_555
C28_7 C27_7 1_555 1_555
H17_7 C28_7 1_555 1_555
C15_8 C16_8 1_555 1_555
C19_7 C20_7 1_555 1_555
C23_7 C26_7 1_555 1_555
C24_7 C25_4 1_555 1_555
C26_7 C27_7 1_555 1_555
Co3 N1_8 1_555 1_555
N1_8 C7_6 1_555 1_555
N3_3 C1_3 1_555 1_555
C1_3 H1_3 1_555 1_555
C2_3 C1_3 1_555 1_555
H2_3 C2_3 1_555 1_555
C3_6 C2_3 1_555 1_555
C4_6 C3_6 1_555 1_555
H3_6 C4_6 1_555 1_555
C5_3 N3_3 1_555 1_555
H4_3 C5_3 1_555 1_555
C6_6 C3_6 1_555 1_555
C7_6 C6_6 1_555 1_555
C8_6 C7_6 1_555 1_555
H5_6 C8_6 1_555 1_555
C9_8 C8_6 1_555 1_555
H6_7 C9_8 1_555 1_555
C10_8 N1_8 1_555 1_555
C11_8 C10_8 1_555 1_555
C12_8 C11_8 1_555 1_555
C13_7 C12_8 1_555 1_555
H7_7 C13_7 1_555 1_555
C14_7 C13_7 1_555 1_555
H8_7 C14_7 1_555 1_555
N5_8 Co3 1_555 1_555
N6_6 Co3 1_555 1_555
N10_6 C34_7 1_555 1_555
H18_7 C29_8 1_555 1_555
C30_8 N5_8 1_555 1_555
C31_8 C30_8 1_555 1_555
C32_8 C31_8 1_555 1_555
C33_7 C32_8 1_555 1_555
H19_7 C33_7 1_555 1_555
C34_7 C33_7 1_555 1_555
C35_8 N10_6 1_555 1_555
H21_8 C35_8 1_555 1_555
C36_8 C32_8 1_555 1_555
H22_6 C36_8 1_555 1_555
C37_6 N6_6 1_555 1_555
C38_6 C37_6 1_555 1_555
H23_6 C38_6 1_555 1_555
C39_6 C38_6 1_555 1_555
H24_6 C39_6 1_555 1_555
C40_6 C6_6 1_555 1_555
C4_6 C5_3 1_555 1_555
C9_8 C10_8 1_555 1_555
N6_6 C40_6 1_555 1_555
C29_8 C30_8 1_555 1_555
C31_8 C37_6 1_555 1_555
C35_8 C36_8 1_555 1_555
C39_6 C40_6 1_555 1_555
C15_9 N9 1_555 1_555
H9_9 C15_9 1_555 1_555
C15_9 C16_9 1_555 1_555
Co3_2 N1_9 1_555 1_555
N1_9 C7_7 1_555 1_555
N3_4 C1_4 1_555 1_555
C1_4 H1_4 1_555 1_555
C2_4 C1_4 1_555 1_555
H2_4 C2_4 1_555 1_555
C3_7 C2_4 1_555 1_555
C4_7 C3_7 1_555 1_555
H3_7 C4_7 1_555 1_555
C5_4 N3_4 1_555 1_555
H4_4 C5_4 1_555 1_555
C6_7 C3_7 1_555 1_555
C7_7 C6_7 1_555 1_555
C8_7 C7_7 1_555 1_555
H5_7 C8_7 1_555 1_555
C9_9 C8_7 1_555 1_555
C10_9 N1_9 1_555 1_555
C11_9 C10_9 1_555 1_555
C12_9 C11_9 1_555 1_555
N5_9 Co3_2 1_555 1_555
N6_7 Co3_2 1_555 1_555
N10_4 C34_8 1_555 1_555
H18_8 C29_9 1_555 1_555
C30_9 N5_9 1_555 1_555
C31_9 C30_9 1_555 1_555
C32_9 C31_9 1_555 1_555
C33_8 C32_9 1_555 1_555
H19_8 C33_8 1_555 1_555
C34_8 C33_8 1_555 1_555
H20_8 C34_8 1_555 1_555
C35_9 N10_4 1_555 1_555
H21_9 C35_9 1_555 1_555
C36_9 C32_9 1_555 1_555
H22_7 C36_9 1_555 1_555
C37_7 N6_7 1_555 1_555
C38_7 C37_7 1_555 1_555
H23_7 C38_7 1_555 1_555
C39_7 C38_7 1_555 1_555
H24_7 C39_7 1_555 1_555
C40_7 C6_7 1_555 1_555
C4_7 C5_4 1_555 1_555
C9_9 C10_9 1_555 1_555
N6_7 C40_7 1_555 1_555
C29_9 C30_9 1_555 1_555
C31_9 C37_7 1_555 1_555
C35_9 C36_9 1_555 1_555
C39_7 C40_7 1_555 1_555
N3_5 C1_5 1_555 1_555
C1_5 H1_5 1_555 1_555
C2_5 C1_5 1_555 1_555
H2_5 C2_5 1_555 1_555
C3_8 C2_5 1_555 1_555
C4_8 C3_8 1_555 1_555
H3_8 C4_8 1_555 1_555
C5_5 N3_5 1_555 1_555
H4_5 C5_5 1_555 1_555
C6_8 C3_8 1_555 1_555
C7_8 C6_8 1_555 1_555
C8_8 C7_8 1_555 1_555
H5_8 C8_8 1_555 1_555
C37_8 N6_8 1_555 1_555
C38_8 C37_8 1_555 1_555
H23_8 C38_8 1_555 1_555
C39_8 C38_8 1_555 1_555
H24_8 C39_8 1_555 1_555
C40_8 C6_8 1_555 1_555
C4_8 C5_5 1_555 1_555
N6_8 C40_8 1_555 1_555
C39_8 C40_8 1_555 1_555
N3_6 C1_6 1_555 1_555
C1_6 H1_6 1_555 1_555
C2_6 C1_6 1_555 1_555
H2_6 C2_6 1_555 1_555
C3_9 C2_6 1_555 1_555
C4_9 C3_9 1_555 1_555
H3_9 C4_9 1_555 1_555
C5_6 N3_6 1_555 1_555
H4_6 C5_6 1_555 1_555
C6_9 C3_9 1_555 1_555
C7_9 C6_9 1_555 1_555
C8_9 C7_9 1_555 1_555
H5_9 C8_9 1_555 1_555
C37_9 N6_9 1_555 1_555
C38_9 C37_9 1_555 1_555
H23_9 C38_9 1_555 1_555
C39_9 C38_9 1_555 1_555
H24_9 C39_9 1_555 1_555
C40_9 C6_9 1_555 1_555
C4_9 C5_6 1_555 1_555
N6_9 C40_9 1_555 1_555
C39_9 C40_9 1_555 1_555
H19_9 C33_9 1_555 1_555
C34_9 C33_9 1_555 1_555
H20_9 C34_9 1_555 1_555
N7_5 C21_5 1_555 1_555
C21_5 H13_5 1_555 1_555
C22_5 C21_5 1_555 1_555
H14_5 C22_5 1_555 1_555
C25_5 N7_5 1_555 1_555
H16_5 C25_5 1_555 1_555
N3_7 C1_7 1_555 1_555
C1_7 H1_7 1_555 1_555
C2_7 C1_7 1_555 1_555
H2_7 C2_7 1_555 1_555
C5_7 N3_7 1_555 1_555
H4_7 C5_7 1_555 1_555
N7_6 C21_6 1_555 1_555
C21_6 H13_6 1_555 1_555
C22_6 C21_6 1_555 1_555
H14_6 C22_6 1_555 1_555
C25_6 N7_6 1_555 1_555
H16_6 C25_6 1_555 1_555
N3_8 C1_8 1_555 1_555
C1_8 H1_8 1_555 1_555
C2_8 C1_8 1_555 1_555
H2_8 C2_8 1_555 1_555
C5_8 N3_8 1_555 1_555
H4_8 C5_8 1_555 1_555
N3_9 C1_9 1_555 1_555
C1_9 H1_9 1_555 1_555
C2_9 C1_9 1_555 1_555
H2_9 C2_9 1_555 1_555
C5_9 N3_9 1_555 1_555
H4_9 C5_9 1_555 1_555
N7_7 C21_7 1_555 1_555
C21_7 H13_7 1_555 1_555
C22_7 C21_7 1_555 1_555
H14_7 C22_7 1_555 1_555
C25_7 N7_7 1_555 1_555
H16_7 C25_7 1_555 1_555
C17_8 N2_8 1_555 1_555
C18_8 C17_8 1_555 1_555
H11_8 C18_8 1_555 1_555
C19_8 C18_8 1_555 1_555
H12_8 C19_8 1_555 1_555
C20_8 N2_8 1_555 1_555
N7_8 C21_8 1_555 1_555
C21_8 H13_8 1_555 1_555
C22_8 C21_8 1_555 1_555
H14_8 C22_8 1_555 1_555
C23_8 C22_8 1_555 1_555
C24_8 C23_8 1_555 1_555
H15_8 C24_8 1_555 1_555
C25_8 N7_8 1_555 1_555
H16_8 C25_8 1_555 1_555
C26_8 C20_8 1_555 1_555
C28_8 C27_8 1_555 1_555
H17_8 C28_8 1_555 1_555
C19_8 C20_8 1_555 1_555
C23_8 C26_8 1_555 1_555
C24_8 C25_8 1_555 1_555
C26_8 C27_8 1_555 1_555
H7_8 C13_8 1_555 1_555
C14_8 C13_8 1_555 1_555
H8_8 C14_8 1_555 1_555
H7_9 C13_9 1_555 1_555
C14_9 C13_9 1_555 1_555
H8_9 C14_9 1_555 1_555
C17_9 N2_9 1_555 1_555
C18_9 C17_9 1_555 1_555
H11_9 C18_9 1_555 1_555
C19_9 C18_9 1_555 1_555
H12_9 C19_9 1_555 1_555
C20_9 N2_9 1_555 1_555
N7_9 C21_9 1_555 1_555
C21_9 H13_9 1_555 1_555
C22_9 C21_9 1_555 1_555
H14_9 C22_9 1_555 1_555
C23_9 C22_9 1_555 1_555
C24_9 C23_9 1_555 1_555
H15_9 C24_9 1_555 1_555
C25_9 N7_9 1_555 1_555
H16_9 C25_9 1_555 1_555
C26_9 C20_9 1_555 1_555
C28_9 C27_9 1_555 1_555
H17_9 C28_9 1_555 1_555
C19_9 C20_9 1_555 1_555
C23_9 C26_9 1_555 1_555
C24_9 C25_9 1_555 1_555
C26_9 C27_9 1_555 1_555

#END
