
###############################################################################
#
# This file contains modified crystal structure data generated from the
# MOF subset of the Cambridge Structural Database (CSD) v543 
# hosted by the Cambridge Crystallographic Data Centre (CCDC).
#
# This work is licensed under the Creative Commons
# Attribution-NonCommercial-ShareAlike 4.0 International License.
# To view a copy of this license, visit
# http://creativecommons.org/licenses/by-nc-sa/4.0/
# or send a letter to
# Creative Commons, PO Box 1866, Mountain View, CA 94042, USA.
#
# CIF created using the CSD Python API on 29 September 2022
# The structure has been converted into the P1 space group
# The structure has a 3D framework
# The original CSD entry YURJUR is in the rhombohedral crystal system
# The framework has been calculated to contain at least 10.0% void space
# The void calculation uses a probe of radius 1.32A, grid spacing 0.4
# The framework is charged, counterions have been retained in the structure
#
###############################################################################

data_YURJUR
_chemical_formula_moiety         '(C252 H108 Ce13 O99 S18 13-)n'
_symmetry_cell_setting           triclinic
_symmetry_space_group_name_H-M   'P 1'
_symmetry_Int_Tables_number      1
_space_group_name_Hall           'P 1'
loop_
_symmetry_equiv_pos_site_id
_symmetry_equiv_pos_as_xyz
1 x,y,z
_cell_length_a                   25.0566(12)
_cell_length_b                   25.0566(12)
_cell_length_c                   29.944(3)
_cell_angle_alpha                90
_cell_angle_beta                 90
_cell_angle_gamma                120
_cell_volume                     16281.1
loop_
_atom_site_label
_atom_site_type_symbol
_atom_site_fract_x
_atom_site_fract_y
_atom_site_fract_z
Ce5 Ce 0.0000 0.0001 0.36705(3)
O22 O 0.0059(2) 0.0686(2) 0.42850(17)
O35 O 0.0355(2) 0.0868(2) 0.31112(19)
O48 O 0.1069(2) 0.0948(2) 0.35788(19)
O21 O 0.0626(3) 0.9941(2) 0.42850(17)
O34 O 0.0513(3) 0.9645(2) 0.31112(19)
Ce5_2 Ce 1.0000 0.0001 0.36705(3)
S4 S 0.53894(12) 0.02462(9) 0.10452(9)
O25 O 0.6312(2) 0.2465(2) 0.02221(19)
O36 O 0.9052(2) 0.0121(3) 0.35788(19)
O51 O 0.5339(4) 0.0429(3) 0.1499(2)
O54 O 0.5944(3) 0.0235(3) 0.0919(3)
C38 C 0.4670(4) 0.0261(3) 0.0424(3)
C41 C 0.5215(4) 0.0646(3) 0.0642(3)
C44 C 0.4454(4) 0.0515(3) 0.0090(3)
C47 C 0.5581(4) 0.1272(4) 0.0534(3)
H21 H 0.5949 0.1520 0.0684
C53 C 0.5383(4) 0.1511(3) 0.0202(2)
C56 C 0.5782(4) 0.2164(4) 0.0049(3)
Ce7 Ce 0.6666 0.3334 0.96629(3)
O38 O 0.5598(2) 0.2385(2) 0.97545(19)
H18 H 0.4079 0.0274 0.9947
C50 C 0.4820(4) 0.1124(4) 0.9989(3)
H24 H 0.4690 0.1291 0.9766
Ce1 Ce 0.3333 0.6667 0.29962(3)
Ce2 Ce 0.3333 0.6667 0.1667
S1 S 0.12773(12) 0.30871(9) 0.22881(9)
O1 O 0.2521(2) 0.5530(2) 0.18889(19)
O2 O 0.3274(2) 0.5981(2) 0.23817(17)
O5 O 0.1328(4) 0.2904(3) 0.1834(2)
O6 O 0.0723(3) 0.3098(3) 0.2414(3)
C1 C 0.2815(3) 0.5492(3) 0.2209(3)
C2 C 0.2639(3) 0.4887(3) 0.2408(3)
C3 C 0.2991(3) 0.4814(3) 0.2730(3)
H1 H 0.3350 0.5158 0.2830
C4 C 0.2820(4) 0.4239(4) 0.2910(3)
H2 H 0.3060 0.4196 0.3129
C5 C 0.2101(4) 0.4366(4) 0.2251(3)
H3 H 0.1856 0.4408 0.2037
C6 C 0.1941(4) 0.3792(3) 0.2418(3)
C7 C 0.2283(3) 0.3725(3) 0.2755(3)
C8 C 0.1997(4) 0.3072(3) 0.2909(3)
C9 C 0.1452(4) 0.2687(3) 0.2691(3)
C10 C 0.2213(4) 0.2818(3) 0.3243(3)
H4 H 0.2588 0.3059 0.3386
C11 C 0.1086(4) 0.2061(4) 0.2799(3)
H5 H 0.0718 0.1813 0.2649
C12 C 0.1847(4) 0.2209(4) 0.3344(3)
H6 H 0.1977 0.2042 0.3567
C13 C 0.1284(4) 0.1822(3) 0.3131(2)
C14 C 0.0885(4) 0.1169(4) 0.3284(3)
Ce3 Ce 0.3334 0.6666 0.03371(3)
S2 S 0.69129(9) 0.81902(15) 0.22881(9)
S3 S 0.18098(15) 0.87227(12) 0.22881(9)
O7 O 0.4470(2) 0.6991(3) 0.18889(19)
O8 O 0.3009(3) 0.7479(2) 0.18889(19)
O9 O 0.4146(2) 0.7803(2) 0.14444(19)
O10 O 0.2197(2) 0.6342(3) 0.14444(19)
O11 O 0.3658(3) 0.5854(2) 0.14444(19)
O12 O 0.4019(2) 0.7293(3) 0.23817(17)
O13 O 0.2707(3) 0.6726(2) 0.23817(17)
O14 O 0.3393(2) 0.7352(2) 0.09516(17)
O15 O 0.2648(2) 0.6040(3) 0.09516(17)
O16 O 0.3960(3) 0.6607(2) 0.09516(17)
O20 O 0.9314(2) 0.9374(3) 0.42850(17)
O23 O 0.9132(2) 0.9487(3) 0.31112(19)
O26 O 0.2978(2) 0.5799(2) 0.35555(19)
O27 O 0.4201(2) 0.7180(3) 0.35555(19)
O28 O 0.2820(3) 0.7022(2) 0.35555(19)
O39 O 0.2264(2) 0.5719(2) 0.30879(19)
O40 O 0.4281(2) 0.6546(3) 0.30879(19)
O41 O 0.3454(3) 0.7736(2) 0.30879(19)
O42 O 0.4402(2) 0.7615(2) 0.02455(19)
O43 O 0.2385(2) 0.6788(3) 0.02455(19)
O44 O 0.3212(3) 0.5598(2) 0.02455(19)
O47 O 0.9879(3) 0.8931(2) 0.35788(19)
O49 O 0.7096(3) 0.8424(5) 0.1834(2)
O50 O 0.1576(5) 0.8672(4) 0.1834(2)
O52 O 0.6902(3) 0.7625(4) 0.2414(3)
O53 O 0.2375(4) 0.9277(3) 0.2414(3)
C15 C 0.4508(3) 0.7323(4) 0.2209(3)
C16 C 0.2677(4) 0.7185(3) 0.2209(3)
C17 C 0.3852(3) 0.7841(3) 0.1124(3)
C18 C 0.5113(3) 0.7752(4) 0.2408(3)
C19 C 0.2248(4) 0.7361(3) 0.2408(3)
C20 C 0.4028(3) 0.8446(3) 0.0925(3)
C21 C 0.5186(3) 0.8177(4) 0.2730(3)
C22 C 0.1823(4) 0.7009(3) 0.2730(3)
C23 C 0.3676(3) 0.8519(3) 0.0603(3)
H7 H 0.4842 0.8192 0.2830
H8 H 0.1808 0.6650 0.2830
H9 H 0.3317 0.8175 0.0503
C24 C 0.5761(4) 0.8581(6) 0.2910(3)
C25 C 0.1419(6) 0.7180(4) 0.2910(3)
C26 C 0.3847(4) 0.9094(4) 0.0423(3)
H10 H 0.5804 0.8864 0.3129
H11 H 0.1136 0.6940 0.3129
H12 H 0.3607 0.9137 0.0204
C27 C 0.5634(4) 0.7735(6) 0.2251(3)
C28 C 0.2265(6) 0.7899(4) 0.2251(3)
C29 C 0.4566(4) 0.8967(4) 0.1082(3)
H13 H 0.5592 0.7448 0.2037
H14 H 0.2552 0.8144 0.2037
H15 H 0.4811 0.8925 0.1296
C30 C 0.6208(3) 0.8149(5) 0.2418(3)
C31 C 0.1851(5) 0.8059(4) 0.2418(3)
C32 C 0.4726(4) 0.9541(3) 0.0915(3)
C33 C 0.6275(3) 0.8558(4) 0.2755(3)
C34 C 0.1442(4) 0.7717(3) 0.2755(3)
C35 C 0.4384(3) 0.9608(3) 0.0578(3)
C36 C 0.6928(3) 0.8925(5) 0.2909(3)
C37 C 0.1075(5) 0.8003(4) 0.2909(3)
C39 C 0.7313(3) 0.8765(5) 0.2691(3)
C40 C 0.1235(5) 0.8548(4) 0.2691(3)
C42 C 0.7182(3) 0.9395(5) 0.3243(3)
C43 C 0.0605(5) 0.7787(4) 0.3243(3)
H16 H 0.6941 0.9529 0.3386
H17 H 0.0471 0.7412 0.3386
C45 C 0.7939(4) 0.9025(6) 0.2799(3)
C46 C 0.0975(6) 0.8914(4) 0.2799(3)
H19 H 0.8187 0.8905 0.2649
H20 H 0.1095 0.9282 0.2649
C48 C 0.7791(4) 0.9638(6) 0.3344(3)
C49 C 0.0362(6) 0.8153(4) 0.3344(3)
H22 H 0.7958 0.9935 0.3567
H23 H 0.0065 0.8023 0.3567
C51 C 0.8178(3) 0.9462(5) 0.3131(2)
C52 C 0.0538(5) 0.8716(4) 0.3131(2)
C54 C 0.8831(4) 0.9716(6) 0.3284(3)
C55 C 0.0284(6) 0.9115(4) 0.3284(3)
O29 O 0.3688(2) 0.7535(2) 0.97779(19)
O30 O 0.2465(2) 0.6154(3) 0.97779(19)
O31 O 0.3846(3) 0.6312(2) 0.97779(19)
Ce4 Ce 0.0000 1.0000 0.36705(3)
Ce6 Ce 0.9999 1.0000 0.36705(3)
C17_2 C 0.2159(3) 0.6010(4) 0.1124(3)
C20_2 C 0.1554(3) 0.5581(4) 0.0925(3)
C23_2 C 0.1481(3) 0.5156(4) 0.0603(3)
H9_2 H 0.1825 0.5141 0.0503
C26_2 C 0.0906(4) 0.4752(6) 0.0423(3)
H12_2 H 0.0863 0.4469 0.0204
C29_2 C 0.1033(4) 0.5598(6) 0.1082(3)
H15_2 H 0.1075 0.5885 0.1296
C32_2 C 0.0459(3) 0.5184(5) 0.0915(3)
C35_2 C 0.0392(3) 0.4775(4) 0.0578(3)
S4_2 S 0.97538(9) 0.51431(15) 0.10452(9)
O25_2 O 0.7535(2) 0.3846(3) 0.02221(19)
O51_2 O 0.9571(3) 0.4909(5) 0.1499(2)
O54_2 O 0.9765(3) 0.5708(4) 0.0919(3)
C38_2 C 0.9739(3) 0.4408(5) 0.0424(3)
C41_2 C 0.9354(3) 0.4568(5) 0.0642(3)
C44_2 C 0.9485(3) 0.3938(5) 0.0090(3)
C47_2 C 0.8728(4) 0.4308(6) 0.0534(3)
H21_2 H 0.8480 0.4428 0.0684
C53_2 C 0.8489(3) 0.3871(5) 0.0202(2)
C56_2 C 0.7836(4) 0.3617(6) 0.0049(3)
O38_2 O 0.7615(2) 0.3212(3) 0.97545(19)
H18_2 H 0.9726 0.3804 0.9947
C50_2 C 0.8876(4) 0.3695(6) 0.9989(3)
H24_2 H 0.8709 0.3398 0.9766
S4_3 S 0.48569(15) 0.46106(12) 0.10452(9)
O25_3 O 0.6154(3) 0.3688(2) 0.02221(19)
O51_3 O 0.5091(5) 0.4661(4) 0.1499(2)
O54_3 O 0.4292(4) 0.4056(3) 0.0919(3)
C17_3 C 0.3990(4) 0.6148(3) 0.1124(3)
C20_3 C 0.4419(4) 0.5972(3) 0.0925(3)
C23_3 C 0.4844(4) 0.6324(3) 0.0603(3)
H9_3 H 0.4859 0.6683 0.0503
C26_3 C 0.5248(6) 0.6153(4) 0.0423(3)
H12_3 H 0.5531 0.6393 0.0204
C29_3 C 0.4402(6) 0.5434(4) 0.1082(3)
H15_3 H 0.4115 0.5189 0.1296
C32_3 C 0.4816(5) 0.5274(4) 0.0915(3)
C35_3 C 0.5225(4) 0.5616(3) 0.0578(3)
C38_3 C 0.5592(5) 0.5330(4) 0.0424(3)
C41_3 C 0.5432(5) 0.4785(4) 0.0642(3)
C44_3 C 0.6062(5) 0.5546(4) 0.0090(3)
C47_3 C 0.5692(6) 0.4419(4) 0.0534(3)
H21_3 H 0.5572 0.4051 0.0684
C53_3 C 0.6129(5) 0.4617(4) 0.0202(2)
C56_3 C 0.6383(6) 0.4218(4) 0.0049(3)
O38_3 O 0.6788(3) 0.4402(2) 0.97545(19)
H18_3 H 0.6196 0.5921 0.9947
C50_3 C 0.6305(6) 0.5180(4) 0.9989(3)
H24_3 H 0.6602 0.5310 0.9766
Ce1_2 Ce -0.0000 0.0000 0.63295(3)
Ce2_2 Ce -0.0000 0.0000 0.5000
Ce5_3 Ce 0.6667 0.3334 0.70038(3)
S2_2 S 0.35796(9) 0.15235(15) 0.56214(9)
S4_4 S 0.20560(12) 0.35796(9) 0.43786(9)
O7_2 O 0.1137(2) 0.0324(3) 0.52222(19)
O9_2 O 0.0812(2) 0.1137(2) 0.47778(19)
O12_2 O 0.0686(2) 0.0626(3) 0.57150(17)
O20_2 O 0.5981(2) 0.2707(3) 0.76183(17)
O21_2 O 0.7293(3) 0.3274(2) 0.76183(17)
O22_2 O 0.6726(2) 0.4019(2) 0.76183(17)
O23_2 O 0.5799(2) 0.2820(3) 0.64445(19)
O27_2 O 0.0868(2) 0.0513(3) 0.68888(19)
O34_2 O 0.7180(3) 0.2978(2) 0.64445(19)
O35_2 O 0.7022(2) 0.4201(2) 0.64445(19)
O36_2 O 0.5719(2) 0.3454(3) 0.69121(19)
O41_2 O 0.0121(3) 0.1069(2) 0.64212(19)
O47_2 O 0.6546(3) 0.2264(2) 0.69121(19)
O48_2 O 0.7736(2) 0.4281(2) 0.69121(19)
O49_2 O 0.3763(3) 0.1757(5) 0.5167(2)
O51_4 O 0.2005(4) 0.3763(3) 0.4833(2)
O52_2 O 0.3569(3) 0.0958(4) 0.5747(3)
O54_4 O 0.2610(3) 0.3569(3) 0.4253(3)
C15_2 C 0.1175(3) 0.0656(4) 0.5542(3)
C17_4 C 0.0518(3) 0.1175(3) 0.4458(3)
C18_2 C 0.1780(3) 0.1085(4) 0.5741(3)
C20_4 C 0.0694(3) 0.1780(3) 0.4259(3)
C21_2 C 0.1853(3) 0.1510(4) 0.6063(3)
C23_4 C 0.0342(3) 0.1853(3) 0.3937(3)
H7_2 H 0.1509 0.1525 0.6163
C24_2 C 0.2428(4) 0.1914(6) 0.6243(3)
C26_4 C 0.0513(4) 0.2428(4) 0.3757(3)
H10_2 H 0.2471 0.2197 0.6462
H12_4 H 0.0273 0.2471 0.3538
C27_2 C 0.2301(4) 0.1068(6) 0.5584(3)
C29_4 C 0.1232(4) 0.2301(4) 0.4416(3)
H13_2 H 0.2259 0.0781 0.5370
H15_4 H 0.1477 0.2259 0.4630
C30_2 C 0.2875(3) 0.1482(5) 0.5751(3)
C32_4 C 0.1392(4) 0.2875(3) 0.4249(3)
C33_2 C 0.2942(3) 0.1891(4) 0.6088(3)
C35_4 C 0.1050(3) 0.2942(3) 0.3912(3)
C36_2 C 0.3595(3) 0.2258(5) 0.6242(3)
C38_4 C 0.1336(4) 0.3595(3) 0.3758(3)
C39_2 C 0.3980(3) 0.2098(5) 0.6024(3)
C41_4 C 0.1881(4) 0.3980(3) 0.3976(3)
C42_2 C 0.3849(3) 0.2728(5) 0.6576(3)
C44_4 C 0.1120(4) 0.3849(3) 0.3424(3)
H16_2 H 0.3608 0.2862 0.6719
H18_4 H 0.0745 0.3608 0.3281
C45_2 C 0.4606(4) 0.2358(6) 0.6132(3)
C47_4 C 0.2247(4) 0.4606(4) 0.3868(3)
H19_2 H 0.4854 0.2238 0.5982
H21_4 H 0.2615 0.4854 0.4018
C48_2 C 0.4458(4) 0.2971(6) 0.6677(3)
C50_4 C 0.1486(4) 0.4458(4) 0.3323(3)
H22_2 H 0.4625 0.3268 0.6900
H24_4 H 0.1356 0.4625 0.3100
C51_2 C 0.4845(3) 0.2795(5) 0.6464(2)
C53_4 C 0.2049(4) 0.4845(3) 0.3536(2)
C54_2 C 0.5498(4) 0.3049(6) 0.6617(3)
C56_4 C 0.2448(4) 0.5498(4) 0.3383(3)
Ce1_3 Ce -0.0000 1.0000 0.63295(3)
Ce2_3 Ce -0.0000 1.0000 0.5000
H1_2 H 0.0017 0.8491 0.6163
O11_2 O 0.0324(3) 0.9188(2) 0.47778(19)
O40_2 O 0.0948(2) 0.9879(3) 0.64212(19)
Ce1_4 Ce 1.0000 0.0000 0.63295(3)
Ce2_4 Ce 1.0000 0.0000 0.5000
S3_2 S 0.84765(15) 0.20560(12) 0.56214(9)
O8_2 O 0.9676(3) 0.0812(2) 0.52222(19)
O13_2 O 0.9374(3) 0.0059(2) 0.57150(17)
O28_2 O 0.9487(3) 0.0355(2) 0.68888(19)
O50_2 O 0.8243(5) 0.2005(4) 0.5167(2)
O53_2 O 0.9042(4) 0.2610(3) 0.5747(3)
C16_2 C 0.9344(4) 0.0518(3) 0.5542(3)
C19_2 C 0.8915(4) 0.0694(3) 0.5741(3)
C22_2 C 0.8490(4) 0.0342(3) 0.6063(3)
H9_4 H 0.9983 0.1509 0.3837
C25_2 C 0.8086(6) 0.0513(4) 0.6243(3)
H11_2 H 0.7803 0.0273 0.6462
C28_2 C 0.8932(6) 0.1232(4) 0.5584(3)
H14_2 H 0.9219 0.1477 0.5370
C31_2 C 0.8518(5) 0.1392(4) 0.5751(3)
C34_2 C 0.8109(4) 0.1050(3) 0.6088(3)
C37_2 C 0.7742(5) 0.1336(4) 0.6242(3)
C40_2 C 0.7902(5) 0.1881(4) 0.6024(3)
C43_2 C 0.7272(5) 0.1120(4) 0.6576(3)
H17_2 H 0.7138 0.0745 0.6719
C46_2 C 0.7642(6) 0.2247(4) 0.6132(3)
H20_2 H 0.7762 0.2615 0.5982
C49_2 C 0.7029(6) 0.1486(4) 0.6677(3)
H23_2 H 0.6732 0.1356 0.6900
C52_2 C 0.7205(5) 0.2049(4) 0.6464(2)
C55_2 C 0.6951(6) 0.2448(4) 0.6617(3)
Ce1_5 Ce 1.0000 1.0000 0.63295(3)
Ce2_5 Ce 1.0000 1.0000 0.5000
S1_2 S 0.79440(12) 0.64204(9) 0.56214(9)
O1_2 O 0.9188(2) 0.8863(2) 0.52222(19)
O2_2 O 0.9941(2) 0.9314(2) 0.57150(17)
O5_2 O 0.7995(4) 0.6237(3) 0.5167(2)
O6_2 O 0.7390(3) 0.6431(3) 0.5747(3)
C1_2 C 0.9482(3) 0.8825(3) 0.5542(3)
C2_2 C 0.9306(3) 0.8220(3) 0.5741(3)
C3_2 C 0.9658(3) 0.8147(3) 0.6063(3)
C4_2 C 0.9487(4) 0.7572(4) 0.6243(3)
H2_2 H 0.9727 0.7529 0.6462
C5_2 C 0.8768(4) 0.7699(4) 0.5584(3)
H3_2 H 0.8523 0.7741 0.5370
C6_2 C 0.8608(4) 0.7125(3) 0.5751(3)
C7_2 C 0.8950(3) 0.7058(3) 0.6088(3)
C8_2 C 0.8664(4) 0.6405(3) 0.6242(3)
C9_2 C 0.8119(4) 0.6020(3) 0.6024(3)
C10_2 C 0.8880(4) 0.6151(3) 0.6576(3)
H4_2 H 0.9255 0.6392 0.6719
C11_2 C 0.7753(4) 0.5394(4) 0.6132(3)
H5_2 H 0.7385 0.5146 0.5982
C12_2 C 0.8514(4) 0.5542(4) 0.6677(3)
H6_2 H 0.8644 0.5375 0.6900
C13_2 C 0.7951(4) 0.5155(3) 0.6464(2)
C14_2 C 0.7552(4) 0.4502(4) 0.6617(3)
O10_2 O 0.8863(2) 0.9676(3) 0.47778(19)
O26_2 O 0.9645(2) 0.9132(2) 0.68888(19)
O39_2 O 0.8931(2) 0.9052(2) 0.64212(19)
H8_2 H 0.8475 0.9983 0.6163
S4_5 S 0.64204(9) 0.84765(15) 0.43786(9)
O51_5 O 0.6237(3) 0.8243(5) 0.4833(2)
O54_5 O 0.6431(3) 0.9042(4) 0.4253(3)
C17_5 C 0.8825(3) 0.9344(4) 0.4458(3)
C20_5 C 0.8220(3) 0.8915(4) 0.4259(3)
C23_5 C 0.8147(3) 0.8490(4) 0.3937(3)
H9_5 H 0.8491 0.8475 0.3837
C26_5 C 0.7572(4) 0.8086(6) 0.3757(3)
H12_5 H 0.7529 0.7803 0.3538
C29_5 C 0.7699(4) 0.8932(6) 0.4416(3)
H15_5 H 0.7741 0.9219 0.4630
C32_5 C 0.7125(3) 0.8518(5) 0.4249(3)
C35_5 C 0.7058(3) 0.8109(4) 0.3912(3)
C38_5 C 0.6405(3) 0.7742(5) 0.3758(3)
C41_5 C 0.6020(3) 0.7902(5) 0.3976(3)
C44_5 C 0.6151(3) 0.7272(5) 0.3424(3)
H18_5 H 0.6392 0.7138 0.3281
C47_5 C 0.5394(4) 0.7642(6) 0.3868(3)
H21_5 H 0.5146 0.7762 0.4018
C50_5 C 0.5542(4) 0.7029(6) 0.3323(3)
H24_5 H 0.5375 0.6732 0.3100
C53_5 C 0.5155(3) 0.7205(5) 0.3536(2)
C56_5 C 0.4502(4) 0.6951(6) 0.3383(3)
H9_6 H 0.1525 0.0017 0.3837
S4_6 S 0.15235(15) 0.79440(12) 0.43786(9)
O51_6 O 0.1757(5) 0.7995(4) 0.4833(2)
O54_6 O 0.0958(4) 0.7390(3) 0.4253(3)
C17_6 C 0.0656(4) 0.9482(3) 0.4458(3)
C20_6 C 0.1085(4) 0.9306(3) 0.4259(3)
C23_6 C 0.1510(4) 0.9658(3) 0.3937(3)
C26_6 C 0.1914(6) 0.9487(4) 0.3757(3)
H12_6 H 0.2197 0.9727 0.3538
C29_6 C 0.1068(6) 0.8768(4) 0.4416(3)
H15_6 H 0.0781 0.8523 0.4630
C32_6 C 0.1482(5) 0.8608(4) 0.4249(3)
C35_6 C 0.1891(4) 0.8950(3) 0.3912(3)
C38_6 C 0.2258(5) 0.8664(4) 0.3758(3)
C41_6 C 0.2098(5) 0.8119(4) 0.3976(3)
C44_6 C 0.2728(5) 0.8880(4) 0.3424(3)
H18_6 H 0.2862 0.9255 0.3281
C47_6 C 0.2358(6) 0.7753(4) 0.3868(3)
H21_6 H 0.2238 0.7385 0.4018
C50_6 C 0.2971(6) 0.8514(4) 0.3323(3)
H24_6 H 0.3268 0.8644 0.3100
C53_6 C 0.2795(5) 0.7951(4) 0.3536(2)
C56_6 C 0.3049(6) 0.7552(4) 0.3383(3)
H16_3 H 0.0274 0.6196 0.0053
C48_3 C 0.1124(4) 0.6305(6) 0.0011(3)
H22_3 H 0.1291 0.6602 0.0234
S2_3 S 0.02462(9) 0.48569(15) 0.89548(9)
O49_3 O 0.0429(3) 0.5091(5) 0.8501(2)
O52_3 O 0.0235(3) 0.4292(4) 0.9081(3)
C36_3 C 0.0261(3) 0.5592(5) 0.9576(3)
C39_3 C 0.0646(3) 0.5432(5) 0.9358(3)
C42_3 C 0.0515(3) 0.6062(5) 0.9910(3)
C45_3 C 0.1272(4) 0.5692(6) 0.9466(3)
H19_3 H 0.1520 0.5572 0.9316
C51_3 C 0.1511(3) 0.6129(5) 0.9798(2)
C54_3 C 0.2164(4) 0.6383(6) 0.9951(3)
H17_3 H 0.3804 0.4079 0.0053
C49_3 C 0.3695(6) 0.4820(4) 0.0011(3)
H23_3 H 0.3398 0.4690 0.0234
Ce2_6 Ce 0.6666 0.3334 0.8334
O1_3 O 0.5854(2) 0.2197(2) 0.85556(19)
O2_3 O 0.6607(2) 0.2648(2) 0.90484(17)
C1_3 C 0.6148(3) 0.2159(3) 0.8876(3)
C2_3 C 0.5972(3) 0.1554(3) 0.9075(3)
C3_3 C 0.6324(3) 0.1481(3) 0.9397(3)
H1_3 H 0.6683 0.1825 0.9497
C4_3 C 0.6153(4) 0.0906(4) 0.9577(3)
H2_3 H 0.6393 0.0863 0.9796
C5_3 C 0.5434(4) 0.1033(4) 0.8918(3)
H3_3 H 0.5189 0.1075 0.8704
C6_3 C 0.5274(4) 0.0459(3) 0.9085(3)
C7_3 C 0.5616(3) 0.0392(3) 0.9422(3)
S3_3 S 0.51431(15) 0.53894(12) 0.89548(9)
S4_7 S 0.87227(12) 0.69129(9) 0.77119(9)
O7_3 O 0.7803(2) 0.3658(3) 0.85556(19)
O8_3 O 0.6342(3) 0.4146(2) 0.85556(19)
O9_3 O 0.7479(2) 0.4470(2) 0.81111(19)
O10_3 O 0.5530(2) 0.3009(3) 0.81111(19)
O11_3 O 0.6991(3) 0.2521(2) 0.81111(19)
O12_3 O 0.7352(2) 0.3960(3) 0.90484(17)
O13_3 O 0.6040(3) 0.3393(2) 0.90484(17)
O50_3 O 0.4909(5) 0.5339(4) 0.8501(2)
O51_7 O 0.8672(4) 0.7096(3) 0.8166(2)
O53_3 O 0.5708(4) 0.5944(3) 0.9081(3)
O54_7 O 0.9277(3) 0.6902(3) 0.7586(3)
C15_3 C 0.7841(3) 0.3990(4) 0.8876(3)
C16_3 C 0.6010(4) 0.3852(3) 0.8876(3)
C17_7 C 0.7185(3) 0.4508(3) 0.7791(3)
C18_3 C 0.8446(3) 0.4419(4) 0.9075(3)
C19_3 C 0.5581(4) 0.4028(3) 0.9075(3)
C20_7 C 0.7361(3) 0.5113(3) 0.7592(3)
C21_3 C 0.8519(3) 0.4844(4) 0.9397(3)
C22_3 C 0.5156(4) 0.3676(3) 0.9397(3)
C23_7 C 0.7009(3) 0.5186(3) 0.7270(3)
H7_3 H 0.8175 0.4859 0.9497
H8_3 H 0.5141 0.3317 0.9497
H9_7 H 0.6650 0.4842 0.7170
C24_3 C 0.9094(4) 0.5248(6) 0.9577(3)
C25_3 C 0.4752(6) 0.3847(4) 0.9577(3)
C26_7 C 0.7180(4) 0.5761(4) 0.7090(3)
H10_3 H 0.9137 0.5531 0.9796
H11_3 H 0.4469 0.3607 0.9796
H12_7 H 0.6940 0.5804 0.6871
C27_3 C 0.8967(4) 0.4402(6) 0.8918(3)
C28_3 C 0.5598(6) 0.4566(4) 0.8918(3)
C29_7 C 0.7899(4) 0.5634(4) 0.7749(3)
H13_3 H 0.8925 0.4115 0.8704
H14_3 H 0.5885 0.4811 0.8704
H15_7 H 0.8144 0.5592 0.7963
C30_3 C 0.9541(3) 0.4816(5) 0.9085(3)
C31_3 C 0.5184(5) 0.4726(4) 0.9085(3)
C32_7 C 0.8059(4) 0.6208(3) 0.7582(3)
C33_3 C 0.9608(3) 0.5225(4) 0.9422(3)
C34_3 C 0.4775(4) 0.4384(3) 0.9422(3)
C35_7 C 0.7717(3) 0.6275(3) 0.7245(3)
C37_3 C 0.4408(5) 0.4670(4) 0.9576(3)
C38_7 C 0.8003(4) 0.6928(3) 0.7091(3)
C40_3 C 0.4568(5) 0.5215(4) 0.9358(3)
C41_7 C 0.8548(4) 0.7313(3) 0.7309(3)
C43_3 C 0.3938(5) 0.4454(4) 0.9910(3)
C44_7 C 0.7787(4) 0.7182(3) 0.6757(3)
H18_7 H 0.7412 0.6941 0.6614
C46_3 C 0.4308(6) 0.5581(4) 0.9466(3)
C47_7 C 0.8914(4) 0.7939(4) 0.7201(3)
H20_3 H 0.4428 0.5949 0.9316
H21_7 H 0.9282 0.8187 0.7351
C50_7 C 0.8153(4) 0.7791(4) 0.6656(3)
H24_7 H 0.8023 0.7958 0.6433
C52_3 C 0.3871(5) 0.5383(4) 0.9798(2)
C53_7 C 0.8716(4) 0.8178(3) 0.6869(2)
C55_3 C 0.3617(6) 0.5782(4) 0.9951(3)
C56_7 C 0.9115(4) 0.8831(4) 0.6716(3)
H4_3 H 0.5921 0.9726 0.0053
C12_3 C 0.5180(4) 0.8876(4) 0.0011(3)
H6_3 H 0.5310 0.8709 0.0234
S1_3 S 0.46106(12) 0.97538(9) 0.89548(9)
O5_3 O 0.4661(4) 0.9571(3) 0.8501(2)
O6_3 O 0.4056(3) 0.9765(3) 0.9081(3)
C8_3 C 0.5330(4) 0.9739(3) 0.9576(3)
C9_3 C 0.4785(4) 0.9354(3) 0.9358(3)
C10_3 C 0.5546(4) 0.9485(3) 0.9910(3)
C11_3 C 0.4419(4) 0.8728(4) 0.9466(3)
H5_3 H 0.4051 0.8480 0.9316
C13_3 C 0.4617(4) 0.8489(3) 0.9798(2)
C14_3 C 0.4218(4) 0.7836(4) 0.9951(3)
S4_8 S 0.30871(9) 0.18098(15) 0.77119(9)
O51_8 O 0.2904(3) 0.1576(5) 0.8166(2)
O54_8 O 0.3098(3) 0.2375(4) 0.7586(3)
C17_8 C 0.5492(3) 0.2677(4) 0.7791(3)
C20_8 C 0.4887(3) 0.2248(4) 0.7592(3)
C23_8 C 0.4814(3) 0.1823(4) 0.7270(3)
H9_8 H 0.5158 0.1808 0.7170
C26_8 C 0.4239(4) 0.1419(6) 0.7090(3)
H12_8 H 0.4196 0.1136 0.6871
C29_8 C 0.4366(4) 0.2265(6) 0.7749(3)
H15_8 H 0.4408 0.2552 0.7963
C32_8 C 0.3792(3) 0.1851(5) 0.7582(3)
C35_8 C 0.3725(3) 0.1442(4) 0.7245(3)
C38_8 C 0.3072(3) 0.1075(5) 0.7091(3)
C41_8 C 0.2687(3) 0.1235(5) 0.7309(3)
C44_8 C 0.2818(3) 0.0605(5) 0.6757(3)
H18_8 H 0.3059 0.0471 0.6614
C47_8 C 0.2061(4) 0.0975(6) 0.7201(3)
H21_8 H 0.1813 0.1095 0.7351
C50_8 C 0.2209(4) 0.0362(6) 0.6656(3)
H24_8 H 0.2042 0.0065 0.6433
C53_8 C 0.1822(3) 0.0538(5) 0.6869(2)
C56_8 C 0.1169(4) 0.0284(6) 0.6716(3)
S4_9 S 0.81902(15) 0.12773(12) 0.77119(9)
O51_9 O 0.8424(5) 0.1328(4) 0.8166(2)
O54_9 O 0.7625(4) 0.0723(3) 0.7586(3)
C17_9 C 0.7323(4) 0.2815(3) 0.7791(3)
C20_9 C 0.7752(4) 0.2639(3) 0.7592(3)
C23_9 C 0.8177(4) 0.2991(3) 0.7270(3)
H9_9 H 0.8192 0.3350 0.7170
C26_9 C 0.8581(6) 0.2820(4) 0.7090(3)
H12_9 H 0.8864 0.3060 0.6871
C29_9 C 0.7735(6) 0.2101(4) 0.7749(3)
H15_9 H 0.7448 0.1856 0.7963
C32_9 C 0.8149(5) 0.1941(4) 0.7582(3)
C35_9 C 0.8558(4) 0.2283(3) 0.7245(3)
C38_9 C 0.8925(5) 0.1997(4) 0.7091(3)
C41_9 C 0.8765(5) 0.1452(4) 0.7309(3)
C44_9 C 0.9395(5) 0.2213(4) 0.6757(3)
H18_9 H 0.9529 0.2588 0.6614
C47_9 C 0.9025(6) 0.1086(4) 0.7201(3)
H21_9 H 0.8905 0.0718 0.7351
C50_9 C 0.9638(6) 0.1847(4) 0.6656(3)
H24_9 H 0.9935 0.1977 0.6433
C53_9 C 0.9462(5) 0.1284(4) 0.6869(2)
C56_9 C 0.9716(6) 0.0885(4) 0.6716(3)
loop_
_geom_bond_atom_site_label_1
_geom_bond_atom_site_label_2
_geom_bond_site_symmetry_1
_geom_bond_site_symmetry_2
O22 Ce5 1_555 1_555
O35 Ce5 1_555 1_555
O48 Ce5 1_555 1_555
S4 O51 1_555 1_555
O25 C56 1_555 1_555
O36 Ce5_2 1_555 1_555
O54 S4 1_555 1_555
C41 S4 1_555 1_555
C44 C38 1_555 1_555
C47 C41 1_555 1_555
H21 C47 1_555 1_555
C53 C47 1_555 1_555
C38 C41 1_555 1_555
C53 C56 1_555 1_555
O38 Ce7 1_555 1_555
H24 C50 1_555 1_555
Ce1 O2 1_555 1_555
Ce2 O1 1_555 1_555
S1 O5 1_555 1_555
O1 C1 1_555 1_555
O2 Ce2 1_555 1_555
O35 C14 1_555 1_555
O48 C14 1_555 1_555
O6 S1 1_555 1_555
C1 O2 1_555 1_555
C2 C1 1_555 1_555
C3 C2 1_555 1_555
H1 C3 1_555 1_555
C4 C3 1_555 1_555
H2 C4 1_555 1_555
C5 C2 1_555 1_555
H3 C5 1_555 1_555
C6 S1 1_555 1_555
C7 C4 1_555 1_555
C8 C7 1_555 1_555
C9 S1 1_555 1_555
C10 C8 1_555 1_555
H4 C10 1_555 1_555
C11 C9 1_555 1_555
H5 C11 1_555 1_555
C12 C10 1_555 1_555
H6 C12 1_555 1_555
C13 C11 1_555 1_555
C14 C13 1_555 1_555
Ce3 O14 1_555 1_555
S2 O49 1_555 1_555
S3 O50 1_555 1_555
O7 Ce2 1_555 1_555
O8 Ce2 1_555 1_555
O9 Ce2 1_555 1_555
O10 Ce2 1_555 1_555
O11 Ce2 1_555 1_555
O12 Ce1 1_555 1_555
O13 Ce1 1_555 1_555
O14 Ce2 1_555 1_555
O15 Ce2 1_555 1_555
O16 Ce2 1_555 1_555
O34 C55 1_555 1_555
O26 Ce1 1_555 1_555
O27 Ce1 1_555 1_555
O28 Ce1 1_555 1_555
O39 Ce1 1_555 1_555
O40 Ce1 1_555 1_555
O41 Ce1 1_555 1_555
O42 Ce3 1_555 1_555
O43 Ce3 1_555 1_555
O44 Ce3 1_555 1_555
O52 S2 1_555 1_555
O53 S3 1_555 1_555
C15 O7 1_555 1_555
C16 O8 1_555 1_555
C17 O9 1_555 1_555
C18 C15 1_555 1_555
C19 C16 1_555 1_555
C20 C17 1_555 1_555
C21 C18 1_555 1_555
C22 C19 1_555 1_555
C23 C20 1_555 1_555
H7 C21 1_555 1_555
H8 C22 1_555 1_555
H9 C23 1_555 1_555
C24 C21 1_555 1_555
C25 C22 1_555 1_555
C26 C23 1_555 1_555
H10 C24 1_555 1_555
H11 C25 1_555 1_555
H12 C26 1_555 1_555
C27 C18 1_555 1_555
C28 C19 1_555 1_555
C29 C20 1_555 1_555
H13 C27 1_555 1_555
H14 C28 1_555 1_555
H15 C29 1_555 1_555
C30 S2 1_555 1_555
C31 S3 1_555 1_555
C33 C24 1_555 1_555
C34 C25 1_555 1_555
C35 C26 1_555 1_555
C36 C33 1_555 1_555
C37 C34 1_555 1_555
C39 S2 1_555 1_555
C40 S3 1_555 1_555
C42 C36 1_555 1_555
C43 C37 1_555 1_555
H16 C42 1_555 1_555
H17 C43 1_555 1_555
C45 C39 1_555 1_555
C46 C40 1_555 1_555
H19 C45 1_555 1_555
H20 C46 1_555 1_555
C48 C42 1_555 1_555
C49 C43 1_555 1_555
H22 C48 1_555 1_555
H23 C49 1_555 1_555
C51 C45 1_555 1_555
C52 C46 1_555 1_555
C54 O23 1_555 1_555
Ce2 O12 1_555 1_555
Ce2 O13 1_555 1_555
C5 C6 1_555 1_555
C6 C7 1_555 1_555
C8 C9 1_555 1_555
C12 C13 1_555 1_555
Ce3 O15 1_555 1_555
Ce3 O16 1_555 1_555
O12 C15 1_555 1_555
O13 C16 1_555 1_555
O14 C17 1_555 1_555
C27 C30 1_555 1_555
C28 C31 1_555 1_555
C29 C32 1_555 1_555
C30 C33 1_555 1_555
C31 C34 1_555 1_555
C32 C35 1_555 1_555
C36 C39 1_555 1_555
C37 C40 1_555 1_555
C48 C51 1_555 1_555
C49 C52 1_555 1_555
C51 C54 1_555 1_555
C52 C55 1_555 1_555
O21 Ce4 1_555 1_555
O34 Ce4 1_555 1_555
O47 Ce6 1_555 1_555
O20 Ce6 1_555 1_555
O23 Ce6 1_555 1_555
C17_2 O10 1_555 1_555
C20_2 C17_2 1_555 1_555
C23_2 C20_2 1_555 1_555
H9_2 C23_2 1_555 1_555
C26_2 C23_2 1_555 1_555
H12_2 C26_2 1_555 1_555
C29_2 C20_2 1_555 1_555
H15_2 C29_2 1_555 1_555
C35_2 C26_2 1_555 1_555
O15 C17_2 1_555 1_555
C29_2 C32_2 1_555 1_555
C32_2 C35_2 1_555 1_555
S4_2 O51_2 1_555 1_555
O25_2 C56_2 1_555 1_555
O54_2 S4_2 1_555 1_555
C41_2 S4_2 1_555 1_555
C44_2 C38_2 1_555 1_555
C47_2 C41_2 1_555 1_555
H21_2 C47_2 1_555 1_555
C53_2 C47_2 1_555 1_555
C38_2 C41_2 1_555 1_555
C53_2 C56_2 1_555 1_555
O38_2 Ce7 1_555 1_555
H24_2 C50_2 1_555 1_555
S4_3 O51_3 1_555 1_555
O25_3 C56_3 1_555 1_555
O54_3 S4_3 1_555 1_555
C17_3 O11 1_555 1_555
C20_3 C17_3 1_555 1_555
C23_3 C20_3 1_555 1_555
H9_3 C23_3 1_555 1_555
C26_3 C23_3 1_555 1_555
H12_3 C26_3 1_555 1_555
C29_3 C20_3 1_555 1_555
H15_3 C29_3 1_555 1_555
C32_3 S4_3 1_555 1_555
C35_3 C26_3 1_555 1_555
C38_3 C35_3 1_555 1_555
C41_3 S4_3 1_555 1_555
C44_3 C38_3 1_555 1_555
C47_3 C41_3 1_555 1_555
H21_3 C47_3 1_555 1_555
C53_3 C47_3 1_555 1_555
O16 C17_3 1_555 1_555
C29_3 C32_3 1_555 1_555
C32_3 C35_3 1_555 1_555
C38_3 C41_3 1_555 1_555
C53_3 C56_3 1_555 1_555
O38_3 Ce7 1_555 1_555
H24_3 C50_3 1_555 1_555
Ce5_3 O20_2 1_555 1_555
S2_2 O49_2 1_555 1_555
S4_4 O51_4 1_555 1_555
O7_2 Ce2_2 1_555 1_555
O9_2 Ce2_2 1_555 1_555
O12_2 Ce1_2 1_555 1_555
O22 Ce2_2 1_555 1_555
O21_2 Ce5_3 1_555 1_555
O22_2 Ce5_3 1_555 1_555
O23_2 Ce5_3 1_555 1_555
O26 C56_4 1_555 1_555
O27_2 Ce1_2 1_555 1_555
O34_2 Ce5_3 1_555 1_555
O35_2 Ce5_3 1_555 1_555
O36_2 Ce5_3 1_555 1_555
O41_2 Ce1_2 1_555 1_555
O47_2 Ce5_3 1_555 1_555
O48_2 Ce5_3 1_555 1_555
O52_2 S2_2 1_555 1_555
O54_4 S4_4 1_555 1_555
C15_2 O7_2 1_555 1_555
C17_4 O9_2 1_555 1_555
C18_2 C15_2 1_555 1_555
C20_4 C17_4 1_555 1_555
C21_2 C18_2 1_555 1_555
C23_4 C20_4 1_555 1_555
H7_2 C21_2 1_555 1_555
C24_2 C21_2 1_555 1_555
C26_4 C23_4 1_555 1_555
H10_2 C24_2 1_555 1_555
H12_4 C26_4 1_555 1_555
C27_2 C18_2 1_555 1_555
C29_4 C20_4 1_555 1_555
H13_2 C27_2 1_555 1_555
H15_4 C29_4 1_555 1_555
C30_2 S2_2 1_555 1_555
C32_4 S4_4 1_555 1_555
C33_2 C24_2 1_555 1_555
C35_4 C26_4 1_555 1_555
C36_2 C33_2 1_555 1_555
C38_4 C35_4 1_555 1_555
C39_2 S2_2 1_555 1_555
C41_4 S4_4 1_555 1_555
C42_2 C36_2 1_555 1_555
C44_4 C38_4 1_555 1_555
H16_2 C42_2 1_555 1_555
H18_4 C44_4 1_555 1_555
C45_2 C39_2 1_555 1_555
C47_4 C41_4 1_555 1_555
H19_2 C45_2 1_555 1_555
H21_4 C47_4 1_555 1_555
C48_2 C42_2 1_555 1_555
C50_4 C44_4 1_555 1_555
H22_2 C48_2 1_555 1_555
H24_4 C50_4 1_555 1_555
C51_2 C45_2 1_555 1_555
C53_4 C47_4 1_555 1_555
C54_2 O23_2 1_555 1_555
C56_4 O39 1_555 1_555
Ce2_2 O12_2 1_555 1_555
O12_2 C15_2 1_555 1_555
O22 C17_4 1_555 1_555
O36_2 C54_2 1_555 1_555
C27_2 C30_2 1_555 1_555
C29_4 C32_4 1_555 1_555
C30_2 C33_2 1_555 1_555
C32_4 C35_4 1_555 1_555
C36_2 C39_2 1_555 1_555
C38_4 C41_4 1_555 1_555
C48_2 C51_2 1_555 1_555
C50_4 C53_4 1_555 1_555
C51_2 C54_2 1_555 1_555
C53_4 C56_4 1_555 1_555
O11_2 Ce2_3 1_555 1_555
O21 Ce2_3 1_555 1_555
O40_2 Ce1_3 1_555 1_555
S3_2 O50_2 1_555 1_555
O8_2 Ce2_4 1_555 1_555
O13_2 Ce1_4 1_555 1_555
O34_2 C55_2 1_555 1_555
O28_2 Ce1_4 1_555 1_555
O53_2 S3_2 1_555 1_555
C16_2 O8_2 1_555 1_555
C19_2 C16_2 1_555 1_555
C22_2 C19_2 1_555 1_555
C25_2 C22_2 1_555 1_555
H11_2 C25_2 1_555 1_555
C28_2 C19_2 1_555 1_555
H14_2 C28_2 1_555 1_555
C31_2 S3_2 1_555 1_555
C34_2 C25_2 1_555 1_555
C37_2 C34_2 1_555 1_555
C40_2 S3_2 1_555 1_555
C43_2 C37_2 1_555 1_555
H17_2 C43_2 1_555 1_555
C46_2 C40_2 1_555 1_555
H20_2 C46_2 1_555 1_555
C49_2 C43_2 1_555 1_555
H23_2 C49_2 1_555 1_555
C52_2 C46_2 1_555 1_555
C55_2 O47_2 1_555 1_555
Ce2_4 O13_2 1_555 1_555
O13_2 C16_2 1_555 1_555
C28_2 C31_2 1_555 1_555
C31_2 C34_2 1_555 1_555
C37_2 C40_2 1_555 1_555
C49_2 C52_2 1_555 1_555
C52_2 C55_2 1_555 1_555
Ce1_5 O2_2 1_555 1_555
Ce2_5 O1_2 1_555 1_555
S1_2 O5_2 1_555 1_555
O1_2 C1_2 1_555 1_555
O2_2 Ce2_5 1_555 1_555
O35_2 C14_2 1_555 1_555
O48_2 C14_2 1_555 1_555
O6_2 S1_2 1_555 1_555
C1_2 O2_2 1_555 1_555
C2_2 C1_2 1_555 1_555
C3_2 C2_2 1_555 1_555
C4_2 C3_2 1_555 1_555
H2_2 C4_2 1_555 1_555
C5_2 C2_2 1_555 1_555
H3_2 C5_2 1_555 1_555
C6_2 S1_2 1_555 1_555
C7_2 C4_2 1_555 1_555
C8_2 C7_2 1_555 1_555
C9_2 S1_2 1_555 1_555
C10_2 C8_2 1_555 1_555
H4_2 C10_2 1_555 1_555
C11_2 C9_2 1_555 1_555
H5_2 C11_2 1_555 1_555
C12_2 C10_2 1_555 1_555
H6_2 C12_2 1_555 1_555
C13_2 C11_2 1_555 1_555
C14_2 C13_2 1_555 1_555
O10_2 Ce2_5 1_555 1_555
O20 Ce2_5 1_555 1_555
O26_2 Ce1_5 1_555 1_555
O39_2 Ce1_5 1_555 1_555
C5_2 C6_2 1_555 1_555
C6_2 C7_2 1_555 1_555
C8_2 C9_2 1_555 1_555
C12_2 C13_2 1_555 1_555
S4_5 O51_5 1_555 1_555
O27 C56_5 1_555 1_555
O54_5 S4_5 1_555 1_555
C17_5 O10_2 1_555 1_555
C20_5 C17_5 1_555 1_555
C23_5 C20_5 1_555 1_555
H9_5 C23_5 1_555 1_555
C26_5 C23_5 1_555 1_555
H12_5 C26_5 1_555 1_555
C29_5 C20_5 1_555 1_555
H15_5 C29_5 1_555 1_555
C32_5 S4_5 1_555 1_555
C35_5 C26_5 1_555 1_555
C38_5 C35_5 1_555 1_555
C41_5 S4_5 1_555 1_555
C44_5 C38_5 1_555 1_555
H18_5 C44_5 1_555 1_555
C47_5 C41_5 1_555 1_555
H21_5 C47_5 1_555 1_555
C50_5 C44_5 1_555 1_555
H24_5 C50_5 1_555 1_555
C53_5 C47_5 1_555 1_555
C56_5 O40 1_555 1_555
O20 C17_5 1_555 1_555
C29_5 C32_5 1_555 1_555
C32_5 C35_5 1_555 1_555
C38_5 C41_5 1_555 1_555
C50_5 C53_5 1_555 1_555
C53_5 C56_5 1_555 1_555
S4_6 O51_6 1_555 1_555
O28 C56_6 1_555 1_555
O54_6 S4_6 1_555 1_555
C17_6 O11_2 1_555 1_555
C20_6 C17_6 1_555 1_555
C23_6 C20_6 1_555 1_555
C26_6 C23_6 1_555 1_555
H12_6 C26_6 1_555 1_555
C29_6 C20_6 1_555 1_555
H15_6 C29_6 1_555 1_555
C32_6 S4_6 1_555 1_555
C35_6 C26_6 1_555 1_555
C38_6 C35_6 1_555 1_555
C41_6 S4_6 1_555 1_555
C44_6 C38_6 1_555 1_555
H18_6 C44_6 1_555 1_555
C47_6 C41_6 1_555 1_555
H21_6 C47_6 1_555 1_555
C50_6 C44_6 1_555 1_555
H24_6 C50_6 1_555 1_555
C53_6 C47_6 1_555 1_555
C56_6 O41 1_555 1_555
O21 C17_6 1_555 1_555
C29_6 C32_6 1_555 1_555
C32_6 C35_6 1_555 1_555
C38_6 C41_6 1_555 1_555
C50_6 C53_6 1_555 1_555
C53_6 C56_6 1_555 1_555
H22_3 C48_3 1_555 1_555
S2_3 O49_3 1_555 1_555
O52_3 S2_3 1_555 1_555
C39_3 S2_3 1_555 1_555
C42_3 C36_3 1_555 1_555
C45_3 C39_3 1_555 1_555
H19_3 C45_3 1_555 1_555
C51_3 C45_3 1_555 1_555
C54_3 O30 1_555 1_555
C36_3 C39_3 1_555 1_555
C51_3 C54_3 1_555 1_555
H23_3 C49_3 1_555 1_555
Ce7 O2_3 1_555 1_555
Ce2_6 O1_3 1_555 1_555
O1_3 C1_3 1_555 1_555
O2_3 Ce2_6 1_555 1_555
C1_3 O2_3 1_555 1_555
C2_3 C1_3 1_555 1_555
C3_3 C2_3 1_555 1_555
H1_3 C3_3 1_555 1_555
C4_3 C3_3 1_555 1_555
H2_3 C4_3 1_555 1_555
C5_3 C2_3 1_555 1_555
H3_3 C5_3 1_555 1_555
C7_3 C4_3 1_555 1_555
S3_3 O50_3 1_555 1_555
S4_7 O51_7 1_555 1_555
O7_3 Ce2_6 1_555 1_555
O8_3 Ce2_6 1_555 1_555
O9_3 Ce2_6 1_555 1_555
O10_3 Ce2_6 1_555 1_555
O11_3 Ce2_6 1_555 1_555
O12_3 Ce7 1_555 1_555
O13_3 Ce7 1_555 1_555
O22_2 Ce2_6 1_555 1_555
O20_2 Ce2_6 1_555 1_555
O21_2 Ce2_6 1_555 1_555
O31 C55_3 1_555 1_555
O26_2 C56_7 1_555 1_555
O53_3 S3_3 1_555 1_555
O54_7 S4_7 1_555 1_555
C15_3 O7_3 1_555 1_555
C16_3 O8_3 1_555 1_555
C17_7 O9_3 1_555 1_555
C18_3 C15_3 1_555 1_555
C19_3 C16_3 1_555 1_555
C20_7 C17_7 1_555 1_555
C21_3 C18_3 1_555 1_555
C22_3 C19_3 1_555 1_555
C23_7 C20_7 1_555 1_555
H7_3 C21_3 1_555 1_555
H8_3 C22_3 1_555 1_555
H9_7 C23_7 1_555 1_555
C24_3 C21_3 1_555 1_555
C25_3 C22_3 1_555 1_555
C26_7 C23_7 1_555 1_555
H10_3 C24_3 1_555 1_555
H11_3 C25_3 1_555 1_555
H12_7 C26_7 1_555 1_555
C27_3 C18_3 1_555 1_555
C28_3 C19_3 1_555 1_555
C29_7 C20_7 1_555 1_555
H13_3 C27_3 1_555 1_555
H14_3 C28_3 1_555 1_555
H15_7 C29_7 1_555 1_555
C31_3 S3_3 1_555 1_555
C32_7 S4_7 1_555 1_555
C33_3 C24_3 1_555 1_555
C34_3 C25_3 1_555 1_555
C35_7 C26_7 1_555 1_555
C37_3 C34_3 1_555 1_555
C38_7 C35_7 1_555 1_555
C40_3 S3_3 1_555 1_555
C41_7 S4_7 1_555 1_555
C43_3 C37_3 1_555 1_555
C44_7 C38_7 1_555 1_555
H18_7 C44_7 1_555 1_555
C46_3 C40_3 1_555 1_555
C47_7 C41_7 1_555 1_555
H20_3 C46_3 1_555 1_555
H21_7 C47_7 1_555 1_555
C50_7 C44_7 1_555 1_555
H24_7 C50_7 1_555 1_555
C52_3 C46_3 1_555 1_555
C53_7 C47_7 1_555 1_555
C56_7 O39_2 1_555 1_555
Ce2_6 O12_3 1_555 1_555
Ce2_6 O13_3 1_555 1_555
C5_3 C6_3 1_555 1_555
C6_3 C7_3 1_555 1_555
O12_3 C15_3 1_555 1_555
O13_3 C16_3 1_555 1_555
O22_2 C17_7 1_555 1_555
C27_3 C30_3 1_555 1_555
C28_3 C31_3 1_555 1_555
C29_7 C32_7 1_555 1_555
C30_3 C33_3 1_555 1_555
C31_3 C34_3 1_555 1_555
C32_7 C35_7 1_555 1_555
C37_3 C40_3 1_555 1_555
C38_7 C41_7 1_555 1_555
C50_7 C53_7 1_555 1_555
C52_3 C55_3 1_555 1_555
C53_7 C56_7 1_555 1_555
H6_3 C12_3 1_555 1_555
S1_3 O5_3 1_555 1_555
O29 C14_3 1_555 1_555
O6_3 S1_3 1_555 1_555
C9_3 S1_3 1_555 1_555
C10_3 C8_3 1_555 1_555
C11_3 C9_3 1_555 1_555
H5_3 C11_3 1_555 1_555
C13_3 C11_3 1_555 1_555
C14_3 C13_3 1_555 1_555
C8_3 C9_3 1_555 1_555
S4_8 O51_8 1_555 1_555
O27_2 C56_8 1_555 1_555
O54_8 S4_8 1_555 1_555
C17_8 O10_3 1_555 1_555
C20_8 C17_8 1_555 1_555
C23_8 C20_8 1_555 1_555
H9_8 C23_8 1_555 1_555
C26_8 C23_8 1_555 1_555
H12_8 C26_8 1_555 1_555
C29_8 C20_8 1_555 1_555
H15_8 C29_8 1_555 1_555
C32_8 S4_8 1_555 1_555
C35_8 C26_8 1_555 1_555
C38_8 C35_8 1_555 1_555
C41_8 S4_8 1_555 1_555
C44_8 C38_8 1_555 1_555
H18_8 C44_8 1_555 1_555
C47_8 C41_8 1_555 1_555
H21_8 C47_8 1_555 1_555
C50_8 C44_8 1_555 1_555
H24_8 C50_8 1_555 1_555
C53_8 C47_8 1_555 1_555
O20_2 C17_8 1_555 1_555
C29_8 C32_8 1_555 1_555
C32_8 C35_8 1_555 1_555
C38_8 C41_8 1_555 1_555
C50_8 C53_8 1_555 1_555
C53_8 C56_8 1_555 1_555
S4_9 O51_9 1_555 1_555
O28_2 C56_9 1_555 1_555
O54_9 S4_9 1_555 1_555
C17_9 O11_3 1_555 1_555
C20_9 C17_9 1_555 1_555
C23_9 C20_9 1_555 1_555
H9_9 C23_9 1_555 1_555
C26_9 C23_9 1_555 1_555
H12_9 C26_9 1_555 1_555
C29_9 C20_9 1_555 1_555
H15_9 C29_9 1_555 1_555
C32_9 S4_9 1_555 1_555
C35_9 C26_9 1_555 1_555
C38_9 C35_9 1_555 1_555
C41_9 S4_9 1_555 1_555
C44_9 C38_9 1_555 1_555
H18_9 C44_9 1_555 1_555
C47_9 C41_9 1_555 1_555
H21_9 C47_9 1_555 1_555
C50_9 C44_9 1_555 1_555
H24_9 C50_9 1_555 1_555
C53_9 C47_9 1_555 1_555
O21_2 C17_9 1_555 1_555
C29_9 C32_9 1_555 1_555
C32_9 C35_9 1_555 1_555
C38_9 C41_9 1_555 1_555
C50_9 C53_9 1_555 1_555
C53_9 C56_9 1_555 1_555

#END
