
###############################################################################
#
# This file contains modified crystal structure data generated from the
# MOF subset of the Cambridge Structural Database (CSD) v543 
# hosted by the Cambridge Crystallographic Data Centre (CCDC).
#
# This work is licensed under the Creative Commons
# Attribution-NonCommercial-ShareAlike 4.0 International License.
# To view a copy of this license, visit
# http://creativecommons.org/licenses/by-nc-sa/4.0/
# or send a letter to
# Creative Commons, PO Box 1866, Mountain View, CA 94042, USA.
#
# CIF created using the CSD Python API on 29 September 2022
# The structure has been converted into the P1 space group
# The structure has a 3D framework
# The original CSD entry YURJUT is in the rhombohedral crystal system
# The framework has been calculated to contain at least 10.0% void space
# The void calculation uses a probe of radius 1.32A, grid spacing 0.4
#
###############################################################################

data_YURJUT
_chemical_formula_moiety         '(C360 H216 Co11 N72)n'
_symmetry_cell_setting           triclinic
_symmetry_space_group_name_H-M   'P 1'
_symmetry_Int_Tables_number      1
_space_group_name_Hall           'P 1'
loop_
_symmetry_equiv_pos_site_id
_symmetry_equiv_pos_as_xyz
1 x,y,z
_cell_length_a                   32.589(8)
_cell_length_b                   32.589(8)
_cell_length_c                   9.194(2)
_cell_angle_alpha                90
_cell_angle_beta                 90
_cell_angle_gamma                120
_cell_volume                     8456.24
loop_
_atom_site_label
_atom_site_type_symbol
_atom_site_fract_x
_atom_site_fract_y
_atom_site_fract_z
Co1 Co 0.3333 0.1667 0.1667
N1 N 0.27651(5) 0.16812(5) 0.23765(16)
N2 N 0.33130(5) 0.13144(5) 0.34692(16)
N3 N 0.16664(9) 0.07238(10) 0.8346(3)
N4 N 0.47060(6) 0.04399(6) 0.40390(17)
C1 C 0.25636(6) 0.19199(6) 0.1745(2)
C2 C 0.21802(7) 0.18798(8) 0.2619(2)
H1 H 0.1985 0.2011 0.2407
C3 C 0.21502(7) 0.16217(7) 0.3792(2)
H2 H 0.1930 0.1536 0.4568
C4 C 0.25164(6) 0.15000(6) 0.3650(2)
C5 C 0.26108(6) 0.12485(6) 0.4687(2)
C6 C 0.22870(7) 0.10583(7) 0.5964(2)
C7 C 0.24422(9) 0.12192(8) 0.7364(2)
H3 H 0.2765 0.1446 0.7541
C8 C 0.21211(10) 0.10448(10) 0.8501(3)
H4 H 0.2233 0.1162 0.9451
C9 C 0.15202(10) 0.05657(11) 0.6996(4)
H5 H 0.1197 0.0333 0.6858
C10 C 0.18107(8) 0.07199(9) 0.5791(3)
H6 H 0.1688 0.0597 0.4855
C11 C 0.29870(7) 0.11609(6) 0.45742(19)
C12 C 0.30649(8) 0.08664(8) 0.5569(2)
H7 H 0.2888 0.0720 0.6424
C13 C 0.34353(8) 0.08379(8) 0.5059(2)
H8 H 0.3571 0.0667 0.5484
C14 C 0.35883(7) 0.11145(7) 0.3747(2)
C15 C 0.39565(7) 0.11592(7) 0.2875(2)
C16 C 0.42105(7) 0.09051(7) 0.33154(19)
C17 C 0.41129(8) 0.04859(7) 0.2643(2)
H9 H 0.3873 0.0350 0.1921
C18 C 0.43666(7) 0.02673(7) 0.3028(2)
C19 C 0.47984(7) 0.08439(7) 0.4684(2)
H11 H 0.5041 0.0973 0.5401
C20 C 0.45609(8) 0.10856(7) 0.4367(2)
H12 H 0.4637 0.1371 0.4863
N5 N 0.39016(5) 0.16521(5) 0.09568(16)
C21 C 0.41031(6) 0.14134(6) 0.1588(2)
C22 C 0.44865(7) 0.14535(8) 0.0714(2)
H13 H 0.4682 0.1322 0.0926
C35 C 0.27102(7) 0.21741(7) 0.0458(2)
C36 C 0.24562(7) 0.24282(7) 0.00179(19)
C37 C 0.25538(8) 0.28474(7) 0.0690(2)
H21 H 0.2794 0.2983 0.1412
C38 C 0.23001(7) 0.30660(7) 0.0305(2)
H22 H 0.2371 0.3352 0.0781
Co2 Co 0.5001 0.0000 0.5000
N9 N 0.28934(6) 0.09328(8) 0.07057(17)
N10 N 0.37732(6) 0.24006(8) 0.26277(17)
N6 N 0.33537(5) 0.20189(5) 0.98641(16)
N7 N 0.50003(9) 0.26095(10) 0.4987(3)
N8 N 0.19607(6) 0.28934(6) 0.92943(17)
C23 C 0.45165(7) 0.17116(7) 0.9541(2)
H14 H 0.4737 0.1797 0.8765
C24 C 0.41503(6) 0.18333(6) 0.9683(2)
C25 C 0.40559(6) 0.20848(6) 0.8646(2)
C26 C 0.43797(7) 0.22750(7) 0.7369(2)
C27 C 0.42245(9) 0.21141(8) 0.5969(2)
H15 H 0.3902 0.1887 0.5792
C28 C 0.45456(10) 0.22885(10) 0.4832(3)
H16 H 0.4434 0.2171 0.3882
C29 C 0.51465(10) 0.27676(11) 0.6337(4)
H17 H 0.5470 0.3000 0.6475
C30 C 0.48560(8) 0.26134(9) 0.7542(3)
H18 H 0.4979 0.2736 0.8478
C31 C 0.36797(7) 0.21724(6) 0.87591(19)
C32 C 0.36018(8) 0.24669(8) 0.7764(2)
H19 H 0.3779 0.2613 0.6909
C33 C 0.32314(8) 0.24954(8) 0.8274(2)
H20 H 0.3096 0.2666 0.7849
C34 C 0.30784(7) 0.22188(7) 0.9586(2)
C39 C 0.18683(7) 0.24894(7) 0.8649(2)
H23 H 0.1626 0.2360 0.7932
C40 C 0.21058(8) 0.22477(7) 0.8966(2)
H24 H 0.2030 0.1962 0.8470
Co3 Co 0.1667 0.3334 0.8334
H10 H 0.4296 0.9981 0.2552
H10_2 H 0.0019 0.4315 0.2552
Co1_2 Co 0.8333 0.1666 0.1667
N1_2 N 0.83188(5) 0.10839(7) 0.23765(16)
N2_2 N 0.86856(5) 0.19986(7) 0.34692(16)
N3_2 N 0.92762(10) 0.09426(13) 0.8346(3)
N4_2 N 0.95601(6) 0.42661(8) 0.40390(17)
C1_2 C 0.80801(6) 0.06437(8) 0.1745(2)
C2_2 C 0.81202(8) 0.03004(11) 0.2619(2)
C3_2 C 0.83783(7) 0.05285(10) 0.3792(2)
H2_2 H 0.8464 0.0394 0.4568
C4_2 C 0.85000(6) 0.10164(8) 0.3650(2)
C5_2 C 0.87515(6) 0.13623(8) 0.4687(2)
C6_2 C 0.89417(7) 0.12287(10) 0.5964(2)
C7_2 C 0.87808(8) 0.12230(12) 0.7364(2)
H3_2 H 0.8554 0.1319 0.7541
C8_2 C 0.89552(10) 0.10763(14) 0.8501(3)
H4_2 H 0.8838 0.1071 0.9451
C9_2 C 0.94343(11) 0.09545(15) 0.6996(4)
H5_2 H 0.9667 0.0864 0.6858
C10_2 C 0.92801(9) 0.10908(12) 0.5791(3)
H6_2 H 0.9403 0.1091 0.4855
C11_2 C 0.88391(6) 0.18261(9) 0.45742(19)
C12_2 C 0.91336(8) 0.21985(11) 0.5569(2)
H7_2 H 0.9280 0.2168 0.6424
C13_2 C 0.91621(8) 0.25974(11) 0.5059(2)
H8_2 H 0.9333 0.2904 0.5484
C14_2 C 0.88855(7) 0.24738(10) 0.3747(2)
C15_2 C 0.88408(7) 0.27973(10) 0.2875(2)
C16_2 C 0.90949(7) 0.33054(10) 0.33154(19)
C17_2 C 0.95141(7) 0.36270(11) 0.2643(2)
H9_2 H 0.9650 0.3523 0.1921
C18_2 C 0.97327(7) 0.40993(10) 0.3028(2)
C19_2 C 0.91561(7) 0.39545(10) 0.4684(2)
H11_2 H 0.9027 0.4068 0.5401
C20_2 C 0.89144(7) 0.34753(11) 0.4367(2)
H12_2 H 0.8629 0.3266 0.4863
N5_2 N 0.83479(5) 0.22494(7) 0.09568(16)
C21_2 C 0.85866(6) 0.26896(8) 0.1588(2)
C22_2 C 0.85465(8) 0.30329(11) 0.0714(2)
H13_2 H 0.8678 0.3359 0.0926
C35_2 C 0.78259(7) 0.05360(10) 0.0458(2)
C36_2 C 0.75718(7) 0.00279(10) 0.00179(19)
Co2_2 Co 1.0000 0.5000 0.5000
N9_2 N 0.90672(8) 0.19607(10) 0.07057(17)
N10_2 N 0.75994(8) 0.13727(10) 0.26277(17)
N8_2 N 0.71066(6) 0.90672(8) 0.92943(17)
C39_2 C 0.75106(7) 0.93788(10) 0.8649(2)
H23_2 H 0.7640 0.9265 0.7932
C40_2 C 0.77523(7) 0.98580(11) 0.8966(2)
Co3_2 Co 0.6666 0.8334 0.8334
N8_3 N 0.09328(8) 0.80393(6) 0.92943(17)
C39_3 C 0.06212(10) 0.81317(7) 0.8649(2)
H23_3 H 0.0735 0.8374 0.7932
C40_3 C 0.01420(11) 0.78942(8) 0.8966(2)
Co3_3 Co 0.1666 0.8333 0.8334
Co1_3 Co 0.8334 0.6667 0.1667
N1_3 N 0.89161(7) 0.72349(5) 0.23765(16)
N2_3 N 0.80014(7) 0.66870(5) 0.34692(16)
N3_3 N 0.90574(13) 0.83336(9) 0.8346(3)
N4_3 N 0.57339(8) 0.52940(6) 0.40390(17)
C1_3 C 0.93563(8) 0.74364(6) 0.1745(2)
C2_3 C 0.96996(11) 0.78198(7) 0.2619(2)
C3_3 C 0.94715(10) 0.78498(7) 0.3792(2)
H2_3 H 0.9606 0.8070 0.4568
C4_3 C 0.89836(8) 0.74836(6) 0.3650(2)
C5_3 C 0.86377(8) 0.73892(6) 0.4687(2)
C6_3 C 0.87713(10) 0.77130(7) 0.5964(2)
C7_3 C 0.87770(12) 0.75578(9) 0.7364(2)
H3_3 H 0.8681 0.7235 0.7541
C8_3 C 0.89237(14) 0.78789(10) 0.8501(3)
H4_3 H 0.8929 0.7767 0.9451
C9_3 C 0.90455(15) 0.84798(10) 0.6996(4)
H5_3 H 0.9136 0.8803 0.6858
C10_3 C 0.89092(12) 0.81893(8) 0.5791(3)
H6_3 H 0.8909 0.8312 0.4855
C11_3 C 0.81739(9) 0.70130(7) 0.45742(19)
C12_3 C 0.78015(11) 0.69351(8) 0.5569(2)
H7_3 H 0.7832 0.7112 0.6424
C13_3 C 0.74026(11) 0.65647(8) 0.5059(2)
H8_3 H 0.7096 0.6429 0.5484
C14_3 C 0.75262(10) 0.64117(7) 0.3747(2)
C15_3 C 0.72027(10) 0.60435(7) 0.2875(2)
C16_3 C 0.66946(10) 0.57895(7) 0.33154(19)
C17_3 C 0.63730(11) 0.58871(8) 0.2643(2)
H9_3 H 0.6477 0.6127 0.1921
C18_3 C 0.59007(10) 0.56334(7) 0.3028(2)
H10_3 H 0.5685 0.5704 0.2552
C19_3 C 0.60455(10) 0.52016(7) 0.4684(2)
H11_3 H 0.5932 0.4959 0.5401
C20_3 C 0.65247(11) 0.54391(8) 0.4367(2)
H12_3 H 0.6734 0.5363 0.4863
N5_3 N 0.77506(7) 0.60984(5) 0.09568(16)
C21_3 C 0.73104(8) 0.58969(6) 0.1588(2)
C22_3 C 0.69671(11) 0.55135(7) 0.0714(2)
H13_3 H 0.6641 0.5318 0.0926
C35_3 C 0.94640(10) 0.72898(7) 0.0458(2)
C36_3 C 0.99721(10) 0.75438(7) 0.00179(19)
Co2_3 Co 0.5000 0.4999 0.5000
N9_3 N 0.80393(10) 0.71066(6) 0.07057(17)
N10_3 N 0.86273(10) 0.62268(6) 0.26277(17)
N4_4 N 0.13727(6) 0.37732(6) 0.73723(17)
C13_4 C 0.01020(8) 0.41712(8) 0.8392(2)
H8_4 H 0.0238 0.4000 0.8817
C14_4 C 0.02550(7) 0.44478(7) 0.7080(2)
C15_4 C 0.06232(7) 0.44925(7) 0.6208(2)
C16_4 C 0.08772(7) 0.42384(7) 0.66487(19)
C17_4 C 0.07796(8) 0.38192(7) 0.5976(2)
H9_4 H 0.0540 0.3683 0.5254
C18_4 C 0.10333(7) 0.36006(7) 0.6361(2)
H10_4 H 0.0963 0.3314 0.5885
C19_4 C 0.14651(7) 0.41772(7) 0.8017(2)
H11_4 H 0.1708 0.4306 0.8734
C20_4 C 0.12276(8) 0.44189(7) 0.7700(2)
H12_4 H 0.1304 0.4704 0.8196
N5_4 N 0.05682(5) 0.49855(5) 0.42902(16)
N6_2 N 0.00203(5) 0.53523(5) 0.31975(16)
C21_4 C 0.07697(6) 0.47468(6) 0.4922(2)
C22_4 C 0.11531(7) 0.47869(8) 0.4048(2)
H13_4 H 0.1348 0.4656 0.4260
C23_2 C 0.11831(7) 0.50450(7) 0.2875(2)
H14_2 H 0.1403 0.5131 0.2099
C24_2 C 0.08169(6) 0.51667(6) 0.3017(2)
C25_2 C 0.07225(6) 0.54182(6) 0.1980(2)
C26_2 C 0.10463(7) 0.56084(7) 0.0703(2)
C30_2 C 0.15226(8) 0.59468(9) 0.0876(3)
H18_2 H 0.1645 0.6070 0.1812
C31_2 C 0.03463(7) 0.55058(6) 0.20925(19)
C32_2 C 0.02684(8) 0.58003(8) 0.1098(2)
H19_2 H 0.0445 0.5947 0.0243
N10_4 N 0.04399(6) 0.57339(8) 0.59610(17)
N1_4 N 0.94318(5) 0.50145(5) 0.57098(16)
N2_4 N 0.99797(5) 0.46477(5) 0.68025(16)
C1_4 C 0.92303(6) 0.52532(6) 0.5078(2)
C2_4 C 0.88469(7) 0.52131(8) 0.5952(2)
H1_2 H 0.8652 0.5344 0.5740
C3_4 C 0.88169(7) 0.49550(7) 0.7125(2)
H2_4 H 0.8597 0.4869 0.7901
C4_4 C 0.91831(6) 0.48333(6) 0.6983(2)
C5_4 C 0.92775(6) 0.45818(6) 0.8020(2)
C6_4 C 0.89537(7) 0.43916(7) 0.9297(2)
C10_4 C 0.84774(8) 0.40532(9) 0.9124(3)
H6_4 H 0.8355 0.3930 0.8188
C11_4 C 0.96537(7) 0.44942(6) 0.79075(19)
C12_4 C 0.97316(8) 0.41997(8) 0.8902(2)
H7_4 H 0.9555 0.4053 0.9757
C33_2 C 0.98980(8) 0.58288(8) 0.1608(2)
H20_2 H 0.9762 0.6000 0.1183
C34_2 C 0.97450(7) 0.55522(7) 0.2920(2)
C35_4 C 0.93768(7) 0.55075(7) 0.3792(2)
C36_4 C 0.91228(7) 0.57616(7) 0.33513(19)
C37_2 C 0.92204(8) 0.61808(7) 0.4024(2)
H21_2 H 0.9460 0.6317 0.4746
C38_2 C 0.89667(7) 0.63994(7) 0.3639(2)
H22_2 H 0.9037 0.6686 0.4115
C39_4 C 0.85349(7) 0.58228(7) 0.1983(2)
H23_4 H 0.8292 0.5694 0.1266
C40_4 C 0.87724(8) 0.55811(7) 0.2300(2)
H24_2 H 0.8696 0.5296 0.1804
N1_5 N 0.49855(5) 0.44172(7) 0.57098(16)
N2_5 N 0.53523(5) 0.53319(7) 0.68025(16)
N4_5 N 0.62268(6) 0.75994(8) 0.73723(17)
C1_5 C 0.47468(6) 0.39770(8) 0.5078(2)
C2_5 C 0.47869(8) 0.36337(11) 0.5952(2)
H1_3 H 0.4656 0.3307 0.5740
C3_5 C 0.50450(7) 0.38618(10) 0.7125(2)
H2_5 H 0.5131 0.3727 0.7901
C4_5 C 0.51667(6) 0.43497(8) 0.6983(2)
C5_5 C 0.54182(6) 0.46956(8) 0.8020(2)
C6_5 C 0.56084(7) 0.45620(10) 0.9297(2)
C10_5 C 0.59468(9) 0.44241(12) 0.9124(3)
H6_5 H 0.6070 0.4424 0.8188
C11_5 C 0.55058(6) 0.51594(9) 0.79075(19)
C12_5 C 0.58003(8) 0.55318(11) 0.8902(2)
H7_5 H 0.5947 0.5501 0.9757
C13_5 C 0.58288(8) 0.59307(11) 0.8392(2)
H8_5 H 0.6000 0.6237 0.8817
C14_5 C 0.55522(7) 0.58071(10) 0.7080(2)
C15_5 C 0.55075(7) 0.61306(10) 0.6208(2)
C16_5 C 0.57616(7) 0.66387(10) 0.66487(19)
C17_5 C 0.61808(7) 0.69603(11) 0.5976(2)
H9_5 H 0.6317 0.6856 0.5254
C18_5 C 0.63994(7) 0.74326(10) 0.6361(2)
H10_5 H 0.6686 0.7648 0.5885
C19_5 C 0.58228(7) 0.72878(10) 0.8017(2)
H11_5 H 0.5694 0.7401 0.8734
C20_5 C 0.55811(7) 0.68086(11) 0.7700(2)
H12_5 H 0.5296 0.6599 0.8196
N5_5 N 0.50145(5) 0.55828(7) 0.42902(16)
N6_3 N 0.46477(5) 0.46681(7) 0.31975(16)
C21_5 C 0.52532(6) 0.60230(8) 0.4922(2)
C22_5 C 0.52131(8) 0.63663(11) 0.4048(2)
H13_5 H 0.5344 0.6693 0.4260
C23_3 C 0.49550(7) 0.61382(10) 0.2875(2)
H14_3 H 0.4869 0.6273 0.2099
C24_3 C 0.48333(6) 0.56503(8) 0.3017(2)
C25_3 C 0.45818(6) 0.53044(8) 0.1980(2)
C26_3 C 0.43916(7) 0.54380(10) 0.0703(2)
C30_3 C 0.40532(9) 0.55759(12) 0.0876(3)
H18_3 H 0.3930 0.5576 0.1812
C31_3 C 0.44942(6) 0.48406(9) 0.20925(19)
C32_3 C 0.41997(8) 0.44682(11) 0.1098(2)
H19_3 H 0.4053 0.4499 0.0243
C33_3 C 0.41712(8) 0.40693(11) 0.1608(2)
H20_3 H 0.4000 0.3763 0.1183
C34_3 C 0.44478(7) 0.41929(10) 0.2920(2)
C35_5 C 0.44925(7) 0.38694(10) 0.3792(2)
C36_5 C 0.42384(7) 0.33613(10) 0.33513(19)
C37_3 C 0.38192(7) 0.30397(11) 0.4024(2)
H21_3 H 0.3683 0.3144 0.4746
C38_3 C 0.36006(7) 0.25674(10) 0.3639(2)
H22_3 H 0.3314 0.2352 0.4115
C39_5 C 0.41772(7) 0.27122(10) 0.1983(2)
H23_5 H 0.4306 0.2599 0.1266
C40_5 C 0.44189(7) 0.31914(11) 0.2300(2)
H24_3 H 0.4704 0.3401 0.1804
N10_5 N 0.42661(8) 0.47060(10) 0.59610(17)
N1_6 N 0.55828(7) 0.05682(5) 0.57098(16)
N2_6 N 0.46681(7) 0.00203(5) 0.68025(16)
C1_6 C 0.60230(8) 0.07697(6) 0.5078(2)
C2_6 C 0.63663(11) 0.11531(7) 0.5952(2)
H1_4 H 0.6693 0.1348 0.5740
C3_6 C 0.61382(10) 0.11831(7) 0.7125(2)
H2_6 H 0.6273 0.1403 0.7901
C4_6 C 0.56503(8) 0.08169(6) 0.6983(2)
C5_6 C 0.53044(8) 0.07225(6) 0.8020(2)
C6_6 C 0.54380(10) 0.10463(7) 0.9297(2)
C10_6 C 0.55759(12) 0.15226(8) 0.9124(3)
H6_6 H 0.5576 0.1645 0.8188
C11_6 C 0.48406(9) 0.03463(7) 0.79075(19)
C12_6 C 0.44682(11) 0.02684(8) 0.8902(2)
H7_6 H 0.4499 0.0445 0.9757
C33_4 C 0.59307(11) 0.01020(8) 0.1608(2)
H20_4 H 0.6237 0.0238 0.1183
C34_4 C 0.58071(10) 0.02550(7) 0.2920(2)
C35_6 C 0.61306(10) 0.06232(7) 0.3792(2)
C36_6 C 0.66387(10) 0.08772(7) 0.33513(19)
C37_4 C 0.69603(11) 0.07796(8) 0.4024(2)
H21_4 H 0.6856 0.0540 0.4746
C38_4 C 0.74326(10) 0.10333(7) 0.3639(2)
H22_4 H 0.7648 0.0963 0.4115
C39_6 C 0.72878(10) 0.14651(7) 0.1983(2)
H23_6 H 0.7401 0.1708 0.1266
C40_6 C 0.68086(11) 0.12276(8) 0.2300(2)
H24_4 H 0.6599 0.1304 0.1804
N4_6 N 0.24006(8) 0.86273(6) 0.73723(17)
C13_6 C 0.40693(11) 0.98980(8) 0.8392(2)
H8_6 H 0.3763 0.9762 0.8817
C14_6 C 0.41929(10) 0.97450(7) 0.7080(2)
C15_6 C 0.38694(10) 0.93768(7) 0.6208(2)
C16_6 C 0.33613(10) 0.91228(7) 0.66487(19)
C17_6 C 0.30397(11) 0.92204(8) 0.5976(2)
H9_6 H 0.3144 0.9460 0.5254
C18_6 C 0.25674(10) 0.89667(7) 0.6361(2)
H10_6 H 0.2352 0.9037 0.5885
C19_6 C 0.27122(10) 0.85349(7) 0.8017(2)
H11_6 H 0.2599 0.8292 0.8734
C20_6 C 0.31914(11) 0.87724(8) 0.7700(2)
H12_6 H 0.3401 0.8696 0.8196
N5_6 N 0.44172(7) 0.94318(5) 0.42902(16)
N6_4 N 0.53319(7) 0.99797(5) 0.31975(16)
C21_6 C 0.39770(8) 0.92303(6) 0.4922(2)
C22_6 C 0.36337(11) 0.88469(7) 0.4048(2)
H13_6 H 0.3307 0.8652 0.4260
C23_4 C 0.38618(10) 0.88169(7) 0.2875(2)
H14_4 H 0.3727 0.8597 0.2099
C24_4 C 0.43497(8) 0.91831(6) 0.3017(2)
C25_4 C 0.46956(8) 0.92775(6) 0.1980(2)
C26_4 C 0.45620(10) 0.89537(7) 0.0703(2)
C30_4 C 0.44241(12) 0.84774(8) 0.0876(3)
H18_4 H 0.4424 0.8355 0.1812
C31_4 C 0.51594(9) 0.96537(7) 0.20925(19)
C32_4 C 0.55318(11) 0.97316(8) 0.1098(2)
H19_4 H 0.5501 0.9555 0.0243
N10_6 N 0.52940(10) 0.95601(6) 0.59610(17)
H22_5 H 0.5704 0.0019 0.7448
N2_7 N 0.66463(5) 0.79811(5) 0.01359(16)
N3_4 N 0.49997(9) 0.73905(10) 0.5013(3)
C3_7 C 0.54835(7) 0.82884(7) 0.0459(2)
H2_7 H 0.5263 0.8203 0.1235
C4_7 C 0.58497(6) 0.81667(6) 0.0317(2)
C5_7 C 0.59441(6) 0.79152(6) 0.1354(2)
C6_7 C 0.56203(7) 0.77250(7) 0.2631(2)
C7_4 C 0.57755(9) 0.78859(8) 0.4031(2)
H3_4 H 0.6098 0.8113 0.4208
C8_4 C 0.54544(10) 0.77115(10) 0.5168(3)
H4_4 H 0.5566 0.7829 0.6118
C9_4 C 0.48535(10) 0.72324(11) 0.3663(4)
H5_4 H 0.4530 0.7000 0.3525
C10_7 C 0.51440(8) 0.73866(9) 0.2458(3)
H6_7 H 0.5021 0.7264 0.1522
C11_7 C 0.63203(7) 0.78276(6) 0.12409(19)
C12_7 C 0.63982(8) 0.75331(8) 0.2236(2)
H7_7 H 0.6221 0.7387 0.3091
C13_7 C 0.67686(8) 0.75046(8) 0.1726(2)
H8_7 H 0.6904 0.7334 0.2151
C14_7 C 0.69216(7) 0.77812(7) 0.0414(2)
C19_7 C 0.81317(7) 0.75106(7) 0.1351(2)
H11_7 H 0.8374 0.7640 0.2068
C20_7 C 0.78942(8) 0.77523(7) 0.1034(2)
H12_7 H 0.7970 0.8038 0.1530
N1_7 N 0.60984(5) 0.83479(5) 0.90432(16)
C1_7 C 0.58969(6) 0.85866(6) 0.8412(2)
C2_7 C 0.55135(7) 0.85465(8) 0.9286(2)
H1_5 H 0.5318 0.8678 0.9074
C15_7 C 0.72898(7) 0.78259(7) 0.9542(2)
C16_7 C 0.75438(7) 0.75718(7) 0.99821(19)
C17_7 C 0.74462(8) 0.71526(7) 0.9310(2)
H9_7 H 0.7206 0.7017 0.8588
C18_7 C 0.76999(7) 0.69340(7) 0.9695(2)
H10_7 H 0.7629 0.6648 0.9219
N5_7 N 0.72349(5) 0.83188(5) 0.76235(16)
N6_5 N 0.66870(5) 0.86856(5) 0.65308(16)
N7_2 N 0.83336(9) 0.92762(10) 0.1654(3)
C21_7 C 0.74364(6) 0.80801(6) 0.8255(2)
C22_7 C 0.78198(7) 0.81202(8) 0.7381(2)
H13_7 H 0.8015 0.7989 0.7593
C23_5 C 0.78498(7) 0.83783(7) 0.6208(2)
H14_5 H 0.8070 0.8464 0.5432
C24_5 C 0.74836(6) 0.85000(6) 0.6350(2)
C25_5 C 0.73892(6) 0.87515(6) 0.5313(2)
C26_5 C 0.77130(7) 0.89417(7) 0.4036(2)
C27_2 C 0.75578(9) 0.87808(8) 0.2636(2)
H15_2 H 0.7235 0.8554 0.2459
C28_2 C 0.78789(10) 0.89552(10) 0.1499(3)
H16_2 H 0.7767 0.8838 0.0549
C29_2 C 0.84798(10) 0.94343(11) 0.3004(4)
H17_2 H 0.8803 0.9667 0.3142
C30_5 C 0.81893(8) 0.92801(9) 0.4209(3)
H18_5 H 0.8312 0.9403 0.5145
C31_5 C 0.70130(7) 0.88391(6) 0.54258(19)
C32_5 C 0.69351(8) 0.91336(8) 0.4431(2)
H19_5 H 0.7112 0.9280 0.3576
C33_5 C 0.65647(8) 0.91621(8) 0.4941(2)
H20_5 H 0.6429 0.9333 0.4516
C34_5 C 0.64117(7) 0.88855(7) 0.6253(2)
C35_7 C 0.60435(7) 0.88408(7) 0.7125(2)
C36_7 C 0.57895(7) 0.90949(7) 0.66846(19)
C37_5 C 0.58871(8) 0.95141(7) 0.7357(2)
H21_5 H 0.6127 0.9650 0.8079
C38_5 C 0.56334(7) 0.97327(7) 0.6972(2)
C39_7 C 0.52016(7) 0.91561(7) 0.5316(2)
H23_7 H 0.4959 0.9027 0.4599
C40_7 C 0.54391(8) 0.89144(7) 0.5633(2)
H24_5 H 0.5363 0.8629 0.5137
C19_8 C 0.24894(7) 0.06212(10) 0.1351(2)
H11_8 H 0.2360 0.0735 0.2068
C20_8 C 0.22477(7) 0.01420(11) 0.1034(2)
N1_8 N 0.16521(5) 0.77506(7) 0.90432(16)
C1_8 C 0.14134(6) 0.73104(8) 0.8412(2)
C2_8 C 0.14535(8) 0.69671(11) 0.9286(2)
H1_6 H 0.1322 0.6641 0.9074
C15_8 C 0.21741(7) 0.94640(10) 0.9542(2)
C16_8 C 0.24282(7) 0.99721(10) 0.99821(19)
N5_8 N 0.16812(5) 0.89161(7) 0.76235(16)
N6_6 N 0.13144(5) 0.80014(7) 0.65308(16)
N7_3 N 0.07238(10) 0.90574(13) 0.1654(3)
C21_8 C 0.19199(6) 0.93563(8) 0.8255(2)
C22_8 C 0.18798(8) 0.96996(11) 0.7381(2)
C23_6 C 0.16217(7) 0.94715(10) 0.6208(2)
H14_6 H 0.1536 0.9606 0.5432
C24_6 C 0.15000(6) 0.89836(8) 0.6350(2)
C25_6 C 0.12485(6) 0.86377(8) 0.5313(2)
C26_6 C 0.10583(7) 0.87713(10) 0.4036(2)
C27_3 C 0.12192(8) 0.87770(12) 0.2636(2)
H15_3 H 0.1446 0.8681 0.2459
C28_3 C 0.10448(10) 0.89237(14) 0.1499(3)
H16_3 H 0.1162 0.8929 0.0549
C29_3 C 0.05657(11) 0.90455(15) 0.3004(4)
H17_3 H 0.0333 0.9136 0.3142
C30_6 C 0.07199(9) 0.89092(12) 0.4209(3)
H18_6 H 0.0597 0.8909 0.5145
C31_6 C 0.11609(6) 0.81739(9) 0.54258(19)
C32_6 C 0.08664(8) 0.78015(11) 0.4431(2)
H19_6 H 0.0720 0.7832 0.3576
C33_6 C 0.08379(8) 0.74026(11) 0.4941(2)
H20_6 H 0.0667 0.7096 0.4516
C34_6 C 0.11145(7) 0.75262(10) 0.6253(2)
C35_8 C 0.11592(7) 0.72027(10) 0.7125(2)
C36_8 C 0.09051(7) 0.66946(10) 0.66846(19)
C37_6 C 0.04859(7) 0.63730(11) 0.7357(2)
H21_6 H 0.0350 0.6477 0.8079
C38_6 C 0.02673(7) 0.59007(10) 0.6972(2)
C39_8 C 0.08439(7) 0.60455(10) 0.5316(2)
H23_8 H 0.0973 0.5932 0.4599
C40_8 C 0.10856(7) 0.65247(11) 0.5633(2)
H24_6 H 0.1371 0.6734 0.5137
H22_6 H 0.9981 0.5685 0.7448
N1_9 N 0.22494(7) 0.39016(5) 0.90432(16)
C1_9 C 0.26896(8) 0.41031(6) 0.8412(2)
C2_9 C 0.30329(11) 0.44865(7) 0.9286(2)
H1_7 H 0.3359 0.4682 0.9074
C15_9 C 0.05360(10) 0.27102(7) 0.9542(2)
C16_9 C 0.00279(10) 0.24562(7) 0.99821(19)
N5_9 N 0.10839(7) 0.27651(5) 0.76235(16)
N6_7 N 0.19986(7) 0.33130(5) 0.65308(16)
N7_4 N 0.09426(13) 0.16664(9) 0.1654(3)
C21_9 C 0.06437(8) 0.25636(6) 0.8255(2)
C22_9 C 0.03004(11) 0.21802(7) 0.7381(2)
C23_7 C 0.05285(10) 0.21502(7) 0.6208(2)
H14_7 H 0.0394 0.1930 0.5432
C24_7 C 0.10164(8) 0.25164(6) 0.6350(2)
C25_7 C 0.13623(8) 0.26108(6) 0.5313(2)
C26_7 C 0.12287(10) 0.22870(7) 0.4036(2)
C27_4 C 0.12230(12) 0.24422(9) 0.2636(2)
H15_4 H 0.1319 0.2765 0.2459
C28_4 C 0.10763(14) 0.21211(10) 0.1499(3)
H16_4 H 0.1071 0.2233 0.0549
C29_4 C 0.09545(15) 0.15202(10) 0.3004(4)
H17_4 H 0.0864 0.1197 0.3142
C30_7 C 0.10908(12) 0.18107(8) 0.4209(3)
H18_7 H 0.1091 0.1688 0.5145
C31_7 C 0.18261(9) 0.29870(7) 0.54258(19)
C32_7 C 0.21985(11) 0.30649(8) 0.4431(2)
H19_7 H 0.2168 0.2888 0.3576
C33_7 C 0.25974(11) 0.34353(8) 0.4941(2)
H20_7 H 0.2904 0.3571 0.4516
C34_7 C 0.24738(10) 0.35883(7) 0.6253(2)
C35_9 C 0.27973(10) 0.39565(7) 0.7125(2)
C36_9 C 0.33054(10) 0.42105(7) 0.66846(19)
C37_7 C 0.36270(11) 0.41129(8) 0.7357(2)
H21_7 H 0.3523 0.3873 0.8079
C38_7 C 0.40993(10) 0.43666(7) 0.6972(2)
H22_7 H 0.4315 0.4296 0.7448
C39_9 C 0.39545(10) 0.47984(7) 0.5316(2)
H23_9 H 0.4068 0.5041 0.4599
C40_9 C 0.34753(11) 0.45609(8) 0.5633(2)
H24_7 H 0.3266 0.4637 0.5137
C19_9 C 0.93788(10) 0.18683(7) 0.1351(2)
H11_9 H 0.9265 0.1626 0.2068
C20_9 C 0.98580(11) 0.21058(8) 0.1034(2)
Co2_4 Co 0.4999 1.0000 0.5000
Co2_5 Co 0.0000 0.5000 0.5000
N6_8 N 0.79811(5) 0.13347(7) 0.98641(16)
N7_5 N 0.73905(10) 0.23907(13) 0.4987(3)
C23_8 C 0.82884(7) 0.28048(10) 0.9541(2)
H14_8 H 0.8203 0.2939 0.8765
C24_8 C 0.81667(6) 0.23169(8) 0.9683(2)
C25_8 C 0.79152(6) 0.19710(8) 0.8646(2)
C26_8 C 0.77250(7) 0.21046(10) 0.7369(2)
C27_5 C 0.78859(8) 0.21103(12) 0.5969(2)
H15_5 H 0.8113 0.2014 0.5792
C28_5 C 0.77115(10) 0.22570(14) 0.4832(3)
H16_5 H 0.7829 0.2262 0.3882
C29_5 C 0.72324(11) 0.23788(15) 0.6337(4)
H17_5 H 0.7000 0.2469 0.6475
C30_8 C 0.73866(9) 0.22425(12) 0.7542(3)
H18_8 H 0.7264 0.2242 0.8478
C31_8 C 0.78276(6) 0.15072(9) 0.87591(19)
C32_8 C 0.75331(8) 0.11348(11) 0.7764(2)
H19_8 H 0.7387 0.1165 0.6909
C33_8 C 0.75046(8) 0.07359(11) 0.8274(2)
H20_8 H 0.7334 0.0429 0.7849
C34_8 C 0.77812(7) 0.08595(10) 0.9586(2)
H24_8 H 0.8038 0.0067 0.8470
H1_8 H 0.7989 0.9974 0.2407
C37_8 C 0.71526(7) 0.97063(11) 0.0690(2)
H21_8 H 0.7017 0.9810 0.1412
C38_8 C 0.69340(7) 0.92340(10) 0.0305(2)
H22_8 H 0.6648 0.9018 0.0781
H1_9 H 0.0026 0.8015 0.2407
C37_9 C 0.02937(11) 0.74462(8) 0.0690(2)
H21_9 H 0.0190 0.7206 0.1412
C38_9 C 0.07660(10) 0.76999(7) 0.0305(2)
H22_9 H 0.0982 0.7629 0.0781
N6_9 N 0.86653(7) 0.66463(5) 0.98641(16)
N7_6 N 0.76093(13) 0.49997(9) 0.4987(3)
C23_9 C 0.71952(10) 0.54835(7) 0.9541(2)
H14_9 H 0.7061 0.5263 0.8765
C24_9 C 0.76831(8) 0.58497(6) 0.9683(2)
C25_9 C 0.80290(8) 0.59441(6) 0.8646(2)
C26_9 C 0.78954(10) 0.56203(7) 0.7369(2)
C27_6 C 0.78897(12) 0.57755(9) 0.5969(2)
H15_6 H 0.7986 0.6098 0.5792
C28_6 C 0.77430(14) 0.54544(10) 0.4832(3)
H16_6 H 0.7738 0.5566 0.3882
C29_6 C 0.76212(15) 0.48535(10) 0.6337(4)
H17_6 H 0.7531 0.4530 0.6475
C30_9 C 0.77575(12) 0.51440(8) 0.7542(3)
H18_9 H 0.7758 0.5021 0.8478
C31_9 C 0.84928(9) 0.63203(7) 0.87591(19)
C32_9 C 0.88652(11) 0.63982(8) 0.7764(2)
H19_9 H 0.8835 0.6221 0.6909
C33_9 C 0.92641(11) 0.67686(8) 0.8274(2)
H20_9 H 0.9571 0.6904 0.7849
C34_9 C 0.91405(10) 0.69216(7) 0.9586(2)
H24_9 H 0.9933 0.7970 0.8470
N7_7 N 0.16669(9) 0.59429(10) 0.8321(3)
C27_7 C 0.08911(9) 0.54475(8) 0.9303(2)
H15_7 H 0.0568 0.5221 0.9126
C28_7 C 0.12122(10) 0.56219(10) 0.8166(3)
H16_7 H 0.1100 0.5505 0.7216
C29_7 C 0.18131(10) 0.61010(11) 0.9671(4)
H17_7 H 0.2136 0.6334 0.9809
N3_5 N 0.83331(9) 0.40571(10) 0.1679(3)
C7_5 C 0.91089(9) 0.45525(8) 0.0697(2)
H3_5 H 0.9432 0.4779 0.0874
C8_5 C 0.87878(10) 0.43781(10) 0.1834(3)
H4_5 H 0.8900 0.4495 0.2784
C9_5 C 0.81869(10) 0.38990(11) 0.0329(4)
H5_5 H 0.7864 0.3666 0.0191
N3_6 N 0.59429(10) 0.42759(13) 0.1679(3)
C7_6 C 0.54475(8) 0.45563(12) 0.0697(2)
H3_6 H 0.5221 0.4652 0.0874
C8_6 C 0.56219(10) 0.44096(14) 0.1834(3)
H4_6 H 0.5505 0.4404 0.2784
C9_6 C 0.61010(11) 0.42878(15) 0.0329(4)
H5_6 H 0.6334 0.4197 0.0191
N7_8 N 0.40571(10) 0.57241(13) 0.8321(3)
C27_8 C 0.45525(8) 0.54437(12) 0.9303(2)
H15_8 H 0.4779 0.5348 0.9126
C28_8 C 0.43781(10) 0.55904(14) 0.8166(3)
H16_8 H 0.4495 0.5596 0.7216
C29_8 C 0.38990(11) 0.57122(15) 0.9671(4)
H17_8 H 0.3666 0.5803 0.9809
N3_7 N 0.57241(13) 0.16669(9) 0.1679(3)
C7_7 C 0.54437(12) 0.08911(9) 0.0697(2)
H3_7 H 0.5348 0.0568 0.0874
C8_7 C 0.55904(14) 0.12122(10) 0.1834(3)
H4_7 H 0.5596 0.1100 0.2784
C9_7 C 0.57122(15) 0.18131(10) 0.0329(4)
H5_7 H 0.5803 0.2136 0.0191
N7_9 N 0.42759(13) 0.83331(9) 0.8321(3)
C27_9 C 0.45563(12) 0.91089(9) 0.9303(2)
H15_9 H 0.4652 0.9432 0.9126
C28_9 C 0.44096(14) 0.87878(10) 0.8166(3)
H16_9 H 0.4404 0.8900 0.7216
C29_9 C 0.42878(15) 0.81869(10) 0.9671(4)
H17_9 H 0.4197 0.7864 0.9809
C17_8 C 0.28474(7) 0.02937(11) 0.9310(2)
H9_8 H 0.2983 0.0190 0.8588
C18_8 C 0.30660(7) 0.07660(10) 0.9695(2)
H10_8 H 0.3352 0.0982 0.9219
H13_8 H 0.2011 0.0026 0.7593
N2_8 N 0.20189(5) 0.86653(7) 0.01359(16)
N3_8 N 0.26095(10) 0.76093(13) 0.5013(3)
C3_8 C 0.17116(7) 0.71952(10) 0.0459(2)
H2_8 H 0.1797 0.7061 0.1235
C4_8 C 0.18333(6) 0.76831(8) 0.0317(2)
C5_8 C 0.20848(6) 0.80290(8) 0.1354(2)
C6_8 C 0.22750(7) 0.78954(10) 0.2631(2)
C7_8 C 0.21141(8) 0.78897(12) 0.4031(2)
H3_8 H 0.1887 0.7986 0.4208
C8_8 C 0.22885(10) 0.77430(14) 0.5168(3)
H4_8 H 0.2171 0.7738 0.6118
C9_8 C 0.27676(11) 0.76212(15) 0.3663(4)
H5_8 H 0.3000 0.7531 0.3525
C10_8 C 0.26134(9) 0.77575(12) 0.2458(3)
H6_8 H 0.2736 0.7758 0.1522
C11_8 C 0.21724(6) 0.84928(9) 0.12409(19)
C12_8 C 0.24669(8) 0.88652(11) 0.2236(2)
H7_8 H 0.2613 0.8835 0.3091
C13_8 C 0.24954(8) 0.92641(11) 0.1726(2)
H8_8 H 0.2666 0.9571 0.2151
C14_8 C 0.22188(7) 0.91405(10) 0.0414(2)
H12_8 H 0.1962 0.9933 0.1530
N2_9 N 0.13347(7) 0.33537(5) 0.01359(16)
N3_9 N 0.23907(13) 0.50003(9) 0.5013(3)
C3_9 C 0.28048(10) 0.45165(7) 0.0459(2)
H2_9 H 0.2939 0.4737 0.1235
C4_9 C 0.23169(8) 0.41503(6) 0.0317(2)
C5_9 C 0.19710(8) 0.40559(6) 0.1354(2)
C6_9 C 0.21046(10) 0.43797(7) 0.2631(2)
C7_9 C 0.21103(12) 0.42245(9) 0.4031(2)
H3_9 H 0.2014 0.3902 0.4208
C8_9 C 0.22570(14) 0.45456(10) 0.5168(3)
H4_9 H 0.2262 0.4434 0.6118
C9_9 C 0.23788(15) 0.51465(10) 0.3663(4)
H5_9 H 0.2469 0.5470 0.3525
C10_9 C 0.22425(12) 0.48560(8) 0.2458(3)
H6_9 H 0.2242 0.4979 0.1522
C11_9 C 0.15072(9) 0.36797(7) 0.12409(19)
C12_9 C 0.11348(11) 0.36018(8) 0.2236(2)
H7_9 H 0.1165 0.3779 0.3091
C13_9 C 0.07359(11) 0.32314(8) 0.1726(2)
H8_9 H 0.0429 0.3096 0.2151
C14_9 C 0.08595(10) 0.30784(7) 0.0414(2)
H12_9 H 0.0067 0.2030 0.1530
C17_9 C 0.97063(11) 0.25538(8) 0.9310(2)
H9_9 H 0.9810 0.2794 0.8588
C18_9 C 0.92340(10) 0.23001(7) 0.9695(2)
H10_9 H 0.9018 0.2371 0.9219
H13_9 H 0.9974 0.1985 0.7593
loop_
_geom_bond_atom_site_label_1
_geom_bond_atom_site_label_2
_geom_bond_site_symmetry_1
_geom_bond_site_symmetry_2
Co1 N1 1_555 1_555
N1 C1 1_555 1_555
N2 Co1 1_555 1_555
N3 C8 1_555 1_555
N4 C18 1_555 1_555
C1 C2 1_555 1_555
C2 H1 1_555 1_555
C3 C2 1_555 1_555
H2 C3 1_555 1_555
C4 N1 1_555 1_555
C5 C4 1_555 1_555
C6 C5 1_555 1_555
C7 C6 1_555 1_555
H3 C7 1_555 1_555
C8 C7 1_555 1_555
H4 C8 1_555 1_555
C9 N3 1_555 1_555
H5 C9 1_555 1_555
C10 C6 1_555 1_555
H6 C10 1_555 1_555
C11 N2 1_555 1_555
C12 C11 1_555 1_555
H7 C12 1_555 1_555
C13 C12 1_555 1_555
H8 C13 1_555 1_555
C14 N2 1_555 1_555
C15 C14 1_555 1_555
C16 C15 1_555 1_555
C17 C16 1_555 1_555
H9 C17 1_555 1_555
C18 C17 1_555 1_555
C19 N4 1_555 1_555
H11 C19 1_555 1_555
C20 C16 1_555 1_555
H12 C20 1_555 1_555
N5 Co1 1_555 1_555
C21 C15 1_555 1_555
C22 C21 1_555 1_555
H13 C22 1_555 1_555
C35 C1 1_555 1_555
C36 C35 1_555 1_555
C37 C36 1_555 1_555
H21 C37 1_555 1_555
C38 C37 1_555 1_555
H22 C38 1_555 1_555
Co2 N4 1_555 1_555
N9 Co1 1_555 1_555
N10 Co1 1_555 1_555
C3 C4 1_555 1_555
C5 C11 1_555 1_555
C9 C10 1_555 1_555
C13 C14 1_555 1_555
C19 C20 1_555 1_555
N5 C21 1_555 1_555
N7 C28 1_555 1_555
H14 C23 1_555 1_555
C25 C24 1_555 1_555
C26 C25 1_555 1_555
C27 C26 1_555 1_555
H15 C27 1_555 1_555
C28 C27 1_555 1_555
H16 C28 1_555 1_555
C29 N7 1_555 1_555
H17 C29 1_555 1_555
C30 C26 1_555 1_555
H18 C30 1_555 1_555
C31 N6 1_555 1_555
C32 C31 1_555 1_555
H19 C32 1_555 1_555
C33 C32 1_555 1_555
H20 C33 1_555 1_555
C34 N6 1_555 1_555
C39 N8 1_555 1_555
H23 C39 1_555 1_555
H24 C40 1_555 1_555
Co3 N8 1_555 1_555
C23 C24 1_555 1_555
C25 C31 1_555 1_555
C29 C30 1_555 1_555
C33 C34 1_555 1_555
C39 C40 1_555 1_555
Co1_2 N1_2 1_555 1_555
N1_2 C1_2 1_555 1_555
N2_2 Co1_2 1_555 1_555
N3_2 C8_2 1_555 1_555
N4_2 C18_2 1_555 1_555
C1_2 C2_2 1_555 1_555
C3_2 C2_2 1_555 1_555
H2_2 C3_2 1_555 1_555
C4_2 N1_2 1_555 1_555
C5_2 C4_2 1_555 1_555
C6_2 C5_2 1_555 1_555
C7_2 C6_2 1_555 1_555
H3_2 C7_2 1_555 1_555
C8_2 C7_2 1_555 1_555
H4_2 C8_2 1_555 1_555
C9_2 N3_2 1_555 1_555
H5_2 C9_2 1_555 1_555
C10_2 C6_2 1_555 1_555
H6_2 C10_2 1_555 1_555
C11_2 N2_2 1_555 1_555
C12_2 C11_2 1_555 1_555
H7_2 C12_2 1_555 1_555
C13_2 C12_2 1_555 1_555
H8_2 C13_2 1_555 1_555
C14_2 N2_2 1_555 1_555
C15_2 C14_2 1_555 1_555
C16_2 C15_2 1_555 1_555
C17_2 C16_2 1_555 1_555
H9_2 C17_2 1_555 1_555
C18_2 C17_2 1_555 1_555
C19_2 N4_2 1_555 1_555
H11_2 C19_2 1_555 1_555
C20_2 C16_2 1_555 1_555
H12_2 C20_2 1_555 1_555
N5_2 Co1_2 1_555 1_555
C21_2 C15_2 1_555 1_555
C22_2 C21_2 1_555 1_555
H13_2 C22_2 1_555 1_555
C35_2 C1_2 1_555 1_555
C36_2 C35_2 1_555 1_555
Co2_2 N4_2 1_555 1_555
N9_2 Co1_2 1_555 1_555
N10_2 Co1_2 1_555 1_555
C3_2 C4_2 1_555 1_555
C5_2 C11_2 1_555 1_555
C9_2 C10_2 1_555 1_555
C13_2 C14_2 1_555 1_555
C19_2 C20_2 1_555 1_555
N5_2 C21_2 1_555 1_555
C39_2 N8_2 1_555 1_555
H23_2 C39_2 1_555 1_555
Co3_2 N8_2 1_555 1_555
C39_2 C40_2 1_555 1_555
C39_3 N8_3 1_555 1_555
H23_3 C39_3 1_555 1_555
Co3_3 N8_3 1_555 1_555
C39_3 C40_3 1_555 1_555
Co1_3 N1_3 1_555 1_555
N1_3 C1_3 1_555 1_555
N2_3 Co1_3 1_555 1_555
N3_3 C8_3 1_555 1_555
N4_3 C18_3 1_555 1_555
C1_3 C2_3 1_555 1_555
C3_3 C2_3 1_555 1_555
H2_3 C3_3 1_555 1_555
C4_3 N1_3 1_555 1_555
C5_3 C4_3 1_555 1_555
C6_3 C5_3 1_555 1_555
C7_3 C6_3 1_555 1_555
H3_3 C7_3 1_555 1_555
C8_3 C7_3 1_555 1_555
H4_3 C8_3 1_555 1_555
C9_3 N3_3 1_555 1_555
H5_3 C9_3 1_555 1_555
C10_3 C6_3 1_555 1_555
H6_3 C10_3 1_555 1_555
C11_3 N2_3 1_555 1_555
C12_3 C11_3 1_555 1_555
H7_3 C12_3 1_555 1_555
C13_3 C12_3 1_555 1_555
H8_3 C13_3 1_555 1_555
C14_3 N2_3 1_555 1_555
C15_3 C14_3 1_555 1_555
C16_3 C15_3 1_555 1_555
C17_3 C16_3 1_555 1_555
H9_3 C17_3 1_555 1_555
C18_3 C17_3 1_555 1_555
H10_3 C18_3 1_555 1_555
C19_3 N4_3 1_555 1_555
H11_3 C19_3 1_555 1_555
C20_3 C16_3 1_555 1_555
H12_3 C20_3 1_555 1_555
N5_3 Co1_3 1_555 1_555
C21_3 C15_3 1_555 1_555
C22_3 C21_3 1_555 1_555
H13_3 C22_3 1_555 1_555
C35_3 C1_3 1_555 1_555
C36_3 C35_3 1_555 1_555
Co2_3 N4_3 1_555 1_555
N9_3 Co1_3 1_555 1_555
N10_3 Co1_3 1_555 1_555
C3_3 C4_3 1_555 1_555
C5_3 C11_3 1_555 1_555
C9_3 C10_3 1_555 1_555
C13_3 C14_3 1_555 1_555
C19_3 C20_3 1_555 1_555
N5_3 C21_3 1_555 1_555
N4_4 C18_4 1_555 1_555
H8_4 C13_4 1_555 1_555
C15_4 C14_4 1_555 1_555
C16_4 C15_4 1_555 1_555
C17_4 C16_4 1_555 1_555
H9_4 C17_4 1_555 1_555
C18_4 C17_4 1_555 1_555
H10_4 C18_4 1_555 1_555
C19_4 N4_4 1_555 1_555
H11_4 C19_4 1_555 1_555
C20_4 C16_4 1_555 1_555
H12_4 C20_4 1_555 1_555
C21_4 C15_4 1_555 1_555
C22_4 C21_4 1_555 1_555
H13_4 C22_4 1_555 1_555
C23_2 C22_4 1_555 1_555
H14_2 C23_2 1_555 1_555
C24_2 N5_4 1_555 1_555
C25_2 C24_2 1_555 1_555
C26_2 C25_2 1_555 1_555
C30_2 C26_2 1_555 1_555
H18_2 C30_2 1_555 1_555
C31_2 N6_2 1_555 1_555
C32_2 C31_2 1_555 1_555
H19_2 C32_2 1_555 1_555
Co3 N4_4 1_555 1_555
C13_4 C14_4 1_555 1_555
C19_4 C20_4 1_555 1_555
N5_4 C21_4 1_555 1_555
C23_2 C24_2 1_555 1_555
C25_2 C31_2 1_555 1_555
Co2_2 N1_4 1_555 1_555
N1_4 C1_4 1_555 1_555
N2_4 Co2_2 1_555 1_555
C1_4 C2_4 1_555 1_555
C2_4 H1_2 1_555 1_555
C3_4 C2_4 1_555 1_555
H2_4 C3_4 1_555 1_555
C4_4 N1_4 1_555 1_555
C5_4 C4_4 1_555 1_555
C6_4 C5_4 1_555 1_555
C10_4 C6_4 1_555 1_555
H6_4 C10_4 1_555 1_555
C11_4 N2_4 1_555 1_555
C12_4 C11_4 1_555 1_555
H7_4 C12_4 1_555 1_555
N10_3 C38_2 1_555 1_555
H20_2 C33_2 1_555 1_555
C35_4 C1_4 1_555 1_555
C36_4 C35_4 1_555 1_555
C37_2 C36_4 1_555 1_555
H21_2 C37_2 1_555 1_555
C38_2 C37_2 1_555 1_555
H22_2 C38_2 1_555 1_555
C39_4 N10_3 1_555 1_555
H23_4 C39_4 1_555 1_555
C40_4 C36_4 1_555 1_555
H24_2 C40_4 1_555 1_555
C3_4 C4_4 1_555 1_555
C5_4 C11_4 1_555 1_555
C33_2 C34_2 1_555 1_555
C34_2 C35_4 1_555 1_555
C39_4 C40_4 1_555 1_555
Co2_3 N1_5 1_555 1_555
N1_5 C1_5 1_555 1_555
N2_5 Co2_3 1_555 1_555
N4_5 C18_5 1_555 1_555
C1_5 C2_5 1_555 1_555
C2_5 H1_3 1_555 1_555
C3_5 C2_5 1_555 1_555
H2_5 C3_5 1_555 1_555
C4_5 N1_5 1_555 1_555
C5_5 C4_5 1_555 1_555
C6_5 C5_5 1_555 1_555
C10_5 C6_5 1_555 1_555
H6_5 C10_5 1_555 1_555
C11_5 N2_5 1_555 1_555
C12_5 C11_5 1_555 1_555
H7_5 C12_5 1_555 1_555
C13_5 C12_5 1_555 1_555
H8_5 C13_5 1_555 1_555
C14_5 N2_5 1_555 1_555
C15_5 C14_5 1_555 1_555
C16_5 C15_5 1_555 1_555
C17_5 C16_5 1_555 1_555
H9_5 C17_5 1_555 1_555
C18_5 C17_5 1_555 1_555
H10_5 C18_5 1_555 1_555
C19_5 N4_5 1_555 1_555
H11_5 C19_5 1_555 1_555
C20_5 C16_5 1_555 1_555
H12_5 C20_5 1_555 1_555
N5_5 Co2_3 1_555 1_555
N6_3 Co2_3 1_555 1_555
N10 C38_3 1_555 1_555
C21_5 C15_5 1_555 1_555
C22_5 C21_5 1_555 1_555
H13_5 C22_5 1_555 1_555
C23_3 C22_5 1_555 1_555
H14_3 C23_3 1_555 1_555
C24_3 N5_5 1_555 1_555
C25_3 C24_3 1_555 1_555
C26_3 C25_3 1_555 1_555
C30_3 C26_3 1_555 1_555
H18_3 C30_3 1_555 1_555
C31_3 N6_3 1_555 1_555
C32_3 C31_3 1_555 1_555
H19_3 C32_3 1_555 1_555
C33_3 C32_3 1_555 1_555
H20_3 C33_3 1_555 1_555
C34_3 N6_3 1_555 1_555
C35_5 C1_5 1_555 1_555
C36_5 C35_5 1_555 1_555
C37_3 C36_5 1_555 1_555
H21_3 C37_3 1_555 1_555
C38_3 C37_3 1_555 1_555
H22_3 C38_3 1_555 1_555
C39_5 N10 1_555 1_555
H23_5 C39_5 1_555 1_555
C40_5 C36_5 1_555 1_555
H24_3 C40_5 1_555 1_555
Co3_2 N4_5 1_555 1_555
N10_5 Co2_3 1_555 1_555
C3_5 C4_5 1_555 1_555
C5_5 C11_5 1_555 1_555
C13_5 C14_5 1_555 1_555
C19_5 C20_5 1_555 1_555
N5_5 C21_5 1_555 1_555
C23_3 C24_3 1_555 1_555
C25_3 C31_3 1_555 1_555
C33_3 C34_3 1_555 1_555
C34_3 C35_5 1_555 1_555
C39_5 C40_5 1_555 1_555
Co2 N1_6 1_555 1_555
N1_6 C1_6 1_555 1_555
N2_6 Co2 1_555 1_555
C1_6 C2_6 1_555 1_555
C2_6 H1_4 1_555 1_555
C3_6 C2_6 1_555 1_555
H2_6 C3_6 1_555 1_555
C4_6 N1_6 1_555 1_555
C5_6 C4_6 1_555 1_555
C6_6 C5_6 1_555 1_555
C10_6 C6_6 1_555 1_555
H6_6 C10_6 1_555 1_555
C11_6 N2_6 1_555 1_555
C12_6 C11_6 1_555 1_555
H7_6 C12_6 1_555 1_555
N10_2 C38_4 1_555 1_555
H20_4 C33_4 1_555 1_555
C35_6 C1_6 1_555 1_555
C36_6 C35_6 1_555 1_555
C37_4 C36_6 1_555 1_555
H21_4 C37_4 1_555 1_555
C38_4 C37_4 1_555 1_555
H22_4 C38_4 1_555 1_555
C39_6 N10_2 1_555 1_555
H23_6 C39_6 1_555 1_555
C40_6 C36_6 1_555 1_555
H24_4 C40_6 1_555 1_555
C3_6 C4_6 1_555 1_555
C5_6 C11_6 1_555 1_555
C33_4 C34_4 1_555 1_555
C34_4 C35_6 1_555 1_555
C39_6 C40_6 1_555 1_555
N4_6 C18_6 1_555 1_555
H8_6 C13_6 1_555 1_555
C15_6 C14_6 1_555 1_555
C16_6 C15_6 1_555 1_555
C17_6 C16_6 1_555 1_555
H9_6 C17_6 1_555 1_555
C18_6 C17_6 1_555 1_555
H10_6 C18_6 1_555 1_555
C19_6 N4_6 1_555 1_555
H11_6 C19_6 1_555 1_555
C20_6 C16_6 1_555 1_555
H12_6 C20_6 1_555 1_555
C21_6 C15_6 1_555 1_555
C22_6 C21_6 1_555 1_555
H13_6 C22_6 1_555 1_555
C23_4 C22_6 1_555 1_555
H14_4 C23_4 1_555 1_555
C24_4 N5_6 1_555 1_555
C25_4 C24_4 1_555 1_555
C26_4 C25_4 1_555 1_555
C30_4 C26_4 1_555 1_555
H18_4 C30_4 1_555 1_555
C31_4 N6_4 1_555 1_555
C32_4 C31_4 1_555 1_555
H19_4 C32_4 1_555 1_555
Co3_3 N4_6 1_555 1_555
C13_6 C14_6 1_555 1_555
C19_6 C20_6 1_555 1_555
N5_6 C21_6 1_555 1_555
C23_4 C24_4 1_555 1_555
C25_4 C31_4 1_555 1_555
N3_4 C8_4 1_555 1_555
H2_7 C3_7 1_555 1_555
C5_7 C4_7 1_555 1_555
C6_7 C5_7 1_555 1_555
C7_4 C6_7 1_555 1_555
H3_4 C7_4 1_555 1_555
C8_4 C7_4 1_555 1_555
H4_4 C8_4 1_555 1_555
C9_4 N3_4 1_555 1_555
H5_4 C9_4 1_555 1_555
C10_7 C6_7 1_555 1_555
H6_7 C10_7 1_555 1_555
C11_7 N2_7 1_555 1_555
C12_7 C11_7 1_555 1_555
H7_7 C12_7 1_555 1_555
C13_7 C12_7 1_555 1_555
H8_7 C13_7 1_555 1_555
C14_7 N2_7 1_555 1_555
C19_7 N9_3 1_555 1_555
H11_7 C19_7 1_555 1_555
H12_7 C20_7 1_555 1_555
C3_7 C4_7 1_555 1_555
C5_7 C11_7 1_555 1_555
C9_4 C10_7 1_555 1_555
C13_7 C14_7 1_555 1_555
C19_7 C20_7 1_555 1_555
Co3_2 N1_7 1_555 1_555
N1_7 C1_7 1_555 1_555
C1_7 C2_7 1_555 1_555
C2_7 H1_5 1_555 1_555
C16_7 C15_7 1_555 1_555
C17_7 C16_7 1_555 1_555
H9_7 C17_7 1_555 1_555
C18_7 C17_7 1_555 1_555
H10_7 C18_7 1_555 1_555
N5_7 Co3_2 1_555 1_555
N6_5 Co3_2 1_555 1_555
N7_2 C28_2 1_555 1_555
N10_6 C38_5 1_555 1_555
C21_7 C15_7 1_555 1_555
C22_7 C21_7 1_555 1_555
H13_7 C22_7 1_555 1_555
C23_5 C22_7 1_555 1_555
H14_5 C23_5 1_555 1_555
C24_5 N5_7 1_555 1_555
C25_5 C24_5 1_555 1_555
C26_5 C25_5 1_555 1_555
C27_2 C26_5 1_555 1_555
H15_2 C27_2 1_555 1_555
C28_2 C27_2 1_555 1_555
H16_2 C28_2 1_555 1_555
C29_2 N7_2 1_555 1_555
H17_2 C29_2 1_555 1_555
C30_5 C26_5 1_555 1_555
H18_5 C30_5 1_555 1_555
C31_5 N6_5 1_555 1_555
C32_5 C31_5 1_555 1_555
H19_5 C32_5 1_555 1_555
C33_5 C32_5 1_555 1_555
H20_5 C33_5 1_555 1_555
C34_5 N6_5 1_555 1_555
C35_7 C1_7 1_555 1_555
C36_7 C35_7 1_555 1_555
C37_5 C36_7 1_555 1_555
H21_5 C37_5 1_555 1_555
C38_5 C37_5 1_555 1_555
C39_7 N10_6 1_555 1_555
H23_7 C39_7 1_555 1_555
C40_7 C36_7 1_555 1_555
H24_5 C40_7 1_555 1_555
N5_7 C21_7 1_555 1_555
C23_5 C24_5 1_555 1_555
C25_5 C31_5 1_555 1_555
C29_2 C30_5 1_555 1_555
C33_5 C34_5 1_555 1_555
C34_5 C35_7 1_555 1_555
C39_7 C40_7 1_555 1_555
C19_8 N9 1_555 1_555
H11_8 C19_8 1_555 1_555
C19_8 C20_8 1_555 1_555
Co3_3 N1_8 1_555 1_555
N1_8 C1_8 1_555 1_555
C1_8 C2_8 1_555 1_555
C2_8 H1_6 1_555 1_555
C16_8 C15_8 1_555 1_555
N5_8 Co3_3 1_555 1_555
N6_6 Co3_3 1_555 1_555
N7_3 C28_3 1_555 1_555
N10_4 C38_6 1_555 1_555
C21_8 C15_8 1_555 1_555
C22_8 C21_8 1_555 1_555
C23_6 C22_8 1_555 1_555
H14_6 C23_6 1_555 1_555
C24_6 N5_8 1_555 1_555
C25_6 C24_6 1_555 1_555
C26_6 C25_6 1_555 1_555
C27_3 C26_6 1_555 1_555
H15_3 C27_3 1_555 1_555
C28_3 C27_3 1_555 1_555
H16_3 C28_3 1_555 1_555
C29_3 N7_3 1_555 1_555
H17_3 C29_3 1_555 1_555
C30_6 C26_6 1_555 1_555
H18_6 C30_6 1_555 1_555
C31_6 N6_6 1_555 1_555
C32_6 C31_6 1_555 1_555
H19_6 C32_6 1_555 1_555
C33_6 C32_6 1_555 1_555
H20_6 C33_6 1_555 1_555
C34_6 N6_6 1_555 1_555
C35_8 C1_8 1_555 1_555
C36_8 C35_8 1_555 1_555
C37_6 C36_8 1_555 1_555
H21_6 C37_6 1_555 1_555
C38_6 C37_6 1_555 1_555
C39_8 N10_4 1_555 1_555
H23_8 C39_8 1_555 1_555
C40_8 C36_8 1_555 1_555
H24_6 C40_8 1_555 1_555
N5_8 C21_8 1_555 1_555
C23_6 C24_6 1_555 1_555
C25_6 C31_6 1_555 1_555
C29_3 C30_6 1_555 1_555
C33_6 C34_6 1_555 1_555
C34_6 C35_8 1_555 1_555
C39_8 C40_8 1_555 1_555
Co3 N1_9 1_555 1_555
N1_9 C1_9 1_555 1_555
C1_9 C2_9 1_555 1_555
C2_9 H1_7 1_555 1_555
C16_9 C15_9 1_555 1_555
N5_9 Co3 1_555 1_555
N6_7 Co3 1_555 1_555
N7_4 C28_4 1_555 1_555
N10_5 C38_7 1_555 1_555
C21_9 C15_9 1_555 1_555
C22_9 C21_9 1_555 1_555
C23_7 C22_9 1_555 1_555
H14_7 C23_7 1_555 1_555
C24_7 N5_9 1_555 1_555
C25_7 C24_7 1_555 1_555
C26_7 C25_7 1_555 1_555
C27_4 C26_7 1_555 1_555
H15_4 C27_4 1_555 1_555
C28_4 C27_4 1_555 1_555
H16_4 C28_4 1_555 1_555
C29_4 N7_4 1_555 1_555
H17_4 C29_4 1_555 1_555
C30_7 C26_7 1_555 1_555
H18_7 C30_7 1_555 1_555
C31_7 N6_7 1_555 1_555
C32_7 C31_7 1_555 1_555
H19_7 C32_7 1_555 1_555
C33_7 C32_7 1_555 1_555
H20_7 C33_7 1_555 1_555
C34_7 N6_7 1_555 1_555
C35_9 C1_9 1_555 1_555
C36_9 C35_9 1_555 1_555
C37_7 C36_9 1_555 1_555
H21_7 C37_7 1_555 1_555
C38_7 C37_7 1_555 1_555
H22_7 C38_7 1_555 1_555
C39_9 N10_5 1_555 1_555
H23_9 C39_9 1_555 1_555
C40_9 C36_9 1_555 1_555
H24_7 C40_9 1_555 1_555
N5_9 C21_9 1_555 1_555
C23_7 C24_7 1_555 1_555
C25_7 C31_7 1_555 1_555
C29_4 C30_7 1_555 1_555
C33_7 C34_7 1_555 1_555
C34_7 C35_9 1_555 1_555
C39_9 C40_9 1_555 1_555
C19_9 N9_2 1_555 1_555
H11_9 C19_9 1_555 1_555
C19_9 C20_9 1_555 1_555
Co2_4 N10_6 1_555 1_555
Co2_5 N10_4 1_555 1_555
Co2_5 N5_4 1_555 1_555
N6_2 Co2_5 1_555 1_555
Co2_4 N5_6 1_555 1_555
N6_4 Co2_4 1_555 1_555
N7_5 C28_5 1_555 1_555
H14_8 C23_8 1_555 1_555
C25_8 C24_8 1_555 1_555
C26_8 C25_8 1_555 1_555
C27_5 C26_8 1_555 1_555
H15_5 C27_5 1_555 1_555
C28_5 C27_5 1_555 1_555
H16_5 C28_5 1_555 1_555
C29_5 N7_5 1_555 1_555
H17_5 C29_5 1_555 1_555
C30_8 C26_8 1_555 1_555
H18_8 C30_8 1_555 1_555
C31_8 N6_8 1_555 1_555
C32_8 C31_8 1_555 1_555
H19_8 C32_8 1_555 1_555
C33_8 C32_8 1_555 1_555
H20_8 C33_8 1_555 1_555
C34_8 N6_8 1_555 1_555
C23_8 C24_8 1_555 1_555
C25_8 C31_8 1_555 1_555
C29_5 C30_8 1_555 1_555
C33_8 C34_8 1_555 1_555
H21_8 C37_8 1_555 1_555
C38_8 C37_8 1_555 1_555
H22_8 C38_8 1_555 1_555
H21_9 C37_9 1_555 1_555
C38_9 C37_9 1_555 1_555
H22_9 C38_9 1_555 1_555
N7_6 C28_6 1_555 1_555
H14_9 C23_9 1_555 1_555
C25_9 C24_9 1_555 1_555
C26_9 C25_9 1_555 1_555
C27_6 C26_9 1_555 1_555
H15_6 C27_6 1_555 1_555
C28_6 C27_6 1_555 1_555
H16_6 C28_6 1_555 1_555
C29_6 N7_6 1_555 1_555
H17_6 C29_6 1_555 1_555
C30_9 C26_9 1_555 1_555
H18_9 C30_9 1_555 1_555
C31_9 N6_9 1_555 1_555
C32_9 C31_9 1_555 1_555
H19_9 C32_9 1_555 1_555
C33_9 C32_9 1_555 1_555
H20_9 C33_9 1_555 1_555
C34_9 N6_9 1_555 1_555
C23_9 C24_9 1_555 1_555
C25_9 C31_9 1_555 1_555
C29_6 C30_9 1_555 1_555
C33_9 C34_9 1_555 1_555
N7_7 C28_7 1_555 1_555
H15_7 C27_7 1_555 1_555
C28_7 C27_7 1_555 1_555
H16_7 C28_7 1_555 1_555
C29_7 N7_7 1_555 1_555
H17_7 C29_7 1_555 1_555
N3_5 C8_5 1_555 1_555
H3_5 C7_5 1_555 1_555
C8_5 C7_5 1_555 1_555
H4_5 C8_5 1_555 1_555
C9_5 N3_5 1_555 1_555
H5_5 C9_5 1_555 1_555
N3_6 C8_6 1_555 1_555
H3_6 C7_6 1_555 1_555
C8_6 C7_6 1_555 1_555
H4_6 C8_6 1_555 1_555
C9_6 N3_6 1_555 1_555
H5_6 C9_6 1_555 1_555
N7_8 C28_8 1_555 1_555
H15_8 C27_8 1_555 1_555
C28_8 C27_8 1_555 1_555
H16_8 C28_8 1_555 1_555
C29_8 N7_8 1_555 1_555
H17_8 C29_8 1_555 1_555
N3_7 C8_7 1_555 1_555
H3_7 C7_7 1_555 1_555
C8_7 C7_7 1_555 1_555
H4_7 C8_7 1_555 1_555
C9_7 N3_7 1_555 1_555
H5_7 C9_7 1_555 1_555
N7_9 C28_9 1_555 1_555
H15_9 C27_9 1_555 1_555
C28_9 C27_9 1_555 1_555
H16_9 C28_9 1_555 1_555
C29_9 N7_9 1_555 1_555
H17_9 C29_9 1_555 1_555
H9_8 C17_8 1_555 1_555
C18_8 C17_8 1_555 1_555
H10_8 C18_8 1_555 1_555
N3_8 C8_8 1_555 1_555
H2_8 C3_8 1_555 1_555
C5_8 C4_8 1_555 1_555
C6_8 C5_8 1_555 1_555
C7_8 C6_8 1_555 1_555
H3_8 C7_8 1_555 1_555
C8_8 C7_8 1_555 1_555
H4_8 C8_8 1_555 1_555
C9_8 N3_8 1_555 1_555
H5_8 C9_8 1_555 1_555
C10_8 C6_8 1_555 1_555
H6_8 C10_8 1_555 1_555
C11_8 N2_8 1_555 1_555
C12_8 C11_8 1_555 1_555
H7_8 C12_8 1_555 1_555
C13_8 C12_8 1_555 1_555
H8_8 C13_8 1_555 1_555
C14_8 N2_8 1_555 1_555
C3_8 C4_8 1_555 1_555
C5_8 C11_8 1_555 1_555
C9_8 C10_8 1_555 1_555
C13_8 C14_8 1_555 1_555
N3_9 C8_9 1_555 1_555
H2_9 C3_9 1_555 1_555
C5_9 C4_9 1_555 1_555
C6_9 C5_9 1_555 1_555
C7_9 C6_9 1_555 1_555
H3_9 C7_9 1_555 1_555
C8_9 C7_9 1_555 1_555
H4_9 C8_9 1_555 1_555
C9_9 N3_9 1_555 1_555
H5_9 C9_9 1_555 1_555
C10_9 C6_9 1_555 1_555
H6_9 C10_9 1_555 1_555
C11_9 N2_9 1_555 1_555
C12_9 C11_9 1_555 1_555
H7_9 C12_9 1_555 1_555
C13_9 C12_9 1_555 1_555
H8_9 C13_9 1_555 1_555
C14_9 N2_9 1_555 1_555
C3_9 C4_9 1_555 1_555
C5_9 C11_9 1_555 1_555
C9_9 C10_9 1_555 1_555
C13_9 C14_9 1_555 1_555
H9_9 C17_9 1_555 1_555
C18_9 C17_9 1_555 1_555
H10_9 C18_9 1_555 1_555

#END
