
###############################################################################
#
# This file contains modified crystal structure data generated from the
# MOF subset of the Cambridge Structural Database (CSD) v543 
# hosted by the Cambridge Crystallographic Data Centre (CCDC).
#
# This work is licensed under the Creative Commons
# Attribution-NonCommercial-ShareAlike 4.0 International License.
# To view a copy of this license, visit
# http://creativecommons.org/licenses/by-nc-sa/4.0/
# or send a letter to
# Creative Commons, PO Box 1866, Mountain View, CA 94042, USA.
#
# CIF created using the CSD Python API on 29 September 2022
# The structure has been converted into the P1 space group
# The structure has a 3D framework
# The original CSD entry YURJON is in the rhombohedral crystal system
# The framework has been calculated to contain at least 10.0% void space
# The void calculation uses a probe of radius 1.32A, grid spacing 0.4
#
###############################################################################

data_YURJON
_chemical_formula_moiety         '(C360 H216 Co11 N72)n'
_symmetry_cell_setting           triclinic
_symmetry_space_group_name_H-M   'P 1'
_symmetry_Int_Tables_number      1
_space_group_name_Hall           'P 1'
loop_
_symmetry_equiv_pos_site_id
_symmetry_equiv_pos_as_xyz
1 x,y,z
_cell_length_a                   32.6499(11)
_cell_length_b                   32.6499(11)
_cell_length_c                   9.2552(5)
_cell_angle_alpha                90
_cell_angle_beta                 90
_cell_angle_gamma                120
_cell_volume                     8544.37
loop_
_atom_site_label
_atom_site_type_symbol
_atom_site_fract_x
_atom_site_fract_y
_atom_site_fract_z
N4 N 0.59432(15) 0.16498(14) 0.1665(5)
C8 C 0.61023(17) 0.17959(16) 0.0333(6)
H4 H 0.633717 0.211824 0.020479
C9 C 0.56160(15) 0.11960(15) 0.1821(5)
H5 H 0.549568 0.108433 0.276191
C10 C 0.54432(13) 0.08805(14) 0.0688(4)
H6 H 0.521460 0.055841 0.085741
Co1 Co 0.500000 0.000000 0.500000
N1 N 0.49839(8) 0.05661(9) 0.5719(3)
N2 N 0.53493(9) 0.00165(9) 0.6788(3)
N3 N 0.37776(10) 0.13755(9) 0.2614(3)
C3 C 0.57953(13) 0.02605(13) 0.8887(4)
H2 H 0.594087 0.043583 0.973818
C4 C 0.55035(11) 0.03409(11) 0.7898(3)
C5 C 0.54147(11) 0.07145(11) 0.8017(3)
C6 C 0.56059(11) 0.10369(12) 0.9294(4)
C7 C 0.59484(14) 0.15098(14) 0.9125(5)
H3 H 0.607392 0.163343 0.819710
C11 C 0.51649(10) 0.08110(11) 0.6997(3)
C12 C 0.50438(12) 0.11781(12) 0.7144(4)
H7 H 0.512930 0.139639 0.792016
C13 C 0.47864(12) 0.11525(12) 0.5972(4)
H8 H 0.465507 0.134823 0.576781
C14 C 0.47486(11) 0.07704(11) 0.5087(3)
C15 C 0.44964(11) 0.06281(12) 0.3803(4)
C16 C 0.42465(12) 0.08854(12) 0.3360(3)
C17 C 0.38247(12) 0.07859(13) 0.4027(4)
H9 H 0.368795 0.054685 0.474589
C18 C 0.36066(12) 0.10400(12) 0.3630(4)
H10 H 0.332148 0.097225 0.410465
C19 C 0.41811(12) 0.14685(12) 0.1984(4)
H11 H 0.430921 0.170902 0.126800
C20 C 0.44263(13) 0.12341(13) 0.2314(4)
H12 H 0.471261 0.131232 0.182787
C21 C 0.44534(11) 0.02644(12) 0.2927(3)
C22 C 0.41772(13) 0.01123(13) 0.1627(4)
H13 H 0.400707 0.024817 0.120743
Co3 Co 0.333333 0.166667 0.166667
N10 N 0.57354(13) 0.04443(10) 0.4053(3)
Co1_2 Co 0.500000 1.000000 0.500000
C1 C 0.55466(11) 0.97356(12) 0.7073(3)
C2 C 0.58228(13) 0.98877(13) 0.8373(4)
H1 H 0.599293 0.975183 0.879257
N5 N 0.50161(8) 0.94339(9) 0.4281(3)
N6 N 0.46507(9) 0.99835(9) 0.3212(3)
N7 N 0.62224(10) 0.86245(9) 0.7386(3)
C23 C 0.42047(13) 0.97395(13) 0.1113(4)
H14 H 0.405913 0.956417 0.026182
C24 C 0.44965(11) 0.96591(11) 0.2102(3)
C25 C 0.45853(11) 0.92855(11) 0.1983(3)
C26 C 0.43941(11) 0.89631(12) 0.0706(4)
C27 C 0.40516(14) 0.84902(14) 0.0875(5)
H15 H 0.392608 0.836657 0.180290
C31 C 0.48351(10) 0.91890(11) 0.3003(3)
C32 C 0.49562(12) 0.88219(12) 0.2856(4)
H19 H 0.487070 0.860361 0.207984
C33 C 0.52136(12) 0.88475(12) 0.4028(4)
H20 H 0.534493 0.865177 0.423219
C34 C 0.52514(11) 0.92296(11) 0.4913(3)
C35 C 0.55036(11) 0.93719(12) 0.6197(4)
C36 C 0.57535(12) 0.91146(12) 0.6640(3)
C37 C 0.61753(12) 0.92141(13) 0.5973(4)
H21 H 0.631205 0.945315 0.525411
C38 C 0.63934(12) 0.89600(12) 0.6370(4)
H22 H 0.667852 0.902775 0.589535
C39 C 0.58189(12) 0.85315(12) 0.8016(4)
H23 H 0.569079 0.829098 0.873200
C40 C 0.55737(13) 0.87659(13) 0.7686(4)
H24 H 0.528739 0.868768 0.817213
Co2 Co 0.666667 0.833333 0.833333
N9 N 0.42646(13) 0.95557(10) 0.5947(3)
Co1_3 Co 0.000000 0.500000 0.500000
C1_2 C 0.02644(12) 0.58110(16) 0.7073(3)
C2_2 C 0.01123(13) 0.59351(18) 0.8373(4)
H1_2 H 0.024817 0.624110 0.879257
N5_2 N 0.05661(9) 0.55822(12) 0.4281(3)
N6_2 N 0.00165(9) 0.46672(13) 0.3212(3)
N7_2 N 0.13755(9) 0.75979(13) 0.7386(3)
C23_2 C 0.02605(13) 0.44652(18) 0.1113(4)
H14_2 H 0.043583 0.449496 0.026182
C24_2 C 0.03409(11) 0.48374(16) 0.2102(3)
C25_2 C 0.07145(11) 0.52998(16) 0.1983(3)
C26_2 C 0.10369(12) 0.54310(16) 0.0706(4)
C27_2 C 0.15098(14) 0.55614(20) 0.0875(5)
H15_2 H 0.163343 0.555951 0.180290
C31_2 C 0.08110(11) 0.56461(15) 0.3003(3)
C32_2 C 0.11781(12) 0.61343(17) 0.2856(4)
H19_2 H 0.139639 0.626709 0.207984
C33_2 C 0.11525(12) 0.63661(17) 0.4028(4)
H20_2 H 0.134823 0.669316 0.423219
C34_2 C 0.07704(11) 0.60218(16) 0.4913(3)
C35_2 C 0.06281(12) 0.61317(16) 0.6197(4)
C36_2 C 0.08854(12) 0.66389(17) 0.6640(3)
C37_2 C 0.07859(13) 0.69612(18) 0.5973(4)
H21_2 H 0.054685 0.685890 0.525411
C38_2 C 0.10400(12) 0.74334(17) 0.6370(4)
H22_2 H 0.097225 0.765077 0.589535
C39_2 C 0.14685(12) 0.72874(17) 0.8016(4)
H23_2 H 0.170902 0.739981 0.873200
C40_2 C 0.12341(13) 0.68078(18) 0.7686(4)
H24_2 H 0.131232 0.659971 0.817213
Co2_2 Co 0.166667 0.833333 0.833333
N9_2 N 0.04443(10) 0.47088(16) 0.5947(3)
Co1_4 Co 1.000000 0.500000 0.500000
N1_2 N 0.94339(9) 0.44178(12) 0.5719(3)
N2_2 N 0.99835(9) 0.53328(13) 0.6788(3)
N3_2 N 0.86245(9) 0.24021(13) 0.2614(3)
C3_2 C 0.97395(13) 0.55348(18) 0.8887(4)
H2_2 H 0.956417 0.550504 0.973818
C4_2 C 0.96591(11) 0.51626(16) 0.7898(3)
C5_2 C 0.92855(11) 0.47002(16) 0.8017(3)
C6_2 C 0.89631(12) 0.45690(16) 0.9294(4)
C7_2 C 0.84902(14) 0.44386(20) 0.9125(5)
H3_2 H 0.836657 0.444049 0.819710
C11_2 C 0.91890(11) 0.43539(15) 0.6997(3)
C12_2 C 0.88219(12) 0.38657(17) 0.7144(4)
H7_2 H 0.860361 0.373291 0.792016
C13_2 C 0.88475(12) 0.36339(17) 0.5972(4)
H8_2 H 0.865177 0.330684 0.576781
C14_2 C 0.92296(11) 0.39782(16) 0.5087(3)
C15_2 C 0.93719(12) 0.38683(16) 0.3803(4)
C16_2 C 0.91146(12) 0.33611(17) 0.3360(3)
C17_2 C 0.92141(13) 0.30388(18) 0.4027(4)
H9_2 H 0.945315 0.314110 0.474589
C18_2 C 0.89600(12) 0.25666(17) 0.3630(4)
H10_2 H 0.902775 0.234923 0.410465
C19_2 C 0.85315(12) 0.27126(17) 0.1984(4)
H11_2 H 0.829098 0.260019 0.126800
C20_2 C 0.87659(13) 0.31922(18) 0.2314(4)
H12_2 H 0.868768 0.340029 0.182787
C21_2 C 0.97356(12) 0.41890(16) 0.2927(3)
C22_2 C 0.98877(13) 0.40649(18) 0.1627(4)
H13_2 H 0.975183 0.375890 0.120743
Co3_2 Co 0.833333 0.166667 0.166667
N10_2 N 0.95557(10) 0.52912(16) 0.4053(3)
Co1_5 Co 0.500000 0.500000 0.500000
N1_3 N 0.55822(12) 0.50161(8) 0.5719(3)
N2_3 N 0.46672(13) 0.46507(9) 0.6788(3)
N3_3 N 0.75979(13) 0.62224(10) 0.2614(3)
C1_3 C 0.41890(16) 0.44534(11) 0.7073(3)
C2_3 C 0.40649(18) 0.41772(13) 0.8373(4)
H1_3 H 0.375890 0.400707 0.879257
C3_3 C 0.44652(18) 0.42047(13) 0.8887(4)
H2_3 H 0.449496 0.405913 0.973818
C4_3 C 0.48374(16) 0.44965(11) 0.7898(3)
C5_3 C 0.52998(16) 0.45853(11) 0.8017(3)
C6_3 C 0.54310(16) 0.43941(11) 0.9294(4)
C7_3 C 0.55614(20) 0.40516(14) 0.9125(5)
H3_3 H 0.555951 0.392608 0.819710
C11_3 C 0.56461(15) 0.48351(10) 0.6997(3)
C12_3 C 0.61343(17) 0.49562(12) 0.7144(4)
H7_3 H 0.626709 0.487070 0.792016
C13_3 C 0.63661(17) 0.52136(12) 0.5972(4)
H8_3 H 0.669316 0.534493 0.576781
C14_3 C 0.60218(16) 0.52514(11) 0.5087(3)
C15_3 C 0.61317(16) 0.55036(11) 0.3803(4)
C16_3 C 0.66389(17) 0.57535(12) 0.3360(3)
C17_3 C 0.69612(18) 0.61753(12) 0.4027(4)
H9_3 H 0.685890 0.631205 0.474589
C18_3 C 0.74334(17) 0.63934(12) 0.3630(4)
H10_3 H 0.765077 0.667852 0.410465
C19_3 C 0.72874(17) 0.58189(12) 0.1984(4)
H11_3 H 0.739981 0.569079 0.126800
C20_3 C 0.68078(18) 0.55737(13) 0.2314(4)
H12_3 H 0.659971 0.528739 0.182787
N5_3 N 0.44178(12) 0.49839(8) 0.4281(3)
N6_3 N 0.53328(13) 0.53493(9) 0.3212(3)
N7_3 N 0.24021(13) 0.37776(10) 0.7386(3)
C21_3 C 0.58110(16) 0.55466(11) 0.2927(3)
C22_3 C 0.59351(18) 0.58228(13) 0.1627(4)
H13_3 H 0.624110 0.599293 0.120743
C23_3 C 0.55348(18) 0.57953(13) 0.1113(4)
H14_3 H 0.550504 0.594087 0.026182
C24_3 C 0.51626(16) 0.55035(11) 0.2102(3)
C25_3 C 0.47002(16) 0.54147(11) 0.1983(3)
C26_3 C 0.45690(16) 0.56059(11) 0.0706(4)
C27_3 C 0.44386(20) 0.59484(14) 0.0875(5)
H15_3 H 0.444049 0.607392 0.180290
C31_3 C 0.43539(15) 0.51649(10) 0.3003(3)
C32_3 C 0.38657(17) 0.50438(12) 0.2856(4)
H19_3 H 0.373291 0.512930 0.207984
C33_3 C 0.36339(17) 0.47864(12) 0.4028(4)
H20_3 H 0.330684 0.465507 0.423219
C34_3 C 0.39782(16) 0.47486(11) 0.4913(3)
C35_3 C 0.38683(16) 0.44964(11) 0.6197(4)
C36_3 C 0.33611(17) 0.42465(12) 0.6640(3)
C37_3 C 0.30388(18) 0.38247(12) 0.5973(4)
H21_3 H 0.314110 0.368795 0.525411
C38_3 C 0.25666(17) 0.36066(12) 0.6370(4)
H22_3 H 0.234923 0.332148 0.589535
C39_3 C 0.27126(17) 0.41811(12) 0.8016(4)
H23_3 H 0.260019 0.430921 0.873200
C40_3 C 0.31922(18) 0.44263(13) 0.7686(4)
H24_3 H 0.340029 0.471261 0.817213
Co2_3 Co 0.166667 0.333333 0.833333
Co3_3 Co 0.833333 0.666667 0.166667
N9_3 N 0.52912(16) 0.57354(13) 0.5947(3)
N10_3 N 0.47088(16) 0.42646(13) 0.4053(3)
N2_4 N 0.20160(9) 0.33498(9) 0.0121(3)
N4_2 N 0.26099(15) 0.49831(14) 0.4998(5)
C1_4 C 0.22133(11) 0.30689(12) 0.0406(3)
C2_4 C 0.24895(13) 0.32210(13) 0.1706(4)
H1_4 H 0.265960 0.308516 0.212590
C3_4 C 0.24620(13) 0.35938(13) 0.2220(4)
H2_4 H 0.260754 0.376916 0.307151
C4_4 C 0.21702(11) 0.36742(11) 0.1231(3)
C5_4 C 0.20814(11) 0.40478(11) 0.1350(3)
C6_4 C 0.22726(11) 0.43702(12) 0.2627(4)
C7_4 C 0.26151(14) 0.48431(14) 0.2458(5)
H3_4 H 0.274059 0.496676 0.153043
C8_2 C 0.27690(17) 0.51292(16) 0.3666(6)
H4_2 H 0.300384 0.545157 0.353812
C9_2 C 0.22827(15) 0.45293(15) 0.5154(5)
H5_2 H 0.216235 0.441766 0.609524
C10_2 C 0.21099(13) 0.42138(14) 0.4021(4)
H6_2 H 0.188127 0.389174 0.419074
C11_4 C 0.18316(10) 0.41443(11) 0.0330(3)
C12_4 C 0.17105(12) 0.45114(12) 0.0477(4)
H7_4 H 0.179597 0.472972 0.125349
N7_4 N 0.28891(10) 0.19578(9) 0.0719(3)
C39_4 C 0.24856(12) 0.18648(12) 0.1349(4)
H23_4 H 0.235746 0.162431 0.206533
C40_4 C 0.22404(13) 0.20992(13) 0.1019(4)
H24_4 H 0.195406 0.202101 0.150546
N1_4 N 0.16506(8) 0.38994(9) 0.9052(3)
C13_4 C 0.14531(12) 0.44858(12) 0.9305(4)
H8_4 H 0.132174 0.468156 0.910114
C14_4 C 0.14153(11) 0.41037(11) 0.8420(3)
C15_4 C 0.11631(11) 0.39614(12) 0.7136(4)
C16_4 C 0.09132(12) 0.42187(12) 0.6693(3)
C17_4 C 0.04914(12) 0.41192(13) 0.7360(4)
H9_4 H 0.035462 0.388018 0.807922
C18_4 C 0.02733(12) 0.43733(12) 0.6963(4)
C19_4 C 0.08478(12) 0.48018(12) 0.5317(4)
H11_4 H 0.097588 0.504235 0.460133
C20_4 C 0.10930(13) 0.45674(13) 0.5647(4)
H12_4 H 0.137928 0.464565 0.516120
N5_4 N 0.16828(8) 0.27672(9) 0.7614(3)
N6_4 N 0.13174(9) 0.33168(9) 0.6545(3)
N8 N 0.07235(15) 0.16835(14) 0.1668(5)
C21_4 C 0.11201(11) 0.35977(12) 0.6260(3)
C22_4 C 0.08439(13) 0.34456(13) 0.4960(4)
H13_4 H 0.067374 0.358150 0.454076
C23_4 C 0.08714(13) 0.30728(13) 0.4446(4)
H14_4 H 0.072580 0.289750 0.359515
C24_4 C 0.11632(11) 0.29924(11) 0.5435(3)
C25_4 C 0.12520(11) 0.26188(11) 0.5316(3)
C26_4 C 0.10608(11) 0.22964(12) 0.4039(4)
C27_4 C 0.07183(14) 0.18235(14) 0.4208(5)
H15_4 H 0.059275 0.169990 0.513623
C28 C 0.05644(17) 0.15374(16) 0.3000(6)
H16 H 0.032950 0.121509 0.312854
C29 C 0.10507(15) 0.21373(15) 0.1512(5)
H17 H 0.117099 0.224900 0.057142
C30 C 0.12235(13) 0.24528(14) 0.2645(4)
H18 H 0.145207 0.277492 0.247592
C31_4 C 0.15018(10) 0.25223(11) 0.6336(3)
C32_4 C 0.16229(12) 0.21552(12) 0.6189(4)
H19_4 H 0.153737 0.193694 0.541317
C33_4 C 0.18803(12) 0.21808(12) 0.7361(4)
H20_4 H 0.201160 0.198510 0.756552
C34_4 C 0.19181(11) 0.25629(11) 0.8246(3)
C35_4 C 0.21703(11) 0.27052(12) 0.9530(4)
C36_4 C 0.24202(12) 0.24479(12) 0.9973(3)
C37_4 C 0.28420(12) 0.25474(13) 0.9306(4)
H21_4 H 0.297872 0.278648 0.858744
C38_4 C 0.30601(12) 0.22933(12) 0.9703(4)
H22_4 H 0.334519 0.236108 0.922868
N9_4 N 0.09312(13) 0.28891(10) 0.9281(3)
H10_4 H 0.998815 0.430558 0.743798
N7_5 N 0.80422(9) 0.09312(13) 0.0719(3)
C39_5 C 0.81352(12) 0.06207(17) 0.1349(4)
H23_5 H 0.837569 0.073314 0.206533
C40_5 C 0.79008(13) 0.01411(18) 0.1019(4)
N1_5 N 0.61006(9) 0.77511(12) 0.9052(3)
C13_5 C 0.55142(12) 0.69672(17) 0.9305(4)
H8_5 H 0.531844 0.664017 0.910114
C14_5 C 0.58963(11) 0.73115(16) 0.8420(3)
C15_5 C 0.60386(12) 0.72016(16) 0.7136(4)
C16_5 C 0.57813(12) 0.66944(17) 0.6693(3)
C17_5 C 0.58808(13) 0.63721(18) 0.7360(4)
H9_5 H 0.611982 0.647443 0.807922
C18_5 C 0.56267(12) 0.58999(17) 0.6963(4)
H10_5 H 0.569442 0.568256 0.743798
C19_5 C 0.51982(12) 0.60459(17) 0.5317(4)
H11_5 H 0.495765 0.593352 0.460133
C20_5 C 0.54326(13) 0.65255(18) 0.5647(4)
H12_5 H 0.535435 0.673362 0.516120
N5_5 N 0.72328(9) 0.89155(12) 0.7614(3)
N6_5 N 0.66832(9) 0.80005(13) 0.6545(3)
N8_2 N 0.83165(14) 0.90399(21) 0.1668(5)
C21_5 C 0.64023(12) 0.75223(16) 0.6260(3)
C22_5 C 0.65544(13) 0.73982(18) 0.4960(4)
H13_5 H 0.641850 0.709223 0.454076
C23_5 C 0.69272(13) 0.77985(18) 0.4446(4)
H14_5 H 0.710250 0.782829 0.359515
C24_5 C 0.70076(11) 0.81707(16) 0.5435(3)
C25_5 C 0.73812(11) 0.86331(16) 0.5316(3)
C26_5 C 0.77036(12) 0.87643(16) 0.4039(4)
C27_5 C 0.81765(14) 0.88947(20) 0.4208(5)
H15_5 H 0.830010 0.889284 0.513623
C28_2 C 0.84626(16) 0.90269(23) 0.3000(6)
H16_2 H 0.878491 0.911440 0.312854
C29_2 C 0.78627(15) 0.89133(21) 0.1512(5)
H17_2 H 0.775100 0.892198 0.057142
C30_2 C 0.75472(14) 0.87706(19) 0.2645(4)
H18_2 H 0.722508 0.867714 0.247592
C31_5 C 0.74777(11) 0.89794(15) 0.6336(3)
C32_5 C 0.78448(12) 0.94676(17) 0.6189(4)
H19_5 H 0.806306 0.960042 0.541317
C33_5 C 0.78192(12) 0.96994(17) 0.7361(4)
C34_5 C 0.74371(11) 0.93551(16) 0.8246(3)
C35_5 C 0.72948(12) 0.94650(16) 0.9530(4)
C36_5 C 0.75521(12) 0.99722(17) 0.9973(3)
N9_5 N 0.71109(10) 0.80422(16) 0.9281(3)
H10_6 H 0.431744 0.001185 0.743798
N1_6 N 0.22489(12) 0.83494(8) 0.9052(3)
C13_6 C 0.30328(17) 0.85469(12) 0.9305(4)
H8_6 H 0.335983 0.867826 0.910114
C14_6 C 0.26885(16) 0.85847(11) 0.8420(3)
C15_6 C 0.27984(16) 0.88369(11) 0.7136(4)
C16_6 C 0.33056(17) 0.90868(12) 0.6693(3)
C17_6 C 0.36279(18) 0.95086(12) 0.7360(4)
H9_6 H 0.352557 0.964538 0.807922
C18_6 C 0.41001(17) 0.97267(12) 0.6963(4)
C19_6 C 0.39541(17) 0.91522(12) 0.5317(4)
H11_6 H 0.406648 0.902412 0.460133
C20_6 C 0.34745(18) 0.89070(13) 0.5647(4)
H12_6 H 0.326638 0.862072 0.516120
N5_6 N 0.10845(12) 0.83172(8) 0.7614(3)
N6_6 N 0.19995(13) 0.86826(9) 0.6545(3)
N8_3 N 0.09601(21) 0.92765(15) 0.1668(5)
C21_6 C 0.24777(16) 0.88799(11) 0.6260(3)
C22_6 C 0.26018(18) 0.91561(13) 0.4960(4)
H13_6 H 0.290777 0.932626 0.454076
C23_6 C 0.22015(18) 0.91286(13) 0.4446(4)
H14_6 H 0.217171 0.927420 0.359515
C24_6 C 0.18293(16) 0.88368(11) 0.5435(3)
C25_6 C 0.13669(16) 0.87480(11) 0.5316(3)
C26_6 C 0.12357(16) 0.89392(11) 0.4039(4)
C27_6 C 0.11053(20) 0.92817(14) 0.4208(5)
H15_6 H 0.110716 0.940725 0.513623
C28_3 C 0.09731(23) 0.94356(17) 0.3000(6)
H16_3 H 0.088560 0.967050 0.312854
C29_3 C 0.10867(21) 0.89493(15) 0.1512(5)
H17_3 H 0.107802 0.882901 0.057142
C30_3 C 0.12294(19) 0.87765(13) 0.2645(4)
H18_3 H 0.132286 0.854793 0.247592
C31_6 C 0.10206(15) 0.84982(10) 0.6336(3)
C32_6 C 0.05324(17) 0.83771(12) 0.6189(4)
H19_6 H 0.039958 0.846263 0.541317
C33_6 C 0.03006(17) 0.81197(12) 0.7361(4)
C34_6 C 0.06449(16) 0.80819(11) 0.8246(3)
C35_6 C 0.05350(16) 0.78297(11) 0.9530(4)
C36_6 C 0.00278(17) 0.75798(12) 0.9973(3)
N9_6 N 0.19578(16) 0.90688(13) 0.9281(3)
N7_6 N 0.90688(13) 0.71109(10) 0.0719(3)
C39_6 C 0.93793(17) 0.75144(12) 0.1349(4)
H23_6 H 0.926686 0.764254 0.206533
C40_6 C 0.98589(18) 0.77596(13) 0.1019(4)
H22_5 H 0.001185 0.569442 0.256202
N1_7 N 0.83172(8) 0.72328(9) 0.2386(3)
N2_5 N 0.86826(9) 0.66832(9) 0.3455(3)
N4_3 N 0.92765(15) 0.83165(14) 0.8332(5)
C1_5 C 0.88799(11) 0.64023(12) 0.3740(3)
C2_5 C 0.91561(13) 0.65544(13) 0.5040(4)
H1_5 H 0.932626 0.641850 0.545924
C3_5 C 0.91286(13) 0.69272(13) 0.5554(4)
H2_5 H 0.927420 0.710250 0.640485
C4_5 C 0.88368(11) 0.70076(11) 0.4565(3)
C5_5 C 0.87480(11) 0.73812(11) 0.4684(3)
C6_5 C 0.89392(11) 0.77036(12) 0.5961(4)
C7_5 C 0.92817(14) 0.81765(14) 0.5792(5)
H3_5 H 0.940725 0.830010 0.486377
C8_3 C 0.94356(17) 0.84626(16) 0.7000(6)
H4_3 H 0.967050 0.878491 0.687146
C9_3 C 0.89493(15) 0.78627(15) 0.8488(5)
H5_3 H 0.882901 0.775100 0.942858
C10_3 C 0.87765(13) 0.75472(14) 0.7355(4)
H6_3 H 0.854793 0.722508 0.752408
C11_5 C 0.84982(10) 0.74777(11) 0.3664(3)
C12_5 C 0.83771(12) 0.78448(12) 0.3811(4)
H7_5 H 0.846263 0.806306 0.458683
C13_7 C 0.81197(12) 0.78192(12) 0.2639(4)
H8_7 H 0.798840 0.801490 0.243448
C14_7 C 0.80819(11) 0.74371(11) 0.1754(3)
C15_7 C 0.78297(11) 0.72948(12) 0.0470(4)
C16_7 C 0.75798(12) 0.75521(12) 0.0027(3)
C17_7 C 0.71580(12) 0.74526(13) 0.0694(4)
H9_7 H 0.702128 0.721352 0.141256
C18_7 C 0.69399(12) 0.77067(12) 0.0297(4)
H10_7 H 0.665481 0.763892 0.077132
N5_7 N 0.83494(8) 0.61006(9) 0.0948(3)
C33_7 C 0.85469(12) 0.55142(12) 0.0695(4)
H20_5 H 0.867826 0.531844 0.089886
C34_7 C 0.85847(11) 0.58963(11) 0.1580(3)
C35_7 C 0.88369(11) 0.60386(12) 0.2864(4)
C36_7 C 0.90868(12) 0.57813(12) 0.3307(3)
C37_5 C 0.95086(12) 0.58808(13) 0.2640(4)
H21_5 H 0.964538 0.611982 0.192078
C38_5 C 0.97267(12) 0.56267(12) 0.3037(4)
C39_7 C 0.91522(12) 0.51982(12) 0.4683(4)
H23_7 H 0.902412 0.495765 0.539867
C40_7 C 0.89070(13) 0.54326(13) 0.4353(4)
H24_5 H 0.862072 0.535435 0.483880
C19_7 C 0.75144(12) 0.81352(12) 0.8651(4)
H11_7 H 0.764254 0.837569 0.793467
C20_7 C 0.77596(13) 0.79008(13) 0.8981(4)
H12_7 H 0.804594 0.797899 0.849454
N6_7 N 0.79840(9) 0.66502(9) 0.9879(3)
N8_4 N 0.73901(15) 0.50169(14) 0.5002(5)
C21_7 C 0.77867(11) 0.69311(12) 0.9594(3)
C22_7 C 0.75105(13) 0.67790(13) 0.8294(4)
H13_7 H 0.734040 0.691484 0.787410
C23_7 C 0.75380(13) 0.64062(13) 0.7780(4)
H14_7 H 0.739246 0.623084 0.692849
C24_7 C 0.78298(11) 0.63258(11) 0.8769(3)
C25_7 C 0.79186(11) 0.59522(11) 0.8650(3)
C26_7 C 0.77274(11) 0.56298(12) 0.7373(4)
C27_7 C 0.73849(14) 0.51569(14) 0.7542(5)
H15_7 H 0.725941 0.503324 0.846957
C28_4 C 0.72310(17) 0.48708(16) 0.6334(6)
H16_4 H 0.699616 0.454843 0.646188
C29_4 C 0.77173(15) 0.54707(15) 0.4846(5)
H17_4 H 0.783765 0.558234 0.390476
C30_4 C 0.78901(13) 0.57862(14) 0.5979(4)
H18_4 H 0.811873 0.610826 0.580926
C31_7 C 0.81684(10) 0.58557(11) 0.9670(3)
C32_7 C 0.82895(12) 0.54886(12) 0.9523(4)
H19_7 H 0.820403 0.527028 0.874651
N1_8 N 0.27672(9) 0.10845(12) 0.2386(3)
N2_6 N 0.33168(9) 0.19995(13) 0.3455(3)
N4_4 N 0.16835(14) 0.09601(21) 0.8332(5)
C1_6 C 0.35977(12) 0.24777(16) 0.3740(3)
C2_6 C 0.34456(13) 0.26018(18) 0.5040(4)
H1_6 H 0.358150 0.290777 0.545924
C3_6 C 0.30728(13) 0.22015(18) 0.5554(4)
H2_6 H 0.289750 0.217171 0.640485
C4_6 C 0.29924(11) 0.18293(16) 0.4565(3)
C5_6 C 0.26188(11) 0.13669(16) 0.4684(3)
C6_6 C 0.22964(12) 0.12357(16) 0.5961(4)
C7_6 C 0.18235(14) 0.11053(20) 0.5792(5)
H3_6 H 0.169990 0.110716 0.486377
C8_4 C 0.15374(16) 0.09731(23) 0.7000(6)
H4_4 H 0.121509 0.088560 0.687146
C9_4 C 0.21373(15) 0.10867(21) 0.8488(5)
H5_4 H 0.224900 0.107802 0.942858
C10_4 C 0.24528(14) 0.12294(19) 0.7355(4)
H6_4 H 0.277492 0.132286 0.752408
C11_6 C 0.25223(11) 0.10206(15) 0.3664(3)
C12_6 C 0.21552(12) 0.05324(17) 0.3811(4)
H7_6 H 0.193694 0.039958 0.458683
C13_8 C 0.21808(12) 0.03006(17) 0.2639(4)
C14_8 C 0.25629(11) 0.06449(16) 0.1754(3)
C15_8 C 0.27052(12) 0.05350(16) 0.0470(4)
C16_8 C 0.24479(12) 0.00278(17) 0.0027(3)
N5_8 N 0.38994(9) 0.22489(12) 0.0948(3)
C33_8 C 0.44858(12) 0.30328(17) 0.0695(4)
H20_6 H 0.468156 0.335983 0.089886
C34_8 C 0.41037(11) 0.26885(16) 0.1580(3)
C35_8 C 0.39614(12) 0.27984(16) 0.2864(4)
C36_8 C 0.42187(12) 0.33056(17) 0.3307(3)
C37_6 C 0.41192(13) 0.36279(18) 0.2640(4)
H21_6 H 0.388018 0.352557 0.192078
C38_6 C 0.43733(12) 0.41001(17) 0.3037(4)
H22_6 H 0.430558 0.431744 0.256202
C39_8 C 0.48018(12) 0.39541(17) 0.4683(4)
H23_8 H 0.504235 0.406648 0.539867
C40_8 C 0.45674(13) 0.34745(18) 0.4353(4)
H24_6 H 0.464565 0.326638 0.483880
C19_8 C 0.18648(12) 0.93793(17) 0.8651(4)
H11_8 H 0.162431 0.926686 0.793467
C20_8 C 0.20992(13) 0.98589(18) 0.8981(4)
C19_9 C 0.06207(17) 0.24856(12) 0.8651(4)
H11_9 H 0.073314 0.235746 0.793467
C20_9 C 0.01411(18) 0.22404(13) 0.8981(4)
N1_9 N 0.89155(12) 0.16828(8) 0.2386(3)
N2_7 N 0.80005(13) 0.13174(9) 0.3455(3)
N4_5 N 0.90399(21) 0.07235(15) 0.8332(5)
C1_7 C 0.75223(16) 0.11201(11) 0.3740(3)
C2_7 C 0.73982(18) 0.08439(13) 0.5040(4)
H1_7 H 0.709223 0.067374 0.545924
C3_7 C 0.77985(18) 0.08714(13) 0.5554(4)
H2_7 H 0.782829 0.072580 0.640485
C4_7 C 0.81707(16) 0.11632(11) 0.4565(3)
C5_7 C 0.86331(16) 0.12520(11) 0.4684(3)
C6_7 C 0.87643(16) 0.10608(11) 0.5961(4)
C7_7 C 0.88947(20) 0.07183(14) 0.5792(5)
H3_7 H 0.889284 0.059275 0.486377
C8_5 C 0.90269(23) 0.05644(17) 0.7000(6)
H4_5 H 0.911440 0.032950 0.687146
C9_5 C 0.89133(21) 0.10507(15) 0.8488(5)
H5_5 H 0.892198 0.117099 0.942858
C10_5 C 0.87706(19) 0.12235(13) 0.7355(4)
H6_5 H 0.867714 0.145207 0.752408
C11_7 C 0.89794(15) 0.15018(10) 0.3664(3)
C12_7 C 0.94676(17) 0.16229(12) 0.3811(4)
H7_7 H 0.960042 0.153737 0.458683
C13_9 C 0.96994(17) 0.18803(12) 0.2639(4)
C14_9 C 0.93551(16) 0.19181(11) 0.1754(3)
C15_9 C 0.94650(16) 0.21703(11) 0.0470(4)
C16_9 C 0.99722(17) 0.24202(12) 0.0027(3)
N5_9 N 0.77511(12) 0.16506(8) 0.0948(3)
C33_9 C 0.69672(17) 0.14531(12) 0.0695(4)
H20_7 H 0.664017 0.132174 0.089886
C34_9 C 0.73115(16) 0.14153(11) 0.1580(3)
C35_9 C 0.72016(16) 0.11631(11) 0.2864(4)
C36_9 C 0.66944(17) 0.09132(12) 0.3307(3)
C37_7 C 0.63721(18) 0.04914(12) 0.2640(4)
H21_7 H 0.647443 0.035462 0.192078
C38_7 C 0.58999(17) 0.02733(12) 0.3037(4)
C39_9 C 0.60459(17) 0.08478(12) 0.4683(4)
H23_9 H 0.593352 0.097588 0.539867
C40_9 C 0.65255(18) 0.10930(13) 0.4353(4)
H24_7 H 0.673362 0.137928 0.483880
H22_7 H 0.568256 0.998815 0.256202
N8_5 N 0.40568(15) 0.83502(14) 0.8335(5)
C28_5 C 0.38977(17) 0.82041(16) 0.9667(6)
H16_5 H 0.366283 0.788176 0.979521
C29_5 C 0.43840(15) 0.88040(15) 0.8179(5)
H17_5 H 0.450432 0.891567 0.723809
C30_5 C 0.45568(13) 0.91195(14) 0.9312(4)
H18_5 H 0.478540 0.944159 0.914259
N8_6 N 0.16498(14) 0.57066(21) 0.8335(5)
C28_6 C 0.17959(16) 0.56936(23) 0.9667(6)
H16_6 H 0.211824 0.578107 0.979521
C29_6 C 0.11960(15) 0.55800(21) 0.8179(5)
H17_6 H 0.108433 0.558865 0.723809
C30_6 C 0.08805(14) 0.54373(19) 0.9312(4)
H18_6 H 0.055841 0.534381 0.914259
N4_6 N 0.83502(14) 0.42934(21) 0.1665(5)
C8_6 C 0.82041(16) 0.43064(23) 0.0333(6)
H4_6 H 0.788176 0.421893 0.020479
C9_6 C 0.88040(15) 0.44200(21) 0.1821(5)
H5_6 H 0.891567 0.441135 0.276191
C10_6 C 0.91195(14) 0.45627(19) 0.0688(4)
H6_6 H 0.944159 0.465619 0.085741
N4_7 N 0.57066(21) 0.40568(15) 0.1665(5)
C8_7 C 0.56936(23) 0.38977(17) 0.0333(6)
H4_7 H 0.578107 0.366283 0.020479
C9_7 C 0.55800(21) 0.43840(15) 0.1821(5)
H5_7 H 0.558865 0.450432 0.276191
C10_7 C 0.54373(19) 0.45568(13) 0.0688(4)
H6_7 H 0.534381 0.478540 0.085741
N8_7 N 0.42934(21) 0.59432(15) 0.8335(5)
C28_7 C 0.43064(23) 0.61023(17) 0.9667(6)
H16_7 H 0.421893 0.633717 0.979521
C29_7 C 0.44200(21) 0.56160(15) 0.8179(5)
H17_7 H 0.441135 0.549568 0.723809
C30_7 C 0.45627(19) 0.54432(13) 0.9312(4)
H18_7 H 0.465619 0.521460 0.914259
H20_8 H 0.801490 0.002649 0.756552
C37_8 C 0.74526(13) 0.02945(18) 0.9306(4)
H21_8 H 0.721352 0.019223 0.858744
C38_8 C 0.77067(12) 0.07667(17) 0.9703(4)
H22_8 H 0.763892 0.098410 0.922868
N2_8 N 0.66502(9) 0.86661(13) 0.0121(3)
N4_8 N 0.50169(14) 0.76267(21) 0.4998(5)
C1_8 C 0.69311(12) 0.91443(16) 0.0406(3)
C2_8 C 0.67790(13) 0.92684(18) 0.1706(4)
H1_8 H 0.691484 0.957443 0.212590
C3_8 C 0.64062(13) 0.88681(18) 0.2220(4)
H2_8 H 0.623084 0.883837 0.307151
C4_8 C 0.63258(11) 0.84959(16) 0.1231(3)
C5_8 C 0.59522(11) 0.80335(16) 0.1350(3)
C6_8 C 0.56298(12) 0.79023(16) 0.2627(4)
C7_8 C 0.51569(14) 0.77719(20) 0.2458(5)
H3_8 H 0.503324 0.777382 0.153043
C8_8 C 0.48708(16) 0.76397(23) 0.3666(6)
H4_8 H 0.454843 0.755226 0.353812
C9_8 C 0.54707(15) 0.77533(21) 0.5154(5)
H5_8 H 0.558234 0.774468 0.609524
C10_8 C 0.57862(14) 0.78960(19) 0.4021(4)
H6_8 H 0.610826 0.798952 0.419074
C11_8 C 0.58557(11) 0.76872(15) 0.0330(3)
C12_8 C 0.54886(12) 0.71990(17) 0.0477(4)
H7_8 H 0.527028 0.706624 0.125349
H24_8 H 0.797899 0.993304 0.150546
N2_9 N 0.13339(13) 0.79840(9) 0.0121(3)
N4_9 N 0.23733(21) 0.73901(15) 0.4998(5)
C1_9 C 0.08557(16) 0.77867(11) 0.0406(3)
C2_9 C 0.07316(18) 0.75105(13) 0.1706(4)
H1_9 H 0.042557 0.734040 0.212590
C3_9 C 0.11319(18) 0.75380(13) 0.2220(4)
H2_9 H 0.116163 0.739246 0.307151
C4_9 C 0.15041(16) 0.78298(11) 0.1231(3)
C5_9 C 0.19665(16) 0.79186(11) 0.1350(3)
C6_9 C 0.20977(16) 0.77274(11) 0.2627(4)
C7_9 C 0.22281(20) 0.73849(14) 0.2458(5)
H3_9 H 0.222618 0.725941 0.153043
C8_9 C 0.23603(23) 0.72310(17) 0.3666(6)
H4_9 H 0.244774 0.699616 0.353812
C9_9 C 0.22467(21) 0.77173(15) 0.5154(5)
H5_9 H 0.225532 0.783765 0.609524
C10_9 C 0.21040(19) 0.78901(13) 0.4021(4)
H6_9 H 0.201048 0.811873 0.419074
C11_9 C 0.23128(15) 0.81684(10) 0.0330(3)
C12_9 C 0.28010(17) 0.82895(12) 0.0477(4)
H7_9 H 0.293376 0.820403 0.125349
H24_9 H 0.006696 0.804594 0.150546
H20_9 H 0.997351 0.798840 0.756552
C37_9 C 0.97055(18) 0.71580(12) 0.9306(4)
H21_9 H 0.980777 0.702128 0.858744
C38_9 C 0.92333(17) 0.69399(12) 0.9703(4)
H22_9 H 0.901590 0.665481 0.922868
H12_8 H 0.202101 0.006696 0.849454
N6_8 N 0.33498(9) 0.13339(13) 0.9879(3)
N8_8 N 0.49831(14) 0.23733(21) 0.5002(5)
C21_8 C 0.30689(12) 0.08557(16) 0.9594(3)
C22_8 C 0.32210(13) 0.07316(18) 0.8294(4)
H13_8 H 0.308516 0.042557 0.787410
C23_8 C 0.35938(13) 0.11319(18) 0.7780(4)
H14_8 H 0.376916 0.116163 0.692849
C24_8 C 0.36742(11) 0.15041(16) 0.8769(3)
C25_8 C 0.40478(11) 0.19665(16) 0.8650(3)
C26_8 C 0.43702(12) 0.20977(16) 0.7373(4)
C27_8 C 0.48431(14) 0.22281(20) 0.7542(5)
H15_8 H 0.496676 0.222618 0.846957
C28_8 C 0.51292(16) 0.23603(23) 0.6334(6)
H16_8 H 0.545157 0.244774 0.646188
C29_8 C 0.45293(15) 0.22467(21) 0.4846(5)
H17_8 H 0.441766 0.225532 0.390476
C30_8 C 0.42138(14) 0.21040(19) 0.5979(4)
H18_8 H 0.389174 0.201048 0.580926
C31_8 C 0.41443(11) 0.23128(15) 0.9670(3)
C32_8 C 0.45114(12) 0.28010(17) 0.9523(4)
H19_8 H 0.472972 0.293376 0.874651
H8_8 H 0.198510 0.997351 0.243448
C17_8 C 0.25474(13) 0.97055(18) 0.0694(4)
H9_8 H 0.278648 0.980777 0.141256
C18_8 C 0.22933(12) 0.92333(17) 0.0297(4)
H10_8 H 0.236108 0.901590 0.077132
H8_9 H 0.002649 0.201160 0.243448
C17_9 C 0.02945(18) 0.28420(12) 0.0694(4)
H9_9 H 0.019223 0.297872 0.141256
C18_9 C 0.07667(17) 0.30601(12) 0.0297(4)
H10_9 H 0.098410 0.334519 0.077132
H12_9 H 0.993304 0.195406 0.849454
N6_9 N 0.86661(13) 0.20160(9) 0.9879(3)
N8_9 N 0.76267(21) 0.26099(15) 0.5002(5)
C21_9 C 0.91443(16) 0.22133(11) 0.9594(3)
C22_9 C 0.92684(18) 0.24895(13) 0.8294(4)
H13_9 H 0.957443 0.265960 0.787410
C23_9 C 0.88681(18) 0.24620(13) 0.7780(4)
H14_9 H 0.883837 0.260754 0.692849
C24_9 C 0.84959(16) 0.21702(11) 0.8769(3)
C25_9 C 0.80335(16) 0.20814(11) 0.8650(3)
C26_9 C 0.79023(16) 0.22726(11) 0.7373(4)
C27_9 C 0.77719(20) 0.26151(14) 0.7542(5)
H15_9 H 0.777382 0.274059 0.846957
C28_9 C 0.76397(23) 0.27690(17) 0.6334(6)
H16_9 H 0.755226 0.300384 0.646188
C29_9 C 0.77533(21) 0.22827(15) 0.4846(5)
H17_9 H 0.774468 0.216235 0.390476
C30_9 C 0.78960(19) 0.21099(13) 0.5979(4)
H18_9 H 0.798952 0.188127 0.580926
C31_9 C 0.76872(15) 0.18316(10) 0.9670(3)
C32_9 C 0.71990(17) 0.17105(12) 0.9523(4)
H19_9 H 0.706624 0.179597 0.874651
loop_
_geom_bond_atom_site_label_1
_geom_bond_atom_site_label_2
_geom_bond_site_symmetry_1
_geom_bond_site_symmetry_2
N4 C8 1_555 1_555
H4 C8 1_555 1_555
C9 N4 1_555 1_555
H5 C9 1_555 1_555
H6 C10 1_555 1_555
C9 C10 1_555 1_555
Co1 N1 1_555 1_555
N1 C11 1_555 1_555
N2 Co1 1_555 1_555
N3 C18 1_555 1_555
H2 C3 1_555 1_555
C4 N2 1_555 1_555
C5 C4 1_555 1_555
C6 C5 1_555 1_555
C7 C6 1_555 1_555
H3 C7 1_555 1_555
C11 C5 1_555 1_555
C12 C11 1_555 1_555
H7 C12 1_555 1_555
C13 C12 1_555 1_555
H8 C13 1_555 1_555
C14 N1 1_555 1_555
C15 C14 1_555 1_555
C16 C15 1_555 1_555
C17 C16 1_555 1_555
H9 C17 1_555 1_555
C18 C17 1_555 1_555
H10 C18 1_555 1_555
C19 N3 1_555 1_555
H11 C19 1_555 1_555
C20 C16 1_555 1_555
H12 C20 1_555 1_555
C21 C15 1_555 1_555
C22 C21 1_555 1_555
H13 C22 1_555 1_555
Co3 N3 1_555 1_555
N10 Co1 1_555 1_555
C3 C4 1_555 1_555
C13 C14 1_555 1_555
C19 C20 1_555 1_555
C2 C1 1_555 1_555
H1 C2 1_555 1_555
N5 Co1_2 1_555 1_555
N6 Co1_2 1_555 1_555
N7 C38 1_555 1_555
H14 C23 1_555 1_555
C24 N6 1_555 1_555
C25 C24 1_555 1_555
C26 C25 1_555 1_555
C27 C26 1_555 1_555
H15 C27 1_555 1_555
C31 N5 1_555 1_555
C32 C31 1_555 1_555
H19 C32 1_555 1_555
C33 C32 1_555 1_555
H20 C33 1_555 1_555
C34 N5 1_555 1_555
C35 C1 1_555 1_555
C36 C35 1_555 1_555
C37 C36 1_555 1_555
H21 C37 1_555 1_555
C38 C37 1_555 1_555
H22 C38 1_555 1_555
C39 N7 1_555 1_555
H23 C39 1_555 1_555
C40 C36 1_555 1_555
H24 C40 1_555 1_555
Co2 N7 1_555 1_555
N9 Co1_2 1_555 1_555
C23 C24 1_555 1_555
C25 C31 1_555 1_555
C33 C34 1_555 1_555
C34 C35 1_555 1_555
C39 C40 1_555 1_555
C2_2 C1_2 1_555 1_555
H1_2 C2_2 1_555 1_555
N5_2 Co1_3 1_555 1_555
N6_2 Co1_3 1_555 1_555
N7_2 C38_2 1_555 1_555
H14_2 C23_2 1_555 1_555
C24_2 N6_2 1_555 1_555
C25_2 C24_2 1_555 1_555
C26_2 C25_2 1_555 1_555
C27_2 C26_2 1_555 1_555
H15_2 C27_2 1_555 1_555
C31_2 N5_2 1_555 1_555
C32_2 C31_2 1_555 1_555
H19_2 C32_2 1_555 1_555
C33_2 C32_2 1_555 1_555
H20_2 C33_2 1_555 1_555
C34_2 N5_2 1_555 1_555
C35_2 C1_2 1_555 1_555
C36_2 C35_2 1_555 1_555
C37_2 C36_2 1_555 1_555
H21_2 C37_2 1_555 1_555
C38_2 C37_2 1_555 1_555
H22_2 C38_2 1_555 1_555
C39_2 N7_2 1_555 1_555
H23_2 C39_2 1_555 1_555
C40_2 C36_2 1_555 1_555
H24_2 C40_2 1_555 1_555
Co2_2 N7_2 1_555 1_555
N9_2 Co1_3 1_555 1_555
C23_2 C24_2 1_555 1_555
C25_2 C31_2 1_555 1_555
C33_2 C34_2 1_555 1_555
C34_2 C35_2 1_555 1_555
C39_2 C40_2 1_555 1_555
Co1_4 N1_2 1_555 1_555
N1_2 C11_2 1_555 1_555
N2_2 Co1_4 1_555 1_555
N3_2 C18_2 1_555 1_555
H2_2 C3_2 1_555 1_555
C4_2 N2_2 1_555 1_555
C5_2 C4_2 1_555 1_555
C6_2 C5_2 1_555 1_555
C7_2 C6_2 1_555 1_555
H3_2 C7_2 1_555 1_555
C11_2 C5_2 1_555 1_555
C12_2 C11_2 1_555 1_555
H7_2 C12_2 1_555 1_555
C13_2 C12_2 1_555 1_555
H8_2 C13_2 1_555 1_555
C14_2 N1_2 1_555 1_555
C15_2 C14_2 1_555 1_555
C16_2 C15_2 1_555 1_555
C17_2 C16_2 1_555 1_555
H9_2 C17_2 1_555 1_555
C18_2 C17_2 1_555 1_555
H10_2 C18_2 1_555 1_555
C19_2 N3_2 1_555 1_555
H11_2 C19_2 1_555 1_555
C20_2 C16_2 1_555 1_555
H12_2 C20_2 1_555 1_555
C21_2 C15_2 1_555 1_555
C22_2 C21_2 1_555 1_555
H13_2 C22_2 1_555 1_555
Co3_2 N3_2 1_555 1_555
N10_2 Co1_4 1_555 1_555
C3_2 C4_2 1_555 1_555
C13_2 C14_2 1_555 1_555
C19_2 C20_2 1_555 1_555
Co1_5 N1_3 1_555 1_555
N1_3 C11_3 1_555 1_555
N2_3 Co1_5 1_555 1_555
N3_3 C18_3 1_555 1_555
C1_3 N2_3 1_555 1_555
C2_3 C1_3 1_555 1_555
H1_3 C2_3 1_555 1_555
C3_3 C2_3 1_555 1_555
H2_3 C3_3 1_555 1_555
C4_3 N2_3 1_555 1_555
C5_3 C4_3 1_555 1_555
C6_3 C5_3 1_555 1_555
C7_3 C6_3 1_555 1_555
H3_3 C7_3 1_555 1_555
C11_3 C5_3 1_555 1_555
C12_3 C11_3 1_555 1_555
H7_3 C12_3 1_555 1_555
C13_3 C12_3 1_555 1_555
H8_3 C13_3 1_555 1_555
C14_3 N1_3 1_555 1_555
C15_3 C14_3 1_555 1_555
C16_3 C15_3 1_555 1_555
C17_3 C16_3 1_555 1_555
H9_3 C17_3 1_555 1_555
C18_3 C17_3 1_555 1_555
H10_3 C18_3 1_555 1_555
C19_3 N3_3 1_555 1_555
H11_3 C19_3 1_555 1_555
C20_3 C16_3 1_555 1_555
H12_3 C20_3 1_555 1_555
N5_3 Co1_5 1_555 1_555
N6_3 Co1_5 1_555 1_555
N7_3 C38_3 1_555 1_555
C21_3 C15_3 1_555 1_555
C22_3 C21_3 1_555 1_555
H13_3 C22_3 1_555 1_555
C23_3 C22_3 1_555 1_555
H14_3 C23_3 1_555 1_555
C24_3 N6_3 1_555 1_555
C25_3 C24_3 1_555 1_555
C26_3 C25_3 1_555 1_555
C27_3 C26_3 1_555 1_555
H15_3 C27_3 1_555 1_555
C31_3 N5_3 1_555 1_555
C32_3 C31_3 1_555 1_555
H19_3 C32_3 1_555 1_555
C33_3 C32_3 1_555 1_555
H20_3 C33_3 1_555 1_555
C34_3 N5_3 1_555 1_555
C35_3 C1_3 1_555 1_555
C36_3 C35_3 1_555 1_555
C37_3 C36_3 1_555 1_555
H21_3 C37_3 1_555 1_555
C38_3 C37_3 1_555 1_555
H22_3 C38_3 1_555 1_555
C39_3 N7_3 1_555 1_555
H23_3 C39_3 1_555 1_555
C40_3 C36_3 1_555 1_555
H24_3 C40_3 1_555 1_555
Co2_3 N7_3 1_555 1_555
Co3_3 N3_3 1_555 1_555
N9_3 Co1_5 1_555 1_555
N10_3 Co1_5 1_555 1_555
C3_3 C4_3 1_555 1_555
C13_3 C14_3 1_555 1_555
C19_3 C20_3 1_555 1_555
N6_3 C21_3 1_555 1_555
C23_3 C24_3 1_555 1_555
C25_3 C31_3 1_555 1_555
C33_3 C34_3 1_555 1_555
C34_3 C35_3 1_555 1_555
C39_3 C40_3 1_555 1_555
N4_2 C8_2 1_555 1_555
C1_4 N2_4 1_555 1_555
C2_4 C1_4 1_555 1_555
H1_4 C2_4 1_555 1_555
C3_4 C2_4 1_555 1_555
H2_4 C3_4 1_555 1_555
C4_4 N2_4 1_555 1_555
C5_4 C4_4 1_555 1_555
C6_4 C5_4 1_555 1_555
C7_4 C6_4 1_555 1_555
H3_4 C7_4 1_555 1_555
C8_2 C7_4 1_555 1_555
H4_2 C8_2 1_555 1_555
C9_2 N4_2 1_555 1_555
H5_2 C9_2 1_555 1_555
C10_2 C6_4 1_555 1_555
H6_2 C10_2 1_555 1_555
C11_4 C5_4 1_555 1_555
C12_4 C11_4 1_555 1_555
H7_4 C12_4 1_555 1_555
C39_4 N7_4 1_555 1_555
H23_4 C39_4 1_555 1_555
H24_4 C40_4 1_555 1_555
Co3 N7_4 1_555 1_555
C3_4 C4_4 1_555 1_555
C9_2 C10_2 1_555 1_555
C39_4 C40_4 1_555 1_555
Co2_3 N1_4 1_555 1_555
N9_2 C18_4 1_555 1_555
H8_4 C13_4 1_555 1_555
C14_4 N1_4 1_555 1_555
C15_4 C14_4 1_555 1_555
C16_4 C15_4 1_555 1_555
C17_4 C16_4 1_555 1_555
H9_4 C17_4 1_555 1_555
C18_4 C17_4 1_555 1_555
C19_4 N9_2 1_555 1_555
H11_4 C19_4 1_555 1_555
C20_4 C16_4 1_555 1_555
H12_4 C20_4 1_555 1_555
N5_4 Co2_3 1_555 1_555
N6_4 Co2_3 1_555 1_555
N8 C28 1_555 1_555
C21_4 C15_4 1_555 1_555
C22_4 C21_4 1_555 1_555
H13_4 C22_4 1_555 1_555
C23_4 C22_4 1_555 1_555
H14_4 C23_4 1_555 1_555
C24_4 N6_4 1_555 1_555
C25_4 C24_4 1_555 1_555
C26_4 C25_4 1_555 1_555
C27_4 C26_4 1_555 1_555
H15_4 C27_4 1_555 1_555
C28 C27_4 1_555 1_555
H16 C28 1_555 1_555
C29 N8 1_555 1_555
H17 C29 1_555 1_555
C30 C26_4 1_555 1_555
H18 C30 1_555 1_555
C31_4 N5_4 1_555 1_555
C32_4 C31_4 1_555 1_555
H19_4 C32_4 1_555 1_555
C33_4 C32_4 1_555 1_555
H20_4 C33_4 1_555 1_555
C34_4 N5_4 1_555 1_555
C36_4 C35_4 1_555 1_555
C37_4 C36_4 1_555 1_555
H21_4 C37_4 1_555 1_555
C38_4 C37_4 1_555 1_555
H22_4 C38_4 1_555 1_555
N9_4 Co2_3 1_555 1_555
C13_4 C14_4 1_555 1_555
C19_4 C20_4 1_555 1_555
N6_4 C21_4 1_555 1_555
C23_4 C24_4 1_555 1_555
C25_4 C31_4 1_555 1_555
C29 C30 1_555 1_555
C33_4 C34_4 1_555 1_555
C34_4 C35_4 1_555 1_555
C39_5 N7_5 1_555 1_555
H23_5 C39_5 1_555 1_555
Co3_2 N7_5 1_555 1_555
C39_5 C40_5 1_555 1_555
Co2 N1_5 1_555 1_555
N9_3 C18_5 1_555 1_555
H8_5 C13_5 1_555 1_555
C14_5 N1_5 1_555 1_555
C15_5 C14_5 1_555 1_555
C16_5 C15_5 1_555 1_555
C17_5 C16_5 1_555 1_555
H9_5 C17_5 1_555 1_555
C18_5 C17_5 1_555 1_555
H10_5 C18_5 1_555 1_555
C19_5 N9_3 1_555 1_555
H11_5 C19_5 1_555 1_555
C20_5 C16_5 1_555 1_555
H12_5 C20_5 1_555 1_555
N5_5 Co2 1_555 1_555
N6_5 Co2 1_555 1_555
N8_2 C28_2 1_555 1_555
C21_5 C15_5 1_555 1_555
C22_5 C21_5 1_555 1_555
H13_5 C22_5 1_555 1_555
C23_5 C22_5 1_555 1_555
H14_5 C23_5 1_555 1_555
C24_5 N6_5 1_555 1_555
C25_5 C24_5 1_555 1_555
C26_5 C25_5 1_555 1_555
C27_5 C26_5 1_555 1_555
H15_5 C27_5 1_555 1_555
C28_2 C27_5 1_555 1_555
H16_2 C28_2 1_555 1_555
C29_2 N8_2 1_555 1_555
H17_2 C29_2 1_555 1_555
C30_2 C26_5 1_555 1_555
H18_2 C30_2 1_555 1_555
C31_5 N5_5 1_555 1_555
C32_5 C31_5 1_555 1_555
H19_5 C32_5 1_555 1_555
C33_5 C32_5 1_555 1_555
C34_5 N5_5 1_555 1_555
C36_5 C35_5 1_555 1_555
N9_5 Co2 1_555 1_555
C13_5 C14_5 1_555 1_555
C19_5 C20_5 1_555 1_555
N6_5 C21_5 1_555 1_555
C23_5 C24_5 1_555 1_555
C25_5 C31_5 1_555 1_555
C29_2 C30_2 1_555 1_555
C33_5 C34_5 1_555 1_555
C34_5 C35_5 1_555 1_555
Co2_2 N1_6 1_555 1_555
N9 C18_6 1_555 1_555
H8_6 C13_6 1_555 1_555
C14_6 N1_6 1_555 1_555
C15_6 C14_6 1_555 1_555
C16_6 C15_6 1_555 1_555
C17_6 C16_6 1_555 1_555
H9_6 C17_6 1_555 1_555
C18_6 C17_6 1_555 1_555
C19_6 N9 1_555 1_555
H11_6 C19_6 1_555 1_555
C20_6 C16_6 1_555 1_555
H12_6 C20_6 1_555 1_555
N5_6 Co2_2 1_555 1_555
N6_6 Co2_2 1_555 1_555
N8_3 C28_3 1_555 1_555
C21_6 C15_6 1_555 1_555
C22_6 C21_6 1_555 1_555
H13_6 C22_6 1_555 1_555
C23_6 C22_6 1_555 1_555
H14_6 C23_6 1_555 1_555
C24_6 N6_6 1_555 1_555
C25_6 C24_6 1_555 1_555
C26_6 C25_6 1_555 1_555
C27_6 C26_6 1_555 1_555
H15_6 C27_6 1_555 1_555
C28_3 C27_6 1_555 1_555
H16_3 C28_3 1_555 1_555
C29_3 N8_3 1_555 1_555
H17_3 C29_3 1_555 1_555
C30_3 C26_6 1_555 1_555
H18_3 C30_3 1_555 1_555
C31_6 N5_6 1_555 1_555
C32_6 C31_6 1_555 1_555
H19_6 C32_6 1_555 1_555
C33_6 C32_6 1_555 1_555
C34_6 N5_6 1_555 1_555
C36_6 C35_6 1_555 1_555
N9_6 Co2_2 1_555 1_555
C13_6 C14_6 1_555 1_555
C19_6 C20_6 1_555 1_555
N6_6 C21_6 1_555 1_555
C23_6 C24_6 1_555 1_555
C25_6 C31_6 1_555 1_555
C29_3 C30_3 1_555 1_555
C33_6 C34_6 1_555 1_555
C34_6 C35_6 1_555 1_555
C39_6 N7_6 1_555 1_555
H23_6 C39_6 1_555 1_555
Co3_3 N7_6 1_555 1_555
C39_6 C40_6 1_555 1_555
Co3_3 N1_7 1_555 1_555
N1_7 C11_5 1_555 1_555
N2_5 Co3_3 1_555 1_555
N4_3 C8_3 1_555 1_555
C1_5 N2_5 1_555 1_555
C2_5 C1_5 1_555 1_555
H1_5 C2_5 1_555 1_555
C3_5 C2_5 1_555 1_555
H2_5 C3_5 1_555 1_555
C4_5 N2_5 1_555 1_555
C5_5 C4_5 1_555 1_555
C6_5 C5_5 1_555 1_555
C7_5 C6_5 1_555 1_555
H3_5 C7_5 1_555 1_555
C8_3 C7_5 1_555 1_555
H4_3 C8_3 1_555 1_555
C9_3 N4_3 1_555 1_555
H5_3 C9_3 1_555 1_555
C10_3 C6_5 1_555 1_555
H6_3 C10_3 1_555 1_555
C11_5 C5_5 1_555 1_555
C12_5 C11_5 1_555 1_555
H7_5 C12_5 1_555 1_555
C13_7 C12_5 1_555 1_555
H8_7 C13_7 1_555 1_555
C14_7 N1_7 1_555 1_555
C15_7 C14_7 1_555 1_555
C16_7 C15_7 1_555 1_555
C17_7 C16_7 1_555 1_555
H9_7 C17_7 1_555 1_555
C18_7 C17_7 1_555 1_555
H10_7 C18_7 1_555 1_555
N5_7 Co3_3 1_555 1_555
N10_2 C38_5 1_555 1_555
H20_5 C33_7 1_555 1_555
C34_7 N5_7 1_555 1_555
C35_7 C1_5 1_555 1_555
C36_7 C35_7 1_555 1_555
C37_5 C36_7 1_555 1_555
H21_5 C37_5 1_555 1_555
C38_5 C37_5 1_555 1_555
C39_7 N10_2 1_555 1_555
H23_7 C39_7 1_555 1_555
C40_7 C36_7 1_555 1_555
H24_5 C40_7 1_555 1_555
C3_5 C4_5 1_555 1_555
C9_3 C10_3 1_555 1_555
C13_7 C14_7 1_555 1_555
C33_7 C34_7 1_555 1_555
C34_7 C35_7 1_555 1_555
C39_7 C40_7 1_555 1_555
C19_7 N9_5 1_555 1_555
H11_7 C19_7 1_555 1_555
H12_7 C20_7 1_555 1_555
N8_4 C28_4 1_555 1_555
C22_7 C21_7 1_555 1_555
H13_7 C22_7 1_555 1_555
C23_7 C22_7 1_555 1_555
H14_7 C23_7 1_555 1_555
C24_7 N6_7 1_555 1_555
C25_7 C24_7 1_555 1_555
C26_7 C25_7 1_555 1_555
C27_7 C26_7 1_555 1_555
H15_7 C27_7 1_555 1_555
C28_4 C27_7 1_555 1_555
H16_4 C28_4 1_555 1_555
C29_4 N8_4 1_555 1_555
H17_4 C29_4 1_555 1_555
C30_4 C26_7 1_555 1_555
H18_4 C30_4 1_555 1_555
C32_7 C31_7 1_555 1_555
H19_7 C32_7 1_555 1_555
C19_7 C20_7 1_555 1_555
N6_7 C21_7 1_555 1_555
C23_7 C24_7 1_555 1_555
C25_7 C31_7 1_555 1_555
C29_4 C30_4 1_555 1_555
Co3 N1_8 1_555 1_555
N1_8 C11_6 1_555 1_555
N2_6 Co3 1_555 1_555
N4_4 C8_4 1_555 1_555
C1_6 N2_6 1_555 1_555
C2_6 C1_6 1_555 1_555
H1_6 C2_6 1_555 1_555
C3_6 C2_6 1_555 1_555
H2_6 C3_6 1_555 1_555
C4_6 N2_6 1_555 1_555
C5_6 C4_6 1_555 1_555
C6_6 C5_6 1_555 1_555
C7_6 C6_6 1_555 1_555
H3_6 C7_6 1_555 1_555
C8_4 C7_6 1_555 1_555
H4_4 C8_4 1_555 1_555
C9_4 N4_4 1_555 1_555
H5_4 C9_4 1_555 1_555
C10_4 C6_6 1_555 1_555
H6_4 C10_4 1_555 1_555
C11_6 C5_6 1_555 1_555
C12_6 C11_6 1_555 1_555
H7_6 C12_6 1_555 1_555
C13_8 C12_6 1_555 1_555
C14_8 N1_8 1_555 1_555
C15_8 C14_8 1_555 1_555
C16_8 C15_8 1_555 1_555
N5_8 Co3 1_555 1_555
N10_3 C38_6 1_555 1_555
H20_6 C33_8 1_555 1_555
C34_8 N5_8 1_555 1_555
C35_8 C1_6 1_555 1_555
C36_8 C35_8 1_555 1_555
C37_6 C36_8 1_555 1_555
H21_6 C37_6 1_555 1_555
C38_6 C37_6 1_555 1_555
H22_6 C38_6 1_555 1_555
C39_8 N10_3 1_555 1_555
H23_8 C39_8 1_555 1_555
C40_8 C36_8 1_555 1_555
H24_6 C40_8 1_555 1_555
C3_6 C4_6 1_555 1_555
C9_4 C10_4 1_555 1_555
C13_8 C14_8 1_555 1_555
C33_8 C34_8 1_555 1_555
C34_8 C35_8 1_555 1_555
C39_8 C40_8 1_555 1_555
C19_8 N9_6 1_555 1_555
H11_8 C19_8 1_555 1_555
C19_8 C20_8 1_555 1_555
C19_9 N9_4 1_555 1_555
H11_9 C19_9 1_555 1_555
C19_9 C20_9 1_555 1_555
Co3_2 N1_9 1_555 1_555
N1_9 C11_7 1_555 1_555
N2_7 Co3_2 1_555 1_555
N4_5 C8_5 1_555 1_555
C1_7 N2_7 1_555 1_555
C2_7 C1_7 1_555 1_555
H1_7 C2_7 1_555 1_555
C3_7 C2_7 1_555 1_555
H2_7 C3_7 1_555 1_555
C4_7 N2_7 1_555 1_555
C5_7 C4_7 1_555 1_555
C6_7 C5_7 1_555 1_555
C7_7 C6_7 1_555 1_555
H3_7 C7_7 1_555 1_555
C8_5 C7_7 1_555 1_555
H4_5 C8_5 1_555 1_555
C9_5 N4_5 1_555 1_555
H5_5 C9_5 1_555 1_555
C10_5 C6_7 1_555 1_555
H6_5 C10_5 1_555 1_555
C11_7 C5_7 1_555 1_555
C12_7 C11_7 1_555 1_555
H7_7 C12_7 1_555 1_555
C13_9 C12_7 1_555 1_555
C14_9 N1_9 1_555 1_555
C15_9 C14_9 1_555 1_555
C16_9 C15_9 1_555 1_555
N5_9 Co3_2 1_555 1_555
N10 C38_7 1_555 1_555
H20_7 C33_9 1_555 1_555
C34_9 N5_9 1_555 1_555
C35_9 C1_7 1_555 1_555
C36_9 C35_9 1_555 1_555
C37_7 C36_9 1_555 1_555
H21_7 C37_7 1_555 1_555
C38_7 C37_7 1_555 1_555
C39_9 N10 1_555 1_555
H23_9 C39_9 1_555 1_555
C40_9 C36_9 1_555 1_555
H24_7 C40_9 1_555 1_555
C3_7 C4_7 1_555 1_555
C9_5 C10_5 1_555 1_555
C13_9 C14_9 1_555 1_555
C33_9 C34_9 1_555 1_555
C34_9 C35_9 1_555 1_555
C39_9 C40_9 1_555 1_555
N8_5 C28_5 1_555 1_555
H16_5 C28_5 1_555 1_555
C29_5 N8_5 1_555 1_555
H17_5 C29_5 1_555 1_555
H18_5 C30_5 1_555 1_555
C29_5 C30_5 1_555 1_555
N8_6 C28_6 1_555 1_555
H16_6 C28_6 1_555 1_555
C29_6 N8_6 1_555 1_555
H17_6 C29_6 1_555 1_555
H18_6 C30_6 1_555 1_555
C29_6 C30_6 1_555 1_555
N4_6 C8_6 1_555 1_555
H4_6 C8_6 1_555 1_555
C9_6 N4_6 1_555 1_555
H5_6 C9_6 1_555 1_555
H6_6 C10_6 1_555 1_555
C9_6 C10_6 1_555 1_555
N4_7 C8_7 1_555 1_555
H4_7 C8_7 1_555 1_555
C9_7 N4_7 1_555 1_555
H5_7 C9_7 1_555 1_555
H6_7 C10_7 1_555 1_555
C9_7 C10_7 1_555 1_555
N8_7 C28_7 1_555 1_555
H16_7 C28_7 1_555 1_555
C29_7 N8_7 1_555 1_555
H17_7 C29_7 1_555 1_555
H18_7 C30_7 1_555 1_555
C29_7 C30_7 1_555 1_555
H21_8 C37_8 1_555 1_555
C38_8 C37_8 1_555 1_555
H22_8 C38_8 1_555 1_555
N4_8 C8_8 1_555 1_555
C1_8 N2_8 1_555 1_555
C2_8 C1_8 1_555 1_555
H1_8 C2_8 1_555 1_555
C3_8 C2_8 1_555 1_555
H2_8 C3_8 1_555 1_555
C4_8 N2_8 1_555 1_555
C5_8 C4_8 1_555 1_555
C6_8 C5_8 1_555 1_555
C7_8 C6_8 1_555 1_555
H3_8 C7_8 1_555 1_555
C8_8 C7_8 1_555 1_555
H4_8 C8_8 1_555 1_555
C9_8 N4_8 1_555 1_555
H5_8 C9_8 1_555 1_555
C10_8 C6_8 1_555 1_555
H6_8 C10_8 1_555 1_555
C11_8 C5_8 1_555 1_555
C12_8 C11_8 1_555 1_555
H7_8 C12_8 1_555 1_555
C3_8 C4_8 1_555 1_555
C9_8 C10_8 1_555 1_555
N4_9 C8_9 1_555 1_555
C1_9 N2_9 1_555 1_555
C2_9 C1_9 1_555 1_555
H1_9 C2_9 1_555 1_555
C3_9 C2_9 1_555 1_555
H2_9 C3_9 1_555 1_555
C4_9 N2_9 1_555 1_555
C5_9 C4_9 1_555 1_555
C6_9 C5_9 1_555 1_555
C7_9 C6_9 1_555 1_555
H3_9 C7_9 1_555 1_555
C8_9 C7_9 1_555 1_555
H4_9 C8_9 1_555 1_555
C9_9 N4_9 1_555 1_555
H5_9 C9_9 1_555 1_555
C10_9 C6_9 1_555 1_555
H6_9 C10_9 1_555 1_555
C11_9 C5_9 1_555 1_555
C12_9 C11_9 1_555 1_555
H7_9 C12_9 1_555 1_555
C3_9 C4_9 1_555 1_555
C9_9 C10_9 1_555 1_555
H21_9 C37_9 1_555 1_555
C38_9 C37_9 1_555 1_555
H22_9 C38_9 1_555 1_555
N8_8 C28_8 1_555 1_555
C22_8 C21_8 1_555 1_555
H13_8 C22_8 1_555 1_555
C23_8 C22_8 1_555 1_555
H14_8 C23_8 1_555 1_555
C24_8 N6_8 1_555 1_555
C25_8 C24_8 1_555 1_555
C26_8 C25_8 1_555 1_555
C27_8 C26_8 1_555 1_555
H15_8 C27_8 1_555 1_555
C28_8 C27_8 1_555 1_555
H16_8 C28_8 1_555 1_555
C29_8 N8_8 1_555 1_555
H17_8 C29_8 1_555 1_555
C30_8 C26_8 1_555 1_555
H18_8 C30_8 1_555 1_555
C32_8 C31_8 1_555 1_555
H19_8 C32_8 1_555 1_555
N6_8 C21_8 1_555 1_555
C23_8 C24_8 1_555 1_555
C25_8 C31_8 1_555 1_555
C29_8 C30_8 1_555 1_555
H9_8 C17_8 1_555 1_555
C18_8 C17_8 1_555 1_555
H10_8 C18_8 1_555 1_555
H9_9 C17_9 1_555 1_555
C18_9 C17_9 1_555 1_555
H10_9 C18_9 1_555 1_555
N8_9 C28_9 1_555 1_555
C22_9 C21_9 1_555 1_555
H13_9 C22_9 1_555 1_555
C23_9 C22_9 1_555 1_555
H14_9 C23_9 1_555 1_555
C24_9 N6_9 1_555 1_555
C25_9 C24_9 1_555 1_555
C26_9 C25_9 1_555 1_555
C27_9 C26_9 1_555 1_555
H15_9 C27_9 1_555 1_555
C28_9 C27_9 1_555 1_555
H16_9 C28_9 1_555 1_555
C29_9 N8_9 1_555 1_555
H17_9 C29_9 1_555 1_555
C30_9 C26_9 1_555 1_555
H18_9 C30_9 1_555 1_555
C32_9 C31_9 1_555 1_555
H19_9 C32_9 1_555 1_555
N6_9 C21_9 1_555 1_555
C23_9 C24_9 1_555 1_555
C25_9 C31_9 1_555 1_555
C29_9 C30_9 1_555 1_555

#END
