
###############################################################################
#
# This file contains modified crystal structure data generated from the
# MOF subset of the Cambridge Structural Database (CSD) v543 
# hosted by the Cambridge Crystallographic Data Centre (CCDC).
#
# This work is licensed under the Creative Commons
# Attribution-NonCommercial-ShareAlike 4.0 International License.
# To view a copy of this license, visit
# http://creativecommons.org/licenses/by-nc-sa/4.0/
# or send a letter to
# Creative Commons, PO Box 1866, Mountain View, CA 94042, USA.
#
# CIF created using the CSD Python API on 29 September 2022
# The structure has been converted into the P1 space group
# The structure has a 3D framework
# The original CSD entry YURKEC is in the monoclinic crystal system
# The framework has been calculated to contain at least 10.0% void space
# The void calculation uses a probe of radius 1.32A, grid spacing 0.4
#
###############################################################################

data_YURKEC
_chemical_formula_moiety         '(C216 H184 La8 N16 O84 S12)n'
_symmetry_cell_setting           triclinic
_symmetry_space_group_name_H-M   'P 1'
_symmetry_Int_Tables_number      1
_space_group_name_Hall           'P 1'
loop_
_symmetry_equiv_pos_site_id
_symmetry_equiv_pos_as_xyz
1 x,y,z
_cell_length_a                   19.5011(13)
_cell_length_b                   16.7853(12)
_cell_length_c                   24.2950(17)
_cell_angle_alpha                90
_cell_angle_beta                 112.891(2)
_cell_angle_gamma                90
_cell_volume                     7326.24
loop_
_atom_site_label
_atom_site_type_symbol
_atom_site_fract_x
_atom_site_fract_y
_atom_site_fract_z
La3 La 0.613202(17) 0.01580(2) 0.531491(15)
La1 La 0.113202(17) 0.48420(2) 0.031491(15)
S1 S 0.10346(8) 0.76244(11) 0.30154(7)
S3 S 0.33319(10) 0.70654(12) 0.27047(9)
O2 O 0.3496(2) 0.4707(3) 0.06934(19)
O3 O 0.1217(2) 0.5957(3) 0.1099(2)
O4 O 0.2462(2) 0.5124(4) 0.0796(2)
O8 O 0.3037(3) 0.7776(4) 0.2355(3)
O11 O 0.1630(6) 0.3459(4) 0.0241(3)
O12 O 0.2866(4) 0.6665(5) 0.2951(4)
O14 O 0.1423(3) 0.8298(4) 0.2910(3)
O16 O 0.5956(5) 0.8770(4) 0.4818(3)
O18 O 0.1455(3) 0.7067(4) 0.3470(2)
O19 O 0.0097(2) 0.5393(4) 0.0674(2)
O20 O 0.1560(3) 0.4345(3) 0.1399(2)
O21 O 0.4699(5) 0.8741(6) 0.4661(3)
N1 N 0.2242(3) 0.4591(4) 0.2382(3)
N2 N 0.1641(4) 0.2129(4) 0.0299(3)
H9 H 0.0531 0.2190 0.0051
C4 C 0.3159(3) 0.5080(4) 0.0959(3)
C6 C 0.3609(3) 0.5511(4) 0.1525(3)
C7 C 0.4386(3) 0.5448(4) 0.1784(3)
H13 H 0.4627 0.5133 0.1600
H17 H 0.4194 0.2467 0.0143
C15 C 0.4807(3) 0.5847(4) 0.2312(3)
H21 H 0.5321 0.5785 0.2484
C17 C 0.5519(4) 0.6958(4) 0.3494(3)
H22 H 0.5894 0.6684 0.3427
C19 C 0.0220(3) 0.7935(4) 0.3117(3)
C23 C 0.4450(3) 0.6338(4) 0.2578(3)
C25 C 0.0798(3) 0.6730(4) 0.1965(3)
H25 H 0.1307 0.6718 0.2055
C26 C 0.5133(5) 0.7906(4) 0.4082(3)
C28 C 0.3243(3) 0.5997(4) 0.1792(3)
H27 H 0.2728 0.6051 0.1626
C29 C 0.0203(3) 0.8409(4) 0.3572(3)
H28 H 0.0637 0.8604 0.3867
C31 C 0.4778(3) 0.6841(4) 0.3121(3)
C34 C 0.0298(4) 0.6357(5) 0.1457(3)
C36 C 0.1895(4) 0.2851(5) 0.0459(4)
H31 H 0.2345 0.2886 0.0787
C38 C 0.0516(3) 0.7121(4) 0.2335(3)
C40 C 0.3669(3) 0.6392(4) 0.2307(3)
C41 C 0.4231(4) 0.7260(4) 0.3246(3)
C43 C 0.1859(10) 0.1410(9) 0.0624(8)
H32 H 0.1551 0.0982 0.0398
H33 H 0.1805 0.1460 0.0998
H34 H 0.2370 0.1299 0.0696
C44 C 0.5298(7) 0.8533(5) 0.4553(3)
C45 C 0.2953(5) 0.4553(6) 0.2882(3)
H35 H 0.2897 0.4732 0.3237
H36 H 0.3304 0.4888 0.2804
H37 H 0.3131 0.4014 0.2936
C47 C 0.1626(4) 0.4842(7) 0.2526(4)
H39 H 0.1802 0.4971 0.2943
H40 H 0.1267 0.4420 0.2436
H41 H 0.1399 0.5304 0.2293
C48 C 0.5696(4) 0.7490(4) 0.3967(3)
H42 H 0.6192 0.7574 0.4213
C50 C 0.2168(4) 0.4375(4) 0.1839(3)
H44 H 0.2596 0.4237 0.1780
C52 C 0.0560(4) 0.5884(5) 0.1049(3)
C53 C 0.4388(5) 0.7777(4) 0.3715(3)
H46 H 0.4009 0.8036 0.3786
La5 La 0.386798(17) 0.98420(2) 0.468509(15)
La8 La 0.117555(18) 0.97805(3) 0.519118(16)
O23 O 0.4233(3) 0.6082(3) 0.0360(2)
O25 O 0.5082(3) 0.4577(4) 0.0659(3)
O29 O 0.0301(5) 0.3741(6) 0.0339(3)
La2 La 0.382445(18) 0.47805(3) 0.980882(16)
S2 S 0.17717(8) 0.69600(11) 0.73703(8)
O1 O 0.1541(2) 0.4833(3) 0.94832(19)
O6 O 0.2577(3) 0.5379(5) 0.9453(3)
O9 O 0.2208(3) 0.7631(4) 0.7692(3)
O13 O 0.0393(4) 0.8739(5) 0.5412(4)
O15 O 0.3503(6) 0.3281(6) 0.9956(6)
O17 O 0.2112(3) 0.6438(4) 0.7080(3)
O22 O 0.3150(8) 0.4270(8) 0.8735(3)
N3 N 0.2604(5) 0.4437(6) 0.7737(3)
N4 N 0.3251(7) 0.2038(8) 0.9562(5)
C1 C 0.1843(7) 0.4328(9) 0.7371(7)
H1 H 0.1768 0.4409 0.6960
H2 H 0.1549 0.4705 0.7482
H3 H 0.1695 0.3797 0.7422
C2 C 0.2571(6) 0.2412(8) 0.9020(6)
H4 H 0.2529 0.2968 0.9094
H5 H 0.2120 0.2144 0.8982
H6 H 0.2653 0.2350 0.8657
C3 C 0.0866(13) 0.1972(14) 0.9887(11)
H7 H 0.0789 0.1408 0.9834
H8 H 0.0775 0.2217 0.9508
C5 C 0.3472(10) 0.1266(9) 0.9530(8)
H10 H 0.3075 0.0982 0.9227
H11 H 0.3591 0.1009 0.9909
H12 H 0.3903 0.1268 0.9431
C8 C 0.0621(3) 0.6441(4) 0.7573(3)
C10 C 0.1445(3) 0.5644(4) 0.8647(3)
C11 C 0.0256(3) 0.6040(4) 0.7874(3)
C13 C 0.3702(8) 0.2603(9) 0.9916(6)
C14 C 0.3095(8) 0.4642(10) 0.7436(10)
H18 H 0.2812 0.4670 0.7013
H19 H 0.3474 0.4243 0.7518
H20 H 0.3323 0.5150 0.7577
C20 C 0.0663(3) 0.5635(4) 0.8405(3)
H23 H 0.0412 0.5355 0.8600
C21 C 0.0320(3) 0.6942(4) 0.7030(3)
C30 C 0.1825(3) 0.6029(4) 0.8343(3)
H29 H 0.2342 0.6026 0.8490
C32 C 0.0012(4) 0.7993(5) 0.6067(3)
C33 C 0.1413(3) 0.6416(4) 0.7816(3)
C42 C 0.0881(3) 0.7267(4) 0.6873(3)
C46 C 0.2647(10) 0.4279(11) 0.8304(7)
H38 H 0.2197 0.4162 0.8335
C49 C 0.0749(4) 0.7780(5) 0.6400(3)
H43 H 0.1136 0.7976 0.6307
C54 C 0.1871(4) 0.5261(5) 0.9239(3)
O24 O 0.3779(3) 0.5858(4) 0.9058(3)
O26 O 0.4607(4) 0.3739(5) 0.9588(4)
O27 O 0.0956(5) 0.6230(4) 0.9818(3)
La7 La 0.882445(18) 0.02195(3) 0.480882(16)
O7 O 0.8779(3) 0.9142(4) 0.4058(3)
O10 O 0.9918(3) 0.9577(4) 0.4341(3)
C12 C 0.8893(4) 0.7807(5) 0.2661(3)
H16 H 0.8461 0.7608 0.2365
C16 C 0.9757(3) 0.7179(4) 0.2209(3)
C18 C 0.9500(3) 0.8588(4) 0.3570(3)
C22 C 0.9585(3) 0.7640(4) 0.2654(3)
C27 C 0.9256(3) 0.6816(5) 0.1693(3)
H26 H 0.8747 0.6846 0.1600
C35 C 0.8860(4) 0.8279(5) 0.3119(3)
H30 H 0.8398 0.8395 0.3127
C39 C 0.9401(3) 0.9119(5) 0.4031(3)
C51 C 0.9525(4) 0.6409(5) 0.1320(3)
H45 H 0.9191 0.6168 0.0976
O5 O 0.9233(3) 0.8918(3) 0.5360(2)
C9 C 0.9588(3) 0.7141(4) 0.6688(3)
H14 H 0.9201 0.6923 0.6772
H15 H 0.9738 0.6039 0.7725
C24 C 0.9440(3) 0.7678(4) 0.6212(3)
H24 H 0.8951 0.7828 0.5988
C37 C 0.9871(4) 0.8615(5) 0.5584(4)
La4 La 0.886798(17) 0.51580(2) 0.968509(15)
O28 O 0.9903(2) 0.4607(4) 0.9326(2)
La6 La 0.617555(18) 0.52195(3) 0.019118(16)
S1_2 S 0.39654(8) 0.26244(11) 0.19846(7)
S2_2 S 0.32283(8) 0.19600(11) 0.76297(8)
S3_2 S 0.16681(10) 0.20654(12) 0.22953(9)
O3_2 O 0.3783(2) 0.0957(3) 0.3901(2)
O4_2 O 0.2538(2) 0.0124(4) 0.4204(2)
O5_2 O 0.5767(3) 0.3918(3) 0.9640(2)
O6_2 O 0.2423(3) 0.0379(5) 0.5547(3)
O7_2 O 0.6221(3) 0.4142(4) 0.0942(3)
O8_2 O 0.1963(3) 0.2776(4) 0.2645(3)
O9_2 O 0.2792(3) 0.2631(4) 0.7308(3)
O12_2 O 0.2134(4) 0.1665(5) 0.2049(4)
O14_2 O 0.3577(3) 0.3298(4) 0.2090(3)
O17_2 O 0.2888(3) 0.1438(4) 0.7920(3)
O18_2 O 0.3545(3) 0.2067(4) 0.1530(2)
O19_2 O 0.4903(2) 0.0393(4) 0.4326(2)
C4_2 C 0.1841(3) 0.0080(4) 0.4041(3)
C6_2 C 0.1391(3) 0.0511(4) 0.3475(3)
C7_2 C 0.0614(3) 0.0448(4) 0.3216(3)
H13_2 H 0.0373 0.0133 0.3400
C8_2 C 0.4379(3) 0.1441(4) 0.7427(3)
C9_2 C 0.5412(3) 0.2141(4) 0.8312(3)
H14_2 H 0.5799 0.1923 0.8228
C10_2 C 0.3555(3) 0.0644(4) 0.6353(3)
C11_2 C 0.4744(3) 0.1040(4) 0.7126(3)
H15_2 H 0.5262 0.1039 0.7275
C12_2 C 0.6107(4) 0.2807(5) 0.2339(3)
H16_2 H 0.6539 0.2608 0.2635
H20_2 H 0.1677 0.0150 0.7423
C15_2 C 0.0193(3) 0.0847(4) 0.2688(3)
C16_2 C 0.5243(3) 0.2179(4) 0.2791(3)
C18_2 C 0.5500(3) 0.3588(4) 0.1430(3)
C19_2 C 0.4780(3) 0.2935(4) 0.1883(3)
C20_2 C 0.4337(3) 0.0635(4) 0.6595(3)
H23_2 H 0.4588 0.0355 0.6400
C21_2 C 0.4680(3) 0.1942(4) 0.7970(3)
C22_2 C 0.5415(3) 0.2640(4) 0.2346(3)
C23_2 C 0.0550(3) 0.1338(4) 0.2422(3)
C24_2 C 0.5560(3) 0.2678(4) 0.8788(3)
H24_2 H 0.6049 0.2828 0.9012
C25_2 C 0.4202(3) 0.1730(4) 0.3035(3)
H25_2 H 0.3693 0.1718 0.2945
C27_2 C 0.5744(3) 0.1816(5) 0.3307(3)
H26_2 H 0.6253 0.1846 0.3400
C28_2 C 0.1757(3) 0.0997(4) 0.3208(3)
H27_2 H 0.2272 0.1051 0.3374
C29_2 C 0.4797(3) 0.3409(4) 0.1428(3)
H28_2 H 0.4363 0.3604 0.1133
C30_2 C 0.3175(3) 0.1029(4) 0.6657(3)
H29_2 H 0.2658 0.1026 0.6510
C31_2 C 0.0222(3) 0.1841(4) 0.1879(3)
C32_2 C 0.4988(4) 0.2993(5) 0.8933(3)
C33_2 C 0.3587(3) 0.1416(4) 0.7184(3)
C34_2 C 0.4702(4) 0.1357(5) 0.3543(3)
C35_2 C 0.6140(4) 0.3279(5) 0.1881(3)
H30_2 H 0.6602 0.3395 0.1873
C37_2 C 0.5129(4) 0.3615(5) 0.9416(4)
C38_2 C 0.4484(3) 0.2121(4) 0.2665(3)
C39_2 C 0.5599(3) 0.4119(5) 0.0969(3)
C40_2 C 0.1331(3) 0.1392(4) 0.2693(3)
C41_2 C 0.0769(4) 0.2260(4) 0.1754(3)
C42_2 C 0.4119(3) 0.2267(4) 0.8127(3)
H41_2 H 0.3601 0.0304 0.2707
C49_2 C 0.4251(4) 0.2780(5) 0.8600(3)
H43_2 H 0.3864 0.2976 0.8693
C51_2 C 0.5475(4) 0.1409(5) 0.3680(3)
H45_2 H 0.5809 0.1168 0.4024
C52_2 C 0.4440(4) 0.0884(5) 0.3951(3)
C53_2 C 0.0612(5) 0.2777(4) 0.1285(3)
H46_2 H 0.0991 0.3036 0.1214
C54_2 C 0.3129(4) 0.0261(5) 0.5761(3)
O23_2 O 0.0767(3) 0.1082(3) 0.4640(2)
O24_2 O 0.1221(3) 0.0858(4) 0.5942(3)
O27_2 O 0.4044(5) 0.1230(4) 0.5182(3)
O1_2 O 0.3459(2) 0.9833(3) 0.55168(19)
O2_2 O 0.1504(2) 0.9707(3) 0.43066(19)
O11_2 O 0.3370(6) 0.8459(4) 0.4759(3)
O15_2 O 0.1497(6) 0.8281(6) 0.5044(6)
O20_2 O 0.3440(3) 0.9345(3) 0.3601(2)
O22_2 O 0.1850(8) 0.9270(8) 0.6265(3)
N1_2 N 0.2758(3) 0.9591(4) 0.2618(3)
N2_2 N 0.3359(4) 0.7129(4) 0.4701(3)
N3_2 N 0.2396(5) 0.9437(6) 0.7263(3)
N4_2 N 0.1749(7) 0.7038(8) 0.5438(5)
C1_2 C 0.3157(7) 0.9328(9) 0.7629(7)
H1_2 H 0.3232 0.9409 0.8040
H2_2 H 0.3451 0.9705 0.7518
H3_2 H 0.3305 0.8797 0.7578
C2_2 C 0.2429(6) 0.7412(8) 0.5980(6)
H4_2 H 0.2471 0.7968 0.5906
H5_2 H 0.2880 0.7144 0.6018
H6_2 H 0.2347 0.7350 0.6343
C3_2 C 0.4134(13) 0.6972(14) 0.5113(11)
H7_2 H 0.4211 0.6408 0.5166
H8_2 H 0.4225 0.7217 0.5492
H9_2 H 0.4469 0.7190 0.4949
C5_2 C 0.1528(10) 0.6266(9) 0.5470(8)
H10_2 H 0.1925 0.5982 0.5773
H11_2 H 0.1409 0.6009 0.5091
H12_2 H 0.1097 0.6268 0.5569
C13_2 C 0.1298(8) 0.7603(9) 0.5084(6)
H17_2 H 0.0806 0.7467 0.4857
C14_2 C 0.1905(8) 0.9642(10) 0.7564(10)
H18_2 H 0.2188 0.9670 0.7987
H19_2 H 0.1526 0.9243 0.7482
C36_2 C 0.3105(4) 0.7851(5) 0.4541(4)
H31_2 H 0.2655 0.7886 0.4213
C43_2 C 0.3141(10) 0.6410(9) 0.4376(8)
H32_2 H 0.3449 0.5982 0.4602
H33_2 H 0.3195 0.6460 0.4002
H34_2 H 0.2630 0.6299 0.4304
C45_2 C 0.2047(5) 0.9553(6) 0.2118(3)
H35_2 H 0.2103 0.9732 0.1763
H36_2 H 0.1696 0.9888 0.2196
H37_2 H 0.1869 0.9014 0.2064
C46_2 C 0.2353(10) 0.9279(11) 0.6696(7)
H38_2 H 0.2803 0.9162 0.6665
C47_2 C 0.3374(4) 0.9842(7) 0.2474(4)
H39_2 H 0.3198 0.9971 0.2057
H40_2 H 0.3733 0.9420 0.2564
C50_2 C 0.2832(4) 0.9375(4) 0.3161(3)
H44_2 H 0.2404 0.9237 0.3220
O28_2 O 0.5097(2) 0.9607(4) 0.5674(2)
O16_2 O 0.9044(5) 0.3770(4) 0.0182(3)
H21_2 H 0.9679 0.0785 0.2516
C17_2 C 0.9481(4) 0.1958(4) 0.1506(3)
H22_2 H 0.9106 0.1684 0.1573
C26_2 C 0.9867(5) 0.2906(4) 0.0918(3)
C44_2 C 0.9702(7) 0.3533(5) 0.0447(3)
C48_2 C 0.9304(4) 0.2490(4) 0.1033(3)
H42_2 H 0.8808 0.2574 0.0787
C9_3 C 0.0412(3) 0.2859(4) 0.3312(3)
H14_3 H 0.0799 0.3077 0.3228
H15_3 H 0.0262 0.3961 0.2275
C24_3 C 0.0560(3) 0.2322(4) 0.3788(3)
H24_3 H 0.1049 0.2172 0.4012
C37_3 C 0.0129(4) 0.1385(5) 0.4416(4)
O10_2 O 0.0082(3) 0.0423(4) 0.5659(3)
C12_3 C 0.1107(4) 0.2193(5) 0.7339(3)
H16_3 H 0.1539 0.2392 0.7635
C16_3 C 0.0243(3) 0.2821(4) 0.7791(3)
C18_3 C 0.0500(3) 0.1412(4) 0.6430(3)
C22_3 C 0.0415(3) 0.2360(4) 0.7346(3)
C27_3 C 0.0744(3) 0.3184(5) 0.8307(3)
H26_3 H 0.1253 0.3154 0.8400
C35_3 C 0.1140(4) 0.1721(5) 0.6881(3)
H30_3 H 0.1602 0.1605 0.6873
C39_3 C 0.0599(3) 0.0881(5) 0.5969(3)
C51_3 C 0.0475(4) 0.3591(5) 0.8680(3)
H45_3 H 0.0809 0.3832 0.9024
S2_3 S 0.82283(8) 0.30400(11) 0.26297(8)
O1_3 O 0.8459(2) 0.5167(3) 0.05168(19)
O6_3 O 0.7423(3) 0.4621(5) 0.0547(3)
O9_3 O 0.7792(3) 0.2369(4) 0.2308(3)
O13_2 O 0.9607(4) 0.1261(5) 0.4588(4)
O15_3 O 0.6497(6) 0.6719(6) 0.0044(6)
O17_3 O 0.7888(3) 0.3562(4) 0.2920(3)
O22_3 O 0.6850(8) 0.5730(8) 0.1265(3)
N3_3 N 0.7396(5) 0.5563(6) 0.2263(3)
N4_3 N 0.6749(7) 0.7962(8) 0.0438(5)
C1_3 C 0.8157(7) 0.5672(9) 0.2629(7)
H1_3 H 0.8232 0.5591 0.3040
H2_3 H 0.8451 0.5295 0.2518
H3_3 H 0.8305 0.6203 0.2578
C2_3 C 0.7429(6) 0.7588(8) 0.0980(6)
H4_3 H 0.7471 0.7032 0.0906
H5_3 H 0.7880 0.7856 0.1018
H6_3 H 0.7347 0.7650 0.1343
C3_3 C 0.9134(13) 0.8028(14) 0.0113(11)
H7_3 H 0.9211 0.8592 0.0166
H8_3 H 0.9225 0.7783 0.0492
C5_3 C 0.6528(10) 0.8734(9) 0.0470(8)
H10_3 H 0.6925 0.9018 0.0773
H11_3 H 0.6409 0.8991 0.0091
H12_3 H 0.6097 0.8732 0.0569
C8_3 C 0.9379(3) 0.3559(4) 0.2427(3)
C10_3 C 0.8555(3) 0.4356(4) 0.1353(3)
C11_3 C 0.9744(3) 0.3960(4) 0.2126(3)
C13_3 C 0.6298(8) 0.7397(9) 0.0084(6)
C14_3 C 0.6905(8) 0.5358(10) 0.2564(10)
H18_3 H 0.7188 0.5330 0.2987
H19_3 H 0.6526 0.5757 0.2482
H20_3 H 0.6677 0.4850 0.2423
C20_3 C 0.9337(3) 0.4365(4) 0.1595(3)
H23_3 H 0.9588 0.4645 0.1400
C21_3 C 0.9680(3) 0.3058(4) 0.2970(3)
C30_3 C 0.8175(3) 0.3971(4) 0.1657(3)
H29_3 H 0.7658 0.3974 0.1510
C32_3 C 0.9988(4) 0.2007(5) 0.3933(3)
C33_3 C 0.8587(3) 0.3584(4) 0.2184(3)
C42_3 C 0.9119(3) 0.2733(4) 0.3127(3)
C46_3 C 0.7353(10) 0.5721(11) 0.1696(7)
H38_3 H 0.7803 0.5838 0.1665
C49_3 C 0.9251(4) 0.2220(5) 0.3600(3)
H43_3 H 0.8864 0.2024 0.3693
C54_3 C 0.8129(4) 0.4739(5) 0.0761(3)
O26_2 O 0.5393(4) 0.6261(5) 0.0412(4)
S1_3 S 0.89654(8) 0.23756(11) 0.69846(7)
S3_3 S 0.66681(10) 0.29346(12) 0.72953(9)
O2_3 O 0.6504(2) 0.5293(3) 0.93066(19)
O3_3 O 0.8783(2) 0.4043(3) 0.8901(2)
O4_3 O 0.7538(2) 0.4876(4) 0.9204(2)
O8_3 O 0.6963(3) 0.2224(4) 0.7645(3)
O11_3 O 0.8370(6) 0.6541(4) 0.9759(3)
O12_3 O 0.7134(4) 0.3335(5) 0.7049(4)
O14_3 O 0.8577(3) 0.1702(4) 0.7090(3)
O18_3 O 0.8545(3) 0.2933(4) 0.6530(2)
O20_3 O 0.8440(3) 0.5655(3) 0.8601(2)
O21_2 O 0.5301(5) 0.1259(6) 0.5339(3)
N1_3 N 0.7758(3) 0.5409(4) 0.7618(3)
N2_3 N 0.8359(4) 0.7871(4) 0.9701(3)
H9_3 H 0.9469 0.7810 0.9949
C4_3 C 0.6841(3) 0.4920(4) 0.9041(3)
C6_3 C 0.6391(3) 0.4489(4) 0.8475(3)
C7_3 C 0.5614(3) 0.4552(4) 0.8216(3)
H13_3 H 0.5373 0.4867 0.8400
H17_3 H 0.5806 0.7533 0.9857
C15_3 C 0.5193(3) 0.4153(4) 0.7688(3)
H21_3 H 0.4679 0.4215 0.7516
C17_3 C 0.4481(4) 0.3042(4) 0.6506(3)
H22_3 H 0.4106 0.3316 0.6573
C19_3 C 0.9780(3) 0.2065(4) 0.6883(3)
C23_3 C 0.5550(3) 0.3662(4) 0.7422(3)
C25_3 C 0.9202(3) 0.3270(4) 0.8035(3)
H25_3 H 0.8693 0.3282 0.7945
C26_3 C 0.4867(5) 0.2094(4) 0.5918(3)
C28_3 C 0.6757(3) 0.4003(4) 0.8208(3)
H27_3 H 0.7272 0.3949 0.8374
C29_3 C 0.9797(3) 0.1591(4) 0.6428(3)
H28_3 H 0.9363 0.1396 0.6133
C31_3 C 0.5222(3) 0.3159(4) 0.6879(3)
C34_3 C 0.9702(4) 0.3643(5) 0.8543(3)
C36_3 C 0.8105(4) 0.7149(5) 0.9541(4)
H31_3 H 0.7655 0.7114 0.9213
C38_3 C 0.9484(3) 0.2879(4) 0.7665(3)
C40_3 C 0.6331(3) 0.3608(4) 0.7693(3)
C41_3 C 0.5769(4) 0.2740(4) 0.6754(3)
C43_3 C 0.8141(10) 0.8590(9) 0.9376(8)
H32_3 H 0.8449 0.9018 0.9602
H33_3 H 0.8195 0.8540 0.9002
H34_3 H 0.7630 0.8701 0.9304
C44_3 C 0.4702(7) 0.1467(5) 0.5447(3)
C45_3 C 0.7047(5) 0.5447(6) 0.7118(3)
H35_3 H 0.7103 0.5268 0.6763
H36_3 H 0.6696 0.5112 0.7196
H37_3 H 0.6869 0.5986 0.7064
C47_3 C 0.8374(4) 0.5158(7) 0.7474(4)
H39_3 H 0.8198 0.5029 0.7057
H40_3 H 0.8733 0.5580 0.7564
H41_3 H 0.8601 0.4696 0.7707
C48_3 C 0.4304(4) 0.2510(4) 0.6033(3)
H42_3 H 0.3808 0.2426 0.5787
C50_3 C 0.7832(4) 0.5625(4) 0.8161(3)
H44_3 H 0.7404 0.5763 0.8220
C52_3 C 0.9440(4) 0.4116(5) 0.8951(3)
C53_3 C 0.5612(5) 0.2223(4) 0.6285(3)
H46_3 H 0.5991 0.1964 0.6214
O25_2 O 0.4918(3) 0.5423(4) 0.9341(3)
O29_2 O 0.9699(5) 0.6259(6) 0.9661(3)
H21_4 H 0.0321 0.9215 0.7484
C17_4 C 0.0519(4) 0.8042(4) 0.8494(3)
H22_4 H 0.0894 0.8316 0.8427
C26_4 C 0.0133(5) 0.7094(4) 0.9082(3)
C44_4 C 0.0298(7) 0.6467(5) 0.9553(3)
C48_4 C 0.0696(4) 0.7510(4) 0.8967(3)
H42_4 H 0.1192 0.7426 0.9213
O1_4 O 0.6541(2) 0.0167(3) 0.44832(19)
O2_4 O 0.8496(2) 0.0293(3) 0.56934(19)
O11_4 O 0.6630(6) 0.1541(4) 0.5241(3)
O15_4 O 0.8503(6) 0.1719(6) 0.4956(6)
O20_4 O 0.6560(3) 0.0655(3) 0.6399(2)
O22_4 O 0.8150(8) 0.0730(8) 0.3735(3)
N1_4 N 0.7242(3) 0.0409(4) 0.7382(3)
N2_4 N 0.6641(4) 0.2871(4) 0.5299(3)
N3_4 N 0.7604(5) 0.0563(6) 0.2737(3)
N4_4 N 0.8251(7) 0.2962(8) 0.4562(5)
C1_4 C 0.6843(7) 0.0672(9) 0.2371(7)
H1_4 H 0.6768 0.0591 0.1960
H2_4 H 0.6549 0.0295 0.2482
H3_4 H 0.6695 0.1203 0.2422
C2_4 C 0.7571(6) 0.2588(8) 0.4020(6)
H4_4 H 0.7529 0.2032 0.4094
H5_4 H 0.7120 0.2856 0.3982
H6_4 H 0.7653 0.2650 0.3657
C3_4 C 0.5866(13) 0.3028(14) 0.4887(11)
H7_4 H 0.5789 0.3592 0.4834
H8_4 H 0.5775 0.2783 0.4508
H9_4 H 0.5531 0.2810 0.5051
C5_4 C 0.8472(10) 0.3734(9) 0.4530(8)
H10_4 H 0.8075 0.4018 0.4227
H11_4 H 0.8591 0.3991 0.4909
H12_4 H 0.8903 0.3732 0.4431
C13_4 C 0.8702(8) 0.2397(9) 0.4916(6)
H17_4 H 0.9194 0.2533 0.5143
C14_4 C 0.8095(8) 0.0358(10) 0.2436(10)
H18_4 H 0.7812 0.0330 0.2013
H19_4 H 0.8474 0.0757 0.2518
C36_4 C 0.6895(4) 0.2149(5) 0.5459(4)
H31_4 H 0.7345 0.2114 0.5787
C43_4 C 0.6859(10) 0.3590(9) 0.5624(8)
H32_4 H 0.6551 0.4018 0.5398
H33_4 H 0.6805 0.3540 0.5998
H34_4 H 0.7370 0.3701 0.5696
C45_4 C 0.7953(5) 0.0447(6) 0.7882(3)
H35_4 H 0.7897 0.0268 0.8237
H36_4 H 0.8304 0.0112 0.7804
H37_4 H 0.8131 0.0986 0.7936
C46_4 C 0.7647(10) 0.0721(11) 0.3304(7)
H38_4 H 0.7197 0.0838 0.3335
C47_4 C 0.6626(4) 0.0158(7) 0.7526(4)
H39_4 H 0.6802 0.0029 0.7943
H40_4 H 0.6267 0.0580 0.7436
C50_4 C 0.7168(4) 0.0625(4) 0.6839(3)
H44_4 H 0.7596 0.0763 0.6780
S1_4 S 0.60346(8) 0.73756(11) 0.80154(7)
S2_4 S 0.67717(8) 0.80400(11) 0.23703(8)
S3_4 S 0.83319(10) 0.79346(12) 0.77047(9)
O3_4 O 0.6217(2) 0.9043(3) 0.6099(2)
O4_4 O 0.7462(2) 0.9876(4) 0.5796(2)
O6_4 O 0.7577(3) 0.9621(5) 0.4453(3)
O8_4 O 0.8037(3) 0.7224(4) 0.7355(3)
O9_4 O 0.7208(3) 0.7369(4) 0.2692(3)
O12_4 O 0.7866(4) 0.8335(5) 0.7951(4)
O14_4 O 0.6423(3) 0.6702(4) 0.7910(3)
O17_4 O 0.7112(3) 0.8562(4) 0.2080(3)
O18_4 O 0.6455(3) 0.7933(4) 0.8470(2)
C4_4 C 0.8159(3) 0.9920(4) 0.5959(3)
C6_4 C 0.8609(3) 0.9489(4) 0.6525(3)
C7_4 C 0.9386(3) 0.9552(4) 0.6784(3)
H13_4 H 0.9627 0.9867 0.6600
C8_4 C 0.5621(3) 0.8559(4) 0.2573(3)
C9_4 C 0.4588(3) 0.7859(4) 0.1688(3)
H14_4 H 0.4201 0.8077 0.1772
C10_4 C 0.6445(3) 0.9356(4) 0.3647(3)
C11_4 C 0.5256(3) 0.8960(4) 0.2874(3)
H15_4 H 0.4738 0.8961 0.2725
C12_4 C 0.3893(4) 0.7193(5) 0.7661(3)
H16_4 H 0.3461 0.7392 0.7365
H20_4 H 0.8323 0.9850 0.2577
C15_4 C 0.9807(3) 0.9153(4) 0.7312(3)
C16_4 C 0.4757(3) 0.7821(4) 0.7209(3)
C18_4 C 0.4500(3) 0.6412(4) 0.8570(3)
C19_4 C 0.5220(3) 0.7065(4) 0.8117(3)
C20_4 C 0.5663(3) 0.9365(4) 0.3405(3)
H23_4 H 0.5412 0.9645 0.3600
C21_4 C 0.5320(3) 0.8058(4) 0.2030(3)
C22_4 C 0.4585(3) 0.7360(4) 0.7654(3)
C23_4 C 0.9450(3) 0.8662(4) 0.7578(3)
C24_4 C 0.4440(3) 0.7322(4) 0.1212(3)
H24_4 H 0.3951 0.7172 0.0988
C25_4 C 0.5798(3) 0.8270(4) 0.6965(3)
H25_4 H 0.6307 0.8282 0.7055
C27_4 C 0.4256(3) 0.8184(5) 0.6693(3)
H26_4 H 0.3747 0.8154 0.6600
C28_4 C 0.8243(3) 0.9003(4) 0.6792(3)
H27_4 H 0.7728 0.8949 0.6626
C29_4 C 0.5203(3) 0.6591(4) 0.8572(3)
H28_4 H 0.5637 0.6396 0.8867
C30_4 C 0.6825(3) 0.8971(4) 0.3343(3)
H29_4 H 0.7342 0.8974 0.3490
C31_4 C 0.9778(3) 0.8159(4) 0.8121(3)
C32_4 C 0.5012(4) 0.7007(5) 0.1067(3)
C33_4 C 0.6413(3) 0.8584(4) 0.2816(3)
C34_4 C 0.5298(4) 0.8643(5) 0.6457(3)
C35_4 C 0.3860(4) 0.6721(5) 0.8119(3)
H30_4 H 0.3398 0.6605 0.8127
C37_4 C 0.4871(4) 0.6385(5) 0.0584(4)
C38_4 C 0.5516(3) 0.7879(4) 0.7335(3)
C39_4 C 0.4401(3) 0.5881(5) 0.9031(3)
C40_4 C 0.8669(3) 0.8608(4) 0.7307(3)
C41_4 C 0.9231(4) 0.7740(4) 0.8246(3)
C42_4 C 0.5881(3) 0.7733(4) 0.1873(3)
H41_4 H 0.6399 0.9696 0.7293
C49_4 C 0.5749(4) 0.7220(5) 0.1400(3)
H43_4 H 0.6136 0.7024 0.1307
C51_4 C 0.4525(4) 0.8591(5) 0.6320(3)
H45_4 H 0.4191 0.8832 0.5976
C52_4 C 0.5560(4) 0.9116(5) 0.6049(3)
C53_4 C 0.9388(5) 0.7223(4) 0.8715(3)
H46_4 H 0.9009 0.6964 0.8786
C54_4 C 0.6871(4) 0.9739(5) 0.4239(3)
loop_
_geom_bond_atom_site_label_1
_geom_bond_atom_site_label_2
_geom_bond_site_symmetry_1
_geom_bond_site_symmetry_2
S1 O14 1_555 1_555
S3 O8 1_555 1_555
O2 C4 1_555 1_555
O3 La1 1_555 1_555
O4 La1 1_555 1_555
O11 La1 1_555 1_555
O12 S3 1_555 1_555
O16 C44 1_555 1_555
O18 S1 1_555 1_555
O19 La1 1_555 1_555
O20 La1 1_555 1_555
O21 C44 1_555 1_555
N1 C45 1_555 1_555
C4 O4 1_555 1_555
C6 C4 1_555 1_555
C7 C6 1_555 1_555
H13 C7 1_555 1_555
C15 C7 1_555 1_555
H21 C15 1_555 1_555
C17 H22 1_555 1_555
C19 S1 1_555 1_555
C23 C15 1_555 1_555
C25 H25 1_555 1_555
C26 C44 1_555 1_555
C28 C6 1_555 1_555
H27 C28 1_555 1_555
C29 C19 1_555 1_555
H28 C29 1_555 1_555
C31 C17 1_555 1_555
C34 C25 1_555 1_555
C36 O11 1_555 1_555
H31 C36 1_555 1_555
C38 S1 1_555 1_555
C40 S3 1_555 1_555
C41 S3 1_555 1_555
C43 N2 1_555 1_555
H32 C43 1_555 1_555
H33 C43 1_555 1_555
H34 C43 1_555 1_555
C45 H35 1_555 1_555
H36 C45 1_555 1_555
H37 C45 1_555 1_555
C47 N1 1_555 1_555
H39 C47 1_555 1_555
H40 C47 1_555 1_555
H41 C47 1_555 1_555
C48 C17 1_555 1_555
H42 C48 1_555 1_555
C50 O20 1_555 1_555
H44 C50 1_555 1_555
C52 O3 1_555 1_555
C53 C26 1_555 1_555
H46 C53 1_555 1_555
La5 O21 1_555 1_555
O29 La1 1_555 1_555
O19 C52 1_555 1_555
N1 C50 1_555 1_555
N2 C36 1_555 1_555
C23 C31 1_555 1_555
C23 C40 1_555 1_555
C25 C38 1_555 1_555
C26 C48 1_555 1_555
C28 C40 1_555 1_555
C31 C41 1_555 1_555
C34 C52 1_555 1_555
C41 C53 1_555 1_555
S2 O9 1_555 1_555
O1 C54 1_555 1_555
O6 La2 1_555 1_555
O15 La2 1_555 1_555
O17 S2 1_555 1_555
O22 La2 1_555 1_555
N3 C1 1_555 1_555
N4 C2 1_555 1_555
C1 H1 1_555 1_555
H2 C1 1_555 1_555
H3 C1 1_555 1_555
C2 H4 1_555 1_555
H5 C2 1_555 1_555
H6 C2 1_555 1_555
C3 H7 1_555 1_555
H8 C3 1_555 1_555
C5 N4 1_555 1_555
H10 C5 1_555 1_555
H11 C5 1_555 1_555
H12 C5 1_555 1_555
C8 C11 1_555 1_555
C10 C20 1_555 1_555
C13 O15 1_555 1_555
C14 N3 1_555 1_555
H18 C14 1_555 1_555
H19 C14 1_555 1_555
H20 C14 1_555 1_555
C20 C11 1_555 1_555
H23 C20 1_555 1_555
C21 C8 1_555 1_555
C30 C10 1_555 1_555
H29 C30 1_555 1_555
C33 S2 1_555 1_555
C42 S2 1_555 1_555
C46 O22 1_555 1_555
H38 C46 1_555 1_555
C49 C32 1_555 1_555
H43 C49 1_555 1_555
C54 O6 1_555 1_555
La8 O13 1_555 1_555
O24 La2 1_555 1_555
O26 La2 1_555 1_555
N3 C46 1_555 1_555
N4 C13 1_555 1_555
C8 C33 1_555 1_555
C10 C54 1_555 1_555
C21 C42 1_555 1_555
C30 C33 1_555 1_555
C42 C49 1_555 1_555
O7 C39 1_555 1_555
O10 C39 1_555 1_555
C12 H16 1_555 1_555
C16 C22 1_555 1_555
C22 C12 1_555 1_555
C27 C16 1_555 1_555
H26 C27 1_555 1_555
C35 C12 1_555 1_555
H30 C35 1_555 1_555
C39 C18 1_555 1_555
C51 C27 1_555 1_555
H45 C51 1_555 1_555
C18 C35 1_555 1_555
O5 C37 1_555 1_555
C9 H14 1_555 1_555
C24 C9 1_555 1_555
H24 C24 1_555 1_555
La4 O28 1_555 1_555
S1_2 O14_2 1_555 1_555
S2_2 O9_2 1_555 1_555
S3_2 O8_2 1_555 1_555
O5_2 C37_2 1_555 1_555
O7_2 C39_2 1_555 1_555
O25 C39_2 1_555 1_555
O12_2 S3_2 1_555 1_555
O26 C37_2 1_555 1_555
O17_2 S2_2 1_555 1_555
O18_2 S1_2 1_555 1_555
C4_2 O4_2 1_555 1_555
C6_2 C4_2 1_555 1_555
C7_2 C6_2 1_555 1_555
H13_2 C7_2 1_555 1_555
C8_2 C11_2 1_555 1_555
C9_2 H14_2 1_555 1_555
C10_2 C20_2 1_555 1_555
C11_2 H15_2 1_555 1_555
C12_2 H16_2 1_555 1_555
C15_2 C7_2 1_555 1_555
C16_2 C22_2 1_555 1_555
C18_2 C29_2 1_555 1_555
C19_2 S1_2 1_555 1_555
C20_2 C11_2 1_555 1_555
H23_2 C20_2 1_555 1_555
C21_2 C8_2 1_555 1_555
C22_2 C12_2 1_555 1_555
C23_2 C15_2 1_555 1_555
C24_2 C9_2 1_555 1_555
H24_2 C24_2 1_555 1_555
C25_2 H25_2 1_555 1_555
C27_2 C16_2 1_555 1_555
H26_2 C27_2 1_555 1_555
C28_2 C6_2 1_555 1_555
H27_2 C28_2 1_555 1_555
C29_2 C19_2 1_555 1_555
H28_2 C29_2 1_555 1_555
C30_2 C10_2 1_555 1_555
H29_2 C30_2 1_555 1_555
C32_2 C24_2 1_555 1_555
C33_2 S2_2 1_555 1_555
C34_2 C25_2 1_555 1_555
C35_2 C12_2 1_555 1_555
H30_2 C35_2 1_555 1_555
C37_2 C32_2 1_555 1_555
C38_2 S1_2 1_555 1_555
C39_2 C18_2 1_555 1_555
C40_2 S3_2 1_555 1_555
C41_2 S3_2 1_555 1_555
C42_2 S2_2 1_555 1_555
C49_2 C32_2 1_555 1_555
H43_2 C49_2 1_555 1_555
C51_2 C27_2 1_555 1_555
H45_2 C51_2 1_555 1_555
C52_2 O3_2 1_555 1_555
H46_2 C53_2 1_555 1_555
C54_2 O6_2 1_555 1_555
La3 O19_2 1_555 1_555
La6 O7_2 1_555 1_555
O19_2 C52_2 1_555 1_555
C8_2 C33_2 1_555 1_555
C9_2 C21_2 1_555 1_555
C10_2 C54_2 1_555 1_555
C16_2 C38_2 1_555 1_555
C18_2 C35_2 1_555 1_555
C19_2 C22_2 1_555 1_555
C21_2 C42_2 1_555 1_555
C23_2 C31_2 1_555 1_555
C23_2 C40_2 1_555 1_555
C25_2 C38_2 1_555 1_555
C28_2 C40_2 1_555 1_555
C30_2 C33_2 1_555 1_555
C31_2 C41_2 1_555 1_555
C34_2 C51_2 1_555 1_555
C34_2 C52_2 1_555 1_555
C41_2 C53_2 1_555 1_555
C42_2 C49_2 1_555 1_555
La5 O1_2 1_555 1_555
La8 O2_2 1_555 1_555
O11_2 La5 1_555 1_555
O15_2 La8 1_555 1_555
O20_2 La5 1_555 1_555
O22_2 La8 1_555 1_555
N1_2 C45_2 1_555 1_555
N2_2 C3_2 1_555 1_555
N3_2 C1_2 1_555 1_555
N4_2 C2_2 1_555 1_555
C1_2 H1_2 1_555 1_555
H2_2 C1_2 1_555 1_555
H3_2 C1_2 1_555 1_555
C2_2 H4_2 1_555 1_555
H5_2 C2_2 1_555 1_555
H6_2 C2_2 1_555 1_555
C3_2 H7_2 1_555 1_555
H8_2 C3_2 1_555 1_555
H9_2 C3_2 1_555 1_555
C5_2 N4_2 1_555 1_555
H10_2 C5_2 1_555 1_555
H11_2 C5_2 1_555 1_555
H12_2 C5_2 1_555 1_555
C13_2 O15_2 1_555 1_555
H17_2 C13_2 1_555 1_555
C14_2 N3_2 1_555 1_555
H18_2 C14_2 1_555 1_555
H19_2 C14_2 1_555 1_555
C36_2 O11_2 1_555 1_555
H31_2 C36_2 1_555 1_555
C43_2 N2_2 1_555 1_555
H32_2 C43_2 1_555 1_555
H33_2 C43_2 1_555 1_555
H34_2 C43_2 1_555 1_555
C45_2 H35_2 1_555 1_555
H36_2 C45_2 1_555 1_555
H37_2 C45_2 1_555 1_555
C46_2 O22_2 1_555 1_555
H38_2 C46_2 1_555 1_555
C47_2 N1_2 1_555 1_555
H39_2 C47_2 1_555 1_555
H40_2 C47_2 1_555 1_555
C50_2 O20_2 1_555 1_555
H44_2 C50_2 1_555 1_555
O28_2 La5 1_555 1_555
N1_2 C50_2 1_555 1_555
N2_2 C36_2 1_555 1_555
N3_2 C46_2 1_555 1_555
N4_2 C13_2 1_555 1_555
O16_2 C44_2 1_555 1_555
C17_2 H22_2 1_555 1_555
C26_2 C44_2 1_555 1_555
C48_2 C17_2 1_555 1_555
H42_2 C48_2 1_555 1_555
C26_2 C48_2 1_555 1_555
O23_2 C37_3 1_555 1_555
C9_3 H14_3 1_555 1_555
C24_3 C9_3 1_555 1_555
H24_3 C24_3 1_555 1_555
O24_2 C39_3 1_555 1_555
O10_2 C39_3 1_555 1_555
C12_3 H16_3 1_555 1_555
C16_3 C22_3 1_555 1_555
C22_3 C12_3 1_555 1_555
C27_3 C16_3 1_555 1_555
H26_3 C27_3 1_555 1_555
C35_3 C12_3 1_555 1_555
H30_3 C35_3 1_555 1_555
C39_3 C18_3 1_555 1_555
C51_3 C27_3 1_555 1_555
H45_3 C51_3 1_555 1_555
C18_3 C35_3 1_555 1_555
S2_3 O9_3 1_555 1_555
O1_3 C54_3 1_555 1_555
O6_3 La6 1_555 1_555
O15_3 La6 1_555 1_555
O17_3 S2_3 1_555 1_555
O22_3 La6 1_555 1_555
N3_3 C1_3 1_555 1_555
N4_3 C2_3 1_555 1_555
C1_3 H1_3 1_555 1_555
H2_3 C1_3 1_555 1_555
H3_3 C1_3 1_555 1_555
C2_3 H4_3 1_555 1_555
H5_3 C2_3 1_555 1_555
H6_3 C2_3 1_555 1_555
C3_3 H7_3 1_555 1_555
H8_3 C3_3 1_555 1_555
C5_3 N4_3 1_555 1_555
H10_3 C5_3 1_555 1_555
H11_3 C5_3 1_555 1_555
H12_3 C5_3 1_555 1_555
C8_3 C11_3 1_555 1_555
C10_3 C20_3 1_555 1_555
C13_3 O15_3 1_555 1_555
C14_3 N3_3 1_555 1_555
H18_3 C14_3 1_555 1_555
H19_3 C14_3 1_555 1_555
H20_3 C14_3 1_555 1_555
C20_3 C11_3 1_555 1_555
H23_3 C20_3 1_555 1_555
C21_3 C8_3 1_555 1_555
C30_3 C10_3 1_555 1_555
H29_3 C30_3 1_555 1_555
C33_3 S2_3 1_555 1_555
C42_3 S2_3 1_555 1_555
C46_3 O22_3 1_555 1_555
H38_3 C46_3 1_555 1_555
C49_3 C32_3 1_555 1_555
H43_3 C49_3 1_555 1_555
C54_3 O6_3 1_555 1_555
La7 O13_2 1_555 1_555
O26_2 La6 1_555 1_555
N3_3 C46_3 1_555 1_555
N4_3 C13_3 1_555 1_555
C8_3 C33_3 1_555 1_555
C10_3 C54_3 1_555 1_555
C21_3 C42_3 1_555 1_555
C30_3 C33_3 1_555 1_555
C42_3 C49_3 1_555 1_555
S1_3 O14_3 1_555 1_555
S3_3 O8_3 1_555 1_555
O2_3 C4_3 1_555 1_555
O3_3 La4 1_555 1_555
O4_3 La4 1_555 1_555
O11_3 La4 1_555 1_555
O12_3 S3_3 1_555 1_555
O27_2 C44_3 1_555 1_555
O18_3 S1_3 1_555 1_555
O20_3 La4 1_555 1_555
O21_2 C44_3 1_555 1_555
N1_3 C45_3 1_555 1_555
C4_3 O4_3 1_555 1_555
C6_3 C4_3 1_555 1_555
C7_3 C6_3 1_555 1_555
H13_3 C7_3 1_555 1_555
C15_3 C7_3 1_555 1_555
H21_3 C15_3 1_555 1_555
C17_3 H22_3 1_555 1_555
C19_3 S1_3 1_555 1_555
C23_3 C15_3 1_555 1_555
C25_3 H25_3 1_555 1_555
C26_3 C44_3 1_555 1_555
C28_3 C6_3 1_555 1_555
H27_3 C28_3 1_555 1_555
C29_3 C19_3 1_555 1_555
H28_3 C29_3 1_555 1_555
C31_3 C17_3 1_555 1_555
C34_3 C25_3 1_555 1_555
C36_3 O11_3 1_555 1_555
H31_3 C36_3 1_555 1_555
C38_3 S1_3 1_555 1_555
C40_3 S3_3 1_555 1_555
C41_3 S3_3 1_555 1_555
C43_3 N2_3 1_555 1_555
H32_3 C43_3 1_555 1_555
H33_3 C43_3 1_555 1_555
H34_3 C43_3 1_555 1_555
C45_3 H35_3 1_555 1_555
H36_3 C45_3 1_555 1_555
H37_3 C45_3 1_555 1_555
C47_3 N1_3 1_555 1_555
H39_3 C47_3 1_555 1_555
H40_3 C47_3 1_555 1_555
H41_3 C47_3 1_555 1_555
C48_3 C17_3 1_555 1_555
H42_3 C48_3 1_555 1_555
C50_3 O20_3 1_555 1_555
H44_3 C50_3 1_555 1_555
C52_3 O3_3 1_555 1_555
C53_3 C26_3 1_555 1_555
H46_3 C53_3 1_555 1_555
La3 O21_2 1_555 1_555
O29_2 La4 1_555 1_555
O28 C52_3 1_555 1_555
N1_3 C50_3 1_555 1_555
N2_3 C36_3 1_555 1_555
C23_3 C31_3 1_555 1_555
C23_3 C40_3 1_555 1_555
C25_3 C38_3 1_555 1_555
C26_3 C48_3 1_555 1_555
C28_3 C40_3 1_555 1_555
C31_3 C41_3 1_555 1_555
C34_3 C52_3 1_555 1_555
C41_3 C53_3 1_555 1_555
O27 C44_4 1_555 1_555
C17_4 H22_4 1_555 1_555
C26_4 C44_4 1_555 1_555
C48_4 C17_4 1_555 1_555
H42_4 C48_4 1_555 1_555
C26_4 C48_4 1_555 1_555
La3 O1_4 1_555 1_555
La7 O2_4 1_555 1_555
O11_4 La3 1_555 1_555
O15_4 La7 1_555 1_555
O20_4 La3 1_555 1_555
O22_4 La7 1_555 1_555
N1_4 C45_4 1_555 1_555
N2_4 C3_4 1_555 1_555
N3_4 C1_4 1_555 1_555
N4_4 C2_4 1_555 1_555
C1_4 H1_4 1_555 1_555
H2_4 C1_4 1_555 1_555
H3_4 C1_4 1_555 1_555
C2_4 H4_4 1_555 1_555
H5_4 C2_4 1_555 1_555
H6_4 C2_4 1_555 1_555
C3_4 H7_4 1_555 1_555
H8_4 C3_4 1_555 1_555
H9_4 C3_4 1_555 1_555
C5_4 N4_4 1_555 1_555
H10_4 C5_4 1_555 1_555
H11_4 C5_4 1_555 1_555
H12_4 C5_4 1_555 1_555
C13_4 O15_4 1_555 1_555
H17_4 C13_4 1_555 1_555
C14_4 N3_4 1_555 1_555
H18_4 C14_4 1_555 1_555
H19_4 C14_4 1_555 1_555
C36_4 O11_4 1_555 1_555
H31_4 C36_4 1_555 1_555
C43_4 N2_4 1_555 1_555
H32_4 C43_4 1_555 1_555
H33_4 C43_4 1_555 1_555
H34_4 C43_4 1_555 1_555
C45_4 H35_4 1_555 1_555
H36_4 C45_4 1_555 1_555
H37_4 C45_4 1_555 1_555
C46_4 O22_4 1_555 1_555
H38_4 C46_4 1_555 1_555
C47_4 N1_4 1_555 1_555
H39_4 C47_4 1_555 1_555
H40_4 C47_4 1_555 1_555
C50_4 O20_4 1_555 1_555
H44_4 C50_4 1_555 1_555
N1_4 C50_4 1_555 1_555
N2_4 C36_4 1_555 1_555
N3_4 C46_4 1_555 1_555
N4_4 C13_4 1_555 1_555
S1_4 O14_4 1_555 1_555
S2_4 O9_4 1_555 1_555
S3_4 O8_4 1_555 1_555
O23 C37_4 1_555 1_555
O24 C39_4 1_555 1_555
O25_2 C39_4 1_555 1_555
O12_4 S3_4 1_555 1_555
O26_2 C37_4 1_555 1_555
O17_4 S2_4 1_555 1_555
O18_4 S1_4 1_555 1_555
C4_4 O4_4 1_555 1_555
C6_4 C4_4 1_555 1_555
C7_4 C6_4 1_555 1_555
H13_4 C7_4 1_555 1_555
C8_4 C11_4 1_555 1_555
C9_4 H14_4 1_555 1_555
C10_4 C20_4 1_555 1_555
C11_4 H15_4 1_555 1_555
C12_4 H16_4 1_555 1_555
C15_4 C7_4 1_555 1_555
C16_4 C22_4 1_555 1_555
C18_4 C29_4 1_555 1_555
C19_4 S1_4 1_555 1_555
C20_4 C11_4 1_555 1_555
H23_4 C20_4 1_555 1_555
C21_4 C8_4 1_555 1_555
C22_4 C12_4 1_555 1_555
C23_4 C15_4 1_555 1_555
C24_4 C9_4 1_555 1_555
H24_4 C24_4 1_555 1_555
C25_4 H25_4 1_555 1_555
C27_4 C16_4 1_555 1_555
H26_4 C27_4 1_555 1_555
C28_4 C6_4 1_555 1_555
H27_4 C28_4 1_555 1_555
C29_4 C19_4 1_555 1_555
H28_4 C29_4 1_555 1_555
C30_4 C10_4 1_555 1_555
H29_4 C30_4 1_555 1_555
C32_4 C24_4 1_555 1_555
C33_4 S2_4 1_555 1_555
C34_4 C25_4 1_555 1_555
C35_4 C12_4 1_555 1_555
H30_4 C35_4 1_555 1_555
C37_4 C32_4 1_555 1_555
C38_4 S1_4 1_555 1_555
C39_4 C18_4 1_555 1_555
C40_4 S3_4 1_555 1_555
C41_4 S3_4 1_555 1_555
C42_4 S2_4 1_555 1_555
C49_4 C32_4 1_555 1_555
H43_4 C49_4 1_555 1_555
C51_4 C27_4 1_555 1_555
H45_4 C51_4 1_555 1_555
C52_4 O3_4 1_555 1_555
H46_4 C53_4 1_555 1_555
C54_4 O6_4 1_555 1_555
O28_2 C52_4 1_555 1_555
C8_4 C33_4 1_555 1_555
C9_4 C21_4 1_555 1_555
C10_4 C54_4 1_555 1_555
C16_4 C38_4 1_555 1_555
C18_4 C35_4 1_555 1_555
C19_4 C22_4 1_555 1_555
C21_4 C42_4 1_555 1_555
C23_4 C31_4 1_555 1_555
C23_4 C40_4 1_555 1_555
C25_4 C38_4 1_555 1_555
C28_4 C40_4 1_555 1_555
C30_4 C33_4 1_555 1_555
C31_4 C41_4 1_555 1_555
C34_4 C51_4 1_555 1_555
C34_4 C52_4 1_555 1_555
C41_4 C53_4 1_555 1_555
C42_4 C49_4 1_555 1_555

#END
