
###############################################################################
#
# This file contains modified crystal structure data generated from the
# MOF subset of the Cambridge Structural Database (CSD) v543 
# hosted by the Cambridge Crystallographic Data Centre (CCDC).
#
# This work is licensed under the Creative Commons
# Attribution-NonCommercial-ShareAlike 4.0 International License.
# To view a copy of this license, visit
# http://creativecommons.org/licenses/by-nc-sa/4.0/
# or send a letter to
# Creative Commons, PO Box 1866, Mountain View, CA 94042, USA.
#
# CIF created using the CSD Python API on 29 September 2022
# The structure has been converted into the P1 space group
# The structure has a 3D framework
# The original CSD entry YURKAA is in the rhombohedral crystal system
# The framework has been calculated to contain at least 10.0% void space
# The void calculation uses a probe of radius 1.32A, grid spacing 0.4
#
###############################################################################

data_YURKAA
_chemical_formula_moiety         '(C360 H216 Co12 N72)n'
_symmetry_cell_setting           triclinic
_symmetry_space_group_name_H-M   'P 1'
_symmetry_Int_Tables_number      1
_space_group_name_Hall           'P 1'
loop_
_symmetry_equiv_pos_site_id
_symmetry_equiv_pos_as_xyz
1 x,y,z
_cell_length_a                   32.6893(7)
_cell_length_b                   32.6893(7)
_cell_length_c                   9.3084(3)
_cell_angle_alpha                90
_cell_angle_beta                 90
_cell_angle_gamma                120
_cell_volume                     8614.24
loop_
_atom_site_label
_atom_site_type_symbol
_atom_site_fract_x
_atom_site_fract_y
_atom_site_fract_z
Co1 Co 0.500000 0.000000 0.000000
N1 N 0.49834(5) 0.05658(5) 0.07163(15)
N2 N 0.53495(5) 0.00144(5) 0.17794(15)
N3 N 0.59401(8) 0.16528(7) 0.6642(2)
C3 C 0.57954(7) 0.02584(7) 0.3863(2)
H2 H 0.594060 0.043305 0.471079
C4 C 0.55015(6) 0.03387(6) 0.28873(18)
C5 C 0.54106(6) 0.07106(6) 0.30111(18)
C6 C 0.55993(6) 0.10308(6) 0.42862(19)
C7 C 0.54390(7) 0.08768(7) 0.5669(2)
H3 H 0.521061 0.055552 0.584293
C8 C 0.56157(8) 0.11969(8) 0.6795(2)
H4 H 0.549892 0.108514 0.773376
C9 C 0.60960(9) 0.17955(8) 0.5317(3)
H5 H 0.632854 0.211755 0.517907
C10 C 0.59407(7) 0.15037(7) 0.4121(2)
H6 H 0.606625 0.162565 0.319791
C11 C 0.51603(6) 0.08079(6) 0.19876(18)
C12 C 0.50347(6) 0.11696(7) 0.2148(2)
H7 H 0.511617 0.138413 0.292786
C13 C 0.47795(7) 0.11455(7) 0.0982(2)
H8 H 0.464813 0.134099 0.078021
C14 C 0.47438(6) 0.07676(6) 0.01008(18)
H21 H 0.432314 0.000556 0.247391
N3_2 N 0.90460(11) 0.07266(8) 0.3309(2)
C2 C 0.73966(10) 0.08406(7) 0.0018(2)
H1 H 0.709084 0.066967 0.043320
C3_2 C 0.77963(10) 0.08713(7) 0.0530(2)
H2_2 H 0.782578 0.072607 0.137746
C6_2 C 0.87648(8) 0.10674(6) 0.09529(19)
C7_2 C 0.87711(10) 0.12277(7) 0.2336(2)
H3_2 H 0.867824 0.145606 0.250960
C8_2 C 0.89145(11) 0.10510(8) 0.3462(2)
H4_2 H 0.891955 0.116775 0.440043
C9_2 C 0.90328(12) 0.05707(9) 0.1984(3)
H5_2 H 0.912234 0.033813 0.184574
C10_2 C 0.88963(10) 0.07260(7) 0.0788(2)
H12 H 0.594095 0.096110 0.043113
Co1_2 Co 0.500000 -0.000000 1.000000
N8 N 0.37747(5) 0.13734(7) 0.76274(15)
C21 C 0.44506(6) 0.02621(6) 0.79529(18)
C22 C 0.41739(7) 0.01106(7) 0.6649(2)
H13 H 0.400300 0.024549 0.623347
C35 C 0.36094(7) 0.10471(9) 0.86580(19)
H21_2 H 0.332777 0.098424 0.914058
C36 C 0.38281(7) 0.07945(9) 0.9063(2)
H22 H 0.369551 0.056289 0.979862
C37 C 0.44931(6) 0.06256(6) 0.88180(19)
C38 C 0.42416(6) 0.08827(6) 0.83823(18)
C39 C 0.44151(7) 0.12216(9) 0.7310(2)
H23 H 0.469686 0.129297 0.681207
C40 C 0.41715(7) 0.14553(9) 0.6974(2)
H24 H 0.429443 0.168681 0.623554
Co3 Co 0.333333 0.166667 0.666667
N9 N 0.57346(9) 0.04414(5) 0.90393(15)
Co1_3 Co 0.500000 1.000000 0.000000
N4 N 0.62253(5) 0.86266(7) 0.23726(15)
C1 C 0.55494(6) 0.97379(6) 0.20471(18)
C2_2 C 0.58261(7) 0.98894(7) 0.3351(2)
H1_2 H 0.599700 0.975451 0.376653
C15 C 0.63906(7) 0.89529(9) 0.13420(19)
H9 H 0.667223 0.901576 0.085942
C16 C 0.61719(7) 0.92055(9) 0.0937(2)
H10 H 0.630449 0.943711 0.020138
C17 C 0.55069(6) 0.93744(6) 0.11820(19)
C18 C 0.57584(6) 0.91173(6) 0.16177(18)
C19 C 0.55849(7) 0.87784(9) 0.2690(2)
H11 H 0.530314 0.870703 0.318793
C20 C 0.58285(7) 0.85447(9) 0.3026(2)
H12_2 H 0.570557 0.831319 0.376446
Co2 Co 0.666667 0.833333 0.333333
N10 N 0.42654(9) 0.95586(5) 0.09607(15)
Co1_4 Co 0.000000 0.500000 0.000000
N4_2 N 0.13734(7) 0.75987(9) 0.23726(15)
C1_2 C 0.02621(6) 0.58115(8) 0.20471(18)
C2_3 C 0.01106(7) 0.59367(10) 0.3351(2)
H1_3 H 0.024549 0.624249 0.376653
C15_2 C 0.10471(9) 0.74377(11) 0.13420(19)
H9_2 H 0.098424 0.765647 0.085942
C16_2 C 0.07945(9) 0.69664(11) 0.0937(2)
H10_2 H 0.056289 0.686738 0.020138
C17_2 C 0.06256(6) 0.61325(8) 0.11820(19)
C18_2 C 0.08827(6) 0.66411(8) 0.16177(18)
C19_2 C 0.12216(9) 0.68065(11) 0.2690(2)
H11_2 H 0.129297 0.659611 0.318793
C20_2 C 0.14553(9) 0.72838(11) 0.3026(2)
H12_3 H 0.168681 0.739238 0.376446
Co2_2 Co 0.166667 0.833333 0.333333
N10_2 N 0.04414(5) 0.47067(10) 0.09607(15)
Co1_5 Co 1.000000 0.500000 1.000000
N8_2 N 0.86266(7) 0.24013(9) 0.76274(15)
C21_2 C 0.97379(6) 0.41885(8) 0.79529(18)
C22_2 C 0.98894(7) 0.40633(10) 0.6649(2)
H13_2 H 0.975451 0.375751 0.623347
C35_2 C 0.89529(9) 0.25623(11) 0.86580(19)
H21_3 H 0.901576 0.234353 0.914058
C36_2 C 0.92055(9) 0.30336(11) 0.9063(2)
H22_2 H 0.943711 0.313262 0.979862
C37_2 C 0.93744(6) 0.38675(8) 0.88180(19)
C38_2 C 0.91173(6) 0.33589(8) 0.83823(18)
C39_2 C 0.87784(9) 0.31935(11) 0.7310(2)
H23_2 H 0.870703 0.340389 0.681207
C40_2 C 0.85447(9) 0.27162(11) 0.6974(2)
H24_2 H 0.831319 0.260762 0.623554
Co3_2 Co 0.833333 0.166667 0.666667
N9_2 N 0.95586(5) 0.52933(10) 0.90393(15)
Co1_6 Co 0.500000 0.500000 0.000000
N1_2 N 0.55824(7) 0.50166(5) 0.07163(15)
N2_2 N 0.46649(7) 0.46505(5) 0.17794(15)
N3_3 N 0.57127(11) 0.40599(8) 0.6642(2)
N4_3 N 0.24013(9) 0.37747(5) 0.23726(15)
C1_3 C 0.41885(8) 0.44506(6) 0.20471(18)
C2_4 C 0.40633(10) 0.41739(7) 0.3351(2)
H1_4 H 0.375751 0.400300 0.376653
C3_3 C 0.44630(10) 0.42046(7) 0.3863(2)
H2_3 H 0.449245 0.405940 0.471079
C4_2 C 0.48372(8) 0.44985(6) 0.28873(18)
C5_2 C 0.53000(8) 0.45894(6) 0.30111(18)
C6_3 C 0.54315(8) 0.44007(6) 0.42862(19)
C7_3 C 0.54378(10) 0.45610(7) 0.5669(2)
H3_3 H 0.534491 0.478939 0.584293
C8_3 C 0.55812(11) 0.43843(8) 0.6795(2)
H4_3 H 0.558622 0.450108 0.773376
C9_3 C 0.56995(12) 0.39040(9) 0.5317(3)
H5_3 H 0.578901 0.367146 0.517907
C10_3 C 0.55630(10) 0.40593(7) 0.4121(2)
H6_2 H 0.555940 0.393375 0.319791
C11_2 C 0.56476(8) 0.48397(6) 0.19876(18)
C12_2 C 0.61349(9) 0.49653(6) 0.2148(2)
H7_2 H 0.626796 0.488383 0.292786
C13_2 C 0.63660(10) 0.52205(7) 0.0982(2)
H8_2 H 0.669286 0.535187 0.078021
C14_2 C 0.60238(8) 0.52562(6) 0.01008(18)
C15_3 C 0.25623(11) 0.36094(7) 0.13420(19)
H9_3 H 0.234353 0.332777 0.085942
C16_3 C 0.30336(11) 0.38281(7) 0.0937(2)
H10_3 H 0.313262 0.369551 0.020138
C17_3 C 0.38675(8) 0.44931(6) 0.11820(19)
C18_3 C 0.33589(8) 0.42416(6) 0.16177(18)
C19_3 C 0.31935(11) 0.44151(7) 0.2690(2)
H11_3 H 0.340389 0.469686 0.318793
C20_3 C 0.27162(11) 0.41715(7) 0.3026(2)
H12_4 H 0.260762 0.429443 0.376446
Co2_3 Co 0.166667 0.333333 0.333333
N10_3 N 0.52933(10) 0.57346(9) 0.09607(15)
Co1_7 Co 0.500000 0.500000 1.000000
N5 N 0.44176(7) 0.49834(5) 0.92837(15)
N6 N 0.53351(7) 0.53495(5) 0.82206(15)
N7 N 0.42873(11) 0.59401(8) 0.3358(2)
N8_3 N 0.75987(9) 0.62253(5) 0.76274(15)
C21_3 C 0.58115(8) 0.55494(6) 0.79529(18)
C22_3 C 0.59367(10) 0.58261(7) 0.6649(2)
H13_3 H 0.624249 0.599700 0.623347
C23 C 0.55370(10) 0.57954(7) 0.6137(2)
H14 H 0.550755 0.594060 0.528921
C24 C 0.51628(8) 0.55015(6) 0.71127(18)
C25 C 0.47000(8) 0.54106(6) 0.69889(18)
C26 C 0.45685(8) 0.55993(6) 0.57138(19)
C27 C 0.45622(10) 0.54390(7) 0.4331(2)
H15 H 0.465509 0.521061 0.415707
C28 C 0.44188(11) 0.56157(8) 0.3205(2)
H16 H 0.441378 0.549892 0.226624
C29 C 0.43005(12) 0.60960(9) 0.4683(3)
H17 H 0.421099 0.632854 0.482093
C30 C 0.44370(10) 0.59407(7) 0.5879(2)
H18 H 0.444060 0.606625 0.680209
C31 C 0.43524(8) 0.51603(6) 0.80124(18)
C32 C 0.38651(9) 0.50347(6) 0.7852(2)
H19 H 0.373204 0.511617 0.707214
C33 C 0.36340(10) 0.47795(7) 0.9018(2)
H20 H 0.330714 0.464813 0.921979
C34 C 0.39762(8) 0.47438(6) 0.98992(18)
C35_3 C 0.74377(11) 0.63906(7) 0.86580(19)
H21_4 H 0.765647 0.667223 0.914058
C36_3 C 0.69664(11) 0.61719(7) 0.9063(2)
H22_3 H 0.686738 0.630449 0.979862
C37_3 C 0.61325(8) 0.55069(6) 0.88180(19)
C38_3 C 0.66411(8) 0.57584(6) 0.83823(18)
C39_3 C 0.68065(11) 0.55849(7) 0.7310(2)
H23_3 H 0.659611 0.530314 0.681207
C40_3 C 0.72838(11) 0.58285(7) 0.6974(2)
H24_3 H 0.739238 0.570557 0.623554
Co3_3 Co 0.833333 0.666667 0.666667
N9_3 N 0.47067(10) 0.42654(9) 0.90393(15)
N1_3 N 0.16501(5) 0.38991(5) 0.40496(15)
N2_3 N 0.20162(5) 0.33477(5) 0.51127(15)
N3_4 N 0.26068(8) 0.49861(7) 0.9975(2)
N4_4 N 0.28920(5) 0.19599(7) 0.57059(15)
C1_4 C 0.22161(6) 0.30712(6) 0.53804(18)
C2_5 C 0.24928(7) 0.32227(7) 0.6684(2)
H1_5 H 0.266367 0.308784 0.709986
C3_4 C 0.24621(7) 0.35917(7) 0.7196(2)
H2_4 H 0.260727 0.376638 0.804412
C4_3 C 0.21682(6) 0.36720(6) 0.62206(18)
C5_3 C 0.20773(6) 0.40439(6) 0.63444(18)
C6_4 C 0.22660(6) 0.43641(6) 0.76195(19)
C7_4 C 0.21057(7) 0.42101(7) 0.9002(2)
H3_4 H 0.187728 0.388885 0.917626
C9_4 C 0.27627(9) 0.51288(8) 0.8650(3)
H5_4 H 0.299521 0.545088 0.851240
C10_4 C 0.26074(7) 0.48370(7) 0.7454(2)
H6_3 H 0.273292 0.495898 0.653124
C11_3 C 0.18270(6) 0.41412(6) 0.53209(18)
C12_3 C 0.17014(6) 0.45029(7) 0.5481(2)
H7_3 H 0.178284 0.471746 0.626119
C13_3 C 0.14462(7) 0.44788(7) 0.4315(2)
H8_3 H 0.131480 0.467432 0.411354
C14_3 C 0.14105(6) 0.41009(6) 0.34341(18)
C15_4 C 0.30573(7) 0.22862(9) 0.46753(19)
H9_4 H 0.333890 0.234909 0.419275
C16_4 C 0.28386(7) 0.25388(9) 0.4270(2)
H10_4 H 0.297116 0.277044 0.353471
C17_4 C 0.21736(6) 0.27077(6) 0.45153(19)
C18_4 C 0.24251(6) 0.24506(6) 0.49510(18)
C19_4 C 0.22516(7) 0.21117(9) 0.6023(2)
H11_4 H 0.196981 0.204036 0.652126
C20_4 C 0.24952(7) 0.18780(9) 0.6359(2)
H12_5 H 0.237224 0.164652 0.709779
N5_2 N 0.16833(5) 0.27675(5) 0.26170(15)
N6_2 N 0.13172(5) 0.33189(5) 0.15539(15)
C21_4 C 0.11173(6) 0.35954(6) 0.12862(18)
C24_2 C 0.11652(6) 0.29946(6) 0.04460(18)
C25_2 C 0.12561(6) 0.26227(6) 0.03222(18)
H18_2 H 0.060042 0.170768 0.013542
C31_2 C 0.15064(6) 0.25254(6) 0.13457(18)
C32_2 C 0.16320(6) 0.21637(7) 0.1185(2)
H19_2 H 0.155050 0.194920 0.040547
C33_2 C 0.18872(7) 0.21878(7) 0.2351(2)
H20_2 H 0.201854 0.199234 0.255312
C34_2 C 0.19229(6) 0.25657(6) 0.32325(18)
C35_4 C 0.02761(7) 0.43804(9) 0.19913(19)
C36_4 C 0.04948(7) 0.41278(9) 0.2396(2)
H22_4 H 0.036218 0.389622 0.313195
C37_4 C 0.11598(6) 0.39589(6) 0.21513(19)
C38_4 C 0.09083(6) 0.42160(6) 0.17156(18)
C39_4 C 0.10818(7) 0.45549(9) 0.0643(2)
H23_4 H 0.136353 0.462630 0.014540
C40_4 C 0.08382(7) 0.47886(9) 0.0307(2)
N10_4 N 0.09320(9) 0.28920(5) 0.42941(15)
N4_5 N 0.80401(7) 0.09320(9) 0.57059(15)
C15_5 C 0.77138(9) 0.07710(11) 0.46753(19)
H9_5 H 0.765091 0.098980 0.419275
C16_5 C 0.74612(9) 0.02997(11) 0.4270(2)
H10_5 H 0.722956 0.020071 0.353471
C19_5 C 0.78883(9) 0.01398(11) 0.6023(2)
C20_5 C 0.81220(9) 0.06171(11) 0.6359(2)
H12_6 H 0.835348 0.072571 0.709779
H20_3 H 0.800766 0.002619 0.255312
N1_4 N 0.61009(5) 0.77509(7) 0.40496(15)
N2_4 N 0.66523(5) 0.86684(7) 0.51127(15)
N3_5 N 0.50139(7) 0.76206(11) 0.9975(2)
C1_5 C 0.69288(6) 0.91448(8) 0.53804(18)
C2_6 C 0.67773(7) 0.92700(10) 0.6684(2)
H1_6 H 0.691216 0.957582 0.709986
C3_5 C 0.64083(7) 0.88703(10) 0.7196(2)
H2_5 H 0.623362 0.884088 0.804412
C4_4 C 0.63280(6) 0.84961(8) 0.62206(18)
C5_4 C 0.59561(6) 0.80333(8) 0.63444(18)
C6_5 C 0.56359(6) 0.79018(8) 0.76195(19)
C7_5 C 0.57899(7) 0.78955(10) 0.9002(2)
H3_5 H 0.611115 0.798842 0.917626
C9_5 C 0.48712(8) 0.76338(12) 0.8650(3)
H5_5 H 0.454912 0.754432 0.851240
C10_5 C 0.51630(7) 0.77703(10) 0.7454(2)
H6_4 H 0.504102 0.777393 0.653124
C11_4 C 0.58588(6) 0.76857(8) 0.53209(18)
C12_4 C 0.54971(7) 0.71984(9) 0.5481(2)
H7_4 H 0.528254 0.706537 0.626119
C13_4 C 0.55212(7) 0.69673(10) 0.4315(2)
H8_4 H 0.532568 0.664047 0.411354
C14_4 C 0.58991(6) 0.73095(8) 0.34341(18)
C17_5 C 0.72923(6) 0.94658(8) 0.45153(19)
C18_5 C 0.75494(6) 0.99744(8) 0.49510(18)
H11_5 H 0.795964 0.992944 0.652126
N5_3 N 0.72325(5) 0.89157(7) 0.26170(15)
N6_3 N 0.66811(5) 0.79982(7) 0.15539(15)
C21_5 C 0.64046(6) 0.75218(8) 0.12862(18)
C24_3 C 0.70054(6) 0.81705(8) 0.04460(18)
C25_3 C 0.73773(6) 0.86333(8) 0.03222(18)
H18_3 H 0.829232 0.889273 0.013542
C31_3 C 0.74746(6) 0.89809(8) 0.13457(18)
C32_3 C 0.78363(7) 0.94682(9) 0.1185(2)
H19_3 H 0.805080 0.960129 0.040547
C33_3 C 0.78122(7) 0.96993(10) 0.2351(2)
C34_3 C 0.74343(6) 0.93571(8) 0.32325(18)
C35_5 C 0.56196(9) 0.58956(11) 0.19913(19)
H21_5 H 0.568243 0.567686 0.247391
C36_5 C 0.58722(9) 0.63669(11) 0.2396(2)
H22_5 H 0.610378 0.646595 0.313195
C37_5 C 0.60411(6) 0.72008(8) 0.21513(19)
C38_5 C 0.57840(6) 0.66922(8) 0.17156(18)
C39_5 C 0.54451(9) 0.65268(11) 0.0643(2)
H23_5 H 0.537370 0.673722 0.014540
C40_5 C 0.52114(9) 0.60495(11) 0.0307(2)
N10_5 N 0.71080(5) 0.80401(10) 0.42941(15)
N7_2 N 0.83195(7) 0.90460(11) 0.6691(2)
C22_4 C 0.65561(7) 0.73966(10) 0.9982(2)
H13_4 H 0.642118 0.709084 0.956680
C23_2 C 0.69251(7) 0.77963(10) 0.9470(2)
H14_2 H 0.709972 0.782578 0.862254
C26_2 C 0.76975(6) 0.87648(8) 0.90471(19)
C27_2 C 0.75435(7) 0.87711(10) 0.7664(2)
H15_2 H 0.722219 0.867824 0.749040
C28_2 C 0.78636(8) 0.89145(11) 0.6538(2)
H16_2 H 0.775181 0.891955 0.559957
C29_2 C 0.84622(8) 0.90328(12) 0.8016(3)
H17_2 H 0.878422 0.912234 0.815426
C30_2 C 0.81704(7) 0.88963(10) 0.9212(2)
H24_4 H 0.497986 0.594095 0.956887
N1_5 N 0.22491(7) 0.83499(5) 0.40496(15)
N2_5 N 0.13316(7) 0.79838(5) 0.51127(15)
N3_6 N 0.23794(11) 0.73932(8) 0.9975(2)
C1_6 C 0.08552(8) 0.77839(6) 0.53804(18)
C2_7 C 0.07300(10) 0.75072(7) 0.6684(2)
H1_7 H 0.042418 0.733633 0.709986
C3_6 C 0.11297(10) 0.75379(7) 0.7196(2)
H2_6 H 0.115912 0.739273 0.804412
C4_5 C 0.15039(8) 0.78318(6) 0.62206(18)
C5_5 C 0.19667(8) 0.79227(6) 0.63444(18)
C6_6 C 0.20982(8) 0.77340(6) 0.76195(19)
C7_6 C 0.21045(10) 0.78943(7) 0.9002(2)
H3_6 H 0.201158 0.812272 0.917626
C9_6 C 0.23662(12) 0.72373(9) 0.8650(3)
H5_6 H 0.245568 0.700479 0.851240
C10_6 C 0.22297(10) 0.73926(7) 0.7454(2)
H6_5 H 0.222607 0.726708 0.653124
C11_5 C 0.23143(8) 0.81730(6) 0.53209(18)
C12_5 C 0.28016(9) 0.82986(6) 0.5481(2)
H7_5 H 0.293463 0.821716 0.626119
C13_5 C 0.30327(10) 0.85538(7) 0.4315(2)
H8_5 H 0.335953 0.868520 0.411354
C14_5 C 0.26905(8) 0.85895(6) 0.34341(18)
C17_6 C 0.05342(8) 0.78264(6) 0.45153(19)
C18_6 C 0.00256(8) 0.75749(6) 0.49510(18)
H11_6 H 0.007056 0.803019 0.652126
N5_4 N 0.10843(7) 0.83167(5) 0.26170(15)
N6_4 N 0.20018(7) 0.86828(5) 0.15539(15)
C21_6 C 0.24782(8) 0.88827(6) 0.12862(18)
C24_4 C 0.18295(8) 0.88348(6) 0.04460(18)
C25_4 C 0.13667(8) 0.87439(6) 0.03222(18)
H18_4 H 0.110727 0.939958 0.013542
C31_4 C 0.10191(8) 0.84936(6) 0.13457(18)
C32_4 C 0.05318(9) 0.83680(6) 0.1185(2)
H19_4 H 0.039871 0.844950 0.040547
C33_4 C 0.03007(10) 0.81128(7) 0.2351(2)
C34_4 C 0.06429(8) 0.80771(6) 0.32325(18)
C35_6 C 0.41044(11) 0.97239(7) 0.19913(19)
C36_6 C 0.36331(11) 0.95052(7) 0.2396(2)
H22_6 H 0.353405 0.963782 0.313195
C37_6 C 0.27992(8) 0.88402(6) 0.21513(19)
C38_6 C 0.33078(8) 0.90917(6) 0.17156(18)
C39_6 C 0.34732(11) 0.89182(7) 0.0643(2)
H23_6 H 0.326278 0.863647 0.014540
C40_6 C 0.39505(11) 0.91618(7) 0.0307(2)
N10_6 N 0.19599(10) 0.90680(9) 0.42941(15)
N4_6 N 0.90680(9) 0.71080(5) 0.57059(15)
C15_6 C 0.92290(11) 0.69427(7) 0.46753(19)
H9_6 H 0.901020 0.666110 0.419275
C16_6 C 0.97003(11) 0.71614(7) 0.4270(2)
H10_6 H 0.979929 0.702884 0.353471
C19_6 C 0.98602(11) 0.77484(7) 0.6023(2)
C20_6 C 0.93829(11) 0.75048(7) 0.6359(2)
H12_7 H 0.927429 0.762776 0.709779
H20_4 H 0.997381 0.798146 0.255312
N1_6 N 0.83167(5) 0.72325(5) 0.73830(15)
N2_6 N 0.86828(5) 0.66811(5) 0.84461(15)
C1_7 C 0.88827(6) 0.64046(6) 0.87138(18)
C4_6 C 0.88348(6) 0.70054(6) 0.95540(18)
C5_6 C 0.87439(6) 0.73773(6) 0.96778(18)
H6_6 H 0.939958 0.829232 0.986458
C11_6 C 0.84936(6) 0.74746(6) 0.86543(18)
C12_6 C 0.83680(6) 0.78363(7) 0.8815(2)
H7_6 H 0.844950 0.805080 0.959453
C13_6 C 0.81128(7) 0.78122(7) 0.7649(2)
H8_6 H 0.798146 0.800766 0.744688
C14_6 C 0.80771(6) 0.74343(6) 0.67675(18)
C15_7 C 0.97239(7) 0.56196(9) 0.80087(19)
C16_7 C 0.95052(7) 0.58722(9) 0.7604(2)
H10_7 H 0.963782 0.610378 0.686805
C17_7 C 0.88402(6) 0.60411(6) 0.78487(19)
C18_7 C 0.90917(6) 0.57840(6) 0.82844(18)
C19_7 C 0.89182(7) 0.54451(9) 0.9357(2)
H11_7 H 0.863647 0.537370 0.985460
C20_7 C 0.91618(7) 0.52114(9) 0.9693(2)
N5_5 N 0.83499(5) 0.61009(5) 0.59504(15)
N6_5 N 0.79838(5) 0.66523(5) 0.48873(15)
N7_3 N 0.73932(8) 0.50139(7) 0.0025(2)
C21_7 C 0.77839(6) 0.69288(6) 0.46196(18)
C22_5 C 0.75072(7) 0.67773(7) 0.3316(2)
H13_5 H 0.733633 0.691216 0.290014
C23_3 C 0.75379(7) 0.64083(7) 0.2804(2)
H14_3 H 0.739273 0.623362 0.195588
C24_5 C 0.78318(6) 0.63280(6) 0.37794(18)
C25_5 C 0.79227(6) 0.59561(6) 0.36556(18)
C26_3 C 0.77340(6) 0.56359(6) 0.23805(19)
C27_3 C 0.78943(7) 0.57899(7) 0.0998(2)
H15_3 H 0.812272 0.611115 0.082374
C29_3 C 0.72373(9) 0.48712(8) 0.1350(3)
H17_3 H 0.700479 0.454912 0.148760
C30_3 C 0.73926(7) 0.51630(7) 0.2546(2)
H18_5 H 0.726708 0.504102 0.346876
C31_5 C 0.81730(6) 0.58588(6) 0.46791(18)
C32_5 C 0.82986(6) 0.54971(7) 0.4519(2)
H19_5 H 0.821716 0.528254 0.373881
C33_5 C 0.85538(7) 0.55212(7) 0.5685(2)
H20_5 H 0.868520 0.532568 0.588646
C34_5 C 0.85895(6) 0.58991(6) 0.65659(18)
C35_7 C 0.69427(7) 0.77138(9) 0.53247(19)
H21_6 H 0.666110 0.765091 0.580725
C36_7 C 0.71614(7) 0.74612(9) 0.5730(2)
H22_7 H 0.702884 0.722956 0.646529
C37_7 C 0.78264(6) 0.72923(6) 0.54847(19)
C38_7 C 0.75749(6) 0.75494(6) 0.50490(18)
C39_7 C 0.77484(7) 0.78883(9) 0.3977(2)
H23_7 H 0.803019 0.795964 0.347874
C40_7 C 0.75048(7) 0.81220(9) 0.3641(2)
H24_5 H 0.762776 0.835348 0.290221
N3_7 N 0.16805(7) 0.09540(11) 0.3309(2)
C2_8 C 0.34439(7) 0.26034(10) 0.0018(2)
H1_8 H 0.357882 0.290916 0.043320
C3_7 C 0.30749(7) 0.22037(10) 0.0530(2)
H2_7 H 0.290028 0.217422 0.137746
C6_7 C 0.23025(6) 0.12352(8) 0.09529(19)
C7_7 C 0.24565(7) 0.12289(10) 0.2336(2)
H3_7 H 0.277781 0.132176 0.250960
C8_4 C 0.21364(8) 0.10855(11) 0.3462(2)
H4_4 H 0.224819 0.108045 0.440043
C9_7 C 0.15378(8) 0.09672(12) 0.1984(3)
H5_7 H 0.121578 0.087766 0.184574
C10_7 C 0.18296(7) 0.11037(10) 0.0788(2)
H12_8 H 0.502014 0.405905 0.043113
N1_7 N 0.27675(5) 0.10843(7) 0.73830(15)
N2_7 N 0.33189(5) 0.20018(7) 0.84461(15)
C1_8 C 0.35954(6) 0.24782(8) 0.87138(18)
C4_7 C 0.29946(6) 0.18295(8) 0.95540(18)
C5_7 C 0.26227(6) 0.13667(8) 0.96778(18)
H6_7 H 0.170768 0.110727 0.986458
C11_7 C 0.25254(6) 0.10191(8) 0.86543(18)
C12_7 C 0.21637(7) 0.05318(9) 0.8815(2)
H7_7 H 0.194920 0.039871 0.959453
C13_7 C 0.21878(7) 0.03007(10) 0.7649(2)
C14_7 C 0.25657(6) 0.06429(8) 0.67675(18)
C15_8 C 0.43804(9) 0.41044(11) 0.80087(19)
H9_7 H 0.431757 0.432314 0.752609
C16_8 C 0.41278(9) 0.36331(11) 0.7604(2)
H10_8 H 0.389622 0.353405 0.686805
C17_8 C 0.39589(6) 0.27992(8) 0.78487(19)
C18_8 C 0.42160(6) 0.33078(8) 0.82844(18)
C19_8 C 0.45549(9) 0.34732(11) 0.9357(2)
H11_8 H 0.462630 0.326278 0.985460
C20_8 C 0.47886(9) 0.39505(11) 0.9693(2)
N5_6 N 0.38991(5) 0.22491(7) 0.59504(15)
N6_6 N 0.33477(5) 0.13316(7) 0.48873(15)
N7_4 N 0.49861(7) 0.23794(11) 0.0025(2)
C21_8 C 0.30712(6) 0.08552(8) 0.46196(18)
C22_6 C 0.32227(7) 0.07300(10) 0.3316(2)
H13_6 H 0.308784 0.042418 0.290014
C23_4 C 0.35917(7) 0.11297(10) 0.2804(2)
H14_4 H 0.376638 0.115912 0.195588
C24_6 C 0.36720(6) 0.15039(8) 0.37794(18)
C25_6 C 0.40439(6) 0.19667(8) 0.36556(18)
C26_4 C 0.43641(6) 0.20982(8) 0.23805(19)
C27_4 C 0.42101(7) 0.21045(10) 0.0998(2)
H15_4 H 0.388885 0.201158 0.082374
C29_4 C 0.51288(8) 0.23662(12) 0.1350(3)
H17_4 H 0.545088 0.245568 0.148760
C30_4 C 0.48370(7) 0.22297(10) 0.2546(2)
H18_6 H 0.495898 0.222607 0.346876
C31_6 C 0.41412(6) 0.23143(8) 0.46791(18)
C32_6 C 0.45029(7) 0.28016(9) 0.4519(2)
H19_6 H 0.471746 0.293463 0.373881
C33_6 C 0.44788(7) 0.30327(10) 0.5685(2)
H20_6 H 0.467432 0.335953 0.588646
C34_6 C 0.41009(6) 0.26905(8) 0.65659(18)
C37_8 C 0.27077(6) 0.05342(8) 0.54847(19)
C38_8 C 0.24506(6) 0.00256(8) 0.50490(18)
H23_8 H 0.204036 0.007056 0.347874
H8_7 H 0.199234 0.997381 0.744688
C35_8 C 0.22862(9) 0.92290(11) 0.53247(19)
H21_7 H 0.234909 0.901020 0.580725
C36_8 C 0.25388(9) 0.97003(11) 0.5730(2)
H22_8 H 0.277044 0.979929 0.646529
C39_8 C 0.21117(9) 0.98602(11) 0.3977(2)
C40_8 C 0.18780(9) 0.93829(11) 0.3641(2)
H24_6 H 0.164652 0.927429 0.290221
H8_8 H 0.002619 0.201854 0.744688
C35_9 C 0.07710(11) 0.30573(7) 0.53247(19)
H21_8 H 0.098980 0.333890 0.580725
C36_9 C 0.02997(11) 0.28386(7) 0.5730(2)
H22_9 H 0.020071 0.297116 0.646529
C39_9 C 0.01398(11) 0.22516(7) 0.3977(2)
C40_9 C 0.06171(11) 0.24952(7) 0.3641(2)
H24_7 H 0.072571 0.237224 0.290221
N1_8 N 0.89157(7) 0.16833(5) 0.73830(15)
N2_8 N 0.79982(7) 0.13172(5) 0.84461(15)
C1_9 C 0.75218(8) 0.11173(6) 0.87138(18)
C4_8 C 0.81705(8) 0.11652(6) 0.95540(18)
C5_8 C 0.86333(8) 0.12561(6) 0.96778(18)
H6_8 H 0.889273 0.060042 0.986458
C11_8 C 0.89809(8) 0.15064(6) 0.86543(18)
C12_8 C 0.94682(9) 0.16320(6) 0.8815(2)
H7_8 H 0.960129 0.155050 0.959453
C13_8 C 0.96993(10) 0.18872(7) 0.7649(2)
C14_8 C 0.93571(8) 0.19229(6) 0.67675(18)
C15_9 C 0.58956(11) 0.02761(7) 0.80087(19)
C16_9 C 0.63669(11) 0.04948(7) 0.7604(2)
H10_9 H 0.646595 0.036218 0.686805
C17_9 C 0.72008(8) 0.11598(6) 0.78487(19)
C18_9 C 0.66922(8) 0.09083(6) 0.82844(18)
C19_9 C 0.65268(11) 0.10818(7) 0.9357(2)
H11_9 H 0.673722 0.136353 0.985460
C20_9 C 0.60495(11) 0.08382(7) 0.9693(2)
N5_7 N 0.77509(7) 0.16501(5) 0.59504(15)
N6_7 N 0.86684(7) 0.20162(5) 0.48873(15)
N7_5 N 0.76206(11) 0.26068(8) 0.0025(2)
C21_9 C 0.91448(8) 0.22161(6) 0.46196(18)
C22_7 C 0.92700(10) 0.24928(7) 0.3316(2)
H13_7 H 0.957582 0.266367 0.290014
C23_5 C 0.88703(10) 0.24621(7) 0.2804(2)
H14_5 H 0.884088 0.260727 0.195588
C24_7 C 0.84961(8) 0.21682(6) 0.37794(18)
C25_7 C 0.80333(8) 0.20773(6) 0.36556(18)
C26_5 C 0.79018(8) 0.22660(6) 0.23805(19)
C27_5 C 0.78955(10) 0.21057(7) 0.0998(2)
H15_5 H 0.798842 0.187728 0.082374
C29_5 C 0.76338(12) 0.27627(9) 0.1350(3)
H17_5 H 0.754432 0.299521 0.148760
C30_5 C 0.77703(10) 0.26074(7) 0.2546(2)
H18_7 H 0.777393 0.273292 0.346876
C31_7 C 0.76857(8) 0.18270(6) 0.46791(18)
C32_7 C 0.71984(9) 0.17014(6) 0.4519(2)
H19_7 H 0.706537 0.178284 0.373881
C33_7 C 0.69673(10) 0.14462(7) 0.5685(2)
H20_7 H 0.664047 0.131480 0.588646
C34_7 C 0.73095(8) 0.14105(6) 0.65659(18)
C37_9 C 0.94658(8) 0.21736(6) 0.54847(19)
C38_9 C 0.99744(8) 0.24251(6) 0.50490(18)
H23_9 H 0.992944 0.196981 0.347874
Co1_8 Co 0.500000 1.000000 1.000000
N5_8 N 0.50166(5) 0.94342(5) 0.92837(15)
N6_8 N 0.46505(5) 0.99856(5) 0.82206(15)
N7_6 N 0.40599(8) 0.83472(7) 0.3358(2)
C23_6 C 0.42046(7) 0.97416(7) 0.6137(2)
H14_6 H 0.405940 0.956695 0.528921
C24_8 C 0.44985(6) 0.96613(6) 0.71127(18)
C25_8 C 0.45894(6) 0.92894(6) 0.69889(18)
C26_6 C 0.44007(6) 0.89692(6) 0.57138(19)
C27_6 C 0.45610(7) 0.91232(7) 0.4331(2)
H15_6 H 0.478939 0.944448 0.415707
C28_3 C 0.43843(8) 0.88031(8) 0.3205(2)
H16_3 H 0.450108 0.891486 0.226624
C29_6 C 0.39040(9) 0.82045(8) 0.4683(3)
H17_6 H 0.367146 0.788245 0.482093
C30_6 C 0.40593(7) 0.84963(7) 0.5879(2)
H18_8 H 0.393375 0.837435 0.680209
C31_8 C 0.48397(6) 0.91921(6) 0.80124(18)
C32_8 C 0.49653(6) 0.88304(7) 0.7852(2)
H19_8 H 0.488383 0.861587 0.707214
C33_8 C 0.52205(7) 0.88545(7) 0.9018(2)
H20_8 H 0.535187 0.865901 0.921979
C34_8 C 0.52562(6) 0.92324(6) 0.98992(18)
N7_7 N 0.09540(11) 0.92734(8) 0.6691(2)
C22_8 C 0.26034(10) 0.91594(7) 0.9982(2)
H13_8 H 0.290916 0.933033 0.956680
C23_7 C 0.22037(10) 0.91287(7) 0.9470(2)
H14_7 H 0.217422 0.927393 0.862254
C26_7 C 0.12352(8) 0.89326(6) 0.90471(19)
C27_7 C 0.12289(10) 0.87723(7) 0.7664(2)
H15_7 H 0.132176 0.854394 0.749040
C28_4 C 0.10855(11) 0.89490(8) 0.6538(2)
H16_4 H 0.108045 0.883225 0.559957
C29_7 C 0.09672(12) 0.94293(9) 0.8016(3)
H17_7 H 0.087766 0.966187 0.815426
C30_7 C 0.11037(10) 0.92740(7) 0.9212(2)
H24_8 H 0.405905 0.903890 0.956887
H9_8 H 0.567686 0.999444 0.752609
Co1_9 Co -0.000000 0.500000 1.000000
N5_9 N 0.05658(5) 0.55824(7) 0.92837(15)
N6_9 N 0.00144(5) 0.46649(7) 0.82206(15)
N7_8 N 0.16528(7) 0.57127(11) 0.3358(2)
C23_8 C 0.02584(7) 0.44630(10) 0.6137(2)
H14_8 H 0.043305 0.449245 0.528921
C24_9 C 0.03387(6) 0.48372(8) 0.71127(18)
C25_9 C 0.07106(6) 0.53000(8) 0.69889(18)
C26_8 C 0.10308(6) 0.54315(8) 0.57138(19)
C27_8 C 0.08768(7) 0.54378(10) 0.4331(2)
H15_8 H 0.055552 0.534491 0.415707
C28_5 C 0.11969(8) 0.55812(11) 0.3205(2)
H16_5 H 0.108514 0.558622 0.226624
C29_8 C 0.17955(8) 0.56995(12) 0.4683(3)
H17_8 H 0.211755 0.578901 0.482093
C30_8 C 0.15037(7) 0.55630(10) 0.5879(2)
H18_9 H 0.162565 0.555940 0.680209
C31_9 C 0.08079(6) 0.56476(8) 0.80124(18)
C32_9 C 0.11696(7) 0.61349(9) 0.7852(2)
H19_9 H 0.138413 0.626796 0.707214
C33_9 C 0.11455(7) 0.63660(10) 0.9018(2)
H20_9 H 0.134099 0.669286 0.921979
C34_9 C 0.07676(6) 0.60238(8) 0.98992(18)
N7_9 N 0.07266(8) 0.16805(7) 0.6691(2)
C22_9 C 0.08406(7) 0.34439(7) 0.9982(2)
H13_9 H 0.066967 0.357882 0.956680
C23_9 C 0.08713(7) 0.30749(7) 0.9470(2)
H14_9 H 0.072607 0.290028 0.862254
C26_9 C 0.10674(6) 0.23025(6) 0.90471(19)
C27_9 C 0.12277(7) 0.24565(7) 0.7664(2)
H15_9 H 0.145606 0.277781 0.749040
C28_6 C 0.10510(8) 0.21364(8) 0.6538(2)
H16_6 H 0.116775 0.224819 0.559957
C29_9 C 0.05707(9) 0.15378(8) 0.8016(3)
H17_9 H 0.033813 0.121578 0.815426
C30_9 C 0.07260(7) 0.18296(7) 0.9212(2)
H24_9 H 0.096110 0.502014 0.956887
H9_9 H 0.000556 0.568243 0.752609
Co1_10 Co 1.000000 0.500000 0.000000
N1_9 N 0.94342(5) 0.44176(7) 0.07163(15)
N2_9 N 0.99856(5) 0.53351(7) 0.17794(15)
N3_8 N 0.83472(7) 0.42873(11) 0.6642(2)
C3_8 C 0.97416(7) 0.55370(10) 0.3863(2)
H2_8 H 0.956695 0.550755 0.471079
C4_9 C 0.96613(6) 0.51628(8) 0.28873(18)
C5_9 C 0.92894(6) 0.47000(8) 0.30111(18)
C6_8 C 0.89692(6) 0.45685(8) 0.42862(19)
C7_8 C 0.91232(7) 0.45622(10) 0.5669(2)
H3_8 H 0.944448 0.465509 0.584293
C8_5 C 0.88031(8) 0.44188(11) 0.6795(2)
H4_5 H 0.891486 0.441378 0.773376
C9_8 C 0.82045(8) 0.43005(12) 0.5317(3)
H5_8 H 0.788245 0.421099 0.517907
C10_8 C 0.84963(7) 0.44370(10) 0.4121(2)
H6_9 H 0.837435 0.444060 0.319791
C11_9 C 0.91921(6) 0.43524(8) 0.19876(18)
C12_9 C 0.88304(7) 0.38651(9) 0.2148(2)
H7_9 H 0.861587 0.373204 0.292786
C13_9 C 0.88545(7) 0.36340(10) 0.0982(2)
H8_9 H 0.865901 0.330714 0.078021
C14_9 C 0.92324(6) 0.39762(8) 0.01008(18)
H21_9 H 0.999444 0.431757 0.247391
N3_9 N 0.92734(8) 0.83195(7) 0.3309(2)
C2_9 C 0.91594(7) 0.65561(7) 0.0018(2)
H1_9 H 0.933033 0.642118 0.043320
C3_9 C 0.91287(7) 0.69251(7) 0.0530(2)
H2_9 H 0.927393 0.709972 0.137746
C6_9 C 0.89326(6) 0.76975(6) 0.09529(19)
C7_9 C 0.87723(7) 0.75435(7) 0.2336(2)
H3_9 H 0.854394 0.722219 0.250960
C8_6 C 0.89490(8) 0.78636(8) 0.3462(2)
H4_6 H 0.883225 0.775181 0.440043
C9_9 C 0.94293(9) 0.84622(8) 0.1984(3)
H5_9 H 0.966187 0.878422 0.184574
C10_9 C 0.92740(7) 0.81704(7) 0.0788(2)
H12_9 H 0.903890 0.497986 0.043113
C8_7 C 0.22824(8) 0.45302(8) 0.0128(2)
H4_7 H 0.216559 0.441847 0.106709
C8_8 C 0.54698(8) 0.77521(11) 0.0128(2)
H4_8 H 0.558153 0.774711 0.106709
C8_9 C 0.22479(11) 0.77176(8) 0.0128(2)
H4_9 H 0.225289 0.783441 0.106709
C28_7 C 0.77176(8) 0.54698(8) 0.9872(2)
H16_7 H 0.783441 0.558153 0.893291
C28_8 C 0.45302(8) 0.22479(11) 0.9872(2)
H16_8 H 0.441847 0.225289 0.893291
C28_9 C 0.77521(11) 0.22824(8) 0.9872(2)
H16_9 H 0.774711 0.216559 0.893291
loop_
_geom_bond_atom_site_label_1
_geom_bond_atom_site_label_2
_geom_bond_site_symmetry_1
_geom_bond_site_symmetry_2
Co1 N1 1_555 1_555
N1 C11 1_555 1_555
N2 Co1 1_555 1_555
N3 C8 1_555 1_555
H2 C3 1_555 1_555
C4 N2 1_555 1_555
C5 C4 1_555 1_555
C6 C5 1_555 1_555
C7 C6 1_555 1_555
H3 C7 1_555 1_555
C8 C7 1_555 1_555
H4 C8 1_555 1_555
C9 N3 1_555 1_555
H5 C9 1_555 1_555
C10 C6 1_555 1_555
H6 C10 1_555 1_555
C11 C5 1_555 1_555
C12 C11 1_555 1_555
H7 C12 1_555 1_555
C13 C12 1_555 1_555
H8 C13 1_555 1_555
C14 N1 1_555 1_555
C3 C4 1_555 1_555
C9 C10 1_555 1_555
C13 C14 1_555 1_555
N3_2 C8_2 1_555 1_555
H1 C2 1_555 1_555
C3_2 C2 1_555 1_555
H2_2 C3_2 1_555 1_555
C7_2 C6_2 1_555 1_555
H3_2 C7_2 1_555 1_555
C8_2 C7_2 1_555 1_555
H4_2 C8_2 1_555 1_555
C9_2 N3_2 1_555 1_555
H5_2 C9_2 1_555 1_555
C10_2 C6_2 1_555 1_555
C9_2 C10_2 1_555 1_555
N8 C35 1_555 1_555
C22 C21 1_555 1_555
H13 C22 1_555 1_555
C35 H21_2 1_555 1_555
C36 C35 1_555 1_555
H22 C36 1_555 1_555
C38 C36 1_555 1_555
C39 C38 1_555 1_555
H23 C39 1_555 1_555
C40 N8 1_555 1_555
H24 C40 1_555 1_555
Co3 N8 1_555 1_555
N9 Co1_2 1_555 1_555
C21 C37 1_555 1_555
C37 C38 1_555 1_555
C39 C40 1_555 1_555
N4 C15 1_555 1_555
C2_2 C1 1_555 1_555
H1_2 C2_2 1_555 1_555
C15 H9 1_555 1_555
C16 C15 1_555 1_555
H10 C16 1_555 1_555
C17 C1 1_555 1_555
C18 C16 1_555 1_555
C19 C18 1_555 1_555
H11 C19 1_555 1_555
C20 N4 1_555 1_555
H12_2 C20 1_555 1_555
Co2 N4 1_555 1_555
N10 Co1_3 1_555 1_555
C17 C18 1_555 1_555
C19 C20 1_555 1_555
N4_2 C15_2 1_555 1_555
C2_3 C1_2 1_555 1_555
H1_3 C2_3 1_555 1_555
C15_2 H9_2 1_555 1_555
C16_2 C15_2 1_555 1_555
H10_2 C16_2 1_555 1_555
C17_2 C1_2 1_555 1_555
C18_2 C16_2 1_555 1_555
C19_2 C18_2 1_555 1_555
H11_2 C19_2 1_555 1_555
C20_2 N4_2 1_555 1_555
H12_3 C20_2 1_555 1_555
Co2_2 N4_2 1_555 1_555
N10_2 Co1_4 1_555 1_555
C17_2 C18_2 1_555 1_555
C19_2 C20_2 1_555 1_555
N8_2 C35_2 1_555 1_555
C22_2 C21_2 1_555 1_555
H13_2 C22_2 1_555 1_555
C35_2 H21_3 1_555 1_555
C36_2 C35_2 1_555 1_555
H22_2 C36_2 1_555 1_555
C38_2 C36_2 1_555 1_555
C39_2 C38_2 1_555 1_555
H23_2 C39_2 1_555 1_555
C40_2 N8_2 1_555 1_555
H24_2 C40_2 1_555 1_555
Co3_2 N8_2 1_555 1_555
N9_2 Co1_5 1_555 1_555
C21_2 C37_2 1_555 1_555
C37_2 C38_2 1_555 1_555
C39_2 C40_2 1_555 1_555
Co1_6 N1_2 1_555 1_555
N1_2 C11_2 1_555 1_555
N2_2 Co1_6 1_555 1_555
N3_3 C8_3 1_555 1_555
N4_3 C15_3 1_555 1_555
C1_3 N2_2 1_555 1_555
C2_4 C1_3 1_555 1_555
H1_4 C2_4 1_555 1_555
C3_3 C2_4 1_555 1_555
H2_3 C3_3 1_555 1_555
C4_2 N2_2 1_555 1_555
C5_2 C4_2 1_555 1_555
C6_3 C5_2 1_555 1_555
C7_3 C6_3 1_555 1_555
H3_3 C7_3 1_555 1_555
C8_3 C7_3 1_555 1_555
H4_3 C8_3 1_555 1_555
C9_3 N3_3 1_555 1_555
H5_3 C9_3 1_555 1_555
C10_3 C6_3 1_555 1_555
H6_2 C10_3 1_555 1_555
C11_2 C5_2 1_555 1_555
C12_2 C11_2 1_555 1_555
H7_2 C12_2 1_555 1_555
C13_2 C12_2 1_555 1_555
H8_2 C13_2 1_555 1_555
C14_2 N1_2 1_555 1_555
C15_3 H9_3 1_555 1_555
C16_3 C15_3 1_555 1_555
H10_3 C16_3 1_555 1_555
C17_3 C1_3 1_555 1_555
C18_3 C16_3 1_555 1_555
C19_3 C18_3 1_555 1_555
H11_3 C19_3 1_555 1_555
C20_3 N4_3 1_555 1_555
H12_4 C20_3 1_555 1_555
Co2_3 N4_3 1_555 1_555
N10_3 Co1_6 1_555 1_555
C3_3 C4_2 1_555 1_555
C9_3 C10_3 1_555 1_555
C13_2 C14_2 1_555 1_555
C17_3 C18_3 1_555 1_555
C19_3 C20_3 1_555 1_555
N5 Co1_7 1_555 1_555
N6 Co1_7 1_555 1_555
N7 C28 1_555 1_555
N8_3 C35_3 1_555 1_555
C21_3 N6 1_555 1_555
C22_3 C21_3 1_555 1_555
H13_3 C22_3 1_555 1_555
C23 C22_3 1_555 1_555
H14 C23 1_555 1_555
C24 N6 1_555 1_555
C25 C24 1_555 1_555
C26 C25 1_555 1_555
C27 C26 1_555 1_555
H15 C27 1_555 1_555
C28 C27 1_555 1_555
H16 C28 1_555 1_555
C29 N7 1_555 1_555
H17 C29 1_555 1_555
C30 C26 1_555 1_555
H18 C30 1_555 1_555
C31 N5 1_555 1_555
C32 C31 1_555 1_555
H19 C32 1_555 1_555
C33 C32 1_555 1_555
H20 C33 1_555 1_555
C35_3 H21_4 1_555 1_555
C36_3 C35_3 1_555 1_555
H22_3 C36_3 1_555 1_555
C38_3 C36_3 1_555 1_555
C39_3 C38_3 1_555 1_555
H23_3 C39_3 1_555 1_555
C40_3 N8_3 1_555 1_555
H24_3 C40_3 1_555 1_555
Co3_3 N8_3 1_555 1_555
N9_3 Co1_7 1_555 1_555
N5 C34 1_555 1_555
C21_3 C37_3 1_555 1_555
C23 C24 1_555 1_555
C25 C31 1_555 1_555
C29 C30 1_555 1_555
C33 C34 1_555 1_555
C37_3 C38_3 1_555 1_555
C39_3 C40_3 1_555 1_555
Co2_3 N1_3 1_555 1_555
N1_3 C11_3 1_555 1_555
N2_3 Co2_3 1_555 1_555
N4_4 C15_4 1_555 1_555
C1_4 N2_3 1_555 1_555
C2_5 C1_4 1_555 1_555
H1_5 C2_5 1_555 1_555
C3_4 C2_5 1_555 1_555
H2_4 C3_4 1_555 1_555
C4_3 N2_3 1_555 1_555
C5_3 C4_3 1_555 1_555
C6_4 C5_3 1_555 1_555
C7_4 C6_4 1_555 1_555
H3_4 C7_4 1_555 1_555
C9_4 N3_4 1_555 1_555
H5_4 C9_4 1_555 1_555
C10_4 C6_4 1_555 1_555
H6_3 C10_4 1_555 1_555
C11_3 C5_3 1_555 1_555
C12_3 C11_3 1_555 1_555
H7_3 C12_3 1_555 1_555
C13_3 C12_3 1_555 1_555
H8_3 C13_3 1_555 1_555
C14_3 N1_3 1_555 1_555
C15_4 H9_4 1_555 1_555
C16_4 C15_4 1_555 1_555
H10_4 C16_4 1_555 1_555
C17_4 C1_4 1_555 1_555
C18_4 C16_4 1_555 1_555
C19_4 C18_4 1_555 1_555
H11_4 C19_4 1_555 1_555
C20_4 N4_4 1_555 1_555
H12_5 C20_4 1_555 1_555
N5_2 Co2_3 1_555 1_555
N6_2 Co2_3 1_555 1_555
N10_2 C35_4 1_555 1_555
C21_4 N6_2 1_555 1_555
C24_2 N6_2 1_555 1_555
C25_2 C24_2 1_555 1_555
C31_2 N5_2 1_555 1_555
C32_2 C31_2 1_555 1_555
H19_2 C32_2 1_555 1_555
C33_2 C32_2 1_555 1_555
H20_2 C33_2 1_555 1_555
C34_2 C17_4 1_555 1_555
C36_4 C35_4 1_555 1_555
H22_4 C36_4 1_555 1_555
C37_4 C14_3 1_555 1_555
C38_4 C36_4 1_555 1_555
C39_4 C38_4 1_555 1_555
H23_4 C39_4 1_555 1_555
C40_4 N10_2 1_555 1_555
Co3 N4_4 1_555 1_555
N10_4 Co2_3 1_555 1_555
C3_4 C4_3 1_555 1_555
C9_4 C10_4 1_555 1_555
C13_3 C14_3 1_555 1_555
C17_4 C18_4 1_555 1_555
C19_4 C20_4 1_555 1_555
N5_2 C34_2 1_555 1_555
C21_4 C37_4 1_555 1_555
C25_2 C31_2 1_555 1_555
C33_2 C34_2 1_555 1_555
C37_4 C38_4 1_555 1_555
C39_4 C40_4 1_555 1_555
N4_5 C15_5 1_555 1_555
C15_5 H9_5 1_555 1_555
C16_5 C15_5 1_555 1_555
H10_5 C16_5 1_555 1_555
C20_5 N4_5 1_555 1_555
H12_6 C20_5 1_555 1_555
Co3_2 N4_5 1_555 1_555
C19_5 C20_5 1_555 1_555
Co2 N1_4 1_555 1_555
N1_4 C11_4 1_555 1_555
N2_4 Co2 1_555 1_555
C1_5 N2_4 1_555 1_555
C2_6 C1_5 1_555 1_555
H1_6 C2_6 1_555 1_555
C3_5 C2_6 1_555 1_555
H2_5 C3_5 1_555 1_555
C4_4 N2_4 1_555 1_555
C5_4 C4_4 1_555 1_555
C6_5 C5_4 1_555 1_555
C7_5 C6_5 1_555 1_555
H3_5 C7_5 1_555 1_555
C9_5 N3_5 1_555 1_555
H5_5 C9_5 1_555 1_555
C10_5 C6_5 1_555 1_555
H6_4 C10_5 1_555 1_555
C11_4 C5_4 1_555 1_555
C12_4 C11_4 1_555 1_555
H7_4 C12_4 1_555 1_555
C13_4 C12_4 1_555 1_555
H8_4 C13_4 1_555 1_555
C14_4 N1_4 1_555 1_555
C17_5 C1_5 1_555 1_555
N5_3 Co2 1_555 1_555
N6_3 Co2 1_555 1_555
N10_3 C35_5 1_555 1_555
C21_5 N6_3 1_555 1_555
C24_3 N6_3 1_555 1_555
C25_3 C24_3 1_555 1_555
C31_3 N5_3 1_555 1_555
C32_3 C31_3 1_555 1_555
H19_3 C32_3 1_555 1_555
C33_3 C32_3 1_555 1_555
C34_3 C17_5 1_555 1_555
C35_5 H21_5 1_555 1_555
C36_5 C35_5 1_555 1_555
H22_5 C36_5 1_555 1_555
C37_5 C14_4 1_555 1_555
C38_5 C36_5 1_555 1_555
C39_5 C38_5 1_555 1_555
H23_5 C39_5 1_555 1_555
C40_5 N10_3 1_555 1_555
N10_5 Co2 1_555 1_555
C3_5 C4_4 1_555 1_555
C9_5 C10_5 1_555 1_555
C13_4 C14_4 1_555 1_555
C17_5 C18_5 1_555 1_555
N5_3 C34_3 1_555 1_555
C21_5 C37_5 1_555 1_555
C25_3 C31_3 1_555 1_555
C33_3 C34_3 1_555 1_555
C37_5 C38_5 1_555 1_555
C39_5 C40_5 1_555 1_555
N7_2 C28_2 1_555 1_555
H13_4 C22_4 1_555 1_555
C23_2 C22_4 1_555 1_555
H14_2 C23_2 1_555 1_555
C27_2 C26_2 1_555 1_555
H15_2 C27_2 1_555 1_555
C28_2 C27_2 1_555 1_555
H16_2 C28_2 1_555 1_555
C29_2 N7_2 1_555 1_555
H17_2 C29_2 1_555 1_555
C30_2 C26_2 1_555 1_555
C29_2 C30_2 1_555 1_555
Co2_2 N1_5 1_555 1_555
N1_5 C11_5 1_555 1_555
N2_5 Co2_2 1_555 1_555
C1_6 N2_5 1_555 1_555
C2_7 C1_6 1_555 1_555
H1_7 C2_7 1_555 1_555
C3_6 C2_7 1_555 1_555
H2_6 C3_6 1_555 1_555
C4_5 N2_5 1_555 1_555
C5_5 C4_5 1_555 1_555
C6_6 C5_5 1_555 1_555
C7_6 C6_6 1_555 1_555
H3_6 C7_6 1_555 1_555
C9_6 N3_6 1_555 1_555
H5_6 C9_6 1_555 1_555
C10_6 C6_6 1_555 1_555
H6_5 C10_6 1_555 1_555
C11_5 C5_5 1_555 1_555
C12_5 C11_5 1_555 1_555
H7_5 C12_5 1_555 1_555
C13_5 C12_5 1_555 1_555
H8_5 C13_5 1_555 1_555
C14_5 N1_5 1_555 1_555
C17_6 C1_6 1_555 1_555
N5_4 Co2_2 1_555 1_555
N6_4 Co2_2 1_555 1_555
N10 C35_6 1_555 1_555
C21_6 N6_4 1_555 1_555
C24_4 N6_4 1_555 1_555
C25_4 C24_4 1_555 1_555
C31_4 N5_4 1_555 1_555
C32_4 C31_4 1_555 1_555
H19_4 C32_4 1_555 1_555
C33_4 C32_4 1_555 1_555
C34_4 C17_6 1_555 1_555
C36_6 C35_6 1_555 1_555
H22_6 C36_6 1_555 1_555
C37_6 C14_5 1_555 1_555
C38_6 C36_6 1_555 1_555
C39_6 C38_6 1_555 1_555
H23_6 C39_6 1_555 1_555
C40_6 N10 1_555 1_555
N10_6 Co2_2 1_555 1_555
C3_6 C4_5 1_555 1_555
C9_6 C10_6 1_555 1_555
C13_5 C14_5 1_555 1_555
C17_6 C18_6 1_555 1_555
N5_4 C34_4 1_555 1_555
C21_6 C37_6 1_555 1_555
C25_4 C31_4 1_555 1_555
C33_4 C34_4 1_555 1_555
C37_6 C38_6 1_555 1_555
C39_6 C40_6 1_555 1_555
N4_6 C15_6 1_555 1_555
C15_6 H9_6 1_555 1_555
C16_6 C15_6 1_555 1_555
H10_6 C16_6 1_555 1_555
C20_6 N4_6 1_555 1_555
H12_7 C20_6 1_555 1_555
Co3_3 N4_6 1_555 1_555
C19_6 C20_6 1_555 1_555
Co3_3 N1_6 1_555 1_555
N1_6 C11_6 1_555 1_555
N2_6 Co3_3 1_555 1_555
N9_2 C15_7 1_555 1_555
C1_7 N2_6 1_555 1_555
C4_6 N2_6 1_555 1_555
C5_6 C4_6 1_555 1_555
C11_6 C5_6 1_555 1_555
C12_6 C11_6 1_555 1_555
H7_6 C12_6 1_555 1_555
C13_6 C12_6 1_555 1_555
H8_6 C13_6 1_555 1_555
C14_6 N1_6 1_555 1_555
C16_7 C15_7 1_555 1_555
H10_7 C16_7 1_555 1_555
C17_7 C1_7 1_555 1_555
C18_7 C16_7 1_555 1_555
C19_7 C18_7 1_555 1_555
H11_7 C19_7 1_555 1_555
C20_7 N9_2 1_555 1_555
N5_5 Co3_3 1_555 1_555
N6_5 Co3_3 1_555 1_555
N10_5 C35_7 1_555 1_555
C21_7 N6_5 1_555 1_555
C22_5 C21_7 1_555 1_555
H13_5 C22_5 1_555 1_555
C23_3 C22_5 1_555 1_555
H14_3 C23_3 1_555 1_555
C24_5 N6_5 1_555 1_555
C25_5 C24_5 1_555 1_555
C26_3 C25_5 1_555 1_555
C27_3 C26_3 1_555 1_555
H15_3 C27_3 1_555 1_555
C29_3 N7_3 1_555 1_555
H17_3 C29_3 1_555 1_555
C30_3 C26_3 1_555 1_555
H18_5 C30_3 1_555 1_555
C31_5 N5_5 1_555 1_555
C32_5 C31_5 1_555 1_555
H19_5 C32_5 1_555 1_555
C33_5 C32_5 1_555 1_555
H20_5 C33_5 1_555 1_555
C34_5 C17_7 1_555 1_555
C35_7 H21_6 1_555 1_555
C36_7 C35_7 1_555 1_555
H22_7 C36_7 1_555 1_555
C37_7 C14_6 1_555 1_555
C38_7 C36_7 1_555 1_555
C39_7 C38_7 1_555 1_555
H23_7 C39_7 1_555 1_555
C40_7 N10_5 1_555 1_555
H24_5 C40_7 1_555 1_555
C13_6 C14_6 1_555 1_555
C17_7 C18_7 1_555 1_555
C19_7 C20_7 1_555 1_555
N5_5 C34_5 1_555 1_555
C21_7 C37_7 1_555 1_555
C23_3 C24_5 1_555 1_555
C25_5 C31_5 1_555 1_555
C29_3 C30_3 1_555 1_555
C33_5 C34_5 1_555 1_555
C37_7 C38_7 1_555 1_555
C39_7 C40_7 1_555 1_555
N3_7 C8_4 1_555 1_555
H1_8 C2_8 1_555 1_555
C3_7 C2_8 1_555 1_555
H2_7 C3_7 1_555 1_555
C7_7 C6_7 1_555 1_555
H3_7 C7_7 1_555 1_555
C8_4 C7_7 1_555 1_555
H4_4 C8_4 1_555 1_555
C9_7 N3_7 1_555 1_555
H5_7 C9_7 1_555 1_555
C10_7 C6_7 1_555 1_555
C9_7 C10_7 1_555 1_555
Co3 N1_7 1_555 1_555
N1_7 C11_7 1_555 1_555
N2_7 Co3 1_555 1_555
N9_3 C15_8 1_555 1_555
C1_8 N2_7 1_555 1_555
C4_7 N2_7 1_555 1_555
C5_7 C4_7 1_555 1_555
C11_7 C5_7 1_555 1_555
C12_7 C11_7 1_555 1_555
H7_7 C12_7 1_555 1_555
C13_7 C12_7 1_555 1_555
C14_7 N1_7 1_555 1_555
C15_8 H9_7 1_555 1_555
C16_8 C15_8 1_555 1_555
H10_8 C16_8 1_555 1_555
C17_8 C1_8 1_555 1_555
C18_8 C16_8 1_555 1_555
C19_8 C18_8 1_555 1_555
H11_8 C19_8 1_555 1_555
C20_8 N9_3 1_555 1_555
N5_6 Co3 1_555 1_555
N6_6 Co3 1_555 1_555
C21_8 N6_6 1_555 1_555
C22_6 C21_8 1_555 1_555
H13_6 C22_6 1_555 1_555
C23_4 C22_6 1_555 1_555
H14_4 C23_4 1_555 1_555
C24_6 N6_6 1_555 1_555
C25_6 C24_6 1_555 1_555
C26_4 C25_6 1_555 1_555
C27_4 C26_4 1_555 1_555
H15_4 C27_4 1_555 1_555
C29_4 N7_4 1_555 1_555
H17_4 C29_4 1_555 1_555
C30_4 C26_4 1_555 1_555
H18_6 C30_4 1_555 1_555
C31_6 N5_6 1_555 1_555
C32_6 C31_6 1_555 1_555
H19_6 C32_6 1_555 1_555
C33_6 C32_6 1_555 1_555
H20_6 C33_6 1_555 1_555
C34_6 C17_8 1_555 1_555
C37_8 C14_7 1_555 1_555
C13_7 C14_7 1_555 1_555
C17_8 C18_8 1_555 1_555
C19_8 C20_8 1_555 1_555
N5_6 C34_6 1_555 1_555
C21_8 C37_8 1_555 1_555
C23_4 C24_6 1_555 1_555
C25_6 C31_6 1_555 1_555
C29_4 C30_4 1_555 1_555
C33_6 C34_6 1_555 1_555
C37_8 C38_8 1_555 1_555
N10_6 C35_8 1_555 1_555
C35_8 H21_7 1_555 1_555
C36_8 C35_8 1_555 1_555
H22_8 C36_8 1_555 1_555
C40_8 N10_6 1_555 1_555
H24_6 C40_8 1_555 1_555
C39_8 C40_8 1_555 1_555
N10_4 C35_9 1_555 1_555
C35_9 H21_8 1_555 1_555
C36_9 C35_9 1_555 1_555
H22_9 C36_9 1_555 1_555
C40_9 N10_4 1_555 1_555
H24_7 C40_9 1_555 1_555
C39_9 C40_9 1_555 1_555
Co3_2 N1_8 1_555 1_555
N1_8 C11_8 1_555 1_555
N2_8 Co3_2 1_555 1_555
N9 C15_9 1_555 1_555
C1_9 N2_8 1_555 1_555
C4_8 N2_8 1_555 1_555
C5_8 C4_8 1_555 1_555
C11_8 C5_8 1_555 1_555
C12_8 C11_8 1_555 1_555
H7_8 C12_8 1_555 1_555
C13_8 C12_8 1_555 1_555
C14_8 N1_8 1_555 1_555
C16_9 C15_9 1_555 1_555
H10_9 C16_9 1_555 1_555
C17_9 C1_9 1_555 1_555
C18_9 C16_9 1_555 1_555
C19_9 C18_9 1_555 1_555
H11_9 C19_9 1_555 1_555
C20_9 N9 1_555 1_555
N5_7 Co3_2 1_555 1_555
N6_7 Co3_2 1_555 1_555
C21_9 N6_7 1_555 1_555
C22_7 C21_9 1_555 1_555
H13_7 C22_7 1_555 1_555
C23_5 C22_7 1_555 1_555
H14_5 C23_5 1_555 1_555
C24_7 N6_7 1_555 1_555
C25_7 C24_7 1_555 1_555
C26_5 C25_7 1_555 1_555
C27_5 C26_5 1_555 1_555
H15_5 C27_5 1_555 1_555
C29_5 N7_5 1_555 1_555
H17_5 C29_5 1_555 1_555
C30_5 C26_5 1_555 1_555
H18_7 C30_5 1_555 1_555
C31_7 N5_7 1_555 1_555
C32_7 C31_7 1_555 1_555
H19_7 C32_7 1_555 1_555
C33_7 C32_7 1_555 1_555
H20_7 C33_7 1_555 1_555
C34_7 C17_9 1_555 1_555
C37_9 C14_8 1_555 1_555
C13_8 C14_8 1_555 1_555
C17_9 C18_9 1_555 1_555
C19_9 C20_9 1_555 1_555
N5_7 C34_7 1_555 1_555
C21_9 C37_9 1_555 1_555
C23_5 C24_7 1_555 1_555
C25_7 C31_7 1_555 1_555
C29_5 C30_5 1_555 1_555
C33_7 C34_7 1_555 1_555
C37_9 C38_9 1_555 1_555
N5_8 Co1_8 1_555 1_555
N6_8 Co1_8 1_555 1_555
N7_6 C28_3 1_555 1_555
H14_6 C23_6 1_555 1_555
C24_8 N6_8 1_555 1_555
C25_8 C24_8 1_555 1_555
C26_6 C25_8 1_555 1_555
C27_6 C26_6 1_555 1_555
H15_6 C27_6 1_555 1_555
C28_3 C27_6 1_555 1_555
H16_3 C28_3 1_555 1_555
C29_6 N7_6 1_555 1_555
H17_6 C29_6 1_555 1_555
C30_6 C26_6 1_555 1_555
H18_8 C30_6 1_555 1_555
C31_8 N5_8 1_555 1_555
C32_8 C31_8 1_555 1_555
H19_8 C32_8 1_555 1_555
C33_8 C32_8 1_555 1_555
H20_8 C33_8 1_555 1_555
N5_8 C34_8 1_555 1_555
C23_6 C24_8 1_555 1_555
C25_8 C31_8 1_555 1_555
C29_6 C30_6 1_555 1_555
C33_8 C34_8 1_555 1_555
N7_7 C28_4 1_555 1_555
H13_8 C22_8 1_555 1_555
C23_7 C22_8 1_555 1_555
H14_7 C23_7 1_555 1_555
C27_7 C26_7 1_555 1_555
H15_7 C27_7 1_555 1_555
C28_4 C27_7 1_555 1_555
H16_4 C28_4 1_555 1_555
C29_7 N7_7 1_555 1_555
H17_7 C29_7 1_555 1_555
C30_7 C26_7 1_555 1_555
C29_7 C30_7 1_555 1_555
N5_9 Co1_9 1_555 1_555
N6_9 Co1_9 1_555 1_555
N7_8 C28_5 1_555 1_555
H14_8 C23_8 1_555 1_555
C24_9 N6_9 1_555 1_555
C25_9 C24_9 1_555 1_555
C26_8 C25_9 1_555 1_555
C27_8 C26_8 1_555 1_555
H15_8 C27_8 1_555 1_555
C28_5 C27_8 1_555 1_555
H16_5 C28_5 1_555 1_555
C29_8 N7_8 1_555 1_555
H17_8 C29_8 1_555 1_555
C30_8 C26_8 1_555 1_555
H18_9 C30_8 1_555 1_555
C31_9 N5_9 1_555 1_555
C32_9 C31_9 1_555 1_555
H19_9 C32_9 1_555 1_555
C33_9 C32_9 1_555 1_555
H20_9 C33_9 1_555 1_555
N5_9 C34_9 1_555 1_555
C23_8 C24_9 1_555 1_555
C25_9 C31_9 1_555 1_555
C29_8 C30_8 1_555 1_555
C33_9 C34_9 1_555 1_555
N7_9 C28_6 1_555 1_555
H13_9 C22_9 1_555 1_555
C23_9 C22_9 1_555 1_555
H14_9 C23_9 1_555 1_555
C27_9 C26_9 1_555 1_555
H15_9 C27_9 1_555 1_555
C28_6 C27_9 1_555 1_555
H16_6 C28_6 1_555 1_555
C29_9 N7_9 1_555 1_555
H17_9 C29_9 1_555 1_555
C30_9 C26_9 1_555 1_555
C29_9 C30_9 1_555 1_555
Co1_10 N1_9 1_555 1_555
N1_9 C11_9 1_555 1_555
N2_9 Co1_10 1_555 1_555
N3_8 C8_5 1_555 1_555
H2_8 C3_8 1_555 1_555
C4_9 N2_9 1_555 1_555
C5_9 C4_9 1_555 1_555
C6_8 C5_9 1_555 1_555
C7_8 C6_8 1_555 1_555
H3_8 C7_8 1_555 1_555
C8_5 C7_8 1_555 1_555
H4_5 C8_5 1_555 1_555
C9_8 N3_8 1_555 1_555
H5_8 C9_8 1_555 1_555
C10_8 C6_8 1_555 1_555
H6_9 C10_8 1_555 1_555
C11_9 C5_9 1_555 1_555
C12_9 C11_9 1_555 1_555
H7_9 C12_9 1_555 1_555
C13_9 C12_9 1_555 1_555
H8_9 C13_9 1_555 1_555
C14_9 N1_9 1_555 1_555
C3_8 C4_9 1_555 1_555
C9_8 C10_8 1_555 1_555
C13_9 C14_9 1_555 1_555
N3_9 C8_6 1_555 1_555
H1_9 C2_9 1_555 1_555
C3_9 C2_9 1_555 1_555
H2_9 C3_9 1_555 1_555
C7_9 C6_9 1_555 1_555
H3_9 C7_9 1_555 1_555
C8_6 C7_9 1_555 1_555
H4_6 C8_6 1_555 1_555
C9_9 N3_9 1_555 1_555
H5_9 C9_9 1_555 1_555
C10_9 C6_9 1_555 1_555
C9_9 C10_9 1_555 1_555
H4_7 C8_7 1_555 1_555
H4_8 C8_8 1_555 1_555
H4_9 C8_9 1_555 1_555
H16_7 C28_7 1_555 1_555
H16_8 C28_8 1_555 1_555
H16_9 C28_9 1_555 1_555

#END
