
###############################################################################
#
# This file contains modified crystal structure data generated from the
# MOF subset of the Cambridge Structural Database (CSD) v543 
# hosted by the Cambridge Crystallographic Data Centre (CCDC).
#
# This work is licensed under the Creative Commons
# Attribution-NonCommercial-ShareAlike 4.0 International License.
# To view a copy of this license, visit
# http://creativecommons.org/licenses/by-nc-sa/4.0/
# or send a letter to
# Creative Commons, PO Box 1866, Mountain View, CA 94042, USA.
#
# CIF created using the CSD Python API on 29 September 2022
# The structure has been converted into the P1 space group
# The structure has a 3D framework
# The original CSD entry YURKIG is in the monoclinic crystal system
# The framework has been calculated to contain at least 10.0% void space
# The void calculation uses a probe of radius 1.32A, grid spacing 0.4
#
###############################################################################

data_YURKIG
_chemical_formula_moiety         '(C432 H368 N32 O176 Pr16 S24)n'
_symmetry_cell_setting           triclinic
_symmetry_space_group_name_H-M   'P 1'
_symmetry_Int_Tables_number      1
_space_group_name_Hall           'P 1'
loop_
_symmetry_equiv_pos_site_id
_symmetry_equiv_pos_as_xyz
1 x,y,z
_cell_length_a                   35.0141(19)
_cell_length_b                   14.9351(8)
_cell_length_c                   30.3411(17)
_cell_angle_alpha                90
_cell_angle_beta                 97.4220(10)
_cell_angle_gamma                90
_cell_volume                     15733.6
loop_
_atom_site_label
_atom_site_type_symbol
_atom_site_fract_x
_atom_site_fract_y
_atom_site_fract_z
O12 O 0.09389(9) 0.29944(18) 0.83696(10)
O15 O 0.15718(10) 0.30600(19) 0.85948(11)
C7 C 0.16348(10) 0.1187(2) 0.85118(13)
H3 H 0.1868 0.1493 0.8543
C18 C 0.12616(10) 0.2645(2) 0.84736(11)
C19 C 0.12894(10) 0.1643(2) 0.84646(12)
C25 C 0.16247(10) 0.0250(2) 0.85118(14)
C46 C 0.09356(14) 0.1153(3) 0.8412(2)
H26 H 0.0703 0.1461 0.8375
C48 C 0.09343(13) 0.0230(3) 0.8415(3)
Pr4 Pr 0.085195(4) 0.460951(10) 0.841651(5)
Pr7 Pr 0.206790(4) 0.414730(10) 0.855500(5)
Pr2 Pr 0.206790(4) 0.585270(10) 0.355500(5)
S2 S 0.20262(3) 0.95190(6) 0.85589(4)
S3 S 0.09261(3) 0.52383(8) 0.59127(3)
O1 O 0.02156(7) 0.41516(16) 0.80337(8)
O2 O 0.10938(8) 0.4385(2) 0.77003(8)
O3 O 0.06085(8) 0.58497(18) 0.79007(11)
O4 O 0.11742(7) 0.5637(2) 0.41628(8)
O5 O 0.18131(7) 0.5387(2) 0.42283(8)
O6 O 0.02905(7) 0.38722(19) 0.87576(8)
O8 O 0.17244(9) 0.4062(2) 0.78237(9)
O9 O 0.14381(7) 0.54534(15) 0.84540(9)
O13 O 0.06027(9) 0.5779(2) 0.88771(11)
O14 O 0.20479(7) 0.58427(16) 0.85415(10)
O17 O 0.22634(11) 0.9637(2) 0.89773(16)
O18 O 0.09341(13) 0.6182(3) 0.59860(12)
O19 O 0.05531(9) 0.4829(4) 0.58193(11)
O20 O 0.22163(12) 0.9550(2) 0.81688(16)
O21 O 0.23683(9) 0.6782(2) 0.41873(11)
O22 O 0.23780(9) 0.7213(2) 0.32678(12)
N1 N 0.04593(17) 0.6309(4) 0.95344(15)
N2 N 0.04189(12) 0.6426(2) 0.72116(15)
N3 N 0.28030(19) 0.7810(4) 0.4449(3)
N4 N 0.27142(13) 0.8071(4) 0.2832(2)
C2 C 0.01053(8) 0.3795(2) 0.83763(10)
C4 C 0.15376(9) 0.4289(2) 0.61895(11)
C5 C 0.15460(9) 0.4442(2) 0.57086(11)
C9 C 0.15851(10) 0.7009(2) 0.85205(14)
C11 C 0.14904(9) 0.5016(2) 0.48280(10)
C12 C 0.14432(10) 0.4242(2) 0.70861(10)
C13 C 0.14152(10) 0.4226(2) 0.75760(10)
C15 C 0.14908(9) 0.5372(2) 0.43685(10)
C21 C 0.18052(11) 0.4504(3) 0.50225(12)
H7 H 0.2001 0.4368 0.4854
C22 C 0.11643(10) 0.4657(2) 0.67903(11)
H8 H 0.0947 0.4913 0.6886
C24 C 0.12319(9) 0.4943(3) 0.55152(11)
C26 C 0.17322(10) 0.8559(2) 0.85525(13)
C27 C 0.16987(9) 0.60454(19) 0.85091(11)
C28 C 0.12204(9) 0.4678(2) 0.63468(11)
C29 C 0.11908(10) 0.5218(3) 0.50727(11)
H9 H 0.0972 0.5523 0.4946
C31 C 0.04613(10) 0.5771(2) 0.75052(13)
H11 H 0.0375 0.5206 0.7410
C32 C 0.3207(7) 0.8039(18) 0.4550(9)
H12 H 0.3296 0.7884 0.4852
H13 H 0.3353 0.7715 0.4355
H14 H 0.3239 0.8670 0.4508
C33 C 0.18329(11) 0.4196(3) 0.54569(12)
H15 H 0.2037 0.3836 0.5576
C36 C 0.18640(11) 0.7675(2) 0.85710(13)
H16 H 0.2125 0.7540 0.8615
C37 C 0.17626(10) 0.3845(3) 0.69291(12)
H17 H 0.1949 0.3572 0.7132
C38 C 0.13441(11) 0.8791(3) 0.84919(19)
C39 C 0.18109(11) 0.3844(3) 0.64820(12)
H18 H 0.2019 0.3556 0.6382
C40 C 0.12793(11) 0.9775(2) 0.84669(19)
C41 C 0.11865(12) 0.7239(3) 0.8474(2)
H19 H 0.1002 0.6787 0.8449
C42 C 0.03963(13) 0.5767(3) 0.91903(15)
H20 H 0.0193 0.5362 0.9177
C43 C 0.2537(3) 0.8408(4) 0.4585(2)
H21 H 0.2392 0.8116 0.4791
H22 H 0.2670 0.8914 0.4727
H23 H 0.2365 0.8606 0.4332
C44 C 0.10694(13) 0.8125(3) 0.8464(3)
H24 H 0.0809 0.8269 0.8439
C45 C 0.25131(14) 0.7366(5) 0.29284(19)
H25 H 0.2470 0.6932 0.2708
C47 C 0.02412(12) 0.6310(3) 0.67581(15)
H27 H 0.0240 0.6871 0.6604
H29 H 0.0385 0.5878 0.6612
H30 H 0.0703 0.9917 0.8382
C49 C 0.0774(4) 0.6951(6) 0.9586(3)
H31 H 0.0768 0.7281 0.9856
H32 H 0.0745 0.7357 0.9338
H33 H 0.1014 0.6639 0.9596
C50 C 0.26963(17) 0.7035(4) 0.4264(2)
H34 H 0.2888 0.6657 0.4189
C51 C 0.2814(3) 0.8737(4) 0.3167(5)
H35 H 0.2958 0.9206 0.3048
H36 H 0.2584 0.8982 0.3259
H37 H 0.2968 0.8470 0.3417
C52 C 0.0182(4) 0.6297(10) 0.9866(3)
H39 H 0.0176 0.5709 0.9993
C53 C 0.0572(4) 0.7311(8) 0.7339(4)
H41 H 0.0519 0.7715 0.7093
H42 H 0.0846 0.7270 0.7423
H43 H 0.0453 0.7530 0.7586
C54 C 0.2851(4) 0.8105(9) 0.2393(4)
H44 H 0.2991 0.8651 0.2367
H45 H 0.3017 0.7603 0.2362
H46 H 0.2634 0.8083 0.2165
Pr3 Pr 0.085195(4) 0.539049(10) 0.341651(5)
O23 O 0.11742(7) 0.4363(2) 0.91628(8)
O24 O 0.27362(7) 0.52769(18) 0.37686(9)
O25 O 0.17244(9) 0.5938(2) 0.28237(9)
O26 O 0.14381(7) 0.45466(15) 0.34540(9)
O27 O 0.25387(8) 0.5258(2) 0.30457(10)
O29 O 0.20479(7) 0.41573(16) 0.35415(10)
O30 O 0.15718(10) 0.69400(19) 0.35948(11)
O7 O 0.77362(7) 0.97231(18) 0.87686(9)
O10 O 0.75387(8) 0.9742(2) 0.80457(10)
C14 C 0.77699(9) 0.9967(2) 0.83727(12)
Pr5 Pr 0.706790(4) 0.914730(10) 0.855500(5)
Pr2_2 Pr 0.706790(4) 0.085270(10) 0.355500(5)
S2_2 S 0.70262(3) 0.45190(6) 0.85589(4)
S3_2 S 0.59261(3) 0.02383(8) 0.59127(3)
O3_2 O 0.56085(8) 0.08497(18) 0.79007(11)
O4_2 O 0.61742(7) 0.0637(2) 0.41628(8)
O5_2 O 0.68131(7) 0.0387(2) 0.42283(8)
O9_2 O 0.64381(7) 0.04534(15) 0.84540(9)
O12_2 O 0.59389(9) 0.79944(18) 0.83696(10)
O13_2 O 0.56027(9) 0.0779(2) 0.88771(11)
O14_2 O 0.70479(7) 0.08427(16) 0.85415(10)
O15_2 O 0.65718(10) 0.80600(19) 0.85948(11)
O17_2 O 0.72634(11) 0.4637(2) 0.89773(16)
O18_2 O 0.59341(13) 0.1182(3) 0.59860(12)
O20_2 O 0.72163(12) 0.4550(2) 0.81688(16)
O21_2 O 0.73683(9) 0.1782(2) 0.41873(11)
O22_2 O 0.73780(9) 0.2213(2) 0.32678(12)
N1_2 N 0.54593(17) 0.1309(4) 0.95344(15)
N2_2 N 0.54189(12) 0.1426(2) 0.72116(15)
N3_2 N 0.78030(19) 0.2810(4) 0.4449(3)
N4_2 N 0.77142(13) 0.3071(4) 0.2832(2)
C7_2 C 0.66348(10) 0.6187(2) 0.85118(13)
H3_2 H 0.6868 0.6493 0.8543
C9_2 C 0.65851(10) 0.2009(2) 0.85205(14)
C11_2 C 0.64904(9) 0.0016(2) 0.48280(10)
C15_2 C 0.64908(9) 0.0372(2) 0.43685(10)
C18_2 C 0.62616(10) 0.7645(2) 0.84736(11)
C19_2 C 0.62894(10) 0.6643(2) 0.84646(12)
C25_2 C 0.66247(10) 0.5250(2) 0.85118(14)
C26_2 C 0.67322(10) 0.3559(2) 0.85525(13)
C27_2 C 0.66987(9) 0.10454(19) 0.85091(11)
C29_2 C 0.61908(10) 0.0218(3) 0.50727(11)
H9_2 H 0.5972 0.0523 0.4946
C31_2 C 0.54613(10) 0.0771(2) 0.75052(13)
H11_2 H 0.5375 0.0206 0.7410
C32_2 C 0.8207(7) 0.3039(18) 0.4550(9)
H12_2 H 0.8296 0.2884 0.4852
H13_2 H 0.8353 0.2715 0.4355
H14_2 H 0.8239 0.3670 0.4508
C36_2 C 0.68640(11) 0.2675(2) 0.85710(13)
H16_2 H 0.7125 0.2540 0.8615
C38_2 C 0.63441(11) 0.3791(3) 0.84919(19)
C40_2 C 0.62793(11) 0.4775(2) 0.84669(19)
C41_2 C 0.61865(12) 0.2239(3) 0.8474(2)
H19_2 H 0.6002 0.1787 0.8449
C42_2 C 0.53963(13) 0.0767(3) 0.91903(15)
H20_2 H 0.5193 0.0362 0.9177
C43_2 C 0.7537(3) 0.3408(4) 0.4585(2)
H21_2 H 0.7392 0.3116 0.4791
H22_2 H 0.7670 0.3914 0.4727
H23_2 H 0.7365 0.3606 0.4332
C44_2 C 0.60694(13) 0.3125(3) 0.8464(3)
H24_2 H 0.5809 0.3269 0.8439
C45_2 C 0.75131(14) 0.2366(5) 0.29284(19)
H25_2 H 0.7470 0.1932 0.2708
C46_2 C 0.59356(14) 0.6153(3) 0.8412(2)
H26_2 H 0.5703 0.6461 0.8375
C47_2 C 0.52412(12) 0.1310(3) 0.67581(15)
H27_2 H 0.5240 0.1871 0.6604
H28 H 0.4981 0.1103 0.6757
H29_2 H 0.5385 0.0878 0.6612
C48_2 C 0.59343(13) 0.5230(3) 0.8415(3)
H30_2 H 0.5703 0.4917 0.8382
C49_2 C 0.5774(4) 0.1951(6) 0.9586(3)
H31_2 H 0.5768 0.2281 0.9856
H32_2 H 0.5745 0.2357 0.9338
H33_2 H 0.6014 0.1639 0.9596
C50_2 C 0.76963(17) 0.2035(4) 0.4264(2)
H34_2 H 0.7888 0.1657 0.4189
C51_2 C 0.7814(3) 0.3737(4) 0.3167(5)
H35_2 H 0.7958 0.4206 0.3048
H36_2 H 0.7584 0.3982 0.3259
H37_2 H 0.7968 0.3470 0.3417
C52_2 C 0.5182(4) 0.1297(10) 0.9866(3)
H39_2 H 0.5176 0.0709 0.9993
H40 H 0.4930 0.1453 0.9723
C53_2 C 0.5572(4) 0.2311(8) 0.7339(4)
H41_2 H 0.5519 0.2715 0.7093
H42_2 H 0.5846 0.2270 0.7423
H43_2 H 0.5453 0.2530 0.7586
C54_2 C 0.7851(4) 0.3105(9) 0.2393(4)
H44_2 H 0.7991 0.3651 0.2367
H45_2 H 0.8017 0.2603 0.2362
H46_2 H 0.7634 0.3083 0.2165
Pr3_2 Pr 0.585195(4) 0.039049(10) 0.341651(5)
Pr4_2 Pr 0.585195(4) 0.960951(10) 0.841651(5)
O24_2 O 0.77362(7) 0.02769(18) 0.37686(9)
O25_2 O 0.67244(9) 0.0938(2) 0.28237(9)
O27_2 O 0.75387(8) 0.0258(2) 0.30457(10)
O30_2 O 0.65718(10) 0.19400(19) 0.35948(11)
S1 S 0.40161(2) 0.68526(7) 0.90009(3)
O1_2 O 0.52156(7) 0.91516(16) 0.80337(8)
O2_2 O 0.60938(8) 0.9385(2) 0.77003(8)
O6_2 O 0.52905(7) 0.88722(19) 0.87576(8)
O7_2 O 0.27362(7) 0.47231(18) 0.87686(9)
O8_2 O 0.67244(9) 0.9062(2) 0.78237(9)
O10_2 O 0.25387(8) 0.4742(2) 0.80457(10)
O11 O 0.38622(9) 0.7491(3) 0.92848(10)
O16 O 0.42497(9) 0.6153(3) 0.92146(12)
O19_2 O 0.55531(9) 0.9829(4) 0.58193(11)
C1 C 0.45564(8) 0.8099(2) 0.78779(10)
H1 H 0.4659 0.8341 0.7636
C2_2 C 0.51053(8) 0.8795(2) 0.83763(10)
C3 C 0.33548(10) 0.5861(3) 0.86734(13)
H2 H 0.3321 0.5692 0.8961
C4_2 C 0.65376(9) 0.9289(2) 0.61895(11)
C5_2 C 0.65460(9) 0.9442(2) 0.57086(11)
C6 C 0.40697(8) 0.7228(2) 0.81684(10)
C8 C 0.47428(8) 0.8255(2) 0.83095(10)
C10 C 0.45900(9) 0.7900(2) 0.86787(11)
H4 H 0.4708 0.8000 0.8967
C12_2 C 0.64432(10) 0.9242(2) 0.70861(10)
C13_2 C 0.64152(10) 0.9226(2) 0.75760(10)
C14_2 C 0.27699(9) 0.4967(2) 0.83727(12)
C16 C 0.34689(10) 0.6370(3) 0.78028(12)
H5 H 0.3507 0.6533 0.7516
C17 C 0.42569(9) 0.7397(2) 0.85960(11)
C20 C 0.42226(8) 0.7591(2) 0.78047(11)
H6 H 0.4102 0.7494 0.7517
C21_2 C 0.68052(11) 0.9504(3) 0.50225(12)
H7_2 H 0.7001 0.9368 0.4854
C22_2 C 0.61643(10) 0.9657(2) 0.67903(11)
H8_2 H 0.5947 0.9913 0.6886
C23 C 0.31020(9) 0.5567(2) 0.83050(12)
C24_2 C 0.62319(9) 0.9943(3) 0.55152(11)
C28_2 C 0.62204(9) 0.9678(2) 0.63468(11)
C30 C 0.31592(10) 0.5828(3) 0.78734(13)
H10 H 0.2988 0.5635 0.7632
C33_2 C 0.68329(11) 0.9196(3) 0.54569(12)
H15_2 H 0.7037 0.8836 0.5576
C34 C 0.37210(9) 0.6667(2) 0.81656(11)
C35 C 0.36563(9) 0.6409(2) 0.85939(11)
C37_2 C 0.67626(10) 0.8845(3) 0.69291(12)
H17_2 H 0.6949 0.8572 0.7132
C39_2 C 0.68109(11) 0.8844(3) 0.64820(12)
H18_2 H 0.7019 0.8556 0.6382
O23_2 O 0.61742(7) 0.9363(2) 0.91628(8)
O26_2 O 0.64381(7) 0.95466(15) 0.34540(9)
O29_2 O 0.70479(7) 0.91573(16) 0.35415(10)
S2_3 S 0.20262(3) 0.04810(6) 0.35589(4)
S3_3 S 0.09261(3) 0.47617(8) 0.09127(3)
O1_3 O 0.02156(7) 0.58484(16) 0.30337(8)
O2_3 O 0.10938(8) 0.5615(2) 0.27003(8)
O3_3 O 0.06085(8) 0.41503(18) 0.29007(11)
O6_3 O 0.02905(7) 0.61278(19) 0.37576(8)
O13_3 O 0.06027(9) 0.4221(2) 0.38771(11)
O17_3 O 0.22634(11) 0.0363(2) 0.39773(16)
O18_3 O 0.09341(13) 0.3818(3) 0.09860(12)
O19_3 O 0.05531(9) 0.5171(4) 0.08193(11)
O20_3 O 0.22163(12) 0.0450(2) 0.31688(16)
N1_3 N 0.04593(17) 0.3691(4) 0.45344(15)
N2_3 N 0.04189(12) 0.3574(2) 0.22116(15)
C2_3 C 0.01053(8) 0.6205(2) 0.33763(10)
C4_3 C 0.15376(9) 0.5711(2) 0.11895(11)
C5_3 C 0.15460(9) 0.5558(2) 0.07086(11)
C9_3 C 0.15851(10) 0.2991(2) 0.35205(14)
C12_3 C 0.14432(10) 0.5758(2) 0.20861(10)
C13_3 C 0.14152(10) 0.5774(2) 0.25760(10)
C21_3 C 0.18052(11) 0.5496(3) 0.00225(12)
C22_3 C 0.11643(10) 0.5343(2) 0.17903(11)
H8_3 H 0.0947 0.5087 0.1886
C24_3 C 0.12319(9) 0.5057(3) 0.05152(11)
C26_3 C 0.17322(10) 0.1441(2) 0.35525(13)
C27_3 C 0.16987(9) 0.39546(19) 0.35091(11)
C28_3 C 0.12204(9) 0.5322(2) 0.13468(11)
C29_3 C 0.11908(10) 0.4782(3) 0.00727(11)
C31_3 C 0.04613(10) 0.4229(2) 0.25052(13)
H11_3 H 0.0375 0.4794 0.2410
C33_3 C 0.18329(11) 0.5804(3) 0.04569(12)
H15_3 H 0.2037 0.6164 0.0576
C36_3 C 0.18640(11) 0.2325(2) 0.35710(13)
H16_3 H 0.2125 0.2460 0.3615
C37_3 C 0.17626(10) 0.6155(3) 0.19291(12)
H17_3 H 0.1949 0.6428 0.2132
C38_3 C 0.13441(11) 0.1209(3) 0.34919(19)
C39_3 C 0.18109(11) 0.6156(3) 0.14820(12)
H18_3 H 0.2019 0.6444 0.1382
C40_3 C 0.12793(11) 0.0225(2) 0.34669(19)
C41_3 C 0.11865(12) 0.2761(3) 0.3474(2)
H19_3 H 0.1002 0.3213 0.3449
C42_3 C 0.03963(13) 0.4233(3) 0.41903(15)
H20_3 H 0.0193 0.4638 0.4177
C44_3 C 0.10694(13) 0.1875(3) 0.3464(3)
H24_3 H 0.0809 0.1731 0.3439
C47_3 C 0.02412(12) 0.3690(3) 0.17581(15)
H27_3 H 0.0240 0.3129 0.1604
H29_3 H 0.0385 0.4122 0.1612
H30_3 H 0.0703 0.0083 0.3382
C49_3 C 0.0774(4) 0.3049(6) 0.4586(3)
H31_3 H 0.0768 0.2719 0.4856
H32_3 H 0.0745 0.2643 0.4338
H33_3 H 0.1014 0.3361 0.4596
C52_3 C 0.0182(4) 0.3703(10) 0.4866(3)
H38 H 0.0262 0.3277 0.5097
H39_3 H 0.0176 0.4291 0.4993
C53_3 C 0.0572(4) 0.2689(8) 0.2339(4)
H41_3 H 0.0519 0.2285 0.2093
H42_3 H 0.0846 0.2730 0.2423
H43_3 H 0.0453 0.2470 0.2586
O28 O 0.09389(9) 0.70056(18) 0.33696(10)
O5_3 O 0.18131(7) 0.4613(2) 0.92283(8)
O21_3 O 0.23683(9) 0.3218(2) 0.91873(11)
O22_3 O 0.23780(9) 0.2787(2) 0.82678(12)
N3_3 N 0.28030(19) 0.2190(4) 0.9449(3)
N4_3 N 0.27142(13) 0.1929(4) 0.7832(2)
C11_3 C 0.14904(9) 0.4984(2) 0.98280(10)
C15_3 C 0.14908(9) 0.4628(2) 0.93685(10)
H7_3 H 0.2001 0.5632 0.9854
H9_3 H 0.0972 0.4477 0.9946
C32_3 C 0.3207(7) 0.1961(18) 0.9550(9)
H12_3 H 0.3296 0.2116 0.9852
H13_3 H 0.3353 0.2285 0.9355
H14_3 H 0.3239 0.1330 0.9508
C43_3 C 0.2537(3) 0.1592(4) 0.9585(2)
H21_3 H 0.2392 0.1884 0.9791
H22_3 H 0.2670 0.1086 0.9727
H23_3 H 0.2365 0.1394 0.9332
C45_3 C 0.25131(14) 0.2634(5) 0.79284(19)
H25_3 H 0.2470 0.3068 0.7708
C50_3 C 0.26963(17) 0.2965(4) 0.9264(2)
H34_3 H 0.2888 0.3343 0.9189
C51_3 C 0.2814(3) 0.1263(4) 0.8167(5)
H35_3 H 0.2958 0.0794 0.8048
H36_3 H 0.2584 0.1018 0.8259
H37_3 H 0.2968 0.1530 0.8417
C54_3 C 0.2851(4) 0.1895(9) 0.7393(4)
H44_3 H 0.2991 0.1349 0.7367
H45_3 H 0.3017 0.2397 0.7362
H46_3 H 0.2634 0.1917 0.7165
C7_3 C 0.16348(10) 0.8813(2) 0.35118(13)
H3_3 H 0.1868 0.8507 0.3543
C18_3 C 0.12616(10) 0.7355(2) 0.34736(11)
C19_3 C 0.12894(10) 0.8357(2) 0.34646(12)
C25_3 C 0.16247(10) 0.9750(2) 0.35118(14)
C46_3 C 0.09356(14) 0.8847(3) 0.3412(2)
H26_3 H 0.0703 0.8539 0.3375
C48_3 C 0.09343(13) 0.9770(3) 0.3415(3)
C14_3 C 0.77699(9) 0.0033(2) 0.33727(12)
S1_2 S 0.40161(2) 0.31474(7) 0.40009(3)
O1_4 O 0.52156(7) 0.08484(16) 0.30337(8)
O2_4 O 0.60938(8) 0.0615(2) 0.27003(8)
O6_4 O 0.52905(7) 0.11278(19) 0.37576(8)
O11_2 O 0.38622(9) 0.2509(3) 0.42848(10)
O16_2 O 0.42497(9) 0.3847(3) 0.42146(12)
O19_4 O 0.55531(9) 0.0171(4) 0.08193(11)
C1_2 C 0.45564(8) 0.1901(2) 0.28779(10)
H1_2 H 0.4659 0.1659 0.2636
C2_4 C 0.51053(8) 0.1205(2) 0.33763(10)
C3_2 C 0.33548(10) 0.4139(3) 0.36734(13)
H2_2 H 0.3321 0.4308 0.3961
C4_4 C 0.65376(9) 0.0711(2) 0.11895(11)
C5_4 C 0.65460(9) 0.0558(2) 0.07086(11)
C6_2 C 0.40697(8) 0.2772(2) 0.31684(10)
C8_2 C 0.47428(8) 0.1745(2) 0.33095(10)
C10_2 C 0.45900(9) 0.2100(2) 0.36787(11)
H4_2 H 0.4708 0.2000 0.3967
C12_4 C 0.64432(10) 0.0758(2) 0.20861(10)
C13_4 C 0.64152(10) 0.0774(2) 0.25760(10)
C14_4 C 0.27699(9) 0.5033(2) 0.33727(12)
C16_2 C 0.34689(10) 0.3630(3) 0.28028(12)
H5_2 H 0.3507 0.3467 0.2516
C17_2 C 0.42569(9) 0.2603(2) 0.35960(11)
C20_2 C 0.42226(8) 0.2409(2) 0.28047(11)
H6_2 H 0.4102 0.2506 0.2517
C21_4 C 0.68052(11) 0.0496(3) 0.00225(12)
C22_4 C 0.61643(10) 0.0343(2) 0.17903(11)
H8_4 H 0.5947 0.0087 0.1886
C23_2 C 0.31020(9) 0.4433(2) 0.33050(12)
C24_4 C 0.62319(9) 0.0057(3) 0.05152(11)
C28_4 C 0.62204(9) 0.0322(2) 0.13468(11)
C30_2 C 0.31592(10) 0.4172(3) 0.28734(13)
H10_2 H 0.2988 0.4365 0.2632
C33_4 C 0.68329(11) 0.0804(3) 0.04569(12)
H15_4 H 0.7037 0.1164 0.0576
C34_2 C 0.37210(9) 0.3333(2) 0.31656(11)
C35_2 C 0.36563(9) 0.3591(2) 0.35939(11)
C37_4 C 0.67626(10) 0.1155(3) 0.19291(12)
H17_4 H 0.6949 0.1428 0.2132
C39_4 C 0.68109(11) 0.1156(3) 0.14820(12)
H18_4 H 0.7019 0.1444 0.1382
O28_2 O 0.59389(9) 0.20056(18) 0.33696(10)
H7_4 H 0.7001 0.0632 0.9854
S2_4 S 0.70262(3) 0.54810(6) 0.35589(4)
S3_4 S 0.59261(3) 0.97617(8) 0.09127(3)
O3_4 O 0.56085(8) 0.91503(18) 0.29007(11)
O13_4 O 0.56027(9) 0.9221(2) 0.38771(11)
O17_4 O 0.72634(11) 0.5363(2) 0.39773(16)
O18_4 O 0.59341(13) 0.8818(3) 0.09860(12)
O20_4 O 0.72163(12) 0.5450(2) 0.31688(16)
N1_4 N 0.54593(17) 0.8691(4) 0.45344(15)
N2_4 N 0.54189(12) 0.8574(2) 0.22116(15)
C7_4 C 0.66348(10) 0.3813(2) 0.35118(13)
H3_4 H 0.6868 0.3507 0.3543
C9_4 C 0.65851(10) 0.7991(2) 0.35205(14)
C18_4 C 0.62616(10) 0.2355(2) 0.34736(11)
C19_4 C 0.62894(10) 0.3357(2) 0.34646(12)
C25_4 C 0.66247(10) 0.4750(2) 0.35118(14)
C26_4 C 0.67322(10) 0.6441(2) 0.35525(13)
C27_4 C 0.66987(9) 0.89546(19) 0.35091(11)
C29_4 C 0.61908(10) 0.9782(3) 0.00727(11)
C31_4 C 0.54613(10) 0.9229(2) 0.25052(13)
H11_4 H 0.5375 0.9794 0.2410
C36_4 C 0.68640(11) 0.7325(2) 0.35710(13)
H16_4 H 0.7125 0.7460 0.3615
C38_4 C 0.63441(11) 0.6209(3) 0.34919(19)
C40_4 C 0.62793(11) 0.5225(2) 0.34669(19)
C41_4 C 0.61865(12) 0.7761(3) 0.3474(2)
H19_4 H 0.6002 0.8213 0.3449
C42_4 C 0.53963(13) 0.9233(3) 0.41903(15)
H20_4 H 0.5193 0.9638 0.4177
C44_4 C 0.60694(13) 0.6875(3) 0.3464(3)
H24_4 H 0.5809 0.6731 0.3439
C46_4 C 0.59356(14) 0.3847(3) 0.3412(2)
H26_4 H 0.5703 0.3539 0.3375
C47_4 C 0.52412(12) 0.8690(3) 0.17581(15)
H27_4 H 0.5240 0.8129 0.1604
H28_2 H 0.4981 0.8897 0.1757
H29_4 H 0.5385 0.9122 0.1612
C48_4 C 0.59343(13) 0.4770(3) 0.3415(3)
H30_4 H 0.5703 0.5083 0.3382
C49_4 C 0.5774(4) 0.8049(6) 0.4586(3)
H31_4 H 0.5768 0.7719 0.4856
H32_4 H 0.5745 0.7643 0.4338
H33_4 H 0.6014 0.8361 0.4596
C52_4 C 0.5182(4) 0.8703(10) 0.4866(3)
H38_2 H 0.5262 0.8277 0.5097
H39_4 H 0.5176 0.9291 0.4993
H40_2 H 0.4930 0.8547 0.4723
C53_4 C 0.5572(4) 0.7689(8) 0.2339(4)
H41_4 H 0.5519 0.7285 0.2093
H42_4 H 0.5846 0.7730 0.2423
H43_4 H 0.5453 0.7470 0.2586
O5_4 O 0.68131(7) 0.9613(2) 0.92283(8)
O21_4 O 0.73683(9) 0.8218(2) 0.91873(11)
O22_4 O 0.73780(9) 0.7787(2) 0.82678(12)
N3_4 N 0.78030(19) 0.7190(4) 0.9449(3)
N4_4 N 0.77142(13) 0.6929(4) 0.7832(2)
C11_4 C 0.64904(9) 0.9984(2) 0.98280(10)
C15_4 C 0.64908(9) 0.9628(2) 0.93685(10)
H9_4 H 0.5972 0.9477 0.9946
C32_4 C 0.8207(7) 0.6961(18) 0.9550(9)
H12_4 H 0.8296 0.7116 0.9852
H13_4 H 0.8353 0.7285 0.9355
H14_4 H 0.8239 0.6330 0.9508
C43_4 C 0.7537(3) 0.6592(4) 0.9585(2)
H21_4 H 0.7392 0.6884 0.9791
H22_4 H 0.7670 0.6086 0.9727
H23_4 H 0.7365 0.6394 0.9332
C45_4 C 0.75131(14) 0.7634(5) 0.79284(19)
H25_4 H 0.7470 0.8068 0.7708
C50_4 C 0.76963(17) 0.7965(4) 0.9264(2)
H34_4 H 0.7888 0.8343 0.9189
C51_4 C 0.7814(3) 0.6263(4) 0.8167(5)
H35_4 H 0.7958 0.5794 0.8048
H36_4 H 0.7584 0.6018 0.8259
H37_4 H 0.7968 0.6530 0.8417
C54_4 C 0.7851(4) 0.6895(9) 0.7393(4)
H44_4 H 0.7991 0.6349 0.7367
H45_4 H 0.8017 0.7397 0.7362
H46_4 H 0.7634 0.6917 0.7165
H38_3 H 0.0262 0.6723 0.0097
S1_3 S 0.90161(2) 0.18526(7) 0.90009(3)
O11_3 O 0.88622(9) 0.2491(3) 0.92848(10)
O16_3 O 0.92497(9) 0.1153(3) 0.92146(12)
C1_3 C 0.95564(8) 0.3099(2) 0.78779(10)
H1_3 H 0.9659 0.3341 0.7636
C3_3 C 0.83548(10) 0.0861(3) 0.86734(13)
H2_3 H 0.8321 0.0692 0.8961
C6_3 C 0.90697(8) 0.2228(2) 0.81684(10)
C8_3 C 0.97428(8) 0.3255(2) 0.83095(10)
C10_3 C 0.95900(9) 0.2900(2) 0.86787(11)
H4_3 H 0.9708 0.3000 0.8967
C16_3 C 0.84689(10) 0.1370(3) 0.78028(12)
H5_3 H 0.8507 0.1533 0.7516
C17_3 C 0.92569(9) 0.2397(2) 0.85960(11)
C20_3 C 0.92226(8) 0.2591(2) 0.78047(11)
H6_3 H 0.9102 0.2494 0.7517
C23_3 C 0.81020(9) 0.0567(2) 0.83050(12)
C30_3 C 0.81592(10) 0.0828(3) 0.78734(13)
H10_3 H 0.7988 0.0635 0.7632
C34_3 C 0.87210(9) 0.1667(2) 0.81656(11)
C35_3 C 0.86563(9) 0.1409(2) 0.85939(11)
H28_3 H 0.9981 0.6103 0.6757
H40_3 H 0.9930 0.6453 0.9723
S1_4 S 0.09839(2) 0.18526(7) 0.59991(3)
O11_4 O 0.11378(9) 0.2491(3) 0.57152(10)
O16_4 O 0.07503(9) 0.1153(3) 0.57854(12)
C1_4 C 0.04436(8) 0.3099(2) 0.71221(10)
H1_4 H 0.0341 0.3341 0.7364
C3_4 C 0.16452(10) 0.0861(3) 0.63266(13)
H2_4 H 0.1679 0.0692 0.6039
C6_4 C 0.09303(8) 0.2228(2) 0.68316(10)
C8_4 C 0.02572(8) 0.3255(2) 0.66905(10)
C10_4 C 0.04100(9) 0.2900(2) 0.63213(11)
H4_4 H 0.0292 0.3000 0.6033
C16_4 C 0.15311(10) 0.1370(3) 0.71972(12)
H5_4 H 0.1493 0.1533 0.7484
C17_4 C 0.07431(9) 0.2397(2) 0.64040(11)
C20_4 C 0.07774(8) 0.2591(2) 0.71953(11)
H6_4 H 0.0898 0.2494 0.7483
C23_4 C 0.18980(9) 0.0567(2) 0.66950(12)
C30_4 C 0.18408(10) 0.0828(3) 0.71266(13)
H10_4 H 0.2012 0.0635 0.7368
C34_4 C 0.12790(9) 0.1667(2) 0.68344(11)
C35_4 C 0.13437(9) 0.1409(2) 0.64061(11)
H28_4 H 0.0019 0.6103 0.8243
H40_4 H 0.0070 0.6453 0.5277
O7_3 O 0.22638(7) 0.97231(18) 0.62314(9)
O10_3 O 0.24613(8) 0.9742(2) 0.69543(10)
C14_5 C 0.22301(9) 0.9967(2) 0.66273(12)
Pr5_2 Pr 0.293210(4) 0.914730(10) 0.644500(5)
O12_3 O 0.90611(9) 0.29944(18) 0.66304(10)
O15_3 O 0.84282(10) 0.30600(19) 0.64052(11)
C7_5 C 0.83652(10) 0.1187(2) 0.64882(13)
H3_5 H 0.8132 0.1493 0.6457
C18_5 C 0.87384(10) 0.2645(2) 0.65264(11)
C19_5 C 0.87106(10) 0.1643(2) 0.65354(12)
C25_5 C 0.83753(10) 0.0250(2) 0.64882(14)
C46_5 C 0.90644(14) 0.1153(3) 0.6588(2)
H26_5 H 0.9297 0.1461 0.6625
C48_5 C 0.90657(13) 0.0230(3) 0.6585(3)
Pr4_3 Pr 0.914805(4) 0.460951(10) 0.658349(5)
Pr7_2 Pr 0.793210(4) 0.414730(10) 0.644500(5)
Pr2_3 Pr 0.793210(4) 0.585270(10) 0.144500(5)
O4_3 O 0.88258(7) 0.5637(2) 0.08372(8)
O5_5 O 0.81869(7) 0.5387(2) 0.07717(8)
O21_5 O 0.76317(9) 0.6782(2) 0.08127(11)
O22_5 O 0.76220(9) 0.7213(2) 0.17322(12)
N3_5 N 0.71970(19) 0.7810(4) 0.0551(3)
N4_5 N 0.72858(13) 0.8071(4) 0.2168(2)
C11_5 C 0.85096(9) 0.5016(2) 0.01720(10)
C15_5 C 0.85092(9) 0.5372(2) 0.06315(10)
H7_5 H 0.7999 0.4368 0.0146
H9_5 H 0.9028 0.5523 0.0054
C32_5 C 0.6793(7) 0.8039(18) 0.0450(9)
H12_5 H 0.6704 0.7884 0.0148
H13_5 H 0.6647 0.7715 0.0645
H14_5 H 0.6761 0.8670 0.0492
C43_5 C 0.7463(3) 0.8408(4) 0.0415(2)
H21_5 H 0.7608 0.8116 0.0209
H22_5 H 0.7330 0.8914 0.0273
H23_5 H 0.7635 0.8606 0.0668
C45_5 C 0.74869(14) 0.7366(5) 0.20716(19)
H25_5 H 0.7530 0.6932 0.2292
C50_5 C 0.73037(17) 0.7035(4) 0.0736(2)
H34_5 H 0.7112 0.6657 0.0811
C51_5 C 0.7186(3) 0.8737(4) 0.1833(5)
H35_5 H 0.7042 0.9206 0.1952
H36_5 H 0.7416 0.8982 0.1741
H37_5 H 0.7032 0.8470 0.1583
C54_5 C 0.7149(4) 0.8105(9) 0.2607(4)
H44_5 H 0.7009 0.8651 0.2633
H45_5 H 0.6983 0.7603 0.2638
H46_5 H 0.7366 0.8083 0.2835
Pr3_3 Pr 0.914805(4) 0.539049(10) 0.158349(5)
O24_3 O 0.72638(7) 0.52769(18) 0.12314(9)
O25_3 O 0.82756(9) 0.5938(2) 0.21763(9)
O26_3 O 0.85619(7) 0.45466(15) 0.15460(9)
O27_3 O 0.74613(8) 0.5258(2) 0.19543(10)
O29_3 O 0.79521(7) 0.41573(16) 0.14585(10)
O30_3 O 0.84282(10) 0.69400(19) 0.14052(11)
S2_5 S 0.79738(3) 0.95190(6) 0.64411(4)
S3_5 S 0.90739(3) 0.52383(8) 0.90873(3)
O1_5 O 0.97844(7) 0.41516(16) 0.69663(8)
O2_5 O 0.89062(8) 0.4385(2) 0.72997(8)
O3_5 O 0.93915(8) 0.58497(18) 0.70993(11)
O6_5 O 0.97095(7) 0.38722(19) 0.62424(8)
O8_3 O 0.82756(9) 0.4062(2) 0.71763(9)
O9_3 O 0.85619(7) 0.54534(15) 0.65460(9)
O13_5 O 0.93973(9) 0.5779(2) 0.61229(11)
O14_3 O 0.79521(7) 0.58427(16) 0.64585(10)
O17_5 O 0.77366(11) 0.9637(2) 0.60227(16)
O18_5 O 0.90659(13) 0.6182(3) 0.90140(12)
O19_5 O 0.94469(9) 0.4829(4) 0.91807(11)
O20_5 O 0.77837(12) 0.9550(2) 0.68312(16)
N1_5 N 0.95407(17) 0.6309(4) 0.54656(15)
N2_5 N 0.95811(12) 0.6426(2) 0.77884(15)
C2_5 C 0.98947(8) 0.3795(2) 0.66237(10)
C4_5 C 0.84624(9) 0.4289(2) 0.88105(11)
C5_5 C 0.84540(9) 0.4442(2) 0.92914(11)
C9_5 C 0.84149(10) 0.7009(2) 0.64795(14)
C12_5 C 0.85568(10) 0.4242(2) 0.79139(10)
C13_5 C 0.85848(10) 0.4226(2) 0.74240(10)
C21_5 C 0.81948(11) 0.4504(3) 0.99775(12)
C22_5 C 0.88357(10) 0.4657(2) 0.82097(11)
H8_5 H 0.9053 0.4913 0.8114
C24_5 C 0.87681(9) 0.4943(3) 0.94848(11)
C26_5 C 0.82678(10) 0.8559(2) 0.64475(13)
C27_5 C 0.83013(9) 0.60454(19) 0.64909(11)
C28_5 C 0.87796(9) 0.4678(2) 0.86532(11)
C29_5 C 0.88092(10) 0.5218(3) 0.99273(11)
C31_5 C 0.95387(10) 0.5771(2) 0.74948(13)
H11_5 H 0.9625 0.5206 0.7590
C33_5 C 0.81671(11) 0.4196(3) 0.95431(12)
H15_5 H 0.7963 0.3836 0.9424
C36_5 C 0.81360(11) 0.7675(2) 0.64290(13)
H16_5 H 0.7875 0.7540 0.6385
C37_5 C 0.82374(10) 0.3845(3) 0.80709(12)
H17_5 H 0.8051 0.3572 0.7868
C38_5 C 0.86559(11) 0.8791(3) 0.65081(19)
C39_5 C 0.81891(11) 0.3844(3) 0.85180(12)
H18_5 H 0.7981 0.3556 0.8618
C40_5 C 0.87207(11) 0.9775(2) 0.65331(19)
C41_5 C 0.88135(12) 0.7239(3) 0.6526(2)
H19_5 H 0.8998 0.6787 0.6551
C42_5 C 0.96037(13) 0.5767(3) 0.58097(15)
H20_5 H 0.9807 0.5362 0.5823
C44_5 C 0.89306(13) 0.8125(3) 0.6536(3)
H24_5 H 0.9191 0.8269 0.6561
C47_5 C 0.97588(12) 0.6310(3) 0.82419(15)
H27_5 H 0.9760 0.6871 0.8396
H29_5 H 0.9615 0.5878 0.8388
H30_5 H 0.9297 0.9917 0.6618
C49_5 C 0.9226(4) 0.6951(6) 0.5414(3)
H31_5 H 0.9232 0.7281 0.5144
H32_5 H 0.9255 0.7357 0.5662
H33_5 H 0.8986 0.6639 0.5404
C52_5 C 0.9818(4) 0.6297(10) 0.5134(3)
H38_4 H 0.9738 0.6723 0.4903
H39_5 H 0.9824 0.5709 0.5007
C53_5 C 0.9428(4) 0.7311(8) 0.7661(4)
H41_5 H 0.9481 0.7715 0.7907
H42_5 H 0.9154 0.7270 0.7577
H43_5 H 0.9547 0.7530 0.7414
O23_3 O 0.88258(7) 0.4363(2) 0.58372(8)
Pr2_4 Pr 0.293210(4) 0.085270(10) 0.144500(5)
O4_4 O 0.38258(7) 0.0637(2) 0.08372(8)
O5_6 O 0.31869(7) 0.0387(2) 0.07717(8)
O21_6 O 0.26317(9) 0.1782(2) 0.08127(11)
O22_6 O 0.26220(9) 0.2213(2) 0.17322(12)
N3_6 N 0.21970(19) 0.2810(4) 0.0551(3)
N4_6 N 0.22858(13) 0.3071(4) 0.2168(2)
C11_6 C 0.35096(9) 0.0016(2) 0.01720(10)
C15_6 C 0.35092(9) 0.0372(2) 0.06315(10)
H9_6 H 0.4028 0.0523 0.0054
C32_6 C 0.1793(7) 0.3039(18) 0.0450(9)
H12_6 H 0.1704 0.2884 0.0148
H13_6 H 0.1647 0.2715 0.0645
H14_6 H 0.1761 0.3670 0.0492
C43_6 C 0.2463(3) 0.3408(4) 0.0415(2)
H21_6 H 0.2608 0.3116 0.0209
H22_6 H 0.2330 0.3914 0.0273
H23_6 H 0.2635 0.3606 0.0668
C45_6 C 0.24869(14) 0.2366(5) 0.20716(19)
H25_6 H 0.2530 0.1932 0.2292
C50_6 C 0.23037(17) 0.2035(4) 0.0736(2)
H34_6 H 0.2112 0.1657 0.0811
C51_6 C 0.2186(3) 0.3737(4) 0.1833(5)
H35_6 H 0.2042 0.4206 0.1952
H36_6 H 0.2416 0.3982 0.1741
H37_6 H 0.2032 0.3470 0.1583
C54_6 C 0.2149(4) 0.3105(9) 0.2607(4)
H44_6 H 0.2009 0.3651 0.2633
H45_6 H 0.1983 0.2603 0.2638
H46_6 H 0.2366 0.3083 0.2835
Pr3_4 Pr 0.414805(4) 0.039049(10) 0.158349(5)
O24_4 O 0.22638(7) 0.02769(18) 0.12314(9)
O25_4 O 0.32756(9) 0.0938(2) 0.21763(9)
O27_4 O 0.24613(8) 0.0258(2) 0.19543(10)
O30_4 O 0.34282(10) 0.19400(19) 0.14052(11)
S2_6 S 0.29738(3) 0.45190(6) 0.64411(4)
S3_6 S 0.40739(3) 0.02383(8) 0.90873(3)
O3_6 O 0.43915(8) 0.08497(18) 0.70993(11)
O9_4 O 0.35619(7) 0.04534(15) 0.65460(9)
O12_4 O 0.40611(9) 0.79944(18) 0.66304(10)
O13_6 O 0.43973(9) 0.0779(2) 0.61229(11)
O14_4 O 0.29521(7) 0.08427(16) 0.64585(10)
O15_4 O 0.34282(10) 0.80600(19) 0.64052(11)
O17_6 O 0.27366(11) 0.4637(2) 0.60227(16)
O18_6 O 0.40659(13) 0.1182(3) 0.90140(12)
O20_6 O 0.27837(12) 0.4550(2) 0.68312(16)
N1_6 N 0.45407(17) 0.1309(4) 0.54656(15)
N2_6 N 0.45811(12) 0.1426(2) 0.77884(15)
C7_6 C 0.33652(10) 0.6187(2) 0.64882(13)
H3_6 H 0.3132 0.6493 0.6457
C9_6 C 0.34149(10) 0.2009(2) 0.64795(14)
C18_6 C 0.37384(10) 0.7645(2) 0.65264(11)
C19_6 C 0.37106(10) 0.6643(2) 0.65354(12)
C25_6 C 0.33753(10) 0.5250(2) 0.64882(14)
C26_6 C 0.32678(10) 0.3559(2) 0.64475(13)
C27_6 C 0.33013(9) 0.10454(19) 0.64909(11)
C29_6 C 0.38092(10) 0.0218(3) 0.99273(11)
C31_6 C 0.45387(10) 0.0771(2) 0.74948(13)
H11_6 H 0.4625 0.0206 0.7590
C36_6 C 0.31360(11) 0.2675(2) 0.64290(13)
H16_6 H 0.2875 0.2540 0.6385
C38_6 C 0.36559(11) 0.3791(3) 0.65081(19)
C40_6 C 0.37207(11) 0.4775(2) 0.65331(19)
C41_6 C 0.38135(12) 0.2239(3) 0.6526(2)
H19_6 H 0.3998 0.1787 0.6551
C42_6 C 0.46037(13) 0.0767(3) 0.58097(15)
H20_6 H 0.4807 0.0362 0.5823
C44_6 C 0.39306(13) 0.3125(3) 0.6536(3)
H24_6 H 0.4191 0.3269 0.6561
C46_6 C 0.40644(14) 0.6153(3) 0.6588(2)
H26_6 H 0.4297 0.6461 0.6625
C47_6 C 0.47588(12) 0.1310(3) 0.82419(15)
H27_6 H 0.4760 0.1871 0.8396
H28_5 H 0.5019 0.1103 0.8243
H29_6 H 0.4615 0.0878 0.8388
C48_6 C 0.40657(13) 0.5230(3) 0.6585(3)
H30_6 H 0.4297 0.4917 0.6618
C49_6 C 0.4226(4) 0.1951(6) 0.5414(3)
H31_6 H 0.4232 0.2281 0.5144
H32_6 H 0.4255 0.2357 0.5662
H33_6 H 0.3986 0.1639 0.5404
C52_6 C 0.4818(4) 0.1297(10) 0.5134(3)
H38_5 H 0.4738 0.1723 0.4903
H39_6 H 0.4824 0.0709 0.5007
H40_5 H 0.5070 0.1453 0.5277
C53_6 C 0.4428(4) 0.2311(8) 0.7661(4)
H41_6 H 0.4481 0.2715 0.7907
H42_6 H 0.4154 0.2270 0.7577
H43_6 H 0.4547 0.2530 0.7414
Pr4_4 Pr 0.414805(4) 0.960951(10) 0.658349(5)
H7_6 H 0.2999 0.9368 0.0146
O26_4 O 0.35619(7) 0.95466(15) 0.15460(9)
O29_4 O 0.29521(7) 0.91573(16) 0.14585(10)
S1_5 S 0.59839(2) 0.68526(7) 0.59991(3)
O1_6 O 0.47844(7) 0.91516(16) 0.69663(8)
O2_6 O 0.39062(8) 0.9385(2) 0.72997(8)
O6_6 O 0.47095(7) 0.88722(19) 0.62424(8)
O7_4 O 0.72638(7) 0.47231(18) 0.62314(9)
O8_4 O 0.32756(9) 0.9062(2) 0.71763(9)
O10_4 O 0.74613(8) 0.4742(2) 0.69543(10)
O11_5 O 0.61378(9) 0.7491(3) 0.57152(10)
O16_5 O 0.57503(9) 0.6153(3) 0.57854(12)
O19_6 O 0.44469(9) 0.9829(4) 0.91807(11)
C1_5 C 0.54436(8) 0.8099(2) 0.71221(10)
H1_5 H 0.5341 0.8341 0.7364
C2_6 C 0.48947(8) 0.8795(2) 0.66237(10)
C3_5 C 0.66452(10) 0.5861(3) 0.63266(13)
H2_5 H 0.6679 0.5692 0.6039
C4_6 C 0.34624(9) 0.9289(2) 0.88105(11)
C5_6 C 0.34540(9) 0.9442(2) 0.92914(11)
C6_5 C 0.59303(8) 0.7228(2) 0.68316(10)
C8_5 C 0.52572(8) 0.8255(2) 0.66905(10)
C10_5 C 0.54100(9) 0.7900(2) 0.63213(11)
H4_5 H 0.5292 0.8000 0.6033
C12_6 C 0.35568(10) 0.9242(2) 0.79139(10)
C13_6 C 0.35848(10) 0.9226(2) 0.74240(10)
C14_6 C 0.72301(9) 0.4967(2) 0.66273(12)
C16_5 C 0.65311(10) 0.6370(3) 0.71972(12)
H5_5 H 0.6493 0.6533 0.7484
C17_5 C 0.57431(9) 0.7397(2) 0.64040(11)
C20_5 C 0.57774(8) 0.7591(2) 0.71953(11)
H6_5 H 0.5898 0.7494 0.7483
C21_6 C 0.31948(11) 0.9504(3) 0.99775(12)
C22_6 C 0.38357(10) 0.9657(2) 0.82097(11)
H8_6 H 0.4053 0.9913 0.8114
C23_5 C 0.68980(9) 0.5567(2) 0.66950(12)
C24_6 C 0.37681(9) 0.9943(3) 0.94848(11)
C28_6 C 0.37796(9) 0.9678(2) 0.86532(11)
C30_5 C 0.68408(10) 0.5828(3) 0.71266(13)
H10_5 H 0.7012 0.5635 0.7368
C33_6 C 0.31671(11) 0.9196(3) 0.95431(12)
H15_6 H 0.2963 0.8836 0.9424
C34_5 C 0.62790(9) 0.6667(2) 0.68344(11)
C35_5 C 0.63437(9) 0.6409(2) 0.64061(11)
C37_6 C 0.32374(10) 0.8845(3) 0.80709(12)
H17_6 H 0.3051 0.8572 0.7868
C39_6 C 0.31891(11) 0.8844(3) 0.85180(12)
H18_6 H 0.2981 0.8556 0.8618
O23_4 O 0.38258(7) 0.9363(2) 0.58372(8)
C14_7 C 0.22301(9) 0.0033(2) 0.16273(12)
S2_7 S 0.79738(3) 0.04810(6) 0.14411(4)
S3_7 S 0.90739(3) 0.47617(8) 0.40873(3)
O1_7 O 0.97844(7) 0.58484(16) 0.19663(8)
O2_7 O 0.89062(8) 0.5615(2) 0.22997(8)
O3_7 O 0.93915(8) 0.41503(18) 0.20993(11)
O5_7 O 0.81869(7) 0.4613(2) 0.57717(8)
O6_7 O 0.97095(7) 0.61278(19) 0.12424(8)
O13_7 O 0.93973(9) 0.4221(2) 0.11229(11)
O17_7 O 0.77366(11) 0.0363(2) 0.10227(16)
O18_7 O 0.90659(13) 0.3818(3) 0.40140(12)
O19_7 O 0.94469(9) 0.5171(4) 0.41807(11)
O20_7 O 0.77837(12) 0.0450(2) 0.18312(16)
O21_7 O 0.76317(9) 0.3218(2) 0.58127(11)
O22_7 O 0.76220(9) 0.2787(2) 0.67322(12)
N1_7 N 0.95407(17) 0.3691(4) 0.04656(15)
N2_7 N 0.95811(12) 0.3574(2) 0.27884(15)
N3_7 N 0.71970(19) 0.2190(4) 0.5551(3)
N4_7 N 0.72858(13) 0.1929(4) 0.7168(2)
C2_7 C 0.98947(8) 0.6205(2) 0.16237(10)
C4_7 C 0.84624(9) 0.5711(2) 0.38105(11)
C5_7 C 0.84540(9) 0.5558(2) 0.42914(11)
C9_7 C 0.84149(10) 0.2991(2) 0.14795(14)
C11_7 C 0.85096(9) 0.4984(2) 0.51720(10)
C12_7 C 0.85568(10) 0.5758(2) 0.29139(10)
C13_7 C 0.85848(10) 0.5774(2) 0.24240(10)
C15_7 C 0.85092(9) 0.4628(2) 0.56315(10)
C21_7 C 0.81948(11) 0.5496(3) 0.49775(12)
H7_7 H 0.7999 0.5632 0.5146
C22_7 C 0.88357(10) 0.5343(2) 0.32097(11)
H8_7 H 0.9053 0.5087 0.3114
C24_7 C 0.87681(9) 0.5057(3) 0.44848(11)
C26_7 C 0.82678(10) 0.1441(2) 0.14475(13)
C27_7 C 0.83013(9) 0.39546(19) 0.14909(11)
C28_7 C 0.87796(9) 0.5322(2) 0.36532(11)
C29_7 C 0.88092(10) 0.4782(3) 0.49273(11)
H9_7 H 0.9028 0.4477 0.5054
C31_7 C 0.95387(10) 0.4229(2) 0.24948(13)
H11_7 H 0.9625 0.4794 0.2590
C32_7 C 0.6793(7) 0.1961(18) 0.5450(9)
H12_7 H 0.6704 0.2116 0.5148
H13_7 H 0.6647 0.2285 0.5645
H14_7 H 0.6761 0.1330 0.5492
C33_7 C 0.81671(11) 0.5804(3) 0.45431(12)
H15_7 H 0.7963 0.6164 0.4424
C36_7 C 0.81360(11) 0.2325(2) 0.14290(13)
H16_7 H 0.7875 0.2460 0.1385
C37_7 C 0.82374(10) 0.6155(3) 0.30709(12)
H17_7 H 0.8051 0.6428 0.2868
C38_7 C 0.86559(11) 0.1209(3) 0.15081(19)
C39_7 C 0.81891(11) 0.6156(3) 0.35180(12)
H18_7 H 0.7981 0.6444 0.3618
C40_7 C 0.87207(11) 0.0225(2) 0.15331(19)
C41_7 C 0.88135(12) 0.2761(3) 0.1526(2)
H19_7 H 0.8998 0.3213 0.1551
C42_7 C 0.96037(13) 0.4233(3) 0.08097(15)
H20_7 H 0.9807 0.4638 0.0823
C43_7 C 0.7463(3) 0.1592(4) 0.5415(2)
H21_7 H 0.7608 0.1884 0.5209
H22_7 H 0.7330 0.1086 0.5273
H23_7 H 0.7635 0.1394 0.5668
C44_7 C 0.89306(13) 0.1875(3) 0.1536(3)
H24_7 H 0.9191 0.1731 0.1561
C45_7 C 0.74869(14) 0.2634(5) 0.70716(19)
H25_7 H 0.7530 0.3068 0.7292
C47_7 C 0.97588(12) 0.3690(3) 0.32419(15)
H27_7 H 0.9760 0.3129 0.3396
H29_7 H 0.9615 0.4122 0.3388
H30_7 H 0.9297 0.0083 0.1618
C49_7 C 0.9226(4) 0.3049(6) 0.0414(3)
H31_7 H 0.9232 0.2719 0.0144
H32_7 H 0.9255 0.2643 0.0662
H33_7 H 0.8986 0.3361 0.0404
C50_7 C 0.73037(17) 0.2965(4) 0.5736(2)
H34_7 H 0.7112 0.3343 0.5811
C51_7 C 0.7186(3) 0.1263(4) 0.6833(5)
H35_7 H 0.7042 0.0794 0.6952
H36_7 H 0.7416 0.1018 0.6741
H37_7 H 0.7032 0.1530 0.6583
C52_7 C 0.9818(4) 0.3703(10) 0.0134(3)
H39_7 H 0.9824 0.4291 0.0007
C53_7 C 0.9428(4) 0.2689(8) 0.2661(4)
H41_7 H 0.9481 0.2285 0.2907
H42_7 H 0.9154 0.2730 0.2577
H43_7 H 0.9547 0.2470 0.2414
C54_7 C 0.7149(4) 0.1895(9) 0.7607(4)
H44_7 H 0.7009 0.1349 0.7633
H45_7 H 0.6983 0.2397 0.7638
H46_7 H 0.7366 0.1917 0.7835
O28_3 O 0.90611(9) 0.70056(18) 0.16304(10)
C7_7 C 0.83652(10) 0.8813(2) 0.14882(13)
H3_7 H 0.8132 0.8507 0.1457
C18_7 C 0.87384(10) 0.7355(2) 0.15264(11)
C19_7 C 0.87106(10) 0.8357(2) 0.15354(12)
C25_7 C 0.83753(10) 0.9750(2) 0.14882(14)
C46_7 C 0.90644(14) 0.8847(3) 0.1588(2)
H26_7 H 0.9297 0.8539 0.1625
C48_7 C 0.90657(13) 0.9770(3) 0.1585(3)
S1_6 S 0.59839(2) 0.31474(7) 0.09991(3)
O1_8 O 0.47844(7) 0.08484(16) 0.19663(8)
O2_8 O 0.39062(8) 0.0615(2) 0.22997(8)
O6_8 O 0.47095(7) 0.11278(19) 0.12424(8)
O11_6 O 0.61378(9) 0.2509(3) 0.07152(10)
O16_6 O 0.57503(9) 0.3847(3) 0.07854(12)
O19_8 O 0.44469(9) 0.0171(4) 0.41807(11)
C1_6 C 0.54436(8) 0.1901(2) 0.21221(10)
H1_6 H 0.5341 0.1659 0.2364
C2_8 C 0.48947(8) 0.1205(2) 0.16237(10)
C3_6 C 0.66452(10) 0.4139(3) 0.13266(13)
H2_6 H 0.6679 0.4308 0.1039
C4_8 C 0.34624(9) 0.0711(2) 0.38105(11)
C5_8 C 0.34540(9) 0.0558(2) 0.42914(11)
C6_6 C 0.59303(8) 0.2772(2) 0.18316(10)
C8_6 C 0.52572(8) 0.1745(2) 0.16905(10)
C10_6 C 0.54100(9) 0.2100(2) 0.13213(11)
H4_6 H 0.5292 0.2000 0.1033
C12_8 C 0.35568(10) 0.0758(2) 0.29139(10)
C13_8 C 0.35848(10) 0.0774(2) 0.24240(10)
C14_8 C 0.72301(9) 0.5033(2) 0.16273(12)
C16_6 C 0.65311(10) 0.3630(3) 0.21972(12)
H5_6 H 0.6493 0.3467 0.2484
C17_6 C 0.57431(9) 0.2603(2) 0.14040(11)
C20_6 C 0.57774(8) 0.2409(2) 0.21953(11)
H6_6 H 0.5898 0.2506 0.2483
C21_8 C 0.31948(11) 0.0496(3) 0.49775(12)
H7_8 H 0.2999 0.0632 0.5146
C22_8 C 0.38357(10) 0.0343(2) 0.32097(11)
H8_8 H 0.4053 0.0087 0.3114
C23_6 C 0.68980(9) 0.4433(2) 0.16950(12)
C24_8 C 0.37681(9) 0.0057(3) 0.44848(11)
C28_8 C 0.37796(9) 0.0322(2) 0.36532(11)
C30_6 C 0.68408(10) 0.4172(3) 0.21266(13)
H10_6 H 0.7012 0.4365 0.2368
C33_8 C 0.31671(11) 0.0804(3) 0.45431(12)
H15_8 H 0.2963 0.1164 0.4424
C34_6 C 0.62790(9) 0.3333(2) 0.18344(11)
C35_6 C 0.63437(9) 0.3591(2) 0.14061(11)
C37_8 C 0.32374(10) 0.1155(3) 0.30709(12)
H17_8 H 0.3051 0.1428 0.2868
C39_8 C 0.31891(11) 0.1156(3) 0.35180(12)
H18_8 H 0.2981 0.1444 0.3618
O28_4 O 0.40611(9) 0.20056(18) 0.16304(10)
S2_8 S 0.29738(3) 0.54810(6) 0.14411(4)
S3_8 S 0.40739(3) 0.97617(8) 0.40873(3)
O3_8 O 0.43915(8) 0.91503(18) 0.20993(11)
O5_8 O 0.31869(7) 0.9613(2) 0.57717(8)
O13_8 O 0.43973(9) 0.9221(2) 0.11229(11)
O17_8 O 0.27366(11) 0.5363(2) 0.10227(16)
O18_8 O 0.40659(13) 0.8818(3) 0.40140(12)
O20_8 O 0.27837(12) 0.5450(2) 0.18312(16)
O21_8 O 0.26317(9) 0.8218(2) 0.58127(11)
O22_8 O 0.26220(9) 0.7787(2) 0.67322(12)
N1_8 N 0.45407(17) 0.8691(4) 0.04656(15)
N2_8 N 0.45811(12) 0.8574(2) 0.27884(15)
N3_8 N 0.21970(19) 0.7190(4) 0.5551(3)
N4_8 N 0.22858(13) 0.6929(4) 0.7168(2)
C7_8 C 0.33652(10) 0.3813(2) 0.14882(13)
H3_8 H 0.3132 0.3507 0.1457
C9_8 C 0.34149(10) 0.7991(2) 0.14795(14)
C11_8 C 0.35096(9) 0.9984(2) 0.51720(10)
C15_8 C 0.35092(9) 0.9628(2) 0.56315(10)
C18_8 C 0.37384(10) 0.2355(2) 0.15264(11)
C19_8 C 0.37106(10) 0.3357(2) 0.15354(12)
C25_8 C 0.33753(10) 0.4750(2) 0.14882(14)
C26_8 C 0.32678(10) 0.6441(2) 0.14475(13)
C27_8 C 0.33013(9) 0.89546(19) 0.14909(11)
C29_8 C 0.38092(10) 0.9782(3) 0.49273(11)
H9_8 H 0.4028 0.9477 0.5054
C31_8 C 0.45387(10) 0.9229(2) 0.24948(13)
H11_8 H 0.4625 0.9794 0.2590
C32_8 C 0.1793(7) 0.6961(18) 0.5450(9)
H12_8 H 0.1704 0.7116 0.5148
H13_8 H 0.1647 0.7285 0.5645
H14_8 H 0.1761 0.6330 0.5492
C36_8 C 0.31360(11) 0.7325(2) 0.14290(13)
H16_8 H 0.2875 0.7460 0.1385
C38_8 C 0.36559(11) 0.6209(3) 0.15081(19)
C40_8 C 0.37207(11) 0.5225(2) 0.15331(19)
C41_8 C 0.38135(12) 0.7761(3) 0.1526(2)
H19_8 H 0.3998 0.8213 0.1551
C42_8 C 0.46037(13) 0.9233(3) 0.08097(15)
H20_8 H 0.4807 0.9638 0.0823
C43_8 C 0.2463(3) 0.6592(4) 0.5415(2)
H21_8 H 0.2608 0.6884 0.5209
H22_8 H 0.2330 0.6086 0.5273
H23_8 H 0.2635 0.6394 0.5668
C44_8 C 0.39306(13) 0.6875(3) 0.1536(3)
H24_8 H 0.4191 0.6731 0.1561
C45_8 C 0.24869(14) 0.7634(5) 0.70716(19)
H25_8 H 0.2530 0.8068 0.7292
C46_8 C 0.40644(14) 0.3847(3) 0.1588(2)
H26_8 H 0.4297 0.3539 0.1625
C47_8 C 0.47588(12) 0.8690(3) 0.32419(15)
H27_8 H 0.4760 0.8129 0.3396
H28_6 H 0.5019 0.8897 0.3243
H29_8 H 0.4615 0.9122 0.3388
C48_8 C 0.40657(13) 0.4770(3) 0.1585(3)
H30_8 H 0.4297 0.5083 0.1618
C49_8 C 0.4226(4) 0.8049(6) 0.0414(3)
H31_8 H 0.4232 0.7719 0.0144
H32_8 H 0.4255 0.7643 0.0662
H33_8 H 0.3986 0.8361 0.0404
C50_8 C 0.23037(17) 0.7965(4) 0.5736(2)
H34_8 H 0.2112 0.8343 0.5811
C51_8 C 0.2186(3) 0.6263(4) 0.6833(5)
H35_8 H 0.2042 0.5794 0.6952
H36_8 H 0.2416 0.6018 0.6741
H37_8 H 0.2032 0.6530 0.6583
C52_8 C 0.4818(4) 0.8703(10) 0.0134(3)
H39_8 H 0.4824 0.9291 0.0007
H40_6 H 0.5070 0.8547 0.0277
C53_8 C 0.4428(4) 0.7689(8) 0.2661(4)
H41_8 H 0.4481 0.7285 0.2907
H42_8 H 0.4154 0.7730 0.2577
H43_8 H 0.4547 0.7470 0.2414
C54_8 C 0.2149(4) 0.6895(9) 0.7607(4)
H44_8 H 0.2009 0.6349 0.7633
H45_8 H 0.1983 0.7397 0.7638
H46_8 H 0.2366 0.6917 0.7835
H38_6 H 0.5262 0.1723 0.0097
S1_7 S 0.09839(2) 0.81474(7) 0.09991(3)
O11_7 O 0.11378(9) 0.7509(3) 0.07152(10)
O16_7 O 0.07503(9) 0.8847(3) 0.07854(12)
C1_7 C 0.04436(8) 0.6901(2) 0.21221(10)
H1_7 H 0.0341 0.6659 0.2364
C3_7 C 0.16452(10) 0.9139(3) 0.13266(13)
H2_7 H 0.1679 0.9308 0.1039
C6_7 C 0.09303(8) 0.7772(2) 0.18316(10)
C8_7 C 0.02572(8) 0.6745(2) 0.16905(10)
C10_7 C 0.04100(9) 0.7100(2) 0.13213(11)
H4_7 H 0.0292 0.7000 0.1033
C16_7 C 0.15311(10) 0.8630(3) 0.21972(12)
H5_7 H 0.1493 0.8467 0.2484
C17_7 C 0.07431(9) 0.7603(2) 0.14040(11)
C20_7 C 0.07774(8) 0.7409(2) 0.21953(11)
H6_7 H 0.0898 0.7506 0.2483
C23_7 C 0.18980(9) 0.9433(2) 0.16950(12)
C30_7 C 0.18408(10) 0.9172(3) 0.21266(13)
H10_7 H 0.2012 0.9365 0.2368
C34_7 C 0.12790(9) 0.8333(2) 0.18344(11)
C35_7 C 0.13437(9) 0.8591(2) 0.14061(11)
H28_7 H 0.0019 0.3897 0.3243
H40_7 H 0.0070 0.3547 0.0277
H38_7 H 0.9738 0.3277 0.9903
S1_8 S 0.90161(2) 0.81474(7) 0.40009(3)
O11_8 O 0.88622(9) 0.7509(3) 0.42848(10)
O16_8 O 0.92497(9) 0.8847(3) 0.42146(12)
C1_8 C 0.95564(8) 0.6901(2) 0.28779(10)
H1_8 H 0.9659 0.6659 0.2636
C3_8 C 0.83548(10) 0.9139(3) 0.36734(13)
H2_8 H 0.8321 0.9308 0.3961
C6_8 C 0.90697(8) 0.7772(2) 0.31684(10)
C8_8 C 0.97428(8) 0.6745(2) 0.33095(10)
C10_8 C 0.95900(9) 0.7100(2) 0.36787(11)
H4_8 H 0.9708 0.7000 0.3967
C16_8 C 0.84689(10) 0.8630(3) 0.28028(12)
H5_8 H 0.8507 0.8467 0.2516
C17_8 C 0.92569(9) 0.7603(2) 0.35960(11)
C20_8 C 0.92226(8) 0.7409(2) 0.28047(11)
H6_8 H 0.9102 0.7506 0.2517
C23_8 C 0.81020(9) 0.9433(2) 0.33050(12)
C30_8 C 0.81592(10) 0.9172(3) 0.28734(13)
H10_8 H 0.7988 0.9365 0.2632
C34_8 C 0.87210(9) 0.8333(2) 0.31656(11)
C35_8 C 0.86563(9) 0.8591(2) 0.35939(11)
H28_8 H 0.9981 0.3897 0.1757
H40_8 H 0.9930 0.3547 0.4723
H38_8 H 0.4738 0.8277 0.9903
loop_
_geom_bond_atom_site_label_1
_geom_bond_atom_site_label_2
_geom_bond_site_symmetry_1
_geom_bond_site_symmetry_2
O12 C18 1_555 1_555
O15 C18 1_555 1_555
C7 H3 1_555 1_555
C18 C19 1_555 1_555
C19 C7 1_555 1_555
C46 C19 1_555 1_555
H26 C46 1_555 1_555
Pr4 O12 1_555 1_555
Pr7 O15 1_555 1_555
C7 C25 1_555 1_555
C46 C48 1_555 1_555
Pr4 O1 1_555 1_555
Pr2 O5 1_555 1_555
S2 O17 1_555 1_555
S3 O18 1_555 1_555
O1 C2 1_555 1_555
O2 Pr4 1_555 1_555
O3 Pr4 1_555 1_555
O4 C15 1_555 1_555
O5 C15 1_555 1_555
O6 Pr4 1_555 1_555
O8 C13 1_555 1_555
O9 Pr4 1_555 1_555
O13 Pr4 1_555 1_555
O14 C27 1_555 1_555
O19 S3 1_555 1_555
O20 S2 1_555 1_555
O21 Pr2 1_555 1_555
O22 Pr2 1_555 1_555
N1 C42 1_555 1_555
N2 C31 1_555 1_555
N3 C32 1_555 1_555
N4 C45 1_555 1_555
C2 O6 1_555 1_555
C4 C5 1_555 1_555
C5 C24 1_555 1_555
C9 C27 1_555 1_555
C11 C15 1_555 1_555
C12 C13 1_555 1_555
C13 O2 1_555 1_555
C21 C11 1_555 1_555
H7 C21 1_555 1_555
C22 C12 1_555 1_555
H8 C22 1_555 1_555
C24 S3 1_555 1_555
C26 S2 1_555 1_555
C27 O9 1_555 1_555
C28 S3 1_555 1_555
C29 C11 1_555 1_555
H9 C29 1_555 1_555
C31 O3 1_555 1_555
H11 C31 1_555 1_555
C32 H12 1_555 1_555
H13 C32 1_555 1_555
H14 C32 1_555 1_555
C33 C5 1_555 1_555
H15 C33 1_555 1_555
C36 C9 1_555 1_555
H16 C36 1_555 1_555
C37 C12 1_555 1_555
H17 C37 1_555 1_555
C38 C26 1_555 1_555
C39 C4 1_555 1_555
H18 C39 1_555 1_555
C41 C9 1_555 1_555
H19 C41 1_555 1_555
C42 O13 1_555 1_555
H20 C42 1_555 1_555
C43 N3 1_555 1_555
H21 C43 1_555 1_555
H22 C43 1_555 1_555
H23 C43 1_555 1_555
C44 C38 1_555 1_555
H24 C44 1_555 1_555
C45 O22 1_555 1_555
H25 C45 1_555 1_555
C47 N2 1_555 1_555
H27 C47 1_555 1_555
H29 C47 1_555 1_555
C49 N1 1_555 1_555
H31 C49 1_555 1_555
H32 C49 1_555 1_555
H33 C49 1_555 1_555
C50 O21 1_555 1_555
H34 C50 1_555 1_555
C51 N4 1_555 1_555
H35 C51 1_555 1_555
H36 C51 1_555 1_555
H37 C51 1_555 1_555
C52 N1 1_555 1_555
H39 C52 1_555 1_555
C53 N2 1_555 1_555
H41 C53 1_555 1_555
H42 C53 1_555 1_555
H43 C53 1_555 1_555
C54 N4 1_555 1_555
H44 C54 1_555 1_555
H45 C54 1_555 1_555
H46 C54 1_555 1_555
Pr3 O4 1_555 1_555
Pr7 O8 1_555 1_555
O23 Pr4 1_555 1_555
O24 Pr2 1_555 1_555
O25 Pr2 1_555 1_555
O26 Pr2 1_555 1_555
O27 Pr2 1_555 1_555
O29 Pr2 1_555 1_555
O30 Pr2 1_555 1_555
O9 Pr7 1_555 1_555
O14 Pr7 1_555 1_555
N3 C50 1_555 1_555
C4 C28 1_555 1_555
C21 C33 1_555 1_555
C22 C28 1_555 1_555
C24 C29 1_555 1_555
C26 C36 1_555 1_555
C37 C39 1_555 1_555
C38 C40 1_555 1_555
C41 C44 1_555 1_555
Pr3 O26 1_555 1_555
O7 C14 1_555 1_555
O10 C14 1_555 1_555
Pr5 O7 1_555 1_555
O10 Pr5 1_555 1_555
Pr2_2 O5_2 1_555 1_555
S2_2 O17_2 1_555 1_555
S3_2 O18_2 1_555 1_555
O4_2 C15_2 1_555 1_555
O5_2 C15_2 1_555 1_555
O12_2 C18_2 1_555 1_555
O14_2 C27_2 1_555 1_555
O15_2 C18_2 1_555 1_555
O20_2 S2_2 1_555 1_555
O21_2 Pr2_2 1_555 1_555
O22_2 Pr2_2 1_555 1_555
N1_2 C42_2 1_555 1_555
N2_2 C31_2 1_555 1_555
N3_2 C32_2 1_555 1_555
N4_2 C45_2 1_555 1_555
C7_2 H3_2 1_555 1_555
C9_2 C27_2 1_555 1_555
C11_2 C15_2 1_555 1_555
C18_2 C19_2 1_555 1_555
C19_2 C7_2 1_555 1_555
C25_2 S2_2 1_555 1_555
C26_2 S2_2 1_555 1_555
C27_2 O9_2 1_555 1_555
C29_2 C11_2 1_555 1_555
H9_2 C29_2 1_555 1_555
C31_2 O3_2 1_555 1_555
H11_2 C31_2 1_555 1_555
C32_2 H12_2 1_555 1_555
H13_2 C32_2 1_555 1_555
H14_2 C32_2 1_555 1_555
C36_2 C9_2 1_555 1_555
H16_2 C36_2 1_555 1_555
C38_2 C26_2 1_555 1_555
C40_2 C25_2 1_555 1_555
C41_2 C9_2 1_555 1_555
H19_2 C41_2 1_555 1_555
C42_2 O13_2 1_555 1_555
H20_2 C42_2 1_555 1_555
C43_2 N3_2 1_555 1_555
H21_2 C43_2 1_555 1_555
H22_2 C43_2 1_555 1_555
H23_2 C43_2 1_555 1_555
C44_2 C38_2 1_555 1_555
H24_2 C44_2 1_555 1_555
C45_2 O22_2 1_555 1_555
H25_2 C45_2 1_555 1_555
C46_2 C19_2 1_555 1_555
H26_2 C46_2 1_555 1_555
C47_2 N2_2 1_555 1_555
H27_2 C47_2 1_555 1_555
H28 C47_2 1_555 1_555
H29_2 C47_2 1_555 1_555
C48_2 C40_2 1_555 1_555
H30_2 C48_2 1_555 1_555
C49_2 N1_2 1_555 1_555
H31_2 C49_2 1_555 1_555
H32_2 C49_2 1_555 1_555
H33_2 C49_2 1_555 1_555
C50_2 O21_2 1_555 1_555
H34_2 C50_2 1_555 1_555
C51_2 N4_2 1_555 1_555
H35_2 C51_2 1_555 1_555
H36_2 C51_2 1_555 1_555
H37_2 C51_2 1_555 1_555
C52_2 N1_2 1_555 1_555
H39_2 C52_2 1_555 1_555
H40 C52_2 1_555 1_555
C53_2 N2_2 1_555 1_555
H41_2 C53_2 1_555 1_555
H42_2 C53_2 1_555 1_555
H43_2 C53_2 1_555 1_555
C54_2 N4_2 1_555 1_555
H44_2 C54_2 1_555 1_555
H45_2 C54_2 1_555 1_555
H46_2 C54_2 1_555 1_555
Pr3_2 O4_2 1_555 1_555
Pr4_2 O12_2 1_555 1_555
Pr5 O15_2 1_555 1_555
O24_2 Pr2_2 1_555 1_555
O25_2 Pr2_2 1_555 1_555
O27_2 Pr2_2 1_555 1_555
O30_2 Pr2_2 1_555 1_555
N3_2 C50_2 1_555 1_555
C7_2 C25_2 1_555 1_555
C26_2 C36_2 1_555 1_555
C38_2 C40_2 1_555 1_555
C41_2 C44_2 1_555 1_555
C46_2 C48_2 1_555 1_555
Pr4_2 O1_2 1_555 1_555
S1 O11 1_555 1_555
O1_2 C2_2 1_555 1_555
O2_2 Pr4_2 1_555 1_555
O6_2 Pr4_2 1_555 1_555
O7_2 C14_2 1_555 1_555
O8_2 C13_2 1_555 1_555
O10_2 C14_2 1_555 1_555
O16 S1 1_555 1_555
C1 H1 1_555 1_555
C2_2 O6_2 1_555 1_555
C3 H2 1_555 1_555
C4_2 C5_2 1_555 1_555
C5_2 C24_2 1_555 1_555
C6 C17 1_555 1_555
C8 C1 1_555 1_555
C10 C8 1_555 1_555
H4 C10 1_555 1_555
C12_2 C13_2 1_555 1_555
C13_2 O2_2 1_555 1_555
C14_2 C23 1_555 1_555
C16 H5 1_555 1_555
C17 S1 1_555 1_555
C20 C1 1_555 1_555
H6 C20 1_555 1_555
H7_2 C21_2 1_555 1_555
C22_2 C12_2 1_555 1_555
H8_2 C22_2 1_555 1_555
C23 C3 1_555 1_555
C30 C16 1_555 1_555
H10 C30 1_555 1_555
C33_2 C5_2 1_555 1_555
H15_2 C33_2 1_555 1_555
C34 C6 1_555 1_555
C35 S1 1_555 1_555
C37_2 C12_2 1_555 1_555
H17_2 C37_2 1_555 1_555
C39_2 C4_2 1_555 1_555
H18_2 C39_2 1_555 1_555
Pr7 O7_2 1_555 1_555
Pr5 O8_2 1_555 1_555
O23_2 Pr4_2 1_555 1_555
O10_2 Pr7 1_555 1_555
C2_2 C8 1_555 1_555
C3 C35 1_555 1_555
C4_2 C28_2 1_555 1_555
C6 C20 1_555 1_555
C10 C17 1_555 1_555
C16 C34 1_555 1_555
C21_2 C33_2 1_555 1_555
C22_2 C28_2 1_555 1_555
C23 C30 1_555 1_555
C34 C35 1_555 1_555
C37_2 C39_2 1_555 1_555
Pr3 O1_3 1_555 1_555
S2_3 O17_3 1_555 1_555
S3_3 O18_3 1_555 1_555
O1_3 C2_3 1_555 1_555
O2_3 Pr3 1_555 1_555
O3_3 Pr3 1_555 1_555
O6_3 Pr3 1_555 1_555
O25 C13_3 1_555 1_555
O13_3 Pr3 1_555 1_555
O29 C27_3 1_555 1_555
O19_3 S3_3 1_555 1_555
O20_3 S2_3 1_555 1_555
N1_3 C42_3 1_555 1_555
N2_3 C31_3 1_555 1_555
C2_3 O6_3 1_555 1_555
C4_3 C5_3 1_555 1_555
C5_3 C24_3 1_555 1_555
C9_3 C27_3 1_555 1_555
C12_3 C13_3 1_555 1_555
C13_3 O2_3 1_555 1_555
C22_3 C12_3 1_555 1_555
H8_3 C22_3 1_555 1_555
C24_3 S3_3 1_555 1_555
C26_3 S2_3 1_555 1_555
C27_3 O26 1_555 1_555
C28_3 S3_3 1_555 1_555
C31_3 O3_3 1_555 1_555
H11_3 C31_3 1_555 1_555
C33_3 C5_3 1_555 1_555
H15_3 C33_3 1_555 1_555
C36_3 C9_3 1_555 1_555
H16_3 C36_3 1_555 1_555
C37_3 C12_3 1_555 1_555
H17_3 C37_3 1_555 1_555
C38_3 C26_3 1_555 1_555
C39_3 C4_3 1_555 1_555
H18_3 C39_3 1_555 1_555
C41_3 C9_3 1_555 1_555
H19_3 C41_3 1_555 1_555
C42_3 O13_3 1_555 1_555
H20_3 C42_3 1_555 1_555
C44_3 C38_3 1_555 1_555
H24_3 C44_3 1_555 1_555
C47_3 N2_3 1_555 1_555
H27_3 C47_3 1_555 1_555
H29_3 C47_3 1_555 1_555
C49_3 N1_3 1_555 1_555
H31_3 C49_3 1_555 1_555
H32_3 C49_3 1_555 1_555
H33_3 C49_3 1_555 1_555
C52_3 N1_3 1_555 1_555
H38 C52_3 1_555 1_555
H39_3 C52_3 1_555 1_555
C53_3 N2_3 1_555 1_555
H41_3 C53_3 1_555 1_555
H42_3 C53_3 1_555 1_555
H43_3 C53_3 1_555 1_555
O28 Pr3 1_555 1_555
C4_3 C28_3 1_555 1_555
C21_3 C33_3 1_555 1_555
C22_3 C28_3 1_555 1_555
C24_3 C29_3 1_555 1_555
C26_3 C36_3 1_555 1_555
C37_3 C39_3 1_555 1_555
C38_3 C40_3 1_555 1_555
C41_3 C44_3 1_555 1_555
Pr7 O5_3 1_555 1_555
O23 C15_3 1_555 1_555
O5_3 C15_3 1_555 1_555
O21_3 Pr7 1_555 1_555
O22_3 Pr7 1_555 1_555
N3_3 C32_3 1_555 1_555
N4_3 C45_3 1_555 1_555
C11_3 C15_3 1_555 1_555
C32_3 H12_3 1_555 1_555
H13_3 C32_3 1_555 1_555
H14_3 C32_3 1_555 1_555
C43_3 N3_3 1_555 1_555
H21_3 C43_3 1_555 1_555
H22_3 C43_3 1_555 1_555
H23_3 C43_3 1_555 1_555
C45_3 O22_3 1_555 1_555
H25_3 C45_3 1_555 1_555
C50_3 O21_3 1_555 1_555
H34_3 C50_3 1_555 1_555
C51_3 N4_3 1_555 1_555
H35_3 C51_3 1_555 1_555
H36_3 C51_3 1_555 1_555
H37_3 C51_3 1_555 1_555
C54_3 N4_3 1_555 1_555
H44_3 C54_3 1_555 1_555
H45_3 C54_3 1_555 1_555
H46_3 C54_3 1_555 1_555
N3_3 C50_3 1_555 1_555
O28 C18_3 1_555 1_555
O30 C18_3 1_555 1_555
C7_3 H3_3 1_555 1_555
C18_3 C19_3 1_555 1_555
C19_3 C7_3 1_555 1_555
C46_3 C19_3 1_555 1_555
H26_3 C46_3 1_555 1_555
C7_3 C25_3 1_555 1_555
C46_3 C48_3 1_555 1_555
O24_2 C14_3 1_555 1_555
O27_2 C14_3 1_555 1_555
Pr3_2 O1_4 1_555 1_555
S1_2 O11_2 1_555 1_555
O1_4 C2_4 1_555 1_555
O2_4 Pr3_2 1_555 1_555
O6_4 Pr3_2 1_555 1_555
O24 C14_4 1_555 1_555
O25_2 C13_4 1_555 1_555
O27 C14_4 1_555 1_555
O16_2 S1_2 1_555 1_555
C1_2 H1_2 1_555 1_555
C2_4 O6_4 1_555 1_555
C3_2 H2_2 1_555 1_555
C4_4 C5_4 1_555 1_555
C5_4 C24_4 1_555 1_555
C6_2 C17_2 1_555 1_555
C8_2 C1_2 1_555 1_555
C10_2 C8_2 1_555 1_555
H4_2 C10_2 1_555 1_555
C12_4 C13_4 1_555 1_555
C13_4 O2_4 1_555 1_555
C14_4 C23_2 1_555 1_555
C16_2 H5_2 1_555 1_555
C17_2 S1_2 1_555 1_555
C20_2 C1_2 1_555 1_555
H6_2 C20_2 1_555 1_555
C22_4 C12_4 1_555 1_555
H8_4 C22_4 1_555 1_555
C23_2 C3_2 1_555 1_555
C30_2 C16_2 1_555 1_555
H10_2 C30_2 1_555 1_555
C33_4 C5_4 1_555 1_555
H15_4 C33_4 1_555 1_555
C34_2 C6_2 1_555 1_555
C35_2 S1_2 1_555 1_555
C37_4 C12_4 1_555 1_555
H17_4 C37_4 1_555 1_555
C39_4 C4_4 1_555 1_555
H18_4 C39_4 1_555 1_555
O28_2 Pr3_2 1_555 1_555
C2_4 C8_2 1_555 1_555
C3_2 C35_2 1_555 1_555
C4_4 C28_4 1_555 1_555
C6_2 C20_2 1_555 1_555
C10_2 C17_2 1_555 1_555
C16_2 C34_2 1_555 1_555
C21_4 C33_4 1_555 1_555
C22_4 C28_4 1_555 1_555
C23_2 C30_2 1_555 1_555
C34_2 C35_2 1_555 1_555
C37_4 C39_4 1_555 1_555
S2_4 O17_4 1_555 1_555
S3_4 O18_4 1_555 1_555
O28_2 C18_4 1_555 1_555
O29_2 C27_4 1_555 1_555
O30_2 C18_4 1_555 1_555
O20_4 S2_4 1_555 1_555
N1_4 C42_4 1_555 1_555
N2_4 C31_4 1_555 1_555
C7_4 H3_4 1_555 1_555
C9_4 C27_4 1_555 1_555
C18_4 C19_4 1_555 1_555
C19_4 C7_4 1_555 1_555
C25_4 S2_4 1_555 1_555
C26_4 S2_4 1_555 1_555
C27_4 O26_2 1_555 1_555
C31_4 O3_4 1_555 1_555
H11_4 C31_4 1_555 1_555
C36_4 C9_4 1_555 1_555
H16_4 C36_4 1_555 1_555
C38_4 C26_4 1_555 1_555
C40_4 C25_4 1_555 1_555
C41_4 C9_4 1_555 1_555
H19_4 C41_4 1_555 1_555
C42_4 O13_4 1_555 1_555
H20_4 C42_4 1_555 1_555
C44_4 C38_4 1_555 1_555
H24_4 C44_4 1_555 1_555
C46_4 C19_4 1_555 1_555
H26_4 C46_4 1_555 1_555
C47_4 N2_4 1_555 1_555
H27_4 C47_4 1_555 1_555
H28_2 C47_4 1_555 1_555
H29_4 C47_4 1_555 1_555
C48_4 C40_4 1_555 1_555
H30_4 C48_4 1_555 1_555
C49_4 N1_4 1_555 1_555
H31_4 C49_4 1_555 1_555
H32_4 C49_4 1_555 1_555
H33_4 C49_4 1_555 1_555
C52_4 N1_4 1_555 1_555
H38_2 C52_4 1_555 1_555
H39_4 C52_4 1_555 1_555
H40_2 C52_4 1_555 1_555
C53_4 N2_4 1_555 1_555
H41_4 C53_4 1_555 1_555
H42_4 C53_4 1_555 1_555
H43_4 C53_4 1_555 1_555
C7_4 C25_4 1_555 1_555
C26_4 C36_4 1_555 1_555
C38_4 C40_4 1_555 1_555
C41_4 C44_4 1_555 1_555
C46_4 C48_4 1_555 1_555
Pr5 O5_4 1_555 1_555
O23_2 C15_4 1_555 1_555
O5_4 C15_4 1_555 1_555
O21_4 Pr5 1_555 1_555
O22_4 Pr5 1_555 1_555
N3_4 C32_4 1_555 1_555
N4_4 C45_4 1_555 1_555
C11_4 C15_4 1_555 1_555
C32_4 H12_4 1_555 1_555
H13_4 C32_4 1_555 1_555
H14_4 C32_4 1_555 1_555
C43_4 N3_4 1_555 1_555
H21_4 C43_4 1_555 1_555
H22_4 C43_4 1_555 1_555
H23_4 C43_4 1_555 1_555
C45_4 O22_4 1_555 1_555
H25_4 C45_4 1_555 1_555
C50_4 O21_4 1_555 1_555
H34_4 C50_4 1_555 1_555
C51_4 N4_4 1_555 1_555
H35_4 C51_4 1_555 1_555
H36_4 C51_4 1_555 1_555
H37_4 C51_4 1_555 1_555
C54_4 N4_4 1_555 1_555
H44_4 C54_4 1_555 1_555
H45_4 C54_4 1_555 1_555
H46_4 C54_4 1_555 1_555
N3_4 C50_4 1_555 1_555
S1_3 O11_3 1_555 1_555
O16_3 S1_3 1_555 1_555
C1_3 H1_3 1_555 1_555
C3_3 H2_3 1_555 1_555
C6_3 C17_3 1_555 1_555
C8_3 C1_3 1_555 1_555
C10_3 C8_3 1_555 1_555
H4_3 C10_3 1_555 1_555
C16_3 H5_3 1_555 1_555
C17_3 S1_3 1_555 1_555
C20_3 C1_3 1_555 1_555
H6_3 C20_3 1_555 1_555
C23_3 C3_3 1_555 1_555
C30_3 C16_3 1_555 1_555
H10_3 C30_3 1_555 1_555
C34_3 C6_3 1_555 1_555
C35_3 S1_3 1_555 1_555
C3_3 C35_3 1_555 1_555
C6_3 C20_3 1_555 1_555
C10_3 C17_3 1_555 1_555
C16_3 C34_3 1_555 1_555
C23_3 C30_3 1_555 1_555
C34_3 C35_3 1_555 1_555
S1_4 O11_4 1_555 1_555
O16_4 S1_4 1_555 1_555
C1_4 H1_4 1_555 1_555
C3_4 H2_4 1_555 1_555
C6_4 C17_4 1_555 1_555
C8_4 C1_4 1_555 1_555
C10_4 C8_4 1_555 1_555
H4_4 C10_4 1_555 1_555
C16_4 H5_4 1_555 1_555
C17_4 S1_4 1_555 1_555
C20_4 C1_4 1_555 1_555
H6_4 C20_4 1_555 1_555
C23_4 C3_4 1_555 1_555
C30_4 C16_4 1_555 1_555
H10_4 C30_4 1_555 1_555
C34_4 C6_4 1_555 1_555
C35_4 S1_4 1_555 1_555
C3_4 C35_4 1_555 1_555
C6_4 C20_4 1_555 1_555
C10_4 C17_4 1_555 1_555
C16_4 C34_4 1_555 1_555
C23_4 C30_4 1_555 1_555
C34_4 C35_4 1_555 1_555
O7_3 C14_5 1_555 1_555
O10_3 C14_5 1_555 1_555
Pr5_2 O7_3 1_555 1_555
O10_3 Pr5_2 1_555 1_555
O12_3 C18_5 1_555 1_555
O15_3 C18_5 1_555 1_555
C7_5 H3_5 1_555 1_555
C18_5 C19_5 1_555 1_555
C19_5 C7_5 1_555 1_555
C46_5 C19_5 1_555 1_555
H26_5 C46_5 1_555 1_555
Pr4_3 O12_3 1_555 1_555
Pr7_2 O15_3 1_555 1_555
C7_5 C25_5 1_555 1_555
C46_5 C48_5 1_555 1_555
Pr2_3 O5_5 1_555 1_555
O4_3 C15_5 1_555 1_555
O5_5 C15_5 1_555 1_555
O21_5 Pr2_3 1_555 1_555
O22_5 Pr2_3 1_555 1_555
N3_5 C32_5 1_555 1_555
N4_5 C45_5 1_555 1_555
C11_5 C15_5 1_555 1_555
C32_5 H12_5 1_555 1_555
H13_5 C32_5 1_555 1_555
H14_5 C32_5 1_555 1_555
C43_5 N3_5 1_555 1_555
H21_5 C43_5 1_555 1_555
H22_5 C43_5 1_555 1_555
H23_5 C43_5 1_555 1_555
C45_5 O22_5 1_555 1_555
H25_5 C45_5 1_555 1_555
C50_5 O21_5 1_555 1_555
H34_5 C50_5 1_555 1_555
C51_5 N4_5 1_555 1_555
H35_5 C51_5 1_555 1_555
H36_5 C51_5 1_555 1_555
H37_5 C51_5 1_555 1_555
C54_5 N4_5 1_555 1_555
H44_5 C54_5 1_555 1_555
H45_5 C54_5 1_555 1_555
H46_5 C54_5 1_555 1_555
Pr3_3 O4_3 1_555 1_555
O24_3 Pr2_3 1_555 1_555
O25_3 Pr2_3 1_555 1_555
O26_3 Pr2_3 1_555 1_555
O27_3 Pr2_3 1_555 1_555
O29_3 Pr2_3 1_555 1_555
O30_3 Pr2_3 1_555 1_555
N3_5 C50_5 1_555 1_555
Pr3_3 O26_3 1_555 1_555
Pr4_3 O1_5 1_555 1_555
S2_5 O17_5 1_555 1_555
S3_5 O18_5 1_555 1_555
O1_5 C2_5 1_555 1_555
O2_5 Pr4_3 1_555 1_555
O3_5 Pr4_3 1_555 1_555
O6_5 Pr4_3 1_555 1_555
O8_3 C13_5 1_555 1_555
O9_3 Pr4_3 1_555 1_555
O13_5 Pr4_3 1_555 1_555
O14_3 C27_5 1_555 1_555
O19_5 S3_5 1_555 1_555
O20_5 S2_5 1_555 1_555
N1_5 C42_5 1_555 1_555
N2_5 C31_5 1_555 1_555
C2_5 O6_5 1_555 1_555
C4_5 C5_5 1_555 1_555
C5_5 C24_5 1_555 1_555
C9_5 C27_5 1_555 1_555
C12_5 C13_5 1_555 1_555
C13_5 O2_5 1_555 1_555
C22_5 C12_5 1_555 1_555
H8_5 C22_5 1_555 1_555
C24_5 S3_5 1_555 1_555
C26_5 S2_5 1_555 1_555
C27_5 O9_3 1_555 1_555
C28_5 S3_5 1_555 1_555
C31_5 O3_5 1_555 1_555
H11_5 C31_5 1_555 1_555
C33_5 C5_5 1_555 1_555
H15_5 C33_5 1_555 1_555
C36_5 C9_5 1_555 1_555
H16_5 C36_5 1_555 1_555
C37_5 C12_5 1_555 1_555
H17_5 C37_5 1_555 1_555
C38_5 C26_5 1_555 1_555
C39_5 C4_5 1_555 1_555
H18_5 C39_5 1_555 1_555
C41_5 C9_5 1_555 1_555
H19_5 C41_5 1_555 1_555
C42_5 O13_5 1_555 1_555
H20_5 C42_5 1_555 1_555
C44_5 C38_5 1_555 1_555
H24_5 C44_5 1_555 1_555
C47_5 N2_5 1_555 1_555
H27_5 C47_5 1_555 1_555
H29_5 C47_5 1_555 1_555
C49_5 N1_5 1_555 1_555
H31_5 C49_5 1_555 1_555
H32_5 C49_5 1_555 1_555
H33_5 C49_5 1_555 1_555
C52_5 N1_5 1_555 1_555
H38_4 C52_5 1_555 1_555
H39_5 C52_5 1_555 1_555
C53_5 N2_5 1_555 1_555
H41_5 C53_5 1_555 1_555
H42_5 C53_5 1_555 1_555
H43_5 C53_5 1_555 1_555
Pr7_2 O8_3 1_555 1_555
O23_3 Pr4_3 1_555 1_555
O9_3 Pr7_2 1_555 1_555
O14_3 Pr7_2 1_555 1_555
C4_5 C28_5 1_555 1_555
C21_5 C33_5 1_555 1_555
C22_5 C28_5 1_555 1_555
C24_5 C29_5 1_555 1_555
C26_5 C36_5 1_555 1_555
C37_5 C39_5 1_555 1_555
C38_5 C40_5 1_555 1_555
C41_5 C44_5 1_555 1_555
Pr2_4 O5_6 1_555 1_555
O4_4 C15_6 1_555 1_555
O5_6 C15_6 1_555 1_555
O21_6 Pr2_4 1_555 1_555
O22_6 Pr2_4 1_555 1_555
N3_6 C32_6 1_555 1_555
N4_6 C45_6 1_555 1_555
C11_6 C15_6 1_555 1_555
C32_6 H12_6 1_555 1_555
H13_6 C32_6 1_555 1_555
H14_6 C32_6 1_555 1_555
C43_6 N3_6 1_555 1_555
H21_6 C43_6 1_555 1_555
H22_6 C43_6 1_555 1_555
H23_6 C43_6 1_555 1_555
C45_6 O22_6 1_555 1_555
H25_6 C45_6 1_555 1_555
C50_6 O21_6 1_555 1_555
H34_6 C50_6 1_555 1_555
C51_6 N4_6 1_555 1_555
H35_6 C51_6 1_555 1_555
H36_6 C51_6 1_555 1_555
H37_6 C51_6 1_555 1_555
C54_6 N4_6 1_555 1_555
H44_6 C54_6 1_555 1_555
H45_6 C54_6 1_555 1_555
H46_6 C54_6 1_555 1_555
Pr3_4 O4_4 1_555 1_555
O24_4 Pr2_4 1_555 1_555
O25_4 Pr2_4 1_555 1_555
O27_4 Pr2_4 1_555 1_555
O30_4 Pr2_4 1_555 1_555
N3_6 C50_6 1_555 1_555
S2_6 O17_6 1_555 1_555
S3_6 O18_6 1_555 1_555
O12_4 C18_6 1_555 1_555
O14_4 C27_6 1_555 1_555
O15_4 C18_6 1_555 1_555
O20_6 S2_6 1_555 1_555
N1_6 C42_6 1_555 1_555
N2_6 C31_6 1_555 1_555
C7_6 H3_6 1_555 1_555
C9_6 C27_6 1_555 1_555
C18_6 C19_6 1_555 1_555
C19_6 C7_6 1_555 1_555
C25_6 S2_6 1_555 1_555
C26_6 S2_6 1_555 1_555
C27_6 O9_4 1_555 1_555
C31_6 O3_6 1_555 1_555
H11_6 C31_6 1_555 1_555
C36_6 C9_6 1_555 1_555
H16_6 C36_6 1_555 1_555
C38_6 C26_6 1_555 1_555
C40_6 C25_6 1_555 1_555
C41_6 C9_6 1_555 1_555
H19_6 C41_6 1_555 1_555
C42_6 O13_6 1_555 1_555
H20_6 C42_6 1_555 1_555
C44_6 C38_6 1_555 1_555
H24_6 C44_6 1_555 1_555
C46_6 C19_6 1_555 1_555
H26_6 C46_6 1_555 1_555
C47_6 N2_6 1_555 1_555
H27_6 C47_6 1_555 1_555
H28_5 C47_6 1_555 1_555
H29_6 C47_6 1_555 1_555
C48_6 C40_6 1_555 1_555
H30_6 C48_6 1_555 1_555
C49_6 N1_6 1_555 1_555
H31_6 C49_6 1_555 1_555
H32_6 C49_6 1_555 1_555
H33_6 C49_6 1_555 1_555
C52_6 N1_6 1_555 1_555
H38_5 C52_6 1_555 1_555
H39_6 C52_6 1_555 1_555
H40_5 C52_6 1_555 1_555
C53_6 N2_6 1_555 1_555
H41_6 C53_6 1_555 1_555
H42_6 C53_6 1_555 1_555
H43_6 C53_6 1_555 1_555
Pr4_4 O12_4 1_555 1_555
Pr5_2 O15_4 1_555 1_555
C7_6 C25_6 1_555 1_555
C26_6 C36_6 1_555 1_555
C38_6 C40_6 1_555 1_555
C41_6 C44_6 1_555 1_555
C46_6 C48_6 1_555 1_555
Pr4_4 O1_6 1_555 1_555
S1_5 O11_5 1_555 1_555
O1_6 C2_6 1_555 1_555
O2_6 Pr4_4 1_555 1_555
O6_6 Pr4_4 1_555 1_555
O7_4 C14_6 1_555 1_555
O8_4 C13_6 1_555 1_555
O10_4 C14_6 1_555 1_555
O16_5 S1_5 1_555 1_555
C1_5 H1_5 1_555 1_555
C2_6 O6_6 1_555 1_555
C3_5 H2_5 1_555 1_555
C4_6 C5_6 1_555 1_555
C5_6 C24_6 1_555 1_555
C6_5 C17_5 1_555 1_555
C8_5 C1_5 1_555 1_555
C10_5 C8_5 1_555 1_555
H4_5 C10_5 1_555 1_555
C12_6 C13_6 1_555 1_555
C13_6 O2_6 1_555 1_555
C14_6 C23_5 1_555 1_555
C16_5 H5_5 1_555 1_555
C17_5 S1_5 1_555 1_555
C20_5 C1_5 1_555 1_555
H6_5 C20_5 1_555 1_555
C22_6 C12_6 1_555 1_555
H8_6 C22_6 1_555 1_555
C23_5 C3_5 1_555 1_555
C30_5 C16_5 1_555 1_555
H10_5 C30_5 1_555 1_555
C33_6 C5_6 1_555 1_555
H15_6 C33_6 1_555 1_555
C34_5 C6_5 1_555 1_555
C35_5 S1_5 1_555 1_555
C37_6 C12_6 1_555 1_555
H17_6 C37_6 1_555 1_555
C39_6 C4_6 1_555 1_555
H18_6 C39_6 1_555 1_555
Pr7_2 O7_4 1_555 1_555
Pr5_2 O8_4 1_555 1_555
O23_4 Pr4_4 1_555 1_555
O10_4 Pr7_2 1_555 1_555
C2_6 C8_5 1_555 1_555
C3_5 C35_5 1_555 1_555
C4_6 C28_6 1_555 1_555
C6_5 C20_5 1_555 1_555
C10_5 C17_5 1_555 1_555
C16_5 C34_5 1_555 1_555
C21_6 C33_6 1_555 1_555
C22_6 C28_6 1_555 1_555
C23_5 C30_5 1_555 1_555
C34_5 C35_5 1_555 1_555
C37_6 C39_6 1_555 1_555
O24_4 C14_7 1_555 1_555
O27_4 C14_7 1_555 1_555
Pr3_3 O1_7 1_555 1_555
Pr7_2 O5_7 1_555 1_555
S2_7 O17_7 1_555 1_555
S3_7 O18_7 1_555 1_555
O1_7 C2_7 1_555 1_555
O2_7 Pr3_3 1_555 1_555
O3_7 Pr3_3 1_555 1_555
O23_3 C15_7 1_555 1_555
O5_7 C15_7 1_555 1_555
O6_7 Pr3_3 1_555 1_555
O25_3 C13_7 1_555 1_555
O13_7 Pr3_3 1_555 1_555
O29_3 C27_7 1_555 1_555
O19_7 S3_7 1_555 1_555
O20_7 S2_7 1_555 1_555
O21_7 Pr7_2 1_555 1_555
O22_7 Pr7_2 1_555 1_555
N1_7 C42_7 1_555 1_555
N2_7 C31_7 1_555 1_555
N3_7 C32_7 1_555 1_555
N4_7 C45_7 1_555 1_555
C2_7 O6_7 1_555 1_555
C4_7 C5_7 1_555 1_555
C5_7 C24_7 1_555 1_555
C9_7 C27_7 1_555 1_555
C11_7 C15_7 1_555 1_555
C12_7 C13_7 1_555 1_555
C13_7 O2_7 1_555 1_555
C21_7 C11_7 1_555 1_555
H7_7 C21_7 1_555 1_555
C22_7 C12_7 1_555 1_555
H8_7 C22_7 1_555 1_555
C24_7 S3_7 1_555 1_555
C26_7 S2_7 1_555 1_555
C27_7 O26_3 1_555 1_555
C28_7 S3_7 1_555 1_555
C29_7 C11_7 1_555 1_555
H9_7 C29_7 1_555 1_555
C31_7 O3_7 1_555 1_555
H11_7 C31_7 1_555 1_555
C32_7 H12_7 1_555 1_555
H13_7 C32_7 1_555 1_555
H14_7 C32_7 1_555 1_555
C33_7 C5_7 1_555 1_555
H15_7 C33_7 1_555 1_555
C36_7 C9_7 1_555 1_555
H16_7 C36_7 1_555 1_555
C37_7 C12_7 1_555 1_555
H17_7 C37_7 1_555 1_555
C38_7 C26_7 1_555 1_555
C39_7 C4_7 1_555 1_555
H18_7 C39_7 1_555 1_555
C41_7 C9_7 1_555 1_555
H19_7 C41_7 1_555 1_555
C42_7 O13_7 1_555 1_555
H20_7 C42_7 1_555 1_555
C43_7 N3_7 1_555 1_555
H21_7 C43_7 1_555 1_555
H22_7 C43_7 1_555 1_555
H23_7 C43_7 1_555 1_555
C44_7 C38_7 1_555 1_555
H24_7 C44_7 1_555 1_555
C45_7 O22_7 1_555 1_555
H25_7 C45_7 1_555 1_555
C47_7 N2_7 1_555 1_555
H27_7 C47_7 1_555 1_555
H29_7 C47_7 1_555 1_555
C49_7 N1_7 1_555 1_555
H31_7 C49_7 1_555 1_555
H32_7 C49_7 1_555 1_555
H33_7 C49_7 1_555 1_555
C50_7 O21_7 1_555 1_555
H34_7 C50_7 1_555 1_555
C51_7 N4_7 1_555 1_555
H35_7 C51_7 1_555 1_555
H36_7 C51_7 1_555 1_555
H37_7 C51_7 1_555 1_555
C52_7 N1_7 1_555 1_555
H39_7 C52_7 1_555 1_555
C53_7 N2_7 1_555 1_555
H41_7 C53_7 1_555 1_555
H42_7 C53_7 1_555 1_555
H43_7 C53_7 1_555 1_555
C54_7 N4_7 1_555 1_555
H44_7 C54_7 1_555 1_555
H45_7 C54_7 1_555 1_555
H46_7 C54_7 1_555 1_555
O28_3 Pr3_3 1_555 1_555
N3_7 C50_7 1_555 1_555
C4_7 C28_7 1_555 1_555
C21_7 C33_7 1_555 1_555
C22_7 C28_7 1_555 1_555
C24_7 C29_7 1_555 1_555
C26_7 C36_7 1_555 1_555
C37_7 C39_7 1_555 1_555
C38_7 C40_7 1_555 1_555
C41_7 C44_7 1_555 1_555
O28_3 C18_7 1_555 1_555
O30_3 C18_7 1_555 1_555
C7_7 H3_7 1_555 1_555
C18_7 C19_7 1_555 1_555
C19_7 C7_7 1_555 1_555
C46_7 C19_7 1_555 1_555
H26_7 C46_7 1_555 1_555
C7_7 C25_7 1_555 1_555
C46_7 C48_7 1_555 1_555
Pr3_4 O1_8 1_555 1_555
S1_6 O11_6 1_555 1_555
O1_8 C2_8 1_555 1_555
O2_8 Pr3_4 1_555 1_555
O6_8 Pr3_4 1_555 1_555
O24_3 C14_8 1_555 1_555
O25_4 C13_8 1_555 1_555
O27_3 C14_8 1_555 1_555
O16_6 S1_6 1_555 1_555
C1_6 H1_6 1_555 1_555
C2_8 O6_8 1_555 1_555
C3_6 H2_6 1_555 1_555
C4_8 C5_8 1_555 1_555
C5_8 C24_8 1_555 1_555
C6_6 C17_6 1_555 1_555
C8_6 C1_6 1_555 1_555
C10_6 C8_6 1_555 1_555
H4_6 C10_6 1_555 1_555
C12_8 C13_8 1_555 1_555
C13_8 O2_8 1_555 1_555
C14_8 C23_6 1_555 1_555
C16_6 H5_6 1_555 1_555
C17_6 S1_6 1_555 1_555
C20_6 C1_6 1_555 1_555
H6_6 C20_6 1_555 1_555
H7_8 C21_8 1_555 1_555
C22_8 C12_8 1_555 1_555
H8_8 C22_8 1_555 1_555
C23_6 C3_6 1_555 1_555
C30_6 C16_6 1_555 1_555
H10_6 C30_6 1_555 1_555
C33_8 C5_8 1_555 1_555
H15_8 C33_8 1_555 1_555
C34_6 C6_6 1_555 1_555
C35_6 S1_6 1_555 1_555
C37_8 C12_8 1_555 1_555
H17_8 C37_8 1_555 1_555
C39_8 C4_8 1_555 1_555
H18_8 C39_8 1_555 1_555
O28_4 Pr3_4 1_555 1_555
C2_8 C8_6 1_555 1_555
C3_6 C35_6 1_555 1_555
C4_8 C28_8 1_555 1_555
C6_6 C20_6 1_555 1_555
C10_6 C17_6 1_555 1_555
C16_6 C34_6 1_555 1_555
C21_8 C33_8 1_555 1_555
C22_8 C28_8 1_555 1_555
C23_6 C30_6 1_555 1_555
C34_6 C35_6 1_555 1_555
C37_8 C39_8 1_555 1_555
Pr5_2 O5_8 1_555 1_555
S2_8 O17_8 1_555 1_555
S3_8 O18_8 1_555 1_555
O23_4 C15_8 1_555 1_555
O5_8 C15_8 1_555 1_555
O28_4 C18_8 1_555 1_555
O29_4 C27_8 1_555 1_555
O30_4 C18_8 1_555 1_555
O20_8 S2_8 1_555 1_555
O21_8 Pr5_2 1_555 1_555
O22_8 Pr5_2 1_555 1_555
N1_8 C42_8 1_555 1_555
N2_8 C31_8 1_555 1_555
N3_8 C32_8 1_555 1_555
N4_8 C45_8 1_555 1_555
C7_8 H3_8 1_555 1_555
C9_8 C27_8 1_555 1_555
C11_8 C15_8 1_555 1_555
C18_8 C19_8 1_555 1_555
C19_8 C7_8 1_555 1_555
C25_8 S2_8 1_555 1_555
C26_8 S2_8 1_555 1_555
C27_8 O26_4 1_555 1_555
C29_8 C11_8 1_555 1_555
H9_8 C29_8 1_555 1_555
C31_8 O3_8 1_555 1_555
H11_8 C31_8 1_555 1_555
C32_8 H12_8 1_555 1_555
H13_8 C32_8 1_555 1_555
H14_8 C32_8 1_555 1_555
C36_8 C9_8 1_555 1_555
H16_8 C36_8 1_555 1_555
C38_8 C26_8 1_555 1_555
C40_8 C25_8 1_555 1_555
C41_8 C9_8 1_555 1_555
H19_8 C41_8 1_555 1_555
C42_8 O13_8 1_555 1_555
H20_8 C42_8 1_555 1_555
C43_8 N3_8 1_555 1_555
H21_8 C43_8 1_555 1_555
H22_8 C43_8 1_555 1_555
H23_8 C43_8 1_555 1_555
C44_8 C38_8 1_555 1_555
H24_8 C44_8 1_555 1_555
C45_8 O22_8 1_555 1_555
H25_8 C45_8 1_555 1_555
C46_8 C19_8 1_555 1_555
H26_8 C46_8 1_555 1_555
C47_8 N2_8 1_555 1_555
H27_8 C47_8 1_555 1_555
H28_6 C47_8 1_555 1_555
H29_8 C47_8 1_555 1_555
C48_8 C40_8 1_555 1_555
H30_8 C48_8 1_555 1_555
C49_8 N1_8 1_555 1_555
H31_8 C49_8 1_555 1_555
H32_8 C49_8 1_555 1_555
H33_8 C49_8 1_555 1_555
C50_8 O21_8 1_555 1_555
H34_8 C50_8 1_555 1_555
C51_8 N4_8 1_555 1_555
H35_8 C51_8 1_555 1_555
H36_8 C51_8 1_555 1_555
H37_8 C51_8 1_555 1_555
C52_8 N1_8 1_555 1_555
H39_8 C52_8 1_555 1_555
H40_6 C52_8 1_555 1_555
C53_8 N2_8 1_555 1_555
H41_8 C53_8 1_555 1_555
H42_8 C53_8 1_555 1_555
H43_8 C53_8 1_555 1_555
C54_8 N4_8 1_555 1_555
H44_8 C54_8 1_555 1_555
H45_8 C54_8 1_555 1_555
H46_8 C54_8 1_555 1_555
N3_8 C50_8 1_555 1_555
C7_8 C25_8 1_555 1_555
C26_8 C36_8 1_555 1_555
C38_8 C40_8 1_555 1_555
C41_8 C44_8 1_555 1_555
C46_8 C48_8 1_555 1_555
S1_7 O11_7 1_555 1_555
O16_7 S1_7 1_555 1_555
C1_7 H1_7 1_555 1_555
C3_7 H2_7 1_555 1_555
C6_7 C17_7 1_555 1_555
C8_7 C1_7 1_555 1_555
C10_7 C8_7 1_555 1_555
H4_7 C10_7 1_555 1_555
C16_7 H5_7 1_555 1_555
C17_7 S1_7 1_555 1_555
C20_7 C1_7 1_555 1_555
H6_7 C20_7 1_555 1_555
C23_7 C3_7 1_555 1_555
C30_7 C16_7 1_555 1_555
H10_7 C30_7 1_555 1_555
C34_7 C6_7 1_555 1_555
C35_7 S1_7 1_555 1_555
C3_7 C35_7 1_555 1_555
C6_7 C20_7 1_555 1_555
C10_7 C17_7 1_555 1_555
C16_7 C34_7 1_555 1_555
C23_7 C30_7 1_555 1_555
C34_7 C35_7 1_555 1_555
S1_8 O11_8 1_555 1_555
O16_8 S1_8 1_555 1_555
C1_8 H1_8 1_555 1_555
C3_8 H2_8 1_555 1_555
C6_8 C17_8 1_555 1_555
C8_8 C1_8 1_555 1_555
C10_8 C8_8 1_555 1_555
H4_8 C10_8 1_555 1_555
C16_8 H5_8 1_555 1_555
C17_8 S1_8 1_555 1_555
C20_8 C1_8 1_555 1_555
H6_8 C20_8 1_555 1_555
C23_8 C3_8 1_555 1_555
C30_8 C16_8 1_555 1_555
H10_8 C30_8 1_555 1_555
C34_8 C6_8 1_555 1_555
C35_8 S1_8 1_555 1_555
C3_8 C35_8 1_555 1_555
C6_8 C20_8 1_555 1_555
C10_8 C17_8 1_555 1_555
C16_8 C34_8 1_555 1_555
C23_8 C30_8 1_555 1_555
C34_8 C35_8 1_555 1_555

#END
