
###############################################################################
#
# This file contains modified crystal structure data generated from the
# MOF subset of the Cambridge Structural Database (CSD) v543 
# hosted by the Cambridge Crystallographic Data Centre (CCDC).
#
# This work is licensed under the Creative Commons
# Attribution-NonCommercial-ShareAlike 4.0 International License.
# To view a copy of this license, visit
# http://creativecommons.org/licenses/by-nc-sa/4.0/
# or send a letter to
# Creative Commons, PO Box 1866, Mountain View, CA 94042, USA.
#
# CIF created using the CSD Python API on 29 September 2022
# The structure has been converted into the P1 space group
# The structure has a 3D framework
# The original CSD entry YURKAY is in the triclinic crystal system
# The framework has been calculated to contain at least 10.0% void space
# The void calculation uses a probe of radius 1.32A, grid spacing 0.4
# H atom positions have been added when not included in the experimental data
#
###############################################################################

data_YURKAY
_chemical_formula_moiety         '(C102 H78 Dy4 N6 O40 S6)n'
_symmetry_cell_setting           triclinic
_symmetry_space_group_name_H-M   'P 1'
_symmetry_Int_Tables_number      1
_space_group_name_Hall           'P 1'
loop_
_symmetry_equiv_pos_site_id
_symmetry_equiv_pos_as_xyz
1 x,y,z
_cell_length_a                   12.4996(12)
_cell_length_b                   17.7008(16)
_cell_length_c                   22.3869(18)
_cell_angle_alpha                79.657(7)
_cell_angle_beta                 80.452(7)
_cell_angle_gamma                81.326(8)
_cell_volume                     4767.64
loop_
_atom_site_label
_atom_site_type_symbol
_atom_site_fract_x
_atom_site_fract_y
_atom_site_fract_z
O13 O 0.0194(8) 0.3950(5) 0.4420(4)
O14 O 0.1321(8) 0.4863(5) 0.4103(4)
C29 C 0.0959(12) 0.4238(8) 0.4081(6)
C30 C 0.1561(12) 0.3802(8) 0.3567(6)
C31 C 0.1106(12) 0.3195(8) 0.3421(7)
H13 H 0.0448 0.3046 0.3634
C32 C 0.2558(13) 0.3997(9) 0.3261(7)
H14 H 0.2853 0.4396 0.3370
C33 C 0.1678(13) 0.2822(8) 0.2943(7)
C34 C 0.3146(14) 0.3605(9) 0.2784(7)
H15 H 0.3813 0.3746 0.2577
C35 C 0.2689(13) 0.2999(8) 0.2635(7)
C36 C 0.3154(12) 0.2509(8) 0.2156(7)
C37 C 0.2494(12) 0.1954(9) 0.2122(7)
C38 C 0.4123(13) 0.2524(9) 0.1773(7)
H16 H 0.4580 0.2890 0.1780
C39 C 0.2784(13) 0.1410(8) 0.1714(7)
H17 H 0.2320 0.1053 0.1698
C40 C 0.4424(13) 0.1989(8) 0.1371(7)
H18 H 0.5084 0.2007 0.1110
C41 C 0.3771(11) 0.1427(8) 0.1345(6)
C42 C 0.4152(13) 0.0855(8) 0.0893(6)
O15 O 0.3512(8) 0.0389(6) 0.0847(4)
S3 S 0.1263(4) 0.2048(3) 0.2652(2)
O16 O 0.1208(10) 0.1369(6) 0.3110(5)
O17 O 0.0337(9) 0.2325(7) 0.2322(5)
O18 O 0.5094(8) 0.0922(6) 0.0590(4)
C45 C 0.1553(19) 0.1199(13) 0.0311(11)
H20 H 0.1832 0.1144 0.0678
N3 N 0.0641(16) 0.1695(10) 0.0250(10)
H31 H 0.0751 0.0184 0.2221
C50 C 0.013(3) 0.2107(19) 0.0741(14)
H34 H 0.0630 0.2427 0.0822
Dy7 Dy 0.12882(6) 0.57010(4) 0.48195(3)
O7 O 0.4496(8) 0.0674(5) 0.9494(4)
O8 O 0.5881(8) 0.1361(5) 0.9268(5)
C15 C 0.4967(13) 0.1241(8) 0.9187(7)
C16 C 0.4367(12) 0.1760(8) 0.8707(7)
C17 C 0.3413(14) 0.1575(9) 0.8545(7)
H7 H 0.3093 0.1141 0.8747
C18 C 0.4826(15) 0.2415(10) 0.8378(8)
H8 H 0.5458 0.2534 0.8489
C19 C 0.4377(16) 0.2903(11) 0.7887(9)
H9 H 0.4697 0.3333 0.7674
C20 C 0.2966(13) 0.2074(9) 0.8064(7)
C21 C 0.3427(15) 0.2705(9) 0.7739(8)
C22 C 0.2814(15) 0.3124(8) 0.7215(8)
C23 C 0.1901(14) 0.2754(8) 0.7181(7)
C24 C 0.3059(16) 0.3780(10) 0.6798(9)
H10 H 0.3645 0.4034 0.6824
C25 C 0.2381(14) 0.4051(9) 0.6329(8)
H11 H 0.2526 0.4486 0.6041
C26 C 0.1268(14) 0.3003(9) 0.6734(7)
H12 H 0.0689 0.2739 0.6715
C27 C 0.1474(13) 0.3651(8) 0.6303(7)
C28 C 0.0777(13) 0.3946(9) 0.5820(7)
O9 O 0.0967(8) 0.4550(5) 0.5434(4)
S2 S 0.1793(4) 0.1936(3) 0.7760(2)
O11 O 0.2001(11) 0.1253(7) 0.7495(6)
O12 O 0.0791(11) 0.2039(8) 0.8189(6)
O20 O 0.2052(9) 0.0812(6) 0.9929(5)
C51 C 0.005(3) 0.178(2) 0.9702(15)
H38 H 0.0528 0.1956 0.9336
Dy3 Dy 0.65337(6) 0.02921(4) 0.99792(3)
Dy1 Dy 0.34663(6) 0.97079(4) 0.00208(3)
O19 O 0.1936(8) 0.9359(6) 0.0723(5)
C44 C 0.1678(15) 0.9423(10) 0.1271(9)
N1 N 0.0666(13) 0.9670(9) 0.1508(7)
C49 C 0.0349(18) 0.9799(13) 0.2144(9)
H32 H 0.0509 0.9323 0.2415
O23 O 0.4119(8) 0.8639(5) 0.0732(5)
H39 H 0.230525 0.927085 0.157146
O1 O 0.2871(8) 0.9853(6) 0.9040(4)
O2 O 0.2769(8) 0.8667(6) 0.9590(5)
C1 C 0.2759(12) 0.9153(9) 0.9078(7)
C2 C 0.2656(12) 0.8853(8) 0.8492(7)
C3 C 0.2490(13) 0.9404(8) 0.7966(7)
H1 H 0.2464 0.9927 0.7983
C4 C 0.2752(12) 0.8067(9) 0.8465(7)
H2 H 0.2884 0.7698 0.8805
C5 C 0.2644(13) 0.7855(9) 0.7922(7)
C6 C 0.2365(14) 0.9175(9) 0.7426(7)
H3 H 0.2226 0.9542 0.7085
C7 C 0.2451(14) 0.8387(9) 0.7399(7)
C8 C 0.2322(12) 0.8023(8) 0.6868(7)
C9 C 0.2455(13) 0.7217(9) 0.6999(7)
C10 C 0.2083(13) 0.8377(9) 0.6293(7)
H4 H 0.2007 0.8914 0.6190
C11 C 0.2331(12) 0.6752(8) 0.6580(7)
H5 H 0.2420 0.6215 0.6679
C12 C 0.1957(14) 0.7918(8) 0.5871(7)
H6 H 0.1794 0.8152 0.5485
C13 C 0.2072(11) 0.7112(8) 0.6017(7)
C14 C 0.1915(12) 0.6613(9) 0.5551(7)
O3 O 0.1588(9) 0.6961(6) 0.5051(5)
O4 O 0.2069(9) 0.5900(6) 0.5699(5)
S1 S 0.2800(4) 0.6894(2) 0.77559(19)
O5 O 0.2004(10) 0.6443(6) 0.8150(5)
O6 O 0.3942(9) 0.6554(6) 0.7724(5)
O21 O 0.3092(9) 0.5014(6) 0.4762(6)
O22 O 0.2348(9) 0.6337(6) 0.3912(6)
C43 C 0.3432(14) 0.4388(10) 0.4646(9)
H19 H 0.2965 0.4008 0.4749
N2 N 0.4447(12) 0.4198(8) 0.4377(8)
C47 C 0.4820(17) 0.3406(12) 0.4197(13)
H24 H 0.5571 0.3379 0.4012
H25 H 0.4378 0.3318 0.3910
H26 H 0.4746 0.3018 0.4556
C48 C 0.5242(17) 0.4752(12) 0.4148(13)
H27 H 0.5917 0.4486 0.3974
H28 H 0.5368 0.4986 0.4480
H29 H 0.4960 0.5145 0.3839
O25 O 0.0016(8) 0.6423(6) 0.4189(5)
O28 O 0.4906(8) 0.9078(6) 0.9410(4)
H21 H 0.9101 0.0056 0.1313
H23 H 0.9995 0.0310 0.0764
H33 H 0.9483 0.2427 0.0626
H35 H 0.9941 0.1744 0.1103
Dy6 Dy 0.87118(6) 0.42990(4) 0.51805(3)
O10 O 0.9984(8) 0.3577(6) 0.5811(5)
H36 H 0.9413 0.2157 0.9747
H37 H 0.9837 0.1294 0.9673
O26 O 0.9806(8) 0.6050(5) 0.5580(4)
H36_2 H 0.0587 0.7843 0.0253
H37_2 H 0.0163 0.8706 0.0327
H21_2 H 0.0899 0.9944 0.8687
H23_2 H 0.0005 0.9690 0.9236
H33_2 H 0.0517 0.7573 0.9374
H35_2 H 0.0059 0.8256 0.8897
O1_2 O 0.7129(8) 0.0147(6) 0.0960(4)
O2_2 O 0.7231(8) 0.1333(6) 0.0410(5)
C1_2 C 0.7241(12) 0.0847(9) 0.0922(7)
C2_2 C 0.7344(12) 0.1147(8) 0.1508(7)
C3_2 C 0.7510(13) 0.0596(8) 0.2034(7)
H1_2 H 0.7536 0.0073 0.2017
C4_2 C 0.7248(12) 0.1933(9) 0.1535(7)
H2_2 H 0.7116 0.2302 0.1195
C5_2 C 0.7356(13) 0.2145(9) 0.2078(7)
C6_2 C 0.7635(14) 0.0825(9) 0.2574(7)
H3_2 H 0.7774 0.0458 0.2915
C7_2 C 0.7549(14) 0.1613(9) 0.2601(7)
C8_2 C 0.7678(12) 0.1977(8) 0.3132(7)
C9_2 C 0.7545(13) 0.2783(9) 0.3001(7)
C10_2 C 0.7917(13) 0.1623(9) 0.3707(7)
H4_2 H 0.7993 0.1086 0.3810
C11_2 C 0.7669(12) 0.3248(8) 0.3420(7)
H5_2 H 0.7580 0.3785 0.3321
C12_2 C 0.8043(14) 0.2082(8) 0.4129(7)
H6_2 H 0.8206 0.1848 0.4515
C13_2 C 0.7928(11) 0.2888(8) 0.3983(7)
C14_2 C 0.8085(12) 0.3387(9) 0.4449(7)
O3_2 O 0.8412(9) 0.3039(6) 0.4949(5)
O4_2 O 0.7931(9) 0.4100(6) 0.4301(5)
S1_2 S 0.7200(4) 0.3106(2) 0.22441(19)
O5_2 O 0.7996(10) 0.3557(6) 0.1850(5)
O6_2 O 0.6058(9) 0.3446(6) 0.2276(5)
O21_2 O 0.6908(9) 0.4986(6) 0.5238(6)
O22_2 O 0.7652(9) 0.3663(6) 0.6088(6)
C43_2 C 0.6568(14) 0.5612(10) 0.5354(9)
H19_2 H 0.7035 0.5992 0.5251
N2_2 N 0.5553(12) 0.5802(8) 0.5623(8)
C47_2 C 0.5180(17) 0.6594(12) 0.5803(13)
H24_2 H 0.4429 0.6621 0.5988
H25_2 H 0.5622 0.6682 0.6090
H26_2 H 0.5254 0.6982 0.5444
C48_2 C 0.4758(17) 0.5248(12) 0.5852(13)
H27_2 H 0.4083 0.5514 0.6026
H28_2 H 0.4632 0.5014 0.5520
H29_2 H 0.5040 0.4855 0.6161
O24 O 0.9033(8) 0.5450(5) 0.4566(4)
O27 O 0.8679(8) 0.5137(5) 0.5897(4)
O19_2 O 0.8064(8) 0.0641(6) 0.9277(5)
C44_2 C 0.8322(15) 0.0577(10) 0.8729(9)
N1_2 N 0.9334(13) 0.0330(9) 0.8492(7)
C49_2 C 0.9651(18) 0.0201(13) 0.7856(9)
H32_2 H 0.9491 0.0677 0.7585
H39_2 H 0.769475 0.0729149 0.842854
O7_2 O 0.5504(8) 0.9326(5) 0.0506(4)
C15_2 C 0.5033(13) 0.8759(8) 0.0813(7)
C16_2 C 0.5633(12) 0.8240(8) 0.1293(7)
C17_2 C 0.6587(14) 0.8425(9) 0.1455(7)
H7_2 H 0.6907 0.8859 0.1253
C18_2 C 0.5174(15) 0.7585(10) 0.1622(8)
H8_2 H 0.4542 0.7466 0.1511
C19_2 C 0.5623(16) 0.7097(11) 0.2113(9)
H9_2 H 0.5303 0.6667 0.2326
C20_2 C 0.7034(13) 0.7926(9) 0.1936(7)
C21_2 C 0.6573(15) 0.7295(9) 0.2261(8)
C22_2 C 0.7186(15) 0.6876(8) 0.2785(8)
C23_2 C 0.8099(14) 0.7246(8) 0.2819(7)
C24_2 C 0.6941(16) 0.6220(10) 0.3202(9)
H10_2 H 0.6355 0.5966 0.3176
C25_2 C 0.7619(14) 0.5949(9) 0.3671(8)
H11_2 H 0.7474 0.5514 0.3959
C26_2 C 0.8732(14) 0.6997(9) 0.3266(7)
H12_2 H 0.9311 0.7261 0.3285
C27_2 C 0.8526(13) 0.6349(8) 0.3697(7)
C28_2 C 0.9223(13) 0.6054(9) 0.4180(7)
S2_2 S 0.8207(4) 0.8064(3) 0.2240(2)
O11_2 O 0.7999(11) 0.8747(7) 0.2505(6)
O12_2 O 0.9209(11) 0.7961(8) 0.1811(6)
O20_2 O 0.7948(9) 0.9188(6) 0.0071(5)
C51_2 C 0.995(3) 0.822(2) 0.0298(15)
H38_2 H 0.9472 0.8044 0.0664
C29_2 C 0.9041(12) 0.5762(8) 0.5919(6)
C30_2 C 0.8439(12) 0.6198(8) 0.6433(6)
C31_2 C 0.8894(12) 0.6805(8) 0.6579(7)
H13_2 H 0.9552 0.6954 0.6366
C32_2 C 0.7442(13) 0.6003(9) 0.6739(7)
H14_2 H 0.7147 0.5604 0.6630
C33_2 C 0.8322(13) 0.7178(8) 0.7057(7)
C34_2 C 0.6854(14) 0.6395(9) 0.7216(7)
H15_2 H 0.6187 0.6254 0.7423
C35_2 C 0.7311(13) 0.7001(8) 0.7365(7)
C36_2 C 0.6846(12) 0.7491(8) 0.7844(7)
C37_2 C 0.7506(12) 0.8046(9) 0.7878(7)
C38_2 C 0.5877(13) 0.7476(9) 0.8227(7)
H16_2 H 0.5420 0.7110 0.8220
C39_2 C 0.7216(13) 0.8590(8) 0.8286(7)
H17_2 H 0.7680 0.8947 0.8302
C40_2 C 0.5576(13) 0.8011(8) 0.8629(7)
H18_2 H 0.4916 0.7993 0.8890
C41_2 C 0.6229(11) 0.8573(8) 0.8655(6)
C42_2 C 0.5848(13) 0.9145(8) 0.9107(6)
O15_2 O 0.6488(8) 0.9611(6) 0.9153(4)
S3_2 S 0.8737(4) 0.7952(3) 0.7348(2)
O16_2 O 0.8792(10) 0.8631(6) 0.6890(5)
O17_2 O 0.9663(9) 0.7675(7) 0.7678(5)
C45_2 C 0.8447(19) 0.8801(13) 0.9689(11)
H20_2 H 0.8168 0.8856 0.9322
N3_2 N 0.9359(16) 0.8305(10) 0.9750(10)
H31_2 H 0.9249 0.9816 0.7779
C50_2 C 0.987(3) 0.7893(19) 0.9259(14)
H34_2 H 0.9370 0.7573 0.9178
C46 C 0.9789(17) 0.9894(15) 0.1081(11)
H22 H 0.9721 0.9455 0.0898
H30 H 0.9580 0.9972 0.2213
C46_2 C 0.0211(17) 0.0106(15) 0.8919(11)
H22_2 H 0.0279 0.0545 0.9102
H30_2 H 0.0420 0.0028 0.7787
loop_
_geom_bond_atom_site_label_1
_geom_bond_atom_site_label_2
_geom_bond_site_symmetry_1
_geom_bond_site_symmetry_2
O13 C29 1_555 1_555
O14 C29 1_555 1_555
C29 C30 1_555 1_555
C30 C31 1_555 1_555
C31 H13 1_555 1_555
C32 C30 1_555 1_555
H14 C32 1_555 1_555
C33 C31 1_555 1_555
C34 C32 1_555 1_555
H15 C34 1_555 1_555
C35 C33 1_555 1_555
C36 C35 1_555 1_555
C37 C36 1_555 1_555
C38 C36 1_555 1_555
H16 C38 1_555 1_555
C39 C37 1_555 1_555
H17 C39 1_555 1_555
C40 C38 1_555 1_555
H18 C40 1_555 1_555
C41 C39 1_555 1_555
C42 C41 1_555 1_555
S3 C33 1_555 1_555
O16 S3 1_555 1_555
O17 S3 1_555 1_555
O18 C42 1_555 1_555
H20 C45 1_555 1_555
N3 C45 1_555 1_555
C50 N3 1_555 1_555
H34 C50 1_555 1_555
Dy7 O14 1_555 1_555
C34 C35 1_555 1_555
C37 S3 1_555 1_555
C40 C41 1_555 1_555
C42 O15 1_555 1_555
O8 C15 1_555 1_555
C15 O7 1_555 1_555
C16 C15 1_555 1_555
C17 C16 1_555 1_555
H7 C17 1_555 1_555
C18 C16 1_555 1_555
H8 C18 1_555 1_555
C19 C18 1_555 1_555
H9 C19 1_555 1_555
C20 C17 1_555 1_555
C21 C19 1_555 1_555
C22 C21 1_555 1_555
C23 C22 1_555 1_555
C24 C22 1_555 1_555
H10 C24 1_555 1_555
C25 C24 1_555 1_555
H11 C25 1_555 1_555
C26 C23 1_555 1_555
H12 C26 1_555 1_555
C27 C25 1_555 1_555
C28 C27 1_555 1_555
O9 C28 1_555 1_555
S2 C20 1_555 1_555
O11 S2 1_555 1_555
O12 S2 1_555 1_555
H38 C51 1_555 1_555
Dy3 O8 1_555 1_555
Dy7 O9 1_555 1_555
C20 C21 1_555 1_555
C23 S2 1_555 1_555
C26 C27 1_555 1_555
O19 Dy1 1_555 1_555
C44 O19 1_555 1_555
N1 C44 1_555 1_555
C49 N1 1_555 1_555
H32 C49 1_555 1_555
O23 Dy1 1_555 1_555
C44 H39 1_555 1_555
Dy7 O3 1_555 1_555
O1 C1 1_555 1_555
C1 O2 1_555 1_555
C2 C1 1_555 1_555
C3 C2 1_555 1_555
H1 C3 1_555 1_555
C4 C2 1_555 1_555
H2 C4 1_555 1_555
C5 C4 1_555 1_555
C6 C3 1_555 1_555
H3 C6 1_555 1_555
C7 C5 1_555 1_555
C8 C7 1_555 1_555
C9 C8 1_555 1_555
C10 C8 1_555 1_555
H4 C10 1_555 1_555
C11 C9 1_555 1_555
H5 C11 1_555 1_555
C12 C10 1_555 1_555
H6 C12 1_555 1_555
C13 C11 1_555 1_555
C14 C13 1_555 1_555
O3 C14 1_555 1_555
O4 Dy7 1_555 1_555
S1 C5 1_555 1_555
O5 S1 1_555 1_555
O6 S1 1_555 1_555
O21 Dy7 1_555 1_555
O22 Dy7 1_555 1_555
C43 O21 1_555 1_555
H19 C43 1_555 1_555
N2 C43 1_555 1_555
C47 N2 1_555 1_555
H24 C47 1_555 1_555
H25 C47 1_555 1_555
H26 C47 1_555 1_555
C48 N2 1_555 1_555
H27 C48 1_555 1_555
H28 C48 1_555 1_555
H29 C48 1_555 1_555
O25 Dy7 1_555 1_555
C6 C7 1_555 1_555
C9 S1 1_555 1_555
C12 C13 1_555 1_555
C14 O4 1_555 1_555
Dy6 O10 1_555 1_555
Dy6 O3_2 1_555 1_555
O1_2 C1_2 1_555 1_555
C1_2 O2_2 1_555 1_555
C2_2 C1_2 1_555 1_555
C3_2 C2_2 1_555 1_555
H1_2 C3_2 1_555 1_555
C4_2 C2_2 1_555 1_555
H2_2 C4_2 1_555 1_555
C5_2 C4_2 1_555 1_555
C6_2 C3_2 1_555 1_555
H3_2 C6_2 1_555 1_555
C7_2 C5_2 1_555 1_555
C8_2 C7_2 1_555 1_555
C9_2 C8_2 1_555 1_555
C10_2 C8_2 1_555 1_555
H4_2 C10_2 1_555 1_555
C11_2 C9_2 1_555 1_555
H5_2 C11_2 1_555 1_555
C12_2 C10_2 1_555 1_555
H6_2 C12_2 1_555 1_555
C13_2 C11_2 1_555 1_555
C14_2 C13_2 1_555 1_555
O3_2 C14_2 1_555 1_555
O4_2 Dy6 1_555 1_555
S1_2 C5_2 1_555 1_555
O5_2 S1_2 1_555 1_555
O6_2 S1_2 1_555 1_555
O21_2 Dy6 1_555 1_555
O22_2 Dy6 1_555 1_555
C43_2 O21_2 1_555 1_555
H19_2 C43_2 1_555 1_555
N2_2 C43_2 1_555 1_555
C47_2 N2_2 1_555 1_555
H24_2 C47_2 1_555 1_555
H25_2 C47_2 1_555 1_555
H26_2 C47_2 1_555 1_555
C48_2 N2_2 1_555 1_555
H27_2 C48_2 1_555 1_555
H28_2 C48_2 1_555 1_555
H29_2 C48_2 1_555 1_555
O24 Dy6 1_555 1_555
O27 Dy6 1_555 1_555
C6_2 C7_2 1_555 1_555
C9_2 S1_2 1_555 1_555
C12_2 C13_2 1_555 1_555
C14_2 O4_2 1_555 1_555
O19_2 Dy3 1_555 1_555
C44_2 O19_2 1_555 1_555
N1_2 C44_2 1_555 1_555
C49_2 N1_2 1_555 1_555
H32_2 C49_2 1_555 1_555
C44_2 H39_2 1_555 1_555
O23 C15_2 1_555 1_555
C15_2 O7_2 1_555 1_555
C16_2 C15_2 1_555 1_555
C17_2 C16_2 1_555 1_555
H7_2 C17_2 1_555 1_555
C18_2 C16_2 1_555 1_555
H8_2 C18_2 1_555 1_555
C19_2 C18_2 1_555 1_555
H9_2 C19_2 1_555 1_555
C20_2 C17_2 1_555 1_555
C21_2 C19_2 1_555 1_555
C22_2 C21_2 1_555 1_555
C23_2 C22_2 1_555 1_555
C24_2 C22_2 1_555 1_555
H10_2 C24_2 1_555 1_555
C25_2 C24_2 1_555 1_555
H11_2 C25_2 1_555 1_555
C26_2 C23_2 1_555 1_555
H12_2 C26_2 1_555 1_555
C27_2 C25_2 1_555 1_555
C28_2 C27_2 1_555 1_555
O24 C28_2 1_555 1_555
S2_2 C20_2 1_555 1_555
O11_2 S2_2 1_555 1_555
O12_2 S2_2 1_555 1_555
H38_2 C51_2 1_555 1_555
C20_2 C21_2 1_555 1_555
C23_2 S2_2 1_555 1_555
C26_2 C27_2 1_555 1_555
O26 C29_2 1_555 1_555
O27 C29_2 1_555 1_555
C29_2 C30_2 1_555 1_555
C30_2 C31_2 1_555 1_555
C31_2 H13_2 1_555 1_555
C32_2 C30_2 1_555 1_555
H14_2 C32_2 1_555 1_555
C33_2 C31_2 1_555 1_555
C34_2 C32_2 1_555 1_555
H15_2 C34_2 1_555 1_555
C35_2 C33_2 1_555 1_555
C36_2 C35_2 1_555 1_555
C37_2 C36_2 1_555 1_555
C38_2 C36_2 1_555 1_555
H16_2 C38_2 1_555 1_555
C39_2 C37_2 1_555 1_555
H17_2 C39_2 1_555 1_555
C40_2 C38_2 1_555 1_555
H18_2 C40_2 1_555 1_555
C41_2 C39_2 1_555 1_555
C42_2 C41_2 1_555 1_555
S3_2 C33_2 1_555 1_555
O16_2 S3_2 1_555 1_555
O17_2 S3_2 1_555 1_555
O28 C42_2 1_555 1_555
H20_2 C45_2 1_555 1_555
N3_2 C45_2 1_555 1_555
C50_2 N3_2 1_555 1_555
H34_2 C50_2 1_555 1_555
C34_2 C35_2 1_555 1_555
C37_2 S3_2 1_555 1_555
C40_2 C41_2 1_555 1_555
C42_2 O15_2 1_555 1_555
H22 C46 1_555 1_555
H22_2 C46_2 1_555 1_555

#END
