
###############################################################################
#
# This file contains modified crystal structure data generated from the
# MOF subset of the Cambridge Structural Database (CSD) v543 
# hosted by the Cambridge Crystallographic Data Centre (CCDC).
#
# This work is licensed under the Creative Commons
# Attribution-NonCommercial-ShareAlike 4.0 International License.
# To view a copy of this license, visit
# http://creativecommons.org/licenses/by-nc-sa/4.0/
# or send a letter to
# Creative Commons, PO Box 1866, Mountain View, CA 94042, USA.
#
# CIF created using the CSD Python API on 29 September 2022
# The structure has been converted into the P1 space group
# The structure has a 3D framework
# The original CSD entry YURKII is in the rhombohedral crystal system
# The framework has been calculated to contain at least 10.0% void space
# The void calculation uses a probe of radius 1.32A, grid spacing 0.4
#
###############################################################################

data_YURKII
_chemical_formula_moiety         '(C720 H432 Co18 N144)n'
_symmetry_cell_setting           triclinic
_symmetry_space_group_name_H-M   'P 1'
_symmetry_Int_Tables_number      1
_space_group_name_Hall           'P 1'
loop_
_symmetry_equiv_pos_site_id
_symmetry_equiv_pos_as_xyz
1 x,y,z
_cell_length_a                   32.699(7)
_cell_length_b                   32.699(7)
_cell_length_c                   18.576(4)
_cell_angle_alpha                90
_cell_angle_beta                 90
_cell_angle_gamma                120
_cell_volume                     17200.9
loop_
_atom_site_label
_atom_site_type_symbol
_atom_site_fract_x
_atom_site_fract_y
_atom_site_fract_z
Co1 Co 0.16692(2) 0.33117(2) 0.08566(2)
N1 N 0.10883(7) 0.27465(7) 0.12210(11)
N3 N 0.22506(7) 0.38793(7) 0.04982(11)
N4 N 0.20068(7) 0.32993(7) 0.17474(11)
N6 N 0.42768(7) 0.46990(8) 0.20072(11)
C2 C 0.18343(9) 0.29811(9) 0.23046(14)
C3 C 0.26920(9) 0.40784(9) 0.08049(14)
C5 C 0.06501(9) 0.25390(9) 0.09062(14)
C6 C 0.10240(9) 0.25110(9) 0.18603(14)
N7 N 0.09743(9) 0.17190(10) 0.42472(15)
C7 C 0.24832(9) 0.35717(9) 0.18776(14)
C8 C 0.05388(9) 0.26745(9) 0.02581(14)
C11 C 0.13706(9) 0.26143(9) 0.23773(14)
C12 C 0.00345(9) 0.24194(9) 0.00344(14)
C14 C 0.28062(9) 0.39338(9) 0.14401(14)
C15 C 0.12390(9) 0.23041(9) 0.30296(15)
C16 C 0.33145(9) 0.41933(9) 0.16563(14)
C20 C 0.05369(9) 0.21448(10) 0.19379(15)
H4 H 0.040400 0.193209 0.233054
C21 C 0.39650(9) 0.47874(10) 0.23245(15)
H5 H 0.407684 0.502957 0.267809
C24 C 0.26096(9) 0.34242(11) 0.25332(15)
H8 H 0.291620 0.355699 0.273779
C25 C 0.22074(10) 0.30612(10) 0.27985(15)
H9 H 0.217600 0.289079 0.322870
C26 C 0.34846(9) 0.45465(10) 0.21696(15)
H10 H 0.327644 0.462350 0.241296
C27 C 0.03073(9) 0.21619(10) 0.13499(15)
C28 C 0.41100(9) 0.43567(10) 0.15073(14)
H12 H 0.432606 0.428810 0.126976
C29 C 0.30323(9) 0.44612(10) 0.03668(15)
H13 H 0.335949 0.465579 0.046587
C32 C 0.36369(10) 0.40992(10) 0.13229(15)
H16 H 0.353387 0.385845 0.096811
C36 C 0.12233(10) 0.24726(10) 0.37074(15)
H20 H 0.130605 0.279326 0.377085
C37 C 0.10856(11) 0.21688(11) 0.42922(17)
H21 H 0.106983 0.228876 0.475082
C38 C 0.11242(11) 0.18332(11) 0.29772(17)
H22 H 0.113225 0.170142 0.252528
C39 C 0.09980(12) 0.15606(12) 0.3598(2)
H23 H 0.092390 0.124115 0.355627
Co3 Co 0.50242(3) 0.50025(2) 0.24767(2)
N9 N 0.19436(7) 0.28609(10) 0.03739(11)
N10 N 0.13657(8) 0.37555(11) 0.13261(11)
N5 N 0.90827(7) 0.19436(7) 0.96261(11)
C13 C 0.93939(9) 0.18526(10) 0.93149(15)
H1 H 0.928503 0.162052 0.894594
C31 C 0.98700(9) 0.20770(10) 0.94970(15)
Co2 Co 0.83575(3) 0.16692(2) 0.91434(2)
H12_2 H 0.571190 0.003796 0.126976
Co3_2 Co 0.49975(2) 0.00216(4) 0.24767(2)
Co1_2 Co 0.66883(2) 0.83575(3) 0.08566(2)
N1_2 N 0.72535(7) 0.83418(10) 0.12210(11)
N3_2 N 0.61207(7) 0.83713(10) 0.04982(11)
N4_2 N 0.67007(7) 0.87075(10) 0.17474(11)
N6_2 N 0.53010(8) 0.95778(11) 0.20072(11)
C2_2 C 0.70189(9) 0.88532(13) 0.23046(14)
C3_2 C 0.59216(9) 0.86136(13) 0.08049(14)
C5_2 C 0.74610(9) 0.81111(13) 0.09062(14)
C6_2 C 0.74890(9) 0.85130(13) 0.18603(14)
N7_2 N 0.82810(10) 0.92553(13) 0.42472(15)
C7_2 C 0.64283(9) 0.89115(13) 0.18776(14)
C8_2 C 0.73255(9) 0.78643(13) 0.02581(14)
C11_2 C 0.73857(9) 0.87563(13) 0.23773(14)
C12_2 C 0.75806(9) 0.76151(13) 0.00344(14)
C14_2 C 0.60662(9) 0.88724(13) 0.14401(14)
C15_2 C 0.76959(9) 0.89349(13) 0.30296(15)
C16_2 C 0.58067(9) 0.91212(13) 0.16563(14)
C17 C 0.77299(10) 0.69715(13) 0.01512(14)
H2 H 0.766232 0.668582 0.038444
C20_2 C 0.78552(10) 0.83921(13) 0.19379(15)
H4_2 H 0.806791 0.847191 0.233054
C21_2 C 0.52126(10) 0.91776(13) 0.23245(15)
H5_2 H 0.497043 0.904727 0.267809
C23 C 0.74882(10) 0.71969(13) 0.03661(15)
H7 H 0.725979 0.706637 0.073954
C24_2 C 0.65758(11) 0.91854(14) 0.25332(15)
H8_2 H 0.644301 0.935921 0.273779
C25_2 C 0.69388(10) 0.91462(14) 0.27985(15)
H9_2 H 0.710921 0.928521 0.322870
C26_2 C 0.54535(10) 0.89381(13) 0.21696(15)
H10_2 H 0.537650 0.865294 0.241296
C27_2 C 0.78381(10) 0.81454(13) 0.13499(15)
H11 H 0.803652 0.801784 0.124636
C28_2 C 0.56433(10) 0.97533(13) 0.15073(14)
C29_2 C 0.55388(10) 0.85711(13) 0.03668(15)
H13_2 H 0.534421 0.870370 0.046587
C32_2 C 0.59008(10) 0.95377(14) 0.13229(15)
H16_2 H 0.614155 0.967542 0.096811
C36_2 C 0.75274(10) 0.87507(14) 0.37074(15)
H20_2 H 0.720674 0.851279 0.377085
C37_2 C 0.78312(11) 0.89168(16) 0.42922(17)
H21_2 H 0.771124 0.878107 0.475082
C38_2 C 0.81668(11) 0.92910(16) 0.29772(17)
H22_2 H 0.829858 0.943083 0.252528
C39_2 C 0.84394(12) 0.94374(17) 0.3598(2)
H23_2 H 0.875885 0.968275 0.355627
N9_2 N 0.71391(10) 0.90827(12) 0.03739(11)
N10_2 N 0.62445(11) 0.76101(14) 0.13261(11)
N2 N 0.66751(7) 0.80094(10) 0.99651(11)
N5_2 N 0.80564(7) 0.71391(10) 0.96261(11)
C1 C 0.58732(9) 0.81854(13) 0.98721(14)
C4 C 0.63468(9) 0.78488(13) 0.94200(14)
N8 N 0.50015(10) 0.73735(13) 0.75903(16)
C9 C 0.59684(9) 0.79328(13) 0.93641(14)
C10 C 0.69575(9) 0.78178(13) 0.98266(14)
C13_2 C 0.81474(10) 0.75413(13) 0.93149(15)
H1_2 H 0.837948 0.766451 0.894594
C18 C 0.55088(10) 0.83087(13) 0.97924(15)
H3 H 0.528972 0.822083 0.940701
C19 C 0.56403(9) 0.77327(13) 0.87392(15)
C22 C 0.64297(10) 0.75579(14) 0.89272(15)
H6 H 0.625271 0.740821 0.850636
C30 C 0.68063(10) 0.75388(13) 0.91776(15)
H14 H 0.694574 0.737297 0.896673
C31_2 C 0.79230(10) 0.77930(13) 0.94970(15)
H15 H 0.800181 0.808049 0.925939
C33 C 0.54577(12) 0.76924(16) 0.74858(17)
H17 H 0.556173 0.779707 0.700858
C34 C 0.51649(10) 0.73970(14) 0.88479(18)
H18 H 0.505022 0.728482 0.931870
C35 C 0.57841(10) 0.78764(14) 0.80356(15)
H19 H 0.610475 0.809977 0.793389
C40 C 0.48654(12) 0.72312(17) 0.82664(19)
H24 H 0.454374 0.700274 0.834984
Co2_2 Co 0.83308(2) 0.66883(4) 0.91434(2)
N5_3 N 0.28609(10) 0.09173(7) 0.96261(11)
C13_3 C 0.24587(13) 0.06061(9) 0.93149(15)
H1_3 H 0.233549 0.071497 0.894594
C31_3 C 0.22070(13) 0.01300(9) 0.94970(15)
Co2_3 Co 0.33117(4) 0.16425(3) 0.91434(2)
Co1_3 Co 0.16425(3) 0.83308(2) 0.08566(2)
N1_3 N 0.16582(10) 0.89117(7) 0.12210(11)
N3_3 N 0.16287(10) 0.77494(7) 0.04982(11)
N4_3 N 0.12925(10) 0.79932(7) 0.17474(11)
N6_3 N 0.04222(11) 0.57232(7) 0.20072(11)
C2_3 C 0.11468(13) 0.81657(9) 0.23046(14)
C3_3 C 0.13864(13) 0.73080(9) 0.08049(14)
C5_3 C 0.18889(13) 0.93499(9) 0.09062(14)
C6_3 C 0.14870(13) 0.89760(9) 0.18603(14)
N7_3 N 0.07447(13) 0.90257(9) 0.42472(15)
C7_3 C 0.10885(13) 0.75168(9) 0.18776(14)
C8_3 C 0.21357(13) 0.94612(9) 0.02581(14)
C11_3 C 0.12437(13) 0.86294(9) 0.23773(14)
C12_3 C 0.23849(13) 0.99655(9) 0.00344(14)
C14_3 C 0.11276(13) 0.71938(9) 0.14401(14)
C15_3 C 0.10651(13) 0.87610(9) 0.30296(15)
C16_3 C 0.08788(13) 0.66855(9) 0.16563(14)
C20_3 C 0.16079(13) 0.94631(9) 0.19379(15)
H4_3 H 0.152809 0.959600 0.233054
C21_3 C 0.08224(13) 0.60350(9) 0.23245(15)
H5_3 H 0.095273 0.592316 0.267809
C24_3 C 0.08146(14) 0.73904(9) 0.25332(15)
H8_3 H 0.064079 0.708380 0.273779
C25_3 C 0.08538(14) 0.77926(10) 0.27985(15)
H9_3 H 0.071479 0.782400 0.322870
C26_3 C 0.10619(13) 0.65154(9) 0.21696(15)
H10_3 H 0.134706 0.672356 0.241296
C27_3 C 0.18546(13) 0.96927(9) 0.13499(15)
C28_3 C 0.02467(13) 0.58900(9) 0.15073(14)
C29_3 C 0.14289(13) 0.69677(9) 0.03668(15)
H13_3 H 0.129630 0.664051 0.046587
C32_3 C 0.04623(14) 0.63631(10) 0.13229(15)
H16_3 H 0.032458 0.646613 0.096811
C36_3 C 0.12493(14) 0.87767(10) 0.37074(15)
H20_3 H 0.148721 0.869395 0.377085
C37_3 C 0.10832(16) 0.89144(11) 0.42922(17)
H21_3 H 0.121893 0.893017 0.475082
C38_3 C 0.07090(16) 0.88758(11) 0.29772(17)
H22_3 H 0.056917 0.886775 0.252528
C39_3 C 0.05626(17) 0.90020(12) 0.3598(2)
H23_3 H 0.031725 0.907610 0.355627
N9_3 N 0.09173(12) 0.80564(7) 0.03739(11)
N10_3 N 0.23899(14) 0.86343(8) 0.13261(11)
H12_3 H 0.996204 0.567394 0.126976
Co3_3 Co 0.99784(4) 0.49758(3) 0.24767(2)
N6_4 N 0.09435(7) 0.80323(8) 0.53405(11)
C21_4 C 0.06317(9) 0.81207(10) 0.56578(15)
H5_4 H 0.074351 0.836290 0.601142
C26_4 C 0.01513(9) 0.78798(10) 0.55029(15)
C28_4 C 0.07767(9) 0.76900(10) 0.48406(14)
H12_4 H 0.099273 0.762143 0.460309
H13_4 H 0.002616 0.798912 0.379920
C32_4 C 0.03036(10) 0.74325(10) 0.46562(15)
H16_4 H 0.020054 0.719178 0.430144
Co3_4 Co 0.16908(3) 0.83359(2) 0.58101(2)
Co1_4 Co 0.83359(2) 0.66450(2) 0.41899(2)
N1_4 N 0.77550(7) 0.60798(7) 0.45543(11)
N2_2 N 0.80010(7) 0.66582(7) 0.32984(11)
N3_4 N 0.89173(7) 0.72126(7) 0.38315(11)
N4_4 N 0.86735(7) 0.66326(7) 0.50807(11)
N5_4 N 0.57494(7) 0.52769(7) 0.29594(11)
C1_2 C 0.89789(9) 0.74601(9) 0.32054(14)
C2_4 C 0.85010(9) 0.63144(9) 0.56379(14)
C3_4 C 0.93587(9) 0.74117(9) 0.41382(14)
C4_2 C 0.81687(9) 0.69865(9) 0.27533(14)
C5_4 C 0.73168(9) 0.58723(9) 0.42395(14)
C6_4 C 0.76907(9) 0.58443(9) 0.51936(14)
N7_4 N 0.76410(9) 0.50523(10) 0.75805(15)
C7_4 C 0.91499(9) 0.69050(9) 0.52109(14)
N8_2 N 0.90387(9) 0.83318(10) 0.09236(16)
C8_4 C 0.72055(9) 0.60078(9) 0.35914(14)
C9_2 C 0.86311(9) 0.73649(9) 0.26974(14)
C10_2 C 0.75270(9) 0.63758(9) 0.31599(14)
C11_4 C 0.80373(9) 0.59476(9) 0.57106(14)
C12_4 C 0.67012(9) 0.57527(9) 0.33677(14)
C13_4 C 0.60606(9) 0.51859(10) 0.26482(15)
H1_4 H 0.595170 0.495385 0.227927
C14_4 C 0.94729(9) 0.72671(9) 0.47734(14)
C15_4 C 0.79057(9) 0.56374(9) 0.63629(15)
C16_4 C 0.99812(9) 0.75266(9) 0.49896(14)
C17_2 C 0.59083(9) 0.56034(10) 0.34845(14)
H2_2 H 0.569017 0.567101 0.371777
C18_2 C 0.94666(9) 0.78245(10) 0.31257(15)
H3_2 H 0.959778 0.804361 0.274034
C19_2 C 0.87591(9) 0.76930(9) 0.20725(15)
C20_4 C 0.72036(9) 0.54781(10) 0.52712(15)
H4_4 H 0.707067 0.526542 0.566387
C22_2 C 0.77949(10) 0.69036(10) 0.22605(15)
H6_2 H 0.782217 0.708062 0.183969
C23_2 C 0.63754(9) 0.58451(10) 0.36994(15)
H7_2 H 0.647325 0.607354 0.407287
C24_4 C 0.92763(9) 0.67575(11) 0.58665(15)
H8_4 H 0.958287 0.689032 0.607112
C25_4 C 0.88741(10) 0.63945(10) 0.61318(15)
H9_4 H 0.884267 0.622412 0.656203
H10_4 H 0.994311 0.795683 0.574629
C27_4 C 0.69740(9) 0.54952(10) 0.46832(15)
H11_2 H 0.664799 0.529681 0.457969
C29_4 C 0.96990(9) 0.77945(10) 0.37001(15)
C30_2 C 0.73992(9) 0.65270(10) 0.25109(15)
H14_2 H 0.709390 0.638759 0.230006
C31_4 C 0.65367(9) 0.54103(10) 0.28303(15)
H15_2 H 0.674535 0.533152 0.259272
C33_2 C 0.89014(10) 0.78756(12) 0.08191(17)
H17_2 H 0.890201 0.777160 0.034191
C34_2 C 0.88988(10) 0.81684(10) 0.21812(18)
H18_2 H 0.890127 0.828311 0.265203
C35_2 C 0.87590(10) 0.75492(10) 0.13689(15)
H19_2 H 0.866169 0.722858 0.126722
C36_4 C 0.78900(10) 0.58059(10) 0.70407(15)
H20_4 H 0.797272 0.612659 0.710418
C37_4 C 0.77523(11) 0.55021(11) 0.76255(17)
H21_4 H 0.773650 0.562209 0.808415
C38_4 C 0.77909(11) 0.51665(11) 0.63105(17)
H22_4 H 0.779892 0.503475 0.585861
C39_4 C 0.76647(12) 0.48939(12) 0.6931(2)
H23_4 H 0.759057 0.457448 0.688960
C40_2 C 0.90325(12) 0.84679(12) 0.15997(19)
H24_2 H 0.912567 0.878959 0.168317
N9_4 N 0.86103(7) 0.61942(10) 0.37072(11)
N10_4 N 0.80323(8) 0.70889(11) 0.46595(11)
Co1_5 Co 0.33550(2) 0.16908(3) 0.41899(2)
N1_5 N 0.39202(7) 0.16751(10) 0.45543(11)
N2_3 N 0.33418(7) 0.13427(10) 0.32984(11)
N3_5 N 0.27874(7) 0.17046(10) 0.38315(11)
N4_5 N 0.33674(7) 0.20408(10) 0.50807(11)
N5_5 N 0.47231(7) 0.04724(10) 0.29594(11)
N6_5 N 0.19677(8) 0.29111(11) 0.53405(11)
C1_3 C 0.25399(9) 0.15187(13) 0.32054(14)
C2_5 C 0.36856(9) 0.21865(13) 0.56379(14)
C3_5 C 0.25883(9) 0.19469(13) 0.41382(14)
C4_3 C 0.30135(9) 0.11821(13) 0.27533(14)
C5_5 C 0.41277(9) 0.14444(13) 0.42395(14)
C6_5 C 0.41557(9) 0.18463(13) 0.51936(14)
N7_5 N 0.49477(10) 0.25886(13) 0.75805(15)
C7_5 C 0.30950(9) 0.22448(13) 0.52109(14)
N8_3 N 0.16682(10) 0.07068(13) 0.09236(16)
C8_5 C 0.39922(9) 0.11976(13) 0.35914(14)
C9_3 C 0.26351(9) 0.12661(13) 0.26974(14)
C10_3 C 0.36242(9) 0.11511(13) 0.31599(14)
C11_5 C 0.40524(9) 0.20896(13) 0.57106(14)
C12_5 C 0.42473(9) 0.09484(13) 0.33677(14)
C13_5 C 0.48141(10) 0.08746(13) 0.26482(15)
H1_5 H 0.504615 0.099784 0.227927
C14_5 C 0.27329(9) 0.22057(13) 0.47734(14)
C15_5 C 0.43626(9) 0.22682(13) 0.63629(15)
C16_5 C 0.24734(9) 0.24545(13) 0.49896(14)
C17_3 C 0.43966(10) 0.03048(13) 0.34845(14)
H2_3 H 0.432899 0.001915 0.371777
C18_3 C 0.21755(10) 0.16420(13) 0.31257(15)
H3_3 H 0.195639 0.155416 0.274034
C19_3 C 0.23070(9) 0.10660(13) 0.20725(15)
C20_5 C 0.45219(10) 0.17254(13) 0.52712(15)
H4_5 H 0.473458 0.180524 0.566387
C21_5 C 0.18793(10) 0.25109(13) 0.56578(15)
H5_5 H 0.163710 0.238060 0.601142
C22_3 C 0.30964(10) 0.08912(14) 0.22605(15)
H6_3 H 0.291938 0.074154 0.183969
C23_3 C 0.41549(10) 0.05302(13) 0.36994(15)
H7_3 H 0.392646 0.039970 0.407287
C24_5 C 0.32425(11) 0.25187(14) 0.58665(15)
H8_5 H 0.310968 0.269254 0.607112
C25_5 C 0.36055(10) 0.24795(14) 0.61318(15)
H9_5 H 0.377588 0.261854 0.656203
C26_5 C 0.21202(10) 0.22714(13) 0.55029(15)
H10_5 H 0.204317 0.198627 0.574629
C27_5 C 0.45048(10) 0.14787(13) 0.46832(15)
H11_3 H 0.470319 0.135117 0.457969
C28_5 C 0.23100(10) 0.30866(13) 0.48406(14)
H12_5 H 0.237857 0.337129 0.460309
C29_5 C 0.22055(10) 0.19044(13) 0.37001(15)
H13_5 H 0.201088 0.203703 0.379920
C30_3 C 0.34730(10) 0.08721(13) 0.25109(15)
H14_3 H 0.361241 0.070630 0.230006
C31_5 C 0.45897(10) 0.11263(13) 0.28303(15)
H15_3 H 0.466848 0.141382 0.259272
C32_5 C 0.25675(10) 0.28710(14) 0.46562(15)
H16_5 H 0.280822 0.300875 0.430144
C33_3 C 0.21244(12) 0.10257(16) 0.08191(17)
H17_3 H 0.222840 0.113040 0.034191
C34_3 C 0.18316(10) 0.07303(14) 0.21812(18)
H18_3 H 0.171689 0.061815 0.265203
C35_3 C 0.24508(10) 0.12097(14) 0.13689(15)
H19_3 H 0.277142 0.143310 0.126722
C36_5 C 0.41941(10) 0.20840(14) 0.70407(15)
H20_5 H 0.387341 0.184612 0.710418
C37_5 C 0.44979(11) 0.22501(16) 0.76255(17)
H21_5 H 0.437791 0.211440 0.808415
C38_5 C 0.48335(11) 0.26243(16) 0.63105(17)
H22_5 H 0.496525 0.276416 0.585861
C39_5 C 0.51061(12) 0.27707(17) 0.6931(2)
H23_5 H 0.542552 0.301608 0.688960
C40_3 C 0.15321(12) 0.05645(17) 0.15997(19)
H24_3 H 0.121041 0.033607 0.168317
Co3_5 Co 0.16641(2) 0.33550(4) 0.58101(2)
N9_5 N 0.38058(10) 0.24160(12) 0.37072(11)
N10_5 N 0.29111(11) 0.09435(14) 0.46595(11)
Co1_6 Co 0.83092(3) 0.16641(2) 0.41899(2)
N1_6 N 0.83249(10) 0.22450(7) 0.45543(11)
N2_4 N 0.86573(10) 0.19990(7) 0.32984(11)
N3_6 N 0.82954(10) 0.10827(7) 0.38315(11)
N4_6 N 0.79592(10) 0.13265(7) 0.50807(11)
N5_6 N 0.95276(10) 0.42506(7) 0.29594(11)
C1_4 C 0.84813(13) 0.10211(9) 0.32054(14)
C2_6 C 0.78135(13) 0.14990(9) 0.56379(14)
C3_6 C 0.80531(13) 0.06413(9) 0.41382(14)
C4_4 C 0.88179(13) 0.18313(9) 0.27533(14)
C5_6 C 0.85556(13) 0.26832(9) 0.42395(14)
C6_6 C 0.81537(13) 0.23093(9) 0.51936(14)
N7_6 N 0.74114(13) 0.23590(9) 0.75805(15)
C7_6 C 0.77552(13) 0.08501(9) 0.52109(14)
N8_4 N 0.92932(13) 0.09613(9) 0.09236(16)
C8_6 C 0.88024(13) 0.27945(9) 0.35914(14)
C9_4 C 0.87339(13) 0.13689(9) 0.26974(14)
C10_4 C 0.88489(13) 0.24730(9) 0.31599(14)
C11_6 C 0.79104(13) 0.19627(9) 0.57106(14)
C12_6 C 0.90516(13) 0.32988(9) 0.33677(14)
C13_6 C 0.91254(13) 0.39394(9) 0.26482(15)
H1_6 H 0.900216 0.404830 0.227927
C14_6 C 0.77943(13) 0.05271(9) 0.47734(14)
C15_6 C 0.77318(13) 0.20943(9) 0.63629(15)
C16_6 C 0.75455(13) 0.00188(9) 0.49896(14)
C17_4 C 0.96952(13) 0.40917(9) 0.34845(14)
H2_4 H 0.998085 0.430983 0.371777
C18_4 C 0.83580(13) 0.05334(9) 0.31257(15)
H3_4 H 0.844584 0.040222 0.274034
C19_4 C 0.89340(13) 0.12409(9) 0.20725(15)
C20_6 C 0.82746(13) 0.27964(9) 0.52712(15)
H4_6 H 0.819476 0.292933 0.566387
C22_4 C 0.91088(14) 0.22051(10) 0.22605(15)
H6_4 H 0.925846 0.217783 0.183969
C23_4 C 0.94698(13) 0.36246(9) 0.36994(15)
H7_4 H 0.960030 0.352675 0.407287
C24_6 C 0.74813(14) 0.07237(9) 0.58665(15)
H8_6 H 0.730746 0.041713 0.607112
C25_6 C 0.75205(14) 0.11259(10) 0.61318(15)
H9_6 H 0.738146 0.115733 0.656203
H10_6 H 0.801373 0.005689 0.574629
C27_6 C 0.85213(13) 0.30260(9) 0.46832(15)
H11_4 H 0.864883 0.335201 0.457969
C29_6 C 0.80956(13) 0.03010(9) 0.37001(15)
C30_4 C 0.91279(13) 0.26008(9) 0.25109(15)
H14_4 H 0.929370 0.290610 0.230006
C31_6 C 0.88737(13) 0.34633(9) 0.28303(15)
H15_4 H 0.858618 0.325465 0.259272
C33_4 C 0.89743(16) 0.10986(10) 0.08191(17)
H17_4 H 0.886960 0.109799 0.034191
C34_4 C 0.92697(14) 0.11012(10) 0.21812(18)
H18_4 H 0.938185 0.109873 0.265203
C35_4 C 0.87903(14) 0.12410(10) 0.13689(15)
H19_4 H 0.856690 0.133831 0.126722
C36_6 C 0.79160(14) 0.21100(10) 0.70407(15)
H20_6 H 0.815388 0.202728 0.710418
C37_6 C 0.77499(16) 0.22477(11) 0.76255(17)
H21_6 H 0.788560 0.226350 0.808415
C38_6 C 0.73757(16) 0.22091(11) 0.63105(17)
H22_6 H 0.723584 0.220108 0.585861
C39_6 C 0.72293(17) 0.23353(12) 0.6931(2)
H23_6 H 0.698392 0.240943 0.688960
C40_4 C 0.94355(17) 0.09675(12) 0.15997(19)
H24_4 H 0.966393 0.087433 0.168317
N9_6 N 0.75840(12) 0.13897(7) 0.37072(11)
N10_6 N 0.90565(14) 0.19677(8) 0.46595(11)
N6_6 N 0.70889(11) 0.90565(7) 0.53405(11)
C21_6 C 0.74891(13) 0.93683(9) 0.56578(15)
H5_6 H 0.761940 0.925649 0.601142
C26_6 C 0.77286(13) 0.98487(9) 0.55029(15)
C28_6 C 0.69134(13) 0.92233(9) 0.48406(14)
H12_6 H 0.662871 0.900727 0.460309
H13_6 H 0.796297 0.997384 0.379920
C32_6 C 0.71290(14) 0.96964(10) 0.46562(15)
H16_6 H 0.699125 0.979946 0.430144
Co3_6 Co 0.66450(4) 0.83092(3) 0.58101(2)
N3_7 N 0.55839(7) 0.05460(7) 0.71649(11)
N6_7 N 0.76101(7) 0.13657(8) 0.86739(11)
C1_5 C 0.56455(9) 0.07935(9) 0.65388(14)
C3_7 C 0.60253(9) 0.07451(9) 0.74716(14)
C4_5 C 0.48353(9) 0.03199(9) 0.60867(14)
C7_7 C 0.58165(9) 0.02384(9) 0.85443(14)
N8_5 N 0.57053(9) 0.16652(10) 0.42570(16)
C9_5 C 0.52977(9) 0.06983(9) 0.60308(14)
C14_7 C 0.61395(9) 0.06005(9) 0.81068(14)
C16_7 C 0.66478(9) 0.08600(9) 0.83230(14)
C18_5 C 0.61332(9) 0.11579(10) 0.64591(15)
H3_5 H 0.626444 0.137695 0.607368
C19_5 C 0.54257(9) 0.10264(9) 0.54059(15)
C21_7 C 0.72983(9) 0.14541(10) 0.89912(15)
H5_7 H 0.741017 0.169624 0.934476
C22_5 C 0.44615(10) 0.02370(10) 0.55939(15)
H6_5 H 0.448883 0.041396 0.517303
C24_7 C 0.59429(9) 0.00909(11) 0.91999(15)
H8_7 H 0.624953 0.022366 0.940446
C26_7 C 0.68179(9) 0.12132(10) 0.88363(15)
H10_7 H 0.660977 0.129017 0.907963
C28_7 C 0.74433(9) 0.10234(10) 0.81740(14)
H12_7 H 0.765939 0.095477 0.793643
C29_7 C 0.63656(9) 0.11279(10) 0.70335(15)
H13_7 H 0.669282 0.132246 0.713254
C32_7 C 0.69702(10) 0.07659(10) 0.79896(15)
H16_7 H 0.686720 0.052512 0.763478
C33_5 C 0.55680(10) 0.12090(12) 0.41525(17)
H17_5 H 0.556867 0.110494 0.367525
C34_5 C 0.55654(10) 0.15018(10) 0.55146(18)
H18_5 H 0.556793 0.161645 0.598537
C35_5 C 0.54256(10) 0.08826(10) 0.47023(15)
H19_5 H 0.532835 0.056192 0.460056
C40_5 C 0.56991(12) 0.18013(12) 0.49331(19)
H24_5 H 0.579233 0.212293 0.501651
N10_7 N 0.46990(8) 0.04222(11) 0.79928(11)
Co1_7 Co 0.50025(2) 0.99784(2) 0.75233(2)
N1_7 N 0.44216(7) 0.94132(7) 0.78877(11)
N2_5 N 0.46676(7) 0.99916(7) 0.66318(11)
N4_7 N 0.53401(7) 0.99660(7) 0.84141(11)
N5_7 N 0.24160(7) 0.86103(7) 0.62928(11)
C2_7 C 0.51676(9) 0.96478(9) 0.89713(14)
C5_7 C 0.39834(9) 0.92057(9) 0.75729(14)
C6_7 C 0.43573(9) 0.91777(9) 0.85270(14)
C8_7 C 0.38721(9) 0.93412(9) 0.69248(14)
C10_5 C 0.41936(9) 0.97092(9) 0.64933(14)
C11_7 C 0.47039(9) 0.92810(9) 0.90440(14)
C12_7 C 0.33678(9) 0.90861(9) 0.67011(14)
C13_7 C 0.27272(9) 0.85193(10) 0.59816(15)
H1_7 H 0.261836 0.828719 0.561261
C15_7 C 0.45723(9) 0.89708(9) 0.96963(15)
C17_5 C 0.25749(9) 0.89368(10) 0.68179(14)
H2_5 H 0.235683 0.900435 0.705111
C20_7 C 0.38702(9) 0.88115(10) 0.86046(15)
H4_7 H 0.373733 0.859876 0.899721
C23_5 C 0.30420(9) 0.91785(10) 0.70328(15)
H7_5 H 0.313991 0.940688 0.740621
C25_7 C 0.55407(10) 0.97279(10) 0.94652(15)
H9_7 H 0.550933 0.955746 0.989537
C27_7 C 0.36406(9) 0.88286(10) 0.80166(15)
H11_5 H 0.331465 0.863015 0.791303
C30_5 C 0.40658(9) 0.98604(10) 0.58443(15)
H14_5 H 0.376056 0.972093 0.563340
C31_7 C 0.32033(9) 0.87437(10) 0.61637(15)
H15_5 H 0.341201 0.866486 0.592606
C38_7 C 0.44575(11) 0.84999(11) 0.96439(17)
H22_7 H 0.446558 0.836809 0.919195
N9_7 N 0.52769(7) 0.95276(10) 0.70406(11)
Co1_8 Co 0.00216(2) 0.50242(3) 0.75233(2)
N1_8 N 0.05868(7) 0.50085(10) 0.78877(11)
N2_6 N 0.00084(7) 0.46761(10) 0.66318(11)
N4_8 N 0.00340(7) 0.53742(10) 0.84141(11)
N5_8 N 0.13897(7) 0.38058(10) 0.62928(11)
C2_8 C 0.03522(9) 0.55199(13) 0.89713(14)
C5_8 C 0.07943(9) 0.47778(13) 0.75729(14)
C6_8 C 0.08223(9) 0.51797(13) 0.85270(14)
C8_8 C 0.06588(9) 0.45310(13) 0.69248(14)
C10_6 C 0.02908(9) 0.44845(13) 0.64933(14)
C11_8 C 0.07190(9) 0.54230(13) 0.90440(14)
C12_8 C 0.09139(9) 0.42818(13) 0.67011(14)
C13_8 C 0.14807(10) 0.42080(13) 0.59816(15)
H1_8 H 0.171281 0.433118 0.561261
C15_8 C 0.10292(9) 0.56016(13) 0.96963(15)
C17_6 C 0.10632(10) 0.36382(13) 0.68179(14)
H2_6 H 0.099565 0.335249 0.705111
C20_8 C 0.11885(10) 0.50588(13) 0.86046(15)
H4_8 H 0.140124 0.513858 0.899721
C23_6 C 0.08215(10) 0.38636(13) 0.70328(15)
H7_6 H 0.059312 0.373304 0.740621
C25_8 C 0.02721(10) 0.58129(14) 0.94652(15)
H9_8 H 0.044254 0.595188 0.989537
C27_8 C 0.11714(10) 0.48121(13) 0.80166(15)
H11_6 H 0.136985 0.468451 0.791303
C30_6 C 0.01396(10) 0.42055(13) 0.58443(15)
H14_6 H 0.027907 0.403964 0.563340
C31_8 C 0.12563(10) 0.44597(13) 0.61637(15)
H15_6 H 0.133514 0.474716 0.592606
C38_8 C 0.15001(11) 0.59577(16) 0.96439(17)
H22_8 H 0.163191 0.609750 0.919195
N9_8 N 0.04724(10) 0.57494(12) 0.70406(11)
N3_8 N 0.94540(7) 0.50380(10) 0.71649(11)
N6_8 N 0.86343(8) 0.62445(11) 0.86739(11)
C1_6 C 0.92065(9) 0.48521(13) 0.65388(14)
C3_8 C 0.92549(9) 0.52803(13) 0.74716(14)
C4_6 C 0.96801(9) 0.45155(13) 0.60867(14)
C7_8 C 0.97616(9) 0.55782(13) 0.85443(14)
N8_6 N 0.83348(10) 0.40402(13) 0.42570(16)
C9_6 C 0.93017(9) 0.45995(13) 0.60308(14)
C14_8 C 0.93995(9) 0.55391(13) 0.81068(14)
C16_8 C 0.91400(9) 0.57879(13) 0.83230(14)
C18_6 C 0.88421(10) 0.49754(13) 0.64591(15)
H3_6 H 0.862305 0.488750 0.607368
C19_6 C 0.89736(9) 0.43994(13) 0.54059(15)
C21_8 C 0.85459(10) 0.58443(13) 0.89912(15)
H5_8 H 0.830376 0.571394 0.934476
C22_6 C 0.97630(10) 0.42246(14) 0.55939(15)
H6_6 H 0.958604 0.407488 0.517303
C24_8 C 0.99091(11) 0.58521(14) 0.91999(15)
H8_8 H 0.977634 0.602588 0.940446
C26_8 C 0.87868(10) 0.56048(13) 0.88363(15)
H10_8 H 0.870983 0.531961 0.907963
C28_8 C 0.89766(10) 0.64200(13) 0.81740(14)
H12_8 H 0.904523 0.670463 0.793643
C29_8 C 0.88721(10) 0.52378(13) 0.70335(15)
H13_8 H 0.867754 0.537037 0.713254
C32_8 C 0.92341(10) 0.62044(14) 0.79896(15)
H16_8 H 0.947488 0.634209 0.763478
C33_6 C 0.87910(12) 0.43591(16) 0.41525(17)
H17_6 H 0.889506 0.446374 0.367525
C34_6 C 0.84982(10) 0.40637(14) 0.55146(18)
H18_6 H 0.838355 0.395149 0.598537
C35_6 C 0.91174(10) 0.45431(14) 0.47023(15)
H19_6 H 0.943808 0.476644 0.460056
C40_6 C 0.81987(12) 0.38979(17) 0.49331(19)
H24_6 H 0.787707 0.366941 0.501651
N10_8 N 0.95778(11) 0.42768(14) 0.79928(11)
Co1_9 Co 0.49758(3) 0.49975(2) 0.75233(2)
N1_9 N 0.49915(10) 0.55784(7) 0.78877(11)
N2_7 N 0.53239(10) 0.53324(7) 0.66318(11)
N3_9 N 0.49620(10) 0.44161(7) 0.71649(11)
N4_9 N 0.46258(10) 0.46599(7) 0.84141(11)
N5_9 N 0.61942(10) 0.75840(7) 0.62928(11)
N6_9 N 0.37555(11) 0.23899(7) 0.86739(11)
C1_7 C 0.51479(13) 0.43545(9) 0.65388(14)
C2_9 C 0.44801(13) 0.48324(9) 0.89713(14)
C3_9 C 0.47197(13) 0.39747(9) 0.74716(14)
C4_7 C 0.54845(13) 0.51647(9) 0.60867(14)
C5_9 C 0.52222(13) 0.60166(9) 0.75729(14)
C6_9 C 0.48203(13) 0.56427(9) 0.85270(14)
C7_9 C 0.44218(13) 0.41835(9) 0.85443(14)
N8_7 N 0.59598(13) 0.42947(9) 0.42570(16)
C8_9 C 0.54690(13) 0.61279(9) 0.69248(14)
C9_7 C 0.54005(13) 0.47023(9) 0.60308(14)
C10_7 C 0.55155(13) 0.58064(9) 0.64933(14)
C11_9 C 0.45770(13) 0.52961(9) 0.90440(14)
C12_9 C 0.57182(13) 0.66322(9) 0.67011(14)
C13_9 C 0.57920(13) 0.72728(9) 0.59816(15)
H1_9 H 0.566882 0.738164 0.561261
C14_9 C 0.44609(13) 0.38605(9) 0.81068(14)
C15_9 C 0.43984(13) 0.54277(9) 0.96963(15)
C16_9 C 0.42121(13) 0.33522(9) 0.83230(14)
C17_7 C 0.63618(13) 0.74251(9) 0.68179(14)
H2_7 H 0.664751 0.764317 0.705111
C18_7 C 0.50246(13) 0.38668(9) 0.64591(15)
H3_7 H 0.511250 0.373556 0.607368
C19_7 C 0.56006(13) 0.45743(9) 0.54059(15)
C20_9 C 0.49412(13) 0.61298(9) 0.86046(15)
H4_9 H 0.486142 0.626267 0.899721
C21_9 C 0.41557(13) 0.27017(9) 0.89912(15)
H5_9 H 0.428606 0.258983 0.934476
C22_7 C 0.57754(14) 0.55385(10) 0.55939(15)
H6_7 H 0.592512 0.551117 0.517303
C23_7 C 0.61364(13) 0.69580(9) 0.70328(15)
H7_7 H 0.626696 0.686009 0.740621
C24_9 C 0.41479(14) 0.40571(9) 0.91999(15)
H8_9 H 0.397412 0.375047 0.940446
C25_9 C 0.41871(14) 0.44593(10) 0.94652(15)
H9_9 H 0.404812 0.449067 0.989537
C26_9 C 0.43952(13) 0.31821(9) 0.88363(15)
H10_9 H 0.468039 0.339023 0.907963
C27_9 C 0.51879(13) 0.63594(9) 0.80166(15)
H11_7 H 0.531549 0.668535 0.791303
C28_9 C 0.35800(13) 0.25567(9) 0.81740(14)
H12_9 H 0.329537 0.234061 0.793643
C29_9 C 0.47622(13) 0.36344(9) 0.70335(15)
H13_9 H 0.462963 0.330718 0.713254
C30_7 C 0.57945(13) 0.59342(9) 0.58443(15)
H14_7 H 0.596036 0.623944 0.563340
C31_9 C 0.55403(13) 0.67967(9) 0.61637(15)
H15_7 H 0.525284 0.658799 0.592606
C32_9 C 0.37956(14) 0.30298(10) 0.79896(15)
H16_9 H 0.365791 0.313280 0.763478
C33_7 C 0.56409(16) 0.44320(10) 0.41525(17)
H17_7 H 0.553626 0.443133 0.367525
C34_7 C 0.59363(14) 0.44346(10) 0.55146(18)
H18_7 H 0.604851 0.443207 0.598537
C35_7 C 0.54569(14) 0.45744(10) 0.47023(15)
H19_7 H 0.523356 0.467165 0.460056
C38_9 C 0.40423(16) 0.55425(11) 0.96439(17)
H22_9 H 0.390250 0.553442 0.919195
C40_7 C 0.61021(17) 0.43009(12) 0.49331(19)
H24_7 H 0.633059 0.420767 0.501651
N9_9 N 0.42506(12) 0.47231(7) 0.70406(11)
N10_9 N 0.57232(14) 0.53010(8) 0.79928(11)
C13_10 C 0.06061(9) 0.81474(10) 0.06851(15)
H1_10 H 0.071497 0.837948 0.105406
C31_10 C 0.01300(9) 0.79230(10) 0.05030(15)
N1_10 N 0.89117(7) 0.72535(7) 0.87790(11)
N3_10 N 0.77494(7) 0.61207(7) 0.95018(11)
N4_10 N 0.79932(7) 0.67007(7) 0.82526(11)
C2_10 C 0.81657(9) 0.70189(9) 0.76954(14)
C3_10 C 0.73080(9) 0.59216(9) 0.91951(14)
C5_10 C 0.93499(9) 0.74610(9) 0.90938(14)
C6_10 C 0.89760(9) 0.74890(9) 0.81397(14)
N7_7 N 0.90257(9) 0.82810(10) 0.57528(15)
C7_10 C 0.75168(9) 0.64283(9) 0.81224(14)
C8_10 C 0.94612(9) 0.73255(9) 0.97419(14)
C11_10 C 0.86294(9) 0.73857(9) 0.76227(14)
C12_10 C 0.99655(9) 0.75806(9) 0.99656(14)
C14_10 C 0.71938(9) 0.60662(9) 0.85599(14)
C15_10 C 0.87610(9) 0.76959(9) 0.69704(15)
C16_10 C 0.66855(9) 0.58067(9) 0.83437(14)
C20_10 C 0.94631(9) 0.78552(10) 0.80621(15)
H4_10 H 0.959600 0.806791 0.766946
C21_10 C 0.60350(9) 0.52126(10) 0.76755(15)
H5_10 H 0.592316 0.497043 0.732191
C24_10 C 0.73904(9) 0.65758(11) 0.74668(15)
H8_10 H 0.708380 0.644301 0.726221
C25_10 C 0.77926(10) 0.69388(10) 0.72015(15)
H9_10 H 0.782400 0.710921 0.677130
C26_10 C 0.65154(9) 0.54535(10) 0.78304(15)
H10_10 H 0.672356 0.537650 0.758704
C27_10 C 0.96927(9) 0.78381(10) 0.86501(15)
C28_10 C 0.58900(9) 0.56433(10) 0.84927(14)
H12_10 H 0.567394 0.571190 0.873024
C29_10 C 0.69677(9) 0.55388(10) 0.96332(15)
H13_10 H 0.664051 0.534421 0.953413
C32_10 C 0.63631(10) 0.59008(10) 0.86771(15)
H16_10 H 0.646613 0.614155 0.903189
C36_7 C 0.87767(10) 0.75274(10) 0.62926(15)
H20_7 H 0.869395 0.720674 0.622915
C37_7 C 0.89144(11) 0.78312(11) 0.57078(17)
H21_7 H 0.893017 0.771124 0.524918
C38_10 C 0.88758(11) 0.81668(11) 0.70228(17)
H22_10 H 0.886775 0.829858 0.747472
C39_7 C 0.90020(12) 0.84394(12) 0.6402(2)
H23_7 H 0.907610 0.875885 0.644373
N2_8 N 0.33249(7) 0.19906(10) 0.00349(11)
C1_8 C 0.41268(9) 0.18146(13) 0.01279(14)
C4_8 C 0.36532(9) 0.21512(13) 0.05800(14)
N8_8 N 0.49985(10) 0.26265(13) 0.24097(16)
C9_8 C 0.40316(9) 0.20672(13) 0.06359(14)
C10_8 C 0.30425(9) 0.21822(13) 0.01734(14)
C13_11 C 0.18526(10) 0.24587(13) 0.06851(15)
H1_11 H 0.162052 0.233549 0.105406
C18_8 C 0.44912(10) 0.16913(13) 0.02076(15)
H3_8 H 0.471028 0.177917 0.059299
C19_8 C 0.43597(9) 0.22673(13) 0.12608(15)
C22_8 C 0.35703(10) 0.24421(14) 0.10728(15)
H6_8 H 0.374729 0.259179 0.149364
C30_8 C 0.31937(10) 0.24612(13) 0.08224(15)
H14_8 H 0.305426 0.262703 0.103327
C31_11 C 0.20770(10) 0.22070(13) 0.05030(15)
H15_8 H 0.199819 0.191951 0.074061
C33_8 C 0.45423(12) 0.23076(16) 0.25142(17)
H17_8 H 0.443827 0.220293 0.299142
C34_8 C 0.48351(10) 0.26030(14) 0.11521(18)
H18_8 H 0.494978 0.271518 0.068130
C35_8 C 0.42159(10) 0.21236(14) 0.19644(15)
H19_8 H 0.389525 0.190023 0.206611
C40_8 C 0.51346(12) 0.27688(17) 0.17336(19)
H24_8 H 0.545626 0.299726 0.165016
N1_11 N 0.27465(7) 0.16582(10) 0.87790(11)
N3_11 N 0.38793(7) 0.16287(10) 0.95018(11)
N4_11 N 0.32993(7) 0.12925(10) 0.82526(11)
C2_11 C 0.29811(9) 0.11468(13) 0.76954(14)
C3_11 C 0.40784(9) 0.13864(13) 0.91951(14)
C5_11 C 0.25390(9) 0.18889(13) 0.90938(14)
C6_11 C 0.25110(9) 0.14870(13) 0.81397(14)
N7_8 N 0.17190(10) 0.07447(13) 0.57528(15)
C7_11 C 0.35717(9) 0.10885(13) 0.81224(14)
C8_11 C 0.26745(9) 0.21357(13) 0.97419(14)
C11_11 C 0.26143(9) 0.12437(13) 0.76227(14)
C12_11 C 0.24194(9) 0.23849(13) 0.99656(14)
C14_11 C 0.39338(9) 0.11276(13) 0.85599(14)
C15_11 C 0.23041(9) 0.10651(13) 0.69704(15)
C16_11 C 0.41933(9) 0.08788(13) 0.83437(14)
C17_8 C 0.22701(10) 0.30285(13) 0.98488(14)
H2_8 H 0.233768 0.331418 0.961556
C20_11 C 0.21448(10) 0.16079(13) 0.80621(15)
H4_11 H 0.193209 0.152809 0.766946
C21_11 C 0.47874(10) 0.08224(13) 0.76755(15)
H5_11 H 0.502957 0.095273 0.732191
C23_8 C 0.25118(10) 0.28031(13) 0.96339(15)
H7_8 H 0.274021 0.293363 0.926046
C24_11 C 0.34242(11) 0.08146(14) 0.74668(15)
H8_11 H 0.355699 0.064079 0.726221
C25_11 C 0.30612(10) 0.08538(14) 0.72015(15)
H9_11 H 0.289079 0.071479 0.677130
C26_11 C 0.45465(10) 0.10619(13) 0.78304(15)
H10_11 H 0.462350 0.134706 0.758704
C27_11 C 0.21619(10) 0.18546(13) 0.86501(15)
H11_8 H 0.196348 0.198216 0.875364
C28_11 C 0.43567(10) 0.02467(13) 0.84927(14)
C29_11 C 0.44612(10) 0.14289(13) 0.96332(15)
H13_11 H 0.465579 0.129630 0.953413
C32_11 C 0.40992(10) 0.04623(14) 0.86771(15)
H16_11 H 0.385845 0.032458 0.903189
C36_8 C 0.24726(10) 0.12493(14) 0.62926(15)
H20_8 H 0.279326 0.148721 0.622915
C37_8 C 0.21688(11) 0.10832(16) 0.57078(17)
H21_8 H 0.228876 0.121893 0.524918
C38_11 C 0.18332(11) 0.07090(16) 0.70228(17)
H22_11 H 0.170142 0.056917 0.747472
C39_8 C 0.15606(12) 0.05626(17) 0.6402(2)
H23_8 H 0.124115 0.031725 0.644373
H12_11 H 0.428810 0.996204 0.873024
H12_12 H 0.003796 0.432606 0.873024
N1_12 N 0.83418(10) 0.10883(7) 0.87790(11)
N3_12 N 0.83713(10) 0.22506(7) 0.95018(11)
N4_12 N 0.87075(10) 0.20068(7) 0.82526(11)
C2_12 C 0.88532(13) 0.18343(9) 0.76954(14)
C3_12 C 0.86136(13) 0.26920(9) 0.91951(14)
C5_12 C 0.81111(13) 0.06501(9) 0.90938(14)
C6_12 C 0.85130(13) 0.10240(9) 0.81397(14)
N7_9 N 0.92553(13) 0.09743(9) 0.57528(15)
C7_12 C 0.89115(13) 0.24832(9) 0.81224(14)
C8_12 C 0.78643(13) 0.05388(9) 0.97419(14)
C11_12 C 0.87563(13) 0.13706(9) 0.76227(14)
C12_12 C 0.76151(13) 0.00345(9) 0.99656(14)
C14_12 C 0.88724(13) 0.28062(9) 0.85599(14)
C15_12 C 0.89349(13) 0.12390(9) 0.69704(15)
C16_12 C 0.91212(13) 0.33145(9) 0.83437(14)
C20_12 C 0.83921(13) 0.05369(9) 0.80621(15)
H4_12 H 0.847191 0.040400 0.766946
C21_12 C 0.91776(13) 0.39650(9) 0.76755(15)
H5_12 H 0.904727 0.407684 0.732191
C24_12 C 0.91854(14) 0.26096(9) 0.74668(15)
H8_12 H 0.935921 0.291620 0.726221
C25_12 C 0.91462(14) 0.22074(10) 0.72015(15)
H9_12 H 0.928521 0.217600 0.677130
C26_12 C 0.89381(13) 0.34846(9) 0.78304(15)
H10_12 H 0.865294 0.327644 0.758704
C27_12 C 0.81454(13) 0.03073(9) 0.86501(15)
C28_12 C 0.97533(13) 0.41100(9) 0.84927(14)
C29_12 C 0.85711(13) 0.30323(9) 0.96332(15)
H13_12 H 0.870370 0.335949 0.953413
C32_12 C 0.95377(14) 0.36369(10) 0.86771(15)
H16_12 H 0.967542 0.353387 0.903189
C36_9 C 0.87507(14) 0.12233(10) 0.62926(15)
H20_9 H 0.851279 0.130605 0.622915
C37_9 C 0.89168(16) 0.10856(11) 0.57078(17)
H21_9 H 0.878107 0.106983 0.524918
C38_12 C 0.92910(16) 0.11242(11) 0.70228(17)
H22_12 H 0.943083 0.113225 0.747472
C39_9 C 0.94374(17) 0.09980(12) 0.6402(2)
H23_9 H 0.968275 0.092390 0.644373
C13_12 C 0.75413(13) 0.93939(9) 0.06851(15)
H1_12 H 0.766451 0.928503 0.105406
C31_12 C 0.77930(13) 0.98700(9) 0.05030(15)
N1_13 N 0.22450(7) 0.39202(7) 0.54457(11)
N2_9 N 0.19990(7) 0.33418(7) 0.67016(11)
N3_13 N 0.10827(7) 0.27874(7) 0.61685(11)
N4_13 N 0.13265(7) 0.33674(7) 0.49193(11)
C1_9 C 0.10211(9) 0.25399(9) 0.67946(14)
C2_13 C 0.14990(9) 0.36856(9) 0.43621(14)
C3_13 C 0.06413(9) 0.25883(9) 0.58618(14)
C4_9 C 0.18313(9) 0.30135(9) 0.72467(14)
C5_13 C 0.26832(9) 0.41277(9) 0.57605(14)
C6_13 C 0.23093(9) 0.41557(9) 0.48064(14)
N7_10 N 0.23590(9) 0.49477(10) 0.24195(15)
C7_13 C 0.08501(9) 0.30950(9) 0.47891(14)
N8_9 N 0.09613(9) 0.16682(10) 0.90764(16)
C8_13 C 0.27945(9) 0.39922(9) 0.64086(14)
C9_9 C 0.13689(9) 0.26351(9) 0.73026(14)
C10_9 C 0.24730(9) 0.36242(9) 0.68401(14)
C11_13 C 0.19627(9) 0.40524(9) 0.42894(14)
C12_13 C 0.32988(9) 0.42473(9) 0.66323(14)
C13_13 C 0.39394(9) 0.48141(10) 0.73518(15)
H1_13 H 0.404830 0.504615 0.772073
C14_13 C 0.05271(9) 0.27329(9) 0.52266(14)
C15_13 C 0.20943(9) 0.43626(9) 0.36371(15)
C16_13 C 0.00188(9) 0.24734(9) 0.50104(14)
C17_9 C 0.40917(9) 0.43966(10) 0.65155(14)
H2_9 H 0.430983 0.432899 0.628223
C18_9 C 0.05334(9) 0.21755(10) 0.68743(15)
H3_9 H 0.040222 0.195639 0.725966
C19_9 C 0.12409(9) 0.23070(9) 0.79275(15)
C20_13 C 0.27964(9) 0.45219(10) 0.47288(15)
H4_13 H 0.292933 0.473458 0.433613
C22_9 C 0.22051(10) 0.30964(10) 0.77395(15)
H6_9 H 0.217783 0.291938 0.816031
C23_9 C 0.36246(9) 0.41549(10) 0.63006(15)
H7_9 H 0.352675 0.392646 0.592713
C24_13 C 0.07237(9) 0.32425(11) 0.41335(15)
H8_13 H 0.041713 0.310968 0.392888
C25_13 C 0.11259(10) 0.36055(10) 0.38682(15)
H9_13 H 0.115733 0.377588 0.343797
H10_13 H 0.005689 0.204317 0.425371
C27_13 C 0.30260(9) 0.45048(10) 0.53168(15)
H11_9 H 0.335201 0.470319 0.542031
C29_13 C 0.03010(9) 0.22055(10) 0.62999(15)
C30_9 C 0.26008(9) 0.34730(10) 0.74891(15)
H14_9 H 0.290610 0.361241 0.769994
C31_13 C 0.34633(9) 0.45897(10) 0.71697(15)
H15_9 H 0.325465 0.466848 0.740728
C33_9 C 0.10986(10) 0.21244(12) 0.91809(17)
H17_9 H 0.109799 0.222840 0.965809
C34_9 C 0.11012(10) 0.18316(10) 0.78188(18)
H18_9 H 0.109873 0.171689 0.734797
C35_9 C 0.12410(10) 0.24508(10) 0.86311(15)
H19_9 H 0.133831 0.277142 0.873278
C36_10 C 0.21100(10) 0.41941(10) 0.29593(15)
H20_10 H 0.202728 0.387341 0.289582
C37_10 C 0.22477(11) 0.44979(11) 0.23745(17)
H21_10 H 0.226350 0.437791 0.191585
C38_13 C 0.22091(11) 0.48335(11) 0.36895(17)
H22_13 H 0.220108 0.496525 0.414139
C39_10 C 0.23353(12) 0.51061(12) 0.3069(2)
H23_10 H 0.240943 0.542552 0.311040
C40_9 C 0.09675(12) 0.15321(12) 0.84003(19)
H24_9 H 0.087433 0.121041 0.831683
C21_13 C 0.93683(9) 0.18793(10) 0.43422(15)
H5_13 H 0.925649 0.163710 0.398858
C26_13 C 0.98487(9) 0.21202(10) 0.44971(15)
C28_13 C 0.92233(9) 0.23100(10) 0.51594(14)
H12_13 H 0.900727 0.237857 0.539691
H13_13 H 0.997384 0.201088 0.620080
C32_13 C 0.96964(10) 0.25675(10) 0.53438(15)
H16_13 H 0.979946 0.280822 0.569856
N1_14 N 0.60798(7) 0.83249(10) 0.54457(11)
N2_10 N 0.66582(7) 0.86573(10) 0.67016(11)
N3_14 N 0.72126(7) 0.82954(10) 0.61685(11)
N4_14 N 0.66326(7) 0.79592(10) 0.49193(11)
C1_10 C 0.74601(9) 0.84813(13) 0.67946(14)
C2_14 C 0.63144(9) 0.78135(13) 0.43621(14)
C3_14 C 0.74117(9) 0.80531(13) 0.58618(14)
C4_10 C 0.69865(9) 0.88179(13) 0.72467(14)
C5_14 C 0.58723(9) 0.85556(13) 0.57605(14)
C6_14 C 0.58443(9) 0.81537(13) 0.48064(14)
N7_11 N 0.50523(10) 0.74114(13) 0.24195(15)
C7_14 C 0.69050(9) 0.77552(13) 0.47891(14)
N8_10 N 0.83318(10) 0.92932(13) 0.90764(16)
C8_14 C 0.60078(9) 0.88024(13) 0.64086(14)
C9_10 C 0.73649(9) 0.87339(13) 0.73026(14)
C10_10 C 0.63758(9) 0.88489(13) 0.68401(14)
C11_14 C 0.59476(9) 0.79104(13) 0.42894(14)
C12_14 C 0.57527(9) 0.90516(13) 0.66323(14)
C13_14 C 0.51859(10) 0.91254(13) 0.73518(15)
H1_14 H 0.495385 0.900216 0.772073
C14_14 C 0.72671(9) 0.77943(13) 0.52266(14)
C15_14 C 0.56374(9) 0.77318(13) 0.36371(15)
C16_14 C 0.75266(9) 0.75455(13) 0.50104(14)
C17_10 C 0.56034(10) 0.96952(13) 0.65155(14)
H2_10 H 0.567101 0.998085 0.628223
C18_10 C 0.78245(10) 0.83580(13) 0.68743(15)
H3_10 H 0.804361 0.844584 0.725966
C19_10 C 0.76930(9) 0.89340(13) 0.79275(15)
C20_14 C 0.54781(10) 0.82746(13) 0.47288(15)
H4_14 H 0.526542 0.819476 0.433613
C21_14 C 0.81207(10) 0.74891(13) 0.43422(15)
H5_14 H 0.836290 0.761940 0.398858
C22_10 C 0.69036(10) 0.91088(14) 0.77395(15)
H6_10 H 0.708062 0.925846 0.816031
C23_10 C 0.58451(10) 0.94698(13) 0.63006(15)
H7_10 H 0.607354 0.960030 0.592713
C24_14 C 0.67575(11) 0.74813(14) 0.41335(15)
H8_14 H 0.689032 0.730746 0.392888
C25_14 C 0.63945(10) 0.75205(14) 0.38682(15)
H9_14 H 0.622412 0.738146 0.343797
C26_14 C 0.78798(10) 0.77286(13) 0.44971(15)
H10_14 H 0.795683 0.801373 0.425371
C27_14 C 0.54952(10) 0.85213(13) 0.53168(15)
H11_10 H 0.529681 0.864883 0.542031
C28_14 C 0.76900(10) 0.69134(13) 0.51594(14)
H12_14 H 0.762143 0.662871 0.539691
C29_14 C 0.77945(10) 0.80956(13) 0.62999(15)
H13_14 H 0.798912 0.796297 0.620080
C30_10 C 0.65270(10) 0.91279(13) 0.74891(15)
H14_10 H 0.638759 0.929370 0.769994
C31_14 C 0.54103(10) 0.88737(13) 0.71697(15)
H15_10 H 0.533152 0.858618 0.740728
C32_14 C 0.74325(10) 0.71290(14) 0.53438(15)
H16_14 H 0.719178 0.699125 0.569856
C33_10 C 0.78756(12) 0.89743(16) 0.91809(17)
H17_10 H 0.777160 0.886960 0.965809
C34_10 C 0.81684(10) 0.92697(14) 0.78188(18)
H18_10 H 0.828311 0.938185 0.734797
C35_10 C 0.75492(10) 0.87903(14) 0.86311(15)
H19_10 H 0.722858 0.856690 0.873278
C36_11 C 0.58059(10) 0.79160(14) 0.29593(15)
H20_11 H 0.612659 0.815388 0.289582
C37_11 C 0.55021(11) 0.77499(16) 0.23745(17)
H21_11 H 0.562209 0.788560 0.191585
C38_14 C 0.51665(11) 0.73757(16) 0.36895(17)
H22_14 H 0.503475 0.723584 0.414139
C39_11 C 0.48939(12) 0.72293(17) 0.3069(2)
H23_11 H 0.457448 0.698392 0.311040
C40_10 C 0.84679(12) 0.94355(17) 0.84003(19)
H24_10 H 0.878959 0.966393 0.831683
C21_15 C 0.25109(13) 0.06317(9) 0.43422(15)
H5_15 H 0.238060 0.074351 0.398858
C26_15 C 0.22714(13) 0.01513(9) 0.44971(15)
C28_15 C 0.30866(13) 0.07767(9) 0.51594(14)
H12_15 H 0.337129 0.099273 0.539691
H13_15 H 0.203703 0.002616 0.620080
C32_15 C 0.28710(14) 0.03036(10) 0.53438(15)
H16_15 H 0.300875 0.020054 0.569856
N1_15 N 0.16751(10) 0.77550(7) 0.54457(11)
N2_11 N 0.13427(10) 0.80010(7) 0.67016(11)
N3_15 N 0.17046(10) 0.89173(7) 0.61685(11)
N4_15 N 0.20408(10) 0.86735(7) 0.49193(11)
C1_11 C 0.15187(13) 0.89789(9) 0.67946(14)
C2_15 C 0.21865(13) 0.85010(9) 0.43621(14)
C3_15 C 0.19469(13) 0.93587(9) 0.58618(14)
C4_11 C 0.11821(13) 0.81687(9) 0.72467(14)
C5_15 C 0.14444(13) 0.73168(9) 0.57605(14)
C6_15 C 0.18463(13) 0.76907(9) 0.48064(14)
N7_12 N 0.25886(13) 0.76410(9) 0.24195(15)
C7_15 C 0.22448(13) 0.91499(9) 0.47891(14)
N8_11 N 0.07068(13) 0.90387(9) 0.90764(16)
C8_15 C 0.11976(13) 0.72055(9) 0.64086(14)
C9_11 C 0.12661(13) 0.86311(9) 0.73026(14)
C10_11 C 0.11511(13) 0.75270(9) 0.68401(14)
C11_15 C 0.20896(13) 0.80373(9) 0.42894(14)
C12_15 C 0.09484(13) 0.67012(9) 0.66323(14)
C13_15 C 0.08746(13) 0.60606(9) 0.73518(15)
H1_15 H 0.099784 0.595170 0.772073
C14_15 C 0.22057(13) 0.94729(9) 0.52266(14)
C15_15 C 0.22682(13) 0.79057(9) 0.36371(15)
C16_15 C 0.24545(13) 0.99812(9) 0.50104(14)
C17_11 C 0.03048(13) 0.59083(9) 0.65155(14)
H2_11 H 0.001915 0.569017 0.628223
C18_11 C 0.16420(13) 0.94666(9) 0.68743(15)
H3_11 H 0.155416 0.959778 0.725966
C19_11 C 0.10660(13) 0.87591(9) 0.79275(15)
C20_15 C 0.17254(13) 0.72036(9) 0.47288(15)
H4_15 H 0.180524 0.707067 0.433613
C22_11 C 0.08912(14) 0.77949(10) 0.77395(15)
H6_11 H 0.074154 0.782217 0.816031
C23_11 C 0.05302(13) 0.63754(9) 0.63006(15)
H7_11 H 0.039970 0.647325 0.592713
C24_15 C 0.25187(14) 0.92763(9) 0.41335(15)
H8_15 H 0.269254 0.958287 0.392888
C25_15 C 0.24795(14) 0.88741(10) 0.38682(15)
H9_15 H 0.261854 0.884267 0.343797
H10_15 H 0.198627 0.994311 0.425371
C27_15 C 0.14787(13) 0.69740(9) 0.53168(15)
H11_11 H 0.135117 0.664799 0.542031
C29_15 C 0.19044(13) 0.96990(9) 0.62999(15)
C30_11 C 0.08721(13) 0.73992(9) 0.74891(15)
H14_11 H 0.070630 0.709390 0.769994
C31_15 C 0.11263(13) 0.65367(9) 0.71697(15)
H15_11 H 0.141382 0.674535 0.740728
C33_11 C 0.10257(16) 0.89014(10) 0.91809(17)
H17_11 H 0.113040 0.890201 0.965809
C34_11 C 0.07303(14) 0.88988(10) 0.78188(18)
H18_11 H 0.061815 0.890127 0.734797
C35_11 C 0.12097(14) 0.87590(10) 0.86311(15)
H19_11 H 0.143310 0.866169 0.873278
C36_12 C 0.20840(14) 0.78900(10) 0.29593(15)
H20_12 H 0.184612 0.797272 0.289582
C37_12 C 0.22501(16) 0.77523(11) 0.23745(17)
H21_12 H 0.211440 0.773650 0.191585
C38_15 C 0.26243(16) 0.77909(11) 0.36895(17)
H22_15 H 0.276416 0.779892 0.414139
C39_12 C 0.27707(17) 0.76647(12) 0.3069(2)
H23_12 H 0.301608 0.759057 0.311040
C40_11 C 0.05645(17) 0.90325(12) 0.84003(19)
H24_11 H 0.033607 0.912567 0.831683
N1_16 N 0.55784(7) 0.05868(7) 0.21123(11)
N2_12 N 0.53324(7) 0.00084(7) 0.33682(11)
N4_16 N 0.46599(7) 0.00340(7) 0.15859(11)
C2_16 C 0.48324(9) 0.03522(9) 0.10287(14)
C5_16 C 0.60166(9) 0.07943(9) 0.24271(14)
C6_16 C 0.56427(9) 0.08223(9) 0.14730(14)
C8_16 C 0.61279(9) 0.06588(9) 0.30752(14)
C10_12 C 0.58064(9) 0.02908(9) 0.35067(14)
C11_16 C 0.52961(9) 0.07190(9) 0.09560(14)
C12_16 C 0.66322(9) 0.09139(9) 0.32989(14)
C13_16 C 0.72728(9) 0.14807(10) 0.40184(15)
H1_16 H 0.738164 0.171281 0.438739
C15_16 C 0.54277(9) 0.10292(9) 0.03037(15)
C17_12 C 0.74251(9) 0.10632(10) 0.31821(14)
H2_12 H 0.764317 0.099565 0.294889
C20_16 C 0.61298(9) 0.11885(10) 0.13954(15)
H4_16 H 0.626267 0.140124 0.100279
C23_12 C 0.69580(9) 0.08215(10) 0.29672(15)
H7_12 H 0.686009 0.059312 0.259379
C25_16 C 0.44593(10) 0.02721(10) 0.05348(15)
H9_16 H 0.449067 0.044254 0.010463
C27_16 C 0.63594(9) 0.11714(10) 0.19834(15)
H11_12 H 0.668535 0.136985 0.208697
C30_12 C 0.59342(9) 0.01396(10) 0.41557(15)
H14_12 H 0.623944 0.027907 0.436660
C31_16 C 0.67967(9) 0.12563(10) 0.38363(15)
H15_12 H 0.658799 0.133514 0.407394
C38_16 C 0.55425(11) 0.15001(11) 0.03561(17)
H22_16 H 0.553442 0.163191 0.080805
N3_16 N 0.44161(7) 0.94540(7) 0.28351(11)
C1_12 C 0.43545(9) 0.92065(9) 0.34612(14)
C3_16 C 0.39747(9) 0.92549(9) 0.25284(14)
C4_12 C 0.51647(9) 0.96801(9) 0.39133(14)
C7_16 C 0.41835(9) 0.97616(9) 0.14557(14)
N8_12 N 0.42947(9) 0.83348(10) 0.57430(16)
C9_12 C 0.47023(9) 0.93017(9) 0.39692(14)
C14_16 C 0.38605(9) 0.93995(9) 0.18932(14)
C16_16 C 0.33522(9) 0.91400(9) 0.16770(14)
C18_12 C 0.38668(9) 0.88421(10) 0.35409(15)
H3_12 H 0.373556 0.862305 0.392632
C19_12 C 0.45743(9) 0.89736(9) 0.45941(15)
C21_16 C 0.27017(9) 0.85459(10) 0.10088(15)
H5_16 H 0.258983 0.830376 0.065524
C22_12 C 0.55385(10) 0.97630(10) 0.44061(15)
H6_12 H 0.551117 0.958604 0.482697
C24_16 C 0.40571(9) 0.99091(11) 0.08001(15)
H8_16 H 0.375047 0.977634 0.059554
C26_16 C 0.31821(9) 0.87868(10) 0.11637(15)
H10_16 H 0.339023 0.870983 0.092037
C28_16 C 0.25567(9) 0.89766(10) 0.18260(14)
H12_16 H 0.234061 0.904523 0.206357
C29_16 C 0.36344(9) 0.88721(10) 0.29665(15)
H13_16 H 0.330718 0.867754 0.286746
C32_16 C 0.30298(10) 0.92341(10) 0.20104(15)
H16_16 H 0.313280 0.947488 0.236522
C33_12 C 0.44320(10) 0.87910(12) 0.58475(17)
H17_12 H 0.443133 0.889506 0.632475
C34_12 C 0.44346(10) 0.84982(10) 0.44854(18)
H18_12 H 0.443207 0.838355 0.401463
C35_12 C 0.45744(10) 0.91174(10) 0.52977(15)
H19_12 H 0.467165 0.943808 0.539944
C40_12 C 0.43009(12) 0.81987(12) 0.50669(19)
H24_12 H 0.420767 0.787707 0.498349
N3_17 N 0.05460(7) 0.49620(10) 0.28351(11)
C1_13 C 0.07935(9) 0.51479(13) 0.34612(14)
C3_17 C 0.07451(9) 0.47197(13) 0.25284(14)
C4_13 C 0.03199(9) 0.54845(13) 0.39133(14)
C7_17 C 0.02384(9) 0.44218(13) 0.14557(14)
N8_13 N 0.16652(10) 0.59598(13) 0.57430(16)
C9_13 C 0.06983(9) 0.54005(13) 0.39692(14)
C14_17 C 0.06005(9) 0.44609(13) 0.18932(14)
C16_17 C 0.08600(9) 0.42121(13) 0.16770(14)
C18_13 C 0.11579(10) 0.50246(13) 0.35409(15)
H3_13 H 0.137695 0.511250 0.392632
C19_13 C 0.10264(9) 0.56006(13) 0.45941(15)
C21_17 C 0.14541(10) 0.41557(13) 0.10088(15)
H5_17 H 0.169624 0.428606 0.065524
C22_13 C 0.02370(10) 0.57754(14) 0.44061(15)
H6_13 H 0.041396 0.592512 0.482697
C24_17 C 0.00909(11) 0.41479(14) 0.08001(15)
H8_17 H 0.022366 0.397412 0.059554
C26_17 C 0.12132(10) 0.43952(13) 0.11637(15)
H10_17 H 0.129017 0.468039 0.092037
C28_17 C 0.10234(10) 0.35800(13) 0.18260(14)
H12_17 H 0.095477 0.329537 0.206357
C29_17 C 0.11279(10) 0.47622(13) 0.29665(15)
H13_17 H 0.132246 0.462963 0.286746
C32_17 C 0.07659(10) 0.37956(14) 0.20104(15)
H16_17 H 0.052512 0.365791 0.236522
C33_13 C 0.12090(12) 0.56409(16) 0.58475(17)
H17_13 H 0.110494 0.553626 0.632475
C34_13 C 0.15018(10) 0.59363(14) 0.44854(18)
H18_13 H 0.161645 0.604851 0.401463
C35_13 C 0.08826(10) 0.54569(14) 0.52977(15)
H19_13 H 0.056192 0.523356 0.539944
C40_13 C 0.18013(12) 0.61021(17) 0.50669(19)
H24_13 H 0.212293 0.633059 0.498349
N1_17 N 0.94132(7) 0.49915(10) 0.21123(11)
N2_13 N 0.99916(7) 0.53239(10) 0.33682(11)
N4_17 N 0.99660(7) 0.46258(10) 0.15859(11)
C2_17 C 0.96478(9) 0.44801(13) 0.10287(14)
C5_17 C 0.92057(9) 0.52222(13) 0.24271(14)
C6_17 C 0.91777(9) 0.48203(13) 0.14730(14)
C8_17 C 0.93412(9) 0.54690(13) 0.30752(14)
C10_13 C 0.97092(9) 0.55155(13) 0.35067(14)
C11_17 C 0.92810(9) 0.45770(13) 0.09560(14)
C12_17 C 0.90861(9) 0.57182(13) 0.32989(14)
C13_17 C 0.85193(10) 0.57920(13) 0.40184(15)
H1_17 H 0.828719 0.566882 0.438739
C15_17 C 0.89708(9) 0.43984(13) 0.03037(15)
C17_13 C 0.89368(10) 0.63618(13) 0.31821(14)
H2_13 H 0.900435 0.664751 0.294889
C20_17 C 0.88115(10) 0.49412(13) 0.13954(15)
H4_17 H 0.859876 0.486142 0.100279
C23_13 C 0.91785(10) 0.61364(13) 0.29672(15)
H7_13 H 0.940688 0.626696 0.259379
C25_17 C 0.97279(10) 0.41871(14) 0.05348(15)
H9_17 H 0.955746 0.404812 0.010463
C27_17 C 0.88286(10) 0.51879(13) 0.19834(15)
H11_13 H 0.863015 0.531549 0.208697
C30_13 C 0.98604(10) 0.57945(13) 0.41557(15)
H14_13 H 0.972093 0.596036 0.436660
C31_17 C 0.87437(10) 0.55403(13) 0.38363(15)
H15_13 H 0.866486 0.525284 0.407394
C38_17 C 0.84999(11) 0.40423(16) 0.03561(17)
H22_17 H 0.836809 0.390250 0.080805
N1_18 N 0.50085(10) 0.44216(7) 0.21123(11)
N2_14 N 0.46761(10) 0.46676(7) 0.33682(11)
N3_18 N 0.50380(10) 0.55839(7) 0.28351(11)
N4_18 N 0.53742(10) 0.53401(7) 0.15859(11)
C1_14 C 0.48521(13) 0.56455(9) 0.34612(14)
C2_18 C 0.55199(13) 0.51676(9) 0.10287(14)
C3_18 C 0.52803(13) 0.60253(9) 0.25284(14)
C4_14 C 0.45155(13) 0.48353(9) 0.39133(14)
C5_18 C 0.47778(13) 0.39834(9) 0.24271(14)
C6_18 C 0.51797(13) 0.43573(9) 0.14730(14)
C7_18 C 0.55782(13) 0.58165(9) 0.14557(14)
N8_14 N 0.40402(13) 0.57053(9) 0.57430(16)
C8_18 C 0.45310(13) 0.38721(9) 0.30752(14)
C9_14 C 0.45995(13) 0.52977(9) 0.39692(14)
C10_14 C 0.44845(13) 0.41936(9) 0.35067(14)
C11_18 C 0.54230(13) 0.47039(9) 0.09560(14)
C12_18 C 0.42818(13) 0.33678(9) 0.32989(14)
C13_18 C 0.42080(13) 0.27272(9) 0.40184(15)
H1_18 H 0.433118 0.261836 0.438739
C14_18 C 0.55391(13) 0.61395(9) 0.18932(14)
C15_18 C 0.56016(13) 0.45723(9) 0.03037(15)
C16_18 C 0.57879(13) 0.66478(9) 0.16770(14)
C17_14 C 0.36382(13) 0.25749(9) 0.31821(14)
H2_14 H 0.335249 0.235683 0.294889
C18_14 C 0.49754(13) 0.61332(9) 0.35409(15)
H3_14 H 0.488750 0.626444 0.392632
C19_14 C 0.43994(13) 0.54257(9) 0.45941(15)
C20_18 C 0.50588(13) 0.38702(9) 0.13954(15)
H4_18 H 0.513858 0.373733 0.100279
C21_18 C 0.58443(13) 0.72983(9) 0.10088(15)
H5_18 H 0.571394 0.741017 0.065524
C22_14 C 0.42246(14) 0.44615(10) 0.44061(15)
H6_14 H 0.407488 0.448883 0.482697
C23_14 C 0.38636(13) 0.30420(9) 0.29672(15)
H7_14 H 0.373304 0.313991 0.259379
C24_18 C 0.58521(14) 0.59429(9) 0.08001(15)
H8_18 H 0.602588 0.624953 0.059554
C25_18 C 0.58129(14) 0.55407(10) 0.05348(15)
H9_18 H 0.595188 0.550933 0.010463
C26_18 C 0.56048(13) 0.68179(9) 0.11637(15)
H10_18 H 0.531961 0.660977 0.092037
C27_18 C 0.48121(13) 0.36406(9) 0.19834(15)
H11_14 H 0.468451 0.331465 0.208697
C28_18 C 0.64200(13) 0.74433(9) 0.18260(14)
H12_18 H 0.670463 0.765939 0.206357
C29_18 C 0.52378(13) 0.63656(9) 0.29665(15)
H13_18 H 0.537037 0.669282 0.286746
C30_14 C 0.42055(13) 0.40658(9) 0.41557(15)
H14_14 H 0.403964 0.376056 0.436660
C31_18 C 0.44597(13) 0.32033(9) 0.38363(15)
H15_14 H 0.474716 0.341201 0.407394
C32_18 C 0.62044(14) 0.69702(10) 0.20104(15)
H16_18 H 0.634209 0.686720 0.236522
C33_14 C 0.43591(16) 0.55680(10) 0.58475(17)
H17_14 H 0.446374 0.556867 0.632475
C34_14 C 0.40637(14) 0.55654(10) 0.44854(18)
H18_14 H 0.395149 0.556793 0.401463
C35_14 C 0.45431(14) 0.54256(10) 0.52977(15)
H19_14 H 0.476644 0.532835 0.539944
C38_18 C 0.59577(16) 0.44575(11) 0.03561(17)
H22_18 H 0.609750 0.446558 0.080805
C40_14 C 0.38979(17) 0.56991(12) 0.50669(19)
H24_14 H 0.366941 0.579233 0.498349
N2_15 N 0.13343(7) 0.33249(7) 0.99651(11)
C1_15 C 0.23122(9) 0.41268(9) 0.98721(14)
C4_15 C 0.15020(9) 0.36532(9) 0.94200(14)
N8_15 N 0.23720(9) 0.49985(10) 0.75903(16)
C9_15 C 0.19644(9) 0.40316(9) 0.93641(14)
C10_15 C 0.08603(9) 0.30425(9) 0.98266(14)
C18_15 C 0.27999(9) 0.44912(10) 0.97924(15)
H3_15 H 0.293111 0.471028 0.940701
C19_15 C 0.20924(9) 0.43597(9) 0.87392(15)
C22_15 C 0.11282(10) 0.35703(10) 0.89272(15)
H6_15 H 0.115550 0.374729 0.850636
C30_15 C 0.07325(9) 0.31937(10) 0.91776(15)
H14_15 H 0.042723 0.305426 0.896673
H15_15 H 0.007868 0.199819 0.925939
C33_15 C 0.22347(10) 0.45423(12) 0.74858(17)
H17_15 H 0.223534 0.443827 0.700858
C34_15 C 0.22321(10) 0.48351(10) 0.88479(18)
H18_15 H 0.223460 0.494978 0.931870
C35_15 C 0.20923(10) 0.42159(10) 0.80356(15)
H19_15 H 0.199502 0.389525 0.793389
C40_15 C 0.23658(12) 0.51346(12) 0.82664(19)
H24_15 H 0.245900 0.545626 0.834984
C17_15 C 0.92416(9) 0.22701(10) 0.01512(14)
H2_15 H 0.902350 0.233768 0.038444
C23_15 C 0.97087(9) 0.25118(10) 0.03661(15)
H7_15 H 0.980658 0.274021 0.073954
H11_15 H 0.998132 0.196348 0.124636
C17_16 C 0.30285(13) 0.07584(9) 0.01512(14)
H2_16 H 0.331418 0.097650 0.038444
C23_16 C 0.28031(13) 0.02913(9) 0.03661(15)
H7_16 H 0.293363 0.019342 0.073954
H11_16 H 0.198216 0.001868 0.124636
N2_16 N 0.19906(10) 0.86657(7) 0.99651(11)
C1_16 C 0.18146(13) 0.76878(9) 0.98721(14)
C4_16 C 0.21512(13) 0.84980(9) 0.94200(14)
N8_16 N 0.26265(13) 0.76280(9) 0.75903(16)
C9_16 C 0.20672(13) 0.80356(9) 0.93641(14)
C10_16 C 0.21822(13) 0.91397(9) 0.98266(14)
C18_16 C 0.16913(13) 0.72001(9) 0.97924(15)
H3_16 H 0.177917 0.706889 0.940701
C19_16 C 0.22673(13) 0.79076(9) 0.87392(15)
C22_16 C 0.24421(14) 0.88718(10) 0.89272(15)
H6_16 H 0.259179 0.884450 0.850636
C30_16 C 0.24612(13) 0.92675(9) 0.91776(15)
H14_16 H 0.262703 0.957277 0.896673
H15_16 H 0.191951 0.992132 0.925939
C33_16 C 0.23076(16) 0.77653(10) 0.74858(17)
H17_16 H 0.220293 0.776466 0.700858
C34_16 C 0.26030(14) 0.77679(10) 0.88479(18)
H18_16 H 0.271518 0.776540 0.931870
C35_16 C 0.21236(14) 0.79077(10) 0.80356(15)
H19_16 H 0.190023 0.800498 0.793389
C40_16 C 0.27688(17) 0.76342(12) 0.82664(19)
H24_16 H 0.299726 0.754100 0.834984
N7_13 N 0.43076(9) 0.83857(10) 0.09139(15)
C36_13 C 0.45566(10) 0.91393(10) 0.03741(15)
H20_13 H 0.463938 0.945993 0.043752
C37_13 C 0.44189(11) 0.88355(11) 0.09589(17)
H21_13 H 0.440316 0.895543 0.141749
C39_13 C 0.43313(12) 0.82273(12) 0.0265(2)
H23_13 H 0.425723 0.790782 0.022294
N7_14 N 0.16143(10) 0.59220(13) 0.09139(15)
C36_14 C 0.08607(10) 0.54174(14) 0.03741(15)
H20_14 H 0.054007 0.517946 0.043752
C37_14 C 0.11645(11) 0.55835(16) 0.09589(17)
H21_14 H 0.104457 0.544774 0.141749
C39_14 C 0.17727(12) 0.61041(17) 0.0265(2)
H23_14 H 0.209218 0.634942 0.022294
N7_15 N 0.40780(13) 0.56924(9) 0.09139(15)
C36_15 C 0.45826(14) 0.54434(10) 0.03741(15)
H20_15 H 0.482054 0.536062 0.043752
C37_15 C 0.44165(16) 0.55811(11) 0.09589(17)
H21_15 H 0.455226 0.559684 0.141749
C39_15 C 0.38959(17) 0.56687(12) 0.0265(2)
H23_15 H 0.365058 0.574277 0.022294
C17_17 C 0.07584(9) 0.77299(10) 0.98488(14)
H2_17 H 0.097650 0.766232 0.961556
C23_17 C 0.02913(9) 0.74882(10) 0.96339(15)
H7_17 H 0.019342 0.725979 0.926046
H11_17 H 0.001868 0.803652 0.875364
N2_17 N 0.86657(7) 0.66751(7) 0.00349(11)
C1_17 C 0.76878(9) 0.58732(9) 0.01279(14)
C4_17 C 0.84980(9) 0.63468(9) 0.05800(14)
N8_17 N 0.76280(9) 0.50015(10) 0.24097(16)
C9_17 C 0.80356(9) 0.59684(9) 0.06359(14)
C10_17 C 0.91397(9) 0.69575(9) 0.01734(14)
C18_17 C 0.72001(9) 0.55088(10) 0.02076(15)
H3_17 H 0.706889 0.528972 0.059299
C19_17 C 0.79076(9) 0.56403(9) 0.12608(15)
C22_17 C 0.88718(10) 0.64297(10) 0.10728(15)
H6_17 H 0.884450 0.625271 0.149364
C30_17 C 0.92675(9) 0.68063(10) 0.08224(15)
H14_17 H 0.957277 0.694574 0.103327
H15_17 H 0.992132 0.800181 0.074061
C33_17 C 0.77653(10) 0.54577(12) 0.25142(17)
H17_17 H 0.776466 0.556173 0.299142
C34_17 C 0.77679(10) 0.51649(10) 0.11521(18)
H18_17 H 0.776540 0.505022 0.068130
C35_17 C 0.79077(10) 0.57841(10) 0.19644(15)
H19_17 H 0.800498 0.610475 0.206611
C40_17 C 0.76342(12) 0.48654(12) 0.17336(19)
H24_17 H 0.754100 0.454374 0.165016
N2_18 N 0.80094(10) 0.13343(7) 0.00349(11)
C1_18 C 0.81854(13) 0.23122(9) 0.01279(14)
C4_18 C 0.78488(13) 0.15020(9) 0.05800(14)
N8_18 N 0.73735(13) 0.23720(9) 0.24097(16)
C9_18 C 0.79328(13) 0.19644(9) 0.06359(14)
C10_18 C 0.78178(13) 0.08603(9) 0.01734(14)
C18_18 C 0.83087(13) 0.27999(9) 0.02076(15)
H3_18 H 0.822083 0.293111 0.059299
C19_18 C 0.77327(13) 0.20924(9) 0.12608(15)
C22_18 C 0.75579(14) 0.11282(10) 0.10728(15)
H6_18 H 0.740821 0.115550 0.149364
C30_18 C 0.75388(13) 0.07325(9) 0.08224(15)
H14_18 H 0.737297 0.042723 0.103327
H15_18 H 0.808049 0.007868 0.074061
C33_18 C 0.76924(16) 0.22347(10) 0.25142(17)
H17_18 H 0.779707 0.223534 0.299142
C34_18 C 0.73970(14) 0.22321(10) 0.11521(18)
H18_18 H 0.728482 0.223460 0.068130
C35_18 C 0.78764(14) 0.20923(10) 0.19644(15)
H19_18 H 0.809977 0.199502 0.206611
C40_18 C 0.72312(17) 0.23658(12) 0.17336(19)
H24_18 H 0.700274 0.245900 0.165016
C17_18 C 0.69715(13) 0.92416(9) 0.98488(14)
H2_18 H 0.668582 0.902350 0.961556
C23_18 C 0.71969(13) 0.97087(9) 0.96339(15)
H7_18 H 0.706637 0.980658 0.926046
H11_18 H 0.801784 0.998132 0.875364
N7_16 N 0.56924(9) 0.16143(10) 0.90861(15)
C36_16 C 0.54434(10) 0.08607(10) 0.96259(15)
H20_16 H 0.536062 0.054007 0.956248
C37_16 C 0.55811(11) 0.11645(11) 0.90411(17)
H21_16 H 0.559684 0.104457 0.858251
C39_16 C 0.56687(12) 0.17727(12) 0.9735(2)
H23_16 H 0.574277 0.209218 0.977706
N7_17 N 0.83857(10) 0.40780(13) 0.90861(15)
C36_17 C 0.91393(10) 0.45826(14) 0.96259(15)
H20_17 H 0.945993 0.482054 0.956248
C37_17 C 0.88355(11) 0.44165(16) 0.90411(17)
H21_17 H 0.895543 0.455226 0.858251
C39_17 C 0.82273(12) 0.38959(17) 0.9735(2)
H23_17 H 0.790782 0.365058 0.977706
N7_18 N 0.59220(13) 0.43076(9) 0.90861(15)
C36_18 C 0.54174(14) 0.45566(10) 0.96259(15)
H20_18 H 0.517946 0.463938 0.956248
C37_18 C 0.55835(16) 0.44189(11) 0.90411(17)
H21_18 H 0.544774 0.440316 0.858251
C39_18 C 0.61041(17) 0.43313(12) 0.9735(2)
H23_18 H 0.634942 0.425723 0.977706
loop_
_geom_bond_atom_site_label_1
_geom_bond_atom_site_label_2
_geom_bond_site_symmetry_1
_geom_bond_site_symmetry_2
Co1 N1 1_555 1_555
N1 C5 1_555 1_555
N3 Co1 1_555 1_555
N4 Co1 1_555 1_555
N6 C21 1_555 1_555
C2 N4 1_555 1_555
C3 N3 1_555 1_555
C5 C8 1_555 1_555
C6 N1 1_555 1_555
N7 C37 1_555 1_555
C7 N4 1_555 1_555
C11 C2 1_555 1_555
C12 C8 1_555 1_555
C14 C3 1_555 1_555
C15 C11 1_555 1_555
C16 C14 1_555 1_555
C20 C6 1_555 1_555
H4 C20 1_555 1_555
C21 H5 1_555 1_555
C24 C7 1_555 1_555
H8 C24 1_555 1_555
C25 C2 1_555 1_555
H9 C25 1_555 1_555
C26 C16 1_555 1_555
H10 C26 1_555 1_555
C27 C5 1_555 1_555
C28 N6 1_555 1_555
H12 C28 1_555 1_555
C29 C3 1_555 1_555
H13 C29 1_555 1_555
C32 C16 1_555 1_555
H16 C32 1_555 1_555
C36 C15 1_555 1_555
H20 C36 1_555 1_555
C37 C36 1_555 1_555
H21 C37 1_555 1_555
C38 C15 1_555 1_555
H22 C38 1_555 1_555
C39 N7 1_555 1_555
H23 C39 1_555 1_555
Co3 N6 1_555 1_555
N9 Co1 1_555 1_555
N10 Co1 1_555 1_555
C6 C11 1_555 1_555
C7 C14 1_555 1_555
C20 C27 1_555 1_555
C21 C26 1_555 1_555
C24 C25 1_555 1_555
C28 C32 1_555 1_555
C38 C39 1_555 1_555
N5 C13 1_555 1_555
C13 H1 1_555 1_555
Co2 N5 1_555 1_555
C13 C31 1_555 1_555
Co1_2 N1_2 1_555 1_555
N1_2 C5_2 1_555 1_555
N3_2 Co1_2 1_555 1_555
N4_2 Co1_2 1_555 1_555
N6_2 C21_2 1_555 1_555
C2_2 N4_2 1_555 1_555
C3_2 N3_2 1_555 1_555
C5_2 C8_2 1_555 1_555
C6_2 N1_2 1_555 1_555
N7_2 C37_2 1_555 1_555
C7_2 N4_2 1_555 1_555
C11_2 C2_2 1_555 1_555
C12_2 C8_2 1_555 1_555
C14_2 C3_2 1_555 1_555
C15_2 C11_2 1_555 1_555
C16_2 C14_2 1_555 1_555
H2 C17 1_555 1_555
C20_2 C6_2 1_555 1_555
H4_2 C20_2 1_555 1_555
C21_2 H5_2 1_555 1_555
C23 C12_2 1_555 1_555
H7 C23 1_555 1_555
C24_2 C7_2 1_555 1_555
H8_2 C24_2 1_555 1_555
C25_2 C2_2 1_555 1_555
H9_2 C25_2 1_555 1_555
C26_2 C16_2 1_555 1_555
H10_2 C26_2 1_555 1_555
C27_2 C5_2 1_555 1_555
H11 C27_2 1_555 1_555
C28_2 N6_2 1_555 1_555
C29_2 C3_2 1_555 1_555
H13_2 C29_2 1_555 1_555
C32_2 C16_2 1_555 1_555
H16_2 C32_2 1_555 1_555
C36_2 C15_2 1_555 1_555
H20_2 C36_2 1_555 1_555
C37_2 C36_2 1_555 1_555
H21_2 C37_2 1_555 1_555
C38_2 C15_2 1_555 1_555
H22_2 C38_2 1_555 1_555
C39_2 N7_2 1_555 1_555
H23_2 C39_2 1_555 1_555
N9_2 Co1_2 1_555 1_555
N10_2 Co1_2 1_555 1_555
C6_2 C11_2 1_555 1_555
C7_2 C14_2 1_555 1_555
C17 C23 1_555 1_555
C20_2 C27_2 1_555 1_555
C21_2 C26_2 1_555 1_555
C24_2 C25_2 1_555 1_555
C28_2 C32_2 1_555 1_555
C38_2 C39_2 1_555 1_555
N5_2 C13_2 1_555 1_555
C4 N2 1_555 1_555
N8 C33 1_555 1_555
C9 C1 1_555 1_555
C10 N2 1_555 1_555
C13_2 H1_2 1_555 1_555
C18 C1 1_555 1_555
H3 C18 1_555 1_555
C19 C9 1_555 1_555
C22 C4 1_555 1_555
H6 C22 1_555 1_555
C30 C10 1_555 1_555
H14 C30 1_555 1_555
H15 C31_2 1_555 1_555
C33 H17 1_555 1_555
C34 C19 1_555 1_555
H18 C34 1_555 1_555
C35 C19 1_555 1_555
H19 C35 1_555 1_555
C40 N8 1_555 1_555
H24 C40 1_555 1_555
Co2_2 N5_2 1_555 1_555
C4 C9 1_555 1_555
C13_2 C31_2 1_555 1_555
C22 C30 1_555 1_555
C33 C35 1_555 1_555
C34 C40 1_555 1_555
N5_3 C13_3 1_555 1_555
C13_3 H1_3 1_555 1_555
Co2_3 N5_3 1_555 1_555
C13_3 C31_3 1_555 1_555
Co1_3 N1_3 1_555 1_555
N1_3 C5_3 1_555 1_555
N3_3 Co1_3 1_555 1_555
N4_3 Co1_3 1_555 1_555
N6_3 C21_3 1_555 1_555
C2_3 N4_3 1_555 1_555
C3_3 N3_3 1_555 1_555
C5_3 C8_3 1_555 1_555
C6_3 N1_3 1_555 1_555
N7_3 C37_3 1_555 1_555
C7_3 N4_3 1_555 1_555
C11_3 C2_3 1_555 1_555
C12_3 C8_3 1_555 1_555
C14_3 C3_3 1_555 1_555
C15_3 C11_3 1_555 1_555
C16_3 C14_3 1_555 1_555
C20_3 C6_3 1_555 1_555
H4_3 C20_3 1_555 1_555
C21_3 H5_3 1_555 1_555
C24_3 C7_3 1_555 1_555
H8_3 C24_3 1_555 1_555
C25_3 C2_3 1_555 1_555
H9_3 C25_3 1_555 1_555
C26_3 C16_3 1_555 1_555
H10_3 C26_3 1_555 1_555
C27_3 C5_3 1_555 1_555
C28_3 N6_3 1_555 1_555
C29_3 C3_3 1_555 1_555
H13_3 C29_3 1_555 1_555
C32_3 C16_3 1_555 1_555
H16_3 C32_3 1_555 1_555
C36_3 C15_3 1_555 1_555
H20_3 C36_3 1_555 1_555
C37_3 C36_3 1_555 1_555
H21_3 C37_3 1_555 1_555
C38_3 C15_3 1_555 1_555
H22_3 C38_3 1_555 1_555
C39_3 N7_3 1_555 1_555
H23_3 C39_3 1_555 1_555
N9_3 Co1_3 1_555 1_555
N10_3 Co1_3 1_555 1_555
C6_3 C11_3 1_555 1_555
C7_3 C14_3 1_555 1_555
C20_3 C27_3 1_555 1_555
C21_3 C26_3 1_555 1_555
C24_3 C25_3 1_555 1_555
C28_3 C32_3 1_555 1_555
C38_3 C39_3 1_555 1_555
N6_4 C21_4 1_555 1_555
C21_4 H5_4 1_555 1_555
C28_4 N6_4 1_555 1_555
H12_4 C28_4 1_555 1_555
H16_4 C32_4 1_555 1_555
Co3_4 N6_4 1_555 1_555
C21_4 C26_4 1_555 1_555
C28_4 C32_4 1_555 1_555
Co1_4 N1_4 1_555 1_555
N1_4 C5_4 1_555 1_555
N2_2 Co1_4 1_555 1_555
N3_4 Co1_4 1_555 1_555
N4_4 Co1_4 1_555 1_555
N5_4 C13_4 1_555 1_555
C1_2 N3_4 1_555 1_555
C2_4 N4_4 1_555 1_555
C3_4 N3_4 1_555 1_555
C4_2 N2_2 1_555 1_555
C5_4 C8_4 1_555 1_555
C6_4 N1_4 1_555 1_555
N7_4 C37_4 1_555 1_555
C7_4 N4_4 1_555 1_555
N8_2 C33_2 1_555 1_555
C8_4 C10_2 1_555 1_555
C9_2 C1_2 1_555 1_555
C10_2 N2_2 1_555 1_555
C11_4 C2_4 1_555 1_555
C12_4 C8_4 1_555 1_555
C13_4 H1_4 1_555 1_555
C14_4 C3_4 1_555 1_555
C15_4 C11_4 1_555 1_555
C16_4 C14_4 1_555 1_555
C17_2 N5_4 1_555 1_555
H2_2 C17_2 1_555 1_555
C18_2 C1_2 1_555 1_555
H3_2 C18_2 1_555 1_555
C19_2 C9_2 1_555 1_555
C20_4 C6_4 1_555 1_555
H4_4 C20_4 1_555 1_555
C22_2 C4_2 1_555 1_555
H6_2 C22_2 1_555 1_555
C23_2 C12_4 1_555 1_555
H7_2 C23_2 1_555 1_555
C24_4 C7_4 1_555 1_555
H8_4 C24_4 1_555 1_555
C25_4 C2_4 1_555 1_555
H9_4 C25_4 1_555 1_555
C27_4 C5_4 1_555 1_555
H11_2 C27_4 1_555 1_555
C29_4 C3_4 1_555 1_555
C30_2 C10_2 1_555 1_555
H14_2 C30_2 1_555 1_555
C31_4 C12_4 1_555 1_555
H15_2 C31_4 1_555 1_555
C33_2 H17_2 1_555 1_555
C34_2 C19_2 1_555 1_555
H18_2 C34_2 1_555 1_555
C35_2 C19_2 1_555 1_555
H19_2 C35_2 1_555 1_555
C36_4 C15_4 1_555 1_555
H20_4 C36_4 1_555 1_555
C37_4 C36_4 1_555 1_555
H21_4 C37_4 1_555 1_555
C38_4 C15_4 1_555 1_555
H22_4 C38_4 1_555 1_555
C39_4 N7_4 1_555 1_555
H23_4 C39_4 1_555 1_555
C40_2 N8_2 1_555 1_555
H24_2 C40_2 1_555 1_555
Co3 N5_4 1_555 1_555
N9_4 Co1_4 1_555 1_555
N10_4 Co1_4 1_555 1_555
C4_2 C9_2 1_555 1_555
C6_4 C11_4 1_555 1_555
C7_4 C14_4 1_555 1_555
C13_4 C31_4 1_555 1_555
C17_2 C23_2 1_555 1_555
C18_2 C29_4 1_555 1_555
C20_4 C27_4 1_555 1_555
C22_2 C30_2 1_555 1_555
C24_4 C25_4 1_555 1_555
C33_2 C35_2 1_555 1_555
C34_2 C40_2 1_555 1_555
C38_4 C39_4 1_555 1_555
Co1_5 N1_5 1_555 1_555
N1_5 C5_5 1_555 1_555
N2_3 Co1_5 1_555 1_555
N3_5 Co1_5 1_555 1_555
N4_5 Co1_5 1_555 1_555
N5_5 C13_5 1_555 1_555
N6_5 C21_5 1_555 1_555
C1_3 N3_5 1_555 1_555
C2_5 N4_5 1_555 1_555
C3_5 N3_5 1_555 1_555
C4_3 N2_3 1_555 1_555
C5_5 C8_5 1_555 1_555
C6_5 N1_5 1_555 1_555
N7_5 C37_5 1_555 1_555
C7_5 N4_5 1_555 1_555
N8_3 C33_3 1_555 1_555
C8_5 C10_3 1_555 1_555
C9_3 C1_3 1_555 1_555
C10_3 N2_3 1_555 1_555
C11_5 C2_5 1_555 1_555
C12_5 C8_5 1_555 1_555
C13_5 H1_5 1_555 1_555
C14_5 C3_5 1_555 1_555
C15_5 C11_5 1_555 1_555
C16_5 C14_5 1_555 1_555
C17_3 N5_5 1_555 1_555
H2_3 C17_3 1_555 1_555
C18_3 C1_3 1_555 1_555
H3_3 C18_3 1_555 1_555
C19_3 C9_3 1_555 1_555
C20_5 C6_5 1_555 1_555
H4_5 C20_5 1_555 1_555
C21_5 H5_5 1_555 1_555
C22_3 C4_3 1_555 1_555
H6_3 C22_3 1_555 1_555
C23_3 C12_5 1_555 1_555
H7_3 C23_3 1_555 1_555
C24_5 C7_5 1_555 1_555
H8_5 C24_5 1_555 1_555
C25_5 C2_5 1_555 1_555
H9_5 C25_5 1_555 1_555
C26_5 C16_5 1_555 1_555
H10_5 C26_5 1_555 1_555
C27_5 C5_5 1_555 1_555
H11_3 C27_5 1_555 1_555
C28_5 N6_5 1_555 1_555
H12_5 C28_5 1_555 1_555
C29_5 C3_5 1_555 1_555
H13_5 C29_5 1_555 1_555
C30_3 C10_3 1_555 1_555
H14_3 C30_3 1_555 1_555
C31_5 C12_5 1_555 1_555
H15_3 C31_5 1_555 1_555
C32_5 C16_5 1_555 1_555
H16_5 C32_5 1_555 1_555
C33_3 H17_3 1_555 1_555
C34_3 C19_3 1_555 1_555
H18_3 C34_3 1_555 1_555
C35_3 C19_3 1_555 1_555
H19_3 C35_3 1_555 1_555
C36_5 C15_5 1_555 1_555
H20_5 C36_5 1_555 1_555
C37_5 C36_5 1_555 1_555
H21_5 C37_5 1_555 1_555
C38_5 C15_5 1_555 1_555
H22_5 C38_5 1_555 1_555
C39_5 N7_5 1_555 1_555
H23_5 C39_5 1_555 1_555
C40_3 N8_3 1_555 1_555
H24_3 C40_3 1_555 1_555
Co3_2 N5_5 1_555 1_555
Co3_5 N6_5 1_555 1_555
N9_5 Co1_5 1_555 1_555
N10_5 Co1_5 1_555 1_555
C4_3 C9_3 1_555 1_555
C6_5 C11_5 1_555 1_555
C7_5 C14_5 1_555 1_555
C13_5 C31_5 1_555 1_555
C17_3 C23_3 1_555 1_555
C18_3 C29_5 1_555 1_555
C20_5 C27_5 1_555 1_555
C21_5 C26_5 1_555 1_555
C22_3 C30_3 1_555 1_555
C24_5 C25_5 1_555 1_555
C28_5 C32_5 1_555 1_555
C33_3 C35_3 1_555 1_555
C34_3 C40_3 1_555 1_555
C38_5 C39_5 1_555 1_555
Co1_6 N1_6 1_555 1_555
N1_6 C5_6 1_555 1_555
N2_4 Co1_6 1_555 1_555
N3_6 Co1_6 1_555 1_555
N4_6 Co1_6 1_555 1_555
N5_6 C13_6 1_555 1_555
C1_4 N3_6 1_555 1_555
C2_6 N4_6 1_555 1_555
C3_6 N3_6 1_555 1_555
C4_4 N2_4 1_555 1_555
C5_6 C8_6 1_555 1_555
C6_6 N1_6 1_555 1_555
N7_6 C37_6 1_555 1_555
C7_6 N4_6 1_555 1_555
N8_4 C33_4 1_555 1_555
C8_6 C10_4 1_555 1_555
C9_4 C1_4 1_555 1_555
C10_4 N2_4 1_555 1_555
C11_6 C2_6 1_555 1_555
C12_6 C8_6 1_555 1_555
C13_6 H1_6 1_555 1_555
C14_6 C3_6 1_555 1_555
C15_6 C11_6 1_555 1_555
C16_6 C14_6 1_555 1_555
C17_4 N5_6 1_555 1_555
H2_4 C17_4 1_555 1_555
C18_4 C1_4 1_555 1_555
H3_4 C18_4 1_555 1_555
C19_4 C9_4 1_555 1_555
C20_6 C6_6 1_555 1_555
H4_6 C20_6 1_555 1_555
C22_4 C4_4 1_555 1_555
H6_4 C22_4 1_555 1_555
C23_4 C12_6 1_555 1_555
H7_4 C23_4 1_555 1_555
C24_6 C7_6 1_555 1_555
H8_6 C24_6 1_555 1_555
C25_6 C2_6 1_555 1_555
H9_6 C25_6 1_555 1_555
C27_6 C5_6 1_555 1_555
H11_4 C27_6 1_555 1_555
C29_6 C3_6 1_555 1_555
C30_4 C10_4 1_555 1_555
H14_4 C30_4 1_555 1_555
C31_6 C12_6 1_555 1_555
H15_4 C31_6 1_555 1_555
C33_4 H17_4 1_555 1_555
C34_4 C19_4 1_555 1_555
H18_4 C34_4 1_555 1_555
C35_4 C19_4 1_555 1_555
H19_4 C35_4 1_555 1_555
C36_6 C15_6 1_555 1_555
H20_6 C36_6 1_555 1_555
C37_6 C36_6 1_555 1_555
H21_6 C37_6 1_555 1_555
C38_6 C15_6 1_555 1_555
H22_6 C38_6 1_555 1_555
C39_6 N7_6 1_555 1_555
H23_6 C39_6 1_555 1_555
C40_4 N8_4 1_555 1_555
H24_4 C40_4 1_555 1_555
Co3_3 N5_6 1_555 1_555
N9_6 Co1_6 1_555 1_555
N10_6 Co1_6 1_555 1_555
C4_4 C9_4 1_555 1_555
C6_6 C11_6 1_555 1_555
C7_6 C14_6 1_555 1_555
C13_6 C31_6 1_555 1_555
C17_4 C23_4 1_555 1_555
C18_4 C29_6 1_555 1_555
C20_6 C27_6 1_555 1_555
C22_4 C30_4 1_555 1_555
C24_6 C25_6 1_555 1_555
C33_4 C35_4 1_555 1_555
C34_4 C40_4 1_555 1_555
C38_6 C39_6 1_555 1_555
N6_6 C21_6 1_555 1_555
C21_6 H5_6 1_555 1_555
C28_6 N6_6 1_555 1_555
H12_6 C28_6 1_555 1_555
H16_6 C32_6 1_555 1_555
Co3_6 N6_6 1_555 1_555
C21_6 C26_6 1_555 1_555
C28_6 C32_6 1_555 1_555
N6_7 C21_7 1_555 1_555
C1_5 N3_7 1_555 1_555
C3_7 N3_7 1_555 1_555
N8_5 C33_5 1_555 1_555
C9_5 C1_5 1_555 1_555
C14_7 C3_7 1_555 1_555
C16_7 C14_7 1_555 1_555
C18_5 C1_5 1_555 1_555
H3_5 C18_5 1_555 1_555
C19_5 C9_5 1_555 1_555
C21_7 H5_7 1_555 1_555
C22_5 C4_5 1_555 1_555
H6_5 C22_5 1_555 1_555
C24_7 C7_7 1_555 1_555
H8_7 C24_7 1_555 1_555
C26_7 C16_7 1_555 1_555
H10_7 C26_7 1_555 1_555
C28_7 N6_7 1_555 1_555
H12_7 C28_7 1_555 1_555
C29_7 C3_7 1_555 1_555
H13_7 C29_7 1_555 1_555
C32_7 C16_7 1_555 1_555
H16_7 C32_7 1_555 1_555
C33_5 H17_5 1_555 1_555
C34_5 C19_5 1_555 1_555
H18_5 C34_5 1_555 1_555
C35_5 C19_5 1_555 1_555
H19_5 C35_5 1_555 1_555
C40_5 N8_5 1_555 1_555
H24_5 C40_5 1_555 1_555
Co2 N6_7 1_555 1_555
C4_5 C9_5 1_555 1_555
C7_7 C14_7 1_555 1_555
C18_5 C29_7 1_555 1_555
C21_7 C26_7 1_555 1_555
C28_7 C32_7 1_555 1_555
C33_5 C35_5 1_555 1_555
C34_5 C40_5 1_555 1_555
Co1_7 N1_7 1_555 1_555
N1_7 C5_7 1_555 1_555
N2_5 Co1_7 1_555 1_555
N4_7 Co1_7 1_555 1_555
N5_7 C13_7 1_555 1_555
C2_7 N4_7 1_555 1_555
C5_7 C8_7 1_555 1_555
C6_7 N1_7 1_555 1_555
C8_7 C10_5 1_555 1_555
C10_5 N2_5 1_555 1_555
C11_7 C2_7 1_555 1_555
C12_7 C8_7 1_555 1_555
C13_7 H1_7 1_555 1_555
C15_7 C11_7 1_555 1_555
C17_5 N5_7 1_555 1_555
H2_5 C17_5 1_555 1_555
C20_7 C6_7 1_555 1_555
H4_7 C20_7 1_555 1_555
C23_5 C12_7 1_555 1_555
H7_5 C23_5 1_555 1_555
C25_7 C2_7 1_555 1_555
H9_7 C25_7 1_555 1_555
C27_7 C5_7 1_555 1_555
H11_5 C27_7 1_555 1_555
C30_5 C10_5 1_555 1_555
H14_5 C30_5 1_555 1_555
C31_7 C12_7 1_555 1_555
H15_5 C31_7 1_555 1_555
C38_7 C15_7 1_555 1_555
H22_7 C38_7 1_555 1_555
Co3_4 N5_7 1_555 1_555
N9_7 Co1_7 1_555 1_555
C6_7 C11_7 1_555 1_555
C13_7 C31_7 1_555 1_555
C17_5 C23_5 1_555 1_555
C20_7 C27_7 1_555 1_555
Co1_8 N1_8 1_555 1_555
N1_8 C5_8 1_555 1_555
N2_6 Co1_8 1_555 1_555
N4_8 Co1_8 1_555 1_555
N5_8 C13_8 1_555 1_555
C2_8 N4_8 1_555 1_555
C5_8 C8_8 1_555 1_555
C6_8 N1_8 1_555 1_555
C8_8 C10_6 1_555 1_555
C10_6 N2_6 1_555 1_555
C11_8 C2_8 1_555 1_555
C12_8 C8_8 1_555 1_555
C13_8 H1_8 1_555 1_555
C15_8 C11_8 1_555 1_555
C17_6 N5_8 1_555 1_555
H2_6 C17_6 1_555 1_555
C20_8 C6_8 1_555 1_555
H4_8 C20_8 1_555 1_555
C23_6 C12_8 1_555 1_555
H7_6 C23_6 1_555 1_555
C25_8 C2_8 1_555 1_555
H9_8 C25_8 1_555 1_555
C27_8 C5_8 1_555 1_555
H11_6 C27_8 1_555 1_555
C30_6 C10_6 1_555 1_555
H14_6 C30_6 1_555 1_555
C31_8 C12_8 1_555 1_555
H15_6 C31_8 1_555 1_555
C38_8 C15_8 1_555 1_555
H22_8 C38_8 1_555 1_555
Co3_5 N5_8 1_555 1_555
N9_8 Co1_8 1_555 1_555
C6_8 C11_8 1_555 1_555
C13_8 C31_8 1_555 1_555
C17_6 C23_6 1_555 1_555
C20_8 C27_8 1_555 1_555
N6_8 C21_8 1_555 1_555
C1_6 N3_8 1_555 1_555
C3_8 N3_8 1_555 1_555
N8_6 C33_6 1_555 1_555
C9_6 C1_6 1_555 1_555
C14_8 C3_8 1_555 1_555
C16_8 C14_8 1_555 1_555
C18_6 C1_6 1_555 1_555
H3_6 C18_6 1_555 1_555
C19_6 C9_6 1_555 1_555
C21_8 H5_8 1_555 1_555
C22_6 C4_6 1_555 1_555
H6_6 C22_6 1_555 1_555
C24_8 C7_8 1_555 1_555
H8_8 C24_8 1_555 1_555
C26_8 C16_8 1_555 1_555
H10_8 C26_8 1_555 1_555
C28_8 N6_8 1_555 1_555
H12_8 C28_8 1_555 1_555
C29_8 C3_8 1_555 1_555
H13_8 C29_8 1_555 1_555
C32_8 C16_8 1_555 1_555
H16_8 C32_8 1_555 1_555
C33_6 H17_6 1_555 1_555
C34_6 C19_6 1_555 1_555
H18_6 C34_6 1_555 1_555
C35_6 C19_6 1_555 1_555
H19_6 C35_6 1_555 1_555
C40_6 N8_6 1_555 1_555
H24_6 C40_6 1_555 1_555
Co2_2 N6_8 1_555 1_555
C4_6 C9_6 1_555 1_555
C7_8 C14_8 1_555 1_555
C18_6 C29_8 1_555 1_555
C21_8 C26_8 1_555 1_555
C28_8 C32_8 1_555 1_555
C33_6 C35_6 1_555 1_555
C34_6 C40_6 1_555 1_555
Co1_9 N1_9 1_555 1_555
N1_9 C5_9 1_555 1_555
N2_7 Co1_9 1_555 1_555
N3_9 Co1_9 1_555 1_555
N4_9 Co1_9 1_555 1_555
N5_9 C13_9 1_555 1_555
N6_9 C21_9 1_555 1_555
C1_7 N3_9 1_555 1_555
C2_9 N4_9 1_555 1_555
C3_9 N3_9 1_555 1_555
C4_7 N2_7 1_555 1_555
C5_9 C8_9 1_555 1_555
C6_9 N1_9 1_555 1_555
C7_9 N4_9 1_555 1_555
N8_7 C33_7 1_555 1_555
C8_9 C10_7 1_555 1_555
C9_7 C1_7 1_555 1_555
C10_7 N2_7 1_555 1_555
C11_9 C2_9 1_555 1_555
C12_9 C8_9 1_555 1_555
C13_9 H1_9 1_555 1_555
C14_9 C3_9 1_555 1_555
C15_9 C11_9 1_555 1_555
C16_9 C14_9 1_555 1_555
C17_7 N5_9 1_555 1_555
H2_7 C17_7 1_555 1_555
C18_7 C1_7 1_555 1_555
H3_7 C18_7 1_555 1_555
C19_7 C9_7 1_555 1_555
C20_9 C6_9 1_555 1_555
H4_9 C20_9 1_555 1_555
C21_9 H5_9 1_555 1_555
C22_7 C4_7 1_555 1_555
H6_7 C22_7 1_555 1_555
C23_7 C12_9 1_555 1_555
H7_7 C23_7 1_555 1_555
C24_9 C7_9 1_555 1_555
H8_9 C24_9 1_555 1_555
C25_9 C2_9 1_555 1_555
H9_9 C25_9 1_555 1_555
C26_9 C16_9 1_555 1_555
H10_9 C26_9 1_555 1_555
C27_9 C5_9 1_555 1_555
H11_7 C27_9 1_555 1_555
C28_9 N6_9 1_555 1_555
H12_9 C28_9 1_555 1_555
C29_9 C3_9 1_555 1_555
H13_9 C29_9 1_555 1_555
C30_7 C10_7 1_555 1_555
H14_7 C30_7 1_555 1_555
C31_9 C12_9 1_555 1_555
H15_7 C31_9 1_555 1_555
C32_9 C16_9 1_555 1_555
H16_9 C32_9 1_555 1_555
C33_7 H17_7 1_555 1_555
C34_7 C19_7 1_555 1_555
H18_7 C34_7 1_555 1_555
C35_7 C19_7 1_555 1_555
H19_7 C35_7 1_555 1_555
C38_9 C15_9 1_555 1_555
H22_9 C38_9 1_555 1_555
C40_7 N8_7 1_555 1_555
H24_7 C40_7 1_555 1_555
Co3_6 N5_9 1_555 1_555
Co2_3 N6_9 1_555 1_555
N9_9 Co1_9 1_555 1_555
N10_9 Co1_9 1_555 1_555
C4_7 C9_7 1_555 1_555
C6_9 C11_9 1_555 1_555
C7_9 C14_9 1_555 1_555
C13_9 C31_9 1_555 1_555
C17_7 C23_7 1_555 1_555
C18_7 C29_9 1_555 1_555
C20_9 C27_9 1_555 1_555
C21_9 C26_9 1_555 1_555
C22_7 C30_7 1_555 1_555
C24_9 C25_9 1_555 1_555
C28_9 C32_9 1_555 1_555
C33_7 C35_7 1_555 1_555
C34_7 C40_7 1_555 1_555
N9_3 C13_10 1_555 1_555
C13_10 H1_10 1_555 1_555
C13_10 C31_10 1_555 1_555
Co2_2 N1_10 1_555 1_555
N1_10 C5_10 1_555 1_555
N3_10 Co2_2 1_555 1_555
N4_10 Co2_2 1_555 1_555
N10_9 C21_10 1_555 1_555
C2_10 N4_10 1_555 1_555
C3_10 N3_10 1_555 1_555
C5_10 C8_10 1_555 1_555
C6_10 N1_10 1_555 1_555
N7_7 C37_7 1_555 1_555
C7_10 N4_10 1_555 1_555
C11_10 C2_10 1_555 1_555
C12_10 C8_10 1_555 1_555
C14_10 C3_10 1_555 1_555
C15_10 C11_10 1_555 1_555
C16_10 C14_10 1_555 1_555
C20_10 C6_10 1_555 1_555
H4_10 C20_10 1_555 1_555
C21_10 H5_10 1_555 1_555
C24_10 C7_10 1_555 1_555
H8_10 C24_10 1_555 1_555
C25_10 C2_10 1_555 1_555
H9_10 C25_10 1_555 1_555
C26_10 C16_10 1_555 1_555
H10_10 C26_10 1_555 1_555
C27_10 C5_10 1_555 1_555
C28_10 N10_9 1_555 1_555
H12_10 C28_10 1_555 1_555
C29_10 C3_10 1_555 1_555
H13_10 C29_10 1_555 1_555
C32_10 C16_10 1_555 1_555
H16_10 C32_10 1_555 1_555
C36_7 C15_10 1_555 1_555
H20_7 C36_7 1_555 1_555
C37_7 C36_7 1_555 1_555
H21_7 C37_7 1_555 1_555
C38_10 C15_10 1_555 1_555
H22_10 C38_10 1_555 1_555
C39_7 N7_7 1_555 1_555
H23_7 C39_7 1_555 1_555
C6_10 C11_10 1_555 1_555
C7_10 C14_10 1_555 1_555
C20_10 C27_10 1_555 1_555
C21_10 C26_10 1_555 1_555
C24_10 C25_10 1_555 1_555
C28_10 C32_10 1_555 1_555
C38_10 C39_7 1_555 1_555
N9 C13_11 1_555 1_555
C4_8 N2_8 1_555 1_555
N8_8 C33_8 1_555 1_555
C9_8 C1_8 1_555 1_555
C10_8 N2_8 1_555 1_555
C13_11 H1_11 1_555 1_555
C18_8 C1_8 1_555 1_555
H3_8 C18_8 1_555 1_555
C19_8 C9_8 1_555 1_555
C22_8 C4_8 1_555 1_555
H6_8 C22_8 1_555 1_555
C30_8 C10_8 1_555 1_555
H14_8 C30_8 1_555 1_555
H15_8 C31_11 1_555 1_555
C33_8 H17_8 1_555 1_555
C34_8 C19_8 1_555 1_555
H18_8 C34_8 1_555 1_555
C35_8 C19_8 1_555 1_555
H19_8 C35_8 1_555 1_555
C40_8 N8_8 1_555 1_555
H24_8 C40_8 1_555 1_555
C4_8 C9_8 1_555 1_555
C13_11 C31_11 1_555 1_555
C22_8 C30_8 1_555 1_555
C33_8 C35_8 1_555 1_555
C34_8 C40_8 1_555 1_555
Co2_3 N1_11 1_555 1_555
N1_11 C5_11 1_555 1_555
N3_11 Co2_3 1_555 1_555
N4_11 Co2_3 1_555 1_555
N10_7 C21_11 1_555 1_555
C2_11 N4_11 1_555 1_555
C3_11 N3_11 1_555 1_555
C5_11 C8_11 1_555 1_555
C6_11 N1_11 1_555 1_555
N7_8 C37_8 1_555 1_555
C7_11 N4_11 1_555 1_555
C11_11 C2_11 1_555 1_555
C12_11 C8_11 1_555 1_555
C14_11 C3_11 1_555 1_555
C15_11 C11_11 1_555 1_555
C16_11 C14_11 1_555 1_555
H2_8 C17_8 1_555 1_555
C20_11 C6_11 1_555 1_555
H4_11 C20_11 1_555 1_555
C21_11 H5_11 1_555 1_555
C23_8 C12_11 1_555 1_555
H7_8 C23_8 1_555 1_555
C24_11 C7_11 1_555 1_555
H8_11 C24_11 1_555 1_555
C25_11 C2_11 1_555 1_555
H9_11 C25_11 1_555 1_555
C26_11 C16_11 1_555 1_555
H10_11 C26_11 1_555 1_555
C27_11 C5_11 1_555 1_555
H11_8 C27_11 1_555 1_555
C28_11 N10_7 1_555 1_555
C29_11 C3_11 1_555 1_555
H13_11 C29_11 1_555 1_555
C32_11 C16_11 1_555 1_555
H16_11 C32_11 1_555 1_555
C36_8 C15_11 1_555 1_555
H20_8 C36_8 1_555 1_555
C37_8 C36_8 1_555 1_555
H21_8 C37_8 1_555 1_555
C38_11 C15_11 1_555 1_555
H22_11 C38_11 1_555 1_555
C39_8 N7_8 1_555 1_555
H23_8 C39_8 1_555 1_555
C6_11 C11_11 1_555 1_555
C7_11 C14_11 1_555 1_555
C17_8 C23_8 1_555 1_555
C20_11 C27_11 1_555 1_555
C21_11 C26_11 1_555 1_555
C24_11 C25_11 1_555 1_555
C28_11 C32_11 1_555 1_555
C38_11 C39_8 1_555 1_555
Co2 N1_12 1_555 1_555
N1_12 C5_12 1_555 1_555
N3_12 Co2 1_555 1_555
N4_12 Co2 1_555 1_555
N10_8 C21_12 1_555 1_555
C2_12 N4_12 1_555 1_555
C3_12 N3_12 1_555 1_555
C5_12 C8_12 1_555 1_555
C6_12 N1_12 1_555 1_555
N7_9 C37_9 1_555 1_555
C7_12 N4_12 1_555 1_555
C11_12 C2_12 1_555 1_555
C12_12 C8_12 1_555 1_555
C14_12 C3_12 1_555 1_555
C15_12 C11_12 1_555 1_555
C16_12 C14_12 1_555 1_555
C20_12 C6_12 1_555 1_555
H4_12 C20_12 1_555 1_555
C21_12 H5_12 1_555 1_555
C24_12 C7_12 1_555 1_555
H8_12 C24_12 1_555 1_555
C25_12 C2_12 1_555 1_555
H9_12 C25_12 1_555 1_555
C26_12 C16_12 1_555 1_555
H10_12 C26_12 1_555 1_555
C27_12 C5_12 1_555 1_555
C28_12 N10_8 1_555 1_555
C29_12 C3_12 1_555 1_555
H13_12 C29_12 1_555 1_555
C32_12 C16_12 1_555 1_555
H16_12 C32_12 1_555 1_555
C36_9 C15_12 1_555 1_555
H20_9 C36_9 1_555 1_555
C37_9 C36_9 1_555 1_555
H21_9 C37_9 1_555 1_555
C38_12 C15_12 1_555 1_555
H22_12 C38_12 1_555 1_555
C39_9 N7_9 1_555 1_555
H23_9 C39_9 1_555 1_555
C6_12 C11_12 1_555 1_555
C7_12 C14_12 1_555 1_555
C20_12 C27_12 1_555 1_555
C21_12 C26_12 1_555 1_555
C24_12 C25_12 1_555 1_555
C28_12 C32_12 1_555 1_555
C38_12 C39_9 1_555 1_555
N9_2 C13_12 1_555 1_555
C13_12 H1_12 1_555 1_555
C13_12 C31_12 1_555 1_555
Co3_5 N1_13 1_555 1_555
N1_13 C5_13 1_555 1_555
N2_9 Co3_5 1_555 1_555
N3_13 Co3_5 1_555 1_555
N4_13 Co3_5 1_555 1_555
N9_9 C13_13 1_555 1_555
C1_9 N3_13 1_555 1_555
C2_13 N4_13 1_555 1_555
C3_13 N3_13 1_555 1_555
C4_9 N2_9 1_555 1_555
C5_13 C8_13 1_555 1_555
C6_13 N1_13 1_555 1_555
N7_10 C37_10 1_555 1_555
C7_13 N4_13 1_555 1_555
N8_9 C33_9 1_555 1_555
C8_13 C10_9 1_555 1_555
C9_9 C1_9 1_555 1_555
C10_9 N2_9 1_555 1_555
C11_13 C2_13 1_555 1_555
C12_13 C8_13 1_555 1_555
C13_13 H1_13 1_555 1_555
C14_13 C3_13 1_555 1_555
C15_13 C11_13 1_555 1_555
C16_13 C14_13 1_555 1_555
C17_9 N9_9 1_555 1_555
H2_9 C17_9 1_555 1_555
C18_9 C1_9 1_555 1_555
H3_9 C18_9 1_555 1_555
C19_9 C9_9 1_555 1_555
C20_13 C6_13 1_555 1_555
H4_13 C20_13 1_555 1_555
C22_9 C4_9 1_555 1_555
H6_9 C22_9 1_555 1_555
C23_9 C12_13 1_555 1_555
H7_9 C23_9 1_555 1_555
C24_13 C7_13 1_555 1_555
H8_13 C24_13 1_555 1_555
C25_13 C2_13 1_555 1_555
H9_13 C25_13 1_555 1_555
C27_13 C5_13 1_555 1_555
H11_9 C27_13 1_555 1_555
C29_13 C3_13 1_555 1_555
C30_9 C10_9 1_555 1_555
H14_9 C30_9 1_555 1_555
C31_13 C12_13 1_555 1_555
H15_9 C31_13 1_555 1_555
C33_9 H17_9 1_555 1_555
C34_9 C19_9 1_555 1_555
H18_9 C34_9 1_555 1_555
C35_9 C19_9 1_555 1_555
H19_9 C35_9 1_555 1_555
C36_10 C15_13 1_555 1_555
H20_10 C36_10 1_555 1_555
C37_10 C36_10 1_555 1_555
H21_10 C37_10 1_555 1_555
C38_13 C15_13 1_555 1_555
H22_13 C38_13 1_555 1_555
C39_10 N7_10 1_555 1_555
H23_10 C39_10 1_555 1_555
C40_9 N8_9 1_555 1_555
H24_9 C40_9 1_555 1_555
C4_9 C9_9 1_555 1_555
C6_13 C11_13 1_555 1_555
C7_13 C14_13 1_555 1_555
C13_13 C31_13 1_555 1_555
C17_9 C23_9 1_555 1_555
C18_9 C29_13 1_555 1_555
C20_13 C27_13 1_555 1_555
C22_9 C30_9 1_555 1_555
C24_13 C25_13 1_555 1_555
C33_9 C35_9 1_555 1_555
C34_9 C40_9 1_555 1_555
C38_13 C39_10 1_555 1_555
N10_6 C21_13 1_555 1_555
C21_13 H5_13 1_555 1_555
C28_13 N10_6 1_555 1_555
H12_13 C28_13 1_555 1_555
H16_13 C32_13 1_555 1_555
C21_13 C26_13 1_555 1_555
C28_13 C32_13 1_555 1_555
Co3_6 N1_14 1_555 1_555
N1_14 C5_14 1_555 1_555
N2_10 Co3_6 1_555 1_555
N3_14 Co3_6 1_555 1_555
N4_14 Co3_6 1_555 1_555
N9_7 C13_14 1_555 1_555
N10_4 C21_14 1_555 1_555
C1_10 N3_14 1_555 1_555
C2_14 N4_14 1_555 1_555
C3_14 N3_14 1_555 1_555
C4_10 N2_10 1_555 1_555
C5_14 C8_14 1_555 1_555
C6_14 N1_14 1_555 1_555
N7_11 C37_11 1_555 1_555
C7_14 N4_14 1_555 1_555
N8_10 C33_10 1_555 1_555
C8_14 C10_10 1_555 1_555
C9_10 C1_10 1_555 1_555
C10_10 N2_10 1_555 1_555
C11_14 C2_14 1_555 1_555
C12_14 C8_14 1_555 1_555
C13_14 H1_14 1_555 1_555
C14_14 C3_14 1_555 1_555
C15_14 C11_14 1_555 1_555
C16_14 C14_14 1_555 1_555
C17_10 N9_7 1_555 1_555
H2_10 C17_10 1_555 1_555
C18_10 C1_10 1_555 1_555
H3_10 C18_10 1_555 1_555
C19_10 C9_10 1_555 1_555
C20_14 C6_14 1_555 1_555
H4_14 C20_14 1_555 1_555
C21_14 H5_14 1_555 1_555
C22_10 C4_10 1_555 1_555
H6_10 C22_10 1_555 1_555
C23_10 C12_14 1_555 1_555
H7_10 C23_10 1_555 1_555
C24_14 C7_14 1_555 1_555
H8_14 C24_14 1_555 1_555
C25_14 C2_14 1_555 1_555
H9_14 C25_14 1_555 1_555
C26_14 C16_14 1_555 1_555
H10_14 C26_14 1_555 1_555
C27_14 C5_14 1_555 1_555
H11_10 C27_14 1_555 1_555
C28_14 N10_4 1_555 1_555
H12_14 C28_14 1_555 1_555
C29_14 C3_14 1_555 1_555
H13_14 C29_14 1_555 1_555
C30_10 C10_10 1_555 1_555
H14_10 C30_10 1_555 1_555
C31_14 C12_14 1_555 1_555
H15_10 C31_14 1_555 1_555
C32_14 C16_14 1_555 1_555
H16_14 C32_14 1_555 1_555
C33_10 H17_10 1_555 1_555
C34_10 C19_10 1_555 1_555
H18_10 C34_10 1_555 1_555
C35_10 C19_10 1_555 1_555
H19_10 C35_10 1_555 1_555
C36_11 C15_14 1_555 1_555
H20_11 C36_11 1_555 1_555
C37_11 C36_11 1_555 1_555
H21_11 C37_11 1_555 1_555
C38_14 C15_14 1_555 1_555
H22_14 C38_14 1_555 1_555
C39_11 N7_11 1_555 1_555
H23_11 C39_11 1_555 1_555
C40_10 N8_10 1_555 1_555
H24_10 C40_10 1_555 1_555
C4_10 C9_10 1_555 1_555
C6_14 C11_14 1_555 1_555
C7_14 C14_14 1_555 1_555
C13_14 C31_14 1_555 1_555
C17_10 C23_10 1_555 1_555
C18_10 C29_14 1_555 1_555
C20_14 C27_14 1_555 1_555
C21_14 C26_14 1_555 1_555
C22_10 C30_10 1_555 1_555
C24_14 C25_14 1_555 1_555
C28_14 C32_14 1_555 1_555
C33_10 C35_10 1_555 1_555
C34_10 C40_10 1_555 1_555
C38_14 C39_11 1_555 1_555
N10_5 C21_15 1_555 1_555
C21_15 H5_15 1_555 1_555
C28_15 N10_5 1_555 1_555
H12_15 C28_15 1_555 1_555
H16_15 C32_15 1_555 1_555
C21_15 C26_15 1_555 1_555
C28_15 C32_15 1_555 1_555
Co3_4 N1_15 1_555 1_555
N1_15 C5_15 1_555 1_555
N2_11 Co3_4 1_555 1_555
N3_15 Co3_4 1_555 1_555
N4_15 Co3_4 1_555 1_555
N9_8 C13_15 1_555 1_555
C1_11 N3_15 1_555 1_555
C2_15 N4_15 1_555 1_555
C3_15 N3_15 1_555 1_555
C4_11 N2_11 1_555 1_555
C5_15 C8_15 1_555 1_555
C6_15 N1_15 1_555 1_555
N7_12 C37_12 1_555 1_555
C7_15 N4_15 1_555 1_555
N8_11 C33_11 1_555 1_555
C8_15 C10_11 1_555 1_555
C9_11 C1_11 1_555 1_555
C10_11 N2_11 1_555 1_555
C11_15 C2_15 1_555 1_555
C12_15 C8_15 1_555 1_555
C13_15 H1_15 1_555 1_555
C14_15 C3_15 1_555 1_555
C15_15 C11_15 1_555 1_555
C16_15 C14_15 1_555 1_555
C17_11 N9_8 1_555 1_555
H2_11 C17_11 1_555 1_555
C18_11 C1_11 1_555 1_555
H3_11 C18_11 1_555 1_555
C19_11 C9_11 1_555 1_555
C20_15 C6_15 1_555 1_555
H4_15 C20_15 1_555 1_555
C22_11 C4_11 1_555 1_555
H6_11 C22_11 1_555 1_555
C23_11 C12_15 1_555 1_555
H7_11 C23_11 1_555 1_555
C24_15 C7_15 1_555 1_555
H8_15 C24_15 1_555 1_555
C25_15 C2_15 1_555 1_555
H9_15 C25_15 1_555 1_555
C27_15 C5_15 1_555 1_555
H11_11 C27_15 1_555 1_555
C29_15 C3_15 1_555 1_555
C30_11 C10_11 1_555 1_555
H14_11 C30_11 1_555 1_555
C31_15 C12_15 1_555 1_555
H15_11 C31_15 1_555 1_555
C33_11 H17_11 1_555 1_555
C34_11 C19_11 1_555 1_555
H18_11 C34_11 1_555 1_555
C35_11 C19_11 1_555 1_555
H19_11 C35_11 1_555 1_555
C36_12 C15_15 1_555 1_555
H20_12 C36_12 1_555 1_555
C37_12 C36_12 1_555 1_555
H21_12 C37_12 1_555 1_555
C38_15 C15_15 1_555 1_555
H22_15 C38_15 1_555 1_555
C39_12 N7_12 1_555 1_555
H23_12 C39_12 1_555 1_555
C40_11 N8_11 1_555 1_555
H24_11 C40_11 1_555 1_555
C4_11 C9_11 1_555 1_555
C6_15 C11_15 1_555 1_555
C7_15 C14_15 1_555 1_555
C13_15 C31_15 1_555 1_555
C17_11 C23_11 1_555 1_555
C18_11 C29_15 1_555 1_555
C20_15 C27_15 1_555 1_555
C22_11 C30_11 1_555 1_555
C24_15 C25_15 1_555 1_555
C33_11 C35_11 1_555 1_555
C34_11 C40_11 1_555 1_555
C38_15 C39_12 1_555 1_555
Co3_2 N1_16 1_555 1_555
N1_16 C5_16 1_555 1_555
N2_12 Co3_2 1_555 1_555
N4_16 Co3_2 1_555 1_555
N9_6 C13_16 1_555 1_555
C2_16 N4_16 1_555 1_555
C5_16 C8_16 1_555 1_555
C6_16 N1_16 1_555 1_555
C8_16 C10_12 1_555 1_555
C10_12 N2_12 1_555 1_555
C11_16 C2_16 1_555 1_555
C12_16 C8_16 1_555 1_555
C13_16 H1_16 1_555 1_555
C15_16 C11_16 1_555 1_555
C17_12 N9_6 1_555 1_555
H2_12 C17_12 1_555 1_555
C20_16 C6_16 1_555 1_555
H4_16 C20_16 1_555 1_555
C23_12 C12_16 1_555 1_555
H7_12 C23_12 1_555 1_555
C25_16 C2_16 1_555 1_555
H9_16 C25_16 1_555 1_555
C27_16 C5_16 1_555 1_555
H11_12 C27_16 1_555 1_555
C30_12 C10_12 1_555 1_555
H14_12 C30_12 1_555 1_555
C31_16 C12_16 1_555 1_555
H15_12 C31_16 1_555 1_555
C38_16 C15_16 1_555 1_555
H22_16 C38_16 1_555 1_555
C6_16 C11_16 1_555 1_555
C13_16 C31_16 1_555 1_555
C17_12 C23_12 1_555 1_555
C20_16 C27_16 1_555 1_555
N10_3 C21_16 1_555 1_555
C1_12 N3_16 1_555 1_555
C3_16 N3_16 1_555 1_555
N8_12 C33_12 1_555 1_555
C9_12 C1_12 1_555 1_555
C14_16 C3_16 1_555 1_555
C16_16 C14_16 1_555 1_555
C18_12 C1_12 1_555 1_555
H3_12 C18_12 1_555 1_555
C19_12 C9_12 1_555 1_555
C21_16 H5_16 1_555 1_555
C22_12 C4_12 1_555 1_555
H6_12 C22_12 1_555 1_555
C24_16 C7_16 1_555 1_555
H8_16 C24_16 1_555 1_555
C26_16 C16_16 1_555 1_555
H10_16 C26_16 1_555 1_555
C28_16 N10_3 1_555 1_555
H12_16 C28_16 1_555 1_555
C29_16 C3_16 1_555 1_555
H13_16 C29_16 1_555 1_555
C32_16 C16_16 1_555 1_555
H16_16 C32_16 1_555 1_555
C33_12 H17_12 1_555 1_555
C34_12 C19_12 1_555 1_555
H18_12 C34_12 1_555 1_555
C35_12 C19_12 1_555 1_555
H19_12 C35_12 1_555 1_555
C40_12 N8_12 1_555 1_555
H24_12 C40_12 1_555 1_555
C4_12 C9_12 1_555 1_555
C7_16 C14_16 1_555 1_555
C18_12 C29_16 1_555 1_555
C21_16 C26_16 1_555 1_555
C28_16 C32_16 1_555 1_555
C33_12 C35_12 1_555 1_555
C34_12 C40_12 1_555 1_555
N10 C21_17 1_555 1_555
C1_13 N3_17 1_555 1_555
C3_17 N3_17 1_555 1_555
N8_13 C33_13 1_555 1_555
C9_13 C1_13 1_555 1_555
C14_17 C3_17 1_555 1_555
C16_17 C14_17 1_555 1_555
C18_13 C1_13 1_555 1_555
H3_13 C18_13 1_555 1_555
C19_13 C9_13 1_555 1_555
C21_17 H5_17 1_555 1_555
C22_13 C4_13 1_555 1_555
H6_13 C22_13 1_555 1_555
C24_17 C7_17 1_555 1_555
H8_17 C24_17 1_555 1_555
C26_17 C16_17 1_555 1_555
H10_17 C26_17 1_555 1_555
C28_17 N10 1_555 1_555
H12_17 C28_17 1_555 1_555
C29_17 C3_17 1_555 1_555
H13_17 C29_17 1_555 1_555
C32_17 C16_17 1_555 1_555
H16_17 C32_17 1_555 1_555
C33_13 H17_13 1_555 1_555
C34_13 C19_13 1_555 1_555
H18_13 C34_13 1_555 1_555
C35_13 C19_13 1_555 1_555
H19_13 C35_13 1_555 1_555
C40_13 N8_13 1_555 1_555
H24_13 C40_13 1_555 1_555
C4_13 C9_13 1_555 1_555
C7_17 C14_17 1_555 1_555
C18_13 C29_17 1_555 1_555
C21_17 C26_17 1_555 1_555
C28_17 C32_17 1_555 1_555
C33_13 C35_13 1_555 1_555
C34_13 C40_13 1_555 1_555
Co3_3 N1_17 1_555 1_555
N1_17 C5_17 1_555 1_555
N2_13 Co3_3 1_555 1_555
N4_17 Co3_3 1_555 1_555
N9_4 C13_17 1_555 1_555
C2_17 N4_17 1_555 1_555
C5_17 C8_17 1_555 1_555
C6_17 N1_17 1_555 1_555
C8_17 C10_13 1_555 1_555
C10_13 N2_13 1_555 1_555
C11_17 C2_17 1_555 1_555
C12_17 C8_17 1_555 1_555
C13_17 H1_17 1_555 1_555
C15_17 C11_17 1_555 1_555
C17_13 N9_4 1_555 1_555
H2_13 C17_13 1_555 1_555
C20_17 C6_17 1_555 1_555
H4_17 C20_17 1_555 1_555
C23_13 C12_17 1_555 1_555
H7_13 C23_13 1_555 1_555
C25_17 C2_17 1_555 1_555
H9_17 C25_17 1_555 1_555
C27_17 C5_17 1_555 1_555
H11_13 C27_17 1_555 1_555
C30_13 C10_13 1_555 1_555
H14_13 C30_13 1_555 1_555
C31_17 C12_17 1_555 1_555
H15_13 C31_17 1_555 1_555
C38_17 C15_17 1_555 1_555
H22_17 C38_17 1_555 1_555
C6_17 C11_17 1_555 1_555
C13_17 C31_17 1_555 1_555
C17_13 C23_13 1_555 1_555
C20_17 C27_17 1_555 1_555
Co3 N1_18 1_555 1_555
N1_18 C5_18 1_555 1_555
N2_14 Co3 1_555 1_555
N3_18 Co3 1_555 1_555
N4_18 Co3 1_555 1_555
N9_5 C13_18 1_555 1_555
N10_2 C21_18 1_555 1_555
C1_14 N3_18 1_555 1_555
C2_18 N4_18 1_555 1_555
C3_18 N3_18 1_555 1_555
C4_14 N2_14 1_555 1_555
C5_18 C8_18 1_555 1_555
C6_18 N1_18 1_555 1_555
C7_18 N4_18 1_555 1_555
N8_14 C33_14 1_555 1_555
C8_18 C10_14 1_555 1_555
C9_14 C1_14 1_555 1_555
C10_14 N2_14 1_555 1_555
C11_18 C2_18 1_555 1_555
C12_18 C8_18 1_555 1_555
C13_18 H1_18 1_555 1_555
C14_18 C3_18 1_555 1_555
C15_18 C11_18 1_555 1_555
C16_18 C14_18 1_555 1_555
C17_14 N9_5 1_555 1_555
H2_14 C17_14 1_555 1_555
C18_14 C1_14 1_555 1_555
H3_14 C18_14 1_555 1_555
C19_14 C9_14 1_555 1_555
C20_18 C6_18 1_555 1_555
H4_18 C20_18 1_555 1_555
C21_18 H5_18 1_555 1_555
C22_14 C4_14 1_555 1_555
H6_14 C22_14 1_555 1_555
C23_14 C12_18 1_555 1_555
H7_14 C23_14 1_555 1_555
C24_18 C7_18 1_555 1_555
H8_18 C24_18 1_555 1_555
C25_18 C2_18 1_555 1_555
H9_18 C25_18 1_555 1_555
C26_18 C16_18 1_555 1_555
H10_18 C26_18 1_555 1_555
C27_18 C5_18 1_555 1_555
H11_14 C27_18 1_555 1_555
C28_18 N10_2 1_555 1_555
H12_18 C28_18 1_555 1_555
C29_18 C3_18 1_555 1_555
H13_18 C29_18 1_555 1_555
C30_14 C10_14 1_555 1_555
H14_14 C30_14 1_555 1_555
C31_18 C12_18 1_555 1_555
H15_14 C31_18 1_555 1_555
C32_18 C16_18 1_555 1_555
H16_18 C32_18 1_555 1_555
C33_14 H17_14 1_555 1_555
C34_14 C19_14 1_555 1_555
H18_14 C34_14 1_555 1_555
C35_14 C19_14 1_555 1_555
H19_14 C35_14 1_555 1_555
C38_18 C15_18 1_555 1_555
H22_18 C38_18 1_555 1_555
C40_14 N8_14 1_555 1_555
H24_14 C40_14 1_555 1_555
C4_14 C9_14 1_555 1_555
C6_18 C11_18 1_555 1_555
C7_18 C14_18 1_555 1_555
C13_18 C31_18 1_555 1_555
C17_14 C23_14 1_555 1_555
C18_14 C29_18 1_555 1_555
C20_18 C27_18 1_555 1_555
C21_18 C26_18 1_555 1_555
C22_14 C30_14 1_555 1_555
C24_18 C25_18 1_555 1_555
C28_18 C32_18 1_555 1_555
C33_14 C35_14 1_555 1_555
C34_14 C40_14 1_555 1_555
C4_15 N2_15 1_555 1_555
N8_15 C33_15 1_555 1_555
C9_15 C1_15 1_555 1_555
C10_15 N2_15 1_555 1_555
C18_15 C1_15 1_555 1_555
H3_15 C18_15 1_555 1_555
C19_15 C9_15 1_555 1_555
C22_15 C4_15 1_555 1_555
H6_15 C22_15 1_555 1_555
C30_15 C10_15 1_555 1_555
H14_15 C30_15 1_555 1_555
C33_15 H17_15 1_555 1_555
C34_15 C19_15 1_555 1_555
H18_15 C34_15 1_555 1_555
C35_15 C19_15 1_555 1_555
H19_15 C35_15 1_555 1_555
C40_15 N8_15 1_555 1_555
H24_15 C40_15 1_555 1_555
C4_15 C9_15 1_555 1_555
C22_15 C30_15 1_555 1_555
C33_15 C35_15 1_555 1_555
C34_15 C40_15 1_555 1_555
H2_15 C17_15 1_555 1_555
H7_15 C23_15 1_555 1_555
C17_15 C23_15 1_555 1_555
H2_16 C17_16 1_555 1_555
H7_16 C23_16 1_555 1_555
C17_16 C23_16 1_555 1_555
C4_16 N2_16 1_555 1_555
N8_16 C33_16 1_555 1_555
C9_16 C1_16 1_555 1_555
C10_16 N2_16 1_555 1_555
C18_16 C1_16 1_555 1_555
H3_16 C18_16 1_555 1_555
C19_16 C9_16 1_555 1_555
C22_16 C4_16 1_555 1_555
H6_16 C22_16 1_555 1_555
C30_16 C10_16 1_555 1_555
H14_16 C30_16 1_555 1_555
C33_16 H17_16 1_555 1_555
C34_16 C19_16 1_555 1_555
H18_16 C34_16 1_555 1_555
C35_16 C19_16 1_555 1_555
H19_16 C35_16 1_555 1_555
C40_16 N8_16 1_555 1_555
H24_16 C40_16 1_555 1_555
C4_16 C9_16 1_555 1_555
C22_16 C30_16 1_555 1_555
C33_16 C35_16 1_555 1_555
C34_16 C40_16 1_555 1_555
N7_13 C37_13 1_555 1_555
H20_13 C36_13 1_555 1_555
C37_13 C36_13 1_555 1_555
H21_13 C37_13 1_555 1_555
C39_13 N7_13 1_555 1_555
H23_13 C39_13 1_555 1_555
N7_14 C37_14 1_555 1_555
H20_14 C36_14 1_555 1_555
C37_14 C36_14 1_555 1_555
H21_14 C37_14 1_555 1_555
C39_14 N7_14 1_555 1_555
H23_14 C39_14 1_555 1_555
N7_15 C37_15 1_555 1_555
H20_15 C36_15 1_555 1_555
C37_15 C36_15 1_555 1_555
H21_15 C37_15 1_555 1_555
C39_15 N7_15 1_555 1_555
H23_15 C39_15 1_555 1_555
H2_17 C17_17 1_555 1_555
H7_17 C23_17 1_555 1_555
C17_17 C23_17 1_555 1_555
C4_17 N2_17 1_555 1_555
N8_17 C33_17 1_555 1_555
C9_17 C1_17 1_555 1_555
C10_17 N2_17 1_555 1_555
C18_17 C1_17 1_555 1_555
H3_17 C18_17 1_555 1_555
C19_17 C9_17 1_555 1_555
C22_17 C4_17 1_555 1_555
H6_17 C22_17 1_555 1_555
C30_17 C10_17 1_555 1_555
H14_17 C30_17 1_555 1_555
C33_17 H17_17 1_555 1_555
C34_17 C19_17 1_555 1_555
H18_17 C34_17 1_555 1_555
C35_17 C19_17 1_555 1_555
H19_17 C35_17 1_555 1_555
C40_17 N8_17 1_555 1_555
H24_17 C40_17 1_555 1_555
C4_17 C9_17 1_555 1_555
C22_17 C30_17 1_555 1_555
C33_17 C35_17 1_555 1_555
C34_17 C40_17 1_555 1_555
C4_18 N2_18 1_555 1_555
N8_18 C33_18 1_555 1_555
C9_18 C1_18 1_555 1_555
C10_18 N2_18 1_555 1_555
C18_18 C1_18 1_555 1_555
H3_18 C18_18 1_555 1_555
C19_18 C9_18 1_555 1_555
C22_18 C4_18 1_555 1_555
H6_18 C22_18 1_555 1_555
C30_18 C10_18 1_555 1_555
H14_18 C30_18 1_555 1_555
C33_18 H17_18 1_555 1_555
C34_18 C19_18 1_555 1_555
H18_18 C34_18 1_555 1_555
C35_18 C19_18 1_555 1_555
H19_18 C35_18 1_555 1_555
C40_18 N8_18 1_555 1_555
H24_18 C40_18 1_555 1_555
C4_18 C9_18 1_555 1_555
C22_18 C30_18 1_555 1_555
C33_18 C35_18 1_555 1_555
C34_18 C40_18 1_555 1_555
H2_18 C17_18 1_555 1_555
H7_18 C23_18 1_555 1_555
C17_18 C23_18 1_555 1_555
N7_16 C37_16 1_555 1_555
H20_16 C36_16 1_555 1_555
C37_16 C36_16 1_555 1_555
H21_16 C37_16 1_555 1_555
C39_16 N7_16 1_555 1_555
H23_16 C39_16 1_555 1_555
N7_17 C37_17 1_555 1_555
H20_17 C36_17 1_555 1_555
C37_17 C36_17 1_555 1_555
H21_17 C37_17 1_555 1_555
C39_17 N7_17 1_555 1_555
H23_17 C39_17 1_555 1_555
N7_18 C37_18 1_555 1_555
H20_18 C36_18 1_555 1_555
C37_18 C36_18 1_555 1_555
H21_18 C37_18 1_555 1_555
C39_18 N7_18 1_555 1_555
H23_18 C39_18 1_555 1_555

#END
