
###############################################################################
#
# This file contains modified crystal structure data generated from the
# MOF subset of the Cambridge Structural Database (CSD) v543 
# hosted by the Cambridge Crystallographic Data Centre (CCDC).
#
# This work is licensed under the Creative Commons
# Attribution-NonCommercial-ShareAlike 4.0 International License.
# To view a copy of this license, visit
# http://creativecommons.org/licenses/by-nc-sa/4.0/
# or send a letter to
# Creative Commons, PO Box 1866, Mountain View, CA 94042, USA.
#
# CIF created using the CSD Python API on 29 September 2022
# The structure has been converted into the P1 space group
# The structure has a 3D framework
# The original CSD entry YURKEE is in the rhombohedral crystal system
# The framework has been calculated to contain at least 10.0% void space
# The void calculation uses a probe of radius 1.32A, grid spacing 0.4
#
###############################################################################

data_YURKEE
_chemical_formula_moiety         '(C360 H216 Co11 N72)n'
_symmetry_cell_setting           triclinic
_symmetry_space_group_name_H-M   'P 1'
_symmetry_Int_Tables_number      1
_space_group_name_Hall           'P 1'
loop_
_symmetry_equiv_pos_site_id
_symmetry_equiv_pos_as_xyz
1 x,y,z
_cell_length_a                   32.7108(16)
_cell_length_b                   32.7108(16)
_cell_length_c                   9.2415(7)
_cell_angle_alpha                90
_cell_angle_beta                 90
_cell_angle_gamma                120
_cell_volume                     8563.58
loop_
_atom_site_label
_atom_site_type_symbol
_atom_site_fract_x
_atom_site_fract_y
_atom_site_fract_z
N4 N 0.59411(9) 0.16568(8) 0.1666(2)
C8 C 0.61023(10) 0.18049(9) 0.0333(3)
H4 H 0.6337 0.2127 0.0204
C9 C 0.56153(9) 0.12016(9) 0.1823(2)
H5 H 0.5495 0.1090 0.2765
C10 C 0.54447(8) 0.08857(8) 0.0687(2)
H6 H 0.5218 0.0564 0.0856
Co1 Co 0.5000 0.0000 0.5000
N1 N 0.49849(5) 0.05679(5) 0.57109(14)
N2 N 0.37757(5) 0.13743(5) 0.26283(15)
N3 N 0.53517(5) 0.00189(5) 0.67961(14)
C3 C 0.57984(7) 0.02658(7) 0.8894(2)
H2 H 0.5944 0.0441 0.9746
C4 C 0.55042(6) 0.03444(6) 0.79007(18)
C5 C 0.54165(6) 0.07190(6) 0.80141(18)
C6 C 0.56069(6) 0.10423(6) 0.9290(2)
C7 C 0.59467(8) 0.15156(8) 0.9121(3)
H3 H 0.6070 0.1639 0.8191
C11 C 0.51664(6) 0.08146(6) 0.69790(18)
C12 C 0.50443(7) 0.11805(7) 0.7127(2)
H7 H 0.5129 0.1399 0.7903
C13 C 0.47865(7) 0.11526(7) 0.5952(2)
H8 H 0.4656 0.1348 0.5740
C14 C 0.47473(6) 0.07688(6) 0.50808(18)
C15 C 0.44932(6) 0.06235(6) 0.37948(18)
C16 C 0.42401(6) 0.08783(6) 0.33556(18)
C17 C 0.44205(7) 0.12284(7) 0.2307(2)
H9 H 0.4705 0.1305 0.1814
C18 C 0.41782(7) 0.14659(7) 0.1989(2)
H10 H 0.4307 0.1707 0.1276
C19 C 0.36024(7) 0.10352(7) 0.36389(19)
H11 H 0.3316 0.0965 0.4110
C20 C 0.38223(7) 0.07824(7) 0.4028(2)
H12 H 0.3687 0.0545 0.4750
C21 C 0.44484(6) 0.02574(6) 0.29296(18)
C22 C 0.41721(7) 0.01048(7) 0.1619(2)
H13 H 0.4002 0.0240 0.1197
Co3 Co 0.3333 0.1667 0.1667
N10 N 0.57347(7) 0.04424(5) 0.40384(15)
Co1_2 Co 0.5000 1.0000 0.5000
C1 C 0.55516(6) 0.97426(6) 0.70704(18)
C2 C 0.58279(7) 0.98952(7) 0.8381(2)
H1 H 0.5998 0.9760 0.8803
N5 N 0.50151(5) 0.94321(5) 0.42891(14)
N6 N 0.62243(5) 0.86257(5) 0.73717(15)
N7 N 0.46483(5) 0.99811(5) 0.32039(14)
C23 C 0.42016(7) 0.97342(7) 0.1106(2)
H14 H 0.4056 0.9559 0.0254
C24 C 0.44958(6) 0.96556(6) 0.20993(18)
C25 C 0.45835(6) 0.92810(6) 0.19859(18)
C26 C 0.43931(6) 0.89577(6) 0.0710(2)
C27 C 0.40533(8) 0.84844(8) 0.0879(3)
H15 H 0.3930 0.8361 0.1809
C31 C 0.48336(6) 0.91854(6) 0.30210(18)
C32 C 0.49557(7) 0.88195(7) 0.2873(2)
H19 H 0.4871 0.8601 0.2097
C33 C 0.52135(7) 0.88474(7) 0.4048(2)
H20 H 0.5344 0.8652 0.4260
C34 C 0.52527(6) 0.92312(6) 0.49192(18)
C35 C 0.55068(6) 0.93765(6) 0.62052(18)
C36 C 0.57599(6) 0.91217(6) 0.66444(18)
C37 C 0.55795(7) 0.87716(7) 0.7693(2)
H21 H 0.5295 0.8695 0.8186
C38 C 0.58218(7) 0.85341(7) 0.8011(2)
H22 H 0.5693 0.8293 0.8724
C39 C 0.63976(7) 0.89648(7) 0.63611(19)
H23 H 0.6684 0.9035 0.5890
C40 C 0.61777(7) 0.92176(7) 0.5972(2)
H24 H 0.6313 0.9455 0.5250
Co2 Co 0.6667 0.8333 0.8333
N9 N 0.42653(7) 0.95576(5) 0.59616(15)
Co1_3 Co -0.0000 0.5000 0.5000
C1_2 C 0.02574(6) 0.58090(8) 0.70704(18)
C2_2 C 0.01048(7) 0.59327(10) 0.8381(2)
H1_2 H 0.0240 0.6238 0.8803
N5_2 N 0.05679(5) 0.55830(7) 0.42891(14)
N6_2 N 0.13743(5) 0.75986(7) 0.73717(15)
N7_2 N 0.00189(5) 0.46672(7) 0.32039(14)
C23_2 C 0.02658(7) 0.44674(10) 0.1106(2)
H14_2 H 0.0441 0.4497 0.0254
C24_2 C 0.03444(6) 0.48402(8) 0.20993(18)
C25_2 C 0.07190(6) 0.53025(8) 0.19859(18)
C26_2 C 0.10423(6) 0.54354(8) 0.0710(2)
C27_2 C 0.15156(8) 0.55689(11) 0.0879(3)
H15_2 H 0.1639 0.5569 0.1809
C31_2 C 0.08146(6) 0.56482(8) 0.30210(18)
C32_2 C 0.11805(7) 0.61362(10) 0.2873(2)
H19_2 H 0.1399 0.6270 0.2097
C33_2 C 0.11526(7) 0.63661(10) 0.4048(2)
H20_2 H 0.1348 0.6692 0.4260
C34_2 C 0.07688(6) 0.60215(8) 0.49192(18)
C35_2 C 0.06235(6) 0.61303(8) 0.62052(18)
C36_2 C 0.08783(6) 0.66382(8) 0.66444(18)
C37_2 C 0.12284(7) 0.68079(10) 0.7693(2)
H21_2 H 0.1305 0.6600 0.8186
C38_2 C 0.14659(7) 0.72877(10) 0.8011(2)
H22_2 H 0.1707 0.7400 0.8724
C39_2 C 0.10352(7) 0.74328(10) 0.63611(19)
H23_2 H 0.0965 0.7649 0.5890
C40_2 C 0.07824(7) 0.69601(10) 0.5972(2)
H24_2 H 0.0545 0.6858 0.5250
Co2_2 Co 0.1667 0.8333 0.8333
N9_2 N 0.04424(5) 0.47076(9) 0.59616(15)
Co1_4 Co 1.0000 0.5000 0.5000
N1_2 N 0.94321(5) 0.44170(7) 0.57109(14)
N2_2 N 0.86257(5) 0.24014(7) 0.26283(15)
N3_2 N 0.99811(5) 0.53328(7) 0.67961(14)
C3_2 C 0.97342(7) 0.55326(10) 0.8894(2)
H2_2 H 0.9559 0.5503 0.9746
C4_2 C 0.96556(6) 0.51598(8) 0.79007(18)
C5_2 C 0.92810(6) 0.46975(8) 0.80141(18)
C6_2 C 0.89577(6) 0.45646(8) 0.9290(2)
C7_2 C 0.84844(8) 0.44311(11) 0.9121(3)
H3_2 H 0.8361 0.4431 0.8191
C11_2 C 0.91854(6) 0.43518(8) 0.69790(18)
C12_2 C 0.88195(7) 0.38638(10) 0.7127(2)
H7_2 H 0.8601 0.3730 0.7903
C13_2 C 0.88474(7) 0.36339(10) 0.5952(2)
H8_2 H 0.8652 0.3308 0.5740
C14_2 C 0.92312(6) 0.39785(8) 0.50808(18)
C15_2 C 0.93765(6) 0.38697(8) 0.37948(18)
C16_2 C 0.91217(6) 0.33618(8) 0.33556(18)
C17_2 C 0.87716(7) 0.31921(10) 0.2307(2)
H9_2 H 0.8695 0.3400 0.1814
C18_2 C 0.85341(7) 0.27123(10) 0.1989(2)
H10_2 H 0.8293 0.2600 0.1276
C19_2 C 0.89648(7) 0.25672(10) 0.36389(19)
H11_2 H 0.9035 0.2351 0.4110
C20_2 C 0.92176(7) 0.30399(10) 0.4028(2)
H12_2 H 0.9455 0.3142 0.4750
C21_2 C 0.97426(6) 0.41910(8) 0.29296(18)
C22_2 C 0.98952(7) 0.40673(10) 0.1619(2)
H13_2 H 0.9760 0.3762 0.1197
Co3_2 Co 0.8333 0.1667 0.1667
N10_2 N 0.95576(5) 0.52924(9) 0.40384(15)
Co1_5 Co 0.5000 0.5000 0.5000
N1_3 N 0.55830(7) 0.50151(5) 0.57109(14)
N2_3 N 0.75986(7) 0.62243(5) 0.26283(15)
N3_3 N 0.46672(7) 0.46483(5) 0.67961(14)
C1_3 C 0.41910(8) 0.44484(6) 0.70704(18)
C2_3 C 0.40673(10) 0.41721(7) 0.8381(2)
H1_3 H 0.3762 0.4002 0.8803
C3_3 C 0.44674(10) 0.42016(7) 0.8894(2)
H2_3 H 0.4497 0.4056 0.9746
C4_3 C 0.48402(8) 0.44958(6) 0.79007(18)
C5_3 C 0.53025(8) 0.45835(6) 0.80141(18)
C6_3 C 0.54354(8) 0.43931(6) 0.9290(2)
C7_3 C 0.55689(11) 0.40533(8) 0.9121(3)
H3_3 H 0.5569 0.3930 0.8191
C11_3 C 0.56482(8) 0.48336(6) 0.69790(18)
C12_3 C 0.61362(10) 0.49557(7) 0.7127(2)
H7_3 H 0.6270 0.4871 0.7903
C13_3 C 0.63661(10) 0.52135(7) 0.5952(2)
H8_3 H 0.6692 0.5344 0.5740
C14_3 C 0.60215(8) 0.52527(6) 0.50808(18)
C15_3 C 0.61303(8) 0.55068(6) 0.37948(18)
C16_3 C 0.66382(8) 0.57599(6) 0.33556(18)
C17_3 C 0.68079(10) 0.55795(7) 0.2307(2)
H9_3 H 0.6600 0.5295 0.1814
C18_3 C 0.72877(10) 0.58218(7) 0.1989(2)
H10_3 H 0.7400 0.5693 0.1276
C19_3 C 0.74328(10) 0.63976(7) 0.36389(19)
H11_3 H 0.7649 0.6684 0.4110
C20_3 C 0.69601(10) 0.61777(7) 0.4028(2)
H12_3 H 0.6858 0.6313 0.4750
N5_3 N 0.44170(7) 0.49849(5) 0.42891(14)
N6_3 N 0.24014(7) 0.37757(5) 0.73717(15)
N7_3 N 0.53328(7) 0.53517(5) 0.32039(14)
C21_3 C 0.58090(8) 0.55516(6) 0.29296(18)
C22_3 C 0.59327(10) 0.58279(7) 0.1619(2)
H13_3 H 0.6238 0.5998 0.1197
C23_3 C 0.55326(10) 0.57984(7) 0.1106(2)
H14_3 H 0.5503 0.5944 0.0254
C24_3 C 0.51598(8) 0.55042(6) 0.20993(18)
C25_3 C 0.46975(8) 0.54165(6) 0.19859(18)
C26_3 C 0.45646(8) 0.56069(6) 0.0710(2)
C27_3 C 0.44311(11) 0.59467(8) 0.0879(3)
H15_3 H 0.4431 0.6070 0.1809
C31_3 C 0.43518(8) 0.51664(6) 0.30210(18)
C32_3 C 0.38638(10) 0.50443(7) 0.2873(2)
H19_3 H 0.3730 0.5129 0.2097
C33_3 C 0.36339(10) 0.47865(7) 0.4048(2)
H20_3 H 0.3308 0.4656 0.4260
C34_3 C 0.39785(8) 0.47473(6) 0.49192(18)
C35_3 C 0.38697(8) 0.44932(6) 0.62052(18)
C36_3 C 0.33618(8) 0.42401(6) 0.66444(18)
C37_3 C 0.31921(10) 0.44205(7) 0.7693(2)
H21_3 H 0.3400 0.4705 0.8186
C38_3 C 0.27123(10) 0.41782(7) 0.8011(2)
H22_3 H 0.2600 0.4307 0.8724
C39_3 C 0.25672(10) 0.36024(7) 0.63611(19)
H23_3 H 0.2351 0.3316 0.5890
C40_3 C 0.30399(10) 0.38223(7) 0.5972(2)
H24_3 H 0.3142 0.3687 0.5250
Co2_3 Co 0.1667 0.3333 0.8333
Co3_3 Co 0.8333 0.6667 0.1667
N9_3 N 0.52924(9) 0.57347(7) 0.59616(15)
N10_3 N 0.47076(9) 0.42653(7) 0.40384(15)
N3_4 N 0.20184(5) 0.33522(5) 0.01294(14)
N4_2 N 0.26078(9) 0.49901(8) 0.4999(2)
C1_4 C 0.22183(6) 0.30759(6) 0.04037(18)
C2_4 C 0.24946(7) 0.32285(7) 0.1714(2)
H1_4 H 0.2665 0.3093 0.2136
C3_4 C 0.24651(7) 0.35991(7) 0.2227(2)
H2_4 H 0.2611 0.3774 0.3079
C4_4 C 0.21709(6) 0.36777(6) 0.12340(18)
C5_4 C 0.20832(6) 0.40523(6) 0.13474(18)
C6_4 C 0.22736(6) 0.43756(6) 0.2623(2)
C7_4 C 0.26134(8) 0.48489(8) 0.2454(3)
H3_4 H 0.2737 0.4972 0.1524
C8_2 C 0.27690(10) 0.51382(9) 0.3666(3)
H4_2 H 0.3004 0.5460 0.3537
C9_2 C 0.22820(9) 0.45349(9) 0.5156(2)
H5_2 H 0.2162 0.4423 0.6098
C10_2 C 0.21114(8) 0.42190(8) 0.4020(2)
H6_2 H 0.1885 0.3897 0.4189
C11_4 C 0.18331(6) 0.41479(6) 0.03123(18)
C12_4 C 0.17110(7) 0.45138(7) 0.0460(2)
H7_4 H 0.1796 0.4732 0.1236
N6_4 N 0.28910(5) 0.19590(5) 0.07050(15)
C37_4 C 0.22462(7) 0.21049(7) 0.1026(2)
H21_4 H 0.1962 0.2028 0.1519
C38_4 C 0.24885(7) 0.18674(7) 0.1344(2)
H22_4 H 0.2360 0.1626 0.2057
N1_4 N 0.16516(5) 0.39012(5) 0.90442(14)
C13_4 C 0.14532(7) 0.44859(7) 0.9285(2)
H8_4 H 0.1323 0.4681 0.9073
C14_4 C 0.14140(6) 0.41021(6) 0.84141(18)
C15_4 C 0.11599(6) 0.39568(6) 0.71281(18)
C16_4 C 0.09068(6) 0.42116(6) 0.66889(18)
C17_4 C 0.10872(7) 0.45617(7) 0.5640(2)
H9_4 H 0.1372 0.4638 0.5147
C18_4 C 0.08449(7) 0.47992(7) 0.5322(2)
H10_4 H 0.0974 0.5040 0.4609
C19_4 C 0.02691(7) 0.43685(7) 0.69722(19)
C20_4 C 0.04890(7) 0.41157(7) 0.7361(2)
H12_4 H 0.0354 0.3878 0.8083
N5_4 N 0.16818(5) 0.27654(5) 0.76224(14)
N7_4 N 0.13150(5) 0.33144(5) 0.65372(14)
N8 N 0.07256(9) 0.16765(8) 0.1667(2)
C21_4 C 0.11151(6) 0.35907(6) 0.62629(18)
C22_4 C 0.08388(7) 0.34381(7) 0.4952(2)
H13_4 H 0.0669 0.3573 0.4530
C23_4 C 0.08683(7) 0.30675(7) 0.4439(2)
H14_4 H 0.0723 0.2892 0.3587
C24_4 C 0.11625(6) 0.29889(6) 0.54326(18)
C25_4 C 0.12502(6) 0.26143(6) 0.53192(18)
C26_4 C 0.10598(6) 0.22910(6) 0.4043(2)
C27_4 C 0.07200(8) 0.18177(8) 0.4212(3)
H15_4 H 0.0597 0.1694 0.5142
C28 C 0.05644(10) 0.15284(9) 0.3000(3)
H16 H 0.0330 0.1206 0.3129
C29 C 0.10514(9) 0.21317(9) 0.1510(2)
H17 H 0.1172 0.2243 0.0568
C30 C 0.12220(8) 0.24476(8) 0.2646(2)
H18 H 0.1449 0.2769 0.2477
C31_4 C 0.15003(6) 0.25187(6) 0.63543(18)
C32_4 C 0.16224(7) 0.21528(7) 0.6206(2)
H19_4 H 0.1538 0.1934 0.5430
C33_4 C 0.18802(7) 0.21807(7) 0.7381(2)
H20_4 H 0.2011 0.1985 0.7593
C34_4 C 0.19194(6) 0.25645(6) 0.82525(18)
C35_4 C 0.21735(6) 0.27098(6) 0.95385(18)
C36_4 C 0.24266(6) 0.24550(6) 0.99777(18)
C39_4 C 0.30643(7) 0.22981(7) 0.96944(19)
H23_4 H 0.3351 0.2368 0.9223
C40_4 C 0.28444(7) 0.25509(7) 0.9305(2)
H24_4 H 0.2980 0.2788 0.8583
N9_4 N 0.09319(7) 0.28910(5) 0.92950(15)
H11_4 H 0.9983 0.4298 0.7443
N6_5 N 0.80410(5) 0.09319(7) 0.07050(15)
C37_5 C 0.78951(7) 0.01412(10) 0.1026(2)
C38_5 C 0.81326(7) 0.06210(10) 0.1344(2)
H22_5 H 0.8374 0.0733 0.2057
N1_5 N 0.60988(5) 0.77503(7) 0.90442(14)
C13_5 C 0.55141(7) 0.69672(10) 0.9285(2)
H8_5 H 0.5319 0.6641 0.9073
C14_5 C 0.58979(6) 0.73118(8) 0.84141(18)
C15_5 C 0.60432(6) 0.72030(8) 0.71281(18)
C16_5 C 0.57884(6) 0.66951(8) 0.66889(18)
C17_5 C 0.54383(7) 0.65254(10) 0.5640(2)
H9_5 H 0.5362 0.6733 0.5147
C18_5 C 0.52008(7) 0.60456(10) 0.5322(2)
H10_5 H 0.4960 0.5933 0.4609
C19_5 C 0.56315(7) 0.59005(10) 0.69722(19)
H11_5 H 0.5702 0.5684 0.7443
C20_5 C 0.58843(7) 0.63732(10) 0.7361(2)
H12_5 H 0.6122 0.6475 0.8083
N5_5 N 0.72346(5) 0.89163(7) 0.76224(14)
N7_5 N 0.66856(5) 0.80005(7) 0.65372(14)
N8_2 N 0.83235(8) 0.90490(12) 0.1667(2)
C21_5 C 0.64093(6) 0.75243(8) 0.62629(18)
C22_5 C 0.65619(7) 0.74006(10) 0.4952(2)
H13_5 H 0.6427 0.7095 0.4530
C23_5 C 0.69325(7) 0.78007(10) 0.4439(2)
H14_5 H 0.7108 0.7830 0.3587
C24_5 C 0.70111(6) 0.81735(8) 0.54326(18)
C25_5 C 0.73857(6) 0.86358(8) 0.53192(18)
C26_5 C 0.77090(6) 0.87687(8) 0.4043(2)
C27_5 C 0.81823(8) 0.89022(11) 0.4212(3)
H15_5 H 0.8306 0.8902 0.5142
C28_2 C 0.84716(9) 0.90359(13) 0.3000(3)
H16_2 H 0.8794 0.9123 0.3129
C29_2 C 0.78683(9) 0.89196(13) 0.1510(2)
H17_2 H 0.7757 0.8928 0.0568
C30_2 C 0.75524(8) 0.87743(11) 0.2646(2)
H18_2 H 0.7231 0.8679 0.2477
C31_5 C 0.74813(6) 0.89815(8) 0.63543(18)
C32_5 C 0.78472(7) 0.94695(10) 0.6206(2)
H19_5 H 0.8066 0.9603 0.5430
C33_5 C 0.78193(7) 0.96994(10) 0.7381(2)
C34_5 C 0.74355(6) 0.93548(8) 0.82525(18)
C35_5 C 0.72902(6) 0.94636(8) 0.95385(18)
C36_5 C 0.75450(6) 0.99715(8) 0.99777(18)
N9_5 N 0.71090(5) 0.80410(9) 0.92950(15)
H11_6 H 0.4316 0.0017 0.7443
N1_6 N 0.22497(7) 0.83484(5) 0.90442(14)
C13_6 C 0.30328(10) 0.85468(7) 0.9285(2)
H8_6 H 0.3359 0.8677 0.9073
C14_6 C 0.26882(8) 0.85860(6) 0.84141(18)
C15_6 C 0.27970(8) 0.88401(6) 0.71281(18)
C16_6 C 0.33049(8) 0.90932(6) 0.66889(18)
C17_6 C 0.34746(10) 0.89128(7) 0.5640(2)
H9_6 H 0.3267 0.8628 0.5147
C18_6 C 0.39544(10) 0.91551(7) 0.5322(2)
H10_6 H 0.4067 0.9026 0.4609
C19_6 C 0.40995(10) 0.97309(7) 0.69722(19)
C20_6 C 0.36268(10) 0.95110(7) 0.7361(2)
H12_6 H 0.3525 0.9646 0.8083
N5_6 N 0.10837(7) 0.83182(5) 0.76224(14)
N7_6 N 0.19995(7) 0.86850(5) 0.65372(14)
N8_3 N 0.09510(12) 0.92744(9) 0.1667(2)
C21_6 C 0.24757(8) 0.88849(6) 0.62629(18)
C22_6 C 0.25994(10) 0.91612(7) 0.4952(2)
H13_6 H 0.2905 0.9331 0.4530
C23_6 C 0.21993(10) 0.91317(7) 0.4439(2)
H14_6 H 0.2170 0.9277 0.3587
C24_6 C 0.18265(8) 0.88375(6) 0.54326(18)
C25_6 C 0.13642(8) 0.87498(6) 0.53192(18)
C26_6 C 0.12313(8) 0.89402(6) 0.4043(2)
C27_6 C 0.10978(11) 0.92800(8) 0.4212(3)
H15_6 H 0.1098 0.9403 0.5142
C28_3 C 0.09641(13) 0.94356(10) 0.3000(3)
H16_3 H 0.0877 0.9670 0.3129
C29_3 C 0.10804(13) 0.89486(9) 0.1510(2)
H17_3 H 0.1072 0.8828 0.0568
C30_3 C 0.12257(11) 0.87780(8) 0.2646(2)
H18_3 H 0.1321 0.8551 0.2477
C31_6 C 0.10185(8) 0.84997(6) 0.63543(18)
C32_6 C 0.05305(10) 0.83776(7) 0.6206(2)
H19_6 H 0.0397 0.8462 0.5430
C33_6 C 0.03006(10) 0.81198(7) 0.7381(2)
C34_6 C 0.06452(8) 0.80806(6) 0.82525(18)
C35_6 C 0.05364(8) 0.78265(6) 0.95385(18)
C36_6 C 0.00285(8) 0.75734(6) 0.99777(18)
N9_6 N 0.19590(9) 0.90681(7) 0.92950(15)
N6_6 N 0.90681(7) 0.71090(5) 0.07050(15)
C37_6 C 0.98588(10) 0.77538(7) 0.1026(2)
C38_6 C 0.93790(10) 0.75115(7) 0.1344(2)
H22_6 H 0.9267 0.7640 0.2057
H23_5 H 0.0017 0.5702 0.2557
N1_7 N 0.83182(5) 0.72346(5) 0.23776(14)
N3_5 N 0.86850(5) 0.66856(5) 0.34628(14)
N4_3 N 0.92744(9) 0.83235(8) 0.8333(2)
C1_5 C 0.88849(6) 0.64093(6) 0.37371(18)
C2_5 C 0.91612(7) 0.65619(7) 0.5048(2)
H1_5 H 0.9331 0.6427 0.5470
C3_5 C 0.91317(7) 0.69325(7) 0.5561(2)
H2_5 H 0.9277 0.7108 0.6413
C4_5 C 0.88375(6) 0.70111(6) 0.45674(18)
C5_5 C 0.87498(6) 0.73857(6) 0.46808(18)
C6_5 C 0.89402(6) 0.77090(6) 0.5957(2)
C7_5 C 0.92800(8) 0.81823(8) 0.5788(3)
H3_5 H 0.9403 0.8306 0.4858
C8_3 C 0.94356(10) 0.84716(9) 0.7000(3)
H4_3 H 0.9670 0.8794 0.6871
C9_3 C 0.89486(9) 0.78683(9) 0.8490(2)
H5_3 H 0.8828 0.7757 0.9432
C10_3 C 0.87780(8) 0.75524(8) 0.7354(2)
H6_3 H 0.8551 0.7231 0.7523
C11_5 C 0.84997(6) 0.74813(6) 0.36457(18)
C12_5 C 0.83776(7) 0.78472(7) 0.3794(2)
H7_5 H 0.8462 0.8066 0.4570
C13_7 C 0.81198(7) 0.78193(7) 0.2619(2)
H8_7 H 0.7989 0.8015 0.2407
C14_7 C 0.80806(6) 0.74355(6) 0.17475(18)
C15_7 C 0.78265(6) 0.72902(6) 0.04615(18)
C16_7 C 0.75734(6) 0.75450(6) 0.00223(18)
C19_7 C 0.69357(7) 0.77019(7) 0.03056(19)
H11_7 H 0.6649 0.7632 0.0777
C20_7 C 0.71556(7) 0.74491(7) 0.0695(2)
H12_7 H 0.7020 0.7212 0.1417
N5_7 N 0.83484(5) 0.60988(5) 0.09558(14)
C33_7 C 0.85468(7) 0.55141(7) 0.0715(2)
H20_5 H 0.8677 0.5319 0.0927
C34_7 C 0.85860(6) 0.58979(6) 0.15859(18)
C35_7 C 0.88401(6) 0.60432(6) 0.28719(18)
C36_7 C 0.90932(6) 0.57884(6) 0.33111(18)
C37_7 C 0.89128(7) 0.54383(7) 0.4360(2)
H21_5 H 0.8628 0.5362 0.4853
C38_7 C 0.91551(7) 0.52008(7) 0.4678(2)
H22_7 H 0.9026 0.4960 0.5391
C39_5 C 0.97309(7) 0.56315(7) 0.30278(19)
C40_5 C 0.95110(7) 0.58843(7) 0.2639(2)
H24_5 H 0.9646 0.6122 0.1917
C17_7 C 0.77538(7) 0.78951(7) 0.8974(2)
H9_7 H 0.8038 0.7972 0.8481
C18_7 C 0.75115(7) 0.81326(7) 0.8656(2)
H10_7 H 0.7640 0.8374 0.7943
N7_7 N 0.79816(5) 0.66478(5) 0.98706(14)
N8_4 N 0.73922(9) 0.50099(8) 0.5001(2)
C21_7 C 0.77817(6) 0.69241(6) 0.95963(18)
C22_7 C 0.75054(7) 0.67715(7) 0.8286(2)
H13_7 H 0.7335 0.6907 0.7864
C23_7 C 0.75349(7) 0.64009(7) 0.7773(2)
H14_7 H 0.7389 0.6226 0.6921
C24_7 C 0.78291(6) 0.63223(6) 0.87660(18)
C25_7 C 0.79168(6) 0.59477(6) 0.86526(18)
C26_7 C 0.77264(6) 0.56244(6) 0.7377(2)
C27_7 C 0.73866(8) 0.51511(8) 0.7546(3)
H15_7 H 0.7263 0.5028 0.8476
C28_4 C 0.72310(10) 0.48618(9) 0.6334(3)
H16_4 H 0.6996 0.4540 0.6463
C29_4 C 0.77180(9) 0.54651(9) 0.4844(2)
H17_4 H 0.7838 0.5577 0.3902
C30_4 C 0.78886(8) 0.57810(8) 0.5980(2)
H18_4 H 0.8115 0.6103 0.5811
C31_7 C 0.81669(6) 0.58521(6) 0.96877(18)
C32_7 C 0.82890(7) 0.54862(7) 0.9540(2)
H19_7 H 0.8204 0.5268 0.8764
N1_8 N 0.27654(5) 0.10837(7) 0.23776(14)
N3_6 N 0.33144(5) 0.19995(7) 0.34628(14)
N4_4 N 0.16765(8) 0.09510(12) 0.8333(2)
C1_6 C 0.35907(6) 0.24757(8) 0.37371(18)
C2_6 C 0.34381(7) 0.25994(10) 0.5048(2)
H1_6 H 0.3573 0.2905 0.5470
C3_6 C 0.30675(7) 0.21993(10) 0.5561(2)
H2_6 H 0.2892 0.2170 0.6413
C4_6 C 0.29889(6) 0.18265(8) 0.45674(18)
C5_6 C 0.26143(6) 0.13642(8) 0.46808(18)
C6_6 C 0.22910(6) 0.12313(8) 0.5957(2)
C7_6 C 0.18177(8) 0.10978(11) 0.5788(3)
H3_6 H 0.1694 0.1098 0.4858
C8_4 C 0.15284(9) 0.09641(13) 0.7000(3)
H4_4 H 0.1206 0.0877 0.6871
C9_4 C 0.21317(9) 0.10804(13) 0.8490(2)
H5_4 H 0.2243 0.1072 0.9432
C10_4 C 0.24476(8) 0.12257(11) 0.7354(2)
H6_4 H 0.2769 0.1321 0.7523
C11_6 C 0.25187(6) 0.10185(8) 0.36457(18)
C12_6 C 0.21528(7) 0.05305(10) 0.3794(2)
H7_6 H 0.1934 0.0397 0.4570
C13_8 C 0.21807(7) 0.03006(10) 0.2619(2)
C14_8 C 0.25645(6) 0.06452(8) 0.17475(18)
C15_8 C 0.27098(6) 0.05364(8) 0.04615(18)
C16_8 C 0.24550(6) 0.00285(8) 0.00223(18)
N5_8 N 0.39012(5) 0.22497(7) 0.09558(14)
C33_8 C 0.44859(7) 0.30328(10) 0.0715(2)
H20_6 H 0.4681 0.3359 0.0927
C34_8 C 0.41021(6) 0.26882(8) 0.15859(18)
C35_8 C 0.39568(6) 0.27970(8) 0.28719(18)
C36_8 C 0.42116(6) 0.33049(8) 0.33111(18)
C37_8 C 0.45617(7) 0.34746(10) 0.4360(2)
H21_6 H 0.4638 0.3267 0.4853
C38_8 C 0.47992(7) 0.39544(10) 0.4678(2)
H22_8 H 0.5040 0.4067 0.5391
C39_6 C 0.43685(7) 0.40995(10) 0.30278(19)
H23_6 H 0.4298 0.4316 0.2557
C40_6 C 0.41157(7) 0.36268(10) 0.2639(2)
H24_6 H 0.3878 0.3525 0.1917
C17_8 C 0.21049(7) 0.98588(10) 0.8974(2)
C18_8 C 0.18674(7) 0.93790(10) 0.8656(2)
H10_8 H 0.1626 0.9267 0.7943
C17_9 C 0.01412(10) 0.22462(7) 0.8974(2)
C18_9 C 0.06210(10) 0.24885(7) 0.8656(2)
H10_9 H 0.0733 0.2360 0.7943
N1_9 N 0.89163(7) 0.16818(5) 0.23776(14)
N3_7 N 0.80005(7) 0.13150(5) 0.34628(14)
N4_5 N 0.90490(12) 0.07256(9) 0.8333(2)
C1_7 C 0.75243(8) 0.11151(6) 0.37371(18)
C2_7 C 0.74006(10) 0.08388(7) 0.5048(2)
H1_7 H 0.7095 0.0669 0.5470
C3_7 C 0.78007(10) 0.08683(7) 0.5561(2)
H2_7 H 0.7830 0.0723 0.6413
C4_7 C 0.81735(8) 0.11625(6) 0.45674(18)
C5_7 C 0.86358(8) 0.12502(6) 0.46808(18)
C6_7 C 0.87687(8) 0.10598(6) 0.5957(2)
C7_7 C 0.89022(11) 0.07200(8) 0.5788(3)
H3_7 H 0.8902 0.0597 0.4858
C8_5 C 0.90359(13) 0.05644(10) 0.7000(3)
H4_5 H 0.9123 0.0330 0.6871
C9_5 C 0.89196(13) 0.10514(9) 0.8490(2)
H5_5 H 0.8928 0.1172 0.9432
C10_5 C 0.87743(11) 0.12220(8) 0.7354(2)
H6_5 H 0.8679 0.1449 0.7523
C11_7 C 0.89815(8) 0.15003(6) 0.36457(18)
C12_7 C 0.94695(10) 0.16224(7) 0.3794(2)
H7_7 H 0.9603 0.1538 0.4570
C13_9 C 0.96994(10) 0.18802(7) 0.2619(2)
C14_9 C 0.93548(8) 0.19194(6) 0.17475(18)
C15_9 C 0.94636(8) 0.21735(6) 0.04615(18)
C16_9 C 0.99715(8) 0.24266(6) 0.00223(18)
N5_9 N 0.77503(7) 0.16516(5) 0.09558(14)
C33_9 C 0.69672(10) 0.14532(7) 0.0715(2)
H20_7 H 0.6641 0.1323 0.0927
C34_9 C 0.73118(8) 0.14140(6) 0.15859(18)
C35_9 C 0.72030(8) 0.11599(6) 0.28719(18)
C36_9 C 0.66951(8) 0.09068(6) 0.33111(18)
C37_9 C 0.65254(10) 0.10872(7) 0.4360(2)
H21_7 H 0.6733 0.1372 0.4853
C38_9 C 0.60456(10) 0.08449(7) 0.4678(2)
H22_9 H 0.5933 0.0974 0.5391
C39_7 C 0.59005(10) 0.02691(7) 0.30278(19)
C40_7 C 0.63732(10) 0.04890(7) 0.2639(2)
H24_7 H 0.6475 0.0354 0.1917
H23_7 H 0.5684 0.9983 0.2557
N8_5 N 0.40589(9) 0.83432(8) 0.8334(2)
C28_5 C 0.38977(10) 0.81951(9) 0.9667(3)
H16_5 H 0.3663 0.7873 0.9796
C29_5 C 0.43847(9) 0.87984(9) 0.8177(2)
H17_5 H 0.4505 0.8910 0.7235
C30_5 C 0.45553(8) 0.91143(8) 0.9313(2)
H18_5 H 0.4782 0.9436 0.9144
N8_6 N 0.16568(8) 0.57157(12) 0.8334(2)
C28_6 C 0.18049(9) 0.57026(13) 0.9667(3)
H16_6 H 0.2127 0.5790 0.9796
C29_6 C 0.12016(9) 0.55863(13) 0.8177(2)
H17_6 H 0.1090 0.5595 0.7235
C30_6 C 0.08857(8) 0.54410(11) 0.9313(2)
H18_6 H 0.0564 0.5346 0.9144
N4_6 N 0.83432(8) 0.42843(12) 0.1666(2)
C8_6 C 0.81951(9) 0.42974(13) 0.0333(3)
H4_6 H 0.7873 0.4210 0.0204
C9_6 C 0.87984(9) 0.44137(13) 0.1823(2)
H5_6 H 0.8910 0.4405 0.2765
C10_6 C 0.91143(8) 0.45590(11) 0.0687(2)
H6_6 H 0.9436 0.4654 0.0856
N4_7 N 0.57157(12) 0.40589(9) 0.1666(2)
C8_7 C 0.57026(13) 0.38977(10) 0.0333(3)
H4_7 H 0.5790 0.3663 0.0204
C9_7 C 0.55863(13) 0.43847(9) 0.1823(2)
H5_7 H 0.5595 0.4505 0.2765
C10_7 C 0.54410(11) 0.45553(8) 0.0687(2)
H6_7 H 0.5346 0.4782 0.0856
N8_7 N 0.42843(12) 0.59411(9) 0.8334(2)
C28_7 C 0.42974(13) 0.61023(10) 0.9667(3)
H16_7 H 0.4210 0.6337 0.9796
C29_7 C 0.44137(13) 0.56153(9) 0.8177(2)
H17_7 H 0.4405 0.5495 0.7235
C30_7 C 0.45590(11) 0.54447(8) 0.9313(2)
H18_7 H 0.4654 0.5218 0.9144
H20_8 H 0.8015 0.0025 0.7593
C39_8 C 0.77019(7) 0.07661(10) 0.96944(19)
H23_8 H 0.7632 0.0982 0.9223
C40_8 C 0.74491(7) 0.02934(10) 0.9305(2)
H24_8 H 0.7212 0.0191 0.8583
N3_8 N 0.66478(5) 0.86661(7) 0.01294(14)
N4_8 N 0.50099(8) 0.76176(12) 0.4999(2)
C1_8 C 0.69241(6) 0.91423(8) 0.04037(18)
C2_8 C 0.67715(7) 0.92660(10) 0.1714(2)
H1_8 H 0.6907 0.9571 0.2136
C3_8 C 0.64009(7) 0.88659(10) 0.2227(2)
H2_8 H 0.6226 0.8836 0.3079
C4_8 C 0.63223(6) 0.84931(8) 0.12340(18)
C5_8 C 0.59477(6) 0.80308(8) 0.13474(18)
C6_8 C 0.56244(6) 0.78979(8) 0.2623(2)
C7_8 C 0.51511(8) 0.77644(11) 0.2454(3)
H3_8 H 0.5028 0.7764 0.1524
C8_8 C 0.48618(9) 0.76307(13) 0.3666(3)
H4_8 H 0.4540 0.7543 0.3537
C9_8 C 0.54651(9) 0.77470(13) 0.5156(2)
H5_8 H 0.5577 0.7738 0.6098
C10_8 C 0.57810(8) 0.78923(11) 0.4020(2)
H6_8 H 0.6103 0.7987 0.4189
C11_8 C 0.58521(6) 0.76851(8) 0.03123(18)
C12_8 C 0.54862(7) 0.71971(10) 0.0460(2)
H7_8 H 0.5268 0.7063 0.1236
H21_8 H 0.7972 0.9933 0.1519
N3_9 N 0.13339(7) 0.79816(5) 0.01294(14)
N4_9 N 0.23824(12) 0.73922(9) 0.4999(2)
C1_9 C 0.08577(8) 0.77817(6) 0.04037(18)
C2_9 C 0.07340(10) 0.75054(7) 0.1714(2)
H1_9 H 0.0429 0.7335 0.2136
C3_9 C 0.11341(10) 0.75349(7) 0.2227(2)
H2_9 H 0.1164 0.7389 0.3079
C4_9 C 0.15069(8) 0.78291(6) 0.12340(18)
C5_9 C 0.19692(8) 0.79168(6) 0.13474(18)
C6_9 C 0.21021(8) 0.77264(6) 0.2623(2)
C7_9 C 0.22356(11) 0.73866(8) 0.2454(3)
H3_9 H 0.2236 0.7263 0.1524
C8_9 C 0.23693(13) 0.72310(10) 0.3666(3)
H4_9 H 0.2457 0.6996 0.3537
C9_9 C 0.22530(13) 0.77180(9) 0.5156(2)
H5_9 H 0.2262 0.7838 0.6098
C10_9 C 0.21077(11) 0.78886(8) 0.4020(2)
H6_9 H 0.2013 0.8115 0.4189
C11_9 C 0.23149(8) 0.81669(6) 0.03123(18)
C12_9 C 0.28029(10) 0.82890(7) 0.0460(2)
H7_9 H 0.2937 0.8204 0.1236
H21_9 H 0.0067 0.8038 0.1519
H20_9 H 0.9975 0.7989 0.7593
C39_9 C 0.92339(10) 0.69357(7) 0.96944(19)
H23_9 H 0.9018 0.6649 0.9223
C40_9 C 0.97066(10) 0.71556(7) 0.9305(2)
H24_9 H 0.9809 0.7020 0.8583
H9_8 H 0.2028 0.0067 0.8481
N7_8 N 0.33522(5) 0.13339(7) 0.98706(14)
N8_8 N 0.49901(8) 0.23824(12) 0.5001(2)
C21_8 C 0.30759(6) 0.08577(8) 0.95963(18)
C22_8 C 0.32285(7) 0.07340(10) 0.8286(2)
H13_8 H 0.3093 0.0429 0.7864
C23_8 C 0.35991(7) 0.11341(10) 0.7773(2)
H14_8 H 0.3774 0.1164 0.6921
C24_8 C 0.36777(6) 0.15069(8) 0.87660(18)
C25_8 C 0.40523(6) 0.19692(8) 0.86526(18)
C26_8 C 0.43756(6) 0.21021(8) 0.7377(2)
C27_8 C 0.48489(8) 0.22356(11) 0.7546(3)
H15_8 H 0.4972 0.2236 0.8476
C28_8 C 0.51382(9) 0.23693(13) 0.6334(3)
H16_8 H 0.5460 0.2457 0.6463
C29_8 C 0.45349(9) 0.22530(13) 0.4844(2)
H17_8 H 0.4423 0.2262 0.3902
C30_8 C 0.42190(8) 0.21077(11) 0.5980(2)
H18_8 H 0.3897 0.2013 0.5811
C31_8 C 0.41479(6) 0.23149(8) 0.96877(18)
C32_8 C 0.45138(7) 0.28029(10) 0.9540(2)
H19_8 H 0.4732 0.2937 0.8764
H8_8 H 0.1985 0.9975 0.2407
C19_8 C 0.22981(7) 0.92339(10) 0.03056(19)
H11_8 H 0.2368 0.9018 0.0777
C20_8 C 0.25509(7) 0.97066(10) 0.0695(2)
H12_8 H 0.2788 0.9809 0.1417
H8_9 H 0.0025 0.2011 0.2407
C19_9 C 0.07661(10) 0.30643(7) 0.03056(19)
H11_9 H 0.0982 0.3351 0.0777
C20_9 C 0.02934(10) 0.28444(7) 0.0695(2)
H12_9 H 0.0191 0.2980 0.1417
H9_9 H 0.9933 0.1962 0.8481
N7_9 N 0.86661(7) 0.20184(5) 0.98706(14)
N8_9 N 0.76176(12) 0.26078(9) 0.5001(2)
C21_9 C 0.91423(8) 0.22183(6) 0.95963(18)
C22_9 C 0.92660(10) 0.24946(7) 0.8286(2)
H13_9 H 0.9571 0.2665 0.7864
C23_9 C 0.88659(10) 0.24651(7) 0.7773(2)
H14_9 H 0.8836 0.2611 0.6921
C24_9 C 0.84931(8) 0.21709(6) 0.87660(18)
C25_9 C 0.80308(8) 0.20832(6) 0.86526(18)
C26_9 C 0.78979(8) 0.22736(6) 0.7377(2)
C27_9 C 0.77644(11) 0.26134(8) 0.7546(3)
H15_9 H 0.7764 0.2737 0.8476
C28_9 C 0.76307(13) 0.27690(10) 0.6334(3)
H16_9 H 0.7543 0.3004 0.6463
C29_9 C 0.77470(13) 0.22820(9) 0.4844(2)
H17_9 H 0.7738 0.2162 0.3902
C30_9 C 0.78923(11) 0.21114(8) 0.5980(2)
H18_9 H 0.7987 0.1885 0.5811
C31_9 C 0.76851(8) 0.18331(6) 0.96877(18)
C32_9 C 0.71971(10) 0.17110(7) 0.9540(2)
H19_9 H 0.7063 0.1796 0.8764
loop_
_geom_bond_atom_site_label_1
_geom_bond_atom_site_label_2
_geom_bond_site_symmetry_1
_geom_bond_site_symmetry_2
N4 C8 1_555 1_555
H4 C8 1_555 1_555
C9 N4 1_555 1_555
H5 C9 1_555 1_555
H6 C10 1_555 1_555
C9 C10 1_555 1_555
Co1 N1 1_555 1_555
N1 C11 1_555 1_555
N2 C18 1_555 1_555
N3 Co1 1_555 1_555
H2 C3 1_555 1_555
C4 N3 1_555 1_555
C5 C4 1_555 1_555
C6 C5 1_555 1_555
C7 C6 1_555 1_555
H3 C7 1_555 1_555
C11 C5 1_555 1_555
C12 C11 1_555 1_555
H7 C12 1_555 1_555
C13 C12 1_555 1_555
H8 C13 1_555 1_555
C14 N1 1_555 1_555
C15 C14 1_555 1_555
C16 C15 1_555 1_555
C17 C16 1_555 1_555
H9 C17 1_555 1_555
C18 C17 1_555 1_555
H10 C18 1_555 1_555
C19 N2 1_555 1_555
H11 C19 1_555 1_555
C20 C16 1_555 1_555
H12 C20 1_555 1_555
C21 C15 1_555 1_555
C22 C21 1_555 1_555
H13 C22 1_555 1_555
Co3 N2 1_555 1_555
N10 Co1 1_555 1_555
C3 C4 1_555 1_555
C13 C14 1_555 1_555
C19 C20 1_555 1_555
C2 C1 1_555 1_555
H1 C2 1_555 1_555
N5 Co1_2 1_555 1_555
N6 C38 1_555 1_555
N7 Co1_2 1_555 1_555
H14 C23 1_555 1_555
C24 N7 1_555 1_555
C25 C24 1_555 1_555
C26 C25 1_555 1_555
C27 C26 1_555 1_555
H15 C27 1_555 1_555
C31 N5 1_555 1_555
C32 C31 1_555 1_555
H19 C32 1_555 1_555
C33 C32 1_555 1_555
H20 C33 1_555 1_555
C34 N5 1_555 1_555
C35 C1 1_555 1_555
C36 C35 1_555 1_555
C37 C36 1_555 1_555
H21 C37 1_555 1_555
C38 C37 1_555 1_555
H22 C38 1_555 1_555
C39 N6 1_555 1_555
H23 C39 1_555 1_555
C40 C36 1_555 1_555
H24 C40 1_555 1_555
Co2 N6 1_555 1_555
N9 Co1_2 1_555 1_555
C23 C24 1_555 1_555
C25 C31 1_555 1_555
C33 C34 1_555 1_555
C34 C35 1_555 1_555
C39 C40 1_555 1_555
C2_2 C1_2 1_555 1_555
H1_2 C2_2 1_555 1_555
N5_2 Co1_3 1_555 1_555
N6_2 C38_2 1_555 1_555
N7_2 Co1_3 1_555 1_555
H14_2 C23_2 1_555 1_555
C24_2 N7_2 1_555 1_555
C25_2 C24_2 1_555 1_555
C26_2 C25_2 1_555 1_555
C27_2 C26_2 1_555 1_555
H15_2 C27_2 1_555 1_555
C31_2 N5_2 1_555 1_555
C32_2 C31_2 1_555 1_555
H19_2 C32_2 1_555 1_555
C33_2 C32_2 1_555 1_555
H20_2 C33_2 1_555 1_555
C34_2 N5_2 1_555 1_555
C35_2 C1_2 1_555 1_555
C36_2 C35_2 1_555 1_555
C37_2 C36_2 1_555 1_555
H21_2 C37_2 1_555 1_555
C38_2 C37_2 1_555 1_555
H22_2 C38_2 1_555 1_555
C39_2 N6_2 1_555 1_555
H23_2 C39_2 1_555 1_555
C40_2 C36_2 1_555 1_555
H24_2 C40_2 1_555 1_555
Co2_2 N6_2 1_555 1_555
N9_2 Co1_3 1_555 1_555
C23_2 C24_2 1_555 1_555
C25_2 C31_2 1_555 1_555
C33_2 C34_2 1_555 1_555
C34_2 C35_2 1_555 1_555
C39_2 C40_2 1_555 1_555
Co1_4 N1_2 1_555 1_555
N1_2 C11_2 1_555 1_555
N2_2 C18_2 1_555 1_555
N3_2 Co1_4 1_555 1_555
H2_2 C3_2 1_555 1_555
C4_2 N3_2 1_555 1_555
C5_2 C4_2 1_555 1_555
C6_2 C5_2 1_555 1_555
C7_2 C6_2 1_555 1_555
H3_2 C7_2 1_555 1_555
C11_2 C5_2 1_555 1_555
C12_2 C11_2 1_555 1_555
H7_2 C12_2 1_555 1_555
C13_2 C12_2 1_555 1_555
H8_2 C13_2 1_555 1_555
C14_2 N1_2 1_555 1_555
C15_2 C14_2 1_555 1_555
C16_2 C15_2 1_555 1_555
C17_2 C16_2 1_555 1_555
H9_2 C17_2 1_555 1_555
C18_2 C17_2 1_555 1_555
H10_2 C18_2 1_555 1_555
C19_2 N2_2 1_555 1_555
H11_2 C19_2 1_555 1_555
C20_2 C16_2 1_555 1_555
H12_2 C20_2 1_555 1_555
C21_2 C15_2 1_555 1_555
C22_2 C21_2 1_555 1_555
H13_2 C22_2 1_555 1_555
Co3_2 N2_2 1_555 1_555
N10_2 Co1_4 1_555 1_555
C3_2 C4_2 1_555 1_555
C13_2 C14_2 1_555 1_555
C19_2 C20_2 1_555 1_555
Co1_5 N1_3 1_555 1_555
N1_3 C11_3 1_555 1_555
N2_3 C18_3 1_555 1_555
N3_3 Co1_5 1_555 1_555
C1_3 N3_3 1_555 1_555
C2_3 C1_3 1_555 1_555
H1_3 C2_3 1_555 1_555
C3_3 C2_3 1_555 1_555
H2_3 C3_3 1_555 1_555
C4_3 N3_3 1_555 1_555
C5_3 C4_3 1_555 1_555
C6_3 C5_3 1_555 1_555
C7_3 C6_3 1_555 1_555
H3_3 C7_3 1_555 1_555
C11_3 C5_3 1_555 1_555
C12_3 C11_3 1_555 1_555
H7_3 C12_3 1_555 1_555
C13_3 C12_3 1_555 1_555
H8_3 C13_3 1_555 1_555
C14_3 N1_3 1_555 1_555
C15_3 C14_3 1_555 1_555
C16_3 C15_3 1_555 1_555
C17_3 C16_3 1_555 1_555
H9_3 C17_3 1_555 1_555
C18_3 C17_3 1_555 1_555
H10_3 C18_3 1_555 1_555
C19_3 N2_3 1_555 1_555
H11_3 C19_3 1_555 1_555
C20_3 C16_3 1_555 1_555
H12_3 C20_3 1_555 1_555
N5_3 Co1_5 1_555 1_555
N6_3 C38_3 1_555 1_555
N7_3 Co1_5 1_555 1_555
C21_3 C15_3 1_555 1_555
C22_3 C21_3 1_555 1_555
H13_3 C22_3 1_555 1_555
C23_3 C22_3 1_555 1_555
H14_3 C23_3 1_555 1_555
C24_3 N7_3 1_555 1_555
C25_3 C24_3 1_555 1_555
C26_3 C25_3 1_555 1_555
C27_3 C26_3 1_555 1_555
H15_3 C27_3 1_555 1_555
C31_3 N5_3 1_555 1_555
C32_3 C31_3 1_555 1_555
H19_3 C32_3 1_555 1_555
C33_3 C32_3 1_555 1_555
H20_3 C33_3 1_555 1_555
C34_3 N5_3 1_555 1_555
C35_3 C1_3 1_555 1_555
C36_3 C35_3 1_555 1_555
C37_3 C36_3 1_555 1_555
H21_3 C37_3 1_555 1_555
C38_3 C37_3 1_555 1_555
H22_3 C38_3 1_555 1_555
C39_3 N6_3 1_555 1_555
H23_3 C39_3 1_555 1_555
C40_3 C36_3 1_555 1_555
H24_3 C40_3 1_555 1_555
Co2_3 N6_3 1_555 1_555
Co3_3 N2_3 1_555 1_555
N9_3 Co1_5 1_555 1_555
N10_3 Co1_5 1_555 1_555
C3_3 C4_3 1_555 1_555
C13_3 C14_3 1_555 1_555
C19_3 C20_3 1_555 1_555
N7_3 C21_3 1_555 1_555
C23_3 C24_3 1_555 1_555
C25_3 C31_3 1_555 1_555
C33_3 C34_3 1_555 1_555
C34_3 C35_3 1_555 1_555
C39_3 C40_3 1_555 1_555
N4_2 C8_2 1_555 1_555
C1_4 N3_4 1_555 1_555
C2_4 C1_4 1_555 1_555
H1_4 C2_4 1_555 1_555
C3_4 C2_4 1_555 1_555
H2_4 C3_4 1_555 1_555
C4_4 N3_4 1_555 1_555
C5_4 C4_4 1_555 1_555
C6_4 C5_4 1_555 1_555
C7_4 C6_4 1_555 1_555
H3_4 C7_4 1_555 1_555
C8_2 C7_4 1_555 1_555
H4_2 C8_2 1_555 1_555
C9_2 N4_2 1_555 1_555
H5_2 C9_2 1_555 1_555
C10_2 C6_4 1_555 1_555
H6_2 C10_2 1_555 1_555
C11_4 C5_4 1_555 1_555
C12_4 C11_4 1_555 1_555
H7_4 C12_4 1_555 1_555
N6_4 C38_4 1_555 1_555
H21_4 C37_4 1_555 1_555
C38_4 C37_4 1_555 1_555
H22_4 C38_4 1_555 1_555
Co3 N6_4 1_555 1_555
C3_4 C4_4 1_555 1_555
C9_2 C10_2 1_555 1_555
Co2_3 N1_4 1_555 1_555
N9_2 C18_4 1_555 1_555
H8_4 C13_4 1_555 1_555
C14_4 N1_4 1_555 1_555
C15_4 C14_4 1_555 1_555
C16_4 C15_4 1_555 1_555
C17_4 C16_4 1_555 1_555
H9_4 C17_4 1_555 1_555
C18_4 C17_4 1_555 1_555
H10_4 C18_4 1_555 1_555
C19_4 N9_2 1_555 1_555
C20_4 C16_4 1_555 1_555
H12_4 C20_4 1_555 1_555
N5_4 Co2_3 1_555 1_555
N7_4 Co2_3 1_555 1_555
N8 C28 1_555 1_555
C21_4 C15_4 1_555 1_555
C22_4 C21_4 1_555 1_555
H13_4 C22_4 1_555 1_555
C23_4 C22_4 1_555 1_555
H14_4 C23_4 1_555 1_555
C24_4 N7_4 1_555 1_555
C25_4 C24_4 1_555 1_555
C26_4 C25_4 1_555 1_555
C27_4 C26_4 1_555 1_555
H15_4 C27_4 1_555 1_555
C28 C27_4 1_555 1_555
H16 C28 1_555 1_555
C29 N8 1_555 1_555
H17 C29 1_555 1_555
C30 C26_4 1_555 1_555
H18 C30 1_555 1_555
C31_4 N5_4 1_555 1_555
C32_4 C31_4 1_555 1_555
H19_4 C32_4 1_555 1_555
C33_4 C32_4 1_555 1_555
H20_4 C33_4 1_555 1_555
C34_4 N5_4 1_555 1_555
C36_4 C35_4 1_555 1_555
H23_4 C39_4 1_555 1_555
C40_4 C36_4 1_555 1_555
H24_4 C40_4 1_555 1_555
N9_4 Co2_3 1_555 1_555
C13_4 C14_4 1_555 1_555
C19_4 C20_4 1_555 1_555
N7_4 C21_4 1_555 1_555
C23_4 C24_4 1_555 1_555
C25_4 C31_4 1_555 1_555
C29 C30 1_555 1_555
C33_4 C34_4 1_555 1_555
C34_4 C35_4 1_555 1_555
C39_4 C40_4 1_555 1_555
N6_5 C38_5 1_555 1_555
C38_5 C37_5 1_555 1_555
H22_5 C38_5 1_555 1_555
Co3_2 N6_5 1_555 1_555
Co2 N1_5 1_555 1_555
N9_3 C18_5 1_555 1_555
H8_5 C13_5 1_555 1_555
C14_5 N1_5 1_555 1_555
C15_5 C14_5 1_555 1_555
C16_5 C15_5 1_555 1_555
C17_5 C16_5 1_555 1_555
H9_5 C17_5 1_555 1_555
C18_5 C17_5 1_555 1_555
H10_5 C18_5 1_555 1_555
C19_5 N9_3 1_555 1_555
H11_5 C19_5 1_555 1_555
C20_5 C16_5 1_555 1_555
H12_5 C20_5 1_555 1_555
N5_5 Co2 1_555 1_555
N7_5 Co2 1_555 1_555
N8_2 C28_2 1_555 1_555
C21_5 C15_5 1_555 1_555
C22_5 C21_5 1_555 1_555
H13_5 C22_5 1_555 1_555
C23_5 C22_5 1_555 1_555
H14_5 C23_5 1_555 1_555
C24_5 N7_5 1_555 1_555
C25_5 C24_5 1_555 1_555
C26_5 C25_5 1_555 1_555
C27_5 C26_5 1_555 1_555
H15_5 C27_5 1_555 1_555
C28_2 C27_5 1_555 1_555
H16_2 C28_2 1_555 1_555
C29_2 N8_2 1_555 1_555
H17_2 C29_2 1_555 1_555
C30_2 C26_5 1_555 1_555
H18_2 C30_2 1_555 1_555
C31_5 N5_5 1_555 1_555
C32_5 C31_5 1_555 1_555
H19_5 C32_5 1_555 1_555
C33_5 C32_5 1_555 1_555
C34_5 N5_5 1_555 1_555
C36_5 C35_5 1_555 1_555
N9_5 Co2 1_555 1_555
C13_5 C14_5 1_555 1_555
C19_5 C20_5 1_555 1_555
N7_5 C21_5 1_555 1_555
C23_5 C24_5 1_555 1_555
C25_5 C31_5 1_555 1_555
C29_2 C30_2 1_555 1_555
C33_5 C34_5 1_555 1_555
C34_5 C35_5 1_555 1_555
Co2_2 N1_6 1_555 1_555
N9 C18_6 1_555 1_555
H8_6 C13_6 1_555 1_555
C14_6 N1_6 1_555 1_555
C15_6 C14_6 1_555 1_555
C16_6 C15_6 1_555 1_555
C17_6 C16_6 1_555 1_555
H9_6 C17_6 1_555 1_555
C18_6 C17_6 1_555 1_555
H10_6 C18_6 1_555 1_555
C19_6 N9 1_555 1_555
C20_6 C16_6 1_555 1_555
H12_6 C20_6 1_555 1_555
N5_6 Co2_2 1_555 1_555
N7_6 Co2_2 1_555 1_555
N8_3 C28_3 1_555 1_555
C21_6 C15_6 1_555 1_555
C22_6 C21_6 1_555 1_555
H13_6 C22_6 1_555 1_555
C23_6 C22_6 1_555 1_555
H14_6 C23_6 1_555 1_555
C24_6 N7_6 1_555 1_555
C25_6 C24_6 1_555 1_555
C26_6 C25_6 1_555 1_555
C27_6 C26_6 1_555 1_555
H15_6 C27_6 1_555 1_555
C28_3 C27_6 1_555 1_555
H16_3 C28_3 1_555 1_555
C29_3 N8_3 1_555 1_555
H17_3 C29_3 1_555 1_555
C30_3 C26_6 1_555 1_555
H18_3 C30_3 1_555 1_555
C31_6 N5_6 1_555 1_555
C32_6 C31_6 1_555 1_555
H19_6 C32_6 1_555 1_555
C33_6 C32_6 1_555 1_555
C34_6 N5_6 1_555 1_555
C36_6 C35_6 1_555 1_555
N9_6 Co2_2 1_555 1_555
C13_6 C14_6 1_555 1_555
C19_6 C20_6 1_555 1_555
N7_6 C21_6 1_555 1_555
C23_6 C24_6 1_555 1_555
C25_6 C31_6 1_555 1_555
C29_3 C30_3 1_555 1_555
C33_6 C34_6 1_555 1_555
C34_6 C35_6 1_555 1_555
N6_6 C38_6 1_555 1_555
C38_6 C37_6 1_555 1_555
H22_6 C38_6 1_555 1_555
Co3_3 N6_6 1_555 1_555
Co3_3 N1_7 1_555 1_555
N1_7 C11_5 1_555 1_555
N3_5 Co3_3 1_555 1_555
N4_3 C8_3 1_555 1_555
C1_5 N3_5 1_555 1_555
C2_5 C1_5 1_555 1_555
H1_5 C2_5 1_555 1_555
C3_5 C2_5 1_555 1_555
H2_5 C3_5 1_555 1_555
C4_5 N3_5 1_555 1_555
C5_5 C4_5 1_555 1_555
C6_5 C5_5 1_555 1_555
C7_5 C6_5 1_555 1_555
H3_5 C7_5 1_555 1_555
C8_3 C7_5 1_555 1_555
H4_3 C8_3 1_555 1_555
C9_3 N4_3 1_555 1_555
H5_3 C9_3 1_555 1_555
C10_3 C6_5 1_555 1_555
H6_3 C10_3 1_555 1_555
C11_5 C5_5 1_555 1_555
C12_5 C11_5 1_555 1_555
H7_5 C12_5 1_555 1_555
C13_7 C12_5 1_555 1_555
H8_7 C13_7 1_555 1_555
C14_7 N1_7 1_555 1_555
C15_7 C14_7 1_555 1_555
C16_7 C15_7 1_555 1_555
H11_7 C19_7 1_555 1_555
C20_7 C16_7 1_555 1_555
H12_7 C20_7 1_555 1_555
N5_7 Co3_3 1_555 1_555
N10_2 C38_7 1_555 1_555
H20_5 C33_7 1_555 1_555
C34_7 N5_7 1_555 1_555
C35_7 C1_5 1_555 1_555
C36_7 C35_7 1_555 1_555
C37_7 C36_7 1_555 1_555
H21_5 C37_7 1_555 1_555
C38_7 C37_7 1_555 1_555
H22_7 C38_7 1_555 1_555
C39_5 N10_2 1_555 1_555
C40_5 C36_7 1_555 1_555
H24_5 C40_5 1_555 1_555
C3_5 C4_5 1_555 1_555
C9_3 C10_3 1_555 1_555
C13_7 C14_7 1_555 1_555
C19_7 C20_7 1_555 1_555
C33_7 C34_7 1_555 1_555
C34_7 C35_7 1_555 1_555
C39_5 C40_5 1_555 1_555
N9_5 C18_7 1_555 1_555
H9_7 C17_7 1_555 1_555
C18_7 C17_7 1_555 1_555
H10_7 C18_7 1_555 1_555
N8_4 C28_4 1_555 1_555
C22_7 C21_7 1_555 1_555
H13_7 C22_7 1_555 1_555
C23_7 C22_7 1_555 1_555
H14_7 C23_7 1_555 1_555
C24_7 N7_7 1_555 1_555
C25_7 C24_7 1_555 1_555
C26_7 C25_7 1_555 1_555
C27_7 C26_7 1_555 1_555
H15_7 C27_7 1_555 1_555
C28_4 C27_7 1_555 1_555
H16_4 C28_4 1_555 1_555
C29_4 N8_4 1_555 1_555
H17_4 C29_4 1_555 1_555
C30_4 C26_7 1_555 1_555
H18_4 C30_4 1_555 1_555
C32_7 C31_7 1_555 1_555
H19_7 C32_7 1_555 1_555
N7_7 C21_7 1_555 1_555
C23_7 C24_7 1_555 1_555
C25_7 C31_7 1_555 1_555
C29_4 C30_4 1_555 1_555
Co3 N1_8 1_555 1_555
N1_8 C11_6 1_555 1_555
N3_6 Co3 1_555 1_555
N4_4 C8_4 1_555 1_555
C1_6 N3_6 1_555 1_555
C2_6 C1_6 1_555 1_555
H1_6 C2_6 1_555 1_555
C3_6 C2_6 1_555 1_555
H2_6 C3_6 1_555 1_555
C4_6 N3_6 1_555 1_555
C5_6 C4_6 1_555 1_555
C6_6 C5_6 1_555 1_555
C7_6 C6_6 1_555 1_555
H3_6 C7_6 1_555 1_555
C8_4 C7_6 1_555 1_555
H4_4 C8_4 1_555 1_555
C9_4 N4_4 1_555 1_555
H5_4 C9_4 1_555 1_555
C10_4 C6_6 1_555 1_555
H6_4 C10_4 1_555 1_555
C11_6 C5_6 1_555 1_555
C12_6 C11_6 1_555 1_555
H7_6 C12_6 1_555 1_555
C13_8 C12_6 1_555 1_555
C14_8 N1_8 1_555 1_555
C15_8 C14_8 1_555 1_555
C16_8 C15_8 1_555 1_555
N5_8 Co3 1_555 1_555
N10_3 C38_8 1_555 1_555
H20_6 C33_8 1_555 1_555
C34_8 N5_8 1_555 1_555
C35_8 C1_6 1_555 1_555
C36_8 C35_8 1_555 1_555
C37_8 C36_8 1_555 1_555
H21_6 C37_8 1_555 1_555
C38_8 C37_8 1_555 1_555
H22_8 C38_8 1_555 1_555
C39_6 N10_3 1_555 1_555
H23_6 C39_6 1_555 1_555
C40_6 C36_8 1_555 1_555
H24_6 C40_6 1_555 1_555
C3_6 C4_6 1_555 1_555
C9_4 C10_4 1_555 1_555
C13_8 C14_8 1_555 1_555
C33_8 C34_8 1_555 1_555
C34_8 C35_8 1_555 1_555
C39_6 C40_6 1_555 1_555
N9_6 C18_8 1_555 1_555
C18_8 C17_8 1_555 1_555
H10_8 C18_8 1_555 1_555
N9_4 C18_9 1_555 1_555
C18_9 C17_9 1_555 1_555
H10_9 C18_9 1_555 1_555
Co3_2 N1_9 1_555 1_555
N1_9 C11_7 1_555 1_555
N3_7 Co3_2 1_555 1_555
N4_5 C8_5 1_555 1_555
C1_7 N3_7 1_555 1_555
C2_7 C1_7 1_555 1_555
H1_7 C2_7 1_555 1_555
C3_7 C2_7 1_555 1_555
H2_7 C3_7 1_555 1_555
C4_7 N3_7 1_555 1_555
C5_7 C4_7 1_555 1_555
C6_7 C5_7 1_555 1_555
C7_7 C6_7 1_555 1_555
H3_7 C7_7 1_555 1_555
C8_5 C7_7 1_555 1_555
H4_5 C8_5 1_555 1_555
C9_5 N4_5 1_555 1_555
H5_5 C9_5 1_555 1_555
C10_5 C6_7 1_555 1_555
H6_5 C10_5 1_555 1_555
C11_7 C5_7 1_555 1_555
C12_7 C11_7 1_555 1_555
H7_7 C12_7 1_555 1_555
C13_9 C12_7 1_555 1_555
C14_9 N1_9 1_555 1_555
C15_9 C14_9 1_555 1_555
C16_9 C15_9 1_555 1_555
N5_9 Co3_2 1_555 1_555
N10 C38_9 1_555 1_555
H20_7 C33_9 1_555 1_555
C34_9 N5_9 1_555 1_555
C35_9 C1_7 1_555 1_555
C36_9 C35_9 1_555 1_555
C37_9 C36_9 1_555 1_555
H21_7 C37_9 1_555 1_555
C38_9 C37_9 1_555 1_555
H22_9 C38_9 1_555 1_555
C39_7 N10 1_555 1_555
C40_7 C36_9 1_555 1_555
H24_7 C40_7 1_555 1_555
C3_7 C4_7 1_555 1_555
C9_5 C10_5 1_555 1_555
C13_9 C14_9 1_555 1_555
C33_9 C34_9 1_555 1_555
C34_9 C35_9 1_555 1_555
C39_7 C40_7 1_555 1_555
N8_5 C28_5 1_555 1_555
H16_5 C28_5 1_555 1_555
C29_5 N8_5 1_555 1_555
H17_5 C29_5 1_555 1_555
H18_5 C30_5 1_555 1_555
C29_5 C30_5 1_555 1_555
N8_6 C28_6 1_555 1_555
H16_6 C28_6 1_555 1_555
C29_6 N8_6 1_555 1_555
H17_6 C29_6 1_555 1_555
H18_6 C30_6 1_555 1_555
C29_6 C30_6 1_555 1_555
N4_6 C8_6 1_555 1_555
H4_6 C8_6 1_555 1_555
C9_6 N4_6 1_555 1_555
H5_6 C9_6 1_555 1_555
H6_6 C10_6 1_555 1_555
C9_6 C10_6 1_555 1_555
N4_7 C8_7 1_555 1_555
H4_7 C8_7 1_555 1_555
C9_7 N4_7 1_555 1_555
H5_7 C9_7 1_555 1_555
H6_7 C10_7 1_555 1_555
C9_7 C10_7 1_555 1_555
N8_7 C28_7 1_555 1_555
H16_7 C28_7 1_555 1_555
C29_7 N8_7 1_555 1_555
H17_7 C29_7 1_555 1_555
H18_7 C30_7 1_555 1_555
C29_7 C30_7 1_555 1_555
H23_8 C39_8 1_555 1_555
H24_8 C40_8 1_555 1_555
C39_8 C40_8 1_555 1_555
N4_8 C8_8 1_555 1_555
C1_8 N3_8 1_555 1_555
C2_8 C1_8 1_555 1_555
H1_8 C2_8 1_555 1_555
C3_8 C2_8 1_555 1_555
H2_8 C3_8 1_555 1_555
C4_8 N3_8 1_555 1_555
C5_8 C4_8 1_555 1_555
C6_8 C5_8 1_555 1_555
C7_8 C6_8 1_555 1_555
H3_8 C7_8 1_555 1_555
C8_8 C7_8 1_555 1_555
H4_8 C8_8 1_555 1_555
C9_8 N4_8 1_555 1_555
H5_8 C9_8 1_555 1_555
C10_8 C6_8 1_555 1_555
H6_8 C10_8 1_555 1_555
C11_8 C5_8 1_555 1_555
C12_8 C11_8 1_555 1_555
H7_8 C12_8 1_555 1_555
C3_8 C4_8 1_555 1_555
C9_8 C10_8 1_555 1_555
N4_9 C8_9 1_555 1_555
C1_9 N3_9 1_555 1_555
C2_9 C1_9 1_555 1_555
H1_9 C2_9 1_555 1_555
C3_9 C2_9 1_555 1_555
H2_9 C3_9 1_555 1_555
C4_9 N3_9 1_555 1_555
C5_9 C4_9 1_555 1_555
C6_9 C5_9 1_555 1_555
C7_9 C6_9 1_555 1_555
H3_9 C7_9 1_555 1_555
C8_9 C7_9 1_555 1_555
H4_9 C8_9 1_555 1_555
C9_9 N4_9 1_555 1_555
H5_9 C9_9 1_555 1_555
C10_9 C6_9 1_555 1_555
H6_9 C10_9 1_555 1_555
C11_9 C5_9 1_555 1_555
C12_9 C11_9 1_555 1_555
H7_9 C12_9 1_555 1_555
C3_9 C4_9 1_555 1_555
C9_9 C10_9 1_555 1_555
H23_9 C39_9 1_555 1_555
H24_9 C40_9 1_555 1_555
C39_9 C40_9 1_555 1_555
N8_8 C28_8 1_555 1_555
C22_8 C21_8 1_555 1_555
H13_8 C22_8 1_555 1_555
C23_8 C22_8 1_555 1_555
H14_8 C23_8 1_555 1_555
C24_8 N7_8 1_555 1_555
C25_8 C24_8 1_555 1_555
C26_8 C25_8 1_555 1_555
C27_8 C26_8 1_555 1_555
H15_8 C27_8 1_555 1_555
C28_8 C27_8 1_555 1_555
H16_8 C28_8 1_555 1_555
C29_8 N8_8 1_555 1_555
H17_8 C29_8 1_555 1_555
C30_8 C26_8 1_555 1_555
H18_8 C30_8 1_555 1_555
C32_8 C31_8 1_555 1_555
H19_8 C32_8 1_555 1_555
N7_8 C21_8 1_555 1_555
C23_8 C24_8 1_555 1_555
C25_8 C31_8 1_555 1_555
C29_8 C30_8 1_555 1_555
H11_8 C19_8 1_555 1_555
H12_8 C20_8 1_555 1_555
C19_8 C20_8 1_555 1_555
H11_9 C19_9 1_555 1_555
H12_9 C20_9 1_555 1_555
C19_9 C20_9 1_555 1_555
N8_9 C28_9 1_555 1_555
C22_9 C21_9 1_555 1_555
H13_9 C22_9 1_555 1_555
C23_9 C22_9 1_555 1_555
H14_9 C23_9 1_555 1_555
C24_9 N7_9 1_555 1_555
C25_9 C24_9 1_555 1_555
C26_9 C25_9 1_555 1_555
C27_9 C26_9 1_555 1_555
H15_9 C27_9 1_555 1_555
C28_9 C27_9 1_555 1_555
H16_9 C28_9 1_555 1_555
C29_9 N8_9 1_555 1_555
H17_9 C29_9 1_555 1_555
C30_9 C26_9 1_555 1_555
H18_9 C30_9 1_555 1_555
C32_9 C31_9 1_555 1_555
H19_9 C32_9 1_555 1_555
N7_9 C21_9 1_555 1_555
C23_9 C24_9 1_555 1_555
C25_9 C31_9 1_555 1_555
C29_9 C30_9 1_555 1_555

#END
