
###############################################################################
#
# This file contains modified crystal structure data generated from the
# MOF subset of the Cambridge Structural Database (CSD) v543 
# hosted by the Cambridge Crystallographic Data Centre (CCDC).
#
# This work is licensed under the Creative Commons
# Attribution-NonCommercial-ShareAlike 4.0 International License.
# To view a copy of this license, visit
# http://creativecommons.org/licenses/by-nc-sa/4.0/
# or send a letter to
# Creative Commons, PO Box 1866, Mountain View, CA 94042, USA.
#
# CIF created using the CSD Python API on 29 September 2022
# The structure has been converted into the P1 space group
# The structure has a 3D framework
# The original CSD entry YUSGID is in the triclinic crystal system
# The framework has been calculated to contain at least 10.0% void space
# The void calculation uses a probe of radius 1.32A, grid spacing 0.4
#
###############################################################################

data_YUSGID
_chemical_formula_moiety         '(C56 H40 N4 O16 S2 Zn2)n'
_symmetry_cell_setting           triclinic
_symmetry_space_group_name_H-M   'P 1'
_symmetry_Int_Tables_number      1
_space_group_name_Hall           'P 1'
loop_
_symmetry_equiv_pos_site_id
_symmetry_equiv_pos_as_xyz
1 x,y,z
_cell_length_a                   9.4093(19)
_cell_length_b                   9.876(2)
_cell_length_c                   18.307(4)
_cell_angle_alpha                79.35(3)
_cell_angle_beta                 87.30(3)
_cell_angle_gamma                68.20(3)
_cell_volume                     1551.9
loop_
_atom_site_label
_atom_site_type_symbol
_atom_site_fract_x
_atom_site_fract_y
_atom_site_fract_z
Zn5 Zn 0.09430(4) 0.09448(4) 0.968548(19)
O8 O 0.0186(2) 0.0125(2) 0.07418(11)
O11 O 0.2876(3) 0.0168(2) 0.18301(13)
Zn3 Zn 0.80924(4) 0.10031(4) 0.856647(19)
Zn1 Zn 0.19076(4) 0.89969(4) 0.143353(19)
C1 C 0.0641(4) 0.8401(5) 0.2886(2)
H1 H 0.0638 0.9324 0.2932
C4 C 0.0650(4) 0.5703(5) 0.2793(2)
H3 H 0.0683 0.4769 0.2748
C5 C 0.1335(4) 0.6437(4) 0.2275(2)
H4 H 0.1848 0.5974 0.1889
C22 C 0.6087(3) 0.5896(3) 0.02016(18)
H17 H 0.5744 0.5398 0.0610
C27 C 0.3866(3) 0.8249(3) 0.03141(18)
C28 C 0.8352(3) 0.3527(3) 0.01323(18)
O1 O 0.3144(2) 0.9579(2) 0.00142(12)
O2 O 0.3505(2) 0.7616(2) 0.09143(12)
O4 O 0.7933(3) 0.2842(2) 0.06806(12)
N1 N 0.1294(3) 0.7815(3) 0.23048(14)
O10 O 0.0470(3) 0.7011(2) 0.02500(14)
S1 S 0.75953(10) 0.82446(9) 0.81180(5)
C21 C 0.5270(3) 0.7402(3) 0.99367(17)
C23 C 0.7419(3) 0.5145(3) 0.98490(17)
C24 C 0.7915(3) 0.5893(3) 0.92398(18)
H18 H 0.8811 0.5399 0.9009
C25 C 0.7079(3) 0.7383(3) 0.89714(18)
C26 C 0.5767(3) 0.8136(3) 0.93205(17)
H19 H 0.5217 0.9135 0.9142
O3 O 0.9530(3) 0.2989(2) 0.97500(14)
O5 O 0.7124(3) 0.9832(2) 0.81699(13)
O6 O 0.6686(4) 0.8073(3) 0.75545(15)
O7 O 0.9224(3) 0.7538(3) 0.80548(18)
H21 H 0.015(5) 0.9037(8) 0.9191(13)
H20 H 0.985(5) 0.0963(8) 0.0809(13)
O9 O 0.6856(2) 0.0421(2) 0.99858(12)
Zn2 Zn 0.90570(4) 0.90552(4) 0.031452(19)
C2 C 0.9961(5) 0.7679(5) 0.3428(2)
H2 H 0.9528 0.8114 0.3835
C3 C 0.9924(4) 0.6334(5) 0.3370(2)
C6 C 0.9138(5) 0.5523(6) 0.3913(2)
H5 H 0.9214 0.4590 0.3842
C7 C 0.8381(5) 0.6013(6) 0.4459(3)
H6 H 0.8345 0.6938 0.4522
C8 C 0.7539(5) 0.5314(6) 0.5016(3)
C9 C 0.6905(5) 0.6057(7) 0.5585(3)
H7 H 0.7031 0.6941 0.5603
C10 C 0.6095(5) 0.5537(7) 0.6125(3)
H8 H 0.5666 0.6086 0.6495
C11 C 0.5896(5) 0.4251(7) 0.6138(3)
C12 C 0.6519(5) 0.3493(7) 0.5564(3)
H9 H 0.6396 0.2606 0.5551
C13 C 0.7331(5) 0.4040(6) 0.5004(3)
H10 H 0.7732 0.3520 0.4620
C14 C 0.4985(5) 0.3940(6) 0.6775(3)
H11 H 0.4637 0.4658 0.7074
C15 C 0.4624(5) 0.2847(6) 0.6963(3)
H12 H 0.5004 0.2095 0.6685
C16 C 0.3644(5) 0.2628(6) 0.7591(3)
C17 C 0.2904(4) 0.3552(6) 0.8108(2)
H13 H 0.2980 0.4474 0.8073
C18 C 0.2062(4) 0.3068(5) 0.8670(2)
H14 H 0.1585 0.3683 0.9009
C19 C 0.2603(4) 0.0911(5) 0.8242(2)
C20 C 0.3454(5) 0.1328(6) 0.7669(2)
H16 H 0.3902 0.0697 0.7333
N2 N 0.1911(3) 0.1762(3) 0.87424(15)
N3 N 0.8089(3) 0.8238(3) 0.12576(15)
O12 O 0.9814(2) 0.9875(2) 0.92582(11)
C2_2 C 0.0039(5) 0.2321(5) 0.6572(2)
H2_2 H 0.0472 0.1886 0.6165
C3_2 C 0.0076(4) 0.3666(5) 0.6630(2)
C6_2 C 0.0862(5) 0.4477(6) 0.6087(2)
H5_2 H 0.0786 0.5410 0.6158
C7_2 C 0.1619(5) 0.3987(6) 0.5541(3)
H6_2 H 0.1655 0.3062 0.5478
C8_2 C 0.2461(5) 0.4686(6) 0.4984(3)
C9_2 C 0.3095(5) 0.3943(7) 0.4415(3)
H7_2 H 0.2969 0.3059 0.4397
C10_2 C 0.3905(5) 0.4463(7) 0.3875(3)
H8_2 H 0.4334 0.3914 0.3505
C11_2 C 0.4104(5) 0.5749(7) 0.3862(3)
C12_2 C 0.3481(5) 0.6507(7) 0.4436(3)
H9_2 H 0.3604 0.7394 0.4449
C13_2 C 0.2669(5) 0.5960(6) 0.4996(3)
H10_2 H 0.2268 0.6480 0.5380
C14_2 C 0.5015(5) 0.6060(6) 0.3225(3)
H11_2 H 0.5363 0.5342 0.2926
C15_2 C 0.5376(5) 0.7153(6) 0.3037(3)
H12_2 H 0.4996 0.7905 0.3315
C16_2 C 0.6356(5) 0.7372(6) 0.2409(3)
C17_2 C 0.7096(4) 0.6448(6) 0.1892(2)
H13_2 H 0.7020 0.5526 0.1927
C18_2 C 0.7938(4) 0.6932(5) 0.1330(2)
H14_2 H 0.8415 0.6317 0.0991
C19_2 C 0.7397(4) 0.9089(5) 0.1758(2)
C20_2 C 0.6546(5) 0.8672(6) 0.2331(2)
H16_2 H 0.6098 0.9303 0.2667
S1_2 S 0.24047(10) 0.17554(9) 0.18820(5)
C21_2 C 0.4730(3) 0.2598(3) 0.00633(17)
C23_2 C 0.2581(3) 0.4855(3) 0.01510(17)
C24_2 C 0.2085(3) 0.4107(3) 0.07602(18)
H18_2 H 0.1189 0.4601 0.0991
C25_2 C 0.2921(3) 0.2617(3) 0.10286(18)
C26_2 C 0.4233(3) 0.1864(3) 0.06795(17)
H19_2 H 0.4783 0.0865 0.0858
O6_2 O 0.3314(4) 0.1927(3) 0.24455(15)
O7_2 O 0.0776(3) 0.2462(3) 0.19452(18)
C1_2 C 0.9359(4) 0.1599(5) 0.7114(2)
H1_2 H 0.9362 0.0676 0.7068
C4_2 C 0.9350(4) 0.4297(5) 0.7207(2)
H3_2 H 0.9317 0.5231 0.7252
C5_2 C 0.8665(4) 0.3563(4) 0.7725(2)
H4_2 H 0.8152 0.4026 0.8111
C22_2 C 0.3913(3) 0.4104(3) 0.97984(18)
H17_2 H 0.4256 0.4602 0.9390
C27_2 C 0.6134(3) 0.1751(3) 0.96859(18)
C28_2 C 0.1648(3) 0.6473(3) 0.98677(18)
O2_2 O 0.6495(2) 0.2384(2) 0.90857(12)
O4_2 O 0.2067(3) 0.7158(2) 0.93194(12)
N1_2 N 0.8706(3) 0.2185(3) 0.76952(14)
H15 H 0.2507 0.9996 0.8281
H15_2 H 0.7493 0.0004 0.1719
loop_
_geom_bond_atom_site_label_1
_geom_bond_atom_site_label_2
_geom_bond_site_symmetry_1
_geom_bond_site_symmetry_2
Zn1 O2 1_555 1_555
C1 H1 1_555 1_555
H3 C4 1_555 1_555
C5 C4 1_555 1_555
H4 C5 1_555 1_555
C22 H17 1_555 1_555
O1 C27 1_555 1_555
O2 C27 1_555 1_555
O4 C28 1_555 1_555
N1 Zn1 1_555 1_555
C1 N1 1_555 1_555
C5 N1 1_555 1_555
S1 C25 1_555 1_555
C24 C23 1_555 1_555
H18 C24 1_555 1_555
C25 C24 1_555 1_555
C26 C21 1_555 1_555
H19 C26 1_555 1_555
O5 S1 1_555 1_555
O6 S1 1_555 1_555
O7 S1 1_555 1_555
C25 C26 1_555 1_555
H2 C2 1_555 1_555
C3 C2 1_555 1_555
C6 C3 1_555 1_555
H5 C6 1_555 1_555
C7 C6 1_555 1_555
H6 C7 1_555 1_555
C8 C7 1_555 1_555
C9 C8 1_555 1_555
H7 C9 1_555 1_555
C10 C9 1_555 1_555
H8 C10 1_555 1_555
C11 C10 1_555 1_555
C12 C11 1_555 1_555
H9 C12 1_555 1_555
C13 C8 1_555 1_555
H10 C13 1_555 1_555
C14 C11 1_555 1_555
H11 C14 1_555 1_555
C15 C14 1_555 1_555
H12 C15 1_555 1_555
C16 C15 1_555 1_555
C17 C16 1_555 1_555
H13 C17 1_555 1_555
C18 C17 1_555 1_555
H14 C18 1_555 1_555
C20 C16 1_555 1_555
H16 C20 1_555 1_555
N2 C18 1_555 1_555
Zn5 N2 1_555 1_555
N3 Zn2 1_555 1_555
C12 C13 1_555 1_555
C19 C20 1_555 1_555
C19 N2 1_555 1_555
H2_2 C2_2 1_555 1_555
C3_2 C2_2 1_555 1_555
C6_2 C3_2 1_555 1_555
H5_2 C6_2 1_555 1_555
C7_2 C6_2 1_555 1_555
H6_2 C7_2 1_555 1_555
C8_2 C7_2 1_555 1_555
C9_2 C8_2 1_555 1_555
H7_2 C9_2 1_555 1_555
C10_2 C9_2 1_555 1_555
H8_2 C10_2 1_555 1_555
C11_2 C10_2 1_555 1_555
C12_2 C11_2 1_555 1_555
H9_2 C12_2 1_555 1_555
C13_2 C8_2 1_555 1_555
H10_2 C13_2 1_555 1_555
C14_2 C11_2 1_555 1_555
H11_2 C14_2 1_555 1_555
C15_2 C14_2 1_555 1_555
H12_2 C15_2 1_555 1_555
C16_2 C15_2 1_555 1_555
C17_2 C16_2 1_555 1_555
H13_2 C17_2 1_555 1_555
C18_2 C17_2 1_555 1_555
H14_2 C18_2 1_555 1_555
C20_2 C16_2 1_555 1_555
H16_2 C20_2 1_555 1_555
N3 C18_2 1_555 1_555
C12_2 C13_2 1_555 1_555
C19_2 C20_2 1_555 1_555
C19_2 N3 1_555 1_555
S1_2 C25_2 1_555 1_555
C24_2 C23_2 1_555 1_555
H18_2 C24_2 1_555 1_555
C25_2 C24_2 1_555 1_555
C26_2 C21_2 1_555 1_555
H19_2 C26_2 1_555 1_555
O11 S1_2 1_555 1_555
O6_2 S1_2 1_555 1_555
O7_2 S1_2 1_555 1_555
C25_2 C26_2 1_555 1_555
Zn3 O2_2 1_555 1_555
C1_2 H1_2 1_555 1_555
H3_2 C4_2 1_555 1_555
C5_2 C4_2 1_555 1_555
H4_2 C5_2 1_555 1_555
C22_2 H17_2 1_555 1_555
O9 C27_2 1_555 1_555
O2_2 C27_2 1_555 1_555
O4_2 C28_2 1_555 1_555
N1_2 Zn3 1_555 1_555
C1_2 N1_2 1_555 1_555
C5_2 N1_2 1_555 1_555

#END
