
###############################################################################
#
# This file contains modified crystal structure data generated from the
# MOF subset of the Cambridge Structural Database (CSD) v543 
# hosted by the Cambridge Crystallographic Data Centre (CCDC).
#
# This work is licensed under the Creative Commons
# Attribution-NonCommercial-ShareAlike 4.0 International License.
# To view a copy of this license, visit
# http://creativecommons.org/licenses/by-nc-sa/4.0/
# or send a letter to
# Creative Commons, PO Box 1866, Mountain View, CA 94042, USA.
#
# CIF created using the CSD Python API on 29 September 2022
# The structure has been converted into the P1 space group
# The structure has a 3D framework
# The original CSD entry YUSTUC is in the tetragonal crystal system
# The framework has been calculated to contain at least 10.0% void space
# The void calculation uses a probe of radius 1.32A, grid spacing 0.4
# The framework is charged, counterions have been retained in the structure
# H atom positions have been added when not included in the experimental data
# Generated hydrogen atom positions removed from atoms on special positions
#
###############################################################################

data_YUSTUC
_chemical_formula_moiety         '(C240 H176 N60 Ni16 O80)n'
_symmetry_cell_setting           triclinic
_symmetry_space_group_name_H-M   'P 1'
_symmetry_Int_Tables_number      1
_space_group_name_Hall           'P 1'
loop_
_symmetry_equiv_pos_site_id
_symmetry_equiv_pos_as_xyz
1 x,y,z
_cell_length_a                   14.0670(7)
_cell_length_b                   14.0670(7)
_cell_length_c                   39.336(4)
_cell_angle_alpha                90
_cell_angle_beta                 90
_cell_angle_gamma                90
_cell_volume                     7783.83
loop_
_atom_site_label
_atom_site_type_symbol
_atom_site_fract_x
_atom_site_fract_y
_atom_site_fract_z
Ni1 Ni 0.32236(4) 0.53392(4) 0.087771(13)
O1 O 0.1856(4) 0.4690(3) 0.16208(11)
O2 O 0.1314(3) 0.5655(3) 0.20107(9)
O3 O 0.1387(3) 0.7310(3) 0.21814(9)
O4 O 0.2076(2) 0.8625(2) 0.20039(8)
O5 O 0.2826(3) 0.4082(3) 0.10960(10)
N1 N 0.2604(3) 0.6284(3) 0.12406(9)
N2 N 0.2637(2) 0.7821(2) 0.14122(8)
N3 N 0.3563(3) 0.6649(3) 0.06611(9)
N4 N 0.1979(3) 0.5272(3) 0.05617(9)
C1 C 0.1761(4) 0.5507(3) 0.17280(12)
C2 C 0.2167(3) 0.6342(3) 0.15530(10)
C3 C 0.2194(3) 0.7285(3) 0.16550(10)
C4 C 0.1869(3) 0.7776(3) 0.19647(11)
C5 C 0.2845(3) 0.7179(3) 0.11693(10)
C6 C 0.3237(3) 0.7398(3) 0.08332(10)
C7 C 0.3189(4) 0.8305(3) 0.06914(12)
H2 H 0.2948 0.8824 0.0820
C8 C 0.3497(4) 0.8435(4) 0.03615(12)
H3 H 0.3462 0.9042 0.0256
C9 C 0.3862(4) 0.7656(4) 0.01860(12)
C10 C 0.3877(4) 0.6795(4) 0.03434(11)
H5 H 0.4125 0.6267 0.0221
C11 C 0.2063(4) 0.5313(4) 0.02230(12)
H6 H 0.2678 0.5421 0.0132
C12 C 0.1332(4) 0.5211(4) 0.00006(12)
C13 C 0.0411(3) 0.5051(3) 0.01177(11)
C14 C 0.0315(4) 0.5007(4) 0.04687(12)
C15 C 0.1096(3) 0.5127(4) 0.06796(12)
H9 H 0.1002 0.5104 0.0919
Ni2 Ni 0.28392(4) 0.92764(4) 0.162229(13)
O9 O 0.3875(2) 0.4576(2) 0.04961(8)
N6 N 0.4679(2) 0.5137(2) 0.10878(8)
Ni4 Ni 0.67764(4) 0.96608(4) 0.087771(13)
O12 O 0.1582(3) 0.9674(3) 0.14040(10)
H10 H 0.1692 0.9998 0.1229
N5 N 0.3784(3) 0.9896(3) 0.12594(9)
N8 N 0.5321(2) 0.9863(2) 0.10878(8)
N9 N 0.4149(3) 0.8937(3) 0.18389(9)
C20 C 0.4679(3) 0.9655(3) 0.13307(10)
C21 C 0.4898(3) 0.9263(3) 0.16668(10)
C22 C 0.5805(3) 0.9311(4) 0.18086(12)
H11 H 0.6324 0.9552 0.1680
C23 C 0.5935(4) 0.9003(4) 0.21385(12)
H12 H 0.6542 0.9038 0.2244
C24 C 0.5156(4) 0.8638(4) 0.23140(12)
H13 H 0.5224 0.8405 0.2539
C25 C 0.4295(4) 0.8623(4) 0.21566(11)
H14 H 0.3767 0.8375 0.2279
H15 H 0.2921 0.9822 0.2368
O2_2 O 0.8686(3) 0.9345(3) 0.20107(9)
O3_2 O 0.8613(3) 0.7690(3) 0.21814(9)
O4_2 O 0.7924(2) 0.6375(2) 0.20039(8)
N1_2 N 0.7396(3) 0.8716(3) 0.12406(9)
N2_2 N 0.7363(2) 0.7179(2) 0.14122(8)
N3_2 N 0.6437(3) 0.8351(3) 0.06611(9)
N4_2 N 0.8021(3) 0.9728(3) 0.05617(9)
C1_2 C 0.8239(4) 0.9493(3) 0.17280(12)
C2_2 C 0.7833(3) 0.8658(3) 0.15530(10)
C3_2 C 0.7806(3) 0.7715(3) 0.16550(10)
C4_2 C 0.8131(3) 0.7224(3) 0.19647(11)
C5_2 C 0.7155(3) 0.7821(3) 0.11693(10)
C6_2 C 0.6763(3) 0.7602(3) 0.08332(10)
C7_2 C 0.6811(4) 0.6695(3) 0.06914(12)
H2_2 H 0.7052 0.6176 0.0820
C8_2 C 0.6503(4) 0.6565(4) 0.03615(12)
H3_2 H 0.6538 0.5958 0.0256
C9_2 C 0.6138(4) 0.7344(4) 0.01860(12)
C10_2 C 0.6123(4) 0.8205(4) 0.03434(11)
H5_2 H 0.5875 0.8733 0.0221
C11_2 C 0.7937(4) 0.9687(4) 0.02230(12)
H6_2 H 0.7322 0.9579 0.0132
C12_2 C 0.8668(4) 0.9789(4) 0.00006(12)
C13_2 C 0.9589(3) 0.9949(3) 0.01177(11)
C14_2 C 0.9685(4) 0.9993(4) 0.04687(12)
C15_2 C 0.8904(3) 0.9873(4) 0.06796(12)
H9_2 H 0.8998 0.9896 0.0919
Ni2_2 Ni 0.71608(4) 0.57236(4) 0.162229(13)
O1_2 O 0.7190(3) 0.0644(4) 0.41208(11)
O2_3 O 0.8155(3) 0.1186(3) 0.45107(9)
O3_3 O 0.9810(3) 0.1113(3) 0.46814(9)
N4_3 N 0.7772(3) 0.0521(3) 0.30617(9)
C1_3 C 0.8007(3) 0.0739(4) 0.42280(12)
C2_3 C 0.8842(3) 0.0333(3) 0.40530(10)
C3_3 C 0.9785(3) 0.0306(3) 0.41550(10)
C11_3 C 0.7813(4) 0.0437(4) 0.27230(12)
C12_3 C 0.7711(4) 0.1168(4) 0.25006(12)
H7 H 0.7749 0.1050 0.2263
C13_3 C 0.7551(3) 0.2089(3) 0.26177(11)
C14_3 C 0.7507(4) 0.2185(4) 0.29687(12)
H8 H 0.7395 0.2793 0.3066
C15_3 C 0.7627(4) 0.1404(3) 0.31796(12)
H9_3 H 0.7604 0.1498 0.3419
O6 O 0.7810(3) 0.4356(4) 0.08792(11)
O7 O 0.6845(3) 0.3814(3) 0.04893(9)
O8 O 0.5190(3) 0.3887(3) 0.03186(9)
O12_2 O 0.8418(3) 0.5326(3) 0.14040(10)
N5_2 N 0.6216(3) 0.5104(3) 0.12594(9)
N9_2 N 0.5851(3) 0.6063(3) 0.18389(9)
N10 N 0.7228(3) 0.4479(3) 0.19383(9)
C16 C 0.6993(3) 0.4261(4) 0.07720(12)
C17 C 0.6158(3) 0.4667(3) 0.09470(10)
C18 C 0.5215(3) 0.4694(3) 0.08450(10)
C19 C 0.4724(3) 0.4369(3) 0.05353(11)
C20_2 C 0.5321(3) 0.5345(3) 0.13307(10)
C21_2 C 0.5102(3) 0.5737(3) 0.16668(10)
C22_2 C 0.4195(3) 0.5689(4) 0.18086(12)
H11_2 H 0.3676 0.5448 0.1680
C23_2 C 0.4065(4) 0.5997(4) 0.21385(12)
H12_2 H 0.3458 0.5962 0.2244
C24_2 C 0.4844(4) 0.6362(4) 0.23140(12)
H13_2 H 0.4776 0.6595 0.2539
C25_2 C 0.5705(4) 0.6377(4) 0.21566(11)
H14_2 H 0.6233 0.6625 0.2279
C26 C 0.7187(4) 0.4563(4) 0.22770(12)
H15_2 H 0.7079 0.5178 0.2368
C27 C 0.7289(4) 0.3832(4) 0.24994(12)
H16 H 0.7251 0.3950 0.2737
C28 C 0.7449(3) 0.2911(3) 0.23823(11)
C29 C 0.7493(4) 0.2815(4) 0.20313(12)
H17 H 0.7605 0.2207 0.1934
C30 C 0.7373(4) 0.3596(3) 0.18204(12)
H18 H 0.7396 0.3502 0.1581
H20 H 0.121384 0.909825 0.134076
H19 H 0.620932 0.00598751 0.343192
H4 H 0.4095 0.7724 0.9961
H7_2 H 0.1450 0.5249 0.9763
H17_2 H 0.0293 0.5105 0.9434
H8_2 H 0.9707 0.4895 0.0566
H13_3 H 0.5905 0.2276 0.0039
H16_2 H 0.8550 0.4751 0.0237
Ni3 Ni 0.67764(4) 0.46608(4) 0.912229(13)
Ni4_2 Ni 0.71608(4) 0.07236(4) 0.837771(13)
O6_2 O 0.8144(4) 0.5310(3) 0.83792(11)
O7_2 O 0.8686(3) 0.4345(3) 0.79893(9)
O8_2 O 0.8613(3) 0.2690(3) 0.78186(9)
O10 O 0.6125(2) 0.5424(2) 0.95039(8)
O11 O 0.7924(2) 0.1375(2) 0.79961(8)
O12_3 O 0.7174(3) 0.5918(3) 0.89040(10)
N5_3 N 0.7396(3) 0.3716(3) 0.87594(9)
N7 N 0.5321(2) 0.4863(2) 0.89122(8)
N8_2 N 0.7363(2) 0.2179(2) 0.85878(8)
N9_3 N 0.6437(3) 0.3351(3) 0.93389(9)
N10_2 N 0.8021(3) 0.4728(3) 0.94383(9)
C16_2 C 0.8239(4) 0.4493(3) 0.82720(12)
C17_2 C 0.7833(3) 0.3658(3) 0.84470(10)
C18_2 C 0.7806(3) 0.2715(3) 0.83450(10)
C19_2 C 0.8131(3) 0.2224(3) 0.80353(11)
C20_3 C 0.7155(3) 0.2821(3) 0.88307(10)
C21_3 C 0.6763(3) 0.2602(3) 0.91668(10)
C22_3 C 0.6811(4) 0.1695(3) 0.93086(12)
H11_3 H 0.7052 0.1176 0.9180
C23_3 C 0.6503(4) 0.1565(4) 0.96385(12)
H12_3 H 0.6538 0.0958 0.9744
C24_3 C 0.6138(4) 0.2344(4) 0.98140(12)
C25_3 C 0.6123(4) 0.3205(4) 0.96566(11)
H14_3 H 0.5875 0.3733 0.9779
C26_2 C 0.7937(4) 0.4687(4) 0.97770(12)
H15_3 H 0.7322 0.4579 0.9868
C27_2 C 0.8668(4) 0.4789(4) 0.99994(12)
C28_2 C 0.9589(3) 0.4949(3) 0.98823(11)
C29_2 C 0.9685(4) 0.4993(4) 0.95313(12)
C30_2 C 0.8904(3) 0.4873(4) 0.93204(12)
H18_2 H 0.8998 0.4896 0.9081
Ni3_2 Ni 0.32236(4) 0.03392(4) 0.912229(13)
Ni4_3 Ni 0.28392(4) 0.42764(4) 0.837771(13)
O7_3 O 0.1314(3) 0.0655(3) 0.79893(9)
O8_3 O 0.1387(3) 0.2310(3) 0.78186(9)
O11_2 O 0.2076(2) 0.3625(2) 0.79961(8)
N5_4 N 0.2604(3) 0.1284(3) 0.87594(9)
N7_2 N 0.4679(2) 0.0137(2) 0.89122(8)
N8_3 N 0.2637(2) 0.2821(2) 0.85878(8)
N9_4 N 0.3563(3) 0.1649(3) 0.93389(9)
N10_3 N 0.1979(3) 0.0272(3) 0.94383(9)
C16_3 C 0.1761(4) 0.0507(3) 0.82720(12)
C17_3 C 0.2167(3) 0.1342(3) 0.84470(10)
C18_3 C 0.2194(3) 0.2285(3) 0.83450(10)
C19_3 C 0.1869(3) 0.2776(3) 0.80353(11)
C20_4 C 0.2845(3) 0.2179(3) 0.88307(10)
C21_4 C 0.3237(3) 0.2398(3) 0.91668(10)
C22_4 C 0.3189(4) 0.3305(3) 0.93086(12)
H11_4 H 0.2948 0.3824 0.9180
C23_4 C 0.3497(4) 0.3435(4) 0.96385(12)
H12_4 H 0.3462 0.4042 0.9744
C24_4 C 0.3862(4) 0.2656(4) 0.98140(12)
C25_4 C 0.3877(4) 0.1795(4) 0.96566(11)
H14_4 H 0.4125 0.1267 0.9779
C26_3 C 0.2063(4) 0.0313(4) 0.97770(12)
H15_4 H 0.2678 0.0421 0.9868
C27_3 C 0.1332(4) 0.0211(4) 0.99994(12)
C28_3 C 0.0411(3) 0.0051(3) 0.98823(11)
C29_3 C 0.0315(4) 0.0007(4) 0.95313(12)
C30_3 C 0.1096(3) 0.0127(4) 0.93204(12)
H18_3 H 0.1002 0.0104 0.9081
O5_2 O 0.8418(3) 0.0326(3) 0.85960(10)
H1 H 0.8308 0.0002 0.8771
N1_3 N 0.6216(3) 0.0104(3) 0.87406(9)
N3_3 N 0.5851(3) 0.1063(3) 0.81611(9)
C5_3 C 0.5321(3) 0.0345(3) 0.86693(10)
C6_3 C 0.5102(3) 0.0737(3) 0.83332(10)
C7_3 C 0.4195(3) 0.0689(4) 0.81914(12)
H2_3 H 0.3676 0.0448 0.8320
C8_3 C 0.4065(4) 0.0997(4) 0.78615(12)
H3_3 H 0.3458 0.0962 0.7756
C9_3 C 0.4844(4) 0.1362(4) 0.76860(12)
H4_2 H 0.4776 0.1595 0.7461
C10_3 C 0.5705(4) 0.1377(4) 0.78434(11)
H5_3 H 0.6233 0.1625 0.7721
H6_3 H 0.7079 0.0178 0.7632
H20_2 H 0.878616 0.0901748 0.865924
O1_3 O 0.2190(3) 0.5644(4) 0.91208(11)
O2_4 O 0.3155(3) 0.6186(3) 0.95107(9)
O3_4 O 0.4810(3) 0.6113(3) 0.96814(9)
O5_3 O 0.1582(3) 0.4674(3) 0.85960(10)
N1_4 N 0.3784(3) 0.4896(3) 0.87406(9)
N3_4 N 0.4149(3) 0.3937(3) 0.81611(9)
N4_4 N 0.2772(3) 0.5521(3) 0.80617(9)
C1_4 C 0.3007(3) 0.5739(4) 0.92280(12)
C2_4 C 0.3842(3) 0.5333(3) 0.90530(10)
C3_4 C 0.4785(3) 0.5306(3) 0.91550(10)
C4_3 C 0.5276(3) 0.5631(3) 0.94647(11)
C5_4 C 0.4679(3) 0.4655(3) 0.86693(10)
C6_4 C 0.4898(3) 0.4263(3) 0.83332(10)
C7_4 C 0.5805(3) 0.4311(4) 0.81914(12)
H2_4 H 0.6324 0.4552 0.8320
C8_4 C 0.5935(4) 0.4003(4) 0.78615(12)
H3_4 H 0.6542 0.4038 0.7756
C9_4 C 0.5156(4) 0.3638(4) 0.76860(12)
H4_3 H 0.5224 0.3405 0.7461
C10_4 C 0.4295(4) 0.3623(4) 0.78434(11)
H5_4 H 0.3767 0.3375 0.7721
C11_4 C 0.2813(4) 0.5437(4) 0.77230(12)
H6_4 H 0.2921 0.4822 0.7632
C12_4 C 0.2711(4) 0.6168(4) 0.75006(12)
H7_3 H 0.2749 0.6050 0.7263
C13_4 C 0.2551(3) 0.7089(3) 0.76177(11)
C14_4 C 0.2507(4) 0.7185(4) 0.79687(12)
H8_3 H 0.2395 0.7793 0.8066
C15_4 C 0.2627(4) 0.6404(3) 0.81796(12)
H9_4 H 0.2604 0.6498 0.8419
O6_3 O 0.2810(3) 0.9356(4) 0.58792(11)
O7_4 O 0.1845(3) 0.8814(3) 0.54893(9)
O8_4 O 0.0190(3) 0.8887(3) 0.53186(9)
N10_4 N 0.2228(3) 0.9479(3) 0.69383(9)
C16_4 C 0.1993(3) 0.9261(4) 0.57720(12)
C17_4 C 0.1158(3) 0.9667(3) 0.59470(10)
C18_4 C 0.0215(3) 0.9694(3) 0.58450(10)
C26_4 C 0.2187(4) 0.9563(4) 0.72770(12)
C27_4 C 0.2289(4) 0.8832(4) 0.74994(12)
H16_3 H 0.2251 0.8950 0.7737
C28_4 C 0.2449(3) 0.7911(3) 0.73823(11)
C29_4 C 0.2493(4) 0.7815(4) 0.70313(12)
H17_3 H 0.2605 0.7207 0.6934
C30_4 C 0.2373(4) 0.8596(3) 0.68204(12)
H18_4 H 0.2396 0.8502 0.6581
H19_2 H 0.379068 0.994012 0.656808
Ni1_2 Ni 0.21608(4) 0.57236(4) 0.337771(13)
O1_4 O 0.2810(3) 0.4356(4) 0.41208(11)
O2_5 O 0.1845(3) 0.3814(3) 0.45107(9)
O3_5 O 0.0190(3) 0.3887(3) 0.46814(9)
O5_4 O 0.3418(3) 0.5326(3) 0.35960(10)
N1_5 N 0.1216(3) 0.5104(3) 0.37406(9)
N3_5 N 0.0851(3) 0.6063(3) 0.31611(9)
N4_5 N 0.2228(3) 0.4479(3) 0.30617(9)
C1_5 C 0.1993(3) 0.4261(4) 0.42280(12)
C2_5 C 0.1158(3) 0.4667(3) 0.40530(10)
C3_5 C 0.0215(3) 0.4694(3) 0.41550(10)
C5_5 C 0.0321(3) 0.5345(3) 0.36693(10)
C6_5 C 0.0102(3) 0.5737(3) 0.33332(10)
C10_5 C 0.0705(4) 0.6377(4) 0.28434(11)
H5_5 H 0.1233 0.6625 0.2721
C11_5 C 0.2187(4) 0.4563(4) 0.27230(12)
H6_5 H 0.2079 0.5178 0.2632
C12_5 C 0.2289(4) 0.3832(4) 0.25006(12)
H7_4 H 0.2251 0.3950 0.2263
C13_5 C 0.2449(3) 0.2911(3) 0.26177(11)
C14_5 C 0.2493(4) 0.2815(4) 0.29687(12)
H8_4 H 0.2605 0.2207 0.3066
C15_5 C 0.2373(4) 0.3596(3) 0.31796(12)
H9_5 H 0.2396 0.3502 0.3419
O6_4 O 0.2190(3) 0.0644(4) 0.08792(11)
O7_5 O 0.3155(3) 0.1186(3) 0.04893(9)
O8_5 O 0.4810(3) 0.1113(3) 0.03186(9)
O9_2 O 0.2924(2) 0.6375(2) 0.29961(8)
O11_3 O 0.6125(2) 0.0424(2) 0.04961(8)
N6_2 N 0.2363(2) 0.7179(2) 0.35878(8)
N10_5 N 0.2772(3) 0.0521(3) 0.19383(9)
C16_5 C 0.3007(3) 0.0739(4) 0.07720(12)
C17_5 C 0.3842(3) 0.0333(3) 0.09470(10)
C18_5 C 0.4785(3) 0.0306(3) 0.08450(10)
C19_4 C 0.5276(3) 0.0631(3) 0.05353(11)
C26_5 C 0.2813(4) 0.0437(4) 0.22770(12)
C27_5 C 0.2711(4) 0.1168(4) 0.24994(12)
H16_4 H 0.2749 0.1050 0.2737
C28_5 C 0.2551(3) 0.2089(3) 0.23823(11)
C29_5 C 0.2507(4) 0.2185(4) 0.20313(12)
H17_4 H 0.2395 0.2793 0.1934
C30_5 C 0.2627(4) 0.1404(3) 0.18204(12)
H18_5 H 0.2604 0.1498 0.1581
H19_3 H 0.120932 0.00598751 0.156808
O1_5 O 0.8144(4) 0.0310(3) 0.16208(11)
O5_5 O 0.7174(3) 0.0918(3) 0.10960(10)
N2_3 N 0.0321(2) 0.9863(2) 0.39122(8)
C7_5 C 0.0805(3) 0.9311(4) 0.31914(12)
H2_5 H 0.1324 0.9552 0.3320
C8_5 C 0.0935(4) 0.9003(4) 0.28615(12)
H3_5 H 0.1542 0.9038 0.2756
C9_5 C 0.0156(4) 0.8638(4) 0.26860(12)
H4_4 H 0.0224 0.8405 0.2461
Ni2_3 Ni 0.17764(4) 0.96608(4) 0.412229(13)
O1_6 O 0.6856(4) 0.9690(3) 0.66208(11)
O5_6 O 0.7826(3) 0.9082(3) 0.60960(10)
H8_5 H 0.4707 0.9895 0.5566
O7_6 O 0.3686(3) 0.9345(3) 0.29893(9)
O8_6 O 0.3613(3) 0.7690(3) 0.28186(9)
O9_3 O 0.8875(2) 0.9576(2) 0.54961(8)
N5_5 N 0.2396(3) 0.8716(3) 0.37594(9)
N9_5 N 0.1437(3) 0.8351(3) 0.43389(9)
N10_6 N 0.3021(3) 0.9728(3) 0.44383(9)
C16_6 C 0.3239(4) 0.9493(3) 0.32720(12)
C17_6 C 0.2833(3) 0.8658(3) 0.34470(10)
C18_6 C 0.2806(3) 0.7715(3) 0.33450(10)
C19_5 C 0.3131(3) 0.7224(3) 0.30353(11)
C20_5 C 0.2155(3) 0.7821(3) 0.38307(10)
C21_5 C 0.1763(3) 0.7602(3) 0.41668(10)
C22_5 C 0.1811(4) 0.6695(3) 0.43086(12)
H11_5 H 0.2052 0.6176 0.4180
C23_5 C 0.1503(4) 0.6565(4) 0.46385(12)
H12_5 H 0.1538 0.5958 0.4744
C24_5 C 0.1138(4) 0.7344(4) 0.48140(12)
H13_4 H 0.0905 0.7276 0.5039
C25_5 C 0.1123(4) 0.8205(4) 0.46566(11)
H14_5 H 0.0875 0.8733 0.4779
C26_6 C 0.2937(4) 0.9687(4) 0.47770(12)
H15_5 H 0.2322 0.9579 0.4868
C27_6 C 0.3668(4) 0.9789(4) 0.49994(12)
H16_5 H 0.3550 0.9751 0.5237
C28_6 C 0.4589(3) 0.9949(3) 0.48823(11)
C29_6 C 0.4685(4) 0.9993(4) 0.45313(12)
C30_6 C 0.3904(3) 0.9873(4) 0.43204(12)
H18_6 H 0.3998 0.9896 0.4081
C19_6 C 0.9724(3) 0.9369(3) 0.55353(11)
O4_3 O 0.8875(2) 0.4576(2) 0.45039(8)
N2_4 N 0.9679(2) 0.5137(2) 0.39122(8)
C4_4 C 0.9724(3) 0.4369(3) 0.44647(11)
C7_6 C 0.9195(3) 0.5689(4) 0.31914(12)
H2_6 H 0.8676 0.5448 0.3320
C8_6 C 0.9065(4) 0.5997(4) 0.28615(12)
H3_6 H 0.8458 0.5962 0.2756
C9_6 C 0.9844(4) 0.6362(4) 0.26860(12)
H4_5 H 0.9776 0.6595 0.2461
Ni2_4 Ni 0.82236(4) 0.53392(4) 0.412229(13)
Ni1_3 Ni 0.78392(4) 0.92764(4) 0.337771(13)
O5_7 O 0.6582(3) 0.9674(3) 0.35960(10)
H1_2 H 0.6692 0.9998 0.3771
N1_6 N 0.8784(3) 0.9896(3) 0.37406(9)
N3_6 N 0.9149(3) 0.8937(3) 0.31611(9)
C5_6 C 0.9679(3) 0.9655(3) 0.36693(10)
C6_6 C 0.9898(3) 0.9263(3) 0.33332(10)
C10_6 C 0.9295(4) 0.8623(4) 0.28434(11)
H5_6 H 0.8767 0.8375 0.2721
H6_6 H 0.7921 0.9822 0.2632
O9_4 O 0.7076(2) 0.8625(2) 0.29961(8)
N6_3 N 0.7637(2) 0.7821(2) 0.35878(8)
H20_3 H 0.621384 0.909825 0.365924
Ni4_4 Ni 0.17764(4) 0.46608(4) 0.587771(13)
O11_4 O 0.1125(2) 0.5424(2) 0.54961(8)
N8_4 N 0.0321(2) 0.4863(2) 0.60878(8)
C19_7 C 0.0276(3) 0.5631(3) 0.55353(11)
C22_6 C 0.0805(3) 0.4311(4) 0.68086(12)
H11_6 H 0.1324 0.4552 0.6680
C23_6 C 0.0935(4) 0.4003(4) 0.71385(12)
H12_6 H 0.1542 0.4038 0.7244
C24_6 C 0.0156(4) 0.3638(4) 0.73140(12)
H13_5 H 0.0224 0.3405 0.7539
O1_7 O 0.3144(4) 0.5310(3) 0.66208(11)
O2_6 O 0.3686(3) 0.4345(3) 0.70107(9)
O3_6 O 0.3613(3) 0.2690(3) 0.71814(9)
O4_4 O 0.2924(2) 0.1375(2) 0.70039(8)
O5_8 O 0.2174(3) 0.5918(3) 0.60960(10)
N1_7 N 0.2396(3) 0.3716(3) 0.62406(9)
N2_5 N 0.2363(2) 0.2179(2) 0.64122(8)
N3_7 N 0.1437(3) 0.3351(3) 0.56611(9)
N4_6 N 0.3021(3) 0.4728(3) 0.55617(9)
C1_6 C 0.3239(4) 0.4493(3) 0.67280(12)
C2_6 C 0.2833(3) 0.3658(3) 0.65530(10)
C3_6 C 0.2806(3) 0.2715(3) 0.66550(10)
C4_5 C 0.3131(3) 0.2224(3) 0.69647(11)
C5_7 C 0.2155(3) 0.2821(3) 0.61693(10)
C6_7 C 0.1763(3) 0.2602(3) 0.58332(10)
C7_7 C 0.1811(4) 0.1695(3) 0.56914(12)
H2_7 H 0.2052 0.1176 0.5820
C8_7 C 0.1503(4) 0.1565(4) 0.53615(12)
H3_7 H 0.1538 0.0958 0.5256
C9_7 C 0.1138(4) 0.2344(4) 0.51860(12)
H4_6 H 0.0905 0.2276 0.4961
C10_7 C 0.1123(4) 0.3205(4) 0.53434(11)
H5_7 H 0.0875 0.3733 0.5221
C11_6 C 0.2937(4) 0.4687(4) 0.52230(12)
H6_7 H 0.2322 0.4579 0.5132
C12_6 C 0.3668(4) 0.4789(4) 0.50006(12)
H7_5 H 0.3550 0.4751 0.4763
C13_6 C 0.4589(3) 0.4949(3) 0.51177(11)
C14_6 C 0.4685(4) 0.4993(4) 0.54687(12)
H8_6 H 0.5293 0.5105 0.5566
C15_6 C 0.3904(3) 0.4873(4) 0.56796(12)
H9_6 H 0.3998 0.4896 0.5919
Ni2_5 Ni 0.21608(4) 0.07236(4) 0.662229(13)
O6_5 O 0.6856(4) 0.4690(3) 0.33792(11)
O7_7 O 0.6314(3) 0.5655(3) 0.29893(9)
O8_7 O 0.6387(3) 0.7310(3) 0.28186(9)
O12_4 O 0.7826(3) 0.4082(3) 0.39040(10)
N5_6 N 0.7604(3) 0.6284(3) 0.37594(9)
N9_6 N 0.8563(3) 0.6649(3) 0.43389(9)
N10_7 N 0.6979(3) 0.5272(3) 0.44383(9)
C16_7 C 0.6761(4) 0.5507(3) 0.32720(12)
C17_7 C 0.7167(3) 0.6342(3) 0.34470(10)
C18_7 C 0.7194(3) 0.7285(3) 0.33450(10)
C19_8 C 0.6869(3) 0.7776(3) 0.30353(11)
C20_6 C 0.7845(3) 0.7179(3) 0.38307(10)
C21_6 C 0.8237(3) 0.7398(3) 0.41668(10)
C22_7 C 0.8189(4) 0.8305(3) 0.43086(12)
H11_7 H 0.7948 0.8824 0.4180
C23_7 C 0.8497(4) 0.8435(4) 0.46385(12)
H12_7 H 0.8462 0.9042 0.4744
C24_7 C 0.8862(4) 0.7656(4) 0.48140(12)
H13_6 H 0.9095 0.7724 0.5039
C25_6 C 0.8877(4) 0.6795(4) 0.46566(11)
H14_6 H 0.9125 0.6267 0.4779
C26_7 C 0.7063(4) 0.5313(4) 0.47770(12)
H15_6 H 0.7678 0.5421 0.4868
C27_7 C 0.6332(4) 0.5211(4) 0.49994(12)
H16_6 H 0.6450 0.5249 0.5237
C28_7 C 0.5411(3) 0.5051(3) 0.48823(11)
C29_7 C 0.5315(4) 0.5007(4) 0.45313(12)
H17_5 H 0.4707 0.4895 0.4434
C30_7 C 0.6096(3) 0.5127(4) 0.43204(12)
H18_7 H 0.6002 0.5104 0.4081
O12_5 O 0.3418(3) 0.0326(3) 0.64040(10)
H10_2 H 0.3308 0.0002 0.6229
N5_7 N 0.1216(3) 0.0104(3) 0.62594(9)
N9_7 N 0.0851(3) 0.1063(3) 0.68389(9)
C20_7 C 0.0321(3) 0.0345(3) 0.63307(10)
C21_7 C 0.0102(3) 0.0737(3) 0.66668(10)
C25_7 C 0.0705(4) 0.1377(4) 0.71566(11)
H14_7 H 0.1233 0.1625 0.7279
H15_7 H 0.2079 0.0178 0.7368
H20_4 H 0.378616 0.0901748 0.634076
H8_7 H 0.0293 0.0105 0.0566
H13_7 H 0.4095 0.2724 0.0039
H16_7 H 0.1450 0.0249 0.0237
O6_6 O 0.1856(4) 0.9690(3) 0.83792(11)
O10_2 O 0.3875(2) 0.9576(2) 0.95039(8)
O12_6 O 0.2826(3) 0.9082(3) 0.89040(10)
O4_5 O 0.1125(2) 0.0424(2) 0.45039(8)
C4_6 C 0.0276(3) 0.0631(3) 0.44647(11)
Ni1_4 Ni 0.82236(4) 0.03392(4) 0.587771(13)
O2_7 O 0.6314(3) 0.0655(3) 0.70107(9)
O3_7 O 0.6387(3) 0.2310(3) 0.71814(9)
O4_6 O 0.7076(2) 0.3625(2) 0.70039(8)
N1_8 N 0.7604(3) 0.1284(3) 0.62406(9)
N2_6 N 0.7637(2) 0.2821(2) 0.64122(8)
N3_8 N 0.8563(3) 0.1649(3) 0.56611(9)
N4_7 N 0.6979(3) 0.0272(3) 0.55617(9)
C1_7 C 0.6761(4) 0.0507(3) 0.67280(12)
C2_7 C 0.7167(3) 0.1342(3) 0.65530(10)
C3_7 C 0.7194(3) 0.2285(3) 0.66550(10)
C4_7 C 0.6869(3) 0.2776(3) 0.69647(11)
C5_8 C 0.7845(3) 0.2179(3) 0.61693(10)
C6_8 C 0.8237(3) 0.2398(3) 0.58332(10)
C7_8 C 0.8189(4) 0.3305(3) 0.56914(12)
H2_8 H 0.7948 0.3824 0.5820
C8_8 C 0.8497(4) 0.3435(4) 0.53615(12)
H3_8 H 0.8462 0.4042 0.5256
C9_8 C 0.8862(4) 0.2656(4) 0.51860(12)
H4_7 H 0.9095 0.2724 0.4961
C10_8 C 0.8877(4) 0.1795(4) 0.53434(11)
H5_8 H 0.9125 0.1267 0.5221
C11_7 C 0.7063(4) 0.0313(4) 0.52230(12)
H6_8 H 0.7678 0.0421 0.5132
C12_7 C 0.6332(4) 0.0211(4) 0.50006(12)
H7_6 H 0.6450 0.0249 0.4763
C13_7 C 0.5411(3) 0.0051(3) 0.51177(11)
C14_7 C 0.5315(4) 0.0007(4) 0.54687(12)
C15_7 C 0.6096(3) 0.0127(4) 0.56796(12)
H9_7 H 0.6002 0.0104 0.5919
Ni2_6 Ni 0.78392(4) 0.42764(4) 0.662229(13)
O6_7 O 0.3144(4) 0.0310(3) 0.33792(11)
O12_7 O 0.2174(3) 0.0918(3) 0.39040(10)
N6_4 N 0.9679(2) 0.0137(2) 0.60878(8)
H17_6 H 0.5293 0.0105 0.4434
O1_8 O 0.7810(3) 0.9356(4) 0.91208(11)
O2_8 O 0.6845(3) 0.8814(3) 0.95107(9)
O3_8 O 0.5190(3) 0.8887(3) 0.96814(9)
N4_8 N 0.7228(3) 0.9479(3) 0.80617(9)
C1_8 C 0.6993(3) 0.9261(4) 0.92280(12)
C2_8 C 0.6158(3) 0.9667(3) 0.90530(10)
C3_8 C 0.5215(3) 0.9694(3) 0.91550(10)
C4_8 C 0.4724(3) 0.9369(3) 0.94647(11)
C11_8 C 0.7187(4) 0.9563(4) 0.77230(12)
C12_8 C 0.7289(4) 0.8832(4) 0.75006(12)
H7_7 H 0.7251 0.8950 0.7263
C13_8 C 0.7449(3) 0.7911(3) 0.76177(11)
C14_8 C 0.7493(4) 0.7815(4) 0.79687(12)
H8_8 H 0.7605 0.7207 0.8066
C15_8 C 0.7373(4) 0.8596(3) 0.81796(12)
H9_8 H 0.7396 0.8502 0.8419
O6_8 O 0.7190(3) 0.5644(4) 0.58792(11)
O7_8 O 0.8155(3) 0.6186(3) 0.54893(9)
O8_8 O 0.9810(3) 0.6113(3) 0.53186(9)
O12_8 O 0.6582(3) 0.4674(3) 0.64040(10)
N5_8 N 0.8784(3) 0.4896(3) 0.62594(9)
N9_8 N 0.9149(3) 0.3937(3) 0.68389(9)
N10_8 N 0.7772(3) 0.5521(3) 0.69383(9)
C16_8 C 0.8007(3) 0.5739(4) 0.57720(12)
C17_8 C 0.8842(3) 0.5333(3) 0.59470(10)
C18_8 C 0.9785(3) 0.5306(3) 0.58450(10)
C20_8 C 0.9679(3) 0.4655(3) 0.63307(10)
C21_8 C 0.9898(3) 0.4263(3) 0.66668(10)
C25_8 C 0.9295(4) 0.3623(4) 0.71566(11)
H14_8 H 0.8767 0.3375 0.7279
C26_8 C 0.7813(4) 0.5437(4) 0.72770(12)
H15_8 H 0.7921 0.4822 0.7368
C27_8 C 0.7711(4) 0.6168(4) 0.74994(12)
H16_8 H 0.7749 0.6050 0.7737
C28_8 C 0.7551(3) 0.7089(3) 0.73823(11)
C29_8 C 0.7507(4) 0.7185(4) 0.70313(12)
H17_7 H 0.7395 0.7793 0.6934
C30_8 C 0.7627(4) 0.6404(3) 0.68204(12)
H18_8 H 0.7604 0.6498 0.6581
C22_8 C 0.9195(3) 0.0689(4) 0.68086(12)
H11_8 H 0.8676 0.0448 0.6680
C23_8 C 0.9065(4) 0.0997(4) 0.71385(12)
H12_8 H 0.8458 0.0962 0.7244
C24_8 C 0.9844(4) 0.1362(4) 0.73140(12)
H13_8 H 0.9776 0.1595 0.7539
H19_4 H 0.879068 0.994012 0.843192
H4_8 H 0.5905 0.7276 0.9961
H7_8 H 0.8550 0.9751 0.9763
H17_8 H 0.9707 0.9895 0.9434
loop_
_geom_bond_atom_site_label_1
_geom_bond_atom_site_label_2
_geom_bond_site_symmetry_1
_geom_bond_site_symmetry_2
Ni1 O5 1_555 1_555
O1 C1 1_555 1_555
O2 C1 1_555 1_555
O3 C4 1_555 1_555
O4 C4 1_555 1_555
N1 Ni1 1_555 1_555
N2 C3 1_555 1_555
N3 Ni1 1_555 1_555
N4 Ni1 1_555 1_555
C1 C2 1_555 1_555
C2 N1 1_555 1_555
C3 C2 1_555 1_555
C4 C3 1_555 1_555
C5 N1 1_555 1_555
C6 N3 1_555 1_555
C7 C6 1_555 1_555
H2 C7 1_555 1_555
C8 C7 1_555 1_555
H3 C8 1_555 1_555
C9 C8 1_555 1_555
C10 N3 1_555 1_555
H5 C10 1_555 1_555
C11 N4 1_555 1_555
H6 C11 1_555 1_555
C12 C11 1_555 1_555
C13 C12 1_555 1_555
C14 C13 1_555 1_555
C15 N4 1_555 1_555
H9 C15 1_555 1_555
Ni2 O4 1_555 1_555
O9 Ni1 1_555 1_555
N6 Ni1 1_555 1_555
N2 C5 1_555 1_555
N2 Ni2 1_555 1_555
C5 C6 1_555 1_555
C9 C10 1_555 1_555
C14 C15 1_555 1_555
O12 Ni2 1_555 1_555
H10 O12 1_555 1_555
N5 Ni2 1_555 1_555
N8 Ni4 1_555 1_555
N9 Ni2 1_555 1_555
C20 N5 1_555 1_555
C21 N9 1_555 1_555
C22 C21 1_555 1_555
H11 C22 1_555 1_555
C23 C22 1_555 1_555
H12 C23 1_555 1_555
C24 C23 1_555 1_555
H13 C24 1_555 1_555
C25 N9 1_555 1_555
H14 C25 1_555 1_555
N8 C20 1_555 1_555
C20 C21 1_555 1_555
C24 C25 1_555 1_555
O2_2 C1_2 1_555 1_555
O3_2 C4_2 1_555 1_555
O4_2 C4_2 1_555 1_555
N1_2 Ni4 1_555 1_555
N2_2 C3_2 1_555 1_555
N3_2 Ni4 1_555 1_555
N4_2 Ni4 1_555 1_555
C1_2 C2_2 1_555 1_555
C2_2 N1_2 1_555 1_555
C3_2 C2_2 1_555 1_555
C4_2 C3_2 1_555 1_555
C5_2 N1_2 1_555 1_555
C6_2 N3_2 1_555 1_555
C7_2 C6_2 1_555 1_555
H2_2 C7_2 1_555 1_555
C8_2 C7_2 1_555 1_555
H3_2 C8_2 1_555 1_555
C9_2 C8_2 1_555 1_555
C10_2 N3_2 1_555 1_555
H5_2 C10_2 1_555 1_555
C11_2 N4_2 1_555 1_555
H6_2 C11_2 1_555 1_555
C12_2 C11_2 1_555 1_555
C13_2 C12_2 1_555 1_555
C14_2 C13_2 1_555 1_555
C15_2 N4_2 1_555 1_555
H9_2 C15_2 1_555 1_555
Ni2_2 O4_2 1_555 1_555
N2_2 C5_2 1_555 1_555
N2_2 Ni2_2 1_555 1_555
C5_2 C6_2 1_555 1_555
C9_2 C10_2 1_555 1_555
C14_2 C15_2 1_555 1_555
O1_2 C1_3 1_555 1_555
O2_3 C1_3 1_555 1_555
C1_3 C2_3 1_555 1_555
C3_3 C2_3 1_555 1_555
C11_3 N4_3 1_555 1_555
C12_3 C11_3 1_555 1_555
H7 C12_3 1_555 1_555
C13_3 C12_3 1_555 1_555
C14_3 C13_3 1_555 1_555
H8 C14_3 1_555 1_555
C15_3 N4_3 1_555 1_555
H9_3 C15_3 1_555 1_555
O6 C16 1_555 1_555
O7 C16 1_555 1_555
O8 C19 1_555 1_555
O9 C19 1_555 1_555
O12_2 Ni2_2 1_555 1_555
N5_2 Ni2_2 1_555 1_555
N9_2 Ni2_2 1_555 1_555
N10 Ni2_2 1_555 1_555
C16 C17 1_555 1_555
C17 N5_2 1_555 1_555
C18 N6 1_555 1_555
C19 C18 1_555 1_555
C20_2 N5_2 1_555 1_555
C21_2 N9_2 1_555 1_555
C22_2 C21_2 1_555 1_555
H11_2 C22_2 1_555 1_555
C23_2 C22_2 1_555 1_555
H12_2 C23_2 1_555 1_555
C24_2 C23_2 1_555 1_555
H13_2 C24_2 1_555 1_555
C25_2 N9_2 1_555 1_555
H14_2 C25_2 1_555 1_555
C26 N10 1_555 1_555
H15_2 C26 1_555 1_555
C27 C26 1_555 1_555
H16 C27 1_555 1_555
C28 C13_3 1_555 1_555
C29 C28 1_555 1_555
H17 C29 1_555 1_555
C30 N10 1_555 1_555
H18 C30 1_555 1_555
C14_3 C15_3 1_555 1_555
N6 C20_2 1_555 1_555
C17 C18 1_555 1_555
C20_2 C21_2 1_555 1_555
C24_2 C25_2 1_555 1_555
C27 C28 1_555 1_555
C29 C30 1_555 1_555
O12 H20 1_555 1_555
Ni3 O10 1_555 1_555
Ni4_2 O11 1_555 1_555
O6_2 C16_2 1_555 1_555
O7_2 C16_2 1_555 1_555
O8_2 C19_2 1_555 1_555
O11 C19_2 1_555 1_555
O12_3 Ni3 1_555 1_555
N5_3 Ni3 1_555 1_555
N7 Ni3 1_555 1_555
N8_2 Ni4_2 1_555 1_555
N9_3 Ni3 1_555 1_555
N10_2 Ni3 1_555 1_555
C16_2 C17_2 1_555 1_555
C17_2 N5_3 1_555 1_555
C18_2 N8_2 1_555 1_555
C19_2 C18_2 1_555 1_555
C20_3 N5_3 1_555 1_555
C21_3 N9_3 1_555 1_555
C22_3 C21_3 1_555 1_555
H11_3 C22_3 1_555 1_555
C23_3 C22_3 1_555 1_555
H12_3 C23_3 1_555 1_555
C24_3 C23_3 1_555 1_555
C25_3 N9_3 1_555 1_555
H14_3 C25_3 1_555 1_555
C26_2 N10_2 1_555 1_555
H15_3 C26_2 1_555 1_555
C27_2 C26_2 1_555 1_555
C29_2 C28_2 1_555 1_555
C30_2 N10_2 1_555 1_555
H18_2 C30_2 1_555 1_555
N8_2 C20_3 1_555 1_555
C17_2 C18_2 1_555 1_555
C20_3 C21_3 1_555 1_555
C24_3 C25_3 1_555 1_555
C27_2 C28_2 1_555 1_555
C29_2 C30_2 1_555 1_555
Ni4_3 O11_2 1_555 1_555
O7_3 C16_3 1_555 1_555
O8_3 C19_3 1_555 1_555
O11_2 C19_3 1_555 1_555
N5_4 Ni3_2 1_555 1_555
N7_2 Ni3_2 1_555 1_555
N8_3 Ni4_3 1_555 1_555
N9_4 Ni3_2 1_555 1_555
N10_3 Ni3_2 1_555 1_555
C16_3 C17_3 1_555 1_555
C17_3 N5_4 1_555 1_555
C18_3 N8_3 1_555 1_555
C19_3 C18_3 1_555 1_555
C20_4 N5_4 1_555 1_555
C21_4 N9_4 1_555 1_555
C22_4 C21_4 1_555 1_555
H11_4 C22_4 1_555 1_555
C23_4 C22_4 1_555 1_555
H12_4 C23_4 1_555 1_555
C24_4 C23_4 1_555 1_555
C25_4 N9_4 1_555 1_555
H14_4 C25_4 1_555 1_555
C26_3 N10_3 1_555 1_555
H15_4 C26_3 1_555 1_555
C27_3 C26_3 1_555 1_555
C29_3 C28_3 1_555 1_555
C30_3 N10_3 1_555 1_555
H18_3 C30_3 1_555 1_555
N8_3 C20_4 1_555 1_555
C17_3 C18_3 1_555 1_555
C20_4 C21_4 1_555 1_555
C24_4 C25_4 1_555 1_555
C27_3 C28_3 1_555 1_555
C29_3 C30_3 1_555 1_555
Ni4_2 O5_2 1_555 1_555
O5_2 H1 1_555 1_555
N1_3 Ni4_2 1_555 1_555
N3_3 Ni4_2 1_555 1_555
C5_3 N1_3 1_555 1_555
C6_3 N3_3 1_555 1_555
C7_3 C6_3 1_555 1_555
H2_3 C7_3 1_555 1_555
C8_3 C7_3 1_555 1_555
H3_3 C8_3 1_555 1_555
C9_3 C8_3 1_555 1_555
H4_2 C9_3 1_555 1_555
C10_3 N3_3 1_555 1_555
H5_3 C10_3 1_555 1_555
N7_2 C5_3 1_555 1_555
C5_3 C6_3 1_555 1_555
C9_3 C10_3 1_555 1_555
O5_2 H20_2 1_555 1_555
Ni4_3 O5_3 1_555 1_555
O1_3 C1_4 1_555 1_555
O2_4 C1_4 1_555 1_555
O3_4 C4_3 1_555 1_555
O10 C4_3 1_555 1_555
N1_4 Ni4_3 1_555 1_555
N7 C3_4 1_555 1_555
N3_4 Ni4_3 1_555 1_555
N4_4 Ni4_3 1_555 1_555
C1_4 C2_4 1_555 1_555
C2_4 N1_4 1_555 1_555
C3_4 C2_4 1_555 1_555
C4_3 C3_4 1_555 1_555
C5_4 N1_4 1_555 1_555
C6_4 N3_4 1_555 1_555
C7_4 C6_4 1_555 1_555
H2_4 C7_4 1_555 1_555
C8_4 C7_4 1_555 1_555
H3_4 C8_4 1_555 1_555
C9_4 C8_4 1_555 1_555
H4_3 C9_4 1_555 1_555
C10_4 N3_4 1_555 1_555
H5_4 C10_4 1_555 1_555
C11_4 N4_4 1_555 1_555
H6_4 C11_4 1_555 1_555
C12_4 C11_4 1_555 1_555
H7_3 C12_4 1_555 1_555
C13_4 C12_4 1_555 1_555
C14_4 C13_4 1_555 1_555
H8_3 C14_4 1_555 1_555
C15_4 N4_4 1_555 1_555
H9_4 C15_4 1_555 1_555
O6_3 C16_4 1_555 1_555
O7_4 C16_4 1_555 1_555
C16_4 C17_4 1_555 1_555
C26_4 N10_4 1_555 1_555
C27_4 C26_4 1_555 1_555
H16_3 C27_4 1_555 1_555
C28_4 C13_4 1_555 1_555
C29_4 C28_4 1_555 1_555
H17_3 C29_4 1_555 1_555
C30_4 N10_4 1_555 1_555
H18_4 C30_4 1_555 1_555
N7 C5_4 1_555 1_555
C5_4 C6_4 1_555 1_555
C9_4 C10_4 1_555 1_555
C14_4 C15_4 1_555 1_555
C17_4 C18_4 1_555 1_555
C27_4 C28_4 1_555 1_555
C29_4 C30_4 1_555 1_555
Ni1_2 O5_4 1_555 1_555
O1_4 C1_5 1_555 1_555
O2_5 C1_5 1_555 1_555
N1_5 Ni1_2 1_555 1_555
N3_5 Ni1_2 1_555 1_555
N4_5 Ni1_2 1_555 1_555
C1_5 C2_5 1_555 1_555
C2_5 N1_5 1_555 1_555
C3_5 C2_5 1_555 1_555
C5_5 N1_5 1_555 1_555
C6_5 N3_5 1_555 1_555
C10_5 N3_5 1_555 1_555
H5_5 C10_5 1_555 1_555
C11_5 N4_5 1_555 1_555
H6_5 C11_5 1_555 1_555
C12_5 C11_5 1_555 1_555
H7_4 C12_5 1_555 1_555
C13_5 C12_5 1_555 1_555
C14_5 C13_5 1_555 1_555
H8_4 C14_5 1_555 1_555
C15_5 N4_5 1_555 1_555
H9_5 C15_5 1_555 1_555
O6_4 C16_5 1_555 1_555
O7_5 C16_5 1_555 1_555
O8_5 C19_4 1_555 1_555
O9_2 Ni1_2 1_555 1_555
O11_3 C19_4 1_555 1_555
N6_2 Ni1_2 1_555 1_555
C16_5 C17_5 1_555 1_555
C19_4 C18_5 1_555 1_555
C26_5 N10_5 1_555 1_555
C27_5 C26_5 1_555 1_555
H16_4 C27_5 1_555 1_555
C28_5 C13_5 1_555 1_555
C29_5 C28_5 1_555 1_555
H17_4 C29_5 1_555 1_555
C30_5 N10_5 1_555 1_555
H18_5 C30_5 1_555 1_555
C5_5 C6_5 1_555 1_555
C14_5 C15_5 1_555 1_555
C17_5 C18_5 1_555 1_555
C27_5 C28_5 1_555 1_555
C29_5 C30_5 1_555 1_555
H2_5 C7_5 1_555 1_555
C8_5 C7_5 1_555 1_555
H3_5 C8_5 1_555 1_555
C9_5 C8_5 1_555 1_555
H4_4 C9_5 1_555 1_555
N2_3 Ni2_3 1_555 1_555
O7_6 C16_6 1_555 1_555
O8_6 C19_5 1_555 1_555
O9_2 C19_5 1_555 1_555
N5_5 Ni2_3 1_555 1_555
N9_5 Ni2_3 1_555 1_555
N10_6 Ni2_3 1_555 1_555
C16_6 C17_6 1_555 1_555
C17_6 N5_5 1_555 1_555
C18_6 N6_2 1_555 1_555
C19_5 C18_6 1_555 1_555
C20_5 N5_5 1_555 1_555
C21_5 N9_5 1_555 1_555
C22_5 C21_5 1_555 1_555
H11_5 C22_5 1_555 1_555
C23_5 C22_5 1_555 1_555
H12_5 C23_5 1_555 1_555
C24_5 C23_5 1_555 1_555
H13_4 C24_5 1_555 1_555
C25_5 N9_5 1_555 1_555
H14_5 C25_5 1_555 1_555
C26_6 N10_6 1_555 1_555
H15_5 C26_6 1_555 1_555
C27_6 C26_6 1_555 1_555
H16_5 C27_6 1_555 1_555
C29_6 C28_6 1_555 1_555
C30_6 N10_6 1_555 1_555
H18_6 C30_6 1_555 1_555
N6_2 C20_5 1_555 1_555
C17_6 C18_6 1_555 1_555
C20_5 C21_5 1_555 1_555
C24_5 C25_5 1_555 1_555
C27_6 C28_6 1_555 1_555
C29_6 C30_6 1_555 1_555
O9_3 C19_6 1_555 1_555
O4_3 C4_4 1_555 1_555
H2_6 C7_6 1_555 1_555
C8_6 C7_6 1_555 1_555
H3_6 C8_6 1_555 1_555
C9_6 C8_6 1_555 1_555
H4_5 C9_6 1_555 1_555
Ni2_4 O4_3 1_555 1_555
N2_4 Ni2_4 1_555 1_555
Ni1_3 O5_7 1_555 1_555
O5_7 H1_2 1_555 1_555
N1_6 Ni1_3 1_555 1_555
N3_6 Ni1_3 1_555 1_555
C5_6 N1_6 1_555 1_555
C6_6 N3_6 1_555 1_555
C10_6 N3_6 1_555 1_555
H5_6 C10_6 1_555 1_555
O9_4 Ni1_3 1_555 1_555
N6_3 Ni1_3 1_555 1_555
C5_6 C6_6 1_555 1_555
O5_7 H20_3 1_555 1_555
Ni4_4 O11_4 1_555 1_555
O11_4 C19_7 1_555 1_555
N8_4 Ni4_4 1_555 1_555
H11_6 C22_6 1_555 1_555
C23_6 C22_6 1_555 1_555
H12_6 C23_6 1_555 1_555
C24_6 C23_6 1_555 1_555
H13_5 C24_6 1_555 1_555
Ni4_4 O5_8 1_555 1_555
O1_7 C1_6 1_555 1_555
O2_6 C1_6 1_555 1_555
O3_6 C4_5 1_555 1_555
O4_4 C4_5 1_555 1_555
N1_7 Ni4_4 1_555 1_555
N2_5 C3_6 1_555 1_555
N3_7 Ni4_4 1_555 1_555
N4_6 Ni4_4 1_555 1_555
C1_6 C2_6 1_555 1_555
C2_6 N1_7 1_555 1_555
C3_6 C2_6 1_555 1_555
C4_5 C3_6 1_555 1_555
C5_7 N1_7 1_555 1_555
C6_7 N3_7 1_555 1_555
C7_7 C6_7 1_555 1_555
H2_7 C7_7 1_555 1_555
C8_7 C7_7 1_555 1_555
H3_7 C8_7 1_555 1_555
C9_7 C8_7 1_555 1_555
H4_6 C9_7 1_555 1_555
C10_7 N3_7 1_555 1_555
H5_7 C10_7 1_555 1_555
C11_6 N4_6 1_555 1_555
H6_7 C11_6 1_555 1_555
C12_6 C11_6 1_555 1_555
H7_5 C12_6 1_555 1_555
C13_6 C12_6 1_555 1_555
C14_6 C13_6 1_555 1_555
H8_6 C14_6 1_555 1_555
C15_6 N4_6 1_555 1_555
H9_6 C15_6 1_555 1_555
Ni2_5 O4_4 1_555 1_555
O6_5 C16_7 1_555 1_555
O7_7 C16_7 1_555 1_555
O8_7 C19_8 1_555 1_555
O9_4 C19_8 1_555 1_555
O12_4 Ni2_4 1_555 1_555
N5_6 Ni2_4 1_555 1_555
N9_6 Ni2_4 1_555 1_555
N10_7 Ni2_4 1_555 1_555
C16_7 C17_7 1_555 1_555
C17_7 N5_6 1_555 1_555
C18_7 N6_3 1_555 1_555
C19_8 C18_7 1_555 1_555
C20_6 N5_6 1_555 1_555
C21_6 N9_6 1_555 1_555
C22_7 C21_6 1_555 1_555
H11_7 C22_7 1_555 1_555
C23_7 C22_7 1_555 1_555
H12_7 C23_7 1_555 1_555
C24_7 C23_7 1_555 1_555
H13_6 C24_7 1_555 1_555
C25_6 N9_6 1_555 1_555
H14_6 C25_6 1_555 1_555
C26_7 N10_7 1_555 1_555
H15_6 C26_7 1_555 1_555
C27_7 C26_7 1_555 1_555
H16_6 C27_7 1_555 1_555
C28_7 C13_6 1_555 1_555
C29_7 C28_7 1_555 1_555
H17_5 C29_7 1_555 1_555
C30_7 N10_7 1_555 1_555
H18_7 C30_7 1_555 1_555
N2_5 C5_7 1_555 1_555
N2_5 Ni2_5 1_555 1_555
C5_7 C6_7 1_555 1_555
C9_7 C10_7 1_555 1_555
C14_6 C15_6 1_555 1_555
N6_3 C20_6 1_555 1_555
C17_7 C18_7 1_555 1_555
C20_6 C21_6 1_555 1_555
C24_7 C25_6 1_555 1_555
C27_7 C28_7 1_555 1_555
C29_7 C30_7 1_555 1_555
O12_5 Ni2_5 1_555 1_555
H10_2 O12_5 1_555 1_555
N5_7 Ni2_5 1_555 1_555
N9_7 Ni2_5 1_555 1_555
C20_7 N5_7 1_555 1_555
C21_7 N9_7 1_555 1_555
C25_7 N9_7 1_555 1_555
H14_7 C25_7 1_555 1_555
C20_7 C21_7 1_555 1_555
O12_5 H20_4 1_555 1_555
O4_5 C4_6 1_555 1_555
O2_7 C1_7 1_555 1_555
O3_7 C4_7 1_555 1_555
O4_6 C4_7 1_555 1_555
N1_8 Ni1_4 1_555 1_555
N2_6 C3_7 1_555 1_555
N3_8 Ni1_4 1_555 1_555
N4_7 Ni1_4 1_555 1_555
C1_7 C2_7 1_555 1_555
C2_7 N1_8 1_555 1_555
C3_7 C2_7 1_555 1_555
C4_7 C3_7 1_555 1_555
C5_8 N1_8 1_555 1_555
C6_8 N3_8 1_555 1_555
C7_8 C6_8 1_555 1_555
H2_8 C7_8 1_555 1_555
C8_8 C7_8 1_555 1_555
H3_8 C8_8 1_555 1_555
C9_8 C8_8 1_555 1_555
H4_7 C9_8 1_555 1_555
C10_8 N3_8 1_555 1_555
H5_8 C10_8 1_555 1_555
C11_7 N4_7 1_555 1_555
H6_8 C11_7 1_555 1_555
C12_7 C11_7 1_555 1_555
H7_6 C12_7 1_555 1_555
C13_7 C12_7 1_555 1_555
C14_7 C13_7 1_555 1_555
C15_7 N4_7 1_555 1_555
H9_7 C15_7 1_555 1_555
Ni2_6 O4_6 1_555 1_555
N6_4 Ni1_4 1_555 1_555
N2_6 C5_8 1_555 1_555
N2_6 Ni2_6 1_555 1_555
C5_8 C6_8 1_555 1_555
C9_8 C10_8 1_555 1_555
C14_7 C15_7 1_555 1_555
O1_8 C1_8 1_555 1_555
O2_8 C1_8 1_555 1_555
O3_8 C4_8 1_555 1_555
O10_2 C4_8 1_555 1_555
C1_8 C2_8 1_555 1_555
C3_8 C2_8 1_555 1_555
C4_8 C3_8 1_555 1_555
C11_8 N4_8 1_555 1_555
C12_8 C11_8 1_555 1_555
H7_7 C12_8 1_555 1_555
C13_8 C12_8 1_555 1_555
C14_8 C13_8 1_555 1_555
H8_8 C14_8 1_555 1_555
C15_8 N4_8 1_555 1_555
H9_8 C15_8 1_555 1_555
O6_8 C16_8 1_555 1_555
O7_8 C16_8 1_555 1_555
O12_8 Ni2_6 1_555 1_555
N5_8 Ni2_6 1_555 1_555
N9_8 Ni2_6 1_555 1_555
N10_8 Ni2_6 1_555 1_555
C16_8 C17_8 1_555 1_555
C17_8 N5_8 1_555 1_555
C20_8 N5_8 1_555 1_555
C21_8 N9_8 1_555 1_555
C25_8 N9_8 1_555 1_555
H14_8 C25_8 1_555 1_555
C26_8 N10_8 1_555 1_555
H15_8 C26_8 1_555 1_555
C27_8 C26_8 1_555 1_555
H16_8 C27_8 1_555 1_555
C28_8 C13_8 1_555 1_555
C29_8 C28_8 1_555 1_555
H17_7 C29_8 1_555 1_555
C30_8 N10_8 1_555 1_555
H18_8 C30_8 1_555 1_555
C14_8 C15_8 1_555 1_555
C17_8 C18_8 1_555 1_555
C20_8 C21_8 1_555 1_555
C27_8 C28_8 1_555 1_555
C29_8 C30_8 1_555 1_555
H11_8 C22_8 1_555 1_555
C23_8 C22_8 1_555 1_555
H12_8 C23_8 1_555 1_555
C24_8 C23_8 1_555 1_555
H13_8 C24_8 1_555 1_555

#END
