
###############################################################################
#
# This file contains modified crystal structure data generated from the
# MOF subset of the Cambridge Structural Database (CSD) v543 
# hosted by the Cambridge Crystallographic Data Centre (CCDC).
#
# This work is licensed under the Creative Commons
# Attribution-NonCommercial-ShareAlike 4.0 International License.
# To view a copy of this license, visit
# http://creativecommons.org/licenses/by-nc-sa/4.0/
# or send a letter to
# Creative Commons, PO Box 1866, Mountain View, CA 94042, USA.
#
# CIF created using the CSD Python API on 29 September 2022
# The structure has been converted into the P1 space group
# The structure has a 3D framework
# The original CSD entry YUSWEP is in the cubic crystal system
# The framework has been calculated to contain at least 10.0% void space
# The void calculation uses a probe of radius 1.32A, grid spacing 0.4
# H atom positions have been added when not included in the experimental data
# Generated hydrogen atom positions removed from atoms on special positions
#
###############################################################################

data_YUSWEP
_chemical_formula_moiety         '(C3960 H3120 Cu240 O1008)n'
_symmetry_cell_setting           triclinic
_symmetry_space_group_name_H-M   'P 1'
_symmetry_Int_Tables_number      1
_space_group_name_Hall           'P 1'
loop_
_symmetry_equiv_pos_site_id
_symmetry_equiv_pos_as_xyz
1 x,y,z
_cell_length_a                   67.283(10)
_cell_length_b                   67.283(10)
_cell_length_c                   67.283(10)
_cell_angle_alpha                90
_cell_angle_beta                 90
_cell_angle_gamma                90
_cell_volume                     304590
loop_
_atom_site_label
_atom_site_type_symbol
_atom_site_fract_x
_atom_site_fract_y
_atom_site_fract_z
Cu1 Cu 0.122880(12) 0.5000 0.314840(12)
Cu2 Cu 0.095250(12) 0.5000 0.342426(12)
Cu3 Cu 0.099146(12) 0.266207(9) 0.266207(9)
Cu4 Cu 0.063531(11) 0.254706(8) 0.254706(8)
O1 O 0.10630(6) 0.47913(5) 0.30323(5)
O2 O 0.08229(6) 0.48002(5) 0.32669(6)
O3 O 0.08790(7) 0.29315(5) 0.26404(5)
O4 O 0.05800(6) 0.28331(6) 0.25431(5)
O5 O 0.23327(6) 0.60499(7) 0.26184(5)
O6 O 0.24317(7) 0.57442(5) 0.27170(5)
O7 O 0.13593(5) 0.51987(6) 0.33149(5)
O8 O 0.11194(5) 0.52007(6) 0.35456(7)
O9 O 0.14537(6) 0.5000 0.29161(6)
O10 O 0.07293(8) 0.5000 0.36617(8)
O11 O 0.12819(7) 0.27580(6) 0.27580(6)
O12 O 0.03421(6) 0.24593(5) 0.24593(5)
C1 C 0.09039(10) 0.47325(7) 0.31182(11)
C2 C 0.07914(13) 0.45701(9) 0.30051(9)
C3 C 0.08848(8) 0.44415(12) 0.28708(11)
H1 H 0.1023 0.4456 0.2846
C4 C 0.07812(13) 0.42959(9) 0.27757(8)
H2 H 0.0849 0.4211 0.2685
C5 C 0.05768(12) 0.42689(10) 0.28085(11)
C6 C 0.04889(9) 0.43994(13) 0.29331(12)
H3 H 0.0349 0.4391 0.2951
C7 C 0.05899(14) 0.45427(10) 0.30353(9)
H4 H 0.0521 0.4624 0.3128
C8 C 0.04632(11) 0.41083(12) 0.26957(8)
C9 C 0.05353(9) 0.39155(13) 0.26830(10)
H5 H 0.0657 0.3882 0.2746
C10 C 0.04305(10) 0.37694(12) 0.25776(8)
C11 C 0.02654(11) 0.38285(9) 0.24908(8)
H6 H 0.0196 0.3730 0.2417
C12 C 0.01782(9) 0.40218(11) 0.24941(8)
C13 C 0.02797(10) 0.41562(10) 0.25984(10)
H7 H 0.0229 0.4288 0.2609
C14 C 0.0000 0.40828(9) 0.23945(10)
H8 H -0.0000 0.4027 0.2258
H9 H 0.0000 0.4229 0.2383
C15 C 0.05073(12) 0.35684(11) 0.25761(8)
C16 C 0.07017(13) 0.35198(12) 0.26051(8)
H10 H 0.0796 0.3623 0.2627
C17 C 0.07648(9) 0.33263(16) 0.26033(8)
H11 H 0.0902 0.3297 0.2620
C18 C 0.06272(13) 0.31711(10) 0.25768(7)
C19 C 0.04386(12) 0.32197(11) 0.25528(8)
H12 H 0.0342 0.3118 0.2536
C20 C 0.03795(8) 0.34120(15) 0.25521(8)
H13 H 0.0242 0.3440 0.2534
C21 C 0.07004(11) 0.29661(11) 0.25892(8)
C22 C 0.23874(14) 0.59249(10) 0.27455(8)
C23 C 0.23850(12) 0.59886(13) 0.29574(9)
C24 C 0.23127(13) 0.61768(12) 0.30093(9)
H14 H 0.2265 0.6262 0.2908
C25 C 0.23091(9) 0.62419(15) 0.32053(10)
H15 H 0.2259 0.6370 0.3237
C26 C 0.23792(13) 0.61192(11) 0.33549(9)
C27 C 0.24457(12) 0.59301(12) 0.33055(8)
H16 H 0.2489 0.5842 0.3407
C28 C 0.24486(10) 0.58686(14) 0.31057(8)
H17 H 0.2496 0.5740 0.3074
C29 C 0.23721(9) 0.61739(11) 0.35736(7)
C30 C 0.23839(8) 0.63707(8) 0.36293(10)
H18 H 0.2400 0.6470 0.3530
C31 C 0.23427(9) 0.60314(12) 0.37227(7)
H19 H 0.2334 0.5895 0.3686
C32 C 0.23257(12) 0.60808(12) 0.39192(11)
C33 C 0.22724(10) 0.59287(10) 0.40713(14)
H20 H 0.2330 0.5967 0.4201
H21 H 0.2330 0.5799 0.4033
C34 C 0.20512(7) 0.59085(7) 0.40915(14)
C35 C 0.19448(7) 0.57856(7) 0.39660(13)
H22 H 0.2015 0.5705 0.3874
C36 C 0.17403(10) 0.57765(10) 0.39696(11)
C37 C 0.16445(9) 0.59041(9) 0.40959(14)
H23 H 0.1503 0.5905 0.4095
C38 C 0.16346(10) 0.56448(12) 0.38444(11)
C39 C 0.14600(11) 0.55628(9) 0.39070(14)
H24 H 0.1414 0.5590 0.4038
C40 C 0.13484(10) 0.54413(15) 0.37850(8)
H25 H 0.1225 0.5391 0.3832
C41 C 0.14136(10) 0.53910(11) 0.35932(13)
C42 C 0.15880(10) 0.54655(9) 0.35307(12)
H26 H 0.1639 0.5434 0.3403
C43 C 0.16927(10) 0.55896(15) 0.36593(8)
H27 H 0.1816 0.5640 0.3613
C44 C 0.12842(8) 0.52546(11) 0.34718(11)
Cu6 Cu 0.122880(12) 0.685160(12) 0.5000
Cu8 Cu 0.095250(12) 0.657574(12) 0.5000
Cu9 Cu 0.233793(9) 0.599146(12) 0.233793(9)
Cu11 Cu 0.233793(9) 0.766207(9) 0.400854(12)
Cu12 Cu 0.245294(8) 0.563531(11) 0.245294(8)
Cu14 Cu 0.245294(8) 0.754706(8) 0.436469(11)
O14 O 0.10630(6) 0.52087(5) 0.30323(5)
O16 O 0.08229(6) 0.51998(5) 0.32669(6)
O18 O 0.08790(7) 0.26404(5) 0.29315(5)
O20 O 0.05800(6) 0.25431(5) 0.28331(6)
O21 O 0.23327(6) 0.73816(5) 0.39501(7)
O22 O 0.10499(7) 0.23816(5) 0.26673(6)
O23 O 0.10499(7) 0.26673(6) 0.23816(5)
O24 O 0.24317(7) 0.72830(5) 0.42558(5)
O25 O 0.07442(5) 0.22830(5) 0.25683(7)
O26 O 0.07442(5) 0.25683(7) 0.22830(5)
O27 O 0.13593(5) 0.66851(5) 0.48013(6)
O28 O 0.13593(5) 0.48013(6) 0.33149(5)
O29 O 0.11194(5) 0.64544(7) 0.47993(6)
O30 O 0.11194(5) 0.47993(6) 0.35456(7)
C65 C 0.23874(14) 0.72545(8) 0.40751(10)
C66 C 0.23850(12) 0.70426(9) 0.40114(13)
C67 C 0.23127(13) 0.69907(9) 0.38232(12)
H39 H 0.2265 0.7092 0.3738
C68 C 0.23091(9) 0.67947(10) 0.37581(15)
H40 H 0.2259 0.6763 0.3630
C69 C 0.23792(13) 0.66451(9) 0.38808(11)
C70 C 0.24457(12) 0.66945(8) 0.40699(12)
H41 H 0.2489 0.6593 0.4158
C71 C 0.24486(10) 0.68943(8) 0.41314(14)
H42 H 0.2496 0.6926 0.4260
C72 C 0.23721(9) 0.64264(7) 0.38261(11)
C73 C 0.23427(9) 0.62773(7) 0.39686(12)
H43 H 0.2334 0.6314 0.4105
C74 C 0.19448(7) 0.60340(13) 0.42144(7)
H44 H 0.2015 0.6126 0.4295
C75 C 0.17403(10) 0.60304(11) 0.42235(10)
C76 C 0.16346(10) 0.61556(11) 0.43552(12)
C77 C 0.14600(11) 0.60930(14) 0.44372(9)
H45 H 0.1414 0.5962 0.4410
C78 C 0.13484(10) 0.62150(8) 0.45587(15)
H46 H 0.1225 0.6168 0.4609
C79 C 0.14136(10) 0.64068(13) 0.46090(11)
C80 C 0.15880(10) 0.64693(12) 0.45345(9)
H47 H 0.1639 0.6597 0.4566
C81 C 0.16927(10) 0.63407(8) 0.44104(15)
H48 H 0.1816 0.6387 0.4360
C82 C 0.12842(8) 0.65282(11) 0.47454(11)
C14_2 C 1.0000 0.40828(9) 0.23945(10)
H8_2 H 1.0000 0.4027 0.2258
H9_2 H 1.0000 0.4229 0.2383
Cu5 Cu 0.877120(12) 0.5000 0.314840(12)
Cu7 Cu 0.904750(12) 0.5000 0.342426(12)
Cu10 Cu 0.900854(12) 0.266207(9) 0.266207(9)
Cu13 Cu 0.936469(11) 0.254706(8) 0.254706(8)
O13 O 0.89370(6) 0.47913(5) 0.30323(5)
O15 O 0.91771(6) 0.48002(5) 0.32669(6)
O17 O 0.91210(7) 0.29315(5) 0.26404(5)
O19 O 0.94200(6) 0.28331(6) 0.25431(5)
C45 C 0.90961(10) 0.47325(7) 0.31182(11)
C46 C 0.92086(13) 0.45701(9) 0.30051(9)
C47 C 0.91152(8) 0.44415(12) 0.28708(11)
H28 H 0.8977 0.4456 0.2846
C48 C 0.92188(13) 0.42959(9) 0.27757(8)
H29 H 0.9151 0.4211 0.2685
C49 C 0.94232(12) 0.42689(10) 0.28085(11)
C50 C 0.95111(9) 0.43994(13) 0.29331(12)
H30 H 0.9651 0.4391 0.2951
C51 C 0.94101(14) 0.45427(10) 0.30353(9)
H31 H 0.9479 0.4624 0.3128
C52 C 0.95368(11) 0.41083(12) 0.26957(8)
C53 C 0.94647(9) 0.39155(13) 0.26830(10)
H32 H 0.9343 0.3882 0.2746
C54 C 0.95695(10) 0.37694(12) 0.25776(8)
C55 C 0.97346(11) 0.38285(9) 0.24908(8)
H33 H 0.9804 0.3730 0.2417
C56 C 0.98218(9) 0.40218(11) 0.24941(8)
C57 C 0.97203(10) 0.41562(10) 0.25984(10)
H34 H 0.9771 0.4288 0.2609
C58 C 0.94927(12) 0.35684(11) 0.25761(8)
C59 C 0.92983(13) 0.35198(12) 0.26051(8)
H35 H 0.9204 0.3623 0.2627
C60 C 0.92352(9) 0.33263(16) 0.26033(8)
H36 H 0.9098 0.3297 0.2620
C61 C 0.93728(13) 0.31711(10) 0.25768(7)
C62 C 0.95614(12) 0.32197(11) 0.25528(8)
H37 H 0.9658 0.3118 0.2536
C63 C 0.96205(8) 0.34120(15) 0.25521(8)
H38 H 0.9758 0.3440 0.2534
C64 C 0.92996(11) 0.29661(11) 0.25892(8)
Cu1_2 Cu 0.5000 0.122880(12) 0.314840(12)
Cu2_2 Cu 0.5000 0.095250(12) 0.342426(12)
Cu3_2 Cu 0.733793(9) 0.099146(12) 0.266207(9)
Cu4_2 Cu 0.745294(8) 0.063531(11) 0.254706(8)
O1_2 O 0.52087(5) 0.10630(6) 0.30323(5)
O2_2 O 0.51998(5) 0.08229(6) 0.32669(6)
O3_2 O 0.70685(5) 0.08790(7) 0.26404(5)
O4_2 O 0.71669(6) 0.05800(6) 0.25431(5)
O5_2 O 0.39501(7) 0.23327(6) 0.26184(5)
O6_2 O 0.42558(5) 0.24317(7) 0.27170(5)
O7_2 O 0.48013(6) 0.13593(5) 0.33149(5)
O8_2 O 0.47993(6) 0.11194(5) 0.35456(7)
O9_2 O 0.5000 0.14537(6) 0.29161(6)
O10_2 O 0.5000 0.07293(8) 0.36617(8)
O11_2 O 0.72420(6) 0.12819(7) 0.27580(6)
O12_2 O 0.75407(5) 0.03421(6) 0.24593(5)
C1_2 C 0.52675(7) 0.09039(10) 0.31182(11)
C2_2 C 0.54299(9) 0.07914(13) 0.30051(9)
C3_2 C 0.55585(12) 0.08848(8) 0.28708(11)
H1_2 H 0.5544 0.1023 0.2846
C4_2 C 0.57041(9) 0.07812(13) 0.27757(8)
H2_2 H 0.5789 0.0849 0.2685
C5_2 C 0.57311(10) 0.05768(12) 0.28085(11)
C6_2 C 0.56006(13) 0.04889(9) 0.29331(12)
H3_2 H 0.5609 0.0349 0.2951
C7_2 C 0.54573(10) 0.05899(14) 0.30353(9)
H4_2 H 0.5376 0.0521 0.3128
C8_2 C 0.58917(12) 0.04632(11) 0.26957(8)
C9_2 C 0.60845(13) 0.05353(9) 0.26830(10)
H5_2 H 0.6118 0.0657 0.2746
C10_2 C 0.62306(12) 0.04305(10) 0.25776(8)
C11_2 C 0.61715(9) 0.02654(11) 0.24908(8)
H6_2 H 0.6270 0.0196 0.2417
C12_2 C 0.59782(11) 0.01782(9) 0.24941(8)
C13_2 C 0.58438(10) 0.02797(10) 0.25984(10)
H7_2 H 0.5712 0.0229 0.2609
C14_3 C 0.59172(9) 0.0000 0.23945(10)
H8_3 H 0.5973 -0.0000 0.2258
H9_3 H 0.5771 0.0000 0.2383
C15_2 C 0.64316(11) 0.05073(12) 0.25761(8)
C16_2 C 0.64802(12) 0.07017(13) 0.26051(8)
H10_2 H 0.6377 0.0796 0.2627
C17_2 C 0.66737(16) 0.07648(9) 0.26033(8)
H11_2 H 0.6703 0.0902 0.2620
C18_2 C 0.68289(10) 0.06272(13) 0.25768(7)
C19_2 C 0.67803(11) 0.04386(12) 0.25528(8)
H12_2 H 0.6882 0.0342 0.2536
C20_2 C 0.65880(15) 0.03795(8) 0.25521(8)
H13_2 H 0.6560 0.0242 0.2534
C21_2 C 0.70339(11) 0.07004(11) 0.25892(8)
C22_2 C 0.40751(10) 0.23874(14) 0.27455(8)
C23_2 C 0.40114(13) 0.23850(12) 0.29574(9)
C24_2 C 0.38232(12) 0.23127(13) 0.30093(9)
H14_2 H 0.3738 0.2265 0.2908
C25_2 C 0.37581(15) 0.23091(9) 0.32053(10)
H15_2 H 0.3630 0.2259 0.3237
C26_2 C 0.38808(11) 0.23792(13) 0.33549(9)
C27_2 C 0.40699(12) 0.24457(12) 0.33055(8)
H16_2 H 0.4158 0.2489 0.3407
C28_2 C 0.41314(14) 0.24486(10) 0.31057(8)
H17_2 H 0.4260 0.2496 0.3074
C29_2 C 0.38261(11) 0.23721(9) 0.35736(7)
C30_2 C 0.36293(8) 0.23839(8) 0.36293(10)
H18_2 H 0.3530 0.2400 0.3530
C31_2 C 0.39686(12) 0.23427(9) 0.37227(7)
H19_2 H 0.4105 0.2334 0.3686
C32_2 C 0.39192(12) 0.23257(12) 0.39192(11)
C33_2 C 0.40713(10) 0.22724(10) 0.40713(14)
H20_2 H 0.4033 0.2330 0.4201
H21_2 H 0.4201 0.2330 0.4033
C34_2 C 0.40915(7) 0.20512(7) 0.40915(14)
C35_2 C 0.42144(7) 0.19448(7) 0.39660(13)
H22_2 H 0.4295 0.2015 0.3874
C36_2 C 0.42235(10) 0.17403(10) 0.39696(11)
C37_2 C 0.40959(9) 0.16445(9) 0.40959(14)
H23_2 H 0.4095 0.1503 0.4095
C38_2 C 0.43552(12) 0.16346(10) 0.38444(11)
C39_2 C 0.44372(9) 0.14600(11) 0.39070(14)
H24_2 H 0.4410 0.1414 0.4038
C40_2 C 0.45587(15) 0.13484(10) 0.37850(8)
H25_2 H 0.4609 0.1225 0.3832
C41_2 C 0.46090(11) 0.14136(10) 0.35932(13)
C42_2 C 0.45345(9) 0.15880(10) 0.35307(12)
H26_2 H 0.4566 0.1639 0.3403
C43_2 C 0.44104(15) 0.16927(10) 0.36593(8)
H27_2 H 0.4360 0.1816 0.3613
C44_2 C 0.47454(11) 0.12842(8) 0.34718(11)
Cu6_2 Cu 0.314840(12) 0.122880(12) 0.5000
Cu8_2 Cu 0.342426(12) 0.095250(12) 0.5000
Cu9_2 Cu 0.400854(12) 0.233793(9) 0.233793(9)
Cu11_2 Cu 0.233793(9) 0.233793(9) 0.400854(12)
Cu12_2 Cu 0.436469(11) 0.245294(8) 0.245294(8)
Cu14_2 Cu 0.245294(8) 0.245294(8) 0.436469(11)
O14_2 O 0.47913(5) 0.10630(6) 0.30323(5)
O16_2 O 0.48002(5) 0.08229(6) 0.32669(6)
O18_2 O 0.73596(5) 0.08790(7) 0.29315(5)
O20_2 O 0.74569(5) 0.05800(6) 0.28331(6)
O21_2 O 0.26184(5) 0.23327(6) 0.39501(7)
O22_2 O 0.76184(5) 0.10499(7) 0.26673(6)
O23_2 O 0.73327(6) 0.10499(7) 0.23816(5)
O24_2 O 0.27170(5) 0.24317(7) 0.42558(5)
O25_2 O 0.77170(5) 0.07442(5) 0.25683(7)
O26_2 O 0.74317(7) 0.07442(5) 0.22830(5)
O27_2 O 0.33149(5) 0.13593(5) 0.48013(6)
O28_2 O 0.51987(6) 0.13593(5) 0.33149(5)
O29_2 O 0.35456(7) 0.11194(5) 0.47993(6)
O30_2 O 0.52007(6) 0.11194(5) 0.35456(7)
C65_2 C 0.27455(8) 0.23874(14) 0.40751(10)
C66_2 C 0.29574(9) 0.23850(12) 0.40114(13)
C67_2 C 0.30093(9) 0.23127(13) 0.38232(12)
H39_2 H 0.2908 0.2265 0.3738
C68_2 C 0.32053(10) 0.23091(9) 0.37581(15)
H40_2 H 0.3237 0.2259 0.3630
C69_2 C 0.33549(9) 0.23792(13) 0.38808(11)
C70_2 C 0.33055(8) 0.24457(12) 0.40699(12)
H41_2 H 0.3407 0.2489 0.4158
C71_2 C 0.31057(8) 0.24486(10) 0.41314(14)
H42_2 H 0.3074 0.2496 0.4260
C72_2 C 0.35736(7) 0.23721(9) 0.38261(11)
C73_2 C 0.37227(7) 0.23427(9) 0.39686(12)
H43_2 H 0.3686 0.2334 0.4105
C74_2 C 0.39660(13) 0.19448(7) 0.42144(7)
H44_2 H 0.3874 0.2015 0.4295
C75_2 C 0.39696(11) 0.17403(10) 0.42235(10)
C76_2 C 0.38444(11) 0.16346(10) 0.43552(12)
C77_2 C 0.39070(14) 0.14600(11) 0.44372(9)
H45_2 H 0.4038 0.1414 0.4410
C78_2 C 0.37850(8) 0.13484(10) 0.45587(15)
H46_2 H 0.3832 0.1225 0.4609
C79_2 C 0.35932(13) 0.14136(10) 0.46090(11)
C80_2 C 0.35307(12) 0.15880(10) 0.45345(9)
H47_2 H 0.3403 0.1639 0.4566
C81_2 C 0.36593(8) 0.16927(10) 0.44104(15)
H48_2 H 0.3613 0.1816 0.4360
C82_2 C 0.34718(11) 0.12842(8) 0.47454(11)
C14_4 C 0.59172(9) 1.0000 0.23945(10)
H8_4 H 0.5973 1.0000 0.2258
H9_4 H 0.5771 1.0000 0.2383
Cu5_2 Cu 0.5000 0.877120(12) 0.314840(12)
Cu7_2 Cu 0.5000 0.904750(12) 0.342426(12)
Cu10_2 Cu 0.733793(9) 0.900854(12) 0.266207(9)
Cu13_2 Cu 0.745294(8) 0.936469(11) 0.254706(8)
O13_2 O 0.52087(5) 0.89370(6) 0.30323(5)
O15_2 O 0.51998(5) 0.91771(6) 0.32669(6)
O17_2 O 0.70685(5) 0.91210(7) 0.26404(5)
O19_2 O 0.71669(6) 0.94200(6) 0.25431(5)
C45_2 C 0.52675(7) 0.90961(10) 0.31182(11)
C46_2 C 0.54299(9) 0.92086(13) 0.30051(9)
C47_2 C 0.55585(12) 0.91152(8) 0.28708(11)
H28_2 H 0.5544 0.8977 0.2846
C48_2 C 0.57041(9) 0.92188(13) 0.27757(8)
H29_2 H 0.5789 0.9151 0.2685
C49_2 C 0.57311(10) 0.94232(12) 0.28085(11)
C50_2 C 0.56006(13) 0.95111(9) 0.29331(12)
H30_2 H 0.5609 0.9651 0.2951
C51_2 C 0.54573(10) 0.94101(14) 0.30353(9)
H31_2 H 0.5376 0.9479 0.3128
C52_2 C 0.58917(12) 0.95368(11) 0.26957(8)
C53_2 C 0.60845(13) 0.94647(9) 0.26830(10)
H32_2 H 0.6118 0.9343 0.2746
C54_2 C 0.62306(12) 0.95695(10) 0.25776(8)
C55_2 C 0.61715(9) 0.97346(11) 0.24908(8)
H33_2 H 0.6270 0.9804 0.2417
C56_2 C 0.59782(11) 0.98218(9) 0.24941(8)
C57_2 C 0.58438(10) 0.97203(10) 0.25984(10)
H34_2 H 0.5712 0.9771 0.2609
C58_2 C 0.64316(11) 0.94927(12) 0.25761(8)
C59_2 C 0.64802(12) 0.92983(13) 0.26051(8)
H35_2 H 0.6377 0.9204 0.2627
C60_2 C 0.66737(16) 0.92352(9) 0.26033(8)
H36_2 H 0.6703 0.9098 0.2620
C61_2 C 0.68289(10) 0.93728(13) 0.25768(7)
C62_2 C 0.67803(11) 0.95614(12) 0.25528(8)
H37_2 H 0.6882 0.9658 0.2536
C63_2 C 0.65880(15) 0.96205(8) 0.25521(8)
H38_2 H 0.6560 0.9758 0.2534
C64_2 C 0.70339(11) 0.92996(11) 0.25892(8)
Cu1_3 Cu 0.122880(12) 0.5000 0.685160(12)
Cu2_3 Cu 0.095250(12) 0.5000 0.657574(12)
Cu3_3 Cu 0.099146(12) 0.733793(9) 0.733793(9)
Cu4_3 Cu 0.063531(11) 0.745294(8) 0.745294(8)
O1_3 O 0.10630(6) 0.52087(5) 0.69677(5)
O2_3 O 0.08229(6) 0.51998(5) 0.67331(6)
O3_3 O 0.08790(7) 0.70685(5) 0.73596(5)
O4_3 O 0.05800(6) 0.71669(6) 0.74569(5)
O5_3 O 0.23327(6) 0.39501(7) 0.73816(5)
O6_3 O 0.24317(7) 0.42558(5) 0.72830(5)
O7_3 O 0.13593(5) 0.48013(6) 0.66851(5)
O8_3 O 0.11194(5) 0.47993(6) 0.64544(7)
O9_3 O 0.14537(6) 0.5000 0.70839(6)
O10_3 O 0.07293(8) 0.5000 0.63383(8)
O11_3 O 0.12819(7) 0.72420(6) 0.72420(6)
O12_3 O 0.03421(6) 0.75407(5) 0.75407(5)
C1_3 C 0.09039(10) 0.52675(7) 0.68818(11)
C2_3 C 0.07914(13) 0.54299(9) 0.69949(9)
C3_3 C 0.08848(8) 0.55585(12) 0.71292(11)
H1_3 H 0.1023 0.5544 0.7154
C4_3 C 0.07812(13) 0.57041(9) 0.72243(8)
H2_3 H 0.0849 0.5789 0.7315
C5_3 C 0.05768(12) 0.57311(10) 0.71915(11)
C6_3 C 0.04889(9) 0.56006(13) 0.70669(12)
H3_3 H 0.0349 0.5609 0.7049
C7_3 C 0.05899(14) 0.54573(10) 0.69647(9)
H4_3 H 0.0521 0.5376 0.6872
C8_3 C 0.04632(11) 0.58917(12) 0.73043(8)
C9_3 C 0.05353(9) 0.60845(13) 0.73170(10)
H5_3 H 0.0657 0.6118 0.7254
C10_3 C 0.04305(10) 0.62306(12) 0.74224(8)
C11_3 C 0.02654(11) 0.61715(9) 0.75092(8)
H6_3 H 0.0196 0.6270 0.7583
C12_3 C 0.01782(9) 0.59782(11) 0.75059(8)
C13_3 C 0.02797(10) 0.58438(10) 0.74016(10)
H7_3 H 0.0229 0.5712 0.7391
C14_5 C 0.0000 0.59172(9) 0.76055(10)
H8_5 H -0.0000 0.5973 0.7742
H9_5 H 0.0000 0.5771 0.7617
C15_3 C 0.05073(12) 0.64316(11) 0.74239(8)
C16_3 C 0.07017(13) 0.64802(12) 0.73949(8)
H10_3 H 0.0796 0.6377 0.7373
C17_3 C 0.07648(9) 0.66737(16) 0.73967(8)
H11_3 H 0.0902 0.6703 0.7380
C18_3 C 0.06272(13) 0.68289(10) 0.74232(7)
C19_3 C 0.04386(12) 0.67803(11) 0.74472(8)
H12_3 H 0.0342 0.6882 0.7464
C20_3 C 0.03795(8) 0.65880(15) 0.74479(8)
H13_3 H 0.0242 0.6560 0.7466
C21_3 C 0.07004(11) 0.70339(11) 0.74108(8)
C22_3 C 0.23874(14) 0.40751(10) 0.72545(8)
C23_3 C 0.23850(12) 0.40114(13) 0.70426(9)
C24_3 C 0.23127(13) 0.38232(12) 0.69907(9)
H14_3 H 0.2265 0.3738 0.7092
C25_3 C 0.23091(9) 0.37581(15) 0.67947(10)
H15_3 H 0.2259 0.3630 0.6763
C26_3 C 0.23792(13) 0.38808(11) 0.66451(9)
C27_3 C 0.24457(12) 0.40699(12) 0.66945(8)
H16_3 H 0.2489 0.4158 0.6593
C28_3 C 0.24486(10) 0.41314(14) 0.68943(8)
H17_3 H 0.2496 0.4260 0.6926
C29_3 C 0.23721(9) 0.38261(11) 0.64264(7)
C30_3 C 0.23839(8) 0.36293(8) 0.63707(10)
H18_3 H 0.2400 0.3530 0.6470
C31_3 C 0.23427(9) 0.39686(12) 0.62773(7)
H19_3 H 0.2334 0.4105 0.6314
C32_3 C 0.23257(12) 0.39192(12) 0.60808(11)
C33_3 C 0.22724(10) 0.40713(10) 0.59287(14)
H20_3 H 0.2330 0.4033 0.5799
H21_3 H 0.2330 0.4201 0.5967
C34_3 C 0.20512(7) 0.40915(7) 0.59085(14)
C35_3 C 0.19448(7) 0.42144(7) 0.60340(13)
H22_3 H 0.2015 0.4295 0.6126
C36_3 C 0.17403(10) 0.42235(10) 0.60304(11)
C37_3 C 0.16445(9) 0.40959(9) 0.59041(14)
H23_3 H 0.1503 0.4095 0.5905
C38_3 C 0.16346(10) 0.43552(12) 0.61556(11)
C39_3 C 0.14600(11) 0.44372(9) 0.60930(14)
H24_3 H 0.1414 0.4410 0.5962
C40_3 C 0.13484(10) 0.45587(15) 0.62150(8)
H25_3 H 0.1225 0.4609 0.6168
C41_3 C 0.14136(10) 0.46090(11) 0.64068(13)
C42_3 C 0.15880(10) 0.45345(9) 0.64693(12)
H26_3 H 0.1639 0.4566 0.6597
C43_3 C 0.16927(10) 0.44104(15) 0.63407(8)
H27_3 H 0.1816 0.4360 0.6387
C44_3 C 0.12842(8) 0.47454(11) 0.65282(11)
Cu6_3 Cu 0.122880(12) 0.314840(12) 0.5000
Cu8_3 Cu 0.095250(12) 0.342426(12) 0.5000
Cu9_3 Cu 0.233793(9) 0.400854(12) 0.766207(9)
Cu11_3 Cu 0.233793(9) 0.233793(9) 0.599146(12)
Cu12_3 Cu 0.245294(8) 0.436469(11) 0.754706(8)
Cu14_3 Cu 0.245294(8) 0.245294(8) 0.563531(11)
O14_3 O 0.10630(6) 0.47913(5) 0.69677(5)
O16_3 O 0.08229(6) 0.48002(5) 0.67331(6)
O18_3 O 0.08790(7) 0.73596(5) 0.70685(5)
O20_3 O 0.05800(6) 0.74569(5) 0.71669(6)
O21_3 O 0.23327(6) 0.26184(5) 0.60499(7)
O22_3 O 0.10499(7) 0.76184(5) 0.73327(6)
O23_3 O 0.10499(7) 0.73327(6) 0.76184(5)
O24_3 O 0.24317(7) 0.27170(5) 0.57442(5)
O25_3 O 0.07442(5) 0.77170(5) 0.74317(7)
O26_3 O 0.07442(5) 0.74317(7) 0.77170(5)
O27_3 O 0.13593(5) 0.33149(5) 0.51987(6)
O28_3 O 0.13593(5) 0.51987(6) 0.66851(5)
O29_3 O 0.11194(5) 0.35456(7) 0.52007(6)
O30_3 O 0.11194(5) 0.52007(6) 0.64544(7)
C65_3 C 0.23874(14) 0.27455(8) 0.59249(10)
C66_3 C 0.23850(12) 0.29574(9) 0.59886(13)
C67_3 C 0.23127(13) 0.30093(9) 0.61768(12)
H39_3 H 0.2265 0.2908 0.6262
C68_3 C 0.23091(9) 0.32053(10) 0.62419(15)
H40_3 H 0.2259 0.3237 0.6370
C69_3 C 0.23792(13) 0.33549(9) 0.61192(11)
C70_3 C 0.24457(12) 0.33055(8) 0.59301(12)
H41_3 H 0.2489 0.3407 0.5842
C71_3 C 0.24486(10) 0.31057(8) 0.58686(14)
H42_3 H 0.2496 0.3074 0.5740
C72_3 C 0.23721(9) 0.35736(7) 0.61739(11)
C73_3 C 0.23427(9) 0.37227(7) 0.60314(12)
H43_3 H 0.2334 0.3686 0.5895
C74_3 C 0.19448(7) 0.39660(13) 0.57856(7)
H44_3 H 0.2015 0.3874 0.5705
C75_3 C 0.17403(10) 0.39696(11) 0.57765(10)
C76_3 C 0.16346(10) 0.38444(11) 0.56448(12)
C77_3 C 0.14600(11) 0.39070(14) 0.55628(9)
H45_3 H 0.1414 0.4038 0.5590
C78_3 C 0.13484(10) 0.37850(8) 0.54413(15)
H46_3 H 0.1225 0.3832 0.5391
C79_3 C 0.14136(10) 0.35932(13) 0.53910(11)
C80_3 C 0.15880(10) 0.35307(12) 0.54655(9)
H47_3 H 0.1639 0.3403 0.5434
C81_3 C 0.16927(10) 0.36593(8) 0.55896(15)
H48_3 H 0.1816 0.3613 0.5640
C82_3 C 0.12842(8) 0.34718(11) 0.52546(11)
C14_6 C 1.0000 0.59172(9) 0.76055(10)
H8_6 H 1.0000 0.5973 0.7742
H9_6 H 1.0000 0.5771 0.7617
Cu5_3 Cu 0.877120(12) 0.5000 0.685160(12)
Cu7_3 Cu 0.904750(12) 0.5000 0.657574(12)
Cu10_3 Cu 0.900854(12) 0.733793(9) 0.733793(9)
Cu13_3 Cu 0.936469(11) 0.745294(8) 0.745294(8)
O13_3 O 0.89370(6) 0.52087(5) 0.69677(5)
O15_3 O 0.91771(6) 0.51998(5) 0.67331(6)
O17_3 O 0.91210(7) 0.70685(5) 0.73596(5)
O19_3 O 0.94200(6) 0.71669(6) 0.74569(5)
C45_3 C 0.90961(10) 0.52675(7) 0.68818(11)
C46_3 C 0.92086(13) 0.54299(9) 0.69949(9)
C47_3 C 0.91152(8) 0.55585(12) 0.71292(11)
H28_3 H 0.8977 0.5544 0.7154
C48_3 C 0.92188(13) 0.57041(9) 0.72243(8)
H29_3 H 0.9151 0.5789 0.7315
C49_3 C 0.94232(12) 0.57311(10) 0.71915(11)
C50_3 C 0.95111(9) 0.56006(13) 0.70669(12)
H30_3 H 0.9651 0.5609 0.7049
C51_3 C 0.94101(14) 0.54573(10) 0.69647(9)
H31_3 H 0.9479 0.5376 0.6872
C52_3 C 0.95368(11) 0.58917(12) 0.73043(8)
C53_3 C 0.94647(9) 0.60845(13) 0.73170(10)
H32_3 H 0.9343 0.6118 0.7254
C54_3 C 0.95695(10) 0.62306(12) 0.74224(8)
C55_3 C 0.97346(11) 0.61715(9) 0.75092(8)
H33_3 H 0.9804 0.6270 0.7583
C56_3 C 0.98218(9) 0.59782(11) 0.75059(8)
C57_3 C 0.97203(10) 0.58438(10) 0.74016(10)
H34_3 H 0.9771 0.5712 0.7391
C58_3 C 0.94927(12) 0.64316(11) 0.74239(8)
C59_3 C 0.92983(13) 0.64802(12) 0.73949(8)
H35_3 H 0.9204 0.6377 0.7373
C60_3 C 0.92352(9) 0.66737(16) 0.73967(8)
H36_3 H 0.9098 0.6703 0.7380
C61_3 C 0.93728(13) 0.68289(10) 0.74232(7)
C62_3 C 0.95614(12) 0.67803(11) 0.74472(8)
H37_3 H 0.9658 0.6882 0.7464
C63_3 C 0.96205(8) 0.65880(15) 0.74479(8)
H38_3 H 0.9758 0.6560 0.7466
C64_3 C 0.92996(11) 0.70339(11) 0.74108(8)
Cu3_4 Cu 0.266207(9) 0.099146(12) 0.266207(9)
Cu4_4 Cu 0.254706(8) 0.063531(11) 0.254706(8)
O1_4 O 0.30323(5) 0.10630(6) 0.47913(5)
O2_4 O 0.32669(6) 0.08229(6) 0.48002(5)
O3_4 O 0.26404(5) 0.08790(7) 0.29315(5)
O4_4 O 0.25431(5) 0.05800(6) 0.28331(6)
O5_4 O 0.26184(5) 0.23327(6) 0.60499(7)
O6_4 O 0.27170(5) 0.24317(7) 0.57442(5)
O7_4 O 0.33149(5) 0.13593(5) 0.51987(6)
O8_4 O 0.35456(7) 0.11194(5) 0.52007(6)
O9_4 O 0.29161(6) 0.14537(6) 0.5000
O10_4 O 0.36617(8) 0.07293(8) 0.5000
O11_4 O 0.27580(6) 0.12819(7) 0.27580(6)
O12_4 O 0.24593(5) 0.03421(6) 0.24593(5)
C1_4 C 0.31182(11) 0.09039(10) 0.47325(7)
C2_4 C 0.30051(9) 0.07914(13) 0.45701(9)
C3_4 C 0.28708(11) 0.08848(8) 0.44415(12)
H1_4 H 0.2846 0.1023 0.4456
C4_4 C 0.27757(8) 0.07812(13) 0.42959(9)
H2_4 H 0.2685 0.0849 0.4211
C5_4 C 0.28085(11) 0.05768(12) 0.42689(10)
C6_4 C 0.29331(12) 0.04889(9) 0.43994(13)
H3_4 H 0.2951 0.0349 0.4391
C7_4 C 0.30353(9) 0.05899(14) 0.45427(10)
H4_4 H 0.3128 0.0521 0.4624
C8_4 C 0.26957(8) 0.04632(11) 0.41083(12)
C9_4 C 0.26830(10) 0.05353(9) 0.39155(13)
H5_4 H 0.2746 0.0657 0.3882
C10_4 C 0.25776(8) 0.04305(10) 0.37694(12)
C11_4 C 0.24908(8) 0.02654(11) 0.38285(9)
H6_4 H 0.2417 0.0196 0.3730
C12_4 C 0.24941(8) 0.01782(9) 0.40218(11)
C13_4 C 0.25984(10) 0.02797(10) 0.41562(10)
H7_4 H 0.2609 0.0229 0.4288
C14_7 C 0.23945(10) 0.0000 0.40828(9)
H8_7 H 0.2258 -0.0000 0.4027
H9_7 H 0.2383 0.0000 0.4229
C15_4 C 0.25761(8) 0.05073(12) 0.35684(11)
C16_4 C 0.26051(8) 0.07017(13) 0.35198(12)
H10_4 H 0.2627 0.0796 0.3623
C17_4 C 0.26033(8) 0.07648(9) 0.33263(16)
H11_4 H 0.2620 0.0902 0.3297
C18_4 C 0.25768(7) 0.06272(13) 0.31711(10)
C19_4 C 0.25528(8) 0.04386(12) 0.32197(11)
H12_4 H 0.2536 0.0342 0.3118
C20_4 C 0.25521(8) 0.03795(8) 0.34120(15)
H13_4 H 0.2534 0.0242 0.3440
C21_4 C 0.25892(8) 0.07004(11) 0.29661(11)
C22_4 C 0.27455(8) 0.23874(14) 0.59249(10)
C23_4 C 0.29574(9) 0.23850(12) 0.59886(13)
C24_4 C 0.30093(9) 0.23127(13) 0.61768(12)
H14_4 H 0.2908 0.2265 0.6262
C25_4 C 0.32053(10) 0.23091(9) 0.62419(15)
H15_4 H 0.3237 0.2259 0.6370
C26_4 C 0.33549(9) 0.23792(13) 0.61192(11)
C27_4 C 0.33055(8) 0.24457(12) 0.59301(12)
H16_4 H 0.3407 0.2489 0.5842
C28_4 C 0.31057(8) 0.24486(10) 0.58686(14)
H17_4 H 0.3074 0.2496 0.5740
C29_4 C 0.35736(7) 0.23721(9) 0.61739(11)
C30_4 C 0.36293(10) 0.23839(8) 0.63707(8)
H18_4 H 0.3530 0.2400 0.6470
C31_4 C 0.37227(7) 0.23427(9) 0.60314(12)
H19_4 H 0.3686 0.2334 0.5895
C32_4 C 0.39192(11) 0.23257(12) 0.60808(12)
C33_4 C 0.40713(14) 0.22724(10) 0.59287(10)
H20_4 H 0.4201 0.2330 0.5967
H21_4 H 0.4033 0.2330 0.5799
C34_4 C 0.40915(14) 0.20512(7) 0.59085(7)
C35_4 C 0.39660(13) 0.19448(7) 0.57856(7)
H22_4 H 0.3874 0.2015 0.5705
C36_4 C 0.39696(11) 0.17403(10) 0.57765(10)
C37_4 C 0.40959(14) 0.16445(9) 0.59041(9)
H23_4 H 0.4095 0.1503 0.5905
C38_4 C 0.38444(11) 0.16346(10) 0.56448(12)
C39_4 C 0.39070(14) 0.14600(11) 0.55628(9)
H24_4 H 0.4038 0.1414 0.5590
C40_4 C 0.37850(8) 0.13484(10) 0.54413(15)
H25_4 H 0.3832 0.1225 0.5391
C41_4 C 0.35932(13) 0.14136(10) 0.53910(11)
C42_4 C 0.35307(12) 0.15880(10) 0.54655(9)
H26_4 H 0.3403 0.1639 0.5434
C43_4 C 0.36593(8) 0.16927(10) 0.55896(15)
H27_4 H 0.3613 0.1816 0.5640
C44_4 C 0.34718(11) 0.12842(8) 0.52546(11)
Cu6_4 Cu 0.5000 0.122880(12) 0.685160(12)
Cu8_4 Cu 0.5000 0.095250(12) 0.657574(12)
Cu11_4 Cu 0.400854(12) 0.233793(9) 0.766207(9)
Cu14_4 Cu 0.436469(11) 0.245294(8) 0.754706(8)
O14_4 O 0.30323(5) 0.10630(6) 0.52087(5)
O16_4 O 0.32669(6) 0.08229(6) 0.51998(5)
O18_4 O 0.29315(5) 0.08790(7) 0.26404(5)
O20_4 O 0.28331(6) 0.05800(6) 0.25431(5)
O21_4 O 0.39501(7) 0.23327(6) 0.73816(5)
O22_4 O 0.26673(6) 0.10499(7) 0.23816(5)
O23_4 O 0.23816(5) 0.10499(7) 0.26673(6)
O24_4 O 0.42558(5) 0.24317(7) 0.72830(5)
O25_4 O 0.25683(7) 0.07442(5) 0.22830(5)
O26_4 O 0.22830(5) 0.07442(5) 0.25683(7)
O27_4 O 0.48013(6) 0.13593(5) 0.66851(5)
O29_4 O 0.47993(6) 0.11194(5) 0.64544(7)
C65_4 C 0.40751(10) 0.23874(14) 0.72545(8)
C66_4 C 0.40114(13) 0.23850(12) 0.70426(9)
C67_4 C 0.38232(12) 0.23127(13) 0.69907(9)
H39_4 H 0.3738 0.2265 0.7092
C68_4 C 0.37581(15) 0.23091(9) 0.67947(10)
H40_4 H 0.3630 0.2259 0.6763
C69_4 C 0.38808(11) 0.23792(13) 0.66451(9)
C70_4 C 0.40699(12) 0.24457(12) 0.66945(8)
H41_4 H 0.4158 0.2489 0.6593
C71_4 C 0.41314(14) 0.24486(10) 0.68943(8)
H42_4 H 0.4260 0.2496 0.6926
C72_4 C 0.38261(11) 0.23721(9) 0.64264(7)
C73_4 C 0.39686(12) 0.23427(9) 0.62773(7)
H43_4 H 0.4105 0.2334 0.6314
C74_4 C 0.42144(7) 0.19448(7) 0.60340(13)
H44_4 H 0.4295 0.2015 0.6126
C75_4 C 0.42235(10) 0.17403(10) 0.60304(11)
C76_4 C 0.43552(12) 0.16346(10) 0.61556(11)
C77_4 C 0.44372(9) 0.14600(11) 0.60930(14)
H45_4 H 0.4410 0.1414 0.5962
C78_4 C 0.45587(15) 0.13484(10) 0.62150(8)
H46_4 H 0.4609 0.1225 0.6168
C79_4 C 0.46090(11) 0.14136(10) 0.64068(13)
C80_4 C 0.45345(9) 0.15880(10) 0.64693(12)
H47_4 H 0.4566 0.1639 0.6597
C81_4 C 0.44104(15) 0.16927(10) 0.63407(8)
H48_4 H 0.4360 0.1816 0.6387
C82_4 C 0.47454(11) 0.12842(8) 0.65282(11)
C14_8 C 0.23945(10) 1.0000 0.40828(9)
H8_8 H 0.2258 1.0000 0.4027
H9_8 H 0.2383 1.0000 0.4229
Cu5_4 Cu 0.314840(12) 0.877120(12) 0.5000
Cu7_4 Cu 0.342426(12) 0.904750(12) 0.5000
Cu10_4 Cu 0.266207(9) 0.900854(12) 0.266207(9)
Cu13_4 Cu 0.254706(8) 0.936469(11) 0.254706(8)
O13_4 O 0.30323(5) 0.89370(6) 0.47913(5)
O15_4 O 0.32669(6) 0.91771(6) 0.48002(5)
O17_4 O 0.26404(5) 0.91210(7) 0.29315(5)
O19_4 O 0.25431(5) 0.94200(6) 0.28331(6)
C45_4 C 0.31182(11) 0.90961(10) 0.47325(7)
C46_4 C 0.30051(9) 0.92086(13) 0.45701(9)
C47_4 C 0.28708(11) 0.91152(8) 0.44415(12)
H28_4 H 0.2846 0.8977 0.4456
C48_4 C 0.27757(8) 0.92188(13) 0.42959(9)
H29_4 H 0.2685 0.9151 0.4211
C49_4 C 0.28085(11) 0.94232(12) 0.42689(10)
C50_4 C 0.29331(12) 0.95111(9) 0.43994(13)
H30_4 H 0.2951 0.9651 0.4391
C51_4 C 0.30353(9) 0.94101(14) 0.45427(10)
H31_4 H 0.3128 0.9479 0.4624
C52_4 C 0.26957(8) 0.95368(11) 0.41083(12)
C53_4 C 0.26830(10) 0.94647(9) 0.39155(13)
H32_4 H 0.2746 0.9343 0.3882
C54_4 C 0.25776(8) 0.95695(10) 0.37694(12)
C55_4 C 0.24908(8) 0.97346(11) 0.38285(9)
H33_4 H 0.2417 0.9804 0.3730
C56_4 C 0.24941(8) 0.98218(9) 0.40218(11)
C57_4 C 0.25984(10) 0.97203(10) 0.41562(10)
H34_4 H 0.2609 0.9771 0.4288
C58_4 C 0.25761(8) 0.94927(12) 0.35684(11)
C59_4 C 0.26051(8) 0.92983(13) 0.35198(12)
H35_4 H 0.2627 0.9204 0.3623
C60_4 C 0.26033(8) 0.92352(9) 0.33263(16)
H36_4 H 0.2620 0.9098 0.3297
C61_4 C 0.25768(7) 0.93728(13) 0.31711(10)
C62_4 C 0.25528(8) 0.95614(12) 0.32197(11)
H37_4 H 0.2536 0.9658 0.3118
C63_4 C 0.25521(8) 0.96205(8) 0.34120(15)
H38_4 H 0.2534 0.9758 0.3440
C64_4 C 0.25892(8) 0.92996(11) 0.29661(11)
C14_9 C -0.0000 0.59172(9) 0.23945(10)
H8_9 H 0.0000 0.5973 0.2258
H9_9 H -0.0000 0.5771 0.2383
Cu10_5 Cu 0.099146(12) 0.733793(9) 0.266207(9)
Cu13_5 Cu 0.063531(11) 0.745294(8) 0.254706(8)
O17_5 O 0.08790(7) 0.70685(5) 0.26404(5)
O19_5 O 0.05800(6) 0.71669(6) 0.25431(5)
C45_5 C 0.09039(10) 0.52675(7) 0.31182(11)
C46_5 C 0.07914(13) 0.54299(9) 0.30051(9)
C47_5 C 0.08848(8) 0.55585(12) 0.28708(11)
H28_5 H 0.1023 0.5544 0.2846
C48_5 C 0.07812(13) 0.57041(9) 0.27757(8)
H29_5 H 0.0849 0.5789 0.2685
C49_5 C 0.05768(12) 0.57311(10) 0.28085(11)
C50_5 C 0.04889(9) 0.56006(13) 0.29331(12)
H30_5 H 0.0349 0.5609 0.2951
C51_5 C 0.05899(14) 0.54573(10) 0.30353(9)
H31_5 H 0.0521 0.5376 0.3128
C52_5 C 0.04632(11) 0.58917(12) 0.26957(8)
C53_5 C 0.05353(9) 0.60845(13) 0.26830(10)
H32_5 H 0.0657 0.6118 0.2746
C54_5 C 0.04305(10) 0.62306(12) 0.25776(8)
C55_5 C 0.02654(11) 0.61715(9) 0.24908(8)
H33_5 H 0.0196 0.6270 0.2417
C56_5 C 0.01782(9) 0.59782(11) 0.24941(8)
C57_5 C 0.02797(10) 0.58438(10) 0.25984(10)
H34_5 H 0.0229 0.5712 0.2609
C58_5 C 0.05073(12) 0.64316(11) 0.25761(8)
C59_5 C 0.07017(13) 0.64802(12) 0.26051(8)
H35_5 H 0.0796 0.6377 0.2627
C60_5 C 0.07648(9) 0.66737(16) 0.26033(8)
H36_5 H 0.0902 0.6703 0.2620
C61_5 C 0.06272(13) 0.68289(10) 0.25768(7)
C62_5 C 0.04386(12) 0.67803(11) 0.25528(8)
H37_5 H 0.0342 0.6882 0.2536
C63_5 C 0.03795(8) 0.65880(15) 0.25521(8)
H38_5 H 0.0242 0.6560 0.2534
C64_5 C 0.07004(11) 0.70339(11) 0.25892(8)
Cu3_5 Cu 0.900854(12) 0.733793(9) 0.266207(9)
Cu4_5 Cu 0.936469(11) 0.745294(8) 0.254706(8)
O1_5 O 0.89370(6) 0.52087(5) 0.30323(5)
O2_5 O 0.91771(6) 0.51998(5) 0.32669(6)
O3_5 O 0.91210(7) 0.70685(5) 0.26404(5)
O4_5 O 0.94200(6) 0.71669(6) 0.25431(5)
O5_5 O 0.76673(6) 0.39501(7) 0.26184(5)
O6_5 O 0.75683(7) 0.42558(5) 0.27170(5)
O7_5 O 0.86407(5) 0.48013(6) 0.33149(5)
O8_5 O 0.88806(5) 0.47993(6) 0.35456(7)
O9_5 O 0.85463(6) 0.5000 0.29161(6)
O10_5 O 0.92707(8) 0.5000 0.36617(8)
O11_5 O 0.87181(7) 0.72420(6) 0.27580(6)
O12_5 O 0.96579(6) 0.75407(5) 0.24593(5)
C1_5 C 0.90961(10) 0.52675(7) 0.31182(11)
C2_5 C 0.92086(13) 0.54299(9) 0.30051(9)
C3_5 C 0.91152(8) 0.55585(12) 0.28708(11)
H1_5 H 0.8977 0.5544 0.2846
C4_5 C 0.92188(13) 0.57041(9) 0.27757(8)
H2_5 H 0.9151 0.5789 0.2685
C5_5 C 0.94232(12) 0.57311(10) 0.28085(11)
C6_5 C 0.95111(9) 0.56006(13) 0.29331(12)
H3_5 H 0.9651 0.5609 0.2951
C7_5 C 0.94101(14) 0.54573(10) 0.30353(9)
H4_5 H 0.9479 0.5376 0.3128
C8_5 C 0.95368(11) 0.58917(12) 0.26957(8)
C9_5 C 0.94647(9) 0.60845(13) 0.26830(10)
H5_5 H 0.9343 0.6118 0.2746
C10_5 C 0.95695(10) 0.62306(12) 0.25776(8)
C11_5 C 0.97346(11) 0.61715(9) 0.24908(8)
H6_5 H 0.9804 0.6270 0.2417
C12_5 C 0.98218(9) 0.59782(11) 0.24941(8)
C13_5 C 0.97203(10) 0.58438(10) 0.25984(10)
H7_5 H 0.9771 0.5712 0.2609
C14_10 C 1.0000 0.59172(9) 0.23945(10)
H8_10 H 1.0000 0.5973 0.2258
H9_10 H 1.0000 0.5771 0.2383
C15_5 C 0.94927(12) 0.64316(11) 0.25761(8)
C16_5 C 0.92983(13) 0.64802(12) 0.26051(8)
H10_5 H 0.9204 0.6377 0.2627
C17_5 C 0.92352(9) 0.66737(16) 0.26033(8)
H11_5 H 0.9098 0.6703 0.2620
C18_5 C 0.93728(13) 0.68289(10) 0.25768(7)
C19_5 C 0.95614(12) 0.67803(11) 0.25528(8)
H12_5 H 0.9658 0.6882 0.2536
C20_5 C 0.96205(8) 0.65880(15) 0.25521(8)
H13_5 H 0.9758 0.6560 0.2534
C21_5 C 0.92996(11) 0.70339(11) 0.25892(8)
C22_5 C 0.76126(14) 0.40751(10) 0.27455(8)
C23_5 C 0.76150(12) 0.40114(13) 0.29574(9)
C24_5 C 0.76873(13) 0.38232(12) 0.30093(9)
H14_5 H 0.7735 0.3738 0.2908
C25_5 C 0.76909(9) 0.37581(15) 0.32053(10)
H15_5 H 0.7741 0.3630 0.3237
C26_5 C 0.76208(13) 0.38808(11) 0.33549(9)
C27_5 C 0.75543(12) 0.40699(12) 0.33055(8)
H16_5 H 0.7511 0.4158 0.3407
C28_5 C 0.75514(10) 0.41314(14) 0.31057(8)
H17_5 H 0.7504 0.4260 0.3074
C29_5 C 0.76279(9) 0.38261(11) 0.35736(7)
C30_5 C 0.76161(8) 0.36293(8) 0.36293(10)
H18_5 H 0.7600 0.3530 0.3530
C31_5 C 0.76573(9) 0.39686(12) 0.37227(7)
H19_5 H 0.7666 0.4105 0.3686
C32_5 C 0.76743(12) 0.39192(12) 0.39192(11)
C33_5 C 0.77276(10) 0.40713(10) 0.40713(14)
H20_5 H 0.7670 0.4033 0.4201
H21_5 H 0.7670 0.4201 0.4033
C34_5 C 0.79488(7) 0.40915(7) 0.40915(14)
C35_5 C 0.80552(7) 0.42144(7) 0.39660(13)
H22_5 H 0.7985 0.4295 0.3874
C36_5 C 0.82597(10) 0.42235(10) 0.39696(11)
C37_5 C 0.83555(9) 0.40959(9) 0.40959(14)
H23_5 H 0.8497 0.4095 0.4095
C38_5 C 0.83654(10) 0.43552(12) 0.38444(11)
C39_5 C 0.85400(11) 0.44372(9) 0.39070(14)
H24_5 H 0.8586 0.4410 0.4038
C40_5 C 0.86516(10) 0.45587(15) 0.37850(8)
H25_5 H 0.8775 0.4609 0.3832
C41_5 C 0.85864(10) 0.46090(11) 0.35932(13)
C42_5 C 0.84120(10) 0.45345(9) 0.35307(12)
H26_5 H 0.8361 0.4566 0.3403
C43_5 C 0.83073(10) 0.44104(15) 0.36593(8)
H27_5 H 0.8184 0.4360 0.3613
C44_5 C 0.87158(8) 0.47454(11) 0.34718(11)
Cu6_5 Cu 0.877120(12) 0.314840(12) 0.5000
Cu8_5 Cu 0.904750(12) 0.342426(12) 0.5000
Cu9_4 Cu 0.766207(9) 0.400854(12) 0.233793(9)
Cu11_5 Cu 0.766207(9) 0.233793(9) 0.400854(12)
Cu12_4 Cu 0.754706(8) 0.436469(11) 0.245294(8)
Cu14_5 Cu 0.754706(8) 0.245294(8) 0.436469(11)
O18_5 O 0.91210(7) 0.73596(5) 0.29315(5)
O20_5 O 0.94200(6) 0.74569(5) 0.28331(6)
O21_5 O 0.76673(6) 0.26184(5) 0.39501(7)
O22_5 O 0.89501(7) 0.76184(5) 0.26673(6)
O23_5 O 0.89501(7) 0.73327(6) 0.23816(5)
O24_5 O 0.75683(7) 0.27170(5) 0.42558(5)
O25_5 O 0.92558(5) 0.77170(5) 0.25683(7)
O26_5 O 0.92558(5) 0.74317(7) 0.22830(5)
O27_5 O 0.86407(5) 0.33149(5) 0.48013(6)
O28_4 O 0.86407(5) 0.51987(6) 0.33149(5)
O29_5 O 0.88806(5) 0.35456(7) 0.47993(6)
O30_4 O 0.88806(5) 0.52007(6) 0.35456(7)
C65_5 C 0.76126(14) 0.27455(8) 0.40751(10)
C66_5 C 0.76150(12) 0.29574(9) 0.40114(13)
C67_5 C 0.76873(13) 0.30093(9) 0.38232(12)
H39_5 H 0.7735 0.2908 0.3738
C68_5 C 0.76909(9) 0.32053(10) 0.37581(15)
H40_5 H 0.7741 0.3237 0.3630
C69_5 C 0.76208(13) 0.33549(9) 0.38808(11)
C70_5 C 0.75543(12) 0.33055(8) 0.40699(12)
H41_5 H 0.7511 0.3407 0.4158
C71_5 C 0.75514(10) 0.31057(8) 0.41314(14)
H42_5 H 0.7504 0.3074 0.4260
C72_5 C 0.76279(9) 0.35736(7) 0.38261(11)
C73_5 C 0.76573(9) 0.37227(7) 0.39686(12)
H43_5 H 0.7666 0.3686 0.4105
C74_5 C 0.80552(7) 0.39660(13) 0.42144(7)
H44_5 H 0.7985 0.3874 0.4295
C75_5 C 0.82597(10) 0.39696(11) 0.42235(10)
C76_5 C 0.83654(10) 0.38444(11) 0.43552(12)
C77_5 C 0.85400(11) 0.39070(14) 0.44372(9)
H45_5 H 0.8586 0.4038 0.4410
C78_5 C 0.86516(10) 0.37850(8) 0.45587(15)
H46_5 H 0.8775 0.3832 0.4609
C79_5 C 0.85864(10) 0.35932(13) 0.46090(11)
C80_5 C 0.84120(10) 0.35307(12) 0.45345(9)
H47_5 H 0.8361 0.3403 0.4566
C81_5 C 0.83073(10) 0.36593(8) 0.44104(15)
H48_5 H 0.8184 0.3613 0.4360
C82_5 C 0.87158(8) 0.34718(11) 0.47454(11)
Cu3_6 Cu 0.266207(9) 0.099146(12) 0.733793(9)
Cu4_6 Cu 0.254706(8) 0.063531(11) 0.745294(8)
O1_6 O 0.47913(5) 0.10630(6) 0.69677(5)
O2_6 O 0.48002(5) 0.08229(6) 0.67331(6)
O3_6 O 0.29315(5) 0.08790(7) 0.73596(5)
O4_6 O 0.28331(6) 0.05800(6) 0.74569(5)
O5_6 O 0.60499(7) 0.23327(6) 0.73816(5)
O6_6 O 0.57442(5) 0.24317(7) 0.72830(5)
O7_6 O 0.51987(6) 0.13593(5) 0.66851(5)
O8_6 O 0.52007(6) 0.11194(5) 0.64544(7)
O9_6 O 0.5000 0.14537(6) 0.70839(6)
O10_6 O 0.5000 0.07293(8) 0.63383(8)
O11_6 O 0.27580(6) 0.12819(7) 0.72420(6)
O12_6 O 0.24593(5) 0.03421(6) 0.75407(5)
C1_6 C 0.47325(7) 0.09039(10) 0.68818(11)
C2_6 C 0.45701(9) 0.07914(13) 0.69949(9)
C3_6 C 0.44415(12) 0.08848(8) 0.71292(11)
H1_6 H 0.4456 0.1023 0.7154
C4_6 C 0.42959(9) 0.07812(13) 0.72243(8)
H2_6 H 0.4211 0.0849 0.7315
C5_6 C 0.42689(10) 0.05768(12) 0.71915(11)
C6_6 C 0.43994(13) 0.04889(9) 0.70669(12)
H3_6 H 0.4391 0.0349 0.7049
C7_6 C 0.45427(10) 0.05899(14) 0.69647(9)
H4_6 H 0.4624 0.0521 0.6872
C8_6 C 0.41083(12) 0.04632(11) 0.73043(8)
C9_6 C 0.39155(13) 0.05353(9) 0.73170(10)
H5_6 H 0.3882 0.0657 0.7254
C10_6 C 0.37694(12) 0.04305(10) 0.74224(8)
C11_6 C 0.38285(9) 0.02654(11) 0.75092(8)
H6_6 H 0.3730 0.0196 0.7583
C12_6 C 0.40218(11) 0.01782(9) 0.75059(8)
C13_6 C 0.41562(10) 0.02797(10) 0.74016(10)
H7_6 H 0.4288 0.0229 0.7391
C14_11 C 0.40828(9) 0.0000 0.76055(10)
H8_11 H 0.4027 -0.0000 0.7742
H9_11 H 0.4229 0.0000 0.7617
C15_6 C 0.35684(11) 0.05073(12) 0.74239(8)
C16_6 C 0.35198(12) 0.07017(13) 0.73949(8)
H10_6 H 0.3623 0.0796 0.7373
C17_6 C 0.33263(16) 0.07648(9) 0.73967(8)
H11_6 H 0.3297 0.0902 0.7380
C18_6 C 0.31711(10) 0.06272(13) 0.74232(7)
C19_6 C 0.32197(11) 0.04386(12) 0.74472(8)
H12_6 H 0.3118 0.0342 0.7464
C20_6 C 0.34120(15) 0.03795(8) 0.74479(8)
H13_6 H 0.3440 0.0242 0.7466
C21_6 C 0.29661(11) 0.07004(11) 0.74108(8)
C22_6 C 0.59249(10) 0.23874(14) 0.72545(8)
C23_6 C 0.59886(13) 0.23850(12) 0.70426(9)
C24_6 C 0.61768(12) 0.23127(13) 0.69907(9)
H14_6 H 0.6262 0.2265 0.7092
C25_6 C 0.62419(15) 0.23091(9) 0.67947(10)
H15_6 H 0.6370 0.2259 0.6763
C26_6 C 0.61192(11) 0.23792(13) 0.66451(9)
C27_6 C 0.59301(12) 0.24457(12) 0.66945(8)
H16_6 H 0.5842 0.2489 0.6593
C28_6 C 0.58686(14) 0.24486(10) 0.68943(8)
H17_6 H 0.5740 0.2496 0.6926
C29_6 C 0.61739(11) 0.23721(9) 0.64264(7)
C30_6 C 0.63707(8) 0.23839(8) 0.63707(10)
H18_6 H 0.6470 0.2400 0.6470
C31_6 C 0.60314(12) 0.23427(9) 0.62773(7)
H19_6 H 0.5895 0.2334 0.6314
C32_6 C 0.60808(12) 0.23257(12) 0.60808(11)
C33_6 C 0.59287(10) 0.22724(10) 0.59287(14)
H20_6 H 0.5967 0.2330 0.5799
H21_6 H 0.5799 0.2330 0.5967
C34_6 C 0.59085(7) 0.20512(7) 0.59085(14)
C35_6 C 0.57856(7) 0.19448(7) 0.60340(13)
H22_6 H 0.5705 0.2015 0.6126
C36_6 C 0.57765(10) 0.17403(10) 0.60304(11)
C37_6 C 0.59041(9) 0.16445(9) 0.59041(14)
H23_6 H 0.5905 0.1503 0.5905
C38_6 C 0.56448(12) 0.16346(10) 0.61556(11)
C39_6 C 0.55628(9) 0.14600(11) 0.60930(14)
H24_6 H 0.5590 0.1414 0.5962
C40_6 C 0.54413(15) 0.13484(10) 0.62150(8)
H25_6 H 0.5391 0.1225 0.6168
C41_6 C 0.53910(11) 0.14136(10) 0.64068(13)
C42_6 C 0.54655(9) 0.15880(10) 0.64693(12)
H26_6 H 0.5434 0.1639 0.6597
C43_6 C 0.55896(15) 0.16927(10) 0.63407(8)
H27_6 H 0.5640 0.1816 0.6387
C44_6 C 0.52546(11) 0.12842(8) 0.65282(11)
Cu6_6 Cu 0.685160(12) 0.122880(12) 0.5000
Cu8_6 Cu 0.657574(12) 0.095250(12) 0.5000
Cu9_5 Cu 0.599146(12) 0.233793(9) 0.766207(9)
Cu11_6 Cu 0.766207(9) 0.233793(9) 0.599146(12)
Cu12_5 Cu 0.563531(11) 0.245294(8) 0.754706(8)
Cu14_6 Cu 0.754706(8) 0.245294(8) 0.563531(11)
O14_5 O 0.52087(5) 0.10630(6) 0.69677(5)
O16_5 O 0.51998(5) 0.08229(6) 0.67331(6)
O18_6 O 0.26404(5) 0.08790(7) 0.70685(5)
O20_6 O 0.25431(5) 0.05800(6) 0.71669(6)
O21_6 O 0.73816(5) 0.23327(6) 0.60499(7)
O22_6 O 0.23816(5) 0.10499(7) 0.73327(6)
O23_6 O 0.26673(6) 0.10499(7) 0.76184(5)
O24_6 O 0.72830(5) 0.24317(7) 0.57442(5)
O25_6 O 0.22830(5) 0.07442(5) 0.74317(7)
O26_6 O 0.25683(7) 0.07442(5) 0.77170(5)
O27_6 O 0.66851(5) 0.13593(5) 0.51987(6)
O29_6 O 0.64544(7) 0.11194(5) 0.52007(6)
C65_6 C 0.72545(8) 0.23874(14) 0.59249(10)
C66_6 C 0.70426(9) 0.23850(12) 0.59886(13)
C67_6 C 0.69907(9) 0.23127(13) 0.61768(12)
H39_6 H 0.7092 0.2265 0.6262
C68_6 C 0.67947(10) 0.23091(9) 0.62419(15)
H40_6 H 0.6763 0.2259 0.6370
C69_6 C 0.66451(9) 0.23792(13) 0.61192(11)
C70_6 C 0.66945(8) 0.24457(12) 0.59301(12)
H41_6 H 0.6593 0.2489 0.5842
C71_6 C 0.68943(8) 0.24486(10) 0.58686(14)
H42_6 H 0.6926 0.2496 0.5740
C72_6 C 0.64264(7) 0.23721(9) 0.61739(11)
C73_6 C 0.62773(7) 0.23427(9) 0.60314(12)
H43_6 H 0.6314 0.2334 0.5895
C74_6 C 0.60340(13) 0.19448(7) 0.57856(7)
H44_6 H 0.6126 0.2015 0.5705
C75_6 C 0.60304(11) 0.17403(10) 0.57765(10)
C76_6 C 0.61556(11) 0.16346(10) 0.56448(12)
C77_6 C 0.60930(14) 0.14600(11) 0.55628(9)
H45_6 H 0.5962 0.1414 0.5590
C78_6 C 0.62150(8) 0.13484(10) 0.54413(15)
H46_6 H 0.6168 0.1225 0.5391
C79_6 C 0.64068(13) 0.14136(10) 0.53910(11)
C80_6 C 0.64693(12) 0.15880(10) 0.54655(9)
H47_6 H 0.6597 0.1639 0.5434
C81_6 C 0.63407(8) 0.16927(10) 0.55896(15)
H48_6 H 0.6387 0.1816 0.5640
C82_6 C 0.65282(11) 0.12842(8) 0.52546(11)
C14_12 C 0.40828(9) 1.0000 0.76055(10)
H8_12 H 0.4027 1.0000 0.7742
H9_12 H 0.4229 1.0000 0.7617
Cu5_5 Cu 0.5000 0.877120(12) 0.685160(12)
Cu7_5 Cu 0.5000 0.904750(12) 0.657574(12)
Cu10_6 Cu 0.266207(9) 0.900854(12) 0.733793(9)
Cu13_6 Cu 0.254706(8) 0.936469(11) 0.745294(8)
O13_5 O 0.47913(5) 0.89370(6) 0.69677(5)
O15_5 O 0.48002(5) 0.91771(6) 0.67331(6)
O17_6 O 0.29315(5) 0.91210(7) 0.73596(5)
O19_6 O 0.28331(6) 0.94200(6) 0.74569(5)
C45_6 C 0.47325(7) 0.90961(10) 0.68818(11)
C46_6 C 0.45701(9) 0.92086(13) 0.69949(9)
C47_6 C 0.44415(12) 0.91152(8) 0.71292(11)
H28_6 H 0.4456 0.8977 0.7154
C48_6 C 0.42959(9) 0.92188(13) 0.72243(8)
H29_6 H 0.4211 0.9151 0.7315
C49_6 C 0.42689(10) 0.94232(12) 0.71915(11)
C50_6 C 0.43994(13) 0.95111(9) 0.70669(12)
H30_6 H 0.4391 0.9651 0.7049
C51_6 C 0.45427(10) 0.94101(14) 0.69647(9)
H31_6 H 0.4624 0.9479 0.6872
C52_6 C 0.41083(12) 0.95368(11) 0.73043(8)
C53_6 C 0.39155(13) 0.94647(9) 0.73170(10)
H32_6 H 0.3882 0.9343 0.7254
C54_6 C 0.37694(12) 0.95695(10) 0.74224(8)
C55_6 C 0.38285(9) 0.97346(11) 0.75092(8)
H33_6 H 0.3730 0.9804 0.7583
C56_6 C 0.40218(11) 0.98218(9) 0.75059(8)
C57_6 C 0.41562(10) 0.97203(10) 0.74016(10)
H34_6 H 0.4288 0.9771 0.7391
C58_6 C 0.35684(11) 0.94927(12) 0.74239(8)
C59_6 C 0.35198(12) 0.92983(13) 0.73949(8)
H35_6 H 0.3623 0.9204 0.7373
C60_6 C 0.33263(16) 0.92352(9) 0.73967(8)
H36_6 H 0.3297 0.9098 0.7380
C61_6 C 0.31711(10) 0.93728(13) 0.74232(7)
C62_6 C 0.32197(11) 0.95614(12) 0.74472(8)
H37_6 H 0.3118 0.9658 0.7464
C63_6 C 0.34120(15) 0.96205(8) 0.74479(8)
H38_6 H 0.3440 0.9758 0.7466
C64_6 C 0.29661(11) 0.92996(11) 0.74108(8)
C14_13 C -0.0000 0.23945(10) 0.40828(9)
H8_13 H 0.0000 0.2258 0.4027
H9_13 H -0.0000 0.2383 0.4229
O13_6 O 0.10630(6) 0.30323(5) 0.47913(5)
O15_6 O 0.08229(6) 0.32669(6) 0.48002(5)
C45_7 C 0.09039(10) 0.31182(11) 0.47325(7)
C46_7 C 0.07914(13) 0.30051(9) 0.45701(9)
C47_7 C 0.08848(8) 0.28708(11) 0.44415(12)
H28_7 H 0.1023 0.2846 0.4456
C48_7 C 0.07812(13) 0.27757(8) 0.42959(9)
H29_7 H 0.0849 0.2685 0.4211
C49_7 C 0.05768(12) 0.28085(11) 0.42689(10)
C50_7 C 0.04889(9) 0.29331(12) 0.43994(13)
H30_7 H 0.0349 0.2951 0.4391
C51_7 C 0.05899(14) 0.30353(9) 0.45427(10)
H31_7 H 0.0521 0.3128 0.4624
C52_7 C 0.04632(11) 0.26957(8) 0.41083(12)
C53_7 C 0.05353(9) 0.26830(10) 0.39155(13)
H32_7 H 0.0657 0.2746 0.3882
C54_7 C 0.04305(10) 0.25776(8) 0.37694(12)
C55_7 C 0.02654(11) 0.24908(8) 0.38285(9)
H33_7 H 0.0196 0.2417 0.3730
C56_7 C 0.01782(9) 0.24941(8) 0.40218(11)
C57_7 C 0.02797(10) 0.25984(10) 0.41562(10)
H34_7 H 0.0229 0.2609 0.4288
C58_7 C 0.05073(12) 0.25761(8) 0.35684(11)
C59_7 C 0.07017(13) 0.26051(8) 0.35198(12)
H35_7 H 0.0796 0.2627 0.3623
C60_7 C 0.07648(9) 0.26033(8) 0.33263(16)
H36_7 H 0.0902 0.2620 0.3297
C61_7 C 0.06272(13) 0.25768(7) 0.31711(10)
C62_7 C 0.04386(12) 0.25528(8) 0.32197(11)
H37_7 H 0.0342 0.2536 0.3118
C63_7 C 0.03795(8) 0.25521(8) 0.34120(15)
H38_7 H 0.0242 0.2534 0.3440
C64_7 C 0.07004(11) 0.25892(8) 0.29661(11)
O1_7 O 0.89370(6) 0.30323(5) 0.47913(5)
O2_7 O 0.91771(6) 0.32669(6) 0.48002(5)
O3_7 O 0.91210(7) 0.26404(5) 0.29315(5)
O4_7 O 0.94200(6) 0.25431(5) 0.28331(6)
O5_7 O 0.76673(6) 0.26184(5) 0.60499(7)
O6_7 O 0.75683(7) 0.27170(5) 0.57442(5)
O7_7 O 0.86407(5) 0.33149(5) 0.51987(6)
O8_7 O 0.88806(5) 0.35456(7) 0.52007(6)
O9_7 O 0.85463(6) 0.29161(6) 0.5000
O10_7 O 0.92707(8) 0.36617(8) 0.5000
O11_7 O 0.87181(7) 0.27580(6) 0.27580(6)
O12_7 O 0.96579(6) 0.24593(5) 0.24593(5)
C1_7 C 0.90961(10) 0.31182(11) 0.47325(7)
C2_7 C 0.92086(13) 0.30051(9) 0.45701(9)
C3_7 C 0.91152(8) 0.28708(11) 0.44415(12)
H1_7 H 0.8977 0.2846 0.4456
C4_7 C 0.92188(13) 0.27757(8) 0.42959(9)
H2_7 H 0.9151 0.2685 0.4211
C5_7 C 0.94232(12) 0.28085(11) 0.42689(10)
C6_7 C 0.95111(9) 0.29331(12) 0.43994(13)
H3_7 H 0.9651 0.2951 0.4391
C7_7 C 0.94101(14) 0.30353(9) 0.45427(10)
H4_7 H 0.9479 0.3128 0.4624
C8_7 C 0.95368(11) 0.26957(8) 0.41083(12)
C9_7 C 0.94647(9) 0.26830(10) 0.39155(13)
H5_7 H 0.9343 0.2746 0.3882
C10_7 C 0.95695(10) 0.25776(8) 0.37694(12)
C11_7 C 0.97346(11) 0.24908(8) 0.38285(9)
H6_7 H 0.9804 0.2417 0.3730
C12_7 C 0.98218(9) 0.24941(8) 0.40218(11)
C13_7 C 0.97203(10) 0.25984(10) 0.41562(10)
H7_7 H 0.9771 0.2609 0.4288
C14_14 C 1.0000 0.23945(10) 0.40828(9)
H8_14 H 1.0000 0.2258 0.4027
H9_14 H 1.0000 0.2383 0.4229
C15_7 C 0.94927(12) 0.25761(8) 0.35684(11)
C16_7 C 0.92983(13) 0.26051(8) 0.35198(12)
H10_7 H 0.9204 0.2627 0.3623
C17_7 C 0.92352(9) 0.26033(8) 0.33263(16)
H11_7 H 0.9098 0.2620 0.3297
C18_7 C 0.93728(13) 0.25768(7) 0.31711(10)
C19_7 C 0.95614(12) 0.25528(8) 0.32197(11)
H12_7 H 0.9658 0.2536 0.3118
C20_7 C 0.96205(8) 0.25521(8) 0.34120(15)
H13_7 H 0.9758 0.2534 0.3440
C21_7 C 0.92996(11) 0.25892(8) 0.29661(11)
C22_7 C 0.76126(14) 0.27455(8) 0.59249(10)
C23_7 C 0.76150(12) 0.29574(9) 0.59886(13)
C24_7 C 0.76873(13) 0.30093(9) 0.61768(12)
H14_7 H 0.7735 0.2908 0.6262
C25_7 C 0.76909(9) 0.32053(10) 0.62419(15)
H15_7 H 0.7741 0.3237 0.6370
C26_7 C 0.76208(13) 0.33549(9) 0.61192(11)
C27_7 C 0.75543(12) 0.33055(8) 0.59301(12)
H16_7 H 0.7511 0.3407 0.5842
C28_7 C 0.75514(10) 0.31057(8) 0.58686(14)
H17_7 H 0.7504 0.3074 0.5740
C29_7 C 0.76279(9) 0.35736(7) 0.61739(11)
C30_7 C 0.76161(8) 0.36293(10) 0.63707(8)
H18_7 H 0.7600 0.3530 0.6470
C31_7 C 0.76573(9) 0.37227(7) 0.60314(12)
H19_7 H 0.7666 0.3686 0.5895
C32_7 C 0.76743(12) 0.39192(11) 0.60808(12)
C33_7 C 0.77276(10) 0.40713(14) 0.59287(10)
H20_7 H 0.7670 0.4201 0.5967
H21_7 H 0.7670 0.4033 0.5799
C34_7 C 0.79488(7) 0.40915(14) 0.59085(7)
C35_7 C 0.80552(7) 0.39660(13) 0.57856(7)
H22_7 H 0.7985 0.3874 0.5705
C36_7 C 0.82597(10) 0.39696(11) 0.57765(10)
C37_7 C 0.83555(9) 0.40959(14) 0.59041(9)
H23_7 H 0.8497 0.4095 0.5905
C38_7 C 0.83654(10) 0.38444(11) 0.56448(12)
C39_7 C 0.85400(11) 0.39070(14) 0.55628(9)
H24_7 H 0.8586 0.4038 0.5590
C40_7 C 0.86516(10) 0.37850(8) 0.54413(15)
H25_7 H 0.8775 0.3832 0.5391
C41_7 C 0.85864(10) 0.35932(13) 0.53910(11)
C42_7 C 0.84120(10) 0.35307(12) 0.54655(9)
H26_7 H 0.8361 0.3403 0.5434
C43_7 C 0.83073(10) 0.36593(8) 0.55896(15)
H27_7 H 0.8184 0.3613 0.5640
C44_7 C 0.87158(8) 0.34718(11) 0.52546(11)
Cu11_7 Cu 0.766207(9) 0.400854(12) 0.766207(9)
Cu14_7 Cu 0.754706(8) 0.436469(11) 0.754706(8)
O14_6 O 0.89370(6) 0.30323(5) 0.52087(5)
O16_6 O 0.91771(6) 0.32669(6) 0.51998(5)
O21_7 O 0.76673(6) 0.39501(7) 0.73816(5)
O22_7 O 0.89501(7) 0.26673(6) 0.23816(5)
O23_7 O 0.89501(7) 0.23816(5) 0.26673(6)
O24_7 O 0.75683(7) 0.42558(5) 0.72830(5)
O25_7 O 0.92558(5) 0.25683(7) 0.22830(5)
O26_7 O 0.92558(5) 0.22830(5) 0.25683(7)
O27_7 O 0.86407(5) 0.48013(6) 0.66851(5)
O29_7 O 0.88806(5) 0.47993(6) 0.64544(7)
C65_7 C 0.76126(14) 0.40751(10) 0.72545(8)
C66_7 C 0.76150(12) 0.40114(13) 0.70426(9)
C67_7 C 0.76873(13) 0.38232(12) 0.69907(9)
H39_7 H 0.7735 0.3738 0.7092
C68_7 C 0.76909(9) 0.37581(15) 0.67947(10)
H40_7 H 0.7741 0.3630 0.6763
C69_7 C 0.76208(13) 0.38808(11) 0.66451(9)
C70_7 C 0.75543(12) 0.40699(12) 0.66945(8)
H41_7 H 0.7511 0.4158 0.6593
C71_7 C 0.75514(10) 0.41314(14) 0.68943(8)
H42_7 H 0.7504 0.4260 0.6926
C72_7 C 0.76279(9) 0.38261(11) 0.64264(7)
C73_7 C 0.76573(9) 0.39686(12) 0.62773(7)
H43_7 H 0.7666 0.4105 0.6314
C74_7 C 0.80552(7) 0.42144(7) 0.60340(13)
H44_7 H 0.7985 0.4295 0.6126
C75_7 C 0.82597(10) 0.42235(10) 0.60304(11)
C76_7 C 0.83654(10) 0.43552(12) 0.61556(11)
C77_7 C 0.85400(11) 0.44372(9) 0.60930(14)
H45_7 H 0.8586 0.4410 0.5962
C78_7 C 0.86516(10) 0.45587(15) 0.62150(8)
H46_7 H 0.8775 0.4609 0.6168
C79_7 C 0.85864(10) 0.46090(11) 0.64068(13)
C80_7 C 0.84120(10) 0.45345(9) 0.64693(12)
H47_7 H 0.8361 0.4566 0.6597
C81_7 C 0.83073(10) 0.44104(15) 0.63407(8)
H48_7 H 0.8184 0.4360 0.6387
C82_7 C 0.87158(8) 0.47454(11) 0.65282(11)
C14_15 C 0.40828(9) -0.0000 0.23945(10)
H8_15 H 0.4027 0.0000 0.2258
H9_15 H 0.4229 0.0000 0.2383
C45_8 C 0.47325(7) 0.09039(10) 0.31182(11)
C46_8 C 0.45701(9) 0.07914(13) 0.30051(9)
C47_8 C 0.44415(12) 0.08848(8) 0.28708(11)
H28_8 H 0.4456 0.1023 0.2846
C48_8 C 0.42959(9) 0.07812(13) 0.27757(8)
H29_8 H 0.4211 0.0849 0.2685
C49_8 C 0.42689(10) 0.05768(12) 0.28085(11)
C50_8 C 0.43994(13) 0.04889(9) 0.29331(12)
H30_8 H 0.4391 0.0349 0.2951
C51_8 C 0.45427(10) 0.05899(14) 0.30353(9)
H31_8 H 0.4624 0.0521 0.3128
C52_8 C 0.41083(12) 0.04632(11) 0.26957(8)
C53_8 C 0.39155(13) 0.05353(9) 0.26830(10)
H32_8 H 0.3882 0.0657 0.2746
C54_8 C 0.37694(12) 0.04305(10) 0.25776(8)
C55_8 C 0.38285(9) 0.02654(11) 0.24908(8)
H33_8 H 0.3730 0.0196 0.2417
C56_8 C 0.40218(11) 0.01782(9) 0.24941(8)
C57_8 C 0.41562(10) 0.02797(10) 0.25984(10)
H34_8 H 0.4288 0.0229 0.2609
C58_8 C 0.35684(11) 0.05073(12) 0.25761(8)
C59_8 C 0.35198(12) 0.07017(13) 0.26051(8)
H35_8 H 0.3623 0.0796 0.2627
C60_8 C 0.33263(16) 0.07648(9) 0.26033(8)
H36_8 H 0.3297 0.0902 0.2620
C61_8 C 0.31711(10) 0.06272(13) 0.25768(7)
C62_8 C 0.32197(11) 0.04386(12) 0.25528(8)
H37_8 H 0.3118 0.0342 0.2536
C63_8 C 0.34120(15) 0.03795(8) 0.25521(8)
H38_8 H 0.3440 0.0242 0.2534
C64_8 C 0.29661(11) 0.07004(11) 0.25892(8)
O1_8 O 0.47913(5) 0.89370(6) 0.30323(5)
O2_8 O 0.48002(5) 0.91771(6) 0.32669(6)
O3_8 O 0.29315(5) 0.91210(7) 0.26404(5)
O4_8 O 0.28331(6) 0.94200(6) 0.25431(5)
O5_8 O 0.60499(7) 0.76673(6) 0.26184(5)
O6_8 O 0.57442(5) 0.75683(7) 0.27170(5)
O7_8 O 0.51987(6) 0.86407(5) 0.33149(5)
O8_8 O 0.52007(6) 0.88806(5) 0.35456(7)
O9_8 O 0.5000 0.85463(6) 0.29161(6)
O10_8 O 0.5000 0.92707(8) 0.36617(8)
O11_8 O 0.27580(6) 0.87181(7) 0.27580(6)
O12_8 O 0.24593(5) 0.96579(6) 0.24593(5)
C1_8 C 0.47325(7) 0.90961(10) 0.31182(11)
C2_8 C 0.45701(9) 0.92086(13) 0.30051(9)
C3_8 C 0.44415(12) 0.91152(8) 0.28708(11)
H1_8 H 0.4456 0.8977 0.2846
C4_8 C 0.42959(9) 0.92188(13) 0.27757(8)
H2_8 H 0.4211 0.9151 0.2685
C5_8 C 0.42689(10) 0.94232(12) 0.28085(11)
C6_8 C 0.43994(13) 0.95111(9) 0.29331(12)
H3_8 H 0.4391 0.9651 0.2951
C7_8 C 0.45427(10) 0.94101(14) 0.30353(9)
H4_8 H 0.4624 0.9479 0.3128
C8_8 C 0.41083(12) 0.95368(11) 0.26957(8)
C9_8 C 0.39155(13) 0.94647(9) 0.26830(10)
H5_8 H 0.3882 0.9343 0.2746
C10_8 C 0.37694(12) 0.95695(10) 0.25776(8)
C11_8 C 0.38285(9) 0.97346(11) 0.24908(8)
H6_8 H 0.3730 0.9804 0.2417
C12_8 C 0.40218(11) 0.98218(9) 0.24941(8)
C13_8 C 0.41562(10) 0.97203(10) 0.25984(10)
H7_8 H 0.4288 0.9771 0.2609
C14_16 C 0.40828(9) 1.0000 0.23945(10)
H8_16 H 0.4027 1.0000 0.2258
H9_16 H 0.4229 1.0000 0.2383
C15_8 C 0.35684(11) 0.94927(12) 0.25761(8)
C16_8 C 0.35198(12) 0.92983(13) 0.26051(8)
H10_8 H 0.3623 0.9204 0.2627
C17_8 C 0.33263(16) 0.92352(9) 0.26033(8)
H11_8 H 0.3297 0.9098 0.2620
C18_8 C 0.31711(10) 0.93728(13) 0.25768(7)
C19_8 C 0.32197(11) 0.95614(12) 0.25528(8)
H12_8 H 0.3118 0.9658 0.2536
C20_8 C 0.34120(15) 0.96205(8) 0.25521(8)
H13_8 H 0.3440 0.9758 0.2534
C21_8 C 0.29661(11) 0.92996(11) 0.25892(8)
C22_8 C 0.59249(10) 0.76126(14) 0.27455(8)
C23_8 C 0.59886(13) 0.76150(12) 0.29574(9)
C24_8 C 0.61768(12) 0.76873(13) 0.30093(9)
H14_8 H 0.6262 0.7735 0.2908
C25_8 C 0.62419(15) 0.76909(9) 0.32053(10)
H15_8 H 0.6370 0.7741 0.3237
C26_8 C 0.61192(11) 0.76208(13) 0.33549(9)
C27_8 C 0.59301(12) 0.75543(12) 0.33055(8)
H16_8 H 0.5842 0.7511 0.3407
C28_8 C 0.58686(14) 0.75514(10) 0.31057(8)
H17_8 H 0.5740 0.7504 0.3074
C29_8 C 0.61739(11) 0.76279(9) 0.35736(7)
C30_8 C 0.63707(8) 0.76161(8) 0.36293(10)
H18_8 H 0.6470 0.7600 0.3530
C31_8 C 0.60314(12) 0.76573(9) 0.37227(7)
H19_8 H 0.5895 0.7666 0.3686
C32_8 C 0.60808(12) 0.76743(12) 0.39192(11)
C33_8 C 0.59287(10) 0.77276(10) 0.40713(14)
H20_8 H 0.5967 0.7670 0.4201
H21_8 H 0.5799 0.7670 0.4033
C34_8 C 0.59085(7) 0.79488(7) 0.40915(14)
C35_8 C 0.57856(7) 0.80552(7) 0.39660(13)
H22_8 H 0.5705 0.7985 0.3874
C36_8 C 0.57765(10) 0.82597(10) 0.39696(11)
C37_8 C 0.59041(9) 0.83555(9) 0.40959(14)
H23_8 H 0.5905 0.8497 0.4095
C38_8 C 0.56448(12) 0.83654(10) 0.38444(11)
C39_8 C 0.55628(9) 0.85400(11) 0.39070(14)
H24_8 H 0.5590 0.8586 0.4038
C40_8 C 0.54413(15) 0.86516(10) 0.37850(8)
H25_8 H 0.5391 0.8775 0.3832
C41_8 C 0.53910(11) 0.85864(10) 0.35932(13)
C42_8 C 0.54655(9) 0.84120(10) 0.35307(12)
H26_8 H 0.5434 0.8361 0.3403
C43_8 C 0.55896(15) 0.83073(10) 0.36593(8)
H27_8 H 0.5640 0.8184 0.3613
C44_8 C 0.52546(11) 0.87158(8) 0.34718(11)
Cu6_7 Cu 0.685160(12) 0.877120(12) 0.5000
Cu8_7 Cu 0.657574(12) 0.904750(12) 0.5000
Cu9_6 Cu 0.599146(12) 0.766207(9) 0.233793(9)
Cu11_8 Cu 0.766207(9) 0.766207(9) 0.400854(12)
Cu12_6 Cu 0.563531(11) 0.754706(8) 0.245294(8)
Cu14_8 Cu 0.754706(8) 0.754706(8) 0.436469(11)
O21_8 O 0.73816(5) 0.76673(6) 0.39501(7)
O22_8 O 0.23816(5) 0.89501(7) 0.26673(6)
O23_8 O 0.26673(6) 0.89501(7) 0.23816(5)
O24_8 O 0.72830(5) 0.75683(7) 0.42558(5)
O25_8 O 0.22830(5) 0.92558(5) 0.25683(7)
O26_8 O 0.25683(7) 0.92558(5) 0.22830(5)
O27_8 O 0.66851(5) 0.86407(5) 0.48013(6)
O28_5 O 0.48013(6) 0.86407(5) 0.33149(5)
O29_8 O 0.64544(7) 0.88806(5) 0.47993(6)
O30_5 O 0.47993(6) 0.88806(5) 0.35456(7)
C65_8 C 0.72545(8) 0.76126(14) 0.40751(10)
C66_8 C 0.70426(9) 0.76150(12) 0.40114(13)
C67_8 C 0.69907(9) 0.76873(13) 0.38232(12)
H39_8 H 0.7092 0.7735 0.3738
C68_8 C 0.67947(10) 0.76909(9) 0.37581(15)
H40_8 H 0.6763 0.7741 0.3630
C69_8 C 0.66451(9) 0.76208(13) 0.38808(11)
C70_8 C 0.66945(8) 0.75543(12) 0.40699(12)
H41_8 H 0.6593 0.7511 0.4158
C71_8 C 0.68943(8) 0.75514(10) 0.41314(14)
H42_8 H 0.6926 0.7504 0.4260
C72_8 C 0.64264(7) 0.76279(9) 0.38261(11)
C73_8 C 0.62773(7) 0.76573(9) 0.39686(12)
H43_8 H 0.6314 0.7666 0.4105
C74_8 C 0.60340(13) 0.80552(7) 0.42144(7)
H44_8 H 0.6126 0.7985 0.4295
C75_8 C 0.60304(11) 0.82597(10) 0.42235(10)
C76_8 C 0.61556(11) 0.83654(10) 0.43552(12)
C77_8 C 0.60930(14) 0.85400(11) 0.44372(9)
H45_8 H 0.5962 0.8586 0.4410
C78_8 C 0.62150(8) 0.86516(10) 0.45587(15)
H46_8 H 0.6168 0.8775 0.4609
C79_8 C 0.64068(13) 0.85864(10) 0.46090(11)
C80_8 C 0.64693(12) 0.84120(10) 0.45345(9)
H47_8 H 0.6597 0.8361 0.4566
C81_8 C 0.63407(8) 0.83073(10) 0.44104(15)
H48_8 H 0.6387 0.8184 0.4360
C82_8 C 0.65282(11) 0.87158(8) 0.47454(11)
C14_17 C -0.0000 0.40828(9) 0.76055(10)
H8_17 H 0.0000 0.4027 0.7742
H9_17 H 0.0000 0.4229 0.7617
Cu10_7 Cu 0.099146(12) 0.266207(9) 0.733793(9)
Cu13_7 Cu 0.063531(11) 0.254706(8) 0.745294(8)
O17_7 O 0.08790(7) 0.29315(5) 0.73596(5)
O19_7 O 0.05800(6) 0.28331(6) 0.74569(5)
C45_9 C 0.09039(10) 0.47325(7) 0.68818(11)
C46_9 C 0.07914(13) 0.45701(9) 0.69949(9)
C47_9 C 0.08848(8) 0.44415(12) 0.71292(11)
H28_9 H 0.1023 0.4456 0.7154
C48_9 C 0.07812(13) 0.42959(9) 0.72243(8)
H29_9 H 0.0849 0.4211 0.7315
C49_9 C 0.05768(12) 0.42689(10) 0.71915(11)
C50_9 C 0.04889(9) 0.43994(13) 0.70669(12)
H30_9 H 0.0349 0.4391 0.7049
C51_9 C 0.05899(14) 0.45427(10) 0.69647(9)
H31_9 H 0.0521 0.4624 0.6872
C52_9 C 0.04632(11) 0.41083(12) 0.73043(8)
C53_9 C 0.05353(9) 0.39155(13) 0.73170(10)
H32_9 H 0.0657 0.3882 0.7254
C54_9 C 0.04305(10) 0.37694(12) 0.74224(8)
C55_9 C 0.02654(11) 0.38285(9) 0.75092(8)
H33_9 H 0.0196 0.3730 0.7583
C56_9 C 0.01782(9) 0.40218(11) 0.75059(8)
C57_9 C 0.02797(10) 0.41562(10) 0.74016(10)
H34_9 H 0.0229 0.4288 0.7391
C58_9 C 0.05073(12) 0.35684(11) 0.74239(8)
C59_9 C 0.07017(13) 0.35198(12) 0.73949(8)
H35_9 H 0.0796 0.3623 0.7373
C60_9 C 0.07648(9) 0.33263(16) 0.73967(8)
H36_9 H 0.0902 0.3297 0.7380
C61_9 C 0.06272(13) 0.31711(10) 0.74232(7)
C62_9 C 0.04386(12) 0.32197(11) 0.74472(8)
H37_9 H 0.0342 0.3118 0.7464
C63_9 C 0.03795(8) 0.34120(15) 0.74479(8)
H38_9 H 0.0242 0.3440 0.7466
C64_9 C 0.07004(11) 0.29661(11) 0.74108(8)
Cu3_7 Cu 0.900854(12) 0.266207(9) 0.733793(9)
Cu4_7 Cu 0.936469(11) 0.254706(8) 0.745294(8)
O1_9 O 0.89370(6) 0.47913(5) 0.69677(5)
O2_9 O 0.91771(6) 0.48002(5) 0.67331(6)
O3_9 O 0.91210(7) 0.29315(5) 0.73596(5)
O4_9 O 0.94200(6) 0.28331(6) 0.74569(5)
O5_9 O 0.76673(6) 0.60499(7) 0.73816(5)
O6_9 O 0.75683(7) 0.57442(5) 0.72830(5)
O7_9 O 0.86407(5) 0.51987(6) 0.66851(5)
O8_9 O 0.88806(5) 0.52007(6) 0.64544(7)
O9_9 O 0.85463(6) 0.5000 0.70839(6)
O10_9 O 0.92707(8) 0.5000 0.63383(8)
O11_9 O 0.87181(7) 0.27580(6) 0.72420(6)
O12_9 O 0.96579(6) 0.24593(5) 0.75407(5)
C1_9 C 0.90961(10) 0.47325(7) 0.68818(11)
C2_9 C 0.92086(13) 0.45701(9) 0.69949(9)
C3_9 C 0.91152(8) 0.44415(12) 0.71292(11)
H1_9 H 0.8977 0.4456 0.7154
C4_9 C 0.92188(13) 0.42959(9) 0.72243(8)
H2_9 H 0.9151 0.4211 0.7315
C5_9 C 0.94232(12) 0.42689(10) 0.71915(11)
C6_9 C 0.95111(9) 0.43994(13) 0.70669(12)
H3_9 H 0.9651 0.4391 0.7049
C7_9 C 0.94101(14) 0.45427(10) 0.69647(9)
H4_9 H 0.9479 0.4624 0.6872
C8_9 C 0.95368(11) 0.41083(12) 0.73043(8)
C9_9 C 0.94647(9) 0.39155(13) 0.73170(10)
H5_9 H 0.9343 0.3882 0.7254
C10_9 C 0.95695(10) 0.37694(12) 0.74224(8)
C11_9 C 0.97346(11) 0.38285(9) 0.75092(8)
H6_9 H 0.9804 0.3730 0.7583
C12_9 C 0.98218(9) 0.40218(11) 0.75059(8)
C13_9 C 0.97203(10) 0.41562(10) 0.74016(10)
H7_9 H 0.9771 0.4288 0.7391
C14_18 C 1.0000 0.40828(9) 0.76055(10)
H8_18 H 1.0000 0.4027 0.7742
H9_18 H 1.0000 0.4229 0.7617
C15_9 C 0.94927(12) 0.35684(11) 0.74239(8)
C16_9 C 0.92983(13) 0.35198(12) 0.73949(8)
H10_9 H 0.9204 0.3623 0.7373
C17_9 C 0.92352(9) 0.33263(16) 0.73967(8)
H11_9 H 0.9098 0.3297 0.7380
C18_9 C 0.93728(13) 0.31711(10) 0.74232(7)
C19_9 C 0.95614(12) 0.32197(11) 0.74472(8)
H12_9 H 0.9658 0.3118 0.7464
C20_9 C 0.96205(8) 0.34120(15) 0.74479(8)
H13_9 H 0.9758 0.3440 0.7466
C21_9 C 0.92996(11) 0.29661(11) 0.74108(8)
C22_9 C 0.76126(14) 0.59249(10) 0.72545(8)
C23_9 C 0.76150(12) 0.59886(13) 0.70426(9)
C24_9 C 0.76873(13) 0.61768(12) 0.69907(9)
H14_9 H 0.7735 0.6262 0.7092
C25_9 C 0.76909(9) 0.62419(15) 0.67947(10)
H15_9 H 0.7741 0.6370 0.6763
C26_9 C 0.76208(13) 0.61192(11) 0.66451(9)
C27_9 C 0.75543(12) 0.59301(12) 0.66945(8)
H16_9 H 0.7511 0.5842 0.6593
C28_9 C 0.75514(10) 0.58686(14) 0.68943(8)
H17_9 H 0.7504 0.5740 0.6926
C29_9 C 0.76279(9) 0.61739(11) 0.64264(7)
C30_9 C 0.76161(8) 0.63707(8) 0.63707(10)
H18_9 H 0.7600 0.6470 0.6470
C31_9 C 0.76573(9) 0.60314(12) 0.62773(7)
H19_9 H 0.7666 0.5895 0.6314
C32_9 C 0.76743(12) 0.60808(12) 0.60808(11)
C33_9 C 0.77276(10) 0.59287(10) 0.59287(14)
H20_9 H 0.7670 0.5967 0.5799
H21_9 H 0.7670 0.5799 0.5967
C34_9 C 0.79488(7) 0.59085(7) 0.59085(14)
C35_9 C 0.80552(7) 0.57856(7) 0.60340(13)
H22_9 H 0.7985 0.5705 0.6126
C36_9 C 0.82597(10) 0.57765(10) 0.60304(11)
C37_9 C 0.83555(9) 0.59041(9) 0.59041(14)
H23_9 H 0.8497 0.5905 0.5905
C38_9 C 0.83654(10) 0.56448(12) 0.61556(11)
C39_9 C 0.85400(11) 0.55628(9) 0.60930(14)
H24_9 H 0.8586 0.5590 0.5962
C40_9 C 0.86516(10) 0.54413(15) 0.62150(8)
H25_9 H 0.8775 0.5391 0.6168
C41_9 C 0.85864(10) 0.53910(11) 0.64068(13)
C42_9 C 0.84120(10) 0.54655(9) 0.64693(12)
H26_9 H 0.8361 0.5434 0.6597
C43_9 C 0.83073(10) 0.55896(15) 0.63407(8)
H27_9 H 0.8184 0.5640 0.6387
C44_9 C 0.87158(8) 0.52546(11) 0.65282(11)
Cu6_8 Cu 0.877120(12) 0.685160(12) 0.5000
Cu8_8 Cu 0.904750(12) 0.657574(12) 0.5000
Cu9_7 Cu 0.766207(9) 0.599146(12) 0.766207(9)
Cu11_9 Cu 0.766207(9) 0.766207(9) 0.599146(12)
Cu12_7 Cu 0.754706(8) 0.563531(11) 0.754706(8)
Cu14_9 Cu 0.754706(8) 0.754706(8) 0.563531(11)
O18_7 O 0.91210(7) 0.26404(5) 0.70685(5)
O20_7 O 0.94200(6) 0.25431(5) 0.71669(6)
O21_9 O 0.76673(6) 0.73816(5) 0.60499(7)
O22_9 O 0.89501(7) 0.23816(5) 0.73327(6)
O23_9 O 0.89501(7) 0.26673(6) 0.76184(5)
O24_9 O 0.75683(7) 0.72830(5) 0.57442(5)
O25_9 O 0.92558(5) 0.22830(5) 0.74317(7)
O26_9 O 0.92558(5) 0.25683(7) 0.77170(5)
O27_9 O 0.86407(5) 0.66851(5) 0.51987(6)
O29_9 O 0.88806(5) 0.64544(7) 0.52007(6)
C65_9 C 0.76126(14) 0.72545(8) 0.59249(10)
C66_9 C 0.76150(12) 0.70426(9) 0.59886(13)
C67_9 C 0.76873(13) 0.69907(9) 0.61768(12)
H39_9 H 0.7735 0.7092 0.6262
C68_9 C 0.76909(9) 0.67947(10) 0.62419(15)
H40_9 H 0.7741 0.6763 0.6370
C69_9 C 0.76208(13) 0.66451(9) 0.61192(11)
C70_9 C 0.75543(12) 0.66945(8) 0.59301(12)
H41_9 H 0.7511 0.6593 0.5842
C71_9 C 0.75514(10) 0.68943(8) 0.58686(14)
H42_9 H 0.7504 0.6926 0.5740
C72_9 C 0.76279(9) 0.64264(7) 0.61739(11)
C73_9 C 0.76573(9) 0.62773(7) 0.60314(12)
H43_9 H 0.7666 0.6314 0.5895
C74_9 C 0.80552(7) 0.60340(13) 0.57856(7)
H44_9 H 0.7985 0.6126 0.5705
C75_9 C 0.82597(10) 0.60304(11) 0.57765(10)
C76_9 C 0.83654(10) 0.61556(11) 0.56448(12)
C77_9 C 0.85400(11) 0.60930(14) 0.55628(9)
H45_9 H 0.8586 0.5962 0.5590
C78_9 C 0.86516(10) 0.62150(8) 0.54413(15)
H46_9 H 0.8775 0.6168 0.5391
C79_9 C 0.85864(10) 0.64068(13) 0.53910(11)
C80_9 C 0.84120(10) 0.64693(12) 0.54655(9)
H47_9 H 0.8361 0.6597 0.5434
C81_9 C 0.83073(10) 0.63407(8) 0.55896(15)
H48_9 H 0.8184 0.6387 0.5640
C82_9 C 0.87158(8) 0.65282(11) 0.52546(11)
C14_19 C 0.76055(10) -0.0000 0.40828(9)
H8_19 H 0.7742 0.0000 0.4027
H9_19 H 0.7617 -0.0000 0.4229
O13_7 O 0.69677(5) 0.10630(6) 0.47913(5)
O15_7 O 0.67331(6) 0.08229(6) 0.48002(5)
C45_10 C 0.68818(11) 0.09039(10) 0.47325(7)
C46_10 C 0.69949(9) 0.07914(13) 0.45701(9)
C47_10 C 0.71292(11) 0.08848(8) 0.44415(12)
H28_10 H 0.7154 0.1023 0.4456
C48_10 C 0.72243(8) 0.07812(13) 0.42959(9)
H29_10 H 0.7315 0.0849 0.4211
C49_10 C 0.71915(11) 0.05768(12) 0.42689(10)
C50_10 C 0.70669(12) 0.04889(9) 0.43994(13)
H30_10 H 0.7049 0.0349 0.4391
C51_10 C 0.69647(9) 0.05899(14) 0.45427(10)
H31_10 H 0.6872 0.0521 0.4624
C52_10 C 0.73043(8) 0.04632(11) 0.41083(12)
C53_10 C 0.73170(10) 0.05353(9) 0.39155(13)
H32_10 H 0.7254 0.0657 0.3882
C54_10 C 0.74224(8) 0.04305(10) 0.37694(12)
C55_10 C 0.75092(8) 0.02654(11) 0.38285(9)
H33_10 H 0.7583 0.0196 0.3730
C56_10 C 0.75059(8) 0.01782(9) 0.40218(11)
C57_10 C 0.74016(10) 0.02797(10) 0.41562(10)
H34_10 H 0.7391 0.0229 0.4288
C58_10 C 0.74239(8) 0.05073(12) 0.35684(11)
C59_10 C 0.73949(8) 0.07017(13) 0.35198(12)
H35_10 H 0.7373 0.0796 0.3623
C60_10 C 0.73967(8) 0.07648(9) 0.33263(16)
H36_10 H 0.7380 0.0902 0.3297
C61_10 C 0.74232(7) 0.06272(13) 0.31711(10)
C62_10 C 0.74472(8) 0.04386(12) 0.32197(11)
H37_10 H 0.7464 0.0342 0.3118
C63_10 C 0.74479(8) 0.03795(8) 0.34120(15)
H38_10 H 0.7466 0.0242 0.3440
C64_10 C 0.74108(8) 0.07004(11) 0.29661(11)
O1_10 O 0.69677(5) 0.89370(6) 0.47913(5)
O2_10 O 0.67331(6) 0.91771(6) 0.48002(5)
O3_10 O 0.73596(5) 0.91210(7) 0.29315(5)
O4_10 O 0.74569(5) 0.94200(6) 0.28331(6)
O5_10 O 0.73816(5) 0.76673(6) 0.60499(7)
O6_10 O 0.72830(5) 0.75683(7) 0.57442(5)
O7_10 O 0.66851(5) 0.86407(5) 0.51987(6)
O8_10 O 0.64544(7) 0.88806(5) 0.52007(6)
O9_10 O 0.70839(6) 0.85463(6) 0.5000
O10_10 O 0.63383(8) 0.92707(8) 0.5000
O11_10 O 0.72420(6) 0.87181(7) 0.27580(6)
O12_10 O 0.75407(5) 0.96579(6) 0.24593(5)
C1_10 C 0.68818(11) 0.90961(10) 0.47325(7)
C2_10 C 0.69949(9) 0.92086(13) 0.45701(9)
C3_10 C 0.71292(11) 0.91152(8) 0.44415(12)
H1_10 H 0.7154 0.8977 0.4456
C4_10 C 0.72243(8) 0.92188(13) 0.42959(9)
H2_10 H 0.7315 0.9151 0.4211
C5_10 C 0.71915(11) 0.94232(12) 0.42689(10)
C6_10 C 0.70669(12) 0.95111(9) 0.43994(13)
H3_10 H 0.7049 0.9651 0.4391
C7_10 C 0.69647(9) 0.94101(14) 0.45427(10)
H4_10 H 0.6872 0.9479 0.4624
C8_10 C 0.73043(8) 0.95368(11) 0.41083(12)
C9_10 C 0.73170(10) 0.94647(9) 0.39155(13)
H5_10 H 0.7254 0.9343 0.3882
C10_10 C 0.74224(8) 0.95695(10) 0.37694(12)
C11_10 C 0.75092(8) 0.97346(11) 0.38285(9)
H6_10 H 0.7583 0.9804 0.3730
C12_10 C 0.75059(8) 0.98218(9) 0.40218(11)
C13_10 C 0.74016(10) 0.97203(10) 0.41562(10)
H7_10 H 0.7391 0.9771 0.4288
C14_20 C 0.76055(10) 1.0000 0.40828(9)
H8_20 H 0.7742 1.0000 0.4027
H9_20 H 0.7617 1.0000 0.4229
C15_10 C 0.74239(8) 0.94927(12) 0.35684(11)
C16_10 C 0.73949(8) 0.92983(13) 0.35198(12)
H10_10 H 0.7373 0.9204 0.3623
C17_10 C 0.73967(8) 0.92352(9) 0.33263(16)
H11_10 H 0.7380 0.9098 0.3297
C18_10 C 0.74232(7) 0.93728(13) 0.31711(10)
C19_10 C 0.74472(8) 0.95614(12) 0.32197(11)
H12_10 H 0.7464 0.9658 0.3118
C20_10 C 0.74479(8) 0.96205(8) 0.34120(15)
H13_10 H 0.7466 0.9758 0.3440
C21_10 C 0.74108(8) 0.92996(11) 0.29661(11)
C22_10 C 0.72545(8) 0.76126(14) 0.59249(10)
C23_10 C 0.70426(9) 0.76150(12) 0.59886(13)
C24_10 C 0.69907(9) 0.76873(13) 0.61768(12)
H14_10 H 0.7092 0.7735 0.6262
C25_10 C 0.67947(10) 0.76909(9) 0.62419(15)
H15_10 H 0.6763 0.7741 0.6370
C26_10 C 0.66451(9) 0.76208(13) 0.61192(11)
C27_10 C 0.66945(8) 0.75543(12) 0.59301(12)
H16_10 H 0.6593 0.7511 0.5842
C28_10 C 0.68943(8) 0.75514(10) 0.58686(14)
H17_10 H 0.6926 0.7504 0.5740
C29_10 C 0.64264(7) 0.76279(9) 0.61739(11)
C30_10 C 0.63707(10) 0.76161(8) 0.63707(8)
H18_10 H 0.6470 0.7600 0.6470
C31_10 C 0.62773(7) 0.76573(9) 0.60314(12)
H19_10 H 0.6314 0.7666 0.5895
C32_10 C 0.60808(11) 0.76743(12) 0.60808(12)
C33_10 C 0.59287(14) 0.77276(10) 0.59287(10)
H20_10 H 0.5799 0.7670 0.5967
H21_10 H 0.5967 0.7670 0.5799
C34_10 C 0.59085(14) 0.79488(7) 0.59085(7)
C35_10 C 0.60340(13) 0.80552(7) 0.57856(7)
H22_10 H 0.6126 0.7985 0.5705
C36_10 C 0.60304(11) 0.82597(10) 0.57765(10)
C37_10 C 0.59041(14) 0.83555(9) 0.59041(9)
H23_10 H 0.5905 0.8497 0.5905
C38_10 C 0.61556(11) 0.83654(10) 0.56448(12)
C39_10 C 0.60930(14) 0.85400(11) 0.55628(9)
H24_10 H 0.5962 0.8586 0.5590
C40_10 C 0.62150(8) 0.86516(10) 0.54413(15)
H25_10 H 0.6168 0.8775 0.5391
C41_10 C 0.64068(13) 0.85864(10) 0.53910(11)
C42_10 C 0.64693(12) 0.84120(10) 0.54655(9)
H26_10 H 0.6597 0.8361 0.5434
C43_10 C 0.63407(8) 0.83073(10) 0.55896(15)
H27_10 H 0.6387 0.8184 0.5640
C44_10 C 0.65282(11) 0.87158(8) 0.52546(11)
Cu11_10 Cu 0.599146(12) 0.766207(9) 0.766207(9)
Cu14_10 Cu 0.563531(11) 0.754706(8) 0.754706(8)
O14_7 O 0.69677(5) 0.89370(6) 0.52087(5)
O16_7 O 0.67331(6) 0.91771(6) 0.51998(5)
O21_10 O 0.60499(7) 0.76673(6) 0.73816(5)
O22_10 O 0.73327(6) 0.89501(7) 0.23816(5)
O23_10 O 0.76184(5) 0.89501(7) 0.26673(6)
O24_10 O 0.57442(5) 0.75683(7) 0.72830(5)
O25_10 O 0.74317(7) 0.92558(5) 0.22830(5)
O26_10 O 0.77170(5) 0.92558(5) 0.25683(7)
O27_10 O 0.51987(6) 0.86407(5) 0.66851(5)
O29_10 O 0.52007(6) 0.88806(5) 0.64544(7)
C65_10 C 0.59249(10) 0.76126(14) 0.72545(8)
C66_10 C 0.59886(13) 0.76150(12) 0.70426(9)
C67_10 C 0.61768(12) 0.76873(13) 0.69907(9)
H39_10 H 0.6262 0.7735 0.7092
C68_10 C 0.62419(15) 0.76909(9) 0.67947(10)
H40_10 H 0.6370 0.7741 0.6763
C69_10 C 0.61192(11) 0.76208(13) 0.66451(9)
C70_10 C 0.59301(12) 0.75543(12) 0.66945(8)
H41_10 H 0.5842 0.7511 0.6593
C71_10 C 0.58686(14) 0.75514(10) 0.68943(8)
H42_10 H 0.5740 0.7504 0.6926
C72_10 C 0.61739(11) 0.76279(9) 0.64264(7)
C73_10 C 0.60314(12) 0.76573(9) 0.62773(7)
H43_10 H 0.5895 0.7666 0.6314
C74_10 C 0.57856(7) 0.80552(7) 0.60340(13)
H44_10 H 0.5705 0.7985 0.6126
C75_10 C 0.57765(10) 0.82597(10) 0.60304(11)
C76_10 C 0.56448(12) 0.83654(10) 0.61556(11)
C77_10 C 0.55628(9) 0.85400(11) 0.60930(14)
H45_10 H 0.5590 0.8586 0.5962
C78_10 C 0.54413(15) 0.86516(10) 0.62150(8)
H46_10 H 0.5391 0.8775 0.6168
C79_10 C 0.53910(11) 0.85864(10) 0.64068(13)
C80_10 C 0.54655(9) 0.84120(10) 0.64693(12)
H47_10 H 0.5434 0.8361 0.6597
C81_10 C 0.55896(15) 0.83073(10) 0.63407(8)
H48_10 H 0.5640 0.8184 0.6387
C82_10 C 0.52546(11) 0.87158(8) 0.65282(11)
C14_21 C 0.59172(9) -0.0000 0.76055(10)
H8_21 H 0.5973 0.0000 0.7742
H9_21 H 0.5771 -0.0000 0.7617
Cu10_8 Cu 0.733793(9) 0.099146(12) 0.733793(9)
Cu13_8 Cu 0.745294(8) 0.063531(11) 0.745294(8)
O17_8 O 0.70685(5) 0.08790(7) 0.73596(5)
O19_8 O 0.71669(6) 0.05800(6) 0.74569(5)
C45_11 C 0.52675(7) 0.09039(10) 0.68818(11)
C46_11 C 0.54299(9) 0.07914(13) 0.69949(9)
C47_11 C 0.55585(12) 0.08848(8) 0.71292(11)
H28_11 H 0.5544 0.1023 0.7154
C48_11 C 0.57041(9) 0.07812(13) 0.72243(8)
H29_11 H 0.5789 0.0849 0.7315
C49_11 C 0.57311(10) 0.05768(12) 0.71915(11)
C50_11 C 0.56006(13) 0.04889(9) 0.70669(12)
H30_11 H 0.5609 0.0349 0.7049
C51_11 C 0.54573(10) 0.05899(14) 0.69647(9)
H31_11 H 0.5376 0.0521 0.6872
C52_11 C 0.58917(12) 0.04632(11) 0.73043(8)
C53_11 C 0.60845(13) 0.05353(9) 0.73170(10)
H32_11 H 0.6118 0.0657 0.7254
C54_11 C 0.62306(12) 0.04305(10) 0.74224(8)
C55_11 C 0.61715(9) 0.02654(11) 0.75092(8)
H33_11 H 0.6270 0.0196 0.7583
C56_11 C 0.59782(11) 0.01782(9) 0.75059(8)
C57_11 C 0.58438(10) 0.02797(10) 0.74016(10)
H34_11 H 0.5712 0.0229 0.7391
C58_11 C 0.64316(11) 0.05073(12) 0.74239(8)
C59_11 C 0.64802(12) 0.07017(13) 0.73949(8)
H35_11 H 0.6377 0.0796 0.7373
C60_11 C 0.66737(16) 0.07648(9) 0.73967(8)
H36_11 H 0.6703 0.0902 0.7380
C61_11 C 0.68289(10) 0.06272(13) 0.74232(7)
C62_11 C 0.67803(11) 0.04386(12) 0.74472(8)
H37_11 H 0.6882 0.0342 0.7464
C63_11 C 0.65880(15) 0.03795(8) 0.74479(8)
H38_11 H 0.6560 0.0242 0.7466
C64_11 C 0.70339(11) 0.07004(11) 0.74108(8)
Cu3_8 Cu 0.733793(9) 0.900854(12) 0.733793(9)
Cu4_8 Cu 0.745294(8) 0.936469(11) 0.745294(8)
O1_11 O 0.52087(5) 0.89370(6) 0.69677(5)
O2_11 O 0.51998(5) 0.91771(6) 0.67331(6)
O3_11 O 0.70685(5) 0.91210(7) 0.73596(5)
O4_11 O 0.71669(6) 0.94200(6) 0.74569(5)
O5_11 O 0.39501(7) 0.76673(6) 0.73816(5)
O6_11 O 0.42558(5) 0.75683(7) 0.72830(5)
O7_11 O 0.48013(6) 0.86407(5) 0.66851(5)
O8_11 O 0.47993(6) 0.88806(5) 0.64544(7)
O9_11 O 0.5000 0.85463(6) 0.70839(6)
O10_11 O 0.5000 0.92707(8) 0.63383(8)
O11_11 O 0.72420(6) 0.87181(7) 0.72420(6)
O12_11 O 0.75407(5) 0.96579(6) 0.75407(5)
C1_11 C 0.52675(7) 0.90961(10) 0.68818(11)
C2_11 C 0.54299(9) 0.92086(13) 0.69949(9)
C3_11 C 0.55585(12) 0.91152(8) 0.71292(11)
H1_11 H 0.5544 0.8977 0.7154
C4_11 C 0.57041(9) 0.92188(13) 0.72243(8)
H2_11 H 0.5789 0.9151 0.7315
C5_11 C 0.57311(10) 0.94232(12) 0.71915(11)
C6_11 C 0.56006(13) 0.95111(9) 0.70669(12)
H3_11 H 0.5609 0.9651 0.7049
C7_11 C 0.54573(10) 0.94101(14) 0.69647(9)
H4_11 H 0.5376 0.9479 0.6872
C8_11 C 0.58917(12) 0.95368(11) 0.73043(8)
C9_11 C 0.60845(13) 0.94647(9) 0.73170(10)
H5_11 H 0.6118 0.9343 0.7254
C10_11 C 0.62306(12) 0.95695(10) 0.74224(8)
C11_11 C 0.61715(9) 0.97346(11) 0.75092(8)
H6_11 H 0.6270 0.9804 0.7583
C12_11 C 0.59782(11) 0.98218(9) 0.75059(8)
C13_11 C 0.58438(10) 0.97203(10) 0.74016(10)
H7_11 H 0.5712 0.9771 0.7391
C14_22 C 0.59172(9) 1.0000 0.76055(10)
H8_22 H 0.5973 1.0000 0.7742
H9_22 H 0.5771 1.0000 0.7617
C15_11 C 0.64316(11) 0.94927(12) 0.74239(8)
C16_11 C 0.64802(12) 0.92983(13) 0.73949(8)
H10_11 H 0.6377 0.9204 0.7373
C17_11 C 0.66737(16) 0.92352(9) 0.73967(8)
H11_11 H 0.6703 0.9098 0.7380
C18_11 C 0.68289(10) 0.93728(13) 0.74232(7)
C19_11 C 0.67803(11) 0.95614(12) 0.74472(8)
H12_11 H 0.6882 0.9658 0.7464
C20_11 C 0.65880(15) 0.96205(8) 0.74479(8)
H13_11 H 0.6560 0.9758 0.7466
C21_11 C 0.70339(11) 0.92996(11) 0.74108(8)
C22_11 C 0.40751(10) 0.76126(14) 0.72545(8)
C23_11 C 0.40114(13) 0.76150(12) 0.70426(9)
C24_11 C 0.38232(12) 0.76873(13) 0.69907(9)
H14_11 H 0.3738 0.7735 0.7092
C25_11 C 0.37581(15) 0.76909(9) 0.67947(10)
H15_11 H 0.3630 0.7741 0.6763
C26_11 C 0.38808(11) 0.76208(13) 0.66451(9)
C27_11 C 0.40699(12) 0.75543(12) 0.66945(8)
H16_11 H 0.4158 0.7511 0.6593
C28_11 C 0.41314(14) 0.75514(10) 0.68943(8)
H17_11 H 0.4260 0.7504 0.6926
C29_11 C 0.38261(11) 0.76279(9) 0.64264(7)
C30_11 C 0.36293(8) 0.76161(8) 0.63707(10)
H18_11 H 0.3530 0.7600 0.6470
C31_11 C 0.39686(12) 0.76573(9) 0.62773(7)
H19_11 H 0.4105 0.7666 0.6314
C32_11 C 0.39192(12) 0.76743(12) 0.60808(11)
C33_11 C 0.40713(10) 0.77276(10) 0.59287(14)
H20_11 H 0.4033 0.7670 0.5799
H21_11 H 0.4201 0.7670 0.5967
C34_11 C 0.40915(7) 0.79488(7) 0.59085(14)
C35_11 C 0.42144(7) 0.80552(7) 0.60340(13)
H22_11 H 0.4295 0.7985 0.6126
C36_11 C 0.42235(10) 0.82597(10) 0.60304(11)
C37_11 C 0.40959(9) 0.83555(9) 0.59041(14)
H23_11 H 0.4095 0.8497 0.5905
C38_11 C 0.43552(12) 0.83654(10) 0.61556(11)
C39_11 C 0.44372(9) 0.85400(11) 0.60930(14)
H24_11 H 0.4410 0.8586 0.5962
C40_11 C 0.45587(15) 0.86516(10) 0.62150(8)
H25_11 H 0.4609 0.8775 0.6168
C41_11 C 0.46090(11) 0.85864(10) 0.64068(13)
C42_11 C 0.45345(9) 0.84120(10) 0.64693(12)
H26_11 H 0.4566 0.8361 0.6597
C43_11 C 0.44104(15) 0.83073(10) 0.63407(8)
H27_11 H 0.4360 0.8184 0.6387
C44_11 C 0.47454(11) 0.87158(8) 0.65282(11)
Cu9_8 Cu 0.400854(12) 0.766207(9) 0.766207(9)
Cu11_11 Cu 0.233793(9) 0.766207(9) 0.599146(12)
Cu12_8 Cu 0.436469(11) 0.754706(8) 0.754706(8)
Cu14_11 Cu 0.245294(8) 0.754706(8) 0.563531(11)
O18_8 O 0.73596(5) 0.91210(7) 0.70685(5)
O20_8 O 0.74569(5) 0.94200(6) 0.71669(6)
O21_11 O 0.26184(5) 0.76673(6) 0.60499(7)
O22_11 O 0.76184(5) 0.89501(7) 0.73327(6)
O23_11 O 0.73327(6) 0.89501(7) 0.76184(5)
O24_11 O 0.27170(5) 0.75683(7) 0.57442(5)
O25_11 O 0.77170(5) 0.92558(5) 0.74317(7)
O26_11 O 0.74317(7) 0.92558(5) 0.77170(5)
O27_11 O 0.33149(5) 0.86407(5) 0.51987(6)
O29_11 O 0.35456(7) 0.88806(5) 0.52007(6)
C65_11 C 0.27455(8) 0.76126(14) 0.59249(10)
C66_11 C 0.29574(9) 0.76150(12) 0.59886(13)
C67_11 C 0.30093(9) 0.76873(13) 0.61768(12)
H39_11 H 0.2908 0.7735 0.6262
C68_11 C 0.32053(10) 0.76909(9) 0.62419(15)
H40_11 H 0.3237 0.7741 0.6370
C69_11 C 0.33549(9) 0.76208(13) 0.61192(11)
C70_11 C 0.33055(8) 0.75543(12) 0.59301(12)
H41_11 H 0.3407 0.7511 0.5842
C71_11 C 0.31057(8) 0.75514(10) 0.58686(14)
H42_11 H 0.3074 0.7504 0.5740
C72_11 C 0.35736(7) 0.76279(9) 0.61739(11)
C73_11 C 0.37227(7) 0.76573(9) 0.60314(12)
H43_11 H 0.3686 0.7666 0.5895
C74_11 C 0.39660(13) 0.80552(7) 0.57856(7)
H44_11 H 0.3874 0.7985 0.5705
C75_11 C 0.39696(11) 0.82597(10) 0.57765(10)
C76_11 C 0.38444(11) 0.83654(10) 0.56448(12)
C77_11 C 0.39070(14) 0.85400(11) 0.55628(9)
H45_11 H 0.4038 0.8586 0.5590
C78_11 C 0.37850(8) 0.86516(10) 0.54413(15)
H46_11 H 0.3832 0.8775 0.5391
C79_11 C 0.35932(13) 0.85864(10) 0.53910(11)
C80_11 C 0.35307(12) 0.84120(10) 0.54655(9)
H47_11 H 0.3403 0.8361 0.5434
C81_11 C 0.36593(8) 0.83073(10) 0.55896(15)
H48_11 H 0.3613 0.8184 0.5640
C82_11 C 0.34718(11) 0.87158(8) 0.52546(11)
O1_12 O 0.10630(6) 0.69677(5) 0.47913(5)
O2_12 O 0.08229(6) 0.67331(6) 0.48002(5)
O3_12 O 0.08790(7) 0.73596(5) 0.29315(5)
O4_12 O 0.05800(6) 0.74569(5) 0.28331(6)
O5_12 O 0.23327(6) 0.73816(5) 0.60499(7)
O6_12 O 0.24317(7) 0.72830(5) 0.57442(5)
O7_12 O 0.13593(5) 0.66851(5) 0.51987(6)
O8_12 O 0.11194(5) 0.64544(7) 0.52007(6)
O9_12 O 0.14537(6) 0.70839(6) 0.5000
O10_12 O 0.07293(8) 0.63383(8) 0.5000
O11_12 O 0.12819(7) 0.72420(6) 0.27580(6)
O12_12 O 0.03421(6) 0.75407(5) 0.24593(5)
C1_12 C 0.09039(10) 0.68818(11) 0.47325(7)
C2_12 C 0.07914(13) 0.69949(9) 0.45701(9)
C3_12 C 0.08848(8) 0.71292(11) 0.44415(12)
H1_12 H 0.1023 0.7154 0.4456
C4_12 C 0.07812(13) 0.72243(8) 0.42959(9)
H2_12 H 0.0849 0.7315 0.4211
C5_12 C 0.05768(12) 0.71915(11) 0.42689(10)
C6_12 C 0.04889(9) 0.70669(12) 0.43994(13)
H3_12 H 0.0349 0.7049 0.4391
C7_12 C 0.05899(14) 0.69647(9) 0.45427(10)
H4_12 H 0.0521 0.6872 0.4624
C8_12 C 0.04632(11) 0.73043(8) 0.41083(12)
C9_12 C 0.05353(9) 0.73170(10) 0.39155(13)
H5_12 H 0.0657 0.7254 0.3882
C10_12 C 0.04305(10) 0.74224(8) 0.37694(12)
C11_12 C 0.02654(11) 0.75092(8) 0.38285(9)
H6_12 H 0.0196 0.7583 0.3730
C12_12 C 0.01782(9) 0.75059(8) 0.40218(11)
C13_12 C 0.02797(10) 0.74016(10) 0.41562(10)
H7_12 H 0.0229 0.7391 0.4288
C14_23 C 0.0000 0.76055(10) 0.40828(9)
H8_23 H -0.0000 0.7742 0.4027
H9_23 H 0.0000 0.7617 0.4229
C15_12 C 0.05073(12) 0.74239(8) 0.35684(11)
C16_12 C 0.07017(13) 0.73949(8) 0.35198(12)
H10_12 H 0.0796 0.7373 0.3623
C17_12 C 0.07648(9) 0.73967(8) 0.33263(16)
H11_12 H 0.0902 0.7380 0.3297
C18_12 C 0.06272(13) 0.74232(7) 0.31711(10)
C19_12 C 0.04386(12) 0.74472(8) 0.32197(11)
H12_12 H 0.0342 0.7464 0.3118
C20_12 C 0.03795(8) 0.74479(8) 0.34120(15)
H13_12 H 0.0242 0.7466 0.3440
C21_12 C 0.07004(11) 0.74108(8) 0.29661(11)
C22_12 C 0.23874(14) 0.72545(8) 0.59249(10)
C23_12 C 0.23850(12) 0.70426(9) 0.59886(13)
C24_12 C 0.23127(13) 0.69907(9) 0.61768(12)
H14_12 H 0.2265 0.7092 0.6262
C25_12 C 0.23091(9) 0.67947(10) 0.62419(15)
H15_12 H 0.2259 0.6763 0.6370
C26_12 C 0.23792(13) 0.66451(9) 0.61192(11)
C27_12 C 0.24457(12) 0.66945(8) 0.59301(12)
H16_12 H 0.2489 0.6593 0.5842
C28_12 C 0.24486(10) 0.68943(8) 0.58686(14)
H17_12 H 0.2496 0.6926 0.5740
C29_12 C 0.23721(9) 0.64264(7) 0.61739(11)
C30_12 C 0.23839(8) 0.63707(10) 0.63707(8)
H18_12 H 0.2400 0.6470 0.6470
C31_12 C 0.23427(9) 0.62773(7) 0.60314(12)
H19_12 H 0.2334 0.6314 0.5895
C32_12 C 0.23257(12) 0.60808(11) 0.60808(12)
C33_12 C 0.22724(10) 0.59287(14) 0.59287(10)
H20_12 H 0.2330 0.5799 0.5967
H21_12 H 0.2330 0.5967 0.5799
C34_12 C 0.20512(7) 0.59085(14) 0.59085(7)
C35_12 C 0.19448(7) 0.60340(13) 0.57856(7)
H22_12 H 0.2015 0.6126 0.5705
C36_12 C 0.17403(10) 0.60304(11) 0.57765(10)
C37_12 C 0.16445(9) 0.59041(14) 0.59041(9)
H23_12 H 0.1503 0.5905 0.5905
C38_12 C 0.16346(10) 0.61556(11) 0.56448(12)
C39_12 C 0.14600(11) 0.60930(14) 0.55628(9)
H24_12 H 0.1414 0.5962 0.5590
C40_12 C 0.13484(10) 0.62150(8) 0.54413(15)
H25_12 H 0.1225 0.6168 0.5391
C41_12 C 0.14136(10) 0.64068(13) 0.53910(11)
C42_12 C 0.15880(10) 0.64693(12) 0.54655(9)
H26_12 H 0.1639 0.6597 0.5434
C43_12 C 0.16927(10) 0.63407(8) 0.55896(15)
H27_12 H 0.1816 0.6387 0.5640
C44_12 C 0.12842(8) 0.65282(11) 0.52546(11)
Cu11_12 Cu 0.233793(9) 0.599146(12) 0.766207(9)
Cu14_12 Cu 0.245294(8) 0.563531(11) 0.754706(8)
O14_8 O 0.10630(6) 0.69677(5) 0.52087(5)
O16_8 O 0.08229(6) 0.67331(6) 0.51998(5)
O21_12 O 0.23327(6) 0.60499(7) 0.73816(5)
O22_12 O 0.10499(7) 0.73327(6) 0.23816(5)
O23_12 O 0.10499(7) 0.76184(5) 0.26673(6)
O24_12 O 0.24317(7) 0.57442(5) 0.72830(5)
O25_12 O 0.07442(5) 0.74317(7) 0.22830(5)
O26_12 O 0.07442(5) 0.77170(5) 0.25683(7)
C65_12 C 0.23874(14) 0.59249(10) 0.72545(8)
C66_12 C 0.23850(12) 0.59886(13) 0.70426(9)
C67_12 C 0.23127(13) 0.61768(12) 0.69907(9)
H39_12 H 0.2265 0.6262 0.7092
C68_12 C 0.23091(9) 0.62419(15) 0.67947(10)
H40_12 H 0.2259 0.6370 0.6763
C69_12 C 0.23792(13) 0.61192(11) 0.66451(9)
C70_12 C 0.24457(12) 0.59301(12) 0.66945(8)
H41_12 H 0.2489 0.5842 0.6593
C71_12 C 0.24486(10) 0.58686(14) 0.68943(8)
H42_12 H 0.2496 0.5740 0.6926
C72_12 C 0.23721(9) 0.61739(11) 0.64264(7)
C73_12 C 0.23427(9) 0.60314(12) 0.62773(7)
H43_12 H 0.2334 0.5895 0.6314
C74_12 C 0.19448(7) 0.57856(7) 0.60340(13)
H44_12 H 0.2015 0.5705 0.6126
C75_12 C 0.17403(10) 0.57765(10) 0.60304(11)
C76_12 C 0.16346(10) 0.56448(12) 0.61556(11)
C77_12 C 0.14600(11) 0.55628(9) 0.60930(14)
H45_12 H 0.1414 0.5590 0.5962
C78_12 C 0.13484(10) 0.54413(15) 0.62150(8)
H46_12 H 0.1225 0.5391 0.6168
C79_12 C 0.14136(10) 0.53910(11) 0.64068(13)
C80_12 C 0.15880(10) 0.54655(9) 0.64693(12)
H47_12 H 0.1639 0.5434 0.6597
C81_12 C 0.16927(10) 0.55896(15) 0.63407(8)
H48_12 H 0.1816 0.5640 0.6387
C82_12 C 0.12842(8) 0.52546(11) 0.65282(11)
C14_24 C 1.0000 0.76055(10) 0.40828(9)
H8_24 H 1.0000 0.7742 0.4027
H9_24 H 1.0000 0.7617 0.4229
O13_8 O 0.89370(6) 0.69677(5) 0.47913(5)
O15_8 O 0.91771(6) 0.67331(6) 0.48002(5)
C45_12 C 0.90961(10) 0.68818(11) 0.47325(7)
C46_12 C 0.92086(13) 0.69949(9) 0.45701(9)
C47_12 C 0.91152(8) 0.71292(11) 0.44415(12)
H28_12 H 0.8977 0.7154 0.4456
C48_12 C 0.92188(13) 0.72243(8) 0.42959(9)
H29_12 H 0.9151 0.7315 0.4211
C49_12 C 0.94232(12) 0.71915(11) 0.42689(10)
C50_12 C 0.95111(9) 0.70669(12) 0.43994(13)
H30_12 H 0.9651 0.7049 0.4391
C51_12 C 0.94101(14) 0.69647(9) 0.45427(10)
H31_12 H 0.9479 0.6872 0.4624
C52_12 C 0.95368(11) 0.73043(8) 0.41083(12)
C53_12 C 0.94647(9) 0.73170(10) 0.39155(13)
H32_12 H 0.9343 0.7254 0.3882
C54_12 C 0.95695(10) 0.74224(8) 0.37694(12)
C55_12 C 0.97346(11) 0.75092(8) 0.38285(9)
H33_12 H 0.9804 0.7583 0.3730
C56_12 C 0.98218(9) 0.75059(8) 0.40218(11)
C57_12 C 0.97203(10) 0.74016(10) 0.41562(10)
H34_12 H 0.9771 0.7391 0.4288
C58_12 C 0.94927(12) 0.74239(8) 0.35684(11)
C59_12 C 0.92983(13) 0.73949(8) 0.35198(12)
H35_12 H 0.9204 0.7373 0.3623
C60_12 C 0.92352(9) 0.73967(8) 0.33263(16)
H36_12 H 0.9098 0.7380 0.3297
C61_12 C 0.93728(13) 0.74232(7) 0.31711(10)
C62_12 C 0.95614(12) 0.74472(8) 0.32197(11)
H37_12 H 0.9658 0.7464 0.3118
C63_12 C 0.96205(8) 0.74479(8) 0.34120(15)
H38_12 H 0.9758 0.7466 0.3440
C64_12 C 0.92996(11) 0.74108(8) 0.29661(11)
C14_25 C 0.23945(10) -0.0000 0.59172(9)
H8_25 H 0.2258 0.0000 0.5973
H9_25 H 0.2383 -0.0000 0.5771
C45_13 C 0.31182(11) 0.09039(10) 0.52675(7)
C46_13 C 0.30051(9) 0.07914(13) 0.54299(9)
C47_13 C 0.28708(11) 0.08848(8) 0.55585(12)
H28_13 H 0.2846 0.1023 0.5544
C48_13 C 0.27757(8) 0.07812(13) 0.57041(9)
H29_13 H 0.2685 0.0849 0.5789
C49_13 C 0.28085(11) 0.05768(12) 0.57311(10)
C50_13 C 0.29331(12) 0.04889(9) 0.56006(13)
H30_13 H 0.2951 0.0349 0.5609
C51_13 C 0.30353(9) 0.05899(14) 0.54573(10)
H31_13 H 0.3128 0.0521 0.5376
C52_13 C 0.26957(8) 0.04632(11) 0.58917(12)
C53_13 C 0.26830(10) 0.05353(9) 0.60845(13)
H32_13 H 0.2746 0.0657 0.6118
C54_13 C 0.25776(8) 0.04305(10) 0.62306(12)
C55_13 C 0.24908(8) 0.02654(11) 0.61715(9)
H33_13 H 0.2417 0.0196 0.6270
C56_13 C 0.24941(8) 0.01782(9) 0.59782(11)
C57_13 C 0.25984(10) 0.02797(10) 0.58438(10)
H34_13 H 0.2609 0.0229 0.5712
C58_13 C 0.25761(8) 0.05073(12) 0.64316(11)
C59_13 C 0.26051(8) 0.07017(13) 0.64802(12)
H35_13 H 0.2627 0.0796 0.6377
C60_13 C 0.26033(8) 0.07648(9) 0.66737(16)
H36_13 H 0.2620 0.0902 0.6703
C61_13 C 0.25768(7) 0.06272(13) 0.68289(10)
C62_13 C 0.25528(8) 0.04386(12) 0.67803(11)
H37_13 H 0.2536 0.0342 0.6882
C63_13 C 0.25521(8) 0.03795(8) 0.65880(15)
H38_13 H 0.2534 0.0242 0.6560
C64_13 C 0.25892(8) 0.07004(11) 0.70339(11)
O1_13 O 0.30323(5) 0.89370(6) 0.52087(5)
O2_13 O 0.32669(6) 0.91771(6) 0.51998(5)
O3_13 O 0.26404(5) 0.91210(7) 0.70685(5)
O4_13 O 0.25431(5) 0.94200(6) 0.71669(6)
O5_13 O 0.26184(5) 0.76673(6) 0.39501(7)
O6_13 O 0.27170(5) 0.75683(7) 0.42558(5)
O7_13 O 0.33149(5) 0.86407(5) 0.48013(6)
O8_13 O 0.35456(7) 0.88806(5) 0.47993(6)
O9_13 O 0.29161(6) 0.85463(6) 0.5000
O10_13 O 0.36617(8) 0.92707(8) 0.5000
O11_13 O 0.27580(6) 0.87181(7) 0.72420(6)
O12_13 O 0.24593(5) 0.96579(6) 0.75407(5)
C1_13 C 0.31182(11) 0.90961(10) 0.52675(7)
C2_13 C 0.30051(9) 0.92086(13) 0.54299(9)
C3_13 C 0.28708(11) 0.91152(8) 0.55585(12)
H1_13 H 0.2846 0.8977 0.5544
C4_13 C 0.27757(8) 0.92188(13) 0.57041(9)
H2_13 H 0.2685 0.9151 0.5789
C5_13 C 0.28085(11) 0.94232(12) 0.57311(10)
C6_13 C 0.29331(12) 0.95111(9) 0.56006(13)
H3_13 H 0.2951 0.9651 0.5609
C7_13 C 0.30353(9) 0.94101(14) 0.54573(10)
H4_13 H 0.3128 0.9479 0.5376
C8_13 C 0.26957(8) 0.95368(11) 0.58917(12)
C9_13 C 0.26830(10) 0.94647(9) 0.60845(13)
H5_13 H 0.2746 0.9343 0.6118
C10_13 C 0.25776(8) 0.95695(10) 0.62306(12)
C11_13 C 0.24908(8) 0.97346(11) 0.61715(9)
H6_13 H 0.2417 0.9804 0.6270
C12_13 C 0.24941(8) 0.98218(9) 0.59782(11)
C13_13 C 0.25984(10) 0.97203(10) 0.58438(10)
H7_13 H 0.2609 0.9771 0.5712
C14_26 C 0.23945(10) 1.0000 0.59172(9)
H8_26 H 0.2258 1.0000 0.5973
H9_26 H 0.2383 1.0000 0.5771
C15_13 C 0.25761(8) 0.94927(12) 0.64316(11)
C16_13 C 0.26051(8) 0.92983(13) 0.64802(12)
H10_13 H 0.2627 0.9204 0.6377
C17_13 C 0.26033(8) 0.92352(9) 0.66737(16)
H11_13 H 0.2620 0.9098 0.6703
C18_13 C 0.25768(7) 0.93728(13) 0.68289(10)
C19_13 C 0.25528(8) 0.95614(12) 0.67803(11)
H12_13 H 0.2536 0.9658 0.6882
C20_13 C 0.25521(8) 0.96205(8) 0.65880(15)
H13_13 H 0.2534 0.9758 0.6560
C21_13 C 0.25892(8) 0.92996(11) 0.70339(11)
C22_13 C 0.27455(8) 0.76126(14) 0.40751(10)
C23_13 C 0.29574(9) 0.76150(12) 0.40114(13)
C24_13 C 0.30093(9) 0.76873(13) 0.38232(12)
H14_13 H 0.2908 0.7735 0.3738
C25_13 C 0.32053(10) 0.76909(9) 0.37581(15)
H15_13 H 0.3237 0.7741 0.3630
C26_13 C 0.33549(9) 0.76208(13) 0.38808(11)
C27_13 C 0.33055(8) 0.75543(12) 0.40699(12)
H16_13 H 0.3407 0.7511 0.4158
C28_13 C 0.31057(8) 0.75514(10) 0.41314(14)
H17_13 H 0.3074 0.7504 0.4260
C29_13 C 0.35736(7) 0.76279(9) 0.38261(11)
C30_13 C 0.36293(10) 0.76161(8) 0.36293(8)
H18_13 H 0.3530 0.7600 0.3530
C31_13 C 0.37227(7) 0.76573(9) 0.39686(12)
H19_13 H 0.3686 0.7666 0.4105
C32_13 C 0.39192(11) 0.76743(12) 0.39192(12)
C33_13 C 0.40713(14) 0.77276(10) 0.40713(10)
H20_13 H 0.4201 0.7670 0.4033
H21_13 H 0.4033 0.7670 0.4201
C34_13 C 0.40915(14) 0.79488(7) 0.40915(7)
C35_13 C 0.39660(13) 0.80552(7) 0.42144(7)
H22_13 H 0.3874 0.7985 0.4295
C36_13 C 0.39696(11) 0.82597(10) 0.42235(10)
C37_13 C 0.40959(14) 0.83555(9) 0.40959(9)
H23_13 H 0.4095 0.8497 0.4095
C38_13 C 0.38444(11) 0.83654(10) 0.43552(12)
C39_13 C 0.39070(14) 0.85400(11) 0.44372(9)
H24_13 H 0.4038 0.8586 0.4410
C40_13 C 0.37850(8) 0.86516(10) 0.45587(15)
H25_13 H 0.3832 0.8775 0.4609
C41_13 C 0.35932(13) 0.85864(10) 0.46090(11)
C42_13 C 0.35307(12) 0.84120(10) 0.45345(9)
H26_13 H 0.3403 0.8361 0.4566
C43_13 C 0.36593(8) 0.83073(10) 0.44104(15)
H27_13 H 0.3613 0.8184 0.4360
C44_13 C 0.34718(11) 0.87158(8) 0.47454(11)
Cu11_13 Cu 0.400854(12) 0.766207(9) 0.233793(9)
Cu14_13 Cu 0.436469(11) 0.754706(8) 0.245294(8)
O21_13 O 0.39501(7) 0.76673(6) 0.26184(5)
O22_13 O 0.26673(6) 0.89501(7) 0.76184(5)
O23_13 O 0.23816(5) 0.89501(7) 0.73327(6)
O24_13 O 0.42558(5) 0.75683(7) 0.27170(5)
O25_13 O 0.25683(7) 0.92558(5) 0.77170(5)
O26_13 O 0.22830(5) 0.92558(5) 0.74317(7)
C65_13 C 0.40751(10) 0.76126(14) 0.27455(8)
C66_13 C 0.40114(13) 0.76150(12) 0.29574(9)
C67_13 C 0.38232(12) 0.76873(13) 0.30093(9)
H39_13 H 0.3738 0.7735 0.2908
C68_13 C 0.37581(15) 0.76909(9) 0.32053(10)
H40_13 H 0.3630 0.7741 0.3237
C69_13 C 0.38808(11) 0.76208(13) 0.33549(9)
C70_13 C 0.40699(12) 0.75543(12) 0.33055(8)
H41_13 H 0.4158 0.7511 0.3407
C71_13 C 0.41314(14) 0.75514(10) 0.31057(8)
H42_13 H 0.4260 0.7504 0.3074
C72_13 C 0.38261(11) 0.76279(9) 0.35736(7)
C73_13 C 0.39686(12) 0.76573(9) 0.37227(7)
H43_13 H 0.4105 0.7666 0.3686
C74_13 C 0.42144(7) 0.80552(7) 0.39660(13)
H44_13 H 0.4295 0.7985 0.3874
C75_13 C 0.42235(10) 0.82597(10) 0.39696(11)
C76_13 C 0.43552(12) 0.83654(10) 0.38444(11)
C77_13 C 0.44372(9) 0.85400(11) 0.39070(14)
H45_13 H 0.4410 0.8586 0.4038
C78_13 C 0.45587(15) 0.86516(10) 0.37850(8)
H46_13 H 0.4609 0.8775 0.3832
C79_13 C 0.46090(11) 0.85864(10) 0.35932(13)
C80_13 C 0.45345(9) 0.84120(10) 0.35307(12)
H47_13 H 0.4566 0.8361 0.3403
C81_13 C 0.44104(15) 0.83073(10) 0.36593(8)
H48_13 H 0.4360 0.8184 0.3613
C82_13 C 0.47454(11) 0.87158(8) 0.34718(11)
C14_27 C 0.0000 0.76055(10) 0.59172(9)
H8_27 H -0.0000 0.7742 0.5973
H9_27 H -0.0000 0.7617 0.5771
C45_14 C 0.09039(10) 0.68818(11) 0.52675(7)
C46_14 C 0.07914(13) 0.69949(9) 0.54299(9)
C47_14 C 0.08848(8) 0.71292(11) 0.55585(12)
H28_14 H 0.1023 0.7154 0.5544
C48_14 C 0.07812(13) 0.72243(8) 0.57041(9)
H29_14 H 0.0849 0.7315 0.5789
C49_14 C 0.05768(12) 0.71915(11) 0.57311(10)
C50_14 C 0.04889(9) 0.70669(12) 0.56006(13)
H30_14 H 0.0349 0.7049 0.5609
C51_14 C 0.05899(14) 0.69647(9) 0.54573(10)
H31_14 H 0.0521 0.6872 0.5376
C52_14 C 0.04632(11) 0.73043(8) 0.58917(12)
C53_14 C 0.05353(9) 0.73170(10) 0.60845(13)
H32_14 H 0.0657 0.7254 0.6118
C54_14 C 0.04305(10) 0.74224(8) 0.62306(12)
C55_14 C 0.02654(11) 0.75092(8) 0.61715(9)
H33_14 H 0.0196 0.7583 0.6270
C56_14 C 0.01782(9) 0.75059(8) 0.59782(11)
C57_14 C 0.02797(10) 0.74016(10) 0.58438(10)
H34_14 H 0.0229 0.7391 0.5712
C58_14 C 0.05073(12) 0.74239(8) 0.64316(11)
C59_14 C 0.07017(13) 0.73949(8) 0.64802(12)
H35_14 H 0.0796 0.7373 0.6377
C60_14 C 0.07648(9) 0.73967(8) 0.66737(16)
H36_14 H 0.0902 0.7380 0.6703
C61_14 C 0.06272(13) 0.74232(7) 0.68289(10)
C62_14 C 0.04386(12) 0.74472(8) 0.67803(11)
H37_14 H 0.0342 0.7464 0.6882
C63_14 C 0.03795(8) 0.74479(8) 0.65880(15)
H38_14 H 0.0242 0.7466 0.6560
C64_14 C 0.07004(11) 0.74108(8) 0.70339(11)
O1_14 O 0.89370(6) 0.69677(5) 0.52087(5)
O2_14 O 0.91771(6) 0.67331(6) 0.51998(5)
O3_14 O 0.91210(7) 0.73596(5) 0.70685(5)
O4_14 O 0.94200(6) 0.74569(5) 0.71669(6)
O5_14 O 0.76673(6) 0.73816(5) 0.39501(7)
O6_14 O 0.75683(7) 0.72830(5) 0.42558(5)
O7_14 O 0.86407(5) 0.66851(5) 0.48013(6)
O8_14 O 0.88806(5) 0.64544(7) 0.47993(6)
O9_14 O 0.85463(6) 0.70839(6) 0.5000
O10_14 O 0.92707(8) 0.63383(8) 0.5000
O11_14 O 0.87181(7) 0.72420(6) 0.72420(6)
O12_14 O 0.96579(6) 0.75407(5) 0.75407(5)
C1_14 C 0.90961(10) 0.68818(11) 0.52675(7)
C2_14 C 0.92086(13) 0.69949(9) 0.54299(9)
C3_14 C 0.91152(8) 0.71292(11) 0.55585(12)
H1_14 H 0.8977 0.7154 0.5544
C4_14 C 0.92188(13) 0.72243(8) 0.57041(9)
H2_14 H 0.9151 0.7315 0.5789
C5_14 C 0.94232(12) 0.71915(11) 0.57311(10)
C6_14 C 0.95111(9) 0.70669(12) 0.56006(13)
H3_14 H 0.9651 0.7049 0.5609
C7_14 C 0.94101(14) 0.69647(9) 0.54573(10)
H4_14 H 0.9479 0.6872 0.5376
C8_14 C 0.95368(11) 0.73043(8) 0.58917(12)
C9_14 C 0.94647(9) 0.73170(10) 0.60845(13)
H5_14 H 0.9343 0.7254 0.6118
C10_14 C 0.95695(10) 0.74224(8) 0.62306(12)
C11_14 C 0.97346(11) 0.75092(8) 0.61715(9)
H6_14 H 0.9804 0.7583 0.6270
C12_14 C 0.98218(9) 0.75059(8) 0.59782(11)
C13_14 C 0.97203(10) 0.74016(10) 0.58438(10)
H7_14 H 0.9771 0.7391 0.5712
C14_28 C 1.0000 0.76055(10) 0.59172(9)
H8_28 H 1.0000 0.7742 0.5973
H9_28 H 1.0000 0.7617 0.5771
C15_14 C 0.94927(12) 0.74239(8) 0.64316(11)
C16_14 C 0.92983(13) 0.73949(8) 0.64802(12)
H10_14 H 0.9204 0.7373 0.6377
C17_14 C 0.92352(9) 0.73967(8) 0.66737(16)
H11_14 H 0.9098 0.7380 0.6703
C18_14 C 0.93728(13) 0.74232(7) 0.68289(10)
C19_14 C 0.95614(12) 0.74472(8) 0.67803(11)
H12_14 H 0.9658 0.7464 0.6882
C20_14 C 0.96205(8) 0.74479(8) 0.65880(15)
H13_14 H 0.9758 0.7466 0.6560
C21_14 C 0.92996(11) 0.74108(8) 0.70339(11)
C22_14 C 0.76126(14) 0.72545(8) 0.40751(10)
C23_14 C 0.76150(12) 0.70426(9) 0.40114(13)
C24_14 C 0.76873(13) 0.69907(9) 0.38232(12)
H14_14 H 0.7735 0.7092 0.3738
C25_14 C 0.76909(9) 0.67947(10) 0.37581(15)
H15_14 H 0.7741 0.6763 0.3630
C26_14 C 0.76208(13) 0.66451(9) 0.38808(11)
C27_14 C 0.75543(12) 0.66945(8) 0.40699(12)
H16_14 H 0.7511 0.6593 0.4158
C28_14 C 0.75514(10) 0.68943(8) 0.41314(14)
H17_14 H 0.7504 0.6926 0.4260
C29_14 C 0.76279(9) 0.64264(7) 0.38261(11)
C30_14 C 0.76161(8) 0.63707(10) 0.36293(8)
H18_14 H 0.7600 0.6470 0.3530
C31_14 C 0.76573(9) 0.62773(7) 0.39686(12)
H19_14 H 0.7666 0.6314 0.4105
C32_14 C 0.76743(12) 0.60808(11) 0.39192(12)
C33_14 C 0.77276(10) 0.59287(14) 0.40713(10)
H20_14 H 0.7670 0.5799 0.4033
H21_14 H 0.7670 0.5967 0.4201
C34_14 C 0.79488(7) 0.59085(14) 0.40915(7)
C35_14 C 0.80552(7) 0.60340(13) 0.42144(7)
H22_14 H 0.7985 0.6126 0.4295
C36_14 C 0.82597(10) 0.60304(11) 0.42235(10)
C37_14 C 0.83555(9) 0.59041(14) 0.40959(9)
H23_14 H 0.8497 0.5905 0.4095
C38_14 C 0.83654(10) 0.61556(11) 0.43552(12)
C39_14 C 0.85400(11) 0.60930(14) 0.44372(9)
H24_14 H 0.8586 0.5962 0.4410
C40_14 C 0.86516(10) 0.62150(8) 0.45587(15)
H25_14 H 0.8775 0.6168 0.4609
C41_14 C 0.85864(10) 0.64068(13) 0.46090(11)
C42_14 C 0.84120(10) 0.64693(12) 0.45345(9)
H26_14 H 0.8361 0.6597 0.4566
C43_14 C 0.83073(10) 0.63407(8) 0.44104(15)
H27_14 H 0.8184 0.6387 0.4360
C44_14 C 0.87158(8) 0.65282(11) 0.47454(11)
Cu11_14 Cu 0.766207(9) 0.599146(12) 0.233793(9)
Cu14_14 Cu 0.754706(8) 0.563531(11) 0.245294(8)
O21_14 O 0.76673(6) 0.60499(7) 0.26184(5)
O22_14 O 0.89501(7) 0.73327(6) 0.76184(5)
O23_14 O 0.89501(7) 0.76184(5) 0.73327(6)
O24_14 O 0.75683(7) 0.57442(5) 0.27170(5)
O25_14 O 0.92558(5) 0.74317(7) 0.77170(5)
O26_14 O 0.92558(5) 0.77170(5) 0.74317(7)
C65_14 C 0.76126(14) 0.59249(10) 0.27455(8)
C66_14 C 0.76150(12) 0.59886(13) 0.29574(9)
C67_14 C 0.76873(13) 0.61768(12) 0.30093(9)
H39_14 H 0.7735 0.6262 0.2908
C68_14 C 0.76909(9) 0.62419(15) 0.32053(10)
H40_14 H 0.7741 0.6370 0.3237
C69_14 C 0.76208(13) 0.61192(11) 0.33549(9)
C70_14 C 0.75543(12) 0.59301(12) 0.33055(8)
H41_14 H 0.7511 0.5842 0.3407
C71_14 C 0.75514(10) 0.58686(14) 0.31057(8)
H42_14 H 0.7504 0.5740 0.3074
C72_14 C 0.76279(9) 0.61739(11) 0.35736(7)
C73_14 C 0.76573(9) 0.60314(12) 0.37227(7)
H43_14 H 0.7666 0.5895 0.3686
C74_14 C 0.80552(7) 0.57856(7) 0.39660(13)
H44_14 H 0.7985 0.5705 0.3874
C75_14 C 0.82597(10) 0.57765(10) 0.39696(11)
C76_14 C 0.83654(10) 0.56448(12) 0.38444(11)
C77_14 C 0.85400(11) 0.55628(9) 0.39070(14)
H45_14 H 0.8586 0.5590 0.4038
C78_14 C 0.86516(10) 0.54413(15) 0.37850(8)
H46_14 H 0.8775 0.5391 0.3832
C79_14 C 0.85864(10) 0.53910(11) 0.35932(13)
C80_14 C 0.84120(10) 0.54655(9) 0.35307(12)
H47_14 H 0.8361 0.5434 0.3403
C81_14 C 0.83073(10) 0.55896(15) 0.36593(8)
H48_14 H 0.8184 0.5640 0.3613
C82_14 C 0.87158(8) 0.52546(11) 0.34718(11)
O1_15 O 0.69677(5) 0.10630(6) 0.52087(5)
O2_15 O 0.67331(6) 0.08229(6) 0.51998(5)
O3_15 O 0.73596(5) 0.08790(7) 0.70685(5)
O4_15 O 0.74569(5) 0.05800(6) 0.71669(6)
O5_15 O 0.73816(5) 0.23327(6) 0.39501(7)
O6_15 O 0.72830(5) 0.24317(7) 0.42558(5)
O7_15 O 0.66851(5) 0.13593(5) 0.48013(6)
O8_15 O 0.64544(7) 0.11194(5) 0.47993(6)
O9_15 O 0.70839(6) 0.14537(6) 0.5000
O10_15 O 0.63383(8) 0.07293(8) 0.5000
O11_15 O 0.72420(6) 0.12819(7) 0.72420(6)
O12_15 O 0.75407(5) 0.03421(6) 0.75407(5)
C1_15 C 0.68818(11) 0.09039(10) 0.52675(7)
C2_15 C 0.69949(9) 0.07914(13) 0.54299(9)
C3_15 C 0.71292(11) 0.08848(8) 0.55585(12)
H1_15 H 0.7154 0.1023 0.5544
C4_15 C 0.72243(8) 0.07812(13) 0.57041(9)
H2_15 H 0.7315 0.0849 0.5789
C5_15 C 0.71915(11) 0.05768(12) 0.57311(10)
C6_15 C 0.70669(12) 0.04889(9) 0.56006(13)
H3_15 H 0.7049 0.0349 0.5609
C7_15 C 0.69647(9) 0.05899(14) 0.54573(10)
H4_15 H 0.6872 0.0521 0.5376
C8_15 C 0.73043(8) 0.04632(11) 0.58917(12)
C9_15 C 0.73170(10) 0.05353(9) 0.60845(13)
H5_15 H 0.7254 0.0657 0.6118
C10_15 C 0.74224(8) 0.04305(10) 0.62306(12)
C11_15 C 0.75092(8) 0.02654(11) 0.61715(9)
H6_15 H 0.7583 0.0196 0.6270
C12_15 C 0.75059(8) 0.01782(9) 0.59782(11)
C13_15 C 0.74016(10) 0.02797(10) 0.58438(10)
H7_15 H 0.7391 0.0229 0.5712
C14_29 C 0.76055(10) 0.0000 0.59172(9)
H8_29 H 0.7742 -0.0000 0.5973
H9_29 H 0.7617 0.0000 0.5771
C15_15 C 0.74239(8) 0.05073(12) 0.64316(11)
C16_15 C 0.73949(8) 0.07017(13) 0.64802(12)
H10_15 H 0.7373 0.0796 0.6377
C17_15 C 0.73967(8) 0.07648(9) 0.66737(16)
H11_15 H 0.7380 0.0902 0.6703
C18_15 C 0.74232(7) 0.06272(13) 0.68289(10)
C19_15 C 0.74472(8) 0.04386(12) 0.67803(11)
H12_15 H 0.7464 0.0342 0.6882
C20_15 C 0.74479(8) 0.03795(8) 0.65880(15)
H13_15 H 0.7466 0.0242 0.6560
C21_15 C 0.74108(8) 0.07004(11) 0.70339(11)
C22_15 C 0.72545(8) 0.23874(14) 0.40751(10)
C23_15 C 0.70426(9) 0.23850(12) 0.40114(13)
C24_15 C 0.69907(9) 0.23127(13) 0.38232(12)
H14_15 H 0.7092 0.2265 0.3738
C25_15 C 0.67947(10) 0.23091(9) 0.37581(15)
H15_15 H 0.6763 0.2259 0.3630
C26_15 C 0.66451(9) 0.23792(13) 0.38808(11)
C27_15 C 0.66945(8) 0.24457(12) 0.40699(12)
H16_15 H 0.6593 0.2489 0.4158
C28_15 C 0.68943(8) 0.24486(10) 0.41314(14)
H17_15 H 0.6926 0.2496 0.4260
C29_15 C 0.64264(7) 0.23721(9) 0.38261(11)
C30_15 C 0.63707(10) 0.23839(8) 0.36293(8)
H18_15 H 0.6470 0.2400 0.3530
C31_15 C 0.62773(7) 0.23427(9) 0.39686(12)
H19_15 H 0.6314 0.2334 0.4105
C32_15 C 0.60808(11) 0.23257(12) 0.39192(12)
C33_15 C 0.59287(14) 0.22724(10) 0.40713(10)
H20_15 H 0.5799 0.2330 0.4033
H21_15 H 0.5967 0.2330 0.4201
C34_15 C 0.59085(14) 0.20512(7) 0.40915(7)
C35_15 C 0.60340(13) 0.19448(7) 0.42144(7)
H22_15 H 0.6126 0.2015 0.4295
C36_15 C 0.60304(11) 0.17403(10) 0.42235(10)
C37_15 C 0.59041(14) 0.16445(9) 0.40959(9)
H23_15 H 0.5905 0.1503 0.4095
C38_15 C 0.61556(11) 0.16346(10) 0.43552(12)
C39_15 C 0.60930(14) 0.14600(11) 0.44372(9)
H24_15 H 0.5962 0.1414 0.4410
C40_15 C 0.62150(8) 0.13484(10) 0.45587(15)
H25_15 H 0.6168 0.1225 0.4609
C41_15 C 0.64068(13) 0.14136(10) 0.46090(11)
C42_15 C 0.64693(12) 0.15880(10) 0.45345(9)
H26_15 H 0.6597 0.1639 0.4566
C43_15 C 0.63407(8) 0.16927(10) 0.44104(15)
H27_15 H 0.6387 0.1816 0.4360
C44_15 C 0.65282(11) 0.12842(8) 0.47454(11)
Cu11_15 Cu 0.599146(12) 0.233793(9) 0.233793(9)
Cu14_15 Cu 0.563531(11) 0.245294(8) 0.245294(8)
O21_15 O 0.60499(7) 0.23327(6) 0.26184(5)
O22_15 O 0.73327(6) 0.10499(7) 0.76184(5)
O23_15 O 0.76184(5) 0.10499(7) 0.73327(6)
O24_15 O 0.57442(5) 0.24317(7) 0.27170(5)
O25_15 O 0.74317(7) 0.07442(5) 0.77170(5)
O26_15 O 0.77170(5) 0.07442(5) 0.74317(7)
C65_15 C 0.59249(10) 0.23874(14) 0.27455(8)
C66_15 C 0.59886(13) 0.23850(12) 0.29574(9)
C67_15 C 0.61768(12) 0.23127(13) 0.30093(9)
H39_15 H 0.6262 0.2265 0.2908
C68_15 C 0.62419(15) 0.23091(9) 0.32053(10)
H40_15 H 0.6370 0.2259 0.3237
C69_15 C 0.61192(11) 0.23792(13) 0.33549(9)
C70_15 C 0.59301(12) 0.24457(12) 0.33055(8)
H41_15 H 0.5842 0.2489 0.3407
C71_15 C 0.58686(14) 0.24486(10) 0.31057(8)
H42_15 H 0.5740 0.2496 0.3074
C72_15 C 0.61739(11) 0.23721(9) 0.35736(7)
C73_15 C 0.60314(12) 0.23427(9) 0.37227(7)
H43_15 H 0.5895 0.2334 0.3686
C74_15 C 0.57856(7) 0.19448(7) 0.39660(13)
H44_15 H 0.5705 0.2015 0.3874
C75_15 C 0.57765(10) 0.17403(10) 0.39696(11)
C76_15 C 0.56448(12) 0.16346(10) 0.38444(11)
C77_15 C 0.55628(9) 0.14600(11) 0.39070(14)
H45_15 H 0.5590 0.1414 0.4038
C78_15 C 0.54413(15) 0.13484(10) 0.37850(8)
H46_15 H 0.5391 0.1225 0.3832
C79_15 C 0.53910(11) 0.14136(10) 0.35932(13)
C80_15 C 0.54655(9) 0.15880(10) 0.35307(12)
H47_15 H 0.5434 0.1639 0.3403
C81_15 C 0.55896(15) 0.16927(10) 0.36593(8)
H48_15 H 0.5640 0.1816 0.3613
C82_15 C 0.52546(11) 0.12842(8) 0.34718(11)
C14_30 C 0.76055(10) 1.0000 0.59172(9)
H8_30 H 0.7742 1.0000 0.5973
H9_30 H 0.7617 1.0000 0.5771
C45_15 C 0.68818(11) 0.90961(10) 0.52675(7)
C46_15 C 0.69949(9) 0.92086(13) 0.54299(9)
C47_15 C 0.71292(11) 0.91152(8) 0.55585(12)
H28_15 H 0.7154 0.8977 0.5544
C48_15 C 0.72243(8) 0.92188(13) 0.57041(9)
H29_15 H 0.7315 0.9151 0.5789
C49_15 C 0.71915(11) 0.94232(12) 0.57311(10)
C50_15 C 0.70669(12) 0.95111(9) 0.56006(13)
H30_15 H 0.7049 0.9651 0.5609
C51_15 C 0.69647(9) 0.94101(14) 0.54573(10)
H31_15 H 0.6872 0.9479 0.5376
C52_15 C 0.73043(8) 0.95368(11) 0.58917(12)
C53_15 C 0.73170(10) 0.94647(9) 0.60845(13)
H32_15 H 0.7254 0.9343 0.6118
C54_15 C 0.74224(8) 0.95695(10) 0.62306(12)
C55_15 C 0.75092(8) 0.97346(11) 0.61715(9)
H33_15 H 0.7583 0.9804 0.6270
C56_15 C 0.75059(8) 0.98218(9) 0.59782(11)
C57_15 C 0.74016(10) 0.97203(10) 0.58438(10)
H34_15 H 0.7391 0.9771 0.5712
C58_15 C 0.74239(8) 0.94927(12) 0.64316(11)
C59_15 C 0.73949(8) 0.92983(13) 0.64802(12)
H35_15 H 0.7373 0.9204 0.6377
C60_15 C 0.73967(8) 0.92352(9) 0.66737(16)
H36_15 H 0.7380 0.9098 0.6703
C61_15 C 0.74232(7) 0.93728(13) 0.68289(10)
C62_15 C 0.74472(8) 0.95614(12) 0.67803(11)
H37_15 H 0.7464 0.9658 0.6882
C63_15 C 0.74479(8) 0.96205(8) 0.65880(15)
H38_15 H 0.7466 0.9758 0.6560
C64_15 C 0.74108(8) 0.92996(11) 0.70339(11)
O1_16 O 0.10630(6) 0.30323(5) 0.52087(5)
O2_16 O 0.08229(6) 0.32669(6) 0.51998(5)
O3_16 O 0.08790(7) 0.26404(5) 0.70685(5)
O4_16 O 0.05800(6) 0.25431(5) 0.71669(6)
O5_16 O 0.23327(6) 0.26184(5) 0.39501(7)
O6_16 O 0.24317(7) 0.27170(5) 0.42558(5)
O7_16 O 0.13593(5) 0.33149(5) 0.48013(6)
O8_16 O 0.11194(5) 0.35456(7) 0.47993(6)
O9_16 O 0.14537(6) 0.29161(6) 0.5000
O10_16 O 0.07293(8) 0.36617(8) 0.5000
O11_16 O 0.12819(7) 0.27580(6) 0.72420(6)
O12_16 O 0.03421(6) 0.24593(5) 0.75407(5)
C1_16 C 0.09039(10) 0.31182(11) 0.52675(7)
C2_16 C 0.07914(13) 0.30051(9) 0.54299(9)
C3_16 C 0.08848(8) 0.28708(11) 0.55585(12)
H1_16 H 0.1023 0.2846 0.5544
C4_16 C 0.07812(13) 0.27757(8) 0.57041(9)
H2_16 H 0.0849 0.2685 0.5789
C5_16 C 0.05768(12) 0.28085(11) 0.57311(10)
C6_16 C 0.04889(9) 0.29331(12) 0.56006(13)
H3_16 H 0.0349 0.2951 0.5609
C7_16 C 0.05899(14) 0.30353(9) 0.54573(10)
H4_16 H 0.0521 0.3128 0.5376
C8_16 C 0.04632(11) 0.26957(8) 0.58917(12)
C9_16 C 0.05353(9) 0.26830(10) 0.60845(13)
H5_16 H 0.0657 0.2746 0.6118
C10_16 C 0.04305(10) 0.25776(8) 0.62306(12)
C11_16 C 0.02654(11) 0.24908(8) 0.61715(9)
H6_16 H 0.0196 0.2417 0.6270
C12_16 C 0.01782(9) 0.24941(8) 0.59782(11)
C13_16 C 0.02797(10) 0.25984(10) 0.58438(10)
H7_16 H 0.0229 0.2609 0.5712
C14_31 C 0.0000 0.23945(10) 0.59172(9)
H8_31 H -0.0000 0.2258 0.5973
H9_31 H -0.0000 0.2383 0.5771
C15_16 C 0.05073(12) 0.25761(8) 0.64316(11)
C16_16 C 0.07017(13) 0.26051(8) 0.64802(12)
H10_16 H 0.0796 0.2627 0.6377
C17_16 C 0.07648(9) 0.26033(8) 0.66737(16)
H11_16 H 0.0902 0.2620 0.6703
C18_16 C 0.06272(13) 0.25768(7) 0.68289(10)
C19_16 C 0.04386(12) 0.25528(8) 0.67803(11)
H12_16 H 0.0342 0.2536 0.6882
C20_16 C 0.03795(8) 0.25521(8) 0.65880(15)
H13_16 H 0.0242 0.2534 0.6560
C21_16 C 0.07004(11) 0.25892(8) 0.70339(11)
C22_16 C 0.23874(14) 0.27455(8) 0.40751(10)
C23_16 C 0.23850(12) 0.29574(9) 0.40114(13)
C24_16 C 0.23127(13) 0.30093(9) 0.38232(12)
H14_16 H 0.2265 0.2908 0.3738
C25_16 C 0.23091(9) 0.32053(10) 0.37581(15)
H15_16 H 0.2259 0.3237 0.3630
C26_16 C 0.23792(13) 0.33549(9) 0.38808(11)
C27_16 C 0.24457(12) 0.33055(8) 0.40699(12)
H16_16 H 0.2489 0.3407 0.4158
C28_16 C 0.24486(10) 0.31057(8) 0.41314(14)
H17_16 H 0.2496 0.3074 0.4260
C29_16 C 0.23721(9) 0.35736(7) 0.38261(11)
C30_16 C 0.23839(8) 0.36293(10) 0.36293(8)
H18_16 H 0.2400 0.3530 0.3530
C31_16 C 0.23427(9) 0.37227(7) 0.39686(12)
H19_16 H 0.2334 0.3686 0.4105
C32_16 C 0.23257(12) 0.39192(11) 0.39192(12)
C33_16 C 0.22724(10) 0.40713(14) 0.40713(10)
H20_16 H 0.2330 0.4201 0.4033
H21_16 H 0.2330 0.4033 0.4201
C34_16 C 0.20512(7) 0.40915(14) 0.40915(7)
C35_16 C 0.19448(7) 0.39660(13) 0.42144(7)
H22_16 H 0.2015 0.3874 0.4295
C36_16 C 0.17403(10) 0.39696(11) 0.42235(10)
C37_16 C 0.16445(9) 0.40959(14) 0.40959(9)
H23_16 H 0.1503 0.4095 0.4095
C38_16 C 0.16346(10) 0.38444(11) 0.43552(12)
C39_16 C 0.14600(11) 0.39070(14) 0.44372(9)
H24_16 H 0.1414 0.4038 0.4410
C40_16 C 0.13484(10) 0.37850(8) 0.45587(15)
H25_16 H 0.1225 0.3832 0.4609
C41_16 C 0.14136(10) 0.35932(13) 0.46090(11)
C42_16 C 0.15880(10) 0.35307(12) 0.45345(9)
H26_16 H 0.1639 0.3403 0.4566
C43_16 C 0.16927(10) 0.36593(8) 0.44104(15)
H27_16 H 0.1816 0.3613 0.4360
C44_16 C 0.12842(8) 0.34718(11) 0.47454(11)
Cu11_16 Cu 0.233793(9) 0.400854(12) 0.233793(9)
Cu14_16 Cu 0.245294(8) 0.436469(11) 0.245294(8)
O21_16 O 0.23327(6) 0.39501(7) 0.26184(5)
O22_16 O 0.10499(7) 0.26673(6) 0.76184(5)
O23_16 O 0.10499(7) 0.23816(5) 0.73327(6)
O24_16 O 0.24317(7) 0.42558(5) 0.27170(5)
O25_16 O 0.07442(5) 0.25683(7) 0.77170(5)
O26_16 O 0.07442(5) 0.22830(5) 0.74317(7)
C65_16 C 0.23874(14) 0.40751(10) 0.27455(8)
C66_16 C 0.23850(12) 0.40114(13) 0.29574(9)
C67_16 C 0.23127(13) 0.38232(12) 0.30093(9)
H39_16 H 0.2265 0.3738 0.2908
C68_16 C 0.23091(9) 0.37581(15) 0.32053(10)
H40_16 H 0.2259 0.3630 0.3237
C69_16 C 0.23792(13) 0.38808(11) 0.33549(9)
C70_16 C 0.24457(12) 0.40699(12) 0.33055(8)
H41_16 H 0.2489 0.4158 0.3407
C71_16 C 0.24486(10) 0.41314(14) 0.31057(8)
H42_16 H 0.2496 0.4260 0.3074
C72_16 C 0.23721(9) 0.38261(11) 0.35736(7)
C73_16 C 0.23427(9) 0.39686(12) 0.37227(7)
H43_16 H 0.2334 0.4105 0.3686
C74_16 C 0.19448(7) 0.42144(7) 0.39660(13)
H44_16 H 0.2015 0.4295 0.3874
C75_16 C 0.17403(10) 0.42235(10) 0.39696(11)
C76_16 C 0.16346(10) 0.43552(12) 0.38444(11)
C77_16 C 0.14600(11) 0.44372(9) 0.39070(14)
H45_16 H 0.1414 0.4410 0.4038
C78_16 C 0.13484(10) 0.45587(15) 0.37850(8)
H46_16 H 0.1225 0.4609 0.3832
C79_16 C 0.14136(10) 0.46090(11) 0.35932(13)
C80_16 C 0.15880(10) 0.45345(9) 0.35307(12)
H47_16 H 0.1639 0.4566 0.3403
C81_16 C 0.16927(10) 0.44104(15) 0.36593(8)
H48_16 H 0.1816 0.4360 0.3613
C82_16 C 0.12842(8) 0.47454(11) 0.34718(11)
C14_32 C 1.0000 0.23945(10) 0.59172(9)
H8_32 H 1.0000 0.2258 0.5973
H9_32 H 1.0000 0.2383 0.5771
C45_16 C 0.90961(10) 0.31182(11) 0.52675(7)
C46_16 C 0.92086(13) 0.30051(9) 0.54299(9)
C47_16 C 0.91152(8) 0.28708(11) 0.55585(12)
H28_16 H 0.8977 0.2846 0.5544
C48_16 C 0.92188(13) 0.27757(8) 0.57041(9)
H29_16 H 0.9151 0.2685 0.5789
C49_16 C 0.94232(12) 0.28085(11) 0.57311(10)
C50_16 C 0.95111(9) 0.29331(12) 0.56006(13)
H30_16 H 0.9651 0.2951 0.5609
C51_16 C 0.94101(14) 0.30353(9) 0.54573(10)
H31_16 H 0.9479 0.3128 0.5376
C52_16 C 0.95368(11) 0.26957(8) 0.58917(12)
C53_16 C 0.94647(9) 0.26830(10) 0.60845(13)
H32_16 H 0.9343 0.2746 0.6118
C54_16 C 0.95695(10) 0.25776(8) 0.62306(12)
C55_16 C 0.97346(11) 0.24908(8) 0.61715(9)
H33_16 H 0.9804 0.2417 0.6270
C56_16 C 0.98218(9) 0.24941(8) 0.59782(11)
C57_16 C 0.97203(10) 0.25984(10) 0.58438(10)
H34_16 H 0.9771 0.2609 0.5712
C58_16 C 0.94927(12) 0.25761(8) 0.64316(11)
C59_16 C 0.92983(13) 0.26051(8) 0.64802(12)
H35_16 H 0.9204 0.2627 0.6377
C60_16 C 0.92352(9) 0.26033(8) 0.66737(16)
H36_16 H 0.9098 0.2620 0.6703
C61_16 C 0.93728(13) 0.25768(7) 0.68289(10)
C62_16 C 0.95614(12) 0.25528(8) 0.67803(11)
H37_16 H 0.9658 0.2536 0.6882
C63_16 C 0.96205(8) 0.25521(8) 0.65880(15)
H38_16 H 0.9758 0.2534 0.6560
C64_16 C 0.92996(11) 0.25892(8) 0.70339(11)
Cu1_4 Cu 0.5000 0.314840(12) 0.122880(12)
Cu2_4 Cu 0.5000 0.342426(12) 0.095250(12)
Cu3_9 Cu 0.266207(9) 0.266207(9) 0.099146(12)
Cu4_9 Cu 0.254706(8) 0.254706(8) 0.063531(11)
O1_17 O 0.47913(5) 0.30323(5) 0.10630(6)
O2_17 O 0.48002(5) 0.32669(6) 0.08229(6)
O3_17 O 0.29315(5) 0.26404(5) 0.08790(7)
O4_17 O 0.28331(6) 0.25431(5) 0.05800(6)
O5_17 O 0.60499(7) 0.26184(5) 0.23327(6)
O6_17 O 0.57442(5) 0.27170(5) 0.24317(7)
O7_17 O 0.51987(6) 0.33149(5) 0.13593(5)
O8_17 O 0.52007(6) 0.35456(7) 0.11194(5)
O9_17 O 0.5000 0.29161(6) 0.14537(6)
O10_17 O 0.5000 0.36617(8) 0.07293(8)
O11_17 O 0.27580(6) 0.27580(6) 0.12819(7)
O12_17 O 0.24593(5) 0.24593(5) 0.03421(6)
C1_17 C 0.47325(7) 0.31182(11) 0.09039(10)
C2_17 C 0.45701(9) 0.30051(9) 0.07914(13)
C3_17 C 0.44415(12) 0.28708(11) 0.08848(8)
H1_17 H 0.4456 0.2846 0.1023
C4_17 C 0.42959(9) 0.27757(8) 0.07812(13)
H2_17 H 0.4211 0.2685 0.0849
C5_17 C 0.42689(10) 0.28085(11) 0.05768(12)
C6_17 C 0.43994(13) 0.29331(12) 0.04889(9)
H3_17 H 0.4391 0.2951 0.0349
C7_17 C 0.45427(10) 0.30353(9) 0.05899(14)
H4_17 H 0.4624 0.3128 0.0521
C8_17 C 0.41083(12) 0.26957(8) 0.04632(11)
C9_17 C 0.39155(13) 0.26830(10) 0.05353(9)
H5_17 H 0.3882 0.2746 0.0657
C10_17 C 0.37694(12) 0.25776(8) 0.04305(10)
C11_17 C 0.38285(9) 0.24908(8) 0.02654(11)
H6_17 H 0.3730 0.2417 0.0196
C12_17 C 0.40218(11) 0.24941(8) 0.01782(9)
C13_17 C 0.41562(10) 0.25984(10) 0.02797(10)
H7_17 H 0.4288 0.2609 0.0229
C14_33 C 0.40828(9) 0.23945(10) 0.0000
H8_33 H 0.4027 0.2258 -0.0000
H9_33 H 0.4229 0.2383 0.0000
C15_17 C 0.35684(11) 0.25761(8) 0.05073(12)
C16_17 C 0.35198(12) 0.26051(8) 0.07017(13)
H10_17 H 0.3623 0.2627 0.0796
C17_17 C 0.33263(16) 0.26033(8) 0.07648(9)
H11_17 H 0.3297 0.2620 0.0902
C18_17 C 0.31711(10) 0.25768(7) 0.06272(13)
C19_17 C 0.32197(11) 0.25528(8) 0.04386(12)
H12_17 H 0.3118 0.2536 0.0342
C20_17 C 0.34120(15) 0.25521(8) 0.03795(8)
H13_17 H 0.3440 0.2534 0.0242
C21_17 C 0.29661(11) 0.25892(8) 0.07004(11)
C22_17 C 0.59249(10) 0.27455(8) 0.23874(14)
C23_17 C 0.59886(13) 0.29574(9) 0.23850(12)
C24_17 C 0.61768(12) 0.30093(9) 0.23127(13)
H14_17 H 0.6262 0.2908 0.2265
C25_17 C 0.62419(15) 0.32053(10) 0.23091(9)
H15_17 H 0.6370 0.3237 0.2259
C26_17 C 0.61192(11) 0.33549(9) 0.23792(13)
C27_17 C 0.59301(12) 0.33055(8) 0.24457(12)
H16_17 H 0.5842 0.3407 0.2489
C28_17 C 0.58686(14) 0.31057(8) 0.24486(10)
H17_17 H 0.5740 0.3074 0.2496
C29_17 C 0.61739(11) 0.35736(7) 0.23721(9)
C30_17 C 0.63707(8) 0.36293(10) 0.23839(8)
H18_17 H 0.6470 0.3530 0.2400
C31_17 C 0.60314(12) 0.37227(7) 0.23427(9)
H19_17 H 0.5895 0.3686 0.2334
C32_17 C 0.60808(12) 0.39192(11) 0.23257(12)
C33_17 C 0.59287(10) 0.40713(14) 0.22724(10)
H20_17 H 0.5967 0.4201 0.2330
H21_17 H 0.5799 0.4033 0.2330
C34_17 C 0.59085(7) 0.40915(14) 0.20512(7)
C35_17 C 0.57856(7) 0.39660(13) 0.19448(7)
H22_17 H 0.5705 0.3874 0.2015
C36_17 C 0.57765(10) 0.39696(11) 0.17403(10)
C37_17 C 0.59041(9) 0.40959(14) 0.16445(9)
H23_17 H 0.5905 0.4095 0.1503
C38_17 C 0.56448(12) 0.38444(11) 0.16346(10)
C39_17 C 0.55628(9) 0.39070(14) 0.14600(11)
H24_17 H 0.5590 0.4038 0.1414
C40_17 C 0.54413(15) 0.37850(8) 0.13484(10)
H25_17 H 0.5391 0.3832 0.1225
C41_17 C 0.53910(11) 0.35932(13) 0.14136(10)
C42_17 C 0.54655(9) 0.35307(12) 0.15880(10)
H26_17 H 0.5434 0.3403 0.1639
C43_17 C 0.55896(15) 0.36593(8) 0.16927(10)
H27_17 H 0.5640 0.3613 0.1816
C44_17 C 0.52546(11) 0.34718(11) 0.12842(8)
Cu6_9 Cu 0.685160(12) 0.5000 0.122880(12)
Cu8_9 Cu 0.657574(12) 0.5000 0.095250(12)
O14_9 O 0.52087(5) 0.30323(5) 0.10630(6)
O16_9 O 0.51998(5) 0.32669(6) 0.08229(6)
O18_9 O 0.26404(5) 0.29315(5) 0.08790(7)
O20_9 O 0.25431(5) 0.28331(6) 0.05800(6)
O21_17 O 0.73816(5) 0.39501(7) 0.23327(6)
O22_17 O 0.23816(5) 0.26673(6) 0.10499(7)
O23_17 O 0.26673(6) 0.23816(5) 0.10499(7)
O24_17 O 0.72830(5) 0.42558(5) 0.24317(7)
O25_17 O 0.22830(5) 0.25683(7) 0.07442(5)
O26_17 O 0.25683(7) 0.22830(5) 0.07442(5)
O27_12 O 0.66851(5) 0.48013(6) 0.13593(5)
O28_6 O 0.48013(6) 0.33149(5) 0.13593(5)
O29_12 O 0.64544(7) 0.47993(6) 0.11194(5)
O30_6 O 0.47993(6) 0.35456(7) 0.11194(5)
C65_17 C 0.72545(8) 0.40751(10) 0.23874(14)
C66_17 C 0.70426(9) 0.40114(13) 0.23850(12)
C67_17 C 0.69907(9) 0.38232(12) 0.23127(13)
H39_17 H 0.7092 0.3738 0.2265
C68_17 C 0.67947(10) 0.37581(15) 0.23091(9)
H40_17 H 0.6763 0.3630 0.2259
C69_17 C 0.66451(9) 0.38808(11) 0.23792(13)
C70_17 C 0.66945(8) 0.40699(12) 0.24457(12)
H41_17 H 0.6593 0.4158 0.2489
C71_17 C 0.68943(8) 0.41314(14) 0.24486(10)
H42_17 H 0.6926 0.4260 0.2496
C72_17 C 0.64264(7) 0.38261(11) 0.23721(9)
C73_17 C 0.62773(7) 0.39686(12) 0.23427(9)
H43_17 H 0.6314 0.4105 0.2334
C74_17 C 0.60340(13) 0.42144(7) 0.19448(7)
H44_17 H 0.6126 0.4295 0.2015
C75_17 C 0.60304(11) 0.42235(10) 0.17403(10)
C76_17 C 0.61556(11) 0.43552(12) 0.16346(10)
C77_17 C 0.60930(14) 0.44372(9) 0.14600(11)
H45_17 H 0.5962 0.4410 0.1414
C78_17 C 0.62150(8) 0.45587(15) 0.13484(10)
H46_17 H 0.6168 0.4609 0.1225
C79_17 C 0.64068(13) 0.46090(11) 0.14136(10)
C80_17 C 0.64693(12) 0.45345(9) 0.15880(10)
H47_17 H 0.6597 0.4566 0.1639
C81_17 C 0.63407(8) 0.44104(15) 0.16927(10)
H48_17 H 0.6387 0.4360 0.1816
C82_17 C 0.65282(11) 0.47454(11) 0.12842(8)
C14_34 C 0.40828(9) 0.23945(10) 1.0000
H8_34 H 0.4027 0.2258 1.0000
H9_34 H 0.4229 0.2383 1.0000
Cu5_6 Cu 0.5000 0.314840(12) 0.877120(12)
Cu7_6 Cu 0.5000 0.342426(12) 0.904750(12)
Cu10_9 Cu 0.266207(9) 0.266207(9) 0.900854(12)
Cu13_9 Cu 0.254706(8) 0.254706(8) 0.936469(11)
O13_9 O 0.47913(5) 0.30323(5) 0.89370(6)
O15_9 O 0.48002(5) 0.32669(6) 0.91771(6)
O17_9 O 0.29315(5) 0.26404(5) 0.91210(7)
O19_9 O 0.28331(6) 0.25431(5) 0.94200(6)
C45_17 C 0.47325(7) 0.31182(11) 0.90961(10)
C46_17 C 0.45701(9) 0.30051(9) 0.92086(13)
C47_17 C 0.44415(12) 0.28708(11) 0.91152(8)
H28_17 H 0.4456 0.2846 0.8977
C48_17 C 0.42959(9) 0.27757(8) 0.92188(13)
H29_17 H 0.4211 0.2685 0.9151
C49_17 C 0.42689(10) 0.28085(11) 0.94232(12)
C50_17 C 0.43994(13) 0.29331(12) 0.95111(9)
H30_17 H 0.4391 0.2951 0.9651
C51_17 C 0.45427(10) 0.30353(9) 0.94101(14)
H31_17 H 0.4624 0.3128 0.9479
C52_17 C 0.41083(12) 0.26957(8) 0.95368(11)
C53_17 C 0.39155(13) 0.26830(10) 0.94647(9)
H32_17 H 0.3882 0.2746 0.9343
C54_17 C 0.37694(12) 0.25776(8) 0.95695(10)
C55_17 C 0.38285(9) 0.24908(8) 0.97346(11)
H33_17 H 0.3730 0.2417 0.9804
C56_17 C 0.40218(11) 0.24941(8) 0.98218(9)
C57_17 C 0.41562(10) 0.25984(10) 0.97203(10)
H34_17 H 0.4288 0.2609 0.9771
C58_17 C 0.35684(11) 0.25761(8) 0.94927(12)
C59_17 C 0.35198(12) 0.26051(8) 0.92983(13)
H35_17 H 0.3623 0.2627 0.9204
C60_17 C 0.33263(16) 0.26033(8) 0.92352(9)
H36_17 H 0.3297 0.2620 0.9098
C61_17 C 0.31711(10) 0.25768(7) 0.93728(13)
C62_17 C 0.32197(11) 0.25528(8) 0.95614(12)
H37_17 H 0.3118 0.2536 0.9658
C63_17 C 0.34120(15) 0.25521(8) 0.96205(8)
H38_17 H 0.3440 0.2534 0.9758
C64_17 C 0.29661(11) 0.25892(8) 0.92996(11)
Cu1_5 Cu 0.314840(12) 0.5000 0.122880(12)
Cu2_5 Cu 0.342426(12) 0.5000 0.095250(12)
Cu3_10 Cu 0.266207(9) 0.733793(9) 0.099146(12)
Cu4_10 Cu 0.254706(8) 0.745294(8) 0.063531(11)
O1_18 O 0.30323(5) 0.52087(5) 0.10630(6)
O2_18 O 0.32669(6) 0.51998(5) 0.08229(6)
O3_18 O 0.26404(5) 0.70685(5) 0.08790(7)
O4_18 O 0.25431(5) 0.71669(6) 0.05800(6)
O5_18 O 0.26184(5) 0.39501(7) 0.23327(6)
O6_18 O 0.27170(5) 0.42558(5) 0.24317(7)
O7_18 O 0.33149(5) 0.48013(6) 0.13593(5)
O8_18 O 0.35456(7) 0.47993(6) 0.11194(5)
O9_18 O 0.29161(6) 0.5000 0.14537(6)
O10_18 O 0.36617(8) 0.5000 0.07293(8)
O11_18 O 0.27580(6) 0.72420(6) 0.12819(7)
O12_18 O 0.24593(5) 0.75407(5) 0.03421(6)
C1_18 C 0.31182(11) 0.52675(7) 0.09039(10)
C2_18 C 0.30051(9) 0.54299(9) 0.07914(13)
C3_18 C 0.28708(11) 0.55585(12) 0.08848(8)
H1_18 H 0.2846 0.5544 0.1023
C4_18 C 0.27757(8) 0.57041(9) 0.07812(13)
H2_18 H 0.2685 0.5789 0.0849
C5_18 C 0.28085(11) 0.57311(10) 0.05768(12)
C6_18 C 0.29331(12) 0.56006(13) 0.04889(9)
H3_18 H 0.2951 0.5609 0.0349
C7_18 C 0.30353(9) 0.54573(10) 0.05899(14)
H4_18 H 0.3128 0.5376 0.0521
C8_18 C 0.26957(8) 0.58917(12) 0.04632(11)
C9_18 C 0.26830(10) 0.60845(13) 0.05353(9)
H5_18 H 0.2746 0.6118 0.0657
C10_18 C 0.25776(8) 0.62306(12) 0.04305(10)
C11_18 C 0.24908(8) 0.61715(9) 0.02654(11)
H6_18 H 0.2417 0.6270 0.0196
C12_18 C 0.24941(8) 0.59782(11) 0.01782(9)
C13_18 C 0.25984(10) 0.58438(10) 0.02797(10)
H7_18 H 0.2609 0.5712 0.0229
C14_35 C 0.23945(10) 0.59172(9) 0.0000
H8_35 H 0.2258 0.5973 -0.0000
H9_35 H 0.2383 0.5771 0.0000
C15_18 C 0.25761(8) 0.64316(11) 0.05073(12)
C16_18 C 0.26051(8) 0.64802(12) 0.07017(13)
H10_18 H 0.2627 0.6377 0.0796
C17_18 C 0.26033(8) 0.66737(16) 0.07648(9)
H11_18 H 0.2620 0.6703 0.0902
C18_18 C 0.25768(7) 0.68289(10) 0.06272(13)
C19_18 C 0.25528(8) 0.67803(11) 0.04386(12)
H12_18 H 0.2536 0.6882 0.0342
C20_18 C 0.25521(8) 0.65880(15) 0.03795(8)
H13_18 H 0.2534 0.6560 0.0242
C21_18 C 0.25892(8) 0.70339(11) 0.07004(11)
C22_18 C 0.27455(8) 0.40751(10) 0.23874(14)
C23_18 C 0.29574(9) 0.40114(13) 0.23850(12)
C24_18 C 0.30093(9) 0.38232(12) 0.23127(13)
H14_18 H 0.2908 0.3738 0.2265
C25_18 C 0.32053(10) 0.37581(15) 0.23091(9)
H15_18 H 0.3237 0.3630 0.2259
C26_18 C 0.33549(9) 0.38808(11) 0.23792(13)
C27_18 C 0.33055(8) 0.40699(12) 0.24457(12)
H16_18 H 0.3407 0.4158 0.2489
C28_18 C 0.31057(8) 0.41314(14) 0.24486(10)
H17_18 H 0.3074 0.4260 0.2496
C29_18 C 0.35736(7) 0.38261(11) 0.23721(9)
C30_18 C 0.36293(10) 0.36293(8) 0.23839(8)
H18_18 H 0.3530 0.3530 0.2400
C31_18 C 0.37227(7) 0.39686(12) 0.23427(9)
H19_18 H 0.3686 0.4105 0.2334
C32_18 C 0.39192(11) 0.39192(12) 0.23257(12)
C33_18 C 0.40713(14) 0.40713(10) 0.22724(10)
H20_18 H 0.4201 0.4033 0.2330
H21_18 H 0.4033 0.4201 0.2330
C34_18 C 0.40915(14) 0.40915(7) 0.20512(7)
C35_18 C 0.39660(13) 0.42144(7) 0.19448(7)
H22_18 H 0.3874 0.4295 0.2015
C36_18 C 0.39696(11) 0.42235(10) 0.17403(10)
C37_18 C 0.40959(14) 0.40959(9) 0.16445(9)
H23_18 H 0.4095 0.4095 0.1503
C38_18 C 0.38444(11) 0.43552(12) 0.16346(10)
C39_18 C 0.39070(14) 0.44372(9) 0.14600(11)
H24_18 H 0.4038 0.4410 0.1414
C40_18 C 0.37850(8) 0.45587(15) 0.13484(10)
H25_18 H 0.3832 0.4609 0.1225
C41_18 C 0.35932(13) 0.46090(11) 0.14136(10)
C42_18 C 0.35307(12) 0.45345(9) 0.15880(10)
H26_18 H 0.3403 0.4566 0.1639
C43_18 C 0.36593(8) 0.44104(15) 0.16927(10)
H27_18 H 0.3613 0.4360 0.1816
C44_18 C 0.34718(11) 0.47454(11) 0.12842(8)
O14_10 O 0.30323(5) 0.47913(5) 0.10630(6)
O16_10 O 0.32669(6) 0.48002(5) 0.08229(6)
O18_10 O 0.29315(5) 0.73596(5) 0.08790(7)
O20_10 O 0.28331(6) 0.74569(5) 0.05800(6)
O21_18 O 0.39501(7) 0.26184(5) 0.23327(6)
O22_18 O 0.26673(6) 0.76184(5) 0.10499(7)
O23_18 O 0.23816(5) 0.73327(6) 0.10499(7)
O24_18 O 0.42558(5) 0.27170(5) 0.24317(7)
O25_18 O 0.25683(7) 0.77170(5) 0.07442(5)
O26_18 O 0.22830(5) 0.74317(7) 0.07442(5)
O28_7 O 0.33149(5) 0.51987(6) 0.13593(5)
O30_7 O 0.35456(7) 0.52007(6) 0.11194(5)
C65_18 C 0.40751(10) 0.27455(8) 0.23874(14)
C66_18 C 0.40114(13) 0.29574(9) 0.23850(12)
C67_18 C 0.38232(12) 0.30093(9) 0.23127(13)
H39_18 H 0.3738 0.2908 0.2265
C68_18 C 0.37581(15) 0.32053(10) 0.23091(9)
H40_18 H 0.3630 0.3237 0.2259
C69_18 C 0.38808(11) 0.33549(9) 0.23792(13)
C70_18 C 0.40699(12) 0.33055(8) 0.24457(12)
H41_18 H 0.4158 0.3407 0.2489
C71_18 C 0.41314(14) 0.31057(8) 0.24486(10)
H42_18 H 0.4260 0.3074 0.2496
C72_18 C 0.38261(11) 0.35736(7) 0.23721(9)
C73_18 C 0.39686(12) 0.37227(7) 0.23427(9)
H43_18 H 0.4105 0.3686 0.2334
C74_18 C 0.42144(7) 0.39660(13) 0.19448(7)
H44_18 H 0.4295 0.3874 0.2015
C75_18 C 0.42235(10) 0.39696(11) 0.17403(10)
C76_18 C 0.43552(12) 0.38444(11) 0.16346(10)
C77_18 C 0.44372(9) 0.39070(14) 0.14600(11)
H45_18 H 0.4410 0.4038 0.1414
C78_18 C 0.45587(15) 0.37850(8) 0.13484(10)
H46_18 H 0.4609 0.3832 0.1225
C79_18 C 0.46090(11) 0.35932(13) 0.14136(10)
C80_18 C 0.45345(9) 0.35307(12) 0.15880(10)
H47_18 H 0.4566 0.3403 0.1639
C81_18 C 0.44104(15) 0.36593(8) 0.16927(10)
H48_18 H 0.4360 0.3613 0.1816
C82_18 C 0.47454(11) 0.34718(11) 0.12842(8)
C14_36 C 0.23945(10) 0.59172(9) 1.0000
H8_36 H 0.2258 0.5973 1.0000
H9_36 H 0.2383 0.5771 1.0000
Cu5_7 Cu 0.314840(12) 0.5000 0.877120(12)
Cu7_7 Cu 0.342426(12) 0.5000 0.904750(12)
Cu10_10 Cu 0.266207(9) 0.733793(9) 0.900854(12)
Cu13_10 Cu 0.254706(8) 0.745294(8) 0.936469(11)
O13_10 O 0.30323(5) 0.52087(5) 0.89370(6)
O15_10 O 0.32669(6) 0.51998(5) 0.91771(6)
O17_10 O 0.26404(5) 0.70685(5) 0.91210(7)
O19_10 O 0.25431(5) 0.71669(6) 0.94200(6)
C45_18 C 0.31182(11) 0.52675(7) 0.90961(10)
C46_18 C 0.30051(9) 0.54299(9) 0.92086(13)
C47_18 C 0.28708(11) 0.55585(12) 0.91152(8)
H28_18 H 0.2846 0.5544 0.8977
C48_18 C 0.27757(8) 0.57041(9) 0.92188(13)
H29_18 H 0.2685 0.5789 0.9151
C49_18 C 0.28085(11) 0.57311(10) 0.94232(12)
C50_18 C 0.29331(12) 0.56006(13) 0.95111(9)
H30_18 H 0.2951 0.5609 0.9651
C51_18 C 0.30353(9) 0.54573(10) 0.94101(14)
H31_18 H 0.3128 0.5376 0.9479
C52_18 C 0.26957(8) 0.58917(12) 0.95368(11)
C53_18 C 0.26830(10) 0.60845(13) 0.94647(9)
H32_18 H 0.2746 0.6118 0.9343
C54_18 C 0.25776(8) 0.62306(12) 0.95695(10)
C55_18 C 0.24908(8) 0.61715(9) 0.97346(11)
H33_18 H 0.2417 0.6270 0.9804
C56_18 C 0.24941(8) 0.59782(11) 0.98218(9)
C57_18 C 0.25984(10) 0.58438(10) 0.97203(10)
H34_18 H 0.2609 0.5712 0.9771
C58_18 C 0.25761(8) 0.64316(11) 0.94927(12)
C59_18 C 0.26051(8) 0.64802(12) 0.92983(13)
H35_18 H 0.2627 0.6377 0.9204
C60_18 C 0.26033(8) 0.66737(16) 0.92352(9)
H36_18 H 0.2620 0.6703 0.9098
C61_18 C 0.25768(7) 0.68289(10) 0.93728(13)
C62_18 C 0.25528(8) 0.67803(11) 0.95614(12)
H37_18 H 0.2536 0.6882 0.9658
C63_18 C 0.25521(8) 0.65880(15) 0.96205(8)
H38_18 H 0.2534 0.6560 0.9758
C64_18 C 0.25892(8) 0.70339(11) 0.92996(11)
Cu3_11 Cu 0.733793(9) 0.266207(9) 0.099146(12)
Cu4_11 Cu 0.745294(8) 0.254706(8) 0.063531(11)
O1_19 O 0.69677(5) 0.47913(5) 0.10630(6)
O2_19 O 0.67331(6) 0.48002(5) 0.08229(6)
O3_19 O 0.73596(5) 0.29315(5) 0.08790(7)
O4_19 O 0.74569(5) 0.28331(6) 0.05800(6)
O5_19 O 0.73816(5) 0.60499(7) 0.23327(6)
O6_19 O 0.72830(5) 0.57442(5) 0.24317(7)
O7_19 O 0.66851(5) 0.51987(6) 0.13593(5)
O8_19 O 0.64544(7) 0.52007(6) 0.11194(5)
O9_19 O 0.70839(6) 0.5000 0.14537(6)
O10_19 O 0.63383(8) 0.5000 0.07293(8)
O11_19 O 0.72420(6) 0.27580(6) 0.12819(7)
O12_19 O 0.75407(5) 0.24593(5) 0.03421(6)
C1_19 C 0.68818(11) 0.47325(7) 0.09039(10)
C2_19 C 0.69949(9) 0.45701(9) 0.07914(13)
C3_19 C 0.71292(11) 0.44415(12) 0.08848(8)
H1_19 H 0.7154 0.4456 0.1023
C4_19 C 0.72243(8) 0.42959(9) 0.07812(13)
H2_19 H 0.7315 0.4211 0.0849
C5_19 C 0.71915(11) 0.42689(10) 0.05768(12)
C6_19 C 0.70669(12) 0.43994(13) 0.04889(9)
H3_19 H 0.7049 0.4391 0.0349
C7_19 C 0.69647(9) 0.45427(10) 0.05899(14)
H4_19 H 0.6872 0.4624 0.0521
C8_19 C 0.73043(8) 0.41083(12) 0.04632(11)
C9_19 C 0.73170(10) 0.39155(13) 0.05353(9)
H5_19 H 0.7254 0.3882 0.0657
C10_19 C 0.74224(8) 0.37694(12) 0.04305(10)
C11_19 C 0.75092(8) 0.38285(9) 0.02654(11)
H6_19 H 0.7583 0.3730 0.0196
C12_19 C 0.75059(8) 0.40218(11) 0.01782(9)
C13_19 C 0.74016(10) 0.41562(10) 0.02797(10)
H7_19 H 0.7391 0.4288 0.0229
C14_37 C 0.76055(10) 0.40828(9) 0.0000
H8_37 H 0.7742 0.4027 -0.0000
H9_37 H 0.7617 0.4229 0.0000
C15_19 C 0.74239(8) 0.35684(11) 0.05073(12)
C16_19 C 0.73949(8) 0.35198(12) 0.07017(13)
H10_19 H 0.7373 0.3623 0.0796
C17_19 C 0.73967(8) 0.33263(16) 0.07648(9)
H11_19 H 0.7380 0.3297 0.0902
C18_19 C 0.74232(7) 0.31711(10) 0.06272(13)
C19_19 C 0.74472(8) 0.32197(11) 0.04386(12)
H12_19 H 0.7464 0.3118 0.0342
C20_19 C 0.74479(8) 0.34120(15) 0.03795(8)
H13_19 H 0.7466 0.3440 0.0242
C21_19 C 0.74108(8) 0.29661(11) 0.07004(11)
C22_19 C 0.72545(8) 0.59249(10) 0.23874(14)
C23_19 C 0.70426(9) 0.59886(13) 0.23850(12)
C24_19 C 0.69907(9) 0.61768(12) 0.23127(13)
H14_19 H 0.7092 0.6262 0.2265
C25_19 C 0.67947(10) 0.62419(15) 0.23091(9)
H15_19 H 0.6763 0.6370 0.2259
C26_19 C 0.66451(9) 0.61192(11) 0.23792(13)
C27_19 C 0.66945(8) 0.59301(12) 0.24457(12)
H16_19 H 0.6593 0.5842 0.2489
C28_19 C 0.68943(8) 0.58686(14) 0.24486(10)
H17_19 H 0.6926 0.5740 0.2496
C29_19 C 0.64264(7) 0.61739(11) 0.23721(9)
C30_19 C 0.63707(10) 0.63707(8) 0.23839(8)
H18_19 H 0.6470 0.6470 0.2400
C31_19 C 0.62773(7) 0.60314(12) 0.23427(9)
H19_19 H 0.6314 0.5895 0.2334
C32_19 C 0.60808(11) 0.60808(12) 0.23257(12)
C33_19 C 0.59287(14) 0.59287(10) 0.22724(10)
H20_19 H 0.5799 0.5967 0.2330
H21_19 H 0.5967 0.5799 0.2330
C34_19 C 0.59085(14) 0.59085(7) 0.20512(7)
C35_19 C 0.60340(13) 0.57856(7) 0.19448(7)
H22_19 H 0.6126 0.5705 0.2015
C36_19 C 0.60304(11) 0.57765(10) 0.17403(10)
C37_19 C 0.59041(14) 0.59041(9) 0.16445(9)
H23_19 H 0.5905 0.5905 0.1503
C38_19 C 0.61556(11) 0.56448(12) 0.16346(10)
C39_19 C 0.60930(14) 0.55628(9) 0.14600(11)
H24_19 H 0.5962 0.5590 0.1414
C40_19 C 0.62150(8) 0.54413(15) 0.13484(10)
H25_19 H 0.6168 0.5391 0.1225
C41_19 C 0.64068(13) 0.53910(11) 0.14136(10)
C42_19 C 0.64693(12) 0.54655(9) 0.15880(10)
H26_19 H 0.6597 0.5434 0.1639
C43_19 C 0.63407(8) 0.55896(15) 0.16927(10)
H27_19 H 0.6387 0.5640 0.1816
C44_19 C 0.65282(11) 0.52546(11) 0.12842(8)
Cu6_10 Cu 0.5000 0.685160(12) 0.122880(12)
Cu8_10 Cu 0.5000 0.657574(12) 0.095250(12)
O14_11 O 0.69677(5) 0.52087(5) 0.10630(6)
O16_11 O 0.67331(6) 0.51998(5) 0.08229(6)
O18_11 O 0.70685(5) 0.26404(5) 0.08790(7)
O20_11 O 0.71669(6) 0.25431(5) 0.05800(6)
O21_19 O 0.60499(7) 0.73816(5) 0.23327(6)
O22_19 O 0.73327(6) 0.23816(5) 0.10499(7)
O23_19 O 0.76184(5) 0.26673(6) 0.10499(7)
O24_19 O 0.57442(5) 0.72830(5) 0.24317(7)
O25_19 O 0.74317(7) 0.22830(5) 0.07442(5)
O26_19 O 0.77170(5) 0.25683(7) 0.07442(5)
O27_13 O 0.51987(6) 0.66851(5) 0.13593(5)
O29_13 O 0.52007(6) 0.64544(7) 0.11194(5)
C65_19 C 0.59249(10) 0.72545(8) 0.23874(14)
C66_19 C 0.59886(13) 0.70426(9) 0.23850(12)
C67_19 C 0.61768(12) 0.69907(9) 0.23127(13)
H39_19 H 0.6262 0.7092 0.2265
C68_19 C 0.62419(15) 0.67947(10) 0.23091(9)
H40_19 H 0.6370 0.6763 0.2259
C69_19 C 0.61192(11) 0.66451(9) 0.23792(13)
C70_19 C 0.59301(12) 0.66945(8) 0.24457(12)
H41_19 H 0.5842 0.6593 0.2489
C71_19 C 0.58686(14) 0.68943(8) 0.24486(10)
H42_19 H 0.5740 0.6926 0.2496
C72_19 C 0.61739(11) 0.64264(7) 0.23721(9)
C73_19 C 0.60314(12) 0.62773(7) 0.23427(9)
H43_19 H 0.5895 0.6314 0.2334
C74_19 C 0.57856(7) 0.60340(13) 0.19448(7)
H44_19 H 0.5705 0.6126 0.2015
C75_19 C 0.57765(10) 0.60304(11) 0.17403(10)
C76_19 C 0.56448(12) 0.61556(11) 0.16346(10)
C77_19 C 0.55628(9) 0.60930(14) 0.14600(11)
H45_19 H 0.5590 0.5962 0.1414
C78_19 C 0.54413(15) 0.62150(8) 0.13484(10)
H46_19 H 0.5391 0.6168 0.1225
C79_19 C 0.53910(11) 0.64068(13) 0.14136(10)
C80_19 C 0.54655(9) 0.64693(12) 0.15880(10)
H47_19 H 0.5434 0.6597 0.1639
C81_19 C 0.55896(15) 0.63407(8) 0.16927(10)
H48_19 H 0.5640 0.6387 0.1816
C82_19 C 0.52546(11) 0.65282(11) 0.12842(8)
C14_38 C 0.76055(10) 0.40828(9) 1.0000
H8_38 H 0.7742 0.4027 1.0000
H9_38 H 0.7617 0.4229 1.0000
Cu5_8 Cu 0.685160(12) 0.5000 0.877120(12)
Cu7_8 Cu 0.657574(12) 0.5000 0.904750(12)
Cu10_11 Cu 0.733793(9) 0.266207(9) 0.900854(12)
Cu13_11 Cu 0.745294(8) 0.254706(8) 0.936469(11)
O13_11 O 0.69677(5) 0.47913(5) 0.89370(6)
O15_11 O 0.67331(6) 0.48002(5) 0.91771(6)
O17_11 O 0.73596(5) 0.29315(5) 0.91210(7)
O19_11 O 0.74569(5) 0.28331(6) 0.94200(6)
C45_19 C 0.68818(11) 0.47325(7) 0.90961(10)
C46_19 C 0.69949(9) 0.45701(9) 0.92086(13)
C47_19 C 0.71292(11) 0.44415(12) 0.91152(8)
H28_19 H 0.7154 0.4456 0.8977
C48_19 C 0.72243(8) 0.42959(9) 0.92188(13)
H29_19 H 0.7315 0.4211 0.9151
C49_19 C 0.71915(11) 0.42689(10) 0.94232(12)
C50_19 C 0.70669(12) 0.43994(13) 0.95111(9)
H30_19 H 0.7049 0.4391 0.9651
C51_19 C 0.69647(9) 0.45427(10) 0.94101(14)
H31_19 H 0.6872 0.4624 0.9479
C52_19 C 0.73043(8) 0.41083(12) 0.95368(11)
C53_19 C 0.73170(10) 0.39155(13) 0.94647(9)
H32_19 H 0.7254 0.3882 0.9343
C54_19 C 0.74224(8) 0.37694(12) 0.95695(10)
C55_19 C 0.75092(8) 0.38285(9) 0.97346(11)
H33_19 H 0.7583 0.3730 0.9804
C56_19 C 0.75059(8) 0.40218(11) 0.98218(9)
C57_19 C 0.74016(10) 0.41562(10) 0.97203(10)
H34_19 H 0.7391 0.4288 0.9771
C58_19 C 0.74239(8) 0.35684(11) 0.94927(12)
C59_19 C 0.73949(8) 0.35198(12) 0.92983(13)
H35_19 H 0.7373 0.3623 0.9204
C60_19 C 0.73967(8) 0.33263(16) 0.92352(9)
H36_19 H 0.7380 0.3297 0.9098
C61_19 C 0.74232(7) 0.31711(10) 0.93728(13)
C62_19 C 0.74472(8) 0.32197(11) 0.95614(12)
H37_19 H 0.7464 0.3118 0.9658
C63_19 C 0.74479(8) 0.34120(15) 0.96205(8)
H38_19 H 0.7466 0.3440 0.9758
C64_19 C 0.74108(8) 0.29661(11) 0.92996(11)
C14_39 C 0.23945(10) 0.40828(9) -0.0000
H8_39 H 0.2258 0.4027 0.0000
H9_39 H 0.2383 0.4229 -0.0000
C45_20 C 0.31182(11) 0.47325(7) 0.09039(10)
C46_20 C 0.30051(9) 0.45701(9) 0.07914(13)
C47_20 C 0.28708(11) 0.44415(12) 0.08848(8)
H28_20 H 0.2846 0.4456 0.1023
C48_20 C 0.27757(8) 0.42959(9) 0.07812(13)
H29_20 H 0.2685 0.4211 0.0849
C49_20 C 0.28085(11) 0.42689(10) 0.05768(12)
C50_20 C 0.29331(12) 0.43994(13) 0.04889(9)
H30_20 H 0.2951 0.4391 0.0349
C51_20 C 0.30353(9) 0.45427(10) 0.05899(14)
H31_20 H 0.3128 0.4624 0.0521
C52_20 C 0.26957(8) 0.41083(12) 0.04632(11)
C53_20 C 0.26830(10) 0.39155(13) 0.05353(9)
H32_20 H 0.2746 0.3882 0.0657
C54_20 C 0.25776(8) 0.37694(12) 0.04305(10)
C55_20 C 0.24908(8) 0.38285(9) 0.02654(11)
H33_20 H 0.2417 0.3730 0.0196
C56_20 C 0.24941(8) 0.40218(11) 0.01782(9)
C57_20 C 0.25984(10) 0.41562(10) 0.02797(10)
H34_20 H 0.2609 0.4288 0.0229
C58_20 C 0.25761(8) 0.35684(11) 0.05073(12)
C59_20 C 0.26051(8) 0.35198(12) 0.07017(13)
H35_20 H 0.2627 0.3623 0.0796
C60_20 C 0.26033(8) 0.33263(16) 0.07648(9)
H36_20 H 0.2620 0.3297 0.0902
C61_20 C 0.25768(7) 0.31711(10) 0.06272(13)
C62_20 C 0.25528(8) 0.32197(11) 0.04386(12)
H37_20 H 0.2536 0.3118 0.0342
C63_20 C 0.25521(8) 0.34120(15) 0.03795(8)
H38_20 H 0.2534 0.3440 0.0242
C64_20 C 0.25892(8) 0.29661(11) 0.07004(11)
O1_20 O 0.30323(5) 0.47913(5) 0.89370(6)
O2_20 O 0.32669(6) 0.48002(5) 0.91771(6)
O3_20 O 0.26404(5) 0.29315(5) 0.91210(7)
O4_20 O 0.25431(5) 0.28331(6) 0.94200(6)
O5_20 O 0.26184(5) 0.60499(7) 0.76673(6)
O6_20 O 0.27170(5) 0.57442(5) 0.75683(7)
O7_20 O 0.33149(5) 0.51987(6) 0.86407(5)
O8_20 O 0.35456(7) 0.52007(6) 0.88806(5)
O9_20 O 0.29161(6) 0.5000 0.85463(6)
O10_20 O 0.36617(8) 0.5000 0.92707(8)
O11_20 O 0.27580(6) 0.27580(6) 0.87181(7)
O12_20 O 0.24593(5) 0.24593(5) 0.96579(6)
C1_20 C 0.31182(11) 0.47325(7) 0.90961(10)
C2_20 C 0.30051(9) 0.45701(9) 0.92086(13)
C3_20 C 0.28708(11) 0.44415(12) 0.91152(8)
H1_20 H 0.2846 0.4456 0.8977
C4_20 C 0.27757(8) 0.42959(9) 0.92188(13)
H2_20 H 0.2685 0.4211 0.9151
C5_20 C 0.28085(11) 0.42689(10) 0.94232(12)
C6_20 C 0.29331(12) 0.43994(13) 0.95111(9)
H3_20 H 0.2951 0.4391 0.9651
C7_20 C 0.30353(9) 0.45427(10) 0.94101(14)
H4_20 H 0.3128 0.4624 0.9479
C8_20 C 0.26957(8) 0.41083(12) 0.95368(11)
C9_20 C 0.26830(10) 0.39155(13) 0.94647(9)
H5_20 H 0.2746 0.3882 0.9343
C10_20 C 0.25776(8) 0.37694(12) 0.95695(10)
C11_20 C 0.24908(8) 0.38285(9) 0.97346(11)
H6_20 H 0.2417 0.3730 0.9804
C12_20 C 0.24941(8) 0.40218(11) 0.98218(9)
C13_20 C 0.25984(10) 0.41562(10) 0.97203(10)
H7_20 H 0.2609 0.4288 0.9771
C14_40 C 0.23945(10) 0.40828(9) 1.0000
H8_40 H 0.2258 0.4027 1.0000
H9_40 H 0.2383 0.4229 1.0000
C15_20 C 0.25761(8) 0.35684(11) 0.94927(12)
C16_20 C 0.26051(8) 0.35198(12) 0.92983(13)
H10_20 H 0.2627 0.3623 0.9204
C17_20 C 0.26033(8) 0.33263(16) 0.92352(9)
H11_20 H 0.2620 0.3297 0.9098
C18_20 C 0.25768(7) 0.31711(10) 0.93728(13)
C19_20 C 0.25528(8) 0.32197(11) 0.95614(12)
H12_20 H 0.2536 0.3118 0.9658
C20_20 C 0.25521(8) 0.34120(15) 0.96205(8)
H13_20 H 0.2534 0.3440 0.9758
C21_20 C 0.25892(8) 0.29661(11) 0.92996(11)
C22_20 C 0.27455(8) 0.59249(10) 0.76126(14)
C23_20 C 0.29574(9) 0.59886(13) 0.76150(12)
C24_20 C 0.30093(9) 0.61768(12) 0.76873(13)
H14_20 H 0.2908 0.6262 0.7735
C25_20 C 0.32053(10) 0.62419(15) 0.76909(9)
H15_20 H 0.3237 0.6370 0.7741
C26_20 C 0.33549(9) 0.61192(11) 0.76208(13)
C27_20 C 0.33055(8) 0.59301(12) 0.75543(12)
H16_20 H 0.3407 0.5842 0.7511
C28_20 C 0.31057(8) 0.58686(14) 0.75514(10)
H17_20 H 0.3074 0.5740 0.7504
C29_20 C 0.35736(7) 0.61739(11) 0.76279(9)
C30_20 C 0.36293(10) 0.63707(8) 0.76161(8)
H18_20 H 0.3530 0.6470 0.7600
C31_20 C 0.37227(7) 0.60314(12) 0.76573(9)
H19_20 H 0.3686 0.5895 0.7666
C32_20 C 0.39192(11) 0.60808(12) 0.76743(12)
C33_20 C 0.40713(14) 0.59287(10) 0.77276(10)
H20_20 H 0.4201 0.5967 0.7670
H21_20 H 0.4033 0.5799 0.7670
C34_20 C 0.40915(14) 0.59085(7) 0.79488(7)
C35_20 C 0.39660(13) 0.57856(7) 0.80552(7)
H22_20 H 0.3874 0.5705 0.7985
C36_20 C 0.39696(11) 0.57765(10) 0.82597(10)
C37_20 C 0.40959(14) 0.59041(9) 0.83555(9)
H23_20 H 0.4095 0.5905 0.8497
C38_20 C 0.38444(11) 0.56448(12) 0.83654(10)
C39_20 C 0.39070(14) 0.55628(9) 0.85400(11)
H24_20 H 0.4038 0.5590 0.8586
C40_20 C 0.37850(8) 0.54413(15) 0.86516(10)
H25_20 H 0.3832 0.5391 0.8775
C41_20 C 0.35932(13) 0.53910(11) 0.85864(10)
C42_20 C 0.35307(12) 0.54655(9) 0.84120(10)
H26_20 H 0.3403 0.5434 0.8361
C43_20 C 0.36593(8) 0.55896(15) 0.83073(10)
H27_20 H 0.3613 0.5640 0.8184
C44_20 C 0.34718(11) 0.52546(11) 0.87158(8)
Cu6_11 Cu 0.5000 0.685160(12) 0.877120(12)
Cu8_11 Cu 0.5000 0.657574(12) 0.904750(12)
O21_20 O 0.39501(7) 0.73816(5) 0.76673(6)
O22_20 O 0.26673(6) 0.23816(5) 0.89501(7)
O23_20 O 0.23816(5) 0.26673(6) 0.89501(7)
O24_20 O 0.42558(5) 0.72830(5) 0.75683(7)
O25_20 O 0.25683(7) 0.22830(5) 0.92558(5)
O26_20 O 0.22830(5) 0.25683(7) 0.92558(5)
O27_14 O 0.48013(6) 0.66851(5) 0.86407(5)
O28_8 O 0.33149(5) 0.48013(6) 0.86407(5)
O29_14 O 0.47993(6) 0.64544(7) 0.88806(5)
O30_8 O 0.35456(7) 0.47993(6) 0.88806(5)
C65_20 C 0.40751(10) 0.72545(8) 0.76126(14)
C66_20 C 0.40114(13) 0.70426(9) 0.76150(12)
C67_20 C 0.38232(12) 0.69907(9) 0.76873(13)
H39_20 H 0.3738 0.7092 0.7735
C68_20 C 0.37581(15) 0.67947(10) 0.76909(9)
H40_20 H 0.3630 0.6763 0.7741
C69_20 C 0.38808(11) 0.66451(9) 0.76208(13)
C70_20 C 0.40699(12) 0.66945(8) 0.75543(12)
H41_20 H 0.4158 0.6593 0.7511
C71_20 C 0.41314(14) 0.68943(8) 0.75514(10)
H42_20 H 0.4260 0.6926 0.7504
C72_20 C 0.38261(11) 0.64264(7) 0.76279(9)
C73_20 C 0.39686(12) 0.62773(7) 0.76573(9)
H43_20 H 0.4105 0.6314 0.7666
C74_20 C 0.42144(7) 0.60340(13) 0.80552(7)
H44_20 H 0.4295 0.6126 0.7985
C75_20 C 0.42235(10) 0.60304(11) 0.82597(10)
C76_20 C 0.43552(12) 0.61556(11) 0.83654(10)
C77_20 C 0.44372(9) 0.60930(14) 0.85400(11)
H45_20 H 0.4410 0.5962 0.8586
C78_20 C 0.45587(15) 0.62150(8) 0.86516(10)
H46_20 H 0.4609 0.6168 0.8775
C79_20 C 0.46090(11) 0.64068(13) 0.85864(10)
C80_20 C 0.45345(9) 0.64693(12) 0.84120(10)
H47_20 H 0.4566 0.6597 0.8361
C81_20 C 0.44104(15) 0.63407(8) 0.83073(10)
H48_20 H 0.4360 0.6387 0.8184
C82_20 C 0.47454(11) 0.65282(11) 0.87158(8)
C14_41 C 0.40828(9) 0.76055(10) -0.0000
H8_41 H 0.4027 0.7742 0.0000
H9_41 H 0.4229 0.7617 -0.0000
O13_12 O 0.47913(5) 0.69677(5) 0.10630(6)
O15_12 O 0.48002(5) 0.67331(6) 0.08229(6)
C45_21 C 0.47325(7) 0.68818(11) 0.09039(10)
C46_21 C 0.45701(9) 0.69949(9) 0.07914(13)
C47_21 C 0.44415(12) 0.71292(11) 0.08848(8)
H28_21 H 0.4456 0.7154 0.1023
C48_21 C 0.42959(9) 0.72243(8) 0.07812(13)
H29_21 H 0.4211 0.7315 0.0849
C49_21 C 0.42689(10) 0.71915(11) 0.05768(12)
C50_21 C 0.43994(13) 0.70669(12) 0.04889(9)
H30_21 H 0.4391 0.7049 0.0349
C51_21 C 0.45427(10) 0.69647(9) 0.05899(14)
H31_21 H 0.4624 0.6872 0.0521
C52_21 C 0.41083(12) 0.73043(8) 0.04632(11)
C53_21 C 0.39155(13) 0.73170(10) 0.05353(9)
H32_21 H 0.3882 0.7254 0.0657
C54_21 C 0.37694(12) 0.74224(8) 0.04305(10)
C55_21 C 0.38285(9) 0.75092(8) 0.02654(11)
H33_21 H 0.3730 0.7583 0.0196
C56_21 C 0.40218(11) 0.75059(8) 0.01782(9)
C57_21 C 0.41562(10) 0.74016(10) 0.02797(10)
H34_21 H 0.4288 0.7391 0.0229
C58_21 C 0.35684(11) 0.74239(8) 0.05073(12)
C59_21 C 0.35198(12) 0.73949(8) 0.07017(13)
H35_21 H 0.3623 0.7373 0.0796
C60_21 C 0.33263(16) 0.73967(8) 0.07648(9)
H36_21 H 0.3297 0.7380 0.0902
C61_21 C 0.31711(10) 0.74232(7) 0.06272(13)
C62_21 C 0.32197(11) 0.74472(8) 0.04386(12)
H37_21 H 0.3118 0.7464 0.0342
C63_21 C 0.34120(15) 0.74479(8) 0.03795(8)
H38_21 H 0.3440 0.7466 0.0242
C64_21 C 0.29661(11) 0.74108(8) 0.07004(11)
O1_21 O 0.47913(5) 0.69677(5) 0.89370(6)
O2_21 O 0.48002(5) 0.67331(6) 0.91771(6)
O3_21 O 0.29315(5) 0.73596(5) 0.91210(7)
O4_21 O 0.28331(6) 0.74569(5) 0.94200(6)
O5_21 O 0.60499(7) 0.73816(5) 0.76673(6)
O6_21 O 0.57442(5) 0.72830(5) 0.75683(7)
O7_21 O 0.51987(6) 0.66851(5) 0.86407(5)
O8_21 O 0.52007(6) 0.64544(7) 0.88806(5)
O9_21 O 0.5000 0.70839(6) 0.85463(6)
O10_21 O 0.5000 0.63383(8) 0.92707(8)
O11_21 O 0.27580(6) 0.72420(6) 0.87181(7)
O12_21 O 0.24593(5) 0.75407(5) 0.96579(6)
C1_21 C 0.47325(7) 0.68818(11) 0.90961(10)
C2_21 C 0.45701(9) 0.69949(9) 0.92086(13)
C3_21 C 0.44415(12) 0.71292(11) 0.91152(8)
H1_21 H 0.4456 0.7154 0.8977
C4_21 C 0.42959(9) 0.72243(8) 0.92188(13)
H2_21 H 0.4211 0.7315 0.9151
C5_21 C 0.42689(10) 0.71915(11) 0.94232(12)
C6_21 C 0.43994(13) 0.70669(12) 0.95111(9)
H3_21 H 0.4391 0.7049 0.9651
C7_21 C 0.45427(10) 0.69647(9) 0.94101(14)
H4_21 H 0.4624 0.6872 0.9479
C8_21 C 0.41083(12) 0.73043(8) 0.95368(11)
C9_21 C 0.39155(13) 0.73170(10) 0.94647(9)
H5_21 H 0.3882 0.7254 0.9343
C10_21 C 0.37694(12) 0.74224(8) 0.95695(10)
C11_21 C 0.38285(9) 0.75092(8) 0.97346(11)
H6_21 H 0.3730 0.7583 0.9804
C12_21 C 0.40218(11) 0.75059(8) 0.98218(9)
C13_21 C 0.41562(10) 0.74016(10) 0.97203(10)
H7_21 H 0.4288 0.7391 0.9771
C14_42 C 0.40828(9) 0.76055(10) 1.0000
H8_42 H 0.4027 0.7742 1.0000
H9_42 H 0.4229 0.7617 1.0000
C15_21 C 0.35684(11) 0.74239(8) 0.94927(12)
C16_21 C 0.35198(12) 0.73949(8) 0.92983(13)
H10_21 H 0.3623 0.7373 0.9204
C17_21 C 0.33263(16) 0.73967(8) 0.92352(9)
H11_21 H 0.3297 0.7380 0.9098
C18_21 C 0.31711(10) 0.74232(7) 0.93728(13)
C19_21 C 0.32197(11) 0.74472(8) 0.95614(12)
H12_21 H 0.3118 0.7464 0.9658
C20_21 C 0.34120(15) 0.74479(8) 0.96205(8)
H13_21 H 0.3440 0.7466 0.9758
C21_21 C 0.29661(11) 0.74108(8) 0.92996(11)
C22_21 C 0.59249(10) 0.72545(8) 0.76126(14)
C23_21 C 0.59886(13) 0.70426(9) 0.76150(12)
C24_21 C 0.61768(12) 0.69907(9) 0.76873(13)
H14_21 H 0.6262 0.7092 0.7735
C25_21 C 0.62419(15) 0.67947(10) 0.76909(9)
H15_21 H 0.6370 0.6763 0.7741
C26_21 C 0.61192(11) 0.66451(9) 0.76208(13)
C27_21 C 0.59301(12) 0.66945(8) 0.75543(12)
H16_21 H 0.5842 0.6593 0.7511
C28_21 C 0.58686(14) 0.68943(8) 0.75514(10)
H17_21 H 0.5740 0.6926 0.7504
C29_21 C 0.61739(11) 0.64264(7) 0.76279(9)
C30_21 C 0.63707(8) 0.63707(10) 0.76161(8)
H18_21 H 0.6470 0.6470 0.7600
C31_21 C 0.60314(12) 0.62773(7) 0.76573(9)
H19_21 H 0.5895 0.6314 0.7666
C32_21 C 0.60808(12) 0.60808(11) 0.76743(12)
C33_21 C 0.59287(10) 0.59287(14) 0.77276(10)
H20_21 H 0.5967 0.5799 0.7670
H21_21 H 0.5799 0.5967 0.7670
C34_21 C 0.59085(7) 0.59085(14) 0.79488(7)
C35_21 C 0.57856(7) 0.60340(13) 0.80552(7)
H22_21 H 0.5705 0.6126 0.7985
C36_21 C 0.57765(10) 0.60304(11) 0.82597(10)
C37_21 C 0.59041(9) 0.59041(14) 0.83555(9)
H23_21 H 0.5905 0.5905 0.8497
C38_21 C 0.56448(12) 0.61556(11) 0.83654(10)
C39_21 C 0.55628(9) 0.60930(14) 0.85400(11)
H24_21 H 0.5590 0.5962 0.8586
C40_21 C 0.54413(15) 0.62150(8) 0.86516(10)
H25_21 H 0.5391 0.6168 0.8775
C41_21 C 0.53910(11) 0.64068(13) 0.85864(10)
C42_21 C 0.54655(9) 0.64693(12) 0.84120(10)
H26_21 H 0.5434 0.6597 0.8361
C43_21 C 0.55896(15) 0.63407(8) 0.83073(10)
H27_21 H 0.5640 0.6387 0.8184
C44_21 C 0.52546(11) 0.65282(11) 0.87158(8)
O14_12 O 0.52087(5) 0.69677(5) 0.89370(6)
O16_12 O 0.51998(5) 0.67331(6) 0.91771(6)
O21_21 O 0.73816(5) 0.60499(7) 0.76673(6)
O22_21 O 0.23816(5) 0.73327(6) 0.89501(7)
O23_21 O 0.26673(6) 0.76184(5) 0.89501(7)
O24_21 O 0.72830(5) 0.57442(5) 0.75683(7)
O25_21 O 0.22830(5) 0.74317(7) 0.92558(5)
O26_21 O 0.25683(7) 0.77170(5) 0.92558(5)
O27_15 O 0.66851(5) 0.51987(6) 0.86407(5)
O29_15 O 0.64544(7) 0.52007(6) 0.88806(5)
C65_21 C 0.72545(8) 0.59249(10) 0.76126(14)
C66_21 C 0.70426(9) 0.59886(13) 0.76150(12)
C67_21 C 0.69907(9) 0.61768(12) 0.76873(13)
H39_21 H 0.7092 0.6262 0.7735
C68_21 C 0.67947(10) 0.62419(15) 0.76909(9)
H40_21 H 0.6763 0.6370 0.7741
C69_21 C 0.66451(9) 0.61192(11) 0.76208(13)
C70_21 C 0.66945(8) 0.59301(12) 0.75543(12)
H41_21 H 0.6593 0.5842 0.7511
C71_21 C 0.68943(8) 0.58686(14) 0.75514(10)
H42_21 H 0.6926 0.5740 0.7504
C72_21 C 0.64264(7) 0.61739(11) 0.76279(9)
C73_21 C 0.62773(7) 0.60314(12) 0.76573(9)
H43_21 H 0.6314 0.5895 0.7666
C74_21 C 0.60340(13) 0.57856(7) 0.80552(7)
H44_21 H 0.6126 0.5705 0.7985
C75_21 C 0.60304(11) 0.57765(10) 0.82597(10)
C76_21 C 0.61556(11) 0.56448(12) 0.83654(10)
C77_21 C 0.60930(14) 0.55628(9) 0.85400(11)
H45_21 H 0.5962 0.5590 0.8586
C78_21 C 0.62150(8) 0.54413(15) 0.86516(10)
H46_21 H 0.6168 0.5391 0.8775
C79_21 C 0.64068(13) 0.53910(11) 0.85864(10)
C80_21 C 0.64693(12) 0.54655(9) 0.84120(10)
H47_21 H 0.6597 0.5434 0.8361
C81_21 C 0.63407(8) 0.55896(15) 0.83073(10)
H48_21 H 0.6387 0.5640 0.8184
C82_21 C 0.65282(11) 0.52546(11) 0.87158(8)
C14_43 C 0.76055(10) 0.59172(9) -0.0000
H8_43 H 0.7742 0.5973 0.0000
H9_43 H 0.7617 0.5771 -0.0000
Cu10_12 Cu 0.733793(9) 0.733793(9) 0.099146(12)
Cu13_12 Cu 0.745294(8) 0.745294(8) 0.063531(11)
O17_12 O 0.73596(5) 0.70685(5) 0.08790(7)
O19_12 O 0.74569(5) 0.71669(6) 0.05800(6)
C45_22 C 0.68818(11) 0.52675(7) 0.09039(10)
C46_22 C 0.69949(9) 0.54299(9) 0.07914(13)
C47_22 C 0.71292(11) 0.55585(12) 0.08848(8)
H28_22 H 0.7154 0.5544 0.1023
C48_22 C 0.72243(8) 0.57041(9) 0.07812(13)
H29_22 H 0.7315 0.5789 0.0849
C49_22 C 0.71915(11) 0.57311(10) 0.05768(12)
C50_22 C 0.70669(12) 0.56006(13) 0.04889(9)
H30_22 H 0.7049 0.5609 0.0349
C51_22 C 0.69647(9) 0.54573(10) 0.05899(14)
H31_22 H 0.6872 0.5376 0.0521
C52_22 C 0.73043(8) 0.58917(12) 0.04632(11)
C53_22 C 0.73170(10) 0.60845(13) 0.05353(9)
H32_22 H 0.7254 0.6118 0.0657
C54_22 C 0.74224(8) 0.62306(12) 0.04305(10)
C55_22 C 0.75092(8) 0.61715(9) 0.02654(11)
H33_22 H 0.7583 0.6270 0.0196
C56_22 C 0.75059(8) 0.59782(11) 0.01782(9)
C57_22 C 0.74016(10) 0.58438(10) 0.02797(10)
H34_22 H 0.7391 0.5712 0.0229
C58_22 C 0.74239(8) 0.64316(11) 0.05073(12)
C59_22 C 0.73949(8) 0.64802(12) 0.07017(13)
H35_22 H 0.7373 0.6377 0.0796
C60_22 C 0.73967(8) 0.66737(16) 0.07648(9)
H36_22 H 0.7380 0.6703 0.0902
C61_22 C 0.74232(7) 0.68289(10) 0.06272(13)
C62_22 C 0.74472(8) 0.67803(11) 0.04386(12)
H37_22 H 0.7464 0.6882 0.0342
C63_22 C 0.74479(8) 0.65880(15) 0.03795(8)
H38_22 H 0.7466 0.6560 0.0242
C64_22 C 0.74108(8) 0.70339(11) 0.07004(11)
Cu3_12 Cu 0.733793(9) 0.733793(9) 0.900854(12)
Cu4_12 Cu 0.745294(8) 0.745294(8) 0.936469(11)
O1_22 O 0.69677(5) 0.52087(5) 0.89370(6)
O2_22 O 0.67331(6) 0.51998(5) 0.91771(6)
O3_22 O 0.73596(5) 0.70685(5) 0.91210(7)
O4_22 O 0.74569(5) 0.71669(6) 0.94200(6)
O5_22 O 0.73816(5) 0.39501(7) 0.76673(6)
O6_22 O 0.72830(5) 0.42558(5) 0.75683(7)
O7_22 O 0.66851(5) 0.48013(6) 0.86407(5)
O8_22 O 0.64544(7) 0.47993(6) 0.88806(5)
O9_22 O 0.70839(6) 0.5000 0.85463(6)
O10_22 O 0.63383(8) 0.5000 0.92707(8)
O11_22 O 0.72420(6) 0.72420(6) 0.87181(7)
O12_22 O 0.75407(5) 0.75407(5) 0.96579(6)
C1_22 C 0.68818(11) 0.52675(7) 0.90961(10)
C2_22 C 0.69949(9) 0.54299(9) 0.92086(13)
C3_22 C 0.71292(11) 0.55585(12) 0.91152(8)
H1_22 H 0.7154 0.5544 0.8977
C4_22 C 0.72243(8) 0.57041(9) 0.92188(13)
H2_22 H 0.7315 0.5789 0.9151
C5_22 C 0.71915(11) 0.57311(10) 0.94232(12)
C6_22 C 0.70669(12) 0.56006(13) 0.95111(9)
H3_22 H 0.7049 0.5609 0.9651
C7_22 C 0.69647(9) 0.54573(10) 0.94101(14)
H4_22 H 0.6872 0.5376 0.9479
C8_22 C 0.73043(8) 0.58917(12) 0.95368(11)
C9_22 C 0.73170(10) 0.60845(13) 0.94647(9)
H5_22 H 0.7254 0.6118 0.9343
C10_22 C 0.74224(8) 0.62306(12) 0.95695(10)
C11_22 C 0.75092(8) 0.61715(9) 0.97346(11)
H6_22 H 0.7583 0.6270 0.9804
C12_22 C 0.75059(8) 0.59782(11) 0.98218(9)
C13_22 C 0.74016(10) 0.58438(10) 0.97203(10)
H7_22 H 0.7391 0.5712 0.9771
C14_44 C 0.76055(10) 0.59172(9) 1.0000
H8_44 H 0.7742 0.5973 1.0000
H9_44 H 0.7617 0.5771 1.0000
C15_22 C 0.74239(8) 0.64316(11) 0.94927(12)
C16_22 C 0.73949(8) 0.64802(12) 0.92983(13)
H10_22 H 0.7373 0.6377 0.9204
C17_22 C 0.73967(8) 0.66737(16) 0.92352(9)
H11_22 H 0.7380 0.6703 0.9098
C18_22 C 0.74232(7) 0.68289(10) 0.93728(13)
C19_22 C 0.74472(8) 0.67803(11) 0.95614(12)
H12_22 H 0.7464 0.6882 0.9658
C20_22 C 0.74479(8) 0.65880(15) 0.96205(8)
H13_22 H 0.7466 0.6560 0.9758
C21_22 C 0.74108(8) 0.70339(11) 0.92996(11)
C22_22 C 0.72545(8) 0.40751(10) 0.76126(14)
C23_22 C 0.70426(9) 0.40114(13) 0.76150(12)
C24_22 C 0.69907(9) 0.38232(12) 0.76873(13)
H14_22 H 0.7092 0.3738 0.7735
C25_22 C 0.67947(10) 0.37581(15) 0.76909(9)
H15_22 H 0.6763 0.3630 0.7741
C26_22 C 0.66451(9) 0.38808(11) 0.76208(13)
C27_22 C 0.66945(8) 0.40699(12) 0.75543(12)
H16_22 H 0.6593 0.4158 0.7511
C28_22 C 0.68943(8) 0.41314(14) 0.75514(10)
H17_22 H 0.6926 0.4260 0.7504
C29_22 C 0.64264(7) 0.38261(11) 0.76279(9)
C30_22 C 0.63707(10) 0.36293(8) 0.76161(8)
H18_22 H 0.6470 0.3530 0.7600
C31_22 C 0.62773(7) 0.39686(12) 0.76573(9)
H19_22 H 0.6314 0.4105 0.7666
C32_22 C 0.60808(11) 0.39192(12) 0.76743(12)
C33_22 C 0.59287(14) 0.40713(10) 0.77276(10)
H20_22 H 0.5799 0.4033 0.7670
H21_22 H 0.5967 0.4201 0.7670
C34_22 C 0.59085(14) 0.40915(7) 0.79488(7)
C35_22 C 0.60340(13) 0.42144(7) 0.80552(7)
H22_22 H 0.6126 0.4295 0.7985
C36_22 C 0.60304(11) 0.42235(10) 0.82597(10)
C37_22 C 0.59041(14) 0.40959(9) 0.83555(9)
H23_22 H 0.5905 0.4095 0.8497
C38_22 C 0.61556(11) 0.43552(12) 0.83654(10)
C39_22 C 0.60930(14) 0.44372(9) 0.85400(11)
H24_22 H 0.5962 0.4410 0.8586
C40_22 C 0.62150(8) 0.45587(15) 0.86516(10)
H25_22 H 0.6168 0.4609 0.8775
C41_22 C 0.64068(13) 0.46090(11) 0.85864(10)
C42_22 C 0.64693(12) 0.45345(9) 0.84120(10)
H26_22 H 0.6597 0.4566 0.8361
C43_22 C 0.63407(8) 0.44104(15) 0.83073(10)
H27_22 H 0.6387 0.4360 0.8184
C44_22 C 0.65282(11) 0.47454(11) 0.87158(8)
O18_12 O 0.70685(5) 0.73596(5) 0.91210(7)
O20_12 O 0.71669(6) 0.74569(5) 0.94200(6)
O21_22 O 0.60499(7) 0.26184(5) 0.76673(6)
O22_22 O 0.73327(6) 0.76184(5) 0.89501(7)
O23_22 O 0.76184(5) 0.73327(6) 0.89501(7)
O24_22 O 0.57442(5) 0.27170(5) 0.75683(7)
O25_22 O 0.74317(7) 0.77170(5) 0.92558(5)
O26_22 O 0.77170(5) 0.74317(7) 0.92558(5)
O27_16 O 0.51987(6) 0.33149(5) 0.86407(5)
O29_16 O 0.52007(6) 0.35456(7) 0.88806(5)
C65_22 C 0.59249(10) 0.27455(8) 0.76126(14)
C66_22 C 0.59886(13) 0.29574(9) 0.76150(12)
C67_22 C 0.61768(12) 0.30093(9) 0.76873(13)
H39_22 H 0.6262 0.2908 0.7735
C68_22 C 0.62419(15) 0.32053(10) 0.76909(9)
H40_22 H 0.6370 0.3237 0.7741
C69_22 C 0.61192(11) 0.33549(9) 0.76208(13)
C70_22 C 0.59301(12) 0.33055(8) 0.75543(12)
H41_22 H 0.5842 0.3407 0.7511
C71_22 C 0.58686(14) 0.31057(8) 0.75514(10)
H42_22 H 0.5740 0.3074 0.7504
C72_22 C 0.61739(11) 0.35736(7) 0.76279(9)
C73_22 C 0.60314(12) 0.37227(7) 0.76573(9)
H43_22 H 0.5895 0.3686 0.7666
C74_22 C 0.57856(7) 0.39660(13) 0.80552(7)
H44_22 H 0.5705 0.3874 0.7985
C75_22 C 0.57765(10) 0.39696(11) 0.82597(10)
C76_22 C 0.56448(12) 0.38444(11) 0.83654(10)
C77_22 C 0.55628(9) 0.39070(14) 0.85400(11)
H45_22 H 0.5590 0.4038 0.8586
C78_22 C 0.54413(15) 0.37850(8) 0.86516(10)
H46_22 H 0.5391 0.3832 0.8775
C79_22 C 0.53910(11) 0.35932(13) 0.85864(10)
C80_22 C 0.54655(9) 0.35307(12) 0.84120(10)
H47_22 H 0.5434 0.3403 0.8361
C81_22 C 0.55896(15) 0.36593(8) 0.83073(10)
H48_22 H 0.5640 0.3613 0.8184
C82_22 C 0.52546(11) 0.34718(11) 0.87158(8)
C14_45 C 0.59172(9) 0.23945(10) -0.0000
H8_45 H 0.5973 0.2258 0.0000
H9_45 H 0.5771 0.2383 -0.0000
C45_23 C 0.52675(7) 0.31182(11) 0.09039(10)
C46_23 C 0.54299(9) 0.30051(9) 0.07914(13)
C47_23 C 0.55585(12) 0.28708(11) 0.08848(8)
H28_23 H 0.5544 0.2846 0.1023
C48_23 C 0.57041(9) 0.27757(8) 0.07812(13)
H29_23 H 0.5789 0.2685 0.0849
C49_23 C 0.57311(10) 0.28085(11) 0.05768(12)
C50_23 C 0.56006(13) 0.29331(12) 0.04889(9)
H30_23 H 0.5609 0.2951 0.0349
C51_23 C 0.54573(10) 0.30353(9) 0.05899(14)
H31_23 H 0.5376 0.3128 0.0521
C52_23 C 0.58917(12) 0.26957(8) 0.04632(11)
C53_23 C 0.60845(13) 0.26830(10) 0.05353(9)
H32_23 H 0.6118 0.2746 0.0657
C54_23 C 0.62306(12) 0.25776(8) 0.04305(10)
C55_23 C 0.61715(9) 0.24908(8) 0.02654(11)
H33_23 H 0.6270 0.2417 0.0196
C56_23 C 0.59782(11) 0.24941(8) 0.01782(9)
C57_23 C 0.58438(10) 0.25984(10) 0.02797(10)
H34_23 H 0.5712 0.2609 0.0229
C58_23 C 0.64316(11) 0.25761(8) 0.05073(12)
C59_23 C 0.64802(12) 0.26051(8) 0.07017(13)
H35_23 H 0.6377 0.2627 0.0796
C60_23 C 0.66737(16) 0.26033(8) 0.07648(9)
H36_23 H 0.6703 0.2620 0.0902
C61_23 C 0.68289(10) 0.25768(7) 0.06272(13)
C62_23 C 0.67803(11) 0.25528(8) 0.04386(12)
H37_23 H 0.6882 0.2536 0.0342
C63_23 C 0.65880(15) 0.25521(8) 0.03795(8)
H38_23 H 0.6560 0.2534 0.0242
C64_23 C 0.70339(11) 0.25892(8) 0.07004(11)
O1_23 O 0.52087(5) 0.30323(5) 0.89370(6)
O2_23 O 0.51998(5) 0.32669(6) 0.91771(6)
O3_23 O 0.70685(5) 0.26404(5) 0.91210(7)
O4_23 O 0.71669(6) 0.25431(5) 0.94200(6)
O5_23 O 0.39501(7) 0.26184(5) 0.76673(6)
O6_23 O 0.42558(5) 0.27170(5) 0.75683(7)
O7_23 O 0.48013(6) 0.33149(5) 0.86407(5)
O8_23 O 0.47993(6) 0.35456(7) 0.88806(5)
O9_23 O 0.5000 0.29161(6) 0.85463(6)
O10_23 O 0.5000 0.36617(8) 0.92707(8)
O11_23 O 0.72420(6) 0.27580(6) 0.87181(7)
O12_23 O 0.75407(5) 0.24593(5) 0.96579(6)
C1_23 C 0.52675(7) 0.31182(11) 0.90961(10)
C2_23 C 0.54299(9) 0.30051(9) 0.92086(13)
C3_23 C 0.55585(12) 0.28708(11) 0.91152(8)
H1_23 H 0.5544 0.2846 0.8977
C4_23 C 0.57041(9) 0.27757(8) 0.92188(13)
H2_23 H 0.5789 0.2685 0.9151
C5_23 C 0.57311(10) 0.28085(11) 0.94232(12)
C6_23 C 0.56006(13) 0.29331(12) 0.95111(9)
H3_23 H 0.5609 0.2951 0.9651
C7_23 C 0.54573(10) 0.30353(9) 0.94101(14)
H4_23 H 0.5376 0.3128 0.9479
C8_23 C 0.58917(12) 0.26957(8) 0.95368(11)
C9_23 C 0.60845(13) 0.26830(10) 0.94647(9)
H5_23 H 0.6118 0.2746 0.9343
C10_23 C 0.62306(12) 0.25776(8) 0.95695(10)
C11_23 C 0.61715(9) 0.24908(8) 0.97346(11)
H6_23 H 0.6270 0.2417 0.9804
C12_23 C 0.59782(11) 0.24941(8) 0.98218(9)
C13_23 C 0.58438(10) 0.25984(10) 0.97203(10)
H7_23 H 0.5712 0.2609 0.9771
C14_46 C 0.59172(9) 0.23945(10) 1.0000
H8_46 H 0.5973 0.2258 1.0000
H9_46 H 0.5771 0.2383 1.0000
C15_23 C 0.64316(11) 0.25761(8) 0.94927(12)
C16_23 C 0.64802(12) 0.26051(8) 0.92983(13)
H10_23 H 0.6377 0.2627 0.9204
C17_23 C 0.66737(16) 0.26033(8) 0.92352(9)
H11_23 H 0.6703 0.2620 0.9098
C18_23 C 0.68289(10) 0.25768(7) 0.93728(13)
C19_23 C 0.67803(11) 0.25528(8) 0.95614(12)
H12_23 H 0.6882 0.2536 0.9658
C20_23 C 0.65880(15) 0.25521(8) 0.96205(8)
H13_23 H 0.6560 0.2534 0.9758
C21_23 C 0.70339(11) 0.25892(8) 0.92996(11)
C22_23 C 0.40751(10) 0.27455(8) 0.76126(14)
C23_23 C 0.40114(13) 0.29574(9) 0.76150(12)
C24_23 C 0.38232(12) 0.30093(9) 0.76873(13)
H14_23 H 0.3738 0.2908 0.7735
C25_23 C 0.37581(15) 0.32053(10) 0.76909(9)
H15_23 H 0.3630 0.3237 0.7741
C26_23 C 0.38808(11) 0.33549(9) 0.76208(13)
C27_23 C 0.40699(12) 0.33055(8) 0.75543(12)
H16_23 H 0.4158 0.3407 0.7511
C28_23 C 0.41314(14) 0.31057(8) 0.75514(10)
H17_23 H 0.4260 0.3074 0.7504
C29_23 C 0.38261(11) 0.35736(7) 0.76279(9)
C30_23 C 0.36293(8) 0.36293(10) 0.76161(8)
H18_23 H 0.3530 0.3530 0.7600
C31_23 C 0.39686(12) 0.37227(7) 0.76573(9)
H19_23 H 0.4105 0.3686 0.7666
C32_23 C 0.39192(12) 0.39192(11) 0.76743(12)
C33_23 C 0.40713(10) 0.40713(14) 0.77276(10)
H20_23 H 0.4033 0.4201 0.7670
H21_23 H 0.4201 0.4033 0.7670
C34_23 C 0.40915(7) 0.40915(14) 0.79488(7)
C35_23 C 0.42144(7) 0.39660(13) 0.80552(7)
H22_23 H 0.4295 0.3874 0.7985
C36_23 C 0.42235(10) 0.39696(11) 0.82597(10)
C37_23 C 0.40959(9) 0.40959(14) 0.83555(9)
H23_23 H 0.4095 0.4095 0.8497
C38_23 C 0.43552(12) 0.38444(11) 0.83654(10)
C39_23 C 0.44372(9) 0.39070(14) 0.85400(11)
H24_23 H 0.4410 0.4038 0.8586
C40_23 C 0.45587(15) 0.37850(8) 0.86516(10)
H25_23 H 0.4609 0.3832 0.8775
C41_23 C 0.46090(11) 0.35932(13) 0.85864(10)
C42_23 C 0.45345(9) 0.35307(12) 0.84120(10)
H26_23 H 0.4566 0.3403 0.8361
C43_23 C 0.44104(15) 0.36593(8) 0.83073(10)
H27_23 H 0.4360 0.3613 0.8184
C44_23 C 0.47454(11) 0.34718(11) 0.87158(8)
O21_23 O 0.26184(5) 0.39501(7) 0.76673(6)
O22_23 O 0.76184(5) 0.26673(6) 0.89501(7)
O23_23 O 0.73327(6) 0.23816(5) 0.89501(7)
O24_23 O 0.27170(5) 0.42558(5) 0.75683(7)
O25_23 O 0.77170(5) 0.25683(7) 0.92558(5)
O26_23 O 0.74317(7) 0.22830(5) 0.92558(5)
C65_23 C 0.27455(8) 0.40751(10) 0.76126(14)
C66_23 C 0.29574(9) 0.40114(13) 0.76150(12)
C67_23 C 0.30093(9) 0.38232(12) 0.76873(13)
H39_23 H 0.2908 0.3738 0.7735
C68_23 C 0.32053(10) 0.37581(15) 0.76909(9)
H40_23 H 0.3237 0.3630 0.7741
C69_23 C 0.33549(9) 0.38808(11) 0.76208(13)
C70_23 C 0.33055(8) 0.40699(12) 0.75543(12)
H41_23 H 0.3407 0.4158 0.7511
C71_23 C 0.31057(8) 0.41314(14) 0.75514(10)
H42_23 H 0.3074 0.4260 0.7504
C72_23 C 0.35736(7) 0.38261(11) 0.76279(9)
C73_23 C 0.37227(7) 0.39686(12) 0.76573(9)
H43_23 H 0.3686 0.4105 0.7666
C74_23 C 0.39660(13) 0.42144(7) 0.80552(7)
H44_23 H 0.3874 0.4295 0.7985
C75_23 C 0.39696(11) 0.42235(10) 0.82597(10)
C76_23 C 0.38444(11) 0.43552(12) 0.83654(10)
C77_23 C 0.39070(14) 0.44372(9) 0.85400(11)
H45_23 H 0.4038 0.4410 0.8586
C78_23 C 0.37850(8) 0.45587(15) 0.86516(10)
H46_23 H 0.3832 0.4609 0.8775
C79_23 C 0.35932(13) 0.46090(11) 0.85864(10)
C80_23 C 0.35307(12) 0.45345(9) 0.84120(10)
H47_23 H 0.3403 0.4566 0.8361
C81_23 C 0.36593(8) 0.44104(15) 0.83073(10)
H48_23 H 0.3613 0.4360 0.8184
C82_23 C 0.34718(11) 0.47454(11) 0.87158(8)
O1_24 O 0.52087(5) 0.69677(5) 0.10630(6)
O2_24 O 0.51998(5) 0.67331(6) 0.08229(6)
O3_24 O 0.70685(5) 0.73596(5) 0.08790(7)
O4_24 O 0.71669(6) 0.74569(5) 0.05800(6)
O5_24 O 0.39501(7) 0.73816(5) 0.23327(6)
O6_24 O 0.42558(5) 0.72830(5) 0.24317(7)
O7_24 O 0.48013(6) 0.66851(5) 0.13593(5)
O8_24 O 0.47993(6) 0.64544(7) 0.11194(5)
O9_24 O 0.5000 0.70839(6) 0.14537(6)
O10_24 O 0.5000 0.63383(8) 0.07293(8)
O11_24 O 0.72420(6) 0.72420(6) 0.12819(7)
O12_24 O 0.75407(5) 0.75407(5) 0.03421(6)
C1_24 C 0.52675(7) 0.68818(11) 0.09039(10)
C2_24 C 0.54299(9) 0.69949(9) 0.07914(13)
C3_24 C 0.55585(12) 0.71292(11) 0.08848(8)
H1_24 H 0.5544 0.7154 0.1023
C4_24 C 0.57041(9) 0.72243(8) 0.07812(13)
H2_24 H 0.5789 0.7315 0.0849
C5_24 C 0.57311(10) 0.71915(11) 0.05768(12)
C6_24 C 0.56006(13) 0.70669(12) 0.04889(9)
H3_24 H 0.5609 0.7049 0.0349
C7_24 C 0.54573(10) 0.69647(9) 0.05899(14)
H4_24 H 0.5376 0.6872 0.0521
C8_24 C 0.58917(12) 0.73043(8) 0.04632(11)
C9_24 C 0.60845(13) 0.73170(10) 0.05353(9)
H5_24 H 0.6118 0.7254 0.0657
C10_24 C 0.62306(12) 0.74224(8) 0.04305(10)
C11_24 C 0.61715(9) 0.75092(8) 0.02654(11)
H6_24 H 0.6270 0.7583 0.0196
C12_24 C 0.59782(11) 0.75059(8) 0.01782(9)
C13_24 C 0.58438(10) 0.74016(10) 0.02797(10)
H7_24 H 0.5712 0.7391 0.0229
C14_47 C 0.59172(9) 0.76055(10) 0.0000
H8_47 H 0.5973 0.7742 -0.0000
H9_47 H 0.5771 0.7617 0.0000
C15_24 C 0.64316(11) 0.74239(8) 0.05073(12)
C16_24 C 0.64802(12) 0.73949(8) 0.07017(13)
H10_24 H 0.6377 0.7373 0.0796
C17_24 C 0.66737(16) 0.73967(8) 0.07648(9)
H11_24 H 0.6703 0.7380 0.0902
C18_24 C 0.68289(10) 0.74232(7) 0.06272(13)
C19_24 C 0.67803(11) 0.74472(8) 0.04386(12)
H12_24 H 0.6882 0.7464 0.0342
C20_24 C 0.65880(15) 0.74479(8) 0.03795(8)
H13_24 H 0.6560 0.7466 0.0242
C21_24 C 0.70339(11) 0.74108(8) 0.07004(11)
C22_24 C 0.40751(10) 0.72545(8) 0.23874(14)
C23_24 C 0.40114(13) 0.70426(9) 0.23850(12)
C24_24 C 0.38232(12) 0.69907(9) 0.23127(13)
H14_24 H 0.3738 0.7092 0.2265
C25_24 C 0.37581(15) 0.67947(10) 0.23091(9)
H15_24 H 0.3630 0.6763 0.2259
C26_24 C 0.38808(11) 0.66451(9) 0.23792(13)
C27_24 C 0.40699(12) 0.66945(8) 0.24457(12)
H16_24 H 0.4158 0.6593 0.2489
C28_24 C 0.41314(14) 0.68943(8) 0.24486(10)
H17_24 H 0.4260 0.6926 0.2496
C29_24 C 0.38261(11) 0.64264(7) 0.23721(9)
C30_24 C 0.36293(8) 0.63707(10) 0.23839(8)
H18_24 H 0.3530 0.6470 0.2400
C31_24 C 0.39686(12) 0.62773(7) 0.23427(9)
H19_24 H 0.4105 0.6314 0.2334
C32_24 C 0.39192(12) 0.60808(11) 0.23257(12)
C33_24 C 0.40713(10) 0.59287(14) 0.22724(10)
H20_24 H 0.4033 0.5799 0.2330
H21_24 H 0.4201 0.5967 0.2330
C34_24 C 0.40915(7) 0.59085(14) 0.20512(7)
C35_24 C 0.42144(7) 0.60340(13) 0.19448(7)
H22_24 H 0.4295 0.6126 0.2015
C36_24 C 0.42235(10) 0.60304(11) 0.17403(10)
C37_24 C 0.40959(9) 0.59041(14) 0.16445(9)
H23_24 H 0.4095 0.5905 0.1503
C38_24 C 0.43552(12) 0.61556(11) 0.16346(10)
C39_24 C 0.44372(9) 0.60930(14) 0.14600(11)
H24_24 H 0.4410 0.5962 0.1414
C40_24 C 0.45587(15) 0.62150(8) 0.13484(10)
H25_24 H 0.4609 0.6168 0.1225
C41_24 C 0.46090(11) 0.64068(13) 0.14136(10)
C42_24 C 0.45345(9) 0.64693(12) 0.15880(10)
H26_24 H 0.4566 0.6597 0.1639
C43_24 C 0.44104(15) 0.63407(8) 0.16927(10)
H27_24 H 0.4360 0.6387 0.1816
C44_24 C 0.47454(11) 0.65282(11) 0.12842(8)
O21_24 O 0.26184(5) 0.60499(7) 0.23327(6)
O22_24 O 0.76184(5) 0.73327(6) 0.10499(7)
O23_24 O 0.73327(6) 0.76184(5) 0.10499(7)
O24_24 O 0.27170(5) 0.57442(5) 0.24317(7)
O25_24 O 0.77170(5) 0.74317(7) 0.07442(5)
O26_24 O 0.74317(7) 0.77170(5) 0.07442(5)
C65_24 C 0.27455(8) 0.59249(10) 0.23874(14)
C66_24 C 0.29574(9) 0.59886(13) 0.23850(12)
C67_24 C 0.30093(9) 0.61768(12) 0.23127(13)
H39_24 H 0.2908 0.6262 0.2265
C68_24 C 0.32053(10) 0.62419(15) 0.23091(9)
H40_24 H 0.3237 0.6370 0.2259
C69_24 C 0.33549(9) 0.61192(11) 0.23792(13)
C70_24 C 0.33055(8) 0.59301(12) 0.24457(12)
H41_24 H 0.3407 0.5842 0.2489
C71_24 C 0.31057(8) 0.58686(14) 0.24486(10)
H42_24 H 0.3074 0.5740 0.2496
C72_24 C 0.35736(7) 0.61739(11) 0.23721(9)
C73_24 C 0.37227(7) 0.60314(12) 0.23427(9)
H43_24 H 0.3686 0.5895 0.2334
C74_24 C 0.39660(13) 0.57856(7) 0.19448(7)
H44_24 H 0.3874 0.5705 0.2015
C75_24 C 0.39696(11) 0.57765(10) 0.17403(10)
C76_24 C 0.38444(11) 0.56448(12) 0.16346(10)
C77_24 C 0.39070(14) 0.55628(9) 0.14600(11)
H45_24 H 0.4038 0.5590 0.1414
C78_24 C 0.37850(8) 0.54413(15) 0.13484(10)
H46_24 H 0.3832 0.5391 0.1225
C79_24 C 0.35932(13) 0.53910(11) 0.14136(10)
C80_24 C 0.35307(12) 0.54655(9) 0.15880(10)
H47_24 H 0.3403 0.5434 0.1639
C81_24 C 0.36593(8) 0.55896(15) 0.16927(10)
H48_24 H 0.3613 0.5640 0.1816
C82_24 C 0.34718(11) 0.52546(11) 0.12842(8)
C14_48 C 0.59172(9) 0.76055(10) 1.0000
H8_48 H 0.5973 0.7742 1.0000
H9_48 H 0.5771 0.7617 1.0000
C45_24 C 0.52675(7) 0.68818(11) 0.90961(10)
C46_24 C 0.54299(9) 0.69949(9) 0.92086(13)
C47_24 C 0.55585(12) 0.71292(11) 0.91152(8)
H28_24 H 0.5544 0.7154 0.8977
C48_24 C 0.57041(9) 0.72243(8) 0.92188(13)
H29_24 H 0.5789 0.7315 0.9151
C49_24 C 0.57311(10) 0.71915(11) 0.94232(12)
C50_24 C 0.56006(13) 0.70669(12) 0.95111(9)
H30_24 H 0.5609 0.7049 0.9651
C51_24 C 0.54573(10) 0.69647(9) 0.94101(14)
H31_24 H 0.5376 0.6872 0.9479
C52_24 C 0.58917(12) 0.73043(8) 0.95368(11)
C53_24 C 0.60845(13) 0.73170(10) 0.94647(9)
H32_24 H 0.6118 0.7254 0.9343
C54_24 C 0.62306(12) 0.74224(8) 0.95695(10)
C55_24 C 0.61715(9) 0.75092(8) 0.97346(11)
H33_24 H 0.6270 0.7583 0.9804
C56_24 C 0.59782(11) 0.75059(8) 0.98218(9)
C57_24 C 0.58438(10) 0.74016(10) 0.97203(10)
H34_24 H 0.5712 0.7391 0.9771
C58_24 C 0.64316(11) 0.74239(8) 0.94927(12)
C59_24 C 0.64802(12) 0.73949(8) 0.92983(13)
H35_24 H 0.6377 0.7373 0.9204
C60_24 C 0.66737(16) 0.73967(8) 0.92352(9)
H36_24 H 0.6703 0.7380 0.9098
C61_24 C 0.68289(10) 0.74232(7) 0.93728(13)
C62_24 C 0.67803(11) 0.74472(8) 0.95614(12)
H37_24 H 0.6882 0.7464 0.9658
C63_24 C 0.65880(15) 0.74479(8) 0.96205(8)
H38_24 H 0.6560 0.7466 0.9758
C64_24 C 0.70339(11) 0.74108(8) 0.92996(11)
Cu6_12 Cu 0.622880(12) 0.185160(12) -0.0000
Cu8_12 Cu 0.595250(12) 0.157574(12) -0.0000
Cu1_6 Cu 0.622880(12) -0.0000 0.814840(12)
Cu2_6 Cu 0.595250(12) -0.0000 0.842426(12)
O7_25 O 0.63593(5) 0.01987(6) 0.83149(5)
O8_25 O 0.61194(5) 0.02007(6) 0.85456(7)
O9_25 O 0.64537(6) -0.0000 0.79161(6)
O10_25 O 0.57293(8) -0.0000 0.86617(8)
C22_25 C 0.73874(14) 0.09249(10) 0.77455(8)
C23_25 C 0.73850(12) 0.09886(13) 0.79574(9)
C24_25 C 0.73127(13) 0.11768(12) 0.80093(9)
H14_25 H 0.7265 0.1262 0.7908
C25_25 C 0.73091(9) 0.12419(15) 0.82053(10)
H15_25 H 0.7259 0.1370 0.8237
C26_25 C 0.73792(13) 0.11192(11) 0.83549(9)
C27_25 C 0.74457(12) 0.09301(12) 0.83055(8)
H16_25 H 0.7489 0.0842 0.8407
C28_25 C 0.74486(10) 0.08686(14) 0.81057(8)
H17_25 H 0.7496 0.0740 0.8074
C29_25 C 0.73721(9) 0.11739(11) 0.85736(7)
C30_25 C 0.73839(8) 0.13707(8) 0.86293(10)
H18_25 H 0.7400 0.1470 0.8530
C31_25 C 0.73427(9) 0.10314(12) 0.87227(7)
H19_25 H 0.7334 0.0895 0.8686
C32_25 C 0.73257(12) 0.10808(12) 0.89192(11)
C33_25 C 0.72724(10) 0.09287(10) 0.90713(14)
H20_25 H 0.7330 0.0967 0.9201
H21_25 H 0.7330 0.0799 0.9033
C34_25 C 0.70512(7) 0.09085(7) 0.90915(14)
C35_25 C 0.69448(7) 0.07856(7) 0.89660(13)
H22_25 H 0.7015 0.0705 0.8874
C36_25 C 0.67403(10) 0.07765(10) 0.89696(11)
C37_25 C 0.66445(9) 0.09041(9) 0.90959(14)
H23_25 H 0.6503 0.0905 0.9095
C38_25 C 0.66346(10) 0.06448(12) 0.88444(11)
C39_25 C 0.64600(11) 0.05628(9) 0.89070(14)
H24_25 H 0.6414 0.0590 0.9038
C40_25 C 0.63484(10) 0.04413(15) 0.87850(8)
H25_25 H 0.6225 0.0391 0.8832
C41_25 C 0.64136(10) 0.03910(11) 0.85932(13)
C42_25 C 0.65880(10) 0.04655(9) 0.85307(12)
H26_25 H 0.6639 0.0434 0.8403
C43_25 C 0.66927(10) 0.05896(15) 0.86593(8)
H27_25 H 0.6816 0.0640 0.8613
C44_25 C 0.62842(8) 0.02546(11) 0.84718(11)
Cu5_9 Cu 0.377120(12) -0.0000 0.814840(12)
Cu6_13 Cu 0.622880(12) 0.185160(12) 1.0000
Cu7_9 Cu 0.404750(12) -0.0000 0.842426(12)
Cu8_13 Cu 0.595250(12) 0.157574(12) 1.0000
O14_13 O 0.60630(6) 0.02087(5) 0.80323(5)
O16_13 O 0.58229(6) 0.01998(5) 0.82669(6)
O27_17 O 0.63593(5) 0.16851(5) 0.98013(6)
O29_17 O 0.61194(5) 0.14544(7) 0.97993(6)
C65_25 C 0.73874(14) 0.22545(8) 0.90751(10)
C66_25 C 0.73850(12) 0.20426(9) 0.90114(13)
C67_25 C 0.73127(13) 0.19907(9) 0.88232(12)
H39_25 H 0.7265 0.2092 0.8738
C68_25 C 0.73091(9) 0.17947(10) 0.87581(15)
H40_25 H 0.7259 0.1763 0.8630
C69_25 C 0.73792(13) 0.16451(9) 0.88808(11)
C70_25 C 0.74457(12) 0.16945(8) 0.90699(12)
H41_25 H 0.7489 0.1593 0.9158
C71_25 C 0.74486(10) 0.18943(8) 0.91314(14)
H42_25 H 0.7496 0.1926 0.9260
C72_25 C 0.73721(9) 0.14264(7) 0.88261(11)
C73_25 C 0.73427(9) 0.12773(7) 0.89686(12)
H43_25 H 0.7334 0.1314 0.9105
C74_25 C 0.69448(7) 0.10340(13) 0.92144(7)
H44_25 H 0.7015 0.1126 0.9295
C75_25 C 0.67403(10) 0.10304(11) 0.92235(10)
C76_25 C 0.66346(10) 0.11556(11) 0.93552(12)
C77_25 C 0.64600(11) 0.10930(14) 0.94372(9)
H45_25 H 0.6414 0.0962 0.9410
C78_25 C 0.63484(10) 0.12150(8) 0.95587(15)
H46_25 H 0.6225 0.1168 0.9609
C79_25 C 0.64136(10) 0.14068(13) 0.96090(11)
C80_25 C 0.65880(10) 0.14693(12) 0.95345(9)
H47_25 H 0.6639 0.1597 0.9566
C81_25 C 0.66927(10) 0.13407(8) 0.94104(15)
H48_25 H 0.6816 0.1387 0.9360
C82_25 C 0.62842(8) 0.15282(11) 0.97454(11)
H52 H 0.576772 0.00977993 0.876534
H55 H 0.639082 0.0033103 0.778675
H56 H 0.655707 0.0100492 0.79477
Cu1_7 Cu 0.622880(12) 1.0000 0.814840(12)
Cu2_7 Cu 0.595250(12) 1.0000 0.842426(12)
O1_25 O 0.60630(6) 0.97913(5) 0.80323(5)
O2_25 O 0.58229(6) 0.98002(5) 0.82669(6)
O3_25 O 0.58790(7) 0.79315(5) 0.76404(5)
O4_25 O 0.55800(6) 0.78331(6) 0.75431(5)
O9_26 O 0.64537(6) 1.0000 0.79161(6)
O10_26 O 0.57293(8) 1.0000 0.86617(8)
O11_25 O 0.62819(7) 0.77580(6) 0.77580(6)
O12_25 O 0.53421(6) 0.74593(5) 0.74593(5)
C1_25 C 0.59039(10) 0.97325(7) 0.81182(11)
C2_25 C 0.57914(13) 0.95701(9) 0.80051(9)
C3_25 C 0.58848(8) 0.94415(12) 0.78708(11)
H1_25 H 0.6023 0.9456 0.7846
C4_25 C 0.57812(13) 0.92959(9) 0.77757(8)
H2_25 H 0.5849 0.9211 0.7685
C5_25 C 0.55768(12) 0.92689(10) 0.78085(11)
C6_25 C 0.54889(9) 0.93994(13) 0.79331(12)
H3_25 H 0.5349 0.9391 0.7951
C7_25 C 0.55899(14) 0.95427(10) 0.80353(9)
H4_25 H 0.5521 0.9624 0.8128
C8_25 C 0.54632(11) 0.91083(12) 0.76957(8)
C9_25 C 0.55353(9) 0.89155(13) 0.76830(10)
H5_25 H 0.5657 0.8882 0.7746
C10_25 C 0.54305(10) 0.87694(12) 0.75776(8)
C11_25 C 0.52654(11) 0.88285(9) 0.74908(8)
H6_25 H 0.5196 0.8730 0.7417
C12_25 C 0.51782(9) 0.90218(11) 0.74941(8)
C13_25 C 0.52797(10) 0.91562(10) 0.75984(10)
H7_25 H 0.5229 0.9288 0.7609
C14_49 C 0.5000 0.90828(9) 0.73945(10)
H8_49 H 0.5000 0.9027 0.7258
H9_49 H 0.5000 0.9229 0.7383
C15_25 C 0.55073(12) 0.85684(11) 0.75761(8)
C16_25 C 0.57017(13) 0.85198(12) 0.76051(8)
H10_25 H 0.5796 0.8623 0.7627
C17_25 C 0.57648(9) 0.83263(16) 0.76033(8)
H11_25 H 0.5902 0.8297 0.7620
C18_25 C 0.56272(13) 0.81711(10) 0.75768(7)
C19_25 C 0.54386(12) 0.82197(11) 0.75528(8)
H12_25 H 0.5342 0.8118 0.7536
C20_25 C 0.53795(8) 0.84120(15) 0.75521(8)
H13_25 H 0.5242 0.8440 0.7534
C21_25 C 0.57004(11) 0.79661(11) 0.75892(8)
Cu5_10 Cu 0.377120(12) 1.0000 0.814840(12)
Cu7_10 Cu 0.404750(12) 1.0000 0.842426(12)
O13_13 O 0.39370(6) 0.97913(5) 0.80323(5)
O15_13 O 0.41771(6) 0.98002(5) 0.82669(6)
O17_13 O 0.41210(7) 0.79315(5) 0.76404(5)
O18_13 O 0.58790(7) 0.76404(5) 0.79315(5)
O19_13 O 0.44200(6) 0.78331(6) 0.75431(5)
O20_13 O 0.55800(6) 0.75431(5) 0.78331(6)
O28_9 O 0.63593(5) 0.98013(6) 0.83149(5)
O30_9 O 0.61194(5) 0.97993(6) 0.85456(7)
C45_25 C 0.40961(10) 0.97325(7) 0.81182(11)
C46_25 C 0.42086(13) 0.95701(9) 0.80051(9)
C47_25 C 0.41152(8) 0.94415(12) 0.78708(11)
H28_25 H 0.3977 0.9456 0.7846
C48_25 C 0.42188(13) 0.92959(9) 0.77757(8)
H29_25 H 0.4151 0.9211 0.7685
C49_25 C 0.44232(12) 0.92689(10) 0.78085(11)
C50_25 C 0.45111(9) 0.93994(13) 0.79331(12)
H30_25 H 0.4651 0.9391 0.7951
C51_25 C 0.44101(14) 0.95427(10) 0.80353(9)
H31_25 H 0.4479 0.9624 0.8128
C52_25 C 0.45368(11) 0.91083(12) 0.76957(8)
C53_25 C 0.44647(9) 0.89155(13) 0.76830(10)
H32_25 H 0.4343 0.8882 0.7746
C54_25 C 0.45695(10) 0.87694(12) 0.75776(8)
C55_25 C 0.47346(11) 0.88285(9) 0.74908(8)
H33_25 H 0.4804 0.8730 0.7417
C56_25 C 0.48218(9) 0.90218(11) 0.74941(8)
C57_25 C 0.47203(10) 0.91562(10) 0.75984(10)
H34_25 H 0.4771 0.9288 0.7609
C58_25 C 0.44927(12) 0.85684(11) 0.75761(8)
C59_25 C 0.42983(13) 0.85198(12) 0.76051(8)
H35_25 H 0.4204 0.8623 0.7627
C60_25 C 0.42352(9) 0.83263(16) 0.76033(8)
H36_25 H 0.4098 0.8297 0.7620
C61_25 C 0.43728(13) 0.81711(10) 0.75768(7)
C62_25 C 0.45614(12) 0.82197(11) 0.75528(8)
H37_25 H 0.4658 0.8118 0.7536
C63_25 C 0.46205(8) 0.84120(15) 0.75521(8)
H38_25 H 0.4758 0.8440 0.7534
C64_25 C 0.42996(11) 0.79661(11) 0.75892(8)
H51 H 0.572126 0.986538 0.872166
Cu1_8 Cu 0.0000 0.622880(12) 0.814840(12)
Cu2_8 Cu 0.0000 0.595250(12) 0.842426(12)
O1_26 O 0.02087(5) 0.60630(6) 0.80323(5)
O2_26 O 0.01998(5) 0.58229(6) 0.82669(6)
O3_26 O 0.20685(5) 0.58790(7) 0.76404(5)
O4_26 O 0.21669(6) 0.55800(6) 0.75431(5)
O9_27 O 0.0000 0.64537(6) 0.79161(6)
O10_27 O 0.0000 0.57293(8) 0.86617(8)
O11_26 O 0.22420(6) 0.62819(7) 0.77580(6)
O12_26 O 0.25407(5) 0.53421(6) 0.74593(5)
C1_26 C 0.02675(7) 0.59039(10) 0.81182(11)
C2_26 C 0.04299(9) 0.57914(13) 0.80051(9)
C3_26 C 0.05585(12) 0.58848(8) 0.78708(11)
H1_26 H 0.0544 0.6023 0.7846
C4_26 C 0.07041(9) 0.57812(13) 0.77757(8)
H2_26 H 0.0789 0.5849 0.7685
C5_26 C 0.07311(10) 0.55768(12) 0.78085(11)
C6_26 C 0.06006(13) 0.54889(9) 0.79331(12)
H3_26 H 0.0609 0.5349 0.7951
C7_26 C 0.04573(10) 0.55899(14) 0.80353(9)
H4_26 H 0.0376 0.5521 0.8128
C8_26 C 0.08917(12) 0.54632(11) 0.76957(8)
C9_26 C 0.10845(13) 0.55353(9) 0.76830(10)
H5_26 H 0.1118 0.5657 0.7746
C10_26 C 0.12306(12) 0.54305(10) 0.75776(8)
C11_26 C 0.11715(9) 0.52654(11) 0.74908(8)
H6_26 H 0.1270 0.5196 0.7417
C12_26 C 0.09782(11) 0.51782(9) 0.74941(8)
C13_26 C 0.08438(10) 0.52797(10) 0.75984(10)
H7_26 H 0.0712 0.5229 0.7609
C14_50 C 0.09172(9) 0.5000 0.73945(10)
H8_50 H 0.0973 0.5000 0.7258
H9_50 H 0.0771 0.5000 0.7383
C15_26 C 0.14316(11) 0.55073(12) 0.75761(8)
C16_26 C 0.14802(12) 0.57017(13) 0.76051(8)
H10_26 H 0.1377 0.5796 0.7627
C17_26 C 0.16737(16) 0.57648(9) 0.76033(8)
H11_26 H 0.1703 0.5902 0.7620
C18_26 C 0.18289(10) 0.56272(13) 0.75768(7)
C19_26 C 0.17803(11) 0.54386(12) 0.75528(8)
H12_26 H 0.1882 0.5342 0.7536
C20_26 C 0.15880(15) 0.53795(8) 0.75521(8)
H13_26 H 0.1560 0.5242 0.7534
C21_26 C 0.20339(11) 0.57004(11) 0.75892(8)
Cu5_11 Cu 0.0000 0.377120(12) 0.814840(12)
Cu7_11 Cu 0.0000 0.404750(12) 0.842426(12)
O13_14 O 0.02087(5) 0.39370(6) 0.80323(5)
O15_14 O 0.01998(5) 0.41771(6) 0.82669(6)
O17_14 O 0.20685(5) 0.41210(7) 0.76404(5)
O18_14 O 0.23596(5) 0.58790(7) 0.79315(5)
O19_14 O 0.21669(6) 0.44200(6) 0.75431(5)
O20_14 O 0.24569(5) 0.55800(6) 0.78331(6)
O28_10 O 0.01987(6) 0.63593(5) 0.83149(5)
O30_10 O 0.02007(6) 0.61194(5) 0.85456(7)
C45_26 C 0.02675(7) 0.40961(10) 0.81182(11)
C46_26 C 0.04299(9) 0.42086(13) 0.80051(9)
C47_26 C 0.05585(12) 0.41152(8) 0.78708(11)
H28_26 H 0.0544 0.3977 0.7846
C48_26 C 0.07041(9) 0.42188(13) 0.77757(8)
H29_26 H 0.0789 0.4151 0.7685
C49_26 C 0.07311(10) 0.44232(12) 0.78085(11)
C50_26 C 0.06006(13) 0.45111(9) 0.79331(12)
H30_26 H 0.0609 0.4651 0.7951
C51_26 C 0.04573(10) 0.44101(14) 0.80353(9)
H31_26 H 0.0376 0.4479 0.8128
C52_26 C 0.08917(12) 0.45368(11) 0.76957(8)
C53_26 C 0.10845(13) 0.44647(9) 0.76830(10)
H32_26 H 0.1118 0.4343 0.7746
C54_26 C 0.12306(12) 0.45695(10) 0.75776(8)
C55_26 C 0.11715(9) 0.47346(11) 0.74908(8)
H33_26 H 0.1270 0.4804 0.7417
C56_26 C 0.09782(11) 0.48218(9) 0.74941(8)
C57_26 C 0.08438(10) 0.47203(10) 0.75984(10)
H34_26 H 0.0712 0.4771 0.7609
C58_26 C 0.14316(11) 0.44927(12) 0.75761(8)
C59_26 C 0.14802(12) 0.42983(13) 0.76051(8)
H35_26 H 0.1377 0.4204 0.7627
C60_26 C 0.16737(16) 0.42352(9) 0.76033(8)
H36_26 H 0.1703 0.4098 0.7620
C61_26 C 0.18289(10) 0.43728(13) 0.75768(7)
C62_26 C 0.17803(11) 0.45614(12) 0.75528(8)
H37_26 H 0.1882 0.4658 0.7536
C63_26 C 0.15880(15) 0.46205(8) 0.75521(8)
H38_26 H 0.1560 0.4758 0.7534
C64_26 C 0.20339(11) 0.42996(11) 0.75892(8)
H51_2 H 0.0134617 0.572126 0.872166
Cu6_14 Cu 0.814840(12) 0.622880(12) -0.0000
Cu8_14 Cu 0.842426(12) 0.595250(12) -0.0000
Cu1_9 Cu 1.0000 0.622880(12) 0.814840(12)
Cu2_9 Cu 1.0000 0.595250(12) 0.842426(12)
O7_26 O 0.98013(6) 0.63593(5) 0.83149(5)
O8_26 O 0.97993(6) 0.61194(5) 0.85456(7)
O9_28 O 1.0000 0.64537(6) 0.79161(6)
O10_28 O 1.0000 0.57293(8) 0.86617(8)
C22_26 C 0.90751(10) 0.73874(14) 0.77455(8)
C23_26 C 0.90114(13) 0.73850(12) 0.79574(9)
C24_26 C 0.88232(12) 0.73127(13) 0.80093(9)
H14_26 H 0.8738 0.7265 0.7908
C25_26 C 0.87581(15) 0.73091(9) 0.82053(10)
H15_26 H 0.8630 0.7259 0.8237
C26_26 C 0.88808(11) 0.73792(13) 0.83549(9)
C27_26 C 0.90699(12) 0.74457(12) 0.83055(8)
H16_26 H 0.9158 0.7489 0.8407
C28_26 C 0.91314(14) 0.74486(10) 0.81057(8)
H17_26 H 0.9260 0.7496 0.8074
C29_26 C 0.88261(11) 0.73721(9) 0.85736(7)
C30_26 C 0.86293(8) 0.73839(8) 0.86293(10)
H18_26 H 0.8530 0.7400 0.8530
C31_26 C 0.89686(12) 0.73427(9) 0.87227(7)
H19_26 H 0.9105 0.7334 0.8686
C32_26 C 0.89192(12) 0.73257(12) 0.89192(11)
C33_26 C 0.90713(10) 0.72724(10) 0.90713(14)
H20_26 H 0.9033 0.7330 0.9201
H21_26 H 0.9201 0.7330 0.9033
C34_26 C 0.90915(7) 0.70512(7) 0.90915(14)
C35_26 C 0.92144(7) 0.69448(7) 0.89660(13)
H22_26 H 0.9295 0.7015 0.8874
C36_26 C 0.92235(10) 0.67403(10) 0.89696(11)
C37_26 C 0.90959(9) 0.66445(9) 0.90959(14)
H23_26 H 0.9095 0.6503 0.9095
C38_26 C 0.93552(12) 0.66346(10) 0.88444(11)
C39_26 C 0.94372(9) 0.64600(11) 0.89070(14)
H24_26 H 0.9410 0.6414 0.9038
C40_26 C 0.95587(15) 0.63484(10) 0.87850(8)
H25_26 H 0.9609 0.6225 0.8832
C41_26 C 0.96090(11) 0.64136(10) 0.85932(13)
C42_26 C 0.95345(9) 0.65880(10) 0.85307(12)
H26_26 H 0.9566 0.6639 0.8403
C43_26 C 0.94104(15) 0.66927(10) 0.86593(8)
H27_26 H 0.9360 0.6816 0.8613
C44_26 C 0.97454(11) 0.62842(8) 0.84718(11)
Cu5_12 Cu 1.0000 0.377120(12) 0.814840(12)
Cu6_15 Cu 0.814840(12) 0.622880(12) 1.0000
Cu7_12 Cu 1.0000 0.404750(12) 0.842426(12)
Cu8_15 Cu 0.842426(12) 0.595250(12) 1.0000
O14_14 O 0.97913(5) 0.60630(6) 0.80323(5)
O16_14 O 0.98002(5) 0.58229(6) 0.82669(6)
O27_18 O 0.83149(5) 0.63593(5) 0.98013(6)
O29_18 O 0.85456(7) 0.61194(5) 0.97993(6)
C65_26 C 0.77455(8) 0.73874(14) 0.90751(10)
C66_26 C 0.79574(9) 0.73850(12) 0.90114(13)
C67_26 C 0.80093(9) 0.73127(13) 0.88232(12)
H39_26 H 0.7908 0.7265 0.8738
C68_26 C 0.82053(10) 0.73091(9) 0.87581(15)
H40_26 H 0.8237 0.7259 0.8630
C69_26 C 0.83549(9) 0.73792(13) 0.88808(11)
C70_26 C 0.83055(8) 0.74457(12) 0.90699(12)
H41_26 H 0.8407 0.7489 0.9158
C71_26 C 0.81057(8) 0.74486(10) 0.91314(14)
H42_26 H 0.8074 0.7496 0.9260
C72_26 C 0.85736(7) 0.73721(9) 0.88261(11)
C73_26 C 0.87227(7) 0.73427(9) 0.89686(12)
H43_26 H 0.8686 0.7334 0.9105
C74_26 C 0.89660(13) 0.69448(7) 0.92144(7)
H44_26 H 0.8874 0.7015 0.9295
C75_26 C 0.89696(11) 0.67403(10) 0.92235(10)
C76_26 C 0.88444(11) 0.66346(10) 0.93552(12)
C77_26 C 0.89070(14) 0.64600(11) 0.94372(9)
H45_26 H 0.9038 0.6414 0.9410
C78_26 C 0.87850(8) 0.63484(10) 0.95587(15)
H46_26 H 0.8832 0.6225 0.9609
C79_26 C 0.85932(13) 0.64136(10) 0.96090(11)
C80_26 C 0.85307(12) 0.65880(10) 0.95345(9)
H47_26 H 0.8403 0.6639 0.9566
C81_26 C 0.86593(8) 0.66927(10) 0.94104(15)
H48_26 H 0.8613 0.6816 0.9360
C82_26 C 0.84718(11) 0.62842(8) 0.97454(11)
H52_2 H 0.99022 0.576772 0.876534
H55_2 H 0.99669 0.639082 0.778675
H56_2 H 0.989951 0.655707 0.79477
Cu1_10 Cu 0.622880(12) 0.0000 0.185160(12)
Cu2_10 Cu 0.595250(12) 0.0000 0.157574(12)
O1_27 O 0.60630(6) 0.02087(5) 0.19677(5)
O2_27 O 0.58229(6) 0.01998(5) 0.17331(6)
O3_27 O 0.58790(7) 0.20685(5) 0.23596(5)
O4_27 O 0.55800(6) 0.21669(6) 0.24569(5)
O9_29 O 0.64537(6) 0.0000 0.20839(6)
O10_29 O 0.57293(8) 0.0000 0.13383(8)
O11_27 O 0.62819(7) 0.22420(6) 0.22420(6)
O12_27 O 0.53421(6) 0.25407(5) 0.25407(5)
C1_27 C 0.59039(10) 0.02675(7) 0.18818(11)
C2_27 C 0.57914(13) 0.04299(9) 0.19949(9)
C3_27 C 0.58848(8) 0.05585(12) 0.21292(11)
H1_27 H 0.6023 0.0544 0.2154
C4_27 C 0.57812(13) 0.07041(9) 0.22243(8)
H2_27 H 0.5849 0.0789 0.2315
C5_27 C 0.55768(12) 0.07311(10) 0.21915(11)
C6_27 C 0.54889(9) 0.06006(13) 0.20669(12)
H3_27 H 0.5349 0.0609 0.2049
C7_27 C 0.55899(14) 0.04573(10) 0.19647(9)
H4_27 H 0.5521 0.0376 0.1872
C8_27 C 0.54632(11) 0.08917(12) 0.23043(8)
C9_27 C 0.55353(9) 0.10845(13) 0.23170(10)
H5_27 H 0.5657 0.1118 0.2254
C10_27 C 0.54305(10) 0.12306(12) 0.24224(8)
C11_27 C 0.52654(11) 0.11715(9) 0.25092(8)
H6_27 H 0.5196 0.1270 0.2583
C12_27 C 0.51782(9) 0.09782(11) 0.25059(8)
C13_27 C 0.52797(10) 0.08438(10) 0.24016(10)
H7_27 H 0.5229 0.0712 0.2391
C14_51 C 0.5000 0.09172(9) 0.26055(10)
H8_51 H 0.5000 0.0973 0.2742
H9_51 H 0.5000 0.0771 0.2617
C15_27 C 0.55073(12) 0.14316(11) 0.24239(8)
C16_27 C 0.57017(13) 0.14802(12) 0.23949(8)
H10_27 H 0.5796 0.1377 0.2373
C17_27 C 0.57648(9) 0.16737(16) 0.23967(8)
H11_27 H 0.5902 0.1703 0.2380
C18_27 C 0.56272(13) 0.18289(10) 0.24232(7)
C19_27 C 0.54386(12) 0.17803(11) 0.24472(8)
H12_27 H 0.5342 0.1882 0.2464
C20_27 C 0.53795(8) 0.15880(15) 0.24479(8)
H13_27 H 0.5242 0.1560 0.2466
C21_27 C 0.57004(11) 0.20339(11) 0.24108(8)
Cu5_13 Cu 0.377120(12) 0.0000 0.185160(12)
Cu7_13 Cu 0.404750(12) 0.0000 0.157574(12)
O13_15 O 0.39370(6) 0.02087(5) 0.19677(5)
O15_15 O 0.41771(6) 0.01998(5) 0.17331(6)
O17_15 O 0.41210(7) 0.20685(5) 0.23596(5)
O18_15 O 0.58790(7) 0.23596(5) 0.20685(5)
O19_15 O 0.44200(6) 0.21669(6) 0.24569(5)
O20_15 O 0.55800(6) 0.24569(5) 0.21669(6)
O28_11 O 0.63593(5) 0.01987(6) 0.16851(5)
O30_11 O 0.61194(5) 0.02007(6) 0.14544(7)
C45_27 C 0.40961(10) 0.02675(7) 0.18818(11)
C46_27 C 0.42086(13) 0.04299(9) 0.19949(9)
C47_27 C 0.41152(8) 0.05585(12) 0.21292(11)
H28_27 H 0.3977 0.0544 0.2154
C48_27 C 0.42188(13) 0.07041(9) 0.22243(8)
H29_27 H 0.4151 0.0789 0.2315
C49_27 C 0.44232(12) 0.07311(10) 0.21915(11)
C50_27 C 0.45111(9) 0.06006(13) 0.20669(12)
H30_27 H 0.4651 0.0609 0.2049
C51_27 C 0.44101(14) 0.04573(10) 0.19647(9)
H31_27 H 0.4479 0.0376 0.1872
C52_27 C 0.45368(11) 0.08917(12) 0.23043(8)
C53_27 C 0.44647(9) 0.10845(13) 0.23170(10)
H32_27 H 0.4343 0.1118 0.2254
C54_27 C 0.45695(10) 0.12306(12) 0.24224(8)
C55_27 C 0.47346(11) 0.11715(9) 0.25092(8)
H33_27 H 0.4804 0.1270 0.2583
C56_27 C 0.48218(9) 0.09782(11) 0.25059(8)
C57_27 C 0.47203(10) 0.08438(10) 0.24016(10)
H34_27 H 0.4771 0.0712 0.2391
C58_27 C 0.44927(12) 0.14316(11) 0.24239(8)
C59_27 C 0.42983(13) 0.14802(12) 0.23949(8)
H35_27 H 0.4204 0.1377 0.2373
C60_27 C 0.42352(9) 0.16737(16) 0.23967(8)
H36_27 H 0.4098 0.1703 0.2380
C61_27 C 0.43728(13) 0.18289(10) 0.24232(7)
C62_27 C 0.45614(12) 0.17803(11) 0.24472(8)
H37_27 H 0.4658 0.1882 0.2464
C63_27 C 0.46205(8) 0.15880(15) 0.24479(8)
H38_27 H 0.4758 0.1560 0.2466
C64_27 C 0.42996(11) 0.20339(11) 0.24108(8)
H51_3 H 0.572126 0.0134617 0.127834
Cu1_11 Cu 0.622880(12) 1.0000 0.185160(12)
Cu2_11 Cu 0.595250(12) 1.0000 0.157574(12)
O7_27 O 0.63593(5) 0.98013(6) 0.16851(5)
O8_27 O 0.61194(5) 0.97993(6) 0.14544(7)
O9_30 O 0.64537(6) 1.0000 0.20839(6)
O10_30 O 0.57293(8) 1.0000 0.13383(8)
C22_27 C 0.73874(14) 0.90751(10) 0.22545(8)
C23_27 C 0.73850(12) 0.90114(13) 0.20426(9)
C24_27 C 0.73127(13) 0.88232(12) 0.19907(9)
H14_27 H 0.7265 0.8738 0.2092
C25_27 C 0.73091(9) 0.87581(15) 0.17947(10)
H15_27 H 0.7259 0.8630 0.1763
C26_27 C 0.73792(13) 0.88808(11) 0.16451(9)
C27_27 C 0.74457(12) 0.90699(12) 0.16945(8)
H16_27 H 0.7489 0.9158 0.1593
C28_27 C 0.74486(10) 0.91314(14) 0.18943(8)
H17_27 H 0.7496 0.9260 0.1926
C29_27 C 0.73721(9) 0.88261(11) 0.14264(7)
C30_27 C 0.73839(8) 0.86293(8) 0.13707(10)
H18_27 H 0.7400 0.8530 0.1470
C31_27 C 0.73427(9) 0.89686(12) 0.12773(7)
H19_27 H 0.7334 0.9105 0.1314
C32_27 C 0.73257(12) 0.89192(12) 0.10808(11)
C33_27 C 0.72724(10) 0.90713(10) 0.09287(14)
H20_27 H 0.7330 0.9033 0.0799
H21_27 H 0.7330 0.9201 0.0967
C34_27 C 0.70512(7) 0.90915(7) 0.09085(14)
C35_27 C 0.69448(7) 0.92144(7) 0.10340(13)
H22_27 H 0.7015 0.9295 0.1126
C36_27 C 0.67403(10) 0.92235(10) 0.10304(11)
C37_27 C 0.66445(9) 0.90959(9) 0.09041(14)
H23_27 H 0.6503 0.9095 0.0905
C38_27 C 0.66346(10) 0.93552(12) 0.11556(11)
C39_27 C 0.64600(11) 0.94372(9) 0.10930(14)
H24_27 H 0.6414 0.9410 0.0962
C40_27 C 0.63484(10) 0.95587(15) 0.12150(8)
H25_27 H 0.6225 0.9609 0.1168
C41_27 C 0.64136(10) 0.96090(11) 0.14068(13)
C42_27 C 0.65880(10) 0.95345(9) 0.14693(12)
H26_27 H 0.6639 0.9566 0.1597
C43_27 C 0.66927(10) 0.94104(15) 0.13407(8)
H27_27 H 0.6816 0.9360 0.1387
C44_27 C 0.62842(8) 0.97454(11) 0.15282(11)
Cu5_14 Cu 0.377120(12) 1.0000 0.185160(12)
Cu6_16 Cu 0.622880(12) 0.814840(12) 0.0000
Cu7_14 Cu 0.404750(12) 1.0000 0.157574(12)
Cu8_16 Cu 0.595250(12) 0.842426(12) 0.0000
O14_15 O 0.60630(6) 0.97913(5) 0.19677(5)
O16_15 O 0.58229(6) 0.98002(5) 0.17331(6)
O27_19 O 0.63593(5) 0.83149(5) 0.01987(6)
O29_19 O 0.61194(5) 0.85456(7) 0.02007(6)
C65_27 C 0.73874(14) 0.77455(8) 0.09249(10)
C66_27 C 0.73850(12) 0.79574(9) 0.09886(13)
C67_27 C 0.73127(13) 0.80093(9) 0.11768(12)
H39_27 H 0.7265 0.7908 0.1262
C68_27 C 0.73091(9) 0.82053(10) 0.12419(15)
H40_27 H 0.7259 0.8237 0.1370
C69_27 C 0.73792(13) 0.83549(9) 0.11192(11)
C70_27 C 0.74457(12) 0.83055(8) 0.09301(12)
H41_27 H 0.7489 0.8407 0.0842
C71_27 C 0.74486(10) 0.81057(8) 0.08686(14)
H42_27 H 0.7496 0.8074 0.0740
C72_27 C 0.73721(9) 0.85736(7) 0.11739(11)
C73_27 C 0.73427(9) 0.87227(7) 0.10314(12)
H43_27 H 0.7334 0.8686 0.0895
C74_27 C 0.69448(7) 0.89660(13) 0.07856(7)
H44_27 H 0.7015 0.8874 0.0705
C75_27 C 0.67403(10) 0.89696(11) 0.07765(10)
C76_27 C 0.66346(10) 0.88444(11) 0.06448(12)
C77_27 C 0.64600(11) 0.89070(14) 0.05628(9)
H45_27 H 0.6414 0.9038 0.0590
C78_27 C 0.63484(10) 0.87850(8) 0.04413(15)
H46_27 H 0.6225 0.8832 0.0391
C79_27 C 0.64136(10) 0.85932(13) 0.03910(11)
C80_27 C 0.65880(10) 0.85307(12) 0.04655(9)
H47_27 H 0.6639 0.8403 0.0434
C81_27 C 0.66927(10) 0.86593(8) 0.05896(15)
H48_27 H 0.6816 0.8613 0.0640
C82_27 C 0.62842(8) 0.84718(11) 0.02546(11)
H52_3 H 0.576772 0.99022 0.123466
H55_3 H 0.639082 0.99669 0.221325
H56_3 H 0.655707 0.989951 0.20523
Cu6_17 Cu 0.622880(12) 0.814840(12) 1.0000
Cu8_17 Cu 0.595250(12) 0.842426(12) 1.0000
Cu6_18 Cu -0.0000 0.622880(12) 0.185160(12)
Cu8_18 Cu -0.0000 0.595250(12) 0.157574(12)
O7_28 O 0.83149(5) 0.63593(5) 0.01987(6)
O8_28 O 0.85456(7) 0.61194(5) 0.02007(6)
O9_31 O 0.79161(6) 0.64537(6) -0.0000
O10_31 O 0.86617(8) 0.57293(8) -0.0000
C22_28 C 0.77455(8) 0.73874(14) 0.09249(10)
C23_28 C 0.79574(9) 0.73850(12) 0.09886(13)
C24_28 C 0.80093(9) 0.73127(13) 0.11768(12)
H14_28 H 0.7908 0.7265 0.1262
C25_28 C 0.82053(10) 0.73091(9) 0.12419(15)
H15_28 H 0.8237 0.7259 0.1370
C26_28 C 0.83549(9) 0.73792(13) 0.11192(11)
C27_28 C 0.83055(8) 0.74457(12) 0.09301(12)
H16_28 H 0.8407 0.7489 0.0842
C28_28 C 0.81057(8) 0.74486(10) 0.08686(14)
H17_28 H 0.8074 0.7496 0.0740
C29_28 C 0.85736(7) 0.73721(9) 0.11739(11)
C30_28 C 0.86293(10) 0.73839(8) 0.13707(8)
H18_28 H 0.8530 0.7400 0.1470
C31_28 C 0.87227(7) 0.73427(9) 0.10314(12)
H19_28 H 0.8686 0.7334 0.0895
C32_28 C 0.89192(11) 0.73257(12) 0.10808(12)
C33_28 C 0.90713(14) 0.72724(10) 0.09287(10)
H20_28 H 0.9201 0.7330 0.0967
H21_28 H 0.9033 0.7330 0.0799
C34_28 C 0.90915(14) 0.70512(7) 0.09085(7)
C35_28 C 0.89660(13) 0.69448(7) 0.07856(7)
H22_28 H 0.8874 0.7015 0.0705
C36_28 C 0.89696(11) 0.67403(10) 0.07765(10)
C37_28 C 0.90959(14) 0.66445(9) 0.09041(9)
H23_28 H 0.9095 0.6503 0.0905
C38_28 C 0.88444(11) 0.66346(10) 0.06448(12)
C39_28 C 0.89070(14) 0.64600(11) 0.05628(9)
H24_28 H 0.9038 0.6414 0.0590
C40_28 C 0.87850(8) 0.63484(10) 0.04413(15)
H25_28 H 0.8832 0.6225 0.0391
C41_28 C 0.85932(13) 0.64136(10) 0.03910(11)
C42_28 C 0.85307(12) 0.65880(10) 0.04655(9)
H26_28 H 0.8403 0.6639 0.0434
C43_28 C 0.86593(8) 0.66927(10) 0.05896(15)
H27_28 H 0.8613 0.6816 0.0640
C44_28 C 0.84718(11) 0.62842(8) 0.02546(11)
Cu5_15 Cu 0.814840(12) 0.377120(12) -0.0000
Cu6_19 Cu 1.0000 0.622880(12) 0.185160(12)
Cu7_15 Cu 0.842426(12) 0.404750(12) -0.0000
Cu8_19 Cu 1.0000 0.595250(12) 0.157574(12)
O14_16 O 0.80323(5) 0.60630(6) 0.02087(5)
O16_16 O 0.82669(6) 0.58229(6) 0.01998(5)
O27_20 O 0.98013(6) 0.63593(5) 0.16851(5)
O29_20 O 0.97993(6) 0.61194(5) 0.14544(7)
C65_28 C 0.90751(10) 0.73874(14) 0.22545(8)
C66_28 C 0.90114(13) 0.73850(12) 0.20426(9)
C67_28 C 0.88232(12) 0.73127(13) 0.19907(9)
H39_28 H 0.8738 0.7265 0.2092
C68_28 C 0.87581(15) 0.73091(9) 0.17947(10)
H40_28 H 0.8630 0.7259 0.1763
C69_28 C 0.88808(11) 0.73792(13) 0.16451(9)
C70_28 C 0.90699(12) 0.74457(12) 0.16945(8)
H41_28 H 0.9158 0.7489 0.1593
C71_28 C 0.91314(14) 0.74486(10) 0.18943(8)
H42_28 H 0.9260 0.7496 0.1926
C72_28 C 0.88261(11) 0.73721(9) 0.14264(7)
C73_28 C 0.89686(12) 0.73427(9) 0.12773(7)
H43_28 H 0.9105 0.7334 0.1314
C74_28 C 0.92144(7) 0.69448(7) 0.10340(13)
H44_28 H 0.9295 0.7015 0.1126
C75_28 C 0.92235(10) 0.67403(10) 0.10304(11)
C76_28 C 0.93552(12) 0.66346(10) 0.11556(11)
C77_28 C 0.94372(9) 0.64600(11) 0.10930(14)
H45_28 H 0.9410 0.6414 0.0962
C78_28 C 0.95587(15) 0.63484(10) 0.12150(8)
H46_28 H 0.9609 0.6225 0.1168
C79_28 C 0.96090(11) 0.64136(10) 0.14068(13)
C80_28 C 0.95345(9) 0.65880(10) 0.14693(12)
H47_28 H 0.9566 0.6639 0.1597
C81_28 C 0.94104(15) 0.66927(10) 0.13407(8)
H48_28 H 0.9360 0.6816 0.1387
C82_28 C 0.97454(11) 0.62842(8) 0.15282(11)
H52_4 H 0.876534 0.576772 0.00977993
H55_4 H 0.778675 0.639082 0.0033103
H56_4 H 0.79477 0.655707 0.0100492
O1_28 O 0.80323(5) 0.60630(6) 0.97913(5)
O2_28 O 0.82669(6) 0.58229(6) 0.98002(5)
O3_28 O 0.76404(5) 0.58790(7) 0.79315(5)
O4_28 O 0.75431(5) 0.55800(6) 0.78331(6)
O9_32 O 0.79161(6) 0.64537(6) 1.0000
O10_32 O 0.86617(8) 0.57293(8) 1.0000
O11_28 O 0.77580(6) 0.62819(7) 0.77580(6)
O12_28 O 0.74593(5) 0.53421(6) 0.74593(5)
C1_28 C 0.81182(11) 0.59039(10) 0.97325(7)
C2_28 C 0.80051(9) 0.57914(13) 0.95701(9)
C3_28 C 0.78708(11) 0.58848(8) 0.94415(12)
H1_28 H 0.7846 0.6023 0.9456
C4_28 C 0.77757(8) 0.57812(13) 0.92959(9)
H2_28 H 0.7685 0.5849 0.9211
C5_28 C 0.78085(11) 0.55768(12) 0.92689(10)
C6_28 C 0.79331(12) 0.54889(9) 0.93994(13)
H3_28 H 0.7951 0.5349 0.9391
C7_28 C 0.80353(9) 0.55899(14) 0.95427(10)
H4_28 H 0.8128 0.5521 0.9624
C8_28 C 0.76957(8) 0.54632(11) 0.91083(12)
C9_28 C 0.76830(10) 0.55353(9) 0.89155(13)
H5_28 H 0.7746 0.5657 0.8882
C10_28 C 0.75776(8) 0.54305(10) 0.87694(12)
C11_28 C 0.74908(8) 0.52654(11) 0.88285(9)
H6_28 H 0.7417 0.5196 0.8730
C12_28 C 0.74941(8) 0.51782(9) 0.90218(11)
C13_28 C 0.75984(10) 0.52797(10) 0.91562(10)
H7_28 H 0.7609 0.5229 0.9288
C14_52 C 0.73945(10) 0.5000 0.90828(9)
H8_52 H 0.7258 0.5000 0.9027
H9_52 H 0.7383 0.5000 0.9229
C15_28 C 0.75761(8) 0.55073(12) 0.85684(11)
C16_28 C 0.76051(8) 0.57017(13) 0.85198(12)
H10_28 H 0.7627 0.5796 0.8623
C17_28 C 0.76033(8) 0.57648(9) 0.83263(16)
H11_28 H 0.7620 0.5902 0.8297
C18_28 C 0.75768(7) 0.56272(13) 0.81711(10)
C19_28 C 0.75528(8) 0.54386(12) 0.82197(11)
H12_28 H 0.7536 0.5342 0.8118
C20_28 C 0.75521(8) 0.53795(8) 0.84120(15)
H13_28 H 0.7534 0.5242 0.8440
C21_28 C 0.75892(8) 0.57004(11) 0.79661(11)
Cu5_16 Cu 0.814840(12) 0.377120(12) 1.0000
Cu7_16 Cu 0.842426(12) 0.404750(12) 1.0000
O13_16 O 0.80323(5) 0.39370(6) 0.97913(5)
O15_16 O 0.82669(6) 0.41771(6) 0.98002(5)
O17_16 O 0.76404(5) 0.41210(7) 0.79315(5)
O18_16 O 0.79315(5) 0.58790(7) 0.76404(5)
O19_16 O 0.75431(5) 0.44200(6) 0.78331(6)
O20_16 O 0.78331(6) 0.55800(6) 0.75431(5)
C45_28 C 0.81182(11) 0.40961(10) 0.97325(7)
C46_28 C 0.80051(9) 0.42086(13) 0.95701(9)
C47_28 C 0.78708(11) 0.41152(8) 0.94415(12)
H28_28 H 0.7846 0.3977 0.9456
C48_28 C 0.77757(8) 0.42188(13) 0.92959(9)
H29_28 H 0.7685 0.4151 0.9211
C49_28 C 0.78085(11) 0.44232(12) 0.92689(10)
C50_28 C 0.79331(12) 0.45111(9) 0.93994(13)
H30_28 H 0.7951 0.4651 0.9391
C51_28 C 0.80353(9) 0.44101(14) 0.95427(10)
H31_28 H 0.8128 0.4479 0.9624
C52_28 C 0.76957(8) 0.45368(11) 0.91083(12)
C53_28 C 0.76830(10) 0.44647(9) 0.89155(13)
H32_28 H 0.7746 0.4343 0.8882
C54_28 C 0.75776(8) 0.45695(10) 0.87694(12)
C55_28 C 0.74908(8) 0.47346(11) 0.88285(9)
H33_28 H 0.7417 0.4804 0.8730
C56_28 C 0.74941(8) 0.48218(9) 0.90218(11)
C57_28 C 0.75984(10) 0.47203(10) 0.91562(10)
H34_28 H 0.7609 0.4771 0.9288
C58_28 C 0.75761(8) 0.44927(12) 0.85684(11)
C59_28 C 0.76051(8) 0.42983(13) 0.85198(12)
H35_28 H 0.7627 0.4204 0.8623
C60_28 C 0.76033(8) 0.42352(9) 0.83263(16)
H36_28 H 0.7620 0.4098 0.8297
C61_28 C 0.75768(7) 0.43728(13) 0.81711(10)
C62_28 C 0.75528(8) 0.45614(12) 0.82197(11)
H37_28 H 0.7536 0.4658 0.8118
C63_28 C 0.75521(8) 0.46205(8) 0.84120(15)
H38_28 H 0.7534 0.4758 0.8440
C64_28 C 0.75892(8) 0.42996(11) 0.79661(11)
H51_4 H 0.872166 0.572126 0.986538
O1_29 O 0.39370(6) 0.02087(5) 0.80323(5)
O2_29 O 0.41771(6) 0.01998(5) 0.82669(6)
O3_29 O 0.41210(7) 0.20685(5) 0.76404(5)
O4_29 O 0.44200(6) 0.21669(6) 0.75431(5)
O9_33 O 0.35463(6) 0.0000 0.79161(6)
O10_33 O 0.42707(8) 0.0000 0.86617(8)
O11_29 O 0.37181(7) 0.22420(6) 0.77580(6)
O12_29 O 0.46579(6) 0.25407(5) 0.74593(5)
C1_29 C 0.40961(10) 0.02675(7) 0.81182(11)
C2_29 C 0.42086(13) 0.04299(9) 0.80051(9)
C3_29 C 0.41152(8) 0.05585(12) 0.78708(11)
H1_29 H 0.3977 0.0544 0.7846
C4_29 C 0.42188(13) 0.07041(9) 0.77757(8)
H2_29 H 0.4151 0.0789 0.7685
C5_29 C 0.44232(12) 0.07311(10) 0.78085(11)
C6_29 C 0.45111(9) 0.06006(13) 0.79331(12)
H3_29 H 0.4651 0.0609 0.7951
C7_29 C 0.44101(14) 0.04573(10) 0.80353(9)
H4_29 H 0.4479 0.0376 0.8128
C8_29 C 0.45368(11) 0.08917(12) 0.76957(8)
C9_29 C 0.44647(9) 0.10845(13) 0.76830(10)
H5_29 H 0.4343 0.1118 0.7746
C10_29 C 0.45695(10) 0.12306(12) 0.75776(8)
C11_29 C 0.47346(11) 0.11715(9) 0.74908(8)
H6_29 H 0.4804 0.1270 0.7417
C12_29 C 0.48218(9) 0.09782(11) 0.74941(8)
C13_29 C 0.47203(10) 0.08438(10) 0.75984(10)
H7_29 H 0.4771 0.0712 0.7609
C14_53 C 0.5000 0.09172(9) 0.73945(10)
H8_53 H 0.5000 0.0973 0.7258
H9_53 H 0.5000 0.0771 0.7383
C15_29 C 0.44927(12) 0.14316(11) 0.75761(8)
C16_29 C 0.42983(13) 0.14802(12) 0.76051(8)
H10_29 H 0.4204 0.1377 0.7627
C17_29 C 0.42352(9) 0.16737(16) 0.76033(8)
H11_29 H 0.4098 0.1703 0.7620
C18_29 C 0.43728(13) 0.18289(10) 0.75768(7)
C19_29 C 0.45614(12) 0.17803(11) 0.75528(8)
H12_29 H 0.4658 0.1882 0.7536
C20_29 C 0.46205(8) 0.15880(15) 0.75521(8)
H13_29 H 0.4758 0.1560 0.7534
C21_29 C 0.42996(11) 0.20339(11) 0.75892(8)
O17_17 O 0.58790(7) 0.20685(5) 0.76404(5)
O18_17 O 0.41210(7) 0.23596(5) 0.79315(5)
O19_17 O 0.55800(6) 0.21669(6) 0.75431(5)
O20_17 O 0.44200(6) 0.24569(5) 0.78331(6)
O28_12 O 0.36407(5) 0.01987(6) 0.83149(5)
O30_12 O 0.38806(5) 0.02007(6) 0.85456(7)
C45_29 C 0.59039(10) 0.02675(7) 0.81182(11)
C46_29 C 0.57914(13) 0.04299(9) 0.80051(9)
C47_29 C 0.58848(8) 0.05585(12) 0.78708(11)
H28_29 H 0.6023 0.0544 0.7846
C48_29 C 0.57812(13) 0.07041(9) 0.77757(8)
H29_29 H 0.5849 0.0789 0.7685
C49_29 C 0.55768(12) 0.07311(10) 0.78085(11)
C50_29 C 0.54889(9) 0.06006(13) 0.79331(12)
H30_29 H 0.5349 0.0609 0.7951
C51_29 C 0.55899(14) 0.04573(10) 0.80353(9)
H31_29 H 0.5521 0.0376 0.8128
C52_29 C 0.54632(11) 0.08917(12) 0.76957(8)
C53_29 C 0.55353(9) 0.10845(13) 0.76830(10)
H32_29 H 0.5657 0.1118 0.7746
C54_29 C 0.54305(10) 0.12306(12) 0.75776(8)
C55_29 C 0.52654(11) 0.11715(9) 0.74908(8)
H33_29 H 0.5196 0.1270 0.7417
C56_29 C 0.51782(9) 0.09782(11) 0.74941(8)
C57_29 C 0.52797(10) 0.08438(10) 0.75984(10)
H34_29 H 0.5229 0.0712 0.7609
C58_29 C 0.55073(12) 0.14316(11) 0.75761(8)
C59_29 C 0.57017(13) 0.14802(12) 0.76051(8)
H35_29 H 0.5796 0.1377 0.7627
C60_29 C 0.57648(9) 0.16737(16) 0.76033(8)
H36_29 H 0.5902 0.1703 0.7620
C61_29 C 0.56272(13) 0.18289(10) 0.75768(7)
C62_29 C 0.54386(12) 0.17803(11) 0.75528(8)
H37_29 H 0.5342 0.1882 0.7536
C63_29 C 0.53795(8) 0.15880(15) 0.75521(8)
H38_29 H 0.5242 0.1560 0.7534
C64_29 C 0.57004(11) 0.20339(11) 0.75892(8)
H51_5 H 0.427874 0.0134617 0.872166
Cu6_20 Cu 0.377120(12) 0.814840(12) -0.0000
Cu8_20 Cu 0.404750(12) 0.842426(12) -0.0000
O7_29 O 0.36407(5) 0.98013(6) 0.83149(5)
O8_29 O 0.38806(5) 0.97993(6) 0.85456(7)
O9_34 O 0.35463(6) 1.0000 0.79161(6)
O10_34 O 0.42707(8) 1.0000 0.86617(8)
C22_29 C 0.26126(14) 0.90751(10) 0.77455(8)
C23_29 C 0.26150(12) 0.90114(13) 0.79574(9)
C24_29 C 0.26873(13) 0.88232(12) 0.80093(9)
H14_29 H 0.2735 0.8738 0.7908
C25_29 C 0.26909(9) 0.87581(15) 0.82053(10)
H15_29 H 0.2741 0.8630 0.8237
C26_29 C 0.26208(13) 0.88808(11) 0.83549(9)
C27_29 C 0.25543(12) 0.90699(12) 0.83055(8)
H16_29 H 0.2511 0.9158 0.8407
C28_29 C 0.25514(10) 0.91314(14) 0.81057(8)
H17_29 H 0.2504 0.9260 0.8074
C29_29 C 0.26279(9) 0.88261(11) 0.85736(7)
C30_29 C 0.26161(8) 0.86293(8) 0.86293(10)
H18_29 H 0.2600 0.8530 0.8530
C31_29 C 0.26573(9) 0.89686(12) 0.87227(7)
H19_29 H 0.2666 0.9105 0.8686
C32_29 C 0.26743(12) 0.89192(12) 0.89192(11)
C33_29 C 0.27276(10) 0.90713(10) 0.90713(14)
H20_29 H 0.2670 0.9033 0.9201
H21_29 H 0.2670 0.9201 0.9033
C34_29 C 0.29488(7) 0.90915(7) 0.90915(14)
C35_29 C 0.30552(7) 0.92144(7) 0.89660(13)
H22_29 H 0.2985 0.9295 0.8874
C36_29 C 0.32597(10) 0.92235(10) 0.89696(11)
C37_29 C 0.33555(9) 0.90959(9) 0.90959(14)
H23_29 H 0.3497 0.9095 0.9095
C38_29 C 0.33654(10) 0.93552(12) 0.88444(11)
C39_29 C 0.35400(11) 0.94372(9) 0.89070(14)
H24_29 H 0.3586 0.9410 0.9038
C40_29 C 0.36516(10) 0.95587(15) 0.87850(8)
H25_29 H 0.3775 0.9609 0.8832
C41_29 C 0.35864(10) 0.96090(11) 0.85932(13)
C42_29 C 0.34120(10) 0.95345(9) 0.85307(12)
H26_29 H 0.3361 0.9566 0.8403
C43_29 C 0.33073(10) 0.94104(15) 0.86593(8)
H27_29 H 0.3184 0.9360 0.8613
C44_29 C 0.37158(8) 0.97454(11) 0.84718(11)
Cu6_21 Cu 0.377120(12) 0.814840(12) 1.0000
Cu8_21 Cu 0.404750(12) 0.842426(12) 1.0000
O27_21 O 0.36407(5) 0.83149(5) 0.98013(6)
O29_21 O 0.38806(5) 0.85456(7) 0.97993(6)
C65_29 C 0.26126(14) 0.77455(8) 0.90751(10)
C66_29 C 0.26150(12) 0.79574(9) 0.90114(13)
C67_29 C 0.26873(13) 0.80093(9) 0.88232(12)
H39_29 H 0.2735 0.7908 0.8738
C68_29 C 0.26909(9) 0.82053(10) 0.87581(15)
H40_29 H 0.2741 0.8237 0.8630
C69_29 C 0.26208(13) 0.83549(9) 0.88808(11)
C70_29 C 0.25543(12) 0.83055(8) 0.90699(12)
H41_29 H 0.2511 0.8407 0.9158
C71_29 C 0.25514(10) 0.81057(8) 0.91314(14)
H42_29 H 0.2504 0.8074 0.9260
C72_29 C 0.26279(9) 0.85736(7) 0.88261(11)
C73_29 C 0.26573(9) 0.87227(7) 0.89686(12)
H43_29 H 0.2666 0.8686 0.9105
C74_29 C 0.30552(7) 0.89660(13) 0.92144(7)
H44_29 H 0.2985 0.8874 0.9295
C75_29 C 0.32597(10) 0.89696(11) 0.92235(10)
C76_29 C 0.33654(10) 0.88444(11) 0.93552(12)
C77_29 C 0.35400(11) 0.89070(14) 0.94372(9)
H45_29 H 0.3586 0.9038 0.9410
C78_29 C 0.36516(10) 0.87850(8) 0.95587(15)
H46_29 H 0.3775 0.8832 0.9609
C79_29 C 0.35864(10) 0.85932(13) 0.96090(11)
C80_29 C 0.34120(10) 0.85307(12) 0.95345(9)
H47_29 H 0.3361 0.8403 0.9566
C81_29 C 0.33073(10) 0.86593(8) 0.94104(15)
H48_29 H 0.3184 0.8613 0.9360
C82_29 C 0.37158(8) 0.84718(11) 0.97454(11)
H52_5 H 0.423228 0.99022 0.876534
H55_5 H 0.360918 0.99669 0.778675
H56_5 H 0.344293 0.989951 0.79477
O7_30 O 0.01987(6) 0.63593(5) 0.16851(5)
O8_30 O 0.02007(6) 0.61194(5) 0.14544(7)
O9_35 O -0.0000 0.64537(6) 0.20839(6)
O10_35 O -0.0000 0.57293(8) 0.13383(8)
C22_30 C 0.09249(10) 0.73874(14) 0.22545(8)
C23_30 C 0.09886(13) 0.73850(12) 0.20426(9)
C24_30 C 0.11768(12) 0.73127(13) 0.19907(9)
H14_30 H 0.1262 0.7265 0.2092
C25_30 C 0.12419(15) 0.73091(9) 0.17947(10)
H15_30 H 0.1370 0.7259 0.1763
C26_30 C 0.11192(11) 0.73792(13) 0.16451(9)
C27_30 C 0.09301(12) 0.74457(12) 0.16945(8)
H16_30 H 0.0842 0.7489 0.1593
C28_30 C 0.08686(14) 0.74486(10) 0.18943(8)
H17_30 H 0.0740 0.7496 0.1926
C29_30 C 0.11739(11) 0.73721(9) 0.14264(7)
C30_30 C 0.13707(8) 0.73839(8) 0.13707(10)
H18_30 H 0.1470 0.7400 0.1470
C31_30 C 0.10314(12) 0.73427(9) 0.12773(7)
H19_30 H 0.0895 0.7334 0.1314
C32_30 C 0.10808(12) 0.73257(12) 0.10808(11)
C33_30 C 0.09287(10) 0.72724(10) 0.09287(14)
H20_30 H 0.0967 0.7330 0.0799
H21_30 H 0.0799 0.7330 0.0967
C34_30 C 0.09085(7) 0.70512(7) 0.09085(14)
C35_30 C 0.07856(7) 0.69448(7) 0.10340(13)
H22_30 H 0.0705 0.7015 0.1126
C36_30 C 0.07765(10) 0.67403(10) 0.10304(11)
C37_30 C 0.09041(9) 0.66445(9) 0.09041(14)
H23_30 H 0.0905 0.6503 0.0905
C38_30 C 0.06448(12) 0.66346(10) 0.11556(11)
C39_30 C 0.05628(9) 0.64600(11) 0.10930(14)
H24_30 H 0.0590 0.6414 0.0962
C40_30 C 0.04413(15) 0.63484(10) 0.12150(8)
H25_30 H 0.0391 0.6225 0.1168
C41_30 C 0.03910(11) 0.64136(10) 0.14068(13)
C42_30 C 0.04655(9) 0.65880(10) 0.14693(12)
H26_30 H 0.0434 0.6639 0.1597
C43_30 C 0.05896(15) 0.66927(10) 0.13407(8)
H27_30 H 0.0640 0.6816 0.1387
C44_30 C 0.02546(11) 0.62842(8) 0.15282(11)
Cu5_17 Cu -0.0000 0.377120(12) 0.185160(12)
Cu6_22 Cu 0.185160(12) 0.622880(12) 0.0000
Cu7_17 Cu -0.0000 0.404750(12) 0.157574(12)
Cu8_22 Cu 0.157574(12) 0.595250(12) 0.0000
O14_17 O 0.02087(5) 0.60630(6) 0.19677(5)
O16_17 O 0.01998(5) 0.58229(6) 0.17331(6)
O27_22 O 0.16851(5) 0.63593(5) 0.01987(6)
O29_22 O 0.14544(7) 0.61194(5) 0.02007(6)
C65_30 C 0.22545(8) 0.73874(14) 0.09249(10)
C66_30 C 0.20426(9) 0.73850(12) 0.09886(13)
C67_30 C 0.19907(9) 0.73127(13) 0.11768(12)
H39_30 H 0.2092 0.7265 0.1262
C68_30 C 0.17947(10) 0.73091(9) 0.12419(15)
H40_30 H 0.1763 0.7259 0.1370
C69_30 C 0.16451(9) 0.73792(13) 0.11192(11)
C70_30 C 0.16945(8) 0.74457(12) 0.09301(12)
H41_30 H 0.1593 0.7489 0.0842
C71_30 C 0.18943(8) 0.74486(10) 0.08686(14)
H42_30 H 0.1926 0.7496 0.0740
C72_30 C 0.14264(7) 0.73721(9) 0.11739(11)
C73_30 C 0.12773(7) 0.73427(9) 0.10314(12)
H43_30 H 0.1314 0.7334 0.0895
C74_30 C 0.10340(13) 0.69448(7) 0.07856(7)
H44_30 H 0.1126 0.7015 0.0705
C75_30 C 0.10304(11) 0.67403(10) 0.07765(10)
C76_30 C 0.11556(11) 0.66346(10) 0.06448(12)
C77_30 C 0.10930(14) 0.64600(11) 0.05628(9)
H45_30 H 0.0962 0.6414 0.0590
C78_30 C 0.12150(8) 0.63484(10) 0.04413(15)
H46_30 H 0.1168 0.6225 0.0391
C79_30 C 0.14068(13) 0.64136(10) 0.03910(11)
C80_30 C 0.14693(12) 0.65880(10) 0.04655(9)
H47_30 H 0.1597 0.6639 0.0434
C81_30 C 0.13407(8) 0.66927(10) 0.05896(15)
H48_30 H 0.1387 0.6816 0.0640
C82_30 C 0.15282(11) 0.62842(8) 0.02546(11)
H52_6 H 0.00977993 0.576772 0.123466
H55_6 H 0.0033103 0.639082 0.221325
H56_6 H 0.0100492 0.655707 0.20523
Cu6_23 Cu 0.185160(12) 0.622880(12) 1.0000
Cu8_23 Cu 0.157574(12) 0.595250(12) 1.0000
O1_30 O 0.97913(5) 0.60630(6) 0.19677(5)
O2_30 O 0.98002(5) 0.58229(6) 0.17331(6)
O3_30 O 0.79315(5) 0.58790(7) 0.23596(5)
O4_30 O 0.78331(6) 0.55800(6) 0.24569(5)
O9_36 O 1.0000 0.64537(6) 0.20839(6)
O10_36 O 1.0000 0.57293(8) 0.13383(8)
O11_30 O 0.77580(6) 0.62819(7) 0.22420(6)
O12_30 O 0.74593(5) 0.53421(6) 0.25407(5)
C1_30 C 0.97325(7) 0.59039(10) 0.18818(11)
C2_30 C 0.95701(9) 0.57914(13) 0.19949(9)
C3_30 C 0.94415(12) 0.58848(8) 0.21292(11)
H1_30 H 0.9456 0.6023 0.2154
C4_30 C 0.92959(9) 0.57812(13) 0.22243(8)
H2_30 H 0.9211 0.5849 0.2315
C5_30 C 0.92689(10) 0.55768(12) 0.21915(11)
C6_30 C 0.93994(13) 0.54889(9) 0.20669(12)
H3_30 H 0.9391 0.5349 0.2049
C7_30 C 0.95427(10) 0.55899(14) 0.19647(9)
H4_30 H 0.9624 0.5521 0.1872
C8_30 C 0.91083(12) 0.54632(11) 0.23043(8)
C9_30 C 0.89155(13) 0.55353(9) 0.23170(10)
H5_30 H 0.8882 0.5657 0.2254
C10_30 C 0.87694(12) 0.54305(10) 0.24224(8)
C11_30 C 0.88285(9) 0.52654(11) 0.25092(8)
H6_30 H 0.8730 0.5196 0.2583
C12_30 C 0.90218(11) 0.51782(9) 0.25059(8)
C13_30 C 0.91562(10) 0.52797(10) 0.24016(10)
H7_30 H 0.9288 0.5229 0.2391
C14_54 C 0.90828(9) 0.5000 0.26055(10)
H8_54 H 0.9027 0.5000 0.2742
H9_54 H 0.9229 0.5000 0.2617
C15_30 C 0.85684(11) 0.55073(12) 0.24239(8)
C16_30 C 0.85198(12) 0.57017(13) 0.23949(8)
H10_30 H 0.8623 0.5796 0.2373
C17_30 C 0.83263(16) 0.57648(9) 0.23967(8)
H11_30 H 0.8297 0.5902 0.2380
C18_30 C 0.81711(10) 0.56272(13) 0.24232(7)
C19_30 C 0.82197(11) 0.54386(12) 0.24472(8)
H12_30 H 0.8118 0.5342 0.2464
C20_30 C 0.84120(15) 0.53795(8) 0.24479(8)
H13_30 H 0.8440 0.5242 0.2466
C21_30 C 0.79661(11) 0.57004(11) 0.24108(8)
Cu5_18 Cu 1.0000 0.377120(12) 0.185160(12)
Cu7_18 Cu 1.0000 0.404750(12) 0.157574(12)
O13_17 O 0.97913(5) 0.39370(6) 0.19677(5)
O15_17 O 0.98002(5) 0.41771(6) 0.17331(6)
O17_18 O 0.79315(5) 0.41210(7) 0.23596(5)
O18_18 O 0.76404(5) 0.58790(7) 0.20685(5)
O19_18 O 0.78331(6) 0.44200(6) 0.24569(5)
O20_18 O 0.75431(5) 0.55800(6) 0.21669(6)
C45_30 C 0.97325(7) 0.40961(10) 0.18818(11)
C46_30 C 0.95701(9) 0.42086(13) 0.19949(9)
C47_30 C 0.94415(12) 0.41152(8) 0.21292(11)
H28_30 H 0.9456 0.3977 0.2154
C48_30 C 0.92959(9) 0.42188(13) 0.22243(8)
H29_30 H 0.9211 0.4151 0.2315
C49_30 C 0.92689(10) 0.44232(12) 0.21915(11)
C50_30 C 0.93994(13) 0.45111(9) 0.20669(12)
H30_30 H 0.9391 0.4651 0.2049
C51_30 C 0.95427(10) 0.44101(14) 0.19647(9)
H31_30 H 0.9624 0.4479 0.1872
C52_30 C 0.91083(12) 0.45368(11) 0.23043(8)
C53_30 C 0.89155(13) 0.44647(9) 0.23170(10)
H32_30 H 0.8882 0.4343 0.2254
C54_30 C 0.87694(12) 0.45695(10) 0.24224(8)
C55_30 C 0.88285(9) 0.47346(11) 0.25092(8)
H33_30 H 0.8730 0.4804 0.2583
C56_30 C 0.90218(11) 0.48218(9) 0.25059(8)
C57_30 C 0.91562(10) 0.47203(10) 0.24016(10)
H34_30 H 0.9288 0.4771 0.2391
C58_30 C 0.85684(11) 0.44927(12) 0.24239(8)
C59_30 C 0.85198(12) 0.42983(13) 0.23949(8)
H35_30 H 0.8623 0.4204 0.2373
C60_30 C 0.83263(16) 0.42352(9) 0.23967(8)
H36_30 H 0.8297 0.4098 0.2380
C61_30 C 0.81711(10) 0.43728(13) 0.24232(7)
C62_30 C 0.82197(11) 0.45614(12) 0.24472(8)
H37_30 H 0.8118 0.4658 0.2464
C63_30 C 0.84120(15) 0.46205(8) 0.24479(8)
H38_30 H 0.8440 0.4758 0.2466
C64_30 C 0.79661(11) 0.42996(11) 0.24108(8)
H51_6 H 0.986538 0.572126 0.127834
O7_31 O 0.36407(5) 0.83149(5) 0.01987(6)
O8_31 O 0.38806(5) 0.85456(7) 0.02007(6)
O9_37 O 0.35463(6) 0.79161(6) -0.0000
O10_37 O 0.42707(8) 0.86617(8) -0.0000
C22_31 C 0.26126(14) 0.77455(8) 0.09249(10)
C23_31 C 0.26150(12) 0.79574(9) 0.09886(13)
C24_31 C 0.26873(13) 0.80093(9) 0.11768(12)
H14_31 H 0.2735 0.7908 0.1262
C25_31 C 0.26909(9) 0.82053(10) 0.12419(15)
H15_31 H 0.2741 0.8237 0.1370
C26_31 C 0.26208(13) 0.83549(9) 0.11192(11)
C27_31 C 0.25543(12) 0.83055(8) 0.09301(12)
H16_31 H 0.2511 0.8407 0.0842
C28_31 C 0.25514(10) 0.81057(8) 0.08686(14)
H17_31 H 0.2504 0.8074 0.0740
C29_31 C 0.26279(9) 0.85736(7) 0.11739(11)
C30_31 C 0.26161(8) 0.86293(10) 0.13707(8)
H18_31 H 0.2600 0.8530 0.1470
C31_31 C 0.26573(9) 0.87227(7) 0.10314(12)
H19_31 H 0.2666 0.8686 0.0895
C32_31 C 0.26743(12) 0.89192(11) 0.10808(12)
C33_31 C 0.27276(10) 0.90713(14) 0.09287(10)
H20_31 H 0.2670 0.9201 0.0967
H21_31 H 0.2670 0.9033 0.0799
C34_31 C 0.29488(7) 0.90915(14) 0.09085(7)
C35_31 C 0.30552(7) 0.89660(13) 0.07856(7)
H22_31 H 0.2985 0.8874 0.0705
C36_31 C 0.32597(10) 0.89696(11) 0.07765(10)
C37_31 C 0.33555(9) 0.90959(14) 0.09041(9)
H23_31 H 0.3497 0.9095 0.0905
C38_31 C 0.33654(10) 0.88444(11) 0.06448(12)
C39_31 C 0.35400(11) 0.89070(14) 0.05628(9)
H24_31 H 0.3586 0.9038 0.0590
C40_31 C 0.36516(10) 0.87850(8) 0.04413(15)
H25_31 H 0.3775 0.8832 0.0391
C41_31 C 0.35864(10) 0.85932(13) 0.03910(11)
C42_31 C 0.34120(10) 0.85307(12) 0.04655(9)
H26_31 H 0.3361 0.8403 0.0434
C43_31 C 0.33073(10) 0.86593(8) 0.05896(15)
H27_31 H 0.3184 0.8613 0.0640
C44_31 C 0.37158(8) 0.84718(11) 0.02546(11)
O14_18 O 0.39370(6) 0.80323(5) 0.02087(5)
O16_18 O 0.41771(6) 0.82669(6) 0.01998(5)
O27_23 O 0.36407(5) 0.98013(6) 0.16851(5)
O29_23 O 0.38806(5) 0.97993(6) 0.14544(7)
C65_31 C 0.26126(14) 0.90751(10) 0.22545(8)
C66_31 C 0.26150(12) 0.90114(13) 0.20426(9)
C67_31 C 0.26873(13) 0.88232(12) 0.19907(9)
H39_31 H 0.2735 0.8738 0.2092
C68_31 C 0.26909(9) 0.87581(15) 0.17947(10)
H40_31 H 0.2741 0.8630 0.1763
C69_31 C 0.26208(13) 0.88808(11) 0.16451(9)
C70_31 C 0.25543(12) 0.90699(12) 0.16945(8)
H41_31 H 0.2511 0.9158 0.1593
C71_31 C 0.25514(10) 0.91314(14) 0.18943(8)
H42_31 H 0.2504 0.9260 0.1926
C72_31 C 0.26279(9) 0.88261(11) 0.14264(7)
C73_31 C 0.26573(9) 0.89686(12) 0.12773(7)
H43_31 H 0.2666 0.9105 0.1314
C74_31 C 0.30552(7) 0.92144(7) 0.10340(13)
H44_31 H 0.2985 0.9295 0.1126
C75_31 C 0.32597(10) 0.92235(10) 0.10304(11)
C76_31 C 0.33654(10) 0.93552(12) 0.11556(11)
C77_31 C 0.35400(11) 0.94372(9) 0.10930(14)
H45_31 H 0.3586 0.9410 0.0962
C78_31 C 0.36516(10) 0.95587(15) 0.12150(8)
H46_31 H 0.3775 0.9609 0.1168
C79_31 C 0.35864(10) 0.96090(11) 0.14068(13)
C80_31 C 0.34120(10) 0.95345(9) 0.14693(12)
H47_31 H 0.3361 0.9566 0.1597
C81_31 C 0.33073(10) 0.94104(15) 0.13407(8)
H48_31 H 0.3184 0.9360 0.1387
C82_31 C 0.37158(8) 0.97454(11) 0.15282(11)
H52_7 H 0.423228 0.876534 0.00977993
H55_7 H 0.360918 0.778675 0.0033103
H56_7 H 0.344293 0.79477 0.0100492
O1_31 O 0.39370(6) 0.80323(5) 0.97913(5)
O2_31 O 0.41771(6) 0.82669(6) 0.98002(5)
O3_31 O 0.41210(7) 0.76404(5) 0.79315(5)
O4_31 O 0.44200(6) 0.75431(5) 0.78331(6)
O9_38 O 0.35463(6) 0.79161(6) 1.0000
O10_38 O 0.42707(8) 0.86617(8) 1.0000
O11_31 O 0.37181(7) 0.77580(6) 0.77580(6)
O12_31 O 0.46579(6) 0.74593(5) 0.74593(5)
C1_31 C 0.40961(10) 0.81182(11) 0.97325(7)
C2_31 C 0.42086(13) 0.80051(9) 0.95701(9)
C3_31 C 0.41152(8) 0.78708(11) 0.94415(12)
H1_31 H 0.3977 0.7846 0.9456
C4_31 C 0.42188(13) 0.77757(8) 0.92959(9)
H2_31 H 0.4151 0.7685 0.9211
C5_31 C 0.44232(12) 0.78085(11) 0.92689(10)
C6_31 C 0.45111(9) 0.79331(12) 0.93994(13)
H3_31 H 0.4651 0.7951 0.9391
C7_31 C 0.44101(14) 0.80353(9) 0.95427(10)
H4_31 H 0.4479 0.8128 0.9624
C8_31 C 0.45368(11) 0.76957(8) 0.91083(12)
C9_31 C 0.44647(9) 0.76830(10) 0.89155(13)
H5_31 H 0.4343 0.7746 0.8882
C10_31 C 0.45695(10) 0.75776(8) 0.87694(12)
C11_31 C 0.47346(11) 0.74908(8) 0.88285(9)
H6_31 H 0.4804 0.7417 0.8730
C12_31 C 0.48218(9) 0.74941(8) 0.90218(11)
C13_31 C 0.47203(10) 0.75984(10) 0.91562(10)
H7_31 H 0.4771 0.7609 0.9288
C14_55 C 0.5000 0.73945(10) 0.90828(9)
H8_55 H 0.5000 0.7258 0.9027
H9_55 H 0.5000 0.7383 0.9229
C15_31 C 0.44927(12) 0.75761(8) 0.85684(11)
C16_31 C 0.42983(13) 0.76051(8) 0.85198(12)
H10_31 H 0.4204 0.7627 0.8623
C17_31 C 0.42352(9) 0.76033(8) 0.83263(16)
H11_31 H 0.4098 0.7620 0.8297
C18_31 C 0.43728(13) 0.75768(7) 0.81711(10)
C19_31 C 0.45614(12) 0.75528(8) 0.82197(11)
H12_31 H 0.4658 0.7536 0.8118
C20_31 C 0.46205(8) 0.75521(8) 0.84120(15)
H13_31 H 0.4758 0.7534 0.8440
C21_31 C 0.42996(11) 0.75892(8) 0.79661(11)
O13_18 O 0.60630(6) 0.80323(5) 0.97913(5)
O15_18 O 0.58229(6) 0.82669(6) 0.98002(5)
C45_31 C 0.59039(10) 0.81182(11) 0.97325(7)
C46_31 C 0.57914(13) 0.80051(9) 0.95701(9)
C47_31 C 0.58848(8) 0.78708(11) 0.94415(12)
H28_31 H 0.6023 0.7846 0.9456
C48_31 C 0.57812(13) 0.77757(8) 0.92959(9)
H29_31 H 0.5849 0.7685 0.9211
C49_31 C 0.55768(12) 0.78085(11) 0.92689(10)
C50_31 C 0.54889(9) 0.79331(12) 0.93994(13)
H30_31 H 0.5349 0.7951 0.9391
C51_31 C 0.55899(14) 0.80353(9) 0.95427(10)
H31_31 H 0.5521 0.8128 0.9624
C52_31 C 0.54632(11) 0.76957(8) 0.91083(12)
C53_31 C 0.55353(9) 0.76830(10) 0.89155(13)
H32_31 H 0.5657 0.7746 0.8882
C54_31 C 0.54305(10) 0.75776(8) 0.87694(12)
C55_31 C 0.52654(11) 0.74908(8) 0.88285(9)
H33_31 H 0.5196 0.7417 0.8730
C56_31 C 0.51782(9) 0.74941(8) 0.90218(11)
C57_31 C 0.52797(10) 0.75984(10) 0.91562(10)
H34_31 H 0.5229 0.7609 0.9288
C58_31 C 0.55073(12) 0.75761(8) 0.85684(11)
C59_31 C 0.57017(13) 0.76051(8) 0.85198(12)
H35_31 H 0.5796 0.7627 0.8623
C60_31 C 0.57648(9) 0.76033(8) 0.83263(16)
H36_31 H 0.5902 0.7620 0.8297
C61_31 C 0.56272(13) 0.75768(7) 0.81711(10)
C62_31 C 0.54386(12) 0.75528(8) 0.82197(11)
H37_31 H 0.5342 0.7536 0.8118
C63_31 C 0.53795(8) 0.75521(8) 0.84120(15)
H38_31 H 0.5242 0.7534 0.8440
C64_31 C 0.57004(11) 0.75892(8) 0.79661(11)
H51_7 H 0.427874 0.872166 0.986538
Cu6_24 Cu 0.185160(12) 0.377120(12) -0.0000
Cu8_24 Cu 0.157574(12) 0.404750(12) -0.0000
O7_32 O 0.01987(6) 0.36407(5) 0.83149(5)
O8_32 O 0.02007(6) 0.38806(5) 0.85456(7)
O9_39 O -0.0000 0.35463(6) 0.79161(6)
O10_39 O -0.0000 0.42707(8) 0.86617(8)
C22_32 C 0.09249(10) 0.26126(14) 0.77455(8)
C23_32 C 0.09886(13) 0.26150(12) 0.79574(9)
C24_32 C 0.11768(12) 0.26873(13) 0.80093(9)
H14_32 H 0.1262 0.2735 0.7908
C25_32 C 0.12419(15) 0.26909(9) 0.82053(10)
H15_32 H 0.1370 0.2741 0.8237
C26_32 C 0.11192(11) 0.26208(13) 0.83549(9)
C27_32 C 0.09301(12) 0.25543(12) 0.83055(8)
H16_32 H 0.0842 0.2511 0.8407
C28_32 C 0.08686(14) 0.25514(10) 0.81057(8)
H17_32 H 0.0740 0.2504 0.8074
C29_32 C 0.11739(11) 0.26279(9) 0.85736(7)
C30_32 C 0.13707(8) 0.26161(8) 0.86293(10)
H18_32 H 0.1470 0.2600 0.8530
C31_32 C 0.10314(12) 0.26573(9) 0.87227(7)
H19_32 H 0.0895 0.2666 0.8686
C32_32 C 0.10808(12) 0.26743(12) 0.89192(11)
C33_32 C 0.09287(10) 0.27276(10) 0.90713(14)
H20_32 H 0.0967 0.2670 0.9201
H21_32 H 0.0799 0.2670 0.9033
C34_32 C 0.09085(7) 0.29488(7) 0.90915(14)
C35_32 C 0.07856(7) 0.30552(7) 0.89660(13)
H22_32 H 0.0705 0.2985 0.8874
C36_32 C 0.07765(10) 0.32597(10) 0.89696(11)
C37_32 C 0.09041(9) 0.33555(9) 0.90959(14)
H23_32 H 0.0905 0.3497 0.9095
C38_32 C 0.06448(12) 0.33654(10) 0.88444(11)
C39_32 C 0.05628(9) 0.35400(11) 0.89070(14)
H24_32 H 0.0590 0.3586 0.9038
C40_32 C 0.04413(15) 0.36516(10) 0.87850(8)
H25_32 H 0.0391 0.3775 0.8832
C41_32 C 0.03910(11) 0.35864(10) 0.85932(13)
C42_32 C 0.04655(9) 0.34120(10) 0.85307(12)
H26_32 H 0.0434 0.3361 0.8403
C43_32 C 0.05896(15) 0.33073(10) 0.86593(8)
H27_32 H 0.0640 0.3184 0.8613
C44_32 C 0.02546(11) 0.37158(8) 0.84718(11)
Cu6_25 Cu 0.185160(12) 0.377120(12) 1.0000
Cu8_25 Cu 0.157574(12) 0.404750(12) 1.0000
O27_24 O 0.16851(5) 0.36407(5) 0.98013(6)
O29_24 O 0.14544(7) 0.38806(5) 0.97993(6)
C65_32 C 0.22545(8) 0.26126(14) 0.90751(10)
C66_32 C 0.20426(9) 0.26150(12) 0.90114(13)
C67_32 C 0.19907(9) 0.26873(13) 0.88232(12)
H39_32 H 0.2092 0.2735 0.8738
C68_32 C 0.17947(10) 0.26909(9) 0.87581(15)
H40_32 H 0.1763 0.2741 0.8630
C69_32 C 0.16451(9) 0.26208(13) 0.88808(11)
C70_32 C 0.16945(8) 0.25543(12) 0.90699(12)
H41_32 H 0.1593 0.2511 0.9158
C71_32 C 0.18943(8) 0.25514(10) 0.91314(14)
H42_32 H 0.1926 0.2504 0.9260
C72_32 C 0.14264(7) 0.26279(9) 0.88261(11)
C73_32 C 0.12773(7) 0.26573(9) 0.89686(12)
H43_32 H 0.1314 0.2666 0.9105
C74_32 C 0.10340(13) 0.30552(7) 0.92144(7)
H44_32 H 0.1126 0.2985 0.9295
C75_32 C 0.10304(11) 0.32597(10) 0.92235(10)
C76_32 C 0.11556(11) 0.33654(10) 0.93552(12)
C77_32 C 0.10930(14) 0.35400(11) 0.94372(9)
H45_32 H 0.0962 0.3586 0.9410
C78_32 C 0.12150(8) 0.36516(10) 0.95587(15)
H46_32 H 0.1168 0.3775 0.9609
C79_32 C 0.14068(13) 0.35864(10) 0.96090(11)
C80_32 C 0.14693(12) 0.34120(10) 0.95345(9)
H47_32 H 0.1597 0.3361 0.9566
C81_32 C 0.13407(8) 0.33073(10) 0.94104(15)
H48_32 H 0.1387 0.3184 0.9360
C82_32 C 0.15282(11) 0.37158(8) 0.97454(11)
H52_8 H 0.00977993 0.423228 0.876534
H55_8 H 0.0033103 0.360918 0.778675
H56_8 H 0.0100492 0.344293 0.79477
O1_32 O 0.97913(5) 0.39370(6) 0.80323(5)
O2_32 O 0.98002(5) 0.41771(6) 0.82669(6)
O3_32 O 0.79315(5) 0.41210(7) 0.76404(5)
O4_32 O 0.78331(6) 0.44200(6) 0.75431(5)
O9_40 O 1.0000 0.35463(6) 0.79161(6)
O10_40 O 1.0000 0.42707(8) 0.86617(8)
O11_32 O 0.77580(6) 0.37181(7) 0.77580(6)
O12_32 O 0.74593(5) 0.46579(6) 0.74593(5)
C1_32 C 0.97325(7) 0.40961(10) 0.81182(11)
C2_32 C 0.95701(9) 0.42086(13) 0.80051(9)
C3_32 C 0.94415(12) 0.41152(8) 0.78708(11)
H1_32 H 0.9456 0.3977 0.7846
C4_32 C 0.92959(9) 0.42188(13) 0.77757(8)
H2_32 H 0.9211 0.4151 0.7685
C5_32 C 0.92689(10) 0.44232(12) 0.78085(11)
C6_32 C 0.93994(13) 0.45111(9) 0.79331(12)
H3_32 H 0.9391 0.4651 0.7951
C7_32 C 0.95427(10) 0.44101(14) 0.80353(9)
H4_32 H 0.9624 0.4479 0.8128
C8_32 C 0.91083(12) 0.45368(11) 0.76957(8)
C9_32 C 0.89155(13) 0.44647(9) 0.76830(10)
H5_32 H 0.8882 0.4343 0.7746
C10_32 C 0.87694(12) 0.45695(10) 0.75776(8)
C11_32 C 0.88285(9) 0.47346(11) 0.74908(8)
H6_32 H 0.8730 0.4804 0.7417
C12_32 C 0.90218(11) 0.48218(9) 0.74941(8)
C13_32 C 0.91562(10) 0.47203(10) 0.75984(10)
H7_32 H 0.9288 0.4771 0.7609
C14_56 C 0.90828(9) 0.5000 0.73945(10)
H8_56 H 0.9027 0.5000 0.7258
H9_56 H 0.9229 0.5000 0.7383
C15_32 C 0.85684(11) 0.44927(12) 0.75761(8)
C16_32 C 0.85198(12) 0.42983(13) 0.76051(8)
H10_32 H 0.8623 0.4204 0.7627
C17_32 C 0.83263(16) 0.42352(9) 0.76033(8)
H11_32 H 0.8297 0.4098 0.7620
C18_32 C 0.81711(10) 0.43728(13) 0.75768(7)
C19_32 C 0.82197(11) 0.45614(12) 0.75528(8)
H12_32 H 0.8118 0.4658 0.7536
C20_32 C 0.84120(15) 0.46205(8) 0.75521(8)
H13_32 H 0.8440 0.4758 0.7534
C21_32 C 0.79661(11) 0.42996(11) 0.75892(8)
O28_13 O 0.98013(6) 0.36407(5) 0.83149(5)
O30_13 O 0.97993(6) 0.38806(5) 0.85456(7)
C45_32 C 0.97325(7) 0.59039(10) 0.81182(11)
C46_32 C 0.95701(9) 0.57914(13) 0.80051(9)
C47_32 C 0.94415(12) 0.58848(8) 0.78708(11)
H28_32 H 0.9456 0.6023 0.7846
C48_32 C 0.92959(9) 0.57812(13) 0.77757(8)
H29_32 H 0.9211 0.5849 0.7685
C49_32 C 0.92689(10) 0.55768(12) 0.78085(11)
C50_32 C 0.93994(13) 0.54889(9) 0.79331(12)
H30_32 H 0.9391 0.5349 0.7951
C51_32 C 0.95427(10) 0.55899(14) 0.80353(9)
H31_32 H 0.9624 0.5521 0.8128
C52_32 C 0.91083(12) 0.54632(11) 0.76957(8)
C53_32 C 0.89155(13) 0.55353(9) 0.76830(10)
H32_32 H 0.8882 0.5657 0.7746
C54_32 C 0.87694(12) 0.54305(10) 0.75776(8)
C55_32 C 0.88285(9) 0.52654(11) 0.74908(8)
H33_32 H 0.8730 0.5196 0.7417
C56_32 C 0.90218(11) 0.51782(9) 0.74941(8)
C57_32 C 0.91562(10) 0.52797(10) 0.75984(10)
H34_32 H 0.9288 0.5229 0.7609
C58_32 C 0.85684(11) 0.55073(12) 0.75761(8)
C59_32 C 0.85198(12) 0.57017(13) 0.76051(8)
H35_32 H 0.8623 0.5796 0.7627
C60_32 C 0.83263(16) 0.57648(9) 0.76033(8)
H36_32 H 0.8297 0.5902 0.7620
C61_32 C 0.81711(10) 0.56272(13) 0.75768(7)
C62_32 C 0.82197(11) 0.54386(12) 0.75528(8)
H37_32 H 0.8118 0.5342 0.7536
C63_32 C 0.84120(15) 0.53795(8) 0.75521(8)
H38_32 H 0.8440 0.5242 0.7534
C64_32 C 0.79661(11) 0.57004(11) 0.75892(8)
H51_8 H 0.986538 0.427874 0.872166
O7_33 O 0.36407(5) 0.01987(6) 0.16851(5)
O8_33 O 0.38806(5) 0.02007(6) 0.14544(7)
O9_41 O 0.35463(6) -0.0000 0.20839(6)
O10_41 O 0.42707(8) -0.0000 0.13383(8)
C22_33 C 0.26126(14) 0.09249(10) 0.22545(8)
C23_33 C 0.26150(12) 0.09886(13) 0.20426(9)
C24_33 C 0.26873(13) 0.11768(12) 0.19907(9)
H14_33 H 0.2735 0.1262 0.2092
C25_33 C 0.26909(9) 0.12419(15) 0.17947(10)
H15_33 H 0.2741 0.1370 0.1763
C26_33 C 0.26208(13) 0.11192(11) 0.16451(9)
C27_33 C 0.25543(12) 0.09301(12) 0.16945(8)
H16_33 H 0.2511 0.0842 0.1593
C28_33 C 0.25514(10) 0.08686(14) 0.18943(8)
H17_33 H 0.2504 0.0740 0.1926
C29_33 C 0.26279(9) 0.11739(11) 0.14264(7)
C30_33 C 0.26161(8) 0.13707(8) 0.13707(10)
H18_33 H 0.2600 0.1470 0.1470
C31_33 C 0.26573(9) 0.10314(12) 0.12773(7)
H19_33 H 0.2666 0.0895 0.1314
C32_33 C 0.26743(12) 0.10808(12) 0.10808(11)
C33_33 C 0.27276(10) 0.09287(10) 0.09287(14)
H20_33 H 0.2670 0.0967 0.0799
H21_33 H 0.2670 0.0799 0.0967
C34_33 C 0.29488(7) 0.09085(7) 0.09085(14)
C35_33 C 0.30552(7) 0.07856(7) 0.10340(13)
H22_33 H 0.2985 0.0705 0.1126
C36_33 C 0.32597(10) 0.07765(10) 0.10304(11)
C37_33 C 0.33555(9) 0.09041(9) 0.09041(14)
H23_33 H 0.3497 0.0905 0.0905
C38_33 C 0.33654(10) 0.06448(12) 0.11556(11)
C39_33 C 0.35400(11) 0.05628(9) 0.10930(14)
H24_33 H 0.3586 0.0590 0.0962
C40_33 C 0.36516(10) 0.04413(15) 0.12150(8)
H25_33 H 0.3775 0.0391 0.1168
C41_33 C 0.35864(10) 0.03910(11) 0.14068(13)
C42_33 C 0.34120(10) 0.04655(9) 0.14693(12)
H26_33 H 0.3361 0.0434 0.1597
C43_33 C 0.33073(10) 0.05896(15) 0.13407(8)
H27_33 H 0.3184 0.0640 0.1387
C44_33 C 0.37158(8) 0.02546(11) 0.15282(11)
Cu6_26 Cu 0.377120(12) 0.185160(12) 0.0000
Cu8_26 Cu 0.404750(12) 0.157574(12) 0.0000
O27_25 O 0.36407(5) 0.16851(5) 0.01987(6)
O29_25 O 0.38806(5) 0.14544(7) 0.02007(6)
C65_33 C 0.26126(14) 0.22545(8) 0.09249(10)
C66_33 C 0.26150(12) 0.20426(9) 0.09886(13)
C67_33 C 0.26873(13) 0.19907(9) 0.11768(12)
H39_33 H 0.2735 0.2092 0.1262
C68_33 C 0.26909(9) 0.17947(10) 0.12419(15)
H40_33 H 0.2741 0.1763 0.1370
C69_33 C 0.26208(13) 0.16451(9) 0.11192(11)
C70_33 C 0.25543(12) 0.16945(8) 0.09301(12)
H41_33 H 0.2511 0.1593 0.0842
C71_33 C 0.25514(10) 0.18943(8) 0.08686(14)
H42_33 H 0.2504 0.1926 0.0740
C72_33 C 0.26279(9) 0.14264(7) 0.11739(11)
C73_33 C 0.26573(9) 0.12773(7) 0.10314(12)
H43_33 H 0.2666 0.1314 0.0895
C74_33 C 0.30552(7) 0.10340(13) 0.07856(7)
H44_33 H 0.2985 0.1126 0.0705
C75_33 C 0.32597(10) 0.10304(11) 0.07765(10)
C76_33 C 0.33654(10) 0.11556(11) 0.06448(12)
C77_33 C 0.35400(11) 0.10930(14) 0.05628(9)
H45_33 H 0.3586 0.0962 0.0590
C78_33 C 0.36516(10) 0.12150(8) 0.04413(15)
H46_33 H 0.3775 0.1168 0.0391
C79_33 C 0.35864(10) 0.14068(13) 0.03910(11)
C80_33 C 0.34120(10) 0.14693(12) 0.04655(9)
H47_33 H 0.3361 0.1597 0.0434
C81_33 C 0.33073(10) 0.13407(8) 0.05896(15)
H48_33 H 0.3184 0.1387 0.0640
C82_33 C 0.37158(8) 0.15282(11) 0.02546(11)
H52_9 H 0.423228 0.00977993 0.123466
H55_9 H 0.360918 0.0033103 0.221325
H56_9 H 0.344293 0.0100492 0.20523
Cu6_27 Cu 0.377120(12) 0.185160(12) 1.0000
Cu8_27 Cu 0.404750(12) 0.157574(12) 1.0000
O1_33 O 0.39370(6) 0.97913(5) 0.19677(5)
O2_33 O 0.41771(6) 0.98002(5) 0.17331(6)
O3_33 O 0.41210(7) 0.79315(5) 0.23596(5)
O4_33 O 0.44200(6) 0.78331(6) 0.24569(5)
O9_42 O 0.35463(6) 1.0000 0.20839(6)
O10_42 O 0.42707(8) 1.0000 0.13383(8)
O11_33 O 0.37181(7) 0.77580(6) 0.22420(6)
O12_33 O 0.46579(6) 0.74593(5) 0.25407(5)
C1_33 C 0.40961(10) 0.97325(7) 0.18818(11)
C2_33 C 0.42086(13) 0.95701(9) 0.19949(9)
C3_33 C 0.41152(8) 0.94415(12) 0.21292(11)
H1_33 H 0.3977 0.9456 0.2154
C4_33 C 0.42188(13) 0.92959(9) 0.22243(8)
H2_33 H 0.4151 0.9211 0.2315
C5_33 C 0.44232(12) 0.92689(10) 0.21915(11)
C6_33 C 0.45111(9) 0.93994(13) 0.20669(12)
H3_33 H 0.4651 0.9391 0.2049
C7_33 C 0.44101(14) 0.95427(10) 0.19647(9)
H4_33 H 0.4479 0.9624 0.1872
C8_33 C 0.45368(11) 0.91083(12) 0.23043(8)
C9_33 C 0.44647(9) 0.89155(13) 0.23170(10)
H5_33 H 0.4343 0.8882 0.2254
C10_33 C 0.45695(10) 0.87694(12) 0.24224(8)
C11_33 C 0.47346(11) 0.88285(9) 0.25092(8)
H6_33 H 0.4804 0.8730 0.2583
C12_33 C 0.48218(9) 0.90218(11) 0.25059(8)
C13_33 C 0.47203(10) 0.91562(10) 0.24016(10)
H7_33 H 0.4771 0.9288 0.2391
C14_57 C 0.5000 0.90828(9) 0.26055(10)
H8_57 H 0.5000 0.9027 0.2742
H9_57 H 0.5000 0.9229 0.2617
C15_33 C 0.44927(12) 0.85684(11) 0.24239(8)
C16_33 C 0.42983(13) 0.85198(12) 0.23949(8)
H10_33 H 0.4204 0.8623 0.2373
C17_33 C 0.42352(9) 0.83263(16) 0.23967(8)
H11_33 H 0.4098 0.8297 0.2380
C18_33 C 0.43728(13) 0.81711(10) 0.24232(7)
C19_33 C 0.45614(12) 0.82197(11) 0.24472(8)
H12_33 H 0.4658 0.8118 0.2464
C20_33 C 0.46205(8) 0.84120(15) 0.24479(8)
H13_33 H 0.4758 0.8440 0.2466
C21_33 C 0.42996(11) 0.79661(11) 0.24108(8)
O17_19 O 0.58790(7) 0.79315(5) 0.23596(5)
O18_19 O 0.41210(7) 0.76404(5) 0.20685(5)
O19_19 O 0.55800(6) 0.78331(6) 0.24569(5)
O20_19 O 0.44200(6) 0.75431(5) 0.21669(6)
C45_33 C 0.59039(10) 0.97325(7) 0.18818(11)
C46_33 C 0.57914(13) 0.95701(9) 0.19949(9)
C47_33 C 0.58848(8) 0.94415(12) 0.21292(11)
H28_33 H 0.6023 0.9456 0.2154
C48_33 C 0.57812(13) 0.92959(9) 0.22243(8)
H29_33 H 0.5849 0.9211 0.2315
C49_33 C 0.55768(12) 0.92689(10) 0.21915(11)
C50_33 C 0.54889(9) 0.93994(13) 0.20669(12)
H30_33 H 0.5349 0.9391 0.2049
C51_33 C 0.55899(14) 0.95427(10) 0.19647(9)
H31_33 H 0.5521 0.9624 0.1872
C52_33 C 0.54632(11) 0.91083(12) 0.23043(8)
C53_33 C 0.55353(9) 0.89155(13) 0.23170(10)
H32_33 H 0.5657 0.8882 0.2254
C54_33 C 0.54305(10) 0.87694(12) 0.24224(8)
C55_33 C 0.52654(11) 0.88285(9) 0.25092(8)
H33_33 H 0.5196 0.8730 0.2583
C56_33 C 0.51782(9) 0.90218(11) 0.25059(8)
C57_33 C 0.52797(10) 0.91562(10) 0.24016(10)
H34_33 H 0.5229 0.9288 0.2391
C58_33 C 0.55073(12) 0.85684(11) 0.24239(8)
C59_33 C 0.57017(13) 0.85198(12) 0.23949(8)
H35_33 H 0.5796 0.8623 0.2373
C60_33 C 0.57648(9) 0.83263(16) 0.23967(8)
H36_33 H 0.5902 0.8297 0.2380
C61_33 C 0.56272(13) 0.81711(10) 0.24232(7)
C62_33 C 0.54386(12) 0.82197(11) 0.24472(8)
H37_33 H 0.5342 0.8118 0.2464
C63_33 C 0.53795(8) 0.84120(15) 0.24479(8)
H38_33 H 0.5242 0.8440 0.2466
C64_33 C 0.57004(11) 0.79661(11) 0.24108(8)
H51_9 H 0.427874 0.986538 0.127834
O7_34 O 0.16851(5) 0.36407(5) 0.01987(6)
O8_34 O 0.14544(7) 0.38806(5) 0.02007(6)
O9_43 O 0.20839(6) 0.35463(6) -0.0000
O10_43 O 0.13383(8) 0.42707(8) -0.0000
C22_34 C 0.22545(8) 0.26126(14) 0.09249(10)
C23_34 C 0.20426(9) 0.26150(12) 0.09886(13)
C24_34 C 0.19907(9) 0.26873(13) 0.11768(12)
H14_34 H 0.2092 0.2735 0.1262
C25_34 C 0.17947(10) 0.26909(9) 0.12419(15)
H15_34 H 0.1763 0.2741 0.1370
C26_34 C 0.16451(9) 0.26208(13) 0.11192(11)
C27_34 C 0.16945(8) 0.25543(12) 0.09301(12)
H16_34 H 0.1593 0.2511 0.0842
C28_34 C 0.18943(8) 0.25514(10) 0.08686(14)
H17_34 H 0.1926 0.2504 0.0740
C29_34 C 0.14264(7) 0.26279(9) 0.11739(11)
C30_34 C 0.13707(10) 0.26161(8) 0.13707(8)
H18_34 H 0.1470 0.2600 0.1470
C31_34 C 0.12773(7) 0.26573(9) 0.10314(12)
H19_34 H 0.1314 0.2666 0.0895
C32_34 C 0.10808(11) 0.26743(12) 0.10808(12)
C33_34 C 0.09287(14) 0.27276(10) 0.09287(10)
H20_34 H 0.0799 0.2670 0.0967
H21_34 H 0.0967 0.2670 0.0799
C34_34 C 0.09085(14) 0.29488(7) 0.09085(7)
C35_34 C 0.10340(13) 0.30552(7) 0.07856(7)
H22_34 H 0.1126 0.2985 0.0705
C36_34 C 0.10304(11) 0.32597(10) 0.07765(10)
C37_34 C 0.09041(14) 0.33555(9) 0.09041(9)
H23_34 H 0.0905 0.3497 0.0905
C38_34 C 0.11556(11) 0.33654(10) 0.06448(12)
C39_34 C 0.10930(14) 0.35400(11) 0.05628(9)
H24_34 H 0.0962 0.3586 0.0590
C40_34 C 0.12150(8) 0.36516(10) 0.04413(15)
H25_34 H 0.1168 0.3775 0.0391
C41_34 C 0.14068(13) 0.35864(10) 0.03910(11)
C42_34 C 0.14693(12) 0.34120(10) 0.04655(9)
H26_34 H 0.1597 0.3361 0.0434
C43_34 C 0.13407(8) 0.33073(10) 0.05896(15)
H27_34 H 0.1387 0.3184 0.0640
C44_34 C 0.15282(11) 0.37158(8) 0.02546(11)
O14_19 O 0.19677(5) 0.39370(6) 0.02087(5)
O16_19 O 0.17331(6) 0.41771(6) 0.01998(5)
O27_26 O 0.01987(6) 0.36407(5) 0.16851(5)
O29_26 O 0.02007(6) 0.38806(5) 0.14544(7)
C65_34 C 0.09249(10) 0.26126(14) 0.22545(8)
C66_34 C 0.09886(13) 0.26150(12) 0.20426(9)
C67_34 C 0.11768(12) 0.26873(13) 0.19907(9)
H39_34 H 0.1262 0.2735 0.2092
C68_34 C 0.12419(15) 0.26909(9) 0.17947(10)
H40_34 H 0.1370 0.2741 0.1763
C69_34 C 0.11192(11) 0.26208(13) 0.16451(9)
C70_34 C 0.09301(12) 0.25543(12) 0.16945(8)
H41_34 H 0.0842 0.2511 0.1593
C71_34 C 0.08686(14) 0.25514(10) 0.18943(8)
H42_34 H 0.0740 0.2504 0.1926
C72_34 C 0.11739(11) 0.26279(9) 0.14264(7)
C73_34 C 0.10314(12) 0.26573(9) 0.12773(7)
H43_34 H 0.0895 0.2666 0.1314
C74_34 C 0.07856(7) 0.30552(7) 0.10340(13)
H44_34 H 0.0705 0.2985 0.1126
C75_34 C 0.07765(10) 0.32597(10) 0.10304(11)
C76_34 C 0.06448(12) 0.33654(10) 0.11556(11)
C77_34 C 0.05628(9) 0.35400(11) 0.10930(14)
H45_34 H 0.0590 0.3586 0.0962
C78_34 C 0.04413(15) 0.36516(10) 0.12150(8)
H46_34 H 0.0391 0.3775 0.1168
C79_34 C 0.03910(11) 0.35864(10) 0.14068(13)
C80_34 C 0.04655(9) 0.34120(10) 0.14693(12)
H47_34 H 0.0434 0.3361 0.1597
C81_34 C 0.05896(15) 0.33073(10) 0.13407(8)
H48_34 H 0.0640 0.3184 0.1387
C82_34 C 0.02546(11) 0.37158(8) 0.15282(11)
H52_10 H 0.123466 0.423228 0.00977993
H55_10 H 0.221325 0.360918 0.0033103
H56_10 H 0.20523 0.344293 0.0100492
O1_34 O 0.19677(5) 0.39370(6) 0.97913(5)
O2_34 O 0.17331(6) 0.41771(6) 0.98002(5)
O3_34 O 0.23596(5) 0.41210(7) 0.79315(5)
O4_34 O 0.24569(5) 0.44200(6) 0.78331(6)
O9_44 O 0.20839(6) 0.35463(6) 1.0000
O10_44 O 0.13383(8) 0.42707(8) 1.0000
O11_34 O 0.22420(6) 0.37181(7) 0.77580(6)
O12_34 O 0.25407(5) 0.46579(6) 0.74593(5)
C1_34 C 0.18818(11) 0.40961(10) 0.97325(7)
C2_34 C 0.19949(9) 0.42086(13) 0.95701(9)
C3_34 C 0.21292(11) 0.41152(8) 0.94415(12)
H1_34 H 0.2154 0.3977 0.9456
C4_34 C 0.22243(8) 0.42188(13) 0.92959(9)
H2_34 H 0.2315 0.4151 0.9211
C5_34 C 0.21915(11) 0.44232(12) 0.92689(10)
C6_34 C 0.20669(12) 0.45111(9) 0.93994(13)
H3_34 H 0.2049 0.4651 0.9391
C7_34 C 0.19647(9) 0.44101(14) 0.95427(10)
H4_34 H 0.1872 0.4479 0.9624
C8_34 C 0.23043(8) 0.45368(11) 0.91083(12)
C9_34 C 0.23170(10) 0.44647(9) 0.89155(13)
H5_34 H 0.2254 0.4343 0.8882
C10_34 C 0.24224(8) 0.45695(10) 0.87694(12)
C11_34 C 0.25092(8) 0.47346(11) 0.88285(9)
H6_34 H 0.2583 0.4804 0.8730
C12_34 C 0.25059(8) 0.48218(9) 0.90218(11)
C13_34 C 0.24016(10) 0.47203(10) 0.91562(10)
H7_34 H 0.2391 0.4771 0.9288
C14_58 C 0.26055(10) 0.5000 0.90828(9)
H8_58 H 0.2742 0.5000 0.9027
H9_58 H 0.2617 0.5000 0.9229
C15_34 C 0.24239(8) 0.44927(12) 0.85684(11)
C16_34 C 0.23949(8) 0.42983(13) 0.85198(12)
H10_34 H 0.2373 0.4204 0.8623
C17_34 C 0.23967(8) 0.42352(9) 0.83263(16)
H11_34 H 0.2380 0.4098 0.8297
C18_34 C 0.24232(7) 0.43728(13) 0.81711(10)
C19_34 C 0.24472(8) 0.45614(12) 0.82197(11)
H12_34 H 0.2464 0.4658 0.8118
C20_34 C 0.24479(8) 0.46205(8) 0.84120(15)
H13_34 H 0.2466 0.4758 0.8440
C21_34 C 0.24108(8) 0.42996(11) 0.79661(11)
O13_19 O 0.19677(5) 0.60630(6) 0.97913(5)
O15_19 O 0.17331(6) 0.58229(6) 0.98002(5)
C45_34 C 0.18818(11) 0.59039(10) 0.97325(7)
C46_34 C 0.19949(9) 0.57914(13) 0.95701(9)
C47_34 C 0.21292(11) 0.58848(8) 0.94415(12)
H28_34 H 0.2154 0.6023 0.9456
C48_34 C 0.22243(8) 0.57812(13) 0.92959(9)
H29_34 H 0.2315 0.5849 0.9211
C49_34 C 0.21915(11) 0.55768(12) 0.92689(10)
C50_34 C 0.20669(12) 0.54889(9) 0.93994(13)
H30_34 H 0.2049 0.5349 0.9391
C51_34 C 0.19647(9) 0.55899(14) 0.95427(10)
H31_34 H 0.1872 0.5521 0.9624
C52_34 C 0.23043(8) 0.54632(11) 0.91083(12)
C53_34 C 0.23170(10) 0.55353(9) 0.89155(13)
H32_34 H 0.2254 0.5657 0.8882
C54_34 C 0.24224(8) 0.54305(10) 0.87694(12)
C55_34 C 0.25092(8) 0.52654(11) 0.88285(9)
H33_34 H 0.2583 0.5196 0.8730
C56_34 C 0.25059(8) 0.51782(9) 0.90218(11)
C57_34 C 0.24016(10) 0.52797(10) 0.91562(10)
H34_34 H 0.2391 0.5229 0.9288
C58_34 C 0.24239(8) 0.55073(12) 0.85684(11)
C59_34 C 0.23949(8) 0.57017(13) 0.85198(12)
H35_34 H 0.2373 0.5796 0.8623
C60_34 C 0.23967(8) 0.57648(9) 0.83263(16)
H36_34 H 0.2380 0.5902 0.8297
C61_34 C 0.24232(7) 0.56272(13) 0.81711(10)
C62_34 C 0.24472(8) 0.54386(12) 0.82197(11)
H37_34 H 0.2464 0.5342 0.8118
C63_34 C 0.24479(8) 0.53795(8) 0.84120(15)
H38_34 H 0.2466 0.5242 0.8440
C64_34 C 0.24108(8) 0.57004(11) 0.79661(11)
H51_10 H 0.127834 0.427874 0.986538
O1_35 O 0.02087(5) 0.39370(6) 0.19677(5)
O2_35 O 0.01998(5) 0.41771(6) 0.17331(6)
O3_35 O 0.20685(5) 0.41210(7) 0.23596(5)
O4_35 O 0.21669(6) 0.44200(6) 0.24569(5)
O9_45 O 0.0000 0.35463(6) 0.20839(6)
O10_45 O 0.0000 0.42707(8) 0.13383(8)
O11_35 O 0.22420(6) 0.37181(7) 0.22420(6)
O12_35 O 0.25407(5) 0.46579(6) 0.25407(5)
C1_35 C 0.02675(7) 0.40961(10) 0.18818(11)
C2_35 C 0.04299(9) 0.42086(13) 0.19949(9)
C3_35 C 0.05585(12) 0.41152(8) 0.21292(11)
H1_35 H 0.0544 0.3977 0.2154
C4_35 C 0.07041(9) 0.42188(13) 0.22243(8)
H2_35 H 0.0789 0.4151 0.2315
C5_35 C 0.07311(10) 0.44232(12) 0.21915(11)
C6_35 C 0.06006(13) 0.45111(9) 0.20669(12)
H3_35 H 0.0609 0.4651 0.2049
C7_35 C 0.04573(10) 0.44101(14) 0.19647(9)
H4_35 H 0.0376 0.4479 0.1872
C8_35 C 0.08917(12) 0.45368(11) 0.23043(8)
C9_35 C 0.10845(13) 0.44647(9) 0.23170(10)
H5_35 H 0.1118 0.4343 0.2254
C10_35 C 0.12306(12) 0.45695(10) 0.24224(8)
C11_35 C 0.11715(9) 0.47346(11) 0.25092(8)
H6_35 H 0.1270 0.4804 0.2583
C12_35 C 0.09782(11) 0.48218(9) 0.25059(8)
C13_35 C 0.08438(10) 0.47203(10) 0.24016(10)
H7_35 H 0.0712 0.4771 0.2391
C14_59 C 0.09172(9) 0.5000 0.26055(10)
H8_59 H 0.0973 0.5000 0.2742
H9_59 H 0.0771 0.5000 0.2617
C15_35 C 0.14316(11) 0.44927(12) 0.24239(8)
C16_35 C 0.14802(12) 0.42983(13) 0.23949(8)
H10_35 H 0.1377 0.4204 0.2373
C17_35 C 0.16737(16) 0.42352(9) 0.23967(8)
H11_35 H 0.1703 0.4098 0.2380
C18_35 C 0.18289(10) 0.43728(13) 0.24232(7)
C19_35 C 0.17803(11) 0.45614(12) 0.24472(8)
H12_35 H 0.1882 0.4658 0.2464
C20_35 C 0.15880(15) 0.46205(8) 0.24479(8)
H13_35 H 0.1560 0.4758 0.2466
C21_35 C 0.20339(11) 0.42996(11) 0.24108(8)
O17_20 O 0.20685(5) 0.58790(7) 0.23596(5)
O18_20 O 0.23596(5) 0.41210(7) 0.20685(5)
O19_20 O 0.21669(6) 0.55800(6) 0.24569(5)
O20_20 O 0.24569(5) 0.44200(6) 0.21669(6)
C45_35 C 0.02675(7) 0.59039(10) 0.18818(11)
C46_35 C 0.04299(9) 0.57914(13) 0.19949(9)
C47_35 C 0.05585(12) 0.58848(8) 0.21292(11)
H28_35 H 0.0544 0.6023 0.2154
C48_35 C 0.07041(9) 0.57812(13) 0.22243(8)
H29_35 H 0.0789 0.5849 0.2315
C49_35 C 0.07311(10) 0.55768(12) 0.21915(11)
C50_35 C 0.06006(13) 0.54889(9) 0.20669(12)
H30_35 H 0.0609 0.5349 0.2049
C51_35 C 0.04573(10) 0.55899(14) 0.19647(9)
H31_35 H 0.0376 0.5521 0.1872
C52_35 C 0.08917(12) 0.54632(11) 0.23043(8)
C53_35 C 0.10845(13) 0.55353(9) 0.23170(10)
H32_35 H 0.1118 0.5657 0.2254
C54_35 C 0.12306(12) 0.54305(10) 0.24224(8)
C55_35 C 0.11715(9) 0.52654(11) 0.25092(8)
H33_35 H 0.1270 0.5196 0.2583
C56_35 C 0.09782(11) 0.51782(9) 0.25059(8)
C57_35 C 0.08438(10) 0.52797(10) 0.24016(10)
H34_35 H 0.0712 0.5229 0.2391
C58_35 C 0.14316(11) 0.55073(12) 0.24239(8)
C59_35 C 0.14802(12) 0.57017(13) 0.23949(8)
H35_35 H 0.1377 0.5796 0.2373
C60_35 C 0.16737(16) 0.57648(9) 0.23967(8)
H36_35 H 0.1703 0.5902 0.2380
C61_35 C 0.18289(10) 0.56272(13) 0.24232(7)
C62_35 C 0.17803(11) 0.54386(12) 0.24472(8)
H37_35 H 0.1882 0.5342 0.2464
C63_35 C 0.15880(15) 0.53795(8) 0.24479(8)
H38_35 H 0.1560 0.5242 0.2466
C64_35 C 0.20339(11) 0.57004(11) 0.24108(8)
H51_11 H 0.0134617 0.427874 0.127834
O7_35 O 0.98013(6) 0.36407(5) 0.16851(5)
O8_35 O 0.97993(6) 0.38806(5) 0.14544(7)
O9_46 O 1.0000 0.35463(6) 0.20839(6)
O10_46 O 1.0000 0.42707(8) 0.13383(8)
C22_35 C 0.90751(10) 0.26126(14) 0.22545(8)
C23_35 C 0.90114(13) 0.26150(12) 0.20426(9)
C24_35 C 0.88232(12) 0.26873(13) 0.19907(9)
H14_35 H 0.8738 0.2735 0.2092
C25_35 C 0.87581(15) 0.26909(9) 0.17947(10)
H15_35 H 0.8630 0.2741 0.1763
C26_35 C 0.88808(11) 0.26208(13) 0.16451(9)
C27_35 C 0.90699(12) 0.25543(12) 0.16945(8)
H16_35 H 0.9158 0.2511 0.1593
C28_35 C 0.91314(14) 0.25514(10) 0.18943(8)
H17_35 H 0.9260 0.2504 0.1926
C29_35 C 0.88261(11) 0.26279(9) 0.14264(7)
C30_35 C 0.86293(8) 0.26161(8) 0.13707(10)
H18_35 H 0.8530 0.2600 0.1470
C31_35 C 0.89686(12) 0.26573(9) 0.12773(7)
H19_35 H 0.9105 0.2666 0.1314
C32_35 C 0.89192(12) 0.26743(12) 0.10808(11)
C33_35 C 0.90713(10) 0.27276(10) 0.09287(14)
H20_35 H 0.9033 0.2670 0.0799
H21_35 H 0.9201 0.2670 0.0967
C34_35 C 0.90915(7) 0.29488(7) 0.09085(14)
C35_35 C 0.92144(7) 0.30552(7) 0.10340(13)
H22_35 H 0.9295 0.2985 0.1126
C36_35 C 0.92235(10) 0.32597(10) 0.10304(11)
C37_35 C 0.90959(9) 0.33555(9) 0.09041(14)
H23_35 H 0.9095 0.3497 0.0905
C38_35 C 0.93552(12) 0.33654(10) 0.11556(11)
C39_35 C 0.94372(9) 0.35400(11) 0.10930(14)
H24_35 H 0.9410 0.3586 0.0962
C40_35 C 0.95587(15) 0.36516(10) 0.12150(8)
H25_35 H 0.9609 0.3775 0.1168
C41_35 C 0.96090(11) 0.35864(10) 0.14068(13)
C42_35 C 0.95345(9) 0.34120(10) 0.14693(12)
H26_35 H 0.9566 0.3361 0.1597
C43_35 C 0.94104(15) 0.33073(10) 0.13407(8)
H27_35 H 0.9360 0.3184 0.1387
C44_35 C 0.97454(11) 0.37158(8) 0.15282(11)
O27_27 O 0.83149(5) 0.36407(5) 0.01987(6)
O29_27 O 0.85456(7) 0.38806(5) 0.02007(6)
C65_35 C 0.77455(8) 0.26126(14) 0.09249(10)
C66_35 C 0.79574(9) 0.26150(12) 0.09886(13)
C67_35 C 0.80093(9) 0.26873(13) 0.11768(12)
H39_35 H 0.7908 0.2735 0.1262
C68_35 C 0.82053(10) 0.26909(9) 0.12419(15)
H40_35 H 0.8237 0.2741 0.1370
C69_35 C 0.83549(9) 0.26208(13) 0.11192(11)
C70_35 C 0.83055(8) 0.25543(12) 0.09301(12)
H41_35 H 0.8407 0.2511 0.0842
C71_35 C 0.81057(8) 0.25514(10) 0.08686(14)
H42_35 H 0.8074 0.2504 0.0740
C72_35 C 0.85736(7) 0.26279(9) 0.11739(11)
C73_35 C 0.87227(7) 0.26573(9) 0.10314(12)
H43_35 H 0.8686 0.2666 0.0895
C74_35 C 0.89660(13) 0.30552(7) 0.07856(7)
H44_35 H 0.8874 0.2985 0.0705
C75_35 C 0.89696(11) 0.32597(10) 0.07765(10)
C76_35 C 0.88444(11) 0.33654(10) 0.06448(12)
C77_35 C 0.89070(14) 0.35400(11) 0.05628(9)
H45_35 H 0.9038 0.3586 0.0590
C78_35 C 0.87850(8) 0.36516(10) 0.04413(15)
H46_35 H 0.8832 0.3775 0.0391
C79_35 C 0.85932(13) 0.35864(10) 0.03910(11)
C80_35 C 0.85307(12) 0.34120(10) 0.04655(9)
H47_35 H 0.8403 0.3361 0.0434
C81_35 C 0.86593(8) 0.33073(10) 0.05896(15)
H48_35 H 0.8613 0.3184 0.0640
C82_35 C 0.84718(11) 0.37158(8) 0.02546(11)
H52_11 H 0.99022 0.423228 0.123466
H55_11 H 0.99669 0.360918 0.221325
H56_11 H 0.989951 0.344293 0.20523
O7_36 O 0.63593(5) 0.16851(5) 0.01987(6)
O8_36 O 0.61194(5) 0.14544(7) 0.02007(6)
O9_47 O 0.64537(6) 0.20839(6) -0.0000
O10_47 O 0.57293(8) 0.13383(8) -0.0000
C22_36 C 0.73874(14) 0.22545(8) 0.09249(10)
C23_36 C 0.73850(12) 0.20426(9) 0.09886(13)
C24_36 C 0.73127(13) 0.19907(9) 0.11768(12)
H14_36 H 0.7265 0.2092 0.1262
C25_36 C 0.73091(9) 0.17947(10) 0.12419(15)
H15_36 H 0.7259 0.1763 0.1370
C26_36 C 0.73792(13) 0.16451(9) 0.11192(11)
C27_36 C 0.74457(12) 0.16945(8) 0.09301(12)
H16_36 H 0.7489 0.1593 0.0842
C28_36 C 0.74486(10) 0.18943(8) 0.08686(14)
H17_36 H 0.7496 0.1926 0.0740
C29_36 C 0.73721(9) 0.14264(7) 0.11739(11)
C30_36 C 0.73839(8) 0.13707(10) 0.13707(8)
H18_36 H 0.7400 0.1470 0.1470
C31_36 C 0.73427(9) 0.12773(7) 0.10314(12)
H19_36 H 0.7334 0.1314 0.0895
C32_36 C 0.73257(12) 0.10808(11) 0.10808(12)
C33_36 C 0.72724(10) 0.09287(14) 0.09287(10)
H20_36 H 0.7330 0.0799 0.0967
H21_36 H 0.7330 0.0967 0.0799
C34_36 C 0.70512(7) 0.09085(14) 0.09085(7)
C35_36 C 0.69448(7) 0.10340(13) 0.07856(7)
H22_36 H 0.7015 0.1126 0.0705
C36_36 C 0.67403(10) 0.10304(11) 0.07765(10)
C37_36 C 0.66445(9) 0.09041(14) 0.09041(9)
H23_36 H 0.6503 0.0905 0.0905
C38_36 C 0.66346(10) 0.11556(11) 0.06448(12)
C39_36 C 0.64600(11) 0.10930(14) 0.05628(9)
H24_36 H 0.6414 0.0962 0.0590
C40_36 C 0.63484(10) 0.12150(8) 0.04413(15)
H25_36 H 0.6225 0.1168 0.0391
C41_36 C 0.64136(10) 0.14068(13) 0.03910(11)
C42_36 C 0.65880(10) 0.14693(12) 0.04655(9)
H26_36 H 0.6639 0.1597 0.0434
C43_36 C 0.66927(10) 0.13407(8) 0.05896(15)
H27_36 H 0.6816 0.1387 0.0640
C44_36 C 0.62842(8) 0.15282(11) 0.02546(11)
O14_20 O 0.60630(6) 0.19677(5) 0.02087(5)
O16_20 O 0.58229(6) 0.17331(6) 0.01998(5)
C65_36 C 0.73874(14) 0.09249(10) 0.22545(8)
C66_36 C 0.73850(12) 0.09886(13) 0.20426(9)
C67_36 C 0.73127(13) 0.11768(12) 0.19907(9)
H39_36 H 0.7265 0.1262 0.2092
C68_36 C 0.73091(9) 0.12419(15) 0.17947(10)
H40_36 H 0.7259 0.1370 0.1763
C69_36 C 0.73792(13) 0.11192(11) 0.16451(9)
C70_36 C 0.74457(12) 0.09301(12) 0.16945(8)
H41_36 H 0.7489 0.0842 0.1593
C71_36 C 0.74486(10) 0.08686(14) 0.18943(8)
H42_36 H 0.7496 0.0740 0.1926
C72_36 C 0.73721(9) 0.11739(11) 0.14264(7)
C73_36 C 0.73427(9) 0.10314(12) 0.12773(7)
H43_36 H 0.7334 0.0895 0.1314
C74_36 C 0.69448(7) 0.07856(7) 0.10340(13)
H44_36 H 0.7015 0.0705 0.1126
C75_36 C 0.67403(10) 0.07765(10) 0.10304(11)
C76_36 C 0.66346(10) 0.06448(12) 0.11556(11)
C77_36 C 0.64600(11) 0.05628(9) 0.10930(14)
H45_36 H 0.6414 0.0590 0.0962
C78_36 C 0.63484(10) 0.04413(15) 0.12150(8)
H46_36 H 0.6225 0.0391 0.1168
C79_36 C 0.64136(10) 0.03910(11) 0.14068(13)
C80_36 C 0.65880(10) 0.04655(9) 0.14693(12)
H47_36 H 0.6639 0.0434 0.1597
C81_36 C 0.66927(10) 0.05896(15) 0.13407(8)
H48_36 H 0.6816 0.0640 0.1387
C82_36 C 0.62842(8) 0.02546(11) 0.15282(11)
H52_12 H 0.576772 0.123466 0.00977993
H55_12 H 0.639082 0.221325 0.0033103
H56_12 H 0.655707 0.20523 0.0100492
O1_36 O 0.60630(6) 0.19677(5) 0.97913(5)
O2_36 O 0.58229(6) 0.17331(6) 0.98002(5)
O3_36 O 0.58790(7) 0.23596(5) 0.79315(5)
O4_36 O 0.55800(6) 0.24569(5) 0.78331(6)
O9_48 O 0.64537(6) 0.20839(6) 1.0000
O10_48 O 0.57293(8) 0.13383(8) 1.0000
O11_36 O 0.62819(7) 0.22420(6) 0.77580(6)
O12_36 O 0.53421(6) 0.25407(5) 0.74593(5)
C1_36 C 0.59039(10) 0.18818(11) 0.97325(7)
C2_36 C 0.57914(13) 0.19949(9) 0.95701(9)
C3_36 C 0.58848(8) 0.21292(11) 0.94415(12)
H1_36 H 0.6023 0.2154 0.9456
C4_36 C 0.57812(13) 0.22243(8) 0.92959(9)
H2_36 H 0.5849 0.2315 0.9211
C5_36 C 0.55768(12) 0.21915(11) 0.92689(10)
C6_36 C 0.54889(9) 0.20669(12) 0.93994(13)
H3_36 H 0.5349 0.2049 0.9391
C7_36 C 0.55899(14) 0.19647(9) 0.95427(10)
H4_36 H 0.5521 0.1872 0.9624
C8_36 C 0.54632(11) 0.23043(8) 0.91083(12)
C9_36 C 0.55353(9) 0.23170(10) 0.89155(13)
H5_36 H 0.5657 0.2254 0.8882
C10_36 C 0.54305(10) 0.24224(8) 0.87694(12)
C11_36 C 0.52654(11) 0.25092(8) 0.88285(9)
H6_36 H 0.5196 0.2583 0.8730
C12_36 C 0.51782(9) 0.25059(8) 0.90218(11)
C13_36 C 0.52797(10) 0.24016(10) 0.91562(10)
H7_36 H 0.5229 0.2391 0.9288
C14_60 C 0.5000 0.26055(10) 0.90828(9)
H8_60 H 0.5000 0.2742 0.9027
H9_60 H 0.5000 0.2617 0.9229
C15_36 C 0.55073(12) 0.24239(8) 0.85684(11)
C16_36 C 0.57017(13) 0.23949(8) 0.85198(12)
H10_36 H 0.5796 0.2373 0.8623
C17_36 C 0.57648(9) 0.23967(8) 0.83263(16)
H11_36 H 0.5902 0.2380 0.8297
C18_36 C 0.56272(13) 0.24232(7) 0.81711(10)
C19_36 C 0.54386(12) 0.24472(8) 0.82197(11)
H12_36 H 0.5342 0.2464 0.8118
C20_36 C 0.53795(8) 0.24479(8) 0.84120(15)
H13_36 H 0.5242 0.2466 0.8440
C21_36 C 0.57004(11) 0.24108(8) 0.79661(11)
O13_20 O 0.39370(6) 0.19677(5) 0.97913(5)
O15_20 O 0.41771(6) 0.17331(6) 0.98002(5)
C45_36 C 0.40961(10) 0.18818(11) 0.97325(7)
C46_36 C 0.42086(13) 0.19949(9) 0.95701(9)
C47_36 C 0.41152(8) 0.21292(11) 0.94415(12)
H28_36 H 0.3977 0.2154 0.9456
C48_36 C 0.42188(13) 0.22243(8) 0.92959(9)
H29_36 H 0.4151 0.2315 0.9211
C49_36 C 0.44232(12) 0.21915(11) 0.92689(10)
C50_36 C 0.45111(9) 0.20669(12) 0.93994(13)
H30_36 H 0.4651 0.2049 0.9391
C51_36 C 0.44101(14) 0.19647(9) 0.95427(10)
H31_36 H 0.4479 0.1872 0.9624
C52_36 C 0.45368(11) 0.23043(8) 0.91083(12)
C53_36 C 0.44647(9) 0.23170(10) 0.89155(13)
H32_36 H 0.4343 0.2254 0.8882
C54_36 C 0.45695(10) 0.24224(8) 0.87694(12)
C55_36 C 0.47346(11) 0.25092(8) 0.88285(9)
H33_36 H 0.4804 0.2583 0.8730
C56_36 C 0.48218(9) 0.25059(8) 0.90218(11)
C57_36 C 0.47203(10) 0.24016(10) 0.91562(10)
H34_36 H 0.4771 0.2391 0.9288
C58_36 C 0.44927(12) 0.24239(8) 0.85684(11)
C59_36 C 0.42983(13) 0.23949(8) 0.85198(12)
H35_36 H 0.4204 0.2373 0.8623
C60_36 C 0.42352(9) 0.23967(8) 0.83263(16)
H36_36 H 0.4098 0.2380 0.8297
C61_36 C 0.43728(13) 0.24232(7) 0.81711(10)
C62_36 C 0.45614(12) 0.24472(8) 0.82197(11)
H37_36 H 0.4658 0.2464 0.8118
C63_36 C 0.46205(8) 0.24479(8) 0.84120(15)
H38_36 H 0.4758 0.2466 0.8440
C64_36 C 0.42996(11) 0.24108(8) 0.79661(11)
H51_12 H 0.572126 0.127834 0.986538
O1_37 O 0.80323(5) 0.39370(6) 0.02087(5)
O2_37 O 0.82669(6) 0.41771(6) 0.01998(5)
O3_37 O 0.76404(5) 0.41210(7) 0.20685(5)
O4_37 O 0.75431(5) 0.44200(6) 0.21669(6)
O9_49 O 0.79161(6) 0.35463(6) 0.0000
O10_49 O 0.86617(8) 0.42707(8) 0.0000
O11_37 O 0.77580(6) 0.37181(7) 0.22420(6)
O12_37 O 0.74593(5) 0.46579(6) 0.25407(5)
C1_37 C 0.81182(11) 0.40961(10) 0.02675(7)
C2_37 C 0.80051(9) 0.42086(13) 0.04299(9)
C3_37 C 0.78708(11) 0.41152(8) 0.05585(12)
H1_37 H 0.7846 0.3977 0.0544
C4_37 C 0.77757(8) 0.42188(13) 0.07041(9)
H2_37 H 0.7685 0.4151 0.0789
C5_37 C 0.78085(11) 0.44232(12) 0.07311(10)
C6_37 C 0.79331(12) 0.45111(9) 0.06006(13)
H3_37 H 0.7951 0.4651 0.0609
C7_37 C 0.80353(9) 0.44101(14) 0.04573(10)
H4_37 H 0.8128 0.4479 0.0376
C8_37 C 0.76957(8) 0.45368(11) 0.08917(12)
C9_37 C 0.76830(10) 0.44647(9) 0.10845(13)
H5_37 H 0.7746 0.4343 0.1118
C10_37 C 0.75776(8) 0.45695(10) 0.12306(12)
C11_37 C 0.74908(8) 0.47346(11) 0.11715(9)
H6_37 H 0.7417 0.4804 0.1270
C12_37 C 0.74941(8) 0.48218(9) 0.09782(11)
C13_37 C 0.75984(10) 0.47203(10) 0.08438(10)
H7_37 H 0.7609 0.4771 0.0712
C14_61 C 0.73945(10) 0.5000 0.09172(9)
H8_61 H 0.7258 0.5000 0.0973
H9_61 H 0.7383 0.5000 0.0771
C15_37 C 0.75761(8) 0.44927(12) 0.14316(11)
C16_37 C 0.76051(8) 0.42983(13) 0.14802(12)
H10_37 H 0.7627 0.4204 0.1377
C17_37 C 0.76033(8) 0.42352(9) 0.16737(16)
H11_37 H 0.7620 0.4098 0.1703
C18_37 C 0.75768(7) 0.43728(13) 0.18289(10)
C19_37 C 0.75528(8) 0.45614(12) 0.17803(11)
H12_37 H 0.7536 0.4658 0.1882
C20_37 C 0.75521(8) 0.46205(8) 0.15880(15)
H13_37 H 0.7534 0.4758 0.1560
C21_37 C 0.75892(8) 0.42996(11) 0.20339(11)
C45_37 C 0.81182(11) 0.59039(10) 0.02675(7)
C46_37 C 0.80051(9) 0.57914(13) 0.04299(9)
C47_37 C 0.78708(11) 0.58848(8) 0.05585(12)
H28_37 H 0.7846 0.6023 0.0544
C48_37 C 0.77757(8) 0.57812(13) 0.07041(9)
H29_37 H 0.7685 0.5849 0.0789
C49_37 C 0.78085(11) 0.55768(12) 0.07311(10)
C50_37 C 0.79331(12) 0.54889(9) 0.06006(13)
H30_37 H 0.7951 0.5349 0.0609
C51_37 C 0.80353(9) 0.55899(14) 0.04573(10)
H31_37 H 0.8128 0.5521 0.0376
C52_37 C 0.76957(8) 0.54632(11) 0.08917(12)
C53_37 C 0.76830(10) 0.55353(9) 0.10845(13)
H32_37 H 0.7746 0.5657 0.1118
C54_37 C 0.75776(8) 0.54305(10) 0.12306(12)
C55_37 C 0.74908(8) 0.52654(11) 0.11715(9)
H33_37 H 0.7417 0.5196 0.1270
C56_37 C 0.74941(8) 0.51782(9) 0.09782(11)
C57_37 C 0.75984(10) 0.52797(10) 0.08438(10)
H34_37 H 0.7609 0.5229 0.0712
C58_37 C 0.75761(8) 0.55073(12) 0.14316(11)
C59_37 C 0.76051(8) 0.57017(13) 0.14802(12)
H35_37 H 0.7627 0.5796 0.1377
C60_37 C 0.76033(8) 0.57648(9) 0.16737(16)
H36_37 H 0.7620 0.5902 0.1703
C61_37 C 0.75768(7) 0.56272(13) 0.18289(10)
C62_37 C 0.75528(8) 0.54386(12) 0.17803(11)
H37_37 H 0.7536 0.5342 0.1882
C63_37 C 0.75521(8) 0.53795(8) 0.15880(15)
H38_37 H 0.7534 0.5242 0.1560
C64_37 C 0.75892(8) 0.57004(11) 0.20339(11)
H51_13 H 0.872166 0.427874 0.0134617
O7_37 O 0.83149(5) 0.36407(5) 0.98013(6)
O8_37 O 0.85456(7) 0.38806(5) 0.97993(6)
O9_50 O 0.79161(6) 0.35463(6) 1.0000
O10_50 O 0.86617(8) 0.42707(8) 1.0000
C22_37 C 0.77455(8) 0.26126(14) 0.90751(10)
C23_37 C 0.79574(9) 0.26150(12) 0.90114(13)
C24_37 C 0.80093(9) 0.26873(13) 0.88232(12)
H14_37 H 0.7908 0.2735 0.8738
C25_37 C 0.82053(10) 0.26909(9) 0.87581(15)
H15_37 H 0.8237 0.2741 0.8630
C26_37 C 0.83549(9) 0.26208(13) 0.88808(11)
C27_37 C 0.83055(8) 0.25543(12) 0.90699(12)
H16_37 H 0.8407 0.2511 0.9158
C28_37 C 0.81057(8) 0.25514(10) 0.91314(14)
H17_37 H 0.8074 0.2504 0.9260
C29_37 C 0.85736(7) 0.26279(9) 0.88261(11)
C30_37 C 0.86293(10) 0.26161(8) 0.86293(8)
H18_37 H 0.8530 0.2600 0.8530
C31_37 C 0.87227(7) 0.26573(9) 0.89686(12)
H19_37 H 0.8686 0.2666 0.9105
C32_37 C 0.89192(11) 0.26743(12) 0.89192(12)
C33_37 C 0.90713(14) 0.27276(10) 0.90713(10)
H20_37 H 0.9201 0.2670 0.9033
H21_37 H 0.9033 0.2670 0.9201
C34_37 C 0.90915(14) 0.29488(7) 0.90915(7)
C35_37 C 0.89660(13) 0.30552(7) 0.92144(7)
H22_37 H 0.8874 0.2985 0.9295
C36_37 C 0.89696(11) 0.32597(10) 0.92235(10)
C37_37 C 0.90959(14) 0.33555(9) 0.90959(9)
H23_37 H 0.9095 0.3497 0.9095
C38_37 C 0.88444(11) 0.33654(10) 0.93552(12)
C39_37 C 0.89070(14) 0.35400(11) 0.94372(9)
H24_37 H 0.9038 0.3586 0.9410
C40_37 C 0.87850(8) 0.36516(10) 0.95587(15)
H25_37 H 0.8832 0.3775 0.9609
C41_37 C 0.85932(13) 0.35864(10) 0.96090(11)
C42_37 C 0.85307(12) 0.34120(10) 0.95345(9)
H26_37 H 0.8403 0.3361 0.9566
C43_37 C 0.86593(8) 0.33073(10) 0.94104(15)
H27_37 H 0.8613 0.3184 0.9360
C44_37 C 0.84718(11) 0.37158(8) 0.97454(11)
C65_37 C 0.90751(10) 0.26126(14) 0.77455(8)
C66_37 C 0.90114(13) 0.26150(12) 0.79574(9)
C67_37 C 0.88232(12) 0.26873(13) 0.80093(9)
H39_37 H 0.8738 0.2735 0.7908
C68_37 C 0.87581(15) 0.26909(9) 0.82053(10)
H40_37 H 0.8630 0.2741 0.8237
C69_37 C 0.88808(11) 0.26208(13) 0.83549(9)
C70_37 C 0.90699(12) 0.25543(12) 0.83055(8)
H41_37 H 0.9158 0.2511 0.8407
C71_37 C 0.91314(14) 0.25514(10) 0.81057(8)
H42_37 H 0.9260 0.2504 0.8074
C72_37 C 0.88261(11) 0.26279(9) 0.85736(7)
C73_37 C 0.89686(12) 0.26573(9) 0.87227(7)
H43_37 H 0.9105 0.2666 0.8686
C74_37 C 0.92144(7) 0.30552(7) 0.89660(13)
H44_37 H 0.9295 0.2985 0.8874
C75_37 C 0.92235(10) 0.32597(10) 0.89696(11)
C76_37 C 0.93552(12) 0.33654(10) 0.88444(11)
C77_37 C 0.94372(9) 0.35400(11) 0.89070(14)
H45_37 H 0.9410 0.3586 0.9038
C78_37 C 0.95587(15) 0.36516(10) 0.87850(8)
H46_37 H 0.9609 0.3775 0.8832
C79_37 C 0.96090(11) 0.35864(10) 0.85932(13)
C80_37 C 0.95345(9) 0.34120(10) 0.85307(12)
H47_37 H 0.9566 0.3361 0.8403
C81_37 C 0.94104(15) 0.33073(10) 0.86593(8)
H48_37 H 0.9360 0.3184 0.8613
C82_37 C 0.97454(11) 0.37158(8) 0.84718(11)
H52_13 H 0.876534 0.423228 0.99022
H55_13 H 0.778675 0.360918 0.99669
H56_13 H 0.79477 0.344293 0.989951
O1_38 O 0.39370(6) 0.19677(5) 0.02087(5)
O2_38 O 0.41771(6) 0.17331(6) 0.01998(5)
O3_38 O 0.41210(7) 0.23596(5) 0.20685(5)
O4_38 O 0.44200(6) 0.24569(5) 0.21669(6)
O9_51 O 0.35463(6) 0.20839(6) 0.0000
O10_51 O 0.42707(8) 0.13383(8) 0.0000
O11_38 O 0.37181(7) 0.22420(6) 0.22420(6)
O12_38 O 0.46579(6) 0.25407(5) 0.25407(5)
C1_38 C 0.40961(10) 0.18818(11) 0.02675(7)
C2_38 C 0.42086(13) 0.19949(9) 0.04299(9)
C3_38 C 0.41152(8) 0.21292(11) 0.05585(12)
H1_38 H 0.3977 0.2154 0.0544
C4_38 C 0.42188(13) 0.22243(8) 0.07041(9)
H2_38 H 0.4151 0.2315 0.0789
C5_38 C 0.44232(12) 0.21915(11) 0.07311(10)
C6_38 C 0.45111(9) 0.20669(12) 0.06006(13)
H3_38 H 0.4651 0.2049 0.0609
C7_38 C 0.44101(14) 0.19647(9) 0.04573(10)
H4_38 H 0.4479 0.1872 0.0376
C8_38 C 0.45368(11) 0.23043(8) 0.08917(12)
C9_38 C 0.44647(9) 0.23170(10) 0.10845(13)
H5_38 H 0.4343 0.2254 0.1118
C10_38 C 0.45695(10) 0.24224(8) 0.12306(12)
C11_38 C 0.47346(11) 0.25092(8) 0.11715(9)
H6_38 H 0.4804 0.2583 0.1270
C12_38 C 0.48218(9) 0.25059(8) 0.09782(11)
C13_38 C 0.47203(10) 0.24016(10) 0.08438(10)
H7_38 H 0.4771 0.2391 0.0712
C14_62 C 0.5000 0.26055(10) 0.09172(9)
H8_62 H 0.5000 0.2742 0.0973
H9_62 H 0.5000 0.2617 0.0771
C15_38 C 0.44927(12) 0.24239(8) 0.14316(11)
C16_38 C 0.42983(13) 0.23949(8) 0.14802(12)
H10_38 H 0.4204 0.2373 0.1377
C17_38 C 0.42352(9) 0.23967(8) 0.16737(16)
H11_38 H 0.4098 0.2380 0.1703
C18_38 C 0.43728(13) 0.24232(7) 0.18289(10)
C19_38 C 0.45614(12) 0.24472(8) 0.17803(11)
H12_38 H 0.4658 0.2464 0.1882
C20_38 C 0.46205(8) 0.24479(8) 0.15880(15)
H13_38 H 0.4758 0.2466 0.1560
C21_38 C 0.42996(11) 0.24108(8) 0.20339(11)
C45_38 C 0.59039(10) 0.18818(11) 0.02675(7)
C46_38 C 0.57914(13) 0.19949(9) 0.04299(9)
C47_38 C 0.58848(8) 0.21292(11) 0.05585(12)
H28_38 H 0.6023 0.2154 0.0544
C48_38 C 0.57812(13) 0.22243(8) 0.07041(9)
H29_38 H 0.5849 0.2315 0.0789
C49_38 C 0.55768(12) 0.21915(11) 0.07311(10)
C50_38 C 0.54889(9) 0.20669(12) 0.06006(13)
H30_38 H 0.5349 0.2049 0.0609
C51_38 C 0.55899(14) 0.19647(9) 0.04573(10)
H31_38 H 0.5521 0.1872 0.0376
C52_38 C 0.54632(11) 0.23043(8) 0.08917(12)
C53_38 C 0.55353(9) 0.23170(10) 0.10845(13)
H32_38 H 0.5657 0.2254 0.1118
C54_38 C 0.54305(10) 0.24224(8) 0.12306(12)
C55_38 C 0.52654(11) 0.25092(8) 0.11715(9)
H33_38 H 0.5196 0.2583 0.1270
C56_38 C 0.51782(9) 0.25059(8) 0.09782(11)
C57_38 C 0.52797(10) 0.24016(10) 0.08438(10)
H34_38 H 0.5229 0.2391 0.0712
C58_38 C 0.55073(12) 0.24239(8) 0.14316(11)
C59_38 C 0.57017(13) 0.23949(8) 0.14802(12)
H35_38 H 0.5796 0.2373 0.1377
C60_38 C 0.57648(9) 0.23967(8) 0.16737(16)
H36_38 H 0.5902 0.2380 0.1703
C61_38 C 0.56272(13) 0.24232(7) 0.18289(10)
C62_38 C 0.54386(12) 0.24472(8) 0.17803(11)
H37_38 H 0.5342 0.2464 0.1882
C63_38 C 0.53795(8) 0.24479(8) 0.15880(15)
H38_38 H 0.5242 0.2466 0.1560
C64_38 C 0.57004(11) 0.24108(8) 0.20339(11)
H51_14 H 0.427874 0.127834 0.0134617
O7_38 O 0.36407(5) 0.16851(5) 0.98013(6)
O8_38 O 0.38806(5) 0.14544(7) 0.97993(6)
O9_52 O 0.35463(6) 0.20839(6) 1.0000
O10_52 O 0.42707(8) 0.13383(8) 1.0000
C22_38 C 0.26126(14) 0.22545(8) 0.90751(10)
C23_38 C 0.26150(12) 0.20426(9) 0.90114(13)
C24_38 C 0.26873(13) 0.19907(9) 0.88232(12)
H14_38 H 0.2735 0.2092 0.8738
C25_38 C 0.26909(9) 0.17947(10) 0.87581(15)
H15_38 H 0.2741 0.1763 0.8630
C26_38 C 0.26208(13) 0.16451(9) 0.88808(11)
C27_38 C 0.25543(12) 0.16945(8) 0.90699(12)
H16_38 H 0.2511 0.1593 0.9158
C28_38 C 0.25514(10) 0.18943(8) 0.91314(14)
H17_38 H 0.2504 0.1926 0.9260
C29_38 C 0.26279(9) 0.14264(7) 0.88261(11)
C30_38 C 0.26161(8) 0.13707(10) 0.86293(8)
H18_38 H 0.2600 0.1470 0.8530
C31_38 C 0.26573(9) 0.12773(7) 0.89686(12)
H19_38 H 0.2666 0.1314 0.9105
C32_38 C 0.26743(12) 0.10808(11) 0.89192(12)
C33_38 C 0.27276(10) 0.09287(14) 0.90713(10)
H20_38 H 0.2670 0.0799 0.9033
H21_38 H 0.2670 0.0967 0.9201
C34_38 C 0.29488(7) 0.09085(14) 0.90915(7)
C35_38 C 0.30552(7) 0.10340(13) 0.92144(7)
H22_38 H 0.2985 0.1126 0.9295
C36_38 C 0.32597(10) 0.10304(11) 0.92235(10)
C37_38 C 0.33555(9) 0.09041(14) 0.90959(9)
H23_38 H 0.3497 0.0905 0.9095
C38_38 C 0.33654(10) 0.11556(11) 0.93552(12)
C39_38 C 0.35400(11) 0.10930(14) 0.94372(9)
H24_38 H 0.3586 0.0962 0.9410
C40_38 C 0.36516(10) 0.12150(8) 0.95587(15)
H25_38 H 0.3775 0.1168 0.9609
C41_38 C 0.35864(10) 0.14068(13) 0.96090(11)
C42_38 C 0.34120(10) 0.14693(12) 0.95345(9)
H26_38 H 0.3361 0.1597 0.9566
C43_38 C 0.33073(10) 0.13407(8) 0.94104(15)
H27_38 H 0.3184 0.1387 0.9360
C44_38 C 0.37158(8) 0.15282(11) 0.97454(11)
C65_38 C 0.26126(14) 0.09249(10) 0.77455(8)
C66_38 C 0.26150(12) 0.09886(13) 0.79574(9)
C67_38 C 0.26873(13) 0.11768(12) 0.80093(9)
H39_38 H 0.2735 0.1262 0.7908
C68_38 C 0.26909(9) 0.12419(15) 0.82053(10)
H40_38 H 0.2741 0.1370 0.8237
C69_38 C 0.26208(13) 0.11192(11) 0.83549(9)
C70_38 C 0.25543(12) 0.09301(12) 0.83055(8)
H41_38 H 0.2511 0.0842 0.8407
C71_38 C 0.25514(10) 0.08686(14) 0.81057(8)
H42_38 H 0.2504 0.0740 0.8074
C72_38 C 0.26279(9) 0.11739(11) 0.85736(7)
C73_38 C 0.26573(9) 0.10314(12) 0.87227(7)
H43_38 H 0.2666 0.0895 0.8686
C74_38 C 0.30552(7) 0.07856(7) 0.89660(13)
H44_38 H 0.2985 0.0705 0.8874
C75_38 C 0.32597(10) 0.07765(10) 0.89696(11)
C76_38 C 0.33654(10) 0.06448(12) 0.88444(11)
C77_38 C 0.35400(11) 0.05628(9) 0.89070(14)
H45_38 H 0.3586 0.0590 0.9038
C78_38 C 0.36516(10) 0.04413(15) 0.87850(8)
H46_38 H 0.3775 0.0391 0.8832
C79_38 C 0.35864(10) 0.03910(11) 0.85932(13)
C80_38 C 0.34120(10) 0.04655(9) 0.85307(12)
H47_38 H 0.3361 0.0434 0.8403
C81_38 C 0.33073(10) 0.05896(15) 0.86593(8)
H48_38 H 0.3184 0.0640 0.8613
C82_38 C 0.37158(8) 0.02546(11) 0.84718(11)
H52_14 H 0.423228 0.123466 0.99022
H55_14 H 0.360918 0.221325 0.99669
H56_14 H 0.344293 0.20523 0.989951
O1_39 O 0.19677(5) 0.60630(6) 0.02087(5)
O2_39 O 0.17331(6) 0.58229(6) 0.01998(5)
O3_39 O 0.23596(5) 0.58790(7) 0.20685(5)
O4_39 O 0.24569(5) 0.55800(6) 0.21669(6)
O9_53 O 0.20839(6) 0.64537(6) 0.0000
O10_53 O 0.13383(8) 0.57293(8) 0.0000
O11_39 O 0.22420(6) 0.62819(7) 0.22420(6)
O12_39 O 0.25407(5) 0.53421(6) 0.25407(5)
C1_39 C 0.18818(11) 0.59039(10) 0.02675(7)
C2_39 C 0.19949(9) 0.57914(13) 0.04299(9)
C3_39 C 0.21292(11) 0.58848(8) 0.05585(12)
H1_39 H 0.2154 0.6023 0.0544
C4_39 C 0.22243(8) 0.57812(13) 0.07041(9)
H2_39 H 0.2315 0.5849 0.0789
C5_39 C 0.21915(11) 0.55768(12) 0.07311(10)
C6_39 C 0.20669(12) 0.54889(9) 0.06006(13)
H3_39 H 0.2049 0.5349 0.0609
C7_39 C 0.19647(9) 0.55899(14) 0.04573(10)
H4_39 H 0.1872 0.5521 0.0376
C8_39 C 0.23043(8) 0.54632(11) 0.08917(12)
C9_39 C 0.23170(10) 0.55353(9) 0.10845(13)
H5_39 H 0.2254 0.5657 0.1118
C10_39 C 0.24224(8) 0.54305(10) 0.12306(12)
C11_39 C 0.25092(8) 0.52654(11) 0.11715(9)
H6_39 H 0.2583 0.5196 0.1270
C12_39 C 0.25059(8) 0.51782(9) 0.09782(11)
C13_39 C 0.24016(10) 0.52797(10) 0.08438(10)
H7_39 H 0.2391 0.5229 0.0712
C14_63 C 0.26055(10) 0.5000 0.09172(9)
H8_63 H 0.2742 0.5000 0.0973
H9_63 H 0.2617 0.5000 0.0771
C15_39 C 0.24239(8) 0.55073(12) 0.14316(11)
C16_39 C 0.23949(8) 0.57017(13) 0.14802(12)
H10_39 H 0.2373 0.5796 0.1377
C17_39 C 0.23967(8) 0.57648(9) 0.16737(16)
H11_39 H 0.2380 0.5902 0.1703
C18_39 C 0.24232(7) 0.56272(13) 0.18289(10)
C19_39 C 0.24472(8) 0.54386(12) 0.17803(11)
H12_39 H 0.2464 0.5342 0.1882
C20_39 C 0.24479(8) 0.53795(8) 0.15880(15)
H13_39 H 0.2466 0.5242 0.1560
C21_39 C 0.24108(8) 0.57004(11) 0.20339(11)
C45_39 C 0.18818(11) 0.40961(10) 0.02675(7)
C46_39 C 0.19949(9) 0.42086(13) 0.04299(9)
C47_39 C 0.21292(11) 0.41152(8) 0.05585(12)
H28_39 H 0.2154 0.3977 0.0544
C48_39 C 0.22243(8) 0.42188(13) 0.07041(9)
H29_39 H 0.2315 0.4151 0.0789
C49_39 C 0.21915(11) 0.44232(12) 0.07311(10)
C50_39 C 0.20669(12) 0.45111(9) 0.06006(13)
H30_39 H 0.2049 0.4651 0.0609
C51_39 C 0.19647(9) 0.44101(14) 0.04573(10)
H31_39 H 0.1872 0.4479 0.0376
C52_39 C 0.23043(8) 0.45368(11) 0.08917(12)
C53_39 C 0.23170(10) 0.44647(9) 0.10845(13)
H32_39 H 0.2254 0.4343 0.1118
C54_39 C 0.24224(8) 0.45695(10) 0.12306(12)
C55_39 C 0.25092(8) 0.47346(11) 0.11715(9)
H33_39 H 0.2583 0.4804 0.1270
C56_39 C 0.25059(8) 0.48218(9) 0.09782(11)
C57_39 C 0.24016(10) 0.47203(10) 0.08438(10)
H34_39 H 0.2391 0.4771 0.0712
C58_39 C 0.24239(8) 0.44927(12) 0.14316(11)
C59_39 C 0.23949(8) 0.42983(13) 0.14802(12)
H35_39 H 0.2373 0.4204 0.1377
C60_39 C 0.23967(8) 0.42352(9) 0.16737(16)
H36_39 H 0.2380 0.4098 0.1703
C61_39 C 0.24232(7) 0.43728(13) 0.18289(10)
C62_39 C 0.24472(8) 0.45614(12) 0.17803(11)
H37_39 H 0.2464 0.4658 0.1882
C63_39 C 0.24479(8) 0.46205(8) 0.15880(15)
H38_39 H 0.2466 0.4758 0.1560
C64_39 C 0.24108(8) 0.42996(11) 0.20339(11)
H51_15 H 0.127834 0.572126 0.0134617
O7_39 O 0.16851(5) 0.63593(5) 0.98013(6)
O8_39 O 0.14544(7) 0.61194(5) 0.97993(6)
O9_54 O 0.20839(6) 0.64537(6) 1.0000
O10_54 O 0.13383(8) 0.57293(8) 1.0000
C22_39 C 0.22545(8) 0.73874(14) 0.90751(10)
C23_39 C 0.20426(9) 0.73850(12) 0.90114(13)
C24_39 C 0.19907(9) 0.73127(13) 0.88232(12)
H14_39 H 0.2092 0.7265 0.8738
C25_39 C 0.17947(10) 0.73091(9) 0.87581(15)
H15_39 H 0.1763 0.7259 0.8630
C26_39 C 0.16451(9) 0.73792(13) 0.88808(11)
C27_39 C 0.16945(8) 0.74457(12) 0.90699(12)
H16_39 H 0.1593 0.7489 0.9158
C28_39 C 0.18943(8) 0.74486(10) 0.91314(14)
H17_39 H 0.1926 0.7496 0.9260
C29_39 C 0.14264(7) 0.73721(9) 0.88261(11)
C30_39 C 0.13707(10) 0.73839(8) 0.86293(8)
H18_39 H 0.1470 0.7400 0.8530
C31_39 C 0.12773(7) 0.73427(9) 0.89686(12)
H19_39 H 0.1314 0.7334 0.9105
C32_39 C 0.10808(11) 0.73257(12) 0.89192(12)
C33_39 C 0.09287(14) 0.72724(10) 0.90713(10)
H20_39 H 0.0799 0.7330 0.9033
H21_39 H 0.0967 0.7330 0.9201
C34_39 C 0.09085(14) 0.70512(7) 0.90915(7)
C35_39 C 0.10340(13) 0.69448(7) 0.92144(7)
H22_39 H 0.1126 0.7015 0.9295
C36_39 C 0.10304(11) 0.67403(10) 0.92235(10)
C37_39 C 0.09041(14) 0.66445(9) 0.90959(9)
H23_39 H 0.0905 0.6503 0.9095
C38_39 C 0.11556(11) 0.66346(10) 0.93552(12)
C39_39 C 0.10930(14) 0.64600(11) 0.94372(9)
H24_39 H 0.0962 0.6414 0.9410
C40_39 C 0.12150(8) 0.63484(10) 0.95587(15)
H25_39 H 0.1168 0.6225 0.9609
C41_39 C 0.14068(13) 0.64136(10) 0.96090(11)
C42_39 C 0.14693(12) 0.65880(10) 0.95345(9)
H26_39 H 0.1597 0.6639 0.9566
C43_39 C 0.13407(8) 0.66927(10) 0.94104(15)
H27_39 H 0.1387 0.6816 0.9360
C44_39 C 0.15282(11) 0.62842(8) 0.97454(11)
C65_39 C 0.09249(10) 0.73874(14) 0.77455(8)
C66_39 C 0.09886(13) 0.73850(12) 0.79574(9)
C67_39 C 0.11768(12) 0.73127(13) 0.80093(9)
H39_39 H 0.1262 0.7265 0.7908
C68_39 C 0.12419(15) 0.73091(9) 0.82053(10)
H40_39 H 0.1370 0.7259 0.8237
C69_39 C 0.11192(11) 0.73792(13) 0.83549(9)
C70_39 C 0.09301(12) 0.74457(12) 0.83055(8)
H41_39 H 0.0842 0.7489 0.8407
C71_39 C 0.08686(14) 0.74486(10) 0.81057(8)
H42_39 H 0.0740 0.7496 0.8074
C72_39 C 0.11739(11) 0.73721(9) 0.85736(7)
C73_39 C 0.10314(12) 0.73427(9) 0.87227(7)
H43_39 H 0.0895 0.7334 0.8686
C74_39 C 0.07856(7) 0.69448(7) 0.89660(13)
H44_39 H 0.0705 0.7015 0.8874
C75_39 C 0.07765(10) 0.67403(10) 0.89696(11)
C76_39 C 0.06448(12) 0.66346(10) 0.88444(11)
C77_39 C 0.05628(9) 0.64600(11) 0.89070(14)
H45_39 H 0.0590 0.6414 0.9038
C78_39 C 0.04413(15) 0.63484(10) 0.87850(8)
H46_39 H 0.0391 0.6225 0.8832
C79_39 C 0.03910(11) 0.64136(10) 0.85932(13)
C80_39 C 0.04655(9) 0.65880(10) 0.85307(12)
H47_39 H 0.0434 0.6639 0.8403
C81_39 C 0.05896(15) 0.66927(10) 0.86593(8)
H48_39 H 0.0640 0.6816 0.8613
C82_39 C 0.02546(11) 0.62842(8) 0.84718(11)
H52_15 H 0.123466 0.576772 0.99022
H55_15 H 0.221325 0.639082 0.99669
H56_15 H 0.20523 0.655707 0.989951
O1_40 O 0.60630(6) 0.80323(5) 0.02087(5)
O2_40 O 0.58229(6) 0.82669(6) 0.01998(5)
O3_40 O 0.58790(7) 0.76404(5) 0.20685(5)
O4_40 O 0.55800(6) 0.75431(5) 0.21669(6)
O9_55 O 0.64537(6) 0.79161(6) 0.0000
O10_55 O 0.57293(8) 0.86617(8) 0.0000
O11_40 O 0.62819(7) 0.77580(6) 0.22420(6)
O12_40 O 0.53421(6) 0.74593(5) 0.25407(5)
C1_40 C 0.59039(10) 0.81182(11) 0.02675(7)
C2_40 C 0.57914(13) 0.80051(9) 0.04299(9)
C3_40 C 0.58848(8) 0.78708(11) 0.05585(12)
H1_40 H 0.6023 0.7846 0.0544
C4_40 C 0.57812(13) 0.77757(8) 0.07041(9)
H2_40 H 0.5849 0.7685 0.0789
C5_40 C 0.55768(12) 0.78085(11) 0.07311(10)
C6_40 C 0.54889(9) 0.79331(12) 0.06006(13)
H3_40 H 0.5349 0.7951 0.0609
C7_40 C 0.55899(14) 0.80353(9) 0.04573(10)
H4_40 H 0.5521 0.8128 0.0376
C8_40 C 0.54632(11) 0.76957(8) 0.08917(12)
C9_40 C 0.55353(9) 0.76830(10) 0.10845(13)
H5_40 H 0.5657 0.7746 0.1118
C10_40 C 0.54305(10) 0.75776(8) 0.12306(12)
C11_40 C 0.52654(11) 0.74908(8) 0.11715(9)
H6_40 H 0.5196 0.7417 0.1270
C12_40 C 0.51782(9) 0.74941(8) 0.09782(11)
C13_40 C 0.52797(10) 0.75984(10) 0.08438(10)
H7_40 H 0.5229 0.7609 0.0712
C14_64 C 0.5000 0.73945(10) 0.09172(9)
H8_64 H 0.5000 0.7258 0.0973
H9_64 H 0.5000 0.7383 0.0771
C15_40 C 0.55073(12) 0.75761(8) 0.14316(11)
C16_40 C 0.57017(13) 0.76051(8) 0.14802(12)
H10_40 H 0.5796 0.7627 0.1377
C17_40 C 0.57648(9) 0.76033(8) 0.16737(16)
H11_40 H 0.5902 0.7620 0.1703
C18_40 C 0.56272(13) 0.75768(7) 0.18289(10)
C19_40 C 0.54386(12) 0.75528(8) 0.17803(11)
H12_40 H 0.5342 0.7536 0.1882
C20_40 C 0.53795(8) 0.75521(8) 0.15880(15)
H13_40 H 0.5242 0.7534 0.1560
C21_40 C 0.57004(11) 0.75892(8) 0.20339(11)
C45_40 C 0.40961(10) 0.81182(11) 0.02675(7)
C46_40 C 0.42086(13) 0.80051(9) 0.04299(9)
C47_40 C 0.41152(8) 0.78708(11) 0.05585(12)
H28_40 H 0.3977 0.7846 0.0544
C48_40 C 0.42188(13) 0.77757(8) 0.07041(9)
H29_40 H 0.4151 0.7685 0.0789
C49_40 C 0.44232(12) 0.78085(11) 0.07311(10)
C50_40 C 0.45111(9) 0.79331(12) 0.06006(13)
H30_40 H 0.4651 0.7951 0.0609
C51_40 C 0.44101(14) 0.80353(9) 0.04573(10)
H31_40 H 0.4479 0.8128 0.0376
C52_40 C 0.45368(11) 0.76957(8) 0.08917(12)
C53_40 C 0.44647(9) 0.76830(10) 0.10845(13)
H32_40 H 0.4343 0.7746 0.1118
C54_40 C 0.45695(10) 0.75776(8) 0.12306(12)
C55_40 C 0.47346(11) 0.74908(8) 0.11715(9)
H33_40 H 0.4804 0.7417 0.1270
C56_40 C 0.48218(9) 0.74941(8) 0.09782(11)
C57_40 C 0.47203(10) 0.75984(10) 0.08438(10)
H34_40 H 0.4771 0.7609 0.0712
C58_40 C 0.44927(12) 0.75761(8) 0.14316(11)
C59_40 C 0.42983(13) 0.76051(8) 0.14802(12)
H35_40 H 0.4204 0.7627 0.1377
C60_40 C 0.42352(9) 0.76033(8) 0.16737(16)
H36_40 H 0.4098 0.7620 0.1703
C61_40 C 0.43728(13) 0.75768(7) 0.18289(10)
C62_40 C 0.45614(12) 0.75528(8) 0.17803(11)
H37_40 H 0.4658 0.7536 0.1882
C63_40 C 0.46205(8) 0.75521(8) 0.15880(15)
H38_40 H 0.4758 0.7534 0.1560
C64_40 C 0.42996(11) 0.75892(8) 0.20339(11)
H51_16 H 0.572126 0.872166 0.0134617
O7_40 O 0.63593(5) 0.83149(5) 0.98013(6)
O8_40 O 0.61194(5) 0.85456(7) 0.97993(6)
O9_56 O 0.64537(6) 0.79161(6) 1.0000
O10_56 O 0.57293(8) 0.86617(8) 1.0000
C22_40 C 0.73874(14) 0.77455(8) 0.90751(10)
C23_40 C 0.73850(12) 0.79574(9) 0.90114(13)
C24_40 C 0.73127(13) 0.80093(9) 0.88232(12)
H14_40 H 0.7265 0.7908 0.8738
C25_40 C 0.73091(9) 0.82053(10) 0.87581(15)
H15_40 H 0.7259 0.8237 0.8630
C26_40 C 0.73792(13) 0.83549(9) 0.88808(11)
C27_40 C 0.74457(12) 0.83055(8) 0.90699(12)
H16_40 H 0.7489 0.8407 0.9158
C28_40 C 0.74486(10) 0.81057(8) 0.91314(14)
H17_40 H 0.7496 0.8074 0.9260
C29_40 C 0.73721(9) 0.85736(7) 0.88261(11)
C30_40 C 0.73839(8) 0.86293(10) 0.86293(8)
H18_40 H 0.7400 0.8530 0.8530
C31_40 C 0.73427(9) 0.87227(7) 0.89686(12)
H19_40 H 0.7334 0.8686 0.9105
C32_40 C 0.73257(12) 0.89192(11) 0.89192(12)
C33_40 C 0.72724(10) 0.90713(14) 0.90713(10)
H20_40 H 0.7330 0.9201 0.9033
H21_40 H 0.7330 0.9033 0.9201
C34_40 C 0.70512(7) 0.90915(14) 0.90915(7)
C35_40 C 0.69448(7) 0.89660(13) 0.92144(7)
H22_40 H 0.7015 0.8874 0.9295
C36_40 C 0.67403(10) 0.89696(11) 0.92235(10)
C37_40 C 0.66445(9) 0.90959(14) 0.90959(9)
H23_40 H 0.6503 0.9095 0.9095
C38_40 C 0.66346(10) 0.88444(11) 0.93552(12)
C39_40 C 0.64600(11) 0.89070(14) 0.94372(9)
H24_40 H 0.6414 0.9038 0.9410
C40_40 C 0.63484(10) 0.87850(8) 0.95587(15)
H25_40 H 0.6225 0.8832 0.9609
C41_40 C 0.64136(10) 0.85932(13) 0.96090(11)
C42_40 C 0.65880(10) 0.85307(12) 0.95345(9)
H26_40 H 0.6639 0.8403 0.9566
C43_40 C 0.66927(10) 0.86593(8) 0.94104(15)
H27_40 H 0.6816 0.8613 0.9360
C44_40 C 0.62842(8) 0.84718(11) 0.97454(11)
C65_40 C 0.73874(14) 0.90751(10) 0.77455(8)
C66_40 C 0.73850(12) 0.90114(13) 0.79574(9)
C67_40 C 0.73127(13) 0.88232(12) 0.80093(9)
H39_40 H 0.7265 0.8738 0.7908
C68_40 C 0.73091(9) 0.87581(15) 0.82053(10)
H40_40 H 0.7259 0.8630 0.8237
C69_40 C 0.73792(13) 0.88808(11) 0.83549(9)
C70_40 C 0.74457(12) 0.90699(12) 0.83055(8)
H41_40 H 0.7489 0.9158 0.8407
C71_40 C 0.74486(10) 0.91314(14) 0.81057(8)
H42_40 H 0.7496 0.9260 0.8074
C72_40 C 0.73721(9) 0.88261(11) 0.85736(7)
C73_40 C 0.73427(9) 0.89686(12) 0.87227(7)
H43_40 H 0.7334 0.9105 0.8686
C74_40 C 0.69448(7) 0.92144(7) 0.89660(13)
H44_40 H 0.7015 0.9295 0.8874
C75_40 C 0.67403(10) 0.92235(10) 0.89696(11)
C76_40 C 0.66346(10) 0.93552(12) 0.88444(11)
C77_40 C 0.64600(11) 0.94372(9) 0.89070(14)
H45_40 H 0.6414 0.9410 0.9038
C78_40 C 0.63484(10) 0.95587(15) 0.87850(8)
H46_40 H 0.6225 0.9609 0.8832
C79_40 C 0.64136(10) 0.96090(11) 0.85932(13)
C80_40 C 0.65880(10) 0.95345(9) 0.85307(12)
H47_40 H 0.6639 0.9566 0.8403
C81_40 C 0.66927(10) 0.94104(15) 0.86593(8)
H48_40 H 0.6816 0.9360 0.8613
C82_40 C 0.62842(8) 0.97454(11) 0.84718(11)
H52_16 H 0.576772 0.876534 0.99022
H55_16 H 0.639082 0.778675 0.99669
H56_16 H 0.655707 0.79477 0.989951
Cu6_28 Cu 0.185160(12) -0.0000 0.622880(12)
Cu8_28 Cu 0.157574(12) -0.0000 0.595250(12)
Cu1_12 Cu -0.0000 0.814840(12) 0.622880(12)
Cu2_12 Cu -0.0000 0.842426(12) 0.595250(12)
O7_41 O 0.01987(6) 0.83149(5) 0.63593(5)
O8_41 O 0.02007(6) 0.85456(7) 0.61194(5)
O9_57 O -0.0000 0.79161(6) 0.64537(6)
O10_57 O -0.0000 0.86617(8) 0.57293(8)
C22_41 C 0.09249(10) 0.77455(8) 0.73874(14)
C23_41 C 0.09886(13) 0.79574(9) 0.73850(12)
C24_41 C 0.11768(12) 0.80093(9) 0.73127(13)
H14_41 H 0.1262 0.7908 0.7265
C25_41 C 0.12419(15) 0.82053(10) 0.73091(9)
H15_41 H 0.1370 0.8237 0.7259
C26_41 C 0.11192(11) 0.83549(9) 0.73792(13)
C27_41 C 0.09301(12) 0.83055(8) 0.74457(12)
H16_41 H 0.0842 0.8407 0.7489
C28_41 C 0.08686(14) 0.81057(8) 0.74486(10)
H17_41 H 0.0740 0.8074 0.7496
C29_41 C 0.11739(11) 0.85736(7) 0.73721(9)
C30_41 C 0.13707(8) 0.86293(10) 0.73839(8)
H18_41 H 0.1470 0.8530 0.7400
C31_41 C 0.10314(12) 0.87227(7) 0.73427(9)
H19_41 H 0.0895 0.8686 0.7334
C32_41 C 0.10808(12) 0.89192(11) 0.73257(12)
C33_41 C 0.09287(10) 0.90713(14) 0.72724(10)
H20_41 H 0.0967 0.9201 0.7330
H21_41 H 0.0799 0.9033 0.7330
C34_41 C 0.09085(7) 0.90915(14) 0.70512(7)
C35_41 C 0.07856(7) 0.89660(13) 0.69448(7)
H22_41 H 0.0705 0.8874 0.7015
C36_41 C 0.07765(10) 0.89696(11) 0.67403(10)
C37_41 C 0.09041(9) 0.90959(14) 0.66445(9)
H23_41 H 0.0905 0.9095 0.6503
C38_41 C 0.06448(12) 0.88444(11) 0.66346(10)
C39_41 C 0.05628(9) 0.89070(14) 0.64600(11)
H24_41 H 0.0590 0.9038 0.6414
C40_41 C 0.04413(15) 0.87850(8) 0.63484(10)
H25_41 H 0.0391 0.8832 0.6225
C41_41 C 0.03910(11) 0.85932(13) 0.64136(10)
C42_41 C 0.04655(9) 0.85307(12) 0.65880(10)
H26_41 H 0.0434 0.8403 0.6639
C43_41 C 0.05896(15) 0.86593(8) 0.66927(10)
H27_41 H 0.0640 0.8613 0.6816
C44_41 C 0.02546(11) 0.84718(11) 0.62842(8)
Cu5_19 Cu -0.0000 0.814840(12) 0.377120(12)
Cu6_29 Cu 0.185160(12) 1.0000 0.622880(12)
Cu7_19 Cu -0.0000 0.842426(12) 0.404750(12)
Cu8_29 Cu 0.157574(12) 1.0000 0.595250(12)
O14_21 O 0.02087(5) 0.80323(5) 0.60630(6)
O16_21 O 0.01998(5) 0.82669(6) 0.58229(6)
O27_28 O 0.16851(5) 0.98013(6) 0.63593(5)
O29_28 O 0.14544(7) 0.97993(6) 0.61194(5)
C65_41 C 0.22545(8) 0.90751(10) 0.73874(14)
C66_41 C 0.20426(9) 0.90114(13) 0.73850(12)
C67_41 C 0.19907(9) 0.88232(12) 0.73127(13)
H39_41 H 0.2092 0.8738 0.7265
C68_41 C 0.17947(10) 0.87581(15) 0.73091(9)
H40_41 H 0.1763 0.8630 0.7259
C69_41 C 0.16451(9) 0.88808(11) 0.73792(13)
C70_41 C 0.16945(8) 0.90699(12) 0.74457(12)
H41_41 H 0.1593 0.9158 0.7489
C71_41 C 0.18943(8) 0.91314(14) 0.74486(10)
H42_41 H 0.1926 0.9260 0.7496
C72_41 C 0.14264(7) 0.88261(11) 0.73721(9)
C73_41 C 0.12773(7) 0.89686(12) 0.73427(9)
H43_41 H 0.1314 0.9105 0.7334
C74_41 C 0.10340(13) 0.92144(7) 0.69448(7)
H44_41 H 0.1126 0.9295 0.7015
C75_41 C 0.10304(11) 0.92235(10) 0.67403(10)
C76_41 C 0.11556(11) 0.93552(12) 0.66346(10)
C77_41 C 0.10930(14) 0.94372(9) 0.64600(11)
H45_41 H 0.0962 0.9410 0.6414
C78_41 C 0.12150(8) 0.95587(15) 0.63484(10)
H46_41 H 0.1168 0.9609 0.6225
C79_41 C 0.14068(13) 0.96090(11) 0.64136(10)
C80_41 C 0.14693(12) 0.95345(9) 0.65880(10)
H47_41 H 0.1597 0.9566 0.6639
C81_41 C 0.13407(8) 0.94104(15) 0.66927(10)
H48_41 H 0.1387 0.9360 0.6816
C82_41 C 0.15282(11) 0.97454(11) 0.62842(8)
H52_17 H 0.00977993 0.876534 0.576772
H55_17 H 0.0033103 0.778675 0.639082
H56_17 H 0.0100492 0.79477 0.655707
Cu1_13 Cu 1.0000 0.814840(12) 0.622880(12)
Cu2_13 Cu 1.0000 0.842426(12) 0.595250(12)
O1_41 O 0.97913(5) 0.80323(5) 0.60630(6)
O2_41 O 0.98002(5) 0.82669(6) 0.58229(6)
O3_41 O 0.79315(5) 0.76404(5) 0.58790(7)
O4_41 O 0.78331(6) 0.75431(5) 0.55800(6)
O9_58 O 1.0000 0.79161(6) 0.64537(6)
O10_58 O 1.0000 0.86617(8) 0.57293(8)
O11_41 O 0.77580(6) 0.77580(6) 0.62819(7)
O12_41 O 0.74593(5) 0.74593(5) 0.53421(6)
C1_41 C 0.97325(7) 0.81182(11) 0.59039(10)
C2_41 C 0.95701(9) 0.80051(9) 0.57914(13)
C3_41 C 0.94415(12) 0.78708(11) 0.58848(8)
H1_41 H 0.9456 0.7846 0.6023
C4_41 C 0.92959(9) 0.77757(8) 0.57812(13)
H2_41 H 0.9211 0.7685 0.5849
C5_41 C 0.92689(10) 0.78085(11) 0.55768(12)
C6_41 C 0.93994(13) 0.79331(12) 0.54889(9)
H3_41 H 0.9391 0.7951 0.5349
C7_41 C 0.95427(10) 0.80353(9) 0.55899(14)
H4_41 H 0.9624 0.8128 0.5521
C8_41 C 0.91083(12) 0.76957(8) 0.54632(11)
C9_41 C 0.89155(13) 0.76830(10) 0.55353(9)
H5_41 H 0.8882 0.7746 0.5657
C10_41 C 0.87694(12) 0.75776(8) 0.54305(10)
C11_41 C 0.88285(9) 0.74908(8) 0.52654(11)
H6_41 H 0.8730 0.7417 0.5196
C12_41 C 0.90218(11) 0.74941(8) 0.51782(9)
C13_41 C 0.91562(10) 0.75984(10) 0.52797(10)
H7_41 H 0.9288 0.7609 0.5229
C14_65 C 0.90828(9) 0.73945(10) 0.5000
H8_65 H 0.9027 0.7258 0.5000
H9_65 H 0.9229 0.7383 0.5000
C15_41 C 0.85684(11) 0.75761(8) 0.55073(12)
C16_41 C 0.85198(12) 0.76051(8) 0.57017(13)
H10_41 H 0.8623 0.7627 0.5796
C17_41 C 0.83263(16) 0.76033(8) 0.57648(9)
H11_41 H 0.8297 0.7620 0.5902
C18_41 C 0.81711(10) 0.75768(7) 0.56272(13)
C19_41 C 0.82197(11) 0.75528(8) 0.54386(12)
H12_41 H 0.8118 0.7536 0.5342
C20_41 C 0.84120(15) 0.75521(8) 0.53795(8)
H13_41 H 0.8440 0.7534 0.5242
C21_41 C 0.79661(11) 0.75892(8) 0.57004(11)
Cu5_20 Cu 1.0000 0.814840(12) 0.377120(12)
Cu7_20 Cu 1.0000 0.842426(12) 0.404750(12)
O13_21 O 0.97913(5) 0.80323(5) 0.39370(6)
O15_21 O 0.98002(5) 0.82669(6) 0.41771(6)
O17_21 O 0.79315(5) 0.76404(5) 0.41210(7)
O18_21 O 0.76404(5) 0.79315(5) 0.58790(7)
O19_21 O 0.78331(6) 0.75431(5) 0.44200(6)
O20_21 O 0.75431(5) 0.78331(6) 0.55800(6)
O28_14 O 0.98013(6) 0.83149(5) 0.63593(5)
O30_14 O 0.97993(6) 0.85456(7) 0.61194(5)
C45_41 C 0.97325(7) 0.81182(11) 0.40961(10)
C46_41 C 0.95701(9) 0.80051(9) 0.42086(13)
C47_41 C 0.94415(12) 0.78708(11) 0.41152(8)
H28_41 H 0.9456 0.7846 0.3977
C48_41 C 0.92959(9) 0.77757(8) 0.42188(13)
H29_41 H 0.9211 0.7685 0.4151
C49_41 C 0.92689(10) 0.78085(11) 0.44232(12)
C50_41 C 0.93994(13) 0.79331(12) 0.45111(9)
H30_41 H 0.9391 0.7951 0.4651
C51_41 C 0.95427(10) 0.80353(9) 0.44101(14)
H31_41 H 0.9624 0.8128 0.4479
C52_41 C 0.91083(12) 0.76957(8) 0.45368(11)
C53_41 C 0.89155(13) 0.76830(10) 0.44647(9)
H32_41 H 0.8882 0.7746 0.4343
C54_41 C 0.87694(12) 0.75776(8) 0.45695(10)
C55_41 C 0.88285(9) 0.74908(8) 0.47346(11)
H33_41 H 0.8730 0.7417 0.4804
C56_41 C 0.90218(11) 0.74941(8) 0.48218(9)
C57_41 C 0.91562(10) 0.75984(10) 0.47203(10)
H34_41 H 0.9288 0.7609 0.4771
C58_41 C 0.85684(11) 0.75761(8) 0.44927(12)
C59_41 C 0.85198(12) 0.76051(8) 0.42983(13)
H35_41 H 0.8623 0.7627 0.4204
C60_41 C 0.83263(16) 0.76033(8) 0.42352(9)
H36_41 H 0.8297 0.7620 0.4098
C61_41 C 0.81711(10) 0.75768(7) 0.43728(13)
C62_41 C 0.82197(11) 0.75528(8) 0.45614(12)
H37_41 H 0.8118 0.7536 0.4658
C63_41 C 0.84120(15) 0.75521(8) 0.46205(8)
H38_41 H 0.8440 0.7534 0.4758
C64_41 C 0.79661(11) 0.75892(8) 0.42996(11)
H51_17 H 0.986538 0.872166 0.572126
Cu1_14 Cu 0.814840(12) 0.0000 0.622880(12)
Cu2_14 Cu 0.842426(12) 0.0000 0.595250(12)
O1_42 O 0.80323(5) 0.02087(5) 0.60630(6)
O2_42 O 0.82669(6) 0.01998(5) 0.58229(6)
O3_42 O 0.76404(5) 0.20685(5) 0.58790(7)
O4_42 O 0.75431(5) 0.21669(6) 0.55800(6)
O9_59 O 0.79161(6) 0.0000 0.64537(6)
O10_59 O 0.86617(8) 0.0000 0.57293(8)
O11_42 O 0.77580(6) 0.22420(6) 0.62819(7)
O12_42 O 0.74593(5) 0.25407(5) 0.53421(6)
C1_42 C 0.81182(11) 0.02675(7) 0.59039(10)
C2_42 C 0.80051(9) 0.04299(9) 0.57914(13)
C3_42 C 0.78708(11) 0.05585(12) 0.58848(8)
H1_42 H 0.7846 0.0544 0.6023
C4_42 C 0.77757(8) 0.07041(9) 0.57812(13)
H2_42 H 0.7685 0.0789 0.5849
C5_42 C 0.78085(11) 0.07311(10) 0.55768(12)
C6_42 C 0.79331(12) 0.06006(13) 0.54889(9)
H3_42 H 0.7951 0.0609 0.5349
C7_42 C 0.80353(9) 0.04573(10) 0.55899(14)
H4_42 H 0.8128 0.0376 0.5521
C8_42 C 0.76957(8) 0.08917(12) 0.54632(11)
C9_42 C 0.76830(10) 0.10845(13) 0.55353(9)
H5_42 H 0.7746 0.1118 0.5657
C10_42 C 0.75776(8) 0.12306(12) 0.54305(10)
C11_42 C 0.74908(8) 0.11715(9) 0.52654(11)
H6_42 H 0.7417 0.1270 0.5196
C12_42 C 0.74941(8) 0.09782(11) 0.51782(9)
C13_42 C 0.75984(10) 0.08438(10) 0.52797(10)
H7_42 H 0.7609 0.0712 0.5229
C14_66 C 0.73945(10) 0.09172(9) 0.5000
H8_66 H 0.7258 0.0973 0.5000
H9_66 H 0.7383 0.0771 0.5000
C15_42 C 0.75761(8) 0.14316(11) 0.55073(12)
C16_42 C 0.76051(8) 0.14802(12) 0.57017(13)
H10_42 H 0.7627 0.1377 0.5796
C17_42 C 0.76033(8) 0.16737(16) 0.57648(9)
H11_42 H 0.7620 0.1703 0.5902
C18_42 C 0.75768(7) 0.18289(10) 0.56272(13)
C19_42 C 0.75528(8) 0.17803(11) 0.54386(12)
H12_42 H 0.7536 0.1882 0.5342
C20_42 C 0.75521(8) 0.15880(15) 0.53795(8)
H13_42 H 0.7534 0.1560 0.5242
C21_42 C 0.75892(8) 0.20339(11) 0.57004(11)
Cu5_21 Cu 0.814840(12) 0.0000 0.377120(12)
Cu7_21 Cu 0.842426(12) 0.0000 0.404750(12)
O13_22 O 0.80323(5) 0.02087(5) 0.39370(6)
O15_22 O 0.82669(6) 0.01998(5) 0.41771(6)
O17_22 O 0.76404(5) 0.20685(5) 0.41210(7)
O18_22 O 0.79315(5) 0.23596(5) 0.58790(7)
O19_22 O 0.75431(5) 0.21669(6) 0.44200(6)
O20_22 O 0.78331(6) 0.24569(5) 0.55800(6)
O28_15 O 0.83149(5) 0.01987(6) 0.63593(5)
O30_15 O 0.85456(7) 0.02007(6) 0.61194(5)
C45_42 C 0.81182(11) 0.02675(7) 0.40961(10)
C46_42 C 0.80051(9) 0.04299(9) 0.42086(13)
C47_42 C 0.78708(11) 0.05585(12) 0.41152(8)
H28_42 H 0.7846 0.0544 0.3977
C48_42 C 0.77757(8) 0.07041(9) 0.42188(13)
H29_42 H 0.7685 0.0789 0.4151
C49_42 C 0.78085(11) 0.07311(10) 0.44232(12)
C50_42 C 0.79331(12) 0.06006(13) 0.45111(9)
H30_42 H 0.7951 0.0609 0.4651
C51_42 C 0.80353(9) 0.04573(10) 0.44101(14)
H31_42 H 0.8128 0.0376 0.4479
C52_42 C 0.76957(8) 0.08917(12) 0.45368(11)
C53_42 C 0.76830(10) 0.10845(13) 0.44647(9)
H32_42 H 0.7746 0.1118 0.4343
C54_42 C 0.75776(8) 0.12306(12) 0.45695(10)
C55_42 C 0.74908(8) 0.11715(9) 0.47346(11)
H33_42 H 0.7417 0.1270 0.4804
C56_42 C 0.74941(8) 0.09782(11) 0.48218(9)
C57_42 C 0.75984(10) 0.08438(10) 0.47203(10)
H34_42 H 0.7609 0.0712 0.4771
C58_42 C 0.75761(8) 0.14316(11) 0.44927(12)
C59_42 C 0.76051(8) 0.14802(12) 0.42983(13)
H35_42 H 0.7627 0.1377 0.4204
C60_42 C 0.76033(8) 0.16737(16) 0.42352(9)
H36_42 H 0.7620 0.1703 0.4098
C61_42 C 0.75768(7) 0.18289(10) 0.43728(13)
C62_42 C 0.75528(8) 0.17803(11) 0.45614(12)
H37_42 H 0.7536 0.1882 0.4658
C63_42 C 0.75521(8) 0.15880(15) 0.46205(8)
H38_42 H 0.7534 0.1560 0.4758
C64_42 C 0.75892(8) 0.20339(11) 0.42996(11)
H51_18 H 0.872166 0.0134617 0.572126
Cu1_15 Cu 0.814840(12) 1.0000 0.622880(12)
Cu2_15 Cu 0.842426(12) 1.0000 0.595250(12)
O7_42 O 0.83149(5) 0.98013(6) 0.63593(5)
O8_42 O 0.85456(7) 0.97993(6) 0.61194(5)
O9_60 O 0.79161(6) 1.0000 0.64537(6)
O10_60 O 0.86617(8) 1.0000 0.57293(8)
C22_42 C 0.77455(8) 0.90751(10) 0.73874(14)
C23_42 C 0.79574(9) 0.90114(13) 0.73850(12)
C24_42 C 0.80093(9) 0.88232(12) 0.73127(13)
H14_42 H 0.7908 0.8738 0.7265
C25_42 C 0.82053(10) 0.87581(15) 0.73091(9)
H15_42 H 0.8237 0.8630 0.7259
C26_42 C 0.83549(9) 0.88808(11) 0.73792(13)
C27_42 C 0.83055(8) 0.90699(12) 0.74457(12)
H16_42 H 0.8407 0.9158 0.7489
C28_42 C 0.81057(8) 0.91314(14) 0.74486(10)
H17_42 H 0.8074 0.9260 0.7496
C29_42 C 0.85736(7) 0.88261(11) 0.73721(9)
C30_42 C 0.86293(10) 0.86293(8) 0.73839(8)
H18_42 H 0.8530 0.8530 0.7400
C31_42 C 0.87227(7) 0.89686(12) 0.73427(9)
H19_42 H 0.8686 0.9105 0.7334
C32_42 C 0.89192(11) 0.89192(12) 0.73257(12)
C33_42 C 0.90713(14) 0.90713(10) 0.72724(10)
H20_42 H 0.9201 0.9033 0.7330
H21_42 H 0.9033 0.9201 0.7330
C34_42 C 0.90915(14) 0.90915(7) 0.70512(7)
C35_42 C 0.89660(13) 0.92144(7) 0.69448(7)
H22_42 H 0.8874 0.9295 0.7015
C36_42 C 0.89696(11) 0.92235(10) 0.67403(10)
C37_42 C 0.90959(14) 0.90959(9) 0.66445(9)
H23_42 H 0.9095 0.9095 0.6503
C38_42 C 0.88444(11) 0.93552(12) 0.66346(10)
C39_42 C 0.89070(14) 0.94372(9) 0.64600(11)
H24_42 H 0.9038 0.9410 0.6414
C40_42 C 0.87850(8) 0.95587(15) 0.63484(10)
H25_42 H 0.8832 0.9609 0.6225
C41_42 C 0.85932(13) 0.96090(11) 0.64136(10)
C42_42 C 0.85307(12) 0.95345(9) 0.65880(10)
H26_42 H 0.8403 0.9566 0.6639
C43_42 C 0.86593(8) 0.94104(15) 0.66927(10)
H27_42 H 0.8613 0.9360 0.6816
C44_42 C 0.84718(11) 0.97454(11) 0.62842(8)
Cu5_22 Cu 0.814840(12) 1.0000 0.377120(12)
Cu7_22 Cu 0.842426(12) 1.0000 0.404750(12)
O14_22 O 0.80323(5) 0.97913(5) 0.60630(6)
O16_22 O 0.82669(6) 0.98002(5) 0.58229(6)
C65_42 C 0.90751(10) 0.77455(8) 0.73874(14)
C66_42 C 0.90114(13) 0.79574(9) 0.73850(12)
C67_42 C 0.88232(12) 0.80093(9) 0.73127(13)
H39_42 H 0.8738 0.7908 0.7265
C68_42 C 0.87581(15) 0.82053(10) 0.73091(9)
H40_42 H 0.8630 0.8237 0.7259
C69_42 C 0.88808(11) 0.83549(9) 0.73792(13)
C70_42 C 0.90699(12) 0.83055(8) 0.74457(12)
H41_42 H 0.9158 0.8407 0.7489
C71_42 C 0.91314(14) 0.81057(8) 0.74486(10)
H42_42 H 0.9260 0.8074 0.7496
C72_42 C 0.88261(11) 0.85736(7) 0.73721(9)
C73_42 C 0.89686(12) 0.87227(7) 0.73427(9)
H43_42 H 0.9105 0.8686 0.7334
C74_42 C 0.92144(7) 0.89660(13) 0.69448(7)
H44_42 H 0.9295 0.8874 0.7015
C75_42 C 0.92235(10) 0.89696(11) 0.67403(10)
C76_42 C 0.93552(12) 0.88444(11) 0.66346(10)
C77_42 C 0.94372(9) 0.89070(14) 0.64600(11)
H45_42 H 0.9410 0.9038 0.6414
C78_42 C 0.95587(15) 0.87850(8) 0.63484(10)
H46_42 H 0.9609 0.8832 0.6225
C79_42 C 0.96090(11) 0.85932(13) 0.64136(10)
C80_42 C 0.95345(9) 0.85307(12) 0.65880(10)
H47_42 H 0.9566 0.8403 0.6639
C81_42 C 0.94104(15) 0.86593(8) 0.66927(10)
H48_42 H 0.9360 0.8613 0.6816
C82_42 C 0.97454(11) 0.84718(11) 0.62842(8)
H52_18 H 0.876534 0.99022 0.576772
H55_18 H 0.778675 0.99669 0.639082
H56_18 H 0.79477 0.989951 0.655707
O7_43 O 0.16851(5) 0.01987(6) 0.63593(5)
O8_43 O 0.14544(7) 0.02007(6) 0.61194(5)
O9_61 O 0.20839(6) -0.0000 0.64537(6)
O10_61 O 0.13383(8) -0.0000 0.57293(8)
C22_43 C 0.22545(8) 0.09249(10) 0.73874(14)
C23_43 C 0.20426(9) 0.09886(13) 0.73850(12)
C24_43 C 0.19907(9) 0.11768(12) 0.73127(13)
H14_43 H 0.2092 0.1262 0.7265
C25_43 C 0.17947(10) 0.12419(15) 0.73091(9)
H15_43 H 0.1763 0.1370 0.7259
C26_43 C 0.16451(9) 0.11192(11) 0.73792(13)
C27_43 C 0.16945(8) 0.09301(12) 0.74457(12)
H16_43 H 0.1593 0.0842 0.7489
C28_43 C 0.18943(8) 0.08686(14) 0.74486(10)
H17_43 H 0.1926 0.0740 0.7496
C29_43 C 0.14264(7) 0.11739(11) 0.73721(9)
C30_43 C 0.13707(10) 0.13707(8) 0.73839(8)
H18_43 H 0.1470 0.1470 0.7400
C31_43 C 0.12773(7) 0.10314(12) 0.73427(9)
H19_43 H 0.1314 0.0895 0.7334
C32_43 C 0.10808(11) 0.10808(12) 0.73257(12)
C33_43 C 0.09287(14) 0.09287(10) 0.72724(10)
H20_43 H 0.0799 0.0967 0.7330
H21_43 H 0.0967 0.0799 0.7330
C34_43 C 0.09085(14) 0.09085(7) 0.70512(7)
C35_43 C 0.10340(13) 0.07856(7) 0.69448(7)
H22_43 H 0.1126 0.0705 0.7015
C36_43 C 0.10304(11) 0.07765(10) 0.67403(10)
C37_43 C 0.09041(14) 0.09041(9) 0.66445(9)
H23_43 H 0.0905 0.0905 0.6503
C38_43 C 0.11556(11) 0.06448(12) 0.66346(10)
C39_43 C 0.10930(14) 0.05628(9) 0.64600(11)
H24_43 H 0.0962 0.0590 0.6414
C40_43 C 0.12150(8) 0.04413(15) 0.63484(10)
H25_43 H 0.1168 0.0391 0.6225
C41_43 C 0.14068(13) 0.03910(11) 0.64136(10)
C42_43 C 0.14693(12) 0.04655(9) 0.65880(10)
H26_43 H 0.1597 0.0434 0.6639
C43_43 C 0.13407(8) 0.05896(15) 0.66927(10)
H27_43 H 0.1387 0.0640 0.6816
C44_43 C 0.15282(11) 0.02546(11) 0.62842(8)
Cu5_23 Cu 0.185160(12) -0.0000 0.377120(12)
Cu6_30 Cu 0.0000 0.185160(12) 0.622880(12)
Cu7_23 Cu 0.157574(12) -0.0000 0.404750(12)
Cu8_30 Cu 0.0000 0.157574(12) 0.595250(12)
O14_23 O 0.19677(5) 0.02087(5) 0.60630(6)
O16_23 O 0.17331(6) 0.01998(5) 0.58229(6)
O27_29 O 0.01987(6) 0.16851(5) 0.63593(5)
O29_29 O 0.02007(6) 0.14544(7) 0.61194(5)
C65_43 C 0.09249(10) 0.22545(8) 0.73874(14)
C66_43 C 0.09886(13) 0.20426(9) 0.73850(12)
C67_43 C 0.11768(12) 0.19907(9) 0.73127(13)
H39_43 H 0.1262 0.2092 0.7265
C68_43 C 0.12419(15) 0.17947(10) 0.73091(9)
H40_43 H 0.1370 0.1763 0.7259
C69_43 C 0.11192(11) 0.16451(9) 0.73792(13)
C70_43 C 0.09301(12) 0.16945(8) 0.74457(12)
H41_43 H 0.0842 0.1593 0.7489
C71_43 C 0.08686(14) 0.18943(8) 0.74486(10)
H42_43 H 0.0740 0.1926 0.7496
C72_43 C 0.11739(11) 0.14264(7) 0.73721(9)
C73_43 C 0.10314(12) 0.12773(7) 0.73427(9)
H43_43 H 0.0895 0.1314 0.7334
C74_43 C 0.07856(7) 0.10340(13) 0.69448(7)
H44_43 H 0.0705 0.1126 0.7015
C75_43 C 0.07765(10) 0.10304(11) 0.67403(10)
C76_43 C 0.06448(12) 0.11556(11) 0.66346(10)
C77_43 C 0.05628(9) 0.10930(14) 0.64600(11)
H45_43 H 0.0590 0.0962 0.6414
C78_43 C 0.04413(15) 0.12150(8) 0.63484(10)
H46_43 H 0.0391 0.1168 0.6225
C79_43 C 0.03910(11) 0.14068(13) 0.64136(10)
C80_43 C 0.04655(9) 0.14693(12) 0.65880(10)
H47_43 H 0.0434 0.1597 0.6639
C81_43 C 0.05896(15) 0.13407(8) 0.66927(10)
H48_43 H 0.0640 0.1387 0.6816
C82_43 C 0.02546(11) 0.15282(11) 0.62842(8)
H52_19 H 0.123466 0.00977993 0.576772
H55_19 H 0.221325 0.0033103 0.639082
H56_19 H 0.20523 0.0100492 0.655707
O1_43 O 0.19677(5) 0.97913(5) 0.60630(6)
O2_43 O 0.17331(6) 0.98002(5) 0.58229(6)
O3_43 O 0.23596(5) 0.79315(5) 0.58790(7)
O4_43 O 0.24569(5) 0.78331(6) 0.55800(6)
O9_62 O 0.20839(6) 1.0000 0.64537(6)
O10_62 O 0.13383(8) 1.0000 0.57293(8)
O11_43 O 0.22420(6) 0.77580(6) 0.62819(7)
O12_43 O 0.25407(5) 0.74593(5) 0.53421(6)
C1_43 C 0.18818(11) 0.97325(7) 0.59039(10)
C2_43 C 0.19949(9) 0.95701(9) 0.57914(13)
C3_43 C 0.21292(11) 0.94415(12) 0.58848(8)
H1_43 H 0.2154 0.9456 0.6023
C4_43 C 0.22243(8) 0.92959(9) 0.57812(13)
H2_43 H 0.2315 0.9211 0.5849
C5_43 C 0.21915(11) 0.92689(10) 0.55768(12)
C6_43 C 0.20669(12) 0.93994(13) 0.54889(9)
H3_43 H 0.2049 0.9391 0.5349
C7_43 C 0.19647(9) 0.95427(10) 0.55899(14)
H4_43 H 0.1872 0.9624 0.5521
C8_43 C 0.23043(8) 0.91083(12) 0.54632(11)
C9_43 C 0.23170(10) 0.89155(13) 0.55353(9)
H5_43 H 0.2254 0.8882 0.5657
C10_43 C 0.24224(8) 0.87694(12) 0.54305(10)
C11_43 C 0.25092(8) 0.88285(9) 0.52654(11)
H6_43 H 0.2583 0.8730 0.5196
C12_43 C 0.25059(8) 0.90218(11) 0.51782(9)
C13_43 C 0.24016(10) 0.91562(10) 0.52797(10)
H7_43 H 0.2391 0.9288 0.5229
C14_67 C 0.26055(10) 0.90828(9) 0.5000
H8_67 H 0.2742 0.9027 0.5000
H9_67 H 0.2617 0.9229 0.5000
C15_43 C 0.24239(8) 0.85684(11) 0.55073(12)
C16_43 C 0.23949(8) 0.85198(12) 0.57017(13)
H10_43 H 0.2373 0.8623 0.5796
C17_43 C 0.23967(8) 0.83263(16) 0.57648(9)
H11_43 H 0.2380 0.8297 0.5902
C18_43 C 0.24232(7) 0.81711(10) 0.56272(13)
C19_43 C 0.24472(8) 0.82197(11) 0.54386(12)
H12_43 H 0.2464 0.8118 0.5342
C20_43 C 0.24479(8) 0.84120(15) 0.53795(8)
H13_43 H 0.2466 0.8440 0.5242
C21_43 C 0.24108(8) 0.79661(11) 0.57004(11)
Cu5_24 Cu 0.185160(12) 1.0000 0.377120(12)
Cu7_24 Cu 0.157574(12) 1.0000 0.404750(12)
O13_23 O 0.19677(5) 0.97913(5) 0.39370(6)
O15_23 O 0.17331(6) 0.98002(5) 0.41771(6)
O17_23 O 0.23596(5) 0.79315(5) 0.41210(7)
O18_23 O 0.20685(5) 0.76404(5) 0.58790(7)
O19_23 O 0.24569(5) 0.78331(6) 0.44200(6)
O20_23 O 0.21669(6) 0.75431(5) 0.55800(6)
C45_43 C 0.18818(11) 0.97325(7) 0.40961(10)
C46_43 C 0.19949(9) 0.95701(9) 0.42086(13)
C47_43 C 0.21292(11) 0.94415(12) 0.41152(8)
H28_43 H 0.2154 0.9456 0.3977
C48_43 C 0.22243(8) 0.92959(9) 0.42188(13)
H29_43 H 0.2315 0.9211 0.4151
C49_43 C 0.21915(11) 0.92689(10) 0.44232(12)
C50_43 C 0.20669(12) 0.93994(13) 0.45111(9)
H30_43 H 0.2049 0.9391 0.4651
C51_43 C 0.19647(9) 0.95427(10) 0.44101(14)
H31_43 H 0.1872 0.9624 0.4479
C52_43 C 0.23043(8) 0.91083(12) 0.45368(11)
C53_43 C 0.23170(10) 0.89155(13) 0.44647(9)
H32_43 H 0.2254 0.8882 0.4343
C54_43 C 0.24224(8) 0.87694(12) 0.45695(10)
C55_43 C 0.25092(8) 0.88285(9) 0.47346(11)
H33_43 H 0.2583 0.8730 0.4804
C56_43 C 0.25059(8) 0.90218(11) 0.48218(9)
C57_43 C 0.24016(10) 0.91562(10) 0.47203(10)
H34_43 H 0.2391 0.9288 0.4771
C58_43 C 0.24239(8) 0.85684(11) 0.44927(12)
C59_43 C 0.23949(8) 0.85198(12) 0.42983(13)
H35_43 H 0.2373 0.8623 0.4204
C60_43 C 0.23967(8) 0.83263(16) 0.42352(9)
H36_43 H 0.2380 0.8297 0.4098
C61_43 C 0.24232(7) 0.81711(10) 0.43728(13)
C62_43 C 0.24472(8) 0.82197(11) 0.45614(12)
H37_43 H 0.2464 0.8118 0.4658
C63_43 C 0.24479(8) 0.84120(15) 0.46205(8)
H38_43 H 0.2466 0.8440 0.4758
C64_43 C 0.24108(8) 0.79661(11) 0.42996(11)
H51_19 H 0.127834 0.986538 0.572126
Cu6_31 Cu 1.0000 0.185160(12) 0.622880(12)
Cu8_31 Cu 1.0000 0.157574(12) 0.595250(12)
Cu6_32 Cu -0.0000 0.185160(12) 0.377120(12)
Cu8_32 Cu -0.0000 0.157574(12) 0.404750(12)
O7_44 O 0.83149(5) 0.01987(6) 0.36407(5)
O8_44 O 0.85456(7) 0.02007(6) 0.38806(5)
O9_63 O 0.79161(6) -0.0000 0.35463(6)
O10_63 O 0.86617(8) -0.0000 0.42707(8)
C22_44 C 0.77455(8) 0.09249(10) 0.26126(14)
C23_44 C 0.79574(9) 0.09886(13) 0.26150(12)
C24_44 C 0.80093(9) 0.11768(12) 0.26873(13)
H14_44 H 0.7908 0.1262 0.2735
C25_44 C 0.82053(10) 0.12419(15) 0.26909(9)
H15_44 H 0.8237 0.1370 0.2741
C26_44 C 0.83549(9) 0.11192(11) 0.26208(13)
C27_44 C 0.83055(8) 0.09301(12) 0.25543(12)
H16_44 H 0.8407 0.0842 0.2511
C28_44 C 0.81057(8) 0.08686(14) 0.25514(10)
H17_44 H 0.8074 0.0740 0.2504
C29_44 C 0.85736(7) 0.11739(11) 0.26279(9)
C30_44 C 0.86293(10) 0.13707(8) 0.26161(8)
H18_44 H 0.8530 0.1470 0.2600
C31_44 C 0.87227(7) 0.10314(12) 0.26573(9)
H19_44 H 0.8686 0.0895 0.2666
C32_44 C 0.89192(11) 0.10808(12) 0.26743(12)
C33_44 C 0.90713(14) 0.09287(10) 0.27276(10)
H20_44 H 0.9201 0.0967 0.2670
H21_44 H 0.9033 0.0799 0.2670
C34_44 C 0.90915(14) 0.09085(7) 0.29488(7)
C35_44 C 0.89660(13) 0.07856(7) 0.30552(7)
H22_44 H 0.8874 0.0705 0.2985
C36_44 C 0.89696(11) 0.07765(10) 0.32597(10)
C37_44 C 0.90959(14) 0.09041(9) 0.33555(9)
H23_44 H 0.9095 0.0905 0.3497
C38_44 C 0.88444(11) 0.06448(12) 0.33654(10)
C39_44 C 0.89070(14) 0.05628(9) 0.35400(11)
H24_44 H 0.9038 0.0590 0.3586
C40_44 C 0.87850(8) 0.04413(15) 0.36516(10)
H25_44 H 0.8832 0.0391 0.3775
C41_44 C 0.85932(13) 0.03910(11) 0.35864(10)
C42_44 C 0.85307(12) 0.04655(9) 0.34120(10)
H26_44 H 0.8403 0.0434 0.3361
C43_44 C 0.86593(8) 0.05896(15) 0.33073(10)
H27_44 H 0.8613 0.0640 0.3184
C44_44 C 0.84718(11) 0.02546(11) 0.37158(8)
Cu6_33 Cu 1.0000 0.185160(12) 0.377120(12)
Cu8_33 Cu 1.0000 0.157574(12) 0.404750(12)
O27_30 O 0.98013(6) 0.16851(5) 0.36407(5)
O29_30 O 0.97993(6) 0.14544(7) 0.38806(5)
C65_44 C 0.90751(10) 0.22545(8) 0.26126(14)
C66_44 C 0.90114(13) 0.20426(9) 0.26150(12)
C67_44 C 0.88232(12) 0.19907(9) 0.26873(13)
H39_44 H 0.8738 0.2092 0.2735
C68_44 C 0.87581(15) 0.17947(10) 0.26909(9)
H40_44 H 0.8630 0.1763 0.2741
C69_44 C 0.88808(11) 0.16451(9) 0.26208(13)
C70_44 C 0.90699(12) 0.16945(8) 0.25543(12)
H41_44 H 0.9158 0.1593 0.2511
C71_44 C 0.91314(14) 0.18943(8) 0.25514(10)
H42_44 H 0.9260 0.1926 0.2504
C72_44 C 0.88261(11) 0.14264(7) 0.26279(9)
C73_44 C 0.89686(12) 0.12773(7) 0.26573(9)
H43_44 H 0.9105 0.1314 0.2666
C74_44 C 0.92144(7) 0.10340(13) 0.30552(7)
H44_44 H 0.9295 0.1126 0.2985
C75_44 C 0.92235(10) 0.10304(11) 0.32597(10)
C76_44 C 0.93552(12) 0.11556(11) 0.33654(10)
C77_44 C 0.94372(9) 0.10930(14) 0.35400(11)
H45_44 H 0.9410 0.0962 0.3586
C78_44 C 0.95587(15) 0.12150(8) 0.36516(10)
H46_44 H 0.9609 0.1168 0.3775
C79_44 C 0.96090(11) 0.14068(13) 0.35864(10)
C80_44 C 0.95345(9) 0.14693(12) 0.34120(10)
H47_44 H 0.9566 0.1597 0.3361
C81_44 C 0.94104(15) 0.13407(8) 0.33073(10)
H48_44 H 0.9360 0.1387 0.3184
C82_44 C 0.97454(11) 0.15282(11) 0.37158(8)
H52_20 H 0.876534 0.00977993 0.423228
H55_20 H 0.778675 0.0033103 0.360918
H56_20 H 0.79477 0.0100492 0.344293
O1_44 O 0.80323(5) 0.97913(5) 0.39370(6)
O2_44 O 0.82669(6) 0.98002(5) 0.41771(6)
O3_44 O 0.76404(5) 0.79315(5) 0.41210(7)
O4_44 O 0.75431(5) 0.78331(6) 0.44200(6)
O9_64 O 0.79161(6) 1.0000 0.35463(6)
O10_64 O 0.86617(8) 1.0000 0.42707(8)
O11_44 O 0.77580(6) 0.77580(6) 0.37181(7)
O12_44 O 0.74593(5) 0.74593(5) 0.46579(6)
C1_44 C 0.81182(11) 0.97325(7) 0.40961(10)
C2_44 C 0.80051(9) 0.95701(9) 0.42086(13)
C3_44 C 0.78708(11) 0.94415(12) 0.41152(8)
H1_44 H 0.7846 0.9456 0.3977
C4_44 C 0.77757(8) 0.92959(9) 0.42188(13)
H2_44 H 0.7685 0.9211 0.4151
C5_44 C 0.78085(11) 0.92689(10) 0.44232(12)
C6_44 C 0.79331(12) 0.93994(13) 0.45111(9)
H3_44 H 0.7951 0.9391 0.4651
C7_44 C 0.80353(9) 0.95427(10) 0.44101(14)
H4_44 H 0.8128 0.9624 0.4479
C8_44 C 0.76957(8) 0.91083(12) 0.45368(11)
C9_44 C 0.76830(10) 0.89155(13) 0.44647(9)
H5_44 H 0.7746 0.8882 0.4343
C10_44 C 0.75776(8) 0.87694(12) 0.45695(10)
C11_44 C 0.74908(8) 0.88285(9) 0.47346(11)
H6_44 H 0.7417 0.8730 0.4804
C12_44 C 0.74941(8) 0.90218(11) 0.48218(9)
C13_44 C 0.75984(10) 0.91562(10) 0.47203(10)
H7_44 H 0.7609 0.9288 0.4771
C14_68 C 0.73945(10) 0.90828(9) 0.5000
H8_68 H 0.7258 0.9027 0.5000
H9_68 H 0.7383 0.9229 0.5000
C15_44 C 0.75761(8) 0.85684(11) 0.44927(12)
C16_44 C 0.76051(8) 0.85198(12) 0.42983(13)
H10_44 H 0.7627 0.8623 0.4204
C17_44 C 0.76033(8) 0.83263(16) 0.42352(9)
H11_44 H 0.7620 0.8297 0.4098
C18_44 C 0.75768(7) 0.81711(10) 0.43728(13)
C19_44 C 0.75528(8) 0.82197(11) 0.45614(12)
H12_44 H 0.7536 0.8118 0.4658
C20_44 C 0.75521(8) 0.84120(15) 0.46205(8)
H13_44 H 0.7534 0.8440 0.4758
C21_44 C 0.75892(8) 0.79661(11) 0.42996(11)
O28_16 O 0.83149(5) 0.98013(6) 0.36407(5)
O30_16 O 0.85456(7) 0.97993(6) 0.38806(5)
C45_44 C 0.81182(11) 0.97325(7) 0.59039(10)
C46_44 C 0.80051(9) 0.95701(9) 0.57914(13)
C47_44 C 0.78708(11) 0.94415(12) 0.58848(8)
H28_44 H 0.7846 0.9456 0.6023
C48_44 C 0.77757(8) 0.92959(9) 0.57812(13)
H29_44 H 0.7685 0.9211 0.5849
C49_44 C 0.78085(11) 0.92689(10) 0.55768(12)
C50_44 C 0.79331(12) 0.93994(13) 0.54889(9)
H30_44 H 0.7951 0.9391 0.5349
C51_44 C 0.80353(9) 0.95427(10) 0.55899(14)
H31_44 H 0.8128 0.9624 0.5521
C52_44 C 0.76957(8) 0.91083(12) 0.54632(11)
C53_44 C 0.76830(10) 0.89155(13) 0.55353(9)
H32_44 H 0.7746 0.8882 0.5657
C54_44 C 0.75776(8) 0.87694(12) 0.54305(10)
C55_44 C 0.74908(8) 0.88285(9) 0.52654(11)
H33_44 H 0.7417 0.8730 0.5196
C56_44 C 0.74941(8) 0.90218(11) 0.51782(9)
C57_44 C 0.75984(10) 0.91562(10) 0.52797(10)
H34_44 H 0.7609 0.9288 0.5229
C58_44 C 0.75761(8) 0.85684(11) 0.55073(12)
C59_44 C 0.76051(8) 0.85198(12) 0.57017(13)
H35_44 H 0.7627 0.8623 0.5796
C60_44 C 0.76033(8) 0.83263(16) 0.57648(9)
H36_44 H 0.7620 0.8297 0.5902
C61_44 C 0.75768(7) 0.81711(10) 0.56272(13)
C62_44 C 0.75528(8) 0.82197(11) 0.54386(12)
H37_44 H 0.7536 0.8118 0.5342
C63_44 C 0.75521(8) 0.84120(15) 0.53795(8)
H38_44 H 0.7534 0.8440 0.5242
C64_44 C 0.75892(8) 0.79661(11) 0.57004(11)
H51_20 H 0.872166 0.986538 0.427874
O7_45 O 0.01987(6) 0.16851(5) 0.36407(5)
O8_45 O 0.02007(6) 0.14544(7) 0.38806(5)
O9_65 O -0.0000 0.20839(6) 0.35463(6)
O10_65 O -0.0000 0.13383(8) 0.42707(8)
C22_45 C 0.09249(10) 0.22545(8) 0.26126(14)
C23_45 C 0.09886(13) 0.20426(9) 0.26150(12)
C24_45 C 0.11768(12) 0.19907(9) 0.26873(13)
H14_45 H 0.1262 0.2092 0.2735
C25_45 C 0.12419(15) 0.17947(10) 0.26909(9)
H15_45 H 0.1370 0.1763 0.2741
C26_45 C 0.11192(11) 0.16451(9) 0.26208(13)
C27_45 C 0.09301(12) 0.16945(8) 0.25543(12)
H16_45 H 0.0842 0.1593 0.2511
C28_45 C 0.08686(14) 0.18943(8) 0.25514(10)
H17_45 H 0.0740 0.1926 0.2504
C29_45 C 0.11739(11) 0.14264(7) 0.26279(9)
C30_45 C 0.13707(8) 0.13707(10) 0.26161(8)
H18_45 H 0.1470 0.1470 0.2600
C31_45 C 0.10314(12) 0.12773(7) 0.26573(9)
H19_45 H 0.0895 0.1314 0.2666
C32_45 C 0.10808(12) 0.10808(11) 0.26743(12)
C33_45 C 0.09287(10) 0.09287(14) 0.27276(10)
H20_45 H 0.0967 0.0799 0.2670
H21_45 H 0.0799 0.0967 0.2670
C34_45 C 0.09085(7) 0.09085(14) 0.29488(7)
C35_45 C 0.07856(7) 0.10340(13) 0.30552(7)
H22_45 H 0.0705 0.1126 0.2985
C36_45 C 0.07765(10) 0.10304(11) 0.32597(10)
C37_45 C 0.09041(9) 0.09041(14) 0.33555(9)
H23_45 H 0.0905 0.0905 0.3497
C38_45 C 0.06448(12) 0.11556(11) 0.33654(10)
C39_45 C 0.05628(9) 0.10930(14) 0.35400(11)
H24_45 H 0.0590 0.0962 0.3586
C40_45 C 0.04413(15) 0.12150(8) 0.36516(10)
H25_45 H 0.0391 0.1168 0.3775
C41_45 C 0.03910(11) 0.14068(13) 0.35864(10)
C42_45 C 0.04655(9) 0.14693(12) 0.34120(10)
H26_45 H 0.0434 0.1597 0.3361
C43_45 C 0.05896(15) 0.13407(8) 0.33073(10)
H27_45 H 0.0640 0.1387 0.3184
C44_45 C 0.02546(11) 0.15282(11) 0.37158(8)
O14_24 O 0.02087(5) 0.19677(5) 0.39370(6)
O16_24 O 0.01998(5) 0.17331(6) 0.41771(6)
O27_31 O 0.16851(5) 0.01987(6) 0.36407(5)
O29_31 O 0.14544(7) 0.02007(6) 0.38806(5)
C65_45 C 0.22545(8) 0.09249(10) 0.26126(14)
C66_45 C 0.20426(9) 0.09886(13) 0.26150(12)
C67_45 C 0.19907(9) 0.11768(12) 0.26873(13)
H39_45 H 0.2092 0.1262 0.2735
C68_45 C 0.17947(10) 0.12419(15) 0.26909(9)
H40_45 H 0.1763 0.1370 0.2741
C69_45 C 0.16451(9) 0.11192(11) 0.26208(13)
C70_45 C 0.16945(8) 0.09301(12) 0.25543(12)
H41_45 H 0.1593 0.0842 0.2511
C71_45 C 0.18943(8) 0.08686(14) 0.25514(10)
H42_45 H 0.1926 0.0740 0.2504
C72_45 C 0.14264(7) 0.11739(11) 0.26279(9)
C73_45 C 0.12773(7) 0.10314(12) 0.26573(9)
H43_45 H 0.1314 0.0895 0.2666
C74_45 C 0.10340(13) 0.07856(7) 0.30552(7)
H44_45 H 0.1126 0.0705 0.2985
C75_45 C 0.10304(11) 0.07765(10) 0.32597(10)
C76_45 C 0.11556(11) 0.06448(12) 0.33654(10)
C77_45 C 0.10930(14) 0.05628(9) 0.35400(11)
H45_45 H 0.0962 0.0590 0.3586
C78_45 C 0.12150(8) 0.04413(15) 0.36516(10)
H46_45 H 0.1168 0.0391 0.3775
C79_45 C 0.14068(13) 0.03910(11) 0.35864(10)
C80_45 C 0.14693(12) 0.04655(9) 0.34120(10)
H47_45 H 0.1597 0.0434 0.3361
C81_45 C 0.13407(8) 0.05896(15) 0.33073(10)
H48_45 H 0.1387 0.0640 0.3184
C82_45 C 0.15282(11) 0.02546(11) 0.37158(8)
H52_21 H 0.00977993 0.123466 0.423228
H55_21 H 0.0033103 0.221325 0.360918
H56_21 H 0.0100492 0.20523 0.344293
O1_45 O 0.97913(5) 0.19677(5) 0.39370(6)
O2_45 O 0.98002(5) 0.17331(6) 0.41771(6)
O3_45 O 0.79315(5) 0.23596(5) 0.41210(7)
O4_45 O 0.78331(6) 0.24569(5) 0.44200(6)
O9_66 O 1.0000 0.20839(6) 0.35463(6)
O10_66 O 1.0000 0.13383(8) 0.42707(8)
O11_45 O 0.77580(6) 0.22420(6) 0.37181(7)
O12_45 O 0.74593(5) 0.25407(5) 0.46579(6)
C1_45 C 0.97325(7) 0.18818(11) 0.40961(10)
C2_45 C 0.95701(9) 0.19949(9) 0.42086(13)
C3_45 C 0.94415(12) 0.21292(11) 0.41152(8)
H1_45 H 0.9456 0.2154 0.3977
C4_45 C 0.92959(9) 0.22243(8) 0.42188(13)
H2_45 H 0.9211 0.2315 0.4151
C5_45 C 0.92689(10) 0.21915(11) 0.44232(12)
C6_45 C 0.93994(13) 0.20669(12) 0.45111(9)
H3_45 H 0.9391 0.2049 0.4651
C7_45 C 0.95427(10) 0.19647(9) 0.44101(14)
H4_45 H 0.9624 0.1872 0.4479
C8_45 C 0.91083(12) 0.23043(8) 0.45368(11)
C9_45 C 0.89155(13) 0.23170(10) 0.44647(9)
H5_45 H 0.8882 0.2254 0.4343
C10_45 C 0.87694(12) 0.24224(8) 0.45695(10)
C11_45 C 0.88285(9) 0.25092(8) 0.47346(11)
H6_45 H 0.8730 0.2583 0.4804
C12_45 C 0.90218(11) 0.25059(8) 0.48218(9)
C13_45 C 0.91562(10) 0.24016(10) 0.47203(10)
H7_45 H 0.9288 0.2391 0.4771
C14_69 C 0.90828(9) 0.26055(10) 0.5000
H8_69 H 0.9027 0.2742 0.5000
H9_69 H 0.9229 0.2617 0.5000
C15_45 C 0.85684(11) 0.24239(8) 0.44927(12)
C16_45 C 0.85198(12) 0.23949(8) 0.42983(13)
H10_45 H 0.8623 0.2373 0.4204
C17_45 C 0.83263(16) 0.23967(8) 0.42352(9)
H11_45 H 0.8297 0.2380 0.4098
C18_45 C 0.81711(10) 0.24232(7) 0.43728(13)
C19_45 C 0.82197(11) 0.24472(8) 0.45614(12)
H12_45 H 0.8118 0.2464 0.4658
C20_45 C 0.84120(15) 0.24479(8) 0.46205(8)
H13_45 H 0.8440 0.2466 0.4758
C21_45 C 0.79661(11) 0.24108(8) 0.42996(11)
O13_24 O 0.97913(5) 0.19677(5) 0.60630(6)
O15_24 O 0.98002(5) 0.17331(6) 0.58229(6)
C45_45 C 0.97325(7) 0.18818(11) 0.59039(10)
C46_45 C 0.95701(9) 0.19949(9) 0.57914(13)
C47_45 C 0.94415(12) 0.21292(11) 0.58848(8)
H28_45 H 0.9456 0.2154 0.6023
C48_45 C 0.92959(9) 0.22243(8) 0.57812(13)
H29_45 H 0.9211 0.2315 0.5849
C49_45 C 0.92689(10) 0.21915(11) 0.55768(12)
C50_45 C 0.93994(13) 0.20669(12) 0.54889(9)
H30_45 H 0.9391 0.2049 0.5349
C51_45 C 0.95427(10) 0.19647(9) 0.55899(14)
H31_45 H 0.9624 0.1872 0.5521
C52_45 C 0.91083(12) 0.23043(8) 0.54632(11)
C53_45 C 0.89155(13) 0.23170(10) 0.55353(9)
H32_45 H 0.8882 0.2254 0.5657
C54_45 C 0.87694(12) 0.24224(8) 0.54305(10)
C55_45 C 0.88285(9) 0.25092(8) 0.52654(11)
H33_45 H 0.8730 0.2583 0.5196
C56_45 C 0.90218(11) 0.25059(8) 0.51782(9)
C57_45 C 0.91562(10) 0.24016(10) 0.52797(10)
H34_45 H 0.9288 0.2391 0.5229
C58_45 C 0.85684(11) 0.24239(8) 0.55073(12)
C59_45 C 0.85198(12) 0.23949(8) 0.57017(13)
H35_45 H 0.8623 0.2373 0.5796
C60_45 C 0.83263(16) 0.23967(8) 0.57648(9)
H36_45 H 0.8297 0.2380 0.5902
C61_45 C 0.81711(10) 0.24232(7) 0.56272(13)
C62_45 C 0.82197(11) 0.24472(8) 0.54386(12)
H37_45 H 0.8118 0.2464 0.5342
C63_45 C 0.84120(15) 0.24479(8) 0.53795(8)
H38_45 H 0.8440 0.2466 0.5242
C64_45 C 0.79661(11) 0.24108(8) 0.57004(11)
H51_21 H 0.986538 0.127834 0.427874
O1_46 O 0.19677(5) 0.02087(5) 0.39370(6)
O2_46 O 0.17331(6) 0.01998(5) 0.41771(6)
O3_46 O 0.23596(5) 0.20685(5) 0.41210(7)
O4_46 O 0.24569(5) 0.21669(6) 0.44200(6)
O9_67 O 0.20839(6) 0.0000 0.35463(6)
O10_67 O 0.13383(8) 0.0000 0.42707(8)
O11_46 O 0.22420(6) 0.22420(6) 0.37181(7)
O12_46 O 0.25407(5) 0.25407(5) 0.46579(6)
C1_46 C 0.18818(11) 0.02675(7) 0.40961(10)
C2_46 C 0.19949(9) 0.04299(9) 0.42086(13)
C3_46 C 0.21292(11) 0.05585(12) 0.41152(8)
H1_46 H 0.2154 0.0544 0.3977
C4_46 C 0.22243(8) 0.07041(9) 0.42188(13)
H2_46 H 0.2315 0.0789 0.4151
C5_46 C 0.21915(11) 0.07311(10) 0.44232(12)
C6_46 C 0.20669(12) 0.06006(13) 0.45111(9)
H3_46 H 0.2049 0.0609 0.4651
C7_46 C 0.19647(9) 0.04573(10) 0.44101(14)
H4_46 H 0.1872 0.0376 0.4479
C8_46 C 0.23043(8) 0.08917(12) 0.45368(11)
C9_46 C 0.23170(10) 0.10845(13) 0.44647(9)
H5_46 H 0.2254 0.1118 0.4343
C10_46 C 0.24224(8) 0.12306(12) 0.45695(10)
C11_46 C 0.25092(8) 0.11715(9) 0.47346(11)
H6_46 H 0.2583 0.1270 0.4804
C12_46 C 0.25059(8) 0.09782(11) 0.48218(9)
C13_46 C 0.24016(10) 0.08438(10) 0.47203(10)
H7_46 H 0.2391 0.0712 0.4771
C14_70 C 0.26055(10) 0.09172(9) 0.5000
H8_70 H 0.2742 0.0973 0.5000
H9_70 H 0.2617 0.0771 0.5000
C15_46 C 0.24239(8) 0.14316(11) 0.44927(12)
C16_46 C 0.23949(8) 0.14802(12) 0.42983(13)
H10_46 H 0.2373 0.1377 0.4204
C17_46 C 0.23967(8) 0.16737(16) 0.42352(9)
H11_46 H 0.2380 0.1703 0.4098
C18_46 C 0.24232(7) 0.18289(10) 0.43728(13)
C19_46 C 0.24472(8) 0.17803(11) 0.45614(12)
H12_46 H 0.2464 0.1882 0.4658
C20_46 C 0.24479(8) 0.15880(15) 0.46205(8)
H13_46 H 0.2466 0.1560 0.4758
C21_46 C 0.24108(8) 0.20339(11) 0.42996(11)
O17_24 O 0.23596(5) 0.20685(5) 0.58790(7)
O18_24 O 0.20685(5) 0.23596(5) 0.41210(7)
O19_24 O 0.24569(5) 0.21669(6) 0.55800(6)
O20_24 O 0.21669(6) 0.24569(5) 0.44200(6)
C45_46 C 0.18818(11) 0.02675(7) 0.59039(10)
C46_46 C 0.19949(9) 0.04299(9) 0.57914(13)
C47_46 C 0.21292(11) 0.05585(12) 0.58848(8)
H28_46 H 0.2154 0.0544 0.6023
C48_46 C 0.22243(8) 0.07041(9) 0.57812(13)
H29_46 H 0.2315 0.0789 0.5849
C49_46 C 0.21915(11) 0.07311(10) 0.55768(12)
C50_46 C 0.20669(12) 0.06006(13) 0.54889(9)
H30_46 H 0.2049 0.0609 0.5349
C51_46 C 0.19647(9) 0.04573(10) 0.55899(14)
H31_46 H 0.1872 0.0376 0.5521
C52_46 C 0.23043(8) 0.08917(12) 0.54632(11)
C53_46 C 0.23170(10) 0.10845(13) 0.55353(9)
H32_46 H 0.2254 0.1118 0.5657
C54_46 C 0.24224(8) 0.12306(12) 0.54305(10)
C55_46 C 0.25092(8) 0.11715(9) 0.52654(11)
H33_46 H 0.2583 0.1270 0.5196
C56_46 C 0.25059(8) 0.09782(11) 0.51782(9)
C57_46 C 0.24016(10) 0.08438(10) 0.52797(10)
H34_46 H 0.2391 0.0712 0.5229
C58_46 C 0.24239(8) 0.14316(11) 0.55073(12)
C59_46 C 0.23949(8) 0.14802(12) 0.57017(13)
H35_46 H 0.2373 0.1377 0.5796
C60_46 C 0.23967(8) 0.16737(16) 0.57648(9)
H36_46 H 0.2380 0.1703 0.5902
C61_46 C 0.24232(7) 0.18289(10) 0.56272(13)
C62_46 C 0.24472(8) 0.17803(11) 0.54386(12)
H37_46 H 0.2464 0.1882 0.5342
C63_46 C 0.24479(8) 0.15880(15) 0.53795(8)
H38_46 H 0.2466 0.1560 0.5242
C64_46 C 0.24108(8) 0.20339(11) 0.57004(11)
H51_22 H 0.127834 0.0134617 0.427874
O7_46 O 0.16851(5) 0.98013(6) 0.36407(5)
O8_46 O 0.14544(7) 0.97993(6) 0.38806(5)
O9_68 O 0.20839(6) 1.0000 0.35463(6)
O10_68 O 0.13383(8) 1.0000 0.42707(8)
C22_46 C 0.22545(8) 0.90751(10) 0.26126(14)
C23_46 C 0.20426(9) 0.90114(13) 0.26150(12)
C24_46 C 0.19907(9) 0.88232(12) 0.26873(13)
H14_46 H 0.2092 0.8738 0.2735
C25_46 C 0.17947(10) 0.87581(15) 0.26909(9)
H15_46 H 0.1763 0.8630 0.2741
C26_46 C 0.16451(9) 0.88808(11) 0.26208(13)
C27_46 C 0.16945(8) 0.90699(12) 0.25543(12)
H16_46 H 0.1593 0.9158 0.2511
C28_46 C 0.18943(8) 0.91314(14) 0.25514(10)
H17_46 H 0.1926 0.9260 0.2504
C29_46 C 0.14264(7) 0.88261(11) 0.26279(9)
C30_46 C 0.13707(10) 0.86293(8) 0.26161(8)
H18_46 H 0.1470 0.8530 0.2600
C31_46 C 0.12773(7) 0.89686(12) 0.26573(9)
H19_46 H 0.1314 0.9105 0.2666
C32_46 C 0.10808(11) 0.89192(12) 0.26743(12)
C33_46 C 0.09287(14) 0.90713(10) 0.27276(10)
H20_46 H 0.0799 0.9033 0.2670
H21_46 H 0.0967 0.9201 0.2670
C34_46 C 0.09085(14) 0.90915(7) 0.29488(7)
C35_46 C 0.10340(13) 0.92144(7) 0.30552(7)
H22_46 H 0.1126 0.9295 0.2985
C36_46 C 0.10304(11) 0.92235(10) 0.32597(10)
C37_46 C 0.09041(14) 0.90959(9) 0.33555(9)
H23_46 H 0.0905 0.9095 0.3497
C38_46 C 0.11556(11) 0.93552(12) 0.33654(10)
C39_46 C 0.10930(14) 0.94372(9) 0.35400(11)
H24_46 H 0.0962 0.9410 0.3586
C40_46 C 0.12150(8) 0.95587(15) 0.36516(10)
H25_46 H 0.1168 0.9609 0.3775
C41_46 C 0.14068(13) 0.96090(11) 0.35864(10)
C42_46 C 0.14693(12) 0.95345(9) 0.34120(10)
H26_46 H 0.1597 0.9566 0.3361
C43_46 C 0.13407(8) 0.94104(15) 0.33073(10)
H27_46 H 0.1387 0.9360 0.3184
C44_46 C 0.15282(11) 0.97454(11) 0.37158(8)
O27_32 O 0.01987(6) 0.83149(5) 0.36407(5)
O29_32 O 0.02007(6) 0.85456(7) 0.38806(5)
C65_46 C 0.09249(10) 0.77455(8) 0.26126(14)
C66_46 C 0.09886(13) 0.79574(9) 0.26150(12)
C67_46 C 0.11768(12) 0.80093(9) 0.26873(13)
H39_46 H 0.1262 0.7908 0.2735
C68_46 C 0.12419(15) 0.82053(10) 0.26909(9)
H40_46 H 0.1370 0.8237 0.2741
C69_46 C 0.11192(11) 0.83549(9) 0.26208(13)
C70_46 C 0.09301(12) 0.83055(8) 0.25543(12)
H41_46 H 0.0842 0.8407 0.2511
C71_46 C 0.08686(14) 0.81057(8) 0.25514(10)
H42_46 H 0.0740 0.8074 0.2504
C72_46 C 0.11739(11) 0.85736(7) 0.26279(9)
C73_46 C 0.10314(12) 0.87227(7) 0.26573(9)
H43_46 H 0.0895 0.8686 0.2666
C74_46 C 0.07856(7) 0.89660(13) 0.30552(7)
H44_46 H 0.0705 0.8874 0.2985
C75_46 C 0.07765(10) 0.89696(11) 0.32597(10)
C76_46 C 0.06448(12) 0.88444(11) 0.33654(10)
C77_46 C 0.05628(9) 0.89070(14) 0.35400(11)
H45_46 H 0.0590 0.9038 0.3586
C78_46 C 0.04413(15) 0.87850(8) 0.36516(10)
H46_46 H 0.0391 0.8832 0.3775
C79_46 C 0.03910(11) 0.85932(13) 0.35864(10)
C80_46 C 0.04655(9) 0.85307(12) 0.34120(10)
H47_46 H 0.0434 0.8403 0.3361
C81_46 C 0.05896(15) 0.86593(8) 0.33073(10)
H48_46 H 0.0640 0.8613 0.3184
C82_46 C 0.02546(11) 0.84718(11) 0.37158(8)
H52_22 H 0.123466 0.99022 0.423228
H55_22 H 0.221325 0.99669 0.360918
H56_22 H 0.20523 0.989951 0.344293
O1_47 O 0.02087(5) 0.80323(5) 0.39370(6)
O2_47 O 0.01998(5) 0.82669(6) 0.41771(6)
O3_47 O 0.20685(5) 0.76404(5) 0.41210(7)
O4_47 O 0.21669(6) 0.75431(5) 0.44200(6)
O9_69 O 0.0000 0.79161(6) 0.35463(6)
O10_69 O 0.0000 0.86617(8) 0.42707(8)
O11_47 O 0.22420(6) 0.77580(6) 0.37181(7)
O12_47 O 0.25407(5) 0.74593(5) 0.46579(6)
C1_47 C 0.02675(7) 0.81182(11) 0.40961(10)
C2_47 C 0.04299(9) 0.80051(9) 0.42086(13)
C3_47 C 0.05585(12) 0.78708(11) 0.41152(8)
H1_47 H 0.0544 0.7846 0.3977
C4_47 C 0.07041(9) 0.77757(8) 0.42188(13)
H2_47 H 0.0789 0.7685 0.4151
C5_47 C 0.07311(10) 0.78085(11) 0.44232(12)
C6_47 C 0.06006(13) 0.79331(12) 0.45111(9)
H3_47 H 0.0609 0.7951 0.4651
C7_47 C 0.04573(10) 0.80353(9) 0.44101(14)
H4_47 H 0.0376 0.8128 0.4479
C8_47 C 0.08917(12) 0.76957(8) 0.45368(11)
C9_47 C 0.10845(13) 0.76830(10) 0.44647(9)
H5_47 H 0.1118 0.7746 0.4343
C10_47 C 0.12306(12) 0.75776(8) 0.45695(10)
C11_47 C 0.11715(9) 0.74908(8) 0.47346(11)
H6_47 H 0.1270 0.7417 0.4804
C12_47 C 0.09782(11) 0.74941(8) 0.48218(9)
C13_47 C 0.08438(10) 0.75984(10) 0.47203(10)
H7_47 H 0.0712 0.7609 0.4771
C14_71 C 0.09172(9) 0.73945(10) 0.5000
H8_71 H 0.0973 0.7258 0.5000
H9_71 H 0.0771 0.7383 0.5000
C15_47 C 0.14316(11) 0.75761(8) 0.44927(12)
C16_47 C 0.14802(12) 0.76051(8) 0.42983(13)
H10_47 H 0.1377 0.7627 0.4204
C17_47 C 0.16737(16) 0.76033(8) 0.42352(9)
H11_47 H 0.1703 0.7620 0.4098
C18_47 C 0.18289(10) 0.75768(7) 0.43728(13)
C19_47 C 0.17803(11) 0.75528(8) 0.45614(12)
H12_47 H 0.1882 0.7536 0.4658
C20_47 C 0.15880(15) 0.75521(8) 0.46205(8)
H13_47 H 0.1560 0.7534 0.4758
C21_47 C 0.20339(11) 0.75892(8) 0.42996(11)
C45_47 C 0.02675(7) 0.81182(11) 0.59039(10)
C46_47 C 0.04299(9) 0.80051(9) 0.57914(13)
C47_47 C 0.05585(12) 0.78708(11) 0.58848(8)
H28_47 H 0.0544 0.7846 0.6023
C48_47 C 0.07041(9) 0.77757(8) 0.57812(13)
H29_47 H 0.0789 0.7685 0.5849
C49_47 C 0.07311(10) 0.78085(11) 0.55768(12)
C50_47 C 0.06006(13) 0.79331(12) 0.54889(9)
H30_47 H 0.0609 0.7951 0.5349
C51_47 C 0.04573(10) 0.80353(9) 0.55899(14)
H31_47 H 0.0376 0.8128 0.5521
C52_47 C 0.08917(12) 0.76957(8) 0.54632(11)
C53_47 C 0.10845(13) 0.76830(10) 0.55353(9)
H32_47 H 0.1118 0.7746 0.5657
C54_47 C 0.12306(12) 0.75776(8) 0.54305(10)
C55_47 C 0.11715(9) 0.74908(8) 0.52654(11)
H33_47 H 0.1270 0.7417 0.5196
C56_47 C 0.09782(11) 0.74941(8) 0.51782(9)
C57_47 C 0.08438(10) 0.75984(10) 0.52797(10)
H34_47 H 0.0712 0.7609 0.5229
C58_47 C 0.14316(11) 0.75761(8) 0.55073(12)
C59_47 C 0.14802(12) 0.76051(8) 0.57017(13)
H35_47 H 0.1377 0.7627 0.5796
C60_47 C 0.16737(16) 0.76033(8) 0.57648(9)
H36_47 H 0.1703 0.7620 0.5902
C61_47 C 0.18289(10) 0.75768(7) 0.56272(13)
C62_47 C 0.17803(11) 0.75528(8) 0.54386(12)
H37_47 H 0.1882 0.7536 0.5342
C63_47 C 0.15880(15) 0.75521(8) 0.53795(8)
H38_47 H 0.1560 0.7534 0.5242
C64_47 C 0.20339(11) 0.75892(8) 0.57004(11)
H51_23 H 0.0134617 0.872166 0.427874
O7_47 O 0.98013(6) 0.83149(5) 0.36407(5)
O8_47 O 0.97993(6) 0.85456(7) 0.38806(5)
O9_70 O 1.0000 0.79161(6) 0.35463(6)
O10_70 O 1.0000 0.86617(8) 0.42707(8)
C22_47 C 0.90751(10) 0.77455(8) 0.26126(14)
C23_47 C 0.90114(13) 0.79574(9) 0.26150(12)
C24_47 C 0.88232(12) 0.80093(9) 0.26873(13)
H14_47 H 0.8738 0.7908 0.2735
C25_47 C 0.87581(15) 0.82053(10) 0.26909(9)
H15_47 H 0.8630 0.8237 0.2741
C26_47 C 0.88808(11) 0.83549(9) 0.26208(13)
C27_47 C 0.90699(12) 0.83055(8) 0.25543(12)
H16_47 H 0.9158 0.8407 0.2511
C28_47 C 0.91314(14) 0.81057(8) 0.25514(10)
H17_47 H 0.9260 0.8074 0.2504
C29_47 C 0.88261(11) 0.85736(7) 0.26279(9)
C30_47 C 0.86293(8) 0.86293(10) 0.26161(8)
H18_47 H 0.8530 0.8530 0.2600
C31_47 C 0.89686(12) 0.87227(7) 0.26573(9)
H19_47 H 0.9105 0.8686 0.2666
C32_47 C 0.89192(12) 0.89192(11) 0.26743(12)
C33_47 C 0.90713(10) 0.90713(14) 0.27276(10)
H20_47 H 0.9033 0.9201 0.2670
H21_47 H 0.9201 0.9033 0.2670
C34_47 C 0.90915(7) 0.90915(14) 0.29488(7)
C35_47 C 0.92144(7) 0.89660(13) 0.30552(7)
H22_47 H 0.9295 0.8874 0.2985
C36_47 C 0.92235(10) 0.89696(11) 0.32597(10)
C37_47 C 0.90959(9) 0.90959(14) 0.33555(9)
H23_47 H 0.9095 0.9095 0.3497
C38_47 C 0.93552(12) 0.88444(11) 0.33654(10)
C39_47 C 0.94372(9) 0.89070(14) 0.35400(11)
H24_47 H 0.9410 0.9038 0.3586
C40_47 C 0.95587(15) 0.87850(8) 0.36516(10)
H25_47 H 0.9609 0.8832 0.3775
C41_47 C 0.96090(11) 0.85932(13) 0.35864(10)
C42_47 C 0.95345(9) 0.85307(12) 0.34120(10)
H26_47 H 0.9566 0.8403 0.3361
C43_47 C 0.94104(15) 0.86593(8) 0.33073(10)
H27_47 H 0.9360 0.8613 0.3184
C44_47 C 0.97454(11) 0.84718(11) 0.37158(8)
C65_47 C 0.77455(8) 0.90751(10) 0.26126(14)
C66_47 C 0.79574(9) 0.90114(13) 0.26150(12)
C67_47 C 0.80093(9) 0.88232(12) 0.26873(13)
H39_47 H 0.7908 0.8738 0.2735
C68_47 C 0.82053(10) 0.87581(15) 0.26909(9)
H40_47 H 0.8237 0.8630 0.2741
C69_47 C 0.83549(9) 0.88808(11) 0.26208(13)
C70_47 C 0.83055(8) 0.90699(12) 0.25543(12)
H41_47 H 0.8407 0.9158 0.2511
C71_47 C 0.81057(8) 0.91314(14) 0.25514(10)
H42_47 H 0.8074 0.9260 0.2504
C72_47 C 0.85736(7) 0.88261(11) 0.26279(9)
C73_47 C 0.87227(7) 0.89686(12) 0.26573(9)
H43_47 H 0.8686 0.9105 0.2666
C74_47 C 0.89660(13) 0.92144(7) 0.30552(7)
H44_47 H 0.8874 0.9295 0.2985
C75_47 C 0.89696(11) 0.92235(10) 0.32597(10)
C76_47 C 0.88444(11) 0.93552(12) 0.33654(10)
C77_47 C 0.89070(14) 0.94372(9) 0.35400(11)
H45_47 H 0.9038 0.9410 0.3586
C78_47 C 0.87850(8) 0.95587(15) 0.36516(10)
H46_47 H 0.8832 0.9609 0.3775
C79_47 C 0.85932(13) 0.96090(11) 0.35864(10)
C80_47 C 0.85307(12) 0.95345(9) 0.34120(10)
H47_47 H 0.8403 0.9566 0.3361
C81_47 C 0.86593(8) 0.94104(15) 0.33073(10)
H48_47 H 0.8613 0.9360 0.3184
C82_47 C 0.84718(11) 0.97454(11) 0.37158(8)
H52_23 H 0.99022 0.876534 0.423228
H55_23 H 0.99669 0.778675 0.360918
H56_23 H 0.989951 0.79477 0.344293
O1_48 O 0.02087(5) 0.19677(5) 0.60630(6)
O2_48 O 0.01998(5) 0.17331(6) 0.58229(6)
O3_48 O 0.20685(5) 0.23596(5) 0.58790(7)
O4_48 O 0.21669(6) 0.24569(5) 0.55800(6)
O9_71 O 0.0000 0.20839(6) 0.64537(6)
O10_71 O 0.0000 0.13383(8) 0.57293(8)
O11_48 O 0.22420(6) 0.22420(6) 0.62819(7)
O12_48 O 0.25407(5) 0.25407(5) 0.53421(6)
C1_48 C 0.02675(7) 0.18818(11) 0.59039(10)
C2_48 C 0.04299(9) 0.19949(9) 0.57914(13)
C3_48 C 0.05585(12) 0.21292(11) 0.58848(8)
H1_48 H 0.0544 0.2154 0.6023
C4_48 C 0.07041(9) 0.22243(8) 0.57812(13)
H2_48 H 0.0789 0.2315 0.5849
C5_48 C 0.07311(10) 0.21915(11) 0.55768(12)
C6_48 C 0.06006(13) 0.20669(12) 0.54889(9)
H3_48 H 0.0609 0.2049 0.5349
C7_48 C 0.04573(10) 0.19647(9) 0.55899(14)
H4_48 H 0.0376 0.1872 0.5521
C8_48 C 0.08917(12) 0.23043(8) 0.54632(11)
C9_48 C 0.10845(13) 0.23170(10) 0.55353(9)
H5_48 H 0.1118 0.2254 0.5657
C10_48 C 0.12306(12) 0.24224(8) 0.54305(10)
C11_48 C 0.11715(9) 0.25092(8) 0.52654(11)
H6_48 H 0.1270 0.2583 0.5196
C12_48 C 0.09782(11) 0.25059(8) 0.51782(9)
C13_48 C 0.08438(10) 0.24016(10) 0.52797(10)
H7_48 H 0.0712 0.2391 0.5229
C14_72 C 0.09172(9) 0.26055(10) 0.5000
H8_72 H 0.0973 0.2742 0.5000
H9_72 H 0.0771 0.2617 0.5000
C15_48 C 0.14316(11) 0.24239(8) 0.55073(12)
C16_48 C 0.14802(12) 0.23949(8) 0.57017(13)
H10_48 H 0.1377 0.2373 0.5796
C17_48 C 0.16737(16) 0.23967(8) 0.57648(9)
H11_48 H 0.1703 0.2380 0.5902
C18_48 C 0.18289(10) 0.24232(7) 0.56272(13)
C19_48 C 0.17803(11) 0.24472(8) 0.54386(12)
H12_48 H 0.1882 0.2464 0.5342
C20_48 C 0.15880(15) 0.24479(8) 0.53795(8)
H13_48 H 0.1560 0.2466 0.5242
C21_48 C 0.20339(11) 0.24108(8) 0.57004(11)
C45_48 C 0.02675(7) 0.18818(11) 0.40961(10)
C46_48 C 0.04299(9) 0.19949(9) 0.42086(13)
C47_48 C 0.05585(12) 0.21292(11) 0.41152(8)
H28_48 H 0.0544 0.2154 0.3977
C48_48 C 0.07041(9) 0.22243(8) 0.42188(13)
H29_48 H 0.0789 0.2315 0.4151
C49_48 C 0.07311(10) 0.21915(11) 0.44232(12)
C50_48 C 0.06006(13) 0.20669(12) 0.45111(9)
H30_48 H 0.0609 0.2049 0.4651
C51_48 C 0.04573(10) 0.19647(9) 0.44101(14)
H31_48 H 0.0376 0.1872 0.4479
C52_48 C 0.08917(12) 0.23043(8) 0.45368(11)
C53_48 C 0.10845(13) 0.23170(10) 0.44647(9)
H32_48 H 0.1118 0.2254 0.4343
C54_48 C 0.12306(12) 0.24224(8) 0.45695(10)
C55_48 C 0.11715(9) 0.25092(8) 0.47346(11)
H33_48 H 0.1270 0.2583 0.4804
C56_48 C 0.09782(11) 0.25059(8) 0.48218(9)
C57_48 C 0.08438(10) 0.24016(10) 0.47203(10)
H34_48 H 0.0712 0.2391 0.4771
C58_48 C 0.14316(11) 0.24239(8) 0.44927(12)
C59_48 C 0.14802(12) 0.23949(8) 0.42983(13)
H35_48 H 0.1377 0.2373 0.4204
C60_48 C 0.16737(16) 0.23967(8) 0.42352(9)
H36_48 H 0.1703 0.2380 0.4098
C61_48 C 0.18289(10) 0.24232(7) 0.43728(13)
C62_48 C 0.17803(11) 0.24472(8) 0.45614(12)
H37_48 H 0.1882 0.2464 0.4658
C63_48 C 0.15880(15) 0.24479(8) 0.46205(8)
H38_48 H 0.1560 0.2466 0.4758
C64_48 C 0.20339(11) 0.24108(8) 0.42996(11)
H51_24 H 0.0134617 0.127834 0.572126
O7_48 O 0.98013(6) 0.16851(5) 0.63593(5)
O8_48 O 0.97993(6) 0.14544(7) 0.61194(5)
O9_72 O 1.0000 0.20839(6) 0.64537(6)
O10_72 O 1.0000 0.13383(8) 0.57293(8)
C22_48 C 0.90751(10) 0.22545(8) 0.73874(14)
C23_48 C 0.90114(13) 0.20426(9) 0.73850(12)
C24_48 C 0.88232(12) 0.19907(9) 0.73127(13)
H14_48 H 0.8738 0.2092 0.7265
C25_48 C 0.87581(15) 0.17947(10) 0.73091(9)
H15_48 H 0.8630 0.1763 0.7259
C26_48 C 0.88808(11) 0.16451(9) 0.73792(13)
C27_48 C 0.90699(12) 0.16945(8) 0.74457(12)
H16_48 H 0.9158 0.1593 0.7489
C28_48 C 0.91314(14) 0.18943(8) 0.74486(10)
H17_48 H 0.9260 0.1926 0.7496
C29_48 C 0.88261(11) 0.14264(7) 0.73721(9)
C30_48 C 0.86293(8) 0.13707(10) 0.73839(8)
H18_48 H 0.8530 0.1470 0.7400
C31_48 C 0.89686(12) 0.12773(7) 0.73427(9)
H19_48 H 0.9105 0.1314 0.7334
C32_48 C 0.89192(12) 0.10808(11) 0.73257(12)
C33_48 C 0.90713(10) 0.09287(14) 0.72724(10)
H20_48 H 0.9033 0.0799 0.7330
H21_48 H 0.9201 0.0967 0.7330
C34_48 C 0.90915(7) 0.09085(14) 0.70512(7)
C35_48 C 0.92144(7) 0.10340(13) 0.69448(7)
H22_48 H 0.9295 0.1126 0.7015
C36_48 C 0.92235(10) 0.10304(11) 0.67403(10)
C37_48 C 0.90959(9) 0.09041(14) 0.66445(9)
H23_48 H 0.9095 0.0905 0.6503
C38_48 C 0.93552(12) 0.11556(11) 0.66346(10)
C39_48 C 0.94372(9) 0.10930(14) 0.64600(11)
H24_48 H 0.9410 0.0962 0.6414
C40_48 C 0.95587(15) 0.12150(8) 0.63484(10)
H25_48 H 0.9609 0.1168 0.6225
C41_48 C 0.96090(11) 0.14068(13) 0.64136(10)
C42_48 C 0.95345(9) 0.14693(12) 0.65880(10)
H26_48 H 0.9566 0.1597 0.6639
C43_48 C 0.94104(15) 0.13407(8) 0.66927(10)
H27_48 H 0.9360 0.1387 0.6816
C44_48 C 0.97454(11) 0.15282(11) 0.62842(8)
C65_48 C 0.77455(8) 0.09249(10) 0.73874(14)
C66_48 C 0.79574(9) 0.09886(13) 0.73850(12)
C67_48 C 0.80093(9) 0.11768(12) 0.73127(13)
H39_48 H 0.7908 0.1262 0.7265
C68_48 C 0.82053(10) 0.12419(15) 0.73091(9)
H40_48 H 0.8237 0.1370 0.7259
C69_48 C 0.83549(9) 0.11192(11) 0.73792(13)
C70_48 C 0.83055(8) 0.09301(12) 0.74457(12)
H41_48 H 0.8407 0.0842 0.7489
C71_48 C 0.81057(8) 0.08686(14) 0.74486(10)
H42_48 H 0.8074 0.0740 0.7496
C72_48 C 0.85736(7) 0.11739(11) 0.73721(9)
C73_48 C 0.87227(7) 0.10314(12) 0.73427(9)
H43_48 H 0.8686 0.0895 0.7334
C74_48 C 0.89660(13) 0.07856(7) 0.69448(7)
H44_48 H 0.8874 0.0705 0.7015
C75_48 C 0.89696(11) 0.07765(10) 0.67403(10)
C76_48 C 0.88444(11) 0.06448(12) 0.66346(10)
C77_48 C 0.89070(14) 0.05628(9) 0.64600(11)
H45_48 H 0.9038 0.0590 0.6414
C78_48 C 0.87850(8) 0.04413(15) 0.63484(10)
H46_48 H 0.8832 0.0391 0.6225
C79_48 C 0.85932(13) 0.03910(11) 0.64136(10)
C80_48 C 0.85307(12) 0.04655(9) 0.65880(10)
H47_48 H 0.8403 0.0434 0.6639
C81_48 C 0.86593(8) 0.05896(15) 0.66927(10)
H48_48 H 0.8613 0.0640 0.6816
C82_48 C 0.84718(11) 0.02546(11) 0.62842(8)
H52_24 H 0.99022 0.123466 0.576772
H55_24 H 0.99669 0.221325 0.639082
H56_24 H 0.989951 0.20523 0.655707
H51_25 H 0.427874 0.0134617 0.127834
H52_25 H 0.423228 0.99022 0.123466
H55_25 H 0.360918 0.99669 0.221325
H56_25 H 0.344293 0.989951 0.20523
H52_26 H 0.00977993 0.423228 0.123466
H55_26 H 0.0033103 0.360918 0.221325
H56_26 H 0.0100492 0.344293 0.20523
H51_26 H 0.986538 0.427874 0.127834
H52_27 H 0.423228 0.00977993 0.876534
H55_27 H 0.360918 0.0033103 0.778675
H56_27 H 0.344293 0.0100492 0.79477
H51_27 H 0.427874 0.986538 0.872166
H51_28 H 0.127834 0.427874 0.0134617
H52_28 H 0.123466 0.423228 0.99022
H55_28 H 0.221325 0.360918 0.99669
H56_28 H 0.20523 0.344293 0.989951
H52_29 H 0.576772 0.00977993 0.123466
H55_29 H 0.639082 0.0033103 0.221325
H56_29 H 0.655707 0.0100492 0.20523
H51_29 H 0.572126 0.986538 0.127834
H51_30 H 0.0134617 0.427874 0.872166
H52_30 H 0.99022 0.423228 0.876534
H55_30 H 0.99669 0.360918 0.778675
H56_30 H 0.989951 0.344293 0.79477
H51_31 H 0.572126 0.127834 0.0134617
H52_31 H 0.576772 0.123466 0.99022
H55_31 H 0.639082 0.221325 0.99669
H56_31 H 0.655707 0.20523 0.989951
H51_32 H 0.0134617 0.572126 0.127834
H52_32 H 0.99022 0.576772 0.123466
H55_32 H 0.99669 0.639082 0.221325
H56_32 H 0.989951 0.655707 0.20523
H51_33 H 0.572126 0.0134617 0.872166
H52_33 H 0.576772 0.99022 0.876534
H55_33 H 0.639082 0.99669 0.778675
H56_33 H 0.655707 0.989951 0.79477
H51_34 H 0.872166 0.572126 0.0134617
H52_34 H 0.876534 0.576772 0.99022
H55_34 H 0.778675 0.639082 0.99669
H56_34 H 0.79477 0.655707 0.989951
H52_35 H 0.00977993 0.576772 0.876534
H55_35 H 0.0033103 0.639082 0.778675
H56_35 H 0.0100492 0.655707 0.79477
H51_35 H 0.986538 0.572126 0.872166
H51_36 H 0.427874 0.872166 0.0134617
H52_36 H 0.423228 0.876534 0.99022
H55_36 H 0.360918 0.778675 0.99669
H56_36 H 0.344293 0.79477 0.989951
H52_37 H 0.123466 0.576772 0.00977993
H55_37 H 0.221325 0.639082 0.0033103
H56_37 H 0.20523 0.655707 0.0100492
H51_37 H 0.127834 0.572126 0.986538
H52_38 H 0.576772 0.876534 0.00977993
H55_38 H 0.639082 0.778675 0.0033103
H56_38 H 0.655707 0.79477 0.0100492
H51_38 H 0.572126 0.872166 0.986538
H52_39 H 0.876534 0.423228 0.00977993
H55_39 H 0.778675 0.360918 0.0033103
H56_39 H 0.79477 0.344293 0.0100492
H51_39 H 0.872166 0.427874 0.986538
H52_40 H 0.423228 0.123466 0.00977993
H55_40 H 0.360918 0.221325 0.0033103
H56_40 H 0.344293 0.20523 0.0100492
H51_40 H 0.427874 0.127834 0.986538
H51_41 H 0.0134617 0.127834 0.427874
H52_41 H 0.99022 0.123466 0.423228
H55_41 H 0.99669 0.221325 0.360918
H56_41 H 0.989951 0.20523 0.344293
H52_42 H 0.123466 0.00977993 0.423228
H55_42 H 0.221325 0.0033103 0.360918
H56_42 H 0.20523 0.0100492 0.344293
H51_42 H 0.127834 0.986538 0.427874
H51_43 H 0.872166 0.0134617 0.427874
H52_43 H 0.876534 0.99022 0.423228
H55_43 H 0.778675 0.99669 0.360918
H56_43 H 0.79477 0.989951 0.344293
H51_44 H 0.127834 0.0134617 0.572126
H52_44 H 0.123466 0.99022 0.576772
H55_44 H 0.221325 0.99669 0.639082
H56_44 H 0.20523 0.989951 0.655707
H51_45 H 0.0134617 0.872166 0.572126
H52_45 H 0.99022 0.876534 0.576772
H55_45 H 0.99669 0.778675 0.639082
H56_45 H 0.989951 0.79477 0.655707
H52_46 H 0.876534 0.00977993 0.576772
H55_46 H 0.778675 0.0033103 0.639082
H56_46 H 0.79477 0.0100492 0.655707
H51_46 H 0.872166 0.986538 0.572126
H52_47 H 0.00977993 0.123466 0.576772
H55_47 H 0.0033103 0.221325 0.639082
H56_47 H 0.0100492 0.20523 0.655707
H51_47 H 0.986538 0.127834 0.572126
H52_48 H 0.00977993 0.876534 0.423228
H55_48 H 0.0033103 0.778675 0.360918
H56_48 H 0.0100492 0.79477 0.344293
H51_48 H 0.986538 0.872166 0.427874
loop_
_geom_bond_atom_site_label_1
_geom_bond_atom_site_label_2
_geom_bond_site_symmetry_1
_geom_bond_site_symmetry_2
Cu1 O1 1_555 1_555
Cu2 O2 1_555 1_555
Cu3 O3 1_555 1_555
Cu4 O4 1_555 1_555
O1 C1 1_555 1_555
O2 C1 1_555 1_555
O3 C21 1_555 1_555
O4 C21 1_555 1_555
O5 C22 1_555 1_555
O6 C22 1_555 1_555
O7 Cu1 1_555 1_555
O8 Cu2 1_555 1_555
O9 Cu1 1_555 1_555
O10 Cu2 1_555 1_555
O11 Cu3 1_555 1_555
O12 Cu4 1_555 1_555
C1 C2 1_555 1_555
C2 C3 1_555 1_555
C3 H1 1_555 1_555
C4 C3 1_555 1_555
H2 C4 1_555 1_555
C5 C4 1_555 1_555
C6 C5 1_555 1_555
H3 C6 1_555 1_555
C7 C2 1_555 1_555
H4 C7 1_555 1_555
C8 C5 1_555 1_555
C9 C8 1_555 1_555
H5 C9 1_555 1_555
C10 C9 1_555 1_555
C11 C10 1_555 1_555
H6 C11 1_555 1_555
C12 C11 1_555 1_555
C13 C8 1_555 1_555
H7 C13 1_555 1_555
C14 C12 1_555 1_555
H8 C14 1_555 1_555
H9 C14 1_555 1_555
C15 C10 1_555 1_555
C16 C15 1_555 1_555
H10 C16 1_555 1_555
C17 C16 1_555 1_555
H11 C17 1_555 1_555
C18 C17 1_555 1_555
C19 C18 1_555 1_555
H12 C19 1_555 1_555
C20 C15 1_555 1_555
H13 C20 1_555 1_555
C21 C18 1_555 1_555
C22 C23 1_555 1_555
C23 C24 1_555 1_555
C24 H14 1_555 1_555
C25 C24 1_555 1_555
H15 C25 1_555 1_555
C26 C25 1_555 1_555
C27 C26 1_555 1_555
H16 C27 1_555 1_555
C28 C23 1_555 1_555
H17 C28 1_555 1_555
C29 C26 1_555 1_555
C30 C29 1_555 1_555
H18 C30 1_555 1_555
C31 C29 1_555 1_555
H19 C31 1_555 1_555
C32 C31 1_555 1_555
C33 C32 1_555 1_555
H20 C33 1_555 1_555
H21 C33 1_555 1_555
C34 C33 1_555 1_555
C35 C34 1_555 1_555
H22 C35 1_555 1_555
C36 C35 1_555 1_555
C37 C36 1_555 1_555
H23 C37 1_555 1_555
C38 C36 1_555 1_555
C39 C38 1_555 1_555
H24 C39 1_555 1_555
C40 C39 1_555 1_555
H25 C40 1_555 1_555
C41 C40 1_555 1_555
C42 C41 1_555 1_555
H26 C42 1_555 1_555
C43 C38 1_555 1_555
H27 C43 1_555 1_555
C44 O7 1_555 1_555
Cu6 O27 1_555 1_555
Cu8 O29 1_555 1_555
Cu9 O5 1_555 1_555
Cu11 O21 1_555 1_555
Cu12 O6 1_555 1_555
Cu14 O24 1_555 1_555
O14 Cu1 1_555 1_555
O16 Cu2 1_555 1_555
O18 Cu3 1_555 1_555
O20 Cu4 1_555 1_555
O21 C65 1_555 1_555
O22 Cu3 1_555 1_555
O23 Cu3 1_555 1_555
O24 C65 1_555 1_555
O25 Cu4 1_555 1_555
O26 Cu4 1_555 1_555
O27 C82 1_555 1_555
O28 Cu1 1_555 1_555
O29 C82 1_555 1_555
O30 Cu2 1_555 1_555
C65 C66 1_555 1_555
C66 C67 1_555 1_555
C67 H39 1_555 1_555
C68 C67 1_555 1_555
H40 C68 1_555 1_555
C69 C68 1_555 1_555
C70 C69 1_555 1_555
H41 C70 1_555 1_555
C71 C66 1_555 1_555
H42 C71 1_555 1_555
C72 C30 1_555 1_555
C73 C32 1_555 1_555
H43 C73 1_555 1_555
C74 C34 1_555 1_555
H44 C74 1_555 1_555
C75 C37 1_555 1_555
C76 C75 1_555 1_555
C77 C76 1_555 1_555
H45 C77 1_555 1_555
C78 C77 1_555 1_555
H46 C78 1_555 1_555
C79 C78 1_555 1_555
C80 C79 1_555 1_555
H47 C80 1_555 1_555
C81 C76 1_555 1_555
H48 C81 1_555 1_555
C82 C79 1_555 1_555
O8 C44 1_555 1_555
C6 C7 1_555 1_555
C12 C13 1_555 1_555
C19 C20 1_555 1_555
C27 C28 1_555 1_555
C41 C44 1_555 1_555
C42 C43 1_555 1_555
C69 C72 1_555 1_555
C70 C71 1_555 1_555
C72 C73 1_555 1_555
C74 C75 1_555 1_555
C80 C81 1_555 1_555
H8_2 C14_2 1_555 1_555
H9_2 C14_2 1_555 1_555
Cu5 O13 1_555 1_555
Cu7 O15 1_555 1_555
Cu10 O17 1_555 1_555
Cu13 O19 1_555 1_555
O13 C45 1_555 1_555
O15 C45 1_555 1_555
O17 C64 1_555 1_555
O19 C64 1_555 1_555
C45 C46 1_555 1_555
C46 C47 1_555 1_555
C47 H28 1_555 1_555
C48 C47 1_555 1_555
H29 C48 1_555 1_555
C49 C48 1_555 1_555
C50 C49 1_555 1_555
H30 C50 1_555 1_555
C51 C46 1_555 1_555
H31 C51 1_555 1_555
C52 C49 1_555 1_555
C53 C52 1_555 1_555
H32 C53 1_555 1_555
C54 C53 1_555 1_555
C55 C54 1_555 1_555
H33 C55 1_555 1_555
C56 C14_2 1_555 1_555
C57 C52 1_555 1_555
H34 C57 1_555 1_555
C58 C54 1_555 1_555
C59 C58 1_555 1_555
H35 C59 1_555 1_555
C60 C59 1_555 1_555
H36 C60 1_555 1_555
C61 C60 1_555 1_555
C62 C61 1_555 1_555
H37 C62 1_555 1_555
C63 C58 1_555 1_555
H38 C63 1_555 1_555
C64 C61 1_555 1_555
C50 C51 1_555 1_555
C55 C56 1_555 1_555
C56 C57 1_555 1_555
C62 C63 1_555 1_555
Cu1_2 O1_2 1_555 1_555
Cu2_2 O2_2 1_555 1_555
Cu3_2 O3_2 1_555 1_555
Cu4_2 O4_2 1_555 1_555
O1_2 C1_2 1_555 1_555
O2_2 C1_2 1_555 1_555
O3_2 C21_2 1_555 1_555
O4_2 C21_2 1_555 1_555
O5_2 C22_2 1_555 1_555
O6_2 C22_2 1_555 1_555
O7_2 Cu1_2 1_555 1_555
O8_2 Cu2_2 1_555 1_555
O9_2 Cu1_2 1_555 1_555
O10_2 Cu2_2 1_555 1_555
O11_2 Cu3_2 1_555 1_555
O12_2 Cu4_2 1_555 1_555
C1_2 C2_2 1_555 1_555
C2_2 C3_2 1_555 1_555
C3_2 H1_2 1_555 1_555
C4_2 C3_2 1_555 1_555
H2_2 C4_2 1_555 1_555
C5_2 C4_2 1_555 1_555
C6_2 C5_2 1_555 1_555
H3_2 C6_2 1_555 1_555
C7_2 C2_2 1_555 1_555
H4_2 C7_2 1_555 1_555
C8_2 C5_2 1_555 1_555
C9_2 C8_2 1_555 1_555
H5_2 C9_2 1_555 1_555
C10_2 C9_2 1_555 1_555
C11_2 C10_2 1_555 1_555
H6_2 C11_2 1_555 1_555
C12_2 C11_2 1_555 1_555
C13_2 C8_2 1_555 1_555
H7_2 C13_2 1_555 1_555
C14_3 C12_2 1_555 1_555
H8_3 C14_3 1_555 1_555
H9_3 C14_3 1_555 1_555
C15_2 C10_2 1_555 1_555
C16_2 C15_2 1_555 1_555
H10_2 C16_2 1_555 1_555
C17_2 C16_2 1_555 1_555
H11_2 C17_2 1_555 1_555
C18_2 C17_2 1_555 1_555
C19_2 C18_2 1_555 1_555
H12_2 C19_2 1_555 1_555
C20_2 C15_2 1_555 1_555
H13_2 C20_2 1_555 1_555
C21_2 C18_2 1_555 1_555
C22_2 C23_2 1_555 1_555
C23_2 C24_2 1_555 1_555
C24_2 H14_2 1_555 1_555
C25_2 C24_2 1_555 1_555
H15_2 C25_2 1_555 1_555
C26_2 C25_2 1_555 1_555
C27_2 C26_2 1_555 1_555
H16_2 C27_2 1_555 1_555
C28_2 C23_2 1_555 1_555
H17_2 C28_2 1_555 1_555
C29_2 C26_2 1_555 1_555
C30_2 C29_2 1_555 1_555
H18_2 C30_2 1_555 1_555
C31_2 C29_2 1_555 1_555
H19_2 C31_2 1_555 1_555
C32_2 C31_2 1_555 1_555
C33_2 C32_2 1_555 1_555
H20_2 C33_2 1_555 1_555
H21_2 C33_2 1_555 1_555
C34_2 C33_2 1_555 1_555
C35_2 C34_2 1_555 1_555
H22_2 C35_2 1_555 1_555
C36_2 C35_2 1_555 1_555
C37_2 C36_2 1_555 1_555
H23_2 C37_2 1_555 1_555
C38_2 C36_2 1_555 1_555
C39_2 C38_2 1_555 1_555
H24_2 C39_2 1_555 1_555
C40_2 C39_2 1_555 1_555
H25_2 C40_2 1_555 1_555
C41_2 C40_2 1_555 1_555
C42_2 C41_2 1_555 1_555
H26_2 C42_2 1_555 1_555
C43_2 C38_2 1_555 1_555
H27_2 C43_2 1_555 1_555
C44_2 O7_2 1_555 1_555
Cu6_2 O27_2 1_555 1_555
Cu8_2 O29_2 1_555 1_555
Cu9_2 O5_2 1_555 1_555
Cu11_2 O21_2 1_555 1_555
Cu12_2 O6_2 1_555 1_555
Cu14_2 O24_2 1_555 1_555
O14_2 Cu1_2 1_555 1_555
O16_2 Cu2_2 1_555 1_555
O18_2 Cu3_2 1_555 1_555
O20_2 Cu4_2 1_555 1_555
O21_2 C65_2 1_555 1_555
O22_2 Cu3_2 1_555 1_555
O23_2 Cu3_2 1_555 1_555
O24_2 C65_2 1_555 1_555
O25_2 Cu4_2 1_555 1_555
O26_2 Cu4_2 1_555 1_555
O27_2 C82_2 1_555 1_555
O28_2 Cu1_2 1_555 1_555
O29_2 C82_2 1_555 1_555
O30_2 Cu2_2 1_555 1_555
C65_2 C66_2 1_555 1_555
C66_2 C67_2 1_555 1_555
C67_2 H39_2 1_555 1_555
C68_2 C67_2 1_555 1_555
H40_2 C68_2 1_555 1_555
C69_2 C68_2 1_555 1_555
C70_2 C69_2 1_555 1_555
H41_2 C70_2 1_555 1_555
C71_2 C66_2 1_555 1_555
H42_2 C71_2 1_555 1_555
C72_2 C30_2 1_555 1_555
C73_2 C32_2 1_555 1_555
H43_2 C73_2 1_555 1_555
C74_2 C34_2 1_555 1_555
H44_2 C74_2 1_555 1_555
C75_2 C37_2 1_555 1_555
C76_2 C75_2 1_555 1_555
C77_2 C76_2 1_555 1_555
H45_2 C77_2 1_555 1_555
C78_2 C77_2 1_555 1_555
H46_2 C78_2 1_555 1_555
C79_2 C78_2 1_555 1_555
C80_2 C79_2 1_555 1_555
H47_2 C80_2 1_555 1_555
C81_2 C76_2 1_555 1_555
H48_2 C81_2 1_555 1_555
C82_2 C79_2 1_555 1_555
O8_2 C44_2 1_555 1_555
C6_2 C7_2 1_555 1_555
C12_2 C13_2 1_555 1_555
C19_2 C20_2 1_555 1_555
C27_2 C28_2 1_555 1_555
C41_2 C44_2 1_555 1_555
C42_2 C43_2 1_555 1_555
C69_2 C72_2 1_555 1_555
C70_2 C71_2 1_555 1_555
C72_2 C73_2 1_555 1_555
C74_2 C75_2 1_555 1_555
C80_2 C81_2 1_555 1_555
H8_4 C14_4 1_555 1_555
H9_4 C14_4 1_555 1_555
Cu5_2 O13_2 1_555 1_555
Cu7_2 O15_2 1_555 1_555
Cu10_2 O17_2 1_555 1_555
Cu13_2 O19_2 1_555 1_555
O13_2 C45_2 1_555 1_555
O15_2 C45_2 1_555 1_555
O17_2 C64_2 1_555 1_555
O19_2 C64_2 1_555 1_555
C45_2 C46_2 1_555 1_555
C46_2 C47_2 1_555 1_555
C47_2 H28_2 1_555 1_555
C48_2 C47_2 1_555 1_555
H29_2 C48_2 1_555 1_555
C49_2 C48_2 1_555 1_555
C50_2 C49_2 1_555 1_555
H30_2 C50_2 1_555 1_555
C51_2 C46_2 1_555 1_555
H31_2 C51_2 1_555 1_555
C52_2 C49_2 1_555 1_555
C53_2 C52_2 1_555 1_555
H32_2 C53_2 1_555 1_555
C54_2 C53_2 1_555 1_555
C55_2 C54_2 1_555 1_555
H33_2 C55_2 1_555 1_555
C56_2 C14_4 1_555 1_555
C57_2 C52_2 1_555 1_555
H34_2 C57_2 1_555 1_555
C58_2 C54_2 1_555 1_555
C59_2 C58_2 1_555 1_555
H35_2 C59_2 1_555 1_555
C60_2 C59_2 1_555 1_555
H36_2 C60_2 1_555 1_555
C61_2 C60_2 1_555 1_555
C62_2 C61_2 1_555 1_555
H37_2 C62_2 1_555 1_555
C63_2 C58_2 1_555 1_555
H38_2 C63_2 1_555 1_555
C64_2 C61_2 1_555 1_555
C50_2 C51_2 1_555 1_555
C55_2 C56_2 1_555 1_555
C56_2 C57_2 1_555 1_555
C62_2 C63_2 1_555 1_555
Cu1_3 O1_3 1_555 1_555
Cu2_3 O2_3 1_555 1_555
Cu3_3 O3_3 1_555 1_555
Cu4_3 O4_3 1_555 1_555
O1_3 C1_3 1_555 1_555
O2_3 C1_3 1_555 1_555
O3_3 C21_3 1_555 1_555
O4_3 C21_3 1_555 1_555
O5_3 C22_3 1_555 1_555
O6_3 C22_3 1_555 1_555
O7_3 Cu1_3 1_555 1_555
O8_3 Cu2_3 1_555 1_555
O9_3 Cu1_3 1_555 1_555
O10_3 Cu2_3 1_555 1_555
O11_3 Cu3_3 1_555 1_555
O12_3 Cu4_3 1_555 1_555
C1_3 C2_3 1_555 1_555
C2_3 C3_3 1_555 1_555
C3_3 H1_3 1_555 1_555
C4_3 C3_3 1_555 1_555
H2_3 C4_3 1_555 1_555
C5_3 C4_3 1_555 1_555
C6_3 C5_3 1_555 1_555
H3_3 C6_3 1_555 1_555
C7_3 C2_3 1_555 1_555
H4_3 C7_3 1_555 1_555
C8_3 C5_3 1_555 1_555
C9_3 C8_3 1_555 1_555
H5_3 C9_3 1_555 1_555
C10_3 C9_3 1_555 1_555
C11_3 C10_3 1_555 1_555
H6_3 C11_3 1_555 1_555
C12_3 C11_3 1_555 1_555
C13_3 C8_3 1_555 1_555
H7_3 C13_3 1_555 1_555
C14_5 C12_3 1_555 1_555
H8_5 C14_5 1_555 1_555
H9_5 C14_5 1_555 1_555
C15_3 C10_3 1_555 1_555
C16_3 C15_3 1_555 1_555
H10_3 C16_3 1_555 1_555
C17_3 C16_3 1_555 1_555
H11_3 C17_3 1_555 1_555
C18_3 C17_3 1_555 1_555
C19_3 C18_3 1_555 1_555
H12_3 C19_3 1_555 1_555
C20_3 C15_3 1_555 1_555
H13_3 C20_3 1_555 1_555
C21_3 C18_3 1_555 1_555
C22_3 C23_3 1_555 1_555
C23_3 C24_3 1_555 1_555
C24_3 H14_3 1_555 1_555
C25_3 C24_3 1_555 1_555
H15_3 C25_3 1_555 1_555
C26_3 C25_3 1_555 1_555
C27_3 C26_3 1_555 1_555
H16_3 C27_3 1_555 1_555
C28_3 C23_3 1_555 1_555
H17_3 C28_3 1_555 1_555
C29_3 C26_3 1_555 1_555
C30_3 C29_3 1_555 1_555
H18_3 C30_3 1_555 1_555
C31_3 C29_3 1_555 1_555
H19_3 C31_3 1_555 1_555
C32_3 C31_3 1_555 1_555
C33_3 C32_3 1_555 1_555
H20_3 C33_3 1_555 1_555
H21_3 C33_3 1_555 1_555
C34_3 C33_3 1_555 1_555
C35_3 C34_3 1_555 1_555
H22_3 C35_3 1_555 1_555
C36_3 C35_3 1_555 1_555
C37_3 C36_3 1_555 1_555
H23_3 C37_3 1_555 1_555
C38_3 C36_3 1_555 1_555
C39_3 C38_3 1_555 1_555
H24_3 C39_3 1_555 1_555
C40_3 C39_3 1_555 1_555
H25_3 C40_3 1_555 1_555
C41_3 C40_3 1_555 1_555
C42_3 C41_3 1_555 1_555
H26_3 C42_3 1_555 1_555
C43_3 C38_3 1_555 1_555
H27_3 C43_3 1_555 1_555
C44_3 O7_3 1_555 1_555
Cu6_3 O27_3 1_555 1_555
Cu8_3 O29_3 1_555 1_555
Cu9_3 O5_3 1_555 1_555
Cu11_3 O21_3 1_555 1_555
Cu12_3 O6_3 1_555 1_555
Cu14_3 O24_3 1_555 1_555
O14_3 Cu1_3 1_555 1_555
O16_3 Cu2_3 1_555 1_555
O18_3 Cu3_3 1_555 1_555
O20_3 Cu4_3 1_555 1_555
O21_3 C65_3 1_555 1_555
O22_3 Cu3_3 1_555 1_555
O23_3 Cu3_3 1_555 1_555
O24_3 C65_3 1_555 1_555
O25_3 Cu4_3 1_555 1_555
O26_3 Cu4_3 1_555 1_555
O27_3 C82_3 1_555 1_555
O28_3 Cu1_3 1_555 1_555
O29_3 C82_3 1_555 1_555
O30_3 Cu2_3 1_555 1_555
C65_3 C66_3 1_555 1_555
C66_3 C67_3 1_555 1_555
C67_3 H39_3 1_555 1_555
C68_3 C67_3 1_555 1_555
H40_3 C68_3 1_555 1_555
C69_3 C68_3 1_555 1_555
C70_3 C69_3 1_555 1_555
H41_3 C70_3 1_555 1_555
C71_3 C66_3 1_555 1_555
H42_3 C71_3 1_555 1_555
C72_3 C30_3 1_555 1_555
C73_3 C32_3 1_555 1_555
H43_3 C73_3 1_555 1_555
C74_3 C34_3 1_555 1_555
H44_3 C74_3 1_555 1_555
C75_3 C37_3 1_555 1_555
C76_3 C75_3 1_555 1_555
C77_3 C76_3 1_555 1_555
H45_3 C77_3 1_555 1_555
C78_3 C77_3 1_555 1_555
H46_3 C78_3 1_555 1_555
C79_3 C78_3 1_555 1_555
C80_3 C79_3 1_555 1_555
H47_3 C80_3 1_555 1_555
C81_3 C76_3 1_555 1_555
H48_3 C81_3 1_555 1_555
C82_3 C79_3 1_555 1_555
O8_3 C44_3 1_555 1_555
C6_3 C7_3 1_555 1_555
C12_3 C13_3 1_555 1_555
C19_3 C20_3 1_555 1_555
C27_3 C28_3 1_555 1_555
C41_3 C44_3 1_555 1_555
C42_3 C43_3 1_555 1_555
C69_3 C72_3 1_555 1_555
C70_3 C71_3 1_555 1_555
C72_3 C73_3 1_555 1_555
C74_3 C75_3 1_555 1_555
C80_3 C81_3 1_555 1_555
H8_6 C14_6 1_555 1_555
H9_6 C14_6 1_555 1_555
Cu5_3 O13_3 1_555 1_555
Cu7_3 O15_3 1_555 1_555
Cu10_3 O17_3 1_555 1_555
Cu13_3 O19_3 1_555 1_555
O13_3 C45_3 1_555 1_555
O15_3 C45_3 1_555 1_555
O17_3 C64_3 1_555 1_555
O19_3 C64_3 1_555 1_555
C45_3 C46_3 1_555 1_555
C46_3 C47_3 1_555 1_555
C47_3 H28_3 1_555 1_555
C48_3 C47_3 1_555 1_555
H29_3 C48_3 1_555 1_555
C49_3 C48_3 1_555 1_555
C50_3 C49_3 1_555 1_555
H30_3 C50_3 1_555 1_555
C51_3 C46_3 1_555 1_555
H31_3 C51_3 1_555 1_555
C52_3 C49_3 1_555 1_555
C53_3 C52_3 1_555 1_555
H32_3 C53_3 1_555 1_555
C54_3 C53_3 1_555 1_555
C55_3 C54_3 1_555 1_555
H33_3 C55_3 1_555 1_555
C56_3 C14_6 1_555 1_555
C57_3 C52_3 1_555 1_555
H34_3 C57_3 1_555 1_555
C58_3 C54_3 1_555 1_555
C59_3 C58_3 1_555 1_555
H35_3 C59_3 1_555 1_555
C60_3 C59_3 1_555 1_555
H36_3 C60_3 1_555 1_555
C61_3 C60_3 1_555 1_555
C62_3 C61_3 1_555 1_555
H37_3 C62_3 1_555 1_555
C63_3 C58_3 1_555 1_555
H38_3 C63_3 1_555 1_555
C64_3 C61_3 1_555 1_555
C50_3 C51_3 1_555 1_555
C55_3 C56_3 1_555 1_555
C56_3 C57_3 1_555 1_555
C62_3 C63_3 1_555 1_555
Cu6_2 O1_4 1_555 1_555
Cu8_2 O2_4 1_555 1_555
Cu3_4 O3_4 1_555 1_555
Cu4_4 O4_4 1_555 1_555
O1_4 C1_4 1_555 1_555
O2_4 C1_4 1_555 1_555
O3_4 C21_4 1_555 1_555
O4_4 C21_4 1_555 1_555
O5_4 C22_4 1_555 1_555
O6_4 C22_4 1_555 1_555
O7_4 Cu6_2 1_555 1_555
O8_4 Cu8_2 1_555 1_555
O9_4 Cu6_2 1_555 1_555
O10_4 Cu8_2 1_555 1_555
O11_4 Cu3_4 1_555 1_555
O12_4 Cu4_4 1_555 1_555
C1_4 C2_4 1_555 1_555
C2_4 C3_4 1_555 1_555
C3_4 H1_4 1_555 1_555
C4_4 C3_4 1_555 1_555
H2_4 C4_4 1_555 1_555
C5_4 C4_4 1_555 1_555
C6_4 C5_4 1_555 1_555
H3_4 C6_4 1_555 1_555
C7_4 C2_4 1_555 1_555
H4_4 C7_4 1_555 1_555
C8_4 C5_4 1_555 1_555
C9_4 C8_4 1_555 1_555
H5_4 C9_4 1_555 1_555
C10_4 C9_4 1_555 1_555
C11_4 C10_4 1_555 1_555
H6_4 C11_4 1_555 1_555
C12_4 C11_4 1_555 1_555
C13_4 C8_4 1_555 1_555
H7_4 C13_4 1_555 1_555
C14_7 C12_4 1_555 1_555
H8_7 C14_7 1_555 1_555
H9_7 C14_7 1_555 1_555
C15_4 C10_4 1_555 1_555
C16_4 C15_4 1_555 1_555
H10_4 C16_4 1_555 1_555
C17_4 C16_4 1_555 1_555
H11_4 C17_4 1_555 1_555
C18_4 C17_4 1_555 1_555
C19_4 C18_4 1_555 1_555
H12_4 C19_4 1_555 1_555
C20_4 C15_4 1_555 1_555
H13_4 C20_4 1_555 1_555
C21_4 C18_4 1_555 1_555
C22_4 C23_4 1_555 1_555
C23_4 C24_4 1_555 1_555
C24_4 H14_4 1_555 1_555
C25_4 C24_4 1_555 1_555
H15_4 C25_4 1_555 1_555
C26_4 C25_4 1_555 1_555
C27_4 C26_4 1_555 1_555
H16_4 C27_4 1_555 1_555
C28_4 C23_4 1_555 1_555
H17_4 C28_4 1_555 1_555
C29_4 C26_4 1_555 1_555
C30_4 C29_4 1_555 1_555
H18_4 C30_4 1_555 1_555
C31_4 C29_4 1_555 1_555
H19_4 C31_4 1_555 1_555
C32_4 C31_4 1_555 1_555
C33_4 C32_4 1_555 1_555
H20_4 C33_4 1_555 1_555
H21_4 C33_4 1_555 1_555
C34_4 C33_4 1_555 1_555
C35_4 C34_4 1_555 1_555
H22_4 C35_4 1_555 1_555
C36_4 C35_4 1_555 1_555
C37_4 C36_4 1_555 1_555
H23_4 C37_4 1_555 1_555
C38_4 C36_4 1_555 1_555
C39_4 C38_4 1_555 1_555
H24_4 C39_4 1_555 1_555
C40_4 C39_4 1_555 1_555
H25_4 C40_4 1_555 1_555
C41_4 C40_4 1_555 1_555
C42_4 C41_4 1_555 1_555
H26_4 C42_4 1_555 1_555
C43_4 C38_4 1_555 1_555
H27_4 C43_4 1_555 1_555
C44_4 O7_4 1_555 1_555
Cu6_4 O27_4 1_555 1_555
Cu8_4 O29_4 1_555 1_555
Cu11_3 O5_4 1_555 1_555
Cu11_4 O21_4 1_555 1_555
Cu14_3 O6_4 1_555 1_555
Cu14_4 O24_4 1_555 1_555
O14_4 Cu6_2 1_555 1_555
O16_4 Cu8_2 1_555 1_555
O18_4 Cu3_4 1_555 1_555
O20_4 Cu4_4 1_555 1_555
O21_4 C65_4 1_555 1_555
O22_4 Cu3_4 1_555 1_555
O23_4 Cu3_4 1_555 1_555
O24_4 C65_4 1_555 1_555
O25_4 Cu4_4 1_555 1_555
O26_4 Cu4_4 1_555 1_555
O27_4 C82_4 1_555 1_555
O29_4 C82_4 1_555 1_555
C65_4 C66_4 1_555 1_555
C66_4 C67_4 1_555 1_555
C67_4 H39_4 1_555 1_555
C68_4 C67_4 1_555 1_555
H40_4 C68_4 1_555 1_555
C69_4 C68_4 1_555 1_555
C70_4 C69_4 1_555 1_555
H41_4 C70_4 1_555 1_555
C71_4 C66_4 1_555 1_555
H42_4 C71_4 1_555 1_555
C72_4 C30_4 1_555 1_555
C73_4 C32_4 1_555 1_555
H43_4 C73_4 1_555 1_555
C74_4 C34_4 1_555 1_555
H44_4 C74_4 1_555 1_555
C75_4 C37_4 1_555 1_555
C76_4 C75_4 1_555 1_555
C77_4 C76_4 1_555 1_555
H45_4 C77_4 1_555 1_555
C78_4 C77_4 1_555 1_555
H46_4 C78_4 1_555 1_555
C79_4 C78_4 1_555 1_555
C80_4 C79_4 1_555 1_555
H47_4 C80_4 1_555 1_555
C81_4 C76_4 1_555 1_555
H48_4 C81_4 1_555 1_555
C82_4 C79_4 1_555 1_555
O8_4 C44_4 1_555 1_555
C6_4 C7_4 1_555 1_555
C12_4 C13_4 1_555 1_555
C19_4 C20_4 1_555 1_555
C27_4 C28_4 1_555 1_555
C41_4 C44_4 1_555 1_555
C42_4 C43_4 1_555 1_555
C69_4 C72_4 1_555 1_555
C70_4 C71_4 1_555 1_555
C72_4 C73_4 1_555 1_555
C74_4 C75_4 1_555 1_555
C80_4 C81_4 1_555 1_555
H8_8 C14_8 1_555 1_555
H9_8 C14_8 1_555 1_555
Cu5_4 O13_4 1_555 1_555
Cu7_4 O15_4 1_555 1_555
Cu10_4 O17_4 1_555 1_555
Cu13_4 O19_4 1_555 1_555
O13_4 C45_4 1_555 1_555
O15_4 C45_4 1_555 1_555
O17_4 C64_4 1_555 1_555
O19_4 C64_4 1_555 1_555
C45_4 C46_4 1_555 1_555
C46_4 C47_4 1_555 1_555
C47_4 H28_4 1_555 1_555
C48_4 C47_4 1_555 1_555
H29_4 C48_4 1_555 1_555
C49_4 C48_4 1_555 1_555
C50_4 C49_4 1_555 1_555
H30_4 C50_4 1_555 1_555
C51_4 C46_4 1_555 1_555
H31_4 C51_4 1_555 1_555
C52_4 C49_4 1_555 1_555
C53_4 C52_4 1_555 1_555
H32_4 C53_4 1_555 1_555
C54_4 C53_4 1_555 1_555
C55_4 C54_4 1_555 1_555
H33_4 C55_4 1_555 1_555
C56_4 C14_8 1_555 1_555
C57_4 C52_4 1_555 1_555
H34_4 C57_4 1_555 1_555
C58_4 C54_4 1_555 1_555
C59_4 C58_4 1_555 1_555
H35_4 C59_4 1_555 1_555
C60_4 C59_4 1_555 1_555
H36_4 C60_4 1_555 1_555
C61_4 C60_4 1_555 1_555
C62_4 C61_4 1_555 1_555
H37_4 C62_4 1_555 1_555
C63_4 C58_4 1_555 1_555
H38_4 C63_4 1_555 1_555
C64_4 C61_4 1_555 1_555
C50_4 C51_4 1_555 1_555
C55_4 C56_4 1_555 1_555
C56_4 C57_4 1_555 1_555
C62_4 C63_4 1_555 1_555
H8_9 C14_9 1_555 1_555
H9_9 C14_9 1_555 1_555
Cu10_5 O17_5 1_555 1_555
Cu13_5 O19_5 1_555 1_555
O14 C45_5 1_555 1_555
O16 C45_5 1_555 1_555
O17_5 C64_5 1_555 1_555
O19_5 C64_5 1_555 1_555
C45_5 C46_5 1_555 1_555
C46_5 C47_5 1_555 1_555
C47_5 H28_5 1_555 1_555
C48_5 C47_5 1_555 1_555
H29_5 C48_5 1_555 1_555
C49_5 C48_5 1_555 1_555
C50_5 C49_5 1_555 1_555
H30_5 C50_5 1_555 1_555
C51_5 C46_5 1_555 1_555
H31_5 C51_5 1_555 1_555
C52_5 C49_5 1_555 1_555
C53_5 C52_5 1_555 1_555
H32_5 C53_5 1_555 1_555
C54_5 C53_5 1_555 1_555
C55_5 C54_5 1_555 1_555
H33_5 C55_5 1_555 1_555
C56_5 C14_9 1_555 1_555
C57_5 C52_5 1_555 1_555
H34_5 C57_5 1_555 1_555
C58_5 C54_5 1_555 1_555
C59_5 C58_5 1_555 1_555
H35_5 C59_5 1_555 1_555
C60_5 C59_5 1_555 1_555
H36_5 C60_5 1_555 1_555
C61_5 C60_5 1_555 1_555
C62_5 C61_5 1_555 1_555
H37_5 C62_5 1_555 1_555
C63_5 C58_5 1_555 1_555
H38_5 C63_5 1_555 1_555
C64_5 C61_5 1_555 1_555
C50_5 C51_5 1_555 1_555
C55_5 C56_5 1_555 1_555
C56_5 C57_5 1_555 1_555
C62_5 C63_5 1_555 1_555
Cu5 O1_5 1_555 1_555
Cu7 O2_5 1_555 1_555
Cu3_5 O3_5 1_555 1_555
Cu4_5 O4_5 1_555 1_555
O1_5 C1_5 1_555 1_555
O2_5 C1_5 1_555 1_555
O3_5 C21_5 1_555 1_555
O4_5 C21_5 1_555 1_555
O5_5 C22_5 1_555 1_555
O6_5 C22_5 1_555 1_555
O7_5 Cu5 1_555 1_555
O8_5 Cu7 1_555 1_555
O9_5 Cu5 1_555 1_555
O10_5 Cu7 1_555 1_555
O11_5 Cu3_5 1_555 1_555
O12_5 Cu4_5 1_555 1_555
C1_5 C2_5 1_555 1_555
C2_5 C3_5 1_555 1_555
C3_5 H1_5 1_555 1_555
C4_5 C3_5 1_555 1_555
H2_5 C4_5 1_555 1_555
C5_5 C4_5 1_555 1_555
C6_5 C5_5 1_555 1_555
H3_5 C6_5 1_555 1_555
C7_5 C2_5 1_555 1_555
H4_5 C7_5 1_555 1_555
C8_5 C5_5 1_555 1_555
C9_5 C8_5 1_555 1_555
H5_5 C9_5 1_555 1_555
C10_5 C9_5 1_555 1_555
C11_5 C10_5 1_555 1_555
H6_5 C11_5 1_555 1_555
C12_5 C11_5 1_555 1_555
C13_5 C8_5 1_555 1_555
H7_5 C13_5 1_555 1_555
C14_10 C12_5 1_555 1_555
H8_10 C14_10 1_555 1_555
H9_10 C14_10 1_555 1_555
C15_5 C10_5 1_555 1_555
C16_5 C15_5 1_555 1_555
H10_5 C16_5 1_555 1_555
C17_5 C16_5 1_555 1_555
H11_5 C17_5 1_555 1_555
C18_5 C17_5 1_555 1_555
C19_5 C18_5 1_555 1_555
H12_5 C19_5 1_555 1_555
C20_5 C15_5 1_555 1_555
H13_5 C20_5 1_555 1_555
C21_5 C18_5 1_555 1_555
C22_5 C23_5 1_555 1_555
C23_5 C24_5 1_555 1_555
C24_5 H14_5 1_555 1_555
C25_5 C24_5 1_555 1_555
H15_5 C25_5 1_555 1_555
C26_5 C25_5 1_555 1_555
C27_5 C26_5 1_555 1_555
H16_5 C27_5 1_555 1_555
C28_5 C23_5 1_555 1_555
H17_5 C28_5 1_555 1_555
C29_5 C26_5 1_555 1_555
C30_5 C29_5 1_555 1_555
H18_5 C30_5 1_555 1_555
C31_5 C29_5 1_555 1_555
H19_5 C31_5 1_555 1_555
C32_5 C31_5 1_555 1_555
C33_5 C32_5 1_555 1_555
H20_5 C33_5 1_555 1_555
H21_5 C33_5 1_555 1_555
C34_5 C33_5 1_555 1_555
C35_5 C34_5 1_555 1_555
H22_5 C35_5 1_555 1_555
C36_5 C35_5 1_555 1_555
C37_5 C36_5 1_555 1_555
H23_5 C37_5 1_555 1_555
C38_5 C36_5 1_555 1_555
C39_5 C38_5 1_555 1_555
H24_5 C39_5 1_555 1_555
C40_5 C39_5 1_555 1_555
H25_5 C40_5 1_555 1_555
C41_5 C40_5 1_555 1_555
C42_5 C41_5 1_555 1_555
H26_5 C42_5 1_555 1_555
C43_5 C38_5 1_555 1_555
H27_5 C43_5 1_555 1_555
C44_5 O7_5 1_555 1_555
Cu6_5 O27_5 1_555 1_555
Cu8_5 O29_5 1_555 1_555
Cu9_4 O5_5 1_555 1_555
Cu11_5 O21_5 1_555 1_555
Cu12_4 O6_5 1_555 1_555
Cu14_5 O24_5 1_555 1_555
O18_5 Cu3_5 1_555 1_555
O20_5 Cu4_5 1_555 1_555
O21_5 C65_5 1_555 1_555
O22_5 Cu3_5 1_555 1_555
O23_5 Cu3_5 1_555 1_555
O24_5 C65_5 1_555 1_555
O25_5 Cu4_5 1_555 1_555
O26_5 Cu4_5 1_555 1_555
O27_5 C82_5 1_555 1_555
O28_4 Cu5 1_555 1_555
O29_5 C82_5 1_555 1_555
O30_4 Cu7 1_555 1_555
C65_5 C66_5 1_555 1_555
C66_5 C67_5 1_555 1_555
C67_5 H39_5 1_555 1_555
C68_5 C67_5 1_555 1_555
H40_5 C68_5 1_555 1_555
C69_5 C68_5 1_555 1_555
C70_5 C69_5 1_555 1_555
H41_5 C70_5 1_555 1_555
C71_5 C66_5 1_555 1_555
H42_5 C71_5 1_555 1_555
C72_5 C30_5 1_555 1_555
C73_5 C32_5 1_555 1_555
H43_5 C73_5 1_555 1_555
C74_5 C34_5 1_555 1_555
H44_5 C74_5 1_555 1_555
C75_5 C37_5 1_555 1_555
C76_5 C75_5 1_555 1_555
C77_5 C76_5 1_555 1_555
H45_5 C77_5 1_555 1_555
C78_5 C77_5 1_555 1_555
H46_5 C78_5 1_555 1_555
C79_5 C78_5 1_555 1_555
C80_5 C79_5 1_555 1_555
H47_5 C80_5 1_555 1_555
C81_5 C76_5 1_555 1_555
H48_5 C81_5 1_555 1_555
C82_5 C79_5 1_555 1_555
O8_5 C44_5 1_555 1_555
C6_5 C7_5 1_555 1_555
C12_5 C13_5 1_555 1_555
C19_5 C20_5 1_555 1_555
C27_5 C28_5 1_555 1_555
C41_5 C44_5 1_555 1_555
C42_5 C43_5 1_555 1_555
C69_5 C72_5 1_555 1_555
C70_5 C71_5 1_555 1_555
C72_5 C73_5 1_555 1_555
C74_5 C75_5 1_555 1_555
C80_5 C81_5 1_555 1_555
Cu6_4 O1_6 1_555 1_555
Cu8_4 O2_6 1_555 1_555
Cu3_6 O3_6 1_555 1_555
Cu4_6 O4_6 1_555 1_555
O1_6 C1_6 1_555 1_555
O2_6 C1_6 1_555 1_555
O3_6 C21_6 1_555 1_555
O4_6 C21_6 1_555 1_555
O5_6 C22_6 1_555 1_555
O6_6 C22_6 1_555 1_555
O7_6 Cu6_4 1_555 1_555
O8_6 Cu8_4 1_555 1_555
O9_6 Cu6_4 1_555 1_555
O10_6 Cu8_4 1_555 1_555
O11_6 Cu3_6 1_555 1_555
O12_6 Cu4_6 1_555 1_555
C1_6 C2_6 1_555 1_555
C2_6 C3_6 1_555 1_555
C3_6 H1_6 1_555 1_555
C4_6 C3_6 1_555 1_555
H2_6 C4_6 1_555 1_555
C5_6 C4_6 1_555 1_555
C6_6 C5_6 1_555 1_555
H3_6 C6_6 1_555 1_555
C7_6 C2_6 1_555 1_555
H4_6 C7_6 1_555 1_555
C8_6 C5_6 1_555 1_555
C9_6 C8_6 1_555 1_555
H5_6 C9_6 1_555 1_555
C10_6 C9_6 1_555 1_555
C11_6 C10_6 1_555 1_555
H6_6 C11_6 1_555 1_555
C12_6 C11_6 1_555 1_555
C13_6 C8_6 1_555 1_555
H7_6 C13_6 1_555 1_555
C14_11 C12_6 1_555 1_555
H8_11 C14_11 1_555 1_555
H9_11 C14_11 1_555 1_555
C15_6 C10_6 1_555 1_555
C16_6 C15_6 1_555 1_555
H10_6 C16_6 1_555 1_555
C17_6 C16_6 1_555 1_555
H11_6 C17_6 1_555 1_555
C18_6 C17_6 1_555 1_555
C19_6 C18_6 1_555 1_555
H12_6 C19_6 1_555 1_555
C20_6 C15_6 1_555 1_555
H13_6 C20_6 1_555 1_555
C21_6 C18_6 1_555 1_555
C22_6 C23_6 1_555 1_555
C23_6 C24_6 1_555 1_555
C24_6 H14_6 1_555 1_555
C25_6 C24_6 1_555 1_555
H15_6 C25_6 1_555 1_555
C26_6 C25_6 1_555 1_555
C27_6 C26_6 1_555 1_555
H16_6 C27_6 1_555 1_555
C28_6 C23_6 1_555 1_555
H17_6 C28_6 1_555 1_555
C29_6 C26_6 1_555 1_555
C30_6 C29_6 1_555 1_555
H18_6 C30_6 1_555 1_555
C31_6 C29_6 1_555 1_555
H19_6 C31_6 1_555 1_555
C32_6 C31_6 1_555 1_555
C33_6 C32_6 1_555 1_555
H20_6 C33_6 1_555 1_555
H21_6 C33_6 1_555 1_555
C34_6 C33_6 1_555 1_555
C35_6 C34_6 1_555 1_555
H22_6 C35_6 1_555 1_555
C36_6 C35_6 1_555 1_555
C37_6 C36_6 1_555 1_555
H23_6 C37_6 1_555 1_555
C38_6 C36_6 1_555 1_555
C39_6 C38_6 1_555 1_555
H24_6 C39_6 1_555 1_555
C40_6 C39_6 1_555 1_555
H25_6 C40_6 1_555 1_555
C41_6 C40_6 1_555 1_555
C42_6 C41_6 1_555 1_555
H26_6 C42_6 1_555 1_555
C43_6 C38_6 1_555 1_555
H27_6 C43_6 1_555 1_555
C44_6 O7_6 1_555 1_555
Cu6_6 O27_6 1_555 1_555
Cu8_6 O29_6 1_555 1_555
Cu9_5 O5_6 1_555 1_555
Cu11_6 O21_6 1_555 1_555
Cu12_5 O6_6 1_555 1_555
Cu14_6 O24_6 1_555 1_555
O14_5 Cu6_4 1_555 1_555
O16_5 Cu8_4 1_555 1_555
O18_6 Cu3_6 1_555 1_555
O20_6 Cu4_6 1_555 1_555
O21_6 C65_6 1_555 1_555
O22_6 Cu3_6 1_555 1_555
O23_6 Cu3_6 1_555 1_555
O24_6 C65_6 1_555 1_555
O25_6 Cu4_6 1_555 1_555
O26_6 Cu4_6 1_555 1_555
O27_6 C82_6 1_555 1_555
O29_6 C82_6 1_555 1_555
C65_6 C66_6 1_555 1_555
C66_6 C67_6 1_555 1_555
C67_6 H39_6 1_555 1_555
C68_6 C67_6 1_555 1_555
H40_6 C68_6 1_555 1_555
C69_6 C68_6 1_555 1_555
C70_6 C69_6 1_555 1_555
H41_6 C70_6 1_555 1_555
C71_6 C66_6 1_555 1_555
H42_6 C71_6 1_555 1_555
C72_6 C30_6 1_555 1_555
C73_6 C32_6 1_555 1_555
H43_6 C73_6 1_555 1_555
C74_6 C34_6 1_555 1_555
H44_6 C74_6 1_555 1_555
C75_6 C37_6 1_555 1_555
C76_6 C75_6 1_555 1_555
C77_6 C76_6 1_555 1_555
H45_6 C77_6 1_555 1_555
C78_6 C77_6 1_555 1_555
H46_6 C78_6 1_555 1_555
C79_6 C78_6 1_555 1_555
C80_6 C79_6 1_555 1_555
H47_6 C80_6 1_555 1_555
C81_6 C76_6 1_555 1_555
H48_6 C81_6 1_555 1_555
C82_6 C79_6 1_555 1_555
O8_6 C44_6 1_555 1_555
C6_6 C7_6 1_555 1_555
C12_6 C13_6 1_555 1_555
C19_6 C20_6 1_555 1_555
C27_6 C28_6 1_555 1_555
C41_6 C44_6 1_555 1_555
C42_6 C43_6 1_555 1_555
C69_6 C72_6 1_555 1_555
C70_6 C71_6 1_555 1_555
C72_6 C73_6 1_555 1_555
C74_6 C75_6 1_555 1_555
C80_6 C81_6 1_555 1_555
H8_12 C14_12 1_555 1_555
H9_12 C14_12 1_555 1_555
Cu5_5 O13_5 1_555 1_555
Cu7_5 O15_5 1_555 1_555
Cu10_6 O17_6 1_555 1_555
Cu13_6 O19_6 1_555 1_555
O13_5 C45_6 1_555 1_555
O15_5 C45_6 1_555 1_555
O17_6 C64_6 1_555 1_555
O19_6 C64_6 1_555 1_555
C45_6 C46_6 1_555 1_555
C46_6 C47_6 1_555 1_555
C47_6 H28_6 1_555 1_555
C48_6 C47_6 1_555 1_555
H29_6 C48_6 1_555 1_555
C49_6 C48_6 1_555 1_555
C50_6 C49_6 1_555 1_555
H30_6 C50_6 1_555 1_555
C51_6 C46_6 1_555 1_555
H31_6 C51_6 1_555 1_555
C52_6 C49_6 1_555 1_555
C53_6 C52_6 1_555 1_555
H32_6 C53_6 1_555 1_555
C54_6 C53_6 1_555 1_555
C55_6 C54_6 1_555 1_555
H33_6 C55_6 1_555 1_555
C56_6 C14_12 1_555 1_555
C57_6 C52_6 1_555 1_555
H34_6 C57_6 1_555 1_555
C58_6 C54_6 1_555 1_555
C59_6 C58_6 1_555 1_555
H35_6 C59_6 1_555 1_555
C60_6 C59_6 1_555 1_555
H36_6 C60_6 1_555 1_555
C61_6 C60_6 1_555 1_555
C62_6 C61_6 1_555 1_555
H37_6 C62_6 1_555 1_555
C63_6 C58_6 1_555 1_555
H38_6 C63_6 1_555 1_555
C64_6 C61_6 1_555 1_555
C50_6 C51_6 1_555 1_555
C55_6 C56_6 1_555 1_555
C56_6 C57_6 1_555 1_555
C62_6 C63_6 1_555 1_555
H8_13 C14_13 1_555 1_555
H9_13 C14_13 1_555 1_555
Cu6_3 O13_6 1_555 1_555
Cu8_3 O15_6 1_555 1_555
O13_6 C45_7 1_555 1_555
O15_6 C45_7 1_555 1_555
O18 C64_7 1_555 1_555
O20 C64_7 1_555 1_555
C45_7 C46_7 1_555 1_555
C46_7 C47_7 1_555 1_555
C47_7 H28_7 1_555 1_555
C48_7 C47_7 1_555 1_555
H29_7 C48_7 1_555 1_555
C49_7 C48_7 1_555 1_555
C50_7 C49_7 1_555 1_555
H30_7 C50_7 1_555 1_555
C51_7 C46_7 1_555 1_555
H31_7 C51_7 1_555 1_555
C52_7 C49_7 1_555 1_555
C53_7 C52_7 1_555 1_555
H32_7 C53_7 1_555 1_555
C54_7 C53_7 1_555 1_555
C55_7 C54_7 1_555 1_555
H33_7 C55_7 1_555 1_555
C56_7 C14_13 1_555 1_555
C57_7 C52_7 1_555 1_555
H34_7 C57_7 1_555 1_555
C58_7 C54_7 1_555 1_555
C59_7 C58_7 1_555 1_555
H35_7 C59_7 1_555 1_555
C60_7 C59_7 1_555 1_555
H36_7 C60_7 1_555 1_555
C61_7 C60_7 1_555 1_555
C62_7 C61_7 1_555 1_555
H37_7 C62_7 1_555 1_555
C63_7 C58_7 1_555 1_555
H38_7 C63_7 1_555 1_555
C64_7 C61_7 1_555 1_555
C50_7 C51_7 1_555 1_555
C55_7 C56_7 1_555 1_555
C56_7 C57_7 1_555 1_555
C62_7 C63_7 1_555 1_555
Cu6_5 O1_7 1_555 1_555
Cu8_5 O2_7 1_555 1_555
Cu10 O3_7 1_555 1_555
Cu13 O4_7 1_555 1_555
O1_7 C1_7 1_555 1_555
O2_7 C1_7 1_555 1_555
O3_7 C21_7 1_555 1_555
O4_7 C21_7 1_555 1_555
O5_7 C22_7 1_555 1_555
O6_7 C22_7 1_555 1_555
O7_7 Cu6_5 1_555 1_555
O8_7 Cu8_5 1_555 1_555
O9_7 Cu6_5 1_555 1_555
O10_7 Cu8_5 1_555 1_555
O11_7 Cu10 1_555 1_555
O12_7 Cu13 1_555 1_555
C1_7 C2_7 1_555 1_555
C2_7 C3_7 1_555 1_555
C3_7 H1_7 1_555 1_555
C4_7 C3_7 1_555 1_555
H2_7 C4_7 1_555 1_555
C5_7 C4_7 1_555 1_555
C6_7 C5_7 1_555 1_555
H3_7 C6_7 1_555 1_555
C7_7 C2_7 1_555 1_555
H4_7 C7_7 1_555 1_555
C8_7 C5_7 1_555 1_555
C9_7 C8_7 1_555 1_555
H5_7 C9_7 1_555 1_555
C10_7 C9_7 1_555 1_555
C11_7 C10_7 1_555 1_555
H6_7 C11_7 1_555 1_555
C12_7 C11_7 1_555 1_555
C13_7 C8_7 1_555 1_555
H7_7 C13_7 1_555 1_555
C14_14 C12_7 1_555 1_555
H8_14 C14_14 1_555 1_555
H9_14 C14_14 1_555 1_555
C15_7 C10_7 1_555 1_555
C16_7 C15_7 1_555 1_555
H10_7 C16_7 1_555 1_555
C17_7 C16_7 1_555 1_555
H11_7 C17_7 1_555 1_555
C18_7 C17_7 1_555 1_555
C19_7 C18_7 1_555 1_555
H12_7 C19_7 1_555 1_555
C20_7 C15_7 1_555 1_555
H13_7 C20_7 1_555 1_555
C21_7 C18_7 1_555 1_555
C22_7 C23_7 1_555 1_555
C23_7 C24_7 1_555 1_555
C24_7 H14_7 1_555 1_555
C25_7 C24_7 1_555 1_555
H15_7 C25_7 1_555 1_555
C26_7 C25_7 1_555 1_555
C27_7 C26_7 1_555 1_555
H16_7 C27_7 1_555 1_555
C28_7 C23_7 1_555 1_555
H17_7 C28_7 1_555 1_555
C29_7 C26_7 1_555 1_555
C30_7 C29_7 1_555 1_555
H18_7 C30_7 1_555 1_555
C31_7 C29_7 1_555 1_555
H19_7 C31_7 1_555 1_555
C32_7 C31_7 1_555 1_555
C33_7 C32_7 1_555 1_555
H20_7 C33_7 1_555 1_555
H21_7 C33_7 1_555 1_555
C34_7 C33_7 1_555 1_555
C35_7 C34_7 1_555 1_555
H22_7 C35_7 1_555 1_555
C36_7 C35_7 1_555 1_555
C37_7 C36_7 1_555 1_555
H23_7 C37_7 1_555 1_555
C38_7 C36_7 1_555 1_555
C39_7 C38_7 1_555 1_555
H24_7 C39_7 1_555 1_555
C40_7 C39_7 1_555 1_555
H25_7 C40_7 1_555 1_555
C41_7 C40_7 1_555 1_555
C42_7 C41_7 1_555 1_555
H26_7 C42_7 1_555 1_555
C43_7 C38_7 1_555 1_555
H27_7 C43_7 1_555 1_555
C44_7 O7_7 1_555 1_555
Cu5_3 O27_7 1_555 1_555
Cu7_3 O29_7 1_555 1_555
Cu11_6 O5_7 1_555 1_555
Cu11_7 O21_7 1_555 1_555
Cu14_6 O6_7 1_555 1_555
Cu14_7 O24_7 1_555 1_555
O14_6 Cu6_5 1_555 1_555
O16_6 Cu8_5 1_555 1_555
O21_7 C65_7 1_555 1_555
O22_7 Cu10 1_555 1_555
O23_7 Cu10 1_555 1_555
O24_7 C65_7 1_555 1_555
O25_7 Cu13 1_555 1_555
O26_7 Cu13 1_555 1_555
O27_7 C82_7 1_555 1_555
O29_7 C82_7 1_555 1_555
C65_7 C66_7 1_555 1_555
C66_7 C67_7 1_555 1_555
C67_7 H39_7 1_555 1_555
C68_7 C67_7 1_555 1_555
H40_7 C68_7 1_555 1_555
C69_7 C68_7 1_555 1_555
C70_7 C69_7 1_555 1_555
H41_7 C70_7 1_555 1_555
C71_7 C66_7 1_555 1_555
H42_7 C71_7 1_555 1_555
C72_7 C30_7 1_555 1_555
C73_7 C32_7 1_555 1_555
H43_7 C73_7 1_555 1_555
C74_7 C34_7 1_555 1_555
H44_7 C74_7 1_555 1_555
C75_7 C37_7 1_555 1_555
C76_7 C75_7 1_555 1_555
C77_7 C76_7 1_555 1_555
H45_7 C77_7 1_555 1_555
C78_7 C77_7 1_555 1_555
H46_7 C78_7 1_555 1_555
C79_7 C78_7 1_555 1_555
C80_7 C79_7 1_555 1_555
H47_7 C80_7 1_555 1_555
C81_7 C76_7 1_555 1_555
H48_7 C81_7 1_555 1_555
C82_7 C79_7 1_555 1_555
O8_7 C44_7 1_555 1_555
C6_7 C7_7 1_555 1_555
C12_7 C13_7 1_555 1_555
C19_7 C20_7 1_555 1_555
C27_7 C28_7 1_555 1_555
C41_7 C44_7 1_555 1_555
C42_7 C43_7 1_555 1_555
C69_7 C72_7 1_555 1_555
C70_7 C71_7 1_555 1_555
C72_7 C73_7 1_555 1_555
C74_7 C75_7 1_555 1_555
C80_7 C81_7 1_555 1_555
H8_15 C14_15 1_555 1_555
H9_15 C14_15 1_555 1_555
O14_2 C45_8 1_555 1_555
O16_2 C45_8 1_555 1_555
O18_4 C64_8 1_555 1_555
O20_4 C64_8 1_555 1_555
C45_8 C46_8 1_555 1_555
C46_8 C47_8 1_555 1_555
C47_8 H28_8 1_555 1_555
C48_8 C47_8 1_555 1_555
H29_8 C48_8 1_555 1_555
C49_8 C48_8 1_555 1_555
C50_8 C49_8 1_555 1_555
H30_8 C50_8 1_555 1_555
C51_8 C46_8 1_555 1_555
H31_8 C51_8 1_555 1_555
C52_8 C49_8 1_555 1_555
C53_8 C52_8 1_555 1_555
H32_8 C53_8 1_555 1_555
C54_8 C53_8 1_555 1_555
C55_8 C54_8 1_555 1_555
H33_8 C55_8 1_555 1_555
C56_8 C14_15 1_555 1_555
C57_8 C52_8 1_555 1_555
H34_8 C57_8 1_555 1_555
C58_8 C54_8 1_555 1_555
C59_8 C58_8 1_555 1_555
H35_8 C59_8 1_555 1_555
C60_8 C59_8 1_555 1_555
H36_8 C60_8 1_555 1_555
C61_8 C60_8 1_555 1_555
C62_8 C61_8 1_555 1_555
H37_8 C62_8 1_555 1_555
C63_8 C58_8 1_555 1_555
H38_8 C63_8 1_555 1_555
C64_8 C61_8 1_555 1_555
C50_8 C51_8 1_555 1_555
C55_8 C56_8 1_555 1_555
C56_8 C57_8 1_555 1_555
C62_8 C63_8 1_555 1_555
Cu5_2 O1_8 1_555 1_555
Cu7_2 O2_8 1_555 1_555
Cu10_4 O3_8 1_555 1_555
Cu13_4 O4_8 1_555 1_555
O1_8 C1_8 1_555 1_555
O2_8 C1_8 1_555 1_555
O3_8 C21_8 1_555 1_555
O4_8 C21_8 1_555 1_555
O5_8 C22_8 1_555 1_555
O6_8 C22_8 1_555 1_555
O7_8 Cu5_2 1_555 1_555
O8_8 Cu7_2 1_555 1_555
O9_8 Cu5_2 1_555 1_555
O10_8 Cu7_2 1_555 1_555
O11_8 Cu10_4 1_555 1_555
O12_8 Cu13_4 1_555 1_555
C1_8 C2_8 1_555 1_555
C2_8 C3_8 1_555 1_555
C3_8 H1_8 1_555 1_555
C4_8 C3_8 1_555 1_555
H2_8 C4_8 1_555 1_555
C5_8 C4_8 1_555 1_555
C6_8 C5_8 1_555 1_555
H3_8 C6_8 1_555 1_555
C7_8 C2_8 1_555 1_555
H4_8 C7_8 1_555 1_555
C8_8 C5_8 1_555 1_555
C9_8 C8_8 1_555 1_555
H5_8 C9_8 1_555 1_555
C10_8 C9_8 1_555 1_555
C11_8 C10_8 1_555 1_555
H6_8 C11_8 1_555 1_555
C12_8 C11_8 1_555 1_555
C13_8 C8_8 1_555 1_555
H7_8 C13_8 1_555 1_555
C14_16 C12_8 1_555 1_555
H8_16 C14_16 1_555 1_555
H9_16 C14_16 1_555 1_555
C15_8 C10_8 1_555 1_555
C16_8 C15_8 1_555 1_555
H10_8 C16_8 1_555 1_555
C17_8 C16_8 1_555 1_555
H11_8 C17_8 1_555 1_555
C18_8 C17_8 1_555 1_555
C19_8 C18_8 1_555 1_555
H12_8 C19_8 1_555 1_555
C20_8 C15_8 1_555 1_555
H13_8 C20_8 1_555 1_555
C21_8 C18_8 1_555 1_555
C22_8 C23_8 1_555 1_555
C23_8 C24_8 1_555 1_555
C24_8 H14_8 1_555 1_555
C25_8 C24_8 1_555 1_555
H15_8 C25_8 1_555 1_555
C26_8 C25_8 1_555 1_555
C27_8 C26_8 1_555 1_555
H16_8 C27_8 1_555 1_555
C28_8 C23_8 1_555 1_555
H17_8 C28_8 1_555 1_555
C29_8 C26_8 1_555 1_555
C30_8 C29_8 1_555 1_555
H18_8 C30_8 1_555 1_555
C31_8 C29_8 1_555 1_555
H19_8 C31_8 1_555 1_555
C32_8 C31_8 1_555 1_555
C33_8 C32_8 1_555 1_555
H20_8 C33_8 1_555 1_555
H21_8 C33_8 1_555 1_555
C34_8 C33_8 1_555 1_555
C35_8 C34_8 1_555 1_555
H22_8 C35_8 1_555 1_555
C36_8 C35_8 1_555 1_555
C37_8 C36_8 1_555 1_555
H23_8 C37_8 1_555 1_555
C38_8 C36_8 1_555 1_555
C39_8 C38_8 1_555 1_555
H24_8 C39_8 1_555 1_555
C40_8 C39_8 1_555 1_555
H25_8 C40_8 1_555 1_555
C41_8 C40_8 1_555 1_555
C42_8 C41_8 1_555 1_555
H26_8 C42_8 1_555 1_555
C43_8 C38_8 1_555 1_555
H27_8 C43_8 1_555 1_555
C44_8 O7_8 1_555 1_555
Cu6_7 O27_8 1_555 1_555
Cu8_7 O29_8 1_555 1_555
Cu9_6 O5_8 1_555 1_555
Cu11_8 O21_8 1_555 1_555
Cu12_6 O6_8 1_555 1_555
Cu14_8 O24_8 1_555 1_555
O21_8 C65_8 1_555 1_555
O22_8 Cu10_4 1_555 1_555
O23_8 Cu10_4 1_555 1_555
O24_8 C65_8 1_555 1_555
O25_8 Cu13_4 1_555 1_555
O26_8 Cu13_4 1_555 1_555
O27_8 C82_8 1_555 1_555
O28_5 Cu5_2 1_555 1_555
O29_8 C82_8 1_555 1_555
O30_5 Cu7_2 1_555 1_555
C65_8 C66_8 1_555 1_555
C66_8 C67_8 1_555 1_555
C67_8 H39_8 1_555 1_555
C68_8 C67_8 1_555 1_555
H40_8 C68_8 1_555 1_555
C69_8 C68_8 1_555 1_555
C70_8 C69_8 1_555 1_555
H41_8 C70_8 1_555 1_555
C71_8 C66_8 1_555 1_555
H42_8 C71_8 1_555 1_555
C72_8 C30_8 1_555 1_555
C73_8 C32_8 1_555 1_555
H43_8 C73_8 1_555 1_555
C74_8 C34_8 1_555 1_555
H44_8 C74_8 1_555 1_555
C75_8 C37_8 1_555 1_555
C76_8 C75_8 1_555 1_555
C77_8 C76_8 1_555 1_555
H45_8 C77_8 1_555 1_555
C78_8 C77_8 1_555 1_555
H46_8 C78_8 1_555 1_555
C79_8 C78_8 1_555 1_555
C80_8 C79_8 1_555 1_555
H47_8 C80_8 1_555 1_555
C81_8 C76_8 1_555 1_555
H48_8 C81_8 1_555 1_555
C82_8 C79_8 1_555 1_555
O8_8 C44_8 1_555 1_555
C6_8 C7_8 1_555 1_555
C12_8 C13_8 1_555 1_555
C19_8 C20_8 1_555 1_555
C27_8 C28_8 1_555 1_555
C41_8 C44_8 1_555 1_555
C42_8 C43_8 1_555 1_555
C69_8 C72_8 1_555 1_555
C70_8 C71_8 1_555 1_555
C72_8 C73_8 1_555 1_555
C74_8 C75_8 1_555 1_555
C80_8 C81_8 1_555 1_555
H8_17 C14_17 1_555 1_555
H9_17 C14_17 1_555 1_555
Cu10_7 O17_7 1_555 1_555
Cu13_7 O19_7 1_555 1_555
O14_3 C45_9 1_555 1_555
O16_3 C45_9 1_555 1_555
O17_7 C64_9 1_555 1_555
O19_7 C64_9 1_555 1_555
C45_9 C46_9 1_555 1_555
C46_9 C47_9 1_555 1_555
C47_9 H28_9 1_555 1_555
C48_9 C47_9 1_555 1_555
H29_9 C48_9 1_555 1_555
C49_9 C48_9 1_555 1_555
C50_9 C49_9 1_555 1_555
H30_9 C50_9 1_555 1_555
C51_9 C46_9 1_555 1_555
H31_9 C51_9 1_555 1_555
C52_9 C49_9 1_555 1_555
C53_9 C52_9 1_555 1_555
H32_9 C53_9 1_555 1_555
C54_9 C53_9 1_555 1_555
C55_9 C54_9 1_555 1_555
H33_9 C55_9 1_555 1_555
C56_9 C14_17 1_555 1_555
C57_9 C52_9 1_555 1_555
H34_9 C57_9 1_555 1_555
C58_9 C54_9 1_555 1_555
C59_9 C58_9 1_555 1_555
H35_9 C59_9 1_555 1_555
C60_9 C59_9 1_555 1_555
H36_9 C60_9 1_555 1_555
C61_9 C60_9 1_555 1_555
C62_9 C61_9 1_555 1_555
H37_9 C62_9 1_555 1_555
C63_9 C58_9 1_555 1_555
H38_9 C63_9 1_555 1_555
C64_9 C61_9 1_555 1_555
C50_9 C51_9 1_555 1_555
C55_9 C56_9 1_555 1_555
C56_9 C57_9 1_555 1_555
C62_9 C63_9 1_555 1_555
Cu5_3 O1_9 1_555 1_555
Cu7_3 O2_9 1_555 1_555
Cu3_7 O3_9 1_555 1_555
Cu4_7 O4_9 1_555 1_555
O1_9 C1_9 1_555 1_555
O2_9 C1_9 1_555 1_555
O3_9 C21_9 1_555 1_555
O4_9 C21_9 1_555 1_555
O5_9 C22_9 1_555 1_555
O6_9 C22_9 1_555 1_555
O7_9 Cu5_3 1_555 1_555
O8_9 Cu7_3 1_555 1_555
O9_9 Cu5_3 1_555 1_555
O10_9 Cu7_3 1_555 1_555
O11_9 Cu3_7 1_555 1_555
O12_9 Cu4_7 1_555 1_555
C1_9 C2_9 1_555 1_555
C2_9 C3_9 1_555 1_555
C3_9 H1_9 1_555 1_555
C4_9 C3_9 1_555 1_555
H2_9 C4_9 1_555 1_555
C5_9 C4_9 1_555 1_555
C6_9 C5_9 1_555 1_555
H3_9 C6_9 1_555 1_555
C7_9 C2_9 1_555 1_555
H4_9 C7_9 1_555 1_555
C8_9 C5_9 1_555 1_555
C9_9 C8_9 1_555 1_555
H5_9 C9_9 1_555 1_555
C10_9 C9_9 1_555 1_555
C11_9 C10_9 1_555 1_555
H6_9 C11_9 1_555 1_555
C12_9 C11_9 1_555 1_555
C13_9 C8_9 1_555 1_555
H7_9 C13_9 1_555 1_555
C14_18 C12_9 1_555 1_555
H8_18 C14_18 1_555 1_555
H9_18 C14_18 1_555 1_555
C15_9 C10_9 1_555 1_555
C16_9 C15_9 1_555 1_555
H10_9 C16_9 1_555 1_555
C17_9 C16_9 1_555 1_555
H11_9 C17_9 1_555 1_555
C18_9 C17_9 1_555 1_555
C19_9 C18_9 1_555 1_555
H12_9 C19_9 1_555 1_555
C20_9 C15_9 1_555 1_555
H13_9 C20_9 1_555 1_555
C21_9 C18_9 1_555 1_555
C22_9 C23_9 1_555 1_555
C23_9 C24_9 1_555 1_555
C24_9 H14_9 1_555 1_555
C25_9 C24_9 1_555 1_555
H15_9 C25_9 1_555 1_555
C26_9 C25_9 1_555 1_555
C27_9 C26_9 1_555 1_555
H16_9 C27_9 1_555 1_555
C28_9 C23_9 1_555 1_555
H17_9 C28_9 1_555 1_555
C29_9 C26_9 1_555 1_555
C30_9 C29_9 1_555 1_555
H18_9 C30_9 1_555 1_555
C31_9 C29_9 1_555 1_555
H19_9 C31_9 1_555 1_555
C32_9 C31_9 1_555 1_555
C33_9 C32_9 1_555 1_555
H20_9 C33_9 1_555 1_555
H21_9 C33_9 1_555 1_555
C34_9 C33_9 1_555 1_555
C35_9 C34_9 1_555 1_555
H22_9 C35_9 1_555 1_555
C36_9 C35_9 1_555 1_555
C37_9 C36_9 1_555 1_555
H23_9 C37_9 1_555 1_555
C38_9 C36_9 1_555 1_555
C39_9 C38_9 1_555 1_555
H24_9 C39_9 1_555 1_555
C40_9 C39_9 1_555 1_555
H25_9 C40_9 1_555 1_555
C41_9 C40_9 1_555 1_555
C42_9 C41_9 1_555 1_555
H26_9 C42_9 1_555 1_555
C43_9 C38_9 1_555 1_555
H27_9 C43_9 1_555 1_555
C44_9 O7_9 1_555 1_555
Cu6_8 O27_9 1_555 1_555
Cu8_8 O29_9 1_555 1_555
Cu9_7 O5_9 1_555 1_555
Cu11_9 O21_9 1_555 1_555
Cu12_7 O6_9 1_555 1_555
Cu14_9 O24_9 1_555 1_555
O18_7 Cu3_7 1_555 1_555
O20_7 Cu4_7 1_555 1_555
O21_9 C65_9 1_555 1_555
O22_9 Cu3_7 1_555 1_555
O23_9 Cu3_7 1_555 1_555
O24_9 C65_9 1_555 1_555
O25_9 Cu4_7 1_555 1_555
O26_9 Cu4_7 1_555 1_555
O27_9 C82_9 1_555 1_555
O29_9 C82_9 1_555 1_555
C65_9 C66_9 1_555 1_555
C66_9 C67_9 1_555 1_555
C67_9 H39_9 1_555 1_555
C68_9 C67_9 1_555 1_555
H40_9 C68_9 1_555 1_555
C69_9 C68_9 1_555 1_555
C70_9 C69_9 1_555 1_555
H41_9 C70_9 1_555 1_555
C71_9 C66_9 1_555 1_555
H42_9 C71_9 1_555 1_555
C72_9 C30_9 1_555 1_555
C73_9 C32_9 1_555 1_555
H43_9 C73_9 1_555 1_555
C74_9 C34_9 1_555 1_555
H44_9 C74_9 1_555 1_555
C75_9 C37_9 1_555 1_555
C76_9 C75_9 1_555 1_555
C77_9 C76_9 1_555 1_555
H45_9 C77_9 1_555 1_555
C78_9 C77_9 1_555 1_555
H46_9 C78_9 1_555 1_555
C79_9 C78_9 1_555 1_555
C80_9 C79_9 1_555 1_555
H47_9 C80_9 1_555 1_555
C81_9 C76_9 1_555 1_555
H48_9 C81_9 1_555 1_555
C82_9 C79_9 1_555 1_555
O8_9 C44_9 1_555 1_555
C6_9 C7_9 1_555 1_555
C12_9 C13_9 1_555 1_555
C19_9 C20_9 1_555 1_555
C27_9 C28_9 1_555 1_555
C41_9 C44_9 1_555 1_555
C42_9 C43_9 1_555 1_555
C69_9 C72_9 1_555 1_555
C70_9 C71_9 1_555 1_555
C72_9 C73_9 1_555 1_555
C74_9 C75_9 1_555 1_555
C80_9 C81_9 1_555 1_555
H8_19 C14_19 1_555 1_555
H9_19 C14_19 1_555 1_555
Cu6_6 O13_7 1_555 1_555
Cu8_6 O15_7 1_555 1_555
O13_7 C45_10 1_555 1_555
O15_7 C45_10 1_555 1_555
O18_2 C64_10 1_555 1_555
O20_2 C64_10 1_555 1_555
C45_10 C46_10 1_555 1_555
C46_10 C47_10 1_555 1_555
C47_10 H28_10 1_555 1_555
C48_10 C47_10 1_555 1_555
H29_10 C48_10 1_555 1_555
C49_10 C48_10 1_555 1_555
C50_10 C49_10 1_555 1_555
H30_10 C50_10 1_555 1_555
C51_10 C46_10 1_555 1_555
H31_10 C51_10 1_555 1_555
C52_10 C49_10 1_555 1_555
C53_10 C52_10 1_555 1_555
H32_10 C53_10 1_555 1_555
C54_10 C53_10 1_555 1_555
C55_10 C54_10 1_555 1_555
H33_10 C55_10 1_555 1_555
C56_10 C14_19 1_555 1_555
C57_10 C52_10 1_555 1_555
H34_10 C57_10 1_555 1_555
C58_10 C54_10 1_555 1_555
C59_10 C58_10 1_555 1_555
H35_10 C59_10 1_555 1_555
C60_10 C59_10 1_555 1_555
H36_10 C60_10 1_555 1_555
C61_10 C60_10 1_555 1_555
C62_10 C61_10 1_555 1_555
H37_10 C62_10 1_555 1_555
C63_10 C58_10 1_555 1_555
H38_10 C63_10 1_555 1_555
C64_10 C61_10 1_555 1_555
C50_10 C51_10 1_555 1_555
C55_10 C56_10 1_555 1_555
C56_10 C57_10 1_555 1_555
C62_10 C63_10 1_555 1_555
Cu6_7 O1_10 1_555 1_555
Cu8_7 O2_10 1_555 1_555
Cu10_2 O3_10 1_555 1_555
Cu13_2 O4_10 1_555 1_555
O1_10 C1_10 1_555 1_555
O2_10 C1_10 1_555 1_555
O3_10 C21_10 1_555 1_555
O4_10 C21_10 1_555 1_555
O5_10 C22_10 1_555 1_555
O6_10 C22_10 1_555 1_555
O7_10 Cu6_7 1_555 1_555
O8_10 Cu8_7 1_555 1_555
O9_10 Cu6_7 1_555 1_555
O10_10 Cu8_7 1_555 1_555
O11_10 Cu10_2 1_555 1_555
O12_10 Cu13_2 1_555 1_555
C1_10 C2_10 1_555 1_555
C2_10 C3_10 1_555 1_555
C3_10 H1_10 1_555 1_555
C4_10 C3_10 1_555 1_555
H2_10 C4_10 1_555 1_555
C5_10 C4_10 1_555 1_555
C6_10 C5_10 1_555 1_555
H3_10 C6_10 1_555 1_555
C7_10 C2_10 1_555 1_555
H4_10 C7_10 1_555 1_555
C8_10 C5_10 1_555 1_555
C9_10 C8_10 1_555 1_555
H5_10 C9_10 1_555 1_555
C10_10 C9_10 1_555 1_555
C11_10 C10_10 1_555 1_555
H6_10 C11_10 1_555 1_555
C12_10 C11_10 1_555 1_555
C13_10 C8_10 1_555 1_555
H7_10 C13_10 1_555 1_555
C14_20 C12_10 1_555 1_555
H8_20 C14_20 1_555 1_555
H9_20 C14_20 1_555 1_555
C15_10 C10_10 1_555 1_555
C16_10 C15_10 1_555 1_555
H10_10 C16_10 1_555 1_555
C17_10 C16_10 1_555 1_555
H11_10 C17_10 1_555 1_555
C18_10 C17_10 1_555 1_555
C19_10 C18_10 1_555 1_555
H12_10 C19_10 1_555 1_555
C20_10 C15_10 1_555 1_555
H13_10 C20_10 1_555 1_555
C21_10 C18_10 1_555 1_555
C22_10 C23_10 1_555 1_555
C23_10 C24_10 1_555 1_555
C24_10 H14_10 1_555 1_555
C25_10 C24_10 1_555 1_555
H15_10 C25_10 1_555 1_555
C26_10 C25_10 1_555 1_555
C27_10 C26_10 1_555 1_555
H16_10 C27_10 1_555 1_555
C28_10 C23_10 1_555 1_555
H17_10 C28_10 1_555 1_555
C29_10 C26_10 1_555 1_555
C30_10 C29_10 1_555 1_555
H18_10 C30_10 1_555 1_555
C31_10 C29_10 1_555 1_555
H19_10 C31_10 1_555 1_555
C32_10 C31_10 1_555 1_555
C33_10 C32_10 1_555 1_555
H20_10 C33_10 1_555 1_555
H21_10 C33_10 1_555 1_555
C34_10 C33_10 1_555 1_555
C35_10 C34_10 1_555 1_555
H22_10 C35_10 1_555 1_555
C36_10 C35_10 1_555 1_555
C37_10 C36_10 1_555 1_555
H23_10 C37_10 1_555 1_555
C38_10 C36_10 1_555 1_555
C39_10 C38_10 1_555 1_555
H24_10 C39_10 1_555 1_555
C40_10 C39_10 1_555 1_555
H25_10 C40_10 1_555 1_555
C41_10 C40_10 1_555 1_555
C42_10 C41_10 1_555 1_555
H26_10 C42_10 1_555 1_555
C43_10 C38_10 1_555 1_555
H27_10 C43_10 1_555 1_555
C44_10 O7_10 1_555 1_555
Cu5_5 O27_10 1_555 1_555
Cu7_5 O29_10 1_555 1_555
Cu11_9 O5_10 1_555 1_555
Cu11_10 O21_10 1_555 1_555
Cu14_9 O6_10 1_555 1_555
Cu14_10 O24_10 1_555 1_555
O14_7 Cu6_7 1_555 1_555
O16_7 Cu8_7 1_555 1_555
O21_10 C65_10 1_555 1_555
O22_10 Cu10_2 1_555 1_555
O23_10 Cu10_2 1_555 1_555
O24_10 C65_10 1_555 1_555
O25_10 Cu13_2 1_555 1_555
O26_10 Cu13_2 1_555 1_555
O27_10 C82_10 1_555 1_555
O29_10 C82_10 1_555 1_555
C65_10 C66_10 1_555 1_555
C66_10 C67_10 1_555 1_555
C67_10 H39_10 1_555 1_555
C68_10 C67_10 1_555 1_555
H40_10 C68_10 1_555 1_555
C69_10 C68_10 1_555 1_555
C70_10 C69_10 1_555 1_555
H41_10 C70_10 1_555 1_555
C71_10 C66_10 1_555 1_555
H42_10 C71_10 1_555 1_555
C72_10 C30_10 1_555 1_555
C73_10 C32_10 1_555 1_555
H43_10 C73_10 1_555 1_555
C74_10 C34_10 1_555 1_555
H44_10 C74_10 1_555 1_555
C75_10 C37_10 1_555 1_555
C76_10 C75_10 1_555 1_555
C77_10 C76_10 1_555 1_555
H45_10 C77_10 1_555 1_555
C78_10 C77_10 1_555 1_555
H46_10 C78_10 1_555 1_555
C79_10 C78_10 1_555 1_555
C80_10 C79_10 1_555 1_555
H47_10 C80_10 1_555 1_555
C81_10 C76_10 1_555 1_555
H48_10 C81_10 1_555 1_555
C82_10 C79_10 1_555 1_555
O8_10 C44_10 1_555 1_555
C6_10 C7_10 1_555 1_555
C12_10 C13_10 1_555 1_555
C19_10 C20_10 1_555 1_555
C27_10 C28_10 1_555 1_555
C41_10 C44_10 1_555 1_555
C42_10 C43_10 1_555 1_555
C69_10 C72_10 1_555 1_555
C70_10 C71_10 1_555 1_555
C72_10 C73_10 1_555 1_555
C74_10 C75_10 1_555 1_555
C80_10 C81_10 1_555 1_555
H8_21 C14_21 1_555 1_555
H9_21 C14_21 1_555 1_555
Cu10_8 O17_8 1_555 1_555
Cu13_8 O19_8 1_555 1_555
O14_5 C45_11 1_555 1_555
O16_5 C45_11 1_555 1_555
O17_8 C64_11 1_555 1_555
O19_8 C64_11 1_555 1_555
C45_11 C46_11 1_555 1_555
C46_11 C47_11 1_555 1_555
C47_11 H28_11 1_555 1_555
C48_11 C47_11 1_555 1_555
H29_11 C48_11 1_555 1_555
C49_11 C48_11 1_555 1_555
C50_11 C49_11 1_555 1_555
H30_11 C50_11 1_555 1_555
C51_11 C46_11 1_555 1_555
H31_11 C51_11 1_555 1_555
C52_11 C49_11 1_555 1_555
C53_11 C52_11 1_555 1_555
H32_11 C53_11 1_555 1_555
C54_11 C53_11 1_555 1_555
C55_11 C54_11 1_555 1_555
H33_11 C55_11 1_555 1_555
C56_11 C14_21 1_555 1_555
C57_11 C52_11 1_555 1_555
H34_11 C57_11 1_555 1_555
C58_11 C54_11 1_555 1_555
C59_11 C58_11 1_555 1_555
H35_11 C59_11 1_555 1_555
C60_11 C59_11 1_555 1_555
H36_11 C60_11 1_555 1_555
C61_11 C60_11 1_555 1_555
C62_11 C61_11 1_555 1_555
H37_11 C62_11 1_555 1_555
C63_11 C58_11 1_555 1_555
H38_11 C63_11 1_555 1_555
C64_11 C61_11 1_555 1_555
C50_11 C51_11 1_555 1_555
C55_11 C56_11 1_555 1_555
C56_11 C57_11 1_555 1_555
C62_11 C63_11 1_555 1_555
Cu5_5 O1_11 1_555 1_555
Cu7_5 O2_11 1_555 1_555
Cu3_8 O3_11 1_555 1_555
Cu4_8 O4_11 1_555 1_555
O1_11 C1_11 1_555 1_555
O2_11 C1_11 1_555 1_555
O3_11 C21_11 1_555 1_555
O4_11 C21_11 1_555 1_555
O5_11 C22_11 1_555 1_555
O6_11 C22_11 1_555 1_555
O7_11 Cu5_5 1_555 1_555
O8_11 Cu7_5 1_555 1_555
O9_11 Cu5_5 1_555 1_555
O10_11 Cu7_5 1_555 1_555
O11_11 Cu3_8 1_555 1_555
O12_11 Cu4_8 1_555 1_555
C1_11 C2_11 1_555 1_555
C2_11 C3_11 1_555 1_555
C3_11 H1_11 1_555 1_555
C4_11 C3_11 1_555 1_555
H2_11 C4_11 1_555 1_555
C5_11 C4_11 1_555 1_555
C6_11 C5_11 1_555 1_555
H3_11 C6_11 1_555 1_555
C7_11 C2_11 1_555 1_555
H4_11 C7_11 1_555 1_555
C8_11 C5_11 1_555 1_555
C9_11 C8_11 1_555 1_555
H5_11 C9_11 1_555 1_555
C10_11 C9_11 1_555 1_555
C11_11 C10_11 1_555 1_555
H6_11 C11_11 1_555 1_555
C12_11 C11_11 1_555 1_555
C13_11 C8_11 1_555 1_555
H7_11 C13_11 1_555 1_555
C14_22 C12_11 1_555 1_555
H8_22 C14_22 1_555 1_555
H9_22 C14_22 1_555 1_555
C15_11 C10_11 1_555 1_555
C16_11 C15_11 1_555 1_555
H10_11 C16_11 1_555 1_555
C17_11 C16_11 1_555 1_555
H11_11 C17_11 1_555 1_555
C18_11 C17_11 1_555 1_555
C19_11 C18_11 1_555 1_555
H12_11 C19_11 1_555 1_555
C20_11 C15_11 1_555 1_555
H13_11 C20_11 1_555 1_555
C21_11 C18_11 1_555 1_555
C22_11 C23_11 1_555 1_555
C23_11 C24_11 1_555 1_555
C24_11 H14_11 1_555 1_555
C25_11 C24_11 1_555 1_555
H15_11 C25_11 1_555 1_555
C26_11 C25_11 1_555 1_555
C27_11 C26_11 1_555 1_555
H16_11 C27_11 1_555 1_555
C28_11 C23_11 1_555 1_555
H17_11 C28_11 1_555 1_555
C29_11 C26_11 1_555 1_555
C30_11 C29_11 1_555 1_555
H18_11 C30_11 1_555 1_555
C31_11 C29_11 1_555 1_555
H19_11 C31_11 1_555 1_555
C32_11 C31_11 1_555 1_555
C33_11 C32_11 1_555 1_555
H20_11 C33_11 1_555 1_555
H21_11 C33_11 1_555 1_555
C34_11 C33_11 1_555 1_555
C35_11 C34_11 1_555 1_555
H22_11 C35_11 1_555 1_555
C36_11 C35_11 1_555 1_555
C37_11 C36_11 1_555 1_555
H23_11 C37_11 1_555 1_555
C38_11 C36_11 1_555 1_555
C39_11 C38_11 1_555 1_555
H24_11 C39_11 1_555 1_555
C40_11 C39_11 1_555 1_555
H25_11 C40_11 1_555 1_555
C41_11 C40_11 1_555 1_555
C42_11 C41_11 1_555 1_555
H26_11 C42_11 1_555 1_555
C43_11 C38_11 1_555 1_555
H27_11 C43_11 1_555 1_555
C44_11 O7_11 1_555 1_555
Cu5_4 O27_11 1_555 1_555
Cu7_4 O29_11 1_555 1_555
Cu9_8 O5_11 1_555 1_555
Cu11_11 O21_11 1_555 1_555
Cu12_8 O6_11 1_555 1_555
Cu14_11 O24_11 1_555 1_555
O18_8 Cu3_8 1_555 1_555
O20_8 Cu4_8 1_555 1_555
O21_11 C65_11 1_555 1_555
O22_11 Cu3_8 1_555 1_555
O23_11 Cu3_8 1_555 1_555
O24_11 C65_11 1_555 1_555
O25_11 Cu4_8 1_555 1_555
O26_11 Cu4_8 1_555 1_555
O27_11 C82_11 1_555 1_555
O29_11 C82_11 1_555 1_555
C65_11 C66_11 1_555 1_555
C66_11 C67_11 1_555 1_555
C67_11 H39_11 1_555 1_555
C68_11 C67_11 1_555 1_555
H40_11 C68_11 1_555 1_555
C69_11 C68_11 1_555 1_555
C70_11 C69_11 1_555 1_555
H41_11 C70_11 1_555 1_555
C71_11 C66_11 1_555 1_555
H42_11 C71_11 1_555 1_555
C72_11 C30_11 1_555 1_555
C73_11 C32_11 1_555 1_555
H43_11 C73_11 1_555 1_555
C74_11 C34_11 1_555 1_555
H44_11 C74_11 1_555 1_555
C75_11 C37_11 1_555 1_555
C76_11 C75_11 1_555 1_555
C77_11 C76_11 1_555 1_555
H45_11 C77_11 1_555 1_555
C78_11 C77_11 1_555 1_555
H46_11 C78_11 1_555 1_555
C79_11 C78_11 1_555 1_555
C80_11 C79_11 1_555 1_555
H47_11 C80_11 1_555 1_555
C81_11 C76_11 1_555 1_555
H48_11 C81_11 1_555 1_555
C82_11 C79_11 1_555 1_555
O8_11 C44_11 1_555 1_555
C6_11 C7_11 1_555 1_555
C12_11 C13_11 1_555 1_555
C19_11 C20_11 1_555 1_555
C27_11 C28_11 1_555 1_555
C41_11 C44_11 1_555 1_555
C42_11 C43_11 1_555 1_555
C69_11 C72_11 1_555 1_555
C70_11 C71_11 1_555 1_555
C72_11 C73_11 1_555 1_555
C74_11 C75_11 1_555 1_555
C80_11 C81_11 1_555 1_555
Cu6 O1_12 1_555 1_555
Cu8 O2_12 1_555 1_555
Cu10_5 O3_12 1_555 1_555
Cu13_5 O4_12 1_555 1_555
O1_12 C1_12 1_555 1_555
O2_12 C1_12 1_555 1_555
O3_12 C21_12 1_555 1_555
O4_12 C21_12 1_555 1_555
O5_12 C22_12 1_555 1_555
O6_12 C22_12 1_555 1_555
O7_12 Cu6 1_555 1_555
O8_12 Cu8 1_555 1_555
O9_12 Cu6 1_555 1_555
O10_12 Cu8 1_555 1_555
O11_12 Cu10_5 1_555 1_555
O12_12 Cu13_5 1_555 1_555
C1_12 C2_12 1_555 1_555
C2_12 C3_12 1_555 1_555
C3_12 H1_12 1_555 1_555
C4_12 C3_12 1_555 1_555
H2_12 C4_12 1_555 1_555
C5_12 C4_12 1_555 1_555
C6_12 C5_12 1_555 1_555
H3_12 C6_12 1_555 1_555
C7_12 C2_12 1_555 1_555
H4_12 C7_12 1_555 1_555
C8_12 C5_12 1_555 1_555
C9_12 C8_12 1_555 1_555
H5_12 C9_12 1_555 1_555
C10_12 C9_12 1_555 1_555
C11_12 C10_12 1_555 1_555
H6_12 C11_12 1_555 1_555
C12_12 C11_12 1_555 1_555
C13_12 C8_12 1_555 1_555
H7_12 C13_12 1_555 1_555
C14_23 C12_12 1_555 1_555
H8_23 C14_23 1_555 1_555
H9_23 C14_23 1_555 1_555
C15_12 C10_12 1_555 1_555
C16_12 C15_12 1_555 1_555
H10_12 C16_12 1_555 1_555
C17_12 C16_12 1_555 1_555
H11_12 C17_12 1_555 1_555
C18_12 C17_12 1_555 1_555
C19_12 C18_12 1_555 1_555
H12_12 C19_12 1_555 1_555
C20_12 C15_12 1_555 1_555
H13_12 C20_12 1_555 1_555
C21_12 C18_12 1_555 1_555
C22_12 C23_12 1_555 1_555
C23_12 C24_12 1_555 1_555
C24_12 H14_12 1_555 1_555
C25_12 C24_12 1_555 1_555
H15_12 C25_12 1_555 1_555
C26_12 C25_12 1_555 1_555
C27_12 C26_12 1_555 1_555
H16_12 C27_12 1_555 1_555
C28_12 C23_12 1_555 1_555
H17_12 C28_12 1_555 1_555
C29_12 C26_12 1_555 1_555
C30_12 C29_12 1_555 1_555
H18_12 C30_12 1_555 1_555
C31_12 C29_12 1_555 1_555
H19_12 C31_12 1_555 1_555
C32_12 C31_12 1_555 1_555
C33_12 C32_12 1_555 1_555
H20_12 C33_12 1_555 1_555
H21_12 C33_12 1_555 1_555
C34_12 C33_12 1_555 1_555
C35_12 C34_12 1_555 1_555
H22_12 C35_12 1_555 1_555
C36_12 C35_12 1_555 1_555
C37_12 C36_12 1_555 1_555
H23_12 C37_12 1_555 1_555
C38_12 C36_12 1_555 1_555
C39_12 C38_12 1_555 1_555
H24_12 C39_12 1_555 1_555
C40_12 C39_12 1_555 1_555
H25_12 C40_12 1_555 1_555
C41_12 C40_12 1_555 1_555
C42_12 C41_12 1_555 1_555
H26_12 C42_12 1_555 1_555
C43_12 C38_12 1_555 1_555
H27_12 C43_12 1_555 1_555
C44_12 O7_12 1_555 1_555
Cu11_11 O5_12 1_555 1_555
Cu11_12 O21_12 1_555 1_555
Cu14_11 O6_12 1_555 1_555
Cu14_12 O24_12 1_555 1_555
O14_8 Cu6 1_555 1_555
O16_8 Cu8 1_555 1_555
O21_12 C65_12 1_555 1_555
O22_12 Cu10_5 1_555 1_555
O23_12 Cu10_5 1_555 1_555
O24_12 C65_12 1_555 1_555
O25_12 Cu13_5 1_555 1_555
O26_12 Cu13_5 1_555 1_555
O28_3 C82_12 1_555 1_555
O30_3 C82_12 1_555 1_555
C65_12 C66_12 1_555 1_555
C66_12 C67_12 1_555 1_555
C67_12 H39_12 1_555 1_555
C68_12 C67_12 1_555 1_555
H40_12 C68_12 1_555 1_555
C69_12 C68_12 1_555 1_555
C70_12 C69_12 1_555 1_555
H41_12 C70_12 1_555 1_555
C71_12 C66_12 1_555 1_555
H42_12 C71_12 1_555 1_555
C72_12 C30_12 1_555 1_555
C73_12 C32_12 1_555 1_555
H43_12 C73_12 1_555 1_555
C74_12 C34_12 1_555 1_555
H44_12 C74_12 1_555 1_555
C75_12 C37_12 1_555 1_555
C76_12 C75_12 1_555 1_555
C77_12 C76_12 1_555 1_555
H45_12 C77_12 1_555 1_555
C78_12 C77_12 1_555 1_555
H46_12 C78_12 1_555 1_555
C79_12 C78_12 1_555 1_555
C80_12 C79_12 1_555 1_555
H47_12 C80_12 1_555 1_555
C81_12 C76_12 1_555 1_555
H48_12 C81_12 1_555 1_555
C82_12 C79_12 1_555 1_555
O8_12 C44_12 1_555 1_555
C6_12 C7_12 1_555 1_555
C12_12 C13_12 1_555 1_555
C19_12 C20_12 1_555 1_555
C27_12 C28_12 1_555 1_555
C41_12 C44_12 1_555 1_555
C42_12 C43_12 1_555 1_555
C69_12 C72_12 1_555 1_555
C70_12 C71_12 1_555 1_555
C72_12 C73_12 1_555 1_555
C74_12 C75_12 1_555 1_555
C80_12 C81_12 1_555 1_555
H8_24 C14_24 1_555 1_555
H9_24 C14_24 1_555 1_555
Cu6_8 O13_8 1_555 1_555
Cu8_8 O15_8 1_555 1_555
O13_8 C45_12 1_555 1_555
O15_8 C45_12 1_555 1_555
O18_5 C64_12 1_555 1_555
O20_5 C64_12 1_555 1_555
C45_12 C46_12 1_555 1_555
C46_12 C47_12 1_555 1_555
C47_12 H28_12 1_555 1_555
C48_12 C47_12 1_555 1_555
H29_12 C48_12 1_555 1_555
C49_12 C48_12 1_555 1_555
C50_12 C49_12 1_555 1_555
H30_12 C50_12 1_555 1_555
C51_12 C46_12 1_555 1_555
H31_12 C51_12 1_555 1_555
C52_12 C49_12 1_555 1_555
C53_12 C52_12 1_555 1_555
H32_12 C53_12 1_555 1_555
C54_12 C53_12 1_555 1_555
C55_12 C54_12 1_555 1_555
H33_12 C55_12 1_555 1_555
C56_12 C14_24 1_555 1_555
C57_12 C52_12 1_555 1_555
H34_12 C57_12 1_555 1_555
C58_12 C54_12 1_555 1_555
C59_12 C58_12 1_555 1_555
H35_12 C59_12 1_555 1_555
C60_12 C59_12 1_555 1_555
H36_12 C60_12 1_555 1_555
C61_12 C60_12 1_555 1_555
C62_12 C61_12 1_555 1_555
H37_12 C62_12 1_555 1_555
C63_12 C58_12 1_555 1_555
H38_12 C63_12 1_555 1_555
C64_12 C61_12 1_555 1_555
C50_12 C51_12 1_555 1_555
C55_12 C56_12 1_555 1_555
C56_12 C57_12 1_555 1_555
C62_12 C63_12 1_555 1_555
H8_25 C14_25 1_555 1_555
H9_25 C14_25 1_555 1_555
O14_4 C45_13 1_555 1_555
O16_4 C45_13 1_555 1_555
O18_6 C64_13 1_555 1_555
O20_6 C64_13 1_555 1_555
C45_13 C46_13 1_555 1_555
C46_13 C47_13 1_555 1_555
C47_13 H28_13 1_555 1_555
C48_13 C47_13 1_555 1_555
H29_13 C48_13 1_555 1_555
C49_13 C48_13 1_555 1_555
C50_13 C49_13 1_555 1_555
H30_13 C50_13 1_555 1_555
C51_13 C46_13 1_555 1_555
H31_13 C51_13 1_555 1_555
C52_13 C49_13 1_555 1_555
C53_13 C52_13 1_555 1_555
H32_13 C53_13 1_555 1_555
C54_13 C53_13 1_555 1_555
C55_13 C54_13 1_555 1_555
H33_13 C55_13 1_555 1_555
C56_13 C14_25 1_555 1_555
C57_13 C52_13 1_555 1_555
H34_13 C57_13 1_555 1_555
C58_13 C54_13 1_555 1_555
C59_13 C58_13 1_555 1_555
H35_13 C59_13 1_555 1_555
C60_13 C59_13 1_555 1_555
H36_13 C60_13 1_555 1_555
C61_13 C60_13 1_555 1_555
C62_13 C61_13 1_555 1_555
H37_13 C62_13 1_555 1_555
C63_13 C58_13 1_555 1_555
H38_13 C63_13 1_555 1_555
C64_13 C61_13 1_555 1_555
C50_13 C51_13 1_555 1_555
C55_13 C56_13 1_555 1_555
C56_13 C57_13 1_555 1_555
C62_13 C63_13 1_555 1_555
Cu5_4 O1_13 1_555 1_555
Cu7_4 O2_13 1_555 1_555
Cu10_6 O3_13 1_555 1_555
Cu13_6 O4_13 1_555 1_555
O1_13 C1_13 1_555 1_555
O2_13 C1_13 1_555 1_555
O3_13 C21_13 1_555 1_555
O4_13 C21_13 1_555 1_555
O5_13 C22_13 1_555 1_555
O6_13 C22_13 1_555 1_555
O7_13 Cu5_4 1_555 1_555
O8_13 Cu7_4 1_555 1_555
O9_13 Cu5_4 1_555 1_555
O10_13 Cu7_4 1_555 1_555
O11_13 Cu10_6 1_555 1_555
O12_13 Cu13_6 1_555 1_555
C1_13 C2_13 1_555 1_555
C2_13 C3_13 1_555 1_555
C3_13 H1_13 1_555 1_555
C4_13 C3_13 1_555 1_555
H2_13 C4_13 1_555 1_555
C5_13 C4_13 1_555 1_555
C6_13 C5_13 1_555 1_555
H3_13 C6_13 1_555 1_555
C7_13 C2_13 1_555 1_555
H4_13 C7_13 1_555 1_555
C8_13 C5_13 1_555 1_555
C9_13 C8_13 1_555 1_555
H5_13 C9_13 1_555 1_555
C10_13 C9_13 1_555 1_555
C11_13 C10_13 1_555 1_555
H6_13 C11_13 1_555 1_555
C12_13 C11_13 1_555 1_555
C13_13 C8_13 1_555 1_555
H7_13 C13_13 1_555 1_555
C14_26 C12_13 1_555 1_555
H8_26 C14_26 1_555 1_555
H9_26 C14_26 1_555 1_555
C15_13 C10_13 1_555 1_555
C16_13 C15_13 1_555 1_555
H10_13 C16_13 1_555 1_555
C17_13 C16_13 1_555 1_555
H11_13 C17_13 1_555 1_555
C18_13 C17_13 1_555 1_555
C19_13 C18_13 1_555 1_555
H12_13 C19_13 1_555 1_555
C20_13 C15_13 1_555 1_555
H13_13 C20_13 1_555 1_555
C21_13 C18_13 1_555 1_555
C22_13 C23_13 1_555 1_555
C23_13 C24_13 1_555 1_555
C24_13 H14_13 1_555 1_555
C25_13 C24_13 1_555 1_555
H15_13 C25_13 1_555 1_555
C26_13 C25_13 1_555 1_555
C27_13 C26_13 1_555 1_555
H16_13 C27_13 1_555 1_555
C28_13 C23_13 1_555 1_555
H17_13 C28_13 1_555 1_555
C29_13 C26_13 1_555 1_555
C30_13 C29_13 1_555 1_555
H18_13 C30_13 1_555 1_555
C31_13 C29_13 1_555 1_555
H19_13 C31_13 1_555 1_555
C32_13 C31_13 1_555 1_555
C33_13 C32_13 1_555 1_555
H20_13 C33_13 1_555 1_555
H21_13 C33_13 1_555 1_555
C34_13 C33_13 1_555 1_555
C35_13 C34_13 1_555 1_555
H22_13 C35_13 1_555 1_555
C36_13 C35_13 1_555 1_555
C37_13 C36_13 1_555 1_555
H23_13 C37_13 1_555 1_555
C38_13 C36_13 1_555 1_555
C39_13 C38_13 1_555 1_555
H24_13 C39_13 1_555 1_555
C40_13 C39_13 1_555 1_555
H25_13 C40_13 1_555 1_555
C41_13 C40_13 1_555 1_555
C42_13 C41_13 1_555 1_555
H26_13 C42_13 1_555 1_555
C43_13 C38_13 1_555 1_555
H27_13 C43_13 1_555 1_555
C44_13 O7_13 1_555 1_555
Cu11 O5_13 1_555 1_555
Cu11_13 O21_13 1_555 1_555
Cu14 O6_13 1_555 1_555
Cu14_13 O24_13 1_555 1_555
O21_13 C65_13 1_555 1_555
O22_13 Cu10_6 1_555 1_555
O23_13 Cu10_6 1_555 1_555
O24_13 C65_13 1_555 1_555
O25_13 Cu13_6 1_555 1_555
O26_13 Cu13_6 1_555 1_555
O28_5 C82_13 1_555 1_555
O30_5 C82_13 1_555 1_555
C65_13 C66_13 1_555 1_555
C66_13 C67_13 1_555 1_555
C67_13 H39_13 1_555 1_555
C68_13 C67_13 1_555 1_555
H40_13 C68_13 1_555 1_555
C69_13 C68_13 1_555 1_555
C70_13 C69_13 1_555 1_555
H41_13 C70_13 1_555 1_555
C71_13 C66_13 1_555 1_555
H42_13 C71_13 1_555 1_555
C72_13 C30_13 1_555 1_555
C73_13 C32_13 1_555 1_555
H43_13 C73_13 1_555 1_555
C74_13 C34_13 1_555 1_555
H44_13 C74_13 1_555 1_555
C75_13 C37_13 1_555 1_555
C76_13 C75_13 1_555 1_555
C77_13 C76_13 1_555 1_555
H45_13 C77_13 1_555 1_555
C78_13 C77_13 1_555 1_555
H46_13 C78_13 1_555 1_555
C79_13 C78_13 1_555 1_555
C80_13 C79_13 1_555 1_555
H47_13 C80_13 1_555 1_555
C81_13 C76_13 1_555 1_555
H48_13 C81_13 1_555 1_555
C82_13 C79_13 1_555 1_555
O8_13 C44_13 1_555 1_555
C6_13 C7_13 1_555 1_555
C12_13 C13_13 1_555 1_555
C19_13 C20_13 1_555 1_555
C27_13 C28_13 1_555 1_555
C41_13 C44_13 1_555 1_555
C42_13 C43_13 1_555 1_555
C69_13 C72_13 1_555 1_555
C70_13 C71_13 1_555 1_555
C72_13 C73_13 1_555 1_555
C74_13 C75_13 1_555 1_555
C80_13 C81_13 1_555 1_555
H8_27 C14_27 1_555 1_555
H9_27 C14_27 1_555 1_555
O14_8 C45_14 1_555 1_555
O16_8 C45_14 1_555 1_555
O18_3 C64_14 1_555 1_555
O20_3 C64_14 1_555 1_555
C45_14 C46_14 1_555 1_555
C46_14 C47_14 1_555 1_555
C47_14 H28_14 1_555 1_555
C48_14 C47_14 1_555 1_555
H29_14 C48_14 1_555 1_555
C49_14 C48_14 1_555 1_555
C50_14 C49_14 1_555 1_555
H30_14 C50_14 1_555 1_555
C51_14 C46_14 1_555 1_555
H31_14 C51_14 1_555 1_555
C52_14 C49_14 1_555 1_555
C53_14 C52_14 1_555 1_555
H32_14 C53_14 1_555 1_555
C54_14 C53_14 1_555 1_555
C55_14 C54_14 1_555 1_555
H33_14 C55_14 1_555 1_555
C56_14 C14_27 1_555 1_555
C57_14 C52_14 1_555 1_555
H34_14 C57_14 1_555 1_555
C58_14 C54_14 1_555 1_555
C59_14 C58_14 1_555 1_555
H35_14 C59_14 1_555 1_555
C60_14 C59_14 1_555 1_555
H36_14 C60_14 1_555 1_555
C61_14 C60_14 1_555 1_555
C62_14 C61_14 1_555 1_555
H37_14 C62_14 1_555 1_555
C63_14 C58_14 1_555 1_555
H38_14 C63_14 1_555 1_555
C64_14 C61_14 1_555 1_555
C50_14 C51_14 1_555 1_555
C55_14 C56_14 1_555 1_555
C56_14 C57_14 1_555 1_555
C62_14 C63_14 1_555 1_555
Cu6_8 O1_14 1_555 1_555
Cu8_8 O2_14 1_555 1_555
Cu10_3 O3_14 1_555 1_555
Cu13_3 O4_14 1_555 1_555
O1_14 C1_14 1_555 1_555
O2_14 C1_14 1_555 1_555
O3_14 C21_14 1_555 1_555
O4_14 C21_14 1_555 1_555
O5_14 C22_14 1_555 1_555
O6_14 C22_14 1_555 1_555
O7_14 Cu6_8 1_555 1_555
O8_14 Cu8_8 1_555 1_555
O9_14 Cu6_8 1_555 1_555
O10_14 Cu8_8 1_555 1_555
O11_14 Cu10_3 1_555 1_555
O12_14 Cu13_3 1_555 1_555
C1_14 C2_14 1_555 1_555
C2_14 C3_14 1_555 1_555
C3_14 H1_14 1_555 1_555
C4_14 C3_14 1_555 1_555
H2_14 C4_14 1_555 1_555
C5_14 C4_14 1_555 1_555
C6_14 C5_14 1_555 1_555
H3_14 C6_14 1_555 1_555
C7_14 C2_14 1_555 1_555
H4_14 C7_14 1_555 1_555
C8_14 C5_14 1_555 1_555
C9_14 C8_14 1_555 1_555
H5_14 C9_14 1_555 1_555
C10_14 C9_14 1_555 1_555
C11_14 C10_14 1_555 1_555
H6_14 C11_14 1_555 1_555
C12_14 C11_14 1_555 1_555
C13_14 C8_14 1_555 1_555
H7_14 C13_14 1_555 1_555
C14_28 C12_14 1_555 1_555
H8_28 C14_28 1_555 1_555
H9_28 C14_28 1_555 1_555
C15_14 C10_14 1_555 1_555
C16_14 C15_14 1_555 1_555
H10_14 C16_14 1_555 1_555
C17_14 C16_14 1_555 1_555
H11_14 C17_14 1_555 1_555
C18_14 C17_14 1_555 1_555
C19_14 C18_14 1_555 1_555
H12_14 C19_14 1_555 1_555
C20_14 C15_14 1_555 1_555
H13_14 C20_14 1_555 1_555
C21_14 C18_14 1_555 1_555
C22_14 C23_14 1_555 1_555
C23_14 C24_14 1_555 1_555
C24_14 H14_14 1_555 1_555
C25_14 C24_14 1_555 1_555
H15_14 C25_14 1_555 1_555
C26_14 C25_14 1_555 1_555
C27_14 C26_14 1_555 1_555
H16_14 C27_14 1_555 1_555
C28_14 C23_14 1_555 1_555
H17_14 C28_14 1_555 1_555
C29_14 C26_14 1_555 1_555
C30_14 C29_14 1_555 1_555
H18_14 C30_14 1_555 1_555
C31_14 C29_14 1_555 1_555
H19_14 C31_14 1_555 1_555
C32_14 C31_14 1_555 1_555
C33_14 C32_14 1_555 1_555
H20_14 C33_14 1_555 1_555
H21_14 C33_14 1_555 1_555
C34_14 C33_14 1_555 1_555
C35_14 C34_14 1_555 1_555
H22_14 C35_14 1_555 1_555
C36_14 C35_14 1_555 1_555
C37_14 C36_14 1_555 1_555
H23_14 C37_14 1_555 1_555
C38_14 C36_14 1_555 1_555
C39_14 C38_14 1_555 1_555
H24_14 C39_14 1_555 1_555
C40_14 C39_14 1_555 1_555
H25_14 C40_14 1_555 1_555
C41_14 C40_14 1_555 1_555
C42_14 C41_14 1_555 1_555
H26_14 C42_14 1_555 1_555
C43_14 C38_14 1_555 1_555
H27_14 C43_14 1_555 1_555
C44_14 O7_14 1_555 1_555
Cu11_8 O5_14 1_555 1_555
Cu11_14 O21_14 1_555 1_555
Cu14_8 O6_14 1_555 1_555
Cu14_14 O24_14 1_555 1_555
O21_14 C65_14 1_555 1_555
O22_14 Cu10_3 1_555 1_555
O23_14 Cu10_3 1_555 1_555
O24_14 C65_14 1_555 1_555
O25_14 Cu13_3 1_555 1_555
O26_14 Cu13_3 1_555 1_555
O28_4 C82_14 1_555 1_555
O30_4 C82_14 1_555 1_555
C65_14 C66_14 1_555 1_555
C66_14 C67_14 1_555 1_555
C67_14 H39_14 1_555 1_555
C68_14 C67_14 1_555 1_555
H40_14 C68_14 1_555 1_555
C69_14 C68_14 1_555 1_555
C70_14 C69_14 1_555 1_555
H41_14 C70_14 1_555 1_555
C71_14 C66_14 1_555 1_555
H42_14 C71_14 1_555 1_555
C72_14 C30_14 1_555 1_555
C73_14 C32_14 1_555 1_555
H43_14 C73_14 1_555 1_555
C74_14 C34_14 1_555 1_555
H44_14 C74_14 1_555 1_555
C75_14 C37_14 1_555 1_555
C76_14 C75_14 1_555 1_555
C77_14 C76_14 1_555 1_555
H45_14 C77_14 1_555 1_555
C78_14 C77_14 1_555 1_555
H46_14 C78_14 1_555 1_555
C79_14 C78_14 1_555 1_555
C80_14 C79_14 1_555 1_555
H47_14 C80_14 1_555 1_555
C81_14 C76_14 1_555 1_555
H48_14 C81_14 1_555 1_555
C82_14 C79_14 1_555 1_555
O8_14 C44_14 1_555 1_555
C6_14 C7_14 1_555 1_555
C12_14 C13_14 1_555 1_555
C19_14 C20_14 1_555 1_555
C27_14 C28_14 1_555 1_555
C41_14 C44_14 1_555 1_555
C42_14 C43_14 1_555 1_555
C69_14 C72_14 1_555 1_555
C70_14 C71_14 1_555 1_555
C72_14 C73_14 1_555 1_555
C74_14 C75_14 1_555 1_555
C80_14 C81_14 1_555 1_555
Cu6_6 O1_15 1_555 1_555
Cu8_6 O2_15 1_555 1_555
Cu10_8 O3_15 1_555 1_555
Cu13_8 O4_15 1_555 1_555
O1_15 C1_15 1_555 1_555
O2_15 C1_15 1_555 1_555
O3_15 C21_15 1_555 1_555
O4_15 C21_15 1_555 1_555
O5_15 C22_15 1_555 1_555
O6_15 C22_15 1_555 1_555
O7_15 Cu6_6 1_555 1_555
O8_15 Cu8_6 1_555 1_555
O9_15 Cu6_6 1_555 1_555
O10_15 Cu8_6 1_555 1_555
O11_15 Cu10_8 1_555 1_555
O12_15 Cu13_8 1_555 1_555
C1_15 C2_15 1_555 1_555
C2_15 C3_15 1_555 1_555
C3_15 H1_15 1_555 1_555
C4_15 C3_15 1_555 1_555
H2_15 C4_15 1_555 1_555
C5_15 C4_15 1_555 1_555
C6_15 C5_15 1_555 1_555
H3_15 C6_15 1_555 1_555
C7_15 C2_15 1_555 1_555
H4_15 C7_15 1_555 1_555
C8_15 C5_15 1_555 1_555
C9_15 C8_15 1_555 1_555
H5_15 C9_15 1_555 1_555
C10_15 C9_15 1_555 1_555
C11_15 C10_15 1_555 1_555
H6_15 C11_15 1_555 1_555
C12_15 C11_15 1_555 1_555
C13_15 C8_15 1_555 1_555
H7_15 C13_15 1_555 1_555
C14_29 C12_15 1_555 1_555
H8_29 C14_29 1_555 1_555
H9_29 C14_29 1_555 1_555
C15_15 C10_15 1_555 1_555
C16_15 C15_15 1_555 1_555
H10_15 C16_15 1_555 1_555
C17_15 C16_15 1_555 1_555
H11_15 C17_15 1_555 1_555
C18_15 C17_15 1_555 1_555
C19_15 C18_15 1_555 1_555
H12_15 C19_15 1_555 1_555
C20_15 C15_15 1_555 1_555
H13_15 C20_15 1_555 1_555
C21_15 C18_15 1_555 1_555
C22_15 C23_15 1_555 1_555
C23_15 C24_15 1_555 1_555
C24_15 H14_15 1_555 1_555
C25_15 C24_15 1_555 1_555
H15_15 C25_15 1_555 1_555
C26_15 C25_15 1_555 1_555
C27_15 C26_15 1_555 1_555
H16_15 C27_15 1_555 1_555
C28_15 C23_15 1_555 1_555
H17_15 C28_15 1_555 1_555
C29_15 C26_15 1_555 1_555
C30_15 C29_15 1_555 1_555
H18_15 C30_15 1_555 1_555
C31_15 C29_15 1_555 1_555
H19_15 C31_15 1_555 1_555
C32_15 C31_15 1_555 1_555
C33_15 C32_15 1_555 1_555
H20_15 C33_15 1_555 1_555
H21_15 C33_15 1_555 1_555
C34_15 C33_15 1_555 1_555
C35_15 C34_15 1_555 1_555
H22_15 C35_15 1_555 1_555
C36_15 C35_15 1_555 1_555
C37_15 C36_15 1_555 1_555
H23_15 C37_15 1_555 1_555
C38_15 C36_15 1_555 1_555
C39_15 C38_15 1_555 1_555
H24_15 C39_15 1_555 1_555
C40_15 C39_15 1_555 1_555
H25_15 C40_15 1_555 1_555
C41_15 C40_15 1_555 1_555
C42_15 C41_15 1_555 1_555
H26_15 C42_15 1_555 1_555
C43_15 C38_15 1_555 1_555
H27_15 C43_15 1_555 1_555
C44_15 O7_15 1_555 1_555
Cu11_5 O5_15 1_555 1_555
Cu11_15 O21_15 1_555 1_555
Cu14_5 O6_15 1_555 1_555
Cu14_15 O24_15 1_555 1_555
O21_15 C65_15 1_555 1_555
O22_15 Cu10_8 1_555 1_555
O23_15 Cu10_8 1_555 1_555
O24_15 C65_15 1_555 1_555
O25_15 Cu13_8 1_555 1_555
O26_15 Cu13_8 1_555 1_555
O28_2 C82_15 1_555 1_555
O30_2 C82_15 1_555 1_555
C65_15 C66_15 1_555 1_555
C66_15 C67_15 1_555 1_555
C67_15 H39_15 1_555 1_555
C68_15 C67_15 1_555 1_555
H40_15 C68_15 1_555 1_555
C69_15 C68_15 1_555 1_555
C70_15 C69_15 1_555 1_555
H41_15 C70_15 1_555 1_555
C71_15 C66_15 1_555 1_555
H42_15 C71_15 1_555 1_555
C72_15 C30_15 1_555 1_555
C73_15 C32_15 1_555 1_555
H43_15 C73_15 1_555 1_555
C74_15 C34_15 1_555 1_555
H44_15 C74_15 1_555 1_555
C75_15 C37_15 1_555 1_555
C76_15 C75_15 1_555 1_555
C77_15 C76_15 1_555 1_555
H45_15 C77_15 1_555 1_555
C78_15 C77_15 1_555 1_555
H46_15 C78_15 1_555 1_555
C79_15 C78_15 1_555 1_555
C80_15 C79_15 1_555 1_555
H47_15 C80_15 1_555 1_555
C81_15 C76_15 1_555 1_555
H48_15 C81_15 1_555 1_555
C82_15 C79_15 1_555 1_555
O8_15 C44_15 1_555 1_555
C6_15 C7_15 1_555 1_555
C12_15 C13_15 1_555 1_555
C19_15 C20_15 1_555 1_555
C27_15 C28_15 1_555 1_555
C41_15 C44_15 1_555 1_555
C42_15 C43_15 1_555 1_555
C69_15 C72_15 1_555 1_555
C70_15 C71_15 1_555 1_555
C72_15 C73_15 1_555 1_555
C74_15 C75_15 1_555 1_555
C80_15 C81_15 1_555 1_555
H8_30 C14_30 1_555 1_555
H9_30 C14_30 1_555 1_555
O14_7 C45_15 1_555 1_555
O16_7 C45_15 1_555 1_555
O18_8 C64_15 1_555 1_555
O20_8 C64_15 1_555 1_555
C45_15 C46_15 1_555 1_555
C46_15 C47_15 1_555 1_555
C47_15 H28_15 1_555 1_555
C48_15 C47_15 1_555 1_555
H29_15 C48_15 1_555 1_555
C49_15 C48_15 1_555 1_555
C50_15 C49_15 1_555 1_555
H30_15 C50_15 1_555 1_555
C51_15 C46_15 1_555 1_555
H31_15 C51_15 1_555 1_555
C52_15 C49_15 1_555 1_555
C53_15 C52_15 1_555 1_555
H32_15 C53_15 1_555 1_555
C54_15 C53_15 1_555 1_555
C55_15 C54_15 1_555 1_555
H33_15 C55_15 1_555 1_555
C56_15 C14_30 1_555 1_555
C57_15 C52_15 1_555 1_555
H34_15 C57_15 1_555 1_555
C58_15 C54_15 1_555 1_555
C59_15 C58_15 1_555 1_555
H35_15 C59_15 1_555 1_555
C60_15 C59_15 1_555 1_555
H36_15 C60_15 1_555 1_555
C61_15 C60_15 1_555 1_555
C62_15 C61_15 1_555 1_555
H37_15 C62_15 1_555 1_555
C63_15 C58_15 1_555 1_555
H38_15 C63_15 1_555 1_555
C64_15 C61_15 1_555 1_555
C50_15 C51_15 1_555 1_555
C55_15 C56_15 1_555 1_555
C56_15 C57_15 1_555 1_555
C62_15 C63_15 1_555 1_555
Cu6_3 O1_16 1_555 1_555
Cu8_3 O2_16 1_555 1_555
Cu10_7 O3_16 1_555 1_555
Cu13_7 O4_16 1_555 1_555
O1_16 C1_16 1_555 1_555
O2_16 C1_16 1_555 1_555
O3_16 C21_16 1_555 1_555
O4_16 C21_16 1_555 1_555
O5_16 C22_16 1_555 1_555
O6_16 C22_16 1_555 1_555
O7_16 Cu6_3 1_555 1_555
O8_16 Cu8_3 1_555 1_555
O9_16 Cu6_3 1_555 1_555
O10_16 Cu8_3 1_555 1_555
O11_16 Cu10_7 1_555 1_555
O12_16 Cu13_7 1_555 1_555
C1_16 C2_16 1_555 1_555
C2_16 C3_16 1_555 1_555
C3_16 H1_16 1_555 1_555
C4_16 C3_16 1_555 1_555
H2_16 C4_16 1_555 1_555
C5_16 C4_16 1_555 1_555
C6_16 C5_16 1_555 1_555
H3_16 C6_16 1_555 1_555
C7_16 C2_16 1_555 1_555
H4_16 C7_16 1_555 1_555
C8_16 C5_16 1_555 1_555
C9_16 C8_16 1_555 1_555
H5_16 C9_16 1_555 1_555
C10_16 C9_16 1_555 1_555
C11_16 C10_16 1_555 1_555
H6_16 C11_16 1_555 1_555
C12_16 C11_16 1_555 1_555
C13_16 C8_16 1_555 1_555
H7_16 C13_16 1_555 1_555
C14_31 C12_16 1_555 1_555
H8_31 C14_31 1_555 1_555
H9_31 C14_31 1_555 1_555
C15_16 C10_16 1_555 1_555
C16_16 C15_16 1_555 1_555
H10_16 C16_16 1_555 1_555
C17_16 C16_16 1_555 1_555
H11_16 C17_16 1_555 1_555
C18_16 C17_16 1_555 1_555
C19_16 C18_16 1_555 1_555
H12_16 C19_16 1_555 1_555
C20_16 C15_16 1_555 1_555
H13_16 C20_16 1_555 1_555
C21_16 C18_16 1_555 1_555
C22_16 C23_16 1_555 1_555
C23_16 C24_16 1_555 1_555
C24_16 H14_16 1_555 1_555
C25_16 C24_16 1_555 1_555
H15_16 C25_16 1_555 1_555
C26_16 C25_16 1_555 1_555
C27_16 C26_16 1_555 1_555
H16_16 C27_16 1_555 1_555
C28_16 C23_16 1_555 1_555
H17_16 C28_16 1_555 1_555
C29_16 C26_16 1_555 1_555
C30_16 C29_16 1_555 1_555
H18_16 C30_16 1_555 1_555
C31_16 C29_16 1_555 1_555
H19_16 C31_16 1_555 1_555
C32_16 C31_16 1_555 1_555
C33_16 C32_16 1_555 1_555
H20_16 C33_16 1_555 1_555
H21_16 C33_16 1_555 1_555
C34_16 C33_16 1_555 1_555
C35_16 C34_16 1_555 1_555
H22_16 C35_16 1_555 1_555
C36_16 C35_16 1_555 1_555
C37_16 C36_16 1_555 1_555
H23_16 C37_16 1_555 1_555
C38_16 C36_16 1_555 1_555
C39_16 C38_16 1_555 1_555
H24_16 C39_16 1_555 1_555
C40_16 C39_16 1_555 1_555
H25_16 C40_16 1_555 1_555
C41_16 C40_16 1_555 1_555
C42_16 C41_16 1_555 1_555
H26_16 C42_16 1_555 1_555
C43_16 C38_16 1_555 1_555
H27_16 C43_16 1_555 1_555
C44_16 O7_16 1_555 1_555
Cu11_2 O5_16 1_555 1_555
Cu11_16 O21_16 1_555 1_555
Cu14_2 O6_16 1_555 1_555
Cu14_16 O24_16 1_555 1_555
O21_16 C65_16 1_555 1_555
O22_16 Cu10_7 1_555 1_555
O23_16 Cu10_7 1_555 1_555
O24_16 C65_16 1_555 1_555
O25_16 Cu13_7 1_555 1_555
O26_16 Cu13_7 1_555 1_555
O28 C82_16 1_555 1_555
O30 C82_16 1_555 1_555
C65_16 C66_16 1_555 1_555
C66_16 C67_16 1_555 1_555
C67_16 H39_16 1_555 1_555
C68_16 C67_16 1_555 1_555
H40_16 C68_16 1_555 1_555
C69_16 C68_16 1_555 1_555
C70_16 C69_16 1_555 1_555
H41_16 C70_16 1_555 1_555
C71_16 C66_16 1_555 1_555
H42_16 C71_16 1_555 1_555
C72_16 C30_16 1_555 1_555
C73_16 C32_16 1_555 1_555
H43_16 C73_16 1_555 1_555
C74_16 C34_16 1_555 1_555
H44_16 C74_16 1_555 1_555
C75_16 C37_16 1_555 1_555
C76_16 C75_16 1_555 1_555
C77_16 C76_16 1_555 1_555
H45_16 C77_16 1_555 1_555
C78_16 C77_16 1_555 1_555
H46_16 C78_16 1_555 1_555
C79_16 C78_16 1_555 1_555
C80_16 C79_16 1_555 1_555
H47_16 C80_16 1_555 1_555
C81_16 C76_16 1_555 1_555
H48_16 C81_16 1_555 1_555
C82_16 C79_16 1_555 1_555
O8_16 C44_16 1_555 1_555
C6_16 C7_16 1_555 1_555
C12_16 C13_16 1_555 1_555
C19_16 C20_16 1_555 1_555
C27_16 C28_16 1_555 1_555
C41_16 C44_16 1_555 1_555
C42_16 C43_16 1_555 1_555
C69_16 C72_16 1_555 1_555
C70_16 C71_16 1_555 1_555
C72_16 C73_16 1_555 1_555
C74_16 C75_16 1_555 1_555
C80_16 C81_16 1_555 1_555
H8_32 C14_32 1_555 1_555
H9_32 C14_32 1_555 1_555
O14_6 C45_16 1_555 1_555
O16_6 C45_16 1_555 1_555
O18_7 C64_16 1_555 1_555
O20_7 C64_16 1_555 1_555
C45_16 C46_16 1_555 1_555
C46_16 C47_16 1_555 1_555
C47_16 H28_16 1_555 1_555
C48_16 C47_16 1_555 1_555
H29_16 C48_16 1_555 1_555
C49_16 C48_16 1_555 1_555
C50_16 C49_16 1_555 1_555
H30_16 C50_16 1_555 1_555
C51_16 C46_16 1_555 1_555
H31_16 C51_16 1_555 1_555
C52_16 C49_16 1_555 1_555
C53_16 C52_16 1_555 1_555
H32_16 C53_16 1_555 1_555
C54_16 C53_16 1_555 1_555
C55_16 C54_16 1_555 1_555
H33_16 C55_16 1_555 1_555
C56_16 C14_32 1_555 1_555
C57_16 C52_16 1_555 1_555
H34_16 C57_16 1_555 1_555
C58_16 C54_16 1_555 1_555
C59_16 C58_16 1_555 1_555
H35_16 C59_16 1_555 1_555
C60_16 C59_16 1_555 1_555
H36_16 C60_16 1_555 1_555
C61_16 C60_16 1_555 1_555
C62_16 C61_16 1_555 1_555
H37_16 C62_16 1_555 1_555
C63_16 C58_16 1_555 1_555
H38_16 C63_16 1_555 1_555
C64_16 C61_16 1_555 1_555
C50_16 C51_16 1_555 1_555
C55_16 C56_16 1_555 1_555
C56_16 C57_16 1_555 1_555
C62_16 C63_16 1_555 1_555
Cu1_4 O1_17 1_555 1_555
Cu2_4 O2_17 1_555 1_555
Cu3_9 O3_17 1_555 1_555
Cu4_9 O4_17 1_555 1_555
O1_17 C1_17 1_555 1_555
O2_17 C1_17 1_555 1_555
O3_17 C21_17 1_555 1_555
O4_17 C21_17 1_555 1_555
O5_17 C22_17 1_555 1_555
O6_17 C22_17 1_555 1_555
O7_17 Cu1_4 1_555 1_555
O8_17 Cu2_4 1_555 1_555
O9_17 Cu1_4 1_555 1_555
O10_17 Cu2_4 1_555 1_555
O11_17 Cu3_9 1_555 1_555
O12_17 Cu4_9 1_555 1_555
C1_17 C2_17 1_555 1_555
C2_17 C3_17 1_555 1_555
C3_17 H1_17 1_555 1_555
C4_17 C3_17 1_555 1_555
H2_17 C4_17 1_555 1_555
C5_17 C4_17 1_555 1_555
C6_17 C5_17 1_555 1_555
H3_17 C6_17 1_555 1_555
C7_17 C2_17 1_555 1_555
H4_17 C7_17 1_555 1_555
C8_17 C5_17 1_555 1_555
C9_17 C8_17 1_555 1_555
H5_17 C9_17 1_555 1_555
C10_17 C9_17 1_555 1_555
C11_17 C10_17 1_555 1_555
H6_17 C11_17 1_555 1_555
C12_17 C11_17 1_555 1_555
C13_17 C8_17 1_555 1_555
H7_17 C13_17 1_555 1_555
C14_33 C12_17 1_555 1_555
H8_33 C14_33 1_555 1_555
H9_33 C14_33 1_555 1_555
C15_17 C10_17 1_555 1_555
C16_17 C15_17 1_555 1_555
H10_17 C16_17 1_555 1_555
C17_17 C16_17 1_555 1_555
H11_17 C17_17 1_555 1_555
C18_17 C17_17 1_555 1_555
C19_17 C18_17 1_555 1_555
H12_17 C19_17 1_555 1_555
C20_17 C15_17 1_555 1_555
H13_17 C20_17 1_555 1_555
C21_17 C18_17 1_555 1_555
C22_17 C23_17 1_555 1_555
C23_17 C24_17 1_555 1_555
C24_17 H14_17 1_555 1_555
C25_17 C24_17 1_555 1_555
H15_17 C25_17 1_555 1_555
C26_17 C25_17 1_555 1_555
C27_17 C26_17 1_555 1_555
H16_17 C27_17 1_555 1_555
C28_17 C23_17 1_555 1_555
H17_17 C28_17 1_555 1_555
C29_17 C26_17 1_555 1_555
C30_17 C29_17 1_555 1_555
H18_17 C30_17 1_555 1_555
C31_17 C29_17 1_555 1_555
H19_17 C31_17 1_555 1_555
C32_17 C31_17 1_555 1_555
C33_17 C32_17 1_555 1_555
H20_17 C33_17 1_555 1_555
H21_17 C33_17 1_555 1_555
C34_17 C33_17 1_555 1_555
C35_17 C34_17 1_555 1_555
H22_17 C35_17 1_555 1_555
C36_17 C35_17 1_555 1_555
C37_17 C36_17 1_555 1_555
H23_17 C37_17 1_555 1_555
C38_17 C36_17 1_555 1_555
C39_17 C38_17 1_555 1_555
H24_17 C39_17 1_555 1_555
C40_17 C39_17 1_555 1_555
H25_17 C40_17 1_555 1_555
C41_17 C40_17 1_555 1_555
C42_17 C41_17 1_555 1_555
H26_17 C42_17 1_555 1_555
C43_17 C38_17 1_555 1_555
H27_17 C43_17 1_555 1_555
C44_17 O7_17 1_555 1_555
Cu6_9 O27_12 1_555 1_555
Cu8_9 O29_12 1_555 1_555
Cu11_15 O5_17 1_555 1_555
Cu9_4 O21_17 1_555 1_555
Cu14_15 O6_17 1_555 1_555
Cu12_4 O24_17 1_555 1_555
O14_9 Cu1_4 1_555 1_555
O16_9 Cu2_4 1_555 1_555
O18_9 Cu3_9 1_555 1_555
O20_9 Cu4_9 1_555 1_555
O21_17 C65_17 1_555 1_555
O22_17 Cu3_9 1_555 1_555
O23_17 Cu3_9 1_555 1_555
O24_17 C65_17 1_555 1_555
O25_17 Cu4_9 1_555 1_555
O26_17 Cu4_9 1_555 1_555
O27_12 C82_17 1_555 1_555
O28_6 Cu1_4 1_555 1_555
O29_12 C82_17 1_555 1_555
O30_6 Cu2_4 1_555 1_555
C65_17 C66_17 1_555 1_555
C66_17 C67_17 1_555 1_555
C67_17 H39_17 1_555 1_555
C68_17 C67_17 1_555 1_555
H40_17 C68_17 1_555 1_555
C69_17 C68_17 1_555 1_555
C70_17 C69_17 1_555 1_555
H41_17 C70_17 1_555 1_555
C71_17 C66_17 1_555 1_555
H42_17 C71_17 1_555 1_555
C72_17 C30_17 1_555 1_555
C73_17 C32_17 1_555 1_555
H43_17 C73_17 1_555 1_555
C74_17 C34_17 1_555 1_555
H44_17 C74_17 1_555 1_555
C75_17 C37_17 1_555 1_555
C76_17 C75_17 1_555 1_555
C77_17 C76_17 1_555 1_555
H45_17 C77_17 1_555 1_555
C78_17 C77_17 1_555 1_555
H46_17 C78_17 1_555 1_555
C79_17 C78_17 1_555 1_555
C80_17 C79_17 1_555 1_555
H47_17 C80_17 1_555 1_555
C81_17 C76_17 1_555 1_555
H48_17 C81_17 1_555 1_555
C82_17 C79_17 1_555 1_555
O8_17 C44_17 1_555 1_555
C6_17 C7_17 1_555 1_555
C12_17 C13_17 1_555 1_555
C19_17 C20_17 1_555 1_555
C27_17 C28_17 1_555 1_555
C41_17 C44_17 1_555 1_555
C42_17 C43_17 1_555 1_555
C69_17 C72_17 1_555 1_555
C70_17 C71_17 1_555 1_555
C72_17 C73_17 1_555 1_555
C74_17 C75_17 1_555 1_555
C80_17 C81_17 1_555 1_555
H8_34 C14_34 1_555 1_555
H9_34 C14_34 1_555 1_555
Cu5_6 O13_9 1_555 1_555
Cu7_6 O15_9 1_555 1_555
Cu10_9 O17_9 1_555 1_555
Cu13_9 O19_9 1_555 1_555
O13_9 C45_17 1_555 1_555
O15_9 C45_17 1_555 1_555
O17_9 C64_17 1_555 1_555
O19_9 C64_17 1_555 1_555
C45_17 C46_17 1_555 1_555
C46_17 C47_17 1_555 1_555
C47_17 H28_17 1_555 1_555
C48_17 C47_17 1_555 1_555
H29_17 C48_17 1_555 1_555
C49_17 C48_17 1_555 1_555
C50_17 C49_17 1_555 1_555
H30_17 C50_17 1_555 1_555
C51_17 C46_17 1_555 1_555
H31_17 C51_17 1_555 1_555
C52_17 C49_17 1_555 1_555
C53_17 C52_17 1_555 1_555
H32_17 C53_17 1_555 1_555
C54_17 C53_17 1_555 1_555
C55_17 C54_17 1_555 1_555
H33_17 C55_17 1_555 1_555
C56_17 C14_34 1_555 1_555
C57_17 C52_17 1_555 1_555
H34_17 C57_17 1_555 1_555
C58_17 C54_17 1_555 1_555
C59_17 C58_17 1_555 1_555
H35_17 C59_17 1_555 1_555
C60_17 C59_17 1_555 1_555
H36_17 C60_17 1_555 1_555
C61_17 C60_17 1_555 1_555
C62_17 C61_17 1_555 1_555
H37_17 C62_17 1_555 1_555
C63_17 C58_17 1_555 1_555
H38_17 C63_17 1_555 1_555
C64_17 C61_17 1_555 1_555
C50_17 C51_17 1_555 1_555
C55_17 C56_17 1_555 1_555
C56_17 C57_17 1_555 1_555
C62_17 C63_17 1_555 1_555
Cu1_5 O1_18 1_555 1_555
Cu2_5 O2_18 1_555 1_555
Cu3_10 O3_18 1_555 1_555
Cu4_10 O4_18 1_555 1_555
O1_18 C1_18 1_555 1_555
O2_18 C1_18 1_555 1_555
O3_18 C21_18 1_555 1_555
O4_18 C21_18 1_555 1_555
O5_18 C22_18 1_555 1_555
O6_18 C22_18 1_555 1_555
O7_18 Cu1_5 1_555 1_555
O8_18 Cu2_5 1_555 1_555
O9_18 Cu1_5 1_555 1_555
O10_18 Cu2_5 1_555 1_555
O11_18 Cu3_10 1_555 1_555
O12_18 Cu4_10 1_555 1_555
C1_18 C2_18 1_555 1_555
C2_18 C3_18 1_555 1_555
C3_18 H1_18 1_555 1_555
C4_18 C3_18 1_555 1_555
H2_18 C4_18 1_555 1_555
C5_18 C4_18 1_555 1_555
C6_18 C5_18 1_555 1_555
H3_18 C6_18 1_555 1_555
C7_18 C2_18 1_555 1_555
H4_18 C7_18 1_555 1_555
C8_18 C5_18 1_555 1_555
C9_18 C8_18 1_555 1_555
H5_18 C9_18 1_555 1_555
C10_18 C9_18 1_555 1_555
C11_18 C10_18 1_555 1_555
H6_18 C11_18 1_555 1_555
C12_18 C11_18 1_555 1_555
C13_18 C8_18 1_555 1_555
H7_18 C13_18 1_555 1_555
C14_35 C12_18 1_555 1_555
H8_35 C14_35 1_555 1_555
H9_35 C14_35 1_555 1_555
C15_18 C10_18 1_555 1_555
C16_18 C15_18 1_555 1_555
H10_18 C16_18 1_555 1_555
C17_18 C16_18 1_555 1_555
H11_18 C17_18 1_555 1_555
C18_18 C17_18 1_555 1_555
C19_18 C18_18 1_555 1_555
H12_18 C19_18 1_555 1_555
C20_18 C15_18 1_555 1_555
H13_18 C20_18 1_555 1_555
C21_18 C18_18 1_555 1_555
C22_18 C23_18 1_555 1_555
C23_18 C24_18 1_555 1_555
C24_18 H14_18 1_555 1_555
C25_18 C24_18 1_555 1_555
H15_18 C25_18 1_555 1_555
C26_18 C25_18 1_555 1_555
C27_18 C26_18 1_555 1_555
H16_18 C27_18 1_555 1_555
C28_18 C23_18 1_555 1_555
H17_18 C28_18 1_555 1_555
C29_18 C26_18 1_555 1_555
C30_18 C29_18 1_555 1_555
H18_18 C30_18 1_555 1_555
C31_18 C29_18 1_555 1_555
H19_18 C31_18 1_555 1_555
C32_18 C31_18 1_555 1_555
C33_18 C32_18 1_555 1_555
H20_18 C33_18 1_555 1_555
H21_18 C33_18 1_555 1_555
C34_18 C33_18 1_555 1_555
C35_18 C34_18 1_555 1_555
H22_18 C35_18 1_555 1_555
C36_18 C35_18 1_555 1_555
C37_18 C36_18 1_555 1_555
H23_18 C37_18 1_555 1_555
C38_18 C36_18 1_555 1_555
C39_18 C38_18 1_555 1_555
H24_18 C39_18 1_555 1_555
C40_18 C39_18 1_555 1_555
H25_18 C40_18 1_555 1_555
C41_18 C40_18 1_555 1_555
C42_18 C41_18 1_555 1_555
H26_18 C42_18 1_555 1_555
C43_18 C38_18 1_555 1_555
H27_18 C43_18 1_555 1_555
C44_18 O7_18 1_555 1_555
Cu11_16 O5_18 1_555 1_555
Cu9_2 O21_18 1_555 1_555
Cu14_16 O6_18 1_555 1_555
Cu12_2 O24_18 1_555 1_555
O14_10 Cu1_5 1_555 1_555
O16_10 Cu2_5 1_555 1_555
O18_10 Cu3_10 1_555 1_555
O20_10 Cu4_10 1_555 1_555
O21_18 C65_18 1_555 1_555
O22_18 Cu3_10 1_555 1_555
O23_18 Cu3_10 1_555 1_555
O24_18 C65_18 1_555 1_555
O25_18 Cu4_10 1_555 1_555
O26_18 Cu4_10 1_555 1_555
O28_6 C82_18 1_555 1_555
O28_7 Cu1_5 1_555 1_555
O30_6 C82_18 1_555 1_555
O30_7 Cu2_5 1_555 1_555
C65_18 C66_18 1_555 1_555
C66_18 C67_18 1_555 1_555
C67_18 H39_18 1_555 1_555
C68_18 C67_18 1_555 1_555
H40_18 C68_18 1_555 1_555
C69_18 C68_18 1_555 1_555
C70_18 C69_18 1_555 1_555
H41_18 C70_18 1_555 1_555
C71_18 C66_18 1_555 1_555
H42_18 C71_18 1_555 1_555
C72_18 C30_18 1_555 1_555
C73_18 C32_18 1_555 1_555
H43_18 C73_18 1_555 1_555
C74_18 C34_18 1_555 1_555
H44_18 C74_18 1_555 1_555
C75_18 C37_18 1_555 1_555
C76_18 C75_18 1_555 1_555
C77_18 C76_18 1_555 1_555
H45_18 C77_18 1_555 1_555
C78_18 C77_18 1_555 1_555
H46_18 C78_18 1_555 1_555
C79_18 C78_18 1_555 1_555
C80_18 C79_18 1_555 1_555
H47_18 C80_18 1_555 1_555
C81_18 C76_18 1_555 1_555
H48_18 C81_18 1_555 1_555
C82_18 C79_18 1_555 1_555
O8_18 C44_18 1_555 1_555
C6_18 C7_18 1_555 1_555
C12_18 C13_18 1_555 1_555
C19_18 C20_18 1_555 1_555
C27_18 C28_18 1_555 1_555
C41_18 C44_18 1_555 1_555
C42_18 C43_18 1_555 1_555
C69_18 C72_18 1_555 1_555
C70_18 C71_18 1_555 1_555
C72_18 C73_18 1_555 1_555
C74_18 C75_18 1_555 1_555
C80_18 C81_18 1_555 1_555
H8_36 C14_36 1_555 1_555
H9_36 C14_36 1_555 1_555
Cu5_7 O13_10 1_555 1_555
Cu7_7 O15_10 1_555 1_555
Cu10_10 O17_10 1_555 1_555
Cu13_10 O19_10 1_555 1_555
O13_10 C45_18 1_555 1_555
O15_10 C45_18 1_555 1_555
O17_10 C64_18 1_555 1_555
O19_10 C64_18 1_555 1_555
C45_18 C46_18 1_555 1_555
C46_18 C47_18 1_555 1_555
C47_18 H28_18 1_555 1_555
C48_18 C47_18 1_555 1_555
H29_18 C48_18 1_555 1_555
C49_18 C48_18 1_555 1_555
C50_18 C49_18 1_555 1_555
H30_18 C50_18 1_555 1_555
C51_18 C46_18 1_555 1_555
H31_18 C51_18 1_555 1_555
C52_18 C49_18 1_555 1_555
C53_18 C52_18 1_555 1_555
H32_18 C53_18 1_555 1_555
C54_18 C53_18 1_555 1_555
C55_18 C54_18 1_555 1_555
H33_18 C55_18 1_555 1_555
C56_18 C14_36 1_555 1_555
C57_18 C52_18 1_555 1_555
H34_18 C57_18 1_555 1_555
C58_18 C54_18 1_555 1_555
C59_18 C58_18 1_555 1_555
H35_18 C59_18 1_555 1_555
C60_18 C59_18 1_555 1_555
H36_18 C60_18 1_555 1_555
C61_18 C60_18 1_555 1_555
C62_18 C61_18 1_555 1_555
H37_18 C62_18 1_555 1_555
C63_18 C58_18 1_555 1_555
H38_18 C63_18 1_555 1_555
C64_18 C61_18 1_555 1_555
C50_18 C51_18 1_555 1_555
C55_18 C56_18 1_555 1_555
C56_18 C57_18 1_555 1_555
C62_18 C63_18 1_555 1_555
Cu6_9 O1_19 1_555 1_555
Cu8_9 O2_19 1_555 1_555
Cu3_11 O3_19 1_555 1_555
Cu4_11 O4_19 1_555 1_555
O1_19 C1_19 1_555 1_555
O2_19 C1_19 1_555 1_555
O3_19 C21_19 1_555 1_555
O4_19 C21_19 1_555 1_555
O5_19 C22_19 1_555 1_555
O6_19 C22_19 1_555 1_555
O7_19 Cu6_9 1_555 1_555
O8_19 Cu8_9 1_555 1_555
O9_19 Cu6_9 1_555 1_555
O10_19 Cu8_9 1_555 1_555
O11_19 Cu3_11 1_555 1_555
O12_19 Cu4_11 1_555 1_555
C1_19 C2_19 1_555 1_555
C2_19 C3_19 1_555 1_555
C3_19 H1_19 1_555 1_555
C4_19 C3_19 1_555 1_555
H2_19 C4_19 1_555 1_555
C5_19 C4_19 1_555 1_555
C6_19 C5_19 1_555 1_555
H3_19 C6_19 1_555 1_555
C7_19 C2_19 1_555 1_555
H4_19 C7_19 1_555 1_555
C8_19 C5_19 1_555 1_555
C9_19 C8_19 1_555 1_555
H5_19 C9_19 1_555 1_555
C10_19 C9_19 1_555 1_555
C11_19 C10_19 1_555 1_555
H6_19 C11_19 1_555 1_555
C12_19 C11_19 1_555 1_555
C13_19 C8_19 1_555 1_555
H7_19 C13_19 1_555 1_555
C14_37 C12_19 1_555 1_555
H8_37 C14_37 1_555 1_555
H9_37 C14_37 1_555 1_555
C15_19 C10_19 1_555 1_555
C16_19 C15_19 1_555 1_555
H10_19 C16_19 1_555 1_555
C17_19 C16_19 1_555 1_555
H11_19 C17_19 1_555 1_555
C18_19 C17_19 1_555 1_555
C19_19 C18_19 1_555 1_555
H12_19 C19_19 1_555 1_555
C20_19 C15_19 1_555 1_555
H13_19 C20_19 1_555 1_555
C21_19 C18_19 1_555 1_555
C22_19 C23_19 1_555 1_555
C23_19 C24_19 1_555 1_555
C24_19 H14_19 1_555 1_555
C25_19 C24_19 1_555 1_555
H15_19 C25_19 1_555 1_555
C26_19 C25_19 1_555 1_555
C27_19 C26_19 1_555 1_555
H16_19 C27_19 1_555 1_555
C28_19 C23_19 1_555 1_555
H17_19 C28_19 1_555 1_555
C29_19 C26_19 1_555 1_555
C30_19 C29_19 1_555 1_555
H18_19 C30_19 1_555 1_555
C31_19 C29_19 1_555 1_555
H19_19 C31_19 1_555 1_555
C32_19 C31_19 1_555 1_555
C33_19 C32_19 1_555 1_555
H20_19 C33_19 1_555 1_555
H21_19 C33_19 1_555 1_555
C34_19 C33_19 1_555 1_555
C35_19 C34_19 1_555 1_555
H22_19 C35_19 1_555 1_555
C36_19 C35_19 1_555 1_555
C37_19 C36_19 1_555 1_555
H23_19 C37_19 1_555 1_555
C38_19 C36_19 1_555 1_555
C39_19 C38_19 1_555 1_555
H24_19 C39_19 1_555 1_555
C40_19 C39_19 1_555 1_555
H25_19 C40_19 1_555 1_555
C41_19 C40_19 1_555 1_555
C42_19 C41_19 1_555 1_555
H26_19 C42_19 1_555 1_555
C43_19 C38_19 1_555 1_555
H27_19 C43_19 1_555 1_555
C44_19 O7_19 1_555 1_555
Cu6_10 O27_13 1_555 1_555
Cu8_10 O29_13 1_555 1_555
Cu11_14 O5_19 1_555 1_555
Cu9_6 O21_19 1_555 1_555
Cu14_14 O6_19 1_555 1_555
Cu12_6 O24_19 1_555 1_555
O14_11 Cu6_9 1_555 1_555
O16_11 Cu8_9 1_555 1_555
O18_11 Cu3_11 1_555 1_555
O20_11 Cu4_11 1_555 1_555
O21_19 C65_19 1_555 1_555
O22_19 Cu3_11 1_555 1_555
O23_19 Cu3_11 1_555 1_555
O24_19 C65_19 1_555 1_555
O25_19 Cu4_11 1_555 1_555
O26_19 Cu4_11 1_555 1_555
O27_13 C82_19 1_555 1_555
O29_13 C82_19 1_555 1_555
C65_19 C66_19 1_555 1_555
C66_19 C67_19 1_555 1_555
C67_19 H39_19 1_555 1_555
C68_19 C67_19 1_555 1_555
H40_19 C68_19 1_555 1_555
C69_19 C68_19 1_555 1_555
C70_19 C69_19 1_555 1_555
H41_19 C70_19 1_555 1_555
C71_19 C66_19 1_555 1_555
H42_19 C71_19 1_555 1_555
C72_19 C30_19 1_555 1_555
C73_19 C32_19 1_555 1_555
H43_19 C73_19 1_555 1_555
C74_19 C34_19 1_555 1_555
H44_19 C74_19 1_555 1_555
C75_19 C37_19 1_555 1_555
C76_19 C75_19 1_555 1_555
C77_19 C76_19 1_555 1_555
H45_19 C77_19 1_555 1_555
C78_19 C77_19 1_555 1_555
H46_19 C78_19 1_555 1_555
C79_19 C78_19 1_555 1_555
C80_19 C79_19 1_555 1_555
H47_19 C80_19 1_555 1_555
C81_19 C76_19 1_555 1_555
H48_19 C81_19 1_555 1_555
C82_19 C79_19 1_555 1_555
O8_19 C44_19 1_555 1_555
C6_19 C7_19 1_555 1_555
C12_19 C13_19 1_555 1_555
C19_19 C20_19 1_555 1_555
C27_19 C28_19 1_555 1_555
C41_19 C44_19 1_555 1_555
C42_19 C43_19 1_555 1_555
C69_19 C72_19 1_555 1_555
C70_19 C71_19 1_555 1_555
C72_19 C73_19 1_555 1_555
C74_19 C75_19 1_555 1_555
C80_19 C81_19 1_555 1_555
H8_38 C14_38 1_555 1_555
H9_38 C14_38 1_555 1_555
Cu5_8 O13_11 1_555 1_555
Cu7_8 O15_11 1_555 1_555
Cu10_11 O17_11 1_555 1_555
Cu13_11 O19_11 1_555 1_555
O13_11 C45_19 1_555 1_555
O15_11 C45_19 1_555 1_555
O17_11 C64_19 1_555 1_555
O19_11 C64_19 1_555 1_555
C45_19 C46_19 1_555 1_555
C46_19 C47_19 1_555 1_555
C47_19 H28_19 1_555 1_555
C48_19 C47_19 1_555 1_555
H29_19 C48_19 1_555 1_555
C49_19 C48_19 1_555 1_555
C50_19 C49_19 1_555 1_555
H30_19 C50_19 1_555 1_555
C51_19 C46_19 1_555 1_555
H31_19 C51_19 1_555 1_555
C52_19 C49_19 1_555 1_555
C53_19 C52_19 1_555 1_555
H32_19 C53_19 1_555 1_555
C54_19 C53_19 1_555 1_555
C55_19 C54_19 1_555 1_555
H33_19 C55_19 1_555 1_555
C56_19 C14_38 1_555 1_555
C57_19 C52_19 1_555 1_555
H34_19 C57_19 1_555 1_555
C58_19 C54_19 1_555 1_555
C59_19 C58_19 1_555 1_555
H35_19 C59_19 1_555 1_555
C60_19 C59_19 1_555 1_555
H36_19 C60_19 1_555 1_555
C61_19 C60_19 1_555 1_555
C62_19 C61_19 1_555 1_555
H37_19 C62_19 1_555 1_555
C63_19 C58_19 1_555 1_555
H38_19 C63_19 1_555 1_555
C64_19 C61_19 1_555 1_555
C50_19 C51_19 1_555 1_555
C55_19 C56_19 1_555 1_555
C56_19 C57_19 1_555 1_555
C62_19 C63_19 1_555 1_555
H8_39 C14_39 1_555 1_555
H9_39 C14_39 1_555 1_555
O14_10 C45_20 1_555 1_555
O16_10 C45_20 1_555 1_555
O18_9 C64_20 1_555 1_555
O20_9 C64_20 1_555 1_555
C45_20 C46_20 1_555 1_555
C46_20 C47_20 1_555 1_555
C47_20 H28_20 1_555 1_555
C48_20 C47_20 1_555 1_555
H29_20 C48_20 1_555 1_555
C49_20 C48_20 1_555 1_555
C50_20 C49_20 1_555 1_555
H30_20 C50_20 1_555 1_555
C51_20 C46_20 1_555 1_555
H31_20 C51_20 1_555 1_555
C52_20 C49_20 1_555 1_555
C53_20 C52_20 1_555 1_555
H32_20 C53_20 1_555 1_555
C54_20 C53_20 1_555 1_555
C55_20 C54_20 1_555 1_555
H33_20 C55_20 1_555 1_555
C56_20 C14_39 1_555 1_555
C57_20 C52_20 1_555 1_555
H34_20 C57_20 1_555 1_555
C58_20 C54_20 1_555 1_555
C59_20 C58_20 1_555 1_555
H35_20 C59_20 1_555 1_555
C60_20 C59_20 1_555 1_555
H36_20 C60_20 1_555 1_555
C61_20 C60_20 1_555 1_555
C62_20 C61_20 1_555 1_555
H37_20 C62_20 1_555 1_555
C63_20 C58_20 1_555 1_555
H38_20 C63_20 1_555 1_555
C64_20 C61_20 1_555 1_555
C50_20 C51_20 1_555 1_555
C55_20 C56_20 1_555 1_555
C56_20 C57_20 1_555 1_555
C62_20 C63_20 1_555 1_555
Cu5_7 O1_20 1_555 1_555
Cu7_7 O2_20 1_555 1_555
Cu10_9 O3_20 1_555 1_555
Cu13_9 O4_20 1_555 1_555
O1_20 C1_20 1_555 1_555
O2_20 C1_20 1_555 1_555
O3_20 C21_20 1_555 1_555
O4_20 C21_20 1_555 1_555
O5_20 C22_20 1_555 1_555
O6_20 C22_20 1_555 1_555
O7_20 Cu5_7 1_555 1_555
O8_20 Cu7_7 1_555 1_555
O9_20 Cu5_7 1_555 1_555
O10_20 Cu7_7 1_555 1_555
O11_20 Cu10_9 1_555 1_555
O12_20 Cu13_9 1_555 1_555
C1_20 C2_20 1_555 1_555
C2_20 C3_20 1_555 1_555
C3_20 H1_20 1_555 1_555
C4_20 C3_20 1_555 1_555
H2_20 C4_20 1_555 1_555
C5_20 C4_20 1_555 1_555
C6_20 C5_20 1_555 1_555
H3_20 C6_20 1_555 1_555
C7_20 C2_20 1_555 1_555
H4_20 C7_20 1_555 1_555
C8_20 C5_20 1_555 1_555
C9_20 C8_20 1_555 1_555
H5_20 C9_20 1_555 1_555
C10_20 C9_20 1_555 1_555
C11_20 C10_20 1_555 1_555
H6_20 C11_20 1_555 1_555
C12_20 C11_20 1_555 1_555
C13_20 C8_20 1_555 1_555
H7_20 C13_20 1_555 1_555
C14_40 C12_20 1_555 1_555
H8_40 C14_40 1_555 1_555
H9_40 C14_40 1_555 1_555
C15_20 C10_20 1_555 1_555
C16_20 C15_20 1_555 1_555
H10_20 C16_20 1_555 1_555
C17_20 C16_20 1_555 1_555
H11_20 C17_20 1_555 1_555
C18_20 C17_20 1_555 1_555
C19_20 C18_20 1_555 1_555
H12_20 C19_20 1_555 1_555
C20_20 C15_20 1_555 1_555
H13_20 C20_20 1_555 1_555
C21_20 C18_20 1_555 1_555
C22_20 C23_20 1_555 1_555
C23_20 C24_20 1_555 1_555
C24_20 H14_20 1_555 1_555
C25_20 C24_20 1_555 1_555
H15_20 C25_20 1_555 1_555
C26_20 C25_20 1_555 1_555
C27_20 C26_20 1_555 1_555
H16_20 C27_20 1_555 1_555
C28_20 C23_20 1_555 1_555
H17_20 C28_20 1_555 1_555
C29_20 C26_20 1_555 1_555
C30_20 C29_20 1_555 1_555
H18_20 C30_20 1_555 1_555
C31_20 C29_20 1_555 1_555
H19_20 C31_20 1_555 1_555
C32_20 C31_20 1_555 1_555
C33_20 C32_20 1_555 1_555
H20_20 C33_20 1_555 1_555
H21_20 C33_20 1_555 1_555
C34_20 C33_20 1_555 1_555
C35_20 C34_20 1_555 1_555
H22_20 C35_20 1_555 1_555
C36_20 C35_20 1_555 1_555
C37_20 C36_20 1_555 1_555
H23_20 C37_20 1_555 1_555
C38_20 C36_20 1_555 1_555
C39_20 C38_20 1_555 1_555
H24_20 C39_20 1_555 1_555
C40_20 C39_20 1_555 1_555
H25_20 C40_20 1_555 1_555
C41_20 C40_20 1_555 1_555
C42_20 C41_20 1_555 1_555
H26_20 C42_20 1_555 1_555
C43_20 C38_20 1_555 1_555
H27_20 C43_20 1_555 1_555
C44_20 O7_20 1_555 1_555
Cu6_11 O27_14 1_555 1_555
Cu8_11 O29_14 1_555 1_555
Cu11_12 O5_20 1_555 1_555
Cu9_8 O21_20 1_555 1_555
Cu14_12 O6_20 1_555 1_555
Cu12_8 O24_20 1_555 1_555
O21_20 C65_20 1_555 1_555
O22_20 Cu10_9 1_555 1_555
O23_20 Cu10_9 1_555 1_555
O24_20 C65_20 1_555 1_555
O25_20 Cu13_9 1_555 1_555
O26_20 Cu13_9 1_555 1_555
O27_14 C82_20 1_555 1_555
O28_8 Cu5_7 1_555 1_555
O29_14 C82_20 1_555 1_555
O30_8 Cu7_7 1_555 1_555
C65_20 C66_20 1_555 1_555
C66_20 C67_20 1_555 1_555
C67_20 H39_20 1_555 1_555
C68_20 C67_20 1_555 1_555
H40_20 C68_20 1_555 1_555
C69_20 C68_20 1_555 1_555
C70_20 C69_20 1_555 1_555
H41_20 C70_20 1_555 1_555
C71_20 C66_20 1_555 1_555
H42_20 C71_20 1_555 1_555
C72_20 C30_20 1_555 1_555
C73_20 C32_20 1_555 1_555
H43_20 C73_20 1_555 1_555
C74_20 C34_20 1_555 1_555
H44_20 C74_20 1_555 1_555
C75_20 C37_20 1_555 1_555
C76_20 C75_20 1_555 1_555
C77_20 C76_20 1_555 1_555
H45_20 C77_20 1_555 1_555
C78_20 C77_20 1_555 1_555
H46_20 C78_20 1_555 1_555
C79_20 C78_20 1_555 1_555
C80_20 C79_20 1_555 1_555
H47_20 C80_20 1_555 1_555
C81_20 C76_20 1_555 1_555
H48_20 C81_20 1_555 1_555
C82_20 C79_20 1_555 1_555
O8_20 C44_20 1_555 1_555
C6_20 C7_20 1_555 1_555
C12_20 C13_20 1_555 1_555
C19_20 C20_20 1_555 1_555
C27_20 C28_20 1_555 1_555
C41_20 C44_20 1_555 1_555
C42_20 C43_20 1_555 1_555
C69_20 C72_20 1_555 1_555
C70_20 C71_20 1_555 1_555
C72_20 C73_20 1_555 1_555
C74_20 C75_20 1_555 1_555
C80_20 C81_20 1_555 1_555
H8_41 C14_41 1_555 1_555
H9_41 C14_41 1_555 1_555
Cu6_10 O13_12 1_555 1_555
Cu8_10 O15_12 1_555 1_555
O13_12 C45_21 1_555 1_555
O15_12 C45_21 1_555 1_555
O18_10 C64_21 1_555 1_555
O20_10 C64_21 1_555 1_555
C45_21 C46_21 1_555 1_555
C46_21 C47_21 1_555 1_555
C47_21 H28_21 1_555 1_555
C48_21 C47_21 1_555 1_555
H29_21 C48_21 1_555 1_555
C49_21 C48_21 1_555 1_555
C50_21 C49_21 1_555 1_555
H30_21 C50_21 1_555 1_555
C51_21 C46_21 1_555 1_555
H31_21 C51_21 1_555 1_555
C52_21 C49_21 1_555 1_555
C53_21 C52_21 1_555 1_555
H32_21 C53_21 1_555 1_555
C54_21 C53_21 1_555 1_555
C55_21 C54_21 1_555 1_555
H33_21 C55_21 1_555 1_555
C56_21 C14_41 1_555 1_555
C57_21 C52_21 1_555 1_555
H34_21 C57_21 1_555 1_555
C58_21 C54_21 1_555 1_555
C59_21 C58_21 1_555 1_555
H35_21 C59_21 1_555 1_555
C60_21 C59_21 1_555 1_555
H36_21 C60_21 1_555 1_555
C61_21 C60_21 1_555 1_555
C62_21 C61_21 1_555 1_555
H37_21 C62_21 1_555 1_555
C63_21 C58_21 1_555 1_555
H38_21 C63_21 1_555 1_555
C64_21 C61_21 1_555 1_555
C50_21 C51_21 1_555 1_555
C55_21 C56_21 1_555 1_555
C56_21 C57_21 1_555 1_555
C62_21 C63_21 1_555 1_555
Cu6_11 O1_21 1_555 1_555
Cu8_11 O2_21 1_555 1_555
Cu10_10 O3_21 1_555 1_555
Cu13_10 O4_21 1_555 1_555
O1_21 C1_21 1_555 1_555
O2_21 C1_21 1_555 1_555
O3_21 C21_21 1_555 1_555
O4_21 C21_21 1_555 1_555
O5_21 C22_21 1_555 1_555
O6_21 C22_21 1_555 1_555
O7_21 Cu6_11 1_555 1_555
O8_21 Cu8_11 1_555 1_555
O9_21 Cu6_11 1_555 1_555
O10_21 Cu8_11 1_555 1_555
O11_21 Cu10_10 1_555 1_555
O12_21 Cu13_10 1_555 1_555
C1_21 C2_21 1_555 1_555
C2_21 C3_21 1_555 1_555
C3_21 H1_21 1_555 1_555
C4_21 C3_21 1_555 1_555
H2_21 C4_21 1_555 1_555
C5_21 C4_21 1_555 1_555
C6_21 C5_21 1_555 1_555
H3_21 C6_21 1_555 1_555
C7_21 C2_21 1_555 1_555
H4_21 C7_21 1_555 1_555
C8_21 C5_21 1_555 1_555
C9_21 C8_21 1_555 1_555
H5_21 C9_21 1_555 1_555
C10_21 C9_21 1_555 1_555
C11_21 C10_21 1_555 1_555
H6_21 C11_21 1_555 1_555
C12_21 C11_21 1_555 1_555
C13_21 C8_21 1_555 1_555
H7_21 C13_21 1_555 1_555
C14_42 C12_21 1_555 1_555
H8_42 C14_42 1_555 1_555
H9_42 C14_42 1_555 1_555
C15_21 C10_21 1_555 1_555
C16_21 C15_21 1_555 1_555
H10_21 C16_21 1_555 1_555
C17_21 C16_21 1_555 1_555
H11_21 C17_21 1_555 1_555
C18_21 C17_21 1_555 1_555
C19_21 C18_21 1_555 1_555
H12_21 C19_21 1_555 1_555
C20_21 C15_21 1_555 1_555
H13_21 C20_21 1_555 1_555
C21_21 C18_21 1_555 1_555
C22_21 C23_21 1_555 1_555
C23_21 C24_21 1_555 1_555
C24_21 H14_21 1_555 1_555
C25_21 C24_21 1_555 1_555
H15_21 C25_21 1_555 1_555
C26_21 C25_21 1_555 1_555
C27_21 C26_21 1_555 1_555
H16_21 C27_21 1_555 1_555
C28_21 C23_21 1_555 1_555
H17_21 C28_21 1_555 1_555
C29_21 C26_21 1_555 1_555
C30_21 C29_21 1_555 1_555
H18_21 C30_21 1_555 1_555
C31_21 C29_21 1_555 1_555
H19_21 C31_21 1_555 1_555
C32_21 C31_21 1_555 1_555
C33_21 C32_21 1_555 1_555
H20_21 C33_21 1_555 1_555
H21_21 C33_21 1_555 1_555
C34_21 C33_21 1_555 1_555
C35_21 C34_21 1_555 1_555
H22_21 C35_21 1_555 1_555
C36_21 C35_21 1_555 1_555
C37_21 C36_21 1_555 1_555
H23_21 C37_21 1_555 1_555
C38_21 C36_21 1_555 1_555
C39_21 C38_21 1_555 1_555
H24_21 C39_21 1_555 1_555
C40_21 C39_21 1_555 1_555
H25_21 C40_21 1_555 1_555
C41_21 C40_21 1_555 1_555
C42_21 C41_21 1_555 1_555
H26_21 C42_21 1_555 1_555
C43_21 C38_21 1_555 1_555
H27_21 C43_21 1_555 1_555
C44_21 O7_21 1_555 1_555
Cu5_8 O27_15 1_555 1_555
Cu7_8 O29_15 1_555 1_555
Cu11_10 O5_21 1_555 1_555
Cu9_7 O21_21 1_555 1_555
Cu14_10 O6_21 1_555 1_555
Cu12_7 O24_21 1_555 1_555
O14_12 Cu6_11 1_555 1_555
O16_12 Cu8_11 1_555 1_555
O21_21 C65_21 1_555 1_555
O22_21 Cu10_10 1_555 1_555
O23_21 Cu10_10 1_555 1_555
O24_21 C65_21 1_555 1_555
O25_21 Cu13_10 1_555 1_555
O26_21 Cu13_10 1_555 1_555
O27_15 C82_21 1_555 1_555
O29_15 C82_21 1_555 1_555
C65_21 C66_21 1_555 1_555
C66_21 C67_21 1_555 1_555
C67_21 H39_21 1_555 1_555
C68_21 C67_21 1_555 1_555
H40_21 C68_21 1_555 1_555
C69_21 C68_21 1_555 1_555
C70_21 C69_21 1_555 1_555
H41_21 C70_21 1_555 1_555
C71_21 C66_21 1_555 1_555
H42_21 C71_21 1_555 1_555
C72_21 C30_21 1_555 1_555
C73_21 C32_21 1_555 1_555
H43_21 C73_21 1_555 1_555
C74_21 C34_21 1_555 1_555
H44_21 C74_21 1_555 1_555
C75_21 C37_21 1_555 1_555
C76_21 C75_21 1_555 1_555
C77_21 C76_21 1_555 1_555
H45_21 C77_21 1_555 1_555
C78_21 C77_21 1_555 1_555
H46_21 C78_21 1_555 1_555
C79_21 C78_21 1_555 1_555
C80_21 C79_21 1_555 1_555
H47_21 C80_21 1_555 1_555
C81_21 C76_21 1_555 1_555
H48_21 C81_21 1_555 1_555
C82_21 C79_21 1_555 1_555
O8_21 C44_21 1_555 1_555
C6_21 C7_21 1_555 1_555
C12_21 C13_21 1_555 1_555
C19_21 C20_21 1_555 1_555
C27_21 C28_21 1_555 1_555
C41_21 C44_21 1_555 1_555
C42_21 C43_21 1_555 1_555
C69_21 C72_21 1_555 1_555
C70_21 C71_21 1_555 1_555
C72_21 C73_21 1_555 1_555
C74_21 C75_21 1_555 1_555
C80_21 C81_21 1_555 1_555
H8_43 C14_43 1_555 1_555
H9_43 C14_43 1_555 1_555
Cu10_12 O17_12 1_555 1_555
Cu13_12 O19_12 1_555 1_555
O14_11 C45_22 1_555 1_555
O16_11 C45_22 1_555 1_555
O17_12 C64_22 1_555 1_555
O19_12 C64_22 1_555 1_555
C45_22 C46_22 1_555 1_555
C46_22 C47_22 1_555 1_555
C47_22 H28_22 1_555 1_555
C48_22 C47_22 1_555 1_555
H29_22 C48_22 1_555 1_555
C49_22 C48_22 1_555 1_555
C50_22 C49_22 1_555 1_555
H30_22 C50_22 1_555 1_555
C51_22 C46_22 1_555 1_555
H31_22 C51_22 1_555 1_555
C52_22 C49_22 1_555 1_555
C53_22 C52_22 1_555 1_555
H32_22 C53_22 1_555 1_555
C54_22 C53_22 1_555 1_555
C55_22 C54_22 1_555 1_555
H33_22 C55_22 1_555 1_555
C56_22 C14_43 1_555 1_555
C57_22 C52_22 1_555 1_555
H34_22 C57_22 1_555 1_555
C58_22 C54_22 1_555 1_555
C59_22 C58_22 1_555 1_555
H35_22 C59_22 1_555 1_555
C60_22 C59_22 1_555 1_555
H36_22 C60_22 1_555 1_555
C61_22 C60_22 1_555 1_555
C62_22 C61_22 1_555 1_555
H37_22 C62_22 1_555 1_555
C63_22 C58_22 1_555 1_555
H38_22 C63_22 1_555 1_555
C64_22 C61_22 1_555 1_555
C50_22 C51_22 1_555 1_555
C55_22 C56_22 1_555 1_555
C56_22 C57_22 1_555 1_555
C62_22 C63_22 1_555 1_555
Cu5_8 O1_22 1_555 1_555
Cu7_8 O2_22 1_555 1_555
Cu3_12 O3_22 1_555 1_555
Cu4_12 O4_22 1_555 1_555
O1_22 C1_22 1_555 1_555
O2_22 C1_22 1_555 1_555
O3_22 C21_22 1_555 1_555
O4_22 C21_22 1_555 1_555
O5_22 C22_22 1_555 1_555
O6_22 C22_22 1_555 1_555
O7_22 Cu5_8 1_555 1_555
O8_22 Cu7_8 1_555 1_555
O9_22 Cu5_8 1_555 1_555
O10_22 Cu7_8 1_555 1_555
O11_22 Cu3_12 1_555 1_555
O12_22 Cu4_12 1_555 1_555
C1_22 C2_22 1_555 1_555
C2_22 C3_22 1_555 1_555
C3_22 H1_22 1_555 1_555
C4_22 C3_22 1_555 1_555
H2_22 C4_22 1_555 1_555
C5_22 C4_22 1_555 1_555
C6_22 C5_22 1_555 1_555
H3_22 C6_22 1_555 1_555
C7_22 C2_22 1_555 1_555
H4_22 C7_22 1_555 1_555
C8_22 C5_22 1_555 1_555
C9_22 C8_22 1_555 1_555
H5_22 C9_22 1_555 1_555
C10_22 C9_22 1_555 1_555
C11_22 C10_22 1_555 1_555
H6_22 C11_22 1_555 1_555
C12_22 C11_22 1_555 1_555
C13_22 C8_22 1_555 1_555
H7_22 C13_22 1_555 1_555
C14_44 C12_22 1_555 1_555
H8_44 C14_44 1_555 1_555
H9_44 C14_44 1_555 1_555
C15_22 C10_22 1_555 1_555
C16_22 C15_22 1_555 1_555
H10_22 C16_22 1_555 1_555
C17_22 C16_22 1_555 1_555
H11_22 C17_22 1_555 1_555
C18_22 C17_22 1_555 1_555
C19_22 C18_22 1_555 1_555
H12_22 C19_22 1_555 1_555
C20_22 C15_22 1_555 1_555
H13_22 C20_22 1_555 1_555
C21_22 C18_22 1_555 1_555
C22_22 C23_22 1_555 1_555
C23_22 C24_22 1_555 1_555
C24_22 H14_22 1_555 1_555
C25_22 C24_22 1_555 1_555
H15_22 C25_22 1_555 1_555
C26_22 C25_22 1_555 1_555
C27_22 C26_22 1_555 1_555
H16_22 C27_22 1_555 1_555
C28_22 C23_22 1_555 1_555
H17_22 C28_22 1_555 1_555
C29_22 C26_22 1_555 1_555
C30_22 C29_22 1_555 1_555
H18_22 C30_22 1_555 1_555
C31_22 C29_22 1_555 1_555
H19_22 C31_22 1_555 1_555
C32_22 C31_22 1_555 1_555
C33_22 C32_22 1_555 1_555
H20_22 C33_22 1_555 1_555
H21_22 C33_22 1_555 1_555
C34_22 C33_22 1_555 1_555
C35_22 C34_22 1_555 1_555
H22_22 C35_22 1_555 1_555
C36_22 C35_22 1_555 1_555
C37_22 C36_22 1_555 1_555
H23_22 C37_22 1_555 1_555
C38_22 C36_22 1_555 1_555
C39_22 C38_22 1_555 1_555
H24_22 C39_22 1_555 1_555
C40_22 C39_22 1_555 1_555
H25_22 C40_22 1_555 1_555
C41_22 C40_22 1_555 1_555
C42_22 C41_22 1_555 1_555
H26_22 C42_22 1_555 1_555
C43_22 C38_22 1_555 1_555
H27_22 C43_22 1_555 1_555
C44_22 O7_22 1_555 1_555
Cu5_6 O27_16 1_555 1_555
Cu7_6 O29_16 1_555 1_555
Cu11_7 O5_22 1_555 1_555
Cu9_5 O21_22 1_555 1_555
Cu14_7 O6_22 1_555 1_555
Cu12_5 O24_22 1_555 1_555
O18_12 Cu3_12 1_555 1_555
O20_12 Cu4_12 1_555 1_555
O21_22 C65_22 1_555 1_555
O22_22 Cu3_12 1_555 1_555
O23_22 Cu3_12 1_555 1_555
O24_22 C65_22 1_555 1_555
O25_22 Cu4_12 1_555 1_555
O26_22 Cu4_12 1_555 1_555
O27_16 C82_22 1_555 1_555
O29_16 C82_22 1_555 1_555
C65_22 C66_22 1_555 1_555
C66_22 C67_22 1_555 1_555
C67_22 H39_22 1_555 1_555
C68_22 C67_22 1_555 1_555
H40_22 C68_22 1_555 1_555
C69_22 C68_22 1_555 1_555
C70_22 C69_22 1_555 1_555
H41_22 C70_22 1_555 1_555
C71_22 C66_22 1_555 1_555
H42_22 C71_22 1_555 1_555
C72_22 C30_22 1_555 1_555
C73_22 C32_22 1_555 1_555
H43_22 C73_22 1_555 1_555
C74_22 C34_22 1_555 1_555
H44_22 C74_22 1_555 1_555
C75_22 C37_22 1_555 1_555
C76_22 C75_22 1_555 1_555
C77_22 C76_22 1_555 1_555
H45_22 C77_22 1_555 1_555
C78_22 C77_22 1_555 1_555
H46_22 C78_22 1_555 1_555
C79_22 C78_22 1_555 1_555
C80_22 C79_22 1_555 1_555
H47_22 C80_22 1_555 1_555
C81_22 C76_22 1_555 1_555
H48_22 C81_22 1_555 1_555
C82_22 C79_22 1_555 1_555
O8_22 C44_22 1_555 1_555
C6_22 C7_22 1_555 1_555
C12_22 C13_22 1_555 1_555
C19_22 C20_22 1_555 1_555
C27_22 C28_22 1_555 1_555
C41_22 C44_22 1_555 1_555
C42_22 C43_22 1_555 1_555
C69_22 C72_22 1_555 1_555
C70_22 C71_22 1_555 1_555
C72_22 C73_22 1_555 1_555
C74_22 C75_22 1_555 1_555
C80_22 C81_22 1_555 1_555
H8_45 C14_45 1_555 1_555
H9_45 C14_45 1_555 1_555
O14_9 C45_23 1_555 1_555
O16_9 C45_23 1_555 1_555
O18_11 C64_23 1_555 1_555
O20_11 C64_23 1_555 1_555
C45_23 C46_23 1_555 1_555
C46_23 C47_23 1_555 1_555
C47_23 H28_23 1_555 1_555
C48_23 C47_23 1_555 1_555
H29_23 C48_23 1_555 1_555
C49_23 C48_23 1_555 1_555
C50_23 C49_23 1_555 1_555
H30_23 C50_23 1_555 1_555
C51_23 C46_23 1_555 1_555
H31_23 C51_23 1_555 1_555
C52_23 C49_23 1_555 1_555
C53_23 C52_23 1_555 1_555
H32_23 C53_23 1_555 1_555
C54_23 C53_23 1_555 1_555
C55_23 C54_23 1_555 1_555
H33_23 C55_23 1_555 1_555
C56_23 C14_45 1_555 1_555
C57_23 C52_23 1_555 1_555
H34_23 C57_23 1_555 1_555
C58_23 C54_23 1_555 1_555
C59_23 C58_23 1_555 1_555
H35_23 C59_23 1_555 1_555
C60_23 C59_23 1_555 1_555
H36_23 C60_23 1_555 1_555
C61_23 C60_23 1_555 1_555
C62_23 C61_23 1_555 1_555
H37_23 C62_23 1_555 1_555
C63_23 C58_23 1_555 1_555
H38_23 C63_23 1_555 1_555
C64_23 C61_23 1_555 1_555
C50_23 C51_23 1_555 1_555
C55_23 C56_23 1_555 1_555
C56_23 C57_23 1_555 1_555
C62_23 C63_23 1_555 1_555
Cu5_6 O1_23 1_555 1_555
Cu7_6 O2_23 1_555 1_555
Cu10_11 O3_23 1_555 1_555
Cu13_11 O4_23 1_555 1_555
O1_23 C1_23 1_555 1_555
O2_23 C1_23 1_555 1_555
O3_23 C21_23 1_555 1_555
O4_23 C21_23 1_555 1_555
O5_23 C22_23 1_555 1_555
O6_23 C22_23 1_555 1_555
O7_23 Cu5_6 1_555 1_555
O8_23 Cu7_6 1_555 1_555
O9_23 Cu5_6 1_555 1_555
O10_23 Cu7_6 1_555 1_555
O11_23 Cu10_11 1_555 1_555
O12_23 Cu13_11 1_555 1_555
C1_23 C2_23 1_555 1_555
C2_23 C3_23 1_555 1_555
C3_23 H1_23 1_555 1_555
C4_23 C3_23 1_555 1_555
H2_23 C4_23 1_555 1_555
C5_23 C4_23 1_555 1_555
C6_23 C5_23 1_555 1_555
H3_23 C6_23 1_555 1_555
C7_23 C2_23 1_555 1_555
H4_23 C7_23 1_555 1_555
C8_23 C5_23 1_555 1_555
C9_23 C8_23 1_555 1_555
H5_23 C9_23 1_555 1_555
C10_23 C9_23 1_555 1_555
C11_23 C10_23 1_555 1_555
H6_23 C11_23 1_555 1_555
C12_23 C11_23 1_555 1_555
C13_23 C8_23 1_555 1_555
H7_23 C13_23 1_555 1_555
C14_46 C12_23 1_555 1_555
H8_46 C14_46 1_555 1_555
H9_46 C14_46 1_555 1_555
C15_23 C10_23 1_555 1_555
C16_23 C15_23 1_555 1_555
H10_23 C16_23 1_555 1_555
C17_23 C16_23 1_555 1_555
H11_23 C17_23 1_555 1_555
C18_23 C17_23 1_555 1_555
C19_23 C18_23 1_555 1_555
H12_23 C19_23 1_555 1_555
C20_23 C15_23 1_555 1_555
H13_23 C20_23 1_555 1_555
C21_23 C18_23 1_555 1_555
C22_23 C23_23 1_555 1_555
C23_23 C24_23 1_555 1_555
C24_23 H14_23 1_555 1_555
C25_23 C24_23 1_555 1_555
H15_23 C25_23 1_555 1_555
C26_23 C25_23 1_555 1_555
C27_23 C26_23 1_555 1_555
H16_23 C27_23 1_555 1_555
C28_23 C23_23 1_555 1_555
H17_23 C28_23 1_555 1_555
C29_23 C26_23 1_555 1_555
C30_23 C29_23 1_555 1_555
H18_23 C30_23 1_555 1_555
C31_23 C29_23 1_555 1_555
H19_23 C31_23 1_555 1_555
C32_23 C31_23 1_555 1_555
C33_23 C32_23 1_555 1_555
H20_23 C33_23 1_555 1_555
H21_23 C33_23 1_555 1_555
C34_23 C33_23 1_555 1_555
C35_23 C34_23 1_555 1_555
H22_23 C35_23 1_555 1_555
C36_23 C35_23 1_555 1_555
C37_23 C36_23 1_555 1_555
H23_23 C37_23 1_555 1_555
C38_23 C36_23 1_555 1_555
C39_23 C38_23 1_555 1_555
H24_23 C39_23 1_555 1_555
C40_23 C39_23 1_555 1_555
H25_23 C40_23 1_555 1_555
C41_23 C40_23 1_555 1_555
C42_23 C41_23 1_555 1_555
H26_23 C42_23 1_555 1_555
C43_23 C38_23 1_555 1_555
H27_23 C43_23 1_555 1_555
C44_23 O7_23 1_555 1_555
Cu11_4 O5_23 1_555 1_555
Cu9_3 O21_23 1_555 1_555
Cu14_4 O6_23 1_555 1_555
Cu12_3 O24_23 1_555 1_555
O21_23 C65_23 1_555 1_555
O22_23 Cu10_11 1_555 1_555
O23_23 Cu10_11 1_555 1_555
O24_23 C65_23 1_555 1_555
O25_23 Cu13_11 1_555 1_555
O26_23 Cu13_11 1_555 1_555
O28_8 C82_23 1_555 1_555
O30_8 C82_23 1_555 1_555
C65_23 C66_23 1_555 1_555
C66_23 C67_23 1_555 1_555
C67_23 H39_23 1_555 1_555
C68_23 C67_23 1_555 1_555
H40_23 C68_23 1_555 1_555
C69_23 C68_23 1_555 1_555
C70_23 C69_23 1_555 1_555
H41_23 C70_23 1_555 1_555
C71_23 C66_23 1_555 1_555
H42_23 C71_23 1_555 1_555
C72_23 C30_23 1_555 1_555
C73_23 C32_23 1_555 1_555
H43_23 C73_23 1_555 1_555
C74_23 C34_23 1_555 1_555
H44_23 C74_23 1_555 1_555
C75_23 C37_23 1_555 1_555
C76_23 C75_23 1_555 1_555
C77_23 C76_23 1_555 1_555
H45_23 C77_23 1_555 1_555
C78_23 C77_23 1_555 1_555
H46_23 C78_23 1_555 1_555
C79_23 C78_23 1_555 1_555
C80_23 C79_23 1_555 1_555
H47_23 C80_23 1_555 1_555
C81_23 C76_23 1_555 1_555
H48_23 C81_23 1_555 1_555
C82_23 C79_23 1_555 1_555
O8_23 C44_23 1_555 1_555
C6_23 C7_23 1_555 1_555
C12_23 C13_23 1_555 1_555
C19_23 C20_23 1_555 1_555
C27_23 C28_23 1_555 1_555
C41_23 C44_23 1_555 1_555
C42_23 C43_23 1_555 1_555
C69_23 C72_23 1_555 1_555
C70_23 C71_23 1_555 1_555
C72_23 C73_23 1_555 1_555
C74_23 C75_23 1_555 1_555
C80_23 C81_23 1_555 1_555
Cu6_10 O1_24 1_555 1_555
Cu8_10 O2_24 1_555 1_555
Cu10_12 O3_24 1_555 1_555
Cu13_12 O4_24 1_555 1_555
O1_24 C1_24 1_555 1_555
O2_24 C1_24 1_555 1_555
O3_24 C21_24 1_555 1_555
O4_24 C21_24 1_555 1_555
O5_24 C22_24 1_555 1_555
O6_24 C22_24 1_555 1_555
O7_24 Cu6_10 1_555 1_555
O8_24 Cu8_10 1_555 1_555
O9_24 Cu6_10 1_555 1_555
O10_24 Cu8_10 1_555 1_555
O11_24 Cu10_12 1_555 1_555
O12_24 Cu13_12 1_555 1_555
C1_24 C2_24 1_555 1_555
C2_24 C3_24 1_555 1_555
C3_24 H1_24 1_555 1_555
C4_24 C3_24 1_555 1_555
H2_24 C4_24 1_555 1_555
C5_24 C4_24 1_555 1_555
C6_24 C5_24 1_555 1_555
H3_24 C6_24 1_555 1_555
C7_24 C2_24 1_555 1_555
H4_24 C7_24 1_555 1_555
C8_24 C5_24 1_555 1_555
C9_24 C8_24 1_555 1_555
H5_24 C9_24 1_555 1_555
C10_24 C9_24 1_555 1_555
C11_24 C10_24 1_555 1_555
H6_24 C11_24 1_555 1_555
C12_24 C11_24 1_555 1_555
C13_24 C8_24 1_555 1_555
H7_24 C13_24 1_555 1_555
C14_47 C12_24 1_555 1_555
H8_47 C14_47 1_555 1_555
H9_47 C14_47 1_555 1_555
C15_24 C10_24 1_555 1_555
C16_24 C15_24 1_555 1_555
H10_24 C16_24 1_555 1_555
C17_24 C16_24 1_555 1_555
H11_24 C17_24 1_555 1_555
C18_24 C17_24 1_555 1_555
C19_24 C18_24 1_555 1_555
H12_24 C19_24 1_555 1_555
C20_24 C15_24 1_555 1_555
H13_24 C20_24 1_555 1_555
C21_24 C18_24 1_555 1_555
C22_24 C23_24 1_555 1_555
C23_24 C24_24 1_555 1_555
C24_24 H14_24 1_555 1_555
C25_24 C24_24 1_555 1_555
H15_24 C25_24 1_555 1_555
C26_24 C25_24 1_555 1_555
C27_24 C26_24 1_555 1_555
H16_24 C27_24 1_555 1_555
C28_24 C23_24 1_555 1_555
H17_24 C28_24 1_555 1_555
C29_24 C26_24 1_555 1_555
C30_24 C29_24 1_555 1_555
H18_24 C30_24 1_555 1_555
C31_24 C29_24 1_555 1_555
H19_24 C31_24 1_555 1_555
C32_24 C31_24 1_555 1_555
C33_24 C32_24 1_555 1_555
H20_24 C33_24 1_555 1_555
H21_24 C33_24 1_555 1_555
C34_24 C33_24 1_555 1_555
C35_24 C34_24 1_555 1_555
H22_24 C35_24 1_555 1_555
C36_24 C35_24 1_555 1_555
C37_24 C36_24 1_555 1_555
H23_24 C37_24 1_555 1_555
C38_24 C36_24 1_555 1_555
C39_24 C38_24 1_555 1_555
H24_24 C39_24 1_555 1_555
C40_24 C39_24 1_555 1_555
H25_24 C40_24 1_555 1_555
C41_24 C40_24 1_555 1_555
C42_24 C41_24 1_555 1_555
H26_24 C42_24 1_555 1_555
C43_24 C38_24 1_555 1_555
H27_24 C43_24 1_555 1_555
C44_24 O7_24 1_555 1_555
Cu11_13 O5_24 1_555 1_555
Cu9 O21_24 1_555 1_555
Cu14_13 O6_24 1_555 1_555
Cu12 O24_24 1_555 1_555
O21_24 C65_24 1_555 1_555
O22_24 Cu10_12 1_555 1_555
O23_24 Cu10_12 1_555 1_555
O24_24 C65_24 1_555 1_555
O25_24 Cu13_12 1_555 1_555
O26_24 Cu13_12 1_555 1_555
O28_7 C82_24 1_555 1_555
O30_7 C82_24 1_555 1_555
C65_24 C66_24 1_555 1_555
C66_24 C67_24 1_555 1_555
C67_24 H39_24 1_555 1_555
C68_24 C67_24 1_555 1_555
H40_24 C68_24 1_555 1_555
C69_24 C68_24 1_555 1_555
C70_24 C69_24 1_555 1_555
H41_24 C70_24 1_555 1_555
C71_24 C66_24 1_555 1_555
H42_24 C71_24 1_555 1_555
C72_24 C30_24 1_555 1_555
C73_24 C32_24 1_555 1_555
H43_24 C73_24 1_555 1_555
C74_24 C34_24 1_555 1_555
H44_24 C74_24 1_555 1_555
C75_24 C37_24 1_555 1_555
C76_24 C75_24 1_555 1_555
C77_24 C76_24 1_555 1_555
H45_24 C77_24 1_555 1_555
C78_24 C77_24 1_555 1_555
H46_24 C78_24 1_555 1_555
C79_24 C78_24 1_555 1_555
C80_24 C79_24 1_555 1_555
H47_24 C80_24 1_555 1_555
C81_24 C76_24 1_555 1_555
H48_24 C81_24 1_555 1_555
C82_24 C79_24 1_555 1_555
O8_24 C44_24 1_555 1_555
C6_24 C7_24 1_555 1_555
C12_24 C13_24 1_555 1_555
C19_24 C20_24 1_555 1_555
C27_24 C28_24 1_555 1_555
C41_24 C44_24 1_555 1_555
C42_24 C43_24 1_555 1_555
C69_24 C72_24 1_555 1_555
C70_24 C71_24 1_555 1_555
C72_24 C73_24 1_555 1_555
C74_24 C75_24 1_555 1_555
C80_24 C81_24 1_555 1_555
H8_48 C14_48 1_555 1_555
H9_48 C14_48 1_555 1_555
O14_12 C45_24 1_555 1_555
O16_12 C45_24 1_555 1_555
O18_12 C64_24 1_555 1_555
O20_12 C64_24 1_555 1_555
C45_24 C46_24 1_555 1_555
C46_24 C47_24 1_555 1_555
C47_24 H28_24 1_555 1_555
C48_24 C47_24 1_555 1_555
H29_24 C48_24 1_555 1_555
C49_24 C48_24 1_555 1_555
C50_24 C49_24 1_555 1_555
H30_24 C50_24 1_555 1_555
C51_24 C46_24 1_555 1_555
H31_24 C51_24 1_555 1_555
C52_24 C49_24 1_555 1_555
C53_24 C52_24 1_555 1_555
H32_24 C53_24 1_555 1_555
C54_24 C53_24 1_555 1_555
C55_24 C54_24 1_555 1_555
H33_24 C55_24 1_555 1_555
C56_24 C14_48 1_555 1_555
C57_24 C52_24 1_555 1_555
H34_24 C57_24 1_555 1_555
C58_24 C54_24 1_555 1_555
C59_24 C58_24 1_555 1_555
H35_24 C59_24 1_555 1_555
C60_24 C59_24 1_555 1_555
H36_24 C60_24 1_555 1_555
C61_24 C60_24 1_555 1_555
C62_24 C61_24 1_555 1_555
H37_24 C62_24 1_555 1_555
C63_24 C58_24 1_555 1_555
H38_24 C63_24 1_555 1_555
C64_24 C61_24 1_555 1_555
C50_24 C51_24 1_555 1_555
C55_24 C56_24 1_555 1_555
C56_24 C57_24 1_555 1_555
C62_24 C63_24 1_555 1_555
O22_15 C22_25 1_555 1_555
O25_15 C22_25 1_555 1_555
O7_25 Cu1_6 1_555 1_555
O8_25 Cu2_6 1_555 1_555
O9_25 Cu1_6 1_555 1_555
O10_25 Cu2_6 1_555 1_555
C22_25 C23_25 1_555 1_555
C23_25 C24_25 1_555 1_555
C24_25 H14_25 1_555 1_555
C25_25 C24_25 1_555 1_555
H15_25 C25_25 1_555 1_555
C26_25 C25_25 1_555 1_555
C27_25 C26_25 1_555 1_555
H16_25 C27_25 1_555 1_555
C28_25 C23_25 1_555 1_555
H17_25 C28_25 1_555 1_555
C29_25 C26_25 1_555 1_555
C30_25 C29_25 1_555 1_555
H18_25 C30_25 1_555 1_555
C31_25 C29_25 1_555 1_555
H19_25 C31_25 1_555 1_555
C32_25 C31_25 1_555 1_555
C33_25 C32_25 1_555 1_555
H20_25 C33_25 1_555 1_555
H21_25 C33_25 1_555 1_555
C34_25 C33_25 1_555 1_555
C35_25 C34_25 1_555 1_555
H22_25 C35_25 1_555 1_555
C36_25 C35_25 1_555 1_555
C37_25 C36_25 1_555 1_555
H23_25 C37_25 1_555 1_555
C38_25 C36_25 1_555 1_555
C39_25 C38_25 1_555 1_555
H24_25 C39_25 1_555 1_555
C40_25 C39_25 1_555 1_555
H25_25 C40_25 1_555 1_555
C41_25 C40_25 1_555 1_555
C42_25 C41_25 1_555 1_555
H26_25 C42_25 1_555 1_555
C43_25 C38_25 1_555 1_555
H27_25 C43_25 1_555 1_555
C44_25 O7_25 1_555 1_555
Cu6_13 O27_17 1_555 1_555
Cu8_13 O29_17 1_555 1_555
O14_13 Cu1_6 1_555 1_555
O16_13 Cu2_6 1_555 1_555
O23_23 C65_25 1_555 1_555
O26_23 C65_25 1_555 1_555
O27_17 C82_25 1_555 1_555
O29_17 C82_25 1_555 1_555
C65_25 C66_25 1_555 1_555
C66_25 C67_25 1_555 1_555
C67_25 H39_25 1_555 1_555
C68_25 C67_25 1_555 1_555
H40_25 C68_25 1_555 1_555
C69_25 C68_25 1_555 1_555
C70_25 C69_25 1_555 1_555
H41_25 C70_25 1_555 1_555
C71_25 C66_25 1_555 1_555
H42_25 C71_25 1_555 1_555
C72_25 C30_25 1_555 1_555
C73_25 C32_25 1_555 1_555
H43_25 C73_25 1_555 1_555
C74_25 C34_25 1_555 1_555
H44_25 C74_25 1_555 1_555
C75_25 C37_25 1_555 1_555
C76_25 C75_25 1_555 1_555
C77_25 C76_25 1_555 1_555
H45_25 C77_25 1_555 1_555
C78_25 C77_25 1_555 1_555
H46_25 C78_25 1_555 1_555
C79_25 C78_25 1_555 1_555
C80_25 C79_25 1_555 1_555
H47_25 C80_25 1_555 1_555
C81_25 C76_25 1_555 1_555
H48_25 C81_25 1_555 1_555
C82_25 C79_25 1_555 1_555
O8_25 C44_25 1_555 1_555
C27_25 C28_25 1_555 1_555
C41_25 C44_25 1_555 1_555
C42_25 C43_25 1_555 1_555
C69_25 C72_25 1_555 1_555
C70_25 C71_25 1_555 1_555
C72_25 C73_25 1_555 1_555
C74_25 C75_25 1_555 1_555
C80_25 C81_25 1_555 1_555
O10_25 H52 1_555 1_555
O9_25 H55 1_555 1_555
O9_25 H56 1_555 1_555
Cu1_7 O1_25 1_555 1_555
Cu2_7 O2_25 1_555 1_555
Cu11_10 O3_25 1_555 1_555
Cu14_10 O4_25 1_555 1_555
O1_25 C1_25 1_555 1_555
O2_25 C1_25 1_555 1_555
O3_25 C21_25 1_555 1_555
O4_25 C21_25 1_555 1_555
O9_26 Cu1_7 1_555 1_555
O10_26 Cu2_7 1_555 1_555
O11_25 Cu11_10 1_555 1_555
O12_25 Cu14_10 1_555 1_555
C1_25 C2_25 1_555 1_555
C2_25 C3_25 1_555 1_555
C3_25 H1_25 1_555 1_555
C4_25 C3_25 1_555 1_555
H2_25 C4_25 1_555 1_555
C5_25 C4_25 1_555 1_555
C6_25 C5_25 1_555 1_555
H3_25 C6_25 1_555 1_555
C7_25 C2_25 1_555 1_555
H4_25 C7_25 1_555 1_555
C8_25 C5_25 1_555 1_555
C9_25 C8_25 1_555 1_555
H5_25 C9_25 1_555 1_555
C10_25 C9_25 1_555 1_555
C11_25 C10_25 1_555 1_555
H6_25 C11_25 1_555 1_555
C12_25 C11_25 1_555 1_555
C13_25 C8_25 1_555 1_555
H7_25 C13_25 1_555 1_555
C14_49 C12_25 1_555 1_555
H8_49 C14_49 1_555 1_555
H9_49 C14_49 1_555 1_555
C15_25 C10_25 1_555 1_555
C16_25 C15_25 1_555 1_555
H10_25 C16_25 1_555 1_555
C17_25 C16_25 1_555 1_555
H11_25 C17_25 1_555 1_555
C18_25 C17_25 1_555 1_555
C19_25 C18_25 1_555 1_555
H12_25 C19_25 1_555 1_555
C20_25 C15_25 1_555 1_555
H13_25 C20_25 1_555 1_555
C21_25 C18_25 1_555 1_555
Cu5_10 O13_13 1_555 1_555
Cu7_10 O15_13 1_555 1_555
Cu9_8 O17_13 1_555 1_555
Cu12_8 O19_13 1_555 1_555
O13_13 C45_25 1_555 1_555
O15_13 C45_25 1_555 1_555
O17_13 C64_25 1_555 1_555
O18_13 Cu11_10 1_555 1_555
O19_13 C64_25 1_555 1_555
O20_13 Cu14_10 1_555 1_555
O28_9 Cu1_7 1_555 1_555
O30_9 Cu2_7 1_555 1_555
C45_25 C46_25 1_555 1_555
C46_25 C47_25 1_555 1_555
C47_25 H28_25 1_555 1_555
C48_25 C47_25 1_555 1_555
H29_25 C48_25 1_555 1_555
C49_25 C48_25 1_555 1_555
C50_25 C49_25 1_555 1_555
H30_25 C50_25 1_555 1_555
C51_25 C46_25 1_555 1_555
H31_25 C51_25 1_555 1_555
C52_25 C49_25 1_555 1_555
C53_25 C52_25 1_555 1_555
H32_25 C53_25 1_555 1_555
C54_25 C53_25 1_555 1_555
C55_25 C54_25 1_555 1_555
H33_25 C55_25 1_555 1_555
C56_25 C14_49 1_555 1_555
C57_25 C52_25 1_555 1_555
H34_25 C57_25 1_555 1_555
C58_25 C54_25 1_555 1_555
C59_25 C58_25 1_555 1_555
H35_25 C59_25 1_555 1_555
C60_25 C59_25 1_555 1_555
H36_25 C60_25 1_555 1_555
C61_25 C60_25 1_555 1_555
C62_25 C61_25 1_555 1_555
H37_25 C62_25 1_555 1_555
C63_25 C58_25 1_555 1_555
H38_25 C63_25 1_555 1_555
C64_25 C61_25 1_555 1_555
C6_25 C7_25 1_555 1_555
C12_25 C13_25 1_555 1_555
C19_25 C20_25 1_555 1_555
C50_25 C51_25 1_555 1_555
C55_25 C56_25 1_555 1_555
C56_25 C57_25 1_555 1_555
C62_25 C63_25 1_555 1_555
O10_26 H51 1_555 1_555
Cu1_8 O1_26 1_555 1_555
Cu2_8 O2_26 1_555 1_555
Cu11_12 O3_26 1_555 1_555
Cu14_12 O4_26 1_555 1_555
O1_26 C1_26 1_555 1_555
O2_26 C1_26 1_555 1_555
O3_26 C21_26 1_555 1_555
O4_26 C21_26 1_555 1_555
O9_27 Cu1_8 1_555 1_555
O10_27 Cu2_8 1_555 1_555
O11_26 Cu11_12 1_555 1_555
O12_26 Cu14_12 1_555 1_555
C1_26 C2_26 1_555 1_555
C2_26 C3_26 1_555 1_555
C3_26 H1_26 1_555 1_555
C4_26 C3_26 1_555 1_555
H2_26 C4_26 1_555 1_555
C5_26 C4_26 1_555 1_555
C6_26 C5_26 1_555 1_555
H3_26 C6_26 1_555 1_555
C7_26 C2_26 1_555 1_555
H4_26 C7_26 1_555 1_555
C8_26 C5_26 1_555 1_555
C9_26 C8_26 1_555 1_555
H5_26 C9_26 1_555 1_555
C10_26 C9_26 1_555 1_555
C11_26 C10_26 1_555 1_555
H6_26 C11_26 1_555 1_555
C12_26 C11_26 1_555 1_555
C13_26 C8_26 1_555 1_555
H7_26 C13_26 1_555 1_555
C14_50 C12_26 1_555 1_555
H8_50 C14_50 1_555 1_555
H9_50 C14_50 1_555 1_555
C15_26 C10_26 1_555 1_555
C16_26 C15_26 1_555 1_555
H10_26 C16_26 1_555 1_555
C17_26 C16_26 1_555 1_555
H11_26 C17_26 1_555 1_555
C18_26 C17_26 1_555 1_555
C19_26 C18_26 1_555 1_555
H12_26 C19_26 1_555 1_555
C20_26 C15_26 1_555 1_555
H13_26 C20_26 1_555 1_555
C21_26 C18_26 1_555 1_555
Cu5_11 O13_14 1_555 1_555
Cu7_11 O15_14 1_555 1_555
Cu9_3 O17_14 1_555 1_555
Cu12_3 O19_14 1_555 1_555
O13_14 C45_26 1_555 1_555
O15_14 C45_26 1_555 1_555
O17_14 C64_26 1_555 1_555
O18_14 Cu11_12 1_555 1_555
O19_14 C64_26 1_555 1_555
O20_14 Cu14_12 1_555 1_555
O28_10 Cu1_8 1_555 1_555
O30_10 Cu2_8 1_555 1_555
C45_26 C46_26 1_555 1_555
C46_26 C47_26 1_555 1_555
C47_26 H28_26 1_555 1_555
C48_26 C47_26 1_555 1_555
H29_26 C48_26 1_555 1_555
C49_26 C48_26 1_555 1_555
C50_26 C49_26 1_555 1_555
H30_26 C50_26 1_555 1_555
C51_26 C46_26 1_555 1_555
H31_26 C51_26 1_555 1_555
C52_26 C49_26 1_555 1_555
C53_26 C52_26 1_555 1_555
H32_26 C53_26 1_555 1_555
C54_26 C53_26 1_555 1_555
C55_26 C54_26 1_555 1_555
H33_26 C55_26 1_555 1_555
C56_26 C14_50 1_555 1_555
C57_26 C52_26 1_555 1_555
H34_26 C57_26 1_555 1_555
C58_26 C54_26 1_555 1_555
C59_26 C58_26 1_555 1_555
H35_26 C59_26 1_555 1_555
C60_26 C59_26 1_555 1_555
H36_26 C60_26 1_555 1_555
C61_26 C60_26 1_555 1_555
C62_26 C61_26 1_555 1_555
H37_26 C62_26 1_555 1_555
C63_26 C58_26 1_555 1_555
H38_26 C63_26 1_555 1_555
C64_26 C61_26 1_555 1_555
C6_26 C7_26 1_555 1_555
C12_26 C13_26 1_555 1_555
C19_26 C20_26 1_555 1_555
C50_26 C51_26 1_555 1_555
C55_26 C56_26 1_555 1_555
C56_26 C57_26 1_555 1_555
C62_26 C63_26 1_555 1_555
O10_27 H51_2 1_555 1_555
O22_14 C22_26 1_555 1_555
O25_14 C22_26 1_555 1_555
O7_26 Cu1_9 1_555 1_555
O8_26 Cu2_9 1_555 1_555
O9_28 Cu1_9 1_555 1_555
O10_28 Cu2_9 1_555 1_555
C22_26 C23_26 1_555 1_555
C23_26 C24_26 1_555 1_555
C24_26 H14_26 1_555 1_555
C25_26 C24_26 1_555 1_555
H15_26 C25_26 1_555 1_555
C26_26 C25_26 1_555 1_555
C27_26 C26_26 1_555 1_555
H16_26 C27_26 1_555 1_555
C28_26 C23_26 1_555 1_555
H17_26 C28_26 1_555 1_555
C29_26 C26_26 1_555 1_555
C30_26 C29_26 1_555 1_555
H18_26 C30_26 1_555 1_555
C31_26 C29_26 1_555 1_555
H19_26 C31_26 1_555 1_555
C32_26 C31_26 1_555 1_555
C33_26 C32_26 1_555 1_555
H20_26 C33_26 1_555 1_555
H21_26 C33_26 1_555 1_555
C34_26 C33_26 1_555 1_555
C35_26 C34_26 1_555 1_555
H22_26 C35_26 1_555 1_555
C36_26 C35_26 1_555 1_555
C37_26 C36_26 1_555 1_555
H23_26 C37_26 1_555 1_555
C38_26 C36_26 1_555 1_555
C39_26 C38_26 1_555 1_555
H24_26 C39_26 1_555 1_555
C40_26 C39_26 1_555 1_555
H25_26 C40_26 1_555 1_555
C41_26 C40_26 1_555 1_555
C42_26 C41_26 1_555 1_555
H26_26 C42_26 1_555 1_555
C43_26 C38_26 1_555 1_555
H27_26 C43_26 1_555 1_555
C44_26 O7_26 1_555 1_555
Cu6_15 O27_18 1_555 1_555
Cu8_15 O29_18 1_555 1_555
O14_14 Cu1_9 1_555 1_555
O16_14 Cu2_9 1_555 1_555
O23_22 C65_26 1_555 1_555
O26_22 C65_26 1_555 1_555
O27_18 C82_26 1_555 1_555
O29_18 C82_26 1_555 1_555
C65_26 C66_26 1_555 1_555
C66_26 C67_26 1_555 1_555
C67_26 H39_26 1_555 1_555
C68_26 C67_26 1_555 1_555
H40_26 C68_26 1_555 1_555
C69_26 C68_26 1_555 1_555
C70_26 C69_26 1_555 1_555
H41_26 C70_26 1_555 1_555
C71_26 C66_26 1_555 1_555
H42_26 C71_26 1_555 1_555
C72_26 C30_26 1_555 1_555
C73_26 C32_26 1_555 1_555
H43_26 C73_26 1_555 1_555
C74_26 C34_26 1_555 1_555
H44_26 C74_26 1_555 1_555
C75_26 C37_26 1_555 1_555
C76_26 C75_26 1_555 1_555
C77_26 C76_26 1_555 1_555
H45_26 C77_26 1_555 1_555
C78_26 C77_26 1_555 1_555
H46_26 C78_26 1_555 1_555
C79_26 C78_26 1_555 1_555
C80_26 C79_26 1_555 1_555
H47_26 C80_26 1_555 1_555
C81_26 C76_26 1_555 1_555
H48_26 C81_26 1_555 1_555
C82_26 C79_26 1_555 1_555
O8_26 C44_26 1_555 1_555
C27_26 C28_26 1_555 1_555
C41_26 C44_26 1_555 1_555
C42_26 C43_26 1_555 1_555
C69_26 C72_26 1_555 1_555
C70_26 C71_26 1_555 1_555
C72_26 C73_26 1_555 1_555
C74_26 C75_26 1_555 1_555
C80_26 C81_26 1_555 1_555
O10_28 H52_2 1_555 1_555
O9_28 H55_2 1_555 1_555
O9_28 H56_2 1_555 1_555
Cu1_10 O1_27 1_555 1_555
Cu2_10 O2_27 1_555 1_555
Cu11_15 O3_27 1_555 1_555
Cu14_15 O4_27 1_555 1_555
O1_27 C1_27 1_555 1_555
O2_27 C1_27 1_555 1_555
O3_27 C21_27 1_555 1_555
O4_27 C21_27 1_555 1_555
O9_29 Cu1_10 1_555 1_555
O10_29 Cu2_10 1_555 1_555
O11_27 Cu11_15 1_555 1_555
O12_27 Cu14_15 1_555 1_555
C1_27 C2_27 1_555 1_555
C2_27 C3_27 1_555 1_555
C3_27 H1_27 1_555 1_555
C4_27 C3_27 1_555 1_555
H2_27 C4_27 1_555 1_555
C5_27 C4_27 1_555 1_555
C6_27 C5_27 1_555 1_555
H3_27 C6_27 1_555 1_555
C7_27 C2_27 1_555 1_555
H4_27 C7_27 1_555 1_555
C8_27 C5_27 1_555 1_555
C9_27 C8_27 1_555 1_555
H5_27 C9_27 1_555 1_555
C10_27 C9_27 1_555 1_555
C11_27 C10_27 1_555 1_555
H6_27 C11_27 1_555 1_555
C12_27 C11_27 1_555 1_555
C13_27 C8_27 1_555 1_555
H7_27 C13_27 1_555 1_555
C14_51 C12_27 1_555 1_555
H8_51 C14_51 1_555 1_555
H9_51 C14_51 1_555 1_555
C15_27 C10_27 1_555 1_555
C16_27 C15_27 1_555 1_555
H10_27 C16_27 1_555 1_555
C17_27 C16_27 1_555 1_555
H11_27 C17_27 1_555 1_555
C18_27 C17_27 1_555 1_555
C19_27 C18_27 1_555 1_555
H12_27 C19_27 1_555 1_555
C20_27 C15_27 1_555 1_555
H13_27 C20_27 1_555 1_555
C21_27 C18_27 1_555 1_555
Cu5_13 O13_15 1_555 1_555
Cu7_13 O15_15 1_555 1_555
Cu9_2 O17_15 1_555 1_555
Cu12_2 O19_15 1_555 1_555
O13_15 C45_27 1_555 1_555
O15_15 C45_27 1_555 1_555
O17_15 C64_27 1_555 1_555
O18_15 Cu11_15 1_555 1_555
O19_15 C64_27 1_555 1_555
O20_15 Cu14_15 1_555 1_555
O28_11 Cu1_10 1_555 1_555
O30_11 Cu2_10 1_555 1_555
C45_27 C46_27 1_555 1_555
C46_27 C47_27 1_555 1_555
C47_27 H28_27 1_555 1_555
C48_27 C47_27 1_555 1_555
H29_27 C48_27 1_555 1_555
C49_27 C48_27 1_555 1_555
C50_27 C49_27 1_555 1_555
H30_27 C50_27 1_555 1_555
C51_27 C46_27 1_555 1_555
H31_27 C51_27 1_555 1_555
C52_27 C49_27 1_555 1_555
C53_27 C52_27 1_555 1_555
H32_27 C53_27 1_555 1_555
C54_27 C53_27 1_555 1_555
C55_27 C54_27 1_555 1_555
H33_27 C55_27 1_555 1_555
C56_27 C14_51 1_555 1_555
C57_27 C52_27 1_555 1_555
H34_27 C57_27 1_555 1_555
C58_27 C54_27 1_555 1_555
C59_27 C58_27 1_555 1_555
H35_27 C59_27 1_555 1_555
C60_27 C59_27 1_555 1_555
H36_27 C60_27 1_555 1_555
C61_27 C60_27 1_555 1_555
C62_27 C61_27 1_555 1_555
H37_27 C62_27 1_555 1_555
C63_27 C58_27 1_555 1_555
H38_27 C63_27 1_555 1_555
C64_27 C61_27 1_555 1_555
C6_27 C7_27 1_555 1_555
C12_27 C13_27 1_555 1_555
C19_27 C20_27 1_555 1_555
C50_27 C51_27 1_555 1_555
C55_27 C56_27 1_555 1_555
C56_27 C57_27 1_555 1_555
C62_27 C63_27 1_555 1_555
O10_29 H51_3 1_555 1_555
O22_10 C22_27 1_555 1_555
O25_10 C22_27 1_555 1_555
O7_27 Cu1_11 1_555 1_555
O8_27 Cu2_11 1_555 1_555
O9_30 Cu1_11 1_555 1_555
O10_30 Cu2_11 1_555 1_555
C22_27 C23_27 1_555 1_555
C23_27 C24_27 1_555 1_555
C24_27 H14_27 1_555 1_555
C25_27 C24_27 1_555 1_555
H15_27 C25_27 1_555 1_555
C26_27 C25_27 1_555 1_555
C27_27 C26_27 1_555 1_555
H16_27 C27_27 1_555 1_555
C28_27 C23_27 1_555 1_555
H17_27 C28_27 1_555 1_555
C29_27 C26_27 1_555 1_555
C30_27 C29_27 1_555 1_555
H18_27 C30_27 1_555 1_555
C31_27 C29_27 1_555 1_555
H19_27 C31_27 1_555 1_555
C32_27 C31_27 1_555 1_555
C33_27 C32_27 1_555 1_555
H20_27 C33_27 1_555 1_555
H21_27 C33_27 1_555 1_555
C34_27 C33_27 1_555 1_555
C35_27 C34_27 1_555 1_555
H22_27 C35_27 1_555 1_555
C36_27 C35_27 1_555 1_555
C37_27 C36_27 1_555 1_555
H23_27 C37_27 1_555 1_555
C38_27 C36_27 1_555 1_555
C39_27 C38_27 1_555 1_555
H24_27 C39_27 1_555 1_555
C40_27 C39_27 1_555 1_555
H25_27 C40_27 1_555 1_555
C41_27 C40_27 1_555 1_555
C42_27 C41_27 1_555 1_555
H26_27 C42_27 1_555 1_555
C43_27 C38_27 1_555 1_555
H27_27 C43_27 1_555 1_555
C44_27 O7_27 1_555 1_555
Cu6_16 O27_19 1_555 1_555
Cu8_16 O29_19 1_555 1_555
O14_15 Cu1_11 1_555 1_555
O16_15 Cu2_11 1_555 1_555
O23_24 C65_27 1_555 1_555
O26_24 C65_27 1_555 1_555
O27_19 C82_27 1_555 1_555
O29_19 C82_27 1_555 1_555
C65_27 C66_27 1_555 1_555
C66_27 C67_27 1_555 1_555
C67_27 H39_27 1_555 1_555
C68_27 C67_27 1_555 1_555
H40_27 C68_27 1_555 1_555
C69_27 C68_27 1_555 1_555
C70_27 C69_27 1_555 1_555
H41_27 C70_27 1_555 1_555
C71_27 C66_27 1_555 1_555
H42_27 C71_27 1_555 1_555
C72_27 C30_27 1_555 1_555
C73_27 C32_27 1_555 1_555
H43_27 C73_27 1_555 1_555
C74_27 C34_27 1_555 1_555
H44_27 C74_27 1_555 1_555
C75_27 C37_27 1_555 1_555
C76_27 C75_27 1_555 1_555
C77_27 C76_27 1_555 1_555
H45_27 C77_27 1_555 1_555
C78_27 C77_27 1_555 1_555
H46_27 C78_27 1_555 1_555
C79_27 C78_27 1_555 1_555
C80_27 C79_27 1_555 1_555
H47_27 C80_27 1_555 1_555
C81_27 C76_27 1_555 1_555
H48_27 C81_27 1_555 1_555
C82_27 C79_27 1_555 1_555
O8_27 C44_27 1_555 1_555
C27_27 C28_27 1_555 1_555
C41_27 C44_27 1_555 1_555
C42_27 C43_27 1_555 1_555
C69_27 C72_27 1_555 1_555
C70_27 C71_27 1_555 1_555
C72_27 C73_27 1_555 1_555
C74_27 C75_27 1_555 1_555
C80_27 C81_27 1_555 1_555
O10_30 H52_3 1_555 1_555
O9_30 H55_3 1_555 1_555
O9_30 H56_3 1_555 1_555
O22_24 C22_28 1_555 1_555
O25_24 C22_28 1_555 1_555
O7_28 Cu6_14 1_555 1_555
O8_28 Cu8_14 1_555 1_555
O9_31 Cu6_14 1_555 1_555
O10_31 Cu8_14 1_555 1_555
C22_28 C23_28 1_555 1_555
C23_28 C24_28 1_555 1_555
C24_28 H14_28 1_555 1_555
C25_28 C24_28 1_555 1_555
H15_28 C25_28 1_555 1_555
C26_28 C25_28 1_555 1_555
C27_28 C26_28 1_555 1_555
H16_28 C27_28 1_555 1_555
C28_28 C23_28 1_555 1_555
H17_28 C28_28 1_555 1_555
C29_28 C26_28 1_555 1_555
C30_28 C29_28 1_555 1_555
H18_28 C30_28 1_555 1_555
C31_28 C29_28 1_555 1_555
H19_28 C31_28 1_555 1_555
C32_28 C31_28 1_555 1_555
C33_28 C32_28 1_555 1_555
H20_28 C33_28 1_555 1_555
H21_28 C33_28 1_555 1_555
C34_28 C33_28 1_555 1_555
C35_28 C34_28 1_555 1_555
H22_28 C35_28 1_555 1_555
C36_28 C35_28 1_555 1_555
C37_28 C36_28 1_555 1_555
H23_28 C37_28 1_555 1_555
C38_28 C36_28 1_555 1_555
C39_28 C38_28 1_555 1_555
H24_28 C39_28 1_555 1_555
C40_28 C39_28 1_555 1_555
H25_28 C40_28 1_555 1_555
C41_28 C40_28 1_555 1_555
C42_28 C41_28 1_555 1_555
H26_28 C42_28 1_555 1_555
C43_28 C38_28 1_555 1_555
H27_28 C43_28 1_555 1_555
C44_28 O7_28 1_555 1_555
Cu6_19 O27_20 1_555 1_555
Cu8_19 O29_20 1_555 1_555
O14_16 Cu6_14 1_555 1_555
O16_16 Cu8_14 1_555 1_555
O23_5 C65_28 1_555 1_555
O26_5 C65_28 1_555 1_555
O27_20 C82_28 1_555 1_555
O29_20 C82_28 1_555 1_555
C65_28 C66_28 1_555 1_555
C66_28 C67_28 1_555 1_555
C67_28 H39_28 1_555 1_555
C68_28 C67_28 1_555 1_555
H40_28 C68_28 1_555 1_555
C69_28 C68_28 1_555 1_555
C70_28 C69_28 1_555 1_555
H41_28 C70_28 1_555 1_555
C71_28 C66_28 1_555 1_555
H42_28 C71_28 1_555 1_555
C72_28 C30_28 1_555 1_555
C73_28 C32_28 1_555 1_555
H43_28 C73_28 1_555 1_555
C74_28 C34_28 1_555 1_555
H44_28 C74_28 1_555 1_555
C75_28 C37_28 1_555 1_555
C76_28 C75_28 1_555 1_555
C77_28 C76_28 1_555 1_555
H45_28 C77_28 1_555 1_555
C78_28 C77_28 1_555 1_555
H46_28 C78_28 1_555 1_555
C79_28 C78_28 1_555 1_555
C80_28 C79_28 1_555 1_555
H47_28 C80_28 1_555 1_555
C81_28 C76_28 1_555 1_555
H48_28 C81_28 1_555 1_555
C82_28 C79_28 1_555 1_555
O8_28 C44_28 1_555 1_555
C27_28 C28_28 1_555 1_555
C41_28 C44_28 1_555 1_555
C42_28 C43_28 1_555 1_555
C69_28 C72_28 1_555 1_555
C70_28 C71_28 1_555 1_555
C72_28 C73_28 1_555 1_555
C74_28 C75_28 1_555 1_555
C80_28 C81_28 1_555 1_555
O10_31 H52_4 1_555 1_555
O9_31 H55_4 1_555 1_555
O9_31 H56_4 1_555 1_555
Cu6_15 O1_28 1_555 1_555
Cu8_15 O2_28 1_555 1_555
Cu9_7 O3_28 1_555 1_555
Cu12_7 O4_28 1_555 1_555
O1_28 C1_28 1_555 1_555
O2_28 C1_28 1_555 1_555
O3_28 C21_28 1_555 1_555
O4_28 C21_28 1_555 1_555
O9_32 Cu6_15 1_555 1_555
O10_32 Cu8_15 1_555 1_555
O11_28 Cu9_7 1_555 1_555
O12_28 Cu12_7 1_555 1_555
C1_28 C2_28 1_555 1_555
C2_28 C3_28 1_555 1_555
C3_28 H1_28 1_555 1_555
C4_28 C3_28 1_555 1_555
H2_28 C4_28 1_555 1_555
C5_28 C4_28 1_555 1_555
C6_28 C5_28 1_555 1_555
H3_28 C6_28 1_555 1_555
C7_28 C2_28 1_555 1_555
H4_28 C7_28 1_555 1_555
C8_28 C5_28 1_555 1_555
C9_28 C8_28 1_555 1_555
H5_28 C9_28 1_555 1_555
C10_28 C9_28 1_555 1_555
C11_28 C10_28 1_555 1_555
H6_28 C11_28 1_555 1_555
C12_28 C11_28 1_555 1_555
C13_28 C8_28 1_555 1_555
H7_28 C13_28 1_555 1_555
C14_52 C12_28 1_555 1_555
H8_52 C14_52 1_555 1_555
H9_52 C14_52 1_555 1_555
C15_28 C10_28 1_555 1_555
C16_28 C15_28 1_555 1_555
H10_28 C16_28 1_555 1_555
C17_28 C16_28 1_555 1_555
H11_28 C17_28 1_555 1_555
C18_28 C17_28 1_555 1_555
C19_28 C18_28 1_555 1_555
H12_28 C19_28 1_555 1_555
C20_28 C15_28 1_555 1_555
H13_28 C20_28 1_555 1_555
C21_28 C18_28 1_555 1_555
Cu5_16 O13_16 1_555 1_555
Cu7_16 O15_16 1_555 1_555
Cu11_7 O17_16 1_555 1_555
Cu14_7 O19_16 1_555 1_555
O13_16 C45_28 1_555 1_555
O15_16 C45_28 1_555 1_555
O17_16 C64_28 1_555 1_555
O18_16 Cu9_7 1_555 1_555
O19_16 C64_28 1_555 1_555
O20_16 Cu12_7 1_555 1_555
C45_28 C46_28 1_555 1_555
C46_28 C47_28 1_555 1_555
C47_28 H28_28 1_555 1_555
C48_28 C47_28 1_555 1_555
H29_28 C48_28 1_555 1_555
C49_28 C48_28 1_555 1_555
C50_28 C49_28 1_555 1_555
H30_28 C50_28 1_555 1_555
C51_28 C46_28 1_555 1_555
H31_28 C51_28 1_555 1_555
C52_28 C49_28 1_555 1_555
C53_28 C52_28 1_555 1_555
H32_28 C53_28 1_555 1_555
C54_28 C53_28 1_555 1_555
C55_28 C54_28 1_555 1_555
H33_28 C55_28 1_555 1_555
C56_28 C14_52 1_555 1_555
C57_28 C52_28 1_555 1_555
H34_28 C57_28 1_555 1_555
C58_28 C54_28 1_555 1_555
C59_28 C58_28 1_555 1_555
H35_28 C59_28 1_555 1_555
C60_28 C59_28 1_555 1_555
H36_28 C60_28 1_555 1_555
C61_28 C60_28 1_555 1_555
C62_28 C61_28 1_555 1_555
H37_28 C62_28 1_555 1_555
C63_28 C58_28 1_555 1_555
H38_28 C63_28 1_555 1_555
C64_28 C61_28 1_555 1_555
C6_28 C7_28 1_555 1_555
C12_28 C13_28 1_555 1_555
C19_28 C20_28 1_555 1_555
C50_28 C51_28 1_555 1_555
C55_28 C56_28 1_555 1_555
C56_28 C57_28 1_555 1_555
C62_28 C63_28 1_555 1_555
O10_32 H51_4 1_555 1_555
Cu5_9 O1_29 1_555 1_555
Cu7_9 O2_29 1_555 1_555
Cu11_4 O3_29 1_555 1_555
Cu14_4 O4_29 1_555 1_555
O1_29 C1_29 1_555 1_555
O2_29 C1_29 1_555 1_555
O3_29 C21_29 1_555 1_555
O4_29 C21_29 1_555 1_555
O9_33 Cu5_9 1_555 1_555
O10_33 Cu7_9 1_555 1_555
O11_29 Cu11_4 1_555 1_555
O12_29 Cu14_4 1_555 1_555
C1_29 C2_29 1_555 1_555
C2_29 C3_29 1_555 1_555
C3_29 H1_29 1_555 1_555
C4_29 C3_29 1_555 1_555
H2_29 C4_29 1_555 1_555
C5_29 C4_29 1_555 1_555
C6_29 C5_29 1_555 1_555
H3_29 C6_29 1_555 1_555
C7_29 C2_29 1_555 1_555
H4_29 C7_29 1_555 1_555
C8_29 C5_29 1_555 1_555
C9_29 C8_29 1_555 1_555
H5_29 C9_29 1_555 1_555
C10_29 C9_29 1_555 1_555
C11_29 C10_29 1_555 1_555
H6_29 C11_29 1_555 1_555
C12_29 C11_29 1_555 1_555
C13_29 C8_29 1_555 1_555
H7_29 C13_29 1_555 1_555
C14_53 C12_29 1_555 1_555
H8_53 C14_53 1_555 1_555
H9_53 C14_53 1_555 1_555
C15_29 C10_29 1_555 1_555
C16_29 C15_29 1_555 1_555
H10_29 C16_29 1_555 1_555
C17_29 C16_29 1_555 1_555
H11_29 C17_29 1_555 1_555
C18_29 C17_29 1_555 1_555
C19_29 C18_29 1_555 1_555
H12_29 C19_29 1_555 1_555
C20_29 C15_29 1_555 1_555
H13_29 C20_29 1_555 1_555
C21_29 C18_29 1_555 1_555
Cu9_5 O17_17 1_555 1_555
Cu12_5 O19_17 1_555 1_555
O14_13 C45_29 1_555 1_555
O16_13 C45_29 1_555 1_555
O17_17 C64_29 1_555 1_555
O18_17 Cu11_4 1_555 1_555
O19_17 C64_29 1_555 1_555
O20_17 Cu14_4 1_555 1_555
O28_12 Cu5_9 1_555 1_555
O30_12 Cu7_9 1_555 1_555
C45_29 C46_29 1_555 1_555
C46_29 C47_29 1_555 1_555
C47_29 H28_29 1_555 1_555
C48_29 C47_29 1_555 1_555
H29_29 C48_29 1_555 1_555
C49_29 C48_29 1_555 1_555
C50_29 C49_29 1_555 1_555
H30_29 C50_29 1_555 1_555
C51_29 C46_29 1_555 1_555
H31_29 C51_29 1_555 1_555
C52_29 C49_29 1_555 1_555
C53_29 C52_29 1_555 1_555
H32_29 C53_29 1_555 1_555
C54_29 C53_29 1_555 1_555
C55_29 C54_29 1_555 1_555
H33_29 C55_29 1_555 1_555
C56_29 C14_53 1_555 1_555
C57_29 C52_29 1_555 1_555
H34_29 C57_29 1_555 1_555
C58_29 C54_29 1_555 1_555
C59_29 C58_29 1_555 1_555
H35_29 C59_29 1_555 1_555
C60_29 C59_29 1_555 1_555
H36_29 C60_29 1_555 1_555
C61_29 C60_29 1_555 1_555
C62_29 C61_29 1_555 1_555
H37_29 C62_29 1_555 1_555
C63_29 C58_29 1_555 1_555
H38_29 C63_29 1_555 1_555
C64_29 C61_29 1_555 1_555
C6_29 C7_29 1_555 1_555
C12_29 C13_29 1_555 1_555
C19_29 C20_29 1_555 1_555
C50_29 C51_29 1_555 1_555
C55_29 C56_29 1_555 1_555
C56_29 C57_29 1_555 1_555
C62_29 C63_29 1_555 1_555
O10_33 H51_5 1_555 1_555
O22_13 C22_29 1_555 1_555
O25_13 C22_29 1_555 1_555
O7_29 Cu5_10 1_555 1_555
O8_29 Cu7_10 1_555 1_555
O9_34 Cu5_10 1_555 1_555
O10_34 Cu7_10 1_555 1_555
C22_29 C23_29 1_555 1_555
C23_29 C24_29 1_555 1_555
C24_29 H14_29 1_555 1_555
C25_29 C24_29 1_555 1_555
H15_29 C25_29 1_555 1_555
C26_29 C25_29 1_555 1_555
C27_29 C26_29 1_555 1_555
H16_29 C27_29 1_555 1_555
C28_29 C23_29 1_555 1_555
H17_29 C28_29 1_555 1_555
C29_29 C26_29 1_555 1_555
C30_29 C29_29 1_555 1_555
H18_29 C30_29 1_555 1_555
C31_29 C29_29 1_555 1_555
H19_29 C31_29 1_555 1_555
C32_29 C31_29 1_555 1_555
C33_29 C32_29 1_555 1_555
H20_29 C33_29 1_555 1_555
H21_29 C33_29 1_555 1_555
C34_29 C33_29 1_555 1_555
C35_29 C34_29 1_555 1_555
H22_29 C35_29 1_555 1_555
C36_29 C35_29 1_555 1_555
C37_29 C36_29 1_555 1_555
H23_29 C37_29 1_555 1_555
C38_29 C36_29 1_555 1_555
C39_29 C38_29 1_555 1_555
H24_29 C39_29 1_555 1_555
C40_29 C39_29 1_555 1_555
H25_29 C40_29 1_555 1_555
C41_29 C40_29 1_555 1_555
C42_29 C41_29 1_555 1_555
H26_29 C42_29 1_555 1_555
C43_29 C38_29 1_555 1_555
H27_29 C43_29 1_555 1_555
C44_29 O7_29 1_555 1_555
Cu6_21 O27_21 1_555 1_555
Cu8_21 O29_21 1_555 1_555
O23_21 C65_29 1_555 1_555
O26_21 C65_29 1_555 1_555
O27_21 C82_29 1_555 1_555
O29_21 C82_29 1_555 1_555
C65_29 C66_29 1_555 1_555
C66_29 C67_29 1_555 1_555
C67_29 H39_29 1_555 1_555
C68_29 C67_29 1_555 1_555
H40_29 C68_29 1_555 1_555
C69_29 C68_29 1_555 1_555
C70_29 C69_29 1_555 1_555
H41_29 C70_29 1_555 1_555
C71_29 C66_29 1_555 1_555
H42_29 C71_29 1_555 1_555
C72_29 C30_29 1_555 1_555
C73_29 C32_29 1_555 1_555
H43_29 C73_29 1_555 1_555
C74_29 C34_29 1_555 1_555
H44_29 C74_29 1_555 1_555
C75_29 C37_29 1_555 1_555
C76_29 C75_29 1_555 1_555
C77_29 C76_29 1_555 1_555
H45_29 C77_29 1_555 1_555
C78_29 C77_29 1_555 1_555
H46_29 C78_29 1_555 1_555
C79_29 C78_29 1_555 1_555
C80_29 C79_29 1_555 1_555
H47_29 C80_29 1_555 1_555
C81_29 C76_29 1_555 1_555
H48_29 C81_29 1_555 1_555
C82_29 C79_29 1_555 1_555
O8_29 C44_29 1_555 1_555
C27_29 C28_29 1_555 1_555
C41_29 C44_29 1_555 1_555
C42_29 C43_29 1_555 1_555
C69_29 C72_29 1_555 1_555
C70_29 C71_29 1_555 1_555
C72_29 C73_29 1_555 1_555
C74_29 C75_29 1_555 1_555
C80_29 C81_29 1_555 1_555
O10_34 H52_5 1_555 1_555
O9_34 H55_5 1_555 1_555
O9_34 H56_5 1_555 1_555
O22_12 C22_30 1_555 1_555
O25_12 C22_30 1_555 1_555
O7_30 Cu6_18 1_555 1_555
O8_30 Cu8_18 1_555 1_555
O9_35 Cu6_18 1_555 1_555
O10_35 Cu8_18 1_555 1_555
C22_30 C23_30 1_555 1_555
C23_30 C24_30 1_555 1_555
C24_30 H14_30 1_555 1_555
C25_30 C24_30 1_555 1_555
H15_30 C25_30 1_555 1_555
C26_30 C25_30 1_555 1_555
C27_30 C26_30 1_555 1_555
H16_30 C27_30 1_555 1_555
C28_30 C23_30 1_555 1_555
H17_30 C28_30 1_555 1_555
C29_30 C26_30 1_555 1_555
C30_30 C29_30 1_555 1_555
H18_30 C30_30 1_555 1_555
C31_30 C29_30 1_555 1_555
H19_30 C31_30 1_555 1_555
C32_30 C31_30 1_555 1_555
C33_30 C32_30 1_555 1_555
H20_30 C33_30 1_555 1_555
H21_30 C33_30 1_555 1_555
C34_30 C33_30 1_555 1_555
C35_30 C34_30 1_555 1_555
H22_30 C35_30 1_555 1_555
C36_30 C35_30 1_555 1_555
C37_30 C36_30 1_555 1_555
H23_30 C37_30 1_555 1_555
C38_30 C36_30 1_555 1_555
C39_30 C38_30 1_555 1_555
H24_30 C39_30 1_555 1_555
C40_30 C39_30 1_555 1_555
H25_30 C40_30 1_555 1_555
C41_30 C40_30 1_555 1_555
C42_30 C41_30 1_555 1_555
H26_30 C42_30 1_555 1_555
C43_30 C38_30 1_555 1_555
H27_30 C43_30 1_555 1_555
C44_30 O7_30 1_555 1_555
Cu6_22 O27_22 1_555 1_555
Cu8_22 O29_22 1_555 1_555
O14_17 Cu6_18 1_555 1_555
O16_17 Cu8_18 1_555 1_555
O23_18 C65_30 1_555 1_555
O26_18 C65_30 1_555 1_555
O27_22 C82_30 1_555 1_555
O29_22 C82_30 1_555 1_555
C65_30 C66_30 1_555 1_555
C66_30 C67_30 1_555 1_555
C67_30 H39_30 1_555 1_555
C68_30 C67_30 1_555 1_555
H40_30 C68_30 1_555 1_555
C69_30 C68_30 1_555 1_555
C70_30 C69_30 1_555 1_555
H41_30 C70_30 1_555 1_555
C71_30 C66_30 1_555 1_555
H42_30 C71_30 1_555 1_555
C72_30 C30_30 1_555 1_555
C73_30 C32_30 1_555 1_555
H43_30 C73_30 1_555 1_555
C74_30 C34_30 1_555 1_555
H44_30 C74_30 1_555 1_555
C75_30 C37_30 1_555 1_555
C76_30 C75_30 1_555 1_555
C77_30 C76_30 1_555 1_555
H45_30 C77_30 1_555 1_555
C78_30 C77_30 1_555 1_555
H46_30 C78_30 1_555 1_555
C79_30 C78_30 1_555 1_555
C80_30 C79_30 1_555 1_555
H47_30 C80_30 1_555 1_555
C81_30 C76_30 1_555 1_555
H48_30 C81_30 1_555 1_555
C82_30 C79_30 1_555 1_555
O8_30 C44_30 1_555 1_555
C27_30 C28_30 1_555 1_555
C41_30 C44_30 1_555 1_555
C42_30 C43_30 1_555 1_555
C69_30 C72_30 1_555 1_555
C70_30 C71_30 1_555 1_555
C72_30 C73_30 1_555 1_555
C74_30 C75_30 1_555 1_555
C80_30 C81_30 1_555 1_555
O10_35 H52_6 1_555 1_555
O9_35 H55_6 1_555 1_555
O9_35 H56_6 1_555 1_555
Cu6_19 O1_30 1_555 1_555
Cu8_19 O2_30 1_555 1_555
Cu11_14 O3_30 1_555 1_555
Cu14_14 O4_30 1_555 1_555
O1_30 C1_30 1_555 1_555
O2_30 C1_30 1_555 1_555
O3_30 C21_30 1_555 1_555
O4_30 C21_30 1_555 1_555
O9_36 Cu6_19 1_555 1_555
O10_36 Cu8_19 1_555 1_555
O11_30 Cu11_14 1_555 1_555
O12_30 Cu14_14 1_555 1_555
C1_30 C2_30 1_555 1_555
C2_30 C3_30 1_555 1_555
C3_30 H1_30 1_555 1_555
C4_30 C3_30 1_555 1_555
H2_30 C4_30 1_555 1_555
C5_30 C4_30 1_555 1_555
C6_30 C5_30 1_555 1_555
H3_30 C6_30 1_555 1_555
C7_30 C2_30 1_555 1_555
H4_30 C7_30 1_555 1_555
C8_30 C5_30 1_555 1_555
C9_30 C8_30 1_555 1_555
H5_30 C9_30 1_555 1_555
C10_30 C9_30 1_555 1_555
C11_30 C10_30 1_555 1_555
H6_30 C11_30 1_555 1_555
C12_30 C11_30 1_555 1_555
C13_30 C8_30 1_555 1_555
H7_30 C13_30 1_555 1_555
C14_54 C12_30 1_555 1_555
H8_54 C14_54 1_555 1_555
H9_54 C14_54 1_555 1_555
C15_30 C10_30 1_555 1_555
C16_30 C15_30 1_555 1_555
H10_30 C16_30 1_555 1_555
C17_30 C16_30 1_555 1_555
H11_30 C17_30 1_555 1_555
C18_30 C17_30 1_555 1_555
C19_30 C18_30 1_555 1_555
H12_30 C19_30 1_555 1_555
C20_30 C15_30 1_555 1_555
H13_30 C20_30 1_555 1_555
C21_30 C18_30 1_555 1_555
Cu5_18 O13_17 1_555 1_555
Cu7_18 O15_17 1_555 1_555
Cu9_4 O17_18 1_555 1_555
Cu12_4 O19_18 1_555 1_555
O13_17 C45_30 1_555 1_555
O15_17 C45_30 1_555 1_555
O17_18 C64_30 1_555 1_555
O18_18 Cu11_14 1_555 1_555
O19_18 C64_30 1_555 1_555
O20_18 Cu14_14 1_555 1_555
C45_30 C46_30 1_555 1_555
C46_30 C47_30 1_555 1_555
C47_30 H28_30 1_555 1_555
C48_30 C47_30 1_555 1_555
H29_30 C48_30 1_555 1_555
C49_30 C48_30 1_555 1_555
C50_30 C49_30 1_555 1_555
H30_30 C50_30 1_555 1_555
C51_30 C46_30 1_555 1_555
H31_30 C51_30 1_555 1_555
C52_30 C49_30 1_555 1_555
C53_30 C52_30 1_555 1_555
H32_30 C53_30 1_555 1_555
C54_30 C53_30 1_555 1_555
C55_30 C54_30 1_555 1_555
H33_30 C55_30 1_555 1_555
C56_30 C14_54 1_555 1_555
C57_30 C52_30 1_555 1_555
H34_30 C57_30 1_555 1_555
C58_30 C54_30 1_555 1_555
C59_30 C58_30 1_555 1_555
H35_30 C59_30 1_555 1_555
C60_30 C59_30 1_555 1_555
H36_30 C60_30 1_555 1_555
C61_30 C60_30 1_555 1_555
C62_30 C61_30 1_555 1_555
H37_30 C62_30 1_555 1_555
C63_30 C58_30 1_555 1_555
H38_30 C63_30 1_555 1_555
C64_30 C61_30 1_555 1_555
C6_30 C7_30 1_555 1_555
C12_30 C13_30 1_555 1_555
C19_30 C20_30 1_555 1_555
C50_30 C51_30 1_555 1_555
C55_30 C56_30 1_555 1_555
C56_30 C57_30 1_555 1_555
C62_30 C63_30 1_555 1_555
O10_36 H51_6 1_555 1_555
O22_18 C22_31 1_555 1_555
O25_18 C22_31 1_555 1_555
O7_31 Cu6_20 1_555 1_555
O8_31 Cu8_20 1_555 1_555
O9_37 Cu6_20 1_555 1_555
O10_37 Cu8_20 1_555 1_555
C22_31 C23_31 1_555 1_555
C23_31 C24_31 1_555 1_555
C24_31 H14_31 1_555 1_555
C25_31 C24_31 1_555 1_555
H15_31 C25_31 1_555 1_555
C26_31 C25_31 1_555 1_555
C27_31 C26_31 1_555 1_555
H16_31 C27_31 1_555 1_555
C28_31 C23_31 1_555 1_555
H17_31 C28_31 1_555 1_555
C29_31 C26_31 1_555 1_555
C30_31 C29_31 1_555 1_555
H18_31 C30_31 1_555 1_555
C31_31 C29_31 1_555 1_555
H19_31 C31_31 1_555 1_555
C32_31 C31_31 1_555 1_555
C33_31 C32_31 1_555 1_555
H20_31 C33_31 1_555 1_555
H21_31 C33_31 1_555 1_555
C34_31 C33_31 1_555 1_555
C35_31 C34_31 1_555 1_555
H22_31 C35_31 1_555 1_555
C36_31 C35_31 1_555 1_555
C37_31 C36_31 1_555 1_555
H23_31 C37_31 1_555 1_555
C38_31 C36_31 1_555 1_555
C39_31 C38_31 1_555 1_555
H24_31 C39_31 1_555 1_555
C40_31 C39_31 1_555 1_555
H25_31 C40_31 1_555 1_555
C41_31 C40_31 1_555 1_555
C42_31 C41_31 1_555 1_555
H26_31 C42_31 1_555 1_555
C43_31 C38_31 1_555 1_555
H27_31 C43_31 1_555 1_555
C44_31 O7_31 1_555 1_555
Cu5_14 O27_23 1_555 1_555
Cu7_14 O29_23 1_555 1_555
O14_18 Cu6_20 1_555 1_555
O16_18 Cu8_20 1_555 1_555
O23_8 C65_31 1_555 1_555
O26_8 C65_31 1_555 1_555
O27_23 C82_31 1_555 1_555
O29_23 C82_31 1_555 1_555
C65_31 C66_31 1_555 1_555
C66_31 C67_31 1_555 1_555
C67_31 H39_31 1_555 1_555
C68_31 C67_31 1_555 1_555
H40_31 C68_31 1_555 1_555
C69_31 C68_31 1_555 1_555
C70_31 C69_31 1_555 1_555
H41_31 C70_31 1_555 1_555
C71_31 C66_31 1_555 1_555
H42_31 C71_31 1_555 1_555
C72_31 C30_31 1_555 1_555
C73_31 C32_31 1_555 1_555
H43_31 C73_31 1_555 1_555
C74_31 C34_31 1_555 1_555
H44_31 C74_31 1_555 1_555
C75_31 C37_31 1_555 1_555
C76_31 C75_31 1_555 1_555
C77_31 C76_31 1_555 1_555
H45_31 C77_31 1_555 1_555
C78_31 C77_31 1_555 1_555
H46_31 C78_31 1_555 1_555
C79_31 C78_31 1_555 1_555
C80_31 C79_31 1_555 1_555
H47_31 C80_31 1_555 1_555
C81_31 C76_31 1_555 1_555
H48_31 C81_31 1_555 1_555
C82_31 C79_31 1_555 1_555
O8_31 C44_31 1_555 1_555
C27_31 C28_31 1_555 1_555
C41_31 C44_31 1_555 1_555
C42_31 C43_31 1_555 1_555
C69_31 C72_31 1_555 1_555
C70_31 C71_31 1_555 1_555
C72_31 C73_31 1_555 1_555
C74_31 C75_31 1_555 1_555
C80_31 C81_31 1_555 1_555
O10_37 H52_7 1_555 1_555
O9_37 H55_7 1_555 1_555
O9_37 H56_7 1_555 1_555
Cu6_21 O1_31 1_555 1_555
Cu8_21 O2_31 1_555 1_555
Cu9_8 O3_31 1_555 1_555
Cu12_8 O4_31 1_555 1_555
O1_31 C1_31 1_555 1_555
O2_31 C1_31 1_555 1_555
O3_31 C21_31 1_555 1_555
O4_31 C21_31 1_555 1_555
O9_38 Cu6_21 1_555 1_555
O10_38 Cu8_21 1_555 1_555
O11_31 Cu9_8 1_555 1_555
O12_31 Cu12_8 1_555 1_555
C1_31 C2_31 1_555 1_555
C2_31 C3_31 1_555 1_555
C3_31 H1_31 1_555 1_555
C4_31 C3_31 1_555 1_555
H2_31 C4_31 1_555 1_555
C5_31 C4_31 1_555 1_555
C6_31 C5_31 1_555 1_555
H3_31 C6_31 1_555 1_555
C7_31 C2_31 1_555 1_555
H4_31 C7_31 1_555 1_555
C8_31 C5_31 1_555 1_555
C9_31 C8_31 1_555 1_555
H5_31 C9_31 1_555 1_555
C10_31 C9_31 1_555 1_555
C11_31 C10_31 1_555 1_555
H6_31 C11_31 1_555 1_555
C12_31 C11_31 1_555 1_555
C13_31 C8_31 1_555 1_555
H7_31 C13_31 1_555 1_555
C14_55 C12_31 1_555 1_555
H8_55 C14_55 1_555 1_555
H9_55 C14_55 1_555 1_555
C15_31 C10_31 1_555 1_555
C16_31 C15_31 1_555 1_555
H10_31 C16_31 1_555 1_555
C17_31 C16_31 1_555 1_555
H11_31 C17_31 1_555 1_555
C18_31 C17_31 1_555 1_555
C19_31 C18_31 1_555 1_555
H12_31 C19_31 1_555 1_555
C20_31 C15_31 1_555 1_555
H13_31 C20_31 1_555 1_555
C21_31 C18_31 1_555 1_555
Cu6_17 O13_18 1_555 1_555
Cu8_17 O15_18 1_555 1_555
O13_18 C45_31 1_555 1_555
O15_18 C45_31 1_555 1_555
O18_13 C64_31 1_555 1_555
O20_13 C64_31 1_555 1_555
C45_31 C46_31 1_555 1_555
C46_31 C47_31 1_555 1_555
C47_31 H28_31 1_555 1_555
C48_31 C47_31 1_555 1_555
H29_31 C48_31 1_555 1_555
C49_31 C48_31 1_555 1_555
C50_31 C49_31 1_555 1_555
H30_31 C50_31 1_555 1_555
C51_31 C46_31 1_555 1_555
H31_31 C51_31 1_555 1_555
C52_31 C49_31 1_555 1_555
C53_31 C52_31 1_555 1_555
H32_31 C53_31 1_555 1_555
C54_31 C53_31 1_555 1_555
C55_31 C54_31 1_555 1_555
H33_31 C55_31 1_555 1_555
C56_31 C14_55 1_555 1_555
C57_31 C52_31 1_555 1_555
H34_31 C57_31 1_555 1_555
C58_31 C54_31 1_555 1_555
C59_31 C58_31 1_555 1_555
H35_31 C59_31 1_555 1_555
C60_31 C59_31 1_555 1_555
H36_31 C60_31 1_555 1_555
C61_31 C60_31 1_555 1_555
C62_31 C61_31 1_555 1_555
H37_31 C62_31 1_555 1_555
C63_31 C58_31 1_555 1_555
H38_31 C63_31 1_555 1_555
C64_31 C61_31 1_555 1_555
C6_31 C7_31 1_555 1_555
C12_31 C13_31 1_555 1_555
C19_31 C20_31 1_555 1_555
C50_31 C51_31 1_555 1_555
C55_31 C56_31 1_555 1_555
C56_31 C57_31 1_555 1_555
C62_31 C63_31 1_555 1_555
O10_38 H51_7 1_555 1_555
O22_16 C22_32 1_555 1_555
O25_16 C22_32 1_555 1_555
O7_32 Cu5_11 1_555 1_555
O8_32 Cu7_11 1_555 1_555
O9_39 Cu5_11 1_555 1_555
O10_39 Cu7_11 1_555 1_555
C22_32 C23_32 1_555 1_555
C23_32 C24_32 1_555 1_555
C24_32 H14_32 1_555 1_555
C25_32 C24_32 1_555 1_555
H15_32 C25_32 1_555 1_555
C26_32 C25_32 1_555 1_555
C27_32 C26_32 1_555 1_555
H16_32 C27_32 1_555 1_555
C28_32 C23_32 1_555 1_555
H17_32 C28_32 1_555 1_555
C29_32 C26_32 1_555 1_555
C30_32 C29_32 1_555 1_555
H18_32 C30_32 1_555 1_555
C31_32 C29_32 1_555 1_555
H19_32 C31_32 1_555 1_555
C32_32 C31_32 1_555 1_555
C33_32 C32_32 1_555 1_555
H20_32 C33_32 1_555 1_555
H21_32 C33_32 1_555 1_555
C34_32 C33_32 1_555 1_555
C35_32 C34_32 1_555 1_555
H22_32 C35_32 1_555 1_555
C36_32 C35_32 1_555 1_555
C37_32 C36_32 1_555 1_555
H23_32 C37_32 1_555 1_555
C38_32 C36_32 1_555 1_555
C39_32 C38_32 1_555 1_555
H24_32 C39_32 1_555 1_555
C40_32 C39_32 1_555 1_555
H25_32 C40_32 1_555 1_555
C41_32 C40_32 1_555 1_555
C42_32 C41_32 1_555 1_555
H26_32 C42_32 1_555 1_555
C43_32 C38_32 1_555 1_555
H27_32 C43_32 1_555 1_555
C44_32 O7_32 1_555 1_555
Cu6_25 O27_24 1_555 1_555
Cu8_25 O29_24 1_555 1_555
O23_20 C65_32 1_555 1_555
O26_20 C65_32 1_555 1_555
O27_24 C82_32 1_555 1_555
O29_24 C82_32 1_555 1_555
C65_32 C66_32 1_555 1_555
C66_32 C67_32 1_555 1_555
C67_32 H39_32 1_555 1_555
C68_32 C67_32 1_555 1_555
H40_32 C68_32 1_555 1_555
C69_32 C68_32 1_555 1_555
C70_32 C69_32 1_555 1_555
H41_32 C70_32 1_555 1_555
C71_32 C66_32 1_555 1_555
H42_32 C71_32 1_555 1_555
C72_32 C30_32 1_555 1_555
C73_32 C32_32 1_555 1_555
H43_32 C73_32 1_555 1_555
C74_32 C34_32 1_555 1_555
H44_32 C74_32 1_555 1_555
C75_32 C37_32 1_555 1_555
C76_32 C75_32 1_555 1_555
C77_32 C76_32 1_555 1_555
H45_32 C77_32 1_555 1_555
C78_32 C77_32 1_555 1_555
H46_32 C78_32 1_555 1_555
C79_32 C78_32 1_555 1_555
C80_32 C79_32 1_555 1_555
H47_32 C80_32 1_555 1_555
C81_32 C76_32 1_555 1_555
H48_32 C81_32 1_555 1_555
C82_32 C79_32 1_555 1_555
O8_32 C44_32 1_555 1_555
C27_32 C28_32 1_555 1_555
C41_32 C44_32 1_555 1_555
C42_32 C43_32 1_555 1_555
C69_32 C72_32 1_555 1_555
C70_32 C71_32 1_555 1_555
C72_32 C73_32 1_555 1_555
C74_32 C75_32 1_555 1_555
C80_32 C81_32 1_555 1_555
O10_39 H52_8 1_555 1_555
O9_39 H55_8 1_555 1_555
O9_39 H56_8 1_555 1_555
Cu5_12 O1_32 1_555 1_555
Cu7_12 O2_32 1_555 1_555
Cu11_7 O3_32 1_555 1_555
Cu14_7 O4_32 1_555 1_555
O1_32 C1_32 1_555 1_555
O2_32 C1_32 1_555 1_555
O3_32 C21_32 1_555 1_555
O4_32 C21_32 1_555 1_555
O9_40 Cu5_12 1_555 1_555
O10_40 Cu7_12 1_555 1_555
O11_32 Cu11_7 1_555 1_555
O12_32 Cu14_7 1_555 1_555
C1_32 C2_32 1_555 1_555
C2_32 C3_32 1_555 1_555
C3_32 H1_32 1_555 1_555
C4_32 C3_32 1_555 1_555
H2_32 C4_32 1_555 1_555
C5_32 C4_32 1_555 1_555
C6_32 C5_32 1_555 1_555
H3_32 C6_32 1_555 1_555
C7_32 C2_32 1_555 1_555
H4_32 C7_32 1_555 1_555
C8_32 C5_32 1_555 1_555
C9_32 C8_32 1_555 1_555
H5_32 C9_32 1_555 1_555
C10_32 C9_32 1_555 1_555
C11_32 C10_32 1_555 1_555
H6_32 C11_32 1_555 1_555
C12_32 C11_32 1_555 1_555
C13_32 C8_32 1_555 1_555
H7_32 C13_32 1_555 1_555
C14_56 C12_32 1_555 1_555
H8_56 C14_56 1_555 1_555
H9_56 C14_56 1_555 1_555
C15_32 C10_32 1_555 1_555
C16_32 C15_32 1_555 1_555
H10_32 C16_32 1_555 1_555
C17_32 C16_32 1_555 1_555
H11_32 C17_32 1_555 1_555
C18_32 C17_32 1_555 1_555
C19_32 C18_32 1_555 1_555
H12_32 C19_32 1_555 1_555
C20_32 C15_32 1_555 1_555
H13_32 C20_32 1_555 1_555
C21_32 C18_32 1_555 1_555
O14_14 C45_32 1_555 1_555
O16_14 C45_32 1_555 1_555
O18_16 C64_32 1_555 1_555
O20_16 C64_32 1_555 1_555
O28_13 Cu5_12 1_555 1_555
O30_13 Cu7_12 1_555 1_555
C45_32 C46_32 1_555 1_555
C46_32 C47_32 1_555 1_555
C47_32 H28_32 1_555 1_555
C48_32 C47_32 1_555 1_555
H29_32 C48_32 1_555 1_555
C49_32 C48_32 1_555 1_555
C50_32 C49_32 1_555 1_555
H30_32 C50_32 1_555 1_555
C51_32 C46_32 1_555 1_555
H31_32 C51_32 1_555 1_555
C52_32 C49_32 1_555 1_555
C53_32 C52_32 1_555 1_555
H32_32 C53_32 1_555 1_555
C54_32 C53_32 1_555 1_555
C55_32 C54_32 1_555 1_555
H33_32 C55_32 1_555 1_555
C56_32 C14_56 1_555 1_555
C57_32 C52_32 1_555 1_555
H34_32 C57_32 1_555 1_555
C58_32 C54_32 1_555 1_555
C59_32 C58_32 1_555 1_555
H35_32 C59_32 1_555 1_555
C60_32 C59_32 1_555 1_555
H36_32 C60_32 1_555 1_555
C61_32 C60_32 1_555 1_555
C62_32 C61_32 1_555 1_555
H37_32 C62_32 1_555 1_555
C63_32 C58_32 1_555 1_555
H38_32 C63_32 1_555 1_555
C64_32 C61_32 1_555 1_555
C6_32 C7_32 1_555 1_555
C12_32 C13_32 1_555 1_555
C19_32 C20_32 1_555 1_555
C50_32 C51_32 1_555 1_555
C55_32 C56_32 1_555 1_555
C56_32 C57_32 1_555 1_555
C62_32 C63_32 1_555 1_555
O10_40 H51_8 1_555 1_555
O22_4 C22_33 1_555 1_555
O25_4 C22_33 1_555 1_555
O7_33 Cu5_13 1_555 1_555
O8_33 Cu7_13 1_555 1_555
O9_41 Cu5_13 1_555 1_555
O10_41 Cu7_13 1_555 1_555
C22_33 C23_33 1_555 1_555
C23_33 C24_33 1_555 1_555
C24_33 H14_33 1_555 1_555
C25_33 C24_33 1_555 1_555
H15_33 C25_33 1_555 1_555
C26_33 C25_33 1_555 1_555
C27_33 C26_33 1_555 1_555
H16_33 C27_33 1_555 1_555
C28_33 C23_33 1_555 1_555
H17_33 C28_33 1_555 1_555
C29_33 C26_33 1_555 1_555
C30_33 C29_33 1_555 1_555
H18_33 C30_33 1_555 1_555
C31_33 C29_33 1_555 1_555
H19_33 C31_33 1_555 1_555
C32_33 C31_33 1_555 1_555
C33_33 C32_33 1_555 1_555
H20_33 C33_33 1_555 1_555
H21_33 C33_33 1_555 1_555
C34_33 C33_33 1_555 1_555
C35_33 C34_33 1_555 1_555
H22_33 C35_33 1_555 1_555
C36_33 C35_33 1_555 1_555
C37_33 C36_33 1_555 1_555
H23_33 C37_33 1_555 1_555
C38_33 C36_33 1_555 1_555
C39_33 C38_33 1_555 1_555
H24_33 C39_33 1_555 1_555
C40_33 C39_33 1_555 1_555
H25_33 C40_33 1_555 1_555
C41_33 C40_33 1_555 1_555
C42_33 C41_33 1_555 1_555
H26_33 C42_33 1_555 1_555
C43_33 C38_33 1_555 1_555
H27_33 C43_33 1_555 1_555
C44_33 O7_33 1_555 1_555
Cu6_26 O27_25 1_555 1_555
Cu8_26 O29_25 1_555 1_555
O23_17 C65_33 1_555 1_555
O26_17 C65_33 1_555 1_555
O27_25 C82_33 1_555 1_555
O29_25 C82_33 1_555 1_555
C65_33 C66_33 1_555 1_555
C66_33 C67_33 1_555 1_555
C67_33 H39_33 1_555 1_555
C68_33 C67_33 1_555 1_555
H40_33 C68_33 1_555 1_555
C69_33 C68_33 1_555 1_555
C70_33 C69_33 1_555 1_555
H41_33 C70_33 1_555 1_555
C71_33 C66_33 1_555 1_555
H42_33 C71_33 1_555 1_555
C72_33 C30_33 1_555 1_555
C73_33 C32_33 1_555 1_555
H43_33 C73_33 1_555 1_555
C74_33 C34_33 1_555 1_555
H44_33 C74_33 1_555 1_555
C75_33 C37_33 1_555 1_555
C76_33 C75_33 1_555 1_555
C77_33 C76_33 1_555 1_555
H45_33 C77_33 1_555 1_555
C78_33 C77_33 1_555 1_555
H46_33 C78_33 1_555 1_555
C79_33 C78_33 1_555 1_555
C80_33 C79_33 1_555 1_555
H47_33 C80_33 1_555 1_555
C81_33 C76_33 1_555 1_555
H48_33 C81_33 1_555 1_555
C82_33 C79_33 1_555 1_555
O8_33 C44_33 1_555 1_555
C27_33 C28_33 1_555 1_555
C41_33 C44_33 1_555 1_555
C42_33 C43_33 1_555 1_555
C69_33 C72_33 1_555 1_555
C70_33 C71_33 1_555 1_555
C72_33 C73_33 1_555 1_555
C74_33 C75_33 1_555 1_555
C80_33 C81_33 1_555 1_555
O10_41 H52_9 1_555 1_555
O9_41 H55_9 1_555 1_555
O9_41 H56_9 1_555 1_555
Cu5_14 O1_33 1_555 1_555
Cu7_14 O2_33 1_555 1_555
Cu11_13 O3_33 1_555 1_555
Cu14_13 O4_33 1_555 1_555
O1_33 C1_33 1_555 1_555
O2_33 C1_33 1_555 1_555
O3_33 C21_33 1_555 1_555
O4_33 C21_33 1_555 1_555
O9_42 Cu5_14 1_555 1_555
O10_42 Cu7_14 1_555 1_555
O11_33 Cu11_13 1_555 1_555
O12_33 Cu14_13 1_555 1_555
C1_33 C2_33 1_555 1_555
C2_33 C3_33 1_555 1_555
C3_33 H1_33 1_555 1_555
C4_33 C3_33 1_555 1_555
H2_33 C4_33 1_555 1_555
C5_33 C4_33 1_555 1_555
C6_33 C5_33 1_555 1_555
H3_33 C6_33 1_555 1_555
C7_33 C2_33 1_555 1_555
H4_33 C7_33 1_555 1_555
C8_33 C5_33 1_555 1_555
C9_33 C8_33 1_555 1_555
H5_33 C9_33 1_555 1_555
C10_33 C9_33 1_555 1_555
C11_33 C10_33 1_555 1_555
H6_33 C11_33 1_555 1_555
C12_33 C11_33 1_555 1_555
C13_33 C8_33 1_555 1_555
H7_33 C13_33 1_555 1_555
C14_57 C12_33 1_555 1_555
H8_57 C14_57 1_555 1_555
H9_57 C14_57 1_555 1_555
C15_33 C10_33 1_555 1_555
C16_33 C15_33 1_555 1_555
H10_33 C16_33 1_555 1_555
C17_33 C16_33 1_555 1_555
H11_33 C17_33 1_555 1_555
C18_33 C17_33 1_555 1_555
C19_33 C18_33 1_555 1_555
H12_33 C19_33 1_555 1_555
C20_33 C15_33 1_555 1_555
H13_33 C20_33 1_555 1_555
C21_33 C18_33 1_555 1_555
Cu9_6 O17_19 1_555 1_555
Cu12_6 O19_19 1_555 1_555
O14_15 C45_33 1_555 1_555
O16_15 C45_33 1_555 1_555
O17_19 C64_33 1_555 1_555
O18_19 Cu11_13 1_555 1_555
O19_19 C64_33 1_555 1_555
O20_19 Cu14_13 1_555 1_555
C45_33 C46_33 1_555 1_555
C46_33 C47_33 1_555 1_555
C47_33 H28_33 1_555 1_555
C48_33 C47_33 1_555 1_555
H29_33 C48_33 1_555 1_555
C49_33 C48_33 1_555 1_555
C50_33 C49_33 1_555 1_555
H30_33 C50_33 1_555 1_555
C51_33 C46_33 1_555 1_555
H31_33 C51_33 1_555 1_555
C52_33 C49_33 1_555 1_555
C53_33 C52_33 1_555 1_555
H32_33 C53_33 1_555 1_555
C54_33 C53_33 1_555 1_555
C55_33 C54_33 1_555 1_555
H33_33 C55_33 1_555 1_555
C56_33 C14_57 1_555 1_555
C57_33 C52_33 1_555 1_555
H34_33 C57_33 1_555 1_555
C58_33 C54_33 1_555 1_555
C59_33 C58_33 1_555 1_555
H35_33 C59_33 1_555 1_555
C60_33 C59_33 1_555 1_555
H36_33 C60_33 1_555 1_555
C61_33 C60_33 1_555 1_555
C62_33 C61_33 1_555 1_555
H37_33 C62_33 1_555 1_555
C63_33 C58_33 1_555 1_555
H38_33 C63_33 1_555 1_555
C64_33 C61_33 1_555 1_555
C6_33 C7_33 1_555 1_555
C12_33 C13_33 1_555 1_555
C19_33 C20_33 1_555 1_555
C50_33 C51_33 1_555 1_555
C55_33 C56_33 1_555 1_555
C56_33 C57_33 1_555 1_555
C62_33 C63_33 1_555 1_555
O10_42 H51_9 1_555 1_555
O22_17 C22_34 1_555 1_555
O25_17 C22_34 1_555 1_555
O7_34 Cu6_24 1_555 1_555
O8_34 Cu8_24 1_555 1_555
O9_43 Cu6_24 1_555 1_555
O10_43 Cu8_24 1_555 1_555
C22_34 C23_34 1_555 1_555
C23_34 C24_34 1_555 1_555
C24_34 H14_34 1_555 1_555
C25_34 C24_34 1_555 1_555
H15_34 C25_34 1_555 1_555
C26_34 C25_34 1_555 1_555
C27_34 C26_34 1_555 1_555
H16_34 C27_34 1_555 1_555
C28_34 C23_34 1_555 1_555
H17_34 C28_34 1_555 1_555
C29_34 C26_34 1_555 1_555
C30_34 C29_34 1_555 1_555
H18_34 C30_34 1_555 1_555
C31_34 C29_34 1_555 1_555
H19_34 C31_34 1_555 1_555
C32_34 C31_34 1_555 1_555
C33_34 C32_34 1_555 1_555
H20_34 C33_34 1_555 1_555
H21_34 C33_34 1_555 1_555
C34_34 C33_34 1_555 1_555
C35_34 C34_34 1_555 1_555
H22_34 C35_34 1_555 1_555
C36_34 C35_34 1_555 1_555
C37_34 C36_34 1_555 1_555
H23_34 C37_34 1_555 1_555
C38_34 C36_34 1_555 1_555
C39_34 C38_34 1_555 1_555
H24_34 C39_34 1_555 1_555
C40_34 C39_34 1_555 1_555
H25_34 C40_34 1_555 1_555
C41_34 C40_34 1_555 1_555
C42_34 C41_34 1_555 1_555
H26_34 C42_34 1_555 1_555
C43_34 C38_34 1_555 1_555
H27_34 C43_34 1_555 1_555
C44_34 O7_34 1_555 1_555
Cu5_17 O27_26 1_555 1_555
Cu7_17 O29_26 1_555 1_555
O14_19 Cu6_24 1_555 1_555
O16_19 Cu8_24 1_555 1_555
O23 C65_34 1_555 1_555
O26 C65_34 1_555 1_555
O27_26 C82_34 1_555 1_555
O29_26 C82_34 1_555 1_555
C65_34 C66_34 1_555 1_555
C66_34 C67_34 1_555 1_555
C67_34 H39_34 1_555 1_555
C68_34 C67_34 1_555 1_555
H40_34 C68_34 1_555 1_555
C69_34 C68_34 1_555 1_555
C70_34 C69_34 1_555 1_555
H41_34 C70_34 1_555 1_555
C71_34 C66_34 1_555 1_555
H42_34 C71_34 1_555 1_555
C72_34 C30_34 1_555 1_555
C73_34 C32_34 1_555 1_555
H43_34 C73_34 1_555 1_555
C74_34 C34_34 1_555 1_555
H44_34 C74_34 1_555 1_555
C75_34 C37_34 1_555 1_555
C76_34 C75_34 1_555 1_555
C77_34 C76_34 1_555 1_555
H45_34 C77_34 1_555 1_555
C78_34 C77_34 1_555 1_555
H46_34 C78_34 1_555 1_555
C79_34 C78_34 1_555 1_555
C80_34 C79_34 1_555 1_555
H47_34 C80_34 1_555 1_555
C81_34 C76_34 1_555 1_555
H48_34 C81_34 1_555 1_555
C82_34 C79_34 1_555 1_555
O8_34 C44_34 1_555 1_555
C27_34 C28_34 1_555 1_555
C41_34 C44_34 1_555 1_555
C42_34 C43_34 1_555 1_555
C69_34 C72_34 1_555 1_555
C70_34 C71_34 1_555 1_555
C72_34 C73_34 1_555 1_555
C74_34 C75_34 1_555 1_555
C80_34 C81_34 1_555 1_555
O10_43 H52_10 1_555 1_555
O9_43 H55_10 1_555 1_555
O9_43 H56_10 1_555 1_555
Cu6_25 O1_34 1_555 1_555
Cu8_25 O2_34 1_555 1_555
Cu9_3 O3_34 1_555 1_555
Cu12_3 O4_34 1_555 1_555
O1_34 C1_34 1_555 1_555
O2_34 C1_34 1_555 1_555
O3_34 C21_34 1_555 1_555
O4_34 C21_34 1_555 1_555
O9_44 Cu6_25 1_555 1_555
O10_44 Cu8_25 1_555 1_555
O11_34 Cu9_3 1_555 1_555
O12_34 Cu12_3 1_555 1_555
C1_34 C2_34 1_555 1_555
C2_34 C3_34 1_555 1_555
C3_34 H1_34 1_555 1_555
C4_34 C3_34 1_555 1_555
H2_34 C4_34 1_555 1_555
C5_34 C4_34 1_555 1_555
C6_34 C5_34 1_555 1_555
H3_34 C6_34 1_555 1_555
C7_34 C2_34 1_555 1_555
H4_34 C7_34 1_555 1_555
C8_34 C5_34 1_555 1_555
C9_34 C8_34 1_555 1_555
H5_34 C9_34 1_555 1_555
C10_34 C9_34 1_555 1_555
C11_34 C10_34 1_555 1_555
H6_34 C11_34 1_555 1_555
C12_34 C11_34 1_555 1_555
C13_34 C8_34 1_555 1_555
H7_34 C13_34 1_555 1_555
C14_58 C12_34 1_555 1_555
H8_58 C14_58 1_555 1_555
H9_58 C14_58 1_555 1_555
C15_34 C10_34 1_555 1_555
C16_34 C15_34 1_555 1_555
H10_34 C16_34 1_555 1_555
C17_34 C16_34 1_555 1_555
H11_34 C17_34 1_555 1_555
C18_34 C17_34 1_555 1_555
C19_34 C18_34 1_555 1_555
H12_34 C19_34 1_555 1_555
C20_34 C15_34 1_555 1_555
H13_34 C20_34 1_555 1_555
C21_34 C18_34 1_555 1_555
Cu6_23 O13_19 1_555 1_555
Cu8_23 O15_19 1_555 1_555
O13_19 C45_34 1_555 1_555
O15_19 C45_34 1_555 1_555
O18_14 C64_34 1_555 1_555
O20_14 C64_34 1_555 1_555
C45_34 C46_34 1_555 1_555
C46_34 C47_34 1_555 1_555
C47_34 H28_34 1_555 1_555
C48_34 C47_34 1_555 1_555
H29_34 C48_34 1_555 1_555
C49_34 C48_34 1_555 1_555
C50_34 C49_34 1_555 1_555
H30_34 C50_34 1_555 1_555
C51_34 C46_34 1_555 1_555
H31_34 C51_34 1_555 1_555
C52_34 C49_34 1_555 1_555
C53_34 C52_34 1_555 1_555
H32_34 C53_34 1_555 1_555
C54_34 C53_34 1_555 1_555
C55_34 C54_34 1_555 1_555
H33_34 C55_34 1_555 1_555
C56_34 C14_58 1_555 1_555
C57_34 C52_34 1_555 1_555
H34_34 C57_34 1_555 1_555
C58_34 C54_34 1_555 1_555
C59_34 C58_34 1_555 1_555
H35_34 C59_34 1_555 1_555
C60_34 C59_34 1_555 1_555
H36_34 C60_34 1_555 1_555
C61_34 C60_34 1_555 1_555
C62_34 C61_34 1_555 1_555
H37_34 C62_34 1_555 1_555
C63_34 C58_34 1_555 1_555
H38_34 C63_34 1_555 1_555
C64_34 C61_34 1_555 1_555
C6_34 C7_34 1_555 1_555
C12_34 C13_34 1_555 1_555
C19_34 C20_34 1_555 1_555
C50_34 C51_34 1_555 1_555
C55_34 C56_34 1_555 1_555
C56_34 C57_34 1_555 1_555
C62_34 C63_34 1_555 1_555
O10_44 H51_10 1_555 1_555
Cu5_17 O1_35 1_555 1_555
Cu7_17 O2_35 1_555 1_555
Cu11_16 O3_35 1_555 1_555
Cu14_16 O4_35 1_555 1_555
O1_35 C1_35 1_555 1_555
O2_35 C1_35 1_555 1_555
O3_35 C21_35 1_555 1_555
O4_35 C21_35 1_555 1_555
O9_45 Cu5_17 1_555 1_555
O10_45 Cu7_17 1_555 1_555
O11_35 Cu11_16 1_555 1_555
O12_35 Cu14_16 1_555 1_555
C1_35 C2_35 1_555 1_555
C2_35 C3_35 1_555 1_555
C3_35 H1_35 1_555 1_555
C4_35 C3_35 1_555 1_555
H2_35 C4_35 1_555 1_555
C5_35 C4_35 1_555 1_555
C6_35 C5_35 1_555 1_555
H3_35 C6_35 1_555 1_555
C7_35 C2_35 1_555 1_555
H4_35 C7_35 1_555 1_555
C8_35 C5_35 1_555 1_555
C9_35 C8_35 1_555 1_555
H5_35 C9_35 1_555 1_555
C10_35 C9_35 1_555 1_555
C11_35 C10_35 1_555 1_555
H6_35 C11_35 1_555 1_555
C12_35 C11_35 1_555 1_555
C13_35 C8_35 1_555 1_555
H7_35 C13_35 1_555 1_555
C14_59 C12_35 1_555 1_555
H8_59 C14_59 1_555 1_555
H9_59 C14_59 1_555 1_555
C15_35 C10_35 1_555 1_555
C16_35 C15_35 1_555 1_555
H10_35 C16_35 1_555 1_555
C17_35 C16_35 1_555 1_555
H11_35 C17_35 1_555 1_555
C18_35 C17_35 1_555 1_555
C19_35 C18_35 1_555 1_555
H12_35 C19_35 1_555 1_555
C20_35 C15_35 1_555 1_555
H13_35 C20_35 1_555 1_555
C21_35 C18_35 1_555 1_555
Cu9 O17_20 1_555 1_555
Cu12 O19_20 1_555 1_555
O14_17 C45_35 1_555 1_555
O16_17 C45_35 1_555 1_555
O17_20 C64_35 1_555 1_555
O18_20 Cu11_16 1_555 1_555
O19_20 C64_35 1_555 1_555
O20_20 Cu14_16 1_555 1_555
C45_35 C46_35 1_555 1_555
C46_35 C47_35 1_555 1_555
C47_35 H28_35 1_555 1_555
C48_35 C47_35 1_555 1_555
H29_35 C48_35 1_555 1_555
C49_35 C48_35 1_555 1_555
C50_35 C49_35 1_555 1_555
H30_35 C50_35 1_555 1_555
C51_35 C46_35 1_555 1_555
H31_35 C51_35 1_555 1_555
C52_35 C49_35 1_555 1_555
C53_35 C52_35 1_555 1_555
H32_35 C53_35 1_555 1_555
C54_35 C53_35 1_555 1_555
C55_35 C54_35 1_555 1_555
H33_35 C55_35 1_555 1_555
C56_35 C14_59 1_555 1_555
C57_35 C52_35 1_555 1_555
H34_35 C57_35 1_555 1_555
C58_35 C54_35 1_555 1_555
C59_35 C58_35 1_555 1_555
H35_35 C59_35 1_555 1_555
C60_35 C59_35 1_555 1_555
H36_35 C60_35 1_555 1_555
C61_35 C60_35 1_555 1_555
C62_35 C61_35 1_555 1_555
H37_35 C62_35 1_555 1_555
C63_35 C58_35 1_555 1_555
H38_35 C63_35 1_555 1_555
C64_35 C61_35 1_555 1_555
C6_35 C7_35 1_555 1_555
C12_35 C13_35 1_555 1_555
C19_35 C20_35 1_555 1_555
C50_35 C51_35 1_555 1_555
C55_35 C56_35 1_555 1_555
C56_35 C57_35 1_555 1_555
C62_35 C63_35 1_555 1_555
O10_45 H51_11 1_555 1_555
O22_7 C22_35 1_555 1_555
O25_7 C22_35 1_555 1_555
O7_35 Cu5_18 1_555 1_555
O8_35 Cu7_18 1_555 1_555
O9_46 Cu5_18 1_555 1_555
O10_46 Cu7_18 1_555 1_555
C22_35 C23_35 1_555 1_555
C23_35 C24_35 1_555 1_555
C24_35 H14_35 1_555 1_555
C25_35 C24_35 1_555 1_555
H15_35 C25_35 1_555 1_555
C26_35 C25_35 1_555 1_555
C27_35 C26_35 1_555 1_555
H16_35 C27_35 1_555 1_555
C28_35 C23_35 1_555 1_555
H17_35 C28_35 1_555 1_555
C29_35 C26_35 1_555 1_555
C30_35 C29_35 1_555 1_555
H18_35 C30_35 1_555 1_555
C31_35 C29_35 1_555 1_555
H19_35 C31_35 1_555 1_555
C32_35 C31_35 1_555 1_555
C33_35 C32_35 1_555 1_555
H20_35 C33_35 1_555 1_555
H21_35 C33_35 1_555 1_555
C34_35 C33_35 1_555 1_555
C35_35 C34_35 1_555 1_555
H22_35 C35_35 1_555 1_555
C36_35 C35_35 1_555 1_555
C37_35 C36_35 1_555 1_555
H23_35 C37_35 1_555 1_555
C38_35 C36_35 1_555 1_555
C39_35 C38_35 1_555 1_555
H24_35 C39_35 1_555 1_555
C40_35 C39_35 1_555 1_555
H25_35 C40_35 1_555 1_555
C41_35 C40_35 1_555 1_555
C42_35 C41_35 1_555 1_555
H26_35 C42_35 1_555 1_555
C43_35 C38_35 1_555 1_555
H27_35 C43_35 1_555 1_555
C44_35 O7_35 1_555 1_555
Cu5_15 O27_27 1_555 1_555
Cu7_15 O29_27 1_555 1_555
O23_19 C65_35 1_555 1_555
O26_19 C65_35 1_555 1_555
O27_27 C82_35 1_555 1_555
O29_27 C82_35 1_555 1_555
C65_35 C66_35 1_555 1_555
C66_35 C67_35 1_555 1_555
C67_35 H39_35 1_555 1_555
C68_35 C67_35 1_555 1_555
H40_35 C68_35 1_555 1_555
C69_35 C68_35 1_555 1_555
C70_35 C69_35 1_555 1_555
H41_35 C70_35 1_555 1_555
C71_35 C66_35 1_555 1_555
H42_35 C71_35 1_555 1_555
C72_35 C30_35 1_555 1_555
C73_35 C32_35 1_555 1_555
H43_35 C73_35 1_555 1_555
C74_35 C34_35 1_555 1_555
H44_35 C74_35 1_555 1_555
C75_35 C37_35 1_555 1_555
C76_35 C75_35 1_555 1_555
C77_35 C76_35 1_555 1_555
H45_35 C77_35 1_555 1_555
C78_35 C77_35 1_555 1_555
H46_35 C78_35 1_555 1_555
C79_35 C78_35 1_555 1_555
C80_35 C79_35 1_555 1_555
H47_35 C80_35 1_555 1_555
C81_35 C76_35 1_555 1_555
H48_35 C81_35 1_555 1_555
C82_35 C79_35 1_555 1_555
O8_35 C44_35 1_555 1_555
C27_35 C28_35 1_555 1_555
C41_35 C44_35 1_555 1_555
C42_35 C43_35 1_555 1_555
C69_35 C72_35 1_555 1_555
C70_35 C71_35 1_555 1_555
C72_35 C73_35 1_555 1_555
C74_35 C75_35 1_555 1_555
C80_35 C81_35 1_555 1_555
O10_46 H52_11 1_555 1_555
O9_46 H55_11 1_555 1_555
O9_46 H56_11 1_555 1_555
O22_19 C22_36 1_555 1_555
O25_19 C22_36 1_555 1_555
O7_36 Cu6_12 1_555 1_555
O8_36 Cu8_12 1_555 1_555
O9_47 Cu6_12 1_555 1_555
O10_47 Cu8_12 1_555 1_555
C22_36 C23_36 1_555 1_555
C23_36 C24_36 1_555 1_555
C24_36 H14_36 1_555 1_555
C25_36 C24_36 1_555 1_555
H15_36 C25_36 1_555 1_555
C26_36 C25_36 1_555 1_555
C27_36 C26_36 1_555 1_555
H16_36 C27_36 1_555 1_555
C28_36 C23_36 1_555 1_555
H17_36 C28_36 1_555 1_555
C29_36 C26_36 1_555 1_555
C30_36 C29_36 1_555 1_555
H18_36 C30_36 1_555 1_555
C31_36 C29_36 1_555 1_555
H19_36 C31_36 1_555 1_555
C32_36 C31_36 1_555 1_555
C33_36 C32_36 1_555 1_555
H20_36 C33_36 1_555 1_555
H21_36 C33_36 1_555 1_555
C34_36 C33_36 1_555 1_555
C35_36 C34_36 1_555 1_555
H22_36 C35_36 1_555 1_555
C36_36 C35_36 1_555 1_555
C37_36 C36_36 1_555 1_555
H23_36 C37_36 1_555 1_555
C38_36 C36_36 1_555 1_555
C39_36 C38_36 1_555 1_555
H24_36 C39_36 1_555 1_555
C40_36 C39_36 1_555 1_555
H25_36 C40_36 1_555 1_555
C41_36 C40_36 1_555 1_555
C42_36 C41_36 1_555 1_555
H26_36 C42_36 1_555 1_555
C43_36 C38_36 1_555 1_555
H27_36 C43_36 1_555 1_555
C44_36 O7_36 1_555 1_555
O14_20 Cu6_12 1_555 1_555
O16_20 Cu8_12 1_555 1_555
O23_2 C65_36 1_555 1_555
O26_2 C65_36 1_555 1_555
O28_11 C82_36 1_555 1_555
O30_11 C82_36 1_555 1_555
C65_36 C66_36 1_555 1_555
C66_36 C67_36 1_555 1_555
C67_36 H39_36 1_555 1_555
C68_36 C67_36 1_555 1_555
H40_36 C68_36 1_555 1_555
C69_36 C68_36 1_555 1_555
C70_36 C69_36 1_555 1_555
H41_36 C70_36 1_555 1_555
C71_36 C66_36 1_555 1_555
H42_36 C71_36 1_555 1_555
C72_36 C30_36 1_555 1_555
C73_36 C32_36 1_555 1_555
H43_36 C73_36 1_555 1_555
C74_36 C34_36 1_555 1_555
H44_36 C74_36 1_555 1_555
C75_36 C37_36 1_555 1_555
C76_36 C75_36 1_555 1_555
C77_36 C76_36 1_555 1_555
H45_36 C77_36 1_555 1_555
C78_36 C77_36 1_555 1_555
H46_36 C78_36 1_555 1_555
C79_36 C78_36 1_555 1_555
C80_36 C79_36 1_555 1_555
H47_36 C80_36 1_555 1_555
C81_36 C76_36 1_555 1_555
H48_36 C81_36 1_555 1_555
C82_36 C79_36 1_555 1_555
O8_36 C44_36 1_555 1_555
C27_36 C28_36 1_555 1_555
C41_36 C44_36 1_555 1_555
C42_36 C43_36 1_555 1_555
C69_36 C72_36 1_555 1_555
C70_36 C71_36 1_555 1_555
C72_36 C73_36 1_555 1_555
C74_36 C75_36 1_555 1_555
C80_36 C81_36 1_555 1_555
O10_47 H52_12 1_555 1_555
O9_47 H55_12 1_555 1_555
O9_47 H56_12 1_555 1_555
Cu6_13 O1_36 1_555 1_555
Cu8_13 O2_36 1_555 1_555
Cu9_5 O3_36 1_555 1_555
Cu12_5 O4_36 1_555 1_555
O1_36 C1_36 1_555 1_555
O2_36 C1_36 1_555 1_555
O3_36 C21_36 1_555 1_555
O4_36 C21_36 1_555 1_555
O9_48 Cu6_13 1_555 1_555
O10_48 Cu8_13 1_555 1_555
O11_36 Cu9_5 1_555 1_555
O12_36 Cu12_5 1_555 1_555
C1_36 C2_36 1_555 1_555
C2_36 C3_36 1_555 1_555
C3_36 H1_36 1_555 1_555
C4_36 C3_36 1_555 1_555
H2_36 C4_36 1_555 1_555
C5_36 C4_36 1_555 1_555
C6_36 C5_36 1_555 1_555
H3_36 C6_36 1_555 1_555
C7_36 C2_36 1_555 1_555
H4_36 C7_36 1_555 1_555
C8_36 C5_36 1_555 1_555
C9_36 C8_36 1_555 1_555
H5_36 C9_36 1_555 1_555
C10_36 C9_36 1_555 1_555
C11_36 C10_36 1_555 1_555
H6_36 C11_36 1_555 1_555
C12_36 C11_36 1_555 1_555
C13_36 C8_36 1_555 1_555
H7_36 C13_36 1_555 1_555
C14_60 C12_36 1_555 1_555
H8_60 C14_60 1_555 1_555
H9_60 C14_60 1_555 1_555
C15_36 C10_36 1_555 1_555
C16_36 C15_36 1_555 1_555
H10_36 C16_36 1_555 1_555
C17_36 C16_36 1_555 1_555
H11_36 C17_36 1_555 1_555
C18_36 C17_36 1_555 1_555
C19_36 C18_36 1_555 1_555
H12_36 C19_36 1_555 1_555
C20_36 C15_36 1_555 1_555
H13_36 C20_36 1_555 1_555
C21_36 C18_36 1_555 1_555
Cu6_27 O13_20 1_555 1_555
Cu8_27 O15_20 1_555 1_555
O13_20 C45_36 1_555 1_555
O15_20 C45_36 1_555 1_555
O18_17 C64_36 1_555 1_555
O20_17 C64_36 1_555 1_555
C45_36 C46_36 1_555 1_555
C46_36 C47_36 1_555 1_555
C47_36 H28_36 1_555 1_555
C48_36 C47_36 1_555 1_555
H29_36 C48_36 1_555 1_555
C49_36 C48_36 1_555 1_555
C50_36 C49_36 1_555 1_555
H30_36 C50_36 1_555 1_555
C51_36 C46_36 1_555 1_555
H31_36 C51_36 1_555 1_555
C52_36 C49_36 1_555 1_555
C53_36 C52_36 1_555 1_555
H32_36 C53_36 1_555 1_555
C54_36 C53_36 1_555 1_555
C55_36 C54_36 1_555 1_555
H33_36 C55_36 1_555 1_555
C56_36 C14_60 1_555 1_555
C57_36 C52_36 1_555 1_555
H34_36 C57_36 1_555 1_555
C58_36 C54_36 1_555 1_555
C59_36 C58_36 1_555 1_555
H35_36 C59_36 1_555 1_555
C60_36 C59_36 1_555 1_555
H36_36 C60_36 1_555 1_555
C61_36 C60_36 1_555 1_555
C62_36 C61_36 1_555 1_555
H37_36 C62_36 1_555 1_555
C63_36 C58_36 1_555 1_555
H38_36 C63_36 1_555 1_555
C64_36 C61_36 1_555 1_555
C6_36 C7_36 1_555 1_555
C12_36 C13_36 1_555 1_555
C19_36 C20_36 1_555 1_555
C50_36 C51_36 1_555 1_555
C55_36 C56_36 1_555 1_555
C56_36 C57_36 1_555 1_555
C62_36 C63_36 1_555 1_555
O10_48 H51_12 1_555 1_555
Cu5_15 O1_37 1_555 1_555
Cu7_15 O2_37 1_555 1_555
Cu9_4 O3_37 1_555 1_555
Cu12_4 O4_37 1_555 1_555
O1_37 C1_37 1_555 1_555
O2_37 C1_37 1_555 1_555
O3_37 C21_37 1_555 1_555
O4_37 C21_37 1_555 1_555
O9_49 Cu5_15 1_555 1_555
O10_49 Cu7_15 1_555 1_555
O11_37 Cu9_4 1_555 1_555
O12_37 Cu12_4 1_555 1_555
C1_37 C2_37 1_555 1_555
C2_37 C3_37 1_555 1_555
C3_37 H1_37 1_555 1_555
C4_37 C3_37 1_555 1_555
H2_37 C4_37 1_555 1_555
C5_37 C4_37 1_555 1_555
C6_37 C5_37 1_555 1_555
H3_37 C6_37 1_555 1_555
C7_37 C2_37 1_555 1_555
H4_37 C7_37 1_555 1_555
C8_37 C5_37 1_555 1_555
C9_37 C8_37 1_555 1_555
H5_37 C9_37 1_555 1_555
C10_37 C9_37 1_555 1_555
C11_37 C10_37 1_555 1_555
H6_37 C11_37 1_555 1_555
C12_37 C11_37 1_555 1_555
C13_37 C8_37 1_555 1_555
H7_37 C13_37 1_555 1_555
C14_61 C12_37 1_555 1_555
H8_61 C14_61 1_555 1_555
H9_61 C14_61 1_555 1_555
C15_37 C10_37 1_555 1_555
C16_37 C15_37 1_555 1_555
H10_37 C16_37 1_555 1_555
C17_37 C16_37 1_555 1_555
H11_37 C17_37 1_555 1_555
C18_37 C17_37 1_555 1_555
C19_37 C18_37 1_555 1_555
H12_37 C19_37 1_555 1_555
C20_37 C15_37 1_555 1_555
H13_37 C20_37 1_555 1_555
C21_37 C18_37 1_555 1_555
O14_16 C45_37 1_555 1_555
O16_16 C45_37 1_555 1_555
O18_18 C64_37 1_555 1_555
O20_18 C64_37 1_555 1_555
C45_37 C46_37 1_555 1_555
C46_37 C47_37 1_555 1_555
C47_37 H28_37 1_555 1_555
C48_37 C47_37 1_555 1_555
H29_37 C48_37 1_555 1_555
C49_37 C48_37 1_555 1_555
C50_37 C49_37 1_555 1_555
H30_37 C50_37 1_555 1_555
C51_37 C46_37 1_555 1_555
H31_37 C51_37 1_555 1_555
C52_37 C49_37 1_555 1_555
C53_37 C52_37 1_555 1_555
H32_37 C53_37 1_555 1_555
C54_37 C53_37 1_555 1_555
C55_37 C54_37 1_555 1_555
H33_37 C55_37 1_555 1_555
C56_37 C14_61 1_555 1_555
C57_37 C52_37 1_555 1_555
H34_37 C57_37 1_555 1_555
C58_37 C54_37 1_555 1_555
C59_37 C58_37 1_555 1_555
H35_37 C59_37 1_555 1_555
C60_37 C59_37 1_555 1_555
H36_37 C60_37 1_555 1_555
C61_37 C60_37 1_555 1_555
C62_37 C61_37 1_555 1_555
H37_37 C62_37 1_555 1_555
C63_37 C58_37 1_555 1_555
H38_37 C63_37 1_555 1_555
C64_37 C61_37 1_555 1_555
C6_37 C7_37 1_555 1_555
C12_37 C13_37 1_555 1_555
C19_37 C20_37 1_555 1_555
C50_37 C51_37 1_555 1_555
C55_37 C56_37 1_555 1_555
C56_37 C57_37 1_555 1_555
C62_37 C63_37 1_555 1_555
O10_49 H51_13 1_555 1_555
O22_23 C22_37 1_555 1_555
O25_23 C22_37 1_555 1_555
O7_37 Cu5_16 1_555 1_555
O8_37 Cu7_16 1_555 1_555
O9_50 Cu5_16 1_555 1_555
O10_50 Cu7_16 1_555 1_555
C22_37 C23_37 1_555 1_555
C23_37 C24_37 1_555 1_555
C24_37 H14_37 1_555 1_555
C25_37 C24_37 1_555 1_555
H15_37 C25_37 1_555 1_555
C26_37 C25_37 1_555 1_555
C27_37 C26_37 1_555 1_555
H16_37 C27_37 1_555 1_555
C28_37 C23_37 1_555 1_555
H17_37 C28_37 1_555 1_555
C29_37 C26_37 1_555 1_555
C30_37 C29_37 1_555 1_555
H18_37 C30_37 1_555 1_555
C31_37 C29_37 1_555 1_555
H19_37 C31_37 1_555 1_555
C32_37 C31_37 1_555 1_555
C33_37 C32_37 1_555 1_555
H20_37 C33_37 1_555 1_555
H21_37 C33_37 1_555 1_555
C34_37 C33_37 1_555 1_555
C35_37 C34_37 1_555 1_555
H22_37 C35_37 1_555 1_555
C36_37 C35_37 1_555 1_555
C37_37 C36_37 1_555 1_555
H23_37 C37_37 1_555 1_555
C38_37 C36_37 1_555 1_555
C39_37 C38_37 1_555 1_555
H24_37 C39_37 1_555 1_555
C40_37 C39_37 1_555 1_555
H25_37 C40_37 1_555 1_555
C41_37 C40_37 1_555 1_555
C42_37 C41_37 1_555 1_555
H26_37 C42_37 1_555 1_555
C43_37 C38_37 1_555 1_555
H27_37 C43_37 1_555 1_555
C44_37 O7_37 1_555 1_555
O23_9 C65_37 1_555 1_555
O26_9 C65_37 1_555 1_555
O28_13 C82_37 1_555 1_555
O30_13 C82_37 1_555 1_555
C65_37 C66_37 1_555 1_555
C66_37 C67_37 1_555 1_555
C67_37 H39_37 1_555 1_555
C68_37 C67_37 1_555 1_555
H40_37 C68_37 1_555 1_555
C69_37 C68_37 1_555 1_555
C70_37 C69_37 1_555 1_555
H41_37 C70_37 1_555 1_555
C71_37 C66_37 1_555 1_555
H42_37 C71_37 1_555 1_555
C72_37 C30_37 1_555 1_555
C73_37 C32_37 1_555 1_555
H43_37 C73_37 1_555 1_555
C74_37 C34_37 1_555 1_555
H44_37 C74_37 1_555 1_555
C75_37 C37_37 1_555 1_555
C76_37 C75_37 1_555 1_555
C77_37 C76_37 1_555 1_555
H45_37 C77_37 1_555 1_555
C78_37 C77_37 1_555 1_555
H46_37 C78_37 1_555 1_555
C79_37 C78_37 1_555 1_555
C80_37 C79_37 1_555 1_555
H47_37 C80_37 1_555 1_555
C81_37 C76_37 1_555 1_555
H48_37 C81_37 1_555 1_555
C82_37 C79_37 1_555 1_555
O8_37 C44_37 1_555 1_555
C27_37 C28_37 1_555 1_555
C41_37 C44_37 1_555 1_555
C42_37 C43_37 1_555 1_555
C69_37 C72_37 1_555 1_555
C70_37 C71_37 1_555 1_555
C72_37 C73_37 1_555 1_555
C74_37 C75_37 1_555 1_555
C80_37 C81_37 1_555 1_555
O10_50 H52_13 1_555 1_555
O9_50 H55_13 1_555 1_555
O9_50 H56_13 1_555 1_555
Cu6_26 O1_38 1_555 1_555
Cu8_26 O2_38 1_555 1_555
Cu9_2 O3_38 1_555 1_555
Cu12_2 O4_38 1_555 1_555
O1_38 C1_38 1_555 1_555
O2_38 C1_38 1_555 1_555
O3_38 C21_38 1_555 1_555
O4_38 C21_38 1_555 1_555
O9_51 Cu6_26 1_555 1_555
O10_51 Cu8_26 1_555 1_555
O11_38 Cu9_2 1_555 1_555
O12_38 Cu12_2 1_555 1_555
C1_38 C2_38 1_555 1_555
C2_38 C3_38 1_555 1_555
C3_38 H1_38 1_555 1_555
C4_38 C3_38 1_555 1_555
H2_38 C4_38 1_555 1_555
C5_38 C4_38 1_555 1_555
C6_38 C5_38 1_555 1_555
H3_38 C6_38 1_555 1_555
C7_38 C2_38 1_555 1_555
H4_38 C7_38 1_555 1_555
C8_38 C5_38 1_555 1_555
C9_38 C8_38 1_555 1_555
H5_38 C9_38 1_555 1_555
C10_38 C9_38 1_555 1_555
C11_38 C10_38 1_555 1_555
H6_38 C11_38 1_555 1_555
C12_38 C11_38 1_555 1_555
C13_38 C8_38 1_555 1_555
H7_38 C13_38 1_555 1_555
C14_62 C12_38 1_555 1_555
H8_62 C14_62 1_555 1_555
H9_62 C14_62 1_555 1_555
C15_38 C10_38 1_555 1_555
C16_38 C15_38 1_555 1_555
H10_38 C16_38 1_555 1_555
C17_38 C16_38 1_555 1_555
H11_38 C17_38 1_555 1_555
C18_38 C17_38 1_555 1_555
C19_38 C18_38 1_555 1_555
H12_38 C19_38 1_555 1_555
C20_38 C15_38 1_555 1_555
H13_38 C20_38 1_555 1_555
C21_38 C18_38 1_555 1_555
O14_20 C45_38 1_555 1_555
O16_20 C45_38 1_555 1_555
O18_15 C64_38 1_555 1_555
O20_15 C64_38 1_555 1_555
C45_38 C46_38 1_555 1_555
C46_38 C47_38 1_555 1_555
C47_38 H28_38 1_555 1_555
C48_38 C47_38 1_555 1_555
H29_38 C48_38 1_555 1_555
C49_38 C48_38 1_555 1_555
C50_38 C49_38 1_555 1_555
H30_38 C50_38 1_555 1_555
C51_38 C46_38 1_555 1_555
H31_38 C51_38 1_555 1_555
C52_38 C49_38 1_555 1_555
C53_38 C52_38 1_555 1_555
H32_38 C53_38 1_555 1_555
C54_38 C53_38 1_555 1_555
C55_38 C54_38 1_555 1_555
H33_38 C55_38 1_555 1_555
C56_38 C14_62 1_555 1_555
C57_38 C52_38 1_555 1_555
H34_38 C57_38 1_555 1_555
C58_38 C54_38 1_555 1_555
C59_38 C58_38 1_555 1_555
H35_38 C59_38 1_555 1_555
C60_38 C59_38 1_555 1_555
H36_38 C60_38 1_555 1_555
C61_38 C60_38 1_555 1_555
C62_38 C61_38 1_555 1_555
H37_38 C62_38 1_555 1_555
C63_38 C58_38 1_555 1_555
H38_38 C63_38 1_555 1_555
C64_38 C61_38 1_555 1_555
C6_38 C7_38 1_555 1_555
C12_38 C13_38 1_555 1_555
C19_38 C20_38 1_555 1_555
C50_38 C51_38 1_555 1_555
C55_38 C56_38 1_555 1_555
C56_38 C57_38 1_555 1_555
C62_38 C63_38 1_555 1_555
O10_51 H51_14 1_555 1_555
O22_20 C22_38 1_555 1_555
O25_20 C22_38 1_555 1_555
O7_38 Cu6_27 1_555 1_555
O8_38 Cu8_27 1_555 1_555
O9_52 Cu6_27 1_555 1_555
O10_52 Cu8_27 1_555 1_555
C22_38 C23_38 1_555 1_555
C23_38 C24_38 1_555 1_555
C24_38 H14_38 1_555 1_555
C25_38 C24_38 1_555 1_555
H15_38 C25_38 1_555 1_555
C26_38 C25_38 1_555 1_555
C27_38 C26_38 1_555 1_555
H16_38 C27_38 1_555 1_555
C28_38 C23_38 1_555 1_555
H17_38 C28_38 1_555 1_555
C29_38 C26_38 1_555 1_555
C30_38 C29_38 1_555 1_555
H18_38 C30_38 1_555 1_555
C31_38 C29_38 1_555 1_555
H19_38 C31_38 1_555 1_555
C32_38 C31_38 1_555 1_555
C33_38 C32_38 1_555 1_555
H20_38 C33_38 1_555 1_555
H21_38 C33_38 1_555 1_555
C34_38 C33_38 1_555 1_555
C35_38 C34_38 1_555 1_555
H22_38 C35_38 1_555 1_555
C36_38 C35_38 1_555 1_555
C37_38 C36_38 1_555 1_555
H23_38 C37_38 1_555 1_555
C38_38 C36_38 1_555 1_555
C39_38 C38_38 1_555 1_555
H24_38 C39_38 1_555 1_555
C40_38 C39_38 1_555 1_555
H25_38 C40_38 1_555 1_555
C41_38 C40_38 1_555 1_555
C42_38 C41_38 1_555 1_555
H26_38 C42_38 1_555 1_555
C43_38 C38_38 1_555 1_555
H27_38 C43_38 1_555 1_555
C44_38 O7_38 1_555 1_555
O23_6 C65_38 1_555 1_555
O26_6 C65_38 1_555 1_555
O28_12 C82_38 1_555 1_555
O30_12 C82_38 1_555 1_555
C65_38 C66_38 1_555 1_555
C66_38 C67_38 1_555 1_555
C67_38 H39_38 1_555 1_555
C68_38 C67_38 1_555 1_555
H40_38 C68_38 1_555 1_555
C69_38 C68_38 1_555 1_555
C70_38 C69_38 1_555 1_555
H41_38 C70_38 1_555 1_555
C71_38 C66_38 1_555 1_555
H42_38 C71_38 1_555 1_555
C72_38 C30_38 1_555 1_555
C73_38 C32_38 1_555 1_555
H43_38 C73_38 1_555 1_555
C74_38 C34_38 1_555 1_555
H44_38 C74_38 1_555 1_555
C75_38 C37_38 1_555 1_555
C76_38 C75_38 1_555 1_555
C77_38 C76_38 1_555 1_555
H45_38 C77_38 1_555 1_555
C78_38 C77_38 1_555 1_555
H46_38 C78_38 1_555 1_555
C79_38 C78_38 1_555 1_555
C80_38 C79_38 1_555 1_555
H47_38 C80_38 1_555 1_555
C81_38 C76_38 1_555 1_555
H48_38 C81_38 1_555 1_555
C82_38 C79_38 1_555 1_555
O8_38 C44_38 1_555 1_555
C27_38 C28_38 1_555 1_555
C41_38 C44_38 1_555 1_555
C42_38 C43_38 1_555 1_555
C69_38 C72_38 1_555 1_555
C70_38 C71_38 1_555 1_555
C72_38 C73_38 1_555 1_555
C74_38 C75_38 1_555 1_555
C80_38 C81_38 1_555 1_555
O10_52 H52_14 1_555 1_555
O9_52 H55_14 1_555 1_555
O9_52 H56_14 1_555 1_555
Cu6_22 O1_39 1_555 1_555
Cu8_22 O2_39 1_555 1_555
Cu9 O3_39 1_555 1_555
Cu12 O4_39 1_555 1_555
O1_39 C1_39 1_555 1_555
O2_39 C1_39 1_555 1_555
O3_39 C21_39 1_555 1_555
O4_39 C21_39 1_555 1_555
O9_53 Cu6_22 1_555 1_555
O10_53 Cu8_22 1_555 1_555
O11_39 Cu9 1_555 1_555
O12_39 Cu12 1_555 1_555
C1_39 C2_39 1_555 1_555
C2_39 C3_39 1_555 1_555
C3_39 H1_39 1_555 1_555
C4_39 C3_39 1_555 1_555
H2_39 C4_39 1_555 1_555
C5_39 C4_39 1_555 1_555
C6_39 C5_39 1_555 1_555
H3_39 C6_39 1_555 1_555
C7_39 C2_39 1_555 1_555
H4_39 C7_39 1_555 1_555
C8_39 C5_39 1_555 1_555
C9_39 C8_39 1_555 1_555
H5_39 C9_39 1_555 1_555
C10_39 C9_39 1_555 1_555
C11_39 C10_39 1_555 1_555
H6_39 C11_39 1_555 1_555
C12_39 C11_39 1_555 1_555
C13_39 C8_39 1_555 1_555
H7_39 C13_39 1_555 1_555
C14_63 C12_39 1_555 1_555
H8_63 C14_63 1_555 1_555
H9_63 C14_63 1_555 1_555
C15_39 C10_39 1_555 1_555
C16_39 C15_39 1_555 1_555
H10_39 C16_39 1_555 1_555
C17_39 C16_39 1_555 1_555
H11_39 C17_39 1_555 1_555
C18_39 C17_39 1_555 1_555
C19_39 C18_39 1_555 1_555
H12_39 C19_39 1_555 1_555
C20_39 C15_39 1_555 1_555
H13_39 C20_39 1_555 1_555
C21_39 C18_39 1_555 1_555
O14_19 C45_39 1_555 1_555
O16_19 C45_39 1_555 1_555
O18_20 C64_39 1_555 1_555
O20_20 C64_39 1_555 1_555
C45_39 C46_39 1_555 1_555
C46_39 C47_39 1_555 1_555
C47_39 H28_39 1_555 1_555
C48_39 C47_39 1_555 1_555
H29_39 C48_39 1_555 1_555
C49_39 C48_39 1_555 1_555
C50_39 C49_39 1_555 1_555
H30_39 C50_39 1_555 1_555
C51_39 C46_39 1_555 1_555
H31_39 C51_39 1_555 1_555
C52_39 C49_39 1_555 1_555
C53_39 C52_39 1_555 1_555
H32_39 C53_39 1_555 1_555
C54_39 C53_39 1_555 1_555
C55_39 C54_39 1_555 1_555
H33_39 C55_39 1_555 1_555
C56_39 C14_63 1_555 1_555
C57_39 C52_39 1_555 1_555
H34_39 C57_39 1_555 1_555
C58_39 C54_39 1_555 1_555
C59_39 C58_39 1_555 1_555
H35_39 C59_39 1_555 1_555
C60_39 C59_39 1_555 1_555
H36_39 C60_39 1_555 1_555
C61_39 C60_39 1_555 1_555
C62_39 C61_39 1_555 1_555
H37_39 C62_39 1_555 1_555
C63_39 C58_39 1_555 1_555
H38_39 C63_39 1_555 1_555
C64_39 C61_39 1_555 1_555
C6_39 C7_39 1_555 1_555
C12_39 C13_39 1_555 1_555
C19_39 C20_39 1_555 1_555
C50_39 C51_39 1_555 1_555
C55_39 C56_39 1_555 1_555
C56_39 C57_39 1_555 1_555
C62_39 C63_39 1_555 1_555
O10_53 H51_15 1_555 1_555
O22_21 C22_39 1_555 1_555
O25_21 C22_39 1_555 1_555
O7_39 Cu6_23 1_555 1_555
O8_39 Cu8_23 1_555 1_555
O9_54 Cu6_23 1_555 1_555
O10_54 Cu8_23 1_555 1_555
C22_39 C23_39 1_555 1_555
C23_39 C24_39 1_555 1_555
C24_39 H14_39 1_555 1_555
C25_39 C24_39 1_555 1_555
H15_39 C25_39 1_555 1_555
C26_39 C25_39 1_555 1_555
C27_39 C26_39 1_555 1_555
H16_39 C27_39 1_555 1_555
C28_39 C23_39 1_555 1_555
H17_39 C28_39 1_555 1_555
C29_39 C26_39 1_555 1_555
C30_39 C29_39 1_555 1_555
H18_39 C30_39 1_555 1_555
C31_39 C29_39 1_555 1_555
H19_39 C31_39 1_555 1_555
C32_39 C31_39 1_555 1_555
C33_39 C32_39 1_555 1_555
H20_39 C33_39 1_555 1_555
H21_39 C33_39 1_555 1_555
C34_39 C33_39 1_555 1_555
C35_39 C34_39 1_555 1_555
H22_39 C35_39 1_555 1_555
C36_39 C35_39 1_555 1_555
C37_39 C36_39 1_555 1_555
H23_39 C37_39 1_555 1_555
C38_39 C36_39 1_555 1_555
C39_39 C38_39 1_555 1_555
H24_39 C39_39 1_555 1_555
C40_39 C39_39 1_555 1_555
H25_39 C40_39 1_555 1_555
C41_39 C40_39 1_555 1_555
C42_39 C41_39 1_555 1_555
H26_39 C42_39 1_555 1_555
C43_39 C38_39 1_555 1_555
H27_39 C43_39 1_555 1_555
C44_39 O7_39 1_555 1_555
O23_3 C65_39 1_555 1_555
O26_3 C65_39 1_555 1_555
O28_10 C82_39 1_555 1_555
O30_10 C82_39 1_555 1_555
C65_39 C66_39 1_555 1_555
C66_39 C67_39 1_555 1_555
C67_39 H39_39 1_555 1_555
C68_39 C67_39 1_555 1_555
H40_39 C68_39 1_555 1_555
C69_39 C68_39 1_555 1_555
C70_39 C69_39 1_555 1_555
H41_39 C70_39 1_555 1_555
C71_39 C66_39 1_555 1_555
H42_39 C71_39 1_555 1_555
C72_39 C30_39 1_555 1_555
C73_39 C32_39 1_555 1_555
H43_39 C73_39 1_555 1_555
C74_39 C34_39 1_555 1_555
H44_39 C74_39 1_555 1_555
C75_39 C37_39 1_555 1_555
C76_39 C75_39 1_555 1_555
C77_39 C76_39 1_555 1_555
H45_39 C77_39 1_555 1_555
C78_39 C77_39 1_555 1_555
H46_39 C78_39 1_555 1_555
C79_39 C78_39 1_555 1_555
C80_39 C79_39 1_555 1_555
H47_39 C80_39 1_555 1_555
C81_39 C76_39 1_555 1_555
H48_39 C81_39 1_555 1_555
C82_39 C79_39 1_555 1_555
O8_39 C44_39 1_555 1_555
C27_39 C28_39 1_555 1_555
C41_39 C44_39 1_555 1_555
C42_39 C43_39 1_555 1_555
C69_39 C72_39 1_555 1_555
C70_39 C71_39 1_555 1_555
C72_39 C73_39 1_555 1_555
C74_39 C75_39 1_555 1_555
C80_39 C81_39 1_555 1_555
O10_54 H52_15 1_555 1_555
O9_54 H55_15 1_555 1_555
O9_54 H56_15 1_555 1_555
Cu6_16 O1_40 1_555 1_555
Cu8_16 O2_40 1_555 1_555
Cu9_6 O3_40 1_555 1_555
Cu12_6 O4_40 1_555 1_555
O1_40 C1_40 1_555 1_555
O2_40 C1_40 1_555 1_555
O3_40 C21_40 1_555 1_555
O4_40 C21_40 1_555 1_555
O9_55 Cu6_16 1_555 1_555
O10_55 Cu8_16 1_555 1_555
O11_40 Cu9_6 1_555 1_555
O12_40 Cu12_6 1_555 1_555
C1_40 C2_40 1_555 1_555
C2_40 C3_40 1_555 1_555
C3_40 H1_40 1_555 1_555
C4_40 C3_40 1_555 1_555
H2_40 C4_40 1_555 1_555
C5_40 C4_40 1_555 1_555
C6_40 C5_40 1_555 1_555
H3_40 C6_40 1_555 1_555
C7_40 C2_40 1_555 1_555
H4_40 C7_40 1_555 1_555
C8_40 C5_40 1_555 1_555
C9_40 C8_40 1_555 1_555
H5_40 C9_40 1_555 1_555
C10_40 C9_40 1_555 1_555
C11_40 C10_40 1_555 1_555
H6_40 C11_40 1_555 1_555
C12_40 C11_40 1_555 1_555
C13_40 C8_40 1_555 1_555
H7_40 C13_40 1_555 1_555
C14_64 C12_40 1_555 1_555
H8_64 C14_64 1_555 1_555
H9_64 C14_64 1_555 1_555
C15_40 C10_40 1_555 1_555
C16_40 C15_40 1_555 1_555
H10_40 C16_40 1_555 1_555
C17_40 C16_40 1_555 1_555
H11_40 C17_40 1_555 1_555
C18_40 C17_40 1_555 1_555
C19_40 C18_40 1_555 1_555
H12_40 C19_40 1_555 1_555
C20_40 C15_40 1_555 1_555
H13_40 C20_40 1_555 1_555
C21_40 C18_40 1_555 1_555
O14_18 C45_40 1_555 1_555
O16_18 C45_40 1_555 1_555
O18_19 C64_40 1_555 1_555
O20_19 C64_40 1_555 1_555
C45_40 C46_40 1_555 1_555
C46_40 C47_40 1_555 1_555
C47_40 H28_40 1_555 1_555
C48_40 C47_40 1_555 1_555
H29_40 C48_40 1_555 1_555
C49_40 C48_40 1_555 1_555
C50_40 C49_40 1_555 1_555
H30_40 C50_40 1_555 1_555
C51_40 C46_40 1_555 1_555
H31_40 C51_40 1_555 1_555
C52_40 C49_40 1_555 1_555
C53_40 C52_40 1_555 1_555
H32_40 C53_40 1_555 1_555
C54_40 C53_40 1_555 1_555
C55_40 C54_40 1_555 1_555
H33_40 C55_40 1_555 1_555
C56_40 C14_64 1_555 1_555
C57_40 C52_40 1_555 1_555
H34_40 C57_40 1_555 1_555
C58_40 C54_40 1_555 1_555
C59_40 C58_40 1_555 1_555
H35_40 C59_40 1_555 1_555
C60_40 C59_40 1_555 1_555
H36_40 C60_40 1_555 1_555
C61_40 C60_40 1_555 1_555
C62_40 C61_40 1_555 1_555
H37_40 C62_40 1_555 1_555
C63_40 C58_40 1_555 1_555
H38_40 C63_40 1_555 1_555
C64_40 C61_40 1_555 1_555
C6_40 C7_40 1_555 1_555
C12_40 C13_40 1_555 1_555
C19_40 C20_40 1_555 1_555
C50_40 C51_40 1_555 1_555
C55_40 C56_40 1_555 1_555
C56_40 C57_40 1_555 1_555
C62_40 C63_40 1_555 1_555
O10_55 H51_16 1_555 1_555
O22_22 C22_40 1_555 1_555
O25_22 C22_40 1_555 1_555
O7_40 Cu6_17 1_555 1_555
O8_40 Cu8_17 1_555 1_555
O9_56 Cu6_17 1_555 1_555
O10_56 Cu8_17 1_555 1_555
C22_40 C23_40 1_555 1_555
C23_40 C24_40 1_555 1_555
C24_40 H14_40 1_555 1_555
C25_40 C24_40 1_555 1_555
H15_40 C25_40 1_555 1_555
C26_40 C25_40 1_555 1_555
C27_40 C26_40 1_555 1_555
H16_40 C27_40 1_555 1_555
C28_40 C23_40 1_555 1_555
H17_40 C28_40 1_555 1_555
C29_40 C26_40 1_555 1_555
C30_40 C29_40 1_555 1_555
H18_40 C30_40 1_555 1_555
C31_40 C29_40 1_555 1_555
H19_40 C31_40 1_555 1_555
C32_40 C31_40 1_555 1_555
C33_40 C32_40 1_555 1_555
H20_40 C33_40 1_555 1_555
H21_40 C33_40 1_555 1_555
C34_40 C33_40 1_555 1_555
C35_40 C34_40 1_555 1_555
H22_40 C35_40 1_555 1_555
C36_40 C35_40 1_555 1_555
C37_40 C36_40 1_555 1_555
H23_40 C37_40 1_555 1_555
C38_40 C36_40 1_555 1_555
C39_40 C38_40 1_555 1_555
H24_40 C39_40 1_555 1_555
C40_40 C39_40 1_555 1_555
H25_40 C40_40 1_555 1_555
C41_40 C40_40 1_555 1_555
C42_40 C41_40 1_555 1_555
H26_40 C42_40 1_555 1_555
C43_40 C38_40 1_555 1_555
H27_40 C43_40 1_555 1_555
C44_40 O7_40 1_555 1_555
O23_11 C65_40 1_555 1_555
O26_11 C65_40 1_555 1_555
O28_9 C82_40 1_555 1_555
O30_9 C82_40 1_555 1_555
C65_40 C66_40 1_555 1_555
C66_40 C67_40 1_555 1_555
C67_40 H39_40 1_555 1_555
C68_40 C67_40 1_555 1_555
H40_40 C68_40 1_555 1_555
C69_40 C68_40 1_555 1_555
C70_40 C69_40 1_555 1_555
H41_40 C70_40 1_555 1_555
C71_40 C66_40 1_555 1_555
H42_40 C71_40 1_555 1_555
C72_40 C30_40 1_555 1_555
C73_40 C32_40 1_555 1_555
H43_40 C73_40 1_555 1_555
C74_40 C34_40 1_555 1_555
H44_40 C74_40 1_555 1_555
C75_40 C37_40 1_555 1_555
C76_40 C75_40 1_555 1_555
C77_40 C76_40 1_555 1_555
H45_40 C77_40 1_555 1_555
C78_40 C77_40 1_555 1_555
H46_40 C78_40 1_555 1_555
C79_40 C78_40 1_555 1_555
C80_40 C79_40 1_555 1_555
H47_40 C80_40 1_555 1_555
C81_40 C76_40 1_555 1_555
H48_40 C81_40 1_555 1_555
C82_40 C79_40 1_555 1_555
O8_40 C44_40 1_555 1_555
C27_40 C28_40 1_555 1_555
C41_40 C44_40 1_555 1_555
C42_40 C43_40 1_555 1_555
C69_40 C72_40 1_555 1_555
C70_40 C71_40 1_555 1_555
C72_40 C73_40 1_555 1_555
C74_40 C75_40 1_555 1_555
C80_40 C81_40 1_555 1_555
O10_56 H52_16 1_555 1_555
O9_56 H55_16 1_555 1_555
O9_56 H56_16 1_555 1_555
O22_3 C22_41 1_555 1_555
O25_3 C22_41 1_555 1_555
O7_41 Cu1_12 1_555 1_555
O8_41 Cu2_12 1_555 1_555
O9_57 Cu1_12 1_555 1_555
O10_57 Cu2_12 1_555 1_555
C22_41 C23_41 1_555 1_555
C23_41 C24_41 1_555 1_555
C24_41 H14_41 1_555 1_555
C25_41 C24_41 1_555 1_555
H15_41 C25_41 1_555 1_555
C26_41 C25_41 1_555 1_555
C27_41 C26_41 1_555 1_555
H16_41 C27_41 1_555 1_555
C28_41 C23_41 1_555 1_555
H17_41 C28_41 1_555 1_555
C29_41 C26_41 1_555 1_555
C30_41 C29_41 1_555 1_555
H18_41 C30_41 1_555 1_555
C31_41 C29_41 1_555 1_555
H19_41 C31_41 1_555 1_555
C32_41 C31_41 1_555 1_555
C33_41 C32_41 1_555 1_555
H20_41 C33_41 1_555 1_555
H21_41 C33_41 1_555 1_555
C34_41 C33_41 1_555 1_555
C35_41 C34_41 1_555 1_555
H22_41 C35_41 1_555 1_555
C36_41 C35_41 1_555 1_555
C37_41 C36_41 1_555 1_555
H23_41 C37_41 1_555 1_555
C38_41 C36_41 1_555 1_555
C39_41 C38_41 1_555 1_555
H24_41 C39_41 1_555 1_555
C40_41 C39_41 1_555 1_555
H25_41 C40_41 1_555 1_555
C41_41 C40_41 1_555 1_555
C42_41 C41_41 1_555 1_555
H26_41 C42_41 1_555 1_555
C43_41 C38_41 1_555 1_555
H27_41 C43_41 1_555 1_555
C44_41 O7_41 1_555 1_555
Cu6_29 O27_28 1_555 1_555
Cu8_29 O29_28 1_555 1_555
O14_21 Cu1_12 1_555 1_555
O16_21 Cu2_12 1_555 1_555
O23_13 C65_41 1_555 1_555
O26_13 C65_41 1_555 1_555
O27_28 C82_41 1_555 1_555
O29_28 C82_41 1_555 1_555
C65_41 C66_41 1_555 1_555
C66_41 C67_41 1_555 1_555
C67_41 H39_41 1_555 1_555
C68_41 C67_41 1_555 1_555
H40_41 C68_41 1_555 1_555
C69_41 C68_41 1_555 1_555
C70_41 C69_41 1_555 1_555
H41_41 C70_41 1_555 1_555
C71_41 C66_41 1_555 1_555
H42_41 C71_41 1_555 1_555
C72_41 C30_41 1_555 1_555
C73_41 C32_41 1_555 1_555
H43_41 C73_41 1_555 1_555
C74_41 C34_41 1_555 1_555
H44_41 C74_41 1_555 1_555
C75_41 C37_41 1_555 1_555
C76_41 C75_41 1_555 1_555
C77_41 C76_41 1_555 1_555
H45_41 C77_41 1_555 1_555
C78_41 C77_41 1_555 1_555
H46_41 C78_41 1_555 1_555
C79_41 C78_41 1_555 1_555
C80_41 C79_41 1_555 1_555
H47_41 C80_41 1_555 1_555
C81_41 C76_41 1_555 1_555
H48_41 C81_41 1_555 1_555
C82_41 C79_41 1_555 1_555
O8_41 C44_41 1_555 1_555
C27_41 C28_41 1_555 1_555
C41_41 C44_41 1_555 1_555
C42_41 C43_41 1_555 1_555
C69_41 C72_41 1_555 1_555
C70_41 C71_41 1_555 1_555
C72_41 C73_41 1_555 1_555
C74_41 C75_41 1_555 1_555
C80_41 C81_41 1_555 1_555
O10_57 H52_17 1_555 1_555
O9_57 H55_17 1_555 1_555
O9_57 H56_17 1_555 1_555
Cu1_13 O1_41 1_555 1_555
Cu2_13 O2_41 1_555 1_555
Cu11_9 O3_41 1_555 1_555
Cu14_9 O4_41 1_555 1_555
O1_41 C1_41 1_555 1_555
O2_41 C1_41 1_555 1_555
O3_41 C21_41 1_555 1_555
O4_41 C21_41 1_555 1_555
O9_58 Cu1_13 1_555 1_555
O10_58 Cu2_13 1_555 1_555
O11_41 Cu11_9 1_555 1_555
O12_41 Cu14_9 1_555 1_555
C1_41 C2_41 1_555 1_555
C2_41 C3_41 1_555 1_555
C3_41 H1_41 1_555 1_555
C4_41 C3_41 1_555 1_555
H2_41 C4_41 1_555 1_555
C5_41 C4_41 1_555 1_555
C6_41 C5_41 1_555 1_555
H3_41 C6_41 1_555 1_555
C7_41 C2_41 1_555 1_555
H4_41 C7_41 1_555 1_555
C8_41 C5_41 1_555 1_555
C9_41 C8_41 1_555 1_555
H5_41 C9_41 1_555 1_555
C10_41 C9_41 1_555 1_555
C11_41 C10_41 1_555 1_555
H6_41 C11_41 1_555 1_555
C12_41 C11_41 1_555 1_555
C13_41 C8_41 1_555 1_555
H7_41 C13_41 1_555 1_555
C14_65 C12_41 1_555 1_555
H8_65 C14_65 1_555 1_555
H9_65 C14_65 1_555 1_555
C15_41 C10_41 1_555 1_555
C16_41 C15_41 1_555 1_555
H10_41 C16_41 1_555 1_555
C17_41 C16_41 1_555 1_555
H11_41 C17_41 1_555 1_555
C18_41 C17_41 1_555 1_555
C19_41 C18_41 1_555 1_555
H12_41 C19_41 1_555 1_555
C20_41 C15_41 1_555 1_555
H13_41 C20_41 1_555 1_555
C21_41 C18_41 1_555 1_555
Cu5_20 O13_21 1_555 1_555
Cu7_20 O15_21 1_555 1_555
Cu11_8 O17_21 1_555 1_555
Cu14_8 O19_21 1_555 1_555
O13_21 C45_41 1_555 1_555
O15_21 C45_41 1_555 1_555
O17_21 C64_41 1_555 1_555
O18_21 Cu11_9 1_555 1_555
O19_21 C64_41 1_555 1_555
O20_21 Cu14_9 1_555 1_555
O28_14 Cu1_13 1_555 1_555
O30_14 Cu2_13 1_555 1_555
C45_41 C46_41 1_555 1_555
C46_41 C47_41 1_555 1_555
C47_41 H28_41 1_555 1_555
C48_41 C47_41 1_555 1_555
H29_41 C48_41 1_555 1_555
C49_41 C48_41 1_555 1_555
C50_41 C49_41 1_555 1_555
H30_41 C50_41 1_555 1_555
C51_41 C46_41 1_555 1_555
H31_41 C51_41 1_555 1_555
C52_41 C49_41 1_555 1_555
C53_41 C52_41 1_555 1_555
H32_41 C53_41 1_555 1_555
C54_41 C53_41 1_555 1_555
C55_41 C54_41 1_555 1_555
H33_41 C55_41 1_555 1_555
C56_41 C14_65 1_555 1_555
C57_41 C52_41 1_555 1_555
H34_41 C57_41 1_555 1_555
C58_41 C54_41 1_555 1_555
C59_41 C58_41 1_555 1_555
H35_41 C59_41 1_555 1_555
C60_41 C59_41 1_555 1_555
H36_41 C60_41 1_555 1_555
C61_41 C60_41 1_555 1_555
C62_41 C61_41 1_555 1_555
H37_41 C62_41 1_555 1_555
C63_41 C58_41 1_555 1_555
H38_41 C63_41 1_555 1_555
C64_41 C61_41 1_555 1_555
C6_41 C7_41 1_555 1_555
C12_41 C13_41 1_555 1_555
C19_41 C20_41 1_555 1_555
C50_41 C51_41 1_555 1_555
C55_41 C56_41 1_555 1_555
C56_41 C57_41 1_555 1_555
C62_41 C63_41 1_555 1_555
O10_58 H51_17 1_555 1_555
Cu1_14 O1_42 1_555 1_555
Cu2_14 O2_42 1_555 1_555
Cu11_6 O3_42 1_555 1_555
Cu14_6 O4_42 1_555 1_555
O1_42 C1_42 1_555 1_555
O2_42 C1_42 1_555 1_555
O3_42 C21_42 1_555 1_555
O4_42 C21_42 1_555 1_555
O9_59 Cu1_14 1_555 1_555
O10_59 Cu2_14 1_555 1_555
O11_42 Cu11_6 1_555 1_555
O12_42 Cu14_6 1_555 1_555
C1_42 C2_42 1_555 1_555
C2_42 C3_42 1_555 1_555
C3_42 H1_42 1_555 1_555
C4_42 C3_42 1_555 1_555
H2_42 C4_42 1_555 1_555
C5_42 C4_42 1_555 1_555
C6_42 C5_42 1_555 1_555
H3_42 C6_42 1_555 1_555
C7_42 C2_42 1_555 1_555
H4_42 C7_42 1_555 1_555
C8_42 C5_42 1_555 1_555
C9_42 C8_42 1_555 1_555
H5_42 C9_42 1_555 1_555
C10_42 C9_42 1_555 1_555
C11_42 C10_42 1_555 1_555
H6_42 C11_42 1_555 1_555
C12_42 C11_42 1_555 1_555
C13_42 C8_42 1_555 1_555
H7_42 C13_42 1_555 1_555
C14_66 C12_42 1_555 1_555
H8_66 C14_66 1_555 1_555
H9_66 C14_66 1_555 1_555
C15_42 C10_42 1_555 1_555
C16_42 C15_42 1_555 1_555
H10_42 C16_42 1_555 1_555
C17_42 C16_42 1_555 1_555
H11_42 C17_42 1_555 1_555
C18_42 C17_42 1_555 1_555
C19_42 C18_42 1_555 1_555
H12_42 C19_42 1_555 1_555
C20_42 C15_42 1_555 1_555
H13_42 C20_42 1_555 1_555
C21_42 C18_42 1_555 1_555
Cu5_21 O13_22 1_555 1_555
Cu7_21 O15_22 1_555 1_555
Cu11_5 O17_22 1_555 1_555
Cu14_5 O19_22 1_555 1_555
O13_22 C45_42 1_555 1_555
O15_22 C45_42 1_555 1_555
O17_22 C64_42 1_555 1_555
O18_22 Cu11_6 1_555 1_555
O19_22 C64_42 1_555 1_555
O20_22 Cu14_6 1_555 1_555
O28_15 Cu1_14 1_555 1_555
O30_15 Cu2_14 1_555 1_555
C45_42 C46_42 1_555 1_555
C46_42 C47_42 1_555 1_555
C47_42 H28_42 1_555 1_555
C48_42 C47_42 1_555 1_555
H29_42 C48_42 1_555 1_555
C49_42 C48_42 1_555 1_555
C50_42 C49_42 1_555 1_555
H30_42 C50_42 1_555 1_555
C51_42 C46_42 1_555 1_555
H31_42 C51_42 1_555 1_555
C52_42 C49_42 1_555 1_555
C53_42 C52_42 1_555 1_555
H32_42 C53_42 1_555 1_555
C54_42 C53_42 1_555 1_555
C55_42 C54_42 1_555 1_555
H33_42 C55_42 1_555 1_555
C56_42 C14_66 1_555 1_555
C57_42 C52_42 1_555 1_555
H34_42 C57_42 1_555 1_555
C58_42 C54_42 1_555 1_555
C59_42 C58_42 1_555 1_555
H35_42 C59_42 1_555 1_555
C60_42 C59_42 1_555 1_555
H36_42 C60_42 1_555 1_555
C61_42 C60_42 1_555 1_555
C62_42 C61_42 1_555 1_555
H37_42 C62_42 1_555 1_555
C63_42 C58_42 1_555 1_555
H38_42 C63_42 1_555 1_555
C64_42 C61_42 1_555 1_555
C6_42 C7_42 1_555 1_555
C12_42 C13_42 1_555 1_555
C19_42 C20_42 1_555 1_555
C50_42 C51_42 1_555 1_555
C55_42 C56_42 1_555 1_555
C56_42 C57_42 1_555 1_555
C62_42 C63_42 1_555 1_555
O10_59 H51_18 1_555 1_555
O22_11 C22_42 1_555 1_555
O25_11 C22_42 1_555 1_555
O7_42 Cu1_15 1_555 1_555
O8_42 Cu2_15 1_555 1_555
O9_60 Cu1_15 1_555 1_555
O10_60 Cu2_15 1_555 1_555
C22_42 C23_42 1_555 1_555
C23_42 C24_42 1_555 1_555
C24_42 H14_42 1_555 1_555
C25_42 C24_42 1_555 1_555
H15_42 C25_42 1_555 1_555
C26_42 C25_42 1_555 1_555
C27_42 C26_42 1_555 1_555
H16_42 C27_42 1_555 1_555
C28_42 C23_42 1_555 1_555
H17_42 C28_42 1_555 1_555
C29_42 C26_42 1_555 1_555
C30_42 C29_42 1_555 1_555
H18_42 C30_42 1_555 1_555
C31_42 C29_42 1_555 1_555
H19_42 C31_42 1_555 1_555
C32_42 C31_42 1_555 1_555
C33_42 C32_42 1_555 1_555
H20_42 C33_42 1_555 1_555
H21_42 C33_42 1_555 1_555
C34_42 C33_42 1_555 1_555
C35_42 C34_42 1_555 1_555
H22_42 C35_42 1_555 1_555
C36_42 C35_42 1_555 1_555
C37_42 C36_42 1_555 1_555
H23_42 C37_42 1_555 1_555
C38_42 C36_42 1_555 1_555
C39_42 C38_42 1_555 1_555
H24_42 C39_42 1_555 1_555
C40_42 C39_42 1_555 1_555
H25_42 C40_42 1_555 1_555
C41_42 C40_42 1_555 1_555
C42_42 C41_42 1_555 1_555
H26_42 C42_42 1_555 1_555
C43_42 C38_42 1_555 1_555
H27_42 C43_42 1_555 1_555
C44_42 O7_42 1_555 1_555
O14_22 Cu1_15 1_555 1_555
O16_22 Cu2_15 1_555 1_555
O23_14 C65_42 1_555 1_555
O26_14 C65_42 1_555 1_555
O28_14 C82_42 1_555 1_555
O30_14 C82_42 1_555 1_555
C65_42 C66_42 1_555 1_555
C66_42 C67_42 1_555 1_555
C67_42 H39_42 1_555 1_555
C68_42 C67_42 1_555 1_555
H40_42 C68_42 1_555 1_555
C69_42 C68_42 1_555 1_555
C70_42 C69_42 1_555 1_555
H41_42 C70_42 1_555 1_555
C71_42 C66_42 1_555 1_555
H42_42 C71_42 1_555 1_555
C72_42 C30_42 1_555 1_555
C73_42 C32_42 1_555 1_555
H43_42 C73_42 1_555 1_555
C74_42 C34_42 1_555 1_555
H44_42 C74_42 1_555 1_555
C75_42 C37_42 1_555 1_555
C76_42 C75_42 1_555 1_555
C77_42 C76_42 1_555 1_555
H45_42 C77_42 1_555 1_555
C78_42 C77_42 1_555 1_555
H46_42 C78_42 1_555 1_555
C79_42 C78_42 1_555 1_555
C80_42 C79_42 1_555 1_555
H47_42 C80_42 1_555 1_555
C81_42 C76_42 1_555 1_555
H48_42 C81_42 1_555 1_555
C82_42 C79_42 1_555 1_555
O8_42 C44_42 1_555 1_555
C27_42 C28_42 1_555 1_555
C41_42 C44_42 1_555 1_555
C42_42 C43_42 1_555 1_555
C69_42 C72_42 1_555 1_555
C70_42 C71_42 1_555 1_555
C72_42 C73_42 1_555 1_555
C74_42 C75_42 1_555 1_555
C80_42 C81_42 1_555 1_555
O10_60 H52_18 1_555 1_555
O9_60 H55_18 1_555 1_555
O9_60 H56_18 1_555 1_555
O22_6 C22_43 1_555 1_555
O25_6 C22_43 1_555 1_555
O7_43 Cu6_28 1_555 1_555
O8_43 Cu8_28 1_555 1_555
O9_61 Cu6_28 1_555 1_555
O10_61 Cu8_28 1_555 1_555
C22_43 C23_43 1_555 1_555
C23_43 C24_43 1_555 1_555
C24_43 H14_43 1_555 1_555
C25_43 C24_43 1_555 1_555
H15_43 C25_43 1_555 1_555
C26_43 C25_43 1_555 1_555
C27_43 C26_43 1_555 1_555
H16_43 C27_43 1_555 1_555
C28_43 C23_43 1_555 1_555
H17_43 C28_43 1_555 1_555
C29_43 C26_43 1_555 1_555
C30_43 C29_43 1_555 1_555
H18_43 C30_43 1_555 1_555
C31_43 C29_43 1_555 1_555
H19_43 C31_43 1_555 1_555
C32_43 C31_43 1_555 1_555
C33_43 C32_43 1_555 1_555
H20_43 C33_43 1_555 1_555
H21_43 C33_43 1_555 1_555
C34_43 C33_43 1_555 1_555
C35_43 C34_43 1_555 1_555
H22_43 C35_43 1_555 1_555
C36_43 C35_43 1_555 1_555
C37_43 C36_43 1_555 1_555
H23_43 C37_43 1_555 1_555
C38_43 C36_43 1_555 1_555
C39_43 C38_43 1_555 1_555
H24_43 C39_43 1_555 1_555
C40_43 C39_43 1_555 1_555
H25_43 C40_43 1_555 1_555
C41_43 C40_43 1_555 1_555
C42_43 C41_43 1_555 1_555
H26_43 C42_43 1_555 1_555
C43_43 C38_43 1_555 1_555
H27_43 C43_43 1_555 1_555
C44_43 O7_43 1_555 1_555
Cu6_30 O27_29 1_555 1_555
Cu8_30 O29_29 1_555 1_555
O14_23 Cu6_28 1_555 1_555
O16_23 Cu8_28 1_555 1_555
O23_16 C65_43 1_555 1_555
O26_16 C65_43 1_555 1_555
O27_29 C82_43 1_555 1_555
O29_29 C82_43 1_555 1_555
C65_43 C66_43 1_555 1_555
C66_43 C67_43 1_555 1_555
C67_43 H39_43 1_555 1_555
C68_43 C67_43 1_555 1_555
H40_43 C68_43 1_555 1_555
C69_43 C68_43 1_555 1_555
C70_43 C69_43 1_555 1_555
H41_43 C70_43 1_555 1_555
C71_43 C66_43 1_555 1_555
H42_43 C71_43 1_555 1_555
C72_43 C30_43 1_555 1_555
C73_43 C32_43 1_555 1_555
H43_43 C73_43 1_555 1_555
C74_43 C34_43 1_555 1_555
H44_43 C74_43 1_555 1_555
C75_43 C37_43 1_555 1_555
C76_43 C75_43 1_555 1_555
C77_43 C76_43 1_555 1_555
H45_43 C77_43 1_555 1_555
C78_43 C77_43 1_555 1_555
H46_43 C78_43 1_555 1_555
C79_43 C78_43 1_555 1_555
C80_43 C79_43 1_555 1_555
H47_43 C80_43 1_555 1_555
C81_43 C76_43 1_555 1_555
H48_43 C81_43 1_555 1_555
C82_43 C79_43 1_555 1_555
O8_43 C44_43 1_555 1_555
C27_43 C28_43 1_555 1_555
C41_43 C44_43 1_555 1_555
C42_43 C43_43 1_555 1_555
C69_43 C72_43 1_555 1_555
C70_43 C71_43 1_555 1_555
C72_43 C73_43 1_555 1_555
C74_43 C75_43 1_555 1_555
C80_43 C81_43 1_555 1_555
O10_61 H52_19 1_555 1_555
O9_61 H55_19 1_555 1_555
O9_61 H56_19 1_555 1_555
Cu6_29 O1_43 1_555 1_555
Cu8_29 O2_43 1_555 1_555
Cu11_11 O3_43 1_555 1_555
Cu14_11 O4_43 1_555 1_555
O1_43 C1_43 1_555 1_555
O2_43 C1_43 1_555 1_555
O3_43 C21_43 1_555 1_555
O4_43 C21_43 1_555 1_555
O9_62 Cu6_29 1_555 1_555
O10_62 Cu8_29 1_555 1_555
O11_43 Cu11_11 1_555 1_555
O12_43 Cu14_11 1_555 1_555
C1_43 C2_43 1_555 1_555
C2_43 C3_43 1_555 1_555
C3_43 H1_43 1_555 1_555
C4_43 C3_43 1_555 1_555
H2_43 C4_43 1_555 1_555
C5_43 C4_43 1_555 1_555
C6_43 C5_43 1_555 1_555
H3_43 C6_43 1_555 1_555
C7_43 C2_43 1_555 1_555
H4_43 C7_43 1_555 1_555
C8_43 C5_43 1_555 1_555
C9_43 C8_43 1_555 1_555
H5_43 C9_43 1_555 1_555
C10_43 C9_43 1_555 1_555
C11_43 C10_43 1_555 1_555
H6_43 C11_43 1_555 1_555
C12_43 C11_43 1_555 1_555
C13_43 C8_43 1_555 1_555
H7_43 C13_43 1_555 1_555
C14_67 C12_43 1_555 1_555
H8_67 C14_67 1_555 1_555
H9_67 C14_67 1_555 1_555
C15_43 C10_43 1_555 1_555
C16_43 C15_43 1_555 1_555
H10_43 C16_43 1_555 1_555
C17_43 C16_43 1_555 1_555
H11_43 C17_43 1_555 1_555
C18_43 C17_43 1_555 1_555
C19_43 C18_43 1_555 1_555
H12_43 C19_43 1_555 1_555
C20_43 C15_43 1_555 1_555
H13_43 C20_43 1_555 1_555
C21_43 C18_43 1_555 1_555
Cu5_24 O13_23 1_555 1_555
Cu7_24 O15_23 1_555 1_555
Cu11 O17_23 1_555 1_555
Cu14 O19_23 1_555 1_555
O13_23 C45_43 1_555 1_555
O15_23 C45_43 1_555 1_555
O17_23 C64_43 1_555 1_555
O18_23 Cu11_11 1_555 1_555
O19_23 C64_43 1_555 1_555
O20_23 Cu14_11 1_555 1_555
C45_43 C46_43 1_555 1_555
C46_43 C47_43 1_555 1_555
C47_43 H28_43 1_555 1_555
C48_43 C47_43 1_555 1_555
H29_43 C48_43 1_555 1_555
C49_43 C48_43 1_555 1_555
C50_43 C49_43 1_555 1_555
H30_43 C50_43 1_555 1_555
C51_43 C46_43 1_555 1_555
H31_43 C51_43 1_555 1_555
C52_43 C49_43 1_555 1_555
C53_43 C52_43 1_555 1_555
H32_43 C53_43 1_555 1_555
C54_43 C53_43 1_555 1_555
C55_43 C54_43 1_555 1_555
H33_43 C55_43 1_555 1_555
C56_43 C14_67 1_555 1_555
C57_43 C52_43 1_555 1_555
H34_43 C57_43 1_555 1_555
C58_43 C54_43 1_555 1_555
C59_43 C58_43 1_555 1_555
H35_43 C59_43 1_555 1_555
C60_43 C59_43 1_555 1_555
H36_43 C60_43 1_555 1_555
C61_43 C60_43 1_555 1_555
C62_43 C61_43 1_555 1_555
H37_43 C62_43 1_555 1_555
C63_43 C58_43 1_555 1_555
H38_43 C63_43 1_555 1_555
C64_43 C61_43 1_555 1_555
C6_43 C7_43 1_555 1_555
C12_43 C13_43 1_555 1_555
C19_43 C20_43 1_555 1_555
C50_43 C51_43 1_555 1_555
C55_43 C56_43 1_555 1_555
C56_43 C57_43 1_555 1_555
C62_43 C63_43 1_555 1_555
O10_62 H51_19 1_555 1_555
O22_2 C22_44 1_555 1_555
O25_2 C22_44 1_555 1_555
O7_44 Cu5_21 1_555 1_555
O8_44 Cu7_21 1_555 1_555
O9_63 Cu5_21 1_555 1_555
O10_63 Cu7_21 1_555 1_555
C22_44 C23_44 1_555 1_555
C23_44 C24_44 1_555 1_555
C24_44 H14_44 1_555 1_555
C25_44 C24_44 1_555 1_555
H15_44 C25_44 1_555 1_555
C26_44 C25_44 1_555 1_555
C27_44 C26_44 1_555 1_555
H16_44 C27_44 1_555 1_555
C28_44 C23_44 1_555 1_555
H17_44 C28_44 1_555 1_555
C29_44 C26_44 1_555 1_555
C30_44 C29_44 1_555 1_555
H18_44 C30_44 1_555 1_555
C31_44 C29_44 1_555 1_555
H19_44 C31_44 1_555 1_555
C32_44 C31_44 1_555 1_555
C33_44 C32_44 1_555 1_555
H20_44 C33_44 1_555 1_555
H21_44 C33_44 1_555 1_555
C34_44 C33_44 1_555 1_555
C35_44 C34_44 1_555 1_555
H22_44 C35_44 1_555 1_555
C36_44 C35_44 1_555 1_555
C37_44 C36_44 1_555 1_555
H23_44 C37_44 1_555 1_555
C38_44 C36_44 1_555 1_555
C39_44 C38_44 1_555 1_555
H24_44 C39_44 1_555 1_555
C40_44 C39_44 1_555 1_555
H25_44 C40_44 1_555 1_555
C41_44 C40_44 1_555 1_555
C42_44 C41_44 1_555 1_555
H26_44 C42_44 1_555 1_555
C43_44 C38_44 1_555 1_555
H27_44 C43_44 1_555 1_555
C44_44 O7_44 1_555 1_555
Cu6_33 O27_30 1_555 1_555
Cu8_33 O29_30 1_555 1_555
O23_7 C65_44 1_555 1_555
O26_7 C65_44 1_555 1_555
O27_30 C82_44 1_555 1_555
O29_30 C82_44 1_555 1_555
C65_44 C66_44 1_555 1_555
C66_44 C67_44 1_555 1_555
C67_44 H39_44 1_555 1_555
C68_44 C67_44 1_555 1_555
H40_44 C68_44 1_555 1_555
C69_44 C68_44 1_555 1_555
C70_44 C69_44 1_555 1_555
H41_44 C70_44 1_555 1_555
C71_44 C66_44 1_555 1_555
H42_44 C71_44 1_555 1_555
C72_44 C30_44 1_555 1_555
C73_44 C32_44 1_555 1_555
H43_44 C73_44 1_555 1_555
C74_44 C34_44 1_555 1_555
H44_44 C74_44 1_555 1_555
C75_44 C37_44 1_555 1_555
C76_44 C75_44 1_555 1_555
C77_44 C76_44 1_555 1_555
H45_44 C77_44 1_555 1_555
C78_44 C77_44 1_555 1_555
H46_44 C78_44 1_555 1_555
C79_44 C78_44 1_555 1_555
C80_44 C79_44 1_555 1_555
H47_44 C80_44 1_555 1_555
C81_44 C76_44 1_555 1_555
H48_44 C81_44 1_555 1_555
C82_44 C79_44 1_555 1_555
O8_44 C44_44 1_555 1_555
C27_44 C28_44 1_555 1_555
C41_44 C44_44 1_555 1_555
C42_44 C43_44 1_555 1_555
C69_44 C72_44 1_555 1_555
C70_44 C71_44 1_555 1_555
C72_44 C73_44 1_555 1_555
C74_44 C75_44 1_555 1_555
C80_44 C81_44 1_555 1_555
O10_63 H52_20 1_555 1_555
O9_63 H55_20 1_555 1_555
O9_63 H56_20 1_555 1_555
Cu5_22 O1_44 1_555 1_555
Cu7_22 O2_44 1_555 1_555
Cu11_8 O3_44 1_555 1_555
Cu14_8 O4_44 1_555 1_555
O1_44 C1_44 1_555 1_555
O2_44 C1_44 1_555 1_555
O3_44 C21_44 1_555 1_555
O4_44 C21_44 1_555 1_555
O9_64 Cu5_22 1_555 1_555
O10_64 Cu7_22 1_555 1_555
O11_44 Cu11_8 1_555 1_555
O12_44 Cu14_8 1_555 1_555
C1_44 C2_44 1_555 1_555
C2_44 C3_44 1_555 1_555
C3_44 H1_44 1_555 1_555
C4_44 C3_44 1_555 1_555
H2_44 C4_44 1_555 1_555
C5_44 C4_44 1_555 1_555
C6_44 C5_44 1_555 1_555
H3_44 C6_44 1_555 1_555
C7_44 C2_44 1_555 1_555
H4_44 C7_44 1_555 1_555
C8_44 C5_44 1_555 1_555
C9_44 C8_44 1_555 1_555
H5_44 C9_44 1_555 1_555
C10_44 C9_44 1_555 1_555
C11_44 C10_44 1_555 1_555
H6_44 C11_44 1_555 1_555
C12_44 C11_44 1_555 1_555
C13_44 C8_44 1_555 1_555
H7_44 C13_44 1_555 1_555
C14_68 C12_44 1_555 1_555
H8_68 C14_68 1_555 1_555
H9_68 C14_68 1_555 1_555
C15_44 C10_44 1_555 1_555
C16_44 C15_44 1_555 1_555
H10_44 C16_44 1_555 1_555
C17_44 C16_44 1_555 1_555
H11_44 C17_44 1_555 1_555
C18_44 C17_44 1_555 1_555
C19_44 C18_44 1_555 1_555
H12_44 C19_44 1_555 1_555
C20_44 C15_44 1_555 1_555
H13_44 C20_44 1_555 1_555
C21_44 C18_44 1_555 1_555
O14_22 C45_44 1_555 1_555
O16_22 C45_44 1_555 1_555
O18_21 C64_44 1_555 1_555
O20_21 C64_44 1_555 1_555
O28_16 Cu5_22 1_555 1_555
O30_16 Cu7_22 1_555 1_555
C45_44 C46_44 1_555 1_555
C46_44 C47_44 1_555 1_555
C47_44 H28_44 1_555 1_555
C48_44 C47_44 1_555 1_555
H29_44 C48_44 1_555 1_555
C49_44 C48_44 1_555 1_555
C50_44 C49_44 1_555 1_555
H30_44 C50_44 1_555 1_555
C51_44 C46_44 1_555 1_555
H31_44 C51_44 1_555 1_555
C52_44 C49_44 1_555 1_555
C53_44 C52_44 1_555 1_555
H32_44 C53_44 1_555 1_555
C54_44 C53_44 1_555 1_555
C55_44 C54_44 1_555 1_555
H33_44 C55_44 1_555 1_555
C56_44 C14_68 1_555 1_555
C57_44 C52_44 1_555 1_555
H34_44 C57_44 1_555 1_555
C58_44 C54_44 1_555 1_555
C59_44 C58_44 1_555 1_555
H35_44 C59_44 1_555 1_555
C60_44 C59_44 1_555 1_555
H36_44 C60_44 1_555 1_555
C61_44 C60_44 1_555 1_555
C62_44 C61_44 1_555 1_555
H37_44 C62_44 1_555 1_555
C63_44 C58_44 1_555 1_555
H38_44 C63_44 1_555 1_555
C64_44 C61_44 1_555 1_555
C6_44 C7_44 1_555 1_555
C12_44 C13_44 1_555 1_555
C19_44 C20_44 1_555 1_555
C50_44 C51_44 1_555 1_555
C55_44 C56_44 1_555 1_555
C56_44 C57_44 1_555 1_555
C62_44 C63_44 1_555 1_555
O10_64 H51_20 1_555 1_555
O22 C22_45 1_555 1_555
O25 C22_45 1_555 1_555
O7_45 Cu6_32 1_555 1_555
O8_45 Cu8_32 1_555 1_555
O9_65 Cu6_32 1_555 1_555
O10_65 Cu8_32 1_555 1_555
C22_45 C23_45 1_555 1_555
C23_45 C24_45 1_555 1_555
C24_45 H14_45 1_555 1_555
C25_45 C24_45 1_555 1_555
H15_45 C25_45 1_555 1_555
C26_45 C25_45 1_555 1_555
C27_45 C26_45 1_555 1_555
H16_45 C27_45 1_555 1_555
C28_45 C23_45 1_555 1_555
H17_45 C28_45 1_555 1_555
C29_45 C26_45 1_555 1_555
C30_45 C29_45 1_555 1_555
H18_45 C30_45 1_555 1_555
C31_45 C29_45 1_555 1_555
H19_45 C31_45 1_555 1_555
C32_45 C31_45 1_555 1_555
C33_45 C32_45 1_555 1_555
H20_45 C33_45 1_555 1_555
H21_45 C33_45 1_555 1_555
C34_45 C33_45 1_555 1_555
C35_45 C34_45 1_555 1_555
H22_45 C35_45 1_555 1_555
C36_45 C35_45 1_555 1_555
C37_45 C36_45 1_555 1_555
H23_45 C37_45 1_555 1_555
C38_45 C36_45 1_555 1_555
C39_45 C38_45 1_555 1_555
H24_45 C39_45 1_555 1_555
C40_45 C39_45 1_555 1_555
H25_45 C40_45 1_555 1_555
C41_45 C40_45 1_555 1_555
C42_45 C41_45 1_555 1_555
H26_45 C42_45 1_555 1_555
C43_45 C38_45 1_555 1_555
H27_45 C43_45 1_555 1_555
C44_45 O7_45 1_555 1_555
Cu5_23 O27_31 1_555 1_555
Cu7_23 O29_31 1_555 1_555
O14_24 Cu6_32 1_555 1_555
O16_24 Cu8_32 1_555 1_555
O23_4 C65_45 1_555 1_555
O26_4 C65_45 1_555 1_555
O27_31 C82_45 1_555 1_555
O29_31 C82_45 1_555 1_555
C65_45 C66_45 1_555 1_555
C66_45 C67_45 1_555 1_555
C67_45 H39_45 1_555 1_555
C68_45 C67_45 1_555 1_555
H40_45 C68_45 1_555 1_555
C69_45 C68_45 1_555 1_555
C70_45 C69_45 1_555 1_555
H41_45 C70_45 1_555 1_555
C71_45 C66_45 1_555 1_555
H42_45 C71_45 1_555 1_555
C72_45 C30_45 1_555 1_555
C73_45 C32_45 1_555 1_555
H43_45 C73_45 1_555 1_555
C74_45 C34_45 1_555 1_555
H44_45 C74_45 1_555 1_555
C75_45 C37_45 1_555 1_555
C76_45 C75_45 1_555 1_555
C77_45 C76_45 1_555 1_555
H45_45 C77_45 1_555 1_555
C78_45 C77_45 1_555 1_555
H46_45 C78_45 1_555 1_555
C79_45 C78_45 1_555 1_555
C80_45 C79_45 1_555 1_555
H47_45 C80_45 1_555 1_555
C81_45 C76_45 1_555 1_555
H48_45 C81_45 1_555 1_555
C82_45 C79_45 1_555 1_555
O8_45 C44_45 1_555 1_555
C27_45 C28_45 1_555 1_555
C41_45 C44_45 1_555 1_555
C42_45 C43_45 1_555 1_555
C69_45 C72_45 1_555 1_555
C70_45 C71_45 1_555 1_555
C72_45 C73_45 1_555 1_555
C74_45 C75_45 1_555 1_555
C80_45 C81_45 1_555 1_555
O10_65 H52_21 1_555 1_555
O9_65 H55_21 1_555 1_555
O9_65 H56_21 1_555 1_555
Cu6_33 O1_45 1_555 1_555
Cu8_33 O2_45 1_555 1_555
Cu11_5 O3_45 1_555 1_555
Cu14_5 O4_45 1_555 1_555
O1_45 C1_45 1_555 1_555
O2_45 C1_45 1_555 1_555
O3_45 C21_45 1_555 1_555
O4_45 C21_45 1_555 1_555
O9_66 Cu6_33 1_555 1_555
O10_66 Cu8_33 1_555 1_555
O11_45 Cu11_5 1_555 1_555
O12_45 Cu14_5 1_555 1_555
C1_45 C2_45 1_555 1_555
C2_45 C3_45 1_555 1_555
C3_45 H1_45 1_555 1_555
C4_45 C3_45 1_555 1_555
H2_45 C4_45 1_555 1_555
C5_45 C4_45 1_555 1_555
C6_45 C5_45 1_555 1_555
H3_45 C6_45 1_555 1_555
C7_45 C2_45 1_555 1_555
H4_45 C7_45 1_555 1_555
C8_45 C5_45 1_555 1_555
C9_45 C8_45 1_555 1_555
H5_45 C9_45 1_555 1_555
C10_45 C9_45 1_555 1_555
C11_45 C10_45 1_555 1_555
H6_45 C11_45 1_555 1_555
C12_45 C11_45 1_555 1_555
C13_45 C8_45 1_555 1_555
H7_45 C13_45 1_555 1_555
C14_69 C12_45 1_555 1_555
H8_69 C14_69 1_555 1_555
H9_69 C14_69 1_555 1_555
C15_45 C10_45 1_555 1_555
C16_45 C15_45 1_555 1_555
H10_45 C16_45 1_555 1_555
C17_45 C16_45 1_555 1_555
H11_45 C17_45 1_555 1_555
C18_45 C17_45 1_555 1_555
C19_45 C18_45 1_555 1_555
H12_45 C19_45 1_555 1_555
C20_45 C15_45 1_555 1_555
H13_45 C20_45 1_555 1_555
C21_45 C18_45 1_555 1_555
Cu6_31 O13_24 1_555 1_555
Cu8_31 O15_24 1_555 1_555
O13_24 C45_45 1_555 1_555
O15_24 C45_45 1_555 1_555
O18_22 C64_45 1_555 1_555
O20_22 C64_45 1_555 1_555
C45_45 C46_45 1_555 1_555
C46_45 C47_45 1_555 1_555
C47_45 H28_45 1_555 1_555
C48_45 C47_45 1_555 1_555
H29_45 C48_45 1_555 1_555
C49_45 C48_45 1_555 1_555
C50_45 C49_45 1_555 1_555
H30_45 C50_45 1_555 1_555
C51_45 C46_45 1_555 1_555
H31_45 C51_45 1_555 1_555
C52_45 C49_45 1_555 1_555
C53_45 C52_45 1_555 1_555
H32_45 C53_45 1_555 1_555
C54_45 C53_45 1_555 1_555
C55_45 C54_45 1_555 1_555
H33_45 C55_45 1_555 1_555
C56_45 C14_69 1_555 1_555
C57_45 C52_45 1_555 1_555
H34_45 C57_45 1_555 1_555
C58_45 C54_45 1_555 1_555
C59_45 C58_45 1_555 1_555
H35_45 C59_45 1_555 1_555
C60_45 C59_45 1_555 1_555
H36_45 C60_45 1_555 1_555
C61_45 C60_45 1_555 1_555
C62_45 C61_45 1_555 1_555
H37_45 C62_45 1_555 1_555
C63_45 C58_45 1_555 1_555
H38_45 C63_45 1_555 1_555
C64_45 C61_45 1_555 1_555
C6_45 C7_45 1_555 1_555
C12_45 C13_45 1_555 1_555
C19_45 C20_45 1_555 1_555
C50_45 C51_45 1_555 1_555
C55_45 C56_45 1_555 1_555
C56_45 C57_45 1_555 1_555
C62_45 C63_45 1_555 1_555
O10_66 H51_21 1_555 1_555
Cu5_23 O1_46 1_555 1_555
Cu7_23 O2_46 1_555 1_555
Cu11_2 O3_46 1_555 1_555
Cu14_2 O4_46 1_555 1_555
O1_46 C1_46 1_555 1_555
O2_46 C1_46 1_555 1_555
O3_46 C21_46 1_555 1_555
O4_46 C21_46 1_555 1_555
O9_67 Cu5_23 1_555 1_555
O10_67 Cu7_23 1_555 1_555
O11_46 Cu11_2 1_555 1_555
O12_46 Cu14_2 1_555 1_555
C1_46 C2_46 1_555 1_555
C2_46 C3_46 1_555 1_555
C3_46 H1_46 1_555 1_555
C4_46 C3_46 1_555 1_555
H2_46 C4_46 1_555 1_555
C5_46 C4_46 1_555 1_555
C6_46 C5_46 1_555 1_555
H3_46 C6_46 1_555 1_555
C7_46 C2_46 1_555 1_555
H4_46 C7_46 1_555 1_555
C8_46 C5_46 1_555 1_555
C9_46 C8_46 1_555 1_555
H5_46 C9_46 1_555 1_555
C10_46 C9_46 1_555 1_555
C11_46 C10_46 1_555 1_555
H6_46 C11_46 1_555 1_555
C12_46 C11_46 1_555 1_555
C13_46 C8_46 1_555 1_555
H7_46 C13_46 1_555 1_555
C14_70 C12_46 1_555 1_555
H8_70 C14_70 1_555 1_555
H9_70 C14_70 1_555 1_555
C15_46 C10_46 1_555 1_555
C16_46 C15_46 1_555 1_555
H10_46 C16_46 1_555 1_555
C17_46 C16_46 1_555 1_555
H11_46 C17_46 1_555 1_555
C18_46 C17_46 1_555 1_555
C19_46 C18_46 1_555 1_555
H12_46 C19_46 1_555 1_555
C20_46 C15_46 1_555 1_555
H13_46 C20_46 1_555 1_555
C21_46 C18_46 1_555 1_555
Cu11_3 O17_24 1_555 1_555
Cu14_3 O19_24 1_555 1_555
O14_23 C45_46 1_555 1_555
O16_23 C45_46 1_555 1_555
O17_24 C64_46 1_555 1_555
O18_24 Cu11_2 1_555 1_555
O19_24 C64_46 1_555 1_555
O20_24 Cu14_2 1_555 1_555
C45_46 C46_46 1_555 1_555
C46_46 C47_46 1_555 1_555
C47_46 H28_46 1_555 1_555
C48_46 C47_46 1_555 1_555
H29_46 C48_46 1_555 1_555
C49_46 C48_46 1_555 1_555
C50_46 C49_46 1_555 1_555
H30_46 C50_46 1_555 1_555
C51_46 C46_46 1_555 1_555
H31_46 C51_46 1_555 1_555
C52_46 C49_46 1_555 1_555
C53_46 C52_46 1_555 1_555
H32_46 C53_46 1_555 1_555
C54_46 C53_46 1_555 1_555
C55_46 C54_46 1_555 1_555
H33_46 C55_46 1_555 1_555
C56_46 C14_70 1_555 1_555
C57_46 C52_46 1_555 1_555
H34_46 C57_46 1_555 1_555
C58_46 C54_46 1_555 1_555
C59_46 C58_46 1_555 1_555
H35_46 C59_46 1_555 1_555
C60_46 C59_46 1_555 1_555
H36_46 C60_46 1_555 1_555
C61_46 C60_46 1_555 1_555
C62_46 C61_46 1_555 1_555
H37_46 C62_46 1_555 1_555
C63_46 C58_46 1_555 1_555
H38_46 C63_46 1_555 1_555
C64_46 C61_46 1_555 1_555
C6_46 C7_46 1_555 1_555
C12_46 C13_46 1_555 1_555
C19_46 C20_46 1_555 1_555
C50_46 C51_46 1_555 1_555
C55_46 C56_46 1_555 1_555
C56_46 C57_46 1_555 1_555
C62_46 C63_46 1_555 1_555
O10_67 H51_22 1_555 1_555
O22_8 C22_46 1_555 1_555
O25_8 C22_46 1_555 1_555
O7_46 Cu5_24 1_555 1_555
O8_46 Cu7_24 1_555 1_555
O9_68 Cu5_24 1_555 1_555
O10_68 Cu7_24 1_555 1_555
C22_46 C23_46 1_555 1_555
C23_46 C24_46 1_555 1_555
C24_46 H14_46 1_555 1_555
C25_46 C24_46 1_555 1_555
H15_46 C25_46 1_555 1_555
C26_46 C25_46 1_555 1_555
C27_46 C26_46 1_555 1_555
H16_46 C27_46 1_555 1_555
C28_46 C23_46 1_555 1_555
H17_46 C28_46 1_555 1_555
C29_46 C26_46 1_555 1_555
C30_46 C29_46 1_555 1_555
H18_46 C30_46 1_555 1_555
C31_46 C29_46 1_555 1_555
H19_46 C31_46 1_555 1_555
C32_46 C31_46 1_555 1_555
C33_46 C32_46 1_555 1_555
H20_46 C33_46 1_555 1_555
H21_46 C33_46 1_555 1_555
C34_46 C33_46 1_555 1_555
C35_46 C34_46 1_555 1_555
H22_46 C35_46 1_555 1_555
C36_46 C35_46 1_555 1_555
C37_46 C36_46 1_555 1_555
H23_46 C37_46 1_555 1_555
C38_46 C36_46 1_555 1_555
C39_46 C38_46 1_555 1_555
H24_46 C39_46 1_555 1_555
C40_46 C39_46 1_555 1_555
H25_46 C40_46 1_555 1_555
C41_46 C40_46 1_555 1_555
C42_46 C41_46 1_555 1_555
H26_46 C42_46 1_555 1_555
C43_46 C38_46 1_555 1_555
H27_46 C43_46 1_555 1_555
C44_46 O7_46 1_555 1_555
Cu5_19 O27_32 1_555 1_555
Cu7_19 O29_32 1_555 1_555
O23_12 C65_46 1_555 1_555
O26_12 C65_46 1_555 1_555
O27_32 C82_46 1_555 1_555
O29_32 C82_46 1_555 1_555
C65_46 C66_46 1_555 1_555
C66_46 C67_46 1_555 1_555
C67_46 H39_46 1_555 1_555
C68_46 C67_46 1_555 1_555
H40_46 C68_46 1_555 1_555
C69_46 C68_46 1_555 1_555
C70_46 C69_46 1_555 1_555
H41_46 C70_46 1_555 1_555
C71_46 C66_46 1_555 1_555
H42_46 C71_46 1_555 1_555
C72_46 C30_46 1_555 1_555
C73_46 C32_46 1_555 1_555
H43_46 C73_46 1_555 1_555
C74_46 C34_46 1_555 1_555
H44_46 C74_46 1_555 1_555
C75_46 C37_46 1_555 1_555
C76_46 C75_46 1_555 1_555
C77_46 C76_46 1_555 1_555
H45_46 C77_46 1_555 1_555
C78_46 C77_46 1_555 1_555
H46_46 C78_46 1_555 1_555
C79_46 C78_46 1_555 1_555
C80_46 C79_46 1_555 1_555
H47_46 C80_46 1_555 1_555
C81_46 C76_46 1_555 1_555
H48_46 C81_46 1_555 1_555
C82_46 C79_46 1_555 1_555
O8_46 C44_46 1_555 1_555
C27_46 C28_46 1_555 1_555
C41_46 C44_46 1_555 1_555
C42_46 C43_46 1_555 1_555
C69_46 C72_46 1_555 1_555
C70_46 C71_46 1_555 1_555
C72_46 C73_46 1_555 1_555
C74_46 C75_46 1_555 1_555
C80_46 C81_46 1_555 1_555
O10_68 H52_22 1_555 1_555
O9_68 H55_22 1_555 1_555
O9_68 H56_22 1_555 1_555
Cu5_19 O1_47 1_555 1_555
Cu7_19 O2_47 1_555 1_555
Cu11 O3_47 1_555 1_555
Cu14 O4_47 1_555 1_555
O1_47 C1_47 1_555 1_555
O2_47 C1_47 1_555 1_555
O3_47 C21_47 1_555 1_555
O4_47 C21_47 1_555 1_555
O9_69 Cu5_19 1_555 1_555
O10_69 Cu7_19 1_555 1_555
O11_47 Cu11 1_555 1_555
O12_47 Cu14 1_555 1_555
C1_47 C2_47 1_555 1_555
C2_47 C3_47 1_555 1_555
C3_47 H1_47 1_555 1_555
C4_47 C3_47 1_555 1_555
H2_47 C4_47 1_555 1_555
C5_47 C4_47 1_555 1_555
C6_47 C5_47 1_555 1_555
H3_47 C6_47 1_555 1_555
C7_47 C2_47 1_555 1_555
H4_47 C7_47 1_555 1_555
C8_47 C5_47 1_555 1_555
C9_47 C8_47 1_555 1_555
H5_47 C9_47 1_555 1_555
C10_47 C9_47 1_555 1_555
C11_47 C10_47 1_555 1_555
H6_47 C11_47 1_555 1_555
C12_47 C11_47 1_555 1_555
C13_47 C8_47 1_555 1_555
H7_47 C13_47 1_555 1_555
C14_71 C12_47 1_555 1_555
H8_71 C14_71 1_555 1_555
H9_71 C14_71 1_555 1_555
C15_47 C10_47 1_555 1_555
C16_47 C15_47 1_555 1_555
H10_47 C16_47 1_555 1_555
C17_47 C16_47 1_555 1_555
H11_47 C17_47 1_555 1_555
C18_47 C17_47 1_555 1_555
C19_47 C18_47 1_555 1_555
H12_47 C19_47 1_555 1_555
C20_47 C15_47 1_555 1_555
H13_47 C20_47 1_555 1_555
C21_47 C18_47 1_555 1_555
O14_21 C45_47 1_555 1_555
O16_21 C45_47 1_555 1_555
O18_23 C64_47 1_555 1_555
O20_23 C64_47 1_555 1_555
C45_47 C46_47 1_555 1_555
C46_47 C47_47 1_555 1_555
C47_47 H28_47 1_555 1_555
C48_47 C47_47 1_555 1_555
H29_47 C48_47 1_555 1_555
C49_47 C48_47 1_555 1_555
C50_47 C49_47 1_555 1_555
H30_47 C50_47 1_555 1_555
C51_47 C46_47 1_555 1_555
H31_47 C51_47 1_555 1_555
C52_47 C49_47 1_555 1_555
C53_47 C52_47 1_555 1_555
H32_47 C53_47 1_555 1_555
C54_47 C53_47 1_555 1_555
C55_47 C54_47 1_555 1_555
H33_47 C55_47 1_555 1_555
C56_47 C14_71 1_555 1_555
C57_47 C52_47 1_555 1_555
H34_47 C57_47 1_555 1_555
C58_47 C54_47 1_555 1_555
C59_47 C58_47 1_555 1_555
H35_47 C59_47 1_555 1_555
C60_47 C59_47 1_555 1_555
H36_47 C60_47 1_555 1_555
C61_47 C60_47 1_555 1_555
C62_47 C61_47 1_555 1_555
H37_47 C62_47 1_555 1_555
C63_47 C58_47 1_555 1_555
H38_47 C63_47 1_555 1_555
C64_47 C61_47 1_555 1_555
C6_47 C7_47 1_555 1_555
C12_47 C13_47 1_555 1_555
C19_47 C20_47 1_555 1_555
C50_47 C51_47 1_555 1_555
C55_47 C56_47 1_555 1_555
C56_47 C57_47 1_555 1_555
C62_47 C63_47 1_555 1_555
O10_69 H51_23 1_555 1_555
O22_5 C22_47 1_555 1_555
O25_5 C22_47 1_555 1_555
O7_47 Cu5_20 1_555 1_555
O8_47 Cu7_20 1_555 1_555
O9_70 Cu5_20 1_555 1_555
O10_70 Cu7_20 1_555 1_555
C22_47 C23_47 1_555 1_555
C23_47 C24_47 1_555 1_555
C24_47 H14_47 1_555 1_555
C25_47 C24_47 1_555 1_555
H15_47 C25_47 1_555 1_555
C26_47 C25_47 1_555 1_555
C27_47 C26_47 1_555 1_555
H16_47 C27_47 1_555 1_555
C28_47 C23_47 1_555 1_555
H17_47 C28_47 1_555 1_555
C29_47 C26_47 1_555 1_555
C30_47 C29_47 1_555 1_555
H18_47 C30_47 1_555 1_555
C31_47 C29_47 1_555 1_555
H19_47 C31_47 1_555 1_555
C32_47 C31_47 1_555 1_555
C33_47 C32_47 1_555 1_555
H20_47 C33_47 1_555 1_555
H21_47 C33_47 1_555 1_555
C34_47 C33_47 1_555 1_555
C35_47 C34_47 1_555 1_555
H22_47 C35_47 1_555 1_555
C36_47 C35_47 1_555 1_555
C37_47 C36_47 1_555 1_555
H23_47 C37_47 1_555 1_555
C38_47 C36_47 1_555 1_555
C39_47 C38_47 1_555 1_555
H24_47 C39_47 1_555 1_555
C40_47 C39_47 1_555 1_555
H25_47 C40_47 1_555 1_555
C41_47 C40_47 1_555 1_555
C42_47 C41_47 1_555 1_555
H26_47 C42_47 1_555 1_555
C43_47 C38_47 1_555 1_555
H27_47 C43_47 1_555 1_555
C44_47 O7_47 1_555 1_555
O23_10 C65_47 1_555 1_555
O26_10 C65_47 1_555 1_555
O28_16 C82_47 1_555 1_555
O30_16 C82_47 1_555 1_555
C65_47 C66_47 1_555 1_555
C66_47 C67_47 1_555 1_555
C67_47 H39_47 1_555 1_555
C68_47 C67_47 1_555 1_555
H40_47 C68_47 1_555 1_555
C69_47 C68_47 1_555 1_555
C70_47 C69_47 1_555 1_555
H41_47 C70_47 1_555 1_555
C71_47 C66_47 1_555 1_555
H42_47 C71_47 1_555 1_555
C72_47 C30_47 1_555 1_555
C73_47 C32_47 1_555 1_555
H43_47 C73_47 1_555 1_555
C74_47 C34_47 1_555 1_555
H44_47 C74_47 1_555 1_555
C75_47 C37_47 1_555 1_555
C76_47 C75_47 1_555 1_555
C77_47 C76_47 1_555 1_555
H45_47 C77_47 1_555 1_555
C78_47 C77_47 1_555 1_555
H46_47 C78_47 1_555 1_555
C79_47 C78_47 1_555 1_555
C80_47 C79_47 1_555 1_555
H47_47 C80_47 1_555 1_555
C81_47 C76_47 1_555 1_555
H48_47 C81_47 1_555 1_555
C82_47 C79_47 1_555 1_555
O8_47 C44_47 1_555 1_555
C27_47 C28_47 1_555 1_555
C41_47 C44_47 1_555 1_555
C42_47 C43_47 1_555 1_555
C69_47 C72_47 1_555 1_555
C70_47 C71_47 1_555 1_555
C72_47 C73_47 1_555 1_555
C74_47 C75_47 1_555 1_555
C80_47 C81_47 1_555 1_555
O10_70 H52_23 1_555 1_555
O9_70 H55_23 1_555 1_555
O9_70 H56_23 1_555 1_555
Cu6_30 O1_48 1_555 1_555
Cu8_30 O2_48 1_555 1_555
Cu11_3 O3_48 1_555 1_555
Cu14_3 O4_48 1_555 1_555
O1_48 C1_48 1_555 1_555
O2_48 C1_48 1_555 1_555
O3_48 C21_48 1_555 1_555
O4_48 C21_48 1_555 1_555
O9_71 Cu6_30 1_555 1_555
O10_71 Cu8_30 1_555 1_555
O11_48 Cu11_3 1_555 1_555
O12_48 Cu14_3 1_555 1_555
C1_48 C2_48 1_555 1_555
C2_48 C3_48 1_555 1_555
C3_48 H1_48 1_555 1_555
C4_48 C3_48 1_555 1_555
H2_48 C4_48 1_555 1_555
C5_48 C4_48 1_555 1_555
C6_48 C5_48 1_555 1_555
H3_48 C6_48 1_555 1_555
C7_48 C2_48 1_555 1_555
H4_48 C7_48 1_555 1_555
C8_48 C5_48 1_555 1_555
C9_48 C8_48 1_555 1_555
H5_48 C9_48 1_555 1_555
C10_48 C9_48 1_555 1_555
C11_48 C10_48 1_555 1_555
H6_48 C11_48 1_555 1_555
C12_48 C11_48 1_555 1_555
C13_48 C8_48 1_555 1_555
H7_48 C13_48 1_555 1_555
C14_72 C12_48 1_555 1_555
H8_72 C14_72 1_555 1_555
H9_72 C14_72 1_555 1_555
C15_48 C10_48 1_555 1_555
C16_48 C15_48 1_555 1_555
H10_48 C16_48 1_555 1_555
C17_48 C16_48 1_555 1_555
H11_48 C17_48 1_555 1_555
C18_48 C17_48 1_555 1_555
C19_48 C18_48 1_555 1_555
H12_48 C19_48 1_555 1_555
C20_48 C15_48 1_555 1_555
H13_48 C20_48 1_555 1_555
C21_48 C18_48 1_555 1_555
O14_24 C45_48 1_555 1_555
O16_24 C45_48 1_555 1_555
O18_24 C64_48 1_555 1_555
O20_24 C64_48 1_555 1_555
C45_48 C46_48 1_555 1_555
C46_48 C47_48 1_555 1_555
C47_48 H28_48 1_555 1_555
C48_48 C47_48 1_555 1_555
H29_48 C48_48 1_555 1_555
C49_48 C48_48 1_555 1_555
C50_48 C49_48 1_555 1_555
H30_48 C50_48 1_555 1_555
C51_48 C46_48 1_555 1_555
H31_48 C51_48 1_555 1_555
C52_48 C49_48 1_555 1_555
C53_48 C52_48 1_555 1_555
H32_48 C53_48 1_555 1_555
C54_48 C53_48 1_555 1_555
C55_48 C54_48 1_555 1_555
H33_48 C55_48 1_555 1_555
C56_48 C14_72 1_555 1_555
C57_48 C52_48 1_555 1_555
H34_48 C57_48 1_555 1_555
C58_48 C54_48 1_555 1_555
C59_48 C58_48 1_555 1_555
H35_48 C59_48 1_555 1_555
C60_48 C59_48 1_555 1_555
H36_48 C60_48 1_555 1_555
C61_48 C60_48 1_555 1_555
C62_48 C61_48 1_555 1_555
H37_48 C62_48 1_555 1_555
C63_48 C58_48 1_555 1_555
H38_48 C63_48 1_555 1_555
C64_48 C61_48 1_555 1_555
C6_48 C7_48 1_555 1_555
C12_48 C13_48 1_555 1_555
C19_48 C20_48 1_555 1_555
C50_48 C51_48 1_555 1_555
C55_48 C56_48 1_555 1_555
C56_48 C57_48 1_555 1_555
C62_48 C63_48 1_555 1_555
O10_71 H51_24 1_555 1_555
O22_9 C22_48 1_555 1_555
O25_9 C22_48 1_555 1_555
O7_48 Cu6_31 1_555 1_555
O8_48 Cu8_31 1_555 1_555
O9_72 Cu6_31 1_555 1_555
O10_72 Cu8_31 1_555 1_555
C22_48 C23_48 1_555 1_555
C23_48 C24_48 1_555 1_555
C24_48 H14_48 1_555 1_555
C25_48 C24_48 1_555 1_555
H15_48 C25_48 1_555 1_555
C26_48 C25_48 1_555 1_555
C27_48 C26_48 1_555 1_555
H16_48 C27_48 1_555 1_555
C28_48 C23_48 1_555 1_555
H17_48 C28_48 1_555 1_555
C29_48 C26_48 1_555 1_555
C30_48 C29_48 1_555 1_555
H18_48 C30_48 1_555 1_555
C31_48 C29_48 1_555 1_555
H19_48 C31_48 1_555 1_555
C32_48 C31_48 1_555 1_555
C33_48 C32_48 1_555 1_555
H20_48 C33_48 1_555 1_555
H21_48 C33_48 1_555 1_555
C34_48 C33_48 1_555 1_555
C35_48 C34_48 1_555 1_555
H22_48 C35_48 1_555 1_555
C36_48 C35_48 1_555 1_555
C37_48 C36_48 1_555 1_555
H23_48 C37_48 1_555 1_555
C38_48 C36_48 1_555 1_555
C39_48 C38_48 1_555 1_555
H24_48 C39_48 1_555 1_555
C40_48 C39_48 1_555 1_555
H25_48 C40_48 1_555 1_555
C41_48 C40_48 1_555 1_555
C42_48 C41_48 1_555 1_555
H26_48 C42_48 1_555 1_555
C43_48 C38_48 1_555 1_555
H27_48 C43_48 1_555 1_555
C44_48 O7_48 1_555 1_555
O23_15 C65_48 1_555 1_555
O26_15 C65_48 1_555 1_555
O28_15 C82_48 1_555 1_555
O30_15 C82_48 1_555 1_555
C65_48 C66_48 1_555 1_555
C66_48 C67_48 1_555 1_555
C67_48 H39_48 1_555 1_555
C68_48 C67_48 1_555 1_555
H40_48 C68_48 1_555 1_555
C69_48 C68_48 1_555 1_555
C70_48 C69_48 1_555 1_555
H41_48 C70_48 1_555 1_555
C71_48 C66_48 1_555 1_555
H42_48 C71_48 1_555 1_555
C72_48 C30_48 1_555 1_555
C73_48 C32_48 1_555 1_555
H43_48 C73_48 1_555 1_555
C74_48 C34_48 1_555 1_555
H44_48 C74_48 1_555 1_555
C75_48 C37_48 1_555 1_555
C76_48 C75_48 1_555 1_555
C77_48 C76_48 1_555 1_555
H45_48 C77_48 1_555 1_555
C78_48 C77_48 1_555 1_555
H46_48 C78_48 1_555 1_555
C79_48 C78_48 1_555 1_555
C80_48 C79_48 1_555 1_555
H47_48 C80_48 1_555 1_555
C81_48 C76_48 1_555 1_555
H48_48 C81_48 1_555 1_555
C82_48 C79_48 1_555 1_555
O8_48 C44_48 1_555 1_555
C27_48 C28_48 1_555 1_555
C41_48 C44_48 1_555 1_555
C42_48 C43_48 1_555 1_555
C69_48 C72_48 1_555 1_555
C70_48 C71_48 1_555 1_555
C72_48 C73_48 1_555 1_555
C74_48 C75_48 1_555 1_555
C80_48 C81_48 1_555 1_555
O10_72 H52_24 1_555 1_555
O9_72 H55_24 1_555 1_555
O9_72 H56_24 1_555 1_555
O10_41 H51_25 1_555 1_555
O10_42 H52_25 1_555 1_555
O9_42 H55_25 1_555 1_555
O9_42 H56_25 1_555 1_555
O10_45 H52_26 1_555 1_555
O9_45 H55_26 1_555 1_555
O9_45 H56_26 1_555 1_555
O10_46 H51_26 1_555 1_555
O10_33 H52_27 1_555 1_555
O9_33 H55_27 1_555 1_555
O9_33 H56_27 1_555 1_555
O10_34 H51_27 1_555 1_555
O10_43 H51_28 1_555 1_555
O10_44 H52_28 1_555 1_555
O9_44 H55_28 1_555 1_555
O9_44 H56_28 1_555 1_555
O10_29 H52_29 1_555 1_555
O9_29 H55_29 1_555 1_555
O9_29 H56_29 1_555 1_555
O10_30 H51_29 1_555 1_555
O10_39 H51_30 1_555 1_555
O10_40 H52_30 1_555 1_555
O9_40 H55_30 1_555 1_555
O9_40 H56_30 1_555 1_555
O10_47 H51_31 1_555 1_555
O10_48 H52_31 1_555 1_555
O9_48 H55_31 1_555 1_555
O9_48 H56_31 1_555 1_555
O10_35 H51_32 1_555 1_555
O10_36 H52_32 1_555 1_555
O9_36 H55_32 1_555 1_555
O9_36 H56_32 1_555 1_555
O10_25 H51_33 1_555 1_555
O10_26 H52_33 1_555 1_555
O9_26 H55_33 1_555 1_555
O9_26 H56_33 1_555 1_555
O10_31 H51_34 1_555 1_555
O10_32 H52_34 1_555 1_555
O9_32 H55_34 1_555 1_555
O9_32 H56_34 1_555 1_555
O10_27 H52_35 1_555 1_555
O9_27 H55_35 1_555 1_555
O9_27 H56_35 1_555 1_555
O10_28 H51_35 1_555 1_555
O10_37 H51_36 1_555 1_555
O10_38 H52_36 1_555 1_555
O9_38 H55_36 1_555 1_555
O9_38 H56_36 1_555 1_555
O10_53 H52_37 1_555 1_555
O9_53 H55_37 1_555 1_555
O9_53 H56_37 1_555 1_555
O10_54 H51_37 1_555 1_555
O10_55 H52_38 1_555 1_555
O9_55 H55_38 1_555 1_555
O9_55 H56_38 1_555 1_555
O10_56 H51_38 1_555 1_555
O10_49 H52_39 1_555 1_555
O9_49 H55_39 1_555 1_555
O9_49 H56_39 1_555 1_555
O10_50 H51_39 1_555 1_555
O10_51 H52_40 1_555 1_555
O9_51 H55_40 1_555 1_555
O9_51 H56_40 1_555 1_555
O10_52 H51_40 1_555 1_555
O10_65 H51_41 1_555 1_555
O10_66 H52_41 1_555 1_555
O9_66 H55_41 1_555 1_555
O9_66 H56_41 1_555 1_555
O10_67 H52_42 1_555 1_555
O9_67 H55_42 1_555 1_555
O9_67 H56_42 1_555 1_555
O10_68 H51_42 1_555 1_555
O10_63 H51_43 1_555 1_555
O10_64 H52_43 1_555 1_555
O9_64 H55_43 1_555 1_555
O9_64 H56_43 1_555 1_555
O10_61 H51_44 1_555 1_555
O10_62 H52_44 1_555 1_555
O9_62 H55_44 1_555 1_555
O9_62 H56_44 1_555 1_555
O10_57 H51_45 1_555 1_555
O10_58 H52_45 1_555 1_555
O9_58 H55_45 1_555 1_555
O9_58 H56_45 1_555 1_555
O10_59 H52_46 1_555 1_555
O9_59 H55_46 1_555 1_555
O9_59 H56_46 1_555 1_555
O10_60 H51_46 1_555 1_555
O10_71 H52_47 1_555 1_555
O9_71 H55_47 1_555 1_555
O9_71 H56_47 1_555 1_555
O10_72 H51_47 1_555 1_555
O10_69 H52_48 1_555 1_555
O9_69 H55_48 1_555 1_555
O9_69 H56_48 1_555 1_555
O10_70 H51_48 1_555 1_555

#END
