
###############################################################################
#
# This file contains modified crystal structure data generated from the
# MOF subset of the Cambridge Structural Database (CSD) v543 
# hosted by the Cambridge Crystallographic Data Centre (CCDC).
#
# This work is licensed under the Creative Commons
# Attribution-NonCommercial-ShareAlike 4.0 International License.
# To view a copy of this license, visit
# http://creativecommons.org/licenses/by-nc-sa/4.0/
# or send a letter to
# Creative Commons, PO Box 1866, Mountain View, CA 94042, USA.
#
# CIF created using the CSD Python API on 29 September 2022
# The structure has been converted into the P1 space group
# The structure has a 3D framework
# The original CSD entry YUSWEQ is in the monoclinic crystal system
# The framework has been calculated to contain at least 10.0% void space
# The void calculation uses a probe of radius 1.32A, grid spacing 0.4
#
###############################################################################

data_YUSWEQ
_chemical_formula_moiety         '(C96 H80 Dy8 N8 O64)n'
_symmetry_cell_setting           triclinic
_symmetry_space_group_name_H-M   'P 1'
_symmetry_Int_Tables_number      1
_space_group_name_Hall           'P 1'
loop_
_symmetry_equiv_pos_site_id
_symmetry_equiv_pos_as_xyz
1 x,y,z
_cell_length_a                   18.3085(13)
_cell_length_b                   9.0788(8)
_cell_length_c                   19.6464(19)
_cell_angle_alpha                90
_cell_angle_beta                 97.068(8)
_cell_angle_gamma                90
_cell_volume                     3240.79
loop_
_atom_site_label
_atom_site_type_symbol
_atom_site_fract_x
_atom_site_fract_y
_atom_site_fract_z
O7 O 0.0000 0.0656(3) 0.2500
O10 O 0.02753(10) 0.1764(2) 0.38059(10)
C13 C 0.01327(14) 0.0415(3) 0.37410(14)
Dy2 Dy 0.028456(7) 0.212243(17) 0.502203(7)
O15 O 0.11104(10) 0.2750(2) 0.60075(11)
N2 N 0.22867(13) 0.2890(4) 0.65197(14)
C18 C 0.17681(16) 0.3066(4) 0.59972(17)
H13 H 0.1905 0.3453 0.5593
C23 C 0.30641(15) 0.3285(4) 0.64687(18)
H15 H 0.3364 0.2415 0.6524
H16 H 0.3231 0.3981 0.6821
H17 H 0.3101 0.3714 0.6028
C24 C 0.21403(18) 0.2202(4) 0.71476(18)
H18 H 0.2208 0.2907 0.7514
H19 H 0.2473 0.1392 0.7250
H20 H 0.1643 0.1847 0.7098
O19 O 0.09341(9) 0.4061(2) 0.46614(10)
O21 O 0.13252(10) 0.0537(2) 0.50953(10)
O22 O 0.09343(10) 0.1701(2) 0.04058(10)
Dy6 Dy 0.028456(7) 0.787757(17) 0.002203(7)
Dy9 Dy 0.528456(7) 0.287757(17) 0.002203(7)
O1 O 0.09341(9) 0.5939(2) 0.96614(10)
O2 O 0.36748(10) 0.5537(2) 0.99047(10)
O3 O 0.40657(10) 0.3299(2) 0.95942(10)
C1 C 0.35771(15) 0.4271(4) 0.96656(15)
O6 O 0.22500(9) 0.4697(2) 0.95546(10)
C2 C 0.17733(15) 0.2644(3) 0.90267(15)
H1 H 0.1439 0.1944 0.8833
O9 O 0.03425(9) 0.3810(2) 0.93884(9)
C5 C 0.25443(16) 0.2558(4) 0.90730(16)
H3 H 0.2819 0.1807 0.8906
C7 C 0.09056(14) 0.4621(3) 0.94686(14)
C9 C 0.28106(14) 0.3795(4) 0.94110(14)
C10 C 0.16066(14) 0.3940(4) 0.93176(14)
Dy3 Dy 0.471544(7) 0.712243(17) 0.997797(7)
O24 O 0.00679(9) 0.0411(2) 0.92520(10)
C14 C 0.00269(15) 0.8329(4) 0.28681(14)
H11 H 0.0045 0.7505 0.3151
C15 C 0.00461(14) 0.9749(4) 0.30723(15)
O11 O 0.00679(9) 0.9589(2) 0.42520(10)
O7_2 O 1.0000 0.0656(3) 0.2500
O8 O 0.97247(10) 0.1764(2) 0.11941(10)
C4 C 0.98673(14) 0.0415(3) 0.12590(14)
O12 O 0.90659(9) 0.5939(2) 0.53386(10)
O13 O 0.63252(10) 0.5537(2) 0.50953(10)
O14 O 0.59343(10) 0.3299(2) 0.54058(10)
C16 C 0.64229(15) 0.4271(4) 0.53344(15)
O16 O 0.77500(9) 0.4697(2) 0.54454(10)
C17 C 0.82267(15) 0.2644(3) 0.59733(15)
H12 H 0.8561 0.1944 0.6167
O17 O 0.96575(9) 0.3810(2) 0.56116(9)
C19 C 0.74557(16) 0.2558(4) 0.59270(16)
H14 H 0.7181 0.1807 0.6094
C20 C 0.90944(14) 0.4621(3) 0.55314(14)
C21 C 0.71894(14) 0.3795(4) 0.55890(14)
C22 C 0.83934(14) 0.3940(4) 0.56824(14)
O18 O 0.90659(9) 0.4061(2) 0.03386(10)
O23 O 0.90657(10) 0.1701(2) 0.45942(10)
Dy4 Dy 0.528456(7) 0.712243(17) 0.502203(7)
Dy8 Dy 0.971544(7) 0.787757(17) 0.497797(7)
Dy10 Dy 0.471544(7) 0.287757(17) 0.497797(7)
O25 O 0.99321(9) 0.0411(2) 0.57480(10)
Dy1 Dy 0.971544(7) 0.212243(17) 0.997797(7)
O4 O 0.88896(10) 0.2750(2) 0.89925(11)
N1 N 0.77133(13) 0.2890(4) 0.84803(14)
C3 C 0.82319(16) 0.3066(4) 0.90028(17)
H2 H 0.8095 0.3453 0.9407
C11 C 0.69359(15) 0.3285(4) 0.85313(18)
H5 H 0.6636 0.2415 0.8476
H6 H 0.6769 0.3981 0.8179
H7 H 0.6899 0.3714 0.8972
C12 C 0.78597(18) 0.2202(4) 0.78524(18)
H8 H 0.7792 0.2907 0.7486
H9 H 0.7527 0.1392 0.7750
H10 H 0.8357 0.1847 0.7902
O20 O 0.86748(10) 0.0537(2) 0.99047(10)
O5 O 0.99321(9) 0.9589(2) 0.07480(10)
C6 C 0.99731(15) 0.8329(4) 0.21319(14)
H4 H 0.9955 0.7505 0.1849
C8 C 0.99539(14) 0.9749(4) 0.19277(15)
O12_2 O 0.40659(9) 0.0939(2) 0.53386(10)
O1_2 O 0.59341(9) 0.0939(2) 0.96614(10)
O5_2 O 0.49321(9) 0.4589(2) 0.07480(10)
O7_3 O 0.5000 0.5656(3) 0.2500
O8_2 O 0.47247(10) 0.6764(2) 0.11941(10)
C4_2 C 0.48673(14) 0.5415(3) 0.12590(14)
C6_2 C 0.49731(15) 0.3329(4) 0.21319(14)
H4_2 H 0.4955 0.2505 0.1849
C8_2 C 0.49539(14) 0.4749(4) 0.19277(15)
O10_2 O 0.52753(10) 0.6764(2) 0.38059(10)
C13_2 C 0.51327(14) 0.5415(3) 0.37410(14)
C14_2 C 0.50269(15) 0.3329(4) 0.28681(14)
H11_2 H 0.5045 0.2505 0.3151
C15_2 C 0.50461(14) 0.4749(4) 0.30723(15)
O11_2 O 0.50679(9) 0.4589(2) 0.42520(10)
O14_2 O 0.09343(10) 0.8299(2) 0.54058(10)
C16_2 C 0.14229(15) 0.9271(4) 0.53344(15)
O15_2 O 0.61104(10) 0.7750(2) 0.60075(11)
O16_2 O 0.27500(9) 0.9697(2) 0.54454(10)
C17_2 C 0.32267(15) 0.7644(3) 0.59733(15)
H12_2 H 0.3561 0.6944 0.6167
N2_2 N 0.72867(13) 0.7890(4) 0.65197(14)
O17_2 O 0.46575(9) 0.8810(2) 0.56116(9)
C18_2 C 0.67681(16) 0.8066(4) 0.59972(17)
H13_2 H 0.6905 0.8453 0.5593
C19_2 C 0.24557(16) 0.7558(4) 0.59270(16)
H14_2 H 0.2181 0.6807 0.6094
C20_2 C 0.40944(14) 0.9621(3) 0.55314(14)
C21_2 C 0.21894(14) 0.8795(4) 0.55890(14)
C22_2 C 0.33934(14) 0.8940(4) 0.56824(14)
C23_2 C 0.80641(15) 0.8285(4) 0.64687(18)
H15_2 H 0.8364 0.7415 0.6524
H16_2 H 0.8231 0.8981 0.6821
H17_2 H 0.8101 0.8714 0.6028
C24_2 C 0.71403(18) 0.7202(4) 0.71476(18)
H18_2 H 0.7208 0.7907 0.7514
H19_2 H 0.7473 0.6392 0.7250
H20_2 H 0.6643 0.6847 0.7098
O18_2 O 0.40659(9) 0.9061(2) 0.03386(10)
O19_2 O 0.59341(9) 0.9061(2) 0.46614(10)
O22_2 O 0.59343(10) 0.6701(2) 0.04058(10)
O23_2 O 0.40657(10) 0.6701(2) 0.45942(10)
O25_2 O 0.49321(9) 0.5411(2) 0.57480(10)
O3_2 O 0.90657(10) 0.8299(2) 0.95942(10)
C1_2 C 0.85771(15) 0.9271(4) 0.96656(15)
O4_2 O 0.38896(10) 0.7750(2) 0.89925(11)
O6_2 O 0.72500(9) 0.9697(2) 0.95546(10)
C2_2 C 0.67733(15) 0.7644(3) 0.90267(15)
H1_2 H 0.6439 0.6944 0.8833
N1_2 N 0.27133(13) 0.7890(4) 0.84803(14)
O9_2 O 0.53425(9) 0.8810(2) 0.93884(9)
C3_2 C 0.32319(16) 0.8066(4) 0.90028(17)
H2_2 H 0.3095 0.8453 0.9407
C5_2 C 0.75443(16) 0.7558(4) 0.90730(16)
H3_2 H 0.7819 0.6807 0.8906
C7_2 C 0.59056(14) 0.9621(3) 0.94686(14)
C9_2 C 0.78106(14) 0.8795(4) 0.94110(14)
C10_2 C 0.66066(14) 0.8940(4) 0.93176(14)
C11_2 C 0.19359(15) 0.8285(4) 0.85313(18)
H5_2 H 0.1636 0.7415 0.8476
H6_2 H 0.1769 0.8981 0.8179
H7_2 H 0.1899 0.8714 0.8972
C12_2 C 0.28597(18) 0.7202(4) 0.78524(18)
H8_2 H 0.2792 0.7907 0.7486
H9_2 H 0.2527 0.6392 0.7750
H10_2 H 0.3357 0.6847 0.7902
O24_2 O 0.50679(9) 0.5411(2) 0.92520(10)
C6_3 C 0.00269(15) 0.1671(4) 0.78681(14)
H4_3 H 0.0045 0.2495 0.8151
C8_3 C 0.00461(14) 0.0251(4) 0.80723(15)
O4_3 O 0.11104(10) 0.7250(2) 0.10075(11)
N1_3 N 0.22867(13) 0.7110(4) 0.15197(14)
C3_3 C 0.17681(16) 0.6934(4) 0.09972(17)
H2_3 H 0.1905 0.6547 0.0593
C11_3 C 0.30641(15) 0.6715(4) 0.14687(18)
H5_3 H 0.3364 0.7585 0.1524
H6_3 H 0.3231 0.6019 0.1821
H7_3 H 0.3101 0.6286 0.1028
C12_3 C 0.21403(18) 0.7798(4) 0.21476(18)
H8_3 H 0.2208 0.7093 0.2514
H9_3 H 0.2473 0.8608 0.2250
H10_3 H 0.1643 0.8153 0.2098
O20_2 O 0.13252(10) 0.9463(2) 0.00953(10)
O7_4 O -0.0000 0.9344(3) 0.7500
O8_3 O 0.02753(10) 0.8236(2) 0.88059(10)
C4_3 C 0.01327(14) 0.9585(3) 0.87410(14)
O13_2 O 0.36748(10) 0.4463(2) 0.49047(10)
C16_3 C 0.35771(15) 0.5729(4) 0.46656(15)
O16_3 O 0.22500(9) 0.5303(2) 0.45546(10)
C17_3 C 0.17733(15) 0.7356(3) 0.40267(15)
H12_3 H 0.1439 0.8056 0.3833
O17_3 O 0.03425(9) 0.6190(2) 0.43884(9)
C19_3 C 0.25443(16) 0.7442(4) 0.40730(16)
H14_3 H 0.2819 0.8193 0.3906
C20_3 C 0.09056(14) 0.5379(3) 0.44686(14)
C21_3 C 0.28106(14) 0.6205(4) 0.44110(14)
C22_3 C 0.16066(14) 0.6060(4) 0.43176(14)
C14_3 C 0.99731(15) 0.1671(4) 0.71319(14)
H11_3 H 0.9955 0.2495 0.6849
C15_3 C 0.99539(14) 0.0251(4) 0.69277(15)
O2_2 O 0.63252(10) 0.4463(2) 0.00953(10)
C1_3 C 0.64229(15) 0.5729(4) 0.03344(15)
O6_3 O 0.77500(9) 0.5303(2) 0.04454(10)
C2_3 C 0.82267(15) 0.7356(3) 0.09733(15)
H1_3 H 0.8561 0.8056 0.1167
O9_3 O 0.96575(9) 0.6190(2) 0.06116(9)
C5_3 C 0.74557(16) 0.7442(4) 0.09270(16)
H3_3 H 0.7181 0.8193 0.1094
C7_3 C 0.90944(14) 0.5379(3) 0.05314(14)
C9_3 C 0.71894(14) 0.6205(4) 0.05890(14)
C10_3 C 0.83934(14) 0.6060(4) 0.06824(14)
O7_5 O 1.0000 0.9344(3) 0.7500
O10_3 O 0.97247(10) 0.8236(2) 0.61941(10)
C13_3 C 0.98673(14) 0.9585(3) 0.62590(14)
O15_3 O 0.88896(10) 0.7250(2) 0.39925(11)
N2_3 N 0.77133(13) 0.7110(4) 0.34803(14)
C18_3 C 0.82319(16) 0.6934(4) 0.40028(17)
H13_3 H 0.8095 0.6547 0.4407
C23_3 C 0.69359(15) 0.6715(4) 0.35313(18)
H15_3 H 0.6636 0.7585 0.3476
H16_3 H 0.6769 0.6019 0.3179
H17_3 H 0.6899 0.6286 0.3972
C24_3 C 0.78597(18) 0.7798(4) 0.28524(18)
H18_3 H 0.7792 0.7093 0.2486
H19_3 H 0.7527 0.8608 0.2750
H20_3 H 0.8357 0.8153 0.2902
O21_2 O 0.86748(10) 0.9463(2) 0.49047(10)
C1_4 C 0.14229(15) 0.0729(4) 0.03344(15)
O4_4 O 0.61104(10) 0.2250(2) 0.10075(11)
O6_4 O 0.27500(9) 0.0303(2) 0.04454(10)
C2_4 C 0.32267(15) 0.2356(3) 0.09733(15)
H1_4 H 0.3561 0.3056 0.1167
N1_4 N 0.72867(13) 0.2110(4) 0.15197(14)
O9_4 O 0.46575(9) 0.1190(2) 0.06116(9)
C3_4 C 0.67681(16) 0.1934(4) 0.09972(17)
H2_4 H 0.6905 0.1547 0.0593
C5_4 C 0.24557(16) 0.2442(4) 0.09270(16)
H3_4 H 0.2181 0.3193 0.1094
C7_4 C 0.40944(14) 0.0379(3) 0.05314(14)
C9_4 C 0.21894(14) 0.1205(4) 0.05890(14)
C10_4 C 0.33934(14) 0.1060(4) 0.06824(14)
C11_4 C 0.80641(15) 0.1715(4) 0.14687(18)
H5_4 H 0.8364 0.2585 0.1524
H6_4 H 0.8231 0.1019 0.1821
H7_4 H 0.8101 0.1286 0.1028
C12_4 C 0.71403(18) 0.2798(4) 0.21476(18)
H8_4 H 0.7208 0.2093 0.2514
H9_4 H 0.7473 0.3608 0.2250
H10_4 H 0.6643 0.3153 0.2098
O7_6 O 0.5000 0.4344(3) 0.7500
O8_4 O 0.52753(10) 0.3236(2) 0.88059(10)
C4_4 C 0.51327(14) 0.4585(3) 0.87410(14)
C6_4 C 0.50269(15) 0.6671(4) 0.78681(14)
H4_4 H 0.5045 0.7495 0.8151
C8_4 C 0.50461(14) 0.5251(4) 0.80723(15)
O10_4 O 0.47247(10) 0.3236(2) 0.61941(10)
C13_4 C 0.48673(14) 0.4585(3) 0.62590(14)
C14_4 C 0.49731(15) 0.6671(4) 0.71319(14)
H11_4 H 0.4955 0.7495 0.6849
C15_4 C 0.49539(14) 0.5251(4) 0.69277(15)
C16_4 C 0.85771(15) 0.0729(4) 0.46656(15)
O15_4 O 0.38896(10) 0.2250(2) 0.39925(11)
O16_4 O 0.72500(9) 0.0303(2) 0.45546(10)
C17_4 C 0.67733(15) 0.2356(3) 0.40267(15)
H12_4 H 0.6439 0.3056 0.3833
N2_4 N 0.27133(13) 0.2110(4) 0.34803(14)
O17_4 O 0.53425(9) 0.1190(2) 0.43884(9)
C18_4 C 0.32319(16) 0.1934(4) 0.40028(17)
H13_4 H 0.3095 0.1547 0.4407
C19_4 C 0.75443(16) 0.2442(4) 0.40730(16)
H14_4 H 0.7819 0.3193 0.3906
C20_4 C 0.59056(14) 0.0379(3) 0.44686(14)
C21_4 C 0.78106(14) 0.1205(4) 0.44110(14)
C22_4 C 0.66066(14) 0.1060(4) 0.43176(14)
C23_4 C 0.19359(15) 0.1715(4) 0.35313(18)
H15_4 H 0.1636 0.2585 0.3476
H16_4 H 0.1769 0.1019 0.3179
H17_4 H 0.1899 0.1286 0.3972
C24_4 C 0.28597(18) 0.2798(4) 0.28524(18)
H18_4 H 0.2792 0.2093 0.2486
H19_4 H 0.2527 0.3608 0.2750
H20_4 H 0.3357 0.3153 0.2902
loop_
_geom_bond_atom_site_label_1
_geom_bond_atom_site_label_2
_geom_bond_site_symmetry_1
_geom_bond_site_symmetry_2
O10 C13 1_555 1_555
Dy2 O10 1_555 1_555
O15 Dy2 1_555 1_555
N2 C18 1_555 1_555
C18 O15 1_555 1_555
H13 C18 1_555 1_555
C23 N2 1_555 1_555
H15 C23 1_555 1_555
H16 C23 1_555 1_555
H17 C23 1_555 1_555
C24 N2 1_555 1_555
H18 C24 1_555 1_555
H19 C24 1_555 1_555
H20 C24 1_555 1_555
O19 Dy2 1_555 1_555
O21 Dy2 1_555 1_555
O1 C7 1_555 1_555
O2 C1 1_555 1_555
O3 C1 1_555 1_555
C1 C9 1_555 1_555
O6 C9 1_555 1_555
C2 H1 1_555 1_555
C5 C2 1_555 1_555
H3 C5 1_555 1_555
C7 O9 1_555 1_555
C9 C5 1_555 1_555
C10 O6 1_555 1_555
Dy3 O2 1_555 1_555
C2 C10 1_555 1_555
C7 C10 1_555 1_555
H11 C14 1_555 1_555
C14 C15 1_555 1_555
O12 C20 1_555 1_555
O13 C16 1_555 1_555
O14 C16 1_555 1_555
C16 C21 1_555 1_555
O16 C21 1_555 1_555
C17 H12 1_555 1_555
C19 C17 1_555 1_555
H14 C19 1_555 1_555
C20 O17 1_555 1_555
C21 C19 1_555 1_555
C22 O16 1_555 1_555
Dy4 O13 1_555 1_555
Dy8 O12 1_555 1_555
Dy10 O14 1_555 1_555
O8 C4 1_555 1_555
C17 C22 1_555 1_555
C20 C22 1_555 1_555
Dy1 O4 1_555 1_555
O4 C3 1_555 1_555
N1 C3 1_555 1_555
C3 H2 1_555 1_555
C11 N1 1_555 1_555
H5 C11 1_555 1_555
H6 C11 1_555 1_555
H7 C11 1_555 1_555
C12 N1 1_555 1_555
H8 C12 1_555 1_555
H9 C12 1_555 1_555
H10 C12 1_555 1_555
O20 Dy1 1_555 1_555
C6 H4 1_555 1_555
C6 C8 1_555 1_555
Dy10 O12_2 1_555 1_555
O7_3 C8_2 1_555 1_555
C4_2 O5_2 1_555 1_555
C6_2 H4_2 1_555 1_555
C8_2 C4_2 1_555 1_555
O10_2 C13_2 1_555 1_555
C13_2 C15_2 1_555 1_555
C14_2 C6_2 1_555 1_555
H11_2 C14_2 1_555 1_555
C15_2 O7_3 1_555 1_555
O11_2 C13_2 1_555 1_555
O14_2 C16_2 1_555 1_555
C16_2 C21_2 1_555 1_555
Dy4 O10_2 1_555 1_555
O15_2 Dy4 1_555 1_555
O16_2 C21_2 1_555 1_555
C17_2 H12_2 1_555 1_555
N2_2 C18_2 1_555 1_555
O17_2 Dy4 1_555 1_555
C18_2 O15_2 1_555 1_555
H13_2 C18_2 1_555 1_555
C19_2 C17_2 1_555 1_555
H14_2 C19_2 1_555 1_555
C20_2 O17_2 1_555 1_555
C21_2 C19_2 1_555 1_555
C22_2 O16_2 1_555 1_555
C23_2 N2_2 1_555 1_555
H15_2 C23_2 1_555 1_555
H16_2 C23_2 1_555 1_555
H17_2 C23_2 1_555 1_555
C24_2 N2_2 1_555 1_555
H18_2 C24_2 1_555 1_555
H19_2 C24_2 1_555 1_555
H20_2 C24_2 1_555 1_555
O19_2 Dy4 1_555 1_555
O23_2 Dy4 1_555 1_555
Dy9 O5_2 1_555 1_555
Dy10 O11_2 1_555 1_555
O25_2 Dy4 1_555 1_555
O8_2 C4_2 1_555 1_555
C6_2 C8_2 1_555 1_555
C14_2 C15_2 1_555 1_555
O11_2 Dy4 1_555 1_555
C17_2 C22_2 1_555 1_555
C20_2 C22_2 1_555 1_555
Dy10 O25_2 1_555 1_555
O3_2 C1_2 1_555 1_555
C1_2 C9_2 1_555 1_555
Dy3 O4_2 1_555 1_555
O4_2 C3_2 1_555 1_555
O6_2 C9_2 1_555 1_555
C2_2 H1_2 1_555 1_555
N1_2 C3_2 1_555 1_555
O9_2 Dy3 1_555 1_555
C3_2 H2_2 1_555 1_555
C5_2 C2_2 1_555 1_555
H3_2 C5_2 1_555 1_555
C7_2 O9_2 1_555 1_555
C9_2 C5_2 1_555 1_555
C10_2 O6_2 1_555 1_555
C11_2 N1_2 1_555 1_555
H5_2 C11_2 1_555 1_555
H6_2 C11_2 1_555 1_555
H7_2 C11_2 1_555 1_555
C12_2 N1_2 1_555 1_555
H8_2 C12_2 1_555 1_555
H9_2 C12_2 1_555 1_555
H10_2 C12_2 1_555 1_555
O24_2 Dy3 1_555 1_555
C2_2 C10_2 1_555 1_555
C7_2 C10_2 1_555 1_555
C6_3 H4_3 1_555 1_555
C6_3 C8_3 1_555 1_555
Dy6 O4_3 1_555 1_555
O4_3 C3_3 1_555 1_555
N1_3 C3_3 1_555 1_555
C3_3 H2_3 1_555 1_555
C11_3 N1_3 1_555 1_555
H5_3 C11_3 1_555 1_555
H6_3 C11_3 1_555 1_555
H7_3 C11_3 1_555 1_555
C12_3 N1_3 1_555 1_555
H8_3 C12_3 1_555 1_555
H9_3 C12_3 1_555 1_555
H10_3 C12_3 1_555 1_555
O20_2 Dy6 1_555 1_555
O19 C20_3 1_555 1_555
O13_2 C16_3 1_555 1_555
O23_2 C16_3 1_555 1_555
C16_3 C21_3 1_555 1_555
O16_3 C21_3 1_555 1_555
C17_3 H12_3 1_555 1_555
C19_3 C17_3 1_555 1_555
H14_3 C19_3 1_555 1_555
C20_3 O17_3 1_555 1_555
C21_3 C19_3 1_555 1_555
C22_3 O16_3 1_555 1_555
Dy10 O13_2 1_555 1_555
O8_3 C4_3 1_555 1_555
C17_3 C22_3 1_555 1_555
C20_3 C22_3 1_555 1_555
H11_3 C14_3 1_555 1_555
C14_3 C15_3 1_555 1_555
O18 C7_3 1_555 1_555
O2_2 C1_3 1_555 1_555
O22_2 C1_3 1_555 1_555
C1_3 C9_3 1_555 1_555
O6_3 C9_3 1_555 1_555
C2_3 H1_3 1_555 1_555
C5_3 C2_3 1_555 1_555
H3_3 C5_3 1_555 1_555
C7_3 O9_3 1_555 1_555
C9_3 C5_3 1_555 1_555
C10_3 O6_3 1_555 1_555
Dy9 O2_2 1_555 1_555
C2_3 C10_3 1_555 1_555
C7_3 C10_3 1_555 1_555
O10_3 C13_3 1_555 1_555
Dy8 O10_3 1_555 1_555
O15_3 Dy8 1_555 1_555
N2_3 C18_3 1_555 1_555
C18_3 O15_3 1_555 1_555
H13_3 C18_3 1_555 1_555
C23_3 N2_3 1_555 1_555
H15_3 C23_3 1_555 1_555
H16_3 C23_3 1_555 1_555
H17_3 C23_3 1_555 1_555
C24_3 N2_3 1_555 1_555
H18_3 C24_3 1_555 1_555
H19_3 C24_3 1_555 1_555
H20_3 C24_3 1_555 1_555
O21_2 Dy8 1_555 1_555
O22 C1_4 1_555 1_555
C1_4 C9_4 1_555 1_555
Dy9 O4_4 1_555 1_555
O4_4 C3_4 1_555 1_555
O6_4 C9_4 1_555 1_555
C2_4 H1_4 1_555 1_555
N1_4 C3_4 1_555 1_555
O9_4 Dy9 1_555 1_555
C3_4 H2_4 1_555 1_555
C5_4 C2_4 1_555 1_555
H3_4 C5_4 1_555 1_555
C7_4 O9_4 1_555 1_555
C9_4 C5_4 1_555 1_555
C10_4 O6_4 1_555 1_555
C11_4 N1_4 1_555 1_555
H5_4 C11_4 1_555 1_555
H6_4 C11_4 1_555 1_555
H7_4 C11_4 1_555 1_555
C12_4 N1_4 1_555 1_555
H8_4 C12_4 1_555 1_555
H9_4 C12_4 1_555 1_555
H10_4 C12_4 1_555 1_555
C2_4 C10_4 1_555 1_555
C7_4 C10_4 1_555 1_555
O7_6 C8_4 1_555 1_555
C4_4 O24_2 1_555 1_555
C6_4 H4_4 1_555 1_555
C8_4 C4_4 1_555 1_555
O10_4 C13_4 1_555 1_555
C13_4 C15_4 1_555 1_555
C14_4 C6_4 1_555 1_555
H11_4 C14_4 1_555 1_555
C15_4 O7_6 1_555 1_555
O25_2 C13_4 1_555 1_555
O23 C16_4 1_555 1_555
C16_4 C21_4 1_555 1_555
Dy10 O10_4 1_555 1_555
O15_4 Dy10 1_555 1_555
O16_4 C21_4 1_555 1_555
C17_4 H12_4 1_555 1_555
N2_4 C18_4 1_555 1_555
O17_4 Dy10 1_555 1_555
C18_4 O15_4 1_555 1_555
H13_4 C18_4 1_555 1_555
C19_4 C17_4 1_555 1_555
H14_4 C19_4 1_555 1_555
C20_4 O17_4 1_555 1_555
C21_4 C19_4 1_555 1_555
C22_4 O16_4 1_555 1_555
C23_4 N2_4 1_555 1_555
H15_4 C23_4 1_555 1_555
H16_4 C23_4 1_555 1_555
H17_4 C23_4 1_555 1_555
C24_4 N2_4 1_555 1_555
H18_4 C24_4 1_555 1_555
H19_4 C24_4 1_555 1_555
H20_4 C24_4 1_555 1_555
O8_4 C4_4 1_555 1_555
C6_4 C8_4 1_555 1_555
C14_4 C15_4 1_555 1_555
C17_4 C22_4 1_555 1_555
C20_4 C22_4 1_555 1_555

#END
