
###############################################################################
#
# This file contains modified crystal structure data generated from the
# MOF subset of the Cambridge Structural Database (CSD) v543 
# hosted by the Cambridge Crystallographic Data Centre (CCDC).
#
# This work is licensed under the Creative Commons
# Attribution-NonCommercial-ShareAlike 4.0 International License.
# To view a copy of this license, visit
# http://creativecommons.org/licenses/by-nc-sa/4.0/
# or send a letter to
# Creative Commons, PO Box 1866, Mountain View, CA 94042, USA.
#
# CIF created using the CSD Python API on 29 September 2022
# The structure has been converted into the P1 space group
# The structure has a 3D framework
# The original CSD entry YUTQOW is in the monoclinic crystal system
# The framework has been calculated to contain at least 10.0% void space
# The void calculation uses a probe of radius 1.32A, grid spacing 0.4
#
###############################################################################

data_YUTQOW
_chemical_formula_moiety         '(C252 H236 Ca14 Cu20 I12 N48 O86)n'
_symmetry_cell_setting           triclinic
_symmetry_space_group_name_H-M   'P 1'
_symmetry_Int_Tables_number      1
_space_group_name_Hall           'P 1'
loop_
_symmetry_equiv_pos_site_id
_symmetry_equiv_pos_as_xyz
1 x,y,z
_cell_length_a                   18.3188(6)
_cell_length_b                   24.1535(7)
_cell_length_c                   23.9366(8)
_cell_angle_alpha                90
_cell_angle_beta                 108.042(4)
_cell_angle_gamma                90
_cell_volume                     10070.3
loop_
_atom_site_label
_atom_site_type_symbol
_atom_site_fract_x
_atom_site_fract_y
_atom_site_fract_z
I1 I 0.02016(2) 0.48015(2) 0.09695(2)
O1 O 0.44544(12) 0.40795(10) 0.06880(10)
O2 O 0.0936(3) 0.0970(3) 0.06644(17)
H1 H 0.1387 0.0728 0.0804
H2 H 0.1068 0.1293 0.0926
O3 O 0.43585(13) 0.48333(10) 0.01622(12)
N2 N 0.16417(16) 0.45588(12) 0.01252(12)
C2 C 0.2120(2) 0.4389(2) 0.06360(17)
H4 H 0.1916 0.4291 0.0933
C4 C 0.2912(2) 0.43496(19) 0.07503(16)
H8 H 0.3225 0.4221 0.1111
C6 C 0.32209(18) 0.45059(14) 0.03146(14)
C9 C 0.40745(19) 0.44762(15) 0.04138(14)
C10 C 0.0143(2) 0.33889(16) 0.01390(16)
H14 H 0.0222 0.3500 0.0525
C11 C 0.0066(3) 0.28335(16) 0.00132(17)
H15 H 0.0097 0.2575 0.0308
Cu7 Cu 0.01273(4) 0.41438(4) 0.21302(4)
Ca10 Ca 0.54394(4) 0.42342(3) 0.00866(3)
Ca13 Ca 0.51192(4) 0.37617(3) 0.16809(3)
Cu1 Cu 0.04645(2) 0.45781(2) 0.99708(2)
Ca1 Ca 0.01903(4) 0.11940(3) 0.82940(3)
N3 N 0.01121(18) 0.37774(12) 0.97351(13)
C7 C 0.2731(2) 0.46806(17) 0.97909(16)
H12 H 0.2920 0.4791 0.9490
C8 C 0.1944(2) 0.46930(18) 0.97092(16)
H13 H 0.1616 0.4801 0.9345
Ca9 Ca 0.45606(4) 0.57658(3) 0.99134(3)
Ca11 Ca 0.01192(4) 0.12383(3) 0.66809(3)
O28 O 0.03033(15) 0.04009(11) 0.77917(13)
O30 O 0.15298(15) 0.14367(13) 0.84645(12)
O31 O 0.09224(15) 0.16646(12) 0.75592(11)
O32 O 0.06943(13) 0.07282(11) 0.92108(10)
O33 O 0.05898(13) 0.00154(12) 0.97405(11)
O10 O 0.9094(2) 0.11909(16) 0.04871(14)
N1 N 0.8088(2) 0.1638(2) 0.0621(2)
C1 C 0.8571(4) 0.1529(3) 0.0377(3)
H3 H 0.8531 0.1744 0.0046
C3 C 0.8123(5) 0.1423(4) 0.1163(3)
H5 H 0.8427 0.1091 0.1232
H6 H 0.7614 0.1338 0.1170
H7 H 0.8353 0.1689 0.1464
C5 C 0.7516(5) 0.2041(5) 0.0475(5)
H9 H 0.7747 0.2400 0.0493
H10 H 0.7226 0.2025 0.0747
H11 H 0.7181 0.1975 0.0084
Cu6 Cu 0.95355(2) 0.54219(2) 0.00292(2)
I2 I 0.58749(2) 0.21974(2) 0.85028(2)
I3 I 0.47357(2) 0.21925(2) 0.65545(2)
I4 I 0.00911(2) 0.52007(2) 0.59546(2)
Cu2 Cu 0.51273(4) 0.08562(4) 0.71302(4)
Cu3 Cu 0.47161(3) 0.21109(3) 0.75997(2)
Cu4 Cu 0.58825(3) 0.26436(2) 0.74524(2)
Cu5 Cu 0.05755(3) 0.46280(2) 0.52047(2)
Ca2 Ca 0.97949(4) 0.08064(3) 0.98839(3)
Ca3 Ca 0.04394(4) 0.07658(3) 0.50866(3)
O4 O 0.99347(18) 0.19404(12) 0.87818(13)
O5 O 0.9839(2) 0.17205(12) 0.96613(14)
O6 O 0.93775(15) 0.15583(13) 0.74117(11)
O7 O 0.89525(15) 0.18011(13) 0.64995(11)
O8 O 0.90381(14) 0.07819(14) 0.83025(12)
O9 O 0.87130(16) 0.06799(16) 0.91022(12)
O11 O 0.46967(15) 0.54009(11) 0.72083(13)
O12 O 0.54018(17) 0.53936(11) 0.81502(13)
O15 O 0.13046(14) 0.07319(13) 0.68848(12)
O16 O 0.12756(15) 0.05660(14) 0.59679(13)
O17 O 0.06067(15) 0.18860(11) 0.61796(11)
O18 O 0.05569(18) 0.17197(11) 0.52533(11)
O19 O 0.14925(16) 0.09525(13) 0.47110(13)
O21 O 0.43057(13) 0.57282(11) 0.57892(10)
O22 O 0.44102(13) 0.50154(12) 0.52595(11)
N4 N 0.68666(18) 0.24065(15) 0.73146(13)
N5 N 0.61965(19) 0.08233(18) 0.75380(16)
N6 N 0.56734(19) 0.34611(13) 0.74972(13)
N7 N 0.37002(18) 0.19805(16) 0.77253(13)
N8 N 0.40371(19) 0.07761(17) 0.69314(16)
N9 N 0.17233(16) 0.48259(13) 0.53643(13)
N10 N 0.05089(18) 0.37919(13) 0.53385(12)
N12 N 0.2472(2) 0.13757(18) 0.45033(19)
C12 C 0.9941(2) 0.26664(16) 0.94355(17)
C13 C 0.9876(3) 0.30662(17) 0.90130(17)
H16 H 0.9778 0.2968 0.8621
C14 C 0.9959(3) 0.36113(17) 0.91801(16)
H17 H 0.9906 0.3879 0.8891
C15 C 0.9909(2) 0.20497(17) 0.92809(19)
C16 C 0.6395(2) 0.0788(2) 0.8107(2)
H18 H 0.6015 0.0781 0.8290
C17 C 0.7159(2) 0.0762(2) 0.84471(19)
H19 H 0.7282 0.0750 0.8854
C18 C 0.7727(2) 0.07520(17) 0.81985(16)
C19 C 0.7500(2) 0.0801(2) 0.76045(18)
H20 H 0.7864 0.0818 0.7407
C20 C 0.6745(3) 0.0824(3) 0.7302(2)
H21 H 0.6608 0.0843 0.6895
C21 C 0.8574(2) 0.07354(17) 0.85600(16)
C22 C 0.6889(3) 0.2341(2) 0.6773(2)
H22 H 0.6448 0.2413 0.6461
C23 C 0.7559(2) 0.2165(2) 0.66496(18)
H23 H 0.7569 0.2143 0.6264
C24 C 0.8199(2) 0.20264(16) 0.71124(15)
C25 C 0.8165(2) 0.20969(18) 0.76739(15)
H24 H 0.8590 0.2020 0.7997
C26 C 0.7488(2) 0.22847(18) 0.77508(16)
H25 H 0.7471 0.2327 0.8133
C27 C 0.8899(2) 0.17823(16) 0.70060(16)
C28 C 0.5830(3) 0.37138(17) 0.80122(18)
H26 H 0.6054 0.3508 0.8350
C29 C 0.5679(3) 0.42608(17) 0.80725(18)
H27 H 0.5799 0.4415 0.8446
C30 C 0.5355(2) 0.45812(15) 0.75941(16)
C31 C 0.5205(3) 0.43264(18) 0.70510(17)
H28 H 0.4993 0.4528 0.6708
C32 C 0.5373(3) 0.37700(17) 0.70239(17)
H29 H 0.5270 0.3605 0.6656
C33 C 0.5150(2) 0.51800(15) 0.76593(17)
C34 C 0.3654(2) 0.1783(2) 0.82343(18)
H30 H 0.4108 0.1717 0.8535
C35 C 0.2969(2) 0.1671(2) 0.83392(17)
H31 H 0.2964 0.1551 0.8707
C36 C 0.2288(2) 0.17428(17) 0.78850(16)
C37 C 0.2323(2) 0.19515(17) 0.73634(16)
H32 H 0.1877 0.2019 0.7055
C38 C 0.3038(2) 0.20610(18) 0.73039(16)
H33 H 0.3056 0.2200 0.6946
C39 C 0.1520(2) 0.16101(17) 0.79707(18)
C40 C 0.3724(2) 0.0627(2) 0.73531(19)
H34 H 0.4042 0.0552 0.7731
C41 C 0.2929(2) 0.05837(19) 0.72269(19)
H35 H 0.2718 0.0488 0.7520
C42 C 0.24637(19) 0.06842(16) 0.66674(15)
C43 C 0.2807(2) 0.08227(17) 0.62566(16)
H36 H 0.2505 0.0880 0.5870
C44 C 0.3597(2) 0.08799(19) 0.64040(17)
H37 H 0.3814 0.0995 0.6120
C45 C 0.0619(3) 0.35852(17) 0.58775(17)
H38 H 0.0674 0.3834 0.6184
C46 C 0.0657(3) 0.30255(17) 0.60078(16)
H39 H 0.0754 0.2905 0.6393
C47 C 0.0550(2) 0.26472(15) 0.55541(14)
C48 C 0.0426(3) 0.28600(16) 0.49977(16)
H40 H 0.0360 0.2622 0.4681
C49 C 0.0400(2) 0.34215(16) 0.49098(17)
H41 H 0.0299 0.3551 0.4527
C50 C 0.0579(2) 0.20295(15) 0.56775(16)
C51 C 0.2063(2) 0.4703(2) 0.49579(19)
H42 H 0.1773 0.4518 0.4622
C52 C 0.2810(2) 0.4831(2) 0.50037(18)
H43 H 0.3019 0.4731 0.4710
C53 C 0.32337(19) 0.51086(17) 0.54897(16)
C54 C 0.2923(2) 0.5232(2) 0.59196(17)
H44 H 0.3207 0.5412 0.6261
C55 C 0.2168(2) 0.5080(2) 0.58334(17)
H45 H 0.1958 0.5165 0.6130
C56 C 0.40468(19) 0.52924(16) 0.55315(14)
C60 C 0.2876(4) 0.0908(3) 0.4436(3)
H53 H 0.2954 0.0916 0.4057
H54 H 0.2589 0.0582 0.4466
H55 H 0.3364 0.0900 0.4737
C61 C 0.2796(4) 0.1889(3) 0.4345(4)
H56 H 0.2979 0.1819 0.4017
H57 H 0.3214 0.2012 0.4674
H58 H 0.2406 0.2169 0.4241
C62 C 0.1803(3) 0.1352(2) 0.46153(19)
H59 H 0.1554 0.1687 0.4618
C63 C 0.1600(2) 0.06683(16) 0.64935(17)
I5 I 0.97984(2) 0.51985(2) 0.90305(2)
I6 I 0.52016(2) 0.01985(2) 0.59695(2)
Ca6 Ca 0.48097(4) 0.61940(3) 0.67060(3)
Ca7 Ca 0.52051(4) 0.58064(3) 0.51161(3)
Ca8 Ca 0.47949(4) 0.41936(3) 0.48839(3)
Ca12 Ca 0.48808(4) 0.62383(3) 0.83191(3)
O34 O 0.94102(13) 0.99846(12) 0.02595(11)
O24 O 0.06415(13) 0.98333(10) 0.48378(12)
O20 O 0.9618(2) 0.09635(16) 0.41609(15)
N11 N 0.8874(3) 0.0995(2) 0.3208(2)
C57 C 0.8467(4) 0.0669(3) 0.2682(3)
H46 H 0.7924 0.0690 0.2617
H47 H 0.8629 0.0289 0.2741
H48 H 0.8584 0.0815 0.2347
C58 C 0.8873(4) 0.1585(3) 0.3127(4)
H49 H 0.9219 0.1679 0.2911
H50 H 0.9035 0.1765 0.3503
H51 H 0.8364 0.1706 0.2911
C59 C 0.9260(3) 0.0738(2) 0.3694(2)
H52 H 0.9265 0.0353 0.3684
I7 I 0.99089(2) 0.47993(2) 0.40454(2)
Cu8 Cu 0.94245(3) 0.53720(2) 0.47953(2)
O23 O 0.94544(12) 0.09205(10) 0.56880(10)
O25 O 0.93585(13) 0.01667(10) 0.51622(12)
O29 O 0.95982(17) 0.03936(11) 0.68498(13)
Cu8_2 Cu 0.55755(3) 0.03720(2) 0.02047(2)
I4_2 I 0.49089(2) 0.02007(2) 0.90454(2)
C53_2 C 0.17663(19) 0.01086(17) 0.95103(16)
C54_2 C 0.2077(2) 0.0232(2) 0.90804(17)
H44_2 H 0.1793 0.0412 0.8739
C55_2 C 0.2832(2) 0.0080(2) 0.91666(17)
H45_2 H 0.3042 0.0165 0.8870
C56_2 C 0.09532(19) 0.02924(16) 0.94685(14)
O19_2 O 0.35075(16) 0.59525(13) 0.02890(13)
O20_2 O 0.5382(2) 0.59635(16) 0.08391(15)
N11_2 N 0.6126(3) 0.5995(2) 0.1792(2)
N12_2 N 0.2528(2) 0.63757(18) 0.04967(19)
C48_2 C 0.4574(3) 0.78600(16) 0.00023(16)
H40_2 H 0.4640 0.7622 0.0319
C49_2 C 0.4600(2) 0.84215(16) 0.00902(17)
H41_2 H 0.4701 0.8551 0.0473
C51_2 C 0.2937(2) 0.9703(2) 0.00421(19)
H42_2 H 0.3227 0.9518 0.0378
H43_2 H 0.1981 0.9731 0.0290
C57_2 C 0.6533(4) 0.5669(3) 0.2318(3)
H46_2 H 0.7076 0.5690 0.2383
H47_2 H 0.6371 0.5289 0.2259
H48_2 H 0.6416 0.5815 0.2653
C58_2 C 0.6127(4) 0.6585(3) 0.1873(4)
H49_2 H 0.5781 0.6679 0.2089
H50_2 H 0.5965 0.6765 0.1497
H51_2 H 0.6636 0.6706 0.2089
C59_2 C 0.5740(3) 0.5738(2) 0.1306(2)
H52_2 H 0.5735 0.5353 0.1316
C60_2 C 0.2124(4) 0.5908(3) 0.0564(3)
H53_2 H 0.2046 0.5916 0.0943
H54_2 H 0.2411 0.5582 0.0534
H55_2 H 0.1636 0.5900 0.0263
C61_2 C 0.2204(4) 0.6889(3) 0.0655(4)
H56_2 H 0.2021 0.6819 0.0983
H57_2 H 0.1786 0.7012 0.0326
H58_2 H 0.2594 0.7169 0.0759
C62_2 C 0.3197(3) 0.6352(2) 0.03847(19)
H59_2 H 0.3446 0.6687 0.0382
I7_2 I 0.50911(2) 0.97993(2) 0.09546(2)
Ca8_2 Ca 0.02051(4) 0.91936(3) 0.01161(3)
I3_2 I 0.02643(2) 0.71925(2) 0.84455(2)
Cu3_2 Cu 0.02839(3) 0.71109(3) 0.74003(2)
Cu5_2 Cu 0.44245(3) 0.96280(2) 0.97953(2)
O13 O 0.34702(15) 0.64367(13) 0.65355(12)
O14 O 0.40776(15) 0.66646(12) 0.74408(11)
O15_2 O 0.36954(14) 0.57319(13) 0.81152(12)
O16_2 O 0.37244(15) 0.55660(14) 0.90321(13)
O17_2 O 0.43933(15) 0.68860(11) 0.88204(11)
O18_2 O 0.44431(18) 0.67197(11) 0.97467(11)
N7_2 N 0.12998(18) 0.69805(16) 0.72747(13)
N8_2 N 0.09629(19) 0.57761(17) 0.80686(16)
N9_2 N 0.32767(16) 0.98259(13) 0.96357(13)
N10_2 N 0.44911(18) 0.87919(13) 0.96615(12)
H28_2 H 0.0007 0.9528 0.8292
C34_2 C 0.1346(2) 0.6783(2) 0.67657(18)
H30_2 H 0.0892 0.6717 0.6465
C35_2 C 0.2031(2) 0.6671(2) 0.66608(17)
H31_2 H 0.2036 0.6551 0.6293
C36_2 C 0.2712(2) 0.67428(17) 0.71150(16)
C37_2 C 0.2677(2) 0.69515(17) 0.76366(16)
H32_2 H 0.3123 0.7019 0.7945
C38_2 C 0.1962(2) 0.70610(18) 0.76961(16)
H33_2 H 0.1944 0.7200 0.8054
C39_2 C 0.3480(2) 0.66101(17) 0.70293(18)
C40_2 C 0.1276(2) 0.5627(2) 0.76469(19)
H34_2 H 0.0958 0.5552 0.7269
C41_2 C 0.2071(2) 0.55837(19) 0.77731(19)
H35_2 H 0.2282 0.5488 0.7480
C42_2 C 0.25363(19) 0.56842(16) 0.83326(15)
C43_2 C 0.2193(2) 0.58227(17) 0.87434(16)
H36_2 H 0.2495 0.5880 0.9130
C44_2 C 0.1403(2) 0.58799(19) 0.85960(17)
H37_2 H 0.1186 0.5995 0.8880
C45_2 C 0.4381(3) 0.85852(17) 0.91225(17)
H38_2 H 0.4326 0.8834 0.8816
C46_2 C 0.4343(3) 0.80255(17) 0.89922(16)
H39_2 H 0.4246 0.7905 0.8607
C47_2 C 0.4450(2) 0.76472(15) 0.94459(14)
C50_2 C 0.4421(2) 0.70295(15) 0.93225(16)
C52_2 C 0.2190(2) 0.9831(2) 0.99963(18)
C63_2 C 0.3400(2) 0.56683(16) 0.85065(17)
O23_2 O 0.55456(12) 0.59205(10) 0.93120(10)
O25_2 O 0.56415(13) 0.51667(10) 0.98378(12)
O26 O 0.56225(15) 0.65583(13) 0.75883(11)
O27 O 0.60475(15) 0.68011(13) 0.85005(11)
C33_2 C 0.9850(2) 0.01800(15) 0.73407(17)
Cu6_2 Cu 0.54645(2) 0.04219(2) 0.49708(2)
I1_2 I 0.47984(2) 0.98015(2) 0.40305(2)
I2_2 I 0.91251(2) 0.71974(2) 0.64972(2)
Cu1_2 Cu 0.45355(2) 0.95781(2) 0.50292(2)
Cu2_2 Cu 0.98727(4) 0.58562(4) 0.78698(4)
Cu4_2 Cu 0.91175(3) 0.76436(2) 0.75476(2)
O1_2 O 0.05456(12) 0.90795(10) 0.43120(10)
O2_2 O 0.4064(3) 0.5970(3) 0.43356(17)
H1_2 H 0.3613 0.5728 0.4196
H2_2 H 0.3932 0.6293 0.4074
O4_2 O 0.50653(18) 0.69404(12) 0.62182(13)
O5_2 O 0.5161(2) 0.67205(12) 0.53387(14)
O8_2 O 0.59619(14) 0.57819(14) 0.66975(12)
O9_2 O 0.62870(16) 0.56799(16) 0.58978(12)
O10_2 O 0.5906(2) 0.61909(16) 0.45129(14)
N1_2 N 0.6912(2) 0.6638(2) 0.4379(2)
N2_2 N 0.33583(16) 0.95588(12) 0.48748(12)
N3_2 N 0.48879(18) 0.87774(12) 0.52649(13)
N4_2 N 0.81334(18) 0.74065(15) 0.76854(13)
N5_2 N 0.88035(19) 0.58233(18) 0.74620(16)
N6_2 N 0.93266(19) 0.84611(13) 0.75028(13)
C1_2 C 0.6429(4) 0.6529(3) 0.4623(3)
H3_2 H 0.6469 0.6744 0.4954
C2_2 C 0.2880(2) 0.9389(2) 0.43640(17)
H4_2 H 0.3084 0.9291 0.4067
C3_2 C 0.6877(5) 0.6423(4) 0.3837(3)
H5_2 H 0.6573 0.6091 0.3768
H6_2 H 0.7386 0.6338 0.3830
H7_2 H 0.6647 0.6689 0.3536
C4_2 C 0.2088(2) 0.93496(19) 0.42497(16)
H8_2 H 0.1775 0.9221 0.3889
C5_2 C 0.7484(5) 0.7041(5) 0.4525(5)
H9_2 H 0.7253 0.7400 0.4507
H10_2 H 0.7774 0.7025 0.4253
H11_2 H 0.7819 0.6975 0.4916
C6_2 C 0.17791(18) 0.95059(14) 0.46854(14)
C7_2 C 0.2269(2) 0.96806(17) 0.52091(16)
H12_2 H 0.2080 0.9791 0.5510
C8_2 C 0.3056(2) 0.96930(18) 0.52908(16)
H13_2 H 0.3384 0.9801 0.5655
C9_2 C 0.09255(19) 0.94762(15) 0.45862(14)
C10_2 C 0.4857(2) 0.83889(16) 0.48610(16)
H14_2 H 0.4778 0.8500 0.4475
C11_2 C 0.4934(3) 0.78335(16) 0.49868(17)
H15_2 H 0.4903 0.7575 0.4692
C12_2 C 0.5059(2) 0.76664(16) 0.55645(17)
C13_2 C 0.5124(3) 0.80662(17) 0.59870(17)
H16_2 H 0.5222 0.7968 0.6379
C14_2 C 0.5041(3) 0.86113(17) 0.58199(16)
H17_2 H 0.5094 0.8879 0.6109
C15_2 C 0.5091(2) 0.70497(17) 0.57191(19)
C16_2 C 0.8605(2) 0.5788(2) 0.6893(2)
H18_2 H 0.8985 0.5781 0.6710
C17_2 C 0.7841(2) 0.5762(2) 0.65529(19)
H19_2 H 0.7718 0.5750 0.6146
C18_2 C 0.7273(2) 0.57520(17) 0.68015(16)
C19_2 C 0.7500(2) 0.5801(2) 0.73955(18)
H20_2 H 0.7136 0.5818 0.7593
C20_2 C 0.8255(3) 0.5824(3) 0.7698(2)
H21_2 H 0.8392 0.5843 0.8105
C21_2 C 0.6426(2) 0.57354(17) 0.64400(16)
C22_2 C 0.8111(3) 0.7341(2) 0.8227(2)
H22_2 H 0.8552 0.7413 0.8539
C23_2 C 0.7441(2) 0.7165(2) 0.83504(18)
H23_2 H 0.7431 0.7143 0.8736
C24_2 C 0.6801(2) 0.70264(16) 0.78876(15)
C25_2 C 0.6835(2) 0.70969(18) 0.73261(15)
H24_2 H 0.6410 0.7020 0.7003
C26_2 C 0.7512(2) 0.72847(18) 0.72492(16)
H25_2 H 0.7529 0.7327 0.6867
C27_2 C 0.6101(2) 0.67823(16) 0.79940(16)
C28_2 C 0.9170(3) 0.87138(17) 0.69878(18)
H26_2 H 0.8946 0.8508 0.6650
C29_2 C 0.9321(3) 0.92608(17) 0.69275(18)
H27_2 H 0.9201 0.9415 0.6554
C30_2 C 0.9645(2) 0.95812(15) 0.74059(16)
C31_2 C 0.9795(3) 0.93264(18) 0.79490(17)
C32_2 C 0.9627(3) 0.87700(17) 0.79761(17)
H29_2 H 0.9730 0.8605 0.8344
Cu7_2 Cu 0.48727(4) 0.91438(4) 0.28698(4)
O34_2 O 0.55898(13) 0.49846(12) 0.47405(11)
Ca10_2 Ca 0.95606(4) 0.92342(3) 0.49134(3)
Ca13_2 Ca 0.98808(4) 0.87617(3) 0.33191(3)
O20_3 O 0.0382(2) 0.90365(16) 0.58391(15)
N11_3 N 0.1126(3) 0.9005(2) 0.6792(2)
C57_3 C 0.1533(4) 0.9331(3) 0.7318(3)
H46_3 H 0.2076 0.9310 0.7383
H47_3 H 0.1371 0.9711 0.7259
H48_3 H 0.1416 0.9185 0.7653
C58_3 C 0.1127(4) 0.8415(3) 0.6873(4)
H49_3 H 0.0781 0.8321 0.7089
H50_3 H 0.0965 0.8235 0.6497
H51_3 H 0.1636 0.8294 0.7089
C59_3 C 0.0740(3) 0.9262(2) 0.6306(2)
H52_3 H 0.0735 0.9647 0.6316
O26_2 O 0.06225(15) 0.84417(13) 0.25883(11)
O27_2 O 0.10475(15) 0.81989(13) 0.35005(11)
O29_2 O 0.04018(17) 0.96064(11) 0.31502(13)
I2_3 I 0.41251(2) 0.78026(2) 0.14972(2)
I3_3 I 0.52643(2) 0.78075(2) 0.34455(2)
Cu3_3 Cu 0.52839(3) 0.78891(3) 0.24003(2)
Cu4_3 Cu 0.41175(3) 0.73564(2) 0.25476(2)
O4_3 O 0.00653(18) 0.80596(12) 0.12182(13)
O5_3 O 0.0161(2) 0.82795(12) 0.03387(14)
O8_3 O 0.09619(14) 0.92181(14) 0.16975(12)
O9_3 O 0.12870(16) 0.93201(16) 0.08978(12)
O11_2 O 0.53033(15) 0.45991(11) 0.27917(13)
O12_2 O 0.45982(17) 0.46064(11) 0.18498(13)
O13_2 O 0.84702(15) 0.85633(13) 0.15355(12)
O14_2 O 0.90776(15) 0.83354(12) 0.24408(11)
O15_3 O 0.86954(14) 0.92681(13) 0.31152(12)
O16_3 O 0.87244(15) 0.94340(14) 0.40321(13)
O17_3 O 0.93933(15) 0.81140(11) 0.38204(11)
O18_3 O 0.94431(18) 0.82803(11) 0.47467(11)
O19_3 O 0.85075(16) 0.90475(13) 0.52890(13)
O21_2 O 0.56943(13) 0.42718(11) 0.42108(10)
N4_3 N 0.31334(18) 0.75935(15) 0.26854(13)
N5_3 N 0.38035(19) 0.91767(18) 0.24620(16)
N6_3 N 0.43266(19) 0.65389(13) 0.25028(13)
N7_3 N 0.62998(18) 0.80195(16) 0.22747(13)
N8_3 N 0.59629(19) 0.92239(17) 0.30686(16)
N9_3 N 0.82767(16) 0.51741(13) 0.46357(13)
N10_3 N 0.94911(18) 0.62081(13) 0.46615(12)
N12_3 N 0.7528(2) 0.86243(18) 0.54967(19)
C12_3 C 0.0059(2) 0.73336(16) 0.05645(17)
C13_3 C 0.0124(3) 0.69338(17) 0.09870(17)
H16_3 H 0.0222 0.7032 0.1379
C14_3 C 0.0041(3) 0.63887(17) 0.08199(16)
H17_3 H 0.0094 0.6121 0.1109
C15_3 C 0.0091(2) 0.79503(17) 0.07191(19)
C16_3 C 0.3605(2) 0.9212(2) 0.1893(2)
H18_3 H 0.3985 0.9219 0.1710
C17_3 C 0.2841(2) 0.9238(2) 0.15529(19)
H19_3 H 0.2718 0.9250 0.1146
C18_3 C 0.2273(2) 0.92480(17) 0.18015(16)
C19_3 C 0.2500(2) 0.9199(2) 0.23955(18)
H20_3 H 0.2136 0.9182 0.2593
C20_3 C 0.3255(3) 0.9176(3) 0.2698(2)
H21_3 H 0.3392 0.9157 0.3105
C21_3 C 0.1426(2) 0.92646(17) 0.14400(16)
C22_3 C 0.3111(3) 0.7659(2) 0.3227(2)
H22_3 H 0.3552 0.7587 0.3539
C23_3 C 0.2441(2) 0.7835(2) 0.33504(18)
H23_3 H 0.2431 0.7857 0.3736
C24_3 C 0.1801(2) 0.79736(16) 0.28876(15)
C25_3 C 0.1835(2) 0.79031(18) 0.23261(15)
H24_3 H 0.1410 0.7980 0.2003
C26_3 C 0.2512(2) 0.77153(18) 0.22492(16)
H25_3 H 0.2529 0.7673 0.1867
C27_3 C 0.1101(2) 0.82177(16) 0.29940(16)
C28_3 C 0.4170(3) 0.62862(17) 0.19878(18)
H26_3 H 0.3946 0.6492 0.1650
C29_3 C 0.4321(3) 0.57392(17) 0.19275(18)
H27_3 H 0.4201 0.5585 0.1554
C30_3 C 0.4645(2) 0.54188(15) 0.24059(16)
C31_3 C 0.4795(3) 0.56736(18) 0.29490(17)
H28_3 H 0.5007 0.5472 0.3292
C32_3 C 0.4627(3) 0.62300(17) 0.29761(17)
H29_3 H 0.4730 0.6395 0.3344
C33_3 C 0.4850(2) 0.48200(15) 0.23407(17)
C34_3 C 0.6346(2) 0.8217(2) 0.17657(18)
H30_3 H 0.5892 0.8283 0.1465
C35_3 C 0.7031(2) 0.8329(2) 0.16608(17)
H31_3 H 0.7036 0.8449 0.1293
C36_3 C 0.7712(2) 0.82572(17) 0.21150(16)
C37_3 C 0.7677(2) 0.80485(17) 0.26366(16)
H32_3 H 0.8123 0.7981 0.2945
C38_3 C 0.6962(2) 0.79390(18) 0.26961(16)
H33_3 H 0.6944 0.7800 0.3054
C39_3 C 0.8480(2) 0.83899(17) 0.20293(18)
C40_3 C 0.6276(2) 0.9373(2) 0.26469(19)
H34_3 H 0.5958 0.9448 0.2269
C41_3 C 0.7071(2) 0.94163(19) 0.27731(19)
H35_3 H 0.7282 0.9512 0.2480
C42_3 C 0.75363(19) 0.93158(16) 0.33326(15)
C43_3 C 0.7193(2) 0.91773(17) 0.37434(16)
H36_3 H 0.7495 0.9120 0.4130
C44_3 C 0.6403(2) 0.91201(19) 0.35960(17)
H37_3 H 0.6186 0.9005 0.3880
C45_3 C 0.9381(3) 0.64148(17) 0.41225(17)
H38_3 H 0.9326 0.6166 0.3816
C46_3 C 0.9343(3) 0.69745(17) 0.39922(16)
H39_3 H 0.9246 0.7095 0.3607
C47_3 C 0.9450(2) 0.73528(15) 0.44459(14)
C48_3 C 0.9574(3) 0.71400(16) 0.50023(16)
H40_3 H 0.9640 0.7378 0.5319
C49_3 C 0.9600(2) 0.65785(16) 0.50902(17)
H41_3 H 0.9701 0.6449 0.5473
C50_3 C 0.9421(2) 0.79705(15) 0.43225(16)
C51_3 C 0.7937(2) 0.5297(2) 0.50421(19)
H42_3 H 0.8227 0.5482 0.5378
C52_3 C 0.7190(2) 0.5169(2) 0.49963(18)
H43_3 H 0.6981 0.5269 0.5290
C53_3 C 0.67663(19) 0.48914(17) 0.45103(16)
C54_3 C 0.7077(2) 0.4768(2) 0.40804(17)
H44_3 H 0.6793 0.4588 0.3739
C55_3 C 0.7832(2) 0.4920(2) 0.41666(17)
H45_3 H 0.8042 0.4835 0.3870
C56_3 C 0.59532(19) 0.47076(16) 0.44685(14)
C60_3 C 0.7124(4) 0.9092(3) 0.5564(3)
H53_3 H 0.7046 0.9084 0.5943
H54_3 H 0.7411 0.9418 0.5534
H55_3 H 0.6636 0.9100 0.5263
C61_3 C 0.7204(4) 0.8111(3) 0.5655(4)
H56_3 H 0.7021 0.8181 0.5983
H57_3 H 0.6786 0.7988 0.5326
H58_3 H 0.7594 0.7831 0.5759
C62_3 C 0.8197(3) 0.8648(2) 0.53847(19)
H59_3 H 0.8446 0.8313 0.5382
C63_3 C 0.8400(2) 0.93317(16) 0.35065(17)
Ca5 Ca 0.98097(4) 0.88060(3) 0.17060(3)
Ca6_2 Ca 0.51903(4) 0.38060(3) 0.32940(3)
O10_3 O 0.0906(2) 0.88091(16) 0.95129(14)
N1_3 N 0.1912(2) 0.8362(2) 0.9379(2)
C1_3 C 0.1429(4) 0.8471(3) 0.9623(3)
H3_3 H 0.1469 0.8256 0.9954
C3_3 C 0.1877(5) 0.8577(4) 0.8837(3)
H5_3 H 0.1573 0.8909 0.8768
H6_3 H 0.2386 0.8662 0.8830
H7_3 H 0.1647 0.8311 0.8536
C5_3 C 0.2484(5) 0.7959(5) 0.9525(5)
H9_3 H 0.2253 0.7600 0.9507
H10_3 H 0.2774 0.7975 0.9253
H11_3 H 0.2819 0.8025 0.9916
N3_3 N 0.98879(18) 0.62226(12) 0.02649(13)
C7_3 C 0.7269(2) 0.53194(17) 0.02091(16)
H12_3 H 0.7080 0.5209 0.0510
C8_3 C 0.8056(2) 0.53070(18) 0.02908(16)
H13_3 H 0.8384 0.5199 0.0655
O28_2 O 0.96967(15) 0.95991(11) 0.22083(13)
O32_2 O 0.93057(13) 0.92718(11) 0.07892(10)
O2_3 O 0.9064(3) 0.9030(3) 0.93356(17)
H1_3 H 0.8613 0.9272 0.9196
H2_3 H 0.8932 0.8707 0.9074
N2_3 N 0.83583(16) 0.54412(12) 0.98748(12)
C2_3 C 0.7880(2) 0.5611(2) 0.93640(17)
H4_3 H 0.8084 0.5709 0.9067
C4_3 C 0.7088(2) 0.56504(19) 0.92497(16)
H8_3 H 0.6775 0.5779 0.8889
C6_3 C 0.67791(18) 0.54941(14) 0.96854(14)
C9_3 C 0.59255(19) 0.55238(15) 0.95862(14)
C10_3 C 0.9857(2) 0.66111(16) 0.98610(16)
H14_3 H 0.9778 0.6500 0.9475
C11_3 C 0.9934(3) 0.71665(16) 0.99868(17)
H15_3 H 0.9903 0.7425 0.9692
I2_4 I 0.08749(2) 0.28026(2) 0.35028(2)
Cu4_4 Cu 0.08825(3) 0.23564(2) 0.24524(2)
O2_4 O 0.5936(3) 0.4030(3) 0.56644(17)
H1_4 H 0.6387 0.4272 0.5804
H2_4 H 0.6068 0.3707 0.5926
O4_4 O 0.49347(18) 0.30596(12) 0.37818(13)
O5_4 O 0.4839(2) 0.32795(12) 0.46613(14)
O6_2 O 0.43775(15) 0.34417(13) 0.24117(11)
O7_2 O 0.39525(15) 0.31989(13) 0.14995(11)
O8_4 O 0.40381(14) 0.42181(14) 0.33025(12)
O9_4 O 0.37130(16) 0.43201(16) 0.41022(12)
O10_4 O 0.4094(2) 0.38091(16) 0.54871(14)
N1_4 N 0.3088(2) 0.3362(2) 0.5621(2)
N2_4 N 0.66417(16) 0.04412(12) 0.51252(12)
N3_4 N 0.51121(18) 0.12226(12) 0.47351(13)
N4_4 N 0.18666(18) 0.25935(15) 0.23146(13)
N5_4 N 0.11965(19) 0.41767(18) 0.25380(16)
N6_4 N 0.06734(19) 0.15389(13) 0.24972(13)
C1_4 C 0.3571(4) 0.3471(3) 0.5377(3)
H3_4 H 0.3531 0.3256 0.5046
C2_4 C 0.7120(2) 0.0611(2) 0.56360(17)
H4_4 H 0.6916 0.0709 0.5933
C3_4 C 0.3123(5) 0.3577(4) 0.6163(3)
H5_4 H 0.3427 0.3909 0.6232
H6_4 H 0.2614 0.3662 0.6170
H7_4 H 0.3353 0.3311 0.6464
C4_4 C 0.7912(2) 0.06504(19) 0.57503(16)
H8_4 H 0.8225 0.0779 0.6111
C5_4 C 0.2516(5) 0.2959(5) 0.5475(5)
H9_4 H 0.2747 0.2600 0.5493
H10_4 H 0.2226 0.2975 0.5747
H11_4 H 0.2181 0.3025 0.5084
C6_4 C 0.82209(18) 0.04941(14) 0.53146(14)
C7_4 C 0.7731(2) 0.03194(17) 0.47909(16)
H12_4 H 0.7920 0.0209 0.4490
C8_4 C 0.6944(2) 0.03070(18) 0.47092(16)
H13_4 H 0.6616 0.0199 0.4345
C9_4 C 0.90745(19) 0.05238(15) 0.54138(14)
C10_4 C 0.5143(2) 0.16111(16) 0.51390(16)
H14_4 H 0.5222 0.1500 0.5525
C11_4 C 0.5066(3) 0.21665(16) 0.50132(17)
H15_4 H 0.5097 0.2425 0.5308
C12_4 C 0.4941(2) 0.23336(16) 0.44355(17)
C13_4 C 0.4876(3) 0.19338(17) 0.40130(17)
H16_4 H 0.4778 0.2032 0.3621
C14_4 C 0.4959(3) 0.13887(17) 0.41801(16)
H17_4 H 0.4906 0.1121 0.3891
C15_4 C 0.4909(2) 0.29503(17) 0.42809(19)
C16_4 C 0.1395(2) 0.4212(2) 0.3107(2)
H18_4 H 0.1015 0.4219 0.3290
C17_4 C 0.2159(2) 0.4238(2) 0.34471(19)
H19_4 H 0.2282 0.4250 0.3854
C18_4 C 0.2727(2) 0.42480(17) 0.31985(16)
C19_4 C 0.2500(2) 0.4199(2) 0.26045(18)
H20_4 H 0.2864 0.4182 0.2407
C20_4 C 0.1745(3) 0.4176(3) 0.2302(2)
H21_4 H 0.1608 0.4157 0.1895
C21_4 C 0.3574(2) 0.42646(17) 0.35600(16)
C22_4 C 0.1889(3) 0.2659(2) 0.1773(2)
H22_4 H 0.1448 0.2587 0.1461
C23_4 C 0.2559(2) 0.2835(2) 0.16496(18)
H23_4 H 0.2569 0.2857 0.1264
C24_4 C 0.3199(2) 0.29736(16) 0.21124(15)
C25_4 C 0.3165(2) 0.29031(18) 0.26739(15)
H24_4 H 0.3590 0.2980 0.2997
C26_4 C 0.2488(2) 0.27153(18) 0.27508(16)
H25_4 H 0.2471 0.2673 0.3133
C27_4 C 0.3899(2) 0.32177(16) 0.20060(16)
C28_4 C 0.0830(3) 0.12862(17) 0.30122(18)
H26_4 H 0.1054 0.1492 0.3350
C29_4 C 0.0679(3) 0.07392(17) 0.30725(18)
H27_4 H 0.0799 0.0585 0.3446
C30_4 C 0.0355(2) 0.04188(15) 0.25941(16)
C31_4 C 0.0205(3) 0.06736(18) 0.20510(17)
C32_4 C 0.0373(3) 0.12300(17) 0.20239(17)
H29_4 H 0.0270 0.1395 0.1656
O30_2 O 0.65298(15) 0.35633(13) 0.34645(12)
O31_2 O 0.59224(15) 0.33354(12) 0.25592(11)
C33_4 C 0.0150(2) 0.98200(15) 0.26593(17)
I3_4 I 0.97357(2) 0.28075(2) 0.15545(2)
Cu3_4 Cu 0.97161(3) 0.28891(3) 0.25997(2)
O15_4 O 0.63046(14) 0.42681(13) 0.18848(12)
O16_4 O 0.62756(15) 0.44340(14) 0.09679(13)
O17_4 O 0.56067(15) 0.31140(11) 0.11796(11)
O18_4 O 0.55569(18) 0.32803(11) 0.02533(11)
N7_4 N 0.87002(18) 0.30195(16) 0.27253(13)
N8_4 N 0.90371(19) 0.42239(17) 0.19314(16)
N9_4 N 0.67233(16) 0.01741(13) 0.03643(13)
N10_4 N 0.55089(18) 0.12081(13) 0.03385(12)
H28_4 H 0.9993 0.0472 0.1708
C34_4 C 0.8654(2) 0.3217(2) 0.32343(18)
H30_4 H 0.9108 0.3283 0.3535
C35_4 C 0.7969(2) 0.3329(2) 0.33392(17)
H31_4 H 0.7964 0.3449 0.3707
C36_4 C 0.7288(2) 0.32572(17) 0.28850(16)
C37_4 C 0.7323(2) 0.30485(17) 0.23634(16)
H32_4 H 0.6877 0.2981 0.2055
C38_4 C 0.8038(2) 0.29390(18) 0.23039(16)
H33_4 H 0.8056 0.2800 0.1946
C39_4 C 0.6520(2) 0.33899(17) 0.29707(18)
C40_4 C 0.8724(2) 0.4373(2) 0.23531(19)
H34_4 H 0.9042 0.4448 0.2731
C41_4 C 0.7929(2) 0.44163(19) 0.22269(19)
H35_4 H 0.7718 0.4512 0.2520
C42_4 C 0.74637(19) 0.43158(16) 0.16674(15)
C43_4 C 0.7807(2) 0.41773(17) 0.12566(16)
H36_4 H 0.7505 0.4120 0.0870
C44_4 C 0.8597(2) 0.41201(19) 0.14040(17)
H37_4 H 0.8814 0.4005 0.1120
C45_4 C 0.5619(3) 0.14148(17) 0.08775(17)
H38_4 H 0.5674 0.1166 0.1184
C46_4 C 0.5657(3) 0.19745(17) 0.10078(16)
H39_4 H 0.5754 0.2095 0.1393
C47_4 C 0.5550(2) 0.23528(15) 0.05541(14)
C50_4 C 0.5579(2) 0.29705(15) 0.06775(16)
C52_4 C 0.7810(2) 0.0169(2) 0.00037(18)
C63_4 C 0.6600(2) 0.43317(16) 0.14935(17)
O19_4 O 0.64925(16) 0.40475(13) 0.97110(13)
O20_4 O 0.4618(2) 0.40365(16) 0.91609(15)
N11_4 N 0.3874(3) 0.4005(2) 0.8208(2)
N12_4 N 0.7472(2) 0.36243(18) 0.95033(19)
C48_4 C 0.5426(3) 0.21400(16) 0.99977(16)
H40_4 H 0.5360 0.2378 0.9681
C49_4 C 0.5400(2) 0.15785(16) 0.99098(17)
H41_4 H 0.5299 0.1449 0.9527
C51_4 C 0.7063(2) 0.0297(2) 0.99579(19)
H42_4 H 0.6773 0.0482 0.9622
H43_4 H 0.8019 0.0269 0.9710
C57_4 C 0.3467(4) 0.4331(3) 0.7682(3)
H46_4 H 0.2924 0.4310 0.7617
H47_4 H 0.3629 0.4711 0.7741
H48_4 H 0.3584 0.4185 0.7347
C58_4 C 0.3873(4) 0.3415(3) 0.8127(4)
H49_4 H 0.4219 0.3321 0.7911
H50_4 H 0.4035 0.3235 0.8503
H51_4 H 0.3364 0.3294 0.7911
C59_4 C 0.4260(3) 0.4262(2) 0.8694(2)
H52_4 H 0.4265 0.4647 0.8684
C60_4 C 0.7876(4) 0.4092(3) 0.9436(3)
H53_4 H 0.7954 0.4084 0.9057
H54_4 H 0.7589 0.4418 0.9466
H55_4 H 0.8364 0.4100 0.9737
C61_4 C 0.7796(4) 0.3111(3) 0.9345(4)
H56_4 H 0.7979 0.3181 0.9017
H57_4 H 0.8214 0.2988 0.9674
H58_4 H 0.7406 0.2831 0.9241
C62_4 C 0.6803(3) 0.3648(2) 0.96153(19)
H59_4 H 0.6554 0.3313 0.9618
C53_4 C 0.82337(19) 0.98914(17) 0.04897(16)
C54_4 C 0.7923(2) 0.9768(2) 0.09196(17)
H44_4 H 0.8207 0.9588 0.1261
C55_4 C 0.7168(2) 0.9920(2) 0.08334(17)
H45_4 H 0.6958 0.9835 0.1130
C56_4 C 0.90468(19) 0.97076(16) 0.05315(14)
loop_
_geom_bond_atom_site_label_1
_geom_bond_atom_site_label_2
_geom_bond_site_symmetry_1
_geom_bond_site_symmetry_2
O1 C9 1_555 1_555
O2 H1 1_555 1_555
H2 O2 1_555 1_555
O3 C9 1_555 1_555
N2 C2 1_555 1_555
C2 H4 1_555 1_555
C4 C2 1_555 1_555
H8 C4 1_555 1_555
C6 C4 1_555 1_555
C9 C6 1_555 1_555
H14 C10 1_555 1_555
C11 C10 1_555 1_555
H15 C11 1_555 1_555
Cu7 I1 1_555 1_555
Ca10 O1 1_555 1_555
Ca13 O1 1_555 1_555
O3 Ca10 1_555 1_555
N3 Cu1 1_555 1_555
H12 C7 1_555 1_555
H13 C8 1_555 1_555
O28 Ca1 1_555 1_555
O30 Ca1 1_555 1_555
O31 Ca1 1_555 1_555
O32 Ca1 1_555 1_555
C7 C8 1_555 1_555
Ca11 O31 1_555 1_555
N1 C1 1_555 1_555
C1 O10 1_555 1_555
H3 C1 1_555 1_555
C3 N1 1_555 1_555
H5 C3 1_555 1_555
H6 C3 1_555 1_555
H7 C3 1_555 1_555
C5 N1 1_555 1_555
H9 C5 1_555 1_555
H10 C5 1_555 1_555
H11 C5 1_555 1_555
I2 Cu3 1_555 1_555
I3 Cu3 1_555 1_555
I4 Cu5 1_555 1_555
Cu2 N5 1_555 1_555
Cu3 Cu4 1_555 1_555
Cu4 I2 1_555 1_555
Cu5 N9 1_555 1_555
Ca3 O16 1_555 1_555
O4 C15 1_555 1_555
O5 Ca2 1_555 1_555
O7 C27 1_555 1_555
O9 Ca2 1_555 1_555
O11 C33 1_555 1_555
O12 C33 1_555 1_555
O30 C39 1_555 1_555
O31 C39 1_555 1_555
O15 Ca11 1_555 1_555
O16 C63 1_555 1_555
O17 Ca11 1_555 1_555
O18 Ca3 1_555 1_555
O19 Ca3 1_555 1_555
O21 C56 1_555 1_555
O22 C56 1_555 1_555
N4 Cu4 1_555 1_555
N5 C16 1_555 1_555
N6 Cu4 1_555 1_555
N7 Cu3 1_555 1_555
N8 Cu2 1_555 1_555
N9 C51 1_555 1_555
N10 Cu5 1_555 1_555
N12 C60 1_555 1_555
C13 C12 1_555 1_555
H16 C13 1_555 1_555
H17 C14 1_555 1_555
C15 O5 1_555 1_555
C16 H18 1_555 1_555
C17 C16 1_555 1_555
H19 C17 1_555 1_555
C18 C17 1_555 1_555
C19 C18 1_555 1_555
H20 C19 1_555 1_555
C20 N5 1_555 1_555
H21 C20 1_555 1_555
C21 O8 1_555 1_555
C22 N4 1_555 1_555
H22 C22 1_555 1_555
C23 C22 1_555 1_555
H23 C23 1_555 1_555
C24 C23 1_555 1_555
C25 C24 1_555 1_555
H24 C25 1_555 1_555
C26 N4 1_555 1_555
H25 C26 1_555 1_555
C27 O6 1_555 1_555
C28 N6 1_555 1_555
H26 C28 1_555 1_555
C29 C28 1_555 1_555
H27 C29 1_555 1_555
C30 C29 1_555 1_555
C31 C30 1_555 1_555
H28 C31 1_555 1_555
C32 N6 1_555 1_555
H29 C32 1_555 1_555
C33 C30 1_555 1_555
C34 N7 1_555 1_555
H30 C34 1_555 1_555
C35 C34 1_555 1_555
H31 C35 1_555 1_555
C36 C35 1_555 1_555
C37 C36 1_555 1_555
H32 C37 1_555 1_555
C38 N7 1_555 1_555
H33 C38 1_555 1_555
C39 C36 1_555 1_555
C40 N8 1_555 1_555
H34 C40 1_555 1_555
C41 C40 1_555 1_555
H35 C41 1_555 1_555
C42 C41 1_555 1_555
C43 C42 1_555 1_555
H36 C43 1_555 1_555
C44 N8 1_555 1_555
H37 C44 1_555 1_555
C45 N10 1_555 1_555
H38 C45 1_555 1_555
C46 C45 1_555 1_555
H39 C46 1_555 1_555
C47 C46 1_555 1_555
C48 C47 1_555 1_555
H40 C48 1_555 1_555
C49 N10 1_555 1_555
H41 C49 1_555 1_555
C50 O17 1_555 1_555
C51 H42 1_555 1_555
C52 C51 1_555 1_555
H43 C52 1_555 1_555
C53 C52 1_555 1_555
C54 C53 1_555 1_555
H44 C54 1_555 1_555
C55 N9 1_555 1_555
H45 C55 1_555 1_555
C56 C53 1_555 1_555
C60 H53 1_555 1_555
H54 C60 1_555 1_555
H55 C60 1_555 1_555
C61 N12 1_555 1_555
H56 C61 1_555 1_555
H57 C61 1_555 1_555
H58 C61 1_555 1_555
C62 O19 1_555 1_555
H59 C62 1_555 1_555
C63 O15 1_555 1_555
I6 Cu2 1_555 1_555
Ca6 O11 1_555 1_555
Ca7 O21 1_555 1_555
Ca8 O22 1_555 1_555
Ca12 O12 1_555 1_555
I3 Cu4 1_555 1_555
O9 C21 1_555 1_555
O18 C50 1_555 1_555
O21 Ca6 1_555 1_555
O22 Ca7 1_555 1_555
N12 C62 1_555 1_555
C12 C15 1_555 1_555
C13 C14 1_555 1_555
C18 C21 1_555 1_555
C19 C20 1_555 1_555
C24 C27 1_555 1_555
C25 C26 1_555 1_555
C31 C32 1_555 1_555
C37 C38 1_555 1_555
C42 C63 1_555 1_555
C43 C44 1_555 1_555
C47 C50 1_555 1_555
C48 C49 1_555 1_555
C54 C55 1_555 1_555
N11 C57 1_555 1_555
C57 H46 1_555 1_555
H47 C57 1_555 1_555
H48 C57 1_555 1_555
C58 N11 1_555 1_555
H49 C58 1_555 1_555
H50 C58 1_555 1_555
H51 C58 1_555 1_555
C59 O20 1_555 1_555
H52 C59 1_555 1_555
N11 C59 1_555 1_555
I7 Cu8 1_555 1_555
O32 C56_2 1_555 1_555
O33 C56_2 1_555 1_555
C54_2 C53_2 1_555 1_555
H44_2 C54_2 1_555 1_555
H45_2 C55_2 1_555 1_555
C56_2 C53_2 1_555 1_555
C54_2 C55_2 1_555 1_555
N11_2 C57_2 1_555 1_555
N12_2 C60_2 1_555 1_555
H40_2 C48_2 1_555 1_555
H41_2 C49_2 1_555 1_555
C51_2 H42_2 1_555 1_555
C57_2 H46_2 1_555 1_555
H47_2 C57_2 1_555 1_555
H48_2 C57_2 1_555 1_555
C58_2 N11_2 1_555 1_555
H49_2 C58_2 1_555 1_555
H50_2 C58_2 1_555 1_555
H51_2 C58_2 1_555 1_555
C59_2 O20_2 1_555 1_555
H52_2 C59_2 1_555 1_555
C60_2 H53_2 1_555 1_555
H54_2 C60_2 1_555 1_555
H55_2 C60_2 1_555 1_555
C61_2 N12_2 1_555 1_555
H56_2 C61_2 1_555 1_555
H57_2 C61_2 1_555 1_555
H58_2 C61_2 1_555 1_555
C62_2 O19_2 1_555 1_555
H59_2 C62_2 1_555 1_555
N11_2 C59_2 1_555 1_555
N12_2 C62_2 1_555 1_555
C48_2 C49_2 1_555 1_555
I3_2 Cu3_2 1_555 1_555
Cu5_2 N9_2 1_555 1_555
Ca9 O16_2 1_555 1_555
Ca12 O14 1_555 1_555
O13 C39_2 1_555 1_555
O14 C39_2 1_555 1_555
O15_2 Ca12 1_555 1_555
O16_2 C63_2 1_555 1_555
O17_2 Ca12 1_555 1_555
O18_2 Ca9 1_555 1_555
N7_2 Cu3_2 1_555 1_555
N10_2 Cu5_2 1_555 1_555
C34_2 N7_2 1_555 1_555
H30_2 C34_2 1_555 1_555
C35_2 C34_2 1_555 1_555
H31_2 C35_2 1_555 1_555
C36_2 C35_2 1_555 1_555
C37_2 C36_2 1_555 1_555
H32_2 C37_2 1_555 1_555
C38_2 N7_2 1_555 1_555
H33_2 C38_2 1_555 1_555
C39_2 C36_2 1_555 1_555
C40_2 N8_2 1_555 1_555
H34_2 C40_2 1_555 1_555
C41_2 C40_2 1_555 1_555
H35_2 C41_2 1_555 1_555
C42_2 C41_2 1_555 1_555
C43_2 C42_2 1_555 1_555
H36_2 C43_2 1_555 1_555
C44_2 N8_2 1_555 1_555
H37_2 C44_2 1_555 1_555
C45_2 N10_2 1_555 1_555
H38_2 C45_2 1_555 1_555
C46_2 C45_2 1_555 1_555
H39_2 C46_2 1_555 1_555
C47_2 C46_2 1_555 1_555
C50_2 O17_2 1_555 1_555
C63_2 O15_2 1_555 1_555
Ca6 O13 1_555 1_555
O23_2 Ca9 1_555 1_555
O25_2 Ca9 1_555 1_555
O26 Ca12 1_555 1_555
O27 Ca12 1_555 1_555
Ca12 O23_2 1_555 1_555
O14 Ca6 1_555 1_555
O18_2 C50_2 1_555 1_555
C37_2 C38_2 1_555 1_555
C42_2 C63_2 1_555 1_555
C43_2 C44_2 1_555 1_555
C47_2 C50_2 1_555 1_555
Ca6 O26 1_555 1_555
O29 C33_2 1_555 1_555
I6 Cu6_2 1_555 1_555
I1_2 Cu1_2 1_555 1_555
Cu1_2 N2_2 1_555 1_555
Cu2_2 N5_2 1_555 1_555
Cu4_2 I2_2 1_555 1_555
Ca6 O4_2 1_555 1_555
Ca7 O2_2 1_555 1_555
O1_2 C9_2 1_555 1_555
O2_2 H1_2 1_555 1_555
H2_2 O2_2 1_555 1_555
O24 C9_2 1_555 1_555
O4_2 C15_2 1_555 1_555
O5_2 Ca7 1_555 1_555
O27 C27_2 1_555 1_555
O8_2 Ca6 1_555 1_555
O9_2 Ca7 1_555 1_555
O10_2 Ca7 1_555 1_555
N1_2 C1_2 1_555 1_555
N2_2 C2_2 1_555 1_555
N3_2 Cu1_2 1_555 1_555
N4_2 Cu4_2 1_555 1_555
N5_2 C16_2 1_555 1_555
N6_2 Cu4_2 1_555 1_555
C1_2 O10_2 1_555 1_555
H3_2 C1_2 1_555 1_555
C2_2 H4_2 1_555 1_555
C3_2 N1_2 1_555 1_555
H5_2 C3_2 1_555 1_555
H6_2 C3_2 1_555 1_555
H7_2 C3_2 1_555 1_555
C4_2 C2_2 1_555 1_555
H8_2 C4_2 1_555 1_555
C5_2 N1_2 1_555 1_555
H9_2 C5_2 1_555 1_555
H10_2 C5_2 1_555 1_555
H11_2 C5_2 1_555 1_555
C6_2 C4_2 1_555 1_555
C7_2 C6_2 1_555 1_555
H12_2 C7_2 1_555 1_555
C8_2 N2_2 1_555 1_555
H13_2 C8_2 1_555 1_555
C9_2 C6_2 1_555 1_555
C10_2 N3_2 1_555 1_555
H14_2 C10_2 1_555 1_555
C11_2 C10_2 1_555 1_555
H15_2 C11_2 1_555 1_555
C12_2 C11_2 1_555 1_555
C13_2 C12_2 1_555 1_555
H16_2 C13_2 1_555 1_555
C14_2 N3_2 1_555 1_555
H17_2 C14_2 1_555 1_555
C15_2 O5_2 1_555 1_555
C16_2 H18_2 1_555 1_555
C17_2 C16_2 1_555 1_555
H19_2 C17_2 1_555 1_555
C18_2 C17_2 1_555 1_555
C19_2 C18_2 1_555 1_555
H20_2 C19_2 1_555 1_555
C20_2 N5_2 1_555 1_555
H21_2 C20_2 1_555 1_555
C21_2 O8_2 1_555 1_555
C22_2 N4_2 1_555 1_555
H22_2 C22_2 1_555 1_555
C23_2 C22_2 1_555 1_555
H23_2 C23_2 1_555 1_555
C24_2 C23_2 1_555 1_555
C25_2 C24_2 1_555 1_555
H24_2 C25_2 1_555 1_555
C26_2 N4_2 1_555 1_555
H25_2 C26_2 1_555 1_555
C27_2 O26 1_555 1_555
C28_2 N6_2 1_555 1_555
H26_2 C28_2 1_555 1_555
C29_2 C28_2 1_555 1_555
H27_2 C29_2 1_555 1_555
C30_2 C29_2 1_555 1_555
C31_2 C30_2 1_555 1_555
C32_2 N6_2 1_555 1_555
H29_2 C32_2 1_555 1_555
I5 Cu2_2 1_555 1_555
Cu7_2 I1_2 1_555 1_555
O34_2 Ca7 1_555 1_555
O9_2 C21_2 1_555 1_555
C7_2 C8_2 1_555 1_555
C12_2 C15_2 1_555 1_555
C13_2 C14_2 1_555 1_555
C18_2 C21_2 1_555 1_555
C19_2 C20_2 1_555 1_555
C24_2 C27_2 1_555 1_555
C25_2 C26_2 1_555 1_555
C31_2 C32_2 1_555 1_555
N11_3 C57_3 1_555 1_555
C57_3 H46_3 1_555 1_555
H47_3 C57_3 1_555 1_555
H48_3 C57_3 1_555 1_555
C58_3 N11_3 1_555 1_555
H49_3 C58_3 1_555 1_555
H50_3 C58_3 1_555 1_555
H51_3 C58_3 1_555 1_555
C59_3 O20_3 1_555 1_555
H52_3 C59_3 1_555 1_555
N11_3 C59_3 1_555 1_555
I2_3 Cu3_3 1_555 1_555
I3_3 Cu3_3 1_555 1_555
Cu7_2 N5_3 1_555 1_555
Cu3_3 Cu4_3 1_555 1_555
Cu4_3 I2_3 1_555 1_555
Cu8 N9_3 1_555 1_555
Ca10_2 O16_3 1_555 1_555
Ca13_2 O14_2 1_555 1_555
O4_3 C15_3 1_555 1_555
O5_3 Ca8_2 1_555 1_555
O27_2 C27_3 1_555 1_555
O9_3 Ca8_2 1_555 1_555
O11_2 C33_3 1_555 1_555
O12_2 C33_3 1_555 1_555
O13_2 C39_3 1_555 1_555
O14_2 C39_3 1_555 1_555
O15_3 Ca13_2 1_555 1_555
O16_3 C63_3 1_555 1_555
O17_3 Ca13_2 1_555 1_555
O18_3 Ca10_2 1_555 1_555
O19_3 Ca10_2 1_555 1_555
O21_2 C56_3 1_555 1_555
O34_2 C56_3 1_555 1_555
N4_3 Cu4_3 1_555 1_555
N5_3 C16_3 1_555 1_555
N6_3 Cu4_3 1_555 1_555
N7_3 Cu3_3 1_555 1_555
N8_3 Cu7_2 1_555 1_555
N9_3 C51_3 1_555 1_555
N10_3 Cu8 1_555 1_555
N12_3 C60_3 1_555 1_555
C13_3 C12_3 1_555 1_555
H16_3 C13_3 1_555 1_555
H17_3 C14_3 1_555 1_555
C15_3 O5_3 1_555 1_555
C16_3 H18_3 1_555 1_555
C17_3 C16_3 1_555 1_555
H19_3 C17_3 1_555 1_555
C18_3 C17_3 1_555 1_555
C19_3 C18_3 1_555 1_555
H20_3 C19_3 1_555 1_555
C20_3 N5_3 1_555 1_555
H21_3 C20_3 1_555 1_555
C21_3 O8_3 1_555 1_555
C22_3 N4_3 1_555 1_555
H22_3 C22_3 1_555 1_555
C23_3 C22_3 1_555 1_555
H23_3 C23_3 1_555 1_555
C24_3 C23_3 1_555 1_555
C25_3 C24_3 1_555 1_555
H24_3 C25_3 1_555 1_555
C26_3 N4_3 1_555 1_555
H25_3 C26_3 1_555 1_555
C27_3 O26_2 1_555 1_555
C28_3 N6_3 1_555 1_555
H26_3 C28_3 1_555 1_555
C29_3 C28_3 1_555 1_555
H27_3 C29_3 1_555 1_555
C30_3 C29_3 1_555 1_555
C31_3 C30_3 1_555 1_555
H28_3 C31_3 1_555 1_555
C32_3 N6_3 1_555 1_555
H29_3 C32_3 1_555 1_555
C33_3 C30_3 1_555 1_555
C34_3 N7_3 1_555 1_555
H30_3 C34_3 1_555 1_555
C35_3 C34_3 1_555 1_555
H31_3 C35_3 1_555 1_555
C36_3 C35_3 1_555 1_555
C37_3 C36_3 1_555 1_555
H32_3 C37_3 1_555 1_555
C38_3 N7_3 1_555 1_555
H33_3 C38_3 1_555 1_555
C39_3 C36_3 1_555 1_555
C40_3 N8_3 1_555 1_555
H34_3 C40_3 1_555 1_555
C41_3 C40_3 1_555 1_555
H35_3 C41_3 1_555 1_555
C42_3 C41_3 1_555 1_555
C43_3 C42_3 1_555 1_555
H36_3 C43_3 1_555 1_555
C44_3 N8_3 1_555 1_555
H37_3 C44_3 1_555 1_555
C45_3 N10_3 1_555 1_555
H38_3 C45_3 1_555 1_555
C46_3 C45_3 1_555 1_555
H39_3 C46_3 1_555 1_555
C47_3 C46_3 1_555 1_555
C48_3 C47_3 1_555 1_555
H40_3 C48_3 1_555 1_555
C49_3 N10_3 1_555 1_555
H41_3 C49_3 1_555 1_555
C50_3 O17_3 1_555 1_555
C51_3 H42_3 1_555 1_555
C52_3 C51_3 1_555 1_555
H43_3 C52_3 1_555 1_555
C53_3 C52_3 1_555 1_555
C54_3 C53_3 1_555 1_555
H44_3 C54_3 1_555 1_555
C55_3 N9_3 1_555 1_555
H45_3 C55_3 1_555 1_555
C56_3 C53_3 1_555 1_555
C60_3 H53_3 1_555 1_555
H54_3 C60_3 1_555 1_555
H55_3 C60_3 1_555 1_555
C61_3 N12_3 1_555 1_555
H56_3 C61_3 1_555 1_555
H57_3 C61_3 1_555 1_555
H58_3 C61_3 1_555 1_555
C62_3 O19_3 1_555 1_555
H59_3 C62_3 1_555 1_555
C63_3 O15_3 1_555 1_555
Ca5 O13_2 1_555 1_555
Ca6_2 O11_2 1_555 1_555
Ca8 O21_2 1_555 1_555
Ca13 O12_2 1_555 1_555
I3_3 Cu4_3 1_555 1_555
O9_3 C21_3 1_555 1_555
O14_2 Ca5 1_555 1_555
O18_3 C50_3 1_555 1_555
O21_2 Ca6_2 1_555 1_555
O34_2 Ca8 1_555 1_555
N12_3 C62_3 1_555 1_555
C12_3 C15_3 1_555 1_555
C13_3 C14_3 1_555 1_555
C18_3 C21_3 1_555 1_555
C19_3 C20_3 1_555 1_555
C24_3 C27_3 1_555 1_555
C25_3 C26_3 1_555 1_555
C31_3 C32_3 1_555 1_555
C37_3 C38_3 1_555 1_555
C42_3 C63_3 1_555 1_555
C43_3 C44_3 1_555 1_555
C47_3 C50_3 1_555 1_555
C48_3 C49_3 1_555 1_555
C54_3 C55_3 1_555 1_555
N1_3 C1_3 1_555 1_555
C1_3 O10_3 1_555 1_555
H3_3 C1_3 1_555 1_555
C3_3 N1_3 1_555 1_555
H5_3 C3_3 1_555 1_555
H6_3 C3_3 1_555 1_555
H7_3 C3_3 1_555 1_555
C5_3 N1_3 1_555 1_555
H9_3 C5_3 1_555 1_555
H10_3 C5_3 1_555 1_555
H11_3 C5_3 1_555 1_555
N3_3 Cu6 1_555 1_555
H12_3 C7_3 1_555 1_555
H13_3 C8_3 1_555 1_555
O28_2 Ca5 1_555 1_555
O32_2 Ca5 1_555 1_555
C7_3 C8_3 1_555 1_555
O23_2 C9_3 1_555 1_555
O2_3 H1_3 1_555 1_555
H2_3 O2_3 1_555 1_555
O25_2 C9_3 1_555 1_555
N2_3 C2_3 1_555 1_555
C2_3 H4_3 1_555 1_555
C4_3 C2_3 1_555 1_555
H8_3 C4_3 1_555 1_555
C6_3 C4_3 1_555 1_555
C9_3 C6_3 1_555 1_555
H14_3 C10_3 1_555 1_555
C11_3 C10_3 1_555 1_555
H15_3 C11_3 1_555 1_555
Cu6_2 N2_4 1_555 1_555
Cu7 N5_4 1_555 1_555
Cu4_4 I2_4 1_555 1_555
Ca6_2 O4_4 1_555 1_555
Ca8 O2_4 1_555 1_555
O23 C9_4 1_555 1_555
O2_4 H1_4 1_555 1_555
H2_4 O2_4 1_555 1_555
O25 C9_4 1_555 1_555
O4_4 C15_4 1_555 1_555
O5_4 Ca8 1_555 1_555
O6_2 Ca6_2 1_555 1_555
O7_2 C27_4 1_555 1_555
O8_4 Ca6_2 1_555 1_555
O9_4 Ca8 1_555 1_555
O10_4 Ca8 1_555 1_555
N1_4 C1_4 1_555 1_555
N2_4 C2_4 1_555 1_555
N3_4 Cu6_2 1_555 1_555
N4_4 Cu4_4 1_555 1_555
N5_4 C16_4 1_555 1_555
N6_4 Cu4_4 1_555 1_555
C1_4 O10_4 1_555 1_555
H3_4 C1_4 1_555 1_555
C2_4 H4_4 1_555 1_555
C3_4 N1_4 1_555 1_555
H5_4 C3_4 1_555 1_555
H6_4 C3_4 1_555 1_555
H7_4 C3_4 1_555 1_555
C4_4 C2_4 1_555 1_555
H8_4 C4_4 1_555 1_555
C5_4 N1_4 1_555 1_555
H9_4 C5_4 1_555 1_555
H10_4 C5_4 1_555 1_555
H11_4 C5_4 1_555 1_555
C6_4 C4_4 1_555 1_555
C7_4 C6_4 1_555 1_555
H12_4 C7_4 1_555 1_555
C8_4 N2_4 1_555 1_555
H13_4 C8_4 1_555 1_555
C9_4 C6_4 1_555 1_555
C10_4 N3_4 1_555 1_555
H14_4 C10_4 1_555 1_555
C11_4 C10_4 1_555 1_555
H15_4 C11_4 1_555 1_555
C12_4 C11_4 1_555 1_555
C13_4 C12_4 1_555 1_555
H16_4 C13_4 1_555 1_555
C14_4 N3_4 1_555 1_555
H17_4 C14_4 1_555 1_555
C15_4 O5_4 1_555 1_555
C16_4 H18_4 1_555 1_555
C17_4 C16_4 1_555 1_555
H19_4 C17_4 1_555 1_555
C18_4 C17_4 1_555 1_555
C19_4 C18_4 1_555 1_555
H20_4 C19_4 1_555 1_555
C20_4 N5_4 1_555 1_555
H21_4 C20_4 1_555 1_555
C21_4 O8_4 1_555 1_555
C22_4 N4_4 1_555 1_555
H22_4 C22_4 1_555 1_555
C23_4 C22_4 1_555 1_555
H23_4 C23_4 1_555 1_555
C24_4 C23_4 1_555 1_555
C25_4 C24_4 1_555 1_555
H24_4 C25_4 1_555 1_555
C26_4 N4_4 1_555 1_555
H25_4 C26_4 1_555 1_555
C27_4 O6_2 1_555 1_555
C28_4 N6_4 1_555 1_555
H26_4 C28_4 1_555 1_555
C29_4 C28_4 1_555 1_555
H27_4 C29_4 1_555 1_555
C30_4 C29_4 1_555 1_555
C31_4 C30_4 1_555 1_555
C32_4 N6_4 1_555 1_555
H29_4 C32_4 1_555 1_555
Ca13 O6_2 1_555 1_555
O30_2 Ca6_2 1_555 1_555
O31_2 Ca6_2 1_555 1_555
O7_2 Ca13 1_555 1_555
O9_4 C21_4 1_555 1_555
C7_4 C8_4 1_555 1_555
C12_4 C15_4 1_555 1_555
C13_4 C14_4 1_555 1_555
C18_4 C21_4 1_555 1_555
C19_4 C20_4 1_555 1_555
C24_4 C27_4 1_555 1_555
C25_4 C26_4 1_555 1_555
C31_4 C32_4 1_555 1_555
Ca13 O31_2 1_555 1_555
O29_2 C33_4 1_555 1_555
I3_4 Cu3_4 1_555 1_555
Cu8_2 N9_4 1_555 1_555
Ca10 O16_4 1_555 1_555
O30_2 C39_4 1_555 1_555
O31_2 C39_4 1_555 1_555
O15_4 Ca13 1_555 1_555
O16_4 C63_4 1_555 1_555
O17_4 Ca13 1_555 1_555
O18_4 Ca10 1_555 1_555
N7_4 Cu3_4 1_555 1_555
N10_4 Cu8_2 1_555 1_555
C34_4 N7_4 1_555 1_555
H30_4 C34_4 1_555 1_555
C35_4 C34_4 1_555 1_555
H31_4 C35_4 1_555 1_555
C36_4 C35_4 1_555 1_555
C37_4 C36_4 1_555 1_555
H32_4 C37_4 1_555 1_555
C38_4 N7_4 1_555 1_555
H33_4 C38_4 1_555 1_555
C39_4 C36_4 1_555 1_555
C40_4 N8_4 1_555 1_555
H34_4 C40_4 1_555 1_555
C41_4 C40_4 1_555 1_555
H35_4 C41_4 1_555 1_555
C42_4 C41_4 1_555 1_555
C43_4 C42_4 1_555 1_555
H36_4 C43_4 1_555 1_555
C44_4 N8_4 1_555 1_555
H37_4 C44_4 1_555 1_555
C45_4 N10_4 1_555 1_555
H38_4 C45_4 1_555 1_555
C46_4 C45_4 1_555 1_555
H39_4 C46_4 1_555 1_555
C47_4 C46_4 1_555 1_555
C50_4 O17_4 1_555 1_555
C63_4 O15_4 1_555 1_555
O18_4 C50_4 1_555 1_555
C37_4 C38_4 1_555 1_555
C42_4 C63_4 1_555 1_555
C43_4 C44_4 1_555 1_555
C47_4 C50_4 1_555 1_555
N11_4 C57_4 1_555 1_555
N12_4 C60_4 1_555 1_555
H40_4 C48_4 1_555 1_555
H41_4 C49_4 1_555 1_555
C51_4 H42_4 1_555 1_555
C57_4 H46_4 1_555 1_555
H47_4 C57_4 1_555 1_555
H48_4 C57_4 1_555 1_555
C58_4 N11_4 1_555 1_555
H49_4 C58_4 1_555 1_555
H50_4 C58_4 1_555 1_555
H51_4 C58_4 1_555 1_555
C59_4 O20_4 1_555 1_555
H52_4 C59_4 1_555 1_555
C60_4 H53_4 1_555 1_555
H54_4 C60_4 1_555 1_555
H55_4 C60_4 1_555 1_555
C61_4 N12_4 1_555 1_555
H56_4 C61_4 1_555 1_555
H57_4 C61_4 1_555 1_555
H58_4 C61_4 1_555 1_555
C62_4 O19_4 1_555 1_555
H59_4 C62_4 1_555 1_555
N11_4 C59_4 1_555 1_555
N12_4 C62_4 1_555 1_555
C48_4 C49_4 1_555 1_555
O32_2 C56_4 1_555 1_555
O34 C56_4 1_555 1_555
C54_4 C53_4 1_555 1_555
H44_4 C54_4 1_555 1_555
H45_4 C55_4 1_555 1_555
C56_4 C53_4 1_555 1_555
C54_4 C55_4 1_555 1_555

#END
