
###############################################################################
#
# This file contains modified crystal structure data generated from the
# MOF subset of the Cambridge Structural Database (CSD) v543 
# hosted by the Cambridge Crystallographic Data Centre (CCDC).
#
# This work is licensed under the Creative Commons
# Attribution-NonCommercial-ShareAlike 4.0 International License.
# To view a copy of this license, visit
# http://creativecommons.org/licenses/by-nc-sa/4.0/
# or send a letter to
# Creative Commons, PO Box 1866, Mountain View, CA 94042, USA.
#
# CIF created using the CSD Python API on 29 September 2022
# The structure has been converted into the P1 space group
# The structure has a 3D framework
# The original CSD entry YUTVOB is in the triclinic crystal system
# The framework has been calculated to contain at least 10.0% void space
# The void calculation uses a probe of radius 1.32A, grid spacing 0.4
# The framework is charged, counterions have been retained in the structure
#
###############################################################################

data_YUTVOB
_chemical_formula_moiety         '(C34 H14 Cd4 N2 O16 1-)n'
_symmetry_cell_setting           triclinic
_symmetry_space_group_name_H-M   'P 1'
_symmetry_Int_Tables_number      1
_space_group_name_Hall           'P 1'
loop_
_symmetry_equiv_pos_site_id
_symmetry_equiv_pos_as_xyz
1 x,y,z
_cell_length_a                   9.9510(11)
_cell_length_b                   10.3190(12)
_cell_length_c                   12.6140(13)
_cell_angle_alpha                68.753(4)
_cell_angle_beta                 73.032(5)
_cell_angle_gamma                83.923(5)
_cell_volume                     1154.66
loop_
_atom_site_label
_atom_site_type_symbol
_atom_site_fract_x
_atom_site_fract_y
_atom_site_fract_z
C13 C 0.0397(8) 0.1299(8) 0.0738(7)
H5 H 0.101126 0.106431 0.121053
Cd7 Cd 0.500000 0.000000 0.000000
O2 O 0.3238(6) 0.1577(8) 0.9699(7)
C1 C 0.0910(7) 0.1843(7) 0.9529(7)
O3 O 0.2937(6) 0.2557(7) 0.7908(6)
H1 H 0.034374 0.263656 0.799896
C16 C 0.2464(8) 0.2003(9) 0.9011(8)
Cd7_2 Cd 0.500000 0.000000 1.000000
Cd10 Cd 0.52561(5) 0.30213(5) 0.75472(4)
Cd7_3 Cd 0.500000 1.000000 0.000000
Cd7_4 Cd 0.500000 1.000000 1.000000
C3 C 0.6692(10) 0.0014(9) 0.5132(9)
H2 H 0.695337 0.094605 0.481092
C4 C 0.8051(7) 0.1450(7) 0.0544(7)
H3 H 0.709210 0.129307 0.088921
O8 O 0.9201(8) 0.0987(8) 0.3165(6)
O9 O 0.6043(6) 0.1587(6) 0.6598(6)
C10 C 0.5780(8) 0.0296(8) 0.7132(8)
C11 C 0.8521(9) 0.0612(10) 0.2596(7)
C12 C 0.8961(8) 0.1098(8) 0.1254(7)
O24 O 0.4741(6) 0.0275(7) 0.1782(5)
O1 O 0.7979(7) 0.3159(7) 0.7514(6)
C2 C 0.9993(7) 0.2238(7) 0.8815(7)
O7 O 0.6283(5) 0.2029(6) 0.9064(5)
C5 C 0.7561(8) 0.2433(7) 0.8570(6)
C6 C 0.8556(7) 0.2036(7) 0.9322(7)
O14 O 0.5009(7) 0.4771(6) 0.2352(6)
O15 O 0.4077(7) 0.4972(6) 0.4068(5)
C24 C 0.3923(8) 0.0575(8) 0.3658(7)
C25 C 0.4042(9) 0.2725(8) 0.3942(7)
C26 C 0.4295(8) 0.1960(7) 0.3199(7)
H11 H 0.471478 0.237879 0.239401
C31 C 0.4410(8) 0.4244(8) 0.3426(7)
C32 C 0.3428(10) 0.2139(8) 0.5133(7)
H13 H 0.325448 0.267796 0.561048
N2 N 0.2528(9) 0.0227(8) 0.6911(7)
H14 H 0.291205 0.047248 0.733790
C34 C 0.3071(11) 0.0768(9) 0.5617(9)
Cd13 Cd 0.47439(5) 0.69787(5) 0.24528(4)
O25 O 0.4991(7) 0.5229(6) 0.7648(6)
O27 O 0.5923(7) 0.5028(6) 0.5932(5)
O4 O 0.5259(6) 0.9725(7) 0.8218(5)
C7 C 0.6077(8) 0.9425(8) 0.6342(7)
C8 C 0.5958(9) 0.7275(8) 0.6058(7)
C9 C 0.5705(8) 0.8040(7) 0.6801(7)
H4 H 0.528522 0.762121 0.760599
C14 C 0.5590(8) 0.5756(8) 0.6574(7)
C15 C 0.6572(10) 0.7861(8) 0.4867(7)
H6 H 0.674552 0.732204 0.438952
N1 N 0.7472(9) 0.9773(8) 0.3089(7)
H7 H 0.708795 0.952752 0.266210
C17 C 0.6929(11) 0.9232(9) 0.4383(9)
O10 O 0.2021(7) 0.6841(7) 0.2486(6)
C19 C 0.0007(7) 0.7762(7) 0.1185(7)
O16 O 0.3717(5) 0.7971(6) 0.0936(5)
C22 C 0.2439(8) 0.7567(7) 0.1430(6)
C23 C 0.1444(7) 0.7964(7) 0.0678(7)
O20 O 0.6762(6) 0.8423(8) 0.0301(7)
O22 O 0.7063(6) 0.7443(7) 0.2092(6)
O30 O 0.3957(6) 0.8413(6) 0.3402(6)
C20 C 0.3308(10) 0.9986(9) 0.4868(9)
H9 H 0.304663 0.905395 0.518908
C21 C 0.1949(7) 0.8550(7) 0.9456(7)
H10 H 0.290790 0.870693 0.911079
O17 O 0.0799(8) 0.9013(8) 0.6835(6)
C27 C 0.4220(8) 0.9704(8) 0.2868(8)
C28 C 0.1479(9) 0.9388(10) 0.7404(7)
C29 C 0.1039(8) 0.8902(8) 0.8746(7)
C18 C 0.9090(7) 0.8157(7) 0.0471(7)
H8 H 0.965626 0.736344 0.200104
C33 C 0.7536(8) 0.7997(9) 0.0989(8)
C30 C 0.9603(8) 0.8701(8) 0.9262(7)
H12 H 0.898874 0.893569 0.878947
loop_
_geom_bond_atom_site_label_1
_geom_bond_atom_site_label_2
_geom_bond_site_symmetry_1
_geom_bond_site_symmetry_2
H5 C13 1_555 1_555
O2 C16 1_555 1_555
O3 C16 1_555 1_555
C16 C1 1_555 1_555
Cd7_2 O2 1_555 1_555
Cd10 O3 1_555 1_555
C3 H2 1_555 1_555
C4 H3 1_555 1_555
O8 C11 1_555 1_555
O9 C10 1_555 1_555
C11 C12 1_555 1_555
C12 C4 1_555 1_555
Cd10 O9 1_555 1_555
O24 Cd7 1_555 1_555
Cd7_2 O7 1_555 1_555
Cd10 O1 1_555 1_555
O1 C5 1_555 1_555
O7 Cd10 1_555 1_555
C5 O7 1_555 1_555
C6 C2 1_555 1_555
O14 C31 1_555 1_555
O15 C31 1_555 1_555
C25 C26 1_555 1_555
C26 C24 1_555 1_555
H11 C26 1_555 1_555
C31 C25 1_555 1_555
C32 C25 1_555 1_555
H13 C32 1_555 1_555
H14 N2 1_555 1_555
Cd13 O14 1_555 1_555
O25 Cd10 1_555 1_555
O27 Cd10 1_555 1_555
C5 C6 1_555 1_555
O15 Cd13 1_555 1_555
C32 C34 1_555 1_555
N2 C34 1_555 1_555
O25 C14 1_555 1_555
O27 C14 1_555 1_555
C8 C9 1_555 1_555
C9 C7 1_555 1_555
H4 C9 1_555 1_555
C14 C8 1_555 1_555
C15 C8 1_555 1_555
H6 C15 1_555 1_555
H7 N1 1_555 1_555
Cd13 O10 1_555 1_555
O10 C22 1_555 1_555
O16 Cd7_3 1_555 1_555
C22 O16 1_555 1_555
C23 C19 1_555 1_555
Cd7_4 O4 1_555 1_555
O20 Cd7_3 1_555 1_555
O22 Cd13 1_555 1_555
O30 Cd13 1_555 1_555
C15 C17 1_555 1_555
N1 C17 1_555 1_555
Cd13 O16 1_555 1_555
C22 C23 1_555 1_555
C20 H9 1_555 1_555
C21 H10 1_555 1_555
O17 C28 1_555 1_555
O30 C27 1_555 1_555
C28 C29 1_555 1_555
C29 C21 1_555 1_555
O20 C33 1_555 1_555
O22 C33 1_555 1_555
C33 C18 1_555 1_555
H12 C30 1_555 1_555

#END
