
###############################################################################
#
# This file contains modified crystal structure data generated from the
# MOF subset of the Cambridge Structural Database (CSD) v543 
# hosted by the Cambridge Crystallographic Data Centre (CCDC).
#
# This work is licensed under the Creative Commons
# Attribution-NonCommercial-ShareAlike 4.0 International License.
# To view a copy of this license, visit
# http://creativecommons.org/licenses/by-nc-sa/4.0/
# or send a letter to
# Creative Commons, PO Box 1866, Mountain View, CA 94042, USA.
#
# CIF created using the CSD Python API on 29 September 2022
# The structure has been converted into the P1 space group
# The structure has a 3D framework
# The original CSD entry YUVMIO is in the orthorhombic crystal system
# The framework has been calculated to contain at least 10.0% void space
# The void calculation uses a probe of radius 1.32A, grid spacing 0.4
# The framework is charged, counterions have been retained in the structure
# H atom positions have been added when not included in the experimental data
# Generated hydrogen atom positions removed from atoms on special positions
#
###############################################################################

data_YUVMIO
_chemical_formula_moiety         '(C512 H592 Cl20 Cu116 O388 16+)n'
_symmetry_cell_setting           triclinic
_symmetry_space_group_name_H-M   'P 1'
_symmetry_Int_Tables_number      1
_space_group_name_Hall           'P 1'
loop_
_symmetry_equiv_pos_site_id
_symmetry_equiv_pos_as_xyz
1 x,y,z
_cell_length_a                   26.5456(16)
_cell_length_b                   44.633(3)
_cell_length_c                   26.5717(16)
_cell_angle_alpha                90
_cell_angle_beta                 90
_cell_angle_gamma                90
_cell_volume                     31482.4
loop_
_atom_site_label
_atom_site_type_symbol
_atom_site_fract_x
_atom_site_fract_y
_atom_site_fract_z
Cu1 Cu 0.5000 0.22442(4) 0.28227(7)
Cl1 Cl 0.5000 0.0000 0.2751(3)
O1 O 0.5000 0.1886(2) 0.3382(4)
Cu2 Cu 0.5000 0.26931(3) 0.21672(7)
Cl2 Cl 0.7612 0.5000 0.4758
O2 O 0.5000 0.30412(19) 0.1630(4)
Cu3 Cu 0.21654(7) 0.22814(4) 0.0000
O3 O 0.1657(5) 0.1883(3) 0.0000
O4 O 0.5000 0.0707(2) 0.2953(5)
Cu4 Cu 0.27423(10) 0.0000 0.28130(10)
Cu5 Cu 0.5000 0.05047(4) 0.23059(9)
O5 O 0.4437(7) 0.0000 0.0761(6)
Cu6 Cu 0.44361(8) 0.0000 0.16601(9)
Cu7 Cu 0.78192(7) 0.27251(4) 0.5000
Cu8 Cu 0.65860(9) 0.5000 0.44336(8)
O7 O 0.6621(4) 0.4712(2) 0.5000
Cu9 Cu 0.70441(9) 0.5000 0.20847(10)
O8 O 0.6491(6) 0.5000 0.1464(5)
O9 O 0.8337(5) 0.3120(3) 0.5000
O10 O 0.5716(4) 0.5000 0.4484(5)
O11 O 0.3192(5) 0.0000 0.3512(5)
Cu10 Cu 0.72443(8) 0.45014(4) 0.5000
O12 O 0.7907(4) 0.4286(3) 0.5000
C1 C 0.3974(5) 0.0566(2) 0.1953(5)
C2 C 0.3554(4) 0.0778(2) 0.1812(5)
C3 C 0.3684(4) 0.1078(2) 0.1708(5)
H1 H 0.4029 0.1135 0.1713
C4 C 0.3323(4) 0.12913(18) 0.1599(5)
C5 C 0.2831(5) 0.1212(2) 0.1562(5)
H2 H 0.2585 0.1355 0.1464
C6 C 0.2687(5) 0.0913(2) 0.1673(5)
H3 H 0.2343 0.0856 0.1655
C7 C 0.3055(5) 0.07016(19) 0.1807(5)
C8 C 0.2864(5) 0.0407(2) 0.2019(6)
C9 C 0.3452(4) 0.16061(15) 0.1495(4)
C10 C 0.3183(4) 0.1771(2) 0.1147(4)
H4 H 0.2920 0.1676 0.0963
C11 C 0.3285(4) 0.2068(2) 0.1059(4)
C12 C 0.3690(4) 0.22041(15) 0.1316(4)
H5 H 0.3784 0.2404 0.1238
C13 C 0.3945(4) 0.2050(2) 0.1670(4)
C14 C 0.3843(4) 0.1748(2) 0.1759(4)
H6 H 0.4037 0.1639 0.1996
C15 C 0.4345(4) 0.2206(2) 0.1968(4)
C16 C 0.2980(4) 0.2228(2) 0.0677(4)
O13 O 0.4303(3) 0.06384(14) 0.2224(3)
O14 O 0.3925(3) 0.03175(14) 0.1715(3)
O15 O 0.3061(4) 0.03083(16) 0.2429(4)
O16 O 0.2466(3) 0.03068(18) 0.1797(4)
O17 O 0.4499(3) 0.20742(14) 0.2369(3)
O18 O 0.4487(3) 0.24482(14) 0.1818(3)
O19 O 0.2601(3) 0.21150(15) 0.0517(3)
O20 O 0.3161(3) 0.24897(16) 0.0524(3)
C17 C 0.6925(5) 0.4587(2) 0.2869(4)
C18 C 0.6732(5) 0.4287(2) 0.3055(4)
C19 C 0.6604(5) 0.4079(2) 0.2679(5)
H7 H 0.6575 0.4136 0.2336
C20 C 0.6522(5) 0.3781(2) 0.2833(5)
H8 H 0.6449 0.3633 0.2587
C21 C 0.6545(5) 0.36956(17) 0.3350(4)
C22 C 0.6656(5) 0.39048(19) 0.3708(4)
H9 H 0.6663 0.3851 0.4054
C23 C 0.6761(5) 0.4202(2) 0.3560(4)
C24 C 0.6835(5) 0.4436(2) 0.3970(5)
C25 C 0.6469(3) 0.33688(7) 0.3486(3)
C26 C 0.6106(3) 0.32077(13) 0.3223(3)
H10 H 0.5908 0.3304 0.2973
C27 C 0.6033(3) 0.29054(13) 0.3326(3)
C28 C 0.6323(3) 0.27643(7) 0.3691(3)
H11 H 0.6273 0.2558 0.3762
C29 C 0.6686(3) 0.29254(15) 0.3954(3)
C30 C 0.6759(3) 0.32277(14) 0.3851(3)
H12 H 0.7007 0.3338 0.4031
C31 C 0.5643(4) 0.2736(2) 0.3025(5)
C32 C 0.7006(5) 0.2773(2) 0.4328(4)
O21 O 0.6712(4) 0.46855(17) 0.2502(3)
O22 O 0.7307(3) 0.46876(16) 0.3077(3)
O23 O 0.6604(3) 0.46822(14) 0.3939(3)
O24 O 0.7139(3) 0.43557(15) 0.4315(3)
O25 O 0.5496(3) 0.28612(15) 0.2615(3)
O26 O 0.5515(3) 0.24924(15) 0.3174(3)
O27 O 0.6855(3) 0.24977(16) 0.4474(3)
O28 O 0.7382(3) 0.29047(16) 0.4485(3)
Cu14 Cu 0.72577(10) 0.0000 0.28130(10)
O33 O 0.5563(7) 0.0000 0.0761(6)
O34 O 0.5000 0.02888(19) 0.1653(4)
Cu16 Cu 0.55639(8) 0.0000 0.16601(9)
O37 O 0.6808(5) 0.0000 0.3512(5)
Cu19 Cu 0.34140(9) 0.5000 0.44336(8)
Cu20 Cu 0.29559(9) 0.5000 0.20847(10)
O71 O 0.3509(6) 0.5000 0.1464(5)
O72 O 0.4284(4) 0.5000 0.4484(5)
C97 C 0.3075(5) 0.4587(2) 0.2869(4)
C98 C 0.3268(5) 0.4287(2) 0.3055(4)
C99 C 0.3396(5) 0.4079(2) 0.2679(5)
H37 H 0.3425 0.4136 0.2336
C100 C 0.3478(5) 0.3781(2) 0.2833(5)
H38 H 0.3551 0.3633 0.2587
C101 C 0.3455(5) 0.36956(17) 0.3350(4)
C102 C 0.3344(5) 0.39048(19) 0.3708(4)
H39 H 0.3337 0.3851 0.4054
C103 C 0.3239(5) 0.4202(2) 0.3560(4)
C104 C 0.3165(5) 0.4436(2) 0.3970(5)
C105 C 0.3531(3) 0.33688(7) 0.3486(3)
C106 C 0.3894(3) 0.32077(13) 0.3223(3)
H40 H 0.4092 0.3304 0.2973
C107 C 0.3967(3) 0.29054(13) 0.3326(3)
C108 C 0.3677(3) 0.27643(7) 0.3691(3)
H41 H 0.3727 0.2558 0.3762
C109 C 0.3314(3) 0.29254(15) 0.3954(3)
C110 C 0.3241(3) 0.32277(14) 0.3851(3)
H42 H 0.2993 0.3338 0.4031
C111 C 0.4357(4) 0.2736(2) 0.3025(5)
C112 C 0.2994(5) 0.2773(2) 0.4328(4)
O73 O 0.3288(4) 0.46855(17) 0.2502(3)
O74 O 0.2693(3) 0.46876(16) 0.3077(3)
O75 O 0.3396(3) 0.46822(14) 0.3939(3)
O76 O 0.2861(3) 0.43557(15) 0.4315(3)
O77 O 0.4504(3) 0.28612(15) 0.2615(3)
O78 O 0.4485(3) 0.24924(15) 0.3174(3)
O79 O 0.3145(3) 0.24977(16) 0.4474(3)
O80 O 0.2618(3) 0.29047(16) 0.4485(3)
C113 C 0.1925(5) 0.0413(2) 0.2869(4)
C114 C 0.1732(5) 0.0713(2) 0.3055(4)
C115 C 0.1604(5) 0.0921(2) 0.2679(5)
H43 H 0.1575 0.0864 0.2336
C116 C 0.1522(5) 0.1219(2) 0.2833(5)
H44 H 0.1449 0.1367 0.2587
C117 C 0.1545(5) 0.13044(17) 0.3350(4)
C118 C 0.1656(5) 0.10952(19) 0.3708(4)
H45 H 0.1663 0.1149 0.4054
C119 C 0.1761(5) 0.0798(2) 0.3560(4)
C120 C 0.1835(5) 0.0564(2) 0.3970(5)
C121 C 0.1469(3) 0.16312(7) 0.3486(3)
C122 C 0.1106(3) 0.17923(13) 0.3223(3)
H46 H 0.0908 0.1696 0.2973
C123 C 0.1033(3) 0.20946(13) 0.3326(3)
C124 C 0.1323(3) 0.22357(7) 0.3691(3)
H47 H 0.1273 0.2442 0.3762
C125 C 0.1686(3) 0.20746(15) 0.3954(3)
C126 C 0.1759(3) 0.17723(14) 0.3851(3)
H48 H 0.2007 0.1662 0.4031
C127 C 0.0643(4) 0.2264(2) 0.3025(5)
C128 C 0.2006(5) 0.2227(2) 0.4328(4)
O81 O 0.1712(4) 0.03145(17) 0.2502(3)
O82 O 0.2307(3) 0.03124(16) 0.3077(3)
O83 O 0.1604(3) 0.03178(14) 0.3939(3)
O84 O 0.2139(3) 0.06443(15) 0.4315(3)
O85 O 0.0496(3) 0.21388(15) 0.2615(3)
O86 O 0.0515(3) 0.25076(15) 0.3174(3)
O87 O 0.1855(3) 0.25023(16) 0.4474(3)
O88 O 0.2382(3) 0.20953(16) 0.4485(3)
Cu23 Cu 0.0000 0.27558(4) 0.28227(7)
Cu26 Cu -0.0000 0.23069(3) 0.21672(7)
Cu28 Cu 0.28346(7) 0.27186(4) 0.0000
Cu31 Cu 0.77423(10) 0.5000 0.28130(10)
Cu33 Cu 0.22577(10) 0.5000 0.28130(10)
Cu38 Cu 0.21808(7) 0.27251(4) 0.5000
Cu40 Cu 0.71808(7) 0.22749(4) 0.5000
Cu41 Cu 0.28192(7) 0.22749(4) 0.5000
Cu44 Cu 0.65860(9) 0.5000 0.55664(8)
Cu45 Cu 0.15860(9) 0.0000 0.44336(8)
O89 O 0.3379(4) 0.5288(2) 0.5000
O90 O 0.3379(4) 0.4712(2) 0.5000
O91 O 0.6621(4) 0.5288(2) 0.5000
Cu47 Cu 0.20441(9) 0.0000 0.20847(10)
Cu48 Cu 0.79559(9) 0.0000 0.20847(10)
Cu51 Cu 0.27557(8) 0.45014(4) 0.5000
Cu52 Cu 0.72443(8) 0.54986(4) 0.5000
Cu53 Cu 0.22443(8) 0.04986(4) 0.5000
O93 O 0.5697(3) 0.06384(14) 0.2224(3)
O95 O 0.6075(3) 0.03175(14) 0.1715(3)
O97 O 0.6939(4) 0.03083(16) 0.2429(4)
O98 O 0.7466(3) 0.53068(18) 0.1797(4)
O99 O 0.2534(3) 0.46932(18) 0.1797(4)
O100 O 0.7466(3) 0.46932(18) 0.1797(4)
O101 O 0.2534(3) 0.53068(18) 0.1797(4)
O103 O 0.5501(3) 0.20742(14) 0.2369(3)
O105 O 0.5513(3) 0.24482(14) 0.1818(3)
O107 O 0.1839(3) 0.25103(16) 0.0524(3)
O110 O 0.3288(4) 0.53145(17) 0.2502(3)
O111 O 0.6712(4) 0.53145(17) 0.2502(3)
O113 O 0.7693(3) 0.03124(16) 0.3077(3)
O115 O 0.3396(3) 0.53178(14) 0.3939(3)
O116 O 0.6604(3) 0.53178(14) 0.3939(3)
O118 O 0.7139(3) 0.43557(15) 0.5685(3)
O122 O 0.8145(3) 0.25023(16) 0.4474(3)
O123 O 0.8145(3) 0.25023(16) 0.5526(3)
O126 O 0.7382(3) 0.29047(16) 0.5515(3)
H51 H 0.317048 0.020011 0.36739
H59 H 0.150854 0.185691 0.0340205
H76 H 0.694123 0.0154511 0.374563
Cu3_2 Cu 0.21654(7) 0.22814(4) 1.0000
O3_2 O 0.1657(5) 0.1883(3) 1.0000
C81 C 0.3974(5) 0.0566(2) 0.8047(5)
C82 C 0.3554(4) 0.0778(2) 0.8188(5)
C83 C 0.3684(4) 0.1078(2) 0.8292(5)
H31 H 0.4029 0.1135 0.8287
C84 C 0.3323(4) 0.12913(18) 0.8401(5)
C85 C 0.2831(5) 0.1212(2) 0.8438(5)
H32 H 0.2585 0.1355 0.8536
C86 C 0.2687(5) 0.0913(2) 0.8327(5)
H33 H 0.2343 0.0856 0.8345
C87 C 0.3055(5) 0.07016(19) 0.8193(5)
C88 C 0.2864(5) 0.0407(2) 0.7981(6)
C89 C 0.3452(4) 0.16061(15) 0.8505(4)
C90 C 0.3183(4) 0.1771(2) 0.8853(4)
H34 H 0.2920 0.1676 0.9037
C91 C 0.3285(4) 0.2068(2) 0.8941(4)
C92 C 0.3690(4) 0.22041(15) 0.8684(4)
H35 H 0.3784 0.2404 0.8762
C93 C 0.3945(4) 0.2050(2) 0.8330(4)
C94 C 0.3843(4) 0.1748(2) 0.8241(4)
H36 H 0.4037 0.1639 0.8004
C95 C 0.4345(4) 0.2206(2) 0.8032(4)
C96 C 0.2980(4) 0.2228(2) 0.9323(4)
O63 O 0.4303(3) 0.06384(14) 0.7776(3)
O64 O 0.3925(3) 0.03175(14) 0.8285(3)
O65 O 0.3061(4) 0.03083(16) 0.7571(4)
O66 O 0.2466(3) 0.03068(18) 0.8203(4)
O67 O 0.4499(3) 0.20742(14) 0.7631(3)
O68 O 0.4487(3) 0.24482(14) 0.8182(3)
O69 O 0.2601(3) 0.21150(15) 0.9483(3)
O70 O 0.3161(3) 0.24897(16) 0.9476(3)
Cu21 Cu 0.5000 0.22442(4) 0.71773(7)
Cu24 Cu 0.5000 0.26931(3) 0.78328(7)
Cu28_2 Cu 0.28346(7) 0.27186(4) 1.0000
Cu29 Cu 0.72577(10) 0.0000 0.71870(10)
Cu30 Cu 0.27423(10) 0.0000 0.71870(10)
Cu34 Cu 0.5000 0.05047(4) 0.76941(9)
Cu36 Cu 0.55639(8) 0.0000 0.83399(9)
Cu37 Cu 0.44361(8) 0.0000 0.83399(9)
Cu49 Cu 0.79559(9) 0.0000 0.79153(10)
Cu50 Cu 0.20441(9) 0.0000 0.79153(10)
O108 O 0.1839(3) 0.25103(16) 0.9476(3)
H60 H 0.138324 0.191348 0.975053
Cl1_2 Cl 0.5000 1.0000 0.2751(3)
Cu4_2 Cu 0.27423(10) 1.0000 0.28130(10)
O5_2 O 0.4437(7) 1.0000 0.0761(6)
O6 O 0.5000 0.97112(19) 0.1653(4)
Cu6_2 Cu 0.44361(8) 1.0000 0.16601(9)
O11_2 O 0.3192(5) 1.0000 0.3512(5)
Cu11 Cu 0.5000 0.77558(4) 0.28227(7)
O29 O 0.5000 0.8114(2) 0.3382(4)
Cu12 Cu 0.5000 0.73069(3) 0.21672(7)
O30 O 0.5000 0.69588(19) 0.1630(4)
Cu13 Cu 0.78346(7) 0.77186(4) 0.0000
O31 O 0.8343(5) 0.8117(3) 0.0000
O32 O 0.5000 0.9293(2) 0.2953(5)
Cu14_2 Cu 0.72577(10) 1.0000 0.28130(10)
Cu15 Cu 0.5000 0.94953(4) 0.23059(9)
O33_2 O 0.5563(7) 1.0000 0.0761(6)
Cu16_2 Cu 0.55639(8) 1.0000 0.16601(9)
Cu17 Cu 0.21808(7) 0.72749(4) 0.5000
O36 O 0.1663(5) 0.6880(3) 0.5000
O37_2 O 0.6808(5) 1.0000 0.3512(5)
Cu18 Cu 0.27557(8) 0.54986(4) 0.5000
O38 O 0.2093(4) 0.5714(3) 0.5000
C33 C 0.6026(5) 0.9434(2) 0.1953(5)
C34 C 0.6446(4) 0.9222(2) 0.1812(5)
C35 C 0.6316(4) 0.8922(2) 0.1708(5)
H13 H 0.5971 0.8865 0.1713
C36 C 0.6677(4) 0.87087(18) 0.1599(5)
C37 C 0.7169(5) 0.8788(2) 0.1562(5)
H14 H 0.7415 0.8645 0.1464
C38 C 0.7313(5) 0.9087(2) 0.1673(5)
H15 H 0.7657 0.9144 0.1655
C39 C 0.6945(5) 0.92984(19) 0.1807(5)
C40 C 0.7136(5) 0.9593(2) 0.2019(6)
C41 C 0.6548(4) 0.83939(15) 0.1495(4)
C42 C 0.6817(4) 0.8229(2) 0.1147(4)
H16 H 0.7080 0.8324 0.0963
C43 C 0.6715(4) 0.7932(2) 0.1059(4)
C44 C 0.6310(4) 0.77959(15) 0.1316(4)
H17 H 0.6216 0.7596 0.1238
C45 C 0.6055(4) 0.7950(2) 0.1670(4)
C46 C 0.6157(4) 0.8252(2) 0.1759(4)
H18 H 0.5963 0.8361 0.1996
C47 C 0.5655(4) 0.7794(2) 0.1968(4)
C48 C 0.7020(4) 0.7772(2) 0.0677(4)
O39 O 0.5697(3) 0.93616(14) 0.2224(3)
O40 O 0.6075(3) 0.96825(14) 0.1715(3)
O41 O 0.6939(4) 0.96917(16) 0.2429(4)
O42 O 0.7534(3) 0.96932(18) 0.1797(4)
O43 O 0.5501(3) 0.79258(14) 0.2369(3)
O44 O 0.5513(3) 0.75518(14) 0.1818(3)
O45 O 0.7399(3) 0.78850(15) 0.0517(3)
O46 O 0.6839(3) 0.75103(16) 0.0524(3)
C49 C 0.3075(5) 0.5413(2) 0.2869(4)
C50 C 0.3268(5) 0.5713(2) 0.3055(4)
C51 C 0.3396(5) 0.5921(2) 0.2679(5)
H19 H 0.3425 0.5864 0.2336
C52 C 0.3478(5) 0.6219(2) 0.2833(5)
H20 H 0.3551 0.6367 0.2587
C53 C 0.3455(5) 0.63044(17) 0.3350(4)
C54 C 0.3344(5) 0.60952(19) 0.3708(4)
H21 H 0.3337 0.6149 0.4054
C55 C 0.3239(5) 0.5798(2) 0.3560(4)
C56 C 0.3165(5) 0.5564(2) 0.3970(5)
C57 C 0.3531(3) 0.66312(7) 0.3486(3)
C58 C 0.3894(3) 0.67923(13) 0.3223(3)
H22 H 0.4092 0.6696 0.2973
C59 C 0.3967(3) 0.70946(13) 0.3326(3)
C60 C 0.3677(3) 0.72357(7) 0.3691(3)
H23 H 0.3727 0.7442 0.3762
C61 C 0.3314(3) 0.70746(15) 0.3954(3)
C62 C 0.3241(3) 0.67723(14) 0.3851(3)
H24 H 0.2993 0.6662 0.4031
C63 C 0.4357(4) 0.7264(2) 0.3025(5)
C64 C 0.2994(5) 0.7227(2) 0.4328(4)
O48 O 0.2693(3) 0.53124(16) 0.3077(3)
O50 O 0.2861(3) 0.56443(15) 0.4315(3)
O51 O 0.4504(3) 0.71388(15) 0.2615(3)
O52 O 0.4485(3) 0.75076(15) 0.3174(3)
O53 O 0.3145(3) 0.75023(16) 0.4474(3)
O54 O 0.2618(3) 0.70953(16) 0.4485(3)
Cu27 Cu 0.71654(7) 0.72814(4) 0.0000
Cu39 Cu 0.28192(7) 0.77251(4) 0.5000
Cu43 Cu 0.34140(9) 0.5000 0.55664(8)
Cu45_2 Cu 0.15860(9) 1.0000 0.44336(8)
Cu47_2 Cu 0.20441(9) 1.0000 0.20847(10)
Cu48_2 Cu 0.79559(9) 1.0000 0.20847(10)
O92 O 0.4303(3) 0.93616(14) 0.2224(3)
O94 O 0.3925(3) 0.96825(14) 0.1715(3)
O96 O 0.3061(4) 0.96917(16) 0.2429(4)
O102 O 0.4499(3) 0.79258(14) 0.2369(3)
O104 O 0.4487(3) 0.75518(14) 0.1818(3)
O106 O 0.8161(3) 0.74897(16) 0.0524(3)
O112 O 0.2307(3) 0.96876(16) 0.3077(3)
O114 O 0.7693(3) 0.96876(16) 0.3077(3)
O117 O 0.2861(3) 0.56443(15) 0.5685(3)
O119 O 0.5496(3) 0.71388(15) 0.2615(3)
O120 O 0.5515(3) 0.75076(15) 0.3174(3)
O121 O 0.1855(3) 0.74977(16) 0.4474(3)
O124 O 0.1855(3) 0.74977(16) 0.5526(3)
O125 O 0.2618(3) 0.70953(16) 0.5515(3)
H52 H 0.305877 0.984549 0.374563
H69 H 0.849146 0.814309 0.0340205
H75 H 0.682952 0.979989 0.36739
Cu13_2 Cu 0.78346(7) 0.77186(4) 1.0000
O31_2 O 0.8343(5) 0.8117(3) 1.0000
C65 C 0.6026(5) 0.9434(2) 0.8047(5)
C66 C 0.6446(4) 0.9222(2) 0.8188(5)
C67 C 0.6316(4) 0.8922(2) 0.8292(5)
H25 H 0.5971 0.8865 0.8287
C68 C 0.6677(4) 0.87087(18) 0.8401(5)
C69 C 0.7169(5) 0.8788(2) 0.8438(5)
H26 H 0.7415 0.8645 0.8536
C70 C 0.7313(5) 0.9087(2) 0.8327(5)
H27 H 0.7657 0.9144 0.8345
C71 C 0.6945(5) 0.92984(19) 0.8193(5)
C72 C 0.7136(5) 0.9593(2) 0.7981(6)
C73 C 0.6548(4) 0.83939(15) 0.8505(4)
C74 C 0.6817(4) 0.8229(2) 0.8853(4)
H28 H 0.7080 0.8324 0.9037
C75 C 0.6715(4) 0.7932(2) 0.8941(4)
C76 C 0.6310(4) 0.77959(15) 0.8684(4)
H29 H 0.6216 0.7596 0.8762
C77 C 0.6055(4) 0.7950(2) 0.8330(4)
C78 C 0.6157(4) 0.8252(2) 0.8241(4)
H30 H 0.5963 0.8361 0.8004
C79 C 0.5655(4) 0.7794(2) 0.8032(4)
C80 C 0.7020(4) 0.7772(2) 0.9323(4)
O55 O 0.5697(3) 0.93616(14) 0.7776(3)
O56 O 0.6075(3) 0.96825(14) 0.8285(3)
O57 O 0.6939(4) 0.96917(16) 0.7571(4)
O58 O 0.7534(3) 0.96932(18) 0.8203(4)
O59 O 0.5501(3) 0.79258(14) 0.7631(3)
O60 O 0.5513(3) 0.75518(14) 0.8182(3)
O61 O 0.7399(3) 0.78850(15) 0.9483(3)
O62 O 0.6839(3) 0.75103(16) 0.9476(3)
Cu22 Cu 0.5000 0.77558(4) 0.71773(7)
Cu25 Cu 0.5000 0.73069(3) 0.78328(7)
Cu27_2 Cu 0.71654(7) 0.72814(4) 1.0000
Cu29_2 Cu 0.72577(10) 1.0000 0.71870(10)
Cu30_2 Cu 0.27423(10) 1.0000 0.71870(10)
Cu35 Cu 0.5000 0.94953(4) 0.76941(9)
Cu36_2 Cu 0.55639(8) 1.0000 0.83399(9)
Cu37_2 Cu 0.44361(8) 1.0000 0.83399(9)
Cu49_2 Cu 0.79559(9) 1.0000 0.79153(10)
Cu50_2 Cu 0.20441(9) 1.0000 0.79153(10)
O109 O 0.8161(3) 0.74897(16) 0.9476(3)
H70 H 0.861676 0.808652 0.975053
Cu23_2 Cu 1.0000 0.27558(4) 0.28227(7)
Cu26_2 Cu 1.0000 0.23069(3) 0.21672(7)
Cu23_3 Cu 0.0000 0.72442(4) 0.28227(7)
Cu26_3 Cu -0.0000 0.76931(3) 0.21672(7)
Cu45_3 Cu 0.84140(9) 0.0000 0.44336(8)
Cl2_2 Cl 0.2388 0.5000 0.4758
C97_2 C 0.6925(5) 0.5413(2) 0.2869(4)
C98_2 C 0.6732(5) 0.5713(2) 0.3055(4)
C99_2 C 0.6604(5) 0.5921(2) 0.2679(5)
H37_2 H 0.6575 0.5864 0.2336
C100_2 C 0.6522(5) 0.6219(2) 0.2833(5)
H38_2 H 0.6449 0.6367 0.2587
C101_2 C 0.6545(5) 0.63044(17) 0.3350(4)
C102_2 C 0.6656(5) 0.60952(19) 0.3708(4)
H39_2 H 0.6663 0.6149 0.4054
C103_2 C 0.6761(5) 0.5798(2) 0.3560(4)
C104_2 C 0.6835(5) 0.5564(2) 0.3970(5)
C105_2 C 0.6469(3) 0.66312(7) 0.3486(3)
C106_2 C 0.6106(3) 0.67923(13) 0.3223(3)
H40_2 H 0.5908 0.6696 0.2973
C107_2 C 0.6033(3) 0.70946(13) 0.3326(3)
C108_2 C 0.6323(3) 0.72357(7) 0.3691(3)
H41_2 H 0.6273 0.7442 0.3762
C109_2 C 0.6686(3) 0.70746(15) 0.3954(3)
C110_2 C 0.6759(3) 0.67723(14) 0.3851(3)
H42_2 H 0.7007 0.6662 0.4031
C111_2 C 0.5643(4) 0.7264(2) 0.3025(5)
C112_2 C 0.7006(5) 0.7227(2) 0.4328(4)
O74_2 O 0.7307(3) 0.53124(16) 0.3077(3)
O76_2 O 0.7139(3) 0.56443(15) 0.4315(3)
O79_2 O 0.6855(3) 0.75023(16) 0.4474(3)
O80_2 O 0.7382(3) 0.70953(16) 0.4485(3)
C113_2 C 0.8075(5) 0.9587(2) 0.2869(4)
C114_2 C 0.8268(5) 0.9287(2) 0.3055(4)
C115_2 C 0.8396(5) 0.9079(2) 0.2679(5)
H43_2 H 0.8425 0.9136 0.2336
C116_2 C 0.8478(5) 0.8781(2) 0.2833(5)
H44_2 H 0.8551 0.8633 0.2587
C117_2 C 0.8455(5) 0.86956(17) 0.3350(4)
C118_2 C 0.8344(5) 0.89048(19) 0.3708(4)
H45_2 H 0.8337 0.8851 0.4054
C119_2 C 0.8239(5) 0.9202(2) 0.3560(4)
C120_2 C 0.8165(5) 0.9436(2) 0.3970(5)
C121_2 C 0.8531(3) 0.83688(7) 0.3486(3)
C122_2 C 0.8894(3) 0.82077(13) 0.3223(3)
H46_2 H 0.9092 0.8304 0.2973
C123_2 C 0.8967(3) 0.79054(13) 0.3326(3)
C124_2 C 0.8677(3) 0.77643(7) 0.3691(3)
H47_2 H 0.8727 0.7558 0.3762
C125_2 C 0.8314(3) 0.79254(15) 0.3954(3)
C126_2 C 0.8241(3) 0.82277(14) 0.3851(3)
H48_2 H 0.7993 0.8338 0.4031
C127_2 C 0.9357(4) 0.7736(2) 0.3025(5)
C128_2 C 0.7994(5) 0.7773(2) 0.4328(4)
O81_2 O 0.8288(4) 0.96855(17) 0.2502(3)
O83_2 O 0.8396(3) 0.96822(14) 0.3939(3)
O84_2 O 0.7861(3) 0.93557(15) 0.4315(3)
O85_2 O 0.9504(3) 0.78612(15) 0.2615(3)
O86_2 O 0.9485(3) 0.74924(15) 0.3174(3)
O87_2 O 0.8145(3) 0.74977(16) 0.4474(3)
O88_2 O 0.7618(3) 0.79047(16) 0.4485(3)
Cu23_4 Cu 1.0000 0.72442(4) 0.28227(7)
Cu26_4 Cu 1.0000 0.76931(3) 0.21672(7)
Cu38_2 Cu 0.78192(7) 0.72749(4) 0.5000
Cu41_2 Cu 0.71808(7) 0.77251(4) 0.5000
Cu45_4 Cu 0.84140(9) 1.0000 0.44336(8)
Cu53_2 Cu 0.77557(8) 0.95014(4) 0.5000
Cu23_5 Cu -0.0000 0.27558(4) 0.71773(7)
Cu26_5 Cu -0.0000 0.23069(3) 0.78328(7)
Cu3_3 Cu 0.78346(7) 0.22814(4) 0.0000
O3_3 O 0.8343(5) 0.1883(3) 0.0000
C81_2 C 0.6026(5) 0.0566(2) 0.1953(5)
C82_2 C 0.6446(4) 0.0778(2) 0.1812(5)
C83_2 C 0.6316(4) 0.1078(2) 0.1708(5)
H31_2 H 0.5971 0.1135 0.1713
C84_2 C 0.6677(4) 0.12913(18) 0.1599(5)
C85_2 C 0.7169(5) 0.1212(2) 0.1562(5)
H32_2 H 0.7415 0.1355 0.1464
C86_2 C 0.7313(5) 0.0913(2) 0.1673(5)
H33_2 H 0.7657 0.0856 0.1655
C87_2 C 0.6945(5) 0.07016(19) 0.1807(5)
C88_2 C 0.7136(5) 0.0407(2) 0.2019(6)
C89_2 C 0.6548(4) 0.16061(15) 0.1495(4)
C90_2 C 0.6817(4) 0.1771(2) 0.1147(4)
H34_2 H 0.7080 0.1676 0.0963
C91_2 C 0.6715(4) 0.2068(2) 0.1059(4)
C92_2 C 0.6310(4) 0.22041(15) 0.1316(4)
H35_2 H 0.6216 0.2404 0.1238
C93_2 C 0.6055(4) 0.2050(2) 0.1670(4)
C94_2 C 0.6157(4) 0.1748(2) 0.1759(4)
H36_2 H 0.5963 0.1639 0.1996
C95_2 C 0.5655(4) 0.2206(2) 0.1968(4)
C96_2 C 0.7020(4) 0.2228(2) 0.0677(4)
O66_2 O 0.7534(3) 0.03068(18) 0.1797(4)
O69_2 O 0.7399(3) 0.21150(15) 0.0517(3)
O70_2 O 0.6839(3) 0.24897(16) 0.0524(3)
Cu28_3 Cu 0.71654(7) 0.27186(4) 0.0000
O108_2 O 0.8161(3) 0.25103(16) 0.0524(3)
H60_2 H 0.861676 0.191348 0.024947
Cl1_3 Cl 0.5000 0.0000 0.7249(3)
O1_2 O 0.5000 0.1886(2) 0.6618(4)
Cl2_3 Cl 0.2388 0.5000 0.5242
O2_2 O 0.5000 0.30412(19) 0.8370(4)
Cu3_4 Cu 0.78346(7) 0.22814(4) 1.0000
O3_4 O 0.8343(5) 0.1883(3) 1.0000
O4_2 O 0.5000 0.0707(2) 0.7047(5)
O5_3 O 0.5563(7) -0.0000 0.9239(6)
Cu9_2 Cu 0.29559(9) 0.5000 0.79153(10)
O8_2 O 0.3509(6) 0.5000 0.8536(5)
O9_2 O 0.1663(5) 0.3120(3) 0.5000
O10_2 O 0.4284(4) 0.5000 0.5516(5)
O11_3 O 0.6808(5) -0.0000 0.6488(5)
O12_2 O 0.2093(4) 0.4286(3) 0.5000
C1_2 C 0.6026(5) 0.0566(2) 0.8047(5)
C2_2 C 0.6446(4) 0.0778(2) 0.8188(5)
C3_2 C 0.6316(4) 0.1078(2) 0.8292(5)
H1_2 H 0.5971 0.1135 0.8287
C4_2 C 0.6677(4) 0.12913(18) 0.8401(5)
C5_2 C 0.7169(5) 0.1212(2) 0.8438(5)
H2_2 H 0.7415 0.1355 0.8536
C6_2 C 0.7313(5) 0.0913(2) 0.8327(5)
H3_2 H 0.7657 0.0856 0.8345
C7_2 C 0.6945(5) 0.07016(19) 0.8193(5)
C8_2 C 0.7136(5) 0.0407(2) 0.7981(6)
C9_2 C 0.6548(4) 0.16061(15) 0.8505(4)
C10_2 C 0.6817(4) 0.1771(2) 0.8853(4)
H4_2 H 0.7080 0.1676 0.9037
C11_2 C 0.6715(4) 0.2068(2) 0.8941(4)
C12_2 C 0.6310(4) 0.22041(15) 0.8684(4)
H5_2 H 0.6216 0.2404 0.8762
C13_2 C 0.6055(4) 0.2050(2) 0.8330(4)
C14_2 C 0.6157(4) 0.1748(2) 0.8241(4)
H6_2 H 0.5963 0.1639 0.8004
C15_2 C 0.5655(4) 0.2206(2) 0.8032(4)
C16_2 C 0.7020(4) 0.2228(2) 0.9323(4)
O13_2 O 0.5697(3) 0.06384(14) 0.7776(3)
O14_2 O 0.6075(3) 0.03175(14) 0.8285(3)
O15_2 O 0.6939(4) 0.03083(16) 0.7571(4)
O16_2 O 0.7534(3) 0.03068(18) 0.8203(4)
O17_2 O 0.5501(3) 0.20742(14) 0.7631(3)
O18_2 O 0.5513(3) 0.24482(14) 0.8182(3)
O19_2 O 0.7399(3) 0.21150(15) 0.9483(3)
O20_2 O 0.6839(3) 0.24897(16) 0.9476(3)
C17_2 C 0.3075(5) 0.4587(2) 0.7131(4)
C18_2 C 0.3268(5) 0.4287(2) 0.6945(4)
C19_2 C 0.3396(5) 0.4079(2) 0.7321(5)
H7_2 H 0.3425 0.4136 0.7664
C20_2 C 0.3478(5) 0.3781(2) 0.7167(5)
H8_2 H 0.3551 0.3633 0.7413
C21_2 C 0.3455(5) 0.36956(17) 0.6650(4)
C22_2 C 0.3344(5) 0.39048(19) 0.6292(4)
H9_2 H 0.3337 0.3851 0.5946
C23_2 C 0.3239(5) 0.4202(2) 0.6440(4)
C24_2 C 0.3165(5) 0.4436(2) 0.6030(5)
C25_2 C 0.3531(3) 0.33688(7) 0.6514(3)
C26_2 C 0.3894(3) 0.32077(13) 0.6777(3)
H10_2 H 0.4092 0.3304 0.7027
C27_2 C 0.3967(3) 0.29054(13) 0.6674(3)
C28_2 C 0.3677(3) 0.27643(7) 0.6309(3)
H11_2 H 0.3727 0.2558 0.6238
C29_2 C 0.3314(3) 0.29254(15) 0.6046(3)
C30_2 C 0.3241(3) 0.32277(14) 0.6149(3)
H12_2 H 0.2993 0.3338 0.5969
C31_2 C 0.4357(4) 0.2736(2) 0.6975(5)
C32_2 C 0.2994(5) 0.2773(2) 0.5672(4)
O21_2 O 0.3288(4) 0.46855(17) 0.7498(3)
O22_2 O 0.2693(3) 0.46876(16) 0.6923(3)
O23_2 O 0.3396(3) 0.46822(14) 0.6061(3)
O24_2 O 0.2861(3) 0.43557(15) 0.5685(3)
O25_2 O 0.4504(3) 0.28612(15) 0.7385(3)
O26_2 O 0.4485(3) 0.24924(15) 0.6826(3)
O27_2 O 0.3145(3) 0.24977(16) 0.5526(3)
O28_2 O 0.2618(3) 0.29047(16) 0.5515(3)
O33_3 O 0.4437(7) -0.0000 0.9239(6)
O34_2 O 0.5000 0.02888(19) 0.8347(4)
O37_3 O 0.3192(5) -0.0000 0.6488(5)
Cu20_2 Cu 0.70441(9) 0.5000 0.79153(10)
O71_2 O 0.6491(6) 0.5000 0.8536(5)
O72_2 O 0.5716(4) 0.5000 0.5516(5)
C97_3 C 0.6925(5) 0.4587(2) 0.7131(4)
C98_3 C 0.6732(5) 0.4287(2) 0.6945(4)
C99_3 C 0.6604(5) 0.4079(2) 0.7321(5)
H37_3 H 0.6575 0.4136 0.7664
C100_3 C 0.6522(5) 0.3781(2) 0.7167(5)
H38_3 H 0.6449 0.3633 0.7413
C101_3 C 0.6545(5) 0.36956(17) 0.6650(4)
C102_3 C 0.6656(5) 0.39048(19) 0.6292(4)
H39_3 H 0.6663 0.3851 0.5946
C103_3 C 0.6761(5) 0.4202(2) 0.6440(4)
C104_3 C 0.6835(5) 0.4436(2) 0.6030(5)
C105_3 C 0.6469(3) 0.33688(7) 0.6514(3)
C106_3 C 0.6106(3) 0.32077(13) 0.6777(3)
H40_3 H 0.5908 0.3304 0.7027
C107_3 C 0.6033(3) 0.29054(13) 0.6674(3)
C108_3 C 0.6323(3) 0.27643(7) 0.6309(3)
H41_3 H 0.6273 0.2558 0.6238
C109_3 C 0.6686(3) 0.29254(15) 0.6046(3)
C110_3 C 0.6759(3) 0.32277(14) 0.6149(3)
H42_3 H 0.7007 0.3338 0.5969
C111_3 C 0.5643(4) 0.2736(2) 0.6975(5)
C112_3 C 0.7006(5) 0.2773(2) 0.5672(4)
O73_2 O 0.6712(4) 0.46855(17) 0.7498(3)
O74_3 O 0.7307(3) 0.46876(16) 0.6923(3)
O75_2 O 0.6604(3) 0.46822(14) 0.6061(3)
O77_2 O 0.5496(3) 0.28612(15) 0.7385(3)
O78_2 O 0.5515(3) 0.24924(15) 0.6826(3)
O79_3 O 0.6855(3) 0.24977(16) 0.5526(3)
C113_3 C 0.8075(5) 0.0413(2) 0.7131(4)
C114_3 C 0.8268(5) 0.0713(2) 0.6945(4)
C115_3 C 0.8396(5) 0.0921(2) 0.7321(5)
H43_3 H 0.8425 0.0864 0.7664
C116_3 C 0.8478(5) 0.1219(2) 0.7167(5)
H44_3 H 0.8551 0.1367 0.7413
C117_3 C 0.8455(5) 0.13044(17) 0.6650(4)
C118_3 C 0.8344(5) 0.10952(19) 0.6292(4)
H45_3 H 0.8337 0.1149 0.5946
C119_3 C 0.8239(5) 0.0798(2) 0.6440(4)
C120_3 C 0.8165(5) 0.0564(2) 0.6030(5)
C121_3 C 0.8531(3) 0.16312(7) 0.6514(3)
C122_3 C 0.8894(3) 0.17923(13) 0.6777(3)
H46_3 H 0.9092 0.1696 0.7027
C123_3 C 0.8967(3) 0.20946(13) 0.6674(3)
C124_3 C 0.8677(3) 0.22357(7) 0.6309(3)
H47_3 H 0.8727 0.2442 0.6238
C125_3 C 0.8314(3) 0.20746(15) 0.6046(3)
C126_3 C 0.8241(3) 0.17723(14) 0.6149(3)
H48_3 H 0.7993 0.1662 0.5969
C127_3 C 0.9357(4) 0.2264(2) 0.6975(5)
C128_3 C 0.7994(5) 0.2227(2) 0.5672(4)
O81_3 O 0.8288(4) 0.03145(17) 0.7498(3)
O82_2 O 0.7693(3) 0.03124(16) 0.6923(3)
O83_3 O 0.8396(3) 0.03178(14) 0.6061(3)
O84_3 O 0.7861(3) 0.06443(15) 0.5685(3)
O85_3 O 0.9504(3) 0.21388(15) 0.7385(3)
O86_3 O 0.9485(3) 0.25076(15) 0.6826(3)
O88_3 O 0.7618(3) 0.20953(16) 0.5515(3)
Cu23_6 Cu 1.0000 0.27558(4) 0.71773(7)
Cu26_6 Cu 1.0000 0.23069(3) 0.78328(7)
Cu28_4 Cu 0.71654(7) 0.27186(4) 1.0000
Cu31_2 Cu 0.22577(10) 0.5000 0.71870(10)
Cu33_2 Cu 0.77423(10) 0.5000 0.71870(10)
Cu45_5 Cu 0.84140(9) -0.0000 0.55664(8)
Cu53_3 Cu 0.77557(8) 0.04986(4) 0.5000
O98_2 O 0.2534(3) 0.53068(18) 0.8203(4)
O99_2 O 0.7466(3) 0.46932(18) 0.8203(4)
O100_2 O 0.2534(3) 0.46932(18) 0.8203(4)
O101_2 O 0.7466(3) 0.53068(18) 0.8203(4)
O107_2 O 0.8161(3) 0.25103(16) 0.9476(3)
O110_2 O 0.6712(4) 0.53145(17) 0.7498(3)
O111_2 O 0.3288(4) 0.53145(17) 0.7498(3)
O113_2 O 0.2307(3) 0.03124(16) 0.6923(3)
O115_2 O 0.6604(3) 0.53178(14) 0.6061(3)
O116_2 O 0.3396(3) 0.53178(14) 0.6061(3)
O122_2 O 0.1855(3) 0.25023(16) 0.5526(3)
H51_2 H 0.682952 0.020011 0.63261
H59_2 H 0.849146 0.185691 0.965979
H76_2 H 0.305877 0.0154511 0.625437
Cu13_3 Cu 0.21654(7) 0.77186(4) 0.0000
O31_3 O 0.1657(5) 0.8117(3) 0.0000
C65_2 C 0.3974(5) 0.9434(2) 0.1953(5)
C66_2 C 0.3554(4) 0.9222(2) 0.1812(5)
C67_2 C 0.3684(4) 0.8922(2) 0.1708(5)
H25_2 H 0.4029 0.8865 0.1713
C68_2 C 0.3323(4) 0.87087(18) 0.1599(5)
C69_2 C 0.2831(5) 0.8788(2) 0.1562(5)
H26_2 H 0.2585 0.8645 0.1464
C70_2 C 0.2687(5) 0.9087(2) 0.1673(5)
H27_2 H 0.2343 0.9144 0.1655
C71_2 C 0.3055(5) 0.92984(19) 0.1807(5)
C72_2 C 0.2864(5) 0.9593(2) 0.2019(6)
C73_2 C 0.3452(4) 0.83939(15) 0.1495(4)
C74_2 C 0.3183(4) 0.8229(2) 0.1147(4)
H28_2 H 0.2920 0.8324 0.0963
C75_2 C 0.3285(4) 0.7932(2) 0.1059(4)
C76_2 C 0.3690(4) 0.77959(15) 0.1316(4)
H29_2 H 0.3784 0.7596 0.1238
C77_2 C 0.3945(4) 0.7950(2) 0.1670(4)
C78_2 C 0.3843(4) 0.8252(2) 0.1759(4)
H30_2 H 0.4037 0.8361 0.1996
C79_2 C 0.4345(4) 0.7794(2) 0.1968(4)
C80_2 C 0.2980(4) 0.7772(2) 0.0677(4)
O58_2 O 0.2466(3) 0.96932(18) 0.1797(4)
O61_2 O 0.2601(3) 0.78850(15) 0.0517(3)
O62_2 O 0.3161(3) 0.75103(16) 0.0524(3)
Cu27_3 Cu 0.28346(7) 0.72814(4) 0.0000
O109_2 O 0.1839(3) 0.74897(16) 0.0524(3)
H70_2 H 0.138324 0.808652 0.024947
Cl1_4 Cl 0.5000 1.0000 0.7249(3)
O5_4 O 0.5563(7) 1.0000 0.9239(6)
O6_2 O 0.5000 0.97112(19) 0.8347(4)
O11_4 O 0.6808(5) 1.0000 0.6488(5)
O29_2 O 0.5000 0.8114(2) 0.6618(4)
O30_2 O 0.5000 0.69588(19) 0.8370(4)
Cu13_4 Cu 0.21654(7) 0.77186(4) 1.0000
O31_4 O 0.1657(5) 0.8117(3) 1.0000
O32_2 O 0.5000 0.9293(2) 0.7047(5)
O33_4 O 0.4437(7) 1.0000 0.9239(6)
O36_2 O 0.8337(5) 0.6880(3) 0.5000
O37_4 O 0.3192(5) 1.0000 0.6488(5)
O38_2 O 0.7907(4) 0.5714(3) 0.5000
C33_2 C 0.3974(5) 0.9434(2) 0.8047(5)
C34_2 C 0.3554(4) 0.9222(2) 0.8188(5)
C35_2 C 0.3684(4) 0.8922(2) 0.8292(5)
H13_2 H 0.4029 0.8865 0.8287
C36_2 C 0.3323(4) 0.87087(18) 0.8401(5)
C37_2 C 0.2831(5) 0.8788(2) 0.8438(5)
H14_2 H 0.2585 0.8645 0.8536
C38_2 C 0.2687(5) 0.9087(2) 0.8327(5)
H15_2 H 0.2343 0.9144 0.8345
C39_2 C 0.3055(5) 0.92984(19) 0.8193(5)
C40_2 C 0.2864(5) 0.9593(2) 0.7981(6)
C41_2 C 0.3452(4) 0.83939(15) 0.8505(4)
C42_2 C 0.3183(4) 0.8229(2) 0.8853(4)
H16_2 H 0.2920 0.8324 0.9037
C43_2 C 0.3285(4) 0.7932(2) 0.8941(4)
C44_2 C 0.3690(4) 0.77959(15) 0.8684(4)
H17_2 H 0.3784 0.7596 0.8762
C45_2 C 0.3945(4) 0.7950(2) 0.8330(4)
C46_2 C 0.3843(4) 0.8252(2) 0.8241(4)
H18_2 H 0.4037 0.8361 0.8004
C47_2 C 0.4345(4) 0.7794(2) 0.8032(4)
C48_2 C 0.2980(4) 0.7772(2) 0.9323(4)
O39_2 O 0.4303(3) 0.93616(14) 0.7776(3)
O40_2 O 0.3925(3) 0.96825(14) 0.8285(3)
O41_2 O 0.3061(4) 0.96917(16) 0.7571(4)
O42_2 O 0.2466(3) 0.96932(18) 0.8203(4)
O43_2 O 0.4499(3) 0.79258(14) 0.7631(3)
O44_2 O 0.4487(3) 0.75518(14) 0.8182(3)
O45_2 O 0.2601(3) 0.78850(15) 0.9483(3)
O46_2 O 0.3161(3) 0.75103(16) 0.9476(3)
C49_2 C 0.6925(5) 0.5413(2) 0.7131(4)
C50_2 C 0.6732(5) 0.5713(2) 0.6945(4)
C51_2 C 0.6604(5) 0.5921(2) 0.7321(5)
H19_2 H 0.6575 0.5864 0.7664
C52_2 C 0.6522(5) 0.6219(2) 0.7167(5)
H20_2 H 0.6449 0.6367 0.7413
C53_2 C 0.6545(5) 0.63044(17) 0.6650(4)
C54_2 C 0.6656(5) 0.60952(19) 0.6292(4)
H21_2 H 0.6663 0.6149 0.5946
C55_2 C 0.6761(5) 0.5798(2) 0.6440(4)
C56_2 C 0.6835(5) 0.5564(2) 0.6030(5)
C57_2 C 0.6469(3) 0.66312(7) 0.6514(3)
C58_2 C 0.6106(3) 0.67923(13) 0.6777(3)
H22_2 H 0.5908 0.6696 0.7027
C59_2 C 0.6033(3) 0.70946(13) 0.6674(3)
C60_2 C 0.6323(3) 0.72357(7) 0.6309(3)
H23_2 H 0.6273 0.7442 0.6238
C61_2 C 0.6686(3) 0.70746(15) 0.6046(3)
C62_2 C 0.6759(3) 0.67723(14) 0.6149(3)
H24_2 H 0.7007 0.6662 0.5969
C63_2 C 0.5643(4) 0.7264(2) 0.6975(5)
C64_2 C 0.7006(5) 0.7227(2) 0.5672(4)
O48_2 O 0.7307(3) 0.53124(16) 0.6923(3)
O50_2 O 0.7139(3) 0.56443(15) 0.5685(3)
O51_2 O 0.5496(3) 0.71388(15) 0.7385(3)
O52_2 O 0.5515(3) 0.75076(15) 0.6826(3)
O53_2 O 0.6855(3) 0.75023(16) 0.5526(3)
O54_2 O 0.7382(3) 0.70953(16) 0.5515(3)
Cu27_4 Cu 0.28346(7) 0.72814(4) 1.0000
Cu45_6 Cu 0.84140(9) 1.0000 0.55664(8)
O106_2 O 0.1839(3) 0.74897(16) 0.9476(3)
O112_2 O 0.7693(3) 0.96876(16) 0.6923(3)
O114_2 O 0.2307(3) 0.96876(16) 0.6923(3)
O119_2 O 0.4504(3) 0.71388(15) 0.7385(3)
O120_2 O 0.4485(3) 0.75076(15) 0.6826(3)
O121_2 O 0.8145(3) 0.74977(16) 0.5526(3)
H52_2 H 0.694123 0.984549 0.625437
H69_2 H 0.150854 0.814309 0.965979
H75_2 H 0.317048 0.979989 0.63261
Cu45_7 Cu 0.15860(9) -0.0000 0.55664(8)
Cl2_4 Cl 0.7612 0.5000 0.5242
C97_4 C 0.3075(5) 0.5413(2) 0.7131(4)
C98_4 C 0.3268(5) 0.5713(2) 0.6945(4)
C99_4 C 0.3396(5) 0.5921(2) 0.7321(5)
H37_4 H 0.3425 0.5864 0.7664
C100_4 C 0.3478(5) 0.6219(2) 0.7167(5)
H38_4 H 0.3551 0.6367 0.7413
C101_4 C 0.3455(5) 0.63044(17) 0.6650(4)
C102_4 C 0.3344(5) 0.60952(19) 0.6292(4)
H39_4 H 0.3337 0.6149 0.5946
C103_4 C 0.3239(5) 0.5798(2) 0.6440(4)
C104_4 C 0.3165(5) 0.5564(2) 0.6030(5)
C105_4 C 0.3531(3) 0.66312(7) 0.6514(3)
C106_4 C 0.3894(3) 0.67923(13) 0.6777(3)
H40_4 H 0.4092 0.6696 0.7027
C107_4 C 0.3967(3) 0.70946(13) 0.6674(3)
C108_4 C 0.3677(3) 0.72357(7) 0.6309(3)
H41_4 H 0.3727 0.7442 0.6238
C109_4 C 0.3314(3) 0.70746(15) 0.6046(3)
C110_4 C 0.3241(3) 0.67723(14) 0.6149(3)
H42_4 H 0.2993 0.6662 0.5969
C111_4 C 0.4357(4) 0.7264(2) 0.6975(5)
C112_4 C 0.2994(5) 0.7227(2) 0.5672(4)
O74_4 O 0.2693(3) 0.53124(16) 0.6923(3)
O79_4 O 0.3145(3) 0.75023(16) 0.5526(3)
C113_4 C 0.1925(5) 0.9587(2) 0.7131(4)
C114_4 C 0.1732(5) 0.9287(2) 0.6945(4)
C115_4 C 0.1604(5) 0.9079(2) 0.7321(5)
H43_4 H 0.1575 0.9136 0.7664
C116_4 C 0.1522(5) 0.8781(2) 0.7167(5)
H44_4 H 0.1449 0.8633 0.7413
C117_4 C 0.1545(5) 0.86956(17) 0.6650(4)
C118_4 C 0.1656(5) 0.89048(19) 0.6292(4)
H45_4 H 0.1663 0.8851 0.5946
C119_4 C 0.1761(5) 0.9202(2) 0.6440(4)
C120_4 C 0.1835(5) 0.9436(2) 0.6030(5)
C121_4 C 0.1469(3) 0.83688(7) 0.6514(3)
C122_4 C 0.1106(3) 0.82077(13) 0.6777(3)
H46_4 H 0.0908 0.8304 0.7027
C123_4 C 0.1033(3) 0.79054(13) 0.6674(3)
C124_4 C 0.1323(3) 0.77643(7) 0.6309(3)
H47_4 H 0.1273 0.7558 0.6238
C125_4 C 0.1686(3) 0.79254(15) 0.6046(3)
C126_4 C 0.1759(3) 0.82277(14) 0.6149(3)
H48_4 H 0.2007 0.8338 0.5969
C127_4 C 0.0643(4) 0.7736(2) 0.6975(5)
C128_4 C 0.2006(5) 0.7773(2) 0.5672(4)
O81_4 O 0.1712(4) 0.96855(17) 0.7498(3)
O83_4 O 0.1604(3) 0.96822(14) 0.6061(3)
O84_4 O 0.2139(3) 0.93557(15) 0.5685(3)
O85_4 O 0.0496(3) 0.78612(15) 0.7385(3)
O86_4 O 0.0515(3) 0.74924(15) 0.6826(3)
O88_4 O 0.2382(3) 0.79047(16) 0.5515(3)
Cu23_7 Cu 0.0000 0.72442(4) 0.71773(7)
Cu26_7 Cu -0.0000 0.76931(3) 0.78328(7)
Cu45_8 Cu 0.15860(9) 1.0000 0.55664(8)
Cu53_4 Cu 0.22443(8) 0.95014(4) 0.5000
Cu23_8 Cu 1.0000 0.72442(4) 0.71773(7)
Cu26_8 Cu 1.0000 0.76931(3) 0.78328(7)
Cl2_5 Cl 0.2612 -0.0000 0.4758
O8_3 O 0.1491(6) -0.0000 0.1464(5)
O10_3 O 0.0716(4) -0.0000 0.4484(5)
O91_2 O 0.1621(4) 0.0288(2) 0.5000
Cl1_5 Cl -0.0000 0.5000 0.2751(3)
O1_3 O -0.0000 0.6886(2) 0.3382(4)
Cl2_6 Cl 0.2612 1.0000 0.4758
O2_3 O -0.0000 0.80412(19) 0.1630(4)
O4_3 O -0.0000 0.5707(2) 0.2953(5)
Cu5_2 Cu -0.0000 0.55047(4) 0.23059(9)
O6_3 O -0.0000 0.47112(19) 0.1653(4)
O7_2 O 0.1621(4) 0.9712(2) 0.5000
O8_4 O 0.1491(6) 1.0000 0.1464(5)
O9_3 O 0.3337(5) 0.8120(3) 0.5000
O10_4 O 0.0716(4) 1.0000 0.4484(5)
O12_3 O 0.2907(4) 0.9286(3) 0.5000
C17_3 C 0.1925(5) 0.9587(2) 0.2869(4)
C18_3 C 0.1732(5) 0.9287(2) 0.3055(4)
C19_3 C 0.1604(5) 0.9079(2) 0.2679(5)
H7_3 H 0.1575 0.9136 0.2336
C20_3 C 0.1522(5) 0.8781(2) 0.2833(5)
H8_3 H 0.1449 0.8633 0.2587
C21_3 C 0.1545(5) 0.86956(17) 0.3350(4)
C22_3 C 0.1656(5) 0.89048(19) 0.3708(4)
H9_3 H 0.1663 0.8851 0.4054
C23_3 C 0.1761(5) 0.9202(2) 0.3560(4)
C24_3 C 0.1835(5) 0.9436(2) 0.3970(5)
C25_3 C 0.1469(3) 0.83688(7) 0.3486(3)
C26_3 C 0.1106(3) 0.82077(13) 0.3223(3)
H10_3 H 0.0908 0.8304 0.2973
C27_3 C 0.1033(3) 0.79054(13) 0.3326(3)
C28_3 C 0.1323(3) 0.77643(7) 0.3691(3)
H11_3 H 0.1273 0.7558 0.3762
C29_3 C 0.1686(3) 0.79254(15) 0.3954(3)
C30_3 C 0.1759(3) 0.82277(14) 0.3851(3)
H12_3 H 0.2007 0.8338 0.4031
C31_3 C 0.0643(4) 0.7736(2) 0.3025(5)
C32_3 C 0.2006(5) 0.7773(2) 0.4328(4)
O21_3 O 0.1712(4) 0.96855(17) 0.2502(3)
O23_3 O 0.1604(3) 0.96822(14) 0.3939(3)
O24_3 O 0.2139(3) 0.93557(15) 0.4315(3)
O25_3 O 0.0496(3) 0.78612(15) 0.2615(3)
O26_3 O 0.0515(3) 0.74924(15) 0.3174(3)
O28_3 O 0.2382(3) 0.79047(16) 0.4485(3)
O29_3 O -0.0000 0.3114(2) 0.3382(4)
O30_3 O 0.0000 0.19588(19) 0.1630(4)
O31_5 O 0.3343(5) 0.3117(3) 0.0000
O32_3 O -0.0000 0.4293(2) 0.2953(5)
Cu15_2 Cu -0.0000 0.44953(4) 0.23059(9)
O33_5 O 0.0563(7) 0.5000 0.0761(6)
O34_3 O -0.0000 0.52888(19) 0.1653(4)
Cu16_3 Cu 0.05639(8) 0.5000 0.16601(9)
O37_5 O 0.1808(5) 0.5000 0.3512(5)
C33_3 C 0.1026(5) 0.4434(2) 0.1953(5)
C34_3 C 0.1446(4) 0.4222(2) 0.1812(5)
C35_3 C 0.1316(4) 0.3922(2) 0.1708(5)
H13_3 H 0.0971 0.3865 0.1713
C36_3 C 0.1677(4) 0.37087(18) 0.1599(5)
C37_3 C 0.2169(5) 0.3788(2) 0.1562(5)
H14_3 H 0.2415 0.3645 0.1464
C38_3 C 0.2313(5) 0.4087(2) 0.1673(5)
H15_3 H 0.2657 0.4144 0.1655
C39_3 C 0.1945(5) 0.42984(19) 0.1807(5)
C40_3 C 0.2136(5) 0.4593(2) 0.2019(6)
C41_3 C 0.1548(4) 0.33939(15) 0.1495(4)
C42_3 C 0.1817(4) 0.3229(2) 0.1147(4)
H16_3 H 0.2080 0.3324 0.0963
C43_3 C 0.1715(4) 0.2932(2) 0.1059(4)
C44_3 C 0.1310(4) 0.27959(15) 0.1316(4)
H17_3 H 0.1216 0.2596 0.1238
C45_3 C 0.1055(4) 0.2950(2) 0.1670(4)
C46_3 C 0.1157(4) 0.3252(2) 0.1759(4)
H18_3 H 0.0963 0.3361 0.1996
C47_3 C 0.0655(4) 0.2794(2) 0.1968(4)
C48_3 C 0.2020(4) 0.2772(2) 0.0677(4)
O39_3 O 0.0697(3) 0.43616(14) 0.2224(3)
O40_3 O 0.1075(3) 0.46825(14) 0.1715(3)
O41_3 O 0.1939(4) 0.46917(16) 0.2429(4)
O43_3 O 0.0501(3) 0.29258(14) 0.2369(3)
O44_3 O 0.0513(3) 0.25518(14) 0.1818(3)
O45_3 O 0.2399(3) 0.28850(15) 0.0517(3)
O93_2 O 0.0697(3) 0.56384(14) 0.2224(3)
O95_2 O 0.1075(3) 0.53175(14) 0.1715(3)
O97_2 O 0.1939(4) 0.53083(16) 0.2429(4)
O103_2 O 0.0501(3) 0.70742(14) 0.2369(3)
O105_2 O 0.0513(3) 0.74482(14) 0.1818(3)
H58 H -1.11022e-16 0.823772 0.180518
H62 H -5.55112e-17 0.668887 0.320875
H63 H 0.030543 0.564862 0.314519
H64 H -5.55112e-17 0.592719 0.289948
H69_3 H 0.349146 0.314309 0.0340205
H71 H 0.030543 0.309691 0.359584
H72 H -5.55112e-17 0.331113 0.320875
H73 H 0.030543 0.197515 0.141599
H74 H 1.54074e-33 0.176228 0.180518
H82 H -5.55112e-17 0.407281 0.289948
O31_6 O 0.3343(5) 0.3117(3) 1.0000
C65_3 C 0.1026(5) 0.4434(2) 0.8047(5)
C66_3 C 0.1446(4) 0.4222(2) 0.8188(5)
C67_3 C 0.1316(4) 0.3922(2) 0.8292(5)
H25_3 H 0.0971 0.3865 0.8287
C68_3 C 0.1677(4) 0.37087(18) 0.8401(5)
C69_3 C 0.2169(5) 0.3788(2) 0.8438(5)
H26_3 H 0.2415 0.3645 0.8536
C70_3 C 0.2313(5) 0.4087(2) 0.8327(5)
H27_3 H 0.2657 0.4144 0.8345
C71_3 C 0.1945(5) 0.42984(19) 0.8193(5)
C72_3 C 0.2136(5) 0.4593(2) 0.7981(6)
C73_3 C 0.1548(4) 0.33939(15) 0.8505(4)
C74_3 C 0.1817(4) 0.3229(2) 0.8853(4)
H28_3 H 0.2080 0.3324 0.9037
C75_3 C 0.1715(4) 0.2932(2) 0.8941(4)
C76_3 C 0.1310(4) 0.27959(15) 0.8684(4)
H29_3 H 0.1216 0.2596 0.8762
C77_3 C 0.1055(4) 0.2950(2) 0.8330(4)
C78_3 C 0.1157(4) 0.3252(2) 0.8241(4)
H30_3 H 0.0963 0.3361 0.8004
C79_3 C 0.0655(4) 0.2794(2) 0.8032(4)
C80_3 C 0.2020(4) 0.2772(2) 0.9323(4)
O55_2 O 0.0697(3) 0.43616(14) 0.7776(3)
O56_2 O 0.1075(3) 0.46825(14) 0.8285(3)
O57_2 O 0.1939(4) 0.46917(16) 0.7571(4)
O59_2 O 0.0501(3) 0.29258(14) 0.7631(3)
O60_2 O 0.0513(3) 0.25518(14) 0.8182(3)
O61_3 O 0.2399(3) 0.28850(15) 0.9483(3)
Cu34_2 Cu -0.0000 0.55047(4) 0.76941(9)
Cu35_2 Cu -0.0000 0.44953(4) 0.76941(9)
Cu36_3 Cu 0.05639(8) 0.5000 0.83399(9)
H70_3 H 0.361676 0.308652 0.975053
O71_3 O 0.8509(6) -0.0000 0.1464(5)
O72_3 O 0.9284(4) -0.0000 0.4484(5)
O89_2 O 0.8379(4) 0.0288(2) 0.5000
O110_3 O 0.8288(4) 0.03145(17) 0.2502(3)
O115_3 O 0.8396(3) 0.03178(14) 0.3939(3)
Cl1_6 Cl 1.0000 0.5000 0.2751(3)
O1_4 O 1.0000 0.6886(2) 0.3382(4)
O2_4 O 1.0000 0.80412(19) 0.1630(4)
O3_5 O 0.6657(5) 0.6883(3) 0.0000
O4_4 O 1.0000 0.5707(2) 0.2953(5)
Cu5_3 Cu 1.0000 0.55047(4) 0.23059(9)
O5_5 O 0.9437(7) 0.5000 0.0761(6)
O6_4 O 1.0000 0.47112(19) 0.1653(4)
Cu6_3 Cu 0.94361(8) 0.5000 0.16601(9)
O11_5 O 0.8192(5) 0.5000 0.3512(5)
C1_3 C 0.8974(5) 0.5566(2) 0.1953(5)
C2_3 C 0.8554(4) 0.5778(2) 0.1812(5)
C3_3 C 0.8684(4) 0.6078(2) 0.1708(5)
H1_3 H 0.9029 0.6135 0.1713
C4_3 C 0.8323(4) 0.62913(18) 0.1599(5)
C5_3 C 0.7831(5) 0.6212(2) 0.1562(5)
H2_3 H 0.7585 0.6355 0.1464
C6_3 C 0.7687(5) 0.5913(2) 0.1673(5)
H3_3 H 0.7343 0.5856 0.1655
C7_3 C 0.8055(5) 0.57016(19) 0.1807(5)
C8_3 C 0.7864(5) 0.5407(2) 0.2019(6)
C9_3 C 0.8452(4) 0.66061(15) 0.1495(4)
C10_3 C 0.8183(4) 0.6771(2) 0.1147(4)
H4_3 H 0.7920 0.6676 0.0963
C11_3 C 0.8285(4) 0.7068(2) 0.1059(4)
C12_3 C 0.8690(4) 0.72041(15) 0.1316(4)
H5_3 H 0.8784 0.7404 0.1238
C13_3 C 0.8945(4) 0.7050(2) 0.1670(4)
C14_3 C 0.8843(4) 0.6748(2) 0.1759(4)
H6_3 H 0.9037 0.6639 0.1996
C15_3 C 0.9345(4) 0.7206(2) 0.1968(4)
C16_3 C 0.7980(4) 0.7228(2) 0.0677(4)
O13_3 O 0.9303(3) 0.56384(14) 0.2224(3)
O14_3 O 0.8925(3) 0.53175(14) 0.1715(3)
O15_3 O 0.8061(4) 0.53083(16) 0.2429(4)
O17_3 O 0.9499(3) 0.70742(14) 0.2369(3)
O18_3 O 0.9487(3) 0.74482(14) 0.1818(3)
O19_3 O 0.7601(3) 0.71150(15) 0.0517(3)
O29_4 O 1.0000 0.3114(2) 0.3382(4)
O30_4 O 1.0000 0.19588(19) 0.1630(4)
O32_4 O 1.0000 0.4293(2) 0.2953(5)
Cu15_3 Cu 1.0000 0.44953(4) 0.23059(9)
O34_4 O 1.0000 0.52888(19) 0.1653(4)
O36_3 O 0.6663(5) 0.1880(3) 0.5000
O38_3 O 0.7093(4) 0.0714(3) 0.5000
C49_3 C 0.8075(5) 0.0413(2) 0.2869(4)
C50_3 C 0.8268(5) 0.0713(2) 0.3055(4)
C51_3 C 0.8396(5) 0.0921(2) 0.2679(5)
H19_3 H 0.8425 0.0864 0.2336
C52_3 C 0.8478(5) 0.1219(2) 0.2833(5)
H20_3 H 0.8551 0.1367 0.2587
C53_3 C 0.8455(5) 0.13044(17) 0.3350(4)
C54_3 C 0.8344(5) 0.10952(19) 0.3708(4)
H21_3 H 0.8337 0.1149 0.4054
C55_3 C 0.8239(5) 0.0798(2) 0.3560(4)
C56_3 C 0.8165(5) 0.0564(2) 0.3970(5)
C57_3 C 0.8531(3) 0.16312(7) 0.3486(3)
C58_3 C 0.8894(3) 0.17923(13) 0.3223(3)
H22_3 H 0.9092 0.1696 0.2973
C59_3 C 0.8967(3) 0.20946(13) 0.3326(3)
C60_3 C 0.8677(3) 0.22357(7) 0.3691(3)
H23_3 H 0.8727 0.2442 0.3762
C61_3 C 0.8314(3) 0.20746(15) 0.3954(3)
C62_3 C 0.8241(3) 0.17723(14) 0.3851(3)
H24_3 H 0.7993 0.1662 0.4031
C63_3 C 0.9357(4) 0.2264(2) 0.3025(5)
C64_3 C 0.7994(5) 0.2227(2) 0.4328(4)
O50_3 O 0.7861(3) 0.06443(15) 0.4315(3)
O51_3 O 0.9504(3) 0.21388(15) 0.2615(3)
O52_3 O 0.9485(3) 0.25076(15) 0.3174(3)
O54_3 O 0.7618(3) 0.20953(16) 0.4485(3)
O71_4 O 0.8509(6) 1.0000 0.1464(5)
O72_4 O 0.9284(4) 1.0000 0.4484(5)
O90_2 O 0.8379(4) 0.9712(2) 0.5000
O92_2 O 0.9303(3) 0.43616(14) 0.2224(3)
O94_2 O 0.8925(3) 0.46825(14) 0.1715(3)
O96_2 O 0.8061(4) 0.46917(16) 0.2429(4)
O102_2 O 0.9499(3) 0.29258(14) 0.2369(3)
O104_2 O 0.9487(3) 0.25518(14) 0.1818(3)
H57 H 0.969457 0.802485 0.141599
H58_2 H 1 0.823772 0.180518
H59_3 H 0.650854 0.685691 0.0340205
H61 H 0.969457 0.690309 0.359584
H62_2 H 1 0.668887 0.320875
H64_2 H 1 0.592719 0.289948
H72_2 H 1 0.331113 0.320875
H74_2 H 1 0.176228 0.180518
H81 H 0.969457 0.435138 0.314519
H82_2 H 1 0.407281 0.289948
O3_6 O 0.6657(5) 0.6883(3) 1.0000
C81_3 C 0.8974(5) 0.5566(2) 0.8047(5)
C82_3 C 0.8554(4) 0.5778(2) 0.8188(5)
C83_3 C 0.8684(4) 0.6078(2) 0.8292(5)
H31_3 H 0.9029 0.6135 0.8287
C84_3 C 0.8323(4) 0.62913(18) 0.8401(5)
C85_3 C 0.7831(5) 0.6212(2) 0.8438(5)
H32_3 H 0.7585 0.6355 0.8536
C86_3 C 0.7687(5) 0.5913(2) 0.8327(5)
H33_3 H 0.7343 0.5856 0.8345
C87_3 C 0.8055(5) 0.57016(19) 0.8193(5)
C88_3 C 0.7864(5) 0.5407(2) 0.7981(6)
C89_3 C 0.8452(4) 0.66061(15) 0.8505(4)
C90_3 C 0.8183(4) 0.6771(2) 0.8853(4)
H34_3 H 0.7920 0.6676 0.9037
C91_3 C 0.8285(4) 0.7068(2) 0.8941(4)
C92_3 C 0.8690(4) 0.72041(15) 0.8684(4)
H35_3 H 0.8784 0.7404 0.8762
C93_3 C 0.8945(4) 0.7050(2) 0.8330(4)
C94_3 C 0.8843(4) 0.6748(2) 0.8241(4)
H36_3 H 0.9037 0.6639 0.8004
C95_3 C 0.9345(4) 0.7206(2) 0.8032(4)
C96_3 C 0.7980(4) 0.7228(2) 0.9323(4)
O63_2 O 0.9303(3) 0.56384(14) 0.7776(3)
O64_2 O 0.8925(3) 0.53175(14) 0.8285(3)
O65_2 O 0.8061(4) 0.53083(16) 0.7571(4)
O67_2 O 0.9499(3) 0.70742(14) 0.7631(3)
O68_2 O 0.9487(3) 0.74482(14) 0.8182(3)
O69_3 O 0.7601(3) 0.71150(15) 0.9483(3)
Cu34_3 Cu 1.0000 0.55047(4) 0.76941(9)
Cu35_3 Cu 1.0000 0.44953(4) 0.76941(9)
Cu37_3 Cu 0.94361(8) 0.5000 0.83399(9)
H60_3 H 0.638324 0.691348 0.975053
Cl2_7 Cl 0.7388 0.0000 0.4758
Cl2_8 Cl 0.7388 1.0000 0.4758
O71_5 O 0.1491(6) -0.0000 0.8536(5)
O72_5 O 0.0716(4) -0.0000 0.5516(5)
O110_4 O 0.1712(4) 0.03145(17) 0.7498(3)
O115_4 O 0.1604(3) 0.03178(14) 0.6061(3)
O3_7 O 0.3343(5) 0.6883(3) 0.0000
C81_4 C 0.1026(5) 0.5566(2) 0.1953(5)
C82_4 C 0.1446(4) 0.5778(2) 0.1812(5)
C83_4 C 0.1316(4) 0.6078(2) 0.1708(5)
H31_4 H 0.0971 0.6135 0.1713
C84_4 C 0.1677(4) 0.62913(18) 0.1599(5)
C85_4 C 0.2169(5) 0.6212(2) 0.1562(5)
H32_4 H 0.2415 0.6355 0.1464
C86_4 C 0.2313(5) 0.5913(2) 0.1673(5)
H33_4 H 0.2657 0.5856 0.1655
C87_4 C 0.1945(5) 0.57016(19) 0.1807(5)
C88_4 C 0.2136(5) 0.5407(2) 0.2019(6)
C89_4 C 0.1548(4) 0.66061(15) 0.1495(4)
C90_4 C 0.1817(4) 0.6771(2) 0.1147(4)
H34_4 H 0.2080 0.6676 0.0963
C91_4 C 0.1715(4) 0.7068(2) 0.1059(4)
C92_4 C 0.1310(4) 0.72041(15) 0.1316(4)
H35_4 H 0.1216 0.7404 0.1238
C93_4 C 0.1055(4) 0.7050(2) 0.1670(4)
C94_4 C 0.1157(4) 0.6748(2) 0.1759(4)
H36_4 H 0.0963 0.6639 0.1996
C95_4 C 0.0655(4) 0.7206(2) 0.1968(4)
C96_4 C 0.2020(4) 0.7228(2) 0.0677(4)
O69_4 O 0.2399(3) 0.71150(15) 0.0517(3)
H60_4 H 0.361676 0.691348 0.024947
Cl1_7 Cl 0.0000 0.5000 0.7249(3)
O1_5 O 0.0000 0.6886(2) 0.6618(4)
O2_5 O 0.0000 0.80412(19) 0.8370(4)
O3_8 O 0.3343(5) 0.6883(3) 1.0000
O4_5 O 0.0000 0.5707(2) 0.7047(5)
O5_6 O 0.0563(7) 0.5000 0.9239(6)
O6_5 O 0.0000 0.47112(19) 0.8347(4)
O11_6 O 0.1808(5) 0.5000 0.6488(5)
C1_4 C 0.1026(5) 0.5566(2) 0.8047(5)
C2_4 C 0.1446(4) 0.5778(2) 0.8188(5)
C3_4 C 0.1316(4) 0.6078(2) 0.8292(5)
H1_4 H 0.0971 0.6135 0.8287
C4_4 C 0.1677(4) 0.62913(18) 0.8401(5)
C5_4 C 0.2169(5) 0.6212(2) 0.8438(5)
H2_4 H 0.2415 0.6355 0.8536
C6_4 C 0.2313(5) 0.5913(2) 0.8327(5)
H3_4 H 0.2657 0.5856 0.8345
C7_4 C 0.1945(5) 0.57016(19) 0.8193(5)
C8_4 C 0.2136(5) 0.5407(2) 0.7981(6)
C9_4 C 0.1548(4) 0.66061(15) 0.8505(4)
C10_4 C 0.1817(4) 0.6771(2) 0.8853(4)
H4_4 H 0.2080 0.6676 0.9037
C11_4 C 0.1715(4) 0.7068(2) 0.8941(4)
C12_4 C 0.1310(4) 0.72041(15) 0.8684(4)
H5_4 H 0.1216 0.7404 0.8762
C13_4 C 0.1055(4) 0.7050(2) 0.8330(4)
C14_4 C 0.1157(4) 0.6748(2) 0.8241(4)
H6_4 H 0.0963 0.6639 0.8004
C15_4 C 0.0655(4) 0.7206(2) 0.8032(4)
C16_4 C 0.2020(4) 0.7228(2) 0.9323(4)
O13_4 O 0.0697(3) 0.56384(14) 0.7776(3)
O14_4 O 0.1075(3) 0.53175(14) 0.8285(3)
O15_4 O 0.1939(4) 0.53083(16) 0.7571(4)
O17_4 O 0.0501(3) 0.70742(14) 0.7631(3)
O18_4 O 0.0513(3) 0.74482(14) 0.8182(3)
O19_4 O 0.2399(3) 0.71150(15) 0.9483(3)
O29_5 O 0.0000 0.3114(2) 0.6618(4)
O30_5 O 0.0000 0.19588(19) 0.8370(4)
O32_5 O 0.0000 0.4293(2) 0.7047(5)
O34_5 O 0.0000 0.52888(19) 0.8347(4)
O36_4 O 0.3337(5) 0.1880(3) 0.5000
O38_4 O 0.2907(4) 0.0714(3) 0.5000
C49_4 C 0.1925(5) 0.0413(2) 0.7131(4)
C50_4 C 0.1732(5) 0.0713(2) 0.6945(4)
C51_4 C 0.1604(5) 0.0921(2) 0.7321(5)
H19_4 H 0.1575 0.0864 0.7664
C52_4 C 0.1522(5) 0.1219(2) 0.7167(5)
H20_4 H 0.1449 0.1367 0.7413
C53_4 C 0.1545(5) 0.13044(17) 0.6650(4)
C54_4 C 0.1656(5) 0.10952(19) 0.6292(4)
H21_4 H 0.1663 0.1149 0.5946
C55_4 C 0.1761(5) 0.0798(2) 0.6440(4)
C56_4 C 0.1835(5) 0.0564(2) 0.6030(5)
C57_4 C 0.1469(3) 0.16312(7) 0.6514(3)
C58_4 C 0.1106(3) 0.17923(13) 0.6777(3)
H22_4 H 0.0908 0.1696 0.7027
C59_4 C 0.1033(3) 0.20946(13) 0.6674(3)
C60_4 C 0.1323(3) 0.22357(7) 0.6309(3)
H23_4 H 0.1273 0.2442 0.6238
C61_4 C 0.1686(3) 0.20746(15) 0.6046(3)
C62_4 C 0.1759(3) 0.17723(14) 0.6149(3)
H24_4 H 0.2007 0.1662 0.5969
C63_4 C 0.0643(4) 0.2264(2) 0.6975(5)
C64_4 C 0.2006(5) 0.2227(2) 0.5672(4)
O50_4 O 0.2139(3) 0.06443(15) 0.5685(3)
O51_4 O 0.0496(3) 0.21388(15) 0.7385(3)
O52_4 O 0.0515(3) 0.25076(15) 0.6826(3)
O54_4 O 0.2382(3) 0.20953(16) 0.5515(3)
O71_6 O 0.1491(6) 1.0000 0.8536(5)
O72_6 O 0.0716(4) 1.0000 0.5516(5)
H57_2 H 0.030543 0.802485 0.858401
H58_3 H 1.11022e-16 0.823772 0.819482
H59_4 H 0.349146 0.685691 0.965979
H61_2 H 0.030543 0.690309 0.640416
H62_3 H 5.55112e-17 0.668887 0.679125
H64_3 H 5.55112e-17 0.592719 0.710052
H72_3 H 5.55112e-17 0.331113 0.679125
H74_3 H -2.46519e-32 0.176228 0.819482
H81_2 H 0.030543 0.435138 0.685481
H82_3 H 5.55112e-17 0.407281 0.710052
Cl2_9 Cl 0.7388 -0.0000 0.5242
O8_5 O 0.8509(6) -0.0000 0.8536(5)
O10_5 O 0.9284(4) -0.0000 0.5516(5)
O31_7 O 0.6657(5) 0.3117(3) 0.0000
C65_4 C 0.8974(5) 0.4434(2) 0.1953(5)
C66_4 C 0.8554(4) 0.4222(2) 0.1812(5)
C67_4 C 0.8684(4) 0.3922(2) 0.1708(5)
H25_4 H 0.9029 0.3865 0.1713
C68_4 C 0.8323(4) 0.37087(18) 0.1599(5)
C69_4 C 0.7831(5) 0.3788(2) 0.1562(5)
H26_4 H 0.7585 0.3645 0.1464
C70_4 C 0.7687(5) 0.4087(2) 0.1673(5)
H27_4 H 0.7343 0.4144 0.1655
C71_4 C 0.8055(5) 0.42984(19) 0.1807(5)
C72_4 C 0.7864(5) 0.4593(2) 0.2019(6)
C73_4 C 0.8452(4) 0.33939(15) 0.1495(4)
C74_4 C 0.8183(4) 0.3229(2) 0.1147(4)
H28_4 H 0.7920 0.3324 0.0963
C75_4 C 0.8285(4) 0.2932(2) 0.1059(4)
C76_4 C 0.8690(4) 0.27959(15) 0.1316(4)
H29_4 H 0.8784 0.2596 0.1238
C77_4 C 0.8945(4) 0.2950(2) 0.1670(4)
C78_4 C 0.8843(4) 0.3252(2) 0.1759(4)
H30_4 H 0.9037 0.3361 0.1996
C79_4 C 0.9345(4) 0.2794(2) 0.1968(4)
C80_4 C 0.7980(4) 0.2772(2) 0.0677(4)
O61_4 O 0.7601(3) 0.28850(15) 0.0517(3)
H70_4 H 0.638324 0.308652 0.024947
Cl1_8 Cl 1.0000 0.5000 0.7249(3)
O1_6 O 1.0000 0.6886(2) 0.6618(4)
Cl2_10 Cl 0.7388 1.0000 0.5242
O2_6 O 1.0000 0.80412(19) 0.8370(4)
O4_6 O 1.0000 0.5707(2) 0.7047(5)
O6_6 O 1.0000 0.47112(19) 0.8347(4)
O8_6 O 0.8509(6) 1.0000 0.8536(5)
O9_4 O 0.6663(5) 0.8120(3) 0.5000
O10_6 O 0.9284(4) 1.0000 0.5516(5)
O12_4 O 0.7093(4) 0.9286(3) 0.5000
C17_4 C 0.8075(5) 0.9587(2) 0.7131(4)
C18_4 C 0.8268(5) 0.9287(2) 0.6945(4)
C19_4 C 0.8396(5) 0.9079(2) 0.7321(5)
H7_4 H 0.8425 0.9136 0.7664
C20_4 C 0.8478(5) 0.8781(2) 0.7167(5)
H8_4 H 0.8551 0.8633 0.7413
C21_4 C 0.8455(5) 0.86956(17) 0.6650(4)
C22_4 C 0.8344(5) 0.89048(19) 0.6292(4)
H9_4 H 0.8337 0.8851 0.5946
C23_4 C 0.8239(5) 0.9202(2) 0.6440(4)
C24_4 C 0.8165(5) 0.9436(2) 0.6030(5)
C25_4 C 0.8531(3) 0.83688(7) 0.6514(3)
C26_4 C 0.8894(3) 0.82077(13) 0.6777(3)
H10_4 H 0.9092 0.8304 0.7027
C27_4 C 0.8967(3) 0.79054(13) 0.6674(3)
C28_4 C 0.8677(3) 0.77643(7) 0.6309(3)
H11_4 H 0.8727 0.7558 0.6238
C29_4 C 0.8314(3) 0.79254(15) 0.6046(3)
C30_4 C 0.8241(3) 0.82277(14) 0.6149(3)
H12_4 H 0.7993 0.8338 0.5969
C31_4 C 0.9357(4) 0.7736(2) 0.6975(5)
C32_4 C 0.7994(5) 0.7773(2) 0.5672(4)
O21_4 O 0.8288(4) 0.96855(17) 0.7498(3)
O23_4 O 0.8396(3) 0.96822(14) 0.6061(3)
O24_4 O 0.7861(3) 0.93557(15) 0.5685(3)
O25_4 O 0.9504(3) 0.78612(15) 0.7385(3)
O26_4 O 0.9485(3) 0.74924(15) 0.6826(3)
O28_4 O 0.7618(3) 0.79047(16) 0.5515(3)
O29_6 O 1.0000 0.3114(2) 0.6618(4)
O30_6 O 1.0000 0.19588(19) 0.8370(4)
O31_8 O 0.6657(5) 0.3117(3) 1.0000
O32_6 O 1.0000 0.4293(2) 0.7047(5)
O33_6 O 0.9437(7) 0.5000 0.9239(6)
O34_6 O 1.0000 0.52888(19) 0.8347(4)
O37_6 O 0.8192(5) 0.5000 0.6488(5)
C33_4 C 0.8974(5) 0.4434(2) 0.8047(5)
C34_4 C 0.8554(4) 0.4222(2) 0.8188(5)
C35_4 C 0.8684(4) 0.3922(2) 0.8292(5)
H13_4 H 0.9029 0.3865 0.8287
C36_4 C 0.8323(4) 0.37087(18) 0.8401(5)
C37_4 C 0.7831(5) 0.3788(2) 0.8438(5)
H14_4 H 0.7585 0.3645 0.8536
C38_4 C 0.7687(5) 0.4087(2) 0.8327(5)
H15_4 H 0.7343 0.4144 0.8345
C39_4 C 0.8055(5) 0.42984(19) 0.8193(5)
C40_4 C 0.7864(5) 0.4593(2) 0.7981(6)
C41_4 C 0.8452(4) 0.33939(15) 0.8505(4)
C42_4 C 0.8183(4) 0.3229(2) 0.8853(4)
H16_4 H 0.7920 0.3324 0.9037
C43_4 C 0.8285(4) 0.2932(2) 0.8941(4)
C44_4 C 0.8690(4) 0.27959(15) 0.8684(4)
H17_4 H 0.8784 0.2596 0.8762
C45_4 C 0.8945(4) 0.2950(2) 0.8330(4)
C46_4 C 0.8843(4) 0.3252(2) 0.8241(4)
H18_4 H 0.9037 0.3361 0.8004
C47_4 C 0.9345(4) 0.2794(2) 0.8032(4)
C48_4 C 0.7980(4) 0.2772(2) 0.9323(4)
O39_4 O 0.9303(3) 0.43616(14) 0.7776(3)
O40_4 O 0.8925(3) 0.46825(14) 0.8285(3)
O41_4 O 0.8061(4) 0.46917(16) 0.7571(4)
O43_4 O 0.9499(3) 0.29258(14) 0.7631(3)
O44_4 O 0.9487(3) 0.25518(14) 0.8182(3)
O45_4 O 0.7601(3) 0.28850(15) 0.9483(3)
H58_4 H 1 0.823772 0.819482
H62_4 H 1 0.668887 0.679125
H63_2 H 0.969457 0.564862 0.685481
H64_4 H 1 0.592719 0.710052
H69_4 H 0.650854 0.314309 0.965979
H71_2 H 0.969457 0.309691 0.640416
H72_4 H 1 0.331113 0.679125
H73_2 H 0.969457 0.197515 0.858401
H74_4 H 1 0.176228 0.819482
H82_4 H 1 0.407281 0.710052
Cl2_11 Cl 0.2612 0.0000 0.5242
Cl2_12 Cl 0.2612 1.0000 0.5242
H70_5 H 0.138324 0.191348 0.024947
H52_3 H 0.694123 0.0154511 0.625437
H69_5 H 0.150854 0.185691 0.965979
H75_3 H 0.317048 0.020011 0.63261
H60_5 H 0.861676 0.808652 0.024947
H51_3 H 0.682952 0.979989 0.63261
H59_5 H 0.849146 0.814309 0.965979
H76_3 H 0.305877 0.984549 0.625437
H52_4 H 0.305877 0.0154511 0.374563
H69_6 H 0.849146 0.185691 0.0340205
H75_4 H 0.682952 0.020011 0.36739
H70_6 H 0.861676 0.191348 0.975053
H51_4 H 0.317048 0.979989 0.36739
H59_6 H 0.150854 0.814309 0.0340205
H76_4 H 0.694123 0.984549 0.374563
H60_6 H 0.138324 0.808652 0.975053
H60_7 H 0.361676 0.308652 0.024947
H57_3 H 0.030543 0.197515 0.858401
H59_7 H 0.349146 0.314309 0.965979
H61_3 H 0.030543 0.309691 0.640416
H81_3 H 0.030543 0.564862 0.685481
H70_7 H 0.638324 0.691348 0.024947
H63_3 H 0.969457 0.435138 0.685481
H69_7 H 0.650854 0.685691 0.965979
H71_3 H 0.969457 0.690309 0.640416
H73_3 H 0.969457 0.802485 0.858401
H63_4 H 0.030543 0.435138 0.314519
H69_8 H 0.349146 0.685691 0.0340205
H71_4 H 0.030543 0.690309 0.359584
H73_4 H 0.030543 0.802485 0.141599
H70_8 H 0.361676 0.691348 0.975053
H57_4 H 0.969457 0.197515 0.141599
H59_8 H 0.650854 0.314309 0.0340205
H61_4 H 0.969457 0.309691 0.359584
H81_4 H 0.969457 0.564862 0.314519
H60_8 H 0.638324 0.308652 0.975053
loop_
_geom_bond_atom_site_label_1
_geom_bond_atom_site_label_2
_geom_bond_site_symmetry_1
_geom_bond_site_symmetry_2
Cu1 O1 1_555 1_555
Cl1 Cu5 1_555 1_555
Cu2 Cu1 1_555 1_555
Cl2 Cu8 1_555 1_555
O2 Cu2 1_555 1_555
Cu3 O3 1_555 1_555
O4 Cu5 1_555 1_555
Cu4 O11 1_555 1_555
Cu5 O13 1_555 1_555
O5 Cu6 1_555 1_555
Cu6 O14 1_555 1_555
Cu7 O9 1_555 1_555
Cu8 O7 1_555 1_555
O7 Cu10 1_555 1_555
Cu9 O8 1_555 1_555
O10 Cu8 1_555 1_555
Cu10 Cl2 1_555 1_555
O12 Cu10 1_555 1_555
C1 C2 1_555 1_555
C2 C3 1_555 1_555
C3 H1 1_555 1_555
C4 C3 1_555 1_555
C5 C4 1_555 1_555
H2 C5 1_555 1_555
C6 C5 1_555 1_555
H3 C6 1_555 1_555
C7 C2 1_555 1_555
C8 C7 1_555 1_555
C9 C4 1_555 1_555
C10 C9 1_555 1_555
H4 C10 1_555 1_555
C11 C10 1_555 1_555
C12 C11 1_555 1_555
H5 C12 1_555 1_555
C13 C12 1_555 1_555
C14 C9 1_555 1_555
H6 C14 1_555 1_555
C15 C13 1_555 1_555
C16 C11 1_555 1_555
O13 C1 1_555 1_555
O14 C1 1_555 1_555
O15 Cu4 1_555 1_555
O16 C8 1_555 1_555
O17 Cu1 1_555 1_555
O18 Cu2 1_555 1_555
O19 Cu3 1_555 1_555
O20 C16 1_555 1_555
C17 C18 1_555 1_555
C18 C19 1_555 1_555
C19 H7 1_555 1_555
C20 C19 1_555 1_555
H8 C20 1_555 1_555
C21 C20 1_555 1_555
C22 C21 1_555 1_555
H9 C22 1_555 1_555
C23 C18 1_555 1_555
C24 C23 1_555 1_555
C25 C21 1_555 1_555
C26 C25 1_555 1_555
H10 C26 1_555 1_555
C27 C26 1_555 1_555
C28 C27 1_555 1_555
H11 C28 1_555 1_555
C29 C28 1_555 1_555
C30 C25 1_555 1_555
H12 C30 1_555 1_555
C31 C27 1_555 1_555
C32 C29 1_555 1_555
O21 Cu9 1_555 1_555
O22 C17 1_555 1_555
O23 Cu8 1_555 1_555
O24 Cu10 1_555 1_555
O25 Cu2 1_555 1_555
O26 Cu1 1_555 1_555
O27 C32 1_555 1_555
O28 Cu7 1_555 1_555
Cu14 O37 1_555 1_555
O33 Cu16 1_555 1_555
O34 Cu5 1_555 1_555
Cu19 O72 1_555 1_555
Cu20 O71 1_555 1_555
C97 C98 1_555 1_555
C98 C99 1_555 1_555
C99 H37 1_555 1_555
C100 C99 1_555 1_555
H38 C100 1_555 1_555
C101 C100 1_555 1_555
C102 C101 1_555 1_555
H39 C102 1_555 1_555
C103 C98 1_555 1_555
C104 C103 1_555 1_555
C105 C101 1_555 1_555
C106 C105 1_555 1_555
H40 C106 1_555 1_555
C107 C106 1_555 1_555
C108 C107 1_555 1_555
H41 C108 1_555 1_555
C109 C108 1_555 1_555
C110 C105 1_555 1_555
H42 C110 1_555 1_555
C111 C107 1_555 1_555
C112 C109 1_555 1_555
O73 Cu20 1_555 1_555
O74 C97 1_555 1_555
O75 Cu19 1_555 1_555
O76 C104 1_555 1_555
O77 Cu2 1_555 1_555
O78 Cu1 1_555 1_555
O79 C112 1_555 1_555
O80 C112 1_555 1_555
C113 C114 1_555 1_555
C114 C115 1_555 1_555
C115 H43 1_555 1_555
C116 C115 1_555 1_555
H44 C116 1_555 1_555
C117 C116 1_555 1_555
C118 C117 1_555 1_555
H45 C118 1_555 1_555
C119 C114 1_555 1_555
C120 C119 1_555 1_555
C121 C117 1_555 1_555
C122 C121 1_555 1_555
H46 C122 1_555 1_555
C123 C122 1_555 1_555
C124 C123 1_555 1_555
H47 C124 1_555 1_555
C125 C124 1_555 1_555
C126 C121 1_555 1_555
H48 C126 1_555 1_555
C127 C123 1_555 1_555
C128 C125 1_555 1_555
O81 C113 1_555 1_555
O82 Cu4 1_555 1_555
O83 C120 1_555 1_555
O84 C120 1_555 1_555
O85 C127 1_555 1_555
O86 C127 1_555 1_555
O87 C128 1_555 1_555
O88 C128 1_555 1_555
Cu23 O86 1_555 1_555
Cu26 O85 1_555 1_555
Cu28 Cu3 1_555 1_555
Cu31 Cu9 1_555 1_555
Cu33 Cu20 1_555 1_555
Cu38 O80 1_555 1_555
Cu40 Cu7 1_555 1_555
Cu41 O79 1_555 1_555
Cu44 O7 1_555 1_555
Cu45 O83 1_555 1_555
O89 Cu19 1_555 1_555
O90 Cu19 1_555 1_555
O91 Cu8 1_555 1_555
Cu47 Cu4 1_555 1_555
Cu48 Cu14 1_555 1_555
Cu51 O76 1_555 1_555
Cu52 Cl2 1_555 1_555
Cu53 O84 1_555 1_555
O93 Cu5 1_555 1_555
O95 Cu16 1_555 1_555
O97 Cu14 1_555 1_555
O98 Cu9 1_555 1_555
O99 Cu20 1_555 1_555
O100 Cu9 1_555 1_555
O101 Cu20 1_555 1_555
O103 Cu1 1_555 1_555
O105 Cu2 1_555 1_555
O107 Cu3 1_555 1_555
O110 Cu20 1_555 1_555
O111 Cu9 1_555 1_555
O113 Cu14 1_555 1_555
O115 Cu19 1_555 1_555
O116 Cu8 1_555 1_555
O118 Cu10 1_555 1_555
O122 Cu7 1_555 1_555
O123 Cu7 1_555 1_555
O126 Cu7 1_555 1_555
Cu6 O34 1_555 1_555
C6 C7 1_555 1_555
C8 O15 1_555 1_555
C13 C14 1_555 1_555
C15 O17 1_555 1_555
C15 O18 1_555 1_555
C16 O19 1_555 1_555
O16 Cu47 1_555 1_555
O20 Cu28 1_555 1_555
C17 O21 1_555 1_555
C22 C23 1_555 1_555
C24 O23 1_555 1_555
C24 O24 1_555 1_555
C29 C30 1_555 1_555
C31 O25 1_555 1_555
C31 O26 1_555 1_555
C32 O28 1_555 1_555
O22 Cu31 1_555 1_555
O27 Cu40 1_555 1_555
O34 Cu16 1_555 1_555
C97 O73 1_555 1_555
C102 C103 1_555 1_555
C104 O75 1_555 1_555
C109 C110 1_555 1_555
C111 O77 1_555 1_555
C111 O78 1_555 1_555
O74 Cu33 1_555 1_555
C113 O82 1_555 1_555
C118 C119 1_555 1_555
C125 C126 1_555 1_555
O81 Cu47 1_555 1_555
O87 Cu38 1_555 1_555
O88 Cu41 1_555 1_555
Cu23 Cu26 1_555 1_555
Cu38 Cu41 1_555 1_555
Cu44 O91 1_555 1_555
O90 Cu51 1_555 1_555
O91 Cu52 1_555 1_555
O11 H51 1_555 1_555
O3 H59 1_555 1_555
O37 H76 1_555 1_555
Cu3_2 O3_2 1_555 1_555
C81 C82 1_555 1_555
C82 C83 1_555 1_555
C83 H31 1_555 1_555
C84 C83 1_555 1_555
C85 C84 1_555 1_555
H32 C85 1_555 1_555
C86 C85 1_555 1_555
H33 C86 1_555 1_555
C87 C82 1_555 1_555
C88 C87 1_555 1_555
C89 C84 1_555 1_555
C90 C89 1_555 1_555
H34 C90 1_555 1_555
C91 C90 1_555 1_555
C92 C91 1_555 1_555
H35 C92 1_555 1_555
C93 C92 1_555 1_555
C94 C89 1_555 1_555
H36 C94 1_555 1_555
C95 C93 1_555 1_555
C96 C91 1_555 1_555
O63 C81 1_555 1_555
O64 C81 1_555 1_555
O65 C88 1_555 1_555
O66 C88 1_555 1_555
O67 C95 1_555 1_555
O68 C95 1_555 1_555
O69 Cu3_2 1_555 1_555
O70 C96 1_555 1_555
Cu21 O67 1_555 1_555
Cu24 O68 1_555 1_555
Cu28_2 Cu3_2 1_555 1_555
Cu30 O65 1_555 1_555
Cu34 O63 1_555 1_555
Cu37 O64 1_555 1_555
Cu50 O66 1_555 1_555
O108 Cu3_2 1_555 1_555
C86 C87 1_555 1_555
C93 C94 1_555 1_555
C96 O69 1_555 1_555
O70 Cu28_2 1_555 1_555
Cu21 Cu24 1_555 1_555
Cu29 Cu49 1_555 1_555
Cu30 Cu50 1_555 1_555
O3_2 H60 1_555 1_555
Cu4_2 O11_2 1_555 1_555
O5_2 Cu6_2 1_555 1_555
O6 Cu6_2 1_555 1_555
Cu11 O29 1_555 1_555
Cu12 Cu11 1_555 1_555
O30 Cu12 1_555 1_555
Cu13 O31 1_555 1_555
O32 Cu15 1_555 1_555
Cu14_2 O37_2 1_555 1_555
Cu15 Cl1_2 1_555 1_555
O33_2 Cu16_2 1_555 1_555
Cu16_2 O6 1_555 1_555
Cu17 O36 1_555 1_555
O89 Cu18 1_555 1_555
Cu18 O38 1_555 1_555
C33 C34 1_555 1_555
C34 C35 1_555 1_555
C35 H13 1_555 1_555
C36 C35 1_555 1_555
C37 C36 1_555 1_555
H14 C37 1_555 1_555
C38 C37 1_555 1_555
H15 C38 1_555 1_555
C39 C34 1_555 1_555
C40 C39 1_555 1_555
C41 C36 1_555 1_555
C42 C41 1_555 1_555
H16 C42 1_555 1_555
C43 C42 1_555 1_555
C44 C43 1_555 1_555
H17 C44 1_555 1_555
C45 C44 1_555 1_555
C46 C41 1_555 1_555
H18 C46 1_555 1_555
C47 C45 1_555 1_555
C48 C43 1_555 1_555
O39 Cu15 1_555 1_555
O40 Cu16_2 1_555 1_555
O41 Cu14_2 1_555 1_555
O42 C40 1_555 1_555
O43 Cu11 1_555 1_555
O44 Cu12 1_555 1_555
O45 Cu13 1_555 1_555
O46 C48 1_555 1_555
C49 C50 1_555 1_555
C50 C51 1_555 1_555
C51 H19 1_555 1_555
C52 C51 1_555 1_555
H20 C52 1_555 1_555
C53 C52 1_555 1_555
C54 C53 1_555 1_555
H21 C54 1_555 1_555
C55 C50 1_555 1_555
C56 C55 1_555 1_555
C57 C53 1_555 1_555
C58 C57 1_555 1_555
H22 C58 1_555 1_555
C59 C58 1_555 1_555
C60 C59 1_555 1_555
H23 C60 1_555 1_555
C61 C60 1_555 1_555
C62 C57 1_555 1_555
H24 C62 1_555 1_555
C63 C59 1_555 1_555
C64 C61 1_555 1_555
O110 C49 1_555 1_555
O48 C49 1_555 1_555
O115 C56 1_555 1_555
O50 Cu18 1_555 1_555
O51 Cu12 1_555 1_555
O52 Cu11 1_555 1_555
O53 C64 1_555 1_555
O54 Cu17 1_555 1_555
Cu27 Cu13 1_555 1_555
Cu33 O48 1_555 1_555
Cu39 Cu17 1_555 1_555
Cu43 O89 1_555 1_555
Cu47_2 Cu4_2 1_555 1_555
Cu48_2 Cu14_2 1_555 1_555
O92 Cu15 1_555 1_555
O94 Cu6_2 1_555 1_555
O96 Cu4_2 1_555 1_555
O102 Cu11 1_555 1_555
O104 Cu12 1_555 1_555
O106 Cu13 1_555 1_555
O112 Cu4_2 1_555 1_555
O114 Cu14_2 1_555 1_555
O117 Cu18 1_555 1_555
O119 Cu12 1_555 1_555
O120 Cu11 1_555 1_555
O121 Cu17 1_555 1_555
O124 Cu17 1_555 1_555
O125 Cu17 1_555 1_555
O6 Cu15 1_555 1_555
C33 O39 1_555 1_555
C33 O40 1_555 1_555
C38 C39 1_555 1_555
C40 O41 1_555 1_555
C45 C46 1_555 1_555
C47 O43 1_555 1_555
C47 O44 1_555 1_555
C48 O45 1_555 1_555
O42 Cu48_2 1_555 1_555
O46 Cu27 1_555 1_555
C54 C55 1_555 1_555
C56 O50 1_555 1_555
C61 C62 1_555 1_555
C63 O51 1_555 1_555
C63 O52 1_555 1_555
C64 O54 1_555 1_555
O53 Cu39 1_555 1_555
O11_2 H52 1_555 1_555
O31 H69 1_555 1_555
O37_2 H75 1_555 1_555
Cu13_2 O31_2 1_555 1_555
C65 C66 1_555 1_555
C66 C67 1_555 1_555
C67 H25 1_555 1_555
C68 C67 1_555 1_555
C69 C68 1_555 1_555
H26 C69 1_555 1_555
C70 C69 1_555 1_555
H27 C70 1_555 1_555
C71 C66 1_555 1_555
C72 C71 1_555 1_555
C73 C68 1_555 1_555
C74 C73 1_555 1_555
H28 C74 1_555 1_555
C75 C74 1_555 1_555
C76 C75 1_555 1_555
H29 C76 1_555 1_555
C77 C76 1_555 1_555
C78 C73 1_555 1_555
H30 C78 1_555 1_555
C79 C77 1_555 1_555
C80 C75 1_555 1_555
O55 C65 1_555 1_555
O56 C65 1_555 1_555
O57 C72 1_555 1_555
O58 C72 1_555 1_555
O59 C79 1_555 1_555
O60 C79 1_555 1_555
O61 Cu13_2 1_555 1_555
O62 C80 1_555 1_555
Cu22 O59 1_555 1_555
Cu25 O60 1_555 1_555
Cu27_2 Cu13_2 1_555 1_555
Cu29_2 O57 1_555 1_555
Cu35 O55 1_555 1_555
Cu36_2 O56 1_555 1_555
Cu49_2 O58 1_555 1_555
O109 Cu13_2 1_555 1_555
C70 C71 1_555 1_555
C77 C78 1_555 1_555
C80 O61 1_555 1_555
O62 Cu27_2 1_555 1_555
Cu22 Cu25 1_555 1_555
Cu29_2 Cu49_2 1_555 1_555
Cu30_2 Cu50_2 1_555 1_555
O31_2 H70 1_555 1_555
Cu23_2 Cu26_2 1_555 1_555
Cu23_3 Cu26_3 1_555 1_555
Cl2_2 Cu19 1_555 1_555
Cu18 Cl2_2 1_555 1_555
C97_2 C98_2 1_555 1_555
C98_2 C99_2 1_555 1_555
C99_2 H37_2 1_555 1_555
C100_2 C99_2 1_555 1_555
H38_2 C100_2 1_555 1_555
C101_2 C100_2 1_555 1_555
C102_2 C101_2 1_555 1_555
H39_2 C102_2 1_555 1_555
C103_2 C98_2 1_555 1_555
C104_2 C103_2 1_555 1_555
C105_2 C101_2 1_555 1_555
C106_2 C105_2 1_555 1_555
H40_2 C106_2 1_555 1_555
C107_2 C106_2 1_555 1_555
C108_2 C107_2 1_555 1_555
H41_2 C108_2 1_555 1_555
C109_2 C108_2 1_555 1_555
C110_2 C105_2 1_555 1_555
H42_2 C110_2 1_555 1_555
C111_2 C107_2 1_555 1_555
C112_2 C109_2 1_555 1_555
O74_2 C97_2 1_555 1_555
O76_2 C104_2 1_555 1_555
O79_2 C112_2 1_555 1_555
O80_2 C112_2 1_555 1_555
C113_2 C114_2 1_555 1_555
C114_2 C115_2 1_555 1_555
C115_2 H43_2 1_555 1_555
C116_2 C115_2 1_555 1_555
H44_2 C116_2 1_555 1_555
C117_2 C116_2 1_555 1_555
C118_2 C117_2 1_555 1_555
H45_2 C118_2 1_555 1_555
C119_2 C114_2 1_555 1_555
C120_2 C119_2 1_555 1_555
C121_2 C117_2 1_555 1_555
C122_2 C121_2 1_555 1_555
H46_2 C122_2 1_555 1_555
C123_2 C122_2 1_555 1_555
C124_2 C123_2 1_555 1_555
H47_2 C124_2 1_555 1_555
C125_2 C124_2 1_555 1_555
C126_2 C121_2 1_555 1_555
H48_2 C126_2 1_555 1_555
C127_2 C123_2 1_555 1_555
C128_2 C125_2 1_555 1_555
O81_2 C113_2 1_555 1_555
O83_2 C120_2 1_555 1_555
O84_2 C120_2 1_555 1_555
O85_2 C127_2 1_555 1_555
O86_2 C127_2 1_555 1_555
O87_2 C128_2 1_555 1_555
O88_2 C128_2 1_555 1_555
Cu23_4 O86_2 1_555 1_555
Cu26_4 O85_2 1_555 1_555
Cu38_2 O80_2 1_555 1_555
Cu41_2 O79_2 1_555 1_555
Cu45_4 O83_2 1_555 1_555
Cu52 O76_2 1_555 1_555
Cu51 Cl2_2 1_555 1_555
Cu53_2 O84_2 1_555 1_555
C97_2 O111 1_555 1_555
C102_2 C103_2 1_555 1_555
C104_2 O116 1_555 1_555
C109_2 C110_2 1_555 1_555
C111_2 O119 1_555 1_555
C111_2 O120 1_555 1_555
O74_2 Cu31 1_555 1_555
C113_2 O114 1_555 1_555
C118_2 C119_2 1_555 1_555
C125_2 C126_2 1_555 1_555
O81_2 Cu48_2 1_555 1_555
O87_2 Cu38_2 1_555 1_555
O88_2 Cu41_2 1_555 1_555
Cu23_4 Cu26_4 1_555 1_555
Cu38_2 Cu41_2 1_555 1_555
Cu43 O90 1_555 1_555
Cu23_5 Cu26_5 1_555 1_555
Cu3_3 O3_3 1_555 1_555
C81_2 C82_2 1_555 1_555
C82_2 C83_2 1_555 1_555
C83_2 H31_2 1_555 1_555
C84_2 C83_2 1_555 1_555
C85_2 C84_2 1_555 1_555
H32_2 C85_2 1_555 1_555
C86_2 C85_2 1_555 1_555
H33_2 C86_2 1_555 1_555
C87_2 C82_2 1_555 1_555
C88_2 C87_2 1_555 1_555
C89_2 C84_2 1_555 1_555
C90_2 C89_2 1_555 1_555
H34_2 C90_2 1_555 1_555
C91_2 C90_2 1_555 1_555
C92_2 C91_2 1_555 1_555
H35_2 C92_2 1_555 1_555
C93_2 C92_2 1_555 1_555
C94_2 C89_2 1_555 1_555
H36_2 C94_2 1_555 1_555
C95_2 C93_2 1_555 1_555
C96_2 C91_2 1_555 1_555
O93 C81_2 1_555 1_555
O95 C81_2 1_555 1_555
O97 C88_2 1_555 1_555
O66_2 C88_2 1_555 1_555
O103 C95_2 1_555 1_555
O105 C95_2 1_555 1_555
O69_2 Cu3_3 1_555 1_555
O70_2 C96_2 1_555 1_555
Cu28_3 Cu3_3 1_555 1_555
Cu48 O66_2 1_555 1_555
O108_2 Cu3_3 1_555 1_555
C86_2 C87_2 1_555 1_555
C93_2 C94_2 1_555 1_555
C96_2 O69_2 1_555 1_555
O70_2 Cu28_3 1_555 1_555
O3_3 H60_2 1_555 1_555
Cu21 O1_2 1_555 1_555
Cl1_3 Cu34 1_555 1_555
Cl2_3 Cu43 1_555 1_555
O2_2 Cu24 1_555 1_555
Cu3_4 O3_4 1_555 1_555
O4_2 Cu34 1_555 1_555
Cu29 O11_3 1_555 1_555
Cu34 O13_2 1_555 1_555
O5_3 Cu36 1_555 1_555
Cu36 O14_2 1_555 1_555
Cu38 O9_2 1_555 1_555
Cu9_2 O8_2 1_555 1_555
O10_2 Cu43 1_555 1_555
Cu51 Cl2_3 1_555 1_555
O12_2 Cu51 1_555 1_555
C1_2 C2_2 1_555 1_555
C2_2 C3_2 1_555 1_555
C3_2 H1_2 1_555 1_555
C4_2 C3_2 1_555 1_555
C5_2 C4_2 1_555 1_555
H2_2 C5_2 1_555 1_555
C6_2 C5_2 1_555 1_555
H3_2 C6_2 1_555 1_555
C7_2 C2_2 1_555 1_555
C8_2 C7_2 1_555 1_555
C9_2 C4_2 1_555 1_555
C10_2 C9_2 1_555 1_555
H4_2 C10_2 1_555 1_555
C11_2 C10_2 1_555 1_555
C12_2 C11_2 1_555 1_555
H5_2 C12_2 1_555 1_555
C13_2 C12_2 1_555 1_555
C14_2 C9_2 1_555 1_555
H6_2 C14_2 1_555 1_555
C15_2 C13_2 1_555 1_555
C16_2 C11_2 1_555 1_555
O13_2 C1_2 1_555 1_555
O14_2 C1_2 1_555 1_555
O15_2 Cu29 1_555 1_555
O16_2 C8_2 1_555 1_555
O17_2 Cu21 1_555 1_555
O18_2 Cu24 1_555 1_555
O19_2 Cu3_4 1_555 1_555
O20_2 C16_2 1_555 1_555
C17_2 C18_2 1_555 1_555
C18_2 C19_2 1_555 1_555
C19_2 H7_2 1_555 1_555
C20_2 C19_2 1_555 1_555
H8_2 C20_2 1_555 1_555
C21_2 C20_2 1_555 1_555
C22_2 C21_2 1_555 1_555
H9_2 C22_2 1_555 1_555
C23_2 C18_2 1_555 1_555
C24_2 C23_2 1_555 1_555
C25_2 C21_2 1_555 1_555
C26_2 C25_2 1_555 1_555
H10_2 C26_2 1_555 1_555
C27_2 C26_2 1_555 1_555
C28_2 C27_2 1_555 1_555
H11_2 C28_2 1_555 1_555
C29_2 C28_2 1_555 1_555
C30_2 C25_2 1_555 1_555
H12_2 C30_2 1_555 1_555
C31_2 C27_2 1_555 1_555
C32_2 C29_2 1_555 1_555
O21_2 Cu9_2 1_555 1_555
O22_2 C17_2 1_555 1_555
O23_2 Cu43 1_555 1_555
O24_2 Cu51 1_555 1_555
O25_2 Cu24 1_555 1_555
O26_2 Cu21 1_555 1_555
O27_2 C32_2 1_555 1_555
O28_2 Cu38 1_555 1_555
Cu30 O37_3 1_555 1_555
O33_3 Cu37 1_555 1_555
O34_2 Cu34 1_555 1_555
Cu44 O72_2 1_555 1_555
Cu20_2 O71_2 1_555 1_555
C97_3 C98_3 1_555 1_555
C98_3 C99_3 1_555 1_555
C99_3 H37_3 1_555 1_555
C100_3 C99_3 1_555 1_555
H38_3 C100_3 1_555 1_555
C101_3 C100_3 1_555 1_555
C102_3 C101_3 1_555 1_555
H39_3 C102_3 1_555 1_555
C103_3 C98_3 1_555 1_555
C104_3 C103_3 1_555 1_555
C105_3 C101_3 1_555 1_555
C106_3 C105_3 1_555 1_555
H40_3 C106_3 1_555 1_555
C107_3 C106_3 1_555 1_555
C108_3 C107_3 1_555 1_555
H41_3 C108_3 1_555 1_555
C109_3 C108_3 1_555 1_555
C110_3 C105_3 1_555 1_555
H42_3 C110_3 1_555 1_555
C111_3 C107_3 1_555 1_555
C112_3 C109_3 1_555 1_555
O73_2 Cu20_2 1_555 1_555
O74_3 C97_3 1_555 1_555
O75_2 Cu44 1_555 1_555
O118 C104_3 1_555 1_555
O77_2 Cu24 1_555 1_555
O78_2 Cu21 1_555 1_555
O79_3 C112_3 1_555 1_555
O126 C112_3 1_555 1_555
C113_3 C114_3 1_555 1_555
C114_3 C115_3 1_555 1_555
C115_3 H43_3 1_555 1_555
C116_3 C115_3 1_555 1_555
H44_3 C116_3 1_555 1_555
C117_3 C116_3 1_555 1_555
C118_3 C117_3 1_555 1_555
H45_3 C118_3 1_555 1_555
C119_3 C114_3 1_555 1_555
C120_3 C119_3 1_555 1_555
C121_3 C117_3 1_555 1_555
C122_3 C121_3 1_555 1_555
H46_3 C122_3 1_555 1_555
C123_3 C122_3 1_555 1_555
C124_3 C123_3 1_555 1_555
H47_3 C124_3 1_555 1_555
C125_3 C124_3 1_555 1_555
C126_3 C121_3 1_555 1_555
H48_3 C126_3 1_555 1_555
C127_3 C123_3 1_555 1_555
C128_3 C125_3 1_555 1_555
O81_3 C113_3 1_555 1_555
O82_2 Cu29 1_555 1_555
O83_3 C120_3 1_555 1_555
O84_3 C120_3 1_555 1_555
O85_3 C127_3 1_555 1_555
O86_3 C127_3 1_555 1_555
O123 C128_3 1_555 1_555
O88_3 C128_3 1_555 1_555
Cu23_6 O86_3 1_555 1_555
Cu26_6 O85_3 1_555 1_555
Cu28_4 Cu3_4 1_555 1_555
Cu31_2 Cu9_2 1_555 1_555
Cu33_2 Cu20_2 1_555 1_555
Cu40 O79_3 1_555 1_555
Cu45_5 O83_3 1_555 1_555
Cu18 Cl2_3 1_555 1_555
Cu53_3 O84_3 1_555 1_555
O98_2 Cu9_2 1_555 1_555
O99_2 Cu20_2 1_555 1_555
O100_2 Cu9_2 1_555 1_555
O101_2 Cu20_2 1_555 1_555
O107_2 Cu3_4 1_555 1_555
O110_2 Cu20_2 1_555 1_555
O111_2 Cu9_2 1_555 1_555
O113_2 Cu30 1_555 1_555
O115_2 Cu44 1_555 1_555
O116_2 Cu43 1_555 1_555
O122_2 Cu38 1_555 1_555
Cu36 O34_2 1_555 1_555
C6_2 C7_2 1_555 1_555
C8_2 O15_2 1_555 1_555
C13_2 C14_2 1_555 1_555
C15_2 O17_2 1_555 1_555
C15_2 O18_2 1_555 1_555
C16_2 O19_2 1_555 1_555
O16_2 Cu49 1_555 1_555
O20_2 Cu28_4 1_555 1_555
C17_2 O21_2 1_555 1_555
C22_2 C23_2 1_555 1_555
C24_2 O23_2 1_555 1_555
C24_2 O24_2 1_555 1_555
C29_2 C30_2 1_555 1_555
C31_2 O25_2 1_555 1_555
C31_2 O26_2 1_555 1_555
C32_2 O28_2 1_555 1_555
O22_2 Cu31_2 1_555 1_555
O27_2 Cu41 1_555 1_555
O34_2 Cu37 1_555 1_555
C97_3 O73_2 1_555 1_555
C102_3 C103_3 1_555 1_555
C104_3 O75_2 1_555 1_555
C109_3 C110_3 1_555 1_555
C111_3 O77_2 1_555 1_555
C111_3 O78_2 1_555 1_555
O74_3 Cu33_2 1_555 1_555
C113_3 O82_2 1_555 1_555
C118_3 C119_3 1_555 1_555
C125_3 C126_3 1_555 1_555
O81_3 Cu49 1_555 1_555
O88_3 Cu40 1_555 1_555
Cu23_6 Cu26_6 1_555 1_555
O11_3 H51_2 1_555 1_555
O3_4 H59_2 1_555 1_555
O37_3 H76_2 1_555 1_555
Cu13_3 O31_3 1_555 1_555
C65_2 C66_2 1_555 1_555
C66_2 C67_2 1_555 1_555
C67_2 H25_2 1_555 1_555
C68_2 C67_2 1_555 1_555
C69_2 C68_2 1_555 1_555
H26_2 C69_2 1_555 1_555
C70_2 C69_2 1_555 1_555
H27_2 C70_2 1_555 1_555
C71_2 C66_2 1_555 1_555
C72_2 C71_2 1_555 1_555
C73_2 C68_2 1_555 1_555
C74_2 C73_2 1_555 1_555
H28_2 C74_2 1_555 1_555
C75_2 C74_2 1_555 1_555
C76_2 C75_2 1_555 1_555
H29_2 C76_2 1_555 1_555
C77_2 C76_2 1_555 1_555
C78_2 C73_2 1_555 1_555
H30_2 C78_2 1_555 1_555
C79_2 C77_2 1_555 1_555
C80_2 C75_2 1_555 1_555
O92 C65_2 1_555 1_555
O94 C65_2 1_555 1_555
O96 C72_2 1_555 1_555
O58_2 C72_2 1_555 1_555
O102 C79_2 1_555 1_555
O104 C79_2 1_555 1_555
O61_2 Cu13_3 1_555 1_555
O62_2 C80_2 1_555 1_555
Cu27_3 Cu13_3 1_555 1_555
Cu47_2 O58_2 1_555 1_555
O109_2 Cu13_3 1_555 1_555
C70_2 C71_2 1_555 1_555
C77_2 C78_2 1_555 1_555
C80_2 O61_2 1_555 1_555
O62_2 Cu27_3 1_555 1_555
O31_3 H70_2 1_555 1_555
Cu29_2 O11_4 1_555 1_555
O5_4 Cu36_2 1_555 1_555
O6_2 Cu36_2 1_555 1_555
Cu22 O29_2 1_555 1_555
O30_2 Cu25 1_555 1_555
Cu13_4 O31_4 1_555 1_555
O32_2 Cu35 1_555 1_555
Cu30_2 O37_4 1_555 1_555
Cu35 Cl1_4 1_555 1_555
O33_4 Cu37_2 1_555 1_555
Cu37_2 O6_2 1_555 1_555
Cu38_2 O36_2 1_555 1_555
Cu52 O38_2 1_555 1_555
C33_2 C34_2 1_555 1_555
C34_2 C35_2 1_555 1_555
C35_2 H13_2 1_555 1_555
C36_2 C35_2 1_555 1_555
C37_2 C36_2 1_555 1_555
H14_2 C37_2 1_555 1_555
C38_2 C37_2 1_555 1_555
H15_2 C38_2 1_555 1_555
C39_2 C34_2 1_555 1_555
C40_2 C39_2 1_555 1_555
C41_2 C36_2 1_555 1_555
C42_2 C41_2 1_555 1_555
H16_2 C42_2 1_555 1_555
C43_2 C42_2 1_555 1_555
C44_2 C43_2 1_555 1_555
H17_2 C44_2 1_555 1_555
C45_2 C44_2 1_555 1_555
C46_2 C41_2 1_555 1_555
H18_2 C46_2 1_555 1_555
C47_2 C45_2 1_555 1_555
C48_2 C43_2 1_555 1_555
O39_2 Cu35 1_555 1_555
O40_2 Cu37_2 1_555 1_555
O41_2 Cu30_2 1_555 1_555
O42_2 C40_2 1_555 1_555
O43_2 Cu22 1_555 1_555
O44_2 Cu25 1_555 1_555
O45_2 Cu13_4 1_555 1_555
O46_2 C48_2 1_555 1_555
C49_2 C50_2 1_555 1_555
C50_2 C51_2 1_555 1_555
C51_2 H19_2 1_555 1_555
C52_2 C51_2 1_555 1_555
H20_2 C52_2 1_555 1_555
C53_2 C52_2 1_555 1_555
C54_2 C53_2 1_555 1_555
H21_2 C54_2 1_555 1_555
C55_2 C50_2 1_555 1_555
C56_2 C55_2 1_555 1_555
C57_2 C53_2 1_555 1_555
C58_2 C57_2 1_555 1_555
H22_2 C58_2 1_555 1_555
C59_2 C58_2 1_555 1_555
C60_2 C59_2 1_555 1_555
H23_2 C60_2 1_555 1_555
C61_2 C60_2 1_555 1_555
C62_2 C57_2 1_555 1_555
H24_2 C62_2 1_555 1_555
C63_2 C59_2 1_555 1_555
C64_2 C61_2 1_555 1_555
O110_2 C49_2 1_555 1_555
O48_2 C49_2 1_555 1_555
O115_2 C56_2 1_555 1_555
O50_2 Cu52 1_555 1_555
O51_2 Cu25 1_555 1_555
O52_2 Cu22 1_555 1_555
O53_2 C64_2 1_555 1_555
O54_2 Cu38_2 1_555 1_555
Cu27_4 Cu13_4 1_555 1_555
Cu33_2 O48_2 1_555 1_555
O106_2 Cu13_4 1_555 1_555
O112_2 Cu29_2 1_555 1_555
O114_2 Cu30_2 1_555 1_555
O119_2 Cu25 1_555 1_555
O120_2 Cu22 1_555 1_555
O121_2 Cu38_2 1_555 1_555
O6_2 Cu35 1_555 1_555
C33_2 O39_2 1_555 1_555
C33_2 O40_2 1_555 1_555
C38_2 C39_2 1_555 1_555
C40_2 O41_2 1_555 1_555
C45_2 C46_2 1_555 1_555
C47_2 O43_2 1_555 1_555
C47_2 O44_2 1_555 1_555
C48_2 O45_2 1_555 1_555
O42_2 Cu50_2 1_555 1_555
O46_2 Cu27_4 1_555 1_555
C54_2 C55_2 1_555 1_555
C56_2 O50_2 1_555 1_555
C61_2 C62_2 1_555 1_555
C63_2 O51_2 1_555 1_555
C63_2 O52_2 1_555 1_555
C64_2 O54_2 1_555 1_555
O53_2 Cu41_2 1_555 1_555
O11_4 H52_2 1_555 1_555
O31_4 H69_2 1_555 1_555
O37_4 H75_2 1_555 1_555
Cl2_4 Cu44 1_555 1_555
Cu52 Cl2_4 1_555 1_555
C97_4 C98_4 1_555 1_555
C98_4 C99_4 1_555 1_555
C99_4 H37_4 1_555 1_555
C100_4 C99_4 1_555 1_555
H38_4 C100_4 1_555 1_555
C101_4 C100_4 1_555 1_555
C102_4 C101_4 1_555 1_555
H39_4 C102_4 1_555 1_555
C103_4 C98_4 1_555 1_555
C104_4 C103_4 1_555 1_555
C105_4 C101_4 1_555 1_555
C106_4 C105_4 1_555 1_555
H40_4 C106_4 1_555 1_555
C107_4 C106_4 1_555 1_555
C108_4 C107_4 1_555 1_555
H41_4 C108_4 1_555 1_555
C109_4 C108_4 1_555 1_555
C110_4 C105_4 1_555 1_555
H42_4 C110_4 1_555 1_555
C111_4 C107_4 1_555 1_555
C112_4 C109_4 1_555 1_555
O74_4 C97_4 1_555 1_555
O117 C104_4 1_555 1_555
O79_4 C112_4 1_555 1_555
O125 C112_4 1_555 1_555
C113_4 C114_4 1_555 1_555
C114_4 C115_4 1_555 1_555
C115_4 H43_4 1_555 1_555
C116_4 C115_4 1_555 1_555
H44_4 C116_4 1_555 1_555
C117_4 C116_4 1_555 1_555
C118_4 C117_4 1_555 1_555
H45_4 C118_4 1_555 1_555
C119_4 C114_4 1_555 1_555
C120_4 C119_4 1_555 1_555
C121_4 C117_4 1_555 1_555
C122_4 C121_4 1_555 1_555
H46_4 C122_4 1_555 1_555
C123_4 C122_4 1_555 1_555
C124_4 C123_4 1_555 1_555
H47_4 C124_4 1_555 1_555
C125_4 C124_4 1_555 1_555
C126_4 C121_4 1_555 1_555
H48_4 C126_4 1_555 1_555
C127_4 C123_4 1_555 1_555
C128_4 C125_4 1_555 1_555
O81_4 C113_4 1_555 1_555
O83_4 C120_4 1_555 1_555
O84_4 C120_4 1_555 1_555
O85_4 C127_4 1_555 1_555
O86_4 C127_4 1_555 1_555
O124 C128_4 1_555 1_555
O88_4 C128_4 1_555 1_555
Cu23_7 O86_4 1_555 1_555
Cu26_7 O85_4 1_555 1_555
Cu39 O79_4 1_555 1_555
Cu45_8 O83_4 1_555 1_555
Cu10 Cl2_4 1_555 1_555
Cu53_4 O84_4 1_555 1_555
C97_4 O111_2 1_555 1_555
C102_4 C103_4 1_555 1_555
C104_4 O116_2 1_555 1_555
C109_4 C110_4 1_555 1_555
C111_4 O119_2 1_555 1_555
C111_4 O120_2 1_555 1_555
O74_4 Cu31_2 1_555 1_555
C113_4 O114_2 1_555 1_555
C118_4 C119_4 1_555 1_555
C125_4 C126_4 1_555 1_555
O81_4 Cu50_2 1_555 1_555
O88_4 Cu39 1_555 1_555
Cu23_7 Cu26_7 1_555 1_555
Cu23_8 Cu26_8 1_555 1_555
Cl2_5 Cu45 1_555 1_555
Cu47 O8_3 1_555 1_555
O10_3 Cu45 1_555 1_555
O91_2 Cu45 1_555 1_555
Cu53 Cl2_5 1_555 1_555
Cu45_7 O91_2 1_555 1_555
O91_2 Cu53 1_555 1_555
Cu23_3 O1_3 1_555 1_555
Cl1_5 Cu5_2 1_555 1_555
Cl2_6 Cu45_2 1_555 1_555
O2_3 Cu26_3 1_555 1_555
O4_3 Cu5_2 1_555 1_555
Cu39 O9_3 1_555 1_555
Cu45_2 O7_2 1_555 1_555
O7_2 Cu53_4 1_555 1_555
Cu47_2 O8_4 1_555 1_555
O10_4 Cu45_2 1_555 1_555
Cu53_4 Cl2_6 1_555 1_555
O12_3 Cu53_4 1_555 1_555
C17_3 C18_3 1_555 1_555
C18_3 C19_3 1_555 1_555
C19_3 H7_3 1_555 1_555
C20_3 C19_3 1_555 1_555
H8_3 C20_3 1_555 1_555
C21_3 C20_3 1_555 1_555
C22_3 C21_3 1_555 1_555
H9_3 C22_3 1_555 1_555
C23_3 C18_3 1_555 1_555
C24_3 C23_3 1_555 1_555
C25_3 C21_3 1_555 1_555
C26_3 C25_3 1_555 1_555
H10_3 C26_3 1_555 1_555
C27_3 C26_3 1_555 1_555
C28_3 C27_3 1_555 1_555
H11_3 C28_3 1_555 1_555
C29_3 C28_3 1_555 1_555
C30_3 C25_3 1_555 1_555
H12_3 C30_3 1_555 1_555
C31_3 C27_3 1_555 1_555
C32_3 C29_3 1_555 1_555
O21_3 Cu47_2 1_555 1_555
O112 C17_3 1_555 1_555
O23_3 Cu45_2 1_555 1_555
O24_3 Cu53_4 1_555 1_555
O25_3 Cu26_3 1_555 1_555
O26_3 Cu23_3 1_555 1_555
O121 C32_3 1_555 1_555
O28_3 Cu39 1_555 1_555
Cu23 O29_3 1_555 1_555
O30_3 Cu26 1_555 1_555
Cu28 O31_5 1_555 1_555
O32_3 Cu15_2 1_555 1_555
Cu33 O37_5 1_555 1_555
Cu15_2 Cl1_5 1_555 1_555
O33_5 Cu16_3 1_555 1_555
O34_3 Cu5_2 1_555 1_555
Cu16_3 O6_3 1_555 1_555
C33_3 C34_3 1_555 1_555
C34_3 C35_3 1_555 1_555
C35_3 H13_3 1_555 1_555
C36_3 C35_3 1_555 1_555
C37_3 C36_3 1_555 1_555
H14_3 C37_3 1_555 1_555
C38_3 C37_3 1_555 1_555
H15_3 C38_3 1_555 1_555
C39_3 C34_3 1_555 1_555
C40_3 C39_3 1_555 1_555
C41_3 C36_3 1_555 1_555
C42_3 C41_3 1_555 1_555
H16_3 C42_3 1_555 1_555
C43_3 C42_3 1_555 1_555
C44_3 C43_3 1_555 1_555
H17_3 C44_3 1_555 1_555
C45_3 C44_3 1_555 1_555
C46_3 C41_3 1_555 1_555
H18_3 C46_3 1_555 1_555
C47_3 C45_3 1_555 1_555
C48_3 C43_3 1_555 1_555
O39_3 Cu15_2 1_555 1_555
O40_3 Cu16_3 1_555 1_555
O41_3 Cu33 1_555 1_555
O99 C40_3 1_555 1_555
O43_3 Cu23 1_555 1_555
O44_3 Cu26 1_555 1_555
O45_3 Cu28 1_555 1_555
O107 C48_3 1_555 1_555
Cu45_8 O7_2 1_555 1_555
O93_2 Cu5_2 1_555 1_555
O95_2 Cu16_3 1_555 1_555
O97_2 Cu33 1_555 1_555
O103_2 Cu23_3 1_555 1_555
O105_2 Cu26_3 1_555 1_555
O6_3 Cu15_2 1_555 1_555
C17_3 O21_3 1_555 1_555
C22_3 C23_3 1_555 1_555
C24_3 O23_3 1_555 1_555
C24_3 O24_3 1_555 1_555
C29_3 C30_3 1_555 1_555
C31_3 O25_3 1_555 1_555
C31_3 O26_3 1_555 1_555
C32_3 O28_3 1_555 1_555
O34_3 Cu16_3 1_555 1_555
C33_3 O39_3 1_555 1_555
C33_3 O40_3 1_555 1_555
C38_3 C39_3 1_555 1_555
C40_3 O41_3 1_555 1_555
C45_3 C46_3 1_555 1_555
C47_3 O43_3 1_555 1_555
C47_3 O44_3 1_555 1_555
C48_3 O45_3 1_555 1_555
O2_3 H58 1_555 1_555
O1_3 H62 1_555 1_555
O4_3 H63 1_555 1_555
O4_3 H64 1_555 1_555
O31_5 H69_3 1_555 1_555
O29_3 H71 1_555 1_555
O29_3 H72 1_555 1_555
O30_3 H73 1_555 1_555
O30_3 H74 1_555 1_555
O32_3 H82 1_555 1_555
Cu28_2 O31_6 1_555 1_555
C65_3 C66_3 1_555 1_555
C66_3 C67_3 1_555 1_555
C67_3 H25_3 1_555 1_555
C68_3 C67_3 1_555 1_555
C69_3 C68_3 1_555 1_555
H26_3 C69_3 1_555 1_555
C70_3 C69_3 1_555 1_555
H27_3 C70_3 1_555 1_555
C71_3 C66_3 1_555 1_555
C72_3 C71_3 1_555 1_555
C73_3 C68_3 1_555 1_555
C74_3 C73_3 1_555 1_555
H28_3 C74_3 1_555 1_555
C75_3 C74_3 1_555 1_555
C76_3 C75_3 1_555 1_555
H29_3 C76_3 1_555 1_555
C77_3 C76_3 1_555 1_555
C78_3 C73_3 1_555 1_555
H30_3 C78_3 1_555 1_555
C79_3 C77_3 1_555 1_555
C80_3 C75_3 1_555 1_555
O55_2 C65_3 1_555 1_555
O56_2 C65_3 1_555 1_555
O57_2 C72_3 1_555 1_555
O100_2 C72_3 1_555 1_555
O59_2 C79_3 1_555 1_555
O60_2 C79_3 1_555 1_555
O61_3 Cu28_2 1_555 1_555
O108 C80_3 1_555 1_555
Cu23_5 O59_2 1_555 1_555
Cu26_5 O60_2 1_555 1_555
Cu31_2 O57_2 1_555 1_555
Cu35_2 O55_2 1_555 1_555
Cu36_3 O56_2 1_555 1_555
C70_3 C71_3 1_555 1_555
C77_3 C78_3 1_555 1_555
C80_3 O61_3 1_555 1_555
O31_6 H70_3 1_555 1_555
Cu45_3 O72_3 1_555 1_555
Cu48 O71_3 1_555 1_555
O89_2 Cu45_3 1_555 1_555
O110_3 Cu48 1_555 1_555
O115_3 Cu45_3 1_555 1_555
Cu23_4 O1_4 1_555 1_555
Cl1_6 Cu5_3 1_555 1_555
O2_4 Cu26_4 1_555 1_555
Cu27 O3_5 1_555 1_555
O4_4 Cu5_3 1_555 1_555
Cu31 O11_5 1_555 1_555
Cu5_3 O13_3 1_555 1_555
O5_5 Cu6_3 1_555 1_555
O6_4 Cu6_3 1_555 1_555
Cu6_3 O14_3 1_555 1_555
C1_3 C2_3 1_555 1_555
C2_3 C3_3 1_555 1_555
C3_3 H1_3 1_555 1_555
C4_3 C3_3 1_555 1_555
C5_3 C4_3 1_555 1_555
H2_3 C5_3 1_555 1_555
C6_3 C5_3 1_555 1_555
H3_3 C6_3 1_555 1_555
C7_3 C2_3 1_555 1_555
C8_3 C7_3 1_555 1_555
C9_3 C4_3 1_555 1_555
C10_3 C9_3 1_555 1_555
H4_3 C10_3 1_555 1_555
C11_3 C10_3 1_555 1_555
C12_3 C11_3 1_555 1_555
H5_3 C12_3 1_555 1_555
C13_3 C12_3 1_555 1_555
C14_3 C9_3 1_555 1_555
H6_3 C14_3 1_555 1_555
C15_3 C13_3 1_555 1_555
C16_3 C11_3 1_555 1_555
O13_3 C1_3 1_555 1_555
O14_3 C1_3 1_555 1_555
O15_3 Cu31 1_555 1_555
O98 C8_3 1_555 1_555
O17_3 Cu23_4 1_555 1_555
O18_3 Cu26_4 1_555 1_555
O19_3 Cu27 1_555 1_555
O106 C16_3 1_555 1_555
Cu23_2 O29_4 1_555 1_555
O30_4 Cu26_2 1_555 1_555
O32_4 Cu15_3 1_555 1_555
Cu15_3 Cl1_6 1_555 1_555
O34_4 Cu5_3 1_555 1_555
Cu40 O36_3 1_555 1_555
O89_2 Cu53_3 1_555 1_555
Cu53_3 O38_3 1_555 1_555
C49_3 C50_3 1_555 1_555
C50_3 C51_3 1_555 1_555
C51_3 H19_3 1_555 1_555
C52_3 C51_3 1_555 1_555
H20_3 C52_3 1_555 1_555
C53_3 C52_3 1_555 1_555
C54_3 C53_3 1_555 1_555
H21_3 C54_3 1_555 1_555
C55_3 C50_3 1_555 1_555
C56_3 C55_3 1_555 1_555
C57_3 C53_3 1_555 1_555
C58_3 C57_3 1_555 1_555
H22_3 C58_3 1_555 1_555
C59_3 C58_3 1_555 1_555
C60_3 C59_3 1_555 1_555
H23_3 C60_3 1_555 1_555
C61_3 C60_3 1_555 1_555
C62_3 C57_3 1_555 1_555
H24_3 C62_3 1_555 1_555
C63_3 C59_3 1_555 1_555
C64_3 C61_3 1_555 1_555
O110_3 C49_3 1_555 1_555
O113 C49_3 1_555 1_555
O115_3 C56_3 1_555 1_555
O50_3 Cu53_3 1_555 1_555
O51_3 Cu26_2 1_555 1_555
O52_3 Cu23_2 1_555 1_555
O122 C64_3 1_555 1_555
O54_3 Cu40 1_555 1_555
Cu45_4 O72_4 1_555 1_555
Cu48_2 O71_4 1_555 1_555
Cu45_5 O89_2 1_555 1_555
O90_2 Cu45_4 1_555 1_555
O92_2 Cu15_3 1_555 1_555
O94_2 Cu6_3 1_555 1_555
O96_2 Cu31 1_555 1_555
O102_2 Cu23_2 1_555 1_555
O104_2 Cu26_2 1_555 1_555
O6_4 Cu15_3 1_555 1_555
Cu6_3 O34_4 1_555 1_555
C6_3 C7_3 1_555 1_555
C8_3 O15_3 1_555 1_555
C13_3 C14_3 1_555 1_555
C15_3 O17_3 1_555 1_555
C15_3 O18_3 1_555 1_555
C16_3 O19_3 1_555 1_555
C54_3 C55_3 1_555 1_555
C56_3 O50_3 1_555 1_555
C61_3 C62_3 1_555 1_555
C63_3 O51_3 1_555 1_555
C63_3 O52_3 1_555 1_555
C64_3 O54_3 1_555 1_555
O90_2 Cu53_2 1_555 1_555
O2_4 H57 1_555 1_555
O2_4 H58_2 1_555 1_555
O3_5 H59_3 1_555 1_555
O1_4 H61 1_555 1_555
O1_4 H62_2 1_555 1_555
O4_4 H64_2 1_555 1_555
O29_4 H72_2 1_555 1_555
O30_4 H74_2 1_555 1_555
O32_4 H81 1_555 1_555
O32_4 H82_2 1_555 1_555
Cu27_2 O3_6 1_555 1_555
C81_3 C82_3 1_555 1_555
C82_3 C83_3 1_555 1_555
C83_3 H31_3 1_555 1_555
C84_3 C83_3 1_555 1_555
C85_3 C84_3 1_555 1_555
H32_3 C85_3 1_555 1_555
C86_3 C85_3 1_555 1_555
H33_3 C86_3 1_555 1_555
C87_3 C82_3 1_555 1_555
C88_3 C87_3 1_555 1_555
C89_3 C84_3 1_555 1_555
C90_3 C89_3 1_555 1_555
H34_3 C90_3 1_555 1_555
C91_3 C90_3 1_555 1_555
C92_3 C91_3 1_555 1_555
H35_3 C92_3 1_555 1_555
C93_3 C92_3 1_555 1_555
C94_3 C89_3 1_555 1_555
H36_3 C94_3 1_555 1_555
C95_3 C93_3 1_555 1_555
C96_3 C91_3 1_555 1_555
O63_2 C81_3 1_555 1_555
O64_2 C81_3 1_555 1_555
O65_2 C88_3 1_555 1_555
O101_2 C88_3 1_555 1_555
O67_2 C95_3 1_555 1_555
O68_2 C95_3 1_555 1_555
O69_3 Cu27_2 1_555 1_555
O109 C96_3 1_555 1_555
Cu23_8 O67_2 1_555 1_555
Cu26_8 O68_2 1_555 1_555
Cu33_2 O65_2 1_555 1_555
Cu34_3 O63_2 1_555 1_555
Cu37_3 O64_2 1_555 1_555
C86_3 C87_3 1_555 1_555
C93_3 C94_3 1_555 1_555
C96_3 O69_3 1_555 1_555
O3_6 H60_3 1_555 1_555
Cl2_7 Cu45_3 1_555 1_555
Cu53_3 Cl2_7 1_555 1_555
Cl2_8 Cu45_4 1_555 1_555
Cu53_2 Cl2_8 1_555 1_555
Cu45_6 O90_2 1_555 1_555
Cu45_7 O72_5 1_555 1_555
Cu50 O71_5 1_555 1_555
O110_4 Cu50 1_555 1_555
O115_4 Cu45_7 1_555 1_555
Cu27_3 O3_7 1_555 1_555
C81_4 C82_4 1_555 1_555
C82_4 C83_4 1_555 1_555
C83_4 H31_4 1_555 1_555
C84_4 C83_4 1_555 1_555
C85_4 C84_4 1_555 1_555
H32_4 C85_4 1_555 1_555
C86_4 C85_4 1_555 1_555
H33_4 C86_4 1_555 1_555
C87_4 C82_4 1_555 1_555
C88_4 C87_4 1_555 1_555
C89_4 C84_4 1_555 1_555
C90_4 C89_4 1_555 1_555
H34_4 C90_4 1_555 1_555
C91_4 C90_4 1_555 1_555
C92_4 C91_4 1_555 1_555
H35_4 C92_4 1_555 1_555
C93_4 C92_4 1_555 1_555
C94_4 C89_4 1_555 1_555
H36_4 C94_4 1_555 1_555
C95_4 C93_4 1_555 1_555
C96_4 C91_4 1_555 1_555
O93_2 C81_4 1_555 1_555
O95_2 C81_4 1_555 1_555
O97_2 C88_4 1_555 1_555
O101 C88_4 1_555 1_555
O103_2 C95_4 1_555 1_555
O105_2 C95_4 1_555 1_555
O69_4 Cu27_3 1_555 1_555
O109_2 C96_4 1_555 1_555
C86_4 C87_4 1_555 1_555
C93_4 C94_4 1_555 1_555
C96_4 O69_4 1_555 1_555
O3_7 H60_4 1_555 1_555
Cu23_7 O1_5 1_555 1_555
Cl1_7 Cu34_2 1_555 1_555
O2_5 Cu26_7 1_555 1_555
Cu27_4 O3_8 1_555 1_555
O4_5 Cu34_2 1_555 1_555
Cu31_2 O11_6 1_555 1_555
Cu34_2 O13_4 1_555 1_555
O5_6 Cu36_3 1_555 1_555
O6_5 Cu36_3 1_555 1_555
Cu36_3 O14_4 1_555 1_555
C1_4 C2_4 1_555 1_555
C2_4 C3_4 1_555 1_555
C3_4 H1_4 1_555 1_555
C4_4 C3_4 1_555 1_555
C5_4 C4_4 1_555 1_555
H2_4 C5_4 1_555 1_555
C6_4 C5_4 1_555 1_555
H3_4 C6_4 1_555 1_555
C7_4 C2_4 1_555 1_555
C8_4 C7_4 1_555 1_555
C9_4 C4_4 1_555 1_555
C10_4 C9_4 1_555 1_555
H4_4 C10_4 1_555 1_555
C11_4 C10_4 1_555 1_555
C12_4 C11_4 1_555 1_555
H5_4 C12_4 1_555 1_555
C13_4 C12_4 1_555 1_555
C14_4 C9_4 1_555 1_555
H6_4 C14_4 1_555 1_555
C15_4 C13_4 1_555 1_555
C16_4 C11_4 1_555 1_555
O13_4 C1_4 1_555 1_555
O14_4 C1_4 1_555 1_555
O15_4 Cu31_2 1_555 1_555
O98_2 C8_4 1_555 1_555
O17_4 Cu23_7 1_555 1_555
O18_4 Cu26_7 1_555 1_555
O19_4 Cu27_4 1_555 1_555
O106_2 C16_4 1_555 1_555
Cu23_5 O29_5 1_555 1_555
O30_5 Cu26_5 1_555 1_555
O32_5 Cu35_2 1_555 1_555
Cu35_2 Cl1_7 1_555 1_555
O34_5 Cu34_2 1_555 1_555
Cu41 O36_4 1_555 1_555
Cu53 O38_4 1_555 1_555
C49_4 C50_4 1_555 1_555
C50_4 C51_4 1_555 1_555
C51_4 H19_4 1_555 1_555
C52_4 C51_4 1_555 1_555
H20_4 C52_4 1_555 1_555
C53_4 C52_4 1_555 1_555
C54_4 C53_4 1_555 1_555
H21_4 C54_4 1_555 1_555
C55_4 C50_4 1_555 1_555
C56_4 C55_4 1_555 1_555
C57_4 C53_4 1_555 1_555
C58_4 C57_4 1_555 1_555
H22_4 C58_4 1_555 1_555
C59_4 C58_4 1_555 1_555
C60_4 C59_4 1_555 1_555
H23_4 C60_4 1_555 1_555
C61_4 C60_4 1_555 1_555
C62_4 C57_4 1_555 1_555
H24_4 C62_4 1_555 1_555
C63_4 C59_4 1_555 1_555
C64_4 C61_4 1_555 1_555
O110_4 C49_4 1_555 1_555
O113_2 C49_4 1_555 1_555
O115_4 C56_4 1_555 1_555
O50_4 Cu53 1_555 1_555
O51_4 Cu26_5 1_555 1_555
O52_4 Cu23_5 1_555 1_555
O122_2 C64_4 1_555 1_555
O54_4 Cu41 1_555 1_555
Cu45_8 O72_6 1_555 1_555
Cu50_2 O71_6 1_555 1_555
O6_5 Cu35_2 1_555 1_555
Cu36_3 O34_5 1_555 1_555
C6_4 C7_4 1_555 1_555
C8_4 O15_4 1_555 1_555
C13_4 C14_4 1_555 1_555
C15_4 O17_4 1_555 1_555
C15_4 O18_4 1_555 1_555
C16_4 O19_4 1_555 1_555
C54_4 C55_4 1_555 1_555
C56_4 O50_4 1_555 1_555
C61_4 C62_4 1_555 1_555
C63_4 O51_4 1_555 1_555
C63_4 O52_4 1_555 1_555
C64_4 O54_4 1_555 1_555
O2_5 H57_2 1_555 1_555
O2_5 H58_3 1_555 1_555
O3_8 H59_4 1_555 1_555
O1_5 H61_2 1_555 1_555
O1_5 H62_3 1_555 1_555
O4_5 H64_3 1_555 1_555
O29_5 H72_3 1_555 1_555
O30_5 H74_3 1_555 1_555
O32_5 H81_2 1_555 1_555
O32_5 H82_3 1_555 1_555
Cl2_9 Cu45_5 1_555 1_555
Cu49 O8_5 1_555 1_555
O10_5 Cu45_5 1_555 1_555
Cu53_3 Cl2_9 1_555 1_555
Cu28_3 O31_7 1_555 1_555
C65_4 C66_4 1_555 1_555
C66_4 C67_4 1_555 1_555
C67_4 H25_4 1_555 1_555
C68_4 C67_4 1_555 1_555
C69_4 C68_4 1_555 1_555
H26_4 C69_4 1_555 1_555
C70_4 C69_4 1_555 1_555
H27_4 C70_4 1_555 1_555
C71_4 C66_4 1_555 1_555
C72_4 C71_4 1_555 1_555
C73_4 C68_4 1_555 1_555
C74_4 C73_4 1_555 1_555
H28_4 C74_4 1_555 1_555
C75_4 C74_4 1_555 1_555
C76_4 C75_4 1_555 1_555
H29_4 C76_4 1_555 1_555
C77_4 C76_4 1_555 1_555
C78_4 C73_4 1_555 1_555
H30_4 C78_4 1_555 1_555
C79_4 C77_4 1_555 1_555
C80_4 C75_4 1_555 1_555
O92_2 C65_4 1_555 1_555
O94_2 C65_4 1_555 1_555
O96_2 C72_4 1_555 1_555
O100 C72_4 1_555 1_555
O102_2 C79_4 1_555 1_555
O104_2 C79_4 1_555 1_555
O61_4 Cu28_3 1_555 1_555
O108_2 C80_4 1_555 1_555
C70_4 C71_4 1_555 1_555
C77_4 C78_4 1_555 1_555
C80_4 O61_4 1_555 1_555
O31_7 H70_4 1_555 1_555
Cu23_8 O1_6 1_555 1_555
Cl1_8 Cu34_3 1_555 1_555
Cl2_10 Cu45_6 1_555 1_555
O2_6 Cu26_8 1_555 1_555
O4_6 Cu34_3 1_555 1_555
Cu41_2 O9_4 1_555 1_555
Cu49_2 O8_6 1_555 1_555
O10_6 Cu45_6 1_555 1_555
Cu53_2 Cl2_10 1_555 1_555
O12_4 Cu53_2 1_555 1_555
C17_4 C18_4 1_555 1_555
C18_4 C19_4 1_555 1_555
C19_4 H7_4 1_555 1_555
C20_4 C19_4 1_555 1_555
H8_4 C20_4 1_555 1_555
C21_4 C20_4 1_555 1_555
C22_4 C21_4 1_555 1_555
H9_4 C22_4 1_555 1_555
C23_4 C18_4 1_555 1_555
C24_4 C23_4 1_555 1_555
C25_4 C21_4 1_555 1_555
C26_4 C25_4 1_555 1_555
H10_4 C26_4 1_555 1_555
C27_4 C26_4 1_555 1_555
C28_4 C27_4 1_555 1_555
H11_4 C28_4 1_555 1_555
C29_4 C28_4 1_555 1_555
C30_4 C25_4 1_555 1_555
H12_4 C30_4 1_555 1_555
C31_4 C27_4 1_555 1_555
C32_4 C29_4 1_555 1_555
O21_4 Cu49_2 1_555 1_555
O112_2 C17_4 1_555 1_555
O23_4 Cu45_6 1_555 1_555
O24_4 Cu53_2 1_555 1_555
O25_4 Cu26_8 1_555 1_555
O26_4 Cu23_8 1_555 1_555
O121_2 C32_4 1_555 1_555
O28_4 Cu41_2 1_555 1_555
Cu23_6 O29_6 1_555 1_555
O30_6 Cu26_6 1_555 1_555
Cu28_4 O31_8 1_555 1_555
O32_6 Cu35_3 1_555 1_555
Cu33_2 O37_6 1_555 1_555
Cu35_3 Cl1_8 1_555 1_555
O33_6 Cu37_3 1_555 1_555
O34_6 Cu34_3 1_555 1_555
Cu37_3 O6_6 1_555 1_555
C33_4 C34_4 1_555 1_555
C34_4 C35_4 1_555 1_555
C35_4 H13_4 1_555 1_555
C36_4 C35_4 1_555 1_555
C37_4 C36_4 1_555 1_555
H14_4 C37_4 1_555 1_555
C38_4 C37_4 1_555 1_555
H15_4 C38_4 1_555 1_555
C39_4 C34_4 1_555 1_555
C40_4 C39_4 1_555 1_555
C41_4 C36_4 1_555 1_555
C42_4 C41_4 1_555 1_555
H16_4 C42_4 1_555 1_555
C43_4 C42_4 1_555 1_555
C44_4 C43_4 1_555 1_555
H17_4 C44_4 1_555 1_555
C45_4 C44_4 1_555 1_555
C46_4 C41_4 1_555 1_555
H18_4 C46_4 1_555 1_555
C47_4 C45_4 1_555 1_555
C48_4 C43_4 1_555 1_555
O39_4 Cu35_3 1_555 1_555
O40_4 Cu37_3 1_555 1_555
O41_4 Cu33_2 1_555 1_555
O99_2 C40_4 1_555 1_555
O43_4 Cu23_6 1_555 1_555
O44_4 Cu26_6 1_555 1_555
O45_4 Cu28_4 1_555 1_555
O107_2 C48_4 1_555 1_555
O6_6 Cu35_3 1_555 1_555
C17_4 O21_4 1_555 1_555
C22_4 C23_4 1_555 1_555
C24_4 O23_4 1_555 1_555
C24_4 O24_4 1_555 1_555
C29_4 C30_4 1_555 1_555
C31_4 O25_4 1_555 1_555
C31_4 O26_4 1_555 1_555
C32_4 O28_4 1_555 1_555
O34_6 Cu37_3 1_555 1_555
C33_4 O39_4 1_555 1_555
C33_4 O40_4 1_555 1_555
C38_4 C39_4 1_555 1_555
C40_4 O41_4 1_555 1_555
C45_4 C46_4 1_555 1_555
C47_4 O43_4 1_555 1_555
C47_4 O44_4 1_555 1_555
C48_4 O45_4 1_555 1_555
O2_6 H58_4 1_555 1_555
O1_6 H62_4 1_555 1_555
O4_6 H63_2 1_555 1_555
O4_6 H64_4 1_555 1_555
O31_8 H69_4 1_555 1_555
O29_6 H71_2 1_555 1_555
O29_6 H72_4 1_555 1_555
O30_6 H73_2 1_555 1_555
O30_6 H74_4 1_555 1_555
O32_6 H82_4 1_555 1_555
Cl2_11 Cu45_7 1_555 1_555
Cu53 Cl2_11 1_555 1_555
Cl2_12 Cu45_8 1_555 1_555
Cu53_4 Cl2_12 1_555 1_555
O3 H70_5 1_555 1_555
O11_3 H52_3 1_555 1_555
O3_2 H69_5 1_555 1_555
O37_3 H75_3 1_555 1_555
O31 H60_5 1_555 1_555
O11_4 H51_3 1_555 1_555
O31_2 H59_5 1_555 1_555
O37_4 H76_3 1_555 1_555
O11 H52_4 1_555 1_555
O3_3 H69_6 1_555 1_555
O37 H75_4 1_555 1_555
O3_4 H70_6 1_555 1_555
O11_2 H51_4 1_555 1_555
O31_3 H59_6 1_555 1_555
O37_2 H76_4 1_555 1_555
O31_4 H60_6 1_555 1_555
O31_5 H60_7 1_555 1_555
O30_5 H57_3 1_555 1_555
O31_6 H59_7 1_555 1_555
O29_5 H61_3 1_555 1_555
O4_5 H81_3 1_555 1_555
O3_5 H70_7 1_555 1_555
O32_6 H63_3 1_555 1_555
O3_6 H69_7 1_555 1_555
O1_6 H71_3 1_555 1_555
O2_6 H73_3 1_555 1_555
O32_3 H63_4 1_555 1_555
O3_7 H69_8 1_555 1_555
O1_3 H71_4 1_555 1_555
O2_3 H73_4 1_555 1_555
O3_8 H70_8 1_555 1_555
O30_4 H57_4 1_555 1_555
O31_7 H59_8 1_555 1_555
O29_4 H61_4 1_555 1_555
O4_4 H81_4 1_555 1_555
O31_8 H60_8 1_555 1_555

#END
