
###############################################################################
#
# This file contains modified crystal structure data generated from the
# MOF subset of the Cambridge Structural Database (CSD) v543 
# hosted by the Cambridge Crystallographic Data Centre (CCDC).
#
# This work is licensed under the Creative Commons
# Attribution-NonCommercial-ShareAlike 4.0 International License.
# To view a copy of this license, visit
# http://creativecommons.org/licenses/by-nc-sa/4.0/
# or send a letter to
# Creative Commons, PO Box 1866, Mountain View, CA 94042, USA.
#
# CIF created using the CSD Python API on 29 September 2022
# The structure has been converted into the P1 space group
# The structure has a 3D framework
# The original CSD entry YUVNIP is in the monoclinic crystal system
# The framework has been calculated to contain at least 10.0% void space
# The void calculation uses a probe of radius 1.32A, grid spacing 0.4
# The framework is charged, counterions have been retained in the structure
#
###############################################################################

data_YUVNIP
_chemical_formula_moiety         '(C280 H160 Ag26 Mo96 N80 O320 P12 S40)n'
_symmetry_cell_setting           triclinic
_symmetry_space_group_name_H-M   'P 1'
_symmetry_Int_Tables_number      1
_space_group_name_Hall           'P 1'
loop_
_symmetry_equiv_pos_site_id
_symmetry_equiv_pos_as_xyz
1 x,y,z
_cell_length_a                   22.563(6)
_cell_length_b                   25.768(6)
_cell_length_c                   27.347(6)
_cell_angle_alpha                90
_cell_angle_beta                 91.734(5)
_cell_angle_gamma                90
_cell_volume                     15892.4
loop_
_atom_site_label
_atom_site_type_symbol
_atom_site_fract_x
_atom_site_fract_y
_atom_site_fract_z
Ag2 Ag 0.05031(6) 0.15384(4) 0.53136(5)
Mo2 Mo 0.09813(6) 0.05792(5) 0.29460(5)
Mo3 Mo 0.05932(6) 0.05813(5) 0.17303(5)
Mo6 Mo 0.15113(6) 0.15127(5) 0.21983(5)
Mo9 Mo 0.05023(6) 0.25205(5) 0.17162(5)
Mo11 Mo 0.04192(7) 0.15906(5) 0.37503(5)
P1 P 0.000000 0.15406(15) 0.250000
S1 S 0.34295(19) 0.43564(14) 0.47180(14)
S3 S 0.2696(2) 0.36292(15) 0.58843(15)
O1 O 0.0144(4) 0.1886(3) 0.2944(3)
O2 O 0.0536(4) 0.1201(3) 0.2392(3)
O4 O 0.0885(4) 0.1110(3) 0.3409(3)
O5 O 0.0896(4) 0.0234(3) 0.2309(3)
O6 O 0.0962(4) 0.2136(3) 0.3610(3)
O7 O 0.0701(4) 0.2707(3) 0.2364(3)
O8 O 0.1309(4) 0.0972(3) 0.1733(3)
O9 O 0.1617(4) 0.0973(3) 0.2666(3)
O16 O 0.0741(5) 0.0137(3) 0.1310(3)
O19 O 0.0865(4) 0.2959(3) 0.1389(4)
O29 O 0.1379(4) 0.0131(3) 0.3245(3)
O31 O 0.1081(4) 0.1986(3) 0.1798(3)
O34 O 0.0597(5) 0.1482(3) 0.4333(3)
N2 N 0.1155(5) 0.2144(4) 0.5305(4)
N4 N 0.2634(6) 0.3560(4) 0.4931(5)
O40 O 0.2207(4) 0.1624(3) 0.2049(4)
N6 N 0.3475(6) 0.4449(4) 0.5676(4)
N7 N 0.4867(6) 0.5915(4) 0.5292(4)
C2 C 0.2416(7) 0.3361(5) 0.5339(5)
C3 C 0.4086(6) 0.5087(5) 0.5264(5)
C4 C 0.4695(7) 0.5708(5) 0.4867(5)
H1 H 0.484218 0.584121 0.457864
C6 C 0.1987(7) 0.2934(5) 0.5344(6)
C11 C 0.3674(7) 0.4647(5) 0.5267(5)
C14 C 0.4289(7) 0.5300(5) 0.5711(6)
H6 H 0.416615 0.516147 0.600505
C15 C 0.4301(7) 0.5299(5) 0.4847(5)
H7 H 0.418056 0.516399 0.454467
C17 C 0.4673(8) 0.5719(6) 0.5710(6)
H8 H 0.479912 0.586602 0.600603
C18 C 0.3010(7) 0.3954(5) 0.5061(6)
C19 C 0.1352(7) 0.2351(5) 0.4906(5)
H9 H 0.119974 0.222572 0.460865
C21 C 0.1383(7) 0.2340(5) 0.5736(5)
H10 H 0.125248 0.220013 0.602728
C22 C 0.1789(7) 0.2727(6) 0.5758(6)
H11 H 0.192931 0.284932 0.605964
C23 C 0.1764(7) 0.2739(5) 0.4892(5)
H12 H 0.189316 0.286992 0.459701
C24 C 0.3100(7) 0.4046(5) 0.5550(5)
Ag4 Ag 0.04406(6) 0.24646(4) 0.03049(4)
Mo16 Mo 0.09614(6) 0.25194(5) 0.30168(5)
S8 S 0.2621(2) 0.03811(16) 0.08208(16)
O51 O 0.1406(4) 0.1992(3) 0.2712(3)
O53 O 0.0148(4) 0.2126(3) 0.1174(3)
O54 O 0.0245(4) 0.2851(3) 0.3237(3)
O58 O 0.0202(4) 0.1104(3) 0.1358(3)
O61 O 0.0193(4) 0.0384(3) 0.3067(3)
O75 O 0.1465(5) 0.2971(4) 0.3156(4)
N13 N 0.1135(6) 0.1886(5) 0.0269(5)
C40 C 0.1961(7) 0.1093(5) 0.0270(5)
C48 C 0.2376(8) 0.0658(6) 0.0263(6)
C53 C 0.1347(8) 0.1668(6) 0.0687(6)
H29 H 0.120846 0.178963 0.098206
C56 C 0.1757(8) 0.1276(6) 0.0697(6)
H32 H 0.189405 0.113784 0.099353
Ag10 Ag 0.55031(6) 0.65384(4) 0.53136(5)
N17 N 0.0199(6) 0.3096(4) 0.4713(4)
N11 N 0.2594(6) 0.0456(4) 0.9841(5)
C36 C 0.2956(8) 0.0052(6) 0.9995(6)
C54 C 0.1344(7) 0.1708(6) 0.9859(5)
H30 H 0.120579 0.185605 0.956660
C55 C 0.1756(8) 0.1314(6) 0.9836(6)
H31 H 0.189198 0.120015 0.953669
O82 O 0.0359(5) 0.2332(4) 0.9354(4)
N20 N 0.0133(6) 0.0915(4) 0.9708(4)
Mo1 Mo 0.09725(6) 0.85571(4) 0.30282(5)
Mo5 Mo 0.09385(6) 0.66765(5) 0.30811(5)
Mo7 Mo 0.15303(6) 0.76406(5) 0.22531(5)
Ag3 Ag 0.000000 0.95824(7) 0.250000
Mo10 Mo 0.06383(6) 0.86068(5) 0.18016(5)
Mo12 Mo 0.02475(7) 0.75761(5) 0.37621(5)
P2 P 0.000000 0.76200(17) 0.250000
O3 O 0.0100(4) 0.7277(3) 0.2950(3)
O11 O 0.0909(4) 0.8931(4) 0.2396(4)
O14 O 0.0723(4) 0.6452(3) 0.2413(3)
O15 O 0.0544(4) 0.7960(3) 0.2434(3)
O17 O 0.1606(4) 0.8189(4) 0.2773(3)
O20 O 0.0848(5) 0.7052(4) 0.3658(4)
O22 O 0.1165(5) 0.7161(4) 0.1861(4)
O23 O 0.1391(5) 0.7184(4) 0.2796(4)
O24 O 0.0839(5) 0.9036(4) 0.1402(4)
O25 O 0.1369(5) 0.8196(3) 0.1830(4)
O26 O 0.0200(5) 0.6313(4) 0.3249(4)
O28 O 0.0802(5) 0.8059(4) 0.3484(4)
O30 O 0.0359(5) 0.7668(4) 0.4354(4)
O32 O 0.1433(5) 0.6228(3) 0.3259(4)
O33 O 0.0151(4) 0.8787(4) 0.3084(4)
O37 O 0.2251(5) 0.7551(4) 0.2165(4)
O39 O 0.1343(5) 0.9006(4) 0.3360(4)
Mo20 Mo 0.05589(6) 0.66006(5) 0.17628(5)
O67 O 0.0301(5) 0.7036(4) 0.1218(4)
N9 N 0.4801(6) 0.8096(4) 0.0287(4)
O76 O 0.0949(5) 0.6160(4) 0.1460(4)
O78 O 0.0326(4) 0.8076(4) 0.1396(4)
N16 N 0.3385(6) 0.9552(4) 0.0646(5)
C29 C 0.4005(7) 0.8908(5) 0.0243(5)
C33 C 0.3587(6) 0.9348(5) 0.0231(5)
C38 C 0.4568(8) 0.8271(5) 0.0689(5)
H20 H 0.468784 0.812468 0.098637
C41 C 0.4158(8) 0.8658(6) 0.0688(5)
H21 H 0.398115 0.875674 0.097641
C44 C 0.3022(7) 0.9957(5) 0.0488(6)
Ag7 Ag 0.54406(6) 0.74646(4) 0.03049(4)
Ag8 Ag 0.04406(6) 0.75354(4) 0.53049(4)
Ag1 Ag 0.95594(6) 0.24646(4) 0.46951(4)
Mo4 Mo 0.90386(6) 0.25194(5) 0.19832(5)
P1_2 P 1.000000 0.15406(15) 0.250000
S4 S 0.7379(2) 0.03811(16) 0.41792(16)
O10 O 0.8594(4) 0.1992(3) 0.2288(3)
O12 O 0.9852(4) 0.2126(3) 0.3826(3)
O13 O 0.9755(4) 0.2851(3) 0.1763(3)
O18 O 0.9798(4) 0.1104(3) 0.3642(3)
O21 O 0.9807(4) 0.0384(3) 0.1933(3)
O35 O 0.8535(5) 0.2971(4) 0.1844(4)
N3 N 0.7406(6) 0.0456(4) 0.5159(5)
N5 N 0.8865(6) 0.1886(5) 0.4731(5)
C8 C 0.7044(8) 0.0052(6) 0.5005(6)
C12 C 0.8039(7) 0.1093(5) 0.4730(5)
C20 C 0.7624(8) 0.0658(6) 0.4737(6)
C25 C 0.8653(8) 0.1668(6) 0.4313(6)
H13 H 0.879154 0.178963 0.401794
C26 C 0.8656(7) 0.1708(6) 0.5141(5)
H14 H 0.879421 0.185605 0.543340
C27 C 0.8244(8) 0.1314(6) 0.5164(6)
H15 H 0.810802 0.120015 0.546331
C28 C 0.8243(8) 0.1276(6) 0.4303(6)
H16 H 0.810595 0.113784 0.400647
O41 O 0.9856(4) 0.1886(3) 0.2056(3)
O42 O 0.9464(4) 0.1201(3) 0.2608(3)
Mo14 Mo 0.90187(6) 0.05792(5) 0.20540(5)
Mo15 Mo 0.94068(6) 0.05813(5) 0.32697(5)
Mo18 Mo 0.84887(6) 0.15127(5) 0.28017(5)
Mo21 Mo 0.94977(6) 0.25205(5) 0.32838(5)
Mo23 Mo 0.95808(7) 0.15906(5) 0.12497(5)
S5 S 0.65705(19) 0.43564(14) 0.02820(14)
O45 O 0.9115(4) 0.1110(3) 0.1591(3)
O46 O 0.9104(4) 0.0234(3) 0.2691(3)
O47 O 0.9038(4) 0.2136(3) 0.1390(3)
O48 O 0.9299(4) 0.2707(3) 0.2636(3)
O49 O 0.8691(4) 0.0972(3) 0.3267(3)
O50 O 0.8383(4) 0.0973(3) 0.2334(3)
O56 O 0.9259(5) 0.0137(3) 0.3690(3)
O59 O 0.9135(4) 0.2959(3) 0.3611(4)
O69 O 0.8621(4) 0.0131(3) 0.1755(3)
O71 O 0.8919(4) 0.1986(3) 0.3202(3)
O74 O 0.9403(5) 0.1482(3) 0.0667(3)
N12 N 0.7366(6) 0.3560(4) 0.0069(5)
O80 O 0.7793(4) 0.1624(3) 0.2951(4)
C32 C 0.5305(7) 0.5708(5) 0.0133(5)
H17 H 0.515782 0.584121 0.042136
C43 C 0.5699(7) 0.5299(5) 0.0153(5)
H23 H 0.581944 0.516399 0.045533
C47 C 0.8648(7) 0.2351(5) 0.0094(5)
H25 H 0.880026 0.222572 0.039135
C51 C 0.8236(7) 0.2739(5) 0.0108(5)
H28 H 0.810684 0.286992 0.040299
O81 O 0.9641(5) 0.2332(4) 0.5646(4)
N18 N 0.9801(6) 0.3096(4) 0.0287(4)
N19 N 0.9867(6) 0.0915(4) 0.5292(4)
Ag5 Ag 0.94969(6) 0.15384(4) 0.96864(5)
S7 S 0.7304(2) 0.36292(15) 0.91157(15)
N10 N 0.8845(5) 0.2144(4) 0.9695(4)
N14 N 0.6525(6) 0.4449(4) 0.9324(4)
N15 N 0.5133(6) 0.5915(4) 0.9708(4)
C30 C 0.7584(7) 0.3361(5) 0.9661(5)
C31 C 0.5914(6) 0.5087(5) 0.9736(5)
C34 C 0.8013(7) 0.2934(5) 0.9656(6)
C39 C 0.6326(7) 0.4647(5) 0.9733(5)
C42 C 0.5711(7) 0.5300(5) 0.9289(6)
H22 H 0.583385 0.516147 0.899495
C45 C 0.5327(8) 0.5719(6) 0.9290(6)
H24 H 0.520088 0.586602 0.899397
C46 C 0.6990(7) 0.3954(5) 0.9939(6)
C49 C 0.8617(7) 0.2340(5) 0.9264(5)
H26 H 0.874752 0.220013 0.897272
C50 C 0.8211(7) 0.2727(6) 0.9242(6)
H27 H 0.807069 0.284932 0.894036
C52 C 0.6900(7) 0.4046(5) 0.9450(5)
Ag11 Ag 0.44969(6) 0.65384(4) 0.96864(5)
Mo8 Mo 0.94411(6) 0.66006(5) 0.32372(5)
Ag3_2 Ag 1.000000 0.95824(7) 0.250000
P2_2 P 1.000000 0.76200(17) 0.250000
S2 S 0.66423(19) 0.96259(15) 0.53259(15)
O27 O 0.9699(5) 0.7036(4) 0.3782(4)
N1 N 0.5199(6) 0.8096(4) 0.4713(4)
O36 O 0.9051(5) 0.6160(4) 0.3540(4)
O38 O 0.9674(4) 0.8076(4) 0.3604(4)
N8 N 0.6615(6) 0.9552(4) 0.4354(5)
C1 C 0.5995(7) 0.8908(5) 0.4757(5)
C5 C 0.6413(6) 0.9348(5) 0.4769(5)
C7 C 0.5324(7) 0.8313(6) 0.5151(5)
H2 H 0.513319 0.820333 0.542938
C9 C 0.5753(7) 0.8711(5) 0.5179(5)
H3 H 0.587394 0.884250 0.548246
C10 C 0.5432(8) 0.8271(5) 0.4311(5)
H4 H 0.531216 0.812468 0.401363
C13 C 0.5842(8) 0.8658(6) 0.4312(5)
H5 H 0.601885 0.875674 0.402359
C16 C 0.6978(7) 0.9957(5) 0.4512(6)
O43 O 0.9900(4) 0.7277(3) 0.2050(3)
O44 O 0.9456(4) 0.7960(3) 0.2566(3)
Mo13 Mo 0.90275(6) 0.85571(4) 0.19718(5)
Mo17 Mo 0.90615(6) 0.66765(5) 0.19189(5)
Mo19 Mo 0.84697(6) 0.76406(5) 0.27469(5)
Mo22 Mo 0.93617(6) 0.86068(5) 0.31984(5)
Mo24 Mo 0.97525(7) 0.75761(5) 0.12379(5)
O52 O 0.9091(4) 0.8931(4) 0.2604(4)
O55 O 0.9277(4) 0.6452(3) 0.2587(3)
O57 O 0.8394(4) 0.8189(4) 0.2227(3)
O60 O 0.9152(5) 0.7052(4) 0.1342(4)
O62 O 0.8835(5) 0.7161(4) 0.3139(4)
O63 O 0.8609(5) 0.7184(4) 0.2204(4)
O64 O 0.9161(5) 0.9036(4) 0.3598(4)
O65 O 0.8631(5) 0.8196(3) 0.3170(4)
O66 O 0.9800(5) 0.6313(4) 0.1751(4)
O68 O 0.9198(5) 0.8059(4) 0.1516(4)
O70 O 0.9641(5) 0.7668(4) 0.0646(4)
O72 O 0.8567(5) 0.6228(3) 0.1741(4)
O73 O 0.9849(4) 0.8787(4) 0.1916(4)
O77 O 0.7749(5) 0.7551(4) 0.2835(4)
O79 O 0.8657(5) 0.9006(4) 0.1640(4)
Ag6 Ag 0.45594(6) 0.74646(4) 0.46951(4)
Ag9 Ag 0.95594(6) 0.75354(4) 0.96951(4)
C3_2 C 0.9086(6) 0.0087(5) 0.5264(5)
C4_2 C 0.9695(7) 0.0708(5) 0.4867(5)
H1_2 H 0.984218 0.084121 0.457864
C14_2 C 0.9289(7) 0.0300(5) 0.5711(6)
H6_2 H 0.916615 0.016147 0.600505
C15_2 C 0.9301(7) 0.0299(5) 0.4847(5)
H7_2 H 0.918056 0.016399 0.454467
C17_2 C 0.9673(8) 0.0719(6) 0.5710(6)
H8_2 H 0.979912 0.086602 0.600603
C32_2 C 0.0305(7) 0.0708(5) 0.0133(5)
H17_2 H 0.015782 0.084121 0.042136
C43_2 C 0.0699(7) 0.0299(5) 0.0153(5)
H23_2 H 0.081944 0.016399 0.045533
C31_2 C 0.0914(6) 0.0087(5) 0.9736(5)
C42_2 C 0.0711(7) 0.0300(5) 0.9289(6)
H22_2 H 0.083385 0.016147 0.899495
C45_2 C 0.0327(8) 0.0719(6) 0.9290(6)
H24_2 H 0.020088 0.086602 0.899397
Mo1_2 Mo 0.59725(6) 0.35571(4) 0.30282(5)
Mo2_2 Mo 0.59813(6) 0.55792(5) 0.29460(5)
Mo3_2 Mo 0.55932(6) 0.55813(5) 0.17303(5)
Mo4_2 Mo 0.40386(6) 0.75194(5) 0.19832(5)
Mo5_2 Mo 0.59385(6) 0.16765(5) 0.30811(5)
Mo6_2 Mo 0.65113(6) 0.65127(5) 0.21983(5)
Mo7_2 Mo 0.65303(6) 0.26406(5) 0.22531(5)
Mo8_2 Mo 0.44411(6) 0.16006(5) 0.32372(5)
Mo9_2 Mo 0.55023(6) 0.75205(5) 0.17162(5)
Ag3_3 Ag 0.500000 0.45824(7) 0.250000
Mo10_2 Mo 0.56383(6) 0.36068(5) 0.18016(5)
Mo11_2 Mo 0.54192(7) 0.65906(5) 0.37503(5)
Mo12_2 Mo 0.52475(7) 0.25761(5) 0.37621(5)
P1_3 P 0.500000 0.65406(15) 0.250000
P2_3 P 0.500000 0.26200(17) 0.250000
S1_2 S 0.84295(19) 0.93564(14) 0.47180(14)
S2_2 S 0.16423(19) 0.46259(15) 0.53259(15)
S3_2 S 0.7696(2) 0.86292(15) 0.58843(15)
S4_2 S 0.2379(2) 0.53811(16) 0.41792(16)
O1_2 O 0.5144(4) 0.6886(3) 0.2944(3)
O2_2 O 0.5536(4) 0.6201(3) 0.2392(3)
O3_2 O 0.5100(4) 0.2277(3) 0.2950(3)
O4_2 O 0.5885(4) 0.6110(3) 0.3409(3)
O5_2 O 0.5896(4) 0.5234(3) 0.2309(3)
O6_2 O 0.5962(4) 0.7136(3) 0.3610(3)
O7_2 O 0.5701(4) 0.7707(3) 0.2364(3)
O8_2 O 0.6309(4) 0.5972(3) 0.1733(3)
O9_2 O 0.6617(4) 0.5973(3) 0.2666(3)
O10_2 O 0.3594(4) 0.6992(3) 0.2288(3)
O11_2 O 0.5909(4) 0.3931(4) 0.2396(4)
O12_2 O 0.4852(4) 0.7126(3) 0.3826(3)
O13_2 O 0.4755(4) 0.7851(3) 0.1763(3)
O14_2 O 0.5723(4) 0.1452(3) 0.2413(3)
O15_2 O 0.5544(4) 0.2960(3) 0.2434(3)
O16_2 O 0.5741(5) 0.5137(3) 0.1310(3)
O17_2 O 0.6606(4) 0.3189(4) 0.2773(3)
O18_2 O 0.4798(4) 0.6104(3) 0.3642(3)
O19_2 O 0.5865(4) 0.7959(3) 0.1389(4)
O20_2 O 0.5848(5) 0.2052(4) 0.3658(4)
O21_2 O 0.4807(4) 0.5384(3) 0.1933(3)
O22_2 O 0.6165(5) 0.2161(4) 0.1861(4)
O23_2 O 0.6391(5) 0.2184(4) 0.2796(4)
O24_2 O 0.5839(5) 0.4036(4) 0.1402(4)
O25_2 O 0.6369(5) 0.3196(3) 0.1830(4)
O26_2 O 0.5200(5) 0.1313(4) 0.3249(4)
O27_2 O 0.4699(5) 0.2036(4) 0.3782(4)
O28_2 O 0.5802(5) 0.3059(4) 0.3484(4)
O29_2 O 0.6379(4) 0.5131(3) 0.3245(3)
O30_2 O 0.5359(5) 0.2668(4) 0.4354(4)
O31_2 O 0.6081(4) 0.6986(3) 0.1798(3)
O32_2 O 0.6433(5) 0.1228(3) 0.3259(4)
O33_2 O 0.5151(4) 0.3787(4) 0.3084(4)
O34_2 O 0.5597(5) 0.6482(3) 0.4333(3)
N2_2 N 0.6155(5) 0.7144(4) 0.5305(4)
O35_2 O 0.3535(5) 0.7971(4) 0.1844(4)
O36_2 O 0.4051(5) 0.1160(4) 0.3540(4)
O37_2 O 0.7251(5) 0.2551(4) 0.2165(4)
O38_2 O 0.4674(4) 0.3076(4) 0.3604(4)
N3_2 N 0.2406(6) 0.5456(4) 0.5159(5)
O39_2 O 0.6343(5) 0.4006(4) 0.3360(4)
N4_2 N 0.7634(6) 0.8560(4) 0.4931(5)
O40_2 O 0.7207(4) 0.6624(3) 0.2049(4)
N5_2 N 0.3865(6) 0.6886(5) 0.4731(5)
N6_2 N 0.8475(6) 0.9449(4) 0.5676(4)
N8_2 N 0.1615(6) 0.4552(4) 0.4354(5)
C1_2 C 0.0995(7) 0.3908(5) 0.4757(5)
C2_2 C 0.7416(7) 0.8361(5) 0.5339(5)
C5_2 C 0.1413(6) 0.4348(5) 0.4769(5)
C6_2 C 0.6987(7) 0.7934(5) 0.5344(6)
C7_2 C 0.0324(7) 0.3313(6) 0.5151(5)
H2_2 H 0.013319 0.320333 0.542938
C8_2 C 0.2044(8) 0.5052(6) 0.5005(6)
C9_2 C 0.0753(7) 0.3711(5) 0.5179(5)
H3_2 H 0.087394 0.384250 0.548246
C10_2 C 0.0432(8) 0.3271(5) 0.4311(5)
H4_2 H 0.031216 0.312468 0.401363
C11_2 C 0.8674(7) 0.9647(5) 0.5267(5)
C12_2 C 0.3039(7) 0.6093(5) 0.4730(5)
C13_2 C 0.0842(8) 0.3658(6) 0.4312(5)
H5_2 H 0.101885 0.375674 0.402359
C16_2 C 0.1978(7) 0.4957(5) 0.4512(6)
C18_2 C 0.8010(7) 0.8954(5) 0.5061(6)
C19_2 C 0.6352(7) 0.7351(5) 0.4906(5)
H9_2 H 0.619974 0.722572 0.460865
C20_2 C 0.2624(8) 0.5658(6) 0.4737(6)
C21_2 C 0.6383(7) 0.7340(5) 0.5736(5)
H10_2 H 0.625248 0.720013 0.602728
C22_2 C 0.6789(7) 0.7727(6) 0.5758(6)
H11_2 H 0.692931 0.784932 0.605964
C23_2 C 0.6764(7) 0.7739(5) 0.4892(5)
H12_2 H 0.689316 0.786992 0.459701
C24_2 C 0.8100(7) 0.9046(5) 0.5550(5)
C25_2 C 0.3653(8) 0.6668(6) 0.4313(6)
H13_2 H 0.379154 0.678963 0.401794
C26_2 C 0.3656(7) 0.6708(6) 0.5141(5)
H14_2 H 0.379421 0.685605 0.543340
C27_2 C 0.3244(8) 0.6314(6) 0.5164(6)
H15_2 H 0.310802 0.620015 0.546331
C28_2 C 0.3243(8) 0.6276(6) 0.4303(6)
H16_2 H 0.310595 0.613784 0.400647
O41_2 O 0.4856(4) 0.6886(3) 0.2056(3)
O42_2 O 0.4464(4) 0.6201(3) 0.2608(3)
O43_2 O 0.4900(4) 0.2277(3) 0.2050(3)
O44_2 O 0.4456(4) 0.2960(3) 0.2566(3)
Mo13_2 Mo 0.40275(6) 0.35571(4) 0.19718(5)
Mo14_2 Mo 0.40187(6) 0.55792(5) 0.20540(5)
Mo15_2 Mo 0.44068(6) 0.55813(5) 0.32697(5)
Mo16_2 Mo 0.59614(6) 0.75194(5) 0.30168(5)
Mo17_2 Mo 0.40615(6) 0.16765(5) 0.19189(5)
Mo18_2 Mo 0.34887(6) 0.65127(5) 0.28017(5)
Mo19_2 Mo 0.34697(6) 0.26406(5) 0.27469(5)
Mo20_2 Mo 0.55589(6) 0.16006(5) 0.17628(5)
Mo21_2 Mo 0.44977(6) 0.75205(5) 0.32838(5)
Mo22_2 Mo 0.43617(6) 0.36068(5) 0.31984(5)
Mo23_2 Mo 0.45808(7) 0.65906(5) 0.12497(5)
Mo24_2 Mo 0.47525(7) 0.25761(5) 0.12379(5)
S5_2 S 0.15705(19) 0.93564(14) 0.02820(14)
S8_2 S 0.7621(2) 0.53811(16) 0.08208(16)
O45_2 O 0.4115(4) 0.6110(3) 0.1591(3)
O46_2 O 0.4104(4) 0.5234(3) 0.2691(3)
O47_2 O 0.4038(4) 0.7136(3) 0.1390(3)
O48_2 O 0.4299(4) 0.7707(3) 0.2636(3)
O49_2 O 0.3691(4) 0.5972(3) 0.3267(3)
O50_2 O 0.3383(4) 0.5973(3) 0.2334(3)
O51_2 O 0.6406(4) 0.6992(3) 0.2712(3)
O52_2 O 0.4091(4) 0.3931(4) 0.2604(4)
O53_2 O 0.5148(4) 0.7126(3) 0.1174(3)
O54_2 O 0.5245(4) 0.7851(3) 0.3237(3)
O55_2 O 0.4277(4) 0.1452(3) 0.2587(3)
O56_2 O 0.4259(5) 0.5137(3) 0.3690(3)
O57_2 O 0.3394(4) 0.3189(4) 0.2227(3)
O58_2 O 0.5202(4) 0.6104(3) 0.1358(3)
O59_2 O 0.4135(4) 0.7959(3) 0.3611(4)
O60_2 O 0.4152(5) 0.2052(4) 0.1342(4)
O61_2 O 0.5193(4) 0.5384(3) 0.3067(3)
O62_2 O 0.3835(5) 0.2161(4) 0.3139(4)
O63_2 O 0.3609(5) 0.2184(4) 0.2204(4)
O64_2 O 0.4161(5) 0.4036(4) 0.3598(4)
O65_2 O 0.3631(5) 0.3196(3) 0.3170(4)
O66_2 O 0.4800(5) 0.1313(4) 0.1751(4)
O67_2 O 0.5301(5) 0.2036(4) 0.1218(4)
O68_2 O 0.4198(5) 0.3059(4) 0.1516(4)
O69_2 O 0.3621(4) 0.5131(3) 0.1755(3)
O70_2 O 0.4641(5) 0.2668(4) 0.0646(4)
O71_2 O 0.3919(4) 0.6986(3) 0.3202(3)
O72_2 O 0.3567(5) 0.1228(3) 0.1741(4)
O73_2 O 0.4849(4) 0.3787(4) 0.1916(4)
O74_2 O 0.4403(5) 0.6482(3) 0.0667(3)
O75_2 O 0.6465(5) 0.7971(4) 0.3156(4)
O76_2 O 0.5949(5) 0.1160(4) 0.1460(4)
O77_2 O 0.2749(5) 0.2551(4) 0.2835(4)
O78_2 O 0.5326(4) 0.3076(4) 0.1396(4)
O79_2 O 0.3657(5) 0.4006(4) 0.1640(4)
N12_2 N 0.2366(6) 0.8560(4) 0.0069(5)
O80_2 O 0.2793(4) 0.6624(3) 0.2951(4)
N13_2 N 0.6135(6) 0.6886(5) 0.0269(5)
N16_2 N 0.8385(6) 0.4552(4) 0.0646(5)
C29_2 C 0.9005(7) 0.3908(5) 0.0243(5)
C33_2 C 0.8587(6) 0.4348(5) 0.0231(5)
C38_2 C 0.9568(8) 0.3271(5) 0.0689(5)
H20_2 H 0.968784 0.312468 0.098637
C40_2 C 0.6961(7) 0.6093(5) 0.0270(5)
C41_2 C 0.9158(8) 0.3658(6) 0.0688(5)
H21_2 H 0.898115 0.375674 0.097641
C44_2 C 0.8022(7) 0.4957(5) 0.0488(6)
C47_2 C 0.3648(7) 0.7351(5) 0.0094(5)
H25_2 H 0.380026 0.722572 0.039135
C48_2 C 0.7376(8) 0.5658(6) 0.0263(6)
C51_2 C 0.3236(7) 0.7739(5) 0.0108(5)
H28_2 H 0.310684 0.786992 0.040299
C53_2 C 0.6347(8) 0.6668(6) 0.0687(6)
H29_2 H 0.620846 0.678963 0.098206
C56_2 C 0.6757(8) 0.6276(6) 0.0697(6)
H32_2 H 0.689405 0.613784 0.099353
Ag8_2 Ag 0.54406(6) 0.25354(4) 0.53049(4)
O81_2 O 0.4641(5) 0.7332(4) 0.5646(4)
S6 S 0.83577(19) 0.46259(15) 0.96741(15)
S7_2 S 0.2304(2) 0.86292(15) 0.91157(15)
N10_2 N 0.3845(5) 0.7144(4) 0.9695(4)
N11_2 N 0.7594(6) 0.5456(4) 0.9841(5)
N14_2 N 0.1525(6) 0.9449(4) 0.9324(4)
C30_2 C 0.2584(7) 0.8361(5) 0.9661(5)
C34_2 C 0.3013(7) 0.7934(5) 0.9656(6)
C35 C 0.9676(7) 0.3313(6) 0.9849(5)
H18 H 0.986681 0.320333 0.957062
C36_2 C 0.7956(8) 0.5052(6) 0.9995(6)
C37 C 0.9247(7) 0.3711(5) 0.9821(5)
H19 H 0.912606 0.384250 0.951754
C39_2 C 0.1326(7) 0.9647(5) 0.9733(5)
C46_2 C 0.1990(7) 0.8954(5) 0.9939(6)
C49_2 C 0.3617(7) 0.7340(5) 0.9264(5)
H26_2 H 0.374752 0.720013 0.897272
C50_2 C 0.3211(7) 0.7727(6) 0.9242(6)
H27_2 H 0.307069 0.784932 0.894036
C52_2 C 0.1900(7) 0.9046(5) 0.9450(5)
C54_2 C 0.6344(7) 0.6708(6) 0.9859(5)
H30_2 H 0.620579 0.685605 0.956660
C55_2 C 0.6756(8) 0.6314(6) 0.9836(6)
H31_2 H 0.689198 0.620015 0.953669
Ag9_2 Ag 0.45594(6) 0.25354(4) 0.96951(4)
O82_2 O 0.5359(5) 0.7332(4) 0.9354(4)
Mo8_3 Mo 0.05589(6) 0.33994(5) 0.67628(5)
Ag3_4 Ag 0.000000 0.04176(7) 0.750000
P2_4 P -0.000000 0.23800(17) 0.750000
S2_3 S 0.33577(19) 0.03741(15) 0.46741(15)
O27_3 O 0.0301(5) 0.2964(4) 0.6218(4)
N1_2 N 0.4801(6) 0.1904(4) 0.5287(4)
O36_3 O 0.0949(5) 0.3840(4) 0.6460(4)
O38_3 O 0.0326(4) 0.1924(4) 0.6396(4)
N8_3 N 0.3385(6) 0.0448(4) 0.5646(5)
C1_3 C 0.4005(7) 0.1092(5) 0.5243(5)
C5_3 C 0.3587(6) 0.0652(5) 0.5231(5)
C7_3 C 0.4676(7) 0.1687(6) 0.4849(5)
H2_3 H 0.486681 0.179667 0.457062
C9_3 C 0.4247(7) 0.1289(5) 0.4821(5)
H3_3 H 0.412606 0.115750 0.451754
C10_3 C 0.4568(8) 0.1729(5) 0.5689(5)
H4_3 H 0.468784 0.187532 0.598637
C13_3 C 0.4158(8) 0.1342(6) 0.5688(5)
H5_3 H 0.398115 0.124326 0.597641
C16_3 C 0.3022(7) 0.0043(5) 0.5488(6)
O43_3 O 0.0100(4) 0.2723(3) 0.7950(3)
O44_3 O 0.0544(4) 0.2040(3) 0.7434(3)
Mo13_3 Mo 0.09725(6) 0.14429(4) 0.80282(5)
Mo17_3 Mo 0.09385(6) 0.33235(5) 0.80811(5)
Mo19_3 Mo 0.15303(6) 0.23594(5) 0.72531(5)
Mo22_3 Mo 0.06383(6) 0.13932(5) 0.68016(5)
Mo24_3 Mo 0.02475(7) 0.24239(5) 0.87621(5)
O52_3 O 0.0909(4) 0.1069(4) 0.7396(4)
O55_3 O 0.0723(4) 0.3548(3) 0.7413(3)
O57_3 O 0.1606(4) 0.1811(4) 0.7773(3)
O60_3 O 0.0848(5) 0.2948(4) 0.8658(4)
O62_3 O 0.1165(5) 0.2839(4) 0.6861(4)
O63_3 O 0.1391(5) 0.2816(4) 0.7796(4)
O64_3 O 0.0839(5) 0.0964(4) 0.6402(4)
O65_3 O 0.1369(5) 0.1804(3) 0.6830(4)
O66_3 O 0.0200(5) 0.3687(4) 0.8249(4)
O68_3 O 0.0802(5) 0.1941(4) 0.8484(4)
O72_3 O 0.1433(5) 0.3772(3) 0.8259(4)
O73_3 O 0.0151(4) 0.1213(4) 0.8084(4)
O77_3 O 0.2251(5) 0.2449(4) 0.7165(4)
O79_3 O 0.1343(5) 0.0994(4) 0.8360(4)
Ag5_2 Ag 0.05031(6) 0.84616(4) 0.03136(5)
S7_3 S 0.2696(2) 0.63708(15) 0.08843(15)
N10_3 N 0.1155(5) 0.7856(4) 0.0305(4)
N14_3 N 0.3475(6) 0.5551(4) 0.0676(4)
N15_2 N 0.4867(6) 0.4085(4) 0.0292(4)
C30_3 C 0.2416(7) 0.6639(5) 0.0339(5)
C31_3 C 0.4086(6) 0.4913(5) 0.0264(5)
C34_3 C 0.1987(7) 0.7066(5) 0.0344(6)
C39_3 C 0.3674(7) 0.5353(5) 0.0267(5)
C42_3 C 0.4289(7) 0.4700(5) 0.0711(6)
H22_3 H 0.416615 0.483853 0.100505
C45_3 C 0.4673(8) 0.4281(6) 0.0710(6)
H24_3 H 0.479912 0.413398 0.100603
C46_3 C 0.3010(7) 0.6046(5) 0.0061(6)
C49_3 C 0.1383(7) 0.7660(5) 0.0736(5)
H26_3 H 0.125248 0.779987 0.102728
C50_3 C 0.1789(7) 0.7273(6) 0.0758(6)
H27_3 H 0.192931 0.715068 0.105964
C52_3 C 0.3100(7) 0.5954(5) 0.0550(5)
Ag11_2 Ag 0.55031(6) 0.34616(4) 0.03136(5)
Mo4_3 Mo 0.09614(6) 0.74806(5) 0.80168(5)
P1_4 P -0.000000 0.84594(15) 0.750000
S4_3 S 0.2621(2) 0.96189(16) 0.58208(16)
O10_3 O 0.1406(4) 0.8008(3) 0.7712(3)
O12_3 O 0.0148(4) 0.7874(3) 0.6174(3)
O13_3 O 0.0245(4) 0.7149(3) 0.8237(3)
O18_3 O 0.0202(4) 0.8896(3) 0.6358(3)
O21_3 O 0.0193(4) 0.9616(3) 0.8067(3)
O35_3 O 0.1465(5) 0.7029(4) 0.8156(4)
N3_3 N 0.2594(6) 0.9544(4) 0.4841(5)
N5_3 N 0.1135(6) 0.8114(5) 0.5269(5)
C8_3 C 0.2956(8) 0.9948(6) 0.4995(6)
C12_3 C 0.1961(7) 0.8907(5) 0.5270(5)
C20_3 C 0.2376(8) 0.9342(6) 0.5263(6)
C25_3 C 0.1347(8) 0.8332(6) 0.5687(6)
H13_3 H 0.120846 0.821037 0.598206
C26_3 C 0.1344(7) 0.8292(6) 0.4859(5)
H14_3 H 0.120579 0.814395 0.456660
C27_3 C 0.1756(8) 0.8686(6) 0.4836(6)
H15_3 H 0.189198 0.879985 0.453669
C28_3 C 0.1757(8) 0.8724(6) 0.5697(6)
H16_3 H 0.189405 0.886216 0.599353
O41_3 O 0.0144(4) 0.8114(3) 0.7944(3)
O42_3 O 0.0536(4) 0.8799(3) 0.7392(3)
Mo14_3 Mo 0.09813(6) 0.94208(5) 0.79460(5)
Mo15_3 Mo 0.05932(6) 0.94187(5) 0.67303(5)
Mo18_3 Mo 0.15113(6) 0.84873(5) 0.71983(5)
Mo21_3 Mo 0.05023(6) 0.74795(5) 0.67162(5)
Mo23_3 Mo 0.04192(7) 0.84094(5) 0.87503(5)
S5_3 S 0.34295(19) 0.56436(14) 0.97180(14)
O45_3 O 0.0885(4) 0.8890(3) 0.8409(3)
O46_3 O 0.0896(4) 0.9766(3) 0.7309(3)
O47_3 O 0.0962(4) 0.7864(3) 0.8610(3)
O48_3 O 0.0701(4) 0.7293(3) 0.7364(3)
O49_3 O 0.1309(4) 0.9028(3) 0.6733(3)
O50_3 O 0.1617(4) 0.9027(3) 0.7666(3)
O56_3 O 0.0741(5) 0.9863(3) 0.6310(3)
O59_3 O 0.0865(4) 0.7041(3) 0.6389(4)
O69_3 O 0.1379(4) 0.9869(3) 0.8245(3)
O71_3 O 0.1081(4) 0.8014(3) 0.6798(3)
O74_3 O 0.0597(5) 0.8518(3) 0.9333(3)
N12_3 N 0.2634(6) 0.6440(4) 0.9931(5)
O80_3 O 0.2207(4) 0.8376(3) 0.7049(4)
C32_3 C 0.4695(7) 0.4292(5) 0.9867(5)
H17_3 H 0.484218 0.415879 0.957864
C43_3 C 0.4301(7) 0.4701(5) 0.9847(5)
H23_3 H 0.418056 0.483601 0.954467
C47_3 C 0.1352(7) 0.7649(5) 0.9906(5)
H25_3 H 0.119974 0.777428 0.960865
C51_3 C 0.1764(7) 0.7261(5) 0.9892(5)
H28_3 H 0.189316 0.713008 0.959701
N18_2 N 0.0199(6) 0.6904(4) 0.9713(4)
N19_2 N 0.0133(6) 0.9085(4) 0.4708(4)
Mo1_3 Mo 0.90275(6) 0.14429(4) 0.69718(5)
Mo5_3 Mo 0.90615(6) 0.33235(5) 0.69189(5)
Mo7_3 Mo 0.84697(6) 0.23594(5) 0.77469(5)
Ag3_5 Ag 1.000000 0.04176(7) 0.750000
Mo10_3 Mo 0.93617(6) 0.13932(5) 0.81984(5)
Mo12_3 Mo 0.97525(7) 0.24239(5) 0.62379(5)
P2_5 P 1.000000 0.23800(17) 0.750000
O3_3 O 0.9900(4) 0.2723(3) 0.7050(3)
O11_3 O 0.9091(4) 0.1069(4) 0.7604(4)
O14_3 O 0.9277(4) 0.3548(3) 0.7587(3)
O15_3 O 0.9456(4) 0.2040(3) 0.7566(3)
O17_3 O 0.8394(4) 0.1811(4) 0.7227(3)
O20_3 O 0.9152(5) 0.2948(4) 0.6342(4)
O22_3 O 0.8835(5) 0.2839(4) 0.8139(4)
O23_3 O 0.8609(5) 0.2816(4) 0.7204(4)
O24_3 O 0.9161(5) 0.0964(4) 0.8598(4)
O25_3 O 0.8631(5) 0.1804(3) 0.8170(4)
O26_3 O 0.9800(5) 0.3687(4) 0.6751(4)
O28_3 O 0.9198(5) 0.1941(4) 0.6516(4)
O32_3 O 0.8567(5) 0.3772(3) 0.6741(4)
O33_3 O 0.9849(4) 0.1213(4) 0.6916(4)
O37_3 O 0.7749(5) 0.2449(4) 0.7835(4)
O39_3 O 0.8657(5) 0.0994(4) 0.6640(4)
Mo20_3 Mo 0.94411(6) 0.33994(5) 0.82372(5)
O67_3 O 0.9699(5) 0.2964(4) 0.8782(4)
N9_2 N 0.5199(6) 0.1904(4) 0.9713(4)
O76_3 O 0.9051(5) 0.3840(4) 0.8540(4)
O78_3 O 0.9674(4) 0.1924(4) 0.8604(4)
N16_3 N 0.6615(6) 0.0448(4) 0.9354(5)
C29_3 C 0.5995(7) 0.1092(5) 0.9757(5)
C33_3 C 0.6413(6) 0.0652(5) 0.9769(5)
C38_3 C 0.5432(8) 0.1729(5) 0.9311(5)
H20_3 H 0.531216 0.187532 0.901363
C41_3 C 0.5842(8) 0.1342(6) 0.9312(5)
H21_3 H 0.601885 0.124326 0.902359
C44_3 C 0.6978(7) 0.0043(5) 0.9512(6)
N11_3 N 0.7406(6) 0.9544(4) 0.0159(5)
C36_3 C 0.7044(8) 0.9948(6) 0.0005(6)
C54_3 C 0.8656(7) 0.8292(6) 0.0141(5)
H30_3 H 0.879421 0.814395 0.043340
C55_3 C 0.8244(8) 0.8686(6) 0.0164(6)
H31_3 H 0.810802 0.879985 0.046331
N20_2 N 0.9867(6) 0.9085(4) 0.0292(4)
Ag2_2 Ag 0.94969(6) 0.84616(4) 0.46864(5)
Mo2_3 Mo 0.90187(6) 0.94208(5) 0.70540(5)
Mo3_3 Mo 0.94068(6) 0.94187(5) 0.82697(5)
Mo6_3 Mo 0.84887(6) 0.84873(5) 0.78017(5)
Mo9_3 Mo 0.94977(6) 0.74795(5) 0.82838(5)
Mo11_3 Mo 0.95808(7) 0.84094(5) 0.62497(5)
P1_5 P 1.000000 0.84594(15) 0.750000
S1_3 S 0.65705(19) 0.56436(14) 0.52820(14)
S3_3 S 0.7304(2) 0.63708(15) 0.41157(15)
O1_3 O 0.9856(4) 0.8114(3) 0.7056(3)
O2_3 O 0.9464(4) 0.8799(3) 0.7608(3)
O4_3 O 0.9115(4) 0.8890(3) 0.6591(3)
O5_3 O 0.9104(4) 0.9766(3) 0.7691(3)
O6_3 O 0.9038(4) 0.7864(3) 0.6390(3)
O7_3 O 0.9299(4) 0.7293(3) 0.7636(3)
O8_3 O 0.8691(4) 0.9028(3) 0.8267(3)
O9_3 O 0.8383(4) 0.9027(3) 0.7334(3)
O16_3 O 0.9259(5) 0.9863(3) 0.8690(3)
O19_3 O 0.9135(4) 0.7041(3) 0.8611(4)
O29_3 O 0.8621(4) 0.9869(3) 0.6755(3)
O31_3 O 0.8919(4) 0.8014(3) 0.8202(3)
O34_3 O 0.9403(5) 0.8518(3) 0.5667(3)
N2_3 N 0.8845(5) 0.7856(4) 0.4695(4)
N4_3 N 0.7366(6) 0.6440(4) 0.5069(5)
O40_3 O 0.7793(4) 0.8376(3) 0.7951(4)
N6_3 N 0.6525(6) 0.5551(4) 0.4324(4)
N7_2 N 0.5133(6) 0.4085(4) 0.4708(4)
C2_3 C 0.7584(7) 0.6639(5) 0.4661(5)
C3_3 C 0.5914(6) 0.4913(5) 0.4736(5)
C4_3 C 0.5305(7) 0.4292(5) 0.5133(5)
H1_3 H 0.515782 0.415879 0.542136
C6_3 C 0.8013(7) 0.7066(5) 0.4656(6)
C11_3 C 0.6326(7) 0.5353(5) 0.4733(5)
C14_3 C 0.5711(7) 0.4700(5) 0.4289(6)
H6_3 H 0.583385 0.483853 0.399495
C15_3 C 0.5699(7) 0.4701(5) 0.5153(5)
H7_3 H 0.581944 0.483601 0.545533
C17_3 C 0.5327(8) 0.4281(6) 0.4290(6)
H8_3 H 0.520088 0.413398 0.399397
C18_3 C 0.6990(7) 0.6046(5) 0.4939(6)
C19_3 C 0.8648(7) 0.7649(5) 0.5094(5)
H9_3 H 0.880026 0.777428 0.539135
C21_3 C 0.8617(7) 0.7660(5) 0.4264(5)
H10_3 H 0.874752 0.779987 0.397272
C22_3 C 0.8211(7) 0.7273(6) 0.4242(6)
H11_3 H 0.807069 0.715068 0.394036
C23_3 C 0.8236(7) 0.7261(5) 0.5108(5)
H12_3 H 0.810684 0.713008 0.540299
C24_3 C 0.6900(7) 0.5954(5) 0.4450(5)
Mo16_3 Mo 0.90386(6) 0.74806(5) 0.69832(5)
S8_3 S 0.7379(2) 0.96189(16) 0.91792(16)
O51_3 O 0.8594(4) 0.8008(3) 0.7288(3)
O53_3 O 0.9852(4) 0.7874(3) 0.8826(3)
O54_3 O 0.9755(4) 0.7149(3) 0.6763(3)
O58_3 O 0.9798(4) 0.8896(3) 0.8642(3)
O61_3 O 0.9807(4) 0.9616(3) 0.6933(3)
O75_3 O 0.8535(5) 0.7029(4) 0.6844(4)
N13_3 N 0.8865(6) 0.8114(5) 0.9731(5)
C40_3 C 0.8039(7) 0.8907(5) 0.9730(5)
C48_3 C 0.7624(8) 0.9342(6) 0.9737(6)
C53_3 C 0.8653(8) 0.8332(6) 0.9313(6)
H29_3 H 0.879154 0.821037 0.901794
C56_3 C 0.8243(8) 0.8724(6) 0.9303(6)
H32_3 H 0.810595 0.886216 0.900647
Ag10_2 Ag 0.44969(6) 0.34616(4) 0.46864(5)
N17_2 N 0.9801(6) 0.6904(4) 0.5287(4)
S6_2 S 0.16423(19) 0.53741(15) 0.03259(15)
S7_4 S 0.7696(2) 0.13708(15) 0.08843(15)
N10_4 N 0.6155(5) 0.2856(4) 0.0305(4)
N11_4 N 0.2406(6) 0.4544(4) 0.0159(5)
N14_4 N 0.8475(6) 0.0551(4) 0.0676(4)
C30_4 C 0.7416(7) 0.1639(5) 0.0339(5)
C34_4 C 0.6987(7) 0.2066(5) 0.0344(6)
C35_2 C 0.0324(7) 0.6687(6) 0.0151(5)
H18_2 H 0.013319 0.679667 0.042938
C36_4 C 0.2044(8) 0.4948(6) 0.0005(6)
C37_2 C 0.0753(7) 0.6289(5) 0.0179(5)
H19_2 H 0.087394 0.615750 0.048246
C39_4 C 0.8674(7) 0.0353(5) 0.0267(5)
C46_4 C 0.8010(7) 0.1046(5) 0.0061(6)
C49_4 C 0.6383(7) 0.2660(5) 0.0736(5)
H26_4 H 0.625248 0.279987 0.102728
C50_4 C 0.6789(7) 0.2273(6) 0.0758(6)
H27_4 H 0.692931 0.215068 0.105964
C52_4 C 0.8100(7) 0.0954(5) 0.0550(5)
C54_4 C 0.3656(7) 0.3292(6) 0.0141(5)
H30_4 H 0.379421 0.314395 0.043340
C55_4 C 0.3244(8) 0.3686(6) 0.0164(6)
H31_4 H 0.310802 0.379985 0.046331
Mo1_4 Mo 0.40275(6) 0.64429(4) 0.69718(5)
Mo2_4 Mo 0.40187(6) 0.44208(5) 0.70540(5)
Mo3_4 Mo 0.44068(6) 0.44187(5) 0.82697(5)
Mo4_4 Mo 0.59614(6) 0.24806(5) 0.80168(5)
Mo5_4 Mo 0.40615(6) 0.83235(5) 0.69189(5)
Mo6_4 Mo 0.34887(6) 0.34873(5) 0.78017(5)
Mo7_4 Mo 0.34697(6) 0.73594(5) 0.77469(5)
Mo8_4 Mo 0.55589(6) 0.83994(5) 0.67628(5)
Mo9_4 Mo 0.44977(6) 0.24795(5) 0.82838(5)
Ag3_6 Ag 0.500000 0.54176(7) 0.750000
Mo10_4 Mo 0.43617(6) 0.63932(5) 0.81984(5)
Mo11_4 Mo 0.45808(7) 0.34094(5) 0.62497(5)
Mo12_4 Mo 0.47525(7) 0.74239(5) 0.62379(5)
P1_6 P 0.500000 0.34594(15) 0.750000
P2_6 P 0.500000 0.73800(17) 0.750000
S1_4 S 0.15705(19) 0.06436(14) 0.52820(14)
S2_4 S 0.83577(19) 0.53741(15) 0.46741(15)
S3_4 S 0.2304(2) 0.13708(15) 0.41157(15)
S4_4 S 0.7621(2) 0.46189(16) 0.58208(16)
O1_4 O 0.4856(4) 0.3114(3) 0.7056(3)
O2_4 O 0.4464(4) 0.3799(3) 0.7608(3)
O3_4 O 0.4900(4) 0.7723(3) 0.7050(3)
O4_4 O 0.4115(4) 0.3890(3) 0.6591(3)
O5_4 O 0.4104(4) 0.4766(3) 0.7691(3)
O6_4 O 0.4038(4) 0.2864(3) 0.6390(3)
O7_4 O 0.4299(4) 0.2293(3) 0.7636(3)
O8_4 O 0.3691(4) 0.4028(3) 0.8267(3)
O9_4 O 0.3383(4) 0.4027(3) 0.7334(3)
O10_4 O 0.6406(4) 0.3008(3) 0.7712(3)
O11_4 O 0.4091(4) 0.6069(4) 0.7604(4)
O12_4 O 0.5148(4) 0.2874(3) 0.6174(3)
O13_4 O 0.5245(4) 0.2149(3) 0.8237(3)
O14_4 O 0.4277(4) 0.8548(3) 0.7587(3)
O15_4 O 0.4456(4) 0.7040(3) 0.7566(3)
O16_4 O 0.4259(5) 0.4863(3) 0.8690(3)
O17_4 O 0.3394(4) 0.6811(4) 0.7227(3)
O18_4 O 0.5202(4) 0.3896(3) 0.6358(3)
O19_4 O 0.4135(4) 0.2041(3) 0.8611(4)
O20_4 O 0.4152(5) 0.7948(4) 0.6342(4)
O21_4 O 0.5193(4) 0.4616(3) 0.8067(3)
O22_4 O 0.3835(5) 0.7839(4) 0.8139(4)
O23_4 O 0.3609(5) 0.7816(4) 0.7204(4)
O24_4 O 0.4161(5) 0.5964(4) 0.8598(4)
O25_4 O 0.3631(5) 0.6804(3) 0.8170(4)
O26_4 O 0.4800(5) 0.8687(4) 0.6751(4)
O27_4 O 0.5301(5) 0.7964(4) 0.6218(4)
O28_4 O 0.4198(5) 0.6941(4) 0.6516(4)
O29_4 O 0.3621(4) 0.4869(3) 0.6755(3)
O31_4 O 0.3919(4) 0.3014(3) 0.8202(3)
O32_4 O 0.3567(5) 0.8772(3) 0.6741(4)
O33_4 O 0.4849(4) 0.6213(4) 0.6916(4)
O34_4 O 0.4403(5) 0.3518(3) 0.5667(3)
N2_4 N 0.3845(5) 0.2856(4) 0.4695(4)
O35_4 O 0.6465(5) 0.2029(4) 0.8156(4)
O36_4 O 0.5949(5) 0.8840(4) 0.6460(4)
O37_4 O 0.2749(5) 0.7449(4) 0.7835(4)
O38_4 O 0.5326(4) 0.6924(4) 0.6396(4)
N3_4 N 0.7594(6) 0.4544(4) 0.4841(5)
O39_4 O 0.3657(5) 0.5994(4) 0.6640(4)
N4_4 N 0.2366(6) 0.1440(4) 0.5069(5)
O40_4 O 0.2793(4) 0.3376(3) 0.7951(4)
N5_4 N 0.6135(6) 0.3114(5) 0.5269(5)
N6_4 N 0.1525(6) 0.0551(4) 0.4324(4)
N8_4 N 0.8385(6) 0.5448(4) 0.5646(5)
C1_4 C 0.9005(7) 0.6092(5) 0.5243(5)
C2_4 C 0.2584(7) 0.1639(5) 0.4661(5)
C5_4 C 0.8587(6) 0.5652(5) 0.5231(5)
C6_4 C 0.3013(7) 0.2066(5) 0.4656(6)
C7_4 C 0.9676(7) 0.6687(6) 0.4849(5)
H2_4 H 0.986681 0.679667 0.457062
C8_4 C 0.7956(8) 0.4948(6) 0.4995(6)
C9_4 C 0.9247(7) 0.6289(5) 0.4821(5)
H3_4 H 0.912606 0.615750 0.451754
C10_4 C 0.9568(8) 0.6729(5) 0.5689(5)
H4_4 H 0.968784 0.687532 0.598637
C11_4 C 0.1326(7) 0.0353(5) 0.4733(5)
C12_4 C 0.6961(7) 0.3907(5) 0.5270(5)
C13_4 C 0.9158(8) 0.6342(6) 0.5688(5)
H5_4 H 0.898115 0.624326 0.597641
C16_4 C 0.8022(7) 0.5043(5) 0.5488(6)
C18_4 C 0.1990(7) 0.1046(5) 0.4939(6)
C19_4 C 0.3648(7) 0.2649(5) 0.5094(5)
H9_4 H 0.380026 0.277428 0.539135
C20_4 C 0.7376(8) 0.4342(6) 0.5263(6)
C21_4 C 0.3617(7) 0.2660(5) 0.4264(5)
H10_4 H 0.374752 0.279987 0.397272
C22_4 C 0.3211(7) 0.2273(6) 0.4242(6)
H11_4 H 0.307069 0.215068 0.394036
C23_4 C 0.3236(7) 0.2261(5) 0.5108(5)
H12_4 H 0.310684 0.213008 0.540299
C24_4 C 0.1900(7) 0.0954(5) 0.4450(5)
C25_4 C 0.6347(8) 0.3332(6) 0.5687(6)
H13_4 H 0.620846 0.321037 0.598206
C26_4 C 0.6344(7) 0.3292(6) 0.4859(5)
H14_4 H 0.620579 0.314395 0.456660
C27_4 C 0.6756(8) 0.3686(6) 0.4836(6)
H15_4 H 0.689198 0.379985 0.453669
C28_4 C 0.6757(8) 0.3724(6) 0.5697(6)
H16_4 H 0.689405 0.386216 0.599353
O41_4 O 0.5144(4) 0.3114(3) 0.7944(3)
O42_4 O 0.5536(4) 0.3799(3) 0.7392(3)
O43_4 O 0.5100(4) 0.7723(3) 0.7950(3)
O44_4 O 0.5544(4) 0.7040(3) 0.7434(3)
Mo13_4 Mo 0.59725(6) 0.64429(4) 0.80282(5)
Mo14_4 Mo 0.59813(6) 0.44208(5) 0.79460(5)
Mo15_4 Mo 0.55932(6) 0.44187(5) 0.67303(5)
Mo16_4 Mo 0.40386(6) 0.24806(5) 0.69832(5)
Mo17_4 Mo 0.59385(6) 0.83235(5) 0.80811(5)
Mo18_4 Mo 0.65113(6) 0.34873(5) 0.71983(5)
Mo19_4 Mo 0.65303(6) 0.73594(5) 0.72531(5)
Mo20_4 Mo 0.44411(6) 0.83994(5) 0.82372(5)
Mo21_4 Mo 0.55023(6) 0.24795(5) 0.67162(5)
Mo22_4 Mo 0.56383(6) 0.63932(5) 0.68016(5)
Mo23_4 Mo 0.54192(7) 0.34094(5) 0.87503(5)
Mo24_4 Mo 0.52475(7) 0.74239(5) 0.87621(5)
S5_4 S 0.84295(19) 0.06436(14) 0.97180(14)
S8_4 S 0.2379(2) 0.46189(16) 0.91792(16)
O45_4 O 0.5885(4) 0.3890(3) 0.8409(3)
O46_4 O 0.5896(4) 0.4766(3) 0.7309(3)
O47_4 O 0.5962(4) 0.2864(3) 0.8610(3)
O48_4 O 0.5701(4) 0.2293(3) 0.7364(3)
O49_4 O 0.6309(4) 0.4028(3) 0.6733(3)
O50_4 O 0.6617(4) 0.4027(3) 0.7666(3)
O51_4 O 0.3594(4) 0.3008(3) 0.7288(3)
O52_4 O 0.5909(4) 0.6069(4) 0.7396(4)
O53_4 O 0.4852(4) 0.2874(3) 0.8826(3)
O54_4 O 0.4755(4) 0.2149(3) 0.6763(3)
O55_4 O 0.5723(4) 0.8548(3) 0.7413(3)
O56_4 O 0.5741(5) 0.4863(3) 0.6310(3)
O57_4 O 0.6606(4) 0.6811(4) 0.7773(3)
O58_4 O 0.4798(4) 0.3896(3) 0.8642(3)
O59_4 O 0.5865(4) 0.2041(3) 0.6389(4)
O60_4 O 0.5848(5) 0.7948(4) 0.8658(4)
O61_4 O 0.4807(4) 0.4616(3) 0.6933(3)
O62_4 O 0.6165(5) 0.7839(4) 0.6861(4)
O63_4 O 0.6391(5) 0.7816(4) 0.7796(4)
O64_4 O 0.5839(5) 0.5964(4) 0.6402(4)
O65_4 O 0.6369(5) 0.6804(3) 0.6830(4)
O66_4 O 0.5200(5) 0.8687(4) 0.8249(4)
O67_4 O 0.4699(5) 0.7964(4) 0.8782(4)
O68_4 O 0.5802(5) 0.6941(4) 0.8484(4)
O69_4 O 0.6379(4) 0.4869(3) 0.8245(3)
O71_4 O 0.6081(4) 0.3014(3) 0.6798(3)
O72_4 O 0.6433(5) 0.8772(3) 0.8259(4)
O73_4 O 0.5151(4) 0.6213(4) 0.8084(4)
O74_4 O 0.5597(5) 0.3518(3) 0.9333(3)
O75_4 O 0.3535(5) 0.2029(4) 0.6844(4)
O76_4 O 0.4051(5) 0.8840(4) 0.8540(4)
O77_4 O 0.7251(5) 0.7449(4) 0.7165(4)
O78_4 O 0.4674(4) 0.6924(4) 0.8604(4)
O79_4 O 0.6343(5) 0.5994(4) 0.8360(4)
N12_4 N 0.7634(6) 0.1440(4) 0.9931(5)
O80_4 O 0.7207(4) 0.3376(3) 0.7049(4)
N13_4 N 0.3865(6) 0.3114(5) 0.9731(5)
N16_4 N 0.1615(6) 0.5448(4) 0.9354(5)
C29_4 C 0.0995(7) 0.6092(5) 0.9757(5)
C33_4 C 0.1413(6) 0.5652(5) 0.9769(5)
C38_4 C 0.0432(8) 0.6729(5) 0.9311(5)
H20_4 H 0.031216 0.687532 0.901363
C40_4 C 0.3039(7) 0.3907(5) 0.9730(5)
C41_4 C 0.0842(8) 0.6342(6) 0.9312(5)
H21_4 H 0.101885 0.624326 0.902359
C44_4 C 0.1978(7) 0.5043(5) 0.9512(6)
C47_4 C 0.6352(7) 0.2649(5) 0.9906(5)
H25_4 H 0.619974 0.277428 0.960865
C48_4 C 0.2624(8) 0.4342(6) 0.9737(6)
C51_4 C 0.6764(7) 0.2261(5) 0.9892(5)
H28_4 H 0.689316 0.213008 0.959701
C53_4 C 0.3653(8) 0.3332(6) 0.9313(6)
H29_4 H 0.379154 0.321037 0.901794
C56_4 C 0.3243(8) 0.3724(6) 0.9303(6)
H32_4 H 0.310595 0.386216 0.900647
C31_4 C 0.9086(6) 0.9913(5) 0.0264(5)
C42_4 C 0.9289(7) 0.9700(5) 0.0711(6)
H22_4 H 0.916615 0.983853 0.100505
C45_4 C 0.9673(8) 0.9281(6) 0.0710(6)
H24_4 H 0.979912 0.913398 0.100603
C3_4 C 0.0914(6) 0.9913(5) 0.4736(5)
C4_4 C 0.0305(7) 0.9292(5) 0.5133(5)
H1_4 H 0.015782 0.915879 0.542136
C14_4 C 0.0711(7) 0.9700(5) 0.4289(6)
H6_4 H 0.083385 0.983853 0.399495
C15_4 C 0.0699(7) 0.9701(5) 0.5153(5)
H7_4 H 0.081944 0.983601 0.545533
C17_4 C 0.0327(8) 0.9281(6) 0.4290(6)
H8_4 H 0.020088 0.913398 0.399397
C32_4 C 0.9695(7) 0.9292(5) 0.9867(5)
H17_4 H 0.984218 0.915879 0.957864
C43_4 C 0.9301(7) 0.9701(5) 0.9847(5)
H23_4 H 0.918056 0.983601 0.954467
S6_3 S 0.33577(19) 0.96259(15) 0.96741(15)
C35_3 C 0.4676(7) 0.8313(6) 0.9849(5)
H18_3 H 0.486681 0.820333 0.957062
C37_3 C 0.4247(7) 0.8711(5) 0.9821(5)
H19_3 H 0.412606 0.884250 0.951754
S6_4 S 0.66423(19) 0.03741(15) 0.03259(15)
C35_4 C 0.5324(7) 0.1687(6) 0.0151(5)
H18_4 H 0.513319 0.179667 0.042938
C37_4 C 0.5753(7) 0.1289(5) 0.0179(5)
H19_4 H 0.587394 0.115750 0.048246
Ag12 Ag 0.750000 0.250000 0.500000
S9 S 0.5350(2) 0.03840(17) 0.44175(17)
N21 N 0.5401(7) 0.0451(5) 0.5384(5)
N22 N 0.6827(7) 0.1902(5) 0.4994(6)
C57 C 0.6019(7) 0.1099(6) 0.4971(6)
C58 C 0.5610(8) 0.0671(6) 0.4964(6)
C59 C 0.5041(8) 0.0051(6) 0.5241(6)
C60 C 0.6229(9) 0.1306(7) 0.4549(7)
H33 H 0.609860 0.117290 0.424884
C61 C 0.6219(9) 0.1318(6) 0.5409(7)
H34 H 0.607667 0.119895 0.570401
C62 C 0.6631(9) 0.1710(7) 0.4563(7)
H35 H 0.676657 0.184869 0.427358
C63 C 0.6627(8) 0.1710(7) 0.5403(7)
H36 H 0.676761 0.184617 0.569921
N25 N 0.8173(7) 0.3098(5) 0.5006(6)
S10 S 0.9650(2) 0.46160(17) 0.55825(17)
N23 N 0.9599(7) 0.4549(5) 0.4616(5)
C64 C 0.8981(7) 0.3901(6) 0.5029(6)
C65 C 0.9390(8) 0.4329(6) 0.5036(6)
C66 C 0.9959(8) 0.4949(6) 0.4759(6)
C67 C 0.8771(9) 0.3694(7) 0.5451(7)
H37 H 0.890140 0.382710 0.575116
C68 C 0.8781(9) 0.3682(6) 0.4591(7)
H38 H 0.892333 0.380105 0.429599
C69 C 0.8369(9) 0.3290(7) 0.5437(7)
H39 H 0.823343 0.315131 0.572642
C70 C 0.8373(8) 0.3290(7) 0.4597(7)
H40 H 0.823239 0.315383 0.430079
S10_2 S 0.4650(2) 0.96160(17) 0.55825(17)
N23_2 N 0.4599(7) 0.9549(5) 0.4616(5)
N24 N 0.3173(7) 0.8098(5) 0.5006(6)
C64_2 C 0.3981(7) 0.8901(6) 0.5029(6)
C65_2 C 0.4390(8) 0.9329(6) 0.5036(6)
C66_2 C 0.4959(8) 0.9949(6) 0.4759(6)
C67_2 C 0.3771(9) 0.8694(7) 0.5451(7)
H37_2 H 0.390140 0.882710 0.575116
C68_2 C 0.3781(9) 0.8682(6) 0.4591(7)
H38_2 H 0.392333 0.880105 0.429599
C69_2 C 0.3369(9) 0.8290(7) 0.5437(7)
H39_2 H 0.323343 0.815131 0.572642
C70_2 C 0.3373(8) 0.8290(7) 0.4597(7)
H40_2 H 0.323239 0.815383 0.430079
Ag13 Ag 0.250000 0.750000 0.500000
S9_2 S 0.0350(2) 0.53840(17) 0.44175(17)
N21_2 N 0.0401(7) 0.5451(5) 0.5384(5)
N22_2 N 0.1827(7) 0.6902(5) 0.4994(6)
C57_2 C 0.1019(7) 0.6099(6) 0.4971(6)
C58_2 C 0.0610(8) 0.5671(6) 0.4964(6)
C59_2 C 0.0041(8) 0.5051(6) 0.5241(6)
C60_2 C 0.1229(9) 0.6306(7) 0.4549(7)
H33_2 H 0.109860 0.617290 0.424884
C61_2 C 0.1219(9) 0.6318(6) 0.5409(7)
H34_2 H 0.107667 0.619895 0.570401
C62_2 C 0.1631(9) 0.6710(7) 0.4563(7)
H35_2 H 0.176657 0.684869 0.427358
C63_2 C 0.1627(8) 0.6710(7) 0.5403(7)
H36_2 H 0.176761 0.684617 0.569921
Ag12_2 Ag 0.250000 0.250000 0.000000
S9_3 S 0.4650(2) 0.03840(17) 0.05825(17)
N22_3 N 0.3173(7) 0.1902(5) 0.0006(6)
C57_3 C 0.3981(7) 0.1099(6) 0.0029(6)
C58_3 C 0.4390(8) 0.0671(6) 0.0036(6)
C60_3 C 0.3771(9) 0.1306(7) 0.0451(7)
H33_3 H 0.390140 0.117290 0.075116
C62_3 C 0.3369(9) 0.1710(7) 0.0437(7)
H35_3 H 0.323343 0.184869 0.072642
N23_3 N 0.0401(7) 0.4549(5) 0.0384(5)
C66_3 C 0.0041(8) 0.4949(6) 0.0241(6)
C68_3 C 0.1219(9) 0.3682(6) 0.0409(7)
H38_3 H 0.107667 0.380105 0.070401
C70_3 C 0.1627(8) 0.3290(7) 0.0403(7)
H40_3 H 0.176761 0.315383 0.069921
Ag12_3 Ag 0.250000 0.250000 1.000000
N21_3 N 0.4599(7) 0.0451(5) 0.9616(5)
C59_3 C 0.4959(8) 0.0051(6) 0.9759(6)
C61_3 C 0.3781(9) 0.1318(6) 0.9591(7)
H34_3 H 0.392333 0.119895 0.929599
C63_3 C 0.3373(8) 0.1710(7) 0.9597(7)
H36_3 H 0.323239 0.184617 0.930079
N25_2 N 0.1827(7) 0.3098(5) 0.9994(6)
S10_3 S 0.0350(2) 0.46160(17) 0.94175(17)
C64_3 C 0.1019(7) 0.3901(6) 0.9971(6)
C65_3 C 0.0610(8) 0.4329(6) 0.9964(6)
C67_3 C 0.1229(9) 0.3694(7) 0.9549(7)
H37_3 H 0.109860 0.382710 0.924884
C69_3 C 0.1631(9) 0.3290(7) 0.9563(7)
H39_3 H 0.176657 0.315131 0.927358
N23_4 N 0.5401(7) 0.9549(5) 0.0384(5)
C66_4 C 0.5041(8) 0.9949(6) 0.0241(6)
C68_4 C 0.6219(9) 0.8682(6) 0.0409(7)
H38_4 H 0.607667 0.880105 0.070401
C70_4 C 0.6627(8) 0.8290(7) 0.0403(7)
H40_4 H 0.676761 0.815383 0.069921
Ag13_2 Ag 0.750000 0.750000 0.000000
S9_4 S 0.9650(2) 0.53840(17) 0.05825(17)
N22_4 N 0.8173(7) 0.6902(5) 0.0006(6)
C57_4 C 0.8981(7) 0.6099(6) 0.0029(6)
C58_4 C 0.9390(8) 0.5671(6) 0.0036(6)
C60_4 C 0.8771(9) 0.6306(7) 0.0451(7)
H33_4 H 0.890140 0.617290 0.075116
C62_4 C 0.8369(9) 0.6710(7) 0.0437(7)
H35_4 H 0.823343 0.684869 0.072642
S10_4 S 0.5350(2) 0.96160(17) 0.94175(17)
N24_2 N 0.6827(7) 0.8098(5) 0.9994(6)
C64_4 C 0.6019(7) 0.8901(6) 0.9971(6)
C65_4 C 0.5610(8) 0.9329(6) 0.9964(6)
C67_4 C 0.6229(9) 0.8694(7) 0.9549(7)
H37_4 H 0.609860 0.882710 0.924884
C69_4 C 0.6631(9) 0.8290(7) 0.9563(7)
H39_4 H 0.676657 0.815131 0.927358
Ag13_3 Ag 0.750000 0.750000 1.000000
N21_4 N 0.9599(7) 0.5451(5) 0.9616(5)
C59_4 C 0.9959(8) 0.5051(6) 0.9759(6)
C61_4 C 0.8781(9) 0.6318(6) 0.9591(7)
H34_4 H 0.892333 0.619895 0.929599
C63_4 C 0.8373(8) 0.6710(7) 0.9597(7)
H36_4 H 0.823239 0.684617 0.930079
loop_
_geom_bond_atom_site_label_1
_geom_bond_atom_site_label_2
_geom_bond_site_symmetry_1
_geom_bond_site_symmetry_2
Ag2 O34 1_555 1_555
Mo2 O2 1_555 1_555
Mo3 O2 1_555 1_555
Mo6 O2 1_555 1_555
Mo9 O7 1_555 1_555
Mo11 O1 1_555 1_555
P1 O1 1_555 1_555
S1 C11 1_555 1_555
S3 C2 1_555 1_555
O1 Mo16 1_555 1_555
O2 P1 1_555 1_555
O4 Mo2 1_555 1_555
O5 Mo2 1_555 1_555
O6 Mo11 1_555 1_555
O7 Mo16 1_555 1_555
O8 Mo3 1_555 1_555
O9 Mo2 1_555 1_555
O16 Mo3 1_555 1_555
O19 Mo9 1_555 1_555
O29 Mo2 1_555 1_555
O31 Mo6 1_555 1_555
O34 Mo11 1_555 1_555
N2 Ag2 1_555 1_555
N4 C2 1_555 1_555
O40 Mo6 1_555 1_555
N6 C11 1_555 1_555
N7 C4 1_555 1_555
C2 C6 1_555 1_555
C3 C11 1_555 1_555
C4 H1 1_555 1_555
C6 C22 1_555 1_555
C14 C3 1_555 1_555
H6 C14 1_555 1_555
C15 C3 1_555 1_555
H7 C15 1_555 1_555
C17 N7 1_555 1_555
H8 C17 1_555 1_555
C18 S1 1_555 1_555
C19 N2 1_555 1_555
H9 C19 1_555 1_555
C21 N2 1_555 1_555
H10 C21 1_555 1_555
C22 C21 1_555 1_555
H11 C22 1_555 1_555
C23 C6 1_555 1_555
H12 C23 1_555 1_555
C24 S3 1_555 1_555
Ag4 O53 1_555 1_555
Mo16 O6 1_555 1_555
O51 Mo6 1_555 1_555
O53 Mo9 1_555 1_555
O54 Mo16 1_555 1_555
O58 Mo3 1_555 1_555
O61 Mo2 1_555 1_555
O75 Mo16 1_555 1_555
N13 Ag4 1_555 1_555
C40 C48 1_555 1_555
C48 S8 1_555 1_555
C53 N13 1_555 1_555
H29 C53 1_555 1_555
C56 C40 1_555 1_555
H32 C56 1_555 1_555
Ag10 N7 1_555 1_555
Mo3 O5 1_555 1_555
Mo6 O8 1_555 1_555
Mo6 O9 1_555 1_555
Mo9 O31 1_555 1_555
Mo11 O4 1_555 1_555
N4 C18 1_555 1_555
N6 C24 1_555 1_555
C4 C15 1_555 1_555
C14 C17 1_555 1_555
C18 C24 1_555 1_555
C19 C23 1_555 1_555
Mo16 O51 1_555 1_555
C53 C56 1_555 1_555
N11 C36 1_555 1_555
H30 C54 1_555 1_555
H31 C55 1_555 1_555
C54 C55 1_555 1_555
Mo1 O11 1_555 1_555
Mo5 O3 1_555 1_555
Mo7 O15 1_555 1_555
Ag3 Mo10 1_555 1_555
Mo10 O11 1_555 1_555
Mo12 O3 1_555 1_555
P2 O3 1_555 1_555
O11 Ag3 1_555 1_555
O14 Mo5 1_555 1_555
O15 Mo1 1_555 1_555
O17 Mo1 1_555 1_555
O20 Mo5 1_555 1_555
O22 Mo7 1_555 1_555
O23 Mo5 1_555 1_555
O24 Mo10 1_555 1_555
O25 Mo7 1_555 1_555
O26 Mo5 1_555 1_555
O28 Mo1 1_555 1_555
O30 Mo12 1_555 1_555
O32 Mo5 1_555 1_555
O33 Mo1 1_555 1_555
O37 Mo7 1_555 1_555
O39 Mo1 1_555 1_555
Mo20 O14 1_555 1_555
O67 Mo20 1_555 1_555
O76 Mo20 1_555 1_555
O78 Mo10 1_555 1_555
N16 C33 1_555 1_555
C29 C33 1_555 1_555
C38 N9 1_555 1_555
H20 C38 1_555 1_555
C41 C29 1_555 1_555
H21 C41 1_555 1_555
C44 N16 1_555 1_555
Ag7 N9 1_555 1_555
Ag8 O30 1_555 1_555
Mo7 O17 1_555 1_555
Mo7 O23 1_555 1_555
Ag3 O33 1_555 1_555
Mo10 O15 1_555 1_555
Mo10 O25 1_555 1_555
Mo12 O20 1_555 1_555
Mo12 O28 1_555 1_555
P2 O15 1_555 1_555
O22 Mo20 1_555 1_555
C38 C41 1_555 1_555
Ag1 O12 1_555 1_555
Mo4 O10 1_555 1_555
O10 Mo18 1_555 1_555
O13 Mo4 1_555 1_555
O35 Mo4 1_555 1_555
N3 C8 1_555 1_555
N5 Ag1 1_555 1_555
C12 C20 1_555 1_555
C20 S4 1_555 1_555
C25 N5 1_555 1_555
H13 C25 1_555 1_555
C26 N5 1_555 1_555
H14 C26 1_555 1_555
C27 C12 1_555 1_555
H15 C27 1_555 1_555
C28 C12 1_555 1_555
H16 C28 1_555 1_555
O41 Mo4 1_555 1_555
O42 P1_2 1_555 1_555
Mo14 O21 1_555 1_555
Mo15 O18 1_555 1_555
Mo18 O42 1_555 1_555
Mo23 O41 1_555 1_555
O45 Mo14 1_555 1_555
O47 Mo4 1_555 1_555
O48 Mo4 1_555 1_555
O49 Mo15 1_555 1_555
O50 Mo14 1_555 1_555
O56 Mo15 1_555 1_555
O59 Mo21 1_555 1_555
O69 Mo14 1_555 1_555
O71 Mo18 1_555 1_555
O74 Mo23 1_555 1_555
O80 Mo18 1_555 1_555
C32 H17 1_555 1_555
H23 C43 1_555 1_555
H25 C47 1_555 1_555
H28 C51 1_555 1_555
O81 Ag1 1_555 1_555
P1_2 O41 1_555 1_555
O12 Mo21 1_555 1_555
N3 C20 1_555 1_555
C25 C28 1_555 1_555
C26 C27 1_555 1_555
O42 Mo14 1_555 1_555
O42 Mo15 1_555 1_555
Mo14 O46 1_555 1_555
Mo15 O46 1_555 1_555
Mo18 O49 1_555 1_555
Mo18 O50 1_555 1_555
Mo21 O48 1_555 1_555
Mo21 O71 1_555 1_555
Mo23 O45 1_555 1_555
Mo23 O47 1_555 1_555
C32 C43 1_555 1_555
C47 C51 1_555 1_555
S7 C30 1_555 1_555
N10 Ag5 1_555 1_555
N14 C39 1_555 1_555
C30 C34 1_555 1_555
C31 C39 1_555 1_555
C34 C50 1_555 1_555
C42 C31 1_555 1_555
H22 C42 1_555 1_555
C45 N15 1_555 1_555
H24 C45 1_555 1_555
C49 N10 1_555 1_555
H26 C49 1_555 1_555
C50 C49 1_555 1_555
H27 C50 1_555 1_555
C52 S7 1_555 1_555
Ag11 N15 1_555 1_555
N14 C52 1_555 1_555
C42 C45 1_555 1_555
C46 C52 1_555 1_555
S2 C5 1_555 1_555
O27 Mo8 1_555 1_555
N1 C7 1_555 1_555
O36 Mo8 1_555 1_555
N8 C5 1_555 1_555
C1 C5 1_555 1_555
C7 H2 1_555 1_555
C9 C1 1_555 1_555
H3 C9 1_555 1_555
C10 N1 1_555 1_555
H4 C10 1_555 1_555
C13 C1 1_555 1_555
H5 C13 1_555 1_555
C16 N8 1_555 1_555
O43 P2_2 1_555 1_555
O44 P2_2 1_555 1_555
Mo13 O44 1_555 1_555
Mo17 O43 1_555 1_555
Mo19 O44 1_555 1_555
Mo22 Ag3_2 1_555 1_555
Mo24 O43 1_555 1_555
O52 Ag3_2 1_555 1_555
O55 Mo8 1_555 1_555
O57 Mo13 1_555 1_555
O60 Mo17 1_555 1_555
O62 Mo8 1_555 1_555
O63 Mo17 1_555 1_555
O64 Mo22 1_555 1_555
O65 Mo19 1_555 1_555
O66 Mo17 1_555 1_555
O68 Mo13 1_555 1_555
O70 Mo24 1_555 1_555
O72 Mo17 1_555 1_555
O73 Ag3_2 1_555 1_555
O77 Mo19 1_555 1_555
O79 Mo13 1_555 1_555
Ag6 N1 1_555 1_555
O38 Mo22 1_555 1_555
C7 C9 1_555 1_555
C10 C13 1_555 1_555
O44 Mo22 1_555 1_555
Mo13 O52 1_555 1_555
Mo13 O73 1_555 1_555
Mo17 O55 1_555 1_555
Mo19 O57 1_555 1_555
Mo19 O62 1_555 1_555
Mo19 O63 1_555 1_555
Mo22 O52 1_555 1_555
Mo22 O65 1_555 1_555
Mo24 O60 1_555 1_555
Mo24 O68 1_555 1_555
N19 C4_2 1_555 1_555
C4_2 H1_2 1_555 1_555
C14_2 C3_2 1_555 1_555
H6_2 C14_2 1_555 1_555
C15_2 C3_2 1_555 1_555
H7_2 C15_2 1_555 1_555
C17_2 N19 1_555 1_555
H8_2 C17_2 1_555 1_555
C32_2 H17_2 1_555 1_555
H23_2 C43_2 1_555 1_555
C4_2 C15_2 1_555 1_555
C14_2 C17_2 1_555 1_555
C32_2 C43_2 1_555 1_555
C42_2 C31_2 1_555 1_555
H22_2 C42_2 1_555 1_555
C45_2 N20 1_555 1_555
H24_2 C45_2 1_555 1_555
C42_2 C45_2 1_555 1_555
Ag6 O12_2 1_555 1_555
Ag10 O34_2 1_555 1_555
Mo1_2 O11_2 1_555 1_555
Mo2_2 O2_2 1_555 1_555
Mo3_2 O2_2 1_555 1_555
Mo4_2 O10_2 1_555 1_555
Mo5_2 O3_2 1_555 1_555
Mo6_2 O2_2 1_555 1_555
Mo7_2 O15_2 1_555 1_555
Mo8_2 O3_2 1_555 1_555
Mo9_2 O7_2 1_555 1_555
Ag3_3 Mo10_2 1_555 1_555
Mo10_2 O11_2 1_555 1_555
Mo11_2 O1_2 1_555 1_555
Mo12_2 O3_2 1_555 1_555
P1_3 O1_2 1_555 1_555
P2_3 O3_2 1_555 1_555
S1_2 C11_2 1_555 1_555
S2_2 C5_2 1_555 1_555
S3_2 C2_2 1_555 1_555
S4_2 C16_2 1_555 1_555
O1_2 Mo16_2 1_555 1_555
O2_2 P1_3 1_555 1_555
O4_2 Mo2_2 1_555 1_555
O5_2 Mo2_2 1_555 1_555
O6_2 Mo11_2 1_555 1_555
O7_2 Mo16_2 1_555 1_555
O8_2 Mo3_2 1_555 1_555
O9_2 Mo2_2 1_555 1_555
O10_2 Mo18_2 1_555 1_555
O11_2 Ag3_3 1_555 1_555
O12_2 Mo11_2 1_555 1_555
O13_2 Mo4_2 1_555 1_555
O14_2 Mo5_2 1_555 1_555
O15_2 Mo1_2 1_555 1_555
O16_2 Mo3_2 1_555 1_555
O17_2 Mo1_2 1_555 1_555
O18_2 Mo11_2 1_555 1_555
O19_2 Mo9_2 1_555 1_555
O20_2 Mo5_2 1_555 1_555
O21_2 Mo3_2 1_555 1_555
O22_2 Mo7_2 1_555 1_555
O23_2 Mo5_2 1_555 1_555
O24_2 Mo10_2 1_555 1_555
O25_2 Mo7_2 1_555 1_555
O26_2 Mo5_2 1_555 1_555
O27_2 Mo8_2 1_555 1_555
O28_2 Mo1_2 1_555 1_555
O29_2 Mo2_2 1_555 1_555
O30_2 Mo12_2 1_555 1_555
O31_2 Mo6_2 1_555 1_555
O32_2 Mo5_2 1_555 1_555
N17 C7_2 1_555 1_555
O33_2 Mo1_2 1_555 1_555
O34_2 Mo11_2 1_555 1_555
N2_2 Ag10 1_555 1_555
O35_2 Mo4_2 1_555 1_555
O36_2 Mo8_2 1_555 1_555
O37_2 Mo7_2 1_555 1_555
O38_2 Mo12_2 1_555 1_555
N3_2 C8_2 1_555 1_555
O39_2 Mo1_2 1_555 1_555
N4_2 C2_2 1_555 1_555
O40_2 Mo6_2 1_555 1_555
N5_2 Ag6 1_555 1_555
N6_2 C11_2 1_555 1_555
N8_2 C5_2 1_555 1_555
C1_2 C5_2 1_555 1_555
C2_2 C6_2 1_555 1_555
C6_2 C22_2 1_555 1_555
C7_2 H2_2 1_555 1_555
C8_2 S2_2 1_555 1_555
C9_2 C1_2 1_555 1_555
H3_2 C9_2 1_555 1_555
C10_2 N17 1_555 1_555
H4_2 C10_2 1_555 1_555
C12_2 C20_2 1_555 1_555
C13_2 C1_2 1_555 1_555
H5_2 C13_2 1_555 1_555
C16_2 N8_2 1_555 1_555
C18_2 S1_2 1_555 1_555
C19_2 N2_2 1_555 1_555
H9_2 C19_2 1_555 1_555
C20_2 S4_2 1_555 1_555
C21_2 N2_2 1_555 1_555
H10_2 C21_2 1_555 1_555
C22_2 C21_2 1_555 1_555
H11_2 C22_2 1_555 1_555
C23_2 C6_2 1_555 1_555
H12_2 C23_2 1_555 1_555
C24_2 S3_2 1_555 1_555
C25_2 N5_2 1_555 1_555
H13_2 C25_2 1_555 1_555
C26_2 N5_2 1_555 1_555
H14_2 C26_2 1_555 1_555
C27_2 C12_2 1_555 1_555
H15_2 C27_2 1_555 1_555
C28_2 C12_2 1_555 1_555
H16_2 C28_2 1_555 1_555
O41_2 Mo4_2 1_555 1_555
O42_2 P1_3 1_555 1_555
O43_2 P2_3 1_555 1_555
O44_2 P2_3 1_555 1_555
Ag7 O53_2 1_555 1_555
Mo13_2 O44_2 1_555 1_555
Mo14_2 O21_2 1_555 1_555
Mo15_2 O18_2 1_555 1_555
Mo16_2 O6_2 1_555 1_555
Mo17_2 O43_2 1_555 1_555
Mo18_2 O42_2 1_555 1_555
Mo19_2 O44_2 1_555 1_555
Mo20_2 O14_2 1_555 1_555
Mo21_2 O1_2 1_555 1_555
Mo22_2 Ag3_3 1_555 1_555
Mo23_2 O41_2 1_555 1_555
Mo24_2 O43_2 1_555 1_555
S8_2 C44_2 1_555 1_555
O45_2 Mo14_2 1_555 1_555
O46_2 Ag3_3 1_555 1_555
O47_2 Mo4_2 1_555 1_555
O48_2 Mo4_2 1_555 1_555
O49_2 Mo15_2 1_555 1_555
O50_2 Mo14_2 1_555 1_555
O51_2 Mo6_2 1_555 1_555
O52_2 Ag3_3 1_555 1_555
O53_2 Mo9_2 1_555 1_555
O54_2 Mo16_2 1_555 1_555
O55_2 Mo8_2 1_555 1_555
O56_2 Mo15_2 1_555 1_555
O57_2 Mo13_2 1_555 1_555
O58_2 Mo3_2 1_555 1_555
O59_2 Mo21_2 1_555 1_555
O60_2 Mo17_2 1_555 1_555
O61_2 Mo2_2 1_555 1_555
O62_2 Mo8_2 1_555 1_555
O63_2 Mo17_2 1_555 1_555
O64_2 Mo22_2 1_555 1_555
O65_2 Mo19_2 1_555 1_555
O66_2 Mo17_2 1_555 1_555
O67_2 Mo20_2 1_555 1_555
O68_2 Mo13_2 1_555 1_555
O69_2 Mo14_2 1_555 1_555
O70_2 Mo24_2 1_555 1_555
O71_2 Mo18_2 1_555 1_555
O72_2 Mo17_2 1_555 1_555
O73_2 Ag3_3 1_555 1_555
O74_2 Mo23_2 1_555 1_555
O75_2 Mo16_2 1_555 1_555
O76_2 Mo20_2 1_555 1_555
O77_2 Mo19_2 1_555 1_555
O78_2 Mo10_2 1_555 1_555
O79_2 Mo13_2 1_555 1_555
O80_2 Mo18_2 1_555 1_555
N13_2 Ag7 1_555 1_555
N16_2 C33_2 1_555 1_555
C29_2 C33_2 1_555 1_555
C38_2 N18 1_555 1_555
H20_2 C38_2 1_555 1_555
C40_2 C48_2 1_555 1_555
C41_2 C29_2 1_555 1_555
H21_2 C41_2 1_555 1_555
C44_2 N16_2 1_555 1_555
H25_2 C47_2 1_555 1_555
C48_2 S8_2 1_555 1_555
H28_2 C51_2 1_555 1_555
C53_2 N13_2 1_555 1_555
H29_2 C53_2 1_555 1_555
C56_2 C40_2 1_555 1_555
H32_2 C56_2 1_555 1_555
Ag8_2 O30_2 1_555 1_555
O81_2 Ag6 1_555 1_555
Mo3_2 O5_2 1_555 1_555
Mo6_2 O8_2 1_555 1_555
Mo6_2 O9_2 1_555 1_555
Mo7_2 O17_2 1_555 1_555
Mo7_2 O23_2 1_555 1_555
Mo8_2 O26_2 1_555 1_555
Mo9_2 O13_2 1_555 1_555
Mo9_2 O31_2 1_555 1_555
Mo9_2 O41_2 1_555 1_555
Ag3_3 O5_2 1_555 1_555
Ag3_3 O21_2 1_555 1_555
Ag3_3 O33_2 1_555 1_555
Ag3_3 O61_2 1_555 1_555
Mo10_2 O15_2 1_555 1_555
Mo10_2 O25_2 1_555 1_555
Mo10_2 O73_2 1_555 1_555
Mo11_2 O4_2 1_555 1_555
Mo12_2 O20_2 1_555 1_555
Mo12_2 O27_2 1_555 1_555
Mo12_2 O28_2 1_555 1_555
P1_3 O41_2 1_555 1_555
P2_3 O15_2 1_555 1_555
O12_2 Mo21_2 1_555 1_555
O22_2 Mo20_2 1_555 1_555
O33_2 Mo22_2 1_555 1_555
O38_2 Mo22_2 1_555 1_555
N3_2 C20_2 1_555 1_555
N4_2 C18_2 1_555 1_555
N6_2 C24_2 1_555 1_555
C7_2 C9_2 1_555 1_555
C8_2 C16_2 1_555 1_555
C10_2 C13_2 1_555 1_555
C18_2 C24_2 1_555 1_555
C19_2 C23_2 1_555 1_555
C25_2 C28_2 1_555 1_555
C26_2 C27_2 1_555 1_555
O42_2 Mo14_2 1_555 1_555
O42_2 Mo15_2 1_555 1_555
O43_2 Mo20_2 1_555 1_555
O44_2 Mo22_2 1_555 1_555
Mo13_2 O52_2 1_555 1_555
Mo13_2 O73_2 1_555 1_555
Mo14_2 O46_2 1_555 1_555
Mo15_2 O46_2 1_555 1_555
Mo15_2 O61_2 1_555 1_555
Mo16_2 O51_2 1_555 1_555
Mo17_2 O55_2 1_555 1_555
Mo18_2 O49_2 1_555 1_555
Mo18_2 O50_2 1_555 1_555
Mo19_2 O57_2 1_555 1_555
Mo19_2 O62_2 1_555 1_555
Mo19_2 O63_2 1_555 1_555
Mo20_2 O66_2 1_555 1_555
Mo21_2 O48_2 1_555 1_555
Mo21_2 O54_2 1_555 1_555
Mo21_2 O71_2 1_555 1_555
Mo22_2 O52_2 1_555 1_555
Mo22_2 O65_2 1_555 1_555
Mo23_2 O45_2 1_555 1_555
Mo23_2 O47_2 1_555 1_555
Mo23_2 O53_2 1_555 1_555
Mo23_2 O58_2 1_555 1_555
Mo24_2 O60_2 1_555 1_555
Mo24_2 O67_2 1_555 1_555
Mo24_2 O68_2 1_555 1_555
Mo24_2 O78_2 1_555 1_555
C38_2 C41_2 1_555 1_555
C47_2 C51_2 1_555 1_555
C53_2 C56_2 1_555 1_555
S7_2 C30_2 1_555 1_555
N10_2 Ag11 1_555 1_555
N11_2 C36_2 1_555 1_555
N14_2 C39_2 1_555 1_555
C30_2 C34_2 1_555 1_555
C34_2 C50_2 1_555 1_555
C35 H18 1_555 1_555
C36_2 S6 1_555 1_555
H19 C37 1_555 1_555
C49_2 N10_2 1_555 1_555
H26_2 C49_2 1_555 1_555
C50_2 C49_2 1_555 1_555
H27_2 C50_2 1_555 1_555
C52_2 S7_2 1_555 1_555
H30_2 C54_2 1_555 1_555
H31_2 C55_2 1_555 1_555
N14_2 C52_2 1_555 1_555
C35 C37 1_555 1_555
C46_2 C52_2 1_555 1_555
C54_2 C55_2 1_555 1_555
S2_3 C5_3 1_555 1_555
O27_3 Mo8_3 1_555 1_555
N1_2 C7_3 1_555 1_555
O36_3 Mo8_3 1_555 1_555
N8_3 C5_3 1_555 1_555
C1_3 C5_3 1_555 1_555
C7_3 H2_3 1_555 1_555
C9_3 C1_3 1_555 1_555
H3_3 C9_3 1_555 1_555
C10_3 N1_2 1_555 1_555
H4_3 C10_3 1_555 1_555
C13_3 C1_3 1_555 1_555
H5_3 C13_3 1_555 1_555
C16_3 N8_3 1_555 1_555
O43_3 P2_4 1_555 1_555
O44_3 P2_4 1_555 1_555
Mo13_3 O44_3 1_555 1_555
Mo17_3 O43_3 1_555 1_555
Mo19_3 O44_3 1_555 1_555
Mo22_3 Ag3_4 1_555 1_555
Mo24_3 O43_3 1_555 1_555
O52_3 Ag3_4 1_555 1_555
O55_3 Mo8_3 1_555 1_555
O57_3 Mo13_3 1_555 1_555
O60_3 Mo17_3 1_555 1_555
O62_3 Mo8_3 1_555 1_555
O63_3 Mo17_3 1_555 1_555
O64_3 Mo22_3 1_555 1_555
O65_3 Mo19_3 1_555 1_555
O66_3 Mo17_3 1_555 1_555
O68_3 Mo13_3 1_555 1_555
O82 Mo24_3 1_555 1_555
O72_3 Mo17_3 1_555 1_555
O73_3 Ag3_4 1_555 1_555
O77_3 Mo19_3 1_555 1_555
O79_3 Mo13_3 1_555 1_555
Ag8_2 N1_2 1_555 1_555
O38_3 Mo22_3 1_555 1_555
C7_3 C9_3 1_555 1_555
C10_3 C13_3 1_555 1_555
O44_3 Mo22_3 1_555 1_555
Mo13_3 O52_3 1_555 1_555
Mo13_3 O73_3 1_555 1_555
Mo17_3 O55_3 1_555 1_555
Mo19_3 O57_3 1_555 1_555
Mo19_3 O62_3 1_555 1_555
Mo19_3 O63_3 1_555 1_555
Mo22_3 O52_3 1_555 1_555
Mo22_3 O65_3 1_555 1_555
Mo24_3 O60_3 1_555 1_555
Mo24_3 O68_3 1_555 1_555
S7_3 C30_3 1_555 1_555
N10_3 Ag5_2 1_555 1_555
N14_3 C39_3 1_555 1_555
C30_3 C34_3 1_555 1_555
C31_3 C39_3 1_555 1_555
C34_3 C50_3 1_555 1_555
C42_3 C31_3 1_555 1_555
H22_3 C42_3 1_555 1_555
C45_3 N15_2 1_555 1_555
H24_3 C45_3 1_555 1_555
C49_3 N10_3 1_555 1_555
H26_3 C49_3 1_555 1_555
C50_3 C49_3 1_555 1_555
H27_3 C50_3 1_555 1_555
C52_3 S7_3 1_555 1_555
Ag11_2 N15_2 1_555 1_555
N14_3 C52_3 1_555 1_555
C42_3 C45_3 1_555 1_555
C46_3 C52_3 1_555 1_555
Ag8 O12_3 1_555 1_555
Mo4_3 O10_3 1_555 1_555
O10_3 Mo18_3 1_555 1_555
O13_3 Mo4_3 1_555 1_555
O35_3 Mo4_3 1_555 1_555
N3_3 C8_3 1_555 1_555
N5_3 Ag8 1_555 1_555
C12_3 C20_3 1_555 1_555
C20_3 S4_3 1_555 1_555
C25_3 N5_3 1_555 1_555
H13_3 C25_3 1_555 1_555
C26_3 N5_3 1_555 1_555
H14_3 C26_3 1_555 1_555
C27_3 C12_3 1_555 1_555
H15_3 C27_3 1_555 1_555
C28_3 C12_3 1_555 1_555
H16_3 C28_3 1_555 1_555
O41_3 Mo4_3 1_555 1_555
O42_3 P1_4 1_555 1_555
Mo14_3 O21_3 1_555 1_555
Mo15_3 O18_3 1_555 1_555
Mo18_3 O42_3 1_555 1_555
Mo23_3 O41_3 1_555 1_555
O45_3 Mo14_3 1_555 1_555
O47_3 Mo4_3 1_555 1_555
O48_3 Mo4_3 1_555 1_555
O49_3 Mo15_3 1_555 1_555
O50_3 Mo14_3 1_555 1_555
O56_3 Mo15_3 1_555 1_555
O59_3 Mo21_3 1_555 1_555
O69_3 Mo14_3 1_555 1_555
O71_3 Mo18_3 1_555 1_555
O74_3 Mo23_3 1_555 1_555
O80_3 Mo18_3 1_555 1_555
C32_3 H17_3 1_555 1_555
H23_3 C43_3 1_555 1_555
H25_3 C47_3 1_555 1_555
H28_3 C51_3 1_555 1_555
P1_4 O41_3 1_555 1_555
O12_3 Mo21_3 1_555 1_555
N3_3 C20_3 1_555 1_555
C25_3 C28_3 1_555 1_555
C26_3 C27_3 1_555 1_555
O42_3 Mo14_3 1_555 1_555
O42_3 Mo15_3 1_555 1_555
Mo14_3 O46_3 1_555 1_555
Mo15_3 O46_3 1_555 1_555
Mo18_3 O49_3 1_555 1_555
Mo18_3 O50_3 1_555 1_555
Mo21_3 O48_3 1_555 1_555
Mo21_3 O71_3 1_555 1_555
Mo23_3 O45_3 1_555 1_555
Mo23_3 O47_3 1_555 1_555
C32_3 C43_3 1_555 1_555
C47_3 C51_3 1_555 1_555
Mo1_3 O11_3 1_555 1_555
Mo5_3 O3_3 1_555 1_555
Mo7_3 O15_3 1_555 1_555
Ag3_5 Mo10_3 1_555 1_555
Mo10_3 O11_3 1_555 1_555
Mo12_3 O3_3 1_555 1_555
P2_5 O3_3 1_555 1_555
O11_3 Ag3_5 1_555 1_555
O14_3 Mo5_3 1_555 1_555
O15_3 Mo1_3 1_555 1_555
O17_3 Mo1_3 1_555 1_555
O20_3 Mo5_3 1_555 1_555
O22_3 Mo7_3 1_555 1_555
O23_3 Mo5_3 1_555 1_555
O24_3 Mo10_3 1_555 1_555
O25_3 Mo7_3 1_555 1_555
O26_3 Mo5_3 1_555 1_555
O28_3 Mo1_3 1_555 1_555
O81 Mo12_3 1_555 1_555
O32_3 Mo5_3 1_555 1_555
O33_3 Mo1_3 1_555 1_555
O37_3 Mo7_3 1_555 1_555
O39_3 Mo1_3 1_555 1_555
Mo20_3 O14_3 1_555 1_555
O67_3 Mo20_3 1_555 1_555
O76_3 Mo20_3 1_555 1_555
O78_3 Mo10_3 1_555 1_555
N16_3 C33_3 1_555 1_555
C29_3 C33_3 1_555 1_555
C38_3 N9_2 1_555 1_555
H20_3 C38_3 1_555 1_555
C41_3 C29_3 1_555 1_555
H21_3 C41_3 1_555 1_555
C44_3 N16_3 1_555 1_555
Ag9_2 N9_2 1_555 1_555
Mo7_3 O17_3 1_555 1_555
Mo7_3 O23_3 1_555 1_555
Ag3_5 O33_3 1_555 1_555
Mo10_3 O15_3 1_555 1_555
Mo10_3 O25_3 1_555 1_555
Mo12_3 O20_3 1_555 1_555
Mo12_3 O28_3 1_555 1_555
P2_5 O15_3 1_555 1_555
O22_3 Mo20_3 1_555 1_555
C38_3 C41_3 1_555 1_555
N11_3 C36_3 1_555 1_555
H30_3 C54_3 1_555 1_555
H31_3 C55_3 1_555 1_555
C54_3 C55_3 1_555 1_555
Ag2_2 O34_3 1_555 1_555
Mo2_3 O2_3 1_555 1_555
Mo3_3 O2_3 1_555 1_555
Mo6_3 O2_3 1_555 1_555
Mo9_3 O7_3 1_555 1_555
Mo11_3 O1_3 1_555 1_555
P1_5 O1_3 1_555 1_555
S1_3 C11_3 1_555 1_555
S3_3 C2_3 1_555 1_555
O1_3 Mo16_3 1_555 1_555
O2_3 P1_5 1_555 1_555
O4_3 Mo2_3 1_555 1_555
O5_3 Mo2_3 1_555 1_555
O6_3 Mo11_3 1_555 1_555
O7_3 Mo16_3 1_555 1_555
O8_3 Mo3_3 1_555 1_555
O9_3 Mo2_3 1_555 1_555
O16_3 Mo3_3 1_555 1_555
O19_3 Mo9_3 1_555 1_555
O29_3 Mo2_3 1_555 1_555
O31_3 Mo6_3 1_555 1_555
O34_3 Mo11_3 1_555 1_555
N2_3 Ag2_2 1_555 1_555
N4_3 C2_3 1_555 1_555
O40_3 Mo6_3 1_555 1_555
N6_3 C11_3 1_555 1_555
N7_2 C4_3 1_555 1_555
C2_3 C6_3 1_555 1_555
C3_3 C11_3 1_555 1_555
C4_3 H1_3 1_555 1_555
C6_3 C22_3 1_555 1_555
C14_3 C3_3 1_555 1_555
H6_3 C14_3 1_555 1_555
C15_3 C3_3 1_555 1_555
H7_3 C15_3 1_555 1_555
C17_3 N7_2 1_555 1_555
H8_3 C17_3 1_555 1_555
C18_3 S1_3 1_555 1_555
C19_3 N2_3 1_555 1_555
H9_3 C19_3 1_555 1_555
C21_3 N2_3 1_555 1_555
H10_3 C21_3 1_555 1_555
C22_3 C21_3 1_555 1_555
H11_3 C22_3 1_555 1_555
C23_3 C6_3 1_555 1_555
H12_3 C23_3 1_555 1_555
C24_3 S3_3 1_555 1_555
Ag9 O53_3 1_555 1_555
Mo16_3 O6_3 1_555 1_555
O51_3 Mo6_3 1_555 1_555
O53_3 Mo9_3 1_555 1_555
O54_3 Mo16_3 1_555 1_555
O58_3 Mo3_3 1_555 1_555
O61_3 Mo2_3 1_555 1_555
O75_3 Mo16_3 1_555 1_555
N13_3 Ag9 1_555 1_555
C40_3 C48_3 1_555 1_555
C48_3 S8_3 1_555 1_555
C53_3 N13_3 1_555 1_555
H29_3 C53_3 1_555 1_555
C56_3 C40_3 1_555 1_555
H32_3 C56_3 1_555 1_555
Ag10_2 N7_2 1_555 1_555
Mo3_3 O5_3 1_555 1_555
Mo6_3 O8_3 1_555 1_555
Mo6_3 O9_3 1_555 1_555
Mo9_3 O31_3 1_555 1_555
Mo11_3 O4_3 1_555 1_555
N4_3 C18_3 1_555 1_555
N6_3 C24_3 1_555 1_555
C4_3 C15_3 1_555 1_555
C14_3 C17_3 1_555 1_555
C18_3 C24_3 1_555 1_555
C19_3 C23_3 1_555 1_555
Mo16_3 O51_3 1_555 1_555
C53_3 C56_3 1_555 1_555
S7_4 C30_4 1_555 1_555
N10_4 Ag11_2 1_555 1_555
N11_4 C36_4 1_555 1_555
N14_4 C39_4 1_555 1_555
C30_4 C34_4 1_555 1_555
C34_4 C50_4 1_555 1_555
C35_2 H18_2 1_555 1_555
C36_4 S6_2 1_555 1_555
H19_2 C37_2 1_555 1_555
C49_4 N10_4 1_555 1_555
H26_4 C49_4 1_555 1_555
C50_4 C49_4 1_555 1_555
H27_4 C50_4 1_555 1_555
C52_4 S7_4 1_555 1_555
H30_4 C54_4 1_555 1_555
H31_4 C55_4 1_555 1_555
N14_4 C52_4 1_555 1_555
C35_2 C37_2 1_555 1_555
C46_4 C52_4 1_555 1_555
C54_4 C55_4 1_555 1_555
Ag8_2 O12_4 1_555 1_555
Ag10_2 O34_4 1_555 1_555
Mo1_4 O11_4 1_555 1_555
Mo2_4 O2_4 1_555 1_555
Mo3_4 O2_4 1_555 1_555
Mo4_4 O10_4 1_555 1_555
Mo5_4 O3_4 1_555 1_555
Mo6_4 O2_4 1_555 1_555
Mo7_4 O15_4 1_555 1_555
Mo8_4 O3_4 1_555 1_555
Mo9_4 O7_4 1_555 1_555
Ag3_6 Mo10_4 1_555 1_555
Mo10_4 O11_4 1_555 1_555
Mo11_4 O1_4 1_555 1_555
Mo12_4 O3_4 1_555 1_555
P1_6 O1_4 1_555 1_555
P2_6 O3_4 1_555 1_555
S1_4 C11_4 1_555 1_555
S2_4 C5_4 1_555 1_555
S3_4 C2_4 1_555 1_555
S4_4 C16_4 1_555 1_555
O1_4 Mo16_4 1_555 1_555
O2_4 P1_6 1_555 1_555
O4_4 Mo2_4 1_555 1_555
O5_4 Mo2_4 1_555 1_555
O6_4 Mo11_4 1_555 1_555
O7_4 Mo16_4 1_555 1_555
O8_4 Mo3_4 1_555 1_555
O9_4 Mo2_4 1_555 1_555
O10_4 Mo18_4 1_555 1_555
O11_4 Ag3_6 1_555 1_555
O12_4 Mo11_4 1_555 1_555
O13_4 Mo4_4 1_555 1_555
O14_4 Mo5_4 1_555 1_555
O15_4 Mo1_4 1_555 1_555
O16_4 Mo3_4 1_555 1_555
O17_4 Mo1_4 1_555 1_555
O18_4 Mo11_4 1_555 1_555
O19_4 Mo9_4 1_555 1_555
O20_4 Mo5_4 1_555 1_555
O21_4 Mo3_4 1_555 1_555
O22_4 Mo7_4 1_555 1_555
O23_4 Mo5_4 1_555 1_555
O24_4 Mo10_4 1_555 1_555
O25_4 Mo7_4 1_555 1_555
O26_4 Mo5_4 1_555 1_555
O27_4 Mo8_4 1_555 1_555
O28_4 Mo1_4 1_555 1_555
O29_4 Mo2_4 1_555 1_555
O81_2 Mo12_4 1_555 1_555
O31_4 Mo6_4 1_555 1_555
O32_4 Mo5_4 1_555 1_555
N17_2 C7_4 1_555 1_555
O33_4 Mo1_4 1_555 1_555
O34_4 Mo11_4 1_555 1_555
N2_4 Ag10_2 1_555 1_555
O35_4 Mo4_4 1_555 1_555
O36_4 Mo8_4 1_555 1_555
O37_4 Mo7_4 1_555 1_555
O38_4 Mo12_4 1_555 1_555
N3_4 C8_4 1_555 1_555
O39_4 Mo1_4 1_555 1_555
N4_4 C2_4 1_555 1_555
O40_4 Mo6_4 1_555 1_555
N5_4 Ag8_2 1_555 1_555
N6_4 C11_4 1_555 1_555
N8_4 C5_4 1_555 1_555
C1_4 C5_4 1_555 1_555
C2_4 C6_4 1_555 1_555
C6_4 C22_4 1_555 1_555
C7_4 H2_4 1_555 1_555
C8_4 S2_4 1_555 1_555
C9_4 C1_4 1_555 1_555
H3_4 C9_4 1_555 1_555
C10_4 N17_2 1_555 1_555
H4_4 C10_4 1_555 1_555
C12_4 C20_4 1_555 1_555
C13_4 C1_4 1_555 1_555
H5_4 C13_4 1_555 1_555
C16_4 N8_4 1_555 1_555
C18_4 S1_4 1_555 1_555
C19_4 N2_4 1_555 1_555
H9_4 C19_4 1_555 1_555
C20_4 S4_4 1_555 1_555
C21_4 N2_4 1_555 1_555
H10_4 C21_4 1_555 1_555
C22_4 C21_4 1_555 1_555
H11_4 C22_4 1_555 1_555
C23_4 C6_4 1_555 1_555
H12_4 C23_4 1_555 1_555
C24_4 S3_4 1_555 1_555
C25_4 N5_4 1_555 1_555
H13_4 C25_4 1_555 1_555
C26_4 N5_4 1_555 1_555
H14_4 C26_4 1_555 1_555
C27_4 C12_4 1_555 1_555
H15_4 C27_4 1_555 1_555
C28_4 C12_4 1_555 1_555
H16_4 C28_4 1_555 1_555
O41_4 Mo4_4 1_555 1_555
O42_4 P1_6 1_555 1_555
O43_4 P2_6 1_555 1_555
O44_4 P2_6 1_555 1_555
Ag9_2 O53_4 1_555 1_555
Mo13_4 O44_4 1_555 1_555
Mo14_4 O21_4 1_555 1_555
Mo15_4 O18_4 1_555 1_555
Mo16_4 O6_4 1_555 1_555
Mo17_4 O43_4 1_555 1_555
Mo18_4 O42_4 1_555 1_555
Mo19_4 O44_4 1_555 1_555
Mo20_4 O14_4 1_555 1_555
Mo21_4 O1_4 1_555 1_555
Mo22_4 Ag3_6 1_555 1_555
Mo23_4 O41_4 1_555 1_555
Mo24_4 O43_4 1_555 1_555
S8_4 C44_4 1_555 1_555
O45_4 Mo14_4 1_555 1_555
O46_4 Ag3_6 1_555 1_555
O47_4 Mo4_4 1_555 1_555
O48_4 Mo4_4 1_555 1_555
O49_4 Mo15_4 1_555 1_555
O50_4 Mo14_4 1_555 1_555
O51_4 Mo6_4 1_555 1_555
O52_4 Ag3_6 1_555 1_555
O53_4 Mo9_4 1_555 1_555
O54_4 Mo16_4 1_555 1_555
O55_4 Mo8_4 1_555 1_555
O56_4 Mo15_4 1_555 1_555
O57_4 Mo13_4 1_555 1_555
O58_4 Mo3_4 1_555 1_555
O59_4 Mo21_4 1_555 1_555
O60_4 Mo17_4 1_555 1_555
O61_4 Mo2_4 1_555 1_555
O62_4 Mo8_4 1_555 1_555
O63_4 Mo17_4 1_555 1_555
O64_4 Mo22_4 1_555 1_555
O65_4 Mo19_4 1_555 1_555
O66_4 Mo17_4 1_555 1_555
O67_4 Mo20_4 1_555 1_555
O68_4 Mo13_4 1_555 1_555
O69_4 Mo14_4 1_555 1_555
O82_2 Mo24_4 1_555 1_555
O71_4 Mo18_4 1_555 1_555
O72_4 Mo17_4 1_555 1_555
O73_4 Ag3_6 1_555 1_555
O74_4 Mo23_4 1_555 1_555
O75_4 Mo16_4 1_555 1_555
O76_4 Mo20_4 1_555 1_555
O77_4 Mo19_4 1_555 1_555
O78_4 Mo10_4 1_555 1_555
O79_4 Mo13_4 1_555 1_555
O80_4 Mo18_4 1_555 1_555
N13_4 Ag9_2 1_555 1_555
N16_4 C33_4 1_555 1_555
C29_4 C33_4 1_555 1_555
C38_4 N18_2 1_555 1_555
H20_4 C38_4 1_555 1_555
C40_4 C48_4 1_555 1_555
C41_4 C29_4 1_555 1_555
H21_4 C41_4 1_555 1_555
C44_4 N16_4 1_555 1_555
H25_4 C47_4 1_555 1_555
C48_4 S8_4 1_555 1_555
H28_4 C51_4 1_555 1_555
C53_4 N13_4 1_555 1_555
H29_4 C53_4 1_555 1_555
C56_4 C40_4 1_555 1_555
H32_4 C56_4 1_555 1_555
Mo3_4 O5_4 1_555 1_555
Mo6_4 O8_4 1_555 1_555
Mo6_4 O9_4 1_555 1_555
Mo7_4 O17_4 1_555 1_555
Mo7_4 O23_4 1_555 1_555
Mo8_4 O26_4 1_555 1_555
Mo9_4 O13_4 1_555 1_555
Mo9_4 O31_4 1_555 1_555
Mo9_4 O41_4 1_555 1_555
Ag3_6 O5_4 1_555 1_555
Ag3_6 O21_4 1_555 1_555
Ag3_6 O33_4 1_555 1_555
Ag3_6 O61_4 1_555 1_555
Mo10_4 O15_4 1_555 1_555
Mo10_4 O25_4 1_555 1_555
Mo10_4 O73_4 1_555 1_555
Mo11_4 O4_4 1_555 1_555
Mo12_4 O20_4 1_555 1_555
Mo12_4 O27_4 1_555 1_555
Mo12_4 O28_4 1_555 1_555
P1_6 O41_4 1_555 1_555
P2_6 O15_4 1_555 1_555
O12_4 Mo21_4 1_555 1_555
O22_4 Mo20_4 1_555 1_555
O33_4 Mo22_4 1_555 1_555
O38_4 Mo22_4 1_555 1_555
N3_4 C20_4 1_555 1_555
N4_4 C18_4 1_555 1_555
N6_4 C24_4 1_555 1_555
C7_4 C9_4 1_555 1_555
C8_4 C16_4 1_555 1_555
C10_4 C13_4 1_555 1_555
C18_4 C24_4 1_555 1_555
C19_4 C23_4 1_555 1_555
C25_4 C28_4 1_555 1_555
C26_4 C27_4 1_555 1_555
O42_4 Mo14_4 1_555 1_555
O42_4 Mo15_4 1_555 1_555
O43_4 Mo20_4 1_555 1_555
O44_4 Mo22_4 1_555 1_555
Mo13_4 O52_4 1_555 1_555
Mo13_4 O73_4 1_555 1_555
Mo14_4 O46_4 1_555 1_555
Mo15_4 O46_4 1_555 1_555
Mo15_4 O61_4 1_555 1_555
Mo16_4 O51_4 1_555 1_555
Mo17_4 O55_4 1_555 1_555
Mo18_4 O49_4 1_555 1_555
Mo18_4 O50_4 1_555 1_555
Mo19_4 O57_4 1_555 1_555
Mo19_4 O62_4 1_555 1_555
Mo19_4 O63_4 1_555 1_555
Mo20_4 O66_4 1_555 1_555
Mo21_4 O48_4 1_555 1_555
Mo21_4 O54_4 1_555 1_555
Mo21_4 O71_4 1_555 1_555
Mo22_4 O52_4 1_555 1_555
Mo22_4 O65_4 1_555 1_555
Mo23_4 O45_4 1_555 1_555
Mo23_4 O47_4 1_555 1_555
Mo23_4 O53_4 1_555 1_555
Mo23_4 O58_4 1_555 1_555
Mo24_4 O60_4 1_555 1_555
Mo24_4 O67_4 1_555 1_555
Mo24_4 O68_4 1_555 1_555
Mo24_4 O78_4 1_555 1_555
C38_4 C41_4 1_555 1_555
C47_4 C51_4 1_555 1_555
C53_4 C56_4 1_555 1_555
C42_4 C31_4 1_555 1_555
H22_4 C42_4 1_555 1_555
C45_4 N20_2 1_555 1_555
H24_4 C45_4 1_555 1_555
C42_4 C45_4 1_555 1_555
N19_2 C4_4 1_555 1_555
C4_4 H1_4 1_555 1_555
C14_4 C3_4 1_555 1_555
H6_4 C14_4 1_555 1_555
C15_4 C3_4 1_555 1_555
H7_4 C15_4 1_555 1_555
C17_4 N19_2 1_555 1_555
H8_4 C17_4 1_555 1_555
C32_4 H17_4 1_555 1_555
H23_4 C43_4 1_555 1_555
C4_4 C15_4 1_555 1_555
C14_4 C17_4 1_555 1_555
C32_4 C43_4 1_555 1_555
C35_3 H18_3 1_555 1_555
H19_3 C37_3 1_555 1_555
C35_3 C37_3 1_555 1_555
C35_4 H18_4 1_555 1_555
H19_4 C37_4 1_555 1_555
C35_4 C37_4 1_555 1_555
Ag12 N22 1_555 1_555
S9 C58 1_555 1_555
N21 C58 1_555 1_555
N22 C62 1_555 1_555
C57 C58 1_555 1_555
C59 N21 1_555 1_555
C60 C57 1_555 1_555
H33 C60 1_555 1_555
C61 C57 1_555 1_555
H34 C61 1_555 1_555
C62 C60 1_555 1_555
H35 C62 1_555 1_555
C63 N22 1_555 1_555
H36 C63 1_555 1_555
N25 Ag12 1_555 1_555
C61 C63 1_555 1_555
N23 C65 1_555 1_555
N25 C69 1_555 1_555
C64 C65 1_555 1_555
C65 S10 1_555 1_555
C67 C64 1_555 1_555
H37 C67 1_555 1_555
C68 C64 1_555 1_555
H38 C68 1_555 1_555
C69 C67 1_555 1_555
H39 C69 1_555 1_555
C70 N25 1_555 1_555
H40 C70 1_555 1_555
N23 C66 1_555 1_555
C68 C70 1_555 1_555
N23_2 C65_2 1_555 1_555
N24 C69_2 1_555 1_555
C64_2 C65_2 1_555 1_555
C65_2 S10_2 1_555 1_555
C67_2 C64_2 1_555 1_555
H37_2 C67_2 1_555 1_555
C68_2 C64_2 1_555 1_555
H38_2 C68_2 1_555 1_555
C69_2 C67_2 1_555 1_555
H39_2 C69_2 1_555 1_555
C70_2 N24 1_555 1_555
H40_2 C70_2 1_555 1_555
Ag13 N24 1_555 1_555
N23_2 C66_2 1_555 1_555
C68_2 C70_2 1_555 1_555
Ag13 N22_2 1_555 1_555
S9_2 C58_2 1_555 1_555
N21_2 C58_2 1_555 1_555
N22_2 C62_2 1_555 1_555
C57_2 C58_2 1_555 1_555
C59_2 N21_2 1_555 1_555
C60_2 C57_2 1_555 1_555
H33_2 C60_2 1_555 1_555
C61_2 C57_2 1_555 1_555
H34_2 C61_2 1_555 1_555
C62_2 C60_2 1_555 1_555
H35_2 C62_2 1_555 1_555
C63_2 N22_2 1_555 1_555
H36_2 C63_2 1_555 1_555
C61_2 C63_2 1_555 1_555
Ag12_2 N22_3 1_555 1_555
S9_3 C58_3 1_555 1_555
N22_3 C62_3 1_555 1_555
C57_3 C58_3 1_555 1_555
C60_3 C57_3 1_555 1_555
H33_3 C60_3 1_555 1_555
C62_3 C60_3 1_555 1_555
H35_3 C62_3 1_555 1_555
H38_3 C68_3 1_555 1_555
H40_3 C70_3 1_555 1_555
N23_3 C66_3 1_555 1_555
C68_3 C70_3 1_555 1_555
C59_3 N21_3 1_555 1_555
H34_3 C61_3 1_555 1_555
H36_3 C63_3 1_555 1_555
N25_2 Ag12_3 1_555 1_555
C61_3 C63_3 1_555 1_555
N25_2 C69_3 1_555 1_555
C64_3 C65_3 1_555 1_555
C65_3 S10_3 1_555 1_555
C67_3 C64_3 1_555 1_555
H37_3 C67_3 1_555 1_555
C69_3 C67_3 1_555 1_555
H39_3 C69_3 1_555 1_555
H38_4 C68_4 1_555 1_555
H40_4 C70_4 1_555 1_555
N23_4 C66_4 1_555 1_555
C68_4 C70_4 1_555 1_555
Ag13_2 N22_4 1_555 1_555
S9_4 C58_4 1_555 1_555
N22_4 C62_4 1_555 1_555
C57_4 C58_4 1_555 1_555
C60_4 C57_4 1_555 1_555
H33_4 C60_4 1_555 1_555
C62_4 C60_4 1_555 1_555
H35_4 C62_4 1_555 1_555
N24_2 C69_4 1_555 1_555
C64_4 C65_4 1_555 1_555
C65_4 S10_4 1_555 1_555
C67_4 C64_4 1_555 1_555
H37_4 C67_4 1_555 1_555
C69_4 C67_4 1_555 1_555
H39_4 C69_4 1_555 1_555
Ag13_3 N24_2 1_555 1_555
C59_4 N21_4 1_555 1_555
H34_4 C61_4 1_555 1_555
H36_4 C63_4 1_555 1_555
C61_4 C63_4 1_555 1_555

#END
