
###############################################################################
#
# This file contains modified crystal structure data generated from the
# MOF subset of the Cambridge Structural Database (CSD) v543 
# hosted by the Cambridge Crystallographic Data Centre (CCDC).
#
# This work is licensed under the Creative Commons
# Attribution-NonCommercial-ShareAlike 4.0 International License.
# To view a copy of this license, visit
# http://creativecommons.org/licenses/by-nc-sa/4.0/
# or send a letter to
# Creative Commons, PO Box 1866, Mountain View, CA 94042, USA.
#
# CIF created using the CSD Python API on 29 September 2022
# The structure has been converted into the P1 space group
# The structure has a 3D framework
# The original CSD entry YUVSUE is in the tetragonal crystal system
# The framework has been calculated to contain at least 10.0% void space
# The void calculation uses a probe of radius 1.32A, grid spacing 0.4
#
###############################################################################

data_YUVSUE
_chemical_formula_moiety         '(C112 H112 Co12 N80 O28)n'
_symmetry_cell_setting           triclinic
_symmetry_space_group_name_H-M   'P 1'
_symmetry_Int_Tables_number      1
_space_group_name_Hall           'P 1'
loop_
_symmetry_equiv_pos_site_id
_symmetry_equiv_pos_as_xyz
1 x,y,z
_cell_length_a                   15.4355(18)
_cell_length_b                   15.4355(18)
_cell_length_c                   22.775(5)
_cell_angle_alpha                90
_cell_angle_beta                 90
_cell_angle_gamma                90
_cell_volume                     5426.25
loop_
_atom_site_label
_atom_site_type_symbol
_atom_site_fract_x
_atom_site_fract_y
_atom_site_fract_z
Co1 Co 0.04353(9) 0.48205(10) 0.05604(6)
O3 O 0.0806(6) 0.3846(5) 0.0023(4)
N6 N 0.1472(6) 0.5549(7) 0.0209(4)
N7 N 0.1019(6) 0.4327(6) 0.1307(4)
C1 C 0.8973(9) 0.3832(8) 0.1206(5)
H1 H 0.9323 0.3797 0.1549
N1 N 0.9266(6) 0.4204(6) 0.0705(4)
O1 O 0.9878(5) 0.5955(5) 0.0817(3)
C2 C 0.8566(7) 0.4151(7) 0.0349(5)
N4 N 0.8173(6) 0.3519(6) 0.1193(4)
C4 C 0.7135(9) 0.3553(11) 0.0317(7)
C5 C 0.7913(7) 0.3727(8) 0.0629(5)
N5 N 0.6478(7) 0.3119(12) 0.0540(6)
H3 H 0.6037 0.2975 0.0315
H4 H 0.6480 0.2973 0.0913
C6 C 0.9368(7) 0.6354(7) 0.0498(6)
C7 C 0.8907(10) 0.7158(8) 0.0745(8)
H5 H 0.9089 0.7252 0.1152
H6 H 0.8279 0.7068 0.0732
H7 H 0.9060 0.7666 0.0509
Co3 Co 0.76795(10) 0.29353(9) 0.19396(6)
O2 O 0.9194(6) 0.6154(5) 0.9977(4)
N2 N 0.8528(6) 0.4451(7) 0.9791(4)
C3 C 0.7797(9) 0.4231(12) 0.9520(7)
H2 H 0.7747 0.4420 0.9124
N3 N 0.7126(8) 0.3781(10) 0.9726(6)
Co2 Co 0.95647(9) 0.51795(10) 0.94396(6)
Co1_2 Co 0.45647(9) 0.51795(10) 0.55604(6)
C1_2 C 0.6027(9) 0.6168(8) 0.6206(5)
H1_2 H 0.5677 0.6203 0.6549
N1_2 N 0.5734(6) 0.5796(6) 0.5705(4)
O1_2 O 0.5122(5) 0.4045(5) 0.5817(3)
C2_2 C 0.6434(7) 0.5849(7) 0.5349(5)
O2_2 O 0.5806(6) 0.3846(5) 0.4977(4)
N2_2 N 0.6472(6) 0.5549(7) 0.4791(4)
C3_2 C 0.7203(9) 0.5769(12) 0.4520(7)
H2_2 H 0.7253 0.5580 0.4124
N3_2 N 0.7874(8) 0.6219(10) 0.4726(6)
N4_2 N 0.6827(6) 0.6481(6) 0.6193(4)
C4_2 C 0.7865(9) 0.6447(11) 0.5317(7)
C5_2 C 0.7087(7) 0.6273(8) 0.5629(5)
N5_2 N 0.8522(7) 0.6881(12) 0.5540(6)
H3_2 H 0.8963 0.7025 0.5315
H4_2 H 0.8520 0.7027 0.5913
C6_2 C 0.5632(7) 0.3646(7) 0.5498(6)
C7_2 C 0.6093(10) 0.2842(8) 0.5745(8)
H5_2 H 0.5911 0.2748 0.6152
H6_2 H 0.6721 0.2932 0.5732
H7_2 H 0.5940 0.2334 0.5509
Co2_2 Co 0.54353(9) 0.48205(10) 0.44396(6)
Co3_2 Co 0.73205(10) 0.70647(9) 0.69396(6)
O3_2 O 0.4194(6) 0.6154(5) 0.5023(4)
N6_2 N 0.3528(6) 0.4451(7) 0.5209(4)
N7_2 N 0.3981(6) 0.5673(6) 0.6307(4)
Co1_3 Co 0.26795(10) 0.29353(9) 0.30604(6)
C1_3 C 0.3668(8) 0.1473(9) 0.3706(5)
H1_3 H 0.3703 0.1823 0.4049
N1_3 N 0.3296(6) 0.1766(6) 0.3205(4)
O1_3 O 0.1545(5) 0.2378(5) 0.3317(3)
C2_3 C 0.3349(7) 0.1066(7) 0.2849(5)
O2_3 O 0.1346(5) 0.1694(6) 0.2477(4)
N2_3 N 0.3049(7) 0.1028(6) 0.2291(4)
C3_3 C 0.3269(12) 0.0297(9) 0.2020(7)
H2_3 H 0.3080 0.0247 0.1624
N4_3 N 0.3981(6) 0.0673(6) 0.3693(4)
C5_3 C 0.3773(8) 0.0413(7) 0.3129(5)
C6_3 C 0.1146(7) 0.1868(7) 0.2998(6)
C7_3 C 0.0342(8) 0.1407(10) 0.3245(8)
H5_3 H 0.0248 0.1589 0.3652
H6_3 H 0.0432 0.0779 0.3232
Co2_3 Co 0.23205(10) 0.20647(9) 0.19396(6)
Co3_3 Co 0.45647(9) 0.01795(10) 0.44396(6)
O3_3 O 0.3654(5) 0.3306(6) 0.2523(4)
N6_3 N 0.1951(7) 0.3972(6) 0.2709(4)
N7_3 N 0.3173(6) 0.3519(6) 0.3807(4)
Co1_4 Co 0.23205(10) 0.70647(9) 0.80604(6)
C1_4 C 0.1332(8) 0.8527(9) 0.8706(5)
H1_4 H 0.1297 0.8177 0.9049
N1_4 N 0.1704(6) 0.8234(6) 0.8205(4)
O1_4 O 0.3455(5) 0.7622(5) 0.8317(3)
C2_4 C 0.1651(7) 0.8934(7) 0.7849(5)
O2_4 O 0.3654(5) 0.8306(6) 0.7477(4)
N2_4 N 0.1951(7) 0.8972(6) 0.7291(4)
C3_4 C 0.1731(12) 0.9703(9) 0.7020(7)
H2_4 H 0.1920 0.9753 0.6624
N4_4 N 0.1019(6) 0.9327(6) 0.8693(4)
C5_4 C 0.1227(8) 0.9587(7) 0.8129(5)
C6_4 C 0.3854(7) 0.8132(7) 0.7998(6)
C7_4 C 0.4658(8) 0.8593(10) 0.8245(8)
H5_4 H 0.4752 0.8411 0.8652
H6_4 H 0.4568 0.9221 0.8232
H7_3 H 0.5166 0.8440 0.8009
Co2_4 Co 0.26795(10) 0.79353(9) 0.69396(6)
Co3_4 Co 0.04353(9) 0.98205(10) 0.94396(6)
O3_4 O 0.1346(5) 0.6694(6) 0.7523(4)
N6_4 N 0.3049(7) 0.6028(6) 0.7709(4)
N7_4 N 0.1827(6) 0.6481(6) 0.8807(4)
O1_5 O 0.4878(5) 0.0955(5) 0.5817(3)
O2_5 O 0.4194(6) 0.1154(5) 0.4977(4)
C6_5 C 0.4368(7) 0.1354(7) 0.5498(6)
C7_5 C 0.3907(10) 0.2158(8) 0.5745(8)
H5_5 H 0.4089 0.2252 0.6152
H6_5 H 0.3279 0.2068 0.5732
H7_4 H 0.4060 0.2666 0.5509
N6_5 N 0.6472(6) 0.0549(7) 0.5209(4)
Co1_5 Co 0.54353(9) 0.98205(10) 0.55604(6)
C1_5 C 0.3973(9) 0.8832(8) 0.6206(5)
H1_5 H 0.4323 0.8797 0.6549
N1_5 N 0.4266(6) 0.9204(6) 0.5705(4)
C2_5 C 0.3566(7) 0.9151(7) 0.5349(5)
N2_5 N 0.3528(6) 0.9451(7) 0.4791(4)
C3_5 C 0.2797(9) 0.9231(12) 0.4520(7)
H2_5 H 0.2747 0.9420 0.4124
N3_3 N 0.2126(8) 0.8781(10) 0.4726(6)
N4_5 N 0.3173(6) 0.8519(6) 0.6193(4)
C4_3 C 0.2135(9) 0.8553(11) 0.5317(7)
C5_5 C 0.2913(7) 0.8727(8) 0.5629(5)
N5_3 N 0.1478(7) 0.8119(12) 0.5540(6)
H3_3 H 0.1037 0.7975 0.5315
H4_3 H 0.1480 0.7973 0.5913
O3_5 O 0.5806(6) 0.8846(5) 0.5023(4)
N7_5 N 0.6019(6) 0.9327(6) 0.6307(4)
C1_6 C 0.1027(9) 0.1168(8) 0.1206(5)
H1_6 H 0.0677 0.1203 0.1549
N1_6 N 0.0734(6) 0.0796(6) 0.0705(4)
C2_6 C 0.1434(7) 0.0849(7) 0.0349(5)
N4_6 N 0.1827(6) 0.1481(6) 0.1193(4)
C4_4 C 0.2865(9) 0.1447(11) 0.0317(7)
C5_6 C 0.2087(7) 0.1273(8) 0.0629(5)
N5_4 N 0.3522(7) 0.1881(12) 0.0540(6)
H3_4 H 0.3963 0.2025 0.0315
H4_4 H 0.3520 0.2027 0.0913
O2_6 O 0.0806(6) 0.8846(5) 0.9977(4)
Co1_6 Co 0.95647(9) 0.01795(10) 0.05604(6)
O3_6 O 0.9194(6) 0.1154(5) 0.0023(4)
N7_6 N 0.8981(6) 0.0673(6) 0.1307(4)
Co1_7 Co 0.76795(10) 0.79353(9) 0.80604(6)
C1_7 C 0.8668(8) 0.6473(9) 0.8706(5)
H1_7 H 0.8703 0.6823 0.9049
N1_7 N 0.8296(6) 0.6766(6) 0.8205(4)
O1_6 O 0.6545(5) 0.7378(5) 0.8317(3)
C2_7 C 0.8349(7) 0.6066(7) 0.7849(5)
O2_7 O 0.6346(5) 0.6694(6) 0.7477(4)
N2_6 N 0.8049(7) 0.6028(6) 0.7291(4)
C3_6 C 0.8269(12) 0.5297(9) 0.7020(7)
H2_6 H 0.8080 0.5247 0.6624
N3_4 N 0.8719(10) 0.4626(8) 0.7226(6)
N4_7 N 0.8981(6) 0.5673(6) 0.8693(4)
C4_5 C 0.8947(11) 0.4635(9) 0.7817(7)
C5_7 C 0.8773(8) 0.5413(7) 0.8129(5)
N5_5 N 0.9381(12) 0.3978(7) 0.8040(6)
H3_5 H 0.9525 0.3537 0.7815
H4_5 H 0.9527 0.3980 0.8413
C6_6 C 0.6146(7) 0.6868(7) 0.7998(6)
C7_6 C 0.5342(8) 0.6407(10) 0.8245(8)
H5_6 H 0.5248 0.6589 0.8652
H6_6 H 0.5432 0.5779 0.8232
H7_5 H 0.4834 0.6560 0.8009
O3_7 O 0.8654(5) 0.8306(6) 0.7523(4)
N6_6 N 0.6951(7) 0.8972(6) 0.7709(4)
N7_7 N 0.8173(6) 0.8519(6) 0.8807(4)
Co1_8 Co 0.73205(10) 0.20647(9) 0.30604(6)
C1_8 C 0.6332(8) 0.3527(9) 0.3706(5)
H1_8 H 0.6297 0.3177 0.4049
N1_8 N 0.6704(6) 0.3234(6) 0.3205(4)
O1_7 O 0.8455(5) 0.2622(5) 0.3317(3)
C2_8 C 0.6651(7) 0.3934(7) 0.2849(5)
O2_8 O 0.8654(5) 0.3306(6) 0.2477(4)
N2_7 N 0.6951(7) 0.3972(6) 0.2291(4)
C3_7 C 0.6731(12) 0.4703(9) 0.2020(7)
H2_7 H 0.6920 0.4753 0.1624
N3_5 N 0.6281(10) 0.5374(8) 0.2226(6)
N4_8 N 0.6019(6) 0.4327(6) 0.3693(4)
C4_6 C 0.6053(11) 0.5365(9) 0.2817(7)
C5_8 C 0.6227(8) 0.4587(7) 0.3129(5)
N5_6 N 0.5619(12) 0.6022(7) 0.3040(6)
H3_6 H 0.5475 0.6463 0.2815
H4_6 H 0.5473 0.6020 0.3413
C6_7 C 0.8854(7) 0.3132(7) 0.2998(6)
C7_7 C 0.9658(8) 0.3593(10) 0.3245(8)
H5_7 H 0.9752 0.3411 0.3652
H6_7 H 0.9568 0.4221 0.3232
O3_8 O 0.6346(5) 0.1694(6) 0.2523(4)
N6_7 N 0.8049(7) 0.1028(6) 0.2709(4)
N7_8 N 0.6827(6) 0.1481(6) 0.3807(4)
C3_8 C 0.2203(9) 0.5769(12) 0.0480(7)
H2_8 H 0.2253 0.5580 0.0876
N3_6 N 0.2874(8) 0.6219(10) 0.0274(6)
C1_9 C 0.1027(9) 0.6168(8) 0.8794(5)
H1_9 H 0.0677 0.6203 0.8451
N1_9 N 0.0734(6) 0.5796(6) 0.9295(4)
O1_8 O 0.0122(5) 0.4045(5) 0.9183(3)
C2_9 C 0.1434(7) 0.5849(7) 0.9651(5)
C4_7 C 0.2865(9) 0.6447(11) 0.9683(7)
C5_9 C 0.2087(7) 0.6273(8) 0.9371(5)
N5_7 N 0.3522(7) 0.6881(12) 0.9460(6)
H3_7 H 0.3963 0.7025 0.9685
H4_7 H 0.3520 0.7027 0.9087
C6_8 C 0.0632(7) 0.3646(7) 0.9502(6)
C7_8 C 0.1093(10) 0.2842(8) 0.9255(8)
H5_8 H 0.0911 0.2748 0.8848
H6_8 H 0.1721 0.2932 0.9268
H7_6 H 0.0940 0.2334 0.9491
C1_10 C 0.3973(9) 0.3832(8) 0.3794(5)
H1_10 H 0.4323 0.3797 0.3451
N1_10 N 0.4266(6) 0.4204(6) 0.4295(4)
O1_9 O 0.4878(5) 0.5955(5) 0.4183(3)
C2_10 C 0.3566(7) 0.4151(7) 0.4651(5)
C3_9 C 0.2797(9) 0.4231(12) 0.5480(7)
H2_9 H 0.2747 0.4420 0.5876
N3_7 N 0.2126(8) 0.3781(10) 0.5274(6)
C4_8 C 0.2135(9) 0.3553(11) 0.4683(7)
C5_10 C 0.2913(7) 0.3727(8) 0.4371(5)
N5_8 N 0.1478(7) 0.3119(12) 0.4460(6)
H3_8 H 0.1037 0.2975 0.4685
H4_8 H 0.1480 0.2973 0.4087
C6_9 C 0.4368(7) 0.6354(7) 0.4502(6)
C7_9 C 0.3907(10) 0.7158(8) 0.4255(8)
H5_9 H 0.4089 0.7252 0.3848
H6_9 H 0.3279 0.7068 0.4268
H7_7 H 0.4060 0.7666 0.4491
C1_11 C 0.6332(8) 0.8527(9) 0.6294(5)
H1_11 H 0.6297 0.8177 0.5951
N1_11 N 0.6704(6) 0.8234(6) 0.6795(4)
O1_10 O 0.8455(5) 0.7622(5) 0.6683(3)
C2_11 C 0.6651(7) 0.8934(7) 0.7151(5)
C3_10 C 0.6731(12) 0.9703(9) 0.7980(7)
H2_10 H 0.6920 0.9753 0.8376
C5_11 C 0.6227(8) 0.9587(7) 0.6871(5)
C6_10 C 0.8854(7) 0.8132(7) 0.7002(6)
C7_10 C 0.9658(8) 0.8593(10) 0.6755(8)
H5_10 H 0.9752 0.8411 0.6348
H6_10 H 0.9568 0.9221 0.6768
C1_12 C 0.8668(8) 0.1473(9) 0.1294(5)
H1_12 H 0.8703 0.1823 0.0951
N1_12 N 0.8296(6) 0.1766(6) 0.1795(4)
O1_11 O 0.6545(5) 0.2378(5) 0.1683(3)
C2_12 C 0.8349(7) 0.1066(7) 0.2151(5)
C3_11 C 0.8269(12) 0.0297(9) 0.2980(7)
H2_11 H 0.8080 0.0247 0.3376
C5_12 C 0.8773(8) 0.0413(7) 0.1871(5)
C6_11 C 0.6146(7) 0.1868(7) 0.2002(6)
C7_11 C 0.5342(8) 0.1407(10) 0.1755(8)
H5_11 H 0.5248 0.1589 0.1348
H6_11 H 0.5432 0.0779 0.1768
H7_8 H 0.4834 0.1560 0.1991
C1_13 C 0.6027(9) 0.1168(8) 0.3794(5)
H1_13 H 0.5677 0.1203 0.3451
N1_13 N 0.5734(6) 0.0796(6) 0.4295(4)
C2_13 C 0.6434(7) 0.0849(7) 0.4651(5)
C3_12 C 0.7203(9) 0.0769(12) 0.5480(7)
H2_12 H 0.7253 0.0580 0.5876
N3_8 N 0.7874(8) 0.1219(10) 0.5274(6)
C4_9 C 0.7865(9) 0.1447(11) 0.4683(7)
C5_13 C 0.7087(7) 0.1273(8) 0.4371(5)
N5_9 N 0.8522(7) 0.1881(12) 0.4460(6)
H3_9 H 0.8963 0.2025 0.4685
H4_9 H 0.8520 0.2027 0.4087
O1_12 O 0.5122(5) 0.9045(5) 0.4183(3)
C6_12 C 0.5632(7) 0.8646(7) 0.4502(6)
C7_12 C 0.6093(10) 0.7842(8) 0.4255(8)
H5_12 H 0.5911 0.7748 0.3848
H6_12 H 0.6721 0.7932 0.4268
H7_9 H 0.5940 0.7334 0.4491
C1_14 C 0.8973(9) 0.8832(8) 0.8794(5)
H1_14 H 0.9323 0.8797 0.8451
N1_14 N 0.9266(6) 0.9204(6) 0.9295(4)
C2_14 C 0.8566(7) 0.9151(7) 0.9651(5)
C4_10 C 0.7135(9) 0.8553(11) 0.9683(7)
C5_14 C 0.7913(7) 0.8727(8) 0.9371(5)
N5_10 N 0.6478(7) 0.8119(12) 0.9460(6)
H3_10 H 0.6037 0.7975 0.9685
H4_10 H 0.6480 0.7973 0.9087
C1_15 C 0.1332(8) 0.3527(9) 0.1294(5)
H1_15 H 0.1297 0.3177 0.0951
N1_15 N 0.1704(6) 0.3234(6) 0.1795(4)
O1_13 O 0.3455(5) 0.2622(5) 0.1683(3)
C2_15 C 0.1651(7) 0.3934(7) 0.2151(5)
C3_13 C 0.1731(12) 0.4703(9) 0.2980(7)
H2_13 H 0.1920 0.4753 0.3376
N3_9 N 0.1281(10) 0.5374(8) 0.2774(6)
C4_11 C 0.1053(11) 0.5365(9) 0.2183(7)
C5_15 C 0.1227(8) 0.4587(7) 0.1871(5)
N5_11 N 0.0619(12) 0.6022(7) 0.1960(6)
H3_11 H 0.0475 0.6463 0.2185
H4_11 H 0.0473 0.6020 0.1587
C6_13 C 0.3854(7) 0.3132(7) 0.2002(6)
C7_13 C 0.4658(8) 0.3593(10) 0.1755(8)
H5_13 H 0.4752 0.3411 0.1348
H6_13 H 0.4568 0.4221 0.1768
H7_10 H 0.5166 0.3440 0.1991
C1_16 C 0.3668(8) 0.6473(9) 0.6294(5)
H1_16 H 0.3703 0.6823 0.5951
N1_16 N 0.3296(6) 0.6766(6) 0.6795(4)
O1_14 O 0.1545(5) 0.7378(5) 0.6683(3)
C2_16 C 0.3349(7) 0.6066(7) 0.7151(5)
C3_14 C 0.3269(12) 0.5297(9) 0.7980(7)
H2_14 H 0.3080 0.5247 0.8376
N3_10 N 0.3719(10) 0.4626(8) 0.7774(6)
C4_12 C 0.3947(11) 0.4635(9) 0.7183(7)
C5_16 C 0.3773(8) 0.5413(7) 0.6871(5)
N5_12 N 0.4381(12) 0.3978(7) 0.6960(6)
H3_12 H 0.4525 0.3537 0.7185
H4_12 H 0.4527 0.3980 0.6587
C6_14 C 0.1146(7) 0.6868(7) 0.7002(6)
C7_14 C 0.0342(8) 0.6407(10) 0.6755(8)
H5_14 H 0.0248 0.6589 0.6348
H6_14 H 0.0432 0.5779 0.6768
N3_11 N 0.3719(10) 0.9626(8) 0.2226(6)
C4_13 C 0.3947(11) 0.9635(9) 0.2817(7)
N5_13 N 0.4381(12) 0.8978(7) 0.3040(6)
H3_13 H 0.4525 0.8537 0.2815
H4_13 H 0.4527 0.8980 0.3413
H7_11 H 0.9834 0.1560 0.3009
N3_12 N 0.1281(10) 0.0374(8) 0.7226(6)
C4_14 C 0.1053(11) 0.0365(9) 0.7817(7)
N5_14 N 0.0619(12) 0.1022(7) 0.8040(6)
H3_14 H 0.0475 0.1463 0.7815
H4_14 H 0.0473 0.1020 0.8413
N2_8 N 0.1472(6) 0.0549(7) 0.9791(4)
C3_15 C 0.2203(9) 0.0769(12) 0.9520(7)
H2_15 H 0.2253 0.0580 0.9124
N3_13 N 0.2874(8) 0.1219(10) 0.9726(6)
O1_15 O 0.0122(5) 0.9045(5) 0.0817(3)
C6_15 C 0.0632(7) 0.8646(7) 0.0498(6)
C7_15 C 0.1093(10) 0.7842(8) 0.0745(8)
H5_15 H 0.0911 0.7748 0.1152
H6_15 H 0.1721 0.7932 0.0732
H7_12 H 0.0940 0.7334 0.0509
N6_8 N 0.8528(6) 0.9451(7) 0.0209(4)
C3_16 C 0.7797(9) 0.9231(12) 0.0480(7)
H2_16 H 0.7747 0.9420 0.0876
N3_14 N 0.7126(8) 0.8781(10) 0.0274(6)
H7_13 H 0.0166 0.3440 0.3009
H7_14 H 0.0166 0.8440 0.6991
N3_15 N 0.6281(10) 0.0374(8) 0.7774(6)
C4_15 C 0.6053(11) 0.0365(9) 0.7183(7)
N5_15 N 0.5619(12) 0.1022(7) 0.6960(6)
H3_15 H 0.5475 0.1463 0.7185
H4_15 H 0.5473 0.1020 0.6587
N3_16 N 0.8719(10) 0.9626(8) 0.2774(6)
C4_16 C 0.8947(11) 0.9635(9) 0.2183(7)
N5_16 N 0.9381(12) 0.8978(7) 0.1960(6)
H3_16 H 0.9525 0.8537 0.2185
H4_16 H 0.9527 0.8980 0.1587
O1_16 O 0.9878(5) 0.0955(5) 0.9183(3)
C6_16 C 0.9368(7) 0.1354(7) 0.9502(6)
C7_16 C 0.8907(10) 0.2158(8) 0.9255(8)
H5_16 H 0.9089 0.2252 0.8848
H6_16 H 0.8279 0.2068 0.9268
H7_15 H 0.9060 0.2666 0.9491
H7_16 H 0.9834 0.6560 0.6991
loop_
_geom_bond_atom_site_label_1
_geom_bond_atom_site_label_2
_geom_bond_site_symmetry_1
_geom_bond_site_symmetry_2
O3 Co1 1_555 1_555
N6 Co1 1_555 1_555
N7 Co1 1_555 1_555
C1 H1 1_555 1_555
N1 C1 1_555 1_555
C2 N1 1_555 1_555
N4 C1 1_555 1_555
C5 C2 1_555 1_555
N5 C4 1_555 1_555
H3 N5 1_555 1_555
H4 N5 1_555 1_555
C6 O1 1_555 1_555
C7 C6 1_555 1_555
H5 C7 1_555 1_555
H6 C7 1_555 1_555
H7 C7 1_555 1_555
Co3 N4 1_555 1_555
N4 C5 1_555 1_555
C4 C5 1_555 1_555
C3 N2 1_555 1_555
H2 C3 1_555 1_555
N3 C3 1_555 1_555
Co2 O2 1_555 1_555
N2 Co2 1_555 1_555
Co1_2 N1_2 1_555 1_555
C1_2 H1_2 1_555 1_555
N1_2 C1_2 1_555 1_555
O1_2 Co1_2 1_555 1_555
C2_2 N1_2 1_555 1_555
O2_2 C6_2 1_555 1_555
N2_2 C2_2 1_555 1_555
C3_2 N2_2 1_555 1_555
H2_2 C3_2 1_555 1_555
N3_2 C3_2 1_555 1_555
N4_2 C1_2 1_555 1_555
C4_2 N3_2 1_555 1_555
C5_2 C2_2 1_555 1_555
N5_2 C4_2 1_555 1_555
H3_2 N5_2 1_555 1_555
H4_2 N5_2 1_555 1_555
C6_2 O1_2 1_555 1_555
C7_2 C6_2 1_555 1_555
H5_2 C7_2 1_555 1_555
H6_2 C7_2 1_555 1_555
H7_2 C7_2 1_555 1_555
Co2_2 O2_2 1_555 1_555
Co3_2 N4_2 1_555 1_555
O3_2 Co1_2 1_555 1_555
N6_2 Co1_2 1_555 1_555
N7_2 Co1_2 1_555 1_555
N2_2 Co2_2 1_555 1_555
N4_2 C5_2 1_555 1_555
C4_2 C5_2 1_555 1_555
Co1_3 N1_3 1_555 1_555
C1_3 H1_3 1_555 1_555
N1_3 C1_3 1_555 1_555
O1_3 Co1_3 1_555 1_555
C2_3 N1_3 1_555 1_555
O2_3 C6_3 1_555 1_555
N2_3 C2_3 1_555 1_555
C3_3 N2_3 1_555 1_555
H2_3 C3_3 1_555 1_555
N4_3 C1_3 1_555 1_555
C5_3 C2_3 1_555 1_555
C6_3 O1_3 1_555 1_555
C7_3 C6_3 1_555 1_555
H5_3 C7_3 1_555 1_555
H6_3 C7_3 1_555 1_555
Co2_3 O2_3 1_555 1_555
Co3_3 N4_3 1_555 1_555
O3_3 Co1_3 1_555 1_555
N6_3 Co1_3 1_555 1_555
N7_3 Co1_3 1_555 1_555
N2_3 Co2_3 1_555 1_555
N4_3 C5_3 1_555 1_555
Co1_4 N1_4 1_555 1_555
C1_4 H1_4 1_555 1_555
N1_4 C1_4 1_555 1_555
O1_4 Co1_4 1_555 1_555
C2_4 N1_4 1_555 1_555
O2_4 C6_4 1_555 1_555
N2_4 C2_4 1_555 1_555
C3_4 N2_4 1_555 1_555
H2_4 C3_4 1_555 1_555
N4_4 C1_4 1_555 1_555
C5_4 C2_4 1_555 1_555
C6_4 O1_4 1_555 1_555
C7_4 C6_4 1_555 1_555
H5_4 C7_4 1_555 1_555
H6_4 C7_4 1_555 1_555
H7_3 C7_4 1_555 1_555
Co2_4 O2_4 1_555 1_555
Co3_4 N4_4 1_555 1_555
O3_4 Co1_4 1_555 1_555
N6_4 Co1_4 1_555 1_555
N7_4 Co1_4 1_555 1_555
N2_4 Co2_4 1_555 1_555
N4_4 C5_4 1_555 1_555
O2_5 C6_5 1_555 1_555
C6_5 O1_5 1_555 1_555
C7_5 C6_5 1_555 1_555
H5_5 C7_5 1_555 1_555
H6_5 C7_5 1_555 1_555
H7_4 C7_5 1_555 1_555
Co3_3 O2_5 1_555 1_555
Co1_5 N1_5 1_555 1_555
C1_5 H1_5 1_555 1_555
N1_5 C1_5 1_555 1_555
C2_5 N1_5 1_555 1_555
N2_5 C2_5 1_555 1_555
C3_5 N2_5 1_555 1_555
H2_5 C3_5 1_555 1_555
N3_3 C3_5 1_555 1_555
N4_5 C1_5 1_555 1_555
C4_3 N3_3 1_555 1_555
C5_5 C2_5 1_555 1_555
N5_3 C4_3 1_555 1_555
H3_3 N5_3 1_555 1_555
H4_3 N5_3 1_555 1_555
Co2_4 N4_5 1_555 1_555
O3_5 Co1_5 1_555 1_555
N7_5 Co1_5 1_555 1_555
N4_5 C5_5 1_555 1_555
C4_3 C5_5 1_555 1_555
C1_6 H1_6 1_555 1_555
N1_6 C1_6 1_555 1_555
C2_6 N1_6 1_555 1_555
N4_6 C1_6 1_555 1_555
C5_6 C2_6 1_555 1_555
N5_4 C4_4 1_555 1_555
H3_4 N5_4 1_555 1_555
H4_4 N5_4 1_555 1_555
Co2_3 N4_6 1_555 1_555
N4_6 C5_6 1_555 1_555
C4_4 C5_6 1_555 1_555
Co3_4 O2_6 1_555 1_555
O3_6 Co1_6 1_555 1_555
N7_6 Co1_6 1_555 1_555
Co1_7 N1_7 1_555 1_555
C1_7 H1_7 1_555 1_555
N1_7 C1_7 1_555 1_555
O1_6 Co1_7 1_555 1_555
C2_7 N1_7 1_555 1_555
O2_7 C6_6 1_555 1_555
N2_6 C2_7 1_555 1_555
C3_6 N2_6 1_555 1_555
H2_6 C3_6 1_555 1_555
N3_4 C3_6 1_555 1_555
N4_7 C1_7 1_555 1_555
C4_5 N3_4 1_555 1_555
C5_7 C2_7 1_555 1_555
N5_5 C4_5 1_555 1_555
H3_5 N5_5 1_555 1_555
H4_5 N5_5 1_555 1_555
C6_6 O1_6 1_555 1_555
C7_6 C6_6 1_555 1_555
H5_6 C7_6 1_555 1_555
H6_6 C7_6 1_555 1_555
H7_5 C7_6 1_555 1_555
Co3_2 O2_7 1_555 1_555
Co2 N4_7 1_555 1_555
O3_7 Co1_7 1_555 1_555
N6_6 Co1_7 1_555 1_555
N7_7 Co1_7 1_555 1_555
N2_6 Co3_2 1_555 1_555
N4_7 C5_7 1_555 1_555
C4_5 C5_7 1_555 1_555
Co1_8 N1_8 1_555 1_555
C1_8 H1_8 1_555 1_555
N1_8 C1_8 1_555 1_555
O1_7 Co1_8 1_555 1_555
C2_8 N1_8 1_555 1_555
O2_8 C6_7 1_555 1_555
N2_7 C2_8 1_555 1_555
C3_7 N2_7 1_555 1_555
H2_7 C3_7 1_555 1_555
N3_5 C3_7 1_555 1_555
N4_8 C1_8 1_555 1_555
C4_6 N3_5 1_555 1_555
C5_8 C2_8 1_555 1_555
N5_6 C4_6 1_555 1_555
H3_6 N5_6 1_555 1_555
H4_6 N5_6 1_555 1_555
C6_7 O1_7 1_555 1_555
C7_7 C6_7 1_555 1_555
H5_7 C7_7 1_555 1_555
H6_7 C7_7 1_555 1_555
Co3 O2_8 1_555 1_555
Co2_2 N4_8 1_555 1_555
O3_8 Co1_8 1_555 1_555
N6_7 Co1_8 1_555 1_555
N7_8 Co1_8 1_555 1_555
N2_7 Co3 1_555 1_555
N4_8 C5_8 1_555 1_555
C4_6 C5_8 1_555 1_555
C3_8 N6 1_555 1_555
H2_8 C3_8 1_555 1_555
N3_6 C3_8 1_555 1_555
C1_9 H1_9 1_555 1_555
N1_9 C1_9 1_555 1_555
C2_9 N1_9 1_555 1_555
N7_4 C1_9 1_555 1_555
C5_9 C2_9 1_555 1_555
N5_7 C4_7 1_555 1_555
H3_7 N5_7 1_555 1_555
H4_7 N5_7 1_555 1_555
C6_8 O1_8 1_555 1_555
C7_8 C6_8 1_555 1_555
H5_8 C7_8 1_555 1_555
H6_8 C7_8 1_555 1_555
H7_6 C7_8 1_555 1_555
N7_4 C5_9 1_555 1_555
C4_7 C5_9 1_555 1_555
Co2_2 N1_10 1_555 1_555
C1_10 H1_10 1_555 1_555
N1_10 C1_10 1_555 1_555
O1_9 Co2_2 1_555 1_555
C2_10 N1_10 1_555 1_555
O3_2 C6_9 1_555 1_555
N6_2 C2_10 1_555 1_555
C3_9 N6_2 1_555 1_555
H2_9 C3_9 1_555 1_555
N3_7 C3_9 1_555 1_555
N7_3 C1_10 1_555 1_555
C4_8 N3_7 1_555 1_555
C5_10 C2_10 1_555 1_555
N5_8 C4_8 1_555 1_555
H3_8 N5_8 1_555 1_555
H4_8 N5_8 1_555 1_555
C6_9 O1_9 1_555 1_555
C7_9 C6_9 1_555 1_555
H5_9 C7_9 1_555 1_555
H6_9 C7_9 1_555 1_555
H7_7 C7_9 1_555 1_555
N7_3 C5_10 1_555 1_555
C4_8 C5_10 1_555 1_555
Co3_2 N1_11 1_555 1_555
C1_11 H1_11 1_555 1_555
N1_11 C1_11 1_555 1_555
O1_10 Co3_2 1_555 1_555
C2_11 N1_11 1_555 1_555
O3_7 C6_10 1_555 1_555
N6_6 C2_11 1_555 1_555
C3_10 N6_6 1_555 1_555
H2_10 C3_10 1_555 1_555
N7_5 C1_11 1_555 1_555
C5_11 C2_11 1_555 1_555
C6_10 O1_10 1_555 1_555
C7_10 C6_10 1_555 1_555
H5_10 C7_10 1_555 1_555
H6_10 C7_10 1_555 1_555
N7_5 C5_11 1_555 1_555
Co3 N1_12 1_555 1_555
C1_12 H1_12 1_555 1_555
N1_12 C1_12 1_555 1_555
O1_11 Co3 1_555 1_555
C2_12 N1_12 1_555 1_555
O3_8 C6_11 1_555 1_555
N6_7 C2_12 1_555 1_555
C3_11 N6_7 1_555 1_555
H2_11 C3_11 1_555 1_555
N7_6 C1_12 1_555 1_555
C5_12 C2_12 1_555 1_555
C6_11 O1_11 1_555 1_555
C7_11 C6_11 1_555 1_555
H5_11 C7_11 1_555 1_555
H6_11 C7_11 1_555 1_555
H7_8 C7_11 1_555 1_555
N7_6 C5_12 1_555 1_555
Co3_3 N1_13 1_555 1_555
C1_13 H1_13 1_555 1_555
N1_13 C1_13 1_555 1_555
C2_13 N1_13 1_555 1_555
N6_5 C2_13 1_555 1_555
C3_12 N6_5 1_555 1_555
H2_12 C3_12 1_555 1_555
N3_8 C3_12 1_555 1_555
N7_8 C1_13 1_555 1_555
C4_9 N3_8 1_555 1_555
C5_13 C2_13 1_555 1_555
N5_9 C4_9 1_555 1_555
H3_9 N5_9 1_555 1_555
H4_9 N5_9 1_555 1_555
N7_8 C5_13 1_555 1_555
C4_9 C5_13 1_555 1_555
O3_5 C6_12 1_555 1_555
C6_12 O1_12 1_555 1_555
C7_12 C6_12 1_555 1_555
H5_12 C7_12 1_555 1_555
H6_12 C7_12 1_555 1_555
H7_9 C7_12 1_555 1_555
C1_14 H1_14 1_555 1_555
N1_14 C1_14 1_555 1_555
C2_14 N1_14 1_555 1_555
N7_7 C1_14 1_555 1_555
C5_14 C2_14 1_555 1_555
N5_10 C4_10 1_555 1_555
H3_10 N5_10 1_555 1_555
H4_10 N5_10 1_555 1_555
N7_7 C5_14 1_555 1_555
C4_10 C5_14 1_555 1_555
Co2_3 N1_15 1_555 1_555
C1_15 H1_15 1_555 1_555
N1_15 C1_15 1_555 1_555
O1_13 Co2_3 1_555 1_555
C2_15 N1_15 1_555 1_555
O3_3 C6_13 1_555 1_555
N6_3 C2_15 1_555 1_555
C3_13 N6_3 1_555 1_555
H2_13 C3_13 1_555 1_555
N3_9 C3_13 1_555 1_555
N7 C1_15 1_555 1_555
C4_11 N3_9 1_555 1_555
C5_15 C2_15 1_555 1_555
N5_11 C4_11 1_555 1_555
H3_11 N5_11 1_555 1_555
H4_11 N5_11 1_555 1_555
C6_13 O1_13 1_555 1_555
C7_13 C6_13 1_555 1_555
H5_13 C7_13 1_555 1_555
H6_13 C7_13 1_555 1_555
H7_10 C7_13 1_555 1_555
N7 C5_15 1_555 1_555
C4_11 C5_15 1_555 1_555
Co2_4 N1_16 1_555 1_555
C1_16 H1_16 1_555 1_555
N1_16 C1_16 1_555 1_555
O1_14 Co2_4 1_555 1_555
C2_16 N1_16 1_555 1_555
O3_4 C6_14 1_555 1_555
N6_4 C2_16 1_555 1_555
C3_14 N6_4 1_555 1_555
H2_14 C3_14 1_555 1_555
N3_10 C3_14 1_555 1_555
N7_2 C1_16 1_555 1_555
C4_12 N3_10 1_555 1_555
C5_16 C2_16 1_555 1_555
N5_12 C4_12 1_555 1_555
H3_12 N5_12 1_555 1_555
H4_12 N5_12 1_555 1_555
C6_14 O1_14 1_555 1_555
C7_14 C6_14 1_555 1_555
H5_14 C7_14 1_555 1_555
H6_14 C7_14 1_555 1_555
N7_2 C5_16 1_555 1_555
C4_12 C5_16 1_555 1_555
C4_13 N3_11 1_555 1_555
N5_13 C4_13 1_555 1_555
H3_13 N5_13 1_555 1_555
H4_13 N5_13 1_555 1_555
C4_14 N3_12 1_555 1_555
N5_14 C4_14 1_555 1_555
H3_14 N5_14 1_555 1_555
H4_14 N5_14 1_555 1_555
C3_15 N2_8 1_555 1_555
H2_15 C3_15 1_555 1_555
N3_13 C3_15 1_555 1_555
C6_15 O1_15 1_555 1_555
C7_15 C6_15 1_555 1_555
H5_15 C7_15 1_555 1_555
H6_15 C7_15 1_555 1_555
H7_12 C7_15 1_555 1_555
C3_16 N6_8 1_555 1_555
H2_16 C3_16 1_555 1_555
N3_14 C3_16 1_555 1_555
C4_15 N3_15 1_555 1_555
N5_15 C4_15 1_555 1_555
H3_15 N5_15 1_555 1_555
H4_15 N5_15 1_555 1_555
C4_16 N3_16 1_555 1_555
N5_16 C4_16 1_555 1_555
H3_16 N5_16 1_555 1_555
H4_16 N5_16 1_555 1_555
C6_16 O1_16 1_555 1_555
C7_16 C6_16 1_555 1_555
H5_16 C7_16 1_555 1_555
H6_16 C7_16 1_555 1_555
H7_15 C7_16 1_555 1_555

#END
