
###############################################################################
#
# This file contains modified crystal structure data generated from the
# MOF subset of the Cambridge Structural Database (CSD) v543 
# hosted by the Cambridge Crystallographic Data Centre (CCDC).
#
# This work is licensed under the Creative Commons
# Attribution-NonCommercial-ShareAlike 4.0 International License.
# To view a copy of this license, visit
# http://creativecommons.org/licenses/by-nc-sa/4.0/
# or send a letter to
# Creative Commons, PO Box 1866, Mountain View, CA 94042, USA.
#
# CIF created using the CSD Python API on 29 September 2022
# The structure has been converted into the P1 space group
# The structure has a 3D framework
# The original CSD entry YUWDIF is in the orthorhombic crystal system
# The framework has been calculated to contain at least 10.0% void space
# The void calculation uses a probe of radius 1.32A, grid spacing 0.4
#
###############################################################################

data_YUWDIF
_chemical_formula_moiety         '(C72 H48 Cu6 N24 O16)n'
_symmetry_cell_setting           triclinic
_symmetry_space_group_name_H-M   'P 1'
_symmetry_Int_Tables_number      1
_space_group_name_Hall           'P 1'
loop_
_symmetry_equiv_pos_site_id
_symmetry_equiv_pos_as_xyz
1 x,y,z
_cell_length_a                   13.0574(5)
_cell_length_b                   9.9328(4)
_cell_length_c                   17.5051(6)
_cell_angle_alpha                90
_cell_angle_beta                 90
_cell_angle_gamma                90
_cell_volume                     2270.35
loop_
_atom_site_label
_atom_site_type_symbol
_atom_site_fract_x
_atom_site_fract_y
_atom_site_fract_z
N4 N 0.1388(2) 0.4954(2) 0.23988(15)
N5 N 0.0368(2) 0.5478(3) 0.33307(15)
C10 C 0.1265(2) 0.5719(3) 0.30088(17)
H7 H 0.1742 0.6340 0.3187
C14 C 0.0239(3) 0.7367(3) 0.4198(2)
H8 H 0.0806 0.7750 0.3962
H9 H 0.0001 0.8861 0.4958
C18 C 0.0510(3) 0.4235(5) 0.2379(3)
H12 H 0.0375 0.3596 0.2004
Cu3 Cu 0.2500 0.5000 0.16204(3)
Cu1 Cu 0.7500 -0.0000 0.66204(3)
O1 O 0.65010(16) 0.0520(2) 0.58227(11)
N1 N 0.3612(2) 0.5046(2) 0.23988(15)
N2 N 0.4632(2) 0.4522(3) 0.33307(15)
O2 O 0.72560(18) 0.2398(2) 0.61854(13)
C1 C 0.3735(2) 0.4281(3) 0.30088(17)
H1 H 0.3258 0.3660 0.3187
C2 C 0.6658(2) 0.1778(3) 0.57577(16)
C3 C 0.6085(2) 0.2521(3) 0.51423(17)
C4 C 0.5120(3) 0.3850(3) 0.39616(18)
C5 C 0.4761(3) 0.2633(3) 0.4198(2)
H2 H 0.4194 0.2250 0.3962
C6 C 0.5246(3) 0.1968(4) 0.4794(2)
H3 H 0.4999 0.1139 0.4958
C7 C 0.6419(3) 0.3758(3) 0.4901(2)
H4 H 0.6978 0.4154 0.5142
C8 C 0.5947(3) 0.4430(4) 0.4308(2)
H5 H 0.6187 0.5264 0.4147
N3 N 0.5131(3) 0.5490(4) 0.2928(2)
C9 C 0.4490(3) 0.5765(5) 0.2379(3)
H6 H 0.4625 0.6404 0.2004
N7 N 0.6388(2) 0.0046(2) 0.73988(15)
H5_2 H 0.3813 0.0264 0.9147
N3_2 N 0.4869(3) 0.0490(4) 0.7928(2)
C9_2 C 0.5510(3) 0.0765(5) 0.7379(3)
H6_2 H 0.5375 0.1404 0.7004
O1_2 O 0.34990(16) 0.5520(2) 0.08227(11)
O2_2 O 0.27440(18) 0.7398(2) 0.11854(13)
C2_2 C 0.3342(2) 0.6778(3) 0.07577(16)
C3_2 C 0.3915(2) 0.7521(3) 0.01423(17)
H4_2 H 0.3022 0.9154 0.0142
O3 O 0.15010(16) 0.4480(2) 0.08227(11)
O4 O 0.22560(18) 0.2602(2) 0.11854(13)
C11 C 0.1658(2) 0.3222(3) 0.07577(16)
C12 C 0.1085(2) 0.2479(3) 0.01423(17)
H10 H 0.1978 0.0846 0.0142
N5_2 N 0.9632(2) 0.0478(3) 0.83307(15)
C10_2 C 0.8735(2) 0.0719(3) 0.80088(17)
H7_2 H 0.8258 0.1340 0.8187
C14_2 C 0.9761(3) 0.2367(3) 0.9198(2)
H8_2 H 0.9194 0.2750 0.8962
H9_2 H 0.9999 0.3861 0.9958
Cu1_2 Cu 0.7500 1.0000 0.66204(3)
O3_2 O 0.84990(16) 0.9480(2) 0.58227(11)
O4_2 O 0.77440(18) 0.7602(2) 0.61854(13)
C11_2 C 0.8342(2) 0.8222(3) 0.57577(16)
C12_2 C 0.8915(2) 0.7479(3) 0.51423(17)
C13 C 0.9880(3) 0.6150(3) 0.39616(18)
C15 C 0.9754(3) 0.8032(4) 0.4794(2)
C16 C 0.8581(3) 0.6242(3) 0.4901(2)
H10_2 H 0.8022 0.5846 0.5142
C17 C 0.9053(3) 0.5570(4) 0.4308(2)
H11 H 0.8813 0.4736 0.4147
N6 N 0.9869(3) 0.4510(4) 0.2928(2)
N8 N 0.8612(2) 0.9954(2) 0.73988(15)
N2_2 N 0.5368(2) 0.9522(3) 0.83307(15)
C1_2 C 0.6265(2) 0.9281(3) 0.80088(17)
H1_2 H 0.6742 0.8660 0.8187
C4_2 C 0.4880(3) 0.8850(3) 0.89616(18)
C5_2 C 0.5239(3) 0.7633(3) 0.9198(2)
H2_2 H 0.5806 0.7250 0.8962
C6_2 C 0.4754(3) 0.6968(4) 0.9794(2)
H3_2 H 0.5001 0.6139 0.9958
C7_2 C 0.3581(3) 0.8758(3) 0.9901(2)
C8_2 C 0.4053(3) 0.9430(4) 0.9308(2)
C13_2 C 0.0120(3) 0.1150(3) 0.89616(18)
C15_2 C 0.0246(3) 0.3032(4) 0.9794(2)
C16_2 C 0.1419(3) 0.1242(3) 0.9901(2)
C17_2 C 0.0947(3) 0.0570(4) 0.9308(2)
C18_2 C 0.9490(3) 0.9235(5) 0.7379(3)
H12_2 H 0.9625 0.8596 0.7004
N4_2 N 0.1388(2) 0.0046(2) 0.26012(15)
C18_3 C 0.0510(3) 0.0765(5) 0.2621(3)
H12_3 H 0.0375 0.1404 0.2996
Cu3_2 Cu 0.2500 -0.0000 0.33796(3)
N2_3 N 0.4632(2) 0.0478(3) 0.16693(15)
C1_3 C 0.3735(2) 0.0719(3) 0.19912(17)
H1_3 H 0.3258 0.1340 0.1813
C4_3 C 0.5120(3) 0.1150(3) 0.10384(18)
C5_3 C 0.4761(3) 0.2367(3) 0.0802(2)
H2_3 H 0.4194 0.2750 0.1038
C6_3 C 0.5246(3) 0.3032(4) 0.0206(2)
H3_3 H 0.4999 0.3861 0.0042
C7_3 C 0.6419(3) 0.1242(3) 0.0099(2)
C8_3 C 0.5947(3) 0.0570(4) 0.0692(2)
C13_3 C 0.9880(3) 0.8850(3) 0.10384(18)
C15_3 C 0.9754(3) 0.6968(4) 0.0206(2)
C16_3 C 0.8581(3) 0.8758(3) 0.0099(2)
C17_3 C 0.9053(3) 0.9430(4) 0.0692(2)
O3_3 O 0.15010(16) 0.0520(2) 0.41773(11)
O4_3 O 0.22560(18) 0.2398(2) 0.38146(13)
C11_3 C 0.1658(2) 0.1778(3) 0.42423(16)
C12_3 C 0.1085(2) 0.2521(3) 0.48577(17)
C13_4 C 0.0120(3) 0.3850(3) 0.60384(18)
C15_4 C 0.0246(3) 0.1968(4) 0.5206(2)
C16_4 C 0.1419(3) 0.3758(3) 0.5099(2)
H10_3 H 0.1978 0.4154 0.4858
C17_4 C 0.0947(3) 0.4430(4) 0.5692(2)
H11_2 H 0.1187 0.5264 0.5853
N6_2 N 0.0131(3) 0.5490(4) 0.7072(2)
N5_3 N 0.0368(2) 0.9522(3) 0.16693(15)
C10_3 C 0.1265(2) 0.9281(3) 0.19912(17)
H7_3 H 0.1742 0.8660 0.1813
C14_3 C 0.0239(3) 0.7633(3) 0.0802(2)
H8_3 H 0.0806 0.7250 0.1038
H9_3 H 0.0001 0.6139 0.0042
Cu3_3 Cu 0.2500 1.0000 0.33796(3)
Cu1_3 Cu 0.7500 0.5000 0.83796(3)
O1_3 O 0.65010(16) 0.4480(2) 0.91773(11)
O2_3 O 0.72560(18) 0.2602(2) 0.88146(13)
C2_3 C 0.6658(2) 0.3222(3) 0.92423(16)
C3_3 C 0.6085(2) 0.2479(3) 0.98577(17)
H4_3 H 0.6978 0.0846 0.9858
O3_4 O 0.84990(16) 0.5520(2) 0.91773(11)
O4_4 O 0.77440(18) 0.7398(2) 0.88146(13)
C11_4 C 0.8342(2) 0.6778(3) 0.92423(16)
C12_4 C 0.8915(2) 0.7521(3) 0.98577(17)
H10_4 H 0.8022 0.9154 0.9858
N7_2 N 0.6388(2) 0.4954(2) 0.76012(15)
N8_2 N 0.8612(2) 0.5046(2) 0.76012(15)
N1_2 N 0.3612(2) 0.9954(2) 0.26012(15)
H5_3 H 0.6187 0.9736 0.0853
N3_3 N 0.5131(3) 0.9510(4) 0.2072(2)
C9_3 C 0.4490(3) 0.9235(5) 0.2621(3)
H6_3 H 0.4625 0.8596 0.2996
O1_4 O 0.34990(16) 0.9480(2) 0.41773(11)
N2_4 N 0.5368(2) 0.5478(3) 0.66693(15)
O2_4 O 0.27440(18) 0.7602(2) 0.38146(13)
C1_4 C 0.6265(2) 0.5719(3) 0.69912(17)
H1_4 H 0.6742 0.6340 0.6813
C2_4 C 0.3342(2) 0.8222(3) 0.42423(16)
C3_4 C 0.3915(2) 0.7479(3) 0.48577(17)
C4_4 C 0.4880(3) 0.6150(3) 0.60384(18)
C5_4 C 0.5239(3) 0.7367(3) 0.5802(2)
H2_4 H 0.5806 0.7750 0.6038
C6_4 C 0.4754(3) 0.8032(4) 0.5206(2)
H3_4 H 0.5001 0.8861 0.5042
C7_4 C 0.3581(3) 0.6242(3) 0.5099(2)
H4_4 H 0.3022 0.5846 0.4858
C8_4 C 0.4053(3) 0.5570(4) 0.5692(2)
H5_4 H 0.3813 0.4736 0.5853
N3_4 N 0.4869(3) 0.4510(4) 0.7072(2)
C9_4 C 0.5510(3) 0.4235(5) 0.7621(3)
H6_4 H 0.5375 0.3596 0.7996
N5_4 N 0.9632(2) 0.4522(3) 0.66693(15)
C10_4 C 0.8735(2) 0.4281(3) 0.69912(17)
H7_4 H 0.8258 0.3660 0.6813
C14_4 C 0.9761(3) 0.2633(3) 0.5802(2)
H8_4 H 0.9194 0.2250 0.6038
H9_4 H 0.9999 0.1139 0.5042
C18_4 C 0.9490(3) 0.5765(5) 0.7621(3)
H12_4 H 0.9625 0.6404 0.7996
H11_3 H 0.8813 0.0264 0.0853
N6_3 N 0.9869(3) 0.0490(4) 0.2072(2)
H11_4 H 0.1187 0.9736 0.9147
N6_4 N 0.0131(3) 0.9510(4) 0.7928(2)
loop_
_geom_bond_atom_site_label_1
_geom_bond_atom_site_label_2
_geom_bond_site_symmetry_1
_geom_bond_site_symmetry_2
N4 C10 1_555 1_555
N5 C10 1_555 1_555
C10 H7 1_555 1_555
H8 C14 1_555 1_555
C18 N4 1_555 1_555
H12 C18 1_555 1_555
Cu3 N4 1_555 1_555
Cu1 O1 1_555 1_555
O1 C2 1_555 1_555
N1 C1 1_555 1_555
N2 C1 1_555 1_555
O2 Cu1 1_555 1_555
C1 H1 1_555 1_555
C2 O2 1_555 1_555
C3 C2 1_555 1_555
C4 N2 1_555 1_555
C5 C4 1_555 1_555
H2 C5 1_555 1_555
C6 C3 1_555 1_555
H3 C6 1_555 1_555
C7 C3 1_555 1_555
H4 C7 1_555 1_555
C8 C4 1_555 1_555
H5 C8 1_555 1_555
N3 N2 1_555 1_555
C9 N1 1_555 1_555
H6 C9 1_555 1_555
Cu3 N1 1_555 1_555
N7 Cu1 1_555 1_555
C5 C6 1_555 1_555
C7 C8 1_555 1_555
N3 C9 1_555 1_555
C9_2 N7 1_555 1_555
H6_2 C9_2 1_555 1_555
N3_2 C9_2 1_555 1_555
Cu3 O1_2 1_555 1_555
O1_2 C2_2 1_555 1_555
O2_2 Cu3 1_555 1_555
C2_2 O2_2 1_555 1_555
C3_2 C2_2 1_555 1_555
O3 Cu3 1_555 1_555
O4 Cu3 1_555 1_555
C11 O3 1_555 1_555
C12 C11 1_555 1_555
O4 C11 1_555 1_555
N5_2 C10_2 1_555 1_555
C10_2 H7_2 1_555 1_555
H8_2 C14_2 1_555 1_555
O3_2 Cu1_2 1_555 1_555
O4_2 Cu1_2 1_555 1_555
C11_2 O3_2 1_555 1_555
C12_2 C11_2 1_555 1_555
C15 C12_2 1_555 1_555
C16 C12_2 1_555 1_555
H10_2 C16 1_555 1_555
C17 C13 1_555 1_555
H11 C17 1_555 1_555
N8 Cu1_2 1_555 1_555
O4_2 C11_2 1_555 1_555
C16 C17 1_555 1_555
N2_2 C1_2 1_555 1_555
C1_2 H1_2 1_555 1_555
C4_2 N2_2 1_555 1_555
C5_2 C4_2 1_555 1_555
H2_2 C5_2 1_555 1_555
H3_2 C6_2 1_555 1_555
C8_2 C4_2 1_555 1_555
C17_2 C13_2 1_555 1_555
C5_2 C6_2 1_555 1_555
C7_2 C8_2 1_555 1_555
C16_2 C17_2 1_555 1_555
C18_2 N8 1_555 1_555
H12_2 C18_2 1_555 1_555
C18_3 N4_2 1_555 1_555
H12_3 C18_3 1_555 1_555
Cu3_2 N4_2 1_555 1_555
N2_3 C1_3 1_555 1_555
C1_3 H1_3 1_555 1_555
C4_3 N2_3 1_555 1_555
C5_3 C4_3 1_555 1_555
H2_3 C5_3 1_555 1_555
H3_3 C6_3 1_555 1_555
C8_3 C4_3 1_555 1_555
C17_3 C13_3 1_555 1_555
C5_3 C6_3 1_555 1_555
C7_3 C8_3 1_555 1_555
C16_3 C17_3 1_555 1_555
O3_3 Cu3_2 1_555 1_555
O4_3 Cu3_2 1_555 1_555
C11_3 O3_3 1_555 1_555
C12_3 C11_3 1_555 1_555
C15_4 C12_3 1_555 1_555
C16_4 C12_3 1_555 1_555
H10_3 C16_4 1_555 1_555
C17_4 C13_4 1_555 1_555
H11_2 C17_4 1_555 1_555
O4_3 C11_3 1_555 1_555
C16_4 C17_4 1_555 1_555
N5_3 C10_3 1_555 1_555
C10_3 H7_3 1_555 1_555
H8_3 C14_3 1_555 1_555
Cu1_3 O1_3 1_555 1_555
O1_3 C2_3 1_555 1_555
O2_3 Cu1_3 1_555 1_555
C2_3 O2_3 1_555 1_555
C3_3 C2_3 1_555 1_555
O3_4 Cu1_3 1_555 1_555
O4_4 Cu1_3 1_555 1_555
C11_4 O3_4 1_555 1_555
C12_4 C11_4 1_555 1_555
N7_2 Cu1_3 1_555 1_555
N8_2 Cu1_3 1_555 1_555
O4_4 C11_4 1_555 1_555
C9_3 N1_2 1_555 1_555
H6_3 C9_3 1_555 1_555
Cu3_3 N1_2 1_555 1_555
N3_3 C9_3 1_555 1_555
Cu3_3 O1_4 1_555 1_555
O1_4 C2_4 1_555 1_555
N7_2 C1_4 1_555 1_555
N2_4 C1_4 1_555 1_555
O2_4 Cu3_3 1_555 1_555
C1_4 H1_4 1_555 1_555
C2_4 O2_4 1_555 1_555
C3_4 C2_4 1_555 1_555
C4_4 N2_4 1_555 1_555
C5_4 C4_4 1_555 1_555
H2_4 C5_4 1_555 1_555
C6_4 C3_4 1_555 1_555
H3_4 C6_4 1_555 1_555
C7_4 C3_4 1_555 1_555
H4_4 C7_4 1_555 1_555
C8_4 C4_4 1_555 1_555
H5_4 C8_4 1_555 1_555
N3_4 N2_4 1_555 1_555
C9_4 N7_2 1_555 1_555
H6_4 C9_4 1_555 1_555
C5_4 C6_4 1_555 1_555
C7_4 C8_4 1_555 1_555
N3_4 C9_4 1_555 1_555
N8_2 C10_4 1_555 1_555
N5_4 C10_4 1_555 1_555
C10_4 H7_4 1_555 1_555
H8_4 C14_4 1_555 1_555
C18_4 N8_2 1_555 1_555
H12_4 C18_4 1_555 1_555

#END
