
###############################################################################
#
# This file contains modified crystal structure data generated from the
# MOF subset of the Cambridge Structural Database (CSD) v543 
# hosted by the Cambridge Crystallographic Data Centre (CCDC).
#
# This work is licensed under the Creative Commons
# Attribution-NonCommercial-ShareAlike 4.0 International License.
# To view a copy of this license, visit
# http://creativecommons.org/licenses/by-nc-sa/4.0/
# or send a letter to
# Creative Commons, PO Box 1866, Mountain View, CA 94042, USA.
#
# CIF created using the CSD Python API on 29 September 2022
# The structure has been converted into the P1 space group
# The structure has a 3D framework
# The original CSD entry YUWGUV is in the monoclinic crystal system
# The framework has been calculated to contain at least 10.0% void space
# The void calculation uses a probe of radius 1.32A, grid spacing 0.4
# H atom positions have been added when not included in the experimental data
#
###############################################################################

data_YUWGUV
_chemical_formula_moiety         '(C264 H184 N8 Na10 O88 Zn8)n'
_symmetry_cell_setting           triclinic
_symmetry_space_group_name_H-M   'P 1'
_symmetry_Int_Tables_number      1
_space_group_name_Hall           'P 1'
loop_
_symmetry_equiv_pos_site_id
_symmetry_equiv_pos_as_xyz
1 x,y,z
_cell_length_a                   17.1793(16)
_cell_length_b                   21.2560(13)
_cell_length_c                   24.5546(16)
_cell_angle_alpha                90
_cell_angle_beta                 106.191(8)
_cell_angle_gamma                90
_cell_volume                     8610.81
loop_
_atom_site_label
_atom_site_type_symbol
_atom_site_fract_x
_atom_site_fract_y
_atom_site_fract_z
Na3 Na -0.000000 0.500000 0.500000
Na5 Na 0.000000 0.500000 0.000000
Na5_2 Na 0.000000 0.500000 1.000000
Zn1 Zn 0.35796(3) 0.13094(3) 0.08046(2)
Na2 Na 0.250000 0.250000 0.000000
O1 O 0.2944(3) 0.1564(2) 0.13073(17)
O2 O 0.2049(3) 0.2243(2) 0.07734(17)
O3 O 0.1279(5) 0.2089(2) 0.3531(3)
O4 O 0.1347(2) 0.54322(17) 0.39384(16)
O5 O 0.4580(2) 0.18073(17) 0.10919(15)
O6 O 0.3810(2) 0.25995(19) 0.06373(17)
O7 O 0.6852(3) 0.4671(2) 0.20711(17)
O8 O 0.9155(2) 0.4023(2) 0.48376(15)
O9 O 0.8021(2) 0.36477(17) 0.49923(14)
O11 O 0.0186(2) 0.51311(18) 0.40969(17)
C1 C 0.2387(3) 0.1973(3) 0.1235(2)
C2 C 0.2101(3) 0.2111(3) 0.1750(2)
C3 C 0.2383(3) 0.1769(3) 0.2234(2)
H1 H 0.274548 0.144189 0.224344
C4 C 0.2134(4) 0.1905(3) 0.2718(2)
H2 H 0.231602 0.165775 0.304049
C5 C 0.1624(4) 0.2400(3) 0.2718(2)
C6 C 0.1326(4) 0.2751(3) 0.2218(3)
H3 H 0.096764 0.308178 0.220956
C7 C 0.1561(4) 0.2608(3) 0.1740(3)
H4 H 0.136114 0.284181 0.140983
C8 C 0.1367(5) 0.2525(3) 0.3229(3)
C9 C 0.1201(4) 0.3177(3) 0.3385(2)
C10 C 0.1634(5) 0.3682(3) 0.3272(3)
H5 H 0.200442 0.362109 0.306373
C11 C 0.1525(4) 0.4289(3) 0.3466(3)
H6 H 0.182887 0.462485 0.339495
C12 C 0.0958(3) 0.4379(3) 0.3764(2)
C13 C 0.0535(4) 0.3874(3) 0.3881(2)
H7 H 0.016278 0.393451 0.408789
C14 C 0.0651(4) 0.3283(3) 0.3699(3)
H8 H 0.036005 0.294672 0.378598
C15 C 0.0805(3) 0.5028(2) 0.3946(2)
C16 C 0.4432(3) 0.2396(3) 0.0990(2)
C17 C 0.5051(3) 0.2850(3) 0.1326(2)
C18 C 0.4958(3) 0.3480(3) 0.1208(2)
H9 H 0.453116 0.361576 0.090757
C19 C 0.5481(3) 0.3911(3) 0.1525(2)
H10 H 0.540284 0.433763 0.144301
C20 C 0.6134(3) 0.3713(2) 0.1974(2)
C21 C 0.6244(3) 0.3077(3) 0.2088(2)
H11 H 0.667491 0.293785 0.238392
C22 C 0.5702(3) 0.2646(3) 0.1754(2)
H12 H 0.578310 0.221722 0.182265
C23 C 0.6712(3) 0.4190(3) 0.2301(2)
C24 C 0.7148(3) 0.4076(2) 0.29069(19)
C25 C 0.6793(3) 0.3743(3) 0.3268(2)
H13 H 0.628628 0.355697 0.312751
C26 C 0.7206(3) 0.3693(2) 0.3835(2)
H14 H 0.695862 0.348799 0.407727
C27 C 0.7976(3) 0.3939(2) 0.40556(19)
C28 C 0.8332(3) 0.4271(3) 0.3691(2)
H15 H 0.885050 0.443668 0.382849
C29 C 0.7909(3) 0.4348(3) 0.31302(19)
H16 H 0.813558 0.458684 0.289560
C30 C 0.8430(3) 0.3870(2) 0.4665(2)
Zn2 Zn 0.64204(3) 0.13094(3) 0.41954(2)
O12 O 0.7056(3) 0.1564(2) 0.36927(17)
O13 O 0.7951(3) 0.2243(2) 0.42266(17)
O14 O 0.8721(5) 0.2089(2) 0.1469(3)
O15 O 0.8653(2) 0.54322(17) 0.10616(16)
O16 O 0.5420(2) 0.18073(17) 0.39081(15)
O17 O 0.6190(2) 0.25995(19) 0.43627(17)
O18 O 0.3148(3) 0.4671(2) 0.29289(17)
O19 O 0.0845(2) 0.4023(2) 0.01624(15)
O20 O 0.1979(2) 0.36477(17) 0.00077(14)
O21 O 0.9814(2) 0.51311(18) 0.09031(17)
C34 C 0.7613(3) 0.1973(3) 0.3765(2)
C35 C 0.7899(3) 0.2111(3) 0.3250(2)
C36 C 0.7617(3) 0.1769(3) 0.2766(2)
H23 H 0.725452 0.144189 0.275656
C37 C 0.7866(4) 0.1905(3) 0.2282(2)
H24 H 0.768398 0.165775 0.195951
C38 C 0.8376(4) 0.2400(3) 0.2282(2)
C39 C 0.8674(4) 0.2751(3) 0.2782(3)
H25 H 0.903236 0.308178 0.279044
C40 C 0.8439(4) 0.2608(3) 0.3260(3)
H26 H 0.863886 0.284181 0.359017
C41 C 0.8633(5) 0.2525(3) 0.1771(3)
C42 C 0.8799(4) 0.3177(3) 0.1615(2)
C43 C 0.8366(5) 0.3682(3) 0.1728(3)
H27 H 0.799558 0.362109 0.193627
C44 C 0.8475(4) 0.4289(3) 0.1534(3)
H28 H 0.817113 0.462485 0.160505
C45 C 0.9042(3) 0.4379(3) 0.1236(2)
C46 C 0.9465(4) 0.3874(3) 0.1119(2)
H29 H 0.983722 0.393451 0.091211
C47 C 0.9349(4) 0.3283(3) 0.1301(3)
H30 H 0.963995 0.294672 0.121402
C48 C 0.9195(3) 0.5028(2) 0.1054(2)
C49 C 0.5568(3) 0.2396(3) 0.4010(2)
C50 C 0.4949(3) 0.2850(3) 0.3674(2)
C51 C 0.5042(3) 0.3480(3) 0.3792(2)
H31 H 0.546884 0.361576 0.409243
C52 C 0.4519(3) 0.3911(3) 0.3475(2)
H32 H 0.459716 0.433763 0.355699
C53 C 0.3866(3) 0.3713(2) 0.3026(2)
C54 C 0.3756(3) 0.3077(3) 0.2912(2)
H33 H 0.332509 0.293785 0.261608
C55 C 0.4298(3) 0.2646(3) 0.3246(2)
H34 H 0.421690 0.221722 0.317735
C56 C 0.3288(3) 0.4190(3) 0.2699(2)
C57 C 0.2852(3) 0.4076(2) 0.20931(19)
C58 C 0.3207(3) 0.3743(3) 0.1732(2)
H35 H 0.371372 0.355697 0.187249
C59 C 0.2794(3) 0.3693(2) 0.1165(2)
H36 H 0.304138 0.348799 0.092273
C60 C 0.2024(3) 0.3939(2) 0.09444(19)
C61 C 0.1668(3) 0.4271(3) 0.1309(2)
H37 H 0.114950 0.443668 0.117151
C62 C 0.2091(3) 0.4348(3) 0.18698(19)
H38 H 0.186442 0.458684 0.210440
C63 C 0.1570(3) 0.3870(2) 0.0335(2)
O22 O 0.1225(4) 0.4444(3) 0.5361(3)
N2 N 0.2609(6) 0.4532(5) 0.5638(6)
C64 C 0.1878(8) 0.4594(7) 0.5312(5)
C65 C 0.2810(18) 0.4388(9) 0.6264(8)
H39 H 0.338761 0.436362 0.641888
H40 H 0.257027 0.399358 0.631799
H41 H 0.260027 0.471571 0.645203
C66 C 0.3406(14) 0.476(2) 0.5595(11)
H42 H 0.382579 0.462555 0.591956
H43 H 0.339989 0.521511 0.558101
H44 H 0.350587 0.460026 0.525637
Zn3 Zn 0.85796(3) 0.63094(3) 0.08046(2)
Zn4 Zn 0.14204(3) 0.63094(3) 0.41954(2)
Zn6 Zn 0.85796(3) 0.36906(3) 0.58046(2)
Na3_2 Na 1.000000 0.500000 0.500000
Na5_3 Na 1.000000 0.500000 0.000000
Na6 Na 0.750000 0.250000 0.500000
O24 O 0.6347(2) 0.04322(17) 0.39384(16)
O25 O 0.3653(2) 0.04322(17) 0.10616(16)
O28 O 0.0845(2) 0.5977(2) 0.51624(15)
O29 O 0.6979(2) 0.13523(17) 0.50077(14)
H46 H 0.184718 0.482942 0.491263
Na2_2 Na 0.250000 0.250000 1.000000
Zn5 Zn 0.14204(3) 0.36906(3) 0.91954(2)
Na5_4 Na 1.000000 0.500000 1.000000
O23 O 0.2951(3) 0.2757(2) 0.92266(17)
O26 O 0.1190(2) 0.24005(19) 0.93627(17)
O30 O 0.3021(2) 0.13523(17) 0.99923(14)
O10 O 0.8775(4) 0.5556(3) 0.4639(3)
N1 N 0.7391(6) 0.5468(5) 0.4362(6)
C31 C 0.8122(8) 0.5406(7) 0.4688(5)
C32 C 0.7190(18) 0.5612(9) 0.3736(8)
H17 H 0.661239 0.563638 0.358112
H18 H 0.742973 0.600642 0.368201
H19 H 0.739973 0.528429 0.354797
C33 C 0.6594(14) 0.524(2) 0.4405(11)
H20 H 0.617421 0.537445 0.408044
H21 H 0.660011 0.478489 0.441899
H22 H 0.649413 0.539974 0.474363
O31 O 0.9814(2) 0.48689(18) 0.59031(17)
H45 H 0.815282 0.517058 0.508737
O10_2 O 0.1225(4) 0.5556(3) 0.0361(3)
N1_2 N 0.2609(6) 0.5468(5) 0.0638(6)
C31_2 C 0.1878(8) 0.5406(7) 0.0312(5)
C32_2 C 0.2810(18) 0.5612(9) 0.1264(8)
H17_2 H 0.338761 0.563638 0.141888
H18_2 H 0.257027 0.600642 0.131799
H19_2 H 0.260027 0.528429 0.145203
C33_2 C 0.3406(14) 0.524(2) 0.0595(11)
H20_2 H 0.382579 0.537445 0.091956
H21_2 H 0.339989 0.478489 0.058101
H22_2 H 0.350587 0.539974 0.025637
O31_2 O 0.0186(2) 0.48689(18) 0.90969(17)
H45_2 H 0.184718 0.517058 0.991263
O23_2 O 0.7049(3) 0.2757(2) 0.57734(17)
O26_2 O 0.8810(2) 0.24005(19) 0.56373(17)
H46_2 H 0.815282 0.482942 0.00873743
O22_2 O 0.8775(4) 0.4444(3) 0.9639(3)
N2_2 N 0.7391(6) 0.4532(5) 0.9362(6)
C64_2 C 0.8122(8) 0.4594(7) 0.9688(5)
C65_2 C 0.7190(18) 0.4388(9) 0.8736(8)
H39_2 H 0.661239 0.436362 0.858112
H40_2 H 0.742973 0.399358 0.868201
H41_2 H 0.739973 0.471571 0.854797
C66_2 C 0.6594(14) 0.476(2) 0.9405(11)
H42_2 H 0.617421 0.462555 0.908044
H43_2 H 0.660011 0.521511 0.941899
H44_2 H 0.649413 0.460026 0.974363
O28_2 O 0.9155(2) 0.5977(2) 0.98376(15)
O21_2 O 0.4814(2) 0.01311(18) 0.09031(17)
C48_2 C 0.4195(3) 0.0028(2) 0.1054(2)
Na3_3 Na 0.500000 0.000000 0.500000
Na5_5 Na 0.500000 0.000000 0.000000
Na5_6 Na 0.500000 -0.000000 1.000000
O7_2 O 0.1852(3) 0.9671(2) 0.20711(17)
O8_2 O 0.4155(2) 0.9023(2) 0.48376(15)
O9_2 O 0.3021(2) 0.86477(17) 0.49923(14)
C17_2 C 0.0051(3) 0.7850(3) 0.1326(2)
C19_2 C 0.0481(3) 0.8911(3) 0.1525(2)
H10_2 H 0.040284 0.933763 0.144301
C20_2 C 0.1134(3) 0.8713(2) 0.1974(2)
C21_2 C 0.1244(3) 0.8077(3) 0.2088(2)
H11_2 H 0.167491 0.793785 0.238392
C22_2 C 0.0702(3) 0.7646(3) 0.1754(2)
H12_2 H 0.078310 0.721722 0.182265
C23_2 C 0.1712(3) 0.9190(3) 0.2301(2)
C24_2 C 0.2148(3) 0.9076(2) 0.29069(19)
C25_2 C 0.1793(3) 0.8743(3) 0.3268(2)
H13_2 H 0.128628 0.855697 0.312751
C26_2 C 0.2206(3) 0.8693(2) 0.3835(2)
H14_2 H 0.195862 0.848799 0.407727
C27_2 C 0.2976(3) 0.8939(2) 0.40556(19)
C28_2 C 0.3332(3) 0.9271(3) 0.3691(2)
H15_2 H 0.385050 0.943668 0.382849
C29_2 C 0.2909(3) 0.9348(3) 0.31302(19)
H16_2 H 0.313558 0.958684 0.289560
C30_2 C 0.3430(3) 0.8870(2) 0.4665(2)
O12_2 O 0.2056(3) 0.6564(2) 0.36927(17)
O13_2 O 0.2951(3) 0.7243(2) 0.42266(17)
O14_2 O 0.3721(5) 0.7089(2) 0.1469(3)
O16_2 O 0.0420(2) 0.68073(17) 0.39081(15)
O17_2 O 0.1190(2) 0.75995(19) 0.43627(17)
C34_2 C 0.2613(3) 0.6973(3) 0.3765(2)
C35_2 C 0.2899(3) 0.7111(3) 0.3250(2)
C36_2 C 0.2617(3) 0.6769(3) 0.2766(2)
H23_2 H 0.225452 0.644189 0.275656
C37_2 C 0.2866(4) 0.6905(3) 0.2282(2)
H24_2 H 0.268398 0.665775 0.195951
C38_2 C 0.3376(4) 0.7400(3) 0.2282(2)
C39_2 C 0.3674(4) 0.7751(3) 0.2782(3)
H25_2 H 0.403236 0.808178 0.279044
C40_2 C 0.3439(4) 0.7608(3) 0.3260(3)
H26_2 H 0.363886 0.784181 0.359017
C41_2 C 0.3633(5) 0.7525(3) 0.1771(3)
C42_2 C 0.3799(4) 0.8177(3) 0.1615(2)
C43_2 C 0.3366(5) 0.8682(3) 0.1728(3)
H27_2 H 0.299558 0.862109 0.193627
C44_2 C 0.3475(4) 0.9289(3) 0.1534(3)
H28_2 H 0.317113 0.962485 0.160505
C45_2 C 0.4042(3) 0.9379(3) 0.1236(2)
C46_2 C 0.4465(4) 0.8874(3) 0.1119(2)
H29_2 H 0.483722 0.893451 0.091211
C47_2 C 0.4349(4) 0.8283(3) 0.1301(3)
H30_2 H 0.463995 0.794672 0.121402
C49_2 C 0.0568(3) 0.7396(3) 0.4010(2)
C51_2 C 0.0042(3) 0.8480(3) 0.3792(2)
H31_2 H 0.046884 0.861576 0.409243
Zn6_2 Zn 0.35796(3) 0.86906(3) 0.58046(2)
Na3_4 Na 0.500000 1.000000 0.500000
Na5_7 Na 0.500000 1.000000 0.000000
Na6_2 Na 0.250000 0.750000 0.500000
O29_2 O 0.1979(2) 0.63523(17) 0.50077(14)
Na5_8 Na 0.500000 1.000000 1.000000
O10_3 O 0.3775(4) 0.0556(3) 0.4639(3)
O11_2 O 0.5186(2) 0.01311(18) 0.40969(17)
N1_3 N 0.2391(6) 0.0468(5) 0.4362(6)
C15_2 C 0.5805(3) 0.0028(2) 0.3946(2)
C31_3 C 0.3122(8) 0.0406(7) 0.4688(5)
C32_3 C 0.2190(18) 0.0612(9) 0.3736(8)
H17_3 H 0.161239 0.063638 0.358112
H18_3 H 0.242973 0.100642 0.368201
H19_3 H 0.239973 0.028429 0.354797
C33_3 C 0.1594(14) 0.024(2) 0.4405(11)
H20_3 H 0.117421 0.037445 0.408044
H22_3 H 0.149413 0.039974 0.474363
H43_3 H 0.839989 0.021511 0.558101
O28_3 O 0.5845(2) 0.0977(2) 0.51624(15)
H45_3 H 0.315282 0.0170584 0.508737
Na2_3 Na 0.750000 0.750000 0.000000
O1_2 O 0.7944(3) 0.6564(2) 0.13073(17)
O2_2 O 0.7049(3) 0.7243(2) 0.07734(17)
O3_2 O 0.6279(5) 0.7089(2) 0.3531(3)
O5_2 O 0.9580(2) 0.68073(17) 0.10919(15)
O6_2 O 0.8810(2) 0.75995(19) 0.06373(17)
C1_2 C 0.7387(3) 0.6973(3) 0.1235(2)
C2_2 C 0.7101(3) 0.7111(3) 0.1750(2)
C3_2 C 0.7383(3) 0.6769(3) 0.2234(2)
H1_2 H 0.774548 0.644189 0.224344
C4_2 C 0.7134(4) 0.6905(3) 0.2718(2)
H2_2 H 0.731602 0.665775 0.304049
C5_2 C 0.6624(4) 0.7400(3) 0.2718(2)
C6_2 C 0.6326(4) 0.7751(3) 0.2218(3)
H3_2 H 0.596764 0.808178 0.220956
C7_2 C 0.6561(4) 0.7608(3) 0.1740(3)
H4_2 H 0.636114 0.784181 0.140983
C8_2 C 0.6367(5) 0.7525(3) 0.3229(3)
C9_2 C 0.6201(4) 0.8177(3) 0.3385(2)
C10_2 C 0.6634(5) 0.8682(3) 0.3272(3)
H5_2 H 0.700442 0.862109 0.306373
C11_2 C 0.6525(4) 0.9289(3) 0.3466(3)
H6_2 H 0.682887 0.962485 0.339495
C12_2 C 0.5958(3) 0.9379(3) 0.3764(2)
C13_2 C 0.5535(4) 0.8874(3) 0.3881(2)
H7_2 H 0.516278 0.893451 0.408789
C14_2 C 0.5651(4) 0.8283(3) 0.3699(3)
H8_2 H 0.536005 0.794672 0.378598
C16_2 C 0.9432(3) 0.7396(3) 0.0990(2)
C18_2 C 0.9958(3) 0.8480(3) 0.1208(2)
H9_2 H 0.953116 0.861576 0.090757
H21_3 H 0.160011 0.978489 0.441899
O18_2 O 0.8148(3) 0.9671(2) 0.29289(17)
O19_2 O 0.5845(2) 0.9023(2) 0.01624(15)
O20_2 O 0.6979(2) 0.86477(17) 0.00077(14)
C50_2 C 0.9949(3) 0.7850(3) 0.3674(2)
C52_2 C 0.9519(3) 0.8911(3) 0.3475(2)
H32_2 H 0.959716 0.933763 0.355699
C53_2 C 0.8866(3) 0.8713(2) 0.3026(2)
C54_2 C 0.8756(3) 0.8077(3) 0.2912(2)
H33_2 H 0.832509 0.793785 0.261608
C55_2 C 0.9298(3) 0.7646(3) 0.3246(2)
H34_2 H 0.921690 0.721722 0.317735
C56_2 C 0.8288(3) 0.9190(3) 0.2699(2)
C57_2 C 0.7852(3) 0.9076(2) 0.20931(19)
C58_2 C 0.8207(3) 0.8743(3) 0.1732(2)
H35_2 H 0.871372 0.855697 0.187249
C59_2 C 0.7794(3) 0.8693(2) 0.1165(2)
H36_2 H 0.804138 0.848799 0.092273
C60_2 C 0.7024(3) 0.8939(2) 0.09444(19)
C61_2 C 0.6668(3) 0.9271(3) 0.1309(2)
H37_2 H 0.614950 0.943668 0.117151
C62_2 C 0.7091(3) 0.9348(3) 0.18698(19)
H38_2 H 0.686442 0.958684 0.210440
C63_2 C 0.6570(3) 0.8870(2) 0.0335(2)
O22_3 O 0.6225(4) 0.9444(3) 0.5361(3)
N2_3 N 0.7609(6) 0.9532(5) 0.5638(6)
C64_3 C 0.6878(8) 0.9594(7) 0.5312(5)
C65_3 C 0.7810(18) 0.9388(9) 0.6264(8)
H39_3 H 0.838761 0.936362 0.641888
H40_3 H 0.757027 0.899358 0.631799
H41_3 H 0.760027 0.971571 0.645203
C66_3 C 0.8406(14) 0.976(2) 0.5595(11)
H42_3 H 0.882579 0.962555 0.591956
H44_3 H 0.850587 0.960026 0.525637
O31_3 O 0.4814(2) 0.98689(18) 0.59031(17)
H46_3 H 0.684718 0.982942 0.491263
Na2_4 Na 0.750000 0.750000 1.000000
Zn5_2 Zn 0.64204(3) 0.86906(3) 0.91954(2)
O23_3 O 0.7951(3) 0.7757(2) 0.92266(17)
O26_3 O 0.6190(2) 0.74005(19) 0.93627(17)
O30_2 O 0.8021(2) 0.63523(17) 0.99923(14)
O10_4 O 0.6225(4) 0.0556(3) 0.0361(3)
N1_4 N 0.7609(6) 0.0468(5) 0.0638(6)
C31_4 C 0.6878(8) 0.0406(7) 0.0312(5)
C32_4 C 0.7810(18) 0.0612(9) 0.1264(8)
H17_4 H 0.838761 0.063638 0.141888
H18_4 H 0.757027 0.100642 0.131799
H19_4 H 0.760027 0.028429 0.145203
C33_4 C 0.8406(14) 0.024(2) 0.0595(11)
H20_4 H 0.882579 0.037445 0.091956
H22_4 H 0.850587 0.039974 0.025637
H43_4 H 0.160011 0.021511 0.941899
O28_4 O 0.4155(2) 0.0977(2) 0.98376(15)
H45_4 H 0.684718 0.0170584 0.991263
H21_4 H 0.839989 0.978489 0.058101
O23_4 O 0.2049(3) 0.7757(2) 0.57734(17)
O26_4 O 0.3810(2) 0.74005(19) 0.56373(17)
H46_4 H 0.315282 0.982942 0.00873743
O22_4 O 0.3775(4) 0.9444(3) 0.9639(3)
N2_4 N 0.2391(6) 0.9532(5) 0.9362(6)
C64_4 C 0.3122(8) 0.9594(7) 0.9688(5)
C65_4 C 0.2190(18) 0.9388(9) 0.8736(8)
H39_4 H 0.161239 0.936362 0.858112
H40_4 H 0.242973 0.899358 0.868201
H41_4 H 0.239973 0.971571 0.854797
C66_4 C 0.1594(14) 0.976(2) 0.9405(11)
H42_4 H 0.117421 0.962555 0.908044
H44_4 H 0.149413 0.960026 0.974363
O31_4 O 0.5186(2) 0.98689(18) 0.90969(17)
O1_3 O 0.7056(3) 0.8436(2) 0.86927(17)
O3_3 O 0.8721(5) 0.7911(2) 0.6469(3)
O4_2 O 0.8653(2) 0.45678(17) 0.60616(16)
O5_3 O 0.5420(2) 0.81927(17) 0.89081(15)
O7_3 O 0.3148(3) 0.5329(2) 0.79289(17)
C1_3 C 0.7613(3) 0.8027(3) 0.8765(2)
C2_3 C 0.7899(3) 0.7889(3) 0.8250(2)
C3_3 C 0.7617(3) 0.8231(3) 0.7766(2)
H1_3 H 0.725452 0.855811 0.775656
C4_3 C 0.7866(4) 0.8095(3) 0.7282(2)
H2_3 H 0.768398 0.834225 0.695951
C5_3 C 0.8376(4) 0.7600(3) 0.7282(2)
C6_3 C 0.8674(4) 0.7249(3) 0.7782(3)
H3_3 H 0.903236 0.691822 0.779044
C7_3 C 0.8439(4) 0.7392(3) 0.8260(3)
H4_3 H 0.863886 0.715819 0.859017
C8_3 C 0.8633(5) 0.7475(3) 0.6771(3)
C9_3 C 0.8799(4) 0.6823(3) 0.6615(2)
C10_3 C 0.8366(5) 0.6318(3) 0.6728(3)
H5_3 H 0.799558 0.637891 0.693627
C11_3 C 0.8475(4) 0.5711(3) 0.6534(3)
H6_3 H 0.817113 0.537515 0.660505
C12_3 C 0.9042(3) 0.5621(3) 0.6236(2)
C13_3 C 0.9465(4) 0.6126(3) 0.6119(2)
H7_3 H 0.983722 0.606549 0.591211
C14_3 C 0.9349(4) 0.6717(3) 0.6301(3)
H8_3 H 0.963995 0.705328 0.621402
C15_3 C 0.9195(3) 0.4972(2) 0.6054(2)
C16_3 C 0.5568(3) 0.7604(3) 0.9010(2)
C17_3 C 0.4949(3) 0.7150(3) 0.8674(2)
C18_3 C 0.5042(3) 0.6520(3) 0.8792(2)
H9_3 H 0.546884 0.638424 0.909243
C19_3 C 0.4519(3) 0.6089(3) 0.8475(2)
H10_3 H 0.459716 0.566237 0.855699
C20_3 C 0.3866(3) 0.6287(2) 0.8026(2)
C21_3 C 0.3756(3) 0.6923(3) 0.7912(2)
H11_3 H 0.332509 0.706215 0.761608
C22_3 C 0.4298(3) 0.7354(3) 0.8246(2)
H12_3 H 0.421690 0.778278 0.817735
C23_3 C 0.3288(3) 0.5810(3) 0.7699(2)
C24_3 C 0.2852(3) 0.5924(2) 0.70931(19)
C25_3 C 0.3207(3) 0.6257(3) 0.6732(2)
H13_3 H 0.371372 0.644303 0.687249
C26_3 C 0.2794(3) 0.6307(2) 0.6165(2)
H14_3 H 0.304138 0.651201 0.592273
C27_3 C 0.2024(3) 0.6061(2) 0.59444(19)
C28_3 C 0.1668(3) 0.5729(3) 0.6309(2)
H15_3 H 0.114950 0.556332 0.617151
C29_3 C 0.2091(3) 0.5652(3) 0.68698(19)
H16_3 H 0.186442 0.541316 0.710440
C30_3 C 0.1570(3) 0.6130(2) 0.5335(2)
O12_3 O 0.2944(3) 0.8436(2) 0.63073(17)
O14_3 O 0.1279(5) 0.7911(2) 0.8531(3)
O15_2 O 0.1347(2) 0.45678(17) 0.89384(16)
O16_3 O 0.4580(2) 0.81927(17) 0.60919(15)
O18_3 O 0.6852(3) 0.5329(2) 0.70711(17)
C34_3 C 0.2387(3) 0.8027(3) 0.6235(2)
C35_3 C 0.2101(3) 0.7889(3) 0.6750(2)
C36_3 C 0.2383(3) 0.8231(3) 0.7234(2)
H23_3 H 0.274548 0.855811 0.724344
C37_3 C 0.2134(4) 0.8095(3) 0.7718(2)
H24_3 H 0.231602 0.834225 0.804049
C38_3 C 0.1624(4) 0.7600(3) 0.7718(2)
C39_3 C 0.1326(4) 0.7249(3) 0.7218(3)
H25_3 H 0.096764 0.691822 0.720956
C40_3 C 0.1561(4) 0.7392(3) 0.6740(3)
H26_3 H 0.136114 0.715819 0.640983
C41_3 C 0.1367(5) 0.7475(3) 0.8229(3)
C42_3 C 0.1201(4) 0.6823(3) 0.8385(2)
C43_3 C 0.1634(5) 0.6318(3) 0.8272(3)
H27_3 H 0.200442 0.637891 0.806373
C44_3 C 0.1525(4) 0.5711(3) 0.8466(3)
H28_3 H 0.182887 0.537515 0.839495
C45_3 C 0.0958(3) 0.5621(3) 0.8764(2)
C46_3 C 0.0535(4) 0.6126(3) 0.8881(2)
H29_3 H 0.016278 0.606549 0.908789
C47_3 C 0.0651(4) 0.6717(3) 0.8699(3)
H30_3 H 0.036005 0.705328 0.878598
C48_3 C 0.0805(3) 0.4972(2) 0.8946(2)
C49_3 C 0.4432(3) 0.7604(3) 0.5990(2)
C50_3 C 0.5051(3) 0.7150(3) 0.6326(2)
C51_3 C 0.4958(3) 0.6520(3) 0.6208(2)
H31_3 H 0.453116 0.638424 0.590757
C52_3 C 0.5481(3) 0.6089(3) 0.6525(2)
H32_3 H 0.540284 0.566237 0.644301
C53_3 C 0.6134(3) 0.6287(2) 0.6974(2)
C54_3 C 0.6244(3) 0.6923(3) 0.7088(2)
H33_3 H 0.667491 0.706215 0.738392
C55_3 C 0.5702(3) 0.7354(3) 0.6754(2)
H34_3 H 0.578310 0.778278 0.682265
C56_3 C 0.6712(3) 0.5810(3) 0.7301(2)
C57_3 C 0.7148(3) 0.5924(2) 0.79069(19)
C58_3 C 0.6793(3) 0.6257(3) 0.8268(2)
H35_3 H 0.628628 0.644303 0.812751
C59_3 C 0.7206(3) 0.6307(2) 0.8835(2)
H36_3 H 0.695862 0.651201 0.907727
C60_3 C 0.7976(3) 0.6061(2) 0.90556(19)
C61_3 C 0.8332(3) 0.5729(3) 0.8691(2)
H37_3 H 0.885050 0.556332 0.882849
C62_3 C 0.7909(3) 0.5652(3) 0.81302(19)
H38_3 H 0.813558 0.541316 0.789560
C63_3 C 0.8430(3) 0.6130(2) 0.9665(2)
O24_2 O 0.3653(2) 0.95678(17) 0.60616(16)
O25_2 O 0.6347(2) 0.95678(17) 0.89384(16)
O1_4 O 0.2056(3) 0.3436(2) 0.86927(17)
O3_4 O 0.3721(5) 0.2911(2) 0.6469(3)
O5_4 O 0.0420(2) 0.31927(17) 0.89081(15)
C1_4 C 0.2613(3) 0.3027(3) 0.8765(2)
C2_4 C 0.2899(3) 0.2889(3) 0.8250(2)
C3_4 C 0.2617(3) 0.3231(3) 0.7766(2)
H1_4 H 0.225452 0.355811 0.775656
C4_4 C 0.2866(4) 0.3095(3) 0.7282(2)
H2_4 H 0.268398 0.334225 0.695951
C5_4 C 0.3376(4) 0.2600(3) 0.7282(2)
C6_4 C 0.3674(4) 0.2249(3) 0.7782(3)
H3_4 H 0.403236 0.191822 0.779044
C7_4 C 0.3439(4) 0.2392(3) 0.8260(3)
H4_4 H 0.363886 0.215819 0.859017
C8_4 C 0.3633(5) 0.2475(3) 0.6771(3)
C9_4 C 0.3799(4) 0.1823(3) 0.6615(2)
C10_4 C 0.3366(5) 0.1318(3) 0.6728(3)
H5_4 H 0.299558 0.137891 0.693627
C11_4 C 0.3475(4) 0.0711(3) 0.6534(3)
H6_4 H 0.317113 0.037515 0.660505
C12_4 C 0.4042(3) 0.0621(3) 0.6236(2)
C13_4 C 0.4465(4) 0.1126(3) 0.6119(2)
H7_4 H 0.483722 0.106549 0.591211
C14_4 C 0.4349(4) 0.1717(3) 0.6301(3)
H8_4 H 0.463995 0.205328 0.621402
C16_4 C 0.0568(3) 0.2604(3) 0.9010(2)
C18_4 C 0.0042(3) 0.1520(3) 0.8792(2)
H9_4 H 0.046884 0.138424 0.909243
O18_4 O 0.1852(3) 0.0329(2) 0.70711(17)
C50_4 C 0.0051(3) 0.2150(3) 0.6326(2)
C52_4 C 0.0481(3) 0.1089(3) 0.6525(2)
H32_4 H 0.040284 0.066237 0.644301
C53_4 C 0.1134(3) 0.1287(2) 0.6974(2)
C54_4 C 0.1244(3) 0.1923(3) 0.7088(2)
H33_4 H 0.167491 0.206215 0.738392
C55_4 C 0.0702(3) 0.2354(3) 0.6754(2)
H34_4 H 0.078310 0.278278 0.682265
C56_4 C 0.1712(3) 0.0810(3) 0.7301(2)
C57_4 C 0.2148(3) 0.0924(2) 0.79069(19)
C58_4 C 0.1793(3) 0.1257(3) 0.8268(2)
H35_4 H 0.128628 0.144303 0.812751
C59_4 C 0.2206(3) 0.1307(2) 0.8835(2)
H36_4 H 0.195862 0.151201 0.907727
C60_4 C 0.2976(3) 0.1061(2) 0.90556(19)
C61_4 C 0.3332(3) 0.0729(3) 0.8691(2)
H37_4 H 0.385050 0.056332 0.882849
C62_4 C 0.2909(3) 0.0652(3) 0.81302(19)
H38_4 H 0.313558 0.041316 0.789560
C63_4 C 0.3430(3) 0.1130(2) 0.9665(2)
C15_4 C 0.4195(3) 0.9972(2) 0.6054(2)
O7_4 O 0.8148(3) 0.0329(2) 0.79289(17)
C17_4 C 0.9949(3) 0.2150(3) 0.8674(2)
C19_4 C 0.9519(3) 0.1089(3) 0.8475(2)
H10_4 H 0.959716 0.066237 0.855699
C20_4 C 0.8866(3) 0.1287(2) 0.8026(2)
C21_4 C 0.8756(3) 0.1923(3) 0.7912(2)
H11_4 H 0.832509 0.206215 0.761608
C22_4 C 0.9298(3) 0.2354(3) 0.8246(2)
H12_4 H 0.921690 0.278278 0.817735
C23_4 C 0.8288(3) 0.0810(3) 0.7699(2)
C24_4 C 0.7852(3) 0.0924(2) 0.70931(19)
C25_4 C 0.8207(3) 0.1257(3) 0.6732(2)
H13_4 H 0.871372 0.144303 0.687249
C26_4 C 0.7794(3) 0.1307(2) 0.6165(2)
H14_4 H 0.804138 0.151201 0.592273
C27_4 C 0.7024(3) 0.1061(2) 0.59444(19)
C28_4 C 0.6668(3) 0.0729(3) 0.6309(2)
H15_4 H 0.614950 0.056332 0.617151
C29_4 C 0.7091(3) 0.0652(3) 0.68698(19)
H16_4 H 0.686442 0.041316 0.710440
C30_4 C 0.6570(3) 0.1130(2) 0.5335(2)
O12_4 O 0.7944(3) 0.3436(2) 0.63073(17)
O14_4 O 0.6279(5) 0.2911(2) 0.8531(3)
O16_4 O 0.9580(2) 0.31927(17) 0.60919(15)
C34_4 C 0.7387(3) 0.3027(3) 0.6235(2)
C35_4 C 0.7101(3) 0.2889(3) 0.6750(2)
C36_4 C 0.7383(3) 0.3231(3) 0.7234(2)
H23_4 H 0.774548 0.355811 0.724344
C37_4 C 0.7134(4) 0.3095(3) 0.7718(2)
H24_4 H 0.731602 0.334225 0.804049
C38_4 C 0.6624(4) 0.2600(3) 0.7718(2)
C39_4 C 0.6326(4) 0.2249(3) 0.7218(3)
H25_4 H 0.596764 0.191822 0.720956
C40_4 C 0.6561(4) 0.2392(3) 0.6740(3)
H26_4 H 0.636114 0.215819 0.640983
C41_4 C 0.6367(5) 0.2475(3) 0.8229(3)
C42_4 C 0.6201(4) 0.1823(3) 0.8385(2)
C43_4 C 0.6634(5) 0.1318(3) 0.8272(3)
H27_4 H 0.700442 0.137891 0.806373
C44_4 C 0.6525(4) 0.0711(3) 0.8466(3)
H28_4 H 0.682887 0.037515 0.839495
C45_4 C 0.5958(3) 0.0621(3) 0.8764(2)
C46_4 C 0.5535(4) 0.1126(3) 0.8881(2)
H29_4 H 0.516278 0.106549 0.908789
C47_4 C 0.5651(4) 0.1717(3) 0.8699(3)
H30_4 H 0.536005 0.205328 0.878598
C49_4 C 0.9432(3) 0.2604(3) 0.5990(2)
C51_4 C 0.9958(3) 0.1520(3) 0.6208(2)
H31_4 H 0.953116 0.138424 0.590757
C48_4 C 0.5805(3) 0.9972(2) 0.8946(2)
loop_
_geom_bond_atom_site_label_1
_geom_bond_atom_site_label_2
_geom_bond_site_symmetry_1
_geom_bond_site_symmetry_2
Zn1 O1 1_555 1_555
Na2 O2 1_555 1_555
O1 C1 1_555 1_555
O2 C1 1_555 1_555
O3 C8 1_555 1_555
O4 C15 1_555 1_555
O5 Zn1 1_555 1_555
O6 Na2 1_555 1_555
O7 C23 1_555 1_555
O8 C30 1_555 1_555
O9 C30 1_555 1_555
O11 Na3 1_555 1_555
C1 C2 1_555 1_555
C2 C3 1_555 1_555
C3 H1 1_555 1_555
C4 C3 1_555 1_555
H2 C4 1_555 1_555
C5 C4 1_555 1_555
C6 C5 1_555 1_555
H3 C6 1_555 1_555
C7 C2 1_555 1_555
H4 C7 1_555 1_555
C8 C5 1_555 1_555
C9 C8 1_555 1_555
C10 C9 1_555 1_555
H5 C10 1_555 1_555
C11 C10 1_555 1_555
H6 C11 1_555 1_555
C12 C11 1_555 1_555
C13 C12 1_555 1_555
H7 C13 1_555 1_555
C14 C9 1_555 1_555
H8 C14 1_555 1_555
C15 O11 1_555 1_555
C16 O5 1_555 1_555
C17 C16 1_555 1_555
C18 C17 1_555 1_555
H9 C18 1_555 1_555
C19 C18 1_555 1_555
H10 C19 1_555 1_555
C20 C19 1_555 1_555
C21 C20 1_555 1_555
H11 C21 1_555 1_555
C22 C17 1_555 1_555
H12 C22 1_555 1_555
C23 C20 1_555 1_555
C24 C23 1_555 1_555
C25 C24 1_555 1_555
H13 C25 1_555 1_555
C26 C25 1_555 1_555
H14 C26 1_555 1_555
C27 C26 1_555 1_555
C28 C27 1_555 1_555
H15 C28 1_555 1_555
C29 C24 1_555 1_555
H16 C29 1_555 1_555
C30 C27 1_555 1_555
Zn2 O12 1_555 1_555
O12 C34 1_555 1_555
O13 C34 1_555 1_555
O14 C41 1_555 1_555
O15 C48 1_555 1_555
O16 Zn2 1_555 1_555
O17 C49 1_555 1_555
O18 C56 1_555 1_555
O19 C63 1_555 1_555
O20 Na2 1_555 1_555
O21 C48 1_555 1_555
C34 C35 1_555 1_555
C35 C36 1_555 1_555
C36 H23 1_555 1_555
C37 C36 1_555 1_555
H24 C37 1_555 1_555
C38 C37 1_555 1_555
C39 C38 1_555 1_555
H25 C39 1_555 1_555
C40 C35 1_555 1_555
H26 C40 1_555 1_555
C41 C38 1_555 1_555
C42 C41 1_555 1_555
C43 C42 1_555 1_555
H27 C43 1_555 1_555
C44 C43 1_555 1_555
H28 C44 1_555 1_555
C45 C44 1_555 1_555
C46 C45 1_555 1_555
H29 C46 1_555 1_555
C47 C42 1_555 1_555
H30 C47 1_555 1_555
C48 C45 1_555 1_555
C49 O16 1_555 1_555
C50 C49 1_555 1_555
C51 C50 1_555 1_555
H31 C51 1_555 1_555
C52 C51 1_555 1_555
H32 C52 1_555 1_555
C53 C52 1_555 1_555
C54 C53 1_555 1_555
H33 C54 1_555 1_555
C55 C50 1_555 1_555
H34 C55 1_555 1_555
C56 C53 1_555 1_555
C57 C56 1_555 1_555
C58 C57 1_555 1_555
H35 C58 1_555 1_555
C59 C58 1_555 1_555
H36 C59 1_555 1_555
C60 C59 1_555 1_555
C61 C60 1_555 1_555
H37 C61 1_555 1_555
C62 C57 1_555 1_555
H38 C62 1_555 1_555
C63 O20 1_555 1_555
O22 Na3 1_555 1_555
N2 C64 1_555 1_555
C64 O22 1_555 1_555
C65 N2 1_555 1_555
H39 C65 1_555 1_555
H40 C65 1_555 1_555
H41 C65 1_555 1_555
C66 N2 1_555 1_555
H42 C66 1_555 1_555
H43 C66 1_555 1_555
H44 C66 1_555 1_555
Zn3 O15 1_555 1_555
Zn4 O4 1_555 1_555
Zn6 O9 1_555 1_555
Na3_2 O8 1_555 1_555
Na5 O19 1_555 1_555
Na5_3 O21 1_555 1_555
Na6 O9 1_555 1_555
O24 Zn2 1_555 1_555
O25 Zn1 1_555 1_555
O28 Na3 1_555 1_555
O29 Zn2 1_555 1_555
O6 C16 1_555 1_555
C6 C7 1_555 1_555
C12 C15 1_555 1_555
C13 C14 1_555 1_555
C21 C22 1_555 1_555
C28 C29 1_555 1_555
O13 Na6 1_555 1_555
O17 Na6 1_555 1_555
C39 C40 1_555 1_555
C46 C47 1_555 1_555
C54 C55 1_555 1_555
C60 C63 1_555 1_555
C61 C62 1_555 1_555
Na6 O29 1_555 1_555
C64 H46 1_555 1_555
O23 Na2_2 1_555 1_555
O26 Na2_2 1_555 1_555
Na2_2 O30 1_555 1_555
Na3_2 O10 1_555 1_555
O10 C31 1_555 1_555
N1 C31 1_555 1_555
C32 N1 1_555 1_555
H17 C32 1_555 1_555
H18 C32 1_555 1_555
H19 C32 1_555 1_555
C33 N1 1_555 1_555
H20 C33 1_555 1_555
H21 C33 1_555 1_555
H22 C33 1_555 1_555
O31 Na3_2 1_555 1_555
C31 H45 1_555 1_555
Na5 O10_2 1_555 1_555
O10_2 C31_2 1_555 1_555
N1_2 C31_2 1_555 1_555
C32_2 N1_2 1_555 1_555
H17_2 C32_2 1_555 1_555
H18_2 C32_2 1_555 1_555
H19_2 C32_2 1_555 1_555
C33_2 N1_2 1_555 1_555
H20_2 C33_2 1_555 1_555
H21_2 C33_2 1_555 1_555
H22_2 C33_2 1_555 1_555
O31_2 Na5_2 1_555 1_555
O23_2 Na6 1_555 1_555
O26_2 Na6 1_555 1_555
O22_2 Na5_4 1_555 1_555
N2_2 C64_2 1_555 1_555
C64_2 O22_2 1_555 1_555
C65_2 N2_2 1_555 1_555
H39_2 C65_2 1_555 1_555
H40_2 C65_2 1_555 1_555
H41_2 C65_2 1_555 1_555
C66_2 N2_2 1_555 1_555
H42_2 C66_2 1_555 1_555
H43_2 C66_2 1_555 1_555
H44_2 C66_2 1_555 1_555
O28_2 Na5_4 1_555 1_555
O25 C48_2 1_555 1_555
O21_2 C48_2 1_555 1_555
Na5_5 O21_2 1_555 1_555
O7_2 C23_2 1_555 1_555
O8_2 C30_2 1_555 1_555
O9_2 C30_2 1_555 1_555
H10_2 C19_2 1_555 1_555
C20_2 C19_2 1_555 1_555
C21_2 C20_2 1_555 1_555
H11_2 C21_2 1_555 1_555
C22_2 C17_2 1_555 1_555
H12_2 C22_2 1_555 1_555
C23_2 C20_2 1_555 1_555
C24_2 C23_2 1_555 1_555
C25_2 C24_2 1_555 1_555
H13_2 C25_2 1_555 1_555
C26_2 C25_2 1_555 1_555
H14_2 C26_2 1_555 1_555
C27_2 C26_2 1_555 1_555
C28_2 C27_2 1_555 1_555
H15_2 C28_2 1_555 1_555
C29_2 C24_2 1_555 1_555
H16_2 C29_2 1_555 1_555
C30_2 C27_2 1_555 1_555
Zn4 O12_2 1_555 1_555
O12_2 C34_2 1_555 1_555
O13_2 C34_2 1_555 1_555
O14_2 C41_2 1_555 1_555
O16_2 Zn4 1_555 1_555
O17_2 C49_2 1_555 1_555
C34_2 C35_2 1_555 1_555
C35_2 C36_2 1_555 1_555
C36_2 H23_2 1_555 1_555
C37_2 C36_2 1_555 1_555
H24_2 C37_2 1_555 1_555
C38_2 C37_2 1_555 1_555
C39_2 C38_2 1_555 1_555
H25_2 C39_2 1_555 1_555
C40_2 C35_2 1_555 1_555
H26_2 C40_2 1_555 1_555
C41_2 C38_2 1_555 1_555
C42_2 C41_2 1_555 1_555
C43_2 C42_2 1_555 1_555
H27_2 C43_2 1_555 1_555
C44_2 C43_2 1_555 1_555
H28_2 C44_2 1_555 1_555
C45_2 C44_2 1_555 1_555
C46_2 C45_2 1_555 1_555
H29_2 C46_2 1_555 1_555
C47_2 C42_2 1_555 1_555
H30_2 C47_2 1_555 1_555
C49_2 O16_2 1_555 1_555
H31_2 C51_2 1_555 1_555
Zn6_2 O9_2 1_555 1_555
Na3_4 O8_2 1_555 1_555
Na6_2 O9_2 1_555 1_555
O29_2 Zn4 1_555 1_555
C21_2 C22_2 1_555 1_555
C28_2 C29_2 1_555 1_555
O13_2 Na6_2 1_555 1_555
O17_2 Na6_2 1_555 1_555
C39_2 C40_2 1_555 1_555
C46_2 C47_2 1_555 1_555
Na6_2 O29_2 1_555 1_555
Na3_3 O10_3 1_555 1_555
O24 C15_2 1_555 1_555
O10_3 C31_3 1_555 1_555
O11_2 Na3_3 1_555 1_555
N1_3 C31_3 1_555 1_555
C15_2 O11_2 1_555 1_555
C32_3 N1_3 1_555 1_555
H17_3 C32_3 1_555 1_555
H18_3 C32_3 1_555 1_555
H19_3 C32_3 1_555 1_555
C33_3 N1_3 1_555 1_555
H20_3 C33_3 1_555 1_555
H22_3 C33_3 1_555 1_555
O28_3 Na3_3 1_555 1_555
C31_3 H45_3 1_555 1_555
Zn3 O1_2 1_555 1_555
Na2_3 O2_2 1_555 1_555
O1_2 C1_2 1_555 1_555
O2_2 C1_2 1_555 1_555
O3_2 C8_2 1_555 1_555
O5_2 Zn3 1_555 1_555
O6_2 Na2_3 1_555 1_555
C1_2 C2_2 1_555 1_555
C2_2 C3_2 1_555 1_555
C3_2 H1_2 1_555 1_555
C4_2 C3_2 1_555 1_555
H2_2 C4_2 1_555 1_555
C5_2 C4_2 1_555 1_555
C6_2 C5_2 1_555 1_555
H3_2 C6_2 1_555 1_555
C7_2 C2_2 1_555 1_555
H4_2 C7_2 1_555 1_555
C8_2 C5_2 1_555 1_555
C9_2 C8_2 1_555 1_555
C10_2 C9_2 1_555 1_555
H5_2 C10_2 1_555 1_555
C11_2 C10_2 1_555 1_555
H6_2 C11_2 1_555 1_555
C12_2 C11_2 1_555 1_555
C13_2 C12_2 1_555 1_555
H7_2 C13_2 1_555 1_555
C14_2 C9_2 1_555 1_555
H8_2 C14_2 1_555 1_555
C16_2 O5_2 1_555 1_555
H9_2 C18_2 1_555 1_555
O18_2 C56_2 1_555 1_555
O19_2 C63_2 1_555 1_555
O20_2 Na2_3 1_555 1_555
H32_2 C52_2 1_555 1_555
C53_2 C52_2 1_555 1_555
C54_2 C53_2 1_555 1_555
H33_2 C54_2 1_555 1_555
C55_2 C50_2 1_555 1_555
H34_2 C55_2 1_555 1_555
C56_2 C53_2 1_555 1_555
C57_2 C56_2 1_555 1_555
C58_2 C57_2 1_555 1_555
H35_2 C58_2 1_555 1_555
C59_2 C58_2 1_555 1_555
H36_2 C59_2 1_555 1_555
C60_2 C59_2 1_555 1_555
C61_2 C60_2 1_555 1_555
H37_2 C61_2 1_555 1_555
C62_2 C57_2 1_555 1_555
H38_2 C62_2 1_555 1_555
C63_2 O20_2 1_555 1_555
O22_3 Na3_4 1_555 1_555
N2_3 C64_3 1_555 1_555
C64_3 O22_3 1_555 1_555
C65_3 N2_3 1_555 1_555
H39_3 C65_3 1_555 1_555
H40_3 C65_3 1_555 1_555
H41_3 C65_3 1_555 1_555
C66_3 N2_3 1_555 1_555
H42_3 C66_3 1_555 1_555
H44_3 C66_3 1_555 1_555
Na5_7 O19_2 1_555 1_555
O31_3 Na3_4 1_555 1_555
O6_2 C16_2 1_555 1_555
C6_2 C7_2 1_555 1_555
C13_2 C14_2 1_555 1_555
C54_2 C55_2 1_555 1_555
C60_2 C63_2 1_555 1_555
C61_2 C62_2 1_555 1_555
C64_3 H46_3 1_555 1_555
O23_3 Na2_4 1_555 1_555
O26_3 Na2_4 1_555 1_555
Na2_4 O30_2 1_555 1_555
Na5_5 O10_4 1_555 1_555
O10_4 C31_4 1_555 1_555
N1_4 C31_4 1_555 1_555
C32_4 N1_4 1_555 1_555
H17_4 C32_4 1_555 1_555
H18_4 C32_4 1_555 1_555
H19_4 C32_4 1_555 1_555
C33_4 N1_4 1_555 1_555
H20_4 C33_4 1_555 1_555
H22_4 C33_4 1_555 1_555
O28_4 Na5_6 1_555 1_555
O23_4 Na6_2 1_555 1_555
O26_4 Na6_2 1_555 1_555
O22_4 Na5_8 1_555 1_555
N2_4 C64_4 1_555 1_555
C64_4 O22_4 1_555 1_555
C65_4 N2_4 1_555 1_555
H39_4 C65_4 1_555 1_555
H40_4 C65_4 1_555 1_555
H41_4 C65_4 1_555 1_555
C66_4 N2_4 1_555 1_555
H42_4 C66_4 1_555 1_555
H44_4 C66_4 1_555 1_555
O31_4 Na5_8 1_555 1_555
Zn5_2 O1_3 1_555 1_555
O1_3 C1_3 1_555 1_555
O23_3 C1_3 1_555 1_555
O3_3 C8_3 1_555 1_555
O4_2 C15_3 1_555 1_555
O5_3 Zn5_2 1_555 1_555
O7_3 C23_3 1_555 1_555
O28 C30_3 1_555 1_555
O29_2 C30_3 1_555 1_555
C1_3 C2_3 1_555 1_555
C2_3 C3_3 1_555 1_555
C3_3 H1_3 1_555 1_555
C4_3 C3_3 1_555 1_555
H2_3 C4_3 1_555 1_555
C5_3 C4_3 1_555 1_555
C6_3 C5_3 1_555 1_555
H3_3 C6_3 1_555 1_555
C7_3 C2_3 1_555 1_555
H4_3 C7_3 1_555 1_555
C8_3 C5_3 1_555 1_555
C9_3 C8_3 1_555 1_555
C10_3 C9_3 1_555 1_555
H5_3 C10_3 1_555 1_555
C11_3 C10_3 1_555 1_555
H6_3 C11_3 1_555 1_555
C12_3 C11_3 1_555 1_555
C13_3 C12_3 1_555 1_555
H7_3 C13_3 1_555 1_555
C14_3 C9_3 1_555 1_555
H8_3 C14_3 1_555 1_555
C15_3 O31 1_555 1_555
C16_3 O5_3 1_555 1_555
C17_3 C16_3 1_555 1_555
C18_3 C17_3 1_555 1_555
H9_3 C18_3 1_555 1_555
C19_3 C18_3 1_555 1_555
H10_3 C19_3 1_555 1_555
C20_3 C19_3 1_555 1_555
C21_3 C20_3 1_555 1_555
H11_3 C21_3 1_555 1_555
C22_3 C17_3 1_555 1_555
H12_3 C22_3 1_555 1_555
C23_3 C20_3 1_555 1_555
C24_3 C23_3 1_555 1_555
C25_3 C24_3 1_555 1_555
H13_3 C25_3 1_555 1_555
C26_3 C25_3 1_555 1_555
H14_3 C26_3 1_555 1_555
C27_3 C26_3 1_555 1_555
C28_3 C27_3 1_555 1_555
H15_3 C28_3 1_555 1_555
C29_3 C24_3 1_555 1_555
H16_3 C29_3 1_555 1_555
C30_3 C27_3 1_555 1_555
Zn6_2 O12_3 1_555 1_555
O12_3 C34_3 1_555 1_555
O23_4 C34_3 1_555 1_555
O14_3 C41_3 1_555 1_555
O15_2 C48_3 1_555 1_555
O16_3 Zn6_2 1_555 1_555
O26_4 C49_3 1_555 1_555
O18_3 C56_3 1_555 1_555
O28_2 C63_3 1_555 1_555
O31_2 C48_3 1_555 1_555
C34_3 C35_3 1_555 1_555
C35_3 C36_3 1_555 1_555
C36_3 H23_3 1_555 1_555
C37_3 C36_3 1_555 1_555
H24_3 C37_3 1_555 1_555
C38_3 C37_3 1_555 1_555
C39_3 C38_3 1_555 1_555
H25_3 C39_3 1_555 1_555
C40_3 C35_3 1_555 1_555
H26_3 C40_3 1_555 1_555
C41_3 C38_3 1_555 1_555
C42_3 C41_3 1_555 1_555
C43_3 C42_3 1_555 1_555
H27_3 C43_3 1_555 1_555
C44_3 C43_3 1_555 1_555
H28_3 C44_3 1_555 1_555
C45_3 C44_3 1_555 1_555
C46_3 C45_3 1_555 1_555
H29_3 C46_3 1_555 1_555
C47_3 C42_3 1_555 1_555
H30_3 C47_3 1_555 1_555
C48_3 C45_3 1_555 1_555
C49_3 O16_3 1_555 1_555
C50_3 C49_3 1_555 1_555
C51_3 C50_3 1_555 1_555
H31_3 C51_3 1_555 1_555
C52_3 C51_3 1_555 1_555
H32_3 C52_3 1_555 1_555
C53_3 C52_3 1_555 1_555
C54_3 C53_3 1_555 1_555
H33_3 C54_3 1_555 1_555
C55_3 C50_3 1_555 1_555
H34_3 C55_3 1_555 1_555
C56_3 C53_3 1_555 1_555
C57_3 C56_3 1_555 1_555
C58_3 C57_3 1_555 1_555
H35_3 C58_3 1_555 1_555
C59_3 C58_3 1_555 1_555
H36_3 C59_3 1_555 1_555
C60_3 C59_3 1_555 1_555
C61_3 C60_3 1_555 1_555
H37_3 C61_3 1_555 1_555
C62_3 C57_3 1_555 1_555
H38_3 C62_3 1_555 1_555
C63_3 O30_2 1_555 1_555
Zn5 O15_2 1_555 1_555
Zn6 O4_2 1_555 1_555
O24_2 Zn6_2 1_555 1_555
O25_2 Zn5_2 1_555 1_555
O26_3 C16_3 1_555 1_555
C6_3 C7_3 1_555 1_555
C12_3 C15_3 1_555 1_555
C13_3 C14_3 1_555 1_555
C21_3 C22_3 1_555 1_555
C28_3 C29_3 1_555 1_555
C39_3 C40_3 1_555 1_555
C46_3 C47_3 1_555 1_555
C54_3 C55_3 1_555 1_555
C60_3 C63_3 1_555 1_555
C61_3 C62_3 1_555 1_555
Zn5 O1_4 1_555 1_555
O1_4 C1_4 1_555 1_555
O23 C1_4 1_555 1_555
O3_4 C8_4 1_555 1_555
O5_4 Zn5 1_555 1_555
C1_4 C2_4 1_555 1_555
C2_4 C3_4 1_555 1_555
C3_4 H1_4 1_555 1_555
C4_4 C3_4 1_555 1_555
H2_4 C4_4 1_555 1_555
C5_4 C4_4 1_555 1_555
C6_4 C5_4 1_555 1_555
H3_4 C6_4 1_555 1_555
C7_4 C2_4 1_555 1_555
H4_4 C7_4 1_555 1_555
C8_4 C5_4 1_555 1_555
C9_4 C8_4 1_555 1_555
C10_4 C9_4 1_555 1_555
H5_4 C10_4 1_555 1_555
C11_4 C10_4 1_555 1_555
H6_4 C11_4 1_555 1_555
C12_4 C11_4 1_555 1_555
C13_4 C12_4 1_555 1_555
H7_4 C13_4 1_555 1_555
C14_4 C9_4 1_555 1_555
H8_4 C14_4 1_555 1_555
C16_4 O5_4 1_555 1_555
H9_4 C18_4 1_555 1_555
O18_4 C56_4 1_555 1_555
O28_4 C63_4 1_555 1_555
H32_4 C52_4 1_555 1_555
C53_4 C52_4 1_555 1_555
C54_4 C53_4 1_555 1_555
H33_4 C54_4 1_555 1_555
C55_4 C50_4 1_555 1_555
H34_4 C55_4 1_555 1_555
C56_4 C53_4 1_555 1_555
C57_4 C56_4 1_555 1_555
C58_4 C57_4 1_555 1_555
H35_4 C58_4 1_555 1_555
C59_4 C58_4 1_555 1_555
H36_4 C59_4 1_555 1_555
C60_4 C59_4 1_555 1_555
C61_4 C60_4 1_555 1_555
H37_4 C61_4 1_555 1_555
C62_4 C57_4 1_555 1_555
H38_4 C62_4 1_555 1_555
C63_4 O30 1_555 1_555
O26 C16_4 1_555 1_555
C6_4 C7_4 1_555 1_555
C13_4 C14_4 1_555 1_555
C54_4 C55_4 1_555 1_555
C60_4 C63_4 1_555 1_555
C61_4 C62_4 1_555 1_555
O24_2 C15_4 1_555 1_555
C15_4 O31_3 1_555 1_555
O7_4 C23_4 1_555 1_555
O28_3 C30_4 1_555 1_555
O29 C30_4 1_555 1_555
H10_4 C19_4 1_555 1_555
C20_4 C19_4 1_555 1_555
C21_4 C20_4 1_555 1_555
H11_4 C21_4 1_555 1_555
C22_4 C17_4 1_555 1_555
H12_4 C22_4 1_555 1_555
C23_4 C20_4 1_555 1_555
C24_4 C23_4 1_555 1_555
C25_4 C24_4 1_555 1_555
H13_4 C25_4 1_555 1_555
C26_4 C25_4 1_555 1_555
H14_4 C26_4 1_555 1_555
C27_4 C26_4 1_555 1_555
C28_4 C27_4 1_555 1_555
H15_4 C28_4 1_555 1_555
C29_4 C24_4 1_555 1_555
H16_4 C29_4 1_555 1_555
C30_4 C27_4 1_555 1_555
Zn6 O12_4 1_555 1_555
O12_4 C34_4 1_555 1_555
O23_2 C34_4 1_555 1_555
O14_4 C41_4 1_555 1_555
O16_4 Zn6 1_555 1_555
O26_2 C49_4 1_555 1_555
C34_4 C35_4 1_555 1_555
C35_4 C36_4 1_555 1_555
C36_4 H23_4 1_555 1_555
C37_4 C36_4 1_555 1_555
H24_4 C37_4 1_555 1_555
C38_4 C37_4 1_555 1_555
C39_4 C38_4 1_555 1_555
H25_4 C39_4 1_555 1_555
C40_4 C35_4 1_555 1_555
H26_4 C40_4 1_555 1_555
C41_4 C38_4 1_555 1_555
C42_4 C41_4 1_555 1_555
C43_4 C42_4 1_555 1_555
H27_4 C43_4 1_555 1_555
C44_4 C43_4 1_555 1_555
H28_4 C44_4 1_555 1_555
C45_4 C44_4 1_555 1_555
C46_4 C45_4 1_555 1_555
H29_4 C46_4 1_555 1_555
C47_4 C42_4 1_555 1_555
H30_4 C47_4 1_555 1_555
C49_4 O16_4 1_555 1_555
H31_4 C51_4 1_555 1_555
C21_4 C22_4 1_555 1_555
C28_4 C29_4 1_555 1_555
C39_4 C40_4 1_555 1_555
C46_4 C47_4 1_555 1_555
O25_2 C48_4 1_555 1_555
O31_4 C48_4 1_555 1_555

#END
