
###############################################################################
#
# This file contains modified crystal structure data generated from the
# MOF subset of the Cambridge Structural Database (CSD) v543 
# hosted by the Cambridge Crystallographic Data Centre (CCDC).
#
# This work is licensed under the Creative Commons
# Attribution-NonCommercial-ShareAlike 4.0 International License.
# To view a copy of this license, visit
# http://creativecommons.org/licenses/by-nc-sa/4.0/
# or send a letter to
# Creative Commons, PO Box 1866, Mountain View, CA 94042, USA.
#
# CIF created using the CSD Python API on 29 September 2022
# The structure has been converted into the P1 space group
# The structure has a 3D framework
# The original CSD entry YUXJEJ is in the orthorhombic crystal system
# The framework has been calculated to contain at least 10.0% void space
# The void calculation uses a probe of radius 1.32A, grid spacing 0.4
# H atom positions have been added when not included in the experimental data
#
###############################################################################

data_YUXJEJ
_chemical_formula_moiety         '(C496 H272 Cu12 N40 O106 Zr26)n'
_symmetry_cell_setting           triclinic
_symmetry_space_group_name_H-M   'P 1'
_symmetry_Int_Tables_number      1
_space_group_name_Hall           'P 1'
loop_
_symmetry_equiv_pos_site_id
_symmetry_equiv_pos_as_xyz
1 x,y,z
_cell_length_a                   37.319(7)
_cell_length_b                   11.628(2)
_cell_length_c                   33.058(7)
_cell_angle_alpha                90
_cell_angle_beta                 90
_cell_angle_gamma                90
_cell_volume                     14345.4
loop_
_atom_site_label
_atom_site_type_symbol
_atom_site_fract_x
_atom_site_fract_y
_atom_site_fract_z
_atom_site_U_iso_or_equiv
_atom_site_thermal_displace_type
O1 O 0.7383(8) 0.355(2) 0.1773(10) 0.0830 Uiso
O2 O 0.7863(7) 0.496(2) 0.1889(10) 0.0830 Uiso
Zr1 Zr 0.7910(2) 0.5000 0.2500 0.0300 Uiso
Zr2 Zr 0.71837(19) 0.3392(5) 0.2301(2) 0.0300 Uiso
O3 O 0.7364(11) 0.5000 0.2500 0.0830 Uiso
O4 O 0.7282(9) 0.169(2) 0.2514(11) 0.0830 Uiso
O5 O 0.6838(8) 0.351(2) 0.2754(9) 0.0830 Uiso
C1 C 0.6708(8) 0.430(2) 0.3000(9) 0.0900 Uiso
O6 O 0.6785(8) 0.5395(19) 0.3011(10) 0.0830 Uiso
C2 C 0.6450(7) 0.386(2) 0.3344(8) 0.0900 Uiso
C3 C 0.6466(7) 0.2698(19) 0.3453(8) 0.0900 Uiso
C4 C 0.6249(7) 0.229(2) 0.3766(8) 0.0900 Uiso
C5 C 0.6216(7) 0.4617(19) 0.3545(9) 0.0900 Uiso
C6 C 0.6010(8) 0.423(2) 0.3876(9) 0.0900 Uiso
C7 C 0.6015(8) 0.304(2) 0.3959(10) 0.0900 Uiso
C8 C 0.5770(6) 0.259(2) 0.4254(6) 0.0950 Uiso
C9 C 0.5855(5) 0.256(2) 0.4664(5) 0.0950 Uiso
C10 C 0.6206(6) 0.287(3) 0.4795(3) 0.0950 Uiso
C11 C 0.5414(6) 0.232(2) 0.4176(7) 0.0950 Uiso
C12 C 0.5291(7) 0.239(2) 0.3773(6) 0.0950 Uiso
C13 C 0.4944(7) 0.200(2) 0.3770(6) 0.0950 Uiso
C14 C 0.4855(6) 0.167(2) 0.4169(7) 0.0950 Uiso
C15 C 0.4519(6) 0.124(2) 0.4261(6) 0.0950 Uiso
C16 C 0.4450(5) 0.106(2) 0.4669(5) 0.0950 Uiso
C17 C 0.4117(6) 0.061(3) 0.4796(3) 0.0950 Uiso
N1 N 0.5653(6) 0.239(3) 0.5000 0.0950 Uiso
N2 N 0.5145(6) 0.188(2) 0.4404(4) 0.0950 Uiso
N3 N 0.4651(6) 0.128(3) 0.5000 0.0950 Uiso
Cu1 Cu 0.5153(3) 0.1826(11) 0.5000 0.0530 Uiso
C18 C 0.4212(7) 0.126(2) 0.3953(8) 0.0900 Uiso
C19 C 0.3943(6) 0.211(2) 0.3987(8) 0.0900 Uiso
C20 C 0.3686(7) 0.217(2) 0.3683(8) 0.0900 Uiso
C21 C 0.4206(7) 0.051(2) 0.3620(8) 0.0900 Uiso
C22 C 0.3956(7) 0.062(2) 0.3311(8) 0.0900 Uiso
C23 C 0.3670(7) 0.141(2) 0.3350(8) 0.0900 Uiso
C24 C 0.3392(8) 0.158(3) 0.3016(9) 0.0900 Uiso
O7 O 0.3396(8) 0.072(2) 0.2778(10) 0.0830 Uiso
O8 O 0.3193(8) 0.245(2) 0.3105(10) 0.0830 Uiso
C25 C 0.7582(15) 0.422(7) 0.1602(14) 0.3200 Uiso
C26 C 0.7777(10) 0.428(4) 0.1194(9) 0.3200 Uiso
C27 C 0.7932(13) 0.533(4) 0.1092(11) 0.3200 Uiso
C28 C 0.8114(15) 0.544(5) 0.0727(11) 0.3200 Uiso
C29 C 0.8142(13) 0.451(6) 0.0466(3) 0.3200 Uiso
C30 C 0.7987(15) 0.347(5) 0.0568(13) 0.3200 Uiso
C31 C 0.7805(14) 0.335(3) 0.0933(15) 0.3200 Uiso
O9 O 0.6838(8) 0.351(2) 0.7246(9) 0.0830 Uiso
C32 C 0.6708(8) 0.430(2) 0.7000(9) 0.0900 Uiso
O10 O 0.6785(8) 0.5395(19) 0.6989(10) 0.0830 Uiso
C33 C 0.6450(7) 0.386(2) 0.6656(8) 0.0900 Uiso
C34 C 0.6466(7) 0.2698(19) 0.6547(8) 0.0900 Uiso
C35 C 0.6249(7) 0.229(2) 0.6234(8) 0.0900 Uiso
C36 C 0.6216(7) 0.4617(19) 0.6455(9) 0.0900 Uiso
C37 C 0.6010(8) 0.423(2) 0.6124(9) 0.0900 Uiso
C38 C 0.6015(8) 0.304(2) 0.6041(10) 0.0900 Uiso
C39 C 0.5770(6) 0.259(2) 0.5746(6) 0.0950 Uiso
C40 C 0.5855(5) 0.256(2) 0.5336(5) 0.0950 Uiso
C41 C 0.6206(6) 0.287(3) 0.5205(3) 0.0950 Uiso
C42 C 0.5414(6) 0.232(2) 0.5824(7) 0.0950 Uiso
C43 C 0.5291(7) 0.239(2) 0.6227(6) 0.0950 Uiso
C44 C 0.4944(7) 0.200(2) 0.6230(6) 0.0950 Uiso
C45 C 0.4855(6) 0.167(2) 0.5831(7) 0.0950 Uiso
C46 C 0.4519(6) 0.124(2) 0.5739(6) 0.0950 Uiso
C47 C 0.4450(5) 0.106(2) 0.5331(5) 0.0950 Uiso
C48 C 0.4117(6) 0.061(3) 0.5204(3) 0.0950 Uiso
N4 N 0.5145(6) 0.188(2) 0.5596(4) 0.0950 Uiso
C49 C 0.4212(7) 0.126(2) 0.6047(8) 0.0900 Uiso
C50 C 0.3943(6) 0.211(2) 0.6013(8) 0.0900 Uiso
C51 C 0.3686(7) 0.217(2) 0.6317(8) 0.0900 Uiso
C52 C 0.4206(7) 0.051(2) 0.6380(8) 0.0900 Uiso
C53 C 0.3956(7) 0.062(2) 0.6689(8) 0.0900 Uiso
C54 C 0.3670(7) 0.141(2) 0.6650(8) 0.0900 Uiso
C55 C 0.3392(8) 0.158(3) 0.6984(9) 0.0900 Uiso
O11 O 0.3396(8) 0.072(2) 0.7222(10) 0.0830 Uiso
O12 O 0.3193(8) 0.245(2) 0.6895(10) 0.0830 Uiso
O13 O 0.2617(8) 0.355(2) 0.3227(10) 0.0830 Uiso
O14 O 0.2137(7) 0.496(2) 0.3111(10) 0.0830 Uiso
Zr3 Zr 0.28163(19) 0.3392(5) 0.2699(2) 0.0300 Uiso
O15 O 0.2718(9) 0.169(2) 0.2486(11) 0.0830 Uiso
C56 C 0.2418(15) 0.422(7) 0.3398(14) 0.3200 Uiso
C57 C 0.2223(10) 0.428(4) 0.3806(9) 0.3200 Uiso
C58 C 0.2068(13) 0.533(4) 0.3908(11) 0.3200 Uiso
C59 C 0.1886(15) 0.544(5) 0.4273(11) 0.3200 Uiso
C60 C 0.1858(13) 0.451(6) 0.4534(3) 0.3200 Uiso
C61 C 0.2013(15) 0.347(5) 0.4432(13) 0.3200 Uiso
C62 C 0.2195(14) 0.335(3) 0.4067(15) 0.3200 Uiso
O16 O 0.7863(7) 0.504(2) 0.3111(10) 0.0830 Uiso
Zr4 Zr 0.2090(2) 0.5000 0.2500 0.0300 Uiso
Zr5 Zr 0.2910(2) 0.0000 0.7500 0.0300 Uiso
Zr6 Zr 0.2910(2) 0.0000 0.2500 0.0300 Uiso
Zr7 Zr 0.7090(2) 0.0000 0.2500 0.0300 Uiso
Zr8 Zr 0.71837(19) 0.6608(5) 0.2699(2) 0.0300 Uiso
Zr9 Zr 0.71837(19) 0.3392(5) 0.7699(2) 0.0300 Uiso
Zr10 Zr 0.21837(19) 0.1608(5) 0.2301(2) 0.0300 Uiso
Zr11 Zr 0.78163(19) 0.1608(5) 0.2699(2) 0.0300 Uiso
Zr12 Zr 0.71837(19) 0.6608(5) 0.7301(2) 0.0300 Uiso
Zr13 Zr 0.28163(19) 0.3392(5) 0.7301(2) 0.0300 Uiso
O17 O 0.2636(11) 0.5000 0.2500 0.0830 Uiso
O18 O 0.2282(9) 0.331(2) 0.2514(11) 0.0830 Uiso
O19 O 0.7718(9) 0.669(2) 0.2514(11) 0.0830 Uiso
O20 O 0.7718(9) 0.331(2) 0.2486(11) 0.0830 Uiso
O21 O 0.3162(8) 0.351(2) 0.2246(9) 0.0830 Uiso
O22 O 0.3215(8) 0.4605(19) 0.3011(10) 0.0830 Uiso
O23 O 0.6785(8) 0.4605(19) 0.1989(10) 0.0830 Uiso
O24 O 0.8396(8) 0.428(2) 0.2778(10) 0.0830 Uiso
O25 O 0.8396(8) 0.572(2) 0.2222(10) 0.0830 Uiso
O26 O 0.6807(8) 0.245(2) 0.1895(10) 0.0830 Uiso
H1 H 0.643315 0.307062 0.460063 . .
H2 H 0.626313 0.139181 0.385792 . .
H3 H 0.39004 0.0317297 0.460073 . .
H4 H 0.619374 0.550614 0.344463 . .
H5 H 0.585381 0.482452 0.405957 . .
H6 H 0.664649 0.211557 0.329479 . .
H7 H 0.544298 0.269609 0.351321 . .
H8 H 0.47686 0.195315 0.350725 . .
H9 H 0.393712 0.269911 0.4243 . .
H10 H 0.34845 0.284503 0.370289 . .
H12 H 0.398028 0.00980319 0.303886 . .
H13 H 0.544298 0.269609 0.648679 . .
H14 H 0.768482 0.25279 0.101358 . .
H15 H 0.47686 0.195315 0.649275 . .
H16 H 0.34845 0.284503 0.629711 . .
H17 H 0.626313 0.139181 0.614208 . .
H19 H 0.791082 0.606042 0.129679 . .
H20 H 0.82859 0.459923 0.0181144 . .
H21 H 0.800738 0.274205 0.0362025 . .
H22 H 0.823513 0.626003 0.0645633 . .
H23 H 0.39004 0.0317297 0.539927 . .
H24 H 0.585381 0.482452 0.594043 . .
H25 H 0.393712 0.269911 0.5757 . .
H26 H 0.664649 0.211557 0.670521 . .
H27 H 0.619374 0.550614 0.655537 . .
H28 H 0.643315 0.307062 0.539937 . .
H29 H 0.176487 0.626003 0.435437 . .
H30 H 0.398028 0.00980319 0.696114 . .
H31 H 0.208918 0.606042 0.370321 . .
H32 H 0.199262 0.274205 0.463797 . .
H33 H 0.231518 0.25279 0.398642 . .
H34 H 0.17141 0.459923 0.481886 . .
Zr5_2 Zr 0.2910(2) 1.0000 0.7500 0.0300 Uiso
Zr6_2 Zr 0.2910(2) 1.0000 0.2500 0.0300 Uiso
Zr7_2 Zr 0.7090(2) 1.0000 0.2500 0.0300 Uiso
H11 H 0.440327 0.982148 0.360353 . .
H18 H 0.440327 0.982148 0.639647 . .
Zr5_3 Zr 0.7090(2) 0.0000 0.7500 0.0300 Uiso
H11_2 H 0.559673 0.0178521 0.360353 . .
H18_2 H 0.559673 0.0178521 0.639647 . .
O1_2 O 0.2617(8) 0.645(2) 0.1773(10) 0.0830 Uiso
O2_2 O 0.2137(7) 0.504(2) 0.1889(10) 0.0830 Uiso
Zr2_2 Zr 0.28163(19) 0.6608(5) 0.2301(2) 0.0300 Uiso
O4_2 O 0.2718(9) 0.831(2) 0.2514(11) 0.0830 Uiso
O5_2 O 0.3162(8) 0.649(2) 0.2754(9) 0.0830 Uiso
C1_2 C 0.3292(8) 0.570(2) 0.3000(9) 0.0900 Uiso
C2_2 C 0.3550(7) 0.614(2) 0.3344(8) 0.0900 Uiso
C3_2 C 0.3534(7) 0.7302(19) 0.3453(8) 0.0900 Uiso
C4_2 C 0.3751(7) 0.771(2) 0.3766(8) 0.0900 Uiso
C5_2 C 0.3784(7) 0.5383(19) 0.3545(9) 0.0900 Uiso
C6_2 C 0.3990(8) 0.577(2) 0.3876(9) 0.0900 Uiso
C7_2 C 0.3985(8) 0.696(2) 0.3959(10) 0.0900 Uiso
C8_2 C 0.4230(6) 0.741(2) 0.4254(6) 0.0950 Uiso
C9_2 C 0.4145(5) 0.744(2) 0.4664(5) 0.0950 Uiso
C10_2 C 0.3794(6) 0.713(3) 0.4795(3) 0.0950 Uiso
C11_2 C 0.4586(6) 0.768(2) 0.4176(7) 0.0950 Uiso
C12_2 C 0.4709(7) 0.761(2) 0.3773(6) 0.0950 Uiso
C13_2 C 0.5056(7) 0.800(2) 0.3770(6) 0.0950 Uiso
C14_2 C 0.5145(6) 0.833(2) 0.4169(7) 0.0950 Uiso
C15_2 C 0.5481(6) 0.876(2) 0.4261(6) 0.0950 Uiso
C16_2 C 0.5550(5) 0.894(2) 0.4669(5) 0.0950 Uiso
C17_2 C 0.5883(6) 0.939(3) 0.4796(3) 0.0950 Uiso
N1_2 N 0.4347(6) 0.761(3) 0.5000 0.0950 Uiso
N2_2 N 0.4855(6) 0.812(2) 0.4404(4) 0.0950 Uiso
N3_2 N 0.5349(6) 0.872(3) 0.5000 0.0950 Uiso
Cu1_2 Cu 0.4847(3) 0.8174(11) 0.5000 0.0530 Uiso
C18_2 C 0.5788(7) 0.874(2) 0.3953(8) 0.0900 Uiso
C19_2 C 0.6057(6) 0.789(2) 0.3987(8) 0.0900 Uiso
C20_2 C 0.6314(7) 0.783(2) 0.3683(8) 0.0900 Uiso
C21_2 C 0.5794(7) 0.949(2) 0.3620(8) 0.0900 Uiso
C22_2 C 0.6044(7) 0.938(2) 0.3311(8) 0.0900 Uiso
C23_2 C 0.6330(7) 0.859(2) 0.3350(8) 0.0900 Uiso
C24_2 C 0.6608(8) 0.842(3) 0.3016(9) 0.0900 Uiso
O7_2 O 0.6604(8) 0.928(2) 0.2778(10) 0.0830 Uiso
O8_2 O 0.6807(8) 0.755(2) 0.3105(10) 0.0830 Uiso
C25_2 C 0.2418(15) 0.578(7) 0.1602(14) 0.3200 Uiso
C26_2 C 0.2223(10) 0.572(4) 0.1194(9) 0.3200 Uiso
C27_2 C 0.2068(13) 0.467(4) 0.1092(11) 0.3200 Uiso
C28_2 C 0.1886(15) 0.456(5) 0.0727(11) 0.3200 Uiso
C29_2 C 0.1858(13) 0.549(6) 0.0466(3) 0.3200 Uiso
C30_2 C 0.2013(15) 0.653(5) 0.0568(13) 0.3200 Uiso
C31_2 C 0.2195(14) 0.665(3) 0.0933(15) 0.3200 Uiso
O9_2 O 0.3162(8) 0.649(2) 0.7246(9) 0.0830 Uiso
C32_2 C 0.3292(8) 0.570(2) 0.7000(9) 0.0900 Uiso
O10_2 O 0.3215(8) 0.4605(19) 0.6989(10) 0.0830 Uiso
C33_2 C 0.3550(7) 0.614(2) 0.6656(8) 0.0900 Uiso
C34_2 C 0.3534(7) 0.7302(19) 0.6547(8) 0.0900 Uiso
C35_2 C 0.3751(7) 0.771(2) 0.6234(8) 0.0900 Uiso
C36_2 C 0.3784(7) 0.5383(19) 0.6455(9) 0.0900 Uiso
C37_2 C 0.3990(8) 0.577(2) 0.6124(9) 0.0900 Uiso
C38_2 C 0.3985(8) 0.696(2) 0.6041(10) 0.0900 Uiso
C39_2 C 0.4230(6) 0.741(2) 0.5746(6) 0.0950 Uiso
C40_2 C 0.4145(5) 0.744(2) 0.5336(5) 0.0950 Uiso
C41_2 C 0.3794(6) 0.713(3) 0.5205(3) 0.0950 Uiso
C42_2 C 0.4586(6) 0.768(2) 0.5824(7) 0.0950 Uiso
C43_2 C 0.4709(7) 0.761(2) 0.6227(6) 0.0950 Uiso
C44_2 C 0.5056(7) 0.800(2) 0.6230(6) 0.0950 Uiso
C45_2 C 0.5145(6) 0.833(2) 0.5831(7) 0.0950 Uiso
C46_2 C 0.5481(6) 0.876(2) 0.5739(6) 0.0950 Uiso
C47_2 C 0.5550(5) 0.894(2) 0.5331(5) 0.0950 Uiso
C48_2 C 0.5883(6) 0.939(3) 0.5204(3) 0.0950 Uiso
N4_2 N 0.4855(6) 0.812(2) 0.5596(4) 0.0950 Uiso
C49_2 C 0.5788(7) 0.874(2) 0.6047(8) 0.0900 Uiso
C50_2 C 0.6057(6) 0.789(2) 0.6013(8) 0.0900 Uiso
C51_2 C 0.6314(7) 0.783(2) 0.6317(8) 0.0900 Uiso
C52_2 C 0.5794(7) 0.949(2) 0.6380(8) 0.0900 Uiso
C53_2 C 0.6044(7) 0.938(2) 0.6689(8) 0.0900 Uiso
C54_2 C 0.6330(7) 0.859(2) 0.6650(8) 0.0900 Uiso
C55_2 C 0.6608(8) 0.842(3) 0.6984(9) 0.0900 Uiso
O11_2 O 0.6604(8) 0.928(2) 0.7222(10) 0.0830 Uiso
O12_2 O 0.6807(8) 0.755(2) 0.6895(10) 0.0830 Uiso
O13_2 O 0.7383(8) 0.645(2) 0.3227(10) 0.0830 Uiso
O15_2 O 0.7282(9) 0.831(2) 0.2486(11) 0.0830 Uiso
C56_2 C 0.7582(15) 0.578(7) 0.3398(14) 0.3200 Uiso
C57_2 C 0.7777(10) 0.572(4) 0.3806(9) 0.3200 Uiso
C58_2 C 0.7932(13) 0.467(4) 0.3908(11) 0.3200 Uiso
C59_2 C 0.8114(15) 0.456(5) 0.4273(11) 0.3200 Uiso
C60_2 C 0.8142(13) 0.549(6) 0.4534(3) 0.3200 Uiso
C61_2 C 0.7987(15) 0.653(5) 0.4432(13) 0.3200 Uiso
C62_2 C 0.7805(14) 0.665(3) 0.4067(15) 0.3200 Uiso
Zr5_4 Zr 0.7090(2) 1.0000 0.7500 0.0300 Uiso
Zr9_2 Zr 0.28163(19) 0.6608(5) 0.7699(2) 0.0300 Uiso
Zr10_2 Zr 0.78163(19) 0.8392(5) 0.2301(2) 0.0300 Uiso
Zr11_2 Zr 0.21837(19) 0.8392(5) 0.2699(2) 0.0300 Uiso
O20_2 O 0.2282(9) 0.669(2) 0.2486(11) 0.0830 Uiso
O21_2 O 0.6838(8) 0.649(2) 0.2246(9) 0.0830 Uiso
O23_2 O 0.3215(8) 0.5395(19) 0.1989(10) 0.0830 Uiso
O24_2 O 0.1604(8) 0.572(2) 0.2778(10) 0.0830 Uiso
O25_2 O 0.1604(8) 0.428(2) 0.2222(10) 0.0830 Uiso
O26_2 O 0.3193(8) 0.755(2) 0.1895(10) 0.0830 Uiso
H1_2 H 0.356685 0.692938 0.460063 . .
H2_2 H 0.373687 0.860819 0.385792 . .
H3_2 H 0.60996 0.96827 0.460073 . .
H4_2 H 0.380626 0.449386 0.344463 . .
H5_2 H 0.414619 0.517548 0.405957 . .
H6_2 H 0.335351 0.788443 0.329479 . .
H7_2 H 0.455702 0.730391 0.351321 . .
H8_2 H 0.52314 0.804685 0.350725 . .
H9_2 H 0.606288 0.730089 0.4243 . .
H10_2 H 0.65155 0.715497 0.370289 . .
H12_2 H 0.601972 0.990197 0.303886 . .
H13_2 H 0.455702 0.730391 0.648679 . .
H14_2 H 0.231518 0.74721 0.101358 . .
H15_2 H 0.52314 0.804685 0.649275 . .
H16_2 H 0.65155 0.715497 0.629711 . .
H17_2 H 0.373687 0.860819 0.614208 . .
H19_2 H 0.208918 0.393958 0.129679 . .
H20_2 H 0.17141 0.540077 0.0181144 . .
H21_2 H 0.199262 0.725795 0.0362025 . .
H22_2 H 0.176487 0.373997 0.0645633 . .
H23_2 H 0.60996 0.96827 0.539927 . .
H24_2 H 0.414619 0.517548 0.594043 . .
H25_2 H 0.606288 0.730089 0.5757 . .
H26_2 H 0.335351 0.788443 0.670521 . .
H27_2 H 0.380626 0.449386 0.655537 . .
H28_2 H 0.356685 0.692938 0.539937 . .
H29_2 H 0.823513 0.373997 0.435437 . .
H30_2 H 0.601972 0.990197 0.696114 . .
H31_2 H 0.791082 0.393958 0.370321 . .
H32_2 H 0.800738 0.725795 0.463797 . .
H33_2 H 0.768482 0.74721 0.398642 . .
H34_2 H 0.82859 0.540077 0.481886 . .
C58_3 C 0.2932(13) 0.033(4) 0.6092(11) 0.3200 Uiso
C59_3 C 0.3114(15) 0.044(5) 0.5727(11) 0.3200 Uiso
O17_2 O 0.2364(11) 0.0000 0.7500 0.0830 Uiso
H29_3 H 0.323513 0.126003 0.564563 . .
H31_3 H 0.291082 0.106042 0.629679 . .
C13_3 C 0.0056(7) 0.700(2) 0.6230(6) 0.0950 Uiso
C14_3 C 0.0145(6) 0.667(2) 0.5831(7) 0.0950 Uiso
C15_3 C 0.0481(6) 0.624(2) 0.5739(6) 0.0950 Uiso
C16_3 C 0.0550(5) 0.606(2) 0.5331(5) 0.0950 Uiso
C17_3 C 0.0883(6) 0.561(3) 0.5204(3) 0.0950 Uiso
N3_3 N 0.0349(6) 0.628(3) 0.5000 0.0950 Uiso
C18_3 C 0.0788(7) 0.626(2) 0.6047(8) 0.0900 Uiso
C19_3 C 0.1057(6) 0.711(2) 0.6013(8) 0.0900 Uiso
C20_3 C 0.1314(7) 0.717(2) 0.6317(8) 0.0900 Uiso
C21_3 C 0.0794(7) 0.551(2) 0.6380(8) 0.0900 Uiso
C22_3 C 0.1044(7) 0.562(2) 0.6689(8) 0.0900 Uiso
C23_3 C 0.1330(7) 0.641(2) 0.6650(8) 0.0900 Uiso
C24_3 C 0.1608(8) 0.658(3) 0.6984(9) 0.0900 Uiso
O7_3 O 0.1604(8) 0.572(2) 0.7222(10) 0.0830 Uiso
O8_3 O 0.1807(8) 0.745(2) 0.6895(10) 0.0830 Uiso
C44_3 C 0.0056(7) 0.700(2) 0.3770(6) 0.0950 Uiso
C45_3 C 0.0145(6) 0.667(2) 0.4169(7) 0.0950 Uiso
C46_3 C 0.0481(6) 0.624(2) 0.4261(6) 0.0950 Uiso
C47_3 C 0.0550(5) 0.606(2) 0.4669(5) 0.0950 Uiso
C48_3 C 0.0883(6) 0.561(3) 0.4796(3) 0.0950 Uiso
C49_3 C 0.0788(7) 0.626(2) 0.3953(8) 0.0900 Uiso
C50_3 C 0.1057(6) 0.711(2) 0.3987(8) 0.0900 Uiso
C51_3 C 0.1314(7) 0.717(2) 0.3683(8) 0.0900 Uiso
C52_3 C 0.0794(7) 0.551(2) 0.3620(8) 0.0900 Uiso
C53_3 C 0.1044(7) 0.562(2) 0.3311(8) 0.0900 Uiso
C54_3 C 0.1330(7) 0.641(2) 0.3350(8) 0.0900 Uiso
C55_3 C 0.1608(8) 0.658(3) 0.3016(9) 0.0900 Uiso
O12_3 O 0.1807(8) 0.745(2) 0.3105(10) 0.0830 Uiso
O13_3 O 0.2383(8) 0.855(2) 0.6773(10) 0.0830 Uiso
O14_2 O 0.2863(7) 0.996(2) 0.6889(10) 0.0830 Uiso
Zr3_2 Zr 0.21837(19) 0.8392(5) 0.7301(2) 0.0300 Uiso
O15_3 O 0.2282(9) 0.669(2) 0.7514(11) 0.0830 Uiso
C56_3 C 0.2582(15) 0.922(7) 0.6602(14) 0.3200 Uiso
C57_3 C 0.2777(10) 0.928(4) 0.6194(9) 0.3200 Uiso
C60_3 C 0.3142(13) 0.951(6) 0.5466(3) 0.3200 Uiso
C61_3 C 0.2987(15) 0.847(5) 0.5568(13) 0.3200 Uiso
C62_3 C 0.2805(14) 0.835(3) 0.5933(15) 0.3200 Uiso
Zr6_3 Zr 0.2090(2) 0.5000 0.7500 0.0300 Uiso
O17_3 O 0.2364(11) 1.0000 0.7500 0.0830 Uiso
O18_2 O 0.2718(9) 0.831(2) 0.7486(11) 0.0830 Uiso
O21_3 O 0.1838(8) 0.851(2) 0.7754(9) 0.0830 Uiso
O22_2 O 0.1785(8) 0.9605(19) 0.6989(10) 0.0830 Uiso
H3_3 H 0.10996 0.53173 0.539927 . .
H8_3 H 0.0231399 0.695315 0.649275 . .
H9_3 H 0.106288 0.769911 0.5757 . .
H10_3 H 0.15155 0.784503 0.629711 . .
H11_3 H 0.0596731 0.482148 0.639647 . .
H12_3 H 0.101972 0.509803 0.696114 . .
H15_3 H 0.0231399 0.695315 0.350725 . .
H16_3 H 0.15155 0.784503 0.370289 . .
H18_3 H 0.0596731 0.482148 0.360353 . .
H23_3 H 0.10996 0.53173 0.460073 . .
H25_3 H 0.106288 0.769911 0.4243 . .
H30_3 H 0.101972 0.509803 0.303886 . .
H32_3 H 0.300738 0.774205 0.536203 . .
H33_3 H 0.268482 0.75279 0.601358 . .
H34_3 H 0.32859 0.959923 0.518114 . .
O3_2 O 0.7636(11) 0.0000 0.7500 0.0830 Uiso
O6_2 O 0.8215(8) 0.0395(19) 0.6989(10) 0.0830 Uiso
C27_3 C 0.7068(13) 0.033(4) 0.8908(11) 0.3200 Uiso
C28_3 C 0.6886(15) 0.044(5) 0.9273(11) 0.3200 Uiso
O10_3 O 0.8215(8) 0.0395(19) 0.3011(10) 0.0830 Uiso
O16_2 O 0.7137(7) 0.004(2) 0.6889(10) 0.0830 Uiso
Zr8_2 Zr 0.78163(19) 0.1608(5) 0.7301(2) 0.0300 Uiso
O19_2 O 0.7282(9) 0.169(2) 0.7486(11) 0.0830 Uiso
O25_3 O 0.6604(8) 0.072(2) 0.7778(10) 0.0830 Uiso
H4_3 H 0.880626 0.0506137 0.655537 . .
H19_3 H 0.708918 0.106042 0.870321 . .
H22_3 H 0.676487 0.126003 0.935437 . .
H27_3 H 0.880626 0.0506137 0.344463 . .
O1_3 O 0.7617(8) 0.855(2) 0.8227(10) 0.0830 Uiso
O2_3 O 0.7137(7) 0.996(2) 0.8111(10) 0.0830 Uiso
Zr2_3 Zr 0.78163(19) 0.8392(5) 0.7699(2) 0.0300 Uiso
O3_3 O 0.7636(11) 1.0000 0.7500 0.0830 Uiso
O4_3 O 0.7718(9) 0.669(2) 0.7486(11) 0.0830 Uiso
O5_3 O 0.8162(8) 0.851(2) 0.7246(9) 0.0830 Uiso
C1_3 C 0.8292(8) 0.930(2) 0.7000(9) 0.0900 Uiso
C2_3 C 0.8550(7) 0.886(2) 0.6656(8) 0.0900 Uiso
C3_3 C 0.8534(7) 0.7698(19) 0.6547(8) 0.0900 Uiso
C4_3 C 0.8751(7) 0.729(2) 0.6234(8) 0.0900 Uiso
C5_3 C 0.8784(7) 0.9617(19) 0.6455(9) 0.0900 Uiso
C6_3 C 0.8990(8) 0.923(2) 0.6124(9) 0.0900 Uiso
C7_3 C 0.8985(8) 0.804(2) 0.6041(10) 0.0900 Uiso
C8_3 C 0.9230(6) 0.759(2) 0.5746(6) 0.0950 Uiso
C9_3 C 0.9145(5) 0.756(2) 0.5336(5) 0.0950 Uiso
C10_3 C 0.8794(6) 0.787(3) 0.5205(3) 0.0950 Uiso
C11_3 C 0.9586(6) 0.732(2) 0.5824(7) 0.0950 Uiso
C12_3 C 0.9709(7) 0.739(2) 0.6227(6) 0.0950 Uiso
N1_3 N 0.9347(6) 0.739(3) 0.5000 0.0950 Uiso
N2_3 N 0.9855(6) 0.688(2) 0.5596(4) 0.0950 Uiso
Cu1_3 Cu 0.9847(3) 0.6826(11) 0.5000 0.0530 Uiso
C25_3 C 0.7418(15) 0.922(7) 0.8398(14) 0.3200 Uiso
C26_3 C 0.7223(10) 0.928(4) 0.8806(9) 0.3200 Uiso
C29_3 C 0.6858(13) 0.951(6) 0.9534(3) 0.3200 Uiso
C30_3 C 0.7013(15) 0.847(5) 0.9432(13) 0.3200 Uiso
C31_3 C 0.7195(14) 0.835(3) 0.9067(15) 0.3200 Uiso
O9_3 O 0.8162(8) 0.851(2) 0.2754(9) 0.0830 Uiso
C32_3 C 0.8292(8) 0.930(2) 0.3000(9) 0.0900 Uiso
C33_3 C 0.8550(7) 0.886(2) 0.3344(8) 0.0900 Uiso
C34_3 C 0.8534(7) 0.7698(19) 0.3453(8) 0.0900 Uiso
C35_3 C 0.8751(7) 0.729(2) 0.3766(8) 0.0900 Uiso
C36_3 C 0.8784(7) 0.9617(19) 0.3545(9) 0.0900 Uiso
C37_3 C 0.8990(8) 0.923(2) 0.3876(9) 0.0900 Uiso
C38_3 C 0.8985(8) 0.804(2) 0.3959(10) 0.0900 Uiso
C39_3 C 0.9230(6) 0.759(2) 0.4254(6) 0.0950 Uiso
C40_3 C 0.9145(5) 0.756(2) 0.4664(5) 0.0950 Uiso
C41_3 C 0.8794(6) 0.787(3) 0.4795(3) 0.0950 Uiso
C42_3 C 0.9586(6) 0.732(2) 0.4176(7) 0.0950 Uiso
C43_3 C 0.9709(7) 0.739(2) 0.3773(6) 0.0950 Uiso
N4_3 N 0.9855(6) 0.688(2) 0.4404(4) 0.0950 Uiso
Zr7_3 Zr 0.7910(2) 0.5000 0.7500 0.0300 Uiso
O20_3 O 0.7282(9) 0.831(2) 0.7514(11) 0.0830 Uiso
O23_3 O 0.8215(8) 0.9605(19) 0.8011(10) 0.0830 Uiso
O26_3 O 0.8193(8) 0.745(2) 0.8105(10) 0.0830 Uiso
H1_3 H 0.856685 0.807062 0.539937 . .
H2_3 H 0.873687 0.639181 0.614208 . .
H5_3 H 0.914619 0.982452 0.594043 . .
H6_3 H 0.835351 0.711557 0.670521 . .
H7_3 H 0.955702 0.769609 0.648679 . .
H13_3 H 0.955702 0.769609 0.351321 . .
H14_3 H 0.731518 0.75279 0.898642 . .
H17_3 H 0.873687 0.639181 0.385792 . .
H20_3 H 0.67141 0.959923 0.981886 . .
H21_3 H 0.699262 0.774205 0.963797 . .
H24_3 H 0.914619 0.982452 0.405957 . .
H26_3 H 0.835351 0.711557 0.329479 . .
H28_3 H 0.856685 0.807062 0.460063 . .
O1_4 O 0.2383(8) 0.145(2) 0.8227(10) 0.0830 Uiso
O2_4 O 0.2863(7) 0.004(2) 0.8111(10) 0.0830 Uiso
Zr2_4 Zr 0.21837(19) 0.1608(5) 0.7699(2) 0.0300 Uiso
O4_4 O 0.2282(9) 0.331(2) 0.7486(11) 0.0830 Uiso
O5_4 O 0.1838(8) 0.149(2) 0.7246(9) 0.0830 Uiso
C1_4 C 0.1708(8) 0.070(2) 0.7000(9) 0.0900 Uiso
C2_4 C 0.1450(7) 0.114(2) 0.6656(8) 0.0900 Uiso
C3_4 C 0.1466(7) 0.2302(19) 0.6547(8) 0.0900 Uiso
C4_4 C 0.1249(7) 0.271(2) 0.6234(8) 0.0900 Uiso
C5_4 C 0.1216(7) 0.0383(19) 0.6455(9) 0.0900 Uiso
C6_4 C 0.1010(8) 0.077(2) 0.6124(9) 0.0900 Uiso
C7_4 C 0.1015(8) 0.196(2) 0.6041(10) 0.0900 Uiso
C8_4 C 0.0770(6) 0.241(2) 0.5746(6) 0.0950 Uiso
C9_4 C 0.0855(5) 0.244(2) 0.5336(5) 0.0950 Uiso
C10_4 C 0.1206(6) 0.213(3) 0.5205(3) 0.0950 Uiso
C11_4 C 0.0414(6) 0.268(2) 0.5824(7) 0.0950 Uiso
C12_4 C 0.0291(7) 0.261(2) 0.6227(6) 0.0950 Uiso
N1_4 N 0.0653(6) 0.261(3) 0.5000 0.0950 Uiso
N2_4 N 0.0145(6) 0.312(2) 0.5596(4) 0.0950 Uiso
Cu1_4 Cu 0.0153(3) 0.3174(11) 0.5000 0.0530 Uiso
C25_4 C 0.2582(15) 0.078(7) 0.8398(14) 0.3200 Uiso
C26_4 C 0.2777(10) 0.072(4) 0.8806(9) 0.3200 Uiso
C29_4 C 0.3142(13) 0.049(6) 0.9534(3) 0.3200 Uiso
C30_4 C 0.2987(15) 0.153(5) 0.9432(13) 0.3200 Uiso
C31_4 C 0.2805(14) 0.165(3) 0.9067(15) 0.3200 Uiso
O9_4 O 0.1838(8) 0.149(2) 0.2754(9) 0.0830 Uiso
C32_4 C 0.1708(8) 0.070(2) 0.3000(9) 0.0900 Uiso
C33_4 C 0.1450(7) 0.114(2) 0.3344(8) 0.0900 Uiso
C34_4 C 0.1466(7) 0.2302(19) 0.3453(8) 0.0900 Uiso
C35_4 C 0.1249(7) 0.271(2) 0.3766(8) 0.0900 Uiso
C36_4 C 0.1216(7) 0.0383(19) 0.3545(9) 0.0900 Uiso
C37_4 C 0.1010(8) 0.077(2) 0.3876(9) 0.0900 Uiso
C38_4 C 0.1015(8) 0.196(2) 0.3959(10) 0.0900 Uiso
C39_4 C 0.0770(6) 0.241(2) 0.4254(6) 0.0950 Uiso
C40_4 C 0.0855(5) 0.244(2) 0.4664(5) 0.0950 Uiso
C41_4 C 0.1206(6) 0.213(3) 0.4795(3) 0.0950 Uiso
C42_4 C 0.0414(6) 0.268(2) 0.4176(7) 0.0950 Uiso
C43_4 C 0.0291(7) 0.261(2) 0.3773(6) 0.0950 Uiso
N4_4 N 0.0145(6) 0.312(2) 0.4404(4) 0.0950 Uiso
O20_4 O 0.2718(9) 0.169(2) 0.7514(11) 0.0830 Uiso
O23_4 O 0.1785(8) 0.0395(19) 0.8011(10) 0.0830 Uiso
O26_4 O 0.1807(8) 0.255(2) 0.8105(10) 0.0830 Uiso
H1_4 H 0.143315 0.192938 0.539937 . .
H2_4 H 0.126313 0.360819 0.614208 . .
H5_4 H 0.085381 0.0175484 0.594043 . .
H6_4 H 0.164649 0.288443 0.670521 . .
H7_4 H 0.0442977 0.230391 0.648679 . .
H13_4 H 0.0442977 0.230391 0.351321 . .
H14_4 H 0.268482 0.24721 0.898642 . .
H17_4 H 0.126313 0.360819 0.385792 . .
H20_4 H 0.32859 0.0400773 0.981886 . .
H21_4 H 0.300738 0.225795 0.963797 . .
H24_4 H 0.085381 0.0175484 0.405957 . .
H26_4 H 0.164649 0.288443 0.329479 . .
H28_4 H 0.143315 0.192938 0.460063 . .
C27_4 C 0.2932(13) 0.967(4) 0.8908(11) 0.3200 Uiso
C28_4 C 0.3114(15) 0.956(5) 0.9273(11) 0.3200 Uiso
O10_4 O 0.1785(8) 0.9605(19) 0.3011(10) 0.0830 Uiso
O25_4 O 0.3396(8) 0.928(2) 0.7778(10) 0.0830 Uiso
H4_4 H 0.119374 0.949386 0.655537 . .
H19_4 H 0.291082 0.893958 0.870321 . .
H22_4 H 0.323513 0.873997 0.935437 . .
H27_4 H 0.119374 0.949386 0.344463 . .
C13_4 C 0.9944(7) 0.300(2) 0.6230(6) 0.0950 Uiso
C14_4 C 0.9855(6) 0.333(2) 0.5831(7) 0.0950 Uiso
C15_4 C 0.9519(6) 0.376(2) 0.5739(6) 0.0950 Uiso
C16_4 C 0.9450(5) 0.394(2) 0.5331(5) 0.0950 Uiso
C17_4 C 0.9117(6) 0.439(3) 0.5204(3) 0.0950 Uiso
N3_4 N 0.9651(6) 0.372(3) 0.5000 0.0950 Uiso
C18_4 C 0.9212(7) 0.374(2) 0.6047(8) 0.0900 Uiso
C19_4 C 0.8943(6) 0.289(2) 0.6013(8) 0.0900 Uiso
C20_4 C 0.8686(7) 0.283(2) 0.6317(8) 0.0900 Uiso
C21_4 C 0.9206(7) 0.449(2) 0.6380(8) 0.0900 Uiso
C22_4 C 0.8956(7) 0.438(2) 0.6689(8) 0.0900 Uiso
C23_4 C 0.8670(7) 0.359(2) 0.6650(8) 0.0900 Uiso
C24_4 C 0.8392(8) 0.342(3) 0.6984(9) 0.0900 Uiso
O7_4 O 0.8396(8) 0.428(2) 0.7222(10) 0.0830 Uiso
O8_4 O 0.8193(8) 0.255(2) 0.6895(10) 0.0830 Uiso
C44_4 C 0.9944(7) 0.300(2) 0.3770(6) 0.0950 Uiso
C45_4 C 0.9855(6) 0.333(2) 0.4169(7) 0.0950 Uiso
C46_4 C 0.9519(6) 0.376(2) 0.4261(6) 0.0950 Uiso
C47_4 C 0.9450(5) 0.394(2) 0.4669(5) 0.0950 Uiso
C48_4 C 0.9117(6) 0.439(3) 0.4796(3) 0.0950 Uiso
C49_4 C 0.9212(7) 0.374(2) 0.3953(8) 0.0900 Uiso
C50_4 C 0.8943(6) 0.289(2) 0.3987(8) 0.0900 Uiso
C51_4 C 0.8686(7) 0.283(2) 0.3683(8) 0.0900 Uiso
C52_4 C 0.9206(7) 0.449(2) 0.3620(8) 0.0900 Uiso
C53_4 C 0.8956(7) 0.438(2) 0.3311(8) 0.0900 Uiso
C54_4 C 0.8670(7) 0.359(2) 0.3350(8) 0.0900 Uiso
C55_4 C 0.8392(8) 0.342(3) 0.3016(9) 0.0900 Uiso
O12_4 O 0.8193(8) 0.255(2) 0.3105(10) 0.0830 Uiso
O13_4 O 0.7617(8) 0.145(2) 0.6773(10) 0.0830 Uiso
O15_4 O 0.7718(9) 0.331(2) 0.7514(11) 0.0830 Uiso
C56_4 C 0.7418(15) 0.078(7) 0.6602(14) 0.3200 Uiso
C57_4 C 0.7223(10) 0.072(4) 0.6194(9) 0.3200 Uiso
C60_4 C 0.6858(13) 0.049(6) 0.5466(3) 0.3200 Uiso
C61_4 C 0.7013(15) 0.153(5) 0.5568(13) 0.3200 Uiso
C62_4 C 0.7195(14) 0.165(3) 0.5933(15) 0.3200 Uiso
O21_4 O 0.8162(8) 0.149(2) 0.7754(9) 0.0830 Uiso
H3_4 H 0.89004 0.46827 0.539927 . .
H8_4 H 0.97686 0.304685 0.649275 . .
H9_4 H 0.893712 0.230089 0.5757 . .
H10_4 H 0.84845 0.215497 0.629711 . .
H11_4 H 0.940327 0.517852 0.639647 . .
H12_4 H 0.898028 0.490197 0.696114 . .
H15_4 H 0.97686 0.304685 0.350725 . .
H16_4 H 0.84845 0.215497 0.370289 . .
H18_4 H 0.940327 0.517852 0.360353 . .
H23_4 H 0.89004 0.46827 0.460073 . .
H25_4 H 0.893712 0.230089 0.4243 . .
H30_4 H 0.898028 0.490197 0.303886 . .
H32_4 H 0.699262 0.225795 0.536203 . .
H33_4 H 0.731518 0.24721 0.601358 . .
H34_4 H 0.67141 0.0400773 0.518114 . .
C58_4 C 0.7068(13) 0.967(4) 0.6092(11) 0.3200 Uiso
C59_4 C 0.6886(15) 0.956(5) 0.5727(11) 0.3200 Uiso
H29_4 H 0.676487 0.873997 0.564563 . .
H31_4 H 0.708918 0.893958 0.629679 . .
O10_5 O 0.1785(8) 0.0395(19) 0.1989(10) 0.0830 Uiso
H27_5 H 0.119374 0.0506137 0.155537 . .
H4_5 H 0.119374 0.0506137 0.844463 . .
N1_5 N 0.0653(6) 0.739(3) 0.0000 0.0950 Uiso
Cu1_5 Cu 0.0153(3) 0.6826(11) 0.0000 0.0530 Uiso
O9_5 O 0.1838(8) 0.851(2) 0.2246(9) 0.0830 Uiso
C32_5 C 0.1708(8) 0.930(2) 0.2000(9) 0.0900 Uiso
C33_5 C 0.1450(7) 0.886(2) 0.1656(8) 0.0900 Uiso
C34_5 C 0.1466(7) 0.7698(19) 0.1547(8) 0.0900 Uiso
C35_5 C 0.1249(7) 0.729(2) 0.1234(8) 0.0900 Uiso
C36_5 C 0.1216(7) 0.9617(19) 0.1455(9) 0.0900 Uiso
C37_5 C 0.1010(8) 0.923(2) 0.1124(9) 0.0900 Uiso
C38_5 C 0.1015(8) 0.804(2) 0.1041(10) 0.0900 Uiso
C39_5 C 0.0770(6) 0.759(2) 0.0746(6) 0.0950 Uiso
C40_5 C 0.0855(5) 0.756(2) 0.0336(5) 0.0950 Uiso
C41_5 C 0.1206(6) 0.787(3) 0.0205(3) 0.0950 Uiso
C42_5 C 0.0414(6) 0.732(2) 0.0824(7) 0.0950 Uiso
C43_5 C 0.0291(7) 0.739(2) 0.1227(6) 0.0950 Uiso
N4_5 N 0.0145(6) 0.688(2) 0.0596(4) 0.0950 Uiso
H13_5 H 0.0442977 0.769609 0.148679 . .
H17_5 H 0.126313 0.639181 0.114208 . .
H24_5 H 0.085381 0.982452 0.0940429 . .
H26_5 H 0.164649 0.711557 0.170521 . .
H28_5 H 0.143315 0.807062 0.0399372 . .
C1_5 C 0.1708(8) 0.930(2) 0.8000(9) 0.0900 Uiso
C2_5 C 0.1450(7) 0.886(2) 0.8344(8) 0.0900 Uiso
C3_5 C 0.1466(7) 0.7698(19) 0.8453(8) 0.0900 Uiso
C4_5 C 0.1249(7) 0.729(2) 0.8766(8) 0.0900 Uiso
C5_5 C 0.1216(7) 0.9617(19) 0.8545(9) 0.0900 Uiso
C6_5 C 0.1010(8) 0.923(2) 0.8876(9) 0.0900 Uiso
C7_5 C 0.1015(8) 0.804(2) 0.8959(10) 0.0900 Uiso
C8_5 C 0.0770(6) 0.759(2) 0.9254(6) 0.0950 Uiso
C9_5 C 0.0855(5) 0.756(2) 0.9664(5) 0.0950 Uiso
C10_5 C 0.1206(6) 0.787(3) 0.9795(3) 0.0950 Uiso
C11_5 C 0.0414(6) 0.732(2) 0.9176(7) 0.0950 Uiso
C12_5 C 0.0291(7) 0.739(2) 0.8773(6) 0.0950 Uiso
N1_6 N 0.0653(6) 0.739(3) 1.0000 0.0950 Uiso
N2_5 N 0.0145(6) 0.688(2) 0.9404(4) 0.0950 Uiso
Cu1_6 Cu 0.0153(3) 0.6826(11) 1.0000 0.0530 Uiso
H1_5 H 0.143315 0.807062 0.960063 . .
H2_5 H 0.126313 0.639181 0.885792 . .
H5_5 H 0.085381 0.982452 0.905957 . .
H6_5 H 0.164649 0.711557 0.829479 . .
H7_5 H 0.0442977 0.769609 0.851321 . .
N3_5 N 0.9651(6) 0.628(3) 0.0000 0.0950 Uiso
C44_5 C 0.9944(7) 0.700(2) 0.1230(6) 0.0950 Uiso
C45_5 C 0.9855(6) 0.667(2) 0.0831(7) 0.0950 Uiso
C46_5 C 0.9519(6) 0.624(2) 0.0739(6) 0.0950 Uiso
C47_5 C 0.9450(5) 0.606(2) 0.0331(5) 0.0950 Uiso
C48_5 C 0.9117(6) 0.561(3) 0.0204(3) 0.0950 Uiso
C49_5 C 0.9212(7) 0.626(2) 0.1047(8) 0.0900 Uiso
C50_5 C 0.8943(6) 0.711(2) 0.1013(8) 0.0900 Uiso
C51_5 C 0.8686(7) 0.717(2) 0.1317(8) 0.0900 Uiso
C52_5 C 0.9206(7) 0.551(2) 0.1380(8) 0.0900 Uiso
C53_5 C 0.8956(7) 0.562(2) 0.1689(8) 0.0900 Uiso
C54_5 C 0.8670(7) 0.641(2) 0.1650(8) 0.0900 Uiso
C55_5 C 0.8392(8) 0.658(3) 0.1984(9) 0.0900 Uiso
O12_5 O 0.8193(8) 0.745(2) 0.1895(10) 0.0830 Uiso
H15_5 H 0.97686 0.695315 0.149275 . .
H16_5 H 0.84845 0.784503 0.129711 . .
H18_5 H 0.940327 0.482148 0.139647 . .
H23_5 H 0.89004 0.53173 0.0399266 . .
H25_5 H 0.893712 0.769911 0.0757 . .
H30_5 H 0.898028 0.509803 0.196114 . .
C13_5 C 0.9944(7) 0.700(2) 0.8770(6) 0.0950 Uiso
C14_5 C 0.9855(6) 0.667(2) 0.9169(7) 0.0950 Uiso
C15_5 C 0.9519(6) 0.624(2) 0.9261(6) 0.0950 Uiso
C16_5 C 0.9450(5) 0.606(2) 0.9669(5) 0.0950 Uiso
C17_5 C 0.9117(6) 0.561(3) 0.9796(3) 0.0950 Uiso
N3_6 N 0.9651(6) 0.628(3) 1.0000 0.0950 Uiso
C18_5 C 0.9212(7) 0.626(2) 0.8953(8) 0.0900 Uiso
C19_5 C 0.8943(6) 0.711(2) 0.8987(8) 0.0900 Uiso
C20_5 C 0.8686(7) 0.717(2) 0.8683(8) 0.0900 Uiso
C21_5 C 0.9206(7) 0.551(2) 0.8620(8) 0.0900 Uiso
C22_5 C 0.8956(7) 0.562(2) 0.8311(8) 0.0900 Uiso
C23_5 C 0.8670(7) 0.641(2) 0.8350(8) 0.0900 Uiso
C24_5 C 0.8392(8) 0.658(3) 0.8016(9) 0.0900 Uiso
O7_5 O 0.8396(8) 0.572(2) 0.7778(10) 0.0830 Uiso
H3_5 H 0.89004 0.53173 0.960073 . .
H8_5 H 0.97686 0.695315 0.850725 . .
H9_5 H 0.893712 0.769911 0.9243 . .
H10_5 H 0.84845 0.784503 0.870289 . .
H11_5 H 0.940327 0.482148 0.860353 . .
H12_5 H 0.898028 0.509803 0.803886 . .
N3_7 N 0.0349(6) 0.372(3) 0.0000 0.0950 Uiso
C44_6 C 0.0056(7) 0.300(2) 0.1230(6) 0.0950 Uiso
C45_6 C 0.0145(6) 0.333(2) 0.0831(7) 0.0950 Uiso
C46_6 C 0.0481(6) 0.376(2) 0.0739(6) 0.0950 Uiso
C47_6 C 0.0550(5) 0.394(2) 0.0331(5) 0.0950 Uiso
C48_6 C 0.0883(6) 0.439(3) 0.0204(3) 0.0950 Uiso
C49_6 C 0.0788(7) 0.374(2) 0.1047(8) 0.0900 Uiso
C50_6 C 0.1057(6) 0.289(2) 0.1013(8) 0.0900 Uiso
C51_6 C 0.1314(7) 0.283(2) 0.1317(8) 0.0900 Uiso
C52_6 C 0.0794(7) 0.449(2) 0.1380(8) 0.0900 Uiso
C53_6 C 0.1044(7) 0.438(2) 0.1689(8) 0.0900 Uiso
C54_6 C 0.1330(7) 0.359(2) 0.1650(8) 0.0900 Uiso
C55_6 C 0.1608(8) 0.342(3) 0.1984(9) 0.0900 Uiso
O12_6 O 0.1807(8) 0.255(2) 0.1895(10) 0.0830 Uiso
H15_6 H 0.0231399 0.304685 0.149275 . .
H16_6 H 0.15155 0.215497 0.129711 . .
H18_6 H 0.0596731 0.517852 0.139647 . .
H23_6 H 0.10996 0.46827 0.0399266 . .
H25_6 H 0.106288 0.230089 0.0757 . .
H30_6 H 0.101972 0.490197 0.196114 . .
C13_6 C 0.0056(7) 0.300(2) 0.8770(6) 0.0950 Uiso
C14_6 C 0.0145(6) 0.333(2) 0.9169(7) 0.0950 Uiso
C15_6 C 0.0481(6) 0.376(2) 0.9261(6) 0.0950 Uiso
C16_6 C 0.0550(5) 0.394(2) 0.9669(5) 0.0950 Uiso
C17_6 C 0.0883(6) 0.439(3) 0.9796(3) 0.0950 Uiso
N3_8 N 0.0349(6) 0.372(3) 1.0000 0.0950 Uiso
C18_6 C 0.0788(7) 0.374(2) 0.8953(8) 0.0900 Uiso
C19_6 C 0.1057(6) 0.289(2) 0.8987(8) 0.0900 Uiso
C20_6 C 0.1314(7) 0.283(2) 0.8683(8) 0.0900 Uiso
C21_6 C 0.0794(7) 0.449(2) 0.8620(8) 0.0900 Uiso
C22_6 C 0.1044(7) 0.438(2) 0.8311(8) 0.0900 Uiso
C23_6 C 0.1330(7) 0.359(2) 0.8350(8) 0.0900 Uiso
C24_6 C 0.1608(8) 0.342(3) 0.8016(9) 0.0900 Uiso
O7_6 O 0.1604(8) 0.428(2) 0.7778(10) 0.0830 Uiso
H3_6 H 0.10996 0.46827 0.960073 . .
H8_6 H 0.0231399 0.304685 0.850725 . .
H9_6 H 0.106288 0.230089 0.9243 . .
H10_6 H 0.15155 0.215497 0.870289 . .
H11_6 H 0.0596731 0.517852 0.860353 . .
H12_6 H 0.101972 0.490197 0.803886 . .
N1_7 N 0.9347(6) 0.261(3) 0.0000 0.0950 Uiso
Cu1_7 Cu 0.9847(3) 0.3174(11) 0.0000 0.0530 Uiso
O9_6 O 0.8162(8) 0.149(2) 0.2246(9) 0.0830 Uiso
C32_6 C 0.8292(8) 0.070(2) 0.2000(9) 0.0900 Uiso
C33_6 C 0.8550(7) 0.114(2) 0.1656(8) 0.0900 Uiso
C34_6 C 0.8534(7) 0.2302(19) 0.1547(8) 0.0900 Uiso
C35_6 C 0.8751(7) 0.271(2) 0.1234(8) 0.0900 Uiso
C36_6 C 0.8784(7) 0.0383(19) 0.1455(9) 0.0900 Uiso
C37_6 C 0.8990(8) 0.077(2) 0.1124(9) 0.0900 Uiso
C38_6 C 0.8985(8) 0.196(2) 0.1041(10) 0.0900 Uiso
C39_6 C 0.9230(6) 0.241(2) 0.0746(6) 0.0950 Uiso
C40_6 C 0.9145(5) 0.244(2) 0.0336(5) 0.0950 Uiso
C41_6 C 0.8794(6) 0.213(3) 0.0205(3) 0.0950 Uiso
C42_6 C 0.9586(6) 0.268(2) 0.0824(7) 0.0950 Uiso
C43_6 C 0.9709(7) 0.261(2) 0.1227(6) 0.0950 Uiso
N4_6 N 0.9855(6) 0.312(2) 0.0596(4) 0.0950 Uiso
H13_6 H 0.955702 0.230391 0.148679 . .
H17_6 H 0.873687 0.360819 0.114208 . .
H24_6 H 0.914619 0.0175484 0.0940429 . .
H26_6 H 0.835351 0.288443 0.170521 . .
H28_6 H 0.856685 0.192938 0.0399372 . .
C1_6 C 0.8292(8) 0.070(2) 0.8000(9) 0.0900 Uiso
C2_6 C 0.8550(7) 0.114(2) 0.8344(8) 0.0900 Uiso
C3_6 C 0.8534(7) 0.2302(19) 0.8453(8) 0.0900 Uiso
C4_6 C 0.8751(7) 0.271(2) 0.8766(8) 0.0900 Uiso
C5_6 C 0.8784(7) 0.0383(19) 0.8545(9) 0.0900 Uiso
C6_6 C 0.8990(8) 0.077(2) 0.8876(9) 0.0900 Uiso
C7_6 C 0.8985(8) 0.196(2) 0.8959(10) 0.0900 Uiso
C8_6 C 0.9230(6) 0.241(2) 0.9254(6) 0.0950 Uiso
C9_6 C 0.9145(5) 0.244(2) 0.9664(5) 0.0950 Uiso
C10_6 C 0.8794(6) 0.213(3) 0.9795(3) 0.0950 Uiso
C11_6 C 0.9586(6) 0.268(2) 0.9176(7) 0.0950 Uiso
C12_6 C 0.9709(7) 0.261(2) 0.8773(6) 0.0950 Uiso
N1_8 N 0.9347(6) 0.261(3) 1.0000 0.0950 Uiso
N2_6 N 0.9855(6) 0.312(2) 0.9404(4) 0.0950 Uiso
Cu1_8 Cu 0.9847(3) 0.3174(11) 1.0000 0.0530 Uiso
H1_6 H 0.856685 0.192938 0.960063 . .
H2_6 H 0.873687 0.360819 0.885792 . .
H5_6 H 0.914619 0.0175484 0.905957 . .
H6_6 H 0.835351 0.288443 0.829479 . .
H7_6 H 0.955702 0.230391 0.851321 . .
O10_6 O 0.8215(8) 0.9605(19) 0.1989(10) 0.0830 Uiso
H27_6 H 0.880626 0.949386 0.155537 . .
H4_6 H 0.880626 0.949386 0.844463 . .
C1_7 C 0.3292(8) 0.430(2) 0.2000(9) 0.0900 Uiso
C2_7 C 0.3550(7) 0.386(2) 0.1656(8) 0.0900 Uiso
C3_7 C 0.3534(7) 0.2698(19) 0.1547(8) 0.0900 Uiso
C4_7 C 0.3751(7) 0.229(2) 0.1234(8) 0.0900 Uiso
C5_7 C 0.3784(7) 0.4617(19) 0.1455(9) 0.0900 Uiso
C6_7 C 0.3990(8) 0.423(2) 0.1124(9) 0.0900 Uiso
C7_7 C 0.3985(8) 0.304(2) 0.1041(10) 0.0900 Uiso
C8_7 C 0.4230(6) 0.259(2) 0.0746(6) 0.0950 Uiso
C9_7 C 0.4145(5) 0.256(2) 0.0336(5) 0.0950 Uiso
C10_7 C 0.3794(6) 0.287(3) 0.0205(3) 0.0950 Uiso
C11_7 C 0.4586(6) 0.232(2) 0.0824(7) 0.0950 Uiso
C12_7 C 0.4709(7) 0.239(2) 0.1227(6) 0.0950 Uiso
C13_7 C 0.5056(7) 0.200(2) 0.1230(6) 0.0950 Uiso
C14_7 C 0.5145(6) 0.167(2) 0.0831(7) 0.0950 Uiso
C15_7 C 0.5481(6) 0.124(2) 0.0739(6) 0.0950 Uiso
C16_7 C 0.5550(5) 0.106(2) 0.0331(5) 0.0950 Uiso
C17_7 C 0.5883(6) 0.061(3) 0.0204(3) 0.0950 Uiso
N1_9 N 0.4347(6) 0.239(3) 0.0000 0.0950 Uiso
N2_7 N 0.4855(6) 0.188(2) 0.0596(4) 0.0950 Uiso
N3_9 N 0.5349(6) 0.128(3) 0.0000 0.0950 Uiso
Cu1_9 Cu 0.4847(3) 0.1826(11) 0.0000 0.0530 Uiso
C18_7 C 0.5788(7) 0.126(2) 0.1047(8) 0.0900 Uiso
C19_7 C 0.6057(6) 0.211(2) 0.1013(8) 0.0900 Uiso
C20_7 C 0.6314(7) 0.217(2) 0.1317(8) 0.0900 Uiso
C21_7 C 0.5794(7) 0.051(2) 0.1380(8) 0.0900 Uiso
C22_7 C 0.6044(7) 0.062(2) 0.1689(8) 0.0900 Uiso
C23_7 C 0.6330(7) 0.141(2) 0.1650(8) 0.0900 Uiso
C24_7 C 0.6608(8) 0.158(3) 0.1984(9) 0.0900 Uiso
O7_7 O 0.6604(8) 0.072(2) 0.2222(10) 0.0830 Uiso
H1_7 H 0.356685 0.307062 0.0399372 . .
H2_7 H 0.373687 0.139181 0.114208 . .
H3_7 H 0.60996 0.0317297 0.0399266 . .
H4_7 H 0.380626 0.550614 0.155537 . .
H5_7 H 0.414619 0.482452 0.0940429 . .
H6_7 H 0.335351 0.211557 0.170521 . .
H7_7 H 0.455702 0.269609 0.148679 . .
H8_7 H 0.52314 0.195315 0.149275 . .
H9_7 H 0.606288 0.269911 0.0757 . .
H10_7 H 0.65155 0.284503 0.129711 . .
H12_7 H 0.601972 0.00980319 0.196114 . .
N1_10 N 0.4347(6) 0.239(3) 1.0000 0.0950 Uiso
N3_10 N 0.5349(6) 0.128(3) 1.0000 0.0950 Uiso
Cu1_10 Cu 0.4847(3) 0.1826(11) 1.0000 0.0530 Uiso
O9_7 O 0.3162(8) 0.351(2) 0.7754(9) 0.0830 Uiso
C32_7 C 0.3292(8) 0.430(2) 0.8000(9) 0.0900 Uiso
O10_7 O 0.3215(8) 0.5395(19) 0.8011(10) 0.0830 Uiso
C33_7 C 0.3550(7) 0.386(2) 0.8344(8) 0.0900 Uiso
C34_7 C 0.3534(7) 0.2698(19) 0.8453(8) 0.0900 Uiso
C35_7 C 0.3751(7) 0.229(2) 0.8766(8) 0.0900 Uiso
C36_7 C 0.3784(7) 0.4617(19) 0.8545(9) 0.0900 Uiso
C37_7 C 0.3990(8) 0.423(2) 0.8876(9) 0.0900 Uiso
C38_7 C 0.3985(8) 0.304(2) 0.8959(10) 0.0900 Uiso
C39_7 C 0.4230(6) 0.259(2) 0.9254(6) 0.0950 Uiso
C40_7 C 0.4145(5) 0.256(2) 0.9664(5) 0.0950 Uiso
C41_7 C 0.3794(6) 0.287(3) 0.9795(3) 0.0950 Uiso
C42_7 C 0.4586(6) 0.232(2) 0.9176(7) 0.0950 Uiso
C43_7 C 0.4709(7) 0.239(2) 0.8773(6) 0.0950 Uiso
C44_7 C 0.5056(7) 0.200(2) 0.8770(6) 0.0950 Uiso
C45_7 C 0.5145(6) 0.167(2) 0.9169(7) 0.0950 Uiso
C46_7 C 0.5481(6) 0.124(2) 0.9261(6) 0.0950 Uiso
C47_7 C 0.5550(5) 0.106(2) 0.9669(5) 0.0950 Uiso
C48_7 C 0.5883(6) 0.061(3) 0.9796(3) 0.0950 Uiso
N4_7 N 0.4855(6) 0.188(2) 0.9404(4) 0.0950 Uiso
C49_7 C 0.5788(7) 0.126(2) 0.8953(8) 0.0900 Uiso
C50_7 C 0.6057(6) 0.211(2) 0.8987(8) 0.0900 Uiso
C51_7 C 0.6314(7) 0.217(2) 0.8683(8) 0.0900 Uiso
C52_7 C 0.5794(7) 0.051(2) 0.8620(8) 0.0900 Uiso
C53_7 C 0.6044(7) 0.062(2) 0.8311(8) 0.0900 Uiso
C54_7 C 0.6330(7) 0.141(2) 0.8350(8) 0.0900 Uiso
C55_7 C 0.6608(8) 0.158(3) 0.8016(9) 0.0900 Uiso
O12_7 O 0.6807(8) 0.245(2) 0.8105(10) 0.0830 Uiso
H13_7 H 0.455702 0.269609 0.851321 . .
H15_7 H 0.52314 0.195315 0.850725 . .
H16_7 H 0.65155 0.284503 0.870289 . .
H17_7 H 0.373687 0.139181 0.885792 . .
H23_7 H 0.60996 0.0317297 0.960073 . .
H24_7 H 0.414619 0.482452 0.905957 . .
H25_7 H 0.606288 0.269911 0.9243 . .
H26_7 H 0.335351 0.211557 0.829479 . .
H27_7 H 0.380626 0.550614 0.844463 . .
H28_7 H 0.356685 0.307062 0.960063 . .
H30_7 H 0.601972 0.00980319 0.803886 . .
H11_7 H 0.559673 0.982148 0.139647 . .
H18_7 H 0.559673 0.982148 0.860353 . .
H11_8 H 0.440327 0.0178521 0.139647 . .
H18_8 H 0.440327 0.0178521 0.860353 . .
C1_8 C 0.6708(8) 0.570(2) 0.2000(9) 0.0900 Uiso
C2_8 C 0.6450(7) 0.614(2) 0.1656(8) 0.0900 Uiso
C3_8 C 0.6466(7) 0.7302(19) 0.1547(8) 0.0900 Uiso
C4_8 C 0.6249(7) 0.771(2) 0.1234(8) 0.0900 Uiso
C5_8 C 0.6216(7) 0.5383(19) 0.1455(9) 0.0900 Uiso
C6_8 C 0.6010(8) 0.577(2) 0.1124(9) 0.0900 Uiso
C7_8 C 0.6015(8) 0.696(2) 0.1041(10) 0.0900 Uiso
C8_8 C 0.5770(6) 0.741(2) 0.0746(6) 0.0950 Uiso
C9_8 C 0.5855(5) 0.744(2) 0.0336(5) 0.0950 Uiso
C10_8 C 0.6206(6) 0.713(3) 0.0205(3) 0.0950 Uiso
C11_8 C 0.5414(6) 0.768(2) 0.0824(7) 0.0950 Uiso
C12_8 C 0.5291(7) 0.761(2) 0.1227(6) 0.0950 Uiso
C13_8 C 0.4944(7) 0.800(2) 0.1230(6) 0.0950 Uiso
C14_8 C 0.4855(6) 0.833(2) 0.0831(7) 0.0950 Uiso
C15_8 C 0.4519(6) 0.876(2) 0.0739(6) 0.0950 Uiso
C16_8 C 0.4450(5) 0.894(2) 0.0331(5) 0.0950 Uiso
C17_8 C 0.4117(6) 0.939(3) 0.0204(3) 0.0950 Uiso
N1_11 N 0.5653(6) 0.761(3) 0.0000 0.0950 Uiso
N2_8 N 0.5145(6) 0.812(2) 0.0596(4) 0.0950 Uiso
N3_11 N 0.4651(6) 0.872(3) 0.0000 0.0950 Uiso
Cu1_11 Cu 0.5153(3) 0.8174(11) 0.0000 0.0530 Uiso
C18_8 C 0.4212(7) 0.874(2) 0.1047(8) 0.0900 Uiso
C19_8 C 0.3943(6) 0.789(2) 0.1013(8) 0.0900 Uiso
C20_8 C 0.3686(7) 0.783(2) 0.1317(8) 0.0900 Uiso
C21_8 C 0.4206(7) 0.949(2) 0.1380(8) 0.0900 Uiso
C22_8 C 0.3956(7) 0.938(2) 0.1689(8) 0.0900 Uiso
C23_8 C 0.3670(7) 0.859(2) 0.1650(8) 0.0900 Uiso
C24_8 C 0.3392(8) 0.842(3) 0.1984(9) 0.0900 Uiso
O7_8 O 0.3396(8) 0.928(2) 0.2222(10) 0.0830 Uiso
H1_8 H 0.643315 0.692938 0.0399372 . .
H2_8 H 0.626313 0.860819 0.114208 . .
H3_8 H 0.39004 0.96827 0.0399266 . .
H4_8 H 0.619374 0.449386 0.155537 . .
H5_8 H 0.585381 0.517548 0.0940429 . .
H6_8 H 0.664649 0.788443 0.170521 . .
H7_8 H 0.544298 0.730391 0.148679 . .
H8_8 H 0.47686 0.804685 0.149275 . .
H9_8 H 0.393712 0.730089 0.0757 . .
H10_8 H 0.34845 0.715497 0.129711 . .
H12_8 H 0.398028 0.990197 0.196114 . .
N1_12 N 0.5653(6) 0.761(3) 1.0000 0.0950 Uiso
N3_12 N 0.4651(6) 0.872(3) 1.0000 0.0950 Uiso
Cu1_12 Cu 0.5153(3) 0.8174(11) 1.0000 0.0530 Uiso
O9_8 O 0.6838(8) 0.649(2) 0.7754(9) 0.0830 Uiso
C32_8 C 0.6708(8) 0.570(2) 0.8000(9) 0.0900 Uiso
O10_8 O 0.6785(8) 0.4605(19) 0.8011(10) 0.0830 Uiso
C33_8 C 0.6450(7) 0.614(2) 0.8344(8) 0.0900 Uiso
C34_8 C 0.6466(7) 0.7302(19) 0.8453(8) 0.0900 Uiso
C35_8 C 0.6249(7) 0.771(2) 0.8766(8) 0.0900 Uiso
C36_8 C 0.6216(7) 0.5383(19) 0.8545(9) 0.0900 Uiso
C37_8 C 0.6010(8) 0.577(2) 0.8876(9) 0.0900 Uiso
C38_8 C 0.6015(8) 0.696(2) 0.8959(10) 0.0900 Uiso
C39_8 C 0.5770(6) 0.741(2) 0.9254(6) 0.0950 Uiso
C40_8 C 0.5855(5) 0.744(2) 0.9664(5) 0.0950 Uiso
C41_8 C 0.6206(6) 0.713(3) 0.9795(3) 0.0950 Uiso
C42_8 C 0.5414(6) 0.768(2) 0.9176(7) 0.0950 Uiso
C43_8 C 0.5291(7) 0.761(2) 0.8773(6) 0.0950 Uiso
C44_8 C 0.4944(7) 0.800(2) 0.8770(6) 0.0950 Uiso
C45_8 C 0.4855(6) 0.833(2) 0.9169(7) 0.0950 Uiso
C46_8 C 0.4519(6) 0.876(2) 0.9261(6) 0.0950 Uiso
C47_8 C 0.4450(5) 0.894(2) 0.9669(5) 0.0950 Uiso
C48_8 C 0.4117(6) 0.939(3) 0.9796(3) 0.0950 Uiso
N4_8 N 0.5145(6) 0.812(2) 0.9404(4) 0.0950 Uiso
C49_8 C 0.4212(7) 0.874(2) 0.8953(8) 0.0900 Uiso
C50_8 C 0.3943(6) 0.789(2) 0.8987(8) 0.0900 Uiso
C51_8 C 0.3686(7) 0.783(2) 0.8683(8) 0.0900 Uiso
C52_8 C 0.4206(7) 0.949(2) 0.8620(8) 0.0900 Uiso
C53_8 C 0.3956(7) 0.938(2) 0.8311(8) 0.0900 Uiso
C54_8 C 0.3670(7) 0.859(2) 0.8350(8) 0.0900 Uiso
C55_8 C 0.3392(8) 0.842(3) 0.8016(9) 0.0900 Uiso
O12_8 O 0.3193(8) 0.755(2) 0.8105(10) 0.0830 Uiso
H13_8 H 0.544298 0.730391 0.851321 . .
H15_8 H 0.47686 0.804685 0.850725 . .
H16_8 H 0.34845 0.715497 0.870289 . .
H17_8 H 0.626313 0.860819 0.885792 . .
H23_8 H 0.39004 0.96827 0.960073 . .
H24_8 H 0.585381 0.517548 0.905957 . .
H25_8 H 0.393712 0.730089 0.9243 . .
H26_8 H 0.664649 0.788443 0.829479 . .
H27_8 H 0.619374 0.449386 0.844463 . .
H28_8 H 0.643315 0.692938 0.960063 . .
H30_8 H 0.398028 0.990197 0.803886 . .
O1_5 O 0.2617(8) 0.645(2) 0.8227(10) 0.0830 Uiso
O2_5 O 0.2137(7) 0.504(2) 0.8111(10) 0.0830 Uiso
O3_4 O 0.2636(11) 0.5000 0.7500 0.0830 Uiso
C25_5 C 0.2418(15) 0.578(7) 0.8398(14) 0.3200 Uiso
C26_5 C 0.2223(10) 0.572(4) 0.8806(9) 0.3200 Uiso
C27_5 C 0.2068(13) 0.467(4) 0.8908(11) 0.3200 Uiso
C28_5 C 0.1886(15) 0.456(5) 0.9273(11) 0.3200 Uiso
C29_5 C 0.1858(13) 0.549(6) 0.9534(3) 0.3200 Uiso
C30_5 C 0.2013(15) 0.653(5) 0.9432(13) 0.3200 Uiso
C31_5 C 0.2195(14) 0.665(3) 0.9067(15) 0.3200 Uiso
O13_5 O 0.7383(8) 0.645(2) 0.6773(10) 0.0830 Uiso
O14_3 O 0.7863(7) 0.504(2) 0.6889(10) 0.0830 Uiso
C56_5 C 0.7582(15) 0.578(7) 0.6602(14) 0.3200 Uiso
C57_5 C 0.7777(10) 0.572(4) 0.6194(9) 0.3200 Uiso
C58_5 C 0.7932(13) 0.467(4) 0.6092(11) 0.3200 Uiso
C59_5 C 0.8114(15) 0.456(5) 0.5727(11) 0.3200 Uiso
C60_5 C 0.8142(13) 0.549(6) 0.5466(3) 0.3200 Uiso
C61_5 C 0.7987(15) 0.653(5) 0.5568(13) 0.3200 Uiso
C62_5 C 0.7805(14) 0.665(3) 0.5933(15) 0.3200 Uiso
O16_3 O 0.2137(7) 0.496(2) 0.6889(10) 0.0830 Uiso
O17_4 O 0.7364(11) 0.5000 0.7500 0.0830 Uiso
H14_5 H 0.231518 0.74721 0.898642 . .
H19_5 H 0.208918 0.393958 0.870321 . .
H20_5 H 0.17141 0.540077 0.981886 . .
H21_5 H 0.199262 0.725795 0.963797 . .
H22_5 H 0.176487 0.373997 0.935437 . .
H29_5 H 0.823513 0.373997 0.564563 . .
H31_5 H 0.791082 0.393958 0.629679 . .
H32_5 H 0.800738 0.725795 0.536203 . .
H33_5 H 0.768482 0.74721 0.601358 . .
H34_5 H 0.82859 0.540077 0.518114 . .
O1_6 O 0.7383(8) 0.355(2) 0.8227(10) 0.0830 Uiso
O2_6 O 0.7863(7) 0.496(2) 0.8111(10) 0.0830 Uiso
C25_6 C 0.7582(15) 0.422(7) 0.8398(14) 0.3200 Uiso
C26_6 C 0.7777(10) 0.428(4) 0.8806(9) 0.3200 Uiso
C27_6 C 0.7932(13) 0.533(4) 0.8908(11) 0.3200 Uiso
C28_6 C 0.8114(15) 0.544(5) 0.9273(11) 0.3200 Uiso
C29_6 C 0.8142(13) 0.451(6) 0.9534(3) 0.3200 Uiso
C30_6 C 0.7987(15) 0.347(5) 0.9432(13) 0.3200 Uiso
C31_6 C 0.7805(14) 0.335(3) 0.9067(15) 0.3200 Uiso
O13_6 O 0.2617(8) 0.355(2) 0.6773(10) 0.0830 Uiso
C56_6 C 0.2418(15) 0.422(7) 0.6602(14) 0.3200 Uiso
C57_6 C 0.2223(10) 0.428(4) 0.6194(9) 0.3200 Uiso
C58_6 C 0.2068(13) 0.533(4) 0.6092(11) 0.3200 Uiso
C59_6 C 0.1886(15) 0.544(5) 0.5727(11) 0.3200 Uiso
C60_6 C 0.1858(13) 0.451(6) 0.5466(3) 0.3200 Uiso
C61_6 C 0.2013(15) 0.347(5) 0.5568(13) 0.3200 Uiso
C62_6 C 0.2195(14) 0.335(3) 0.5933(15) 0.3200 Uiso
H14_6 H 0.768482 0.25279 0.898642 . .
H19_6 H 0.791082 0.606042 0.870321 . .
H20_6 H 0.82859 0.459923 0.981886 . .
H21_6 H 0.800738 0.274205 0.963797 . .
H22_6 H 0.823513 0.626003 0.935437 . .
H29_6 H 0.176487 0.626003 0.564563 . .
H31_6 H 0.208918 0.606042 0.629679 . .
H32_6 H 0.199262 0.274205 0.536203 . .
H33_6 H 0.231518 0.25279 0.601358 . .
H34_6 H 0.17141 0.459923 0.518114 . .
O1_7 O 0.2383(8) 0.145(2) 0.1773(10) 0.0830 Uiso
O2_7 O 0.2863(7) 0.004(2) 0.1889(10) 0.0830 Uiso
O3_5 O 0.2364(11) -0.0000 0.2500 0.0830 Uiso
C25_7 C 0.2582(15) 0.078(7) 0.1602(14) 0.3200 Uiso
C26_7 C 0.2777(10) 0.072(4) 0.1194(9) 0.3200 Uiso
C29_7 C 0.3142(13) 0.049(6) 0.0466(3) 0.3200 Uiso
C30_7 C 0.2987(15) 0.153(5) 0.0568(13) 0.3200 Uiso
C31_7 C 0.2805(14) 0.165(3) 0.0933(15) 0.3200 Uiso
H14_7 H 0.268482 0.24721 0.101358 . .
H20_7 H 0.32859 0.0400773 0.0181144 . .
H21_7 H 0.300738 0.225795 0.0362025 . .
O3_6 O 0.2364(11) 1.0000 0.2500 0.0830 Uiso
C27_7 C 0.2932(13) 0.967(4) 0.1092(11) 0.3200 Uiso
C28_7 C 0.3114(15) 0.956(5) 0.0727(11) 0.3200 Uiso
O16_4 O 0.2863(7) 0.996(2) 0.3111(10) 0.0830 Uiso
H19_7 H 0.291082 0.893958 0.129679 . .
H22_7 H 0.323513 0.873997 0.0645633 . .
O13_7 O 0.7617(8) 0.145(2) 0.3227(10) 0.0830 Uiso
O14_4 O 0.7137(7) 0.004(2) 0.3111(10) 0.0830 Uiso
C56_7 C 0.7418(15) 0.078(7) 0.3398(14) 0.3200 Uiso
C57_7 C 0.7223(10) 0.072(4) 0.3806(9) 0.3200 Uiso
C60_7 C 0.6858(13) 0.049(6) 0.4534(3) 0.3200 Uiso
C61_7 C 0.7013(15) 0.153(5) 0.4432(13) 0.3200 Uiso
C62_7 C 0.7195(14) 0.165(3) 0.4067(15) 0.3200 Uiso
O17_5 O 0.7636(11) -0.0000 0.2500 0.0830 Uiso
H32_7 H 0.699262 0.225795 0.463797 . .
H33_7 H 0.731518 0.24721 0.398642 . .
H34_7 H 0.67141 0.0400773 0.481886 . .
C58_7 C 0.7068(13) 0.967(4) 0.3908(11) 0.3200 Uiso
C59_7 C 0.6886(15) 0.956(5) 0.4273(11) 0.3200 Uiso
O17_6 O 0.7636(11) 1.0000 0.2500 0.0830 Uiso
H29_7 H 0.676487 0.873997 0.435437 . .
H31_7 H 0.708918 0.893958 0.370321 . .
C58_8 C 0.2932(13) 0.033(4) 0.3908(11) 0.3200 Uiso
C59_8 C 0.3114(15) 0.044(5) 0.4273(11) 0.3200 Uiso
H29_8 H 0.323513 0.126003 0.435437 . .
H31_8 H 0.291082 0.106042 0.370321 . .
O13_8 O 0.2383(8) 0.855(2) 0.3227(10) 0.0830 Uiso
C56_8 C 0.2582(15) 0.922(7) 0.3398(14) 0.3200 Uiso
C57_8 C 0.2777(10) 0.928(4) 0.3806(9) 0.3200 Uiso
C60_8 C 0.3142(13) 0.951(6) 0.4534(3) 0.3200 Uiso
C61_8 C 0.2987(15) 0.847(5) 0.4432(13) 0.3200 Uiso
C62_8 C 0.2805(14) 0.835(3) 0.4067(15) 0.3200 Uiso
H32_8 H 0.300738 0.774205 0.463797 . .
H33_8 H 0.268482 0.75279 0.398642 . .
H34_8 H 0.32859 0.959923 0.481886 . .
C27_8 C 0.7068(13) 0.033(4) 0.1092(11) 0.3200 Uiso
C28_8 C 0.6886(15) 0.044(5) 0.0727(11) 0.3200 Uiso
H19_8 H 0.708918 0.106042 0.129679 . .
H22_8 H 0.676487 0.126003 0.0645633 . .
O1_8 O 0.7617(8) 0.855(2) 0.1773(10) 0.0830 Uiso
O2_8 O 0.7137(7) 0.996(2) 0.1889(10) 0.0830 Uiso
C25_8 C 0.7418(15) 0.922(7) 0.1602(14) 0.3200 Uiso
C26_8 C 0.7223(10) 0.928(4) 0.1194(9) 0.3200 Uiso
C29_8 C 0.6858(13) 0.951(6) 0.0466(3) 0.3200 Uiso
C30_8 C 0.7013(15) 0.847(5) 0.0568(13) 0.3200 Uiso
C31_8 C 0.7195(14) 0.835(3) 0.0933(15) 0.3200 Uiso
H14_8 H 0.731518 0.75279 0.101358 . .
H20_8 H 0.67141 0.959923 0.0181144 . .
H21_8 H 0.699262 0.774205 0.0362025 . .
loop_
_geom_bond_atom_site_label_1
_geom_bond_atom_site_label_2
_geom_bond_site_symmetry_1
_geom_bond_site_symmetry_2
O1 Zr2 1_555 1_555
O2 Zr1 1_555 1_555
Zr1 O3 1_555 1_555
Zr2 O3 1_555 1_555
O3 Zr8 1_555 1_555
O4 Zr2 1_555 1_555
O5 Zr2 1_555 1_555
C1 O5 1_555 1_555
O6 C1 1_555 1_555
C2 C1 1_555 1_555
C3 C2 1_555 1_555
C4 C3 1_555 1_555
C5 C2 1_555 1_555
C6 C5 1_555 1_555
C7 C4 1_555 1_555
C8 C7 1_555 1_555
C9 C8 1_555 1_555
C10 C9 1_555 1_555
C11 C8 1_555 1_555
C12 C11 1_555 1_555
C13 C12 1_555 1_555
C14 C13 1_555 1_555
C15 C14 1_555 1_555
C16 C15 1_555 1_555
C17 C16 1_555 1_555
N1 C9 1_555 1_555
N2 C11 1_555 1_555
N3 C16 1_555 1_555
Cu1 N1 1_555 1_555
C18 C15 1_555 1_555
C19 C18 1_555 1_555
C20 C19 1_555 1_555
C21 C18 1_555 1_555
C22 C21 1_555 1_555
C23 C20 1_555 1_555
C24 C23 1_555 1_555
O7 C24 1_555 1_555
O8 C24 1_555 1_555
C25 O1 1_555 1_555
C26 C25 1_555 1_555
C27 C26 1_555 1_555
C28 C27 1_555 1_555
C29 C28 1_555 1_555
C30 C29 1_555 1_555
C31 C26 1_555 1_555
O9 C32 1_555 1_555
C32 O10 1_555 1_555
O10 Zr12 1_555 1_555
C33 C32 1_555 1_555
C34 C33 1_555 1_555
C35 C34 1_555 1_555
C36 C33 1_555 1_555
C37 C36 1_555 1_555
C38 C35 1_555 1_555
C39 C38 1_555 1_555
C40 N1 1_555 1_555
C41 C10 1_555 1_555
C42 C39 1_555 1_555
C43 C42 1_555 1_555
C44 C43 1_555 1_555
C45 C44 1_555 1_555
C46 C45 1_555 1_555
C47 N3 1_555 1_555
C48 C17 1_555 1_555
N4 Cu1 1_555 1_555
C49 C46 1_555 1_555
C50 C49 1_555 1_555
C51 C50 1_555 1_555
C52 C49 1_555 1_555
C53 C52 1_555 1_555
C54 C51 1_555 1_555
C55 C54 1_555 1_555
O11 C55 1_555 1_555
O12 C55 1_555 1_555
O13 Zr3 1_555 1_555
O14 C56 1_555 1_555
Zr3 O8 1_555 1_555
O15 Zr3 1_555 1_555
C56 O13 1_555 1_555
C57 C56 1_555 1_555
C58 C57 1_555 1_555
C59 C58 1_555 1_555
C60 C59 1_555 1_555
C61 C60 1_555 1_555
C62 C57 1_555 1_555
O16 Zr1 1_555 1_555
Zr4 O14 1_555 1_555
Zr5 O11 1_555 1_555
Zr6 O7 1_555 1_555
Zr7 O4 1_555 1_555
Zr8 O6 1_555 1_555
Zr9 O9 1_555 1_555
Zr10 O15 1_555 1_555
Zr11 O4 1_555 1_555
Zr13 O12 1_555 1_555
O17 Zr3 1_555 1_555
O18 Zr3 1_555 1_555
O19 Zr1 1_555 1_555
O20 Zr1 1_555 1_555
O21 Zr3 1_555 1_555
O22 Zr3 1_555 1_555
O23 Zr2 1_555 1_555
O24 Zr1 1_555 1_555
O25 Zr1 1_555 1_555
O26 Zr2 1_555 1_555
O2 C25 1_555 1_555
Zr2 O20 1_555 1_555
C6 C7 1_555 1_555
C14 N2 1_555 1_555
N2 Cu1 1_555 1_555
N3 Cu1 1_555 1_555
C22 C23 1_555 1_555
C30 C31 1_555 1_555
C37 C38 1_555 1_555
C39 C40 1_555 1_555
C40 C41 1_555 1_555
C42 N4 1_555 1_555
C45 N4 1_555 1_555
C46 C47 1_555 1_555
C47 C48 1_555 1_555
C53 C54 1_555 1_555
O15 Zr6 1_555 1_555
C61 C62 1_555 1_555
Zr4 O17 1_555 1_555
Zr4 O18 1_555 1_555
Zr8 O19 1_555 1_555
Zr10 O18 1_555 1_555
Zr11 O20 1_555 1_555
C10 H1 1_555 1_555
C4 H2 1_555 1_555
C17 H3 1_555 1_555
C5 H4 1_555 1_555
C6 H5 1_555 1_555
C3 H6 1_555 1_555
C12 H7 1_555 1_555
C13 H8 1_555 1_555
C19 H9 1_555 1_555
C20 H10 1_555 1_555
C22 H12 1_555 1_555
C43 H13 1_555 1_555
C31 H14 1_555 1_555
C44 H15 1_555 1_555
C51 H16 1_555 1_555
C35 H17 1_555 1_555
C27 H19 1_555 1_555
C29 H20 1_555 1_555
C30 H21 1_555 1_555
C28 H22 1_555 1_555
C48 H23 1_555 1_555
C37 H24 1_555 1_555
C50 H25 1_555 1_555
C34 H26 1_555 1_555
C36 H27 1_555 1_555
C41 H28 1_555 1_555
C59 H29 1_555 1_555
C53 H30 1_555 1_555
C58 H31 1_555 1_555
C61 H32 1_555 1_555
C62 H33 1_555 1_555
C60 H34 1_555 1_555
O1_2 Zr2_2 1_555 1_555
O2_2 Zr4 1_555 1_555
Zr2_2 O17 1_555 1_555
O4_2 Zr2_2 1_555 1_555
O5_2 Zr2_2 1_555 1_555
C1_2 O5_2 1_555 1_555
O22 C1_2 1_555 1_555
C2_2 C1_2 1_555 1_555
C3_2 C2_2 1_555 1_555
C4_2 C3_2 1_555 1_555
C5_2 C2_2 1_555 1_555
C6_2 C5_2 1_555 1_555
C7_2 C4_2 1_555 1_555
C8_2 C7_2 1_555 1_555
C9_2 C8_2 1_555 1_555
C10_2 C9_2 1_555 1_555
C11_2 C8_2 1_555 1_555
C12_2 C11_2 1_555 1_555
C13_2 C12_2 1_555 1_555
C14_2 C13_2 1_555 1_555
C15_2 C14_2 1_555 1_555
C16_2 C15_2 1_555 1_555
C17_2 C16_2 1_555 1_555
N1_2 C9_2 1_555 1_555
N2_2 C11_2 1_555 1_555
N3_2 C16_2 1_555 1_555
Cu1_2 N1_2 1_555 1_555
C18_2 C15_2 1_555 1_555
C19_2 C18_2 1_555 1_555
C20_2 C19_2 1_555 1_555
C21_2 C18_2 1_555 1_555
C22_2 C21_2 1_555 1_555
C23_2 C20_2 1_555 1_555
C24_2 C23_2 1_555 1_555
O7_2 C24_2 1_555 1_555
O8_2 C24_2 1_555 1_555
C25_2 O1_2 1_555 1_555
C26_2 C25_2 1_555 1_555
C27_2 C26_2 1_555 1_555
C28_2 C27_2 1_555 1_555
C29_2 C28_2 1_555 1_555
C30_2 C29_2 1_555 1_555
C31_2 C26_2 1_555 1_555
O9_2 C32_2 1_555 1_555
C32_2 O10_2 1_555 1_555
O10_2 Zr13 1_555 1_555
C33_2 C32_2 1_555 1_555
C34_2 C33_2 1_555 1_555
C35_2 C34_2 1_555 1_555
C36_2 C33_2 1_555 1_555
C37_2 C36_2 1_555 1_555
C38_2 C35_2 1_555 1_555
C39_2 C38_2 1_555 1_555
C40_2 N1_2 1_555 1_555
C41_2 C10_2 1_555 1_555
C42_2 C39_2 1_555 1_555
C43_2 C42_2 1_555 1_555
C44_2 C43_2 1_555 1_555
C45_2 C44_2 1_555 1_555
C46_2 C45_2 1_555 1_555
C47_2 N3_2 1_555 1_555
C48_2 C17_2 1_555 1_555
N4_2 Cu1_2 1_555 1_555
C49_2 C46_2 1_555 1_555
C50_2 C49_2 1_555 1_555
C51_2 C50_2 1_555 1_555
C52_2 C49_2 1_555 1_555
C53_2 C52_2 1_555 1_555
C54_2 C51_2 1_555 1_555
C55_2 C54_2 1_555 1_555
O11_2 C55_2 1_555 1_555
O12_2 C55_2 1_555 1_555
O13_2 Zr8 1_555 1_555
O16 C56_2 1_555 1_555
Zr8 O8_2 1_555 1_555
O15_2 Zr8 1_555 1_555
C56_2 O13_2 1_555 1_555
C57_2 C56_2 1_555 1_555
C58_2 C57_2 1_555 1_555
C59_2 C58_2 1_555 1_555
C60_2 C59_2 1_555 1_555
C61_2 C60_2 1_555 1_555
C62_2 C57_2 1_555 1_555
Zr5_4 O11_2 1_555 1_555
Zr7_2 O7_2 1_555 1_555
Zr6_2 O4_2 1_555 1_555
Zr9_2 O9_2 1_555 1_555
Zr10_2 O15_2 1_555 1_555
Zr11_2 O4_2 1_555 1_555
Zr12 O12_2 1_555 1_555
O20_2 Zr4 1_555 1_555
O21_2 Zr8 1_555 1_555
O23_2 Zr2_2 1_555 1_555
O24_2 Zr4 1_555 1_555
O25_2 Zr4 1_555 1_555
O26_2 Zr2_2 1_555 1_555
O2_2 C25_2 1_555 1_555
Zr2_2 O20_2 1_555 1_555
C6_2 C7_2 1_555 1_555
C14_2 N2_2 1_555 1_555
N2_2 Cu1_2 1_555 1_555
N3_2 Cu1_2 1_555 1_555
C22_2 C23_2 1_555 1_555
C30_2 C31_2 1_555 1_555
C37_2 C38_2 1_555 1_555
C39_2 C40_2 1_555 1_555
C40_2 C41_2 1_555 1_555
C42_2 N4_2 1_555 1_555
C45_2 N4_2 1_555 1_555
C46_2 C47_2 1_555 1_555
C47_2 C48_2 1_555 1_555
C53_2 C54_2 1_555 1_555
O15_2 Zr7_2 1_555 1_555
C61_2 C62_2 1_555 1_555
Zr10_2 O19 1_555 1_555
Zr11_2 O20_2 1_555 1_555
C10_2 H1_2 1_555 1_555
C4_2 H2_2 1_555 1_555
C17_2 H3_2 1_555 1_555
C5_2 H4_2 1_555 1_555
C6_2 H5_2 1_555 1_555
C3_2 H6_2 1_555 1_555
C12_2 H7_2 1_555 1_555
C13_2 H8_2 1_555 1_555
C19_2 H9_2 1_555 1_555
C20_2 H10_2 1_555 1_555
C22_2 H12_2 1_555 1_555
C43_2 H13_2 1_555 1_555
C31_2 H14_2 1_555 1_555
C44_2 H15_2 1_555 1_555
C51_2 H16_2 1_555 1_555
C35_2 H17_2 1_555 1_555
C27_2 H19_2 1_555 1_555
C29_2 H20_2 1_555 1_555
C30_2 H21_2 1_555 1_555
C28_2 H22_2 1_555 1_555
C48_2 H23_2 1_555 1_555
C37_2 H24_2 1_555 1_555
C50_2 H25_2 1_555 1_555
C34_2 H26_2 1_555 1_555
C36_2 H27_2 1_555 1_555
C41_2 H28_2 1_555 1_555
C59_2 H29_2 1_555 1_555
C53_2 H30_2 1_555 1_555
C58_2 H31_2 1_555 1_555
C61_2 H32_2 1_555 1_555
C62_2 H33_2 1_555 1_555
C60_2 H34_2 1_555 1_555
C59_3 C58_3 1_555 1_555
Zr5 O17_2 1_555 1_555
C59_3 H29_3 1_555 1_555
C58_3 H31_3 1_555 1_555
C14_3 C13_3 1_555 1_555
C15_3 C14_3 1_555 1_555
C16_3 C15_3 1_555 1_555
C17_3 C16_3 1_555 1_555
N3_3 C16_3 1_555 1_555
C18_3 C15_3 1_555 1_555
C19_3 C18_3 1_555 1_555
C20_3 C19_3 1_555 1_555
C21_3 C18_3 1_555 1_555
C22_3 C21_3 1_555 1_555
C23_3 C20_3 1_555 1_555
C24_3 C23_3 1_555 1_555
O7_3 C24_3 1_555 1_555
O8_3 C24_3 1_555 1_555
C45_3 C44_3 1_555 1_555
C46_3 C45_3 1_555 1_555
C47_3 N3_3 1_555 1_555
C48_3 C17_3 1_555 1_555
C49_3 C46_3 1_555 1_555
C50_3 C49_3 1_555 1_555
C51_3 C50_3 1_555 1_555
C52_3 C49_3 1_555 1_555
C53_3 C52_3 1_555 1_555
C54_3 C51_3 1_555 1_555
C55_3 C54_3 1_555 1_555
O24_2 C55_3 1_555 1_555
O12_3 C55_3 1_555 1_555
O13_3 Zr3_2 1_555 1_555
O14_2 C56_3 1_555 1_555
Zr3_2 O8_3 1_555 1_555
O15_3 Zr3_2 1_555 1_555
C56_3 O13_3 1_555 1_555
C57_3 C56_3 1_555 1_555
C61_3 C60_3 1_555 1_555
C62_3 C57_3 1_555 1_555
Zr5_2 O14_2 1_555 1_555
Zr6_3 O7_3 1_555 1_555
Zr9_2 O15_3 1_555 1_555
Zr11_2 O12_3 1_555 1_555
O17_3 Zr3_2 1_555 1_555
O18_2 Zr3_2 1_555 1_555
O21_3 Zr3_2 1_555 1_555
O22_2 Zr3_2 1_555 1_555
C22_3 C23_3 1_555 1_555
C46_3 C47_3 1_555 1_555
C47_3 C48_3 1_555 1_555
C53_3 C54_3 1_555 1_555
O15_3 Zr6_3 1_555 1_555
C61_3 C62_3 1_555 1_555
Zr5_2 O17_3 1_555 1_555
Zr5_2 O18_2 1_555 1_555
Zr9_2 O18_2 1_555 1_555
C17_3 H3_3 1_555 1_555
C13_3 H8_3 1_555 1_555
C19_3 H9_3 1_555 1_555
C20_3 H10_3 1_555 1_555
C21_3 H11_3 1_555 1_555
C22_3 H12_3 1_555 1_555
C44_3 H15_3 1_555 1_555
C51_3 H16_3 1_555 1_555
C52_3 H18_3 1_555 1_555
C48_3 H23_3 1_555 1_555
C50_3 H25_3 1_555 1_555
C53_3 H30_3 1_555 1_555
C61_3 H32_3 1_555 1_555
C62_3 H33_3 1_555 1_555
C60_3 H34_3 1_555 1_555
Zr5_3 O3_2 1_555 1_555
O3_2 Zr8_2 1_555 1_555
C28_3 C27_3 1_555 1_555
O10_3 Zr11 1_555 1_555
O16_2 Zr5_3 1_555 1_555
Zr8_2 O6_2 1_555 1_555
O19_2 Zr5_3 1_555 1_555
O25_3 Zr5_3 1_555 1_555
Zr8_2 O19_2 1_555 1_555
C27_3 H19_3 1_555 1_555
C28_3 H22_3 1_555 1_555
O1_3 Zr2_3 1_555 1_555
O2_3 Zr5_4 1_555 1_555
Zr5_4 O3_3 1_555 1_555
Zr2_3 O3_3 1_555 1_555
O4_3 Zr2_3 1_555 1_555
O5_3 Zr2_3 1_555 1_555
C1_3 O5_3 1_555 1_555
C2_3 C1_3 1_555 1_555
C3_3 C2_3 1_555 1_555
C4_3 C3_3 1_555 1_555
C5_3 C2_3 1_555 1_555
C6_3 C5_3 1_555 1_555
C7_3 C4_3 1_555 1_555
C8_3 C7_3 1_555 1_555
C9_3 C8_3 1_555 1_555
C10_3 C9_3 1_555 1_555
C11_3 C8_3 1_555 1_555
C12_3 C11_3 1_555 1_555
N1_3 C9_3 1_555 1_555
N2_3 C11_3 1_555 1_555
Cu1_3 N1_3 1_555 1_555
C25_3 O1_3 1_555 1_555
C26_3 C25_3 1_555 1_555
C30_3 C29_3 1_555 1_555
C31_3 C26_3 1_555 1_555
O9_3 C32_3 1_555 1_555
C33_3 C32_3 1_555 1_555
C34_3 C33_3 1_555 1_555
C35_3 C34_3 1_555 1_555
C36_3 C33_3 1_555 1_555
C37_3 C36_3 1_555 1_555
C38_3 C35_3 1_555 1_555
C39_3 C38_3 1_555 1_555
C40_3 N1_3 1_555 1_555
C41_3 C10_3 1_555 1_555
C42_3 C39_3 1_555 1_555
C43_3 C42_3 1_555 1_555
N4_3 Cu1_3 1_555 1_555
Zr7_3 O4_3 1_555 1_555
Zr10_2 O9_3 1_555 1_555
Zr12 O4_3 1_555 1_555
O20_3 Zr5_4 1_555 1_555
O23_3 Zr2_3 1_555 1_555
O26_3 Zr2_3 1_555 1_555
O2_3 C25_3 1_555 1_555
Zr2_3 O20_3 1_555 1_555
C6_3 C7_3 1_555 1_555
N2_3 Cu1_3 1_555 1_555
C30_3 C31_3 1_555 1_555
C37_3 C38_3 1_555 1_555
C39_3 C40_3 1_555 1_555
C40_3 C41_3 1_555 1_555
C42_3 N4_3 1_555 1_555
Zr12 O20_3 1_555 1_555
C10_3 H1_3 1_555 1_555
C4_3 H2_3 1_555 1_555
C6_3 H5_3 1_555 1_555
C3_3 H6_3 1_555 1_555
C12_3 H7_3 1_555 1_555
C43_3 H13_3 1_555 1_555
C31_3 H14_3 1_555 1_555
C35_3 H17_3 1_555 1_555
C29_3 H20_3 1_555 1_555
C30_3 H21_3 1_555 1_555
C37_3 H24_3 1_555 1_555
C34_3 H26_3 1_555 1_555
C41_3 H28_3 1_555 1_555
O1_4 Zr2_4 1_555 1_555
O2_4 Zr5 1_555 1_555
Zr2_4 O17_2 1_555 1_555
O4_4 Zr2_4 1_555 1_555
O5_4 Zr2_4 1_555 1_555
C1_4 O5_4 1_555 1_555
C2_4 C1_4 1_555 1_555
C3_4 C2_4 1_555 1_555
C4_4 C3_4 1_555 1_555
C5_4 C2_4 1_555 1_555
C6_4 C5_4 1_555 1_555
C7_4 C4_4 1_555 1_555
C8_4 C7_4 1_555 1_555
C9_4 C8_4 1_555 1_555
C10_4 C9_4 1_555 1_555
C11_4 C8_4 1_555 1_555
C12_4 C11_4 1_555 1_555
N1_4 C9_4 1_555 1_555
N2_4 C11_4 1_555 1_555
Cu1_4 N1_4 1_555 1_555
C25_4 O1_4 1_555 1_555
C26_4 C25_4 1_555 1_555
C30_4 C29_4 1_555 1_555
C31_4 C26_4 1_555 1_555
O9_4 C32_4 1_555 1_555
C33_4 C32_4 1_555 1_555
C34_4 C33_4 1_555 1_555
C35_4 C34_4 1_555 1_555
C36_4 C33_4 1_555 1_555
C37_4 C36_4 1_555 1_555
C38_4 C35_4 1_555 1_555
C39_4 C38_4 1_555 1_555
C40_4 N1_4 1_555 1_555
C41_4 C10_4 1_555 1_555
C42_4 C39_4 1_555 1_555
C43_4 C42_4 1_555 1_555
N4_4 Cu1_4 1_555 1_555
Zr6_3 O4_4 1_555 1_555
Zr10 O9_4 1_555 1_555
Zr13 O4_4 1_555 1_555
O20_4 Zr5 1_555 1_555
O23_4 Zr2_4 1_555 1_555
O26_4 Zr2_4 1_555 1_555
O2_4 C25_4 1_555 1_555
Zr2_4 O20_4 1_555 1_555
C6_4 C7_4 1_555 1_555
N2_4 Cu1_4 1_555 1_555
C30_4 C31_4 1_555 1_555
C37_4 C38_4 1_555 1_555
C39_4 C40_4 1_555 1_555
C40_4 C41_4 1_555 1_555
C42_4 N4_4 1_555 1_555
Zr13 O20_4 1_555 1_555
C10_4 H1_4 1_555 1_555
C4_4 H2_4 1_555 1_555
C6_4 H5_4 1_555 1_555
C3_4 H6_4 1_555 1_555
C12_4 H7_4 1_555 1_555
C43_4 H13_4 1_555 1_555
C31_4 H14_4 1_555 1_555
C35_4 H17_4 1_555 1_555
C29_4 H20_4 1_555 1_555
C30_4 H21_4 1_555 1_555
C37_4 H24_4 1_555 1_555
C34_4 H26_4 1_555 1_555
C41_4 H28_4 1_555 1_555
C28_4 C27_4 1_555 1_555
O10_4 Zr11_2 1_555 1_555
O25_4 Zr5_2 1_555 1_555
C27_4 H19_4 1_555 1_555
C28_4 H22_4 1_555 1_555
C14_4 C13_4 1_555 1_555
C15_4 C14_4 1_555 1_555
C16_4 C15_4 1_555 1_555
C17_4 C16_4 1_555 1_555
N3_4 C16_4 1_555 1_555
C18_4 C15_4 1_555 1_555
C19_4 C18_4 1_555 1_555
C20_4 C19_4 1_555 1_555
C21_4 C18_4 1_555 1_555
C22_4 C21_4 1_555 1_555
C23_4 C20_4 1_555 1_555
C24_4 C23_4 1_555 1_555
O7_4 C24_4 1_555 1_555
O8_4 C24_4 1_555 1_555
C45_4 C44_4 1_555 1_555
C46_4 C45_4 1_555 1_555
C47_4 N3_4 1_555 1_555
C48_4 C17_4 1_555 1_555
C49_4 C46_4 1_555 1_555
C50_4 C49_4 1_555 1_555
C51_4 C50_4 1_555 1_555
C52_4 C49_4 1_555 1_555
C53_4 C52_4 1_555 1_555
C54_4 C51_4 1_555 1_555
C55_4 C54_4 1_555 1_555
O24 C55_4 1_555 1_555
O12_4 C55_4 1_555 1_555
O13_4 Zr8_2 1_555 1_555
O16_2 C56_4 1_555 1_555
Zr8_2 O8_4 1_555 1_555
O15_4 Zr8_2 1_555 1_555
C56_4 O13_4 1_555 1_555
C57_4 C56_4 1_555 1_555
C61_4 C60_4 1_555 1_555
C62_4 C57_4 1_555 1_555
Zr7_3 O7_4 1_555 1_555
Zr9 O15_4 1_555 1_555
Zr11 O12_4 1_555 1_555
O21_4 Zr8_2 1_555 1_555
C22_4 C23_4 1_555 1_555
C46_4 C47_4 1_555 1_555
C47_4 C48_4 1_555 1_555
C53_4 C54_4 1_555 1_555
O15_4 Zr7_3 1_555 1_555
C61_4 C62_4 1_555 1_555
Zr9 O19_2 1_555 1_555
C17_4 H3_4 1_555 1_555
C13_4 H8_4 1_555 1_555
C19_4 H9_4 1_555 1_555
C20_4 H10_4 1_555 1_555
C21_4 H11_4 1_555 1_555
C22_4 H12_4 1_555 1_555
C44_4 H15_4 1_555 1_555
C51_4 H16_4 1_555 1_555
C52_4 H18_4 1_555 1_555
C48_4 H23_4 1_555 1_555
C50_4 H25_4 1_555 1_555
C53_4 H30_4 1_555 1_555
C61_4 H32_4 1_555 1_555
C62_4 H33_4 1_555 1_555
C60_4 H34_4 1_555 1_555
C59_4 C58_4 1_555 1_555
C59_4 H29_4 1_555 1_555
C58_4 H31_4 1_555 1_555
O10_5 Zr10 1_555 1_555
Cu1_5 N1_5 1_555 1_555
O9_5 C32_5 1_555 1_555
C33_5 C32_5 1_555 1_555
C34_5 C33_5 1_555 1_555
C35_5 C34_5 1_555 1_555
C36_5 C33_5 1_555 1_555
C37_5 C36_5 1_555 1_555
C38_5 C35_5 1_555 1_555
C39_5 C38_5 1_555 1_555
C40_5 N1_5 1_555 1_555
C42_5 C39_5 1_555 1_555
C43_5 C42_5 1_555 1_555
N4_5 Cu1_5 1_555 1_555
Zr11_2 O9_5 1_555 1_555
C37_5 C38_5 1_555 1_555
C39_5 C40_5 1_555 1_555
C40_5 C41_5 1_555 1_555
C42_5 N4_5 1_555 1_555
C43_5 H13_5 1_555 1_555
C35_5 H17_5 1_555 1_555
C37_5 H24_5 1_555 1_555
C34_5 H26_5 1_555 1_555
C41_5 H28_5 1_555 1_555
C1_5 O21_3 1_555 1_555
C2_5 C1_5 1_555 1_555
C3_5 C2_5 1_555 1_555
C4_5 C3_5 1_555 1_555
C5_5 C2_5 1_555 1_555
C6_5 C5_5 1_555 1_555
C7_5 C4_5 1_555 1_555
C8_5 C7_5 1_555 1_555
C9_5 C8_5 1_555 1_555
C10_5 C9_5 1_555 1_555
C11_5 C8_5 1_555 1_555
C12_5 C11_5 1_555 1_555
N1_6 C9_5 1_555 1_555
N2_5 C11_5 1_555 1_555
Cu1_6 N1_6 1_555 1_555
C6_5 C7_5 1_555 1_555
N2_5 Cu1_6 1_555 1_555
C10_5 H1_5 1_555 1_555
C4_5 H2_5 1_555 1_555
C6_5 H5_5 1_555 1_555
C3_5 H6_5 1_555 1_555
C12_5 H7_5 1_555 1_555
C45_5 C44_5 1_555 1_555
C46_5 C45_5 1_555 1_555
C47_5 N3_5 1_555 1_555
C49_5 C46_5 1_555 1_555
C50_5 C49_5 1_555 1_555
C51_5 C50_5 1_555 1_555
C52_5 C49_5 1_555 1_555
C53_5 C52_5 1_555 1_555
C54_5 C51_5 1_555 1_555
C55_5 C54_5 1_555 1_555
O25 C55_5 1_555 1_555
O12_5 C55_5 1_555 1_555
Zr10_2 O12_5 1_555 1_555
C46_5 C47_5 1_555 1_555
C47_5 C48_5 1_555 1_555
C53_5 C54_5 1_555 1_555
C44_5 H15_5 1_555 1_555
C51_5 H16_5 1_555 1_555
C52_5 H18_5 1_555 1_555
C48_5 H23_5 1_555 1_555
C50_5 H25_5 1_555 1_555
C53_5 H30_5 1_555 1_555
C14_5 C13_5 1_555 1_555
C15_5 C14_5 1_555 1_555
C16_5 C15_5 1_555 1_555
C17_5 C16_5 1_555 1_555
N3_6 C16_5 1_555 1_555
C18_5 C15_5 1_555 1_555
C19_5 C18_5 1_555 1_555
C20_5 C19_5 1_555 1_555
C21_5 C18_5 1_555 1_555
C22_5 C21_5 1_555 1_555
C23_5 C20_5 1_555 1_555
C24_5 C23_5 1_555 1_555
O7_5 C24_5 1_555 1_555
O26_3 C24_5 1_555 1_555
Zr7_3 O7_5 1_555 1_555
C22_5 C23_5 1_555 1_555
C17_5 H3_5 1_555 1_555
C13_5 H8_5 1_555 1_555
C19_5 H9_5 1_555 1_555
C20_5 H10_5 1_555 1_555
C21_5 H11_5 1_555 1_555
C22_5 H12_5 1_555 1_555
C45_6 C44_6 1_555 1_555
C46_6 C45_6 1_555 1_555
C47_6 N3_7 1_555 1_555
C49_6 C46_6 1_555 1_555
C50_6 C49_6 1_555 1_555
C51_6 C50_6 1_555 1_555
C52_6 C49_6 1_555 1_555
C53_6 C52_6 1_555 1_555
C54_6 C51_6 1_555 1_555
C55_6 C54_6 1_555 1_555
O25_2 C55_6 1_555 1_555
O12_6 C55_6 1_555 1_555
Zr10 O12_6 1_555 1_555
C46_6 C47_6 1_555 1_555
C47_6 C48_6 1_555 1_555
C53_6 C54_6 1_555 1_555
C44_6 H15_6 1_555 1_555
C51_6 H16_6 1_555 1_555
C52_6 H18_6 1_555 1_555
C48_6 H23_6 1_555 1_555
C50_6 H25_6 1_555 1_555
C53_6 H30_6 1_555 1_555
C14_6 C13_6 1_555 1_555
C15_6 C14_6 1_555 1_555
C16_6 C15_6 1_555 1_555
C17_6 C16_6 1_555 1_555
N3_8 C16_6 1_555 1_555
C18_6 C15_6 1_555 1_555
C19_6 C18_6 1_555 1_555
C20_6 C19_6 1_555 1_555
C21_6 C18_6 1_555 1_555
C22_6 C21_6 1_555 1_555
C23_6 C20_6 1_555 1_555
C24_6 C23_6 1_555 1_555
O7_6 C24_6 1_555 1_555
O26_4 C24_6 1_555 1_555
Zr6_3 O7_6 1_555 1_555
C22_6 C23_6 1_555 1_555
C17_6 H3_6 1_555 1_555
C13_6 H8_6 1_555 1_555
C19_6 H9_6 1_555 1_555
C20_6 H10_6 1_555 1_555
C21_6 H11_6 1_555 1_555
C22_6 H12_6 1_555 1_555
Cu1_7 N1_7 1_555 1_555
O9_6 C32_6 1_555 1_555
C33_6 C32_6 1_555 1_555
C34_6 C33_6 1_555 1_555
C35_6 C34_6 1_555 1_555
C36_6 C33_6 1_555 1_555
C37_6 C36_6 1_555 1_555
C38_6 C35_6 1_555 1_555
C39_6 C38_6 1_555 1_555
C40_6 N1_7 1_555 1_555
C42_6 C39_6 1_555 1_555
C43_6 C42_6 1_555 1_555
N4_6 Cu1_7 1_555 1_555
Zr11 O9_6 1_555 1_555
C37_6 C38_6 1_555 1_555
C39_6 C40_6 1_555 1_555
C40_6 C41_6 1_555 1_555
C42_6 N4_6 1_555 1_555
C43_6 H13_6 1_555 1_555
C35_6 H17_6 1_555 1_555
C37_6 H24_6 1_555 1_555
C34_6 H26_6 1_555 1_555
C41_6 H28_6 1_555 1_555
C1_6 O21_4 1_555 1_555
C2_6 C1_6 1_555 1_555
C3_6 C2_6 1_555 1_555
C4_6 C3_6 1_555 1_555
C5_6 C2_6 1_555 1_555
C6_6 C5_6 1_555 1_555
C7_6 C4_6 1_555 1_555
C8_6 C7_6 1_555 1_555
C9_6 C8_6 1_555 1_555
C10_6 C9_6 1_555 1_555
C11_6 C8_6 1_555 1_555
C12_6 C11_6 1_555 1_555
N1_8 C9_6 1_555 1_555
N2_6 C11_6 1_555 1_555
Cu1_8 N1_8 1_555 1_555
C6_6 C7_6 1_555 1_555
N2_6 Cu1_8 1_555 1_555
C10_6 H1_6 1_555 1_555
C4_6 H2_6 1_555 1_555
C6_6 H5_6 1_555 1_555
C3_6 H6_6 1_555 1_555
C12_6 H7_6 1_555 1_555
O10_6 Zr10_2 1_555 1_555
C1_7 O21 1_555 1_555
O23_2 C1_7 1_555 1_555
C2_7 C1_7 1_555 1_555
C3_7 C2_7 1_555 1_555
C4_7 C3_7 1_555 1_555
C5_7 C2_7 1_555 1_555
C6_7 C5_7 1_555 1_555
C7_7 C4_7 1_555 1_555
C8_7 C7_7 1_555 1_555
C9_7 C8_7 1_555 1_555
C10_7 C9_7 1_555 1_555
C11_7 C8_7 1_555 1_555
C12_7 C11_7 1_555 1_555
C13_7 C12_7 1_555 1_555
C14_7 C13_7 1_555 1_555
C15_7 C14_7 1_555 1_555
C16_7 C15_7 1_555 1_555
C17_7 C16_7 1_555 1_555
N1_9 C9_7 1_555 1_555
N2_7 C11_7 1_555 1_555
N3_9 C16_7 1_555 1_555
Cu1_9 N1_9 1_555 1_555
C18_7 C15_7 1_555 1_555
C19_7 C18_7 1_555 1_555
C20_7 C19_7 1_555 1_555
C21_7 C18_7 1_555 1_555
C22_7 C21_7 1_555 1_555
C23_7 C20_7 1_555 1_555
C24_7 C23_7 1_555 1_555
O7_7 C24_7 1_555 1_555
O26 C24_7 1_555 1_555
Zr7 O7_7 1_555 1_555
C6_7 C7_7 1_555 1_555
C14_7 N2_7 1_555 1_555
N2_7 Cu1_9 1_555 1_555
N3_9 Cu1_9 1_555 1_555
C22_7 C23_7 1_555 1_555
C10_7 H1_7 1_555 1_555
C4_7 H2_7 1_555 1_555
C17_7 H3_7 1_555 1_555
C5_7 H4_7 1_555 1_555
C6_7 H5_7 1_555 1_555
C3_7 H6_7 1_555 1_555
C12_7 H7_7 1_555 1_555
C13_7 H8_7 1_555 1_555
C19_7 H9_7 1_555 1_555
C20_7 H10_7 1_555 1_555
C22_7 H12_7 1_555 1_555
Cu1_10 N1_10 1_555 1_555
O9_7 C32_7 1_555 1_555
C32_7 O10_7 1_555 1_555
O10_7 Zr9_2 1_555 1_555
C33_7 C32_7 1_555 1_555
C34_7 C33_7 1_555 1_555
C35_7 C34_7 1_555 1_555
C36_7 C33_7 1_555 1_555
C37_7 C36_7 1_555 1_555
C38_7 C35_7 1_555 1_555
C39_7 C38_7 1_555 1_555
C40_7 N1_10 1_555 1_555
C42_7 C39_7 1_555 1_555
C43_7 C42_7 1_555 1_555
C44_7 C43_7 1_555 1_555
C45_7 C44_7 1_555 1_555
C46_7 C45_7 1_555 1_555
C47_7 N3_10 1_555 1_555
N4_7 Cu1_10 1_555 1_555
C49_7 C46_7 1_555 1_555
C50_7 C49_7 1_555 1_555
C51_7 C50_7 1_555 1_555
C52_7 C49_7 1_555 1_555
C53_7 C52_7 1_555 1_555
C54_7 C51_7 1_555 1_555
C55_7 C54_7 1_555 1_555
O25_3 C55_7 1_555 1_555
O12_7 C55_7 1_555 1_555
Zr13 O9_7 1_555 1_555
Zr9 O12_7 1_555 1_555
N3_10 Cu1_10 1_555 1_555
C37_7 C38_7 1_555 1_555
C39_7 C40_7 1_555 1_555
C40_7 C41_7 1_555 1_555
C42_7 N4_7 1_555 1_555
C45_7 N4_7 1_555 1_555
C46_7 C47_7 1_555 1_555
C47_7 C48_7 1_555 1_555
C53_7 C54_7 1_555 1_555
C43_7 H13_7 1_555 1_555
C44_7 H15_7 1_555 1_555
C51_7 H16_7 1_555 1_555
C35_7 H17_7 1_555 1_555
C48_7 H23_7 1_555 1_555
C37_7 H24_7 1_555 1_555
C50_7 H25_7 1_555 1_555
C34_7 H26_7 1_555 1_555
C36_7 H27_7 1_555 1_555
C41_7 H28_7 1_555 1_555
C53_7 H30_7 1_555 1_555
C1_8 O21_2 1_555 1_555
O23 C1_8 1_555 1_555
C2_8 C1_8 1_555 1_555
C3_8 C2_8 1_555 1_555
C4_8 C3_8 1_555 1_555
C5_8 C2_8 1_555 1_555
C6_8 C5_8 1_555 1_555
C7_8 C4_8 1_555 1_555
C8_8 C7_8 1_555 1_555
C9_8 C8_8 1_555 1_555
C10_8 C9_8 1_555 1_555
C11_8 C8_8 1_555 1_555
C12_8 C11_8 1_555 1_555
C13_8 C12_8 1_555 1_555
C14_8 C13_8 1_555 1_555
C15_8 C14_8 1_555 1_555
C16_8 C15_8 1_555 1_555
C17_8 C16_8 1_555 1_555
N1_11 C9_8 1_555 1_555
N2_8 C11_8 1_555 1_555
N3_11 C16_8 1_555 1_555
Cu1_11 N1_11 1_555 1_555
C18_8 C15_8 1_555 1_555
C19_8 C18_8 1_555 1_555
C20_8 C19_8 1_555 1_555
C21_8 C18_8 1_555 1_555
C22_8 C21_8 1_555 1_555
C23_8 C20_8 1_555 1_555
C24_8 C23_8 1_555 1_555
O7_8 C24_8 1_555 1_555
O26_2 C24_8 1_555 1_555
Zr6_2 O7_8 1_555 1_555
C6_8 C7_8 1_555 1_555
C14_8 N2_8 1_555 1_555
N2_8 Cu1_11 1_555 1_555
N3_11 Cu1_11 1_555 1_555
C22_8 C23_8 1_555 1_555
C10_8 H1_8 1_555 1_555
C4_8 H2_8 1_555 1_555
C17_8 H3_8 1_555 1_555
C5_8 H4_8 1_555 1_555
C6_8 H5_8 1_555 1_555
C3_8 H6_8 1_555 1_555
C12_8 H7_8 1_555 1_555
C13_8 H8_8 1_555 1_555
C19_8 H9_8 1_555 1_555
C20_8 H10_8 1_555 1_555
C22_8 H12_8 1_555 1_555
Cu1_12 N1_12 1_555 1_555
O9_8 C32_8 1_555 1_555
C32_8 O10_8 1_555 1_555
O10_8 Zr9 1_555 1_555
C33_8 C32_8 1_555 1_555
C34_8 C33_8 1_555 1_555
C35_8 C34_8 1_555 1_555
C36_8 C33_8 1_555 1_555
C37_8 C36_8 1_555 1_555
C38_8 C35_8 1_555 1_555
C39_8 C38_8 1_555 1_555
C40_8 N1_12 1_555 1_555
C42_8 C39_8 1_555 1_555
C43_8 C42_8 1_555 1_555
C44_8 C43_8 1_555 1_555
C45_8 C44_8 1_555 1_555
C46_8 C45_8 1_555 1_555
C47_8 N3_12 1_555 1_555
N4_8 Cu1_12 1_555 1_555
C49_8 C46_8 1_555 1_555
C50_8 C49_8 1_555 1_555
C51_8 C50_8 1_555 1_555
C52_8 C49_8 1_555 1_555
C53_8 C52_8 1_555 1_555
C54_8 C51_8 1_555 1_555
C55_8 C54_8 1_555 1_555
O25_4 C55_8 1_555 1_555
O12_8 C55_8 1_555 1_555
Zr12 O9_8 1_555 1_555
Zr9_2 O12_8 1_555 1_555
N3_12 Cu1_12 1_555 1_555
C37_8 C38_8 1_555 1_555
C39_8 C40_8 1_555 1_555
C40_8 C41_8 1_555 1_555
C42_8 N4_8 1_555 1_555
C45_8 N4_8 1_555 1_555
C46_8 C47_8 1_555 1_555
C47_8 C48_8 1_555 1_555
C53_8 C54_8 1_555 1_555
C43_8 H13_8 1_555 1_555
C44_8 H15_8 1_555 1_555
C51_8 H16_8 1_555 1_555
C35_8 H17_8 1_555 1_555
C48_8 H23_8 1_555 1_555
C37_8 H24_8 1_555 1_555
C50_8 H25_8 1_555 1_555
C34_8 H26_8 1_555 1_555
C36_8 H27_8 1_555 1_555
C41_8 H28_8 1_555 1_555
C53_8 H30_8 1_555 1_555
O1_5 Zr9_2 1_555 1_555
O2_5 Zr6_3 1_555 1_555
Zr6_3 O3_4 1_555 1_555
Zr9_2 O3_4 1_555 1_555
O3_4 Zr13 1_555 1_555
C25_5 O1_5 1_555 1_555
C26_5 C25_5 1_555 1_555
C27_5 C26_5 1_555 1_555
C28_5 C27_5 1_555 1_555
C29_5 C28_5 1_555 1_555
C30_5 C29_5 1_555 1_555
C31_5 C26_5 1_555 1_555
O13_5 Zr12 1_555 1_555
O14_3 C56_5 1_555 1_555
C56_5 O13_5 1_555 1_555
C57_5 C56_5 1_555 1_555
C58_5 C57_5 1_555 1_555
C59_5 C58_5 1_555 1_555
C60_5 C59_5 1_555 1_555
C61_5 C60_5 1_555 1_555
C62_5 C57_5 1_555 1_555
O16_3 Zr6_3 1_555 1_555
Zr7_3 O14_3 1_555 1_555
O17_4 Zr12 1_555 1_555
O2_5 C25_5 1_555 1_555
C30_5 C31_5 1_555 1_555
C61_5 C62_5 1_555 1_555
Zr7_3 O17_4 1_555 1_555
C31_5 H14_5 1_555 1_555
C27_5 H19_5 1_555 1_555
C29_5 H20_5 1_555 1_555
C30_5 H21_5 1_555 1_555
C28_5 H22_5 1_555 1_555
C59_5 H29_5 1_555 1_555
C58_5 H31_5 1_555 1_555
C61_5 H32_5 1_555 1_555
C62_5 H33_5 1_555 1_555
C60_5 H34_5 1_555 1_555
O1_6 Zr9 1_555 1_555
O2_6 Zr7_3 1_555 1_555
Zr9 O17_4 1_555 1_555
C25_6 O1_6 1_555 1_555
C26_6 C25_6 1_555 1_555
C27_6 C26_6 1_555 1_555
C28_6 C27_6 1_555 1_555
C29_6 C28_6 1_555 1_555
C30_6 C29_6 1_555 1_555
C31_6 C26_6 1_555 1_555
O13_6 Zr13 1_555 1_555
O16_3 C56_6 1_555 1_555
C56_6 O13_6 1_555 1_555
C57_6 C56_6 1_555 1_555
C58_6 C57_6 1_555 1_555
C59_6 C58_6 1_555 1_555
C60_6 C59_6 1_555 1_555
C61_6 C60_6 1_555 1_555
C62_6 C57_6 1_555 1_555
O2_6 C25_6 1_555 1_555
C30_6 C31_6 1_555 1_555
C61_6 C62_6 1_555 1_555
C31_6 H14_6 1_555 1_555
C27_6 H19_6 1_555 1_555
C29_6 H20_6 1_555 1_555
C30_6 H21_6 1_555 1_555
C28_6 H22_6 1_555 1_555
C59_6 H29_6 1_555 1_555
C58_6 H31_6 1_555 1_555
C61_6 H32_6 1_555 1_555
C62_6 H33_6 1_555 1_555
C60_6 H34_6 1_555 1_555
O1_7 Zr10 1_555 1_555
O2_7 Zr6 1_555 1_555
Zr6 O3_5 1_555 1_555
Zr10 O3_5 1_555 1_555
C25_7 O1_7 1_555 1_555
C26_7 C25_7 1_555 1_555
C30_7 C29_7 1_555 1_555
C31_7 C26_7 1_555 1_555
O2_7 C25_7 1_555 1_555
C30_7 C31_7 1_555 1_555
C31_7 H14_7 1_555 1_555
C29_7 H20_7 1_555 1_555
C30_7 H21_7 1_555 1_555
Zr6_2 O3_6 1_555 1_555
O3_6 Zr11_2 1_555 1_555
C28_7 C27_7 1_555 1_555
O16_4 Zr6_2 1_555 1_555
C27_7 H19_7 1_555 1_555
C28_7 H22_7 1_555 1_555
O13_7 Zr11 1_555 1_555
O14_4 C56_7 1_555 1_555
C56_7 O13_7 1_555 1_555
C57_7 C56_7 1_555 1_555
C61_7 C60_7 1_555 1_555
C62_7 C57_7 1_555 1_555
Zr7 O14_4 1_555 1_555
O17_5 Zr11 1_555 1_555
C61_7 C62_7 1_555 1_555
Zr7 O17_5 1_555 1_555
C61_7 H32_7 1_555 1_555
C62_7 H33_7 1_555 1_555
C60_7 H34_7 1_555 1_555
C59_7 C58_7 1_555 1_555
Zr7_2 O17_6 1_555 1_555
C59_7 H29_7 1_555 1_555
C58_7 H31_7 1_555 1_555
C59_8 C58_8 1_555 1_555
C59_8 H29_8 1_555 1_555
C58_8 H31_8 1_555 1_555
O13_8 Zr11_2 1_555 1_555
O16_4 C56_8 1_555 1_555
C56_8 O13_8 1_555 1_555
C57_8 C56_8 1_555 1_555
C61_8 C60_8 1_555 1_555
C62_8 C57_8 1_555 1_555
C61_8 C62_8 1_555 1_555
C61_8 H32_8 1_555 1_555
C62_8 H33_8 1_555 1_555
C60_8 H34_8 1_555 1_555
C28_8 C27_8 1_555 1_555
C27_8 H19_8 1_555 1_555
C28_8 H22_8 1_555 1_555
O1_8 Zr10_2 1_555 1_555
O2_8 Zr7_2 1_555 1_555
Zr10_2 O17_6 1_555 1_555
C25_8 O1_8 1_555 1_555
C26_8 C25_8 1_555 1_555
C30_8 C29_8 1_555 1_555
C31_8 C26_8 1_555 1_555
O2_8 C25_8 1_555 1_555
C30_8 C31_8 1_555 1_555
C31_8 H14_8 1_555 1_555
C29_8 H20_8 1_555 1_555
C30_8 H21_8 1_555 1_555

#END
