
###############################################################################
#
# This file contains modified crystal structure data generated from the
# MOF subset of the Cambridge Structural Database (CSD) v543 
# hosted by the Cambridge Crystallographic Data Centre (CCDC).
#
# This work is licensed under the Creative Commons
# Attribution-NonCommercial-ShareAlike 4.0 International License.
# To view a copy of this license, visit
# http://creativecommons.org/licenses/by-nc-sa/4.0/
# or send a letter to
# Creative Commons, PO Box 1866, Mountain View, CA 94042, USA.
#
# CIF created using the CSD Python API on 29 September 2022
# The structure has been converted into the P1 space group
# The structure has a 3D framework
# The original CSD entry YUXLEJ is in the rhombohedral crystal system
# The framework has been calculated to contain at least 10.0% void space
# The void calculation uses a probe of radius 1.32A, grid spacing 0.4
# The framework is charged, counterions have been retained in the structure
#
###############################################################################

data_YUXLEJ
_chemical_formula_moiety         '(C702 H486 Ag23 Al34 N108 O108 23+)n'
_symmetry_cell_setting           triclinic
_symmetry_space_group_name_H-M   'P 1'
_symmetry_Int_Tables_number      1
_space_group_name_Hall           'P 1'
loop_
_symmetry_equiv_pos_site_id
_symmetry_equiv_pos_as_xyz
1 x,y,z
_cell_length_a                   22.4562(3)
_cell_length_b                   22.4562(3)
_cell_length_c                   72.1481(4)
_cell_angle_alpha                90
_cell_angle_beta                 90
_cell_angle_gamma                120
_cell_volume                     31508.5
loop_
_atom_site_label
_atom_site_type_symbol
_atom_site_fract_x
_atom_site_fract_y
_atom_site_fract_z
Ag1 Ag 0.32817(4) 0.19064(3) 0.885180(8)
Al1 Al 0.6666 0.3333 0.80277(3)
O1 O 0.5899(2) 0.2973(2) 0.81825(5)
C1 C 0.5304(3) 0.2432(3) 0.81631(7)
O2 O 0.7434(2) 0.3676(2) 0.78707(6)
C2 C 0.8039(3) 0.3175(3) 0.80161(8)
H1 H 0.8419 0.3101 0.8006
C3 C 0.7953(4) 0.3576(4) 0.78874(9)
C4 C 0.4808(3) 0.2279(4) 0.83173(8)
C5 C 0.5053(3) 0.2603(3) 0.84844(7)
H2 H 0.7371 0.4468 0.8503
C6 C 0.4590(4) 0.2481(4) 0.86258(9)
H3 H 0.7970 0.5243 0.8739
N1 N 0.3937(3) 0.2044(4) 0.86111(8)
C7 C 0.8024(4) 0.6301(8) 0.84469(12)
H4 H 0.8221 0.6784 0.8433
C8 C 0.7687(4) 0.5907(6) 0.83039(11)
H5 H 0.7594 0.6092 0.8197
C9 C 0.5441(4) 0.1558(4) 0.77323(7)
C10 C 0.4873(5) 0.0907(3) 0.77312(8)
H6 H 0.4609 0.0731 0.7841
C11 C 0.4679(5) 0.0500(4) 0.75712(10)
H7 H 0.4240 0.0095 0.7566
N2 N 0.5107(3) 0.0676(4) 0.74241(8)
C12 C 0.5631(5) 0.1279(5) 0.74166(13)
H8 H 0.5899 0.1412 0.7307
C13 C 0.5840(4) 0.1775(5) 0.75667(10)
H9 H 0.6226 0.2224 0.7555
Ag2 Ag 0.47603(3) 0.00516(4) 0.718513(8)
Ag3 Ag 0.52914(5) 0.52397(3) 0.718513(8)
Ag4 Ag 0.86247(5) 0.67183(4) 0.885180(8)
Ag5 Ag 0.99484(4) 0.47086(5) 0.718513(8)
Ag6 Ag 0.80936(3) 0.13753(5) 0.885180(8)
O3 O 0.7027(2) 0.2926(3) 0.81825(5)
O4 O 0.7074(3) 0.4101(2) 0.81825(5)
C14 C 0.7568(3) 0.2872(4) 0.81631(7)
C15 C 0.7128(4) 0.4696(3) 0.81631(7)
O5 O 0.6324(2) 0.3758(3) 0.78707(6)
O6 O 0.6242(3) 0.2566(2) 0.78707(6)
C16 C 0.6825(3) 0.4864(4) 0.80161(8)
C17 C 0.5136(4) 0.1961(3) 0.80161(8)
H10 H 0.6899 0.5318 0.8006
H11 H 0.4682 0.1581 0.8006
C18 C 0.6424(4) 0.4377(6) 0.78874(9)
C19 C 0.5623(6) 0.2047(4) 0.78874(9)
C20 C 0.7471(5) 0.5192(3) 0.83173(8)
C21 C 0.7721(4) 0.2529(5) 0.83173(8)
C22 C 0.7550(4) 0.4947(3) 0.84844(7)
C23 C 0.7397(3) 0.2450(4) 0.84844(7)
H12 H 0.7097 0.2629 0.8503
H13 H 0.5532 0.2903 0.8503
C24 C 0.7891(6) 0.5410(4) 0.86258(9)
C25 C 0.7519(4) 0.2109(6) 0.86258(9)
H14 H 0.7273 0.2030 0.8739
H15 H 0.4757 0.2727 0.8739
N3 N 0.4774(5) 0.5377(4) 0.69444(8)
N4 N 0.8107(5) 0.6063(3) 0.86111(8)
N5 N 0.7956(4) 0.1893(5) 0.86111(8)
C26 C 0.8277(9) 0.1976(4) 0.84469(12)
C27 C 0.3699(8) 0.1723(9) 0.84469(12)
H16 H 0.8563 0.1779 0.8433
H17 H 0.3216 0.1437 0.8433
C28 C 0.8220(7) 0.2313(4) 0.83039(11)
C29 C 0.4093(6) 0.1780(7) 0.83039(11)
H18 H 0.8498 0.2406 0.8197
H19 H 0.3908 0.1502 0.8197
C30 C 0.6117(6) 0.4559(4) 0.77323(7)
C31 C 0.8442(4) 0.3883(6) 0.77323(7)
C32 C 0.6034(6) 0.5127(5) 0.77312(8)
C33 C 0.9093(3) 0.3966(6) 0.77312(8)
H20 H 0.6122 0.5391 0.7841
H21 H 0.9269 0.3878 0.7841
C34 C 0.5821(6) 0.5321(5) 0.75712(10)
C35 C 0.9500(4) 0.4179(6) 0.75712(10)
H22 H 0.5855 0.5760 0.7566
H23 H 0.9905 0.4145 0.7566
N6 N 0.2657(4) 0.1560(3) 0.90908(8)
N7 N 0.5569(5) 0.4893(3) 0.74241(8)
N8 N 0.9324(4) 0.4431(5) 0.74241(8)
N9 N 0.8440(3) 0.1098(5) 0.90908(8)
C36 C 0.5648(7) 0.4369(5) 0.74166(13)
C37 C 0.8721(5) 0.4352(7) 0.74166(13)
H24 H 0.5513 0.4101 0.7307
H25 H 0.8588 0.4487 0.7307
C38 C 0.5935(6) 0.4160(4) 0.75667(10)
C39 C 0.8225(5) 0.4065(6) 0.75667(10)
H26 H 0.5998 0.3774 0.7555
H27 H 0.7776 0.4002 0.7555
N9_2 N 0.8902(5) 0.7343(6) 0.90908(8)
N3_2 N 0.4623(4) 0.9396(6) 0.69444(8)
N3_3 N 0.0604(6) 0.5226(5) 0.69444(8)
N3_4 N 0.0604(6) 0.5377(4) 0.19444(8)
Ag1_2 Ag 0.86247(5) 0.19064(3) 0.385180(8)
Al1_2 Al 0.6667 0.3333 0.30277(3)
O1_2 O 0.7074(3) 0.2973(2) 0.31825(5)
C1_2 C 0.7128(4) 0.2432(3) 0.31631(7)
O2_2 O 0.6242(3) 0.3676(2) 0.28707(6)
C2_2 C 0.5136(4) 0.3175(3) 0.30161(8)
H1_2 H 0.4682 0.3101 0.3006
C3_2 C 0.5623(6) 0.3576(4) 0.28874(9)
C4_2 C 0.7471(5) 0.2279(4) 0.33173(8)
C5_2 C 0.7550(4) 0.2603(3) 0.34844(7)
H2_2 H 0.7097 0.4468 0.3503
C6_2 C 0.7891(6) 0.2481(4) 0.36258(9)
H3_2 H 0.7273 0.5243 0.3739
N1_2 N 0.8107(5) 0.2044(4) 0.36111(8)
C7_2 C 0.8277(9) 0.6301(8) 0.34469(12)
H4_2 H 0.8563 0.6784 0.3433
C8_2 C 0.8220(7) 0.5907(6) 0.33039(11)
H5_2 H 0.8498 0.6092 0.3197
C9_2 C 0.6117(6) 0.1558(4) 0.27323(7)
C10_2 C 0.6034(6) 0.0907(3) 0.27312(8)
H6_2 H 0.6122 0.0731 0.2841
C11_2 C 0.5821(6) 0.0500(4) 0.25712(10)
H7_2 H 0.5855 0.0095 0.2566
N2_2 N 0.5569(5) 0.0676(4) 0.24241(8)
C12_2 C 0.5648(7) 0.1279(5) 0.24166(13)
H8_2 H 0.5513 0.1412 0.2307
C13_2 C 0.5935(6) 0.1775(5) 0.25667(10)
H9_2 H 0.5998 0.2224 0.2555
Ag2_2 Ag 0.52914(5) 0.00516(4) 0.218513(8)
Ag3_2 Ag 0.99484(6) 0.52397(3) 0.218513(8)
Ag4_2 Ag 0.80936(6) 0.67183(4) 0.385180(8)
Ag5_2 Ag 0.47603(6) 0.47086(5) 0.218513(8)
Ag6_2 Ag 0.32817(6) 0.13753(5) 0.385180(8)
O3_2 O 0.5899(4) 0.2926(3) 0.31825(5)
O4_2 O 0.7027(4) 0.4101(2) 0.31825(5)
C14_2 C 0.5304(5) 0.2872(4) 0.31631(7)
C15_2 C 0.7568(5) 0.4696(3) 0.31631(7)
O5_2 O 0.7434(4) 0.3758(3) 0.28707(6)
O6_2 O 0.6324(4) 0.2566(2) 0.28707(6)
C16_2 C 0.8039(5) 0.4864(4) 0.30161(8)
C17_2 C 0.6825(5) 0.1961(3) 0.30161(8)
H10_2 H 0.8419 0.5318 0.3006
H11_2 H 0.6899 0.1581 0.3006
C18_2 C 0.7953(7) 0.4377(6) 0.28874(9)
C19_2 C 0.6424(7) 0.2047(4) 0.28874(9)
C20_2 C 0.7721(6) 0.5192(3) 0.33173(8)
C21_2 C 0.4808(6) 0.2529(5) 0.33173(8)
C22_2 C 0.7397(5) 0.4947(3) 0.34844(7)
C23_2 C 0.5053(5) 0.2450(4) 0.34844(7)
H12_2 H 0.5532 0.2629 0.3503
H13_2 H 0.7371 0.2903 0.3503
C24_2 C 0.7519(7) 0.5410(4) 0.36258(9)
C25_2 C 0.4590(7) 0.2109(6) 0.36258(9)
H14_2 H 0.4757 0.2030 0.3739
H15_2 H 0.7970 0.2727 0.3739
N4_2 N 0.7956(6) 0.6063(3) 0.36111(8)
N5_2 N 0.3937(6) 0.1893(5) 0.36111(8)
C26_2 C 0.3699(10) 0.1976(4) 0.34469(12)
C27_2 C 0.8024(12) 0.1723(9) 0.34469(12)
H16_2 H 0.3216 0.1779 0.3433
H17_2 H 0.8221 0.1437 0.3433
C28_2 C 0.4093(8) 0.2313(4) 0.33039(11)
C29_2 C 0.7687(9) 0.1780(7) 0.33039(11)
H18_2 H 0.3908 0.2406 0.3197
H19_2 H 0.7594 0.1502 0.3197
C30_2 C 0.8442(7) 0.4559(4) 0.27323(7)
C31_2 C 0.5441(7) 0.3883(6) 0.27323(7)
C32_2 C 0.9093(8) 0.5127(5) 0.27312(8)
C33_2 C 0.4873(7) 0.3966(6) 0.27312(8)
H20_2 H 0.9269 0.5391 0.2841
H21_2 H 0.4609 0.3878 0.2841
C34_2 C 0.9500(8) 0.5321(5) 0.25712(10)
C35_2 C 0.4679(7) 0.4179(6) 0.25712(10)
H22_2 H 0.9905 0.5760 0.2566
H23_2 H 0.4240 0.4145 0.2566
N6_2 N 0.8902(5) 0.1560(3) 0.40908(8)
N7_2 N 0.9324(6) 0.4893(3) 0.24241(8)
N8_2 N 0.5107(6) 0.4431(5) 0.24241(8)
N9_3 N 0.2657(6) 0.1098(5) 0.40908(8)
C36_2 C 0.8721(9) 0.4369(5) 0.24166(13)
C37_2 C 0.5631(9) 0.4352(7) 0.24166(13)
H24_2 H 0.8588 0.4101 0.2307
H25_2 H 0.5899 0.4487 0.2307
C38_2 C 0.8225(7) 0.4160(4) 0.25667(10)
C39_2 C 0.5840(8) 0.4065(6) 0.25667(10)
H26_2 H 0.7776 0.3774 0.2555
H27_2 H 0.6226 0.4002 0.2555
N9_4 N 0.8440(3) 0.7343(6) 0.40908(8)
N3_5 N 0.4774(5) 0.9396(6) 0.19444(8)
N3_6 N 0.4623(4) 0.5226(5) 0.19444(8)
H4_3 H 0.4888 0.0117 0.1766
Al1_3 Al 0.3333 0.6666 0.13610(3)
O1_3 O 0.2566(2) 0.6306(2) 0.15158(5)
C1_3 C 0.1971(3) 0.5765(3) 0.14964(7)
O2_3 O 0.4101(2) 0.7009(2) 0.12040(6)
C2_3 C 0.4706(3) 0.6508(3) 0.13494(8)
H1_3 H 0.5086 0.6434 0.1339
C3_3 C 0.4620(4) 0.6909(4) 0.12207(9)
C4_3 C 0.1475(3) 0.5612(4) 0.16506(8)
C5_3 C 0.1720(3) 0.5936(3) 0.18177(7)
H2_3 H 0.4038 0.7801 0.1836
C6_3 C 0.1257(4) 0.5814(4) 0.19591(9)
H3_3 H 0.4637 0.8576 0.2072
C7_3 C 0.4691(4) 0.9634(8) 0.17802(12)
C8_3 C 0.4354(4) 0.9240(6) 0.16372(11)
H5_3 H 0.4261 0.9425 0.1530
C9_3 C 0.2108(4) 0.4891(4) 0.10656(7)
C10_3 C 0.1540(5) 0.4240(3) 0.10645(8)
H6_3 H 0.1276 0.4064 0.1174
C11_3 C 0.1346(5) 0.3833(4) 0.09045(10)
H7_3 H 0.0907 0.3428 0.0899
N2_3 N 0.1774(3) 0.4009(4) 0.07574(8)
C12_3 C 0.2298(5) 0.4612(5) 0.07499(13)
H8_3 H 0.2566 0.4745 0.0640
C13_3 C 0.2507(4) 0.5108(5) 0.09000(10)
H9_3 H 0.2893 0.5557 0.0888
Ag2_3 Ag 0.14269(3) 0.33850(4) 0.051847(8)
Ag3_3 Ag 0.19580(5) 0.85731(3) 0.051847(8)
Ag5_3 Ag 0.66150(4) 0.80420(5) 0.051847(8)
O3_3 O 0.3694(2) 0.6259(3) 0.15158(5)
O4_3 O 0.3741(3) 0.7434(2) 0.15158(5)
C14_3 C 0.4235(3) 0.6205(4) 0.14964(7)
C15_3 C 0.3795(4) 0.8029(3) 0.14964(7)
O5_3 O 0.2991(2) 0.7091(3) 0.12040(6)
O6_3 O 0.2909(3) 0.5899(2) 0.12040(6)
C16_3 C 0.3492(3) 0.8197(4) 0.13494(8)
C17_3 C 0.1803(4) 0.5294(3) 0.13494(8)
H10_3 H 0.3566 0.8651 0.1339
H11_3 H 0.1349 0.4914 0.1339
C18_3 C 0.3091(4) 0.7710(6) 0.12207(9)
C19_3 C 0.2290(6) 0.5380(4) 0.12207(9)
C20_3 C 0.4138(5) 0.8525(3) 0.16506(8)
C21_3 C 0.4388(4) 0.5862(5) 0.16506(8)
C22_3 C 0.4217(4) 0.8280(3) 0.18177(7)
C23_3 C 0.4064(3) 0.5783(4) 0.18177(7)
H12_3 H 0.3764 0.5962 0.1836
H13_3 H 0.2199 0.6236 0.1836
C24_3 C 0.4558(6) 0.8743(4) 0.19591(9)
C25_3 C 0.4186(4) 0.5442(6) 0.19591(9)
H14_3 H 0.3940 0.5363 0.2072
H15_3 H 0.1424 0.6060 0.2072
N3_7 N 0.1440(5) 0.8711(4) 0.02778(8)
C26_3 C 0.4944(9) 0.5309(4) 0.17802(12)
C27_3 C 0.0366(8) 0.5056(9) 0.17802(12)
H16_3 H 0.5230 0.5112 0.1766
C28_3 C 0.4887(7) 0.5646(4) 0.16372(11)
C29_3 C 0.0760(6) 0.5113(7) 0.16372(11)
H18_3 H 0.5165 0.5739 0.1530
H19_3 H 0.0575 0.4835 0.1530
C30_3 C 0.2784(6) 0.7892(4) 0.10656(7)
C31_3 C 0.5109(4) 0.7216(6) 0.10656(7)
C32_3 C 0.2701(6) 0.8460(5) 0.10645(8)
C33_3 C 0.5760(3) 0.7299(6) 0.10645(8)
H20_3 H 0.2789 0.8724 0.1174
H21_3 H 0.5936 0.7211 0.1174
C34_3 C 0.2488(6) 0.8654(5) 0.09045(10)
C35_3 C 0.6167(4) 0.7512(6) 0.09045(10)
H22_3 H 0.2522 0.9093 0.0899
H23_3 H 0.6572 0.7478 0.0899
N7_3 N 0.2236(5) 0.8226(3) 0.07574(8)
N8_3 N 0.5991(4) 0.7764(5) 0.07574(8)
C36_3 C 0.2315(7) 0.7702(5) 0.07499(13)
C37_3 C 0.5388(5) 0.7685(7) 0.07499(13)
H24_3 H 0.2180 0.7434 0.0640
H25_3 H 0.5255 0.7820 0.0640
C38_3 C 0.2602(6) 0.7493(4) 0.09000(10)
C39_3 C 0.4892(5) 0.7398(6) 0.09000(10)
H26_3 H 0.2665 0.7107 0.0888
H27_3 H 0.4443 0.7335 0.0888
H17_3 H 0.9883 0.4770 0.1766
N3_8 N 0.1289(4) 0.2730(6) 0.02778(8)
N3_9 N 0.7270(6) 0.8560(5) 0.02778(8)
H4_4 H 0.5230 0.0117 0.6766
Al1_4 Al 0.3334 0.6666 0.63610(3)
O1_4 O 0.3741(3) 0.6306(2) 0.65158(5)
C1_4 C 0.3795(4) 0.5765(3) 0.64964(7)
O2_4 O 0.2909(3) 0.7009(2) 0.62040(6)
C2_4 C 0.1803(4) 0.6508(3) 0.63494(8)
H1_4 H 0.1349 0.6434 0.6339
C3_4 C 0.2290(6) 0.6909(4) 0.62207(9)
C4_4 C 0.4138(5) 0.5612(4) 0.66506(8)
C5_4 C 0.4217(4) 0.5936(3) 0.68177(7)
H2_4 H 0.3764 0.7801 0.6836
C6_4 C 0.4558(6) 0.5814(4) 0.69591(9)
H3_4 H 0.3940 0.8576 0.7072
C7_4 C 0.4944(9) 0.9634(8) 0.67802(12)
C8_4 C 0.4887(7) 0.9240(6) 0.66372(11)
H5_4 H 0.5165 0.9425 0.6530
C9_4 C 0.2784(6) 0.4891(4) 0.60656(7)
C10_4 C 0.2701(6) 0.4240(3) 0.60645(8)
H6_4 H 0.2789 0.4064 0.6174
C11_4 C 0.2488(6) 0.3833(4) 0.59045(10)
H7_4 H 0.2522 0.3428 0.5899
N2_4 N 0.2236(5) 0.4009(4) 0.57574(8)
C12_4 C 0.2315(7) 0.4612(5) 0.57499(13)
H8_4 H 0.2180 0.4745 0.5640
C13_4 C 0.2602(6) 0.5108(5) 0.59000(10)
H9_4 H 0.2665 0.5557 0.5888
Ag2_4 Ag 0.19580(5) 0.33850(4) 0.551847(8)
Ag3_4 Ag 0.66150(6) 0.85731(3) 0.551847(8)
Ag5_4 Ag 0.14269(6) 0.80420(5) 0.551847(8)
O3_4 O 0.2566(4) 0.6259(3) 0.65158(5)
O4_4 O 0.3694(4) 0.7434(2) 0.65158(5)
C14_4 C 0.1971(5) 0.6205(4) 0.64964(7)
C15_4 C 0.4235(5) 0.8029(3) 0.64964(7)
O5_4 O 0.4101(4) 0.7091(3) 0.62040(6)
O6_4 O 0.2991(4) 0.5899(2) 0.62040(6)
C16_4 C 0.4706(5) 0.8197(4) 0.63494(8)
C17_4 C 0.3492(5) 0.5294(3) 0.63494(8)
H10_4 H 0.5086 0.8651 0.6339
H11_4 H 0.3566 0.4914 0.6339
C18_4 C 0.4620(7) 0.7710(6) 0.62207(9)
C19_4 C 0.3091(7) 0.5380(4) 0.62207(9)
C20_4 C 0.4388(6) 0.8525(3) 0.66506(8)
C21_4 C 0.1475(6) 0.5862(5) 0.66506(8)
C22_4 C 0.4064(5) 0.8280(3) 0.68177(7)
C23_4 C 0.1720(5) 0.5783(4) 0.68177(7)
H12_4 H 0.2199 0.5962 0.6836
H13_4 H 0.4038 0.6236 0.6836
C24_4 C 0.4186(7) 0.8743(4) 0.69591(9)
C25_4 C 0.1257(7) 0.5442(6) 0.69591(9)
H14_4 H 0.1424 0.5363 0.7072
H15_4 H 0.4637 0.6060 0.7072
N3_10 N 0.7270(6) 0.8711(4) 0.52778(8)
C26_4 C 0.0366(10) 0.5309(4) 0.67802(12)
C27_4 C 0.4691(12) 0.5056(9) 0.67802(12)
H17_4 H 0.4888 0.4770 0.6766
C28_4 C 0.0760(8) 0.5646(4) 0.66372(11)
C29_4 C 0.4354(9) 0.5113(7) 0.66372(11)
H18_4 H 0.0575 0.5739 0.6530
H19_4 H 0.4261 0.4835 0.6530
C30_4 C 0.5109(7) 0.7892(4) 0.60656(7)
C31_4 C 0.2108(7) 0.7216(6) 0.60656(7)
C32_4 C 0.5760(8) 0.8460(5) 0.60645(8)
C33_4 C 0.1540(7) 0.7299(6) 0.60645(8)
H20_4 H 0.5936 0.8724 0.6174
H21_4 H 0.1276 0.7211 0.6174
C34_4 C 0.6167(8) 0.8654(5) 0.59045(10)
C35_4 C 0.1346(7) 0.7512(6) 0.59045(10)
H22_4 H 0.6572 0.9093 0.5899
H23_4 H 0.0907 0.7478 0.5899
N7_4 N 0.5991(6) 0.8226(3) 0.57574(8)
N8_4 N 0.1774(6) 0.7764(5) 0.57574(8)
C36_4 C 0.5388(9) 0.7702(5) 0.57499(13)
C37_4 C 0.2298(9) 0.7685(7) 0.57499(13)
H24_4 H 0.5255 0.7434 0.5640
H25_4 H 0.2566 0.7820 0.5640
C38_4 C 0.4892(7) 0.7493(4) 0.59000(10)
C39_4 C 0.2507(8) 0.7398(6) 0.59000(10)
H26_4 H 0.4443 0.7107 0.5888
H27_4 H 0.2893 0.7335 0.5888
H16_4 H 0.9883 0.5112 0.6766
N3_11 N 0.1440(5) 0.2730(6) 0.52778(8)
N3_12 N 0.1289(4) 0.8560(5) 0.52778(8)
O2_5 O 0.0767(2) 0.0343(2) 0.45374(6)
C3_5 C 0.1286(4) 0.0243(4) 0.45541(9)
H2_5 H 0.0704 0.1135 0.5170
H3_5 H 0.1303 0.1910 0.5406
C7_5 C 0.1357(4) 0.2968(8) 0.51136(12)
H4_5 H 0.1554 0.3451 0.5100
C8_5 C 0.1020(4) 0.2574(6) 0.49706(11)
H5_5 H 0.0927 0.2759 0.4864
O4_5 O 0.0407(3) 0.0768(2) 0.48492(5)
C15_5 C 0.0461(4) 0.1363(3) 0.48298(7)
C16_5 C 0.0158(3) 0.1531(4) 0.46828(8)
H10_5 H 0.0232 0.1985 0.4673
C20_5 C 0.0804(5) 0.1859(3) 0.49840(8)
C22_5 C 0.0883(4) 0.1614(3) 0.51511(7)
C24_5 C 0.1224(6) 0.2077(4) 0.52925(9)
C31_5 C 0.1775(4) 0.0550(6) 0.43990(7)
C33_5 C 0.2426(3) 0.0633(6) 0.43979(8)
H21_5 H 0.2602 0.0545 0.4508
C35_5 C 0.2833(4) 0.0846(6) 0.42379(10)
H23_5 H 0.3238 0.0812 0.4233
C37_5 C 0.2054(5) 0.1019(7) 0.40833(13)
H25_5 H 0.1921 0.1154 0.3974
C39_5 C 0.1558(5) 0.0732(6) 0.42334(10)
H27_5 H 0.1109 0.0669 0.4222
C2_5 C 0.1372(3) 0.9842(3) 0.46828(8)
H1_5 H 0.1752 0.9768 0.4673
O3_5 O 0.0360(2) 0.9593(3) 0.48492(5)
C14_5 C 0.0901(3) 0.9539(4) 0.48298(7)
C21_5 C 0.1054(4) 0.9196(5) 0.49840(8)
C23_5 C 0.0730(3) 0.9117(4) 0.51511(7)
H12_5 H 0.0430 0.9296 0.5170
C25_5 C 0.0852(4) 0.8776(6) 0.52925(9)
H14_5 H 0.0606 0.8697 0.5406
C26_5 C 0.1610(9) 0.8643(4) 0.51136(12)
H16_5 H 0.1896 0.8446 0.5100
C28_5 C 0.1553(7) 0.8980(4) 0.49706(11)
H18_5 H 0.1831 0.9073 0.4864
Al1_5 Al 0.9999 -0.0000 0.46944(3)
O5_5 O 0.9657(2) 0.0425(3) 0.45374(6)
C18_5 C 0.9757(4) 0.1044(6) 0.45541(9)
C30_5 C 0.9450(6) 0.1226(4) 0.43990(7)
C32_5 C 0.9367(6) 0.1794(5) 0.43979(8)
H20_5 H 0.9455 0.2058 0.4508
C34_5 C 0.9154(6) 0.1988(5) 0.42379(10)
H22_5 H 0.9188 0.2427 0.4233
C36_5 C 0.8981(7) 0.1036(5) 0.40833(13)
H24_5 H 0.8846 0.0768 0.3974
C38_5 C 0.9268(6) 0.0827(4) 0.42334(10)
H26_5 H 0.9331 0.0441 0.4222
Al1_6 Al 0.9999 1.0000 0.46944(3)
O1_5 O 0.9232(2) 0.9640(2) 0.48492(5)
C1_5 C 0.8637(3) 0.9099(3) 0.48298(7)
C4_5 C 0.8141(3) 0.8946(4) 0.49840(8)
C5_5 C 0.8386(3) 0.9270(3) 0.51511(7)
C6_5 C 0.7923(4) 0.9148(4) 0.52925(9)
C9_5 C 0.8774(4) 0.8225(4) 0.43990(7)
C10_5 C 0.8206(5) 0.7574(3) 0.43979(8)
H6_5 H 0.7942 0.7398 0.4508
C11_5 C 0.8012(5) 0.7167(4) 0.42379(10)
H7_5 H 0.7573 0.6762 0.4233
C12_5 C 0.8964(5) 0.7946(5) 0.40833(13)
H8_5 H 0.9232 0.8079 0.3974
C13_5 C 0.9173(4) 0.8442(5) 0.42334(10)
H9_5 H 0.9559 0.8891 0.4222
O6_5 O 0.9575(3) 0.9233(2) 0.45374(6)
C17_5 C 0.8469(4) 0.8628(3) 0.46828(8)
H11_5 H 0.8015 0.8248 0.4673
C19_5 C 0.8956(6) 0.8714(4) 0.45541(9)
H13_5 H 0.8865 0.9570 0.5170
H15_5 H 0.8090 0.9394 0.5406
C27_5 C 0.7032(8) 0.8390(9) 0.51136(12)
H17_5 H 0.6549 0.8104 0.5100
C29_5 C 0.7426(6) 0.8447(7) 0.49706(11)
H19_5 H 0.7241 0.8169 0.4864
Al1_7 Al 0.0000 -0.0000 0.46944(3)
Al1_8 Al 0.0000 1.0000 0.46944(3)
H2_6 H 0.0430 0.1135 0.0170
H3_6 H 0.0606 0.1910 0.0406
C7_6 C 0.1610(9) 0.2968(8) 0.01136(12)
H4_6 H 0.1896 0.3451 0.0100
C22_6 C 0.0730(5) 0.1614(3) 0.01511(7)
C24_6 C 0.0852(7) 0.2077(4) 0.02925(9)
Al1_9 Al 0.0000 -0.0000 0.96944(3)
C8_6 C 0.1553(7) 0.2574(6) 0.99706(11)
H5_6 H 0.1831 0.2759 0.9864
O4_6 O 0.0360(4) 0.0768(2) 0.98492(5)
C15_6 C 0.0901(5) 0.1363(3) 0.98298(7)
O5_6 O 0.0767(4) 0.0425(3) 0.95374(6)
C16_6 C 0.1372(5) 0.1531(4) 0.96828(8)
H10_6 H 0.1752 0.1985 0.9673
C18_6 C 0.1286(7) 0.1044(6) 0.95541(9)
C20_6 C 0.1054(6) 0.1859(3) 0.99840(8)
C30_6 C 0.1775(7) 0.1226(4) 0.93990(7)
C32_6 C 0.2426(8) 0.1794(5) 0.93979(8)
H20_6 H 0.2602 0.2058 0.9508
C34_6 C 0.2833(8) 0.1988(5) 0.92379(10)
H22_6 H 0.3238 0.2427 0.9233
C36_6 C 0.2054(9) 0.1036(5) 0.90833(13)
H24_6 H 0.1921 0.0768 0.8974
C38_6 C 0.1558(7) 0.0827(4) 0.92334(10)
H26_6 H 0.1109 0.0441 0.9222
C5_6 C 0.0883(4) 0.9270(3) 0.01511(7)
C6_6 C 0.1224(6) 0.9148(4) 0.02925(9)
H13_6 H 0.0704 0.9570 0.0170
H15_6 H 0.1303 0.9394 0.0406
C27_6 C 0.1357(12) 0.8390(9) 0.01136(12)
H17_6 H 0.1554 0.8104 0.0100
Al1_10 Al 1.0000 -0.0000 0.96944(3)
O2_6 O 0.9575(3) 0.0343(2) 0.95374(6)
C3_6 C 0.8956(6) 0.0243(4) 0.95541(9)
C31_6 C 0.8774(7) 0.0550(6) 0.93990(7)
C33_6 C 0.8206(7) 0.0633(6) 0.93979(8)
H21_6 H 0.7942 0.0545 0.9508
C35_6 C 0.8012(7) 0.0846(6) 0.92379(10)
H23_6 H 0.7573 0.0812 0.9233
C37_6 C 0.8964(9) 0.1019(7) 0.90833(13)
H25_6 H 0.9232 0.1154 0.8974
C39_6 C 0.9173(8) 0.0732(6) 0.92334(10)
H27_6 H 0.9559 0.0669 0.9222
C23_6 C 0.8386(5) 0.9117(4) 0.01511(7)
H12_6 H 0.8865 0.9296 0.0170
C25_6 C 0.7923(7) 0.8776(6) 0.02925(9)
H14_6 H 0.8090 0.8697 0.0406
C26_6 C 0.7032(10) 0.8643(4) 0.01136(12)
H16_6 H 0.6549 0.8446 0.0100
Al1_11 Al 1.0000 1.0000 0.96944(3)
C2_6 C 0.8469(4) 0.9842(3) 0.96828(8)
H1_6 H 0.8015 0.9768 0.9673
C9_6 C 0.9450(6) 0.8225(4) 0.93990(7)
C10_6 C 0.9367(6) 0.7574(3) 0.93979(8)
H6_6 H 0.9455 0.7398 0.9508
C11_6 C 0.9154(6) 0.7167(4) 0.92379(10)
H7_6 H 0.9188 0.6762 0.9233
C12_6 C 0.8981(7) 0.7946(5) 0.90833(13)
H8_6 H 0.8846 0.8079 0.8974
C13_6 C 0.9268(6) 0.8442(5) 0.92334(10)
H9_6 H 0.9331 0.8891 0.9222
O3_6 O 0.9232(4) 0.9593(3) 0.98492(5)
C14_6 C 0.8637(5) 0.9539(4) 0.98298(7)
O6_6 O 0.9657(4) 0.9233(2) 0.95374(6)
C19_6 C 0.9757(7) 0.8714(4) 0.95541(9)
C21_6 C 0.8141(6) 0.9196(5) 0.99840(8)
C28_6 C 0.7426(8) 0.8980(4) 0.99706(11)
H18_6 H 0.7241 0.9073 0.9864
Al1_12 Al 0.0000 1.0000 0.96944(3)
O1_6 O 0.0407(3) 0.9640(2) 0.98492(5)
C1_6 C 0.0461(4) 0.9099(3) 0.98298(7)
C4_6 C 0.0804(5) 0.8946(4) 0.99840(8)
C17_6 C 0.0158(5) 0.8628(3) 0.96828(8)
H11_6 H 0.0232 0.8248 0.9673
C29_6 C 0.1020(9) 0.8447(7) 0.99706(11)
H19_6 H 0.0927 0.8169 0.9864
Ag7 Ag 0.30263(4) 0.13712(4) 0.783100(7)
Al2 Al 0.6666 0.3333 0.70812(3)
O7 O 0.58809(18) 0.28491(19) 0.72293(4)
C40 C 0.5309(3) 0.2310(3) 0.71874(7)
O8 O 0.74311(18) 0.37810(19) 0.69197(4)
C41 C 0.8059(3) 0.3240(3) 0.70199(8)
H28 H 0.8399 0.3124 0.6989
C42 C 0.7919(3) 0.3660(3) 0.68968(6)
C43 C 0.4738(3) 0.2081(3) 0.73257(7)
C44 C 0.4887(5) 0.2448(4) 0.74957(10)
H29 H 0.7484 0.4664 0.7520
C45 C 0.4397(4) 0.2266(4) 0.76203(11)
H30 H 0.8016 0.5499 0.7733
N10 N 0.3737(3) 0.1724(3) 0.75933(9)
C46 C 0.7749(5) 0.6395(5) 0.74440(10)
H31 H 0.7799 0.6837 0.7427
C47 C 0.7424(5) 0.5887(5) 0.73105(11)
H32 H 0.7252 0.5993 0.7203
C48 C 0.5634(4) 0.1648(3) 0.67369(9)
C49 C 0.4983(4) 0.1283(5) 0.66447(9)
H33 H 0.4579 0.1221 0.6705
C50 C 0.4946(4) 0.1033(6) 0.64755(10)
H34 H 0.4563 0.0943 0.6400
N11 N 0.5430(3) 0.0899(3) 0.64047(8)
C51 C 0.6041(4) 0.1224(4) 0.64940(11)
H35 H 0.6414 0.1187 0.6445
C52 C 0.6148(3) 0.1610(3) 0.66548(9)
H36 H 0.6596 0.1851 0.6707
Ag8 Ag 0.52955(4) 0.03070(4) 0.616433(7)
Ag9 Ag 0.50116(6) 0.47045(4) 0.616433(7)
Ag10 Ag 0.83449(6) 0.69737(4) 0.783100(7)
Ag11 Ag 0.96930(4) 0.49884(6) 0.616433(7)
Ag12 Ag 0.86288(4) 0.16551(6) 0.783100(7)
O9 O 0.71509(19) 0.30318(26) 0.72293(4)
O10 O 0.69682(26) 0.41191(18) 0.72293(4)
C53 C 0.7690(3) 0.2999(4) 0.71874(7)
C54 C 0.7001(4) 0.4691(3) 0.71874(7)
O11 O 0.62190(19) 0.36501(26) 0.69197(4)
O12 O 0.63499(26) 0.25689(18) 0.69197(4)
C55 C 0.6760(3) 0.4819(4) 0.70199(8)
C56 C 0.5181(4) 0.1941(3) 0.70199(8)
H37 H 0.6876 0.5275 0.6989
H38 H 0.4725 0.1601 0.6989
C57 C 0.6340(3) 0.4259(4) 0.68968(6)
C58 C 0.5741(4) 0.2081(3) 0.68968(6)
C59 C 0.7343(4) 0.5262(3) 0.73257(7)
C60 C 0.7919(3) 0.2657(4) 0.73257(7)
C61 C 0.7561(6) 0.5113(5) 0.74957(10)
C62 C 0.7552(4) 0.2439(6) 0.74957(10)
H39 H 0.7180 0.2516 0.7520
H40 H 0.5336 0.2820 0.7520
C63 C 0.7869(6) 0.5603(4) 0.76203(11)
C64 C 0.7734(4) 0.2131(6) 0.76203(11)
H41 H 0.7483 0.1984 0.7733
H42 H 0.4501 0.2517 0.7733
N12 N 0.4654(4) 0.5057(3) 0.59266(9)
N13 N 0.7987(4) 0.6263(3) 0.75933(9)
N14 N 0.8276(3) 0.2013(4) 0.75933(9)
C65 C 0.8646(7) 0.2251(5) 0.74440(10)
C66 C 0.3605(5) 0.1354(7) 0.74440(10)
H43 H 0.9038 0.2201 0.7427
H44 H 0.3163 0.0962 0.7427
C67 C 0.8463(7) 0.2576(5) 0.73105(11)
C68 C 0.4113(5) 0.1537(7) 0.73105(11)
H45 H 0.8741 0.2748 0.7203
H46 H 0.4007 0.1259 0.7203
C69 C 0.6014(5) 0.4366(4) 0.67369(9)
C70 C 0.8352(3) 0.3986(5) 0.67369(9)
C71 C 0.6300(6) 0.5017(4) 0.66447(9)
C72 C 0.8717(5) 0.3700(6) 0.66447(9)
H47 H 0.6642 0.5421 0.6705
H48 H 0.8779 0.3358 0.6705
C73 C 0.6087(7) 0.5054(4) 0.64755(10)
C74 C 0.8967(6) 0.3913(7) 0.64755(10)
H49 H 0.6380 0.5437 0.6400
H50 H 0.9057 0.3620 0.6400
N15 N 0.2434(3) 0.1237(3) 0.80714(8)
N16 N 0.5469(4) 0.4570(3) 0.64047(8)
N17 N 0.9101(3) 0.4531(4) 0.64047(8)
N18 N 0.8763(3) 0.1198(4) 0.80714(8)
C75 C 0.5183(6) 0.3959(4) 0.64940(11)
C76 C 0.8776(4) 0.4817(6) 0.64940(11)
H51 H 0.4773 0.3586 0.6445
H52 H 0.8813 0.5227 0.6445
C77 C 0.5462(4) 0.3852(3) 0.66548(9)
C78 C 0.8390(3) 0.4538(4) 0.66548(9)
H53 H 0.5255 0.3404 0.6707
H54 H 0.8149 0.4745 0.6707
N18_2 N 0.8802(4) 0.7566(5) 0.80714(8)
N12_2 N 0.4943(3) 0.9596(5) 0.59266(9)
N12_3 N 0.0404(5) 0.5346(4) 0.59266(9)
N12_4 N 0.0404(5) 0.5057(3) 0.09266(9)
Ag7_2 Ag 0.83449(6) 0.13712(4) 0.283100(7)
Al2_2 Al 0.6667 0.3333 0.20812(3)
O7_2 O 0.69682(26) 0.28491(19) 0.22293(4)
C40_2 C 0.7001(4) 0.2310(3) 0.21874(7)
O8_2 O 0.63499(26) 0.37810(19) 0.19197(4)
C41_2 C 0.5181(4) 0.3240(3) 0.20199(8)
H28_2 H 0.4725 0.3124 0.1989
C42_2 C 0.5741(4) 0.3660(3) 0.18968(6)
C43_2 C 0.7343(4) 0.2081(3) 0.23257(7)
C44_2 C 0.7561(6) 0.2448(4) 0.24957(10)
H29_2 H 0.7180 0.4664 0.2520
C45_2 C 0.7869(6) 0.2266(4) 0.26203(11)
H30_2 H 0.7483 0.5499 0.2733
N10_2 N 0.7987(4) 0.1724(3) 0.25933(9)
C46_2 C 0.8646(7) 0.6395(5) 0.24440(10)
H31_2 H 0.9038 0.6837 0.2427
C47_2 C 0.8463(7) 0.5887(5) 0.23105(11)
H32_2 H 0.8741 0.5993 0.2203
C48_2 C 0.6014(5) 0.1648(3) 0.17369(9)
C49_2 C 0.6300(6) 0.1283(5) 0.16447(9)
H33_2 H 0.6642 0.1221 0.1705
C50_2 C 0.6087(7) 0.1033(6) 0.14755(10)
H34_2 H 0.6380 0.0943 0.1400
N11_2 N 0.5469(4) 0.0899(3) 0.14047(8)
C51_2 C 0.5183(6) 0.1224(4) 0.14940(11)
H35_2 H 0.4773 0.1187 0.1445
C52_2 C 0.5462(4) 0.1610(3) 0.16548(9)
H36_2 H 0.5255 0.1851 0.1707
Ag8_2 Ag 0.50116(6) 0.03070(4) 0.116433(7)
Ag9_2 Ag 0.96930(7) 0.47045(4) 0.116433(7)
Ag10_2 Ag 0.86288(7) 0.69737(4) 0.283100(7)
Ag11_2 Ag 0.52955(7) 0.49884(6) 0.116433(7)
Ag12_2 Ag 0.30263(7) 0.16551(6) 0.283100(7)
O9_2 O 0.58809(32) 0.30318(26) 0.22293(4)
O10_2 O 0.71509(32) 0.41191(18) 0.22293(4)
C53_2 C 0.5309(5) 0.2999(4) 0.21874(7)
C54_2 C 0.7690(5) 0.4691(3) 0.21874(7)
O11_2 O 0.74311(32) 0.36501(26) 0.19197(4)
O12_2 O 0.62190(32) 0.25689(18) 0.19197(4)
C55_2 C 0.8059(5) 0.4819(4) 0.20199(8)
C56_2 C 0.6760(5) 0.1941(3) 0.20199(8)
H37_2 H 0.8399 0.5275 0.1989
H38_2 H 0.6876 0.1601 0.1989
C57_2 C 0.7919(5) 0.4259(4) 0.18968(6)
C58_2 C 0.6340(5) 0.2081(3) 0.18968(6)
C59_2 C 0.7919(5) 0.5262(3) 0.23257(7)
C60_2 C 0.4738(5) 0.2657(4) 0.23257(7)
C61_2 C 0.7552(8) 0.5113(5) 0.24957(10)
C62_2 C 0.4887(7) 0.2439(6) 0.24957(10)
H39_2 H 0.5336 0.2516 0.2520
H40_2 H 0.7484 0.2820 0.2520
C63_2 C 0.7734(7) 0.5603(4) 0.26203(11)
C64_2 C 0.4397(7) 0.2131(6) 0.26203(11)
H41_2 H 0.4501 0.1984 0.2733
H42_2 H 0.8016 0.2517 0.2733
N13_2 N 0.8276(5) 0.6263(3) 0.25933(9)
N14_2 N 0.3737(5) 0.2013(4) 0.25933(9)
C65_2 C 0.3605(9) 0.2251(5) 0.24440(10)
C66_2 C 0.7749(9) 0.1354(7) 0.24440(10)
H43_2 H 0.3163 0.2201 0.2427
H44_2 H 0.7799 0.0962 0.2427
C67_2 C 0.4113(9) 0.2576(5) 0.23105(11)
C68_2 C 0.7424(9) 0.1537(7) 0.23105(11)
H45_2 H 0.4007 0.2748 0.2203
H46_2 H 0.7252 0.1259 0.2203
C69_2 C 0.8352(6) 0.4366(4) 0.17369(9)
C70_2 C 0.5634(6) 0.3986(5) 0.17369(9)
C71_2 C 0.8717(7) 0.5017(4) 0.16447(9)
C72_2 C 0.4983(8) 0.3700(6) 0.16447(9)
H47_2 H 0.8779 0.5421 0.1705
H48_2 H 0.4579 0.3358 0.1705
C73_2 C 0.8967(8) 0.5054(4) 0.14755(10)
C74_2 C 0.4946(9) 0.3913(7) 0.14755(10)
H49_2 H 0.9057 0.5437 0.1400
H50_2 H 0.4563 0.3620 0.1400
N15_2 N 0.8802(4) 0.1237(3) 0.30714(8)
N16_2 N 0.9101(5) 0.4570(3) 0.14047(8)
N17_2 N 0.5430(5) 0.4531(4) 0.14047(8)
N18_3 N 0.2434(5) 0.1198(4) 0.30714(8)
C75_2 C 0.8776(7) 0.3959(4) 0.14940(11)
C76_2 C 0.6041(7) 0.4817(6) 0.14940(11)
H51_2 H 0.8813 0.3586 0.1445
H52_2 H 0.6414 0.5227 0.1445
C77_2 C 0.8390(5) 0.3852(3) 0.16548(9)
C78_2 C 0.6148(5) 0.4538(4) 0.16548(9)
H53_2 H 0.8149 0.3404 0.1707
H54_2 H 0.6596 0.4745 0.1707
N18_4 N 0.8763(3) 0.7566(5) 0.30714(8)
N12_5 N 0.4654(4) 0.9596(5) 0.09266(9)
N12_6 N 0.4943(3) 0.5346(4) 0.09266(9)
H31_3 H 0.4466 0.0170 0.0760
Al2_3 Al 0.3333 0.6666 0.04145(3)
O7_3 O 0.25476(18) 0.61824(19) 0.05626(4)
C40_3 C 0.1976(3) 0.5643(3) 0.05207(7)
O8_3 O 0.40978(18) 0.71143(19) 0.02530(4)
C41_3 C 0.4726(3) 0.6573(3) 0.03532(8)
H28_3 H 0.5066 0.6457 0.0322
C42_3 C 0.4586(3) 0.6993(3) 0.02301(6)
C43_3 C 0.1405(3) 0.5414(3) 0.06590(7)
C44_3 C 0.1554(5) 0.5781(4) 0.08290(10)
H29_3 H 0.4151 0.7997 0.0853
C45_3 C 0.1064(4) 0.5599(4) 0.09536(11)
H30_3 H 0.4683 0.8832 0.1066
C46_3 C 0.4416(5) 0.9728(5) 0.07773(10)
C47_3 C 0.4091(5) 0.9220(5) 0.06438(11)
H32_3 H 0.3919 0.9326 0.0536
C48_3 C 0.2301(4) 0.4981(3) 0.00702(9)
H33_3 H 0.1246 0.4554 0.0038
H36_3 H 0.3263 0.5184 0.0040
O9_3 O 0.38176(19) 0.63651(26) 0.05626(4)
O10_3 O 0.36349(26) 0.74524(18) 0.05626(4)
C53_3 C 0.4357(3) 0.6332(4) 0.05207(7)
C54_3 C 0.3668(4) 0.8024(3) 0.05207(7)
O11_3 O 0.28857(19) 0.69834(26) 0.02530(4)
O12_3 O 0.30166(26) 0.59022(18) 0.02530(4)
C55_3 C 0.3427(3) 0.8152(4) 0.03532(8)
C56_3 C 0.1848(4) 0.5274(3) 0.03532(8)
H37_3 H 0.3543 0.8608 0.0322
H38_3 H 0.1392 0.4934 0.0322
C57_3 C 0.3007(3) 0.7592(4) 0.02301(6)
C58_3 C 0.2408(4) 0.5414(3) 0.02301(6)
C59_3 C 0.4010(4) 0.8595(3) 0.06590(7)
C60_3 C 0.4586(3) 0.5990(4) 0.06590(7)
C61_3 C 0.4228(6) 0.8446(5) 0.08290(10)
C62_3 C 0.4219(4) 0.5772(6) 0.08290(10)
H39_3 H 0.3847 0.5849 0.0853
H40_3 H 0.2003 0.6153 0.0853
C63_3 C 0.4536(6) 0.8936(4) 0.09536(11)
C64_3 C 0.4401(4) 0.5464(6) 0.09536(11)
H41_3 H 0.4150 0.5317 0.1066
H42_3 H 0.1168 0.5850 0.1066
C65_3 C 0.5313(7) 0.5584(5) 0.07773(10)
C66_3 C 0.0272(5) 0.4687(7) 0.07773(10)
H43_3 H 0.5705 0.5534 0.0760
C67_3 C 0.5130(7) 0.5909(5) 0.06438(11)
C68_3 C 0.0780(5) 0.4870(7) 0.06438(11)
H45_3 H 0.5408 0.6081 0.0536
H46_3 H 0.0674 0.4592 0.0536
C69_3 C 0.2681(5) 0.7699(4) 0.00702(9)
C70_3 C 0.5019(3) 0.7319(5) 0.00702(9)
H47_3 H 0.3309 0.8754 0.0038
H48_3 H 0.5446 0.6691 0.0038
H53_3 H 0.1922 0.6737 0.0040
H54_3 H 0.4816 0.8078 0.0040
C49_3 C 0.1650(4) 0.4616(5) 0.99780(9)
C50_3 C 0.1613(4) 0.4366(6) 0.98088(10)
H34_3 H 0.1230 0.4276 0.9733
N11_3 N 0.2097(3) 0.4232(3) 0.97380(8)
C51_3 C 0.2708(4) 0.4557(4) 0.98273(11)
H35_3 H 0.3081 0.4520 0.9778
C52_3 C 0.2815(3) 0.4943(3) 0.99881(9)
Ag8_3 Ag 0.19621(4) 0.36404(4) 0.949767(7)
Ag9_3 Ag 0.16782(6) 0.80379(4) 0.949767(7)
Ag11_3 Ag 0.63596(4) 0.83218(6) 0.949767(7)
N12_7 N 0.1320(4) 0.8391(3) 0.92600(9)
C71_3 C 0.2967(6) 0.8350(4) 0.99780(9)
C72_3 C 0.5384(5) 0.7033(6) 0.99780(9)
C73_3 C 0.2754(7) 0.8387(4) 0.98088(10)
C74_3 C 0.5634(6) 0.7246(7) 0.98088(10)
H49_3 H 0.3047 0.8770 0.9733
H50_3 H 0.5724 0.6953 0.9733
N16_3 N 0.2136(4) 0.7903(3) 0.97380(8)
N17_3 N 0.5768(3) 0.7864(4) 0.97380(8)
C75_3 C 0.1850(6) 0.7292(4) 0.98273(11)
C76_3 C 0.5443(4) 0.8150(6) 0.98273(11)
H51_3 H 0.1440 0.6919 0.9778
H52_3 H 0.5480 0.8560 0.9778
C77_3 C 0.2129(4) 0.7185(3) 0.99881(9)
C78_3 C 0.5057(3) 0.7871(4) 0.99881(9)
H44_3 H 0.9830 0.4295 0.0760
N12_8 N 0.1609(3) 0.2930(5) 0.92600(9)
N12_9 N 0.7070(5) 0.8680(4) 0.92600(9)
H31_4 H 0.5705 0.0170 0.5760
Al2_4 Al 0.3334 0.6666 0.54145(3)
O7_4 O 0.36349(26) 0.61824(19) 0.55626(4)
C40_4 C 0.3668(4) 0.5643(3) 0.55207(7)
O8_4 O 0.30166(26) 0.71143(19) 0.52530(4)
C41_4 C 0.1848(4) 0.6573(3) 0.53532(8)
H28_4 H 0.1392 0.6457 0.5322
C42_4 C 0.2408(4) 0.6993(3) 0.52301(6)
C43_4 C 0.4010(4) 0.5414(3) 0.56590(7)
C44_4 C 0.4228(6) 0.5781(4) 0.58290(10)
H29_4 H 0.3847 0.7997 0.5853
C45_4 C 0.4536(6) 0.5599(4) 0.59536(11)
H30_4 H 0.4150 0.8832 0.6066
C46_4 C 0.5313(7) 0.9728(5) 0.57773(10)
C47_4 C 0.5130(7) 0.9220(5) 0.56438(11)
H32_4 H 0.5408 0.9326 0.5536
C48_4 C 0.2681(5) 0.4981(3) 0.50702(9)
C49_4 C 0.2967(6) 0.4616(5) 0.49780(9)
H33_4 H 0.3309 0.4554 0.5038
C50_4 C 0.2754(7) 0.4366(6) 0.48088(10)
H34_4 H 0.3047 0.4276 0.4733
N11_4 N 0.2136(4) 0.4232(3) 0.47380(8)
C51_4 C 0.1850(6) 0.4557(4) 0.48273(11)
H35_4 H 0.1440 0.4520 0.4778
C52_4 C 0.2129(4) 0.4943(3) 0.49881(9)
H36_4 H 0.1922 0.5184 0.5040
Ag8_4 Ag 0.16782(6) 0.36404(4) 0.449767(7)
Ag9_4 Ag 0.63596(7) 0.80379(4) 0.449767(7)
Ag11_4 Ag 0.19621(7) 0.83218(6) 0.449767(7)
O9_4 O 0.25476(32) 0.63651(26) 0.55626(4)
O10_4 O 0.38176(32) 0.74524(18) 0.55626(4)
C53_4 C 0.1976(5) 0.6332(4) 0.55207(7)
C54_4 C 0.4357(5) 0.8024(3) 0.55207(7)
O11_4 O 0.40978(32) 0.69834(26) 0.52530(4)
O12_4 O 0.28857(32) 0.59022(18) 0.52530(4)
C55_4 C 0.4726(5) 0.8152(4) 0.53532(8)
C56_4 C 0.3427(5) 0.5274(3) 0.53532(8)
H37_4 H 0.5066 0.8608 0.5322
H38_4 H 0.3543 0.4934 0.5322
C57_4 C 0.4586(5) 0.7592(4) 0.52301(6)
C58_4 C 0.3007(5) 0.5414(3) 0.52301(6)
C59_4 C 0.4586(5) 0.8595(3) 0.56590(7)
C60_4 C 0.1405(5) 0.5990(4) 0.56590(7)
C61_4 C 0.4219(8) 0.8446(5) 0.58290(10)
C62_4 C 0.1554(7) 0.5772(6) 0.58290(10)
H39_4 H 0.2003 0.5849 0.5853
H40_4 H 0.4151 0.6153 0.5853
C63_4 C 0.4401(7) 0.8936(4) 0.59536(11)
C64_4 C 0.1064(7) 0.5464(6) 0.59536(11)
H41_4 H 0.1168 0.5317 0.6066
H42_4 H 0.4683 0.5850 0.6066
N12_10 N 0.7070(5) 0.8391(3) 0.42600(9)
C65_4 C 0.0272(9) 0.5584(5) 0.57773(10)
C66_4 C 0.4416(9) 0.4687(7) 0.57773(10)
H44_4 H 0.4466 0.4295 0.5760
C67_4 C 0.0780(9) 0.5909(5) 0.56438(11)
C68_4 C 0.4091(9) 0.4870(7) 0.56438(11)
H45_4 H 0.0674 0.6081 0.5536
H46_4 H 0.3919 0.4592 0.5536
C69_4 C 0.5019(6) 0.7699(4) 0.50702(9)
C70_4 C 0.2301(6) 0.7319(5) 0.50702(9)
C71_4 C 0.5384(7) 0.8350(4) 0.49780(9)
C72_4 C 0.1650(8) 0.7033(6) 0.49780(9)
H47_4 H 0.5446 0.8754 0.5038
H48_4 H 0.1246 0.6691 0.5038
C73_4 C 0.5634(8) 0.8387(4) 0.48088(10)
C74_4 C 0.1613(9) 0.7246(7) 0.48088(10)
H49_4 H 0.5724 0.8770 0.4733
H50_4 H 0.1230 0.6953 0.4733
N16_4 N 0.5768(5) 0.7903(3) 0.47380(8)
N17_4 N 0.2097(5) 0.7864(4) 0.47380(8)
C75_4 C 0.5443(7) 0.7292(4) 0.48273(11)
C76_4 C 0.2708(7) 0.8150(6) 0.48273(11)
H51_4 H 0.5480 0.6919 0.4778
H52_4 H 0.3081 0.8560 0.4778
C77_4 C 0.5057(5) 0.7185(3) 0.49881(9)
C78_4 C 0.2815(5) 0.7871(4) 0.49881(9)
H53_4 H 0.4816 0.6737 0.5040
H54_4 H 0.3263 0.8078 0.5040
H43_4 H 0.9830 0.5534 0.5760
N12_11 N 0.1320(4) 0.2930(5) 0.42600(9)
N12_12 N 0.1609(3) 0.8680(4) 0.42600(9)
O8_5 O 0.07644(18) 0.04477(19) 0.35864(4)
C42_5 C 0.1252(3) 0.0327(3) 0.35635(6)
H29_5 H 0.0817 0.1331 0.4187
H30_5 H 0.1349 0.2166 0.4400
C46_5 C 0.1082(5) 0.3062(5) 0.41107(10)
H31_5 H 0.1132 0.3504 0.4094
C47_5 C 0.0757(5) 0.2554(5) 0.39772(11)
H32_5 H 0.0585 0.2660 0.3870
O10_5 O 0.03015(26) 0.07858(18) 0.38960(4)
C54_5 C 0.0334(4) 0.1358(3) 0.38541(7)
C55_5 C 0.0093(3) 0.1486(4) 0.36866(8)
H37_5 H 0.0209 0.1942 0.3656
C59_5 C 0.0676(4) 0.1929(3) 0.39924(7)
C61_5 C 0.0894(6) 0.1780(5) 0.41624(10)
C63_5 C 0.1202(6) 0.2270(4) 0.42870(11)
C70_5 C 0.1685(3) 0.0653(5) 0.34036(9)
C72_5 C 0.2050(5) 0.0367(6) 0.33114(9)
H48_5 H 0.2112 0.0025 0.3372
C74_5 C 0.2300(6) 0.0580(7) 0.31422(10)
H50_5 H 0.2390 0.0287 0.3067
C76_5 C 0.2109(4) 0.1484(6) 0.31607(11)
H52_5 H 0.2146 0.1894 0.3112
C78_5 C 0.1723(3) 0.1205(4) 0.33215(9)
H54_5 H 0.1482 0.1412 0.3374
C41_5 C 0.1392(3) 0.9907(3) 0.36866(8)
H28_5 H 0.1732 0.9791 0.3656
O9_5 O 0.04842(19) 0.96985(26) 0.38960(4)
C53_5 C 0.1023(3) 0.9666(4) 0.38541(7)
C60_5 C 0.1252(3) 0.9324(4) 0.39924(7)
C62_5 C 0.0885(4) 0.9106(6) 0.41624(10)
H39_5 H 0.0513 0.9183 0.4187
C64_5 C 0.1067(4) 0.8798(6) 0.42870(11)
H41_5 H 0.0816 0.8651 0.4400
C65_5 C 0.1979(7) 0.8918(5) 0.41107(10)
H43_5 H 0.2371 0.8868 0.4094
C67_5 C 0.1796(7) 0.9243(5) 0.39772(11)
H45_5 H 0.2074 0.9415 0.3870
Al2_5 Al 0.9999 -0.0000 0.37479(3)
O11_5 O 0.95523(19) 0.03168(26) 0.35864(4)
C57_5 C 0.9673(3) 0.0926(4) 0.35635(6)
C69_5 C 0.9347(5) 0.1033(4) 0.34036(9)
C71_5 C 0.9633(6) 0.1684(4) 0.33114(9)
H47_5 H 0.9975 0.2088 0.3372
C73_5 C 0.9420(7) 0.1721(4) 0.31422(10)
H49_5 H 0.9713 0.2104 0.3067
C75_5 C 0.8516(6) 0.0626(4) 0.31607(11)
H51_5 H 0.8106 0.0253 0.3112
C77_5 C 0.8795(4) 0.0519(3) 0.33215(9)
H53_5 H 0.8588 0.0071 0.3374
Al2_6 Al 0.9999 1.0000 0.37479(3)
O7_5 O 0.92142(18) 0.95158(19) 0.38960(4)
C40_5 C 0.8642(3) 0.8977(3) 0.38541(7)
C43_5 C 0.8071(3) 0.8748(3) 0.39924(7)
C44_5 C 0.8220(5) 0.9115(4) 0.41624(10)
C45_5 C 0.7730(4) 0.8933(4) 0.42870(11)
C48_5 C 0.8967(4) 0.8315(3) 0.34036(9)
C49_5 C 0.8316(4) 0.7950(5) 0.33114(9)
H33_5 H 0.7912 0.7888 0.3372
C50_5 C 0.8279(4) 0.7700(6) 0.31422(10)
H34_5 H 0.7896 0.7610 0.3067
C51_5 C 0.9374(4) 0.7891(4) 0.31607(11)
H35_5 H 0.9747 0.7854 0.3112
C52_5 C 0.9481(3) 0.8277(3) 0.33215(9)
H36_5 H 0.9929 0.8518 0.3374
O12_5 O 0.96832(26) 0.92356(18) 0.35864(4)
C56_5 C 0.8514(4) 0.8608(3) 0.36866(8)
H38_5 H 0.8058 0.8268 0.3656
C58_5 C 0.9074(4) 0.8748(3) 0.35635(6)
H40_5 H 0.8669 0.9487 0.4187
H42_5 H 0.7834 0.9184 0.4400
C66_5 C 0.6938(5) 0.8021(7) 0.41107(10)
H44_5 H 0.6496 0.7629 0.4094
C68_5 C 0.7446(5) 0.8204(7) 0.39772(11)
H46_5 H 0.7340 0.7926 0.3870
Al2_7 Al 0.0000 -0.0000 0.37479(3)
Al2_8 Al 0.0000 1.0000 0.37479(3)
Al2_9 Al 0.0000 -0.0000 0.87479(3)
H29_6 H 0.0513 0.1331 0.9187
H30_6 H 0.0816 0.2166 0.9400
C46_6 C 0.1979(7) 0.3062(5) 0.91107(10)
H31_6 H 0.2371 0.3504 0.9094
C47_6 C 0.1796(7) 0.2554(5) 0.89772(11)
H32_6 H 0.2074 0.2660 0.8870
O10_6 O 0.04842(32) 0.07858(18) 0.88960(4)
C54_6 C 0.1023(5) 0.1358(3) 0.88541(7)
O11_6 O 0.07644(32) 0.03168(26) 0.85864(4)
C55_6 C 0.1392(5) 0.1486(4) 0.86866(8)
H37_6 H 0.1732 0.1942 0.8656
C57_6 C 0.1252(5) 0.0926(4) 0.85635(6)
C59_6 C 0.1252(5) 0.1929(3) 0.89924(7)
C61_6 C 0.0885(8) 0.1780(5) 0.91624(10)
C63_6 C 0.1067(7) 0.2270(4) 0.92870(11)
C69_6 C 0.1685(6) 0.1033(4) 0.84036(9)
C71_6 C 0.2050(7) 0.1684(4) 0.83114(9)
H47_6 H 0.2112 0.2088 0.8372
C73_6 C 0.2300(8) 0.1721(4) 0.81422(10)
H49_6 H 0.2390 0.2104 0.8067
C75_6 C 0.2109(7) 0.0626(4) 0.81607(11)
H51_6 H 0.2146 0.0253 0.8112
C77_6 C 0.1723(5) 0.0519(3) 0.83215(9)
H53_6 H 0.1482 0.0071 0.8374
Al2_10 Al 0.0000 1.0000 0.87479(3)
O7_6 O 0.03015(26) 0.95158(19) 0.88960(4)
C40_6 C 0.0334(4) 0.8977(3) 0.88541(7)
C43_6 C 0.0676(4) 0.8748(3) 0.89924(7)
C44_6 C 0.0894(6) 0.9115(4) 0.91624(10)
C45_6 C 0.1202(6) 0.8933(4) 0.92870(11)
C56_6 C 0.0093(5) 0.8608(3) 0.86866(8)
H38_6 H 0.0209 0.8268 0.8656
H40_6 H 0.0817 0.9487 0.9187
H42_6 H 0.1349 0.9184 0.9400
C66_6 C 0.1082(9) 0.8021(7) 0.91107(10)
H44_6 H 0.1132 0.7629 0.9094
C68_6 C 0.0757(9) 0.8204(7) 0.89772(11)
H46_6 H 0.0585 0.7926 0.8870
Al2_11 Al 1.0000 -0.0000 0.87479(3)
O8_6 O 0.96832(26) 0.04477(19) 0.85864(4)
C42_6 C 0.9074(4) 0.0327(3) 0.85635(6)
C70_6 C 0.8967(6) 0.0653(5) 0.84036(9)
C72_6 C 0.8316(8) 0.0367(6) 0.83114(9)
H48_6 H 0.7912 0.0025 0.8372
C74_6 C 0.8279(9) 0.0580(7) 0.81422(10)
H50_6 H 0.7896 0.0287 0.8067
C76_6 C 0.9374(7) 0.1484(6) 0.81607(11)
H52_6 H 0.9747 0.1894 0.8112
C78_6 C 0.9481(5) 0.1205(4) 0.83215(9)
H54_6 H 0.9929 0.1412 0.8374
Al2_12 Al 1.0000 1.0000 0.87479(3)
C41_6 C 0.8514(4) 0.9907(3) 0.86866(8)
H28_6 H 0.8058 0.9791 0.8656
C48_6 C 0.9347(5) 0.8315(3) 0.84036(9)
C49_6 C 0.9633(6) 0.7950(5) 0.83114(9)
H33_6 H 0.9975 0.7888 0.8372
C50_6 C 0.9420(7) 0.7700(6) 0.81422(10)
H34_6 H 0.9713 0.7610 0.8067
C51_6 C 0.8516(6) 0.7891(4) 0.81607(11)
H35_6 H 0.8106 0.7854 0.8112
C52_6 C 0.8795(4) 0.8277(3) 0.83215(9)
H36_6 H 0.8588 0.8518 0.8374
O9_6 O 0.92142(32) 0.96985(26) 0.88960(4)
C53_6 C 0.8642(5) 0.9666(4) 0.88541(7)
O12_6 O 0.95523(32) 0.92356(18) 0.85864(4)
C58_6 C 0.9673(5) 0.8748(3) 0.85635(6)
C60_6 C 0.8071(5) 0.9324(4) 0.89924(7)
C62_6 C 0.8220(7) 0.9106(6) 0.91624(10)
H39_6 H 0.8669 0.9183 0.9187
C64_6 C 0.7730(7) 0.8798(6) 0.92870(11)
H41_6 H 0.7834 0.8651 0.9400
C65_6 C 0.6938(9) 0.8918(5) 0.91107(10)
H43_6 H 0.6496 0.8868 0.9094
C67_6 C 0.7446(9) 0.9243(5) 0.89772(11)
H45_6 H 0.7340 0.9415 0.8870
Ag17 Ag 0.03022(4) 0.50926(6) 0.815043(9)
H77 H 0.0201 0.4761 0.8574
N24 N 0.2907(4) 0.1577(4) 0.00379(9)
N27 N 0.8423(4) 0.1331(6) 0.00379(9)
Ag13 Ag 0.36355(4) 0.18762(4) 0.981710(9)
Al3 Al 0.6666 0.3334 0.89006(3)
O13 O 0.59043(16) 0.29874(15) 0.90561(4)
C79 C 0.5436(3) 0.2374(3) 0.90761(7)
O14 O 0.74545(16) 0.36618(17) 0.87498(4)
C80 C 0.8163(3) 0.3459(3) 0.89580(6)
H55 H 0.8617 0.3561 0.8988
C81 C 0.8032(3) 0.3711(3) 0.87933(6)
C82 C 0.5011(3) 0.2199(3) 0.92541(7)
C83 C 0.5268(5) 0.2653(4) 0.93955(13)
H56 H 0.7376 0.4307 0.9383
C84 C 0.4891(6) 0.2493(6) 0.95617(14)
H57 H 0.7624 0.4892 0.9673
N19 N 0.4219(4) 0.1997(4) 0.95645(10)
C85 C 0.7551(5) 0.5985(4) 0.94372(15)
H58 H 0.7558 0.6408 0.9455
C86 C 0.7290(4) 0.5638(4) 0.92703(9)
H59 H 0.7187 0.5848 0.9171
C87 C 0.5501(3) 0.1427(3) 0.86505(7)
C88 C 0.5017(5) 0.0733(4) 0.86869(10)
H60 H 0.4807 0.0592 0.8806
C89 C 0.4859(4) 0.0271(4) 0.85459(13)
N20 N 0.5090(4) 0.0426(4) 0.83712(9)
C90 C 0.5535(3) 0.1067(4) 0.83383(7)
H62 H 0.5743 0.1192 0.8220
C91 C 0.5719(3) 0.1579(3) 0.84720(7)
H63 H 0.6003 0.2047 0.8438
Ag15 Ag 0.49074(6) 0.52095(4) 0.815043(9)
Ag16 Ag 0.82407(6) 0.63645(4) 0.981710(9)
Ag18 Ag 0.81238(4) 0.17593(6) 0.981710(9)
O15 O 0.70126(15) 0.29169(22) 0.90561(4)
O16 O 0.70831(22) 0.40957(16) 0.90561(4)
C92 C 0.7626(3) 0.3062(4) 0.90761(7)
C93 C 0.6938(4) 0.4564(3) 0.90761(7)
O17 O 0.63382(17) 0.37927(23) 0.87498(4)
O18 O 0.62073(23) 0.25455(16) 0.87498(4)
C94 C 0.6541(3) 0.4704(4) 0.89580(6)
C95 C 0.5296(4) 0.1837(3) 0.89580(6)
H64 H 0.6439 0.5056 0.8988
H65 H 0.4944 0.1383 0.8988
C96 C 0.6289(3) 0.4321(4) 0.87933(6)
C97 C 0.5679(4) 0.1968(3) 0.87933(6)
C98 C 0.7188(4) 0.4989(3) 0.92541(7)
C99 C 0.7801(3) 0.2812(4) 0.92541(7)
C100 C 0.7385(6) 0.4732(5) 0.93955(13)
C101 C 0.7347(4) 0.2615(6) 0.93955(13)
H66 H 0.6931 0.2624 0.9383
H67 H 0.5693 0.3069 0.9383
C102 C 0.7602(8) 0.5109(6) 0.95617(14)
C103 C 0.7507(6) 0.2398(8) 0.95617(14)
H68 H 0.7268 0.2376 0.9673
H69 H 0.5108 0.2732 0.9673
N21 N 0.4445(6) 0.5330(4) 0.78978(10)
N22 N 0.7778(6) 0.5781(4) 0.95645(10)
N23 N 0.8003(4) 0.2222(6) 0.95645(10)
C104 C 0.8434(6) 0.2449(5) 0.94372(15)
C105 C 0.4015(4) 0.1566(6) 0.94372(15)
H70 H 0.8850 0.2442 0.9455
H71 H 0.3592 0.1150 0.9455
C106 C 0.8348(6) 0.2710(4) 0.92703(9)
C107 C 0.4362(4) 0.1652(6) 0.92703(9)
H72 H 0.8661 0.2813 0.9171
H73 H 0.4152 0.1339 0.9171
C108 C 0.5926(4) 0.4499(3) 0.86505(7)
C109 C 0.8573(3) 0.4074(4) 0.86505(7)
C110 C 0.5716(6) 0.4983(5) 0.86869(10)
C111 C 0.9267(4) 0.4284(6) 0.86869(10)
H74 H 0.5785 0.5193 0.8806
H75 H 0.9408 0.4215 0.8806
C112 C 0.5412(6) 0.5141(4) 0.85459(13)
C113 C 0.9729(4) 0.4588(6) 0.85459(13)
H76 H 0.5239 0.5440 0.8574
N25 N 0.5336(6) 0.4910(4) 0.83712(9)
N26 N 0.9574(4) 0.4664(6) 0.83712(9)
C114 C 0.5532(5) 0.4465(3) 0.83383(7)
C115 C 0.8933(4) 0.4468(5) 0.83383(7)
H78 H 0.5449 0.4257 0.8220
H79 H 0.8808 0.4551 0.8220
C116 C 0.5860(4) 0.4281(3) 0.84720(7)
C117 C 0.8421(3) 0.4140(4) 0.84720(7)
H80 H 0.6044 0.3997 0.8438
H81 H 0.7953 0.3956 0.8438
H61 H 0.4560 0.9799 0.8574
Ag14 Ag 0.47905(4) 0.96978(4) 0.815043(9)
N27_2 N 0.8669(6) 0.7093(7) 0.00379(9)
N21_2 N 0.4670(4) 0.9114(7) 0.78978(10)
N21_3 N 0.0886(7) 0.5555(6) 0.78978(10)
Ag15_2 Ag 0.03022(7) 0.52095(4) 0.315043(9)
N21_4 N 0.0886(7) 0.5330(4) 0.28978(10)
H76_2 H 0.0201 0.5440 0.3574
Ag13_2 Ag 0.82407(6) 0.18762(4) 0.481710(9)
Al3_2 Al 0.6668 0.3334 0.39006(3)
O13_2 O 0.70831(22) 0.29874(15) 0.40561(4)
C79_2 C 0.6938(4) 0.2374(3) 0.40761(7)
O14_2 O 0.62073(23) 0.36618(17) 0.37498(4)
C80_2 C 0.5296(4) 0.3459(3) 0.39580(6)
H55_2 H 0.4944 0.3561 0.3988
C81_2 C 0.5679(4) 0.3711(3) 0.37933(6)
C82_2 C 0.7188(4) 0.2199(3) 0.42541(7)
C83_2 C 0.7385(6) 0.2653(4) 0.43955(13)
H56_2 H 0.6931 0.4307 0.4383
C84_2 C 0.7602(8) 0.2493(6) 0.45617(14)
H57_2 H 0.7268 0.4892 0.4673
N19_2 N 0.7778(6) 0.1997(4) 0.45645(10)
C85_2 C 0.8434(6) 0.5985(4) 0.44372(15)
H58_2 H 0.8850 0.6408 0.4455
C86_2 C 0.8348(6) 0.5638(4) 0.42703(9)
H59_2 H 0.8661 0.5848 0.4171
C87_2 C 0.5926(4) 0.1427(3) 0.36505(7)
C88_2 C 0.5716(6) 0.0733(4) 0.36869(10)
H60_2 H 0.5785 0.0592 0.3806
C89_2 C 0.5412(6) 0.0271(4) 0.35459(13)
N20_2 N 0.5336(6) 0.0426(4) 0.33712(9)
C90_2 C 0.5532(5) 0.1067(4) 0.33383(7)
H62_2 H 0.5449 0.1192 0.3220
C91_2 C 0.5860(4) 0.1579(3) 0.34720(7)
H63_2 H 0.6044 0.2047 0.3438
Ag16_2 Ag 0.81238(7) 0.63645(4) 0.481710(9)
Ag17_2 Ag 0.47905(7) 0.50926(6) 0.315043(9)
Ag18_2 Ag 0.36355(7) 0.17593(6) 0.481710(9)
O15_2 O 0.59043(27) 0.29169(22) 0.40561(4)
O16_2 O 0.70126(27) 0.40957(16) 0.40561(4)
C92_2 C 0.5436(5) 0.3062(4) 0.40761(7)
C93_2 C 0.7626(5) 0.4564(3) 0.40761(7)
O17_2 O 0.74545(29) 0.37927(23) 0.37498(4)
O18_2 O 0.63382(28) 0.25455(16) 0.37498(4)
C94_2 C 0.8163(5) 0.4704(4) 0.39580(6)
C95_2 C 0.6541(5) 0.1837(3) 0.39580(6)
H64_2 H 0.8617 0.5056 0.3988
H65_2 H 0.6439 0.1383 0.3988
C96_2 C 0.8032(5) 0.4321(4) 0.37933(6)
C97_2 C 0.6289(5) 0.1968(3) 0.37933(6)
C98_2 C 0.7801(5) 0.4989(3) 0.42541(7)
C99_2 C 0.5011(5) 0.2812(4) 0.42541(7)
C100_2 C 0.7347(8) 0.4732(5) 0.43955(13)
C101_2 C 0.5268(7) 0.2615(6) 0.43955(13)
H66_2 H 0.5693 0.2624 0.4383
H67_2 H 0.7376 0.3069 0.4383
C102_2 C 0.7507(10) 0.5109(6) 0.45617(14)
C103_2 C 0.4891(10) 0.2398(8) 0.45617(14)
H68_2 H 0.5108 0.2376 0.4673
H69_2 H 0.7624 0.2732 0.4673
N22_2 N 0.8003(7) 0.5781(4) 0.45645(10)
N23_2 N 0.4219(7) 0.2222(6) 0.45645(10)
C104_2 C 0.4015(8) 0.2449(5) 0.44372(15)
C105_2 C 0.7551(7) 0.1566(6) 0.44372(15)
H70_2 H 0.3592 0.2442 0.4455
H71_2 H 0.7558 0.1150 0.4455
C106_2 C 0.4362(7) 0.2710(4) 0.42703(9)
C107_2 C 0.7290(7) 0.1652(6) 0.42703(9)
H72_2 H 0.4152 0.2813 0.4171
H73_2 H 0.7187 0.1339 0.4171
C108_2 C 0.8573(5) 0.4499(3) 0.36505(7)
C109_2 C 0.5501(5) 0.4074(4) 0.36505(7)
C110_2 C 0.9267(8) 0.4983(5) 0.36869(10)
C111_2 C 0.5017(7) 0.4284(6) 0.36869(10)
H74_2 H 0.9408 0.5193 0.3806
H75_2 H 0.4807 0.4215 0.3806
C112_2 C 0.9729(7) 0.5141(4) 0.35459(13)
C113_2 C 0.4859(7) 0.4588(6) 0.35459(13)
H77_2 H 0.4560 0.4761 0.3574
N24_2 N 0.8669(6) 0.1577(4) 0.50379(9)
N25_2 N 0.9574(7) 0.4910(4) 0.33712(9)
N26_2 N 0.5090(7) 0.4664(6) 0.33712(9)
N27_3 N 0.2907(7) 0.1331(6) 0.50379(9)
C114_2 C 0.8933(6) 0.4465(3) 0.33383(7)
C115_2 C 0.5535(6) 0.4468(5) 0.33383(7)
H78_2 H 0.8808 0.4257 0.3220
H79_2 H 0.5743 0.4551 0.3220
C116_2 C 0.8421(5) 0.4281(3) 0.34720(7)
C117_2 C 0.5719(5) 0.4140(4) 0.34720(7)
H80_2 H 0.7953 0.3997 0.3438
H81_2 H 0.6003 0.3956 0.3438
H61_2 H 0.5239 0.9799 0.3574
Ag14_2 Ag 0.49074(6) 0.96978(4) 0.315043(9)
N27_4 N 0.8423(4) 0.7093(7) 0.50379(9)
N21_5 N 0.4445(6) 0.9114(7) 0.28978(10)
N21_6 N 0.4670(4) 0.5555(6) 0.28978(10)
Al3_3 Al 0.3333 0.6667 0.22339(3)
O13_3 O 0.25710(16) 0.63207(15) 0.23894(4)
C79_3 C 0.2103(3) 0.5707(3) 0.24094(7)
O14_3 O 0.41212(16) 0.69951(17) 0.20831(4)
C80_3 C 0.4830(3) 0.6792(3) 0.22913(6)
H55_3 H 0.5284 0.6894 0.2321
C81_3 C 0.4699(3) 0.7044(3) 0.21266(6)
C82_3 C 0.1678(3) 0.5532(3) 0.25874(7)
C83_3 C 0.1935(5) 0.5986(4) 0.27288(13)
H56_3 H 0.4043 0.7640 0.2716
C84_3 C 0.1558(6) 0.5826(6) 0.28950(14)
H57_3 H 0.4291 0.8225 0.3006
C85_3 C 0.4218(5) 0.9318(4) 0.27705(15)
H58_3 H 0.4225 0.9741 0.2788
C86_3 C 0.3957(4) 0.8971(4) 0.26036(9)
H59_3 H 0.3854 0.9181 0.2504
C87_3 C 0.2168(3) 0.4760(3) 0.19838(7)
C88_3 C 0.1684(5) 0.4066(4) 0.20202(10)
H60_3 H 0.1474 0.3925 0.2139
C89_3 C 0.1526(4) 0.3604(4) 0.18792(13)
H61_3 H 0.1227 0.3132 0.1907
N20_3 N 0.1757(4) 0.3759(4) 0.17045(9)
C90_3 C 0.2202(3) 0.4400(4) 0.16716(7)
H62_3 H 0.2410 0.4525 0.1553
C91_3 C 0.2386(3) 0.4912(3) 0.18053(7)
H63_3 H 0.2670 0.5380 0.1771
Ag14_3 Ag 0.14571(4) 0.30312(4) 0.148377(9)
Ag15_3 Ag 0.15740(6) 0.85429(4) 0.148377(9)
Ag17_3 Ag 0.69688(4) 0.84260(6) 0.148377(9)
O15_3 O 0.36793(15) 0.62502(22) 0.23894(4)
O16_3 O 0.37498(22) 0.74290(16) 0.23894(4)
C92_3 C 0.4293(3) 0.6395(4) 0.24094(7)
C93_3 C 0.3605(4) 0.7897(3) 0.24094(7)
O17_3 O 0.30049(17) 0.71260(23) 0.20831(4)
O18_3 O 0.28740(23) 0.58788(16) 0.20831(4)
C94_3 C 0.3208(3) 0.8037(4) 0.22913(6)
C95_3 C 0.1963(4) 0.5170(3) 0.22913(6)
H64_3 H 0.3106 0.8389 0.2321
H65_3 H 0.1611 0.4716 0.2321
C96_3 C 0.2956(3) 0.7654(4) 0.21266(6)
C97_3 C 0.2346(4) 0.5301(3) 0.21266(6)
C98_3 C 0.3855(4) 0.8322(3) 0.25874(7)
C99_3 C 0.4468(3) 0.6145(4) 0.25874(7)
C100_3 C 0.4052(6) 0.8065(5) 0.27288(13)
C101_3 C 0.4014(4) 0.5948(6) 0.27288(13)
H66_3 H 0.3598 0.5957 0.2716
H67_3 H 0.2360 0.6402 0.2716
C102_3 C 0.4269(8) 0.8442(6) 0.28950(14)
C103_3 C 0.4174(6) 0.5731(8) 0.28950(14)
H68_3 H 0.3935 0.5709 0.3006
H69_3 H 0.1775 0.6065 0.3006
N21_7 N 0.1111(6) 0.8664(4) 0.12312(10)
C104_3 C 0.5101(6) 0.5782(5) 0.27705(15)
C105_3 C 0.0682(4) 0.4899(6) 0.27705(15)
H70_3 H 0.5517 0.5775 0.2788
H71_3 H 0.0259 0.4483 0.2788
C106_3 C 0.5015(6) 0.6043(4) 0.26036(9)
C107_3 C 0.1029(4) 0.4985(6) 0.26036(9)
H72_3 H 0.5328 0.6146 0.2504
H73_3 H 0.0819 0.4672 0.2504
C108_3 C 0.2593(4) 0.7832(3) 0.19838(7)
C109_3 C 0.5240(3) 0.7407(4) 0.19838(7)
C110_3 C 0.2383(6) 0.8316(5) 0.20202(10)
C111_3 C 0.5934(4) 0.7617(6) 0.20202(10)
H74_3 H 0.2452 0.8526 0.2139
H75_3 H 0.6075 0.7548 0.2139
C112_3 C 0.2079(6) 0.8474(4) 0.18792(13)
C113_3 C 0.6396(4) 0.7921(6) 0.18792(13)
H76_3 H 0.1906 0.8773 0.1907
H77_3 H 0.6868 0.8094 0.1907
N25_3 N 0.2003(6) 0.8243(4) 0.17045(9)
N26_3 N 0.6241(4) 0.7997(6) 0.17045(9)
C114_3 C 0.2199(5) 0.7798(3) 0.16716(7)
C115_3 C 0.5600(4) 0.7801(5) 0.16716(7)
H78_3 H 0.2116 0.7590 0.1553
H79_3 H 0.5475 0.7884 0.1553
C116_3 C 0.2527(4) 0.7614(3) 0.18053(7)
C117_3 C 0.5088(3) 0.7473(4) 0.18053(7)
H80_3 H 0.2711 0.7330 0.1771
H81_3 H 0.4620 0.7289 0.1771
N21_8 N 0.1336(4) 0.2448(7) 0.12312(10)
N21_9 N 0.7552(7) 0.8889(6) 0.12312(10)
Al3_4 Al 0.3335 0.6667 0.72339(3)
O13_4 O 0.37498(22) 0.63207(15) 0.73894(4)
C79_4 C 0.3605(4) 0.5707(3) 0.74094(7)
O14_4 O 0.28740(23) 0.69951(17) 0.70831(4)
C80_4 C 0.1963(4) 0.6792(3) 0.72913(6)
H55_4 H 0.1611 0.6894 0.7321
C81_4 C 0.2346(4) 0.7044(3) 0.71266(6)
C82_4 C 0.3855(4) 0.5532(3) 0.75874(7)
C83_4 C 0.4052(6) 0.5986(4) 0.77288(13)
H56_4 H 0.3598 0.7640 0.7716
C84_4 C 0.4269(8) 0.5826(6) 0.78950(14)
H57_4 H 0.3935 0.8225 0.8006
C85_4 C 0.5101(6) 0.9318(4) 0.77705(15)
H58_4 H 0.5517 0.9741 0.7788
C86_4 C 0.5015(6) 0.8971(4) 0.76036(9)
H59_4 H 0.5328 0.9181 0.7504
C87_4 C 0.2593(4) 0.4760(3) 0.69838(7)
C88_4 C 0.2383(6) 0.4066(4) 0.70202(10)
H60_4 H 0.2452 0.3925 0.7139
C89_4 C 0.2079(6) 0.3604(4) 0.68792(13)
H61_4 H 0.1906 0.3132 0.6907
N20_4 N 0.2003(6) 0.3759(4) 0.67045(9)
C90_4 C 0.2199(5) 0.4400(4) 0.66716(7)
H62_4 H 0.2116 0.4525 0.6553
C91_4 C 0.2527(4) 0.4912(3) 0.68053(7)
H63_4 H 0.2711 0.5380 0.6771
Ag14_4 Ag 0.15740(6) 0.30312(4) 0.648377(9)
Ag15_4 Ag 0.69688(7) 0.85429(4) 0.648377(9)
Ag17_4 Ag 0.14571(7) 0.84260(6) 0.648377(9)
O15_4 O 0.25710(27) 0.62502(22) 0.73894(4)
O16_4 O 0.36793(27) 0.74290(16) 0.73894(4)
C92_4 C 0.2103(5) 0.6395(4) 0.74094(7)
C93_4 C 0.4293(5) 0.7897(3) 0.74094(7)
O17_4 O 0.41212(29) 0.71260(23) 0.70831(4)
O18_4 O 0.30049(28) 0.58788(16) 0.70831(4)
C94_4 C 0.4830(5) 0.8037(4) 0.72913(6)
C95_4 C 0.3208(5) 0.5170(3) 0.72913(6)
H64_4 H 0.5284 0.8389 0.7321
H65_4 H 0.3106 0.4716 0.7321
C96_4 C 0.4699(5) 0.7654(4) 0.71266(6)
C97_4 C 0.2956(5) 0.5301(3) 0.71266(6)
C98_4 C 0.4468(5) 0.8322(3) 0.75874(7)
C99_4 C 0.1678(5) 0.6145(4) 0.75874(7)
C100_4 C 0.4014(8) 0.8065(5) 0.77288(13)
C101_4 C 0.1935(7) 0.5948(6) 0.77288(13)
H66_4 H 0.2360 0.5957 0.7716
H67_4 H 0.4043 0.6402 0.7716
C102_4 C 0.4174(10) 0.8442(6) 0.78950(14)
C103_4 C 0.1558(10) 0.5731(8) 0.78950(14)
H68_4 H 0.1775 0.5709 0.8006
H69_4 H 0.4291 0.6065 0.8006
N21_10 N 0.7552(7) 0.8664(4) 0.62312(10)
C104_4 C 0.0682(8) 0.5782(5) 0.77705(15)
C105_4 C 0.4218(7) 0.4899(6) 0.77705(15)
H70_4 H 0.0259 0.5775 0.7788
H71_4 H 0.4225 0.4483 0.7788
C106_4 C 0.1029(7) 0.6043(4) 0.76036(9)
C107_4 C 0.3957(7) 0.4985(6) 0.76036(9)
H72_4 H 0.0819 0.6146 0.7504
H73_4 H 0.3854 0.4672 0.7504
C108_4 C 0.5240(5) 0.7832(3) 0.69838(7)
C109_4 C 0.2168(5) 0.7407(4) 0.69838(7)
C110_4 C 0.5934(8) 0.8316(5) 0.70202(10)
C111_4 C 0.1684(7) 0.7617(6) 0.70202(10)
H74_4 H 0.6075 0.8526 0.7139
H75_4 H 0.1474 0.7548 0.7139
C112_4 C 0.6396(7) 0.8474(4) 0.68792(13)
C113_4 C 0.1526(7) 0.7921(6) 0.68792(13)
H76_4 H 0.6868 0.8773 0.6907
H77_4 H 0.1227 0.8094 0.6907
N25_4 N 0.6241(7) 0.8243(4) 0.67045(9)
N26_4 N 0.1757(7) 0.7997(6) 0.67045(9)
C114_4 C 0.5600(6) 0.7798(3) 0.66716(7)
C115_4 C 0.2202(6) 0.7801(5) 0.66716(7)
H78_4 H 0.5475 0.7590 0.6553
H79_4 H 0.2410 0.7884 0.6553
C116_4 C 0.5088(5) 0.7614(3) 0.68053(7)
C117_4 C 0.2386(5) 0.7473(4) 0.68053(7)
H80_4 H 0.4620 0.7330 0.6771
H81_4 H 0.2670 0.7289 0.6771
N21_11 N 0.1111(6) 0.2448(7) 0.62312(10)
N21_12 N 0.1336(4) 0.8889(6) 0.62312(10)
O14_5 O 0.07878(16) 0.03285(17) 0.54165(4)
C80_5 C 0.1496(3) 0.0126(3) 0.56247(6)
H55_5 H 0.1950 0.0228 0.5655
C81_5 C 0.1365(3) 0.0378(3) 0.54600(6)
H56_5 H 0.0709 0.0974 0.6050
H57_5 H 0.0957 0.1559 0.6340
C85_5 C 0.0884(5) 0.2652(4) 0.61039(15)
H58_5 H 0.0891 0.3075 0.6122
C86_5 C 0.0623(4) 0.2305(4) 0.59370(9)
H59_5 H 0.0520 0.2515 0.5838
O16_5 O 0.04164(22) 0.07624(16) 0.57228(4)
C93_5 C 0.0271(4) 0.1231(3) 0.57428(7)
C98_5 C 0.0521(4) 0.1656(3) 0.59208(7)
C100_5 C 0.0718(6) 0.1399(5) 0.60622(13)
C102_5 C 0.0935(8) 0.1776(6) 0.62284(14)
C109_5 C 0.1906(3) 0.0741(4) 0.53172(7)
C111_5 C 0.2600(4) 0.0951(6) 0.53536(10)
H75_5 H 0.2741 0.0882 0.5473
C113_5 C 0.3062(4) 0.1255(6) 0.52126(13)
H77_5 H 0.3534 0.1428 0.5241
C115_5 C 0.2266(4) 0.1135(5) 0.50050(7)
H79_5 H 0.2141 0.1218 0.4887
C117_5 C 0.1754(3) 0.0807(4) 0.51387(7)
H81_5 H 0.1286 0.0623 0.5105
O15_5 O 0.03459(15) 0.95836(22) 0.57228(4)
C92_5 C 0.0959(3) 0.9729(4) 0.57428(7)
C99_5 C 0.1134(3) 0.9479(4) 0.59208(7)
C101_5 C 0.0680(4) 0.9282(6) 0.60622(13)
H66_5 H 0.0264 0.9291 0.6050
C103_5 C 0.0840(6) 0.9065(8) 0.62284(14)
H68_5 H 0.0601 0.9043 0.6340
C104_5 C 0.1767(6) 0.9116(5) 0.61039(15)
H70_5 H 0.2183 0.9109 0.6122
C106_5 C 0.1681(6) 0.9377(4) 0.59370(9)
H72_5 H 0.1994 0.9480 0.5838
Al3_5 Al 0.9999 0.0001 0.55673(3)
O17_5 O 0.96715(17) 0.04594(23) 0.54165(4)
C94_5 C 0.9874(3) 0.1371(4) 0.56247(6)
H64_5 H 0.9772 0.1723 0.5655
C96_5 C 0.9622(3) 0.0988(4) 0.54600(6)
C108_5 C 0.9259(4) 0.1166(3) 0.53172(7)
C110_5 C 0.9049(6) 0.1650(5) 0.53536(10)
H74_5 H 0.9118 0.1860 0.5473
C112_5 C 0.8745(6) 0.1808(4) 0.52126(13)
H76_5 H 0.8572 0.2107 0.5241
C114_5 C 0.8865(5) 0.1132(3) 0.50050(7)
H78_5 H 0.8782 0.0924 0.4887
C116_5 C 0.9193(4) 0.0948(3) 0.51387(7)
H80_5 H 0.9377 0.0664 0.5105
O13_5 O 0.92376(16) 0.96541(15) 0.57228(4)
C79_5 C 0.8769(3) 0.9041(3) 0.57428(7)
C82_5 C 0.8344(3) 0.8866(3) 0.59208(7)
C83_5 C 0.8601(5) 0.9320(4) 0.60622(13)
C84_5 C 0.8224(6) 0.9160(6) 0.62284(14)
C87_5 C 0.8834(3) 0.8094(3) 0.53172(7)
C88_5 C 0.8350(5) 0.7400(4) 0.53536(10)
H60_5 H 0.8140 0.7259 0.5473
C89_5 C 0.8192(4) 0.6938(4) 0.52126(13)
H61_5 H 0.7893 0.6466 0.5241
C90_5 C 0.8868(3) 0.7734(4) 0.50050(7)
H62_5 H 0.9076 0.7859 0.4887
C91_5 C 0.9052(3) 0.8246(3) 0.51387(7)
H63_5 H 0.9336 0.8714 0.5105
O18_5 O 0.95406(23) 0.92122(16) 0.54165(4)
C95_5 C 0.8629(4) 0.8504(3) 0.56247(6)
H65_5 H 0.8277 0.8050 0.5655
C97_5 C 0.9012(4) 0.8635(3) 0.54600(6)
H67_5 H 0.9026 0.9736 0.6050
H69_5 H 0.8441 0.9399 0.6340
C105_5 C 0.7348(4) 0.8233(6) 0.61039(15)
H71_5 H 0.6925 0.7817 0.6122
C107_5 C 0.7695(4) 0.8319(6) 0.59370(9)
H73_5 H 0.7485 0.8006 0.5838
Al3_6 Al 0.9999 0.9999 0.55673(3)
Al3_7 Al 0.0001 0.0001 0.55673(3)
Al3_8 Al 0.0001 0.0001 0.05673(3)
H56_6 H 0.0264 0.0974 0.1050
H57_6 H 0.0601 0.1559 0.1340
C85_6 C 0.1767(6) 0.2652(4) 0.11039(15)
H58_6 H 0.2183 0.3075 0.1122
C86_6 C 0.1681(6) 0.2305(4) 0.09370(9)
H59_6 H 0.1994 0.2515 0.0838
O16_6 O 0.03459(27) 0.07624(16) 0.07228(4)
C93_6 C 0.0959(5) 0.1231(3) 0.07428(7)
O17_6 O 0.07878(29) 0.04594(23) 0.04165(4)
C94_6 C 0.1496(5) 0.1371(4) 0.06247(6)
H64_6 H 0.1950 0.1723 0.0655
C96_6 C 0.1365(5) 0.0988(4) 0.04600(6)
C98_6 C 0.1134(5) 0.1656(3) 0.09208(7)
C100_6 C 0.0680(8) 0.1399(5) 0.10622(13)
C102_6 C 0.0840(10) 0.1776(6) 0.12284(14)
C108_6 C 0.1906(5) 0.1166(3) 0.03172(7)
C110_6 C 0.2600(8) 0.1650(5) 0.03536(10)
H74_6 H 0.2741 0.1860 0.0473
C112_6 C 0.3062(7) 0.1808(4) 0.02126(13)
H76_6 H 0.3534 0.2107 0.0241
C114_6 C 0.2266(6) 0.1132(3) 0.00050(7)
C116_6 C 0.1754(5) 0.0948(3) 0.01387(7)
H80_6 H 0.1286 0.0664 0.0105
H78_6 H 0.2141 0.0924 0.9887
O13_6 O 0.04164(22) 0.96541(15) 0.07228(4)
C79_6 C 0.0271(4) 0.9041(3) 0.07428(7)
C82_6 C 0.0521(4) 0.8866(3) 0.09208(7)
C83_6 C 0.0718(6) 0.9320(4) 0.10622(13)
C84_6 C 0.0935(8) 0.9160(6) 0.12284(14)
H67_6 H 0.0709 0.9736 0.1050
H69_6 H 0.0957 0.9399 0.1340
C105_6 C 0.0884(7) 0.8233(6) 0.11039(15)
H71_6 H 0.0891 0.7817 0.1122
C107_6 C 0.0623(7) 0.8319(6) 0.09370(9)
H73_6 H 0.0520 0.8006 0.0838
O14_6 O 0.95406(23) 0.03285(17) 0.04165(4)
C80_6 C 0.8629(4) 0.0126(3) 0.06247(6)
H55_6 H 0.8277 0.0228 0.0655
C81_6 C 0.9012(4) 0.0378(3) 0.04600(6)
C109_6 C 0.8834(5) 0.0741(4) 0.03172(7)
C111_6 C 0.8350(7) 0.0951(6) 0.03536(10)
H75_6 H 0.8140 0.0882 0.0473
C113_6 C 0.8192(7) 0.1255(6) 0.02126(13)
H77_6 H 0.7893 0.1428 0.0241
C115_6 C 0.8868(6) 0.1135(5) 0.00050(7)
C117_6 C 0.9052(5) 0.0807(4) 0.01387(7)
H81_6 H 0.9336 0.0623 0.0105
H79_6 H 0.9076 0.1218 0.9887
C87_6 C 0.9259(4) 0.8094(3) 0.03172(7)
C88_6 C 0.9049(6) 0.7400(4) 0.03536(10)
H60_6 H 0.9118 0.7259 0.0473
C89_6 C 0.8745(6) 0.6938(4) 0.02126(13)
H61_6 H 0.8572 0.6466 0.0241
C90_6 C 0.8865(5) 0.7734(4) 0.00050(7)
C91_6 C 0.9193(4) 0.8246(3) 0.01387(7)
H63_6 H 0.9377 0.8714 0.0105
O15_6 O 0.92376(27) 0.95836(22) 0.07228(4)
C92_6 C 0.8769(5) 0.9729(4) 0.07428(7)
O18_6 O 0.96715(28) 0.92122(16) 0.04165(4)
C95_6 C 0.9874(5) 0.8504(3) 0.06247(6)
H65_6 H 0.9772 0.8050 0.0655
C97_6 C 0.9622(5) 0.8635(3) 0.04600(6)
C99_6 C 0.8344(5) 0.9479(4) 0.09208(7)
C101_6 C 0.8601(7) 0.9282(6) 0.10622(13)
H66_6 H 0.9026 0.9291 0.1050
C103_6 C 0.8224(10) 0.9065(8) 0.12284(14)
H68_6 H 0.8441 0.9043 0.1340
C104_6 C 0.7348(8) 0.9116(5) 0.11039(15)
H70_6 H 0.6925 0.9109 0.1122
C106_6 C 0.7695(7) 0.9377(4) 0.09370(9)
H72_6 H 0.7485 0.9480 0.0838
H62_6 H 0.8782 0.7859 0.9887
Al3_9 Al 0.9999 0.9999 0.05673(3)
Al3_10 Al 0.9999 0.0001 0.05673(3)
loop_
_geom_bond_atom_site_label_1
_geom_bond_atom_site_label_2
_geom_bond_site_symmetry_1
_geom_bond_site_symmetry_2
Ag1 N1 1_555 1_555
Al1 O1 1_555 1_555
O1 C1 1_555 1_555
C1 C4 1_555 1_555
O2 Al1 1_555 1_555
C2 H1 1_555 1_555
C3 O2 1_555 1_555
C4 C5 1_555 1_555
C5 C6 1_555 1_555
H2 C22 1_555 1_555
C6 N1 1_555 1_555
H3 C24 1_555 1_555
N1 C27 1_555 1_555
C7 H4 1_555 1_555
C8 C7 1_555 1_555
H5 C8 1_555 1_555
C9 C10 1_555 1_555
C10 H6 1_555 1_555
C11 C10 1_555 1_555
H7 C11 1_555 1_555
N2 C11 1_555 1_555
C12 N2 1_555 1_555
H8 C12 1_555 1_555
C13 C9 1_555 1_555
H9 C13 1_555 1_555
Ag2 N2 1_555 1_555
Ag3 N3 1_555 1_555
Ag4 N4 1_555 1_555
Ag5 N8 1_555 1_555
Ag6 N5 1_555 1_555
O3 Al1 1_555 1_555
O4 Al1 1_555 1_555
C14 C2 1_555 1_555
C15 O4 1_555 1_555
O5 Al1 1_555 1_555
O6 Al1 1_555 1_555
C16 C15 1_555 1_555
C17 C1 1_555 1_555
H10 C16 1_555 1_555
H11 C17 1_555 1_555
C18 O5 1_555 1_555
C19 C9 1_555 1_555
C20 C8 1_555 1_555
C21 C14 1_555 1_555
C22 C20 1_555 1_555
C23 C21 1_555 1_555
H12 C23 1_555 1_555
H13 C5 1_555 1_555
C24 C22 1_555 1_555
C25 C23 1_555 1_555
H14 C25 1_555 1_555
H15 C6 1_555 1_555
N4 C7 1_555 1_555
N5 C25 1_555 1_555
C26 N5 1_555 1_555
C27 H17 1_555 1_555
H16 C26 1_555 1_555
C28 C21 1_555 1_555
C29 C4 1_555 1_555
H18 C28 1_555 1_555
H19 C29 1_555 1_555
C30 C18 1_555 1_555
C31 C3 1_555 1_555
C32 C30 1_555 1_555
C33 C31 1_555 1_555
H20 C32 1_555 1_555
H21 C33 1_555 1_555
C34 C32 1_555 1_555
C35 C33 1_555 1_555
H22 C34 1_555 1_555
H23 C35 1_555 1_555
N6 Ag1 1_555 1_555
N7 Ag3 1_555 1_555
N8 C35 1_555 1_555
N9 Ag6 1_555 1_555
C36 N7 1_555 1_555
C37 N8 1_555 1_555
H24 C36 1_555 1_555
H25 C37 1_555 1_555
C38 C30 1_555 1_555
C39 C31 1_555 1_555
H26 C38 1_555 1_555
H27 C39 1_555 1_555
C2 C3 1_555 1_555
C12 C13 1_555 1_555
O3 C14 1_555 1_555
C15 C20 1_555 1_555
O6 C19 1_555 1_555
C16 C18 1_555 1_555
C17 C19 1_555 1_555
C24 N4 1_555 1_555
C26 C28 1_555 1_555
C27 C29 1_555 1_555
C34 N7 1_555 1_555
C36 C38 1_555 1_555
C37 C39 1_555 1_555
N9_2 Ag4 1_555 1_555
Ag1_2 N1_2 1_555 1_555
Al1_2 O1_2 1_555 1_555
O1_2 C1_2 1_555 1_555
C1_2 C4_2 1_555 1_555
O2_2 Al1_2 1_555 1_555
C2_2 H1_2 1_555 1_555
C3_2 O2_2 1_555 1_555
C4_2 C5_2 1_555 1_555
C5_2 C6_2 1_555 1_555
H2_2 C22_2 1_555 1_555
C6_2 N1_2 1_555 1_555
H3_2 C24_2 1_555 1_555
N1_2 C27_2 1_555 1_555
C7_2 H4_2 1_555 1_555
C8_2 C7_2 1_555 1_555
H5_2 C8_2 1_555 1_555
C9_2 C10_2 1_555 1_555
C10_2 H6_2 1_555 1_555
C11_2 C10_2 1_555 1_555
H7_2 C11_2 1_555 1_555
N2_2 C11_2 1_555 1_555
C12_2 N2_2 1_555 1_555
H8_2 C12_2 1_555 1_555
C13_2 C9_2 1_555 1_555
H9_2 C13_2 1_555 1_555
Ag2_2 N2_2 1_555 1_555
Ag4_2 N4_2 1_555 1_555
Ag5_2 N8_2 1_555 1_555
Ag6_2 N5_2 1_555 1_555
O3_2 Al1_2 1_555 1_555
O4_2 Al1_2 1_555 1_555
C14_2 C2_2 1_555 1_555
C15_2 O4_2 1_555 1_555
O5_2 Al1_2 1_555 1_555
O6_2 Al1_2 1_555 1_555
C16_2 C15_2 1_555 1_555
C17_2 C1_2 1_555 1_555
H10_2 C16_2 1_555 1_555
H11_2 C17_2 1_555 1_555
C18_2 O5_2 1_555 1_555
C19_2 C9_2 1_555 1_555
C20_2 C8_2 1_555 1_555
C21_2 C14_2 1_555 1_555
C22_2 C20_2 1_555 1_555
C23_2 C21_2 1_555 1_555
H12_2 C23_2 1_555 1_555
H13_2 C5_2 1_555 1_555
C24_2 C22_2 1_555 1_555
C25_2 C23_2 1_555 1_555
H14_2 C25_2 1_555 1_555
H15_2 C6_2 1_555 1_555
N4_2 C7_2 1_555 1_555
N5_2 C25_2 1_555 1_555
C26_2 N5_2 1_555 1_555
C27_2 H17_2 1_555 1_555
H16_2 C26_2 1_555 1_555
C28_2 C21_2 1_555 1_555
C29_2 C4_2 1_555 1_555
H18_2 C28_2 1_555 1_555
H19_2 C29_2 1_555 1_555
C30_2 C18_2 1_555 1_555
C31_2 C3_2 1_555 1_555
C32_2 C30_2 1_555 1_555
C33_2 C31_2 1_555 1_555
H20_2 C32_2 1_555 1_555
H21_2 C33_2 1_555 1_555
C34_2 C32_2 1_555 1_555
C35_2 C33_2 1_555 1_555
H22_2 C34_2 1_555 1_555
H23_2 C35_2 1_555 1_555
N6_2 Ag1_2 1_555 1_555
N7_2 Ag3_2 1_555 1_555
N8_2 C35_2 1_555 1_555
N9_3 Ag6_2 1_555 1_555
C36_2 N7_2 1_555 1_555
C37_2 N8_2 1_555 1_555
H24_2 C36_2 1_555 1_555
H25_2 C37_2 1_555 1_555
C38_2 C30_2 1_555 1_555
C39_2 C31_2 1_555 1_555
H26_2 C38_2 1_555 1_555
H27_2 C39_2 1_555 1_555
C2_2 C3_2 1_555 1_555
C12_2 C13_2 1_555 1_555
O3_2 C14_2 1_555 1_555
C15_2 C20_2 1_555 1_555
O6_2 C19_2 1_555 1_555
C16_2 C18_2 1_555 1_555
C17_2 C19_2 1_555 1_555
C24_2 N4_2 1_555 1_555
C26_2 C28_2 1_555 1_555
C27_2 C29_2 1_555 1_555
C34_2 N7_2 1_555 1_555
C36_2 C38_2 1_555 1_555
C37_2 C39_2 1_555 1_555
N9_4 Ag4_2 1_555 1_555
Ag5_2 N3_6 1_555 1_555
Al1_3 O1_3 1_555 1_555
O1_3 C1_3 1_555 1_555
C1_3 C4_3 1_555 1_555
O2_3 Al1_3 1_555 1_555
C2_3 H1_3 1_555 1_555
C3_3 O2_3 1_555 1_555
C4_3 C5_3 1_555 1_555
C5_3 C6_3 1_555 1_555
H2_3 C22_3 1_555 1_555
C6_3 N3_4 1_555 1_555
H3_3 C24_3 1_555 1_555
N3_4 C27_3 1_555 1_555
C8_3 C7_3 1_555 1_555
H5_3 C8_3 1_555 1_555
C9_3 C10_3 1_555 1_555
C10_3 H6_3 1_555 1_555
C11_3 C10_3 1_555 1_555
H7_3 C11_3 1_555 1_555
N2_3 C11_3 1_555 1_555
C12_3 N2_3 1_555 1_555
H8_3 C12_3 1_555 1_555
C13_3 C9_3 1_555 1_555
H9_3 C13_3 1_555 1_555
Ag2_3 N2_3 1_555 1_555
Ag3_3 N3_7 1_555 1_555
Ag5_3 N8_3 1_555 1_555
O3_3 Al1_3 1_555 1_555
O4_3 Al1_3 1_555 1_555
C14_3 C2_3 1_555 1_555
C15_3 O4_3 1_555 1_555
O5_3 Al1_3 1_555 1_555
O6_3 Al1_3 1_555 1_555
C16_3 C15_3 1_555 1_555
C17_3 C1_3 1_555 1_555
H10_3 C16_3 1_555 1_555
H11_3 C17_3 1_555 1_555
C18_3 O5_3 1_555 1_555
C19_3 C9_3 1_555 1_555
C20_3 C8_3 1_555 1_555
C21_3 C14_3 1_555 1_555
C22_3 C20_3 1_555 1_555
C23_3 C21_3 1_555 1_555
H12_3 C23_3 1_555 1_555
H13_3 C5_3 1_555 1_555
C24_3 C22_3 1_555 1_555
C25_3 C23_3 1_555 1_555
H14_3 C25_3 1_555 1_555
H15_3 C6_3 1_555 1_555
N3_5 C7_3 1_555 1_555
N3_6 C25_3 1_555 1_555
C26_3 N3_6 1_555 1_555
H16_3 C26_3 1_555 1_555
C28_3 C21_3 1_555 1_555
C29_3 C4_3 1_555 1_555
H18_3 C28_3 1_555 1_555
H19_3 C29_3 1_555 1_555
C30_3 C18_3 1_555 1_555
C31_3 C3_3 1_555 1_555
C32_3 C30_3 1_555 1_555
C33_3 C31_3 1_555 1_555
H20_3 C32_3 1_555 1_555
H21_3 C33_3 1_555 1_555
C34_3 C32_3 1_555 1_555
C35_3 C33_3 1_555 1_555
H22_3 C34_3 1_555 1_555
H23_3 C35_3 1_555 1_555
N7_3 Ag3_3 1_555 1_555
N8_3 C35_3 1_555 1_555
C36_3 N7_3 1_555 1_555
C37_3 N8_3 1_555 1_555
H24_3 C36_3 1_555 1_555
H25_3 C37_3 1_555 1_555
C38_3 C30_3 1_555 1_555
C39_3 C31_3 1_555 1_555
H26_3 C38_3 1_555 1_555
H27_3 C39_3 1_555 1_555
C2_3 C3_3 1_555 1_555
C12_3 C13_3 1_555 1_555
O3_3 C14_3 1_555 1_555
C15_3 C20_3 1_555 1_555
O6_3 C19_3 1_555 1_555
C16_3 C18_3 1_555 1_555
C17_3 C19_3 1_555 1_555
C24_3 N3_5 1_555 1_555
C26_3 C28_3 1_555 1_555
C27_3 C29_3 1_555 1_555
C34_3 N7_3 1_555 1_555
C36_3 C38_3 1_555 1_555
C37_3 C39_3 1_555 1_555
Ag2_3 N3_8 1_555 1_555
Ag5_3 N3_9 1_555 1_555
Al1_4 O1_4 1_555 1_555
O1_4 C1_4 1_555 1_555
C1_4 C4_4 1_555 1_555
O2_4 Al1_4 1_555 1_555
C2_4 H1_4 1_555 1_555
C3_4 O2_4 1_555 1_555
C4_4 C5_4 1_555 1_555
C5_4 C6_4 1_555 1_555
H2_4 C22_4 1_555 1_555
C6_4 N3 1_555 1_555
H3_4 C24_4 1_555 1_555
N3 C27_4 1_555 1_555
C8_4 C7_4 1_555 1_555
H5_4 C8_4 1_555 1_555
C9_4 C10_4 1_555 1_555
C10_4 H6_4 1_555 1_555
C11_4 C10_4 1_555 1_555
H7_4 C11_4 1_555 1_555
N2_4 C11_4 1_555 1_555
C12_4 N2_4 1_555 1_555
H8_4 C12_4 1_555 1_555
C13_4 C9_4 1_555 1_555
H9_4 C13_4 1_555 1_555
Ag2_4 N2_4 1_555 1_555
Ag3_4 N3_10 1_555 1_555
Ag5_4 N8_4 1_555 1_555
O3_4 Al1_4 1_555 1_555
O4_4 Al1_4 1_555 1_555
C14_4 C2_4 1_555 1_555
C15_4 O4_4 1_555 1_555
O5_4 Al1_4 1_555 1_555
O6_4 Al1_4 1_555 1_555
C16_4 C15_4 1_555 1_555
C17_4 C1_4 1_555 1_555
H10_4 C16_4 1_555 1_555
H11_4 C17_4 1_555 1_555
C18_4 O5_4 1_555 1_555
C19_4 C9_4 1_555 1_555
C20_4 C8_4 1_555 1_555
C21_4 C14_4 1_555 1_555
C22_4 C20_4 1_555 1_555
C23_4 C21_4 1_555 1_555
H12_4 C23_4 1_555 1_555
H13_4 C5_4 1_555 1_555
C24_4 C22_4 1_555 1_555
C25_4 C23_4 1_555 1_555
H14_4 C25_4 1_555 1_555
H15_4 C6_4 1_555 1_555
N3_2 C7_4 1_555 1_555
N3_3 C25_4 1_555 1_555
C26_4 N3_3 1_555 1_555
C27_4 H17_4 1_555 1_555
C28_4 C21_4 1_555 1_555
C29_4 C4_4 1_555 1_555
H18_4 C28_4 1_555 1_555
H19_4 C29_4 1_555 1_555
C30_4 C18_4 1_555 1_555
C31_4 C3_4 1_555 1_555
C32_4 C30_4 1_555 1_555
C33_4 C31_4 1_555 1_555
H20_4 C32_4 1_555 1_555
H21_4 C33_4 1_555 1_555
C34_4 C32_4 1_555 1_555
C35_4 C33_4 1_555 1_555
H22_4 C34_4 1_555 1_555
H23_4 C35_4 1_555 1_555
N7_4 Ag3_4 1_555 1_555
N8_4 C35_4 1_555 1_555
C36_4 N7_4 1_555 1_555
C37_4 N8_4 1_555 1_555
H24_4 C36_4 1_555 1_555
H25_4 C37_4 1_555 1_555
C38_4 C30_4 1_555 1_555
C39_4 C31_4 1_555 1_555
H26_4 C38_4 1_555 1_555
H27_4 C39_4 1_555 1_555
C2_4 C3_4 1_555 1_555
C12_4 C13_4 1_555 1_555
O3_4 C14_4 1_555 1_555
C15_4 C20_4 1_555 1_555
O6_4 C19_4 1_555 1_555
C16_4 C18_4 1_555 1_555
C17_4 C19_4 1_555 1_555
C24_4 N3_2 1_555 1_555
C26_4 C28_4 1_555 1_555
C27_4 C29_4 1_555 1_555
C34_4 N7_4 1_555 1_555
C36_4 C38_4 1_555 1_555
C37_4 C39_4 1_555 1_555
Ag2_4 N3_11 1_555 1_555
Ag5_4 N3_12 1_555 1_555
C3_5 O2_5 1_555 1_555
H2_5 C22_5 1_555 1_555
H3_5 C24_5 1_555 1_555
C7_5 H4_5 1_555 1_555
C8_5 C7_5 1_555 1_555
H5_5 C8_5 1_555 1_555
C15_5 O4_5 1_555 1_555
C16_5 C15_5 1_555 1_555
H10_5 C16_5 1_555 1_555
C20_5 C8_5 1_555 1_555
C22_5 C20_5 1_555 1_555
C24_5 C22_5 1_555 1_555
N3_11 C7_5 1_555 1_555
C31_5 C3_5 1_555 1_555
C33_5 C31_5 1_555 1_555
H21_5 C33_5 1_555 1_555
C35_5 C33_5 1_555 1_555
H23_5 C35_5 1_555 1_555
N9_3 C35_5 1_555 1_555
C37_5 N9_3 1_555 1_555
H25_5 C37_5 1_555 1_555
C39_5 C31_5 1_555 1_555
H27_5 C39_5 1_555 1_555
C15_5 C20_5 1_555 1_555
C24_5 N3_11 1_555 1_555
C37_5 C39_5 1_555 1_555
C2_5 H1_5 1_555 1_555
C14_5 C2_5 1_555 1_555
C21_5 C14_5 1_555 1_555
C23_5 C21_5 1_555 1_555
H12_5 C23_5 1_555 1_555
C25_5 C23_5 1_555 1_555
H14_5 C25_5 1_555 1_555
N3_12 C25_5 1_555 1_555
C26_5 N3_12 1_555 1_555
H16_5 C26_5 1_555 1_555
C28_5 C21_5 1_555 1_555
H18_5 C28_5 1_555 1_555
O3_5 C14_5 1_555 1_555
C26_5 C28_5 1_555 1_555
O5_5 Al1_5 1_555 1_555
C18_5 O5_5 1_555 1_555
C30_5 C18_5 1_555 1_555
C32_5 C30_5 1_555 1_555
H20_5 C32_5 1_555 1_555
C34_5 C32_5 1_555 1_555
H22_5 C34_5 1_555 1_555
C36_5 N6_2 1_555 1_555
H24_5 C36_5 1_555 1_555
C38_5 C30_5 1_555 1_555
H26_5 C38_5 1_555 1_555
C34_5 N6_2 1_555 1_555
C36_5 C38_5 1_555 1_555
Al1_6 O1_5 1_555 1_555
O1_5 C1_5 1_555 1_555
C1_5 C4_5 1_555 1_555
C4_5 C5_5 1_555 1_555
C5_5 C6_5 1_555 1_555
C6_5 N3_10 1_555 1_555
N3_10 C27_5 1_555 1_555
C9_5 C10_5 1_555 1_555
C10_5 H6_5 1_555 1_555
C11_5 C10_5 1_555 1_555
H7_5 C11_5 1_555 1_555
N9_4 C11_5 1_555 1_555
C12_5 N9_4 1_555 1_555
H8_5 C12_5 1_555 1_555
C13_5 C9_5 1_555 1_555
H9_5 C13_5 1_555 1_555
O6_5 Al1_6 1_555 1_555
C17_5 C1_5 1_555 1_555
H11_5 C17_5 1_555 1_555
C19_5 C9_5 1_555 1_555
H13_5 C5_5 1_555 1_555
H15_5 C6_5 1_555 1_555
C27_5 H17_5 1_555 1_555
C29_5 C4_5 1_555 1_555
H19_5 C29_5 1_555 1_555
C12_5 C13_5 1_555 1_555
O6_5 C19_5 1_555 1_555
C17_5 C19_5 1_555 1_555
C27_5 C29_5 1_555 1_555
O4_5 Al1_7 1_555 1_555
O2_5 Al1_7 1_555 1_555
Al1_8 O3_5 1_555 1_555
H2_6 C22_6 1_555 1_555
H3_6 C24_6 1_555 1_555
C7_6 H4_6 1_555 1_555
C24_6 C22_6 1_555 1_555
N3_8 C7_6 1_555 1_555
C24_6 N3_8 1_555 1_555
H5_6 C8_6 1_555 1_555
O4_6 Al1_9 1_555 1_555
C15_6 O4_6 1_555 1_555
O5_6 Al1_9 1_555 1_555
C16_6 C15_6 1_555 1_555
H10_6 C16_6 1_555 1_555
C18_6 O5_6 1_555 1_555
C20_6 C8_6 1_555 1_555
C30_6 C18_6 1_555 1_555
C32_6 C30_6 1_555 1_555
H20_6 C32_6 1_555 1_555
C34_6 C32_6 1_555 1_555
H22_6 C34_6 1_555 1_555
C36_6 N6 1_555 1_555
H24_6 C36_6 1_555 1_555
C38_6 C30_6 1_555 1_555
H26_6 C38_6 1_555 1_555
C15_6 C20_6 1_555 1_555
C16_6 C18_6 1_555 1_555
C34_6 N6 1_555 1_555
C36_6 C38_6 1_555 1_555
C5_6 C6_6 1_555 1_555
C6_6 N3_7 1_555 1_555
N3_7 C27_6 1_555 1_555
H13_6 C5_6 1_555 1_555
H15_6 C6_6 1_555 1_555
C27_6 H17_6 1_555 1_555
O2_6 Al1_10 1_555 1_555
C3_6 O2_6 1_555 1_555
C31_6 C3_6 1_555 1_555
C33_6 C31_6 1_555 1_555
H21_6 C33_6 1_555 1_555
C35_6 C33_6 1_555 1_555
H23_6 C35_6 1_555 1_555
N9 C35_6 1_555 1_555
C37_6 N9 1_555 1_555
H25_6 C37_6 1_555 1_555
C39_6 C31_6 1_555 1_555
H27_6 C39_6 1_555 1_555
C37_6 C39_6 1_555 1_555
H12_6 C23_6 1_555 1_555
C25_6 C23_6 1_555 1_555
H14_6 C25_6 1_555 1_555
N3_9 C25_6 1_555 1_555
C26_6 N3_9 1_555 1_555
H16_6 C26_6 1_555 1_555
C2_6 H1_6 1_555 1_555
C9_6 C10_6 1_555 1_555
C10_6 H6_6 1_555 1_555
C11_6 C10_6 1_555 1_555
H7_6 C11_6 1_555 1_555
N9_2 C11_6 1_555 1_555
C12_6 N9_2 1_555 1_555
H8_6 C12_6 1_555 1_555
C13_6 C9_6 1_555 1_555
H9_6 C13_6 1_555 1_555
O3_6 Al1_11 1_555 1_555
C14_6 C2_6 1_555 1_555
O6_6 Al1_11 1_555 1_555
C19_6 C9_6 1_555 1_555
C21_6 C14_6 1_555 1_555
C28_6 C21_6 1_555 1_555
H18_6 C28_6 1_555 1_555
C12_6 C13_6 1_555 1_555
O3_6 C14_6 1_555 1_555
O6_6 C19_6 1_555 1_555
Al1_12 O1_6 1_555 1_555
O1_6 C1_6 1_555 1_555
C1_6 C4_6 1_555 1_555
C17_6 C1_6 1_555 1_555
H11_6 C17_6 1_555 1_555
C29_6 C4_6 1_555 1_555
H19_6 C29_6 1_555 1_555
Ag7 N10 1_555 1_555
Al2 O7 1_555 1_555
O7 C40 1_555 1_555
C40 C43 1_555 1_555
O8 Al2 1_555 1_555
C41 H28 1_555 1_555
C42 O8 1_555 1_555
C43 C44 1_555 1_555
C44 C45 1_555 1_555
H29 C61 1_555 1_555
C45 N10 1_555 1_555
H30 C63 1_555 1_555
N10 C66 1_555 1_555
C46 H31 1_555 1_555
C47 C46 1_555 1_555
H32 C47 1_555 1_555
C48 C49 1_555 1_555
C49 H33 1_555 1_555
C50 C49 1_555 1_555
H34 C50 1_555 1_555
N11 C50 1_555 1_555
C51 N11 1_555 1_555
H35 C51 1_555 1_555
C52 C48 1_555 1_555
H36 C52 1_555 1_555
Ag8 N11 1_555 1_555
Ag9 N12 1_555 1_555
Ag10 N13 1_555 1_555
Ag11 N17 1_555 1_555
Ag12 N14 1_555 1_555
O9 Al2 1_555 1_555
O10 Al2 1_555 1_555
C53 C41 1_555 1_555
C54 O10 1_555 1_555
O11 Al2 1_555 1_555
O12 Al2 1_555 1_555
C55 C54 1_555 1_555
C56 C40 1_555 1_555
H37 C55 1_555 1_555
H38 C56 1_555 1_555
C57 O11 1_555 1_555
C58 C48 1_555 1_555
C59 C47 1_555 1_555
C60 C53 1_555 1_555
C61 C59 1_555 1_555
C62 C60 1_555 1_555
H39 C62 1_555 1_555
H40 C44 1_555 1_555
C63 C61 1_555 1_555
C64 C62 1_555 1_555
H41 C64 1_555 1_555
H42 C45 1_555 1_555
N13 C46 1_555 1_555
N14 C64 1_555 1_555
C65 N14 1_555 1_555
C66 H44 1_555 1_555
H43 C65 1_555 1_555
C67 C60 1_555 1_555
C68 C43 1_555 1_555
H45 C67 1_555 1_555
H46 C68 1_555 1_555
C69 C57 1_555 1_555
C70 C42 1_555 1_555
C71 C69 1_555 1_555
C72 C70 1_555 1_555
H47 C71 1_555 1_555
H48 C72 1_555 1_555
C73 C71 1_555 1_555
C74 C72 1_555 1_555
H49 C73 1_555 1_555
H50 C74 1_555 1_555
N15 Ag7 1_555 1_555
N16 Ag9 1_555 1_555
N17 C74 1_555 1_555
N18 Ag12 1_555 1_555
C75 N16 1_555 1_555
C76 N17 1_555 1_555
H51 C75 1_555 1_555
H52 C76 1_555 1_555
C77 C69 1_555 1_555
C78 C70 1_555 1_555
H53 C77 1_555 1_555
H54 C78 1_555 1_555
C41 C42 1_555 1_555
C51 C52 1_555 1_555
O9 C53 1_555 1_555
C54 C59 1_555 1_555
O12 C58 1_555 1_555
C55 C57 1_555 1_555
C56 C58 1_555 1_555
C63 N13 1_555 1_555
C65 C67 1_555 1_555
C66 C68 1_555 1_555
C73 N16 1_555 1_555
C75 C77 1_555 1_555
C76 C78 1_555 1_555
N18_2 Ag10 1_555 1_555
Ag7_2 N10_2 1_555 1_555
Al2_2 O7_2 1_555 1_555
O7_2 C40_2 1_555 1_555
C40_2 C43_2 1_555 1_555
O8_2 Al2_2 1_555 1_555
C41_2 H28_2 1_555 1_555
C42_2 O8_2 1_555 1_555
C43_2 C44_2 1_555 1_555
C44_2 C45_2 1_555 1_555
H29_2 C61_2 1_555 1_555
C45_2 N10_2 1_555 1_555
H30_2 C63_2 1_555 1_555
N10_2 C66_2 1_555 1_555
C46_2 H31_2 1_555 1_555
C47_2 C46_2 1_555 1_555
H32_2 C47_2 1_555 1_555
C48_2 C49_2 1_555 1_555
C49_2 H33_2 1_555 1_555
C50_2 C49_2 1_555 1_555
H34_2 C50_2 1_555 1_555
N11_2 C50_2 1_555 1_555
C51_2 N11_2 1_555 1_555
H35_2 C51_2 1_555 1_555
C52_2 C48_2 1_555 1_555
H36_2 C52_2 1_555 1_555
Ag8_2 N11_2 1_555 1_555
Ag10_2 N13_2 1_555 1_555
Ag11_2 N17_2 1_555 1_555
Ag12_2 N14_2 1_555 1_555
O9_2 Al2_2 1_555 1_555
O10_2 Al2_2 1_555 1_555
C53_2 C41_2 1_555 1_555
C54_2 O10_2 1_555 1_555
O11_2 Al2_2 1_555 1_555
O12_2 Al2_2 1_555 1_555
C55_2 C54_2 1_555 1_555
C56_2 C40_2 1_555 1_555
H37_2 C55_2 1_555 1_555
H38_2 C56_2 1_555 1_555
C57_2 O11_2 1_555 1_555
C58_2 C48_2 1_555 1_555
C59_2 C47_2 1_555 1_555
C60_2 C53_2 1_555 1_555
C61_2 C59_2 1_555 1_555
C62_2 C60_2 1_555 1_555
H39_2 C62_2 1_555 1_555
H40_2 C44_2 1_555 1_555
C63_2 C61_2 1_555 1_555
C64_2 C62_2 1_555 1_555
H41_2 C64_2 1_555 1_555
H42_2 C45_2 1_555 1_555
N13_2 C46_2 1_555 1_555
N14_2 C64_2 1_555 1_555
C65_2 N14_2 1_555 1_555
C66_2 H44_2 1_555 1_555
H43_2 C65_2 1_555 1_555
C67_2 C60_2 1_555 1_555
C68_2 C43_2 1_555 1_555
H45_2 C67_2 1_555 1_555
H46_2 C68_2 1_555 1_555
C69_2 C57_2 1_555 1_555
C70_2 C42_2 1_555 1_555
C71_2 C69_2 1_555 1_555
C72_2 C70_2 1_555 1_555
H47_2 C71_2 1_555 1_555
H48_2 C72_2 1_555 1_555
C73_2 C71_2 1_555 1_555
C74_2 C72_2 1_555 1_555
H49_2 C73_2 1_555 1_555
H50_2 C74_2 1_555 1_555
N15_2 Ag7_2 1_555 1_555
N16_2 Ag9_2 1_555 1_555
N17_2 C74_2 1_555 1_555
N18_3 Ag12_2 1_555 1_555
C75_2 N16_2 1_555 1_555
C76_2 N17_2 1_555 1_555
H51_2 C75_2 1_555 1_555
H52_2 C76_2 1_555 1_555
C77_2 C69_2 1_555 1_555
C78_2 C70_2 1_555 1_555
H53_2 C77_2 1_555 1_555
H54_2 C78_2 1_555 1_555
C41_2 C42_2 1_555 1_555
C51_2 C52_2 1_555 1_555
O9_2 C53_2 1_555 1_555
C54_2 C59_2 1_555 1_555
O12_2 C58_2 1_555 1_555
C55_2 C57_2 1_555 1_555
C56_2 C58_2 1_555 1_555
C63_2 N13_2 1_555 1_555
C65_2 C67_2 1_555 1_555
C66_2 C68_2 1_555 1_555
C73_2 N16_2 1_555 1_555
C75_2 C77_2 1_555 1_555
C76_2 C78_2 1_555 1_555
N18_4 Ag10_2 1_555 1_555
Ag11_2 N12_6 1_555 1_555
Al2_3 O7_3 1_555 1_555
O7_3 C40_3 1_555 1_555
C40_3 C43_3 1_555 1_555
O8_3 Al2_3 1_555 1_555
C41_3 H28_3 1_555 1_555
C42_3 O8_3 1_555 1_555
C43_3 C44_3 1_555 1_555
C44_3 C45_3 1_555 1_555
H29_3 C61_3 1_555 1_555
C45_3 N12_4 1_555 1_555
H30_3 C63_3 1_555 1_555
N12_4 C66_3 1_555 1_555
C47_3 C46_3 1_555 1_555
H32_3 C47_3 1_555 1_555
O9_3 Al2_3 1_555 1_555
O10_3 Al2_3 1_555 1_555
C53_3 C41_3 1_555 1_555
C54_3 O10_3 1_555 1_555
O11_3 Al2_3 1_555 1_555
O12_3 Al2_3 1_555 1_555
C55_3 C54_3 1_555 1_555
C56_3 C40_3 1_555 1_555
H37_3 C55_3 1_555 1_555
H38_3 C56_3 1_555 1_555
C57_3 O11_3 1_555 1_555
C58_3 C48_3 1_555 1_555
C59_3 C47_3 1_555 1_555
C60_3 C53_3 1_555 1_555
C61_3 C59_3 1_555 1_555
C62_3 C60_3 1_555 1_555
H39_3 C62_3 1_555 1_555
H40_3 C44_3 1_555 1_555
C63_3 C61_3 1_555 1_555
C64_3 C62_3 1_555 1_555
H41_3 C64_3 1_555 1_555
H42_3 C45_3 1_555 1_555
N12_5 C46_3 1_555 1_555
N12_6 C64_3 1_555 1_555
C65_3 N12_6 1_555 1_555
H43_3 C65_3 1_555 1_555
C67_3 C60_3 1_555 1_555
C68_3 C43_3 1_555 1_555
H45_3 C67_3 1_555 1_555
H46_3 C68_3 1_555 1_555
C69_3 C57_3 1_555 1_555
C70_3 C42_3 1_555 1_555
C41_3 C42_3 1_555 1_555
O9_3 C53_3 1_555 1_555
C54_3 C59_3 1_555 1_555
O12_3 C58_3 1_555 1_555
C55_3 C57_3 1_555 1_555
C56_3 C58_3 1_555 1_555
C63_3 N12_5 1_555 1_555
C65_3 C67_3 1_555 1_555
C66_3 C68_3 1_555 1_555
C50_3 C49_3 1_555 1_555
H34_3 C50_3 1_555 1_555
N11_3 C50_3 1_555 1_555
C51_3 N11_3 1_555 1_555
H35_3 C51_3 1_555 1_555
Ag8_3 N11_3 1_555 1_555
Ag9_3 N12_7 1_555 1_555
Ag11_3 N17_3 1_555 1_555
C73_3 C71_3 1_555 1_555
C74_3 C72_3 1_555 1_555
H49_3 C73_3 1_555 1_555
H50_3 C74_3 1_555 1_555
N16_3 Ag9_3 1_555 1_555
N17_3 C74_3 1_555 1_555
C75_3 N16_3 1_555 1_555
C76_3 N17_3 1_555 1_555
H51_3 C75_3 1_555 1_555
H52_3 C76_3 1_555 1_555
C51_3 C52_3 1_555 1_555
C73_3 N16_3 1_555 1_555
C75_3 C77_3 1_555 1_555
C76_3 C78_3 1_555 1_555
Ag8_3 N12_8 1_555 1_555
Ag11_3 N12_9 1_555 1_555
Al2_4 O7_4 1_555 1_555
O7_4 C40_4 1_555 1_555
C40_4 C43_4 1_555 1_555
O8_4 Al2_4 1_555 1_555
C41_4 H28_4 1_555 1_555
C42_4 O8_4 1_555 1_555
C43_4 C44_4 1_555 1_555
C44_4 C45_4 1_555 1_555
H29_4 C61_4 1_555 1_555
C45_4 N12 1_555 1_555
H30_4 C63_4 1_555 1_555
N12 C66_4 1_555 1_555
C47_4 C46_4 1_555 1_555
H32_4 C47_4 1_555 1_555
C48_4 C49_4 1_555 1_555
C49_4 H33_4 1_555 1_555
C50_4 C49_4 1_555 1_555
H34_4 C50_4 1_555 1_555
N11_4 C50_4 1_555 1_555
C51_4 N11_4 1_555 1_555
H35_4 C51_4 1_555 1_555
C52_4 C48_4 1_555 1_555
H36_4 C52_4 1_555 1_555
Ag8_4 N11_4 1_555 1_555
Ag9_4 N12_10 1_555 1_555
Ag11_4 N17_4 1_555 1_555
O9_4 Al2_4 1_555 1_555
O10_4 Al2_4 1_555 1_555
C53_4 C41_4 1_555 1_555
C54_4 O10_4 1_555 1_555
O11_4 Al2_4 1_555 1_555
O12_4 Al2_4 1_555 1_555
C55_4 C54_4 1_555 1_555
C56_4 C40_4 1_555 1_555
H37_4 C55_4 1_555 1_555
H38_4 C56_4 1_555 1_555
C57_4 O11_4 1_555 1_555
C58_4 C48_4 1_555 1_555
C59_4 C47_4 1_555 1_555
C60_4 C53_4 1_555 1_555
C61_4 C59_4 1_555 1_555
C62_4 C60_4 1_555 1_555
H39_4 C62_4 1_555 1_555
H40_4 C44_4 1_555 1_555
C63_4 C61_4 1_555 1_555
C64_4 C62_4 1_555 1_555
H41_4 C64_4 1_555 1_555
H42_4 C45_4 1_555 1_555
N12_2 C46_4 1_555 1_555
N12_3 C64_4 1_555 1_555
C65_4 N12_3 1_555 1_555
C66_4 H44_4 1_555 1_555
C67_4 C60_4 1_555 1_555
C68_4 C43_4 1_555 1_555
H45_4 C67_4 1_555 1_555
H46_4 C68_4 1_555 1_555
C69_4 C57_4 1_555 1_555
C70_4 C42_4 1_555 1_555
C71_4 C69_4 1_555 1_555
C72_4 C70_4 1_555 1_555
H47_4 C71_4 1_555 1_555
H48_4 C72_4 1_555 1_555
C73_4 C71_4 1_555 1_555
C74_4 C72_4 1_555 1_555
H49_4 C73_4 1_555 1_555
H50_4 C74_4 1_555 1_555
N16_4 Ag9_4 1_555 1_555
N17_4 C74_4 1_555 1_555
C75_4 N16_4 1_555 1_555
C76_4 N17_4 1_555 1_555
H51_4 C75_4 1_555 1_555
H52_4 C76_4 1_555 1_555
C77_4 C69_4 1_555 1_555
C78_4 C70_4 1_555 1_555
H53_4 C77_4 1_555 1_555
H54_4 C78_4 1_555 1_555
C41_4 C42_4 1_555 1_555
C51_4 C52_4 1_555 1_555
O9_4 C53_4 1_555 1_555
C54_4 C59_4 1_555 1_555
O12_4 C58_4 1_555 1_555
C55_4 C57_4 1_555 1_555
C56_4 C58_4 1_555 1_555
C63_4 N12_2 1_555 1_555
C65_4 C67_4 1_555 1_555
C66_4 C68_4 1_555 1_555
C73_4 N16_4 1_555 1_555
C75_4 C77_4 1_555 1_555
C76_4 C78_4 1_555 1_555
Ag8_4 N12_11 1_555 1_555
Ag11_4 N12_12 1_555 1_555
C42_5 O8_5 1_555 1_555
H29_5 C61_5 1_555 1_555
H30_5 C63_5 1_555 1_555
C46_5 H31_5 1_555 1_555
C47_5 C46_5 1_555 1_555
H32_5 C47_5 1_555 1_555
C54_5 O10_5 1_555 1_555
C55_5 C54_5 1_555 1_555
H37_5 C55_5 1_555 1_555
C59_5 C47_5 1_555 1_555
C61_5 C59_5 1_555 1_555
C63_5 C61_5 1_555 1_555
N12_11 C46_5 1_555 1_555
C70_5 C42_5 1_555 1_555
C72_5 C70_5 1_555 1_555
H48_5 C72_5 1_555 1_555
C74_5 C72_5 1_555 1_555
H50_5 C74_5 1_555 1_555
N18_3 C74_5 1_555 1_555
C76_5 N18_3 1_555 1_555
H52_5 C76_5 1_555 1_555
C78_5 C70_5 1_555 1_555
H54_5 C78_5 1_555 1_555
C54_5 C59_5 1_555 1_555
C63_5 N12_11 1_555 1_555
C76_5 C78_5 1_555 1_555
C41_5 H28_5 1_555 1_555
C53_5 C41_5 1_555 1_555
C60_5 C53_5 1_555 1_555
C62_5 C60_5 1_555 1_555
H39_5 C62_5 1_555 1_555
C64_5 C62_5 1_555 1_555
H41_5 C64_5 1_555 1_555
N12_12 C64_5 1_555 1_555
C65_5 N12_12 1_555 1_555
H43_5 C65_5 1_555 1_555
C67_5 C60_5 1_555 1_555
H45_5 C67_5 1_555 1_555
O9_5 C53_5 1_555 1_555
C65_5 C67_5 1_555 1_555
O11_5 Al2_5 1_555 1_555
C57_5 O11_5 1_555 1_555
C69_5 C57_5 1_555 1_555
C71_5 C69_5 1_555 1_555
H47_5 C71_5 1_555 1_555
C73_5 C71_5 1_555 1_555
H49_5 C73_5 1_555 1_555
C75_5 N15_2 1_555 1_555
H51_5 C75_5 1_555 1_555
C77_5 C69_5 1_555 1_555
H53_5 C77_5 1_555 1_555
C73_5 N15_2 1_555 1_555
C75_5 C77_5 1_555 1_555
Al2_6 O7_5 1_555 1_555
O7_5 C40_5 1_555 1_555
C40_5 C43_5 1_555 1_555
C43_5 C44_5 1_555 1_555
C44_5 C45_5 1_555 1_555
C45_5 N12_10 1_555 1_555
N12_10 C66_5 1_555 1_555
C48_5 C49_5 1_555 1_555
C49_5 H33_5 1_555 1_555
C50_5 C49_5 1_555 1_555
H34_5 C50_5 1_555 1_555
N18_4 C50_5 1_555 1_555
C51_5 N18_4 1_555 1_555
H35_5 C51_5 1_555 1_555
C52_5 C48_5 1_555 1_555
H36_5 C52_5 1_555 1_555
O12_5 Al2_6 1_555 1_555
C56_5 C40_5 1_555 1_555
H38_5 C56_5 1_555 1_555
C58_5 C48_5 1_555 1_555
H40_5 C44_5 1_555 1_555
H42_5 C45_5 1_555 1_555
C66_5 H44_5 1_555 1_555
C68_5 C43_5 1_555 1_555
H46_5 C68_5 1_555 1_555
C51_5 C52_5 1_555 1_555
O12_5 C58_5 1_555 1_555
C56_5 C58_5 1_555 1_555
C66_5 C68_5 1_555 1_555
O10_5 Al2_7 1_555 1_555
O8_5 Al2_7 1_555 1_555
Al2_8 O9_5 1_555 1_555
H29_6 C61_6 1_555 1_555
H30_6 C63_6 1_555 1_555
C46_6 H31_6 1_555 1_555
C47_6 C46_6 1_555 1_555
H32_6 C47_6 1_555 1_555
O10_6 Al2_9 1_555 1_555
C54_6 O10_6 1_555 1_555
O11_6 Al2_9 1_555 1_555
C55_6 C54_6 1_555 1_555
H37_6 C55_6 1_555 1_555
C57_6 O11_6 1_555 1_555
C59_6 C47_6 1_555 1_555
C61_6 C59_6 1_555 1_555
C63_6 C61_6 1_555 1_555
N12_8 C46_6 1_555 1_555
C69_6 C57_6 1_555 1_555
C71_6 C69_6 1_555 1_555
H47_6 C71_6 1_555 1_555
C73_6 C71_6 1_555 1_555
H49_6 C73_6 1_555 1_555
C75_6 N15 1_555 1_555
H51_6 C75_6 1_555 1_555
C77_6 C69_6 1_555 1_555
H53_6 C77_6 1_555 1_555
C54_6 C59_6 1_555 1_555
C55_6 C57_6 1_555 1_555
C63_6 N12_8 1_555 1_555
C73_6 N15 1_555 1_555
C75_6 C77_6 1_555 1_555
Al2_10 O7_6 1_555 1_555
O7_6 C40_6 1_555 1_555
C40_6 C43_6 1_555 1_555
C43_6 C44_6 1_555 1_555
C44_6 C45_6 1_555 1_555
C45_6 N12_7 1_555 1_555
N12_7 C66_6 1_555 1_555
C56_6 C40_6 1_555 1_555
H38_6 C56_6 1_555 1_555
H40_6 C44_6 1_555 1_555
H42_6 C45_6 1_555 1_555
C66_6 H44_6 1_555 1_555
C68_6 C43_6 1_555 1_555
H46_6 C68_6 1_555 1_555
C66_6 C68_6 1_555 1_555
O8_6 Al2_11 1_555 1_555
C42_6 O8_6 1_555 1_555
C70_6 C42_6 1_555 1_555
C72_6 C70_6 1_555 1_555
H48_6 C72_6 1_555 1_555
C74_6 C72_6 1_555 1_555
H50_6 C74_6 1_555 1_555
N18 C74_6 1_555 1_555
C76_6 N18 1_555 1_555
H52_6 C76_6 1_555 1_555
C78_6 C70_6 1_555 1_555
H54_6 C78_6 1_555 1_555
C76_6 C78_6 1_555 1_555
C41_6 H28_6 1_555 1_555
C48_6 C49_6 1_555 1_555
C49_6 H33_6 1_555 1_555
C50_6 C49_6 1_555 1_555
H34_6 C50_6 1_555 1_555
N18_2 C50_6 1_555 1_555
C51_6 N18_2 1_555 1_555
H35_6 C51_6 1_555 1_555
C52_6 C48_6 1_555 1_555
H36_6 C52_6 1_555 1_555
O9_6 Al2_12 1_555 1_555
C53_6 C41_6 1_555 1_555
O12_6 Al2_12 1_555 1_555
C58_6 C48_6 1_555 1_555
C60_6 C53_6 1_555 1_555
C62_6 C60_6 1_555 1_555
H39_6 C62_6 1_555 1_555
C64_6 C62_6 1_555 1_555
H41_6 C64_6 1_555 1_555
N12_9 C64_6 1_555 1_555
C65_6 N12_9 1_555 1_555
H43_6 C65_6 1_555 1_555
C67_6 C60_6 1_555 1_555
H45_6 C67_6 1_555 1_555
C51_6 C52_6 1_555 1_555
O9_6 C53_6 1_555 1_555
O12_6 C58_6 1_555 1_555
C65_6 C67_6 1_555 1_555
Ag13 N19 1_555 1_555
Al3 O13 1_555 1_555
O13 C79 1_555 1_555
C79 C82 1_555 1_555
O14 Al3 1_555 1_555
C80 H55 1_555 1_555
C81 O14 1_555 1_555
C82 C83 1_555 1_555
C83 C84 1_555 1_555
H56 C100 1_555 1_555
C84 N19 1_555 1_555
H57 C102 1_555 1_555
N19 C105 1_555 1_555
C85 H58 1_555 1_555
C86 C85 1_555 1_555
H59 C86 1_555 1_555
C87 C88 1_555 1_555
C88 H60 1_555 1_555
C89 C88 1_555 1_555
N20 C89 1_555 1_555
C90 N20 1_555 1_555
H62 C90 1_555 1_555
C91 C87 1_555 1_555
H63 C91 1_555 1_555
Ag15 N21 1_555 1_555
Ag16 N22 1_555 1_555
Ag18 N23 1_555 1_555
O15 Al3 1_555 1_555
O16 Al3 1_555 1_555
C92 C80 1_555 1_555
C93 O16 1_555 1_555
O17 Al3 1_555 1_555
O18 Al3 1_555 1_555
C94 C93 1_555 1_555
C95 C79 1_555 1_555
H64 C94 1_555 1_555
H65 C95 1_555 1_555
C96 O17 1_555 1_555
C97 C87 1_555 1_555
C98 C86 1_555 1_555
C99 C92 1_555 1_555
C100 C98 1_555 1_555
C101 C99 1_555 1_555
H66 C101 1_555 1_555
H67 C83 1_555 1_555
C102 C100 1_555 1_555
C103 C101 1_555 1_555
H68 C103 1_555 1_555
H69 C84 1_555 1_555
N22 C85 1_555 1_555
N23 C103 1_555 1_555
C104 N23 1_555 1_555
C105 H71 1_555 1_555
H70 C104 1_555 1_555
C106 C99 1_555 1_555
C107 C82 1_555 1_555
H72 C106 1_555 1_555
H73 C107 1_555 1_555
C108 C96 1_555 1_555
C109 C81 1_555 1_555
C110 C108 1_555 1_555
C111 C109 1_555 1_555
H74 C110 1_555 1_555
H75 C111 1_555 1_555
C112 C110 1_555 1_555
C113 C111 1_555 1_555
H76 C112 1_555 1_555
N25 Ag15 1_555 1_555
N26 C113 1_555 1_555
C114 N25 1_555 1_555
C115 N26 1_555 1_555
H78 C114 1_555 1_555
H79 C115 1_555 1_555
C116 C108 1_555 1_555
C117 C109 1_555 1_555
H80 C116 1_555 1_555
H81 C117 1_555 1_555
C80 C81 1_555 1_555
C90 C91 1_555 1_555
O15 C92 1_555 1_555
C93 C98 1_555 1_555
O18 C97 1_555 1_555
C94 C96 1_555 1_555
C95 C97 1_555 1_555
C102 N22 1_555 1_555
C104 C106 1_555 1_555
C105 C107 1_555 1_555
C112 N25 1_555 1_555
C114 C116 1_555 1_555
C115 C117 1_555 1_555
Ag14 N21_2 1_555 1_555
Ag17 N21_3 1_555 1_555
Ag15_2 N21_4 1_555 1_555
Ag13_2 N19_2 1_555 1_555
Al3_2 O13_2 1_555 1_555
O13_2 C79_2 1_555 1_555
C79_2 C82_2 1_555 1_555
O14_2 Al3_2 1_555 1_555
C80_2 H55_2 1_555 1_555
C81_2 O14_2 1_555 1_555
C82_2 C83_2 1_555 1_555
C83_2 C84_2 1_555 1_555
H56_2 C100_2 1_555 1_555
C84_2 N19_2 1_555 1_555
H57_2 C102_2 1_555 1_555
N19_2 C105_2 1_555 1_555
C85_2 H58_2 1_555 1_555
C86_2 C85_2 1_555 1_555
H59_2 C86_2 1_555 1_555
C87_2 C88_2 1_555 1_555
C88_2 H60_2 1_555 1_555
C89_2 C88_2 1_555 1_555
N20_2 C89_2 1_555 1_555
C90_2 N20_2 1_555 1_555
H62_2 C90_2 1_555 1_555
C91_2 C87_2 1_555 1_555
H63_2 C91_2 1_555 1_555
Ag16_2 N22_2 1_555 1_555
Ag17_2 N26_2 1_555 1_555
Ag18_2 N23_2 1_555 1_555
O15_2 Al3_2 1_555 1_555
O16_2 Al3_2 1_555 1_555
C92_2 C80_2 1_555 1_555
C93_2 O16_2 1_555 1_555
O17_2 Al3_2 1_555 1_555
O18_2 Al3_2 1_555 1_555
C94_2 C93_2 1_555 1_555
C95_2 C79_2 1_555 1_555
H64_2 C94_2 1_555 1_555
H65_2 C95_2 1_555 1_555
C96_2 O17_2 1_555 1_555
C97_2 C87_2 1_555 1_555
C98_2 C86_2 1_555 1_555
C99_2 C92_2 1_555 1_555
C100_2 C98_2 1_555 1_555
C101_2 C99_2 1_555 1_555
H66_2 C101_2 1_555 1_555
H67_2 C83_2 1_555 1_555
C102_2 C100_2 1_555 1_555
C103_2 C101_2 1_555 1_555
H68_2 C103_2 1_555 1_555
H69_2 C84_2 1_555 1_555
N22_2 C85_2 1_555 1_555
N23_2 C103_2 1_555 1_555
C104_2 N23_2 1_555 1_555
C105_2 H71_2 1_555 1_555
H70_2 C104_2 1_555 1_555
C106_2 C99_2 1_555 1_555
C107_2 C82_2 1_555 1_555
H72_2 C106_2 1_555 1_555
H73_2 C107_2 1_555 1_555
C108_2 C96_2 1_555 1_555
C109_2 C81_2 1_555 1_555
C110_2 C108_2 1_555 1_555
C111_2 C109_2 1_555 1_555
H74_2 C110_2 1_555 1_555
H75_2 C111_2 1_555 1_555
C112_2 C110_2 1_555 1_555
C113_2 C111_2 1_555 1_555
H77_2 C113_2 1_555 1_555
N24_2 Ag13_2 1_555 1_555
N26_2 C113_2 1_555 1_555
N27_3 Ag18_2 1_555 1_555
C114_2 N25_2 1_555 1_555
C115_2 N26_2 1_555 1_555
H78_2 C114_2 1_555 1_555
H79_2 C115_2 1_555 1_555
C116_2 C108_2 1_555 1_555
C117_2 C109_2 1_555 1_555
H80_2 C116_2 1_555 1_555
H81_2 C117_2 1_555 1_555
C80_2 C81_2 1_555 1_555
C90_2 C91_2 1_555 1_555
O15_2 C92_2 1_555 1_555
C93_2 C98_2 1_555 1_555
O18_2 C97_2 1_555 1_555
C94_2 C96_2 1_555 1_555
C95_2 C97_2 1_555 1_555
C102_2 N22_2 1_555 1_555
C104_2 C106_2 1_555 1_555
C105_2 C107_2 1_555 1_555
C112_2 N25_2 1_555 1_555
C114_2 C116_2 1_555 1_555
C115_2 C117_2 1_555 1_555
N27_4 Ag16_2 1_555 1_555
Ag14_2 N21_5 1_555 1_555
Ag17_2 N21_6 1_555 1_555
Al3_3 O13_3 1_555 1_555
O13_3 C79_3 1_555 1_555
C79_3 C82_3 1_555 1_555
O14_3 Al3_3 1_555 1_555
C80_3 H55_3 1_555 1_555
C81_3 O14_3 1_555 1_555
C82_3 C83_3 1_555 1_555
C83_3 C84_3 1_555 1_555
H56_3 C100_3 1_555 1_555
C84_3 N21_4 1_555 1_555
H57_3 C102_3 1_555 1_555
N21_4 C105_3 1_555 1_555
C85_3 H58_3 1_555 1_555
C86_3 C85_3 1_555 1_555
H59_3 C86_3 1_555 1_555
C87_3 C88_3 1_555 1_555
C88_3 H60_3 1_555 1_555
C89_3 C88_3 1_555 1_555
H61_3 C89_3 1_555 1_555
N20_3 C89_3 1_555 1_555
C90_3 N20_3 1_555 1_555
H62_3 C90_3 1_555 1_555
C91_3 C87_3 1_555 1_555
H63_3 C91_3 1_555 1_555
Ag14_3 N20_3 1_555 1_555
Ag15_3 N21_7 1_555 1_555
Ag17_3 N26_3 1_555 1_555
O15_3 Al3_3 1_555 1_555
O16_3 Al3_3 1_555 1_555
C92_3 C80_3 1_555 1_555
C93_3 O16_3 1_555 1_555
O17_3 Al3_3 1_555 1_555
O18_3 Al3_3 1_555 1_555
C94_3 C93_3 1_555 1_555
C95_3 C79_3 1_555 1_555
H64_3 C94_3 1_555 1_555
H65_3 C95_3 1_555 1_555
C96_3 O17_3 1_555 1_555
C97_3 C87_3 1_555 1_555
C98_3 C86_3 1_555 1_555
C99_3 C92_3 1_555 1_555
C100_3 C98_3 1_555 1_555
C101_3 C99_3 1_555 1_555
H66_3 C101_3 1_555 1_555
H67_3 C83_3 1_555 1_555
C102_3 C100_3 1_555 1_555
C103_3 C101_3 1_555 1_555
H68_3 C103_3 1_555 1_555
H69_3 C84_3 1_555 1_555
N21_5 C85_3 1_555 1_555
N21_6 C103_3 1_555 1_555
C104_3 N21_6 1_555 1_555
C105_3 H71_3 1_555 1_555
H70_3 C104_3 1_555 1_555
C106_3 C99_3 1_555 1_555
C107_3 C82_3 1_555 1_555
H72_3 C106_3 1_555 1_555
H73_3 C107_3 1_555 1_555
C108_3 C96_3 1_555 1_555
C109_3 C81_3 1_555 1_555
C110_3 C108_3 1_555 1_555
C111_3 C109_3 1_555 1_555
H74_3 C110_3 1_555 1_555
H75_3 C111_3 1_555 1_555
C112_3 C110_3 1_555 1_555
C113_3 C111_3 1_555 1_555
H76_3 C112_3 1_555 1_555
H77_3 C113_3 1_555 1_555
N25_3 Ag15_3 1_555 1_555
N26_3 C113_3 1_555 1_555
C114_3 N25_3 1_555 1_555
C115_3 N26_3 1_555 1_555
H78_3 C114_3 1_555 1_555
H79_3 C115_3 1_555 1_555
C116_3 C108_3 1_555 1_555
C117_3 C109_3 1_555 1_555
H80_3 C116_3 1_555 1_555
H81_3 C117_3 1_555 1_555
C80_3 C81_3 1_555 1_555
C90_3 C91_3 1_555 1_555
O15_3 C92_3 1_555 1_555
C93_3 C98_3 1_555 1_555
O18_3 C97_3 1_555 1_555
C94_3 C96_3 1_555 1_555
C95_3 C97_3 1_555 1_555
C102_3 N21_5 1_555 1_555
C104_3 C106_3 1_555 1_555
C105_3 C107_3 1_555 1_555
C112_3 N25_3 1_555 1_555
C114_3 C116_3 1_555 1_555
C115_3 C117_3 1_555 1_555
Ag14_3 N21_8 1_555 1_555
Ag17_3 N21_9 1_555 1_555
Al3_4 O13_4 1_555 1_555
O13_4 C79_4 1_555 1_555
C79_4 C82_4 1_555 1_555
O14_4 Al3_4 1_555 1_555
C80_4 H55_4 1_555 1_555
C81_4 O14_4 1_555 1_555
C82_4 C83_4 1_555 1_555
C83_4 C84_4 1_555 1_555
H56_4 C100_4 1_555 1_555
C84_4 N21 1_555 1_555
H57_4 C102_4 1_555 1_555
N21 C105_4 1_555 1_555
C85_4 H58_4 1_555 1_555
C86_4 C85_4 1_555 1_555
H59_4 C86_4 1_555 1_555
C87_4 C88_4 1_555 1_555
C88_4 H60_4 1_555 1_555
C89_4 C88_4 1_555 1_555
H61_4 C89_4 1_555 1_555
N20_4 C89_4 1_555 1_555
C90_4 N20_4 1_555 1_555
H62_4 C90_4 1_555 1_555
C91_4 C87_4 1_555 1_555
H63_4 C91_4 1_555 1_555
Ag14_4 N20_4 1_555 1_555
Ag15_4 N21_10 1_555 1_555
Ag17_4 N26_4 1_555 1_555
O15_4 Al3_4 1_555 1_555
O16_4 Al3_4 1_555 1_555
C92_4 C80_4 1_555 1_555
C93_4 O16_4 1_555 1_555
O17_4 Al3_4 1_555 1_555
O18_4 Al3_4 1_555 1_555
C94_4 C93_4 1_555 1_555
C95_4 C79_4 1_555 1_555
H64_4 C94_4 1_555 1_555
H65_4 C95_4 1_555 1_555
C96_4 O17_4 1_555 1_555
C97_4 C87_4 1_555 1_555
C98_4 C86_4 1_555 1_555
C99_4 C92_4 1_555 1_555
C100_4 C98_4 1_555 1_555
C101_4 C99_4 1_555 1_555
H66_4 C101_4 1_555 1_555
H67_4 C83_4 1_555 1_555
C102_4 C100_4 1_555 1_555
C103_4 C101_4 1_555 1_555
H68_4 C103_4 1_555 1_555
H69_4 C84_4 1_555 1_555
N21_2 C85_4 1_555 1_555
N21_3 C103_4 1_555 1_555
C104_4 N21_3 1_555 1_555
C105_4 H71_4 1_555 1_555
H70_4 C104_4 1_555 1_555
C106_4 C99_4 1_555 1_555
C107_4 C82_4 1_555 1_555
H72_4 C106_4 1_555 1_555
H73_4 C107_4 1_555 1_555
C108_4 C96_4 1_555 1_555
C109_4 C81_4 1_555 1_555
C110_4 C108_4 1_555 1_555
C111_4 C109_4 1_555 1_555
H74_4 C110_4 1_555 1_555
H75_4 C111_4 1_555 1_555
C112_4 C110_4 1_555 1_555
C113_4 C111_4 1_555 1_555
H76_4 C112_4 1_555 1_555
H77_4 C113_4 1_555 1_555
N25_4 Ag15_4 1_555 1_555
N26_4 C113_4 1_555 1_555
C114_4 N25_4 1_555 1_555
C115_4 N26_4 1_555 1_555
H78_4 C114_4 1_555 1_555
H79_4 C115_4 1_555 1_555
C116_4 C108_4 1_555 1_555
C117_4 C109_4 1_555 1_555
H80_4 C116_4 1_555 1_555
H81_4 C117_4 1_555 1_555
C80_4 C81_4 1_555 1_555
C90_4 C91_4 1_555 1_555
O15_4 C92_4 1_555 1_555
C93_4 C98_4 1_555 1_555
O18_4 C97_4 1_555 1_555
C94_4 C96_4 1_555 1_555
C95_4 C97_4 1_555 1_555
C102_4 N21_2 1_555 1_555
C104_4 C106_4 1_555 1_555
C105_4 C107_4 1_555 1_555
C112_4 N25_4 1_555 1_555
C114_4 C116_4 1_555 1_555
C115_4 C117_4 1_555 1_555
Ag14_4 N21_11 1_555 1_555
Ag17_4 N21_12 1_555 1_555
C80_5 H55_5 1_555 1_555
C81_5 O14_5 1_555 1_555
H56_5 C100_5 1_555 1_555
H57_5 C102_5 1_555 1_555
C85_5 H58_5 1_555 1_555
C86_5 C85_5 1_555 1_555
H59_5 C86_5 1_555 1_555
C93_5 O16_5 1_555 1_555
C98_5 C86_5 1_555 1_555
C100_5 C98_5 1_555 1_555
C102_5 C100_5 1_555 1_555
N21_11 C85_5 1_555 1_555
C109_5 C81_5 1_555 1_555
C111_5 C109_5 1_555 1_555
H75_5 C111_5 1_555 1_555
C113_5 C111_5 1_555 1_555
H77_5 C113_5 1_555 1_555
N27_3 C113_5 1_555 1_555
C115_5 N27_3 1_555 1_555
H79_5 C115_5 1_555 1_555
C117_5 C109_5 1_555 1_555
H81_5 C117_5 1_555 1_555
C80_5 C81_5 1_555 1_555
C93_5 C98_5 1_555 1_555
C102_5 N21_11 1_555 1_555
C115_5 C117_5 1_555 1_555
C99_5 C92_5 1_555 1_555
C101_5 C99_5 1_555 1_555
H66_5 C101_5 1_555 1_555
C103_5 C101_5 1_555 1_555
H68_5 C103_5 1_555 1_555
N21_12 C103_5 1_555 1_555
C104_5 N21_12 1_555 1_555
H70_5 C104_5 1_555 1_555
C106_5 C99_5 1_555 1_555
H72_5 C106_5 1_555 1_555
O15_5 C92_5 1_555 1_555
C104_5 C106_5 1_555 1_555
O17_5 Al3_5 1_555 1_555
H64_5 C94_5 1_555 1_555
C96_5 O17_5 1_555 1_555
C108_5 C96_5 1_555 1_555
C110_5 C108_5 1_555 1_555
H74_5 C110_5 1_555 1_555
C112_5 C110_5 1_555 1_555
H76_5 C112_5 1_555 1_555
C114_5 N24_2 1_555 1_555
H78_5 C114_5 1_555 1_555
C116_5 C108_5 1_555 1_555
H80_5 C116_5 1_555 1_555
C94_5 C96_5 1_555 1_555
C112_5 N24_2 1_555 1_555
C114_5 C116_5 1_555 1_555
O13_5 C79_5 1_555 1_555
C79_5 C82_5 1_555 1_555
C82_5 C83_5 1_555 1_555
C83_5 C84_5 1_555 1_555
C84_5 N21_10 1_555 1_555
N21_10 C105_5 1_555 1_555
C87_5 C88_5 1_555 1_555
C88_5 H60_5 1_555 1_555
C89_5 C88_5 1_555 1_555
H61_5 C89_5 1_555 1_555
N27_4 C89_5 1_555 1_555
C90_5 N27_4 1_555 1_555
H62_5 C90_5 1_555 1_555
C91_5 C87_5 1_555 1_555
H63_5 C91_5 1_555 1_555
C95_5 C79_5 1_555 1_555
H65_5 C95_5 1_555 1_555
C97_5 C87_5 1_555 1_555
H67_5 C83_5 1_555 1_555
H69_5 C84_5 1_555 1_555
C105_5 H71_5 1_555 1_555
C107_5 C82_5 1_555 1_555
H73_5 C107_5 1_555 1_555
C90_5 C91_5 1_555 1_555
O18_5 C97_5 1_555 1_555
C95_5 C97_5 1_555 1_555
C105_5 C107_5 1_555 1_555
O13_5 Al3_6 1_555 1_555
O18_5 Al3_6 1_555 1_555
Al3_7 O16_5 1_555 1_555
O14_5 Al3_7 1_555 1_555
H56_6 C100_6 1_555 1_555
H57_6 C102_6 1_555 1_555
C85_6 H58_6 1_555 1_555
C86_6 C85_6 1_555 1_555
H59_6 C86_6 1_555 1_555
O16_6 Al3_8 1_555 1_555
C93_6 O16_6 1_555 1_555
O17_6 Al3_8 1_555 1_555
C94_6 C93_6 1_555 1_555
H64_6 C94_6 1_555 1_555
C96_6 O17_6 1_555 1_555
C98_6 C86_6 1_555 1_555
C100_6 C98_6 1_555 1_555
C102_6 C100_6 1_555 1_555
N21_8 C85_6 1_555 1_555
C108_6 C96_6 1_555 1_555
C110_6 C108_6 1_555 1_555
H74_6 C110_6 1_555 1_555
C112_6 C110_6 1_555 1_555
H76_6 C112_6 1_555 1_555
C114_6 N24 1_555 1_555
C116_6 C108_6 1_555 1_555
H80_6 C116_6 1_555 1_555
C93_6 C98_6 1_555 1_555
C94_6 C96_6 1_555 1_555
C102_6 N21_8 1_555 1_555
C112_6 N24 1_555 1_555
C114_6 C116_6 1_555 1_555
O13_6 C79_6 1_555 1_555
C79_6 C82_6 1_555 1_555
C82_6 C83_6 1_555 1_555
C83_6 C84_6 1_555 1_555
C84_6 N21_7 1_555 1_555
N21_7 C105_6 1_555 1_555
H67_6 C83_6 1_555 1_555
H69_6 C84_6 1_555 1_555
C105_6 H71_6 1_555 1_555
C107_6 C82_6 1_555 1_555
H73_6 C107_6 1_555 1_555
C105_6 C107_6 1_555 1_555
C80_6 H55_6 1_555 1_555
C81_6 O14_6 1_555 1_555
C109_6 C81_6 1_555 1_555
C111_6 C109_6 1_555 1_555
H75_6 C111_6 1_555 1_555
C113_6 C111_6 1_555 1_555
H77_6 C113_6 1_555 1_555
N27 C113_6 1_555 1_555
C115_6 N27 1_555 1_555
C117_6 C109_6 1_555 1_555
H81_6 C117_6 1_555 1_555
C80_6 C81_6 1_555 1_555
C115_6 C117_6 1_555 1_555
C87_6 C88_6 1_555 1_555
C88_6 H60_6 1_555 1_555
C89_6 C88_6 1_555 1_555
H61_6 C89_6 1_555 1_555
N27_2 C89_6 1_555 1_555
C90_6 N27_2 1_555 1_555
C91_6 C87_6 1_555 1_555
H63_6 C91_6 1_555 1_555
H65_6 C95_6 1_555 1_555
C97_6 C87_6 1_555 1_555
C99_6 C92_6 1_555 1_555
C101_6 C99_6 1_555 1_555
H66_6 C101_6 1_555 1_555
C103_6 C101_6 1_555 1_555
H68_6 C103_6 1_555 1_555
N21_9 C103_6 1_555 1_555
C104_6 N21_9 1_555 1_555
H70_6 C104_6 1_555 1_555
C106_6 C99_6 1_555 1_555
H72_6 C106_6 1_555 1_555
C90_6 C91_6 1_555 1_555
O15_6 C92_6 1_555 1_555
O18_6 C97_6 1_555 1_555
C95_6 C97_6 1_555 1_555
C104_6 C106_6 1_555 1_555
Al3_9 O15_6 1_555 1_555
O18_6 Al3_9 1_555 1_555
O14_6 Al3_10 1_555 1_555

#END
