
###############################################################################
#
# This file contains modified crystal structure data generated from the
# MOF subset of the Cambridge Structural Database (CSD) v543 
# hosted by the Cambridge Crystallographic Data Centre (CCDC).
#
# This work is licensed under the Creative Commons
# Attribution-NonCommercial-ShareAlike 4.0 International License.
# To view a copy of this license, visit
# http://creativecommons.org/licenses/by-nc-sa/4.0/
# or send a letter to
# Creative Commons, PO Box 1866, Mountain View, CA 94042, USA.
#
# CIF created using the CSD Python API on 29 September 2022
# The structure has been converted into the P1 space group
# The structure has a 3D framework
# The original CSD entry YUXLIN is in the rhombohedral crystal system
# The framework has been calculated to contain at least 10.0% void space
# The void calculation uses a probe of radius 1.32A, grid spacing 0.4
# The framework is charged, counterions have been retained in the structure
#
###############################################################################

data_YUXLIN
_chemical_formula_moiety         '(C702 H486 Ag20 Ga36 N106 O108 20+)n'
_symmetry_cell_setting           triclinic
_symmetry_space_group_name_H-M   'P 1'
_symmetry_Int_Tables_number      1
_space_group_name_Hall           'P 1'
loop_
_symmetry_equiv_pos_site_id
_symmetry_equiv_pos_as_xyz
1 x,y,z
_cell_length_a                   22.9930(6)
_cell_length_b                   22.9930(6)
_cell_length_c                   71.297(2)
_cell_angle_alpha                90
_cell_angle_beta                 90
_cell_angle_gamma                120
_cell_volume                     32643.2
loop_
_atom_site_label
_atom_site_type_symbol
_atom_site_fract_x
_atom_site_fract_y
_atom_site_fract_z
Ag4 Ag 0.46321(12) 0.00155(8) 0.40412(2)
H12 H 0.5116 0.0107 0.3623
Ga1 Ga 0.3333 0.6667 0.32136(2)
O1 O 0.2557(4) 0.6227(3) 0.33772(9)
O2 O 0.3031(4) 0.5886(4) 0.30482(9)
C1 C 0.1964(6) 0.6162(8) 0.33451(17)
C2 C 0.3569(6) 0.5344(6) 0.32047(14)
H1 H 0.3639 0.4971 0.3200
C3 C 0.3189(6) 0.5433(5) 0.30674(15)
N1 N 0.0628(3) 0.5160(5) 0.38092(9)
C4 C 0.0364(3) 0.5195(5) 0.36369(10)
C5 C 0.0789(4) 0.5502(5) 0.34853(8)
H3 H 0.0608 0.5526 0.3368
C6 C 0.1478(3) 0.5775(5) 0.35060(8)
C7 C 0.3997(3) 0.8258(5) 0.36783(10)
H4 H 0.3712 0.7787 0.3693
C8 C 0.4115(4) 0.8683(5) 0.38299(8)
H5 H 0.3911 0.8503 0.3948
N2 N 0.1653(4) 0.7682(5) 0.26203(10)
C9 C 0.1258(4) 0.7441(6) 0.27805(11)
H6 H 0.0862 0.7472 0.2792
C10 C 0.1442(4) 0.7156(5) 0.29238(10)
H7 H 0.1172 0.6991 0.3034
C11 C 0.2020(4) 0.7111(5) 0.29071(10)
C12 C 0.2415(4) 0.7351(5) 0.27469(12)
H8 H 0.2810 0.7321 0.2736
C13 C 0.2231(4) 0.7637(5) 0.26035(9)
H9 H 0.2501 0.7801 0.2494
Ag2 Ag 0.12988(12) 0.79499(9) 0.23745(2)
Ag3 Ag 0.66512(8) 0.87012(12) 0.23745(2)
Ag5 Ag 0.20501(9) 0.33488(8) 0.23745(2)
Ag6 Ag 0.53834(9) 0.53679(12) 0.40412(2)
O3 O 0.3773(3) 0.6330(5) 0.33772(9)
O4 O 0.3670(5) 0.7443(4) 0.33772(9)
O5 O 0.4114(4) 0.7145(6) 0.30482(9)
O6 O 0.2855(6) 0.6969(4) 0.30482(9)
C14 C 0.3838(8) 0.5802(10) 0.33451(17)
C15 C 0.4198(10) 0.8036(6) 0.33451(17)
C16 C 0.4656(6) 0.8225(8) 0.32047(14)
C17 C 0.1775(8) 0.6431(6) 0.32047(14)
H10 H 0.5029 0.8668 0.3200
H11 H 0.1332 0.6361 0.3200
C18 C 0.4567(5) 0.7756(8) 0.30674(15)
C19 C 0.2244(8) 0.6811(6) 0.30674(15)
N3 N 0.7295(3) 0.8801(6) 0.21425(9)
N4 N 0.4532(6) 0.9372(3) 0.38092(9)
N5 N 0.4840(5) 0.5468(6) 0.38092(9)
C20 C 0.4831(6) 0.9636(3) 0.36369(10)
C21 C 0.4805(5) 0.5169(6) 0.36369(10)
H13 H 0.4991 0.4884 0.3623
C22 C 0.4713(6) 0.9211(4) 0.34853(8)
C23 C 0.4498(5) 0.5287(6) 0.34853(8)
H14 H 0.4918 0.9392 0.3368
H15 H 0.4474 0.5082 0.3368
C24 C 0.4297(6) 0.8522(3) 0.35060(8)
C25 C 0.4225(5) 0.5703(6) 0.35060(8)
C26 C 0.4261(6) 0.6003(3) 0.36783(10)
C27 C 0.1742(5) 0.5739(6) 0.36783(10)
H16 H 0.4075 0.6288 0.3693
H17 H 0.2213 0.5925 0.3693
C28 C 0.4568(6) 0.5885(4) 0.38299(8)
C29 C 0.1317(5) 0.5432(6) 0.38299(8)
H18 H 0.4592 0.6089 0.3948
H19 H 0.1497 0.5408 0.3948
N7 N 0.6029(6) 0.8347(4) 0.26203(10)
N8 N 0.2318(5) 0.3971(6) 0.26203(10)
N9 N 0.5651(5) 0.5014(4) 0.42870(10)
C30 C 0.6183(7) 0.8742(4) 0.27805(11)
C31 C 0.2559(6) 0.3817(7) 0.27805(11)
H20 H 0.6610 0.9138 0.2792
H21 H 0.2528 0.3390 0.2792
C32 C 0.5714(6) 0.8558(4) 0.29238(10)
C33 C 0.2844(5) 0.4286(6) 0.29238(10)
H22 H 0.5819 0.8828 0.3034
H23 H 0.3009 0.4181 0.3034
C34 C 0.5091(6) 0.7980(4) 0.29071(10)
C35 C 0.2889(5) 0.4909(6) 0.29071(10)
C36 C 0.4936(6) 0.7585(4) 0.27469(12)
C37 C 0.2649(5) 0.5064(6) 0.27469(12)
H24 H 0.4511 0.7190 0.2736
H25 H 0.2679 0.5489 0.2736
C38 C 0.5406(6) 0.7769(4) 0.26035(9)
C39 C 0.2363(5) 0.4594(6) 0.26035(9)
H26 H 0.5300 0.7499 0.2494
H27 H 0.2199 0.4700 0.2494
Ag1 Ag 0.99845(8) 0.46166(9) 0.40412(2)
H2 H 0.9893 0.5009 0.3623
N6 N 0.9362(6) 0.4349(5) 0.42870(10)
N9_2 N 0.4986(4) 0.0638(6) 0.42870(10)
N3_2 N 0.1199(6) 0.8493(7) 0.21425(9)
N3_3 N 0.1507(7) 0.2705(3) 0.21425(9)
Ag4_2 Ag 0.53834(14) 0.00155(8) 0.90412(2)
H12_2 H 0.4991 0.0107 0.8623
Ag1_2 Ag 0.46321(12) 0.46166(9) 0.90412(2)
Ga1_2 Ga 0.3334 0.6667 0.82136(2)
O1_2 O 0.3670(5) 0.6227(3) 0.83772(9)
O2_2 O 0.2855(6) 0.5886(4) 0.80482(9)
C1_2 C 0.4198(10) 0.6162(8) 0.83451(17)
C2_2 C 0.1775(8) 0.5344(6) 0.82047(14)
H1_2 H 0.1332 0.4971 0.8200
C3_2 C 0.2244(8) 0.5433(5) 0.80674(15)
N1_2 N 0.4532(6) 0.5160(5) 0.88092(9)
C4_2 C 0.4831(6) 0.5195(5) 0.86369(10)
H2_2 H 0.5116 0.5009 0.8623
C5_2 C 0.4713(6) 0.5502(5) 0.84853(8)
H3_2 H 0.4918 0.5526 0.8368
C6_2 C 0.4297(6) 0.5775(5) 0.85060(8)
C7_2 C 0.4261(6) 0.8258(5) 0.86783(10)
H4_2 H 0.4075 0.7787 0.8693
C8_2 C 0.4568(6) 0.8683(5) 0.88299(8)
H5_2 H 0.4592 0.8503 0.8948
N2_2 N 0.6029(6) 0.7682(5) 0.76203(10)
C9_2 C 0.6183(7) 0.7441(6) 0.77805(11)
H6_2 H 0.6610 0.7472 0.7792
C10_2 C 0.5714(6) 0.7156(5) 0.79238(10)
H7_2 H 0.5819 0.6991 0.8034
C11_2 C 0.5091(6) 0.7111(5) 0.79071(10)
C12_2 C 0.4936(6) 0.7351(5) 0.77469(12)
H8_2 H 0.4511 0.7321 0.7736
C13_2 C 0.5406(6) 0.7637(5) 0.76035(9)
H9_2 H 0.5300 0.7801 0.7494
Ag2_2 Ag 0.66512(15) 0.79499(9) 0.73745(2)
Ag3_2 Ag 0.20501(14) 0.87012(12) 0.73745(2)
Ag5_2 Ag 0.12988(12) 0.33488(8) 0.73745(2)
O3_2 O 0.2557(6) 0.6330(5) 0.83772(9)
O4_2 O 0.3773(6) 0.7443(4) 0.83772(9)
O5_2 O 0.3031(7) 0.7145(6) 0.80482(9)
O6_2 O 0.4114(7) 0.6969(4) 0.80482(9)
C14_2 C 0.1964(13) 0.5802(10) 0.83451(17)
C15_2 C 0.3838(12) 0.8036(6) 0.83451(17)
C16_2 C 0.3569(10) 0.8225(8) 0.82047(14)
C17_2 C 0.4656(10) 0.6431(6) 0.82047(14)
H10_2 H 0.3639 0.8668 0.8200
H11_2 H 0.5029 0.6361 0.8200
C18_2 C 0.3189(9) 0.7756(8) 0.80674(15)
C19_2 C 0.4567(10) 0.6811(6) 0.80674(15)
N3_4 N 0.1507(7) 0.8801(6) 0.71425(9)
N4_2 N 0.4840(7) 0.9372(3) 0.88092(9)
N5_2 N 0.0628(8) 0.5468(6) 0.88092(9)
C20_2 C 0.4805(7) 0.9636(3) 0.86369(10)
C21_2 C 0.0364(8) 0.5169(6) 0.86369(10)
C22_2 C 0.4498(7) 0.9211(4) 0.84853(8)
C23_2 C 0.0789(8) 0.5287(6) 0.84853(8)
H14_2 H 0.4474 0.9392 0.8368
H15_2 H 0.0608 0.5082 0.8368
C24_2 C 0.4225(7) 0.8522(3) 0.85060(8)
C25_2 C 0.1478(8) 0.5703(6) 0.85060(8)
C26_2 C 0.1742(7) 0.6003(3) 0.86783(10)
C27_2 C 0.3997(8) 0.5739(6) 0.86783(10)
H16_2 H 0.2213 0.6288 0.8693
H17_2 H 0.3712 0.5925 0.8693
C28_2 C 0.1317(7) 0.5885(4) 0.88299(8)
C29_2 C 0.4115(8) 0.5432(6) 0.88299(8)
H18_2 H 0.1497 0.6089 0.8948
H19_2 H 0.3911 0.5408 0.8948
N6_2 N 0.4986(8) 0.4349(5) 0.92870(10)
N7_2 N 0.2318(7) 0.8347(4) 0.76203(10)
N8_2 N 0.1653(8) 0.3971(6) 0.76203(10)
C30_2 C 0.2559(8) 0.8742(4) 0.77805(11)
C31_2 C 0.1258(9) 0.3817(7) 0.77805(11)
H20_2 H 0.2528 0.9138 0.7792
H21_2 H 0.0862 0.3390 0.7792
C32_2 C 0.2844(7) 0.8558(4) 0.79238(10)
C33_2 C 0.1442(8) 0.4286(6) 0.79238(10)
H22_2 H 0.3009 0.8828 0.8034
H23_2 H 0.1172 0.4181 0.8034
C34_2 C 0.2889(7) 0.7980(4) 0.79071(10)
C35_2 C 0.2020(8) 0.4909(6) 0.79071(10)
C36_2 C 0.2649(7) 0.7585(4) 0.77469(12)
C37_2 C 0.2415(8) 0.5064(6) 0.77469(12)
H24_2 H 0.2679 0.7190 0.7736
H25_2 H 0.2810 0.5489 0.7736
C38_2 C 0.2363(7) 0.7769(4) 0.76035(9)
C39_2 C 0.2231(8) 0.4594(6) 0.76035(9)
H26_2 H 0.2199 0.7499 0.7494
H27_2 H 0.2501 0.4700 0.7494
Ag6_2 Ag 0.99845(15) 0.53679(12) 0.90412(2)
H13_2 H 0.9893 0.4884 0.8623
N9_3 N 0.9362(6) 0.5014(4) 0.92870(10)
N9_4 N 0.5651(5) 0.0638(6) 0.92870(10)
N3_5 N 0.7295(3) 0.8493(7) 0.71425(9)
N3_6 N 0.1199(6) 0.2705(3) 0.71425(9)
Ga1_3 Ga -0.0000 0.0000 0.65469(2)
C7_3 C 0.0664(3) 0.1591(5) 0.70116(10)
H4_3 H 0.0379 0.1120 0.7026
C8_3 C 0.0782(4) 0.2016(5) 0.71632(8)
H5_3 H 0.0578 0.1836 0.7281
Ag3_3 Ag 0.33178(8) 0.20346(12) 0.57079(2)
O4_3 O 0.0337(5) 0.0776(4) 0.67105(9)
O5_3 O 0.0781(4) 0.0478(6) 0.63815(9)
C15_3 C 0.0865(10) 0.1369(6) 0.66784(17)
C16_3 C 0.1323(6) 0.1558(8) 0.65380(14)
H10_3 H 0.1696 0.2001 0.6533
C18_3 C 0.1234(5) 0.1089(8) 0.64007(15)
N3_7 N 0.3961(3) 0.2135(6) 0.54759(9)
C20_3 C 0.1498(6) 0.2969(3) 0.69702(10)
H12_3 H 0.1783 0.3440 0.6956
C22_3 C 0.1380(6) 0.2544(4) 0.68186(8)
H14_3 H 0.1585 0.2725 0.6701
C24_3 C 0.0964(6) 0.1855(3) 0.68393(8)
N7_3 N 0.2696(6) 0.1680(4) 0.59536(10)
C30_3 C 0.2850(7) 0.2075(4) 0.61138(11)
H20_3 H 0.3277 0.2471 0.6125
C32_3 C 0.2381(6) 0.1891(4) 0.62571(10)
H22_3 H 0.2486 0.2161 0.6367
C34_3 C 0.1758(6) 0.1313(4) 0.62404(10)
C36_3 C 0.1603(6) 0.0918(4) 0.60802(12)
H24_3 H 0.1178 0.0523 0.6069
C38_3 C 0.2073(6) 0.1102(4) 0.59368(9)
H26_3 H 0.1967 0.0832 0.5827
Ga1_4 Ga -0.0000 1.0000 0.65469(2)
C2_3 C 0.0236(6) 0.8677(6) 0.65380(14)
H1_3 H 0.0306 0.8304 0.6533
O3_3 O 0.0440(3) 0.9663(5) 0.67105(9)
C14_3 C 0.0505(8) 0.9135(10) 0.66784(17)
C21_3 C 0.1472(5) 0.8502(6) 0.69702(10)
H13_3 H 0.1658 0.8217 0.6956
C23_3 C 0.1165(5) 0.8620(6) 0.68186(8)
H15_3 H 0.1141 0.8415 0.6701
C25_3 C 0.0892(5) 0.9036(6) 0.68393(8)
C26_3 C 0.0928(6) 0.9336(3) 0.70116(10)
H16_3 H 0.0742 0.9621 0.7026
C28_3 C 0.1235(6) 0.9218(4) 0.71632(8)
H18_3 H 0.1259 0.9422 0.7281
Ga1_5 Ga 1.0000 0.0000 0.65469(2)
N2_3 N 0.8320(4) 0.1015(5) 0.59536(10)
C9_3 C 0.7925(4) 0.0774(6) 0.61138(11)
H6_3 H 0.7529 0.0805 0.6125
C10_3 C 0.8109(4) 0.0489(5) 0.62571(10)
H7_3 H 0.7839 0.0324 0.6367
C11_3 C 0.8687(4) 0.0444(5) 0.62404(10)
C12_3 C 0.9082(4) 0.0684(5) 0.60802(12)
H8_3 H 0.9477 0.0654 0.6069
C13_3 C 0.8898(4) 0.0970(5) 0.59368(9)
H9_3 H 0.9168 0.1134 0.5827
Ag2_3 Ag 0.79654(12) 0.12833(9) 0.57079(2)
O6_3 O 0.9522(6) 0.0302(4) 0.63815(9)
C19_3 C 0.8911(8) 0.0144(6) 0.64007(15)
Ga1_6 Ga 1.0000 1.0000 0.65469(2)
O1_3 O 0.9224(4) 0.9560(3) 0.67105(9)
O2_3 O 0.9698(4) 0.9219(4) 0.63815(9)
C1_3 C 0.8631(6) 0.9495(8) 0.66784(17)
C3_3 C 0.9856(6) 0.8766(5) 0.64007(15)
C4_3 C 0.7031(3) 0.8528(5) 0.69702(10)
H2_3 H 0.6560 0.8342 0.6956
C5_3 C 0.7456(4) 0.8835(5) 0.68186(8)
H3_3 H 0.7275 0.8859 0.6701
C6_3 C 0.8145(3) 0.9108(5) 0.68393(8)
Ag5_3 Ag 0.87167(9) 0.66822(8) 0.57079(2)
C17_3 C 0.8442(8) 0.9764(6) 0.65380(14)
H11_3 H 0.7999 0.9694 0.6533
C27_3 C 0.8409(5) 0.9072(6) 0.70116(10)
H17_3 H 0.8880 0.9258 0.7026
C29_3 C 0.7984(5) 0.8765(6) 0.71632(8)
H19_3 H 0.8164 0.8741 0.7281
N8_3 N 0.8985(5) 0.7304(6) 0.59536(10)
C31_3 C 0.9226(6) 0.7150(7) 0.61138(11)
H21_3 H 0.9195 0.6723 0.6125
C33_3 C 0.9511(5) 0.7619(6) 0.62571(10)
H23_3 H 0.9676 0.7514 0.6367
C35_3 C 0.9556(5) 0.8242(6) 0.62404(10)
C37_3 C 0.9316(5) 0.8397(6) 0.60802(12)
H25_3 H 0.9346 0.8822 0.6069
C39_3 C 0.9030(5) 0.7927(6) 0.59368(9)
H27_3 H 0.8866 0.8033 0.5827
N3_8 N 0.7865(6) 0.1827(7) 0.54759(9)
N3_9 N 0.8173(7) 0.6039(3) 0.54759(9)
Ga1_7 Ga 0.0001 0.0000 0.15469(2)
C7_4 C 0.0928(6) 0.1591(5) 0.20116(10)
H4_4 H 0.0742 0.1120 0.2026
C8_4 C 0.1235(6) 0.2016(5) 0.21632(8)
H5_4 H 0.1259 0.1836 0.2281
N2_4 N 0.2696(6) 0.1015(5) 0.09536(10)
C9_4 C 0.2850(7) 0.0774(6) 0.11138(11)
H6_4 H 0.3277 0.0805 0.1125
C10_4 C 0.2381(6) 0.0489(5) 0.12571(10)
H7_4 H 0.2486 0.0324 0.1367
C11_4 C 0.1758(6) 0.0444(5) 0.12404(10)
C12_4 C 0.1603(6) 0.0684(5) 0.10802(12)
H8_4 H 0.1178 0.0654 0.1069
C13_4 C 0.2073(6) 0.0970(5) 0.09368(9)
H9_4 H 0.1967 0.1134 0.0827
Ag2_4 Ag 0.33178(15) 0.12833(9) 0.07079(2)
O4_4 O 0.0440(6) 0.0776(4) 0.17105(9)
O6_4 O 0.0781(7) 0.0302(4) 0.13815(9)
C15_4 C 0.0505(12) 0.1369(6) 0.16784(17)
C16_4 C 0.0236(10) 0.1558(8) 0.15380(14)
H10_4 H 0.0306 0.2001 0.1533
C19_4 C 0.1234(10) 0.0144(6) 0.14007(15)
C20_4 C 0.1472(7) 0.2969(3) 0.19702(10)
H12_4 H 0.1658 0.3440 0.1956
C22_4 C 0.1165(7) 0.2544(4) 0.18186(8)
H14_4 H 0.1141 0.2725 0.1701
C24_4 C 0.0892(7) 0.1855(3) 0.18393(8)
Ga1_8 Ga 0.0001 1.0000 0.15469(2)
O1_4 O 0.0337(5) 0.9560(3) 0.17105(9)
C1_4 C 0.0865(10) 0.9495(8) 0.16784(17)
C4_4 C 0.1498(6) 0.8528(5) 0.19702(10)
H2_4 H 0.1783 0.8342 0.1956
C5_4 C 0.1380(6) 0.8835(5) 0.18186(8)
H3_4 H 0.1585 0.8859 0.1701
C6_4 C 0.0964(6) 0.9108(5) 0.18393(8)
C17_4 C 0.1323(10) 0.9764(6) 0.15380(14)
H11_4 H 0.1696 0.9694 0.1533
C27_4 C 0.0664(8) 0.9072(6) 0.20116(10)
H17_4 H 0.0379 0.9258 0.2026
C29_4 C 0.0782(8) 0.8765(6) 0.21632(8)
H19_4 H 0.0578 0.8741 0.2281
Ag3_4 Ag 0.87167(14) 0.20346(12) 0.07079(2)
O5_4 O 0.9698(7) 0.0478(6) 0.13815(9)
C18_4 C 0.9856(9) 0.1089(8) 0.14007(15)
N3_10 N 0.8173(7) 0.2135(6) 0.04759(9)
N7_4 N 0.8985(7) 0.1680(4) 0.09536(10)
C30_4 C 0.9226(8) 0.2075(4) 0.11138(11)
H20_4 H 0.9195 0.2471 0.1125
C32_4 C 0.9511(7) 0.1891(4) 0.12571(10)
H22_4 H 0.9676 0.2161 0.1367
C34_4 C 0.9556(7) 0.1313(4) 0.12404(10)
C36_4 C 0.9316(7) 0.0918(4) 0.10802(12)
H24_4 H 0.9346 0.0523 0.1069
C38_4 C 0.9030(7) 0.1102(4) 0.09368(9)
H26_4 H 0.8866 0.0832 0.0827
O2_4 O 0.9522(6) 0.9219(4) 0.13815(9)
C2_4 C 0.8442(8) 0.8677(6) 0.15380(14)
H1_4 H 0.7999 0.8304 0.1533
C3_4 C 0.8911(8) 0.8766(5) 0.14007(15)
Ag5_4 Ag 0.79654(12) 0.66822(8) 0.07079(2)
O3_4 O 0.9224(6) 0.9663(5) 0.17105(9)
C14_4 C 0.8631(13) 0.9135(10) 0.16784(17)
C21_4 C 0.7031(8) 0.8502(6) 0.19702(10)
H13_4 H 0.6560 0.8217 0.1956
C23_4 C 0.7456(8) 0.8620(6) 0.18186(8)
H15_4 H 0.7275 0.8415 0.1701
C25_4 C 0.8145(8) 0.9036(6) 0.18393(8)
C26_4 C 0.8409(7) 0.9336(3) 0.20116(10)
H16_4 H 0.8880 0.9621 0.2026
C28_4 C 0.7984(7) 0.9218(4) 0.21632(8)
H18_4 H 0.8164 0.9422 0.2281
N8_4 N 0.8320(8) 0.7304(6) 0.09536(10)
C31_4 C 0.7925(9) 0.7150(7) 0.11138(11)
H21_4 H 0.7529 0.6723 0.1125
C33_4 C 0.8109(8) 0.7619(6) 0.12571(10)
H23_4 H 0.7839 0.7514 0.1367
C35_4 C 0.8687(8) 0.8242(6) 0.12404(10)
C37_4 C 0.9082(8) 0.8397(6) 0.10802(12)
H25_4 H 0.9477 0.8822 0.1069
C39_4 C 0.8898(8) 0.7927(6) 0.09368(9)
H27_4 H 0.9168 0.8033 0.0827
N3_11 N 0.3961(3) 0.1827(7) 0.04759(9)
Ga1_9 Ga 1.0000 0.9999 0.15469(2)
Ga1_10 Ga 1.0000 0.0000 0.15469(2)
N3_12 N 0.7865(6) 0.6039(3) 0.04759(9)
O1_5 O 0.5890(4) 0.2894(3) 0.00439(9)
C1_5 C 0.5297(6) 0.2829(8) 0.00118(17)
C4_5 C 0.3697(3) 0.1862(5) 0.03036(10)
H2_5 H 0.3226 0.1676 0.0290
C5_5 C 0.4122(4) 0.2169(5) 0.01520(8)
H3_5 H 0.3941 0.2193 0.0035
C6_5 C 0.4811(3) 0.2442(5) 0.01727(8)
C7_5 C 0.7330(3) 0.4925(5) 0.03450(10)
H4_5 H 0.7045 0.4454 0.0360
C8_5 C 0.7448(4) 0.5350(5) 0.04966(8)
H5_5 H 0.7244 0.5170 0.0615
O3_5 O 0.7106(3) 0.2997(5) 0.00439(9)
O4_5 O 0.7003(5) 0.4110(4) 0.00439(9)
C14_5 C 0.7171(8) 0.2469(10) 0.00118(17)
C15_5 C 0.7531(10) 0.4703(6) 0.00118(17)
C20_5 C 0.8164(6) 0.6303(3) 0.03036(10)
C21_5 C 0.8138(5) 0.1836(6) 0.03036(10)
H12_5 H 0.8449 0.6774 0.0290
H13_5 H 0.8324 0.1551 0.0290
C22_5 C 0.8046(6) 0.5878(4) 0.01520(8)
C23_5 C 0.7831(5) 0.1954(6) 0.01520(8)
H14_5 H 0.8251 0.6059 0.0035
H15_5 H 0.7807 0.1749 0.0035
C24_5 C 0.7630(6) 0.5189(3) 0.01727(8)
C25_5 C 0.7558(5) 0.2370(6) 0.01727(8)
C26_5 C 0.7594(6) 0.2670(3) 0.03450(10)
C27_5 C 0.5075(5) 0.2406(6) 0.03450(10)
H16_5 H 0.7408 0.2955 0.0360
H17_5 H 0.5546 0.2592 0.0360
C28_5 C 0.7901(6) 0.2552(4) 0.04966(8)
C29_5 C 0.4650(5) 0.2099(6) 0.04966(8)
H18_5 H 0.7925 0.2756 0.0615
H19_5 H 0.4830 0.2075 0.0615
Ga1_11 Ga 0.6666 0.3334 0.98803(2)
O2_5 O 0.6364(4) 0.2553(4) 0.97149(9)
C2_5 C 0.6902(6) 0.2011(6) 0.98714(14)
H1_5 H 0.6972 0.1638 0.9867
C3_5 C 0.6522(6) 0.2100(5) 0.97341(15)
C9_5 C 0.4591(4) 0.4108(6) 0.94472(11)
H6_5 H 0.4195 0.4139 0.9459
C10_5 C 0.4775(4) 0.3823(5) 0.95905(10)
H7_5 H 0.4505 0.3658 0.9701
C11_5 C 0.5353(4) 0.3778(5) 0.95738(10)
C12_5 C 0.5748(4) 0.4018(5) 0.94136(12)
H8_5 H 0.6143 0.3988 0.9403
C13_5 C 0.5564(4) 0.4304(5) 0.92702(9)
H9_5 H 0.5834 0.4468 0.9161
O5_5 O 0.7447(4) 0.3812(6) 0.97149(9)
O6_5 O 0.6188(6) 0.3636(4) 0.97149(9)
C16_5 C 0.7989(6) 0.4892(8) 0.98714(14)
C17_5 C 0.5108(8) 0.3098(6) 0.98714(14)
H10_5 H 0.8362 0.5335 0.9867
H11_5 H 0.4665 0.3028 0.9867
C18_5 C 0.7900(5) 0.4423(8) 0.97341(15)
C19_5 C 0.5577(8) 0.3478(6) 0.97341(15)
C30_5 C 0.9516(7) 0.5409(4) 0.94472(11)
C31_5 C 0.5892(6) 0.0484(7) 0.94472(11)
H20_5 H 0.9943 0.5805 0.9459
H21_5 H 0.5861 0.0057 0.9459
C32_5 C 0.9047(6) 0.5225(4) 0.95905(10)
C33_5 C 0.6177(5) 0.0953(6) 0.95905(10)
H22_5 H 0.9152 0.5495 0.9701
H23_5 H 0.6342 0.0848 0.9701
C34_5 C 0.8424(6) 0.4647(4) 0.95738(10)
C35_5 C 0.6222(5) 0.1576(6) 0.95738(10)
C36_5 C 0.8269(6) 0.4252(4) 0.94136(12)
C37_5 C 0.5982(5) 0.1731(6) 0.94136(12)
H24_5 H 0.7844 0.3857 0.9403
H25_5 H 0.6012 0.2156 0.9403
C38_5 C 0.8739(6) 0.4436(4) 0.92702(9)
C39_5 C 0.5696(5) 0.1261(6) 0.92702(9)
H26_5 H 0.8633 0.4166 0.9161
H27_5 H 0.5532 0.1367 0.9161
Ga1_12 Ga 0.6667 0.3334 0.48803(2)
O1_6 O 0.7003(5) 0.2894(3) 0.50439(9)
O2_6 O 0.6188(6) 0.2553(4) 0.47149(9)
C1_6 C 0.7531(10) 0.2829(8) 0.50118(17)
C2_6 C 0.5108(8) 0.2011(6) 0.48714(14)
H1_6 H 0.4665 0.1638 0.4867
C3_6 C 0.5577(8) 0.2100(5) 0.47341(15)
C4_6 C 0.8164(6) 0.1862(5) 0.53036(10)
H2_6 H 0.8449 0.1676 0.5290
C5_6 C 0.8046(6) 0.2169(5) 0.51520(8)
H3_6 H 0.8251 0.2193 0.5035
C6_6 C 0.7630(6) 0.2442(5) 0.51727(8)
C7_6 C 0.7594(6) 0.4925(5) 0.53450(10)
H4_6 H 0.7408 0.4454 0.5360
C8_6 C 0.7901(6) 0.5350(5) 0.54966(8)
H5_6 H 0.7925 0.5170 0.5615
C9_6 C 0.9516(7) 0.4108(6) 0.44472(11)
H6_6 H 0.9943 0.4139 0.4459
C10_6 C 0.9047(6) 0.3823(5) 0.45905(10)
H7_6 H 0.9152 0.3658 0.4701
C11_6 C 0.8424(6) 0.3778(5) 0.45738(10)
C12_6 C 0.8269(6) 0.4018(5) 0.44136(12)
H8_6 H 0.7844 0.3988 0.4403
C13_6 C 0.8739(6) 0.4304(5) 0.42702(9)
H9_6 H 0.8633 0.4468 0.4161
O3_6 O 0.5890(6) 0.2997(5) 0.50439(9)
O4_6 O 0.7106(6) 0.4110(4) 0.50439(9)
O5_6 O 0.6364(7) 0.3812(6) 0.47149(9)
O6_6 O 0.7447(7) 0.3636(4) 0.47149(9)
C14_6 C 0.5297(13) 0.2469(10) 0.50118(17)
C15_6 C 0.7171(12) 0.4703(6) 0.50118(17)
C16_6 C 0.6902(10) 0.4892(8) 0.48714(14)
C17_6 C 0.7989(10) 0.3098(6) 0.48714(14)
H10_6 H 0.6972 0.5335 0.4867
H11_6 H 0.8362 0.3028 0.4867
C18_6 C 0.6522(9) 0.4423(8) 0.47341(15)
C19_6 C 0.7900(10) 0.3478(6) 0.47341(15)
C20_6 C 0.8138(7) 0.6303(3) 0.53036(10)
C21_6 C 0.3697(8) 0.1836(6) 0.53036(10)
H12_6 H 0.8324 0.6774 0.5290
H13_6 H 0.3226 0.1551 0.5290
C22_6 C 0.7831(7) 0.5878(4) 0.51520(8)
C23_6 C 0.4122(8) 0.1954(6) 0.51520(8)
H14_6 H 0.7807 0.6059 0.5035
H15_6 H 0.3941 0.1749 0.5035
C24_6 C 0.7558(7) 0.5189(3) 0.51727(8)
C25_6 C 0.4811(8) 0.2370(6) 0.51727(8)
C26_6 C 0.5075(7) 0.2670(3) 0.53450(10)
C27_6 C 0.7330(8) 0.2406(6) 0.53450(10)
H16_6 H 0.5546 0.2955 0.5360
H17_6 H 0.7045 0.2592 0.5360
C28_6 C 0.4650(7) 0.2552(4) 0.54966(8)
C29_6 C 0.7448(8) 0.2099(6) 0.54966(8)
H18_6 H 0.4830 0.2756 0.5615
H19_6 H 0.7244 0.2075 0.5615
C30_6 C 0.5892(8) 0.5409(4) 0.44472(11)
C31_6 C 0.4591(9) 0.0484(7) 0.44472(11)
H20_6 H 0.5861 0.5805 0.4459
H21_6 H 0.4195 0.0057 0.4459
C32_6 C 0.6177(7) 0.5225(4) 0.45905(10)
C33_6 C 0.4775(8) 0.0953(6) 0.45905(10)
H22_6 H 0.6342 0.5495 0.4701
H23_6 H 0.4505 0.0848 0.4701
C34_6 C 0.6222(7) 0.4647(4) 0.45738(10)
C35_6 C 0.5353(8) 0.1576(6) 0.45738(10)
C36_6 C 0.5982(7) 0.4252(4) 0.44136(12)
C37_6 C 0.5748(8) 0.1731(6) 0.44136(12)
H24_6 H 0.6012 0.3857 0.4403
H25_6 H 0.6143 0.2156 0.4403
C38_6 C 0.5696(7) 0.4436(4) 0.42702(9)
C39_6 C 0.5564(8) 0.1261(6) 0.42702(9)
H26_6 H 0.5532 0.4166 0.4161
H27_6 H 0.5834 0.1367 0.4161
Ag10 Ag 0.51615(13) 0.02885(9) 0.30178(2)
H39 H 0.5672 0.0132 0.2612
Ga2 Ga 0.3333 0.6667 0.22681(3)
O7 O 0.2578(4) 0.6333(4) 0.24325(10)
O8 O 0.2923(4) 0.5895(3) 0.21007(11)
C40 C 0.1942(6) 0.6265(6) 0.23656(16)
C41 C 0.3492(7) 0.5355(9) 0.22059(17)
H28 H 0.3632 0.5044 0.2172
C42 C 0.3067(5) 0.5411(6) 0.20841(15)
N10 N 0.0403(5) 0.5265(7) 0.27819(16)
C43 C 0.0291(5) 0.5568(8) 0.26281(17)
C44 C 0.0800(5) 0.5912(8) 0.24977(15)
H30 H 0.0724 0.6120 0.2393
C45 C 0.1420(5) 0.5953(7) 0.25212(14)
C46 C 0.4118(5) 0.8469(7) 0.26750(16)
H31 H 0.3723 0.8046 0.2691
C47 C 0.4283(6) 0.8978(7) 0.28053(14)
H32 H 0.3999 0.8902 0.2911
N11 N 0.1959(5) 0.7732(6) 0.15967(12)
C48 C 0.1444(4) 0.7160(6) 0.16807(14)
H33 H 0.1003 0.6955 0.1631
C49 C 0.1575(5) 0.6889(5) 0.18385(15)
H34 H 0.1224 0.6498 0.1896
C50 C 0.2221(5) 0.7190(6) 0.19122(13)
C51 C 0.2736(4) 0.7762(6) 0.18281(15)
H35 H 0.3177 0.7967 0.1879
C52 C 0.2605(4) 0.8033(5) 0.16704(15)
H36 H 0.2957 0.8423 0.1613
Ag8 Ag 0.18282(13) 0.82063(10) 0.13511(2)
Ag9 Ag 0.63782(9) 0.81718(13) 0.13511(2)
Ag11 Ag 0.17937(10) 0.36218(9) 0.13511(2)
Ag12 Ag 0.51270(10) 0.48385(13) 0.30178(2)
O9 O 0.3667(4) 0.6245(6) 0.24325(10)
O10 O 0.3755(6) 0.7422(4) 0.24325(10)
O11 O 0.4105(3) 0.7028(5) 0.21007(11)
O12 O 0.2972(5) 0.7077(4) 0.21007(11)
C53 C 0.3735(6) 0.5677(8) 0.23656(16)
C54 C 0.4323(8) 0.8058(6) 0.23656(16)
C55 C 0.4645(9) 0.8137(11) 0.22059(17)
C56 C 0.1863(11) 0.6508(7) 0.22059(17)
H37 H 0.4956 0.8588 0.2172
H38 H 0.1412 0.6368 0.2172
C57 C 0.4589(6) 0.7656(8) 0.20841(15)
C58 C 0.2344(8) 0.6933(5) 0.20841(15)
N12 N 0.7070(5) 0.8471(9) 0.11152(16)
N13 N 0.4862(9) 0.9597(5) 0.27819(16)
N14 N 0.4735(7) 0.5138(9) 0.27819(16)
C59 C 0.5277(9) 0.9709(5) 0.26281(17)
C60 C 0.4432(8) 0.4723(9) 0.26281(17)
H40 H 0.4460 0.4328 0.2612
C61 C 0.5112(9) 0.9200(5) 0.24977(15)
C62 C 0.4088(8) 0.4888(9) 0.24977(15)
H41 H 0.5396 0.9276 0.2393
H42 H 0.3880 0.4604 0.2393
C63 C 0.4533(9) 0.8580(5) 0.25212(14)
C64 C 0.4047(7) 0.5467(9) 0.25212(14)
C65 C 0.4351(9) 0.5882(5) 0.26750(16)
C66 C 0.1531(7) 0.5649(9) 0.26750(16)
H43 H 0.4323 0.6277 0.2691
H44 H 0.1954 0.5677 0.2691
C67 C 0.4695(9) 0.5717(6) 0.28053(14)
C68 C 0.1022(7) 0.5305(9) 0.28053(14)
H45 H 0.4903 0.6001 0.2911
H46 H 0.1098 0.5097 0.2911
N16 N 0.5773(8) 0.8041(5) 0.15967(12)
N17 N 0.2268(6) 0.4227(8) 0.15967(12)
N18 N 0.5601(6) 0.4708(5) 0.32634(12)
C69 C 0.5716(7) 0.8556(4) 0.16807(14)
C70 C 0.2840(6) 0.4284(7) 0.16807(14)
H47 H 0.5952 0.8997 0.1631
H48 H 0.3045 0.4048 0.1631
C71 C 0.5314(7) 0.8425(5) 0.18385(15)
C72 C 0.3111(5) 0.4686(7) 0.18385(15)
H49 H 0.5274 0.8776 0.1896
H50 H 0.3502 0.4726 0.1896
C73 C 0.4969(8) 0.7779(5) 0.19122(13)
C74 C 0.2810(6) 0.5031(8) 0.19122(13)
C75 C 0.5026(7) 0.7264(4) 0.18281(15)
C76 C 0.2238(6) 0.4974(7) 0.18281(15)
H51 H 0.4790 0.6823 0.1879
H52 H 0.2033 0.5210 0.1879
C77 C 0.5428(6) 0.7395(4) 0.16704(15)
C78 C 0.1967(5) 0.4572(6) 0.16704(15)
H53 H 0.5466 0.7043 0.1613
H54 H 0.1577 0.4534 0.1613
Ag7 Ag 0.97115(9) 0.48730(10) 0.30178(2)
H29 H 0.9868 0.5540 0.2612
N15 N 0.9106(8) 0.4399(6) 0.32634(12)
N18_2 N 0.5292(5) 0.0894(8) 0.32634(12)
N12_2 N 0.1529(9) 0.8598(10) 0.11152(16)
N12_3 N 0.1402(10) 0.2930(5) 0.11152(16)
Ag10_2 Ag 0.51270(16) 0.02885(9) 0.80178(2)
H39_2 H 0.4460 0.0132 0.7612
Ag7_2 Ag 0.51615(13) 0.48730(10) 0.80178(2)
Ga2_2 Ga 0.3334 0.6667 0.72681(3)
O7_2 O 0.3755(6) 0.6333(4) 0.74325(10)
O8_2 O 0.2972(5) 0.5895(3) 0.71007(11)
C40_2 C 0.4323(8) 0.6265(6) 0.73656(16)
C41_2 C 0.1863(11) 0.5355(9) 0.72059(17)
H28_2 H 0.1412 0.5044 0.7172
C42_2 C 0.2344(8) 0.5411(6) 0.70841(15)
N10_2 N 0.4862(9) 0.5265(7) 0.77819(16)
C43_2 C 0.5277(9) 0.5568(8) 0.76281(17)
H29_2 H 0.5672 0.5540 0.7612
C44_2 C 0.5112(9) 0.5912(8) 0.74977(15)
H30_2 H 0.5396 0.6120 0.7393
C45_2 C 0.4533(9) 0.5953(7) 0.75212(14)
C46_2 C 0.4351(9) 0.8469(7) 0.76750(16)
H31_2 H 0.4323 0.8046 0.7691
C47_2 C 0.4695(9) 0.8978(7) 0.78053(14)
H32_2 H 0.4903 0.8902 0.7911
N11_2 N 0.5773(8) 0.7732(6) 0.65967(12)
C48_2 C 0.5716(7) 0.7160(6) 0.66807(14)
H33_2 H 0.5952 0.6955 0.6631
C49_2 C 0.5314(7) 0.6889(5) 0.68385(15)
H34_2 H 0.5274 0.6498 0.6896
C50_2 C 0.4969(8) 0.7190(6) 0.69122(13)
C51_2 C 0.5026(7) 0.7762(6) 0.68281(15)
H35_2 H 0.4790 0.7967 0.6879
C52_2 C 0.5428(6) 0.8033(5) 0.66704(15)
H36_2 H 0.5466 0.8423 0.6613
Ag8_2 Ag 0.63782(16) 0.82063(10) 0.63511(2)
Ag9_2 Ag 0.17937(16) 0.81718(13) 0.63511(2)
Ag11_2 Ag 0.18282(13) 0.36218(9) 0.63511(2)
O9_2 O 0.2578(7) 0.6245(6) 0.74325(10)
O10_2 O 0.3667(7) 0.7422(4) 0.74325(10)
O11_2 O 0.2923(6) 0.7028(5) 0.71007(11)
O12_2 O 0.4105(6) 0.7077(4) 0.71007(11)
C53_2 C 0.1942(10) 0.5677(8) 0.73656(16)
C54_2 C 0.3735(10) 0.8058(6) 0.73656(16)
C55_2 C 0.3492(14) 0.8137(11) 0.72059(17)
C56_2 C 0.4645(13) 0.6508(7) 0.72059(17)
H37_2 H 0.3632 0.8588 0.7172
H38_2 H 0.4956 0.6368 0.7172
C57_2 C 0.3067(10) 0.7656(8) 0.70841(15)
C58_2 C 0.4589(9) 0.6933(5) 0.70841(15)
N12_4 N 0.1402(10) 0.8471(9) 0.61152(16)
N13_2 N 0.4735(10) 0.9597(5) 0.77819(16)
N14_2 N 0.0403(11) 0.5138(9) 0.77819(16)
C59_2 C 0.4432(10) 0.9709(5) 0.76281(17)
C60_2 C 0.0291(12) 0.4723(9) 0.76281(17)
C61_2 C 0.4088(10) 0.9200(5) 0.74977(15)
C62_2 C 0.0800(12) 0.4888(9) 0.74977(15)
H41_2 H 0.3880 0.9276 0.7393
H42_2 H 0.0724 0.4604 0.7393
C63_2 C 0.4047(10) 0.8580(5) 0.75212(14)
C64_2 C 0.1420(11) 0.5467(9) 0.75212(14)
C65_2 C 0.1531(10) 0.5882(5) 0.76750(16)
C66_2 C 0.4118(11) 0.5649(9) 0.76750(16)
H43_2 H 0.1954 0.6277 0.7691
H44_2 H 0.3723 0.5677 0.7691
C67_2 C 0.1022(11) 0.5717(6) 0.78053(14)
C68_2 C 0.4283(11) 0.5305(9) 0.78053(14)
H45_2 H 0.1098 0.6001 0.7911
H46_2 H 0.3999 0.5097 0.7911
N15_2 N 0.5292(10) 0.4399(6) 0.82634(12)
N16_2 N 0.2268(9) 0.8041(5) 0.65967(12)
N17_2 N 0.1959(10) 0.4227(8) 0.65967(12)
C69_2 C 0.2840(8) 0.8556(4) 0.66807(14)
C70_2 C 0.1444(9) 0.4284(7) 0.66807(14)
H47_2 H 0.3045 0.8997 0.6631
H48_2 H 0.1003 0.4048 0.6631
C71_2 C 0.3111(9) 0.8425(5) 0.68385(15)
C72_2 C 0.1575(9) 0.4686(7) 0.68385(15)
H49_2 H 0.3502 0.8776 0.6896
H50_2 H 0.1224 0.4726 0.6896
C73_2 C 0.2810(9) 0.7779(5) 0.69122(13)
C74_2 C 0.2221(10) 0.5031(8) 0.69122(13)
C75_2 C 0.2238(8) 0.7264(4) 0.68281(15)
C76_2 C 0.2736(9) 0.4974(7) 0.68281(15)
H51_2 H 0.2033 0.6823 0.6879
H52_2 H 0.3177 0.5210 0.6879
C77_2 C 0.1967(7) 0.7395(4) 0.66704(15)
C78_2 C 0.2605(8) 0.4572(6) 0.66704(15)
H53_2 H 0.1577 0.7043 0.6613
H54_2 H 0.2957 0.4534 0.6613
Ag12_2 Ag 0.97115(16) 0.48385(13) 0.80178(2)
H40_2 H 0.9868 0.4328 0.7612
N18_3 N 0.9106(8) 0.4708(5) 0.82634(12)
N18_4 N 0.5601(6) 0.0894(8) 0.82634(12)
N12_5 N 0.7070(5) 0.8598(10) 0.61152(16)
N12_6 N 0.1529(9) 0.2930(5) 0.61152(16)
Ga2_3 Ga -0.0000 0.0000 0.56014(3)
C46_3 C 0.0785(5) 0.1802(7) 0.60083(16)
H31_3 H 0.0390 0.1379 0.6024
C47_3 C 0.0950(6) 0.2311(7) 0.61386(14)
H32_3 H 0.0666 0.2235 0.6244
Ag9_3 Ag 0.30448(9) 0.15052(13) 0.46845(2)
O10_3 O 0.0422(6) 0.0755(4) 0.57658(10)
O11_3 O 0.0772(3) 0.0361(5) 0.54340(11)
C54_3 C 0.0990(8) 0.1391(6) 0.56989(16)
C55_3 C 0.1312(9) 0.1470(11) 0.55392(17)
H37_3 H 0.1623 0.1921 0.5505
C57_3 C 0.1256(6) 0.0989(8) 0.54174(15)
N12_7 N 0.3736(5) 0.1805(9) 0.44486(16)
C59_3 C 0.1944(9) 0.3042(5) 0.59614(17)
H39_3 H 0.2339 0.3465 0.5945
C61_3 C 0.1779(9) 0.2533(5) 0.58310(15)
H41_3 H 0.2063 0.2609 0.5726
C63_3 C 0.1200(9) 0.1913(5) 0.58545(14)
N16_3 N 0.2440(8) 0.1374(5) 0.49300(12)
C69_3 C 0.2383(7) 0.1889(4) 0.50140(14)
H47_3 H 0.2619 0.2330 0.4964
C71_3 C 0.1981(7) 0.1758(5) 0.51718(15)
H49_3 H 0.1941 0.2109 0.5229
C73_3 C 0.1636(8) 0.1112(5) 0.52455(13)
C75_3 C 0.1693(7) 0.0597(4) 0.51614(15)
H51_3 H 0.1457 0.0156 0.5212
C77_3 C 0.2095(6) 0.0728(4) 0.50037(15)
H53_3 H 0.2133 0.0376 0.4946
Ga2_4 Ga -0.0000 1.0000 0.56014(3)
C41_3 C 0.0159(7) 0.8688(9) 0.55392(17)
H28_3 H 0.0299 0.8377 0.5505
O9_3 O 0.0334(4) 0.9578(6) 0.57658(10)
C53_3 C 0.0402(6) 0.9010(8) 0.56989(16)
C60_3 C 0.1099(8) 0.8056(9) 0.59614(17)
H40_3 H 0.1127 0.7661 0.5945
C62_3 C 0.0755(8) 0.8221(9) 0.58310(15)
H42_3 H 0.0547 0.7937 0.5726
C64_3 C 0.0714(7) 0.8800(9) 0.58545(14)
C65_3 C 0.1018(9) 0.9215(5) 0.60083(16)
H43_3 H 0.0990 0.9610 0.6024
C67_3 C 0.1362(9) 0.9050(6) 0.61386(14)
H45_3 H 0.1570 0.9334 0.6244
H50_3 H 0.0169 0.8059 0.5229
Ga2_5 Ga 1.0000 0.0000 0.56014(3)
N11_3 N 0.8626(5) 0.1065(6) 0.49300(12)
C48_3 C 0.8111(4) 0.0493(6) 0.50140(14)
H33_3 H 0.7670 0.0288 0.4964
C49_3 C 0.8242(5) 0.0222(5) 0.51718(15)
C50_3 C 0.8888(5) 0.0523(6) 0.52455(13)
C51_3 C 0.9403(4) 0.1095(6) 0.51614(15)
H35_3 H 0.9844 0.1300 0.5212
C52_3 C 0.9272(4) 0.1366(5) 0.50037(15)
H36_3 H 0.9624 0.1756 0.4946
Ag8_3 Ag 0.84948(13) 0.15397(10) 0.46845(2)
O12_3 O 0.9639(5) 0.0410(4) 0.54340(11)
C58_3 C 0.9011(8) 0.0266(5) 0.54174(15)
Ga2_6 Ga 1.0000 1.0000 0.56014(3)
O7_3 O 0.9245(4) 0.9666(4) 0.57658(10)
O8_3 O 0.9590(4) 0.9228(3) 0.54340(11)
C40_3 C 0.8609(6) 0.9598(6) 0.56989(16)
C42_3 C 0.9734(5) 0.8744(6) 0.54174(15)
C43_3 C 0.6958(5) 0.8901(8) 0.59614(17)
H29_3 H 0.6535 0.8873 0.5945
C44_3 C 0.7467(5) 0.9245(8) 0.58310(15)
H30_3 H 0.7391 0.9453 0.5726
C45_3 C 0.8087(5) 0.9286(7) 0.58545(14)
H34_3 H 0.7891 0.9831 0.5229
Ag11_3 Ag 0.84603(10) 0.69552(9) 0.46845(2)
C56_3 C 0.8530(11) 0.9841(7) 0.55392(17)
H38_3 H 0.8079 0.9701 0.5505
C66_3 C 0.8198(7) 0.8982(9) 0.60083(16)
H44_3 H 0.8621 0.9010 0.6024
C68_3 C 0.7689(7) 0.8638(9) 0.61386(14)
H46_3 H 0.7765 0.8430 0.6244
N17_3 N 0.8935(6) 0.7560(8) 0.49300(12)
C70_3 C 0.9507(6) 0.7617(7) 0.50140(14)
H48_3 H 0.9712 0.7381 0.4964
C72_3 C 0.9778(5) 0.8019(7) 0.51718(15)
C74_3 C 0.9477(6) 0.8364(8) 0.52455(13)
C76_3 C 0.8905(6) 0.8307(7) 0.51614(15)
H52_3 H 0.8700 0.8543 0.5212
C78_3 C 0.8634(5) 0.7905(6) 0.50037(15)
H54_3 H 0.8244 0.7867 0.4946
N12_8 N 0.8195(9) 0.1932(10) 0.44486(16)
N12_9 N 0.8068(10) 0.6264(5) 0.44486(16)
Ga2_7 Ga 0.0001 0.0000 0.06014(3)
C46_4 C 0.1018(9) 0.1802(7) 0.10083(16)
H31_4 H 0.0990 0.1379 0.1024
C47_4 C 0.1362(9) 0.2311(7) 0.11386(14)
H32_4 H 0.1570 0.2235 0.1244
C48_4 C 0.2383(7) 0.0493(6) 0.00140(14)
C49_4 C 0.1981(7) 0.0222(5) 0.01718(15)
C50_4 C 0.1636(8) 0.0523(6) 0.02455(13)
C51_4 C 0.1693(7) 0.1095(6) 0.01614(15)
H35_4 H 0.1457 0.1300 0.0212
C52_4 C 0.2095(6) 0.1366(5) 0.00037(15)
O10_4 O 0.0334(7) 0.0755(4) 0.07658(10)
O12_4 O 0.0772(6) 0.0410(4) 0.04340(11)
C54_4 C 0.0402(10) 0.1391(6) 0.06989(16)
C55_4 C 0.0159(14) 0.1470(11) 0.05392(17)
H37_4 H 0.0299 0.1921 0.0505
C58_4 C 0.1256(9) 0.0266(5) 0.04174(15)
C59_4 C 0.1099(10) 0.3042(5) 0.09614(17)
H39_4 H 0.1127 0.3465 0.0945
C61_4 C 0.0755(10) 0.2533(5) 0.08310(15)
H41_4 H 0.0547 0.2609 0.0726
C63_4 C 0.0714(10) 0.1913(5) 0.08545(14)
H49_4 H 0.0169 0.2109 0.0229
N11_4 N 0.2440(8) 0.1065(6) 0.99300(12)
H33_4 H 0.2619 0.0288 0.9964
H36_4 H 0.2133 0.1756 0.9946
Ag8_4 Ag 0.30448(16) 0.15397(10) 0.96845(2)
Ga2_8 Ga 0.0001 1.0000 0.06014(3)
O7_4 O 0.0422(6) 0.9666(4) 0.07658(10)
C40_4 C 0.0990(8) 0.9598(6) 0.06989(16)
C43_4 C 0.1944(9) 0.8901(8) 0.09614(17)
H29_4 H 0.2339 0.8873 0.0945
C44_4 C 0.1779(9) 0.9245(8) 0.08310(15)
H30_4 H 0.2063 0.9453 0.0726
C45_4 C 0.1200(9) 0.9286(7) 0.08545(14)
H34_4 H 0.1941 0.9831 0.0229
C56_4 C 0.1312(13) 0.9841(7) 0.05392(17)
H38_4 H 0.1623 0.9701 0.0505
C66_4 C 0.0785(11) 0.8982(9) 0.10083(16)
H44_4 H 0.0390 0.9010 0.1024
C68_4 C 0.0950(11) 0.8638(9) 0.11386(14)
H46_4 H 0.0666 0.8430 0.1244
Ag9_4 Ag 0.84603(16) 0.15052(13) 0.96845(2)
N12_10 N 0.8068(10) 0.1805(9) 0.94486(16)
N16_4 N 0.8935(9) 0.1374(5) 0.99300(12)
H47_4 H 0.9712 0.2330 0.9964
H53_4 H 0.8244 0.0376 0.9946
O8_4 O 0.9639(5) 0.9228(3) 0.04340(11)
C41_4 C 0.8530(11) 0.8688(9) 0.05392(17)
H28_4 H 0.8079 0.8377 0.0505
C42_4 C 0.9011(8) 0.8744(6) 0.04174(15)
O9_4 O 0.9245(7) 0.9578(6) 0.07658(10)
C53_4 C 0.8609(10) 0.9010(8) 0.06989(16)
C60_4 C 0.6958(12) 0.8056(9) 0.09614(17)
H40_4 H 0.6535 0.7661 0.0945
C62_4 C 0.7467(12) 0.8221(9) 0.08310(15)
H42_4 H 0.7391 0.7937 0.0726
C64_4 C 0.8087(11) 0.8800(9) 0.08545(14)
C65_4 C 0.8198(10) 0.9215(5) 0.10083(16)
H43_4 H 0.8621 0.9610 0.1024
C67_4 C 0.7689(11) 0.9050(6) 0.11386(14)
H45_4 H 0.7765 0.9334 0.1244
C70_4 C 0.8111(9) 0.7617(7) 0.00140(14)
C72_4 C 0.8242(9) 0.8019(7) 0.01718(15)
H50_4 H 0.7891 0.8059 0.0229
C74_4 C 0.8888(10) 0.8364(8) 0.02455(13)
C76_4 C 0.9403(9) 0.8307(7) 0.01614(15)
H52_4 H 0.9844 0.8543 0.0212
C78_4 C 0.9272(8) 0.7905(6) 0.00037(15)
Ag11_4 Ag 0.84948(13) 0.69552(9) 0.96845(2)
N17_4 N 0.8626(10) 0.7560(8) 0.99300(12)
H48_4 H 0.7670 0.7381 0.9964
H54_4 H 0.9624 0.7867 0.9946
N12_11 N 0.3736(5) 0.1932(10) 0.94486(16)
Ga2_9 Ga 1.0000 0.9999 0.06014(3)
N12_12 N 0.8195(9) 0.6264(5) 0.94486(16)
Ga2_10 Ga 0.6666 0.3334 0.89348(3)
O7_5 O 0.5911(4) 0.3000(4) 0.90992(10)
O8_5 O 0.6256(4) 0.2562(3) 0.87674(11)
C40_5 C 0.5275(6) 0.2932(6) 0.90323(16)
C41_5 C 0.6825(7) 0.2022(9) 0.88726(17)
H28_5 H 0.6965 0.1711 0.8839
C42_5 C 0.6400(5) 0.2078(6) 0.87508(15)
C43_5 C 0.3624(5) 0.2235(8) 0.92948(17)
H29_5 H 0.3201 0.2207 0.9279
C44_5 C 0.4133(5) 0.2579(8) 0.91644(15)
H30_5 H 0.4057 0.2787 0.9060
C45_5 C 0.4753(5) 0.2620(7) 0.91879(14)
C46_5 C 0.7451(5) 0.5136(7) 0.93417(16)
H31_5 H 0.7056 0.4713 0.9358
C47_5 C 0.7616(6) 0.5645(7) 0.94720(14)
H32_5 H 0.7332 0.5569 0.9578
C48_5 C 0.4777(4) 0.3827(6) 0.83474(14)
H33_5 H 0.4336 0.3622 0.8298
C49_5 C 0.4908(5) 0.3556(5) 0.85052(15)
H34_5 H 0.4557 0.3165 0.8563
C50_5 C 0.5554(5) 0.3857(6) 0.85789(13)
C51_5 C 0.6069(4) 0.4429(6) 0.84948(15)
H35_5 H 0.6510 0.4634 0.8546
C52_5 C 0.5938(4) 0.4700(5) 0.83371(15)
H36_5 H 0.6290 0.5090 0.8280
O9_5 O 0.7000(4) 0.2912(6) 0.90992(10)
O10_5 O 0.7088(6) 0.4089(4) 0.90992(10)
O11_4 O 0.7438(3) 0.3695(5) 0.87674(11)
O12_5 O 0.6305(5) 0.3744(4) 0.87674(11)
C53_5 C 0.7068(6) 0.2344(8) 0.90323(16)
C54_5 C 0.7656(8) 0.4725(6) 0.90323(16)
C55_5 C 0.7978(9) 0.4804(11) 0.88726(17)
C56_5 C 0.5196(11) 0.3175(7) 0.88726(17)
H37_5 H 0.8289 0.5255 0.8839
H38_5 H 0.4745 0.3035 0.8839
C57_4 C 0.7922(6) 0.4323(8) 0.87508(15)
C58_5 C 0.5677(8) 0.3600(5) 0.87508(15)
C59_5 C 0.8610(9) 0.6376(5) 0.92948(17)
C60_5 C 0.7765(8) 0.1390(9) 0.92948(17)
H39_5 H 0.9005 0.6799 0.9279
H40_5 H 0.7793 0.0995 0.9279
C61_5 C 0.8445(9) 0.5867(5) 0.91644(15)
C62_5 C 0.7421(8) 0.1555(9) 0.91644(15)
H41_5 H 0.8729 0.5943 0.9060
H42_5 H 0.7213 0.1271 0.9060
C63_5 C 0.7866(9) 0.5247(5) 0.91879(14)
C64_5 C 0.7380(7) 0.2134(9) 0.91879(14)
C65_5 C 0.7684(9) 0.2549(5) 0.93417(16)
C66_5 C 0.4864(7) 0.2316(9) 0.93417(16)
H43_5 H 0.7656 0.2944 0.9358
H44_5 H 0.5287 0.2344 0.9358
C67_5 C 0.8028(9) 0.2384(6) 0.94720(14)
C68_5 C 0.4355(7) 0.1972(9) 0.94720(14)
H45_5 H 0.8236 0.2668 0.9578
H46_5 H 0.4431 0.1764 0.9578
C69_4 C 0.9049(7) 0.5223(4) 0.83474(14)
C70_5 C 0.6173(6) 0.0951(7) 0.83474(14)
H47_5 H 0.9285 0.5664 0.8298
H48_5 H 0.6378 0.0715 0.8298
C71_4 C 0.8647(7) 0.5092(5) 0.85052(15)
C72_5 C 0.6444(5) 0.1353(7) 0.85052(15)
H49_5 H 0.8607 0.5443 0.8563
H50_5 H 0.6835 0.1393 0.8563
C73_4 C 0.8302(8) 0.4446(5) 0.85789(13)
C74_5 C 0.6143(6) 0.1698(8) 0.85789(13)
C75_4 C 0.8359(7) 0.3931(4) 0.84948(15)
C76_5 C 0.5571(6) 0.1641(7) 0.84948(15)
H51_4 H 0.8123 0.3490 0.8546
H52_5 H 0.5366 0.1877 0.8546
C77_4 C 0.8761(6) 0.4062(4) 0.83371(15)
C78_5 C 0.5300(5) 0.1239(6) 0.83371(15)
H53_5 H 0.8799 0.3710 0.8280
H54_5 H 0.4910 0.1201 0.8280
Ga2_11 Ga 0.6667 0.3334 0.39348(3)
O7_6 O 0.7088(6) 0.3000(4) 0.40992(10)
O8_6 O 0.6305(5) 0.2562(3) 0.37674(11)
C40_6 C 0.7656(8) 0.2932(6) 0.40323(16)
C41_6 C 0.5196(11) 0.2022(9) 0.38726(17)
H28_6 H 0.4745 0.1711 0.3839
C42_6 C 0.5677(8) 0.2078(6) 0.37508(15)
C43_6 C 0.8610(9) 0.2235(8) 0.42948(17)
H29_6 H 0.9005 0.2207 0.4279
C44_6 C 0.8445(9) 0.2579(8) 0.41644(15)
H30_6 H 0.8729 0.2787 0.4060
C45_6 C 0.7866(9) 0.2620(7) 0.41879(14)
C46_6 C 0.7684(9) 0.5136(7) 0.43417(16)
H31_6 H 0.7656 0.4713 0.4358
C47_6 C 0.8028(9) 0.5645(7) 0.44720(14)
H32_6 H 0.8236 0.5569 0.4578
C48_6 C 0.9049(7) 0.3827(6) 0.33474(14)
H33_6 H 0.9285 0.3622 0.3298
C49_6 C 0.8647(7) 0.3556(5) 0.35052(15)
H34_6 H 0.8607 0.3165 0.3563
C50_6 C 0.8302(8) 0.3857(6) 0.35789(13)
C51_6 C 0.8359(7) 0.4429(6) 0.34948(15)
H35_6 H 0.8123 0.4634 0.3546
C52_6 C 0.8761(6) 0.4700(5) 0.33371(15)
H36_6 H 0.8799 0.5090 0.3280
O9_6 O 0.5911(7) 0.2912(6) 0.40992(10)
O10_6 O 0.7000(7) 0.4089(4) 0.40992(10)
O11_5 O 0.6256(6) 0.3695(5) 0.37674(11)
O12_6 O 0.7438(6) 0.3744(4) 0.37674(11)
C53_6 C 0.5275(10) 0.2344(8) 0.40323(16)
C54_6 C 0.7068(10) 0.4725(6) 0.40323(16)
C55_6 C 0.6825(14) 0.4804(11) 0.38726(17)
C56_6 C 0.7978(13) 0.3175(7) 0.38726(17)
H37_6 H 0.6965 0.5255 0.3839
H38_6 H 0.8289 0.3035 0.3839
C57_5 C 0.6400(10) 0.4323(8) 0.37508(15)
C58_6 C 0.7922(9) 0.3600(5) 0.37508(15)
C59_6 C 0.7765(10) 0.6376(5) 0.42948(17)
C60_6 C 0.3624(12) 0.1390(9) 0.42948(17)
H39_6 H 0.7793 0.6799 0.4279
H40_6 H 0.3201 0.0995 0.4279
C61_6 C 0.7421(10) 0.5867(5) 0.41644(15)
C62_6 C 0.4133(12) 0.1555(9) 0.41644(15)
H41_6 H 0.7213 0.5943 0.4060
H42_6 H 0.4057 0.1271 0.4060
C63_6 C 0.7380(10) 0.5247(5) 0.41879(14)
C64_6 C 0.4753(11) 0.2134(9) 0.41879(14)
C65_6 C 0.4864(10) 0.2549(5) 0.43417(16)
C66_6 C 0.7451(11) 0.2316(9) 0.43417(16)
H43_6 H 0.5287 0.2944 0.4358
H44_6 H 0.7056 0.2344 0.4358
C67_6 C 0.4355(11) 0.2384(6) 0.44720(14)
C68_6 C 0.7616(11) 0.1972(9) 0.44720(14)
H45_6 H 0.4431 0.2668 0.4578
H46_6 H 0.7332 0.1764 0.4578
C69_5 C 0.6173(8) 0.5223(4) 0.33474(14)
C70_6 C 0.4777(9) 0.0951(7) 0.33474(14)
H47_6 H 0.6378 0.5664 0.3298
H48_6 H 0.4336 0.0715 0.3298
C71_5 C 0.6444(9) 0.5092(5) 0.35052(15)
C72_6 C 0.4908(9) 0.1353(7) 0.35052(15)
H49_6 H 0.6835 0.5443 0.3563
H50_6 H 0.4557 0.1393 0.3563
C73_5 C 0.6143(9) 0.4446(5) 0.35789(13)
C74_6 C 0.5554(10) 0.1698(8) 0.35789(13)
C75_5 C 0.5571(8) 0.3931(4) 0.34948(15)
C76_6 C 0.6069(9) 0.1641(7) 0.34948(15)
H51_5 H 0.5366 0.3490 0.3546
H52_6 H 0.6510 0.1877 0.3546
C77_5 C 0.5300(7) 0.4062(4) 0.33371(15)
C78_6 C 0.5938(8) 0.1239(6) 0.33371(15)
H53_6 H 0.4910 0.3710 0.3280
H54_6 H 0.6290 0.1201 0.3280
O11_6 O 0.9590(6) 0.0361(5) 0.04340(11)
C57_6 C 0.9734(10) 0.0989(8) 0.04174(15)
C69_6 C 0.9507(8) 0.1889(4) 0.00140(14)
C71_6 C 0.9778(9) 0.1758(5) 0.01718(15)
C73_6 C 0.9477(9) 0.1112(5) 0.02455(13)
C75_6 C 0.8905(8) 0.0597(4) 0.01614(15)
H51_6 H 0.8700 0.0156 0.0212
C77_6 C 0.8634(7) 0.0728(4) 0.00037(15)
Ga2_12 Ga 1.0000 0.0000 0.06014(3)
Ag13 Ag 0.02620(8) 0.51138(8) 0.500990(19)
Ga3 Ga 0.3333 0.6667 0.40969(2)
O13 O 0.2555(3) 0.6231(3) 0.42651(8)
C79 C 0.2076(5) 0.6370(6) 0.42770(14)
O14 O 0.2990(3) 0.5859(4) 0.39405(9)
C80 C 0.3257(6) 0.5244(6) 0.41474(18)
H55 H 0.3146 0.4798 0.4177
C81 C 0.3006(7) 0.5321(6) 0.39743(18)
N19 N 0.0889(4) 0.5566(5) 0.47641(11)
C82 C 0.1573(4) 0.5789(5) 0.47676(11)
H56 H 0.1777 0.5754 0.4880
C83 C 0.1959(3) 0.6065(5) 0.46073(13)
H57 H 0.2427 0.6218 0.4610
C84 C 0.1660(4) 0.6117(5) 0.44435(11)
C85 C 0.4916(4) 0.9024(6) 0.44399(11)
H58 H 0.5155 0.9228 0.4328
C86 C 0.5027(3) 0.9410(6) 0.46002(13)
H59 H 0.5342 0.9878 0.4598
N20 N 0.1769(4) 0.7972(4) 0.35614(9)
C87 C 0.2219(4) 0.7752(4) 0.35215(7)
H60 H 0.2410 0.7816 0.3400
C88 C 0.2391(4) 0.7439(4) 0.36598(9)
H61 H 0.2699 0.7288 0.3633
C89 C 0.2112(4) 0.7345(5) 0.38379(8)
C90 C 0.1662(4) 0.7565(5) 0.38778(8)
H62 H 0.1471 0.7501 0.4000
C91 C 0.1490(4) 0.7878(5) 0.37396(10)
H63 H 0.1182 0.8029 0.3767
Ag14 Ag 0.15185(11) 0.84471(8) 0.334323(19)
Ag15 Ag 0.69287(8) 0.84815(11) 0.334323(19)
Ag16 Ag 0.48518(11) 0.97380(8) 0.500990(19)
Ag17 Ag 0.15529(8) 0.30713(8) 0.334323(19)
Ag18 Ag 0.48862(8) 0.51482(11) 0.500990(19)
O15 O 0.3769(3) 0.6324(4) 0.42651(8)
O16 O 0.3676(4) 0.7445(3) 0.42651(8)
C92 C 0.3630(6) 0.5706(8) 0.42770(14)
C93 C 0.4294(8) 0.7924(5) 0.42770(14)
O17 O 0.4141(4) 0.7131(5) 0.39405(9)
O18 O 0.2869(5) 0.7010(3) 0.39405(9)
C94 C 0.4756(6) 0.8013(8) 0.41474(18)
C95 C 0.1987(8) 0.6743(6) 0.41474(18)
H64 H 0.5202 0.8348 0.4177
H65 H 0.1652 0.6854 0.4177
C96 C 0.4679(6) 0.7685(9) 0.39743(18)
C97 C 0.2315(9) 0.6994(7) 0.39743(18)
N21 N 0.7556(4) 0.8656(6) 0.30974(11)
N22 N 0.4677(6) 0.9111(4) 0.47641(11)
N23 N 0.4434(5) 0.5323(6) 0.47641(11)
C98 C 0.4216(6) 0.8427(4) 0.47676(11)
C99 C 0.4211(5) 0.5784(6) 0.47676(11)
H66 H 0.3977 0.8223 0.4880
H67 H 0.4246 0.6023 0.4880
C100 C 0.4106(6) 0.8041(3) 0.46073(13)
C101 C 0.3935(5) 0.5894(6) 0.46073(13)
H68 H 0.3791 0.7573 0.4610
H69 H 0.3782 0.6209 0.4610
C102 C 0.4457(6) 0.8340(4) 0.44435(11)
C103 C 0.3883(5) 0.5543(6) 0.44435(11)
C104 C 0.4108(7) 0.5084(4) 0.44399(11)
C105 C 0.0976(6) 0.5892(7) 0.44399(11)
H70 H 0.4073 0.4845 0.4328
H71 H 0.0772 0.5927 0.4328
C106 C 0.4383(7) 0.4973(3) 0.46002(13)
C107 C 0.0590(6) 0.5617(7) 0.46002(13)
H72 H 0.4536 0.4658 0.4598
H73 H 0.0122 0.5464 0.4598
N25 N 0.6203(6) 0.8231(4) 0.35614(9)
N26 N 0.2028(4) 0.3797(6) 0.35614(9)
N27 N 0.5361(4) 0.4898(4) 0.52281(9)
C108 C 0.5533(6) 0.7781(4) 0.35215(7)
C109 C 0.2248(4) 0.4467(6) 0.35215(7)
H74 H 0.5406 0.7590 0.3400
H75 H 0.2184 0.4594 0.3400
C110 C 0.5048(6) 0.7609(4) 0.36598(9)
C111 C 0.2561(4) 0.4952(6) 0.36598(9)
H76 H 0.4589 0.7301 0.3633
H77 H 0.2712 0.5411 0.3633
C112 C 0.5233(6) 0.7888(4) 0.38379(8)
C113 C 0.2655(5) 0.4767(6) 0.38379(8)
C114 C 0.5903(6) 0.8338(4) 0.38778(8)
C115 C 0.2435(5) 0.4097(6) 0.38778(8)
H78 H 0.6030 0.8529 0.4000
H79 H 0.2499 0.3970 0.4000
C116 C 0.6388(6) 0.8510(4) 0.37396(10)
C117 C 0.2122(5) 0.3612(6) 0.37396(10)
H80 H 0.6847 0.8818 0.3767
H81 H 0.1971 0.3153 0.3767
N24 N 0.9536(6) 0.4639(4) 0.52281(9)
N27_2 N 0.5102(4) 0.0464(6) 0.52281(9)
N21_2 N 0.1344(6) 0.8899(7) 0.30974(11)
N21_3 N 0.1101(7) 0.2444(4) 0.30974(11)
Ag13_2 Ag 0.48518(11) 0.51138(8) 0.000990(19)
Ag16_2 Ag 0.48862(14) 0.97380(8) 0.000990(19)
Ag18_2 Ag 0.02620(14) 0.51482(11) 0.000990(19)
N24_2 N 0.5102(7) 0.4639(4) 0.02281(9)
Ga3_2 Ga 0.3334 0.6667 0.90969(2)
O13_2 O 0.3676(4) 0.6231(3) 0.92651(8)
C79_2 C 0.4294(8) 0.6370(6) 0.92770(14)
O14_2 O 0.2869(5) 0.5859(4) 0.89405(9)
C80_2 C 0.1987(8) 0.5244(6) 0.91474(18)
H55_2 H 0.1652 0.4798 0.9177
C81_2 C 0.2315(9) 0.5321(6) 0.89743(18)
N19_2 N 0.4677(6) 0.5566(5) 0.97641(11)
C82_2 C 0.4216(6) 0.5789(5) 0.97676(11)
H56_2 H 0.3977 0.5754 0.9880
C83_2 C 0.4106(6) 0.6065(5) 0.96073(13)
H57_2 H 0.3791 0.6218 0.9610
C84_2 C 0.4457(6) 0.6117(5) 0.94435(11)
C85_2 C 0.4108(7) 0.9024(6) 0.94399(11)
H58_2 H 0.4073 0.9228 0.9328
C86_2 C 0.4383(7) 0.9410(6) 0.96002(13)
H59_2 H 0.4536 0.9878 0.9598
N20_2 N 0.6203(6) 0.7972(4) 0.85614(9)
C87_2 C 0.5533(6) 0.7752(4) 0.85215(7)
H60_2 H 0.5406 0.7816 0.8400
C88_2 C 0.5048(6) 0.7439(4) 0.86598(9)
H61_2 H 0.4589 0.7288 0.8633
C89_2 C 0.5233(6) 0.7345(5) 0.88379(8)
C90_2 C 0.5903(6) 0.7565(5) 0.88778(8)
H62_2 H 0.6030 0.7501 0.9000
C91_2 C 0.6388(6) 0.7878(5) 0.87396(10)
H63_2 H 0.6847 0.8029 0.8767
Ag14_2 Ag 0.69287(14) 0.84471(8) 0.834323(19)
Ag15_2 Ag 0.15529(14) 0.84815(11) 0.834323(19)
Ag17_2 Ag 0.15185(11) 0.30713(8) 0.834323(19)
O15_2 O 0.2555(5) 0.6324(4) 0.92651(8)
O16_2 O 0.3769(5) 0.7445(3) 0.92651(8)
C92_2 C 0.2076(10) 0.5706(8) 0.92770(14)
C93_2 C 0.3630(9) 0.7924(5) 0.92770(14)
O17_2 O 0.2990(6) 0.7131(5) 0.89405(9)
O18_2 O 0.4141(6) 0.7010(3) 0.89405(9)
C94_2 C 0.3257(10) 0.8013(8) 0.91474(18)
C95_2 C 0.4756(10) 0.6743(6) 0.91474(18)
H64_2 H 0.3146 0.8348 0.9177
H65_2 H 0.5202 0.6854 0.9177
C96_2 C 0.3006(11) 0.7685(9) 0.89743(18)
C97_2 C 0.4679(11) 0.6994(7) 0.89743(18)
N21_4 N 0.1101(7) 0.8656(6) 0.80974(11)
N22_2 N 0.4434(7) 0.9111(4) 0.97641(11)
N23_2 N 0.0889(8) 0.5323(6) 0.97641(11)
C98_2 C 0.4211(7) 0.8427(4) 0.97676(11)
C99_2 C 0.1573(8) 0.5784(6) 0.97676(11)
H66_2 H 0.4246 0.8223 0.9880
H67_2 H 0.1777 0.6023 0.9880
C100_2 C 0.3935(7) 0.8041(3) 0.96073(13)
C101_2 C 0.1959(8) 0.5894(6) 0.96073(13)
H68_2 H 0.3782 0.7573 0.9610
H69_2 H 0.2427 0.6209 0.9610
C102_2 C 0.3883(7) 0.8340(4) 0.94435(11)
C103_2 C 0.1660(8) 0.5543(6) 0.94435(11)
C104_2 C 0.0976(8) 0.5084(4) 0.94399(11)
C105_2 C 0.4916(9) 0.5892(7) 0.94399(11)
H70_2 H 0.0772 0.4845 0.9328
H71_2 H 0.5155 0.5927 0.9328
C106_2 C 0.0590(8) 0.4973(3) 0.96002(13)
C107_2 C 0.5027(9) 0.5617(7) 0.96002(13)
H72_2 H 0.0122 0.4658 0.9598
H73_2 H 0.5342 0.5464 0.9598
N25_2 N 0.2028(7) 0.8231(4) 0.85614(9)
N26_2 N 0.1769(7) 0.3797(6) 0.85614(9)
C108_2 C 0.2248(7) 0.7781(4) 0.85215(7)
C109_2 C 0.2219(7) 0.4467(6) 0.85215(7)
H74_2 H 0.2184 0.7590 0.8400
H75_2 H 0.2410 0.4594 0.8400
C110_2 C 0.2561(7) 0.7609(4) 0.86598(9)
C111_2 C 0.2391(7) 0.4952(6) 0.86598(9)
H76_2 H 0.2712 0.7301 0.8633
H77_2 H 0.2699 0.5411 0.8633
C112_2 C 0.2655(7) 0.7888(4) 0.88379(8)
C113_2 C 0.2112(8) 0.4767(6) 0.88379(8)
C114_2 C 0.2435(7) 0.8338(4) 0.88778(8)
C115_2 C 0.1662(8) 0.4097(6) 0.88778(8)
H78_2 H 0.2499 0.8529 0.9000
H79_2 H 0.1471 0.3970 0.9000
C116_2 C 0.2122(7) 0.8510(4) 0.87396(10)
C117_2 C 0.1490(8) 0.3612(6) 0.87396(10)
H80_2 H 0.1971 0.8818 0.8767
H81_2 H 0.1182 0.3153 0.8767
N27_3 N 0.9536(6) 0.4898(4) 0.02281(9)
N27_4 N 0.5361(4) 0.0464(6) 0.02281(9)
N21_5 N 0.7556(4) 0.8899(7) 0.80974(11)
N21_6 N 0.1344(6) 0.2444(4) 0.80974(11)
Ga3_3 Ga -0.0000 0.0000 0.74302(2)
C85_3 C 0.1583(4) 0.2357(6) 0.77732(11)
H58_3 H 0.1822 0.2561 0.7661
C86_3 C 0.1694(3) 0.2743(6) 0.79335(13)
H59_3 H 0.2009 0.3211 0.7931
Ag15_3 Ag 0.35953(8) 0.18149(11) 0.667657(19)
O16_3 O 0.0343(4) 0.0778(3) 0.75984(8)
C93_3 C 0.0961(8) 0.1257(5) 0.76103(14)
O17_3 O 0.0808(4) 0.0464(5) 0.72738(9)
C94_3 C 0.1423(6) 0.1346(8) 0.74807(18)
H64_3 H 0.1869 0.1681 0.7510
C96_3 C 0.1346(6) 0.1018(9) 0.73076(18)
N21_7 N 0.4222(4) 0.1990(6) 0.64308(11)
C98_3 C 0.0883(6) 0.1760(4) 0.81009(11)
H66_3 H 0.0644 0.1556 0.8213
C100_3 C 0.0773(6) 0.1374(3) 0.79406(13)
H68_3 H 0.0458 0.0906 0.7943
C102_3 C 0.1124(6) 0.1673(4) 0.77768(11)
N25_3 N 0.2870(6) 0.1564(4) 0.68947(9)
C108_3 C 0.2200(6) 0.1114(4) 0.68548(7)
H74_3 H 0.2073 0.0923 0.6733
C110_3 C 0.1715(6) 0.0942(4) 0.69931(9)
H76_3 H 0.1256 0.0634 0.6966
C112_3 C 0.1900(6) 0.1221(4) 0.71712(8)
C114_3 C 0.2570(6) 0.1671(4) 0.72111(8)
H78_3 H 0.2697 0.1862 0.7333
C116_3 C 0.3055(6) 0.1843(4) 0.70729(10)
H80_3 H 0.3514 0.2151 0.7100
Ga3_4 Ga -0.0000 1.0000 0.74302(2)
O15_3 O 0.0436(3) 0.9657(4) 0.75984(8)
C92_3 C 0.0297(6) 0.9039(8) 0.76103(14)
C99_3 C 0.0878(5) 0.9117(6) 0.81009(11)
H67_3 H 0.0913 0.9356 0.8213
C101_3 C 0.0602(5) 0.9227(6) 0.79406(13)
H69_3 H 0.0449 0.9542 0.7943
C103_3 C 0.0550(5) 0.8876(6) 0.77768(11)
C104_3 C 0.0775(7) 0.8417(4) 0.77732(11)
H70_3 H 0.0740 0.8178 0.7661
C106_3 C 0.1050(7) 0.8306(3) 0.79335(13)
H72_3 H 0.1203 0.7991 0.7931
Ga3_5 Ga 1.0000 0.0000 0.74302(2)
N20_3 N 0.8436(4) 0.1305(4) 0.68947(9)
C87_3 C 0.8886(4) 0.1085(4) 0.68548(7)
H60_3 H 0.9077 0.1149 0.6733
C88_3 C 0.9058(4) 0.0772(4) 0.69931(9)
H61_3 H 0.9366 0.0621 0.6966
C89_3 C 0.8779(4) 0.0678(5) 0.71712(8)
C90_3 C 0.8329(4) 0.0898(5) 0.72111(8)
H62_3 H 0.8138 0.0834 0.7333
C91_3 C 0.8157(4) 0.1211(5) 0.70729(10)
H63_3 H 0.7849 0.1362 0.7100
Ag14_3 Ag 0.81851(11) 0.17805(8) 0.667657(19)
O18_3 O 0.9536(5) 0.0343(3) 0.72738(9)
C95_3 C 0.8654(8) 0.0076(6) 0.74807(18)
H65_3 H 0.8319 0.0187 0.7510
C97_3 C 0.8982(9) 0.0327(7) 0.73076(18)
Ga3_6 Ga 1.0000 1.0000 0.74302(2)
O13_3 O 0.9222(3) 0.9564(3) 0.75984(8)
C79_3 C 0.8743(5) 0.9703(6) 0.76103(14)
O14_3 O 0.9657(3) 0.9192(4) 0.72738(9)
C80_3 C 0.9924(6) 0.8577(6) 0.74807(18)
H55_3 H 0.9813 0.8131 0.7510
C81_3 C 0.9673(7) 0.8654(6) 0.73076(18)
C82_3 C 0.8240(4) 0.9122(5) 0.81009(11)
H56_3 H 0.8444 0.9087 0.8213
C83_3 C 0.8626(3) 0.9398(5) 0.79406(13)
H57_3 H 0.9094 0.9551 0.7943
C84_3 C 0.8327(4) 0.9450(5) 0.77768(11)
Ag17_3 Ag 0.82195(8) 0.64047(8) 0.667657(19)
C105_3 C 0.7643(6) 0.9225(7) 0.77732(11)
H71_3 H 0.7439 0.9260 0.7661
C107_3 C 0.7257(6) 0.8950(7) 0.79335(13)
H73_3 H 0.6789 0.8797 0.7931
N26_3 N 0.8695(4) 0.7130(6) 0.68947(9)
C109_3 C 0.8915(4) 0.7800(6) 0.68548(7)
H75_3 H 0.8851 0.7927 0.6733
C111_3 C 0.9228(4) 0.8285(6) 0.69931(9)
H77_3 H 0.9379 0.8744 0.6966
C113_3 C 0.9322(5) 0.8100(6) 0.71712(8)
C115_3 C 0.9102(5) 0.7430(6) 0.72111(8)
H79_3 H 0.9166 0.7303 0.7333
C117_3 C 0.8789(5) 0.6945(6) 0.70729(10)
H81_3 H 0.8638 0.6486 0.7100
N21_8 N 0.8010(6) 0.2233(7) 0.64308(11)
N21_9 N 0.7767(7) 0.5778(4) 0.64308(11)
Ga3_7 Ga 0.0001 0.0000 0.24302(2)
C85_4 C 0.0775(7) 0.2357(6) 0.27732(11)
H58_4 H 0.0740 0.2561 0.2661
C86_4 C 0.1050(7) 0.2743(6) 0.29335(13)
H59_4 H 0.1203 0.3211 0.2931
N20_4 N 0.2870(6) 0.1305(4) 0.18947(9)
C87_4 C 0.2200(6) 0.1085(4) 0.18548(7)
H60_4 H 0.2073 0.1149 0.1733
C88_4 C 0.1715(6) 0.0772(4) 0.19931(9)
H61_4 H 0.1256 0.0621 0.1966
C89_4 C 0.1900(6) 0.0678(5) 0.21712(8)
C90_4 C 0.2570(6) 0.0898(5) 0.22111(8)
H62_4 H 0.2697 0.0834 0.2333
C91_4 C 0.3055(6) 0.1211(5) 0.20729(10)
H63_4 H 0.3514 0.1362 0.2100
Ag14_4 Ag 0.35953(14) 0.17805(8) 0.167657(19)
O16_4 O 0.0436(5) 0.0778(3) 0.25984(8)
C93_4 C 0.0297(9) 0.1257(5) 0.26103(14)
O18_4 O 0.0808(6) 0.0343(3) 0.22738(9)
C95_4 C 0.1423(10) 0.0076(6) 0.24807(18)
H65_4 H 0.1869 0.0187 0.2510
C97_4 C 0.1346(11) 0.0327(7) 0.23076(18)
C98_4 C 0.0878(7) 0.1760(4) 0.31009(11)
H66_4 H 0.0913 0.1556 0.3213
C100_4 C 0.0602(7) 0.1374(3) 0.29406(13)
H68_4 H 0.0449 0.0906 0.2943
C102_4 C 0.0550(7) 0.1673(4) 0.27768(11)
Ga3_8 Ga 0.0001 1.0000 0.24302(2)
O13_4 O 0.0343(4) 0.9564(3) 0.25984(8)
C79_4 C 0.0961(8) 0.9703(6) 0.26103(14)
C82_4 C 0.0883(6) 0.9122(5) 0.31009(11)
H56_4 H 0.0644 0.9087 0.3213
C83_4 C 0.0773(6) 0.9398(5) 0.29406(13)
H57_4 H 0.0458 0.9551 0.2943
C84_4 C 0.1124(6) 0.9450(5) 0.27768(11)
C105_4 C 0.1583(9) 0.9225(7) 0.27732(11)
H71_4 H 0.1822 0.9260 0.2661
C107_4 C 0.1694(9) 0.8950(7) 0.29335(13)
H73_4 H 0.2009 0.8797 0.2931
Ag15_4 Ag 0.82195(14) 0.18149(11) 0.167657(19)
O17_4 O 0.9657(6) 0.0464(5) 0.22738(9)
C94_4 C 0.9924(10) 0.1346(8) 0.24807(18)
H64_4 H 0.9813 0.1681 0.2510
C96_4 C 0.9673(11) 0.1018(9) 0.23076(18)
N21_10 N 0.7767(7) 0.1990(6) 0.14308(11)
N25_4 N 0.8695(7) 0.1564(4) 0.18947(9)
C108_4 C 0.8915(7) 0.1114(4) 0.18548(7)
H74_4 H 0.8851 0.0923 0.1733
C110_4 C 0.9228(7) 0.0942(4) 0.19931(9)
H76_4 H 0.9379 0.0634 0.1966
C112_4 C 0.9322(7) 0.1221(4) 0.21712(8)
C114_4 C 0.9102(7) 0.1671(4) 0.22111(8)
H78_4 H 0.9166 0.1862 0.2333
C116_4 C 0.8789(7) 0.1843(4) 0.20729(10)
H80_4 H 0.8638 0.2151 0.2100
O14_4 O 0.9536(5) 0.9192(4) 0.22738(9)
C80_4 C 0.8654(8) 0.8577(6) 0.24807(18)
H55_4 H 0.8319 0.8131 0.2510
C81_4 C 0.8982(9) 0.8654(6) 0.23076(18)
Ag17_4 Ag 0.81851(11) 0.64047(8) 0.167657(19)
O15_4 O 0.9222(5) 0.9657(4) 0.25984(8)
C92_4 C 0.8743(10) 0.9039(8) 0.26103(14)
C99_4 C 0.8240(8) 0.9117(6) 0.31009(11)
H67_4 H 0.8444 0.9356 0.3213
C101_4 C 0.8626(8) 0.9227(6) 0.29406(13)
H69_4 H 0.9094 0.9542 0.2943
C103_4 C 0.8327(8) 0.8876(6) 0.27768(11)
C104_4 C 0.7643(8) 0.8417(4) 0.27732(11)
H70_4 H 0.7439 0.8178 0.2661
C106_4 C 0.7257(8) 0.8306(3) 0.29335(13)
H72_4 H 0.6789 0.7991 0.2931
N26_4 N 0.8436(7) 0.7130(6) 0.18947(9)
C109_4 C 0.8886(7) 0.7800(6) 0.18548(7)
H75_4 H 0.9077 0.7927 0.1733
C111_4 C 0.9058(7) 0.8285(6) 0.19931(9)
H77_4 H 0.9366 0.8744 0.1966
C113_4 C 0.8779(8) 0.8100(6) 0.21712(8)
C115_4 C 0.8329(8) 0.7430(6) 0.22111(8)
H79_4 H 0.8138 0.7303 0.2333
C117_4 C 0.8157(8) 0.6945(6) 0.20729(10)
H81_4 H 0.7849 0.6486 0.2100
N21_11 N 0.4222(4) 0.2233(7) 0.14308(11)
Ga3_9 Ga 1.0000 0.9999 0.24302(2)
Ga3_10 Ga 1.0000 0.0000 0.24302(2)
N21_12 N 0.8010(6) 0.5778(4) 0.14308(11)
H80_5 H 0.0180 0.5485 0.0434
Ga3_11 Ga 0.6666 0.3334 0.07636(2)
O13_5 O 0.5888(3) 0.2898(3) 0.09318(8)
C79_5 C 0.5409(5) 0.3037(6) 0.09437(14)
O14_5 O 0.6323(3) 0.2526(4) 0.06072(9)
C80_5 C 0.6590(6) 0.1911(6) 0.08141(18)
H55_5 H 0.6479 0.1465 0.0844
C81_5 C 0.6339(7) 0.1988(6) 0.06410(18)
C82_5 C 0.4906(4) 0.2456(5) 0.14343(11)
H56_5 H 0.5110 0.2421 0.1547
C83_5 C 0.5292(3) 0.2732(5) 0.12740(13)
H57_5 H 0.5760 0.2885 0.1277
C84_5 C 0.4993(4) 0.2784(5) 0.11102(11)
C85_5 C 0.8249(4) 0.5691(6) 0.11066(11)
H58_5 H 0.8488 0.5895 0.0995
C86_5 C 0.8360(3) 0.6077(6) 0.12669(13)
H59_5 H 0.8675 0.6545 0.1265
C87_5 C 0.5552(4) 0.4419(4) 0.01882(7)
H60_5 H 0.5743 0.4483 0.0067
C88_5 C 0.5724(4) 0.4106(4) 0.03265(9)
H61_5 H 0.6032 0.3955 0.0300
C89_5 C 0.5445(4) 0.4012(5) 0.05046(8)
C90_5 C 0.4995(4) 0.4232(5) 0.05445(8)
H62_5 H 0.4804 0.4168 0.0667
C91_5 C 0.4823(4) 0.4545(5) 0.04063(10)
H63_5 H 0.4515 0.4696 0.0434
O15_5 O 0.7102(3) 0.2991(4) 0.09318(8)
O16_5 O 0.7009(4) 0.4112(3) 0.09318(8)
C92_5 C 0.6963(6) 0.2373(8) 0.09437(14)
C93_5 C 0.7627(8) 0.4591(5) 0.09437(14)
O17_5 O 0.7474(4) 0.3798(5) 0.06072(9)
O18_5 O 0.6202(5) 0.3677(3) 0.06072(9)
C94_5 C 0.8089(6) 0.4680(8) 0.08141(18)
C95_5 C 0.5320(8) 0.3410(6) 0.08141(18)
H64_5 H 0.8535 0.5015 0.0844
H65_5 H 0.4985 0.3521 0.0844
C96_5 C 0.8012(6) 0.4352(9) 0.06410(18)
C97_5 C 0.5648(9) 0.3661(7) 0.06410(18)
C98_5 C 0.7549(6) 0.5094(4) 0.14343(11)
C99_5 C 0.7544(5) 0.2451(6) 0.14343(11)
H66_5 H 0.7310 0.4890 0.1547
H67_5 H 0.7579 0.2690 0.1547
C100_5 C 0.7439(6) 0.4708(3) 0.12740(13)
C101_5 C 0.7268(5) 0.2561(6) 0.12740(13)
H68_5 H 0.7124 0.4240 0.1277
H69_5 H 0.7115 0.2876 0.1277
C102_5 C 0.7790(6) 0.5007(4) 0.11102(11)
C103_5 C 0.7216(5) 0.2210(6) 0.11102(11)
C104_5 C 0.7441(7) 0.1751(4) 0.11066(11)
C105_5 C 0.4309(6) 0.2559(7) 0.11066(11)
H70_5 H 0.7406 0.1512 0.0995
H71_5 H 0.4105 0.2594 0.0995
C106_5 C 0.7716(7) 0.1640(3) 0.12669(13)
C107_5 C 0.3923(6) 0.2284(7) 0.12669(13)
H72_5 H 0.7869 0.1325 0.1265
H73_5 H 0.3455 0.2131 0.1265
C108_5 C 0.8866(6) 0.4448(4) 0.01882(7)
C109_5 C 0.5581(4) 0.1134(6) 0.01882(7)
H74_5 H 0.8739 0.4257 0.0067
H75_5 H 0.5517 0.1261 0.0067
C110_5 C 0.8381(6) 0.4276(4) 0.03265(9)
C111_5 C 0.5894(4) 0.1619(6) 0.03265(9)
H76_5 H 0.7922 0.3968 0.0300
H77_5 H 0.6045 0.2078 0.0300
C112_5 C 0.8566(6) 0.4555(4) 0.05046(8)
C113_5 C 0.5988(5) 0.1434(6) 0.05046(8)
C114_5 C 0.9236(6) 0.5005(4) 0.05445(8)
C115_5 C 0.5768(5) 0.0764(6) 0.05445(8)
H78_5 H 0.9363 0.5196 0.0667
H79_5 H 0.5832 0.0637 0.0667
C116_5 C 0.9721(6) 0.5177(4) 0.04063(10)
C117_5 C 0.5455(5) 0.0279(6) 0.04063(10)
H81_5 H 0.5304 0.9820 0.0434
H63_6 H 0.0180 0.4696 0.5434
Ga3_12 Ga 0.6667 0.3334 0.57636(2)
O13_6 O 0.7009(4) 0.2898(3) 0.59318(8)
C79_6 C 0.7627(8) 0.3037(6) 0.59437(14)
O14_6 O 0.6202(5) 0.2526(4) 0.56072(9)
C80_6 C 0.5320(8) 0.1911(6) 0.58141(18)
H55_6 H 0.4985 0.1465 0.5844
C81_6 C 0.5648(9) 0.1988(6) 0.56410(18)
C82_6 C 0.7549(6) 0.2456(5) 0.64343(11)
H56_6 H 0.7310 0.2421 0.6547
C83_6 C 0.7439(6) 0.2732(5) 0.62740(13)
H57_6 H 0.7124 0.2885 0.6277
C84_6 C 0.7790(6) 0.2784(5) 0.61102(11)
C85_6 C 0.7441(7) 0.5691(6) 0.61066(11)
H58_6 H 0.7406 0.5895 0.5995
C86_6 C 0.7716(7) 0.6077(6) 0.62669(13)
H59_6 H 0.7869 0.6545 0.6265
C87_6 C 0.8866(6) 0.4419(4) 0.51882(7)
H60_6 H 0.8739 0.4483 0.5067
C88_6 C 0.8381(6) 0.4106(4) 0.53265(9)
H61_6 H 0.7922 0.3955 0.5300
C89_6 C 0.8566(6) 0.4012(5) 0.55046(8)
C90_6 C 0.9236(6) 0.4232(5) 0.55445(8)
H62_6 H 0.9363 0.4168 0.5667
C91_6 C 0.9721(6) 0.4545(5) 0.54063(10)
O15_6 O 0.5888(5) 0.2991(4) 0.59318(8)
O16_6 O 0.7102(5) 0.4112(3) 0.59318(8)
C92_6 C 0.5409(10) 0.2373(8) 0.59437(14)
C93_6 C 0.6963(9) 0.4591(5) 0.59437(14)
O17_6 O 0.6323(6) 0.3798(5) 0.56072(9)
O18_6 O 0.7474(6) 0.3677(3) 0.56072(9)
C94_6 C 0.6590(10) 0.4680(8) 0.58141(18)
C95_6 C 0.8089(10) 0.3410(6) 0.58141(18)
H64_6 H 0.6479 0.5015 0.5844
H65_6 H 0.8535 0.3521 0.5844
C96_6 C 0.6339(11) 0.4352(9) 0.56410(18)
C97_6 C 0.8012(11) 0.3661(7) 0.56410(18)
C98_6 C 0.7544(7) 0.5094(4) 0.64343(11)
C99_6 C 0.4906(8) 0.2451(6) 0.64343(11)
H66_6 H 0.7579 0.4890 0.6547
H67_6 H 0.5110 0.2690 0.6547
C100_6 C 0.7268(7) 0.4708(3) 0.62740(13)
C101_6 C 0.5292(8) 0.2561(6) 0.62740(13)
H68_6 H 0.7115 0.4240 0.6277
H69_6 H 0.5760 0.2876 0.6277
C102_6 C 0.7216(7) 0.5007(4) 0.61102(11)
C103_6 C 0.4993(8) 0.2210(6) 0.61102(11)
C104_6 C 0.4309(8) 0.1751(4) 0.61066(11)
C105_6 C 0.8249(9) 0.2559(7) 0.61066(11)
H70_6 H 0.4105 0.1512 0.5995
H71_6 H 0.8488 0.2594 0.5995
C106_6 C 0.3923(8) 0.1640(3) 0.62669(13)
C107_6 C 0.8360(9) 0.2284(7) 0.62669(13)
H72_6 H 0.3455 0.1325 0.6265
H73_6 H 0.8675 0.2131 0.6265
C108_6 C 0.5581(7) 0.4448(4) 0.51882(7)
C109_6 C 0.5552(7) 0.1134(6) 0.51882(7)
H74_6 H 0.5517 0.4257 0.5067
H75_6 H 0.5743 0.1261 0.5067
C110_6 C 0.5894(7) 0.4276(4) 0.53265(9)
C111_6 C 0.5724(7) 0.1619(6) 0.53265(9)
H76_6 H 0.6045 0.3968 0.5300
H77_6 H 0.6032 0.2078 0.5300
C112_6 C 0.5988(7) 0.4555(4) 0.55046(8)
C113_6 C 0.5445(8) 0.1434(6) 0.55046(8)
C114_6 C 0.5768(7) 0.5005(4) 0.55445(8)
C115_6 C 0.4995(8) 0.0764(6) 0.55445(8)
H78_6 H 0.5832 0.5196 0.5667
H79_6 H 0.4804 0.0637 0.5667
C116_6 C 0.5455(7) 0.5177(4) 0.54063(10)
C117_6 C 0.4823(8) 0.0279(6) 0.54063(10)
H80_6 H 0.5304 0.5485 0.5434
H81_6 H 0.4515 0.9820 0.5434
loop_
_geom_bond_atom_site_label_1
_geom_bond_atom_site_label_2
_geom_bond_site_symmetry_1
_geom_bond_site_symmetry_2
Ga1 O1 1_555 1_555
O1 C1 1_555 1_555
O2 Ga1 1_555 1_555
C1 C6 1_555 1_555
C2 H1 1_555 1_555
C3 O2 1_555 1_555
N1 C4 1_555 1_555
C5 C4 1_555 1_555
H3 C5 1_555 1_555
C6 C5 1_555 1_555
C7 H4 1_555 1_555
C8 C7 1_555 1_555
H5 C8 1_555 1_555
N2 C9 1_555 1_555
C9 H6 1_555 1_555
C10 C9 1_555 1_555
H7 C10 1_555 1_555
C11 C10 1_555 1_555
C12 C11 1_555 1_555
H8 C12 1_555 1_555
C13 N2 1_555 1_555
H9 C13 1_555 1_555
Ag2 N2 1_555 1_555
Ag3 N3 1_555 1_555
Ag5 N8 1_555 1_555
Ag6 N5 1_555 1_555
O3 Ga1 1_555 1_555
O4 Ga1 1_555 1_555
O5 Ga1 1_555 1_555
O6 Ga1 1_555 1_555
C14 C2 1_555 1_555
C15 O4 1_555 1_555
C16 C15 1_555 1_555
C17 C1 1_555 1_555
H10 C16 1_555 1_555
H11 C17 1_555 1_555
C18 O5 1_555 1_555
C19 C11 1_555 1_555
N4 C8 1_555 1_555
N5 C21 1_555 1_555
C20 N4 1_555 1_555
C21 H13 1_555 1_555
C22 C20 1_555 1_555
C23 C21 1_555 1_555
H14 C22 1_555 1_555
H15 C23 1_555 1_555
C24 C7 1_555 1_555
C25 C14 1_555 1_555
C26 C25 1_555 1_555
C27 C6 1_555 1_555
H16 C26 1_555 1_555
H17 C27 1_555 1_555
C28 N5 1_555 1_555
C29 N1 1_555 1_555
H18 C28 1_555 1_555
H19 C29 1_555 1_555
N7 Ag3 1_555 1_555
N8 C31 1_555 1_555
N9 Ag6 1_555 1_555
C30 N7 1_555 1_555
C31 H21 1_555 1_555
H20 C30 1_555 1_555
C32 C30 1_555 1_555
C33 C31 1_555 1_555
H22 C32 1_555 1_555
H23 C33 1_555 1_555
C34 C18 1_555 1_555
C35 C3 1_555 1_555
C36 C34 1_555 1_555
C37 C35 1_555 1_555
H24 C36 1_555 1_555
H25 C37 1_555 1_555
C38 N7 1_555 1_555
C39 N8 1_555 1_555
H26 C38 1_555 1_555
H27 C39 1_555 1_555
C2 C3 1_555 1_555
C12 C13 1_555 1_555
O3 C14 1_555 1_555
O6 C19 1_555 1_555
C15 C24 1_555 1_555
C16 C18 1_555 1_555
C17 C19 1_555 1_555
C22 C24 1_555 1_555
C23 C25 1_555 1_555
C26 C28 1_555 1_555
C27 C29 1_555 1_555
C32 C34 1_555 1_555
C33 C35 1_555 1_555
C36 C38 1_555 1_555
C37 C39 1_555 1_555
N6 Ag1 1_555 1_555
N9_2 Ag4 1_555 1_555
Ag2 N3_2 1_555 1_555
Ag5 N3_3 1_555 1_555
Ag1_2 N1_2 1_555 1_555
Ga1_2 O1_2 1_555 1_555
O1_2 C1_2 1_555 1_555
O2_2 Ga1_2 1_555 1_555
C1_2 C6_2 1_555 1_555
C2_2 H1_2 1_555 1_555
C3_2 O2_2 1_555 1_555
N1_2 C4_2 1_555 1_555
C4_2 H2_2 1_555 1_555
C5_2 C4_2 1_555 1_555
H3_2 C5_2 1_555 1_555
C6_2 C5_2 1_555 1_555
C7_2 H4_2 1_555 1_555
C8_2 C7_2 1_555 1_555
H5_2 C8_2 1_555 1_555
N2_2 C9_2 1_555 1_555
C9_2 H6_2 1_555 1_555
C10_2 C9_2 1_555 1_555
H7_2 C10_2 1_555 1_555
C11_2 C10_2 1_555 1_555
C12_2 C11_2 1_555 1_555
H8_2 C12_2 1_555 1_555
C13_2 N2_2 1_555 1_555
H9_2 C13_2 1_555 1_555
Ag2_2 N2_2 1_555 1_555
Ag3_2 N3_4 1_555 1_555
Ag5_2 N8_2 1_555 1_555
O3_2 Ga1_2 1_555 1_555
O4_2 Ga1_2 1_555 1_555
O5_2 Ga1_2 1_555 1_555
O6_2 Ga1_2 1_555 1_555
C14_2 C2_2 1_555 1_555
C15_2 O4_2 1_555 1_555
C16_2 C15_2 1_555 1_555
C17_2 C1_2 1_555 1_555
H10_2 C16_2 1_555 1_555
H11_2 C17_2 1_555 1_555
C18_2 O5_2 1_555 1_555
C19_2 C11_2 1_555 1_555
N4_2 C8_2 1_555 1_555
N5_2 C21_2 1_555 1_555
C20_2 N4_2 1_555 1_555
C22_2 C20_2 1_555 1_555
C23_2 C21_2 1_555 1_555
H14_2 C22_2 1_555 1_555
H15_2 C23_2 1_555 1_555
C24_2 C7_2 1_555 1_555
C25_2 C14_2 1_555 1_555
C26_2 C25_2 1_555 1_555
C27_2 C6_2 1_555 1_555
H16_2 C26_2 1_555 1_555
H17_2 C27_2 1_555 1_555
C28_2 N5_2 1_555 1_555
C29_2 N1_2 1_555 1_555
H18_2 C28_2 1_555 1_555
H19_2 C29_2 1_555 1_555
N6_2 Ag1_2 1_555 1_555
N7_2 Ag3_2 1_555 1_555
N8_2 C31_2 1_555 1_555
C30_2 N7_2 1_555 1_555
C31_2 H21_2 1_555 1_555
H20_2 C30_2 1_555 1_555
C32_2 C30_2 1_555 1_555
C33_2 C31_2 1_555 1_555
H22_2 C32_2 1_555 1_555
H23_2 C33_2 1_555 1_555
C34_2 C18_2 1_555 1_555
C35_2 C3_2 1_555 1_555
C36_2 C34_2 1_555 1_555
C37_2 C35_2 1_555 1_555
H24_2 C36_2 1_555 1_555
H25_2 C37_2 1_555 1_555
C38_2 N7_2 1_555 1_555
C39_2 N8_2 1_555 1_555
H26_2 C38_2 1_555 1_555
H27_2 C39_2 1_555 1_555
C2_2 C3_2 1_555 1_555
C12_2 C13_2 1_555 1_555
O3_2 C14_2 1_555 1_555
O6_2 C19_2 1_555 1_555
C15_2 C24_2 1_555 1_555
C16_2 C18_2 1_555 1_555
C17_2 C19_2 1_555 1_555
C22_2 C24_2 1_555 1_555
C23_2 C25_2 1_555 1_555
C26_2 C28_2 1_555 1_555
C27_2 C29_2 1_555 1_555
C32_2 C34_2 1_555 1_555
C33_2 C35_2 1_555 1_555
C36_2 C38_2 1_555 1_555
C37_2 C39_2 1_555 1_555
N9_3 Ag6_2 1_555 1_555
N9_4 Ag4_2 1_555 1_555
Ag2_2 N3_5 1_555 1_555
Ag5_2 N3_6 1_555 1_555
C7_3 H4_3 1_555 1_555
C8_3 C7_3 1_555 1_555
H5_3 C8_3 1_555 1_555
Ag3_3 N3_7 1_555 1_555
O4_3 Ga1_3 1_555 1_555
O5_3 Ga1_3 1_555 1_555
C15_3 O4_3 1_555 1_555
C16_3 C15_3 1_555 1_555
H10_3 C16_3 1_555 1_555
C18_3 O5_3 1_555 1_555
N3_6 C8_3 1_555 1_555
C20_3 N3_6 1_555 1_555
H12_3 C20_3 1_555 1_555
C22_3 C20_3 1_555 1_555
H14_3 C22_3 1_555 1_555
C24_3 C7_3 1_555 1_555
N7_3 Ag3_3 1_555 1_555
C30_3 N7_3 1_555 1_555
H20_3 C30_3 1_555 1_555
C32_3 C30_3 1_555 1_555
H22_3 C32_3 1_555 1_555
C34_3 C18_3 1_555 1_555
C36_3 C34_3 1_555 1_555
H24_3 C36_3 1_555 1_555
C38_3 N7_3 1_555 1_555
H26_3 C38_3 1_555 1_555
C15_3 C24_3 1_555 1_555
C16_3 C18_3 1_555 1_555
C22_3 C24_3 1_555 1_555
C32_3 C34_3 1_555 1_555
C36_3 C38_3 1_555 1_555
C2_3 H1_3 1_555 1_555
O3_3 Ga1_4 1_555 1_555
C14_3 C2_3 1_555 1_555
N3_4 C21_3 1_555 1_555
C21_3 H13_3 1_555 1_555
C23_3 C21_3 1_555 1_555
H15_3 C23_3 1_555 1_555
C25_3 C14_3 1_555 1_555
C26_3 C25_3 1_555 1_555
H16_3 C26_3 1_555 1_555
C28_3 N3_4 1_555 1_555
H18_3 C28_3 1_555 1_555
O3_3 C14_3 1_555 1_555
C23_3 C25_3 1_555 1_555
C26_3 C28_3 1_555 1_555
N2_3 C9_3 1_555 1_555
C9_3 H6_3 1_555 1_555
C10_3 C9_3 1_555 1_555
H7_3 C10_3 1_555 1_555
C11_3 C10_3 1_555 1_555
C12_3 C11_3 1_555 1_555
H8_3 C12_3 1_555 1_555
C13_3 N2_3 1_555 1_555
H9_3 C13_3 1_555 1_555
Ag2_3 N2_3 1_555 1_555
O6_3 Ga1_5 1_555 1_555
C19_3 C11_3 1_555 1_555
C12_3 C13_3 1_555 1_555
O6_3 C19_3 1_555 1_555
Ga1_6 O1_3 1_555 1_555
O1_3 C1_3 1_555 1_555
O2_3 Ga1_6 1_555 1_555
C1_3 C6_3 1_555 1_555
C3_3 O2_3 1_555 1_555
N3_5 C4_3 1_555 1_555
C4_3 H2_3 1_555 1_555
C5_3 C4_3 1_555 1_555
H3_3 C5_3 1_555 1_555
C6_3 C5_3 1_555 1_555
Ag5_3 N8_3 1_555 1_555
C17_3 C1_3 1_555 1_555
H11_3 C17_3 1_555 1_555
C27_3 C6_3 1_555 1_555
H17_3 C27_3 1_555 1_555
C29_3 N3_5 1_555 1_555
H19_3 C29_3 1_555 1_555
N8_3 C31_3 1_555 1_555
C31_3 H21_3 1_555 1_555
C33_3 C31_3 1_555 1_555
H23_3 C33_3 1_555 1_555
C35_3 C3_3 1_555 1_555
C37_3 C35_3 1_555 1_555
H25_3 C37_3 1_555 1_555
C39_3 N8_3 1_555 1_555
H27_3 C39_3 1_555 1_555
C27_3 C29_3 1_555 1_555
C33_3 C35_3 1_555 1_555
C37_3 C39_3 1_555 1_555
Ag2_3 N3_8 1_555 1_555
Ag5_3 N3_9 1_555 1_555
C7_4 H4_4 1_555 1_555
C8_4 C7_4 1_555 1_555
H5_4 C8_4 1_555 1_555
N2_4 C9_4 1_555 1_555
C9_4 H6_4 1_555 1_555
C10_4 C9_4 1_555 1_555
H7_4 C10_4 1_555 1_555
C11_4 C10_4 1_555 1_555
C12_4 C11_4 1_555 1_555
H8_4 C12_4 1_555 1_555
C13_4 N2_4 1_555 1_555
H9_4 C13_4 1_555 1_555
Ag2_4 N2_4 1_555 1_555
O4_4 Ga1_7 1_555 1_555
O6_4 Ga1_7 1_555 1_555
C15_4 O4_4 1_555 1_555
C16_4 C15_4 1_555 1_555
H10_4 C16_4 1_555 1_555
C19_4 C11_4 1_555 1_555
N3_3 C8_4 1_555 1_555
C20_4 N3_3 1_555 1_555
H12_4 C20_4 1_555 1_555
C22_4 C20_4 1_555 1_555
H14_4 C22_4 1_555 1_555
C24_4 C7_4 1_555 1_555
C12_4 C13_4 1_555 1_555
O6_4 C19_4 1_555 1_555
C15_4 C24_4 1_555 1_555
C22_4 C24_4 1_555 1_555
Ga1_8 O1_4 1_555 1_555
O1_4 C1_4 1_555 1_555
C1_4 C6_4 1_555 1_555
N3_2 C4_4 1_555 1_555
C4_4 H2_4 1_555 1_555
C5_4 C4_4 1_555 1_555
H3_4 C5_4 1_555 1_555
C6_4 C5_4 1_555 1_555
C17_4 C1_4 1_555 1_555
H11_4 C17_4 1_555 1_555
C27_4 C6_4 1_555 1_555
H17_4 C27_4 1_555 1_555
C29_4 N3_2 1_555 1_555
H19_4 C29_4 1_555 1_555
C27_4 C29_4 1_555 1_555
Ag3_4 N3_10 1_555 1_555
C18_4 O5_4 1_555 1_555
N7_4 Ag3_4 1_555 1_555
C30_4 N7_4 1_555 1_555
H20_4 C30_4 1_555 1_555
C32_4 C30_4 1_555 1_555
H22_4 C32_4 1_555 1_555
C34_4 C18_4 1_555 1_555
C36_4 C34_4 1_555 1_555
H24_4 C36_4 1_555 1_555
C38_4 N7_4 1_555 1_555
H26_4 C38_4 1_555 1_555
C32_4 C34_4 1_555 1_555
C36_4 C38_4 1_555 1_555
C2_4 H1_4 1_555 1_555
C3_4 O2_4 1_555 1_555
Ag5_4 N8_4 1_555 1_555
C14_4 C2_4 1_555 1_555
N3 C21_4 1_555 1_555
C21_4 H13_4 1_555 1_555
C23_4 C21_4 1_555 1_555
H15_4 C23_4 1_555 1_555
C25_4 C14_4 1_555 1_555
C26_4 C25_4 1_555 1_555
H16_4 C26_4 1_555 1_555
C28_4 N3 1_555 1_555
H18_4 C28_4 1_555 1_555
N8_4 C31_4 1_555 1_555
C31_4 H21_4 1_555 1_555
C33_4 C31_4 1_555 1_555
H23_4 C33_4 1_555 1_555
C35_4 C3_4 1_555 1_555
C37_4 C35_4 1_555 1_555
H25_4 C37_4 1_555 1_555
C39_4 N8_4 1_555 1_555
H27_4 C39_4 1_555 1_555
C2_4 C3_4 1_555 1_555
O3_4 C14_4 1_555 1_555
C23_4 C25_4 1_555 1_555
C26_4 C28_4 1_555 1_555
C33_4 C35_4 1_555 1_555
C37_4 C39_4 1_555 1_555
Ag2_4 N3_11 1_555 1_555
Ga1_9 O3_4 1_555 1_555
O2_4 Ga1_9 1_555 1_555
O5_4 Ga1_10 1_555 1_555
Ag5_4 N3_12 1_555 1_555
O1_5 C1_5 1_555 1_555
C1_5 C6_5 1_555 1_555
N3_11 C4_5 1_555 1_555
C4_5 H2_5 1_555 1_555
C5_5 C4_5 1_555 1_555
H3_5 C5_5 1_555 1_555
C6_5 C5_5 1_555 1_555
C7_5 H4_5 1_555 1_555
C8_5 C7_5 1_555 1_555
H5_5 C8_5 1_555 1_555
C15_5 O4_5 1_555 1_555
N3_12 C8_5 1_555 1_555
N3_10 C21_5 1_555 1_555
C20_5 N3_12 1_555 1_555
C21_5 H13_5 1_555 1_555
H12_5 C20_5 1_555 1_555
C22_5 C20_5 1_555 1_555
C23_5 C21_5 1_555 1_555
H14_5 C22_5 1_555 1_555
H15_5 C23_5 1_555 1_555
C24_5 C7_5 1_555 1_555
C25_5 C14_5 1_555 1_555
C26_5 C25_5 1_555 1_555
C27_5 C6_5 1_555 1_555
H16_5 C26_5 1_555 1_555
H17_5 C27_5 1_555 1_555
C28_5 N3_10 1_555 1_555
C29_5 N3_11 1_555 1_555
H18_5 C28_5 1_555 1_555
H19_5 C29_5 1_555 1_555
O3_5 C14_5 1_555 1_555
C15_5 C24_5 1_555 1_555
C22_5 C24_5 1_555 1_555
C23_5 C25_5 1_555 1_555
C26_5 C28_5 1_555 1_555
C27_5 C29_5 1_555 1_555
O2_5 Ga1_11 1_555 1_555
C2_5 H1_5 1_555 1_555
C3_5 O2_5 1_555 1_555
N6_2 C9_5 1_555 1_555
C9_5 H6_5 1_555 1_555
C10_5 C9_5 1_555 1_555
H7_5 C10_5 1_555 1_555
C11_5 C10_5 1_555 1_555
C12_5 C11_5 1_555 1_555
H8_5 C12_5 1_555 1_555
C13_5 N6_2 1_555 1_555
H9_5 C13_5 1_555 1_555
O5_5 Ga1_11 1_555 1_555
O6_5 Ga1_11 1_555 1_555
H10_5 C16_5 1_555 1_555
H11_5 C17_5 1_555 1_555
C18_5 O5_5 1_555 1_555
C19_5 C11_5 1_555 1_555
N9_4 C31_5 1_555 1_555
C30_5 N9_3 1_555 1_555
C31_5 H21_5 1_555 1_555
H20_5 C30_5 1_555 1_555
C32_5 C30_5 1_555 1_555
C33_5 C31_5 1_555 1_555
H22_5 C32_5 1_555 1_555
H23_5 C33_5 1_555 1_555
C34_5 C18_5 1_555 1_555
C35_5 C3_5 1_555 1_555
C36_5 C34_5 1_555 1_555
C37_5 C35_5 1_555 1_555
H24_5 C36_5 1_555 1_555
H25_5 C37_5 1_555 1_555
C38_5 N9_3 1_555 1_555
C39_5 N9_4 1_555 1_555
H26_5 C38_5 1_555 1_555
H27_5 C39_5 1_555 1_555
C2_5 C3_5 1_555 1_555
C12_5 C13_5 1_555 1_555
O6_5 C19_5 1_555 1_555
C16_5 C18_5 1_555 1_555
C17_5 C19_5 1_555 1_555
C32_5 C34_5 1_555 1_555
C33_5 C35_5 1_555 1_555
C36_5 C38_5 1_555 1_555
C37_5 C39_5 1_555 1_555
Ga1_12 O1_6 1_555 1_555
O1_6 C1_6 1_555 1_555
O2_6 Ga1_12 1_555 1_555
C1_6 C6_6 1_555 1_555
C2_6 H1_6 1_555 1_555
C3_6 O2_6 1_555 1_555
N3_8 C4_6 1_555 1_555
C4_6 H2_6 1_555 1_555
C5_6 C4_6 1_555 1_555
H3_6 C5_6 1_555 1_555
C6_6 C5_6 1_555 1_555
C7_6 H4_6 1_555 1_555
C8_6 C7_6 1_555 1_555
H5_6 C8_6 1_555 1_555
N6 C9_6 1_555 1_555
C9_6 H6_6 1_555 1_555
C10_6 C9_6 1_555 1_555
H7_6 C10_6 1_555 1_555
C11_6 C10_6 1_555 1_555
C12_6 C11_6 1_555 1_555
H8_6 C12_6 1_555 1_555
C13_6 N6 1_555 1_555
H9_6 C13_6 1_555 1_555
O3_6 Ga1_12 1_555 1_555
O4_6 Ga1_12 1_555 1_555
O5_6 Ga1_12 1_555 1_555
O6_6 Ga1_12 1_555 1_555
C14_6 C2_6 1_555 1_555
C15_6 O4_6 1_555 1_555
C16_6 C15_6 1_555 1_555
C17_6 C1_6 1_555 1_555
H10_6 C16_6 1_555 1_555
H11_6 C17_6 1_555 1_555
C18_6 O5_6 1_555 1_555
C19_6 C11_6 1_555 1_555
N3_9 C8_6 1_555 1_555
N3_7 C21_6 1_555 1_555
C20_6 N3_9 1_555 1_555
C21_6 H13_6 1_555 1_555
H12_6 C20_6 1_555 1_555
C22_6 C20_6 1_555 1_555
C23_6 C21_6 1_555 1_555
H14_6 C22_6 1_555 1_555
H15_6 C23_6 1_555 1_555
C24_6 C7_6 1_555 1_555
C25_6 C14_6 1_555 1_555
C26_6 C25_6 1_555 1_555
C27_6 C6_6 1_555 1_555
H16_6 C26_6 1_555 1_555
H17_6 C27_6 1_555 1_555
C28_6 N3_7 1_555 1_555
C29_6 N3_8 1_555 1_555
H18_6 C28_6 1_555 1_555
H19_6 C29_6 1_555 1_555
N9_2 C31_6 1_555 1_555
C30_6 N9 1_555 1_555
C31_6 H21_6 1_555 1_555
H20_6 C30_6 1_555 1_555
C32_6 C30_6 1_555 1_555
C33_6 C31_6 1_555 1_555
H22_6 C32_6 1_555 1_555
H23_6 C33_6 1_555 1_555
C34_6 C18_6 1_555 1_555
C35_6 C3_6 1_555 1_555
C36_6 C34_6 1_555 1_555
C37_6 C35_6 1_555 1_555
H24_6 C36_6 1_555 1_555
H25_6 C37_6 1_555 1_555
C38_6 N9 1_555 1_555
C39_6 N9_2 1_555 1_555
H26_6 C38_6 1_555 1_555
H27_6 C39_6 1_555 1_555
C2_6 C3_6 1_555 1_555
C12_6 C13_6 1_555 1_555
O3_6 C14_6 1_555 1_555
O6_6 C19_6 1_555 1_555
C15_6 C24_6 1_555 1_555
C16_6 C18_6 1_555 1_555
C17_6 C19_6 1_555 1_555
C22_6 C24_6 1_555 1_555
C23_6 C25_6 1_555 1_555
C26_6 C28_6 1_555 1_555
C27_6 C29_6 1_555 1_555
C32_6 C34_6 1_555 1_555
C33_6 C35_6 1_555 1_555
C36_6 C38_6 1_555 1_555
C37_6 C39_6 1_555 1_555
Ga2 O7 1_555 1_555
O7 C40 1_555 1_555
O8 Ga2 1_555 1_555
C40 C45 1_555 1_555
C41 H28 1_555 1_555
C42 O8 1_555 1_555
N10 C43 1_555 1_555
C44 C43 1_555 1_555
H30 C44 1_555 1_555
C45 C44 1_555 1_555
C46 H31 1_555 1_555
C47 C46 1_555 1_555
H32 C47 1_555 1_555
N11 C48 1_555 1_555
C48 H33 1_555 1_555
C49 C48 1_555 1_555
H34 C49 1_555 1_555
C50 C49 1_555 1_555
C51 C50 1_555 1_555
H35 C51 1_555 1_555
C52 N11 1_555 1_555
H36 C52 1_555 1_555
Ag8 N11 1_555 1_555
Ag9 N12 1_555 1_555
Ag11 N17 1_555 1_555
Ag12 N14 1_555 1_555
O9 Ga2 1_555 1_555
O10 Ga2 1_555 1_555
O11 Ga2 1_555 1_555
O12 Ga2 1_555 1_555
C53 C41 1_555 1_555
C54 O10 1_555 1_555
C55 C54 1_555 1_555
C56 C40 1_555 1_555
H37 C55 1_555 1_555
H38 C56 1_555 1_555
C57 O11 1_555 1_555
C58 C50 1_555 1_555
N13 C47 1_555 1_555
N14 C60 1_555 1_555
C59 N13 1_555 1_555
C60 H40 1_555 1_555
C61 C59 1_555 1_555
C62 C60 1_555 1_555
H41 C61 1_555 1_555
H42 C62 1_555 1_555
C63 C46 1_555 1_555
C64 C53 1_555 1_555
C65 C64 1_555 1_555
C66 C45 1_555 1_555
H43 C65 1_555 1_555
H44 C66 1_555 1_555
C67 N14 1_555 1_555
C68 N10 1_555 1_555
H45 C67 1_555 1_555
H46 C68 1_555 1_555
N16 Ag9 1_555 1_555
N17 C70 1_555 1_555
N18 Ag12 1_555 1_555
C69 N16 1_555 1_555
C70 H48 1_555 1_555
H47 C69 1_555 1_555
C71 C69 1_555 1_555
C72 C70 1_555 1_555
H49 C71 1_555 1_555
H50 C72 1_555 1_555
C73 C57 1_555 1_555
C74 C42 1_555 1_555
C75 C73 1_555 1_555
C76 C74 1_555 1_555
H51 C75 1_555 1_555
H52 C76 1_555 1_555
C77 N16 1_555 1_555
C78 N17 1_555 1_555
H53 C77 1_555 1_555
H54 C78 1_555 1_555
C41 C42 1_555 1_555
C51 C52 1_555 1_555
O9 C53 1_555 1_555
O12 C58 1_555 1_555
C54 C63 1_555 1_555
C55 C57 1_555 1_555
C56 C58 1_555 1_555
C61 C63 1_555 1_555
C62 C64 1_555 1_555
C65 C67 1_555 1_555
C66 C68 1_555 1_555
C71 C73 1_555 1_555
C72 C74 1_555 1_555
C75 C77 1_555 1_555
C76 C78 1_555 1_555
N15 Ag7 1_555 1_555
N18_2 Ag10 1_555 1_555
Ag8 N12_2 1_555 1_555
Ag11 N12_3 1_555 1_555
Ag7_2 N10_2 1_555 1_555
Ga2_2 O7_2 1_555 1_555
O7_2 C40_2 1_555 1_555
O8_2 Ga2_2 1_555 1_555
C40_2 C45_2 1_555 1_555
C41_2 H28_2 1_555 1_555
C42_2 O8_2 1_555 1_555
N10_2 C43_2 1_555 1_555
C43_2 H29_2 1_555 1_555
C44_2 C43_2 1_555 1_555
H30_2 C44_2 1_555 1_555
C45_2 C44_2 1_555 1_555
C46_2 H31_2 1_555 1_555
C47_2 C46_2 1_555 1_555
H32_2 C47_2 1_555 1_555
N11_2 C48_2 1_555 1_555
C48_2 H33_2 1_555 1_555
C49_2 C48_2 1_555 1_555
H34_2 C49_2 1_555 1_555
C50_2 C49_2 1_555 1_555
C51_2 C50_2 1_555 1_555
H35_2 C51_2 1_555 1_555
C52_2 N11_2 1_555 1_555
H36_2 C52_2 1_555 1_555
Ag8_2 N11_2 1_555 1_555
Ag9_2 N12_4 1_555 1_555
Ag11_2 N17_2 1_555 1_555
O9_2 Ga2_2 1_555 1_555
O10_2 Ga2_2 1_555 1_555
O11_2 Ga2_2 1_555 1_555
O12_2 Ga2_2 1_555 1_555
C53_2 C41_2 1_555 1_555
C54_2 O10_2 1_555 1_555
C55_2 C54_2 1_555 1_555
C56_2 C40_2 1_555 1_555
H37_2 C55_2 1_555 1_555
H38_2 C56_2 1_555 1_555
C57_2 O11_2 1_555 1_555
C58_2 C50_2 1_555 1_555
N13_2 C47_2 1_555 1_555
N14_2 C60_2 1_555 1_555
C59_2 N13_2 1_555 1_555
C61_2 C59_2 1_555 1_555
C62_2 C60_2 1_555 1_555
H41_2 C61_2 1_555 1_555
H42_2 C62_2 1_555 1_555
C63_2 C46_2 1_555 1_555
C64_2 C53_2 1_555 1_555
C65_2 C64_2 1_555 1_555
C66_2 C45_2 1_555 1_555
H43_2 C65_2 1_555 1_555
H44_2 C66_2 1_555 1_555
C67_2 N14_2 1_555 1_555
C68_2 N10_2 1_555 1_555
H45_2 C67_2 1_555 1_555
H46_2 C68_2 1_555 1_555
N15_2 Ag7_2 1_555 1_555
N16_2 Ag9_2 1_555 1_555
N17_2 C70_2 1_555 1_555
C69_2 N16_2 1_555 1_555
C70_2 H48_2 1_555 1_555
H47_2 C69_2 1_555 1_555
C71_2 C69_2 1_555 1_555
C72_2 C70_2 1_555 1_555
H49_2 C71_2 1_555 1_555
H50_2 C72_2 1_555 1_555
C73_2 C57_2 1_555 1_555
C74_2 C42_2 1_555 1_555
C75_2 C73_2 1_555 1_555
C76_2 C74_2 1_555 1_555
H51_2 C75_2 1_555 1_555
H52_2 C76_2 1_555 1_555
C77_2 N16_2 1_555 1_555
C78_2 N17_2 1_555 1_555
H53_2 C77_2 1_555 1_555
H54_2 C78_2 1_555 1_555
C41_2 C42_2 1_555 1_555
C51_2 C52_2 1_555 1_555
O9_2 C53_2 1_555 1_555
O12_2 C58_2 1_555 1_555
C54_2 C63_2 1_555 1_555
C55_2 C57_2 1_555 1_555
C56_2 C58_2 1_555 1_555
C61_2 C63_2 1_555 1_555
C62_2 C64_2 1_555 1_555
C65_2 C67_2 1_555 1_555
C66_2 C68_2 1_555 1_555
C71_2 C73_2 1_555 1_555
C72_2 C74_2 1_555 1_555
C75_2 C77_2 1_555 1_555
C76_2 C78_2 1_555 1_555
N18_3 Ag12_2 1_555 1_555
N18_4 Ag10_2 1_555 1_555
Ag8_2 N12_5 1_555 1_555
Ag11_2 N12_6 1_555 1_555
C46_3 H31_3 1_555 1_555
C47_3 C46_3 1_555 1_555
H32_3 C47_3 1_555 1_555
Ag9_3 N12_7 1_555 1_555
O10_3 Ga2_3 1_555 1_555
O11_3 Ga2_3 1_555 1_555
C54_3 O10_3 1_555 1_555
C55_3 C54_3 1_555 1_555
H37_3 C55_3 1_555 1_555
C57_3 O11_3 1_555 1_555
N12_6 C47_3 1_555 1_555
C59_3 N12_6 1_555 1_555
H39_3 C59_3 1_555 1_555
C61_3 C59_3 1_555 1_555
H41_3 C61_3 1_555 1_555
C63_3 C46_3 1_555 1_555
N16_3 Ag9_3 1_555 1_555
C69_3 N16_3 1_555 1_555
H47_3 C69_3 1_555 1_555
C71_3 C69_3 1_555 1_555
H49_3 C71_3 1_555 1_555
C73_3 C57_3 1_555 1_555
C75_3 C73_3 1_555 1_555
H51_3 C75_3 1_555 1_555
C77_3 N16_3 1_555 1_555
H53_3 C77_3 1_555 1_555
C54_3 C63_3 1_555 1_555
C55_3 C57_3 1_555 1_555
C61_3 C63_3 1_555 1_555
C71_3 C73_3 1_555 1_555
C75_3 C77_3 1_555 1_555
C41_3 H28_3 1_555 1_555
O9_3 Ga2_4 1_555 1_555
C53_3 C41_3 1_555 1_555
N12_4 C60_3 1_555 1_555
C60_3 H40_3 1_555 1_555
C62_3 C60_3 1_555 1_555
H42_3 C62_3 1_555 1_555
C64_3 C53_3 1_555 1_555
C65_3 C64_3 1_555 1_555
H43_3 C65_3 1_555 1_555
C67_3 N12_4 1_555 1_555
H45_3 C67_3 1_555 1_555
O9_3 C53_3 1_555 1_555
C62_3 C64_3 1_555 1_555
C65_3 C67_3 1_555 1_555
N11_3 C48_3 1_555 1_555
C48_3 H33_3 1_555 1_555
C49_3 C48_3 1_555 1_555
C50_3 C49_3 1_555 1_555
C51_3 C50_3 1_555 1_555
H35_3 C51_3 1_555 1_555
C52_3 N11_3 1_555 1_555
H36_3 C52_3 1_555 1_555
Ag8_3 N11_3 1_555 1_555
O12_3 Ga2_5 1_555 1_555
C58_3 C50_3 1_555 1_555
C51_3 C52_3 1_555 1_555
O12_3 C58_3 1_555 1_555
Ga2_6 O7_3 1_555 1_555
O7_3 C40_3 1_555 1_555
O8_3 Ga2_6 1_555 1_555
C40_3 C45_3 1_555 1_555
C42_3 O8_3 1_555 1_555
N12_5 C43_3 1_555 1_555
C43_3 H29_3 1_555 1_555
C44_3 C43_3 1_555 1_555
H30_3 C44_3 1_555 1_555
C45_3 C44_3 1_555 1_555
Ag11_3 N17_3 1_555 1_555
C56_3 C40_3 1_555 1_555
H38_3 C56_3 1_555 1_555
C66_3 C45_3 1_555 1_555
H44_3 C66_3 1_555 1_555
C68_3 N12_5 1_555 1_555
H46_3 C68_3 1_555 1_555
N17_3 C70_3 1_555 1_555
C70_3 H48_3 1_555 1_555
C72_3 C70_3 1_555 1_555
C74_3 C42_3 1_555 1_555
C76_3 C74_3 1_555 1_555
H52_3 C76_3 1_555 1_555
C78_3 N17_3 1_555 1_555
H54_3 C78_3 1_555 1_555
C66_3 C68_3 1_555 1_555
C72_3 C74_3 1_555 1_555
C76_3 C78_3 1_555 1_555
Ag8_3 N12_8 1_555 1_555
Ag11_3 N12_9 1_555 1_555
C46_4 H31_4 1_555 1_555
C47_4 C46_4 1_555 1_555
H32_4 C47_4 1_555 1_555
C49_4 C48_4 1_555 1_555
C50_4 C49_4 1_555 1_555
C51_4 C50_4 1_555 1_555
H35_4 C51_4 1_555 1_555
O10_4 Ga2_7 1_555 1_555
O12_4 Ga2_7 1_555 1_555
C54_4 O10_4 1_555 1_555
C55_4 C54_4 1_555 1_555
H37_4 C55_4 1_555 1_555
C58_4 C50_4 1_555 1_555
N12_3 C47_4 1_555 1_555
C59_4 N12_3 1_555 1_555
H39_4 C59_4 1_555 1_555
C61_4 C59_4 1_555 1_555
H41_4 C61_4 1_555 1_555
C63_4 C46_4 1_555 1_555
C51_4 C52_4 1_555 1_555
O12_4 C58_4 1_555 1_555
C54_4 C63_4 1_555 1_555
C61_4 C63_4 1_555 1_555
Ag8_4 N11_4 1_555 1_555
Ga2_8 O7_4 1_555 1_555
O7_4 C40_4 1_555 1_555
C40_4 C45_4 1_555 1_555
N12_2 C43_4 1_555 1_555
C43_4 H29_4 1_555 1_555
C44_4 C43_4 1_555 1_555
H30_4 C44_4 1_555 1_555
C45_4 C44_4 1_555 1_555
C56_4 C40_4 1_555 1_555
H38_4 C56_4 1_555 1_555
C66_4 C45_4 1_555 1_555
H44_4 C66_4 1_555 1_555
C68_4 N12_2 1_555 1_555
H46_4 C68_4 1_555 1_555
C66_4 C68_4 1_555 1_555
Ag9_4 N12_10 1_555 1_555
N16_4 Ag9_4 1_555 1_555
C41_4 H28_4 1_555 1_555
C42_4 O8_4 1_555 1_555
C53_4 C41_4 1_555 1_555
N12 C60_4 1_555 1_555
C60_4 H40_4 1_555 1_555
C62_4 C60_4 1_555 1_555
H42_4 C62_4 1_555 1_555
C64_4 C53_4 1_555 1_555
C65_4 C64_4 1_555 1_555
H43_4 C65_4 1_555 1_555
C67_4 N12 1_555 1_555
H45_4 C67_4 1_555 1_555
C72_4 C70_4 1_555 1_555
H50_4 C72_4 1_555 1_555
C74_4 C42_4 1_555 1_555
C76_4 C74_4 1_555 1_555
H52_4 C76_4 1_555 1_555
C41_4 C42_4 1_555 1_555
O9_4 C53_4 1_555 1_555
C62_4 C64_4 1_555 1_555
C65_4 C67_4 1_555 1_555
C72_4 C74_4 1_555 1_555
C76_4 C78_4 1_555 1_555
Ag11_4 N17_4 1_555 1_555
Ag8_4 N12_11 1_555 1_555
Ga2_9 O9_4 1_555 1_555
O8_4 Ga2_9 1_555 1_555
Ag11_4 N12_12 1_555 1_555
Ga2_10 O7_5 1_555 1_555
O7_5 C40_5 1_555 1_555
O8_5 Ga2_10 1_555 1_555
C40_5 C45_5 1_555 1_555
C41_5 H28_5 1_555 1_555
C42_5 O8_5 1_555 1_555
N12_11 C43_5 1_555 1_555
C43_5 H29_5 1_555 1_555
C44_5 C43_5 1_555 1_555
H30_5 C44_5 1_555 1_555
C45_5 C44_5 1_555 1_555
C46_5 H31_5 1_555 1_555
C47_5 C46_5 1_555 1_555
H32_5 C47_5 1_555 1_555
N15_2 C48_5 1_555 1_555
C48_5 H33_5 1_555 1_555
C49_5 C48_5 1_555 1_555
H34_5 C49_5 1_555 1_555
C50_5 C49_5 1_555 1_555
C51_5 C50_5 1_555 1_555
H35_5 C51_5 1_555 1_555
C52_5 N15_2 1_555 1_555
H36_5 C52_5 1_555 1_555
O9_5 Ga2_10 1_555 1_555
O10_5 Ga2_10 1_555 1_555
O11_4 Ga2_10 1_555 1_555
O12_5 Ga2_10 1_555 1_555
C53_5 C41_5 1_555 1_555
C54_5 O10_5 1_555 1_555
C55_5 C54_5 1_555 1_555
C56_5 C40_5 1_555 1_555
H37_5 C55_5 1_555 1_555
H38_5 C56_5 1_555 1_555
C57_4 O11_4 1_555 1_555
C58_5 C50_5 1_555 1_555
N12_12 C47_5 1_555 1_555
N12_10 C60_5 1_555 1_555
C59_5 N12_12 1_555 1_555
C60_5 H40_5 1_555 1_555
H39_5 C59_5 1_555 1_555
C61_5 C59_5 1_555 1_555
C62_5 C60_5 1_555 1_555
H41_5 C61_5 1_555 1_555
H42_5 C62_5 1_555 1_555
C63_5 C46_5 1_555 1_555
C64_5 C53_5 1_555 1_555
C65_5 C64_5 1_555 1_555
C66_5 C45_5 1_555 1_555
H43_5 C65_5 1_555 1_555
H44_5 C66_5 1_555 1_555
C67_5 N12_10 1_555 1_555
C68_5 N12_11 1_555 1_555
H45_5 C67_5 1_555 1_555
H46_5 C68_5 1_555 1_555
N18_4 C70_5 1_555 1_555
C69_4 N18_3 1_555 1_555
C70_5 H48_5 1_555 1_555
H47_5 C69_4 1_555 1_555
C71_4 C69_4 1_555 1_555
C72_5 C70_5 1_555 1_555
H49_5 C71_4 1_555 1_555
H50_5 C72_5 1_555 1_555
C73_4 C57_4 1_555 1_555
C74_5 C42_5 1_555 1_555
C75_4 C73_4 1_555 1_555
C76_5 C74_5 1_555 1_555
H51_4 C75_4 1_555 1_555
H52_5 C76_5 1_555 1_555
C77_4 N18_3 1_555 1_555
C78_5 N18_4 1_555 1_555
H53_5 C77_4 1_555 1_555
H54_5 C78_5 1_555 1_555
C41_5 C42_5 1_555 1_555
C51_5 C52_5 1_555 1_555
O9_5 C53_5 1_555 1_555
O12_5 C58_5 1_555 1_555
C54_5 C63_5 1_555 1_555
C55_5 C57_4 1_555 1_555
C56_5 C58_5 1_555 1_555
C61_5 C63_5 1_555 1_555
C62_5 C64_5 1_555 1_555
C65_5 C67_5 1_555 1_555
C66_5 C68_5 1_555 1_555
C71_4 C73_4 1_555 1_555
C72_5 C74_5 1_555 1_555
C75_4 C77_4 1_555 1_555
C76_5 C78_5 1_555 1_555
Ga2_11 O7_6 1_555 1_555
O7_6 C40_6 1_555 1_555
O8_6 Ga2_11 1_555 1_555
C40_6 C45_6 1_555 1_555
C41_6 H28_6 1_555 1_555
C42_6 O8_6 1_555 1_555
N12_8 C43_6 1_555 1_555
C43_6 H29_6 1_555 1_555
C44_6 C43_6 1_555 1_555
H30_6 C44_6 1_555 1_555
C45_6 C44_6 1_555 1_555
C46_6 H31_6 1_555 1_555
C47_6 C46_6 1_555 1_555
H32_6 C47_6 1_555 1_555
N15 C48_6 1_555 1_555
C48_6 H33_6 1_555 1_555
C49_6 C48_6 1_555 1_555
H34_6 C49_6 1_555 1_555
C50_6 C49_6 1_555 1_555
C51_6 C50_6 1_555 1_555
H35_6 C51_6 1_555 1_555
C52_6 N15 1_555 1_555
H36_6 C52_6 1_555 1_555
O9_6 Ga2_11 1_555 1_555
O10_6 Ga2_11 1_555 1_555
O11_5 Ga2_11 1_555 1_555
O12_6 Ga2_11 1_555 1_555
C53_6 C41_6 1_555 1_555
C54_6 O10_6 1_555 1_555
C55_6 C54_6 1_555 1_555
C56_6 C40_6 1_555 1_555
H37_6 C55_6 1_555 1_555
H38_6 C56_6 1_555 1_555
C57_5 O11_5 1_555 1_555
C58_6 C50_6 1_555 1_555
N12_9 C47_6 1_555 1_555
N12_7 C60_6 1_555 1_555
C59_6 N12_9 1_555 1_555
C60_6 H40_6 1_555 1_555
H39_6 C59_6 1_555 1_555
C61_6 C59_6 1_555 1_555
C62_6 C60_6 1_555 1_555
H41_6 C61_6 1_555 1_555
H42_6 C62_6 1_555 1_555
C63_6 C46_6 1_555 1_555
C64_6 C53_6 1_555 1_555
C65_6 C64_6 1_555 1_555
C66_6 C45_6 1_555 1_555
H43_6 C65_6 1_555 1_555
H44_6 C66_6 1_555 1_555
C67_6 N12_7 1_555 1_555
C68_6 N12_8 1_555 1_555
H45_6 C67_6 1_555 1_555
H46_6 C68_6 1_555 1_555
N18_2 C70_6 1_555 1_555
C69_5 N18 1_555 1_555
C70_6 H48_6 1_555 1_555
H47_6 C69_5 1_555 1_555
C71_5 C69_5 1_555 1_555
C72_6 C70_6 1_555 1_555
H49_6 C71_5 1_555 1_555
H50_6 C72_6 1_555 1_555
C73_5 C57_5 1_555 1_555
C74_6 C42_6 1_555 1_555
C75_5 C73_5 1_555 1_555
C76_6 C74_6 1_555 1_555
H51_5 C75_5 1_555 1_555
H52_6 C76_6 1_555 1_555
C77_5 N18 1_555 1_555
C78_6 N18_2 1_555 1_555
H53_6 C77_5 1_555 1_555
H54_6 C78_6 1_555 1_555
C41_6 C42_6 1_555 1_555
C51_6 C52_6 1_555 1_555
O9_6 C53_6 1_555 1_555
O12_6 C58_6 1_555 1_555
C54_6 C63_6 1_555 1_555
C55_6 C57_5 1_555 1_555
C56_6 C58_6 1_555 1_555
C61_6 C63_6 1_555 1_555
C62_6 C64_6 1_555 1_555
C65_6 C67_6 1_555 1_555
C66_6 C68_6 1_555 1_555
C71_5 C73_5 1_555 1_555
C72_6 C74_6 1_555 1_555
C75_5 C77_5 1_555 1_555
C76_6 C78_6 1_555 1_555
C57_6 O11_6 1_555 1_555
C71_6 C69_6 1_555 1_555
C73_6 C57_6 1_555 1_555
C75_6 C73_6 1_555 1_555
H51_6 C75_6 1_555 1_555
C71_6 C73_6 1_555 1_555
C75_6 C77_6 1_555 1_555
O11_6 Ga2_12 1_555 1_555
Ag13 N19 1_555 1_555
Ga3 O13 1_555 1_555
O13 C79 1_555 1_555
C79 C84 1_555 1_555
O14 Ga3 1_555 1_555
C80 H55 1_555 1_555
C81 O14 1_555 1_555
N19 C82 1_555 1_555
C82 H56 1_555 1_555
C83 C82 1_555 1_555
H57 C83 1_555 1_555
C84 C83 1_555 1_555
C85 H58 1_555 1_555
C86 C85 1_555 1_555
H59 C86 1_555 1_555
N20 C87 1_555 1_555
C87 H60 1_555 1_555
C88 C87 1_555 1_555
H61 C88 1_555 1_555
C89 C88 1_555 1_555
C90 C89 1_555 1_555
H62 C90 1_555 1_555
C91 N20 1_555 1_555
H63 C91 1_555 1_555
Ag14 N20 1_555 1_555
Ag15 N21 1_555 1_555
Ag16 N22 1_555 1_555
Ag17 N26 1_555 1_555
Ag18 N23 1_555 1_555
O15 Ga3 1_555 1_555
O16 Ga3 1_555 1_555
C92 C80 1_555 1_555
C93 O16 1_555 1_555
O17 Ga3 1_555 1_555
O18 Ga3 1_555 1_555
C94 C93 1_555 1_555
C95 C79 1_555 1_555
H64 C94 1_555 1_555
H65 C95 1_555 1_555
C96 O17 1_555 1_555
C97 C89 1_555 1_555
N22 C86 1_555 1_555
N23 C99 1_555 1_555
C98 N22 1_555 1_555
C99 H67 1_555 1_555
H66 C98 1_555 1_555
C100 C98 1_555 1_555
C101 C99 1_555 1_555
H68 C100 1_555 1_555
H69 C101 1_555 1_555
C102 C85 1_555 1_555
C103 C92 1_555 1_555
C104 C103 1_555 1_555
C105 C84 1_555 1_555
H70 C104 1_555 1_555
H71 C105 1_555 1_555
C106 N23 1_555 1_555
C107 N19 1_555 1_555
H72 C106 1_555 1_555
H73 C107 1_555 1_555
N25 Ag15 1_555 1_555
N26 C109 1_555 1_555
N27 Ag18 1_555 1_555
C108 N25 1_555 1_555
C109 H75 1_555 1_555
H74 C108 1_555 1_555
C110 C108 1_555 1_555
C111 C109 1_555 1_555
H76 C110 1_555 1_555
H77 C111 1_555 1_555
C112 C96 1_555 1_555
C113 C81 1_555 1_555
C114 C112 1_555 1_555
C115 C113 1_555 1_555
H78 C114 1_555 1_555
H79 C115 1_555 1_555
C116 N25 1_555 1_555
C117 N26 1_555 1_555
H80 C116 1_555 1_555
H81 C117 1_555 1_555
C80 C81 1_555 1_555
C90 C91 1_555 1_555
O15 C92 1_555 1_555
C93 C102 1_555 1_555
O18 C97 1_555 1_555
C94 C96 1_555 1_555
C95 C97 1_555 1_555
C100 C102 1_555 1_555
C101 C103 1_555 1_555
C104 C106 1_555 1_555
C105 C107 1_555 1_555
C110 C112 1_555 1_555
C111 C113 1_555 1_555
C114 C116 1_555 1_555
C115 C117 1_555 1_555
Ag14 N21_2 1_555 1_555
Ag17 N21_3 1_555 1_555
N24_2 Ag13_2 1_555 1_555
Ga3_2 O13_2 1_555 1_555
O13_2 C79_2 1_555 1_555
C79_2 C84_2 1_555 1_555
O14_2 Ga3_2 1_555 1_555
C80_2 H55_2 1_555 1_555
C81_2 O14_2 1_555 1_555
N19_2 C82_2 1_555 1_555
C82_2 H56_2 1_555 1_555
C83_2 C82_2 1_555 1_555
H57_2 C83_2 1_555 1_555
C84_2 C83_2 1_555 1_555
C85_2 H58_2 1_555 1_555
C86_2 C85_2 1_555 1_555
H59_2 C86_2 1_555 1_555
N20_2 C87_2 1_555 1_555
C87_2 H60_2 1_555 1_555
C88_2 C87_2 1_555 1_555
H61_2 C88_2 1_555 1_555
C89_2 C88_2 1_555 1_555
C90_2 C89_2 1_555 1_555
H62_2 C90_2 1_555 1_555
C91_2 N20_2 1_555 1_555
H63_2 C91_2 1_555 1_555
Ag14_2 N20_2 1_555 1_555
Ag15_2 N21_4 1_555 1_555
Ag17_2 N26_2 1_555 1_555
O15_2 Ga3_2 1_555 1_555
O16_2 Ga3_2 1_555 1_555
C92_2 C80_2 1_555 1_555
C93_2 O16_2 1_555 1_555
O17_2 Ga3_2 1_555 1_555
O18_2 Ga3_2 1_555 1_555
C94_2 C93_2 1_555 1_555
C95_2 C79_2 1_555 1_555
H64_2 C94_2 1_555 1_555
H65_2 C95_2 1_555 1_555
C96_2 O17_2 1_555 1_555
C97_2 C89_2 1_555 1_555
N22_2 C86_2 1_555 1_555
N23_2 C99_2 1_555 1_555
C98_2 N22_2 1_555 1_555
C99_2 H67_2 1_555 1_555
H66_2 C98_2 1_555 1_555
C100_2 C98_2 1_555 1_555
C101_2 C99_2 1_555 1_555
H68_2 C100_2 1_555 1_555
H69_2 C101_2 1_555 1_555
C102_2 C85_2 1_555 1_555
C103_2 C92_2 1_555 1_555
C104_2 C103_2 1_555 1_555
C105_2 C84_2 1_555 1_555
H70_2 C104_2 1_555 1_555
H71_2 C105_2 1_555 1_555
C106_2 N23_2 1_555 1_555
C107_2 N19_2 1_555 1_555
H72_2 C106_2 1_555 1_555
H73_2 C107_2 1_555 1_555
N25_2 Ag15_2 1_555 1_555
N26_2 C109_2 1_555 1_555
C108_2 N25_2 1_555 1_555
C109_2 H75_2 1_555 1_555
H74_2 C108_2 1_555 1_555
C110_2 C108_2 1_555 1_555
C111_2 C109_2 1_555 1_555
H76_2 C110_2 1_555 1_555
H77_2 C111_2 1_555 1_555
C112_2 C96_2 1_555 1_555
C113_2 C81_2 1_555 1_555
C114_2 C112_2 1_555 1_555
C115_2 C113_2 1_555 1_555
H78_2 C114_2 1_555 1_555
H79_2 C115_2 1_555 1_555
C116_2 N25_2 1_555 1_555
C117_2 N26_2 1_555 1_555
H80_2 C116_2 1_555 1_555
H81_2 C117_2 1_555 1_555
C80_2 C81_2 1_555 1_555
C90_2 C91_2 1_555 1_555
O15_2 C92_2 1_555 1_555
C93_2 C102_2 1_555 1_555
O18_2 C97_2 1_555 1_555
C94_2 C96_2 1_555 1_555
C95_2 C97_2 1_555 1_555
C100_2 C102_2 1_555 1_555
C101_2 C103_2 1_555 1_555
C104_2 C106_2 1_555 1_555
C105_2 C107_2 1_555 1_555
C110_2 C112_2 1_555 1_555
C111_2 C113_2 1_555 1_555
C114_2 C116_2 1_555 1_555
C115_2 C117_2 1_555 1_555
Ag14_2 N21_5 1_555 1_555
Ag17_2 N21_6 1_555 1_555
C85_3 H58_3 1_555 1_555
C86_3 C85_3 1_555 1_555
H59_3 C86_3 1_555 1_555
Ag15_3 N21_7 1_555 1_555
O16_3 Ga3_3 1_555 1_555
C93_3 O16_3 1_555 1_555
O17_3 Ga3_3 1_555 1_555
C94_3 C93_3 1_555 1_555
H64_3 C94_3 1_555 1_555
C96_3 O17_3 1_555 1_555
N21_6 C86_3 1_555 1_555
C98_3 N21_6 1_555 1_555
H66_3 C98_3 1_555 1_555
C100_3 C98_3 1_555 1_555
H68_3 C100_3 1_555 1_555
C102_3 C85_3 1_555 1_555
N25_3 Ag15_3 1_555 1_555
C108_3 N25_3 1_555 1_555
H74_3 C108_3 1_555 1_555
C110_3 C108_3 1_555 1_555
H76_3 C110_3 1_555 1_555
C112_3 C96_3 1_555 1_555
C114_3 C112_3 1_555 1_555
H78_3 C114_3 1_555 1_555
C116_3 N25_3 1_555 1_555
H80_3 C116_3 1_555 1_555
C93_3 C102_3 1_555 1_555
C94_3 C96_3 1_555 1_555
C100_3 C102_3 1_555 1_555
C110_3 C112_3 1_555 1_555
C114_3 C116_3 1_555 1_555
O15_3 Ga3_4 1_555 1_555
N21_4 C99_3 1_555 1_555
C99_3 H67_3 1_555 1_555
C101_3 C99_3 1_555 1_555
H69_3 C101_3 1_555 1_555
C103_3 C92_3 1_555 1_555
C104_3 C103_3 1_555 1_555
H70_3 C104_3 1_555 1_555
C106_3 N21_4 1_555 1_555
H72_3 C106_3 1_555 1_555
O15_3 C92_3 1_555 1_555
C101_3 C103_3 1_555 1_555
C104_3 C106_3 1_555 1_555
N20_3 C87_3 1_555 1_555
C87_3 H60_3 1_555 1_555
C88_3 C87_3 1_555 1_555
H61_3 C88_3 1_555 1_555
C89_3 C88_3 1_555 1_555
C90_3 C89_3 1_555 1_555
H62_3 C90_3 1_555 1_555
C91_3 N20_3 1_555 1_555
H63_3 C91_3 1_555 1_555
Ag14_3 N20_3 1_555 1_555
O18_3 Ga3_5 1_555 1_555
H65_3 C95_3 1_555 1_555
C97_3 C89_3 1_555 1_555
C90_3 C91_3 1_555 1_555
O18_3 C97_3 1_555 1_555
C95_3 C97_3 1_555 1_555
Ga3_6 O13_3 1_555 1_555
O13_3 C79_3 1_555 1_555
C79_3 C84_3 1_555 1_555
O14_3 Ga3_6 1_555 1_555
C80_3 H55_3 1_555 1_555
C81_3 O14_3 1_555 1_555
N21_5 C82_3 1_555 1_555
C82_3 H56_3 1_555 1_555
C83_3 C82_3 1_555 1_555
H57_3 C83_3 1_555 1_555
C84_3 C83_3 1_555 1_555
Ag17_3 N26_3 1_555 1_555
C105_3 C84_3 1_555 1_555
H71_3 C105_3 1_555 1_555
C107_3 N21_5 1_555 1_555
H73_3 C107_3 1_555 1_555
N26_3 C109_3 1_555 1_555
C109_3 H75_3 1_555 1_555
C111_3 C109_3 1_555 1_555
H77_3 C111_3 1_555 1_555
C113_3 C81_3 1_555 1_555
C115_3 C113_3 1_555 1_555
H79_3 C115_3 1_555 1_555
C117_3 N26_3 1_555 1_555
H81_3 C117_3 1_555 1_555
C80_3 C81_3 1_555 1_555
C105_3 C107_3 1_555 1_555
C111_3 C113_3 1_555 1_555
C115_3 C117_3 1_555 1_555
Ag14_3 N21_8 1_555 1_555
Ag17_3 N21_9 1_555 1_555
C85_4 H58_4 1_555 1_555
C86_4 C85_4 1_555 1_555
H59_4 C86_4 1_555 1_555
N20_4 C87_4 1_555 1_555
C87_4 H60_4 1_555 1_555
C88_4 C87_4 1_555 1_555
H61_4 C88_4 1_555 1_555
C89_4 C88_4 1_555 1_555
C90_4 C89_4 1_555 1_555
H62_4 C90_4 1_555 1_555
C91_4 N20_4 1_555 1_555
H63_4 C91_4 1_555 1_555
Ag14_4 N20_4 1_555 1_555
O16_4 Ga3_7 1_555 1_555
C93_4 O16_4 1_555 1_555
O18_4 Ga3_7 1_555 1_555
H65_4 C95_4 1_555 1_555
C97_4 C89_4 1_555 1_555
N21_3 C86_4 1_555 1_555
C98_4 N21_3 1_555 1_555
H66_4 C98_4 1_555 1_555
C100_4 C98_4 1_555 1_555
H68_4 C100_4 1_555 1_555
C102_4 C85_4 1_555 1_555
C90_4 C91_4 1_555 1_555
C93_4 C102_4 1_555 1_555
O18_4 C97_4 1_555 1_555
C95_4 C97_4 1_555 1_555
C100_4 C102_4 1_555 1_555
Ga3_8 O13_4 1_555 1_555
O13_4 C79_4 1_555 1_555
C79_4 C84_4 1_555 1_555
N21_2 C82_4 1_555 1_555
C82_4 H56_4 1_555 1_555
C83_4 C82_4 1_555 1_555
H57_4 C83_4 1_555 1_555
C84_4 C83_4 1_555 1_555
C105_4 C84_4 1_555 1_555
H71_4 C105_4 1_555 1_555
C107_4 N21_2 1_555 1_555
H73_4 C107_4 1_555 1_555
C105_4 C107_4 1_555 1_555
Ag15_4 N21_10 1_555 1_555
H64_4 C94_4 1_555 1_555
C96_4 O17_4 1_555 1_555
N25_4 Ag15_4 1_555 1_555
C108_4 N25_4 1_555 1_555
H74_4 C108_4 1_555 1_555
C110_4 C108_4 1_555 1_555
H76_4 C110_4 1_555 1_555
C112_4 C96_4 1_555 1_555
C114_4 C112_4 1_555 1_555
H78_4 C114_4 1_555 1_555
C116_4 N25_4 1_555 1_555
H80_4 C116_4 1_555 1_555
C94_4 C96_4 1_555 1_555
C110_4 C112_4 1_555 1_555
C114_4 C116_4 1_555 1_555
C80_4 H55_4 1_555 1_555
C81_4 O14_4 1_555 1_555
Ag17_4 N26_4 1_555 1_555
C92_4 C80_4 1_555 1_555
N21 C99_4 1_555 1_555
C99_4 H67_4 1_555 1_555
C101_4 C99_4 1_555 1_555
H69_4 C101_4 1_555 1_555
C103_4 C92_4 1_555 1_555
C104_4 C103_4 1_555 1_555
H70_4 C104_4 1_555 1_555
C106_4 N21 1_555 1_555
H72_4 C106_4 1_555 1_555
N26_4 C109_4 1_555 1_555
C109_4 H75_4 1_555 1_555
C111_4 C109_4 1_555 1_555
H77_4 C111_4 1_555 1_555
C113_4 C81_4 1_555 1_555
C115_4 C113_4 1_555 1_555
H79_4 C115_4 1_555 1_555
C117_4 N26_4 1_555 1_555
H81_4 C117_4 1_555 1_555
C80_4 C81_4 1_555 1_555
O15_4 C92_4 1_555 1_555
C101_4 C103_4 1_555 1_555
C104_4 C106_4 1_555 1_555
C111_4 C113_4 1_555 1_555
C115_4 C117_4 1_555 1_555
Ag14_4 N21_11 1_555 1_555
Ga3_9 O15_4 1_555 1_555
O14_4 Ga3_9 1_555 1_555
O17_4 Ga3_10 1_555 1_555
Ag17_4 N21_12 1_555 1_555
Ga3_11 O13_5 1_555 1_555
O13_5 C79_5 1_555 1_555
C79_5 C84_5 1_555 1_555
O14_5 Ga3_11 1_555 1_555
C80_5 H55_5 1_555 1_555
C81_5 O14_5 1_555 1_555
N21_11 C82_5 1_555 1_555
C82_5 H56_5 1_555 1_555
C83_5 C82_5 1_555 1_555
H57_5 C83_5 1_555 1_555
C84_5 C83_5 1_555 1_555
C85_5 H58_5 1_555 1_555
C86_5 C85_5 1_555 1_555
H59_5 C86_5 1_555 1_555
N24_2 C87_5 1_555 1_555
C87_5 H60_5 1_555 1_555
C88_5 C87_5 1_555 1_555
H61_5 C88_5 1_555 1_555
C89_5 C88_5 1_555 1_555
C90_5 C89_5 1_555 1_555
H62_5 C90_5 1_555 1_555
C91_5 N24_2 1_555 1_555
H63_5 C91_5 1_555 1_555
O15_5 Ga3_11 1_555 1_555
O16_5 Ga3_11 1_555 1_555
C92_5 C80_5 1_555 1_555
C93_5 O16_5 1_555 1_555
O17_5 Ga3_11 1_555 1_555
O18_5 Ga3_11 1_555 1_555
C94_5 C93_5 1_555 1_555
C95_5 C79_5 1_555 1_555
H64_5 C94_5 1_555 1_555
H65_5 C95_5 1_555 1_555
C96_5 O17_5 1_555 1_555
C97_5 C89_5 1_555 1_555
N21_12 C86_5 1_555 1_555
N21_10 C99_5 1_555 1_555
C98_5 N21_12 1_555 1_555
C99_5 H67_5 1_555 1_555
H66_5 C98_5 1_555 1_555
C100_5 C98_5 1_555 1_555
C101_5 C99_5 1_555 1_555
H68_5 C100_5 1_555 1_555
H69_5 C101_5 1_555 1_555
C102_5 C85_5 1_555 1_555
C103_5 C92_5 1_555 1_555
C104_5 C103_5 1_555 1_555
C105_5 C84_5 1_555 1_555
H70_5 C104_5 1_555 1_555
H71_5 C105_5 1_555 1_555
C106_5 N21_10 1_555 1_555
C107_5 N21_11 1_555 1_555
H72_5 C106_5 1_555 1_555
H73_5 C107_5 1_555 1_555
N27_4 C109_5 1_555 1_555
C108_5 N27_3 1_555 1_555
C109_5 H75_5 1_555 1_555
H74_5 C108_5 1_555 1_555
C110_5 C108_5 1_555 1_555
C111_5 C109_5 1_555 1_555
H76_5 C110_5 1_555 1_555
H77_5 C111_5 1_555 1_555
C112_5 C96_5 1_555 1_555
C113_5 C81_5 1_555 1_555
C114_5 C112_5 1_555 1_555
C115_5 C113_5 1_555 1_555
H78_5 C114_5 1_555 1_555
H79_5 C115_5 1_555 1_555
C116_5 N27_3 1_555 1_555
C117_5 N27_4 1_555 1_555
C80_5 C81_5 1_555 1_555
C90_5 C91_5 1_555 1_555
O15_5 C92_5 1_555 1_555
C93_5 C102_5 1_555 1_555
O18_5 C97_5 1_555 1_555
C94_5 C96_5 1_555 1_555
C95_5 C97_5 1_555 1_555
C100_5 C102_5 1_555 1_555
C101_5 C103_5 1_555 1_555
C104_5 C106_5 1_555 1_555
C105_5 C107_5 1_555 1_555
C110_5 C112_5 1_555 1_555
C111_5 C113_5 1_555 1_555
C114_5 C116_5 1_555 1_555
C115_5 C117_5 1_555 1_555
Ga3_12 O13_6 1_555 1_555
O13_6 C79_6 1_555 1_555
C79_6 C84_6 1_555 1_555
O14_6 Ga3_12 1_555 1_555
C80_6 H55_6 1_555 1_555
C81_6 O14_6 1_555 1_555
N21_8 C82_6 1_555 1_555
C82_6 H56_6 1_555 1_555
C83_6 C82_6 1_555 1_555
H57_6 C83_6 1_555 1_555
C84_6 C83_6 1_555 1_555
C85_6 H58_6 1_555 1_555
C86_6 C85_6 1_555 1_555
H59_6 C86_6 1_555 1_555
N24 C87_6 1_555 1_555
C87_6 H60_6 1_555 1_555
C88_6 C87_6 1_555 1_555
H61_6 C88_6 1_555 1_555
C89_6 C88_6 1_555 1_555
C90_6 C89_6 1_555 1_555
H62_6 C90_6 1_555 1_555
C91_6 N24 1_555 1_555
O15_6 Ga3_12 1_555 1_555
O16_6 Ga3_12 1_555 1_555
C92_6 C80_6 1_555 1_555
C93_6 O16_6 1_555 1_555
O17_6 Ga3_12 1_555 1_555
O18_6 Ga3_12 1_555 1_555
C94_6 C93_6 1_555 1_555
C95_6 C79_6 1_555 1_555
H64_6 C94_6 1_555 1_555
H65_6 C95_6 1_555 1_555
C96_6 O17_6 1_555 1_555
C97_6 C89_6 1_555 1_555
N21_9 C86_6 1_555 1_555
N21_7 C99_6 1_555 1_555
C98_6 N21_9 1_555 1_555
C99_6 H67_6 1_555 1_555
H66_6 C98_6 1_555 1_555
C100_6 C98_6 1_555 1_555
C101_6 C99_6 1_555 1_555
H68_6 C100_6 1_555 1_555
H69_6 C101_6 1_555 1_555
C102_6 C85_6 1_555 1_555
C103_6 C92_6 1_555 1_555
C104_6 C103_6 1_555 1_555
C105_6 C84_6 1_555 1_555
H70_6 C104_6 1_555 1_555
H71_6 C105_6 1_555 1_555
C106_6 N21_7 1_555 1_555
C107_6 N21_8 1_555 1_555
H72_6 C106_6 1_555 1_555
H73_6 C107_6 1_555 1_555
N27_2 C109_6 1_555 1_555
C108_6 N27 1_555 1_555
C109_6 H75_6 1_555 1_555
H74_6 C108_6 1_555 1_555
C110_6 C108_6 1_555 1_555
C111_6 C109_6 1_555 1_555
H76_6 C110_6 1_555 1_555
H77_6 C111_6 1_555 1_555
C112_6 C96_6 1_555 1_555
C113_6 C81_6 1_555 1_555
C114_6 C112_6 1_555 1_555
C115_6 C113_6 1_555 1_555
H78_6 C114_6 1_555 1_555
H79_6 C115_6 1_555 1_555
C116_6 N27 1_555 1_555
C117_6 N27_2 1_555 1_555
H80_6 C116_6 1_555 1_555
C80_6 C81_6 1_555 1_555
C90_6 C91_6 1_555 1_555
O15_6 C92_6 1_555 1_555
C93_6 C102_6 1_555 1_555
O18_6 C97_6 1_555 1_555
C94_6 C96_6 1_555 1_555
C95_6 C97_6 1_555 1_555
C100_6 C102_6 1_555 1_555
C101_6 C103_6 1_555 1_555
C104_6 C106_6 1_555 1_555
C105_6 C107_6 1_555 1_555
C110_6 C112_6 1_555 1_555
C111_6 C113_6 1_555 1_555
C114_6 C116_6 1_555 1_555
C115_6 C117_6 1_555 1_555

#END
