
###############################################################################
#
# This file contains modified crystal structure data generated from the
# MOF subset of the Cambridge Structural Database (CSD) v543 
# hosted by the Cambridge Crystallographic Data Centre (CCDC).
#
# This work is licensed under the Creative Commons
# Attribution-NonCommercial-ShareAlike 4.0 International License.
# To view a copy of this license, visit
# http://creativecommons.org/licenses/by-nc-sa/4.0/
# or send a letter to
# Creative Commons, PO Box 1866, Mountain View, CA 94042, USA.
#
# CIF created using the CSD Python API on 29 September 2022
# The structure has been converted into the P1 space group
# The structure has a 3D framework
# The original CSD entry YUYGOQ is in the monoclinic crystal system
# The framework has been calculated to contain at least 10.0% void space
# The void calculation uses a probe of radius 1.32A, grid spacing 0.4
# The framework is charged, counterions have been retained in the structure
#
###############################################################################

data_YUYGOQ
_chemical_formula_moiety         '(C176 H136 Cd16 N12 O52)n'
_symmetry_cell_setting           triclinic
_symmetry_space_group_name_H-M   'P 1'
_symmetry_Int_Tables_number      1
_space_group_name_Hall           'P 1'
loop_
_symmetry_equiv_pos_site_id
_symmetry_equiv_pos_as_xyz
1 x,y,z
_cell_length_a                   14.5830(13)
_cell_length_b                   23.241(2)
_cell_length_c                   15.6338(14)
_cell_angle_alpha                90
_cell_angle_beta                 106.990(2)
_cell_angle_gamma                90
_cell_volume                     5067.41
loop_
_atom_site_label
_atom_site_type_symbol
_atom_site_fract_x
_atom_site_fract_y
_atom_site_fract_z
Cd7 Cd 0.0000 0.0000 0.0000
Cd11 Cd 0.23637(3) 0.062371(14) 0.08375(2)
Cd7_2 Cd -0.0000 0.0000 1.0000
C57 C 0.1249(4) 0.2792(2) 0.1192(4)
C58 C 0.0470(4) 0.3226(2) 0.0798(4)
C59 C 0.0391(4) 0.3727(2) 0.1242(4)
H35 H 0.0801 0.3789 0.1813
O18 O 0.1499(3) 0.24575(18) 0.0677(3)
O19 O 0.1630(3) 0.27985(19) 0.2014(3)
Cd17 Cd 0.25806(3) 0.198944(16) 0.19640(2)
Cd1 Cd 0.0000 0.5000 0.5000
Cd2 Cd 0.23637(3) 0.437629(14) 0.58375(2)
Cd3 Cd 0.25806(3) 0.301056(16) 0.69640(2)
C1 C 0.1562(4) 0.5360(2) 0.1322(3)
C2 C 0.2371(4) 0.5089(3) 0.1869(4)
H1 H 0.2900 0.5020 0.1665
C3 C 0.2380(4) 0.4921(2) 0.2727(3)
H2 H 0.2902 0.4713 0.3073
C4 C 0.1665(4) 0.5048(2) 0.3071(3)
C5 C 0.0870(4) 0.5333(2) 0.2521(3)
H3 H 0.0359 0.5425 0.2738
C6 C 0.0834(4) 0.5478(2) 0.1663(3)
H4 H 0.0292 0.5664 0.1306
C7 C 0.1685(4) 0.4879(2) 0.3998(3)
C13 C 0.1705(5) 0.4500(3) 0.0018(4)
H8 H 0.1401 0.4376 0.0431
C20 C 0.0859(5) 0.6462(2) 0.0395(4)
H11 H 0.1309 0.6537 0.0942
C21 C 0.0202(5) 0.6862(3) 0.0036(4)
H12 H 0.0190 0.7204 0.0343
C26 C 0.0019(4) 0.3266(2) 0.6967(4)
H15 H 0.0621 0.3309 0.7378
C28 C 0.0609(3) 0.37861(19) 0.5827(4)
N1 N 0.1537(4) 0.55012(19) 0.0432(3)
O1 O 0.1109(3) 0.51543(16) 0.4332(2)
O2 O 0.2237(3) 0.44960(17) 0.4388(2)
O7 O 0.0403(3) 0.40536(14) 0.5124(2)
O8 O 0.1469(3) 0.37612(14) 0.6347(3)
O13 O 0.3919(4) 0.2496(3) 0.7594(5)
H25 H 0.4231 0.2448 0.7217
H26 H 0.3785 0.2165 0.7756
C64 C 0.1571(4) 0.7066(2) 0.3366(4)
C65 C 0.1756(4) 0.6863(2) 0.4226(4)
H39 H 0.2360 0.6909 0.4633
C66 C 0.1036(4) 0.6590(2) 0.4479(4)
H40 H 0.1161 0.6448 0.5058
C67 C 0.0132(4) 0.6525(2) 0.3883(3)
C69 C 0.0686(4) 0.7005(2) 0.2768(4)
H42 H 0.0562 0.7145 0.2188
C71 C 0.2173(4) 0.7884(2) 0.2692(4)
C72 C 0.1473(4) 0.8267(2) 0.2804(4)
H43 H 0.1093 0.8166 0.3166
C73 C 0.1348(4) 0.8795(2) 0.2379(4)
H44 H 0.0857 0.9036 0.2425
C74 C 0.1935(4) 0.8963(2) 0.1893(4)
C75 C 0.2610(4) 0.8589(2) 0.1759(4)
H45 H 0.2996 0.8705 0.1411
C76 C 0.2725(4) 0.8053(2) 0.2127(4)
H46 H 0.3165 0.7799 0.2006
C77 C 0.1832(4) 0.9556(2) 0.1489(4)
C78 C 0.3237(4) 0.7085(2) 0.3331(4)
C79 C 0.4071(4) 0.7407(2) 0.3682(4)
H47 H 0.4029 0.7797 0.3801
C80 C 0.4969(4) 0.7144(2) 0.3856(4)
H48 H 0.5525 0.7362 0.4062
C81 C 0.5029(4) 0.6569(2) 0.3721(4)
C82 C 0.4203(4) 0.6246(2) 0.3393(5)
H49 H 0.4243 0.5854 0.3289
C83 C 0.3320(5) 0.6508(3) 0.3222(5)
H50 H 0.2768 0.6286 0.3028
C84 C 0.5986(4) 0.6294(2) 0.3897(4)
N4 N 0.2333(3) 0.73473(19) 0.3108(3)
O22 O 0.1088(3) 0.98304(15) 0.1358(2)
O23 O 0.2595(3) 0.97468(16) 0.1333(3)
O24 O 0.6722(3) 0.65888(18) 0.4046(2)
O25 O 0.6032(3) 0.57644(18) 0.3887(3)
Cd7_3 Cd 0.0000 1.0000 0.0000
Cd10 Cd 0.76363(3) 0.562371(14) 0.41625(2)
Cd16 Cd 0.74194(3) 0.698944(16) 0.30360(2)
O27 O 0.3128(4) 0.3978(3) 0.7739(4)
O29 O 0.2377(4) 0.3312(2) 0.8283(3)
O31 O 0.1499(3) 0.25425(18) 0.5677(3)
O33 O 0.1630(3) 0.22015(19) 0.7014(3)
O35 O 0.1088(3) 0.51696(15) 0.6358(2)
O37 O 0.2595(3) 0.52532(16) 0.6333(3)
O39 O 0.3278(3) 0.34112(18) 0.5954(2)
O41 O 0.3968(3) 0.42356(18) 0.6113(3)
C8 C 0.1857(4) 0.5076(2) 0.9912(4)
C9 C 0.2268(5) 0.5243(3) 0.9257(4)
H5 H 0.2359 0.5632 0.9169
C10 C 0.2539(5) 0.4847(3) 0.8744(4)
H6 H 0.2810 0.4969 0.8306
C11 C 0.2417(4) 0.4263(3) 0.8860(4)
C12 C 0.2018(5) 0.4109(3) 0.9492(4)
H7 H 0.1945 0.3719 0.9586
C14 C 0.2669(5) 0.3827(4) 0.8250(5)
C18 C 0.0283(4) 0.5864(2) 0.9144(3)
H10 H 0.0324 0.5529 0.8831
C19 C 0.0894(4) 0.5944(2) 0.9985(4)
Cd7_4 Cd 0.0000 1.0000 1.0000
Cd7_5 Cd 1.0000 0.0000 0.0000
Cd7_6 Cd 1.0000 0.0000 1.0000
C50 C 0.8143(4) 0.4924(2) 0.0088(4)
C51 C 0.7732(5) 0.4757(3) 0.0743(4)
H31 H 0.7641 0.4368 0.0831
C52 C 0.7461(5) 0.5153(3) 0.1256(4)
H32 H 0.7190 0.5031 0.1694
C53 C 0.7583(4) 0.5737(3) 0.1140(4)
C54 C 0.7982(5) 0.5891(3) 0.0508(4)
H33 H 0.8055 0.6281 0.0414
C56 C 0.7331(5) 0.6173(4) 0.1750(5)
C60 C 0.9717(4) 0.4136(2) 0.0856(3)
H36 H 0.9676 0.4471 0.1169
C61 C 0.9106(4) 0.4056(2) 0.0015(4)
O16 O 0.6872(4) 0.6022(3) 0.2261(4)
O17 O 0.7623(4) 0.6688(2) 0.1717(3)
Cd1_2 Cd 1.0000 0.5000 0.5000
C22 C 0.8429(4) 0.2934(2) 0.6634(4)
C23 C 0.8244(4) 0.3137(2) 0.5774(4)
H13 H 0.7640 0.3091 0.5367
C24 C 0.8964(4) 0.3410(2) 0.5521(4)
H14 H 0.8839 0.3552 0.4942
C25 C 0.9868(4) 0.3475(2) 0.6117(3)
C27 C 0.9314(4) 0.2995(2) 0.7232(4)
H16 H 0.9438 0.2855 0.7812
C29 C 0.7827(4) 0.2116(2) 0.7308(4)
C30 C 0.8527(4) 0.1733(2) 0.7196(4)
H17 H 0.8907 0.1834 0.6834
C31 C 0.8652(4) 0.1205(2) 0.7621(4)
H18 H 0.9143 0.0964 0.7575
C32 C 0.8065(4) 0.1037(2) 0.8107(4)
C33 C 0.7390(4) 0.1411(2) 0.8241(4)
H19 H 0.7004 0.1295 0.8589
C34 C 0.7275(4) 0.1947(2) 0.7873(4)
H20 H 0.6835 0.2201 0.7994
C35 C 0.8168(4) 0.0444(2) 0.8511(4)
C36 C 0.6763(4) 0.2915(2) 0.6669(4)
C37 C 0.5929(4) 0.2593(2) 0.6318(4)
H21 H 0.5971 0.2203 0.6199
C38 C 0.5031(4) 0.2856(2) 0.6144(4)
H22 H 0.4475 0.2638 0.5938
C39 C 0.4971(4) 0.3431(2) 0.6279(4)
C40 C 0.5797(4) 0.3754(2) 0.6607(5)
H23 H 0.5757 0.4146 0.6711
C41 C 0.6680(5) 0.3492(3) 0.6778(5)
H24 H 0.7232 0.3714 0.6972
C42 C 0.4014(4) 0.3706(2) 0.6103(4)
N2 N 0.7667(3) 0.26527(19) 0.6892(3)
O9 O 0.8912(3) 0.01696(15) 0.8642(2)
O10 O 0.7405(3) 0.02532(16) 0.8667(3)
C43 C 0.8438(4) 0.4640(2) 0.8678(3)
C44 C 0.7629(4) 0.4911(3) 0.8131(4)
H27 H 0.7100 0.4980 0.8335
C45 C 0.7620(4) 0.5079(2) 0.7273(3)
H28 H 0.7098 0.5287 0.6927
C46 C 0.8335(4) 0.4952(2) 0.6929(3)
C47 C 0.9130(4) 0.4667(2) 0.7479(3)
H29 H 0.9641 0.4575 0.7262
C48 C 0.9166(4) 0.4522(2) 0.8337(3)
H30 H 0.9708 0.4336 0.8694
C49 C 0.8315(4) 0.5121(2) 0.6002(3)
C55 C 0.8295(5) 0.5500(3) 0.9982(4)
H34 H 0.8599 0.5624 0.9569
C62 C 0.9141(5) 0.3538(2) 0.9605(4)
H37 H 0.8691 0.3463 0.9058
C63 C 0.9798(5) 0.3138(3) 0.9964(4)
H38 H 0.9810 0.2796 0.9657
C68 C 0.9981(4) 0.6734(2) 0.3033(4)
H41 H 0.9379 0.6691 0.2622
C70 C 0.9391(3) 0.62139(19) 0.4173(4)
N3 N 0.8463(4) 0.44988(19) 0.9568(3)
O14 O 0.8891(3) 0.48457(16) 0.5668(2)
O15 O 0.7763(3) 0.55040(17) 0.5612(2)
O20 O 0.9597(3) 0.59464(14) 0.4876(2)
O21 O 0.8531(3) 0.62388(14) 0.3653(3)
O26 O 0.6081(4) 0.7504(3) 0.2406(5)
H51 H 0.5769 0.7552 0.2783
H52 H 0.6215 0.7835 0.2244
Cd7_7 Cd 1.0000 1.0000 0.0000
O32 O 0.8501(3) 0.74575(18) 0.4323(3)
O34 O 0.8370(3) 0.77985(19) 0.2986(3)
O36 O 0.8912(3) 0.48304(15) 0.3642(2)
O38 O 0.7405(3) 0.47468(16) 0.3667(3)
C15 C 0.8751(4) 0.7208(2) 0.8808(4)
C16 C 0.9530(4) 0.6774(2) 0.9202(4)
C17 C 0.9609(4) 0.6273(2) 0.8758(4)
H9 H 0.9199 0.6211 0.8187
O5 O 0.8501(3) 0.75425(18) 0.9323(3)
O6 O 0.8370(3) 0.72015(19) 0.7986(3)
Cd7_8 Cd 1.0000 1.0000 1.0000
Cd14 Cd 0.74194(3) 0.801056(16) 0.80360(2)
Cd9 Cd 0.76363(3) 0.937629(14) 0.91625(2)
C15_2 C 0.1249(4) 0.2208(2) 0.6192(4)
C16_2 C 0.0470(4) 0.1774(2) 0.5798(4)
C17_2 C 0.0391(4) 0.1273(2) 0.6242(4)
H9_2 H 0.0801 0.1211 0.6813
C68_2 C 0.0019(4) 0.1734(2) 0.1967(4)
H41_2 H 0.0621 0.1691 0.2378
C70_2 C 0.0609(3) 0.12139(19) 0.0827(4)
O20_2 O 0.0403(3) 0.09464(14) 0.0124(2)
O21_2 O 0.1469(3) 0.12388(14) 0.1347(3)
O26_2 O 0.3919(4) 0.2504(3) 0.2594(5)
H51_2 H 0.4231 0.2552 0.2217
H52_2 H 0.3785 0.2835 0.2756
O28 O 0.3128(4) 0.1022(3) 0.2739(4)
O30 O 0.2377(4) 0.1688(2) 0.3283(3)
O40 O 0.3278(3) 0.15888(18) 0.0954(2)
O42 O 0.3968(3) 0.07644(18) 0.1113(3)
C45_2 C 0.2380(4) 0.0079(2) 0.7727(3)
H28_2 H 0.2902 0.0287 0.8073
C49_2 C 0.1685(4) 0.0121(2) 0.8998(3)
C52_2 C 0.2539(5) 0.0153(3) 0.3744(4)
H32_2 H 0.2810 0.0031 0.3306
C53_2 C 0.2417(4) 0.0737(3) 0.3860(4)
C54_2 C 0.2018(5) 0.0891(3) 0.4492(4)
H33_2 H 0.1945 0.1281 0.4586
C55_2 C 0.1705(5) 0.0500(3) 0.5018(4)
H34_2 H 0.1401 0.0624 0.5431
C56_2 C 0.2669(5) 0.1173(4) 0.3250(5)
O15_2 O 0.2237(3) 0.05040(17) 0.9388(2)
H14_2 H 0.1161 0.8552 0.0058
C22_2 C 0.1571(4) 0.7934(2) 0.8366(4)
C23_2 C 0.1756(4) 0.8137(2) 0.9226(4)
H13_2 H 0.2360 0.8091 0.9633
C24_2 C 0.1036(4) 0.8410(2) 0.9479(4)
C25_2 C 0.0132(4) 0.8475(2) 0.8883(3)
C27_2 C 0.0686(4) 0.7995(2) 0.7768(4)
H16_2 H 0.0562 0.7855 0.7188
C29_2 C 0.2173(4) 0.7116(2) 0.7692(4)
C30_2 C 0.1473(4) 0.6733(2) 0.7804(4)
H17_2 H 0.1093 0.6834 0.8166
C31_2 C 0.1348(4) 0.6205(2) 0.7379(4)
H18_2 H 0.0857 0.5964 0.7425
C32_2 C 0.1935(4) 0.6037(2) 0.6893(4)
C33_2 C 0.2610(4) 0.6411(2) 0.6759(4)
H19_2 H 0.2996 0.6295 0.6411
C34_2 C 0.2725(4) 0.6947(2) 0.7127(4)
H20_2 H 0.3165 0.7201 0.7006
C35_2 C 0.1832(4) 0.5444(2) 0.6489(4)
C36_2 C 0.3237(4) 0.7915(2) 0.8331(4)
C37_2 C 0.4071(4) 0.7593(2) 0.8682(4)
H21_2 H 0.4029 0.7203 0.8801
C38_2 C 0.4969(4) 0.7856(2) 0.8856(4)
H22_2 H 0.5525 0.7638 0.9062
C39_2 C 0.5029(4) 0.8431(2) 0.8721(4)
C40_2 C 0.4203(4) 0.8754(2) 0.8393(5)
H23_2 H 0.4243 0.9146 0.8289
C41_2 C 0.3320(5) 0.8492(3) 0.8222(5)
H24_2 H 0.2768 0.8714 0.8028
C42_2 C 0.5986(4) 0.8706(2) 0.8897(4)
N2_2 N 0.2333(3) 0.76527(19) 0.8108(3)
O11 O 0.6722(3) 0.84112(18) 0.9046(2)
O12 O 0.6032(3) 0.92356(18) 0.8887(3)
C43_2 C 0.1562(4) 0.9640(2) 0.6322(3)
C44_2 C 0.2371(4) 0.9911(3) 0.6869(4)
H27_2 H 0.2900 0.9980 0.6665
C46_2 C 0.1665(4) 0.9952(2) 0.8071(3)
C47_2 C 0.0870(4) 0.9667(2) 0.7521(3)
H29_2 H 0.0359 0.9575 0.7738
C48_2 C 0.0834(4) 0.9522(2) 0.6663(3)
H30_2 H 0.0292 0.9336 0.6306
C50_2 C 0.1857(4) 0.9924(2) 0.4912(4)
C51_2 C 0.2268(5) 0.9757(3) 0.4257(4)
H31_2 H 0.2359 0.9368 0.4169
C60_2 C 0.0283(4) 0.9136(2) 0.4144(3)
H36_2 H 0.0324 0.9471 0.3831
C61_2 C 0.0894(4) 0.9056(2) 0.4985(4)
C62_2 C 0.0859(5) 0.8538(2) 0.5395(4)
H37_2 H 0.1309 0.8463 0.5942
C63_2 C 0.0202(5) 0.8138(3) 0.5036(4)
H38_2 H 0.0190 0.7796 0.5343
N3_2 N 0.1537(4) 0.94988(19) 0.5432(3)
O14_2 O 0.1109(3) 0.98457(16) 0.9332(2)
C1_2 C 0.8438(4) 0.0360(2) 0.3678(3)
C2_2 C 0.7629(4) 0.0089(3) 0.3131(4)
H1_2 H 0.7100 0.0020 0.3335
C4_2 C 0.8335(4) 0.0048(2) 0.1929(3)
C5_2 C 0.9130(4) 0.0333(2) 0.2479(3)
H3_2 H 0.9641 0.0425 0.2262
C6_2 C 0.9166(4) 0.0478(2) 0.3337(3)
H4_2 H 0.9708 0.0664 0.3694
C8_2 C 0.8143(4) 0.0076(2) 0.5088(4)
C9_2 C 0.7732(5) 0.0243(3) 0.5743(4)
H5_2 H 0.7641 0.0632 0.5831
C18_2 C 0.9717(4) 0.0864(2) 0.5856(3)
H10_2 H 0.9676 0.0529 0.6169
C19_2 C 0.9106(4) 0.0944(2) 0.5015(4)
C20_2 C 0.9141(5) 0.1462(2) 0.4605(4)
H11_2 H 0.8691 0.1537 0.4058
C21_2 C 0.9798(5) 0.1862(3) 0.4964(4)
H12_2 H 0.9810 0.2204 0.4657
N1_2 N 0.8463(4) 0.05012(19) 0.4568(3)
O1_2 O 0.8891(3) 0.01543(16) 0.0668(2)
C64_2 C 0.8429(4) 0.2066(2) 0.1634(4)
C65_2 C 0.8244(4) 0.1863(2) 0.0774(4)
H39_2 H 0.7640 0.1909 0.0367
C66_2 C 0.8964(4) 0.1590(2) 0.0521(4)
C67_2 C 0.9868(4) 0.1525(2) 0.1117(3)
C69_2 C 0.9314(4) 0.2005(2) 0.2232(4)
H42_2 H 0.9438 0.2145 0.2812
C71_2 C 0.7827(4) 0.2884(2) 0.2308(4)
C72_2 C 0.8527(4) 0.3267(2) 0.2196(4)
H43_2 H 0.8907 0.3166 0.1834
C73_2 C 0.8652(4) 0.3795(2) 0.2621(4)
H44_2 H 0.9143 0.4036 0.2575
C74_2 C 0.8065(4) 0.3963(2) 0.3107(4)
C75_2 C 0.7390(4) 0.3589(2) 0.3241(4)
H45_2 H 0.7004 0.3705 0.3589
C76_2 C 0.7275(4) 0.3053(2) 0.2873(4)
H46_2 H 0.6835 0.2799 0.2994
C77_2 C 0.8168(4) 0.4556(2) 0.3511(4)
C78_2 C 0.6763(4) 0.2085(2) 0.1669(4)
C79_2 C 0.5929(4) 0.2407(2) 0.1318(4)
H47_2 H 0.5971 0.2797 0.1199
C80_2 C 0.5031(4) 0.2144(2) 0.1144(4)
H48_2 H 0.4475 0.2362 0.0938
C81_2 C 0.4971(4) 0.1569(2) 0.1279(4)
C82_2 C 0.5797(4) 0.1246(2) 0.1607(5)
H49_2 H 0.5757 0.0854 0.1711
C83_2 C 0.6680(5) 0.1508(3) 0.1778(5)
H50_2 H 0.7232 0.1286 0.1972
C84_2 C 0.4014(4) 0.1294(2) 0.1103(4)
N4_2 N 0.7667(3) 0.23473(19) 0.1892(3)
H40_2 H 0.8839 0.1448 0.9942
C3_2 C 0.7620(4) 0.9921(2) 0.2273(3)
H2_2 H 0.7098 0.9713 0.1927
C7_2 C 0.8315(4) 0.9879(2) 0.1002(3)
C10_2 C 0.7461(5) 0.9847(3) 0.6256(4)
H6_2 H 0.7190 0.9969 0.6694
C11_2 C 0.7583(4) 0.9263(3) 0.6140(4)
C12_2 C 0.7982(5) 0.9109(3) 0.5508(4)
H7_2 H 0.8055 0.8719 0.5414
C13_2 C 0.8295(5) 0.9500(3) 0.4982(4)
H8_2 H 0.8599 0.9376 0.4569
C14_2 C 0.7331(5) 0.8827(4) 0.6750(5)
O2_2 O 0.7763(3) 0.94960(17) 0.0612(2)
O3 O 0.6872(4) 0.8978(3) 0.7261(4)
O4 O 0.7623(4) 0.8312(2) 0.6717(3)
C26_2 C 0.9981(4) 0.8266(2) 0.8033(4)
H15_2 H 0.9379 0.8309 0.7622
C28_2 C 0.9391(3) 0.87861(19) 0.9173(4)
O7_2 O 0.9597(3) 0.90536(14) 0.9876(2)
O8_2 O 0.8531(3) 0.87612(14) 0.8653(3)
O13_2 O 0.6081(4) 0.7496(3) 0.7406(5)
H25_2 H 0.5769 0.7448 0.7783
H26_2 H 0.6215 0.7165 0.7244
C57_2 C 0.8751(4) 0.7792(2) 0.3808(4)
C58_2 C 0.9530(4) 0.8226(2) 0.4202(4)
C59_2 C 0.9609(4) 0.8727(2) 0.3758(4)
H35_2 H 0.9199 0.8789 0.3187
C85 C 0.2745(9) 0.3163(5) 0.3890(6)
H53 H 0.2514 0.3175 0.3249
H54 H 0.3369 0.2989 0.4071
H55 H 0.2787 0.3548 0.4123
C86 C 0.1066(7) 0.3132(4) 0.3760(6)
H56 H 0.1105 0.3542 0.3697
H57 H 0.0681 0.3046 0.4148
H58 H 0.0781 0.2963 0.3184
N5 N 0.2162(8) 0.2865(5) 0.4196(7)
H59 H 0.2332 0.2888 0.4796
H60 H 0.2178 0.2493 0.4041
C85_2 C 0.7255(9) 0.8163(5) 0.1110(6)
H53_2 H 0.7486 0.8175 0.1751
H54_2 H 0.6631 0.7989 0.0929
H55_2 H 0.7213 0.8548 0.0877
C86_2 C 0.8934(7) 0.8132(4) 0.1240(6)
H56_2 H 0.8895 0.8542 0.1303
H57_2 H 0.9319 0.8046 0.0852
H58_2 H 0.9219 0.7963 0.1816
N5_2 N 0.7838(8) 0.7865(5) 0.0804(7)
H59_2 H 0.7668 0.7888 0.0204
H60_2 H 0.7822 0.7493 0.0959
C85_3 C 0.7255(9) 0.6837(5) 0.6110(6)
H53_3 H 0.7486 0.6825 0.6751
H54_3 H 0.6631 0.7011 0.5929
H55_3 H 0.7213 0.6452 0.5877
C86_3 C 0.8934(7) 0.6868(4) 0.6240(6)
H56_3 H 0.8895 0.6458 0.6303
H57_3 H 0.9319 0.6954 0.5852
H58_3 H 0.9219 0.7037 0.6816
N5_3 N 0.7838(8) 0.7135(5) 0.5804(7)
H59_3 H 0.7668 0.7112 0.5204
H60_3 H 0.7822 0.7507 0.5959
C85_4 C 0.2745(9) 0.1837(5) 0.8890(6)
H53_4 H 0.2514 0.1825 0.8249
H54_4 H 0.3369 0.2011 0.9071
H55_4 H 0.2787 0.1452 0.9123
C86_4 C 0.1066(7) 0.1868(4) 0.8760(6)
H56_4 H 0.1105 0.1458 0.8697
H57_4 H 0.0681 0.1954 0.9148
H58_4 H 0.0781 0.2037 0.8184
N5_4 N 0.2162(8) 0.2135(5) 0.9196(7)
H59_4 H 0.2332 0.2112 0.9796
H60_4 H 0.2178 0.2507 0.9041
loop_
_geom_bond_atom_site_label_1
_geom_bond_atom_site_label_2
_geom_bond_site_symmetry_1
_geom_bond_site_symmetry_2
C57 C58 1_555 1_555
C58 C59 1_555 1_555
C59 H35 1_555 1_555
O18 C57 1_555 1_555
O19 C57 1_555 1_555
Cd17 O18 1_555 1_555
O19 Cd17 1_555 1_555
Cd1 O1 1_555 1_555
Cd2 O2 1_555 1_555
Cd3 O8 1_555 1_555
C1 C2 1_555 1_555
C2 H1 1_555 1_555
C3 C2 1_555 1_555
H2 C3 1_555 1_555
C4 C3 1_555 1_555
C5 C4 1_555 1_555
H3 C5 1_555 1_555
C6 C1 1_555 1_555
H4 C6 1_555 1_555
C7 C4 1_555 1_555
H8 C13 1_555 1_555
H11 C20 1_555 1_555
H12 C21 1_555 1_555
H15 C26 1_555 1_555
N1 C1 1_555 1_555
O1 C7 1_555 1_555
O2 C7 1_555 1_555
O7 Cd1 1_555 1_555
O8 Cd2 1_555 1_555
O13 Cd3 1_555 1_555
H25 O13 1_555 1_555
H26 O13 1_555 1_555
C64 C65 1_555 1_555
C65 H39 1_555 1_555
C66 C65 1_555 1_555
H40 C66 1_555 1_555
C67 C66 1_555 1_555
C69 C64 1_555 1_555
H42 C69 1_555 1_555
C71 C72 1_555 1_555
C72 H43 1_555 1_555
C73 C72 1_555 1_555
H44 C73 1_555 1_555
C74 C73 1_555 1_555
C75 C74 1_555 1_555
H45 C75 1_555 1_555
C76 C71 1_555 1_555
H46 C76 1_555 1_555
C77 C74 1_555 1_555
C78 C79 1_555 1_555
C79 H47 1_555 1_555
C80 C79 1_555 1_555
H48 C80 1_555 1_555
C81 C80 1_555 1_555
C82 C81 1_555 1_555
H49 C82 1_555 1_555
C83 C78 1_555 1_555
H50 C83 1_555 1_555
C84 C81 1_555 1_555
N4 C64 1_555 1_555
O22 C77 1_555 1_555
O23 C77 1_555 1_555
O24 C84 1_555 1_555
O25 C84 1_555 1_555
Cd7_3 O22 1_555 1_555
Cd10 O24 1_555 1_555
Cd16 O24 1_555 1_555
O27 Cd3 1_555 1_555
O29 Cd3 1_555 1_555
O31 Cd3 1_555 1_555
O33 Cd3 1_555 1_555
O35 Cd1 1_555 1_555
O37 Cd2 1_555 1_555
O39 Cd2 1_555 1_555
O41 Cd2 1_555 1_555
Cd3 O39 1_555 1_555
C5 C6 1_555 1_555
C20 C21 1_555 1_555
C28 O7 1_555 1_555
C28 O8 1_555 1_555
C71 N4 1_555 1_555
C75 C76 1_555 1_555
C78 N4 1_555 1_555
C82 C83 1_555 1_555
O25 Cd10 1_555 1_555
C8 C9 1_555 1_555
C9 H5 1_555 1_555
C10 C9 1_555 1_555
H6 C10 1_555 1_555
C11 C10 1_555 1_555
C12 C11 1_555 1_555
H7 C12 1_555 1_555
C14 C11 1_555 1_555
H10 C18 1_555 1_555
C19 C18 1_555 1_555
O27 C14 1_555 1_555
O29 C14 1_555 1_555
C50 C51 1_555 1_555
C51 H31 1_555 1_555
C52 C51 1_555 1_555
H32 C52 1_555 1_555
C53 C52 1_555 1_555
C54 C53 1_555 1_555
H33 C54 1_555 1_555
C56 C53 1_555 1_555
H36 C60 1_555 1_555
C61 C60 1_555 1_555
O16 C56 1_555 1_555
O17 C56 1_555 1_555
Cd16 O16 1_555 1_555
O17 Cd16 1_555 1_555
C22 C23 1_555 1_555
C23 H13 1_555 1_555
C24 C23 1_555 1_555
H14 C24 1_555 1_555
C25 C24 1_555 1_555
C27 C22 1_555 1_555
H16 C27 1_555 1_555
C29 C30 1_555 1_555
C30 H17 1_555 1_555
C31 C30 1_555 1_555
H18 C31 1_555 1_555
C32 C31 1_555 1_555
C33 C32 1_555 1_555
H19 C33 1_555 1_555
C34 C29 1_555 1_555
H20 C34 1_555 1_555
C35 C32 1_555 1_555
C36 C37 1_555 1_555
C37 H21 1_555 1_555
C38 C37 1_555 1_555
H22 C38 1_555 1_555
C39 C38 1_555 1_555
C40 C39 1_555 1_555
H23 C40 1_555 1_555
C41 C36 1_555 1_555
H24 C41 1_555 1_555
C42 C39 1_555 1_555
N2 C22 1_555 1_555
O9 C35 1_555 1_555
O10 C35 1_555 1_555
O39 C42 1_555 1_555
O41 C42 1_555 1_555
Cd10 O15 1_555 1_555
Cd16 O21 1_555 1_555
C43 C44 1_555 1_555
C44 H27 1_555 1_555
C45 C44 1_555 1_555
H28 C45 1_555 1_555
C46 C45 1_555 1_555
C47 C46 1_555 1_555
H29 C47 1_555 1_555
C48 C43 1_555 1_555
H30 C48 1_555 1_555
C49 C46 1_555 1_555
H34 C55 1_555 1_555
H37 C62 1_555 1_555
H38 C63 1_555 1_555
H41 C68 1_555 1_555
N3 C43 1_555 1_555
O14 Cd1_2 1_555 1_555
O15 C49 1_555 1_555
O20 Cd1_2 1_555 1_555
O21 Cd10 1_555 1_555
O26 Cd16 1_555 1_555
H51 O26 1_555 1_555
H52 O26 1_555 1_555
Cd7_6 O9 1_555 1_555
O32 Cd16 1_555 1_555
O34 Cd16 1_555 1_555
O36 Cd1_2 1_555 1_555
O38 Cd10 1_555 1_555
C29 N2 1_555 1_555
C33 C34 1_555 1_555
C36 N2 1_555 1_555
C40 C41 1_555 1_555
C47 C48 1_555 1_555
C49 O14 1_555 1_555
C62 C63 1_555 1_555
C70 O20 1_555 1_555
C70 O21 1_555 1_555
C15 C16 1_555 1_555
C16 C17 1_555 1_555
C17 H9 1_555 1_555
O5 C15 1_555 1_555
O6 C15 1_555 1_555
Cd14 O5 1_555 1_555
O6 Cd14 1_555 1_555
C15_2 C16_2 1_555 1_555
C16_2 C17_2 1_555 1_555
C17_2 H9_2 1_555 1_555
O31 C15_2 1_555 1_555
O33 C15_2 1_555 1_555
Cd17 O21_2 1_555 1_555
H41_2 C68_2 1_555 1_555
O20_2 Cd7 1_555 1_555
O21_2 Cd11 1_555 1_555
O26_2 Cd17 1_555 1_555
H51_2 O26_2 1_555 1_555
H52_2 O26_2 1_555 1_555
O28 Cd17 1_555 1_555
O30 Cd17 1_555 1_555
O40 Cd11 1_555 1_555
O42 Cd11 1_555 1_555
Cd17 O40 1_555 1_555
C70_2 O20_2 1_555 1_555
C70_2 O21_2 1_555 1_555
H28_2 C45_2 1_555 1_555
H32_2 C52_2 1_555 1_555
C53_2 C52_2 1_555 1_555
C54_2 C53_2 1_555 1_555
H33_2 C54_2 1_555 1_555
H34_2 C55_2 1_555 1_555
C56_2 C53_2 1_555 1_555
O15_2 C49_2 1_555 1_555
O28 C56_2 1_555 1_555
O30 C56_2 1_555 1_555
C54_2 C55_2 1_555 1_555
C22_2 C23_2 1_555 1_555
C23_2 H13_2 1_555 1_555
C24_2 C23_2 1_555 1_555
C25_2 C24_2 1_555 1_555
C27_2 C22_2 1_555 1_555
H16_2 C27_2 1_555 1_555
C29_2 C30_2 1_555 1_555
C30_2 H17_2 1_555 1_555
C31_2 C30_2 1_555 1_555
H18_2 C31_2 1_555 1_555
C32_2 C31_2 1_555 1_555
C33_2 C32_2 1_555 1_555
H19_2 C33_2 1_555 1_555
C34_2 C29_2 1_555 1_555
H20_2 C34_2 1_555 1_555
C35_2 C32_2 1_555 1_555
C36_2 C37_2 1_555 1_555
C37_2 H21_2 1_555 1_555
C38_2 C37_2 1_555 1_555
H22_2 C38_2 1_555 1_555
C39_2 C38_2 1_555 1_555
C40_2 C39_2 1_555 1_555
H23_2 C40_2 1_555 1_555
C41_2 C36_2 1_555 1_555
H24_2 C41_2 1_555 1_555
C42_2 C39_2 1_555 1_555
N2_2 C22_2 1_555 1_555
O35 C35_2 1_555 1_555
O37 C35_2 1_555 1_555
O11 C42_2 1_555 1_555
O12 C42_2 1_555 1_555
C43_2 C44_2 1_555 1_555
C44_2 H27_2 1_555 1_555
C47_2 C46_2 1_555 1_555
H29_2 C47_2 1_555 1_555
C48_2 C43_2 1_555 1_555
H30_2 C48_2 1_555 1_555
C50_2 C51_2 1_555 1_555
C51_2 H31_2 1_555 1_555
H36_2 C60_2 1_555 1_555
C61_2 C60_2 1_555 1_555
C62_2 C61_2 1_555 1_555
H37_2 C62_2 1_555 1_555
H38_2 C63_2 1_555 1_555
N3_2 C43_2 1_555 1_555
O14_2 Cd7_4 1_555 1_555
Cd9 O11 1_555 1_555
Cd14 O11 1_555 1_555
C29_2 N2_2 1_555 1_555
C33_2 C34_2 1_555 1_555
C36_2 N2_2 1_555 1_555
C40_2 C41_2 1_555 1_555
O12 Cd9 1_555 1_555
C47_2 C48_2 1_555 1_555
C50_2 N3_2 1_555 1_555
C61_2 N3_2 1_555 1_555
C62_2 C63_2 1_555 1_555
Cd7_5 O1_2 1_555 1_555
C1_2 C2_2 1_555 1_555
C2_2 H1_2 1_555 1_555
C5_2 C4_2 1_555 1_555
H3_2 C5_2 1_555 1_555
C6_2 C1_2 1_555 1_555
H4_2 C6_2 1_555 1_555
C8_2 C9_2 1_555 1_555
C9_2 H5_2 1_555 1_555
H10_2 C18_2 1_555 1_555
C19_2 C18_2 1_555 1_555
C20_2 C19_2 1_555 1_555
H11_2 C20_2 1_555 1_555
H12_2 C21_2 1_555 1_555
N1_2 C1_2 1_555 1_555
C64_2 C65_2 1_555 1_555
C65_2 H39_2 1_555 1_555
C66_2 C65_2 1_555 1_555
C67_2 C66_2 1_555 1_555
C69_2 C64_2 1_555 1_555
H42_2 C69_2 1_555 1_555
C71_2 C72_2 1_555 1_555
C72_2 H43_2 1_555 1_555
C73_2 C72_2 1_555 1_555
H44_2 C73_2 1_555 1_555
C74_2 C73_2 1_555 1_555
C75_2 C74_2 1_555 1_555
H45_2 C75_2 1_555 1_555
C76_2 C71_2 1_555 1_555
H46_2 C76_2 1_555 1_555
C77_2 C74_2 1_555 1_555
C78_2 C79_2 1_555 1_555
C79_2 H47_2 1_555 1_555
C80_2 C79_2 1_555 1_555
H48_2 C80_2 1_555 1_555
C81_2 C80_2 1_555 1_555
C82_2 C81_2 1_555 1_555
H49_2 C82_2 1_555 1_555
C83_2 C78_2 1_555 1_555
H50_2 C83_2 1_555 1_555
C84_2 C81_2 1_555 1_555
N4_2 C64_2 1_555 1_555
O36 C77_2 1_555 1_555
O38 C77_2 1_555 1_555
O40 C84_2 1_555 1_555
O42 C84_2 1_555 1_555
C5_2 C6_2 1_555 1_555
C8_2 N1_2 1_555 1_555
C19_2 N1_2 1_555 1_555
C20_2 C21_2 1_555 1_555
C71_2 N4_2 1_555 1_555
C75_2 C76_2 1_555 1_555
C78_2 N4_2 1_555 1_555
C82_2 C83_2 1_555 1_555
H2_2 C3_2 1_555 1_555
H6_2 C10_2 1_555 1_555
C11_2 C10_2 1_555 1_555
C12_2 C11_2 1_555 1_555
H7_2 C12_2 1_555 1_555
H8_2 C13_2 1_555 1_555
C14_2 C11_2 1_555 1_555
O2_2 C7_2 1_555 1_555
O3 C14_2 1_555 1_555
O4 C14_2 1_555 1_555
Cd14 O3 1_555 1_555
C12_2 C13_2 1_555 1_555
O4 Cd14 1_555 1_555
Cd14 O8_2 1_555 1_555
H15_2 C26_2 1_555 1_555
O7_2 Cd7_8 1_555 1_555
O8_2 Cd9 1_555 1_555
O13_2 Cd14 1_555 1_555
H25_2 O13_2 1_555 1_555
H26_2 O13_2 1_555 1_555
C57_2 C58_2 1_555 1_555
C58_2 C59_2 1_555 1_555
C59_2 H35_2 1_555 1_555
O32 C57_2 1_555 1_555
O34 C57_2 1_555 1_555
C28_2 O7_2 1_555 1_555
C28_2 O8_2 1_555 1_555
C85 H53 1_555 1_555
H54 C85 1_555 1_555
H55 C85 1_555 1_555
C86 H56 1_555 1_555
H57 C86 1_555 1_555
H58 C86 1_555 1_555
N5 C85 1_555 1_555
H59 N5 1_555 1_555
H60 N5 1_555 1_555
C86 N5 1_555 1_555
C85_2 H53_2 1_555 1_555
H54_2 C85_2 1_555 1_555
H55_2 C85_2 1_555 1_555
C86_2 H56_2 1_555 1_555
H57_2 C86_2 1_555 1_555
H58_2 C86_2 1_555 1_555
N5_2 C85_2 1_555 1_555
H59_2 N5_2 1_555 1_555
H60_2 N5_2 1_555 1_555
C86_2 N5_2 1_555 1_555
C85_3 H53_3 1_555 1_555
H54_3 C85_3 1_555 1_555
H55_3 C85_3 1_555 1_555
C86_3 H56_3 1_555 1_555
H57_3 C86_3 1_555 1_555
H58_3 C86_3 1_555 1_555
N5_3 C85_3 1_555 1_555
H59_3 N5_3 1_555 1_555
H60_3 N5_3 1_555 1_555
C86_3 N5_3 1_555 1_555
C85_4 H53_4 1_555 1_555
H54_4 C85_4 1_555 1_555
H55_4 C85_4 1_555 1_555
C86_4 H56_4 1_555 1_555
H57_4 C86_4 1_555 1_555
H58_4 C86_4 1_555 1_555
N5_4 C85_4 1_555 1_555
H59_4 N5_4 1_555 1_555
H60_4 N5_4 1_555 1_555
C86_4 N5_4 1_555 1_555

#END
