
###############################################################################
#
# This file contains modified crystal structure data generated from the
# MOF subset of the Cambridge Structural Database (CSD) v543 
# hosted by the Cambridge Crystallographic Data Centre (CCDC).
#
# This work is licensed under the Creative Commons
# Attribution-NonCommercial-ShareAlike 4.0 International License.
# To view a copy of this license, visit
# http://creativecommons.org/licenses/by-nc-sa/4.0/
# or send a letter to
# Creative Commons, PO Box 1866, Mountain View, CA 94042, USA.
#
# CIF created using the CSD Python API on 29 September 2022
# The structure has been converted into the P1 space group
# The structure has a 3D framework
# The original CSD entry YUYLEL is in the monoclinic crystal system
# The framework has been calculated to contain at least 10.0% void space
# The void calculation uses a probe of radius 1.32A, grid spacing 0.4
# The framework is charged, counterions have been retained in the structure
#
###############################################################################

data_YUYLEL
_chemical_formula_moiety         '(C176 H136 Cd16 N12 O52)n'
_symmetry_cell_setting           triclinic
_symmetry_space_group_name_H-M   'P 1'
_symmetry_Int_Tables_number      1
_space_group_name_Hall           'P 1'
loop_
_symmetry_equiv_pos_site_id
_symmetry_equiv_pos_as_xyz
1 x,y,z
_cell_length_a                   14.6261(6)
_cell_length_b                   23.2526(9)
_cell_length_c                   15.7357(7)
_cell_angle_alpha                90
_cell_angle_beta                 107.099(2)
_cell_angle_gamma                90
_cell_volume                     5115.08
loop_
_atom_site_label
_atom_site_type_symbol
_atom_site_fract_x
_atom_site_fract_y
_atom_site_fract_z
Cd13 Cd 0.0000 0.0000 0.0000
Cd17 Cd 0.23509(3) 0.062257(16) 0.08374(3)
Cd13_2 Cd -0.0000 0.0000 1.0000
C80 C 0.0381(4) 0.3723(3) 0.1228(4)
H48 H 0.0791 0.3783 0.1797
C81 C 0.0452(5) 0.3222(3) 0.0785(4)
C84 C 0.1222(5) 0.2795(3) 0.1160(5)
O24 O 0.1617(4) 0.2790(2) 0.1980(3)
O25 O 0.1480(4) 0.2455(2) 0.0656(3)
Cd11 Cd 0.25727(3) 0.199271(18) 0.19677(3)
Cd1 Cd 0.25727(3) 0.300729(18) 0.69677(3)
Cd2 Cd -0.0000 0.5000 0.5000
Cd3 Cd 0.23509(3) 0.437743(16) 0.58374(3)
C3 C 0.0025(4) 0.3268(3) 0.6967(4)
H2 H 0.0625 0.3310 0.7380
C7 C 0.0623(4) 0.3781(2) 0.5851(4)
C22 C 0.1679(4) 0.4879(3) 0.4008(4)
C23 C 0.1659(4) 0.5044(2) 0.3071(4)
C24 C 0.0869(4) 0.5331(3) 0.2526(4)
H13 H 0.0362 0.5427 0.2744
C25 C 0.0828(4) 0.5475(3) 0.1675(4)
H14 H 0.0286 0.5658 0.1317
C26 C 0.1582(4) 0.5354(3) 0.1333(4)
C27 C 0.2380(5) 0.5081(3) 0.1890(4)
H15 H 0.2908 0.5011 0.1691
C28 C 0.2398(5) 0.4914(3) 0.2733(4)
H16 H 0.2921 0.4709 0.3081
C30 C 0.1722(5) 0.4492(3) 0.0034(5)
H17 H 0.1436 0.4373 0.0459
C40 C 0.0219(6) 0.6870(3) 0.0041(5)
H23 H 0.0209 0.7213 0.0342
C41 C 0.0892(5) 0.6463(3) 0.0414(5)
H24 H 0.1343 0.6538 0.0957
N2 N 0.1545(4) 0.5495(2) 0.0448(3)
O1 O 0.0418(3) 0.40498(16) 0.5130(3)
O2 O 0.1474(3) 0.37634(17) 0.6369(3)
O7 O 0.2246(3) 0.4497(2) 0.4403(3)
O8 O 0.1114(3) 0.51523(19) 0.4337(3)
O13 O 0.3898(5) 0.2492(4) 0.7585(6)
H25 H 0.3972 0.2136 0.7708
H26 H 0.4438 0.2655 0.7793
C43 C 0.1591(4) 0.7069(3) 0.3393(5)
C44 C 0.0705(4) 0.7004(3) 0.2787(4)
H27 H 0.0593 0.7142 0.2211
C46 C 0.0133(4) 0.6523(2) 0.3883(4)
C47 C 0.1037(5) 0.6590(3) 0.4487(5)
H29 H 0.1154 0.6448 0.5061
C48 C 0.1762(5) 0.6863(3) 0.4247(5)
H30 H 0.2361 0.6908 0.4659
C50 C 0.2180(4) 0.7886(3) 0.2698(5)
C51 C 0.1490(4) 0.8264(3) 0.2821(5)
H31 H 0.1118 0.8162 0.3185
C52 C 0.1362(4) 0.8796(3) 0.2394(4)
H32 H 0.0878 0.9039 0.2450
C53 C 0.1934(4) 0.8964(2) 0.1898(4)
C54 C 0.2617(5) 0.8589(3) 0.1773(5)
H33 H 0.3007 0.8702 0.1431
C55 C 0.2725(5) 0.8052(3) 0.2148(5)
H34 H 0.3165 0.7797 0.2034
C56 C 0.1849(5) 0.9558(3) 0.1495(4)
C57 C 0.3248(4) 0.7087(3) 0.3350(5)
C58 C 0.3326(5) 0.6506(3) 0.3228(6)
H35 H 0.2776 0.6284 0.3020
C59 C 0.4207(5) 0.6249(3) 0.3411(6)
H36 H 0.4246 0.5855 0.3328
C60 C 0.5046(4) 0.6572(3) 0.3722(4)
C61 C 0.4963(5) 0.7147(3) 0.3856(5)
H37 H 0.5513 0.7369 0.4062
C62 C 0.4077(5) 0.7407(3) 0.3693(5)
H38 H 0.4037 0.7796 0.3813
C63 C 0.6005(4) 0.6286(3) 0.3886(4)
N3 N 0.2343(3) 0.7349(2) 0.3136(5)
O16 O 0.2588(4) 0.9745(2) 0.1336(4)
O17 O 0.1087(3) 0.98301(18) 0.1364(3)
O18 O 0.6050(3) 0.5759(2) 0.3879(4)
O19 O 0.6738(3) 0.6599(2) 0.4038(3)
Cd10 Cd 0.74273(3) 0.699271(18) 0.30323(3)
Cd13_3 Cd 0.0000 1.0000 0.0000
Cd16 Cd 0.76491(3) 0.562257(16) 0.41626(3)
O27 O 0.2588(4) 0.5255(2) 0.6336(4)
O29 O 0.1087(3) 0.51699(18) 0.6364(3)
O31 O 0.3950(3) 0.4241(2) 0.6121(4)
O33 O 0.3262(3) 0.3401(2) 0.5962(3)
O35 O 0.3126(4) 0.3962(3) 0.7768(5)
O37 O 0.2360(5) 0.3293(3) 0.8296(4)
O39 O 0.1617(4) 0.2210(2) 0.6980(3)
O41 O 0.1480(4) 0.2545(2) 0.5656(3)
C29 C 0.1860(5) 0.5068(3) 0.9922(4)
C31 C 0.2004(5) 0.4090(3) 0.9522(5)
H18 H 0.1924 0.3702 0.9621
C32 C 0.2398(5) 0.4248(4) 0.8873(5)
C33 C 0.2535(6) 0.4822(4) 0.8751(5)
H19 H 0.2808 0.4935 0.8313
C34 C 0.2272(6) 0.5242(3) 0.9270(5)
H20 H 0.2371 0.5630 0.9182
C35 C 0.2653(5) 0.3800(5) 0.8268(6)
C36 C 0.0912(5) 0.5940(3) 0.9998(4)
C37 C 0.0289(5) 0.5861(3) 0.9155(4)
H21 H 0.0320 0.5525 0.8843
Cd13_4 Cd -0.0000 1.0000 1.0000
Cd13_5 Cd 1.0000 0.0000 0.0000
Cd13_6 Cd 1.0000 0.0000 1.0000
C71 C 0.8140(5) 0.4932(3) 0.0078(4)
C73 C 0.7996(5) 0.5910(3) 0.0478(5)
H44 H 0.8076 0.6298 0.0379
C74 C 0.7602(5) 0.5752(4) 0.1127(5)
C75 C 0.7465(6) 0.5178(4) 0.1249(5)
H45 H 0.7192 0.5065 0.1687
C76 C 0.7728(6) 0.4758(3) 0.0730(5)
H46 H 0.7629 0.4370 0.0818
C77 C 0.7347(5) 0.6200(5) 0.1732(6)
C78 C 0.9088(5) 0.4060(3) 0.0002(4)
C79 C 0.9711(5) 0.4139(3) 0.0845(4)
H47 H 0.9680 0.4475 0.1157
O22 O 0.6874(4) 0.6038(3) 0.2232(5)
O23 O 0.7640(5) 0.6707(3) 0.1704(4)
Cd2_2 Cd 1.0000 0.5000 0.5000
C1 C 0.8409(4) 0.2931(3) 0.6607(5)
C2 C 0.9295(4) 0.2996(3) 0.7213(4)
H1 H 0.9407 0.2858 0.7789
C4 C 0.9867(4) 0.3477(2) 0.6117(4)
C5 C 0.8963(5) 0.3410(3) 0.5513(5)
H3 H 0.8846 0.3552 0.4939
C6 C 0.8238(5) 0.3137(3) 0.5753(5)
H4 H 0.7639 0.3092 0.5341
C8 C 0.7820(4) 0.2114(3) 0.7302(5)
C9 C 0.8510(4) 0.1736(3) 0.7179(5)
H5 H 0.8882 0.1838 0.6815
C10 C 0.8638(4) 0.1204(3) 0.7606(4)
H6 H 0.9122 0.0961 0.7550
C11 C 0.8066(4) 0.1036(2) 0.8102(4)
C12 C 0.7383(5) 0.1411(3) 0.8227(5)
H7 H 0.6993 0.1298 0.8569
C13 C 0.7275(5) 0.1948(3) 0.7852(5)
H8 H 0.6835 0.2203 0.7966
C14 C 0.8151(5) 0.0442(3) 0.8505(4)
C15 C 0.6752(4) 0.2913(3) 0.6650(5)
C16 C 0.6674(5) 0.3494(3) 0.6772(6)
H9 H 0.7224 0.3716 0.6980
C17 C 0.5793(5) 0.3751(3) 0.6589(6)
H10 H 0.5754 0.4145 0.6672
C18 C 0.4954(4) 0.3428(3) 0.6278(4)
C19 C 0.5037(5) 0.2853(3) 0.6144(5)
H11 H 0.4487 0.2631 0.5938
C20 C 0.5923(5) 0.2593(3) 0.6307(5)
H12 H 0.5963 0.2204 0.6187
C21 C 0.3995(4) 0.3714(3) 0.6114(4)
N1 N 0.7657(3) 0.2651(2) 0.6864(5)
O3 O 0.7412(4) 0.0255(2) 0.8664(4)
O4 O 0.8913(3) 0.01699(18) 0.8636(3)
C45 C 0.9975(4) 0.6732(3) 0.3033(4)
H28 H 0.9375 0.6690 0.2620
C49 C 0.9377(4) 0.6219(2) 0.4149(4)
C64 C 0.8321(4) 0.5121(3) 0.5992(4)
C65 C 0.8341(4) 0.4956(2) 0.6929(4)
C66 C 0.9131(4) 0.4669(3) 0.7474(4)
H39 H 0.9638 0.4573 0.7256
C67 C 0.9172(4) 0.4525(3) 0.8325(4)
H40 H 0.9714 0.4342 0.8683
C68 C 0.8418(4) 0.4646(3) 0.8667(4)
C69 C 0.7620(5) 0.4919(3) 0.8110(4)
H41 H 0.7092 0.4989 0.8309
C70 C 0.7602(5) 0.5086(3) 0.7267(4)
H42 H 0.7079 0.5291 0.6919
C72 C 0.8278(5) 0.5508(3) 0.9966(5)
H43 H 0.8564 0.5627 0.9541
C82 C 0.9781(6) 0.3130(3) 0.9959(5)
H49 H 0.9791 0.2787 0.9658
C83 C 0.9108(5) 0.3537(3) 0.9586(5)
H50 H 0.8657 0.3462 0.9043
N4 N 0.8455(4) 0.4505(2) 0.9552(3)
O14 O 0.9582(3) 0.59502(16) 0.4870(3)
O15 O 0.8526(3) 0.62366(17) 0.3631(3)
O20 O 0.7754(3) 0.5503(2) 0.5597(3)
O21 O 0.8886(3) 0.48477(19) 0.5663(3)
O26 O 0.6102(5) 0.7508(4) 0.2415(6)
H51 H 0.6028 0.7864 0.2292
H52 H 0.5562 0.7345 0.2207
Cd13_7 Cd 1.0000 1.0000 0.0000
O28 O 0.7412(4) 0.4745(2) 0.3664(4)
O30 O 0.8913(3) 0.48301(18) 0.3636(3)
O40 O 0.8383(4) 0.7790(2) 0.3020(3)
O42 O 0.8520(4) 0.7455(2) 0.4344(3)
C38 C 0.9619(4) 0.6277(3) 0.8772(4)
H22 H 0.9209 0.6217 0.8203
C39 C 0.9548(5) 0.6778(3) 0.9215(4)
C42 C 0.8778(5) 0.7205(3) 0.8840(5)
O11 O 0.8383(4) 0.7210(2) 0.8020(3)
O12 O 0.8520(4) 0.7545(2) 0.9344(3)
Cd8 Cd 0.74273(3) 0.800729(18) 0.80323(3)
Cd13_8 Cd 1.0000 1.0000 1.0000
Cd15 Cd 0.76491(3) 0.937743(16) 0.91626(3)
C38_2 C 0.0381(4) 0.1277(3) 0.6228(4)
H22_2 H 0.0791 0.1217 0.6797
C39_2 C 0.0452(5) 0.1778(3) 0.5785(4)
C42_2 C 0.1222(5) 0.2205(3) 0.6160(5)
C45_2 C 0.0025(4) 0.1732(3) 0.1967(4)
H28_2 H 0.0625 0.1690 0.2380
C49_2 C 0.0623(4) 0.1219(2) 0.0851(4)
O14_2 O 0.0418(3) 0.09502(16) 0.0130(3)
O15_2 O 0.1474(3) 0.12366(17) 0.1369(3)
O26_2 O 0.3898(5) 0.2508(4) 0.2585(6)
H51_2 H 0.3972 0.2864 0.2708
H52_2 H 0.4438 0.2345 0.2793
O32 O 0.3950(3) 0.0759(2) 0.1121(4)
O34 O 0.3262(3) 0.1599(2) 0.0962(3)
O36 O 0.3126(4) 0.1038(3) 0.2768(5)
O38 O 0.2360(5) 0.1707(3) 0.3296(4)
C64_2 C 0.1679(4) 0.0121(3) 0.9008(4)
C70_2 C 0.2398(5) 0.0086(3) 0.7733(4)
H42_2 H 0.2921 0.0291 0.8081
C72_2 C 0.1722(5) 0.0508(3) 0.5034(5)
H43_2 H 0.1436 0.0627 0.5459
C73_2 C 0.2004(5) 0.0910(3) 0.4522(5)
H44_2 H 0.1924 0.1298 0.4621
C74_2 C 0.2398(5) 0.0752(4) 0.3873(5)
C75_2 C 0.2535(6) 0.0178(4) 0.3751(5)
H45_2 H 0.2808 0.0065 0.3313
C77_2 C 0.2653(5) 0.1200(5) 0.3268(6)
O20_2 O 0.2246(3) 0.0503(2) 0.9403(3)
H3_2 H 0.1154 0.8552 0.0061
C1_2 C 0.1591(4) 0.7931(3) 0.8393(5)
C2_2 C 0.0705(4) 0.7996(3) 0.7787(4)
H1_2 H 0.0593 0.7858 0.7211
C4_2 C 0.0133(4) 0.8477(2) 0.8883(4)
C5_2 C 0.1037(5) 0.8410(3) 0.9487(5)
C6_2 C 0.1762(5) 0.8137(3) 0.9247(5)
H4_2 H 0.2361 0.8092 0.9659
C8_2 C 0.2180(4) 0.7114(3) 0.7698(5)
C9_2 C 0.1490(4) 0.6736(3) 0.7821(5)
H5_2 H 0.1118 0.6838 0.8185
C10_2 C 0.1362(4) 0.6204(3) 0.7394(4)
H6_2 H 0.0878 0.5961 0.7450
C11_2 C 0.1934(4) 0.6036(2) 0.6898(4)
C12_2 C 0.2617(5) 0.6411(3) 0.6773(5)
H7_2 H 0.3007 0.6298 0.6431
C13_2 C 0.2725(5) 0.6948(3) 0.7148(5)
H8_2 H 0.3165 0.7203 0.7034
C14_2 C 0.1849(5) 0.5442(3) 0.6495(4)
C15_2 C 0.3248(4) 0.7913(3) 0.8350(5)
C16_2 C 0.3326(5) 0.8494(3) 0.8228(6)
H9_2 H 0.2776 0.8716 0.8020
C17_2 C 0.4207(5) 0.8751(3) 0.8411(6)
H10_2 H 0.4246 0.9145 0.8328
C18_2 C 0.5046(4) 0.8428(3) 0.8722(4)
C19_2 C 0.4963(5) 0.7853(3) 0.8856(5)
H11_2 H 0.5513 0.7631 0.9062
C20_2 C 0.4077(5) 0.7593(3) 0.8693(5)
H12_2 H 0.4037 0.7204 0.8813
C21_2 C 0.6005(4) 0.8714(3) 0.8886(4)
N1_2 N 0.2343(3) 0.7651(2) 0.8136(5)
O5 O 0.6050(3) 0.9241(2) 0.8879(4)
O6 O 0.6738(3) 0.8401(2) 0.9038(3)
C65_2 C 0.1659(4) 0.9956(2) 0.8071(4)
C66_2 C 0.0869(4) 0.9669(3) 0.7526(4)
H39_2 H 0.0362 0.9573 0.7744
C67_2 C 0.0828(4) 0.9525(3) 0.6675(4)
H40_2 H 0.0286 0.9342 0.6317
C68_2 C 0.1582(4) 0.9646(3) 0.6333(4)
C69_2 C 0.2380(5) 0.9919(3) 0.6890(4)
H41_2 H 0.2908 0.9989 0.6691
C71_2 C 0.1860(5) 0.9932(3) 0.4922(4)
C76_2 C 0.2272(6) 0.9758(3) 0.4270(5)
H46_2 H 0.2371 0.9370 0.4182
C78_2 C 0.0912(5) 0.9060(3) 0.4998(4)
C79_2 C 0.0289(5) 0.9139(3) 0.4155(4)
H47_2 H 0.0320 0.9475 0.3843
C82_2 C 0.0219(6) 0.8130(3) 0.5041(5)
H49_2 H 0.0209 0.7787 0.5342
C83_2 C 0.0892(5) 0.8537(3) 0.5414(5)
H50_2 H 0.1343 0.8462 0.5957
N4_2 N 0.1545(4) 0.9505(2) 0.5448(3)
O21_2 O 0.1114(3) 0.98477(19) 0.9337(3)
C23_2 C 0.8341(4) 0.0044(2) 0.1929(4)
C24_2 C 0.9131(4) 0.0331(3) 0.2474(4)
H13_2 H 0.9638 0.0427 0.2256
C25_2 C 0.9172(4) 0.0475(3) 0.3325(4)
H14_2 H 0.9714 0.0658 0.3683
C26_2 C 0.8418(4) 0.0354(3) 0.3667(4)
C27_2 C 0.7620(5) 0.0081(3) 0.3110(4)
H15_2 H 0.7092 0.0011 0.3309
C29_2 C 0.8140(5) 0.0068(3) 0.5078(4)
C34_2 C 0.7728(6) 0.0242(3) 0.5730(5)
H20_2 H 0.7629 0.0630 0.5818
C36_2 C 0.9088(5) 0.0940(3) 0.5002(4)
C37_2 C 0.9711(5) 0.0861(3) 0.5845(4)
H21_2 H 0.9680 0.0525 0.6157
C40_2 C 0.9781(6) 0.1870(3) 0.4959(5)
H23_2 H 0.9791 0.2213 0.4658
C41_2 C 0.9108(5) 0.1463(3) 0.4586(5)
H24_2 H 0.8657 0.1538 0.4043
N2_2 N 0.8455(4) 0.0495(2) 0.4552(3)
O8_2 O 0.8886(3) 0.01523(19) 0.0663(3)
C43_2 C 0.8409(4) 0.2069(3) 0.1607(5)
C44_2 C 0.9295(4) 0.2004(3) 0.2213(4)
H27_2 H 0.9407 0.2142 0.2789
C46_2 C 0.9867(4) 0.1523(2) 0.1117(4)
C47_2 C 0.8963(5) 0.1590(3) 0.0513(5)
C48_2 C 0.8238(5) 0.1863(3) 0.0753(5)
H30_2 H 0.7639 0.1908 0.0341
C50_2 C 0.7820(4) 0.2886(3) 0.2302(5)
C51_2 C 0.8510(4) 0.3264(3) 0.2179(5)
H31_2 H 0.8882 0.3162 0.1815
C52_2 C 0.8638(4) 0.3796(3) 0.2606(4)
H32_2 H 0.9122 0.4039 0.2550
C53_2 C 0.8066(4) 0.3964(2) 0.3102(4)
C54_2 C 0.7383(5) 0.3589(3) 0.3227(5)
H33_2 H 0.6993 0.3702 0.3569
C55_2 C 0.7275(5) 0.3052(3) 0.2852(5)
H34_2 H 0.6835 0.2797 0.2966
C56_2 C 0.8151(5) 0.4558(3) 0.3505(4)
C57_2 C 0.6752(4) 0.2087(3) 0.1650(5)
C58_2 C 0.6674(5) 0.1506(3) 0.1772(6)
H35_2 H 0.7224 0.1284 0.1980
C59_2 C 0.5793(5) 0.1249(3) 0.1589(6)
H36_2 H 0.5754 0.0855 0.1672
C60_2 C 0.4954(4) 0.1572(3) 0.1278(4)
C61_2 C 0.5037(5) 0.2147(3) 0.1144(5)
H37_2 H 0.4487 0.2369 0.0938
C62_2 C 0.5923(5) 0.2407(3) 0.1307(5)
H38_2 H 0.5963 0.2796 0.1187
C63_2 C 0.3995(4) 0.1286(3) 0.1114(4)
N3_2 N 0.7657(3) 0.2349(2) 0.1864(5)
H29_2 H 0.8846 0.1448 0.9939
C22_2 C 0.8321(4) 0.9879(3) 0.0992(4)
C28_2 C 0.7602(5) 0.9914(3) 0.2267(4)
H16_2 H 0.7079 0.9709 0.1919
C30_2 C 0.8278(5) 0.9492(3) 0.4966(5)
H17_2 H 0.8564 0.9373 0.4541
C31_2 C 0.7996(5) 0.9090(3) 0.5478(5)
H18_2 H 0.8076 0.8702 0.5379
C32_2 C 0.7602(5) 0.9248(4) 0.6127(5)
C33_2 C 0.7465(6) 0.9822(4) 0.6249(5)
H19_2 H 0.7192 0.9935 0.6687
C35_2 C 0.7347(5) 0.8800(5) 0.6732(6)
O7_2 O 0.7754(3) 0.9497(2) 0.0597(3)
O9 O 0.6874(4) 0.8962(3) 0.7232(5)
O10 O 0.7640(5) 0.8293(3) 0.6704(4)
C3_2 C 0.9975(4) 0.8268(3) 0.8033(4)
H2_2 H 0.9375 0.8310 0.7620
C7_2 C 0.9377(4) 0.8781(2) 0.9149(4)
O1_2 O 0.9582(3) 0.90498(16) 0.9870(3)
O2_2 O 0.8526(3) 0.87634(17) 0.8631(3)
O13_2 O 0.6102(5) 0.7492(4) 0.7415(6)
H25_2 H 0.6028 0.7136 0.7292
H26_2 H 0.5562 0.7655 0.7207
C80_2 C 0.9619(4) 0.8723(3) 0.3772(4)
H48_2 H 0.9209 0.8783 0.3203
C81_2 C 0.9548(5) 0.8222(3) 0.4215(4)
C84_2 C 0.8778(5) 0.7795(3) 0.3840(5)
C85 C 0.1042(8) 0.3133(5) 0.3733(7)
H53 H 0.1029 0.3521 0.3934
H54 H 0.0588 0.2906 0.3920
H55 H 0.0880 0.3128 0.3095
C86 C 0.2747(12) 0.3153(7) 0.3909(9)
H56 H 0.2542 0.3216 0.3278
H57 H 0.3326 0.2931 0.4066
H58 H 0.2863 0.3516 0.4211
N5 N 0.2081(11) 0.2874(6) 0.4143(7)
H59 H 0.2225 0.2878 0.4739
H60 H 0.2080 0.2505 0.3970
C85_2 C 0.8958(8) 0.8133(5) 0.1267(7)
H53_2 H 0.8971 0.8521 0.1066
H54_2 H 0.9412 0.7906 0.1080
H55_2 H 0.9120 0.8128 0.1905
C86_2 C 0.7253(12) 0.8153(7) 0.1091(9)
H56_2 H 0.7458 0.8216 0.1722
H57_2 H 0.6674 0.7931 0.0934
H58_2 H 0.7137 0.8516 0.0789
N5_2 N 0.7919(11) 0.7874(6) 0.0857(7)
H59_2 H 0.7775 0.7878 0.0261
H60_2 H 0.7920 0.7505 0.1030
C85_3 C 0.8958(8) 0.6867(5) 0.6267(7)
H53_3 H 0.8971 0.6479 0.6066
H54_3 H 0.9412 0.7094 0.6080
H55_3 H 0.9120 0.6872 0.6905
C86_3 C 0.7253(12) 0.6847(7) 0.6091(9)
H56_3 H 0.7458 0.6784 0.6722
H57_3 H 0.6674 0.7069 0.5934
H58_3 H 0.7137 0.6484 0.5789
N5_3 N 0.7919(11) 0.7126(6) 0.5857(7)
H59_3 H 0.7775 0.7122 0.5261
H60_3 H 0.7920 0.7495 0.6030
C85_4 C 0.1042(8) 0.1867(5) 0.8733(7)
H53_4 H 0.1029 0.1479 0.8934
H54_4 H 0.0588 0.2094 0.8920
H55_4 H 0.0880 0.1872 0.8095
C86_4 C 0.2747(12) 0.1847(7) 0.8909(9)
H56_4 H 0.2542 0.1784 0.8278
H57_4 H 0.3326 0.2069 0.9066
H58_4 H 0.2863 0.1484 0.9211
N5_4 N 0.2081(11) 0.2126(6) 0.9143(7)
H59_4 H 0.2225 0.2122 0.9739
H60_4 H 0.2080 0.2495 0.8970
loop_
_geom_bond_atom_site_label_1
_geom_bond_atom_site_label_2
_geom_bond_site_symmetry_1
_geom_bond_site_symmetry_2
H48 C80 1_555 1_555
C81 C80 1_555 1_555
C84 C81 1_555 1_555
O24 C84 1_555 1_555
O25 C84 1_555 1_555
Cd11 O24 1_555 1_555
O25 Cd11 1_555 1_555
Cd1 O2 1_555 1_555
Cd2 O1 1_555 1_555
Cd3 O2 1_555 1_555
H2 C3 1_555 1_555
C22 C23 1_555 1_555
C23 C24 1_555 1_555
C24 H13 1_555 1_555
C25 C24 1_555 1_555
H14 C25 1_555 1_555
C26 C25 1_555 1_555
C27 C26 1_555 1_555
H15 C27 1_555 1_555
C28 C23 1_555 1_555
H16 C28 1_555 1_555
C30 H17 1_555 1_555
H23 C40 1_555 1_555
H24 C41 1_555 1_555
N2 C26 1_555 1_555
O1 C7 1_555 1_555
O2 C7 1_555 1_555
O7 Cd3 1_555 1_555
O8 Cd2 1_555 1_555
O13 Cd1 1_555 1_555
H25 O13 1_555 1_555
H26 O13 1_555 1_555
C43 C44 1_555 1_555
C44 H27 1_555 1_555
C47 C46 1_555 1_555
H29 C47 1_555 1_555
C48 C43 1_555 1_555
H30 C48 1_555 1_555
C50 C51 1_555 1_555
C51 H31 1_555 1_555
C52 C51 1_555 1_555
H32 C52 1_555 1_555
C53 C52 1_555 1_555
C54 C53 1_555 1_555
H33 C54 1_555 1_555
C55 C50 1_555 1_555
H34 C55 1_555 1_555
C56 C53 1_555 1_555
C57 C58 1_555 1_555
C58 H35 1_555 1_555
C59 C58 1_555 1_555
H36 C59 1_555 1_555
C60 C59 1_555 1_555
C61 C60 1_555 1_555
H37 C61 1_555 1_555
C62 C57 1_555 1_555
H38 C62 1_555 1_555
C63 C60 1_555 1_555
N3 C43 1_555 1_555
O16 C56 1_555 1_555
O17 C56 1_555 1_555
O18 C63 1_555 1_555
O19 C63 1_555 1_555
Cd10 O19 1_555 1_555
Cd13_3 O17 1_555 1_555
Cd16 O18 1_555 1_555
O27 Cd3 1_555 1_555
O29 Cd2 1_555 1_555
O31 Cd3 1_555 1_555
O33 Cd1 1_555 1_555
O35 Cd1 1_555 1_555
O37 Cd1 1_555 1_555
O39 Cd1 1_555 1_555
O41 Cd1 1_555 1_555
Cd3 O33 1_555 1_555
C22 O7 1_555 1_555
C22 O8 1_555 1_555
C27 C28 1_555 1_555
C40 C41 1_555 1_555
C47 C48 1_555 1_555
C50 N3 1_555 1_555
C54 C55 1_555 1_555
C57 N3 1_555 1_555
C61 C62 1_555 1_555
O19 Cd16 1_555 1_555
H18 C31 1_555 1_555
C32 C31 1_555 1_555
C33 C32 1_555 1_555
H19 C33 1_555 1_555
C34 C29 1_555 1_555
H20 C34 1_555 1_555
C35 C32 1_555 1_555
C36 C37 1_555 1_555
C37 H21 1_555 1_555
O35 C35 1_555 1_555
O37 C35 1_555 1_555
C33 C34 1_555 1_555
H44 C73 1_555 1_555
C74 C73 1_555 1_555
C75 C74 1_555 1_555
H45 C75 1_555 1_555
C76 C71 1_555 1_555
H46 C76 1_555 1_555
C77 C74 1_555 1_555
C78 C79 1_555 1_555
C79 H47 1_555 1_555
O22 C77 1_555 1_555
O23 C77 1_555 1_555
Cd10 O22 1_555 1_555
C75 C76 1_555 1_555
O23 Cd10 1_555 1_555
C1 C2 1_555 1_555
C2 H1 1_555 1_555
C5 C4 1_555 1_555
H3 C5 1_555 1_555
C6 C1 1_555 1_555
H4 C6 1_555 1_555
C8 C9 1_555 1_555
C9 H5 1_555 1_555
C10 C9 1_555 1_555
H6 C10 1_555 1_555
C11 C10 1_555 1_555
C12 C11 1_555 1_555
H7 C12 1_555 1_555
C13 C8 1_555 1_555
H8 C13 1_555 1_555
C14 C11 1_555 1_555
C15 C16 1_555 1_555
C16 H9 1_555 1_555
C17 C16 1_555 1_555
H10 C17 1_555 1_555
C18 C17 1_555 1_555
C19 C18 1_555 1_555
H11 C19 1_555 1_555
C20 C15 1_555 1_555
H12 C20 1_555 1_555
C21 C18 1_555 1_555
N1 C1 1_555 1_555
O3 C14 1_555 1_555
O4 C14 1_555 1_555
O31 C21 1_555 1_555
O33 C21 1_555 1_555
Cd10 O15 1_555 1_555
Cd16 O15 1_555 1_555
H28 C45 1_555 1_555
C64 C65 1_555 1_555
C65 C66 1_555 1_555
C66 H39 1_555 1_555
C67 C66 1_555 1_555
H40 C67 1_555 1_555
C68 C67 1_555 1_555
C69 C68 1_555 1_555
H41 C69 1_555 1_555
C70 C65 1_555 1_555
H42 C70 1_555 1_555
C72 H43 1_555 1_555
H49 C82 1_555 1_555
H50 C83 1_555 1_555
N4 C68 1_555 1_555
O14 Cd2_2 1_555 1_555
O15 C49 1_555 1_555
O20 Cd16 1_555 1_555
O21 Cd2_2 1_555 1_555
O26 Cd10 1_555 1_555
H51 O26 1_555 1_555
H52 O26 1_555 1_555
Cd13_6 O4 1_555 1_555
O28 Cd16 1_555 1_555
O30 Cd2_2 1_555 1_555
O40 Cd10 1_555 1_555
O42 Cd10 1_555 1_555
C5 C6 1_555 1_555
C8 N1 1_555 1_555
C12 C13 1_555 1_555
C15 N1 1_555 1_555
C19 C20 1_555 1_555
C49 O14 1_555 1_555
C64 O20 1_555 1_555
C64 O21 1_555 1_555
C69 C70 1_555 1_555
C82 C83 1_555 1_555
H22 C38 1_555 1_555
C39 C38 1_555 1_555
C42 C39 1_555 1_555
O11 C42 1_555 1_555
O12 C42 1_555 1_555
Cd8 O11 1_555 1_555
O12 Cd8 1_555 1_555
H22_2 C38_2 1_555 1_555
C39_2 C38_2 1_555 1_555
C42_2 C39_2 1_555 1_555
O39 C42_2 1_555 1_555
O41 C42_2 1_555 1_555
Cd11 O15_2 1_555 1_555
Cd17 O15_2 1_555 1_555
H28_2 C45_2 1_555 1_555
O14_2 Cd13 1_555 1_555
O15_2 C49_2 1_555 1_555
O26_2 Cd11 1_555 1_555
H51_2 O26_2 1_555 1_555
H52_2 O26_2 1_555 1_555
O32 Cd17 1_555 1_555
O34 Cd11 1_555 1_555
O36 Cd11 1_555 1_555
O38 Cd11 1_555 1_555
Cd17 O34 1_555 1_555
C49_2 O14_2 1_555 1_555
H42_2 C70_2 1_555 1_555
C72_2 H43_2 1_555 1_555
C73_2 C72_2 1_555 1_555
H44_2 C73_2 1_555 1_555
C74_2 C73_2 1_555 1_555
C75_2 C74_2 1_555 1_555
H45_2 C75_2 1_555 1_555
C77_2 C74_2 1_555 1_555
O36 C77_2 1_555 1_555
O38 C77_2 1_555 1_555
C64_2 O20_2 1_555 1_555
C1_2 C2_2 1_555 1_555
C2_2 H1_2 1_555 1_555
C5_2 C4_2 1_555 1_555
C6_2 C1_2 1_555 1_555
H4_2 C6_2 1_555 1_555
C8_2 C9_2 1_555 1_555
C9_2 H5_2 1_555 1_555
C10_2 C9_2 1_555 1_555
H6_2 C10_2 1_555 1_555
C11_2 C10_2 1_555 1_555
C12_2 C11_2 1_555 1_555
H7_2 C12_2 1_555 1_555
C13_2 C8_2 1_555 1_555
H8_2 C13_2 1_555 1_555
C14_2 C11_2 1_555 1_555
C15_2 C16_2 1_555 1_555
C16_2 H9_2 1_555 1_555
C17_2 C16_2 1_555 1_555
H10_2 C17_2 1_555 1_555
C18_2 C17_2 1_555 1_555
C19_2 C18_2 1_555 1_555
H11_2 C19_2 1_555 1_555
C20_2 C15_2 1_555 1_555
H12_2 C20_2 1_555 1_555
C21_2 C18_2 1_555 1_555
N1_2 C1_2 1_555 1_555
O27 C14_2 1_555 1_555
O29 C14_2 1_555 1_555
O5 C21_2 1_555 1_555
O6 C21_2 1_555 1_555
C65_2 C66_2 1_555 1_555
C66_2 H39_2 1_555 1_555
C67_2 C66_2 1_555 1_555
H40_2 C67_2 1_555 1_555
C68_2 C67_2 1_555 1_555
C69_2 C68_2 1_555 1_555
H41_2 C69_2 1_555 1_555
C76_2 C71_2 1_555 1_555
H46_2 C76_2 1_555 1_555
C78_2 C79_2 1_555 1_555
C79_2 H47_2 1_555 1_555
H49_2 C82_2 1_555 1_555
C83_2 C78_2 1_555 1_555
H50_2 C83_2 1_555 1_555
N4_2 C68_2 1_555 1_555
O21_2 Cd13_4 1_555 1_555
Cd8 O6 1_555 1_555
Cd15 O5 1_555 1_555
C5_2 C6_2 1_555 1_555
C8_2 N1_2 1_555 1_555
C12_2 C13_2 1_555 1_555
C15_2 N1_2 1_555 1_555
C19_2 C20_2 1_555 1_555
O6 Cd15 1_555 1_555
C71_2 N4_2 1_555 1_555
C78_2 N4_2 1_555 1_555
C82_2 C83_2 1_555 1_555
C23_2 C24_2 1_555 1_555
C24_2 H13_2 1_555 1_555
C25_2 C24_2 1_555 1_555
H14_2 C25_2 1_555 1_555
C26_2 C25_2 1_555 1_555
C27_2 C26_2 1_555 1_555
H15_2 C27_2 1_555 1_555
C34_2 C29_2 1_555 1_555
H20_2 C34_2 1_555 1_555
C36_2 C37_2 1_555 1_555
C37_2 H21_2 1_555 1_555
H23_2 C40_2 1_555 1_555
C41_2 C36_2 1_555 1_555
H24_2 C41_2 1_555 1_555
N2_2 C26_2 1_555 1_555
O8_2 Cd13_5 1_555 1_555
C43_2 C44_2 1_555 1_555
C44_2 H27_2 1_555 1_555
C47_2 C46_2 1_555 1_555
C48_2 C43_2 1_555 1_555
H30_2 C48_2 1_555 1_555
C50_2 C51_2 1_555 1_555
C51_2 H31_2 1_555 1_555
C52_2 C51_2 1_555 1_555
H32_2 C52_2 1_555 1_555
C53_2 C52_2 1_555 1_555
C54_2 C53_2 1_555 1_555
H33_2 C54_2 1_555 1_555
C55_2 C50_2 1_555 1_555
H34_2 C55_2 1_555 1_555
C56_2 C53_2 1_555 1_555
C57_2 C58_2 1_555 1_555
C58_2 H35_2 1_555 1_555
C59_2 C58_2 1_555 1_555
H36_2 C59_2 1_555 1_555
C60_2 C59_2 1_555 1_555
C61_2 C60_2 1_555 1_555
H37_2 C61_2 1_555 1_555
C62_2 C57_2 1_555 1_555
H38_2 C62_2 1_555 1_555
C63_2 C60_2 1_555 1_555
N3_2 C43_2 1_555 1_555
O28 C56_2 1_555 1_555
O30 C56_2 1_555 1_555
O32 C63_2 1_555 1_555
O34 C63_2 1_555 1_555
C29_2 N2_2 1_555 1_555
C36_2 N2_2 1_555 1_555
C40_2 C41_2 1_555 1_555
C47_2 C48_2 1_555 1_555
C50_2 N3_2 1_555 1_555
C54_2 C55_2 1_555 1_555
C57_2 N3_2 1_555 1_555
C61_2 C62_2 1_555 1_555
H16_2 C28_2 1_555 1_555
C30_2 H17_2 1_555 1_555
C31_2 C30_2 1_555 1_555
H18_2 C31_2 1_555 1_555
C32_2 C31_2 1_555 1_555
C33_2 C32_2 1_555 1_555
H19_2 C33_2 1_555 1_555
C35_2 C32_2 1_555 1_555
O9 C35_2 1_555 1_555
O10 C35_2 1_555 1_555
Cd8 O9 1_555 1_555
C22_2 O7_2 1_555 1_555
O10 Cd8 1_555 1_555
Cd8 O2_2 1_555 1_555
Cd13_8 O1_2 1_555 1_555
Cd15 O2_2 1_555 1_555
H2_2 C3_2 1_555 1_555
O1_2 C7_2 1_555 1_555
O2_2 C7_2 1_555 1_555
O13_2 Cd8 1_555 1_555
H25_2 O13_2 1_555 1_555
H26_2 O13_2 1_555 1_555
H48_2 C80_2 1_555 1_555
C81_2 C80_2 1_555 1_555
C84_2 C81_2 1_555 1_555
O40 C84_2 1_555 1_555
O42 C84_2 1_555 1_555
C85 H53 1_555 1_555
H54 C85 1_555 1_555
H55 C85 1_555 1_555
C86 H56 1_555 1_555
H57 C86 1_555 1_555
H58 C86 1_555 1_555
N5 C85 1_555 1_555
H59 N5 1_555 1_555
H60 N5 1_555 1_555
C86 N5 1_555 1_555
C85_2 H53_2 1_555 1_555
H54_2 C85_2 1_555 1_555
H55_2 C85_2 1_555 1_555
C86_2 H56_2 1_555 1_555
H57_2 C86_2 1_555 1_555
H58_2 C86_2 1_555 1_555
N5_2 C85_2 1_555 1_555
H59_2 N5_2 1_555 1_555
H60_2 N5_2 1_555 1_555
C86_2 N5_2 1_555 1_555
C85_3 H53_3 1_555 1_555
H54_3 C85_3 1_555 1_555
H55_3 C85_3 1_555 1_555
C86_3 H56_3 1_555 1_555
H57_3 C86_3 1_555 1_555
H58_3 C86_3 1_555 1_555
N5_3 C85_3 1_555 1_555
H59_3 N5_3 1_555 1_555
H60_3 N5_3 1_555 1_555
C86_3 N5_3 1_555 1_555
C85_4 H53_4 1_555 1_555
H54_4 C85_4 1_555 1_555
H55_4 C85_4 1_555 1_555
C86_4 H56_4 1_555 1_555
H57_4 C86_4 1_555 1_555
H58_4 C86_4 1_555 1_555
N5_4 C85_4 1_555 1_555
H59_4 N5_4 1_555 1_555
H60_4 N5_4 1_555 1_555
C86_4 N5_4 1_555 1_555

#END
