
###############################################################################
#
# This file contains modified crystal structure data generated from the
# MOF subset of the Cambridge Structural Database (CSD) v543 
# hosted by the Cambridge Crystallographic Data Centre (CCDC).
#
# This work is licensed under the Creative Commons
# Attribution-NonCommercial-ShareAlike 4.0 International License.
# To view a copy of this license, visit
# http://creativecommons.org/licenses/by-nc-sa/4.0/
# or send a letter to
# Creative Commons, PO Box 1866, Mountain View, CA 94042, USA.
#
# CIF created using the CSD Python API on 29 September 2022
# The structure has been converted into the P1 space group
# The structure has a 3D framework
# The original CSD entry YUYLOV is in the monoclinic crystal system
# The framework has been calculated to contain at least 10.0% void space
# The void calculation uses a probe of radius 1.32A, grid spacing 0.4
# The framework is charged, counterions have been retained in the structure
# H atom positions have been added when not included in the experimental data
# Generated hydrogen atom positions removed from atoms on special positions
#
###############################################################################

data_YUYLOV
_chemical_formula_moiety         '(C176 H140 Cd7 Cu4 N12 O52)n'
_symmetry_cell_setting           triclinic
_symmetry_space_group_name_H-M   'P 1'
_symmetry_Int_Tables_number      1
_space_group_name_Hall           'P 1'
loop_
_symmetry_equiv_pos_site_id
_symmetry_equiv_pos_as_xyz
1 x,y,z
_cell_length_a                   14.3997(19)
_cell_length_b                   23.362(3)
_cell_length_c                   15.543(3)
_cell_angle_alpha                90
_cell_angle_beta                 106.309(9)
_cell_angle_gamma                90
_cell_volume                     5018.36
loop_
_atom_site_label
_atom_site_type_symbol
_atom_site_fract_x
_atom_site_fract_y
_atom_site_fract_z
H22 H 0.0408 0.2321 0.9053
C42 C 0.0899(8) 0.1235(5) 0.8990(7)
O11 O 0.0922(5) 0.0696(3) 0.9000(6)
O12 O 0.1665(5) 0.1518(4) 0.9140(5)
Cd7 Cd 0.25889(5) 0.05907(3) 0.92450(5)
Cu4 Cu 0.22480(7) 0.19356(4) 0.80364(7)
Cd1 Cd 0.5000 0.0000 0.0000
C12 C 0.2643(9) 0.0011(5) 0.2388(7)
H7 H 0.2116 0.0221 0.2055
C14 C 0.3352(7) 0.0082(4) 0.1103(7)
C17 C 0.2358(10) 0.0066(6) 0.6343(9)
C18 C 0.2497(9) 0.0644(6) 0.6231(8)
C19 C 0.2954(10) 0.0771(6) 0.5635(9)
H11 H 0.3074 0.1157 0.5561
C20 C 0.3270(9) 0.0390(5) 0.5116(8)
H12 H 0.3588 0.0526 0.4712
C21 C 0.2181(10) 0.1022(7) 0.6800(10)
O4 O 0.2722(6) 0.0448(3) 0.0668(5)
O5 O 0.1821(7) 0.0847(5) 0.7421(7)
O6 O 0.2453(7) 0.1563(5) 0.6754(6)
O36 O 0.6217(6) 0.0190(3) 0.1285(5)
O38 O 0.7737(6) 0.0304(3) 0.1192(5)
Cd1_2 Cd 0.5000 0.0000 1.0000
C22 C 0.6444(7) 0.2089(4) 0.8307(7)
C23 C 0.6653(8) 0.1854(5) 0.9179(8)
H13 H 0.7268 0.1881 0.9578
C24 C 0.5937(7) 0.1593(5) 0.9409(8)
H14 H 0.6063 0.1448 0.9987
C25 C 0.5035(7) 0.1528(4) 0.8848(6)
C26 C 0.4837(7) 0.1745(4) 0.7999(7)
H15 H 0.4218 0.1707 0.7610
C27 C 0.5536(7) 0.2017(4) 0.7715(7)
H16 H 0.5403 0.2153 0.7130
C28 C 0.4266(7) 0.1205(4) 0.9142(6)
C29 C 0.7098(8) 0.2857(4) 0.7544(8)
C30 C 0.6392(7) 0.3265(4) 0.7610(7)
H17 H 0.5949 0.3175 0.7925
C31 C 0.6361(7) 0.3778(4) 0.7220(6)
H18 H 0.5886 0.4035 0.7271
C32 C 0.6949(7) 0.3935(4) 0.6779(6)
C33 C 0.7674(8) 0.3553(5) 0.6696(8)
H19 H 0.8118 0.3673 0.6401
C34 C 0.7747(8) 0.3000(5) 0.7040(8)
H20 H 0.8196 0.2738 0.6945
C35 C 0.6972(8) 0.4515(4) 0.6387(7)
C36 C 0.8174(8) 0.2049(5) 0.8266(8)
C37 C 0.8970(8) 0.2365(5) 0.8627(8)
H21 H 0.8922 0.2755 0.8729
C38 C 0.9855(9) 0.2099(5) 0.8841(8)
C39 C 0.9960(7) 0.1498(4) 0.8752(7)
C40 C 0.9111(9) 0.1213(5) 0.8366(8)
H23 H 0.9137 0.0819 0.8293
C41 C 0.8204(8) 0.1484(5) 0.8077(9)
H24 H 0.7650 0.1285 0.7770
N2 N 0.7218(6) 0.2331(4) 0.8018(7)
O7 O 0.4479(5) 0.0926(3) 0.9839(5)
O8 O 0.3427(5) 0.1207(3) 0.8657(5)
O9 O 0.6217(6) 0.4810(3) 0.6285(5)
O10 O 0.7737(6) 0.4696(3) 0.6192(5)
O13 O 0.0852(8) 0.2361(6) 0.7257(9)
C43 C 0.5821(8) 0.1003(5) 0.4846(7)
C44 C 0.5189(9) 0.0917(5) 0.4042(7)
H25 H 0.5249 0.0582 0.3739
C45 C 0.4470(8) 0.1281(5) 0.3638(7)
H26 H 0.4058 0.1187 0.3080
C46 C 0.4339(10) 0.1777(5) 0.4029(8)
C47 C 0.4990(11) 0.1874(6) 0.4814(10)
H27 H 0.4929 0.2217 0.5097
C48 C 0.5775(10) 0.1510(6) 0.5272(9)
H28 H 0.6216 0.1610 0.5814
C49 C 0.3544(9) 0.2236(6) 0.3756(9)
C50 C 0.6553(8) 0.0426(5) 0.6258(7)
C51 C 0.5830(10) 0.0548(5) 0.6593(7)
H29 H 0.5300 0.0754 0.6256
C52 C 0.5868(9) 0.0364(5) 0.7465(7)
H30 H 0.5346 0.0431 0.7693
C53 C 0.6629(7) 0.0101(4) 0.7951(6)
C55 C 0.7338(8) 0.0181(5) 0.6775(7)
H32 H 0.7882 0.0139 0.6570
C57 C 0.6860(10) 0.0162(5) 0.4832(8)
C58 C 0.7369(11) 0.0365(7) 0.4232(10)
H33 H 0.7522 0.0750 0.4204
H34 H 0.7913 0.0053 0.3210
N3 N 0.6481(8) 0.0574(5) 0.5349(7)
O14 O 0.3159(8) 0.2155(5) 0.2850(7)
O15 O 0.3333(10) 0.2556(5) 0.4224(8)
O16 O 0.6042(5) 0.0145(3) 0.9226(5)
Cd5 Cd 0.5000 0.5000 0.5000
Cd8 Cd 0.74111(5) 0.55907(3) 0.57550(5)
Cu8 Cu 0.22480(7) 0.30644(4) 0.30364(7)
O27 O 0.3159(8) 0.2845(5) 0.7850(7)
O29 O 0.3333(10) 0.2444(5) 0.9224(8)
Cd1_3 Cd 0.5000 1.0000 0.0000
C1 C 0.4179(8) 0.8997(5) 0.5154(7)
C2 C 0.4811(9) 0.9083(5) 0.5958(7)
H1 H 0.4751 0.9418 0.6261
C3 C 0.5530(8) 0.8719(5) 0.6362(7)
H2 H 0.5942 0.8813 0.6920
C4 C 0.5661(10) 0.8223(5) 0.5971(8)
C5 C 0.5010(11) 0.8126(6) 0.5186(10)
H3 H 0.5071 0.7783 0.4903
C6 C 0.4225(10) 0.8490(6) 0.4728(9)
H4 H 0.3784 0.8390 0.4186
C7 C 0.6456(9) 0.7764(6) 0.6244(9)
C8 C 0.3447(8) 0.9574(5) 0.3742(7)
C9 C 0.4170(10) 0.9452(5) 0.3407(7)
H5 H 0.4700 0.9246 0.3744
C10 C 0.4132(9) 0.9636(5) 0.2535(7)
H6 H 0.4654 0.9569 0.2307
C11 C 0.3371(7) 0.9899(4) 0.2049(6)
C13 C 0.2662(8) 0.9819(5) 0.3225(7)
H8 H 0.2118 0.9861 0.3430
C15 C 0.3140(10) 0.9838(5) 0.5168(8)
C16 C 0.2631(11) 0.9635(7) 0.5768(10)
H9 H 0.2478 0.9250 0.5796
H10 H 0.2087 0.9947 0.6790
N1 N 0.3519(8) 0.9426(5) 0.4651(7)
O1 O 0.6841(8) 0.7845(5) 0.7150(7)
O2 O 0.6667(10) 0.7444(5) 0.5776(8)
O3 O 0.3958(5) 0.9855(3) 0.0774(5)
Cd3 Cd 0.74111(5) 0.94093(3) 0.07550(5)
Cu2 Cu 0.77520(7) 0.80644(4) 0.19636(7)
C64 C 0.3556(7) 0.7911(4) 0.1693(7)
C65 C 0.3347(8) 0.8146(5) 0.0821(8)
H37 H 0.2732 0.8119 0.0422
C66 C 0.4063(7) 0.8407(5) 0.0591(8)
H38 H 0.3937 0.8552 0.0013
C67 C 0.4965(7) 0.8472(4) 0.1152(6)
C68 C 0.5163(7) 0.8255(4) 0.2001(7)
H39 H 0.5782 0.8293 0.2390
C69 C 0.4464(7) 0.7983(4) 0.2285(7)
H40 H 0.4597 0.7847 0.2870
C70 C 0.5734(7) 0.8795(4) 0.0858(6)
C71 C 0.2902(8) 0.7143(4) 0.2456(8)
C72 C 0.3608(7) 0.6735(4) 0.2390(7)
H41 H 0.4051 0.6825 0.2075
C73 C 0.3639(7) 0.6222(4) 0.2780(6)
H42 H 0.4114 0.5965 0.2729
C74 C 0.3051(7) 0.6065(4) 0.3221(6)
C75 C 0.2326(8) 0.6447(5) 0.3304(8)
H43 H 0.1882 0.6327 0.3599
C76 C 0.2253(8) 0.7000(5) 0.2960(8)
H44 H 0.1804 0.7262 0.3055
C77 C 0.3028(8) 0.5485(4) 0.3613(7)
C78 C 0.1826(8) 0.7951(5) 0.1734(8)
C79 C 0.1030(8) 0.7635(5) 0.1373(8)
H45 H 0.1078 0.7245 0.1271
C80 C 0.0145(9) 0.7901(5) 0.1159(8)
C81 C 0.0040(7) 0.8502(4) 0.1248(7)
C82 C 0.0889(9) 0.8787(5) 0.1634(8)
H47 H 0.0863 0.9181 0.1707
C83 C 0.1796(8) 0.8516(5) 0.1923(9)
H48 H 0.2350 0.8715 0.2230
N4 N 0.2782(6) 0.7669(4) 0.1982(7)
O20 O 0.5521(5) 0.9074(3) 0.0161(5)
O21 O 0.6573(5) 0.8793(3) 0.1343(5)
O22 O 0.3783(6) 0.5190(3) 0.3715(5)
O23 O 0.2263(6) 0.5304(3) 0.3808(5)
O26 O 0.9148(8) 0.7639(6) 0.2743(9)
Cd11 Cd 0.25889(5) 0.44093(3) 0.42450(5)
Cu5 Cu 0.77520(7) 0.69356(4) 0.69636(7)
O28 O 0.6841(8) 0.7155(5) 0.2150(7)
O30 O 0.6667(10) 0.7556(5) 0.0776(8)
O32 O 0.8179(7) 0.9153(5) 0.2579(7)
O34 O 0.7547(7) 0.8437(5) 0.3246(6)
O40 O 0.9078(5) 0.9304(3) 0.1000(6)
O42 O 0.8335(5) 0.8482(4) 0.0860(5)
Cd1_4 Cd 0.5000 1.0000 1.0000
C54 C 0.7357(9) 0.9989(5) 0.7612(7)
H31 H 0.7884 0.9779 0.7945
C56 C 0.6648(7) 0.9918(4) 0.8897(7)
C59 C 0.7642(10) 0.9934(6) 0.3657(9)
C60 C 0.7503(9) 0.9356(6) 0.3769(8)
C61 C 0.7046(10) 0.9229(6) 0.4365(9)
H35 H 0.6926 0.8843 0.4439
C62 C 0.6730(9) 0.9610(5) 0.4884(8)
H36 H 0.6412 0.9474 0.5288
C63 C 0.7819(10) 0.8978(7) 0.3200(10)
O17 O 0.7278(6) 0.9552(3) 0.9332(5)
O35 O 0.3783(6) 0.9810(3) 0.8715(5)
O37 O 0.2263(6) 0.9696(3) 0.8808(5)
H46 H 0.9592 0.7679 0.0947
C84 C 0.9101(8) 0.8765(5) 0.1010(7)
H46_2 H 0.0408 0.2679 0.4053
C84_2 C 0.0899(8) 0.3765(5) 0.3990(7)
O24 O 0.0922(5) 0.4304(3) 0.4000(6)
O25 O 0.1665(5) 0.3482(4) 0.4140(5)
C43_2 C 0.4179(8) 0.6003(5) 0.0154(7)
C44_2 C 0.4811(9) 0.5917(5) 0.0958(7)
H25_2 H 0.4751 0.5582 0.1261
C45_2 C 0.5530(8) 0.6281(5) 0.1362(7)
H26_2 H 0.5942 0.6187 0.1920
C46_2 C 0.5661(10) 0.6777(5) 0.0971(8)
C47_2 C 0.5010(11) 0.6874(6) 0.0186(10)
C49_2 C 0.6456(9) 0.7236(6) 0.1244(9)
C57_2 C 0.3140(10) 0.5162(5) 0.0168(8)
C58_2 C 0.2631(11) 0.5365(7) 0.0768(10)
H33_2 H 0.2478 0.5750 0.0796
C59_2 C 0.2358(10) 0.4934(6) 0.1343(9)
H34_2 H 0.2087 0.5053 0.1790
C60_2 C 0.2497(9) 0.4356(6) 0.1231(8)
C61_2 C 0.2954(10) 0.4229(6) 0.0635(9)
H35_2 H 0.3074 0.3843 0.0561
C62_2 C 0.3270(9) 0.4610(5) 0.0116(8)
C63_2 C 0.2181(10) 0.3978(7) 0.1800(10)
O18 O 0.1821(7) 0.4153(5) 0.2421(7)
O19 O 0.2453(7) 0.3437(5) 0.1754(6)
H3_2 H 0.4929 0.2783 0.0097
C6_2 C 0.5775(10) 0.3490(6) 0.0272(9)
H4_2 H 0.6216 0.3390 0.0814
C8_2 C 0.6553(8) 0.4574(5) 0.1258(7)
C9_2 C 0.5830(10) 0.4452(5) 0.1593(7)
H5_2 H 0.5300 0.4246 0.1256
C10_2 C 0.5868(9) 0.4636(5) 0.2465(7)
H6_2 H 0.5346 0.4569 0.2693
C11_2 C 0.6629(7) 0.4899(4) 0.2951(6)
C12_2 C 0.7357(9) 0.5011(5) 0.2612(7)
H7_2 H 0.7884 0.5221 0.2945
C13_2 C 0.7338(8) 0.4819(5) 0.1775(7)
H8_2 H 0.7882 0.4861 0.1570
C14_2 C 0.6648(7) 0.5082(4) 0.3897(7)
H12_2 H 0.6412 0.5526 0.0288
C22_2 C 0.3556(7) 0.7089(4) 0.6693(7)
C23_2 C 0.3347(8) 0.6854(5) 0.5821(8)
H13_2 H 0.2732 0.6881 0.5422
C24_2 C 0.4063(7) 0.6593(5) 0.5591(8)
H14_2 H 0.3937 0.6448 0.5013
C25_2 C 0.4965(7) 0.6528(4) 0.6152(6)
C26_2 C 0.5163(7) 0.6745(4) 0.7001(7)
H15_2 H 0.5782 0.6707 0.7390
C27_2 C 0.4464(7) 0.7017(4) 0.7285(7)
H16_2 H 0.4597 0.7153 0.7870
C28_2 C 0.5734(7) 0.6205(4) 0.5858(6)
C29_2 C 0.2902(8) 0.7857(4) 0.7456(8)
C30_2 C 0.3608(7) 0.8265(4) 0.7390(7)
H17_2 H 0.4051 0.8175 0.7075
C31_2 C 0.3639(7) 0.8778(4) 0.7780(6)
H18_2 H 0.4114 0.9035 0.7729
C32_2 C 0.3051(7) 0.8935(4) 0.8221(6)
C33_2 C 0.2326(8) 0.8553(5) 0.8304(8)
H19_2 H 0.1882 0.8673 0.8599
C34_2 C 0.2253(8) 0.8000(5) 0.7960(8)
H20_2 H 0.1804 0.7738 0.8055
C35_2 C 0.3028(8) 0.9515(4) 0.8613(7)
C36_2 C 0.1826(8) 0.7049(5) 0.6734(8)
C37_2 C 0.1030(8) 0.7365(5) 0.6373(8)
H21_2 H 0.1078 0.7755 0.6271
C38_2 C 0.0145(9) 0.7099(5) 0.6159(8)
C39_2 C 0.0040(7) 0.6498(4) 0.6248(7)
C40_2 C 0.0889(9) 0.6213(5) 0.6634(8)
H23_2 H 0.0863 0.5819 0.6707
C41_2 C 0.1796(8) 0.6484(5) 0.6923(9)
H24_2 H 0.2350 0.6285 0.7230
N1_2 N 0.6481(8) 0.4426(5) 0.0349(7)
N2_2 N 0.2782(6) 0.7331(4) 0.6982(7)
O3_2 O 0.6042(5) 0.4855(3) 0.4226(5)
O4_2 O 0.7278(6) 0.5448(3) 0.4332(5)
O7_2 O 0.5521(5) 0.5926(3) 0.5161(5)
O8_2 O 0.6573(5) 0.6207(3) 0.6343(5)
O13_2 O 0.9148(8) 0.7361(6) 0.7743(9)
H27_2 H 0.5071 0.7217 0.9903
C48_2 C 0.4225(10) 0.6510(6) 0.9728(9)
H28_2 H 0.3784 0.6610 0.9186
C50_2 C 0.3447(8) 0.5426(5) 0.8742(7)
C51_2 C 0.4170(10) 0.5548(5) 0.8407(7)
H29_2 H 0.4700 0.5754 0.8744
C52_2 C 0.4132(9) 0.5364(5) 0.7535(7)
H30_2 H 0.4654 0.5431 0.7307
C53_2 C 0.3371(7) 0.5101(4) 0.7049(6)
C54_2 C 0.2643(9) 0.4989(5) 0.7388(7)
H31_2 H 0.2116 0.4779 0.7055
C55_2 C 0.2662(8) 0.5181(5) 0.8225(7)
H32_2 H 0.2118 0.5139 0.8430
C56_2 C 0.3352(7) 0.4918(4) 0.6103(7)
H36_2 H 0.3588 0.4474 0.9712
C64_2 C 0.6444(7) 0.2911(4) 0.3307(7)
C65_2 C 0.6653(8) 0.3146(5) 0.4179(8)
H37_2 H 0.7268 0.3119 0.4578
C66_2 C 0.5937(7) 0.3407(5) 0.4409(8)
H38_2 H 0.6063 0.3552 0.4987
C67_2 C 0.5035(7) 0.3472(4) 0.3848(6)
C68_2 C 0.4837(7) 0.3255(4) 0.2999(7)
H39_2 H 0.4218 0.3293 0.2610
C69_2 C 0.5536(7) 0.2983(4) 0.2715(7)
H40_2 H 0.5403 0.2847 0.2130
C70_2 C 0.4266(7) 0.3795(4) 0.4142(6)
C71_2 C 0.7098(8) 0.2143(4) 0.2544(8)
C72_2 C 0.6392(7) 0.1735(4) 0.2610(7)
H41_2 H 0.5949 0.1825 0.2925
C73_2 C 0.6361(7) 0.1222(4) 0.2220(6)
H42_2 H 0.5886 0.0965 0.2271
C74_2 C 0.6949(7) 0.1065(4) 0.1779(6)
C75_2 C 0.7674(8) 0.1447(5) 0.1696(8)
H43_2 H 0.8118 0.1327 0.1401
C76_2 C 0.7747(8) 0.2000(5) 0.2040(8)
H44_2 H 0.8196 0.2262 0.1945
C77_2 C 0.6972(8) 0.0485(4) 0.1387(7)
C78_2 C 0.8174(8) 0.2951(5) 0.3266(8)
C79_2 C 0.8970(8) 0.2635(5) 0.3627(8)
H45_2 H 0.8922 0.2245 0.3729
C80_2 C 0.9855(9) 0.2901(5) 0.3841(8)
C81_2 C 0.9960(7) 0.3502(4) 0.3752(7)
C82_2 C 0.9111(9) 0.3787(5) 0.3366(8)
H47_2 H 0.9137 0.4181 0.3293
C83_2 C 0.8204(8) 0.3516(5) 0.3077(9)
H48_2 H 0.7650 0.3715 0.2770
N3_2 N 0.3519(8) 0.5574(5) 0.9651(7)
N4_2 N 0.7218(6) 0.2669(4) 0.3018(7)
O16_2 O 0.3958(5) 0.5145(3) 0.5774(5)
O17_2 O 0.2722(6) 0.4552(3) 0.5668(5)
O20_2 O 0.4479(5) 0.4074(3) 0.4839(5)
O21_2 O 0.3427(5) 0.3793(3) 0.3657(5)
O26_2 O 0.0852(8) 0.2639(6) 0.2257(9)
O31 O 0.8179(7) 0.5847(5) 0.7579(7)
O33 O 0.7547(7) 0.6563(5) 0.8246(6)
O39 O 0.9078(5) 0.5696(3) 0.6000(6)
O41 O 0.8335(5) 0.6518(4) 0.5860(5)
C1_2 C 0.5821(8) 0.3997(5) 0.9846(7)
C2_2 C 0.5189(9) 0.4083(5) 0.9042(7)
H1_2 H 0.5249 0.4418 0.8739
C3_2 C 0.4470(8) 0.3719(5) 0.8638(7)
H2_2 H 0.4058 0.3813 0.8080
C4_2 C 0.4339(10) 0.3223(5) 0.9029(8)
C5_2 C 0.4990(11) 0.3126(6) 0.9814(10)
C7_2 C 0.3544(9) 0.2764(6) 0.8756(9)
C15_2 C 0.6860(10) 0.4838(5) 0.9832(8)
C16_2 C 0.7369(11) 0.4635(7) 0.9232(10)
H9_2 H 0.7522 0.4250 0.9204
C17_2 C 0.7642(10) 0.5066(6) 0.8657(9)
H10_2 H 0.7913 0.4947 0.8210
C18_2 C 0.7503(9) 0.5644(6) 0.8769(8)
C19_2 C 0.7046(10) 0.5771(6) 0.9365(9)
H11_2 H 0.6926 0.6157 0.9439
C20_2 C 0.6730(9) 0.5390(5) 0.9884(8)
C21_2 C 0.7819(10) 0.6022(7) 0.8200(10)
H22_2 H 0.9592 0.7321 0.5947
C42_2 C 0.9101(8) 0.6235(5) 0.6010(7)
C85 C 0.1672(5) 0.3109(4) 0.6876(4)
H49 H 0.1364 0.2741 0.6794
H50 H 0.1198 0.3400 0.6863
H51 H 0.2159 0.3119 0.7443
N5 N 0.2135(8) 0.3214(5) 0.6134(6)
H52 H 0.1900 0.3596 0.5994
H53 H 0.2705 0.3304 0.6565
C86 C 0.2310(8) 0.2783(5) 0.5453(6)
H54 H 0.2991 0.2711 0.5577
H55 H 0.2067 0.2937 0.4859
H56 H 0.1980 0.2432 0.5497
H55_2 H 0.7933 0.7937 0.0141
C85_2 C 0.8328(5) 0.8109(4) 0.8124(4)
H49_2 H 0.8636 0.7741 0.8206
H50_2 H 0.8802 0.8400 0.8137
H51_2 H 0.7841 0.8119 0.7557
N5_2 N 0.7865(8) 0.8214(5) 0.8866(6)
H52_2 H 0.8100 0.8596 0.9006
H53_2 H 0.7295 0.8304 0.8435
C86_2 C 0.7690(8) 0.7783(5) 0.9547(6)
H54_2 H 0.7009 0.7711 0.9423
H56_2 H 0.8020 0.7432 0.9503
C85_3 C 0.8328(5) 0.6891(4) 0.3124(4)
H49_3 H 0.8636 0.7259 0.3206
H50_3 H 0.8802 0.6600 0.3137
H51_3 H 0.7841 0.6881 0.2557
N5_3 N 0.7865(8) 0.6786(5) 0.3866(6)
H52_3 H 0.8100 0.6404 0.4006
H53_3 H 0.7295 0.6696 0.3435
C86_3 C 0.7690(8) 0.7217(5) 0.4547(6)
H54_3 H 0.7009 0.7289 0.4423
H55_3 H 0.7933 0.7063 0.5141
H56_3 H 0.8020 0.7568 0.4503
C85_4 C 0.1672(5) 0.1891(4) 0.1876(4)
H49_4 H 0.1364 0.2259 0.1794
H50_4 H 0.1198 0.1600 0.1863
H51_4 H 0.2159 0.1881 0.2443
N5_4 N 0.2135(8) 0.1786(5) 0.1134(6)
H52_4 H 0.1900 0.1404 0.0994
H53_4 H 0.2705 0.1696 0.1565
C86_4 C 0.2310(8) 0.2217(5) 0.0453(6)
H54_4 H 0.2991 0.2289 0.0577
H56_4 H 0.1980 0.2568 0.0497
H55_4 H 0.2067 0.2063 0.9859
loop_
_geom_bond_atom_site_label_1
_geom_bond_atom_site_label_2
_geom_bond_site_symmetry_1
_geom_bond_site_symmetry_2
O11 C42 1_555 1_555
O12 C42 1_555 1_555
Cd7 O11 1_555 1_555
Cu4 O12 1_555 1_555
O12 Cd7 1_555 1_555
H7 C12 1_555 1_555
C18 C17 1_555 1_555
C19 C18 1_555 1_555
H11 C19 1_555 1_555
H12 C20 1_555 1_555
C21 C18 1_555 1_555
O4 C14 1_555 1_555
O5 C21 1_555 1_555
O6 C21 1_555 1_555
Cd7 O5 1_555 1_555
Cu4 O5 1_555 1_555
O36 Cd1 1_555 1_555
C19 C20 1_555 1_555
O6 Cu4 1_555 1_555
Cu4 O8 1_555 1_555
C22 C23 1_555 1_555
C23 H13 1_555 1_555
C24 C23 1_555 1_555
H14 C24 1_555 1_555
C25 C24 1_555 1_555
C26 C25 1_555 1_555
H15 C26 1_555 1_555
C27 C22 1_555 1_555
H16 C27 1_555 1_555
C28 C25 1_555 1_555
C29 C30 1_555 1_555
C30 H17 1_555 1_555
C31 C30 1_555 1_555
H18 C31 1_555 1_555
C32 C31 1_555 1_555
C33 C32 1_555 1_555
H19 C33 1_555 1_555
C34 C29 1_555 1_555
H20 C34 1_555 1_555
C35 C32 1_555 1_555
C36 C37 1_555 1_555
C37 H21 1_555 1_555
C38 C37 1_555 1_555
C39 C38 1_555 1_555
C40 C39 1_555 1_555
H23 C40 1_555 1_555
C41 C36 1_555 1_555
H24 C41 1_555 1_555
N2 C22 1_555 1_555
O7 Cd1_2 1_555 1_555
O8 Cd7 1_555 1_555
O9 C35 1_555 1_555
O10 C35 1_555 1_555
O13 Cu4 1_555 1_555
C43 C44 1_555 1_555
C44 H25 1_555 1_555
C45 C44 1_555 1_555
H26 C45 1_555 1_555
C46 C45 1_555 1_555
C47 C46 1_555 1_555
H27 C47 1_555 1_555
C48 C43 1_555 1_555
H28 C48 1_555 1_555
C49 C46 1_555 1_555
C50 C51 1_555 1_555
C51 H29 1_555 1_555
C52 C51 1_555 1_555
H30 C52 1_555 1_555
C53 C52 1_555 1_555
C55 C50 1_555 1_555
H32 C55 1_555 1_555
C57 C58 1_555 1_555
C58 H33 1_555 1_555
N3 C43 1_555 1_555
O14 C49 1_555 1_555
O15 C49 1_555 1_555
O16 Cd1_2 1_555 1_555
Cd5 O9 1_555 1_555
Cd8 O9 1_555 1_555
Cu8 O14 1_555 1_555
O27 Cu4 1_555 1_555
O29 Cu4 1_555 1_555
Cd7 O7 1_555 1_555
C26 C27 1_555 1_555
C28 O7 1_555 1_555
C28 O8 1_555 1_555
C29 N2 1_555 1_555
C33 C34 1_555 1_555
C36 N2 1_555 1_555
C40 C41 1_555 1_555
O10 Cd8 1_555 1_555
C47 C48 1_555 1_555
C50 N3 1_555 1_555
C57 N3 1_555 1_555
O15 Cu8 1_555 1_555
Cd1_3 O3 1_555 1_555
C1 C2 1_555 1_555
C2 H1 1_555 1_555
C3 C2 1_555 1_555
H2 C3 1_555 1_555
C4 C3 1_555 1_555
C5 C4 1_555 1_555
H3 C5 1_555 1_555
C6 C1 1_555 1_555
H4 C6 1_555 1_555
C7 C4 1_555 1_555
C8 C9 1_555 1_555
C9 H5 1_555 1_555
C10 C9 1_555 1_555
H6 C10 1_555 1_555
C11 C10 1_555 1_555
C13 C8 1_555 1_555
H8 C13 1_555 1_555
C15 C16 1_555 1_555
C16 H9 1_555 1_555
N1 C1 1_555 1_555
O1 C7 1_555 1_555
O2 C7 1_555 1_555
Cu2 O21 1_555 1_555
C64 C65 1_555 1_555
C65 H37 1_555 1_555
C66 C65 1_555 1_555
H38 C66 1_555 1_555
C67 C66 1_555 1_555
C68 C67 1_555 1_555
H39 C68 1_555 1_555
C69 C64 1_555 1_555
H40 C69 1_555 1_555
C70 C67 1_555 1_555
C71 C72 1_555 1_555
C72 H41 1_555 1_555
C73 C72 1_555 1_555
H42 C73 1_555 1_555
C74 C73 1_555 1_555
C75 C74 1_555 1_555
H43 C75 1_555 1_555
C76 C71 1_555 1_555
H44 C76 1_555 1_555
C77 C74 1_555 1_555
C78 C79 1_555 1_555
C79 H45 1_555 1_555
C80 C79 1_555 1_555
C81 C80 1_555 1_555
C82 C81 1_555 1_555
H47 C82 1_555 1_555
C83 C78 1_555 1_555
H48 C83 1_555 1_555
N4 C64 1_555 1_555
O20 Cd1_3 1_555 1_555
O21 Cd3 1_555 1_555
O22 C77 1_555 1_555
O23 C77 1_555 1_555
O26 Cu2 1_555 1_555
Cd5 O22 1_555 1_555
Cd11 O22 1_555 1_555
Cu5 O1 1_555 1_555
O28 Cu2 1_555 1_555
O30 Cu2 1_555 1_555
O32 Cd3 1_555 1_555
O34 Cu2 1_555 1_555
O40 Cd3 1_555 1_555
O42 Cd3 1_555 1_555
C5 C6 1_555 1_555
C8 N1 1_555 1_555
C15 N1 1_555 1_555
O2 Cu5 1_555 1_555
Cd3 O20 1_555 1_555
Cu2 O32 1_555 1_555
Cu2 O42 1_555 1_555
C68 C69 1_555 1_555
C70 O20 1_555 1_555
C70 O21 1_555 1_555
C71 N4 1_555 1_555
C75 C76 1_555 1_555
C78 N4 1_555 1_555
C82 C83 1_555 1_555
O23 Cd11 1_555 1_555
H31 C54 1_555 1_555
C60 C59 1_555 1_555
C61 C60 1_555 1_555
H35 C61 1_555 1_555
H36 C62 1_555 1_555
C63 C60 1_555 1_555
O17 C56 1_555 1_555
O32 C63 1_555 1_555
O34 C63 1_555 1_555
O35 Cd1_4 1_555 1_555
C61 C62 1_555 1_555
O40 C84 1_555 1_555
O42 C84 1_555 1_555
O24 C84_2 1_555 1_555
O25 C84_2 1_555 1_555
Cd11 O24 1_555 1_555
Cu8 O25 1_555 1_555
O25 Cd11 1_555 1_555
C43_2 C44_2 1_555 1_555
C44_2 H25_2 1_555 1_555
C45_2 C44_2 1_555 1_555
H26_2 C45_2 1_555 1_555
C46_2 C45_2 1_555 1_555
C47_2 C46_2 1_555 1_555
C49_2 C46_2 1_555 1_555
C57_2 C58_2 1_555 1_555
C58_2 H33_2 1_555 1_555
C59_2 C58_2 1_555 1_555
H34_2 C59_2 1_555 1_555
C60_2 C59_2 1_555 1_555
C61_2 C60_2 1_555 1_555
H35_2 C61_2 1_555 1_555
C62_2 C57_2 1_555 1_555
C63_2 C60_2 1_555 1_555
O28 C49_2 1_555 1_555
O30 C49_2 1_555 1_555
O18 C63_2 1_555 1_555
O19 C63_2 1_555 1_555
Cd11 O18 1_555 1_555
Cu8 O18 1_555 1_555
C61_2 C62_2 1_555 1_555
O19 Cu8 1_555 1_555
Cd5 O3_2 1_555 1_555
Cd8 O4_2 1_555 1_555
Cu5 O8_2 1_555 1_555
H4_2 C6_2 1_555 1_555
C8_2 C9_2 1_555 1_555
C9_2 H5_2 1_555 1_555
C10_2 C9_2 1_555 1_555
H6_2 C10_2 1_555 1_555
C11_2 C10_2 1_555 1_555
C12_2 C11_2 1_555 1_555
H7_2 C12_2 1_555 1_555
C13_2 C8_2 1_555 1_555
H8_2 C13_2 1_555 1_555
C14_2 C11_2 1_555 1_555
C22_2 C23_2 1_555 1_555
C23_2 H13_2 1_555 1_555
C24_2 C23_2 1_555 1_555
H14_2 C24_2 1_555 1_555
C25_2 C24_2 1_555 1_555
C26_2 C25_2 1_555 1_555
H15_2 C26_2 1_555 1_555
C27_2 C22_2 1_555 1_555
H16_2 C27_2 1_555 1_555
C28_2 C25_2 1_555 1_555
C29_2 C30_2 1_555 1_555
C30_2 H17_2 1_555 1_555
C31_2 C30_2 1_555 1_555
H18_2 C31_2 1_555 1_555
C32_2 C31_2 1_555 1_555
C33_2 C32_2 1_555 1_555
H19_2 C33_2 1_555 1_555
C34_2 C29_2 1_555 1_555
H20_2 C34_2 1_555 1_555
C35_2 C32_2 1_555 1_555
C36_2 C37_2 1_555 1_555
C37_2 H21_2 1_555 1_555
C38_2 C37_2 1_555 1_555
C39_2 C38_2 1_555 1_555
C40_2 C39_2 1_555 1_555
H23_2 C40_2 1_555 1_555
C41_2 C36_2 1_555 1_555
H24_2 C41_2 1_555 1_555
N2_2 C22_2 1_555 1_555
O3_2 C14_2 1_555 1_555
O4_2 C14_2 1_555 1_555
O7_2 Cd5 1_555 1_555
O8_2 Cd8 1_555 1_555
O35 C35_2 1_555 1_555
O37 C35_2 1_555 1_555
O13_2 Cu5 1_555 1_555
Cd11 O17_2 1_555 1_555
Cu8 O21_2 1_555 1_555
H28_2 C48_2 1_555 1_555
C50_2 C51_2 1_555 1_555
C51_2 H29_2 1_555 1_555
C52_2 C51_2 1_555 1_555
H30_2 C52_2 1_555 1_555
C53_2 C52_2 1_555 1_555
C54_2 C53_2 1_555 1_555
H31_2 C54_2 1_555 1_555
C55_2 C50_2 1_555 1_555
H32_2 C55_2 1_555 1_555
C56_2 C53_2 1_555 1_555
C64_2 C65_2 1_555 1_555
C65_2 H37_2 1_555 1_555
C66_2 C65_2 1_555 1_555
H38_2 C66_2 1_555 1_555
C67_2 C66_2 1_555 1_555
C68_2 C67_2 1_555 1_555
H39_2 C68_2 1_555 1_555
C69_2 C64_2 1_555 1_555
H40_2 C69_2 1_555 1_555
C70_2 C67_2 1_555 1_555
C71_2 C72_2 1_555 1_555
C72_2 H41_2 1_555 1_555
C73_2 C72_2 1_555 1_555
H42_2 C73_2 1_555 1_555
C74_2 C73_2 1_555 1_555
C75_2 C74_2 1_555 1_555
H43_2 C75_2 1_555 1_555
C76_2 C71_2 1_555 1_555
H44_2 C76_2 1_555 1_555
C77_2 C74_2 1_555 1_555
C78_2 C79_2 1_555 1_555
C79_2 H45_2 1_555 1_555
C80_2 C79_2 1_555 1_555
C81_2 C80_2 1_555 1_555
C82_2 C81_2 1_555 1_555
H47_2 C82_2 1_555 1_555
C83_2 C78_2 1_555 1_555
H48_2 C83_2 1_555 1_555
N4_2 C64_2 1_555 1_555
O16_2 Cd5 1_555 1_555
O17_2 C56_2 1_555 1_555
O20_2 Cd5 1_555 1_555
O21_2 Cd11 1_555 1_555
O36 C77_2 1_555 1_555
O38 C77_2 1_555 1_555
O26_2 Cu8 1_555 1_555
O31 Cd8 1_555 1_555
O33 Cu5 1_555 1_555
O39 Cd8 1_555 1_555
O41 Cd8 1_555 1_555
Cd8 O7_2 1_555 1_555
Cu5 O31 1_555 1_555
Cu5 O41 1_555 1_555
C8_2 N1_2 1_555 1_555
C12_2 C13_2 1_555 1_555
C26_2 C27_2 1_555 1_555
C28_2 O7_2 1_555 1_555
C28_2 O8_2 1_555 1_555
C29_2 N2_2 1_555 1_555
C33_2 C34_2 1_555 1_555
C36_2 N2_2 1_555 1_555
C40_2 C41_2 1_555 1_555
Cd11 O20_2 1_555 1_555
C50_2 N3_2 1_555 1_555
C54_2 C55_2 1_555 1_555
C56_2 O16_2 1_555 1_555
C68_2 C69_2 1_555 1_555
C70_2 O20_2 1_555 1_555
C70_2 O21_2 1_555 1_555
C71_2 N4_2 1_555 1_555
C75_2 C76_2 1_555 1_555
C78_2 N4_2 1_555 1_555
C82_2 C83_2 1_555 1_555
C1_2 C2_2 1_555 1_555
C2_2 H1_2 1_555 1_555
C3_2 C2_2 1_555 1_555
H2_2 C3_2 1_555 1_555
C4_2 C3_2 1_555 1_555
C5_2 C4_2 1_555 1_555
C7_2 C4_2 1_555 1_555
C15_2 C16_2 1_555 1_555
C16_2 H9_2 1_555 1_555
C17_2 C16_2 1_555 1_555
H10_2 C17_2 1_555 1_555
C18_2 C17_2 1_555 1_555
C19_2 C18_2 1_555 1_555
H11_2 C19_2 1_555 1_555
C20_2 C15_2 1_555 1_555
C21_2 C18_2 1_555 1_555
O27 C7_2 1_555 1_555
O29 C7_2 1_555 1_555
O31 C21_2 1_555 1_555
O33 C21_2 1_555 1_555
C19_2 C20_2 1_555 1_555
O39 C42_2 1_555 1_555
O41 C42_2 1_555 1_555
C85 H49 1_555 1_555
H50 C85 1_555 1_555
H51 C85 1_555 1_555
N5 C85 1_555 1_555
H52 N5 1_555 1_555
H53 N5 1_555 1_555
C86 N5 1_555 1_555
H54 C86 1_555 1_555
H55 C86 1_555 1_555
H56 C86 1_555 1_555
C85_2 H49_2 1_555 1_555
H50_2 C85_2 1_555 1_555
H51_2 C85_2 1_555 1_555
N5_2 C85_2 1_555 1_555
H52_2 N5_2 1_555 1_555
H53_2 N5_2 1_555 1_555
C86_2 N5_2 1_555 1_555
H54_2 C86_2 1_555 1_555
H56_2 C86_2 1_555 1_555
C85_3 H49_3 1_555 1_555
H50_3 C85_3 1_555 1_555
H51_3 C85_3 1_555 1_555
N5_3 C85_3 1_555 1_555
H52_3 N5_3 1_555 1_555
H53_3 N5_3 1_555 1_555
C86_3 N5_3 1_555 1_555
H54_3 C86_3 1_555 1_555
H55_3 C86_3 1_555 1_555
H56_3 C86_3 1_555 1_555
C85_4 H49_4 1_555 1_555
H50_4 C85_4 1_555 1_555
H51_4 C85_4 1_555 1_555
N5_4 C85_4 1_555 1_555
H52_4 N5_4 1_555 1_555
H53_4 N5_4 1_555 1_555
C86_4 N5_4 1_555 1_555
H54_4 C86_4 1_555 1_555
H56_4 C86_4 1_555 1_555

#END
