
###############################################################################
#
# This file contains modified crystal structure data generated from the
# MOF subset of the Cambridge Structural Database (CSD) v543 
# hosted by the Cambridge Crystallographic Data Centre (CCDC).
#
# This work is licensed under the Creative Commons
# Attribution-NonCommercial-ShareAlike 4.0 International License.
# To view a copy of this license, visit
# http://creativecommons.org/licenses/by-nc-sa/4.0/
# or send a letter to
# Creative Commons, PO Box 1866, Mountain View, CA 94042, USA.
#
# CIF created using the CSD Python API on 29 September 2022
# The structure has been converted into the P1 space group
# The structure has a 3D framework
# The original CSD entry YUYLIP is in the monoclinic crystal system
# The framework has been calculated to contain at least 10.0% void space
# The void calculation uses a probe of radius 1.32A, grid spacing 0.4
# The framework is charged, counterions have been retained in the structure
# H atom positions have been added when not included in the experimental data
# Generated hydrogen atom positions removed from atoms on special positions
#
###############################################################################

data_YUYLIP
_chemical_formula_moiety         '(C176 H140 Cd11 N12 O52)n'
_symmetry_cell_setting           triclinic
_symmetry_space_group_name_H-M   'P 1'
_symmetry_Int_Tables_number      1
_space_group_name_Hall           'P 1'
loop_
_symmetry_equiv_pos_site_id
_symmetry_equiv_pos_as_xyz
1 x,y,z
_cell_length_a                   14.5196(9)
_cell_length_b                   23.3670(14)
_cell_length_c                   15.6042(9)
_cell_angle_alpha                90
_cell_angle_beta                 107.4750(10)
_cell_angle_gamma                90
_cell_volume                     5049.85
loop_
_atom_site_label
_atom_site_type_symbol
_atom_site_fract_x
_atom_site_fract_y
_atom_site_fract_z
O4 O 0.1669(3) 0.65293(19) 0.4058(3)
O5 O 0.0941(3) 0.56962(19) 0.3939(3)
H21 H 0.0457 0.7325 0.4047
C41 C 0.0907(4) 0.6221(3) 0.3917(4)
Cd8 Cd 0.25657(3) 0.558094(17) 0.41613(3)
Cd16 Cd 0.23350(3) 0.693777(18) 0.30511(3)
Cd1 Cd 0.74343(3) 0.058094(17) 0.08387(3)
Cd2 Cd 0.5000 -0.0000 0.0000
C45 C 0.3370(4) 0.0053(2) 0.1969(4)
O20 O 0.3891(3) 0.01472(18) 0.0693(3)
C48 C 0.4161(4) 0.0349(3) 0.2501(4)
C51 C 0.2666(5) 0.0097(3) 0.3169(4)
H26 H 0.4667 0.0442 0.2275
C52 C 0.4205(5) 0.0508(3) 0.3363(4)
C55 C 0.3465(5) 0.0386(3) 0.3712(4)
H29 H 0.2152 0.0015 0.3389
H30 H 0.4746 0.0702 0.3716
N3 N 0.3511(4) 0.0543(2) 0.4611(3)
C57 C 0.3165(5) 0.0143(3) 0.5135(4)
C58 C 0.4168(5) 0.0974(3) 0.5056(4)
C61 C 0.2722(5) 0.0346(3) 0.5751(4)
C63 C 0.4808(5) 0.0877(3) 0.5904(4)
C64 C 0.4212(6) 0.1491(3) 0.4653(5)
H33 H 0.2628 0.0737 0.5796
H35 H 0.4767 0.0540 0.6205
C71 C 0.5508(5) 0.1280(3) 0.6305(4)
C72 C 0.4904(6) 0.1887(3) 0.5044(5)
H36 H 0.3762 0.1574 0.4103
H41 H 0.2127 0.0106 0.6718
H43 H 0.5932 0.1210 0.6874
C78 C 0.5578(5) 0.1783(3) 0.5865(4)
H44 H 0.4921 0.2232 0.4752
C82 C 0.6368(5) 0.2203(3) 0.6271(5)
O24 O 0.6797(4) 0.2194(2) 0.7087(3)
O25 O 0.6598(4) 0.2556(2) 0.5768(3)
O27 O 0.8166(4) 0.0825(3) 0.2607(4)
O30 O 0.8331(3) 0.15293(19) 0.0942(3)
O33 O 0.9059(3) 0.06962(19) 0.1061(3)
O36 O 0.6524(3) 0.12135(17) 0.1300(3)
O39 O 0.5388(3) 0.09382(17) 0.0087(3)
Cd19 Cd 0.76650(3) 0.306223(18) 0.69489(3)
O1 O 0.7238(3) 0.05031(19) 0.9360(3)
C1 C 0.6654(4) 0.0116(2) 0.8969(4)
C5 C 0.7381(4) 0.0071(3) 0.7681(4)
Cd2_2 Cd 0.5000 -0.0000 1.0000
H1 H 0.7919 0.0270 0.8028
C20 C 0.6715(5) 0.0435(3) 0.4936(4)
C27 C 0.7584(6) 0.0033(4) 0.3697(5)
C28 C 0.7019(5) 0.0817(3) 0.4390(5)
H10 H 0.6429 0.0575 0.5353
C35 C 0.7455(5) 0.0617(3) 0.3770(5)
H18 H 0.6928 0.1208 0.4442
C39 C 0.7748(5) 0.1021(4) 0.3148(5)
O10 O 0.7524(4) 0.1537(3) 0.3196(3)
Cd3 Cd 0.76650(3) 0.193777(18) 0.19489(3)
O13 O 0.9042(4) 0.2405(3) 0.2679(5)
O15 O 0.2376(3) 0.03158(19) 0.8764(3)
O19 O 0.6524(3) 0.37865(17) 0.6300(3)
C44 C 0.3110(4) 0.0477(3) 0.8558(4)
C46 C 0.3064(4) 0.1060(2) 0.8174(4)
O21 O 0.3839(3) 0.01655(17) 0.8654(3)
C49 C 0.2399(5) 0.1455(3) 0.8293(4)
C50 C 0.3654(4) 0.1220(3) 0.7670(4)
O22 O 0.5388(3) 0.40618(17) 0.5087(3)
C53 C 0.2321(5) 0.1981(3) 0.7918(5)
H27 H 0.2000 0.1356 0.8636
H28 H 0.4122 0.0967 0.7604
C54 C 0.3565(4) 0.1749(3) 0.7260(4)
C56 C 0.2886(4) 0.2132(3) 0.7370(5)
H31 H 0.1889 0.2244 0.8027
H32 H 0.3961 0.1847 0.6912
N4 N 0.2749(4) 0.2669(2) 0.6921(4)
C59 C 0.1827(4) 0.2938(3) 0.6678(5)
C60 C 0.3498(4) 0.2921(3) 0.6655(4)
C65 C 0.0997(4) 0.2631(3) 0.6340(5)
C66 C 0.1782(4) 0.3534(3) 0.6785(5)
C67 C 0.4419(4) 0.2993(3) 0.7245(4)
C68 C 0.3321(4) 0.3124(3) 0.5778(5)
H37 H 0.1032 0.2241 0.6233
C73 C 0.0104(5) 0.2892(3) 0.6154(5)
C74 C 0.0902(4) 0.3793(3) 0.6575(5)
H38 H 0.2345 0.3748 0.6996
H39 H 0.4559 0.2855 0.7829
C75 C 0.5130(4) 0.3265(2) 0.6982(4)
C76 C 0.4022(5) 0.3394(3) 0.5510(4)
H40 H 0.2713 0.3074 0.5368
C79 C 0.0046(4) 0.3482(3) 0.6269(4)
H46 H 0.0871 0.4188 0.6637
H47 H 0.5741 0.3313 0.7389
C80 C 0.4933(4) 0.3471(2) 0.6101(4)
H48 H 0.3883 0.3526 0.4923
C84 C 0.5648(4) 0.3790(2) 0.5808(4)
Cd11 Cd 0.74343(3) 0.441906(17) 0.58387(3)
Cd13 Cd 0.5000 0.5000 0.5000
O41 O 0.6797(4) 0.2806(2) 0.2087(3)
O43 O 0.6598(4) 0.2444(2) 0.0768(3)
O2 O 0.7624(3) 0.96842(19) 0.1236(3)
O6 O 0.3476(3) 0.62135(17) 0.3700(3)
C2 C 0.6890(4) 0.9523(3) 0.1442(4)
C4 C 0.6936(4) 0.8940(2) 0.1826(4)
O8 O 0.6161(3) 0.98345(17) 0.1346(3)
Cd2_3 Cd 0.5000 1.0000 0.0000
C7 C 0.7601(5) 0.8545(3) 0.1707(4)
C8 C 0.6346(4) 0.8780(3) 0.2330(4)
O9 O 0.4612(3) 0.59382(17) 0.4913(3)
C11 C 0.7679(5) 0.8019(3) 0.2082(5)
H3 H 0.8000 0.8644 0.1364
H4 H 0.5878 0.9033 0.2396
C12 C 0.6435(4) 0.8251(3) 0.2740(4)
C14 C 0.7114(4) 0.7868(3) 0.2630(5)
H7 H 0.8111 0.7756 0.1973
H8 H 0.6039 0.8153 0.3088
N2 N 0.7251(4) 0.7331(2) 0.3079(4)
C17 C 0.8173(4) 0.7062(3) 0.3322(5)
C18 C 0.6502(4) 0.7079(3) 0.3345(4)
C23 C 0.9003(4) 0.7369(3) 0.3660(5)
C24 C 0.8218(4) 0.6466(3) 0.3215(5)
C25 C 0.5581(4) 0.7007(3) 0.2755(4)
C26 C 0.6679(4) 0.6876(3) 0.4222(5)
H13 H 0.8968 0.7759 0.3767
C31 C 0.9896(5) 0.7108(3) 0.3846(5)
C32 C 0.9098(4) 0.6207(3) 0.3425(5)
H14 H 0.7655 0.6252 0.3004
H15 H 0.5441 0.7145 0.2171
C33 C 0.4870(4) 0.6735(2) 0.3018(4)
C34 C 0.5978(5) 0.6606(3) 0.4490(4)
H16 H 0.7287 0.6926 0.4632
C37 C 0.9954(4) 0.6518(3) 0.3731(4)
H22 H 0.9129 0.5812 0.3363
H23 H 0.4259 0.6687 0.2611
C38 C 0.5067(4) 0.6529(2) 0.3899(4)
H24 H 0.6117 0.6474 0.5077
C42 C 0.4352(4) 0.6210(2) 0.4192(4)
O14 O 0.2762(3) 0.94969(19) 0.0640(3)
O16 O 0.1834(4) 0.9175(3) 0.7393(4)
C43 C 0.3346(4) 0.9884(2) 0.1031(4)
C47 C 0.2619(4) 0.9929(3) 0.2319(4)
H25 H 0.2081 0.9730 0.1972
C62 C 0.3285(5) 0.9565(3) 0.5064(4)
C69 C 0.2416(6) 0.9967(4) 0.6303(5)
C70 C 0.2981(5) 0.9183(3) 0.5610(5)
H34 H 0.3571 0.9425 0.4647
C77 C 0.2545(5) 0.9383(3) 0.6230(5)
H42 H 0.3072 0.8792 0.5558
C81 C 0.2252(5) 0.8979(4) 0.6852(5)
O23 O 0.2476(4) 0.8463(3) 0.6804(3)
Cd5 Cd 0.23350(3) 0.806223(18) 0.80511(3)
O26 O 0.0958(4) 0.7595(3) 0.7321(5)
Cd9 Cd 0.25657(3) 0.941906(17) 0.91613(3)
O32 O 0.1669(3) 0.84707(19) 0.9058(3)
O38 O 0.3476(3) 0.87865(17) 0.8700(3)
O42 O 0.3203(4) 0.7194(2) 0.7913(3)
O44 O 0.3402(4) 0.7556(2) 0.9232(3)
C3 C 0.6630(4) 0.9947(2) 0.8031(4)
O7 O 0.6109(3) 0.98528(18) 0.9307(3)
C6 C 0.5839(4) 0.9651(3) 0.7499(4)
Cd2_4 Cd 0.5000 1.0000 1.0000
C9 C 0.7334(5) 0.9903(3) 0.6831(4)
H2 H 0.5333 0.9558 0.7725
C10 C 0.5795(5) 0.9492(3) 0.6637(4)
C13 C 0.6535(5) 0.9614(3) 0.6288(4)
H5 H 0.7848 0.9985 0.6611
H6 H 0.5254 0.9298 0.6284
N1 N 0.6489(4) 0.9457(2) 0.5389(3)
C15 C 0.6835(5) 0.9857(3) 0.4865(4)
C16 C 0.5832(5) 0.9026(3) 0.4944(4)
C19 C 0.7278(5) 0.9654(3) 0.4249(4)
C21 C 0.5192(5) 0.9123(3) 0.4096(4)
C22 C 0.5788(6) 0.8509(3) 0.5347(5)
H9 H 0.7372 0.9263 0.4204
H11 H 0.5233 0.9460 0.3795
C29 C 0.4492(5) 0.8720(3) 0.3695(4)
C30 C 0.5096(6) 0.8113(3) 0.4956(5)
H12 H 0.6238 0.8426 0.5897
H17 H 0.7873 0.9894 0.3282
H19 H 0.4068 0.8790 0.3126
C36 C 0.4422(5) 0.8217(3) 0.4135(4)
H20 H 0.5079 0.7768 0.5248
C40 C 0.3632(5) 0.7797(3) 0.3729(5)
O11 O 0.3203(4) 0.7806(2) 0.2913(3)
O12 O 0.3402(4) 0.7444(2) 0.4232(3)
O34 O 0.0941(3) 0.93038(19) 0.8939(3)
O40 O 0.4612(3) 0.90618(17) 0.9913(3)
O17 O 0.8331(3) 0.34707(19) 0.5942(3)
O18 O 0.9059(3) 0.43038(19) 0.6061(3)
H45 H 0.9543 0.2675 0.5953
C83 C 0.9093(4) 0.3779(3) 0.6083(4)
H45_2 H 0.0457 0.7675 0.9047
C83_2 C 0.0907(4) 0.8779(3) 0.8917(4)
O3 O 0.1834(4) 0.5825(3) 0.2393(4)
C15_2 C 0.3165(5) 0.4857(3) 0.0135(4)
C16_2 C 0.4168(5) 0.4026(3) 0.0056(4)
C19_2 C 0.2722(5) 0.4654(3) 0.0751(4)
C20_2 C 0.3285(5) 0.5435(3) 0.0064(4)
C21_2 C 0.4808(5) 0.4123(3) 0.0904(4)
H9_2 H 0.2628 0.4263 0.0796
C27_2 C 0.2416(6) 0.5033(4) 0.1303(5)
C28_2 C 0.2981(5) 0.5817(3) 0.0610(5)
H11_2 H 0.4767 0.4460 0.1205
C29_2 C 0.5508(5) 0.3720(3) 0.1305(4)
C30_2 C 0.4904(6) 0.3113(3) 0.0044(5)
H17_2 H 0.2127 0.4894 0.1718
C35_2 C 0.2545(5) 0.5617(3) 0.1230(5)
H18_2 H 0.3072 0.6208 0.0558
H19_2 H 0.5932 0.3790 0.1874
C36_2 C 0.5578(5) 0.3217(3) 0.0865(4)
C39_2 C 0.2252(5) 0.6021(4) 0.1852(5)
C40_2 C 0.6368(5) 0.2797(3) 0.1271(5)
O10_2 O 0.2476(4) 0.6537(3) 0.1804(3)
O13_2 O 0.0958(4) 0.7405(3) 0.2321(5)
H48_2 H 0.6117 0.8526 0.0077
O1_2 O 0.2762(3) 0.55031(19) 0.5640(3)
O2_2 O 0.2376(3) 0.46842(19) 0.3764(3)
C1_2 C 0.3346(4) 0.5116(2) 0.6031(4)
C2_2 C 0.3110(4) 0.4523(3) 0.3558(4)
C3_2 C 0.3370(4) 0.4947(2) 0.6969(4)
O7_2 O 0.3891(3) 0.48528(18) 0.5693(3)
C4_2 C 0.3064(4) 0.3940(2) 0.3174(4)
O8_2 O 0.3839(3) 0.48345(17) 0.3654(3)
C5_2 C 0.2619(4) 0.5071(3) 0.7319(4)
C6_2 C 0.4161(4) 0.4651(3) 0.7501(4)
C7_2 C 0.2399(5) 0.3545(3) 0.3293(4)
C8_2 C 0.3654(4) 0.3780(3) 0.2670(4)
C9_2 C 0.2666(5) 0.4903(3) 0.8169(4)
H1_2 H 0.2081 0.5270 0.6972
H2_2 H 0.4667 0.4558 0.7275
C10_2 C 0.4205(5) 0.4492(3) 0.8363(4)
C11_2 C 0.2321(5) 0.3019(3) 0.2918(5)
H3_2 H 0.2000 0.3644 0.3636
H4_2 H 0.4122 0.4033 0.2604
C12_2 C 0.3565(4) 0.3251(3) 0.2260(4)
C13_2 C 0.3465(5) 0.4614(3) 0.8712(4)
H5_2 H 0.2152 0.4985 0.8389
H6_2 H 0.4746 0.4298 0.8716
C14_2 C 0.2886(4) 0.2868(3) 0.2370(5)
H7_2 H 0.1889 0.2756 0.3027
H8_2 H 0.3961 0.3153 0.1912
N1_2 N 0.3511(4) 0.4457(2) 0.9611(3)
N2_2 N 0.2749(4) 0.2331(2) 0.1921(4)
C17_2 C 0.1827(4) 0.2062(3) 0.1678(5)
C18_2 C 0.3498(4) 0.2079(3) 0.1655(4)
C22_2 C 0.4212(6) 0.3509(3) 0.9653(5)
C23_2 C 0.0997(4) 0.2369(3) 0.1340(5)
C24_2 C 0.1782(4) 0.1466(3) 0.1785(5)
C25_2 C 0.4419(4) 0.2007(3) 0.2245(4)
C26_2 C 0.3321(4) 0.1876(3) 0.0778(5)
H10_2 H 0.3571 0.5575 0.9647
H12_2 H 0.3762 0.3426 0.9103
H13_2 H 0.1032 0.2759 0.1233
C31_2 C 0.0104(5) 0.2108(3) 0.1154(5)
C32_2 C 0.0902(4) 0.1207(3) 0.1575(5)
H14_2 H 0.2345 0.1252 0.1996
H15_2 H 0.4559 0.2145 0.2829
C33_2 C 0.5130(4) 0.1735(2) 0.1982(4)
C34_2 C 0.4022(5) 0.1606(3) 0.0510(4)
H16_2 H 0.2713 0.1926 0.0368
H20_2 H 0.4921 0.2768 0.9752
C37_2 C 0.0046(4) 0.1518(3) 0.1269(4)
H22_2 H 0.0871 0.0812 0.1637
H23_2 H 0.5741 0.1687 0.2389
C38_2 C 0.4933(4) 0.1529(2) 0.1101(4)
C42_2 C 0.5648(4) 0.1210(2) 0.0808(4)
O14_2 O 0.7238(3) 0.44969(19) 0.4360(3)
O15_2 O 0.7624(3) 0.53158(19) 0.6236(3)
C43_2 C 0.6654(4) 0.4884(2) 0.3969(4)
C44_2 C 0.6890(4) 0.5477(3) 0.6442(4)
C45_2 C 0.6630(4) 0.5053(2) 0.3031(4)
O20_2 O 0.6109(3) 0.51472(18) 0.4307(3)
C46_2 C 0.6936(4) 0.6060(2) 0.6826(4)
O21_2 O 0.6161(3) 0.51655(17) 0.6346(3)
C47_2 C 0.7381(4) 0.4929(3) 0.2681(4)
C48_2 C 0.5839(4) 0.5349(3) 0.2499(4)
C49_2 C 0.7601(5) 0.6455(3) 0.6707(4)
C50_2 C 0.6346(4) 0.6220(3) 0.7330(4)
C51_2 C 0.7334(5) 0.5097(3) 0.1831(4)
H25_2 H 0.7919 0.4730 0.3028
H26_2 H 0.5333 0.5442 0.2725
C52_2 C 0.5795(5) 0.5508(3) 0.1637(4)
C53_2 C 0.7679(5) 0.6981(3) 0.7082(5)
H27_2 H 0.8000 0.6356 0.6364
H28_2 H 0.5878 0.5967 0.7396
C54_2 C 0.6435(4) 0.6749(3) 0.7740(4)
C55_2 C 0.6535(5) 0.5386(3) 0.1288(4)
H29_2 H 0.7848 0.5015 0.1611
H30_2 H 0.5254 0.5702 0.1284
C56_2 C 0.7114(4) 0.7132(3) 0.7630(5)
H31_2 H 0.8111 0.7244 0.6973
H32_2 H 0.6039 0.6847 0.8088
N3_2 N 0.6489(4) 0.5543(2) 0.0389(3)
N4_2 N 0.7251(4) 0.7669(2) 0.8079(4)
C59_2 C 0.8173(4) 0.7938(3) 0.8322(5)
C60_2 C 0.6502(4) 0.7921(3) 0.8345(4)
C64_2 C 0.5788(6) 0.6491(3) 0.0347(5)
C65_2 C 0.9003(4) 0.7631(3) 0.8660(5)
C66_2 C 0.8218(4) 0.8534(3) 0.8215(5)
C67_2 C 0.5581(4) 0.7993(3) 0.7755(4)
C68_2 C 0.6679(4) 0.8124(3) 0.9222(5)
H34_2 H 0.6429 0.4425 0.0353
H36_2 H 0.6238 0.6574 0.0897
H37_2 H 0.8968 0.7241 0.8767
C73_2 C 0.9896(5) 0.7892(3) 0.8846(5)
C74_2 C 0.9098(4) 0.8793(3) 0.8425(5)
H38_2 H 0.7655 0.8748 0.8004
H39_2 H 0.5441 0.7855 0.7171
C75_2 C 0.4870(4) 0.8265(2) 0.8018(4)
C76_2 C 0.5978(5) 0.8394(3) 0.9490(4)
H40_2 H 0.7287 0.8074 0.9632
H44_2 H 0.5079 0.7232 0.0248
C79_2 C 0.9954(4) 0.8482(3) 0.8731(4)
H46_2 H 0.9129 0.9188 0.8363
H47_2 H 0.4259 0.8313 0.7611
C80_2 C 0.5067(4) 0.8471(2) 0.8899(4)
C84_2 C 0.4352(4) 0.8790(2) 0.9192(4)
O28 O 0.8166(4) 0.4175(3) 0.7607(4)
H24_2 H 0.3883 0.1474 0.9923
C57_2 C 0.6835(5) 0.5143(3) 0.9865(4)
C58_2 C 0.5832(5) 0.5974(3) 0.9944(4)
C61_2 C 0.7278(5) 0.5346(3) 0.9249(4)
C62_2 C 0.6715(5) 0.4565(3) 0.9936(4)
C63_2 C 0.5192(5) 0.5877(3) 0.9096(4)
H33_2 H 0.7372 0.5737 0.9204
C69_2 C 0.7584(6) 0.4967(4) 0.8697(5)
C70_2 C 0.7019(5) 0.4183(3) 0.9390(5)
H35_2 H 0.5233 0.5540 0.8795
C71_2 C 0.4492(5) 0.6280(3) 0.8695(4)
C72_2 C 0.5096(6) 0.6887(3) 0.9956(5)
H41_2 H 0.7873 0.5106 0.8282
C77_2 C 0.7455(5) 0.4383(3) 0.8770(5)
H42_2 H 0.6928 0.3792 0.9442
H43_2 H 0.4068 0.6210 0.8126
C78_2 C 0.4422(5) 0.6783(3) 0.9135(4)
C81_2 C 0.7748(5) 0.3979(4) 0.8148(5)
C82_2 C 0.3632(5) 0.7203(3) 0.8729(5)
O23_2 O 0.7524(4) 0.3463(3) 0.8196(3)
O26_2 O 0.9042(4) 0.2595(3) 0.7679(5)
H21_2 H 0.9543 0.2325 0.0953
C41_2 C 0.9093(4) 0.1221(3) 0.1083(4)
C85 C 0.7652(10) 0.2318(9) 0.9237(8)
H49 H 0.7208 0.2615 0.8951
H50 H 0.8252 0.2372 0.9108
H51 H 0.7762 0.2334 0.9875
C86 C 0.6113(7) 0.1803(5) 0.8783(6)
H52 H 0.6032 0.1953 0.9329
H53 H 0.5814 0.1433 0.8662
H54 H 0.5817 0.2058 0.8295
N5 N 0.7236(9) 0.1747(5) 0.8888(7)
H55 H 0.7507 0.1467 0.9279
H56 H 0.7330 0.1670 0.8356
C85_2 C 0.2348(10) 0.7318(9) 0.5763(8)
H49_2 H 0.2792 0.7615 0.6049
H50_2 H 0.1748 0.7372 0.5892
H51_2 H 0.2238 0.7334 0.5125
C86_2 C 0.3887(7) 0.6803(5) 0.6217(6)
H52_2 H 0.3968 0.6953 0.5671
H53_2 H 0.4186 0.6433 0.6338
H54_2 H 0.4183 0.7058 0.6705
N5_2 N 0.2764(9) 0.6747(5) 0.6112(7)
H55_2 H 0.2493 0.6467 0.5721
H56_2 H 0.2670 0.6670 0.6644
C85_3 C 0.2348(10) 0.7682(9) 0.0763(8)
H49_3 H 0.2792 0.7385 0.1049
H50_3 H 0.1748 0.7628 0.0892
H51_3 H 0.2238 0.7666 0.0125
C86_3 C 0.3887(7) 0.8197(5) 0.1217(6)
H52_3 H 0.3968 0.8047 0.0671
H53_3 H 0.4186 0.8567 0.1338
H54_3 H 0.4183 0.7942 0.1705
N5_3 N 0.2764(9) 0.8253(5) 0.1112(7)
H55_3 H 0.2493 0.8533 0.0721
H56_3 H 0.2670 0.8330 0.1644
C85_4 C 0.7652(10) 0.2682(9) 0.4237(8)
H49_4 H 0.7208 0.2385 0.3951
H50_4 H 0.8252 0.2628 0.4108
H51_4 H 0.7762 0.2666 0.4875
C86_4 C 0.6113(7) 0.3197(5) 0.3783(6)
H52_4 H 0.6032 0.3047 0.4329
H53_4 H 0.5814 0.3567 0.3662
H54_4 H 0.5817 0.2942 0.3295
N5_4 N 0.7236(9) 0.3253(5) 0.3888(7)
H55_4 H 0.7507 0.3533 0.4279
H56_4 H 0.7330 0.3330 0.3356
loop_
_geom_bond_atom_site_label_1
_geom_bond_atom_site_label_2
_geom_bond_site_symmetry_1
_geom_bond_site_symmetry_2
O4 C41 1_555 1_555
O5 C41 1_555 1_555
Cd8 O4 1_555 1_555
Cd16 O4 1_555 1_555
O5 Cd8 1_555 1_555
O20 Cd2 1_555 1_555
C48 C45 1_555 1_555
C51 C55 1_555 1_555
H26 C48 1_555 1_555
C52 C48 1_555 1_555
C55 C52 1_555 1_555
H29 C51 1_555 1_555
H30 C52 1_555 1_555
N3 C55 1_555 1_555
C57 N3 1_555 1_555
C58 N3 1_555 1_555
C61 C57 1_555 1_555
C63 C58 1_555 1_555
C64 C58 1_555 1_555
H33 C61 1_555 1_555
H35 C63 1_555 1_555
C71 C63 1_555 1_555
C72 C64 1_555 1_555
H36 C64 1_555 1_555
H43 C71 1_555 1_555
C78 C71 1_555 1_555
H44 C72 1_555 1_555
C82 C78 1_555 1_555
O24 C82 1_555 1_555
O25 C82 1_555 1_555
O27 Cd1 1_555 1_555
O30 Cd1 1_555 1_555
O33 Cd1 1_555 1_555
O36 Cd1 1_555 1_555
O39 Cd2 1_555 1_555
Cd19 O24 1_555 1_555
C72 C78 1_555 1_555
O25 Cd19 1_555 1_555
O1 C1 1_555 1_555
O27 C39 1_555 1_555
H1 C5 1_555 1_555
C28 C20 1_555 1_555
H10 C20 1_555 1_555
C35 C27 1_555 1_555
H18 C28 1_555 1_555
C39 C35 1_555 1_555
O10 C39 1_555 1_555
Cd3 O27 1_555 1_555
O13 Cd3 1_555 1_555
O19 C84 1_555 1_555
C44 O15 1_555 1_555
C46 C44 1_555 1_555
O21 Cd2_2 1_555 1_555
C49 C46 1_555 1_555
C50 C46 1_555 1_555
O22 C84 1_555 1_555
C53 C49 1_555 1_555
H27 C49 1_555 1_555
H28 C50 1_555 1_555
C54 C50 1_555 1_555
C56 C53 1_555 1_555
H31 C53 1_555 1_555
H32 C54 1_555 1_555
N4 C56 1_555 1_555
C59 N4 1_555 1_555
C60 N4 1_555 1_555
C65 C59 1_555 1_555
C66 C59 1_555 1_555
C67 C60 1_555 1_555
C68 C60 1_555 1_555
H37 C65 1_555 1_555
C73 C65 1_555 1_555
C74 C66 1_555 1_555
H38 C66 1_555 1_555
H39 C67 1_555 1_555
C75 C67 1_555 1_555
C76 C68 1_555 1_555
H40 C68 1_555 1_555
C79 C73 1_555 1_555
H46 C74 1_555 1_555
H47 C75 1_555 1_555
C80 C75 1_555 1_555
H48 C76 1_555 1_555
C84 C80 1_555 1_555
Cd11 O19 1_555 1_555
O30 Cd3 1_555 1_555
O36 Cd3 1_555 1_555
Cd13 O22 1_555 1_555
O41 Cd3 1_555 1_555
O43 Cd3 1_555 1_555
Cd19 O19 1_555 1_555
C28 C35 1_555 1_555
O10 Cd3 1_555 1_555
C44 O21 1_555 1_555
C54 C56 1_555 1_555
C74 C79 1_555 1_555
C76 C80 1_555 1_555
O6 C42 1_555 1_555
C2 O2 1_555 1_555
C4 C2 1_555 1_555
O8 C2 1_555 1_555
C7 C4 1_555 1_555
C8 C4 1_555 1_555
O9 C42 1_555 1_555
C11 C7 1_555 1_555
H3 C7 1_555 1_555
H4 C8 1_555 1_555
C12 C8 1_555 1_555
C14 C11 1_555 1_555
H7 C11 1_555 1_555
H8 C12 1_555 1_555
N2 C14 1_555 1_555
C17 N2 1_555 1_555
C18 N2 1_555 1_555
C23 C17 1_555 1_555
C24 C17 1_555 1_555
C25 C18 1_555 1_555
C26 C18 1_555 1_555
H13 C23 1_555 1_555
C31 C23 1_555 1_555
C32 C24 1_555 1_555
H14 C24 1_555 1_555
H15 C25 1_555 1_555
C33 C25 1_555 1_555
C34 C26 1_555 1_555
H16 C26 1_555 1_555
C37 C31 1_555 1_555
H22 C32 1_555 1_555
H23 C33 1_555 1_555
C38 C33 1_555 1_555
H24 C34 1_555 1_555
C42 C38 1_555 1_555
O14 C43 1_555 1_555
O16 C81 1_555 1_555
H25 C47 1_555 1_555
C70 C62 1_555 1_555
H34 C62 1_555 1_555
C77 C69 1_555 1_555
H42 C70 1_555 1_555
C81 C77 1_555 1_555
O23 C81 1_555 1_555
Cd5 O16 1_555 1_555
O26 Cd5 1_555 1_555
Cd8 O6 1_555 1_555
Cd9 O16 1_555 1_555
O32 Cd5 1_555 1_555
O38 Cd5 1_555 1_555
Cd13 O9 1_555 1_555
O42 Cd5 1_555 1_555
O44 Cd5 1_555 1_555
Cd16 O6 1_555 1_555
O8 Cd2_3 1_555 1_555
C12 C14 1_555 1_555
C32 C37 1_555 1_555
C34 C38 1_555 1_555
C70 C77 1_555 1_555
O23 Cd5 1_555 1_555
Cd9 O32 1_555 1_555
Cd9 O38 1_555 1_555
C6 C3 1_555 1_555
Cd2_4 O7 1_555 1_555
C9 C13 1_555 1_555
H2 C6 1_555 1_555
C10 C6 1_555 1_555
C13 C10 1_555 1_555
H5 C9 1_555 1_555
H6 C10 1_555 1_555
N1 C13 1_555 1_555
C15 N1 1_555 1_555
C16 N1 1_555 1_555
C19 C15 1_555 1_555
C21 C16 1_555 1_555
C22 C16 1_555 1_555
H9 C19 1_555 1_555
H11 C21 1_555 1_555
C29 C21 1_555 1_555
C30 C22 1_555 1_555
H12 C22 1_555 1_555
H19 C29 1_555 1_555
C36 C29 1_555 1_555
H20 C30 1_555 1_555
C40 C36 1_555 1_555
O11 C40 1_555 1_555
O12 C40 1_555 1_555
O34 Cd9 1_555 1_555
O40 Cd2_4 1_555 1_555
Cd16 O11 1_555 1_555
C30 C36 1_555 1_555
O12 Cd16 1_555 1_555
O17 C83 1_555 1_555
O18 C83 1_555 1_555
Cd11 O17 1_555 1_555
Cd19 O17 1_555 1_555
O18 Cd11 1_555 1_555
O32 C83_2 1_555 1_555
O34 C83_2 1_555 1_555
O3 C39_2 1_555 1_555
C19_2 C15_2 1_555 1_555
C20_2 C15_2 1_555 1_555
C21_2 C16_2 1_555 1_555
H9_2 C19_2 1_555 1_555
C27_2 C19_2 1_555 1_555
C28_2 C20_2 1_555 1_555
H11_2 C21_2 1_555 1_555
C29_2 C21_2 1_555 1_555
H17_2 C27_2 1_555 1_555
C35_2 C27_2 1_555 1_555
H18_2 C28_2 1_555 1_555
H19_2 C29_2 1_555 1_555
C36_2 C29_2 1_555 1_555
C39_2 C35_2 1_555 1_555
C40_2 C36_2 1_555 1_555
O10_2 C39_2 1_555 1_555
O41 C40_2 1_555 1_555
O43 C40_2 1_555 1_555
Cd16 O3 1_555 1_555
O13_2 Cd16 1_555 1_555
Cd8 O3 1_555 1_555
C28_2 C35_2 1_555 1_555
C30_2 C36_2 1_555 1_555
O10_2 Cd16 1_555 1_555
Cd8 O1_2 1_555 1_555
O1_2 C1_2 1_555 1_555
O2_2 Cd8 1_555 1_555
O36 C42_2 1_555 1_555
C1_2 C3_2 1_555 1_555
C2_2 O2_2 1_555 1_555
C3_2 C5_2 1_555 1_555
O7_2 C1_2 1_555 1_555
C4_2 C2_2 1_555 1_555
O8_2 C2_2 1_555 1_555
C5_2 C9_2 1_555 1_555
C6_2 C3_2 1_555 1_555
Cd13 O7_2 1_555 1_555
C7_2 C4_2 1_555 1_555
C8_2 C4_2 1_555 1_555
C9_2 C13_2 1_555 1_555
H1_2 C5_2 1_555 1_555
H2_2 C6_2 1_555 1_555
C10_2 C6_2 1_555 1_555
O39 C42_2 1_555 1_555
C11_2 C7_2 1_555 1_555
H3_2 C7_2 1_555 1_555
H4_2 C8_2 1_555 1_555
C12_2 C8_2 1_555 1_555
C13_2 C10_2 1_555 1_555
H5_2 C9_2 1_555 1_555
H6_2 C10_2 1_555 1_555
C14_2 C11_2 1_555 1_555
H7_2 C11_2 1_555 1_555
H8_2 C12_2 1_555 1_555
N1_2 C13_2 1_555 1_555
N2_2 C14_2 1_555 1_555
C17_2 N2_2 1_555 1_555
C18_2 N2_2 1_555 1_555
C23_2 C17_2 1_555 1_555
C24_2 C17_2 1_555 1_555
C25_2 C18_2 1_555 1_555
C26_2 C18_2 1_555 1_555
H12_2 C22_2 1_555 1_555
H13_2 C23_2 1_555 1_555
C31_2 C23_2 1_555 1_555
C32_2 C24_2 1_555 1_555
H14_2 C24_2 1_555 1_555
H15_2 C25_2 1_555 1_555
C33_2 C25_2 1_555 1_555
C34_2 C26_2 1_555 1_555
H16_2 C26_2 1_555 1_555
C37_2 C31_2 1_555 1_555
H22_2 C32_2 1_555 1_555
H23_2 C33_2 1_555 1_555
C38_2 C33_2 1_555 1_555
C42_2 C38_2 1_555 1_555
Cd11 O14_2 1_555 1_555
O14_2 C43_2 1_555 1_555
O15_2 Cd11 1_555 1_555
O38 C84_2 1_555 1_555
C43_2 C45_2 1_555 1_555
C44_2 O15_2 1_555 1_555
C45_2 C47_2 1_555 1_555
O20_2 Cd13 1_555 1_555
C46_2 C44_2 1_555 1_555
O21_2 Cd13 1_555 1_555
C47_2 C51_2 1_555 1_555
C48_2 C45_2 1_555 1_555
C49_2 C46_2 1_555 1_555
C50_2 C46_2 1_555 1_555
C51_2 C55_2 1_555 1_555
H25_2 C47_2 1_555 1_555
H26_2 C48_2 1_555 1_555
C52_2 C48_2 1_555 1_555
O40 C84_2 1_555 1_555
C53_2 C49_2 1_555 1_555
H27_2 C49_2 1_555 1_555
H28_2 C50_2 1_555 1_555
C54_2 C50_2 1_555 1_555
C55_2 C52_2 1_555 1_555
H29_2 C51_2 1_555 1_555
H30_2 C52_2 1_555 1_555
C56_2 C53_2 1_555 1_555
H31_2 C53_2 1_555 1_555
H32_2 C54_2 1_555 1_555
N3_2 C55_2 1_555 1_555
N4_2 C56_2 1_555 1_555
C59_2 N4_2 1_555 1_555
C60_2 N4_2 1_555 1_555
C65_2 C59_2 1_555 1_555
C66_2 C59_2 1_555 1_555
C67_2 C60_2 1_555 1_555
C68_2 C60_2 1_555 1_555
H36_2 C64_2 1_555 1_555
H37_2 C65_2 1_555 1_555
C73_2 C65_2 1_555 1_555
C74_2 C66_2 1_555 1_555
H38_2 C66_2 1_555 1_555
H39_2 C67_2 1_555 1_555
C75_2 C67_2 1_555 1_555
C76_2 C68_2 1_555 1_555
H40_2 C68_2 1_555 1_555
C79_2 C73_2 1_555 1_555
H46_2 C74_2 1_555 1_555
H47_2 C75_2 1_555 1_555
C80_2 C75_2 1_555 1_555
C84_2 C80_2 1_555 1_555
O28 Cd11 1_555 1_555
O8_2 Cd13 1_555 1_555
C12_2 C14_2 1_555 1_555
C32_2 C37_2 1_555 1_555
C34_2 C38_2 1_555 1_555
C43_2 O20_2 1_555 1_555
C44_2 O21_2 1_555 1_555
C54_2 C56_2 1_555 1_555
C74_2 C79_2 1_555 1_555
C76_2 C80_2 1_555 1_555
O28 C81_2 1_555 1_555
C61_2 C57_2 1_555 1_555
C62_2 C57_2 1_555 1_555
C63_2 C58_2 1_555 1_555
H33_2 C61_2 1_555 1_555
C69_2 C61_2 1_555 1_555
C70_2 C62_2 1_555 1_555
H35_2 C63_2 1_555 1_555
C71_2 C63_2 1_555 1_555
H41_2 C69_2 1_555 1_555
C77_2 C69_2 1_555 1_555
H42_2 C70_2 1_555 1_555
H43_2 C71_2 1_555 1_555
C78_2 C71_2 1_555 1_555
C81_2 C77_2 1_555 1_555
C82_2 C78_2 1_555 1_555
O23_2 C81_2 1_555 1_555
O42 C82_2 1_555 1_555
O44 C82_2 1_555 1_555
Cd19 O28 1_555 1_555
O26_2 Cd19 1_555 1_555
C70_2 C77_2 1_555 1_555
C72_2 C78_2 1_555 1_555
O23_2 Cd19 1_555 1_555
O30 C41_2 1_555 1_555
O33 C41_2 1_555 1_555
C85 H49 1_555 1_555
H50 C85 1_555 1_555
H51 C85 1_555 1_555
C86 H52 1_555 1_555
H53 C86 1_555 1_555
H54 C86 1_555 1_555
N5 C85 1_555 1_555
H55 N5 1_555 1_555
H56 N5 1_555 1_555
C86 N5 1_555 1_555
C85_2 H49_2 1_555 1_555
H50_2 C85_2 1_555 1_555
H51_2 C85_2 1_555 1_555
C86_2 H52_2 1_555 1_555
H53_2 C86_2 1_555 1_555
H54_2 C86_2 1_555 1_555
N5_2 C85_2 1_555 1_555
H55_2 N5_2 1_555 1_555
H56_2 N5_2 1_555 1_555
C86_2 N5_2 1_555 1_555
C85_3 H49_3 1_555 1_555
H50_3 C85_3 1_555 1_555
H51_3 C85_3 1_555 1_555
C86_3 H52_3 1_555 1_555
H53_3 C86_3 1_555 1_555
H54_3 C86_3 1_555 1_555
N5_3 C85_3 1_555 1_555
H55_3 N5_3 1_555 1_555
H56_3 N5_3 1_555 1_555
C86_3 N5_3 1_555 1_555
C85_4 H49_4 1_555 1_555
H50_4 C85_4 1_555 1_555
H51_4 C85_4 1_555 1_555
C86_4 H52_4 1_555 1_555
H53_4 C86_4 1_555 1_555
H54_4 C86_4 1_555 1_555
N5_4 C85_4 1_555 1_555
H55_4 N5_4 1_555 1_555
H56_4 N5_4 1_555 1_555
C86_4 N5_4 1_555 1_555

#END
