
###############################################################################
#
# This file contains modified crystal structure data generated from the
# MOF subset of the Cambridge Structural Database (CSD) v543 
# hosted by the Cambridge Crystallographic Data Centre (CCDC).
#
# This work is licensed under the Creative Commons
# Attribution-NonCommercial-ShareAlike 4.0 International License.
# To view a copy of this license, visit
# http://creativecommons.org/licenses/by-nc-sa/4.0/
# or send a letter to
# Creative Commons, PO Box 1866, Mountain View, CA 94042, USA.
#
# CIF created using the CSD Python API on 29 September 2022
# The structure has been converted into the P1 space group
# The structure has a 3D framework
# The original CSD entry YUZBUS is in the trigonal crystal system
# The original CSD entry YUZBUS is in a Sohncke space group
# The framework has been calculated to contain at least 10.0% void space
# The void calculation uses a probe of radius 1.32A, grid spacing 0.4
#
###############################################################################

data_YUZBUS
_chemical_formula_moiety         '(C30 H36 N48 Zn2)n'
_symmetry_cell_setting           triclinic
_symmetry_space_group_name_H-M   'P 1'
_symmetry_Int_Tables_number      1
_space_group_name_Hall           'P 1'
loop_
_symmetry_equiv_pos_site_id
_symmetry_equiv_pos_as_xyz
1 x,y,z
_cell_length_a                   9.663(3)
_cell_length_b                   9.663(3)
_cell_length_c                   20.224(5)
_cell_angle_alpha                90
_cell_angle_beta                 90
_cell_angle_gamma                120
_cell_volume                     1635.39
loop_
_atom_site_label
_atom_site_type_symbol
_atom_site_fract_x
_atom_site_fract_y
_atom_site_fract_z
N1 N 0.3480(5) 0.8303(6) 0.51356(19)
N2 N 0.4084(5) 0.8123(6) 0.4532(2)
N3 N 0.1419(5) 0.6831(5) 0.4490(2)
N4 N 0.0867(5) 0.7459(5) 0.5567(2)
H2 H 0.1191 0.7890 0.5979
N5 N 0.2165(7) 0.4200(5) 0.2890(2)
N6 N 0.0301(8) 0.4263(6) 0.3505(2)
N8 N 0.0595(9) 0.1502(6) 0.2506(3)
H4 H 0.1167 0.1649 0.2126
C1 C 0.1900(6) 0.7516(6) 0.5090(2)
C2 C 0.2824(6) 0.7247(6) 0.4175(2)
C3 C 0.2933(7) 0.6793(7) 0.3468(2)
H5 H 0.2736 0.7484 0.3167
H6 H 0.4035 0.7012 0.3386
C4 C 0.1799(10) 0.5098(7) 0.3301(2)
C5 C 0.0767(10) 0.2790(7) 0.2864(3)
Zn2 Zn 0.50641(7) 0.93547(7) 0.58377(3)
Zn3 Zn 0.42906(10) 0.49359(7) 0.25044(3)
Zn1 Zn 0.93547(7) 0.50641(7) 0.41623(3)
H1 H 0.9877 0.6519 0.5624
N7 N 0.9606(8) 0.2742(6) 0.3225(2)
H3 H 0.9551 0.0766 0.2341
N9 N 0.8303(6) 0.3480(5) 0.48644(19)
N10 N 0.7965(9) 0.5800(5) 0.3777(2)
Zn1_2 Zn 0.49359(7) 0.42906(10) 0.74956(3)
N1_2 N 0.1697(6) 0.5177(8) 0.84689(19)
N2_2 N 0.1877(6) 0.5961(8) 0.7865(2)
N3_2 N 0.3169(5) 0.4588(7) 0.7823(2)
N4_2 N 0.2541(5) 0.3408(7) 0.8900(2)
H1_2 H 0.3481 0.3358 0.8957
H2_2 H 0.2110 0.3301 0.9312
N5_2 N 0.5800(5) 0.7965(9) 0.6223(2)
N6_2 N 0.5737(6) 0.6038(10) 0.6838(2)
N7_2 N 0.7258(6) 0.6864(10) 0.6558(2)
N8_2 N 0.8498(6) 0.9093(11) 0.5839(3)
H3_2 H 0.9234 0.8785 0.5674
H4_2 H 0.8351 0.9518 0.5459
C1_2 C 0.2484(6) 0.4384(8) 0.8423(2)
C2_2 C 0.2753(6) 0.5577(8) 0.7508(2)
C3_2 C 0.3207(7) 0.6140(10) 0.6801(2)
H5_2 H 0.2516 0.5252 0.6500
H6_2 H 0.2988 0.7023 0.6719
C4_2 C 0.4902(7) 0.6701(12) 0.6634(2)
C5_2 C 0.7210(7) 0.7977(12) 0.6197(3)
Zn2_2 Zn 0.06453(7) 0.57094(10) 0.91710(3)
N9_2 N 0.6520(5) 0.4823(8) 0.81977(19)
N10_2 N 0.4200(5) 0.2165(10) 0.7110(2)
Zn1_3 Zn 0.57094(10) 0.06453(7) 0.08290(3)
H1_3 H 0.6642 0.0123 0.2291
N9_3 N 0.5177(8) 0.1697(6) 0.15311(19)
N10_3 N 0.7835(10) 0.2035(9) 0.0443(2)
N1_3 N 0.4823(8) 0.6520(5) 0.18023(19)
N2_3 N 0.4039(8) 0.5916(5) 0.1199(2)
N3_3 N 0.5412(7) 0.8581(5) 0.1157(2)
N4_3 N 0.6592(7) 0.9133(5) 0.2234(2)
H2_3 H 0.6699 0.8809 0.2646
N6_3 N 0.3962(10) 0.9699(8) 0.0172(2)
C1_3 C 0.5616(8) 0.8100(6) 0.1757(2)
C2_3 C 0.4423(8) 0.7176(6) 0.0842(2)
C3_3 C 0.3860(10) 0.7067(7) 0.0135(2)
H6_3 H 0.2977 0.5965 0.0053
N5_3 N 0.2035(9) 0.7835(7) 0.9557(2)
N8_3 N 0.0907(11) 0.9405(9) 0.9173(3)
H4_3 H 0.0482 0.8833 0.8793
H5_3 H 0.4748 0.7264 0.9834
C4_3 C 0.3299(12) 0.8201(10) 0.9968(2)
C5_3 C 0.2023(12) 0.9233(10) 0.9531(3)
N2_4 N 0.8123(6) 0.4084(5) 0.5468(2)
N3_4 N 0.6831(5) 0.1419(5) 0.5510(2)
N4_4 N 0.7459(5) 0.0867(5) 0.4433(2)
H2_4 H 0.7890 0.1191 0.4021
N6_4 N 0.4263(6) 0.0301(8) 0.6495(2)
N8_4 N 0.1502(6) 0.0595(9) 0.7494(3)
H4_4 H 0.1649 0.1167 0.7874
C1_4 C 0.7516(6) 0.1900(6) 0.4910(2)
C2_4 C 0.7247(6) 0.2824(6) 0.5825(2)
C3_4 C 0.6793(7) 0.2933(7) 0.6532(2)
H5_4 H 0.7484 0.2736 0.6833
H6_4 H 0.7012 0.4035 0.6614
C4_4 C 0.5098(7) 0.1799(10) 0.6699(2)
C5_4 C 0.2790(7) 0.0767(10) 0.7136(3)
H1_4 H 0.6519 0.9877 0.4376
N7_3 N 0.2742(6) 0.9606(8) 0.6775(2)
H3_3 H 0.0766 0.9551 0.7659
N2_5 N 0.5961(8) 0.1877(6) 0.2135(2)
N3_5 N 0.4588(7) 0.3169(5) 0.2177(2)
N4_5 N 0.3408(7) 0.2541(5) 0.1100(2)
H1_5 H 0.3358 0.3481 0.1043
H2_5 H 0.3301 0.2110 0.0688
N6_5 N 0.6038(10) 0.5737(6) 0.3162(2)
N7_4 N 0.6864(10) 0.7258(6) 0.3442(2)
N8_5 N 0.9093(11) 0.8498(6) 0.4161(3)
H3_4 H 0.8785 0.9234 0.4326
H4_5 H 0.9518 0.8351 0.4541
C1_5 C 0.4384(8) 0.2484(6) 0.1577(2)
C2_5 C 0.5577(8) 0.2753(6) 0.2492(2)
C3_5 C 0.6140(10) 0.3207(7) 0.3199(2)
H5_5 H 0.5252 0.2516 0.3500
H6_5 H 0.7023 0.2988 0.3281
C4_5 C 0.6701(12) 0.4902(7) 0.3366(2)
C5_5 C 0.7977(12) 0.7210(7) 0.3803(3)
H1_6 H 0.0123 0.6642 0.7709
N8_6 N 0.9405(9) 0.0907(11) 0.0827(3)
H4_6 H 0.8833 0.0482 0.1207
H5_6 H 0.7264 0.4748 0.0166
C4_6 C 0.8201(10) 0.3299(12) 0.0032(2)
C5_6 C 0.9233(10) 0.2023(12) 0.0469(3)
N2_6 N 0.5916(5) 0.4039(8) 0.8801(2)
N3_6 N 0.8581(5) 0.5412(7) 0.8843(2)
N4_6 N 0.9133(5) 0.6592(7) 0.7766(2)
H2_6 H 0.8809 0.6699 0.7354
N6_6 N 0.9699(8) 0.3962(10) 0.9828(2)
C1_6 C 0.8100(6) 0.5616(8) 0.8243(2)
C2_6 C 0.7176(6) 0.4423(8) 0.9158(2)
C3_6 C 0.7067(7) 0.3860(10) 0.9865(2)
H6_6 H 0.5965 0.2977 0.9947
N7_5 N 0.3136(10) 0.0394(8) 0.9892(2)
H3_5 H 0.1215 0.0449 0.9008
N7_6 N 0.0394(8) 0.3136(10) 0.0108(2)
H3_6 H 0.0449 0.1215 0.0992
loop_
_geom_bond_atom_site_label_1
_geom_bond_atom_site_label_2
_geom_bond_site_symmetry_1
_geom_bond_site_symmetry_2
N1 N2 1_555 1_555
N2 C2 1_555 1_555
N3 C1 1_555 1_555
H2 N4 1_555 1_555
N5 C4 1_555 1_555
H4 N8 1_555 1_555
C1 N1 1_555 1_555
C2 N3 1_555 1_555
C3 C2 1_555 1_555
H5 C3 1_555 1_555
H6 C3 1_555 1_555
C4 N6 1_555 1_555
C5 N5 1_555 1_555
Zn2 N1 1_555 1_555
Zn3 N5 1_555 1_555
N4 C1 1_555 1_555
N8 C5 1_555 1_555
C3 C4 1_555 1_555
N9 Zn1 1_555 1_555
N10 Zn1 1_555 1_555
Zn1_2 N3_2 1_555 1_555
N1_2 N2_2 1_555 1_555
N2_2 C2_2 1_555 1_555
N3_2 C1_2 1_555 1_555
N4_2 H1_2 1_555 1_555
H2_2 N4_2 1_555 1_555
N5_2 C4_2 1_555 1_555
N6_2 Zn1_2 1_555 1_555
N7_2 N6_2 1_555 1_555
N8_2 H3_2 1_555 1_555
H4_2 N8_2 1_555 1_555
C1_2 N1_2 1_555 1_555
C2_2 N3_2 1_555 1_555
C3_2 C2_2 1_555 1_555
H5_2 C3_2 1_555 1_555
H6_2 C3_2 1_555 1_555
C4_2 N6_2 1_555 1_555
C5_2 N5_2 1_555 1_555
Zn2_2 N1_2 1_555 1_555
Zn2 N5_2 1_555 1_555
N9_2 Zn1_2 1_555 1_555
N10_2 Zn1_2 1_555 1_555
N4_2 C1_2 1_555 1_555
N7_2 C5_2 1_555 1_555
N8_2 C5_2 1_555 1_555
C3_2 C4_2 1_555 1_555
N9_3 Zn1_3 1_555 1_555
N10_3 Zn1_3 1_555 1_555
N1_3 N2_3 1_555 1_555
N2_3 C2_3 1_555 1_555
N3_3 C1_3 1_555 1_555
H2_3 N4_3 1_555 1_555
C1_3 N1_3 1_555 1_555
C2_3 N3_3 1_555 1_555
C3_3 C2_3 1_555 1_555
H6_3 C3_3 1_555 1_555
Zn3 N1_3 1_555 1_555
N4_3 C1_3 1_555 1_555
N5_3 C4_3 1_555 1_555
H4_3 N8_3 1_555 1_555
C5_3 N5_3 1_555 1_555
Zn2_2 N5_3 1_555 1_555
N8_3 C5_3 1_555 1_555
N9 N2_4 1_555 1_555
N2_4 C2_4 1_555 1_555
N3_4 C1_4 1_555 1_555
H2_4 N4_4 1_555 1_555
N10_2 C4_4 1_555 1_555
H4_4 N8_4 1_555 1_555
C1_4 N9 1_555 1_555
C2_4 N3_4 1_555 1_555
C3_4 C2_4 1_555 1_555
H5_4 C3_4 1_555 1_555
H6_4 C3_4 1_555 1_555
C4_4 N6_4 1_555 1_555
C5_4 N10_2 1_555 1_555
N4_4 C1_4 1_555 1_555
N8_4 C5_4 1_555 1_555
C3_4 C4_4 1_555 1_555
Zn3 N3_5 1_555 1_555
N9_3 N2_5 1_555 1_555
N2_5 C2_5 1_555 1_555
N3_5 C1_5 1_555 1_555
N4_5 H1_5 1_555 1_555
H2_5 N4_5 1_555 1_555
N10 C4_5 1_555 1_555
N6_5 Zn3 1_555 1_555
N7_4 N6_5 1_555 1_555
N8_5 H3_4 1_555 1_555
H4_5 N8_5 1_555 1_555
C1_5 N9_3 1_555 1_555
C2_5 N3_5 1_555 1_555
C3_5 C2_5 1_555 1_555
H5_5 C3_5 1_555 1_555
H6_5 C3_5 1_555 1_555
C4_5 N6_5 1_555 1_555
C5_5 N10 1_555 1_555
N4_5 C1_5 1_555 1_555
N7_4 C5_5 1_555 1_555
N8_5 C5_5 1_555 1_555
C3_5 C4_5 1_555 1_555
N10_3 C4_6 1_555 1_555
H4_6 N8_6 1_555 1_555
C5_6 N10_3 1_555 1_555
N8_6 C5_6 1_555 1_555
N9_2 N2_6 1_555 1_555
N2_6 C2_6 1_555 1_555
N3_6 C1_6 1_555 1_555
H2_6 N4_6 1_555 1_555
C1_6 N9_2 1_555 1_555
C2_6 N3_6 1_555 1_555
C3_6 C2_6 1_555 1_555
H6_6 C3_6 1_555 1_555
N4_6 C1_6 1_555 1_555

#END
