
###############################################################################
#
# This file contains modified crystal structure data generated from the
# MOF subset of the Cambridge Structural Database (CSD) v543 
# hosted by the Cambridge Crystallographic Data Centre (CCDC).
#
# This work is licensed under the Creative Commons
# Attribution-NonCommercial-ShareAlike 4.0 International License.
# To view a copy of this license, visit
# http://creativecommons.org/licenses/by-nc-sa/4.0/
# or send a letter to
# Creative Commons, PO Box 1866, Mountain View, CA 94042, USA.
#
# CIF created using the CSD Python API on 29 September 2022
# The structure has been converted into the P1 space group
# The structure has a 3D framework
# The original CSD entry YUZBIG is in the trigonal crystal system
# The original CSD entry YUZBIG is in a Sohncke space group
# The framework has been calculated to contain at least 10.0% void space
# The void calculation uses a probe of radius 1.32A, grid spacing 0.4
#
###############################################################################

data_YUZBIG
_chemical_formula_moiety         '(C30 H36 N48 Zn2)n'
_symmetry_cell_setting           triclinic
_symmetry_space_group_name_H-M   'P 1'
_symmetry_Int_Tables_number      1
_space_group_name_Hall           'P 1'
loop_
_symmetry_equiv_pos_site_id
_symmetry_equiv_pos_as_xyz
1 x,y,z
_cell_length_a                   9.6767(14)
_cell_length_b                   9.6767(14)
_cell_length_c                   20.172(3)
_cell_angle_alpha                90
_cell_angle_beta                 90
_cell_angle_gamma                120
_cell_volume                     1635.81
loop_
_atom_site_label
_atom_site_type_symbol
_atom_site_fract_x
_atom_site_fract_y
_atom_site_fract_z
N1 N 0.3477(4) 0.8311(4) 0.51312(16)
N2 N 0.4075(4) 0.8144(5) 0.45271(17)
N3 N 0.1413(4) 0.6825(4) 0.44879(17)
N4 N 0.0865(4) 0.7456(4) 0.55654(17)
H2 H 0.1196 0.7910 0.5971
N5 N 0.2161(6) 0.4211(4) 0.28851(17)
N6 N 0.0310(7) 0.4281(5) 0.34960(17)
N8 N 0.0610(8) 0.1515(6) 0.2492(2)
H4 H 0.0909 0.1637 0.2066
C1 C 0.1887(5) 0.7512(5) 0.50880(19)
C2 C 0.2812(5) 0.7254(5) 0.4172(2)
C3 C 0.2926(5) 0.6795(6) 0.3458(2)
H5 H 0.2728 0.7483 0.3156
H6 H 0.4028 0.7017 0.3377
C4 C 0.1793(8) 0.5092(6) 0.32891(19)
C5 C 0.0772(8) 0.2800(5) 0.2856(2)
Zn2 Zn 0.50554(6) 0.93515(6) 0.58374(2)
Zn3 Zn 0.42961(8) 0.49446(6) 0.25041(2)
Zn1 Zn 0.93515(6) 0.50554(6) 0.41626(2)
H1 H 0.9892 0.6508 0.5629
N7 N 0.9612(7) 0.2748(5) 0.32264(19)
H3 H 0.9562 0.0665 0.2464
N9 N 0.8311(4) 0.3477(4) 0.48688(16)
N10 N 0.7950(7) 0.5789(4) 0.37816(17)
Zn1_2 Zn 0.49446(6) 0.42961(8) 0.74959(2)
N1_2 N 0.1689(4) 0.5166(6) 0.84645(16)
N2_2 N 0.1856(5) 0.5931(6) 0.78604(17)
N3_2 N 0.3175(4) 0.4588(6) 0.78212(17)
N4_2 N 0.2544(4) 0.3409(6) 0.88987(17)
H1_2 H 0.3492 0.3384 0.8962
H2_2 H 0.2090 0.3286 0.9304
N5_2 N 0.5789(4) 0.7950(7) 0.62184(17)
N6_2 N 0.5719(5) 0.6029(9) 0.68293(17)
N7_2 N 0.7252(5) 0.6864(9) 0.65597(19)
N8_2 N 0.8485(6) 0.9095(10) 0.5825(2)
H3_2 H 0.9335 0.8897 0.5797
H4_2 H 0.8363 0.9272 0.5399
C1_2 C 0.2488(5) 0.4375(7) 0.84213(19)
C2_2 C 0.2746(5) 0.5558(7) 0.7505(2)
C3_2 C 0.3205(6) 0.6131(8) 0.6791(2)
H5_2 H 0.2517 0.5245 0.6489
H6_2 H 0.2983 0.7011 0.6710
C4_2 C 0.4908(6) 0.6701(10) 0.66224(19)
C5_2 C 0.7200(5) 0.7972(9) 0.6189(2)
Zn2_2 Zn 0.06485(6) 0.57039(8) 0.91707(2)
N9_2 N 0.6523(4) 0.4834(6) 0.82021(16)
N10_2 N 0.4211(4) 0.2161(8) 0.71149(17)
Zn1_3 Zn 0.57039(8) 0.06485(6) 0.08293(2)
H1_3 H 0.6616 0.0108 0.2296
N9_3 N 0.5166(6) 0.1689(4) 0.15355(16)
N10_3 N 0.7839(8) 0.2050(7) 0.04482(17)
N1_3 N 0.4834(6) 0.6523(4) 0.17979(16)
N2_3 N 0.4069(6) 0.5925(4) 0.11938(17)
N3_3 N 0.5412(6) 0.8587(4) 0.11546(17)
N4_3 N 0.6591(6) 0.9135(4) 0.22321(17)
H2_3 H 0.6714 0.8804 0.2638
N6_3 N 0.3971(9) 0.9690(7) 0.01627(17)
C1_3 C 0.5625(7) 0.8113(5) 0.17547(19)
C2_3 C 0.4442(7) 0.7188(5) 0.0839(2)
C3_3 C 0.3869(8) 0.7074(5) 0.0125(2)
H6_3 H 0.2989 0.5972 0.0044
N5_3 N 0.2050(7) 0.7839(6) 0.95518(17)
N8_3 N 0.0905(10) 0.9390(8) 0.9159(2)
H4_3 H 0.0728 0.9091 0.8733
H5_3 H 0.4755 0.7272 0.9823
C4_3 C 0.3299(10) 0.8207(8) 0.99558(19)
C5_3 C 0.2028(9) 0.9228(8) 0.9523(2)
N2_4 N 0.8144(5) 0.4075(4) 0.54729(17)
N3_4 N 0.6825(4) 0.1413(4) 0.55121(17)
N4_4 N 0.7456(4) 0.0865(4) 0.44346(17)
H2_4 H 0.7910 0.1196 0.4029
N6_4 N 0.4281(5) 0.0310(7) 0.65040(17)
N8_4 N 0.1515(6) 0.0610(8) 0.7508(2)
H4_4 H 0.1637 0.0909 0.7934
C1_4 C 0.7512(5) 0.1887(5) 0.49120(19)
C2_4 C 0.7254(5) 0.2812(5) 0.5828(2)
C3_4 C 0.6795(6) 0.2926(5) 0.6542(2)
H5_4 H 0.7483 0.2728 0.6844
H6_4 H 0.7017 0.4028 0.6623
C4_4 C 0.5092(6) 0.1793(8) 0.67109(19)
C5_4 C 0.2800(5) 0.0772(8) 0.7144(2)
H1_4 H 0.6508 0.9892 0.4371
N7_3 N 0.2748(5) 0.9612(7) 0.67736(19)
H3_3 H 0.0665 0.9562 0.7536
H1_5 H 0.0108 0.6616 0.7704
N8_5 N 0.9390(8) 0.0905(10) 0.0841(2)
H4_5 H 0.9091 0.0728 0.1267
H5_5 H 0.7272 0.4755 0.0177
C4_5 C 0.8207(8) 0.3299(10) 0.00442(19)
C5_5 C 0.9228(8) 0.2028(9) 0.0477(2)
N2_5 N 0.5925(4) 0.4069(6) 0.88062(17)
N3_5 N 0.8587(4) 0.5412(6) 0.88454(17)
N4_5 N 0.9135(4) 0.6591(6) 0.77679(17)
H2_5 H 0.8804 0.6714 0.7362
N6_5 N 0.9690(7) 0.3971(9) 0.98373(17)
C1_5 C 0.8113(5) 0.5625(7) 0.82453(19)
C2_5 C 0.7188(5) 0.4442(7) 0.9161(2)
C3_5 C 0.7074(5) 0.3869(8) 0.9875(2)
H6_5 H 0.5972 0.2989 0.9956
N2_6 N 0.5931(6) 0.1856(5) 0.21396(17)
N3_6 N 0.4588(6) 0.3175(4) 0.21788(17)
N4_6 N 0.3409(6) 0.2544(4) 0.11013(17)
H1_6 H 0.3384 0.3492 0.1038
H2_6 H 0.3286 0.2090 0.0696
N6_6 N 0.6029(9) 0.5719(5) 0.31707(17)
N7_4 N 0.6864(9) 0.7252(5) 0.34403(19)
N8_6 N 0.9095(10) 0.8485(6) 0.4175(2)
H3_4 H 0.8897 0.9335 0.4203
H4_6 H 0.9272 0.8363 0.4601
C1_6 C 0.4375(7) 0.2488(5) 0.15787(19)
C2_6 C 0.5558(7) 0.2746(5) 0.2495(2)
C3_6 C 0.6131(8) 0.3205(6) 0.3209(2)
H5_6 H 0.5245 0.2517 0.3511
H6_6 H 0.7011 0.2983 0.3290
C4_6 C 0.6701(10) 0.4908(6) 0.33776(19)
C5_6 C 0.7972(9) 0.7200(5) 0.3811(2)
N7_5 N 0.3136(9) 0.0388(7) 0.98931(19)
H3_5 H 0.1103 0.0438 0.9131
N7_6 N 0.0388(7) 0.3136(9) 0.01069(19)
H3_6 H 0.0438 0.1103 0.0869
loop_
_geom_bond_atom_site_label_1
_geom_bond_atom_site_label_2
_geom_bond_site_symmetry_1
_geom_bond_site_symmetry_2
N1 N2 1_555 1_555
N2 C2 1_555 1_555
N3 C1 1_555 1_555
H2 N4 1_555 1_555
N5 C4 1_555 1_555
H4 N8 1_555 1_555
C1 N1 1_555 1_555
C2 N3 1_555 1_555
C3 C2 1_555 1_555
H5 C3 1_555 1_555
H6 C3 1_555 1_555
C4 N6 1_555 1_555
C5 N5 1_555 1_555
Zn2 N1 1_555 1_555
Zn3 N5 1_555 1_555
N4 C1 1_555 1_555
N8 C5 1_555 1_555
C3 C4 1_555 1_555
N9 Zn1 1_555 1_555
N10 Zn1 1_555 1_555
Zn1_2 N3_2 1_555 1_555
N1_2 N2_2 1_555 1_555
N2_2 C2_2 1_555 1_555
N3_2 C1_2 1_555 1_555
N4_2 H1_2 1_555 1_555
H2_2 N4_2 1_555 1_555
N5_2 C4_2 1_555 1_555
N6_2 Zn1_2 1_555 1_555
N7_2 N6_2 1_555 1_555
N8_2 H3_2 1_555 1_555
H4_2 N8_2 1_555 1_555
C1_2 N1_2 1_555 1_555
C2_2 N3_2 1_555 1_555
C3_2 C2_2 1_555 1_555
H5_2 C3_2 1_555 1_555
H6_2 C3_2 1_555 1_555
C4_2 N6_2 1_555 1_555
C5_2 N5_2 1_555 1_555
Zn2_2 N1_2 1_555 1_555
Zn2 N5_2 1_555 1_555
N9_2 Zn1_2 1_555 1_555
N10_2 Zn1_2 1_555 1_555
N4_2 C1_2 1_555 1_555
N7_2 C5_2 1_555 1_555
N8_2 C5_2 1_555 1_555
C3_2 C4_2 1_555 1_555
N9_3 Zn1_3 1_555 1_555
N10_3 Zn1_3 1_555 1_555
N1_3 N2_3 1_555 1_555
N2_3 C2_3 1_555 1_555
N3_3 C1_3 1_555 1_555
H2_3 N4_3 1_555 1_555
C1_3 N1_3 1_555 1_555
C2_3 N3_3 1_555 1_555
C3_3 C2_3 1_555 1_555
H6_3 C3_3 1_555 1_555
Zn3 N1_3 1_555 1_555
N4_3 C1_3 1_555 1_555
N5_3 C4_3 1_555 1_555
H4_3 N8_3 1_555 1_555
C5_3 N5_3 1_555 1_555
Zn2_2 N5_3 1_555 1_555
N8_3 C5_3 1_555 1_555
N9 N2_4 1_555 1_555
N2_4 C2_4 1_555 1_555
N3_4 C1_4 1_555 1_555
H2_4 N4_4 1_555 1_555
N10_2 C4_4 1_555 1_555
H4_4 N8_4 1_555 1_555
C1_4 N9 1_555 1_555
C2_4 N3_4 1_555 1_555
C3_4 C2_4 1_555 1_555
H5_4 C3_4 1_555 1_555
H6_4 C3_4 1_555 1_555
C4_4 N6_4 1_555 1_555
C5_4 N10_2 1_555 1_555
N4_4 C1_4 1_555 1_555
N8_4 C5_4 1_555 1_555
C3_4 C4_4 1_555 1_555
N10_3 C4_5 1_555 1_555
H4_5 N8_5 1_555 1_555
C5_5 N10_3 1_555 1_555
N8_5 C5_5 1_555 1_555
N9_2 N2_5 1_555 1_555
N2_5 C2_5 1_555 1_555
N3_5 C1_5 1_555 1_555
H2_5 N4_5 1_555 1_555
C1_5 N9_2 1_555 1_555
C2_5 N3_5 1_555 1_555
C3_5 C2_5 1_555 1_555
H6_5 C3_5 1_555 1_555
N4_5 C1_5 1_555 1_555
Zn3 N3_6 1_555 1_555
N9_3 N2_6 1_555 1_555
N2_6 C2_6 1_555 1_555
N3_6 C1_6 1_555 1_555
N4_6 H1_6 1_555 1_555
H2_6 N4_6 1_555 1_555
N10 C4_6 1_555 1_555
N6_6 Zn3 1_555 1_555
N7_4 N6_6 1_555 1_555
N8_6 H3_4 1_555 1_555
H4_6 N8_6 1_555 1_555
C1_6 N9_3 1_555 1_555
C2_6 N3_6 1_555 1_555
C3_6 C2_6 1_555 1_555
H5_6 C3_6 1_555 1_555
H6_6 C3_6 1_555 1_555
C4_6 N6_6 1_555 1_555
C5_6 N10 1_555 1_555
N4_6 C1_6 1_555 1_555
N7_4 C5_6 1_555 1_555
N8_6 C5_6 1_555 1_555
C3_6 C4_6 1_555 1_555

#END
