
###############################################################################
#
# This file contains modified crystal structure data generated from the
# MOF subset of the Cambridge Structural Database (CSD) v543 
# hosted by the Cambridge Crystallographic Data Centre (CCDC).
#
# This work is licensed under the Creative Commons
# Attribution-NonCommercial-ShareAlike 4.0 International License.
# To view a copy of this license, visit
# http://creativecommons.org/licenses/by-nc-sa/4.0/
# or send a letter to
# Creative Commons, PO Box 1866, Mountain View, CA 94042, USA.
#
# CIF created using the CSD Python API on 29 September 2022
# The structure has been converted into the P1 space group
# The structure has a 3D framework
# The original CSD entry YUZBOM is in the trigonal crystal system
# The original CSD entry YUZBOM is in a Sohncke space group
# The framework has been calculated to contain at least 10.0% void space
# The void calculation uses a probe of radius 1.32A, grid spacing 0.4
#
###############################################################################

data_YUZBOM
_chemical_formula_moiety         '(C30 H36 N48 Zn2)n'
_symmetry_cell_setting           triclinic
_symmetry_space_group_name_H-M   'P 1'
_symmetry_Int_Tables_number      1
_space_group_name_Hall           'P 1'
loop_
_symmetry_equiv_pos_site_id
_symmetry_equiv_pos_as_xyz
1 x,y,z
_cell_length_a                   9.6963(15)
_cell_length_b                   9.6963(15)
_cell_length_c                   20.126(3)
_cell_angle_alpha                90
_cell_angle_beta                 90
_cell_angle_gamma                120
_cell_volume                     1638.7
loop_
_atom_site_label
_atom_site_type_symbol
_atom_site_fract_x
_atom_site_fract_y
_atom_site_fract_z
N1 N 0.3541(2) 0.8398(2) 0.51145(8)
N2 N 0.4138(2) 0.8209(2) 0.45087(8)
N3 N 0.1481(2) 0.6894(2) 0.44728(8)
N4 N 0.0934(2) 0.7556(2) 0.55494(9)
H1 H 0.010(3) 0.670(3) 0.5560(11)
H2 H 0.140(3) 0.801(3) 0.5935(13)
N5 N 0.2201(3) 0.4209(2) 0.28944(8)
N6 N 0.0372(3) 0.4303(2) 0.35081(8)
N8 N 0.0654(4) 0.1498(3) 0.25352(13)
H3 H 0.0980 0.1627 0.2112
C1 C 0.1969(3) 0.7603(3) 0.50748(9)
C2 C 0.2881(3) 0.7313(3) 0.41569(10)
C3 C 0.2988(3) 0.6828(3) 0.34543(9)
H5 H 0.2793 0.7504 0.3144
H6 H 0.4085 0.7041 0.3375
C4 C 0.1846(4) 0.5117(3) 0.32962(9)
C5 C 0.0814(4) 0.2792(3) 0.28802(11)
Zn2 Zn 0.50966(3) 0.94187(3) 0.583241(10)
Zn3 Zn 0.43221(4) 0.49034(3) 0.249908(10)
Zn1 Zn 0.94187(3) 0.50966(3) 0.416759(10)
N7 N 0.9677(4) 0.2772(2) 0.32455(9)
H4 H 0.988(7) 0.073(5) 0.2558(15)
N9 N 0.8398(2) 0.3541(2) 0.48855(8)
N10 N 0.7992(4) 0.5791(2) 0.37723(8)
Zn1_2 Zn 0.49034(3) 0.43221(4) 0.750092(10)
N1_2 N 0.1602(2) 0.5143(3) 0.84478(8)
N2_2 N 0.1791(2) 0.5929(3) 0.78420(8)
N3_2 N 0.3106(2) 0.4587(3) 0.78061(8)
N4_2 N 0.2444(2) 0.3378(3) 0.88827(9)
H1_2 H 0.330(3) 0.340(4) 0.8893(11)
H2_2 H 0.199(3) 0.339(4) 0.9268(13)
N5_2 N 0.5791(2) 0.7992(4) 0.62277(8)
N6_2 N 0.5697(2) 0.6069(4) 0.68414(8)
N7_2 N 0.7228(2) 0.6905(4) 0.65788(9)
N8_2 N 0.8502(3) 0.9156(5) 0.58685(13)
H3_2 H 0.8373 0.9353 0.5445
H4_2 H 0.927(5) 0.915(9) 0.5891(15)
C1_2 C 0.2397(3) 0.4366(4) 0.84081(9)
C2_2 C 0.2687(3) 0.5568(4) 0.74902(10)
C3_2 C 0.3172(3) 0.6160(4) 0.67876(9)
H5_2 H 0.2496 0.5289 0.6477
H6_2 H 0.2959 0.7044 0.6708
C4_2 C 0.4883(3) 0.6729(5) 0.66295(9)
C5_2 C 0.7208(3) 0.8022(5) 0.62135(11)
Zn2_2 Zn 0.05813(3) 0.56779(4) 0.916574(10)
N9_2 N 0.6459(2) 0.4857(3) 0.82188(8)
N10_2 N 0.4209(2) 0.2201(4) 0.71056(8)
Zn1_3 Zn 0.56779(4) 0.05813(3) 0.083426(10)
N9_3 N 0.5143(3) 0.1602(2) 0.15522(8)
N10_3 N 0.7799(4) 0.2008(4) 0.04389(8)
N1_3 N 0.4857(3) 0.6459(2) 0.17812(8)
N2_3 N 0.4071(3) 0.5862(2) 0.11754(8)
N3_3 N 0.5413(3) 0.8519(2) 0.11395(8)
N4_3 N 0.6622(3) 0.9066(2) 0.22161(9)
H1_3 H 0.660(4) 0.990(3) 0.2227(11)
H2_3 H 0.661(4) 0.860(3) 0.2602(13)
N6_3 N 0.3931(4) 0.9628(3) 0.01748(8)
C1_3 C 0.5634(4) 0.8031(3) 0.17415(9)
C2_3 C 0.4432(4) 0.7119(3) 0.08236(10)
C3_3 C 0.3840(4) 0.7012(3) 0.01210(9)
H6_3 H 0.2956 0.5915 0.0042
N5_3 N 0.2008(4) 0.7799(3) 0.95611(8)
N8_3 N 0.0844(5) 0.9346(4) 0.92019(13)
H3_3 H 0.0647 0.9020 0.8779
H5_3 H 0.4711 0.7207 0.9811
C4_3 C 0.3271(5) 0.8154(4) 0.99629(9)
C5_3 C 0.1978(5) 0.9186(4) 0.95469(11)
N2_4 N 0.8209(2) 0.4138(2) 0.54913(8)
N3_4 N 0.6894(2) 0.1481(2) 0.55272(8)
N4_4 N 0.7556(2) 0.0934(2) 0.44506(9)
H1_4 H 0.670(3) 0.010(3) 0.4440(11)
H2_4 H 0.801(3) 0.140(3) 0.4065(13)
N6_4 N 0.4303(2) 0.0372(3) 0.64919(8)
N8_4 N 0.1498(3) 0.0654(4) 0.74648(13)
H3_4 H 0.1627 0.0980 0.7888
C1_4 C 0.7603(3) 0.1969(3) 0.49252(9)
C2_4 C 0.7313(3) 0.2881(3) 0.58431(10)
C3_4 C 0.6828(3) 0.2988(3) 0.65457(9)
H5_4 H 0.7504 0.2793 0.6856
H6_4 H 0.7041 0.4085 0.6625
C4_4 C 0.5117(3) 0.1846(4) 0.67038(9)
C5_4 C 0.2792(3) 0.0814(4) 0.71198(11)
N7_3 N 0.2772(2) 0.9677(4) 0.67545(9)
H4_3 H 0.073(5) 0.988(7) 0.7442(15)
N2_5 N 0.5929(3) 0.1791(2) 0.21580(8)
N3_5 N 0.4587(3) 0.3106(2) 0.21939(8)
N4_5 N 0.3378(3) 0.2444(2) 0.11173(9)
H1_5 H 0.340(4) 0.330(3) 0.1107(11)
H2_5 H 0.339(4) 0.199(3) 0.0732(13)
N6_5 N 0.6069(4) 0.5697(2) 0.31586(8)
N7_4 N 0.6905(4) 0.7228(2) 0.34212(9)
N8_5 N 0.9156(5) 0.8502(3) 0.41315(13)
H3_5 H 0.9353 0.8373 0.4555
H4_4 H 0.915(9) 0.927(5) 0.4109(15)
C1_5 C 0.4366(4) 0.2397(3) 0.15919(9)
C2_5 C 0.5568(4) 0.2687(3) 0.25098(10)
C3_5 C 0.6160(4) 0.3172(3) 0.32124(9)
H5_5 H 0.5289 0.2496 0.3523
H6_5 H 0.7044 0.2959 0.3292
C4_5 C 0.6729(5) 0.4883(3) 0.33705(9)
C5_5 C 0.8022(5) 0.7208(3) 0.37865(11)
N8_6 N 0.9346(4) 0.0844(5) 0.07981(13)
H3_6 H 0.9020 0.0647 0.1221
H5_6 H 0.7207 0.4711 0.0189
C4_6 C 0.8154(4) 0.3271(5) 0.00371(9)
C5_6 C 0.9186(4) 0.1978(5) 0.04531(11)
N2_6 N 0.5862(2) 0.4071(3) 0.88246(8)
N3_6 N 0.8519(2) 0.5413(3) 0.88605(8)
N4_6 N 0.9066(2) 0.6622(3) 0.77839(9)
H1_6 H 0.990(3) 0.660(4) 0.7773(11)
H2_6 H 0.860(3) 0.661(4) 0.7398(13)
N6_6 N 0.9628(3) 0.3931(4) 0.98252(8)
C1_6 C 0.8031(3) 0.5634(4) 0.82585(9)
C2_6 C 0.7119(3) 0.4432(4) 0.91764(10)
C3_6 C 0.7012(3) 0.3840(4) 0.98790(9)
H6_6 H 0.5915 0.2956 0.9958
N7_5 N 0.3095(4) 0.0323(4) 0.99122(9)
H4_5 H 0.085(9) 0.012(7) 0.9225(15)
N7_6 N 0.0323(4) 0.3095(4) 0.00878(9)
H4_6 H 0.012(7) 0.085(9) 0.0775(15)
loop_
_geom_bond_atom_site_label_1
_geom_bond_atom_site_label_2
_geom_bond_site_symmetry_1
_geom_bond_site_symmetry_2
N1 N2 1_555 1_555
N2 C2 1_555 1_555
N3 C1 1_555 1_555
N4 H1 1_555 1_555
H2 N4 1_555 1_555
N5 C4 1_555 1_555
N8 H3 1_555 1_555
C1 N1 1_555 1_555
C2 N3 1_555 1_555
C3 C2 1_555 1_555
H5 C3 1_555 1_555
H6 C3 1_555 1_555
C4 N6 1_555 1_555
C5 N5 1_555 1_555
Zn2 N1 1_555 1_555
Zn3 N5 1_555 1_555
N4 C1 1_555 1_555
N8 C5 1_555 1_555
C3 C4 1_555 1_555
N9 Zn1 1_555 1_555
N10 Zn1 1_555 1_555
Zn1_2 N3_2 1_555 1_555
N1_2 N2_2 1_555 1_555
N2_2 C2_2 1_555 1_555
N3_2 C1_2 1_555 1_555
N4_2 H1_2 1_555 1_555
H2_2 N4_2 1_555 1_555
N5_2 C4_2 1_555 1_555
N6_2 Zn1_2 1_555 1_555
N7_2 N6_2 1_555 1_555
N8_2 H3_2 1_555 1_555
H4_2 N8_2 1_555 1_555
C1_2 N1_2 1_555 1_555
C2_2 N3_2 1_555 1_555
C3_2 C2_2 1_555 1_555
H5_2 C3_2 1_555 1_555
H6_2 C3_2 1_555 1_555
C4_2 N6_2 1_555 1_555
C5_2 N5_2 1_555 1_555
Zn2_2 N1_2 1_555 1_555
Zn2 N5_2 1_555 1_555
N9_2 Zn1_2 1_555 1_555
N10_2 Zn1_2 1_555 1_555
N4_2 C1_2 1_555 1_555
N7_2 C5_2 1_555 1_555
N8_2 C5_2 1_555 1_555
C3_2 C4_2 1_555 1_555
N9_3 Zn1_3 1_555 1_555
N10_3 Zn1_3 1_555 1_555
N1_3 N2_3 1_555 1_555
N2_3 C2_3 1_555 1_555
N3_3 C1_3 1_555 1_555
N4_3 H1_3 1_555 1_555
H2_3 N4_3 1_555 1_555
C1_3 N1_3 1_555 1_555
C2_3 N3_3 1_555 1_555
C3_3 C2_3 1_555 1_555
H6_3 C3_3 1_555 1_555
Zn3 N1_3 1_555 1_555
N4_3 C1_3 1_555 1_555
N5_3 C4_3 1_555 1_555
N8_3 H3_3 1_555 1_555
C5_3 N5_3 1_555 1_555
Zn2_2 N5_3 1_555 1_555
N8_3 C5_3 1_555 1_555
N9 N2_4 1_555 1_555
N2_4 C2_4 1_555 1_555
N3_4 C1_4 1_555 1_555
N4_4 H1_4 1_555 1_555
H2_4 N4_4 1_555 1_555
N10_2 C4_4 1_555 1_555
N8_4 H3_4 1_555 1_555
C1_4 N9 1_555 1_555
C2_4 N3_4 1_555 1_555
C3_4 C2_4 1_555 1_555
H5_4 C3_4 1_555 1_555
H6_4 C3_4 1_555 1_555
C4_4 N6_4 1_555 1_555
C5_4 N10_2 1_555 1_555
N4_4 C1_4 1_555 1_555
N8_4 C5_4 1_555 1_555
C3_4 C4_4 1_555 1_555
Zn3 N3_5 1_555 1_555
N9_3 N2_5 1_555 1_555
N2_5 C2_5 1_555 1_555
N3_5 C1_5 1_555 1_555
N4_5 H1_5 1_555 1_555
H2_5 N4_5 1_555 1_555
N10 C4_5 1_555 1_555
N6_5 Zn3 1_555 1_555
N7_4 N6_5 1_555 1_555
N8_5 H3_5 1_555 1_555
H4_4 N8_5 1_555 1_555
C1_5 N9_3 1_555 1_555
C2_5 N3_5 1_555 1_555
C3_5 C2_5 1_555 1_555
H5_5 C3_5 1_555 1_555
H6_5 C3_5 1_555 1_555
C4_5 N6_5 1_555 1_555
C5_5 N10 1_555 1_555
N4_5 C1_5 1_555 1_555
N7_4 C5_5 1_555 1_555
N8_5 C5_5 1_555 1_555
C3_5 C4_5 1_555 1_555
N10_3 C4_6 1_555 1_555
N8_6 H3_6 1_555 1_555
C5_6 N10_3 1_555 1_555
N8_6 C5_6 1_555 1_555
N9_2 N2_6 1_555 1_555
N2_6 C2_6 1_555 1_555
N3_6 C1_6 1_555 1_555
N4_6 H1_6 1_555 1_555
H2_6 N4_6 1_555 1_555
C1_6 N9_2 1_555 1_555
C2_6 N3_6 1_555 1_555
C3_6 C2_6 1_555 1_555
H6_6 C3_6 1_555 1_555
N4_6 C1_6 1_555 1_555

#END
