
###############################################################################
#
# This file contains modified crystal structure data generated from the
# MOF subset of the Cambridge Structural Database (CSD) v543 
# hosted by the Cambridge Crystallographic Data Centre (CCDC).
#
# This work is licensed under the Creative Commons
# Attribution-NonCommercial-ShareAlike 4.0 International License.
# To view a copy of this license, visit
# http://creativecommons.org/licenses/by-nc-sa/4.0/
# or send a letter to
# Creative Commons, PO Box 1866, Mountain View, CA 94042, USA.
#
# CIF created using the CSD Python API on 29 September 2022
# The structure has been converted into the P1 space group
# The structure has a 3D framework
# The original CSD entry YUZCED is in the trigonal crystal system
# The original CSD entry YUZCED is in a Sohncke space group
# The framework has been calculated to contain at least 10.0% void space
# The void calculation uses a probe of radius 1.32A, grid spacing 0.4
#
###############################################################################

data_YUZCED
_chemical_formula_moiety         '(C30 H36 N48 Zn2)n'
_symmetry_cell_setting           triclinic
_symmetry_space_group_name_H-M   'P 1'
_symmetry_Int_Tables_number      1
_space_group_name_Hall           'P 1'
loop_
_symmetry_equiv_pos_site_id
_symmetry_equiv_pos_as_xyz
1 x,y,z
_cell_length_a                   9.7682(15)
_cell_length_b                   9.7682(15)
_cell_length_c                   20.100(4)
_cell_angle_alpha                90
_cell_angle_beta                 90
_cell_angle_gamma                120
_cell_volume                     1660.95
loop_
_atom_site_label
_atom_site_type_symbol
_atom_site_fract_x
_atom_site_fract_y
_atom_site_fract_z
N1 N 0.3613(6) 0.8492(6) 0.5117(2)
N2 N 0.4264(6) 0.8258(6) 0.4537(2)
N3 N 0.1615(5) 0.6893(5) 0.4476(2)
N4 N 0.0989(6) 0.7617(6) 0.5512(2)
H1 H 0.0009 0.6672 0.5574
H2 H 0.1314 0.8062 0.5921
N5 N 0.2402(8) 0.4177(5) 0.2929(2)
N6 N 0.0579(8) 0.4273(6) 0.3548(2)
N8 N 0.0824(11) 0.1511(7) 0.2534(3)
H4 H 0.1654 0.1645 0.2284
C1 C 0.2044(6) 0.7657(7) 0.5060(3)
C2 C 0.3035(6) 0.7296(7) 0.4178(3)
C3 C 0.3203(7) 0.6751(7) 0.3501(3)
H5 H 0.3092 0.7429 0.3165
H6 H 0.4286 0.6918 0.3460
C4 C 0.2058(11) 0.5068(8) 0.3338(3)
C5 C 0.0999(11) 0.2788(7) 0.2900(3)
Zn2 Zn 0.51032(8) 0.95877(7) 0.58435(3)
Zn3 Zn 0.44845(11) 0.48968(8) 0.25102(3)
Zn1 Zn 0.95877(7) 0.51032(8) 0.41565(3)
N7 N 0.9860(9) 0.2757(6) 0.3269(3)
H3 H 0.9955 0.1045 0.2236
N9 N 0.8492(6) 0.3613(6) 0.4883(2)
N10 N 0.8225(9) 0.5823(5) 0.3738(2)
Zn1_2 Zn 0.48968(8) 0.44845(11) 0.74898(3)
N1_2 N 0.1508(6) 0.5121(8) 0.8450(2)
N2_2 N 0.1742(6) 0.6006(8) 0.7870(2)
N3_2 N 0.3107(5) 0.4722(7) 0.7809(2)
N4_2 N 0.2383(6) 0.3372(8) 0.8845(2)
H1_2 H 0.3328 0.3337 0.8907
H2_2 H 0.1938 0.3252 0.9254
N5_2 N 0.5823(5) 0.8225(9) 0.6262(2)
N6_2 N 0.5727(6) 0.6306(10) 0.6881(2)
N7_2 N 0.7243(6) 0.7103(11) 0.6602(3)
N8_2 N 0.8489(7) 0.9313(13) 0.5867(3)
H3_2 H 0.8955 0.8910 0.5569
C1_2 C 0.2343(7) 0.4387(9) 0.8393(3)
C2_2 C 0.2704(7) 0.5739(9) 0.7511(3)
C3_2 C 0.3249(7) 0.6452(10) 0.6834(3)
H5_2 H 0.2571 0.5663 0.6498
H6_2 H 0.3082 0.7368 0.6793
C4_2 C 0.4932(8) 0.6990(14) 0.6671(3)
C5_2 C 0.7212(7) 0.8211(13) 0.6233(3)
Zn2_2 Zn 0.04123(7) 0.55155(11) 0.91768(3)
N9_2 N 0.6387(6) 0.4879(8) 0.8216(2)
N10_2 N 0.4177(5) 0.2402(10) 0.7071(2)
Zn1_3 Zn 0.55155(11) 0.04123(7) 0.08232(3)
N9_3 N 0.5121(8) 0.1508(6) 0.1550(2)
N10_3 N 0.7598(10) 0.1775(9) 0.0404(2)
N1_3 N 0.4879(8) 0.6387(6) 0.1784(2)
N2_3 N 0.3994(8) 0.5736(6) 0.1204(2)
N3_3 N 0.5278(7) 0.8385(5) 0.1143(2)
N4_3 N 0.6628(8) 0.9011(6) 0.2179(2)
H1_3 H 0.6663 0.9991 0.2241
H2_3 H 0.6748 0.8686 0.2588
N6_3 N 0.3694(10) 0.9421(8) 0.0215(2)
C1_3 C 0.5613(9) 0.7956(6) 0.1727(3)
C2_3 C 0.4261(9) 0.6965(6) 0.0845(3)
C3_3 C 0.3548(10) 0.6797(7) 0.0168(3)
H6_3 H 0.2632 0.5714 0.0127
C4_3 C 0.3010(14) 0.7942(11) 0.0005(3)
N5_3 N 0.1775(9) 0.7598(8) 0.9596(2)
N8_3 N 0.0687(13) 0.9176(11) 0.9201(3)
H5_3 H 0.4337 0.6908 0.9832
C5_3 C 0.1789(13) 0.9001(11) 0.9567(3)
N2_4 N 0.8258(6) 0.4264(6) 0.5463(2)
N3_4 N 0.6893(5) 0.1615(5) 0.5524(2)
N4_4 N 0.7617(6) 0.0989(6) 0.4488(2)
H1_4 H 0.6672 0.0009 0.4426
H2_4 H 0.8062 0.1314 0.4079
N6_4 N 0.4273(6) 0.0579(8) 0.6452(2)
N8_4 N 0.1511(7) 0.0824(11) 0.7466(3)
H4_2 H 0.1645 0.1654 0.7716
C1_4 C 0.7657(7) 0.2044(6) 0.4940(3)
C2_4 C 0.7296(7) 0.3035(6) 0.5822(3)
C3_4 C 0.6751(7) 0.3203(7) 0.6499(3)
H5_4 H 0.7429 0.3092 0.6835
H6_4 H 0.6918 0.4286 0.6540
C4_4 C 0.5068(8) 0.2058(11) 0.6662(3)
C5_4 C 0.2788(7) 0.0999(11) 0.7100(3)
N7_3 N 0.2757(6) 0.9860(9) 0.6731(3)
H3_3 H 0.1045 0.9955 0.7764
N2_5 N 0.6006(8) 0.1742(6) 0.2130(2)
N3_5 N 0.4722(7) 0.3107(5) 0.2191(2)
N4_5 N 0.3372(8) 0.2383(6) 0.1155(2)
H1_5 H 0.3337 0.3328 0.1093
H2_5 H 0.3252 0.1938 0.0746
N6_5 N 0.6306(10) 0.5727(6) 0.3119(2)
N7_4 N 0.7103(11) 0.7243(6) 0.3398(3)
N8_5 N 0.9313(13) 0.8489(7) 0.4133(3)
H3_4 H 0.8910 0.8955 0.4431
C1_5 C 0.4387(9) 0.2343(7) 0.1607(3)
C2_5 C 0.5739(9) 0.2704(7) 0.2489(3)
C3_5 C 0.6452(10) 0.3249(7) 0.3166(3)
H5_5 H 0.5663 0.2571 0.3502
H6_5 H 0.7368 0.3082 0.3207
C4_5 C 0.6990(14) 0.4932(8) 0.3329(3)
C5_5 C 0.8211(13) 0.7212(7) 0.3767(3)
N8_6 N 0.9176(11) 0.0687(13) 0.0799(3)
H5_6 H 0.6908 0.4337 0.0168
C5_6 C 0.9001(11) 0.1789(13) 0.0433(3)
N2_6 N 0.5736(6) 0.3994(8) 0.8796(2)
N3_6 N 0.8385(5) 0.5278(7) 0.8857(2)
N4_6 N 0.9011(6) 0.6628(8) 0.7821(2)
H1_6 H 0.9991 0.6663 0.7759
H2_6 H 0.8686 0.6748 0.7412
N6_6 N 0.9421(8) 0.3694(10) 0.9785(2)
C1_6 C 0.7956(6) 0.5613(9) 0.8273(3)
C2_6 C 0.6965(6) 0.4261(9) 0.9155(3)
C3_6 C 0.6797(7) 0.3548(10) 0.9832(3)
H6_6 H 0.5714 0.2632 0.9873
C4_6 C 0.7942(11) 0.3010(14) 0.9995(3)
H4_3 H 0.8355 0.0009 0.5617
N7_5 N 0.2897(11) 0.0140(9) 0.9936(3)
H3_5 H 0.1090 0.0045 0.8903
H4_4 H 0.9991 0.8346 0.8951
H4_5 H 0.0009 0.8355 0.4383
N7_6 N 0.0140(9) 0.2897(11) 0.0064(3)
H3_6 H 0.0045 0.1090 0.1097
H4_6 H 0.8346 0.9991 0.1049
loop_
_geom_bond_atom_site_label_1
_geom_bond_atom_site_label_2
_geom_bond_site_symmetry_1
_geom_bond_site_symmetry_2
N1 N2 1_555 1_555
N2 C2 1_555 1_555
N3 C1 1_555 1_555
N4 H1 1_555 1_555
H2 N4 1_555 1_555
N5 C4 1_555 1_555
H4 N8 1_555 1_555
C1 N1 1_555 1_555
C2 N3 1_555 1_555
C3 C2 1_555 1_555
H5 C3 1_555 1_555
H6 C3 1_555 1_555
C4 N6 1_555 1_555
C5 N5 1_555 1_555
Zn2 N1 1_555 1_555
Zn3 N5 1_555 1_555
N4 C1 1_555 1_555
N8 C5 1_555 1_555
C3 C4 1_555 1_555
N9 Zn1 1_555 1_555
N10 Zn1 1_555 1_555
Zn1_2 N3_2 1_555 1_555
N1_2 N2_2 1_555 1_555
N2_2 C2_2 1_555 1_555
N3_2 C1_2 1_555 1_555
N4_2 H1_2 1_555 1_555
H2_2 N4_2 1_555 1_555
N5_2 C4_2 1_555 1_555
N6_2 Zn1_2 1_555 1_555
N7_2 N6_2 1_555 1_555
N8_2 H3_2 1_555 1_555
C1_2 N1_2 1_555 1_555
C2_2 N3_2 1_555 1_555
C3_2 C2_2 1_555 1_555
H5_2 C3_2 1_555 1_555
H6_2 C3_2 1_555 1_555
C4_2 N6_2 1_555 1_555
C5_2 N5_2 1_555 1_555
Zn2_2 N1_2 1_555 1_555
Zn2 N5_2 1_555 1_555
N9_2 Zn1_2 1_555 1_555
N10_2 Zn1_2 1_555 1_555
N4_2 C1_2 1_555 1_555
N7_2 C5_2 1_555 1_555
N8_2 C5_2 1_555 1_555
C3_2 C4_2 1_555 1_555
N9_3 Zn1_3 1_555 1_555
N10_3 Zn1_3 1_555 1_555
N1_3 N2_3 1_555 1_555
N2_3 C2_3 1_555 1_555
N3_3 C1_3 1_555 1_555
N4_3 H1_3 1_555 1_555
H2_3 N4_3 1_555 1_555
C1_3 N1_3 1_555 1_555
C2_3 N3_3 1_555 1_555
C3_3 C2_3 1_555 1_555
H6_3 C3_3 1_555 1_555
C4_3 N6_3 1_555 1_555
Zn3 N1_3 1_555 1_555
N4_3 C1_3 1_555 1_555
C3_3 C4_3 1_555 1_555
C5_3 N5_3 1_555 1_555
Zn2_2 N5_3 1_555 1_555
N8_3 C5_3 1_555 1_555
N9 N2_4 1_555 1_555
N2_4 C2_4 1_555 1_555
N3_4 C1_4 1_555 1_555
N4_4 H1_4 1_555 1_555
H2_4 N4_4 1_555 1_555
N10_2 C4_4 1_555 1_555
H4_2 N8_4 1_555 1_555
C1_4 N9 1_555 1_555
C2_4 N3_4 1_555 1_555
C3_4 C2_4 1_555 1_555
H5_4 C3_4 1_555 1_555
H6_4 C3_4 1_555 1_555
C4_4 N6_4 1_555 1_555
C5_4 N10_2 1_555 1_555
N4_4 C1_4 1_555 1_555
N8_4 C5_4 1_555 1_555
C3_4 C4_4 1_555 1_555
Zn3 N3_5 1_555 1_555
N9_3 N2_5 1_555 1_555
N2_5 C2_5 1_555 1_555
N3_5 C1_5 1_555 1_555
N4_5 H1_5 1_555 1_555
H2_5 N4_5 1_555 1_555
N10 C4_5 1_555 1_555
N6_5 Zn3 1_555 1_555
N7_4 N6_5 1_555 1_555
N8_5 H3_4 1_555 1_555
C1_5 N9_3 1_555 1_555
C2_5 N3_5 1_555 1_555
C3_5 C2_5 1_555 1_555
H5_5 C3_5 1_555 1_555
H6_5 C3_5 1_555 1_555
C4_5 N6_5 1_555 1_555
C5_5 N10 1_555 1_555
N4_5 C1_5 1_555 1_555
N7_4 C5_5 1_555 1_555
N8_5 C5_5 1_555 1_555
C3_5 C4_5 1_555 1_555
C5_6 N10_3 1_555 1_555
N8_6 C5_6 1_555 1_555
N9_2 N2_6 1_555 1_555
N2_6 C2_6 1_555 1_555
N3_6 C1_6 1_555 1_555
N4_6 H1_6 1_555 1_555
H2_6 N4_6 1_555 1_555
C1_6 N9_2 1_555 1_555
C2_6 N3_6 1_555 1_555
C3_6 C2_6 1_555 1_555
H6_6 C3_6 1_555 1_555
C4_6 N6_6 1_555 1_555
N4_6 C1_6 1_555 1_555
C3_6 C4_6 1_555 1_555

#END
