
###############################################################################
#
# This file contains modified crystal structure data generated from the
# MOF subset of the Cambridge Structural Database (CSD) v543 
# hosted by the Cambridge Crystallographic Data Centre (CCDC).
#
# This work is licensed under the Creative Commons
# Attribution-NonCommercial-ShareAlike 4.0 International License.
# To view a copy of this license, visit
# http://creativecommons.org/licenses/by-nc-sa/4.0/
# or send a letter to
# Creative Commons, PO Box 1866, Mountain View, CA 94042, USA.
#
# CIF created using the CSD Python API on 29 September 2022
# The structure has been converted into the P1 space group
# The structure has a 3D framework
# The original CSD entry YUZPEQ is in the tetragonal crystal system
# The framework has been calculated to contain at least 10.0% void space
# The void calculation uses a probe of radius 1.32A, grid spacing 0.4
# H atom positions have been added when not included in the experimental data
#
###############################################################################

data_YUZPEQ
_chemical_formula_moiety         '(C776 H480 N160 O248 Zn56)n'
_symmetry_cell_setting           triclinic
_symmetry_space_group_name_H-M   'P 1'
_symmetry_Int_Tables_number      1
_space_group_name_Hall           'P 1'
loop_
_symmetry_equiv_pos_site_id
_symmetry_equiv_pos_as_xyz
1 x,y,z
_cell_length_a                   35.9096(4)
_cell_length_b                   35.9096(4)
_cell_length_c                   51.3533(9)
_cell_angle_alpha                90
_cell_angle_beta                 90
_cell_angle_gamma                90
_cell_volume                     66220
loop_
_atom_site_label
_atom_site_type_symbol
_atom_site_fract_x
_atom_site_fract_y
_atom_site_fract_z
C96 C 0.00606(8) 0.26418(7) 0.46578(4)
O29 O 0.00974(5) 0.23155(5) 0.47299(3)
O30 O 0.02167(5) 0.29292(5) 0.47344(4)
Zn9 Zn 0.046377(13) 0.216783(11) 0.5000
Zn20 Zn 0.061462(14) 0.289223(12) 0.5000
Zn1 Zn 0.783217(11) 0.046377(13) 0.5000
Zn2 Zn 0.916084(9) 0.132758(9) 0.390144(6)
Zn3 Zn 0.887893(9) 0.176820(9) 0.353657(6)
Zn4 Zn 0.710777(12) 0.061462(14) 0.5000
O1 O 0.94175(9) 0.09911(7) 0.41974(5)
H1 H 0.9294 0.0801 0.4219
O2 O 0.86475(7) 0.21152(7) 0.32397(5)
H2 H 0.8434 0.2047 0.3207
O3 O 0.72551(5) 0.09627(5) 0.47271(3)
O4 O 0.84107(8) 0.03276(15) 0.5000
H3 H 0.8495 0.0352 0.5148
O5 O 0.65375(7) 0.07646(10) 0.5000
H4 H 0.6417 0.0606 0.5078
O6 O 0.86695(4) 0.13827(5) 0.40666(3)
O7 O 0.78637(5) 0.08453(5) 0.47307(3)
O8 O 0.84242(5) 0.17294(5) 0.37482(3)
C1 C 0.73264(7) 0.14274(9) 0.43001(6)
H5 H 0.7090 0.1397 0.4371
C2 C 0.76346(7) 0.12566(7) 0.44100(5)
C3 C 0.75759(7) 0.09949(7) 0.46408(4)
C4 C 0.79890(7) 0.13035(7) 0.43054(5)
H6 H 0.8194 0.1191 0.4384
N1 N 0.70601(7) 0.18089(11) 0.39542(7)
C5 C 0.80342(7) 0.15200(7) 0.40824(5)
C6 C 0.84104(6) 0.15444(7) 0.39477(5)
C7 C 0.77265(7) 0.16916(9) 0.39679(6)
H7 H 0.7754 0.1835 0.3818
C8 C 0.73821(8) 0.16447(10) 0.40810(7)
C9 C 0.67137(9) 0.16826(13) 0.39490(8)
H8 H 0.6623 0.1466 0.4025
N2 N 0.70935(9) 0.21459(14) 0.38378(11)
C10 C 0.65216(10) 0.19376(17) 0.38094(11)
C11 C 0.61299(10) 0.19537(17) 0.37300(11)
N3 N 0.67609(10) 0.22199(15) 0.37511(13)
C12 C 0.59208(12) 0.16494(19) 0.37445(13)
H9 H 0.6024 0.1433 0.3812
C13 C 0.59629(12) 0.22800(17) 0.36555(13)
H10 H 0.6091 0.2505 0.3660
C14 C 0.55961(13) 0.2262(2) 0.35728(15)
H11 H 0.5484 0.2481 0.3516
C15 C 0.55515(13) 0.1645(2) 0.36607(13)
H12 H 0.5416 0.1425 0.3669
C16 C 0.53920(11) 0.1948(2) 0.35699(13)
N4 N 0.50096(9) 0.19555(17) 0.34915(9)
C17 C 0.49024(12) 0.2160(2) 0.32718(12)
C18 C 0.51081(13) 0.2205(2) 0.30684(12)
H13 H 0.5342 0.2093 0.3070
C19 C 0.45909(14) 0.2360(3) 0.32770(14)
H14 H 0.4437 0.2353 0.3422
C20 C 0.47486(11) 0.1732(2) 0.36231(11)
C21 C 0.44448(14) 0.1623(2) 0.35237(12)
H15 H 0.4391 0.1702 0.3355
C22 C 0.50128(13) 0.24055(19) 0.28459(11)
H16 H 0.5173 0.2412 0.2704
C23 C 0.47033(11) 0.2580(2) 0.28398(11)
C24 C 0.44949(14) 0.2584(3) 0.30607(12)
H17 H 0.4286 0.2736 0.3070
C25 C 0.42180(12) 0.1306(2) 0.38851(12)
C26 C 0.41790(13) 0.1390(3) 0.36481(14)
H18 H 0.3976 0.1299 0.3555
C27 C 0.44821(16) 0.1511(2) 0.40325(13)
H19 H 0.4470 0.1527 0.4213
C28 C 0.47675(15) 0.1693(2) 0.38851(13)
H20 H 0.4973 0.1788 0.3973
N5 N 0.45571(8) 0.31126(13) 0.22565(6)
C29 C 0.47778(10) 0.29141(13) 0.24020(8)
H21 H 0.5023 0.2854 0.2362
C30 C 0.46015(12) 0.2812(2) 0.26141(10)
N6 N 0.34570(8) 0.07812(12) 0.41558(7)
C31 C 0.35887(9) 0.09842(13) 0.39647(8)
H22 H 0.3459 0.1056 0.3816
N7 N 0.37042(11) 0.07851(19) 0.43605(11)
N8 N 0.40023(13) 0.0968(2) 0.42730(11)
C32 C 0.39330(12) 0.1069(2) 0.40186(12)
N9 N 0.42505(13) 0.3170(3) 0.23890(11)
N10 N 0.42718(15) 0.2985(3) 0.26039(11)
C33 C 0.50001(7) 0.34656(7) 0.16549(5)
C34 C 0.49564(8) 0.32914(9) 0.18984(6)
H23 H 0.5158 0.3181 0.1982
C35 C 0.43010(8) 0.34464(10) 0.18920(6)
H24 H 0.4067 0.3433 0.1970
C36 C 0.46036(9) 0.32883(11) 0.20106(6)
C37 C 0.23930(7) 0.03748(7) 0.43141(5)
H25 H 0.2154 0.0298 0.4359
C38 C 0.24450(7) 0.06255(7) 0.41146(5)
C39 C 0.27019(7) 0.02360(8) 0.44490(5)
C40 C 0.27950(8) 0.07572(9) 0.40577(6)
H26 H 0.2830 0.0929 0.3924
C41 C 0.30497(8) 0.03642(10) 0.43926(6)
H27 H 0.3255 0.0272 0.4483
C42 C 0.30968(8) 0.06289(11) 0.42028(7)
C43 C 0.40108(7) 0.37895(7) 0.15198(5)
C44 C 0.53688(7) 0.34587(7) 0.15170(5)
C45 C 0.46951(7) 0.36334(7) 0.15403(5)
H28 H 0.4724 0.3754 0.1381
C46 C 0.43451(7) 0.36260(7) 0.16569(5)
C47 C 0.21112(7) 0.07598(7) 0.39629(5)
O9 O 0.53995(4) 0.36580(5) 0.13224(3)
O10 O 0.40817(4) 0.39561(5) 0.13110(3)
O11 O 0.56226(4) 0.32668(5) 0.16167(3)
O12 O 0.37066(5) 0.37440(5) 0.16279(3)
O13 O 0.17973(4) 0.06860(5) 0.40553(3)
O14 O 0.21716(4) 0.09485(5) 0.37622(3)
H29 H 0.8495 0.0352 0.4852
H30 H 0.6417 0.0606 0.4922
Zn5 Zn 0.867242(9) 0.916084(9) 0.390144(6)
Zn6 Zn 0.823180(9) 0.887893(9) 0.353657(6)
O17 O 0.90089(7) 0.94175(9) 0.41974(5)
H31 H 0.9199 0.9294 0.4219
O18 O 0.78848(7) 0.86475(7) 0.32397(5)
H32 H 0.7953 0.8434 0.3207
O19 O 0.90373(5) 0.72551(5) 0.47271(3)
O20 O 0.86173(5) 0.86695(4) 0.40666(3)
O21 O 0.91547(5) 0.78637(5) 0.47307(3)
O22 O 0.82706(5) 0.84242(5) 0.37482(3)
C49 C 0.85726(9) 0.73264(7) 0.43001(6)
H33 H 0.8603 0.7090 0.4371
C50 C 0.87434(7) 0.76346(7) 0.44100(5)
C51 C 0.90051(7) 0.75759(7) 0.46408(4)
C52 C 0.86965(7) 0.79890(7) 0.43054(5)
H34 H 0.8809 0.8194 0.4384
N11 N 0.81911(11) 0.70601(7) 0.39542(7)
C53 C 0.84800(7) 0.80342(7) 0.40824(5)
C54 C 0.84556(7) 0.84104(6) 0.39477(5)
C55 C 0.83084(9) 0.77265(7) 0.39679(6)
H35 H 0.8165 0.7754 0.3818
C56 C 0.83553(10) 0.73821(8) 0.40810(7)
C57 C 0.83174(13) 0.67137(9) 0.39490(8)
H36 H 0.8534 0.6623 0.4025
N12 N 0.78541(14) 0.70935(9) 0.38378(11)
C58 C 0.80624(17) 0.65216(10) 0.38094(11)
C59 C 0.80463(17) 0.61299(10) 0.37300(11)
N13 N 0.77801(15) 0.67609(10) 0.37511(13)
C60 C 0.83506(19) 0.59208(12) 0.37445(13)
H37 H 0.8567 0.6024 0.3812
C61 C 0.77200(17) 0.59629(12) 0.36555(13)
H38 H 0.7495 0.6091 0.3660
C62 C 0.7738(2) 0.55961(13) 0.35728(15)
H39 H 0.7519 0.5484 0.3516
C63 C 0.8355(2) 0.55515(13) 0.36607(13)
H40 H 0.8575 0.5416 0.3669
C64 C 0.8052(2) 0.53920(11) 0.35699(13)
N14 N 0.80445(17) 0.50096(9) 0.34915(9)
C65 C 0.7840(2) 0.49024(12) 0.32718(12)
C66 C 0.7795(2) 0.51081(13) 0.30684(12)
H41 H 0.7907 0.5342 0.3070
C67 C 0.7640(3) 0.45909(14) 0.32770(14)
H42 H 0.7647 0.4437 0.3422
C68 C 0.8268(2) 0.47486(11) 0.36231(11)
C69 C 0.8377(2) 0.44448(14) 0.35237(12)
H43 H 0.8298 0.4391 0.3355
C70 C 0.75945(19) 0.50128(13) 0.28459(11)
H44 H 0.7588 0.5173 0.2704
C71 C 0.7420(2) 0.47033(11) 0.28398(11)
C72 C 0.7416(3) 0.44949(14) 0.30607(12)
H45 H 0.7264 0.4286 0.3070
C73 C 0.8694(2) 0.42180(12) 0.38851(12)
C74 C 0.8610(3) 0.41790(13) 0.36481(14)
H46 H 0.8701 0.3976 0.3555
C75 C 0.8489(2) 0.44821(16) 0.40325(13)
H47 H 0.8473 0.4470 0.4213
C76 C 0.8307(2) 0.47675(15) 0.38851(13)
H48 H 0.8212 0.4973 0.3973
N15 N 0.68874(13) 0.45571(8) 0.22565(6)
C77 C 0.70859(13) 0.47778(10) 0.24020(8)
H49 H 0.7146 0.5023 0.2362
C78 C 0.7188(2) 0.46015(12) 0.26141(10)
N16 N 0.92188(12) 0.34570(8) 0.41558(7)
C79 C 0.90158(13) 0.35887(9) 0.39647(8)
H50 H 0.8944 0.3459 0.3816
N17 N 0.92149(19) 0.37042(11) 0.43605(11)
N18 N 0.9032(2) 0.40023(13) 0.42730(11)
C80 C 0.8931(2) 0.39330(12) 0.40186(12)
N19 N 0.6830(3) 0.42505(13) 0.23890(11)
N20 N 0.7015(3) 0.42718(15) 0.26039(11)
C81 C 0.65344(7) 0.50001(7) 0.16549(5)
C82 C 0.67086(9) 0.49564(8) 0.18984(6)
H51 H 0.6819 0.5158 0.1982
C83 C 0.65536(10) 0.43010(8) 0.18920(6)
H52 H 0.6567 0.4067 0.1970
C84 C 0.67117(11) 0.46036(9) 0.20106(6)
C85 C 0.96252(7) 0.23930(7) 0.43141(5)
H53 H 0.9702 0.2154 0.4359
C86 C 0.93745(7) 0.24450(7) 0.41146(5)
C87 C 0.97640(8) 0.27019(7) 0.44490(5)
C88 C 0.92428(9) 0.27950(8) 0.40577(6)
H54 H 0.9071 0.2830 0.3924
C89 C 0.96358(10) 0.30497(8) 0.43926(6)
H55 H 0.9728 0.3255 0.4483
C90 C 0.93711(11) 0.30968(8) 0.42028(7)
C91 C 0.62105(7) 0.40108(7) 0.15198(5)
C92 C 0.65413(7) 0.53688(7) 0.15170(5)
C93 C 0.63666(7) 0.46951(7) 0.15403(5)
H56 H 0.6246 0.4724 0.1381
C94 C 0.63740(7) 0.43451(7) 0.16569(5)
C95 C 0.92402(7) 0.21112(7) 0.39629(5)
O23 O 0.63420(5) 0.53995(4) 0.13224(3)
O24 O 0.60439(5) 0.40817(4) 0.13110(3)
O25 O 0.67332(5) 0.56226(4) 0.16167(3)
O26 O 0.62560(5) 0.37066(5) 0.16279(3)
O27 O 0.93140(5) 0.17973(4) 0.40553(3)
O28 O 0.90515(5) 0.21716(4) 0.37622(3)
Zn7 Zn 0.953623(13) 0.783217(11) 0.5000
Zn10 Zn 0.132758(9) 0.083916(9) 0.390144(6)
Zn11 Zn 0.583916(9) 0.367242(9) 0.109856(6)
Zn12 Zn 0.632758(9) 0.583916(9) 0.109856(6)
Zn13 Zn 0.367242(9) 0.416084(9) 0.109856(6)
Zn14 Zn 0.176820(9) 0.112107(9) 0.353657(6)
Zn15 Zn 0.612107(9) 0.323180(9) 0.146343(6)
Zn16 Zn 0.676820(9) 0.612107(9) 0.146343(6)
Zn17 Zn 0.323180(9) 0.387893(9) 0.146343(6)
Zn18 Zn 0.938538(14) 0.710777(12) 0.5000
O31 O 0.72551(5) 0.09627(5) 0.52729(3)
O32 O 0.78637(5) 0.08453(5) 0.52693(3)
O33 O 0.96005(4) 0.13420(5) 0.36776(3)
O34 O 0.86580(5) 0.96005(4) 0.36776(3)
O35 O 0.89561(5) 0.09183(4) 0.36890(3)
O36 O 0.90817(4) 0.89561(5) 0.36890(3)
O37 O 0.93774(4) 0.17332(5) 0.33833(3)
O38 O 0.82668(5) 0.93774(4) 0.33833(3)
O39 O 0.87440(5) 0.12934(5) 0.33721(3)
O40 O 0.87066(5) 0.87440(5) 0.33721(3)
O41 O 0.82027(4) 0.93140(5) 0.40553(3)
O42 O 0.78284(4) 0.90515(5) 0.37622(3)
O43 O 0.76845(5) 0.00974(5) 0.47299(3)
O44 O 0.76845(5) 0.00974(5) 0.52701(3)
O45 O 0.70708(5) 0.02167(5) 0.47344(4)
O46 O 0.70708(5) 0.02167(5) 0.52656(4)
H57 H 0.942877 0.113338 0.436302
H58 H 0.880218 0.209677 0.307993
H59 H 0.886662 0.942877 0.436302
H60 H 0.790323 0.880218 0.307993
C48 C 0.26418(7) 0.99394(8) 0.46578(4)
O15 O 0.23155(5) 0.99026(5) 0.47299(3)
O16 O 0.29292(5) 0.97833(5) 0.47344(4)
Zn8 Zn 0.216783(11) 0.953623(13) 0.5000
Zn19 Zn 0.289223(12) 0.938538(14) 0.5000
C96_2 C 0.73582(7) 0.00606(8) 0.46578(4)
O4_2 O 0.96724(15) 0.84107(8) 0.5000
H3_2 H 0.9648 0.8495 0.5148
O5_2 O 0.92354(10) 0.65375(7) 0.5000
H4_2 H 0.9394 0.6417 0.5078
H29_2 H 0.9648 0.8495 0.4852
H30_2 H 0.9394 0.6417 0.4922
Zn5_2 Zn 0.083916(9) 0.867242(9) 0.390144(6)
Zn6_2 Zn 0.112107(9) 0.823180(9) 0.353657(6)
O17_2 O 0.05825(9) 0.90089(7) 0.41974(5)
H31_2 H 0.0706 0.9199 0.4219
O18_2 O 0.13525(7) 0.78848(7) 0.32397(5)
H32_2 H 0.1566 0.7953 0.3207
O19_2 O 0.27449(5) 0.90373(5) 0.47271(3)
O20_2 O 0.13305(4) 0.86173(5) 0.40666(3)
O21_2 O 0.21363(5) 0.91547(5) 0.47307(3)
O22_2 O 0.15758(5) 0.82706(5) 0.37482(3)
C49_2 C 0.26736(7) 0.85726(9) 0.43001(6)
H33_2 H 0.2910 0.8603 0.4371
C50_2 C 0.23654(7) 0.87434(7) 0.44100(5)
C51_2 C 0.24241(7) 0.90051(7) 0.46408(4)
C52_2 C 0.20110(7) 0.86965(7) 0.43054(5)
H34_2 H 0.1806 0.8809 0.4384
N11_2 N 0.29399(7) 0.81911(11) 0.39542(7)
C53_2 C 0.19658(7) 0.84800(7) 0.40824(5)
C54_2 C 0.15896(6) 0.84556(7) 0.39477(5)
C55_2 C 0.22735(7) 0.83084(9) 0.39679(6)
H35_2 H 0.2246 0.8165 0.3818
C56_2 C 0.26179(8) 0.83553(10) 0.40810(7)
C57_2 C 0.32863(9) 0.83174(13) 0.39490(8)
H36_2 H 0.3377 0.8534 0.4025
N12_2 N 0.29065(9) 0.78541(14) 0.38378(11)
C58_2 C 0.34784(10) 0.80624(17) 0.38094(11)
C59_2 C 0.38701(10) 0.80463(17) 0.37300(11)
N13_2 N 0.32391(10) 0.77801(15) 0.37511(13)
C60_2 C 0.40792(12) 0.83506(19) 0.37445(13)
H37_2 H 0.3976 0.8567 0.3812
C61_2 C 0.40371(12) 0.77200(17) 0.36555(13)
H38_2 H 0.3909 0.7495 0.3660
C62_2 C 0.44039(13) 0.7738(2) 0.35728(15)
H39_2 H 0.4516 0.7519 0.3516
C63_2 C 0.44485(13) 0.8355(2) 0.36607(13)
H40_2 H 0.4584 0.8575 0.3669
C64_2 C 0.46080(11) 0.8052(2) 0.35699(13)
N14_2 N 0.49904(9) 0.80445(17) 0.34915(9)
C65_2 C 0.50976(12) 0.7840(2) 0.32718(12)
C66_2 C 0.48919(13) 0.7795(2) 0.30684(12)
H41_2 H 0.4658 0.7907 0.3070
C67_2 C 0.54091(14) 0.7640(3) 0.32770(14)
H42_2 H 0.5563 0.7647 0.3422
C68_2 C 0.52514(11) 0.8268(2) 0.36231(11)
C69_2 C 0.55552(14) 0.8377(2) 0.35237(12)
H43_2 H 0.5609 0.8298 0.3355
C70_2 C 0.49872(13) 0.75945(19) 0.28459(11)
H44_2 H 0.4827 0.7588 0.2704
C71_2 C 0.52967(11) 0.7420(2) 0.28398(11)
C72_2 C 0.55051(14) 0.7416(3) 0.30607(12)
H45_2 H 0.5714 0.7264 0.3070
C73_2 C 0.57820(12) 0.8694(2) 0.38851(12)
C74_2 C 0.58210(13) 0.8610(3) 0.36481(14)
H46_2 H 0.6024 0.8701 0.3555
C75_2 C 0.55179(16) 0.8489(2) 0.40325(13)
H47_2 H 0.5530 0.8473 0.4213
C76_2 C 0.52325(15) 0.8307(2) 0.38851(13)
H48_2 H 0.5027 0.8212 0.3973
N15_2 N 0.54429(8) 0.68874(13) 0.22565(6)
C77_2 C 0.52222(10) 0.70859(13) 0.24020(8)
H49_2 H 0.4977 0.7146 0.2362
C78_2 C 0.53985(12) 0.7188(2) 0.26141(10)
N16_2 N 0.65430(8) 0.92188(12) 0.41558(7)
C79_2 C 0.64113(9) 0.90158(13) 0.39647(8)
H50_2 H 0.6541 0.8944 0.3816
N17_2 N 0.62958(11) 0.92149(19) 0.43605(11)
N18_2 N 0.59977(13) 0.9032(2) 0.42730(11)
C80_2 C 0.60670(12) 0.8931(2) 0.40186(12)
N19_2 N 0.57495(13) 0.6830(3) 0.23890(11)
N20_2 N 0.57282(15) 0.7015(3) 0.26039(11)
C81_2 C 0.49999(7) 0.65344(7) 0.16549(5)
C82_2 C 0.50436(8) 0.67086(9) 0.18984(6)
H51_2 H 0.4842 0.6819 0.1982
C83_2 C 0.56990(8) 0.65536(10) 0.18920(6)
H52_2 H 0.5933 0.6567 0.1970
C84_2 C 0.53964(9) 0.67117(11) 0.20106(6)
C85_2 C 0.76070(7) 0.96252(7) 0.43141(5)
H53_2 H 0.7846 0.9702 0.4359
C86_2 C 0.75550(7) 0.93745(7) 0.41146(5)
C87_2 C 0.72981(7) 0.97640(8) 0.44490(5)
C88_2 C 0.72050(8) 0.92428(9) 0.40577(6)
H54_2 H 0.7170 0.9071 0.3924
C89_2 C 0.69503(8) 0.96358(10) 0.43926(6)
H55_2 H 0.6745 0.9728 0.4483
C90_2 C 0.69032(8) 0.93711(11) 0.42028(7)
C91_2 C 0.59892(7) 0.62105(7) 0.15198(5)
C92_2 C 0.46312(7) 0.65413(7) 0.15170(5)
C93_2 C 0.53049(7) 0.63666(7) 0.15403(5)
H56_2 H 0.5276 0.6246 0.1381
C94_2 C 0.56549(7) 0.63740(7) 0.16569(5)
C95_2 C 0.78888(7) 0.92402(7) 0.39629(5)
O23_2 O 0.46005(4) 0.63420(5) 0.13224(3)
O24_2 O 0.59183(4) 0.60439(5) 0.13110(3)
O25_2 O 0.43774(4) 0.67332(5) 0.16167(3)
O26_2 O 0.62934(5) 0.62560(5) 0.16279(3)
Zn12_2 Zn 0.416084(9) 0.632758(9) 0.109856(6)
Zn16_2 Zn 0.387893(9) 0.676820(9) 0.146343(6)
O31_2 O 0.90373(5) 0.72551(5) 0.52729(3)
O32_2 O 0.91547(5) 0.78637(5) 0.52693(3)
O34_2 O 0.03995(4) 0.86580(5) 0.36776(3)
O36_2 O 0.10439(5) 0.90817(4) 0.36890(3)
O38_2 O 0.06226(4) 0.82668(5) 0.33833(3)
O40_2 O 0.12560(5) 0.87066(5) 0.33721(3)
O41_2 O 0.06860(5) 0.82027(4) 0.40553(3)
O42_2 O 0.09485(5) 0.78284(4) 0.37622(3)
O43_2 O 0.99026(5) 0.76845(5) 0.47299(3)
O44_2 O 0.99026(5) 0.76845(5) 0.52701(3)
O45_2 O 0.97833(5) 0.70708(5) 0.47344(4)
O46_2 O 0.97833(5) 0.70708(5) 0.52656(4)
H59_2 H 0.0571229 0.886662 0.436302
H60_2 H 0.119782 0.790323 0.307993
O4_3 O 0.15893(8) 0.96724(15) 0.5000
H3_3 H 0.1505 0.9648 0.5148
O5_3 O 0.34625(7) 0.92354(10) 0.5000
H4_3 H 0.3583 0.9394 0.5078
H29_3 H 0.1505 0.9648 0.4852
H30_3 H 0.3583 0.9394 0.4922
O17_3 O 0.09911(7) 0.05825(9) 0.41974(5)
H31_3 H 0.0801 0.0706 0.4219
O18_3 O 0.21152(7) 0.13525(7) 0.32397(5)
H32_3 H 0.2047 0.1566 0.3207
O19_3 O 0.09627(5) 0.27449(5) 0.47271(3)
O20_3 O 0.13827(5) 0.13305(4) 0.40666(3)
O21_3 O 0.08453(5) 0.21363(5) 0.47307(3)
O22_3 O 0.17294(5) 0.15758(5) 0.37482(3)
C49_3 C 0.14274(9) 0.26736(7) 0.43001(6)
H33_3 H 0.1397 0.2910 0.4371
C50_3 C 0.12566(7) 0.23654(7) 0.44100(5)
C51_3 C 0.09949(7) 0.24241(7) 0.46408(4)
C52_3 C 0.13035(7) 0.20110(7) 0.43054(5)
H34_3 H 0.1191 0.1806 0.4384
N11_3 N 0.18089(11) 0.29399(7) 0.39542(7)
C53_3 C 0.15200(7) 0.19658(7) 0.40824(5)
C54_3 C 0.15444(7) 0.15896(6) 0.39477(5)
C55_3 C 0.16916(9) 0.22735(7) 0.39679(6)
H35_3 H 0.1835 0.2246 0.3818
C56_3 C 0.16447(10) 0.26179(8) 0.40810(7)
C57_3 C 0.16826(13) 0.32863(9) 0.39490(8)
H36_3 H 0.1466 0.3377 0.4025
N12_3 N 0.21459(14) 0.29065(9) 0.38378(11)
C58_3 C 0.19376(17) 0.34784(10) 0.38094(11)
C59_3 C 0.19537(17) 0.38701(10) 0.37300(11)
N13_3 N 0.22199(15) 0.32391(10) 0.37511(13)
C60_3 C 0.16494(19) 0.40792(12) 0.37445(13)
H37_3 H 0.1433 0.3976 0.3812
C61_3 C 0.22800(17) 0.40371(12) 0.36555(13)
H38_3 H 0.2505 0.3909 0.3660
C62_3 C 0.2262(2) 0.44039(13) 0.35728(15)
H39_3 H 0.2481 0.4516 0.3516
C63_3 C 0.1645(2) 0.44485(13) 0.36607(13)
H40_3 H 0.1425 0.4584 0.3669
C64_3 C 0.1948(2) 0.46080(11) 0.35699(13)
N14_3 N 0.19555(17) 0.49904(9) 0.34915(9)
C65_3 C 0.2160(2) 0.50976(12) 0.32718(12)
C66_3 C 0.2205(2) 0.48919(13) 0.30684(12)
H41_3 H 0.2093 0.4658 0.3070
C67_3 C 0.2360(3) 0.54091(14) 0.32770(14)
H42_3 H 0.2353 0.5563 0.3422
C68_3 C 0.1732(2) 0.52514(11) 0.36231(11)
C69_3 C 0.1623(2) 0.55552(14) 0.35237(12)
H43_3 H 0.1702 0.5609 0.3355
C70_3 C 0.24055(19) 0.49872(13) 0.28459(11)
H44_3 H 0.2412 0.4827 0.2704
C71_3 C 0.2580(2) 0.52967(11) 0.28398(11)
C72_3 C 0.2584(3) 0.55051(14) 0.30607(12)
H45_3 H 0.2736 0.5714 0.3070
C73_3 C 0.1306(2) 0.57820(12) 0.38851(12)
C74_3 C 0.1390(3) 0.58210(13) 0.36481(14)
H46_3 H 0.1299 0.6024 0.3555
C75_3 C 0.1511(2) 0.55179(16) 0.40325(13)
H47_3 H 0.1527 0.5530 0.4213
C76_3 C 0.1693(2) 0.52325(15) 0.38851(13)
H48_3 H 0.1788 0.5027 0.3973
N15_3 N 0.31126(13) 0.54429(8) 0.22565(6)
C77_3 C 0.29141(13) 0.52222(10) 0.24020(8)
H49_3 H 0.2854 0.4977 0.2362
C78_3 C 0.2812(2) 0.53985(12) 0.26141(10)
N16_3 N 0.07812(12) 0.65430(8) 0.41558(7)
C79_3 C 0.09842(13) 0.64113(9) 0.39647(8)
H50_3 H 0.1056 0.6541 0.3816
N17_3 N 0.07851(19) 0.62958(11) 0.43605(11)
N18_3 N 0.0968(2) 0.59977(13) 0.42730(11)
C80_3 C 0.1069(2) 0.60670(12) 0.40186(12)
N19_3 N 0.3170(3) 0.57495(13) 0.23890(11)
N20_3 N 0.2985(3) 0.57282(15) 0.26039(11)
C81_3 C 0.34656(7) 0.49999(7) 0.16549(5)
C82_3 C 0.32914(9) 0.50436(8) 0.18984(6)
H51_3 H 0.3181 0.4842 0.1982
C83_3 C 0.34464(10) 0.56990(8) 0.18920(6)
H52_3 H 0.3433 0.5933 0.1970
C84_3 C 0.32883(11) 0.53964(9) 0.20106(6)
C85_3 C 0.03748(7) 0.76070(7) 0.43141(5)
H53_3 H 0.0298 0.7846 0.4359
C86_3 C 0.06255(7) 0.75550(7) 0.41146(5)
C87_3 C 0.02360(8) 0.72981(7) 0.44490(5)
C88_3 C 0.07572(9) 0.72050(8) 0.40577(6)
H54_3 H 0.0929 0.7170 0.3924
C89_3 C 0.03642(10) 0.69503(8) 0.43926(6)
H55_3 H 0.0272 0.6745 0.4483
C90_3 C 0.06289(11) 0.69032(8) 0.42028(7)
C91_3 C 0.37895(7) 0.59892(7) 0.15198(5)
C92_3 C 0.34587(7) 0.46312(7) 0.15170(5)
C93_3 C 0.36334(7) 0.53049(7) 0.15403(5)
H56_3 H 0.3754 0.5276 0.1381
C94_3 C 0.36260(7) 0.56549(7) 0.16569(5)
C95_3 C 0.07598(7) 0.78888(7) 0.39629(5)
O23_3 O 0.36580(5) 0.46005(4) 0.13224(3)
O24_3 O 0.39561(5) 0.59183(4) 0.13110(3)
O25_3 O 0.32668(5) 0.43774(4) 0.16167(3)
O26_3 O 0.37440(5) 0.62934(5) 0.16279(3)
O31_3 O 0.27449(5) 0.90373(5) 0.52729(3)
O32_3 O 0.21363(5) 0.91547(5) 0.52693(3)
O34_3 O 0.13420(5) 0.03995(4) 0.36776(3)
O36_3 O 0.09183(4) 0.10439(5) 0.36890(3)
O38_3 O 0.17332(5) 0.06226(4) 0.33833(3)
O40_3 O 0.12934(5) 0.12560(5) 0.33721(3)
O44_3 O 0.23155(5) 0.99026(5) 0.52701(3)
O46_3 O 0.29292(5) 0.97833(5) 0.52656(4)
H59_3 H 0.113338 0.0571229 0.436302
H60_3 H 0.209677 0.119782 0.307993
C96_3 C 0.99394(8) 0.73582(7) 0.46578(4)
O4_4 O 0.03276(15) 0.15893(8) 0.5000
H3_4 H 0.0352 0.1505 0.5148
O5_4 O 0.07646(10) 0.34625(7) 0.5000
H4_4 H 0.0606 0.3583 0.5078
H29_4 H 0.0352 0.1505 0.4852
H30_4 H 0.0606 0.3583 0.4922
O31_4 O 0.09627(5) 0.27449(5) 0.52729(3)
O32_4 O 0.08453(5) 0.21363(5) 0.52693(3)
O44_4 O 0.00974(5) 0.23155(5) 0.52701(3)
O46_4 O 0.02167(5) 0.29292(5) 0.52656(4)
Zn7_2 Zn 0.453623(13) 0.283217(11) -0.0000
Zn18_2 Zn 0.438538(14) 0.210777(12) -0.0000
Zn5_3 Zn 0.367242(9) 0.416084(9) 0.890144(6)
Zn6_3 Zn 0.323180(9) 0.387893(9) 0.853657(6)
O17_4 O 0.40089(7) 0.44175(9) 0.91974(5)
H31_4 H 0.4199 0.4294 0.9219
O18_4 O 0.28848(7) 0.36475(7) 0.82397(5)
H32_4 H 0.2953 0.3434 0.8207
O19_4 O 0.40373(5) 0.22551(5) 0.97271(3)
O20_4 O 0.36173(5) 0.36695(4) 0.90666(3)
O21_4 O 0.41547(5) 0.28637(5) 0.97307(3)
O22_4 O 0.32706(5) 0.34242(5) 0.87482(3)
C49_4 C 0.35726(9) 0.23264(7) 0.93001(6)
H33_4 H 0.3603 0.2090 0.9371
C50_4 C 0.37434(7) 0.26346(7) 0.94100(5)
C51_4 C 0.40051(7) 0.25759(7) 0.96408(4)
C52_4 C 0.36965(7) 0.29890(7) 0.93054(5)
H34_4 H 0.3809 0.3194 0.9384
N11_4 N 0.31911(11) 0.20601(7) 0.89542(7)
C53_4 C 0.34800(7) 0.30342(7) 0.90824(5)
C54_4 C 0.34556(7) 0.34104(6) 0.89477(5)
C55_4 C 0.33084(9) 0.27265(7) 0.89679(6)
H35_4 H 0.3165 0.2754 0.8818
C56_4 C 0.33553(10) 0.23821(8) 0.90810(7)
C57_4 C 0.33174(13) 0.17137(9) 0.89490(8)
H36_4 H 0.3534 0.1623 0.9025
N12_4 N 0.28541(14) 0.20935(9) 0.88378(11)
C58_4 C 0.30624(17) 0.15216(10) 0.88094(11)
C59_4 C 0.30463(17) 0.11299(10) 0.87300(11)
N13_4 N 0.27801(15) 0.17609(10) 0.87511(13)
C60_4 C 0.33506(19) 0.09208(12) 0.87445(13)
H37_4 H 0.3567 0.1024 0.8812
C61_4 C 0.27200(17) 0.09629(12) 0.86555(13)
H38_4 H 0.2495 0.1091 0.8660
C62_4 C 0.2738(2) 0.05961(13) 0.85728(15)
H39_4 H 0.2519 0.0484 0.8516
C63_4 C 0.3355(2) 0.05515(13) 0.86607(13)
H40_4 H 0.3575 0.0416 0.8669
C64_4 C 0.3052(2) 0.03920(11) 0.85699(13)
N14_4 N 0.30445(17) 0.00096(9) 0.84915(9)
C66_4 C 0.2795(2) 0.01081(13) 0.80684(12)
H41_4 H 0.2907 0.0342 0.8070
C70_4 C 0.25945(19) 0.00128(13) 0.78459(11)
H44_4 H 0.2588 0.0173 0.7704
H49_4 H 0.2146 0.0023 0.7362
C81_4 C 0.15344(7) 0.00001(7) 0.66549(5)
H51_4 H 0.1819 0.0158 0.6982
C92_4 C 0.15413(7) 0.03688(7) 0.65170(5)
O23_4 O 0.13420(5) 0.03995(4) 0.63224(3)
O25_4 O 0.17332(5) 0.06226(4) 0.66167(3)
Zn7_3 Zn 0.453623(13) 0.283217(11) 1.0000
Zn12_3 Zn 0.132758(9) 0.083916(9) 0.609856(6)
Zn16_3 Zn 0.176820(9) 0.112107(9) 0.646343(6)
Zn18_3 Zn 0.438538(14) 0.210777(12) 1.0000
O34_4 O 0.36580(5) 0.46005(4) 0.86776(3)
O36_4 O 0.40817(4) 0.39561(5) 0.86890(3)
O38_4 O 0.32668(5) 0.43774(4) 0.83833(3)
O40_4 O 0.37066(5) 0.37440(5) 0.83721(3)
O41_3 O 0.32027(4) 0.43140(5) 0.90553(3)
O42_3 O 0.28284(4) 0.40515(5) 0.87622(3)
H59_4 H 0.386662 0.442877 0.936302
H60_4 H 0.290323 0.380218 0.807993
Zn1_2 Zn 0.283217(11) 0.546377(13) -0.0000
Zn4_2 Zn 0.210777(12) 0.561462(14) -0.0000
O4_5 O 0.34107(8) 0.53276(15) -0.0000
H3_5 H 0.3495 0.5352 0.0148
O5_5 O 0.15375(7) 0.57646(10) -0.0000
H4_5 H 0.1417 0.5606 0.0078
Zn9_2 Zn 0.546377(13) 0.716783(11) -0.0000
Zn20_2 Zn 0.561462(14) 0.789223(12) -0.0000
O31_5 O 0.22551(5) 0.59627(5) 0.02729(3)
O32_5 O 0.28637(5) 0.58453(5) 0.02693(3)
O44_5 O 0.26845(5) 0.50974(5) 0.02701(3)
O46_5 O 0.20708(5) 0.52167(5) 0.02656(4)
Zn1_3 Zn 0.283217(11) 0.546377(13) 1.0000
Zn2_2 Zn 0.416084(9) 0.632758(9) 0.890144(6)
Zn3_2 Zn 0.387893(9) 0.676820(9) 0.853657(6)
Zn4_3 Zn 0.210777(12) 0.561462(14) 1.0000
O1_2 O 0.44175(9) 0.59911(7) 0.91974(5)
H1_2 H 0.4294 0.5801 0.9219
O2_2 O 0.36475(7) 0.71152(7) 0.82397(5)
H2_2 H 0.3434 0.7047 0.8207
O3_2 O 0.22551(5) 0.59627(5) 0.97271(3)
O4_6 O 0.34107(8) 0.53276(15) 1.0000
O5_6 O 0.15375(7) 0.57646(10) 1.0000
O6_2 O 0.36695(4) 0.63827(5) 0.90666(3)
O7_2 O 0.28637(5) 0.58453(5) 0.97307(3)
O8_2 O 0.34242(5) 0.67294(5) 0.87482(3)
C1_2 C 0.23264(7) 0.64274(9) 0.93001(6)
H5_2 H 0.2090 0.6397 0.9371
C2_2 C 0.26346(7) 0.62566(7) 0.94100(5)
C3_2 C 0.25759(7) 0.59949(7) 0.96408(4)
C4_2 C 0.29890(7) 0.63035(7) 0.93054(5)
H6_2 H 0.3194 0.6191 0.9384
N1_2 N 0.20601(7) 0.68089(11) 0.89542(7)
C5_2 C 0.30342(7) 0.65200(7) 0.90824(5)
C6_2 C 0.34104(6) 0.65444(7) 0.89477(5)
C7_2 C 0.27265(7) 0.66916(9) 0.89679(6)
H7_2 H 0.2754 0.6835 0.8818
C8_2 C 0.23821(8) 0.66447(10) 0.90810(7)
C9_2 C 0.17137(9) 0.66826(13) 0.89490(8)
H8_2 H 0.1623 0.6466 0.9025
N2_2 N 0.20935(9) 0.71459(14) 0.88378(11)
C10_2 C 0.15216(10) 0.69376(17) 0.88094(11)
C11_2 C 0.11299(10) 0.69537(17) 0.87300(11)
N3_2 N 0.17609(10) 0.72199(15) 0.87511(13)
C12_2 C 0.09208(12) 0.66494(19) 0.87445(13)
H9_2 H 0.1024 0.6433 0.8812
C13_2 C 0.09629(12) 0.72800(17) 0.86555(13)
H10_2 H 0.1091 0.7505 0.8660
C14_2 C 0.05961(13) 0.7262(2) 0.85728(15)
H11_2 H 0.0484 0.7481 0.8516
C15_2 C 0.05515(13) 0.6645(2) 0.86607(13)
H12_2 H 0.0416 0.6425 0.8669
C16_2 C 0.03920(11) 0.6948(2) 0.85699(13)
N4_2 N 0.00096(9) 0.69555(17) 0.84915(9)
C18_2 C 0.01081(13) 0.7205(2) 0.80684(12)
H13_2 H 0.0342 0.7093 0.8070
C22_2 C 0.00128(13) 0.74055(19) 0.78459(11)
H16_2 H 0.0173 0.7412 0.7704
H21_2 H 0.0023 0.7854 0.7362
C33_2 C 0.00001(7) 0.84656(7) 0.66549(5)
H23_2 H 0.0158 0.8181 0.6982
C44_2 C 0.03688(7) 0.84587(7) 0.65170(5)
O9_2 O 0.03995(4) 0.86580(5) 0.63224(3)
O11_2 O 0.06226(4) 0.82668(5) 0.66167(3)
H29_5 H 0.3495 0.5352 0.9852
H30_5 H 0.1417 0.5606 0.9922
C65_4 C 0.2840(2) 0.99024(12) 0.82718(12)
C67_4 C 0.2640(3) 0.95909(14) 0.82770(14)
H42_4 H 0.2647 0.9437 0.8422
C68_4 C 0.3268(2) 0.97486(11) 0.86231(11)
C69_4 C 0.3377(2) 0.94448(14) 0.85237(12)
H43_4 H 0.3298 0.9391 0.8355
C71_4 C 0.2420(2) 0.97033(11) 0.78398(11)
C72_4 C 0.2416(3) 0.94949(14) 0.80607(12)
H45_4 H 0.2264 0.9286 0.8070
C73_4 C 0.3694(2) 0.92180(12) 0.88851(12)
C74_4 C 0.3610(3) 0.91790(13) 0.86481(14)
H46_4 H 0.3701 0.8976 0.8555
C75_4 C 0.3489(2) 0.94821(16) 0.90325(13)
H47_4 H 0.3473 0.9470 0.9213
C76_4 C 0.3307(2) 0.97675(15) 0.88851(13)
H48_4 H 0.3212 0.9973 0.8973
N15_4 N 0.18874(13) 0.95571(8) 0.72565(6)
C77_4 C 0.20859(13) 0.97778(10) 0.74020(8)
C78_4 C 0.2188(2) 0.96015(12) 0.76141(10)
N16_4 N 0.42188(12) 0.84570(8) 0.91558(7)
C79_4 C 0.40158(13) 0.85887(9) 0.89647(8)
H50_4 H 0.3944 0.8459 0.8816
N17_4 N 0.42149(19) 0.87042(11) 0.93605(11)
N18_4 N 0.4032(2) 0.90023(13) 0.92730(11)
C80_4 C 0.3931(2) 0.89330(12) 0.90186(12)
N19_4 N 0.1830(3) 0.92505(13) 0.73890(11)
N20_4 N 0.2015(3) 0.92718(15) 0.76039(11)
C81_5 C 0.15344(7) 1.00001(7) 0.66549(5)
C82_4 C 0.17086(9) 0.99564(8) 0.68984(6)
C83_4 C 0.15536(10) 0.93010(8) 0.68920(6)
H52_4 H 0.1567 0.9067 0.6970
C84_4 C 0.17117(11) 0.96036(9) 0.70106(6)
C85_4 C 0.46252(7) 0.73930(7) 0.93141(5)
H53_4 H 0.4702 0.7154 0.9359
C86_4 C 0.43745(7) 0.74450(7) 0.91146(5)
C87_4 C 0.47640(8) 0.77019(7) 0.94490(5)
C88_4 C 0.42428(9) 0.77950(8) 0.90577(6)
H54_4 H 0.4071 0.7830 0.8924
C89_4 C 0.46358(10) 0.80497(8) 0.93926(6)
H55_4 H 0.4728 0.8255 0.9483
C90_4 C 0.43711(11) 0.80968(8) 0.92028(7)
C91_4 C 0.12105(7) 0.90108(7) 0.65198(5)
C93_4 C 0.13666(7) 0.96951(7) 0.65403(5)
H56_4 H 0.1246 0.9724 0.6381
C94_4 C 0.13740(7) 0.93451(7) 0.66569(5)
C95_4 C 0.42402(7) 0.71112(7) 0.89629(5)
C96_4 C 0.50606(8) 0.76418(7) 0.96578(4)
O24_4 O 0.10439(5) 0.90817(4) 0.63110(3)
O26_4 O 0.12560(5) 0.87066(5) 0.66279(3)
O27_2 O 0.43140(5) 0.67973(4) 0.90553(3)
O28_2 O 0.40515(5) 0.71716(4) 0.87622(3)
O29_2 O 0.50974(5) 0.73155(5) 0.97299(3)
O30_2 O 0.52167(5) 0.79292(5) 0.97344(4)
Zn9_3 Zn 0.546377(13) 0.716783(11) 1.0000
Zn11_2 Zn 0.083916(9) 0.867242(9) 0.609856(6)
Zn15_2 Zn 0.112107(9) 0.823180(9) 0.646343(6)
Zn20_3 Zn 0.561462(14) 0.789223(12) 1.0000
O33_2 O 0.46005(4) 0.63420(5) 0.86776(3)
O35_2 O 0.39561(5) 0.59183(4) 0.86890(3)
O37_2 O 0.43774(4) 0.67332(5) 0.83833(3)
O39_2 O 0.37440(5) 0.62934(5) 0.83721(3)
O43_3 O 0.26845(5) 0.50974(5) 0.97299(3)
O45_3 O 0.20708(5) 0.52167(5) 0.97344(4)
H57_2 H 0.442877 0.613338 0.936302
H58_2 H 0.380218 0.709677 0.807993
Zn8_2 Zn 0.716783(11) 0.453623(13) -0.0000
Zn19_2 Zn 0.789223(12) 0.438538(14) -0.0000
C17_2 C 0.99024(12) 0.7160(2) 0.82718(12)
C19_2 C 0.95909(14) 0.7360(3) 0.82770(14)
H14_2 H 0.9437 0.7353 0.8422
C20_2 C 0.97486(11) 0.6732(2) 0.86231(11)
C21_2 C 0.94448(14) 0.6623(2) 0.85237(12)
H15_2 H 0.9391 0.6702 0.8355
C23_2 C 0.97033(11) 0.7580(2) 0.78398(11)
C24_2 C 0.94949(14) 0.7584(3) 0.80607(12)
H17_2 H 0.9286 0.7736 0.8070
C25_2 C 0.92180(12) 0.6306(2) 0.88851(12)
C26_2 C 0.91790(13) 0.6390(3) 0.86481(14)
H18_2 H 0.8976 0.6299 0.8555
C27_2 C 0.94821(16) 0.6511(2) 0.90325(13)
H19_2 H 0.9470 0.6527 0.9213
C28_2 C 0.97675(15) 0.6693(2) 0.88851(13)
H20_2 H 0.9973 0.6788 0.8973
N5_2 N 0.95571(8) 0.81126(13) 0.72565(6)
C29_2 C 0.97778(10) 0.79141(13) 0.74020(8)
C30_2 C 0.96015(12) 0.7812(2) 0.76141(10)
N6_2 N 0.84570(8) 0.57812(12) 0.91558(7)
C31_2 C 0.85887(9) 0.59842(13) 0.89647(8)
H22_2 H 0.8459 0.6056 0.8816
N7_2 N 0.87042(11) 0.57851(19) 0.93605(11)
N8_2 N 0.90023(13) 0.5968(2) 0.92730(11)
C32_2 C 0.89330(12) 0.6069(2) 0.90186(12)
N9_2 N 0.92505(13) 0.8170(3) 0.73890(11)
N10_2 N 0.92718(15) 0.7985(3) 0.76039(11)
C33_3 C 1.00001(7) 0.84656(7) 0.66549(5)
C34_2 C 0.99564(8) 0.82914(9) 0.68984(6)
C35_2 C 0.93010(8) 0.84464(10) 0.68920(6)
H24_2 H 0.9067 0.8433 0.6970
C36_2 C 0.96036(9) 0.82883(11) 0.70106(6)
C37_2 C 0.73930(7) 0.53748(7) 0.93141(5)
H25_2 H 0.7154 0.5298 0.9359
C38_2 C 0.74450(7) 0.56255(7) 0.91146(5)
C39_2 C 0.77019(7) 0.52360(8) 0.94490(5)
C40_2 C 0.77950(8) 0.57572(9) 0.90577(6)
H26_2 H 0.7830 0.5929 0.8924
C41_2 C 0.80497(8) 0.53642(10) 0.93926(6)
H27_2 H 0.8255 0.5272 0.9483
C42_2 C 0.80968(8) 0.56289(11) 0.92028(7)
C43_2 C 0.90108(7) 0.87895(7) 0.65198(5)
C45_2 C 0.96951(7) 0.86334(7) 0.65403(5)
H28_2 H 0.9724 0.8754 0.6381
C46_2 C 0.93451(7) 0.86260(7) 0.66569(5)
C47_2 C 0.71112(7) 0.57598(7) 0.89629(5)
C48_2 C 0.76418(7) 0.49394(8) 0.96578(4)
O10_2 O 0.90817(4) 0.89561(5) 0.63110(3)
O12_2 O 0.87066(5) 0.87440(5) 0.66279(3)
O13_2 O 0.67973(4) 0.56860(5) 0.90553(3)
O14_2 O 0.71716(4) 0.59485(5) 0.87622(3)
O15_2 O 0.73155(5) 0.49026(5) 0.97299(3)
O16_2 O 0.79292(5) 0.47833(5) 0.97344(4)
Zn8_3 Zn 0.716783(11) 0.453623(13) 1.0000
Zn10_2 Zn 0.632758(9) 0.583916(9) 0.890144(6)
Zn13_2 Zn 0.867242(9) 0.916084(9) 0.609856(6)
Zn14_2 Zn 0.676820(9) 0.612107(9) 0.853657(6)
Zn17_2 Zn 0.823180(9) 0.887893(9) 0.646343(6)
Zn19_3 Zn 0.789223(12) 0.438538(14) 1.0000
O4_7 O 0.46724(15) 0.34107(8) -0.0000
H3_6 H 0.4648 0.3495 0.0148
O5_7 O 0.42354(10) 0.15375(7) -0.0000
H4_6 H 0.4394 0.1417 0.0078
O31_6 O 0.40373(5) 0.22551(5) 0.02729(3)
O32_6 O 0.41547(5) 0.28637(5) 0.02693(3)
O44_6 O 0.49026(5) 0.26845(5) 0.02701(3)
O46_6 O 0.47833(5) 0.20708(5) 0.02656(4)
O4_8 O 0.46724(15) 0.34107(8) 1.0000
O5_8 O 0.42354(10) 0.15375(7) 1.0000
H29_6 H 0.4648 0.3495 0.9852
H30_6 H 0.4394 0.1417 0.9922
C65_5 C 0.00976(12) 0.2840(2) 0.82718(12)
C67_5 C 0.04091(14) 0.2640(3) 0.82770(14)
H42_5 H 0.0563 0.2647 0.8422
C68_5 C 0.02514(11) 0.3268(2) 0.86231(11)
C69_5 C 0.05552(14) 0.3377(2) 0.85237(12)
H43_5 H 0.0609 0.3298 0.8355
C71_5 C 0.02967(11) 0.2420(2) 0.78398(11)
C72_5 C 0.05051(14) 0.2416(3) 0.80607(12)
H45_5 H 0.0714 0.2264 0.8070
C73_5 C 0.07820(12) 0.3694(2) 0.88851(12)
C74_5 C 0.08210(13) 0.3610(3) 0.86481(14)
H46_5 H 0.1024 0.3701 0.8555
C75_5 C 0.05179(16) 0.3489(2) 0.90325(13)
H47_5 H 0.0530 0.3473 0.9213
C76_5 C 0.02325(15) 0.3307(2) 0.88851(13)
H48_5 H 0.0027 0.3212 0.8973
N15_5 N 0.04429(8) 0.18874(13) 0.72565(6)
C77_5 C 0.02222(10) 0.20859(13) 0.74020(8)
C78_5 C 0.03985(12) 0.2188(2) 0.76141(10)
N16_5 N 0.15430(8) 0.42188(12) 0.91558(7)
C79_5 C 0.14113(9) 0.40158(13) 0.89647(8)
H50_5 H 0.1541 0.3944 0.8816
N17_5 N 0.12958(11) 0.42149(19) 0.93605(11)
N18_5 N 0.09977(13) 0.4032(2) 0.92730(11)
C80_5 C 0.10670(12) 0.3931(2) 0.90186(12)
N19_5 N 0.07495(13) 0.1830(3) 0.73890(11)
N20_5 N 0.07282(15) 0.2015(3) 0.76039(11)
C81_6 C -0.00001(7) 0.15344(7) 0.66549(5)
C82_5 C 0.00436(8) 0.17086(9) 0.68984(6)
C83_5 C 0.06990(8) 0.15536(10) 0.68920(6)
H52_5 H 0.0933 0.1567 0.6970
C84_5 C 0.03964(9) 0.17117(11) 0.70106(6)
C85_5 C 0.26070(7) 0.46252(7) 0.93141(5)
H53_5 H 0.2846 0.4702 0.9359
C86_5 C 0.25550(7) 0.43745(7) 0.91146(5)
C87_5 C 0.22981(7) 0.47640(8) 0.94490(5)
C88_5 C 0.22050(8) 0.42428(9) 0.90577(6)
H54_5 H 0.2170 0.4071 0.8924
C89_5 C 0.19503(8) 0.46358(10) 0.93926(6)
H55_5 H 0.1745 0.4728 0.9483
C90_5 C 0.19032(8) 0.43711(11) 0.92028(7)
C91_5 C 0.09892(7) 0.12105(7) 0.65198(5)
C93_5 C 0.03049(7) 0.13666(7) 0.65403(5)
H56_5 H 0.0276 0.1246 0.6381
C94_5 C 0.06549(7) 0.13740(7) 0.66569(5)
C95_5 C 0.28888(7) 0.42402(7) 0.89629(5)
C96_5 C 0.23582(7) 0.50606(8) 0.96578(4)
O24_5 O 0.09183(4) 0.10439(5) 0.63110(3)
O26_5 O 0.12934(5) 0.12560(5) 0.66279(3)
O43_4 O 0.49026(5) 0.26845(5) 0.97299(3)
O45_4 O 0.47833(5) 0.20708(5) 0.97344(4)
Zn5_4 Zn 0.583916(9) 0.367242(9) 0.890144(6)
Zn6_4 Zn 0.612107(9) 0.323180(9) 0.853657(6)
O17_5 O 0.55825(9) 0.40089(7) 0.91974(5)
H31_5 H 0.5706 0.4199 0.9219
O18_5 O 0.63525(7) 0.28848(7) 0.82397(5)
H32_5 H 0.6566 0.2953 0.8207
O19_5 O 0.77449(5) 0.40373(5) 0.97271(3)
O20_5 O 0.63305(4) 0.36173(5) 0.90666(3)
O21_5 O 0.71363(5) 0.41547(5) 0.97307(3)
O22_5 O 0.65758(5) 0.32706(5) 0.87482(3)
C49_5 C 0.76736(7) 0.35726(9) 0.93001(6)
H33_5 H 0.7910 0.3603 0.9371
C50_5 C 0.73654(7) 0.37434(7) 0.94100(5)
C51_5 C 0.74241(7) 0.40051(7) 0.96408(4)
C52_5 C 0.70110(7) 0.36965(7) 0.93054(5)
H34_5 H 0.6806 0.3809 0.9384
N11_5 N 0.79399(7) 0.31911(11) 0.89542(7)
C53_5 C 0.69658(7) 0.34800(7) 0.90824(5)
C54_5 C 0.65896(6) 0.34556(7) 0.89477(5)
C55_5 C 0.72735(7) 0.33084(9) 0.89679(6)
H35_5 H 0.7246 0.3165 0.8818
C56_5 C 0.76179(8) 0.33553(10) 0.90810(7)
C57_5 C 0.82863(9) 0.33174(13) 0.89490(8)
H36_5 H 0.8377 0.3534 0.9025
N12_5 N 0.79065(9) 0.28541(14) 0.88378(11)
C58_5 C 0.84784(10) 0.30624(17) 0.88094(11)
C59_5 C 0.88701(10) 0.30463(17) 0.87300(11)
N13_5 N 0.82391(10) 0.27801(15) 0.87511(13)
C60_5 C 0.90792(12) 0.33506(19) 0.87445(13)
H37_5 H 0.8976 0.3567 0.8812
C61_5 C 0.90371(12) 0.27200(17) 0.86555(13)
H38_5 H 0.8909 0.2495 0.8660
C62_5 C 0.94039(13) 0.2738(2) 0.85728(15)
H39_5 H 0.9516 0.2519 0.8516
C63_5 C 0.94485(13) 0.3355(2) 0.86607(13)
H40_5 H 0.9584 0.3575 0.8669
C64_5 C 0.96080(11) 0.3052(2) 0.85699(13)
N14_5 N 0.99904(9) 0.30445(17) 0.84915(9)
C66_5 C 0.98919(13) 0.2795(2) 0.80684(12)
H41_5 H 0.9658 0.2907 0.8070
C70_5 C 0.99872(13) 0.25945(19) 0.78459(11)
H44_5 H 0.9827 0.2588 0.7704
H49_5 H 0.9977 0.2146 0.7362
C81_7 C 0.99999(7) 0.15344(7) 0.66549(5)
H51_5 H 0.9842 0.1819 0.6982
C92_5 C 0.96312(7) 0.15413(7) 0.65170(5)
O23_5 O 0.96005(4) 0.13420(5) 0.63224(3)
O25_5 O 0.93774(4) 0.17332(5) 0.66167(3)
Zn12_4 Zn 0.916084(9) 0.132758(9) 0.609856(6)
Zn16_4 Zn 0.887893(9) 0.176820(9) 0.646343(6)
O34_5 O 0.53995(4) 0.36580(5) 0.86776(3)
O36_5 O 0.60439(5) 0.40817(4) 0.86890(3)
O38_5 O 0.56226(4) 0.32668(5) 0.83833(3)
O40_5 O 0.62560(5) 0.37066(5) 0.83721(3)
O41_4 O 0.56860(5) 0.32027(4) 0.90553(3)
O42_4 O 0.59485(5) 0.28284(4) 0.87622(3)
H59_5 H 0.557123 0.386662 0.936302
H60_5 H 0.619782 0.290323 0.807993
O4_9 O 0.65893(8) 0.46724(15) -0.0000
H3_7 H 0.6505 0.4648 0.0148
O5_9 O 0.84625(7) 0.42354(10) -0.0000
H4_7 H 0.8583 0.4394 0.0078
O31_7 O 0.77449(5) 0.40373(5) 0.02729(3)
O32_7 O 0.71363(5) 0.41547(5) 0.02693(3)
O44_7 O 0.73155(5) 0.49026(5) 0.02701(3)
O46_7 O 0.79292(5) 0.47833(5) 0.02656(4)
O4_10 O 0.65893(8) 0.46724(15) 1.0000
O5_10 O 0.84625(7) 0.42354(10) 1.0000
H29_7 H 0.6505 0.4648 0.9852
H30_7 H 0.8583 0.4394 0.9922
C65_6 C 0.7160(2) 0.00976(12) 0.82718(12)
C67_6 C 0.7360(3) 0.04091(14) 0.82770(14)
H42_6 H 0.7353 0.0563 0.8422
C68_6 C 0.6732(2) 0.02514(11) 0.86231(11)
C69_6 C 0.6623(2) 0.05552(14) 0.85237(12)
H43_6 H 0.6702 0.0609 0.8355
C71_6 C 0.7580(2) 0.02967(11) 0.78398(11)
C72_6 C 0.7584(3) 0.05051(14) 0.80607(12)
H45_6 H 0.7736 0.0714 0.8070
C73_6 C 0.6306(2) 0.07820(12) 0.88851(12)
C74_6 C 0.6390(3) 0.08210(13) 0.86481(14)
H46_6 H 0.6299 0.1024 0.8555
C75_6 C 0.6511(2) 0.05179(16) 0.90325(13)
H47_6 H 0.6527 0.0530 0.9213
C76_6 C 0.6693(2) 0.02325(15) 0.88851(13)
H48_6 H 0.6788 0.0027 0.8973
N15_6 N 0.81126(13) 0.04429(8) 0.72565(6)
C77_6 C 0.79141(13) 0.02222(10) 0.74020(8)
C78_6 C 0.7812(2) 0.03985(12) 0.76141(10)
N16_6 N 0.57812(12) 0.15430(8) 0.91558(7)
C79_6 C 0.59842(13) 0.14113(9) 0.89647(8)
H50_6 H 0.6056 0.1541 0.8816
N17_6 N 0.57851(19) 0.12958(11) 0.93605(11)
N18_6 N 0.5968(2) 0.09977(13) 0.92730(11)
C80_6 C 0.6069(2) 0.10670(12) 0.90186(12)
N19_6 N 0.8170(3) 0.07495(13) 0.73890(11)
N20_6 N 0.7985(3) 0.07282(15) 0.76039(11)
C81_8 C 0.84656(7) -0.00001(7) 0.66549(5)
C82_6 C 0.82914(9) 0.00436(8) 0.68984(6)
C83_6 C 0.84464(10) 0.06990(8) 0.68920(6)
H52_6 H 0.8433 0.0933 0.6970
C84_6 C 0.82883(11) 0.03964(9) 0.70106(6)
C85_6 C 0.53748(7) 0.26070(7) 0.93141(5)
H53_6 H 0.5298 0.2846 0.9359
C86_6 C 0.56255(7) 0.25550(7) 0.91146(5)
C87_6 C 0.52360(8) 0.22981(7) 0.94490(5)
C88_6 C 0.57572(9) 0.22050(8) 0.90577(6)
H54_6 H 0.5929 0.2170 0.8924
C89_6 C 0.53642(10) 0.19503(8) 0.93926(6)
H55_6 H 0.5272 0.1745 0.9483
C90_6 C 0.56289(11) 0.19032(8) 0.92028(7)
C91_6 C 0.87895(7) 0.09892(7) 0.65198(5)
C93_6 C 0.86334(7) 0.03049(7) 0.65403(5)
H56_6 H 0.8754 0.0276 0.6381
C94_6 C 0.86260(7) 0.06549(7) 0.66569(5)
C95_6 C 0.57598(7) 0.28888(7) 0.89629(5)
C96_6 C 0.49394(8) 0.23582(7) 0.96578(4)
O24_6 O 0.89561(5) 0.09183(4) 0.63110(3)
O26_6 O 0.87440(5) 0.12934(5) 0.66279(3)
O17_6 O 0.59911(7) 0.55825(9) 0.91974(5)
H31_6 H 0.5801 0.5706 0.9219
O18_6 O 0.71152(7) 0.63525(7) 0.82397(5)
H32_6 H 0.7047 0.6566 0.8207
O19_6 O 0.59627(5) 0.77449(5) 0.97271(3)
O20_6 O 0.63827(5) 0.63305(4) 0.90666(3)
O21_6 O 0.58453(5) 0.71363(5) 0.97307(3)
O22_6 O 0.67294(5) 0.65758(5) 0.87482(3)
C49_6 C 0.64274(9) 0.76736(7) 0.93001(6)
H33_6 H 0.6397 0.7910 0.9371
C50_6 C 0.62566(7) 0.73654(7) 0.94100(5)
C51_6 C 0.59949(7) 0.74241(7) 0.96408(4)
C52_6 C 0.63035(7) 0.70110(7) 0.93054(5)
H34_6 H 0.6191 0.6806 0.9384
N11_6 N 0.68089(11) 0.79399(7) 0.89542(7)
C53_6 C 0.65200(7) 0.69658(7) 0.90824(5)
C54_6 C 0.65444(7) 0.65896(6) 0.89477(5)
C55_6 C 0.66916(9) 0.72735(7) 0.89679(6)
H35_6 H 0.6835 0.7246 0.8818
C56_6 C 0.66447(10) 0.76179(8) 0.90810(7)
C57_6 C 0.66826(13) 0.82863(9) 0.89490(8)
H36_6 H 0.6466 0.8377 0.9025
N12_6 N 0.71459(14) 0.79065(9) 0.88378(11)
C58_6 C 0.69376(17) 0.84784(10) 0.88094(11)
C59_6 C 0.69537(17) 0.88701(10) 0.87300(11)
N13_6 N 0.72199(15) 0.82391(10) 0.87511(13)
C60_6 C 0.66494(19) 0.90792(12) 0.87445(13)
H37_6 H 0.6433 0.8976 0.8812
C61_6 C 0.72800(17) 0.90371(12) 0.86555(13)
H38_6 H 0.7505 0.8909 0.8660
C62_6 C 0.7262(2) 0.94039(13) 0.85728(15)
H39_6 H 0.7481 0.9516 0.8516
C63_6 C 0.6645(2) 0.94485(13) 0.86607(13)
H40_6 H 0.6425 0.9584 0.8669
C64_6 C 0.6948(2) 0.96080(11) 0.85699(13)
N14_6 N 0.69555(17) 0.99904(9) 0.84915(9)
C66_6 C 0.7205(2) 0.98919(13) 0.80684(12)
H41_6 H 0.7093 0.9658 0.8070
C70_6 C 0.74055(19) 0.99872(13) 0.78459(11)
H44_6 H 0.7412 0.9827 0.7704
H49_6 H 0.7854 0.9977 0.7362
C81_9 C 0.84656(7) 0.99999(7) 0.66549(5)
H51_6 H 0.8181 0.9842 0.6982
C92_6 C 0.84587(7) 0.96312(7) 0.65170(5)
O23_6 O 0.86580(5) 0.96005(4) 0.63224(3)
O25_6 O 0.82668(5) 0.93774(4) 0.66167(3)
O34_6 O 0.63420(5) 0.53995(4) 0.86776(3)
O36_6 O 0.59183(4) 0.60439(5) 0.86890(3)
O38_6 O 0.67332(5) 0.56226(4) 0.83833(3)
O40_6 O 0.62934(5) 0.62560(5) 0.83721(3)
H59_6 H 0.613338 0.557123 0.936302
H60_6 H 0.709677 0.619782 0.807993
O4_11 O 0.53276(15) 0.65893(8) -0.0000
H3_8 H 0.5352 0.6505 0.0148
O5_11 O 0.57646(10) 0.84625(7) -0.0000
H4_8 H 0.5606 0.8583 0.0078
O31_8 O 0.59627(5) 0.77449(5) 0.02729(3)
O32_8 O 0.58453(5) 0.71363(5) 0.02693(3)
O44_8 O 0.50974(5) 0.73155(5) 0.02701(3)
O46_8 O 0.52167(5) 0.79292(5) 0.02656(4)
O4_12 O 0.53276(15) 0.65893(8) 1.0000
O5_12 O 0.57646(10) 0.84625(7) 1.0000
H29_8 H 0.5352 0.6505 0.9852
H30_8 H 0.5606 0.8583 0.9922
C48_3 C 0.73582(7) 0.00606(8) 0.53422(4)
O1_3 O 0.05825(9) 0.90089(7) 0.58026(5)
H1_3 H 0.0706 0.9199 0.5781
O2_3 O 0.13525(7) 0.78848(7) 0.67603(5)
H2_3 H 0.1566 0.7953 0.6793
O6_3 O 0.13305(4) 0.86173(5) 0.59334(3)
O8_3 O 0.15758(5) 0.82706(5) 0.62518(3)
C1_3 C 0.26736(7) 0.85726(9) 0.56999(6)
H5_3 H 0.2910 0.8603 0.5629
C2_3 C 0.23654(7) 0.87434(7) 0.55900(5)
C3_3 C 0.24241(7) 0.90051(7) 0.53592(4)
C4_3 C 0.20110(7) 0.86965(7) 0.56946(5)
H6_3 H 0.1806 0.8809 0.5616
N1_3 N 0.29399(7) 0.81911(11) 0.60458(7)
C5_3 C 0.19658(7) 0.84800(7) 0.59176(5)
C6_3 C 0.15896(6) 0.84556(7) 0.60523(5)
C7_3 C 0.22735(7) 0.83084(9) 0.60321(6)
H7_3 H 0.2246 0.8165 0.6182
C8_3 C 0.26179(8) 0.83553(10) 0.59190(7)
C9_3 C 0.32863(9) 0.83174(13) 0.60510(8)
H8_3 H 0.3377 0.8534 0.5975
N2_3 N 0.29065(9) 0.78541(14) 0.61622(11)
C10_3 C 0.34784(10) 0.80624(17) 0.61906(11)
C11_3 C 0.38701(10) 0.80463(17) 0.62700(11)
N3_3 N 0.32391(10) 0.77801(15) 0.62489(13)
C12_3 C 0.40792(12) 0.83506(19) 0.62555(13)
H9_3 H 0.3976 0.8567 0.6188
C13_3 C 0.40371(12) 0.77200(17) 0.63445(13)
H10_3 H 0.3909 0.7495 0.6340
C14_3 C 0.44039(13) 0.7738(2) 0.64272(15)
H11_3 H 0.4516 0.7519 0.6484
C15_3 C 0.44485(13) 0.8355(2) 0.63393(13)
H12_3 H 0.4584 0.8575 0.6331
C16_3 C 0.46080(11) 0.8052(2) 0.64301(13)
N4_3 N 0.49904(9) 0.80445(17) 0.65085(9)
C17_3 C 0.50976(12) 0.7840(2) 0.67282(12)
C18_3 C 0.48919(13) 0.7795(2) 0.69316(12)
H13_3 H 0.4658 0.7907 0.6930
C19_3 C 0.54091(14) 0.7640(3) 0.67230(14)
H14_3 H 0.5563 0.7647 0.6578
C20_3 C 0.52514(11) 0.8268(2) 0.63769(11)
C21_3 C 0.55552(14) 0.8377(2) 0.64763(12)
H15_3 H 0.5609 0.8298 0.6645
C22_3 C 0.49872(13) 0.75945(19) 0.71541(11)
H16_3 H 0.4827 0.7588 0.7296
C23_3 C 0.52967(11) 0.7420(2) 0.71602(11)
C24_3 C 0.55051(14) 0.7416(3) 0.69393(12)
H17_3 H 0.5714 0.7264 0.6930
C25_3 C 0.57820(12) 0.8694(2) 0.61149(12)
C26_3 C 0.58210(13) 0.8610(3) 0.63519(14)
H18_3 H 0.6024 0.8701 0.6445
C27_3 C 0.55179(16) 0.8489(2) 0.59675(13)
H19_3 H 0.5530 0.8473 0.5787
C28_3 C 0.52325(15) 0.8307(2) 0.61149(13)
H20_3 H 0.5027 0.8212 0.6027
N5_3 N 0.54429(8) 0.68874(13) 0.77435(6)
C29_3 C 0.52222(10) 0.70859(13) 0.75980(8)
H21_3 H 0.4977 0.7146 0.7638
C30_3 C 0.53985(12) 0.7188(2) 0.73859(10)
N6_3 N 0.65430(8) 0.92188(12) 0.58442(7)
C31_3 C 0.64113(9) 0.90158(13) 0.60353(8)
H22_3 H 0.6541 0.8944 0.6184
N7_3 N 0.62958(11) 0.92149(19) 0.56395(11)
N8_3 N 0.59977(13) 0.9032(2) 0.57270(11)
C32_3 C 0.60670(12) 0.8931(2) 0.59814(12)
N9_3 N 0.57495(13) 0.6830(3) 0.76110(11)
N10_3 N 0.57282(15) 0.7015(3) 0.73961(11)
C33_4 C 0.49999(7) 0.65344(7) 0.83451(5)
C34_3 C 0.50436(8) 0.67086(9) 0.81016(6)
H23_3 H 0.4842 0.6819 0.8018
C35_3 C 0.56990(8) 0.65536(10) 0.81080(6)
H24_3 H 0.5933 0.6567 0.8030
C36_3 C 0.53964(9) 0.67117(11) 0.79894(6)
C37_3 C 0.76070(7) 0.96252(7) 0.56859(5)
H25_3 H 0.7846 0.9702 0.5641
C38_3 C 0.75550(7) 0.93745(7) 0.58854(5)
C39_3 C 0.72981(7) 0.97640(8) 0.55510(5)
C40_3 C 0.72050(8) 0.92428(9) 0.59423(6)
H26_3 H 0.7170 0.9071 0.6076
C41_3 C 0.69503(8) 0.96358(10) 0.56074(6)
H27_3 H 0.6745 0.9728 0.5517
C42_3 C 0.69032(8) 0.93711(11) 0.57972(7)
C43_3 C 0.59892(7) 0.62105(7) 0.84802(5)
C44_3 C 0.46312(7) 0.65413(7) 0.84830(5)
C45_3 C 0.53049(7) 0.63666(7) 0.84597(5)
H28_3 H 0.5276 0.6246 0.8619
C46_3 C 0.56549(7) 0.63740(7) 0.83431(5)
C47_3 C 0.78888(7) 0.92402(7) 0.60371(5)
O13_3 O 0.82027(4) 0.93140(5) 0.59447(3)
O14_3 O 0.78284(4) 0.90515(5) 0.62378(3)
O17_7 O 0.09911(7) 0.05825(9) 0.58026(5)
H31_7 H 0.0801 0.0706 0.5781
O18_7 O 0.21152(7) 0.13525(7) 0.67603(5)
H32_7 H 0.2047 0.1566 0.6793
O20_7 O 0.13827(5) 0.13305(4) 0.59334(3)
O22_7 O 0.17294(5) 0.15758(5) 0.62518(3)
C49_7 C 0.14274(9) 0.26736(7) 0.56999(6)
H33_7 H 0.1397 0.2910 0.5629
C50_7 C 0.12566(7) 0.23654(7) 0.55900(5)
C51_7 C 0.09949(7) 0.24241(7) 0.53592(4)
C52_7 C 0.13035(7) 0.20110(7) 0.56946(5)
H34_7 H 0.1191 0.1806 0.5616
N11_7 N 0.18089(11) 0.29399(7) 0.60458(7)
C53_7 C 0.15200(7) 0.19658(7) 0.59176(5)
C54_7 C 0.15444(7) 0.15896(6) 0.60523(5)
C55_7 C 0.16916(9) 0.22735(7) 0.60321(6)
H35_7 H 0.1835 0.2246 0.6182
C56_7 C 0.16447(10) 0.26179(8) 0.59190(7)
C57_7 C 0.16826(13) 0.32863(9) 0.60510(8)
H36_7 H 0.1466 0.3377 0.5975
N12_7 N 0.21459(14) 0.29065(9) 0.61622(11)
C58_7 C 0.19376(17) 0.34784(10) 0.61906(11)
C59_7 C 0.19537(17) 0.38701(10) 0.62700(11)
N13_7 N 0.22199(15) 0.32391(10) 0.62489(13)
C60_7 C 0.16494(19) 0.40792(12) 0.62555(13)
H37_7 H 0.1433 0.3976 0.6188
C61_7 C 0.22800(17) 0.40371(12) 0.63445(13)
H38_7 H 0.2505 0.3909 0.6340
C62_7 C 0.2262(2) 0.44039(13) 0.64272(15)
H39_7 H 0.2481 0.4516 0.6484
C63_7 C 0.1645(2) 0.44485(13) 0.63393(13)
H40_7 H 0.1425 0.4584 0.6331
C64_7 C 0.1948(2) 0.46080(11) 0.64301(13)
N14_7 N 0.19555(17) 0.49904(9) 0.65085(9)
C65_7 C 0.2160(2) 0.50976(12) 0.67282(12)
C66_7 C 0.2205(2) 0.48919(13) 0.69316(12)
H41_7 H 0.2093 0.4658 0.6930
C67_7 C 0.2360(3) 0.54091(14) 0.67230(14)
H42_7 H 0.2353 0.5563 0.6578
C68_7 C 0.1732(2) 0.52514(11) 0.63769(11)
C69_7 C 0.1623(2) 0.55552(14) 0.64763(12)
H43_7 H 0.1702 0.5609 0.6645
C70_7 C 0.24055(19) 0.49872(13) 0.71541(11)
H44_7 H 0.2412 0.4827 0.7296
C71_7 C 0.2580(2) 0.52967(11) 0.71602(11)
C72_7 C 0.2584(3) 0.55051(14) 0.69393(12)
H45_7 H 0.2736 0.5714 0.6930
C73_7 C 0.1306(2) 0.57820(12) 0.61149(12)
C74_7 C 0.1390(3) 0.58210(13) 0.63519(14)
H46_7 H 0.1299 0.6024 0.6445
C75_7 C 0.1511(2) 0.55179(16) 0.59675(13)
H47_7 H 0.1527 0.5530 0.5787
C76_7 C 0.1693(2) 0.52325(15) 0.61149(13)
H48_7 H 0.1788 0.5027 0.6027
N15_7 N 0.31126(13) 0.54429(8) 0.77435(6)
C77_7 C 0.29141(13) 0.52222(10) 0.75980(8)
H49_7 H 0.2854 0.4977 0.7638
C78_7 C 0.2812(2) 0.53985(12) 0.73859(10)
N16_7 N 0.07812(12) 0.65430(8) 0.58442(7)
C79_7 C 0.09842(13) 0.64113(9) 0.60353(8)
H50_7 H 0.1056 0.6541 0.6184
N17_7 N 0.07851(19) 0.62958(11) 0.56395(11)
N18_7 N 0.0968(2) 0.59977(13) 0.57270(11)
C80_7 C 0.1069(2) 0.60670(12) 0.59814(12)
N19_7 N 0.3170(3) 0.57495(13) 0.76110(11)
N20_7 N 0.2985(3) 0.57282(15) 0.73961(11)
C81_10 C 0.34656(7) 0.49999(7) 0.83451(5)
C82_7 C 0.32914(9) 0.50436(8) 0.81016(6)
H51_7 H 0.3181 0.4842 0.8018
C83_7 C 0.34464(10) 0.56990(8) 0.81080(6)
H52_7 H 0.3433 0.5933 0.8030
C84_7 C 0.32883(11) 0.53964(9) 0.79894(6)
C85_7 C 0.03748(7) 0.76070(7) 0.56859(5)
H53_7 H 0.0298 0.7846 0.5641
C86_7 C 0.06255(7) 0.75550(7) 0.58854(5)
C87_7 C 0.02360(8) 0.72981(7) 0.55510(5)
C88_7 C 0.07572(9) 0.72050(8) 0.59423(6)
H54_7 H 0.0929 0.7170 0.6076
C89_7 C 0.03642(10) 0.69503(8) 0.56074(6)
H55_7 H 0.0272 0.6745 0.5517
C90_7 C 0.06289(11) 0.69032(8) 0.57972(7)
C91_7 C 0.37895(7) 0.59892(7) 0.84802(5)
C92_7 C 0.34587(7) 0.46312(7) 0.84830(5)
C93_7 C 0.36334(7) 0.53049(7) 0.84597(5)
H56_7 H 0.3754 0.5276 0.8619
C94_7 C 0.36260(7) 0.56549(7) 0.83431(5)
C95_7 C 0.07598(7) 0.78888(7) 0.60371(5)
O27_3 O 0.06860(5) 0.82027(4) 0.59447(3)
O28_3 O 0.09485(5) 0.78284(4) 0.62378(3)
O41_5 O 0.17973(4) 0.06860(5) 0.59447(3)
O42_5 O 0.21716(4) 0.09485(5) 0.62378(3)
H57_3 H 0.0571229 0.886662 0.563698
H58_3 H 0.119782 0.790323 0.692007
H59_7 H 0.113338 0.0571229 0.563698
H60_7 H 0.209677 0.119782 0.692007
C96_7 C 0.99394(8) 0.73582(7) 0.53422(4)
O17_8 O 0.94175(9) 0.09911(7) 0.58026(5)
H31_8 H 0.9294 0.0801 0.5781
O18_8 O 0.86475(7) 0.21152(7) 0.67603(5)
H32_8 H 0.8434 0.2047 0.6793
O20_8 O 0.86695(4) 0.13827(5) 0.59334(3)
O22_8 O 0.84242(5) 0.17294(5) 0.62518(3)
C49_8 C 0.73264(7) 0.14274(9) 0.56999(6)
H33_8 H 0.7090 0.1397 0.5629
C50_8 C 0.76346(7) 0.12566(7) 0.55900(5)
C51_8 C 0.75759(7) 0.09949(7) 0.53592(4)
C52_8 C 0.79890(7) 0.13035(7) 0.56946(5)
H34_8 H 0.8194 0.1191 0.5616
N11_8 N 0.70601(7) 0.18089(11) 0.60458(7)
C53_8 C 0.80342(7) 0.15200(7) 0.59176(5)
C54_8 C 0.84104(6) 0.15444(7) 0.60523(5)
C55_8 C 0.77265(7) 0.16916(9) 0.60321(6)
H35_8 H 0.7754 0.1835 0.6182
C56_8 C 0.73821(8) 0.16447(10) 0.59190(7)
C57_8 C 0.67137(9) 0.16826(13) 0.60510(8)
H36_8 H 0.6623 0.1466 0.5975
N12_8 N 0.70935(9) 0.21459(14) 0.61622(11)
C58_8 C 0.65216(10) 0.19376(17) 0.61906(11)
C59_8 C 0.61299(10) 0.19537(17) 0.62700(11)
N13_8 N 0.67609(10) 0.22199(15) 0.62489(13)
C60_8 C 0.59208(12) 0.16494(19) 0.62555(13)
H37_8 H 0.6024 0.1433 0.6188
C61_8 C 0.59629(12) 0.22800(17) 0.63445(13)
H38_8 H 0.6091 0.2505 0.6340
C62_8 C 0.55961(13) 0.2262(2) 0.64272(15)
H39_8 H 0.5484 0.2481 0.6484
C63_8 C 0.55515(13) 0.1645(2) 0.63393(13)
H40_8 H 0.5416 0.1425 0.6331
C64_8 C 0.53920(11) 0.1948(2) 0.64301(13)
N14_8 N 0.50096(9) 0.19555(17) 0.65085(9)
C65_8 C 0.49024(12) 0.2160(2) 0.67282(12)
C66_8 C 0.51081(13) 0.2205(2) 0.69316(12)
H41_8 H 0.5342 0.2093 0.6930
C67_8 C 0.45909(14) 0.2360(3) 0.67230(14)
H42_8 H 0.4437 0.2353 0.6578
C68_8 C 0.47486(11) 0.1732(2) 0.63769(11)
C69_8 C 0.44448(14) 0.1623(2) 0.64763(12)
H43_8 H 0.4391 0.1702 0.6645
C70_8 C 0.50128(13) 0.24055(19) 0.71541(11)
H44_8 H 0.5173 0.2412 0.7296
C71_8 C 0.47033(11) 0.2580(2) 0.71602(11)
C72_8 C 0.44949(14) 0.2584(3) 0.69393(12)
H45_8 H 0.4286 0.2736 0.6930
C73_8 C 0.42180(12) 0.1306(2) 0.61149(12)
C74_8 C 0.41790(13) 0.1390(3) 0.63519(14)
H46_8 H 0.3976 0.1299 0.6445
C75_8 C 0.44821(16) 0.1511(2) 0.59675(13)
H47_8 H 0.4470 0.1527 0.5787
C76_8 C 0.47675(15) 0.1693(2) 0.61149(13)
H48_8 H 0.4973 0.1788 0.6027
N15_8 N 0.45571(8) 0.31126(13) 0.77435(6)
C77_8 C 0.47778(10) 0.29141(13) 0.75980(8)
H49_8 H 0.5023 0.2854 0.7638
C78_8 C 0.46015(12) 0.2812(2) 0.73859(10)
N16_8 N 0.34570(8) 0.07812(12) 0.58442(7)
C79_8 C 0.35887(9) 0.09842(13) 0.60353(8)
H50_8 H 0.3459 0.1056 0.6184
N17_8 N 0.37042(11) 0.07851(19) 0.56395(11)
N18_8 N 0.40023(13) 0.0968(2) 0.57270(11)
C80_8 C 0.39330(12) 0.1069(2) 0.59814(12)
N19_8 N 0.42505(13) 0.3170(3) 0.76110(11)
N20_8 N 0.42718(15) 0.2985(3) 0.73961(11)
C81_11 C 0.50001(7) 0.34656(7) 0.83451(5)
C82_8 C 0.49564(8) 0.32914(9) 0.81016(6)
H51_8 H 0.5158 0.3181 0.8018
C83_8 C 0.43010(8) 0.34464(10) 0.81080(6)
H52_8 H 0.4067 0.3433 0.8030
C84_8 C 0.46036(9) 0.32883(11) 0.79894(6)
C85_8 C 0.23930(7) 0.03748(7) 0.56859(5)
H53_8 H 0.2154 0.0298 0.5641
C86_8 C 0.24450(7) 0.06255(7) 0.58854(5)
C87_8 C 0.27019(7) 0.02360(8) 0.55510(5)
C88_8 C 0.27950(8) 0.07572(9) 0.59423(6)
H54_8 H 0.2830 0.0929 0.6076
C89_8 C 0.30497(8) 0.03642(10) 0.56074(6)
H55_8 H 0.3255 0.0272 0.5517
C90_8 C 0.30968(8) 0.06289(11) 0.57972(7)
C91_8 C 0.40108(7) 0.37895(7) 0.84802(5)
C92_8 C 0.53688(7) 0.34587(7) 0.84830(5)
C93_8 C 0.46951(7) 0.36334(7) 0.84597(5)
H56_8 H 0.4724 0.3754 0.8619
C94_8 C 0.43451(7) 0.36260(7) 0.83431(5)
C95_8 C 0.21112(7) 0.07598(7) 0.60371(5)
O41_6 O 0.93140(5) 0.17973(4) 0.59447(3)
O42_6 O 0.90515(5) 0.21716(4) 0.62378(3)
H59_8 H 0.942877 0.113338 0.563698
H60_8 H 0.880218 0.209677 0.692007
C96_8 C 0.26418(7) 0.99394(8) 0.53422(4)
C96_9 C 0.00606(8) 0.26418(7) 0.53422(4)
O17_9 O 0.90089(7) 0.94175(9) 0.58026(5)
H31_9 H 0.9199 0.9294 0.5781
O18_9 O 0.78848(7) 0.86475(7) 0.67603(5)
H32_9 H 0.7953 0.8434 0.6793
O20_9 O 0.86173(5) 0.86695(4) 0.59334(3)
O22_9 O 0.82706(5) 0.84242(5) 0.62518(3)
C49_9 C 0.85726(9) 0.73264(7) 0.56999(6)
H33_9 H 0.8603 0.7090 0.5629
C50_9 C 0.87434(7) 0.76346(7) 0.55900(5)
C51_9 C 0.90051(7) 0.75759(7) 0.53592(4)
C52_9 C 0.86965(7) 0.79890(7) 0.56946(5)
H34_9 H 0.8809 0.8194 0.5616
N11_9 N 0.81911(11) 0.70601(7) 0.60458(7)
C53_9 C 0.84800(7) 0.80342(7) 0.59176(5)
C54_9 C 0.84556(7) 0.84104(6) 0.60523(5)
C55_9 C 0.83084(9) 0.77265(7) 0.60321(6)
H35_9 H 0.8165 0.7754 0.6182
C56_9 C 0.83553(10) 0.73821(8) 0.59190(7)
C57_9 C 0.83174(13) 0.67137(9) 0.60510(8)
H36_9 H 0.8534 0.6623 0.5975
N12_9 N 0.78541(14) 0.70935(9) 0.61622(11)
C58_9 C 0.80624(17) 0.65216(10) 0.61906(11)
C59_9 C 0.80463(17) 0.61299(10) 0.62700(11)
N13_9 N 0.77801(15) 0.67609(10) 0.62489(13)
C60_9 C 0.83506(19) 0.59208(12) 0.62555(13)
H37_9 H 0.8567 0.6024 0.6188
C61_9 C 0.77200(17) 0.59629(12) 0.63445(13)
H38_9 H 0.7495 0.6091 0.6340
C62_9 C 0.7738(2) 0.55961(13) 0.64272(15)
H39_9 H 0.7519 0.5484 0.6484
C63_9 C 0.8355(2) 0.55515(13) 0.63393(13)
H40_9 H 0.8575 0.5416 0.6331
C64_9 C 0.8052(2) 0.53920(11) 0.64301(13)
N14_9 N 0.80445(17) 0.50096(9) 0.65085(9)
C65_9 C 0.7840(2) 0.49024(12) 0.67282(12)
C66_9 C 0.7795(2) 0.51081(13) 0.69316(12)
H41_9 H 0.7907 0.5342 0.6930
C67_9 C 0.7640(3) 0.45909(14) 0.67230(14)
H42_9 H 0.7647 0.4437 0.6578
C68_9 C 0.8268(2) 0.47486(11) 0.63769(11)
C69_9 C 0.8377(2) 0.44448(14) 0.64763(12)
H43_9 H 0.8298 0.4391 0.6645
C70_9 C 0.75945(19) 0.50128(13) 0.71541(11)
H44_9 H 0.7588 0.5173 0.7296
C71_9 C 0.7420(2) 0.47033(11) 0.71602(11)
C72_9 C 0.7416(3) 0.44949(14) 0.69393(12)
H45_9 H 0.7264 0.4286 0.6930
C73_9 C 0.8694(2) 0.42180(12) 0.61149(12)
C74_9 C 0.8610(3) 0.41790(13) 0.63519(14)
H46_9 H 0.8701 0.3976 0.6445
C75_9 C 0.8489(2) 0.44821(16) 0.59675(13)
H47_9 H 0.8473 0.4470 0.5787
C76_9 C 0.8307(2) 0.47675(15) 0.61149(13)
H48_9 H 0.8212 0.4973 0.6027
N15_9 N 0.68874(13) 0.45571(8) 0.77435(6)
C77_9 C 0.70859(13) 0.47778(10) 0.75980(8)
H49_9 H 0.7146 0.5023 0.7638
C78_9 C 0.7188(2) 0.46015(12) 0.73859(10)
N16_9 N 0.92188(12) 0.34570(8) 0.58442(7)
C79_9 C 0.90158(13) 0.35887(9) 0.60353(8)
H50_9 H 0.8944 0.3459 0.6184
N17_9 N 0.92149(19) 0.37042(11) 0.56395(11)
N18_9 N 0.9032(2) 0.40023(13) 0.57270(11)
C80_9 C 0.8931(2) 0.39330(12) 0.59814(12)
N19_9 N 0.6830(3) 0.42505(13) 0.76110(11)
N20_9 N 0.7015(3) 0.42718(15) 0.73961(11)
C81_12 C 0.65344(7) 0.50001(7) 0.83451(5)
C82_9 C 0.67086(9) 0.49564(8) 0.81016(6)
H51_9 H 0.6819 0.5158 0.8018
C83_9 C 0.65536(10) 0.43010(8) 0.81080(6)
H52_9 H 0.6567 0.4067 0.8030
C84_9 C 0.67117(11) 0.46036(9) 0.79894(6)
C85_9 C 0.96252(7) 0.23930(7) 0.56859(5)
H53_9 H 0.9702 0.2154 0.5641
C86_9 C 0.93745(7) 0.24450(7) 0.58854(5)
C87_9 C 0.97640(8) 0.27019(7) 0.55510(5)
C88_9 C 0.92428(9) 0.27950(8) 0.59423(6)
H54_9 H 0.9071 0.2830 0.6076
C89_9 C 0.96358(10) 0.30497(8) 0.56074(6)
H55_9 H 0.9728 0.3255 0.5517
C90_9 C 0.93711(11) 0.30968(8) 0.57972(7)
C91_9 C 0.62105(7) 0.40108(7) 0.84802(5)
C92_9 C 0.65413(7) 0.53688(7) 0.84830(5)
C93_9 C 0.63666(7) 0.46951(7) 0.84597(5)
H56_9 H 0.6246 0.4724 0.8619
C94_9 C 0.63740(7) 0.43451(7) 0.83431(5)
C95_9 C 0.92402(7) 0.21112(7) 0.60371(5)
H59_9 H 0.886662 0.942877 0.563698
H60_9 H 0.790323 0.880218 0.692007
C17_4 C 0.00976(12) 0.2840(2) 0.17282(12)
C19_4 C 0.04091(14) 0.2640(3) 0.17230(14)
H14_4 H 0.0563 0.2647 0.1578
C20_4 C 0.02514(11) 0.3268(2) 0.13769(11)
C21_4 C 0.05552(14) 0.3377(2) 0.14763(12)
H15_4 H 0.0609 0.3298 0.1645
C23_4 C 0.02967(11) 0.2420(2) 0.21602(11)
C24_4 C 0.05051(14) 0.2416(3) 0.19393(12)
H17_4 H 0.0714 0.2264 0.1930
C25_4 C 0.07820(12) 0.3694(2) 0.11149(12)
C26_4 C 0.08210(13) 0.3610(3) 0.13519(14)
H18_4 H 0.1024 0.3701 0.1445
C27_4 C 0.05179(16) 0.3489(2) 0.09675(13)
H19_4 H 0.0530 0.3473 0.0787
C28_4 C 0.02325(15) 0.3307(2) 0.11149(13)
H20_4 H 0.0027 0.3212 0.1027
N5_4 N 0.04429(8) 0.18874(13) 0.27435(6)
C29_4 C 0.02222(10) 0.20859(13) 0.25980(8)
C30_4 C 0.03985(12) 0.2188(2) 0.23859(10)
N6_4 N 0.15430(8) 0.42188(12) 0.08442(7)
C31_4 C 0.14113(9) 0.40158(13) 0.10353(8)
H22_4 H 0.1541 0.3944 0.1184
N7_4 N 0.12958(11) 0.42149(19) 0.06395(11)
N8_4 N 0.09977(13) 0.4032(2) 0.07270(11)
C32_4 C 0.10670(12) 0.3931(2) 0.09814(12)
N9_4 N 0.07495(13) 0.1830(3) 0.26110(11)
N10_4 N 0.07282(15) 0.2015(3) 0.23961(11)
C33_5 C -0.00001(7) 0.15344(7) 0.33451(5)
C34_4 C 0.00436(8) 0.17086(9) 0.31016(6)
C35_4 C 0.06990(8) 0.15536(10) 0.31080(6)
H24_4 H 0.0933 0.1567 0.3030
C36_4 C 0.03964(9) 0.17117(11) 0.29894(6)
C37_4 C 0.26070(7) 0.46252(7) 0.06859(5)
H25_4 H 0.2846 0.4702 0.0641
C38_4 C 0.25550(7) 0.43745(7) 0.08854(5)
C39_4 C 0.22981(7) 0.47640(8) 0.05510(5)
C40_4 C 0.22050(8) 0.42428(9) 0.09423(6)
H26_4 H 0.2170 0.4071 0.1076
C41_4 C 0.19503(8) 0.46358(10) 0.06074(6)
H27_4 H 0.1745 0.4728 0.0517
C42_4 C 0.19032(8) 0.43711(11) 0.07972(7)
C43_4 C 0.09892(7) 0.12105(7) 0.34802(5)
C45_4 C 0.03049(7) 0.13666(7) 0.34597(5)
H28_4 H 0.0276 0.1246 0.3619
C46_4 C 0.06549(7) 0.13740(7) 0.33431(5)
C47_4 C 0.28888(7) 0.42402(7) 0.10371(5)
C48_4 C 0.23582(7) 0.50606(8) 0.03422(4)
O13_4 O 0.32027(4) 0.43140(5) 0.09447(3)
O14_4 O 0.28284(4) 0.40515(5) 0.12378(3)
O1_4 O 0.55825(9) 0.40089(7) 0.08026(5)
H1_4 H 0.5706 0.4199 0.0781
O2_4 O 0.63525(7) 0.28848(7) 0.17603(5)
H2_4 H 0.6566 0.2953 0.1793
O6_4 O 0.63305(4) 0.36173(5) 0.09334(3)
O8_4 O 0.65758(5) 0.32706(5) 0.12518(3)
C1_4 C 0.76736(7) 0.35726(9) 0.06999(6)
H5_4 H 0.7910 0.3603 0.0629
C2_4 C 0.73654(7) 0.37434(7) 0.05900(5)
C3_4 C 0.74241(7) 0.40051(7) 0.03592(4)
C4_4 C 0.70110(7) 0.36965(7) 0.06946(5)
H6_4 H 0.6806 0.3809 0.0616
N1_4 N 0.79399(7) 0.31911(11) 0.10458(7)
C5_4 C 0.69658(7) 0.34800(7) 0.09176(5)
C6_4 C 0.65896(6) 0.34556(7) 0.10523(5)
C7_4 C 0.72735(7) 0.33084(9) 0.10321(6)
H7_4 H 0.7246 0.3165 0.1182
C8_4 C 0.76179(8) 0.33553(10) 0.09190(7)
C9_4 C 0.82863(9) 0.33174(13) 0.10510(8)
H8_4 H 0.8377 0.3534 0.0975
N2_4 N 0.79065(9) 0.28541(14) 0.11622(11)
C10_4 C 0.84784(10) 0.30624(17) 0.11906(11)
C11_4 C 0.88701(10) 0.30463(17) 0.12700(11)
N3_4 N 0.82391(10) 0.27801(15) 0.12489(13)
C12_4 C 0.90792(12) 0.33506(19) 0.12555(13)
H9_4 H 0.8976 0.3567 0.1188
C13_4 C 0.90371(12) 0.27200(17) 0.13445(13)
H10_4 H 0.8909 0.2495 0.1340
C14_4 C 0.94039(13) 0.2738(2) 0.14272(15)
H11_4 H 0.9516 0.2519 0.1484
C15_4 C 0.94485(13) 0.3355(2) 0.13393(13)
H12_4 H 0.9584 0.3575 0.1331
C16_4 C 0.96080(11) 0.3052(2) 0.14301(13)
N4_4 N 0.99904(9) 0.30445(17) 0.15085(9)
C18_4 C 0.98919(13) 0.2795(2) 0.19316(12)
H13_4 H 0.9658 0.2907 0.1930
C22_4 C 0.99872(13) 0.25945(19) 0.21541(11)
H16_4 H 0.9827 0.2588 0.2296
H21_4 H 0.9977 0.2146 0.2638
C33_6 C 0.99999(7) 0.15344(7) 0.33451(5)
H23_4 H 0.9842 0.1819 0.3018
C44_4 C 0.96312(7) 0.15413(7) 0.34830(5)
C65_10 C 0.7160(2) 0.00976(12) 0.17282(12)
C67_10 C 0.7360(3) 0.04091(14) 0.17230(14)
H42_10 H 0.7353 0.0563 0.1578
C68_10 C 0.6732(2) 0.02514(11) 0.13769(11)
C69_10 C 0.6623(2) 0.05552(14) 0.14763(12)
H43_10 H 0.6702 0.0609 0.1645
C71_10 C 0.7580(2) 0.02967(11) 0.21602(11)
C72_10 C 0.7584(3) 0.05051(14) 0.19393(12)
H45_10 H 0.7736 0.0714 0.1930
C73_10 C 0.6306(2) 0.07820(12) 0.11149(12)
C74_10 C 0.6390(3) 0.08210(13) 0.13519(14)
H46_10 H 0.6299 0.1024 0.1445
C75_10 C 0.6511(2) 0.05179(16) 0.09675(13)
H47_10 H 0.6527 0.0530 0.0787
C76_10 C 0.6693(2) 0.02325(15) 0.11149(13)
H48_10 H 0.6788 0.0027 0.1027
N15_10 N 0.81126(13) 0.04429(8) 0.27435(6)
C77_10 C 0.79141(13) 0.02222(10) 0.25980(8)
C78_10 C 0.7812(2) 0.03985(12) 0.23859(10)
N16_10 N 0.57812(12) 0.15430(8) 0.08442(7)
C79_10 C 0.59842(13) 0.14113(9) 0.10353(8)
H50_10 H 0.6056 0.1541 0.1184
N17_10 N 0.57851(19) 0.12958(11) 0.06395(11)
N18_10 N 0.5968(2) 0.09977(13) 0.07270(11)
C80_10 C 0.6069(2) 0.10670(12) 0.09814(12)
N19_10 N 0.8170(3) 0.07495(13) 0.26110(11)
N20_10 N 0.7985(3) 0.07282(15) 0.23961(11)
C81_13 C 0.84656(7) -0.00001(7) 0.33451(5)
C82_10 C 0.82914(9) 0.00436(8) 0.31016(6)
C83_10 C 0.84464(10) 0.06990(8) 0.31080(6)
H52_10 H 0.8433 0.0933 0.3030
C84_10 C 0.82883(11) 0.03964(9) 0.29894(6)
C85_10 C 0.53748(7) 0.26070(7) 0.06859(5)
H53_10 H 0.5298 0.2846 0.0641
C86_10 C 0.56255(7) 0.25550(7) 0.08854(5)
C87_10 C 0.52360(8) 0.22981(7) 0.05510(5)
C88_10 C 0.57572(9) 0.22050(8) 0.09423(6)
H54_10 H 0.5929 0.2170 0.1076
C89_10 C 0.53642(10) 0.19503(8) 0.06074(6)
H55_10 H 0.5272 0.1745 0.0517
C90_10 C 0.56289(11) 0.19032(8) 0.07972(7)
C91_10 C 0.87895(7) 0.09892(7) 0.34802(5)
C93_10 C 0.86334(7) 0.03049(7) 0.34597(5)
H56_10 H 0.8754 0.0276 0.3619
C94_10 C 0.86260(7) 0.06549(7) 0.33431(5)
C95_10 C 0.57598(7) 0.28888(7) 0.10371(5)
C96_10 C 0.49394(8) 0.23582(7) 0.03422(4)
O27_4 O 0.56860(5) 0.32027(4) 0.09447(3)
O28_4 O 0.59485(5) 0.28284(4) 0.12378(3)
H57_4 H 0.557123 0.386662 0.0636982
H58_4 H 0.619782 0.290323 0.192007
O17_10 O 0.59911(7) 0.55825(9) 0.08026(5)
H31_10 H 0.5801 0.5706 0.0781
O18_10 O 0.71152(7) 0.63525(7) 0.17603(5)
H32_10 H 0.7047 0.6566 0.1793
O20_10 O 0.63827(5) 0.63305(4) 0.09334(3)
O22_10 O 0.67294(5) 0.65758(5) 0.12518(3)
C49_10 C 0.64274(9) 0.76736(7) 0.06999(6)
H33_10 H 0.6397 0.7910 0.0629
C50_10 C 0.62566(7) 0.73654(7) 0.05900(5)
C51_10 C 0.59949(7) 0.74241(7) 0.03592(4)
C52_10 C 0.63035(7) 0.70110(7) 0.06946(5)
H34_10 H 0.6191 0.6806 0.0616
N11_10 N 0.68089(11) 0.79399(7) 0.10458(7)
C53_10 C 0.65200(7) 0.69658(7) 0.09176(5)
C54_10 C 0.65444(7) 0.65896(6) 0.10523(5)
C55_10 C 0.66916(9) 0.72735(7) 0.10321(6)
H35_10 H 0.6835 0.7246 0.1182
C56_10 C 0.66447(10) 0.76179(8) 0.09190(7)
C57_10 C 0.66826(13) 0.82863(9) 0.10510(8)
H36_10 H 0.6466 0.8377 0.0975
N12_10 N 0.71459(14) 0.79065(9) 0.11622(11)
C58_10 C 0.69376(17) 0.84784(10) 0.11906(11)
C59_10 C 0.69537(17) 0.88701(10) 0.12700(11)
N13_10 N 0.72199(15) 0.82391(10) 0.12489(13)
C60_10 C 0.66494(19) 0.90792(12) 0.12555(13)
H37_10 H 0.6433 0.8976 0.1188
C61_10 C 0.72800(17) 0.90371(12) 0.13445(13)
H38_10 H 0.7505 0.8909 0.1340
C62_10 C 0.7262(2) 0.94039(13) 0.14272(15)
H39_10 H 0.7481 0.9516 0.1484
C63_10 C 0.6645(2) 0.94485(13) 0.13393(13)
H40_10 H 0.6425 0.9584 0.1331
C64_10 C 0.6948(2) 0.96080(11) 0.14301(13)
N14_10 N 0.69555(17) 0.99904(9) 0.15085(9)
C66_10 C 0.7205(2) 0.98919(13) 0.19316(12)
H41_10 H 0.7093 0.9658 0.1930
C70_10 C 0.74055(19) 0.99872(13) 0.21541(11)
H44_10 H 0.7412 0.9827 0.2296
H49_10 H 0.7854 0.9977 0.2638
C81_14 C 0.84656(7) 0.99999(7) 0.33451(5)
H51_10 H 0.8181 0.9842 0.3018
C92_10 C 0.84587(7) 0.96312(7) 0.34830(5)
O41_7 O 0.67973(4) 0.56860(5) 0.09447(3)
O42_7 O 0.71716(4) 0.59485(5) 0.12378(3)
H59_10 H 0.613338 0.557123 0.0636982
H60_10 H 0.709677 0.619782 0.192007
O17_11 O 0.44175(9) 0.59911(7) 0.08026(5)
H31_11 H 0.4294 0.5801 0.0781
O18_11 O 0.36475(7) 0.71152(7) 0.17603(5)
H32_11 H 0.3434 0.7047 0.1793
O20_11 O 0.36695(4) 0.63827(5) 0.09334(3)
O22_11 O 0.34242(5) 0.67294(5) 0.12518(3)
C49_11 C 0.23264(7) 0.64274(9) 0.06999(6)
H33_11 H 0.2090 0.6397 0.0629
C50_11 C 0.26346(7) 0.62566(7) 0.05900(5)
C51_11 C 0.25759(7) 0.59949(7) 0.03592(4)
C52_11 C 0.29890(7) 0.63035(7) 0.06946(5)
H34_11 H 0.3194 0.6191 0.0616
N11_11 N 0.20601(7) 0.68089(11) 0.10458(7)
C53_11 C 0.30342(7) 0.65200(7) 0.09176(5)
C54_11 C 0.34104(6) 0.65444(7) 0.10523(5)
C55_11 C 0.27265(7) 0.66916(9) 0.10321(6)
H35_11 H 0.2754 0.6835 0.1182
C56_11 C 0.23821(8) 0.66447(10) 0.09190(7)
C57_11 C 0.17137(9) 0.66826(13) 0.10510(8)
H36_11 H 0.1623 0.6466 0.0975
N12_11 N 0.20935(9) 0.71459(14) 0.11622(11)
C58_11 C 0.15216(10) 0.69376(17) 0.11906(11)
C59_11 C 0.11299(10) 0.69537(17) 0.12700(11)
N13_11 N 0.17609(10) 0.72199(15) 0.12489(13)
C60_11 C 0.09208(12) 0.66494(19) 0.12555(13)
H37_11 H 0.1024 0.6433 0.1188
C61_11 C 0.09629(12) 0.72800(17) 0.13445(13)
H38_11 H 0.1091 0.7505 0.1340
C62_11 C 0.05961(13) 0.7262(2) 0.14272(15)
H39_11 H 0.0484 0.7481 0.1484
C63_11 C 0.05515(13) 0.6645(2) 0.13393(13)
H40_11 H 0.0416 0.6425 0.1331
C64_11 C 0.03920(11) 0.6948(2) 0.14301(13)
N14_11 N 0.00096(9) 0.69555(17) 0.15085(9)
C66_11 C 0.01081(13) 0.7205(2) 0.19316(12)
H41_11 H 0.0342 0.7093 0.1930
C70_11 C 0.00128(13) 0.74055(19) 0.21541(11)
H44_11 H 0.0173 0.7412 0.2296
H49_11 H 0.0023 0.7854 0.2638
C81_15 C 0.00001(7) 0.84656(7) 0.33451(5)
H51_11 H 0.0158 0.8181 0.3018
C92_11 C 0.03688(7) 0.84587(7) 0.34830(5)
O41_8 O 0.43140(5) 0.67973(4) 0.09447(3)
O42_8 O 0.40515(5) 0.71716(4) 0.12378(3)
H59_11 H 0.442877 0.613338 0.0636982
H60_11 H 0.380218 0.709677 0.192007
C65_11 C 0.99024(12) 0.7160(2) 0.17282(12)
C67_11 C 0.95909(14) 0.7360(3) 0.17230(14)
H42_11 H 0.9437 0.7353 0.1578
C68_11 C 0.97486(11) 0.6732(2) 0.13769(11)
C69_11 C 0.94448(14) 0.6623(2) 0.14763(12)
H43_11 H 0.9391 0.6702 0.1645
C71_11 C 0.97033(11) 0.7580(2) 0.21602(11)
C72_11 C 0.94949(14) 0.7584(3) 0.19393(12)
H45_11 H 0.9286 0.7736 0.1930
C73_11 C 0.92180(12) 0.6306(2) 0.11149(12)
C74_11 C 0.91790(13) 0.6390(3) 0.13519(14)
H46_11 H 0.8976 0.6299 0.1445
C75_11 C 0.94821(16) 0.6511(2) 0.09675(13)
H47_11 H 0.9470 0.6527 0.0787
C76_11 C 0.97675(15) 0.6693(2) 0.11149(13)
H48_11 H 0.9973 0.6788 0.1027
N15_11 N 0.95571(8) 0.81126(13) 0.27435(6)
C77_11 C 0.97778(10) 0.79141(13) 0.25980(8)
C78_11 C 0.96015(12) 0.7812(2) 0.23859(10)
N16_11 N 0.84570(8) 0.57812(12) 0.08442(7)
C79_11 C 0.85887(9) 0.59842(13) 0.10353(8)
H50_11 H 0.8459 0.6056 0.1184
N17_11 N 0.87042(11) 0.57851(19) 0.06395(11)
N18_11 N 0.90023(13) 0.5968(2) 0.07270(11)
C80_11 C 0.89330(12) 0.6069(2) 0.09814(12)
N19_11 N 0.92505(13) 0.8170(3) 0.26110(11)
N20_11 N 0.92718(15) 0.7985(3) 0.23961(11)
C81_16 C 1.00001(7) 0.84656(7) 0.33451(5)
C82_11 C 0.99564(8) 0.82914(9) 0.31016(6)
C83_11 C 0.93010(8) 0.84464(10) 0.31080(6)
H52_11 H 0.9067 0.8433 0.3030
C84_11 C 0.96036(9) 0.82883(11) 0.29894(6)
C85_11 C 0.73930(7) 0.53748(7) 0.06859(5)
H53_11 H 0.7154 0.5298 0.0641
C86_11 C 0.74450(7) 0.56255(7) 0.08854(5)
C87_11 C 0.77019(7) 0.52360(8) 0.05510(5)
C88_11 C 0.77950(8) 0.57572(9) 0.09423(6)
H54_11 H 0.7830 0.5929 0.1076
C89_11 C 0.80497(8) 0.53642(10) 0.06074(6)
H55_11 H 0.8255 0.5272 0.0517
C90_11 C 0.80968(8) 0.56289(11) 0.07972(7)
C91_11 C 0.90108(7) 0.87895(7) 0.34802(5)
C93_11 C 0.96951(7) 0.86334(7) 0.34597(5)
H56_11 H 0.9724 0.8754 0.3619
C94_11 C 0.93451(7) 0.86260(7) 0.33431(5)
C95_11 C 0.71112(7) 0.57598(7) 0.10371(5)
C96_11 C 0.76418(7) 0.49394(8) 0.03422(4)
O17_12 O 0.40089(7) 0.44175(9) 0.08026(5)
H31_12 H 0.4199 0.4294 0.0781
O18_12 O 0.28848(7) 0.36475(7) 0.17603(5)
H32_12 H 0.2953 0.3434 0.1793
O20_12 O 0.36173(5) 0.36695(4) 0.09334(3)
O22_12 O 0.32706(5) 0.34242(5) 0.12518(3)
C49_12 C 0.35726(9) 0.23264(7) 0.06999(6)
H33_12 H 0.3603 0.2090 0.0629
C50_12 C 0.37434(7) 0.26346(7) 0.05900(5)
C51_12 C 0.40051(7) 0.25759(7) 0.03592(4)
C52_12 C 0.36965(7) 0.29890(7) 0.06946(5)
H34_12 H 0.3809 0.3194 0.0616
N11_12 N 0.31911(11) 0.20601(7) 0.10458(7)
C53_12 C 0.34800(7) 0.30342(7) 0.09176(5)
C54_12 C 0.34556(7) 0.34104(6) 0.10523(5)
C55_12 C 0.33084(9) 0.27265(7) 0.10321(6)
H35_12 H 0.3165 0.2754 0.1182
C56_12 C 0.33553(10) 0.23821(8) 0.09190(7)
C57_12 C 0.33174(13) 0.17137(9) 0.10510(8)
H36_12 H 0.3534 0.1623 0.0975
N12_12 N 0.28541(14) 0.20935(9) 0.11622(11)
C58_12 C 0.30624(17) 0.15216(10) 0.11906(11)
C59_12 C 0.30463(17) 0.11299(10) 0.12700(11)
N13_12 N 0.27801(15) 0.17609(10) 0.12489(13)
C60_12 C 0.33506(19) 0.09208(12) 0.12555(13)
H37_12 H 0.3567 0.1024 0.1188
C61_12 C 0.27200(17) 0.09629(12) 0.13445(13)
H38_12 H 0.2495 0.1091 0.1340
C62_12 C 0.2738(2) 0.05961(13) 0.14272(15)
H39_12 H 0.2519 0.0484 0.1484
C63_12 C 0.3355(2) 0.05515(13) 0.13393(13)
H40_12 H 0.3575 0.0416 0.1331
C64_12 C 0.3052(2) 0.03920(11) 0.14301(13)
N14_12 N 0.30445(17) 0.00096(9) 0.15085(9)
C66_12 C 0.2795(2) 0.01081(13) 0.19316(12)
H41_12 H 0.2907 0.0342 0.1930
C70_12 C 0.25945(19) 0.00128(13) 0.21541(11)
H44_12 H 0.2588 0.0173 0.2296
H49_12 H 0.2146 0.0023 0.2638
C81_17 C 0.15344(7) 0.00001(7) 0.33451(5)
H51_12 H 0.1819 0.0158 0.3018
C92_12 C 0.15413(7) 0.03688(7) 0.34830(5)
H59_12 H 0.386662 0.442877 0.0636982
H60_12 H 0.290323 0.380218 0.192007
C65_12 C 0.2840(2) 0.99024(12) 0.17282(12)
C67_12 C 0.2640(3) 0.95909(14) 0.17230(14)
H42_12 H 0.2647 0.9437 0.1578
C68_12 C 0.3268(2) 0.97486(11) 0.13769(11)
C69_12 C 0.3377(2) 0.94448(14) 0.14763(12)
H43_12 H 0.3298 0.9391 0.1645
C71_12 C 0.2420(2) 0.97033(11) 0.21602(11)
C72_12 C 0.2416(3) 0.94949(14) 0.19393(12)
H45_12 H 0.2264 0.9286 0.1930
C73_12 C 0.3694(2) 0.92180(12) 0.11149(12)
C74_12 C 0.3610(3) 0.91790(13) 0.13519(14)
H46_12 H 0.3701 0.8976 0.1445
C75_12 C 0.3489(2) 0.94821(16) 0.09675(13)
H47_12 H 0.3473 0.9470 0.0787
C76_12 C 0.3307(2) 0.97675(15) 0.11149(13)
H48_12 H 0.3212 0.9973 0.1027
N15_12 N 0.18874(13) 0.95571(8) 0.27435(6)
C77_12 C 0.20859(13) 0.97778(10) 0.25980(8)
C78_12 C 0.2188(2) 0.96015(12) 0.23859(10)
N16_12 N 0.42188(12) 0.84570(8) 0.08442(7)
C79_12 C 0.40158(13) 0.85887(9) 0.10353(8)
H50_12 H 0.3944 0.8459 0.1184
N17_12 N 0.42149(19) 0.87042(11) 0.06395(11)
N18_12 N 0.4032(2) 0.90023(13) 0.07270(11)
C80_12 C 0.3931(2) 0.89330(12) 0.09814(12)
N19_12 N 0.1830(3) 0.92505(13) 0.26110(11)
N20_12 N 0.2015(3) 0.92718(15) 0.23961(11)
C81_18 C 0.15344(7) 1.00001(7) 0.33451(5)
C82_12 C 0.17086(9) 0.99564(8) 0.31016(6)
C83_12 C 0.15536(10) 0.93010(8) 0.31080(6)
H52_12 H 0.1567 0.9067 0.3030
C84_12 C 0.17117(11) 0.96036(9) 0.29894(6)
C85_12 C 0.46252(7) 0.73930(7) 0.06859(5)
H53_12 H 0.4702 0.7154 0.0641
C86_12 C 0.43745(7) 0.74450(7) 0.08854(5)
C87_12 C 0.47640(8) 0.77019(7) 0.05510(5)
C88_12 C 0.42428(9) 0.77950(8) 0.09423(6)
H54_12 H 0.4071 0.7830 0.1076
C89_12 C 0.46358(10) 0.80497(8) 0.06074(6)
H55_12 H 0.4728 0.8255 0.0517
C90_12 C 0.43711(11) 0.80968(8) 0.07972(7)
C91_12 C 0.12105(7) 0.90108(7) 0.34802(5)
C93_12 C 0.13666(7) 0.96951(7) 0.34597(5)
H56_12 H 0.1246 0.9724 0.3619
C94_12 C 0.13740(7) 0.93451(7) 0.33431(5)
C95_12 C 0.42402(7) 0.71112(7) 0.10371(5)
C96_12 C 0.50606(8) 0.76418(7) 0.03422(4)
loop_
_geom_bond_atom_site_label_1
_geom_bond_atom_site_label_2
_geom_bond_site_symmetry_1
_geom_bond_site_symmetry_2
O29 C96 1_555 1_555
O30 C96 1_555 1_555
Zn9 O29 1_555 1_555
Zn20 O30 1_555 1_555
Zn1 O4 1_555 1_555
Zn2 O1 1_555 1_555
Zn3 O2 1_555 1_555
Zn4 O3 1_555 1_555
O1 H1 1_555 1_555
O2 H2 1_555 1_555
O3 C3 1_555 1_555
O4 H3 1_555 1_555
O5 Zn4 1_555 1_555
H4 O5 1_555 1_555
O6 Zn2 1_555 1_555
O7 Zn1 1_555 1_555
O8 Zn3 1_555 1_555
C1 H5 1_555 1_555
C2 C1 1_555 1_555
C3 O7 1_555 1_555
C4 C2 1_555 1_555
H6 C4 1_555 1_555
N1 C8 1_555 1_555
C5 C4 1_555 1_555
C6 O6 1_555 1_555
C7 C5 1_555 1_555
H7 C7 1_555 1_555
C8 C1 1_555 1_555
C9 N1 1_555 1_555
H8 C9 1_555 1_555
N2 N1 1_555 1_555
C10 C9 1_555 1_555
C11 C10 1_555 1_555
N3 N2 1_555 1_555
C12 C11 1_555 1_555
H9 C12 1_555 1_555
C13 C11 1_555 1_555
H10 C13 1_555 1_555
C14 C13 1_555 1_555
H11 C14 1_555 1_555
C15 C12 1_555 1_555
H12 C15 1_555 1_555
C16 C14 1_555 1_555
N4 C16 1_555 1_555
C17 N4 1_555 1_555
C18 C17 1_555 1_555
H13 C18 1_555 1_555
C19 C17 1_555 1_555
H14 C19 1_555 1_555
C20 N4 1_555 1_555
C21 C20 1_555 1_555
H15 C21 1_555 1_555
C22 C18 1_555 1_555
H16 C22 1_555 1_555
C23 C22 1_555 1_555
C24 C19 1_555 1_555
H17 C24 1_555 1_555
C25 C26 1_555 1_555
C26 C21 1_555 1_555
H18 C26 1_555 1_555
C27 C25 1_555 1_555
H19 C27 1_555 1_555
C28 C20 1_555 1_555
H20 C28 1_555 1_555
N5 C29 1_555 1_555
C29 H21 1_555 1_555
C30 C23 1_555 1_555
N6 C31 1_555 1_555
C31 H22 1_555 1_555
N7 N6 1_555 1_555
N8 N7 1_555 1_555
C32 C25 1_555 1_555
N9 N5 1_555 1_555
N10 C30 1_555 1_555
C33 C34 1_555 1_555
C34 H23 1_555 1_555
C35 H24 1_555 1_555
C36 N5 1_555 1_555
C37 H25 1_555 1_555
C38 C37 1_555 1_555
C39 C37 1_555 1_555
C40 C38 1_555 1_555
H26 C40 1_555 1_555
C41 C39 1_555 1_555
H27 C41 1_555 1_555
C42 N6 1_555 1_555
C43 C46 1_555 1_555
C44 C33 1_555 1_555
C45 C33 1_555 1_555
H28 C45 1_555 1_555
C46 C35 1_555 1_555
C47 C38 1_555 1_555
O9 C44 1_555 1_555
O10 C43 1_555 1_555
O11 C44 1_555 1_555
O12 C43 1_555 1_555
O13 C47 1_555 1_555
O14 C47 1_555 1_555
H29 O4 1_555 1_555
H30 O5 1_555 1_555
Zn5 O17 1_555 1_555
Zn6 O18 1_555 1_555
O17 H31 1_555 1_555
O18 H32 1_555 1_555
O19 C51 1_555 1_555
O20 Zn5 1_555 1_555
O21 C51 1_555 1_555
O22 Zn6 1_555 1_555
C49 H33 1_555 1_555
C50 C49 1_555 1_555
C51 C50 1_555 1_555
C52 C50 1_555 1_555
H34 C52 1_555 1_555
N11 C56 1_555 1_555
C53 C52 1_555 1_555
C54 O20 1_555 1_555
C55 C53 1_555 1_555
H35 C55 1_555 1_555
C56 C49 1_555 1_555
C57 N11 1_555 1_555
H36 C57 1_555 1_555
N12 N11 1_555 1_555
C58 C57 1_555 1_555
C59 C58 1_555 1_555
N13 N12 1_555 1_555
C60 C59 1_555 1_555
H37 C60 1_555 1_555
C61 C59 1_555 1_555
H38 C61 1_555 1_555
C62 C61 1_555 1_555
H39 C62 1_555 1_555
C63 C60 1_555 1_555
H40 C63 1_555 1_555
C64 C62 1_555 1_555
N14 C64 1_555 1_555
C65 N14 1_555 1_555
C66 C65 1_555 1_555
H41 C66 1_555 1_555
C67 C65 1_555 1_555
H42 C67 1_555 1_555
C68 N14 1_555 1_555
C69 C68 1_555 1_555
H43 C69 1_555 1_555
C70 C66 1_555 1_555
H44 C70 1_555 1_555
C71 C70 1_555 1_555
C72 C67 1_555 1_555
H45 C72 1_555 1_555
C73 C74 1_555 1_555
C74 C69 1_555 1_555
H46 C74 1_555 1_555
C75 C73 1_555 1_555
H47 C75 1_555 1_555
C76 C68 1_555 1_555
H48 C76 1_555 1_555
N15 C77 1_555 1_555
C77 H49 1_555 1_555
C78 C71 1_555 1_555
N16 C79 1_555 1_555
C79 H50 1_555 1_555
N17 N16 1_555 1_555
N18 N17 1_555 1_555
C80 C73 1_555 1_555
N19 N15 1_555 1_555
N20 C78 1_555 1_555
C81 C82 1_555 1_555
C82 H51 1_555 1_555
C83 H52 1_555 1_555
C84 N15 1_555 1_555
C85 H53 1_555 1_555
C86 C85 1_555 1_555
C87 C85 1_555 1_555
C88 C86 1_555 1_555
H54 C88 1_555 1_555
C89 C87 1_555 1_555
H55 C89 1_555 1_555
C90 N16 1_555 1_555
C91 C94 1_555 1_555
C92 C81 1_555 1_555
C93 C81 1_555 1_555
H56 C93 1_555 1_555
C94 C83 1_555 1_555
C95 C86 1_555 1_555
O23 C92 1_555 1_555
O24 C91 1_555 1_555
O25 C92 1_555 1_555
O26 C91 1_555 1_555
O27 Zn2 1_555 1_555
O28 Zn3 1_555 1_555
Zn7 O21 1_555 1_555
Zn10 O13 1_555 1_555
Zn11 O9 1_555 1_555
Zn12 O23 1_555 1_555
Zn13 O10 1_555 1_555
Zn14 O14 1_555 1_555
Zn15 O11 1_555 1_555
Zn16 O25 1_555 1_555
Zn17 O12 1_555 1_555
Zn18 O19 1_555 1_555
O31 Zn4 1_555 1_555
O32 Zn1 1_555 1_555
O33 Zn2 1_555 1_555
O34 Zn5 1_555 1_555
O35 Zn2 1_555 1_555
O36 Zn5 1_555 1_555
O37 Zn3 1_555 1_555
O38 Zn6 1_555 1_555
O39 Zn3 1_555 1_555
O40 Zn6 1_555 1_555
O41 Zn5 1_555 1_555
O42 Zn6 1_555 1_555
O43 Zn1 1_555 1_555
O44 Zn1 1_555 1_555
O45 Zn4 1_555 1_555
O46 Zn4 1_555 1_555
O8 C6 1_555 1_555
C2 C3 1_555 1_555
C5 C6 1_555 1_555
C7 C8 1_555 1_555
C10 N3 1_555 1_555
C15 C16 1_555 1_555
C23 C24 1_555 1_555
C27 C28 1_555 1_555
C29 C30 1_555 1_555
C31 C32 1_555 1_555
N8 C32 1_555 1_555
N9 N10 1_555 1_555
C34 C36 1_555 1_555
C35 C36 1_555 1_555
C40 C42 1_555 1_555
C41 C42 1_555 1_555
C45 C46 1_555 1_555
O22 C54 1_555 1_555
C53 C54 1_555 1_555
C55 C56 1_555 1_555
C58 N13 1_555 1_555
C63 C64 1_555 1_555
C71 C72 1_555 1_555
C75 C76 1_555 1_555
C77 C78 1_555 1_555
C79 C80 1_555 1_555
N18 C80 1_555 1_555
N19 N20 1_555 1_555
C82 C84 1_555 1_555
C83 C84 1_555 1_555
C88 C90 1_555 1_555
C89 C90 1_555 1_555
C93 C94 1_555 1_555
C95 O27 1_555 1_555
C95 O28 1_555 1_555
O24 Zn11 1_555 1_555
O26 Zn15 1_555 1_555
O1 H57 1_555 1_555
O2 H58 1_555 1_555
O17 H59 1_555 1_555
O18 H60 1_555 1_555
O15 C48 1_555 1_555
O16 C48 1_555 1_555
Zn8 O15 1_555 1_555
Zn19 O16 1_555 1_555
O43 C96_2 1_555 1_555
O45 C96_2 1_555 1_555
Zn7 O4_2 1_555 1_555
O4_2 H3_2 1_555 1_555
O5_2 Zn18 1_555 1_555
H4_2 O5_2 1_555 1_555
H29_2 O4_2 1_555 1_555
H30_2 O5_2 1_555 1_555
Zn5_2 O17_2 1_555 1_555
Zn6_2 O18_2 1_555 1_555
O17_2 H31_2 1_555 1_555
O18_2 H32_2 1_555 1_555
O19_2 C51_2 1_555 1_555
O20_2 Zn5_2 1_555 1_555
O21_2 C51_2 1_555 1_555
O22_2 Zn6_2 1_555 1_555
C49_2 H33_2 1_555 1_555
C50_2 C49_2 1_555 1_555
C51_2 C50_2 1_555 1_555
C52_2 C50_2 1_555 1_555
H34_2 C52_2 1_555 1_555
N11_2 C56_2 1_555 1_555
C53_2 C52_2 1_555 1_555
C54_2 O20_2 1_555 1_555
C55_2 C53_2 1_555 1_555
H35_2 C55_2 1_555 1_555
C56_2 C49_2 1_555 1_555
C57_2 N11_2 1_555 1_555
H36_2 C57_2 1_555 1_555
N12_2 N11_2 1_555 1_555
C58_2 C57_2 1_555 1_555
C59_2 C58_2 1_555 1_555
N13_2 N12_2 1_555 1_555
C60_2 C59_2 1_555 1_555
H37_2 C60_2 1_555 1_555
C61_2 C59_2 1_555 1_555
H38_2 C61_2 1_555 1_555
C62_2 C61_2 1_555 1_555
H39_2 C62_2 1_555 1_555
C63_2 C60_2 1_555 1_555
H40_2 C63_2 1_555 1_555
C64_2 C62_2 1_555 1_555
N14_2 C64_2 1_555 1_555
C65_2 N14_2 1_555 1_555
C66_2 C65_2 1_555 1_555
H41_2 C66_2 1_555 1_555
C67_2 C65_2 1_555 1_555
H42_2 C67_2 1_555 1_555
C68_2 N14_2 1_555 1_555
C69_2 C68_2 1_555 1_555
H43_2 C69_2 1_555 1_555
C70_2 C66_2 1_555 1_555
H44_2 C70_2 1_555 1_555
C71_2 C70_2 1_555 1_555
C72_2 C67_2 1_555 1_555
H45_2 C72_2 1_555 1_555
C73_2 C74_2 1_555 1_555
C74_2 C69_2 1_555 1_555
H46_2 C74_2 1_555 1_555
C75_2 C73_2 1_555 1_555
H47_2 C75_2 1_555 1_555
C76_2 C68_2 1_555 1_555
H48_2 C76_2 1_555 1_555
N15_2 C77_2 1_555 1_555
C77_2 H49_2 1_555 1_555
C78_2 C71_2 1_555 1_555
N16_2 C79_2 1_555 1_555
C79_2 H50_2 1_555 1_555
N17_2 N16_2 1_555 1_555
N18_2 N17_2 1_555 1_555
C80_2 C73_2 1_555 1_555
N19_2 N15_2 1_555 1_555
N20_2 C78_2 1_555 1_555
C81_2 C82_2 1_555 1_555
C82_2 H51_2 1_555 1_555
C83_2 H52_2 1_555 1_555
C84_2 N15_2 1_555 1_555
C85_2 H53_2 1_555 1_555
C86_2 C85_2 1_555 1_555
C87_2 C85_2 1_555 1_555
C88_2 C86_2 1_555 1_555
H54_2 C88_2 1_555 1_555
C89_2 C87_2 1_555 1_555
H55_2 C89_2 1_555 1_555
C90_2 N16_2 1_555 1_555
C91_2 C94_2 1_555 1_555
C92_2 C81_2 1_555 1_555
C93_2 C81_2 1_555 1_555
H56_2 C93_2 1_555 1_555
C94_2 C83_2 1_555 1_555
C95_2 C86_2 1_555 1_555
O23_2 C92_2 1_555 1_555
O24_2 C91_2 1_555 1_555
O25_2 C92_2 1_555 1_555
O26_2 C91_2 1_555 1_555
Zn8 O21_2 1_555 1_555
Zn12_2 O23_2 1_555 1_555
Zn16_2 O25_2 1_555 1_555
Zn19 O19_2 1_555 1_555
O31_2 Zn18 1_555 1_555
O32_2 Zn7 1_555 1_555
O34_2 Zn5_2 1_555 1_555
O36_2 Zn5_2 1_555 1_555
O38_2 Zn6_2 1_555 1_555
O40_2 Zn6_2 1_555 1_555
O41_2 Zn5_2 1_555 1_555
O42_2 Zn6_2 1_555 1_555
O43_2 Zn7 1_555 1_555
O44_2 Zn7 1_555 1_555
O45_2 Zn18 1_555 1_555
O46_2 Zn18 1_555 1_555
O22_2 C54_2 1_555 1_555
C53_2 C54_2 1_555 1_555
C55_2 C56_2 1_555 1_555
C58_2 N13_2 1_555 1_555
C63_2 C64_2 1_555 1_555
C71_2 C72_2 1_555 1_555
C75_2 C76_2 1_555 1_555
C77_2 C78_2 1_555 1_555
C79_2 C80_2 1_555 1_555
N18_2 C80_2 1_555 1_555
N19_2 N20_2 1_555 1_555
C82_2 C84_2 1_555 1_555
C83_2 C84_2 1_555 1_555
C88_2 C90_2 1_555 1_555
C89_2 C90_2 1_555 1_555
C93_2 C94_2 1_555 1_555
C95_2 O41 1_555 1_555
C95_2 O42 1_555 1_555
O24_2 Zn12 1_555 1_555
O26_2 Zn16 1_555 1_555
O17_2 H59_2 1_555 1_555
O18_2 H60_2 1_555 1_555
Zn8 O4_3 1_555 1_555
O4_3 H3_3 1_555 1_555
O5_3 Zn19 1_555 1_555
H4_3 O5_3 1_555 1_555
H29_3 O4_3 1_555 1_555
H30_3 O5_3 1_555 1_555
Zn10 O17_3 1_555 1_555
Zn14 O18_3 1_555 1_555
O17_3 H31_3 1_555 1_555
O18_3 H32_3 1_555 1_555
O19_3 C51_3 1_555 1_555
O20_3 Zn10 1_555 1_555
O21_3 C51_3 1_555 1_555
O22_3 Zn14 1_555 1_555
C49_3 H33_3 1_555 1_555
C50_3 C49_3 1_555 1_555
C51_3 C50_3 1_555 1_555
C52_3 C50_3 1_555 1_555
H34_3 C52_3 1_555 1_555
N11_3 C56_3 1_555 1_555
C53_3 C52_3 1_555 1_555
C54_3 O20_3 1_555 1_555
C55_3 C53_3 1_555 1_555
H35_3 C55_3 1_555 1_555
C56_3 C49_3 1_555 1_555
C57_3 N11_3 1_555 1_555
H36_3 C57_3 1_555 1_555
N12_3 N11_3 1_555 1_555
C58_3 C57_3 1_555 1_555
C59_3 C58_3 1_555 1_555
N13_3 N12_3 1_555 1_555
C60_3 C59_3 1_555 1_555
H37_3 C60_3 1_555 1_555
C61_3 C59_3 1_555 1_555
H38_3 C61_3 1_555 1_555
C62_3 C61_3 1_555 1_555
H39_3 C62_3 1_555 1_555
C63_3 C60_3 1_555 1_555
H40_3 C63_3 1_555 1_555
C64_3 C62_3 1_555 1_555
N14_3 C64_3 1_555 1_555
C65_3 N14_3 1_555 1_555
C66_3 C65_3 1_555 1_555
H41_3 C66_3 1_555 1_555
C67_3 C65_3 1_555 1_555
H42_3 C67_3 1_555 1_555
C68_3 N14_3 1_555 1_555
C69_3 C68_3 1_555 1_555
H43_3 C69_3 1_555 1_555
C70_3 C66_3 1_555 1_555
H44_3 C70_3 1_555 1_555
C71_3 C70_3 1_555 1_555
C72_3 C67_3 1_555 1_555
H45_3 C72_3 1_555 1_555
C73_3 C74_3 1_555 1_555
C74_3 C69_3 1_555 1_555
H46_3 C74_3 1_555 1_555
C75_3 C73_3 1_555 1_555
H47_3 C75_3 1_555 1_555
C76_3 C68_3 1_555 1_555
H48_3 C76_3 1_555 1_555
N15_3 C77_3 1_555 1_555
C77_3 H49_3 1_555 1_555
C78_3 C71_3 1_555 1_555
N16_3 C79_3 1_555 1_555
C79_3 H50_3 1_555 1_555
N17_3 N16_3 1_555 1_555
N18_3 N17_3 1_555 1_555
C80_3 C73_3 1_555 1_555
N19_3 N15_3 1_555 1_555
N20_3 C78_3 1_555 1_555
C81_3 C82_3 1_555 1_555
C82_3 H51_3 1_555 1_555
C83_3 H52_3 1_555 1_555
C84_3 N15_3 1_555 1_555
C85_3 H53_3 1_555 1_555
C86_3 C85_3 1_555 1_555
C87_3 C85_3 1_555 1_555
C88_3 C86_3 1_555 1_555
H54_3 C88_3 1_555 1_555
C89_3 C87_3 1_555 1_555
H55_3 C89_3 1_555 1_555
C90_3 N16_3 1_555 1_555
C91_3 C94_3 1_555 1_555
C92_3 C81_3 1_555 1_555
C93_3 C81_3 1_555 1_555
H56_3 C93_3 1_555 1_555
C94_3 C83_3 1_555 1_555
C95_3 C86_3 1_555 1_555
O23_3 C92_3 1_555 1_555
O24_3 C91_3 1_555 1_555
O25_3 C92_3 1_555 1_555
O26_3 C91_3 1_555 1_555
Zn9 O21_3 1_555 1_555
Zn13 O23_3 1_555 1_555
Zn17 O25_3 1_555 1_555
Zn20 O19_3 1_555 1_555
O31_3 Zn19 1_555 1_555
O32_3 Zn8 1_555 1_555
O34_3 Zn10 1_555 1_555
O36_3 Zn10 1_555 1_555
O38_3 Zn14 1_555 1_555
O40_3 Zn14 1_555 1_555
O44_3 Zn8 1_555 1_555
O46_3 Zn19 1_555 1_555
O22_3 C54_3 1_555 1_555
C53_3 C54_3 1_555 1_555
C55_3 C56_3 1_555 1_555
C58_3 N13_3 1_555 1_555
C63_3 C64_3 1_555 1_555
C71_3 C72_3 1_555 1_555
C75_3 C76_3 1_555 1_555
C77_3 C78_3 1_555 1_555
C79_3 C80_3 1_555 1_555
N18_3 C80_3 1_555 1_555
N19_3 N20_3 1_555 1_555
C82_3 C84_3 1_555 1_555
C83_3 C84_3 1_555 1_555
C88_3 C90_3 1_555 1_555
C89_3 C90_3 1_555 1_555
C93_3 C94_3 1_555 1_555
C95_3 O41_2 1_555 1_555
C95_3 O42_2 1_555 1_555
O24_3 Zn12_2 1_555 1_555
O26_3 Zn16_2 1_555 1_555
O17_3 H59_3 1_555 1_555
O18_3 H60_3 1_555 1_555
O43_2 C96_3 1_555 1_555
O45_2 C96_3 1_555 1_555
Zn9 O4_4 1_555 1_555
O4_4 H3_4 1_555 1_555
O5_4 Zn20 1_555 1_555
H4_4 O5_4 1_555 1_555
H29_4 O4_4 1_555 1_555
H30_4 O5_4 1_555 1_555
O31_4 Zn20 1_555 1_555
O32_4 Zn9 1_555 1_555
O44_4 Zn9 1_555 1_555
O46_4 Zn20 1_555 1_555
Zn5_3 O17_4 1_555 1_555
Zn6_3 O18_4 1_555 1_555
O17_4 H31_4 1_555 1_555
O18_4 H32_4 1_555 1_555
O19_4 C51_4 1_555 1_555
O20_4 Zn5_3 1_555 1_555
O21_4 C51_4 1_555 1_555
O22_4 Zn6_3 1_555 1_555
C49_4 H33_4 1_555 1_555
C50_4 C49_4 1_555 1_555
C51_4 C50_4 1_555 1_555
C52_4 C50_4 1_555 1_555
H34_4 C52_4 1_555 1_555
N11_4 C56_4 1_555 1_555
C53_4 C52_4 1_555 1_555
C54_4 O20_4 1_555 1_555
C55_4 C53_4 1_555 1_555
H35_4 C55_4 1_555 1_555
C56_4 C49_4 1_555 1_555
C57_4 N11_4 1_555 1_555
H36_4 C57_4 1_555 1_555
N12_4 N11_4 1_555 1_555
C58_4 C57_4 1_555 1_555
C59_4 C58_4 1_555 1_555
N13_4 N12_4 1_555 1_555
C60_4 C59_4 1_555 1_555
H37_4 C60_4 1_555 1_555
C61_4 C59_4 1_555 1_555
H38_4 C61_4 1_555 1_555
C62_4 C61_4 1_555 1_555
H39_4 C62_4 1_555 1_555
C63_4 C60_4 1_555 1_555
H40_4 C63_4 1_555 1_555
C64_4 C62_4 1_555 1_555
N14_4 C64_4 1_555 1_555
H41_4 C66_4 1_555 1_555
C70_4 C66_4 1_555 1_555
H44_4 C70_4 1_555 1_555
C92_4 C81_4 1_555 1_555
O23_4 C92_4 1_555 1_555
O25_4 C92_4 1_555 1_555
Zn7_3 O21_4 1_555 1_555
Zn12_3 O23_4 1_555 1_555
Zn16_3 O25_4 1_555 1_555
Zn18_3 O19_4 1_555 1_555
O34_4 Zn5_3 1_555 1_555
O36_4 Zn5_3 1_555 1_555
O38_4 Zn6_3 1_555 1_555
O40_4 Zn6_3 1_555 1_555
O41_3 Zn5_3 1_555 1_555
O42_3 Zn6_3 1_555 1_555
O22_4 C54_4 1_555 1_555
C53_4 C54_4 1_555 1_555
C55_4 C56_4 1_555 1_555
C58_4 N13_4 1_555 1_555
C63_4 C64_4 1_555 1_555
O17_4 H59_4 1_555 1_555
O18_4 H60_4 1_555 1_555
Zn1_2 O4_5 1_555 1_555
O4_5 H3_5 1_555 1_555
O5_5 Zn4_2 1_555 1_555
H4_5 O5_5 1_555 1_555
O31_5 Zn4_2 1_555 1_555
O32_5 Zn1_2 1_555 1_555
O44_5 Zn1_2 1_555 1_555
O46_5 Zn4_2 1_555 1_555
Zn1_3 O4_6 1_555 1_555
Zn2_2 O1_2 1_555 1_555
Zn3_2 O2_2 1_555 1_555
Zn4_3 O3_2 1_555 1_555
O1_2 H1_2 1_555 1_555
O2_2 H2_2 1_555 1_555
O3_2 C3_2 1_555 1_555
O5_6 Zn4_3 1_555 1_555
O6_2 Zn2_2 1_555 1_555
O7_2 Zn1_3 1_555 1_555
O8_2 Zn3_2 1_555 1_555
C1_2 H5_2 1_555 1_555
C2_2 C1_2 1_555 1_555
C3_2 O7_2 1_555 1_555
C4_2 C2_2 1_555 1_555
H6_2 C4_2 1_555 1_555
N1_2 C8_2 1_555 1_555
C5_2 C4_2 1_555 1_555
C6_2 O6_2 1_555 1_555
C7_2 C5_2 1_555 1_555
H7_2 C7_2 1_555 1_555
C8_2 C1_2 1_555 1_555
C9_2 N1_2 1_555 1_555
H8_2 C9_2 1_555 1_555
N2_2 N1_2 1_555 1_555
C10_2 C9_2 1_555 1_555
C11_2 C10_2 1_555 1_555
N3_2 N2_2 1_555 1_555
C12_2 C11_2 1_555 1_555
H9_2 C12_2 1_555 1_555
C13_2 C11_2 1_555 1_555
H10_2 C13_2 1_555 1_555
C14_2 C13_2 1_555 1_555
H11_2 C14_2 1_555 1_555
C15_2 C12_2 1_555 1_555
H12_2 C15_2 1_555 1_555
C16_2 C14_2 1_555 1_555
N4_2 C16_2 1_555 1_555
H13_2 C18_2 1_555 1_555
C22_2 C18_2 1_555 1_555
H16_2 C22_2 1_555 1_555
C44_2 C33_2 1_555 1_555
O9_2 C44_2 1_555 1_555
O11_2 C44_2 1_555 1_555
H29_5 O4_6 1_555 1_555
H30_5 O5_6 1_555 1_555
C67_4 C65_4 1_555 1_555
H42_4 C67_4 1_555 1_555
C69_4 C68_4 1_555 1_555
H43_4 C69_4 1_555 1_555
C72_4 C67_4 1_555 1_555
H45_4 C72_4 1_555 1_555
C73_4 C74_4 1_555 1_555
C74_4 C69_4 1_555 1_555
H46_4 C74_4 1_555 1_555
C75_4 C73_4 1_555 1_555
H47_4 C75_4 1_555 1_555
C76_4 C68_4 1_555 1_555
H48_4 C76_4 1_555 1_555
N15_4 C77_4 1_555 1_555
C78_4 C71_4 1_555 1_555
N16_4 C79_4 1_555 1_555
C79_4 H50_4 1_555 1_555
N17_4 N16_4 1_555 1_555
N18_4 N17_4 1_555 1_555
C80_4 C73_4 1_555 1_555
N19_4 N15_4 1_555 1_555
N20_4 C78_4 1_555 1_555
C81_5 C82_4 1_555 1_555
C83_4 H52_4 1_555 1_555
C84_4 N15_4 1_555 1_555
C85_4 H53_4 1_555 1_555
C86_4 C85_4 1_555 1_555
C87_4 C85_4 1_555 1_555
C88_4 C86_4 1_555 1_555
H54_4 C88_4 1_555 1_555
C89_4 C87_4 1_555 1_555
H55_4 C89_4 1_555 1_555
C90_4 N16_4 1_555 1_555
C91_4 C94_4 1_555 1_555
C93_4 C81_5 1_555 1_555
H56_4 C93_4 1_555 1_555
C94_4 C83_4 1_555 1_555
C95_4 C86_4 1_555 1_555
C96_4 C87_4 1_555 1_555
O24_4 C91_4 1_555 1_555
O26_4 C91_4 1_555 1_555
O27_2 Zn2_2 1_555 1_555
O28_2 Zn3_2 1_555 1_555
O29_2 C96_4 1_555 1_555
O30_2 C96_4 1_555 1_555
Zn9_3 O29_2 1_555 1_555
Zn11_2 O9_2 1_555 1_555
Zn15_2 O11_2 1_555 1_555
Zn20_3 O30_2 1_555 1_555
O33_2 Zn2_2 1_555 1_555
O35_2 Zn2_2 1_555 1_555
O37_2 Zn3_2 1_555 1_555
O39_2 Zn3_2 1_555 1_555
O43_3 Zn1_3 1_555 1_555
O45_3 Zn4_3 1_555 1_555
O8_2 C6_2 1_555 1_555
C2_2 C3_2 1_555 1_555
C5_2 C6_2 1_555 1_555
C7_2 C8_2 1_555 1_555
C10_2 N3_2 1_555 1_555
C15_2 C16_2 1_555 1_555
C71_4 C72_4 1_555 1_555
C75_4 C76_4 1_555 1_555
C77_4 C78_4 1_555 1_555
C79_4 C80_4 1_555 1_555
N18_4 C80_4 1_555 1_555
N19_4 N20_4 1_555 1_555
C82_4 C84_4 1_555 1_555
C83_4 C84_4 1_555 1_555
C88_4 C90_4 1_555 1_555
C89_4 C90_4 1_555 1_555
C93_4 C94_4 1_555 1_555
C95_4 O27_2 1_555 1_555
C95_4 O28_2 1_555 1_555
O24_4 Zn11_2 1_555 1_555
O26_4 Zn15_2 1_555 1_555
O1_2 H57_2 1_555 1_555
O2_2 H58_2 1_555 1_555
C19_2 C17_2 1_555 1_555
H14_2 C19_2 1_555 1_555
C21_2 C20_2 1_555 1_555
H15_2 C21_2 1_555 1_555
C24_2 C19_2 1_555 1_555
H17_2 C24_2 1_555 1_555
C25_2 C26_2 1_555 1_555
C26_2 C21_2 1_555 1_555
H18_2 C26_2 1_555 1_555
C27_2 C25_2 1_555 1_555
H19_2 C27_2 1_555 1_555
C28_2 C20_2 1_555 1_555
H20_2 C28_2 1_555 1_555
N5_2 C29_2 1_555 1_555
C30_2 C23_2 1_555 1_555
N6_2 C31_2 1_555 1_555
C31_2 H22_2 1_555 1_555
N7_2 N6_2 1_555 1_555
N8_2 N7_2 1_555 1_555
C32_2 C25_2 1_555 1_555
N9_2 N5_2 1_555 1_555
N10_2 C30_2 1_555 1_555
C33_3 C34_2 1_555 1_555
C35_2 H24_2 1_555 1_555
C36_2 N5_2 1_555 1_555
C37_2 H25_2 1_555 1_555
C38_2 C37_2 1_555 1_555
C39_2 C37_2 1_555 1_555
C40_2 C38_2 1_555 1_555
H26_2 C40_2 1_555 1_555
C41_2 C39_2 1_555 1_555
H27_2 C41_2 1_555 1_555
C42_2 N6_2 1_555 1_555
C43_2 C46_2 1_555 1_555
C45_2 C33_3 1_555 1_555
H28_2 C45_2 1_555 1_555
C46_2 C35_2 1_555 1_555
C47_2 C38_2 1_555 1_555
C48_2 C39_2 1_555 1_555
O10_2 C43_2 1_555 1_555
O12_2 C43_2 1_555 1_555
O13_2 C47_2 1_555 1_555
O14_2 C47_2 1_555 1_555
O15_2 C48_2 1_555 1_555
O16_2 C48_2 1_555 1_555
Zn8_3 O15_2 1_555 1_555
Zn10_2 O13_2 1_555 1_555
Zn13_2 O10_2 1_555 1_555
Zn14_2 O14_2 1_555 1_555
Zn17_2 O12_2 1_555 1_555
Zn19_3 O16_2 1_555 1_555
C23_2 C24_2 1_555 1_555
C27_2 C28_2 1_555 1_555
C29_2 C30_2 1_555 1_555
C31_2 C32_2 1_555 1_555
N8_2 C32_2 1_555 1_555
N9_2 N10_2 1_555 1_555
C34_2 C36_2 1_555 1_555
C35_2 C36_2 1_555 1_555
C40_2 C42_2 1_555 1_555
C41_2 C42_2 1_555 1_555
C45_2 C46_2 1_555 1_555
Zn7_2 O4_7 1_555 1_555
O4_7 H3_6 1_555 1_555
O5_7 Zn18_2 1_555 1_555
H4_6 O5_7 1_555 1_555
O31_6 Zn18_2 1_555 1_555
O32_6 Zn7_2 1_555 1_555
O44_6 Zn7_2 1_555 1_555
O46_6 Zn18_2 1_555 1_555
Zn7_3 O4_8 1_555 1_555
O5_8 Zn18_3 1_555 1_555
H29_6 O4_8 1_555 1_555
H30_6 O5_8 1_555 1_555
C67_5 C65_5 1_555 1_555
H42_5 C67_5 1_555 1_555
C69_5 C68_5 1_555 1_555
H43_5 C69_5 1_555 1_555
C72_5 C67_5 1_555 1_555
H45_5 C72_5 1_555 1_555
C73_5 C74_5 1_555 1_555
C74_5 C69_5 1_555 1_555
H46_5 C74_5 1_555 1_555
C75_5 C73_5 1_555 1_555
H47_5 C75_5 1_555 1_555
C76_5 C68_5 1_555 1_555
H48_5 C76_5 1_555 1_555
N15_5 C77_5 1_555 1_555
C78_5 C71_5 1_555 1_555
N16_5 C79_5 1_555 1_555
C79_5 H50_5 1_555 1_555
N17_5 N16_5 1_555 1_555
N18_5 N17_5 1_555 1_555
C80_5 C73_5 1_555 1_555
N19_5 N15_5 1_555 1_555
N20_5 C78_5 1_555 1_555
C81_6 C82_5 1_555 1_555
C83_5 H52_5 1_555 1_555
C84_5 N15_5 1_555 1_555
C85_5 H53_5 1_555 1_555
C86_5 C85_5 1_555 1_555
C87_5 C85_5 1_555 1_555
C88_5 C86_5 1_555 1_555
H54_5 C88_5 1_555 1_555
C89_5 C87_5 1_555 1_555
H55_5 C89_5 1_555 1_555
C90_5 N16_5 1_555 1_555
C91_5 C94_5 1_555 1_555
C93_5 C81_6 1_555 1_555
H56_5 C93_5 1_555 1_555
C94_5 C83_5 1_555 1_555
C95_5 C86_5 1_555 1_555
C96_5 C87_5 1_555 1_555
O24_5 C91_5 1_555 1_555
O26_5 C91_5 1_555 1_555
O43_3 C96_5 1_555 1_555
O45_3 C96_5 1_555 1_555
O43_4 Zn7_3 1_555 1_555
O45_4 Zn18_3 1_555 1_555
C71_5 C72_5 1_555 1_555
C75_5 C76_5 1_555 1_555
C77_5 C78_5 1_555 1_555
C79_5 C80_5 1_555 1_555
N18_5 C80_5 1_555 1_555
N19_5 N20_5 1_555 1_555
C82_5 C84_5 1_555 1_555
C83_5 C84_5 1_555 1_555
C88_5 C90_5 1_555 1_555
C89_5 C90_5 1_555 1_555
C93_5 C94_5 1_555 1_555
C95_5 O41_3 1_555 1_555
C95_5 O42_3 1_555 1_555
O24_5 Zn12_3 1_555 1_555
O26_5 Zn16_3 1_555 1_555
Zn5_4 O17_5 1_555 1_555
Zn6_4 O18_5 1_555 1_555
O17_5 H31_5 1_555 1_555
O18_5 H32_5 1_555 1_555
O19_5 C51_5 1_555 1_555
O20_5 Zn5_4 1_555 1_555
O21_5 C51_5 1_555 1_555
O22_5 Zn6_4 1_555 1_555
C49_5 H33_5 1_555 1_555
C50_5 C49_5 1_555 1_555
C51_5 C50_5 1_555 1_555
C52_5 C50_5 1_555 1_555
H34_5 C52_5 1_555 1_555
N11_5 C56_5 1_555 1_555
C53_5 C52_5 1_555 1_555
C54_5 O20_5 1_555 1_555
C55_5 C53_5 1_555 1_555
H35_5 C55_5 1_555 1_555
C56_5 C49_5 1_555 1_555
C57_5 N11_5 1_555 1_555
H36_5 C57_5 1_555 1_555
N12_5 N11_5 1_555 1_555
C58_5 C57_5 1_555 1_555
C59_5 C58_5 1_555 1_555
N13_5 N12_5 1_555 1_555
C60_5 C59_5 1_555 1_555
H37_5 C60_5 1_555 1_555
C61_5 C59_5 1_555 1_555
H38_5 C61_5 1_555 1_555
C62_5 C61_5 1_555 1_555
H39_5 C62_5 1_555 1_555
C63_5 C60_5 1_555 1_555
H40_5 C63_5 1_555 1_555
C64_5 C62_5 1_555 1_555
N14_5 C64_5 1_555 1_555
H41_5 C66_5 1_555 1_555
C70_5 C66_5 1_555 1_555
H44_5 C70_5 1_555 1_555
C92_5 C81_7 1_555 1_555
O23_5 C92_5 1_555 1_555
O25_5 C92_5 1_555 1_555
Zn8_3 O21_5 1_555 1_555
Zn12_4 O23_5 1_555 1_555
Zn16_4 O25_5 1_555 1_555
Zn19_3 O19_5 1_555 1_555
O34_5 Zn5_4 1_555 1_555
O36_5 Zn5_4 1_555 1_555
O38_5 Zn6_4 1_555 1_555
O40_5 Zn6_4 1_555 1_555
O41_4 Zn5_4 1_555 1_555
O42_4 Zn6_4 1_555 1_555
O22_5 C54_5 1_555 1_555
C53_5 C54_5 1_555 1_555
C55_5 C56_5 1_555 1_555
C58_5 N13_5 1_555 1_555
C63_5 C64_5 1_555 1_555
O17_5 H59_5 1_555 1_555
O18_5 H60_5 1_555 1_555
Zn8_2 O4_9 1_555 1_555
O4_9 H3_7 1_555 1_555
O5_9 Zn19_2 1_555 1_555
H4_7 O5_9 1_555 1_555
O31_7 Zn19_2 1_555 1_555
O32_7 Zn8_2 1_555 1_555
O44_7 Zn8_2 1_555 1_555
O46_7 Zn19_2 1_555 1_555
Zn8_3 O4_10 1_555 1_555
O5_10 Zn19_3 1_555 1_555
H29_7 O4_10 1_555 1_555
H30_7 O5_10 1_555 1_555
C67_6 C65_6 1_555 1_555
H42_6 C67_6 1_555 1_555
C69_6 C68_6 1_555 1_555
H43_6 C69_6 1_555 1_555
C72_6 C67_6 1_555 1_555
H45_6 C72_6 1_555 1_555
C73_6 C74_6 1_555 1_555
C74_6 C69_6 1_555 1_555
H46_6 C74_6 1_555 1_555
C75_6 C73_6 1_555 1_555
H47_6 C75_6 1_555 1_555
C76_6 C68_6 1_555 1_555
H48_6 C76_6 1_555 1_555
N15_6 C77_6 1_555 1_555
C78_6 C71_6 1_555 1_555
N16_6 C79_6 1_555 1_555
C79_6 H50_6 1_555 1_555
N17_6 N16_6 1_555 1_555
N18_6 N17_6 1_555 1_555
C80_6 C73_6 1_555 1_555
N19_6 N15_6 1_555 1_555
N20_6 C78_6 1_555 1_555
C81_8 C82_6 1_555 1_555
C83_6 H52_6 1_555 1_555
C84_6 N15_6 1_555 1_555
C85_6 H53_6 1_555 1_555
C86_6 C85_6 1_555 1_555
C87_6 C85_6 1_555 1_555
C88_6 C86_6 1_555 1_555
H54_6 C88_6 1_555 1_555
C89_6 C87_6 1_555 1_555
H55_6 C89_6 1_555 1_555
C90_6 N16_6 1_555 1_555
C91_6 C94_6 1_555 1_555
C93_6 C81_8 1_555 1_555
H56_6 C93_6 1_555 1_555
C94_6 C83_6 1_555 1_555
C95_6 C86_6 1_555 1_555
C96_6 C87_6 1_555 1_555
O24_6 C91_6 1_555 1_555
O26_6 C91_6 1_555 1_555
O43_4 C96_6 1_555 1_555
O45_4 C96_6 1_555 1_555
C71_6 C72_6 1_555 1_555
C75_6 C76_6 1_555 1_555
C77_6 C78_6 1_555 1_555
C79_6 C80_6 1_555 1_555
N18_6 C80_6 1_555 1_555
N19_6 N20_6 1_555 1_555
C82_6 C84_6 1_555 1_555
C83_6 C84_6 1_555 1_555
C88_6 C90_6 1_555 1_555
C89_6 C90_6 1_555 1_555
C93_6 C94_6 1_555 1_555
C95_6 O41_4 1_555 1_555
C95_6 O42_4 1_555 1_555
O24_6 Zn12_4 1_555 1_555
O26_6 Zn16_4 1_555 1_555
Zn10_2 O17_6 1_555 1_555
Zn14_2 O18_6 1_555 1_555
O17_6 H31_6 1_555 1_555
O18_6 H32_6 1_555 1_555
O19_6 C51_6 1_555 1_555
O20_6 Zn10_2 1_555 1_555
O21_6 C51_6 1_555 1_555
O22_6 Zn14_2 1_555 1_555
C49_6 H33_6 1_555 1_555
C50_6 C49_6 1_555 1_555
C51_6 C50_6 1_555 1_555
C52_6 C50_6 1_555 1_555
H34_6 C52_6 1_555 1_555
N11_6 C56_6 1_555 1_555
C53_6 C52_6 1_555 1_555
C54_6 O20_6 1_555 1_555
C55_6 C53_6 1_555 1_555
H35_6 C55_6 1_555 1_555
C56_6 C49_6 1_555 1_555
C57_6 N11_6 1_555 1_555
H36_6 C57_6 1_555 1_555
N12_6 N11_6 1_555 1_555
C58_6 C57_6 1_555 1_555
C59_6 C58_6 1_555 1_555
N13_6 N12_6 1_555 1_555
C60_6 C59_6 1_555 1_555
H37_6 C60_6 1_555 1_555
C61_6 C59_6 1_555 1_555
H38_6 C61_6 1_555 1_555
C62_6 C61_6 1_555 1_555
H39_6 C62_6 1_555 1_555
C63_6 C60_6 1_555 1_555
H40_6 C63_6 1_555 1_555
C64_6 C62_6 1_555 1_555
N14_6 C64_6 1_555 1_555
H41_6 C66_6 1_555 1_555
C70_6 C66_6 1_555 1_555
H44_6 C70_6 1_555 1_555
C92_6 C81_9 1_555 1_555
O23_6 C92_6 1_555 1_555
O25_6 C92_6 1_555 1_555
Zn9_3 O21_6 1_555 1_555
Zn13_2 O23_6 1_555 1_555
Zn17_2 O25_6 1_555 1_555
Zn20_3 O19_6 1_555 1_555
O34_6 Zn10_2 1_555 1_555
O36_6 Zn10_2 1_555 1_555
O38_6 Zn14_2 1_555 1_555
O40_6 Zn14_2 1_555 1_555
O22_6 C54_6 1_555 1_555
C53_6 C54_6 1_555 1_555
C55_6 C56_6 1_555 1_555
C58_6 N13_6 1_555 1_555
C63_6 C64_6 1_555 1_555
O17_6 H59_6 1_555 1_555
O18_6 H60_6 1_555 1_555
Zn9_2 O4_11 1_555 1_555
O4_11 H3_8 1_555 1_555
O5_11 Zn20_2 1_555 1_555
H4_8 O5_11 1_555 1_555
O31_8 Zn20_2 1_555 1_555
O32_8 Zn9_2 1_555 1_555
O44_8 Zn9_2 1_555 1_555
O46_8 Zn20_2 1_555 1_555
Zn9_3 O4_12 1_555 1_555
O5_12 Zn20_3 1_555 1_555
H29_8 O4_12 1_555 1_555
H30_8 O5_12 1_555 1_555
O44 C48_3 1_555 1_555
O46 C48_3 1_555 1_555
Zn11_2 O1_3 1_555 1_555
Zn15_2 O2_3 1_555 1_555
O1_3 H1_3 1_555 1_555
O2_3 H2_3 1_555 1_555
O31_3 C3_3 1_555 1_555
O6_3 Zn11_2 1_555 1_555
O8_3 Zn15_2 1_555 1_555
C1_3 H5_3 1_555 1_555
C2_3 C1_3 1_555 1_555
C3_3 O32_3 1_555 1_555
C4_3 C2_3 1_555 1_555
H6_3 C4_3 1_555 1_555
N1_3 C8_3 1_555 1_555
C5_3 C4_3 1_555 1_555
C6_3 O6_3 1_555 1_555
C7_3 C5_3 1_555 1_555
H7_3 C7_3 1_555 1_555
C8_3 C1_3 1_555 1_555
C9_3 N1_3 1_555 1_555
H8_3 C9_3 1_555 1_555
N2_3 N1_3 1_555 1_555
C10_3 C9_3 1_555 1_555
C11_3 C10_3 1_555 1_555
N3_3 N2_3 1_555 1_555
C12_3 C11_3 1_555 1_555
H9_3 C12_3 1_555 1_555
C13_3 C11_3 1_555 1_555
H10_3 C13_3 1_555 1_555
C14_3 C13_3 1_555 1_555
H11_3 C14_3 1_555 1_555
C15_3 C12_3 1_555 1_555
H12_3 C15_3 1_555 1_555
C16_3 C14_3 1_555 1_555
N4_3 C16_3 1_555 1_555
C17_3 N4_3 1_555 1_555
C18_3 C17_3 1_555 1_555
H13_3 C18_3 1_555 1_555
C19_3 C17_3 1_555 1_555
H14_3 C19_3 1_555 1_555
C20_3 N4_3 1_555 1_555
C21_3 C20_3 1_555 1_555
H15_3 C21_3 1_555 1_555
C22_3 C18_3 1_555 1_555
H16_3 C22_3 1_555 1_555
C23_3 C22_3 1_555 1_555
C24_3 C19_3 1_555 1_555
H17_3 C24_3 1_555 1_555
C25_3 C26_3 1_555 1_555
C26_3 C21_3 1_555 1_555
H18_3 C26_3 1_555 1_555
C27_3 C25_3 1_555 1_555
H19_3 C27_3 1_555 1_555
C28_3 C20_3 1_555 1_555
H20_3 C28_3 1_555 1_555
N5_3 C29_3 1_555 1_555
C29_3 H21_3 1_555 1_555
C30_3 C23_3 1_555 1_555
N6_3 C31_3 1_555 1_555
C31_3 H22_3 1_555 1_555
N7_3 N6_3 1_555 1_555
N8_3 N7_3 1_555 1_555
C32_3 C25_3 1_555 1_555
N9_3 N5_3 1_555 1_555
N10_3 C30_3 1_555 1_555
C33_4 C34_3 1_555 1_555
C34_3 H23_3 1_555 1_555
C35_3 H24_3 1_555 1_555
C36_3 N5_3 1_555 1_555
C37_3 H25_3 1_555 1_555
C38_3 C37_3 1_555 1_555
C39_3 C37_3 1_555 1_555
C40_3 C38_3 1_555 1_555
H26_3 C40_3 1_555 1_555
C41_3 C39_3 1_555 1_555
H27_3 C41_3 1_555 1_555
C42_3 N6_3 1_555 1_555
C43_3 C46_3 1_555 1_555
C44_3 C33_4 1_555 1_555
C45_3 C33_4 1_555 1_555
H28_3 C45_3 1_555 1_555
C46_3 C35_3 1_555 1_555
C47_3 C38_3 1_555 1_555
O33_2 C44_3 1_555 1_555
O36_6 C43_3 1_555 1_555
O37_2 C44_3 1_555 1_555
O40_6 C43_3 1_555 1_555
O13_3 C47_3 1_555 1_555
O14_3 C47_3 1_555 1_555
Zn12_3 O17_7 1_555 1_555
Zn16_3 O18_7 1_555 1_555
O17_7 H31_7 1_555 1_555
O18_7 H32_7 1_555 1_555
O31_4 C51_7 1_555 1_555
O20_7 Zn12_3 1_555 1_555
O32_4 C51_7 1_555 1_555
O22_7 Zn16_3 1_555 1_555
C49_7 H33_7 1_555 1_555
C50_7 C49_7 1_555 1_555
C51_7 C50_7 1_555 1_555
C52_7 C50_7 1_555 1_555
H34_7 C52_7 1_555 1_555
N11_7 C56_7 1_555 1_555
C53_7 C52_7 1_555 1_555
C54_7 O20_7 1_555 1_555
C55_7 C53_7 1_555 1_555
H35_7 C55_7 1_555 1_555
C56_7 C49_7 1_555 1_555
C57_7 N11_7 1_555 1_555
H36_7 C57_7 1_555 1_555
N12_7 N11_7 1_555 1_555
C58_7 C57_7 1_555 1_555
C59_7 C58_7 1_555 1_555
N13_7 N12_7 1_555 1_555
C60_7 C59_7 1_555 1_555
H37_7 C60_7 1_555 1_555
C61_7 C59_7 1_555 1_555
H38_7 C61_7 1_555 1_555
C62_7 C61_7 1_555 1_555
H39_7 C62_7 1_555 1_555
C63_7 C60_7 1_555 1_555
H40_7 C63_7 1_555 1_555
C64_7 C62_7 1_555 1_555
N14_7 C64_7 1_555 1_555
C65_7 N14_7 1_555 1_555
C66_7 C65_7 1_555 1_555
H41_7 C66_7 1_555 1_555
C67_7 C65_7 1_555 1_555
H42_7 C67_7 1_555 1_555
C68_7 N14_7 1_555 1_555
C69_7 C68_7 1_555 1_555
H43_7 C69_7 1_555 1_555
C70_7 C66_7 1_555 1_555
H44_7 C70_7 1_555 1_555
C71_7 C70_7 1_555 1_555
C72_7 C67_7 1_555 1_555
H45_7 C72_7 1_555 1_555
C73_7 C74_7 1_555 1_555
C74_7 C69_7 1_555 1_555
H46_7 C74_7 1_555 1_555
C75_7 C73_7 1_555 1_555
H47_7 C75_7 1_555 1_555
C76_7 C68_7 1_555 1_555
H48_7 C76_7 1_555 1_555
N15_7 C77_7 1_555 1_555
C77_7 H49_7 1_555 1_555
C78_7 C71_7 1_555 1_555
N16_7 C79_7 1_555 1_555
C79_7 H50_7 1_555 1_555
N17_7 N16_7 1_555 1_555
N18_7 N17_7 1_555 1_555
C80_7 C73_7 1_555 1_555
N19_7 N15_7 1_555 1_555
N20_7 C78_7 1_555 1_555
C81_10 C82_7 1_555 1_555
C82_7 H51_7 1_555 1_555
C83_7 H52_7 1_555 1_555
C84_7 N15_7 1_555 1_555
C85_7 H53_7 1_555 1_555
C86_7 C85_7 1_555 1_555
C87_7 C85_7 1_555 1_555
C88_7 C86_7 1_555 1_555
H54_7 C88_7 1_555 1_555
C89_7 C87_7 1_555 1_555
H55_7 C89_7 1_555 1_555
C90_7 N16_7 1_555 1_555
C91_7 C94_7 1_555 1_555
C92_7 C81_10 1_555 1_555
C93_7 C81_10 1_555 1_555
H56_7 C93_7 1_555 1_555
C94_7 C83_7 1_555 1_555
C95_7 C86_7 1_555 1_555
O34_4 C92_7 1_555 1_555
O35_2 C91_7 1_555 1_555
O38_4 C92_7 1_555 1_555
O39_2 C91_7 1_555 1_555
O27_3 Zn11_2 1_555 1_555
O28_3 Zn15_2 1_555 1_555
Zn13_2 O13_3 1_555 1_555
Zn17_2 O14_3 1_555 1_555
O41_5 Zn12_3 1_555 1_555
O42_5 Zn16_3 1_555 1_555
O8_3 C6_3 1_555 1_555
C2_3 C3_3 1_555 1_555
C5_3 C6_3 1_555 1_555
C7_3 C8_3 1_555 1_555
C10_3 N3_3 1_555 1_555
C15_3 C16_3 1_555 1_555
C23_3 C24_3 1_555 1_555
C27_3 C28_3 1_555 1_555
C29_3 C30_3 1_555 1_555
C31_3 C32_3 1_555 1_555
N8_3 C32_3 1_555 1_555
N9_3 N10_3 1_555 1_555
C34_3 C36_3 1_555 1_555
C35_3 C36_3 1_555 1_555
C40_3 C42_3 1_555 1_555
C41_3 C42_3 1_555 1_555
C45_3 C46_3 1_555 1_555
O22_7 C54_7 1_555 1_555
C53_7 C54_7 1_555 1_555
C55_7 C56_7 1_555 1_555
C58_7 N13_7 1_555 1_555
C63_7 C64_7 1_555 1_555
C71_7 C72_7 1_555 1_555
C75_7 C76_7 1_555 1_555
C77_7 C78_7 1_555 1_555
C79_7 C80_7 1_555 1_555
N18_7 C80_7 1_555 1_555
N19_7 N20_7 1_555 1_555
C82_7 C84_7 1_555 1_555
C83_7 C84_7 1_555 1_555
C88_7 C90_7 1_555 1_555
C89_7 C90_7 1_555 1_555
C93_7 C94_7 1_555 1_555
C95_7 O27_3 1_555 1_555
C95_7 O28_3 1_555 1_555
O1_3 H57_3 1_555 1_555
O2_3 H58_3 1_555 1_555
O17_7 H59_7 1_555 1_555
O18_7 H60_7 1_555 1_555
O44_2 C96_7 1_555 1_555
O46_2 C96_7 1_555 1_555
Zn12_4 O17_8 1_555 1_555
Zn16_4 O18_8 1_555 1_555
O17_8 H31_8 1_555 1_555
O18_8 H32_8 1_555 1_555
O31 C51_8 1_555 1_555
O20_8 Zn12_4 1_555 1_555
O32 C51_8 1_555 1_555
O22_8 Zn16_4 1_555 1_555
C49_8 H33_8 1_555 1_555
C50_8 C49_8 1_555 1_555
C51_8 C50_8 1_555 1_555
C52_8 C50_8 1_555 1_555
H34_8 C52_8 1_555 1_555
N11_8 C56_8 1_555 1_555
C53_8 C52_8 1_555 1_555
C54_8 O20_8 1_555 1_555
C55_8 C53_8 1_555 1_555
H35_8 C55_8 1_555 1_555
C56_8 C49_8 1_555 1_555
C57_8 N11_8 1_555 1_555
H36_8 C57_8 1_555 1_555
N12_8 N11_8 1_555 1_555
C58_8 C57_8 1_555 1_555
C59_8 C58_8 1_555 1_555
N13_8 N12_8 1_555 1_555
C60_8 C59_8 1_555 1_555
H37_8 C60_8 1_555 1_555
C61_8 C59_8 1_555 1_555
H38_8 C61_8 1_555 1_555
C62_8 C61_8 1_555 1_555
H39_8 C62_8 1_555 1_555
C63_8 C60_8 1_555 1_555
H40_8 C63_8 1_555 1_555
C64_8 C62_8 1_555 1_555
N14_8 C64_8 1_555 1_555
C65_8 N14_8 1_555 1_555
C66_8 C65_8 1_555 1_555
H41_8 C66_8 1_555 1_555
C67_8 C65_8 1_555 1_555
H42_8 C67_8 1_555 1_555
C68_8 N14_8 1_555 1_555
C69_8 C68_8 1_555 1_555
H43_8 C69_8 1_555 1_555
C70_8 C66_8 1_555 1_555
H44_8 C70_8 1_555 1_555
C71_8 C70_8 1_555 1_555
C72_8 C67_8 1_555 1_555
H45_8 C72_8 1_555 1_555
C73_8 C74_8 1_555 1_555
C74_8 C69_8 1_555 1_555
H46_8 C74_8 1_555 1_555
C75_8 C73_8 1_555 1_555
H47_8 C75_8 1_555 1_555
C76_8 C68_8 1_555 1_555
H48_8 C76_8 1_555 1_555
N15_8 C77_8 1_555 1_555
C77_8 H49_8 1_555 1_555
C78_8 C71_8 1_555 1_555
N16_8 C79_8 1_555 1_555
C79_8 H50_8 1_555 1_555
N17_8 N16_8 1_555 1_555
N18_8 N17_8 1_555 1_555
C80_8 C73_8 1_555 1_555
N19_8 N15_8 1_555 1_555
N20_8 C78_8 1_555 1_555
C81_11 C82_8 1_555 1_555
C82_8 H51_8 1_555 1_555
C83_8 H52_8 1_555 1_555
C84_8 N15_8 1_555 1_555
C85_8 H53_8 1_555 1_555
C86_8 C85_8 1_555 1_555
C87_8 C85_8 1_555 1_555
C88_8 C86_8 1_555 1_555
H54_8 C88_8 1_555 1_555
C89_8 C87_8 1_555 1_555
H55_8 C89_8 1_555 1_555
C90_8 N16_8 1_555 1_555
C91_8 C94_8 1_555 1_555
C92_8 C81_11 1_555 1_555
C93_8 C81_11 1_555 1_555
H56_8 C93_8 1_555 1_555
C94_8 C83_8 1_555 1_555
C95_8 C86_8 1_555 1_555
O34_5 C92_8 1_555 1_555
O36_4 C91_8 1_555 1_555
O38_5 C92_8 1_555 1_555
O40_4 C91_8 1_555 1_555
O41_6 Zn12_4 1_555 1_555
O42_6 Zn16_4 1_555 1_555
O22_8 C54_8 1_555 1_555
C53_8 C54_8 1_555 1_555
C55_8 C56_8 1_555 1_555
C58_8 N13_8 1_555 1_555
C63_8 C64_8 1_555 1_555
C71_8 C72_8 1_555 1_555
C75_8 C76_8 1_555 1_555
C77_8 C78_8 1_555 1_555
C79_8 C80_8 1_555 1_555
N18_8 C80_8 1_555 1_555
N19_8 N20_8 1_555 1_555
C82_8 C84_8 1_555 1_555
C83_8 C84_8 1_555 1_555
C88_8 C90_8 1_555 1_555
C89_8 C90_8 1_555 1_555
C93_8 C94_8 1_555 1_555
C95_8 O41_5 1_555 1_555
C95_8 O42_5 1_555 1_555
O17_8 H59_8 1_555 1_555
O18_8 H60_8 1_555 1_555
O44_3 C96_8 1_555 1_555
O46_3 C96_8 1_555 1_555
O44_4 C96_9 1_555 1_555
O46_4 C96_9 1_555 1_555
Zn13_2 O17_9 1_555 1_555
Zn17_2 O18_9 1_555 1_555
O17_9 H31_9 1_555 1_555
O18_9 H32_9 1_555 1_555
O31_2 C51_9 1_555 1_555
O20_9 Zn13_2 1_555 1_555
O32_2 C51_9 1_555 1_555
O22_9 Zn17_2 1_555 1_555
C49_9 H33_9 1_555 1_555
C50_9 C49_9 1_555 1_555
C51_9 C50_9 1_555 1_555
C52_9 C50_9 1_555 1_555
H34_9 C52_9 1_555 1_555
N11_9 C56_9 1_555 1_555
C53_9 C52_9 1_555 1_555
C54_9 O20_9 1_555 1_555
C55_9 C53_9 1_555 1_555
H35_9 C55_9 1_555 1_555
C56_9 C49_9 1_555 1_555
C57_9 N11_9 1_555 1_555
H36_9 C57_9 1_555 1_555
N12_9 N11_9 1_555 1_555
C58_9 C57_9 1_555 1_555
C59_9 C58_9 1_555 1_555
N13_9 N12_9 1_555 1_555
C60_9 C59_9 1_555 1_555
H37_9 C60_9 1_555 1_555
C61_9 C59_9 1_555 1_555
H38_9 C61_9 1_555 1_555
C62_9 C61_9 1_555 1_555
H39_9 C62_9 1_555 1_555
C63_9 C60_9 1_555 1_555
H40_9 C63_9 1_555 1_555
C64_9 C62_9 1_555 1_555
N14_9 C64_9 1_555 1_555
C65_9 N14_9 1_555 1_555
C66_9 C65_9 1_555 1_555
H41_9 C66_9 1_555 1_555
C67_9 C65_9 1_555 1_555
H42_9 C67_9 1_555 1_555
C68_9 N14_9 1_555 1_555
C69_9 C68_9 1_555 1_555
H43_9 C69_9 1_555 1_555
C70_9 C66_9 1_555 1_555
H44_9 C70_9 1_555 1_555
C71_9 C70_9 1_555 1_555
C72_9 C67_9 1_555 1_555
H45_9 C72_9 1_555 1_555
C73_9 C74_9 1_555 1_555
C74_9 C69_9 1_555 1_555
H46_9 C74_9 1_555 1_555
C75_9 C73_9 1_555 1_555
H47_9 C75_9 1_555 1_555
C76_9 C68_9 1_555 1_555
H48_9 C76_9 1_555 1_555
N15_9 C77_9 1_555 1_555
C77_9 H49_9 1_555 1_555
C78_9 C71_9 1_555 1_555
N16_9 C79_9 1_555 1_555
C79_9 H50_9 1_555 1_555
N17_9 N16_9 1_555 1_555
N18_9 N17_9 1_555 1_555
C80_9 C73_9 1_555 1_555
N19_9 N15_9 1_555 1_555
N20_9 C78_9 1_555 1_555
C81_12 C82_9 1_555 1_555
C82_9 H51_9 1_555 1_555
C83_9 H52_9 1_555 1_555
C84_9 N15_9 1_555 1_555
C85_9 H53_9 1_555 1_555
C86_9 C85_9 1_555 1_555
C87_9 C85_9 1_555 1_555
C88_9 C86_9 1_555 1_555
H54_9 C88_9 1_555 1_555
C89_9 C87_9 1_555 1_555
H55_9 C89_9 1_555 1_555
C90_9 N16_9 1_555 1_555
C91_9 C94_9 1_555 1_555
C92_9 C81_12 1_555 1_555
C93_9 C81_12 1_555 1_555
H56_9 C93_9 1_555 1_555
C94_9 C83_9 1_555 1_555
C95_9 C86_9 1_555 1_555
O34_6 C92_9 1_555 1_555
O36_5 C91_9 1_555 1_555
O38_6 C92_9 1_555 1_555
O40_5 C91_9 1_555 1_555
O22_9 C54_9 1_555 1_555
C53_9 C54_9 1_555 1_555
C55_9 C56_9 1_555 1_555
C58_9 N13_9 1_555 1_555
C63_9 C64_9 1_555 1_555
C71_9 C72_9 1_555 1_555
C75_9 C76_9 1_555 1_555
C77_9 C78_9 1_555 1_555
C79_9 C80_9 1_555 1_555
N18_9 C80_9 1_555 1_555
N19_9 N20_9 1_555 1_555
C82_9 C84_9 1_555 1_555
C83_9 C84_9 1_555 1_555
C88_9 C90_9 1_555 1_555
C89_9 C90_9 1_555 1_555
C93_9 C94_9 1_555 1_555
C95_9 O41_6 1_555 1_555
C95_9 O42_6 1_555 1_555
O17_9 H59_9 1_555 1_555
O18_9 H60_9 1_555 1_555
C19_4 C17_4 1_555 1_555
H14_4 C19_4 1_555 1_555
C21_4 C20_4 1_555 1_555
H15_4 C21_4 1_555 1_555
C24_4 C19_4 1_555 1_555
H17_4 C24_4 1_555 1_555
C25_4 C26_4 1_555 1_555
C26_4 C21_4 1_555 1_555
H18_4 C26_4 1_555 1_555
C27_4 C25_4 1_555 1_555
H19_4 C27_4 1_555 1_555
C28_4 C20_4 1_555 1_555
H20_4 C28_4 1_555 1_555
N5_4 C29_4 1_555 1_555
C30_4 C23_4 1_555 1_555
N6_4 C31_4 1_555 1_555
C31_4 H22_4 1_555 1_555
N7_4 N6_4 1_555 1_555
N8_4 N7_4 1_555 1_555
C32_4 C25_4 1_555 1_555
N9_4 N5_4 1_555 1_555
N10_4 C30_4 1_555 1_555
C33_5 C34_4 1_555 1_555
C35_4 H24_4 1_555 1_555
C36_4 N5_4 1_555 1_555
C37_4 H25_4 1_555 1_555
C38_4 C37_4 1_555 1_555
C39_4 C37_4 1_555 1_555
C40_4 C38_4 1_555 1_555
H26_4 C40_4 1_555 1_555
C41_4 C39_4 1_555 1_555
H27_4 C41_4 1_555 1_555
C42_4 N6_4 1_555 1_555
C43_4 C46_4 1_555 1_555
C45_4 C33_5 1_555 1_555
H28_4 C45_4 1_555 1_555
C46_4 C35_4 1_555 1_555
C47_4 C38_4 1_555 1_555
C48_4 C39_4 1_555 1_555
O36_3 C43_4 1_555 1_555
O40_3 C43_4 1_555 1_555
O13_4 C47_4 1_555 1_555
O14_4 C47_4 1_555 1_555
O44_5 C48_4 1_555 1_555
O46_5 C48_4 1_555 1_555
Zn13 O13_4 1_555 1_555
Zn17 O14_4 1_555 1_555
C23_4 C24_4 1_555 1_555
C27_4 C28_4 1_555 1_555
C29_4 C30_4 1_555 1_555
C31_4 C32_4 1_555 1_555
N8_4 C32_4 1_555 1_555
N9_4 N10_4 1_555 1_555
C34_4 C36_4 1_555 1_555
C35_4 C36_4 1_555 1_555
C40_4 C42_4 1_555 1_555
C41_4 C42_4 1_555 1_555
C45_4 C46_4 1_555 1_555
Zn11 O1_4 1_555 1_555
Zn15 O2_4 1_555 1_555
O1_4 H1_4 1_555 1_555
O2_4 H2_4 1_555 1_555
O31_7 C3_4 1_555 1_555
O6_4 Zn11 1_555 1_555
O8_4 Zn15 1_555 1_555
C1_4 H5_4 1_555 1_555
C2_4 C1_4 1_555 1_555
C3_4 O32_7 1_555 1_555
C4_4 C2_4 1_555 1_555
H6_4 C4_4 1_555 1_555
N1_4 C8_4 1_555 1_555
C5_4 C4_4 1_555 1_555
C6_4 O6_4 1_555 1_555
C7_4 C5_4 1_555 1_555
H7_4 C7_4 1_555 1_555
C8_4 C1_4 1_555 1_555
C9_4 N1_4 1_555 1_555
H8_4 C9_4 1_555 1_555
N2_4 N1_4 1_555 1_555
C10_4 C9_4 1_555 1_555
C11_4 C10_4 1_555 1_555
N3_4 N2_4 1_555 1_555
C12_4 C11_4 1_555 1_555
H9_4 C12_4 1_555 1_555
C13_4 C11_4 1_555 1_555
H10_4 C13_4 1_555 1_555
C14_4 C13_4 1_555 1_555
H11_4 C14_4 1_555 1_555
C15_4 C12_4 1_555 1_555
H12_4 C15_4 1_555 1_555
C16_4 C14_4 1_555 1_555
N4_4 C16_4 1_555 1_555
H13_4 C18_4 1_555 1_555
C22_4 C18_4 1_555 1_555
H16_4 C22_4 1_555 1_555
C44_4 C33_6 1_555 1_555
O33 C44_4 1_555 1_555
O37 C44_4 1_555 1_555
C67_10 C65_10 1_555 1_555
H42_10 C67_10 1_555 1_555
C69_10 C68_10 1_555 1_555
H43_10 C69_10 1_555 1_555
C72_10 C67_10 1_555 1_555
H45_10 C72_10 1_555 1_555
C73_10 C74_10 1_555 1_555
C74_10 C69_10 1_555 1_555
H46_10 C74_10 1_555 1_555
C75_10 C73_10 1_555 1_555
H47_10 C75_10 1_555 1_555
C76_10 C68_10 1_555 1_555
H48_10 C76_10 1_555 1_555
N15_10 C77_10 1_555 1_555
C78_10 C71_10 1_555 1_555
N16_10 C79_10 1_555 1_555
C79_10 H50_10 1_555 1_555
N17_10 N16_10 1_555 1_555
N18_10 N17_10 1_555 1_555
C80_10 C73_10 1_555 1_555
N19_10 N15_10 1_555 1_555
N20_10 C78_10 1_555 1_555
C81_13 C82_10 1_555 1_555
C83_10 H52_10 1_555 1_555
C84_10 N15_10 1_555 1_555
C85_10 H53_10 1_555 1_555
C86_10 C85_10 1_555 1_555
C87_10 C85_10 1_555 1_555
C88_10 C86_10 1_555 1_555
H54_10 C88_10 1_555 1_555
C89_10 C87_10 1_555 1_555
H55_10 C89_10 1_555 1_555
C90_10 N16_10 1_555 1_555
C91_10 C94_10 1_555 1_555
C93_10 C81_13 1_555 1_555
H56_10 C93_10 1_555 1_555
C94_10 C83_10 1_555 1_555
C95_10 C86_10 1_555 1_555
C96_10 C87_10 1_555 1_555
O35 C91_10 1_555 1_555
O39 C91_10 1_555 1_555
O27_4 Zn11 1_555 1_555
O28_4 Zn15 1_555 1_555
O44_6 C96_10 1_555 1_555
O46_6 C96_10 1_555 1_555
O8_4 C6_4 1_555 1_555
C2_4 C3_4 1_555 1_555
C5_4 C6_4 1_555 1_555
C7_4 C8_4 1_555 1_555
C10_4 N3_4 1_555 1_555
C15_4 C16_4 1_555 1_555
C71_10 C72_10 1_555 1_555
C75_10 C76_10 1_555 1_555
C77_10 C78_10 1_555 1_555
C79_10 C80_10 1_555 1_555
N18_10 C80_10 1_555 1_555
N19_10 N20_10 1_555 1_555
C82_10 C84_10 1_555 1_555
C83_10 C84_10 1_555 1_555
C88_10 C90_10 1_555 1_555
C89_10 C90_10 1_555 1_555
C93_10 C94_10 1_555 1_555
C95_10 O27_4 1_555 1_555
C95_10 O28_4 1_555 1_555
O1_4 H57_4 1_555 1_555
O2_4 H58_4 1_555 1_555
Zn12 O17_10 1_555 1_555
Zn16 O18_10 1_555 1_555
O17_10 H31_10 1_555 1_555
O18_10 H32_10 1_555 1_555
O31_8 C51_10 1_555 1_555
O20_10 Zn12 1_555 1_555
O32_8 C51_10 1_555 1_555
O22_10 Zn16 1_555 1_555
C49_10 H33_10 1_555 1_555
C50_10 C49_10 1_555 1_555
C51_10 C50_10 1_555 1_555
C52_10 C50_10 1_555 1_555
H34_10 C52_10 1_555 1_555
N11_10 C56_10 1_555 1_555
C53_10 C52_10 1_555 1_555
C54_10 O20_10 1_555 1_555
C55_10 C53_10 1_555 1_555
H35_10 C55_10 1_555 1_555
C56_10 C49_10 1_555 1_555
C57_10 N11_10 1_555 1_555
H36_10 C57_10 1_555 1_555
N12_10 N11_10 1_555 1_555
C58_10 C57_10 1_555 1_555
C59_10 C58_10 1_555 1_555
N13_10 N12_10 1_555 1_555
C60_10 C59_10 1_555 1_555
H37_10 C60_10 1_555 1_555
C61_10 C59_10 1_555 1_555
H38_10 C61_10 1_555 1_555
C62_10 C61_10 1_555 1_555
H39_10 C62_10 1_555 1_555
C63_10 C60_10 1_555 1_555
H40_10 C63_10 1_555 1_555
C64_10 C62_10 1_555 1_555
N14_10 C64_10 1_555 1_555
H41_10 C66_10 1_555 1_555
C70_10 C66_10 1_555 1_555
H44_10 C70_10 1_555 1_555
C92_10 C81_14 1_555 1_555
O34 C92_10 1_555 1_555
O38 C92_10 1_555 1_555
O41_7 Zn12 1_555 1_555
O42_7 Zn16 1_555 1_555
O22_10 C54_10 1_555 1_555
C53_10 C54_10 1_555 1_555
C55_10 C56_10 1_555 1_555
C58_10 N13_10 1_555 1_555
C63_10 C64_10 1_555 1_555
O17_10 H59_10 1_555 1_555
O18_10 H60_10 1_555 1_555
Zn12_2 O17_11 1_555 1_555
Zn16_2 O18_11 1_555 1_555
O17_11 H31_11 1_555 1_555
O18_11 H32_11 1_555 1_555
O31_5 C51_11 1_555 1_555
O20_11 Zn12_2 1_555 1_555
O32_5 C51_11 1_555 1_555
O22_11 Zn16_2 1_555 1_555
C49_11 H33_11 1_555 1_555
C50_11 C49_11 1_555 1_555
C51_11 C50_11 1_555 1_555
C52_11 C50_11 1_555 1_555
H34_11 C52_11 1_555 1_555
N11_11 C56_11 1_555 1_555
C53_11 C52_11 1_555 1_555
C54_11 O20_11 1_555 1_555
C55_11 C53_11 1_555 1_555
H35_11 C55_11 1_555 1_555
C56_11 C49_11 1_555 1_555
C57_11 N11_11 1_555 1_555
H36_11 C57_11 1_555 1_555
N12_11 N11_11 1_555 1_555
C58_11 C57_11 1_555 1_555
C59_11 C58_11 1_555 1_555
N13_11 N12_11 1_555 1_555
C60_11 C59_11 1_555 1_555
H37_11 C60_11 1_555 1_555
C61_11 C59_11 1_555 1_555
H38_11 C61_11 1_555 1_555
C62_11 C61_11 1_555 1_555
H39_11 C62_11 1_555 1_555
C63_11 C60_11 1_555 1_555
H40_11 C63_11 1_555 1_555
C64_11 C62_11 1_555 1_555
N14_11 C64_11 1_555 1_555
H41_11 C66_11 1_555 1_555
C70_11 C66_11 1_555 1_555
H44_11 C70_11 1_555 1_555
C92_11 C81_15 1_555 1_555
O34_2 C92_11 1_555 1_555
O38_2 C92_11 1_555 1_555
O41_8 Zn12_2 1_555 1_555
O42_8 Zn16_2 1_555 1_555
O22_11 C54_11 1_555 1_555
C53_11 C54_11 1_555 1_555
C55_11 C56_11 1_555 1_555
C58_11 N13_11 1_555 1_555
C63_11 C64_11 1_555 1_555
O17_11 H59_11 1_555 1_555
O18_11 H60_11 1_555 1_555
C67_11 C65_11 1_555 1_555
H42_11 C67_11 1_555 1_555
C69_11 C68_11 1_555 1_555
H43_11 C69_11 1_555 1_555
C72_11 C67_11 1_555 1_555
H45_11 C72_11 1_555 1_555
C73_11 C74_11 1_555 1_555
C74_11 C69_11 1_555 1_555
H46_11 C74_11 1_555 1_555
C75_11 C73_11 1_555 1_555
H47_11 C75_11 1_555 1_555
C76_11 C68_11 1_555 1_555
H48_11 C76_11 1_555 1_555
N15_11 C77_11 1_555 1_555
C78_11 C71_11 1_555 1_555
N16_11 C79_11 1_555 1_555
C79_11 H50_11 1_555 1_555
N17_11 N16_11 1_555 1_555
N18_11 N17_11 1_555 1_555
C80_11 C73_11 1_555 1_555
N19_11 N15_11 1_555 1_555
N20_11 C78_11 1_555 1_555
C81_16 C82_11 1_555 1_555
C83_11 H52_11 1_555 1_555
C84_11 N15_11 1_555 1_555
C85_11 H53_11 1_555 1_555
C86_11 C85_11 1_555 1_555
C87_11 C85_11 1_555 1_555
C88_11 C86_11 1_555 1_555
H54_11 C88_11 1_555 1_555
C89_11 C87_11 1_555 1_555
H55_11 C89_11 1_555 1_555
C90_11 N16_11 1_555 1_555
C91_11 C94_11 1_555 1_555
C93_11 C81_16 1_555 1_555
H56_11 C93_11 1_555 1_555
C94_11 C83_11 1_555 1_555
C95_11 C86_11 1_555 1_555
C96_11 C87_11 1_555 1_555
O36 C91_11 1_555 1_555
O40 C91_11 1_555 1_555
O44_7 C96_11 1_555 1_555
O46_7 C96_11 1_555 1_555
C71_11 C72_11 1_555 1_555
C75_11 C76_11 1_555 1_555
C77_11 C78_11 1_555 1_555
C79_11 C80_11 1_555 1_555
N18_11 C80_11 1_555 1_555
N19_11 N20_11 1_555 1_555
C82_11 C84_11 1_555 1_555
C83_11 C84_11 1_555 1_555
C88_11 C90_11 1_555 1_555
C89_11 C90_11 1_555 1_555
C93_11 C94_11 1_555 1_555
C95_11 O41_7 1_555 1_555
C95_11 O42_7 1_555 1_555
Zn13 O17_12 1_555 1_555
Zn17 O18_12 1_555 1_555
O17_12 H31_12 1_555 1_555
O18_12 H32_12 1_555 1_555
O31_6 C51_12 1_555 1_555
O20_12 Zn13 1_555 1_555
O32_6 C51_12 1_555 1_555
O22_12 Zn17 1_555 1_555
C49_12 H33_12 1_555 1_555
C50_12 C49_12 1_555 1_555
C51_12 C50_12 1_555 1_555
C52_12 C50_12 1_555 1_555
H34_12 C52_12 1_555 1_555
N11_12 C56_12 1_555 1_555
C53_12 C52_12 1_555 1_555
C54_12 O20_12 1_555 1_555
C55_12 C53_12 1_555 1_555
H35_12 C55_12 1_555 1_555
C56_12 C49_12 1_555 1_555
C57_12 N11_12 1_555 1_555
H36_12 C57_12 1_555 1_555
N12_12 N11_12 1_555 1_555
C58_12 C57_12 1_555 1_555
C59_12 C58_12 1_555 1_555
N13_12 N12_12 1_555 1_555
C60_12 C59_12 1_555 1_555
H37_12 C60_12 1_555 1_555
C61_12 C59_12 1_555 1_555
H38_12 C61_12 1_555 1_555
C62_12 C61_12 1_555 1_555
H39_12 C62_12 1_555 1_555
C63_12 C60_12 1_555 1_555
H40_12 C63_12 1_555 1_555
C64_12 C62_12 1_555 1_555
N14_12 C64_12 1_555 1_555
H41_12 C66_12 1_555 1_555
C70_12 C66_12 1_555 1_555
H44_12 C70_12 1_555 1_555
C92_12 C81_17 1_555 1_555
O34_3 C92_12 1_555 1_555
O38_3 C92_12 1_555 1_555
O22_12 C54_12 1_555 1_555
C53_12 C54_12 1_555 1_555
C55_12 C56_12 1_555 1_555
C58_12 N13_12 1_555 1_555
C63_12 C64_12 1_555 1_555
O17_12 H59_12 1_555 1_555
O18_12 H60_12 1_555 1_555
C67_12 C65_12 1_555 1_555
H42_12 C67_12 1_555 1_555
C69_12 C68_12 1_555 1_555
H43_12 C69_12 1_555 1_555
C72_12 C67_12 1_555 1_555
H45_12 C72_12 1_555 1_555
C73_12 C74_12 1_555 1_555
C74_12 C69_12 1_555 1_555
H46_12 C74_12 1_555 1_555
C75_12 C73_12 1_555 1_555
H47_12 C75_12 1_555 1_555
C76_12 C68_12 1_555 1_555
H48_12 C76_12 1_555 1_555
N15_12 C77_12 1_555 1_555
C78_12 C71_12 1_555 1_555
N16_12 C79_12 1_555 1_555
C79_12 H50_12 1_555 1_555
N17_12 N16_12 1_555 1_555
N18_12 N17_12 1_555 1_555
C80_12 C73_12 1_555 1_555
N19_12 N15_12 1_555 1_555
N20_12 C78_12 1_555 1_555
C81_18 C82_12 1_555 1_555
C83_12 H52_12 1_555 1_555
C84_12 N15_12 1_555 1_555
C85_12 H53_12 1_555 1_555
C86_12 C85_12 1_555 1_555
C87_12 C85_12 1_555 1_555
C88_12 C86_12 1_555 1_555
H54_12 C88_12 1_555 1_555
C89_12 C87_12 1_555 1_555
H55_12 C89_12 1_555 1_555
C90_12 N16_12 1_555 1_555
C91_12 C94_12 1_555 1_555
C93_12 C81_18 1_555 1_555
H56_12 C93_12 1_555 1_555
C94_12 C83_12 1_555 1_555
C95_12 C86_12 1_555 1_555
C96_12 C87_12 1_555 1_555
O36_2 C91_12 1_555 1_555
O40_2 C91_12 1_555 1_555
O44_8 C96_12 1_555 1_555
O46_8 C96_12 1_555 1_555
C71_12 C72_12 1_555 1_555
C75_12 C76_12 1_555 1_555
C77_12 C78_12 1_555 1_555
C79_12 C80_12 1_555 1_555
N18_12 C80_12 1_555 1_555
N19_12 N20_12 1_555 1_555
C82_12 C84_12 1_555 1_555
C83_12 C84_12 1_555 1_555
C88_12 C90_12 1_555 1_555
C89_12 C90_12 1_555 1_555
C93_12 C94_12 1_555 1_555
C95_12 O41_8 1_555 1_555
C95_12 O42_8 1_555 1_555

#END
