
###############################################################################
#
# This file contains modified crystal structure data generated from the
# MOF subset of the Cambridge Structural Database (CSD) v543 
# hosted by the Cambridge Crystallographic Data Centre (CCDC).
#
# This work is licensed under the Creative Commons
# Attribution-NonCommercial-ShareAlike 4.0 International License.
# To view a copy of this license, visit
# http://creativecommons.org/licenses/by-nc-sa/4.0/
# or send a letter to
# Creative Commons, PO Box 1866, Mountain View, CA 94042, USA.
#
# CIF created using the CSD Python API on 29 September 2022
# The structure has been converted into the P1 space group
# The structure has a 3D framework
# The original CSD entry YUZPOA is in the tetragonal crystal system
# The framework has been calculated to contain at least 10.0% void space
# The void calculation uses a probe of radius 1.32A, grid spacing 0.4
# H atom positions have been added when not included in the experimental data
#
###############################################################################

data_YUZPOA
_chemical_formula_moiety         '(C576 H336 N144 O240 Zn56)n'
_symmetry_cell_setting           triclinic
_symmetry_space_group_name_H-M   'P 1'
_symmetry_Int_Tables_number      1
_space_group_name_Hall           'P 1'
loop_
_symmetry_equiv_pos_site_id
_symmetry_equiv_pos_as_xyz
1 x,y,z
_cell_length_a                   31.4206(3)
_cell_length_b                   31.4206(3)
_cell_length_c                   44.8239(5)
_cell_angle_alpha                90
_cell_angle_beta                 90
_cell_angle_gamma                90
_cell_volume                     44252.6
loop_
_atom_site_label
_atom_site_type_symbol
_atom_site_fract_x
_atom_site_fract_y
_atom_site_fract_z
C50 C 0.28677(15) 0.01397(8) 0.32169(8)
C51 C 0.31066(15) 0.04179(9) 0.33885(8)
H30 H 0.3105 0.0707 0.3345
C52 C 0.36134(17) 0.05420(9) 0.38012(9)
C53 C 0.33482(15) 0.02651(8) 0.36251(9)
C54 C 0.24266(13) 0.00969(8) 0.27428(7)
C55 C 0.26320(15) 0.03067(8) 0.29655(8)
N13 N 0.22618(12) 0.03879(7) 0.25592(6)
N14 N 0.2599(3) 0.07002(13) 0.29022(14)
N15 N 0.2386(3) 0.07559(12) 0.26462(14)
C56 C 0.36662(13) 0.09714(8) 0.37799(8)
H32 H 0.3530 0.1151 0.3646
N16 N 0.39521(12) 0.10877(7) 0.39884(7)
N17 N 0.4028(3) 0.07649(13) 0.41507(16)
N18 N 0.3854(3) 0.04251(14) 0.40156(17)
C59 C 0.18483(9) 0.06912(7) 0.21613(5)
H34 H 0.1879 0.0956 0.2251
C60 C 0.20252(10) 0.03336(7) 0.22906(6)
C61 C 0.45588(7) 0.19347(6) 0.43627(4)
C62 C 0.44120(9) 0.15344(7) 0.42832(6)
H35 H 0.4513 0.1292 0.4379
C63 C 0.41120(10) 0.15011(7) 0.40580(6)
C64 C 0.44142(7) 0.22940(6) 0.42165(4)
H36 H 0.4510 0.2562 0.4274
C65 C 0.15756(7) 0.02546(6) 0.17642(4)
H37 H 0.1421 0.0228 0.1589
C67 C 0.41251(7) 0.22526(6) 0.39841(4)
C68 C 0.16238(7) 0.06496(6) 0.18954(5)
C69 C 0.14537(6) 0.10427(6) 0.17443(4)
C70 C 0.39754(9) 0.18556(7) 0.39017(6)
H38 H 0.3786 0.1827 0.3744
C71 C 0.48911(7) 0.19743(6) 0.46024(4)
C72 C 0.39850(6) 0.26429(6) 0.38166(4)
O23 O 0.15297(5) 0.13949(4) 0.18676(3)
O26 O 0.50600(5) 0.16422(4) 0.46958(3)
O27 O 0.12570(5) 0.09850(4) 0.15062(3)
O28 O 0.49665(5) 0.23481(4) 0.46921(3)
O29 O 0.40949(5) 0.29957(4) 0.39209(3)
O30 O 0.37721(5) 0.25844(4) 0.35816(3)
Zn7 Zn 0.359883(8) 0.305905(8) 0.332380(5)
Zn10 Zn 0.140117(8) 0.194095(8) 0.167620(5)
Zn11 Zn 0.394941(8) 0.354082(8) 0.373913(5)
Zn14 Zn 0.105059(8) 0.145918(8) 0.126087(5)
Zn17 Zn 0.538880(12) 0.248628(10) 0.5000
Zn20 Zn 0.551117(11) 0.165473(10) 0.5000
C14 C 0.01397(8) 0.71323(15) 0.32169(8)
C15 C 0.04179(9) 0.68934(15) 0.33885(8)
H11 H 0.0707 0.6895 0.3345
C16 C 0.05420(9) 0.63866(17) 0.38012(9)
C17 C 0.02651(8) 0.66518(15) 0.36251(9)
C18 C 0.00969(8) 0.75734(13) 0.27428(7)
C19 C 0.03067(8) 0.73680(15) 0.29655(8)
N4 N 0.03879(7) 0.77382(12) 0.25592(6)
N5 N 0.07002(13) 0.7401(3) 0.29022(14)
N6 N 0.07559(12) 0.7614(3) 0.26462(14)
C20 C 0.09714(8) 0.63338(13) 0.37799(8)
H13 H 0.1151 0.6470 0.3646
N7 N 0.10877(7) 0.60479(12) 0.39884(7)
N8 N 0.07649(13) 0.5972(3) 0.41507(16)
N9 N 0.04251(14) 0.6146(3) 0.40156(17)
C23 C 0.06912(7) 0.81517(9) 0.21613(5)
H15 H 0.0956 0.8121 0.2251
C24 C 0.03336(7) 0.79748(10) 0.22906(6)
C25 C 0.19347(6) 0.54412(7) 0.43627(4)
C26 C 0.15344(7) 0.55880(9) 0.42832(6)
H16 H 0.1292 0.5487 0.4379
C27 C 0.15011(7) 0.58880(10) 0.40580(6)
C28 C 0.22940(6) 0.55858(7) 0.42165(4)
H17 H 0.2562 0.5490 0.4274
C29 C 0.02546(6) 0.84244(7) 0.17642(4)
H18 H 0.0228 0.8579 0.1589
C31 C 0.22526(6) 0.58749(7) 0.39841(4)
C32 C 0.06496(6) 0.83762(7) 0.18954(5)
C33 C 0.10427(6) 0.85463(6) 0.17443(4)
C34 C 0.18556(7) 0.60246(9) 0.39017(6)
H19 H 0.1827 0.6214 0.3744
C35 C 0.19743(6) 0.51089(7) 0.46024(4)
C36 C 0.26429(6) 0.60150(6) 0.38166(4)
O9 O 0.13949(4) 0.84703(5) 0.18676(3)
O12 O 0.16422(4) 0.49400(5) 0.46958(3)
O13 O 0.09850(4) 0.87430(5) 0.15062(3)
O14 O 0.23481(4) 0.50335(5) 0.46921(3)
O15 O 0.29957(4) 0.59051(5) 0.39209(3)
O16 O 0.25844(4) 0.62279(5) 0.35816(3)
Zn5 Zn 0.305905(8) 0.640117(8) 0.332380(5)
Zn6 Zn 0.354082(8) 0.605059(8) 0.373913(5)
O17 O 0.31309(5) 0.69169(4) 0.35659(3)
O18 O 0.35143(5) 0.66146(4) 0.39262(3)
O19 O 0.41726(5) 0.75040(4) 0.46913(3)
O20 O 0.40731(5) 0.82081(4) 0.46870(3)
O21 O 0.39218(9) 0.57581(10) 0.40788(5)
H22 H 0.4029 0.5539 0.4013
O22 O 0.26587(7) 0.66700(8) 0.29861(5)
H23 H 0.2787 0.6861 0.2900
C37 C 0.37217(7) 0.77921(6) 0.43242(4)
C38 C 0.40127(7) 0.78363(6) 0.45912(4)
C39 C 0.36476(7) 0.73899(6) 0.42038(4)
H24 H 0.3761 0.7149 0.4294
C40 C 0.34013(7) 0.73546(6) 0.39467(4)
C41 C 0.33406(7) 0.69262(6) 0.38002(4)
C42 C 0.32338(9) 0.77134(7) 0.38117(5)
H25 H 0.3073 0.7688 0.3638
C43 C 0.35519(9) 0.81521(7) 0.41927(5)
H26 H 0.3602 0.8419 0.4275
C44 C 0.33064(10) 0.81113(7) 0.39365(6)
N10 N 0.31486(11) 0.84733(6) 0.37878(7)
N11 N 0.2903(2) 0.84469(12) 0.35576(15)
N12 N 0.2806(2) 0.88363(13) 0.34668(15)
C45 C 0.32711(13) 0.88851(8) 0.38096(7)
H27 H 0.3478 0.8992 0.3938
C46 C 0.30390(15) 0.91147(8) 0.36124(9)
C47 C 0.28403(14) 0.97132(8) 0.32942(8)
H28 H 0.2668 0.9530 0.3185
C48 C 0.30723(14) 0.95624(8) 0.35361(8)
C49 C 0.33235(15) 0.98384(8) 0.37022(8)
H29 H 0.3475 0.9737 0.3865
H31 H 0.2405 0.9803 0.2722
C57 C 0.17590(7) 0.98970(6) 0.18948(5)
C58 C 0.19847(9) 0.99344(7) 0.21617(5)
H33 H 0.2105 0.9696 0.2251
C66 C 0.17287(6) 0.94743(6) 0.17433(4)
O24 O 0.19331(5) 0.91690(4) 0.18552(3)
O25 O 0.15021(5) 0.94541(4) 0.15122(3)
Zn9 Zn 0.194095(8) 0.859883(8) 0.167620(5)
Zn13 Zn 0.145918(8) 0.894941(8) 0.126087(5)
Zn15 Zn 0.461120(12) 0.751372(10) 0.5000
Zn16 Zn 0.248628(10) 0.461120(12) 0.5000
Zn18 Zn 0.448883(11) 0.834527(10) 0.5000
Zn19 Zn 0.165473(10) 0.448883(11) 0.5000
O33 O 0.36051(4) 0.65297(5) 0.31324(3)
O36 O 0.30669(5) 0.58310(4) 0.31448(3)
O38 O 0.34979(5) 0.55459(4) 0.34878(3)
O41 O 0.40150(4) 0.62570(5) 0.34938(3)
H41 H 0.374013 0.568821 0.425333
H42 H 0.239744 0.678744 0.30797
Zn1 Zn 0.640117(8) 0.694095(8) 0.332380(5)
Zn2 Zn 0.605059(8) 0.645918(8) 0.373913(5)
Zn3 Zn 0.751372(10) 0.538880(12) 0.5000
Zn4 Zn 0.834527(10) 0.551117(11) 0.5000
O1 O 0.69169(4) 0.68691(5) 0.35659(3)
O2 O 0.66146(4) 0.64857(5) 0.39262(3)
O3 O 0.75040(4) 0.58274(5) 0.46913(3)
O4 O 0.82081(4) 0.59269(5) 0.46870(3)
O5 O 0.57581(10) 0.60782(9) 0.40788(5)
H1 H 0.5539 0.5971 0.4013
O6 O 0.66700(8) 0.73413(7) 0.29861(5)
H2 H 0.6861 0.7213 0.2900
O7 O 0.68392(8) 0.52717(16) 0.5000
H3 H 0.6752 0.5266 0.5172
O8 O 0.90122(7) 0.56514(11) 0.5000
H4 H 0.9143 0.5452 0.5074
C1 C 0.77921(6) 0.62783(7) 0.43242(4)
C2 C 0.78363(6) 0.59873(7) 0.45912(4)
C3 C 0.73899(6) 0.63524(7) 0.42038(4)
H5 H 0.7149 0.6239 0.4294
C4 C 0.73546(6) 0.65987(7) 0.39467(4)
C5 C 0.69262(6) 0.66594(7) 0.38002(4)
C6 C 0.77134(7) 0.67662(9) 0.38117(5)
H6 H 0.7688 0.6927 0.3638
C7 C 0.81521(7) 0.64481(9) 0.41927(5)
H7 H 0.8419 0.6398 0.4275
C8 C 0.81113(7) 0.66936(10) 0.39365(6)
N1 N 0.84733(6) 0.68514(11) 0.37878(7)
N2 N 0.84469(12) 0.7097(2) 0.35576(15)
N3 N 0.88363(13) 0.7194(2) 0.34668(15)
C9 C 0.88851(8) 0.67289(13) 0.38096(7)
H8 H 0.8992 0.6522 0.3938
C10 C 0.91147(8) 0.69610(15) 0.36124(9)
C11 C 0.97132(8) 0.71597(14) 0.32942(8)
H9 H 0.9530 0.7332 0.3185
C12 C 0.95624(8) 0.69277(14) 0.35361(8)
C13 C 0.98384(8) 0.66765(15) 0.37022(8)
H10 H 0.9737 0.6525 0.3865
H12 H 0.9803 0.7595 0.2722
C21 C 0.98970(6) 0.82410(7) 0.18948(5)
C22 C 0.99344(7) 0.80153(9) 0.21617(5)
H14 H 0.9696 0.7895 0.2251
C30 C 0.94743(6) 0.82713(6) 0.17433(4)
O10 O 0.91690(4) 0.80669(5) 0.18552(3)
O11 O 0.94541(4) 0.84979(5) 0.15122(3)
H20 H 0.6752 0.5266 0.4828
H21 H 0.9143 0.5452 0.4926
Zn8 Zn 0.859883(8) 0.805905(8) 0.167620(5)
Zn12 Zn 0.894941(8) 0.854082(8) 0.126087(5)
O31 O 0.75040(4) 0.58274(5) 0.53087(3)
O32 O 0.82081(4) 0.59269(5) 0.53130(3)
O34 O 0.65297(5) 0.63949(4) 0.31324(3)
O35 O 0.58310(4) 0.69331(5) 0.31448(3)
O37 O 0.55459(4) 0.65021(5) 0.34878(3)
O39 O 0.83578(4) 0.50600(5) 0.46958(3)
O40 O 0.83578(4) 0.50600(5) 0.53042(3)
O42 O 0.62570(5) 0.59850(4) 0.34938(3)
O43 O 0.76519(4) 0.49665(5) 0.46921(3)
O44 O 0.76519(4) 0.49665(5) 0.53079(3)
O45 O 0.59051(5) 0.70043(4) 0.39209(3)
O46 O 0.62279(5) 0.74156(4) 0.35816(3)
H39 H 0.568821 0.625987 0.425333
H40 H 0.678744 0.760256 0.30797
O17_2 O 0.30831(4) 0.31309(5) 0.35659(3)
O18_2 O 0.33854(4) 0.35143(5) 0.39262(3)
O19_2 O 0.24960(4) 0.41726(5) 0.46913(3)
O20_2 O 0.17919(4) 0.40731(5) 0.46870(3)
O21_2 O 0.42419(10) 0.39218(9) 0.40788(5)
H22_2 H 0.4461 0.4029 0.4013
O22_2 O 0.33300(8) 0.26587(7) 0.29861(5)
H23_2 H 0.3139 0.2787 0.2900
C37_2 C 0.22079(6) 0.37217(7) 0.43242(4)
C38_2 C 0.21637(6) 0.40127(7) 0.45912(4)
C39_2 C 0.26101(6) 0.36476(7) 0.42038(4)
H24_2 H 0.2851 0.3761 0.4294
C40_2 C 0.26454(6) 0.34013(7) 0.39467(4)
C41_2 C 0.30738(6) 0.33406(7) 0.38002(4)
C42_2 C 0.22866(7) 0.32338(9) 0.38117(5)
H25_2 H 0.2312 0.3073 0.3638
C43_2 C 0.18479(7) 0.35519(9) 0.41927(5)
H26_2 H 0.1581 0.3602 0.4275
C44_2 C 0.18887(7) 0.33064(10) 0.39365(6)
N10_2 N 0.15267(6) 0.31486(11) 0.37878(7)
N11_2 N 0.15531(12) 0.2903(2) 0.35576(15)
N12_2 N 0.11637(13) 0.2806(2) 0.34668(15)
C45_2 C 0.11149(8) 0.32711(13) 0.38096(7)
H27_2 H 0.1008 0.3478 0.3938
C46_2 C 0.08853(8) 0.30390(15) 0.36124(9)
C47_2 C 0.02868(8) 0.28403(14) 0.32942(8)
H28_2 H 0.0470 0.2668 0.3185
C48_2 C 0.04376(8) 0.30723(14) 0.35361(8)
C49_2 C 0.01616(8) 0.33235(15) 0.37022(8)
H29_2 H 0.0263 0.3475 0.3865
H31_2 H 0.0197 0.2405 0.2722
C57_2 C 0.01030(6) 0.17590(7) 0.18948(5)
C58_2 C 0.00656(7) 0.19847(9) 0.21617(5)
H33_2 H 0.0304 0.2105 0.2251
C66_2 C 0.05257(6) 0.17287(6) 0.17433(4)
O24_2 O 0.08310(4) 0.19331(5) 0.18552(3)
O25_2 O 0.05459(4) 0.15021(5) 0.15122(3)
O33_2 O 0.34703(5) 0.36051(4) 0.31324(3)
O36_2 O 0.41690(4) 0.30669(5) 0.31448(3)
O38_2 O 0.44541(4) 0.34979(5) 0.34878(3)
O41_2 O 0.37430(5) 0.40150(4) 0.34938(3)
H41_2 H 0.431179 0.374013 0.425333
H42_2 H 0.321256 0.239744 0.30797
O7_2 O 0.47283(16) 0.68392(8) 0.5000
H3_2 H 0.4734 0.6752 0.5172
O8_2 O 0.43486(11) 0.90122(7) 0.5000
H4_2 H 0.4548 0.9143 0.5074
H20_2 H 0.4734 0.6752 0.4828
H21_2 H 0.4548 0.9143 0.4926
O31_2 O 0.41726(5) 0.75040(4) 0.53087(3)
O32_2 O 0.40731(5) 0.82081(4) 0.53130(3)
O39_2 O 0.49400(5) 0.83578(4) 0.46958(3)
O40_2 O 0.49400(5) 0.83578(4) 0.53042(3)
O43_2 O 0.50335(5) 0.76519(4) 0.46921(3)
O44_2 O 0.50335(5) 0.76519(4) 0.53079(3)
C50_2 C 0.98603(8) 0.28677(15) 0.32169(8)
C51_2 C 0.95821(9) 0.31066(15) 0.33885(8)
H30_2 H 0.9293 0.3105 0.3345
C52_2 C 0.94580(9) 0.36134(17) 0.38012(9)
C53_2 C 0.97349(8) 0.33482(15) 0.36251(9)
C54_2 C 0.99031(8) 0.24266(13) 0.27428(7)
C55_2 C 0.96933(8) 0.26320(15) 0.29655(8)
N13_2 N 0.96121(7) 0.22618(12) 0.25592(6)
N14_2 N 0.92998(13) 0.2599(3) 0.29022(14)
N15_2 N 0.92441(12) 0.2386(3) 0.26462(14)
C56_2 C 0.90286(8) 0.36662(13) 0.37799(8)
H32_2 H 0.8849 0.3530 0.3646
N16_2 N 0.89123(7) 0.39521(12) 0.39884(7)
N17_2 N 0.92351(13) 0.4028(3) 0.41507(16)
N18_2 N 0.95749(14) 0.3854(3) 0.40156(17)
C59_2 C 0.93088(7) 0.18483(9) 0.21613(5)
H34_2 H 0.9044 0.1879 0.2251
C60_2 C 0.96664(7) 0.20252(10) 0.22906(6)
C61_2 C 0.80653(6) 0.45588(7) 0.43627(4)
C62_2 C 0.84656(7) 0.44120(9) 0.42832(6)
H35_2 H 0.8708 0.4513 0.4379
C63_2 C 0.84989(7) 0.41120(10) 0.40580(6)
C64_2 C 0.77060(6) 0.44142(7) 0.42165(4)
H36_2 H 0.7438 0.4510 0.4274
C65_2 C 0.97454(6) 0.15756(7) 0.17642(4)
H37_2 H 0.9772 0.1421 0.1589
C67_2 C 0.77474(6) 0.41251(7) 0.39841(4)
C68_2 C 0.93504(6) 0.16238(7) 0.18954(5)
C69_2 C 0.89573(6) 0.14537(6) 0.17443(4)
C70_2 C 0.81444(7) 0.39754(9) 0.39017(6)
H38_2 H 0.8173 0.3786 0.3744
C71_2 C 0.80257(6) 0.48911(7) 0.46024(4)
C72_2 C 0.73571(6) 0.39850(6) 0.38166(4)
O23_2 O 0.86051(4) 0.15297(5) 0.18676(3)
O27_2 O 0.90150(4) 0.12570(5) 0.15062(3)
O29_2 O 0.70043(4) 0.40949(5) 0.39209(3)
O30_2 O 0.74156(4) 0.37721(5) 0.35816(3)
Zn7_2 Zn 0.694095(8) 0.359883(8) 0.332380(5)
Zn10_2 Zn 0.805905(8) 0.140117(8) 0.167620(5)
Zn11_2 Zn 0.645918(8) 0.394941(8) 0.373913(5)
Zn14_2 Zn 0.854082(8) 0.105059(8) 0.126087(5)
O7_3 O 0.31608(8) 0.47283(16) 0.5000
H3_3 H 0.3248 0.4734 0.5172
O8_3 O 0.09878(7) 0.43486(11) 0.5000
H4_3 H 0.0857 0.4548 0.5074
H20_3 H 0.3248 0.4734 0.4828
H21_3 H 0.0857 0.4548 0.4926
O31_3 O 0.24960(4) 0.41726(5) 0.53087(3)
O32_3 O 0.17919(4) 0.40731(5) 0.53130(3)
O40_3 O 0.16422(4) 0.49400(5) 0.53042(3)
O44_3 O 0.23481(4) 0.50335(5) 0.53079(3)
O17_3 O 0.68691(5) 0.30831(4) 0.35659(3)
O18_3 O 0.64857(5) 0.33854(4) 0.39262(3)
O19_3 O 0.58274(5) 0.24960(4) 0.46913(3)
O20_3 O 0.59269(5) 0.17919(4) 0.46870(3)
O21_3 O 0.60782(9) 0.42419(10) 0.40788(5)
H22_3 H 0.5971 0.4461 0.4013
O22_3 O 0.73413(7) 0.33300(8) 0.29861(5)
H23_3 H 0.7213 0.3139 0.2900
C37_3 C 0.62783(7) 0.22079(6) 0.43242(4)
C38_3 C 0.59873(7) 0.21637(6) 0.45912(4)
C39_3 C 0.63524(7) 0.26101(6) 0.42038(4)
H24_3 H 0.6239 0.2851 0.4294
C40_3 C 0.65987(7) 0.26454(6) 0.39467(4)
C41_3 C 0.66594(7) 0.30738(6) 0.38002(4)
C42_3 C 0.67662(9) 0.22866(7) 0.38117(5)
H25_3 H 0.6927 0.2312 0.3638
C43_3 C 0.64481(9) 0.18479(7) 0.41927(5)
H26_3 H 0.6398 0.1581 0.4275
C44_3 C 0.66936(10) 0.18887(7) 0.39365(6)
N10_3 N 0.68514(11) 0.15267(6) 0.37878(7)
N11_3 N 0.7097(2) 0.15531(12) 0.35576(15)
N12_3 N 0.7194(2) 0.11637(13) 0.34668(15)
C45_3 C 0.67289(13) 0.11149(8) 0.38096(7)
H27_3 H 0.6522 0.1008 0.3938
C46_3 C 0.69610(15) 0.08853(8) 0.36124(9)
C47_3 C 0.71597(14) 0.02868(8) 0.32942(8)
H28_3 H 0.7332 0.0470 0.3185
C48_3 C 0.69277(14) 0.04376(8) 0.35361(8)
C49_3 C 0.66765(15) 0.01616(8) 0.37022(8)
H29_3 H 0.6525 0.0263 0.3865
H31_3 H 0.7595 0.0197 0.2722
C57_3 C 0.82410(7) 0.01030(6) 0.18948(5)
C58_3 C 0.80153(9) 0.00656(7) 0.21617(5)
H33_3 H 0.7895 0.0304 0.2251
C66_3 C 0.82713(6) 0.05257(6) 0.17433(4)
O24_3 O 0.80669(5) 0.08310(4) 0.18552(3)
O25_3 O 0.84979(5) 0.05459(4) 0.15122(3)
O33_3 O 0.63949(4) 0.34703(5) 0.31324(3)
O36_3 O 0.69331(5) 0.41690(4) 0.31448(3)
O38_3 O 0.65021(5) 0.44541(4) 0.34878(3)
O41_3 O 0.59850(4) 0.37430(5) 0.34938(3)
H41_3 H 0.625987 0.431179 0.425333
H42_3 H 0.760256 0.321256 0.30797
C50_3 C 0.71323(15) 0.98603(8) 0.32169(8)
C51_3 C 0.68934(15) 0.95821(9) 0.33885(8)
H30_3 H 0.6895 0.9293 0.3345
C52_3 C 0.63866(17) 0.94580(9) 0.38012(9)
C53_3 C 0.66518(15) 0.97349(8) 0.36251(9)
C54_3 C 0.75734(13) 0.99031(8) 0.27428(7)
C55_3 C 0.73680(15) 0.96933(8) 0.29655(8)
N13_3 N 0.77382(12) 0.96121(7) 0.25592(6)
N14_3 N 0.7401(3) 0.92998(13) 0.29022(14)
N15_3 N 0.7614(3) 0.92441(12) 0.26462(14)
C56_3 C 0.63338(13) 0.90286(8) 0.37799(8)
H32_3 H 0.6470 0.8849 0.3646
N16_3 N 0.60479(12) 0.89123(7) 0.39884(7)
N17_3 N 0.5972(3) 0.92351(13) 0.41507(16)
N18_3 N 0.6146(3) 0.95749(14) 0.40156(17)
C59_3 C 0.81517(9) 0.93088(7) 0.21613(5)
H34_3 H 0.8121 0.9044 0.2251
C60_3 C 0.79748(10) 0.96664(7) 0.22906(6)
C61_3 C 0.54412(7) 0.80653(6) 0.43627(4)
C62_3 C 0.55880(9) 0.84656(7) 0.42832(6)
H35_3 H 0.5487 0.8708 0.4379
C63_3 C 0.58880(10) 0.84989(7) 0.40580(6)
C64_3 C 0.55858(7) 0.77060(6) 0.42165(4)
H36_3 H 0.5490 0.7438 0.4274
C65_3 C 0.84244(7) 0.97454(6) 0.17642(4)
H37_3 H 0.8579 0.9772 0.1589
C67_3 C 0.58749(7) 0.77474(6) 0.39841(4)
C68_3 C 0.83762(7) 0.93504(6) 0.18954(5)
C69_3 C 0.85463(6) 0.89573(6) 0.17443(4)
C70_3 C 0.60246(9) 0.81444(7) 0.39017(6)
H38_3 H 0.6214 0.8173 0.3744
C71_3 C 0.51089(7) 0.80257(6) 0.46024(4)
C72_3 C 0.60150(6) 0.73571(6) 0.38166(4)
O23_3 O 0.84703(5) 0.86051(4) 0.18676(3)
O27_3 O 0.87430(5) 0.90150(4) 0.15062(3)
O7_4 O 0.52717(16) 0.31608(8) 0.5000
H3_4 H 0.5266 0.3248 0.5172
O8_4 O 0.56514(11) 0.09878(7) 0.5000
H4_4 H 0.5452 0.0857 0.5074
H20_4 H 0.5266 0.3248 0.4828
H21_4 H 0.5452 0.0857 0.4926
O31_4 O 0.58274(5) 0.24960(4) 0.53087(3)
O32_4 O 0.59269(5) 0.17919(4) 0.53130(3)
O40_4 O 0.50600(5) 0.16422(4) 0.53042(3)
O44_4 O 0.49665(5) 0.23481(4) 0.53079(3)
Zn17_2 Zn 0.038880(12) 0.748628(10) 0.0000
Zn20_2 Zn 0.051117(11) 0.665473(10) 0.0000
O26_2 O 0.00600(5) 0.66422(4) 0.96958(3)
Zn17_3 Zn 0.038880(12) 0.748628(10) 1.0000
Zn20_3 Zn 0.051117(11) 0.665473(10) 1.0000
Zn3_2 Zn 0.251372(10) 0.038880(12) 0.0000
Zn4_2 Zn 0.334527(10) 0.051117(11) 0.0000
O7_5 O 0.18392(8) 0.02717(16) 0.0000
H3_5 H 0.1752 0.0266 0.0172
O8_5 O 0.40122(7) 0.06514(11) 0.0000
H4_5 H 0.4143 0.0452 0.0074
Zn15_2 Zn 0.961120(12) 0.251372(10) 0.0000
Zn18_2 Zn 0.948883(11) 0.334527(10) 0.0000
O31_5 O 0.25040(4) 0.08274(5) 0.03087(3)
O32_5 O 0.32081(4) 0.09269(5) 0.03130(3)
O40_5 O 0.33578(4) 0.00600(5) 0.03042(3)
Zn1_2 Zn 0.140117(8) 0.194095(8) 0.832380(5)
Zn2_2 Zn 0.105059(8) 0.145918(8) 0.873913(5)
Zn3_3 Zn 0.251372(10) 0.038880(12) 1.0000
Zn4_3 Zn 0.334527(10) 0.051117(11) 1.0000
O1_2 O 0.19169(4) 0.18691(5) 0.85659(3)
O2_2 O 0.16146(4) 0.14857(5) 0.89262(3)
O3_2 O 0.25040(4) 0.08274(5) 0.96913(3)
O4_2 O 0.32081(4) 0.09269(5) 0.96870(3)
O5_2 O 0.07581(10) 0.10782(9) 0.90788(5)
H1_2 H 0.0539 0.0971 0.9013
O6_2 O 0.16700(8) 0.23413(7) 0.79861(5)
H2_2 H 0.1861 0.2213 0.7900
O7_6 O 0.18392(8) 0.02717(16) 1.0000
O8_6 O 0.40122(7) 0.06514(11) 1.0000
C1_2 C 0.27921(6) 0.12783(7) 0.93242(4)
C2_2 C 0.28363(6) 0.09873(7) 0.95912(4)
C3_2 C 0.23899(6) 0.13524(7) 0.92038(4)
H5_2 H 0.2149 0.1239 0.9294
C4_2 C 0.23546(6) 0.15987(7) 0.89467(4)
C5_2 C 0.19262(6) 0.16594(7) 0.88002(4)
C6_2 C 0.27134(7) 0.17662(9) 0.88117(5)
H6_2 H 0.2688 0.1927 0.8638
C7_2 C 0.31521(7) 0.14481(9) 0.91927(5)
H7_2 H 0.3419 0.1398 0.9275
C8_2 C 0.31113(7) 0.16936(10) 0.89365(6)
N1_2 N 0.34733(6) 0.18514(11) 0.87878(7)
N2_2 N 0.34469(12) 0.2097(2) 0.85576(15)
N3_2 N 0.38363(13) 0.2194(2) 0.84668(15)
C9_2 C 0.38851(8) 0.17289(13) 0.88096(7)
H8_2 H 0.3992 0.1522 0.8938
C10_2 C 0.41147(8) 0.19610(15) 0.86124(9)
C11_2 C 0.47132(8) 0.21597(14) 0.82942(8)
H9_2 H 0.4530 0.2332 0.8185
C12_2 C 0.45624(8) 0.19277(14) 0.85361(8)
C13_2 C 0.48384(8) 0.16765(15) 0.87022(8)
H10_2 H 0.4737 0.1525 0.8865
C14_2 C 0.51397(8) 0.21323(15) 0.82169(8)
C15_2 C 0.54179(9) 0.18934(15) 0.83885(8)
H11_2 H 0.5707 0.1895 0.8345
C16_2 C 0.55420(9) 0.13866(17) 0.88012(9)
C17_2 C 0.52651(8) 0.16518(15) 0.86251(9)
C18_2 C 0.50969(8) 0.25734(13) 0.77428(7)
H12_2 H 0.4803 0.2595 0.7722
C19_2 C 0.53067(8) 0.23680(15) 0.79655(8)
N4_2 N 0.53879(7) 0.27382(12) 0.75592(6)
N5_2 N 0.57002(13) 0.2401(3) 0.79022(14)
N6_2 N 0.57559(12) 0.2614(3) 0.76462(14)
C20_2 C 0.59714(8) 0.13338(13) 0.87799(8)
H13_2 H 0.6151 0.1470 0.8646
N7_2 N 0.60877(7) 0.10479(12) 0.89884(7)
N8_2 N 0.57649(13) 0.0972(3) 0.91507(16)
N9_2 N 0.54251(14) 0.1146(3) 0.90156(17)
C21_2 C 0.48970(6) 0.32410(7) 0.68948(5)
C22_2 C 0.49344(7) 0.30153(9) 0.71617(5)
H14_2 H 0.4696 0.2895 0.7251
C23_2 C 0.56912(7) 0.31517(9) 0.71613(5)
H15_2 H 0.5956 0.3121 0.7251
C24_2 C 0.53336(7) 0.29748(10) 0.72906(6)
C25_2 C 0.69347(6) 0.04412(7) 0.93627(4)
C26_2 C 0.65344(7) 0.05880(9) 0.92832(6)
H16_2 H 0.6292 0.0487 0.9379
C27_2 C 0.65011(7) 0.08880(10) 0.90580(6)
C28_2 C 0.72940(6) 0.05858(7) 0.92165(4)
H17_2 H 0.7562 0.0490 0.9274
C29_2 C 0.52546(6) 0.34244(7) 0.67642(4)
H18_2 H 0.5228 0.3579 0.6589
C30_2 C 0.44743(6) 0.32713(6) 0.67433(4)
C31_2 C 0.72526(6) 0.08749(7) 0.89841(4)
C32_2 C 0.56496(6) 0.33762(7) 0.68954(5)
C33_2 C 0.60427(6) 0.35463(6) 0.67443(4)
C34_2 C 0.68556(7) 0.10246(9) 0.89017(6)
H19_2 H 0.6827 0.1214 0.8744
C35_2 C 0.69743(6) 0.01089(7) 0.96024(4)
C36_2 C 0.76429(6) 0.10150(6) 0.88166(4)
O9_2 O 0.63949(4) 0.34703(5) 0.68676(3)
O10_2 O 0.41690(4) 0.30669(5) 0.68552(3)
O11_2 O 0.44541(4) 0.34979(5) 0.65122(3)
O13_2 O 0.59850(4) 0.37430(5) 0.65062(3)
O14_2 O 0.73481(4) 0.00335(5) 0.96921(3)
O15_2 O 0.79957(4) 0.09051(5) 0.89209(3)
O16_2 O 0.75844(4) 0.12279(5) 0.85816(3)
H20_5 H 0.1752 0.0266 0.9828
H21_5 H 0.4143 0.0452 0.9926
Zn5_2 Zn 0.805905(8) 0.140117(8) 0.832380(5)
Zn6_2 Zn 0.854082(8) 0.105059(8) 0.873913(5)
O17_4 O 0.81309(5) 0.19169(4) 0.85659(3)
O18_4 O 0.85143(5) 0.16146(4) 0.89262(3)
O19_4 O 0.91726(5) 0.25040(4) 0.96913(3)
O20_4 O 0.90731(5) 0.32081(4) 0.96870(3)
O21_4 O 0.89218(9) 0.07581(10) 0.90788(5)
H22_4 H 0.9029 0.0539 0.9013
O22_4 O 0.76587(7) 0.16700(8) 0.79861(5)
H23_4 H 0.7787 0.1861 0.7900
C37_4 C 0.87217(7) 0.27921(6) 0.93242(4)
C38_4 C 0.90127(7) 0.28363(6) 0.95912(4)
C39_4 C 0.86476(7) 0.23899(6) 0.92038(4)
H24_4 H 0.8761 0.2149 0.9294
C40_4 C 0.84013(7) 0.23546(6) 0.89467(4)
C41_4 C 0.83406(7) 0.19262(6) 0.88002(4)
C42_4 C 0.82338(9) 0.27134(7) 0.88117(5)
H25_4 H 0.8073 0.2688 0.8638
C43_4 C 0.85519(9) 0.31521(7) 0.91927(5)
H26_4 H 0.8602 0.3419 0.9275
C44_4 C 0.83064(10) 0.31113(7) 0.89365(6)
N10_4 N 0.81486(11) 0.34733(6) 0.87878(7)
N11_4 N 0.7903(2) 0.34469(12) 0.85576(15)
N12_4 N 0.7806(2) 0.38363(13) 0.84668(15)
C45_4 C 0.82711(13) 0.38851(8) 0.88096(7)
H27_4 H 0.8478 0.3992 0.8938
C46_4 C 0.80390(15) 0.41147(8) 0.86124(9)
C47_4 C 0.78403(14) 0.47132(8) 0.82942(8)
H28_4 H 0.7668 0.4530 0.8185
C48_4 C 0.80723(14) 0.45624(8) 0.85361(8)
C49_4 C 0.83235(15) 0.48384(8) 0.87022(8)
H29_4 H 0.8475 0.4737 0.8865
C50_4 C 0.78677(15) 0.51397(8) 0.82169(8)
C51_4 C 0.81066(15) 0.54179(9) 0.83885(8)
H30_4 H 0.8105 0.5707 0.8345
C52_4 C 0.86134(17) 0.55420(9) 0.88012(9)
C53_4 C 0.83482(15) 0.52651(8) 0.86251(9)
C54_4 C 0.74266(13) 0.50969(8) 0.77428(7)
H31_4 H 0.7405 0.4803 0.7722
C55_4 C 0.76320(15) 0.53067(8) 0.79655(8)
N13_4 N 0.72618(12) 0.53879(7) 0.75592(6)
N14_4 N 0.7599(3) 0.57002(13) 0.79022(14)
N15_4 N 0.7386(3) 0.57559(12) 0.76462(14)
C56_4 C 0.86662(13) 0.59714(8) 0.87799(8)
H32_4 H 0.8530 0.6151 0.8646
N16_4 N 0.89521(12) 0.60877(7) 0.89884(7)
N17_4 N 0.9028(3) 0.57649(13) 0.91507(16)
N18_4 N 0.8854(3) 0.54251(14) 0.90156(17)
C57_4 C 0.67590(7) 0.48970(6) 0.68948(5)
C58_4 C 0.69847(9) 0.49344(7) 0.71617(5)
H33_4 H 0.7105 0.4696 0.7251
C59_4 C 0.68483(9) 0.56912(7) 0.71613(5)
H34_4 H 0.6879 0.5956 0.7251
C60_4 C 0.70252(10) 0.53336(7) 0.72906(6)
C61_4 C 0.95588(7) 0.69347(6) 0.93627(4)
C62_4 C 0.94120(9) 0.65344(7) 0.92832(6)
H35_4 H 0.9513 0.6292 0.9379
C63_4 C 0.91120(10) 0.65011(7) 0.90580(6)
C64_4 C 0.94142(7) 0.72940(6) 0.92165(4)
H36_4 H 0.9510 0.7562 0.9274
C65_4 C 0.65756(7) 0.52546(6) 0.67642(4)
H37_4 H 0.6421 0.5228 0.6589
C66_4 C 0.67287(6) 0.44743(6) 0.67433(4)
C67_4 C 0.91251(7) 0.72526(6) 0.89841(4)
C68_4 C 0.66238(7) 0.56496(6) 0.68954(5)
C69_4 C 0.64537(6) 0.60427(6) 0.67443(4)
C70_4 C 0.89754(9) 0.68556(7) 0.89017(6)
H38_4 H 0.8786 0.6827 0.8744
C71_4 C 0.98911(7) 0.69743(6) 0.96024(4)
C72_4 C 0.89850(6) 0.76429(6) 0.88166(4)
O23_4 O 0.65297(5) 0.63949(4) 0.68676(3)
O24_4 O 0.69331(5) 0.41690(4) 0.68552(3)
O25_4 O 0.65021(5) 0.44541(4) 0.65122(3)
O27_4 O 0.62570(5) 0.59850(4) 0.65062(3)
O28_2 O 0.99665(5) 0.73481(4) 0.96921(3)
O29_3 O 0.90949(5) 0.79957(4) 0.89209(3)
O30_3 O 0.87721(5) 0.75844(4) 0.85816(3)
Zn7_3 Zn 0.859883(8) 0.805905(8) 0.832380(5)
Zn8_2 Zn 0.359883(8) 0.305905(8) 0.667620(5)
Zn9_2 Zn 0.694095(8) 0.359883(8) 0.667620(5)
Zn10_3 Zn 0.640117(8) 0.694095(8) 0.667620(5)
Zn11_3 Zn 0.894941(8) 0.854082(8) 0.873913(5)
Zn12_2 Zn 0.394941(8) 0.354082(8) 0.626087(5)
Zn13_2 Zn 0.645918(8) 0.394941(8) 0.626087(5)
Zn14_3 Zn 0.605059(8) 0.645918(8) 0.626087(5)
Zn15_3 Zn 0.961120(12) 0.251372(10) 1.0000
Zn18_3 Zn 0.948883(11) 0.334527(10) 1.0000
O33_4 O 0.86051(4) 0.15297(5) 0.81324(3)
O34_2 O 0.15297(5) 0.13949(4) 0.81324(3)
O35_2 O 0.08310(4) 0.19331(5) 0.81448(3)
O36_4 O 0.80669(5) 0.08310(4) 0.81448(3)
O37_2 O 0.05459(4) 0.15021(5) 0.84878(3)
O38_4 O 0.84979(5) 0.05459(4) 0.84878(3)
O39_3 O 0.33578(4) 0.00600(5) 0.96958(3)
O41_4 O 0.90150(4) 0.12570(5) 0.84938(3)
O42_2 O 0.12570(5) 0.09850(4) 0.84938(3)
O45_2 O 0.09051(5) 0.20043(4) 0.89209(3)
O46_2 O 0.12279(5) 0.24156(4) 0.85816(3)
H39_2 H 0.0688207 0.125987 0.925333
H40_2 H 0.178744 0.260256 0.80797
H41_4 H 0.874013 0.0688207 0.925333
H42_4 H 0.739744 0.178744 0.80797
Zn16_2 Zn 0.748628(10) 0.961120(12) 0.0000
Zn19_2 Zn 0.665473(10) 0.948883(11) 0.0000
O44_5 O 0.26519(4) 0.99665(5) 0.03079(3)
O12_2 O 0.66422(4) 0.99400(5) 0.96958(3)
Zn16_3 Zn 0.748628(10) 0.961120(12) 1.0000
Zn19_3 Zn 0.665473(10) 0.948883(11) 1.0000
O43_3 O 0.26519(4) 0.99665(5) 0.96921(3)
O44_6 O 0.00335(5) 0.26519(4) 0.03079(3)
O43_4 O 0.00335(5) 0.26519(4) 0.96921(3)
O7_7 O 0.97283(16) 0.18392(8) 0.0000
H3_6 H 0.9734 0.1752 0.0172
O8_7 O 0.93486(11) 0.40122(7) 0.0000
H4_6 H 0.9548 0.4143 0.0074
O31_6 O 0.91726(5) 0.25040(4) 0.03087(3)
O32_6 O 0.90731(5) 0.32081(4) 0.03130(3)
O40_6 O 0.99400(5) 0.33578(4) 0.03042(3)
O7_8 O 0.97283(16) 0.18392(8) 1.0000
O8_8 O 0.93486(11) 0.40122(7) 1.0000
H20_6 H 0.9734 0.1752 0.9828
H21_6 H 0.9548 0.4143 0.9926
O17_5 O 0.80831(4) 0.81309(5) 0.85659(3)
O18_5 O 0.83854(4) 0.85143(5) 0.89262(3)
O19_5 O 0.74960(4) 0.91726(5) 0.96913(3)
O20_5 O 0.67919(4) 0.90731(5) 0.96870(3)
O21_5 O 0.92419(10) 0.89218(9) 0.90788(5)
H22_5 H 0.9461 0.9029 0.9013
O22_5 O 0.83300(8) 0.76587(7) 0.79861(5)
H23_5 H 0.8139 0.7787 0.7900
C37_5 C 0.72079(6) 0.87217(7) 0.93242(4)
C38_5 C 0.71637(6) 0.90127(7) 0.95912(4)
C39_5 C 0.76101(6) 0.86476(7) 0.92038(4)
H24_5 H 0.7851 0.8761 0.9294
C40_5 C 0.76454(6) 0.84013(7) 0.89467(4)
C41_5 C 0.80738(6) 0.83406(7) 0.88002(4)
C42_5 C 0.72866(7) 0.82338(9) 0.88117(5)
H25_5 H 0.7312 0.8073 0.8638
C43_5 C 0.68479(7) 0.85519(9) 0.91927(5)
H26_5 H 0.6581 0.8602 0.9275
C44_5 C 0.68887(7) 0.83064(10) 0.89365(6)
N10_5 N 0.65267(6) 0.81486(11) 0.87878(7)
N11_5 N 0.65531(12) 0.7903(2) 0.85576(15)
N12_5 N 0.61637(13) 0.7806(2) 0.84668(15)
C45_5 C 0.61149(8) 0.82711(13) 0.88096(7)
H27_5 H 0.6008 0.8478 0.8938
C46_5 C 0.58853(8) 0.80390(15) 0.86124(9)
C47_5 C 0.52868(8) 0.78403(14) 0.82942(8)
H28_5 H 0.5470 0.7668 0.8185
C48_5 C 0.54376(8) 0.80723(14) 0.85361(8)
C49_5 C 0.51616(8) 0.83235(15) 0.87022(8)
H29_5 H 0.5263 0.8475 0.8865
C50_5 C 0.48603(8) 0.78677(15) 0.82169(8)
C51_5 C 0.45821(9) 0.81066(15) 0.83885(8)
H30_5 H 0.4293 0.8105 0.8345
C52_5 C 0.44580(9) 0.86134(17) 0.88012(9)
C53_5 C 0.47349(8) 0.83482(15) 0.86251(9)
C54_5 C 0.49031(8) 0.74266(13) 0.77428(7)
H31_5 H 0.5197 0.7405 0.7722
C55_5 C 0.46933(8) 0.76320(15) 0.79655(8)
N13_5 N 0.46121(7) 0.72618(12) 0.75592(6)
N14_5 N 0.42998(13) 0.7599(3) 0.79022(14)
N15_5 N 0.42441(12) 0.7386(3) 0.76462(14)
C56_5 C 0.40286(8) 0.86662(13) 0.87799(8)
H32_5 H 0.3849 0.8530 0.8646
N16_5 N 0.39123(7) 0.89521(12) 0.89884(7)
N17_5 N 0.42351(13) 0.9028(3) 0.91507(16)
N18_5 N 0.45749(14) 0.8854(3) 0.90156(17)
C57_5 C 0.51030(6) 0.67590(7) 0.68948(5)
C58_5 C 0.50656(7) 0.69847(9) 0.71617(5)
H33_5 H 0.5304 0.7105 0.7251
C59_5 C 0.43088(7) 0.68483(9) 0.71613(5)
H34_5 H 0.4044 0.6879 0.7251
C60_5 C 0.46664(7) 0.70252(10) 0.72906(6)
C61_5 C 0.30653(6) 0.95588(7) 0.93627(4)
C62_5 C 0.34656(7) 0.94120(9) 0.92832(6)
H35_5 H 0.3708 0.9513 0.9379
C63_5 C 0.34989(7) 0.91120(10) 0.90580(6)
C64_5 C 0.27060(6) 0.94142(7) 0.92165(4)
H36_5 H 0.2438 0.9510 0.9274
C65_5 C 0.47454(6) 0.65756(7) 0.67642(4)
H37_5 H 0.4772 0.6421 0.6589
C66_5 C 0.55257(6) 0.67287(6) 0.67433(4)
C67_5 C 0.27474(6) 0.91251(7) 0.89841(4)
C68_5 C 0.43504(6) 0.66238(7) 0.68954(5)
C69_5 C 0.39573(6) 0.64537(6) 0.67443(4)
C70_5 C 0.31444(7) 0.89754(9) 0.89017(6)
H38_5 H 0.3173 0.8786 0.8744
C71_5 C 0.30257(6) 0.98911(7) 0.96024(4)
C72_5 C 0.23571(6) 0.89850(6) 0.88166(4)
O23_5 O 0.36051(4) 0.65297(5) 0.68676(3)
O24_5 O 0.58310(4) 0.69331(5) 0.68552(3)
O25_5 O 0.55459(4) 0.65021(5) 0.65122(3)
O27_5 O 0.40150(4) 0.62570(5) 0.65062(3)
O29_4 O 0.20043(4) 0.90949(5) 0.89209(3)
O30_4 O 0.24156(4) 0.87721(5) 0.85816(3)
Zn7_4 Zn 0.194095(8) 0.859883(8) 0.832380(5)
Zn10_4 Zn 0.305905(8) 0.640117(8) 0.667620(5)
Zn11_4 Zn 0.145918(8) 0.894941(8) 0.873913(5)
Zn14_4 Zn 0.354082(8) 0.605059(8) 0.626087(5)
O33_5 O 0.84703(5) 0.86051(4) 0.81324(3)
O36_5 O 0.91690(4) 0.80669(5) 0.81448(3)
O38_5 O 0.94541(4) 0.84979(5) 0.84878(3)
O39_4 O 0.99400(5) 0.33578(4) 0.96958(3)
O41_5 O 0.87430(5) 0.90150(4) 0.84938(3)
H41_5 H 0.931179 0.874013 0.925333
H42_5 H 0.821256 0.739744 0.80797
O44_7 O 0.73481(4) 0.00335(5) 0.03079(3)
O7_9 O 0.81608(8) 0.97283(16) 0.0000
H3_7 H 0.8248 0.9734 0.0172
O8_9 O 0.59878(7) 0.93486(11) 0.0000
H4_7 H 0.5857 0.9548 0.0074
O31_7 O 0.74960(4) 0.91726(5) 0.03087(3)
O32_7 O 0.67919(4) 0.90731(5) 0.03130(3)
O40_7 O 0.66422(4) 0.99400(5) 0.03042(3)
O7_10 O 0.81608(8) 0.97283(16) 1.0000
O8_10 O 0.59878(7) 0.93486(11) 1.0000
H20_7 H 0.8248 0.9734 0.9828
H21_7 H 0.5857 0.9548 0.9926
O17_6 O 0.18691(5) 0.80831(4) 0.85659(3)
O18_6 O 0.14857(5) 0.83854(4) 0.89262(3)
O19_6 O 0.08274(5) 0.74960(4) 0.96913(3)
O20_6 O 0.09269(5) 0.67919(4) 0.96870(3)
O21_6 O 0.10782(9) 0.92419(10) 0.90788(5)
H22_6 H 0.0971 0.9461 0.9013
O22_6 O 0.23413(7) 0.83300(8) 0.79861(5)
H23_6 H 0.2213 0.8139 0.7900
C37_6 C 0.12783(7) 0.72079(6) 0.93242(4)
C38_6 C 0.09873(7) 0.71637(6) 0.95912(4)
C39_6 C 0.13524(7) 0.76101(6) 0.92038(4)
H24_6 H 0.1239 0.7851 0.9294
C40_6 C 0.15987(7) 0.76454(6) 0.89467(4)
C41_6 C 0.16594(7) 0.80738(6) 0.88002(4)
C42_6 C 0.17662(9) 0.72866(7) 0.88117(5)
H25_6 H 0.1927 0.7312 0.8638
C43_6 C 0.14481(9) 0.68479(7) 0.91927(5)
H26_6 H 0.1398 0.6581 0.9275
C44_6 C 0.16936(10) 0.68887(7) 0.89365(6)
N10_6 N 0.18514(11) 0.65267(6) 0.87878(7)
N11_6 N 0.2097(2) 0.65531(12) 0.85576(15)
N12_6 N 0.2194(2) 0.61637(13) 0.84668(15)
C45_6 C 0.17289(13) 0.61149(8) 0.88096(7)
H27_6 H 0.1522 0.6008 0.8938
C46_6 C 0.19610(15) 0.58853(8) 0.86124(9)
C47_6 C 0.21597(14) 0.52868(8) 0.82942(8)
H28_6 H 0.2332 0.5470 0.8185
C48_6 C 0.19277(14) 0.54376(8) 0.85361(8)
C49_6 C 0.16765(15) 0.51616(8) 0.87022(8)
H29_6 H 0.1525 0.5263 0.8865
C50_6 C 0.21323(15) 0.48603(8) 0.82169(8)
C51_6 C 0.18934(15) 0.45821(9) 0.83885(8)
H30_6 H 0.1895 0.4293 0.8345
C52_6 C 0.13866(17) 0.44580(9) 0.88012(9)
C53_6 C 0.16518(15) 0.47349(8) 0.86251(9)
C54_6 C 0.25734(13) 0.49031(8) 0.77428(7)
H31_6 H 0.2595 0.5197 0.7722
C55_6 C 0.23680(15) 0.46933(8) 0.79655(8)
N13_6 N 0.27382(12) 0.46121(7) 0.75592(6)
N14_6 N 0.2401(3) 0.42998(13) 0.79022(14)
N15_6 N 0.2614(3) 0.42441(12) 0.76462(14)
C56_6 C 0.13338(13) 0.40286(8) 0.87799(8)
H32_6 H 0.1470 0.3849 0.8646
N16_6 N 0.10479(12) 0.39123(7) 0.89884(7)
N17_6 N 0.0972(3) 0.42351(13) 0.91507(16)
N18_6 N 0.1146(3) 0.45749(14) 0.90156(17)
C57_6 C 0.32410(7) 0.51030(6) 0.68948(5)
C58_6 C 0.30153(9) 0.50656(7) 0.71617(5)
H33_6 H 0.2895 0.5304 0.7251
C59_6 C 0.31517(9) 0.43088(7) 0.71613(5)
H34_6 H 0.3121 0.4044 0.7251
C60_6 C 0.29748(10) 0.46664(7) 0.72906(6)
C61_6 C 0.04412(7) 0.30653(6) 0.93627(4)
C62_6 C 0.05880(9) 0.34656(7) 0.92832(6)
H35_6 H 0.0487 0.3708 0.9379
C63_6 C 0.08880(10) 0.34989(7) 0.90580(6)
C64_6 C 0.05858(7) 0.27060(6) 0.92165(4)
H36_6 H 0.0490 0.2438 0.9274
C65_6 C 0.34244(7) 0.47454(6) 0.67642(4)
H37_6 H 0.3579 0.4772 0.6589
C66_6 C 0.32713(6) 0.55257(6) 0.67433(4)
C67_6 C 0.08749(7) 0.27474(6) 0.89841(4)
C68_6 C 0.33762(7) 0.43504(6) 0.68954(5)
C69_6 C 0.35463(6) 0.39573(6) 0.67443(4)
C70_6 C 0.10246(9) 0.31444(7) 0.89017(6)
H38_6 H 0.1214 0.3173 0.8744
C71_6 C 0.01089(7) 0.30257(6) 0.96024(4)
C72_6 C 0.10150(6) 0.23571(6) 0.88166(4)
O23_6 O 0.34703(5) 0.36051(4) 0.68676(3)
O24_6 O 0.30669(5) 0.58310(4) 0.68552(3)
O25_6 O 0.34979(5) 0.55459(4) 0.65122(3)
O27_6 O 0.37430(5) 0.40150(4) 0.65062(3)
O33_6 O 0.13949(4) 0.84703(5) 0.81324(3)
O36_6 O 0.19331(5) 0.91690(4) 0.81448(3)
O38_6 O 0.15021(5) 0.94541(4) 0.84878(3)
O41_6 O 0.09850(4) 0.87430(5) 0.84938(3)
H41_6 H 0.125987 0.931179 0.925333
H42_6 H 0.260256 0.821256 0.80797
O7_11 O 0.02717(16) 0.81608(8) 0.0000
H3_8 H 0.0266 0.8248 0.0172
O8_11 O 0.06514(11) 0.59878(7) 0.0000
H4_8 H 0.0452 0.5857 0.0074
O31_8 O 0.08274(5) 0.74960(4) 0.03087(3)
O32_8 O 0.09269(5) 0.67919(4) 0.03130(3)
O40_8 O 0.00600(5) 0.66422(4) 0.03042(3)
O7_12 O 0.02717(16) 0.81608(8) 1.0000
O8_12 O 0.06514(11) 0.59878(7) 1.0000
H20_8 H 0.0266 0.8248 0.9828
H21_8 H 0.0452 0.5857 0.9926
O44_8 O 0.99665(5) 0.73481(4) 0.03079(3)
O1_3 O 0.30831(4) 0.31309(5) 0.64341(3)
O2_3 O 0.33854(4) 0.35143(5) 0.60738(3)
O5_3 O 0.42419(10) 0.39218(9) 0.59212(5)
H1_3 H 0.4461 0.4029 0.5987
O6_3 O 0.33300(8) 0.26587(7) 0.70139(5)
H2_3 H 0.3139 0.2787 0.7100
C1_3 C 0.22079(6) 0.37217(7) 0.56758(4)
C2_3 C 0.21637(6) 0.40127(7) 0.54088(4)
C3_3 C 0.26101(6) 0.36476(7) 0.57962(4)
H5_3 H 0.2851 0.3761 0.5706
C4_3 C 0.26454(6) 0.34013(7) 0.60533(4)
C5_3 C 0.30738(6) 0.33406(7) 0.61998(4)
C6_3 C 0.22866(7) 0.32338(9) 0.61883(5)
H6_3 H 0.2312 0.3073 0.6362
C7_3 C 0.18479(7) 0.35519(9) 0.58073(5)
H7_3 H 0.1581 0.3602 0.5725
C8_3 C 0.18887(7) 0.33064(10) 0.60635(6)
N1_3 N 0.15267(6) 0.31486(11) 0.62122(7)
N2_3 N 0.15531(12) 0.2903(2) 0.64424(15)
N3_3 N 0.11637(13) 0.2806(2) 0.65332(15)
C9_3 C 0.11149(8) 0.32711(13) 0.61904(7)
H8_3 H 0.1008 0.3478 0.6062
C10_3 C 0.08853(8) 0.30390(15) 0.63876(9)
C11_3 C 0.02868(8) 0.28403(14) 0.67058(8)
H9_3 H 0.0470 0.2668 0.6815
C12_3 C 0.04376(8) 0.30723(14) 0.64639(8)
C13_3 C 0.01616(8) 0.33235(15) 0.62978(8)
H10_3 H 0.0263 0.3475 0.6135
H12_3 H 0.0197 0.2405 0.7278
C21_3 C 0.01030(6) 0.17590(7) 0.81052(5)
C22_3 C 0.00656(7) 0.19847(9) 0.78383(5)
H14_3 H 0.0304 0.2105 0.7749
C30_3 C 0.05257(6) 0.17287(6) 0.82567(4)
O45_3 O 0.40949(5) 0.29957(4) 0.60791(3)
O46_3 O 0.37721(5) 0.25844(4) 0.64184(3)
H39_3 H 0.431179 0.374013 0.574667
H40_3 H 0.321256 0.239744 0.69203
C14_3 C 0.98603(8) 0.28677(15) 0.67831(8)
C15_3 C 0.95821(9) 0.31066(15) 0.66115(8)
H11_3 H 0.9293 0.3105 0.6655
C16_3 C 0.94580(9) 0.36134(17) 0.61988(9)
C17_3 C 0.97349(8) 0.33482(15) 0.63749(9)
C18_3 C 0.99031(8) 0.24266(13) 0.72572(7)
C19_3 C 0.96933(8) 0.26320(15) 0.70345(8)
N4_3 N 0.96121(7) 0.22618(12) 0.74408(6)
N5_3 N 0.92998(13) 0.2599(3) 0.70978(14)
N6_3 N 0.92441(12) 0.2386(3) 0.73538(14)
C20_3 C 0.90286(8) 0.36662(13) 0.62201(8)
H13_3 H 0.8849 0.3530 0.6354
N7_3 N 0.89123(7) 0.39521(12) 0.60116(7)
N8_3 N 0.92351(13) 0.4028(3) 0.58493(16)
N9_3 N 0.95749(14) 0.3854(3) 0.59844(17)
C23_3 C 0.93088(7) 0.18483(9) 0.78387(5)
H15_3 H 0.9044 0.1879 0.7749
C24_3 C 0.96664(7) 0.20252(10) 0.77094(6)
C25_3 C 0.80653(6) 0.45588(7) 0.56373(4)
C26_3 C 0.84656(7) 0.44120(9) 0.57168(6)
H16_3 H 0.8708 0.4513 0.5621
C27_3 C 0.84989(7) 0.41120(10) 0.59420(6)
C28_3 C 0.77060(6) 0.44142(7) 0.57835(4)
H17_3 H 0.7438 0.4510 0.5726
C29_3 C 0.97454(6) 0.15756(7) 0.82358(4)
H18_3 H 0.9772 0.1421 0.8411
C31_3 C 0.77474(6) 0.41251(7) 0.60159(4)
C32_3 C 0.93504(6) 0.16238(7) 0.81046(5)
C33_3 C 0.89573(6) 0.14537(6) 0.82557(4)
C34_3 C 0.81444(7) 0.39754(9) 0.60983(6)
H19_3 H 0.8173 0.3786 0.6256
C35_3 C 0.80257(6) 0.48911(7) 0.53976(4)
C36_3 C 0.73571(6) 0.39850(6) 0.61834(4)
O15_3 O 0.70043(4) 0.40949(5) 0.60791(3)
O16_3 O 0.74156(4) 0.37721(5) 0.64184(3)
O17_7 O 0.68691(5) 0.30831(4) 0.64341(3)
O18_7 O 0.64857(5) 0.33854(4) 0.60738(3)
O21_7 O 0.60782(9) 0.42419(10) 0.59212(5)
H22_7 H 0.5971 0.4461 0.5987
O22_7 O 0.73413(7) 0.33300(8) 0.70139(5)
H23_7 H 0.7213 0.3139 0.7100
C37_7 C 0.62783(7) 0.22079(6) 0.56758(4)
C38_7 C 0.59873(7) 0.21637(6) 0.54088(4)
C39_7 C 0.63524(7) 0.26101(6) 0.57962(4)
H24_7 H 0.6239 0.2851 0.5706
C40_7 C 0.65987(7) 0.26454(6) 0.60533(4)
C41_7 C 0.66594(7) 0.30738(6) 0.61998(4)
C42_7 C 0.67662(9) 0.22866(7) 0.61883(5)
H25_7 H 0.6927 0.2312 0.6362
C43_7 C 0.64481(9) 0.18479(7) 0.58073(5)
H26_7 H 0.6398 0.1581 0.5725
C44_7 C 0.66936(10) 0.18887(7) 0.60635(6)
N10_7 N 0.68514(11) 0.15267(6) 0.62122(7)
N11_7 N 0.7097(2) 0.15531(12) 0.64424(15)
N12_7 N 0.7194(2) 0.11637(13) 0.65332(15)
C45_7 C 0.67289(13) 0.11149(8) 0.61904(7)
H27_7 H 0.6522 0.1008 0.6062
C46_7 C 0.69610(15) 0.08853(8) 0.63876(9)
C47_7 C 0.71597(14) 0.02868(8) 0.67058(8)
H28_7 H 0.7332 0.0470 0.6815
C48_7 C 0.69277(14) 0.04376(8) 0.64639(8)
C49_7 C 0.66765(15) 0.01616(8) 0.62978(8)
H29_7 H 0.6525 0.0263 0.6135
H31_7 H 0.7595 0.0197 0.7278
C57_7 C 0.82410(7) 0.01030(6) 0.81052(5)
C58_7 C 0.80153(9) 0.00656(7) 0.78383(5)
H33_7 H 0.7895 0.0304 0.7749
C66_7 C 0.82713(6) 0.05257(6) 0.82567(4)
H41_7 H 0.625987 0.431179 0.574667
H42_7 H 0.760256 0.321256 0.69203
C50_7 C 0.71323(15) 0.98603(8) 0.67831(8)
C51_7 C 0.68934(15) 0.95821(9) 0.66115(8)
H30_7 H 0.6895 0.9293 0.6655
C52_7 C 0.63866(17) 0.94580(9) 0.61988(9)
C53_7 C 0.66518(15) 0.97349(8) 0.63749(9)
C54_7 C 0.75734(13) 0.99031(8) 0.72572(7)
C55_7 C 0.73680(15) 0.96933(8) 0.70345(8)
N13_7 N 0.77382(12) 0.96121(7) 0.74408(6)
N14_7 N 0.7401(3) 0.92998(13) 0.70978(14)
N15_7 N 0.7614(3) 0.92441(12) 0.73538(14)
C56_7 C 0.63338(13) 0.90286(8) 0.62201(8)
H32_7 H 0.6470 0.8849 0.6354
N16_7 N 0.60479(12) 0.89123(7) 0.60116(7)
N17_7 N 0.5972(3) 0.92351(13) 0.58493(16)
N18_7 N 0.6146(3) 0.95749(14) 0.59844(17)
C59_7 C 0.81517(9) 0.93088(7) 0.78387(5)
H34_7 H 0.8121 0.9044 0.7749
C60_7 C 0.79748(10) 0.96664(7) 0.77094(6)
C61_7 C 0.54412(7) 0.80653(6) 0.56373(4)
C62_7 C 0.55880(9) 0.84656(7) 0.57168(6)
H35_7 H 0.5487 0.8708 0.5621
C63_7 C 0.58880(10) 0.84989(7) 0.59420(6)
C64_7 C 0.55858(7) 0.77060(6) 0.57835(4)
H36_7 H 0.5490 0.7438 0.5726
C65_7 C 0.84244(7) 0.97454(6) 0.82358(4)
H37_7 H 0.8579 0.9772 0.8411
C67_7 C 0.58749(7) 0.77474(6) 0.60159(4)
C68_7 C 0.83762(7) 0.93504(6) 0.81046(5)
C69_7 C 0.85463(6) 0.89573(6) 0.82557(4)
C70_7 C 0.60246(9) 0.81444(7) 0.60983(6)
H38_7 H 0.6214 0.8173 0.6256
C71_7 C 0.51089(7) 0.80257(6) 0.53976(4)
C72_7 C 0.60150(6) 0.73571(6) 0.61834(4)
O29_5 O 0.59051(5) 0.70043(4) 0.60791(3)
O30_5 O 0.62279(5) 0.74156(4) 0.64184(3)
C50_8 C 0.01397(8) 0.71323(15) 0.67831(8)
C51_8 C 0.04179(9) 0.68934(15) 0.66115(8)
H30_8 H 0.0707 0.6895 0.6655
C52_8 C 0.05420(9) 0.63866(17) 0.61988(9)
C53_8 C 0.02651(8) 0.66518(15) 0.63749(9)
C54_8 C 0.00969(8) 0.75734(13) 0.72572(7)
C55_8 C 0.03067(8) 0.73680(15) 0.70345(8)
N13_8 N 0.03879(7) 0.77382(12) 0.74408(6)
N14_8 N 0.07002(13) 0.7401(3) 0.70978(14)
N15_8 N 0.07559(12) 0.7614(3) 0.73538(14)
C56_8 C 0.09714(8) 0.63338(13) 0.62201(8)
H32_8 H 0.1151 0.6470 0.6354
N16_8 N 0.10877(7) 0.60479(12) 0.60116(7)
N17_8 N 0.07649(13) 0.5972(3) 0.58493(16)
N18_8 N 0.04251(14) 0.6146(3) 0.59844(17)
C59_8 C 0.06912(7) 0.81517(9) 0.78387(5)
H34_8 H 0.0956 0.8121 0.7749
C60_8 C 0.03336(7) 0.79748(10) 0.77094(6)
C61_8 C 0.19347(6) 0.54412(7) 0.56373(4)
C62_8 C 0.15344(7) 0.55880(9) 0.57168(6)
H35_8 H 0.1292 0.5487 0.5621
C63_8 C 0.15011(7) 0.58880(10) 0.59420(6)
C64_8 C 0.22940(6) 0.55858(7) 0.57835(4)
H36_8 H 0.2562 0.5490 0.5726
C65_8 C 0.02546(6) 0.84244(7) 0.82358(4)
H37_8 H 0.0228 0.8579 0.8411
C67_8 C 0.22526(6) 0.58749(7) 0.60159(4)
C68_8 C 0.06496(6) 0.83762(7) 0.81046(5)
C69_8 C 0.10427(6) 0.85463(6) 0.82557(4)
C70_8 C 0.18556(7) 0.60246(9) 0.60983(6)
H38_8 H 0.1827 0.6214 0.6256
C71_8 C 0.19743(6) 0.51089(7) 0.53976(4)
C72_8 C 0.26429(6) 0.60150(6) 0.61834(4)
O29_6 O 0.29957(4) 0.59051(5) 0.60791(3)
O30_6 O 0.25844(4) 0.62279(5) 0.64184(3)
O17_8 O 0.69169(4) 0.68691(5) 0.64341(3)
O18_8 O 0.66146(4) 0.64857(5) 0.60738(3)
O21_8 O 0.57581(10) 0.60782(9) 0.59212(5)
H22_8 H 0.5539 0.5971 0.5987
O22_8 O 0.66700(8) 0.73413(7) 0.70139(5)
H23_8 H 0.6861 0.7213 0.7100
C37_8 C 0.77921(6) 0.62783(7) 0.56758(4)
C38_8 C 0.78363(6) 0.59873(7) 0.54088(4)
C39_8 C 0.73899(6) 0.63524(7) 0.57962(4)
H24_8 H 0.7149 0.6239 0.5706
C40_8 C 0.73546(6) 0.65987(7) 0.60533(4)
C41_8 C 0.69262(6) 0.66594(7) 0.61998(4)
C42_8 C 0.77134(7) 0.67662(9) 0.61883(5)
H25_8 H 0.7688 0.6927 0.6362
C43_8 C 0.81521(7) 0.64481(9) 0.58073(5)
H26_8 H 0.8419 0.6398 0.5725
C44_8 C 0.81113(7) 0.66936(10) 0.60635(6)
N10_8 N 0.84733(6) 0.68514(11) 0.62122(7)
N11_8 N 0.84469(12) 0.7097(2) 0.64424(15)
N12_8 N 0.88363(13) 0.7194(2) 0.65332(15)
C45_8 C 0.88851(8) 0.67289(13) 0.61904(7)
H27_8 H 0.8992 0.6522 0.6062
C46_8 C 0.91147(8) 0.69610(15) 0.63876(9)
C47_8 C 0.97132(8) 0.71597(14) 0.67058(8)
H28_8 H 0.9530 0.7332 0.6815
C48_8 C 0.95624(8) 0.69277(14) 0.64639(8)
C49_8 C 0.98384(8) 0.66765(15) 0.62978(8)
H29_8 H 0.9737 0.6525 0.6135
H31_8 H 0.9803 0.7595 0.7278
C57_8 C 0.98970(6) 0.82410(7) 0.81052(5)
C58_8 C 0.99344(7) 0.80153(9) 0.78383(5)
H33_8 H 0.9696 0.7895 0.7749
C66_8 C 0.94743(6) 0.82713(6) 0.82567(4)
H41_8 H 0.568821 0.625987 0.574667
H42_8 H 0.678744 0.760256 0.69203
C50_9 C 0.28677(15) 0.01397(8) 0.67831(8)
C51_9 C 0.31066(15) 0.04179(9) 0.66115(8)
H30_9 H 0.3105 0.0707 0.6655
C52_9 C 0.36134(17) 0.05420(9) 0.61988(9)
C53_9 C 0.33482(15) 0.02651(8) 0.63749(9)
C54_9 C 0.24266(13) 0.00969(8) 0.72572(7)
C55_9 C 0.26320(15) 0.03067(8) 0.70345(8)
N13_9 N 0.22618(12) 0.03879(7) 0.74408(6)
N14_9 N 0.2599(3) 0.07002(13) 0.70978(14)
N15_9 N 0.2386(3) 0.07559(12) 0.73538(14)
C56_9 C 0.36662(13) 0.09714(8) 0.62201(8)
H32_9 H 0.3530 0.1151 0.6354
N16_9 N 0.39521(12) 0.10877(7) 0.60116(7)
N17_9 N 0.4028(3) 0.07649(13) 0.58493(16)
N18_9 N 0.3854(3) 0.04251(14) 0.59844(17)
C59_9 C 0.18483(9) 0.06912(7) 0.78387(5)
H34_9 H 0.1879 0.0956 0.7749
C60_9 C 0.20252(10) 0.03336(7) 0.77094(6)
C61_9 C 0.45588(7) 0.19347(6) 0.56373(4)
C62_9 C 0.44120(9) 0.15344(7) 0.57168(6)
H35_9 H 0.4513 0.1292 0.5621
C63_9 C 0.41120(10) 0.15011(7) 0.59420(6)
C64_9 C 0.44142(7) 0.22940(6) 0.57835(4)
H36_9 H 0.4510 0.2562 0.5726
C65_9 C 0.15756(7) 0.02546(6) 0.82358(4)
H37_9 H 0.1421 0.0228 0.8411
C67_9 C 0.41251(7) 0.22526(6) 0.60159(4)
C68_9 C 0.16238(7) 0.06496(6) 0.81046(5)
C69_9 C 0.14537(6) 0.10427(6) 0.82557(4)
C70_9 C 0.39754(9) 0.18556(7) 0.60983(6)
H38_9 H 0.3786 0.1827 0.6256
C71_9 C 0.48911(7) 0.19743(6) 0.53976(4)
C72_9 C 0.39850(6) 0.26429(6) 0.61834(4)
O17_9 O 0.31309(5) 0.69169(4) 0.64341(3)
O18_9 O 0.35143(5) 0.66146(4) 0.60738(3)
O21_9 O 0.39218(9) 0.57581(10) 0.59212(5)
H22_9 H 0.4029 0.5539 0.5987
O22_9 O 0.26587(7) 0.66700(8) 0.70139(5)
H23_9 H 0.2787 0.6861 0.7100
C37_9 C 0.37217(7) 0.77921(6) 0.56758(4)
C38_9 C 0.40127(7) 0.78363(6) 0.54088(4)
C39_9 C 0.36476(7) 0.73899(6) 0.57962(4)
H24_9 H 0.3761 0.7149 0.5706
C40_9 C 0.34013(7) 0.73546(6) 0.60533(4)
C41_9 C 0.33406(7) 0.69262(6) 0.61998(4)
C42_9 C 0.32338(9) 0.77134(7) 0.61883(5)
H25_9 H 0.3073 0.7688 0.6362
C43_9 C 0.35519(9) 0.81521(7) 0.58073(5)
H26_9 H 0.3602 0.8419 0.5725
C44_9 C 0.33064(10) 0.81113(7) 0.60635(6)
N10_9 N 0.31486(11) 0.84733(6) 0.62122(7)
N11_9 N 0.2903(2) 0.84469(12) 0.64424(15)
N12_9 N 0.2806(2) 0.88363(13) 0.65332(15)
C45_9 C 0.32711(13) 0.88851(8) 0.61904(7)
H27_9 H 0.3478 0.8992 0.6062
C46_9 C 0.30390(15) 0.91147(8) 0.63876(9)
C47_9 C 0.28403(14) 0.97132(8) 0.67058(8)
H28_9 H 0.2668 0.9530 0.6815
C48_9 C 0.30723(14) 0.95624(8) 0.64639(8)
C49_9 C 0.33235(15) 0.98384(8) 0.62978(8)
H29_9 H 0.3475 0.9737 0.6135
H31_9 H 0.2405 0.9803 0.7278
C57_9 C 0.17590(7) 0.98970(6) 0.81052(5)
C58_9 C 0.19847(9) 0.99344(7) 0.78383(5)
H33_9 H 0.2105 0.9696 0.7749
C66_9 C 0.17287(6) 0.94743(6) 0.82567(4)
H41_9 H 0.374013 0.568821 0.574667
H42_9 H 0.239744 0.678744 0.69203
O1_4 O 0.80831(4) 0.81309(5) 0.14341(3)
O2_4 O 0.83854(4) 0.85143(5) 0.10738(3)
O5_4 O 0.92419(10) 0.89218(9) 0.09212(5)
H1_4 H 0.9461 0.9029 0.0987
O6_4 O 0.83300(8) 0.76587(7) 0.20139(5)
H2_4 H 0.8139 0.7787 0.2100
C1_4 C 0.72079(6) 0.87217(7) 0.06758(4)
C2_4 C 0.71637(6) 0.90127(7) 0.04088(4)
C3_4 C 0.76101(6) 0.86476(7) 0.07962(4)
H5_4 H 0.7851 0.8761 0.0706
C4_4 C 0.76454(6) 0.84013(7) 0.10533(4)
C5_4 C 0.80738(6) 0.83406(7) 0.11998(4)
C6_4 C 0.72866(7) 0.82338(9) 0.11883(5)
H6_4 H 0.7312 0.8073 0.1362
C7_4 C 0.68479(7) 0.85519(9) 0.08073(5)
H7_4 H 0.6581 0.8602 0.0725
C8_4 C 0.68887(7) 0.83064(10) 0.10635(6)
N1_4 N 0.65267(6) 0.81486(11) 0.12122(7)
N2_4 N 0.65531(12) 0.7903(2) 0.14424(15)
N3_4 N 0.61637(13) 0.7806(2) 0.15332(15)
C9_4 C 0.61149(8) 0.82711(13) 0.11904(7)
H8_4 H 0.6008 0.8478 0.1062
C10_4 C 0.58853(8) 0.80390(15) 0.13876(9)
C11_4 C 0.52868(8) 0.78403(14) 0.17058(8)
H9_4 H 0.5470 0.7668 0.1815
C12_4 C 0.54376(8) 0.80723(14) 0.14639(8)
C13_4 C 0.51616(8) 0.83235(15) 0.12978(8)
H10_4 H 0.5263 0.8475 0.1135
C14_4 C 0.48603(8) 0.78677(15) 0.17831(8)
C15_4 C 0.45821(9) 0.81066(15) 0.16115(8)
H11_4 H 0.4293 0.8105 0.1655
C16_4 C 0.44580(9) 0.86134(17) 0.11988(9)
C17_4 C 0.47349(8) 0.83482(15) 0.13749(9)
C18_4 C 0.49031(8) 0.74266(13) 0.22572(7)
H12_4 H 0.5197 0.7405 0.2278
C19_4 C 0.46933(8) 0.76320(15) 0.20345(8)
N4_4 N 0.46121(7) 0.72618(12) 0.24408(6)
N5_4 N 0.42998(13) 0.7599(3) 0.20978(14)
N6_4 N 0.42441(12) 0.7386(3) 0.23538(14)
C20_4 C 0.40286(8) 0.86662(13) 0.12201(8)
H13_4 H 0.3849 0.8530 0.1354
N7_4 N 0.39123(7) 0.89521(12) 0.10116(7)
N8_4 N 0.42351(13) 0.9028(3) 0.08493(16)
N9_4 N 0.45749(14) 0.8854(3) 0.09844(17)
C21_4 C 0.51030(6) 0.67590(7) 0.31052(5)
C22_4 C 0.50656(7) 0.69847(9) 0.28383(5)
H14_4 H 0.5304 0.7105 0.2749
C23_4 C 0.43088(7) 0.68483(9) 0.28387(5)
H15_4 H 0.4044 0.6879 0.2749
C24_4 C 0.46664(7) 0.70252(10) 0.27094(6)
C25_4 C 0.30653(6) 0.95588(7) 0.06373(4)
C26_4 C 0.34656(7) 0.94120(9) 0.07168(6)
H16_4 H 0.3708 0.9513 0.0621
C27_4 C 0.34989(7) 0.91120(10) 0.09420(6)
C28_4 C 0.27060(6) 0.94142(7) 0.07835(4)
H17_4 H 0.2438 0.9510 0.0726
C29_4 C 0.47454(6) 0.65756(7) 0.32358(4)
H18_4 H 0.4772 0.6421 0.3411
C30_4 C 0.55257(6) 0.67287(6) 0.32567(4)
C31_4 C 0.27474(6) 0.91251(7) 0.10159(4)
C32_4 C 0.43504(6) 0.66238(7) 0.31046(5)
C33_4 C 0.39573(6) 0.64537(6) 0.32557(4)
C34_4 C 0.31444(7) 0.89754(9) 0.10983(6)
H19_4 H 0.3173 0.8786 0.1256
C35_4 C 0.30257(6) 0.98911(7) 0.03976(4)
C36_4 C 0.23571(6) 0.89850(6) 0.11834(4)
O15_4 O 0.20043(4) 0.90949(5) 0.10791(3)
O16_4 O 0.24156(4) 0.87721(5) 0.14184(3)
O17_10 O 0.18691(5) 0.80831(4) 0.14341(3)
O18_10 O 0.14857(5) 0.83854(4) 0.10738(3)
O21_10 O 0.10782(9) 0.92419(10) 0.09212(5)
H22_10 H 0.0971 0.9461 0.0987
O22_10 O 0.23413(7) 0.83300(8) 0.20139(5)
H23_10 H 0.2213 0.8139 0.2100
C37_10 C 0.12783(7) 0.72079(6) 0.06758(4)
C38_10 C 0.09873(7) 0.71637(6) 0.04088(4)
C39_10 C 0.13524(7) 0.76101(6) 0.07962(4)
H24_10 H 0.1239 0.7851 0.0706
C40_10 C 0.15987(7) 0.76454(6) 0.10533(4)
C41_10 C 0.16594(7) 0.80738(6) 0.11998(4)
C42_10 C 0.17662(9) 0.72866(7) 0.11883(5)
H25_10 H 0.1927 0.7312 0.1362
C43_10 C 0.14481(9) 0.68479(7) 0.08073(5)
H26_10 H 0.1398 0.6581 0.0725
C44_10 C 0.16936(10) 0.68887(7) 0.10635(6)
N10_10 N 0.18514(11) 0.65267(6) 0.12122(7)
N11_10 N 0.2097(2) 0.65531(12) 0.14424(15)
N12_10 N 0.2194(2) 0.61637(13) 0.15332(15)
C45_10 C 0.17289(13) 0.61149(8) 0.11904(7)
H27_10 H 0.1522 0.6008 0.1062
C46_10 C 0.19610(15) 0.58853(8) 0.13876(9)
C47_10 C 0.21597(14) 0.52868(8) 0.17058(8)
H28_10 H 0.2332 0.5470 0.1815
C48_10 C 0.19277(14) 0.54376(8) 0.14639(8)
C49_10 C 0.16765(15) 0.51616(8) 0.12978(8)
H29_10 H 0.1525 0.5263 0.1135
C50_10 C 0.21323(15) 0.48603(8) 0.17831(8)
C51_10 C 0.18934(15) 0.45821(9) 0.16115(8)
H30_10 H 0.1895 0.4293 0.1655
C52_10 C 0.13866(17) 0.44580(9) 0.11988(9)
C53_10 C 0.16518(15) 0.47349(8) 0.13749(9)
C54_10 C 0.25734(13) 0.49031(8) 0.22572(7)
H31_10 H 0.2595 0.5197 0.2278
C55_10 C 0.23680(15) 0.46933(8) 0.20345(8)
N13_10 N 0.27382(12) 0.46121(7) 0.24408(6)
N14_10 N 0.2401(3) 0.42998(13) 0.20978(14)
N15_10 N 0.2614(3) 0.42441(12) 0.23538(14)
C56_10 C 0.13338(13) 0.40286(8) 0.12201(8)
H32_10 H 0.1470 0.3849 0.1354
N16_10 N 0.10479(12) 0.39123(7) 0.10116(7)
N17_10 N 0.0972(3) 0.42351(13) 0.08493(16)
N18_10 N 0.1146(3) 0.45749(14) 0.09844(17)
C57_10 C 0.32410(7) 0.51030(6) 0.31052(5)
C58_10 C 0.30153(9) 0.50656(7) 0.28383(5)
H33_10 H 0.2895 0.5304 0.2749
C59_10 C 0.31517(9) 0.43088(7) 0.28387(5)
H34_10 H 0.3121 0.4044 0.2749
C60_10 C 0.29748(10) 0.46664(7) 0.27094(6)
C61_10 C 0.04412(7) 0.30653(6) 0.06373(4)
C62_10 C 0.05880(9) 0.34656(7) 0.07168(6)
H35_10 H 0.0487 0.3708 0.0621
C63_10 C 0.08880(10) 0.34989(7) 0.09420(6)
C64_10 C 0.05858(7) 0.27060(6) 0.07835(4)
H36_10 H 0.0490 0.2438 0.0726
C65_10 C 0.34244(7) 0.47454(6) 0.32358(4)
H37_10 H 0.3579 0.4772 0.3411
C66_10 C 0.32713(6) 0.55257(6) 0.32567(4)
C67_10 C 0.08749(7) 0.27474(6) 0.10159(4)
C68_10 C 0.33762(7) 0.43504(6) 0.31046(5)
C69_10 C 0.35463(6) 0.39573(6) 0.32557(4)
C70_10 C 0.10246(9) 0.31444(7) 0.10983(6)
H38_10 H 0.1214 0.3173 0.1256
C71_10 C 0.01089(7) 0.30257(6) 0.03976(4)
C72_10 C 0.10150(6) 0.23571(6) 0.11834(4)
O29_7 O 0.09051(5) 0.20043(4) 0.10791(3)
O30_7 O 0.12279(5) 0.24156(4) 0.14184(3)
O45_4 O 0.90949(5) 0.79957(4) 0.10791(3)
O46_4 O 0.87721(5) 0.75844(4) 0.14184(3)
H39_4 H 0.931179 0.874013 0.0746674
H40_4 H 0.821256 0.739744 0.19203
H41_10 H 0.125987 0.931179 0.0746674
H42_10 H 0.260256 0.821256 0.19203
O17_11 O 0.19169(4) 0.18691(5) 0.14341(3)
O18_11 O 0.16146(4) 0.14857(5) 0.10738(3)
O21_11 O 0.07581(10) 0.10782(9) 0.09212(5)
H22_11 H 0.0539 0.0971 0.0987
O22_11 O 0.16700(8) 0.23413(7) 0.20139(5)
H23_11 H 0.1861 0.2213 0.2100
C37_11 C 0.27921(6) 0.12783(7) 0.06758(4)
C38_11 C 0.28363(6) 0.09873(7) 0.04088(4)
C39_11 C 0.23899(6) 0.13524(7) 0.07962(4)
H24_11 H 0.2149 0.1239 0.0706
C40_11 C 0.23546(6) 0.15987(7) 0.10533(4)
C41_11 C 0.19262(6) 0.16594(7) 0.11998(4)
C42_11 C 0.27134(7) 0.17662(9) 0.11883(5)
H25_11 H 0.2688 0.1927 0.1362
C43_11 C 0.31521(7) 0.14481(9) 0.08073(5)
H26_11 H 0.3419 0.1398 0.0725
C44_11 C 0.31113(7) 0.16936(10) 0.10635(6)
N10_11 N 0.34733(6) 0.18514(11) 0.12122(7)
N11_11 N 0.34469(12) 0.2097(2) 0.14424(15)
N12_11 N 0.38363(13) 0.2194(2) 0.15332(15)
C45_11 C 0.38851(8) 0.17289(13) 0.11904(7)
H27_11 H 0.3992 0.1522 0.1062
C46_11 C 0.41147(8) 0.19610(15) 0.13876(9)
C47_11 C 0.47132(8) 0.21597(14) 0.17058(8)
H28_11 H 0.4530 0.2332 0.1815
C48_11 C 0.45624(8) 0.19277(14) 0.14639(8)
C49_11 C 0.48384(8) 0.16765(15) 0.12978(8)
H29_11 H 0.4737 0.1525 0.1135
C50_11 C 0.51397(8) 0.21323(15) 0.17831(8)
C51_11 C 0.54179(9) 0.18934(15) 0.16115(8)
H30_11 H 0.5707 0.1895 0.1655
C52_11 C 0.55420(9) 0.13866(17) 0.11988(9)
C53_11 C 0.52651(8) 0.16518(15) 0.13749(9)
C54_11 C 0.50969(8) 0.25734(13) 0.22572(7)
H31_11 H 0.4803 0.2595 0.2278
C55_11 C 0.53067(8) 0.23680(15) 0.20345(8)
N13_11 N 0.53879(7) 0.27382(12) 0.24408(6)
N14_11 N 0.57002(13) 0.2401(3) 0.20978(14)
N15_11 N 0.57559(12) 0.2614(3) 0.23538(14)
C56_11 C 0.59714(8) 0.13338(13) 0.12201(8)
H32_11 H 0.6151 0.1470 0.1354
N16_11 N 0.60877(7) 0.10479(12) 0.10116(7)
N17_11 N 0.57649(13) 0.0972(3) 0.08493(16)
N18_11 N 0.54251(14) 0.1146(3) 0.09844(17)
C57_11 C 0.48970(6) 0.32410(7) 0.31052(5)
C58_11 C 0.49344(7) 0.30153(9) 0.28383(5)
H33_11 H 0.4696 0.2895 0.2749
C59_11 C 0.56912(7) 0.31517(9) 0.28387(5)
H34_11 H 0.5956 0.3121 0.2749
C60_11 C 0.53336(7) 0.29748(10) 0.27094(6)
C61_11 C 0.69347(6) 0.04412(7) 0.06373(4)
C62_11 C 0.65344(7) 0.05880(9) 0.07168(6)
H35_11 H 0.6292 0.0487 0.0621
C63_11 C 0.65011(7) 0.08880(10) 0.09420(6)
C64_11 C 0.72940(6) 0.05858(7) 0.07835(4)
H36_11 H 0.7562 0.0490 0.0726
C65_11 C 0.52546(6) 0.34244(7) 0.32358(4)
H37_11 H 0.5228 0.3579 0.3411
C66_11 C 0.44743(6) 0.32713(6) 0.32567(4)
C67_11 C 0.72526(6) 0.08749(7) 0.10159(4)
C68_11 C 0.56496(6) 0.33762(7) 0.31046(5)
C69_11 C 0.60427(6) 0.35463(6) 0.32557(4)
C70_11 C 0.68556(7) 0.10246(9) 0.10983(6)
H38_11 H 0.6827 0.1214 0.1256
C71_11 C 0.69743(6) 0.01089(7) 0.03976(4)
C72_11 C 0.76429(6) 0.10150(6) 0.11834(4)
O29_8 O 0.79957(4) 0.09051(5) 0.10791(3)
O30_8 O 0.75844(4) 0.12279(5) 0.14184(3)
H41_11 H 0.0688207 0.125987 0.0746674
H42_11 H 0.178744 0.260256 0.19203
O17_12 O 0.81309(5) 0.19169(4) 0.14341(3)
O18_12 O 0.85143(5) 0.16146(4) 0.10738(3)
O21_12 O 0.89218(9) 0.07581(10) 0.09212(5)
H22_12 H 0.9029 0.0539 0.0987
O22_12 O 0.76587(7) 0.16700(8) 0.20139(5)
H23_12 H 0.7787 0.1861 0.2100
C37_12 C 0.87217(7) 0.27921(6) 0.06758(4)
C38_12 C 0.90127(7) 0.28363(6) 0.04088(4)
C39_12 C 0.86476(7) 0.23899(6) 0.07962(4)
H24_12 H 0.8761 0.2149 0.0706
C40_12 C 0.84013(7) 0.23546(6) 0.10533(4)
C41_12 C 0.83406(7) 0.19262(6) 0.11998(4)
C42_12 C 0.82338(9) 0.27134(7) 0.11883(5)
H25_12 H 0.8073 0.2688 0.1362
C43_12 C 0.85519(9) 0.31521(7) 0.08073(5)
H26_12 H 0.8602 0.3419 0.0725
C44_12 C 0.83064(10) 0.31113(7) 0.10635(6)
N10_12 N 0.81486(11) 0.34733(6) 0.12122(7)
N11_12 N 0.7903(2) 0.34469(12) 0.14424(15)
N12_12 N 0.7806(2) 0.38363(13) 0.15332(15)
C45_12 C 0.82711(13) 0.38851(8) 0.11904(7)
H27_12 H 0.8478 0.3992 0.1062
C46_12 C 0.80390(15) 0.41147(8) 0.13876(9)
C47_12 C 0.78403(14) 0.47132(8) 0.17058(8)
H28_12 H 0.7668 0.4530 0.1815
C48_12 C 0.80723(14) 0.45624(8) 0.14639(8)
C49_12 C 0.83235(15) 0.48384(8) 0.12978(8)
H29_12 H 0.8475 0.4737 0.1135
C50_12 C 0.78677(15) 0.51397(8) 0.17831(8)
C51_12 C 0.81066(15) 0.54179(9) 0.16115(8)
H30_12 H 0.8105 0.5707 0.1655
C52_12 C 0.86134(17) 0.55420(9) 0.11988(9)
C53_12 C 0.83482(15) 0.52651(8) 0.13749(9)
C54_12 C 0.74266(13) 0.50969(8) 0.22572(7)
H31_12 H 0.7405 0.4803 0.2278
C55_12 C 0.76320(15) 0.53067(8) 0.20345(8)
N13_12 N 0.72618(12) 0.53879(7) 0.24408(6)
N14_12 N 0.7599(3) 0.57002(13) 0.20978(14)
N15_12 N 0.7386(3) 0.57559(12) 0.23538(14)
C56_12 C 0.86662(13) 0.59714(8) 0.12201(8)
H32_12 H 0.8530 0.6151 0.1354
N16_12 N 0.89521(12) 0.60877(7) 0.10116(7)
N17_12 N 0.9028(3) 0.57649(13) 0.08493(16)
N18_12 N 0.8854(3) 0.54251(14) 0.09844(17)
C57_12 C 0.67590(7) 0.48970(6) 0.31052(5)
C58_12 C 0.69847(9) 0.49344(7) 0.28383(5)
H33_12 H 0.7105 0.4696 0.2749
C59_12 C 0.68483(9) 0.56912(7) 0.28387(5)
H34_12 H 0.6879 0.5956 0.2749
C60_12 C 0.70252(10) 0.53336(7) 0.27094(6)
C61_12 C 0.95588(7) 0.69347(6) 0.06373(4)
C62_12 C 0.94120(9) 0.65344(7) 0.07168(6)
H35_12 H 0.9513 0.6292 0.0621
C63_12 C 0.91120(10) 0.65011(7) 0.09420(6)
C64_12 C 0.94142(7) 0.72940(6) 0.07835(4)
H36_12 H 0.9510 0.7562 0.0726
C65_12 C 0.65756(7) 0.52546(6) 0.32358(4)
H37_12 H 0.6421 0.5228 0.3411
C66_12 C 0.67287(6) 0.44743(6) 0.32567(4)
C67_12 C 0.91251(7) 0.72526(6) 0.10159(4)
C68_12 C 0.66238(7) 0.56496(6) 0.31046(5)
C69_12 C 0.64537(6) 0.60427(6) 0.32557(4)
C70_12 C 0.89754(9) 0.68556(7) 0.10983(6)
H38_12 H 0.8786 0.6827 0.1256
C71_12 C 0.98911(7) 0.69743(6) 0.03976(4)
C72_12 C 0.89850(6) 0.76429(6) 0.11834(4)
H41_12 H 0.874013 0.0688207 0.0746674
H42_12 H 0.739744 0.178744 0.19203
loop_
_geom_bond_atom_site_label_1
_geom_bond_atom_site_label_2
_geom_bond_site_symmetry_1
_geom_bond_site_symmetry_2
C51 C50 1_555 1_555
H30 C51 1_555 1_555
C52 C53 1_555 1_555
C55 C50 1_555 1_555
N13 C54 1_555 1_555
N14 C55 1_555 1_555
N15 N13 1_555 1_555
C56 C52 1_555 1_555
H32 C56 1_555 1_555
N16 C56 1_555 1_555
N17 N16 1_555 1_555
N18 C52 1_555 1_555
C59 H34 1_555 1_555
C60 N13 1_555 1_555
C61 C62 1_555 1_555
C62 H35 1_555 1_555
C63 N16 1_555 1_555
C64 C61 1_555 1_555
H36 C64 1_555 1_555
H37 C65 1_555 1_555
C67 C64 1_555 1_555
C68 C59 1_555 1_555
C69 C68 1_555 1_555
C70 C63 1_555 1_555
H38 C70 1_555 1_555
C71 C61 1_555 1_555
C72 C67 1_555 1_555
O23 C69 1_555 1_555
O26 C71 1_555 1_555
O27 C69 1_555 1_555
O28 C71 1_555 1_555
O29 C72 1_555 1_555
O30 C72 1_555 1_555
Zn7 O30 1_555 1_555
Zn10 O23 1_555 1_555
Zn11 O29 1_555 1_555
Zn14 O27 1_555 1_555
Zn17 O28 1_555 1_555
Zn20 O26 1_555 1_555
C51 C53 1_555 1_555
C54 C55 1_555 1_555
N14 N15 1_555 1_555
N17 N18 1_555 1_555
C59 C60 1_555 1_555
C62 C63 1_555 1_555
C65 C68 1_555 1_555
C67 C70 1_555 1_555
C15 C14 1_555 1_555
H11 C15 1_555 1_555
C16 C17 1_555 1_555
C19 C14 1_555 1_555
N4 C18 1_555 1_555
N5 C19 1_555 1_555
N6 N4 1_555 1_555
C20 C16 1_555 1_555
H13 C20 1_555 1_555
N7 C20 1_555 1_555
N8 N7 1_555 1_555
N9 C16 1_555 1_555
C23 H15 1_555 1_555
C24 N4 1_555 1_555
C25 C26 1_555 1_555
C26 H16 1_555 1_555
C27 N7 1_555 1_555
C28 C25 1_555 1_555
H17 C28 1_555 1_555
H18 C29 1_555 1_555
C31 C28 1_555 1_555
C32 C23 1_555 1_555
C33 C32 1_555 1_555
C34 C27 1_555 1_555
H19 C34 1_555 1_555
C35 C25 1_555 1_555
C36 C31 1_555 1_555
O9 C33 1_555 1_555
O12 C35 1_555 1_555
O13 C33 1_555 1_555
O14 C35 1_555 1_555
O15 C36 1_555 1_555
O16 C36 1_555 1_555
Zn5 O16 1_555 1_555
Zn6 O15 1_555 1_555
O17 Zn5 1_555 1_555
O18 Zn6 1_555 1_555
O19 C38 1_555 1_555
O20 C38 1_555 1_555
O21 Zn6 1_555 1_555
H22 O21 1_555 1_555
O22 Zn5 1_555 1_555
H23 O22 1_555 1_555
C37 C38 1_555 1_555
C39 C37 1_555 1_555
H24 C39 1_555 1_555
C40 C39 1_555 1_555
C41 O17 1_555 1_555
C42 C40 1_555 1_555
H25 C42 1_555 1_555
C43 C37 1_555 1_555
H26 C43 1_555 1_555
C44 C42 1_555 1_555
N10 C44 1_555 1_555
N11 N10 1_555 1_555
N12 N11 1_555 1_555
C45 N10 1_555 1_555
H27 C45 1_555 1_555
C46 N12 1_555 1_555
C47 H28 1_555 1_555
C48 C46 1_555 1_555
C49 C48 1_555 1_555
H29 C49 1_555 1_555
C57 C58 1_555 1_555
C58 H33 1_555 1_555
C66 C57 1_555 1_555
O24 C66 1_555 1_555
O25 C66 1_555 1_555
Zn9 O9 1_555 1_555
Zn13 O13 1_555 1_555
Zn15 O19 1_555 1_555
Zn16 O14 1_555 1_555
Zn18 O20 1_555 1_555
Zn19 O12 1_555 1_555
O33 Zn5 1_555 1_555
O36 Zn5 1_555 1_555
O38 Zn6 1_555 1_555
O41 Zn6 1_555 1_555
C15 C17 1_555 1_555
C18 C19 1_555 1_555
N5 N6 1_555 1_555
N8 N9 1_555 1_555
C23 C24 1_555 1_555
C26 C27 1_555 1_555
C29 C32 1_555 1_555
C31 C34 1_555 1_555
O18 C41 1_555 1_555
C40 C41 1_555 1_555
C43 C44 1_555 1_555
C45 C46 1_555 1_555
C47 C48 1_555 1_555
O24 Zn9 1_555 1_555
O25 Zn13 1_555 1_555
O21 H41 1_555 1_555
O22 H42 1_555 1_555
Zn1 O1 1_555 1_555
Zn2 O2 1_555 1_555
Zn3 O3 1_555 1_555
Zn4 O4 1_555 1_555
O1 C5 1_555 1_555
O2 C5 1_555 1_555
O3 C2 1_555 1_555
O4 C2 1_555 1_555
O5 Zn2 1_555 1_555
H1 O5 1_555 1_555
O6 Zn1 1_555 1_555
H2 O6 1_555 1_555
O7 Zn3 1_555 1_555
H3 O7 1_555 1_555
O8 Zn4 1_555 1_555
H4 O8 1_555 1_555
C1 C2 1_555 1_555
C3 C1 1_555 1_555
H5 C3 1_555 1_555
C4 C3 1_555 1_555
C5 C4 1_555 1_555
C6 C4 1_555 1_555
H6 C6 1_555 1_555
C7 C1 1_555 1_555
H7 C7 1_555 1_555
C8 C6 1_555 1_555
N1 C8 1_555 1_555
N2 N1 1_555 1_555
N3 N2 1_555 1_555
C9 N1 1_555 1_555
H8 C9 1_555 1_555
C10 N3 1_555 1_555
C11 H9 1_555 1_555
C12 C10 1_555 1_555
C13 C12 1_555 1_555
H10 C13 1_555 1_555
C21 C22 1_555 1_555
C22 H14 1_555 1_555
C30 C21 1_555 1_555
O10 C30 1_555 1_555
O11 C30 1_555 1_555
H20 O7 1_555 1_555
H21 O8 1_555 1_555
Zn8 O10 1_555 1_555
Zn12 O11 1_555 1_555
O31 Zn3 1_555 1_555
O32 Zn4 1_555 1_555
O34 Zn1 1_555 1_555
O35 Zn1 1_555 1_555
O37 Zn2 1_555 1_555
O39 Zn4 1_555 1_555
O40 Zn4 1_555 1_555
O42 Zn2 1_555 1_555
O43 Zn3 1_555 1_555
O44 Zn3 1_555 1_555
O45 Zn2 1_555 1_555
O46 Zn1 1_555 1_555
C7 C8 1_555 1_555
C9 C10 1_555 1_555
C11 C12 1_555 1_555
O5 H39 1_555 1_555
O6 H40 1_555 1_555
O17_2 Zn7 1_555 1_555
O18_2 Zn11 1_555 1_555
O19_2 C38_2 1_555 1_555
O20_2 C38_2 1_555 1_555
O21_2 Zn11 1_555 1_555
H22_2 O21_2 1_555 1_555
O22_2 Zn7 1_555 1_555
H23_2 O22_2 1_555 1_555
C37_2 C38_2 1_555 1_555
C39_2 C37_2 1_555 1_555
H24_2 C39_2 1_555 1_555
C40_2 C39_2 1_555 1_555
C41_2 O17_2 1_555 1_555
C42_2 C40_2 1_555 1_555
H25_2 C42_2 1_555 1_555
C43_2 C37_2 1_555 1_555
H26_2 C43_2 1_555 1_555
C44_2 C42_2 1_555 1_555
N10_2 C44_2 1_555 1_555
N11_2 N10_2 1_555 1_555
N12_2 N11_2 1_555 1_555
C45_2 N10_2 1_555 1_555
H27_2 C45_2 1_555 1_555
C46_2 N12_2 1_555 1_555
C47_2 H28_2 1_555 1_555
C48_2 C46_2 1_555 1_555
C49_2 C48_2 1_555 1_555
H29_2 C49_2 1_555 1_555
C57_2 C58_2 1_555 1_555
C58_2 H33_2 1_555 1_555
C66_2 C57_2 1_555 1_555
O24_2 C66_2 1_555 1_555
O25_2 C66_2 1_555 1_555
Zn16 O19_2 1_555 1_555
Zn19 O20_2 1_555 1_555
O33_2 Zn7 1_555 1_555
O36_2 Zn7 1_555 1_555
O38_2 Zn11 1_555 1_555
O41_2 Zn11 1_555 1_555
O18_2 C41_2 1_555 1_555
C40_2 C41_2 1_555 1_555
C43_2 C44_2 1_555 1_555
C45_2 C46_2 1_555 1_555
C47_2 C48_2 1_555 1_555
O24_2 Zn10 1_555 1_555
O25_2 Zn14 1_555 1_555
O21_2 H41_2 1_555 1_555
O22_2 H42_2 1_555 1_555
O7_2 Zn15 1_555 1_555
H3_2 O7_2 1_555 1_555
O8_2 Zn18 1_555 1_555
H4_2 O8_2 1_555 1_555
H20_2 O7_2 1_555 1_555
H21_2 O8_2 1_555 1_555
O31_2 Zn15 1_555 1_555
O32_2 Zn18 1_555 1_555
O39_2 Zn18 1_555 1_555
O40_2 Zn18 1_555 1_555
O43_2 Zn15 1_555 1_555
O44_2 Zn15 1_555 1_555
C51_2 C50_2 1_555 1_555
H30_2 C51_2 1_555 1_555
C52_2 C53_2 1_555 1_555
C55_2 C50_2 1_555 1_555
N13_2 C54_2 1_555 1_555
N14_2 C55_2 1_555 1_555
N15_2 N13_2 1_555 1_555
C56_2 C52_2 1_555 1_555
H32_2 C56_2 1_555 1_555
N16_2 C56_2 1_555 1_555
N17_2 N16_2 1_555 1_555
N18_2 C52_2 1_555 1_555
C59_2 H34_2 1_555 1_555
C60_2 N13_2 1_555 1_555
C61_2 C62_2 1_555 1_555
C62_2 H35_2 1_555 1_555
C63_2 N16_2 1_555 1_555
C64_2 C61_2 1_555 1_555
H36_2 C64_2 1_555 1_555
H37_2 C65_2 1_555 1_555
C67_2 C64_2 1_555 1_555
C68_2 C59_2 1_555 1_555
C69_2 C68_2 1_555 1_555
C70_2 C63_2 1_555 1_555
H38_2 C70_2 1_555 1_555
C71_2 C61_2 1_555 1_555
C72_2 C67_2 1_555 1_555
O23_2 C69_2 1_555 1_555
O39 C71_2 1_555 1_555
O27_2 C69_2 1_555 1_555
O43 C71_2 1_555 1_555
O29_2 C72_2 1_555 1_555
O30_2 C72_2 1_555 1_555
Zn7_2 O30_2 1_555 1_555
Zn10_2 O23_2 1_555 1_555
Zn11_2 O29_2 1_555 1_555
Zn14_2 O27_2 1_555 1_555
C51_2 C53_2 1_555 1_555
C54_2 C55_2 1_555 1_555
N14_2 N15_2 1_555 1_555
N17_2 N18_2 1_555 1_555
C59_2 C60_2 1_555 1_555
C62_2 C63_2 1_555 1_555
C65_2 C68_2 1_555 1_555
C67_2 C70_2 1_555 1_555
O7_3 Zn16 1_555 1_555
H3_3 O7_3 1_555 1_555
O8_3 Zn19 1_555 1_555
H4_3 O8_3 1_555 1_555
H20_3 O7_3 1_555 1_555
H21_3 O8_3 1_555 1_555
O31_3 Zn16 1_555 1_555
O32_3 Zn19 1_555 1_555
O40_3 Zn19 1_555 1_555
O44_3 Zn16 1_555 1_555
O17_3 Zn7_2 1_555 1_555
O18_3 Zn11_2 1_555 1_555
O19_3 C38_3 1_555 1_555
O20_3 C38_3 1_555 1_555
O21_3 Zn11_2 1_555 1_555
H22_3 O21_3 1_555 1_555
O22_3 Zn7_2 1_555 1_555
H23_3 O22_3 1_555 1_555
C37_3 C38_3 1_555 1_555
C39_3 C37_3 1_555 1_555
H24_3 C39_3 1_555 1_555
C40_3 C39_3 1_555 1_555
C41_3 O17_3 1_555 1_555
C42_3 C40_3 1_555 1_555
H25_3 C42_3 1_555 1_555
C43_3 C37_3 1_555 1_555
H26_3 C43_3 1_555 1_555
C44_3 C42_3 1_555 1_555
N10_3 C44_3 1_555 1_555
N11_3 N10_3 1_555 1_555
N12_3 N11_3 1_555 1_555
C45_3 N10_3 1_555 1_555
H27_3 C45_3 1_555 1_555
C46_3 N12_3 1_555 1_555
C47_3 H28_3 1_555 1_555
C48_3 C46_3 1_555 1_555
C49_3 C48_3 1_555 1_555
H29_3 C49_3 1_555 1_555
C57_3 C58_3 1_555 1_555
C58_3 H33_3 1_555 1_555
C66_3 C57_3 1_555 1_555
O24_3 C66_3 1_555 1_555
O25_3 C66_3 1_555 1_555
Zn17 O19_3 1_555 1_555
Zn20 O20_3 1_555 1_555
O33_3 Zn7_2 1_555 1_555
O36_3 Zn7_2 1_555 1_555
O38_3 Zn11_2 1_555 1_555
O41_3 Zn11_2 1_555 1_555
O18_3 C41_3 1_555 1_555
C40_3 C41_3 1_555 1_555
C43_3 C44_3 1_555 1_555
C45_3 C46_3 1_555 1_555
C47_3 C48_3 1_555 1_555
O24_3 Zn10_2 1_555 1_555
O25_3 Zn14_2 1_555 1_555
O21_3 H41_3 1_555 1_555
O22_3 H42_3 1_555 1_555
C51_3 C50_3 1_555 1_555
H30_3 C51_3 1_555 1_555
C52_3 C53_3 1_555 1_555
C55_3 C50_3 1_555 1_555
N13_3 C54_3 1_555 1_555
N14_3 C55_3 1_555 1_555
N15_3 N13_3 1_555 1_555
C56_3 C52_3 1_555 1_555
H32_3 C56_3 1_555 1_555
N16_3 C56_3 1_555 1_555
N17_3 N16_3 1_555 1_555
N18_3 C52_3 1_555 1_555
C59_3 H34_3 1_555 1_555
C60_3 N13_3 1_555 1_555
C61_3 C62_3 1_555 1_555
C62_3 H35_3 1_555 1_555
C63_3 N16_3 1_555 1_555
C64_3 C61_3 1_555 1_555
H36_3 C64_3 1_555 1_555
H37_3 C65_3 1_555 1_555
C67_3 C64_3 1_555 1_555
C68_3 C59_3 1_555 1_555
C69_3 C68_3 1_555 1_555
C70_3 C63_3 1_555 1_555
H38_3 C70_3 1_555 1_555
C71_3 C61_3 1_555 1_555
C72_3 C67_3 1_555 1_555
O23_3 C69_3 1_555 1_555
O39_2 C71_3 1_555 1_555
O27_3 C69_3 1_555 1_555
O43_2 C71_3 1_555 1_555
O45 C72_3 1_555 1_555
O46 C72_3 1_555 1_555
Zn8 O23_3 1_555 1_555
Zn12 O27_3 1_555 1_555
C51_3 C53_3 1_555 1_555
C54_3 C55_3 1_555 1_555
N14_3 N15_3 1_555 1_555
N17_3 N18_3 1_555 1_555
C59_3 C60_3 1_555 1_555
C62_3 C63_3 1_555 1_555
C65_3 C68_3 1_555 1_555
C67_3 C70_3 1_555 1_555
O7_4 Zn17 1_555 1_555
H3_4 O7_4 1_555 1_555
O8_4 Zn20 1_555 1_555
H4_4 O8_4 1_555 1_555
H20_4 O7_4 1_555 1_555
H21_4 O8_4 1_555 1_555
O31_4 Zn17 1_555 1_555
O32_4 Zn20 1_555 1_555
O40_4 Zn20 1_555 1_555
O44_4 Zn17 1_555 1_555
Zn20_3 O26_2 1_555 1_555
O7_5 Zn3_2 1_555 1_555
H3_5 O7_5 1_555 1_555
O8_5 Zn4_2 1_555 1_555
H4_5 O8_5 1_555 1_555
O31_5 Zn3_2 1_555 1_555
O32_5 Zn4_2 1_555 1_555
O40_5 Zn4_2 1_555 1_555
Zn1_2 O1_2 1_555 1_555
Zn2_2 O2_2 1_555 1_555
Zn3_3 O3_2 1_555 1_555
Zn4_3 O4_2 1_555 1_555
O1_2 C5_2 1_555 1_555
O2_2 C5_2 1_555 1_555
O3_2 C2_2 1_555 1_555
O4_2 C2_2 1_555 1_555
O5_2 Zn2_2 1_555 1_555
H1_2 O5_2 1_555 1_555
O6_2 Zn1_2 1_555 1_555
H2_2 O6_2 1_555 1_555
O7_6 Zn3_3 1_555 1_555
O8_6 Zn4_3 1_555 1_555
C1_2 C2_2 1_555 1_555
C3_2 C1_2 1_555 1_555
H5_2 C3_2 1_555 1_555
C4_2 C3_2 1_555 1_555
C5_2 C4_2 1_555 1_555
C6_2 C4_2 1_555 1_555
H6_2 C6_2 1_555 1_555
C7_2 C1_2 1_555 1_555
H7_2 C7_2 1_555 1_555
C8_2 C6_2 1_555 1_555
N1_2 C8_2 1_555 1_555
N2_2 N1_2 1_555 1_555
N3_2 N2_2 1_555 1_555
C9_2 N1_2 1_555 1_555
H8_2 C9_2 1_555 1_555
C10_2 N3_2 1_555 1_555
C11_2 H9_2 1_555 1_555
C12_2 C10_2 1_555 1_555
C13_2 C12_2 1_555 1_555
H10_2 C13_2 1_555 1_555
C14_2 C11_2 1_555 1_555
C15_2 C14_2 1_555 1_555
H11_2 C15_2 1_555 1_555
C16_2 C17_2 1_555 1_555
C17_2 C13_2 1_555 1_555
C18_2 H12_2 1_555 1_555
C19_2 C14_2 1_555 1_555
N4_2 C18_2 1_555 1_555
N5_2 C19_2 1_555 1_555
N6_2 N4_2 1_555 1_555
C20_2 C16_2 1_555 1_555
H13_2 C20_2 1_555 1_555
N7_2 C20_2 1_555 1_555
N8_2 N7_2 1_555 1_555
N9_2 C16_2 1_555 1_555
C21_2 C22_2 1_555 1_555
C22_2 H14_2 1_555 1_555
C23_2 H15_2 1_555 1_555
C24_2 N4_2 1_555 1_555
C25_2 C26_2 1_555 1_555
C26_2 H16_2 1_555 1_555
C27_2 N7_2 1_555 1_555
C28_2 C25_2 1_555 1_555
H17_2 C28_2 1_555 1_555
C29_2 C21_2 1_555 1_555
H18_2 C29_2 1_555 1_555
C30_2 C21_2 1_555 1_555
C31_2 C28_2 1_555 1_555
C32_2 C23_2 1_555 1_555
C33_2 C32_2 1_555 1_555
C34_2 C27_2 1_555 1_555
H19_2 C34_2 1_555 1_555
C35_2 C25_2 1_555 1_555
C36_2 C31_2 1_555 1_555
O9_2 C33_2 1_555 1_555
O10_2 C30_2 1_555 1_555
O11_2 C30_2 1_555 1_555
O13_2 C33_2 1_555 1_555
O14_2 C35_2 1_555 1_555
O15_2 C36_2 1_555 1_555
O16_2 C36_2 1_555 1_555
H20_5 O7_6 1_555 1_555
H21_5 O8_6 1_555 1_555
Zn5_2 O16_2 1_555 1_555
Zn6_2 O15_2 1_555 1_555
O17_4 Zn5_2 1_555 1_555
O18_4 Zn6_2 1_555 1_555
O19_4 C38_4 1_555 1_555
O20_4 C38_4 1_555 1_555
O21_4 Zn6_2 1_555 1_555
H22_4 O21_4 1_555 1_555
O22_4 Zn5_2 1_555 1_555
H23_4 O22_4 1_555 1_555
C37_4 C38_4 1_555 1_555
C39_4 C37_4 1_555 1_555
H24_4 C39_4 1_555 1_555
C40_4 C39_4 1_555 1_555
C41_4 O17_4 1_555 1_555
C42_4 C40_4 1_555 1_555
H25_4 C42_4 1_555 1_555
C43_4 C37_4 1_555 1_555
H26_4 C43_4 1_555 1_555
C44_4 C42_4 1_555 1_555
N10_4 C44_4 1_555 1_555
N11_4 N10_4 1_555 1_555
N12_4 N11_4 1_555 1_555
C45_4 N10_4 1_555 1_555
H27_4 C45_4 1_555 1_555
C46_4 N12_4 1_555 1_555
C47_4 H28_4 1_555 1_555
C48_4 C46_4 1_555 1_555
C49_4 C48_4 1_555 1_555
H29_4 C49_4 1_555 1_555
C50_4 C47_4 1_555 1_555
C51_4 C50_4 1_555 1_555
H30_4 C51_4 1_555 1_555
C52_4 C53_4 1_555 1_555
C53_4 C49_4 1_555 1_555
C54_4 H31_4 1_555 1_555
C55_4 C50_4 1_555 1_555
N13_4 C54_4 1_555 1_555
N14_4 C55_4 1_555 1_555
N15_4 N13_4 1_555 1_555
C56_4 C52_4 1_555 1_555
H32_4 C56_4 1_555 1_555
N16_4 C56_4 1_555 1_555
N17_4 N16_4 1_555 1_555
N18_4 C52_4 1_555 1_555
C57_4 C58_4 1_555 1_555
C58_4 H33_4 1_555 1_555
C59_4 H34_4 1_555 1_555
C60_4 N13_4 1_555 1_555
C61_4 C62_4 1_555 1_555
C62_4 H35_4 1_555 1_555
C63_4 N16_4 1_555 1_555
C64_4 C61_4 1_555 1_555
H36_4 C64_4 1_555 1_555
C65_4 C57_4 1_555 1_555
H37_4 C65_4 1_555 1_555
C66_4 C57_4 1_555 1_555
C67_4 C64_4 1_555 1_555
C68_4 C59_4 1_555 1_555
C69_4 C68_4 1_555 1_555
C70_4 C63_4 1_555 1_555
H38_4 C70_4 1_555 1_555
C71_4 C61_4 1_555 1_555
C72_4 C67_4 1_555 1_555
O23_4 C69_4 1_555 1_555
O24_4 C66_4 1_555 1_555
O25_4 C66_4 1_555 1_555
O27_4 C69_4 1_555 1_555
O28_2 C71_4 1_555 1_555
O29_3 C72_4 1_555 1_555
O30_3 C72_4 1_555 1_555
Zn7_3 O30_3 1_555 1_555
Zn8_2 O10_2 1_555 1_555
Zn9_2 O9_2 1_555 1_555
Zn10_3 O23_4 1_555 1_555
Zn11_3 O29_3 1_555 1_555
Zn12_2 O11_2 1_555 1_555
Zn13_2 O13_2 1_555 1_555
Zn14_3 O27_4 1_555 1_555
Zn15_3 O19_4 1_555 1_555
Zn18_3 O20_4 1_555 1_555
O33_4 Zn5_2 1_555 1_555
O34_2 Zn1_2 1_555 1_555
O35_2 Zn1_2 1_555 1_555
O36_4 Zn5_2 1_555 1_555
O37_2 Zn2_2 1_555 1_555
O38_4 Zn6_2 1_555 1_555
O39_3 Zn4_3 1_555 1_555
O41_4 Zn6_2 1_555 1_555
O42_2 Zn2_2 1_555 1_555
O45_2 Zn2_2 1_555 1_555
O46_2 Zn1_2 1_555 1_555
C7_2 C8_2 1_555 1_555
C9_2 C10_2 1_555 1_555
C11_2 C12_2 1_555 1_555
C15_2 C17_2 1_555 1_555
C18_2 C19_2 1_555 1_555
N5_2 N6_2 1_555 1_555
N8_2 N9_2 1_555 1_555
C22_2 C24_2 1_555 1_555
C23_2 C24_2 1_555 1_555
C26_2 C27_2 1_555 1_555
C29_2 C32_2 1_555 1_555
C31_2 C34_2 1_555 1_555
O18_4 C41_4 1_555 1_555
C40_4 C41_4 1_555 1_555
C43_4 C44_4 1_555 1_555
C45_4 C46_4 1_555 1_555
C47_4 C48_4 1_555 1_555
C51_4 C53_4 1_555 1_555
C54_4 C55_4 1_555 1_555
N14_4 N15_4 1_555 1_555
N17_4 N18_4 1_555 1_555
C58_4 C60_4 1_555 1_555
C59_4 C60_4 1_555 1_555
C62_4 C63_4 1_555 1_555
C65_4 C68_4 1_555 1_555
C67_4 C70_4 1_555 1_555
O24_4 Zn9_2 1_555 1_555
O25_4 Zn13_2 1_555 1_555
O5_2 H39_2 1_555 1_555
O6_2 H40_2 1_555 1_555
O21_4 H41_4 1_555 1_555
O22_4 H42_4 1_555 1_555
Zn19_3 O12_2 1_555 1_555
O7_7 Zn15_2 1_555 1_555
H3_6 O7_7 1_555 1_555
O8_7 Zn18_2 1_555 1_555
H4_6 O8_7 1_555 1_555
O31_6 Zn15_2 1_555 1_555
O32_6 Zn18_2 1_555 1_555
O40_6 Zn18_2 1_555 1_555
O7_8 Zn15_3 1_555 1_555
O8_8 Zn18_3 1_555 1_555
H20_6 O7_8 1_555 1_555
H21_6 O8_8 1_555 1_555
O17_5 Zn7_3 1_555 1_555
O18_5 Zn11_3 1_555 1_555
O19_5 C38_5 1_555 1_555
O20_5 C38_5 1_555 1_555
O21_5 Zn11_3 1_555 1_555
H22_5 O21_5 1_555 1_555
O22_5 Zn7_3 1_555 1_555
H23_5 O22_5 1_555 1_555
C37_5 C38_5 1_555 1_555
C39_5 C37_5 1_555 1_555
H24_5 C39_5 1_555 1_555
C40_5 C39_5 1_555 1_555
C41_5 O17_5 1_555 1_555
C42_5 C40_5 1_555 1_555
H25_5 C42_5 1_555 1_555
C43_5 C37_5 1_555 1_555
H26_5 C43_5 1_555 1_555
C44_5 C42_5 1_555 1_555
N10_5 C44_5 1_555 1_555
N11_5 N10_5 1_555 1_555
N12_5 N11_5 1_555 1_555
C45_5 N10_5 1_555 1_555
H27_5 C45_5 1_555 1_555
C46_5 N12_5 1_555 1_555
C47_5 H28_5 1_555 1_555
C48_5 C46_5 1_555 1_555
C49_5 C48_5 1_555 1_555
H29_5 C49_5 1_555 1_555
C50_5 C47_5 1_555 1_555
C51_5 C50_5 1_555 1_555
H30_5 C51_5 1_555 1_555
C52_5 C53_5 1_555 1_555
C53_5 C49_5 1_555 1_555
C54_5 H31_5 1_555 1_555
C55_5 C50_5 1_555 1_555
N13_5 C54_5 1_555 1_555
N14_5 C55_5 1_555 1_555
N15_5 N13_5 1_555 1_555
C56_5 C52_5 1_555 1_555
H32_5 C56_5 1_555 1_555
N16_5 C56_5 1_555 1_555
N17_5 N16_5 1_555 1_555
N18_5 C52_5 1_555 1_555
C57_5 C58_5 1_555 1_555
C58_5 H33_5 1_555 1_555
C59_5 H34_5 1_555 1_555
C60_5 N13_5 1_555 1_555
C61_5 C62_5 1_555 1_555
C62_5 H35_5 1_555 1_555
C63_5 N16_5 1_555 1_555
C64_5 C61_5 1_555 1_555
H36_5 C64_5 1_555 1_555
C65_5 C57_5 1_555 1_555
H37_5 C65_5 1_555 1_555
C66_5 C57_5 1_555 1_555
C67_5 C64_5 1_555 1_555
C68_5 C59_5 1_555 1_555
C69_5 C68_5 1_555 1_555
C70_5 C63_5 1_555 1_555
H38_5 C70_5 1_555 1_555
C71_5 C61_5 1_555 1_555
C72_5 C67_5 1_555 1_555
O23_5 C69_5 1_555 1_555
O24_5 C66_5 1_555 1_555
O25_5 C66_5 1_555 1_555
O27_5 C69_5 1_555 1_555
O43_3 C71_5 1_555 1_555
O29_4 C72_5 1_555 1_555
O30_4 C72_5 1_555 1_555
Zn7_4 O30_4 1_555 1_555
Zn10_4 O23_5 1_555 1_555
Zn11_4 O29_4 1_555 1_555
Zn14_4 O27_5 1_555 1_555
Zn16_3 O19_5 1_555 1_555
Zn19_3 O20_5 1_555 1_555
O33_5 Zn7_3 1_555 1_555
O36_5 Zn7_3 1_555 1_555
O38_5 Zn11_3 1_555 1_555
O39_4 Zn18_3 1_555 1_555
O41_5 Zn11_3 1_555 1_555
O18_5 C41_5 1_555 1_555
C40_5 C41_5 1_555 1_555
C43_5 C44_5 1_555 1_555
C45_5 C46_5 1_555 1_555
C47_5 C48_5 1_555 1_555
C51_5 C53_5 1_555 1_555
C54_5 C55_5 1_555 1_555
N14_5 N15_5 1_555 1_555
N17_5 N18_5 1_555 1_555
C58_5 C60_5 1_555 1_555
C59_5 C60_5 1_555 1_555
C62_5 C63_5 1_555 1_555
C65_5 C68_5 1_555 1_555
C67_5 C70_5 1_555 1_555
O24_5 Zn10_3 1_555 1_555
O25_5 Zn14_3 1_555 1_555
O21_5 H41_5 1_555 1_555
O22_5 H42_5 1_555 1_555
O7_9 Zn16_2 1_555 1_555
H3_7 O7_9 1_555 1_555
O8_9 Zn19_2 1_555 1_555
H4_7 O8_9 1_555 1_555
O31_7 Zn16_2 1_555 1_555
O32_7 Zn19_2 1_555 1_555
O40_7 Zn19_2 1_555 1_555
O7_10 Zn16_3 1_555 1_555
O8_10 Zn19_3 1_555 1_555
H20_7 O7_10 1_555 1_555
H21_7 O8_10 1_555 1_555
O17_6 Zn7_4 1_555 1_555
O18_6 Zn11_4 1_555 1_555
O19_6 C38_6 1_555 1_555
O20_6 C38_6 1_555 1_555
O21_6 Zn11_4 1_555 1_555
H22_6 O21_6 1_555 1_555
O22_6 Zn7_4 1_555 1_555
H23_6 O22_6 1_555 1_555
C37_6 C38_6 1_555 1_555
C39_6 C37_6 1_555 1_555
H24_6 C39_6 1_555 1_555
C40_6 C39_6 1_555 1_555
C41_6 O17_6 1_555 1_555
C42_6 C40_6 1_555 1_555
H25_6 C42_6 1_555 1_555
C43_6 C37_6 1_555 1_555
H26_6 C43_6 1_555 1_555
C44_6 C42_6 1_555 1_555
N10_6 C44_6 1_555 1_555
N11_6 N10_6 1_555 1_555
N12_6 N11_6 1_555 1_555
C45_6 N10_6 1_555 1_555
H27_6 C45_6 1_555 1_555
C46_6 N12_6 1_555 1_555
C47_6 H28_6 1_555 1_555
C48_6 C46_6 1_555 1_555
C49_6 C48_6 1_555 1_555
H29_6 C49_6 1_555 1_555
C50_6 C47_6 1_555 1_555
C51_6 C50_6 1_555 1_555
H30_6 C51_6 1_555 1_555
C52_6 C53_6 1_555 1_555
C53_6 C49_6 1_555 1_555
C54_6 H31_6 1_555 1_555
C55_6 C50_6 1_555 1_555
N13_6 C54_6 1_555 1_555
N14_6 C55_6 1_555 1_555
N15_6 N13_6 1_555 1_555
C56_6 C52_6 1_555 1_555
H32_6 C56_6 1_555 1_555
N16_6 C56_6 1_555 1_555
N17_6 N16_6 1_555 1_555
N18_6 C52_6 1_555 1_555
C57_6 C58_6 1_555 1_555
C58_6 H33_6 1_555 1_555
C59_6 H34_6 1_555 1_555
C60_6 N13_6 1_555 1_555
C61_6 C62_6 1_555 1_555
C62_6 H35_6 1_555 1_555
C63_6 N16_6 1_555 1_555
C64_6 C61_6 1_555 1_555
H36_6 C64_6 1_555 1_555
C65_6 C57_6 1_555 1_555
H37_6 C65_6 1_555 1_555
C66_6 C57_6 1_555 1_555
C67_6 C64_6 1_555 1_555
C68_6 C59_6 1_555 1_555
C69_6 C68_6 1_555 1_555
C70_6 C63_6 1_555 1_555
H38_6 C70_6 1_555 1_555
C71_6 C61_6 1_555 1_555
C72_6 C67_6 1_555 1_555
O23_6 C69_6 1_555 1_555
O24_6 C66_6 1_555 1_555
O25_6 C66_6 1_555 1_555
O27_6 C69_6 1_555 1_555
O43_4 C71_6 1_555 1_555
O45_2 C72_6 1_555 1_555
O46_2 C72_6 1_555 1_555
Zn8_2 O23_6 1_555 1_555
Zn12_2 O27_6 1_555 1_555
Zn17_3 O19_6 1_555 1_555
Zn20_3 O20_6 1_555 1_555
O33_6 Zn7_4 1_555 1_555
O36_6 Zn7_4 1_555 1_555
O38_6 Zn11_4 1_555 1_555
O41_6 Zn11_4 1_555 1_555
O18_6 C41_6 1_555 1_555
C40_6 C41_6 1_555 1_555
C43_6 C44_6 1_555 1_555
C45_6 C46_6 1_555 1_555
C47_6 C48_6 1_555 1_555
C51_6 C53_6 1_555 1_555
C54_6 C55_6 1_555 1_555
N14_6 N15_6 1_555 1_555
N17_6 N18_6 1_555 1_555
C58_6 C60_6 1_555 1_555
C59_6 C60_6 1_555 1_555
C62_6 C63_6 1_555 1_555
C65_6 C68_6 1_555 1_555
C67_6 C70_6 1_555 1_555
O24_6 Zn10_4 1_555 1_555
O25_6 Zn14_4 1_555 1_555
O21_6 H41_6 1_555 1_555
O22_6 H42_6 1_555 1_555
O7_11 Zn17_2 1_555 1_555
H3_8 O7_11 1_555 1_555
O8_11 Zn20_2 1_555 1_555
H4_8 O8_11 1_555 1_555
O31_8 Zn17_2 1_555 1_555
O32_8 Zn20_2 1_555 1_555
O40_8 Zn20_2 1_555 1_555
O7_12 Zn17_3 1_555 1_555
O8_12 Zn20_3 1_555 1_555
H20_8 O7_12 1_555 1_555
H21_8 O8_12 1_555 1_555
Zn8_2 O1_3 1_555 1_555
Zn12_2 O2_3 1_555 1_555
O1_3 C5_3 1_555 1_555
O2_3 C5_3 1_555 1_555
O31_3 C2_3 1_555 1_555
O32_3 C2_3 1_555 1_555
O5_3 Zn12_2 1_555 1_555
H1_3 O5_3 1_555 1_555
O6_3 Zn8_2 1_555 1_555
H2_3 O6_3 1_555 1_555
C1_3 C2_3 1_555 1_555
C3_3 C1_3 1_555 1_555
H5_3 C3_3 1_555 1_555
C4_3 C3_3 1_555 1_555
C5_3 C4_3 1_555 1_555
C6_3 C4_3 1_555 1_555
H6_3 C6_3 1_555 1_555
C7_3 C1_3 1_555 1_555
H7_3 C7_3 1_555 1_555
C8_3 C6_3 1_555 1_555
N1_3 C8_3 1_555 1_555
N2_3 N1_3 1_555 1_555
N3_3 N2_3 1_555 1_555
C9_3 N1_3 1_555 1_555
H8_3 C9_3 1_555 1_555
C10_3 N3_3 1_555 1_555
C11_3 H9_3 1_555 1_555
C12_3 C10_3 1_555 1_555
C13_3 C12_3 1_555 1_555
H10_3 C13_3 1_555 1_555
C21_3 C22_3 1_555 1_555
C22_3 H14_3 1_555 1_555
C30_3 C21_3 1_555 1_555
O35_2 C30_3 1_555 1_555
O37_2 C30_3 1_555 1_555
O45_3 Zn12_2 1_555 1_555
O46_3 Zn8_2 1_555 1_555
C7_3 C8_3 1_555 1_555
C9_3 C10_3 1_555 1_555
C11_3 C12_3 1_555 1_555
O5_3 H39_3 1_555 1_555
O6_3 H40_3 1_555 1_555
C15_3 C14_3 1_555 1_555
H11_3 C15_3 1_555 1_555
C16_3 C17_3 1_555 1_555
C19_3 C14_3 1_555 1_555
N4_3 C18_3 1_555 1_555
N5_3 C19_3 1_555 1_555
N6_3 N4_3 1_555 1_555
C20_3 C16_3 1_555 1_555
H13_3 C20_3 1_555 1_555
N7_3 C20_3 1_555 1_555
N8_3 N7_3 1_555 1_555
N9_3 C16_3 1_555 1_555
C23_3 H15_3 1_555 1_555
C24_3 N4_3 1_555 1_555
C25_3 C26_3 1_555 1_555
C26_3 H16_3 1_555 1_555
C27_3 N7_3 1_555 1_555
C28_3 C25_3 1_555 1_555
H17_3 C28_3 1_555 1_555
H18_3 C29_3 1_555 1_555
C31_3 C28_3 1_555 1_555
C32_3 C23_3 1_555 1_555
C33_3 C32_3 1_555 1_555
C34_3 C27_3 1_555 1_555
H19_3 C34_3 1_555 1_555
C35_3 C25_3 1_555 1_555
C36_3 C31_3 1_555 1_555
O33_4 C33_3 1_555 1_555
O40 C35_3 1_555 1_555
O41_4 C33_3 1_555 1_555
O44 C35_3 1_555 1_555
O15_3 C36_3 1_555 1_555
O16_3 C36_3 1_555 1_555
Zn9_2 O16_3 1_555 1_555
Zn13_2 O15_3 1_555 1_555
O17_7 Zn9_2 1_555 1_555
O18_7 Zn13_2 1_555 1_555
O31_4 C38_7 1_555 1_555
O32_4 C38_7 1_555 1_555
O21_7 Zn13_2 1_555 1_555
H22_7 O21_7 1_555 1_555
O22_7 Zn9_2 1_555 1_555
H23_7 O22_7 1_555 1_555
C37_7 C38_7 1_555 1_555
C39_7 C37_7 1_555 1_555
H24_7 C39_7 1_555 1_555
C40_7 C39_7 1_555 1_555
C41_7 O17_7 1_555 1_555
C42_7 C40_7 1_555 1_555
H25_7 C42_7 1_555 1_555
C43_7 C37_7 1_555 1_555
H26_7 C43_7 1_555 1_555
C44_7 C42_7 1_555 1_555
N10_7 C44_7 1_555 1_555
N11_7 N10_7 1_555 1_555
N12_7 N11_7 1_555 1_555
C45_7 N10_7 1_555 1_555
H27_7 C45_7 1_555 1_555
C46_7 N12_7 1_555 1_555
C47_7 H28_7 1_555 1_555
C48_7 C46_7 1_555 1_555
C49_7 C48_7 1_555 1_555
H29_7 C49_7 1_555 1_555
C57_7 C58_7 1_555 1_555
C58_7 H33_7 1_555 1_555
C66_7 C57_7 1_555 1_555
O36_4 C66_7 1_555 1_555
O38_4 C66_7 1_555 1_555
C15_3 C17_3 1_555 1_555
C18_3 C19_3 1_555 1_555
N5_3 N6_3 1_555 1_555
N8_3 N9_3 1_555 1_555
C23_3 C24_3 1_555 1_555
C26_3 C27_3 1_555 1_555
C29_3 C32_3 1_555 1_555
C31_3 C34_3 1_555 1_555
O18_7 C41_7 1_555 1_555
C40_7 C41_7 1_555 1_555
C43_7 C44_7 1_555 1_555
C45_7 C46_7 1_555 1_555
C47_7 C48_7 1_555 1_555
O21_7 H41_7 1_555 1_555
O22_7 H42_7 1_555 1_555
C51_7 C50_7 1_555 1_555
H30_7 C51_7 1_555 1_555
C52_7 C53_7 1_555 1_555
C55_7 C50_7 1_555 1_555
N13_7 C54_7 1_555 1_555
N14_7 C55_7 1_555 1_555
N15_7 N13_7 1_555 1_555
C56_7 C52_7 1_555 1_555
H32_7 C56_7 1_555 1_555
N16_7 C56_7 1_555 1_555
N17_7 N16_7 1_555 1_555
N18_7 C52_7 1_555 1_555
C59_7 H34_7 1_555 1_555
C60_7 N13_7 1_555 1_555
C61_7 C62_7 1_555 1_555
C62_7 H35_7 1_555 1_555
C63_7 N16_7 1_555 1_555
C64_7 C61_7 1_555 1_555
H36_7 C64_7 1_555 1_555
H37_7 C65_7 1_555 1_555
C67_7 C64_7 1_555 1_555
C68_7 C59_7 1_555 1_555
C69_7 C68_7 1_555 1_555
C70_7 C63_7 1_555 1_555
H38_7 C70_7 1_555 1_555
C71_7 C61_7 1_555 1_555
C72_7 C67_7 1_555 1_555
O33_5 C69_7 1_555 1_555
O40_2 C71_7 1_555 1_555
O41_5 C69_7 1_555 1_555
O44_2 C71_7 1_555 1_555
O29_5 C72_7 1_555 1_555
O30_5 C72_7 1_555 1_555
Zn10_3 O30_5 1_555 1_555
Zn14_3 O29_5 1_555 1_555
C51_7 C53_7 1_555 1_555
C54_7 C55_7 1_555 1_555
N14_7 N15_7 1_555 1_555
N17_7 N18_7 1_555 1_555
C59_7 C60_7 1_555 1_555
C62_7 C63_7 1_555 1_555
C65_7 C68_7 1_555 1_555
C67_7 C70_7 1_555 1_555
C51_8 C50_8 1_555 1_555
H30_8 C51_8 1_555 1_555
C52_8 C53_8 1_555 1_555
C55_8 C50_8 1_555 1_555
N13_8 C54_8 1_555 1_555
N14_8 C55_8 1_555 1_555
N15_8 N13_8 1_555 1_555
C56_8 C52_8 1_555 1_555
H32_8 C56_8 1_555 1_555
N16_8 C56_8 1_555 1_555
N17_8 N16_8 1_555 1_555
N18_8 C52_8 1_555 1_555
C59_8 H34_8 1_555 1_555
C60_8 N13_8 1_555 1_555
C61_8 C62_8 1_555 1_555
C62_8 H35_8 1_555 1_555
C63_8 N16_8 1_555 1_555
C64_8 C61_8 1_555 1_555
H36_8 C64_8 1_555 1_555
H37_8 C65_8 1_555 1_555
C67_8 C64_8 1_555 1_555
C68_8 C59_8 1_555 1_555
C69_8 C68_8 1_555 1_555
C70_8 C63_8 1_555 1_555
H38_8 C70_8 1_555 1_555
C71_8 C61_8 1_555 1_555
C72_8 C67_8 1_555 1_555
O33_6 C69_8 1_555 1_555
O40_3 C71_8 1_555 1_555
O41_6 C69_8 1_555 1_555
O44_3 C71_8 1_555 1_555
O29_6 C72_8 1_555 1_555
O30_6 C72_8 1_555 1_555
Zn10_4 O30_6 1_555 1_555
Zn14_4 O29_6 1_555 1_555
C51_8 C53_8 1_555 1_555
C54_8 C55_8 1_555 1_555
N14_8 N15_8 1_555 1_555
N17_8 N18_8 1_555 1_555
C59_8 C60_8 1_555 1_555
C62_8 C63_8 1_555 1_555
C65_8 C68_8 1_555 1_555
C67_8 C70_8 1_555 1_555
O17_8 Zn10_3 1_555 1_555
O18_8 Zn14_3 1_555 1_555
O31 C38_8 1_555 1_555
O32 C38_8 1_555 1_555
O21_8 Zn14_3 1_555 1_555
H22_8 O21_8 1_555 1_555
O22_8 Zn10_3 1_555 1_555
H23_8 O22_8 1_555 1_555
C37_8 C38_8 1_555 1_555
C39_8 C37_8 1_555 1_555
H24_8 C39_8 1_555 1_555
C40_8 C39_8 1_555 1_555
C41_8 O17_8 1_555 1_555
C42_8 C40_8 1_555 1_555
H25_8 C42_8 1_555 1_555
C43_8 C37_8 1_555 1_555
H26_8 C43_8 1_555 1_555
C44_8 C42_8 1_555 1_555
N10_8 C44_8 1_555 1_555
N11_8 N10_8 1_555 1_555
N12_8 N11_8 1_555 1_555
C45_8 N10_8 1_555 1_555
H27_8 C45_8 1_555 1_555
C46_8 N12_8 1_555 1_555
C47_8 H28_8 1_555 1_555
C48_8 C46_8 1_555 1_555
C49_8 C48_8 1_555 1_555
H29_8 C49_8 1_555 1_555
C57_8 C58_8 1_555 1_555
C58_8 H33_8 1_555 1_555
C66_8 C57_8 1_555 1_555
O36_5 C66_8 1_555 1_555
O38_5 C66_8 1_555 1_555
O18_8 C41_8 1_555 1_555
C40_8 C41_8 1_555 1_555
C43_8 C44_8 1_555 1_555
C45_8 C46_8 1_555 1_555
C47_8 C48_8 1_555 1_555
O21_8 H41_8 1_555 1_555
O22_8 H42_8 1_555 1_555
C51_9 C50_9 1_555 1_555
H30_9 C51_9 1_555 1_555
C52_9 C53_9 1_555 1_555
C55_9 C50_9 1_555 1_555
N13_9 C54_9 1_555 1_555
N14_9 C55_9 1_555 1_555
N15_9 N13_9 1_555 1_555
C56_9 C52_9 1_555 1_555
H32_9 C56_9 1_555 1_555
N16_9 C56_9 1_555 1_555
N17_9 N16_9 1_555 1_555
N18_9 C52_9 1_555 1_555
C59_9 H34_9 1_555 1_555
C60_9 N13_9 1_555 1_555
C61_9 C62_9 1_555 1_555
C62_9 H35_9 1_555 1_555
C63_9 N16_9 1_555 1_555
C64_9 C61_9 1_555 1_555
H36_9 C64_9 1_555 1_555
H37_9 C65_9 1_555 1_555
C67_9 C64_9 1_555 1_555
C68_9 C59_9 1_555 1_555
C69_9 C68_9 1_555 1_555
C70_9 C63_9 1_555 1_555
H38_9 C70_9 1_555 1_555
C71_9 C61_9 1_555 1_555
C72_9 C67_9 1_555 1_555
O34_2 C69_9 1_555 1_555
O40_4 C71_9 1_555 1_555
O42_2 C69_9 1_555 1_555
O44_4 C71_9 1_555 1_555
O45_3 C72_9 1_555 1_555
O46_3 C72_9 1_555 1_555
C51_9 C53_9 1_555 1_555
C54_9 C55_9 1_555 1_555
N14_9 N15_9 1_555 1_555
N17_9 N18_9 1_555 1_555
C59_9 C60_9 1_555 1_555
C62_9 C63_9 1_555 1_555
C65_9 C68_9 1_555 1_555
C67_9 C70_9 1_555 1_555
O17_9 Zn10_4 1_555 1_555
O18_9 Zn14_4 1_555 1_555
O31_2 C38_9 1_555 1_555
O32_2 C38_9 1_555 1_555
O21_9 Zn14_4 1_555 1_555
H22_9 O21_9 1_555 1_555
O22_9 Zn10_4 1_555 1_555
H23_9 O22_9 1_555 1_555
C37_9 C38_9 1_555 1_555
C39_9 C37_9 1_555 1_555
H24_9 C39_9 1_555 1_555
C40_9 C39_9 1_555 1_555
C41_9 O17_9 1_555 1_555
C42_9 C40_9 1_555 1_555
H25_9 C42_9 1_555 1_555
C43_9 C37_9 1_555 1_555
H26_9 C43_9 1_555 1_555
C44_9 C42_9 1_555 1_555
N10_9 C44_9 1_555 1_555
N11_9 N10_9 1_555 1_555
N12_9 N11_9 1_555 1_555
C45_9 N10_9 1_555 1_555
H27_9 C45_9 1_555 1_555
C46_9 N12_9 1_555 1_555
C47_9 H28_9 1_555 1_555
C48_9 C46_9 1_555 1_555
C49_9 C48_9 1_555 1_555
H29_9 C49_9 1_555 1_555
C57_9 C58_9 1_555 1_555
C58_9 H33_9 1_555 1_555
C66_9 C57_9 1_555 1_555
O36_6 C66_9 1_555 1_555
O38_6 C66_9 1_555 1_555
O18_9 C41_9 1_555 1_555
C40_9 C41_9 1_555 1_555
C43_9 C44_9 1_555 1_555
C45_9 C46_9 1_555 1_555
C47_9 C48_9 1_555 1_555
O21_9 H41_9 1_555 1_555
O22_9 H42_9 1_555 1_555
Zn8 O1_4 1_555 1_555
Zn12 O2_4 1_555 1_555
O1_4 C5_4 1_555 1_555
O2_4 C5_4 1_555 1_555
O31_7 C2_4 1_555 1_555
O32_7 C2_4 1_555 1_555
O5_4 Zn12 1_555 1_555
H1_4 O5_4 1_555 1_555
O6_4 Zn8 1_555 1_555
H2_4 O6_4 1_555 1_555
C1_4 C2_4 1_555 1_555
C3_4 C1_4 1_555 1_555
H5_4 C3_4 1_555 1_555
C4_4 C3_4 1_555 1_555
C5_4 C4_4 1_555 1_555
C6_4 C4_4 1_555 1_555
H6_4 C6_4 1_555 1_555
C7_4 C1_4 1_555 1_555
H7_4 C7_4 1_555 1_555
C8_4 C6_4 1_555 1_555
N1_4 C8_4 1_555 1_555
N2_4 N1_4 1_555 1_555
N3_4 N2_4 1_555 1_555
C9_4 N1_4 1_555 1_555
H8_4 C9_4 1_555 1_555
C10_4 N3_4 1_555 1_555
C11_4 H9_4 1_555 1_555
C12_4 C10_4 1_555 1_555
C13_4 C12_4 1_555 1_555
H10_4 C13_4 1_555 1_555
C14_4 C11_4 1_555 1_555
C15_4 C14_4 1_555 1_555
H11_4 C15_4 1_555 1_555
C16_4 C17_4 1_555 1_555
C17_4 C13_4 1_555 1_555
C18_4 H12_4 1_555 1_555
C19_4 C14_4 1_555 1_555
N4_4 C18_4 1_555 1_555
N5_4 C19_4 1_555 1_555
N6_4 N4_4 1_555 1_555
C20_4 C16_4 1_555 1_555
H13_4 C20_4 1_555 1_555
N7_4 C20_4 1_555 1_555
N8_4 N7_4 1_555 1_555
N9_4 C16_4 1_555 1_555
C21_4 C22_4 1_555 1_555
C22_4 H14_4 1_555 1_555
C23_4 H15_4 1_555 1_555
C24_4 N4_4 1_555 1_555
C25_4 C26_4 1_555 1_555
C26_4 H16_4 1_555 1_555
C27_4 N7_4 1_555 1_555
C28_4 C25_4 1_555 1_555
H17_4 C28_4 1_555 1_555
C29_4 C21_4 1_555 1_555
H18_4 C29_4 1_555 1_555
C30_4 C21_4 1_555 1_555
C31_4 C28_4 1_555 1_555
C32_4 C23_4 1_555 1_555
C33_4 C32_4 1_555 1_555
C34_4 C27_4 1_555 1_555
H19_4 C34_4 1_555 1_555
C35_4 C25_4 1_555 1_555
C36_4 C31_4 1_555 1_555
O33 C33_4 1_555 1_555
O35 C30_4 1_555 1_555
O37 C30_4 1_555 1_555
O41 C33_4 1_555 1_555
O44_5 C35_4 1_555 1_555
O15_4 C36_4 1_555 1_555
O16_4 C36_4 1_555 1_555
Zn9 O16_4 1_555 1_555
Zn13 O15_4 1_555 1_555
O17_10 Zn9 1_555 1_555
O18_10 Zn13 1_555 1_555
O31_8 C38_10 1_555 1_555
O32_8 C38_10 1_555 1_555
O21_10 Zn13 1_555 1_555
H22_10 O21_10 1_555 1_555
O22_10 Zn9 1_555 1_555
H23_10 O22_10 1_555 1_555
C37_10 C38_10 1_555 1_555
C39_10 C37_10 1_555 1_555
H24_10 C39_10 1_555 1_555
C40_10 C39_10 1_555 1_555
C41_10 O17_10 1_555 1_555
C42_10 C40_10 1_555 1_555
H25_10 C42_10 1_555 1_555
C43_10 C37_10 1_555 1_555
H26_10 C43_10 1_555 1_555
C44_10 C42_10 1_555 1_555
N10_10 C44_10 1_555 1_555
N11_10 N10_10 1_555 1_555
N12_10 N11_10 1_555 1_555
C45_10 N10_10 1_555 1_555
H27_10 C45_10 1_555 1_555
C46_10 N12_10 1_555 1_555
C47_10 H28_10 1_555 1_555
C48_10 C46_10 1_555 1_555
C49_10 C48_10 1_555 1_555
H29_10 C49_10 1_555 1_555
C50_10 C47_10 1_555 1_555
C51_10 C50_10 1_555 1_555
H30_10 C51_10 1_555 1_555
C52_10 C53_10 1_555 1_555
C53_10 C49_10 1_555 1_555
C54_10 H31_10 1_555 1_555
C55_10 C50_10 1_555 1_555
N13_10 C54_10 1_555 1_555
N14_10 C55_10 1_555 1_555
N15_10 N13_10 1_555 1_555
C56_10 C52_10 1_555 1_555
H32_10 C56_10 1_555 1_555
N16_10 C56_10 1_555 1_555
N17_10 N16_10 1_555 1_555
N18_10 C52_10 1_555 1_555
C57_10 C58_10 1_555 1_555
C58_10 H33_10 1_555 1_555
C59_10 H34_10 1_555 1_555
C60_10 N13_10 1_555 1_555
C61_10 C62_10 1_555 1_555
C62_10 H35_10 1_555 1_555
C63_10 N16_10 1_555 1_555
C64_10 C61_10 1_555 1_555
H36_10 C64_10 1_555 1_555
C65_10 C57_10 1_555 1_555
H37_10 C65_10 1_555 1_555
C66_10 C57_10 1_555 1_555
C67_10 C64_10 1_555 1_555
C68_10 C59_10 1_555 1_555
C69_10 C68_10 1_555 1_555
C70_10 C63_10 1_555 1_555
H38_10 C70_10 1_555 1_555
C71_10 C61_10 1_555 1_555
C72_10 C67_10 1_555 1_555
O33_2 C69_10 1_555 1_555
O36 C66_10 1_555 1_555
O38 C66_10 1_555 1_555
O41_2 C69_10 1_555 1_555
O44_6 C71_10 1_555 1_555
O29_7 C72_10 1_555 1_555
O30_7 C72_10 1_555 1_555
Zn10 O30_7 1_555 1_555
Zn14 O29_7 1_555 1_555
O45_4 Zn12 1_555 1_555
O46_4 Zn8 1_555 1_555
C7_4 C8_4 1_555 1_555
C9_4 C10_4 1_555 1_555
C11_4 C12_4 1_555 1_555
C15_4 C17_4 1_555 1_555
C18_4 C19_4 1_555 1_555
N5_4 N6_4 1_555 1_555
N8_4 N9_4 1_555 1_555
C22_4 C24_4 1_555 1_555
C23_4 C24_4 1_555 1_555
C26_4 C27_4 1_555 1_555
C29_4 C32_4 1_555 1_555
C31_4 C34_4 1_555 1_555
O18_10 C41_10 1_555 1_555
C40_10 C41_10 1_555 1_555
C43_10 C44_10 1_555 1_555
C45_10 C46_10 1_555 1_555
C47_10 C48_10 1_555 1_555
C51_10 C53_10 1_555 1_555
C54_10 C55_10 1_555 1_555
N14_10 N15_10 1_555 1_555
N17_10 N18_10 1_555 1_555
C58_10 C60_10 1_555 1_555
C59_10 C60_10 1_555 1_555
C62_10 C63_10 1_555 1_555
C65_10 C68_10 1_555 1_555
C67_10 C70_10 1_555 1_555
O5_4 H39_4 1_555 1_555
O6_4 H40_4 1_555 1_555
O21_10 H41_10 1_555 1_555
O22_10 H42_10 1_555 1_555
O17_11 Zn10 1_555 1_555
O18_11 Zn14 1_555 1_555
O31_5 C38_11 1_555 1_555
O32_5 C38_11 1_555 1_555
O21_11 Zn14 1_555 1_555
H22_11 O21_11 1_555 1_555
O22_11 Zn10 1_555 1_555
H23_11 O22_11 1_555 1_555
C37_11 C38_11 1_555 1_555
C39_11 C37_11 1_555 1_555
H24_11 C39_11 1_555 1_555
C40_11 C39_11 1_555 1_555
C41_11 O17_11 1_555 1_555
C42_11 C40_11 1_555 1_555
H25_11 C42_11 1_555 1_555
C43_11 C37_11 1_555 1_555
H26_11 C43_11 1_555 1_555
C44_11 C42_11 1_555 1_555
N10_11 C44_11 1_555 1_555
N11_11 N10_11 1_555 1_555
N12_11 N11_11 1_555 1_555
C45_11 N10_11 1_555 1_555
H27_11 C45_11 1_555 1_555
C46_11 N12_11 1_555 1_555
C47_11 H28_11 1_555 1_555
C48_11 C46_11 1_555 1_555
C49_11 C48_11 1_555 1_555
H29_11 C49_11 1_555 1_555
C50_11 C47_11 1_555 1_555
C51_11 C50_11 1_555 1_555
H30_11 C51_11 1_555 1_555
C52_11 C53_11 1_555 1_555
C53_11 C49_11 1_555 1_555
C54_11 H31_11 1_555 1_555
C55_11 C50_11 1_555 1_555
N13_11 C54_11 1_555 1_555
N14_11 C55_11 1_555 1_555
N15_11 N13_11 1_555 1_555
C56_11 C52_11 1_555 1_555
H32_11 C56_11 1_555 1_555
N16_11 C56_11 1_555 1_555
N17_11 N16_11 1_555 1_555
N18_11 C52_11 1_555 1_555
C57_11 C58_11 1_555 1_555
C58_11 H33_11 1_555 1_555
C59_11 H34_11 1_555 1_555
C60_11 N13_11 1_555 1_555
C61_11 C62_11 1_555 1_555
C62_11 H35_11 1_555 1_555
C63_11 N16_11 1_555 1_555
C64_11 C61_11 1_555 1_555
H36_11 C64_11 1_555 1_555
C65_11 C57_11 1_555 1_555
H37_11 C65_11 1_555 1_555
C66_11 C57_11 1_555 1_555
C67_11 C64_11 1_555 1_555
C68_11 C59_11 1_555 1_555
C69_11 C68_11 1_555 1_555
C70_11 C63_11 1_555 1_555
H38_11 C70_11 1_555 1_555
C71_11 C61_11 1_555 1_555
C72_11 C67_11 1_555 1_555
O33_3 C69_11 1_555 1_555
O36_2 C66_11 1_555 1_555
O38_2 C66_11 1_555 1_555
O41_3 C69_11 1_555 1_555
O44_7 C71_11 1_555 1_555
O29_8 C72_11 1_555 1_555
O30_8 C72_11 1_555 1_555
Zn10_2 O30_8 1_555 1_555
Zn14_2 O29_8 1_555 1_555
O18_11 C41_11 1_555 1_555
C40_11 C41_11 1_555 1_555
C43_11 C44_11 1_555 1_555
C45_11 C46_11 1_555 1_555
C47_11 C48_11 1_555 1_555
C51_11 C53_11 1_555 1_555
C54_11 C55_11 1_555 1_555
N14_11 N15_11 1_555 1_555
N17_11 N18_11 1_555 1_555
C58_11 C60_11 1_555 1_555
C59_11 C60_11 1_555 1_555
C62_11 C63_11 1_555 1_555
C65_11 C68_11 1_555 1_555
C67_11 C70_11 1_555 1_555
O21_11 H41_11 1_555 1_555
O22_11 H42_11 1_555 1_555
O17_12 Zn10_2 1_555 1_555
O18_12 Zn14_2 1_555 1_555
O31_6 C38_12 1_555 1_555
O32_6 C38_12 1_555 1_555
O21_12 Zn14_2 1_555 1_555
H22_12 O21_12 1_555 1_555
O22_12 Zn10_2 1_555 1_555
H23_12 O22_12 1_555 1_555
C37_12 C38_12 1_555 1_555
C39_12 C37_12 1_555 1_555
H24_12 C39_12 1_555 1_555
C40_12 C39_12 1_555 1_555
C41_12 O17_12 1_555 1_555
C42_12 C40_12 1_555 1_555
H25_12 C42_12 1_555 1_555
C43_12 C37_12 1_555 1_555
H26_12 C43_12 1_555 1_555
C44_12 C42_12 1_555 1_555
N10_12 C44_12 1_555 1_555
N11_12 N10_12 1_555 1_555
N12_12 N11_12 1_555 1_555
C45_12 N10_12 1_555 1_555
H27_12 C45_12 1_555 1_555
C46_12 N12_12 1_555 1_555
C47_12 H28_12 1_555 1_555
C48_12 C46_12 1_555 1_555
C49_12 C48_12 1_555 1_555
H29_12 C49_12 1_555 1_555
C50_12 C47_12 1_555 1_555
C51_12 C50_12 1_555 1_555
H30_12 C51_12 1_555 1_555
C52_12 C53_12 1_555 1_555
C53_12 C49_12 1_555 1_555
C54_12 H31_12 1_555 1_555
C55_12 C50_12 1_555 1_555
N13_12 C54_12 1_555 1_555
N14_12 C55_12 1_555 1_555
N15_12 N13_12 1_555 1_555
C56_12 C52_12 1_555 1_555
H32_12 C56_12 1_555 1_555
N16_12 C56_12 1_555 1_555
N17_12 N16_12 1_555 1_555
N18_12 C52_12 1_555 1_555
C57_12 C58_12 1_555 1_555
C58_12 H33_12 1_555 1_555
C59_12 H34_12 1_555 1_555
C60_12 N13_12 1_555 1_555
C61_12 C62_12 1_555 1_555
C62_12 H35_12 1_555 1_555
C63_12 N16_12 1_555 1_555
C64_12 C61_12 1_555 1_555
H36_12 C64_12 1_555 1_555
C65_12 C57_12 1_555 1_555
H37_12 C65_12 1_555 1_555
C66_12 C57_12 1_555 1_555
C67_12 C64_12 1_555 1_555
C68_12 C59_12 1_555 1_555
C69_12 C68_12 1_555 1_555
C70_12 C63_12 1_555 1_555
H38_12 C70_12 1_555 1_555
C71_12 C61_12 1_555 1_555
C72_12 C67_12 1_555 1_555
O34 C69_12 1_555 1_555
O36_3 C66_12 1_555 1_555
O38_3 C66_12 1_555 1_555
O42 C69_12 1_555 1_555
O44_8 C71_12 1_555 1_555
O45_4 C72_12 1_555 1_555
O46_4 C72_12 1_555 1_555
O18_12 C41_12 1_555 1_555
C40_12 C41_12 1_555 1_555
C43_12 C44_12 1_555 1_555
C45_12 C46_12 1_555 1_555
C47_12 C48_12 1_555 1_555
C51_12 C53_12 1_555 1_555
C54_12 C55_12 1_555 1_555
N14_12 N15_12 1_555 1_555
N17_12 N18_12 1_555 1_555
C58_12 C60_12 1_555 1_555
C59_12 C60_12 1_555 1_555
C62_12 C63_12 1_555 1_555
C65_12 C68_12 1_555 1_555
C67_12 C70_12 1_555 1_555
O21_12 H41_12 1_555 1_555
O22_12 H42_12 1_555 1_555

#END
