
###############################################################################
#
# This file contains modified crystal structure data generated from the
# MOF subset of the Cambridge Structural Database (CSD) v543 
# hosted by the Cambridge Crystallographic Data Centre (CCDC).
#
# This work is licensed under the Creative Commons
# Attribution-NonCommercial-ShareAlike 4.0 International License.
# To view a copy of this license, visit
# http://creativecommons.org/licenses/by-nc-sa/4.0/
# or send a letter to
# Creative Commons, PO Box 1866, Mountain View, CA 94042, USA.
#
# CIF created using the CSD Python API on 29 September 2022
# The structure has been converted into the P1 space group
# The structure has a 3D framework
# The original CSD entry YUZXOJ is in the orthorhombic crystal system
# The framework has been calculated to contain at least 10.0% void space
# The void calculation uses a probe of radius 1.32A, grid spacing 0.4
#
###############################################################################

data_YUZXOJ
_chemical_formula_moiety         '(C232 H128 Ca16 O64)n'
_symmetry_cell_setting           triclinic
_symmetry_space_group_name_H-M   'P 1'
_symmetry_Int_Tables_number      1
_space_group_name_Hall           'P 1'
loop_
_symmetry_equiv_pos_site_id
_symmetry_equiv_pos_as_xyz
1 x,y,z
_cell_length_a                   12.4203(6)
_cell_length_b                   22.3330(8)
_cell_length_c                   28.0820(12)
_cell_angle_alpha                90
_cell_angle_beta                 90
_cell_angle_gamma                90
_cell_volume                     7789.46
loop_
_atom_site_label
_atom_site_type_symbol
_atom_site_fract_x
_atom_site_fract_y
_atom_site_fract_z
O15 O 0.0690(4) 0.26816(19) 0.17015(15)
O16 O 0.0461(4) 0.22950(18) 0.2440(2)
C56 C 0.0246(6) 0.2684(3) 0.2132(3)
Ca5 Ca 0.22961(14) 0.25213(6) 0.13303(5)
Ca15 Ca 0.20191(11) 0.17097(5) 0.24924(6)
O5 O 0.2347(6) 0.1560(2) 0.16222(18)
O6 O 0.1467(7) 0.0855(2) 0.2008(2)
O9 O 0.2690(4) 0.2734(2) 0.29099(17)
O10 O 0.2910(4) 0.2600(2) 0.21313(17)
O11 O 0.7120(5) 0.6551(2) 0.41121(18)
O12 O 0.8090(6) 0.5852(2) 0.44729(18)
O13 O 0.7489(5) 0.6590(2) 0.09100(19)
O14 O 0.6459(5) 0.5973(2) 0.05007(17)
C18 C 0.1452(7) 0.0141(3) 0.1174(3)
H10 H 0.094366 0.004835 0.141608
C19 C 0.2125(7) 0.0651(3) 0.1215(2)
C20 C 0.1951(8) 0.1057(3) 0.1616(3)
C21 C 0.2913(8) 0.0747(3) 0.0879(3)
H11 H 0.337581 0.108332 0.091377
C22 C 0.3046(7) 0.0390(3) 0.0512(3)
H12 H 0.360379 0.047080 0.028955
C30 C 0.3160(5) 0.2862(2) 0.2521(3)
C31 C 0.4079(4) 0.3285(2) 0.2528(3)
C32 C 0.4238(6) 0.3692(3) 0.2877(2)
H17 H 0.372816 0.371702 0.312875
C33 C 0.5128(6) 0.4080(3) 0.2883(2)
H18 H 0.523164 0.435342 0.313748
C34 C 0.5862(4) 0.4054(2) 0.2503(3)
C35 C 0.5689(6) 0.3631(3) 0.2150(2)
H19 H 0.619750 0.359844 0.189890
C36 C 0.4824(6) 0.3261(3) 0.2150(2)
H20 H 0.472100 0.298624 0.189560
C37 C 0.6875(5) 0.4455(2) 0.2485(3)
C38 C 0.7025(6) 0.4828(3) 0.2934(2)
C39 C 0.6346(6) 0.5316(3) 0.3018(2)
H21 H 0.575691 0.538080 0.280845
C40 C 0.6494(6) 0.5704(3) 0.3390(2)
H22 H 0.603870 0.604210 0.342717
C41 C 0.7326(7) 0.5595(3) 0.3714(2)
C42 C 0.7530(7) 0.6026(3) 0.4119(3)
C43 C 0.7955(6) 0.5117(3) 0.3661(2)
H23 H 0.849210 0.503669 0.389387
C44 C 0.7845(7) 0.4723(3) 0.3266(2)
H24 H 0.832089 0.439402 0.322739
C45 C 0.6819(7) 0.4910(3) 0.2061(2)
C46 C 0.7559(6) 0.5358(3) 0.2044(2)
H25 H 0.806505 0.539826 0.229531
C47 C 0.7587(6) 0.5762(3) 0.1660(2)
H26 H 0.811388 0.606979 0.164855
C48 C 0.6860(7) 0.5705(3) 0.1309(2)
C49 C 0.6903(7) 0.6123(4) 0.0868(3)
C50 C 0.6085(6) 0.5264(3) 0.1327(2)
H27 H 0.557139 0.523027 0.107815
C51 C 0.6052(6) 0.4873(3) 0.1706(2)
H28 H 0.550273 0.457844 0.172315
C52 C 0.7828(5) 0.4017(3) 0.2402(2)
C53 C 0.8617(6) 0.4104(3) 0.2061(2)
H29 H 0.861678 0.446121 0.187706
C54 C 0.9401(7) 0.3680(3) 0.1985(3)
H30 H 0.993488 0.375183 0.174952
C55 C 0.9434(6) 0.3160(3) 0.2237(2)
C57 C 0.8688(6) 0.3080(3) 0.2600(2)
H31 H 0.872736 0.273403 0.279591
C58 C 0.7894(6) 0.3496(3) 0.2678(2)
H32 H 0.738039 0.342986 0.292354
Ca7 Ca 0.72961(14) 0.74787(6) 0.13303(5)
Ca9 Ca 0.75165(19) 0.66431(5) 0.00097(6)
Ca10 Ca 0.74835(19) 0.66431(5) 0.50097(6)
Ca11 Ca 0.72221(15) 0.74591(6) 0.37009(5)
Ca12 Ca 0.22221(15) 0.25409(6) 0.37009(5)
O21 O 0.1561(5) 0.2233(2) 0.06340(18)
O28 O 0.2489(5) 0.3410(2) 0.09100(19)
Ca3 Ca 0.27779(15) 0.25409(6) 0.87009(5)
Ca4 Ca 0.29809(11) 0.17097(5) 0.74924(6)
O1 O 0.2625(6) 0.1605(2) 0.8377(2)
O2 O 0.3631(7) 0.0934(3) 0.8047(2)
C1 C 0.3034(8) 0.1066(4) 0.8356(3)
C2 C 0.2879(8) 0.0658(3) 0.8761(3)
C3 C 0.3534(8) 0.0172(3) 0.8829(3)
H1 H 0.411311 0.010382 0.861477
C6 C 0.1998(7) 0.0376(3) 0.9509(3)
H3 H 0.146837 0.045373 0.974488
C7 C 0.2104(7) 0.0775(3) 0.9121(3)
H4 H 0.165788 0.111936 0.910131
O17 O 0.3420(5) 0.2212(2) 0.94249(19)
O18 O 0.2653(6) 0.1560(2) 0.66222(18)
O19 O 0.3533(7) 0.0855(2) 0.7008(2)
O22 O 0.2310(4) 0.2734(2) 0.79099(17)
O23 O 0.2090(4) 0.2600(2) 0.71313(17)
O24 O 0.2880(5) 0.3449(2) 0.91121(18)
O31 O 0.4539(4) 0.22950(18) 0.7440(2)
O8 O 0.6561(5) 0.7767(2) 0.06340(18)
C14 C 0.0653(6) 0.8151(3) 0.0177(2)
H7 H 0.063195 0.781080 0.037991
C15 C 0.1427(6) 0.8543(3) 0.0228(2)
H8 H 0.193140 0.848376 0.047820
C16 C 0.2338(6) 0.9865(3) 0.0440(2)
C17 C 0.1548(6) 0.9773(3) 0.0769(2)
H9 H 0.105234 0.945366 0.072437
C23 C 0.3525(7) 0.9064(3) 0.0049(2)
C26 C 0.5193(7) 0.8207(3) 0.0145(3)
C27 C 0.6037(7) 0.7732(4) 0.0225(4)
C28 C 0.5097(7) 0.8713(3) 0.0469(3)
H15 H 0.558688 0.875744 0.072638
C29 C 0.4287(7) 0.9127(3) 0.0398(3)
H16 H 0.425736 0.946879 0.059924
O7 O 0.6136(5) 0.7350(2) 0.99299(19)
C4 C 0.3375(8) 0.9779(3) 0.9201(3)
H2 H 0.379288 0.942348 0.921458
C5 C 0.2629(7) 0.9888(3) 0.9553(2)
C8 C 0.2544(8) 0.9468(2) 0.9986(3)
C9 C 0.1555(6) 0.9053(3) 0.9930(2)
C10 C 0.0752(7) 0.9129(3) 0.9597(3)
H5 H 0.076611 0.946689 0.939102
C24 C 0.3607(7) 0.8581(3) 0.9738(3)
H13 H 0.309343 0.853316 0.949055
C25 C 0.4463(7) 0.8156(3) 0.9790(2)
H14 H 0.451841 0.783318 0.957141
O3 O 0.8833(5) 0.7396(2) 0.01143(17)
O4 O 0.8420(5) 0.7788(2) 0.94249(19)
C11 C 0.9922(7) 0.8715(3) 0.9560(3)
H6 H 0.937070 0.878129 0.933135
C12 C 0.9868(6) 0.8223(3) 0.9836(2)
C13 C 0.8965(6) 0.7764(3) 0.9775(2)
Ca13 Ca 0.77779(15) 0.74591(6) 0.87009(5)
O25 O 0.7880(5) 0.6551(2) 0.91121(18)
O26 O 0.6910(6) 0.5852(2) 0.94729(18)
Ca2 Ca 0.24835(19) 0.33569(5) 0.50097(6)
O3_2 O 0.1167(5) 0.2604(2) 0.51143(17)
O4_2 O 0.1580(5) 0.2212(2) 0.44249(19)
C11_2 C 0.0078(7) 0.1285(3) 0.4560(3)
H6_2 H 0.062930 0.121871 0.433135
C12_2 C 0.0132(6) 0.1777(3) 0.4836(2)
C13_2 C 0.1035(6) 0.2236(3) 0.4775(2)
O20 O 0.3864(5) 0.2650(2) 0.49299(19)
O25_2 O 0.2120(5) 0.3449(2) 0.41121(18)
O26_2 O 0.3090(6) 0.4148(2) 0.44729(18)
O27 O 0.2511(5) 0.3410(2) 0.59100(19)
O29 O 0.3541(5) 0.4027(2) 0.55007(17)
O8_2 O 0.3439(5) 0.2233(2) 0.56340(18)
C4_2 C 0.6625(8) 0.0221(3) 0.4201(3)
H2_2 H 0.620712 0.057652 0.421458
C5_2 C 0.7371(7) 0.0112(3) 0.4553(2)
C8_2 C 0.7456(8) 0.0532(2) 0.4986(3)
C9_2 C 0.8445(6) 0.0947(3) 0.4930(2)
C10_2 C 0.9248(7) 0.0871(3) 0.4597(3)
H5_2 H 0.923389 0.053311 0.439102
C14_2 C 0.9347(6) 0.1849(3) 0.5177(2)
H7_2 H 0.936805 0.218920 0.537991
C15_2 C 0.8573(6) 0.1457(3) 0.5228(2)
H8_2 H 0.806860 0.151624 0.547820
C16_2 C 0.7662(6) 0.0135(3) 0.5440(2)
C17_2 C 0.8452(6) 0.0227(3) 0.5769(2)
H9_2 H 0.894766 0.054634 0.572437
C23_2 C 0.6475(7) 0.0936(3) 0.5049(2)
C24_2 C 0.6393(7) 0.1419(3) 0.4738(3)
H13_2 H 0.690657 0.146684 0.449055
C25_2 C 0.5537(7) 0.1844(3) 0.4790(2)
H14_2 H 0.548159 0.216682 0.457141
C26_2 C 0.4807(7) 0.1793(3) 0.5145(3)
C27_2 C 0.3963(7) 0.2268(4) 0.5225(4)
C28_2 C 0.4903(7) 0.1287(3) 0.5469(3)
H15_2 H 0.441312 0.124256 0.572638
C29_2 C 0.5713(7) 0.0873(3) 0.5398(3)
H16_2 H 0.574264 0.053121 0.559924
Ca6 Ca 0.27039(14) 0.25213(6) 0.63303(5)
Ca10_2 Ca 0.25165(19) 0.33569(5) 0.00097(6)
Ca1 Ca 0.77039(14) 0.74787(6) 0.63303(5)
Ca4_2 Ca 0.70191(11) 0.82903(5) 0.24924(6)
O1_2 O 0.7375(6) 0.8395(2) 0.3377(2)
O2_2 O 0.6369(7) 0.9066(3) 0.3047(2)
O5_2 O 0.7653(6) 0.8440(2) 0.66222(18)
O6_2 O 0.8533(7) 0.9145(2) 0.7008(2)
O9_2 O 0.7310(4) 0.7266(2) 0.79099(17)
O10_2 O 0.7090(4) 0.7400(2) 0.71313(17)
O12_2 O 0.1910(6) 0.4148(2) 0.94729(18)
C1_2 C 0.6966(8) 0.8934(4) 0.3356(3)
C2_2 C 0.7121(8) 0.9342(3) 0.3761(3)
C3_2 C 0.6466(8) 0.9828(3) 0.3829(3)
H1_2 H 0.588689 0.989618 0.361477
C6_2 C 0.8002(7) 0.9624(3) 0.4509(3)
H3_2 H 0.853163 0.954627 0.474488
C7_2 C 0.7896(7) 0.9225(3) 0.4121(3)
H4_2 H 0.834212 0.888064 0.410131
C18_2 C 0.8548(7) 0.9859(3) 0.6174(3)
H10_2 H 0.905634 0.995165 0.641608
C19_2 C 0.7875(7) 0.9349(3) 0.6215(2)
C20_2 C 0.8049(8) 0.8943(3) 0.6616(3)
C21_2 C 0.7087(8) 0.9253(3) 0.5879(3)
H11_2 H 0.662419 0.891668 0.591377
C22_2 C 0.6954(7) 0.9610(3) 0.5512(3)
H12_2 H 0.639621 0.952920 0.528955
C30_2 C 0.6840(5) 0.7138(2) 0.7521(3)
C31_2 C 0.5921(4) 0.6715(2) 0.7528(3)
C32_2 C 0.5762(6) 0.6308(3) 0.7877(2)
H17_2 H 0.627184 0.628298 0.812875
C33_2 C 0.4872(6) 0.5920(3) 0.7883(2)
H18_2 H 0.476836 0.564658 0.813748
C34_2 C 0.4138(4) 0.5946(2) 0.7503(3)
C35_2 C 0.4311(6) 0.6369(3) 0.7150(2)
H19_2 H 0.380250 0.640156 0.689890
C36_2 C 0.5176(6) 0.6739(3) 0.7150(2)
H20_2 H 0.527900 0.701376 0.689560
C37_2 C 0.3125(5) 0.5545(2) 0.7485(3)
C38_2 C 0.2975(6) 0.5172(3) 0.7934(2)
C39_2 C 0.3654(6) 0.4684(3) 0.8018(2)
H21_2 H 0.424309 0.461920 0.780845
C40_2 C 0.3506(6) 0.4296(3) 0.8390(2)
H22_2 H 0.396130 0.395790 0.842717
C41_2 C 0.2674(7) 0.4405(3) 0.8714(2)
C42_2 C 0.2470(7) 0.3974(3) 0.9119(3)
C43_2 C 0.2045(6) 0.4883(3) 0.8661(2)
H23_2 H 0.150790 0.496331 0.889387
C44_2 C 0.2155(7) 0.5277(3) 0.8266(2)
H24_2 H 0.167911 0.560598 0.822739
C45_2 C 0.3181(7) 0.5090(3) 0.7061(2)
C46_2 C 0.2441(6) 0.4642(3) 0.7044(2)
H25_2 H 0.193495 0.460174 0.729531
C47_2 C 0.2413(6) 0.4238(3) 0.6660(2)
H26_2 H 0.188612 0.393021 0.664855
C48_2 C 0.3140(7) 0.4295(3) 0.6309(2)
C49_2 C 0.3097(7) 0.3877(4) 0.5868(3)
C50_2 C 0.3915(6) 0.4736(3) 0.6327(2)
H27_2 H 0.442861 0.476973 0.607815
C51_2 C 0.3948(6) 0.5127(3) 0.6706(2)
H28_2 H 0.449727 0.542156 0.672315
C52_2 C 0.2172(5) 0.5983(3) 0.7402(2)
C53_2 C 0.1383(6) 0.5896(3) 0.7061(2)
H29_2 H 0.138322 0.553879 0.687706
C54_2 C 0.0599(7) 0.6320(3) 0.6985(3)
H30_2 H 0.006512 0.624817 0.674952
C55_2 C 0.0566(6) 0.6840(3) 0.7237(2)
C57_2 C 0.1312(6) 0.6920(3) 0.7600(2)
H31_2 H 0.127264 0.726597 0.779591
C58_2 C 0.2106(6) 0.6504(3) 0.7678(2)
H32_2 H 0.261961 0.657014 0.792354
Ca14 Ca 0.79809(11) 0.82903(5) 0.74924(6)
O17_2 O 0.6580(5) 0.7788(2) 0.44249(19)
O18_2 O 0.7347(6) 0.8440(2) 0.16222(18)
O19_2 O 0.6467(7) 0.9145(2) 0.2008(2)
O21_2 O 0.8439(5) 0.7767(2) 0.56340(18)
O22_2 O 0.7690(4) 0.7266(2) 0.29099(17)
O23_2 O 0.7910(4) 0.7400(2) 0.21313(17)
O28_2 O 0.7511(5) 0.6590(2) 0.59100(19)
O30 O 0.9310(4) 0.73184(19) 0.67015(15)
O31_2 O 0.5461(4) 0.77050(18) 0.2440(2)
O16_2 O 0.9539(4) 0.77050(18) 0.7440(2)
C56_2 C 0.9754(6) 0.7316(3) 0.7132(3)
O1_3 O 0.2375(6) 0.1605(2) 0.3377(2)
O2_3 O 0.1369(7) 0.0934(3) 0.3047(2)
C1_3 C 0.1966(8) 0.1066(4) 0.3356(3)
C2_3 C 0.2121(8) 0.0658(3) 0.3761(3)
C3_3 C 0.1466(8) 0.0172(3) 0.3829(3)
H1_3 H 0.088689 0.010382 0.361477
C6_3 C 0.3002(7) 0.0376(3) 0.4509(3)
H3_3 H 0.353163 0.045373 0.474488
C7_3 C 0.2896(7) 0.0775(3) 0.4121(3)
H4_3 H 0.334212 0.111936 0.410131
C18_3 C 0.3548(7) 0.0141(3) 0.6174(3)
H10_3 H 0.405634 0.004835 0.641608
C19_3 C 0.2875(7) 0.0651(3) 0.6215(2)
C20_3 C 0.3049(8) 0.1057(3) 0.6616(3)
C21_3 C 0.2087(8) 0.0747(3) 0.5879(3)
H11_3 H 0.162419 0.108332 0.591377
C22_3 C 0.1954(7) 0.0390(3) 0.5512(3)
H12_3 H 0.139621 0.047080 0.528955
C30_3 C 0.1840(5) 0.2862(2) 0.7521(3)
C31_3 C 0.0921(4) 0.3285(2) 0.7528(3)
C32_3 C 0.0762(6) 0.3692(3) 0.7877(2)
H17_3 H 0.127184 0.371702 0.812875
C36_3 C 0.0176(6) 0.3261(3) 0.7150(2)
H20_3 H 0.027900 0.298624 0.689560
O30_2 O 0.4310(4) 0.26816(19) 0.67015(15)
O3_3 O 0.6167(5) 0.7396(2) 0.51143(17)
C4_3 C 0.1625(8) 0.9779(3) 0.4201(3)
H2_3 H 0.120712 0.942348 0.421458
C5_3 C 0.2371(7) 0.9888(3) 0.4553(2)
C8_3 C 0.2456(8) 0.9468(2) 0.4986(3)
C9_3 C 0.3445(6) 0.9053(3) 0.4930(2)
C10_3 C 0.4248(7) 0.9129(3) 0.4597(3)
H5_3 H 0.423389 0.946689 0.439102
C11_3 C 0.5078(7) 0.8715(3) 0.4560(3)
H6_3 H 0.562930 0.878129 0.433135
C12_3 C 0.5132(6) 0.8223(3) 0.4836(2)
C13_3 C 0.6035(6) 0.7764(3) 0.4775(2)
C14_3 C 0.4347(6) 0.8151(3) 0.5177(2)
H7_3 H 0.436805 0.781080 0.537991
C15_3 C 0.3573(6) 0.8543(3) 0.5228(2)
H8_3 H 0.306860 0.848376 0.547820
C16_3 C 0.2662(6) 0.9865(3) 0.5440(2)
C17_3 C 0.3452(6) 0.9773(3) 0.5769(2)
H9_3 H 0.394766 0.945366 0.572437
C23_3 C 0.1475(7) 0.9064(3) 0.5049(2)
C24_3 C 0.1393(7) 0.8581(3) 0.4738(3)
H13_3 H 0.190657 0.853316 0.449055
C25_3 C 0.0537(7) 0.8156(3) 0.4790(2)
H14_3 H 0.048159 0.783318 0.457141
C29_3 C 0.0713(7) 0.9127(3) 0.5398(3)
H16_3 H 0.074264 0.946879 0.559924
O20_2 O 0.8864(5) 0.7350(2) 0.49299(19)
O29_2 O 0.8541(5) 0.5973(2) 0.55007(17)
C33_3 C 0.9872(6) 0.4080(3) 0.7883(2)
H18_3 H 0.976836 0.435342 0.813748
C34_3 C 0.9138(4) 0.4054(2) 0.7503(3)
C35_3 C 0.9311(6) 0.3631(3) 0.7150(2)
H19_3 H 0.880250 0.359844 0.689890
C37_3 C 0.8125(5) 0.4455(2) 0.7485(3)
C38_3 C 0.7975(6) 0.4828(3) 0.7934(2)
C39_3 C 0.8654(6) 0.5316(3) 0.8018(2)
H21_3 H 0.924309 0.538080 0.780845
C40_3 C 0.8506(6) 0.5704(3) 0.8390(2)
H22_3 H 0.896130 0.604210 0.842717
C41_3 C 0.7674(7) 0.5595(3) 0.8714(2)
C42_3 C 0.7470(7) 0.6026(3) 0.9119(3)
C43_3 C 0.7045(6) 0.5117(3) 0.8661(2)
H23_3 H 0.650790 0.503669 0.889387
C44_3 C 0.7155(7) 0.4723(3) 0.8266(2)
H24_3 H 0.667911 0.439402 0.822739
C45_3 C 0.8181(7) 0.4910(3) 0.7061(2)
C46_3 C 0.7441(6) 0.5358(3) 0.7044(2)
H25_3 H 0.693495 0.539826 0.729531
C47_3 C 0.7413(6) 0.5762(3) 0.6660(2)
H26_3 H 0.688612 0.606979 0.664855
C48_3 C 0.8140(7) 0.5705(3) 0.6309(2)
C49_3 C 0.8097(7) 0.6123(4) 0.5868(3)
C50_3 C 0.8915(6) 0.5264(3) 0.6327(2)
H27_3 H 0.942861 0.523027 0.607815
C51_3 C 0.8948(6) 0.4873(3) 0.6706(2)
H28_3 H 0.949727 0.457844 0.672315
C52_3 C 0.7172(5) 0.4017(3) 0.7402(2)
C53_3 C 0.6383(6) 0.4104(3) 0.7061(2)
H29_3 H 0.638322 0.446121 0.687706
C54_3 C 0.5599(7) 0.3680(3) 0.6985(3)
H30_3 H 0.506512 0.375183 0.674952
C55_3 C 0.5566(6) 0.3160(3) 0.7237(2)
C56_3 C 0.4754(6) 0.2684(3) 0.7132(3)
C57_3 C 0.6312(6) 0.3080(3) 0.7600(2)
H31_3 H 0.627264 0.273403 0.779591
C58_3 C 0.7106(6) 0.3496(3) 0.7678(2)
H32_3 H 0.761961 0.342986 0.792354
C26_3 C 0.9807(7) 0.8207(3) 0.5145(3)
C27_3 C 0.8963(7) 0.7732(4) 0.5225(4)
C28_3 C 0.9903(7) 0.8713(3) 0.5469(3)
H15_3 H 0.941312 0.875744 0.572638
C26_4 C 0.0193(7) 0.1793(3) 0.0145(3)
C27_4 C 0.1037(7) 0.2268(4) 0.0225(4)
C28_4 C 0.0097(7) 0.1287(3) 0.0469(3)
H15_4 H 0.058688 0.124256 0.072638
O7_2 O 0.1136(5) 0.2650(2) 0.99299(19)
O14_2 O 0.1459(5) 0.4027(2) 0.05007(17)
O15_2 O 0.5690(4) 0.73184(19) 0.17015(15)
C33_4 C 0.0128(6) 0.5920(3) 0.2883(2)
H18_4 H 0.023164 0.564658 0.313748
C34_4 C 0.0862(4) 0.5946(2) 0.2503(3)
C35_4 C 0.0689(6) 0.6369(3) 0.2150(2)
H19_4 H 0.119750 0.640156 0.189890
C37_4 C 0.1875(5) 0.5545(2) 0.2485(3)
C38_4 C 0.2025(6) 0.5172(3) 0.2934(2)
C39_4 C 0.1346(6) 0.4684(3) 0.3018(2)
H21_4 H 0.075691 0.461920 0.280845
C40_4 C 0.1494(6) 0.4296(3) 0.3390(2)
H22_4 H 0.103870 0.395790 0.342717
C41_4 C 0.2326(7) 0.4405(3) 0.3714(2)
C42_4 C 0.2530(7) 0.3974(3) 0.4119(3)
C43_4 C 0.2955(6) 0.4883(3) 0.3661(2)
H23_4 H 0.349210 0.496331 0.389387
C44_4 C 0.2845(7) 0.5277(3) 0.3266(2)
H24_4 H 0.332089 0.560598 0.322739
C45_4 C 0.1819(7) 0.5090(3) 0.2061(2)
C46_4 C 0.2559(6) 0.4642(3) 0.2044(2)
H25_4 H 0.306505 0.460174 0.229531
C47_4 C 0.2587(6) 0.4238(3) 0.1660(2)
H26_4 H 0.311388 0.393021 0.164855
C48_4 C 0.1860(7) 0.4295(3) 0.1309(2)
C49_4 C 0.1903(7) 0.3877(4) 0.0868(3)
C50_4 C 0.1085(6) 0.4736(3) 0.1327(2)
H27_4 H 0.057139 0.476973 0.107815
C51_4 C 0.1052(6) 0.5127(3) 0.1706(2)
H28_4 H 0.050273 0.542156 0.172315
C52_4 C 0.2828(5) 0.5983(3) 0.2402(2)
C53_4 C 0.3617(6) 0.5896(3) 0.2061(2)
H29_4 H 0.361678 0.553879 0.187706
C54_4 C 0.4401(7) 0.6320(3) 0.1985(3)
H30_4 H 0.493488 0.624817 0.174952
C55_4 C 0.4434(6) 0.6840(3) 0.2237(2)
C56_4 C 0.5246(6) 0.7316(3) 0.2132(3)
C57_4 C 0.3688(6) 0.6920(3) 0.2600(2)
H31_4 H 0.372736 0.726597 0.279591
C58_4 C 0.2894(6) 0.6504(3) 0.2678(2)
H32_4 H 0.238039 0.657014 0.292354
O3_4 O 0.3833(5) 0.2604(2) 0.01143(17)
C14_4 C 0.5653(6) 0.1849(3) 0.0177(2)
H7_4 H 0.563195 0.218920 0.037991
C15_4 C 0.6427(6) 0.1457(3) 0.0228(2)
H8_4 H 0.693140 0.151624 0.047820
C16_4 C 0.7338(6) 0.0135(3) 0.0440(2)
C17_4 C 0.6548(6) 0.0227(3) 0.0769(2)
H9_4 H 0.605234 0.054634 0.072437
C23_4 C 0.8525(7) 0.0936(3) 0.0049(2)
C29_4 C 0.9287(7) 0.0873(3) 0.0398(3)
H16_4 H 0.925736 0.053121 0.059924
C4_4 C 0.8375(8) 0.0221(3) 0.9201(3)
H2_4 H 0.879288 0.057652 0.921458
C5_4 C 0.7629(7) 0.0112(3) 0.9553(2)
C8_4 C 0.7544(8) 0.0532(2) 0.9986(3)
C9_4 C 0.6555(6) 0.0947(3) 0.9930(2)
C10_4 C 0.5752(7) 0.0871(3) 0.9597(3)
H5_4 H 0.576611 0.053311 0.939102
C11_4 C 0.4922(7) 0.1285(3) 0.9560(3)
H6_4 H 0.437070 0.121871 0.933135
C12_4 C 0.4868(6) 0.1777(3) 0.9836(2)
C13_4 C 0.3965(6) 0.2236(3) 0.9775(2)
C24_4 C 0.8607(7) 0.1419(3) 0.9738(3)
H13_4 H 0.809343 0.146684 0.949055
C25_4 C 0.9463(7) 0.1844(3) 0.9790(2)
H14_4 H 0.951841 0.216682 0.957141
C18_4 C 0.6452(7) 0.9859(3) 0.1174(3)
H10_4 H 0.594366 0.995165 0.141608
C19_4 C 0.7125(7) 0.9349(3) 0.1215(2)
C20_4 C 0.6951(8) 0.8943(3) 0.1616(3)
C21_4 C 0.7913(8) 0.9253(3) 0.0879(3)
H11_4 H 0.837581 0.891668 0.091377
C22_4 C 0.8046(7) 0.9610(3) 0.0512(3)
H12_4 H 0.860379 0.952920 0.028955
C30_4 C 0.8160(5) 0.7138(2) 0.2521(3)
C31_4 C 0.9079(4) 0.6715(2) 0.2528(3)
C32_4 C 0.9238(6) 0.6308(3) 0.2877(2)
H17_4 H 0.872816 0.628298 0.312875
C36_4 C 0.9824(6) 0.6739(3) 0.2150(2)
H20_4 H 0.972100 0.701376 0.189560
O1_4 O 0.7625(6) 0.8395(2) 0.8377(2)
O2_4 O 0.8631(7) 0.9066(3) 0.8047(2)
C1_4 C 0.8034(8) 0.8934(4) 0.8356(3)
C2_4 C 0.7879(8) 0.9342(3) 0.8761(3)
C3_4 C 0.8534(8) 0.9828(3) 0.8829(3)
H1_4 H 0.911311 0.989618 0.861477
C6_4 C 0.6998(7) 0.9624(3) 0.9509(3)
H3_4 H 0.646837 0.954627 0.974488
C7_4 C 0.7104(7) 0.9225(3) 0.9121(3)
H4_4 H 0.665788 0.888064 0.910131
loop_
_geom_bond_atom_site_label_1
_geom_bond_atom_site_label_2
_geom_bond_site_symmetry_1
_geom_bond_site_symmetry_2
O15 C56 1_555 1_555
O16 C56 1_555 1_555
Ca5 O15 1_555 1_555
Ca15 O16 1_555 1_555
Ca5 O5 1_555 1_555
O5 C20 1_555 1_555
O6 C20 1_555 1_555
O9 C30 1_555 1_555
O10 Ca5 1_555 1_555
O11 C42 1_555 1_555
O12 C42 1_555 1_555
O13 C49 1_555 1_555
O14 C49 1_555 1_555
H10 C18 1_555 1_555
C19 C18 1_555 1_555
C20 C19 1_555 1_555
C21 C19 1_555 1_555
H11 C21 1_555 1_555
H12 C22 1_555 1_555
C30 O10 1_555 1_555
C31 C30 1_555 1_555
C32 C31 1_555 1_555
H17 C32 1_555 1_555
C33 C32 1_555 1_555
H18 C33 1_555 1_555
C34 C33 1_555 1_555
C35 C34 1_555 1_555
H19 C35 1_555 1_555
C36 C31 1_555 1_555
H20 C36 1_555 1_555
C37 C34 1_555 1_555
C38 C37 1_555 1_555
C39 C38 1_555 1_555
H21 C39 1_555 1_555
C40 C39 1_555 1_555
H22 C40 1_555 1_555
C41 C40 1_555 1_555
C42 C41 1_555 1_555
C43 C41 1_555 1_555
H23 C43 1_555 1_555
C44 C38 1_555 1_555
H24 C44 1_555 1_555
C45 C37 1_555 1_555
C46 C45 1_555 1_555
H25 C46 1_555 1_555
C47 C46 1_555 1_555
H26 C47 1_555 1_555
C48 C47 1_555 1_555
C49 C48 1_555 1_555
C50 C48 1_555 1_555
H27 C50 1_555 1_555
C51 C45 1_555 1_555
H28 C51 1_555 1_555
C52 C37 1_555 1_555
C53 C52 1_555 1_555
H29 C53 1_555 1_555
C54 C53 1_555 1_555
H30 C54 1_555 1_555
C55 C54 1_555 1_555
C57 C55 1_555 1_555
H31 C57 1_555 1_555
C58 C52 1_555 1_555
H32 C58 1_555 1_555
Ca7 O13 1_555 1_555
Ca9 O13 1_555 1_555
Ca10 O11 1_555 1_555
Ca11 O11 1_555 1_555
Ca12 O9 1_555 1_555
Ca15 O5 1_555 1_555
O21 Ca5 1_555 1_555
O28 Ca5 1_555 1_555
O6 Ca15 1_555 1_555
O9 Ca15 1_555 1_555
O10 Ca15 1_555 1_555
O12 Ca10 1_555 1_555
O14 Ca9 1_555 1_555
C21 C22 1_555 1_555
C35 C36 1_555 1_555
C43 C44 1_555 1_555
C50 C51 1_555 1_555
C57 C58 1_555 1_555
Ca3 O1 1_555 1_555
Ca4 O1 1_555 1_555
O1 C1 1_555 1_555
O2 Ca4 1_555 1_555
C1 O2 1_555 1_555
C2 C1 1_555 1_555
C3 C2 1_555 1_555
H1 C3 1_555 1_555
H3 C6 1_555 1_555
C7 C2 1_555 1_555
H4 C7 1_555 1_555
O17 Ca3 1_555 1_555
O18 Ca4 1_555 1_555
O19 Ca4 1_555 1_555
O22 Ca3 1_555 1_555
O23 Ca4 1_555 1_555
O24 Ca3 1_555 1_555
O31 Ca4 1_555 1_555
Ca4 O22 1_555 1_555
C6 C7 1_555 1_555
O8 C27 1_555 1_555
H7 C14 1_555 1_555
H8 C15 1_555 1_555
C17 C16 1_555 1_555
H9 C17 1_555 1_555
C27 C26 1_555 1_555
C28 C26 1_555 1_555
H15 C28 1_555 1_555
C29 C23 1_555 1_555
H16 C29 1_555 1_555
Ca7 O8 1_555 1_555
C14 C15 1_555 1_555
C28 C29 1_555 1_555
H2 C4 1_555 1_555
C5 C4 1_555 1_555
C8 C5 1_555 1_555
C9 C8 1_555 1_555
C10 C9 1_555 1_555
H5 C10 1_555 1_555
H13 C24 1_555 1_555
C25 C24 1_555 1_555
H14 C25 1_555 1_555
Ca9 O3 1_555 1_555
O4 C13 1_555 1_555
H6 C11 1_555 1_555
C12 C11 1_555 1_555
C13 C12 1_555 1_555
Ca13 O4 1_555 1_555
Ca13 O25 1_555 1_555
Ca2 O3_2 1_555 1_555
O3_2 C13_2 1_555 1_555
O4_2 C13_2 1_555 1_555
H6_2 C11_2 1_555 1_555
C12_2 C11_2 1_555 1_555
C13_2 C12_2 1_555 1_555
Ca12 O4_2 1_555 1_555
O20 Ca2 1_555 1_555
O25_2 Ca2 1_555 1_555
O26_2 Ca2 1_555 1_555
O27 Ca2 1_555 1_555
O29 Ca2 1_555 1_555
Ca12 O25_2 1_555 1_555
O20 C27_2 1_555 1_555
O8_2 C27_2 1_555 1_555
H2_2 C4_2 1_555 1_555
C5_2 C4_2 1_555 1_555
C8_2 C5_2 1_555 1_555
C9_2 C8_2 1_555 1_555
C10_2 C9_2 1_555 1_555
H5_2 C10_2 1_555 1_555
H7_2 C14_2 1_555 1_555
C15_2 C9_2 1_555 1_555
H8_2 C15_2 1_555 1_555
C16_2 C8_2 1_555 1_555
C17_2 C16_2 1_555 1_555
H9_2 C17_2 1_555 1_555
C23_2 C8_2 1_555 1_555
C24_2 C23_2 1_555 1_555
H13_2 C24_2 1_555 1_555
C25_2 C24_2 1_555 1_555
H14_2 C25_2 1_555 1_555
C26_2 C25_2 1_555 1_555
C27_2 C26_2 1_555 1_555
C28_2 C26_2 1_555 1_555
H15_2 C28_2 1_555 1_555
C29_2 C23_2 1_555 1_555
H16_2 C29_2 1_555 1_555
Ca6 O8_2 1_555 1_555
C14_2 C15_2 1_555 1_555
C28_2 C29_2 1_555 1_555
Ca1 O5_2 1_555 1_555
Ca11 O1_2 1_555 1_555
Ca4_2 O1_2 1_555 1_555
O1_2 C1_2 1_555 1_555
O2_2 Ca4_2 1_555 1_555
O5_2 C20_2 1_555 1_555
O6_2 C20_2 1_555 1_555
O9_2 C30_2 1_555 1_555
O10_2 Ca1 1_555 1_555
O24 C42_2 1_555 1_555
O12_2 C42_2 1_555 1_555
O27 C49_2 1_555 1_555
O29 C49_2 1_555 1_555
C1_2 O2_2 1_555 1_555
C2_2 C1_2 1_555 1_555
C3_2 C2_2 1_555 1_555
H1_2 C3_2 1_555 1_555
H3_2 C6_2 1_555 1_555
C7_2 C2_2 1_555 1_555
H4_2 C7_2 1_555 1_555
H10_2 C18_2 1_555 1_555
C19_2 C18_2 1_555 1_555
C20_2 C19_2 1_555 1_555
C21_2 C19_2 1_555 1_555
H11_2 C21_2 1_555 1_555
H12_2 C22_2 1_555 1_555
C30_2 O10_2 1_555 1_555
C31_2 C30_2 1_555 1_555
C32_2 C31_2 1_555 1_555
H17_2 C32_2 1_555 1_555
C33_2 C32_2 1_555 1_555
H18_2 C33_2 1_555 1_555
C34_2 C33_2 1_555 1_555
C35_2 C34_2 1_555 1_555
H19_2 C35_2 1_555 1_555
C36_2 C31_2 1_555 1_555
H20_2 C36_2 1_555 1_555
C37_2 C34_2 1_555 1_555
C38_2 C37_2 1_555 1_555
C39_2 C38_2 1_555 1_555
H21_2 C39_2 1_555 1_555
C40_2 C39_2 1_555 1_555
H22_2 C40_2 1_555 1_555
C41_2 C40_2 1_555 1_555
C42_2 C41_2 1_555 1_555
C43_2 C41_2 1_555 1_555
H23_2 C43_2 1_555 1_555
C44_2 C38_2 1_555 1_555
H24_2 C44_2 1_555 1_555
C45_2 C37_2 1_555 1_555
C46_2 C45_2 1_555 1_555
H25_2 C46_2 1_555 1_555
C47_2 C46_2 1_555 1_555
H26_2 C47_2 1_555 1_555
C48_2 C47_2 1_555 1_555
C49_2 C48_2 1_555 1_555
C50_2 C48_2 1_555 1_555
H27_2 C50_2 1_555 1_555
C51_2 C45_2 1_555 1_555
H28_2 C51_2 1_555 1_555
C52_2 C37_2 1_555 1_555
C53_2 C52_2 1_555 1_555
H29_2 C53_2 1_555 1_555
C54_2 C53_2 1_555 1_555
H30_2 C54_2 1_555 1_555
C55_2 C54_2 1_555 1_555
C57_2 C55_2 1_555 1_555
H31_2 C57_2 1_555 1_555
C58_2 C52_2 1_555 1_555
H32_2 C58_2 1_555 1_555
Ca6 O27 1_555 1_555
Ca13 O9_2 1_555 1_555
Ca14 O5_2 1_555 1_555
O17_2 Ca11 1_555 1_555
O18_2 Ca4_2 1_555 1_555
O19_2 Ca4_2 1_555 1_555
O21_2 Ca1 1_555 1_555
O22_2 Ca11 1_555 1_555
O23_2 Ca4_2 1_555 1_555
O28_2 Ca1 1_555 1_555
O30 Ca1 1_555 1_555
O31_2 Ca4_2 1_555 1_555
Ca4_2 O22_2 1_555 1_555
O6_2 Ca14 1_555 1_555
O9_2 Ca14 1_555 1_555
O10_2 Ca14 1_555 1_555
C6_2 C7_2 1_555 1_555
C21_2 C22_2 1_555 1_555
C35_2 C36_2 1_555 1_555
C43_2 C44_2 1_555 1_555
C50_2 C51_2 1_555 1_555
C57_2 C58_2 1_555 1_555
O30 C56_2 1_555 1_555
O16_2 C56_2 1_555 1_555
Ca14 O16_2 1_555 1_555
Ca6 O18 1_555 1_555
Ca12 O1_3 1_555 1_555
Ca15 O1_3 1_555 1_555
O1_3 C1_3 1_555 1_555
O2_3 Ca15 1_555 1_555
O18 C20_3 1_555 1_555
O19 C20_3 1_555 1_555
O22 C30_3 1_555 1_555
O23 Ca6 1_555 1_555
C1_3 O2_3 1_555 1_555
C2_3 C1_3 1_555 1_555
C3_3 C2_3 1_555 1_555
H1_3 C3_3 1_555 1_555
H3_3 C6_3 1_555 1_555
C7_3 C2_3 1_555 1_555
H4_3 C7_3 1_555 1_555
H10_3 C18_3 1_555 1_555
C19_3 C18_3 1_555 1_555
C20_3 C19_3 1_555 1_555
C21_3 C19_3 1_555 1_555
H11_3 C21_3 1_555 1_555
H12_3 C22_3 1_555 1_555
C30_3 O23 1_555 1_555
C31_3 C30_3 1_555 1_555
C32_3 C31_3 1_555 1_555
H17_3 C32_3 1_555 1_555
C36_3 C31_3 1_555 1_555
H20_3 C36_3 1_555 1_555
O30_2 Ca6 1_555 1_555
C6_3 C7_3 1_555 1_555
C21_3 C22_3 1_555 1_555
Ca10 O3_3 1_555 1_555
O3_3 C13_3 1_555 1_555
O17_2 C13_3 1_555 1_555
H2_3 C4_3 1_555 1_555
C5_3 C4_3 1_555 1_555
C8_3 C5_3 1_555 1_555
C9_3 C8_3 1_555 1_555
C10_3 C9_3 1_555 1_555
H5_3 C10_3 1_555 1_555
C11_3 C10_3 1_555 1_555
H6_3 C11_3 1_555 1_555
C12_3 C11_3 1_555 1_555
C13_3 C12_3 1_555 1_555
C14_3 C12_3 1_555 1_555
H7_3 C14_3 1_555 1_555
C15_3 C9_3 1_555 1_555
H8_3 C15_3 1_555 1_555
C16_3 C8_3 1_555 1_555
C17_3 C16_3 1_555 1_555
H9_3 C17_3 1_555 1_555
C23_3 C8_3 1_555 1_555
C24_3 C23_3 1_555 1_555
H13_3 C24_3 1_555 1_555
C25_3 C24_3 1_555 1_555
H14_3 C25_3 1_555 1_555
C29_3 C23_3 1_555 1_555
H16_3 C29_3 1_555 1_555
O20_2 Ca10 1_555 1_555
O28_2 Ca10 1_555 1_555
O29_2 Ca10 1_555 1_555
C14_3 C15_3 1_555 1_555
O25 C42_3 1_555 1_555
O26 C42_3 1_555 1_555
O28_2 C49_3 1_555 1_555
O29_2 C49_3 1_555 1_555
O30_2 C56_3 1_555 1_555
O31 C56_3 1_555 1_555
H18_3 C33_3 1_555 1_555
C34_3 C33_3 1_555 1_555
C35_3 C34_3 1_555 1_555
H19_3 C35_3 1_555 1_555
C37_3 C34_3 1_555 1_555
C38_3 C37_3 1_555 1_555
C39_3 C38_3 1_555 1_555
H21_3 C39_3 1_555 1_555
C40_3 C39_3 1_555 1_555
H22_3 C40_3 1_555 1_555
C41_3 C40_3 1_555 1_555
C42_3 C41_3 1_555 1_555
C43_3 C41_3 1_555 1_555
H23_3 C43_3 1_555 1_555
C44_3 C38_3 1_555 1_555
H24_3 C44_3 1_555 1_555
C45_3 C37_3 1_555 1_555
C46_3 C45_3 1_555 1_555
H25_3 C46_3 1_555 1_555
C47_3 C46_3 1_555 1_555
H26_3 C47_3 1_555 1_555
C48_3 C47_3 1_555 1_555
C49_3 C48_3 1_555 1_555
C50_3 C48_3 1_555 1_555
H27_3 C50_3 1_555 1_555
C51_3 C45_3 1_555 1_555
H28_3 C51_3 1_555 1_555
C52_3 C37_3 1_555 1_555
C53_3 C52_3 1_555 1_555
H29_3 C53_3 1_555 1_555
C54_3 C53_3 1_555 1_555
H30_3 C54_3 1_555 1_555
C55_3 C54_3 1_555 1_555
C56_3 C55_3 1_555 1_555
C57_3 C55_3 1_555 1_555
H31_3 C57_3 1_555 1_555
C58_3 C52_3 1_555 1_555
H32_3 C58_3 1_555 1_555
C43_3 C44_3 1_555 1_555
C50_3 C51_3 1_555 1_555
C57_3 C58_3 1_555 1_555
O20_2 C27_3 1_555 1_555
O21_2 C27_3 1_555 1_555
C27_3 C26_3 1_555 1_555
C28_3 C26_3 1_555 1_555
H15_3 C28_3 1_555 1_555
O21 C27_4 1_555 1_555
C27_4 C26_4 1_555 1_555
C28_4 C26_4 1_555 1_555
H15_4 C28_4 1_555 1_555
O25_2 C42_4 1_555 1_555
O26_2 C42_4 1_555 1_555
O28 C49_4 1_555 1_555
O14_2 C49_4 1_555 1_555
O15_2 C56_4 1_555 1_555
O31_2 C56_4 1_555 1_555
H18_4 C33_4 1_555 1_555
C34_4 C33_4 1_555 1_555
C35_4 C34_4 1_555 1_555
H19_4 C35_4 1_555 1_555
C37_4 C34_4 1_555 1_555
C38_4 C37_4 1_555 1_555
C39_4 C38_4 1_555 1_555
H21_4 C39_4 1_555 1_555
C40_4 C39_4 1_555 1_555
H22_4 C40_4 1_555 1_555
C41_4 C40_4 1_555 1_555
C42_4 C41_4 1_555 1_555
C43_4 C41_4 1_555 1_555
H23_4 C43_4 1_555 1_555
C44_4 C38_4 1_555 1_555
H24_4 C44_4 1_555 1_555
C45_4 C37_4 1_555 1_555
C46_4 C45_4 1_555 1_555
H25_4 C46_4 1_555 1_555
C47_4 C46_4 1_555 1_555
H26_4 C47_4 1_555 1_555
C48_4 C47_4 1_555 1_555
C49_4 C48_4 1_555 1_555
C50_4 C48_4 1_555 1_555
H27_4 C50_4 1_555 1_555
C51_4 C45_4 1_555 1_555
H28_4 C51_4 1_555 1_555
C52_4 C37_4 1_555 1_555
C53_4 C52_4 1_555 1_555
H29_4 C53_4 1_555 1_555
C54_4 C53_4 1_555 1_555
H30_4 C54_4 1_555 1_555
C55_4 C54_4 1_555 1_555
C56_4 C55_4 1_555 1_555
C57_4 C55_4 1_555 1_555
H31_4 C57_4 1_555 1_555
C58_4 C52_4 1_555 1_555
H32_4 C58_4 1_555 1_555
Ca7 O15_2 1_555 1_555
Ca10_2 O28 1_555 1_555
O14_2 Ca10_2 1_555 1_555
C43_4 C44_4 1_555 1_555
C50_4 C51_4 1_555 1_555
C57_4 C58_4 1_555 1_555
Ca10_2 O3_4 1_555 1_555
H7_4 C14_4 1_555 1_555
H8_4 C15_4 1_555 1_555
C17_4 C16_4 1_555 1_555
H9_4 C17_4 1_555 1_555
C29_4 C23_4 1_555 1_555
H16_4 C29_4 1_555 1_555
C14_4 C15_4 1_555 1_555
O17 C13_4 1_555 1_555
H2_4 C4_4 1_555 1_555
C5_4 C4_4 1_555 1_555
C8_4 C5_4 1_555 1_555
C9_4 C8_4 1_555 1_555
C10_4 C9_4 1_555 1_555
H5_4 C10_4 1_555 1_555
C11_4 C10_4 1_555 1_555
H6_4 C11_4 1_555 1_555
C12_4 C11_4 1_555 1_555
C13_4 C12_4 1_555 1_555
H13_4 C24_4 1_555 1_555
C25_4 C24_4 1_555 1_555
H14_4 C25_4 1_555 1_555
Ca7 O18_2 1_555 1_555
O18_2 C20_4 1_555 1_555
O19_2 C20_4 1_555 1_555
O22_2 C30_4 1_555 1_555
O23_2 Ca7 1_555 1_555
H10_4 C18_4 1_555 1_555
C19_4 C18_4 1_555 1_555
C20_4 C19_4 1_555 1_555
C21_4 C19_4 1_555 1_555
H11_4 C21_4 1_555 1_555
H12_4 C22_4 1_555 1_555
C30_4 O23_2 1_555 1_555
C31_4 C30_4 1_555 1_555
C32_4 C31_4 1_555 1_555
H17_4 C32_4 1_555 1_555
C36_4 C31_4 1_555 1_555
H20_4 C36_4 1_555 1_555
C21_4 C22_4 1_555 1_555
Ca13 O1_4 1_555 1_555
Ca14 O1_4 1_555 1_555
O1_4 C1_4 1_555 1_555
O2_4 Ca14 1_555 1_555
C1_4 O2_4 1_555 1_555
C2_4 C1_4 1_555 1_555
C3_4 C2_4 1_555 1_555
H1_4 C3_4 1_555 1_555
H3_4 C6_4 1_555 1_555
C7_4 C2_4 1_555 1_555
H4_4 C7_4 1_555 1_555
C6_4 C7_4 1_555 1_555

#END
