
###############################################################################
#
# This file contains modified crystal structure data generated from the
# MOF subset of the Cambridge Structural Database (CSD) v543 
# hosted by the Cambridge Crystallographic Data Centre (CCDC).
#
# This work is licensed under the Creative Commons
# Attribution-NonCommercial-ShareAlike 4.0 International License.
# To view a copy of this license, visit
# http://creativecommons.org/licenses/by-nc-sa/4.0/
# or send a letter to
# Creative Commons, PO Box 1866, Mountain View, CA 94042, USA.
#
# CIF created using the CSD Python API on 29 September 2022
# The structure has been converted into the P1 space group
# The structure has a 3D framework
# The original CSD entry YUZXAT is in the monoclinic crystal system
# The framework has been calculated to contain at least 10.0% void space
# The void calculation uses a probe of radius 1.32A, grid spacing 0.4
#
###############################################################################

data_YUZXAT
_chemical_formula_moiety         '(C166 H128 N16 O44 Zn8)n'
_symmetry_cell_setting           triclinic
_symmetry_space_group_name_H-M   'P 1'
_symmetry_Int_Tables_number      1
_space_group_name_Hall           'P 1'
loop_
_symmetry_equiv_pos_site_id
_symmetry_equiv_pos_as_xyz
1 x,y,z
_cell_length_a                   9.3402(10)
_cell_length_b                   25.842(3)
_cell_length_c                   20.090(2)
_cell_angle_alpha                90
_cell_angle_beta                 101.431(1)
_cell_angle_gamma                90
_cell_volume                     4752.93
loop_
_atom_site_label
_atom_site_type_symbol
_atom_site_fract_x
_atom_site_fract_y
_atom_site_fract_z
C18 C 0.3819(3) 0.08504(12) 0.10553(15)
C19 C 0.4713(3) 0.13248(11) 0.21553(15)
H15 H 0.4503 0.1637 0.1926
C20 C 0.4449(3) 0.08587(11) 0.18039(14)
C21 C 0.4743(4) 0.03846(12) 0.21470(15)
H16 H 0.4598 0.0074 0.1909
O5 O 0.3235(2) 0.12623(8) 0.08037(11)
O6 O 0.3921(4) 0.04572(11) 0.07168(14)
C38 C 0.6181(3) 0.08504(12) 0.39447(15)
C39 C 0.5287(3) 0.13248(11) 0.28447(15)
H31 H 0.5497 0.1637 0.3074
C40 C 0.5551(3) 0.08587(11) 0.31961(14)
C41 C 0.5257(4) 0.03846(12) 0.28530(15)
H32 H 0.5402 0.0074 0.3091
O12 O 0.6765(2) 0.12623(8) 0.41963(11)
O14 O 0.6079(4) 0.04572(11) 0.42832(14)
Zn6 Zn 0.78048(3) 0.121706(11) 0.513602(15)
C1 C 0.0218(3) 0.04271(13) 0.91978(18)
C5 C 0.2595(3) 0.02239(11) 0.91689(15)
H4 H 0.3584 0.0304 0.9283
N1 N 0.1636(3) 0.05514(8) 0.93645(12)
O3 O 0.0426(2) 0.16308(7) 0.97964(11)
Zn1 Zn 0.21952(3) 0.121706(11) 0.986398(15)
H17 H 0.0455 0.0645 0.5660
N5 N 0.3169(3) 0.17125(8) 0.93041(12)
C3 C 0.0692(3) 0.96671(10) 0.86262(14)
C4 C 0.2186(3) 0.97763(10) 0.88084(15)
H3 H 0.2879 0.9554 0.8690
C6 C 0.1037(3) 0.88941(10) 0.80004(15)
H5 H 0.1588 0.8689 0.8368
H6 H 0.1718 0.9072 0.7772
C7 C -0.0000 0.85504(13) 0.7500
H11 H 0.0793 0.6902 0.8506
O1 O 0.0116(2) 0.92589(8) 0.82555(11)
C23 C 0.0290(4) 0.99984(13) 0.6170(2)
H18 H 0.1287 0.9931 0.6281
C28 C 0.0933(3) 0.82177(10) 0.71339(14)
H23 H 0.1313 0.8423 0.6804
H24 H 0.1750 0.8075 0.7456
C29 C 0.2419(4) 0.71910(12) 0.58093(18)
H25 H 0.3237 0.7269 0.5629
C30 C 0.1881(3) 0.75694(11) 0.61739(17)
H26 H 0.2335 0.7891 0.6241
C31 C 0.0683(3) 0.74668(10) 0.64327(14)
C32 C 0.0030(4) 0.69813(12) 0.63178(19)
C33 C 0.0595(3) 0.66285(12) 0.59520(17)
H28 H 0.0125 0.6311 0.5868
N4 N 0.1831(3) 0.67125(8) 0.56959(12)
O8 O 0.0028(2) 0.78097(7) 0.68004(10)
Zn4 Zn 0.28048(3) 0.621706(11) 0.513602(15)
C14 C 0.9282(3) 0.15765(10) 0.00410(14)
C15 C 0.7190(3) 0.20660(11) 0.03586(16)
H13 H 0.6977 0.1778 0.0599
C16 C 0.8356(3) 0.20559(11) 0.00131(14)
O4 O 0.8909(2) 0.11706(8) 0.02824(11)
C37 C 0.6363(3) 0.25107(10) 0.03350(14)
H30 H 0.5588 0.2517 0.0563
O9 O 0.4574(2) 0.33692(7) 0.02036(11)
Zn5 Zn 0.28048(3) 0.378294(11) 0.013602(15)
H1 H 0.9545 0.0645 0.9340
C17 C 0.8637(3) 0.24893(10) 0.96650(14)
H14 H 0.9412 0.2483 0.9437
C22 C 0.9782(3) 0.04271(13) 0.58022(18)
C26 C 0.7405(3) 0.02239(11) 0.58311(15)
H20 H 0.6416 0.0304 0.5717
C34 C 0.5718(3) 0.34235(10) 0.99590(14)
C35 C 0.7810(3) 0.29340(11) 0.96414(16)
H29 H 0.8023 0.3222 0.9401
C36 C 0.6644(3) 0.29441(11) 0.99869(14)
N3 N 0.8364(3) 0.05514(8) 0.56355(12)
N6 N 0.6831(3) 0.17125(8) 0.56959(12)
O10 O 0.9574(2) 0.16308(7) 0.52036(11)
O11 O 0.6091(2) 0.38294(8) 0.97176(11)
C2 C 0.9710(4) 0.99984(13) 0.8830(2)
H2 H 0.8713 0.9931 0.8719
C7_2 C 1.0000 0.85504(13) 0.7500
C8 C 0.9067(3) 0.82177(10) 0.78661(14)
H7 H 0.8687 0.8423 0.8196
H8 H 0.8250 0.8075 0.7544
C9 C 0.7581(4) 0.71910(12) 0.91907(18)
H9 H 0.6763 0.7269 0.9371
C10 C 0.8119(3) 0.75694(11) 0.88261(17)
H10 H 0.7665 0.7891 0.8759
C11 C 0.9317(3) 0.74668(10) 0.85673(14)
C12 C 0.9970(4) 0.69813(12) 0.86822(19)
C13 C 0.9405(3) 0.66285(12) 0.90480(17)
H12 H 0.9875 0.6311 0.9132
N2 N 0.8169(3) 0.67125(8) 0.93041(12)
O2 O 0.9972(2) 0.78097(7) 0.81996(10)
C24 C 0.9308(3) 0.96671(10) 0.63738(14)
C25 C 0.7814(3) 0.97763(10) 0.61916(15)
H19 H 0.7121 0.9554 0.6310
C27 C 0.8963(3) 0.88941(10) 0.69996(15)
H21 H 0.8412 0.8689 0.6632
H22 H 0.8282 0.9072 0.7228
H27 H 0.9207 0.6902 0.6494
O7 O 0.9884(2) 0.92589(8) 0.67445(11)
Zn3 Zn 0.71952(3) 0.621706(11) 0.986398(15)
C14_2 C 0.0718(3) 0.15765(10) 0.49590(14)
C15_2 C 0.2810(3) 0.20660(11) 0.46414(16)
H13_2 H 0.3023 0.1778 0.4401
C16_2 C 0.1644(3) 0.20559(11) 0.49869(14)
C17_2 C 0.1363(3) 0.24893(10) 0.53350(14)
H14_2 H 0.0588 0.2483 0.5563
O4_2 O 0.1091(2) 0.11706(8) 0.47176(11)
C34_2 C 0.4282(3) 0.34235(10) 0.50410(14)
C35_2 C 0.2190(3) 0.29340(11) 0.53586(16)
H29_2 H 0.1977 0.3222 0.5599
C36_2 C 0.3356(3) 0.29441(11) 0.50131(14)
C37_2 C 0.3637(3) 0.25107(10) 0.46650(14)
H30_2 H 0.4412 0.2517 0.4437
O9_2 O 0.5426(2) 0.33692(7) 0.47964(11)
O11_2 O 0.3909(2) 0.38294(8) 0.52824(11)
Zn5_2 Zn 0.71952(3) 0.378294(11) 0.486398(15)
C38_2 C 0.1181(3) 0.58504(12) 0.39447(15)
C39_2 C 0.0287(3) 0.63248(11) 0.28447(15)
H31_2 H 0.0497 0.6637 0.3074
C40_2 C 0.0551(3) 0.58587(11) 0.31961(14)
C41_2 C 0.0257(4) 0.53846(12) 0.28530(15)
H32_2 H 0.0402 0.5074 0.3091
O12_2 O 0.1765(2) 0.62623(8) 0.41963(11)
O14_2 O 0.1079(4) 0.54572(11) 0.42832(14)
C14_3 C 0.4282(3) 0.65765(10) 0.00410(14)
C15_3 C 0.2190(3) 0.70660(11) 0.03586(16)
H13_3 H 0.1977 0.6778 0.0599
C16_3 C 0.3356(3) 0.70559(11) 0.00131(14)
C18_2 C 0.8819(3) 0.58504(12) 0.10553(15)
C19_2 C 0.9713(3) 0.63248(11) 0.21553(15)
H15_2 H 0.9503 0.6637 0.1926
C20_2 C 0.9449(3) 0.58587(11) 0.18039(14)
C21_2 C 0.9743(4) 0.53846(12) 0.21470(15)
H16_2 H 0.9598 0.5074 0.1909
O4_3 O 0.3909(2) 0.61706(8) 0.02824(11)
O5_2 O 0.8235(2) 0.62623(8) 0.08037(11)
O6_2 O 0.8921(4) 0.54572(11) 0.07168(14)
C37_3 C 0.1363(3) 0.75107(10) 0.03350(14)
H30_3 H 0.0588 0.7517 0.0563
C1_2 C 0.5218(3) 0.54271(13) 0.91978(18)
H1_2 H 0.4545 0.5645 0.9340
C2_2 C 0.4710(4) 0.49984(13) 0.8830(2)
H2_2 H 0.3713 0.4931 0.8719
C3_2 C 0.5692(3) 0.46671(10) 0.86262(14)
C4_2 C 0.7186(3) 0.47763(10) 0.88084(15)
H3_2 H 0.7879 0.4554 0.8690
C5_2 C 0.7595(3) 0.52239(11) 0.91689(15)
H4_2 H 0.8584 0.5304 0.9283
C6_2 C 0.6037(3) 0.38941(10) 0.80004(15)
H5_2 H 0.6588 0.3689 0.8368
H6_2 H 0.6718 0.4072 0.7772
C7_3 C 0.5000 0.35504(13) 0.7500
C8_2 C 0.4067(3) 0.32177(10) 0.78661(14)
H7_2 H 0.3687 0.3423 0.8196
H8_2 H 0.3250 0.3075 0.7544
C9_2 C 0.2581(4) 0.21910(12) 0.91907(18)
H9_2 H 0.1763 0.2269 0.9371
C10_2 C 0.3119(3) 0.25694(11) 0.88261(17)
H10_2 H 0.2665 0.2891 0.8759
C11_2 C 0.4317(3) 0.24668(10) 0.85673(14)
C12_2 C 0.4970(4) 0.19813(12) 0.86822(19)
H11_2 H 0.5793 0.1902 0.8506
C13_2 C 0.4405(3) 0.16285(12) 0.90480(17)
H12_2 H 0.4875 0.1311 0.9132
C17_3 C 0.3637(3) 0.74893(10) 0.96650(14)
H14_3 H 0.4412 0.7483 0.9437
N1_2 N 0.6636(3) 0.55514(8) 0.93645(12)
O1_2 O 0.5116(2) 0.42589(8) 0.82555(11)
O2_2 O 0.4972(2) 0.28097(7) 0.81996(10)
O3_2 O 0.5426(2) 0.66308(7) 0.97964(11)
C22_2 C 0.4782(3) 0.54271(13) 0.58022(18)
H17_2 H 0.5455 0.5645 0.5660
C23_2 C 0.5290(4) 0.49984(13) 0.6170(2)
H18_2 H 0.6287 0.4931 0.6281
C24_2 C 0.4308(3) 0.46671(10) 0.63738(14)
C25_2 C 0.2814(3) 0.47763(10) 0.61916(15)
H19_2 H 0.2121 0.4554 0.6310
C26_2 C 0.2405(3) 0.52239(11) 0.58311(15)
H20_2 H 0.1416 0.5304 0.5717
C27_2 C 0.3963(3) 0.38941(10) 0.69996(15)
H21_2 H 0.3412 0.3689 0.6632
H22_2 H 0.3282 0.4072 0.7228
C28_2 C 0.5933(3) 0.32177(10) 0.71339(14)
H23_2 H 0.6313 0.3423 0.6804
H24_2 H 0.6750 0.3075 0.7456
C29_2 C 0.7419(4) 0.21910(12) 0.58093(18)
H25_2 H 0.8237 0.2269 0.5629
C30_2 C 0.6881(3) 0.25694(11) 0.61739(17)
H26_2 H 0.7335 0.2891 0.6241
C31_2 C 0.5683(3) 0.24668(10) 0.64327(14)
C32_2 C 0.5030(4) 0.19813(12) 0.63178(19)
H27_2 H 0.4207 0.1902 0.6494
C33_2 C 0.5595(3) 0.16285(12) 0.59520(17)
H28_2 H 0.5125 0.1311 0.5868
C34_3 C 0.0718(3) 0.84235(10) 0.99590(14)
C35_3 C 0.2810(3) 0.79340(11) 0.96414(16)
H29_3 H 0.3023 0.8222 0.9401
C36_3 C 0.1644(3) 0.79441(11) 0.99869(14)
N3_2 N 0.3364(3) 0.55514(8) 0.56355(12)
O7_2 O 0.4884(2) 0.42589(8) 0.67445(11)
O8_2 O 0.5028(2) 0.28097(7) 0.68004(10)
O10_2 O 0.4574(2) 0.66308(7) 0.52036(11)
O11_3 O 0.1091(2) 0.88294(8) 0.97176(11)
O9_3 O 0.9574(2) 0.83692(7) 0.02036(11)
Zn5_3 Zn 0.78048(3) 0.878294(11) 0.013602(15)
O9_4 O 0.0426(2) 0.83692(7) 0.47964(11)
Zn5_4 Zn 0.21952(3) 0.878294(11) 0.486398(15)
C14_4 C 0.5718(3) 0.65765(10) 0.49590(14)
C15_4 C 0.7810(3) 0.70660(11) 0.46414(16)
H13_4 H 0.8023 0.6778 0.4401
C16_4 C 0.6644(3) 0.70559(11) 0.49869(14)
C17_4 C 0.6363(3) 0.74893(10) 0.53350(14)
H14_4 H 0.5588 0.7483 0.5563
O4_4 O 0.6091(2) 0.61706(8) 0.47176(11)
C34_4 C 0.9282(3) 0.84235(10) 0.50410(14)
C35_4 C 0.7190(3) 0.79340(11) 0.53586(16)
H29_4 H 0.6977 0.8222 0.5599
C36_4 C 0.8356(3) 0.79441(11) 0.50131(14)
C37_4 C 0.8637(3) 0.75107(10) 0.46650(14)
H30_4 H 0.9412 0.7517 0.4437
O11_4 O 0.8909(2) 0.88294(8) 0.52824(11)
C2_3 C 0.0290(4) 0.00016(13) 0.1170(2)
H2_3 H 0.1287 0.0069 0.1281
C7_4 C -0.0000 0.14496(13) 0.2500
C8_3 C 0.0933(3) 0.17823(10) 0.21339(14)
H7_3 H 0.1313 0.1577 0.1804
H8_3 H 0.1750 0.1925 0.2456
C9_3 C 0.2419(4) 0.28090(12) 0.08093(18)
H9_3 H 0.3237 0.2731 0.0629
C10_3 C 0.1881(3) 0.24306(11) 0.11739(17)
H10_3 H 0.2335 0.2109 0.1241
C11_3 C 0.0683(3) 0.25332(10) 0.14327(14)
C12_3 C 0.0030(4) 0.30187(12) 0.13178(19)
C13_3 C 0.0595(3) 0.33715(12) 0.09520(17)
H12_3 H 0.0125 0.3689 0.0868
N2_2 N 0.1831(3) 0.32875(8) 0.06959(12)
O2_3 O 0.0028(2) 0.21903(7) 0.18004(10)
C24_3 C 0.0692(3) 0.03329(10) 0.36262(14)
C25_3 C 0.2186(3) 0.02237(10) 0.38084(15)
H19_3 H 0.2879 0.0446 0.3690
C27_3 C 0.1037(3) 0.11059(10) 0.30004(15)
H21_3 H 0.1588 0.1311 0.3368
H22_3 H 0.1718 0.0928 0.2772
H27_3 H 0.0793 0.3098 0.3506
O7_3 O 0.0116(2) 0.07411(8) 0.32555(11)
H1_3 H 0.0455 0.9355 0.0660
C22_3 C 0.0218(3) 0.95729(13) 0.41978(18)
C26_3 C 0.2595(3) 0.97761(11) 0.41689(15)
H20_3 H 0.3584 0.9696 0.4283
N3_3 N 0.1636(3) 0.94486(8) 0.43645(12)
N6_2 N 0.3169(3) 0.82875(8) 0.43041(12)
O13 O 0.3235(2) 0.87377(8) 0.58037(11)
C3_3 C 0.9308(3) 0.03329(10) 0.13738(14)
C4_3 C 0.7814(3) 0.02237(10) 0.11916(15)
H3_3 H 0.7121 0.0446 0.1310
C6_3 C 0.8963(3) 0.11059(10) 0.19996(15)
H5_3 H 0.8412 0.1311 0.1632
H6_3 H 0.8282 0.0928 0.2228
C7_5 C 1.0000 0.14496(13) 0.2500
H11_3 H 0.9207 0.3098 0.1494
O1_3 O 0.9884(2) 0.07411(8) 0.17445(11)
C23_3 C 0.9710(4) 0.00016(13) 0.3830(2)
H18_3 H 0.8713 0.0069 0.3719
C28_3 C 0.9067(3) 0.17823(10) 0.28661(14)
H23_3 H 0.8687 0.1577 0.3196
H24_3 H 0.8250 0.1925 0.2544
C29_3 C 0.7581(4) 0.28090(12) 0.41907(18)
H25_3 H 0.6763 0.2731 0.4371
C30_3 C 0.8119(3) 0.24306(11) 0.38261(17)
H26_3 H 0.7665 0.2109 0.3759
C31_3 C 0.9317(3) 0.25332(10) 0.35673(14)
C32_3 C 0.9970(4) 0.30187(12) 0.36822(19)
C33_3 C 0.9405(3) 0.33715(12) 0.40480(17)
H28_3 H 0.9875 0.3689 0.4132
N4_2 N 0.8169(3) 0.32875(8) 0.43041(12)
O8_3 O 0.9972(2) 0.21903(7) 0.31996(10)
C1_3 C 0.9782(3) 0.95729(13) 0.08022(18)
C5_3 C 0.7405(3) 0.97761(11) 0.08311(15)
H4_3 H 0.6416 0.9696 0.0717
N1_3 N 0.8364(3) 0.94486(8) 0.06355(12)
H17_3 H 0.9545 0.9355 0.4340
N5_2 N 0.6831(3) 0.82875(8) 0.06959(12)
C18_3 C 0.6181(3) 0.91496(12) 0.89447(15)
C19_3 C 0.5287(3) 0.86752(11) 0.78447(15)
H15_3 H 0.5497 0.8363 0.8074
C20_3 C 0.5551(3) 0.91413(11) 0.81961(14)
C21_3 C 0.5257(4) 0.96154(12) 0.78530(15)
H16_3 H 0.5402 0.9926 0.8091
O5_3 O 0.6765(2) 0.87377(8) 0.91963(11)
O6_3 O 0.6079(4) 0.95428(11) 0.92832(14)
C38_3 C 0.3819(3) 0.91496(12) 0.60553(15)
C39_3 C 0.4713(3) 0.86752(11) 0.71553(15)
H31_3 H 0.4503 0.8363 0.6926
C40_3 C 0.4449(3) 0.91413(11) 0.68039(14)
C41_3 C 0.4743(4) 0.96154(12) 0.71470(15)
H32_3 H 0.4598 0.9926 0.6909
O14_3 O 0.3921(4) 0.95428(11) 0.57168(14)
C1_4 C 0.4782(3) 0.45729(13) 0.08022(18)
H1_4 H 0.5455 0.4355 0.0660
C2_4 C 0.5290(4) 0.50016(13) 0.1170(2)
H2_4 H 0.6287 0.5069 0.1281
C3_4 C 0.4308(3) 0.53329(10) 0.13738(14)
C4_4 C 0.2814(3) 0.52237(10) 0.11916(15)
H3_4 H 0.2121 0.5446 0.1310
C5_4 C 0.2405(3) 0.47761(11) 0.08311(15)
H4_4 H 0.1416 0.4696 0.0717
C6_4 C 0.3963(3) 0.61059(10) 0.19996(15)
H5_4 H 0.3412 0.6311 0.1632
H6_4 H 0.3282 0.5928 0.2228
C7_6 C 0.5000 0.64496(13) 0.2500
C8_4 C 0.5933(3) 0.67823(10) 0.21339(14)
H7_4 H 0.6313 0.6577 0.1804
H8_4 H 0.6750 0.6925 0.2456
C9_4 C 0.7419(4) 0.78090(12) 0.08093(18)
H9_4 H 0.8237 0.7731 0.0629
C10_4 C 0.6881(3) 0.74306(11) 0.11739(17)
H10_4 H 0.7335 0.7109 0.1241
C11_4 C 0.5683(3) 0.75332(10) 0.14327(14)
C12_4 C 0.5030(4) 0.80187(12) 0.13178(19)
H11_4 H 0.4207 0.8098 0.1494
C13_4 C 0.5595(3) 0.83715(12) 0.09520(17)
H12_4 H 0.5125 0.8689 0.0868
N1_4 N 0.3364(3) 0.44486(8) 0.06355(12)
O1_4 O 0.4884(2) 0.57411(8) 0.17445(11)
O2_4 O 0.5028(2) 0.71903(7) 0.18004(10)
C22_4 C 0.5218(3) 0.45729(13) 0.41978(18)
H17_4 H 0.4545 0.4355 0.4340
C23_4 C 0.4710(4) 0.50016(13) 0.3830(2)
H18_4 H 0.3713 0.5069 0.3719
C24_4 C 0.5692(3) 0.53329(10) 0.36262(14)
C25_4 C 0.7186(3) 0.52237(10) 0.38084(15)
H19_4 H 0.7879 0.5446 0.3690
C26_4 C 0.7595(3) 0.47761(11) 0.41689(15)
H20_4 H 0.8584 0.4696 0.4283
C27_4 C 0.6037(3) 0.61059(10) 0.30004(15)
H21_4 H 0.6588 0.6311 0.3368
H22_4 H 0.6718 0.5928 0.2772
C28_4 C 0.4067(3) 0.67823(10) 0.28661(14)
H23_4 H 0.3687 0.6577 0.3196
H24_4 H 0.3250 0.6925 0.2544
C29_4 C 0.2581(4) 0.78090(12) 0.41907(18)
H25_4 H 0.1763 0.7731 0.4371
C30_4 C 0.3119(3) 0.74306(11) 0.38261(17)
H26_4 H 0.2665 0.7109 0.3759
C31_4 C 0.4317(3) 0.75332(10) 0.35673(14)
C32_4 C 0.4970(4) 0.80187(12) 0.36822(19)
H27_4 H 0.5793 0.8098 0.3506
C33_4 C 0.4405(3) 0.83715(12) 0.40480(17)
H28_4 H 0.4875 0.8689 0.4132
N3_4 N 0.6636(3) 0.44486(8) 0.43645(12)
O7_4 O 0.5116(2) 0.57411(8) 0.32555(11)
O8_4 O 0.4972(2) 0.71903(7) 0.31996(10)
O13_2 O 0.8235(2) 0.37377(8) 0.58037(11)
C18_4 C 0.1181(3) 0.41496(12) 0.89447(15)
C19_4 C 0.0287(3) 0.36752(11) 0.78447(15)
H15_4 H 0.0497 0.3363 0.8074
C20_4 C 0.0551(3) 0.41413(11) 0.81961(14)
C21_4 C 0.0257(4) 0.46154(12) 0.78530(15)
H16_4 H 0.0402 0.4926 0.8091
O5_4 O 0.1765(2) 0.37377(8) 0.91963(11)
O6_4 O 0.1079(4) 0.45428(11) 0.92832(14)
C38_4 C 0.8819(3) 0.41496(12) 0.60553(15)
C39_4 C 0.9713(3) 0.36752(11) 0.71553(15)
H31_4 H 0.9503 0.3363 0.6926
C40_4 C 0.9449(3) 0.41413(11) 0.68039(14)
C41_4 C 0.9743(4) 0.46154(12) 0.71470(15)
H32_4 H 0.9598 0.4926 0.6909
O14_4 O 0.8921(4) 0.45428(11) 0.57168(14)
loop_
_geom_bond_atom_site_label_1
_geom_bond_atom_site_label_2
_geom_bond_site_symmetry_1
_geom_bond_site_symmetry_2
C18 C20 1_555 1_555
C19 H15 1_555 1_555
C20 C19 1_555 1_555
C21 C20 1_555 1_555
H16 C21 1_555 1_555
O5 C18 1_555 1_555
O6 C18 1_555 1_555
C38 C40 1_555 1_555
C39 C19 1_555 1_555
H31 C39 1_555 1_555
C40 C39 1_555 1_555
C41 C21 1_555 1_555
H32 C41 1_555 1_555
O12 C38 1_555 1_555
O14 C38 1_555 1_555
Zn6 O12 1_555 1_555
C40 C41 1_555 1_555
H4 C5 1_555 1_555
N1 C1 1_555 1_555
Zn1 N1 1_555 1_555
N5 Zn1 1_555 1_555
C5 N1 1_555 1_555
O3 Zn1 1_555 1_555
C4 C3 1_555 1_555
H3 C4 1_555 1_555
C6 H5 1_555 1_555
H6 C6 1_555 1_555
C7 C6 1_555 1_555
O1 C3 1_555 1_555
H18 C23 1_555 1_555
C28 C7 1_555 1_555
H23 C28 1_555 1_555
H24 C28 1_555 1_555
C29 H25 1_555 1_555
C30 C29 1_555 1_555
H26 C30 1_555 1_555
C31 C30 1_555 1_555
C32 C31 1_555 1_555
C33 C32 1_555 1_555
H28 C33 1_555 1_555
N4 C29 1_555 1_555
O8 C28 1_555 1_555
Zn4 N4 1_555 1_555
C6 O1 1_555 1_555
C31 O8 1_555 1_555
C33 N4 1_555 1_555
C14 C16 1_555 1_555
C15 H13 1_555 1_555
C16 C15 1_555 1_555
O4 C14 1_555 1_555
C37 C15 1_555 1_555
H30 C37 1_555 1_555
Zn5 O9 1_555 1_555
H14 C17 1_555 1_555
H20 C26 1_555 1_555
C34 C36 1_555 1_555
C35 C17 1_555 1_555
H29 C35 1_555 1_555
C36 C35 1_555 1_555
N3 C22 1_555 1_555
N6 Zn6 1_555 1_555
O10 Zn6 1_555 1_555
O11 C34 1_555 1_555
Zn6 N3 1_555 1_555
C26 N3 1_555 1_555
H2 C2 1_555 1_555
C8 C7_2 1_555 1_555
H7 C8 1_555 1_555
H8 C8 1_555 1_555
C9 H9 1_555 1_555
C10 C9 1_555 1_555
H10 C10 1_555 1_555
C11 C10 1_555 1_555
C12 C11 1_555 1_555
C13 C12 1_555 1_555
H12 C13 1_555 1_555
N2 C9 1_555 1_555
O2 C8 1_555 1_555
C25 C24 1_555 1_555
H19 C25 1_555 1_555
C27 C7_2 1_555 1_555
H21 C27 1_555 1_555
H22 C27 1_555 1_555
O7 C24 1_555 1_555
Zn3 N2 1_555 1_555
C11 O2 1_555 1_555
C13 N2 1_555 1_555
C27 O7 1_555 1_555
C14_2 C16_2 1_555 1_555
C15_2 H13_2 1_555 1_555
C16_2 C15_2 1_555 1_555
C17_2 C16_2 1_555 1_555
H14_2 C17_2 1_555 1_555
O4_2 C14_2 1_555 1_555
C34_2 C36_2 1_555 1_555
C35_2 C17_2 1_555 1_555
H29_2 C35_2 1_555 1_555
C36_2 C35_2 1_555 1_555
C37_2 C15_2 1_555 1_555
H30_2 C37_2 1_555 1_555
O9_2 C34_2 1_555 1_555
O11_2 C34_2 1_555 1_555
Zn5_2 O9_2 1_555 1_555
C36_2 C37_2 1_555 1_555
C38_2 C40_2 1_555 1_555
H31_2 C39_2 1_555 1_555
C40_2 C39_2 1_555 1_555
H32_2 C41_2 1_555 1_555
O12_2 C38_2 1_555 1_555
O14_2 C38_2 1_555 1_555
Zn4 O12_2 1_555 1_555
C40_2 C41_2 1_555 1_555
C14_3 C16_3 1_555 1_555
C15_3 H13_3 1_555 1_555
C16_3 C15_3 1_555 1_555
C18_2 C20_2 1_555 1_555
C19_2 H15_2 1_555 1_555
C20_2 C19_2 1_555 1_555
C21_2 C20_2 1_555 1_555
H16_2 C21_2 1_555 1_555
O4_3 C14_3 1_555 1_555
O5_2 C18_2 1_555 1_555
O6_2 C18_2 1_555 1_555
C37_3 C15_3 1_555 1_555
H30_3 C37_3 1_555 1_555
C1_2 H1_2 1_555 1_555
C2_2 C1_2 1_555 1_555
H2_2 C2_2 1_555 1_555
C3_2 C2_2 1_555 1_555
C4_2 C3_2 1_555 1_555
H3_2 C4_2 1_555 1_555
C5_2 C4_2 1_555 1_555
H4_2 C5_2 1_555 1_555
C6_2 H5_2 1_555 1_555
H6_2 C6_2 1_555 1_555
C7_3 C6_2 1_555 1_555
C8_2 C7_3 1_555 1_555
H7_2 C8_2 1_555 1_555
H8_2 C8_2 1_555 1_555
C9_2 H9_2 1_555 1_555
C10_2 C9_2 1_555 1_555
H10_2 C10_2 1_555 1_555
C11_2 C10_2 1_555 1_555
C12_2 C11_2 1_555 1_555
H11_2 C12_2 1_555 1_555
C13_2 C12_2 1_555 1_555
H12_2 C13_2 1_555 1_555
H14_3 C17_3 1_555 1_555
N1_2 C1_2 1_555 1_555
N5 C9_2 1_555 1_555
O1_2 C3_2 1_555 1_555
O2_2 C8_2 1_555 1_555
Zn3 N1_2 1_555 1_555
C22_2 H17_2 1_555 1_555
C23_2 C22_2 1_555 1_555
H18_2 C23_2 1_555 1_555
C24_2 C23_2 1_555 1_555
C25_2 C24_2 1_555 1_555
H19_2 C25_2 1_555 1_555
C26_2 C25_2 1_555 1_555
H20_2 C26_2 1_555 1_555
C27_2 C7_3 1_555 1_555
H21_2 C27_2 1_555 1_555
H22_2 C27_2 1_555 1_555
C28_2 C7_3 1_555 1_555
H23_2 C28_2 1_555 1_555
H24_2 C28_2 1_555 1_555
C29_2 H25_2 1_555 1_555
C30_2 C29_2 1_555 1_555
H26_2 C30_2 1_555 1_555
C31_2 C30_2 1_555 1_555
C32_2 C31_2 1_555 1_555
H27_2 C32_2 1_555 1_555
C33_2 C32_2 1_555 1_555
H28_2 C33_2 1_555 1_555
C34_3 C36_3 1_555 1_555
C35_3 C17_3 1_555 1_555
H29_3 C35_3 1_555 1_555
C36_3 C35_3 1_555 1_555
N3_2 C22_2 1_555 1_555
N6 C29_2 1_555 1_555
O7_2 C24_2 1_555 1_555
O8_2 C28_2 1_555 1_555
O10_2 Zn4 1_555 1_555
O11_3 C34_3 1_555 1_555
Zn4 N3_2 1_555 1_555
C5_2 N1_2 1_555 1_555
C6_2 O1_2 1_555 1_555
C11_2 O2_2 1_555 1_555
C13_2 N5 1_555 1_555
O3_2 Zn3 1_555 1_555
C26_2 N3_2 1_555 1_555
C27_2 O7_2 1_555 1_555
C31_2 O8_2 1_555 1_555
C33_2 N6 1_555 1_555
Zn5_3 O9_3 1_555 1_555
Zn5_4 O9_4 1_555 1_555
C14_4 C16_4 1_555 1_555
C15_4 H13_4 1_555 1_555
C16_4 C15_4 1_555 1_555
C17_4 C16_4 1_555 1_555
H14_4 C17_4 1_555 1_555
O10_2 C14_4 1_555 1_555
O4_4 C14_4 1_555 1_555
C34_4 C36_4 1_555 1_555
C35_4 C17_4 1_555 1_555
H29_4 C35_4 1_555 1_555
C36_4 C35_4 1_555 1_555
C37_4 C15_4 1_555 1_555
H30_4 C37_4 1_555 1_555
O11_4 C34_4 1_555 1_555
C36_4 C37_4 1_555 1_555
H2_3 C2_3 1_555 1_555
C8_3 C7_4 1_555 1_555
H7_3 C8_3 1_555 1_555
H8_3 C8_3 1_555 1_555
C9_3 H9_3 1_555 1_555
C10_3 C9_3 1_555 1_555
H10_3 C10_3 1_555 1_555
C11_3 C10_3 1_555 1_555
C12_3 C11_3 1_555 1_555
C13_3 C12_3 1_555 1_555
H12_3 C13_3 1_555 1_555
N2_2 C9_3 1_555 1_555
O2_3 C8_3 1_555 1_555
C25_3 C24_3 1_555 1_555
H19_3 C25_3 1_555 1_555
C27_3 C7_4 1_555 1_555
H21_3 C27_3 1_555 1_555
H22_3 C27_3 1_555 1_555
O7_3 C24_3 1_555 1_555
Zn5 N2_2 1_555 1_555
C11_3 O2_3 1_555 1_555
C13_3 N2_2 1_555 1_555
C27_3 O7_3 1_555 1_555
H20_3 C26_3 1_555 1_555
N3_3 C22_3 1_555 1_555
N6_2 Zn5_4 1_555 1_555
O13 Zn5_4 1_555 1_555
Zn5_4 N3_3 1_555 1_555
C26_3 N3_3 1_555 1_555
C4_3 C3_3 1_555 1_555
H3_3 C4_3 1_555 1_555
C6_3 H5_3 1_555 1_555
H6_3 C6_3 1_555 1_555
C7_5 C6_3 1_555 1_555
O1_3 C3_3 1_555 1_555
H18_3 C23_3 1_555 1_555
C28_3 C7_5 1_555 1_555
H23_3 C28_3 1_555 1_555
H24_3 C28_3 1_555 1_555
C29_3 H25_3 1_555 1_555
C30_3 C29_3 1_555 1_555
H26_3 C30_3 1_555 1_555
C31_3 C30_3 1_555 1_555
C32_3 C31_3 1_555 1_555
C33_3 C32_3 1_555 1_555
H28_3 C33_3 1_555 1_555
N4_2 C29_3 1_555 1_555
O8_3 C28_3 1_555 1_555
Zn5_2 N4_2 1_555 1_555
C6_3 O1_3 1_555 1_555
C31_3 O8_3 1_555 1_555
C33_3 N4_2 1_555 1_555
H4_3 C5_3 1_555 1_555
N1_3 C1_3 1_555 1_555
Zn5_3 N1_3 1_555 1_555
N5_2 Zn5_3 1_555 1_555
C5_3 N1_3 1_555 1_555
C18_3 C20_3 1_555 1_555
C19_3 H15_3 1_555 1_555
C20_3 C19_3 1_555 1_555
C21_3 C20_3 1_555 1_555
H16_3 C21_3 1_555 1_555
O5_3 C18_3 1_555 1_555
O6_3 C18_3 1_555 1_555
C38_3 C40_3 1_555 1_555
C39_3 C19_3 1_555 1_555
H31_3 C39_3 1_555 1_555
C40_3 C39_3 1_555 1_555
C41_3 C21_3 1_555 1_555
H32_3 C41_3 1_555 1_555
O13 C38_3 1_555 1_555
O14_3 C38_3 1_555 1_555
C40_3 C41_3 1_555 1_555
C1_4 H1_4 1_555 1_555
C2_4 C1_4 1_555 1_555
H2_4 C2_4 1_555 1_555
C3_4 C2_4 1_555 1_555
C4_4 C3_4 1_555 1_555
H3_4 C4_4 1_555 1_555
C5_4 C4_4 1_555 1_555
H4_4 C5_4 1_555 1_555
C6_4 H5_4 1_555 1_555
H6_4 C6_4 1_555 1_555
C7_6 C6_4 1_555 1_555
C8_4 C7_6 1_555 1_555
H7_4 C8_4 1_555 1_555
H8_4 C8_4 1_555 1_555
C9_4 H9_4 1_555 1_555
C10_4 C9_4 1_555 1_555
H10_4 C10_4 1_555 1_555
C11_4 C10_4 1_555 1_555
C12_4 C11_4 1_555 1_555
H11_4 C12_4 1_555 1_555
C13_4 C12_4 1_555 1_555
H12_4 C13_4 1_555 1_555
N1_4 C1_4 1_555 1_555
N5_2 C9_4 1_555 1_555
O1_4 C3_4 1_555 1_555
O2_4 C8_4 1_555 1_555
Zn5 N1_4 1_555 1_555
C22_4 H17_4 1_555 1_555
C23_4 C22_4 1_555 1_555
H18_4 C23_4 1_555 1_555
C24_4 C23_4 1_555 1_555
C25_4 C24_4 1_555 1_555
H19_4 C25_4 1_555 1_555
C26_4 C25_4 1_555 1_555
H20_4 C26_4 1_555 1_555
C27_4 C7_6 1_555 1_555
H21_4 C27_4 1_555 1_555
H22_4 C27_4 1_555 1_555
C28_4 C7_6 1_555 1_555
H23_4 C28_4 1_555 1_555
H24_4 C28_4 1_555 1_555
C29_4 H25_4 1_555 1_555
C30_4 C29_4 1_555 1_555
H26_4 C30_4 1_555 1_555
C31_4 C30_4 1_555 1_555
C32_4 C31_4 1_555 1_555
H27_4 C32_4 1_555 1_555
C33_4 C32_4 1_555 1_555
H28_4 C33_4 1_555 1_555
N3_4 C22_4 1_555 1_555
N6_2 C29_4 1_555 1_555
O7_4 C24_4 1_555 1_555
O8_4 C28_4 1_555 1_555
O13_2 Zn5_2 1_555 1_555
Zn5_2 N3_4 1_555 1_555
C5_4 N1_4 1_555 1_555
C6_4 O1_4 1_555 1_555
C11_4 O2_4 1_555 1_555
C13_4 N5_2 1_555 1_555
C26_4 N3_4 1_555 1_555
C27_4 O7_4 1_555 1_555
C31_4 O8_4 1_555 1_555
C33_4 N6_2 1_555 1_555
C18_4 C20_4 1_555 1_555
C19_4 H15_4 1_555 1_555
C20_4 C19_4 1_555 1_555
C21_4 C20_4 1_555 1_555
H16_4 C21_4 1_555 1_555
O5_4 C18_4 1_555 1_555
O6_4 C18_4 1_555 1_555
C38_4 C40_4 1_555 1_555
H31_4 C39_4 1_555 1_555
C40_4 C39_4 1_555 1_555
H32_4 C41_4 1_555 1_555
O13_2 C38_4 1_555 1_555
O14_4 C38_4 1_555 1_555
C40_4 C41_4 1_555 1_555

#END
