
###############################################################################
#
# This file contains modified crystal structure data generated from the
# MOF subset of the Cambridge Structural Database (CSD) v543 
# hosted by the Cambridge Crystallographic Data Centre (CCDC).
#
# This work is licensed under the Creative Commons
# Attribution-NonCommercial-ShareAlike 4.0 International License.
# To view a copy of this license, visit
# http://creativecommons.org/licenses/by-nc-sa/4.0/
# or send a letter to
# Creative Commons, PO Box 1866, Mountain View, CA 94042, USA.
#
# CIF created using the CSD Python API on 29 September 2022
# The structure has been converted into the P1 space group
# The structure has a 3D framework
# The original CSD entry YUZYAW is in the monoclinic crystal system
# The framework has been calculated to contain at least 10.0% void space
# The void calculation uses a probe of radius 1.32A, grid spacing 0.4
#
###############################################################################

data_YUZYAW
_chemical_formula_moiety         '(C232 H132 Ba13 O66)n'
_symmetry_cell_setting           triclinic
_symmetry_space_group_name_H-M   'P 1'
_symmetry_Int_Tables_number      1
_space_group_name_Hall           'P 1'
loop_
_symmetry_equiv_pos_site_id
_symmetry_equiv_pos_as_xyz
1 x,y,z
_cell_length_a                   30.7615(16)
_cell_length_b                   11.9378(6)
_cell_length_c                   25.851(2)
_cell_angle_alpha                90
_cell_angle_beta                 122.4480(10)
_cell_angle_gamma                90
_cell_volume                     8011.05
loop_
_atom_site_label
_atom_site_type_symbol
_atom_site_fract_x
_atom_site_fract_y
_atom_site_fract_z
C8 C 0.28802(14) 0.0029(3) 0.51758(15)
C9 C 0.32532(14) 0.1056(3) 0.54045(15)
C10 C 0.33051(15) 0.1805(3) 0.58398(16)
H5 H 0.306758 0.178444 0.596762
C11 C 0.36978(17) 0.2585(4) 0.60927(18)
H6 H 0.372504 0.308827 0.639364
C12 C 0.40496(15) 0.2657(4) 0.59229(17)
C13 C 0.45042(19) 0.3455(4) 0.6249(2)
C14 C 0.39854(16) 0.1943(4) 0.54571(17)
H7 H 0.421144 0.200018 0.531368
C15 C 0.35936(14) 0.1155(4) 0.52041(16)
H8 H 0.355533 0.067338 0.488959
C16 C 0.24598(14) 0.0091(3) 0.44808(15)
C17 C 0.24537(14) 0.0897(3) 0.40914(15)
H9 H 0.271920 0.144417 0.424935
C18 C 0.20654(14) 0.0918(4) 0.34733(16)
H10 H 0.207374 0.146536 0.321190
C19 C 0.16664(14) 0.0148(3) 0.32352(15)
C20 C 0.12309(15) 0.0202(4) 0.25722(16)
C28 C 0.19469(15) 0.0770(4) 0.56765(17)
H15 H 0.169182 0.132289 0.557837
C29 C 0.22088(15) 0.0761(4) 0.53754(17)
H16 H 0.212457 0.130274 0.506594
O3 O 0.47927(13) 0.3522(3) 0.60388(15)
O4 O 0.45809(14) 0.3921(3) 0.67152(15)
O6 O 0.12871(10) 0.0798(3) 0.22085(11)
O7 O 0.14207(13) 0.0610(3) 0.62963(16)
Ba7 Ba 0.500000 0.56353(3) 0.750000
Ba9 Ba 0.04236(2) 0.01698(2) 0.61280(2)
Ba13 Ba 0.54236(2) 0.51698(2) 0.61280(2)
O23 O 0.02073(13) 0.1478(3) 0.39612(15)
O25 O 0.04191(14) 0.1079(3) 0.32848(15)
O30 O 0.0428(3) 0.0833(7) 0.5106(3)
O43 O 0.08263(10) 0.0319(3) 0.74076(11)
O33 O 0.02812(11) 0.1290(3) 0.86545(11)
O34 O 0.05870(12) 0.1026(3) 0.96409(12)
Ba17 Ba -0.000000 0.06353(3) 0.750000
Ba1 Ba -0.000000 0.93647(3) 0.250000
Ba2 Ba 0.04236(2) 0.98302(2) 0.11280(2)
C1 C 0.43921(15) 0.6481(4) 0.57880(17)
C2 C 0.39769(14) 0.7322(3) 0.56242(16)
C3 C 0.40323(15) 0.8075(4) 0.60659(16)
H1 H 0.432065 0.801688 0.647472
C4 C 0.36728(15) 0.8903(4) 0.59156(15)
H2 H 0.372097 0.942118 0.622120
C5 C 0.32367(14) 0.8999(3) 0.53207(15)
C6 C 0.31756(14) 0.8226(3) 0.48917(15)
H3 H 0.287564 0.825063 0.448991
C7 C 0.35472(16) 0.7409(4) 0.50384(16)
H4 H 0.350447 0.690436 0.473035
C21 C 0.16640(14) 0.9354(4) 0.36234(15)
H11 H 0.139068 0.882685 0.346761
C22 C 0.20553(14) 0.9321(4) 0.42357(16)
H12 H 0.204889 0.876372 0.449407
C23 C 0.25941(14) 0.9972(3) 0.55176(16)
C24 C 0.26958(16) 0.9162(4) 0.59561(17)
H13 H 0.294644 0.859972 0.605071
C25 C 0.24327(17) 0.9171(4) 0.62559(18)
H14 H 0.251198 0.861857 0.655876
C26 C 0.20589(15) 0.9961(4) 0.61260(18)
C27 C 0.17872(16) 0.9969(4) 0.6469(2)
O1 O 0.47188(11) 0.6290(3) 0.63455(11)
O2 O 0.44130(12) 0.6026(3) 0.53591(12)
O5 O 0.08263(10) 0.9681(3) 0.24076(11)
O8 O 0.19358(12) 0.9240(3) 0.68856(14)
O9 O 0.0428(3) 0.9167(7) 0.0106(3)
H17 H 0.068304 0.899200 0.028904
O19 O 0.02812(11) 0.8710(3) 0.36545(11)
O21 O 0.05870(12) 0.8974(3) 0.46409(12)
O28 O 0.14207(13) 0.9390(3) 0.12963(16)
C65 C 0.18244(14) 0.3226(3) 0.01083(15)
H37 H 0.212436 0.325063 0.051009
H38 H 0.149553 0.190436 0.026965
C68 C 0.25402(14) 0.5091(3) 0.05192(15)
H42 H 0.144467 0.567338 0.011041
C76 C 0.25463(14) 0.5897(3) 0.09086(15)
C77 C 0.29447(14) 0.4321(4) 0.07643(16)
H43 H 0.228080 0.644417 0.075065
C78 C 0.29346(14) 0.5918(4) 0.15267(16)
H44 H 0.292626 0.646536 0.178810
C79 C 0.33336(14) 0.5148(3) 0.17648(15)
C80 C 0.37691(15) 0.5202(4) 0.24278(16)
C81 C 0.33360(14) 0.4354(4) 0.13766(15)
O39 O 0.41737(10) 0.4681(3) 0.25924(11)
O40 O 0.37129(10) 0.5798(3) 0.27915(11)
H45 H 0.360932 0.382685 0.153239
H46 H 0.295111 0.376372 0.050593
Ba14 Ba 0.45764(2) 0.48302(2) 0.38720(2)
Ba19 Ba 0.500000 0.43647(3) 0.250000
O44 O 0.12871(10) 0.9202(3) 0.72085(11)
O48 O 0.58263(10) 0.4681(3) 0.24076(11)
O49 O 0.47188(11) 0.3710(3) 0.13455(11)
O50 O 0.52812(11) 0.3710(3) 0.36545(11)
O51 O 0.45809(14) 0.6079(3) 0.17152(15)
O52 O 0.54191(14) 0.6079(3) 0.32848(15)
O35 O 0.02073(13) 0.8522(3) 0.89612(15)
C59 C 0.06079(15) 0.1481(4) 0.92120(17)
C60 C 0.10231(14) 0.2322(3) 0.93758(16)
C61 C 0.09677(15) 0.3075(4) 0.89341(16)
C62 C 0.14528(16) 0.2409(4) 0.99616(16)
H35 H 0.067935 0.301688 0.852528
C63 C 0.13272(15) 0.3903(4) 0.90844(15)
H36 H 0.127903 0.442118 0.877880
C64 C 0.17633(14) 0.3999(3) 0.96793(15)
C66 C 0.21198(14) 0.5029(3) 0.98242(15)
C67 C 0.17468(14) 0.6056(3) 0.95955(15)
C69 C 0.24059(14) 0.4972(3) 0.94824(16)
C70 C 0.16949(15) 0.6805(3) 0.91602(16)
C71 C 0.14064(14) 0.6155(4) 0.97959(16)
H39 H 0.193242 0.678444 0.903238
C72 C 0.13022(17) 0.7585(4) 0.89073(18)
H40 H 0.127496 0.808827 0.860636
C73 C 0.09504(15) 0.7657(4) 0.90771(17)
C74 C 0.04958(19) 0.8455(4) 0.8751(2)
C75 C 0.10146(16) 0.6943(4) 0.95429(17)
O38 O 0.04191(14) 0.8921(3) 0.82848(15)
H41 H 0.078856 0.700018 0.968632
C82 C 0.23042(16) 0.4162(4) 0.90439(17)
C83 C 0.27912(15) 0.5761(4) 0.96246(17)
H47 H 0.205356 0.359972 0.894929
C84 C 0.25673(17) 0.4171(4) 0.87441(18)
H48 H 0.248802 0.361857 0.844124
C85 C 0.29411(15) 0.4961(4) 0.88740(18)
C86 C 0.32128(16) 0.4969(4) 0.8531(2)
C87 C 0.30531(15) 0.5770(4) 0.93235(17)
O41 O 0.35793(13) 0.5610(3) 0.87037(16)
O42 O 0.30642(12) 0.4240(3) 0.81144(14)
H49 H 0.330818 0.632289 0.942163
H50 H 0.287543 0.630274 0.993406
Ba18 Ba 0.45764(2) 0.51698(2) 0.88720(2)
H25 H 0.644467 0.067338 0.011041
C45 C 0.75402(14) 0.0091(3) 0.05192(15)
C46 C 0.75463(14) 0.0897(3) 0.09086(15)
H26 H 0.728080 0.144417 0.075065
C47 C 0.79346(14) 0.0918(4) 0.15267(16)
H27 H 0.792626 0.146536 0.178810
C48 C 0.83336(14) 0.0148(3) 0.17648(15)
C49 C 0.87691(15) 0.0202(4) 0.24278(16)
O15 O 0.87129(10) 0.0798(3) 0.27915(11)
O24 O 0.97927(13) 0.1478(3) 0.10388(15)
O26 O 0.95809(14) 0.1079(3) 0.17152(15)
O45 O 0.97188(11) 0.1290(3) 0.63455(11)
O46 O 0.94130(12) 0.1026(3) 0.53591(12)
C37 C 0.71198(14) 0.0029(3) 0.98242(15)
C38 C 0.67468(14) 0.1056(3) 0.95955(15)
C39 C 0.66949(15) 0.1805(3) 0.91602(16)
H22 H 0.693242 0.178444 0.903238
C40 C 0.63022(17) 0.2585(4) 0.89073(18)
H23 H 0.627496 0.308827 0.860636
C41 C 0.59504(15) 0.2657(4) 0.90771(17)
C42 C 0.54958(19) 0.3455(4) 0.8751(2)
C43 C 0.60146(16) 0.1943(4) 0.95429(17)
H24 H 0.578856 0.200018 0.968632
C44 C 0.64064(14) 0.1155(4) 0.97959(16)
C57 C 0.80531(15) 0.0770(4) 0.93235(17)
H32 H 0.830818 0.132289 0.942163
C58 C 0.77912(15) 0.0761(4) 0.96246(17)
H33 H 0.787543 0.130274 0.993406
O12 O 0.52073(13) 0.3522(3) 0.89612(15)
O13 O 0.54191(14) 0.3921(3) 0.82848(15)
O16 O 0.85793(13) 0.0610(3) 0.87037(16)
Ba8 Ba 0.95764(2) 0.01698(2) 0.88720(2)
O29 O 0.9572(3) 0.0833(7) 0.9894(3)
O31 O 0.91737(10) 0.0319(3) 0.75924(11)
Ba17_2 Ba 1.000000 0.06353(3) 0.750000
Ba1_2 Ba 1.000000 0.93647(3) 0.250000
Ba3 Ba 0.95764(2) 0.98302(2) 0.38720(2)
C35 C 0.68244(14) 0.8226(3) 0.01083(15)
H20 H 0.712436 0.825063 0.051009
H21 H 0.649553 0.690436 0.026965
C50 C 0.83360(14) 0.9354(4) 0.13766(15)
H28 H 0.860932 0.882685 0.153239
C51 C 0.79447(14) 0.9321(4) 0.07643(16)
H29 H 0.795111 0.876372 0.050593
O14 O 0.91737(10) 0.9681(3) 0.25924(11)
O18 O 0.9572(3) 0.9167(7) 0.4894(3)
H34 H 0.931696 0.899200 0.471096
O20 O 0.97188(11) 0.8710(3) 0.13455(11)
O22 O 0.94130(12) 0.8974(3) 0.03591(12)
O27 O 0.85793(13) 0.9390(3) 0.37037(16)
O47 O 0.97927(13) 0.8522(3) 0.60388(15)
C30 C 0.56079(15) 0.6481(4) 0.92120(17)
C31 C 0.60231(14) 0.7322(3) 0.93758(16)
C32 C 0.59677(15) 0.8075(4) 0.89341(16)
H18 H 0.567935 0.801688 0.852528
C33 C 0.63272(15) 0.8903(4) 0.90844(15)
H19 H 0.627903 0.942118 0.877880
C34 C 0.67633(14) 0.8999(3) 0.96793(15)
C36 C 0.64528(16) 0.7409(4) 0.99616(16)
C52 C 0.74059(14) 0.9972(3) 0.94824(16)
C53 C 0.73042(16) 0.9162(4) 0.90439(17)
H30 H 0.705356 0.859972 0.894929
C54 C 0.75673(17) 0.9171(4) 0.87441(18)
H31 H 0.748802 0.861857 0.844124
C55 C 0.79411(15) 0.9961(4) 0.88740(18)
C56 C 0.82128(16) 0.9969(4) 0.8531(2)
O10 O 0.52812(11) 0.6290(3) 0.86545(11)
O11 O 0.55870(12) 0.6026(3) 0.96409(12)
O17 O 0.80642(12) 0.9240(3) 0.81144(14)
O32 O 0.87129(10) 0.9202(3) 0.77915(11)
C59_2 C 0.93921(15) 0.1481(4) 0.57880(17)
C60_2 C 0.89769(14) 0.2322(3) 0.56242(16)
C61_2 C 0.90323(15) 0.3075(4) 0.60659(16)
C62_2 C 0.85472(16) 0.2409(4) 0.50384(16)
H35_2 H 0.932065 0.301688 0.647472
C63_2 C 0.86728(15) 0.3903(4) 0.59156(15)
H36_2 H 0.872097 0.442118 0.622120
C64_2 C 0.82367(14) 0.3999(3) 0.53207(15)
C65_2 C 0.81756(14) 0.3226(3) 0.48917(15)
C66_2 C 0.78802(14) 0.5029(3) 0.51758(15)
H37_2 H 0.787564 0.325063 0.448991
H38_2 H 0.850447 0.190436 0.473035
C67_2 C 0.82532(14) 0.6056(3) 0.54045(15)
C68_2 C 0.74598(14) 0.5091(3) 0.44808(15)
C69_2 C 0.75941(14) 0.4972(3) 0.55176(16)
C70_2 C 0.83051(15) 0.6805(3) 0.58398(16)
C71_2 C 0.85936(14) 0.6155(4) 0.52041(16)
H39_2 H 0.806758 0.678444 0.596762
C72_2 C 0.86978(17) 0.7585(4) 0.60927(18)
H40_2 H 0.872504 0.808827 0.639364
C73_2 C 0.90496(15) 0.7657(4) 0.59229(17)
C74_2 C 0.95042(19) 0.8455(4) 0.6249(2)
C75_2 C 0.89854(16) 0.6943(4) 0.54571(17)
O38_2 O 0.95809(14) 0.8921(3) 0.67152(15)
H41_2 H 0.921144 0.700018 0.531368
H42_2 H 0.855533 0.567338 0.488959
C76_2 C 0.74537(14) 0.5897(3) 0.40914(15)
C77_2 C 0.70553(14) 0.4321(4) 0.42357(16)
H43_2 H 0.771920 0.644417 0.424935
C78_2 C 0.70654(14) 0.5918(4) 0.34733(16)
H44_2 H 0.707374 0.646536 0.321190
C79_2 C 0.66664(14) 0.5148(3) 0.32352(15)
C80_2 C 0.62309(15) 0.5202(4) 0.25722(16)
C81_2 C 0.66640(14) 0.4354(4) 0.36234(15)
O40_2 O 0.62871(10) 0.5798(3) 0.22085(11)
H45_2 H 0.639068 0.382685 0.346761
H46_2 H 0.704889 0.376372 0.449407
C82_2 C 0.76958(16) 0.4162(4) 0.59561(17)
C83_2 C 0.72088(15) 0.5761(4) 0.53754(17)
H47_2 H 0.794644 0.359972 0.605071
C84_2 C 0.74327(17) 0.4171(4) 0.62559(18)
H48_2 H 0.751198 0.361857 0.655876
C85_2 C 0.70589(15) 0.4961(4) 0.61260(18)
C86_2 C 0.67872(16) 0.4969(4) 0.6469(2)
C87_2 C 0.69469(15) 0.5770(4) 0.56765(17)
O41_2 O 0.64207(13) 0.5610(3) 0.62963(16)
O42_2 O 0.69358(12) 0.4240(3) 0.68856(14)
H49_2 H 0.669182 0.632289 0.557837
H50_2 H 0.712457 0.630274 0.506594
Ba14_2 Ba 0.54236(2) 0.48302(2) 0.11280(2)
O9_2 O 0.5428(3) 0.4167(7) 0.0106(3)
H17_2 H 0.568304 0.399200 0.028904
O18_2 O 0.4572(3) 0.4167(7) 0.4894(3)
H34_2 H 0.431696 0.399200 0.471096
O21_2 O 0.55870(12) 0.3974(3) 0.46409(12)
O22_2 O 0.44130(12) 0.3974(3) 0.03591(12)
O23_2 O 0.52073(13) 0.6478(3) 0.39612(15)
O24_2 O 0.47927(13) 0.6478(3) 0.10388(15)
O27_2 O 0.35793(13) 0.4390(3) 0.37037(16)
O28_2 O 0.64207(13) 0.4390(3) 0.12963(16)
O30_2 O 0.5428(3) 0.5833(7) 0.5106(3)
O43_2 O 0.58263(10) 0.5319(3) 0.74076(11)
O44_2 O 0.62871(10) 0.4202(3) 0.72085(11)
O29_2 O 0.4572(3) 0.5833(7) 0.9894(3)
O31_2 O 0.41737(10) 0.5319(3) 0.75924(11)
O32_2 O 0.37129(10) 0.4202(3) 0.77915(11)
C30_2 C 0.43921(15) 0.3519(4) 0.07880(17)
C31_2 C 0.39769(14) 0.2678(3) 0.06242(16)
C32_2 C 0.40323(15) 0.1925(4) 0.10659(16)
H18_2 H 0.432065 0.198312 0.147472
C33_2 C 0.36728(15) 0.1097(4) 0.09156(15)
H19_2 H 0.372097 0.057882 0.122120
C34_2 C 0.32367(14) 0.1001(3) 0.03207(15)
C36_2 C 0.35472(16) 0.2591(4) 0.00384(16)
C52_2 C 0.25941(14) 0.0028(3) 0.05176(16)
C53_2 C 0.26958(16) 0.0838(4) 0.09561(17)
H30_2 H 0.294644 0.140028 0.105071
C54_2 C 0.24327(17) 0.0829(4) 0.12559(18)
H31_2 H 0.251198 0.138143 0.155876
C55_2 C 0.20589(15) 0.0039(4) 0.11260(18)
C56_2 C 0.17872(16) 0.0031(4) 0.1469(2)
O17_2 O 0.19358(12) 0.0760(3) 0.18856(14)
C35_2 C 0.31756(14) 0.1774(3) 0.98917(15)
H20_2 H 0.287564 0.174937 0.948991
H21_2 H 0.350447 0.309564 0.973035
C50_2 C 0.16640(14) 0.0646(4) 0.86234(15)
H28_2 H 0.139068 0.117315 0.846761
C51_2 C 0.20553(14) 0.0679(4) 0.92357(16)
H29_2 H 0.204889 0.123628 0.949407
H34_3 H 0.068304 0.100800 0.528904
C37_2 C 0.28802(14) 0.9971(3) 0.01758(15)
C38_2 C 0.32532(14) 0.8944(3) 0.04045(15)
C39_2 C 0.33051(15) 0.8195(3) 0.08398(16)
H22_2 H 0.306758 0.821556 0.096762
C40_2 C 0.36978(17) 0.7415(4) 0.10927(18)
H23_2 H 0.372504 0.691173 0.139364
C41_2 C 0.40496(15) 0.7343(4) 0.09229(17)
C42_2 C 0.45042(19) 0.6545(4) 0.1249(2)
C43_2 C 0.39854(16) 0.8057(4) 0.04571(17)
H24_2 H 0.421144 0.799982 0.031368
C44_2 C 0.35936(14) 0.8845(4) 0.02041(16)
C57_2 C 0.19469(15) 0.9230(4) 0.06765(17)
H32_2 H 0.169182 0.867711 0.057837
C58_2 C 0.22088(15) 0.9239(4) 0.03754(17)
H33_2 H 0.212457 0.869726 0.006594
H25_2 H 0.355533 0.932662 0.988959
C45_2 C 0.24598(14) 0.9909(3) 0.94808(15)
C46_2 C 0.24537(14) 0.9103(3) 0.90914(15)
H26_2 H 0.271920 0.855583 0.924935
C47_2 C 0.20654(14) 0.9082(4) 0.84733(16)
H27_2 H 0.207374 0.853464 0.821190
C48_2 C 0.16664(14) 0.9852(3) 0.82352(15)
C49_2 C 0.12309(15) 0.9798(4) 0.75722(16)
C59_3 C 0.93921(15) 0.8519(4) 0.07880(17)
C60_3 C 0.89769(14) 0.7678(3) 0.06242(16)
C61_3 C 0.90323(15) 0.6925(4) 0.10659(16)
C62_3 C 0.85472(16) 0.7591(4) 0.00384(16)
H35_3 H 0.932065 0.698312 0.147472
C63_3 C 0.86728(15) 0.6097(4) 0.09156(15)
H36_3 H 0.872097 0.557882 0.122120
C64_3 C 0.82367(14) 0.6001(3) 0.03207(15)
C66_3 C 0.78802(14) 0.4971(3) 0.01758(15)
C67_3 C 0.82532(14) 0.3944(3) 0.04045(15)
C69_3 C 0.75941(14) 0.5028(3) 0.05176(16)
C70_3 C 0.83051(15) 0.3195(3) 0.08398(16)
C71_3 C 0.85936(14) 0.3845(4) 0.02041(16)
H39_3 H 0.806758 0.321556 0.096762
C72_3 C 0.86978(17) 0.2415(4) 0.10927(18)
H40_3 H 0.872504 0.191173 0.139364
C73_3 C 0.90496(15) 0.2343(4) 0.09229(17)
C74_3 C 0.95042(19) 0.1545(4) 0.1249(2)
C75_3 C 0.89854(16) 0.3057(4) 0.04571(17)
H41_3 H 0.921144 0.299982 0.031368
C82_3 C 0.76958(16) 0.5838(4) 0.09561(17)
C83_3 C 0.72088(15) 0.4239(4) 0.03754(17)
H47_3 H 0.794644 0.640028 0.105071
C84_3 C 0.74327(17) 0.5829(4) 0.12559(18)
H48_3 H 0.751198 0.638143 0.155876
C85_3 C 0.70589(15) 0.5039(4) 0.11260(18)
C86_3 C 0.67872(16) 0.5031(4) 0.1469(2)
C87_3 C 0.69469(15) 0.4230(4) 0.06765(17)
O42_3 O 0.69358(12) 0.5760(3) 0.18856(14)
H49_3 H 0.669182 0.367711 0.057837
H50_3 H 0.712457 0.369726 0.006594
C1_2 C 0.56079(15) 0.3519(4) 0.42120(17)
C2_2 C 0.60231(14) 0.2678(3) 0.43758(16)
C3_2 C 0.59677(15) 0.1925(4) 0.39341(16)
H1_2 H 0.567935 0.198312 0.352528
C4_2 C 0.63272(15) 0.1097(4) 0.40844(15)
H2_2 H 0.627903 0.057882 0.377880
C5_2 C 0.67633(14) 0.1001(3) 0.46793(15)
C6_2 C 0.68244(14) 0.1774(3) 0.51083(15)
H3_2 H 0.712436 0.174937 0.551009
C7_2 C 0.64528(16) 0.2591(4) 0.49616(16)
H4_2 H 0.649553 0.309564 0.526965
C21_2 C 0.83360(14) 0.0646(4) 0.63766(15)
H11_2 H 0.860932 0.117315 0.653239
C22_2 C 0.79447(14) 0.0679(4) 0.57643(16)
H12_2 H 0.795111 0.123628 0.550593
C23_2 C 0.74059(14) 0.0028(3) 0.44824(16)
C24_2 C 0.73042(16) 0.0838(4) 0.40439(17)
H13_2 H 0.705356 0.140028 0.394929
C25_2 C 0.75673(17) 0.0829(4) 0.37441(18)
H14_2 H 0.748802 0.138143 0.344124
C26_2 C 0.79411(15) 0.0039(4) 0.38740(18)
C27_2 C 0.82128(16) 0.0031(4) 0.3531(2)
O8_2 O 0.80642(12) 0.0760(3) 0.31144(14)
H17_3 H 0.931696 0.100800 0.971096
C65_3 C 0.81756(14) 0.6774(3) 0.98917(15)
H37_3 H 0.787564 0.674937 0.948991
H38_3 H 0.850447 0.809564 0.973035
C68_3 C 0.74598(14) 0.4909(3) 0.94808(15)
H42_3 H 0.855533 0.432662 0.988959
C76_3 C 0.74537(14) 0.4103(3) 0.90914(15)
C77_3 C 0.70553(14) 0.5679(4) 0.92357(16)
H43_3 H 0.771920 0.355583 0.924935
C78_3 C 0.70654(14) 0.4082(4) 0.84733(16)
H44_3 H 0.707374 0.353464 0.821190
C79_3 C 0.66664(14) 0.4852(3) 0.82352(15)
C80_3 C 0.62309(15) 0.4798(4) 0.75722(16)
C81_3 C 0.66640(14) 0.5646(4) 0.86234(15)
H45_3 H 0.639068 0.617315 0.846761
H46_3 H 0.704889 0.623628 0.949407
C8_2 C 0.71198(14) 0.9971(3) 0.48242(15)
C9_2 C 0.67468(14) 0.8944(3) 0.45955(15)
C10_2 C 0.66949(15) 0.8195(3) 0.41602(16)
H5_2 H 0.693242 0.821556 0.403238
C11_2 C 0.63022(17) 0.7415(4) 0.39073(18)
H6_2 H 0.627496 0.691173 0.360636
C12_2 C 0.59504(15) 0.7343(4) 0.40771(17)
C13_2 C 0.54958(19) 0.6545(4) 0.3751(2)
C14_2 C 0.60146(16) 0.8057(4) 0.45429(17)
H7_2 H 0.578856 0.799982 0.468632
C15_2 C 0.64064(14) 0.8845(4) 0.47959(16)
H8_2 H 0.644467 0.932662 0.511041
C16_2 C 0.75402(14) 0.9909(3) 0.55192(15)
C17_2 C 0.75463(14) 0.9103(3) 0.59086(15)
H9_2 H 0.728080 0.855583 0.575065
C18_2 C 0.79346(14) 0.9082(4) 0.65267(16)
H10_2 H 0.792626 0.853464 0.678810
C19_2 C 0.83336(14) 0.9852(3) 0.67648(15)
C20_2 C 0.87691(15) 0.9798(4) 0.74278(16)
C28_2 C 0.80531(15) 0.9230(4) 0.43235(17)
H15_2 H 0.830818 0.867711 0.442163
C29_2 C 0.77912(15) 0.9239(4) 0.46246(17)
H16_2 H 0.787543 0.869726 0.493406
C59_4 C 0.06079(15) 0.8519(4) 0.42120(17)
C60_4 C 0.10231(14) 0.7678(3) 0.43758(16)
C61_4 C 0.09677(15) 0.6925(4) 0.39341(16)
C62_4 C 0.14528(16) 0.7591(4) 0.49616(16)
H35_4 H 0.067935 0.698312 0.352528
C63_4 C 0.13272(15) 0.6097(4) 0.40844(15)
H36_4 H 0.127903 0.557882 0.377880
C64_4 C 0.17633(14) 0.6001(3) 0.46793(15)
C65_4 C 0.18244(14) 0.6774(3) 0.51083(15)
C66_4 C 0.21198(14) 0.4971(3) 0.48242(15)
H37_4 H 0.212436 0.674937 0.551009
H38_4 H 0.149553 0.809564 0.526965
C67_4 C 0.17468(14) 0.3944(3) 0.45955(15)
C68_4 C 0.25402(14) 0.4909(3) 0.55192(15)
C69_4 C 0.24059(14) 0.5028(3) 0.44824(16)
C70_4 C 0.16949(15) 0.3195(3) 0.41602(16)
C71_4 C 0.14064(14) 0.3845(4) 0.47959(16)
H39_4 H 0.193242 0.321556 0.403238
C72_4 C 0.13022(17) 0.2415(4) 0.39073(18)
H40_4 H 0.127496 0.191173 0.360636
C73_4 C 0.09504(15) 0.2343(4) 0.40771(17)
C74_4 C 0.04958(19) 0.1545(4) 0.3751(2)
C75_4 C 0.10146(16) 0.3057(4) 0.45429(17)
H41_4 H 0.078856 0.299982 0.468632
H42_4 H 0.144467 0.432662 0.511041
C76_4 C 0.25463(14) 0.4103(3) 0.59086(15)
C77_4 C 0.29447(14) 0.5679(4) 0.57643(16)
H43_4 H 0.228080 0.355583 0.575065
C78_4 C 0.29346(14) 0.4082(4) 0.65267(16)
H44_4 H 0.292626 0.353464 0.678810
C79_4 C 0.33336(14) 0.4852(3) 0.67648(15)
C80_4 C 0.37691(15) 0.4798(4) 0.74278(16)
C81_4 C 0.33360(14) 0.5646(4) 0.63766(15)
H45_4 H 0.360932 0.617315 0.653239
H46_4 H 0.295111 0.623628 0.550593
C82_4 C 0.23042(16) 0.5838(4) 0.40439(17)
C83_4 C 0.27912(15) 0.4239(4) 0.46246(17)
H47_4 H 0.205356 0.640028 0.394929
C84_4 C 0.25673(17) 0.5829(4) 0.37441(18)
H48_4 H 0.248802 0.638143 0.344124
C85_4 C 0.29411(15) 0.5039(4) 0.38740(18)
C86_4 C 0.32128(16) 0.5031(4) 0.3531(2)
C87_4 C 0.30531(15) 0.4230(4) 0.43235(17)
O42_4 O 0.30642(12) 0.5760(3) 0.31144(14)
H49_4 H 0.330818 0.367711 0.442163
H50_4 H 0.287543 0.369726 0.493406
H17_4 H 0.431696 0.600800 0.971096
H34_4 H 0.568304 0.600800 0.528904
loop_
_geom_bond_atom_site_label_1
_geom_bond_atom_site_label_2
_geom_bond_site_symmetry_1
_geom_bond_site_symmetry_2
C9 C8 1_555 1_555
C10 C9 1_555 1_555
H5 C10 1_555 1_555
C11 C10 1_555 1_555
H6 C11 1_555 1_555
C12 C11 1_555 1_555
C13 C12 1_555 1_555
C14 C12 1_555 1_555
H7 C14 1_555 1_555
C15 C9 1_555 1_555
H8 C15 1_555 1_555
C16 C8 1_555 1_555
C17 C16 1_555 1_555
H9 C17 1_555 1_555
C18 C17 1_555 1_555
H10 C18 1_555 1_555
C19 C18 1_555 1_555
C20 C19 1_555 1_555
H15 C28 1_555 1_555
H16 C29 1_555 1_555
O3 C13 1_555 1_555
O4 C13 1_555 1_555
Ba7 O4 1_555 1_555
Ba9 O7 1_555 1_555
Ba13 O3 1_555 1_555
O43 Ba9 1_555 1_555
C14 C15 1_555 1_555
C20 O6 1_555 1_555
C28 C29 1_555 1_555
Ba9 O30 1_555 1_555
Ba1 O5 1_555 1_555
Ba2 O5 1_555 1_555
C1 C2 1_555 1_555
C2 C3 1_555 1_555
C3 H1 1_555 1_555
C4 C3 1_555 1_555
H2 C4 1_555 1_555
C5 C4 1_555 1_555
C6 C5 1_555 1_555
H3 C6 1_555 1_555
C7 C2 1_555 1_555
H4 C7 1_555 1_555
H11 C21 1_555 1_555
H12 C22 1_555 1_555
C24 C23 1_555 1_555
H13 C24 1_555 1_555
C25 C24 1_555 1_555
H14 C25 1_555 1_555
C26 C25 1_555 1_555
C27 C26 1_555 1_555
O1 C1 1_555 1_555
O2 C1 1_555 1_555
O8 C27 1_555 1_555
O9 Ba2 1_555 1_555
H17 O9 1_555 1_555
Ba7 O1 1_555 1_555
Ba13 O1 1_555 1_555
O19 Ba1 1_555 1_555
O28 Ba2 1_555 1_555
H37 C65 1_555 1_555
C76 C68 1_555 1_555
C77 C68 1_555 1_555
H43 C76 1_555 1_555
C78 C76 1_555 1_555
H44 C78 1_555 1_555
C79 C78 1_555 1_555
C80 C79 1_555 1_555
C81 C77 1_555 1_555
O39 C80 1_555 1_555
O40 C80 1_555 1_555
H45 C81 1_555 1_555
H46 C77 1_555 1_555
Ba14 O39 1_555 1_555
Ba19 O39 1_555 1_555
O48 Ba19 1_555 1_555
O49 Ba19 1_555 1_555
O50 Ba19 1_555 1_555
O51 Ba19 1_555 1_555
O52 Ba19 1_555 1_555
C6 C7 1_555 1_555
C21 C22 1_555 1_555
O2 Ba13 1_555 1_555
C79 C81 1_555 1_555
O40 Ba14 1_555 1_555
C59 C60 1_555 1_555
C60 C61 1_555 1_555
O33 C59 1_555 1_555
O34 C59 1_555 1_555
C61 H35 1_555 1_555
C62 C60 1_555 1_555
C63 C61 1_555 1_555
H36 C63 1_555 1_555
C64 C63 1_555 1_555
C66 C64 1_555 1_555
C67 C66 1_555 1_555
C69 C66 1_555 1_555
C70 C67 1_555 1_555
C71 C67 1_555 1_555
H39 C70 1_555 1_555
C72 C70 1_555 1_555
H40 C72 1_555 1_555
C73 C72 1_555 1_555
C74 O35 1_555 1_555
C75 C71 1_555 1_555
O38 C74 1_555 1_555
H41 C75 1_555 1_555
C82 C69 1_555 1_555
C83 C69 1_555 1_555
H47 C82 1_555 1_555
C84 C82 1_555 1_555
H48 C84 1_555 1_555
C85 C84 1_555 1_555
C86 C85 1_555 1_555
C87 C83 1_555 1_555
O41 C86 1_555 1_555
O42 C86 1_555 1_555
H49 C87 1_555 1_555
H50 C83 1_555 1_555
Ba17 O33 1_555 1_555
Ba18 O41 1_555 1_555
C73 C74 1_555 1_555
C73 C75 1_555 1_555
C85 C87 1_555 1_555
C46 C45 1_555 1_555
H26 C46 1_555 1_555
C47 C46 1_555 1_555
H27 C47 1_555 1_555
C48 C47 1_555 1_555
C49 C48 1_555 1_555
C49 O15 1_555 1_555
C38 C37 1_555 1_555
C39 C38 1_555 1_555
H22 C39 1_555 1_555
C40 C39 1_555 1_555
H23 C40 1_555 1_555
C41 C40 1_555 1_555
C42 C41 1_555 1_555
C43 C41 1_555 1_555
H24 C43 1_555 1_555
C44 C38 1_555 1_555
H32 C57 1_555 1_555
H33 C58 1_555 1_555
O12 C42 1_555 1_555
O13 C42 1_555 1_555
Ba7 O13 1_555 1_555
Ba18 O12 1_555 1_555
O31 Ba8 1_555 1_555
C43 C44 1_555 1_555
C57 C58 1_555 1_555
O16 Ba8 1_555 1_555
Ba8 O29 1_555 1_555
Ba3 O14 1_555 1_555
H20 C35 1_555 1_555
H28 C50 1_555 1_555
H29 C51 1_555 1_555
O14 Ba1_2 1_555 1_555
O18 Ba3 1_555 1_555
H34 O18 1_555 1_555
O20 Ba1_2 1_555 1_555
O27 Ba3 1_555 1_555
C50 C51 1_555 1_555
C30 C31 1_555 1_555
C31 C32 1_555 1_555
C32 H18 1_555 1_555
C33 C32 1_555 1_555
H19 C33 1_555 1_555
C34 C33 1_555 1_555
C36 C31 1_555 1_555
C53 C52 1_555 1_555
H30 C53 1_555 1_555
C54 C53 1_555 1_555
H31 C54 1_555 1_555
C55 C54 1_555 1_555
C56 C55 1_555 1_555
O10 C30 1_555 1_555
O11 C30 1_555 1_555
O17 C56 1_555 1_555
Ba7 O10 1_555 1_555
Ba18 O10 1_555 1_555
O11 Ba18 1_555 1_555
C59_2 C60_2 1_555 1_555
C60_2 C61_2 1_555 1_555
O45 C59_2 1_555 1_555
O46 C59_2 1_555 1_555
C61_2 H35_2 1_555 1_555
C62_2 C60_2 1_555 1_555
C63_2 C61_2 1_555 1_555
H36_2 C63_2 1_555 1_555
C64_2 C63_2 1_555 1_555
C65_2 C62_2 1_555 1_555
C66_2 C64_2 1_555 1_555
H37_2 C65_2 1_555 1_555
H38_2 C62_2 1_555 1_555
C67_2 C66_2 1_555 1_555
C68_2 C66_2 1_555 1_555
C69_2 C66_2 1_555 1_555
C70_2 C67_2 1_555 1_555
C71_2 C67_2 1_555 1_555
H39_2 C70_2 1_555 1_555
C72_2 C70_2 1_555 1_555
H40_2 C72_2 1_555 1_555
C73_2 C72_2 1_555 1_555
C74_2 O47 1_555 1_555
C75_2 C71_2 1_555 1_555
O38_2 C74_2 1_555 1_555
H41_2 C75_2 1_555 1_555
H42_2 C71_2 1_555 1_555
C76_2 C68_2 1_555 1_555
C77_2 C68_2 1_555 1_555
H43_2 C76_2 1_555 1_555
C78_2 C76_2 1_555 1_555
H44_2 C78_2 1_555 1_555
C79_2 C78_2 1_555 1_555
C80_2 C79_2 1_555 1_555
C81_2 C77_2 1_555 1_555
O48 C80_2 1_555 1_555
O40_2 C80_2 1_555 1_555
H45_2 C81_2 1_555 1_555
H46_2 C77_2 1_555 1_555
C82_2 C69_2 1_555 1_555
C83_2 C69_2 1_555 1_555
H47_2 C82_2 1_555 1_555
C84_2 C82_2 1_555 1_555
H48_2 C84_2 1_555 1_555
C85_2 C84_2 1_555 1_555
C86_2 C85_2 1_555 1_555
C87_2 C83_2 1_555 1_555
O41_2 C86_2 1_555 1_555
O42_2 C86_2 1_555 1_555
H49_2 C87_2 1_555 1_555
H50_2 C83_2 1_555 1_555
Ba14_2 O48 1_555 1_555
Ba17_2 O45 1_555 1_555
Ba13 O41_2 1_555 1_555
C64_2 C65_2 1_555 1_555
C73_2 C74_2 1_555 1_555
C73_2 C75_2 1_555 1_555
C79_2 C81_2 1_555 1_555
O40_2 Ba14_2 1_555 1_555
C85_2 C87_2 1_555 1_555
O9_2 Ba14_2 1_555 1_555
H17_2 O9_2 1_555 1_555
O18_2 Ba14 1_555 1_555
H34_2 O18_2 1_555 1_555
O21_2 Ba14 1_555 1_555
O22_2 Ba14_2 1_555 1_555
O23_2 Ba14 1_555 1_555
O24_2 Ba14_2 1_555 1_555
O27_2 Ba14 1_555 1_555
O28_2 Ba14_2 1_555 1_555
O30_2 Ba14 1_555 1_555
O43_2 Ba13 1_555 1_555
O44_2 Ba13 1_555 1_555
Ba14_2 O49 1_555 1_555
Ba14 O50 1_555 1_555
O18_2 Ba13 1_555 1_555
Ba13 O30_2 1_555 1_555
O31_2 Ba18 1_555 1_555
O32_2 Ba18 1_555 1_555
Ba18 O29_2 1_555 1_555
C30_2 C31_2 1_555 1_555
C31_2 C32_2 1_555 1_555
C32_2 H18_2 1_555 1_555
C33_2 C32_2 1_555 1_555
H19_2 C33_2 1_555 1_555
C34_2 C33_2 1_555 1_555
C36_2 C31_2 1_555 1_555
C53_2 C52_2 1_555 1_555
H30_2 C53_2 1_555 1_555
C54_2 C53_2 1_555 1_555
H31_2 C54_2 1_555 1_555
C55_2 C54_2 1_555 1_555
C56_2 C55_2 1_555 1_555
O49 C30_2 1_555 1_555
O22_2 C30_2 1_555 1_555
O17_2 C56_2 1_555 1_555
H20_2 C35_2 1_555 1_555
H28_2 C50_2 1_555 1_555
H29_2 C51_2 1_555 1_555
O43 Ba17 1_555 1_555
H34_3 O30 1_555 1_555
C50_2 C51_2 1_555 1_555
C38_2 C37_2 1_555 1_555
C39_2 C38_2 1_555 1_555
H22_2 C39_2 1_555 1_555
C40_2 C39_2 1_555 1_555
H23_2 C40_2 1_555 1_555
C41_2 C40_2 1_555 1_555
C42_2 C41_2 1_555 1_555
C43_2 C41_2 1_555 1_555
H24_2 C43_2 1_555 1_555
C44_2 C38_2 1_555 1_555
H32_2 C57_2 1_555 1_555
H33_2 C58_2 1_555 1_555
O24_2 C42_2 1_555 1_555
O51 C42_2 1_555 1_555
C43_2 C44_2 1_555 1_555
C57_2 C58_2 1_555 1_555
C46_2 C45_2 1_555 1_555
H26_2 C46_2 1_555 1_555
C47_2 C46_2 1_555 1_555
H27_2 C47_2 1_555 1_555
C48_2 C47_2 1_555 1_555
C49_2 C48_2 1_555 1_555
C49_2 O44 1_555 1_555
C59_3 C60_3 1_555 1_555
C60_3 C61_3 1_555 1_555
O20 C59_3 1_555 1_555
O22 C59_3 1_555 1_555
C61_3 H35_3 1_555 1_555
C62_3 C60_3 1_555 1_555
C63_3 C61_3 1_555 1_555
H36_3 C63_3 1_555 1_555
C64_3 C63_3 1_555 1_555
C66_3 C64_3 1_555 1_555
C67_3 C66_3 1_555 1_555
C69_3 C66_3 1_555 1_555
C70_3 C67_3 1_555 1_555
C71_3 C67_3 1_555 1_555
H39_3 C70_3 1_555 1_555
C72_3 C70_3 1_555 1_555
H40_3 C72_3 1_555 1_555
C73_3 C72_3 1_555 1_555
C74_3 O24 1_555 1_555
C75_3 C71_3 1_555 1_555
O26 C74_3 1_555 1_555
H41_3 C75_3 1_555 1_555
C82_3 C69_3 1_555 1_555
C83_3 C69_3 1_555 1_555
H47_3 C82_3 1_555 1_555
C84_3 C82_3 1_555 1_555
H48_3 C84_3 1_555 1_555
C85_3 C84_3 1_555 1_555
C86_3 C85_3 1_555 1_555
C87_3 C83_3 1_555 1_555
O28_2 C86_3 1_555 1_555
O42_3 C86_3 1_555 1_555
H49_3 C87_3 1_555 1_555
H50_3 C83_3 1_555 1_555
C73_3 C74_3 1_555 1_555
C73_3 C75_3 1_555 1_555
C85_3 C87_3 1_555 1_555
Ba17_2 O31 1_555 1_555
C1_2 C2_2 1_555 1_555
C2_2 C3_2 1_555 1_555
C3_2 H1_2 1_555 1_555
C4_2 C3_2 1_555 1_555
H2_2 C4_2 1_555 1_555
C5_2 C4_2 1_555 1_555
C6_2 C5_2 1_555 1_555
H3_2 C6_2 1_555 1_555
C7_2 C2_2 1_555 1_555
H4_2 C7_2 1_555 1_555
H11_2 C21_2 1_555 1_555
H12_2 C22_2 1_555 1_555
C24_2 C23_2 1_555 1_555
H13_2 C24_2 1_555 1_555
C25_2 C24_2 1_555 1_555
H14_2 C25_2 1_555 1_555
C26_2 C25_2 1_555 1_555
C27_2 C26_2 1_555 1_555
O50 C1_2 1_555 1_555
O21_2 C1_2 1_555 1_555
O8_2 C27_2 1_555 1_555
H17_3 O29 1_555 1_555
H37_3 C65_3 1_555 1_555
C76_3 C68_3 1_555 1_555
C77_3 C68_3 1_555 1_555
H43_3 C76_3 1_555 1_555
C78_3 C76_3 1_555 1_555
H44_3 C78_3 1_555 1_555
C79_3 C78_3 1_555 1_555
C80_3 C79_3 1_555 1_555
C81_3 C77_3 1_555 1_555
O43_2 C80_3 1_555 1_555
O44_2 C80_3 1_555 1_555
H45_3 C81_3 1_555 1_555
H46_3 C77_3 1_555 1_555
Ba7 O43_2 1_555 1_555
O31_2 Ba7 1_555 1_555
C6_2 C7_2 1_555 1_555
C21_2 C22_2 1_555 1_555
C79_3 C81_3 1_555 1_555
C9_2 C8_2 1_555 1_555
C10_2 C9_2 1_555 1_555
H5_2 C10_2 1_555 1_555
C11_2 C10_2 1_555 1_555
H6_2 C11_2 1_555 1_555
C12_2 C11_2 1_555 1_555
C13_2 C12_2 1_555 1_555
C14_2 C12_2 1_555 1_555
H7_2 C14_2 1_555 1_555
C15_2 C9_2 1_555 1_555
H8_2 C15_2 1_555 1_555
C16_2 C8_2 1_555 1_555
C17_2 C16_2 1_555 1_555
H9_2 C17_2 1_555 1_555
C18_2 C17_2 1_555 1_555
H10_2 C18_2 1_555 1_555
C19_2 C18_2 1_555 1_555
C20_2 C19_2 1_555 1_555
H15_2 C28_2 1_555 1_555
H16_2 C29_2 1_555 1_555
O23_2 C13_2 1_555 1_555
O52 C13_2 1_555 1_555
C14_2 C15_2 1_555 1_555
C20_2 O32 1_555 1_555
C28_2 C29_2 1_555 1_555
C59_4 C60_4 1_555 1_555
C60_4 C61_4 1_555 1_555
O19 C59_4 1_555 1_555
O21 C59_4 1_555 1_555
C61_4 H35_4 1_555 1_555
C62_4 C60_4 1_555 1_555
C63_4 C61_4 1_555 1_555
H36_4 C63_4 1_555 1_555
C64_4 C63_4 1_555 1_555
C65_4 C62_4 1_555 1_555
C66_4 C64_4 1_555 1_555
H37_4 C65_4 1_555 1_555
H38_4 C62_4 1_555 1_555
C67_4 C66_4 1_555 1_555
C68_4 C66_4 1_555 1_555
C69_4 C66_4 1_555 1_555
C70_4 C67_4 1_555 1_555
C71_4 C67_4 1_555 1_555
H39_4 C70_4 1_555 1_555
C72_4 C70_4 1_555 1_555
H40_4 C72_4 1_555 1_555
C73_4 C72_4 1_555 1_555
C74_4 O23 1_555 1_555
C75_4 C71_4 1_555 1_555
O25 C74_4 1_555 1_555
H41_4 C75_4 1_555 1_555
H42_4 C71_4 1_555 1_555
C76_4 C68_4 1_555 1_555
C77_4 C68_4 1_555 1_555
H43_4 C76_4 1_555 1_555
C78_4 C76_4 1_555 1_555
H44_4 C78_4 1_555 1_555
C79_4 C78_4 1_555 1_555
C80_4 C79_4 1_555 1_555
C81_4 C77_4 1_555 1_555
O31_2 C80_4 1_555 1_555
O32_2 C80_4 1_555 1_555
H45_4 C81_4 1_555 1_555
H46_4 C77_4 1_555 1_555
C82_4 C69_4 1_555 1_555
C83_4 C69_4 1_555 1_555
H47_4 C82_4 1_555 1_555
C84_4 C82_4 1_555 1_555
H48_4 C84_4 1_555 1_555
C85_4 C84_4 1_555 1_555
C86_4 C85_4 1_555 1_555
C87_4 C83_4 1_555 1_555
O27_2 C86_4 1_555 1_555
O42_4 C86_4 1_555 1_555
H49_4 C87_4 1_555 1_555
H50_4 C83_4 1_555 1_555
C64_4 C65_4 1_555 1_555
C73_4 C74_4 1_555 1_555
C73_4 C75_4 1_555 1_555
C79_4 C81_4 1_555 1_555
C85_4 C87_4 1_555 1_555
H17_4 O29_2 1_555 1_555
H34_4 O30_2 1_555 1_555

#END
