
###############################################################################
#
# This file contains modified crystal structure data generated from the
# MOF subset of the Cambridge Structural Database (CSD) v543 
# hosted by the Cambridge Crystallographic Data Centre (CCDC).
#
# This work is licensed under the Creative Commons
# Attribution-NonCommercial-ShareAlike 4.0 International License.
# To view a copy of this license, visit
# http://creativecommons.org/licenses/by-nc-sa/4.0/
# or send a letter to
# Creative Commons, PO Box 1866, Mountain View, CA 94042, USA.
#
# CIF created using the CSD Python API on 29 September 2022
# The structure has been converted into the P1 space group
# The structure has a 3D framework
# The original CSD entry ZACRUU is in the orthorhombic crystal system
# The framework has been calculated to contain at least 10.0% void space
# The void calculation uses a probe of radius 1.32A, grid spacing 0.4
#
###############################################################################

data_ZACRUU
_chemical_formula_moiety         '(C128 H74 In20 O106)n'
_symmetry_cell_setting           triclinic
_symmetry_space_group_name_H-M   'P 1'
_symmetry_Int_Tables_number      1
_space_group_name_Hall           'P 1'
loop_
_symmetry_equiv_pos_site_id
_symmetry_equiv_pos_as_xyz
1 x,y,z
_cell_length_a                   35.639(7)
_cell_length_b                   25.816(5)
_cell_length_c                   7.1500(14)
_cell_angle_alpha                90
_cell_angle_beta                 90
_cell_angle_gamma                90
_cell_volume                     6578.4
loop_
_atom_site_label
_atom_site_type_symbol
_atom_site_fract_x
_atom_site_fract_y
_atom_site_fract_z
In1 In 0.5000 0.25336(2) 0.53108(6)
In2 In 0.74739(2) 0.5000 0.0000
O1 O 0.5000 0.2107(2) 0.2872(7)
H1 H 0.5000 0.1747 0.2933
O2 O 0.7500 0.5399(2) 0.2500
H2 H 0.7500 0.5760 0.2500
O3 O 0.54378(12) 0.30432(19) 0.4347(6)
O4 O 0.54331(12) 0.3003(2) 0.1249(6)
O6 O 0.70473(13) 0.4485(2) 0.0972(6)
O7 O 0.70715(13) 0.4502(2) 0.4097(6)
O8 O 0.6526(2) 0.4106(4) 0.6056(7)
H4 H 0.665(3) 0.440(3) 0.619(10)
C1 C 0.59065(18) 0.3480(3) 0.2702(8)
C2 C 0.60918(19) 0.3583(3) 0.0996(8)
C3 C 0.6417(2) 0.3869(3) 0.1003(8)
C4 C 0.65673(18) 0.4066(3) 0.2652(8)
C5 C 0.6388(2) 0.3956(3) 0.4346(9)
C6 C 0.60654(19) 0.3661(3) 0.4355(8)
H6 H 0.5952 0.3582 0.5490
C7 C 0.55683(16) 0.3153(2) 0.2785(7)
C8 C 0.69199(19) 0.4378(3) 0.2554(8)
O11 O 0.59779(17) 0.6615(3) 0.0672(7)
H7 H 0.5736(10) 0.660(5) 0.041(17)
H9 H 0.6540 0.6069 0.0122
In3 In 0.5000 0.24664(2) 0.03108(6)
In7 In 0.75261(2) 0.5000 0.5000
O15 O 0.5000 0.2893(2) 0.7872(7)
O17 O 0.45622(12) 0.30432(19) 0.4347(6)
O18 O 0.45669(12) 0.1997(2) 0.6249(6)
O19 O 0.54331(12) 0.1997(2) 0.6249(6)
O21 O 0.79285(13) 0.4502(2) 0.0903(6)
In2_2 In 0.74739(2) 0.5000 1.0000
O5 O 0.59779(17) 0.3385(3) 0.9328(7)
H3 H 0.5736(10) 0.340(5) 0.959(17)
H5 H 0.6540 0.3931 0.9878
O9 O 0.54378(12) 0.69568(19) 0.5653(6)
O10 O 0.54331(12) 0.6997(2) 0.8751(6)
O12 O 0.70473(13) 0.5515(2) 0.9028(6)
O13 O 0.70715(13) 0.5498(2) 0.5903(6)
O14 O 0.6526(2) 0.5894(4) 0.3944(7)
H8 H 0.665(3) 0.560(3) 0.381(10)
C9 C 0.59065(18) 0.6520(3) 0.7298(8)
C10 C 0.60918(19) 0.6417(3) 0.9004(8)
C11 C 0.6417(2) 0.6131(3) 0.8997(8)
C12 C 0.65673(18) 0.5934(3) 0.7348(8)
C13 C 0.6388(2) 0.6044(3) 0.5654(9)
C14 C 0.60654(19) 0.6339(3) 0.5645(8)
H10 H 0.5952 0.6418 0.4510
C15 C 0.55683(16) 0.6847(2) 0.7215(7)
C16 C 0.69199(19) 0.5622(3) 0.7446(8)
In4 In 0.5000 0.75336(2) 0.96892(6)
In5 In 0.5000 0.74664(2) 0.46892(6)
O16 O 0.7500 0.4601(2) 0.7500
O20 O 0.79285(13) 0.5498(2) 0.9097(6)
O8_2 O 0.3474(2) 0.0894(4) 0.1056(7)
H4_2 H 0.335(3) 0.060(3) 0.119(10)
H6_2 H 0.4048 0.1418 0.0490
In7_2 In 0.24739(2) 0.0000 0.0000
O19_2 O 0.45669(12) 0.3003(2) 0.1249(6)
In2_3 In 0.25261(2) 0.0000 0.5000
H1_2 H 0.5000 0.3253 0.7933
O3_2 O 0.45622(12) 0.19568(19) 0.9347(6)
O5_2 O 0.40221(17) 0.1615(3) 0.4328(7)
H3_2 H 0.4264(10) 0.160(5) 0.459(17)
O6_2 O 0.29527(13) 0.0515(2) 0.5972(6)
O7_2 O 0.29285(13) 0.0498(2) 0.9097(6)
C1_2 C 0.40935(18) 0.1520(3) 0.7702(8)
C2_2 C 0.39082(19) 0.1417(3) 0.5996(8)
C3_2 C 0.3583(2) 0.1131(3) 0.6003(8)
H5_2 H 0.3460 0.1069 0.4878
C4_2 C 0.34327(18) 0.0934(3) 0.7652(8)
C5_2 C 0.3612(2) 0.1044(3) 0.9346(9)
C6_2 C 0.39346(19) 0.1339(3) 0.9355(8)
C7_2 C 0.44317(16) 0.1847(2) 0.7785(7)
C8_2 C 0.30801(19) 0.0622(3) 0.7554(8)
In7_3 In 0.24739(2) 0.0000 1.0000
O16_2 O 0.2500 0.0399(2) 0.2500
O17_2 O 0.54378(12) 0.19568(19) 0.9347(6)
O21_2 O 0.20715(13) 0.0498(2) 0.5903(6)
In7_4 In 0.24739(2) 1.0000 0.0000
In2_4 In 0.25261(2) 1.0000 0.5000
O2_2 O 0.2500 0.9601(2) 0.7500
H2_2 H 0.2500 0.9240 0.7500
O9_2 O 0.45622(12) 0.80432(19) 0.0653(6)
O10_2 O 0.45669(12) 0.8003(2) 0.3751(6)
O11_2 O 0.40221(17) 0.8385(3) 0.5672(7)
H7_2 H 0.4264(10) 0.840(5) 0.541(17)
O12_2 O 0.29527(13) 0.9485(2) 0.4028(6)
O13_2 O 0.29285(13) 0.9502(2) 0.0903(6)
C9_2 C 0.40935(18) 0.8480(3) 0.2298(8)
C10_2 C 0.39082(19) 0.8583(3) 0.4004(8)
C11_2 C 0.3583(2) 0.8869(3) 0.3997(8)
H9_2 H 0.3460 0.8931 0.5122
C12_2 C 0.34327(18) 0.9066(3) 0.2348(8)
C13_2 C 0.3612(2) 0.8956(3) 0.0654(9)
C14_2 C 0.39346(19) 0.8661(3) 0.0645(8)
C15_2 C 0.44317(16) 0.8153(2) 0.2215(7)
C16_2 C 0.30801(19) 0.9378(3) 0.2446(8)
In7_5 In 0.24739(2) 1.0000 1.0000
O20_2 O 0.20715(13) 0.9502(2) 0.4097(6)
O14_2 O 0.3474(2) 0.9106(4) 0.8944(7)
H8_2 H 0.335(3) 0.940(3) 0.881(10)
H10_2 H 0.4048 0.8582 0.9510
H2_3 H 0.2500 0.0760 0.2500
O1_2 O 0.5000 0.7107(2) 0.2128(7)
H1_3 H 0.5000 0.6747 0.2067
O17_3 O 0.54378(12) 0.80432(19) 0.0653(6)
O15_2 O 0.5000 0.7893(2) 0.7128(7)
O19_3 O 0.45669(12) 0.6997(2) 0.8751(6)
H1_4 H 0.5000 0.8253 0.7067
H2_4 H 0.7500 0.4240 0.7500
O17_4 O 0.45622(12) 0.69568(19) 0.5653(6)
O19_4 O 0.54331(12) 0.8003(2) 0.3751(6)
O11_3 O 0.09779(17) 0.1615(3) 0.0672(7)
H7_3 H 0.0736(10) 0.160(5) 0.041(17)
H9_3 H 0.1540 0.1069 0.0122
O9_3 O 0.04378(12) 0.19568(19) 0.5653(6)
O10_3 O 0.04331(12) 0.1997(2) 0.8751(6)
O12_3 O 0.20473(13) 0.0515(2) 0.9028(6)
O14_3 O 0.1526(2) 0.0894(4) 0.3944(7)
H8_3 H 0.165(3) 0.060(3) 0.381(10)
C9_3 C 0.09065(18) 0.1520(3) 0.7298(8)
C10_3 C 0.10918(19) 0.1417(3) 0.9004(8)
C11_3 C 0.1417(2) 0.1131(3) 0.8997(8)
C12_3 C 0.15673(18) 0.0934(3) 0.7348(8)
C13_3 C 0.1388(2) 0.1044(3) 0.5654(9)
C14_3 C 0.10654(19) 0.1339(3) 0.5645(8)
H10_3 H 0.0952 0.1418 0.4510
C15_3 C 0.05683(16) 0.1847(2) 0.7215(7)
C16_3 C 0.19199(19) 0.0622(3) 0.7446(8)
In4_2 In -0.0000 0.25336(2) 0.96892(6)
In5_2 In -0.0000 0.24664(2) 0.46892(6)
In1_2 In -0.0000 0.75336(2) 0.53108(6)
O1_3 O -0.0000 0.7107(2) 0.2872(7)
H1_5 H -0.0000 0.6747 0.2933
O3_3 O 0.04378(12) 0.80432(19) 0.4347(6)
O4_2 O 0.04331(12) 0.8003(2) 0.1249(6)
O6_3 O 0.20473(13) 0.9485(2) 0.0972(6)
O8_3 O 0.1526(2) 0.9106(4) 0.6056(7)
H4_3 H 0.165(3) 0.940(3) 0.619(10)
C1_3 C 0.09065(18) 0.8480(3) 0.2702(8)
C2_3 C 0.10918(19) 0.8583(3) 0.0996(8)
C3_3 C 0.1417(2) 0.8869(3) 0.1003(8)
C4_3 C 0.15673(18) 0.9066(3) 0.2652(8)
C5_3 C 0.1388(2) 0.8956(3) 0.4346(9)
C6_3 C 0.10654(19) 0.8661(3) 0.4355(8)
H6_3 H 0.0952 0.8582 0.5490
C7_3 C 0.05683(16) 0.8153(2) 0.2785(7)
C8_3 C 0.19199(19) 0.9378(3) 0.2554(8)
In3_2 In -0.0000 0.74664(2) 0.03108(6)
O15_3 O -0.0000 0.7893(2) 0.7872(7)
O19_5 O 0.04331(12) 0.6997(2) 0.6249(6)
O5_3 O 0.09779(17) 0.8385(3) 0.9328(7)
H3_3 H 0.0736(10) 0.840(5) 0.959(17)
H5_3 H 0.1540 0.8931 0.9878
In4_3 In 1.0000 0.25336(2) 0.96892(6)
In5_3 In 1.0000 0.24664(2) 0.46892(6)
In1_3 In 1.0000 0.75336(2) 0.53108(6)
O1_4 O 1.0000 0.7107(2) 0.2872(7)
H1_6 H 1.0000 0.6747 0.2933
In3_3 In 1.0000 0.74664(2) 0.03108(6)
O15_4 O 1.0000 0.7893(2) 0.7872(7)
O17_5 O 0.95622(12) 0.80432(19) 0.4347(6)
O18_2 O 0.95669(12) 0.6997(2) 0.6249(6)
H1_7 H -0.0000 0.8253 0.7933
O17_6 O 0.04378(12) 0.69568(19) 0.9347(6)
O8_4 O 0.8474(2) 0.5894(4) 0.1056(7)
H4_4 H 0.835(3) 0.560(3) 0.119(10)
H6_4 H 0.9048 0.6418 0.0490
O19_6 O 0.95669(12) 0.8003(2) 0.1249(6)
H1_8 H 1.0000 0.8253 0.7933
O3_4 O 0.95622(12) 0.69568(19) 0.9347(6)
O5_4 O 0.90221(17) 0.6615(3) 0.4328(7)
H3_4 H 0.9264(10) 0.660(5) 0.459(17)
O6_4 O 0.79527(13) 0.5515(2) 0.5972(6)
C1_4 C 0.90935(18) 0.6520(3) 0.7702(8)
C2_4 C 0.89082(19) 0.6417(3) 0.5996(8)
C3_4 C 0.8583(2) 0.6131(3) 0.6003(8)
H5_4 H 0.8460 0.6069 0.4878
C4_4 C 0.84327(18) 0.5934(3) 0.7652(8)
C5_4 C 0.8612(2) 0.6044(3) 0.9346(9)
C6_4 C 0.89346(19) 0.6339(3) 0.9355(8)
C7_4 C 0.94317(16) 0.6847(2) 0.7785(7)
C8_4 C 0.80801(19) 0.5622(3) 0.7554(8)
O9_4 O 0.95622(12) 0.30432(19) 0.0653(6)
O10_4 O 0.95669(12) 0.3003(2) 0.3751(6)
O11_4 O 0.90221(17) 0.3385(3) 0.5672(7)
H7_4 H 0.9264(10) 0.340(5) 0.541(17)
O12_4 O 0.79527(13) 0.4485(2) 0.4028(6)
C9_4 C 0.90935(18) 0.3480(3) 0.2298(8)
C10_4 C 0.89082(19) 0.3583(3) 0.4004(8)
C11_4 C 0.8583(2) 0.3869(3) 0.3997(8)
H9_4 H 0.8460 0.3931 0.5122
C12_4 C 0.84327(18) 0.4066(3) 0.2348(8)
C13_4 C 0.8612(2) 0.3956(3) 0.0654(9)
C14_4 C 0.89346(19) 0.3661(3) 0.0645(8)
C15_4 C 0.94317(16) 0.3153(2) 0.2215(7)
C16_4 C 0.80801(19) 0.4378(3) 0.2446(8)
O14_4 O 0.8474(2) 0.4106(4) 0.8944(7)
H8_4 H 0.835(3) 0.440(3) 0.881(10)
H10_4 H 0.9048 0.3582 0.9510
O1_5 O -0.0000 0.2107(2) 0.2128(7)
H1_9 H -0.0000 0.1747 0.2067
O17_7 O 0.04378(12) 0.30432(19) 0.0653(6)
O15_5 O 0.0000 0.2893(2) 0.7128(7)
O1_6 O 1.0000 0.2107(2) 0.2128(7)
H1_10 H 1.0000 0.1747 0.2067
O15_6 O 1.0000 0.2893(2) 0.7128(7)
O19_7 O 0.95669(12) 0.1997(2) 0.8751(6)
H1_11 H 0.0000 0.3253 0.7067
O19_8 O 0.04331(12) 0.3003(2) 0.3751(6)
H1_12 H 1.0000 0.3253 0.7067
O17_8 O 0.95622(12) 0.19568(19) 0.5653(6)
In2_5 In 0.25261(2) 0.5000 0.0000
O5_5 O 0.40221(17) 0.6615(3) 0.0672(7)
H3_5 H 0.4264(10) 0.660(5) 0.041(17)
H5_5 H 0.3460 0.6069 0.0122
O12_5 O 0.29527(13) 0.4485(2) 0.0972(6)
O13_3 O 0.29285(13) 0.4502(2) 0.4097(6)
O14_5 O 0.3474(2) 0.4106(4) 0.6056(7)
H8_5 H 0.335(3) 0.440(3) 0.619(10)
C9_5 C 0.40935(18) 0.3480(3) 0.2702(8)
C10_5 C 0.39082(19) 0.3583(3) 0.0996(8)
C11_5 C 0.3583(2) 0.3869(3) 0.1003(8)
C12_5 C 0.34327(18) 0.4066(3) 0.2652(8)
C13_5 C 0.3612(2) 0.3956(3) 0.4346(9)
C14_5 C 0.39346(19) 0.3661(3) 0.4355(8)
H10_5 H 0.4048 0.3582 0.5490
C15_5 C 0.44317(16) 0.3153(2) 0.2785(7)
C16_5 C 0.30801(19) 0.4378(3) 0.2554(8)
In6 In 0.24739(2) 0.5000 0.5000
O16_3 O 0.2500 0.5399(2) 0.2500
O20_3 O 0.20715(13) 0.4502(2) 0.0903(6)
In2_6 In 0.25261(2) 0.5000 1.0000
O2_3 O 0.2500 0.4601(2) 0.7500
H2_5 H 0.2500 0.4240 0.7500
O6_5 O 0.29527(13) 0.5515(2) 0.9028(6)
O7_3 O 0.29285(13) 0.5498(2) 0.5903(6)
O8_5 O 0.3474(2) 0.5894(4) 0.3944(7)
H4_5 H 0.335(3) 0.560(3) 0.381(10)
C1_5 C 0.40935(18) 0.6520(3) 0.7298(8)
C2_5 C 0.39082(19) 0.6417(3) 0.9004(8)
C3_5 C 0.3583(2) 0.6131(3) 0.8997(8)
C4_5 C 0.34327(18) 0.5934(3) 0.7348(8)
C5_5 C 0.3612(2) 0.6044(3) 0.5654(9)
C6_5 C 0.39346(19) 0.6339(3) 0.5645(8)
H6_5 H 0.4048 0.6418 0.4510
C7_5 C 0.44317(16) 0.6847(2) 0.7215(7)
C8_5 C 0.30801(19) 0.5622(3) 0.7446(8)
O11_5 O 0.40221(17) 0.3385(3) 0.9328(7)
H7_5 H 0.4264(10) 0.340(5) 0.959(17)
H9_5 H 0.3460 0.3931 0.9878
O21_3 O 0.20715(13) 0.5498(2) 0.9097(6)
O14_6 O 0.6526(2) 0.0894(4) 0.1056(7)
H8_6 H 0.665(3) 0.060(3) 0.119(10)
H10_6 H 0.5952 0.1418 0.0490
In6_2 In 0.75261(2) 0.0000 0.0000
In2_7 In 0.74739(2) 0.0000 0.5000
O2_4 O 0.7500 0.0399(2) 0.2500
H2_6 H 0.7500 0.0760 0.2500
O11_6 O 0.59779(17) 0.1615(3) 0.4328(7)
H7_6 H 0.5736(10) 0.160(5) 0.459(17)
O12_6 O 0.70473(13) 0.0515(2) 0.5972(6)
O13_4 O 0.70715(13) 0.0498(2) 0.9097(6)
C9_6 C 0.59065(18) 0.1520(3) 0.7702(8)
C10_6 C 0.60918(19) 0.1417(3) 0.5996(8)
C11_6 C 0.6417(2) 0.1131(3) 0.6003(8)
H9_6 H 0.6540 0.1069 0.4878
C12_6 C 0.65673(18) 0.0934(3) 0.7652(8)
C13_6 C 0.6388(2) 0.1044(3) 0.9346(9)
C14_6 C 0.60654(19) 0.1339(3) 0.9355(8)
C15_6 C 0.55683(16) 0.1847(2) 0.7785(7)
C16_6 C 0.69199(19) 0.0622(3) 0.7554(8)
In6_3 In 0.75261(2) 0.0000 1.0000
O20_4 O 0.79285(13) 0.0498(2) 0.5903(6)
In6_4 In 0.75261(2) 1.0000 0.0000
In2_8 In 0.74739(2) 1.0000 0.5000
O5_6 O 0.59779(17) 0.8385(3) 0.5672(7)
H3_6 H 0.5736(10) 0.840(5) 0.541(17)
O6_6 O 0.70473(13) 0.9485(2) 0.4028(6)
O7_4 O 0.70715(13) 0.9502(2) 0.0903(6)
C1_6 C 0.59065(18) 0.8480(3) 0.2298(8)
C2_6 C 0.60918(19) 0.8583(3) 0.4004(8)
C3_6 C 0.6417(2) 0.8869(3) 0.3997(8)
H5_6 H 0.6540 0.8931 0.5122
C4_6 C 0.65673(18) 0.9066(3) 0.2348(8)
C5_6 C 0.6388(2) 0.8956(3) 0.0654(9)
C6_6 C 0.60654(19) 0.8661(3) 0.0645(8)
C7_6 C 0.55683(16) 0.8153(2) 0.2215(7)
C8_6 C 0.69199(19) 0.9378(3) 0.2446(8)
In6_5 In 0.75261(2) 1.0000 1.0000
O16_4 O 0.7500 0.9601(2) 0.7500
O21_4 O 0.79285(13) 0.9502(2) 0.4097(6)
O8_6 O 0.6526(2) 0.9106(4) 0.8944(7)
H4_6 H 0.665(3) 0.940(3) 0.881(10)
H6_6 H 0.5952 0.8582 0.9510
H2_7 H 0.7500 0.9240 0.7500
H2_8 H 0.2500 0.5760 0.2500
O5_7 O 0.90221(17) 0.1615(3) 0.0672(7)
H3_7 H 0.9264(10) 0.160(5) 0.041(17)
H5_7 H 0.8460 0.1069 0.0122
O6_7 O 0.79527(13) 0.0515(2) 0.9028(6)
O8_7 O 0.8474(2) 0.0894(4) 0.3944(7)
H4_7 H 0.835(3) 0.060(3) 0.381(10)
C1_7 C 0.90935(18) 0.1520(3) 0.7298(8)
C2_7 C 0.89082(19) 0.1417(3) 0.9004(8)
C3_7 C 0.8583(2) 0.1131(3) 0.8997(8)
C4_7 C 0.84327(18) 0.0934(3) 0.7348(8)
C5_7 C 0.8612(2) 0.1044(3) 0.5654(9)
C6_7 C 0.89346(19) 0.1339(3) 0.5645(8)
H6_7 H 0.9048 0.1418 0.4510
C7_7 C 0.94317(16) 0.1847(2) 0.7215(7)
C8_7 C 0.80801(19) 0.0622(3) 0.7446(8)
O12_7 O 0.79527(13) 0.9485(2) 0.0972(6)
O14_7 O 0.8474(2) 0.9106(4) 0.6056(7)
H8_7 H 0.835(3) 0.940(3) 0.619(10)
C9_7 C 0.90935(18) 0.8480(3) 0.2702(8)
C10_7 C 0.89082(19) 0.8583(3) 0.0996(8)
C11_7 C 0.8583(2) 0.8869(3) 0.1003(8)
C12_7 C 0.84327(18) 0.9066(3) 0.2652(8)
C13_7 C 0.8612(2) 0.8956(3) 0.4346(9)
C14_7 C 0.89346(19) 0.8661(3) 0.4355(8)
H10_7 H 0.9048 0.8582 0.5490
C15_7 C 0.94317(16) 0.8153(2) 0.2785(7)
C16_7 C 0.80801(19) 0.9378(3) 0.2554(8)
O11_7 O 0.90221(17) 0.8385(3) 0.9328(7)
H7_7 H 0.9264(10) 0.840(5) 0.959(17)
H9_7 H 0.8460 0.8931 0.9878
O14_8 O 0.1526(2) 0.5894(4) 0.1056(7)
H8_8 H 0.165(3) 0.560(3) 0.119(10)
H10_8 H 0.0952 0.6418 0.0490
O5_8 O 0.09779(17) 0.3385(3) 0.5672(7)
H3_8 H 0.0736(10) 0.340(5) 0.541(17)
O6_8 O 0.20473(13) 0.4485(2) 0.4028(6)
C1_8 C 0.09065(18) 0.3480(3) 0.2298(8)
C2_8 C 0.10918(19) 0.3583(3) 0.4004(8)
C3_8 C 0.1417(2) 0.3869(3) 0.3997(8)
H5_8 H 0.1540 0.3931 0.5122
C4_8 C 0.15673(18) 0.4066(3) 0.2348(8)
C5_8 C 0.1388(2) 0.3956(3) 0.0654(9)
C6_8 C 0.10654(19) 0.3661(3) 0.0645(8)
C7_8 C 0.05683(16) 0.3153(2) 0.2215(7)
C8_8 C 0.19199(19) 0.4378(3) 0.2446(8)
O11_8 O 0.09779(17) 0.6615(3) 0.4328(7)
H7_8 H 0.0736(10) 0.660(5) 0.459(17)
O12_8 O 0.20473(13) 0.5515(2) 0.5972(6)
C9_8 C 0.09065(18) 0.6520(3) 0.7702(8)
C10_8 C 0.10918(19) 0.6417(3) 0.5996(8)
C11_8 C 0.1417(2) 0.6131(3) 0.6003(8)
H9_8 H 0.1540 0.6069 0.4878
C12_8 C 0.15673(18) 0.5934(3) 0.7652(8)
C13_8 C 0.1388(2) 0.6044(3) 0.9346(9)
C14_8 C 0.10654(19) 0.6339(3) 0.9355(8)
C15_8 C 0.05683(16) 0.6847(2) 0.7785(7)
C16_8 C 0.19199(19) 0.5622(3) 0.7554(8)
O8_8 O 0.1526(2) 0.4106(4) 0.8944(7)
H4_8 H 0.165(3) 0.440(3) 0.881(10)
H6_8 H 0.0952 0.3582 0.9510
loop_
_geom_bond_atom_site_label_1
_geom_bond_atom_site_label_2
_geom_bond_site_symmetry_1
_geom_bond_site_symmetry_2
In1 O1 1_555 1_555
In2 O2 1_555 1_555
O1 H1 1_555 1_555
O2 H2 1_555 1_555
O3 In1 1_555 1_555
O4 C7 1_555 1_555
O6 In2 1_555 1_555
O7 C8 1_555 1_555
O8 H4 1_555 1_555
C1 C2 1_555 1_555
C3 C2 1_555 1_555
C4 C3 1_555 1_555
C5 O8 1_555 1_555
C6 C1 1_555 1_555
H6 C6 1_555 1_555
C7 O3 1_555 1_555
C8 O6 1_555 1_555
O11 H7 1_555 1_555
In3 O1 1_555 1_555
In7 O2 1_555 1_555
O15 In1 1_555 1_555
O17 In1 1_555 1_555
O18 In1 1_555 1_555
O19 In1 1_555 1_555
O21 In2 1_555 1_555
O4 In3 1_555 1_555
O7 In7 1_555 1_555
C1 C7 1_555 1_555
C4 C5 1_555 1_555
C4 C8 1_555 1_555
C5 C6 1_555 1_555
O5 H3 1_555 1_555
O9 C15 1_555 1_555
O10 C15 1_555 1_555
O12 In2_2 1_555 1_555
O13 C16 1_555 1_555
O14 H8 1_555 1_555
C9 C10 1_555 1_555
C11 C10 1_555 1_555
C12 C11 1_555 1_555
C13 O14 1_555 1_555
C14 C9 1_555 1_555
H10 C14 1_555 1_555
C15 C9 1_555 1_555
C16 O12 1_555 1_555
In4 O10 1_555 1_555
In5 O9 1_555 1_555
In7 O13 1_555 1_555
O16 In2_2 1_555 1_555
O20 In2_2 1_555 1_555
C12 C13 1_555 1_555
C12 C16 1_555 1_555
C13 C14 1_555 1_555
In7 O16 1_555 1_555
O8_2 H4_2 1_555 1_555
O19_2 In3 1_555 1_555
O15 H1_2 1_555 1_555
O18 C7_2 1_555 1_555
O5_2 H3_2 1_555 1_555
O6_2 In2_3 1_555 1_555
O7_2 C8_2 1_555 1_555
C1_2 C2_2 1_555 1_555
C2_2 O5_2 1_555 1_555
C3_2 C2_2 1_555 1_555
H5_2 C3_2 1_555 1_555
C4_2 C3_2 1_555 1_555
C6_2 C1_2 1_555 1_555
C7_2 O3_2 1_555 1_555
C8_2 O6_2 1_555 1_555
O16_2 In2_3 1_555 1_555
O21_2 In2_3 1_555 1_555
O7_2 In7_3 1_555 1_555
C1_2 C7_2 1_555 1_555
C4_2 C5_2 1_555 1_555
C4_2 C8_2 1_555 1_555
C5_2 C6_2 1_555 1_555
In7_2 O16_2 1_555 1_555
In2_4 O2_2 1_555 1_555
O2_2 H2_2 1_555 1_555
O9_2 C15_2 1_555 1_555
O10_2 C15_2 1_555 1_555
O11_2 H7_2 1_555 1_555
O12_2 In2_4 1_555 1_555
O13_2 C16_2 1_555 1_555
C9_2 C10_2 1_555 1_555
C10_2 O11_2 1_555 1_555
C11_2 C10_2 1_555 1_555
H9_2 C11_2 1_555 1_555
C12_2 C11_2 1_555 1_555
C14_2 C9_2 1_555 1_555
C15_2 C9_2 1_555 1_555
C16_2 O12_2 1_555 1_555
In5 O10_2 1_555 1_555
In7_4 O13_2 1_555 1_555
In7_5 O2_2 1_555 1_555
O20_2 In2_4 1_555 1_555
C12_2 C13_2 1_555 1_555
C12_2 C16_2 1_555 1_555
C13_2 C14_2 1_555 1_555
O14_2 H8_2 1_555 1_555
O16_2 H2_3 1_555 1_555
O1_2 H1_3 1_555 1_555
In5 O1_2 1_555 1_555
O15_2 In4 1_555 1_555
O19_3 In4 1_555 1_555
In5 O15_2 1_555 1_555
O15_2 H1_4 1_555 1_555
O16 H2_4 1_555 1_555
O17_4 In5 1_555 1_555
O19_4 In5 1_555 1_555
O11_3 H7_3 1_555 1_555
O9_3 C15_3 1_555 1_555
O10_3 C15_3 1_555 1_555
O12_3 In7_3 1_555 1_555
O21_2 C16_3 1_555 1_555
O14_3 H8_3 1_555 1_555
C9_3 C10_3 1_555 1_555
C11_3 C10_3 1_555 1_555
C12_3 C11_3 1_555 1_555
C13_3 O14_3 1_555 1_555
C14_3 C9_3 1_555 1_555
H10_3 C14_3 1_555 1_555
C15_3 C9_3 1_555 1_555
C16_3 O12_3 1_555 1_555
In4_2 O10_3 1_555 1_555
In5_2 O9_3 1_555 1_555
C12_3 C13_3 1_555 1_555
C12_3 C16_3 1_555 1_555
C13_3 C14_3 1_555 1_555
In1_2 O1_3 1_555 1_555
O1_3 H1_5 1_555 1_555
O3_3 In1_2 1_555 1_555
O4_2 C7_3 1_555 1_555
O6_3 In7_4 1_555 1_555
O20_2 C8_3 1_555 1_555
O8_3 H4_3 1_555 1_555
C1_3 C2_3 1_555 1_555
C3_3 C2_3 1_555 1_555
C4_3 C3_3 1_555 1_555
C5_3 O8_3 1_555 1_555
C6_3 C1_3 1_555 1_555
H6_3 C6_3 1_555 1_555
C7_3 O3_3 1_555 1_555
C8_3 O6_3 1_555 1_555
In3_2 O1_3 1_555 1_555
O15_3 In1_2 1_555 1_555
O19_5 In1_2 1_555 1_555
O4_2 In3_2 1_555 1_555
C1_3 C7_3 1_555 1_555
C4_3 C5_3 1_555 1_555
C4_3 C8_3 1_555 1_555
C5_3 C6_3 1_555 1_555
O5_3 H3_3 1_555 1_555
In1_3 O1_4 1_555 1_555
O1_4 H1_6 1_555 1_555
In3_3 O1_4 1_555 1_555
O15_4 In1_3 1_555 1_555
O17_5 In1_3 1_555 1_555
O18_2 In1_3 1_555 1_555
O15_3 H1_7 1_555 1_555
O8_4 H4_4 1_555 1_555
O19_6 In3_3 1_555 1_555
O15_4 H1_8 1_555 1_555
O18_2 C7_4 1_555 1_555
O5_4 H3_4 1_555 1_555
O6_4 In7 1_555 1_555
O20 C8_4 1_555 1_555
C1_4 C2_4 1_555 1_555
C2_4 O5_4 1_555 1_555
C3_4 C2_4 1_555 1_555
H5_4 C3_4 1_555 1_555
C4_4 C3_4 1_555 1_555
C6_4 C1_4 1_555 1_555
C7_4 O3_4 1_555 1_555
C8_4 O6_4 1_555 1_555
O9_4 C15_4 1_555 1_555
O10_4 C15_4 1_555 1_555
O11_4 H7_4 1_555 1_555
O12_4 In7 1_555 1_555
O21 C16_4 1_555 1_555
C9_4 C10_4 1_555 1_555
C10_4 O11_4 1_555 1_555
C11_4 C10_4 1_555 1_555
H9_4 C11_4 1_555 1_555
C12_4 C11_4 1_555 1_555
C14_4 C9_4 1_555 1_555
C15_4 C9_4 1_555 1_555
C16_4 O12_4 1_555 1_555
In5_3 O10_4 1_555 1_555
C1_4 C7_4 1_555 1_555
C4_4 C5_4 1_555 1_555
C4_4 C8_4 1_555 1_555
C5_4 C6_4 1_555 1_555
C12_4 C13_4 1_555 1_555
C12_4 C16_4 1_555 1_555
C13_4 C14_4 1_555 1_555
O14_4 H8_4 1_555 1_555
O1_5 H1_9 1_555 1_555
In5_2 O1_5 1_555 1_555
O15_5 In4_2 1_555 1_555
O1_6 H1_10 1_555 1_555
In5_3 O1_6 1_555 1_555
O15_6 In4_3 1_555 1_555
O19_7 In4_3 1_555 1_555
In5_2 O15_5 1_555 1_555
O15_5 H1_11 1_555 1_555
O19_8 In5_2 1_555 1_555
In5_3 O15_6 1_555 1_555
O15_6 H1_12 1_555 1_555
O17_8 In5_3 1_555 1_555
O5_5 H3_5 1_555 1_555
O17 C15_5 1_555 1_555
O19_2 C15_5 1_555 1_555
O12_5 In2_5 1_555 1_555
O13_3 C16_5 1_555 1_555
O14_5 H8_5 1_555 1_555
C9_5 C10_5 1_555 1_555
C11_5 C10_5 1_555 1_555
C12_5 C11_5 1_555 1_555
C13_5 O14_5 1_555 1_555
C14_5 C9_5 1_555 1_555
H10_5 C14_5 1_555 1_555
C15_5 C9_5 1_555 1_555
C16_5 O12_5 1_555 1_555
In6 O13_3 1_555 1_555
O16_3 In2_5 1_555 1_555
O20_3 In2_5 1_555 1_555
C12_5 C13_5 1_555 1_555
C12_5 C16_5 1_555 1_555
C13_5 C14_5 1_555 1_555
In6 O16_3 1_555 1_555
In2_6 O2_3 1_555 1_555
O2_3 H2_5 1_555 1_555
O19_3 C7_5 1_555 1_555
O6_5 In2_6 1_555 1_555
O7_3 C8_5 1_555 1_555
O8_5 H4_5 1_555 1_555
C1_5 C2_5 1_555 1_555
C3_5 C2_5 1_555 1_555
C4_5 C3_5 1_555 1_555
C5_5 O8_5 1_555 1_555
C6_5 C1_5 1_555 1_555
H6_5 C6_5 1_555 1_555
C7_5 O17_4 1_555 1_555
C8_5 O6_5 1_555 1_555
O11_5 H7_5 1_555 1_555
In6 O2_3 1_555 1_555
O21_3 In2_6 1_555 1_555
O7_3 In6 1_555 1_555
C1_5 C7_5 1_555 1_555
C4_5 C5_5 1_555 1_555
C4_5 C8_5 1_555 1_555
C5_5 C6_5 1_555 1_555
O14_6 H8_6 1_555 1_555
In2_7 O2_4 1_555 1_555
O2_4 H2_6 1_555 1_555
O17_2 C15_6 1_555 1_555
O19 C15_6 1_555 1_555
O11_6 H7_6 1_555 1_555
O12_6 In2_7 1_555 1_555
O13_4 C16_6 1_555 1_555
C9_6 C10_6 1_555 1_555
C10_6 O11_6 1_555 1_555
C11_6 C10_6 1_555 1_555
H9_6 C11_6 1_555 1_555
C12_6 C11_6 1_555 1_555
C14_6 C9_6 1_555 1_555
C15_6 C9_6 1_555 1_555
C16_6 O12_6 1_555 1_555
In6_3 O13_4 1_555 1_555
In6_2 O2_4 1_555 1_555
O20_4 In2_7 1_555 1_555
C12_6 C13_6 1_555 1_555
C12_6 C16_6 1_555 1_555
C13_6 C14_6 1_555 1_555
O19_4 C7_6 1_555 1_555
O5_6 H3_6 1_555 1_555
O6_6 In2_8 1_555 1_555
O7_4 C8_6 1_555 1_555
C1_6 C2_6 1_555 1_555
C2_6 O5_6 1_555 1_555
C3_6 C2_6 1_555 1_555
H5_6 C3_6 1_555 1_555
C4_6 C3_6 1_555 1_555
C6_6 C1_6 1_555 1_555
C7_6 O17_3 1_555 1_555
C8_6 O6_6 1_555 1_555
O16_4 In2_8 1_555 1_555
O21_4 In2_8 1_555 1_555
O7_4 In6_4 1_555 1_555
C1_6 C7_6 1_555 1_555
C4_6 C5_6 1_555 1_555
C4_6 C8_6 1_555 1_555
C5_6 C6_6 1_555 1_555
In6_5 O16_4 1_555 1_555
O8_6 H4_6 1_555 1_555
O16_4 H2_7 1_555 1_555
O16_3 H2_8 1_555 1_555
O5_7 H3_7 1_555 1_555
O19_7 C7_7 1_555 1_555
O6_7 In6_3 1_555 1_555
O20_4 C8_7 1_555 1_555
O8_7 H4_7 1_555 1_555
C1_7 C2_7 1_555 1_555
C3_7 C2_7 1_555 1_555
C4_7 C3_7 1_555 1_555
C5_7 O8_7 1_555 1_555
C6_7 C1_7 1_555 1_555
H6_7 C6_7 1_555 1_555
C7_7 O17_8 1_555 1_555
C8_7 O6_7 1_555 1_555
C1_7 C7_7 1_555 1_555
C4_7 C5_7 1_555 1_555
C4_7 C8_7 1_555 1_555
C5_7 C6_7 1_555 1_555
O17_5 C15_7 1_555 1_555
O19_6 C15_7 1_555 1_555
O12_7 In6_4 1_555 1_555
O21_4 C16_7 1_555 1_555
O14_7 H8_7 1_555 1_555
C9_7 C10_7 1_555 1_555
C11_7 C10_7 1_555 1_555
C12_7 C11_7 1_555 1_555
C13_7 O14_7 1_555 1_555
C14_7 C9_7 1_555 1_555
H10_7 C14_7 1_555 1_555
C15_7 C9_7 1_555 1_555
C16_7 O12_7 1_555 1_555
C12_7 C13_7 1_555 1_555
C12_7 C16_7 1_555 1_555
C13_7 C14_7 1_555 1_555
O11_7 H7_7 1_555 1_555
O14_8 H8_8 1_555 1_555
O19_8 C7_8 1_555 1_555
O5_8 H3_8 1_555 1_555
O6_8 In6 1_555 1_555
O20_3 C8_8 1_555 1_555
C1_8 C2_8 1_555 1_555
C2_8 O5_8 1_555 1_555
C3_8 C2_8 1_555 1_555
H5_8 C3_8 1_555 1_555
C4_8 C3_8 1_555 1_555
C6_8 C1_8 1_555 1_555
C7_8 O17_7 1_555 1_555
C8_8 O6_8 1_555 1_555
O17_6 C15_8 1_555 1_555
O19_5 C15_8 1_555 1_555
O11_8 H7_8 1_555 1_555
O12_8 In6 1_555 1_555
O21_3 C16_8 1_555 1_555
C9_8 C10_8 1_555 1_555
C10_8 O11_8 1_555 1_555
C11_8 C10_8 1_555 1_555
H9_8 C11_8 1_555 1_555
C12_8 C11_8 1_555 1_555
C14_8 C9_8 1_555 1_555
C15_8 C9_8 1_555 1_555
C16_8 O12_8 1_555 1_555
C1_8 C7_8 1_555 1_555
C4_8 C5_8 1_555 1_555
C4_8 C8_8 1_555 1_555
C5_8 C6_8 1_555 1_555
C12_8 C13_8 1_555 1_555
C12_8 C16_8 1_555 1_555
C13_8 C14_8 1_555 1_555
O8_8 H4_8 1_555 1_555

#END
