
###############################################################################
#
# This file contains modified crystal structure data generated from the
# MOF subset of the Cambridge Structural Database (CSD) v543 
# hosted by the Cambridge Crystallographic Data Centre (CCDC).
#
# This work is licensed under the Creative Commons
# Attribution-NonCommercial-ShareAlike 4.0 International License.
# To view a copy of this license, visit
# http://creativecommons.org/licenses/by-nc-sa/4.0/
# or send a letter to
# Creative Commons, PO Box 1866, Mountain View, CA 94042, USA.
#
# CIF created using the CSD Python API on 29 September 2022
# The structure has been converted into the P1 space group
# The structure has a 3D framework
# The original CSD entry ZADGAQ is in the monoclinic crystal system
# The framework has been calculated to contain at least 10.0% void space
# The void calculation uses a probe of radius 1.32A, grid spacing 0.4
# The framework is charged, counterions have been retained in the structure
# H atom positions have been added when not included in the experimental data
# Generated hydrogen atom positions removed from atoms on special positions
#
###############################################################################

data_ZADGAQ
_chemical_formula_moiety         '(C96 H72 Br6 O38 Pb4)n'
_symmetry_cell_setting           triclinic
_symmetry_space_group_name_H-M   'P 1'
_symmetry_Int_Tables_number      1
_space_group_name_Hall           'P 1'
loop_
_symmetry_equiv_pos_site_id
_symmetry_equiv_pos_as_xyz
1 x,y,z
_cell_length_a                   17.563(3)
_cell_length_b                   23.002(3)
_cell_length_c                   8.0489(14)
_cell_angle_alpha                90
_cell_angle_beta                 116.980(2)
_cell_angle_gamma                90
_cell_volume                     2897.74
loop_
_atom_site_label
_atom_site_type_symbol
_atom_site_fract_x
_atom_site_fract_y
_atom_site_fract_z
Br1 Br 0.5000 0.5000 -0.0000
H4 H 0.2824 0.3628 0.0512
C10 C 0.2503(16) 0.2767(9) 0.040(3)
O7 O 0.1995(11) 0.0705(7) 0.180(2)
O8 O 0.1463(12) 0.1263(7) 0.348(3)
C19 C 0.1830(18) 0.1214(9) 0.234(3)
C20 C 0.2036(15) 0.1753(9) 0.167(4)
C21 C 0.2229(14) 0.1726(8) 0.014(4)
C23 C 0.232(2) 0.2779(11) 0.196(4)
H11 H 0.2391 0.3131 0.2630
C24 C 0.2063(15) 0.2304(9) 0.249(4)
H12 H 0.1888 0.2334 0.3441
Pb6 Pb 0.65874(4) 0.51684(2) 0.40378(10)
Pb8 Pb 0.34126(4) 0.51684(2) 0.09622(10)
Pb9 Pb 0.15874(4) 0.01684(2) 0.40378(10)
Pb1 Pb 0.34126(4) 0.48316(2) 0.59622(10)
Br1_2 Br 0.5000 0.5000 1.0000
O1 O 0.2042(9) 0.4502(7) 0.404(2)
O2 O 0.2747(11) 0.4437(7) 0.229(3)
O3 O 0.3005(11) 0.4295(7) 0.820(2)
O4 O 0.3537(12) 0.3737(7) 0.652(3)
C1 C 0.2066(13) 0.4422(8) 0.244(3)
C2 C 0.1189(16) 0.4312(9) 0.070(3)
C5 C 0.0438(16) 0.4277(14) 0.072(6)
H2 H 0.0488 0.4275 0.1949
C7 C 0.3170(18) 0.3786(9) 0.766(3)
C8 C 0.2964(15) 0.3247(9) 0.833(4)
C9 C 0.2771(14) 0.3274(8) 0.986(4)
C11 C 0.268(2) 0.2221(11) 0.804(4)
H5 H 0.2609 0.1869 0.7370
C12 C 0.2937(15) 0.2696(9) 0.751(4)
H6 H 0.3112 0.2666 0.6559
H10 H 0.2176 0.1372 0.9488
C22 C 0.2497(16) 0.2233(9) 0.960(3)
Pb3 Pb 0.65874(4) 0.48316(2) 0.90378(10)
Br4 Br 0.5000 0.5000 0.5000
O10 O 0.2747(11) 0.5563(7) 0.729(3)
O13 O 0.3005(11) 0.5705(7) 0.320(2)
Pb4 Pb 0.15874(4) 0.98316(2) 0.90378(10)
O5 O 0.7958(9) 0.4502(7) 0.096(2)
O6 O 0.7253(11) 0.4437(7) 0.271(3)
C13 C 0.7934(13) 0.4422(8) 0.256(3)
C14 C 0.8811(16) 0.4312(9) 0.430(3)
C15 C 0.8841(11) 0.4280(8) 0.609(3)
H7 H 0.8334 0.4276 0.6233
C16 C 0.9593(15) 0.4255(10) 0.753(3)
C17 C 0.9562(16) 0.4277(14) 0.428(6)
H8 H 0.9512 0.4275 0.3051
C18 C 0.9681(17) 0.4245(12) 0.949(3)
H9 H 0.9208 0.4217 0.9753
O12 O 0.6995(11) 0.5705(7) 0.180(2)
O9 O 0.7253(11) 0.5563(7) 0.771(3)
O11 O 0.6995(11) 0.4295(7) 0.680(2)
O14 O 0.6463(12) 0.3737(7) 0.848(3)
C7_2 C 0.6830(18) 0.3786(9) 0.734(3)
C8_2 C 0.7036(15) 0.3247(9) 0.667(4)
C9_2 C 0.7229(14) 0.3274(8) 0.514(4)
H4_2 H 0.7176 0.3628 0.4488
C10_2 C 0.7497(16) 0.2767(9) 0.460(3)
C11_2 C 0.732(2) 0.2221(11) 0.696(4)
H5_2 H 0.7391 0.1869 0.7630
C12_2 C 0.7063(15) 0.2696(9) 0.749(4)
H6_2 H 0.6888 0.2666 0.8441
O7_2 O 0.8005(11) 0.0705(7) 0.320(2)
O8_2 O 0.8537(12) 0.1263(7) 0.152(3)
C19_2 C 0.8170(18) 0.1214(9) 0.266(3)
C20_2 C 0.7964(15) 0.1753(9) 0.333(4)
C21_2 C 0.7771(14) 0.1726(8) 0.486(4)
H10_2 H 0.7824 0.1372 0.5512
C22_2 C 0.7503(16) 0.2233(9) 0.540(3)
C23_2 C 0.768(2) 0.2779(11) 0.304(4)
H11_2 H 0.7609 0.3131 0.2370
C24_2 C 0.7937(15) 0.2304(9) 0.251(4)
H12_2 H 0.8112 0.2334 0.1559
Pb9_2 Pb 0.84126(4) 0.01684(2) 0.09622(10)
Pb4_2 Pb 0.84126(4) 0.98316(2) 0.59622(10)
Br1_3 Br -0.0000 -0.0000 -0.0000
Br1_4 Br -0.0000 -0.0000 1.0000
Br4_2 Br -0.0000 -0.0000 0.5000
Br1_5 Br -0.0000 1.0000 -0.0000
Br1_6 Br -0.0000 1.0000 1.0000
Br4_3 Br -0.0000 1.0000 0.5000
Br1_7 Br 1.0000 -0.0000 -0.0000
Br1_8 Br 1.0000 -0.0000 1.0000
Br4_4 Br 1.0000 -0.0000 0.5000
O10_2 O 0.7747(11) 0.0563(7) 0.729(3)
O9_2 O 0.2253(11) 0.0563(7) 0.771(3)
Br1_9 Br 1.0000 1.0000 -0.0000
H4_3 H 0.7824 0.8628 0.0512
C10_3 C 0.7503(16) 0.7767(9) 0.040(3)
O8_3 O 0.6463(12) 0.6263(7) 0.348(3)
C19_3 C 0.6830(18) 0.6214(9) 0.234(3)
C20_3 C 0.7036(15) 0.6753(9) 0.167(4)
C21_3 C 0.7229(14) 0.6726(8) 0.014(4)
C23_3 C 0.732(2) 0.7779(11) 0.196(4)
H11_3 H 0.7391 0.8131 0.2630
C24_3 C 0.7063(15) 0.7304(9) 0.249(4)
H12_3 H 0.6888 0.7334 0.3441
Br1_10 Br 1.0000 1.0000 1.0000
O1_2 O 0.7042(9) 0.9502(7) 0.404(2)
O2_2 O 0.7747(11) 0.9437(7) 0.229(3)
O3_2 O 0.8005(11) 0.9295(7) 0.820(2)
O4_2 O 0.8537(12) 0.8737(7) 0.652(3)
C1_2 C 0.7066(13) 0.9422(8) 0.244(3)
C2_2 C 0.6189(16) 0.9312(9) 0.070(3)
C5_2 C 0.5438(16) 0.9277(14) 0.072(6)
H2_2 H 0.5488 0.9275 0.1949
C7_3 C 0.8170(18) 0.8786(9) 0.766(3)
C8_3 C 0.7964(15) 0.8247(9) 0.833(4)
C9_3 C 0.7771(14) 0.8274(8) 0.986(4)
C11_3 C 0.768(2) 0.7221(11) 0.804(4)
H5_3 H 0.7609 0.6869 0.7370
C12_3 C 0.7937(15) 0.7696(9) 0.751(4)
H6_3 H 0.8112 0.7666 0.6559
H10_3 H 0.7176 0.6372 0.9488
C22_3 C 0.7497(16) 0.7233(9) 0.960(3)
Br4_5 Br 1.0000 1.0000 0.5000
C3 C 0.6159(11) 0.9280(8) 0.891(3)
H1 H 0.6666 0.9276 0.8767
C4 C 0.5407(15) 0.9255(10) 0.747(3)
C6 C 0.5319(17) 0.9245(12) 0.551(3)
H3 H 0.5792 0.9217 0.5247
O5_2 O 0.2958(9) 0.9502(7) 0.096(2)
O6_2 O 0.2253(11) 0.9437(7) 0.271(3)
C13_2 C 0.2934(13) 0.9422(8) 0.256(3)
C14_2 C 0.3811(16) 0.9312(9) 0.430(3)
C15_2 C 0.3841(11) 0.9280(8) 0.609(3)
H7_2 H 0.3334 0.9276 0.6233
C16_2 C 0.4593(15) 0.9255(10) 0.753(3)
C17_2 C 0.4562(16) 0.9277(14) 0.428(6)
H8_2 H 0.4512 0.9275 0.3051
C18_2 C 0.4681(17) 0.9245(12) 0.949(3)
H9_2 H 0.4208 0.9217 0.9753
O11_2 O 0.1995(11) 0.9295(7) 0.680(2)
O14_2 O 0.1463(12) 0.8737(7) 0.848(3)
C7_4 C 0.1830(18) 0.8786(9) 0.734(3)
C8_4 C 0.2036(15) 0.8247(9) 0.667(4)
C9_4 C 0.2229(14) 0.8274(8) 0.514(4)
H4_4 H 0.2176 0.8628 0.4488
C10_4 C 0.2497(16) 0.7767(9) 0.460(3)
C11_4 C 0.232(2) 0.7221(11) 0.696(4)
H5_4 H 0.2391 0.6869 0.7630
C12_4 C 0.2063(15) 0.7696(9) 0.749(4)
H6_4 H 0.1888 0.7666 0.8441
O8_4 O 0.3537(12) 0.6263(7) 0.152(3)
C19_4 C 0.3170(18) 0.6214(9) 0.266(3)
C20_4 C 0.2964(15) 0.6753(9) 0.333(4)
C21_4 C 0.2771(14) 0.6726(8) 0.486(4)
H10_4 H 0.2824 0.6372 0.5512
C22_4 C 0.2503(16) 0.7233(9) 0.540(3)
C23_4 C 0.268(2) 0.7779(11) 0.304(4)
H11_4 H 0.2609 0.8131 0.2370
C24_4 C 0.2937(15) 0.7304(9) 0.251(4)
H12_4 H 0.3112 0.7334 0.1559
O5_3 O 0.2042(9) 0.5498(7) 0.904(2)
C13_3 C 0.2066(13) 0.5578(8) 0.744(3)
C14_3 C 0.1189(16) 0.5688(9) 0.570(3)
C15_3 C 0.1159(11) 0.5720(8) 0.391(3)
H7_3 H 0.1666 0.5724 0.3767
C16_3 C 0.0407(15) 0.5745(10) 0.247(3)
C17_3 C 0.0438(16) 0.5723(14) 0.572(6)
H8_3 H 0.0488 0.5725 0.6949
C18_3 C 0.0319(17) 0.5755(12) 0.051(3)
H9_3 H 0.0792 0.5783 0.0247
O1_3 O 0.7958(9) 0.5498(7) 0.596(2)
C1_3 C 0.7934(13) 0.5578(8) 0.756(3)
C2_3 C 0.8811(16) 0.5688(9) 0.930(3)
C5_3 C 0.9562(16) 0.5723(14) 0.928(6)
H2_3 H 0.9512 0.5725 0.8051
C3_2 C 0.3841(11) 0.0720(8) 0.109(3)
H1_2 H 0.3334 0.0724 0.1233
C4_2 C 0.4593(15) 0.0745(10) 0.253(3)
C6_2 C 0.4681(17) 0.0755(12) 0.449(3)
H3_2 H 0.4208 0.0783 0.4753
O5_4 O 0.7042(9) 0.0498(7) 0.904(2)
C13_4 C 0.7066(13) 0.0578(8) 0.744(3)
C14_4 C 0.6189(16) 0.0688(9) 0.570(3)
C15_4 C 0.6159(11) 0.0720(8) 0.391(3)
H7_4 H 0.6666 0.0724 0.3767
C16_4 C 0.5407(15) 0.0745(10) 0.247(3)
C17_4 C 0.5438(16) 0.0723(14) 0.572(6)
H8_4 H 0.5488 0.0725 0.6949
C18_4 C 0.5319(17) 0.0755(12) 0.051(3)
H9_4 H 0.5792 0.0783 0.0247
O1_4 O 0.2958(9) 0.0498(7) 0.596(2)
C1_4 C 0.2934(13) 0.0578(8) 0.756(3)
C2_4 C 0.3811(16) 0.0688(9) 0.930(3)
C5_4 C 0.4562(16) 0.0723(14) 0.928(6)
H2_4 H 0.4512 0.0725 0.8051
C3_3 C 0.1159(11) 0.4280(8) 0.891(3)
H1_3 H 0.1666 0.4276 0.8767
C4_3 C 0.0407(15) 0.4255(10) 0.747(3)
C6_3 C 0.0319(17) 0.4245(12) 0.551(3)
H3_3 H 0.0792 0.4217 0.5247
C3_4 C 0.8841(11) 0.5720(8) 0.109(3)
H1_4 H 0.8334 0.5724 0.1233
C4_4 C 0.9593(15) 0.5745(10) 0.253(3)
C6_4 C 0.9681(17) 0.5755(12) 0.449(3)
H3_4 H 0.9208 0.5783 0.4753
O15 O 0.5000 0.296(9) 0.2500
O15_2 O 0.0000 0.796(9) 0.2500
O15_3 O 1.0000 0.796(9) 0.2500
O15_4 O 0.5000 0.704(9) 0.7500
O15_5 O -0.0000 0.204(9) 0.7500
O15_6 O 1.0000 0.204(9) 0.7500
loop_
_geom_bond_atom_site_label_1
_geom_bond_atom_site_label_2
_geom_bond_site_symmetry_1
_geom_bond_site_symmetry_2
O7 C19 1_555 1_555
O8 C19 1_555 1_555
C19 C20 1_555 1_555
C20 C21 1_555 1_555
C23 C10 1_555 1_555
H11 C23 1_555 1_555
C24 C20 1_555 1_555
H12 C24 1_555 1_555
Pb6 Br1 1_555 1_555
Pb8 Br1 1_555 1_555
Pb9 O7 1_555 1_555
O8 Pb9 1_555 1_555
C23 C24 1_555 1_555
Pb1 Br1_2 1_555 1_555
Br1_2 Pb3 1_555 1_555
O1 Pb1 1_555 1_555
O2 Pb1 1_555 1_555
O3 Pb1 1_555 1_555
O4 Pb1 1_555 1_555
C1 O1 1_555 1_555
C2 C1 1_555 1_555
C5 C2 1_555 1_555
H2 C5 1_555 1_555
C7 O3 1_555 1_555
C8 C7 1_555 1_555
C9 C8 1_555 1_555
C11 H5 1_555 1_555
C12 C8 1_555 1_555
H6 C12 1_555 1_555
Pb3 Br4 1_555 1_555
Pb8 O2 1_555 1_555
Br4 Pb1 1_555 1_555
O10 Pb1 1_555 1_555
O13 Pb1 1_555 1_555
O2 C1 1_555 1_555
O4 C7 1_555 1_555
C11 C12 1_555 1_555
C11 C22 1_555 1_555
Pb8 Br4 1_555 1_555
Pb8 O13 1_555 1_555
O5 C13 1_555 1_555
O6 C13 1_555 1_555
C13 C14 1_555 1_555
C14 C15 1_555 1_555
C15 H7 1_555 1_555
H8 C17 1_555 1_555
H9 C18 1_555 1_555
Pb6 O6 1_555 1_555
C14 C17 1_555 1_555
C15 C16 1_555 1_555
C16 C18 1_555 1_555
Pb6 O12 1_555 1_555
O9 Pb3 1_555 1_555
O11 Pb3 1_555 1_555
O14 Pb3 1_555 1_555
C7_2 O11 1_555 1_555
C8_2 C7_2 1_555 1_555
C9_2 C8_2 1_555 1_555
H4_2 C9_2 1_555 1_555
C10_2 C9_2 1_555 1_555
C11_2 H5_2 1_555 1_555
C12_2 C8_2 1_555 1_555
H6_2 C12_2 1_555 1_555
O7_2 C19_2 1_555 1_555
O8_2 C19_2 1_555 1_555
C19_2 C20_2 1_555 1_555
C20_2 C21_2 1_555 1_555
C21_2 H10_2 1_555 1_555
C22_2 C10_2 1_555 1_555
C23_2 C10_2 1_555 1_555
H11_2 C23_2 1_555 1_555
C24_2 C20_2 1_555 1_555
H12_2 C24_2 1_555 1_555
Pb6 Br4 1_555 1_555
Pb9_2 O7_2 1_555 1_555
O11 Pb6 1_555 1_555
O14 C7_2 1_555 1_555
C11_2 C12_2 1_555 1_555
C11_2 C22_2 1_555 1_555
O8_2 Pb9_2 1_555 1_555
C21_2 C22_2 1_555 1_555
C23_2 C24_2 1_555 1_555
Pb6 O9 1_555 1_555
Pb9 Br1_3 1_555 1_555
Br1_6 Pb4 1_555 1_555
Pb4 Br4_3 1_555 1_555
Pb9_2 Br1_7 1_555 1_555
Pb9_2 Br4_4 1_555 1_555
O12 C19_3 1_555 1_555
O8_3 C19_3 1_555 1_555
C19_3 C20_3 1_555 1_555
C20_3 C21_3 1_555 1_555
C23_3 C10_3 1_555 1_555
H11_3 C23_3 1_555 1_555
C24_3 C20_3 1_555 1_555
H12_3 C24_3 1_555 1_555
O8_3 Pb6 1_555 1_555
C23_3 C24_3 1_555 1_555
Pb4_2 Br1_10 1_555 1_555
O1_2 Pb4_2 1_555 1_555
O2_2 Pb4_2 1_555 1_555
O3_2 Pb4_2 1_555 1_555
O4_2 Pb4_2 1_555 1_555
C1_2 O1_2 1_555 1_555
C2_2 C1_2 1_555 1_555
C5_2 C2_2 1_555 1_555
H2_2 C5_2 1_555 1_555
C7_3 O3_2 1_555 1_555
C8_3 C7_3 1_555 1_555
C9_3 C8_3 1_555 1_555
C11_3 H5_3 1_555 1_555
C12_3 C8_3 1_555 1_555
H6_3 C12_3 1_555 1_555
Br4_5 Pb4_2 1_555 1_555
O2_2 C1_2 1_555 1_555
O4_2 C7_3 1_555 1_555
C11_3 C12_3 1_555 1_555
C11_3 C22_3 1_555 1_555
H1 C3 1_555 1_555
C4 C3 1_555 1_555
C6 C4 1_555 1_555
H3 C6 1_555 1_555
O5_2 C13_2 1_555 1_555
O6_2 C13_2 1_555 1_555
C13_2 C14_2 1_555 1_555
C14_2 C15_2 1_555 1_555
C15_2 H7_2 1_555 1_555
C16_2 C4 1_555 1_555
C17_2 C6 1_555 1_555
H8_2 C17_2 1_555 1_555
H9_2 C18_2 1_555 1_555
C14_2 C17_2 1_555 1_555
C15_2 C16_2 1_555 1_555
C16_2 C18_2 1_555 1_555
O11_2 Pb4 1_555 1_555
O14_2 Pb4 1_555 1_555
Pb9 Br4_2 1_555 1_555
Pb9 O9_2 1_555 1_555
C7_4 O11_2 1_555 1_555
C8_4 C7_4 1_555 1_555
C9_4 C8_4 1_555 1_555
H4_4 C9_4 1_555 1_555
C10_4 C9_4 1_555 1_555
C11_4 H5_4 1_555 1_555
C12_4 C8_4 1_555 1_555
H6_4 C12_4 1_555 1_555
O13 C19_4 1_555 1_555
O8_4 C19_4 1_555 1_555
C19_4 C20_4 1_555 1_555
C20_4 C21_4 1_555 1_555
C21_4 H10_4 1_555 1_555
C22_4 C10_4 1_555 1_555
C23_4 C10_4 1_555 1_555
H11_4 C23_4 1_555 1_555
C24_4 C20_4 1_555 1_555
H12_4 C24_4 1_555 1_555
O14_2 C7_4 1_555 1_555
C11_4 C12_4 1_555 1_555
C11_4 C22_4 1_555 1_555
O8_4 Pb8 1_555 1_555
C21_4 C22_4 1_555 1_555
C23_4 C24_4 1_555 1_555
O5_3 C13_3 1_555 1_555
O10 C13_3 1_555 1_555
C13_3 C14_3 1_555 1_555
C14_3 C15_3 1_555 1_555
C15_3 H7_3 1_555 1_555
H8_3 C17_3 1_555 1_555
H9_3 C18_3 1_555 1_555
C14_3 C17_3 1_555 1_555
C15_3 C16_3 1_555 1_555
C16_3 C18_3 1_555 1_555
O1_3 Pb6 1_555 1_555
C1_3 O1_3 1_555 1_555
C2_3 C1_3 1_555 1_555
C5_3 C2_3 1_555 1_555
H2_3 C5_3 1_555 1_555
O9 C1_3 1_555 1_555
H1_2 C3_2 1_555 1_555
C4_2 C3_2 1_555 1_555
C6_2 C4_2 1_555 1_555
H3_2 C6_2 1_555 1_555
O5_4 C13_4 1_555 1_555
O10_2 C13_4 1_555 1_555
C13_4 C14_4 1_555 1_555
C14_4 C15_4 1_555 1_555
C15_4 H7_4 1_555 1_555
C16_4 C4_2 1_555 1_555
C17_4 C6_2 1_555 1_555
H8_4 C17_4 1_555 1_555
H9_4 C18_4 1_555 1_555
C14_4 C17_4 1_555 1_555
C15_4 C16_4 1_555 1_555
C16_4 C18_4 1_555 1_555
O1_4 Pb9 1_555 1_555
C1_4 O1_4 1_555 1_555
C2_4 C1_4 1_555 1_555
C5_4 C2_4 1_555 1_555
H2_4 C5_4 1_555 1_555
O9_2 C1_4 1_555 1_555
H1_3 C3_3 1_555 1_555
C4_3 C3_3 1_555 1_555
C6_3 C4_3 1_555 1_555
H3_3 C6_3 1_555 1_555
H1_4 C3_4 1_555 1_555
C4_4 C3_4 1_555 1_555
C6_4 C4_4 1_555 1_555
H3_4 C6_4 1_555 1_555

#END
