
###############################################################################
#
# This file contains modified crystal structure data generated from the
# MOF subset of the Cambridge Structural Database (CSD) v543 
# hosted by the Cambridge Crystallographic Data Centre (CCDC).
#
# This work is licensed under the Creative Commons
# Attribution-NonCommercial-ShareAlike 4.0 International License.
# To view a copy of this license, visit
# http://creativecommons.org/licenses/by-nc-sa/4.0/
# or send a letter to
# Creative Commons, PO Box 1866, Mountain View, CA 94042, USA.
#
# CIF created using the CSD Python API on 29 September 2022
# The structure has been converted into the P1 space group
# The structure has a 3D framework
# The original CSD entry ZAFWUB is in the cubic crystal system
# The framework has been calculated to contain at least 10.0% void space
# The void calculation uses a probe of radius 1.32A, grid spacing 0.4
# The framework is charged, counterions have been retained in the structure
#
###############################################################################

data_ZAFWUB
_chemical_formula_moiety         '(C96 H48 O107 Tb19 3-)n'
_symmetry_cell_setting           triclinic
_symmetry_space_group_name_H-M   'P 1'
_symmetry_Int_Tables_number      1
_space_group_name_Hall           'P 1'
loop_
_symmetry_equiv_pos_site_id
_symmetry_equiv_pos_as_xyz
1 x,y,z
_cell_length_a                   18.6657(6)
_cell_length_b                   18.6657(6)
_cell_length_c                   18.6657(6)
_cell_angle_alpha                90
_cell_angle_beta                 90
_cell_angle_gamma                90
_cell_volume                     6503.29
loop_
_atom_site_label
_atom_site_type_symbol
_atom_site_fract_x
_atom_site_fract_y
_atom_site_fract_z
O26 O 0.4034(5) 0.0108(5) 0.2896(5)
C20 C 0.3401(9) 0.0005(8) 0.3063(10)
O30 O 0.0966(5) 0.0108(5) 0.2104(5)
C24 C 0.1599(9) 0.0005(8) 0.1937(10)
Tb14 Tb 0.51230(3) 0.01310(4) 0.35257(3)
O39 O 0.0798(4) 0.0557(4) 0.9317(4)
O40 O 0.4202(4) 0.0557(4) 0.5683(4)
O42 O 0.4328(4) 0.0672(4) 0.4328(4)
O49 O 0.0227(4) 0.0957(5) 0.7916(5)
O57 O 0.2896(5) 0.0966(5) 0.4892(5)
Tb6 Tb 0.35257(3) 0.51230(3) 0.01310(4)
O32 O 0.4443(4) 0.5683(4) 0.0798(4)
Tb8 Tb 0.51310(4) 0.64743(3) 0.01230(3)
Tb16 Tb 0.51230(3) 0.48690(4) 0.14743(3)
Tb19 Tb 0.14743(3) 0.98770(3) 0.01310(4)
O37 O 0.5683(4) 0.4202(4) 0.0557(4)
O43 O 0.4328(4) 0.4328(4) 0.0672(4)
O45 O 0.3118(5) 0.6321(5) 0.0237(5)
O51 O 0.3100(6) 0.5072(5) 0.1321(6)
O55 O 0.4892(5) 0.2896(5) 0.0966(5)
O56 O 0.2896(5) 0.4034(5) 0.0108(5)
Tb1 Tb 0.01230(3) 0.51310(4) 0.64743(3)
O1 O 0.0683(4) 0.5798(4) 0.5557(4)
O3 O 0.1321(5) 0.5237(5) 0.6882(5)
O4 O 0.2084(5) 0.5227(4) 0.5957(5)
O5 O 0.0072(5) 0.6321(6) 0.6900(6)
C1 C 0.1915(8) 0.5236(8) 0.6624(9)
C2 C 0.0002(10) 0.7543(10) 0.7129(10)
H1 H 0.0006 0.8007 0.6949
C3 C 0.2522(10) 0.5279(9) 0.7139(10)
H2 H 0.2979 0.5308 0.6943
O7 O 0.3679(5) 0.5237(5) 0.8118(5)
C5 C 0.3085(8) 0.5236(8) 0.8376(9)
C6 C 0.2478(10) 0.5279(9) 0.7861(10)
H3 H 0.2021 0.5308 0.8057
O8 O 0.2916(5) 0.5227(4) 0.9043(5)
O9 O 0.0072(5) 0.8679(6) 0.8100(6)
C7 C 0.0002(10) 0.7457(10) 0.7871(10)
H4 H 0.0006 0.6993 0.8051
Tb2 Tb 0.01230(3) 0.98690(4) 0.85257(3)
O11 O 0.0683(4) 0.9202(4) 0.9443(4)
O13 O 0.1321(5) 0.9763(5) 0.8118(5)
O14 O 0.2084(5) 0.9773(4) 0.9043(5)
C9 C 0.1915(8) 0.9764(8) 0.8376(9)
C10 C 0.2522(10) 0.9721(9) 0.7861(10)
H5 H 0.2979 0.9692 0.8057
O15 O 0.3679(5) 0.9763(5) 0.6882(5)
C11 C 0.3085(8) 0.9764(8) 0.6624(9)
C12 C 0.2478(10) 0.9721(9) 0.7139(10)
H6 H 0.2021 0.9692 0.6943
O16 O 0.2916(5) 0.9773(4) 0.5957(5)
Tb3 Tb 0.48770(3) 0.51310(4) 0.85257(3)
O17 O 0.4317(4) 0.5798(4) 0.9443(4)
O18 O 0.4928(5) 0.6321(6) 0.8100(6)
O19 O 0.5108(5) 0.7104(5) 0.9034(5)
C13 C 0.4998(10) 0.7543(10) 0.7871(10)
H7 H 0.4994 0.8007 0.8051
C14 C 0.5005(8) 0.6937(10) 0.8401(9)
O20 O 0.4928(5) 0.8679(6) 0.6900(6)
O21 O 0.5108(5) 0.7896(5) 0.5966(5)
C15 C 0.4998(10) 0.7457(10) 0.7129(10)
H8 H 0.4994 0.6993 0.6949
C16 C 0.5005(8) 0.8063(10) 0.6599(9)
Tb4 Tb 0.35257(3) 0.98770(3) 0.48690(4)
O22 O 0.4443(4) 0.9317(4) 0.4202(4)
O23 O 0.3118(5) 0.8679(5) 0.4763(5)
O24 O 0.4043(5) 0.7916(5) 0.4773(4)
O25 O 0.3100(6) 0.9928(5) 0.3679(6)
C17 C 0.3376(9) 0.8085(8) 0.4764(8)
C18 C 0.2871(10) 0.9998(10) 0.2457(10)
H9 H 0.3051 0.9994 0.1993
C19 C 0.2861(10) 0.7478(10) 0.4721(9)
H10 H 0.3057 0.7021 0.4692
O27 O 0.1882(5) 0.6321(5) 0.4763(5)
C21 C 0.1624(9) 0.6915(8) 0.4764(8)
C22 C 0.2139(10) 0.7522(10) 0.4721(9)
H11 H 0.1943 0.7979 0.4692
O28 O 0.0957(5) 0.7084(5) 0.4773(4)
O29 O 0.1900(6) 0.9928(5) 0.1321(6)
C23 C 0.2129(10) 0.9998(10) 0.2543(10)
H12 H 0.1949 0.9994 0.3007
Tb5 Tb 0.48690(4) 0.35257(3) 0.98770(3)
O31 O 0.4202(4) 0.4443(4) 0.9317(4)
Tb7 Tb 0.48770(3) 0.98690(4) 0.64743(3)
Tb13 Tb 0.51310(4) 0.85257(3) 0.48770(3)
Tb17 Tb 0.14743(3) 0.51230(3) 0.48690(4)
O33 O 0.4317(4) 0.9202(4) 0.5557(4)
O35 O 0.5557(4) 0.4317(4) 0.9202(4)
O38 O 0.0798(4) 0.4443(4) 0.5683(4)
O41 O 0.5672(4) 0.5672(4) 0.9328(4)
O44 O 0.4763(5) 0.3118(5) 0.8679(5)
O46 O 0.5957(5) 0.2916(5) 0.9773(4)
O47 O 0.4773(4) 0.4043(5) 0.7916(5)
O48 O 0.0227(4) 0.4043(5) 0.7084(5)
O50 O 0.3679(6) 0.3100(6) 0.9928(5)
O53 O 0.5966(5) 0.5108(5) 0.7896(5)
Tb12 Tb 0.85257(3) 0.01230(3) 0.98690(4)
Tb15 Tb 0.98770(3) 0.01310(4) 0.14743(3)
O36 O 0.9443(4) 0.0683(4) 0.9202(4)
Tb11 Tb 0.98690(4) 0.85257(3) 0.01230(3)
O2 O 0.9328(4) 0.5672(4) 0.5672(4)
O6 O 0.9892(5) 0.7104(5) 0.5966(5)
C4 C 0.9995(8) 0.6937(10) 0.6599(9)
O10 O 0.9892(5) 0.7896(5) 0.9034(5)
C8 C 0.9995(8) 0.8063(10) 0.8401(9)
O12 O 0.9328(4) 0.9328(4) 0.9328(4)
Tb9 Tb 0.85257(3) 0.48770(3) 0.51310(4)
Tb10 Tb 0.98690(4) 0.64743(3) 0.48770(3)
O34 O 0.9443(4) 0.4317(4) 0.5798(4)
O52 O 0.9034(5) 0.5108(5) 0.7104(5)
O54 O 0.9034(5) 0.9892(5) 0.7896(5)
O43_2 O 0.0672(4) 0.0672(4) 0.0672(4)
O55_2 O 0.0108(5) 0.2104(5) 0.0966(5)
O56_2 O 0.2104(5) 0.0966(5) 0.0108(5)
Tb5_2 Tb 0.01310(4) 0.14743(3) 0.98770(3)
Tb9_2 Tb 0.64743(3) 0.01230(3) 0.51310(4)
O34_2 O 0.5557(4) 0.0683(4) 0.5798(4)
O44_2 O 0.0237(5) 0.1882(5) 0.8679(5)
O48_2 O 0.4773(4) 0.0957(5) 0.7084(5)
O50_2 O 0.1321(6) 0.1900(6) 0.9928(5)
O32_2 O 0.0557(4) 0.9317(4) 0.0798(4)
O45_2 O 0.1882(5) 0.8679(5) 0.0237(5)
O2_2 O 0.5672(4) 0.9328(4) 0.5672(4)
O22_2 O 0.0557(4) 0.5683(4) 0.4202(4)
O25_2 O 0.1900(6) 0.5072(5) 0.3679(6)
O26_2 O 0.0966(5) 0.4892(5) 0.2896(5)
C18_2 C 0.2129(10) 0.5002(10) 0.2457(10)
H9_2 H 0.1949 0.5006 0.1993
C20_2 C 0.1599(9) 0.4995(8) 0.3063(10)
O30_2 O 0.4034(5) 0.4892(5) 0.2104(5)
C23_2 C 0.2871(10) 0.5002(10) 0.2543(10)
H12_2 H 0.3051 0.5006 0.3007
C24_2 C 0.3401(9) 0.4995(8) 0.1937(10)
Tb12_2 Tb 0.64743(3) 0.48770(3) 0.98690(4)
O42_2 O 0.0672(4) 0.4328(4) 0.4328(4)
O52_2 O 0.5966(5) 0.9892(5) 0.7104(5)
O57_2 O 0.2104(5) 0.4034(5) 0.4892(5)
O37_2 O 0.9317(4) 0.0798(4) 0.0557(4)
O46_2 O 0.9043(5) 0.2084(5) 0.9773(4)
Tb14_2 Tb 0.98770(3) 0.48690(4) 0.35257(3)
Tb5_3 Tb 0.48690(4) 0.14743(3) 0.51230(3)
O37_3 O 0.5683(4) 0.0798(4) 0.4443(4)
O44_3 O 0.4763(5) 0.1882(5) 0.6321(5)
O46_3 O 0.5957(5) 0.2084(5) 0.5227(4)
O50_3 O 0.3679(6) 0.1900(6) 0.5072(5)
O55_3 O 0.4892(5) 0.2104(5) 0.4034(5)
O24_2 O 0.4043(5) 0.7084(5) 0.0227(4)
C17_2 C 0.3376(9) 0.6915(8) 0.0236(8)
C19_2 C 0.2861(10) 0.7522(10) 0.0279(9)
H10_2 H 0.3057 0.7979 0.0308
C21_2 C 0.1624(9) 0.8085(8) 0.0236(8)
C22_2 C 0.2139(10) 0.7478(10) 0.0279(9)
H11_2 H 0.1943 0.7021 0.0308
O28_2 O 0.0957(5) 0.7916(5) 0.0227(4)
Tb5_4 Tb 0.01310(4) 0.35257(3) 0.51230(3)
O44_4 O 0.0237(5) 0.3118(5) 0.6321(5)
O50_4 O 0.1321(6) 0.3100(6) 0.5072(5)
O55_4 O 0.0108(5) 0.2896(5) 0.4034(5)
O37_4 O 0.9317(4) 0.4202(4) 0.4443(4)
O46_4 O 0.9043(5) 0.2916(5) 0.5227(4)
C20_3 C 0.3063(10) 0.3401(9) 0.0005(8)
C24_3 C 0.1937(10) 0.1599(9) 0.0005(8)
O49_2 O 0.7916(5) 0.0227(4) 0.0957(5)
O3_2 O 0.6882(5) 0.1321(5) 0.5237(5)
O5_2 O 0.6900(6) 0.0072(5) 0.6321(6)
C1_2 C 0.6624(9) 0.1915(8) 0.5236(8)
C2_2 C 0.7129(10) 0.0002(10) 0.7543(10)
H1_2 H 0.6949 0.0006 0.8007
C3_2 C 0.7139(10) 0.2522(10) 0.5279(9)
H2_2 H 0.6943 0.2979 0.5308
O7_2 O 0.8118(5) 0.3679(5) 0.5237(5)
C5_2 C 0.8376(9) 0.3085(8) 0.5236(8)
C6_2 C 0.7861(10) 0.2478(10) 0.5279(9)
H3_2 H 0.8057 0.2021 0.5308
O9_2 O 0.8100(6) 0.0072(5) 0.8679(6)
C7_2 C 0.7871(10) 0.0002(10) 0.7457(10)
H4_2 H 0.8051 0.0006 0.6993
O13_2 O 0.8118(5) 0.1321(5) 0.9763(5)
C9_2 C 0.8376(9) 0.1915(8) 0.9764(8)
C10_2 C 0.7861(10) 0.2522(10) 0.9721(9)
H5_2 H 0.8057 0.2979 0.9692
O15_2 O 0.6882(5) 0.3679(5) 0.9763(5)
C11_2 C 0.6624(9) 0.3085(8) 0.9764(8)
C12_2 C 0.7139(10) 0.2478(10) 0.9721(9)
H6_2 H 0.6943 0.2021 0.9692
O18_2 O 0.8100(6) 0.4928(5) 0.6321(6)
C13_2 C 0.7871(10) 0.4998(10) 0.7543(10)
H7_2 H 0.8051 0.4994 0.8007
C14_2 C 0.8401(9) 0.5005(8) 0.6937(10)
O20_2 O 0.6900(6) 0.4928(5) 0.8679(6)
C15_2 C 0.7129(10) 0.4998(10) 0.7457(10)
H8_2 H 0.6949 0.4994 0.6993
C16_2 C 0.6599(9) 0.5005(8) 0.8063(10)
C17_3 C 0.4764(8) 0.3376(9) 0.8085(8)
C18_3 C 0.2457(10) 0.2871(10) 0.9998(10)
H9_3 H 0.1993 0.3051 0.9994
C19_3 C 0.4721(9) 0.2861(10) 0.7478(10)
H10_3 H 0.4692 0.3057 0.7021
C21_3 C 0.4764(8) 0.1624(9) 0.6915(8)
C22_3 C 0.4721(9) 0.2139(10) 0.7522(10)
H11_3 H 0.4692 0.1943 0.7979
C23_3 C 0.2543(10) 0.2129(10) 0.9998(10)
H12_3 H 0.3007 0.1949 0.9994
O35_2 O 0.9202(4) 0.5557(4) 0.4317(4)
O44_5 O 0.8679(5) 0.4763(5) 0.3118(5)
O46_5 O 0.9773(4) 0.5957(5) 0.2916(5)
O47_2 O 0.7916(5) 0.4773(4) 0.4043(5)
O48_3 O 0.7084(5) 0.0227(4) 0.4043(5)
O50_5 O 0.9928(5) 0.3679(6) 0.3100(6)
O53_2 O 0.7896(5) 0.5966(5) 0.5108(5)
O36_2 O 0.9202(4) 0.9443(4) 0.0683(4)
C4_2 C 0.6599(9) 0.9995(8) 0.6937(10)
C8_2 C 0.8401(9) 0.9995(8) 0.8063(10)
O34_3 O 0.5798(4) 0.9443(4) 0.4317(4)
O52_3 O 0.7104(5) 0.9034(5) 0.5108(5)
O54_2 O 0.7896(5) 0.9034(5) 0.9892(5)
C20_4 C 0.0005(8) 0.3063(10) 0.3401(9)
C24_4 C 0.0005(8) 0.1937(10) 0.1599(9)
O45_3 O 0.6321(5) 0.0237(5) 0.3118(5)
O51_2 O 0.5072(5) 0.1321(6) 0.3100(6)
O1_2 O 0.5798(4) 0.5557(4) 0.0683(4)
O3_3 O 0.5237(5) 0.6882(5) 0.1321(5)
O4_2 O 0.5227(4) 0.5957(5) 0.2084(5)
O5_3 O 0.6321(6) 0.6900(6) 0.0072(5)
C1_3 C 0.5236(8) 0.6624(9) 0.1915(8)
C2_3 C 0.7543(10) 0.7129(10) 0.0002(10)
H1_3 H 0.8007 0.6949 0.0006
C3_3 C 0.5279(9) 0.7139(10) 0.2522(10)
H2_3 H 0.5308 0.6943 0.2979
O7_3 O 0.5237(5) 0.8118(5) 0.3679(5)
C5_3 C 0.5236(8) 0.8376(9) 0.3085(8)
C6_3 C 0.5279(9) 0.7861(10) 0.2478(10)
H3_3 H 0.5308 0.8057 0.2021
O8_2 O 0.5227(4) 0.9043(5) 0.2916(5)
O9_3 O 0.8679(6) 0.8100(6) 0.0072(5)
C7_3 C 0.7457(10) 0.7871(10) 0.0002(10)
H4_3 H 0.6993 0.8051 0.0006
O13_3 O 0.9763(5) 0.8118(5) 0.1321(5)
O14_2 O 0.9773(4) 0.9043(5) 0.2084(5)
C9_3 C 0.9764(8) 0.8376(9) 0.1915(8)
C10_3 C 0.9721(9) 0.7861(10) 0.2522(10)
H5_3 H 0.9692 0.8057 0.2979
O15_3 O 0.9763(5) 0.6882(5) 0.3679(5)
C11_3 C 0.9764(8) 0.6624(9) 0.3085(8)
C12_3 C 0.9721(9) 0.7139(10) 0.2478(10)
H6_3 H 0.9692 0.6943 0.2021
O18_3 O 0.6321(6) 0.8100(6) 0.4928(5)
C13_3 C 0.7543(10) 0.7871(10) 0.4998(10)
H7_3 H 0.8007 0.8051 0.4994
C14_3 C 0.6937(10) 0.8401(9) 0.5005(8)
O20_3 O 0.8679(6) 0.6900(6) 0.4928(5)
C15_3 C 0.7457(10) 0.7129(10) 0.4998(10)
H8_3 H 0.6993 0.6949 0.4994
C16_3 C 0.8063(10) 0.6599(9) 0.5005(8)
C17_4 C 0.8085(8) 0.4764(8) 0.3376(9)
C18_4 C 0.9998(10) 0.2457(10) 0.2871(10)
H9_4 H 0.9994 0.1993 0.3051
C19_4 C 0.7478(10) 0.4721(9) 0.2861(10)
H10_4 H 0.7021 0.4692 0.3057
O27_2 O 0.6321(5) 0.4763(5) 0.1882(5)
C21_4 C 0.6915(8) 0.4764(8) 0.1624(9)
C22_4 C 0.7522(10) 0.4721(9) 0.2139(10)
H11_4 H 0.7979 0.4692 0.1943
O28_3 O 0.7084(5) 0.4773(4) 0.0957(5)
O29_2 O 0.9928(5) 0.1321(6) 0.1900(6)
C23_4 C 0.9998(10) 0.2543(10) 0.2129(10)
H12_4 H 0.9994 0.3007 0.1949
O6_2 O 0.7104(5) 0.5966(5) 0.9892(5)
C4_3 C 0.6937(10) 0.6599(9) 0.9995(8)
C8_3 C 0.8063(10) 0.8401(9) 0.9995(8)
C17_5 C 0.0236(8) 0.1624(9) 0.8085(8)
C19_5 C 0.0279(9) 0.2139(10) 0.7478(10)
H10_5 H 0.0308 0.1943 0.7021
C21_5 C 0.0236(8) 0.3376(9) 0.6915(8)
C22_5 C 0.0279(9) 0.2861(10) 0.7522(10)
H11_5 H 0.0308 0.3057 0.7979
O45_4 O 0.8679(5) 0.0237(5) 0.1882(5)
O25_3 O 0.5072(5) 0.3679(6) 0.1900(6)
C18_5 C 0.5002(10) 0.2457(10) 0.2129(10)
H9_5 H 0.5006 0.1993 0.1949
C20_5 C 0.4995(8) 0.3063(10) 0.1599(9)
C23_5 C 0.5002(10) 0.2543(10) 0.2871(10)
H12_5 H 0.5006 0.3007 0.3051
C24_5 C 0.4995(8) 0.1937(10) 0.3401(9)
C18_6 C 0.2457(10) 0.2129(10) 0.5002(10)
H9_6 H 0.1993 0.1949 0.5006
C20_6 C 0.3063(10) 0.1599(9) 0.4995(8)
C23_6 C 0.2543(10) 0.2871(10) 0.5002(10)
H12_6 H 0.3007 0.3051 0.5006
C24_6 C 0.1937(10) 0.3401(9) 0.4995(8)
C17_6 C 0.6915(8) 0.0236(8) 0.3376(9)
C19_6 C 0.7522(10) 0.0279(9) 0.2861(10)
H10_6 H 0.7979 0.0308 0.3057
C21_6 C 0.8085(8) 0.0236(8) 0.1624(9)
C22_6 C 0.7478(10) 0.0279(9) 0.2139(10)
H11_6 H 0.7021 0.0308 0.1943
loop_
_geom_bond_atom_site_label_1
_geom_bond_atom_site_label_2
_geom_bond_site_symmetry_1
_geom_bond_site_symmetry_2
O26 C20 1_555 1_555
O30 C24 1_555 1_555
O26 Tb14 1_555 1_555
Tb14 O42 1_555 1_555
O32 Tb6 1_555 1_555
Tb16 O32 1_555 1_555
O45 Tb6 1_555 1_555
O51 Tb6 1_555 1_555
O56 Tb6 1_555 1_555
Tb6 O43 1_555 1_555
O32 Tb8 1_555 1_555
Tb16 O37 1_555 1_555
Tb16 O43 1_555 1_555
Tb1 O1 1_555 1_555
O3 Tb1 1_555 1_555
O4 C1 1_555 1_555
O5 Tb1 1_555 1_555
C1 O3 1_555 1_555
C2 H1 1_555 1_555
C3 C1 1_555 1_555
H2 C3 1_555 1_555
O7 C5 1_555 1_555
C5 C6 1_555 1_555
C6 C3 1_555 1_555
H3 C6 1_555 1_555
O8 C5 1_555 1_555
C7 C2 1_555 1_555
H4 C7 1_555 1_555
Tb2 O9 1_555 1_555
O11 Tb2 1_555 1_555
O13 Tb2 1_555 1_555
O14 C9 1_555 1_555
C9 O13 1_555 1_555
C10 C9 1_555 1_555
H5 C10 1_555 1_555
O15 C11 1_555 1_555
C11 C12 1_555 1_555
C12 C10 1_555 1_555
H6 C12 1_555 1_555
O16 C11 1_555 1_555
Tb3 O7 1_555 1_555
O17 Tb3 1_555 1_555
O18 Tb3 1_555 1_555
O19 C14 1_555 1_555
C13 H7 1_555 1_555
C14 O18 1_555 1_555
O20 C16 1_555 1_555
O21 C16 1_555 1_555
C15 C13 1_555 1_555
H8 C15 1_555 1_555
C16 C15 1_555 1_555
Tb4 O16 1_555 1_555
O22 Tb4 1_555 1_555
O23 Tb4 1_555 1_555
O24 C17 1_555 1_555
O25 Tb4 1_555 1_555
C17 O23 1_555 1_555
C18 H9 1_555 1_555
C19 C17 1_555 1_555
H10 C19 1_555 1_555
O27 C21 1_555 1_555
C21 C22 1_555 1_555
C22 C19 1_555 1_555
H11 C22 1_555 1_555
O28 C21 1_555 1_555
C23 C18 1_555 1_555
H12 C23 1_555 1_555
Tb5 O31 1_555 1_555
O31 Tb3 1_555 1_555
Tb7 O15 1_555 1_555
Tb13 O21 1_555 1_555
Tb17 O1 1_555 1_555
Tb19 O29 1_555 1_555
O33 Tb4 1_555 1_555
O35 Tb3 1_555 1_555
O38 Tb1 1_555 1_555
O41 Tb3 1_555 1_555
O44 Tb5 1_555 1_555
O46 Tb5 1_555 1_555
O47 Tb3 1_555 1_555
O48 Tb1 1_555 1_555
O50 Tb5 1_555 1_555
O53 Tb3 1_555 1_555
O4 Tb17 1_555 1_555
C13 C14 1_555 1_555
O20 Tb7 1_555 1_555
O22 Tb13 1_555 1_555
O24 Tb13 1_555 1_555
O27 Tb17 1_555 1_555
Tb5 O35 1_555 1_555
Tb7 O33 1_555 1_555
Tb13 O33 1_555 1_555
Tb17 O38 1_555 1_555
Tb12 O36 1_555 1_555
O6 C4 1_555 1_555
O10 C8 1_555 1_555
Tb9 O2 1_555 1_555
Tb10 O2 1_555 1_555
O6 Tb10 1_555 1_555
Tb9 O34 1_555 1_555
Tb5_2 O39 1_555 1_555
O44_2 Tb5_2 1_555 1_555
O50_2 Tb5_2 1_555 1_555
Tb9_2 O34_2 1_555 1_555
O32_2 Tb19 1_555 1_555
O45_2 Tb19 1_555 1_555
O2_2 Tb7 1_555 1_555
O22_2 Tb17 1_555 1_555
O25_2 Tb17 1_555 1_555
O26_2 C20_2 1_555 1_555
C18_2 H9_2 1_555 1_555
C20_2 O25_2 1_555 1_555
O51 C24_2 1_555 1_555
O30_2 C24_2 1_555 1_555
C23_2 C18_2 1_555 1_555
H12_2 C23_2 1_555 1_555
C24_2 C23_2 1_555 1_555
Tb13 O2_2 1_555 1_555
Tb12_2 O41 1_555 1_555
Tb16 O30_2 1_555 1_555
O42_2 Tb17 1_555 1_555
O52_2 Tb7 1_555 1_555
O57_2 Tb17 1_555 1_555
C18_2 C20_2 1_555 1_555
Tb12_2 O35 1_555 1_555
Tb15 O37_2 1_555 1_555
Tb5_3 O40 1_555 1_555
O37_3 Tb5_3 1_555 1_555
O42 Tb5_3 1_555 1_555
O44_3 Tb5_3 1_555 1_555
O46_3 Tb5_3 1_555 1_555
O50_3 Tb5_3 1_555 1_555
O55_3 Tb5_3 1_555 1_555
Tb5_3 O34_2 1_555 1_555
Tb14 O37_3 1_555 1_555
O24_2 C17_2 1_555 1_555
C17_2 O45 1_555 1_555
C19_2 C17_2 1_555 1_555
H10_2 C19_2 1_555 1_555
O45_2 C21_2 1_555 1_555
C21_2 C22_2 1_555 1_555
C22_2 C19_2 1_555 1_555
H11_2 C22_2 1_555 1_555
O28_2 C21_2 1_555 1_555
O24_2 Tb8 1_555 1_555
Tb5_4 O38 1_555 1_555
O42_2 Tb5_4 1_555 1_555
O44_4 Tb5_4 1_555 1_555
O50_4 Tb5_4 1_555 1_555
O55_4 Tb5_4 1_555 1_555
Tb14_2 O37_4 1_555 1_555
O56 C20_3 1_555 1_555
O56_2 C24_3 1_555 1_555
O3_2 Tb9_2 1_555 1_555
O46_3 C1_2 1_555 1_555
O5_2 Tb9_2 1_555 1_555
C1_2 O3_2 1_555 1_555
C2_2 H1_2 1_555 1_555
C3_2 C1_2 1_555 1_555
H2_2 C3_2 1_555 1_555
O7_2 C5_2 1_555 1_555
C5_2 C6_2 1_555 1_555
C6_2 C3_2 1_555 1_555
H3_2 C6_2 1_555 1_555
O46_4 C5_2 1_555 1_555
C7_2 C2_2 1_555 1_555
H4_2 C7_2 1_555 1_555
Tb12 O9_2 1_555 1_555
O13_2 Tb12 1_555 1_555
O46_2 C9_2 1_555 1_555
C9_2 O13_2 1_555 1_555
C10_2 C9_2 1_555 1_555
H5_2 C10_2 1_555 1_555
O15_2 C11_2 1_555 1_555
C11_2 C12_2 1_555 1_555
C12_2 C10_2 1_555 1_555
H6_2 C12_2 1_555 1_555
O46 C11_2 1_555 1_555
Tb9 O7_2 1_555 1_555
O18_2 Tb9 1_555 1_555
O52 C14_2 1_555 1_555
C13_2 H7_2 1_555 1_555
C14_2 O18_2 1_555 1_555
O20_2 C16_2 1_555 1_555
O53 C16_2 1_555 1_555
C15_2 C13_2 1_555 1_555
H8_2 C15_2 1_555 1_555
C16_2 C15_2 1_555 1_555
O47 C17_3 1_555 1_555
C17_3 O44 1_555 1_555
C18_3 H9_3 1_555 1_555
C19_3 C17_3 1_555 1_555
H10_3 C19_3 1_555 1_555
O44_3 C21_3 1_555 1_555
C21_3 C22_3 1_555 1_555
C22_3 C19_3 1_555 1_555
H11_3 C22_3 1_555 1_555
O48_2 C21_3 1_555 1_555
C23_3 C18_3 1_555 1_555
H12_3 C23_3 1_555 1_555
O37_4 Tb9 1_555 1_555
Tb12_2 O15_2 1_555 1_555
O35_2 Tb9 1_555 1_555
O37_3 Tb9_2 1_555 1_555
O44_5 Tb14_2 1_555 1_555
O46_5 Tb14_2 1_555 1_555
O47_2 Tb9 1_555 1_555
O48_3 Tb9_2 1_555 1_555
O50_5 Tb14_2 1_555 1_555
O53_2 Tb9 1_555 1_555
C13_2 C14_2 1_555 1_555
O20_2 Tb12_2 1_555 1_555
Tb14_2 O35_2 1_555 1_555
Tb11 O36_2 1_555 1_555
O52_2 C4_2 1_555 1_555
O54 C8_2 1_555 1_555
Tb13 O34_3 1_555 1_555
O55_4 C20_4 1_555 1_555
O55_2 C24_4 1_555 1_555
O45_3 Tb14 1_555 1_555
O51_2 Tb14 1_555 1_555
Tb8 O1_2 1_555 1_555
O3_3 Tb8 1_555 1_555
O4_2 C1_3 1_555 1_555
O5_3 Tb8 1_555 1_555
C1_3 O3_3 1_555 1_555
C2_3 H1_3 1_555 1_555
C3_3 C1_3 1_555 1_555
H2_3 C3_3 1_555 1_555
O7_3 C5_3 1_555 1_555
C5_3 C6_3 1_555 1_555
C6_3 C3_3 1_555 1_555
H3_3 C6_3 1_555 1_555
O8_2 C5_3 1_555 1_555
C7_3 C2_3 1_555 1_555
H4_3 C7_3 1_555 1_555
Tb11 O9_3 1_555 1_555
O13_3 Tb11 1_555 1_555
O14_2 C9_3 1_555 1_555
C9_3 O13_3 1_555 1_555
C10_3 C9_3 1_555 1_555
H5_3 C10_3 1_555 1_555
O15_3 C11_3 1_555 1_555
C11_3 C12_3 1_555 1_555
C12_3 C10_3 1_555 1_555
H6_3 C12_3 1_555 1_555
O46_5 C11_3 1_555 1_555
Tb13 O7_3 1_555 1_555
O18_3 Tb13 1_555 1_555
O52_3 C14_3 1_555 1_555
C13_3 H7_3 1_555 1_555
C14_3 O18_3 1_555 1_555
O20_3 C16_3 1_555 1_555
O53_2 C16_3 1_555 1_555
C15_3 C13_3 1_555 1_555
H8_3 C15_3 1_555 1_555
C16_3 C15_3 1_555 1_555
O47_2 C17_4 1_555 1_555
C17_4 O44_5 1_555 1_555
C18_4 H9_4 1_555 1_555
C19_4 C17_4 1_555 1_555
H10_4 C19_4 1_555 1_555
O27_2 C21_4 1_555 1_555
C21_4 C22_4 1_555 1_555
C22_4 C19_4 1_555 1_555
H11_4 C22_4 1_555 1_555
O28_3 C21_4 1_555 1_555
C23_4 C18_4 1_555 1_555
H12_4 C23_4 1_555 1_555
Tb10 O15_3 1_555 1_555
Tb16 O1_2 1_555 1_555
Tb15 O29_2 1_555 1_555
O4_2 Tb16 1_555 1_555
C13_3 C14_3 1_555 1_555
O20_3 Tb10 1_555 1_555
O27_2 Tb16 1_555 1_555
Tb10 O35_2 1_555 1_555
O6_2 C4_3 1_555 1_555
O54_2 C8_3 1_555 1_555
O6_2 Tb12_2 1_555 1_555
O49 C17_5 1_555 1_555
C17_5 O44_2 1_555 1_555
C19_5 C17_5 1_555 1_555
H10_5 C19_5 1_555 1_555
O44_4 C21_5 1_555 1_555
C21_5 C22_5 1_555 1_555
C22_5 C19_5 1_555 1_555
H11_5 C22_5 1_555 1_555
O48 C21_5 1_555 1_555
O45_4 Tb15 1_555 1_555
O25_3 Tb16 1_555 1_555
O55 C20_5 1_555 1_555
C18_5 H9_5 1_555 1_555
C20_5 O25_3 1_555 1_555
O51_2 C24_5 1_555 1_555
O55_3 C24_5 1_555 1_555
C23_5 C18_5 1_555 1_555
H12_5 C23_5 1_555 1_555
C24_5 C23_5 1_555 1_555
C18_5 C20_5 1_555 1_555
O57 C20_6 1_555 1_555
C18_6 H9_6 1_555 1_555
C20_6 O50_3 1_555 1_555
O50_4 C24_6 1_555 1_555
O57_2 C24_6 1_555 1_555
C23_6 C18_6 1_555 1_555
H12_6 C23_6 1_555 1_555
C24_6 C23_6 1_555 1_555
C18_6 C20_6 1_555 1_555
O48_3 C17_6 1_555 1_555
C17_6 O45_3 1_555 1_555
C19_6 C17_6 1_555 1_555
H10_6 C19_6 1_555 1_555
O45_4 C21_6 1_555 1_555
C21_6 C22_6 1_555 1_555
C22_6 C19_6 1_555 1_555
H11_6 C22_6 1_555 1_555
O49_2 C21_6 1_555 1_555

#END
