
###############################################################################
#
# This file contains modified crystal structure data generated from the
# MOF subset of the Cambridge Structural Database (CSD) v543 
# hosted by the Cambridge Crystallographic Data Centre (CCDC).
#
# This work is licensed under the Creative Commons
# Attribution-NonCommercial-ShareAlike 4.0 International License.
# To view a copy of this license, visit
# http://creativecommons.org/licenses/by-nc-sa/4.0/
# or send a letter to
# Creative Commons, PO Box 1866, Mountain View, CA 94042, USA.
#
# CIF created using the CSD Python API on 29 September 2022
# The structure has been converted into the P1 space group
# The structure has a 3D framework
# The original CSD entry ZAFWAH is in the monoclinic crystal system
# The framework has been calculated to contain at least 10.0% void space
# The void calculation uses a probe of radius 1.32A, grid spacing 0.4
#
###############################################################################

data_ZAFWAH
_chemical_formula_moiety         '(C576 H320 N32 O62 Zn16)n'
_symmetry_cell_setting           triclinic
_symmetry_space_group_name_H-M   'P 1'
_symmetry_Int_Tables_number      1
_space_group_name_Hall           'P 1'
loop_
_symmetry_equiv_pos_site_id
_symmetry_equiv_pos_as_xyz
1 x,y,z
_cell_length_a                   28.525
_cell_length_b                   29.966
_cell_length_c                   14.784
_cell_angle_alpha                90
_cell_angle_beta                 109.02
_cell_angle_gamma                90
_cell_volume                     11947.1
loop_
_atom_site_label
_atom_site_type_symbol
_atom_site_fract_x
_atom_site_fract_y
_atom_site_fract_z
N6 N 0.0737(4) 0.3218(3) 0.1197(7)
C117 C 0.0811(5) 0.2777(4) 0.1208(10)
H65 H 0.1115 0.2675 0.1186
C118 C 0.0464(5) 0.2468(4) 0.1250(10)
H66 H 0.0540 0.2165 0.1284
C119 C 0.0006(5) 0.2606(4) 0.1240(9)
C121 C 0.0277(5) 0.3359(5) 0.1184(10)
H68 H 0.0206 0.3663 0.1139
H75 H 0.0029 0.0613 0.0837
Zn9 Zn 0.13370(5) 0.36770(4) 0.14015(10)
Zn2 Zn 0.38426(5) 0.11534(5) 0.13991(10)
O1 O 0.3285(3) 0.1508(3) 0.0379(6)
O3 O 0.4143(4) 0.0983(3) 0.2892(7)
N1 N 0.8272(4) 0.5656(3) 0.1213(8)
O5 O 0.4274(3) 0.0692(3) 0.1070(7)
N3 N 0.4327(4) 0.1690(3) 0.1380(7)
O6 O 0.3431(3) 0.1493(3) 0.7126(6)
O7 O 0.3580(4) 0.1469(4) 0.2488(6)
O8 O 0.3947(4) 0.0948(4) 0.7526(6)
C1 C 0.6354(5) 0.3250(5) 0.1020(10)
C2 C 0.6929(6) 0.4382(5) 0.1072(10)
C3 C 0.6584(6) 0.4042(5) 0.1126(11)
C4 C 0.6156(6) 0.4164(5) 0.1323(11)
C5 C 0.6042(7) 0.4600(6) 0.1492(13)
H1 H 0.6269 0.4826 0.1512
C6 C 0.5606(8) 0.4705(6) 0.1628(16)
H2 H 0.5536 0.5001 0.1728
C7 C 0.5258(7) 0.4370(7) 0.1621(16)
H3 H 0.4962 0.4447 0.1718
C8 C 0.5352(6) 0.3927(5) 0.1472(13)
H4 H 0.5121 0.3708 0.1471
C9 C 0.5804(5) 0.3811(5) 0.1320(11)
C10 C 0.5911(5) 0.3361(5) 0.1172(9)
C11 C 0.6480(6) 0.2807(5) 0.0871(13)
H5 H 0.6261 0.2580 0.0891
C12 C 0.6901(6) 0.2696(6) 0.0704(14)
H6 H 0.6967 0.2400 0.0599
C13 C 0.7246(7) 0.3041(5) 0.0688(16)
H7 H 0.7539 0.2969 0.0574
C14 C 0.7148(5) 0.3469(5) 0.0838(12)
H8 H 0.7379 0.3689 0.0845
C15 C 0.6693(5) 0.3592(5) 0.0986(11)
C16 C 0.5561(5) 0.3020(5) 0.1202(10)
C17 C 0.5277(6) 0.2743(5) 0.1231(11)
C18 C 0.4946(5) 0.2386(5) 0.1266(10)
C19 C 0.4477(5) 0.2469(5) 0.1317(10)
H9 H 0.4363 0.2760 0.1310
C20 C 0.4182(5) 0.2109(5) 0.1378(10)
H10 H 0.3869 0.2166 0.1419
C21 C 0.4784(5) 0.1611(4) 0.1352(9)
H11 H 0.4894 0.1318 0.1384
C22 C 0.5096(5) 0.1944(5) 0.1280(10)
H12 H 0.5406 0.1876 0.1240
C23 C 0.7206(6) 0.4669(6) 0.1056(11)
C24 C 0.7551(5) 0.5011(5) 0.1048(10)
C25 C 0.8376(5) 0.5229(4) 0.1158(11)
H13 H 0.8693 0.5150 0.1169
C26 C 0.8032(6) 0.4900(4) 0.1083(11)
H14 H 0.8120 0.4603 0.1056
C27 C 0.7442(5) 0.5461(4) 0.1100(10)
H15 H 0.7128 0.5553 0.1083
C28 C 0.7813(5) 0.5761(5) 0.1176(11)
H16 H 0.7738 0.6062 0.1203
C29 C 0.3831(5) 0.1233(5) 0.3128(10)
C30 C 0.3819(4) 0.1224(4) 0.4106(9)
C31 C 0.4083(5) 0.0923(5) 0.4771(10)
H17 H 0.4288 0.0720 0.4608
C32 C 0.4049(4) 0.0916(4) 0.5682(9)
H18 H 0.4228 0.0705 0.6122
C33 C 0.3744(4) 0.1224(4) 0.5949(7)
C34 C 0.3483(5) 0.1522(5) 0.5279(10)
H19 H 0.3275 0.1724 0.5434
C35 C 0.3522(5) 0.1528(5) 0.4372(10)
H20 H 0.3346 0.1740 0.3933
C36 C 0.3721(5) 0.1207(4) 0.6937(9)
C37 C 0.4347(4) 0.0690(4) 0.0280(9)
C38 C 0.4689(4) 0.0330(4) 0.0136(9)
C40 C 0.4962(5) 0.0065(4) 0.0890(9)
H22 H 0.4939 0.0108 0.1497
C44 C 0.2758(5) 0.2233(4) 0.0764(9)
H24 H 0.2929 0.2051 0.1275
O10 O 0.1762(3) 0.3205(3) 0.1037(6)
C73 C 0.1857(4) 0.3207(4) 0.0264(8)
C74 C 0.2194(4) 0.2839(4) 0.0135(9)
C75 C 0.2461(5) 0.2571(4) 0.0905(9)
H41 H 0.2438 0.2621 0.1510
C120 C 0.9926(5) 0.3070(5) 0.1233(10)
H67 H 0.9626 0.3178 0.1262
C122 C 0.9640(6) 0.2303(5) 0.1307(11)
H71 H 0.6871 0.0276 0.1480
C128 C 0.7801(6) 0.0294(6) 0.1486(11)
C129 C 0.8074(6) 0.0576(5) 0.1546(11)
C130 C 0.8421(5) 0.0941(5) 0.1531(10)
C131 C 0.8869(6) 0.0844(5) 0.1337(11)
C132 C 0.8977(6) 0.0403(5) 0.1129(12)
H73 H 0.8763 0.0169 0.1127
C133 C 0.9407(7) 0.0331(6) 0.0932(14)
H74 H 0.9484 0.0044 0.0785
C134 C 0.9732(7) 0.0677(7) 0.0945(14)
C135 C 0.9632(5) 0.1104(5) 0.1110(11)
H76 H 0.9854 0.1330 0.1097
C136 C 0.9185(5) 0.1209(5) 0.1306(10)
C137 C 0.9050(5) 0.1641(5) 0.1457(9)
C138 C 0.8609(6) 0.1734(5) 0.1675(10)
C139 C 0.8488(6) 0.2175(6) 0.1861(12)
H77 H 0.8698 0.2409 0.1835
C140 C 0.8073(6) 0.2258(6) 0.2075(13)
H78 H 0.7994 0.2551 0.2181
C141 C 0.7747(6) 0.1901(7) 0.2143(13)
H79 H 0.7472 0.1955 0.2332
C142 C 0.7857(6) 0.1480(6) 0.1920(12)
H80 H 0.7633 0.1252 0.1903
C143 C 0.9371(5) 0.2007(5) 0.1376(11)
C144 C 0.8295(5) 0.1375(6) 0.1715(9)
Zn5 Zn 0.36630(5) 0.13230(4) 0.85985(10)
Zn10 Zn 0.88426(5) 0.61534(5) 0.13991(10)
N9 N 0.3272(4) 0.0656(3) 0.1213(8)
O2 O 0.4166(3) 0.0958(3) 0.9617(6)
O4 O 0.3238(3) 0.1795(3) 0.8963(6)
N4 N 0.3144(4) 0.0794(4) 0.8498(8)
C39 C 0.4732(4) 0.0263(4) 0.9257(9)
H21 H 0.4551 0.0441 0.8746
C41 C 0.3143(4) 0.1793(4) 0.9736(8)
C42 C 0.2806(4) 0.2161(4) 0.9865(9)
C43 C 0.2539(5) 0.2429(4) 0.9095(9)
H23 H 0.2562 0.2379 0.8490
C51 C 0.2692(5) 0.0856(5) 0.8506(9)
H29 H 0.2581 0.1147 0.8518
C52 C 0.2365(6) 0.0506(5) 0.8498(10)
H30 H 0.2042 0.0565 0.8482
C53 C 0.2526(5) 0.0077(5) 0.8513(10)
C54 C 0.3007(6) 0.0013(5) 0.8511(10)
C55 C 0.3301(5) 0.0364(4) 0.8496(10)
H32 H 0.3620 0.0311 0.8485
O9 O 0.1715(3) 0.3492(3) 0.9621(6)
C76 C 0.2242(5) 0.2767(4) 0.9236(9)
H42 H 0.2071 0.2949 0.8725
Zn12 Zn 0.11574(5) 0.38466(5) 0.86009(10)
N11 N 0.4263(4) 0.1782(3) 0.8803(7)
O11 O 0.5834(3) 0.9042(3) 0.0383(6)
C79 C 0.5268(4) 0.9737(4) 0.0743(9)
H43 H 0.5449 0.9559 0.1254
Zn3 Zn 0.63370(5) 0.86770(4) 0.14015(10)
N8 N 0.6856(4) 0.9206(4) 0.1502(8)
C123 C 0.7308(5) 0.9144(5) 0.1494(9)
H69 H 0.7419 0.8853 0.1482
C124 C 0.7635(6) 0.9494(5) 0.1502(10)
H70 H 0.7958 0.9435 0.1518
C125 C 0.7474(5) 0.9923(5) 0.1487(10)
C126 C 0.6993(6) 0.9987(5) 0.1489(10)
C127 C 0.6699(5) 0.9636(4) 0.1504(10)
H72 H 0.6380 0.9689 0.1515
O18 O 0.6762(3) 0.8205(3) 0.1037(6)
N12 N 0.5737(4) 0.8218(3) 0.1197(7)
O20 O 0.6569(3) 0.8507(3) 0.2874(6)
O22 O 0.6053(4) 0.9052(4) 0.2474(6)
C48 C 0.0074(5) 0.6930(5) 0.8767(10)
H27 H 0.0374 0.6822 0.8738
C50 C 0.0360(6) 0.7697(5) 0.8693(11)
H31 H 0.3129 0.9724 0.8520
C56 C 0.2199(6) 0.9706(6) 0.8514(11)
C57 C 0.1926(6) 0.9424(5) 0.8454(11)
C58 C 0.1579(5) 0.9059(5) 0.8469(10)
C59 C 0.1131(6) 0.9156(5) 0.8663(11)
C60 C 0.1023(6) 0.9597(5) 0.8871(12)
H33 H 0.1237 0.9831 0.8873
C61 C 0.0593(7) 0.9669(6) 0.9068(14)
H34 H 0.0516 0.9956 0.9215
C62 C 0.0268(7) 0.9323(7) 0.9055(14)
C63 C 0.0368(5) 0.8896(5) 0.8890(11)
H36 H 0.0146 0.8670 0.8903
C64 C 0.0815(5) 0.8791(5) 0.8694(10)
C65 C 0.0950(5) 0.8359(5) 0.8543(9)
C66 C 0.1391(6) 0.8266(5) 0.8325(10)
C67 C 0.1512(6) 0.7825(6) 0.8139(12)
H37 H 0.1302 0.7591 0.8165
C68 C 0.1927(6) 0.7742(6) 0.7925(13)
H38 H 0.2006 0.7449 0.7819
C69 C 0.2253(6) 0.8099(7) 0.7857(13)
H39 H 0.2528 0.8045 0.7668
C70 C 0.2143(6) 0.8520(6) 0.8080(12)
H40 H 0.2367 0.8748 0.8097
C71 C 0.0629(5) 0.7993(5) 0.8624(11)
C72 C 0.1705(5) 0.8625(6) 0.8285(9)
O12 O 0.5726(3) 0.9308(3) 0.8930(7)
C77 C 0.5653(4) 0.9310(4) 0.9720(9)
C78 C 0.5311(4) 0.9670(4) 0.9864(9)
C80 C 0.5038(5) 0.9935(4) 0.9110(9)
H44 H 0.5061 0.9892 0.8503
Zn4 Zn 0.61574(5) 0.88466(5) 0.86009(10)
O13 O 0.5857(4) 0.9017(3) 0.7108(7)
N5 N 0.1728(4) 0.4344(3) 0.8787(8)
N7 N 0.5673(4) 0.8310(3) 0.8620(7)
O15 O 0.6420(4) 0.8531(4) 0.7512(6)
C81 C 0.3646(5) 0.6750(5) 0.8980(10)
C82 C 0.3071(6) 0.5618(5) 0.8928(10)
C83 C 0.3416(6) 0.5958(5) 0.8874(11)
C84 C 0.3844(6) 0.5836(5) 0.8677(11)
C85 C 0.3958(7) 0.5400(6) 0.8508(13)
H45 H 0.3731 0.5174 0.8488
C86 C 0.4394(8) 0.5295(6) 0.8372(16)
H46 H 0.4464 0.4999 0.8272
C87 C 0.4742(7) 0.5630(7) 0.8379(16)
H47 H 0.5038 0.5553 0.8282
C88 C 0.4648(6) 0.6073(5) 0.8528(13)
H48 H 0.4879 0.6292 0.8529
C89 C 0.4196(5) 0.6189(5) 0.8680(11)
C90 C 0.4089(5) 0.6639(5) 0.8828(9)
C91 C 0.3520(6) 0.7193(5) 0.9129(13)
H49 H 0.3739 0.7420 0.9109
C92 C 0.3099(6) 0.7304(6) 0.9296(14)
H50 H 0.3033 0.7600 0.9401
C93 C 0.2754(7) 0.6959(5) 0.9312(16)
H51 H 0.2461 0.7031 0.9426
C94 C 0.2852(5) 0.6531(5) 0.9162(12)
H52 H 0.2621 0.6311 0.9155
C95 C 0.3307(5) 0.6408(5) 0.9014(11)
C96 C 0.4439(5) 0.6980(5) 0.8798(10)
C97 C 0.4723(6) 0.7257(5) 0.8769(11)
C98 C 0.5054(5) 0.7614(5) 0.8734(10)
C99 C 0.5523(5) 0.7531(5) 0.8683(10)
H53 H 0.5637 0.7240 0.8690
C100 C 0.5818(5) 0.7891(5) 0.8622(10)
H54 H 0.6131 0.7834 0.8581
C101 C 0.5216(5) 0.8389(4) 0.8648(9)
H55 H 0.5106 0.8682 0.8616
C102 C 0.4904(5) 0.8056(5) 0.8720(10)
H56 H 0.4594 0.8124 0.8760
C103 C 0.2794(6) 0.5331(6) 0.8944(11)
C104 C 0.2449(5) 0.4989(5) 0.8952(10)
C105 C 0.1624(5) 0.4771(4) 0.8842(11)
H57 H 0.1307 0.4850 0.8831
C106 C 0.1968(6) 0.5100(4) 0.8917(11)
H58 H 0.1880 0.5397 0.8944
C107 C 0.2558(5) 0.4539(4) 0.8900(10)
H59 H 0.2872 0.4447 0.8917
C108 C 0.2187(5) 0.4239(5) 0.8824(11)
H60 H 0.2262 0.3938 0.8797
C109 C 0.6169(5) 0.8767(5) 0.6872(10)
C110 C 0.6181(4) 0.8776(4) 0.5894(9)
C111 C 0.5917(5) 0.9077(5) 0.5229(10)
H61 H 0.5712 0.9280 0.5392
C112 C 0.5951(4) 0.9084(4) 0.4318(9)
H62 H 0.5772 0.9295 0.3878
C113 C 0.6256(4) 0.8776(4) 0.4051(7)
C114 C 0.6517(5) 0.8478(5) 0.4721(10)
H63 H 0.6725 0.8276 0.4566
C115 C 0.6478(5) 0.8472(5) 0.5628(10)
H64 H 0.6654 0.8260 0.6067
C116 C 0.6279(5) 0.8793(4) 0.3063(9)
O17 O 0.6715(3) 0.8492(3) 0.9621(6)
N10 N 0.6728(4) 0.9344(3) 0.8787(8)
N2 N 0.9263(4) 0.6782(3) 0.8803(7)
C45 C 0.9189(5) 0.7223(4) 0.8792(10)
H25 H 0.8885 0.7325 0.8814
C46 C 0.9536(5) 0.7532(4) 0.8750(10)
H26 H 0.9460 0.7835 0.8716
C47 C 0.9994(5) 0.7394(4) 0.8760(9)
C49 C 0.9723(5) 0.6641(5) 0.8816(10)
H28 H 0.9794 0.6337 0.8861
H35 H 0.9971 0.9387 0.9163
Zn6 Zn 0.86630(5) 0.63230(4) 0.85985(10)
H2_2 H 0.0536 0.0001 0.1728
C24_2 C 0.2551(5) 0.0011(5) 0.1048(10)
C25_2 C 0.3376(5) 0.0229(4) 0.1158(11)
H13_2 H 0.3693 0.0150 0.1169
C27_2 C 0.2442(5) 0.0461(4) 0.1100(10)
H15_2 H 0.2128 0.0553 0.1083
C28_2 C 0.2813(5) 0.0761(5) 0.1176(11)
H16_2 H 0.2738 0.1062 0.1203
C1_2 C 0.1354(5) 0.8250(5) 0.1020(10)
C2_2 C 0.1929(6) 0.9382(5) 0.1072(10)
C3_2 C 0.1584(6) 0.9042(5) 0.1126(11)
C4_2 C 0.1156(6) 0.9164(5) 0.1323(11)
C5_2 C 0.1042(7) 0.9600(6) 0.1492(13)
H1_2 H 0.1269 0.9826 0.1512
C6_2 C 0.0606(8) 0.9705(6) 0.1628(16)
C7_2 C 0.0258(7) 0.9370(7) 0.1621(16)
C8_2 C 0.0352(6) 0.8927(5) 0.1472(13)
H4_2 H 0.0121 0.8708 0.1471
C9_2 C 0.0804(5) 0.8811(5) 0.1320(11)
C10_2 C 0.0911(5) 0.8361(5) 0.1172(9)
C11_2 C 0.1480(6) 0.7807(5) 0.0871(13)
H5_2 H 0.1261 0.7580 0.0891
C12_2 C 0.1901(6) 0.7696(6) 0.0704(14)
H6_2 H 0.1967 0.7400 0.0599
C13_2 C 0.2246(7) 0.8041(5) 0.0688(16)
H7_2 H 0.2539 0.7969 0.0574
C14_2 C 0.2148(5) 0.8469(5) 0.0838(12)
H8_2 H 0.2379 0.8689 0.0845
C15_2 C 0.1693(5) 0.8592(5) 0.0986(11)
C16_2 C 0.0561(5) 0.8020(5) 0.1202(10)
C17_2 C 0.0277(6) 0.7743(5) 0.1231(11)
C22_2 C 0.0096(5) 0.6944(5) 0.1280(10)
H12_2 H 0.0406 0.6876 0.1240
C23_2 C 0.2206(6) 0.9669(6) 0.1056(11)
C26_2 C 0.3032(6) 0.9900(4) 0.1083(11)
H14_2 H 0.3120 0.9603 0.1056
O11_2 O 0.0834(3) 0.4042(3) 0.0383(6)
C79_2 C 0.0268(4) 0.4737(4) 0.0743(9)
H43_2 H 0.0449 0.4559 0.1254
N8_2 N 0.1856(4) 0.4206(4) 0.1502(8)
C117_2 C 0.5811(5) 0.7777(4) 0.1208(10)
H65_2 H 0.6115 0.7675 0.1186
C118_2 C 0.5464(5) 0.7468(4) 0.1250(10)
H66_2 H 0.5540 0.7165 0.1284
C119_2 C 0.5006(5) 0.7606(4) 0.1240(9)
C120_2 C 0.4926(5) 0.8070(5) 0.1233(10)
H67_2 H 0.4626 0.8178 0.1262
C121_2 C 0.5277(5) 0.8359(5) 0.1184(10)
H68_2 H 0.5206 0.8663 0.1139
C122_2 C 0.4640(6) 0.7303(5) 0.1307(11)
C123_2 C 0.2308(5) 0.4144(5) 0.1494(9)
H69_2 H 0.2419 0.3853 0.1482
C124_2 C 0.2635(6) 0.4494(5) 0.1502(10)
H70_2 H 0.2958 0.4435 0.1518
C125_2 C 0.2474(5) 0.4923(5) 0.1487(10)
C126_2 C 0.1993(6) 0.4987(5) 0.1489(10)
H71_2 H 0.1871 0.5276 0.1480
C127_2 C 0.1699(5) 0.4636(4) 0.1504(10)
H72_2 H 0.1380 0.4689 0.1515
C128_2 C 0.2801(6) 0.5294(6) 0.1486(11)
C129_2 C 0.3074(6) 0.5576(5) 0.1546(11)
C130_2 C 0.3421(5) 0.5941(5) 0.1531(10)
C131_2 C 0.3869(6) 0.5844(5) 0.1337(11)
C132_2 C 0.3977(6) 0.5403(5) 0.1129(12)
H73_2 H 0.3763 0.5169 0.1127
C133_2 C 0.4407(7) 0.5331(6) 0.0932(14)
H74_2 H 0.4484 0.5044 0.0785
C134_2 C 0.4732(7) 0.5677(7) 0.0945(14)
H75_2 H 0.5029 0.5613 0.0837
C135_2 C 0.4632(5) 0.6104(5) 0.1110(11)
H76_2 H 0.4854 0.6330 0.1097
C136_2 C 0.4185(5) 0.6209(5) 0.1306(10)
C137_2 C 0.4050(5) 0.6641(5) 0.1457(9)
C138_2 C 0.3609(6) 0.6734(5) 0.1675(10)
C139_2 C 0.3488(6) 0.7175(6) 0.1861(12)
H77_2 H 0.3698 0.7409 0.1835
C140_2 C 0.3073(6) 0.7258(6) 0.2075(13)
H78_2 H 0.2994 0.7551 0.2181
C141_2 C 0.2747(6) 0.6901(7) 0.2143(13)
H79_2 H 0.2472 0.6955 0.2332
C142_2 C 0.2857(6) 0.6480(6) 0.1920(12)
H80_2 H 0.2633 0.6252 0.1903
C143_2 C 0.4371(5) 0.7007(5) 0.1376(11)
C144_2 C 0.3295(5) 0.6375(6) 0.1715(9)
O20_2 O 0.1569(3) 0.3507(3) 0.2874(6)
O22_2 O 0.1053(4) 0.4052(4) 0.2474(6)
O12_2 O 0.0726(3) 0.4308(3) 0.8930(7)
C77_2 C 0.0653(4) 0.4310(4) 0.9720(9)
C78_2 C 0.0311(4) 0.4670(4) 0.9864(9)
C80_2 C 0.0038(5) 0.4935(4) 0.9110(9)
H44_2 H 0.0061 0.4892 0.8503
O13_2 O 0.0857(4) 0.4017(3) 0.7108(7)
N7_2 N 0.0673(4) 0.3310(3) 0.8620(7)
O15_2 O 0.1420(4) 0.3531(4) 0.7512(6)
H47_2 H 0.0038 0.0553 0.8282
C98_2 C 0.0054(5) 0.2614(5) 0.8734(10)
C99_2 C 0.0523(5) 0.2531(5) 0.8683(10)
H53_2 H 0.0637 0.2240 0.8690
C100_2 C 0.0818(5) 0.2891(5) 0.8622(10)
H54_2 H 0.1131 0.2834 0.8581
C101_2 C 0.0216(5) 0.3389(4) 0.8648(9)
H55_2 H 0.0106 0.3682 0.8616
C109_2 C 0.1169(5) 0.3767(5) 0.6872(10)
C110_2 C 0.1181(4) 0.3776(4) 0.5894(9)
C111_2 C 0.0917(5) 0.4077(5) 0.5229(10)
H61_2 H 0.0712 0.4280 0.5392
C112_2 C 0.0951(4) 0.4084(4) 0.4318(9)
H62_2 H 0.0772 0.4295 0.3878
C113_2 C 0.1256(4) 0.3776(4) 0.4051(7)
C114_2 C 0.1517(5) 0.3478(5) 0.4721(10)
H63_2 H 0.1725 0.3276 0.4566
C115_2 C 0.1478(5) 0.3472(5) 0.5628(10)
H64_2 H 0.1654 0.3260 0.6067
C116_2 C 0.1279(5) 0.3793(4) 0.3063(9)
O1_2 O 0.8285(3) 0.6508(3) 0.0379(6)
O3_2 O 0.9143(4) 0.5983(3) 0.2892(7)
O5_2 O 0.9274(3) 0.5692(3) 0.1070(7)
N3_2 N 0.9327(4) 0.6690(3) 0.1380(7)
O6_2 O 0.8431(3) 0.6493(3) 0.7126(6)
O7_2 O 0.8580(4) 0.6469(4) 0.2488(6)
O8_2 O 0.8947(4) 0.5948(4) 0.7526(6)
H3_2 H 0.9962 0.9447 0.1718
C18_2 C 0.9946(5) 0.7386(5) 0.1266(10)
C19_2 C 0.9477(5) 0.7469(5) 0.1317(10)
H9_2 H 0.9363 0.7760 0.1310
C20_2 C 0.9182(5) 0.7109(5) 0.1378(10)
H10_2 H 0.8869 0.7166 0.1419
C21_2 C 0.9784(5) 0.6611(4) 0.1352(9)
H11_2 H 0.9894 0.6318 0.1384
C29_2 C 0.8831(5) 0.6233(5) 0.3128(10)
C30_2 C 0.8819(4) 0.6224(4) 0.4106(9)
C31_2 C 0.9083(5) 0.5923(5) 0.4771(10)
H17_2 H 0.9288 0.5720 0.4608
C32_2 C 0.9049(4) 0.5916(4) 0.5682(9)
H18_2 H 0.9228 0.5705 0.6122
C33_2 C 0.8744(4) 0.6224(4) 0.5949(7)
C34_2 C 0.8483(5) 0.6522(5) 0.5279(10)
H19_2 H 0.8275 0.6724 0.5434
C35_2 C 0.8522(5) 0.6528(5) 0.4372(10)
H20_2 H 0.8346 0.6740 0.3933
C36_2 C 0.8721(5) 0.6207(4) 0.6937(9)
C37_2 C 0.9347(4) 0.5690(4) 0.0280(9)
C38_2 C 0.9689(4) 0.5330(4) 0.0136(9)
C40_2 C 0.9962(5) 0.5065(4) 0.0890(9)
H22_2 H 0.9939 0.5108 0.1497
C44_2 C 0.7758(5) 0.7233(4) 0.0764(9)
H24_2 H 0.7929 0.7051 0.1275
C73_2 C 0.6857(4) 0.8207(4) 0.0264(8)
C74_2 C 0.7194(4) 0.7839(4) 0.0135(9)
C75_2 C 0.7461(5) 0.7571(4) 0.0905(9)
H41_2 H 0.7438 0.7621 0.1510
O2_2 O 0.9166(3) 0.5958(3) 0.9617(6)
O4_2 O 0.8238(3) 0.6795(3) 0.8963(6)
N4_2 N 0.8144(4) 0.5794(4) 0.8498(8)
C39_2 C 0.9732(4) 0.5263(4) 0.9257(9)
H21_2 H 0.9551 0.5441 0.8746
C41_2 C 0.8143(4) 0.6793(4) 0.9736(8)
C42_2 C 0.7806(4) 0.7161(4) 0.9865(9)
C43_2 C 0.7539(5) 0.7429(4) 0.9095(9)
H23_2 H 0.7562 0.7379 0.8490
C45_2 C 0.4189(5) 0.2223(4) 0.8792(10)
H25_2 H 0.3885 0.2325 0.8814
C46_2 C 0.4536(5) 0.2532(4) 0.8750(10)
H26_2 H 0.4460 0.2835 0.8716
C47_2 C 0.4994(5) 0.2394(4) 0.8760(9)
C48_2 C 0.5074(5) 0.1930(5) 0.8767(10)
H27_2 H 0.5374 0.1822 0.8738
C49_2 C 0.4723(5) 0.1641(5) 0.8816(10)
H28_2 H 0.4794 0.1337 0.8861
C50_2 C 0.5360(6) 0.2697(5) 0.8693(11)
C51_2 C 0.7692(5) 0.5856(5) 0.8506(9)
H29_2 H 0.7581 0.6147 0.8518
C52_2 C 0.7365(6) 0.5506(5) 0.8498(10)
H30_2 H 0.7042 0.5565 0.8482
C53_2 C 0.7526(5) 0.5077(5) 0.8513(10)
C54_2 C 0.8007(6) 0.5013(5) 0.8511(10)
H31_2 H 0.8129 0.4724 0.8520
C55_2 C 0.8301(5) 0.5364(4) 0.8496(10)
H32_2 H 0.8620 0.5311 0.8485
C56_2 C 0.7199(6) 0.4706(6) 0.8514(11)
C57_2 C 0.6926(6) 0.4424(5) 0.8454(11)
C58_2 C 0.6579(5) 0.4059(5) 0.8469(10)
C59_2 C 0.6131(6) 0.4156(5) 0.8663(11)
C60_2 C 0.6023(6) 0.4597(5) 0.8871(12)
H33_2 H 0.6237 0.4831 0.8873
C61_2 C 0.5593(7) 0.4669(6) 0.9068(14)
H34_2 H 0.5516 0.4956 0.9215
C62_2 C 0.5268(7) 0.4323(7) 0.9055(14)
H35_2 H 0.4971 0.4387 0.9163
C63_2 C 0.5368(5) 0.3896(5) 0.8890(11)
H36_2 H 0.5146 0.3670 0.8903
C64_2 C 0.5815(5) 0.3791(5) 0.8694(10)
C65_2 C 0.5950(5) 0.3359(5) 0.8543(9)
C66_2 C 0.6391(6) 0.3266(5) 0.8325(10)
C67_2 C 0.6512(6) 0.2825(6) 0.8139(12)
H37_2 H 0.6302 0.2591 0.8165
C68_2 C 0.6927(6) 0.2742(6) 0.7925(13)
H38_2 H 0.7006 0.2449 0.7819
C69_2 C 0.7253(6) 0.3099(7) 0.7857(13)
H39_2 H 0.7528 0.3045 0.7668
C70_2 C 0.7143(6) 0.3520(6) 0.8080(12)
H40_2 H 0.7367 0.3748 0.8097
C71_2 C 0.5629(5) 0.2993(5) 0.8624(11)
C72_2 C 0.6705(5) 0.3625(6) 0.8285(9)
C76_2 C 0.7242(5) 0.7767(4) 0.9236(9)
H42_2 H 0.7071 0.7949 0.8725
C81_2 C 0.8646(5) 0.1750(5) 0.8980(10)
C82_2 C 0.8071(6) 0.0618(5) 0.8928(10)
C83_2 C 0.8416(6) 0.0958(5) 0.8874(11)
C84_2 C 0.8844(6) 0.0836(5) 0.8677(11)
C85_2 C 0.8958(7) 0.0400(6) 0.8508(13)
H45_2 H 0.8731 0.0174 0.8488
C86_2 C 0.9394(8) 0.0295(6) 0.8372(16)
C87_2 C 0.9742(7) 0.0630(7) 0.8379(16)
C88_2 C 0.9648(6) 0.1073(5) 0.8528(13)
H48_2 H 0.9879 0.1292 0.8529
C89_2 C 0.9196(5) 0.1189(5) 0.8680(11)
C90_2 C 0.9089(5) 0.1639(5) 0.8828(9)
C91_2 C 0.8520(6) 0.2193(5) 0.9129(13)
H49_2 H 0.8739 0.2420 0.9109
C92_2 C 0.8099(6) 0.2304(6) 0.9296(14)
H50_2 H 0.8033 0.2600 0.9401
C93_2 C 0.7754(7) 0.1959(5) 0.9312(16)
H51_2 H 0.7461 0.2031 0.9426
C94_2 C 0.7852(5) 0.1531(5) 0.9162(12)
H52_2 H 0.7621 0.1311 0.9155
C95_2 C 0.8307(5) 0.1408(5) 0.9014(11)
C96_2 C 0.9439(5) 0.1980(5) 0.8798(10)
C97_2 C 0.9723(6) 0.2257(5) 0.8769(11)
C102_2 C 0.9904(5) 0.3056(5) 0.8720(10)
H56_2 H 0.9594 0.3124 0.8760
C103_2 C 0.7794(6) 0.0331(6) 0.8944(11)
C106_2 C 0.6968(6) 0.0100(4) 0.8917(11)
H58_2 H 0.6880 0.0397 0.8944
H46_2 H 0.9464 0.9999 0.8272
C104_2 C 0.7449(5) 0.9989(5) 0.8952(10)
C105_2 C 0.6624(5) 0.9771(4) 0.8842(11)
H57_2 H 0.6307 0.9850 0.8831
C107_2 C 0.7558(5) 0.9539(4) 0.8900(10)
H59_2 H 0.7872 0.9447 0.8917
C108_2 C 0.7187(5) 0.9239(5) 0.8824(11)
H60_2 H 0.7262 0.8938 0.8797
N2_2 N 0.0737(4) 0.6782(3) 0.6197(7)
C45_3 C 0.0811(5) 0.7223(4) 0.6208(10)
H25_3 H 0.1115 0.7325 0.6186
C46_3 C 0.0464(5) 0.7532(4) 0.6250(10)
H26_3 H 0.0540 0.7835 0.6284
C47_3 C 0.0006(5) 0.7394(4) 0.6240(9)
C49_3 C 0.0277(5) 0.6641(5) 0.6184(10)
H28_3 H 0.0206 0.6337 0.6139
H35_3 H 0.0029 0.9387 0.5837
Zn6_2 Zn 0.13370(5) 0.63230(4) 0.64015(10)
Zn1 Zn 0.63370(5) 0.13230(4) 0.64015(10)
Zn2_2 Zn 0.61574(5) 0.11534(5) 0.36009(10)
O1_3 O 0.6715(3) 0.1508(3) 0.4621(6)
O2_3 O 0.5834(3) 0.0958(3) 0.5383(6)
O3_3 O 0.5857(4) 0.0983(3) 0.2108(7)
O4_3 O 0.6762(3) 0.1795(3) 0.6037(6)
N1_2 N 0.1728(4) 0.5656(3) 0.3787(8)
O5_3 O 0.5726(3) 0.0692(3) 0.3930(7)
N3_3 N 0.5673(4) 0.1690(3) 0.3620(7)
O7_3 O 0.6420(4) 0.1469(4) 0.2512(6)
N4_3 N 0.6856(4) 0.0794(4) 0.6502(8)
C1_3 C 0.3646(5) 0.3250(5) 0.3980(10)
C2_3 C 0.3071(6) 0.4382(5) 0.3928(10)
C3_3 C 0.3416(6) 0.4042(5) 0.3874(11)
C4_3 C 0.3844(6) 0.4164(5) 0.3677(11)
C5_3 C 0.3958(7) 0.4600(6) 0.3508(13)
H1_3 H 0.3731 0.4826 0.3488
C6_3 C 0.4394(8) 0.4705(6) 0.3372(16)
H2_3 H 0.4464 0.5001 0.3272
C7_3 C 0.4742(7) 0.4370(7) 0.3379(16)
H3_3 H 0.5038 0.4447 0.3282
C8_3 C 0.4648(6) 0.3927(5) 0.3528(13)
H4_3 H 0.4879 0.3708 0.3529
C9_3 C 0.4196(5) 0.3811(5) 0.3680(11)
C10_3 C 0.4089(5) 0.3361(5) 0.3828(9)
C11_3 C 0.3520(6) 0.2807(5) 0.4129(13)
H5_3 H 0.3739 0.2580 0.4109
C12_3 C 0.3099(6) 0.2696(6) 0.4296(14)
H6_3 H 0.3033 0.2400 0.4401
C13_3 C 0.2754(7) 0.3041(5) 0.4312(16)
H7_3 H 0.2461 0.2969 0.4426
C14_3 C 0.2852(5) 0.3469(5) 0.4162(12)
H8_3 H 0.2621 0.3689 0.4155
C15_3 C 0.3307(5) 0.3592(5) 0.4014(11)
C16_3 C 0.4439(5) 0.3020(5) 0.3798(10)
C17_3 C 0.4723(6) 0.2743(5) 0.3769(11)
C18_3 C 0.5054(5) 0.2386(5) 0.3734(10)
C19_3 C 0.5523(5) 0.2469(5) 0.3683(10)
H9_3 H 0.5637 0.2760 0.3690
C20_3 C 0.5818(5) 0.2109(5) 0.3622(10)
H10_3 H 0.6131 0.2166 0.3581
C21_3 C 0.5216(5) 0.1611(4) 0.3648(9)
H11_3 H 0.5106 0.1318 0.3616
C22_3 C 0.4904(5) 0.1944(5) 0.3720(10)
H12_3 H 0.4594 0.1876 0.3760
C23_3 C 0.2794(6) 0.4669(6) 0.3944(11)
C24_3 C 0.2449(5) 0.5011(5) 0.3952(10)
C25_3 C 0.1624(5) 0.5229(4) 0.3842(11)
H13_3 H 0.1307 0.5150 0.3831
C26_3 C 0.1968(6) 0.4900(4) 0.3917(11)
H14_3 H 0.1880 0.4603 0.3944
C27_3 C 0.2558(5) 0.5461(4) 0.3900(10)
H15_3 H 0.2872 0.5553 0.3917
C28_3 C 0.2187(5) 0.5761(5) 0.3824(11)
H16_3 H 0.2262 0.6062 0.3797
C29_3 C 0.6169(5) 0.1233(5) 0.1872(10)
C30_3 C 0.6181(4) 0.1224(4) 0.0894(9)
C31_3 C 0.5917(5) 0.0923(5) 0.0229(10)
H17_3 H 0.5712 0.0720 0.0392
C35_3 C 0.6478(5) 0.1528(5) 0.0628(10)
H20_3 H 0.6654 0.1740 0.1067
C37_3 C 0.5653(4) 0.0690(4) 0.4720(9)
C38_3 C 0.5311(4) 0.0330(4) 0.4864(9)
C39_3 C 0.5268(4) 0.0263(4) 0.5743(9)
H21_3 H 0.5449 0.0441 0.6254
C40_3 C 0.5038(5) 0.0065(4) 0.4110(9)
H22_3 H 0.5061 0.0108 0.3503
C41_3 C 0.6857(4) 0.1793(4) 0.5264(8)
C42_3 C 0.7194(4) 0.2161(4) 0.5135(9)
C43_3 C 0.7461(5) 0.2429(4) 0.5905(9)
H23_3 H 0.7438 0.2379 0.6510
C44_3 C 0.7242(5) 0.2233(4) 0.4236(9)
H24_3 H 0.7071 0.2051 0.3725
C51_3 C 0.7308(5) 0.0856(5) 0.6494(9)
H29_3 H 0.7419 0.1147 0.6482
C52_3 C 0.7635(6) 0.0506(5) 0.6502(10)
H30_3 H 0.7958 0.0565 0.6518
C53_3 C 0.7474(5) 0.0077(5) 0.6487(10)
C54_3 C 0.6993(6) 0.0013(5) 0.6489(10)
C55_3 C 0.6699(5) 0.0364(4) 0.6504(10)
H32_3 H 0.6380 0.0311 0.6515
O9_2 O 0.8285(3) 0.3492(3) 0.5379(6)
O10_2 O 0.8238(3) 0.3205(3) 0.3963(6)
C73_3 C 0.8143(4) 0.3207(4) 0.4736(8)
C74_3 C 0.7806(4) 0.2839(4) 0.4865(9)
C75_3 C 0.7539(5) 0.2571(4) 0.4095(9)
H41_3 H 0.7562 0.2621 0.3490
C76_3 C 0.7758(5) 0.2767(4) 0.5764(9)
H42_3 H 0.7929 0.2949 0.6275
C120_3 C 0.0074(5) 0.3070(5) 0.3767(10)
H67_3 H 0.0374 0.3178 0.3738
C122_3 C 0.0360(6) 0.2303(5) 0.3693(11)
H71_3 H 0.3129 0.0276 0.3520
C128_3 C 0.2199(6) 0.0294(6) 0.3514(11)
C129_3 C 0.1926(6) 0.0576(5) 0.3454(11)
C130_3 C 0.1579(5) 0.0941(5) 0.3469(10)
C131_3 C 0.1131(6) 0.0844(5) 0.3663(11)
C132_3 C 0.1023(6) 0.0403(5) 0.3871(12)
H73_3 H 0.1237 0.0169 0.3873
C133_3 C 0.0593(7) 0.0331(6) 0.4068(14)
H74_3 H 0.0516 0.0044 0.4215
C134_3 C 0.0268(7) 0.0677(7) 0.4055(14)
C135_3 C 0.0368(5) 0.1104(5) 0.3890(11)
H76_3 H 0.0146 0.1330 0.3903
C136_3 C 0.0815(5) 0.1209(5) 0.3694(10)
C137_3 C 0.0950(5) 0.1641(5) 0.3543(9)
C138_3 C 0.1391(6) 0.1734(5) 0.3325(10)
C139_3 C 0.1512(6) 0.2175(6) 0.3139(12)
H77_3 H 0.1302 0.2409 0.3165
C140_3 C 0.1927(6) 0.2258(6) 0.2925(13)
H78_3 H 0.2006 0.2551 0.2819
C141_3 C 0.2253(6) 0.1901(7) 0.2857(13)
H79_3 H 0.2528 0.1955 0.2668
C142_3 C 0.2143(6) 0.1480(6) 0.3080(12)
H80_3 H 0.2367 0.1252 0.3097
C143_3 C 0.0629(5) 0.2007(5) 0.3624(11)
C144_3 C 0.1705(5) 0.1375(6) 0.3285(9)
Zn8 Zn 0.86630(5) 0.36770(4) 0.35985(10)
Zn10_2 Zn 0.11574(5) 0.61534(5) 0.36009(10)
Zn12_2 Zn 0.88426(5) 0.38466(5) 0.63991(10)
N9_2 N 0.6728(4) 0.0656(3) 0.3787(8)
N11_2 N 0.5737(4) 0.1782(3) 0.6197(7)
O19 O 0.6569(3) 0.1493(3) 0.7874(6)
O21 O 0.6053(4) 0.0948(4) 0.7474(6)
C32_3 C 0.5951(4) 0.0916(4) 0.9318(9)
H18_3 H 0.5772 0.0705 0.8878
C33_3 C 0.6256(4) 0.1224(4) 0.9051(7)
C34_3 C 0.6517(5) 0.1522(5) 0.9721(10)
H19_3 H 0.6725 0.1724 0.9566
C36_3 C 0.6279(5) 0.1207(4) 0.8063(9)
O14 O 0.3431(3) 0.8507(3) 0.2126(6)
O16 O 0.3947(4) 0.9052(4) 0.2526(6)
C112_3 C 0.4049(4) 0.9084(4) 0.0682(9)
H62_3 H 0.4228 0.9295 0.1122
C113_3 C 0.3744(4) 0.8776(4) 0.0949(7)
C114_3 C 0.3483(5) 0.8478(5) 0.0279(10)
H63_3 H 0.3275 0.8276 0.0434
C116_3 C 0.3721(5) 0.8793(4) 0.1937(9)
Zn7 Zn 0.36630(5) 0.86770(4) 0.35985(10)
C48_3 C 0.9926(5) 0.6930(5) 0.6233(10)
H27_3 H 0.9626 0.6822 0.6262
C50_3 C 0.9640(6) 0.7697(5) 0.6307(11)
H31_3 H 0.6871 0.9724 0.6480
C56_3 C 0.7801(6) 0.9706(6) 0.6486(11)
C57_3 C 0.8074(6) 0.9424(5) 0.6546(11)
C58_3 C 0.8421(5) 0.9059(5) 0.6531(10)
C59_3 C 0.8869(6) 0.9156(5) 0.6337(11)
C60_3 C 0.8977(6) 0.9597(5) 0.6129(12)
H33_3 H 0.8763 0.9831 0.6127
C61_3 C 0.9407(7) 0.9669(6) 0.5932(14)
H34_3 H 0.9484 0.9956 0.5785
C62_3 C 0.9732(7) 0.9323(7) 0.5945(14)
C63_3 C 0.9632(5) 0.8896(5) 0.6110(11)
H36_3 H 0.9854 0.8670 0.6097
C64_3 C 0.9185(5) 0.8791(5) 0.6306(10)
C65_3 C 0.9050(5) 0.8359(5) 0.6457(9)
C66_3 C 0.8609(6) 0.8266(5) 0.6675(10)
C67_3 C 0.8488(6) 0.7825(6) 0.6861(12)
H37_3 H 0.8698 0.7591 0.6835
C68_3 C 0.8073(6) 0.7742(6) 0.7075(13)
H38_3 H 0.7994 0.7449 0.7181
C69_3 C 0.7747(6) 0.8099(7) 0.7143(13)
H39_3 H 0.7472 0.8045 0.7332
C70_3 C 0.7857(6) 0.8520(6) 0.6920(12)
H40_3 H 0.7633 0.8748 0.6903
C71_3 C 0.9371(5) 0.7993(5) 0.6376(11)
C72_3 C 0.8295(5) 0.8625(6) 0.6715(9)
O11_3 O 0.4166(3) 0.9042(3) 0.4617(6)
O12_3 O 0.4274(3) 0.9308(3) 0.6070(7)
C77_3 C 0.4347(4) 0.9310(4) 0.5280(9)
C78_3 C 0.4689(4) 0.9670(4) 0.5136(9)
C79_3 C 0.4732(4) 0.9737(4) 0.4257(9)
H43_3 H 0.4551 0.9559 0.3746
C80_3 C 0.4962(5) 0.9935(4) 0.5890(9)
H44_3 H 0.4939 0.9892 0.6497
Zn4_2 Zn 0.38426(5) 0.88466(5) 0.63991(10)
O13_3 O 0.4143(4) 0.9017(3) 0.7892(7)
N5_2 N 0.8272(4) 0.4344(3) 0.6213(8)
N7_3 N 0.4327(4) 0.8310(3) 0.6380(7)
O15_3 O 0.3580(4) 0.8531(4) 0.7488(6)
N8_3 N 0.3144(4) 0.9206(4) 0.3498(8)
C81_3 C 0.6354(5) 0.6750(5) 0.6020(10)
C82_3 C 0.6929(6) 0.5618(5) 0.6072(10)
C83_3 C 0.6584(6) 0.5958(5) 0.6126(11)
C84_3 C 0.6156(6) 0.5836(5) 0.6323(11)
C85_3 C 0.6042(7) 0.5400(6) 0.6492(13)
H45_3 H 0.6269 0.5174 0.6512
C86_3 C 0.5606(8) 0.5295(6) 0.6628(16)
H46_3 H 0.5536 0.4999 0.6728
C87_3 C 0.5258(7) 0.5630(7) 0.6621(16)
H47_3 H 0.4962 0.5553 0.6718
C88_3 C 0.5352(6) 0.6073(5) 0.6472(13)
H48_3 H 0.5121 0.6292 0.6471
C89_3 C 0.5804(5) 0.6189(5) 0.6320(11)
C90_3 C 0.5911(5) 0.6639(5) 0.6172(9)
C91_3 C 0.6480(6) 0.7193(5) 0.5871(13)
H49_3 H 0.6261 0.7420 0.5891
C92_3 C 0.6901(6) 0.7304(6) 0.5704(14)
H50_3 H 0.6967 0.7600 0.5599
C93_3 C 0.7246(7) 0.6959(5) 0.5688(16)
H51_3 H 0.7539 0.7031 0.5574
C94_3 C 0.7148(5) 0.6531(5) 0.5838(12)
H52_3 H 0.7379 0.6311 0.5845
C95_3 C 0.6693(5) 0.6408(5) 0.5986(11)
C96_3 C 0.5561(5) 0.6980(5) 0.6202(10)
C97_3 C 0.5277(6) 0.7257(5) 0.6231(11)
C98_3 C 0.4946(5) 0.7614(5) 0.6266(10)
C99_3 C 0.4477(5) 0.7531(5) 0.6317(10)
H53_3 H 0.4363 0.7240 0.6310
C100_3 C 0.4182(5) 0.7891(5) 0.6378(10)
H54_3 H 0.3869 0.7834 0.6419
C101_3 C 0.4784(5) 0.8389(4) 0.6352(9)
H55_3 H 0.4894 0.8682 0.6384
C102_3 C 0.5096(5) 0.8056(5) 0.6280(10)
H56_3 H 0.5406 0.8124 0.6240
C103_3 C 0.7206(6) 0.5331(6) 0.6056(11)
C104_3 C 0.7551(5) 0.4989(5) 0.6048(10)
C105_3 C 0.8376(5) 0.4771(4) 0.6158(11)
H57_3 H 0.8693 0.4850 0.6169
C106_3 C 0.8032(6) 0.5100(4) 0.6083(11)
H58_3 H 0.8120 0.5397 0.6056
C107_3 C 0.7442(5) 0.4539(4) 0.6100(10)
H59_3 H 0.7128 0.4447 0.6083
C108_3 C 0.7813(5) 0.4239(5) 0.6176(11)
H60_3 H 0.7738 0.3938 0.6203
C109_3 C 0.3831(5) 0.8767(5) 0.8128(10)
C110_3 C 0.3819(4) 0.8776(4) 0.9106(9)
C111_3 C 0.4083(5) 0.9077(5) 0.9771(10)
H61_3 H 0.4288 0.9280 0.9608
C115_3 C 0.3522(5) 0.8472(5) 0.9372(10)
H64_3 H 0.3346 0.8260 0.8933
C123_3 C 0.2692(5) 0.9144(5) 0.3506(9)
H69_3 H 0.2581 0.8853 0.3518
C124_3 C 0.2365(6) 0.9494(5) 0.3498(10)
H70_3 H 0.2042 0.9435 0.3482
C125_3 C 0.2526(5) 0.9923(5) 0.3513(10)
C126_3 C 0.3007(6) 0.9987(5) 0.3511(10)
C127_3 C 0.3301(5) 0.9636(4) 0.3496(10)
H72_3 H 0.3620 0.9689 0.3485
O17_2 O 0.3285(3) 0.8492(3) 0.5379(6)
O18_2 O 0.3238(3) 0.8205(3) 0.3963(6)
N10_2 N 0.3272(4) 0.9344(3) 0.6213(8)
N12_2 N 0.4263(4) 0.8218(3) 0.3803(7)
N6_2 N 0.9263(4) 0.3218(3) 0.3803(7)
C117_3 C 0.9189(5) 0.2777(4) 0.3792(10)
H65_3 H 0.8885 0.2675 0.3814
C118_3 C 0.9536(5) 0.2468(4) 0.3750(10)
H66_3 H 0.9460 0.2165 0.3716
C119_3 C 0.9994(5) 0.2606(4) 0.3760(9)
C121_3 C 0.9723(5) 0.3359(5) 0.3816(10)
H68_3 H 0.9794 0.3663 0.3861
H75_3 H 0.9971 0.0613 0.4163
O1_4 O 0.1715(3) 0.6508(3) 0.4621(6)
O2_4 O 0.0834(3) 0.5958(3) 0.5383(6)
O3_4 O 0.0857(4) 0.5983(3) 0.2108(7)
O4_4 O 0.1762(3) 0.6795(3) 0.6037(6)
O5_4 O 0.0726(3) 0.5692(3) 0.3930(7)
N3_4 N 0.0673(4) 0.6690(3) 0.3620(7)
O7_4 O 0.1420(4) 0.6469(4) 0.2512(6)
N4_4 N 0.1856(4) 0.5794(4) 0.6502(8)
H3_4 H 0.0038 0.9447 0.3282
C18_4 C 0.0054(5) 0.7386(5) 0.3734(10)
C19_4 C 0.0523(5) 0.7469(5) 0.3683(10)
H9_4 H 0.0637 0.7760 0.3690
C20_4 C 0.0818(5) 0.7109(5) 0.3622(10)
H10_4 H 0.1131 0.7166 0.3581
C21_4 C 0.0216(5) 0.6611(4) 0.3648(9)
H11_4 H 0.0106 0.6318 0.3616
C29_4 C 0.1169(5) 0.6233(5) 0.1872(10)
C30_4 C 0.1181(4) 0.6224(4) 0.0894(9)
C31_4 C 0.0917(5) 0.5923(5) 0.0229(10)
H17_4 H 0.0712 0.5720 0.0392
C35_4 C 0.1478(5) 0.6528(5) 0.0628(10)
H20_4 H 0.1654 0.6740 0.1067
C37_4 C 0.0653(4) 0.5690(4) 0.4720(9)
C38_4 C 0.0311(4) 0.5330(4) 0.4864(9)
C39_4 C 0.0268(4) 0.5263(4) 0.5743(9)
H21_4 H 0.0449 0.5441 0.6254
C40_4 C 0.0038(5) 0.5065(4) 0.4110(9)
H22_4 H 0.0061 0.5108 0.3503
C41_4 C 0.1857(4) 0.6793(4) 0.5264(8)
C42_4 C 0.2194(4) 0.7161(4) 0.5135(9)
C43_4 C 0.2461(5) 0.7429(4) 0.5905(9)
H23_4 H 0.2438 0.7379 0.6510
C44_4 C 0.2242(5) 0.7233(4) 0.4236(9)
H24_4 H 0.2071 0.7051 0.3725
C45_4 C 0.5811(5) 0.2223(4) 0.6208(10)
H25_4 H 0.6115 0.2325 0.6186
C46_4 C 0.5464(5) 0.2532(4) 0.6250(10)
H26_4 H 0.5540 0.2835 0.6284
C47_4 C 0.5006(5) 0.2394(4) 0.6240(9)
C48_4 C 0.4926(5) 0.1930(5) 0.6233(10)
H27_4 H 0.4626 0.1822 0.6262
C49_4 C 0.5277(5) 0.1641(5) 0.6184(10)
H28_4 H 0.5206 0.1337 0.6139
C50_4 C 0.4640(6) 0.2697(5) 0.6307(11)
C51_4 C 0.2308(5) 0.5856(5) 0.6494(9)
H29_4 H 0.2419 0.6147 0.6482
C52_4 C 0.2635(6) 0.5506(5) 0.6502(10)
H30_4 H 0.2958 0.5565 0.6518
C53_4 C 0.2474(5) 0.5077(5) 0.6487(10)
C54_4 C 0.1993(6) 0.5013(5) 0.6489(10)
H31_4 H 0.1871 0.4724 0.6480
C55_4 C 0.1699(5) 0.5364(4) 0.6504(10)
H32_4 H 0.1380 0.5311 0.6515
C56_4 C 0.2801(6) 0.4706(6) 0.6486(11)
C57_4 C 0.3074(6) 0.4424(5) 0.6546(11)
C58_4 C 0.3421(5) 0.4059(5) 0.6531(10)
C59_4 C 0.3869(6) 0.4156(5) 0.6337(11)
C60_4 C 0.3977(6) 0.4597(5) 0.6129(12)
H33_4 H 0.3763 0.4831 0.6127
C61_4 C 0.4407(7) 0.4669(6) 0.5932(14)
H34_4 H 0.4484 0.4956 0.5785
C62_4 C 0.4732(7) 0.4323(7) 0.5945(14)
H35_4 H 0.5029 0.4387 0.5837
C63_4 C 0.4632(5) 0.3896(5) 0.6110(11)
H36_4 H 0.4854 0.3670 0.6097
C64_4 C 0.4185(5) 0.3791(5) 0.6306(10)
C65_4 C 0.4050(5) 0.3359(5) 0.6457(9)
C66_4 C 0.3609(6) 0.3266(5) 0.6675(10)
C67_4 C 0.3488(6) 0.2825(6) 0.6861(12)
H37_4 H 0.3698 0.2591 0.6835
C68_4 C 0.3073(6) 0.2742(6) 0.7075(13)
H38_4 H 0.2994 0.2449 0.7181
C69_4 C 0.2747(6) 0.3099(7) 0.7143(13)
H39_4 H 0.2472 0.3045 0.7332
C70_4 C 0.2857(6) 0.3520(6) 0.6920(12)
H40_4 H 0.2633 0.3748 0.6903
C71_4 C 0.4371(5) 0.2993(5) 0.6376(11)
C72_4 C 0.3295(5) 0.3625(6) 0.6715(9)
C73_4 C 0.3143(4) 0.8207(4) 0.4736(8)
C74_4 C 0.2806(4) 0.7839(4) 0.4865(9)
C75_4 C 0.2539(5) 0.7571(4) 0.4095(9)
H41_4 H 0.2562 0.7621 0.3490
C76_4 C 0.2758(5) 0.7767(4) 0.5764(9)
H42_4 H 0.2929 0.7949 0.6275
C81_4 C 0.1354(5) 0.1750(5) 0.6020(10)
C82_4 C 0.1929(6) 0.0618(5) 0.6072(10)
C83_4 C 0.1584(6) 0.0958(5) 0.6126(11)
C84_4 C 0.1156(6) 0.0836(5) 0.6323(11)
C85_4 C 0.1042(7) 0.0400(6) 0.6492(13)
H45_4 H 0.1269 0.0174 0.6512
C86_4 C 0.0606(8) 0.0295(6) 0.6628(16)
C87_4 C 0.0258(7) 0.0630(7) 0.6621(16)
C88_4 C 0.0352(6) 0.1073(5) 0.6472(13)
H48_4 H 0.0121 0.1292 0.6471
C89_4 C 0.0804(5) 0.1189(5) 0.6320(11)
C90_4 C 0.0911(5) 0.1639(5) 0.6172(9)
C91_4 C 0.1480(6) 0.2193(5) 0.5871(13)
H49_4 H 0.1261 0.2420 0.5891
C92_4 C 0.1901(6) 0.2304(6) 0.5704(14)
H50_4 H 0.1967 0.2600 0.5599
C93_4 C 0.2246(7) 0.1959(5) 0.5688(16)
H51_4 H 0.2539 0.2031 0.5574
C94_4 C 0.2148(5) 0.1531(5) 0.5838(12)
H52_4 H 0.2379 0.1311 0.5845
C95_4 C 0.1693(5) 0.1408(5) 0.5986(11)
C96_4 C 0.0561(5) 0.1980(5) 0.6202(10)
C97_4 C 0.0277(6) 0.2257(5) 0.6231(11)
C102_4 C 0.0096(5) 0.3056(5) 0.6280(10)
H56_4 H 0.0406 0.3124 0.6240
C103_4 C 0.2206(6) 0.0331(6) 0.6056(11)
C106_4 C 0.3032(6) 0.0100(4) 0.6083(11)
H58_4 H 0.3120 0.0397 0.6056
O19_2 O 0.1569(3) 0.6493(3) 0.7874(6)
O21_2 O 0.1053(4) 0.5948(4) 0.7474(6)
C32_4 C 0.0951(4) 0.5916(4) 0.9318(9)
H18_4 H 0.0772 0.5705 0.8878
C33_4 C 0.1256(4) 0.6224(4) 0.9051(7)
C34_4 C 0.1517(5) 0.6522(5) 0.9721(10)
H19_4 H 0.1725 0.6724 0.9566
C36_4 C 0.1279(5) 0.6207(4) 0.8063(9)
H46_4 H 0.0536 0.9999 0.6728
C104_4 C 0.2551(5) 0.9989(5) 0.6048(10)
C105_4 C 0.3376(5) 0.9771(4) 0.6158(11)
H57_4 H 0.3693 0.9850 0.6169
C107_4 C 0.2442(5) 0.9539(4) 0.6100(10)
H59_4 H 0.2128 0.9447 0.6083
C108_4 C 0.2813(5) 0.9239(5) 0.6176(11)
H60_4 H 0.2738 0.8938 0.6203
H2_4 H 0.9464 0.0001 0.3272
C24_4 C 0.7449(5) 0.0011(5) 0.3952(10)
C25_4 C 0.6624(5) 0.0229(4) 0.3842(11)
H13_4 H 0.6307 0.0150 0.3831
C27_4 C 0.7558(5) 0.0461(4) 0.3900(10)
H15_4 H 0.7872 0.0553 0.3917
C28_4 C 0.7187(5) 0.0761(5) 0.3824(11)
H16_4 H 0.7262 0.1062 0.3797
O14_2 O 0.8431(3) 0.3507(3) 0.2126(6)
O16_2 O 0.8947(4) 0.4052(4) 0.2526(6)
C112_4 C 0.9049(4) 0.4084(4) 0.0682(9)
H62_4 H 0.9228 0.4295 0.1122
C113_4 C 0.8744(4) 0.3776(4) 0.0949(7)
C114_4 C 0.8483(5) 0.3478(5) 0.0279(10)
H63_4 H 0.8275 0.3276 0.0434
C116_4 C 0.8721(5) 0.3793(4) 0.1937(9)
C1_4 C 0.8646(5) 0.8250(5) 0.3980(10)
C2_4 C 0.8071(6) 0.9382(5) 0.3928(10)
C3_4 C 0.8416(6) 0.9042(5) 0.3874(11)
C4_4 C 0.8844(6) 0.9164(5) 0.3677(11)
C5_4 C 0.8958(7) 0.9600(6) 0.3508(13)
H1_4 H 0.8731 0.9826 0.3488
C6_4 C 0.9394(8) 0.9705(6) 0.3372(16)
C7_4 C 0.9742(7) 0.9370(7) 0.3379(16)
C8_4 C 0.9648(6) 0.8927(5) 0.3528(13)
H4_4 H 0.9879 0.8708 0.3529
C9_4 C 0.9196(5) 0.8811(5) 0.3680(11)
C10_4 C 0.9089(5) 0.8361(5) 0.3828(9)
C11_4 C 0.8520(6) 0.7807(5) 0.4129(13)
H5_4 H 0.8739 0.7580 0.4109
C12_4 C 0.8099(6) 0.7696(6) 0.4296(14)
H6_4 H 0.8033 0.7400 0.4401
C13_4 C 0.7754(7) 0.8041(5) 0.4312(16)
H7_4 H 0.7461 0.7969 0.4426
C14_4 C 0.7852(5) 0.8469(5) 0.4162(12)
H8_4 H 0.7621 0.8689 0.4155
C15_4 C 0.8307(5) 0.8592(5) 0.4014(11)
C16_4 C 0.9439(5) 0.8020(5) 0.3798(10)
C17_4 C 0.9723(6) 0.7743(5) 0.3769(11)
C22_4 C 0.9904(5) 0.6944(5) 0.3720(10)
H12_4 H 0.9594 0.6876 0.3760
C23_4 C 0.7794(6) 0.9669(6) 0.3944(11)
C26_4 C 0.6968(6) 0.9900(4) 0.3917(11)
H14_4 H 0.6880 0.9603 0.3944
O11_4 O 0.9166(3) 0.4042(3) 0.4617(6)
O12_4 O 0.9274(3) 0.4308(3) 0.6070(7)
C77_4 C 0.9347(4) 0.4310(4) 0.5280(9)
C78_4 C 0.9689(4) 0.4670(4) 0.5136(9)
C79_4 C 0.9732(4) 0.4737(4) 0.4257(9)
H43_4 H 0.9551 0.4559 0.3746
C80_4 C 0.9962(5) 0.4935(4) 0.5890(9)
H44_4 H 0.9939 0.4892 0.6497
O13_4 O 0.9143(4) 0.4017(3) 0.7892(7)
N7_4 N 0.9327(4) 0.3310(3) 0.6380(7)
O15_4 O 0.8580(4) 0.3531(4) 0.7488(6)
N8_4 N 0.8144(4) 0.4206(4) 0.3498(8)
H47_4 H 0.9962 0.0553 0.6718
C98_4 C 0.9946(5) 0.2614(5) 0.6266(10)
C99_4 C 0.9477(5) 0.2531(5) 0.6317(10)
H53_4 H 0.9363 0.2240 0.6310
C100_4 C 0.9182(5) 0.2891(5) 0.6378(10)
H54_4 H 0.8869 0.2834 0.6419
C101_4 C 0.9784(5) 0.3389(4) 0.6352(9)
H55_4 H 0.9894 0.3682 0.6384
C109_4 C 0.8831(5) 0.3767(5) 0.8128(10)
C110_4 C 0.8819(4) 0.3776(4) 0.9106(9)
C111_4 C 0.9083(5) 0.4077(5) 0.9771(10)
H61_4 H 0.9288 0.4280 0.9608
C115_4 C 0.8522(5) 0.3472(5) 0.9372(10)
H64_4 H 0.8346 0.3260 0.8933
C117_4 C 0.4189(5) 0.7777(4) 0.3792(10)
H65_4 H 0.3885 0.7675 0.3814
C118_4 C 0.4536(5) 0.7468(4) 0.3750(10)
H66_4 H 0.4460 0.7165 0.3716
C119_4 C 0.4994(5) 0.7606(4) 0.3760(9)
C120_4 C 0.5074(5) 0.8070(5) 0.3767(10)
H67_4 H 0.5374 0.8178 0.3738
C121_4 C 0.4723(5) 0.8359(5) 0.3816(10)
H68_4 H 0.4794 0.8663 0.3861
C122_4 C 0.5360(6) 0.7303(5) 0.3693(11)
C123_4 C 0.7692(5) 0.4144(5) 0.3506(9)
H69_4 H 0.7581 0.3853 0.3518
C124_4 C 0.7365(6) 0.4494(5) 0.3498(10)
H70_4 H 0.7042 0.4435 0.3482
C125_4 C 0.7526(5) 0.4923(5) 0.3513(10)
C126_4 C 0.8007(6) 0.4987(5) 0.3511(10)
H71_4 H 0.8129 0.5276 0.3520
C127_4 C 0.8301(5) 0.4636(4) 0.3496(10)
H72_4 H 0.8620 0.4689 0.3485
C128_4 C 0.7199(6) 0.5294(6) 0.3514(11)
C129_4 C 0.6926(6) 0.5576(5) 0.3454(11)
C130_4 C 0.6579(5) 0.5941(5) 0.3469(10)
C131_4 C 0.6131(6) 0.5844(5) 0.3663(11)
C132_4 C 0.6023(6) 0.5403(5) 0.3871(12)
H73_4 H 0.6237 0.5169 0.3873
C133_4 C 0.5593(7) 0.5331(6) 0.4068(14)
H74_4 H 0.5516 0.5044 0.4215
C134_4 C 0.5268(7) 0.5677(7) 0.4055(14)
H75_4 H 0.4971 0.5613 0.4163
C135_4 C 0.5368(5) 0.6104(5) 0.3890(11)
H76_4 H 0.5146 0.6330 0.3903
C136_4 C 0.5815(5) 0.6209(5) 0.3694(10)
C137_4 C 0.5950(5) 0.6641(5) 0.3543(9)
C138_4 C 0.6391(6) 0.6734(5) 0.3325(10)
C139_4 C 0.6512(6) 0.7175(6) 0.3139(12)
H77_4 H 0.6302 0.7409 0.3165
C140_4 C 0.6927(6) 0.7258(6) 0.2925(13)
H78_4 H 0.7006 0.7551 0.2819
C141_4 C 0.7253(6) 0.6901(7) 0.2857(13)
H79_4 H 0.7528 0.6955 0.2668
C142_4 C 0.7143(6) 0.6480(6) 0.3080(12)
H80_4 H 0.7367 0.6252 0.3097
C143_4 C 0.5629(5) 0.7007(5) 0.3624(11)
C144_4 C 0.6705(5) 0.6375(6) 0.3285(9)
loop_
_geom_bond_atom_site_label_1
_geom_bond_atom_site_label_2
_geom_bond_site_symmetry_1
_geom_bond_site_symmetry_2
N6 C117 1_555 1_555
C117 H65 1_555 1_555
C118 C117 1_555 1_555
H66 C118 1_555 1_555
C119 C118 1_555 1_555
C121 N6 1_555 1_555
H68 C121 1_555 1_555
Zn9 N6 1_555 1_555
Zn2 O1 1_555 1_555
O3 Zn2 1_555 1_555
N1 C25 1_555 1_555
O5 Zn2 1_555 1_555
N3 Zn2 1_555 1_555
O6 C36 1_555 1_555
O7 Zn2 1_555 1_555
O8 C36 1_555 1_555
C1 C10 1_555 1_555
C2 C3 1_555 1_555
C3 C4 1_555 1_555
C4 C5 1_555 1_555
C5 H1 1_555 1_555
C6 C5 1_555 1_555
H2 C6 1_555 1_555
C7 C6 1_555 1_555
H3 C7 1_555 1_555
C8 C7 1_555 1_555
H4 C8 1_555 1_555
C9 C4 1_555 1_555
C10 C9 1_555 1_555
C11 C1 1_555 1_555
H5 C11 1_555 1_555
C12 C11 1_555 1_555
H6 C12 1_555 1_555
C13 C12 1_555 1_555
H7 C13 1_555 1_555
C14 C13 1_555 1_555
H8 C14 1_555 1_555
C15 C1 1_555 1_555
C16 C10 1_555 1_555
C17 C16 1_555 1_555
C18 C17 1_555 1_555
C19 C18 1_555 1_555
H9 C19 1_555 1_555
C20 N3 1_555 1_555
H10 C20 1_555 1_555
C21 N3 1_555 1_555
H11 C21 1_555 1_555
C22 C18 1_555 1_555
H12 C22 1_555 1_555
C23 C2 1_555 1_555
C24 C23 1_555 1_555
C25 H13 1_555 1_555
C26 C24 1_555 1_555
H14 C26 1_555 1_555
C27 C24 1_555 1_555
H15 C27 1_555 1_555
C28 N1 1_555 1_555
H16 C28 1_555 1_555
C29 O3 1_555 1_555
C30 C29 1_555 1_555
C31 C30 1_555 1_555
H17 C31 1_555 1_555
C32 C31 1_555 1_555
H18 C32 1_555 1_555
C33 C32 1_555 1_555
C34 C33 1_555 1_555
H19 C34 1_555 1_555
C35 C30 1_555 1_555
H20 C35 1_555 1_555
C36 C33 1_555 1_555
C37 O5 1_555 1_555
C38 C37 1_555 1_555
C40 C38 1_555 1_555
H22 C40 1_555 1_555
H24 C44 1_555 1_555
O10 C73 1_555 1_555
C73 C74 1_555 1_555
C74 C75 1_555 1_555
C75 C44 1_555 1_555
H41 C75 1_555 1_555
H67 C120 1_555 1_555
C129 C128 1_555 1_555
C130 C129 1_555 1_555
C131 C130 1_555 1_555
C132 C131 1_555 1_555
H73 C132 1_555 1_555
C133 C132 1_555 1_555
H74 C133 1_555 1_555
C134 C133 1_555 1_555
C135 C134 1_555 1_555
H76 C135 1_555 1_555
C136 C131 1_555 1_555
C137 C136 1_555 1_555
C138 C137 1_555 1_555
C139 C138 1_555 1_555
H77 C139 1_555 1_555
C140 C139 1_555 1_555
H78 C140 1_555 1_555
C141 C140 1_555 1_555
H79 C141 1_555 1_555
C142 C141 1_555 1_555
H80 C142 1_555 1_555
C143 C122 1_555 1_555
C144 C130 1_555 1_555
Zn5 O6 1_555 1_555
Zn9 O10 1_555 1_555
Zn10 N1 1_555 1_555
N9 Zn2 1_555 1_555
O7 C29 1_555 1_555
O8 Zn5 1_555 1_555
C3 C15 1_555 1_555
C8 C9 1_555 1_555
C14 C15 1_555 1_555
C19 C20 1_555 1_555
C21 C22 1_555 1_555
C25 C26 1_555 1_555
C27 C28 1_555 1_555
C34 C35 1_555 1_555
C135 C136 1_555 1_555
C137 C143 1_555 1_555
C138 C144 1_555 1_555
C142 C144 1_555 1_555
Zn5 O2 1_555 1_555
O4 Zn5 1_555 1_555
N4 Zn5 1_555 1_555
H21 C39 1_555 1_555
C41 O4 1_555 1_555
C42 C41 1_555 1_555
C43 C42 1_555 1_555
H23 C43 1_555 1_555
C51 N4 1_555 1_555
H29 C51 1_555 1_555
C52 C51 1_555 1_555
H30 C52 1_555 1_555
C53 C52 1_555 1_555
C54 C53 1_555 1_555
C55 N4 1_555 1_555
H32 C55 1_555 1_555
C76 C43 1_555 1_555
H42 C76 1_555 1_555
Zn12 O9 1_555 1_555
N11 Zn5 1_555 1_555
C54 C55 1_555 1_555
H43 C79 1_555 1_555
Zn3 O11 1_555 1_555
N8 Zn3 1_555 1_555
C123 N8 1_555 1_555
H69 C123 1_555 1_555
C124 C123 1_555 1_555
H70 C124 1_555 1_555
C125 C124 1_555 1_555
C126 C125 1_555 1_555
C127 N8 1_555 1_555
H72 C127 1_555 1_555
O18 Zn3 1_555 1_555
N12 Zn3 1_555 1_555
O20 Zn3 1_555 1_555
O22 Zn3 1_555 1_555
C126 C127 1_555 1_555
H27 C48 1_555 1_555
C57 C56 1_555 1_555
C58 C57 1_555 1_555
C59 C58 1_555 1_555
C60 C59 1_555 1_555
H33 C60 1_555 1_555
C61 C60 1_555 1_555
H34 C61 1_555 1_555
C62 C61 1_555 1_555
C63 C62 1_555 1_555
H36 C63 1_555 1_555
C64 C59 1_555 1_555
C65 C64 1_555 1_555
C66 C65 1_555 1_555
C67 C66 1_555 1_555
H37 C67 1_555 1_555
C68 C67 1_555 1_555
H38 C68 1_555 1_555
C69 C68 1_555 1_555
H39 C69 1_555 1_555
C70 C69 1_555 1_555
H40 C70 1_555 1_555
C71 C50 1_555 1_555
C72 C58 1_555 1_555
O12 C77 1_555 1_555
C77 C78 1_555 1_555
H44 C80 1_555 1_555
Zn4 O12 1_555 1_555
O13 Zn4 1_555 1_555
N5 C105 1_555 1_555
N7 Zn4 1_555 1_555
O20 C116 1_555 1_555
O15 Zn4 1_555 1_555
O22 C116 1_555 1_555
C81 C90 1_555 1_555
C82 C83 1_555 1_555
C83 C84 1_555 1_555
C84 C85 1_555 1_555
C85 H45 1_555 1_555
C86 C85 1_555 1_555
H46 C86 1_555 1_555
C87 C86 1_555 1_555
H47 C87 1_555 1_555
C88 C87 1_555 1_555
H48 C88 1_555 1_555
C89 C84 1_555 1_555
C90 C89 1_555 1_555
C91 C81 1_555 1_555
H49 C91 1_555 1_555
C92 C91 1_555 1_555
H50 C92 1_555 1_555
C93 C92 1_555 1_555
H51 C93 1_555 1_555
C94 C93 1_555 1_555
H52 C94 1_555 1_555
C95 C81 1_555 1_555
C96 C90 1_555 1_555
C97 C96 1_555 1_555
C98 C97 1_555 1_555
C99 C98 1_555 1_555
H53 C99 1_555 1_555
C100 N7 1_555 1_555
H54 C100 1_555 1_555
C101 N7 1_555 1_555
H55 C101 1_555 1_555
C102 C98 1_555 1_555
H56 C102 1_555 1_555
C103 C82 1_555 1_555
C104 C103 1_555 1_555
C105 H57 1_555 1_555
C106 C104 1_555 1_555
H58 C106 1_555 1_555
C107 C104 1_555 1_555
H59 C107 1_555 1_555
C108 N5 1_555 1_555
H60 C108 1_555 1_555
C109 O13 1_555 1_555
C110 C109 1_555 1_555
C111 C110 1_555 1_555
H61 C111 1_555 1_555
C112 C111 1_555 1_555
H62 C112 1_555 1_555
C113 C112 1_555 1_555
C114 C113 1_555 1_555
H63 C114 1_555 1_555
C115 C110 1_555 1_555
H64 C115 1_555 1_555
C116 C113 1_555 1_555
Zn12 N5 1_555 1_555
O17 Zn4 1_555 1_555
N10 Zn4 1_555 1_555
C63 C64 1_555 1_555
C65 C71 1_555 1_555
C66 C72 1_555 1_555
C70 C72 1_555 1_555
C78 C80 1_555 1_555
O15 C109 1_555 1_555
C83 C95 1_555 1_555
C88 C89 1_555 1_555
C94 C95 1_555 1_555
C99 C100 1_555 1_555
C101 C102 1_555 1_555
C105 C106 1_555 1_555
C107 C108 1_555 1_555
C114 C115 1_555 1_555
N2 C45 1_555 1_555
C45 H25 1_555 1_555
C46 C45 1_555 1_555
H26 C46 1_555 1_555
C47 C46 1_555 1_555
C49 N2 1_555 1_555
H28 C49 1_555 1_555
Zn6 N2 1_555 1_555
N9 C25_2 1_555 1_555
C25_2 H13_2 1_555 1_555
C27_2 C24_2 1_555 1_555
H15_2 C27_2 1_555 1_555
C28_2 N9 1_555 1_555
H16_2 C28_2 1_555 1_555
C27_2 C28_2 1_555 1_555
C1_2 C10_2 1_555 1_555
C2_2 C3_2 1_555 1_555
C3_2 C4_2 1_555 1_555
C4_2 C5_2 1_555 1_555
C5_2 H1_2 1_555 1_555
C6_2 C5_2 1_555 1_555
C7_2 C6_2 1_555 1_555
C8_2 C7_2 1_555 1_555
H4_2 C8_2 1_555 1_555
C9_2 C4_2 1_555 1_555
C10_2 C9_2 1_555 1_555
C11_2 C1_2 1_555 1_555
H5_2 C11_2 1_555 1_555
C12_2 C11_2 1_555 1_555
H6_2 C12_2 1_555 1_555
C13_2 C12_2 1_555 1_555
H7_2 C13_2 1_555 1_555
C14_2 C13_2 1_555 1_555
H8_2 C14_2 1_555 1_555
C15_2 C1_2 1_555 1_555
C16_2 C10_2 1_555 1_555
C17_2 C16_2 1_555 1_555
H12_2 C22_2 1_555 1_555
C23_2 C2_2 1_555 1_555
H14_2 C26_2 1_555 1_555
H43_2 C79_2 1_555 1_555
Zn9 O11_2 1_555 1_555
N12 C117_2 1_555 1_555
N8_2 Zn9 1_555 1_555
C117_2 H65_2 1_555 1_555
C118_2 C117_2 1_555 1_555
H66_2 C118_2 1_555 1_555
C119_2 C118_2 1_555 1_555
C120_2 C119_2 1_555 1_555
H67_2 C120_2 1_555 1_555
C121_2 N12 1_555 1_555
H68_2 C121_2 1_555 1_555
C122_2 C119_2 1_555 1_555
C123_2 N8_2 1_555 1_555
H69_2 C123_2 1_555 1_555
C124_2 C123_2 1_555 1_555
H70_2 C124_2 1_555 1_555
C125_2 C124_2 1_555 1_555
C126_2 C125_2 1_555 1_555
H71_2 C126_2 1_555 1_555
C127_2 N8_2 1_555 1_555
H72_2 C127_2 1_555 1_555
C128_2 C125_2 1_555 1_555
C129_2 C128_2 1_555 1_555
C130_2 C129_2 1_555 1_555
C131_2 C130_2 1_555 1_555
C132_2 C131_2 1_555 1_555
H73_2 C132_2 1_555 1_555
C133_2 C132_2 1_555 1_555
H74_2 C133_2 1_555 1_555
C134_2 C133_2 1_555 1_555
H75_2 C134_2 1_555 1_555
C135_2 C134_2 1_555 1_555
H76_2 C135_2 1_555 1_555
C136_2 C131_2 1_555 1_555
C137_2 C136_2 1_555 1_555
C138_2 C137_2 1_555 1_555
C139_2 C138_2 1_555 1_555
H77_2 C139_2 1_555 1_555
C140_2 C139_2 1_555 1_555
H78_2 C140_2 1_555 1_555
C141_2 C140_2 1_555 1_555
H79_2 C141_2 1_555 1_555
C142_2 C141_2 1_555 1_555
H80_2 C142_2 1_555 1_555
C143_2 C122_2 1_555 1_555
C144_2 C130_2 1_555 1_555
O20_2 Zn9 1_555 1_555
O22_2 Zn9 1_555 1_555
C3_2 C15_2 1_555 1_555
C8_2 C9_2 1_555 1_555
C14_2 C15_2 1_555 1_555
C120_2 C121_2 1_555 1_555
C126_2 C127_2 1_555 1_555
C135_2 C136_2 1_555 1_555
C137_2 C143_2 1_555 1_555
C138_2 C144_2 1_555 1_555
C142_2 C144_2 1_555 1_555
O12_2 C77_2 1_555 1_555
C77_2 C78_2 1_555 1_555
H44_2 C80_2 1_555 1_555
Zn12 O12_2 1_555 1_555
O13_2 Zn12 1_555 1_555
N7_2 Zn12 1_555 1_555
O20_2 C116_2 1_555 1_555
O15_2 Zn12 1_555 1_555
O22_2 C116_2 1_555 1_555
C99_2 C98_2 1_555 1_555
H53_2 C99_2 1_555 1_555
C100_2 N7_2 1_555 1_555
H54_2 C100_2 1_555 1_555
C101_2 N7_2 1_555 1_555
H55_2 C101_2 1_555 1_555
C109_2 O13_2 1_555 1_555
C110_2 C109_2 1_555 1_555
C111_2 C110_2 1_555 1_555
H61_2 C111_2 1_555 1_555
C112_2 C111_2 1_555 1_555
H62_2 C112_2 1_555 1_555
C113_2 C112_2 1_555 1_555
C114_2 C113_2 1_555 1_555
H63_2 C114_2 1_555 1_555
C115_2 C110_2 1_555 1_555
H64_2 C115_2 1_555 1_555
C116_2 C113_2 1_555 1_555
C78_2 C80_2 1_555 1_555
O15_2 C109_2 1_555 1_555
C99_2 C100_2 1_555 1_555
C114_2 C115_2 1_555 1_555
Zn10 O1_2 1_555 1_555
O3_2 Zn10 1_555 1_555
O5_2 Zn10 1_555 1_555
N3_2 Zn10 1_555 1_555
O6_2 C36_2 1_555 1_555
O7_2 Zn10 1_555 1_555
O8_2 C36_2 1_555 1_555
C19_2 C18_2 1_555 1_555
H9_2 C19_2 1_555 1_555
C20_2 N3_2 1_555 1_555
H10_2 C20_2 1_555 1_555
C21_2 N3_2 1_555 1_555
H11_2 C21_2 1_555 1_555
C29_2 O3_2 1_555 1_555
C30_2 C29_2 1_555 1_555
C31_2 C30_2 1_555 1_555
H17_2 C31_2 1_555 1_555
C32_2 C31_2 1_555 1_555
H18_2 C32_2 1_555 1_555
C33_2 C32_2 1_555 1_555
C34_2 C33_2 1_555 1_555
H19_2 C34_2 1_555 1_555
C35_2 C30_2 1_555 1_555
H20_2 C35_2 1_555 1_555
C36_2 C33_2 1_555 1_555
C37_2 O5_2 1_555 1_555
C38_2 C37_2 1_555 1_555
C40_2 C38_2 1_555 1_555
H22_2 C40_2 1_555 1_555
H24_2 C44_2 1_555 1_555
O18 C73_2 1_555 1_555
C73_2 C74_2 1_555 1_555
C74_2 C75_2 1_555 1_555
C75_2 C44_2 1_555 1_555
H41_2 C75_2 1_555 1_555
Zn6 O6_2 1_555 1_555
O7_2 C29_2 1_555 1_555
O8_2 Zn6 1_555 1_555
C19_2 C20_2 1_555 1_555
C34_2 C35_2 1_555 1_555
Zn6 O2_2 1_555 1_555
O4_2 Zn6 1_555 1_555
N11 C45_2 1_555 1_555
N4_2 Zn6 1_555 1_555
H21_2 C39_2 1_555 1_555
C41_2 O4_2 1_555 1_555
C42_2 C41_2 1_555 1_555
C43_2 C42_2 1_555 1_555
H23_2 C43_2 1_555 1_555
C45_2 H25_2 1_555 1_555
C46_2 C45_2 1_555 1_555
H26_2 C46_2 1_555 1_555
C47_2 C46_2 1_555 1_555
C48_2 C47_2 1_555 1_555
H27_2 C48_2 1_555 1_555
C49_2 N11 1_555 1_555
H28_2 C49_2 1_555 1_555
C50_2 C47_2 1_555 1_555
C51_2 N4_2 1_555 1_555
H29_2 C51_2 1_555 1_555
C52_2 C51_2 1_555 1_555
H30_2 C52_2 1_555 1_555
C53_2 C52_2 1_555 1_555
C54_2 C53_2 1_555 1_555
H31_2 C54_2 1_555 1_555
C55_2 N4_2 1_555 1_555
H32_2 C55_2 1_555 1_555
C56_2 C53_2 1_555 1_555
C57_2 C56_2 1_555 1_555
C58_2 C57_2 1_555 1_555
C59_2 C58_2 1_555 1_555
C60_2 C59_2 1_555 1_555
H33_2 C60_2 1_555 1_555
C61_2 C60_2 1_555 1_555
H34_2 C61_2 1_555 1_555
C62_2 C61_2 1_555 1_555
H35_2 C62_2 1_555 1_555
C63_2 C62_2 1_555 1_555
H36_2 C63_2 1_555 1_555
C64_2 C59_2 1_555 1_555
C65_2 C64_2 1_555 1_555
C66_2 C65_2 1_555 1_555
C67_2 C66_2 1_555 1_555
H37_2 C67_2 1_555 1_555
C68_2 C67_2 1_555 1_555
H38_2 C68_2 1_555 1_555
C69_2 C68_2 1_555 1_555
H39_2 C69_2 1_555 1_555
C70_2 C69_2 1_555 1_555
H40_2 C70_2 1_555 1_555
C71_2 C50_2 1_555 1_555
C72_2 C58_2 1_555 1_555
C76_2 C43_2 1_555 1_555
H42_2 C76_2 1_555 1_555
C81_2 C90_2 1_555 1_555
C82_2 C83_2 1_555 1_555
C83_2 C84_2 1_555 1_555
C84_2 C85_2 1_555 1_555
C85_2 H45_2 1_555 1_555
C86_2 C85_2 1_555 1_555
C87_2 C86_2 1_555 1_555
C88_2 C87_2 1_555 1_555
H48_2 C88_2 1_555 1_555
C89_2 C84_2 1_555 1_555
C90_2 C89_2 1_555 1_555
C91_2 C81_2 1_555 1_555
H49_2 C91_2 1_555 1_555
C92_2 C91_2 1_555 1_555
H50_2 C92_2 1_555 1_555
C93_2 C92_2 1_555 1_555
H51_2 C93_2 1_555 1_555
C94_2 C93_2 1_555 1_555
H52_2 C94_2 1_555 1_555
C95_2 C81_2 1_555 1_555
C96_2 C90_2 1_555 1_555
C97_2 C96_2 1_555 1_555
H56_2 C102_2 1_555 1_555
C103_2 C82_2 1_555 1_555
H58_2 C106_2 1_555 1_555
C48_2 C49_2 1_555 1_555
C54_2 C55_2 1_555 1_555
C63_2 C64_2 1_555 1_555
C65_2 C71_2 1_555 1_555
C66_2 C72_2 1_555 1_555
C70_2 C72_2 1_555 1_555
C83_2 C95_2 1_555 1_555
C88_2 C89_2 1_555 1_555
C94_2 C95_2 1_555 1_555
N10 C105_2 1_555 1_555
C105_2 H57_2 1_555 1_555
C107_2 C104_2 1_555 1_555
H59_2 C107_2 1_555 1_555
C108_2 N10 1_555 1_555
H60_2 C108_2 1_555 1_555
C107_2 C108_2 1_555 1_555
N2_2 C45_3 1_555 1_555
C45_3 H25_3 1_555 1_555
C46_3 C45_3 1_555 1_555
H26_3 C46_3 1_555 1_555
C47_3 C46_3 1_555 1_555
C49_3 N2_2 1_555 1_555
H28_3 C49_3 1_555 1_555
Zn6_2 N2_2 1_555 1_555
Zn1 O2_3 1_555 1_555
Zn2_2 O1_3 1_555 1_555
O1_3 C41_3 1_555 1_555
O2_3 C37_3 1_555 1_555
O3_3 Zn2_2 1_555 1_555
O4_3 Zn1 1_555 1_555
N1_2 C25_3 1_555 1_555
O5_3 Zn2_2 1_555 1_555
N3_3 Zn2_2 1_555 1_555
O7_3 Zn2_2 1_555 1_555
N4_3 Zn1 1_555 1_555
C1_3 C10_3 1_555 1_555
C2_3 C3_3 1_555 1_555
C3_3 C4_3 1_555 1_555
C4_3 C5_3 1_555 1_555
C5_3 H1_3 1_555 1_555
C6_3 C5_3 1_555 1_555
H2_3 C6_3 1_555 1_555
C7_3 C6_3 1_555 1_555
H3_3 C7_3 1_555 1_555
C8_3 C7_3 1_555 1_555
H4_3 C8_3 1_555 1_555
C9_3 C4_3 1_555 1_555
C10_3 C9_3 1_555 1_555
C11_3 C1_3 1_555 1_555
H5_3 C11_3 1_555 1_555
C12_3 C11_3 1_555 1_555
H6_3 C12_3 1_555 1_555
C13_3 C12_3 1_555 1_555
H7_3 C13_3 1_555 1_555
C14_3 C13_3 1_555 1_555
H8_3 C14_3 1_555 1_555
C15_3 C1_3 1_555 1_555
C16_3 C10_3 1_555 1_555
C17_3 C16_3 1_555 1_555
C18_3 C17_3 1_555 1_555
C19_3 C18_3 1_555 1_555
H9_3 C19_3 1_555 1_555
C20_3 N3_3 1_555 1_555
H10_3 C20_3 1_555 1_555
C21_3 N3_3 1_555 1_555
H11_3 C21_3 1_555 1_555
C22_3 C18_3 1_555 1_555
H12_3 C22_3 1_555 1_555
C23_3 C2_3 1_555 1_555
C24_3 C23_3 1_555 1_555
C25_3 H13_3 1_555 1_555
C26_3 C24_3 1_555 1_555
H14_3 C26_3 1_555 1_555
C27_3 C24_3 1_555 1_555
H15_3 C27_3 1_555 1_555
C28_3 N1_2 1_555 1_555
H16_3 C28_3 1_555 1_555
C29_3 O3_3 1_555 1_555
C30_3 C29_3 1_555 1_555
C31_3 C30_3 1_555 1_555
H17_3 C31_3 1_555 1_555
C35_3 C30_3 1_555 1_555
H20_3 C35_3 1_555 1_555
C37_3 O5_3 1_555 1_555
C38_3 C37_3 1_555 1_555
C39_3 C38_3 1_555 1_555
H21_3 C39_3 1_555 1_555
C40_3 C38_3 1_555 1_555
H22_3 C40_3 1_555 1_555
C41_3 O4_3 1_555 1_555
C42_3 C41_3 1_555 1_555
C43_3 C42_3 1_555 1_555
H23_3 C43_3 1_555 1_555
C44_3 C42_3 1_555 1_555
H24_3 C44_3 1_555 1_555
C51_3 N4_3 1_555 1_555
H29_3 C51_3 1_555 1_555
C52_3 C51_3 1_555 1_555
H30_3 C52_3 1_555 1_555
C53_3 C52_3 1_555 1_555
C54_3 C53_3 1_555 1_555
C55_3 N4_3 1_555 1_555
H32_3 C55_3 1_555 1_555
O9_2 C73_3 1_555 1_555
O10_2 C73_3 1_555 1_555
C73_3 C74_3 1_555 1_555
C74_3 C75_3 1_555 1_555
C75_3 C44_3 1_555 1_555
H41_3 C75_3 1_555 1_555
C76_3 C43_3 1_555 1_555
H42_3 C76_3 1_555 1_555
H67_3 C120_3 1_555 1_555
C129_3 C128_3 1_555 1_555
C130_3 C129_3 1_555 1_555
C131_3 C130_3 1_555 1_555
C132_3 C131_3 1_555 1_555
H73_3 C132_3 1_555 1_555
C133_3 C132_3 1_555 1_555
H74_3 C133_3 1_555 1_555
C134_3 C133_3 1_555 1_555
C135_3 C134_3 1_555 1_555
H76_3 C135_3 1_555 1_555
C136_3 C131_3 1_555 1_555
C137_3 C136_3 1_555 1_555
C138_3 C137_3 1_555 1_555
C139_3 C138_3 1_555 1_555
H77_3 C139_3 1_555 1_555
C140_3 C139_3 1_555 1_555
H78_3 C140_3 1_555 1_555
C141_3 C140_3 1_555 1_555
H79_3 C141_3 1_555 1_555
C142_3 C141_3 1_555 1_555
H80_3 C142_3 1_555 1_555
C143_3 C122_3 1_555 1_555
C144_3 C130_3 1_555 1_555
Zn8 O10_2 1_555 1_555
Zn10_2 N1_2 1_555 1_555
Zn12_2 O9_2 1_555 1_555
N9_2 Zn2_2 1_555 1_555
N11_2 Zn1 1_555 1_555
O19 Zn1 1_555 1_555
O21 Zn1 1_555 1_555
O7_3 C29_3 1_555 1_555
C3_3 C15_3 1_555 1_555
C8_3 C9_3 1_555 1_555
C14_3 C15_3 1_555 1_555
C19_3 C20_3 1_555 1_555
C21_3 C22_3 1_555 1_555
C25_3 C26_3 1_555 1_555
C27_3 C28_3 1_555 1_555
C54_3 C55_3 1_555 1_555
C74_3 C76_3 1_555 1_555
C135_3 C136_3 1_555 1_555
C137_3 C143_3 1_555 1_555
C138_3 C144_3 1_555 1_555
C142_3 C144_3 1_555 1_555
O19 C36_3 1_555 1_555
O21 C36_3 1_555 1_555
H18_3 C32_3 1_555 1_555
C33_3 C32_3 1_555 1_555
C34_3 C33_3 1_555 1_555
H19_3 C34_3 1_555 1_555
C36_3 C33_3 1_555 1_555
O14 C116_3 1_555 1_555
O16 C116_3 1_555 1_555
H62_3 C112_3 1_555 1_555
C113_3 C112_3 1_555 1_555
C114_3 C113_3 1_555 1_555
H63_3 C114_3 1_555 1_555
C116_3 C113_3 1_555 1_555
Zn7 O14 1_555 1_555
O16 Zn7 1_555 1_555
H27_3 C48_3 1_555 1_555
C57_3 C56_3 1_555 1_555
C58_3 C57_3 1_555 1_555
C59_3 C58_3 1_555 1_555
C60_3 C59_3 1_555 1_555
H33_3 C60_3 1_555 1_555
C61_3 C60_3 1_555 1_555
H34_3 C61_3 1_555 1_555
C62_3 C61_3 1_555 1_555
C63_3 C62_3 1_555 1_555
H36_3 C63_3 1_555 1_555
C64_3 C59_3 1_555 1_555
C65_3 C64_3 1_555 1_555
C66_3 C65_3 1_555 1_555
C67_3 C66_3 1_555 1_555
H37_3 C67_3 1_555 1_555
C68_3 C67_3 1_555 1_555
H38_3 C68_3 1_555 1_555
C69_3 C68_3 1_555 1_555
H39_3 C69_3 1_555 1_555
C70_3 C69_3 1_555 1_555
H40_3 C70_3 1_555 1_555
C71_3 C50_3 1_555 1_555
C72_3 C58_3 1_555 1_555
O11_3 C77_3 1_555 1_555
O12_3 C77_3 1_555 1_555
C77_3 C78_3 1_555 1_555
C78_3 C79_3 1_555 1_555
H43_3 C79_3 1_555 1_555
H44_3 C80_3 1_555 1_555
Zn7 O11_3 1_555 1_555
Zn4_2 O12_3 1_555 1_555
O13_3 Zn4_2 1_555 1_555
N5_2 C105_3 1_555 1_555
N7_3 Zn4_2 1_555 1_555
O15_3 Zn4_2 1_555 1_555
N8_3 Zn7 1_555 1_555
C81_3 C90_3 1_555 1_555
C82_3 C83_3 1_555 1_555
C83_3 C84_3 1_555 1_555
C84_3 C85_3 1_555 1_555
C85_3 H45_3 1_555 1_555
C86_3 C85_3 1_555 1_555
H46_3 C86_3 1_555 1_555
C87_3 C86_3 1_555 1_555
H47_3 C87_3 1_555 1_555
C88_3 C87_3 1_555 1_555
H48_3 C88_3 1_555 1_555
C89_3 C84_3 1_555 1_555
C90_3 C89_3 1_555 1_555
C91_3 C81_3 1_555 1_555
H49_3 C91_3 1_555 1_555
C92_3 C91_3 1_555 1_555
H50_3 C92_3 1_555 1_555
C93_3 C92_3 1_555 1_555
H51_3 C93_3 1_555 1_555
C94_3 C93_3 1_555 1_555
H52_3 C94_3 1_555 1_555
C95_3 C81_3 1_555 1_555
C96_3 C90_3 1_555 1_555
C97_3 C96_3 1_555 1_555
C98_3 C97_3 1_555 1_555
C99_3 C98_3 1_555 1_555
H53_3 C99_3 1_555 1_555
C100_3 N7_3 1_555 1_555
H54_3 C100_3 1_555 1_555
C101_3 N7_3 1_555 1_555
H55_3 C101_3 1_555 1_555
C102_3 C98_3 1_555 1_555
H56_3 C102_3 1_555 1_555
C103_3 C82_3 1_555 1_555
C104_3 C103_3 1_555 1_555
C105_3 H57_3 1_555 1_555
C106_3 C104_3 1_555 1_555
H58_3 C106_3 1_555 1_555
C107_3 C104_3 1_555 1_555
H59_3 C107_3 1_555 1_555
C108_3 N5_2 1_555 1_555
H60_3 C108_3 1_555 1_555
C109_3 O13_3 1_555 1_555
C110_3 C109_3 1_555 1_555
C111_3 C110_3 1_555 1_555
H61_3 C111_3 1_555 1_555
C115_3 C110_3 1_555 1_555
H64_3 C115_3 1_555 1_555
C123_3 N8_3 1_555 1_555
H69_3 C123_3 1_555 1_555
C124_3 C123_3 1_555 1_555
H70_3 C124_3 1_555 1_555
C125_3 C124_3 1_555 1_555
C126_3 C125_3 1_555 1_555
C127_3 N8_3 1_555 1_555
H72_3 C127_3 1_555 1_555
Zn12_2 N5_2 1_555 1_555
O17_2 Zn4_2 1_555 1_555
O18_2 Zn7 1_555 1_555
N10_2 Zn4_2 1_555 1_555
N12_2 Zn7 1_555 1_555
C63_3 C64_3 1_555 1_555
C65_3 C71_3 1_555 1_555
C66_3 C72_3 1_555 1_555
C70_3 C72_3 1_555 1_555
C78_3 C80_3 1_555 1_555
O15_3 C109_3 1_555 1_555
C83_3 C95_3 1_555 1_555
C88_3 C89_3 1_555 1_555
C94_3 C95_3 1_555 1_555
C99_3 C100_3 1_555 1_555
C101_3 C102_3 1_555 1_555
C105_3 C106_3 1_555 1_555
C107_3 C108_3 1_555 1_555
C126_3 C127_3 1_555 1_555
N6_2 C117_3 1_555 1_555
C117_3 H65_3 1_555 1_555
C118_3 C117_3 1_555 1_555
H66_3 C118_3 1_555 1_555
C119_3 C118_3 1_555 1_555
C121_3 N6_2 1_555 1_555
H68_3 C121_3 1_555 1_555
Zn8 N6_2 1_555 1_555
Zn6_2 O2_4 1_555 1_555
Zn10_2 O1_4 1_555 1_555
O1_4 C41_4 1_555 1_555
O2_4 C37_4 1_555 1_555
O3_4 Zn10_2 1_555 1_555
O4_4 Zn6_2 1_555 1_555
O5_4 Zn10_2 1_555 1_555
N11_2 C45_4 1_555 1_555
N3_4 Zn10_2 1_555 1_555
O7_4 Zn10_2 1_555 1_555
N4_4 Zn6_2 1_555 1_555
C19_4 C18_4 1_555 1_555
H9_4 C19_4 1_555 1_555
C20_4 N3_4 1_555 1_555
H10_4 C20_4 1_555 1_555
C21_4 N3_4 1_555 1_555
H11_4 C21_4 1_555 1_555
C29_4 O3_4 1_555 1_555
C30_4 C29_4 1_555 1_555
C31_4 C30_4 1_555 1_555
H17_4 C31_4 1_555 1_555
C35_4 C30_4 1_555 1_555
H20_4 C35_4 1_555 1_555
C37_4 O5_4 1_555 1_555
C38_4 C37_4 1_555 1_555
C39_4 C38_4 1_555 1_555
H21_4 C39_4 1_555 1_555
C40_4 C38_4 1_555 1_555
H22_4 C40_4 1_555 1_555
C41_4 O4_4 1_555 1_555
C42_4 C41_4 1_555 1_555
C43_4 C42_4 1_555 1_555
H23_4 C43_4 1_555 1_555
C44_4 C42_4 1_555 1_555
H24_4 C44_4 1_555 1_555
C45_4 H25_4 1_555 1_555
C46_4 C45_4 1_555 1_555
H26_4 C46_4 1_555 1_555
C47_4 C46_4 1_555 1_555
C48_4 C47_4 1_555 1_555
H27_4 C48_4 1_555 1_555
C49_4 N11_2 1_555 1_555
H28_4 C49_4 1_555 1_555
C50_4 C47_4 1_555 1_555
C51_4 N4_4 1_555 1_555
H29_4 C51_4 1_555 1_555
C52_4 C51_4 1_555 1_555
H30_4 C52_4 1_555 1_555
C53_4 C52_4 1_555 1_555
C54_4 C53_4 1_555 1_555
H31_4 C54_4 1_555 1_555
C55_4 N4_4 1_555 1_555
H32_4 C55_4 1_555 1_555
C56_4 C53_4 1_555 1_555
C57_4 C56_4 1_555 1_555
C58_4 C57_4 1_555 1_555
C59_4 C58_4 1_555 1_555
C60_4 C59_4 1_555 1_555
H33_4 C60_4 1_555 1_555
C61_4 C60_4 1_555 1_555
H34_4 C61_4 1_555 1_555
C62_4 C61_4 1_555 1_555
H35_4 C62_4 1_555 1_555
C63_4 C62_4 1_555 1_555
H36_4 C63_4 1_555 1_555
C64_4 C59_4 1_555 1_555
C65_4 C64_4 1_555 1_555
C66_4 C65_4 1_555 1_555
C67_4 C66_4 1_555 1_555
H37_4 C67_4 1_555 1_555
C68_4 C67_4 1_555 1_555
H38_4 C68_4 1_555 1_555
C69_4 C68_4 1_555 1_555
H39_4 C69_4 1_555 1_555
C70_4 C69_4 1_555 1_555
H40_4 C70_4 1_555 1_555
C71_4 C50_4 1_555 1_555
C72_4 C58_4 1_555 1_555
O17_2 C73_4 1_555 1_555
O18_2 C73_4 1_555 1_555
C73_4 C74_4 1_555 1_555
C74_4 C75_4 1_555 1_555
C75_4 C44_4 1_555 1_555
H41_4 C75_4 1_555 1_555
C76_4 C43_4 1_555 1_555
H42_4 C76_4 1_555 1_555
C81_4 C90_4 1_555 1_555
C82_4 C83_4 1_555 1_555
C83_4 C84_4 1_555 1_555
C84_4 C85_4 1_555 1_555
C85_4 H45_4 1_555 1_555
C86_4 C85_4 1_555 1_555
C87_4 C86_4 1_555 1_555
C88_4 C87_4 1_555 1_555
H48_4 C88_4 1_555 1_555
C89_4 C84_4 1_555 1_555
C90_4 C89_4 1_555 1_555
C91_4 C81_4 1_555 1_555
H49_4 C91_4 1_555 1_555
C92_4 C91_4 1_555 1_555
H50_4 C92_4 1_555 1_555
C93_4 C92_4 1_555 1_555
H51_4 C93_4 1_555 1_555
C94_4 C93_4 1_555 1_555
H52_4 C94_4 1_555 1_555
C95_4 C81_4 1_555 1_555
C96_4 C90_4 1_555 1_555
C97_4 C96_4 1_555 1_555
H56_4 C102_4 1_555 1_555
C103_4 C82_4 1_555 1_555
H58_4 C106_4 1_555 1_555
O19_2 Zn6_2 1_555 1_555
O21_2 Zn6_2 1_555 1_555
O7_4 C29_4 1_555 1_555
C19_4 C20_4 1_555 1_555
C48_4 C49_4 1_555 1_555
C54_4 C55_4 1_555 1_555
C63_4 C64_4 1_555 1_555
C65_4 C71_4 1_555 1_555
C66_4 C72_4 1_555 1_555
C70_4 C72_4 1_555 1_555
C74_4 C76_4 1_555 1_555
C83_4 C95_4 1_555 1_555
C88_4 C89_4 1_555 1_555
C94_4 C95_4 1_555 1_555
O19_2 C36_4 1_555 1_555
O21_2 C36_4 1_555 1_555
H18_4 C32_4 1_555 1_555
C33_4 C32_4 1_555 1_555
C34_4 C33_4 1_555 1_555
H19_4 C34_4 1_555 1_555
C36_4 C33_4 1_555 1_555
N10_2 C105_4 1_555 1_555
C105_4 H57_4 1_555 1_555
C107_4 C104_4 1_555 1_555
H59_4 C107_4 1_555 1_555
C108_4 N10_2 1_555 1_555
H60_4 C108_4 1_555 1_555
C107_4 C108_4 1_555 1_555
N9_2 C25_4 1_555 1_555
C25_4 H13_4 1_555 1_555
C27_4 C24_4 1_555 1_555
H15_4 C27_4 1_555 1_555
C28_4 N9_2 1_555 1_555
H16_4 C28_4 1_555 1_555
C27_4 C28_4 1_555 1_555
O14_2 C116_4 1_555 1_555
O16_2 C116_4 1_555 1_555
H62_4 C112_4 1_555 1_555
C113_4 C112_4 1_555 1_555
C114_4 C113_4 1_555 1_555
H63_4 C114_4 1_555 1_555
C116_4 C113_4 1_555 1_555
Zn8 O14_2 1_555 1_555
O16_2 Zn8 1_555 1_555
C1_4 C10_4 1_555 1_555
C2_4 C3_4 1_555 1_555
C3_4 C4_4 1_555 1_555
C4_4 C5_4 1_555 1_555
C5_4 H1_4 1_555 1_555
C6_4 C5_4 1_555 1_555
C7_4 C6_4 1_555 1_555
C8_4 C7_4 1_555 1_555
H4_4 C8_4 1_555 1_555
C9_4 C4_4 1_555 1_555
C10_4 C9_4 1_555 1_555
C11_4 C1_4 1_555 1_555
H5_4 C11_4 1_555 1_555
C12_4 C11_4 1_555 1_555
H6_4 C12_4 1_555 1_555
C13_4 C12_4 1_555 1_555
H7_4 C13_4 1_555 1_555
C14_4 C13_4 1_555 1_555
H8_4 C14_4 1_555 1_555
C15_4 C1_4 1_555 1_555
C16_4 C10_4 1_555 1_555
C17_4 C16_4 1_555 1_555
H12_4 C22_4 1_555 1_555
C23_4 C2_4 1_555 1_555
H14_4 C26_4 1_555 1_555
O11_4 C77_4 1_555 1_555
O12_4 C77_4 1_555 1_555
C77_4 C78_4 1_555 1_555
C78_4 C79_4 1_555 1_555
H43_4 C79_4 1_555 1_555
H44_4 C80_4 1_555 1_555
Zn8 O11_4 1_555 1_555
Zn12_2 O12_4 1_555 1_555
O13_4 Zn12_2 1_555 1_555
N12_2 C117_4 1_555 1_555
N7_4 Zn12_2 1_555 1_555
O15_4 Zn12_2 1_555 1_555
N8_4 Zn8 1_555 1_555
C99_4 C98_4 1_555 1_555
H53_4 C99_4 1_555 1_555
C100_4 N7_4 1_555 1_555
H54_4 C100_4 1_555 1_555
C101_4 N7_4 1_555 1_555
H55_4 C101_4 1_555 1_555
C109_4 O13_4 1_555 1_555
C110_4 C109_4 1_555 1_555
C111_4 C110_4 1_555 1_555
H61_4 C111_4 1_555 1_555
C115_4 C110_4 1_555 1_555
H64_4 C115_4 1_555 1_555
C117_4 H65_4 1_555 1_555
C118_4 C117_4 1_555 1_555
H66_4 C118_4 1_555 1_555
C119_4 C118_4 1_555 1_555
C120_4 C119_4 1_555 1_555
H67_4 C120_4 1_555 1_555
C121_4 N12_2 1_555 1_555
H68_4 C121_4 1_555 1_555
C122_4 C119_4 1_555 1_555
C123_4 N8_4 1_555 1_555
H69_4 C123_4 1_555 1_555
C124_4 C123_4 1_555 1_555
H70_4 C124_4 1_555 1_555
C125_4 C124_4 1_555 1_555
C126_4 C125_4 1_555 1_555
H71_4 C126_4 1_555 1_555
C127_4 N8_4 1_555 1_555
H72_4 C127_4 1_555 1_555
C128_4 C125_4 1_555 1_555
C129_4 C128_4 1_555 1_555
C130_4 C129_4 1_555 1_555
C131_4 C130_4 1_555 1_555
C132_4 C131_4 1_555 1_555
H73_4 C132_4 1_555 1_555
C133_4 C132_4 1_555 1_555
H74_4 C133_4 1_555 1_555
C134_4 C133_4 1_555 1_555
H75_4 C134_4 1_555 1_555
C135_4 C134_4 1_555 1_555
H76_4 C135_4 1_555 1_555
C136_4 C131_4 1_555 1_555
C137_4 C136_4 1_555 1_555
C138_4 C137_4 1_555 1_555
C139_4 C138_4 1_555 1_555
H77_4 C139_4 1_555 1_555
C140_4 C139_4 1_555 1_555
H78_4 C140_4 1_555 1_555
C141_4 C140_4 1_555 1_555
H79_4 C141_4 1_555 1_555
C142_4 C141_4 1_555 1_555
H80_4 C142_4 1_555 1_555
C143_4 C122_4 1_555 1_555
C144_4 C130_4 1_555 1_555
C3_4 C15_4 1_555 1_555
C8_4 C9_4 1_555 1_555
C14_4 C15_4 1_555 1_555
C78_4 C80_4 1_555 1_555
O15_4 C109_4 1_555 1_555
C99_4 C100_4 1_555 1_555
C120_4 C121_4 1_555 1_555
C126_4 C127_4 1_555 1_555
C135_4 C136_4 1_555 1_555
C137_4 C143_4 1_555 1_555
C138_4 C144_4 1_555 1_555
C142_4 C144_4 1_555 1_555

#END
