
###############################################################################
#
# This file contains modified crystal structure data generated from the
# MOF subset of the Cambridge Structural Database (CSD) v543 
# hosted by the Cambridge Crystallographic Data Centre (CCDC).
#
# This work is licensed under the Creative Commons
# Attribution-NonCommercial-ShareAlike 4.0 International License.
# To view a copy of this license, visit
# http://creativecommons.org/licenses/by-nc-sa/4.0/
# or send a letter to
# Creative Commons, PO Box 1866, Mountain View, CA 94042, USA.
#
# CIF created using the CSD Python API on 29 September 2022
# The structure has been converted into the P1 space group
# The structure has a 3D framework
# The original CSD entry ZAFXAI is in the cubic crystal system
# The framework has been calculated to contain at least 10.0% void space
# The void calculation uses a probe of radius 1.32A, grid spacing 0.4
# The framework is charged, counterions have been retained in the structure
# H atom positions have been added when not included in the experimental data
# Generated hydrogen atom positions removed from atoms on special positions
#
###############################################################################

data_ZAFXAI
_chemical_formula_moiety         '(C96 H264 O116 Y24 3-)n'
_symmetry_cell_setting           triclinic
_symmetry_space_group_name_H-M   'P 1'
_symmetry_Int_Tables_number      1
_space_group_name_Hall           'P 1'
loop_
_symmetry_equiv_pos_site_id
_symmetry_equiv_pos_as_xyz
1 x,y,z
_cell_length_a                   18.5353(9)
_cell_length_b                   18.5353(9)
_cell_length_c                   18.5353(9)
_cell_angle_alpha                90
_cell_angle_beta                 90
_cell_angle_gamma                90
_cell_volume                     6367.94
loop_
_atom_site_label
_atom_site_type_symbol
_atom_site_fract_x
_atom_site_fract_y
_atom_site_fract_z
O35 O 0.07960(19) 0.5674(2) 0.0555(2)
Y17 Y 0.01317(3) 0.51230(3) 0.14642(3)
O40 O 0.0671(2) 0.4329(2) 0.0671(2)
O59 O 0.2103(4) 0.4900(3) 0.0956(3)
H22 H 0.297904 0.441661 0.0153599
O2 O 0.0674(2) 0.5555(2) 0.92040(19)
Y4 Y 0.14642(3) 0.01317(3) 0.51230(3)
O26 O 0.0944(4) 0.0239(3) 0.7089(4)
O27 O 0.0956(3) 0.2103(4) 0.4900(3)
O28 O 0.1886(3) 0.1309(4) 0.5068(3)
O29 O 0.1888(3) 0.0242(3) 0.6300(3)
C17 C 0.1620(6) 0.0234(5) 0.6910(6)
C18 C 0.2145(7) 0.2554(7) 0.4986(8)
H9 H 0.1971 0.3024 0.4986
C19 C 0.2147(7) 0.0250(7) 0.7543(8)
H10 H 0.1962 0.0261 0.8009
C20 C 0.1613(6) 0.1938(6) 0.4987(6)
O30 O 0.2801(17) 0.0241(17) 0.5218(17)
O31 O 0.3114(3) 0.3691(4) 0.5068(3)
C21 C 0.2855(7) 0.2446(7) 0.4986(8)
H11 H 0.3029 0.1976 0.4986
C22 C 0.3387(6) 0.3062(6) 0.4987(6)
O32 O 0.4044(3) 0.2897(4) 0.4900(3)
O33 O 0.3112(3) 0.0242(3) 0.8700(3)
C23 C 0.3380(6) 0.0234(5) 0.8090(6)
C24 C 0.2853(7) 0.0250(7) 0.7457(8)
H12 H 0.3038 0.0261 0.6991
O34 O 0.4056(4) 0.0239(3) 0.7911(4)
Y5 Y 0.14642(3) 0.48683(3) 0.98770(3)
O36 O 0.2801(17) 0.4759(17) 0.9782(17)
Y6 Y 0.35358(3) 0.48683(3) 0.51230(3)
O37 O 0.42040(19) 0.5674(2) 0.4445(2)
O38 O 0.2199(17) 0.4759(17) 0.5218(17)
Y8 Y 0.51317(3) 0.01230(3) 0.85358(3)
Y15 Y 0.48770(3) 0.64642(3) 0.51317(3)
Y16 Y 0.01230(3) 0.64642(3) 0.98683(3)
Y18 Y 0.48683(3) 0.51230(3) 0.35358(3)
Y21 Y 0.35358(3) 0.01317(3) 0.98770(3)
Y25 Y 0.51230(3) 0.35358(3) 0.48683(3)
O41 O 0.4329(2) 0.4329(2) 0.4329(2)
O42 O 0.0671(2) 0.0671(2) 0.4329(2)
O43 O 0.4326(2) 0.5555(2) 0.57960(19)
O47 O 0.0555(2) 0.07960(19) 0.5674(2)
O49 O 0.4445(2) 0.42040(19) 0.5674(2)
O50 O 0.0555(2) 0.42040(19) 0.9326(2)
O52 O 0.2911(4) 0.5944(4) 0.5239(3)
O53 O 0.2089(4) 0.5944(4) 0.9761(3)
O54 O 0.0944(4) 0.4761(3) 0.7911(4)
O60 O 0.2897(4) 0.4900(3) 0.4044(3)
O61 O 0.2103(4) 0.0100(3) 0.4044(3)
O62 O 0.1886(3) 0.3691(4) 0.9932(3)
O63 O 0.1888(3) 0.4758(3) 0.8700(3)
O64 O 0.3112(3) 0.4758(3) 0.6300(3)
H14 H 0.00646627 0.437874 0.702304
O19 O 0.0674(2) 0.9445(2) 0.57960(19)
O25 O 0.07960(19) 0.9326(2) 0.4445(2)
Y13 Y 0.01230(3) 0.85358(3) 0.51317(3)
Y19 Y 0.01317(3) 0.98770(3) 0.35358(3)
O51 O 0.2089(4) 0.9056(4) 0.5239(3)
H19 H 0.30254 0.976074 0.514047
Y10 Y 0.85358(3) 0.51317(3) 0.01230(3)
Y22 Y 0.51230(3) 0.14642(3) 0.01317(3)
Y26 Y 0.98770(3) 0.35358(3) 0.01317(3)
Y1 Y 0.98683(3) 0.48770(3) 0.85358(3)
O1 O 0.9329(2) 0.5671(2) 0.9329(2)
O3 O 0.9761(3) 0.2911(4) 0.9056(4)
O4 O 0.7897(4) 0.5100(3) 0.9044(3)
O5 O 0.8691(4) 0.4932(3) 0.8114(3)
O6 O 0.9758(3) 0.3700(3) 0.8112(3)
C1 C 0.9766(5) 0.3090(6) 0.8380(6)
C2 C 0.7446(7) 0.5014(8) 0.7855(7)
H1 H 0.6976 0.5014 0.8029
C3 C 0.9750(7) 0.2457(8) 0.7853(7)
H2 H 0.9739 0.1991 0.8038
C4 C 0.8062(6) 0.5013(6) 0.8387(6)
O7 O 0.9759(17) 0.4782(17) 0.7199(17)
O8 O 0.6309(4) 0.4932(3) 0.6886(3)
C5 C 0.7554(7) 0.5014(8) 0.7145(7)
H3 H 0.8024 0.5014 0.6971
C6 C 0.6938(6) 0.5013(6) 0.6613(6)
O9 O 0.7103(4) 0.5100(3) 0.5956(3)
O10 O 0.9758(3) 0.1300(3) 0.6888(3)
C7 C 0.9766(5) 0.1910(6) 0.6620(6)
C8 C 0.9750(7) 0.2543(8) 0.7147(7)
H4 H 0.9739 0.3009 0.6962
O11 O 0.9761(3) 0.2089(4) 0.5944(4)
Y2 Y 0.51317(3) 0.48770(3) 0.64642(3)
O12 O 0.5671(2) 0.5671(2) 0.5671(2)
O14 O 0.5239(3) 0.2911(4) 0.5944(4)
O15 O 0.5242(3) 0.3700(3) 0.6888(3)
C9 C 0.5234(5) 0.3090(6) 0.6620(6)
C10 C 0.5250(7) 0.2457(8) 0.7147(7)
H5 H 0.5261 0.1991 0.6962
O16 O 0.5241(17) 0.4782(17) 0.7801(17)
O17 O 0.5242(3) 0.1300(3) 0.8112(3)
C11 C 0.5234(5) 0.1910(6) 0.8380(6)
C12 C 0.5250(7) 0.2543(8) 0.7853(7)
H6 H 0.5261 0.3009 0.8038
O18 O 0.5239(3) 0.2089(4) 0.9056(4)
Y3 Y 0.98683(3) 0.01230(3) 0.64642(3)
O21 O 0.8691(4) 0.0068(3) 0.6886(3)
O22 O 0.9759(17) 0.0218(17) 0.7801(17)
O23 O 0.6309(4) 0.0068(3) 0.8114(3)
Y11 Y 0.64642(3) 0.51317(3) 0.48770(3)
Y23 Y 0.98770(3) 0.14642(3) 0.48683(3)
O44 O 0.92040(19) 0.0674(2) 0.5555(2)
O45 O 0.92040(19) 0.4326(2) 0.9445(2)
O46 O 0.57960(19) 0.4326(2) 0.5555(2)
O55 O 0.4056(4) 0.4761(3) 0.7089(4)
O57 O 0.5100(3) 0.5956(3) 0.7103(4)
O58 O 0.9900(3) 0.5956(3) 0.7897(4)
H17 H 0.929418 0.0453282 0.79259
Y12 Y 0.64642(3) 0.98683(3) 0.01230(3)
O20 O 0.7897(4) 0.9900(3) 0.5956(3)
C13 C 0.7446(7) 0.9986(8) 0.7145(7)
H7 H 0.6976 0.9986 0.6971
C14 C 0.8062(6) 0.9987(6) 0.6613(6)
C15 C 0.7554(7) 0.9986(8) 0.7855(7)
H8 H 0.8024 0.9986 0.8029
C16 C 0.6938(6) 0.9987(6) 0.8387(6)
O24 O 0.7103(4) 0.9900(3) 0.9044(3)
Y9 Y 0.85358(3) 0.98683(3) 0.48770(3)
O39 O 0.9329(2) 0.9329(2) 0.5671(2)
O56 O 0.9900(3) 0.9044(3) 0.7103(4)
H18 H 0.97747 0.972788 0.801674
H16 H 0.0246521 0.0270892 0.801673
O40_2 O 0.4329(2) 0.0671(2) 0.0671(2)
O59_2 O 0.2897(4) 0.0100(3) 0.0956(3)
H22_2 H 0.202096 0.0583387 0.0153599
O7_2 O 0.5241(17) 0.0218(17) 0.7199(17)
C17_2 C 0.3380(6) 0.4766(5) 0.6910(6)
C19_2 C 0.2853(7) 0.4750(7) 0.7543(8)
H10_2 H 0.3038 0.4739 0.8009
C23_2 C 0.1620(6) 0.4766(5) 0.8090(6)
C24_2 C 0.2147(7) 0.4750(7) 0.7457(8)
H12_2 H 0.1962 0.4739 0.6991
O36_2 O 0.2199(17) 0.0241(17) 0.9782(17)
O45_2 O 0.57960(19) 0.0674(2) 0.9445(2)
O50_2 O 0.4445(2) 0.07960(19) 0.9326(2)
O62_2 O 0.3114(3) 0.1309(4) 0.9932(3)
O35_2 O 0.42040(19) 0.9326(2) 0.0555(2)
Y17_2 Y 0.48683(3) 0.98770(3) 0.14642(3)
O1_2 O 0.5671(2) 0.9329(2) 0.9329(2)
O2_2 O 0.4326(2) 0.9445(2) 0.92040(19)
Y16_2 Y 0.48770(3) 0.85358(3) 0.98683(3)
O53_2 O 0.2911(4) 0.9056(4) 0.9761(3)
O58_2 O 0.5100(3) 0.9044(3) 0.7897(4)
H13 H 0.507917 0.975974 0.697358
H15 H 0.952581 0.977554 0.7993
H21 H 0.19746 0.976074 0.985953
H24 H 0.301673 0.975348 0.527089
H16_2 H 0.0246521 0.472911 0.698327
O27_2 O 0.4044(3) 0.2103(4) 0.0100(3)
C18_2 C 0.2855(7) 0.2554(7) 0.0014(8)
H9_2 H 0.3029 0.3024 0.0014
C20_2 C 0.3387(6) 0.1938(6) 0.0013(6)
C21_2 C 0.2145(7) 0.2446(7) 0.0014(8)
H11_2 H 0.1971 0.1976 0.0014
C22_2 C 0.1613(6) 0.3062(6) 0.0013(6)
O32_2 O 0.0956(3) 0.2897(4) 0.0100(3)
H18_2 H 0.52253 0.972788 0.698326
H14_2 H 0.00646627 0.0621263 0.797696
H23 H 0.207411 0.0538875 0.935458
H24_2 H 0.198327 0.975348 0.972911
H13_2 H 0.992083 0.975974 0.802642
H15_2 H 0.547419 0.977554 0.7007
H22_3 H 0.0153599 0.297904 0.441661
O26_2 O 0.7089(4) 0.0944(4) 0.0239(3)
O27_3 O 0.4900(3) 0.0956(3) 0.2103(4)
O28_2 O 0.5068(3) 0.1886(3) 0.1309(4)
O29_2 O 0.6300(3) 0.1888(3) 0.0242(3)
C17_3 C 0.6910(6) 0.1620(6) 0.0234(5)
C18_3 C 0.4986(8) 0.2145(7) 0.2554(7)
H9_3 H 0.4986 0.1971 0.3024
C19_3 C 0.7543(8) 0.2147(7) 0.0250(7)
H10_3 H 0.8009 0.1962 0.0261
C20_3 C 0.4987(6) 0.1613(6) 0.1938(6)
O30_2 O 0.5218(17) 0.2801(17) 0.0241(17)
O31_2 O 0.5068(3) 0.3114(3) 0.3691(4)
C21_3 C 0.4986(8) 0.2855(7) 0.2446(7)
H11_3 H 0.4986 0.3029 0.1976
C22_3 C 0.4987(6) 0.3387(6) 0.3062(6)
O32_3 O 0.4900(3) 0.4044(3) 0.2897(4)
O33_2 O 0.8700(3) 0.3112(3) 0.0242(3)
C23_3 C 0.8090(6) 0.3380(6) 0.0234(5)
C24_3 C 0.7457(8) 0.2853(7) 0.0250(7)
H12_3 H 0.6991 0.3038 0.0261
O34_2 O 0.7911(4) 0.4056(4) 0.0239(3)
O36_3 O 0.9782(17) 0.2801(17) 0.4759(17)
O38_2 O 0.5218(17) 0.2199(17) 0.4759(17)
O47_2 O 0.5674(2) 0.0555(2) 0.07960(19)
O49_2 O 0.5674(2) 0.4445(2) 0.42040(19)
O50_3 O 0.9326(2) 0.0555(2) 0.42040(19)
O54_2 O 0.7911(4) 0.0944(4) 0.4761(3)
O62_3 O 0.9932(3) 0.1886(3) 0.3691(4)
O63_2 O 0.8700(3) 0.1888(3) 0.4758(3)
O64_2 O 0.6300(3) 0.3112(3) 0.4758(3)
H14_3 H 0.702304 0.00646627 0.437874
H19_2 H 0.514047 0.30254 0.976074
O3_2 O 0.9056(4) 0.9761(3) 0.2911(4)
O4_2 O 0.9044(3) 0.7897(4) 0.5100(3)
O5_2 O 0.8114(3) 0.8691(4) 0.4932(3)
O6_2 O 0.8112(3) 0.9758(3) 0.3700(3)
C1_2 C 0.8380(6) 0.9766(5) 0.3090(6)
C2_2 C 0.7855(7) 0.7446(7) 0.5014(8)
H1_2 H 0.8029 0.6976 0.5014
C3_2 C 0.7853(7) 0.9750(7) 0.2457(8)
H2_2 H 0.8038 0.9739 0.1991
C4_2 C 0.8387(6) 0.8062(6) 0.5013(6)
O7_3 O 0.7199(17) 0.9759(17) 0.4782(17)
O8_2 O 0.6886(3) 0.6309(4) 0.4932(3)
C5_2 C 0.7145(7) 0.7554(7) 0.5014(8)
H3_2 H 0.6971 0.8024 0.5014
C6_2 C 0.6613(6) 0.6938(6) 0.5013(6)
O9_2 O 0.5956(3) 0.7103(4) 0.5100(3)
O10_2 O 0.6888(3) 0.9758(3) 0.1300(3)
C7_2 C 0.6620(6) 0.9766(5) 0.1910(6)
C8_2 C 0.7147(7) 0.9750(7) 0.2543(8)
H4_2 H 0.6962 0.9739 0.3009
O11_2 O 0.5944(4) 0.9761(3) 0.2089(4)
O14_2 O 0.5944(4) 0.5239(3) 0.2911(4)
O15_2 O 0.6888(3) 0.5242(3) 0.3700(3)
C9_2 C 0.6620(6) 0.5234(5) 0.3090(6)
C10_2 C 0.7147(7) 0.5250(7) 0.2457(8)
H5_2 H 0.6962 0.5261 0.1991
O16_2 O 0.7801(17) 0.5241(17) 0.4782(17)
O17_2 O 0.8112(3) 0.5242(3) 0.1300(3)
C11_2 C 0.8380(6) 0.5234(5) 0.1910(6)
C12_2 C 0.7853(7) 0.5250(7) 0.2543(8)
H6_2 H 0.8038 0.5261 0.3009
O18_2 O 0.9056(4) 0.5239(3) 0.2089(4)
O21_2 O 0.6886(3) 0.8691(4) 0.0068(3)
O22_2 O 0.7801(17) 0.9759(17) 0.0218(17)
O23_2 O 0.8114(3) 0.6309(4) 0.0068(3)
O44_2 O 0.5555(2) 0.92040(19) 0.0674(2)
O45_3 O 0.9445(2) 0.92040(19) 0.4326(2)
O46_2 O 0.5555(2) 0.57960(19) 0.4326(2)
O55_2 O 0.7089(4) 0.4056(4) 0.4761(3)
H17_2 H 0.79259 0.929418 0.0453282
O20_2 O 0.5956(3) 0.7897(4) 0.9900(3)
C13_2 C 0.7145(7) 0.7446(7) 0.9986(8)
H7_2 H 0.6971 0.6976 0.9986
C14_2 C 0.6613(6) 0.8062(6) 0.9987(6)
C15_2 C 0.7855(7) 0.7554(7) 0.9986(8)
H8_2 H 0.8029 0.8024 0.9986
C16_2 C 0.8387(6) 0.6938(6) 0.9987(6)
O24_2 O 0.9044(3) 0.7103(4) 0.9900(3)
H18_3 H 0.801674 0.97747 0.972788
H22_4 H 0.0153599 0.202096 0.0583387
H16_3 H 0.801673 0.0246521 0.0270892
O7_4 O 0.7199(17) 0.5241(17) 0.0218(17)
C17_4 C 0.6910(6) 0.3380(6) 0.4766(5)
C19_4 C 0.7543(8) 0.2853(7) 0.4750(7)
H10_4 H 0.8009 0.3038 0.4739
C23_4 C 0.8090(6) 0.1620(6) 0.4766(5)
C24_4 C 0.7457(8) 0.2147(7) 0.4750(7)
H12_4 H 0.6991 0.1962 0.4739
O36_4 O 0.9782(17) 0.2199(17) 0.0241(17)
O45_4 O 0.9445(2) 0.57960(19) 0.0674(2)
O50_4 O 0.9326(2) 0.4445(2) 0.07960(19)
O62_4 O 0.9932(3) 0.3114(3) 0.1309(4)
H13_3 H 0.697358 0.507917 0.975974
H15_3 H 0.7993 0.952581 0.977554
H21_2 H 0.985953 0.19746 0.976074
H24_3 H 0.527089 0.301673 0.975348
O27_4 O 0.0100(3) 0.4044(3) 0.2103(4)
C18_4 C 0.0014(8) 0.2855(7) 0.2554(7)
H9_4 H 0.0014 0.3029 0.3024
C20_4 C 0.0013(6) 0.3387(6) 0.1938(6)
C21_4 C 0.0014(8) 0.2145(7) 0.2446(7)
H11_4 H 0.0014 0.1971 0.1976
C22_4 C 0.0013(6) 0.1613(6) 0.3062(6)
O32_4 O 0.0100(3) 0.0956(3) 0.2897(4)
H16_4 H 0.698327 0.0246521 0.472911
H18_4 H 0.698326 0.52253 0.972788
H14_4 H 0.797696 0.00646627 0.0621263
H23_2 H 0.935458 0.207411 0.0538875
H24_4 H 0.972911 0.198327 0.975348
H13_4 H 0.802642 0.992083 0.975974
H15_4 H 0.7007 0.547419 0.977554
H22_5 H 0.441661 0.0153599 0.297904
O26_3 O 0.0239(3) 0.7089(4) 0.0944(4)
O28_3 O 0.1309(4) 0.5068(3) 0.1886(3)
O29_3 O 0.0242(3) 0.6300(3) 0.1888(3)
C17_5 C 0.0234(5) 0.6910(6) 0.1620(6)
C18_5 C 0.2554(7) 0.4986(8) 0.2145(7)
H9_5 H 0.3024 0.4986 0.1971
C19_5 C 0.0250(7) 0.7543(8) 0.2147(7)
H10_5 H 0.0261 0.8009 0.1962
C20_5 C 0.1938(6) 0.4987(6) 0.1613(6)
O30_3 O 0.0241(17) 0.5218(17) 0.2801(17)
O31_3 O 0.3691(4) 0.5068(3) 0.3114(3)
C21_5 C 0.2446(7) 0.4986(8) 0.2855(7)
H11_5 H 0.1976 0.4986 0.3029
C22_5 C 0.3062(6) 0.4987(6) 0.3387(6)
O33_3 O 0.0242(3) 0.8700(3) 0.3112(3)
C23_5 C 0.0234(5) 0.8090(6) 0.3380(6)
C24_5 C 0.0250(7) 0.7457(8) 0.2853(7)
H12_5 H 0.0261 0.6991 0.3038
O34_3 O 0.0239(3) 0.7911(4) 0.4056(4)
O36_5 O 0.4759(17) 0.9782(17) 0.2801(17)
O38_3 O 0.4759(17) 0.5218(17) 0.2199(17)
O54_3 O 0.4761(3) 0.7911(4) 0.0944(4)
O62_5 O 0.3691(4) 0.9932(3) 0.1886(3)
O63_3 O 0.4758(3) 0.8700(3) 0.1888(3)
O64_3 O 0.4758(3) 0.6300(3) 0.3112(3)
H14_5 H 0.437874 0.702304 0.00646627
O5_3 O 0.4932(3) 0.8114(3) 0.8691(4)
O6_3 O 0.3700(3) 0.8112(3) 0.9758(3)
C1_3 C 0.3090(6) 0.8380(6) 0.9766(5)
C2_3 C 0.5014(8) 0.7855(7) 0.7446(7)
H1_3 H 0.5014 0.8029 0.6976
C3_3 C 0.2457(8) 0.7853(7) 0.9750(7)
H2_3 H 0.1991 0.8038 0.9739
C4_3 C 0.5013(6) 0.8387(6) 0.8062(6)
O7_5 O 0.4782(17) 0.7199(17) 0.9759(17)
O8_3 O 0.4932(3) 0.6886(3) 0.6309(4)
C5_3 C 0.5014(8) 0.7145(7) 0.7554(7)
H3_3 H 0.5014 0.6971 0.8024
C6_3 C 0.5013(6) 0.6613(6) 0.6938(6)
O10_3 O 0.1300(3) 0.6888(3) 0.9758(3)
C7_3 C 0.1910(6) 0.6620(6) 0.9766(5)
C8_3 C 0.2543(8) 0.7147(7) 0.9750(7)
H4_3 H 0.3009 0.6962 0.9739
O15_3 O 0.3700(3) 0.6888(3) 0.5242(3)
C9_3 C 0.3090(6) 0.6620(6) 0.5234(5)
C10_3 C 0.2457(8) 0.7147(7) 0.5250(7)
H5_3 H 0.1991 0.6962 0.5261
O16_3 O 0.4782(17) 0.7801(17) 0.5241(17)
O17_3 O 0.1300(3) 0.8112(3) 0.5242(3)
C11_3 C 0.1910(6) 0.8380(6) 0.5234(5)
C12_3 C 0.2543(8) 0.7853(7) 0.5250(7)
H6_3 H 0.3009 0.8038 0.5261
O21_3 O 0.0068(3) 0.6886(3) 0.8691(4)
O22_3 O 0.0218(17) 0.7801(17) 0.9759(17)
O23_3 O 0.0068(3) 0.8114(3) 0.6309(4)
O55_3 O 0.4761(3) 0.7089(4) 0.4056(4)
H17_3 H 0.0453282 0.79259 0.929418
H19_3 H 0.976074 0.514047 0.30254
C13_3 C 0.9986(8) 0.7145(7) 0.7446(7)
H7_3 H 0.9986 0.6971 0.6976
C14_3 C 0.9987(6) 0.6613(6) 0.8062(6)
C15_3 C 0.9986(8) 0.7855(7) 0.7554(7)
H8_3 H 0.9986 0.8029 0.8024
C16_3 C 0.9987(6) 0.8387(6) 0.6938(6)
H18_5 H 0.972788 0.801674 0.97747
H22_6 H 0.0583387 0.0153599 0.202096
H16_5 H 0.0270892 0.801673 0.0246521
O7_6 O 0.0218(17) 0.7199(17) 0.5241(17)
C17_6 C 0.4766(5) 0.6910(6) 0.3380(6)
C19_6 C 0.4750(7) 0.7543(8) 0.2853(7)
H10_6 H 0.4739 0.8009 0.3038
C23_6 C 0.4766(5) 0.8090(6) 0.1620(6)
C24_6 C 0.4750(7) 0.7457(8) 0.2147(7)
H12_6 H 0.4739 0.6991 0.1962
O36_6 O 0.0241(17) 0.9782(17) 0.2199(17)
O62_6 O 0.1309(4) 0.9932(3) 0.3114(3)
H13_5 H 0.975974 0.697358 0.507917
H15_5 H 0.977554 0.7993 0.952581
H21_3 H 0.976074 0.985953 0.19746
H24_5 H 0.975348 0.527089 0.301673
C18_6 C 0.2554(7) 0.0014(8) 0.2855(7)
H9_6 H 0.3024 0.0014 0.3029
C20_6 C 0.1938(6) 0.0013(6) 0.3387(6)
C21_6 C 0.2446(7) 0.0014(8) 0.2145(7)
H11_6 H 0.1976 0.0014 0.1971
C22_6 C 0.3062(6) 0.0013(6) 0.1613(6)
H16_6 H 0.472911 0.698327 0.0246521
H18_6 H 0.972788 0.698326 0.52253
H14_6 H 0.0621263 0.797696 0.00646627
H23_3 H 0.0538875 0.935458 0.207411
H24_6 H 0.975348 0.972911 0.198327
H13_6 H 0.975974 0.802642 0.992083
H15_6 H 0.977554 0.7007 0.547419
H18_7 H 0.0225299 0.0272125 0.198326
H17_4 H 0.0705816 0.954672 0.20741
H19_4 H 0.69746 0.0239255 0.485953
H14_7 H 0.993534 0.562126 0.297696
H22_7 H 0.702096 0.558339 0.98464
H13_7 H 0.492083 0.0240265 0.302642
H15_7 H 0.0474194 0.0224457 0.2007
H21_4 H 0.80254 0.0239255 0.0140467
H22_8 H 0.797904 0.941661 0.98464
H18_8 H 0.47747 0.0272125 0.301674
H13_8 H 0.00791669 0.0240265 0.197358
H15_8 H 0.452581 0.0224457 0.2993
H14_8 H 0.993534 0.937874 0.202304
H23_4 H 0.792589 0.946113 0.0645415
H18_9 H 0.198326 0.0225299 0.0272125
H17_5 H 0.20741 0.0705816 0.954672
H19_5 H 0.485953 0.69746 0.0239255
H14_9 H 0.297696 0.993534 0.562126
H22_9 H 0.98464 0.702096 0.558339
H13_9 H 0.302642 0.492083 0.0240265
H15_9 H 0.2007 0.0474194 0.0224457
H21_5 H 0.0140467 0.80254 0.0239255
H22_10 H 0.98464 0.797904 0.941661
H18_10 H 0.301674 0.47747 0.0272125
H13_10 H 0.197358 0.00791669 0.0240265
H15_10 H 0.2993 0.452581 0.0224457
H14_10 H 0.202304 0.993534 0.937874
H23_5 H 0.0645415 0.792589 0.946113
H18_11 H 0.0272125 0.198326 0.0225299
H19_6 H 0.0239255 0.485953 0.69746
H17_6 H 0.954672 0.20741 0.0705816
H14_11 H 0.562126 0.297696 0.993534
H22_11 H 0.558339 0.98464 0.702096
H13_11 H 0.0240265 0.302642 0.492083
H15_11 H 0.0224457 0.2007 0.0474194
H21_6 H 0.0239255 0.0140467 0.80254
H22_12 H 0.941661 0.98464 0.797904
H18_12 H 0.0272125 0.301674 0.47747
H13_12 H 0.0240265 0.197358 0.00791669
H15_12 H 0.0224457 0.2993 0.452581
H14_12 H 0.937874 0.202304 0.993534
H23_6 H 0.946113 0.0645415 0.792589
loop_
_geom_bond_atom_site_label_1
_geom_bond_atom_site_label_2
_geom_bond_site_symmetry_1
_geom_bond_site_symmetry_2
Y17 O35 1_555 1_555
Y17 O40 1_555 1_555
O27 C20 1_555 1_555
O28 Y4 1_555 1_555
O29 Y4 1_555 1_555
C17 O26 1_555 1_555
C18 H9 1_555 1_555
C19 C17 1_555 1_555
H10 C19 1_555 1_555
C20 O28 1_555 1_555
O30 Y4 1_555 1_555
O31 C22 1_555 1_555
C21 C18 1_555 1_555
H11 C21 1_555 1_555
C22 C21 1_555 1_555
O32 C22 1_555 1_555
O33 C23 1_555 1_555
C23 C24 1_555 1_555
C24 C19 1_555 1_555
H12 C24 1_555 1_555
O34 C23 1_555 1_555
Y5 O2 1_555 1_555
O36 Y5 1_555 1_555
Y6 O31 1_555 1_555
O37 Y6 1_555 1_555
O38 Y6 1_555 1_555
Y8 O34 1_555 1_555
Y15 O37 1_555 1_555
Y18 O37 1_555 1_555
Y21 O33 1_555 1_555
Y25 O32 1_555 1_555
O41 Y6 1_555 1_555
O42 Y4 1_555 1_555
O43 Y6 1_555 1_555
O49 Y6 1_555 1_555
O52 Y6 1_555 1_555
O53 Y5 1_555 1_555
O60 Y6 1_555 1_555
O61 Y4 1_555 1_555
O62 Y5 1_555 1_555
O63 Y5 1_555 1_555
O64 Y6 1_555 1_555
O2 Y16 1_555 1_555
Y4 O47 1_555 1_555
O29 C17 1_555 1_555
C18 C20 1_555 1_555
Y5 O50 1_555 1_555
Y15 O43 1_555 1_555
Y18 O41 1_555 1_555
Y25 O41 1_555 1_555
Y25 O49 1_555 1_555
Y13 O19 1_555 1_555
Y19 O25 1_555 1_555
O25 Y13 1_555 1_555
Y1 O1 1_555 1_555
O3 C1 1_555 1_555
O4 C4 1_555 1_555
O5 Y1 1_555 1_555
O6 Y1 1_555 1_555
C1 O6 1_555 1_555
C2 H1 1_555 1_555
C3 C1 1_555 1_555
H2 C3 1_555 1_555
C4 O5 1_555 1_555
O7 Y1 1_555 1_555
O8 C6 1_555 1_555
C5 C2 1_555 1_555
H3 C5 1_555 1_555
C6 C5 1_555 1_555
O9 C6 1_555 1_555
O10 C7 1_555 1_555
C7 C8 1_555 1_555
C8 C3 1_555 1_555
H4 C8 1_555 1_555
O11 C7 1_555 1_555
Y2 O8 1_555 1_555
O12 Y2 1_555 1_555
O43 Y2 1_555 1_555
O14 C9 1_555 1_555
O15 Y2 1_555 1_555
C9 O15 1_555 1_555
C10 C9 1_555 1_555
H5 C10 1_555 1_555
O16 Y2 1_555 1_555
O17 C11 1_555 1_555
C11 C12 1_555 1_555
C12 C10 1_555 1_555
H6 C12 1_555 1_555
O18 C11 1_555 1_555
Y3 O10 1_555 1_555
O21 Y3 1_555 1_555
O22 Y3 1_555 1_555
Y8 O17 1_555 1_555
Y11 O9 1_555 1_555
Y15 O12 1_555 1_555
Y23 O11 1_555 1_555
Y25 O14 1_555 1_555
O44 Y3 1_555 1_555
O45 Y1 1_555 1_555
O46 Y2 1_555 1_555
O49 Y2 1_555 1_555
O55 Y2 1_555 1_555
O57 Y2 1_555 1_555
O58 Y1 1_555 1_555
C2 C4 1_555 1_555
O12 Y11 1_555 1_555
O23 Y8 1_555 1_555
Y11 O46 1_555 1_555
Y23 O44 1_555 1_555
Y25 O46 1_555 1_555
O22 H17 1_555 1_555
O20 C14 1_555 1_555
C13 H7 1_555 1_555
C15 C13 1_555 1_555
H8 C15 1_555 1_555
C16 C15 1_555 1_555
O24 C16 1_555 1_555
Y9 O20 1_555 1_555
C13 C14 1_555 1_555
Y9 O39 1_555 1_555
Y22 O40_2 1_555 1_555
O7_2 Y8 1_555 1_555
C17_2 O55 1_555 1_555
C19_2 C17_2 1_555 1_555
H10_2 C19_2 1_555 1_555
O63 C23_2 1_555 1_555
C23_2 C24_2 1_555 1_555
C24_2 C19_2 1_555 1_555
H12_2 C24_2 1_555 1_555
O54 C23_2 1_555 1_555
O36_2 Y21 1_555 1_555
O45_2 Y8 1_555 1_555
O50_2 Y8 1_555 1_555
O62_2 Y21 1_555 1_555
O64 C17_2 1_555 1_555
Y21 O50_2 1_555 1_555
Y17_2 O35_2 1_555 1_555
Y16_2 O1_2 1_555 1_555
O2_2 Y16_2 1_555 1_555
O27_2 C20_2 1_555 1_555
C18_2 H9_2 1_555 1_555
C21_2 C18_2 1_555 1_555
H11_2 C21_2 1_555 1_555
C22_2 C21_2 1_555 1_555
O32_2 C22_2 1_555 1_555
O27_2 Y22 1_555 1_555
C18_2 C20_2 1_555 1_555
O36_2 H23 1_555 1_555
O27_3 C20_3 1_555 1_555
O28_2 Y22 1_555 1_555
O29_2 Y22 1_555 1_555
C17_3 O26_2 1_555 1_555
C18_3 H9_3 1_555 1_555
C19_3 C17_3 1_555 1_555
H10_3 C19_3 1_555 1_555
C20_3 O28_2 1_555 1_555
O30_2 Y22 1_555 1_555
O31_2 C22_3 1_555 1_555
C21_3 C18_3 1_555 1_555
H11_3 C21_3 1_555 1_555
C22_3 C21_3 1_555 1_555
O32_3 C22_3 1_555 1_555
O33_2 C23_3 1_555 1_555
C23_3 C24_3 1_555 1_555
C24_3 C19_3 1_555 1_555
H12_3 C24_3 1_555 1_555
O34_2 C23_3 1_555 1_555
O36_3 Y23 1_555 1_555
Y25 O31_2 1_555 1_555
O38_2 Y25 1_555 1_555
Y10 O34_2 1_555 1_555
Y26 O33_2 1_555 1_555
Y18 O32_3 1_555 1_555
O49_2 Y25 1_555 1_555
O62_3 Y23 1_555 1_555
O63_2 Y23 1_555 1_555
O64_2 Y25 1_555 1_555
Y22 O47_2 1_555 1_555
O29_2 C17_3 1_555 1_555
C18_3 C20_3 1_555 1_555
Y23 O50_3 1_555 1_555
Y18 O49_2 1_555 1_555
O3_2 C1_2 1_555 1_555
O4_2 C4_2 1_555 1_555
O5_2 Y9 1_555 1_555
O6_2 Y9 1_555 1_555
C1_2 O6_2 1_555 1_555
C2_2 H1_2 1_555 1_555
C3_2 C1_2 1_555 1_555
H2_2 C3_2 1_555 1_555
C4_2 O5_2 1_555 1_555
O7_3 Y9 1_555 1_555
O8_2 C6_2 1_555 1_555
C5_2 C2_2 1_555 1_555
H3_2 C5_2 1_555 1_555
C6_2 C5_2 1_555 1_555
O9_2 C6_2 1_555 1_555
O10_2 C7_2 1_555 1_555
C7_2 C8_2 1_555 1_555
C8_2 C3_2 1_555 1_555
H4_2 C8_2 1_555 1_555
O11_2 C7_2 1_555 1_555
Y11 O8_2 1_555 1_555
O14_2 C9_2 1_555 1_555
O15_2 Y11 1_555 1_555
C9_2 O15_2 1_555 1_555
C10_2 C9_2 1_555 1_555
H5_2 C10_2 1_555 1_555
O16_2 Y11 1_555 1_555
O17_2 C11_2 1_555 1_555
C11_2 C12_2 1_555 1_555
C12_2 C10_2 1_555 1_555
H6_2 C12_2 1_555 1_555
O18_2 C11_2 1_555 1_555
Y12 O10_2 1_555 1_555
O21_2 Y12 1_555 1_555
O22_2 Y12 1_555 1_555
Y10 O17_2 1_555 1_555
Y15 O9_2 1_555 1_555
Y17_2 O11_2 1_555 1_555
Y18 O14_2 1_555 1_555
O44_2 Y12 1_555 1_555
O45_3 Y9 1_555 1_555
O46_2 Y11 1_555 1_555
O49_2 Y11 1_555 1_555
O55_2 Y11 1_555 1_555
C2_2 C4_2 1_555 1_555
O23_2 Y10 1_555 1_555
Y15 O46_2 1_555 1_555
Y17_2 O44_2 1_555 1_555
Y18 O46_2 1_555 1_555
O22_2 H17_2 1_555 1_555
O20_2 C14_2 1_555 1_555
C13_2 H7_2 1_555 1_555
C15_2 C13_2 1_555 1_555
H8_2 C15_2 1_555 1_555
C16_2 C15_2 1_555 1_555
O24_2 C16_2 1_555 1_555
Y16_2 O20_2 1_555 1_555
C13_2 C14_2 1_555 1_555
O7_4 Y10 1_555 1_555
C17_4 O55_2 1_555 1_555
C19_4 C17_4 1_555 1_555
H10_4 C19_4 1_555 1_555
O63_2 C23_4 1_555 1_555
C23_4 C24_4 1_555 1_555
C24_4 C19_4 1_555 1_555
H12_4 C24_4 1_555 1_555
O54_2 C23_4 1_555 1_555
O36_4 Y26 1_555 1_555
O45_4 Y10 1_555 1_555
O50_4 Y10 1_555 1_555
O62_4 Y26 1_555 1_555
O64_2 C17_4 1_555 1_555
Y26 O50_4 1_555 1_555
O27_4 C20_4 1_555 1_555
C18_4 H9_4 1_555 1_555
C21_4 C18_4 1_555 1_555
H11_4 C21_4 1_555 1_555
C22_4 C21_4 1_555 1_555
O32_4 C22_4 1_555 1_555
O27_4 Y17 1_555 1_555
C18_4 C20_4 1_555 1_555
O36_4 H23_2 1_555 1_555
O59 C20_5 1_555 1_555
O28_3 Y17 1_555 1_555
O29_3 Y17 1_555 1_555
C17_5 O26_3 1_555 1_555
C18_5 H9_5 1_555 1_555
C19_5 C17_5 1_555 1_555
H10_5 C19_5 1_555 1_555
C20_5 O28_3 1_555 1_555
O30_3 Y17 1_555 1_555
O31_3 C22_5 1_555 1_555
C21_5 C18_5 1_555 1_555
H11_5 C21_5 1_555 1_555
C22_5 C21_5 1_555 1_555
O60 C22_5 1_555 1_555
O33_3 C23_5 1_555 1_555
C23_5 C24_5 1_555 1_555
C24_5 C19_5 1_555 1_555
H12_5 C24_5 1_555 1_555
O34_3 C23_5 1_555 1_555
O36_5 Y17_2 1_555 1_555
Y18 O31_3 1_555 1_555
O38_3 Y18 1_555 1_555
Y13 O34_3 1_555 1_555
Y19 O33_3 1_555 1_555
O62_5 Y17_2 1_555 1_555
O63_3 Y17_2 1_555 1_555
O64_3 Y18 1_555 1_555
O29_3 C17_5 1_555 1_555
C18_5 C20_5 1_555 1_555
O53_2 C1_3 1_555 1_555
O58_2 C4_3 1_555 1_555
O5_3 Y16_2 1_555 1_555
O6_3 Y16_2 1_555 1_555
C1_3 O6_3 1_555 1_555
C2_3 H1_3 1_555 1_555
C3_3 C1_3 1_555 1_555
H2_3 C3_3 1_555 1_555
C4_3 O5_3 1_555 1_555
O7_5 Y16_2 1_555 1_555
O8_3 C6_3 1_555 1_555
C5_3 C2_3 1_555 1_555
H3_3 C5_3 1_555 1_555
C6_3 C5_3 1_555 1_555
O57 C6_3 1_555 1_555
O10_3 C7_3 1_555 1_555
C7_3 C8_3 1_555 1_555
C8_3 C3_3 1_555 1_555
H4_3 C8_3 1_555 1_555
O53 C7_3 1_555 1_555
Y15 O8_3 1_555 1_555
O52 C9_3 1_555 1_555
O15_3 Y15 1_555 1_555
C9_3 O15_3 1_555 1_555
C10_3 C9_3 1_555 1_555
H5_3 C10_3 1_555 1_555
O16_3 Y15 1_555 1_555
O17_3 C11_3 1_555 1_555
C11_3 C12_3 1_555 1_555
C12_3 C10_3 1_555 1_555
H6_3 C12_3 1_555 1_555
O51 C11_3 1_555 1_555
Y16 O10_3 1_555 1_555
O21_3 Y16 1_555 1_555
O22_3 Y16 1_555 1_555
Y13 O17_3 1_555 1_555
O55_3 Y15 1_555 1_555
C2_3 C4_3 1_555 1_555
O23_3 Y13 1_555 1_555
O22_3 H17_3 1_555 1_555
O58 C14_3 1_555 1_555
C13_3 H7_3 1_555 1_555
C15_3 C13_3 1_555 1_555
H8_3 C15_3 1_555 1_555
C16_3 C15_3 1_555 1_555
O56 C16_3 1_555 1_555
C13_3 C14_3 1_555 1_555
O7_6 Y13 1_555 1_555
C17_6 O55_3 1_555 1_555
C19_6 C17_6 1_555 1_555
H10_6 C19_6 1_555 1_555
O63_3 C23_6 1_555 1_555
C23_6 C24_6 1_555 1_555
C24_6 C19_6 1_555 1_555
H12_6 C24_6 1_555 1_555
O54_3 C23_6 1_555 1_555
O36_6 Y19 1_555 1_555
O62_6 Y19 1_555 1_555
O64_3 C17_6 1_555 1_555
O61 C20_6 1_555 1_555
C18_6 H9_6 1_555 1_555
C21_6 C18_6 1_555 1_555
H11_6 C21_6 1_555 1_555
C22_6 C21_6 1_555 1_555
O59_2 C22_6 1_555 1_555
C18_6 C20_6 1_555 1_555
O36_6 H23_3 1_555 1_555
O36_6 H17_4 1_555 1_555
O22_2 H23_4 1_555 1_555
O36_2 H17_5 1_555 1_555
O22_3 H23_5 1_555 1_555
O36_4 H17_6 1_555 1_555
O22 H23_6 1_555 1_555

#END
