
###############################################################################
#
# This file contains modified crystal structure data generated from the
# MOF subset of the Cambridge Structural Database (CSD) v543 
# hosted by the Cambridge Crystallographic Data Centre (CCDC).
#
# This work is licensed under the Creative Commons
# Attribution-NonCommercial-ShareAlike 4.0 International License.
# To view a copy of this license, visit
# http://creativecommons.org/licenses/by-nc-sa/4.0/
# or send a letter to
# Creative Commons, PO Box 1866, Mountain View, CA 94042, USA.
#
# CIF created using the CSD Python API on 29 September 2022
# The structure has been converted into the P1 space group
# The structure has a 3D framework
# The original CSD entry ZAGZEQ is in the monoclinic crystal system
# The framework has been calculated to contain at least 10.0% void space
# The void calculation uses a probe of radius 1.32A, grid spacing 0.4
# The framework is charged, counterions have been retained in the structure
# H atom positions have been added when not included in the experimental data
# Generated hydrogen atom positions removed from atoms on special positions
#
###############################################################################

data_ZAGZEQ
_chemical_formula_moiety         '(C216 H128 Co18 Ho16 N96 O112 20-)n'
_symmetry_cell_setting           triclinic
_symmetry_space_group_name_H-M   'P 1'
_symmetry_Int_Tables_number      1
_space_group_name_Hall           'P 1'
loop_
_symmetry_equiv_pos_site_id
_symmetry_equiv_pos_as_xyz
1 x,y,z
_cell_length_a                   28.330(12)
_cell_length_b                   33.266(15)
_cell_length_c                   13.650(6)
_cell_angle_alpha                90
_cell_angle_beta                 111.329(6)
_cell_angle_gamma                90
_cell_volume                     11983
loop_
_atom_site_label
_atom_site_type_symbol
_atom_site_fract_x
_atom_site_fract_y
_atom_site_fract_z
Co5 Co 0.26446(5) 0.0000 0.49196(11)
Ho1 Ho 0.5000 0.71498(2) 0.0000
O2 O 0.3779(2) 0.27567(15) 0.0592(4)
O23 O 0.3779(2) 0.72433(15) 0.0592(4)
O26 O 0.3925(2) 0.80949(15) 0.0121(4)
Ho6 Ho 0.5000 0.28502(2) 0.0000
Ho7 Ho 0.40355(2) 0.77798(2) 0.17225(2)
Ho11 Ho 0.40355(2) 0.22202(2) 0.17225(2)
O31 O 0.57783(19) 0.68937(16) 0.0191(4)
O40 O 0.5514(2) 0.77028(18) 0.0181(5)
O42 O 0.5238(2) 0.70702(18) 0.1739(4)
Ho1_2 Ho 0.5000 0.71498(2) 1.0000
Co1 Co 0.36159(5) 0.5000 0.60843(11)
Co2 Co 0.23554(5) 0.5000 0.50804(11)
N1 N 0.3373(2) 0.42504(19) 0.7375(5)
N2 N 0.3215(2) 0.45545(18) 0.6663(5)
N3 N 0.2727(2) 0.45549(17) 0.6239(5)
N4 N 0.2537(2) 0.42569(18) 0.6649(5)
N5 N 0.1608(3) 0.43534(19) 0.3716(5)
N6 N 0.2051(3) 0.45327(19) 0.3989(5)
N7 N 0.2305(3) 0.4368(3) 0.3490(8)
N8 N 0.2039(3) 0.4060(3) 0.2901(8)
N9 N 0.4124(3) 0.58196(18) 0.5945(5)
N10 N 0.4007(6) 0.5426(3) 0.5620(9)
N11 N 0.4023(6) 0.5434(3) 0.4622(9)
N12 N 0.4126(7) 0.5825(3) 0.4407(10)
O1 O 0.42217(19) 0.31063(16) 0.9809(4)
O3 O 0.1891(2) 0.27569(17) 0.8877(5)
O4 O 0.1525(2) 0.32887(16) 0.8004(5)
O6 O 0.0514(2) 0.27028(18) 0.0181(5)
O8 O 0.4762(2) 0.70702(18) 0.8261(4)
O9 O 0.5171(2) 0.75157(19) 0.7701(5)
O10 O 0.0090(5) 0.3565(5) 0.3854(11)
O11 O 0.4241(2) 0.77711(16) 0.3665(4)
O12 O 0.3930(3) 0.72220(19) 0.2724(4)
O13 O 0.2995(3) 0.5000 0.4669(6)
O14 O 0.4242(3) 0.5000 0.7493(7)
H1 H 0.4210 0.4806 0.7868
O15 O 0.1725(3) 0.5000 0.5490(7)
H2 H 0.1693 0.5210 0.5815
C1 C 0.3811(3) 0.3006(2) 0.9912(6)
C2 C 0.1916(3) 0.3089(2) 0.8469(6)
C3 C 0.2946(3) 0.4076(2) 0.7338(6)
C4 C 0.3336(3) 0.3202(2) 0.9215(6)
C5 C 0.2863(3) 0.3058(2) 0.9177(6)
H3 H 0.2845 0.2837 0.9580
C6 C 0.2422(3) 0.3248(2) 0.8531(6)
C7 C 0.2453(3) 0.3579(2) 0.7954(6)
H4 H 0.2157 0.3710 0.7546
C8 C 0.2919(3) 0.3725(2) 0.7963(6)
C9 C 0.3362(3) 0.3532(2) 0.8624(6)
H5 H 0.3676 0.3628 0.8664
C10 C 0.0801(3) 0.3002(2) 0.0395(5)
C12 C 0.1606(3) 0.4061(3) 0.3047(7)
C13 C 0.0803(3) 0.3273(2) 0.1255(5)
C14 C 0.0402(3) 0.3249(2) 0.1630(6)
H6 H 0.0143 0.3063 0.1341
C15 C 0.0394(3) 0.3502(3) 0.2433(7)
C16 C 0.0783(3) 0.3768(3) 0.2857(7)
H7 H 0.0771 0.3944 0.3377
C17 C 0.1191(3) 0.3783(2) 0.2539(6)
C18 C 0.1188(3) 0.3539(2) 0.1703(6)
H8 H 0.1450 0.3558 0.1449
C19 C 0.4874(3) 0.7229(2) 0.7542(5)
C20 C 0.4147(3) 0.7401(3) 0.3605(6)
C21 C 0.4104(4) 0.6090(3) 0.5194(7)
C22 C 0.4631(3) 0.7065(2) 0.6467(5)
C23 C 0.4534(3) 0.7305(2) 0.5587(5)
H9 H 0.4628 0.7575 0.5657
C24 C 0.4290(3) 0.7134(3) 0.4581(6)
C25 C 0.4170(4) 0.6743(3) 0.4469(6)
H10 H 0.4020 0.6635 0.3799
C26 C 0.4266(4) 0.6498(3) 0.5350(6)
C27 C 0.4493(3) 0.6664(2) 0.6338(6)
H11 H 0.4555 0.6503 0.6929
Co3 Co 0.3572(4) 0.5000 0.3702(9)
O16 O 0.409(2) 0.5000 0.292(5)
H12 H 0.4209 0.4767 0.2919
O17 O 0.3072(17) 0.4593(13) 0.265(3)
H13 H 0.4210 0.5194 0.7868
H14 H 0.1693 0.4790 0.5815
H15 H 0.4209 0.5233 0.2919
Ho3 Ho 0.59645(2) 0.77798(2) 0.82775(2)
N13 N 0.5876(3) 0.58196(18) 0.4055(5)
N14 N 0.5993(6) 0.5426(3) 0.4380(9)
N15 N 0.5977(6) 0.5434(3) 0.5378(9)
N16 N 0.5874(7) 0.5825(3) 0.5593(10)
O19 O 0.4829(2) 0.75157(19) 0.2299(5)
O20 O 0.5759(2) 0.77711(16) 0.6335(4)
O21 O 0.6070(3) 0.72220(19) 0.7276(4)
C28 C 0.5126(3) 0.7229(2) 0.2458(5)
C29 C 0.5853(3) 0.7401(3) 0.6395(6)
C30 C 0.5896(4) 0.6090(3) 0.4806(7)
C31 C 0.5369(3) 0.7065(2) 0.3533(5)
C32 C 0.5466(3) 0.7305(2) 0.4413(5)
H16 H 0.5372 0.7575 0.4343
C33 C 0.5710(3) 0.7134(3) 0.5419(6)
C34 C 0.5830(4) 0.6743(3) 0.5531(6)
H17 H 0.5980 0.6635 0.6201
C35 C 0.5734(4) 0.6498(3) 0.4650(6)
C36 C 0.5507(3) 0.6664(2) 0.3662(6)
H18 H 0.5445 0.6503 0.3071
N17 N 0.3373(2) 0.57496(19) 0.7375(5)
N18 N 0.3215(2) 0.54455(18) 0.6663(5)
N19 N 0.2727(2) 0.54451(17) 0.6239(5)
N20 N 0.2537(2) 0.57431(18) 0.6649(5)
O22 O 0.42217(19) 0.68937(16) 0.9809(4)
O24 O 0.1891(2) 0.72431(17) 0.8877(5)
O25 O 0.1525(2) 0.67113(16) 0.8004(5)
C37 C 0.3811(3) 0.6994(2) 0.9912(6)
C38 C 0.1916(3) 0.6911(2) 0.8469(6)
C39 C 0.2946(3) 0.5924(2) 0.7338(6)
C40 C 0.3336(3) 0.6798(2) 0.9215(6)
C41 C 0.2863(3) 0.6942(2) 0.9177(6)
H19 H 0.2845 0.7163 0.9580
C42 C 0.2422(3) 0.6752(2) 0.8531(6)
C43 C 0.2453(3) 0.6421(2) 0.7954(6)
H20 H 0.2157 0.6290 0.7546
C44 C 0.2919(3) 0.6275(2) 0.7963(6)
C45 C 0.3362(3) 0.6468(2) 0.8624(6)
H21 H 0.3676 0.6372 0.8664
N21 N 0.3392(3) 0.93534(19) 0.6284(5)
N22 N 0.2949(3) 0.95327(19) 0.6011(5)
N23 N 0.2695(3) 0.9368(3) 0.6510(8)
N24 N 0.2961(3) 0.9060(3) 0.7099(8)
O27 O 0.4486(2) 0.77028(18) 0.9819(5)
O28 O 0.5447(2) 0.83262(17) 0.7743(4)
O29 O 0.4910(5) 0.8565(5) 0.6146(11)
C46 C 0.4199(3) 0.8002(2) 0.9605(5)
C47 C 0.5043(4) 0.8482(3) 0.7175(8)
C48 C 0.3394(3) 0.9061(3) 0.6953(7)
C49 C 0.4197(3) 0.8273(2) 0.8745(5)
C50 C 0.4598(3) 0.8249(2) 0.8370(6)
H22 H 0.4857 0.8063 0.8659
C51 C 0.4606(3) 0.8502(3) 0.7567(7)
C52 C 0.4217(3) 0.8768(3) 0.7143(7)
H23 H 0.4229 0.8944 0.6623
C53 C 0.3809(3) 0.8783(2) 0.7461(6)
C54 C 0.3812(3) 0.8539(2) 0.8297(6)
H24 H 0.3550 0.8558 0.8551
O30 O 0.3072(17) 0.5407(13) 0.265(3)
Ho5 Ho 0.0000 0.21498(2) 0.0000
Ho6_2 Ho 0.5000 0.28502(2) 1.0000
Ho10 Ho 0.09645(2) 0.27798(2) 0.82775(2)
Ho12 Ho 0.09645(2) 0.72202(2) 0.82775(2)
Co4 Co 0.63841(5) 0.5000 0.39157(11)
Co5_2 Co 0.26446(5) 1.0000 0.49196(11)
N25 N 0.2051(3) 0.54673(19) 0.3989(5)
N26 N 0.4007(6) 0.4574(3) 0.5620(9)
N27 N 0.4023(6) 0.4566(3) 0.4622(9)
O32 O 0.6221(2) 0.72433(15) 0.9408(4)
O34 O 0.6891(2) 0.77569(17) 0.8877(5)
O35 O 0.3109(2) 0.77569(17) 0.1123(5)
O36 O 0.6525(2) 0.82887(16) 0.8004(5)
O37 O 0.3475(2) 0.82887(16) 0.1996(5)
O38 O 0.6075(2) 0.80949(15) 0.9879(4)
O41 O 0.4553(2) 0.83262(17) 0.2257(4)
Co6 Co 0.6428(4) 0.5000 0.6298(9)
O5 O 0.1075(2) 0.30949(15) 0.9879(4)
Ho5_2 Ho -0.0000 0.21498(2) 1.0000
O7 O 0.9553(2) 0.33262(17) 0.2257(4)
C11 C 0.9957(4) 0.3482(3) 0.2825(8)
Ho5_3 Ho 1.0000 0.21498(2) 0.0000
Ho8 Ho 0.90355(2) 0.27798(2) 0.17225(2)
Ho5_4 Ho 1.0000 0.21498(2) 1.0000
O7_2 O 0.0447(2) 0.33262(17) 0.7743(4)
C11_2 C 0.0043(4) 0.3482(3) 0.7175(8)
Co5_3 Co 0.73554(5) -0.0000 0.50804(11)
O5_2 O 0.8925(2) 0.30949(15) 0.0121(4)
Co2_2 Co 0.76446(5) 0.5000 0.49196(11)
N1_2 N 0.6627(2) 0.42504(19) 0.2625(5)
N2_2 N 0.6785(2) 0.45545(18) 0.3337(5)
N3_2 N 0.7273(2) 0.45549(17) 0.3761(5)
N4_2 N 0.7463(2) 0.42569(18) 0.3351(5)
N5_2 N 0.8392(3) 0.43534(19) 0.6284(5)
N6_2 N 0.7949(3) 0.45327(19) 0.6011(5)
N7_2 N 0.7695(3) 0.4368(3) 0.6510(8)
N8_2 N 0.7961(3) 0.4060(3) 0.7099(8)
O1_2 O 0.57783(19) 0.31063(16) 0.0191(4)
O3_2 O 0.8109(2) 0.27569(17) 0.1123(5)
O4_2 O 0.8475(2) 0.32887(16) 0.1996(5)
O6_2 O 0.9486(2) 0.27028(18) 0.9819(5)
O10_2 O 0.9910(5) 0.3565(5) 0.6146(11)
O13_2 O 0.7005(3) 0.5000 0.5331(6)
O14_2 O 0.5758(3) 0.5000 0.2507(7)
H1_2 H 0.5790 0.4806 0.2132
O15_2 O 0.8275(3) 0.5000 0.4510(7)
H2_2 H 0.8307 0.5210 0.4185
C1_2 C 0.6189(3) 0.3006(2) 0.0088(6)
C2_2 C 0.8084(3) 0.3089(2) 0.1531(6)
C3_2 C 0.7054(3) 0.4076(2) 0.2662(6)
C4_2 C 0.6664(3) 0.3202(2) 0.0785(6)
C5_2 C 0.7137(3) 0.3058(2) 0.0823(6)
H3_2 H 0.7155 0.2837 0.0420
C6_2 C 0.7578(3) 0.3248(2) 0.1469(6)
C7_2 C 0.7547(3) 0.3579(2) 0.2046(6)
H4_2 H 0.7843 0.3710 0.2454
C8_2 C 0.7081(3) 0.3725(2) 0.2037(6)
C9_2 C 0.6638(3) 0.3532(2) 0.1376(6)
H5_2 H 0.6324 0.3628 0.1336
C10_2 C 0.9199(3) 0.3002(2) 0.9605(5)
C12_2 C 0.8394(3) 0.4061(3) 0.6953(7)
C13_2 C 0.9197(3) 0.3273(2) 0.8745(5)
C14_2 C 0.9598(3) 0.3249(2) 0.8370(6)
H6_2 H 0.9857 0.3063 0.8659
C15_2 C 0.9606(3) 0.3502(3) 0.7567(7)
C16_2 C 0.9217(3) 0.3768(3) 0.7143(7)
H7_2 H 0.9229 0.3944 0.6623
C17_2 C 0.8809(3) 0.3783(2) 0.7461(6)
C18_2 C 0.8812(3) 0.3539(2) 0.8297(6)
H8_2 H 0.8550 0.3558 0.8551
O16_2 O 0.591(2) 0.5000 0.708(5)
H12_2 H 0.5791 0.4767 0.7081
O17_2 O 0.6928(17) 0.4593(13) 0.735(3)
H13_2 H 0.5790 0.5194 0.2132
H14_2 H 0.8307 0.4790 0.4185
H15_2 H 0.5791 0.5233 0.7081
N17_2 N 0.6627(2) 0.57496(19) 0.2625(5)
N18_2 N 0.6785(2) 0.54455(18) 0.3337(5)
N19_2 N 0.7273(2) 0.54451(17) 0.3761(5)
N20_2 N 0.7463(2) 0.57431(18) 0.3351(5)
O24_2 O 0.8109(2) 0.72431(17) 0.1123(5)
O25_2 O 0.8475(2) 0.67113(16) 0.1996(5)
C37_2 C 0.6189(3) 0.6994(2) 0.0088(6)
C38_2 C 0.8084(3) 0.6911(2) 0.1531(6)
C39_2 C 0.7054(3) 0.5924(2) 0.2662(6)
C40_2 C 0.6664(3) 0.6798(2) 0.0785(6)
C41_2 C 0.7137(3) 0.6942(2) 0.0823(6)
H19_2 H 0.7155 0.7163 0.0420
C42_2 C 0.7578(3) 0.6752(2) 0.1469(6)
C43_2 C 0.7547(3) 0.6421(2) 0.2046(6)
H20_2 H 0.7843 0.6290 0.2454
C44_2 C 0.7081(3) 0.6275(2) 0.2037(6)
C45_2 C 0.6638(3) 0.6468(2) 0.1376(6)
H21_2 H 0.6324 0.6372 0.1336
N21_2 N 0.6608(3) 0.93534(19) 0.3716(5)
N22_2 N 0.7051(3) 0.95327(19) 0.3989(5)
N23_2 N 0.7305(3) 0.9368(3) 0.3490(8)
N24_2 N 0.7039(3) 0.9060(3) 0.2901(8)
O29_2 O 0.5090(5) 0.8565(5) 0.3854(11)
C46_2 C 0.5801(3) 0.8002(2) 0.0395(5)
C47_2 C 0.4957(4) 0.8482(3) 0.2825(8)
C48_2 C 0.6606(3) 0.9061(3) 0.3047(7)
C49_2 C 0.5803(3) 0.8273(2) 0.1255(5)
C50_2 C 0.5402(3) 0.8249(2) 0.1630(6)
H22_2 H 0.5143 0.8063 0.1341
C51_2 C 0.5394(3) 0.8502(3) 0.2433(7)
C52_2 C 0.5783(3) 0.8768(3) 0.2857(7)
H23_2 H 0.5771 0.8944 0.3377
C53_2 C 0.6191(3) 0.8783(2) 0.2539(6)
C54_2 C 0.6188(3) 0.8539(2) 0.1703(6)
H24_2 H 0.6450 0.8558 0.1449
O30_2 O 0.6928(17) 0.5407(13) 0.735(3)
Ho12_2 Ho 0.90355(2) 0.72202(2) 0.17225(2)
Co5_4 Co 0.73554(5) 1.0000 0.50804(11)
N25_2 N 0.7949(3) 0.54673(19) 0.6011(5)
N26_2 N 0.5993(6) 0.4574(3) 0.4380(9)
N27_2 N 0.5977(6) 0.4566(3) 0.5378(9)
O2_2 O 0.6221(2) 0.27567(15) 0.9408(4)
Ho11_2 Ho 0.59645(2) 0.22202(2) 0.82775(2)
O31_2 O 0.07783(19) 0.18937(16) 0.0191(4)
O42_2 O 0.0238(2) 0.20702(18) 0.1739(4)
O9_2 O 0.0171(2) 0.25157(19) 0.7701(5)
N13_2 N 0.0876(3) 0.08196(18) 0.4055(5)
N14_2 N 0.0993(6) 0.0426(3) 0.4380(9)
N15_2 N 0.0977(6) 0.0434(3) 0.5378(9)
N16_2 N 0.0874(7) 0.0825(3) 0.5593(10)
O20_2 O 0.0759(2) 0.27711(16) 0.6335(4)
O21_2 O 0.1070(3) 0.22220(19) 0.7276(4)
C28_2 C 0.0126(3) 0.2229(2) 0.2458(5)
C29_2 C 0.0853(3) 0.2401(3) 0.6395(6)
C30_2 C 0.0896(4) 0.1090(3) 0.4806(7)
C31_2 C 0.0369(3) 0.2065(2) 0.3533(5)
C32_2 C 0.0466(3) 0.2305(2) 0.4413(5)
H16_2 H 0.0372 0.2575 0.4343
C33_2 C 0.0710(3) 0.2134(3) 0.5419(6)
C34_2 C 0.0830(4) 0.1743(3) 0.5531(6)
H17_2 H 0.0980 0.1635 0.6201
C35_2 C 0.0734(4) 0.1498(3) 0.4650(6)
C36_2 C 0.0507(3) 0.1664(2) 0.3662(6)
H18_2 H 0.0445 0.1503 0.3071
Co4_2 Co 0.13841(5) -0.0000 0.39157(11)
O32_2 O 0.1221(2) 0.22433(15) 0.9408(4)
Co6_2 Co 0.1428(4) 0.0000 0.6298(9)
Ho6_3 Ho 0.0000 0.78502(2) 0.0000
Ho6_4 Ho 0.0000 0.78502(2) 1.0000
Co4_3 Co 0.13841(5) 1.0000 0.39157(11)
Co6_3 Co 0.1428(4) 1.0000 0.6298(9)
O23_2 O 0.8779(2) 0.22433(15) 0.0592(4)
Co1_2 Co 0.86159(5) -0.0000 0.60843(11)
N9_2 N 0.9124(3) 0.08196(18) 0.5945(5)
N10_2 N 0.9007(6) 0.0426(3) 0.5620(9)
N11_2 N 0.9023(6) 0.0434(3) 0.4622(9)
N12_2 N 0.9126(7) 0.0825(3) 0.4407(10)
O8_2 O 0.9762(2) 0.20702(18) 0.8261(4)
O11_2 O 0.9241(2) 0.27711(16) 0.3665(4)
O12_2 O 0.8930(3) 0.22220(19) 0.2724(4)
O13_3 O 0.7995(3) 0.0000 0.4669(6)
O14_3 O 0.9242(3) -0.0000 0.7493(7)
O15_3 O 0.6725(3) -0.0000 0.5490(7)
H2_3 H 0.6693 0.0210 0.5815
C19_2 C 0.9874(3) 0.2229(2) 0.7542(5)
C20_2 C 0.9147(3) 0.2401(3) 0.3605(6)
C21_2 C 0.9104(4) 0.1090(3) 0.5194(7)
C22_2 C 0.9631(3) 0.2065(2) 0.6467(5)
C23_2 C 0.9534(3) 0.2305(2) 0.5587(5)
H9_2 H 0.9628 0.2575 0.5657
C24_2 C 0.9290(3) 0.2134(3) 0.4581(6)
C25_2 C 0.9170(4) 0.1743(3) 0.4469(6)
H10_2 H 0.9020 0.1635 0.3799
C26_2 C 0.9266(4) 0.1498(3) 0.5350(6)
C27_2 C 0.9493(3) 0.1664(2) 0.6338(6)
H11_2 H 0.9555 0.1503 0.6929
Co3_2 Co 0.8572(4) -0.0000 0.3702(9)
O16_3 O 0.909(2) 0.0000 0.292(5)
H13_3 H 0.9210 0.0194 0.7868
H15_3 H 0.9209 0.0233 0.2919
O19_2 O 0.9829(2) 0.25157(19) 0.2299(5)
N17_3 N 0.8373(2) 0.07496(19) 0.7375(5)
N18_3 N 0.8215(2) 0.04455(18) 0.6663(5)
N19_3 N 0.7727(2) 0.04451(17) 0.6239(5)
N20_3 N 0.7537(2) 0.07431(18) 0.6649(5)
O22_2 O 0.92217(19) 0.18937(16) 0.9809(4)
O24_3 O 0.6891(2) 0.22431(17) 0.8877(5)
O25_3 O 0.6525(2) 0.17113(16) 0.8004(5)
C37_3 C 0.8811(3) 0.1994(2) 0.9912(6)
C38_3 C 0.6916(3) 0.1911(2) 0.8469(6)
C39_3 C 0.7946(3) 0.0924(2) 0.7338(6)
C40_3 C 0.8336(3) 0.1798(2) 0.9215(6)
C41_3 C 0.7863(3) 0.1942(2) 0.9177(6)
H19_3 H 0.7845 0.2163 0.9580
C42_3 C 0.7422(3) 0.1752(2) 0.8531(6)
C43_3 C 0.7453(3) 0.1421(2) 0.7954(6)
H20_3 H 0.7157 0.1290 0.7546
C44_3 C 0.7919(3) 0.1275(2) 0.7963(6)
C45_3 C 0.8362(3) 0.1468(2) 0.8624(6)
H21_3 H 0.8676 0.1372 0.8664
O30_3 O 0.8072(17) 0.0407(13) 0.265(3)
N25_3 N 0.7051(3) 0.04673(19) 0.3989(5)
O2_3 O 0.8779(2) 0.77567(15) 0.0592(4)
Ho6_5 Ho 1.0000 0.78502(2) 0.0000
Co1_3 Co 0.86159(5) 1.0000 0.60843(11)
N1_3 N 0.8373(2) 0.92504(19) 0.7375(5)
N2_3 N 0.8215(2) 0.95545(18) 0.6663(5)
N3_3 N 0.7727(2) 0.95549(17) 0.6239(5)
N4_3 N 0.7537(2) 0.92569(18) 0.6649(5)
O1_3 O 0.92217(19) 0.81063(16) 0.9809(4)
O13_4 O 0.7995(3) 1.0000 0.4669(6)
O14_4 O 0.9242(3) 1.0000 0.7493(7)
H1_3 H 0.9210 0.9806 0.7868
O15_4 O 0.6725(3) 1.0000 0.5490(7)
C1_3 C 0.8811(3) 0.8006(2) 0.9912(6)
C2_3 C 0.6916(3) 0.8089(2) 0.8469(6)
C3_3 C 0.7946(3) 0.9076(2) 0.7338(6)
C4_3 C 0.8336(3) 0.8202(2) 0.9215(6)
C5_3 C 0.7863(3) 0.8058(2) 0.9177(6)
H3_3 H 0.7845 0.7837 0.9580
C6_3 C 0.7422(3) 0.8248(2) 0.8531(6)
C7_3 C 0.7453(3) 0.8579(2) 0.7954(6)
H4_3 H 0.7157 0.8710 0.7546
C8_3 C 0.7919(3) 0.8725(2) 0.7963(6)
C9_3 C 0.8362(3) 0.8532(2) 0.8624(6)
H5_3 H 0.8676 0.8628 0.8664
Co3_3 Co 0.8572(4) 1.0000 0.3702(9)
O16_4 O 0.909(2) 1.0000 0.292(5)
H12_3 H 0.9209 0.9767 0.2919
O17_3 O 0.8072(17) 0.9593(13) 0.265(3)
H14_3 H 0.6693 0.9790 0.5815
Ho6_6 Ho 1.0000 0.78502(2) 1.0000
N26_3 N 0.9007(6) 0.9574(3) 0.5620(9)
N27_3 N 0.9023(6) 0.9566(3) 0.4622(9)
O13_5 O 0.2005(3) -0.0000 0.5331(6)
O14_5 O 0.0758(3) 0.0000 0.2507(7)
O15_5 O 0.3275(3) 0.0000 0.4510(7)
H2_4 H 0.3307 0.0210 0.4185
O16_5 O 0.091(2) 0.0000 0.708(5)
H13_4 H 0.0790 0.0194 0.2132
H15_4 H 0.0791 0.0233 0.7081
N17_4 N 0.1627(2) 0.07496(19) 0.2625(5)
N18_4 N 0.1785(2) 0.04455(18) 0.3337(5)
N19_4 N 0.2273(2) 0.04451(17) 0.3761(5)
N20_4 N 0.2463(2) 0.07431(18) 0.3351(5)
O24_4 O 0.3109(2) 0.22431(17) 0.1123(5)
O25_4 O 0.3475(2) 0.17113(16) 0.1996(5)
C37_4 C 0.1189(3) 0.1994(2) 0.0088(6)
C38_4 C 0.3084(3) 0.1911(2) 0.1531(6)
C39_4 C 0.2054(3) 0.0924(2) 0.2662(6)
C40_4 C 0.1664(3) 0.1798(2) 0.0785(6)
C41_4 C 0.2137(3) 0.1942(2) 0.0823(6)
H19_4 H 0.2155 0.2163 0.0420
C42_4 C 0.2578(3) 0.1752(2) 0.1469(6)
C43_4 C 0.2547(3) 0.1421(2) 0.2046(6)
H20_4 H 0.2843 0.1290 0.2454
C44_4 C 0.2081(3) 0.1275(2) 0.2037(6)
C45_4 C 0.1638(3) 0.1468(2) 0.1376(6)
H21_4 H 0.1324 0.1372 0.1336
O30_4 O 0.1928(17) 0.0407(13) 0.735(3)
N25_4 N 0.2949(3) 0.04673(19) 0.6011(5)
N1_4 N 0.1627(2) 0.92504(19) 0.2625(5)
N2_4 N 0.1785(2) 0.95545(18) 0.3337(5)
N3_4 N 0.2273(2) 0.95549(17) 0.3761(5)
N4_4 N 0.2463(2) 0.92569(18) 0.3351(5)
O1_4 O 0.07783(19) 0.81063(16) 0.0191(4)
O13_6 O 0.2005(3) 1.0000 0.5331(6)
O14_6 O 0.0758(3) 1.0000 0.2507(7)
H1_4 H 0.0790 0.9806 0.2132
O15_6 O 0.3275(3) 1.0000 0.4510(7)
C1_4 C 0.1189(3) 0.8006(2) 0.0088(6)
C2_4 C 0.3084(3) 0.8089(2) 0.1531(6)
C3_4 C 0.2054(3) 0.9076(2) 0.2662(6)
C4_4 C 0.1664(3) 0.8202(2) 0.0785(6)
C5_4 C 0.2137(3) 0.8058(2) 0.0823(6)
H3_4 H 0.2155 0.7837 0.0420
C6_4 C 0.2578(3) 0.8248(2) 0.1469(6)
C7_4 C 0.2547(3) 0.8579(2) 0.2046(6)
H4_4 H 0.2843 0.8710 0.2454
C8_4 C 0.2081(3) 0.8725(2) 0.2037(6)
C9_4 C 0.1638(3) 0.8532(2) 0.1376(6)
H5_4 H 0.1324 0.8628 0.1336
O16_6 O 0.091(2) 1.0000 0.708(5)
H12_4 H 0.0791 0.9767 0.7081
O17_4 O 0.1928(17) 0.9593(13) 0.735(3)
H14_4 H 0.3307 0.9790 0.4185
N26_4 N 0.0993(6) 0.9574(3) 0.4380(9)
N27_4 N 0.0977(6) 0.9566(3) 0.5378(9)
O2_4 O 0.1221(2) 0.77567(15) 0.9408(4)
O7_3 O 0.0447(2) 0.66738(17) 0.7743(4)
C11_3 C 0.0043(4) 0.6518(3) 0.7175(8)
O5_3 O 0.8925(2) 0.69051(15) 0.0121(4)
N5_3 N 0.8392(3) 0.56466(19) 0.6284(5)
N7_3 N 0.7695(3) 0.5632(3) 0.6510(8)
N8_3 N 0.7961(3) 0.5940(3) 0.7099(8)
N9_3 N 0.5876(3) 0.41804(18) 0.4055(5)
N12_3 N 0.5874(7) 0.4175(3) 0.5593(10)
O6_3 O 0.9486(2) 0.72972(18) 0.9819(5)
O8_3 O 0.5238(2) 0.29298(18) 0.1739(4)
O9_3 O 0.4829(2) 0.24843(19) 0.2299(5)
O10_3 O 0.9910(5) 0.6435(5) 0.6146(11)
O11_3 O 0.5759(2) 0.22289(16) 0.6335(4)
O12_3 O 0.6070(3) 0.27780(19) 0.7276(4)
C10_3 C 0.9199(3) 0.6998(2) 0.9605(5)
C12_3 C 0.8394(3) 0.5939(3) 0.6953(7)
C13_3 C 0.9197(3) 0.6727(2) 0.8745(5)
C14_3 C 0.9598(3) 0.6751(2) 0.8370(6)
H6_3 H 0.9857 0.6937 0.8659
C15_3 C 0.9606(3) 0.6498(3) 0.7567(7)
C16_3 C 0.9217(3) 0.6232(3) 0.7143(7)
H7_3 H 0.9229 0.6056 0.6623
C17_3 C 0.8809(3) 0.6217(2) 0.7461(6)
C18_3 C 0.8812(3) 0.6461(2) 0.8297(6)
H8_3 H 0.8550 0.6442 0.8551
C19_3 C 0.5126(3) 0.2771(2) 0.2458(5)
C20_3 C 0.5853(3) 0.2599(3) 0.6395(6)
C21_3 C 0.5896(4) 0.3910(3) 0.4806(7)
C22_3 C 0.5369(3) 0.2935(2) 0.3533(5)
C23_3 C 0.5466(3) 0.2695(2) 0.4413(5)
H9_3 H 0.5372 0.2425 0.4343
C24_3 C 0.5710(3) 0.2866(3) 0.5419(6)
C25_3 C 0.5830(4) 0.3257(3) 0.5531(6)
H10_3 H 0.5980 0.3365 0.6201
C26_3 C 0.5734(4) 0.3502(3) 0.4650(6)
C27_3 C 0.5507(3) 0.3336(2) 0.3662(6)
H11_3 H 0.5445 0.3497 0.3071
N13_3 N 0.4124(3) 0.41804(18) 0.5945(5)
N16_3 N 0.4126(7) 0.4175(3) 0.4407(10)
O18 O 0.4762(2) 0.29298(18) 0.8261(4)
O19_3 O 0.5171(2) 0.24843(19) 0.7701(5)
O20_3 O 0.4241(2) 0.22289(16) 0.3665(4)
O21_3 O 0.3930(3) 0.27780(19) 0.2724(4)
C28_3 C 0.4874(3) 0.2771(2) 0.7542(5)
C29_3 C 0.4147(3) 0.2599(3) 0.3605(6)
C30_3 C 0.4104(4) 0.3910(3) 0.5194(7)
C31_3 C 0.4631(3) 0.2935(2) 0.6467(5)
C32_3 C 0.4534(3) 0.2695(2) 0.5587(5)
H16_3 H 0.4628 0.2425 0.5657
C33_3 C 0.4290(3) 0.2866(3) 0.4581(6)
C34_3 C 0.4170(4) 0.3257(3) 0.4469(6)
H17_3 H 0.4020 0.3365 0.3799
C35_3 C 0.4266(4) 0.3502(3) 0.5350(6)
C36_3 C 0.4493(3) 0.3336(2) 0.6338(6)
H18_3 H 0.4555 0.3497 0.6929
N21_3 N 0.6608(3) 0.06466(19) 0.3716(5)
N23_3 N 0.7305(3) 0.0632(3) 0.3490(8)
N24_3 N 0.7039(3) 0.0940(3) 0.2901(8)
O27_2 O 0.5514(2) 0.22972(18) 0.0181(5)
O28_2 O 0.4553(2) 0.16738(17) 0.2257(4)
O29_3 O 0.5090(5) 0.1435(5) 0.3854(11)
C46_3 C 0.5801(3) 0.1998(2) 0.0395(5)
C47_3 C 0.4957(4) 0.1518(3) 0.2825(8)
C48_3 C 0.6606(3) 0.0939(3) 0.3047(7)
C49_3 C 0.5803(3) 0.1727(2) 0.1255(5)
C50_3 C 0.5402(3) 0.1751(2) 0.1630(6)
H22_3 H 0.5143 0.1937 0.1341
C51_3 C 0.5394(3) 0.1498(3) 0.2433(7)
C52_3 C 0.5783(3) 0.1232(3) 0.2857(7)
H23_3 H 0.5771 0.1056 0.3377
C53_3 C 0.6191(3) 0.1217(2) 0.2539(6)
C54_3 C 0.6188(3) 0.1461(2) 0.1703(6)
H24_3 H 0.6450 0.1442 0.1449
O38_2 O 0.3925(2) 0.19051(15) 0.0121(4)
O39 O 0.6075(2) 0.19051(15) 0.9879(4)
O41_2 O 0.5447(2) 0.16738(17) 0.7743(4)
O40_2 O 0.4486(2) 0.22972(18) 0.9819(5)
N5_4 N 0.1608(3) 0.56466(19) 0.3716(5)
N7_4 N 0.2305(3) 0.5632(3) 0.3490(8)
N8_4 N 0.2039(3) 0.5940(3) 0.2901(8)
O6_4 O 0.0514(2) 0.72972(18) 0.0181(5)
O10_4 O 0.0090(5) 0.6435(5) 0.3854(11)
C10_4 C 0.0801(3) 0.6998(2) 0.0395(5)
C12_4 C 0.1606(3) 0.5939(3) 0.3047(7)
C13_4 C 0.0803(3) 0.6727(2) 0.1255(5)
C14_4 C 0.0402(3) 0.6751(2) 0.1630(6)
H6_4 H 0.0143 0.6937 0.1341
C15_4 C 0.0394(3) 0.6498(3) 0.2433(7)
C16_4 C 0.0783(3) 0.6232(3) 0.2857(7)
H7_4 H 0.0771 0.6056 0.3377
C17_4 C 0.1191(3) 0.6217(2) 0.2539(6)
C18_4 C 0.1188(3) 0.6461(2) 0.1703(6)
H8_4 H 0.1450 0.6442 0.1449
N21_4 N 0.3392(3) 0.06466(19) 0.6284(5)
N23_4 N 0.2695(3) 0.0632(3) 0.6510(8)
N24_4 N 0.2961(3) 0.0940(3) 0.7099(8)
O29_4 O 0.4910(5) 0.1435(5) 0.6146(11)
C46_4 C 0.4199(3) 0.1998(2) 0.9605(5)
C47_4 C 0.5043(4) 0.1518(3) 0.7175(8)
C48_4 C 0.3394(3) 0.0939(3) 0.6953(7)
C49_4 C 0.4197(3) 0.1727(2) 0.8745(5)
C50_4 C 0.4598(3) 0.1751(2) 0.8370(6)
H22_4 H 0.4857 0.1937 0.8659
C51_4 C 0.4606(3) 0.1498(3) 0.7567(7)
C52_4 C 0.4217(3) 0.1232(3) 0.7143(7)
H23_4 H 0.4229 0.1056 0.6623
C53_4 C 0.3809(3) 0.1217(2) 0.7461(6)
C54_4 C 0.3812(3) 0.1461(2) 0.8297(6)
H24_4 H 0.3550 0.1442 0.8551
O5_4 O 0.1075(2) 0.69051(15) 0.9879(4)
O7_4 O 0.9553(2) 0.66738(17) 0.2257(4)
C11_4 C 0.9957(4) 0.6518(3) 0.2825(8)
N9_4 N 0.0876(3) 0.91804(18) 0.4055(5)
N12_4 N 0.0874(7) 0.9175(3) 0.5593(10)
O8_4 O 0.0238(2) 0.79298(18) 0.1739(4)
O11_4 O 0.0759(2) 0.72289(16) 0.6335(4)
O12_4 O 0.1070(3) 0.77780(19) 0.7276(4)
C19_4 C 0.0126(3) 0.7771(2) 0.2458(5)
C20_4 C 0.0853(3) 0.7599(3) 0.6395(6)
C21_4 C 0.0896(4) 0.8910(3) 0.4806(7)
C22_4 C 0.0369(3) 0.7935(2) 0.3533(5)
C23_4 C 0.0466(3) 0.7695(2) 0.4413(5)
H9_4 H 0.0372 0.7425 0.4343
C24_4 C 0.0710(3) 0.7866(3) 0.5419(6)
C25_4 C 0.0830(4) 0.8257(3) 0.5531(6)
H10_4 H 0.0980 0.8365 0.6201
C26_4 C 0.0734(4) 0.8502(3) 0.4650(6)
C27_4 C 0.0507(3) 0.8336(2) 0.3662(6)
H11_4 H 0.0445 0.8497 0.3071
O19_4 O 0.0171(2) 0.74843(19) 0.7701(5)
O9_4 O 0.9829(2) 0.74843(19) 0.2299(5)
N13_4 N 0.9124(3) 0.91804(18) 0.5945(5)
N16_4 N 0.9126(7) 0.9175(3) 0.4407(10)
O18_2 O 0.9762(2) 0.79298(18) 0.8261(4)
O20_4 O 0.9241(2) 0.72289(16) 0.3665(4)
O21_4 O 0.8930(3) 0.77780(19) 0.2724(4)
C28_4 C 0.9874(3) 0.7771(2) 0.7542(5)
C29_4 C 0.9147(3) 0.7599(3) 0.3605(6)
C30_4 C 0.9104(4) 0.8910(3) 0.5194(7)
C31_4 C 0.9631(3) 0.7935(2) 0.6467(5)
C32_4 C 0.9534(3) 0.7695(2) 0.5587(5)
H16_4 H 0.9628 0.7425 0.5657
C33_4 C 0.9290(3) 0.7866(3) 0.4581(6)
C34_4 C 0.9170(4) 0.8257(3) 0.4469(6)
H17_4 H 0.9020 0.8365 0.3799
C35_4 C 0.9266(4) 0.8502(3) 0.5350(6)
C36_4 C 0.9493(3) 0.8336(2) 0.6338(6)
H18_4 H 0.9555 0.8497 0.6929
loop_
_geom_bond_atom_site_label_1
_geom_bond_atom_site_label_2
_geom_bond_site_symmetry_1
_geom_bond_site_symmetry_2
Ho7 O23 1_555 1_555
Ho11 O2 1_555 1_555
O31 Ho1 1_555 1_555
O40 Ho1 1_555 1_555
O42 Ho1 1_555 1_555
O26 Ho7 1_555 1_555
Ho1_2 O8 1_555 1_555
Ho7 O11 1_555 1_555
Co1 N2 1_555 1_555
Co2 N3 1_555 1_555
N1 N2 1_555 1_555
N2 N3 1_555 1_555
N3 N4 1_555 1_555
N4 C3 1_555 1_555
N5 N6 1_555 1_555
N6 Co2 1_555 1_555
N7 N6 1_555 1_555
N8 N7 1_555 1_555
N9 N10 1_555 1_555
N10 Co1 1_555 1_555
N11 N10 1_555 1_555
N12 N11 1_555 1_555
O1 C1 1_555 1_555
O3 C2 1_555 1_555
O4 C2 1_555 1_555
O6 C10 1_555 1_555
O8 C19 1_555 1_555
O9 C19 1_555 1_555
O11 C20 1_555 1_555
O12 Ho7 1_555 1_555
O13 Co1 1_555 1_555
O14 Co1 1_555 1_555
H1 O14 1_555 1_555
O15 Co2 1_555 1_555
H2 O15 1_555 1_555
C1 C4 1_555 1_555
C2 C6 1_555 1_555
C3 N1 1_555 1_555
C4 C5 1_555 1_555
C5 H3 1_555 1_555
C6 C5 1_555 1_555
C7 C6 1_555 1_555
H4 C7 1_555 1_555
C8 C3 1_555 1_555
C9 C4 1_555 1_555
H5 C9 1_555 1_555
C10 C13 1_555 1_555
C12 N5 1_555 1_555
C13 C14 1_555 1_555
C14 H6 1_555 1_555
C15 C14 1_555 1_555
C16 C15 1_555 1_555
H7 C16 1_555 1_555
C17 C12 1_555 1_555
C18 C13 1_555 1_555
H8 C18 1_555 1_555
C19 C22 1_555 1_555
C20 O12 1_555 1_555
C21 N9 1_555 1_555
C22 C23 1_555 1_555
C23 H9 1_555 1_555
C24 C20 1_555 1_555
C25 C24 1_555 1_555
H10 C25 1_555 1_555
C26 C21 1_555 1_555
C27 C22 1_555 1_555
H11 C27 1_555 1_555
Co3 N11 1_555 1_555
O16 Co3 1_555 1_555
H12 O16 1_555 1_555
O17 Co3 1_555 1_555
H13 O14 1_555 1_555
H14 O15 1_555 1_555
H15 O16 1_555 1_555
Ho3 O9 1_555 1_555
N13 N14 1_555 1_555
N14 N15 1_555 1_555
N15 N16 1_555 1_555
N16 C30 1_555 1_555
O42 C28 1_555 1_555
O19 Ho7 1_555 1_555
O20 Ho3 1_555 1_555
O21 Ho3 1_555 1_555
C28 O19 1_555 1_555
C29 O20 1_555 1_555
C30 N13 1_555 1_555
C31 C28 1_555 1_555
C32 C31 1_555 1_555
H16 C32 1_555 1_555
C33 C29 1_555 1_555
C34 C33 1_555 1_555
H17 C34 1_555 1_555
C35 C30 1_555 1_555
C36 C31 1_555 1_555
H18 C36 1_555 1_555
N17 N18 1_555 1_555
N18 Co1 1_555 1_555
N19 Co2 1_555 1_555
N20 N19 1_555 1_555
O22 Ho1_2 1_555 1_555
O24 C38 1_555 1_555
O25 C38 1_555 1_555
C37 O22 1_555 1_555
C38 C42 1_555 1_555
C39 N17 1_555 1_555
C40 C37 1_555 1_555
C41 C40 1_555 1_555
H19 C41 1_555 1_555
C42 C41 1_555 1_555
C43 C42 1_555 1_555
H20 C43 1_555 1_555
C44 C39 1_555 1_555
C45 C40 1_555 1_555
H21 C45 1_555 1_555
N21 N22 1_555 1_555
N22 N23 1_555 1_555
N23 N24 1_555 1_555
N24 C48 1_555 1_555
O27 Ho1_2 1_555 1_555
O28 Ho3 1_555 1_555
O29 C47 1_555 1_555
C46 O27 1_555 1_555
C47 O28 1_555 1_555
C48 N21 1_555 1_555
C49 C46 1_555 1_555
C50 C49 1_555 1_555
H22 C50 1_555 1_555
C51 C47 1_555 1_555
C52 C51 1_555 1_555
H23 C52 1_555 1_555
C53 C48 1_555 1_555
C54 C49 1_555 1_555
H24 C54 1_555 1_555
O30 Co3 1_555 1_555
Ho5 O6 1_555 1_555
Ho6_2 O1 1_555 1_555
Ho10 O3 1_555 1_555
Ho12 O24 1_555 1_555
Co4 N14 1_555 1_555
Co5_2 N22 1_555 1_555
N25 Co2 1_555 1_555
N26 Co1 1_555 1_555
N27 Co3 1_555 1_555
O32 Ho3 1_555 1_555
O34 Ho3 1_555 1_555
O35 Ho7 1_555 1_555
O36 Ho3 1_555 1_555
O37 Ho7 1_555 1_555
O38 Ho3 1_555 1_555
O41 Ho7 1_555 1_555
Co6 N15 1_555 1_555
Co2 O13 1_555 1_555
N8 C12 1_555 1_555
N12 C21 1_555 1_555
O4 Ho10 1_555 1_555
O13 Co3 1_555 1_555
C7 C8 1_555 1_555
C8 C9 1_555 1_555
C16 C17 1_555 1_555
C17 C18 1_555 1_555
C23 C24 1_555 1_555
C25 C26 1_555 1_555
C26 C27 1_555 1_555
O21 C29 1_555 1_555
C32 C33 1_555 1_555
C34 C35 1_555 1_555
C35 C36 1_555 1_555
N18 N19 1_555 1_555
N20 C39 1_555 1_555
O25 Ho12 1_555 1_555
C43 C44 1_555 1_555
C44 C45 1_555 1_555
C50 C51 1_555 1_555
C52 C53 1_555 1_555
C53 C54 1_555 1_555
N26 N27 1_555 1_555
Ho10 O5 1_555 1_555
O7 C11 1_555 1_555
Ho8 O7 1_555 1_555
O7_2 C11_2 1_555 1_555
Ho10 O7_2 1_555 1_555
Ho8 O5_2 1_555 1_555
Co4 N2_2 1_555 1_555
Co2_2 N3_2 1_555 1_555
N1_2 N2_2 1_555 1_555
N2_2 N3_2 1_555 1_555
N3_2 N4_2 1_555 1_555
N4_2 C3_2 1_555 1_555
N5_2 N6_2 1_555 1_555
N6_2 Co2_2 1_555 1_555
N7_2 N6_2 1_555 1_555
N8_2 N7_2 1_555 1_555
O1_2 C1_2 1_555 1_555
O3_2 C2_2 1_555 1_555
O4_2 C2_2 1_555 1_555
O6_2 C10_2 1_555 1_555
O13_2 Co4 1_555 1_555
O14_2 Co4 1_555 1_555
H1_2 O14_2 1_555 1_555
O15_2 Co2_2 1_555 1_555
H2_2 O15_2 1_555 1_555
C1_2 C4_2 1_555 1_555
C2_2 C6_2 1_555 1_555
C3_2 N1_2 1_555 1_555
C4_2 C5_2 1_555 1_555
C5_2 H3_2 1_555 1_555
C6_2 C5_2 1_555 1_555
C7_2 C6_2 1_555 1_555
H4_2 C7_2 1_555 1_555
C8_2 C3_2 1_555 1_555
C9_2 C4_2 1_555 1_555
H5_2 C9_2 1_555 1_555
C10_2 C13_2 1_555 1_555
C12_2 N5_2 1_555 1_555
C13_2 C14_2 1_555 1_555
C14_2 H6_2 1_555 1_555
C15_2 C14_2 1_555 1_555
C16_2 C15_2 1_555 1_555
H7_2 C16_2 1_555 1_555
C17_2 C12_2 1_555 1_555
C18_2 C13_2 1_555 1_555
H8_2 C18_2 1_555 1_555
O16_2 Co6 1_555 1_555
H12_2 O16_2 1_555 1_555
O17_2 Co6 1_555 1_555
H13_2 O14_2 1_555 1_555
H14_2 O15_2 1_555 1_555
H15_2 O16_2 1_555 1_555
N17_2 N18_2 1_555 1_555
N18_2 Co4 1_555 1_555
N19_2 Co2_2 1_555 1_555
N20_2 N19_2 1_555 1_555
O24_2 C38_2 1_555 1_555
O25_2 C38_2 1_555 1_555
C37_2 O31 1_555 1_555
C38_2 C42_2 1_555 1_555
C39_2 N17_2 1_555 1_555
C40_2 C37_2 1_555 1_555
C41_2 C40_2 1_555 1_555
H19_2 C41_2 1_555 1_555
C42_2 C41_2 1_555 1_555
C43_2 C42_2 1_555 1_555
H20_2 C43_2 1_555 1_555
C44_2 C39_2 1_555 1_555
C45_2 C40_2 1_555 1_555
H21_2 C45_2 1_555 1_555
N21_2 N22_2 1_555 1_555
N22_2 N23_2 1_555 1_555
N23_2 N24_2 1_555 1_555
N24_2 C48_2 1_555 1_555
O29_2 C47_2 1_555 1_555
C46_2 O40 1_555 1_555
C47_2 O41 1_555 1_555
C48_2 N21_2 1_555 1_555
C49_2 C46_2 1_555 1_555
C50_2 C49_2 1_555 1_555
H22_2 C50_2 1_555 1_555
C51_2 C47_2 1_555 1_555
C52_2 C51_2 1_555 1_555
H23_2 C52_2 1_555 1_555
C53_2 C48_2 1_555 1_555
C54_2 C49_2 1_555 1_555
H24_2 C54_2 1_555 1_555
O30_2 Co6 1_555 1_555
Ho5_4 O6_2 1_555 1_555
Ho6 O1_2 1_555 1_555
Ho8 O3_2 1_555 1_555
Ho12_2 O24_2 1_555 1_555
Co5_4 N22_2 1_555 1_555
N25_2 Co2_2 1_555 1_555
N26_2 Co4 1_555 1_555
N27_2 Co6 1_555 1_555
Co2_2 O13_2 1_555 1_555
N8_2 C12_2 1_555 1_555
O4_2 Ho8 1_555 1_555
O13_2 Co6 1_555 1_555
C7_2 C8_2 1_555 1_555
C8_2 C9_2 1_555 1_555
C16_2 C17_2 1_555 1_555
C17_2 C18_2 1_555 1_555
N18_2 N19_2 1_555 1_555
N20_2 C39_2 1_555 1_555
O25_2 Ho12_2 1_555 1_555
C43_2 C44_2 1_555 1_555
C44_2 C45_2 1_555 1_555
C50_2 C51_2 1_555 1_555
C52_2 C53_2 1_555 1_555
C53_2 C54_2 1_555 1_555
N26_2 N27_2 1_555 1_555
Ho11_2 O2_2 1_555 1_555
O31_2 Ho5 1_555 1_555
O42_2 Ho5 1_555 1_555
Ho10 O9_2 1_555 1_555
N13_2 N14_2 1_555 1_555
N14_2 N15_2 1_555 1_555
N15_2 N16_2 1_555 1_555
N16_2 C30_2 1_555 1_555
O42_2 C28_2 1_555 1_555
O20_2 Ho10 1_555 1_555
O21_2 Ho10 1_555 1_555
C29_2 O20_2 1_555 1_555
C30_2 N13_2 1_555 1_555
C31_2 C28_2 1_555 1_555
C32_2 C31_2 1_555 1_555
H16_2 C32_2 1_555 1_555
C33_2 C29_2 1_555 1_555
C34_2 C33_2 1_555 1_555
H17_2 C34_2 1_555 1_555
C35_2 C30_2 1_555 1_555
C36_2 C31_2 1_555 1_555
H18_2 C36_2 1_555 1_555
Co4_2 N14_2 1_555 1_555
O32_2 Ho10 1_555 1_555
Co6_2 N15_2 1_555 1_555
O21_2 C29_2 1_555 1_555
C32_2 C33_2 1_555 1_555
C34_2 C35_2 1_555 1_555
C35_2 C36_2 1_555 1_555
Ho8 O23_2 1_555 1_555
Ho5_4 O8_2 1_555 1_555
Ho8 O11_2 1_555 1_555
N9_2 N10_2 1_555 1_555
N10_2 Co1_2 1_555 1_555
N11_2 N10_2 1_555 1_555
N12_2 N11_2 1_555 1_555
O8_2 C19_2 1_555 1_555
O11_2 C20_2 1_555 1_555
O12_2 Ho8 1_555 1_555
O13_3 Co1_2 1_555 1_555
O14_3 Co1_2 1_555 1_555
O15_3 Co5_3 1_555 1_555
H2_3 O15_3 1_555 1_555
C19_2 C22_2 1_555 1_555
C20_2 O12_2 1_555 1_555
C21_2 N9_2 1_555 1_555
C22_2 C23_2 1_555 1_555
C23_2 H9_2 1_555 1_555
C24_2 C20_2 1_555 1_555
C25_2 C24_2 1_555 1_555
H10_2 C25_2 1_555 1_555
C26_2 C21_2 1_555 1_555
C27_2 C22_2 1_555 1_555
H11_2 C27_2 1_555 1_555
Co3_2 N11_2 1_555 1_555
O16_3 Co3_2 1_555 1_555
H13_3 O14_3 1_555 1_555
H15_3 O16_3 1_555 1_555
O19_2 Ho8 1_555 1_555
N17_3 N18_3 1_555 1_555
N18_3 Co1_2 1_555 1_555
N19_3 Co5_3 1_555 1_555
N20_3 N19_3 1_555 1_555
O22_2 Ho5_4 1_555 1_555
O24_3 C38_3 1_555 1_555
O25_3 C38_3 1_555 1_555
C37_3 O22_2 1_555 1_555
C38_3 C42_3 1_555 1_555
C39_3 N17_3 1_555 1_555
C40_3 C37_3 1_555 1_555
C41_3 C40_3 1_555 1_555
H19_3 C41_3 1_555 1_555
C42_3 C41_3 1_555 1_555
C43_3 C42_3 1_555 1_555
H20_3 C43_3 1_555 1_555
C44_3 C39_3 1_555 1_555
C45_3 C40_3 1_555 1_555
H21_3 C45_3 1_555 1_555
O30_3 Co3_2 1_555 1_555
Ho11_2 O24_3 1_555 1_555
N25_3 Co5_3 1_555 1_555
Co5_3 O13_3 1_555 1_555
N12_2 C21_2 1_555 1_555
O13_3 Co3_2 1_555 1_555
C23_2 C24_2 1_555 1_555
C25_2 C26_2 1_555 1_555
C26_2 C27_2 1_555 1_555
N18_3 N19_3 1_555 1_555
N20_3 C39_3 1_555 1_555
O25_3 Ho11_2 1_555 1_555
C43_3 C44_3 1_555 1_555
C44_3 C45_3 1_555 1_555
Ho12_2 O2_3 1_555 1_555
Co1_3 N2_3 1_555 1_555
Co5_4 N3_3 1_555 1_555
N1_3 N2_3 1_555 1_555
N2_3 N3_3 1_555 1_555
N3_3 N4_3 1_555 1_555
N4_3 C3_3 1_555 1_555
O1_3 C1_3 1_555 1_555
O34 C2_3 1_555 1_555
O36 C2_3 1_555 1_555
O13_4 Co1_3 1_555 1_555
O14_4 Co1_3 1_555 1_555
H1_3 O14_4 1_555 1_555
O15_4 Co5_4 1_555 1_555
C1_3 C4_3 1_555 1_555
C2_3 C6_3 1_555 1_555
C3_3 N1_3 1_555 1_555
C4_3 C5_3 1_555 1_555
C5_3 H3_3 1_555 1_555
C6_3 C5_3 1_555 1_555
C7_3 C6_3 1_555 1_555
H4_3 C7_3 1_555 1_555
C8_3 C3_3 1_555 1_555
C9_3 C4_3 1_555 1_555
H5_3 C9_3 1_555 1_555
O16_4 Co3_3 1_555 1_555
H12_3 O16_4 1_555 1_555
O17_3 Co3_3 1_555 1_555
H14_3 O15_4 1_555 1_555
Ho6_6 O1_3 1_555 1_555
N26_3 Co1_3 1_555 1_555
N27_3 Co3_3 1_555 1_555
Co5_4 O13_4 1_555 1_555
O13_4 Co3_3 1_555 1_555
C7_3 C8_3 1_555 1_555
C8_3 C9_3 1_555 1_555
N26_3 N27_3 1_555 1_555
O13_5 Co4_2 1_555 1_555
O14_5 Co4_2 1_555 1_555
O15_5 Co5 1_555 1_555
H2_4 O15_5 1_555 1_555
O16_5 Co6_2 1_555 1_555
H13_4 O14_5 1_555 1_555
H15_4 O16_5 1_555 1_555
N17_4 N18_4 1_555 1_555
N18_4 Co4_2 1_555 1_555
N19_4 Co5 1_555 1_555
N20_4 N19_4 1_555 1_555
O24_4 C38_4 1_555 1_555
O25_4 C38_4 1_555 1_555
C37_4 O31_2 1_555 1_555
C38_4 C42_4 1_555 1_555
C39_4 N17_4 1_555 1_555
C40_4 C37_4 1_555 1_555
C41_4 C40_4 1_555 1_555
H19_4 C41_4 1_555 1_555
C42_4 C41_4 1_555 1_555
C43_4 C42_4 1_555 1_555
H20_4 C43_4 1_555 1_555
C44_4 C39_4 1_555 1_555
C45_4 C40_4 1_555 1_555
H21_4 C45_4 1_555 1_555
O30_4 Co6_2 1_555 1_555
Ho11 O24_4 1_555 1_555
N25_4 Co5 1_555 1_555
Co5 O13_5 1_555 1_555
O13_5 Co6_2 1_555 1_555
N18_4 N19_4 1_555 1_555
N20_4 C39_4 1_555 1_555
O25_4 Ho11 1_555 1_555
C43_4 C44_4 1_555 1_555
C44_4 C45_4 1_555 1_555
Co4_3 N2_4 1_555 1_555
Co5_2 N3_4 1_555 1_555
N1_4 N2_4 1_555 1_555
N2_4 N3_4 1_555 1_555
N3_4 N4_4 1_555 1_555
N4_4 C3_4 1_555 1_555
O1_4 C1_4 1_555 1_555
O35 C2_4 1_555 1_555
O37 C2_4 1_555 1_555
O13_6 Co4_3 1_555 1_555
O14_6 Co4_3 1_555 1_555
H1_4 O14_6 1_555 1_555
O15_6 Co5_2 1_555 1_555
C1_4 C4_4 1_555 1_555
C2_4 C6_4 1_555 1_555
C3_4 N1_4 1_555 1_555
C4_4 C5_4 1_555 1_555
C5_4 H3_4 1_555 1_555
C6_4 C5_4 1_555 1_555
C7_4 C6_4 1_555 1_555
H4_4 C7_4 1_555 1_555
C8_4 C3_4 1_555 1_555
C9_4 C4_4 1_555 1_555
H5_4 C9_4 1_555 1_555
O16_6 Co6_3 1_555 1_555
H12_4 O16_6 1_555 1_555
O17_4 Co6_3 1_555 1_555
H14_4 O15_6 1_555 1_555
Ho6_3 O1_4 1_555 1_555
N26_4 Co4_3 1_555 1_555
N27_4 Co6_3 1_555 1_555
Co5_2 O13_6 1_555 1_555
O13_6 Co6_3 1_555 1_555
C7_4 C8_4 1_555 1_555
C8_4 C9_4 1_555 1_555
N26_4 N27_4 1_555 1_555
Ho12 O2_4 1_555 1_555
O7_3 C11_3 1_555 1_555
Ho12 O7_3 1_555 1_555
Ho12_2 O5_3 1_555 1_555
Ho6 O8_3 1_555 1_555
Ho11_2 O11_3 1_555 1_555
N5_3 N25_2 1_555 1_555
N7_3 N25_2 1_555 1_555
N8_3 N7_3 1_555 1_555
N9_3 N26_2 1_555 1_555
N12_3 N27_2 1_555 1_555
O6_3 C10_3 1_555 1_555
O8_3 C19_3 1_555 1_555
O9_3 C19_3 1_555 1_555
O11_3 C20_3 1_555 1_555
O12_3 Ho11_2 1_555 1_555
C10_3 C13_3 1_555 1_555
C12_3 N5_3 1_555 1_555
C13_3 C14_3 1_555 1_555
C14_3 H6_3 1_555 1_555
C15_3 C14_3 1_555 1_555
C16_3 C15_3 1_555 1_555
H7_3 C16_3 1_555 1_555
C17_3 C12_3 1_555 1_555
C18_3 C13_3 1_555 1_555
H8_3 C18_3 1_555 1_555
C19_3 C22_3 1_555 1_555
C20_3 O12_3 1_555 1_555
C21_3 N9_3 1_555 1_555
C22_3 C23_3 1_555 1_555
C23_3 H9_3 1_555 1_555
C24_3 C20_3 1_555 1_555
C25_3 C24_3 1_555 1_555
H10_3 C25_3 1_555 1_555
C26_3 C21_3 1_555 1_555
C27_3 C22_3 1_555 1_555
H11_3 C27_3 1_555 1_555
Ho11 O9_3 1_555 1_555
N13_3 N26 1_555 1_555
N27 N16_3 1_555 1_555
N16_3 C30_3 1_555 1_555
O18 C28_3 1_555 1_555
O19_3 Ho11_2 1_555 1_555
O20_3 Ho11 1_555 1_555
O21_3 Ho11 1_555 1_555
C28_3 O19_3 1_555 1_555
C29_3 O20_3 1_555 1_555
C30_3 N13_3 1_555 1_555
C31_3 C28_3 1_555 1_555
C32_3 C31_3 1_555 1_555
H16_3 C32_3 1_555 1_555
C33_3 C29_3 1_555 1_555
C34_3 C33_3 1_555 1_555
H17_3 C34_3 1_555 1_555
C35_3 C30_3 1_555 1_555
C36_3 C31_3 1_555 1_555
H18_3 C36_3 1_555 1_555
N21_3 N25_3 1_555 1_555
N25_3 N23_3 1_555 1_555
N23_3 N24_3 1_555 1_555
N24_3 C48_3 1_555 1_555
O27_2 Ho6 1_555 1_555
O28_2 Ho11 1_555 1_555
O29_3 C47_3 1_555 1_555
C46_3 O27_2 1_555 1_555
C47_3 O28_2 1_555 1_555
C48_3 N21_3 1_555 1_555
C49_3 C46_3 1_555 1_555
C50_3 C49_3 1_555 1_555
H22_3 C50_3 1_555 1_555
C51_3 C47_3 1_555 1_555
C52_3 C51_3 1_555 1_555
H23_3 C52_3 1_555 1_555
C53_3 C48_3 1_555 1_555
C54_3 C49_3 1_555 1_555
H24_3 C54_3 1_555 1_555
Ho6_2 O18 1_555 1_555
Ho6_6 O6_3 1_555 1_555
O38_2 Ho11 1_555 1_555
O39 Ho11_2 1_555 1_555
O41_2 Ho11_2 1_555 1_555
N8_3 C12_3 1_555 1_555
N12_3 C21_3 1_555 1_555
C16_3 C17_3 1_555 1_555
C17_3 C18_3 1_555 1_555
C23_3 C24_3 1_555 1_555
C25_3 C26_3 1_555 1_555
C26_3 C27_3 1_555 1_555
O21_3 C29_3 1_555 1_555
C32_3 C33_3 1_555 1_555
C34_3 C35_3 1_555 1_555
C35_3 C36_3 1_555 1_555
C50_3 C51_3 1_555 1_555
C52_3 C53_3 1_555 1_555
C53_3 C54_3 1_555 1_555
O40_2 Ho6_2 1_555 1_555
N5_4 N25 1_555 1_555
N7_4 N25 1_555 1_555
N8_4 N7_4 1_555 1_555
O6_4 C10_4 1_555 1_555
C10_4 C13_4 1_555 1_555
C12_4 N5_4 1_555 1_555
C13_4 C14_4 1_555 1_555
C14_4 H6_4 1_555 1_555
C15_4 C14_4 1_555 1_555
C16_4 C15_4 1_555 1_555
H7_4 C16_4 1_555 1_555
C17_4 C12_4 1_555 1_555
C18_4 C13_4 1_555 1_555
H8_4 C18_4 1_555 1_555
N21_4 N25_4 1_555 1_555
N25_4 N23_4 1_555 1_555
N23_4 N24_4 1_555 1_555
N24_4 C48_4 1_555 1_555
O29_4 C47_4 1_555 1_555
C46_4 O40_2 1_555 1_555
C47_4 O41_2 1_555 1_555
C48_4 N21_4 1_555 1_555
C49_4 C46_4 1_555 1_555
C50_4 C49_4 1_555 1_555
H22_4 C50_4 1_555 1_555
C51_4 C47_4 1_555 1_555
C52_4 C51_4 1_555 1_555
H23_4 C52_4 1_555 1_555
C53_4 C48_4 1_555 1_555
C54_4 C49_4 1_555 1_555
H24_4 C54_4 1_555 1_555
Ho6_3 O6_4 1_555 1_555
N8_4 C12_4 1_555 1_555
C16_4 C17_4 1_555 1_555
C17_4 C18_4 1_555 1_555
C50_4 C51_4 1_555 1_555
C52_4 C53_4 1_555 1_555
C53_4 C54_4 1_555 1_555
Ho12 O5_4 1_555 1_555
O7_4 C11_4 1_555 1_555
Ho12_2 O7_4 1_555 1_555
Ho6_3 O8_4 1_555 1_555
Ho12 O11_4 1_555 1_555
N9_4 N26_4 1_555 1_555
N12_4 N27_4 1_555 1_555
O8_4 C19_4 1_555 1_555
O11_4 C20_4 1_555 1_555
O12_4 Ho12 1_555 1_555
C19_4 C22_4 1_555 1_555
C20_4 O12_4 1_555 1_555
C21_4 N9_4 1_555 1_555
C22_4 C23_4 1_555 1_555
C23_4 H9_4 1_555 1_555
C24_4 C20_4 1_555 1_555
C25_4 C24_4 1_555 1_555
H10_4 C25_4 1_555 1_555
C26_4 C21_4 1_555 1_555
C27_4 C22_4 1_555 1_555
H11_4 C27_4 1_555 1_555
O19_4 Ho12 1_555 1_555
N12_4 C21_4 1_555 1_555
C23_4 C24_4 1_555 1_555
C25_4 C26_4 1_555 1_555
C26_4 C27_4 1_555 1_555
Ho12_2 O9_4 1_555 1_555
N13_4 N26_3 1_555 1_555
N27_3 N16_4 1_555 1_555
N16_4 C30_4 1_555 1_555
O18_2 C28_4 1_555 1_555
O20_4 Ho12_2 1_555 1_555
O21_4 Ho12_2 1_555 1_555
C29_4 O20_4 1_555 1_555
C30_4 N13_4 1_555 1_555
C31_4 C28_4 1_555 1_555
C32_4 C31_4 1_555 1_555
H16_4 C32_4 1_555 1_555
C33_4 C29_4 1_555 1_555
C34_4 C33_4 1_555 1_555
H17_4 C34_4 1_555 1_555
C35_4 C30_4 1_555 1_555
C36_4 C31_4 1_555 1_555
H18_4 C36_4 1_555 1_555
Ho6_6 O18_2 1_555 1_555
O21_4 C29_4 1_555 1_555
C32_4 C33_4 1_555 1_555
C34_4 C35_4 1_555 1_555
C35_4 C36_4 1_555 1_555

#END
