
###############################################################################
#
# This file contains modified crystal structure data generated from the
# MOF subset of the Cambridge Structural Database (CSD) v543 
# hosted by the Cambridge Crystallographic Data Centre (CCDC).
#
# This work is licensed under the Creative Commons
# Attribution-NonCommercial-ShareAlike 4.0 International License.
# To view a copy of this license, visit
# http://creativecommons.org/licenses/by-nc-sa/4.0/
# or send a letter to
# Creative Commons, PO Box 1866, Mountain View, CA 94042, USA.
#
# CIF created using the CSD Python API on 29 September 2022
# The structure has been converted into the P1 space group
# The structure has a 3D framework
# The original CSD entry ZAGZAM is in the monoclinic crystal system
# The framework has been calculated to contain at least 10.0% void space
# The void calculation uses a probe of radius 1.32A, grid spacing 0.4
# The framework is charged, counterions have been retained in the structure
# H atom positions have been added when not included in the experimental data
# Generated hydrogen atom positions removed from atoms on special positions
#
###############################################################################

data_ZAGZAM
_chemical_formula_moiety         '(C216 H136 Co18 Gd16 N96 O112 20-)n'
_symmetry_cell_setting           triclinic
_symmetry_space_group_name_H-M   'P 1'
_symmetry_Int_Tables_number      1
_space_group_name_Hall           'P 1'
loop_
_symmetry_equiv_pos_site_id
_symmetry_equiv_pos_as_xyz
1 x,y,z
_cell_length_a                   28.145(5)
_cell_length_b                   33.446(6)
_cell_length_c                   13.581(2)
_cell_angle_alpha                90
_cell_angle_beta                 110.479(2)
_cell_angle_gamma                90
_cell_volume                     11976.3
loop_
_atom_site_label
_atom_site_type_symbol
_atom_site_fract_x
_atom_site_fract_y
_atom_site_fract_z
Co5 Co 0.26203(6) 0.0000 0.48907(11)
Gd1 Gd 0.5000 0.72028(2) -0.0000
O2 O 0.3754(2) 0.27616(15) 0.0563(4)
O23 O 0.3754(2) 0.72384(15) 0.0563(4)
O26 O 0.3862(3) 0.81220(17) 0.0093(4)
Gd6 Gd 0.5000 0.27972(2) -0.0000
Gd7 Gd 0.40549(2) 0.77734(2) 0.17185(3)
Gd11 Gd 0.40549(2) 0.22266(2) 0.17185(3)
O31 O 0.5796(2) 0.69149(18) 0.0239(6)
O40 O 0.5526(2) 0.77603(15) 0.0042(5)
O42 O 0.5236(4) 0.7066(4) 0.1740(7)
Gd1_2 Gd 0.5000 0.72028(2) 1.0000
Co1 Co 0.36472(6) 0.5000 0.61143(12)
Co2 Co 0.23797(6) 0.5000 0.51093(11)
N1 N 0.3395(2) 0.42510(17) 0.7371(5)
N2 N 0.3261(2) 0.45518(17) 0.6677(5)
N3 N 0.2751(3) 0.45589(18) 0.6260(5)
N4 N 0.2546(2) 0.42550(18) 0.6641(5)
N5 N 0.1625(3) 0.43556(19) 0.3737(5)
N6 N 0.2074(3) 0.4536(2) 0.4004(6)
N7 N 0.2337(4) 0.4383(3) 0.3468(9)
N8 N 0.2071(4) 0.4077(3) 0.2901(8)
N9 N 0.4146(3) 0.58142(19) 0.5989(6)
N10 N 0.3871(5) 0.5505(3) 0.5380(9)
N11 N 0.3525(6) 0.5628(4) 0.4420(10)
N12 N 0.3649(5) 0.6022(4) 0.4345(11)
O1 O 0.4204(2) 0.30851(18) 0.9761(6)
O3 O 0.1887(2) 0.27395(17) 0.8770(5)
O4 O 0.1523(2) 0.32797(17) 0.7932(5)
O6 O 0.0526(2) 0.27603(15) 0.0042(5)
O8 O 0.4764(4) 0.7066(4) 0.8260(7)
O9 O 0.5141(5) 0.7530(3) 0.7664(9)
O10 O 0.0089(5) 0.3587(5) 0.3782(10)
O11 O 0.4261(2) 0.77517(18) 0.3686(4)
O12 O 0.3963(3) 0.72044(19) 0.2751(5)
O13 O 0.3050(4) 0.5000 0.4697(7)
O14 O 0.4254(3) 0.5000 0.7525(8)
H1 H 0.4222 0.4806 0.7899
O15 O 0.1741(3) 0.5000 0.5522(7)
H2 H 0.1710 0.5210 0.5847
C1 C 0.3810(3) 0.2994(2) 0.9887(6)
C2 C 0.1918(3) 0.3085(2) 0.8394(6)
C3 C 0.2965(3) 0.4072(2) 0.7326(6)
C4 C 0.3331(3) 0.3195(2) 0.9181(6)
C5 C 0.2846(3) 0.3054(2) 0.9111(6)
H3 H 0.2820 0.2833 0.9504
C6 C 0.2409(3) 0.3241(2) 0.8464(6)
C7 C 0.2444(3) 0.3583(2) 0.7907(7)
H4 H 0.2150 0.3718 0.7508
C8 C 0.2923(3) 0.3726(2) 0.7946(7)
C9 C 0.3367(3) 0.3525(2) 0.8589(6)
H5 H 0.3684 0.3615 0.8616
C10 C 0.0842(3) 0.3040(2) 0.0366(6)
C12 C 0.1625(3) 0.4078(3) 0.3074(7)
C13 C 0.0831(3) 0.3294(2) 0.1262(6)
C14 C 0.0431(3) 0.3281(3) 0.1599(6)
H6 H 0.0162 0.3110 0.1275
C15 C 0.0419(4) 0.3519(3) 0.2412(7)
C16 C 0.0823(3) 0.3778(3) 0.2900(7)
H7 H 0.0818 0.3935 0.3460
C17 C 0.1226(3) 0.3800(3) 0.2558(7)
C18 C 0.1210(3) 0.3557(2) 0.1717(6)
H8 H 0.1472 0.3577 0.1452
C19 C 0.4839(4) 0.7243(3) 0.7554(7)
C20 C 0.4173(4) 0.7380(3) 0.3639(7)
C21 C 0.4114(5) 0.6083(3) 0.5209(8)
C22 C 0.4616(3) 0.7068(2) 0.6493(6)
C23 C 0.4524(3) 0.7309(3) 0.5603(6)
H9 H 0.4607 0.7579 0.5672
C24 C 0.4307(3) 0.7136(3) 0.4606(6)
C25 C 0.4209(4) 0.6737(3) 0.4499(8)
H10 H 0.4077 0.6626 0.3830
C26 C 0.4304(5) 0.6485(3) 0.5393(7)
C27 C 0.4498(4) 0.6653(3) 0.6381(7)
H11 H 0.4552 0.6495 0.6974
Co3 Co 0.3649(4) 0.5000 0.3781(9)
O16 O 0.3147(17) 0.4621(13) 0.266(3)
O17 O 0.406(2) 0.5000 0.275(4)
H12 H 0.4222 0.5194 0.7899
H13 H 0.1710 0.4790 0.5847
Gd3 Gd 0.59451(2) 0.77734(2) 0.82815(3)
N13 N 0.5854(3) 0.58142(19) 0.4011(6)
N14 N 0.6129(5) 0.5505(3) 0.4620(9)
N15 N 0.6475(6) 0.5628(4) 0.5580(10)
N16 N 0.6351(5) 0.6022(4) 0.5655(11)
O19 O 0.4859(5) 0.7530(3) 0.2336(9)
O20 O 0.5739(2) 0.77517(18) 0.6314(4)
O21 O 0.6037(3) 0.72044(19) 0.7249(5)
C28 C 0.5161(4) 0.7243(3) 0.2446(7)
C29 C 0.5827(4) 0.7380(3) 0.6361(7)
C30 C 0.5886(5) 0.6083(3) 0.4791(8)
C31 C 0.5384(3) 0.7068(2) 0.3507(6)
C32 C 0.5476(3) 0.7309(3) 0.4397(6)
H14 H 0.5393 0.7579 0.4328
C33 C 0.5693(3) 0.7136(3) 0.5394(6)
C34 C 0.5791(4) 0.6737(3) 0.5501(8)
H15 H 0.5923 0.6626 0.6170
C35 C 0.5696(5) 0.6485(3) 0.4607(7)
C36 C 0.5502(4) 0.6653(3) 0.3619(7)
H16 H 0.5448 0.6495 0.3026
N17 N 0.3395(2) 0.57490(17) 0.7371(5)
N18 N 0.3261(2) 0.54482(17) 0.6677(5)
N19 N 0.2751(3) 0.54411(18) 0.6260(5)
N20 N 0.2546(2) 0.57450(18) 0.6641(5)
O22 O 0.4204(2) 0.69149(18) 0.9761(6)
O24 O 0.1887(2) 0.72605(17) 0.8770(5)
O25 O 0.1523(2) 0.67203(17) 0.7932(5)
C37 C 0.3810(3) 0.7006(2) 0.9887(6)
C38 C 0.1918(3) 0.6915(2) 0.8394(6)
C39 C 0.2965(3) 0.5928(2) 0.7326(6)
C40 C 0.3331(3) 0.6805(2) 0.9181(6)
C41 C 0.2846(3) 0.6946(2) 0.9111(6)
H17 H 0.2820 0.7167 0.9504
C42 C 0.2409(3) 0.6759(2) 0.8464(6)
C43 C 0.2444(3) 0.6417(2) 0.7907(7)
H18 H 0.2150 0.6282 0.7508
C44 C 0.2923(3) 0.6274(2) 0.7946(7)
C45 C 0.3367(3) 0.6475(2) 0.8589(6)
H19 H 0.3684 0.6385 0.8616
N21 N 0.3375(3) 0.93556(19) 0.6263(5)
N22 N 0.2926(3) 0.9536(2) 0.5996(6)
N23 N 0.2663(4) 0.9383(3) 0.6532(9)
N24 N 0.2929(4) 0.9077(3) 0.7099(8)
O27 O 0.4474(2) 0.77603(15) 0.9958(5)
O28 O 0.5419(2) 0.83260(18) 0.7749(5)
O29 O 0.4911(5) 0.8587(5) 0.6218(10)
C46 C 0.4158(3) 0.8040(2) 0.9634(6)
C47 C 0.5004(5) 0.8491(3) 0.7190(9)
C48 C 0.3375(3) 0.9078(3) 0.6926(7)
C49 C 0.4169(3) 0.8294(2) 0.8738(6)
C50 C 0.4569(3) 0.8281(3) 0.8401(6)
H20 H 0.4838 0.8110 0.8725
C51 C 0.4581(4) 0.8519(3) 0.7588(7)
C52 C 0.4177(3) 0.8778(3) 0.7100(7)
H21 H 0.4182 0.8935 0.6540
C53 C 0.3774(3) 0.8800(3) 0.7442(7)
C54 C 0.3790(3) 0.8557(2) 0.8283(6)
H22 H 0.3528 0.8577 0.8548
O30 O 0.3147(17) 0.5379(13) 0.266(3)
Gd5 Gd -0.0000 0.22028(2) 0.0000
Gd6_2 Gd 0.5000 0.27972(2) 1.0000
Gd10 Gd 0.09451(2) 0.27734(2) 0.82815(3)
Gd12 Gd 0.09451(2) 0.72266(2) 0.82815(3)
Co4 Co 0.63528(6) 0.5000 0.38857(12)
Co5_2 Co 0.26203(6) 1.0000 0.48907(11)
N25 N 0.2074(3) 0.5464(2) 0.4004(6)
N26 N 0.3871(5) 0.4495(3) 0.5380(9)
N27 N 0.3525(6) 0.4372(4) 0.4420(10)
O32 O 0.6246(2) 0.72384(15) 0.9437(4)
O34 O 0.6887(2) 0.77395(17) 0.8770(5)
O35 O 0.3113(2) 0.77395(17) 0.1230(5)
O36 O 0.6523(2) 0.82797(17) 0.7932(5)
O37 O 0.3477(2) 0.82797(17) 0.2068(5)
O38 O 0.6138(3) 0.81220(17) 0.9907(4)
O41 O 0.4581(2) 0.83260(18) 0.2251(5)
Co6 Co 0.6351(4) 0.5000 0.6219(9)
O5 O 0.1138(3) 0.31220(17) 0.9907(4)
Gd5_2 Gd -0.0000 0.22028(2) 1.0000
O7 O 0.9581(2) 0.33260(18) 0.2251(5)
C11 C 0.9996(5) 0.3491(3) 0.2810(9)
Gd5_3 Gd 1.0000 0.22028(2) 0.0000
Gd8 Gd 0.90549(2) 0.27734(2) 0.17185(3)
Gd5_4 Gd 1.0000 0.22028(2) 1.0000
O7_2 O 0.0419(2) 0.33260(18) 0.7749(5)
C11_2 C 0.0004(5) 0.3491(3) 0.7190(9)
Co5_3 Co 0.73797(6) 0.0000 0.51093(11)
O5_2 O 0.8862(3) 0.31220(17) 0.0093(4)
Co2_2 Co 0.76203(6) 0.5000 0.48907(11)
N1_2 N 0.6605(2) 0.42510(17) 0.2629(5)
N2_2 N 0.6739(2) 0.45518(17) 0.3323(5)
N3_2 N 0.7249(3) 0.45589(18) 0.3740(5)
N4_2 N 0.7454(2) 0.42550(18) 0.3359(5)
N5_2 N 0.8375(3) 0.43556(19) 0.6263(5)
N6_2 N 0.7926(3) 0.4536(2) 0.5996(6)
N7_2 N 0.7663(4) 0.4383(3) 0.6532(9)
N8_2 N 0.7929(4) 0.4077(3) 0.7099(8)
O1_2 O 0.5796(2) 0.30851(18) 0.0239(6)
O3_2 O 0.8113(2) 0.27395(17) 0.1230(5)
O4_2 O 0.8477(2) 0.32797(17) 0.2068(5)
O6_2 O 0.9474(2) 0.27603(15) 0.9958(5)
O10_2 O 0.9911(5) 0.3587(5) 0.6218(10)
O13_2 O 0.6950(4) 0.5000 0.5303(7)
O14_2 O 0.5746(3) 0.5000 0.2475(8)
H1_2 H 0.5778 0.4806 0.2101
O15_2 O 0.8259(3) 0.5000 0.4478(7)
H2_2 H 0.8290 0.5210 0.4153
C1_2 C 0.6190(3) 0.2994(2) 0.0113(6)
C2_2 C 0.8082(3) 0.3085(2) 0.1606(6)
C3_2 C 0.7035(3) 0.4072(2) 0.2674(6)
C4_2 C 0.6669(3) 0.3195(2) 0.0819(6)
C5_2 C 0.7154(3) 0.3054(2) 0.0889(6)
H3_2 H 0.7180 0.2833 0.0496
C6_2 C 0.7591(3) 0.3241(2) 0.1536(6)
C7_2 C 0.7556(3) 0.3583(2) 0.2093(7)
H4_2 H 0.7850 0.3718 0.2492
C8_2 C 0.7077(3) 0.3726(2) 0.2054(7)
C9_2 C 0.6633(3) 0.3525(2) 0.1411(6)
H5_2 H 0.6316 0.3615 0.1384
C10_2 C 0.9158(3) 0.3040(2) 0.9634(6)
C12_2 C 0.8375(3) 0.4078(3) 0.6926(7)
C13_2 C 0.9169(3) 0.3294(2) 0.8738(6)
C14_2 C 0.9569(3) 0.3281(3) 0.8401(6)
H6_2 H 0.9838 0.3110 0.8725
C15_2 C 0.9581(4) 0.3519(3) 0.7588(7)
C16_2 C 0.9177(3) 0.3778(3) 0.7100(7)
H7_2 H 0.9182 0.3935 0.6540
C17_2 C 0.8774(3) 0.3800(3) 0.7442(7)
C18_2 C 0.8790(3) 0.3557(2) 0.8283(6)
H8_2 H 0.8528 0.3577 0.8548
O16_2 O 0.6853(17) 0.4621(13) 0.734(3)
O17_2 O 0.594(2) 0.5000 0.725(4)
H12_2 H 0.5778 0.5194 0.2101
H13_2 H 0.8290 0.4790 0.4153
N17_2 N 0.6605(2) 0.57490(17) 0.2629(5)
N18_2 N 0.6739(2) 0.54482(17) 0.3323(5)
N19_2 N 0.7249(3) 0.54411(18) 0.3740(5)
N20_2 N 0.7454(2) 0.57450(18) 0.3359(5)
O24_2 O 0.8113(2) 0.72605(17) 0.1230(5)
O25_2 O 0.8477(2) 0.67203(17) 0.2068(5)
C37_2 C 0.6190(3) 0.7006(2) 0.0113(6)
C38_2 C 0.8082(3) 0.6915(2) 0.1606(6)
C39_2 C 0.7035(3) 0.5928(2) 0.2674(6)
C40_2 C 0.6669(3) 0.6805(2) 0.0819(6)
C41_2 C 0.7154(3) 0.6946(2) 0.0889(6)
H17_2 H 0.7180 0.7167 0.0496
C42_2 C 0.7591(3) 0.6759(2) 0.1536(6)
C43_2 C 0.7556(3) 0.6417(2) 0.2093(7)
H18_2 H 0.7850 0.6282 0.2492
C44_2 C 0.7077(3) 0.6274(2) 0.2054(7)
C45_2 C 0.6633(3) 0.6475(2) 0.1411(6)
H19_2 H 0.6316 0.6385 0.1384
N21_2 N 0.6625(3) 0.93556(19) 0.3737(5)
N22_2 N 0.7074(3) 0.9536(2) 0.4004(6)
N23_2 N 0.7337(4) 0.9383(3) 0.3468(9)
N24_2 N 0.7071(4) 0.9077(3) 0.2901(8)
O29_2 O 0.5089(5) 0.8587(5) 0.3782(10)
C46_2 C 0.5842(3) 0.8040(2) 0.0366(6)
C47_2 C 0.4996(5) 0.8491(3) 0.2810(9)
C48_2 C 0.6625(3) 0.9078(3) 0.3074(7)
C49_2 C 0.5831(3) 0.8294(2) 0.1262(6)
C50_2 C 0.5431(3) 0.8281(3) 0.1599(6)
H20_2 H 0.5162 0.8110 0.1275
C51_2 C 0.5419(4) 0.8519(3) 0.2412(7)
C52_2 C 0.5823(3) 0.8778(3) 0.2900(7)
H21_2 H 0.5818 0.8935 0.3460
C53_2 C 0.6226(3) 0.8800(3) 0.2558(7)
C54_2 C 0.6210(3) 0.8557(2) 0.1717(6)
H22_2 H 0.6472 0.8577 0.1452
O30_2 O 0.6853(17) 0.5379(13) 0.734(3)
Gd12_2 Gd 0.90549(2) 0.72266(2) 0.17185(3)
Co5_4 Co 0.73797(6) 1.0000 0.51093(11)
N25_2 N 0.7926(3) 0.5464(2) 0.5996(6)
N26_2 N 0.6129(5) 0.4495(3) 0.4620(9)
N27_2 N 0.6475(6) 0.4372(4) 0.5580(10)
O2_2 O 0.6246(2) 0.27616(15) 0.9437(4)
Gd11_2 Gd 0.59451(2) 0.22266(2) 0.82815(3)
O31_2 O 0.0796(2) 0.19149(18) 0.0239(6)
O42_2 O 0.0236(4) 0.2066(4) 0.1740(7)
O9_2 O 0.0141(5) 0.2530(3) 0.7664(9)
N13_2 N 0.0854(3) 0.08142(19) 0.4011(6)
N14_2 N 0.1129(5) 0.0505(3) 0.4620(9)
N15_2 N 0.1475(6) 0.0628(4) 0.5580(10)
N16_2 N 0.1351(5) 0.1022(4) 0.5655(11)
O20_2 O 0.0739(2) 0.27517(18) 0.6314(4)
O21_2 O 0.1037(3) 0.22044(19) 0.7249(5)
C28_2 C 0.0161(4) 0.2243(3) 0.2446(7)
C29_2 C 0.0827(4) 0.2380(3) 0.6361(7)
C30_2 C 0.0886(5) 0.1083(3) 0.4791(8)
C31_2 C 0.0384(3) 0.2068(2) 0.3507(6)
C32_2 C 0.0476(3) 0.2309(3) 0.4397(6)
H14_2 H 0.0393 0.2579 0.4328
C33_2 C 0.0693(3) 0.2136(3) 0.5394(6)
C34_2 C 0.0791(4) 0.1737(3) 0.5501(8)
H15_2 H 0.0923 0.1626 0.6170
C35_2 C 0.0696(5) 0.1485(3) 0.4607(7)
C36_2 C 0.0502(4) 0.1653(3) 0.3619(7)
H16_2 H 0.0448 0.1495 0.3026
Co4_2 Co 0.13528(6) -0.0000 0.38857(12)
O32_2 O 0.1246(2) 0.22384(15) 0.9437(4)
Co6_2 Co 0.1351(4) 0.0000 0.6219(9)
Gd6_3 Gd -0.0000 0.77972(2) -0.0000
Gd6_4 Gd -0.0000 0.77972(2) 1.0000
Co4_3 Co 0.13528(6) 1.0000 0.38857(12)
Co6_3 Co 0.1351(4) 1.0000 0.6219(9)
O23_2 O 0.8754(2) 0.22384(15) 0.0563(4)
Co1_2 Co 0.86472(6) 0.0000 0.61143(12)
N9_2 N 0.9146(3) 0.08142(19) 0.5989(6)
N10_2 N 0.8871(5) 0.0505(3) 0.5380(9)
N11_2 N 0.8525(6) 0.0628(4) 0.4420(10)
N12_2 N 0.8649(5) 0.1022(4) 0.4345(11)
O8_2 O 0.9764(4) 0.2066(4) 0.8260(7)
O11_2 O 0.9261(2) 0.27517(18) 0.3686(4)
O12_2 O 0.8963(3) 0.22044(19) 0.2751(5)
O13_3 O 0.8050(4) 0.0000 0.4697(7)
O14_3 O 0.9254(3) -0.0000 0.7525(8)
O15_3 O 0.6741(3) 0.0000 0.5522(7)
H2_3 H 0.6710 0.0210 0.5847
C19_2 C 0.9839(4) 0.2243(3) 0.7554(7)
C20_2 C 0.9173(4) 0.2380(3) 0.3639(7)
C21_2 C 0.9114(5) 0.1083(3) 0.5209(8)
C22_2 C 0.9616(3) 0.2068(2) 0.6493(6)
C23_2 C 0.9524(3) 0.2309(3) 0.5603(6)
H9_2 H 0.9607 0.2579 0.5672
C24_2 C 0.9307(3) 0.2136(3) 0.4606(6)
C25_2 C 0.9209(4) 0.1737(3) 0.4499(8)
H10_2 H 0.9077 0.1626 0.3830
C26_2 C 0.9304(5) 0.1485(3) 0.5393(7)
C27_2 C 0.9498(4) 0.1653(3) 0.6381(7)
H11_2 H 0.9552 0.1495 0.6974
Co3_2 Co 0.8649(4) 0.0000 0.3781(9)
O17_3 O 0.906(2) 0.0000 0.275(4)
H12_3 H 0.9222 0.0194 0.7899
O19_2 O 0.9859(5) 0.2530(3) 0.2336(9)
N17_3 N 0.8395(2) 0.07490(17) 0.7371(5)
N18_3 N 0.8261(2) 0.04482(17) 0.6677(5)
N19_3 N 0.7751(3) 0.04411(18) 0.6260(5)
N20_3 N 0.7546(2) 0.07450(18) 0.6641(5)
O22_2 O 0.9204(2) 0.19149(18) 0.9761(6)
O24_3 O 0.6887(2) 0.22605(17) 0.8770(5)
O25_3 O 0.6523(2) 0.17203(17) 0.7932(5)
C37_3 C 0.8810(3) 0.2006(2) 0.9887(6)
C38_3 C 0.6918(3) 0.1915(2) 0.8394(6)
C39_3 C 0.7965(3) 0.0928(2) 0.7326(6)
C40_3 C 0.8331(3) 0.1805(2) 0.9181(6)
C41_3 C 0.7846(3) 0.1946(2) 0.9111(6)
H17_3 H 0.7820 0.2167 0.9504
C42_3 C 0.7409(3) 0.1759(2) 0.8464(6)
C43_3 C 0.7444(3) 0.1417(2) 0.7907(7)
H18_3 H 0.7150 0.1282 0.7508
C44_3 C 0.7923(3) 0.1274(2) 0.7946(7)
C45_3 C 0.8367(3) 0.1475(2) 0.8589(6)
H19_3 H 0.8684 0.1385 0.8616
O30_3 O 0.8147(17) 0.0379(13) 0.266(3)
N25_3 N 0.7074(3) 0.0464(2) 0.4004(6)
H25 H 0.940322 0.0112829 0.311463
O2_3 O 0.8754(2) 0.77616(15) 0.0563(4)
Gd6_5 Gd 1.0000 0.77972(2) -0.0000
Co1_3 Co 0.86472(6) 1.0000 0.61143(12)
N1_3 N 0.8395(2) 0.92510(17) 0.7371(5)
N2_3 N 0.8261(2) 0.95518(17) 0.6677(5)
N3_3 N 0.7751(3) 0.95589(18) 0.6260(5)
N4_3 N 0.7546(2) 0.92550(18) 0.6641(5)
O1_3 O 0.9204(2) 0.80851(18) 0.9761(6)
O13_4 O 0.8050(4) 1.0000 0.4697(7)
O14_4 O 0.9254(3) 1.0000 0.7525(8)
H1_3 H 0.9222 0.9806 0.7899
O15_4 O 0.6741(3) 1.0000 0.5522(7)
C1_3 C 0.8810(3) 0.7994(2) 0.9887(6)
C2_3 C 0.6918(3) 0.8085(2) 0.8394(6)
C3_3 C 0.7965(3) 0.9072(2) 0.7326(6)
C4_3 C 0.8331(3) 0.8195(2) 0.9181(6)
C5_3 C 0.7846(3) 0.8054(2) 0.9111(6)
H3_3 H 0.7820 0.7833 0.9504
C6_3 C 0.7409(3) 0.8241(2) 0.8464(6)
C7_3 C 0.7444(3) 0.8583(2) 0.7907(7)
H4_3 H 0.7150 0.8718 0.7508
C8_3 C 0.7923(3) 0.8726(2) 0.7946(7)
C9_3 C 0.8367(3) 0.8525(2) 0.8589(6)
H5_3 H 0.8684 0.8615 0.8616
Co3_3 Co 0.8649(4) 1.0000 0.3781(9)
O16_3 O 0.8147(17) 0.9621(13) 0.266(3)
O17_4 O 0.906(2) 1.0000 0.275(4)
H13_3 H 0.6710 0.9790 0.5847
Gd6_6 Gd 1.0000 0.77972(2) 1.0000
N26_3 N 0.8871(5) 0.9495(3) 0.5380(9)
N27_3 N 0.8525(6) 0.9372(4) 0.4420(10)
H26 H 0.909159 0.972174 0.252545
O13_5 O 0.1950(4) 0.0000 0.5303(7)
O14_5 O 0.0746(3) 0.0000 0.2475(8)
O15_5 O 0.3259(3) 0.0000 0.4478(7)
H2_4 H 0.3290 0.0210 0.4153
O17_5 O 0.094(2) 0.0000 0.725(4)
H12_4 H 0.0778 0.0194 0.2101
N17_4 N 0.1605(2) 0.07490(17) 0.2629(5)
N18_4 N 0.1739(2) 0.04482(17) 0.3323(5)
N19_4 N 0.2249(3) 0.04411(18) 0.3740(5)
N20_4 N 0.2454(2) 0.07450(18) 0.3359(5)
O24_4 O 0.3113(2) 0.22605(17) 0.1230(5)
O25_4 O 0.3477(2) 0.17203(17) 0.2068(5)
C37_4 C 0.1190(3) 0.2006(2) 0.0113(6)
C38_4 C 0.3082(3) 0.1915(2) 0.1606(6)
C39_4 C 0.2035(3) 0.0928(2) 0.2674(6)
C40_4 C 0.1669(3) 0.1805(2) 0.0819(6)
C41_4 C 0.2154(3) 0.1946(2) 0.0889(6)
H17_4 H 0.2180 0.2167 0.0496
C42_4 C 0.2591(3) 0.1759(2) 0.1536(6)
C43_4 C 0.2556(3) 0.1417(2) 0.2093(7)
H18_4 H 0.2850 0.1282 0.2492
C44_4 C 0.2077(3) 0.1274(2) 0.2054(7)
C45_4 C 0.1633(3) 0.1475(2) 0.1411(6)
H19_4 H 0.1316 0.1385 0.1384
O30_4 O 0.1853(17) 0.0379(13) 0.734(3)
N25_4 N 0.2926(3) 0.0464(2) 0.5996(6)
H25_2 H 0.0596781 0.0112829 0.688537
N1_4 N 0.1605(2) 0.92510(17) 0.2629(5)
N2_4 N 0.1739(2) 0.95518(17) 0.3323(5)
N3_4 N 0.2249(3) 0.95589(18) 0.3740(5)
N4_4 N 0.2454(2) 0.92550(18) 0.3359(5)
O1_4 O 0.0796(2) 0.80851(18) 0.0239(6)
O13_6 O 0.1950(4) 1.0000 0.5303(7)
O14_6 O 0.0746(3) 1.0000 0.2475(8)
H1_4 H 0.0778 0.9806 0.2101
O15_6 O 0.3259(3) 1.0000 0.4478(7)
C1_4 C 0.1190(3) 0.7994(2) 0.0113(6)
C2_4 C 0.3082(3) 0.8085(2) 0.1606(6)
C3_4 C 0.2035(3) 0.9072(2) 0.2674(6)
C4_4 C 0.1669(3) 0.8195(2) 0.0819(6)
C5_4 C 0.2154(3) 0.8054(2) 0.0889(6)
H3_4 H 0.2180 0.7833 0.0496
C6_4 C 0.2591(3) 0.8241(2) 0.1536(6)
C7_4 C 0.2556(3) 0.8583(2) 0.2093(7)
H4_4 H 0.2850 0.8718 0.2492
C8_4 C 0.2077(3) 0.8726(2) 0.2054(7)
C9_4 C 0.1633(3) 0.8525(2) 0.1411(6)
H5_4 H 0.1316 0.8615 0.1384
O16_4 O 0.1853(17) 0.9621(13) 0.734(3)
O17_6 O 0.094(2) 1.0000 0.725(4)
H13_4 H 0.3290 0.9790 0.4153
N26_4 N 0.1129(5) 0.9495(3) 0.4620(9)
N27_4 N 0.1475(6) 0.9372(4) 0.5580(10)
H26_2 H 0.0908411 0.972174 0.747455
O2_4 O 0.1246(2) 0.77616(15) 0.9437(4)
O7_3 O 0.0419(2) 0.66740(18) 0.7749(5)
C11_3 C 0.0004(5) 0.6509(3) 0.7190(9)
O5_3 O 0.8862(3) 0.68780(17) 0.0093(4)
N5_3 N 0.8375(3) 0.56444(19) 0.6263(5)
N7_3 N 0.7663(4) 0.5617(3) 0.6532(9)
N8_3 N 0.7929(4) 0.5923(3) 0.7099(8)
N9_3 N 0.5854(3) 0.41858(19) 0.4011(6)
N12_3 N 0.6351(5) 0.3978(4) 0.5655(11)
O6_3 O 0.9474(2) 0.72397(15) 0.9958(5)
O8_3 O 0.5236(4) 0.2934(4) 0.1740(7)
O9_3 O 0.4859(5) 0.2470(3) 0.2336(9)
O10_3 O 0.9911(5) 0.6413(5) 0.6218(10)
O11_3 O 0.5739(2) 0.22483(18) 0.6314(4)
O12_3 O 0.6037(3) 0.27956(19) 0.7249(5)
C10_3 C 0.9158(3) 0.6960(2) 0.9634(6)
C12_3 C 0.8375(3) 0.5922(3) 0.6926(7)
C13_3 C 0.9169(3) 0.6706(2) 0.8738(6)
C14_3 C 0.9569(3) 0.6719(3) 0.8401(6)
H6_3 H 0.9838 0.6890 0.8725
C15_3 C 0.9581(4) 0.6481(3) 0.7588(7)
C16_3 C 0.9177(3) 0.6222(3) 0.7100(7)
H7_3 H 0.9182 0.6065 0.6540
C17_3 C 0.8774(3) 0.6200(3) 0.7442(7)
C18_3 C 0.8790(3) 0.6443(2) 0.8283(6)
H8_3 H 0.8528 0.6423 0.8548
C19_3 C 0.5161(4) 0.2757(3) 0.2446(7)
C20_3 C 0.5827(4) 0.2620(3) 0.6361(7)
C21_3 C 0.5886(5) 0.3917(3) 0.4791(8)
C22_3 C 0.5384(3) 0.2932(2) 0.3507(6)
C23_3 C 0.5476(3) 0.2691(3) 0.4397(6)
H9_3 H 0.5393 0.2421 0.4328
C24_3 C 0.5693(3) 0.2864(3) 0.5394(6)
C25_3 C 0.5791(4) 0.3263(3) 0.5501(8)
H10_3 H 0.5923 0.3374 0.6170
C26_3 C 0.5696(5) 0.3515(3) 0.4607(7)
C27_3 C 0.5502(4) 0.3347(3) 0.3619(7)
H11_3 H 0.5448 0.3505 0.3026
N13_3 N 0.4146(3) 0.41858(19) 0.5989(6)
N16_3 N 0.3649(5) 0.3978(4) 0.4345(11)
O18 O 0.4764(4) 0.2934(4) 0.8260(7)
O19_3 O 0.5141(5) 0.2470(3) 0.7664(9)
O20_3 O 0.4261(2) 0.22483(18) 0.3686(4)
O21_3 O 0.3963(3) 0.27956(19) 0.2751(5)
C28_3 C 0.4839(4) 0.2757(3) 0.7554(7)
C29_3 C 0.4173(4) 0.2620(3) 0.3639(7)
C30_3 C 0.4114(5) 0.3917(3) 0.5209(8)
C31_3 C 0.4616(3) 0.2932(2) 0.6493(6)
C32_3 C 0.4524(3) 0.2691(3) 0.5603(6)
H14_3 H 0.4607 0.2421 0.5672
C33_3 C 0.4307(3) 0.2864(3) 0.4606(6)
C34_3 C 0.4209(4) 0.3263(3) 0.4499(8)
H15_3 H 0.4077 0.3374 0.3830
C35_3 C 0.4304(5) 0.3515(3) 0.5393(7)
C36_3 C 0.4498(4) 0.3347(3) 0.6381(7)
H16_3 H 0.4552 0.3505 0.6974
N21_3 N 0.6625(3) 0.06444(19) 0.3737(5)
N23_3 N 0.7337(4) 0.0617(3) 0.3468(9)
N24_3 N 0.7071(4) 0.0923(3) 0.2901(8)
O27_2 O 0.5526(2) 0.22397(15) 0.0042(5)
O28_2 O 0.4581(2) 0.16740(18) 0.2251(5)
O29_3 O 0.5089(5) 0.1413(5) 0.3782(10)
C46_3 C 0.5842(3) 0.1960(2) 0.0366(6)
C47_3 C 0.4996(5) 0.1509(3) 0.2810(9)
C48_3 C 0.6625(3) 0.0922(3) 0.3074(7)
C49_3 C 0.5831(3) 0.1706(2) 0.1262(6)
C50_3 C 0.5431(3) 0.1719(3) 0.1599(6)
H20_3 H 0.5162 0.1890 0.1275
C51_3 C 0.5419(4) 0.1481(3) 0.2412(7)
C52_3 C 0.5823(3) 0.1222(3) 0.2900(7)
H21_3 H 0.5818 0.1065 0.3460
C53_3 C 0.6226(3) 0.1200(3) 0.2558(7)
C54_3 C 0.6210(3) 0.1443(2) 0.1717(6)
H22_3 H 0.6472 0.1423 0.1452
O38_2 O 0.3862(3) 0.18780(17) 0.0093(4)
O39 O 0.6138(3) 0.18780(17) 0.9907(4)
O41_2 O 0.5419(2) 0.16740(18) 0.7749(5)
O40_2 O 0.4474(2) 0.22397(15) 0.9958(5)
N5_4 N 0.1625(3) 0.56444(19) 0.3737(5)
N7_4 N 0.2337(4) 0.5617(3) 0.3468(9)
N8_4 N 0.2071(4) 0.5923(3) 0.2901(8)
O6_4 O 0.0526(2) 0.72397(15) 0.0042(5)
O10_4 O 0.0089(5) 0.6413(5) 0.3782(10)
C10_4 C 0.0842(3) 0.6960(2) 0.0366(6)
C12_4 C 0.1625(3) 0.5922(3) 0.3074(7)
C13_4 C 0.0831(3) 0.6706(2) 0.1262(6)
C14_4 C 0.0431(3) 0.6719(3) 0.1599(6)
H6_4 H 0.0162 0.6890 0.1275
C15_4 C 0.0419(4) 0.6481(3) 0.2412(7)
C16_4 C 0.0823(3) 0.6222(3) 0.2900(7)
H7_4 H 0.0818 0.6065 0.3460
C17_4 C 0.1226(3) 0.6200(3) 0.2558(7)
C18_4 C 0.1210(3) 0.6443(2) 0.1717(6)
H8_4 H 0.1472 0.6423 0.1452
N21_4 N 0.3375(3) 0.06444(19) 0.6263(5)
N23_4 N 0.2663(4) 0.0617(3) 0.6532(9)
N24_4 N 0.2929(4) 0.0923(3) 0.7099(8)
O29_4 O 0.4911(5) 0.1413(5) 0.6218(10)
C46_4 C 0.4158(3) 0.1960(2) 0.9634(6)
C47_4 C 0.5004(5) 0.1509(3) 0.7190(9)
C48_4 C 0.3375(3) 0.0922(3) 0.6926(7)
C49_4 C 0.4169(3) 0.1706(2) 0.8738(6)
C50_4 C 0.4569(3) 0.1719(3) 0.8401(6)
H20_4 H 0.4838 0.1890 0.8725
C51_4 C 0.4581(4) 0.1481(3) 0.7588(7)
C52_4 C 0.4177(3) 0.1222(3) 0.7100(7)
H21_4 H 0.4182 0.1065 0.6540
C53_4 C 0.3774(3) 0.1200(3) 0.7442(7)
C54_4 C 0.3790(3) 0.1443(2) 0.8283(6)
H22_4 H 0.3528 0.1423 0.8548
O5_4 O 0.1138(3) 0.68780(17) 0.9907(4)
O7_4 O 0.9581(2) 0.66740(18) 0.2251(5)
C11_4 C 0.9996(5) 0.6509(3) 0.2810(9)
H26_3 H 0.0908411 0.0278264 0.747455
N9_4 N 0.0854(3) 0.91858(19) 0.4011(6)
N12_4 N 0.1351(5) 0.8978(4) 0.5655(11)
O8_4 O 0.0236(4) 0.7934(4) 0.1740(7)
O11_4 O 0.0739(2) 0.72483(18) 0.6314(4)
O12_4 O 0.1037(3) 0.77956(19) 0.7249(5)
C19_4 C 0.0161(4) 0.7757(3) 0.2446(7)
C20_4 C 0.0827(4) 0.7620(3) 0.6361(7)
C21_4 C 0.0886(5) 0.8917(3) 0.4791(8)
C22_4 C 0.0384(3) 0.7932(2) 0.3507(6)
C23_4 C 0.0476(3) 0.7691(3) 0.4397(6)
H9_4 H 0.0393 0.7421 0.4328
C24_4 C 0.0693(3) 0.7864(3) 0.5394(6)
C25_4 C 0.0791(4) 0.8263(3) 0.5501(8)
H10_4 H 0.0923 0.8374 0.6170
C26_4 C 0.0696(5) 0.8515(3) 0.4607(7)
C27_4 C 0.0502(4) 0.8347(3) 0.3619(7)
H11_4 H 0.0448 0.8505 0.3026
O19_4 O 0.0141(5) 0.7470(3) 0.7664(9)
H25_3 H 0.0596781 0.988717 0.688537
O9_4 O 0.9859(5) 0.7470(3) 0.2336(9)
N13_4 N 0.9146(3) 0.91858(19) 0.5989(6)
N16_4 N 0.8649(5) 0.8978(4) 0.4345(11)
O18_2 O 0.9764(4) 0.7934(4) 0.8260(7)
O20_4 O 0.9261(2) 0.72483(18) 0.3686(4)
O21_4 O 0.8963(3) 0.77956(19) 0.2751(5)
C28_4 C 0.9839(4) 0.7757(3) 0.7554(7)
C29_4 C 0.9173(4) 0.7620(3) 0.3639(7)
C30_4 C 0.9114(5) 0.8917(3) 0.5209(8)
C31_4 C 0.9616(3) 0.7932(2) 0.6493(6)
C32_4 C 0.9524(3) 0.7691(3) 0.5603(6)
H14_4 H 0.9607 0.7421 0.5672
C33_4 C 0.9307(3) 0.7864(3) 0.4606(6)
C34_4 C 0.9209(4) 0.8263(3) 0.4499(8)
H15_4 H 0.9077 0.8374 0.3830
C35_4 C 0.9304(5) 0.8515(3) 0.5393(7)
C36_4 C 0.9498(4) 0.8347(3) 0.6381(7)
H16_4 H 0.9552 0.8505 0.6974
H26_4 H 0.909159 0.0278264 0.252545
H25_4 H 0.940322 0.988717 0.311463
loop_
_geom_bond_atom_site_label_1
_geom_bond_atom_site_label_2
_geom_bond_site_symmetry_1
_geom_bond_site_symmetry_2
Gd7 O23 1_555 1_555
Gd11 O2 1_555 1_555
O31 Gd1 1_555 1_555
O40 Gd1 1_555 1_555
O42 Gd1 1_555 1_555
O26 Gd7 1_555 1_555
Gd1_2 O8 1_555 1_555
Gd7 O11 1_555 1_555
Co1 N2 1_555 1_555
Co2 N3 1_555 1_555
N1 N2 1_555 1_555
N2 N3 1_555 1_555
N3 N4 1_555 1_555
N4 C3 1_555 1_555
N5 N6 1_555 1_555
N6 Co2 1_555 1_555
N7 N6 1_555 1_555
N8 N7 1_555 1_555
N9 N10 1_555 1_555
N10 Co1 1_555 1_555
N11 N10 1_555 1_555
N12 N11 1_555 1_555
O1 C1 1_555 1_555
O3 C2 1_555 1_555
O4 C2 1_555 1_555
O6 C10 1_555 1_555
O8 C19 1_555 1_555
O9 C19 1_555 1_555
O11 C20 1_555 1_555
O12 Gd7 1_555 1_555
O13 Co1 1_555 1_555
O14 Co1 1_555 1_555
H1 O14 1_555 1_555
O15 Co2 1_555 1_555
H2 O15 1_555 1_555
C1 C4 1_555 1_555
C2 C6 1_555 1_555
C3 N1 1_555 1_555
C4 C5 1_555 1_555
C5 H3 1_555 1_555
C6 C5 1_555 1_555
C7 C6 1_555 1_555
H4 C7 1_555 1_555
C8 C3 1_555 1_555
C9 C4 1_555 1_555
H5 C9 1_555 1_555
C10 C13 1_555 1_555
C12 N5 1_555 1_555
C13 C14 1_555 1_555
C14 H6 1_555 1_555
C15 C14 1_555 1_555
C16 C15 1_555 1_555
H7 C16 1_555 1_555
C17 C12 1_555 1_555
C18 C13 1_555 1_555
H8 C18 1_555 1_555
C19 C22 1_555 1_555
C20 O12 1_555 1_555
C21 N9 1_555 1_555
C22 C23 1_555 1_555
C23 H9 1_555 1_555
C24 C20 1_555 1_555
C25 C24 1_555 1_555
H10 C25 1_555 1_555
C26 C21 1_555 1_555
C27 C22 1_555 1_555
H11 C27 1_555 1_555
Co3 N11 1_555 1_555
O16 Co3 1_555 1_555
O17 Co3 1_555 1_555
H12 O14 1_555 1_555
H13 O15 1_555 1_555
Gd3 O9 1_555 1_555
N13 N14 1_555 1_555
N14 N15 1_555 1_555
N15 N16 1_555 1_555
N16 C30 1_555 1_555
O42 C28 1_555 1_555
O19 Gd7 1_555 1_555
O20 Gd3 1_555 1_555
O21 Gd3 1_555 1_555
C28 O19 1_555 1_555
C29 O20 1_555 1_555
C30 N13 1_555 1_555
C31 C28 1_555 1_555
C32 C31 1_555 1_555
H14 C32 1_555 1_555
C33 C29 1_555 1_555
C34 C33 1_555 1_555
H15 C34 1_555 1_555
C35 C30 1_555 1_555
C36 C31 1_555 1_555
H16 C36 1_555 1_555
N17 N18 1_555 1_555
N18 Co1 1_555 1_555
N19 Co2 1_555 1_555
N20 N19 1_555 1_555
O22 Gd1_2 1_555 1_555
O24 C38 1_555 1_555
O25 C38 1_555 1_555
C37 O22 1_555 1_555
C38 C42 1_555 1_555
C39 N17 1_555 1_555
C40 C37 1_555 1_555
C41 C40 1_555 1_555
H17 C41 1_555 1_555
C42 C41 1_555 1_555
C43 C42 1_555 1_555
H18 C43 1_555 1_555
C44 C39 1_555 1_555
C45 C40 1_555 1_555
H19 C45 1_555 1_555
N21 N22 1_555 1_555
N22 N23 1_555 1_555
N23 N24 1_555 1_555
N24 C48 1_555 1_555
O27 Gd1_2 1_555 1_555
O28 Gd3 1_555 1_555
O29 C47 1_555 1_555
C46 O27 1_555 1_555
C47 O28 1_555 1_555
C48 N21 1_555 1_555
C49 C46 1_555 1_555
C50 C49 1_555 1_555
H20 C50 1_555 1_555
C51 C47 1_555 1_555
C52 C51 1_555 1_555
H21 C52 1_555 1_555
C53 C48 1_555 1_555
C54 C49 1_555 1_555
H22 C54 1_555 1_555
O30 Co3 1_555 1_555
Gd5 O6 1_555 1_555
Gd6_2 O1 1_555 1_555
Gd10 O3 1_555 1_555
Gd12 O24 1_555 1_555
Co4 N14 1_555 1_555
Co5_2 N22 1_555 1_555
N25 Co2 1_555 1_555
N26 Co1 1_555 1_555
N27 Co3 1_555 1_555
O32 Gd3 1_555 1_555
O34 Gd3 1_555 1_555
O35 Gd7 1_555 1_555
O36 Gd3 1_555 1_555
O37 Gd7 1_555 1_555
O38 Gd3 1_555 1_555
O41 Gd7 1_555 1_555
Co6 N15 1_555 1_555
Co2 O13 1_555 1_555
N8 C12 1_555 1_555
N12 C21 1_555 1_555
O4 Gd10 1_555 1_555
O13 Co3 1_555 1_555
C7 C8 1_555 1_555
C8 C9 1_555 1_555
C16 C17 1_555 1_555
C17 C18 1_555 1_555
C23 C24 1_555 1_555
C25 C26 1_555 1_555
C26 C27 1_555 1_555
O21 C29 1_555 1_555
C32 C33 1_555 1_555
C34 C35 1_555 1_555
C35 C36 1_555 1_555
N18 N19 1_555 1_555
N20 C39 1_555 1_555
O25 Gd12 1_555 1_555
C43 C44 1_555 1_555
C44 C45 1_555 1_555
C50 C51 1_555 1_555
C52 C53 1_555 1_555
C53 C54 1_555 1_555
N26 N27 1_555 1_555
Gd10 O5 1_555 1_555
O7 C11 1_555 1_555
Gd8 O7 1_555 1_555
O7_2 C11_2 1_555 1_555
Gd10 O7_2 1_555 1_555
Gd8 O5_2 1_555 1_555
Co4 N2_2 1_555 1_555
Co2_2 N3_2 1_555 1_555
N1_2 N2_2 1_555 1_555
N2_2 N3_2 1_555 1_555
N3_2 N4_2 1_555 1_555
N4_2 C3_2 1_555 1_555
N5_2 N6_2 1_555 1_555
N6_2 Co2_2 1_555 1_555
N7_2 N6_2 1_555 1_555
N8_2 N7_2 1_555 1_555
O1_2 C1_2 1_555 1_555
O3_2 C2_2 1_555 1_555
O4_2 C2_2 1_555 1_555
O6_2 C10_2 1_555 1_555
O13_2 Co4 1_555 1_555
O14_2 Co4 1_555 1_555
H1_2 O14_2 1_555 1_555
O15_2 Co2_2 1_555 1_555
H2_2 O15_2 1_555 1_555
C1_2 C4_2 1_555 1_555
C2_2 C6_2 1_555 1_555
C3_2 N1_2 1_555 1_555
C4_2 C5_2 1_555 1_555
C5_2 H3_2 1_555 1_555
C6_2 C5_2 1_555 1_555
C7_2 C6_2 1_555 1_555
H4_2 C7_2 1_555 1_555
C8_2 C3_2 1_555 1_555
C9_2 C4_2 1_555 1_555
H5_2 C9_2 1_555 1_555
C10_2 C13_2 1_555 1_555
C12_2 N5_2 1_555 1_555
C13_2 C14_2 1_555 1_555
C14_2 H6_2 1_555 1_555
C15_2 C14_2 1_555 1_555
C16_2 C15_2 1_555 1_555
H7_2 C16_2 1_555 1_555
C17_2 C12_2 1_555 1_555
C18_2 C13_2 1_555 1_555
H8_2 C18_2 1_555 1_555
O16_2 Co6 1_555 1_555
O17_2 Co6 1_555 1_555
H12_2 O14_2 1_555 1_555
H13_2 O15_2 1_555 1_555
N17_2 N18_2 1_555 1_555
N18_2 Co4 1_555 1_555
N19_2 Co2_2 1_555 1_555
N20_2 N19_2 1_555 1_555
O24_2 C38_2 1_555 1_555
O25_2 C38_2 1_555 1_555
C37_2 O31 1_555 1_555
C38_2 C42_2 1_555 1_555
C39_2 N17_2 1_555 1_555
C40_2 C37_2 1_555 1_555
C41_2 C40_2 1_555 1_555
H17_2 C41_2 1_555 1_555
C42_2 C41_2 1_555 1_555
C43_2 C42_2 1_555 1_555
H18_2 C43_2 1_555 1_555
C44_2 C39_2 1_555 1_555
C45_2 C40_2 1_555 1_555
H19_2 C45_2 1_555 1_555
N21_2 N22_2 1_555 1_555
N22_2 N23_2 1_555 1_555
N23_2 N24_2 1_555 1_555
N24_2 C48_2 1_555 1_555
O29_2 C47_2 1_555 1_555
C46_2 O40 1_555 1_555
C47_2 O41 1_555 1_555
C48_2 N21_2 1_555 1_555
C49_2 C46_2 1_555 1_555
C50_2 C49_2 1_555 1_555
H20_2 C50_2 1_555 1_555
C51_2 C47_2 1_555 1_555
C52_2 C51_2 1_555 1_555
H21_2 C52_2 1_555 1_555
C53_2 C48_2 1_555 1_555
C54_2 C49_2 1_555 1_555
H22_2 C54_2 1_555 1_555
O30_2 Co6 1_555 1_555
Gd5_4 O6_2 1_555 1_555
Gd6 O1_2 1_555 1_555
Gd8 O3_2 1_555 1_555
Gd12_2 O24_2 1_555 1_555
Co5_4 N22_2 1_555 1_555
N25_2 Co2_2 1_555 1_555
N26_2 Co4 1_555 1_555
N27_2 Co6 1_555 1_555
Co2_2 O13_2 1_555 1_555
N8_2 C12_2 1_555 1_555
O4_2 Gd8 1_555 1_555
O13_2 Co6 1_555 1_555
C7_2 C8_2 1_555 1_555
C8_2 C9_2 1_555 1_555
C16_2 C17_2 1_555 1_555
C17_2 C18_2 1_555 1_555
N18_2 N19_2 1_555 1_555
N20_2 C39_2 1_555 1_555
O25_2 Gd12_2 1_555 1_555
C43_2 C44_2 1_555 1_555
C44_2 C45_2 1_555 1_555
C50_2 C51_2 1_555 1_555
C52_2 C53_2 1_555 1_555
C53_2 C54_2 1_555 1_555
N26_2 N27_2 1_555 1_555
Gd11_2 O2_2 1_555 1_555
O31_2 Gd5 1_555 1_555
O42_2 Gd5 1_555 1_555
Gd10 O9_2 1_555 1_555
N13_2 N14_2 1_555 1_555
N14_2 N15_2 1_555 1_555
N15_2 N16_2 1_555 1_555
N16_2 C30_2 1_555 1_555
O42_2 C28_2 1_555 1_555
O20_2 Gd10 1_555 1_555
O21_2 Gd10 1_555 1_555
C29_2 O20_2 1_555 1_555
C30_2 N13_2 1_555 1_555
C31_2 C28_2 1_555 1_555
C32_2 C31_2 1_555 1_555
H14_2 C32_2 1_555 1_555
C33_2 C29_2 1_555 1_555
C34_2 C33_2 1_555 1_555
H15_2 C34_2 1_555 1_555
C35_2 C30_2 1_555 1_555
C36_2 C31_2 1_555 1_555
H16_2 C36_2 1_555 1_555
Co4_2 N14_2 1_555 1_555
O32_2 Gd10 1_555 1_555
Co6_2 N15_2 1_555 1_555
O21_2 C29_2 1_555 1_555
C32_2 C33_2 1_555 1_555
C34_2 C35_2 1_555 1_555
C35_2 C36_2 1_555 1_555
Gd8 O23_2 1_555 1_555
Gd5_4 O8_2 1_555 1_555
Gd8 O11_2 1_555 1_555
N9_2 N10_2 1_555 1_555
N10_2 Co1_2 1_555 1_555
N11_2 N10_2 1_555 1_555
N12_2 N11_2 1_555 1_555
O8_2 C19_2 1_555 1_555
O11_2 C20_2 1_555 1_555
O12_2 Gd8 1_555 1_555
O13_3 Co1_2 1_555 1_555
O14_3 Co1_2 1_555 1_555
O15_3 Co5_3 1_555 1_555
H2_3 O15_3 1_555 1_555
C19_2 C22_2 1_555 1_555
C20_2 O12_2 1_555 1_555
C21_2 N9_2 1_555 1_555
C22_2 C23_2 1_555 1_555
C23_2 H9_2 1_555 1_555
C24_2 C20_2 1_555 1_555
C25_2 C24_2 1_555 1_555
H10_2 C25_2 1_555 1_555
C26_2 C21_2 1_555 1_555
C27_2 C22_2 1_555 1_555
H11_2 C27_2 1_555 1_555
Co3_2 N11_2 1_555 1_555
O17_3 Co3_2 1_555 1_555
H12_3 O14_3 1_555 1_555
O19_2 Gd8 1_555 1_555
N17_3 N18_3 1_555 1_555
N18_3 Co1_2 1_555 1_555
N19_3 Co5_3 1_555 1_555
N20_3 N19_3 1_555 1_555
O22_2 Gd5_4 1_555 1_555
O24_3 C38_3 1_555 1_555
O25_3 C38_3 1_555 1_555
C37_3 O22_2 1_555 1_555
C38_3 C42_3 1_555 1_555
C39_3 N17_3 1_555 1_555
C40_3 C37_3 1_555 1_555
C41_3 C40_3 1_555 1_555
H17_3 C41_3 1_555 1_555
C42_3 C41_3 1_555 1_555
C43_3 C42_3 1_555 1_555
H18_3 C43_3 1_555 1_555
C44_3 C39_3 1_555 1_555
C45_3 C40_3 1_555 1_555
H19_3 C45_3 1_555 1_555
O30_3 Co3_2 1_555 1_555
Gd11_2 O24_3 1_555 1_555
N25_3 Co5_3 1_555 1_555
Co5_3 O13_3 1_555 1_555
N12_2 C21_2 1_555 1_555
O13_3 Co3_2 1_555 1_555
C23_2 C24_2 1_555 1_555
C25_2 C26_2 1_555 1_555
C26_2 C27_2 1_555 1_555
N18_3 N19_3 1_555 1_555
N20_3 C39_3 1_555 1_555
O25_3 Gd11_2 1_555 1_555
C43_3 C44_3 1_555 1_555
C44_3 C45_3 1_555 1_555
O17_3 H25 1_555 1_555
Gd12_2 O2_3 1_555 1_555
Co1_3 N2_3 1_555 1_555
Co5_4 N3_3 1_555 1_555
N1_3 N2_3 1_555 1_555
N2_3 N3_3 1_555 1_555
N3_3 N4_3 1_555 1_555
N4_3 C3_3 1_555 1_555
O1_3 C1_3 1_555 1_555
O34 C2_3 1_555 1_555
O36 C2_3 1_555 1_555
O13_4 Co1_3 1_555 1_555
O14_4 Co1_3 1_555 1_555
H1_3 O14_4 1_555 1_555
O15_4 Co5_4 1_555 1_555
C1_3 C4_3 1_555 1_555
C2_3 C6_3 1_555 1_555
C3_3 N1_3 1_555 1_555
C4_3 C5_3 1_555 1_555
C5_3 H3_3 1_555 1_555
C6_3 C5_3 1_555 1_555
C7_3 C6_3 1_555 1_555
H4_3 C7_3 1_555 1_555
C8_3 C3_3 1_555 1_555
C9_3 C4_3 1_555 1_555
H5_3 C9_3 1_555 1_555
O16_3 Co3_3 1_555 1_555
O17_4 Co3_3 1_555 1_555
H13_3 O15_4 1_555 1_555
Gd6_6 O1_3 1_555 1_555
N26_3 Co1_3 1_555 1_555
N27_3 Co3_3 1_555 1_555
Co5_4 O13_4 1_555 1_555
O13_4 Co3_3 1_555 1_555
C7_3 C8_3 1_555 1_555
C8_3 C9_3 1_555 1_555
N26_3 N27_3 1_555 1_555
O17_4 H26 1_555 1_555
O13_5 Co4_2 1_555 1_555
O14_5 Co4_2 1_555 1_555
O15_5 Co5 1_555 1_555
H2_4 O15_5 1_555 1_555
O17_5 Co6_2 1_555 1_555
H12_4 O14_5 1_555 1_555
N17_4 N18_4 1_555 1_555
N18_4 Co4_2 1_555 1_555
N19_4 Co5 1_555 1_555
N20_4 N19_4 1_555 1_555
O24_4 C38_4 1_555 1_555
O25_4 C38_4 1_555 1_555
C37_4 O31_2 1_555 1_555
C38_4 C42_4 1_555 1_555
C39_4 N17_4 1_555 1_555
C40_4 C37_4 1_555 1_555
C41_4 C40_4 1_555 1_555
H17_4 C41_4 1_555 1_555
C42_4 C41_4 1_555 1_555
C43_4 C42_4 1_555 1_555
H18_4 C43_4 1_555 1_555
C44_4 C39_4 1_555 1_555
C45_4 C40_4 1_555 1_555
H19_4 C45_4 1_555 1_555
O30_4 Co6_2 1_555 1_555
Gd11 O24_4 1_555 1_555
N25_4 Co5 1_555 1_555
Co5 O13_5 1_555 1_555
O13_5 Co6_2 1_555 1_555
N18_4 N19_4 1_555 1_555
N20_4 C39_4 1_555 1_555
O25_4 Gd11 1_555 1_555
C43_4 C44_4 1_555 1_555
C44_4 C45_4 1_555 1_555
O17_5 H25_2 1_555 1_555
Co4_3 N2_4 1_555 1_555
Co5_2 N3_4 1_555 1_555
N1_4 N2_4 1_555 1_555
N2_4 N3_4 1_555 1_555
N3_4 N4_4 1_555 1_555
N4_4 C3_4 1_555 1_555
O1_4 C1_4 1_555 1_555
O35 C2_4 1_555 1_555
O37 C2_4 1_555 1_555
O13_6 Co4_3 1_555 1_555
O14_6 Co4_3 1_555 1_555
H1_4 O14_6 1_555 1_555
O15_6 Co5_2 1_555 1_555
C1_4 C4_4 1_555 1_555
C2_4 C6_4 1_555 1_555
C3_4 N1_4 1_555 1_555
C4_4 C5_4 1_555 1_555
C5_4 H3_4 1_555 1_555
C6_4 C5_4 1_555 1_555
C7_4 C6_4 1_555 1_555
H4_4 C7_4 1_555 1_555
C8_4 C3_4 1_555 1_555
C9_4 C4_4 1_555 1_555
H5_4 C9_4 1_555 1_555
O16_4 Co6_3 1_555 1_555
O17_6 Co6_3 1_555 1_555
H13_4 O15_6 1_555 1_555
Gd6_3 O1_4 1_555 1_555
N26_4 Co4_3 1_555 1_555
N27_4 Co6_3 1_555 1_555
Co5_2 O13_6 1_555 1_555
O13_6 Co6_3 1_555 1_555
C7_4 C8_4 1_555 1_555
C8_4 C9_4 1_555 1_555
N26_4 N27_4 1_555 1_555
O17_6 H26_2 1_555 1_555
Gd12 O2_4 1_555 1_555
O7_3 C11_3 1_555 1_555
Gd12 O7_3 1_555 1_555
Gd12_2 O5_3 1_555 1_555
Gd6 O8_3 1_555 1_555
Gd11_2 O11_3 1_555 1_555
N5_3 N25_2 1_555 1_555
N7_3 N25_2 1_555 1_555
N8_3 N7_3 1_555 1_555
N9_3 N26_2 1_555 1_555
N12_3 N27_2 1_555 1_555
O6_3 C10_3 1_555 1_555
O8_3 C19_3 1_555 1_555
O9_3 C19_3 1_555 1_555
O11_3 C20_3 1_555 1_555
O12_3 Gd11_2 1_555 1_555
C10_3 C13_3 1_555 1_555
C12_3 N5_3 1_555 1_555
C13_3 C14_3 1_555 1_555
C14_3 H6_3 1_555 1_555
C15_3 C14_3 1_555 1_555
C16_3 C15_3 1_555 1_555
H7_3 C16_3 1_555 1_555
C17_3 C12_3 1_555 1_555
C18_3 C13_3 1_555 1_555
H8_3 C18_3 1_555 1_555
C19_3 C22_3 1_555 1_555
C20_3 O12_3 1_555 1_555
C21_3 N9_3 1_555 1_555
C22_3 C23_3 1_555 1_555
C23_3 H9_3 1_555 1_555
C24_3 C20_3 1_555 1_555
C25_3 C24_3 1_555 1_555
H10_3 C25_3 1_555 1_555
C26_3 C21_3 1_555 1_555
C27_3 C22_3 1_555 1_555
H11_3 C27_3 1_555 1_555
Gd11 O9_3 1_555 1_555
N13_3 N26 1_555 1_555
N27 N16_3 1_555 1_555
N16_3 C30_3 1_555 1_555
O18 C28_3 1_555 1_555
O19_3 Gd11_2 1_555 1_555
O20_3 Gd11 1_555 1_555
O21_3 Gd11 1_555 1_555
C28_3 O19_3 1_555 1_555
C29_3 O20_3 1_555 1_555
C30_3 N13_3 1_555 1_555
C31_3 C28_3 1_555 1_555
C32_3 C31_3 1_555 1_555
H14_3 C32_3 1_555 1_555
C33_3 C29_3 1_555 1_555
C34_3 C33_3 1_555 1_555
H15_3 C34_3 1_555 1_555
C35_3 C30_3 1_555 1_555
C36_3 C31_3 1_555 1_555
H16_3 C36_3 1_555 1_555
N21_3 N25_3 1_555 1_555
N25_3 N23_3 1_555 1_555
N23_3 N24_3 1_555 1_555
N24_3 C48_3 1_555 1_555
O27_2 Gd6 1_555 1_555
O28_2 Gd11 1_555 1_555
O29_3 C47_3 1_555 1_555
C46_3 O27_2 1_555 1_555
C47_3 O28_2 1_555 1_555
C48_3 N21_3 1_555 1_555
C49_3 C46_3 1_555 1_555
C50_3 C49_3 1_555 1_555
H20_3 C50_3 1_555 1_555
C51_3 C47_3 1_555 1_555
C52_3 C51_3 1_555 1_555
H21_3 C52_3 1_555 1_555
C53_3 C48_3 1_555 1_555
C54_3 C49_3 1_555 1_555
H22_3 C54_3 1_555 1_555
Gd6_2 O18 1_555 1_555
Gd6_6 O6_3 1_555 1_555
O38_2 Gd11 1_555 1_555
O39 Gd11_2 1_555 1_555
O41_2 Gd11_2 1_555 1_555
N8_3 C12_3 1_555 1_555
N12_3 C21_3 1_555 1_555
C16_3 C17_3 1_555 1_555
C17_3 C18_3 1_555 1_555
C23_3 C24_3 1_555 1_555
C25_3 C26_3 1_555 1_555
C26_3 C27_3 1_555 1_555
O21_3 C29_3 1_555 1_555
C32_3 C33_3 1_555 1_555
C34_3 C35_3 1_555 1_555
C35_3 C36_3 1_555 1_555
C50_3 C51_3 1_555 1_555
C52_3 C53_3 1_555 1_555
C53_3 C54_3 1_555 1_555
O40_2 Gd6_2 1_555 1_555
N5_4 N25 1_555 1_555
N7_4 N25 1_555 1_555
N8_4 N7_4 1_555 1_555
O6_4 C10_4 1_555 1_555
C10_4 C13_4 1_555 1_555
C12_4 N5_4 1_555 1_555
C13_4 C14_4 1_555 1_555
C14_4 H6_4 1_555 1_555
C15_4 C14_4 1_555 1_555
C16_4 C15_4 1_555 1_555
H7_4 C16_4 1_555 1_555
C17_4 C12_4 1_555 1_555
C18_4 C13_4 1_555 1_555
H8_4 C18_4 1_555 1_555
N21_4 N25_4 1_555 1_555
N25_4 N23_4 1_555 1_555
N23_4 N24_4 1_555 1_555
N24_4 C48_4 1_555 1_555
O29_4 C47_4 1_555 1_555
C46_4 O40_2 1_555 1_555
C47_4 O41_2 1_555 1_555
C48_4 N21_4 1_555 1_555
C49_4 C46_4 1_555 1_555
C50_4 C49_4 1_555 1_555
H20_4 C50_4 1_555 1_555
C51_4 C47_4 1_555 1_555
C52_4 C51_4 1_555 1_555
H21_4 C52_4 1_555 1_555
C53_4 C48_4 1_555 1_555
C54_4 C49_4 1_555 1_555
H22_4 C54_4 1_555 1_555
Gd6_3 O6_4 1_555 1_555
N8_4 C12_4 1_555 1_555
C16_4 C17_4 1_555 1_555
C17_4 C18_4 1_555 1_555
C50_4 C51_4 1_555 1_555
C52_4 C53_4 1_555 1_555
C53_4 C54_4 1_555 1_555
Gd12 O5_4 1_555 1_555
O7_4 C11_4 1_555 1_555
Gd12_2 O7_4 1_555 1_555
O17_5 H26_3 1_555 1_555
Gd6_3 O8_4 1_555 1_555
Gd12 O11_4 1_555 1_555
N9_4 N26_4 1_555 1_555
N12_4 N27_4 1_555 1_555
O8_4 C19_4 1_555 1_555
O11_4 C20_4 1_555 1_555
O12_4 Gd12 1_555 1_555
C19_4 C22_4 1_555 1_555
C20_4 O12_4 1_555 1_555
C21_4 N9_4 1_555 1_555
C22_4 C23_4 1_555 1_555
C23_4 H9_4 1_555 1_555
C24_4 C20_4 1_555 1_555
C25_4 C24_4 1_555 1_555
H10_4 C25_4 1_555 1_555
C26_4 C21_4 1_555 1_555
C27_4 C22_4 1_555 1_555
H11_4 C27_4 1_555 1_555
O19_4 Gd12 1_555 1_555
N12_4 C21_4 1_555 1_555
C23_4 C24_4 1_555 1_555
C25_4 C26_4 1_555 1_555
C26_4 C27_4 1_555 1_555
O17_6 H25_3 1_555 1_555
Gd12_2 O9_4 1_555 1_555
N13_4 N26_3 1_555 1_555
N27_3 N16_4 1_555 1_555
N16_4 C30_4 1_555 1_555
O18_2 C28_4 1_555 1_555
O20_4 Gd12_2 1_555 1_555
O21_4 Gd12_2 1_555 1_555
C29_4 O20_4 1_555 1_555
C30_4 N13_4 1_555 1_555
C31_4 C28_4 1_555 1_555
C32_4 C31_4 1_555 1_555
H14_4 C32_4 1_555 1_555
C33_4 C29_4 1_555 1_555
C34_4 C33_4 1_555 1_555
H15_4 C34_4 1_555 1_555
C35_4 C30_4 1_555 1_555
C36_4 C31_4 1_555 1_555
H16_4 C36_4 1_555 1_555
Gd6_6 O18_2 1_555 1_555
O21_4 C29_4 1_555 1_555
C32_4 C33_4 1_555 1_555
C34_4 C35_4 1_555 1_555
C35_4 C36_4 1_555 1_555
O17_3 H26_4 1_555 1_555
O17_4 H25_4 1_555 1_555

#END
