
###############################################################################
#
# This file contains modified crystal structure data generated from the
# MOF subset of the Cambridge Structural Database (CSD) v543 
# hosted by the Cambridge Crystallographic Data Centre (CCDC).
#
# This work is licensed under the Creative Commons
# Attribution-NonCommercial-ShareAlike 4.0 International License.
# To view a copy of this license, visit
# http://creativecommons.org/licenses/by-nc-sa/4.0/
# or send a letter to
# Creative Commons, PO Box 1866, Mountain View, CA 94042, USA.
#
# CIF created using the CSD Python API on 29 September 2022
# The structure has been converted into the P1 space group
# The structure has a 3D framework
# The original CSD entry ZAHBAP is in the monoclinic crystal system
# The framework has been calculated to contain at least 10.0% void space
# The void calculation uses a probe of radius 1.32A, grid spacing 0.4
# The framework is charged, counterions have been retained in the structure
# H atom positions have been added when not included in the experimental data
# Generated hydrogen atom positions removed from atoms on special positions
#
###############################################################################

data_ZAHBAP
_chemical_formula_moiety         '(C216 H136 Co18 Eu16 N96 O112 22-)n'
_symmetry_cell_setting           triclinic
_symmetry_space_group_name_H-M   'P 1'
_symmetry_Int_Tables_number      1
_space_group_name_Hall           'P 1'
loop_
_symmetry_equiv_pos_site_id
_symmetry_equiv_pos_as_xyz
1 x,y,z
_cell_length_a                   28.150(3)
_cell_length_b                   33.160(4)
_cell_length_c                   13.6800(14)
_cell_angle_alpha                90
_cell_angle_beta                 109.960(4)
_cell_angle_gamma                90
_cell_volume                     12002.6
loop_
_atom_site_label
_atom_site_type_symbol
_atom_site_fract_x
_atom_site_fract_y
_atom_site_fract_z
Co5 Co 0.26001(5) 0.0000 0.48766(10)
Eu1 Eu 0.5000 0.72179(2) 0.0000
O2 O 0.37518(18) 0.27704(12) 0.0578(4)
O23 O 0.37518(18) 0.72296(12) 0.0578(4)
O26 O 0.3792(2) 0.81248(15) 0.0054(4)
Eu6 Eu 0.5000 0.27821(2) 0.0000
Eu7 Eu 0.40575(2) 0.77779(2) 0.17089(2)
Eu11 Eu 0.40575(2) 0.22221(2) 0.17089(2)
O31 O 0.5792(2) 0.69320(15) 0.0277(5)
O40 O 0.55469(18) 0.77832(12) 0.0005(4)
O43 O 0.5196(4) 0.7066(3) 0.1719(7)
Eu1_2 Eu 0.5000 0.72179(2) 1.0000
Co1 Co 0.36643(5) 0.5000 0.61261(11)
Co2 Co 0.23999(5) 0.5000 0.51234(10)
N1 N 0.3412(2) 0.42507(15) 0.7361(4)
N2 N 0.3271(2) 0.45527(14) 0.6679(4)
N3 N 0.2772(2) 0.45548(15) 0.6251(4)
N4 N 0.2563(2) 0.42497(15) 0.6644(5)
N5 N 0.1639(2) 0.43625(16) 0.3736(5)
N6 N 0.2085(3) 0.45318(19) 0.4031(5)
N7 N 0.2361(4) 0.4383(3) 0.3507(8)
N8 N 0.2063(4) 0.4082(3) 0.2894(7)
N9 N 0.4179(3) 0.58160(18) 0.5995(5)
N10 N 0.4060(6) 0.5428(3) 0.5684(9)
N11 N 0.4071(6) 0.5448(3) 0.4681(10)
N12 N 0.4180(6) 0.5831(3) 0.4422(10)
O1 O 0.4208(2) 0.30680(15) 0.9723(5)
O3 O 0.18765(19) 0.27370(13) 0.8762(4)
O4 O 0.1527(2) 0.32772(14) 0.7927(4)
O6 O 0.05469(18) 0.27832(12) 0.0005(4)
O9 O 0.4804(4) 0.7066(3) 0.8281(7)
O10 O 0.5118(4) 0.7541(3) 0.7680(8)
O11 O 0.4289(2) 0.77619(16) 0.3703(4)
O12 O 0.3979(3) 0.72115(18) 0.2771(4)
O13 O 0.3054(4) 0.5000 0.4701(7)
O14 O 0.4266(3) 0.5000 0.7510(8)
H1 H 0.4234 0.4806 0.7885
O15 O 0.1769(3) 0.5000 0.5560(7)
H2 H 0.1737 0.5210 0.5886
C1 C 0.3794(3) 0.29990(18) 0.9878(5)
C2 C 0.1923(3) 0.3075(2) 0.8378(6)
C3 C 0.2970(3) 0.40675(19) 0.7331(5)
C4 C 0.3343(3) 0.31957(19) 0.9189(6)
C5 C 0.2863(3) 0.3049(2) 0.9091(5)
H3 H 0.2840 0.2819 0.9462
C6 C 0.2415(3) 0.3233(2) 0.8460(6)
C7 C 0.2467(3) 0.3575(2) 0.7893(6)
H4 H 0.2177 0.3711 0.7488
C8 C 0.2933(3) 0.37169(19) 0.7919(6)
C9 C 0.3370(3) 0.35308(18) 0.8592(5)
H5 H 0.3685 0.3633 0.8642
C10 C 0.0853(3) 0.30555(19) 0.0353(5)
C12 C 0.1646(3) 0.4089(2) 0.3066(6)
C13 C 0.0840(2) 0.32971(17) 0.1243(5)
C14 C 0.0420(3) 0.33037(19) 0.1550(5)
H6 H 0.0152 0.3132 0.1221
C15 C 0.0382(3) 0.3557(2) 0.2335(6)
C16 C 0.0802(3) 0.3807(2) 0.2820(7)
H7 H 0.0792 0.3973 0.3361
C17 C 0.1215(3) 0.3818(2) 0.2540(6)
C18 C 0.1229(3) 0.3567(2) 0.1735(6)
H8 H 0.1508 0.3579 0.1517
C19 C 0.4835(3) 0.7245(2) 0.7578(7)
C20 C 0.4198(3) 0.7399(3) 0.3658(6)
C21 C 0.4121(5) 0.6085(3) 0.5196(7)
C22 C 0.4616(3) 0.7073(2) 0.6510(5)
C23 C 0.4536(3) 0.7316(2) 0.5638(6)
H9 H 0.4626 0.7587 0.5721
C24 C 0.4316(3) 0.7153(2) 0.4623(6)
C25 C 0.4221(4) 0.6736(3) 0.4534(6)
H10 H 0.4095 0.6619 0.3877
C26 C 0.4312(4) 0.6492(2) 0.5421(6)
C27 C 0.4509(3) 0.6667(2) 0.6398(6)
H11 H 0.4569 0.6507 0.6987
Co3 Co 0.3692(3) 0.5000 0.3795(5)
O16 O 0.4034(19) 0.5000 0.265(3)
O17 O 0.3261(12) 0.4561(8) 0.276(2)
H12 H 0.4234 0.5194 0.7885
H13 H 0.1737 0.4790 0.5886
Eu3 Eu 0.59425(2) 0.77779(2) 0.82911(2)
N13 N 0.5821(3) 0.58160(18) 0.4005(5)
N14 N 0.5940(6) 0.5428(3) 0.4316(9)
N15 N 0.5929(6) 0.5448(3) 0.5319(10)
N16 N 0.5820(6) 0.5831(3) 0.5578(10)
O19 O 0.4882(4) 0.7541(3) 0.2320(8)
O20 O 0.5711(2) 0.77619(16) 0.6297(4)
O21 O 0.6021(3) 0.72115(18) 0.7229(4)
C28 C 0.5165(3) 0.7245(2) 0.2422(7)
C29 C 0.5802(3) 0.7399(3) 0.6342(6)
C30 C 0.5879(5) 0.6085(3) 0.4804(7)
C31 C 0.5384(3) 0.7073(2) 0.3490(5)
C32 C 0.5464(3) 0.7316(2) 0.4362(6)
H14 H 0.5374 0.7587 0.4279
C33 C 0.5684(3) 0.7153(2) 0.5377(6)
C34 C 0.5779(4) 0.6736(3) 0.5466(6)
H15 H 0.5905 0.6619 0.6123
C35 C 0.5688(4) 0.6492(2) 0.4579(6)
C36 C 0.5491(3) 0.6667(2) 0.3602(6)
H16 H 0.5431 0.6507 0.3013
N17 N 0.3412(2) 0.57493(15) 0.7361(4)
N18 N 0.3271(2) 0.54473(14) 0.6679(4)
N19 N 0.2772(2) 0.54452(15) 0.6251(4)
N20 N 0.2563(2) 0.57503(15) 0.6644(5)
O22 O 0.4208(2) 0.69320(15) 0.9723(5)
O24 O 0.18765(19) 0.72630(13) 0.8762(4)
O25 O 0.1527(2) 0.67228(14) 0.7927(4)
C37 C 0.3794(3) 0.70010(18) 0.9878(5)
C38 C 0.1923(3) 0.6925(2) 0.8378(6)
C39 C 0.2970(3) 0.59325(19) 0.7331(5)
C40 C 0.3343(3) 0.68043(19) 0.9189(6)
C41 C 0.2863(3) 0.6951(2) 0.9091(5)
H17 H 0.2840 0.7181 0.9462
C42 C 0.2415(3) 0.6767(2) 0.8460(6)
C43 C 0.2467(3) 0.6425(2) 0.7893(6)
H18 H 0.2177 0.6289 0.7488
C44 C 0.2933(3) 0.62831(19) 0.7919(6)
C45 C 0.3370(3) 0.64692(18) 0.8592(5)
H19 H 0.3685 0.6367 0.8642
N21 N 0.3361(2) 0.93625(16) 0.6264(5)
N22 N 0.2915(3) 0.95318(19) 0.5969(5)
N23 N 0.2639(4) 0.9383(3) 0.6493(8)
N24 N 0.2937(4) 0.9082(3) 0.7106(7)
O27 O 0.44531(18) 0.77832(12) 0.9995(4)
O28 O 0.5434(2) 0.83421(15) 0.7816(5)
O29 O 0.5133(7) 0.8847(6) 0.6824(14)
C46 C 0.4147(3) 0.80555(19) 0.9647(5)
C47 C 0.5068(4) 0.8560(3) 0.7384(8)
C48 C 0.3354(3) 0.9089(2) 0.6934(6)
C49 C 0.4160(2) 0.82971(17) 0.8757(5)
C50 C 0.4580(3) 0.83037(19) 0.8450(5)
H20 H 0.4848 0.8132 0.8779
C51 C 0.4618(3) 0.8557(2) 0.7665(6)
C52 C 0.4198(3) 0.8807(2) 0.7180(7)
H21 H 0.4208 0.8973 0.6639
C53 C 0.3785(3) 0.8818(2) 0.7460(6)
C54 C 0.3771(3) 0.8567(2) 0.8265(6)
H22 H 0.3492 0.8579 0.8483
O30 O 0.3261(12) 0.5439(8) 0.276(2)
Eu5 Eu 0.0000 0.22179(2) 0.0000
Eu6_2 Eu 0.5000 0.27821(2) 1.0000
Eu10 Eu 0.09425(2) 0.27779(2) 0.82911(2)
Eu12 Eu 0.09425(2) 0.72221(2) 0.82911(2)
Co4 Co 0.63357(5) 0.5000 0.38739(11)
Co5_2 Co 0.26001(5) 1.0000 0.48766(10)
N25 N 0.2085(3) 0.54682(19) 0.4031(5)
N26 N 0.4060(6) 0.4572(3) 0.5684(9)
N27 N 0.4071(6) 0.4552(3) 0.4681(10)
O32 O 0.62482(18) 0.72296(12) 0.9422(4)
O34 O 0.68765(19) 0.77370(13) 0.8762(4)
O35 O 0.31235(19) 0.77370(13) 0.1238(4)
O36 O 0.6527(2) 0.82772(14) 0.7927(4)
O37 O 0.3473(2) 0.82772(14) 0.2073(4)
O38 O 0.6208(2) 0.81248(15) 0.9946(4)
O42 O 0.4566(2) 0.83421(15) 0.2184(5)
Co6 Co 0.6308(3) 0.5000 0.6205(5)
O5 O 0.1208(2) 0.31248(15) 0.9946(4)
Eu5_2 Eu 0.0000 0.22179(2) 1.0000
O7 O 0.9566(2) 0.33421(15) 0.2184(5)
O8 O 0.9867(7) 0.3847(6) 0.3176(14)
C11 C 0.9932(4) 0.3560(3) 0.2616(8)
Eu5_3 Eu 1.0000 0.22179(2) 0.0000
Eu8 Eu 0.90575(2) 0.27779(2) 0.17089(2)
Eu5_4 Eu 1.0000 0.22179(2) 1.0000
O7_2 O 0.0434(2) 0.33421(15) 0.7816(5)
O8_2 O 0.0133(7) 0.3847(6) 0.6824(14)
C11_2 C 0.0068(4) 0.3560(3) 0.7384(8)
Co5_3 Co 0.73999(5) 0.0000 0.51234(10)
O5_2 O 0.8792(2) 0.31248(15) 0.0054(4)
Co2_2 Co 0.76001(5) 0.5000 0.48766(10)
N1_2 N 0.6588(2) 0.42507(15) 0.2639(4)
N2_2 N 0.6729(2) 0.45527(14) 0.3321(4)
N3_2 N 0.7228(2) 0.45548(15) 0.3749(4)
N4_2 N 0.7437(2) 0.42497(15) 0.3356(5)
N5_2 N 0.8361(2) 0.43625(16) 0.6264(5)
N6_2 N 0.7915(3) 0.45318(19) 0.5969(5)
N7_2 N 0.7639(4) 0.4383(3) 0.6493(8)
N8_2 N 0.7937(4) 0.4082(3) 0.7106(7)
O1_2 O 0.5792(2) 0.30680(15) 0.0277(5)
O3_2 O 0.81235(19) 0.27370(13) 0.1238(4)
O4_2 O 0.8473(2) 0.32772(14) 0.2073(4)
O6_2 O 0.94531(18) 0.27832(12) 0.9995(4)
O13_2 O 0.6946(4) 0.5000 0.5299(7)
O14_2 O 0.5734(3) 0.5000 0.2490(8)
H1_2 H 0.5766 0.4806 0.2115
O15_2 O 0.8231(3) 0.5000 0.4440(7)
H2_2 H 0.8263 0.5210 0.4114
C1_2 C 0.6206(3) 0.29990(18) 0.0122(5)
C2_2 C 0.8077(3) 0.3075(2) 0.1622(6)
C3_2 C 0.7030(3) 0.40675(19) 0.2669(5)
C4_2 C 0.6657(3) 0.31957(19) 0.0811(6)
C5_2 C 0.7137(3) 0.3049(2) 0.0909(5)
H3_2 H 0.7160 0.2819 0.0538
C6_2 C 0.7585(3) 0.3233(2) 0.1540(6)
C7_2 C 0.7533(3) 0.3575(2) 0.2107(6)
H4_2 H 0.7823 0.3711 0.2512
C8_2 C 0.7067(3) 0.37169(19) 0.2081(6)
C9_2 C 0.6630(3) 0.35308(18) 0.1408(5)
H5_2 H 0.6315 0.3633 0.1358
C10_2 C 0.9147(3) 0.30555(19) 0.9647(5)
C12_2 C 0.8354(3) 0.4089(2) 0.6934(6)
C13_2 C 0.9160(2) 0.32971(17) 0.8757(5)
C14_2 C 0.9580(3) 0.33037(19) 0.8450(5)
H6_2 H 0.9848 0.3132 0.8779
C15_2 C 0.9618(3) 0.3557(2) 0.7665(6)
C16_2 C 0.9198(3) 0.3807(2) 0.7180(7)
H7_2 H 0.9208 0.3973 0.6639
C17_2 C 0.8785(3) 0.3818(2) 0.7460(6)
C18_2 C 0.8771(3) 0.3567(2) 0.8265(6)
H8_2 H 0.8492 0.3579 0.8483
O16_2 O 0.5966(19) 0.5000 0.735(3)
O17_2 O 0.6739(12) 0.4561(8) 0.724(2)
H12_2 H 0.5766 0.5194 0.2115
H13_2 H 0.8263 0.4790 0.4114
N17_2 N 0.6588(2) 0.57493(15) 0.2639(4)
N18_2 N 0.6729(2) 0.54473(14) 0.3321(4)
N19_2 N 0.7228(2) 0.54452(15) 0.3749(4)
N20_2 N 0.7437(2) 0.57503(15) 0.3356(5)
O24_2 O 0.81235(19) 0.72630(13) 0.1238(4)
O25_2 O 0.8473(2) 0.67228(14) 0.2073(4)
C37_2 C 0.6206(3) 0.70010(18) 0.0122(5)
C38_2 C 0.8077(3) 0.6925(2) 0.1622(6)
C39_2 C 0.7030(3) 0.59325(19) 0.2669(5)
C40_2 C 0.6657(3) 0.68043(19) 0.0811(6)
C41_2 C 0.7137(3) 0.6951(2) 0.0909(5)
H17_2 H 0.7160 0.7181 0.0538
C42_2 C 0.7585(3) 0.6767(2) 0.1540(6)
C43_2 C 0.7533(3) 0.6425(2) 0.2107(6)
H18_2 H 0.7823 0.6289 0.2512
C44_2 C 0.7067(3) 0.62831(19) 0.2081(6)
C45_2 C 0.6630(3) 0.64692(18) 0.1408(5)
H19_2 H 0.6315 0.6367 0.1358
N21_2 N 0.6639(2) 0.93625(16) 0.3736(5)
N22_2 N 0.7085(3) 0.95318(19) 0.4031(5)
N23_2 N 0.7361(4) 0.9383(3) 0.3507(8)
N24_2 N 0.7063(4) 0.9082(3) 0.2894(7)
O29_2 O 0.4867(7) 0.8847(6) 0.3176(14)
C46_2 C 0.5853(3) 0.80555(19) 0.0353(5)
C47_2 C 0.4932(4) 0.8560(3) 0.2616(8)
C48_2 C 0.6646(3) 0.9089(2) 0.3066(6)
C49_2 C 0.5840(2) 0.82971(17) 0.1243(5)
C50_2 C 0.5420(3) 0.83037(19) 0.1550(5)
H20_2 H 0.5152 0.8132 0.1221
C51_2 C 0.5382(3) 0.8557(2) 0.2335(6)
C52_2 C 0.5802(3) 0.8807(2) 0.2820(7)
H21_2 H 0.5792 0.8973 0.3361
C53_2 C 0.6215(3) 0.8818(2) 0.2540(6)
C54_2 C 0.6229(3) 0.8567(2) 0.1735(6)
H22_2 H 0.6508 0.8579 0.1517
O30_2 O 0.6739(12) 0.5439(8) 0.724(2)
Eu12_2 Eu 0.90575(2) 0.72221(2) 0.17089(2)
Co5_4 Co 0.73999(5) 1.0000 0.51234(10)
N25_2 N 0.7915(3) 0.54682(19) 0.5969(5)
N26_2 N 0.5940(6) 0.4572(3) 0.4316(9)
N27_2 N 0.5929(6) 0.4552(3) 0.5319(10)
O2_2 O 0.62482(18) 0.27704(12) 0.9422(4)
Eu11_2 Eu 0.59425(2) 0.22221(2) 0.82911(2)
O31_2 O 0.0792(2) 0.19320(15) 0.0277(5)
O43_2 O 0.0196(4) 0.2066(3) 0.1719(7)
O10_2 O 0.0118(4) 0.2541(3) 0.7680(8)
N13_2 N 0.0821(3) 0.08160(18) 0.4005(5)
N14_2 N 0.0940(6) 0.0428(3) 0.4316(9)
N15_2 N 0.0929(6) 0.0448(3) 0.5319(10)
N16_2 N 0.0820(6) 0.0831(3) 0.5578(10)
O20_2 O 0.0711(2) 0.27619(16) 0.6297(4)
O21_2 O 0.1021(3) 0.22115(18) 0.7229(4)
C28_2 C 0.0165(3) 0.2245(2) 0.2422(7)
C29_2 C 0.0802(3) 0.2399(3) 0.6342(6)
C30_2 C 0.0879(5) 0.1085(3) 0.4804(7)
C31_2 C 0.0384(3) 0.2073(2) 0.3490(5)
C32_2 C 0.0464(3) 0.2316(2) 0.4362(6)
H14_2 H 0.0374 0.2587 0.4279
C33_2 C 0.0684(3) 0.2153(2) 0.5377(6)
C34_2 C 0.0779(4) 0.1736(3) 0.5466(6)
H15_2 H 0.0905 0.1619 0.6123
C35_2 C 0.0688(4) 0.1492(2) 0.4579(6)
C36_2 C 0.0491(3) 0.1667(2) 0.3602(6)
H16_2 H 0.0431 0.1507 0.3013
Co4_2 Co 0.13357(5) 0.0000 0.38739(11)
O32_2 O 0.12482(18) 0.22296(12) 0.9422(4)
Co6_2 Co 0.1308(3) 0.0000 0.6205(5)
Eu6_3 Eu 0.0000 0.77821(2) 0.0000
Eu6_4 Eu 0.0000 0.77821(2) 1.0000
Co4_3 Co 0.13357(5) 1.0000 0.38739(11)
Co6_3 Co 0.1308(3) 1.0000 0.6205(5)
O23_2 O 0.87518(18) 0.22296(12) 0.0578(4)
Co1_2 Co 0.86643(5) -0.0000 0.61261(11)
N9_2 N 0.9179(3) 0.08160(18) 0.5995(5)
N10_2 N 0.9060(6) 0.0428(3) 0.5684(9)
N11_2 N 0.9071(6) 0.0448(3) 0.4681(10)
N12_2 N 0.9180(6) 0.0831(3) 0.4422(10)
O9_2 O 0.9804(4) 0.2066(3) 0.8281(7)
O11_2 O 0.9289(2) 0.27619(16) 0.3703(4)
O12_2 O 0.8979(3) 0.22115(18) 0.2771(4)
O13_3 O 0.8054(4) 0.0000 0.4701(7)
O14_3 O 0.9266(3) -0.0000 0.7510(8)
O15_3 O 0.6769(3) 0.0000 0.5560(7)
H2_3 H 0.6737 0.0210 0.5886
C19_2 C 0.9835(3) 0.2245(2) 0.7578(7)
C20_2 C 0.9198(3) 0.2399(3) 0.3658(6)
C21_2 C 0.9121(5) 0.1085(3) 0.5196(7)
C22_2 C 0.9616(3) 0.2073(2) 0.6510(5)
C23_2 C 0.9536(3) 0.2316(2) 0.5638(6)
H9_2 H 0.9626 0.2587 0.5721
C24_2 C 0.9316(3) 0.2153(2) 0.4623(6)
C25_2 C 0.9221(4) 0.1736(3) 0.4534(6)
H10_2 H 0.9095 0.1619 0.3877
C26_2 C 0.9312(4) 0.1492(2) 0.5421(6)
C27_2 C 0.9509(3) 0.1667(2) 0.6398(6)
H11_2 H 0.9569 0.1507 0.6987
Co3_2 Co 0.8692(3) -0.0000 0.3795(5)
O16_3 O 0.9034(19) 0.0000 0.265(3)
H12_3 H 0.9234 0.0194 0.7885
O19_2 O 0.9882(4) 0.2541(3) 0.2320(8)
N17_3 N 0.8412(2) 0.07493(15) 0.7361(4)
N18_3 N 0.8271(2) 0.04473(14) 0.6679(4)
N19_3 N 0.7772(2) 0.04452(15) 0.6251(4)
N20_3 N 0.7563(2) 0.07503(15) 0.6644(5)
O22_2 O 0.9208(2) 0.19320(15) 0.9723(5)
O24_3 O 0.68765(19) 0.22630(13) 0.8762(4)
O25_3 O 0.6527(2) 0.17228(14) 0.7927(4)
C37_3 C 0.8794(3) 0.20010(18) 0.9878(5)
C38_3 C 0.6923(3) 0.1925(2) 0.8378(6)
C39_3 C 0.7970(3) 0.09325(19) 0.7331(5)
C40_3 C 0.8343(3) 0.18043(19) 0.9189(6)
C41_3 C 0.7863(3) 0.1951(2) 0.9091(5)
H17_3 H 0.7840 0.2181 0.9462
C42_3 C 0.7415(3) 0.1767(2) 0.8460(6)
C43_3 C 0.7467(3) 0.1425(2) 0.7893(6)
H18_3 H 0.7177 0.1289 0.7488
C44_3 C 0.7933(3) 0.12831(19) 0.7919(6)
C45_3 C 0.8370(3) 0.14692(18) 0.8592(5)
H19_3 H 0.8685 0.1367 0.8642
O30_3 O 0.8261(12) 0.0439(8) 0.276(2)
N25_3 N 0.7085(3) 0.04682(19) 0.4031(5)
O2_3 O 0.87518(18) 0.77704(12) 0.0578(4)
Eu6_5 Eu 1.0000 0.77821(2) 0.0000
Co1_3 Co 0.86643(5) 1.0000 0.61261(11)
N1_3 N 0.8412(2) 0.92507(15) 0.7361(4)
N2_3 N 0.8271(2) 0.95527(14) 0.6679(4)
N3_3 N 0.7772(2) 0.95548(15) 0.6251(4)
N4_3 N 0.7563(2) 0.92497(15) 0.6644(5)
O1_3 O 0.9208(2) 0.80680(15) 0.9723(5)
O13_4 O 0.8054(4) 1.0000 0.4701(7)
O14_4 O 0.9266(3) 1.0000 0.7510(8)
H1_3 H 0.9234 0.9806 0.7885
O15_4 O 0.6769(3) 1.0000 0.5560(7)
C1_3 C 0.8794(3) 0.79990(18) 0.9878(5)
C2_3 C 0.6923(3) 0.8075(2) 0.8378(6)
C3_3 C 0.7970(3) 0.90675(19) 0.7331(5)
C4_3 C 0.8343(3) 0.81957(19) 0.9189(6)
C5_3 C 0.7863(3) 0.8049(2) 0.9091(5)
H3_3 H 0.7840 0.7819 0.9462
C6_3 C 0.7415(3) 0.8233(2) 0.8460(6)
C7_3 C 0.7467(3) 0.8575(2) 0.7893(6)
H4_3 H 0.7177 0.8711 0.7488
C8_3 C 0.7933(3) 0.87169(19) 0.7919(6)
C9_3 C 0.8370(3) 0.85308(18) 0.8592(5)
H5_3 H 0.8685 0.8633 0.8642
Co3_3 Co 0.8692(3) 1.0000 0.3795(5)
O16_4 O 0.9034(19) 1.0000 0.265(3)
O17_3 O 0.8261(12) 0.9561(8) 0.276(2)
H13_3 H 0.6737 0.9790 0.5886
Eu6_6 Eu 1.0000 0.77821(2) 1.0000
N26_3 N 0.9060(6) 0.9572(3) 0.5684(9)
N27_3 N 0.9071(6) 0.9552(3) 0.4681(10)
H23 H 0.940182 0.994839 0.297996
H24 H 0.88804 0.978542 0.213211
O13_5 O 0.1946(4) 0.0000 0.5299(7)
O14_5 O 0.0734(3) 0.0000 0.2490(8)
O15_5 O 0.3231(3) -0.0000 0.4440(7)
H2_4 H 0.3263 0.0210 0.4114
O16_5 O 0.0966(19) 0.0000 0.735(3)
H12_4 H 0.0766 0.0194 0.2115
N17_4 N 0.1588(2) 0.07493(15) 0.2639(4)
N18_4 N 0.1729(2) 0.04473(14) 0.3321(4)
N19_4 N 0.2228(2) 0.04452(15) 0.3749(4)
N20_4 N 0.2437(2) 0.07503(15) 0.3356(5)
O24_4 O 0.31235(19) 0.22630(13) 0.1238(4)
O25_4 O 0.3473(2) 0.17228(14) 0.2073(4)
C37_4 C 0.1206(3) 0.20010(18) 0.0122(5)
C38_4 C 0.3077(3) 0.1925(2) 0.1622(6)
C39_4 C 0.2030(3) 0.09325(19) 0.2669(5)
C40_4 C 0.1657(3) 0.18043(19) 0.0811(6)
C41_4 C 0.2137(3) 0.1951(2) 0.0909(5)
H17_4 H 0.2160 0.2181 0.0538
C42_4 C 0.2585(3) 0.1767(2) 0.1540(6)
C43_4 C 0.2533(3) 0.1425(2) 0.2107(6)
H18_4 H 0.2823 0.1289 0.2512
C44_4 C 0.2067(3) 0.12831(19) 0.2081(6)
C45_4 C 0.1630(3) 0.14692(18) 0.1408(5)
H19_4 H 0.1315 0.1367 0.1358
O30_4 O 0.1739(12) 0.0439(8) 0.724(2)
N25_4 N 0.2915(3) 0.04682(19) 0.5969(5)
N1_4 N 0.1588(2) 0.92507(15) 0.2639(4)
N2_4 N 0.1729(2) 0.95527(14) 0.3321(4)
N3_4 N 0.2228(2) 0.95548(15) 0.3749(4)
N4_4 N 0.2437(2) 0.92497(15) 0.3356(5)
O1_4 O 0.0792(2) 0.80680(15) 0.0277(5)
O13_6 O 0.1946(4) 1.0000 0.5299(7)
O14_6 O 0.0734(3) 1.0000 0.2490(8)
H1_4 H 0.0766 0.9806 0.2115
O15_6 O 0.3231(3) 1.0000 0.4440(7)
C1_4 C 0.1206(3) 0.79990(18) 0.0122(5)
C2_4 C 0.3077(3) 0.8075(2) 0.1622(6)
C3_4 C 0.2030(3) 0.90675(19) 0.2669(5)
C4_4 C 0.1657(3) 0.81957(19) 0.0811(6)
C5_4 C 0.2137(3) 0.8049(2) 0.0909(5)
H3_4 H 0.2160 0.7819 0.0538
C6_4 C 0.2585(3) 0.8233(2) 0.1540(6)
C7_4 C 0.2533(3) 0.8575(2) 0.2107(6)
H4_4 H 0.2823 0.8711 0.2512
C8_4 C 0.2067(3) 0.87169(19) 0.2081(6)
C9_4 C 0.1630(3) 0.85308(18) 0.1408(5)
H5_4 H 0.1315 0.8633 0.1358
O16_6 O 0.0966(19) 1.0000 0.735(3)
O17_4 O 0.1739(12) 0.9561(8) 0.724(2)
H13_4 H 0.3263 0.9790 0.4114
N26_4 N 0.0940(6) 0.9572(3) 0.4316(9)
N27_4 N 0.0929(6) 0.9552(3) 0.5319(10)
H23_2 H 0.0598176 0.994839 0.702004
H24_2 H 0.11196 0.978542 0.786789
O2_4 O 0.12482(18) 0.77704(12) 0.9422(4)
O7_3 O 0.0434(2) 0.66579(15) 0.7816(5)
O8_3 O 0.0133(7) 0.6153(6) 0.6824(14)
C11_3 C 0.0068(4) 0.6440(3) 0.7384(8)
O5_3 O 0.8792(2) 0.68752(15) 0.0054(4)
O41 O 0.55469(18) 0.22168(12) 0.0005(4)
N5_3 N 0.8361(2) 0.56375(16) 0.6264(5)
N7_3 N 0.7639(4) 0.5617(3) 0.6493(8)
N8_3 N 0.7937(4) 0.5918(3) 0.7106(7)
N9_3 N 0.5821(3) 0.41840(18) 0.4005(5)
N12_3 N 0.5820(6) 0.4169(3) 0.5578(10)
O6_3 O 0.94531(18) 0.72168(12) 0.9995(4)
O9_3 O 0.5196(4) 0.2934(3) 0.1719(7)
O10_3 O 0.4882(4) 0.2459(3) 0.2320(8)
O11_3 O 0.5711(2) 0.22381(16) 0.6297(4)
O12_3 O 0.6021(3) 0.27885(18) 0.7229(4)
C10_3 C 0.9147(3) 0.69445(19) 0.9647(5)
C12_3 C 0.8354(3) 0.5911(2) 0.6934(6)
C13_3 C 0.9160(2) 0.67029(17) 0.8757(5)
C14_3 C 0.9580(3) 0.66963(19) 0.8450(5)
H6_3 H 0.9848 0.6868 0.8779
C15_3 C 0.9618(3) 0.6443(2) 0.7665(6)
C16_3 C 0.9198(3) 0.6193(2) 0.7180(7)
H7_3 H 0.9208 0.6027 0.6639
C17_3 C 0.8785(3) 0.6182(2) 0.7460(6)
C18_3 C 0.8771(3) 0.6433(2) 0.8265(6)
H8_3 H 0.8492 0.6421 0.8483
C19_3 C 0.5165(3) 0.2755(2) 0.2422(7)
C20_3 C 0.5802(3) 0.2601(3) 0.6342(6)
C21_3 C 0.5879(5) 0.3915(3) 0.4804(7)
C22_3 C 0.5384(3) 0.2927(2) 0.3490(5)
C23_3 C 0.5464(3) 0.2684(2) 0.4362(6)
H9_3 H 0.5374 0.2413 0.4279
C24_3 C 0.5684(3) 0.2847(2) 0.5377(6)
C25_3 C 0.5779(4) 0.3264(3) 0.5466(6)
H10_3 H 0.5905 0.3381 0.6123
C26_3 C 0.5688(4) 0.3508(2) 0.4579(6)
C27_3 C 0.5491(3) 0.3333(2) 0.3602(6)
H11_3 H 0.5431 0.3493 0.3013
N13_3 N 0.4179(3) 0.41840(18) 0.5995(5)
N16_3 N 0.4180(6) 0.4169(3) 0.4422(10)
O18 O 0.4804(4) 0.2934(3) 0.8281(7)
O19_3 O 0.5118(4) 0.2459(3) 0.7680(8)
O20_3 O 0.4289(2) 0.22381(16) 0.3703(4)
O21_3 O 0.3979(3) 0.27885(18) 0.2771(4)
C28_3 C 0.4835(3) 0.2755(2) 0.7578(7)
C29_3 C 0.4198(3) 0.2601(3) 0.3658(6)
C30_3 C 0.4121(5) 0.3915(3) 0.5196(7)
C31_3 C 0.4616(3) 0.2927(2) 0.6510(5)
C32_3 C 0.4536(3) 0.2684(2) 0.5638(6)
H14_3 H 0.4626 0.2413 0.5721
C33_3 C 0.4316(3) 0.2847(2) 0.4623(6)
C34_3 C 0.4221(4) 0.3264(3) 0.4534(6)
H15_3 H 0.4095 0.3381 0.3877
C35_3 C 0.4312(4) 0.3508(2) 0.5421(6)
C36_3 C 0.4509(3) 0.3333(2) 0.6398(6)
H16_3 H 0.4569 0.3493 0.6987
N21_3 N 0.6639(2) 0.06375(16) 0.3736(5)
N23_3 N 0.7361(4) 0.0617(3) 0.3507(8)
N24_3 N 0.7063(4) 0.0918(3) 0.2894(7)
O28_2 O 0.4566(2) 0.16579(15) 0.2184(5)
O29_3 O 0.4867(7) 0.1153(6) 0.3176(14)
C46_3 C 0.5853(3) 0.19445(19) 0.0353(5)
C47_3 C 0.4932(4) 0.1440(3) 0.2616(8)
C48_3 C 0.6646(3) 0.0911(2) 0.3066(6)
C49_3 C 0.5840(2) 0.17029(17) 0.1243(5)
C50_3 C 0.5420(3) 0.16963(19) 0.1550(5)
H20_3 H 0.5152 0.1868 0.1221
C51_3 C 0.5382(3) 0.1443(2) 0.2335(6)
C52_3 C 0.5802(3) 0.1193(2) 0.2820(7)
H21_3 H 0.5792 0.1027 0.3361
C53_3 C 0.6215(3) 0.1182(2) 0.2540(6)
C54_3 C 0.6229(3) 0.1433(2) 0.1735(6)
H22_3 H 0.6508 0.1421 0.1517
O38_2 O 0.3792(2) 0.18752(15) 0.0054(4)
O39 O 0.6208(2) 0.18752(15) 0.9946(4)
O42_2 O 0.5434(2) 0.16579(15) 0.7816(5)
O40_2 O 0.44531(18) 0.22168(12) 0.9995(4)
N5_4 N 0.1639(2) 0.56375(16) 0.3736(5)
N7_4 N 0.2361(4) 0.5617(3) 0.3507(8)
N8_4 N 0.2063(4) 0.5918(3) 0.2894(7)
O6_4 O 0.05469(18) 0.72168(12) 0.0005(4)
C10_4 C 0.0853(3) 0.69445(19) 0.0353(5)
C12_4 C 0.1646(3) 0.5911(2) 0.3066(6)
C13_4 C 0.0840(2) 0.67029(17) 0.1243(5)
C14_4 C 0.0420(3) 0.66963(19) 0.1550(5)
H6_4 H 0.0152 0.6868 0.1221
C15_4 C 0.0382(3) 0.6443(2) 0.2335(6)
C16_4 C 0.0802(3) 0.6193(2) 0.2820(7)
H7_4 H 0.0792 0.6027 0.3361
C17_4 C 0.1215(3) 0.6182(2) 0.2540(6)
C18_4 C 0.1229(3) 0.6433(2) 0.1735(6)
H8_4 H 0.1508 0.6421 0.1517
N21_4 N 0.3361(2) 0.06375(16) 0.6264(5)
N23_4 N 0.2639(4) 0.0617(3) 0.6493(8)
N24_4 N 0.2937(4) 0.0918(3) 0.7106(7)
O29_4 O 0.5133(7) 0.1153(6) 0.6824(14)
C46_4 C 0.4147(3) 0.19445(19) 0.9647(5)
C47_4 C 0.5068(4) 0.1440(3) 0.7384(8)
C48_4 C 0.3354(3) 0.0911(2) 0.6934(6)
C49_4 C 0.4160(2) 0.17029(17) 0.8757(5)
C50_4 C 0.4580(3) 0.16963(19) 0.8450(5)
H20_4 H 0.4848 0.1868 0.8779
C51_4 C 0.4618(3) 0.1443(2) 0.7665(6)
C52_4 C 0.4198(3) 0.1193(2) 0.7180(7)
H21_4 H 0.4208 0.1027 0.6639
C53_4 C 0.3785(3) 0.1182(2) 0.7460(6)
C54_4 C 0.3771(3) 0.1433(2) 0.8265(6)
H22_4 H 0.3492 0.1421 0.8483
O5_4 O 0.1208(2) 0.68752(15) 0.9946(4)
O7_4 O 0.9566(2) 0.66579(15) 0.2184(5)
O8_4 O 0.9867(7) 0.6153(6) 0.3176(14)
C11_4 C 0.9932(4) 0.6440(3) 0.2616(8)
H23_3 H 0.0598176 0.00516098 0.702004
H24_3 H 0.11196 0.0214581 0.786789
N9_4 N 0.0821(3) 0.91840(18) 0.4005(5)
N12_4 N 0.0820(6) 0.9169(3) 0.5578(10)
O9_4 O 0.0196(4) 0.7934(3) 0.1719(7)
O11_4 O 0.0711(2) 0.72381(16) 0.6297(4)
O12_4 O 0.1021(3) 0.77885(18) 0.7229(4)
C19_4 C 0.0165(3) 0.7755(2) 0.2422(7)
C20_4 C 0.0802(3) 0.7601(3) 0.6342(6)
C21_4 C 0.0879(5) 0.8915(3) 0.4804(7)
C22_4 C 0.0384(3) 0.7927(2) 0.3490(5)
C23_4 C 0.0464(3) 0.7684(2) 0.4362(6)
H9_4 H 0.0374 0.7413 0.4279
C24_4 C 0.0684(3) 0.7847(2) 0.5377(6)
C25_4 C 0.0779(4) 0.8264(3) 0.5466(6)
H10_4 H 0.0905 0.8381 0.6123
C26_4 C 0.0688(4) 0.8508(2) 0.4579(6)
C27_4 C 0.0491(3) 0.8333(2) 0.3602(6)
H11_4 H 0.0431 0.8493 0.3013
O19_4 O 0.0118(4) 0.7459(3) 0.7680(8)
O10_4 O 0.9882(4) 0.7459(3) 0.2320(8)
N13_4 N 0.9179(3) 0.91840(18) 0.5995(5)
N16_4 N 0.9180(6) 0.9169(3) 0.4422(10)
O18_2 O 0.9804(4) 0.7934(3) 0.8281(7)
O20_4 O 0.9289(2) 0.72381(16) 0.3703(4)
O21_4 O 0.8979(3) 0.77885(18) 0.2771(4)
C28_4 C 0.9835(3) 0.7755(2) 0.7578(7)
C29_4 C 0.9198(3) 0.7601(3) 0.3658(6)
C30_4 C 0.9121(5) 0.8915(3) 0.5196(7)
C31_4 C 0.9616(3) 0.7927(2) 0.6510(5)
C32_4 C 0.9536(3) 0.7684(2) 0.5638(6)
H14_4 H 0.9626 0.7413 0.5721
C33_4 C 0.9316(3) 0.7847(2) 0.4623(6)
C34_4 C 0.9221(4) 0.8264(3) 0.4534(6)
H15_4 H 0.9095 0.8381 0.3877
C35_4 C 0.9312(4) 0.8508(2) 0.5421(6)
C36_4 C 0.9509(3) 0.8333(2) 0.6398(6)
H16_4 H 0.9569 0.8493 0.6987
H23_4 H 0.940182 0.00516098 0.297996
H24_4 H 0.88804 0.0214581 0.213211
loop_
_geom_bond_atom_site_label_1
_geom_bond_atom_site_label_2
_geom_bond_site_symmetry_1
_geom_bond_site_symmetry_2
Eu7 O23 1_555 1_555
Eu11 O2 1_555 1_555
O31 Eu1 1_555 1_555
O40 Eu1 1_555 1_555
O43 Eu1 1_555 1_555
O26 Eu7 1_555 1_555
Eu1_2 O9 1_555 1_555
Eu7 O11 1_555 1_555
Co1 N2 1_555 1_555
Co2 N3 1_555 1_555
N1 N2 1_555 1_555
N2 N3 1_555 1_555
N3 N4 1_555 1_555
N4 C3 1_555 1_555
N5 N6 1_555 1_555
N6 Co2 1_555 1_555
N7 N6 1_555 1_555
N8 N7 1_555 1_555
N9 N10 1_555 1_555
N10 Co1 1_555 1_555
N11 N10 1_555 1_555
N12 N11 1_555 1_555
O1 C1 1_555 1_555
O3 C2 1_555 1_555
O4 C2 1_555 1_555
O6 C10 1_555 1_555
O9 C19 1_555 1_555
O10 C19 1_555 1_555
O11 C20 1_555 1_555
O12 Eu7 1_555 1_555
O13 Co1 1_555 1_555
O14 Co1 1_555 1_555
H1 O14 1_555 1_555
O15 Co2 1_555 1_555
H2 O15 1_555 1_555
C1 C4 1_555 1_555
C2 C6 1_555 1_555
C3 N1 1_555 1_555
C4 C5 1_555 1_555
C5 H3 1_555 1_555
C6 C5 1_555 1_555
C7 C6 1_555 1_555
H4 C7 1_555 1_555
C8 C3 1_555 1_555
C9 C4 1_555 1_555
H5 C9 1_555 1_555
C10 C13 1_555 1_555
C12 N5 1_555 1_555
C13 C14 1_555 1_555
C14 H6 1_555 1_555
C15 C14 1_555 1_555
C16 C15 1_555 1_555
H7 C16 1_555 1_555
C17 C12 1_555 1_555
C18 C13 1_555 1_555
H8 C18 1_555 1_555
C19 C22 1_555 1_555
C20 O12 1_555 1_555
C21 N9 1_555 1_555
C22 C23 1_555 1_555
C23 H9 1_555 1_555
C24 C20 1_555 1_555
C25 C24 1_555 1_555
H10 C25 1_555 1_555
C26 C21 1_555 1_555
C27 C22 1_555 1_555
H11 C27 1_555 1_555
Co3 N11 1_555 1_555
O16 Co3 1_555 1_555
O17 Co3 1_555 1_555
H12 O14 1_555 1_555
H13 O15 1_555 1_555
Eu3 O10 1_555 1_555
N13 N14 1_555 1_555
N14 N15 1_555 1_555
N15 N16 1_555 1_555
N16 C30 1_555 1_555
O43 C28 1_555 1_555
O19 Eu7 1_555 1_555
O20 Eu3 1_555 1_555
O21 Eu3 1_555 1_555
C28 O19 1_555 1_555
C29 O20 1_555 1_555
C30 N13 1_555 1_555
C31 C28 1_555 1_555
C32 C31 1_555 1_555
H14 C32 1_555 1_555
C33 C29 1_555 1_555
C34 C33 1_555 1_555
H15 C34 1_555 1_555
C35 C30 1_555 1_555
C36 C31 1_555 1_555
H16 C36 1_555 1_555
N17 N18 1_555 1_555
N18 Co1 1_555 1_555
N19 Co2 1_555 1_555
N20 N19 1_555 1_555
O22 Eu1_2 1_555 1_555
O24 C38 1_555 1_555
O25 C38 1_555 1_555
C37 O22 1_555 1_555
C38 C42 1_555 1_555
C39 N17 1_555 1_555
C40 C37 1_555 1_555
C41 C40 1_555 1_555
H17 C41 1_555 1_555
C42 C41 1_555 1_555
C43 C42 1_555 1_555
H18 C43 1_555 1_555
C44 C39 1_555 1_555
C45 C40 1_555 1_555
H19 C45 1_555 1_555
N21 N22 1_555 1_555
N22 N23 1_555 1_555
N23 N24 1_555 1_555
N24 C48 1_555 1_555
O27 Eu1_2 1_555 1_555
O28 Eu3 1_555 1_555
O29 C47 1_555 1_555
C46 O27 1_555 1_555
C47 O28 1_555 1_555
C48 N21 1_555 1_555
C49 C46 1_555 1_555
C50 C49 1_555 1_555
H20 C50 1_555 1_555
C51 C47 1_555 1_555
C52 C51 1_555 1_555
H21 C52 1_555 1_555
C53 C48 1_555 1_555
C54 C49 1_555 1_555
H22 C54 1_555 1_555
O30 Co3 1_555 1_555
Eu5 O6 1_555 1_555
Eu6_2 O1 1_555 1_555
Eu10 O3 1_555 1_555
Eu12 O24 1_555 1_555
Co4 N14 1_555 1_555
Co5_2 N22 1_555 1_555
N25 Co2 1_555 1_555
N26 Co1 1_555 1_555
N27 Co3 1_555 1_555
O32 Eu3 1_555 1_555
O34 Eu3 1_555 1_555
O35 Eu7 1_555 1_555
O36 Eu3 1_555 1_555
O37 Eu7 1_555 1_555
O38 Eu3 1_555 1_555
O42 Eu7 1_555 1_555
Co6 N15 1_555 1_555
Co2 O13 1_555 1_555
N8 C12 1_555 1_555
N12 C21 1_555 1_555
O4 Eu10 1_555 1_555
C7 C8 1_555 1_555
C8 C9 1_555 1_555
C16 C17 1_555 1_555
C17 C18 1_555 1_555
C23 C24 1_555 1_555
C25 C26 1_555 1_555
C26 C27 1_555 1_555
O21 C29 1_555 1_555
C32 C33 1_555 1_555
C34 C35 1_555 1_555
C35 C36 1_555 1_555
N18 N19 1_555 1_555
N20 C39 1_555 1_555
O25 Eu12 1_555 1_555
C43 C44 1_555 1_555
C44 C45 1_555 1_555
C50 C51 1_555 1_555
C52 C53 1_555 1_555
C53 C54 1_555 1_555
N26 N27 1_555 1_555
Eu10 O5 1_555 1_555
O7 C11 1_555 1_555
O8 C11 1_555 1_555
Eu8 O7 1_555 1_555
O7_2 C11_2 1_555 1_555
O8_2 C11_2 1_555 1_555
Eu10 O7_2 1_555 1_555
Eu8 O5_2 1_555 1_555
Co4 N2_2 1_555 1_555
Co2_2 N3_2 1_555 1_555
N1_2 N2_2 1_555 1_555
N2_2 N3_2 1_555 1_555
N3_2 N4_2 1_555 1_555
N4_2 C3_2 1_555 1_555
N5_2 N6_2 1_555 1_555
N6_2 Co2_2 1_555 1_555
N7_2 N6_2 1_555 1_555
N8_2 N7_2 1_555 1_555
O1_2 C1_2 1_555 1_555
O3_2 C2_2 1_555 1_555
O4_2 C2_2 1_555 1_555
O6_2 C10_2 1_555 1_555
O13_2 Co4 1_555 1_555
O14_2 Co4 1_555 1_555
H1_2 O14_2 1_555 1_555
O15_2 Co2_2 1_555 1_555
H2_2 O15_2 1_555 1_555
C1_2 C4_2 1_555 1_555
C2_2 C6_2 1_555 1_555
C3_2 N1_2 1_555 1_555
C4_2 C5_2 1_555 1_555
C5_2 H3_2 1_555 1_555
C6_2 C5_2 1_555 1_555
C7_2 C6_2 1_555 1_555
H4_2 C7_2 1_555 1_555
C8_2 C3_2 1_555 1_555
C9_2 C4_2 1_555 1_555
H5_2 C9_2 1_555 1_555
C10_2 C13_2 1_555 1_555
C12_2 N5_2 1_555 1_555
C13_2 C14_2 1_555 1_555
C14_2 H6_2 1_555 1_555
C15_2 C14_2 1_555 1_555
C16_2 C15_2 1_555 1_555
H7_2 C16_2 1_555 1_555
C17_2 C12_2 1_555 1_555
C18_2 C13_2 1_555 1_555
H8_2 C18_2 1_555 1_555
O16_2 Co6 1_555 1_555
O17_2 Co6 1_555 1_555
H12_2 O14_2 1_555 1_555
H13_2 O15_2 1_555 1_555
N17_2 N18_2 1_555 1_555
N18_2 Co4 1_555 1_555
N19_2 Co2_2 1_555 1_555
N20_2 N19_2 1_555 1_555
O24_2 C38_2 1_555 1_555
O25_2 C38_2 1_555 1_555
C37_2 O31 1_555 1_555
C38_2 C42_2 1_555 1_555
C39_2 N17_2 1_555 1_555
C40_2 C37_2 1_555 1_555
C41_2 C40_2 1_555 1_555
H17_2 C41_2 1_555 1_555
C42_2 C41_2 1_555 1_555
C43_2 C42_2 1_555 1_555
H18_2 C43_2 1_555 1_555
C44_2 C39_2 1_555 1_555
C45_2 C40_2 1_555 1_555
H19_2 C45_2 1_555 1_555
N21_2 N22_2 1_555 1_555
N22_2 N23_2 1_555 1_555
N23_2 N24_2 1_555 1_555
N24_2 C48_2 1_555 1_555
O29_2 C47_2 1_555 1_555
C46_2 O40 1_555 1_555
C47_2 O42 1_555 1_555
C48_2 N21_2 1_555 1_555
C49_2 C46_2 1_555 1_555
C50_2 C49_2 1_555 1_555
H20_2 C50_2 1_555 1_555
C51_2 C47_2 1_555 1_555
C52_2 C51_2 1_555 1_555
H21_2 C52_2 1_555 1_555
C53_2 C48_2 1_555 1_555
C54_2 C49_2 1_555 1_555
H22_2 C54_2 1_555 1_555
O30_2 Co6 1_555 1_555
Eu5_4 O6_2 1_555 1_555
Eu6 O1_2 1_555 1_555
Eu8 O3_2 1_555 1_555
Eu12_2 O24_2 1_555 1_555
Co5_4 N22_2 1_555 1_555
N25_2 Co2_2 1_555 1_555
N26_2 Co4 1_555 1_555
N27_2 Co6 1_555 1_555
Co2_2 O13_2 1_555 1_555
N8_2 C12_2 1_555 1_555
O4_2 Eu8 1_555 1_555
C7_2 C8_2 1_555 1_555
C8_2 C9_2 1_555 1_555
C16_2 C17_2 1_555 1_555
C17_2 C18_2 1_555 1_555
N18_2 N19_2 1_555 1_555
N20_2 C39_2 1_555 1_555
O25_2 Eu12_2 1_555 1_555
C43_2 C44_2 1_555 1_555
C44_2 C45_2 1_555 1_555
C50_2 C51_2 1_555 1_555
C52_2 C53_2 1_555 1_555
C53_2 C54_2 1_555 1_555
N26_2 N27_2 1_555 1_555
Eu11_2 O2_2 1_555 1_555
O31_2 Eu5 1_555 1_555
O43_2 Eu5 1_555 1_555
Eu10 O10_2 1_555 1_555
N13_2 N14_2 1_555 1_555
N14_2 N15_2 1_555 1_555
N15_2 N16_2 1_555 1_555
N16_2 C30_2 1_555 1_555
O43_2 C28_2 1_555 1_555
O20_2 Eu10 1_555 1_555
O21_2 Eu10 1_555 1_555
C29_2 O20_2 1_555 1_555
C30_2 N13_2 1_555 1_555
C31_2 C28_2 1_555 1_555
C32_2 C31_2 1_555 1_555
H14_2 C32_2 1_555 1_555
C33_2 C29_2 1_555 1_555
C34_2 C33_2 1_555 1_555
H15_2 C34_2 1_555 1_555
C35_2 C30_2 1_555 1_555
C36_2 C31_2 1_555 1_555
H16_2 C36_2 1_555 1_555
Co4_2 N14_2 1_555 1_555
O32_2 Eu10 1_555 1_555
Co6_2 N15_2 1_555 1_555
O21_2 C29_2 1_555 1_555
C32_2 C33_2 1_555 1_555
C34_2 C35_2 1_555 1_555
C35_2 C36_2 1_555 1_555
Eu8 O23_2 1_555 1_555
Eu5_4 O9_2 1_555 1_555
Eu8 O11_2 1_555 1_555
N9_2 N10_2 1_555 1_555
N10_2 Co1_2 1_555 1_555
N11_2 N10_2 1_555 1_555
N12_2 N11_2 1_555 1_555
O9_2 C19_2 1_555 1_555
O11_2 C20_2 1_555 1_555
O12_2 Eu8 1_555 1_555
O13_3 Co1_2 1_555 1_555
O14_3 Co1_2 1_555 1_555
O15_3 Co5_3 1_555 1_555
H2_3 O15_3 1_555 1_555
C19_2 C22_2 1_555 1_555
C20_2 O12_2 1_555 1_555
C21_2 N9_2 1_555 1_555
C22_2 C23_2 1_555 1_555
C23_2 H9_2 1_555 1_555
C24_2 C20_2 1_555 1_555
C25_2 C24_2 1_555 1_555
H10_2 C25_2 1_555 1_555
C26_2 C21_2 1_555 1_555
C27_2 C22_2 1_555 1_555
H11_2 C27_2 1_555 1_555
Co3_2 N11_2 1_555 1_555
O16_3 Co3_2 1_555 1_555
H12_3 O14_3 1_555 1_555
O19_2 Eu8 1_555 1_555
N17_3 N18_3 1_555 1_555
N18_3 Co1_2 1_555 1_555
N19_3 Co5_3 1_555 1_555
N20_3 N19_3 1_555 1_555
O22_2 Eu5_4 1_555 1_555
O24_3 C38_3 1_555 1_555
O25_3 C38_3 1_555 1_555
C37_3 O22_2 1_555 1_555
C38_3 C42_3 1_555 1_555
C39_3 N17_3 1_555 1_555
C40_3 C37_3 1_555 1_555
C41_3 C40_3 1_555 1_555
H17_3 C41_3 1_555 1_555
C42_3 C41_3 1_555 1_555
C43_3 C42_3 1_555 1_555
H18_3 C43_3 1_555 1_555
C44_3 C39_3 1_555 1_555
C45_3 C40_3 1_555 1_555
H19_3 C45_3 1_555 1_555
O30_3 Co3_2 1_555 1_555
Eu11_2 O24_3 1_555 1_555
N25_3 Co5_3 1_555 1_555
Co5_3 O13_3 1_555 1_555
N12_2 C21_2 1_555 1_555
C23_2 C24_2 1_555 1_555
C25_2 C26_2 1_555 1_555
C26_2 C27_2 1_555 1_555
N18_3 N19_3 1_555 1_555
N20_3 C39_3 1_555 1_555
O25_3 Eu11_2 1_555 1_555
C43_3 C44_3 1_555 1_555
C44_3 C45_3 1_555 1_555
Eu12_2 O2_3 1_555 1_555
Co1_3 N2_3 1_555 1_555
Co5_4 N3_3 1_555 1_555
N1_3 N2_3 1_555 1_555
N2_3 N3_3 1_555 1_555
N3_3 N4_3 1_555 1_555
N4_3 C3_3 1_555 1_555
O1_3 C1_3 1_555 1_555
O34 C2_3 1_555 1_555
O36 C2_3 1_555 1_555
O13_4 Co1_3 1_555 1_555
O14_4 Co1_3 1_555 1_555
H1_3 O14_4 1_555 1_555
O15_4 Co5_4 1_555 1_555
C1_3 C4_3 1_555 1_555
C2_3 C6_3 1_555 1_555
C3_3 N1_3 1_555 1_555
C4_3 C5_3 1_555 1_555
C5_3 H3_3 1_555 1_555
C6_3 C5_3 1_555 1_555
C7_3 C6_3 1_555 1_555
H4_3 C7_3 1_555 1_555
C8_3 C3_3 1_555 1_555
C9_3 C4_3 1_555 1_555
H5_3 C9_3 1_555 1_555
O16_4 Co3_3 1_555 1_555
O17_3 Co3_3 1_555 1_555
H13_3 O15_4 1_555 1_555
Eu6_6 O1_3 1_555 1_555
N26_3 Co1_3 1_555 1_555
N27_3 Co3_3 1_555 1_555
Co5_4 O13_4 1_555 1_555
C7_3 C8_3 1_555 1_555
C8_3 C9_3 1_555 1_555
N26_3 N27_3 1_555 1_555
O16_4 H23 1_555 1_555
O16_4 H24 1_555 1_555
O13_5 Co4_2 1_555 1_555
O14_5 Co4_2 1_555 1_555
O15_5 Co5 1_555 1_555
H2_4 O15_5 1_555 1_555
O16_5 Co6_2 1_555 1_555
H12_4 O14_5 1_555 1_555
N17_4 N18_4 1_555 1_555
N18_4 Co4_2 1_555 1_555
N19_4 Co5 1_555 1_555
N20_4 N19_4 1_555 1_555
O24_4 C38_4 1_555 1_555
O25_4 C38_4 1_555 1_555
C37_4 O31_2 1_555 1_555
C38_4 C42_4 1_555 1_555
C39_4 N17_4 1_555 1_555
C40_4 C37_4 1_555 1_555
C41_4 C40_4 1_555 1_555
H17_4 C41_4 1_555 1_555
C42_4 C41_4 1_555 1_555
C43_4 C42_4 1_555 1_555
H18_4 C43_4 1_555 1_555
C44_4 C39_4 1_555 1_555
C45_4 C40_4 1_555 1_555
H19_4 C45_4 1_555 1_555
O30_4 Co6_2 1_555 1_555
Eu11 O24_4 1_555 1_555
N25_4 Co5 1_555 1_555
Co5 O13_5 1_555 1_555
N18_4 N19_4 1_555 1_555
N20_4 C39_4 1_555 1_555
O25_4 Eu11 1_555 1_555
C43_4 C44_4 1_555 1_555
C44_4 C45_4 1_555 1_555
Co4_3 N2_4 1_555 1_555
Co5_2 N3_4 1_555 1_555
N1_4 N2_4 1_555 1_555
N2_4 N3_4 1_555 1_555
N3_4 N4_4 1_555 1_555
N4_4 C3_4 1_555 1_555
O1_4 C1_4 1_555 1_555
O35 C2_4 1_555 1_555
O37 C2_4 1_555 1_555
O13_6 Co4_3 1_555 1_555
O14_6 Co4_3 1_555 1_555
H1_4 O14_6 1_555 1_555
O15_6 Co5_2 1_555 1_555
C1_4 C4_4 1_555 1_555
C2_4 C6_4 1_555 1_555
C3_4 N1_4 1_555 1_555
C4_4 C5_4 1_555 1_555
C5_4 H3_4 1_555 1_555
C6_4 C5_4 1_555 1_555
C7_4 C6_4 1_555 1_555
H4_4 C7_4 1_555 1_555
C8_4 C3_4 1_555 1_555
C9_4 C4_4 1_555 1_555
H5_4 C9_4 1_555 1_555
O16_6 Co6_3 1_555 1_555
O17_4 Co6_3 1_555 1_555
H13_4 O15_6 1_555 1_555
Eu6_3 O1_4 1_555 1_555
N26_4 Co4_3 1_555 1_555
N27_4 Co6_3 1_555 1_555
Co5_2 O13_6 1_555 1_555
C7_4 C8_4 1_555 1_555
C8_4 C9_4 1_555 1_555
N26_4 N27_4 1_555 1_555
O16_6 H23_2 1_555 1_555
O16_6 H24_2 1_555 1_555
Eu12 O2_4 1_555 1_555
O7_3 C11_3 1_555 1_555
O8_3 C11_3 1_555 1_555
Eu12 O7_3 1_555 1_555
Eu12_2 O5_3 1_555 1_555
Eu6 O41 1_555 1_555
Eu6 O9_3 1_555 1_555
Eu11_2 O11_3 1_555 1_555
N5_3 N25_2 1_555 1_555
N7_3 N25_2 1_555 1_555
N8_3 N7_3 1_555 1_555
N9_3 N26_2 1_555 1_555
N12_3 N27_2 1_555 1_555
O6_3 C10_3 1_555 1_555
O9_3 C19_3 1_555 1_555
O10_3 C19_3 1_555 1_555
O11_3 C20_3 1_555 1_555
O12_3 Eu11_2 1_555 1_555
C10_3 C13_3 1_555 1_555
C12_3 N5_3 1_555 1_555
C13_3 C14_3 1_555 1_555
C14_3 H6_3 1_555 1_555
C15_3 C14_3 1_555 1_555
C16_3 C15_3 1_555 1_555
H7_3 C16_3 1_555 1_555
C17_3 C12_3 1_555 1_555
C18_3 C13_3 1_555 1_555
H8_3 C18_3 1_555 1_555
C19_3 C22_3 1_555 1_555
C20_3 O12_3 1_555 1_555
C21_3 N9_3 1_555 1_555
C22_3 C23_3 1_555 1_555
C23_3 H9_3 1_555 1_555
C24_3 C20_3 1_555 1_555
C25_3 C24_3 1_555 1_555
H10_3 C25_3 1_555 1_555
C26_3 C21_3 1_555 1_555
C27_3 C22_3 1_555 1_555
H11_3 C27_3 1_555 1_555
Eu11 O10_3 1_555 1_555
N13_3 N26 1_555 1_555
N27 N16_3 1_555 1_555
N16_3 C30_3 1_555 1_555
O18 C28_3 1_555 1_555
O19_3 Eu11_2 1_555 1_555
O20_3 Eu11 1_555 1_555
O21_3 Eu11 1_555 1_555
C28_3 O19_3 1_555 1_555
C29_3 O20_3 1_555 1_555
C30_3 N13_3 1_555 1_555
C31_3 C28_3 1_555 1_555
C32_3 C31_3 1_555 1_555
H14_3 C32_3 1_555 1_555
C33_3 C29_3 1_555 1_555
C34_3 C33_3 1_555 1_555
H15_3 C34_3 1_555 1_555
C35_3 C30_3 1_555 1_555
C36_3 C31_3 1_555 1_555
H16_3 C36_3 1_555 1_555
N21_3 N25_3 1_555 1_555
N25_3 N23_3 1_555 1_555
N23_3 N24_3 1_555 1_555
N24_3 C48_3 1_555 1_555
O28_2 Eu11 1_555 1_555
O29_3 C47_3 1_555 1_555
C46_3 O41 1_555 1_555
C47_3 O28_2 1_555 1_555
C48_3 N21_3 1_555 1_555
C49_3 C46_3 1_555 1_555
C50_3 C49_3 1_555 1_555
H20_3 C50_3 1_555 1_555
C51_3 C47_3 1_555 1_555
C52_3 C51_3 1_555 1_555
H21_3 C52_3 1_555 1_555
C53_3 C48_3 1_555 1_555
C54_3 C49_3 1_555 1_555
H22_3 C54_3 1_555 1_555
Eu6_2 O18 1_555 1_555
Eu6_6 O6_3 1_555 1_555
O38_2 Eu11 1_555 1_555
O39 Eu11_2 1_555 1_555
O42_2 Eu11_2 1_555 1_555
N8_3 C12_3 1_555 1_555
N12_3 C21_3 1_555 1_555
C16_3 C17_3 1_555 1_555
C17_3 C18_3 1_555 1_555
C23_3 C24_3 1_555 1_555
C25_3 C26_3 1_555 1_555
C26_3 C27_3 1_555 1_555
O21_3 C29_3 1_555 1_555
C32_3 C33_3 1_555 1_555
C34_3 C35_3 1_555 1_555
C35_3 C36_3 1_555 1_555
C50_3 C51_3 1_555 1_555
C52_3 C53_3 1_555 1_555
C53_3 C54_3 1_555 1_555
O40_2 Eu6_2 1_555 1_555
N5_4 N25 1_555 1_555
N7_4 N25 1_555 1_555
N8_4 N7_4 1_555 1_555
O6_4 C10_4 1_555 1_555
C10_4 C13_4 1_555 1_555
C12_4 N5_4 1_555 1_555
C13_4 C14_4 1_555 1_555
C14_4 H6_4 1_555 1_555
C15_4 C14_4 1_555 1_555
C16_4 C15_4 1_555 1_555
H7_4 C16_4 1_555 1_555
C17_4 C12_4 1_555 1_555
C18_4 C13_4 1_555 1_555
H8_4 C18_4 1_555 1_555
N21_4 N25_4 1_555 1_555
N25_4 N23_4 1_555 1_555
N23_4 N24_4 1_555 1_555
N24_4 C48_4 1_555 1_555
O29_4 C47_4 1_555 1_555
C46_4 O40_2 1_555 1_555
C47_4 O42_2 1_555 1_555
C48_4 N21_4 1_555 1_555
C49_4 C46_4 1_555 1_555
C50_4 C49_4 1_555 1_555
H20_4 C50_4 1_555 1_555
C51_4 C47_4 1_555 1_555
C52_4 C51_4 1_555 1_555
H21_4 C52_4 1_555 1_555
C53_4 C48_4 1_555 1_555
C54_4 C49_4 1_555 1_555
H22_4 C54_4 1_555 1_555
Eu6_3 O6_4 1_555 1_555
N8_4 C12_4 1_555 1_555
C16_4 C17_4 1_555 1_555
C17_4 C18_4 1_555 1_555
C50_4 C51_4 1_555 1_555
C52_4 C53_4 1_555 1_555
C53_4 C54_4 1_555 1_555
Eu12 O5_4 1_555 1_555
O7_4 C11_4 1_555 1_555
O8_4 C11_4 1_555 1_555
Eu12_2 O7_4 1_555 1_555
O16_5 H23_3 1_555 1_555
O16_5 H24_3 1_555 1_555
Eu6_3 O9_4 1_555 1_555
Eu12 O11_4 1_555 1_555
N9_4 N26_4 1_555 1_555
N12_4 N27_4 1_555 1_555
O9_4 C19_4 1_555 1_555
O11_4 C20_4 1_555 1_555
O12_4 Eu12 1_555 1_555
C19_4 C22_4 1_555 1_555
C20_4 O12_4 1_555 1_555
C21_4 N9_4 1_555 1_555
C22_4 C23_4 1_555 1_555
C23_4 H9_4 1_555 1_555
C24_4 C20_4 1_555 1_555
C25_4 C24_4 1_555 1_555
H10_4 C25_4 1_555 1_555
C26_4 C21_4 1_555 1_555
C27_4 C22_4 1_555 1_555
H11_4 C27_4 1_555 1_555
O19_4 Eu12 1_555 1_555
N12_4 C21_4 1_555 1_555
C23_4 C24_4 1_555 1_555
C25_4 C26_4 1_555 1_555
C26_4 C27_4 1_555 1_555
Eu12_2 O10_4 1_555 1_555
N13_4 N26_3 1_555 1_555
N27_3 N16_4 1_555 1_555
N16_4 C30_4 1_555 1_555
O18_2 C28_4 1_555 1_555
O20_4 Eu12_2 1_555 1_555
O21_4 Eu12_2 1_555 1_555
C29_4 O20_4 1_555 1_555
C30_4 N13_4 1_555 1_555
C31_4 C28_4 1_555 1_555
C32_4 C31_4 1_555 1_555
H14_4 C32_4 1_555 1_555
C33_4 C29_4 1_555 1_555
C34_4 C33_4 1_555 1_555
H15_4 C34_4 1_555 1_555
C35_4 C30_4 1_555 1_555
C36_4 C31_4 1_555 1_555
H16_4 C36_4 1_555 1_555
Eu6_6 O18_2 1_555 1_555
O21_4 C29_4 1_555 1_555
C32_4 C33_4 1_555 1_555
C34_4 C35_4 1_555 1_555
C35_4 C36_4 1_555 1_555
O16_3 H23_4 1_555 1_555
O16_3 H24_4 1_555 1_555

#END
