
###############################################################################
#
# This file contains modified crystal structure data generated from the
# MOF subset of the Cambridge Structural Database (CSD) v543 
# hosted by the Cambridge Crystallographic Data Centre (CCDC).
#
# This work is licensed under the Creative Commons
# Attribution-NonCommercial-ShareAlike 4.0 International License.
# To view a copy of this license, visit
# http://creativecommons.org/licenses/by-nc-sa/4.0/
# or send a letter to
# Creative Commons, PO Box 1866, Mountain View, CA 94042, USA.
#
# CIF created using the CSD Python API on 29 September 2022
# The structure has been converted into the P1 space group
# The structure has a 3D framework
# The original CSD entry ZAHBET is in the monoclinic crystal system
# The framework has been calculated to contain at least 10.0% void space
# The void calculation uses a probe of radius 1.32A, grid spacing 0.4
# The framework is charged, counterions have been retained in the structure
# H atom positions have been added when not included in the experimental data
# Generated hydrogen atom positions removed from atoms on special positions
#
###############################################################################

data_ZAHBET
_chemical_formula_moiety         '(C216 H158 Co18 N96 O130 Tb14 15-)n'
_symmetry_cell_setting           triclinic
_symmetry_space_group_name_H-M   'P 1'
_symmetry_Int_Tables_number      1
_space_group_name_Hall           'P 1'
loop_
_symmetry_equiv_pos_site_id
_symmetry_equiv_pos_as_xyz
1 x,y,z
_cell_length_a                   27.9621(19)
_cell_length_b                   32.846(3)
_cell_length_c                   13.4780(11)
_cell_angle_alpha                90
_cell_angle_beta                 110.883(2)
_cell_angle_gamma                90
_cell_volume                     11565.6
loop_
_atom_site_label
_atom_site_type_symbol
_atom_site_fract_x
_atom_site_fract_y
_atom_site_fract_z
Co4 Co 0.24374(6) -0.0000 0.00799(13)
Tb1 Tb 0.09454(2) 0.22108(2) 0.32671(3)
Tb2 Tb 0.0000 0.28041(2) 0.5000
Co2 Co 0.37077(6) 0.0000 0.11531(13)
N1 N 0.1666(3) 0.0647(2) 0.8719(6)
N2 N 0.2124(3) 0.0469(2) 0.8968(7)
N3 N 0.2369(3) 0.0636(2) 0.8397(7)
N4 N 0.2083(3) 0.0919(3) 0.7828(7)
N5 N 0.2590(2) 0.07445(18) 0.1633(6)
N6 N 0.2794(2) 0.04484(17) 0.1233(5)
N7 N 0.3292(2) 0.04498(17) 0.1673(5)
N8 N 0.3435(2) 0.07445(18) 0.2390(5)
N11 N 0.1427(5) 0.4358(3) 0.0559(10)
N12 N 0.1340(5) 0.3953(3) 0.0737(10)
O1 O 0.1161(2) 0.18833(17) 0.4906(5)
O2 O 0.0517(2) 0.22474(16) 0.5067(5)
O4 O 0.0091(7) 0.1369(5) 0.8748(14)
O5 O 0.1873(2) 0.22481(17) 0.3754(5)
O6 O 0.1522(2) 0.17046(16) 0.2930(5)
O7 O 0.3760(2) 0.22410(15) 0.5615(4)
O8 O 0.4216(2) 0.19208(17) 0.4814(6)
O9 O 0.1036(3) 0.2766(2) 0.2218(5)
O10 O 0.0737(2) 0.22267(19) 0.1305(4)
O13 O 0.0000 0.3549(4) 0.5000
O15 O 0.1782(3) -0.0000 0.0508(9)
O16 O 0.4319(3) 0.0000 0.2586(8)
C1 C 0.0849(3) 0.1955(2) 0.5343(6)
C2 C 0.0020(7) 0.1511(6) 0.7879(15)
C3 C 0.1645(3) 0.0920(3) 0.8011(8)
C4 C 0.0835(3) 0.1697(2) 0.6247(6)
C5 C 0.0423(3) 0.1703(2) 0.6567(6)
H1 H 0.0154 0.1881 0.6242
C6 C 0.0402(3) 0.1449(3) 0.7368(7)
C7 C 0.0812(4) 0.1189(3) 0.7819(7)
H2 H 0.0808 0.1014 0.8357
C8 C 0.1220(3) 0.1183(3) 0.7495(7)
C9 C 0.1227(3) 0.1432(2) 0.6713(6)
H3 H 0.1504 0.1424 0.6484
C10 C 0.1905(3) 0.1910(2) 0.3372(7)
C11 C 0.3805(3) 0.2002(2) 0.4959(6)
C12 C 0.2991(3) 0.0923(2) 0.2357(6)
C13 C 0.2425(3) 0.1754(2) 0.3478(7)
C14 C 0.2862(3) 0.1940(2) 0.4127(6)
H4 H 0.2833 0.2167 0.4513
C15 C 0.3348(3) 0.1801(2) 0.4233(6)
C16 C 0.3393(3) 0.1464(2) 0.3624(6)
H5 H 0.3713 0.1370 0.3664
C17 C 0.2947(3) 0.1273(2) 0.2960(6)
C18 C 0.2466(3) 0.1426(2) 0.2886(6)
H6 H 0.2171 0.1303 0.2427
C19 C 0.0838(3) 0.2588(3) 0.1373(7)
C22 C 0.0669(3) 0.2852(3) 0.0377(6)
C27 C 0.0760(4) 0.3253(3) 0.0467(7)
H9 H 0.0885 0.3370 0.1140
O29 O 0.0145(2) 0.2467(2) 0.2745(5)
Tb6 Tb 0.40546(2) 0.27892(2) 0.67329(3)
Tb10 Tb 0.5000 0.21959(2) 0.5000
N30 N 0.3934(5) 0.0508(3) 0.0397(10)
O34 O 0.0433(2) 0.16452(17) 0.2770(5)
O35 O 0.1240(2) 0.27590(15) 0.4385(4)
O37 O 0.0784(2) 0.30792(17) 0.5186(6)
O39 O 0.0269(3) 0.2913(2) 0.6744(5)
Co11 Co 0.13091(15) 0.5000 0.1245(3)
H19 H 0.00777635 0.364977 0.437944
H21 H 0.162799 0.027638 0.0399484
N9 N 0.0793(3) 0.41783(19) 0.8973(6)
N10 N 0.1066(5) 0.4492(3) 0.9603(10)
O14 O 0.3099(3) 0.0000 0.9713(6)
C20 C 0.0166(4) 0.2754(3) 0.7442(7)
C21 C 0.0912(6) 0.3898(5) 0.9801(10)
C23 C 0.0462(3) 0.2678(3) 0.9373(6)
H7 H 0.0390 0.2401 0.9300
C24 C 0.0361(3) 0.2924(2) 0.8468(6)
C25 C 0.0470(3) 0.3319(3) 0.8596(6)
H8 H 0.0406 0.3480 0.7996
C26 C 0.0673(4) 0.3499(3) 0.9579(7)
O17 O 0.4144(7) 0.0000 0.7815(14)
Co3 Co 0.36909(15) 0.0000 0.8755(3)
O18 O 0.3256(11) 0.0451(7) 0.777(2)
Co9 Co 0.12923(6) 0.5000 0.88469(13)
N32 N 0.3573(5) 0.0642(3) 0.9441(10)
H27 H 0.406831 0.0246843 0.735976
H28 H 0.451099 3.49061e-18 0.827818
Co4_2 Co 0.24374(6) 1.0000 0.00799(13)
Co2_2 Co 0.37077(6) 1.0000 0.11531(13)
O15_2 O 0.1782(3) 1.0000 0.0508(9)
O16_2 O 0.4319(3) 1.0000 0.2586(8)
N27 N 0.2794(2) 0.95516(17) 0.1233(5)
N28 N 0.3292(2) 0.95502(17) 0.1673(5)
N29 N 0.3934(5) 0.9492(3) 0.0397(10)
H22 H 0.152908 0.980146 0.00595085
H23 H 0.419739 0.991952 0.316598
H24 H 0.458208 0.980344 0.254965
O14_2 O 0.3099(3) 1.0000 0.9713(6)
O17_2 O 0.4144(7) 1.0000 0.7815(14)
Co3_2 Co 0.36909(15) 1.0000 0.8755(3)
O31 O 0.3256(11) 0.9549(7) 0.777(2)
N26 N 0.2124(3) 0.9531(2) 0.8968(7)
N31 N 0.3573(5) 0.9358(3) 0.9441(10)
H28_2 H 0.451099 1 0.827818
Tb2_2 Tb 1.0000 0.28041(2) 0.5000
O3 O 0.9567(2) 0.16452(17) 0.7230(5)
O13_2 O 1.0000 0.3549(4) 0.5000
N21 N 0.9207(3) 0.41783(19) 0.1027(6)
N22 N 0.8934(5) 0.4492(3) 0.0397(10)
O30 O 0.9731(3) 0.2913(2) 0.3256(5)
C47 C 0.9834(4) 0.2754(3) 0.2558(7)
C48 C 0.9088(6) 0.3898(5) 0.0199(10)
C50 C 0.9538(3) 0.2678(3) 0.0627(6)
H16 H 0.9610 0.2401 0.0700
C51 C 0.9639(3) 0.2924(2) 0.1532(6)
C52 C 0.9530(3) 0.3319(3) 0.1404(6)
H17 H 0.9594 0.3480 0.2004
C53 C 0.9327(4) 0.3499(3) 0.0421(7)
Tb5 Tb 0.90546(2) 0.22108(2) 0.67329(3)
Co8 Co 0.87077(6) 0.5000 0.11531(13)
O32 O 0.9483(2) 0.22474(16) 0.4933(5)
O38 O 0.9216(2) 0.30792(17) 0.4814(6)
H20 H 0.965817 0.364977 0.49557
O11 O 0.9855(2) 0.2467(2) 0.7255(5)
N13 N 0.8334(3) 0.0647(2) 0.1281(6)
N14 N 0.7876(3) 0.0469(2) 0.1032(7)
N15 N 0.7631(3) 0.0636(2) 0.1603(7)
N16 N 0.7917(3) 0.0919(3) 0.2172(7)
N17 N 0.7410(2) 0.07445(18) 0.8367(6)
N18 N 0.7206(2) 0.04484(17) 0.8767(5)
N19 N 0.6708(2) 0.04498(17) 0.8327(5)
N20 N 0.6565(2) 0.07445(18) 0.7610(5)
N23 N 0.8573(5) 0.4358(3) 0.9441(10)
N24 N 0.8660(5) 0.3953(3) 0.9263(10)
O19 O 0.8839(2) 0.18833(17) 0.5094(5)
O22 O 0.9909(7) 0.1369(5) 0.1252(14)
O23 O 0.8127(2) 0.22481(17) 0.6246(5)
O24 O 0.8478(2) 0.17046(16) 0.7070(5)
O25 O 0.6240(2) 0.22410(15) 0.4385(4)
O26 O 0.5784(2) 0.19208(17) 0.5186(6)
O27 O 0.8964(3) 0.2766(2) 0.7782(5)
O28 O 0.9263(2) 0.22267(19) 0.8695(4)
C28 C 0.9151(3) 0.1955(2) 0.4657(6)
C29 C 0.9980(7) 0.1511(6) 0.2121(15)
C30 C 0.8355(3) 0.0920(3) 0.1989(8)
C31 C 0.9165(3) 0.1697(2) 0.3753(6)
C32 C 0.9577(3) 0.1703(2) 0.3433(6)
H10 H 0.9846 0.1881 0.3758
C33 C 0.9598(3) 0.1449(3) 0.2632(7)
C34 C 0.9188(4) 0.1189(3) 0.2181(7)
H11 H 0.9192 0.1014 0.1643
C35 C 0.8780(3) 0.1183(3) 0.2505(7)
C36 C 0.8773(3) 0.1432(2) 0.3287(6)
H12 H 0.8496 0.1424 0.3516
C37 C 0.8095(3) 0.1910(2) 0.6628(7)
C38 C 0.6195(3) 0.2002(2) 0.5041(6)
C39 C 0.7009(3) 0.0923(2) 0.7643(6)
C40 C 0.7575(3) 0.1754(2) 0.6522(7)
C41 C 0.7138(3) 0.1940(2) 0.5873(6)
H13 H 0.7167 0.2167 0.5487
C42 C 0.6652(3) 0.1801(2) 0.5767(6)
C43 C 0.6607(3) 0.1464(2) 0.6376(6)
H14 H 0.6287 0.1370 0.6336
C44 C 0.7053(3) 0.1273(2) 0.7040(6)
C45 C 0.7534(3) 0.1426(2) 0.7114(6)
H15 H 0.7829 0.1303 0.7573
C46 C 0.9162(3) 0.2588(3) 0.8627(7)
C49 C 0.9331(3) 0.2852(3) 0.9623(6)
C54 C 0.9240(4) 0.3253(3) 0.9533(7)
H18 H 0.9115 0.3370 0.8860
Tb7 Tb 0.59454(2) 0.27892(2) 0.32671(3)
Co6 Co 0.75626(6) 0.0000 0.99201(13)
Co7 Co 0.62923(6) 0.0000 0.88469(13)
O36 O 0.8760(2) 0.27590(15) 0.5615(4)
Co10 Co 0.86909(15) 0.5000 0.8755(3)
Co6_2 Co 0.75626(6) 1.0000 0.99201(13)
Co7_2 Co 0.62923(6) 1.0000 0.88469(13)
H20_2 H 0.034183 0.364977 0.50443
O14_3 O 0.6901(3) 0.0000 0.0287(6)
O17_3 O 0.5856(7) 0.0000 0.2185(14)
Co3_3 Co 0.63091(15) 0.0000 0.1245(3)
O18_2 O 0.6744(11) 0.0451(7) 0.223(2)
N32_2 N 0.6427(5) 0.0642(3) 0.0559(10)
H27_2 H 0.593169 0.0246843 0.264024
H28_3 H 0.548901 3.49061e-18 0.172182
O15_3 O 0.8218(3) 0.0000 0.9492(9)
O16_3 O 0.5681(3) 0.0000 0.7414(8)
N30_2 N 0.6066(5) 0.0508(3) 0.9603(10)
H19_2 H 0.992224 0.364977 0.562056
H21_2 H 0.837201 0.027638 0.960052
O14_4 O 0.6901(3) 1.0000 0.0287(6)
O17_4 O 0.5856(7) 1.0000 0.2185(14)
Co3_4 Co 0.63091(15) 1.0000 0.1245(3)
O31_2 O 0.6744(11) 0.9549(7) 0.223(2)
N26_2 N 0.7876(3) 0.9531(2) 0.1032(7)
N31_2 N 0.6427(5) 0.9358(3) 0.0559(10)
H28_4 H 0.548901 1 0.172182
O15_4 O 0.8218(3) 1.0000 0.9492(9)
O16_4 O 0.5681(3) 1.0000 0.7414(8)
N27_2 N 0.7206(2) 0.95516(17) 0.8767(5)
N28_2 N 0.6708(2) 0.95502(17) 0.8327(5)
N29_2 N 0.6066(5) 0.9492(3) 0.9603(10)
H22_2 H 0.847092 0.980146 0.994049
H23_2 H 0.580261 0.991952 0.683402
H24_2 H 0.541792 0.980344 0.745035
Tb10_2 Tb 0.0000 0.71959(2) 0.5000
Co4_3 Co 0.74374(6) 0.5000 0.00799(13)
Tb1_2 Tb 0.59454(2) 0.72108(2) 0.32671(3)
Tb2_3 Tb 0.5000 0.78041(2) 0.5000
N1_2 N 0.6666(3) 0.5647(2) 0.8719(6)
N2_2 N 0.7124(3) 0.5469(2) 0.8968(7)
N3_2 N 0.7369(3) 0.5636(2) 0.8397(7)
N4_2 N 0.7083(3) 0.5919(3) 0.7828(7)
N5_2 N 0.7590(2) 0.57445(18) 0.1633(6)
N6_2 N 0.7794(2) 0.54484(17) 0.1233(5)
N7_2 N 0.8292(2) 0.54498(17) 0.1673(5)
N8_2 N 0.8435(2) 0.57445(18) 0.2390(5)
N12_2 N 0.6340(5) 0.8953(3) 0.0737(10)
O1_2 O 0.6161(2) 0.68833(17) 0.4906(5)
O2_2 O 0.5517(2) 0.72474(16) 0.5067(5)
O3_2 O 0.4567(2) 0.66452(17) 0.7230(5)
O4_2 O 0.5091(7) 0.6369(5) 0.8748(14)
O5_2 O 0.6873(2) 0.72481(17) 0.3754(5)
O6_2 O 0.6522(2) 0.67046(16) 0.2930(5)
O7_2 O 0.8760(2) 0.72410(15) 0.5615(4)
O8_2 O 0.9216(2) 0.69208(17) 0.4814(6)
O9_2 O 0.6036(3) 0.7766(2) 0.2218(5)
O10_2 O 0.5737(2) 0.72267(19) 0.1305(4)
O13_3 O 0.5000 0.8549(4) 0.5000
O15_5 O 0.6782(3) 0.5000 0.0508(9)
O16_5 O 0.9319(3) 0.5000 0.2586(8)
C1_2 C 0.5849(3) 0.6955(2) 0.5343(6)
C2_2 C 0.5020(7) 0.6511(6) 0.7879(15)
C3_2 C 0.6645(3) 0.5920(3) 0.8011(8)
C4_2 C 0.5835(3) 0.6697(2) 0.6247(6)
C5_2 C 0.5423(3) 0.6703(2) 0.6567(6)
H1_2 H 0.5154 0.6881 0.6242
C6_2 C 0.5402(3) 0.6449(3) 0.7368(7)
C7_2 C 0.5812(4) 0.6189(3) 0.7819(7)
H2_2 H 0.5808 0.6014 0.8357
C8_2 C 0.6220(3) 0.6183(3) 0.7495(7)
C9_2 C 0.6227(3) 0.6432(2) 0.6713(6)
H3_2 H 0.6504 0.6424 0.6484
C10_2 C 0.6905(3) 0.6910(2) 0.3372(7)
C11_2 C 0.8805(3) 0.7002(2) 0.4959(6)
C12_2 C 0.7991(3) 0.5923(2) 0.2357(6)
C13_2 C 0.7425(3) 0.6754(2) 0.3478(7)
C14_2 C 0.7862(3) 0.6940(2) 0.4127(6)
H4_2 H 0.7833 0.7167 0.4513
C15_2 C 0.8348(3) 0.6801(2) 0.4233(6)
C16_2 C 0.8393(3) 0.6464(2) 0.3624(6)
H5_2 H 0.8713 0.6370 0.3664
C17_2 C 0.7947(3) 0.6273(2) 0.2960(6)
C18_2 C 0.7466(3) 0.6426(2) 0.2886(6)
H6_2 H 0.7171 0.6303 0.2427
C19_2 C 0.5838(3) 0.7588(3) 0.1373(7)
C22_2 C 0.5669(3) 0.7852(3) 0.0377(6)
C27_2 C 0.5760(4) 0.8253(3) 0.0467(7)
H9_2 H 0.5885 0.8370 0.1140
N21_2 N 0.4207(3) 0.91783(19) 0.1027(6)
O29_2 O 0.5145(2) 0.7467(2) 0.2745(5)
O30_2 O 0.4731(3) 0.7913(2) 0.3256(5)
C47_2 C 0.4834(4) 0.7754(3) 0.2558(7)
C48_2 C 0.4088(6) 0.8898(5) 0.0199(10)
C50_2 C 0.4538(3) 0.7678(3) 0.0627(6)
H16_2 H 0.4610 0.7401 0.0700
C51_2 C 0.4639(3) 0.7924(2) 0.1532(6)
C52_2 C 0.4530(3) 0.8319(3) 0.1404(6)
H17_2 H 0.4594 0.8480 0.2004
C53_2 C 0.4327(4) 0.8499(3) 0.0421(7)
Tb5_2 Tb 0.40546(2) 0.72108(2) 0.67329(3)
Tb6_2 Tb 0.90546(2) 0.77892(2) 0.67329(3)
Tb10_3 Tb 1.0000 0.71959(2) 0.5000
N27_3 N 0.7794(2) 0.45516(17) 0.1233(5)
N28_3 N 0.8292(2) 0.45502(17) 0.1673(5)
N30_3 N 0.8934(5) 0.5508(3) 0.0397(10)
O32_2 O 0.4483(2) 0.72474(16) 0.4933(5)
O34_2 O 0.5433(2) 0.66452(17) 0.2770(5)
O35_2 O 0.6240(2) 0.77590(15) 0.4385(4)
O37_2 O 0.5784(2) 0.80792(17) 0.5186(6)
O38_2 O 0.4216(2) 0.80792(17) 0.4814(6)
O39_2 O 0.5269(3) 0.7913(2) 0.6744(5)
N9_2 N 0.5793(3) 0.91783(19) 0.8973(6)
O11_2 O 0.4855(2) 0.7467(2) 0.7255(5)
O14_5 O 0.8099(3) 0.5000 0.9713(6)
C20_2 C 0.5166(4) 0.7754(3) 0.7442(7)
C21_2 C 0.5912(6) 0.8898(5) 0.9801(10)
C23_2 C 0.5462(3) 0.7678(3) 0.9373(6)
H7_2 H 0.5390 0.7401 0.9300
C24_2 C 0.5361(3) 0.7924(2) 0.8468(6)
C25_2 C 0.5470(3) 0.8319(3) 0.8596(6)
H8_2 H 0.5406 0.8480 0.7996
C26_2 C 0.5673(4) 0.8499(3) 0.9579(7)
O17_5 O 0.9144(7) 0.5000 0.7815(14)
O18_3 O 0.8256(11) 0.5451(7) 0.777(2)
N13_2 N 0.3334(3) 0.5647(2) 0.1281(6)
N14_2 N 0.2876(3) 0.5469(2) 0.1032(7)
N15_2 N 0.2631(3) 0.5636(2) 0.1603(7)
N16_2 N 0.2917(3) 0.5919(3) 0.2172(7)
N17_2 N 0.2410(2) 0.57445(18) 0.8367(6)
N18_2 N 0.2206(2) 0.54484(17) 0.8767(5)
N19_2 N 0.1708(2) 0.54498(17) 0.8327(5)
N20_2 N 0.1565(2) 0.57445(18) 0.7610(5)
N24_2 N 0.3660(5) 0.8953(3) 0.9263(10)
O19_2 O 0.3839(2) 0.68833(17) 0.5094(5)
O22_2 O 0.4909(7) 0.6369(5) 0.1252(14)
O23_2 O 0.3127(2) 0.72481(17) 0.6246(5)
O24_2 O 0.3478(2) 0.67046(16) 0.7070(5)
O25_2 O 0.1240(2) 0.72410(15) 0.4385(4)
O26_2 O 0.0784(2) 0.69208(17) 0.5186(6)
O27_2 O 0.3964(3) 0.7766(2) 0.7782(5)
O28_2 O 0.4263(2) 0.72267(19) 0.8695(4)
C28_2 C 0.4151(3) 0.6955(2) 0.4657(6)
C29_2 C 0.4980(7) 0.6511(6) 0.2121(15)
C30_2 C 0.3355(3) 0.5920(3) 0.1989(8)
C31_2 C 0.4165(3) 0.6697(2) 0.3753(6)
C32_2 C 0.4577(3) 0.6703(2) 0.3433(6)
H10_2 H 0.4846 0.6881 0.3758
C33_2 C 0.4598(3) 0.6449(3) 0.2632(7)
C34_2 C 0.4188(4) 0.6189(3) 0.2181(7)
H11_2 H 0.4192 0.6014 0.1643
C35_2 C 0.3780(3) 0.6183(3) 0.2505(7)
C36_2 C 0.3773(3) 0.6432(2) 0.3287(6)
H12_2 H 0.3496 0.6424 0.3516
C37_2 C 0.3095(3) 0.6910(2) 0.6628(7)
C38_2 C 0.1195(3) 0.7002(2) 0.5041(6)
C39_2 C 0.2009(3) 0.5923(2) 0.7643(6)
C40_2 C 0.2575(3) 0.6754(2) 0.6522(7)
C41_2 C 0.2138(3) 0.6940(2) 0.5873(6)
H13_2 H 0.2167 0.7167 0.5487
C42_2 C 0.1652(3) 0.6801(2) 0.5767(6)
C43_2 C 0.1607(3) 0.6464(2) 0.6376(6)
H14_2 H 0.1287 0.6370 0.6336
C44_2 C 0.2053(3) 0.6273(2) 0.7040(6)
C45_2 C 0.2534(3) 0.6426(2) 0.7114(6)
H15_2 H 0.2829 0.6303 0.7573
C46_2 C 0.4162(3) 0.7588(3) 0.8627(7)
C49_2 C 0.4331(3) 0.7852(3) 0.9623(6)
C54_2 C 0.4240(4) 0.8253(3) 0.9533(7)
H18_2 H 0.4115 0.8370 0.8860
O31_3 O 0.8256(11) 0.4549(7) 0.777(2)
Tb7_2 Tb 0.09454(2) 0.77892(2) 0.32671(3)
Co6_3 Co 0.25626(6) 0.5000 0.99201(13)
N26_3 N 0.7124(3) 0.4531(2) 0.8968(7)
N32_3 N 0.8573(5) 0.5642(3) 0.9441(10)
O36_2 O 0.3760(2) 0.77590(15) 0.5615(4)
O14_6 O 0.1901(3) 0.5000 0.0287(6)
O17_6 O 0.0856(7) 0.5000 0.2185(14)
O18_4 O 0.1744(11) 0.5451(7) 0.223(2)
O31_4 O 0.1744(11) 0.4549(7) 0.223(2)
N26_4 N 0.2876(3) 0.4531(2) 0.1032(7)
N32_4 N 0.1427(5) 0.5642(3) 0.0559(10)
O15_6 O 0.3218(3) 0.5000 0.9492(9)
O16_6 O 0.0681(3) 0.5000 0.7414(8)
N27_4 N 0.2206(2) 0.45516(17) 0.8767(5)
N28_4 N 0.1708(2) 0.45502(17) 0.8327(5)
N30_4 N 0.1066(5) 0.5508(3) 0.9603(10)
O11_3 O 0.0145(2) 0.7533(2) 0.2745(5)
N13_3 N 0.1666(3) 0.9353(2) 0.8719(6)
N15_3 N 0.2369(3) 0.9364(2) 0.8397(7)
N16_3 N 0.2083(3) 0.9081(3) 0.7828(7)
N17_3 N 0.2590(2) 0.92555(18) 0.1633(6)
N20_3 N 0.3435(2) 0.92555(18) 0.2390(5)
N24_3 N 0.1340(5) 0.6047(3) 0.0737(10)
O19_3 O 0.1161(2) 0.81167(17) 0.4906(5)
O20 O 0.0517(2) 0.77526(16) 0.5067(5)
O22_3 O 0.0091(7) 0.8631(5) 0.8748(14)
O23_3 O 0.1873(2) 0.77519(17) 0.3754(5)
O24_3 O 0.1522(2) 0.82954(16) 0.2930(5)
O27_3 O 0.1036(3) 0.7234(2) 0.2218(5)
O28_3 O 0.0737(2) 0.77733(19) 0.1305(4)
C28_3 C 0.0849(3) 0.8045(2) 0.5343(6)
C29_3 C 0.0020(7) 0.8489(6) 0.7879(15)
C30_3 C 0.1645(3) 0.9080(3) 0.8011(8)
C31_3 C 0.0835(3) 0.8303(2) 0.6247(6)
C32_3 C 0.0423(3) 0.8297(2) 0.6567(6)
H10_3 H 0.0154 0.8119 0.6242
C33_3 C 0.0402(3) 0.8551(3) 0.7368(7)
C34_3 C 0.0812(4) 0.8811(3) 0.7819(7)
H11_3 H 0.0808 0.8986 0.8357
C35_3 C 0.1220(3) 0.8817(3) 0.7495(7)
C36_3 C 0.1227(3) 0.8568(2) 0.6713(6)
H12_3 H 0.1504 0.8576 0.6484
C37_3 C 0.1905(3) 0.8090(2) 0.3372(7)
C38_3 C 0.3805(3) 0.7998(2) 0.4959(6)
C39_3 C 0.2991(3) 0.9077(2) 0.2357(6)
C40_3 C 0.2425(3) 0.8246(2) 0.3478(7)
C41_3 C 0.2862(3) 0.8060(2) 0.4127(6)
H13_3 H 0.2833 0.7833 0.4513
C42_3 C 0.3348(3) 0.8199(2) 0.4233(6)
C43_3 C 0.3393(3) 0.8536(2) 0.3624(6)
H14_3 H 0.3713 0.8630 0.3664
C44_3 C 0.2947(3) 0.8727(2) 0.2960(6)
C45_3 C 0.2466(3) 0.8574(2) 0.2886(6)
H15_3 H 0.2171 0.8697 0.2427
C46_3 C 0.0838(3) 0.7412(3) 0.1373(7)
C49_3 C 0.0669(3) 0.7148(3) 0.0377(6)
C54_3 C 0.0760(4) 0.6747(3) 0.0467(7)
H18_3 H 0.0885 0.6630 0.1140
O33 O 0.0433(2) 0.83548(17) 0.2770(5)
O13_4 O 0.0000 0.6451(4) 0.5000
N21_3 N 0.0793(3) 0.58217(19) 0.8973(6)
O30_3 O 0.0269(3) 0.7087(2) 0.6744(5)
C47_3 C 0.0166(4) 0.7246(3) 0.7442(7)
C48_3 C 0.0912(6) 0.6102(5) 0.9801(10)
C50_3 C 0.0462(3) 0.7322(3) 0.9373(6)
H16_3 H 0.0390 0.7599 0.9300
C51_3 C 0.0361(3) 0.7076(2) 0.8468(6)
C52_3 C 0.0470(3) 0.6681(3) 0.8596(6)
H17_3 H 0.0406 0.6520 0.7996
C53_3 C 0.0673(4) 0.6501(3) 0.9579(7)
H20_3 H 0.034183 0.635023 0.50443
H22_3 H 0.847092 0.019854 0.994049
H23_3 H 0.580261 0.00804786 0.683402
H24_3 H 0.541792 0.019656 0.745035
N9_3 N 0.9207(3) 0.58217(19) 0.1027(6)
O12 O 0.9731(3) 0.7087(2) 0.3256(5)
C20_3 C 0.9834(4) 0.7246(3) 0.2558(7)
C21_3 C 0.9088(6) 0.6102(5) 0.0199(10)
C23_3 C 0.9538(3) 0.7322(3) 0.0627(6)
H7_3 H 0.9610 0.7599 0.0700
C24_3 C 0.9639(3) 0.7076(2) 0.1532(6)
C25_3 C 0.9530(3) 0.6681(3) 0.1404(6)
H8_3 H 0.9594 0.6520 0.2004
C26_3 C 0.9327(4) 0.6501(3) 0.0421(7)
O21 O 0.9567(2) 0.83548(17) 0.7230(5)
H27_3 H 0.593169 0.975316 0.264024
N1_3 N 0.8334(3) 0.9353(2) 0.1281(6)
N3_3 N 0.7631(3) 0.9364(2) 0.1603(7)
N4_3 N 0.7917(3) 0.9081(3) 0.2172(7)
N5_3 N 0.7410(2) 0.92555(18) 0.8367(6)
N8_3 N 0.6565(2) 0.92555(18) 0.7610(5)
N12_3 N 0.8660(5) 0.6047(3) 0.9263(10)
O1_3 O 0.8839(2) 0.81167(17) 0.5094(5)
O2_3 O 0.9483(2) 0.77526(16) 0.4933(5)
O4_3 O 0.9909(7) 0.8631(5) 0.1252(14)
O5_3 O 0.8127(2) 0.77519(17) 0.6246(5)
O6_3 O 0.8478(2) 0.82954(16) 0.7070(5)
O9_3 O 0.8964(3) 0.7234(2) 0.7782(5)
O10_3 O 0.9263(2) 0.77733(19) 0.8695(4)
O13_5 O 1.0000 0.6451(4) 0.5000
C1_3 C 0.9151(3) 0.8045(2) 0.4657(6)
C2_3 C 0.9980(7) 0.8489(6) 0.2121(15)
C3_3 C 0.8355(3) 0.9080(3) 0.1989(8)
C4_3 C 0.9165(3) 0.8303(2) 0.3753(6)
C5_3 C 0.9577(3) 0.8297(2) 0.3433(6)
H1_3 H 0.9846 0.8119 0.3758
C6_3 C 0.9598(3) 0.8551(3) 0.2632(7)
C7_3 C 0.9188(4) 0.8811(3) 0.2181(7)
H2_3 H 0.9192 0.8986 0.1643
C8_3 C 0.8780(3) 0.8817(3) 0.2505(7)
C9_3 C 0.8773(3) 0.8568(2) 0.3287(6)
H3_3 H 0.8496 0.8576 0.3516
C10_3 C 0.8095(3) 0.8090(2) 0.6628(7)
C11_3 C 0.6195(3) 0.7998(2) 0.5041(6)
C12_3 C 0.7009(3) 0.9077(2) 0.7643(6)
C13_3 C 0.7575(3) 0.8246(2) 0.6522(7)
C14_3 C 0.7138(3) 0.8060(2) 0.5873(6)
H4_3 H 0.7167 0.7833 0.5487
C15_3 C 0.6652(3) 0.8199(2) 0.5767(6)
C16_3 C 0.6607(3) 0.8536(2) 0.6376(6)
H5_3 H 0.6287 0.8630 0.6336
C17_3 C 0.7053(3) 0.8727(2) 0.7040(6)
C18_3 C 0.7534(3) 0.8574(2) 0.7114(6)
H6_3 H 0.7829 0.8697 0.7573
C19_3 C 0.9162(3) 0.7412(3) 0.8627(7)
C22_3 C 0.9331(3) 0.7148(3) 0.9623(6)
C27_3 C 0.9240(4) 0.6747(3) 0.9533(7)
H9_3 H 0.9115 0.6630 0.8860
O29_3 O 0.9855(2) 0.7533(2) 0.7255(5)
H19_3 H 0.992224 0.635023 0.562056
H21_3 H 0.837201 0.972362 0.960052
H22_4 H 0.152908 0.019854 0.00595085
H23_4 H 0.419739 0.00804786 0.316598
H24_4 H 0.458208 0.019656 0.254965
H19_4 H 0.00777635 0.635023 0.437944
H21_4 H 0.162799 0.972362 0.0399484
H27_4 H 0.406831 0.975316 0.735976
H20_4 H 0.965817 0.635023 0.49557
N9_4 N 0.4207(3) 0.08217(19) 0.1027(6)
O11_4 O 0.5145(2) 0.2533(2) 0.2745(5)
O12_2 O 0.4731(3) 0.2087(2) 0.3256(5)
C20_4 C 0.4834(4) 0.2246(3) 0.2558(7)
C21_4 C 0.4088(6) 0.1102(5) 0.0199(10)
C23_4 C 0.4538(3) 0.2322(3) 0.0627(6)
H7_4 H 0.4610 0.2599 0.0700
C24_4 C 0.4639(3) 0.2076(2) 0.1532(6)
C25_4 C 0.4530(3) 0.1681(3) 0.1404(6)
H8_4 H 0.4594 0.1520 0.2004
C26_4 C 0.4327(4) 0.1501(3) 0.0421(7)
N13_4 N 0.6666(3) 0.4353(2) 0.8719(6)
N15_4 N 0.7369(3) 0.4364(2) 0.8397(7)
N16_4 N 0.7083(3) 0.4081(3) 0.7828(7)
N17_4 N 0.7590(2) 0.42555(18) 0.1633(6)
N20_4 N 0.8435(2) 0.42555(18) 0.2390(5)
N24_4 N 0.6340(5) 0.1047(3) 0.0737(10)
O19_4 O 0.6161(2) 0.31167(17) 0.4906(5)
O20_2 O 0.5517(2) 0.27526(16) 0.5067(5)
O21_2 O 0.4567(2) 0.33548(17) 0.7230(5)
O22_4 O 0.5091(7) 0.3631(5) 0.8748(14)
O23_4 O 0.6873(2) 0.27519(17) 0.3754(5)
O24_4 O 0.6522(2) 0.32954(16) 0.2930(5)
O27_4 O 0.6036(3) 0.2234(2) 0.2218(5)
O28_4 O 0.5737(2) 0.27733(19) 0.1305(4)
C28_4 C 0.5849(3) 0.3045(2) 0.5343(6)
C29_4 C 0.5020(7) 0.3489(6) 0.7879(15)
C30_4 C 0.6645(3) 0.4080(3) 0.8011(8)
C31_4 C 0.5835(3) 0.3303(2) 0.6247(6)
C32_4 C 0.5423(3) 0.3297(2) 0.6567(6)
H10_4 H 0.5154 0.3119 0.6242
C33_4 C 0.5402(3) 0.3551(3) 0.7368(7)
C34_4 C 0.5812(4) 0.3811(3) 0.7819(7)
H11_4 H 0.5808 0.3986 0.8357
C35_4 C 0.6220(3) 0.3817(3) 0.7495(7)
C36_4 C 0.6227(3) 0.3568(2) 0.6713(6)
H12_4 H 0.6504 0.3576 0.6484
C37_4 C 0.6905(3) 0.3090(2) 0.3372(7)
C38_4 C 0.8805(3) 0.2998(2) 0.4959(6)
C39_4 C 0.7991(3) 0.4077(2) 0.2357(6)
C40_4 C 0.7425(3) 0.3246(2) 0.3478(7)
C41_4 C 0.7862(3) 0.3060(2) 0.4127(6)
H13_4 H 0.7833 0.2833 0.4513
C42_4 C 0.8348(3) 0.3199(2) 0.4233(6)
C43_4 C 0.8393(3) 0.3536(2) 0.3624(6)
H14_4 H 0.8713 0.3630 0.3664
C44_4 C 0.7947(3) 0.3727(2) 0.2960(6)
C45_4 C 0.7466(3) 0.3574(2) 0.2886(6)
H15_4 H 0.7171 0.3697 0.2427
C46_4 C 0.5838(3) 0.2412(3) 0.1373(7)
C49_4 C 0.5669(3) 0.2148(3) 0.0377(6)
C54_4 C 0.5760(4) 0.1747(3) 0.0467(7)
H18_4 H 0.5885 0.1630 0.1140
O33_2 O 0.5433(2) 0.33548(17) 0.2770(5)
N1_4 N 0.3334(3) 0.4353(2) 0.1281(6)
N3_4 N 0.2631(3) 0.4364(2) 0.1603(7)
N4_4 N 0.2917(3) 0.4081(3) 0.2172(7)
N5_4 N 0.2410(2) 0.42555(18) 0.8367(6)
N8_4 N 0.1565(2) 0.42555(18) 0.7610(5)
N12_4 N 0.3660(5) 0.1047(3) 0.9263(10)
O1_4 O 0.3839(2) 0.31167(17) 0.5094(5)
O2_4 O 0.4483(2) 0.27526(16) 0.4933(5)
O4_4 O 0.4909(7) 0.3631(5) 0.1252(14)
O5_4 O 0.3127(2) 0.27519(17) 0.6246(5)
O6_4 O 0.3478(2) 0.32954(16) 0.7070(5)
O9_4 O 0.3964(3) 0.2234(2) 0.7782(5)
O10_4 O 0.4263(2) 0.27733(19) 0.8695(4)
O13_6 O 0.5000 0.1451(4) 0.5000
C1_4 C 0.4151(3) 0.3045(2) 0.4657(6)
C2_4 C 0.4980(7) 0.3489(6) 0.2121(15)
C3_4 C 0.3355(3) 0.4080(3) 0.1989(8)
C4_4 C 0.4165(3) 0.3303(2) 0.3753(6)
C5_4 C 0.4577(3) 0.3297(2) 0.3433(6)
H1_4 H 0.4846 0.3119 0.3758
C6_4 C 0.4598(3) 0.3551(3) 0.2632(7)
C7_4 C 0.4188(4) 0.3811(3) 0.2181(7)
H2_4 H 0.4192 0.3986 0.1643
C8_4 C 0.3780(3) 0.3817(3) 0.2505(7)
C9_4 C 0.3773(3) 0.3568(2) 0.3287(6)
H3_4 H 0.3496 0.3576 0.3516
C10_4 C 0.3095(3) 0.3090(2) 0.6628(7)
C11_4 C 0.1195(3) 0.2998(2) 0.5041(6)
C12_4 C 0.2009(3) 0.4077(2) 0.7643(6)
C13_4 C 0.2575(3) 0.3246(2) 0.6522(7)
C14_4 C 0.2138(3) 0.3060(2) 0.5873(6)
H4_4 H 0.2167 0.2833 0.5487
C15_4 C 0.1652(3) 0.3199(2) 0.5767(6)
C16_4 C 0.1607(3) 0.3536(2) 0.6376(6)
H5_4 H 0.1287 0.3630 0.6336
C17_4 C 0.2053(3) 0.3727(2) 0.7040(6)
C18_4 C 0.2534(3) 0.3574(2) 0.7114(6)
H6_4 H 0.2829 0.3697 0.7573
C19_4 C 0.4162(3) 0.2412(3) 0.8627(7)
C22_4 C 0.4331(3) 0.2148(3) 0.9623(6)
C27_4 C 0.4240(4) 0.1747(3) 0.9533(7)
H9_4 H 0.4115 0.1630 0.8860
N21_4 N 0.5793(3) 0.08217(19) 0.8973(6)
O29_4 O 0.4855(2) 0.2533(2) 0.7255(5)
O30_4 O 0.5269(3) 0.2087(2) 0.6744(5)
C47_4 C 0.5166(4) 0.2246(3) 0.7442(7)
C48_4 C 0.5912(6) 0.1102(5) 0.9801(10)
C50_4 C 0.5462(3) 0.2322(3) 0.9373(6)
H16_4 H 0.5390 0.2599 0.9300
C51_4 C 0.5361(3) 0.2076(2) 0.8468(6)
C52_4 C 0.5470(3) 0.1681(3) 0.8596(6)
H17_4 H 0.5406 0.1520 0.7996
C53_4 C 0.5673(4) 0.1501(3) 0.9579(7)
loop_
_geom_bond_atom_site_label_1
_geom_bond_atom_site_label_2
_geom_bond_site_symmetry_1
_geom_bond_site_symmetry_2
Tb1 O1 1_555 1_555
Tb2 O2 1_555 1_555
Co4 N6 1_555 1_555
Co2 N7 1_555 1_555
N1 N2 1_555 1_555
N2 N3 1_555 1_555
N3 N4 1_555 1_555
N4 C3 1_555 1_555
N5 N6 1_555 1_555
N6 N7 1_555 1_555
N7 N8 1_555 1_555
N8 C12 1_555 1_555
N11 N12 1_555 1_555
O1 C1 1_555 1_555
O2 C1 1_555 1_555
O4 C2 1_555 1_555
O5 Tb1 1_555 1_555
O6 Tb1 1_555 1_555
O7 C11 1_555 1_555
O8 C11 1_555 1_555
O9 Tb1 1_555 1_555
O10 Tb1 1_555 1_555
O13 Tb2 1_555 1_555
O15 Co4 1_555 1_555
O16 Co2 1_555 1_555
C1 C4 1_555 1_555
C2 C6 1_555 1_555
C3 N1 1_555 1_555
C4 C5 1_555 1_555
C5 H1 1_555 1_555
C6 C5 1_555 1_555
C7 C6 1_555 1_555
H2 C7 1_555 1_555
C8 C3 1_555 1_555
C9 C4 1_555 1_555
H3 C9 1_555 1_555
C10 O5 1_555 1_555
C11 C15 1_555 1_555
C12 N5 1_555 1_555
C13 C10 1_555 1_555
C14 C13 1_555 1_555
H4 C14 1_555 1_555
C15 C14 1_555 1_555
C16 C15 1_555 1_555
H5 C16 1_555 1_555
C17 C12 1_555 1_555
C18 C13 1_555 1_555
H6 C18 1_555 1_555
C19 O9 1_555 1_555
C22 C19 1_555 1_555
C27 C22 1_555 1_555
H9 C27 1_555 1_555
O29 Tb1 1_555 1_555
Tb6 O7 1_555 1_555
Tb10 O8 1_555 1_555
N30 Co2 1_555 1_555
O34 Tb1 1_555 1_555
O35 Tb1 1_555 1_555
O37 Tb2 1_555 1_555
O39 Tb2 1_555 1_555
Co11 N11 1_555 1_555
O6 C10 1_555 1_555
O10 C19 1_555 1_555
C7 C8 1_555 1_555
C8 C9 1_555 1_555
C16 C17 1_555 1_555
C17 C18 1_555 1_555
O13 H19 1_555 1_555
O15 H21 1_555 1_555
N9 N10 1_555 1_555
O39 C20 1_555 1_555
C20 C24 1_555 1_555
C21 N9 1_555 1_555
H7 C23 1_555 1_555
C24 C23 1_555 1_555
C25 C24 1_555 1_555
H8 C25 1_555 1_555
C26 C21 1_555 1_555
O17 Co3 1_555 1_555
Co3 O14 1_555 1_555
O18 Co3 1_555 1_555
Co9 N10 1_555 1_555
N32 Co3 1_555 1_555
C25 C26 1_555 1_555
O17 H27 1_555 1_555
O17 H28 1_555 1_555
O15_2 Co4_2 1_555 1_555
O16_2 Co2_2 1_555 1_555
N27 Co4_2 1_555 1_555
N28 Co2_2 1_555 1_555
N29 Co2_2 1_555 1_555
N27 N28 1_555 1_555
O15_2 H22 1_555 1_555
O16_2 H23 1_555 1_555
O16_2 H24 1_555 1_555
O17_2 Co3_2 1_555 1_555
Co3_2 O14_2 1_555 1_555
O31 Co3_2 1_555 1_555
N31 Co3_2 1_555 1_555
O17_2 H28_2 1_555 1_555
O13_2 Tb2_2 1_555 1_555
N21 N22 1_555 1_555
O30 Tb2_2 1_555 1_555
C48 N21 1_555 1_555
H16 C50 1_555 1_555
C51 C47 1_555 1_555
C52 C51 1_555 1_555
H17 C52 1_555 1_555
C53 C48 1_555 1_555
Tb5 O3 1_555 1_555
Co8 N22 1_555 1_555
O32 Tb2_2 1_555 1_555
O38 Tb2_2 1_555 1_555
O30 C47 1_555 1_555
C50 C51 1_555 1_555
C52 C53 1_555 1_555
O13_2 H20 1_555 1_555
Tb5 O11 1_555 1_555
N13 N14 1_555 1_555
N14 N15 1_555 1_555
N15 N16 1_555 1_555
N16 C30 1_555 1_555
N17 N18 1_555 1_555
N18 N19 1_555 1_555
N19 N20 1_555 1_555
N20 C39 1_555 1_555
N23 N24 1_555 1_555
O19 Tb5 1_555 1_555
O32 C28 1_555 1_555
O22 C29 1_555 1_555
O23 Tb5 1_555 1_555
O24 Tb5 1_555 1_555
O25 C38 1_555 1_555
O26 C38 1_555 1_555
O27 Tb5 1_555 1_555
O28 Tb5 1_555 1_555
C28 O19 1_555 1_555
C29 C33 1_555 1_555
C30 N13 1_555 1_555
C31 C28 1_555 1_555
C32 C31 1_555 1_555
H10 C32 1_555 1_555
C33 C32 1_555 1_555
C34 C33 1_555 1_555
H11 C34 1_555 1_555
C35 C30 1_555 1_555
C36 C31 1_555 1_555
H12 C36 1_555 1_555
C37 O23 1_555 1_555
C38 C42 1_555 1_555
C39 N17 1_555 1_555
C40 C37 1_555 1_555
C41 C40 1_555 1_555
H13 C41 1_555 1_555
C42 C41 1_555 1_555
C43 C42 1_555 1_555
H14 C43 1_555 1_555
C44 C39 1_555 1_555
C45 C40 1_555 1_555
H15 C45 1_555 1_555
C46 O27 1_555 1_555
C49 C46 1_555 1_555
C54 C49 1_555 1_555
H18 C54 1_555 1_555
Tb7 O25 1_555 1_555
Tb10 O26 1_555 1_555
Co6 N18 1_555 1_555
Co7 N19 1_555 1_555
O36 Tb5 1_555 1_555
Co10 N23 1_555 1_555
O24 C37 1_555 1_555
O28 C46 1_555 1_555
C34 C35 1_555 1_555
C35 C36 1_555 1_555
C43 C44 1_555 1_555
C44 C45 1_555 1_555
O13 H20_2 1_555 1_555
O17_3 Co3_3 1_555 1_555
Co3_3 O14_3 1_555 1_555
O18_2 Co3_3 1_555 1_555
N32_2 Co3_3 1_555 1_555
O17_3 H27_2 1_555 1_555
O17_3 H28_3 1_555 1_555
O15_3 Co6 1_555 1_555
O16_3 Co7 1_555 1_555
N30_2 Co7 1_555 1_555
O13_2 H19_2 1_555 1_555
O15_3 H21_2 1_555 1_555
O17_4 Co3_4 1_555 1_555
Co3_4 O14_4 1_555 1_555
O31_2 Co3_4 1_555 1_555
N31_2 Co3_4 1_555 1_555
O17_4 H28_4 1_555 1_555
O15_4 Co6_2 1_555 1_555
O16_4 Co7_2 1_555 1_555
N27_2 Co6_2 1_555 1_555
N28_2 Co7_2 1_555 1_555
N29_2 Co7_2 1_555 1_555
N27_2 N28_2 1_555 1_555
O15_4 H22_2 1_555 1_555
O16_4 H23_2 1_555 1_555
O16_4 H24_2 1_555 1_555
Tb1_2 O1_2 1_555 1_555
Tb2_3 O2_2 1_555 1_555
Co4_3 N6_2 1_555 1_555
Co8 N7_2 1_555 1_555
N1_2 N2_2 1_555 1_555
N2_2 N3_2 1_555 1_555
N3_2 N4_2 1_555 1_555
N4_2 C3_2 1_555 1_555
N5_2 N6_2 1_555 1_555
N6_2 N7_2 1_555 1_555
N7_2 N8_2 1_555 1_555
N8_2 C12_2 1_555 1_555
N31_2 N12_2 1_555 1_555
O1_2 C1_2 1_555 1_555
O2_2 C1_2 1_555 1_555
O3_2 C2_2 1_555 1_555
O4_2 C2_2 1_555 1_555
O5_2 Tb1_2 1_555 1_555
O6_2 Tb1_2 1_555 1_555
O7_2 C11_2 1_555 1_555
O8_2 C11_2 1_555 1_555
O9_2 Tb1_2 1_555 1_555
O10_2 Tb1_2 1_555 1_555
O13_3 Tb2_3 1_555 1_555
O15_5 Co4_3 1_555 1_555
O16_5 Co8 1_555 1_555
C1_2 C4_2 1_555 1_555
C2_2 C6_2 1_555 1_555
C3_2 N1_2 1_555 1_555
C4_2 C5_2 1_555 1_555
C5_2 H1_2 1_555 1_555
C6_2 C5_2 1_555 1_555
C7_2 C6_2 1_555 1_555
H2_2 C7_2 1_555 1_555
C8_2 C3_2 1_555 1_555
C9_2 C4_2 1_555 1_555
H3_2 C9_2 1_555 1_555
C10_2 O5_2 1_555 1_555
C11_2 C15_2 1_555 1_555
C12_2 N5_2 1_555 1_555
C13_2 C10_2 1_555 1_555
C14_2 C13_2 1_555 1_555
H4_2 C14_2 1_555 1_555
C15_2 C14_2 1_555 1_555
C16_2 C15_2 1_555 1_555
H5_2 C16_2 1_555 1_555
C17_2 C12_2 1_555 1_555
C18_2 C13_2 1_555 1_555
H6_2 C18_2 1_555 1_555
C19_2 O9_2 1_555 1_555
C22_2 C19_2 1_555 1_555
C27_2 C22_2 1_555 1_555
H9_2 C27_2 1_555 1_555
N21_2 N29 1_555 1_555
O29_2 Tb1_2 1_555 1_555
O30_2 Tb2_3 1_555 1_555
C47_2 O29_2 1_555 1_555
C48_2 N21_2 1_555 1_555
H16_2 C50_2 1_555 1_555
C51_2 C47_2 1_555 1_555
C52_2 C51_2 1_555 1_555
H17_2 C52_2 1_555 1_555
C53_2 C48_2 1_555 1_555
Tb5_2 O3_2 1_555 1_555
Tb6_2 O7_2 1_555 1_555
Tb10_3 O8_2 1_555 1_555
N27_3 Co4_3 1_555 1_555
N28_3 Co8 1_555 1_555
N30_3 Co8 1_555 1_555
O32_2 Tb2_3 1_555 1_555
O34_2 Tb1_2 1_555 1_555
O35_2 Tb1_2 1_555 1_555
O37_2 Tb2_3 1_555 1_555
O38_2 Tb2_3 1_555 1_555
O39_2 Tb2_3 1_555 1_555
O6_2 C10_2 1_555 1_555
O10_2 C19_2 1_555 1_555
C7_2 C8_2 1_555 1_555
C8_2 C9_2 1_555 1_555
C16_2 C17_2 1_555 1_555
C17_2 C18_2 1_555 1_555
O30_2 C47_2 1_555 1_555
C50_2 C51_2 1_555 1_555
C52_2 C53_2 1_555 1_555
N27_3 N28_3 1_555 1_555
N9_2 N29_2 1_555 1_555
O11_2 C20_2 1_555 1_555
O39_2 C20_2 1_555 1_555
C20_2 C24_2 1_555 1_555
C21_2 N9_2 1_555 1_555
H7_2 C23_2 1_555 1_555
C24_2 C23_2 1_555 1_555
C25_2 C24_2 1_555 1_555
H8_2 C25_2 1_555 1_555
C26_2 C21_2 1_555 1_555
O17_5 Co10 1_555 1_555
Co10 O14_5 1_555 1_555
O18_3 Co10 1_555 1_555
Tb5_2 O11_2 1_555 1_555
N13_2 N14_2 1_555 1_555
N14_2 N15_2 1_555 1_555
N15_2 N16_2 1_555 1_555
N16_2 C30_2 1_555 1_555
N17_2 N18_2 1_555 1_555
N18_2 N19_2 1_555 1_555
N19_2 N20_2 1_555 1_555
N20_2 C39_2 1_555 1_555
N31 N24_2 1_555 1_555
O19_2 Tb5_2 1_555 1_555
O32_2 C28_2 1_555 1_555
O34_2 C29_2 1_555 1_555
O22_2 C29_2 1_555 1_555
O23_2 Tb5_2 1_555 1_555
O24_2 Tb5_2 1_555 1_555
O25_2 C38_2 1_555 1_555
O26_2 C38_2 1_555 1_555
O27_2 Tb5_2 1_555 1_555
O28_2 Tb5_2 1_555 1_555
C28_2 O19_2 1_555 1_555
C29_2 C33_2 1_555 1_555
C30_2 N13_2 1_555 1_555
C31_2 C28_2 1_555 1_555
C32_2 C31_2 1_555 1_555
H10_2 C32_2 1_555 1_555
C33_2 C32_2 1_555 1_555
C34_2 C33_2 1_555 1_555
H11_2 C34_2 1_555 1_555
C35_2 C30_2 1_555 1_555
C36_2 C31_2 1_555 1_555
H12_2 C36_2 1_555 1_555
C37_2 O23_2 1_555 1_555
C38_2 C42_2 1_555 1_555
C39_2 N17_2 1_555 1_555
C40_2 C37_2 1_555 1_555
C41_2 C40_2 1_555 1_555
H13_2 C41_2 1_555 1_555
C42_2 C41_2 1_555 1_555
C43_2 C42_2 1_555 1_555
H14_2 C43_2 1_555 1_555
C44_2 C39_2 1_555 1_555
C45_2 C40_2 1_555 1_555
H15_2 C45_2 1_555 1_555
C46_2 O27_2 1_555 1_555
C49_2 C46_2 1_555 1_555
C54_2 C49_2 1_555 1_555
H18_2 C54_2 1_555 1_555
O31_3 Co10 1_555 1_555
Tb7_2 O25_2 1_555 1_555
Tb10_2 O26_2 1_555 1_555
Co6_3 N18_2 1_555 1_555
Co9 N19_2 1_555 1_555
N32_3 Co10 1_555 1_555
O36_2 Tb5_2 1_555 1_555
C25_2 C26_2 1_555 1_555
O24_2 C37_2 1_555 1_555
O28_2 C46_2 1_555 1_555
C34_2 C35_2 1_555 1_555
C35_2 C36_2 1_555 1_555
C43_2 C44_2 1_555 1_555
C44_2 C45_2 1_555 1_555
O17_6 Co11 1_555 1_555
Co11 O14_6 1_555 1_555
O18_4 Co11 1_555 1_555
O31_4 Co11 1_555 1_555
N32_4 Co11 1_555 1_555
O15_6 Co6_3 1_555 1_555
O16_6 Co9 1_555 1_555
N27_4 Co6_3 1_555 1_555
N28_4 Co9 1_555 1_555
N30_4 Co9 1_555 1_555
N27_4 N28_4 1_555 1_555
Tb7_2 O11_3 1_555 1_555
N13_3 N26 1_555 1_555
N26 N15_3 1_555 1_555
N15_3 N16_3 1_555 1_555
N16_3 C30_3 1_555 1_555
N17_3 N27 1_555 1_555
N28 N20_3 1_555 1_555
N20_3 C39_3 1_555 1_555
N32_4 N24_3 1_555 1_555
O19_3 Tb7_2 1_555 1_555
O20 C28_3 1_555 1_555
O22_3 C29_3 1_555 1_555
O23_3 Tb7_2 1_555 1_555
O24_3 Tb7_2 1_555 1_555
O36_2 C38_3 1_555 1_555
O38_2 C38_3 1_555 1_555
O27_3 Tb7_2 1_555 1_555
O28_3 Tb7_2 1_555 1_555
C28_3 O19_3 1_555 1_555
C29_3 C33_3 1_555 1_555
C30_3 N13_3 1_555 1_555
C31_3 C28_3 1_555 1_555
C32_3 C31_3 1_555 1_555
H10_3 C32_3 1_555 1_555
C33_3 C32_3 1_555 1_555
C34_3 C33_3 1_555 1_555
H11_3 C34_3 1_555 1_555
C35_3 C30_3 1_555 1_555
C36_3 C31_3 1_555 1_555
H12_3 C36_3 1_555 1_555
C37_3 O23_3 1_555 1_555
C38_3 C42_3 1_555 1_555
C39_3 N17_3 1_555 1_555
C40_3 C37_3 1_555 1_555
C41_3 C40_3 1_555 1_555
H13_3 C41_3 1_555 1_555
C42_3 C41_3 1_555 1_555
C43_3 C42_3 1_555 1_555
H14_3 C43_3 1_555 1_555
C44_3 C39_3 1_555 1_555
C45_3 C40_3 1_555 1_555
H15_3 C45_3 1_555 1_555
C46_3 O27_3 1_555 1_555
C49_3 C46_3 1_555 1_555
C54_3 C49_3 1_555 1_555
H18_3 C54_3 1_555 1_555
O33 Tb7_2 1_555 1_555
O20 Tb10_2 1_555 1_555
O24_3 C37_3 1_555 1_555
O28_3 C46_3 1_555 1_555
C34_3 C35_3 1_555 1_555
C35_3 C36_3 1_555 1_555
C43_3 C44_3 1_555 1_555
C44_3 C45_3 1_555 1_555
O13_4 Tb10_2 1_555 1_555
N21_3 N30_4 1_555 1_555
O30_3 Tb10_2 1_555 1_555
C48_3 N21_3 1_555 1_555
H16_3 C50_3 1_555 1_555
C51_3 C47_3 1_555 1_555
C52_3 C51_3 1_555 1_555
H17_3 C52_3 1_555 1_555
C53_3 C48_3 1_555 1_555
O30_3 C47_3 1_555 1_555
C50_3 C51_3 1_555 1_555
C52_3 C53_3 1_555 1_555
O13_4 H20_3 1_555 1_555
O15_3 H22_3 1_555 1_555
O16_3 H23_3 1_555 1_555
O16_3 H24_3 1_555 1_555
N9_3 N30_3 1_555 1_555
O12 C20_3 1_555 1_555
C20_3 C24_3 1_555 1_555
C21_3 N9_3 1_555 1_555
H7_3 C23_3 1_555 1_555
C24_3 C23_3 1_555 1_555
C25_3 C24_3 1_555 1_555
H8_3 C25_3 1_555 1_555
C26_3 C21_3 1_555 1_555
Tb6_2 O21 1_555 1_555
Tb10_3 O12 1_555 1_555
C25_3 C26_3 1_555 1_555
O17_4 H27_3 1_555 1_555
Tb6_2 O1_3 1_555 1_555
Tb10_3 O2_3 1_555 1_555
N1_3 N26_2 1_555 1_555
N26_2 N3_3 1_555 1_555
N3_3 N4_3 1_555 1_555
N4_3 C3_3 1_555 1_555
N5_3 N27_2 1_555 1_555
N28_2 N8_3 1_555 1_555
N8_3 C12_3 1_555 1_555
N32_3 N12_3 1_555 1_555
O1_3 C1_3 1_555 1_555
O2_3 C1_3 1_555 1_555
O4_3 C2_3 1_555 1_555
O5_3 Tb6_2 1_555 1_555
O6_3 Tb6_2 1_555 1_555
O35_2 C11_3 1_555 1_555
O37_2 C11_3 1_555 1_555
O9_3 Tb6_2 1_555 1_555
O10_3 Tb6_2 1_555 1_555
O13_5 Tb10_3 1_555 1_555
C1_3 C4_3 1_555 1_555
C2_3 C6_3 1_555 1_555
C3_3 N1_3 1_555 1_555
C4_3 C5_3 1_555 1_555
C5_3 H1_3 1_555 1_555
C6_3 C5_3 1_555 1_555
C7_3 C6_3 1_555 1_555
H2_3 C7_3 1_555 1_555
C8_3 C3_3 1_555 1_555
C9_3 C4_3 1_555 1_555
H3_3 C9_3 1_555 1_555
C10_3 O5_3 1_555 1_555
C11_3 C15_3 1_555 1_555
C12_3 N5_3 1_555 1_555
C13_3 C10_3 1_555 1_555
C14_3 C13_3 1_555 1_555
H4_3 C14_3 1_555 1_555
C15_3 C14_3 1_555 1_555
C16_3 C15_3 1_555 1_555
H5_3 C16_3 1_555 1_555
C17_3 C12_3 1_555 1_555
C18_3 C13_3 1_555 1_555
H6_3 C18_3 1_555 1_555
C19_3 O9_3 1_555 1_555
C22_3 C19_3 1_555 1_555
C27_3 C22_3 1_555 1_555
H9_3 C27_3 1_555 1_555
O29_3 Tb6_2 1_555 1_555
O6_3 C10_3 1_555 1_555
O10_3 C19_3 1_555 1_555
C7_3 C8_3 1_555 1_555
C8_3 C9_3 1_555 1_555
C16_3 C17_3 1_555 1_555
C17_3 C18_3 1_555 1_555
O13_5 H19_3 1_555 1_555
O15_4 H21_3 1_555 1_555
O15 H22_4 1_555 1_555
O16 H23_4 1_555 1_555
O16 H24_4 1_555 1_555
O13_4 H19_4 1_555 1_555
O15_2 H21_4 1_555 1_555
O17_2 H27_4 1_555 1_555
O13_5 H20_4 1_555 1_555
N9_4 N30 1_555 1_555
O11_4 C20_4 1_555 1_555
O12_2 C20_4 1_555 1_555
C20_4 C24_4 1_555 1_555
C21_4 N9_4 1_555 1_555
H7_4 C23_4 1_555 1_555
C24_4 C23_4 1_555 1_555
C25_4 C24_4 1_555 1_555
H8_4 C25_4 1_555 1_555
C26_4 C21_4 1_555 1_555
Tb7 O11_4 1_555 1_555
N13_4 N26_3 1_555 1_555
N26_3 N15_4 1_555 1_555
N15_4 N16_4 1_555 1_555
N16_4 C30_4 1_555 1_555
N17_4 N27_3 1_555 1_555
N28_3 N20_4 1_555 1_555
N20_4 C39_4 1_555 1_555
N32_2 N24_4 1_555 1_555
O19_4 Tb7 1_555 1_555
O20_2 C28_4 1_555 1_555
O21_2 C29_4 1_555 1_555
O22_4 C29_4 1_555 1_555
O23_4 Tb7 1_555 1_555
O24_4 Tb7 1_555 1_555
O36 C38_4 1_555 1_555
O38 C38_4 1_555 1_555
O27_4 Tb7 1_555 1_555
O28_4 Tb7 1_555 1_555
C28_4 O19_4 1_555 1_555
C29_4 C33_4 1_555 1_555
C30_4 N13_4 1_555 1_555
C31_4 C28_4 1_555 1_555
C32_4 C31_4 1_555 1_555
H10_4 C32_4 1_555 1_555
C33_4 C32_4 1_555 1_555
C34_4 C33_4 1_555 1_555
H11_4 C34_4 1_555 1_555
C35_4 C30_4 1_555 1_555
C36_4 C31_4 1_555 1_555
H12_4 C36_4 1_555 1_555
C37_4 O23_4 1_555 1_555
C38_4 C42_4 1_555 1_555
C39_4 N17_4 1_555 1_555
C40_4 C37_4 1_555 1_555
C41_4 C40_4 1_555 1_555
H13_4 C41_4 1_555 1_555
C42_4 C41_4 1_555 1_555
C43_4 C42_4 1_555 1_555
H14_4 C43_4 1_555 1_555
C44_4 C39_4 1_555 1_555
C45_4 C40_4 1_555 1_555
H15_4 C45_4 1_555 1_555
C46_4 O27_4 1_555 1_555
C49_4 C46_4 1_555 1_555
C54_4 C49_4 1_555 1_555
H18_4 C54_4 1_555 1_555
Tb6 O21_2 1_555 1_555
Tb10 O12_2 1_555 1_555
O33_2 Tb7 1_555 1_555
C25_4 C26_4 1_555 1_555
O20_2 Tb10 1_555 1_555
O24_4 C37_4 1_555 1_555
O28_4 C46_4 1_555 1_555
C34_4 C35_4 1_555 1_555
C35_4 C36_4 1_555 1_555
C43_4 C44_4 1_555 1_555
C44_4 C45_4 1_555 1_555
Tb6 O1_4 1_555 1_555
Tb10 O2_4 1_555 1_555
N1_4 N26_4 1_555 1_555
N26_4 N3_4 1_555 1_555
N3_4 N4_4 1_555 1_555
N4_4 C3_4 1_555 1_555
N5_4 N27_4 1_555 1_555
N28_4 N8_4 1_555 1_555
N8_4 C12_4 1_555 1_555
N32 N12_4 1_555 1_555
O1_4 C1_4 1_555 1_555
O2_4 C1_4 1_555 1_555
O33_2 C2_4 1_555 1_555
O4_4 C2_4 1_555 1_555
O5_4 Tb6 1_555 1_555
O6_4 Tb6 1_555 1_555
O35 C11_4 1_555 1_555
O37 C11_4 1_555 1_555
O9_4 Tb6 1_555 1_555
O10_4 Tb6 1_555 1_555
O13_6 Tb10 1_555 1_555
C1_4 C4_4 1_555 1_555
C2_4 C6_4 1_555 1_555
C3_4 N1_4 1_555 1_555
C4_4 C5_4 1_555 1_555
C5_4 H1_4 1_555 1_555
C6_4 C5_4 1_555 1_555
C7_4 C6_4 1_555 1_555
H2_4 C7_4 1_555 1_555
C8_4 C3_4 1_555 1_555
C9_4 C4_4 1_555 1_555
H3_4 C9_4 1_555 1_555
C10_4 O5_4 1_555 1_555
C11_4 C15_4 1_555 1_555
C12_4 N5_4 1_555 1_555
C13_4 C10_4 1_555 1_555
C14_4 C13_4 1_555 1_555
H4_4 C14_4 1_555 1_555
C15_4 C14_4 1_555 1_555
C16_4 C15_4 1_555 1_555
H5_4 C16_4 1_555 1_555
C17_4 C12_4 1_555 1_555
C18_4 C13_4 1_555 1_555
H6_4 C18_4 1_555 1_555
C19_4 O9_4 1_555 1_555
C22_4 C19_4 1_555 1_555
C27_4 C22_4 1_555 1_555
H9_4 C27_4 1_555 1_555
N21_4 N30_2 1_555 1_555
O29_4 Tb6 1_555 1_555
O30_4 Tb10 1_555 1_555
C47_4 O29_4 1_555 1_555
C48_4 N21_4 1_555 1_555
H16_4 C50_4 1_555 1_555
C51_4 C47_4 1_555 1_555
C52_4 C51_4 1_555 1_555
H17_4 C52_4 1_555 1_555
C53_4 C48_4 1_555 1_555
O6_4 C10_4 1_555 1_555
O10_4 C19_4 1_555 1_555
C7_4 C8_4 1_555 1_555
C8_4 C9_4 1_555 1_555
C16_4 C17_4 1_555 1_555
C17_4 C18_4 1_555 1_555
O30_4 C47_4 1_555 1_555
C50_4 C51_4 1_555 1_555
C52_4 C53_4 1_555 1_555

#END
