
###############################################################################
#
# This file contains modified crystal structure data generated from the
# MOF subset of the Cambridge Structural Database (CSD) v543 
# hosted by the Cambridge Crystallographic Data Centre (CCDC).
#
# This work is licensed under the Creative Commons
# Attribution-NonCommercial-ShareAlike 4.0 International License.
# To view a copy of this license, visit
# http://creativecommons.org/licenses/by-nc-sa/4.0/
# or send a letter to
# Creative Commons, PO Box 1866, Mountain View, CA 94042, USA.
#
# CIF created using the CSD Python API on 29 September 2022
# The structure has been converted into the P1 space group
# The structure has a 3D framework
# The original CSD entry ZAHLIG is in the monoclinic crystal system
# The framework has been calculated to contain at least 10.0% void space
# The void calculation uses a probe of radius 1.32A, grid spacing 0.4
# H atom positions have been added when not included in the experimental data
# Generated hydrogen atom positions removed from atoms on special positions
#
###############################################################################

data_ZAHLIG
_chemical_formula_moiety         '(C248 H184 Cu14 N20 O64 S8)n'
_symmetry_cell_setting           triclinic
_symmetry_space_group_name_H-M   'P 1'
_symmetry_Int_Tables_number      1
_space_group_name_Hall           'P 1'
loop_
_symmetry_equiv_pos_site_id
_symmetry_equiv_pos_as_xyz
1 x,y,z
_cell_length_a                   26.189(3)
_cell_length_b                   26.223(3)
_cell_length_c                   21.117(3)
_cell_angle_alpha                90
_cell_angle_beta                 127.232(5)
_cell_angle_gamma                90
_cell_volume                     11546.5
loop_
_atom_site_label
_atom_site_type_symbol
_atom_site_fract_x
_atom_site_fract_y
_atom_site_fract_z
Cu6 Cu 0.0000 0.28209(5) 0.2500
Cu7 Cu 0.0000 0.71791(5) 0.7500
Cu1 Cu 0.53706(4) 0.28239(4) 0.32825(6)
O1 O 0.5330(2) 0.20715(17) 0.3195(3)
O4 O 0.5969(3) 0.2804(3) 0.4573(4)
O5 O 0.3910(2) 0.2830(2) 0.1762(3)
O6 O 0.4553(2) 0.2815(2) 0.3114(3)
O7 O 0.5318(3) 0.3544(2) 0.3201(4)
C1 C 0.5000 0.1324(4) 0.2500
N1 N 0.0731(3) 0.2802(2) 0.2433(4)
N3 N 0.5000 0.7055(2) 0.2500
C2 C 0.3448(3) 0.2832(3) 0.2434(4)
C3 C 0.2828(3) 0.2848(3) 0.1707(4)
H1 H 0.2774 0.2840 0.1220
C4 C 0.5000 0.0218(3) 0.2500
C5 C 0.3501(3) 0.2749(4) 0.3111(5)
H2 H 0.3907 0.2657 0.3585
C7 C 0.2361(3) 0.2832(3) 0.2411(4)
C8 C 0.1810(3) 0.2835(3) 0.2440(5)
C9 C 0.5000 0.1890(4) 0.2500
C10 C 0.4655(4) 0.5158(3) 0.1768(5)
H3 H 0.4428 0.5343 0.1282
C11 C 0.5000 0.5419(5) 0.2500
C12 C 0.5000 0.3803(4) 0.2500
C13 C 0.4038(4) 0.2837(3) 0.2452(5)
C14 C 0.5356(5) 0.0493(4) 0.3201(6)
H4 H 0.5639 0.0327 0.3699
C15 C 0.4648(4) 0.4630(3) 0.1764(5)
H5 H 0.4413 0.4445 0.1278
C16 C 0.2987(4) 0.2794(4) 0.3132(5)
H6 H 0.3053 0.2799 0.3626
C22 C 0.5000 0.4375(4) 0.2500
C24 C 0.4803(5) 0.6262(4) 0.1816(4)
H11 H 0.4623 0.6089 0.1327
C25 C 0.2298(3) 0.2875(3) 0.1700(4)
H12 H 0.1884 0.2924 0.1210
C26 C 0.1252(4) 0.3081(4) 0.1851(5)
H13 H 0.1221 0.3260 0.1438
C27 C 0.5289(4) 0.1017(4) 0.3156(5)
H14 H 0.5467 0.1186 0.3646
C29 C 0.0732(4) 0.3061(4) 0.1876(6)
H16 H 0.0353 0.3240 0.1478
C30 C 0.1809(4) 0.2519(4) 0.2982(6)
H17 H 0.2165 0.2306 0.3348
C31 C 0.1258(4) 0.2531(4) 0.2957(6)
H18 H 0.1262 0.2334 0.3337
C32 C 0.4878(5) 0.6791(4) 0.1875(5)
H19 H 0.4843 0.6971 0.1459
C33 C 0.5000 0.5997(4) 0.2500
O12 O 0.4670(2) 0.20715(17) 0.1805(3)
C39 C 0.4644(5) 0.0493(4) 0.1799(6)
H23 H 0.4361 0.0327 0.1301
C41 C 0.4711(4) 0.1017(4) 0.1844(5)
H25 H 0.4533 0.1186 0.1354
O13 O 0.4682(3) 0.3544(2) 0.1799(4)
C43 C 0.5345(4) 0.5158(3) 0.3232(5)
H27 H 0.5572 0.5343 0.3718
C44 C 0.5352(4) 0.4630(3) 0.3236(5)
H28 H 0.5587 0.4445 0.3722
C45 C 0.5197(5) 0.6262(4) 0.3184(4)
H29 H 0.5377 0.6089 0.3673
C46 C 0.5122(5) 0.6791(4) 0.3125(5)
H30 H 0.5157 0.6971 0.3541
Cu3 Cu 0.46294(4) 0.28239(4) 0.17175(6)
O14 O 0.4031(3) 0.2804(3) 0.0427(4)
O15 O 0.6090(2) 0.2830(2) 0.3238(3)
O16 O 0.5447(2) 0.2815(2) 0.1886(3)
N4 N 0.9269(3) 0.2802(2) 0.2567(4)
C47 C 0.6552(3) 0.2832(3) 0.2566(4)
C48 C 0.7172(3) 0.2848(3) 0.3293(4)
H31 H 0.7226 0.2840 0.3780
C49 C 0.6499(3) 0.2749(4) 0.1889(5)
H32 H 0.6093 0.2657 0.1415
C50 C 0.7639(3) 0.2832(3) 0.2589(4)
C51 C 0.8190(3) 0.2835(3) 0.2560(5)
C52 C 0.5962(4) 0.2837(3) 0.2548(5)
C53 C 0.7013(4) 0.2794(4) 0.1868(5)
H33 H 0.6947 0.2799 0.1374
C54 C 0.7702(3) 0.2875(3) 0.3300(4)
H34 H 0.8116 0.2924 0.3790
C55 C 0.8748(4) 0.3081(4) 0.3149(5)
H35 H 0.8779 0.3260 0.3562
C56 C 0.9268(4) 0.3061(4) 0.3124(6)
H36 H 0.9647 0.3240 0.3522
C57 C 0.8191(4) 0.2519(4) 0.2018(6)
H37 H 0.7835 0.2306 0.1652
C58 C 0.8742(4) 0.2531(4) 0.2043(6)
H38 H 0.8738 0.2334 0.1663
Cu4 Cu 0.5000 0.78209(5) 0.2500
Cu6_2 Cu 1.0000 0.28209(5) 0.2500
S1 S 0.61018(13) 0.77682(14) 0.4755(2)
O2 O 0.6255(7) 0.8222(5) 0.5233(9)
O3 O 0.57228(19) 0.78305(18) 0.3900(3)
O8 O 0.5736(4) 0.7374(3) 0.4886(5)
N2 N 0.5000 0.8562(4) 0.2500
C6 C 0.5000 0.9655(3) 0.2500
C17 C 0.6734(4) 0.7384(4) 0.4918(6)
C18 C 0.6817(6) 0.6857(5) 0.4991(7)
H7 H 0.6501 0.6679 0.4990
C19 C 0.7291(5) 0.6538(4) 0.5066(7)
H8 H 0.7296 0.6176 0.5099
C20 C 0.7751(6) 0.6834(5) 0.5087(8)
H9 H 0.8079 0.6655 0.5115
C21 C 0.7230(4) 0.7617(4) 0.4931(7)
C23 C 0.5563(4) 0.9368(3) 0.3040(5)
H10 H 0.5959 0.9537 0.3412
C28 C 0.5534(4) 0.8834(3) 0.3025(5)
H15 H 0.5916 0.8652 0.3408
S2 S 0.88982(13) 0.72318(14) 0.5245(2)
O9 O 0.8745(7) 0.6778(5) 0.4767(9)
O10 O 0.92772(19) 0.71695(18) 0.6100(3)
O11 O 0.9264(4) 0.7626(3) 0.5114(5)
C34 C 0.8266(4) 0.7616(4) 0.5082(6)
C35 C 0.8183(6) 0.8143(5) 0.5009(7)
H20 H 0.8499 0.8321 0.5010
C36 C 0.7709(5) 0.8462(4) 0.4934(7)
H21 H 0.7704 0.8824 0.4901
C37 C 0.7249(6) 0.8166(5) 0.4913(8)
H22 H 0.6921 0.8345 0.4885
C38 C 0.7770(4) 0.7383(4) 0.5069(7)
C40 C 0.4437(4) 0.9368(3) 0.1960(5)
H24 H 0.4041 0.9537 0.1588
C42 C 0.4466(4) 0.8834(3) 0.1975(5)
H26 H 0.4084 0.8652 0.1592
Cu7_2 Cu 1.0000 0.71791(5) 0.7500
O17 O 0.42772(19) 0.78305(18) 0.1100(3)
N5 N 0.5731(3) 0.7802(2) 0.2433(4)
N6 N 0.4269(3) 0.7802(2) 0.2567(4)
S1_2 S 0.38982(13) 0.77682(14) 0.0245(2)
O8_2 O 0.4264(4) 0.7374(3) 0.0114(5)
C17_2 C 0.3266(4) 0.7384(4) 0.0082(6)
C18_2 C 0.3183(6) 0.6857(5) 0.0009(7)
H7_2 H 0.3499 0.6679 0.0010
C21_2 C 0.2770(4) 0.7617(4) 0.0069(7)
O9_2 O 0.1255(7) 0.6778(5) 0.0233(9)
C36_2 C 0.2291(5) 0.8462(4) 0.0066(7)
H21_2 H 0.2296 0.8824 0.0099
C37_2 C 0.2751(6) 0.8166(5) 0.0087(8)
H22_2 H 0.3079 0.8345 0.0115
O2_2 O 0.3745(7) 0.8222(5) 0.9767(9)
C19_2 C 0.2709(5) 0.6538(4) 0.9934(7)
H8_2 H 0.2704 0.6176 0.9901
C20_2 C 0.2249(6) 0.6834(5) 0.9913(8)
H9_2 H 0.1921 0.6655 0.9885
S2_2 S 0.11018(13) 0.72318(14) 0.9755(2)
O10_2 O 0.07228(19) 0.71695(18) 0.8900(3)
O11_2 O 0.0736(4) 0.7626(3) 0.9886(5)
C34_2 C 0.1734(4) 0.7616(4) 0.9918(6)
C35_2 C 0.1817(6) 0.8143(5) 0.9991(7)
H20_2 H 0.1501 0.8321 0.9990
C38_2 C 0.2230(4) 0.7383(4) 0.9931(7)
N3_2 N 0.0000 0.2055(2) 0.2500
C11_2 C 0.0000 0.0419(5) 0.2500
C33_2 C 0.0000 0.0997(4) 0.2500
C43_2 C 0.0345(4) 0.0158(3) 0.3232(5)
H27_2 H 0.0572 0.0343 0.3718
C45_2 C 0.0197(5) 0.1262(4) 0.3184(4)
H29_2 H 0.0377 0.1089 0.3673
C46_2 C 0.0122(5) 0.1791(4) 0.3125(5)
H30_2 H 0.0157 0.1971 0.3541
Cu1_2 Cu 0.03706(4) 0.78239(4) 0.32825(6)
S1_3 S 0.11018(13) 0.27682(14) 0.4755(2)
O1_2 O 0.0330(2) 0.70715(17) 0.3195(3)
O2_3 O 0.1255(7) 0.3222(5) 0.5233(9)
O3_2 O 0.07228(19) 0.28305(18) 0.3900(3)
O4_2 O 0.0969(3) 0.7804(3) 0.4573(4)
O7_2 O 0.0318(3) 0.8544(2) 0.3201(4)
O8_3 O 0.0736(4) 0.2374(3) 0.4886(5)
C1_2 C -0.0000 0.6324(4) 0.2500
N2_2 N -0.0000 0.3562(4) 0.2500
C4_2 C 0.0000 0.5218(3) 0.2500
C6_2 C 0.0000 0.4655(3) 0.2500
C9_2 C -0.0000 0.6890(4) 0.2500
C12_2 C -0.0000 0.8803(4) 0.2500
C14_2 C 0.0356(5) 0.5493(4) 0.3201(6)
H4_2 H 0.0639 0.5327 0.3699
C17_3 C 0.1734(4) 0.2384(4) 0.4918(6)
C18_3 C 0.1817(6) 0.1857(5) 0.4991(7)
H7_3 H 0.1501 0.1679 0.4990
C19_3 C 0.2291(5) 0.1538(4) 0.5066(7)
H8_3 H 0.2296 0.1176 0.5099
C20_3 C 0.2751(6) 0.1834(5) 0.5087(8)
H9_3 H 0.3079 0.1655 0.5115
C21_3 C 0.2230(4) 0.2617(4) 0.4931(7)
C22_2 C -0.0000 0.9375(4) 0.2500
C23_2 C 0.0563(4) 0.4368(3) 0.3040(5)
H10_2 H 0.0959 0.4537 0.3412
C27_2 C 0.0289(4) 0.6017(4) 0.3156(5)
H14_2 H 0.0467 0.6186 0.3646
C28_2 C 0.0534(4) 0.3834(3) 0.3025(5)
H15_2 H 0.0916 0.3652 0.3408
S2_3 S 0.38982(13) 0.22318(14) 0.5245(2)
O9_3 O 0.3745(7) 0.1778(5) 0.4767(9)
O10_3 O 0.42772(19) 0.21695(18) 0.6100(3)
O11_3 O 0.4264(4) 0.2626(3) 0.5114(5)
C34_3 C 0.3266(4) 0.2616(4) 0.5082(6)
C35_3 C 0.3183(6) 0.3143(5) 0.5009(7)
H20_3 H 0.3499 0.3321 0.5010
C36_3 C 0.2709(5) 0.3462(4) 0.4934(7)
H21_3 H 0.2704 0.3824 0.4901
C37_3 C 0.2249(6) 0.3166(5) 0.4913(8)
H22_3 H 0.1921 0.3345 0.4885
C38_3 C 0.2770(4) 0.2383(4) 0.5069(7)
C44_2 C 0.0352(4) 0.9630(3) 0.3236(5)
H28_2 H 0.0587 0.9445 0.3722
O15_2 O 0.1090(2) 0.7830(2) 0.3238(3)
O16_2 O 0.0447(2) 0.7815(2) 0.1886(3)
C47_2 C 0.1552(3) 0.7832(3) 0.2566(4)
C48_2 C 0.2172(3) 0.7848(3) 0.3293(4)
H31_2 H 0.2226 0.7840 0.3780
C49_2 C 0.1499(3) 0.7749(4) 0.1889(5)
H32_2 H 0.1093 0.7657 0.1415
C50_2 C 0.2639(3) 0.7832(3) 0.2589(4)
C51_2 C 0.3190(3) 0.7835(3) 0.2560(5)
C52_2 C 0.0962(4) 0.7837(3) 0.2548(5)
C53_2 C 0.2013(4) 0.7794(4) 0.1868(5)
H33_2 H 0.1947 0.7799 0.1374
C54_2 C 0.2702(3) 0.7875(3) 0.3300(4)
H34_2 H 0.3116 0.7924 0.3790
C55_2 C 0.3748(4) 0.8081(4) 0.3149(5)
H35_2 H 0.3779 0.8260 0.3562
C56_2 C 0.4268(4) 0.8061(4) 0.3124(6)
H36_2 H 0.4647 0.8240 0.3522
C57_2 C 0.3191(4) 0.7519(4) 0.2018(6)
H37_2 H 0.2835 0.7306 0.1652
C58_2 C 0.3742(4) 0.7531(4) 0.2043(6)
H38_2 H 0.3738 0.7334 0.1663
Cu7_3 Cu 0.5000 0.21791(5) 0.7500
N3_3 N 1.0000 0.2055(2) 0.2500
C10_2 C 0.9655(4) 0.0158(3) 0.1768(5)
H3_2 H 0.9428 0.0343 0.1282
C11_3 C 1.0000 0.0419(5) 0.2500
C24_2 C 0.9803(5) 0.1262(4) 0.1816(4)
H11_2 H 0.9623 0.1089 0.1327
C32_2 C 0.9878(5) 0.1791(4) 0.1875(5)
H19_2 H 0.9843 0.1971 0.1459
C33_3 C 1.0000 0.0997(4) 0.2500
O5_2 O 0.8910(2) 0.7830(2) 0.1762(3)
O6_2 O 0.9553(2) 0.7815(2) 0.3114(3)
C1_3 C 1.0000 0.6324(4) 0.2500
N2_3 N 1.0000 0.3562(4) 0.2500
C2_2 C 0.8448(3) 0.7832(3) 0.2434(4)
C3_2 C 0.7828(3) 0.7848(3) 0.1707(4)
H1_2 H 0.7774 0.7840 0.1220
C4_3 C 1.0000 0.5218(3) 0.2500
C5_2 C 0.8501(3) 0.7749(4) 0.3111(5)
H2_2 H 0.8907 0.7657 0.3585
C6_3 C 1.0000 0.4655(3) 0.2500
C7_2 C 0.7361(3) 0.7832(3) 0.2411(4)
C8_2 C 0.6810(3) 0.7835(3) 0.2440(5)
C9_3 C 1.0000 0.6890(4) 0.2500
C12_3 C 1.0000 0.8803(4) 0.2500
C13_2 C 0.9038(4) 0.7837(3) 0.2452(5)
C15_2 C 0.9648(4) 0.9630(3) 0.1764(5)
H5_2 H 0.9413 0.9445 0.1278
C16_2 C 0.7987(4) 0.7794(4) 0.3132(5)
H6_2 H 0.8053 0.7799 0.3626
C22_3 C 1.0000 0.9375(4) 0.2500
C25_2 C 0.7298(3) 0.7875(3) 0.1700(4)
H12_2 H 0.6884 0.7924 0.1210
C26_2 C 0.6252(4) 0.8081(4) 0.1851(5)
H13_2 H 0.6221 0.8260 0.1438
C29_2 C 0.5732(4) 0.8061(4) 0.1876(6)
H16_2 H 0.5353 0.8240 0.1478
C30_2 C 0.6809(4) 0.7519(4) 0.2982(6)
H17_2 H 0.7165 0.7306 0.3348
C31_2 C 0.6258(4) 0.7531(4) 0.2957(6)
H18_2 H 0.6262 0.7334 0.3337
O12_2 O 0.9670(2) 0.70715(17) 0.1805(3)
C39_2 C 0.9644(5) 0.5493(4) 0.1799(6)
H23_2 H 0.9361 0.5327 0.1301
C40_2 C 0.9437(4) 0.4368(3) 0.1960(5)
H24_2 H 0.9041 0.4537 0.1588
C41_2 C 0.9711(4) 0.6017(4) 0.1844(5)
H25_2 H 0.9533 0.6186 0.1354
C42_2 C 0.9466(4) 0.3834(3) 0.1975(5)
H26_2 H 0.9084 0.3652 0.1592
O13_2 O 0.9682(3) 0.8544(2) 0.1799(4)
Cu3_2 Cu 0.96294(4) 0.78239(4) 0.17175(6)
O14_2 O 0.9031(3) 0.7804(3) 0.0427(4)
O17_2 O 0.92772(19) 0.28305(18) 0.1100(3)
S1_4 S 0.88982(13) 0.27682(14) 0.0245(2)
O8_4 O 0.9264(4) 0.2374(3) 0.0114(5)
C17_4 C 0.8266(4) 0.2384(4) 0.0082(6)
C18_4 C 0.8183(6) 0.1857(5) 0.0009(7)
H7_4 H 0.8499 0.1679 0.0010
C21_4 C 0.7770(4) 0.2617(4) 0.0069(7)
O9_4 O 0.6255(7) 0.1778(5) 0.0233(9)
C36_4 C 0.7291(5) 0.3462(4) 0.0066(7)
H21_4 H 0.7296 0.3824 0.0099
C37_4 C 0.7751(6) 0.3166(5) 0.0087(8)
H22_4 H 0.8079 0.3345 0.0115
O2_4 O 0.8745(7) 0.3222(5) 0.9767(9)
C19_4 C 0.7709(5) 0.1538(4) 0.9934(7)
H8_4 H 0.7704 0.1176 0.9901
C20_4 C 0.7249(6) 0.1834(5) 0.9913(8)
H9_4 H 0.6921 0.1655 0.9885
S2_4 S 0.61018(13) 0.22318(14) 0.9755(2)
O10_4 O 0.57228(19) 0.21695(18) 0.8900(3)
O11_4 O 0.5736(4) 0.2626(3) 0.9886(5)
C34_4 C 0.6734(4) 0.2616(4) 0.9918(6)
C35_4 C 0.6817(6) 0.3143(5) 0.9991(7)
H20_4 H 0.6501 0.3321 0.9990
C38_4 C 0.7230(4) 0.2383(4) 0.9931(7)
N2_4 N 0.5000 0.1438(4) 0.7500
C6_4 C 0.5000 0.0345(3) 0.7500
C23_3 C 0.4437(4) 0.0632(3) 0.6960(5)
H10_3 H 0.4041 0.0463 0.6588
C28_3 C 0.4466(4) 0.1166(3) 0.6975(5)
H15_3 H 0.4084 0.1348 0.6592
C40_3 C 0.5563(4) 0.0632(3) 0.8040(5)
H24_3 H 0.5959 0.0463 0.8412
C42_3 C 0.5534(4) 0.1166(3) 0.8025(5)
H26_3 H 0.5916 0.1348 0.8408
N5_2 N 0.4269(3) 0.2198(2) 0.7567(4)
N6_2 N 0.5731(3) 0.2198(2) 0.7433(4)
N7 N 0.5000 0.2945(2) 0.7500
Cu1_3 Cu 0.46294(4) 0.71761(4) 0.67175(6)
O1_3 O 0.4670(2) 0.79285(17) 0.6805(3)
O4_3 O 0.4031(3) 0.7196(3) 0.5427(4)
O5_3 O 0.6090(2) 0.7170(2) 0.8238(3)
O6_3 O 0.5447(2) 0.7185(2) 0.6886(3)
O7_3 O 0.4682(3) 0.6456(2) 0.6799(4)
C1_4 C 0.5000 0.8676(4) 0.7500
N1_2 N 0.9269(3) 0.7198(2) 0.7567(4)
C2_3 C 0.6552(3) 0.7168(3) 0.7566(4)
C3_3 C 0.7172(3) 0.7152(3) 0.8293(4)
H1_3 H 0.7226 0.7160 0.8780
C4_4 C 0.5000 0.9782(3) 0.7500
C5_3 C 0.6499(3) 0.7251(4) 0.6889(5)
H2_3 H 0.6093 0.7343 0.6415
C7_3 C 0.7639(3) 0.7168(3) 0.7589(4)
C8_3 C 0.8190(3) 0.7165(3) 0.7560(5)
C9_4 C 0.5000 0.8110(4) 0.7500
C10_3 C 0.5345(4) 0.4842(3) 0.8232(5)
H3_3 H 0.5572 0.4657 0.8718
C11_4 C 0.5000 0.4581(5) 0.7500
C12_4 C 0.5000 0.6197(4) 0.7500
C13_3 C 0.5962(4) 0.7163(3) 0.7548(5)
C14_3 C 0.4644(5) 0.9507(4) 0.6799(6)
H4_3 H 0.4361 0.9673 0.6301
C15_3 C 0.5352(4) 0.5370(3) 0.8236(5)
H5_3 H 0.5587 0.5555 0.8722
C16_3 C 0.7013(4) 0.7206(4) 0.6868(5)
H6_3 H 0.6947 0.7201 0.6374
C22_4 C 0.5000 0.5625(4) 0.7500
C24_3 C 0.5197(5) 0.3738(4) 0.8184(4)
H11_3 H 0.5377 0.3911 0.8673
C25_3 C 0.7702(3) 0.7125(3) 0.8300(4)
H12_3 H 0.8116 0.7076 0.8790
C26_3 C 0.8748(4) 0.6919(4) 0.8149(5)
H13_3 H 0.8779 0.6740 0.8562
C27_3 C 0.4711(4) 0.8983(4) 0.6844(5)
H14_3 H 0.4533 0.8814 0.6354
C29_3 C 0.9268(4) 0.6939(4) 0.8124(6)
H16_3 H 0.9647 0.6760 0.8522
C30_3 C 0.8191(4) 0.7481(4) 0.7018(6)
H17_3 H 0.7835 0.7694 0.6652
C31_3 C 0.8742(4) 0.7469(4) 0.7043(6)
H18_3 H 0.8738 0.7666 0.6663
C32_3 C 0.5122(5) 0.3209(4) 0.8125(5)
H19_3 H 0.5157 0.3029 0.8541
C33_4 C 0.5000 0.4003(4) 0.7500
O12_3 O 0.5330(2) 0.79285(17) 0.8195(3)
C39_3 C 0.5356(5) 0.9507(4) 0.8201(6)
H23_3 H 0.5639 0.9673 0.8699
C41_3 C 0.5289(4) 0.8983(4) 0.8156(5)
H25_3 H 0.5467 0.8814 0.8646
O13_3 O 0.5318(3) 0.6456(2) 0.8201(4)
C43_3 C 0.4655(4) 0.4842(3) 0.6768(5)
H27_3 H 0.4428 0.4657 0.6282
C44_3 C 0.4648(4) 0.5370(3) 0.6764(5)
H28_3 H 0.4413 0.5555 0.6278
C45_3 C 0.4803(5) 0.3738(4) 0.6816(4)
H29_3 H 0.4623 0.3911 0.6327
C46_3 C 0.4878(5) 0.3209(4) 0.6875(5)
H30_3 H 0.4843 0.3029 0.6459
Cu3_3 Cu 0.53706(4) 0.71761(4) 0.82825(6)
O14_3 O 0.5969(3) 0.7196(3) 0.9573(4)
O15_3 O 0.3910(2) 0.7170(2) 0.6762(3)
O16_3 O 0.4553(2) 0.7185(2) 0.8114(3)
N4_2 N 0.0731(3) 0.7198(2) 0.7433(4)
C47_3 C 0.3448(3) 0.7168(3) 0.7434(4)
C48_3 C 0.2828(3) 0.7152(3) 0.6707(4)
H31_3 H 0.2774 0.7160 0.6220
C49_3 C 0.3501(3) 0.7251(4) 0.8111(5)
H32_3 H 0.3907 0.7343 0.8585
C50_3 C 0.2361(3) 0.7168(3) 0.7411(4)
C51_3 C 0.1810(3) 0.7165(3) 0.7440(5)
C52_3 C 0.4038(4) 0.7163(3) 0.7452(5)
C53_3 C 0.2987(4) 0.7206(4) 0.8132(5)
H33_3 H 0.3053 0.7201 0.8626
C54_3 C 0.2298(3) 0.7125(3) 0.6700(4)
H34_3 H 0.1884 0.7076 0.6210
C55_3 C 0.1252(4) 0.6919(4) 0.6851(5)
H35_3 H 0.1221 0.6740 0.6438
C56_3 C 0.0732(4) 0.6939(4) 0.6876(6)
H36_3 H 0.0353 0.6760 0.6478
C57_3 C 0.1809(4) 0.7481(4) 0.7982(6)
H37_3 H 0.2165 0.7694 0.8348
C58_3 C 0.1258(4) 0.7469(4) 0.7957(6)
H38_3 H 0.1262 0.7666 0.8337
O5_4 O 0.1090(2) 0.2170(2) 0.8238(3)
O6_4 O 0.0447(2) 0.2185(2) 0.6886(3)
C1_5 C 0.0000 0.3676(4) 0.7500
N2_5 N 0.0000 0.6438(4) 0.7500
C2_4 C 0.1552(3) 0.2168(3) 0.7566(4)
C3_4 C 0.2172(3) 0.2152(3) 0.8293(4)
H1_4 H 0.2226 0.2160 0.8780
C4_5 C 0.0000 0.4782(3) 0.7500
C5_4 C 0.1499(3) 0.2251(4) 0.6889(5)
H2_4 H 0.1093 0.2343 0.6415
C6_5 C 0.0000 0.5345(3) 0.7500
C7_4 C 0.2639(3) 0.2168(3) 0.7589(4)
C8_4 C 0.3190(3) 0.2165(3) 0.7560(5)
C9_5 C 0.0000 0.3110(4) 0.7500
C12_5 C 0.0000 0.1197(4) 0.7500
C13_4 C 0.0962(4) 0.2163(3) 0.7548(5)
C15_4 C 0.0352(4) 0.0370(3) 0.8236(5)
H5_4 H 0.0587 0.0555 0.8722
C16_4 C 0.2013(4) 0.2206(4) 0.6868(5)
H6_4 H 0.1947 0.2201 0.6374
C22_5 C 0.0000 0.0625(4) 0.7500
C25_4 C 0.2702(3) 0.2125(3) 0.8300(4)
H12_4 H 0.3116 0.2076 0.8790
C26_4 C 0.3748(4) 0.1919(4) 0.8149(5)
H13_4 H 0.3779 0.1740 0.8562
C29_4 C 0.4268(4) 0.1939(4) 0.8124(6)
H16_4 H 0.4647 0.1760 0.8522
C30_4 C 0.3191(4) 0.2481(4) 0.7018(6)
H17_4 H 0.2835 0.2694 0.6652
C31_4 C 0.3742(4) 0.2469(4) 0.7043(6)
H18_4 H 0.3738 0.2666 0.6663
O12_4 O 0.0330(2) 0.29285(17) 0.8195(3)
C39_4 C 0.0356(5) 0.4507(4) 0.8201(6)
H23_4 H 0.0639 0.4673 0.8699
C40_4 C 0.0563(4) 0.5632(3) 0.8040(5)
H24_4 H 0.0959 0.5463 0.8412
C41_4 C 0.0289(4) 0.3983(4) 0.8156(5)
H25_4 H 0.0467 0.3814 0.8646
C42_4 C 0.0534(4) 0.6166(3) 0.8025(5)
H26_4 H 0.0916 0.6348 0.8408
O13_4 O 0.0318(3) 0.1456(2) 0.8201(4)
Cu3_4 Cu 0.03706(4) 0.21761(4) 0.82825(6)
O14_4 O 0.0969(3) 0.2196(3) 0.9573(4)
N7_2 N 0.0000 0.7945(2) 0.7500
C10_4 C 0.0345(4) 0.9842(3) 0.8232(5)
H3_4 H 0.0572 0.9657 0.8718
C11_5 C 0.0000 0.9581(5) 0.7500
C24_4 C 0.0197(5) 0.8738(4) 0.8184(4)
H11_4 H 0.0377 0.8911 0.8673
C32_4 C 0.0122(5) 0.8209(4) 0.8125(5)
H19_4 H 0.0157 0.8029 0.8541
C33_5 C -0.0000 0.9003(4) 0.7500
Cu1_4 Cu 0.96294(4) 0.21761(4) 0.67175(6)
O1_4 O 0.9670(2) 0.29285(17) 0.6805(3)
O4_4 O 0.9031(3) 0.2196(3) 0.5427(4)
O7_4 O 0.9682(3) 0.1456(2) 0.6799(4)
C1_6 C 1.0000 0.3676(4) 0.7500
N2_6 N 1.0000 0.6438(4) 0.7500
C4_6 C 1.0000 0.4782(3) 0.7500
C6_6 C 1.0000 0.5345(3) 0.7500
C9_6 C 1.0000 0.3110(4) 0.7500
C12_6 C 1.0000 0.1197(4) 0.7500
C14_4 C 0.9644(5) 0.4507(4) 0.6799(6)
H4_4 H 0.9361 0.4673 0.6301
C22_6 C 1.0000 0.0625(4) 0.7500
C23_4 C 0.9437(4) 0.5632(3) 0.6960(5)
H10_4 H 0.9041 0.5463 0.6588
C27_4 C 0.9711(4) 0.3983(4) 0.6844(5)
H14_4 H 0.9533 0.3814 0.6354
C28_4 C 0.9466(4) 0.6166(3) 0.6975(5)
H15_4 H 0.9084 0.6348 0.6592
C44_4 C 0.9648(4) 0.0370(3) 0.6764(5)
H28_4 H 0.9413 0.0555 0.6278
O15_4 O 0.8910(2) 0.2170(2) 0.6762(3)
O16_4 O 0.9553(2) 0.2185(2) 0.8114(3)
C47_4 C 0.8448(3) 0.2168(3) 0.7434(4)
C48_4 C 0.7828(3) 0.2152(3) 0.6707(4)
H31_4 H 0.7774 0.2160 0.6220
C49_4 C 0.8501(3) 0.2251(4) 0.8111(5)
H32_4 H 0.8907 0.2343 0.8585
C50_4 C 0.7361(3) 0.2168(3) 0.7411(4)
C51_4 C 0.6810(3) 0.2165(3) 0.7440(5)
C52_4 C 0.9038(4) 0.2163(3) 0.7452(5)
C53_4 C 0.7987(4) 0.2206(4) 0.8132(5)
H33_4 H 0.8053 0.2201 0.8626
C54_4 C 0.7298(3) 0.2125(3) 0.6700(4)
H34_4 H 0.6884 0.2076 0.6210
C55_4 C 0.6252(4) 0.1919(4) 0.6851(5)
H35_4 H 0.6221 0.1740 0.6438
C56_4 C 0.5732(4) 0.1939(4) 0.6876(6)
H36_4 H 0.5353 0.1760 0.6478
C57_4 C 0.6809(4) 0.2481(4) 0.7982(6)
H37_4 H 0.7165 0.2694 0.8348
C58_4 C 0.6258(4) 0.2469(4) 0.7957(6)
H38_4 H 0.6262 0.2666 0.8337
N7_3 N 1.0000 0.7945(2) 0.7500
C11_6 C 1.0000 0.9581(5) 0.7500
C33_6 C 1.0000 0.9003(4) 0.7500
C43_4 C 0.9655(4) 0.9842(3) 0.6768(5)
H27_4 H 0.9428 0.9657 0.6282
C45_4 C 0.9803(5) 0.8738(4) 0.6816(4)
H29_4 H 0.9623 0.8911 0.6327
C46_4 C 0.9878(5) 0.8209(4) 0.6875(5)
H30_4 H 0.9843 0.8029 0.6459
loop_
_geom_bond_atom_site_label_1
_geom_bond_atom_site_label_2
_geom_bond_site_symmetry_1
_geom_bond_site_symmetry_2
Cu1 O1 1_555 1_555
O1 C9 1_555 1_555
O4 Cu1 1_555 1_555
O5 C13 1_555 1_555
O6 Cu1 1_555 1_555
O7 Cu1 1_555 1_555
C1 C9 1_555 1_555
N1 C29 1_555 1_555
N3 C32 1_555 1_555
C2 C3 1_555 1_555
C3 H1 1_555 1_555
C5 C2 1_555 1_555
H2 C5 1_555 1_555
C7 C8 1_555 1_555
C8 C26 1_555 1_555
C9 O12 1_555 1_555
C10 H3 1_555 1_555
C11 C10 1_555 1_555
C12 O7 1_555 1_555
C13 O6 1_555 1_555
C14 C4 1_555 1_555
H4 C14 1_555 1_555
C15 C10 1_555 1_555
H5 C15 1_555 1_555
C16 C5 1_555 1_555
H6 C16 1_555 1_555
C22 C12 1_555 1_555
C24 H11 1_555 1_555
C25 C3 1_555 1_555
H12 C25 1_555 1_555
C26 H13 1_555 1_555
C27 C1 1_555 1_555
H14 C27 1_555 1_555
C29 C26 1_555 1_555
H16 C29 1_555 1_555
C30 C8 1_555 1_555
H17 C30 1_555 1_555
C31 N1 1_555 1_555
H18 C31 1_555 1_555
C32 C24 1_555 1_555
H19 C32 1_555 1_555
C33 C11 1_555 1_555
O12 Cu3 1_555 1_555
C39 C4 1_555 1_555
H23 C39 1_555 1_555
C41 C1 1_555 1_555
H25 C41 1_555 1_555
O13 C12 1_555 1_555
C43 C11 1_555 1_555
H27 C43 1_555 1_555
C44 C22 1_555 1_555
H28 C44 1_555 1_555
C45 C33 1_555 1_555
H29 C45 1_555 1_555
C46 N3 1_555 1_555
H30 C46 1_555 1_555
Cu3 Cu1 1_555 1_555
O14 Cu3 1_555 1_555
O15 Cu1 1_555 1_555
O16 Cu3 1_555 1_555
N4 C56 1_555 1_555
C47 C48 1_555 1_555
C48 H31 1_555 1_555
C49 C47 1_555 1_555
H32 C49 1_555 1_555
C50 C51 1_555 1_555
C51 C55 1_555 1_555
C52 O15 1_555 1_555
C53 C49 1_555 1_555
H33 C53 1_555 1_555
C54 C48 1_555 1_555
H34 C54 1_555 1_555
C55 H35 1_555 1_555
C56 C55 1_555 1_555
H36 C56 1_555 1_555
C57 C51 1_555 1_555
H37 C57 1_555 1_555
C58 N4 1_555 1_555
H38 C58 1_555 1_555
Cu4 N3 1_555 1_555
Cu6 N1 1_555 1_555
Cu6_2 N4 1_555 1_555
O5 Cu3 1_555 1_555
C2 C13 1_555 1_555
C7 C16 1_555 1_555
C7 C25 1_555 1_555
C14 C27 1_555 1_555
C15 C22 1_555 1_555
C24 C33 1_555 1_555
C30 C31 1_555 1_555
C39 C41 1_555 1_555
O13 Cu3 1_555 1_555
C43 C44 1_555 1_555
C45 C46 1_555 1_555
O16 C52 1_555 1_555
C47 C52 1_555 1_555
C50 C53 1_555 1_555
C50 C54 1_555 1_555
C57 C58 1_555 1_555
Cu4 O3 1_555 1_555
S1 O2 1_555 1_555
O3 S1 1_555 1_555
O8 S1 1_555 1_555
N2 Cu4 1_555 1_555
C6 C23 1_555 1_555
C17 S1 1_555 1_555
C18 C17 1_555 1_555
H7 C18 1_555 1_555
C19 C18 1_555 1_555
H8 C19 1_555 1_555
C20 C19 1_555 1_555
H9 C20 1_555 1_555
C21 C17 1_555 1_555
C23 H10 1_555 1_555
C28 N2 1_555 1_555
H15 C28 1_555 1_555
S2 O9 1_555 1_555
O10 S2 1_555 1_555
O11 S2 1_555 1_555
C34 S2 1_555 1_555
C35 C34 1_555 1_555
H20 C35 1_555 1_555
C36 C35 1_555 1_555
H21 C36 1_555 1_555
C37 C21 1_555 1_555
H22 C37 1_555 1_555
C38 C20 1_555 1_555
C40 C6 1_555 1_555
H24 C40 1_555 1_555
C42 N2 1_555 1_555
H26 C42 1_555 1_555
Cu7_2 O10 1_555 1_555
O17 Cu4 1_555 1_555
N5 Cu4 1_555 1_555
N6 Cu4 1_555 1_555
C21 C38 1_555 1_555
C23 C28 1_555 1_555
C34 C38 1_555 1_555
C36 C37 1_555 1_555
C40 C42 1_555 1_555
O17 S1_2 1_555 1_555
O8_2 S1_2 1_555 1_555
C17_2 S1_2 1_555 1_555
C18_2 C17_2 1_555 1_555
H7_2 C18_2 1_555 1_555
C21_2 C17_2 1_555 1_555
H21_2 C36_2 1_555 1_555
C37_2 C21_2 1_555 1_555
H22_2 C37_2 1_555 1_555
C36_2 C37_2 1_555 1_555
H8_2 C19_2 1_555 1_555
C20_2 C19_2 1_555 1_555
H9_2 C20_2 1_555 1_555
O10_2 S2_2 1_555 1_555
O11_2 S2_2 1_555 1_555
C34_2 S2_2 1_555 1_555
C35_2 C34_2 1_555 1_555
H20_2 C35_2 1_555 1_555
C38_2 C20_2 1_555 1_555
Cu7 O10_2 1_555 1_555
C34_2 C38_2 1_555 1_555
C33_2 C11_2 1_555 1_555
C43_2 C11_2 1_555 1_555
H27_2 C43_2 1_555 1_555
C45_2 C33_2 1_555 1_555
H29_2 C45_2 1_555 1_555
C46_2 N3_2 1_555 1_555
H30_2 C46_2 1_555 1_555
Cu6 N3_2 1_555 1_555
C45_2 C46_2 1_555 1_555
Cu1_2 O1_2 1_555 1_555
Cu6 O3_2 1_555 1_555
S1_3 O2_3 1_555 1_555
O1_2 C9_2 1_555 1_555
O3_2 S1_3 1_555 1_555
O4_2 Cu1_2 1_555 1_555
O7_2 Cu1_2 1_555 1_555
O8_3 S1_3 1_555 1_555
C1_2 C9_2 1_555 1_555
N2_2 Cu6 1_555 1_555
C4_2 C6_2 1_555 1_555
C6_2 C23_2 1_555 1_555
C12_2 O7_2 1_555 1_555
C14_2 C4_2 1_555 1_555
H4_2 C14_2 1_555 1_555
C17_3 S1_3 1_555 1_555
C18_3 C17_3 1_555 1_555
H7_3 C18_3 1_555 1_555
C19_3 C18_3 1_555 1_555
H8_3 C19_3 1_555 1_555
C20_3 C19_3 1_555 1_555
H9_3 C20_3 1_555 1_555
C21_3 C17_3 1_555 1_555
C22_2 C12_2 1_555 1_555
C23_2 H10_2 1_555 1_555
C27_2 C1_2 1_555 1_555
H14_2 C27_2 1_555 1_555
C28_2 N2_2 1_555 1_555
H15_2 C28_2 1_555 1_555
S2_3 O9_3 1_555 1_555
O10_3 S2_3 1_555 1_555
O11_3 S2_3 1_555 1_555
C34_3 S2_3 1_555 1_555
C35_3 C34_3 1_555 1_555
H20_3 C35_3 1_555 1_555
C36_3 C35_3 1_555 1_555
H21_3 C36_3 1_555 1_555
C37_3 C21_3 1_555 1_555
H22_3 C37_3 1_555 1_555
C38_3 C20_3 1_555 1_555
C44_2 C22_2 1_555 1_555
H28_2 C44_2 1_555 1_555
O15_2 Cu1_2 1_555 1_555
N6 C56_2 1_555 1_555
C47_2 C48_2 1_555 1_555
C48_2 H31_2 1_555 1_555
C49_2 C47_2 1_555 1_555
H32_2 C49_2 1_555 1_555
C50_2 C51_2 1_555 1_555
C51_2 C55_2 1_555 1_555
C52_2 O15_2 1_555 1_555
C53_2 C49_2 1_555 1_555
H33_2 C53_2 1_555 1_555
C54_2 C48_2 1_555 1_555
H34_2 C54_2 1_555 1_555
C55_2 H35_2 1_555 1_555
C56_2 C55_2 1_555 1_555
H36_2 C56_2 1_555 1_555
C57_2 C51_2 1_555 1_555
H37_2 C57_2 1_555 1_555
C58_2 N6 1_555 1_555
H38_2 C58_2 1_555 1_555
Cu7_3 O10_3 1_555 1_555
C14_2 C27_2 1_555 1_555
C21_3 C38_3 1_555 1_555
C23_2 C28_2 1_555 1_555
C34_3 C38_3 1_555 1_555
C36_3 C37_3 1_555 1_555
O16_2 C52_2 1_555 1_555
C47_2 C52_2 1_555 1_555
C50_2 C53_2 1_555 1_555
C50_2 C54_2 1_555 1_555
C57_2 C58_2 1_555 1_555
N3_3 C32_2 1_555 1_555
C10_2 H3_2 1_555 1_555
C11_3 C10_2 1_555 1_555
C24_2 H11_2 1_555 1_555
C32_2 C24_2 1_555 1_555
H19_2 C32_2 1_555 1_555
C33_3 C11_3 1_555 1_555
Cu6_2 N3_3 1_555 1_555
C24_2 C33_3 1_555 1_555
O5_2 C13_2 1_555 1_555
C1_3 C9_3 1_555 1_555
N5 C29_2 1_555 1_555
N2_3 Cu6_2 1_555 1_555
C2_2 C3_2 1_555 1_555
C3_2 H1_2 1_555 1_555
C4_3 C6_3 1_555 1_555
C5_2 C2_2 1_555 1_555
H2_2 C5_2 1_555 1_555
C7_2 C8_2 1_555 1_555
C8_2 C26_2 1_555 1_555
C9_3 O12_2 1_555 1_555
C13_2 O6_2 1_555 1_555
H5_2 C15_2 1_555 1_555
C16_2 C5_2 1_555 1_555
H6_2 C16_2 1_555 1_555
C22_3 C12_3 1_555 1_555
C25_2 C3_2 1_555 1_555
H12_2 C25_2 1_555 1_555
C26_2 H13_2 1_555 1_555
C29_2 C26_2 1_555 1_555
H16_2 C29_2 1_555 1_555
C30_2 C8_2 1_555 1_555
H17_2 C30_2 1_555 1_555
C31_2 N5 1_555 1_555
H18_2 C31_2 1_555 1_555
O12_2 Cu3_2 1_555 1_555
C39_2 C4_3 1_555 1_555
H23_2 C39_2 1_555 1_555
C40_2 C6_3 1_555 1_555
H24_2 C40_2 1_555 1_555
C41_2 C1_3 1_555 1_555
H25_2 C41_2 1_555 1_555
C42_2 N2_3 1_555 1_555
H26_2 C42_2 1_555 1_555
O13_2 C12_3 1_555 1_555
O14_2 Cu3_2 1_555 1_555
O17_2 Cu6_2 1_555 1_555
O5_2 Cu3_2 1_555 1_555
C2_2 C13_2 1_555 1_555
C7_2 C16_2 1_555 1_555
C7_2 C25_2 1_555 1_555
C15_2 C22_3 1_555 1_555
C30_2 C31_2 1_555 1_555
C39_2 C41_2 1_555 1_555
C40_2 C42_2 1_555 1_555
O13_2 Cu3_2 1_555 1_555
O17_2 S1_4 1_555 1_555
O8_4 S1_4 1_555 1_555
C17_4 S1_4 1_555 1_555
C18_4 C17_4 1_555 1_555
H7_4 C18_4 1_555 1_555
C21_4 C17_4 1_555 1_555
H21_4 C36_4 1_555 1_555
C37_4 C21_4 1_555 1_555
H22_4 C37_4 1_555 1_555
C36_4 C37_4 1_555 1_555
H8_4 C19_4 1_555 1_555
C20_4 C19_4 1_555 1_555
H9_4 C20_4 1_555 1_555
O10_4 S2_4 1_555 1_555
O11_4 S2_4 1_555 1_555
C34_4 S2_4 1_555 1_555
C35_4 C34_4 1_555 1_555
H20_4 C35_4 1_555 1_555
C38_4 C20_4 1_555 1_555
Cu7_3 O10_4 1_555 1_555
C34_4 C38_4 1_555 1_555
N2_4 Cu7_3 1_555 1_555
C6_4 C23_3 1_555 1_555
C23_3 H10_3 1_555 1_555
C28_3 N2_4 1_555 1_555
H15_3 C28_3 1_555 1_555
C40_3 C6_4 1_555 1_555
H24_3 C40_3 1_555 1_555
C42_3 N2_4 1_555 1_555
H26_3 C42_3 1_555 1_555
N5_2 Cu7_3 1_555 1_555
N6_2 Cu7_3 1_555 1_555
N7 Cu7_3 1_555 1_555
C23_3 C28_3 1_555 1_555
C40_3 C42_3 1_555 1_555
Cu1_3 O1_3 1_555 1_555
O1_3 C9_4 1_555 1_555
O4_3 Cu1_3 1_555 1_555
O5_3 C13_3 1_555 1_555
O6_3 Cu1_3 1_555 1_555
O7_3 Cu1_3 1_555 1_555
C1_4 C9_4 1_555 1_555
N1_2 C29_3 1_555 1_555
N7 C32_3 1_555 1_555
C2_3 C3_3 1_555 1_555
C3_3 H1_3 1_555 1_555
C5_3 C2_3 1_555 1_555
H2_3 C5_3 1_555 1_555
C7_3 C8_3 1_555 1_555
C8_3 C26_3 1_555 1_555
C9_4 O12_3 1_555 1_555
C10_3 H3_3 1_555 1_555
C11_4 C10_3 1_555 1_555
C12_4 O7_3 1_555 1_555
C13_3 O6_3 1_555 1_555
C14_3 C4_4 1_555 1_555
H4_3 C14_3 1_555 1_555
C15_3 C10_3 1_555 1_555
H5_3 C15_3 1_555 1_555
C16_3 C5_3 1_555 1_555
H6_3 C16_3 1_555 1_555
C22_4 C12_4 1_555 1_555
C24_3 H11_3 1_555 1_555
C25_3 C3_3 1_555 1_555
H12_3 C25_3 1_555 1_555
C26_3 H13_3 1_555 1_555
C27_3 C1_4 1_555 1_555
H14_3 C27_3 1_555 1_555
C29_3 C26_3 1_555 1_555
H16_3 C29_3 1_555 1_555
C30_3 C8_3 1_555 1_555
H17_3 C30_3 1_555 1_555
C31_3 N1_2 1_555 1_555
H18_3 C31_3 1_555 1_555
C32_3 C24_3 1_555 1_555
H19_3 C32_3 1_555 1_555
C33_4 C11_4 1_555 1_555
O12_3 Cu3_3 1_555 1_555
C39_3 C4_4 1_555 1_555
H23_3 C39_3 1_555 1_555
C41_3 C1_4 1_555 1_555
H25_3 C41_3 1_555 1_555
O13_3 C12_4 1_555 1_555
C43_3 C11_4 1_555 1_555
H27_3 C43_3 1_555 1_555
C44_3 C22_4 1_555 1_555
H28_3 C44_3 1_555 1_555
C45_3 C33_4 1_555 1_555
H29_3 C45_3 1_555 1_555
C46_3 N7 1_555 1_555
H30_3 C46_3 1_555 1_555
Cu3_3 Cu1_3 1_555 1_555
O14_3 Cu3_3 1_555 1_555
O15_3 Cu1_3 1_555 1_555
O16_3 Cu3_3 1_555 1_555
N4_2 C56_3 1_555 1_555
C47_3 C48_3 1_555 1_555
C48_3 H31_3 1_555 1_555
C49_3 C47_3 1_555 1_555
H32_3 C49_3 1_555 1_555
C50_3 C51_3 1_555 1_555
C51_3 C55_3 1_555 1_555
C52_3 O15_3 1_555 1_555
C53_3 C49_3 1_555 1_555
H33_3 C53_3 1_555 1_555
C54_3 C48_3 1_555 1_555
H34_3 C54_3 1_555 1_555
C55_3 H35_3 1_555 1_555
C56_3 C55_3 1_555 1_555
H36_3 C56_3 1_555 1_555
C57_3 C51_3 1_555 1_555
H37_3 C57_3 1_555 1_555
C58_3 N4_2 1_555 1_555
H38_3 C58_3 1_555 1_555
Cu7_2 N1_2 1_555 1_555
Cu7 N4_2 1_555 1_555
O5_3 Cu3_3 1_555 1_555
C2_3 C13_3 1_555 1_555
C7_3 C16_3 1_555 1_555
C7_3 C25_3 1_555 1_555
C14_3 C27_3 1_555 1_555
C15_3 C22_4 1_555 1_555
C24_3 C33_4 1_555 1_555
C30_3 C31_3 1_555 1_555
C39_3 C41_3 1_555 1_555
O13_3 Cu3_3 1_555 1_555
C43_3 C44_3 1_555 1_555
C45_3 C46_3 1_555 1_555
O16_3 C52_3 1_555 1_555
C47_3 C52_3 1_555 1_555
C50_3 C53_3 1_555 1_555
C50_3 C54_3 1_555 1_555
C57_3 C58_3 1_555 1_555
O5_4 C13_4 1_555 1_555
C1_5 C9_5 1_555 1_555
N5_2 C29_4 1_555 1_555
N2_5 Cu7 1_555 1_555
C2_4 C3_4 1_555 1_555
C3_4 H1_4 1_555 1_555
C4_5 C6_5 1_555 1_555
C5_4 C2_4 1_555 1_555
H2_4 C5_4 1_555 1_555
C7_4 C8_4 1_555 1_555
C8_4 C26_4 1_555 1_555
C9_5 O12_4 1_555 1_555
C13_4 O6_4 1_555 1_555
H5_4 C15_4 1_555 1_555
C16_4 C5_4 1_555 1_555
H6_4 C16_4 1_555 1_555
C22_5 C12_5 1_555 1_555
C25_4 C3_4 1_555 1_555
H12_4 C25_4 1_555 1_555
C26_4 H13_4 1_555 1_555
C29_4 C26_4 1_555 1_555
H16_4 C29_4 1_555 1_555
C30_4 C8_4 1_555 1_555
H17_4 C30_4 1_555 1_555
C31_4 N5_2 1_555 1_555
H18_4 C31_4 1_555 1_555
O12_4 Cu3_4 1_555 1_555
C39_4 C4_5 1_555 1_555
H23_4 C39_4 1_555 1_555
C40_4 C6_5 1_555 1_555
H24_4 C40_4 1_555 1_555
C41_4 C1_5 1_555 1_555
H25_4 C41_4 1_555 1_555
C42_4 N2_5 1_555 1_555
H26_4 C42_4 1_555 1_555
O13_4 C12_5 1_555 1_555
O14_4 Cu3_4 1_555 1_555
N7_2 Cu7 1_555 1_555
O5_4 Cu3_4 1_555 1_555
C2_4 C13_4 1_555 1_555
C7_4 C16_4 1_555 1_555
C7_4 C25_4 1_555 1_555
C15_4 C22_5 1_555 1_555
C30_4 C31_4 1_555 1_555
C39_4 C41_4 1_555 1_555
C40_4 C42_4 1_555 1_555
O13_4 Cu3_4 1_555 1_555
N7_2 C32_4 1_555 1_555
C10_4 H3_4 1_555 1_555
C11_5 C10_4 1_555 1_555
C24_4 H11_4 1_555 1_555
C32_4 C24_4 1_555 1_555
H19_4 C32_4 1_555 1_555
C33_5 C11_5 1_555 1_555
C24_4 C33_5 1_555 1_555
Cu1_4 O1_4 1_555 1_555
O1_4 C9_6 1_555 1_555
O4_4 Cu1_4 1_555 1_555
O7_4 Cu1_4 1_555 1_555
C1_6 C9_6 1_555 1_555
N2_6 Cu7_2 1_555 1_555
C4_6 C6_6 1_555 1_555
C6_6 C23_4 1_555 1_555
C12_6 O7_4 1_555 1_555
C14_4 C4_6 1_555 1_555
H4_4 C14_4 1_555 1_555
C22_6 C12_6 1_555 1_555
C23_4 H10_4 1_555 1_555
C27_4 C1_6 1_555 1_555
H14_4 C27_4 1_555 1_555
C28_4 N2_6 1_555 1_555
H15_4 C28_4 1_555 1_555
C44_4 C22_6 1_555 1_555
H28_4 C44_4 1_555 1_555
O15_4 Cu1_4 1_555 1_555
N6_2 C56_4 1_555 1_555
C47_4 C48_4 1_555 1_555
C48_4 H31_4 1_555 1_555
C49_4 C47_4 1_555 1_555
H32_4 C49_4 1_555 1_555
C50_4 C51_4 1_555 1_555
C51_4 C55_4 1_555 1_555
C52_4 O15_4 1_555 1_555
C53_4 C49_4 1_555 1_555
H33_4 C53_4 1_555 1_555
C54_4 C48_4 1_555 1_555
H34_4 C54_4 1_555 1_555
C55_4 H35_4 1_555 1_555
C56_4 C55_4 1_555 1_555
H36_4 C56_4 1_555 1_555
C57_4 C51_4 1_555 1_555
H37_4 C57_4 1_555 1_555
C58_4 N6_2 1_555 1_555
H38_4 C58_4 1_555 1_555
N7_3 Cu7_2 1_555 1_555
C14_4 C27_4 1_555 1_555
C23_4 C28_4 1_555 1_555
O16_4 C52_4 1_555 1_555
C47_4 C52_4 1_555 1_555
C50_4 C53_4 1_555 1_555
C50_4 C54_4 1_555 1_555
C57_4 C58_4 1_555 1_555
C33_6 C11_6 1_555 1_555
C43_4 C11_6 1_555 1_555
H27_4 C43_4 1_555 1_555
C45_4 C33_6 1_555 1_555
H29_4 C45_4 1_555 1_555
C46_4 N7_3 1_555 1_555
H30_4 C46_4 1_555 1_555
C45_4 C46_4 1_555 1_555

#END
