
###############################################################################
#
# This file contains modified crystal structure data generated from the
# MOF subset of the Cambridge Structural Database (CSD) v543 
# hosted by the Cambridge Crystallographic Data Centre (CCDC).
#
# This work is licensed under the Creative Commons
# Attribution-NonCommercial-ShareAlike 4.0 International License.
# To view a copy of this license, visit
# http://creativecommons.org/licenses/by-nc-sa/4.0/
# or send a letter to
# Creative Commons, PO Box 1866, Mountain View, CA 94042, USA.
#
# CIF created using the CSD Python API on 29 September 2022
# The structure has been converted into the P1 space group
# The structure has a 3D framework
# The original CSD entry ZAHNAB is in the monoclinic crystal system
# The framework has been calculated to contain at least 10.0% void space
# The void calculation uses a probe of radius 1.32A, grid spacing 0.4
#
###############################################################################

data_ZAHNAB
_chemical_formula_moiety         '(C260 H196 N8 O90 Tb12)n'
_symmetry_cell_setting           triclinic
_symmetry_space_group_name_H-M   'P 1'
_symmetry_Int_Tables_number      1
_space_group_name_Hall           'P 1'
loop_
_symmetry_equiv_pos_site_id
_symmetry_equiv_pos_as_xyz
1 x,y,z
_cell_length_a                   15.5565(2)
_cell_length_b                   23.3284(3)
_cell_length_c                   20.3669(3)
_cell_angle_alpha                90
_cell_angle_beta                 102.3313(15)
_cell_angle_gamma                90
_cell_volume                     7220.79
loop_
_atom_site_label
_atom_site_type_symbol
_atom_site_fract_x
_atom_site_fract_y
_atom_site_fract_z
O16 O 0.12510(14) 0.19155(10) 0.16755(11)
O17 O 0.20846(13) 0.25584(9) 0.13263(11)
C40 C 0.05216(19) 0.28800(14) 0.03561(16)
H22 H 0.085470 0.319213 0.057771
C41 C 0.06996(19) 0.23301(13) 0.05996(16)
C42 C 0.02087(19) 0.18577(13) 0.02565(16)
C43 C 0.0405(2) 0.12810(14) 0.04650(17)
H23 H 0.086460 0.120640 0.084411
H24 H 0.007777 0.045388 0.028315
C48 C 0.13745(19) 0.22509(13) 0.12269(16)
Tb5 Tb 0.33774(2) 0.26858(2) 0.08897(2)
Tb6 Tb 0.25163(2) 0.22302(2) 0.25383(2)
O20 O 0.24221(15) 0.22487(9) 0.99468(11)
O21 O 0.24772(15) 0.31888(9) 0.99482(11)
C50 C 0.0250(2) 0.25780(13) 0.77852(17)
C51 C 0.0534(2) 0.21149(14) 0.82052(17)
H27 H 0.029671 0.174489 0.808495
C52 C 0.1166(2) 0.21864(14) 0.88051(16)
H28 H 0.135661 0.185909 0.907454
C53 C 0.15134(18) 0.27037(12) 0.90134(15)
C54 C 0.1223(2) 0.32108(14) 0.86112(16)
C55 C 0.1517(2) 0.37786(14) 0.87915(18)
H29 H 0.191548 0.384344 0.920803
C56 C 0.1234(2) 0.42348(15) 0.83738(19)
H30 H 0.145021 0.460856 0.850030
C57 C 0.0628(2) 0.41535(15) 0.77600(18)
H31 H 0.043415 0.447124 0.747487
C58 C 0.0321(2) 0.36196(15) 0.75779(17)
C59 C 0.0604(2) 0.31345(14) 0.79865(16)
C60 C 0.21749(19) 0.27234(13) 0.96682(15)
O23 O 0.05922(14) 0.25184(10) 0.48517(12)
Tb9 Tb 0.15811(2) 0.26722(2) 0.41485(2)
Tb1 Tb 0.83774(2) 0.23142(2) 0.58897(2)
Tb2 Tb 0.75163(2) 0.27698(2) 0.75383(2)
Tb3 Tb 0.65811(2) 0.23278(2) 0.91485(2)
O1 O 0.75926(17) 0.17425(10) 0.75625(13)
H1 H 0.769(3) 0.1546(13) 0.7238(13)
H2 H 0.731(2) 0.1550(13) 0.7796(16)
O2 O 0.79890(15) 0.35385(9) 0.69984(12)
O3 O 0.84385(14) 0.33107(9) 0.60566(11)
O4 O 0.81683(15) 0.64390(9) 0.64079(11)
O5 O 0.88162(15) 0.63017(9) 0.55637(11)
C1 C 0.82075(19) 0.36610(13) 0.64578(16)
C2 C 0.8212(2) 0.42927(13) 0.62931(16)
C3 C 0.7879(2) 0.45157(13) 0.56345(16)
C4 C 0.7458(2) 0.41701(14) 0.50861(17)
H3 H 0.744660 0.376548 0.513561
C5 C 0.7069(2) 0.44168(15) 0.44849(18)
H4 H 0.679676 0.417917 0.412070
C6 C 0.7064(2) 0.50161(15) 0.43970(18)
H5 H 0.677077 0.518027 0.398257
C7 C 0.7481(2) 0.53602(14) 0.49092(17)
H6 H 0.748363 0.576365 0.484600
C8 C 0.7912(2) 0.51222(13) 0.55357(16)
C9 C 0.8322(2) 0.54756(13) 0.60881(16)
C10 C 0.8601(2) 0.52445(13) 0.67166(18)
H7 H 0.884372 0.548775 0.708363
C11 C 0.8535(2) 0.46519(14) 0.68251(17)
H8 H 0.871195 0.449961 0.726585
C12 C 0.84407(19) 0.61055(13) 0.60082(16)
O6 O 0.62431(15) 0.33055(9) 0.88646(12)
O7 O 0.70211(14) 0.35246(9) 0.80933(12)
O8 O 0.58504(15) 0.63550(10) 0.91265(13)
O9 O 0.69615(16) 0.64072(9) 0.86263(12)
C13 C 0.6621(2) 0.36514(13) 0.85467(16)
C14 C 0.6614(2) 0.42804(13) 0.87213(16)
C15 C 0.7415(2) 0.46022(14) 0.88929(18)
C16 C 0.8259(2) 0.43376(16) 0.8974(2)
H9 H 0.829839 0.393945 0.888627
C17 C 0.9008(3) 0.46501(18) 0.9174(3)
H10 H 0.956488 0.447011 0.921352
C18 C 0.8967(3) 0.52393(17) 0.9325(3)
H11 H 0.949368 0.544762 0.948998
C19 C 0.8171(2) 0.55106(16) 0.9235(2)
H12 H 0.815051 0.590908 0.932674
C20 C 0.7372(2) 0.52031(14) 0.90050(18)
C21 C 0.6519(2) 0.54731(13) 0.88941(17)
C22 C 0.5775(2) 0.51451(14) 0.87617(19)
H13 H 0.521766 0.532414 0.872166
C23 C 0.5818(2) 0.45445(14) 0.86831(18)
H14 H 0.529361 0.432306 0.860356
C24 C 0.6439(2) 0.61128(13) 0.88819(16)
O10 O 0.51584(14) 0.22017(10) 0.83831(12)
O11 O 0.62192(13) 0.24166(9) 0.78665(11)
O12 O 0.25965(14) 0.30100(10) 0.51531(11)
O13 O 0.24038(15) 0.20847(10) 0.50349(12)
C25 C 0.54154(19) 0.23188(12) 0.78538(15)
C26 C 0.47552(19) 0.23472(14) 0.72032(17)
C27 C 0.4407(2) 0.28631(14) 0.69642(17)
H15 H 0.458774 0.320290 0.721248
C28 C 0.3785(2) 0.28956(15) 0.63564(17)
H16 H 0.355807 0.326109 0.620272
C29 C 0.34860(19) 0.24179(14) 0.59690(16)
C30 C 0.3864(2) 0.18653(14) 0.62019(16)
C31 C 0.3661(2) 0.13470(15) 0.58351(18)
H17 H 0.326114 0.135507 0.541143
C32 C 0.4030(3) 0.08356(16) 0.6080(2)
H18 H 0.387393 0.049439 0.582784
C33 C 0.4634(3) 0.08103(17) 0.6696(2)
H19 H 0.488457 0.045295 0.685956
C34 C 0.4863(3) 0.12967(16) 0.70631(19)
H20 H 0.527227 0.127478 0.748169
C35 C 0.4498(2) 0.18363(14) 0.68270(16)
C36 C 0.2801(2) 0.25053(14) 0.53529(16)
O14 O 0.78826(13) 0.24512(9) 0.87575(11)
O15 O 0.88120(14) 0.30316(9) 0.84219(11)
C37 C 0.86537(19) 0.26872(13) 0.88527(15)
C38 C 0.93457(19) 0.25406(14) 0.94561(15)
C39 C 0.9851(2) 0.29836(14) 0.97821(16)
H21 H 0.974606 0.336392 0.961787
C45 C 0.9271(2) 0.09344(15) 0.95588(18)
H25 H 0.895396 0.062001 0.932839
C46 C 0.9070(2) 0.14824(14) 0.93328(17)
H26 H 0.862434 0.154283 0.894053
C47 C 0.95225(19) 0.19628(14) 0.96793(16)
O18 O 0.87949(13) 0.24278(9) 0.71526(11)
O19 O 0.98680(15) 0.24569(12) 0.66101(12)
C49 C 0.9607(2) 0.24879(13) 0.71492(16)
H32 H 0.990647 0.356941 0.716606
O22 O 0.93277(16) 0.24295(12) 0.51687(13)
C61 C 0.9787(2) 0.25958(17) 0.47956(19)
H33 H 0.949914 0.281043 0.441547
Tb4 Tb 0.66226(2) 0.73142(2) 0.91103(2)
Tb7 Tb 0.84189(2) 0.73278(2) 0.58515(2)
O24 O 0.68317(15) 0.14390(9) 0.85921(11)
O25 O 0.61838(15) 0.13017(9) 0.94363(11)
O26 O 0.91496(15) 0.13550(10) 0.58735(13)
O27 O 0.80385(16) 0.14072(9) 0.63737(12)
O30 O 0.62510(14) 0.30845(10) 0.66755(11)
O31 O 0.70846(13) 0.24416(9) 0.63263(11)
O32 O 0.74221(15) 0.27513(9) 0.49468(11)
O33 O 0.74772(15) 0.18112(9) 0.49482(11)
O34 O 0.55922(14) 0.24816(10) 0.98517(12)
Tb8 Tb 0.34189(2) 0.76722(2) 0.08515(2)
C8_2 C 0.7088(2) 0.01222(13) 0.94643(16)
C9_2 C 0.6678(2) 0.04756(13) 0.89119(16)
C10_2 C 0.6399(2) 0.02445(13) 0.82834(18)
H7_2 H 0.615628 0.048775 0.791637
C12_2 C 0.65593(19) 0.11055(13) 0.89918(16)
C18_2 C 0.6033(3) 0.02393(17) 0.5675(3)
H11_2 H 0.550632 0.044762 0.551002
C19_2 C 0.6829(2) 0.05106(16) 0.5765(2)
H12_2 H 0.684949 0.090908 0.567326
C20_2 C 0.7628(2) 0.02031(14) 0.59950(18)
C21_2 C 0.8481(2) 0.04731(13) 0.61059(17)
C22_2 C 0.9225(2) 0.01451(14) 0.62383(19)
H13_2 H 0.978234 0.032414 0.627834
C24_2 C 0.8561(2) 0.11128(13) 0.61181(16)
C5_2 C 0.7931(2) 0.94168(15) 0.05151(18)
H4_2 H 0.820324 0.917917 0.087930
O23_2 O 0.44078(14) 0.75184(10) 0.01483(12)
C61_2 C 0.5213(2) 0.75958(17) 0.02044(19)
H33_2 H 0.550086 0.781043 0.058453
O32_2 O 0.75779(15) 0.77513(9) 0.00532(11)
O33_2 O 0.75228(15) 0.68112(9) 0.00518(11)
Tb2_2 Tb 0.74837(2) 0.77698(2) 0.74617(2)
O1_2 O 0.74074(17) 0.67425(10) 0.74375(13)
H1_2 H 0.731(3) 0.6546(13) 0.7762(13)
H2_2 H 0.769(2) 0.6550(13) 0.7204(16)
O2_2 O 0.70110(15) 0.85385(9) 0.80016(12)
O3_2 O 0.65615(14) 0.83107(9) 0.89434(11)
C1_2 C 0.67925(19) 0.86610(13) 0.85422(16)
C2_2 C 0.6788(2) 0.92927(13) 0.87069(16)
C3_2 C 0.7121(2) 0.95157(13) 0.93655(16)
C4_2 C 0.7542(2) 0.91701(14) 0.99139(17)
H3_2 H 0.755340 0.876548 0.986439
C11_2 C 0.6465(2) 0.96519(14) 0.81749(17)
H8_2 H 0.628805 0.949961 0.773415
O6_2 O 0.87569(15) 0.83055(9) 0.61354(12)
O7_2 O 0.79789(14) 0.85246(9) 0.69067(12)
C13_2 C 0.8379(2) 0.86514(13) 0.64533(16)
C14_2 C 0.8386(2) 0.92804(13) 0.62787(16)
C15_2 C 0.7585(2) 0.96022(14) 0.61071(18)
C16_2 C 0.6741(2) 0.93376(16) 0.6026(2)
H9_2 H 0.670161 0.893945 0.611373
C17_2 C 0.5992(3) 0.96501(18) 0.5826(3)
H10_2 H 0.543512 0.947011 0.578648
C23_2 C 0.9182(2) 0.95445(14) 0.63169(18)
H14_2 H 0.970639 0.932306 0.639644
O10_2 O 0.98416(14) 0.72017(10) 0.66169(12)
O11_2 O 0.87808(13) 0.74166(9) 0.71335(11)
C25_2 C 0.95846(19) 0.73188(12) 0.71462(15)
H20_2 H 0.972773 0.627478 0.751831
O14_2 O 0.71174(13) 0.74512(9) 0.62425(11)
O15_2 O 0.61880(14) 0.80316(9) 0.65781(11)
O16_2 O 0.37490(14) 0.69155(10) 0.33245(11)
O17_2 O 0.29154(13) 0.75584(9) 0.36737(11)
C37_2 C 0.63463(19) 0.76872(13) 0.61473(15)
C38_2 C 0.56543(19) 0.75406(14) 0.55439(15)
C39_2 C 0.5149(2) 0.79836(14) 0.52179(16)
H21_2 H 0.525394 0.836392 0.538213
C40_2 C 0.44784(19) 0.78800(14) 0.46439(16)
H22_2 H 0.414530 0.819213 0.442229
C41_2 C 0.43004(19) 0.73301(13) 0.44004(16)
C42_2 C 0.47913(19) 0.68577(13) 0.47435(16)
C43_2 C 0.4595(2) 0.62810(14) 0.45350(17)
H23_2 H 0.413540 0.620640 0.415589
C44 C 0.5056(2) 0.58349(14) 0.48696(19)
H24_2 H 0.492223 0.545388 0.471685
C45_2 C 0.5729(2) 0.59344(15) 0.54412(18)
H25_2 H 0.604604 0.562001 0.567161
C46_2 C 0.5930(2) 0.64824(14) 0.56672(17)
H26_2 H 0.637566 0.654283 0.605947
C47_2 C 0.54775(19) 0.69628(14) 0.53207(16)
C48_2 C 0.36255(19) 0.72509(13) 0.37731(16)
O18_2 O 0.62051(13) 0.74278(9) 0.78474(11)
O19_2 O 0.51320(15) 0.74569(12) 0.83899(12)
O20_2 O 0.25779(15) 0.72487(9) 0.50532(11)
O21_2 O 0.25228(15) 0.81888(9) 0.50518(11)
C49_2 C 0.5393(2) 0.74879(13) 0.78508(16)
C50_2 C 0.4750(2) 0.75780(13) 0.72148(17)
C51_2 C 0.4466(2) 0.71149(14) 0.67948(17)
H27_2 H 0.470329 0.674489 0.691505
C52_2 C 0.3834(2) 0.71864(14) 0.61949(16)
H28_2 H 0.364339 0.685909 0.592546
C53_2 C 0.34866(18) 0.77037(12) 0.59866(15)
C54_2 C 0.3777(2) 0.82108(14) 0.63888(16)
C55_2 C 0.3483(2) 0.87786(14) 0.62085(18)
H29_2 H 0.308452 0.884344 0.579197
C56_2 C 0.3766(2) 0.92348(15) 0.66262(19)
H30_2 H 0.354979 0.960856 0.649970
C57_2 C 0.4372(2) 0.91535(15) 0.72400(18)
H31_2 H 0.456585 0.947124 0.752513
C58_2 C 0.4679(2) 0.86196(15) 0.74221(17)
H32_2 H 0.509353 0.856941 0.783394
C59_2 C 0.4396(2) 0.81345(14) 0.70135(16)
C60_2 C 0.28251(19) 0.77234(13) 0.53318(15)
O22_2 O 0.56723(16) 0.74295(12) 0.98313(13)
Tb5_2 Tb 0.16226(2) 0.76858(2) 0.41103(2)
Tb6_2 Tb 0.24837(2) 0.72302(2) 0.24617(2)
O28 O 0.74035(14) 0.69900(10) 0.48469(11)
O29 O 0.75962(15) 0.79153(10) 0.49651(12)
O30_2 O 0.87490(14) 0.80845(10) 0.83245(11)
O31_2 O 0.79154(13) 0.74416(9) 0.86737(11)
O34_2 O 0.94078(14) 0.74816(10) 0.51483(12)
O1_3 O 0.24074(17) 0.82575(10) 0.24375(13)
H1_3 H 0.231(3) 0.8454(13) 0.2762(13)
H2_3 H 0.269(2) 0.8450(13) 0.2204(16)
O2_3 O 0.20110(15) 0.64615(9) 0.30016(12)
O3_3 O 0.15615(14) 0.66893(9) 0.39434(11)
O4_2 O 0.18317(15) 0.35610(9) 0.35921(11)
O5_2 O 0.11838(15) 0.36983(9) 0.44363(11)
C1_3 C 0.17925(19) 0.63390(13) 0.35422(16)
C2_3 C 0.1788(2) 0.57073(13) 0.37069(16)
C3_3 C 0.2121(2) 0.54843(13) 0.43655(16)
C4_3 C 0.2542(2) 0.58299(14) 0.49139(17)
H3_3 H 0.255340 0.623452 0.486439
C5_3 C 0.2931(2) 0.55832(15) 0.55151(18)
H4_3 H 0.320324 0.582083 0.587930
C6_2 C 0.2936(2) 0.49839(15) 0.56030(18)
H5_2 H 0.322923 0.481973 0.601743
C7_2 C 0.2519(2) 0.46398(14) 0.50908(17)
H6_2 H 0.251637 0.423635 0.515400
C8_3 C 0.2088(2) 0.48778(13) 0.44643(16)
C9_3 C 0.1678(2) 0.45244(13) 0.39119(16)
C10_3 C 0.1399(2) 0.47555(13) 0.32834(18)
H7_3 H 0.115628 0.451225 0.291637
C11_3 C 0.1465(2) 0.53481(14) 0.31749(17)
H8_3 H 0.128805 0.550039 0.273415
C12_3 C 0.15593(19) 0.38945(13) 0.39918(16)
O6_3 O 0.37569(15) 0.66945(9) 0.11354(12)
O7_3 O 0.29789(14) 0.64754(9) 0.19067(12)
O8_2 O 0.41496(15) 0.36450(10) 0.08735(13)
O9_2 O 0.30385(16) 0.35928(9) 0.13737(12)
C13_3 C 0.3379(2) 0.63486(13) 0.14533(16)
C14_3 C 0.3386(2) 0.57196(13) 0.12787(16)
C15_3 C 0.2585(2) 0.53978(14) 0.11071(18)
C16_3 C 0.1741(2) 0.56624(16) 0.1026(2)
H9_3 H 0.170161 0.606055 0.111373
C17_3 C 0.0992(3) 0.53499(18) 0.0826(3)
H10_3 H 0.043512 0.552989 0.078648
C18_3 C 0.1033(3) 0.47607(17) 0.0675(3)
H11_3 H 0.050632 0.455238 0.051002
C19_3 C 0.1829(2) 0.44894(16) 0.0765(2)
H12_3 H 0.184949 0.409092 0.067326
C20_3 C 0.2628(2) 0.47969(14) 0.09950(18)
C21_3 C 0.3481(2) 0.45269(13) 0.11059(17)
C22_3 C 0.4225(2) 0.48549(14) 0.12383(19)
H13_3 H 0.478234 0.467586 0.127834
C23_3 C 0.4182(2) 0.54555(14) 0.13169(18)
H14_3 H 0.470639 0.567694 0.139644
C24_3 C 0.3561(2) 0.38872(13) 0.11181(16)
O10_3 O 0.48416(14) 0.77983(10) 0.16169(12)
O11_3 O 0.37808(13) 0.75834(9) 0.21335(11)
C25_3 C 0.45846(19) 0.76812(12) 0.21462(15)
C26_2 C 0.52448(19) 0.76528(14) 0.27968(17)
C27_2 C 0.5593(2) 0.71369(14) 0.30358(17)
H15_2 H 0.541226 0.679710 0.278752
C28_2 C 0.6215(2) 0.71044(15) 0.36436(17)
H16_2 H 0.644193 0.673891 0.379728
C29_2 C 0.65140(19) 0.75821(14) 0.40310(16)
C30_2 C 0.6136(2) 0.81347(14) 0.37981(16)
C31_2 C 0.6339(2) 0.86530(15) 0.41649(18)
H17_2 H 0.673886 0.864493 0.458857
C32_2 C 0.5970(3) 0.91644(16) 0.3920(2)
H18_2 H 0.612607 0.950561 0.417216
C33_2 C 0.5366(3) 0.91897(17) 0.3304(2)
H19_2 H 0.511543 0.954705 0.314044
C34_2 C 0.5137(3) 0.87033(16) 0.29369(19)
H20_3 H 0.472773 0.872522 0.251831
C35_2 C 0.5502(2) 0.81637(14) 0.31730(16)
C36_2 C 0.7199(2) 0.74947(14) 0.46471(16)
O14_3 O 0.21174(13) 0.75488(9) 0.12425(11)
O15_3 O 0.11880(14) 0.69684(9) 0.15781(11)
C37_3 C 0.13463(19) 0.73128(13) 0.11473(15)
C38_3 C 0.06543(19) 0.74594(14) 0.05439(15)
C39_3 C 0.0149(2) 0.70164(14) 0.02179(16)
H21_3 H 0.025394 0.663608 0.038213
C45_3 C 0.0729(2) 0.90656(15) 0.04412(18)
H25_3 H 0.104604 0.937999 0.067161
C46_3 C 0.0930(2) 0.85176(14) 0.06672(17)
H26_3 H 0.137566 0.845717 0.105947
C47_3 C 0.04775(19) 0.80372(14) 0.03207(16)
O18_3 O 0.12051(13) 0.75722(9) 0.28474(11)
O19_3 O 0.01320(15) 0.75431(12) 0.33899(12)
C49_3 C 0.0393(2) 0.75121(13) 0.28508(16)
H32_3 H 0.009353 0.643059 0.283394
O22_3 O 0.06723(16) 0.75705(12) 0.48313(13)
C61_3 C 0.0213(2) 0.74042(17) 0.52044(19)
H33_3 H 0.050086 0.718957 0.558453
O24_2 O 0.31683(15) 0.85610(9) 0.14079(11)
O25_2 O 0.38162(15) 0.86983(9) 0.05637(11)
O26_2 O 0.08504(15) 0.86450(10) 0.41265(13)
O27_2 O 0.19615(16) 0.85928(9) 0.36263(12)
C50_3 C 0.9750(2) 0.74220(13) 0.22148(17)
C51_3 C 0.9466(2) 0.78851(14) 0.17948(17)
H27_3 H 0.970329 0.825511 0.191505
C52_3 C 0.8834(2) 0.78136(14) 0.11949(16)
H28_3 H 0.864339 0.814091 0.092546
C53_3 C 0.84866(18) 0.72963(12) 0.09866(15)
C54_3 C 0.8777(2) 0.67892(14) 0.13888(16)
C55_3 C 0.8483(2) 0.62214(14) 0.12085(18)
H29_3 H 0.808452 0.615656 0.079197
C56_3 C 0.8766(2) 0.57652(15) 0.16262(19)
H30_3 H 0.854979 0.539144 0.149970
C57_3 C 0.9372(2) 0.58465(15) 0.22400(18)
H31_3 H 0.956585 0.552876 0.252513
C58_3 C 0.9679(2) 0.63804(15) 0.24221(17)
C59_3 C 0.9396(2) 0.68655(14) 0.20135(16)
C60_3 C 0.78251(19) 0.72766(13) 0.03318(15)
C40_3 C 0.94784(19) 0.71200(14) 0.96439(16)
H22_3 H 0.914530 0.680787 0.942229
C41_3 C 0.93004(19) 0.76699(13) 0.94004(16)
C42_3 C 0.97913(19) 0.81423(13) 0.97435(16)
C43_3 C 0.9595(2) 0.87190(14) 0.95350(17)
H23_3 H 0.913540 0.879360 0.915589
H24_3 H 0.992223 0.954612 0.971685
C48_3 C 0.86255(19) 0.77491(13) 0.87731(16)
O1_4 O 0.25926(17) 0.32575(10) 0.25625(13)
H1_4 H 0.269(3) 0.3454(13) 0.2238(13)
H2_4 H 0.231(2) 0.3450(13) 0.2796(16)
O2_4 O 0.29890(15) 0.14615(9) 0.19984(12)
O3_4 O 0.34385(14) 0.16893(9) 0.10566(11)
C1_4 C 0.32075(19) 0.13390(13) 0.14578(16)
C2_4 C 0.3212(2) 0.07073(13) 0.12931(16)
C3_4 C 0.2879(2) 0.04843(13) 0.06345(16)
C4_4 C 0.2458(2) 0.08299(14) 0.00861(17)
H3_4 H 0.244660 0.123452 0.013561
C11_4 C 0.3535(2) 0.03481(14) 0.18251(17)
H8_4 H 0.371195 0.050039 0.226585
O6_4 O 0.12431(15) 0.16945(9) 0.38646(12)
O7_4 O 0.20211(14) 0.14754(9) 0.30933(12)
C13_4 C 0.1621(2) 0.13486(13) 0.35467(16)
C14_4 C 0.1614(2) 0.07196(13) 0.37213(16)
C15_4 C 0.2415(2) 0.03978(14) 0.38929(18)
C16_4 C 0.3259(2) 0.06624(16) 0.3974(2)
H9_4 H 0.329839 0.106055 0.388627
C17_4 C 0.4008(3) 0.03499(18) 0.4174(3)
H10_4 H 0.456488 0.052989 0.421352
C23_4 C 0.0818(2) 0.04555(14) 0.36831(18)
H14_4 H 0.029361 0.067694 0.360356
O10_4 O 0.01584(14) 0.27983(10) 0.33831(12)
O11_4 O 0.12192(13) 0.25834(9) 0.28665(11)
C25_4 C 0.04154(19) 0.26812(12) 0.28538(15)
H20_4 H 0.027227 0.372522 0.248169
O14_4 O 0.28826(13) 0.25488(9) 0.37575(11)
O15_4 O 0.38120(14) 0.19684(9) 0.34219(11)
C37_4 C 0.36537(19) 0.23128(13) 0.38527(15)
C38_4 C 0.43457(19) 0.24594(14) 0.44561(15)
C39_4 C 0.4851(2) 0.20164(14) 0.47821(16)
H21_4 H 0.474606 0.163608 0.461787
C40_4 C 0.55216(19) 0.21200(14) 0.53561(16)
H22_4 H 0.585470 0.180787 0.557771
C41_4 C 0.56996(19) 0.26699(13) 0.55996(16)
C42_4 C 0.52087(19) 0.31423(13) 0.52565(16)
C43_4 C 0.5405(2) 0.37190(14) 0.54650(17)
H23_4 H 0.586460 0.379360 0.584411
C44_2 C 0.4944(2) 0.41651(14) 0.51304(19)
H24_4 H 0.507777 0.454612 0.528315
C45_4 C 0.4271(2) 0.40656(15) 0.45588(18)
H25_4 H 0.395396 0.437999 0.432839
C46_4 C 0.4070(2) 0.35176(14) 0.43328(17)
H26_4 H 0.362434 0.345717 0.394053
C47_4 C 0.45225(19) 0.30372(14) 0.46793(16)
C48_4 C 0.63745(19) 0.27491(13) 0.62269(16)
O18_4 O 0.37949(13) 0.25722(9) 0.21526(11)
O19_4 O 0.48680(15) 0.25431(12) 0.16101(12)
C49_4 C 0.4607(2) 0.25121(13) 0.21492(16)
C50_4 C 0.5250(2) 0.24220(13) 0.27852(17)
C51_4 C 0.5534(2) 0.28851(14) 0.32052(17)
H27_4 H 0.529671 0.325511 0.308495
C52_4 C 0.6166(2) 0.28136(14) 0.38051(16)
H28_4 H 0.635661 0.314091 0.407454
C53_4 C 0.65134(18) 0.22963(12) 0.40134(15)
C54_4 C 0.6223(2) 0.17892(14) 0.36112(16)
C55_4 C 0.6517(2) 0.12214(14) 0.37915(18)
H29_4 H 0.691548 0.115656 0.420803
C56_4 C 0.6234(2) 0.07652(15) 0.33738(19)
H30_4 H 0.645021 0.039144 0.350030
C57_4 C 0.5628(2) 0.08465(15) 0.27600(18)
H31_4 H 0.543415 0.052876 0.247487
C58_4 C 0.5321(2) 0.13804(15) 0.25779(17)
H32_4 H 0.490647 0.143059 0.216606
C59_4 C 0.5604(2) 0.18655(14) 0.29865(16)
C60_4 C 0.71749(19) 0.22766(13) 0.46682(15)
O22_4 O 0.43277(16) 0.25705(12) 0.01687(13)
C5_4 C 0.2069(2) 0.05832(15) 0.94849(18)
H4_4 H 0.179676 0.082083 0.912070
C61_4 C 0.4787(2) 0.24042(17) 0.97956(19)
H33_4 H 0.449914 0.218957 0.941547
C8_4 C 0.2912(2) 0.98778(13) 0.05357(16)
C9_4 C 0.3322(2) 0.95244(13) 0.10881(16)
C10_4 C 0.3601(2) 0.97555(13) 0.17166(18)
H7_4 H 0.384372 0.951225 0.208363
C12_4 C 0.34407(19) 0.88945(13) 0.10082(16)
C18_4 C 0.3967(3) 0.97607(17) 0.4325(3)
H11_4 H 0.449368 0.955238 0.448998
C19_4 C 0.3171(2) 0.94894(16) 0.4235(2)
H12_4 H 0.315051 0.909092 0.432674
C20_4 C 0.2372(2) 0.97969(14) 0.40050(18)
C21_4 C 0.1519(2) 0.95269(13) 0.38941(17)
C22_4 C 0.0775(2) 0.98549(14) 0.37617(19)
H13_4 H 0.021766 0.967586 0.372166
C24_4 C 0.1439(2) 0.88872(13) 0.38819(16)
C44_3 C 0.9944(2) 0.08349(14) 0.01304(19)
O28_2 O 0.75965(14) 0.19900(10) 0.01531(11)
O29_2 O 0.74038(15) 0.29153(10) 0.00349(12)
C26_3 C 0.97552(19) 0.26528(14) 0.22032(17)
C27_3 C 0.9407(2) 0.21369(14) 0.19642(17)
H15_3 H 0.958774 0.179710 0.221248
C28_3 C 0.8785(2) 0.21044(15) 0.13564(17)
H16_3 H 0.855807 0.173891 0.120272
C29_3 C 0.84860(19) 0.25821(14) 0.09690(16)
C30_3 C 0.8864(2) 0.31347(14) 0.12019(16)
C31_3 C 0.8661(2) 0.36530(15) 0.08351(18)
H17_3 H 0.826114 0.364493 0.041143
C32_3 C 0.9030(3) 0.41644(16) 0.1080(2)
H18_3 H 0.887393 0.450561 0.082784
C33_3 C 0.9634(3) 0.41897(17) 0.1696(2)
H19_3 H 0.988457 0.454705 0.185956
C34_3 C 0.9863(3) 0.37033(16) 0.20631(19)
C35_3 C 0.9498(2) 0.31637(14) 0.18270(16)
C36_3 C 0.7801(2) 0.24947(14) 0.03529(16)
O12_2 O 0.24035(14) 0.80100(10) 0.98469(11)
O13_2 O 0.25962(15) 0.70847(10) 0.99651(12)
C26_4 C 0.02448(19) 0.73472(14) 0.77968(17)
C27_4 C 0.0593(2) 0.78631(14) 0.80358(17)
H15_4 H 0.041226 0.820290 0.778752
C28_4 C 0.1215(2) 0.78956(15) 0.86436(17)
H16_4 H 0.144193 0.826109 0.879728
C29_4 C 0.15140(19) 0.74179(14) 0.90310(16)
C30_4 C 0.1136(2) 0.68653(14) 0.87981(16)
C31_4 C 0.1339(2) 0.63470(15) 0.91649(18)
H17_4 H 0.173886 0.635507 0.958857
C32_4 C 0.0970(3) 0.58356(16) 0.8920(2)
H18_4 H 0.112607 0.549439 0.917216
C33_4 C 0.0366(3) 0.58103(17) 0.8304(2)
H19_4 H 0.011543 0.545295 0.814044
C34_4 C 0.0137(3) 0.62967(16) 0.79369(19)
C35_4 C 0.0502(2) 0.68363(14) 0.81730(16)
C36_4 C 0.2199(2) 0.75053(14) 0.96471(16)
C44_4 C 0.0056(2) 0.91651(14) 0.98696(19)
C6_3 C 0.7936(2) 0.00161(15) 0.06030(18)
H5_3 H 0.822923 0.018027 0.101743
C7_3 C 0.7519(2) 0.03602(14) 0.00908(17)
H6_3 H 0.751637 0.076365 0.015400
C6_4 C 0.2064(2) 0.99839(15) 0.93970(18)
H5_4 H 0.177077 0.981973 0.898257
C7_4 C 0.2481(2) 0.96398(14) 0.99092(17)
H6_4 H 0.248363 0.923635 0.984600
H36 H 0.434012 0.605862 0.007047
N1 N 0.4114(2) 0.65623(16) 0.92368(19)
H34 H 0.409160 0.689496 0.946576
H35 H 0.467395 0.651930 0.917729
C62 C 0.3902(3) 0.6077(2) 0.9646(3)
H37 H 0.391040 0.571804 0.939837
H38 H 0.331656 0.613488 0.974092
C63 C 0.3520(3) 0.6605(2) 0.8582(2)
H39 H 0.365420 0.695304 0.835408
H40 H 0.291113 0.662207 0.864062
H41 H 0.359372 0.626877 0.831125
N1_2 N 0.0886(2) 0.15623(16) 0.57632(19)
H34_2 H 0.090840 0.189496 0.553424
H35_2 H 0.032605 0.151930 0.582271
C62_2 C 0.1098(3) 0.1077(2) 0.5354(3)
H36_2 H 0.065988 0.105862 0.492953
H37_2 H 0.108960 0.071804 0.560163
H38_2 H 0.168344 0.113488 0.525908
C63_2 C 0.1480(3) 0.1605(2) 0.6418(2)
H39_2 H 0.134580 0.195304 0.664592
H40_2 H 0.208887 0.162207 0.635938
H41_2 H 0.140628 0.126877 0.668875
N1_3 N 0.5886(2) 0.34377(16) 0.07632(19)
H34_3 H 0.590840 0.310504 0.053424
H35_3 H 0.532605 0.348070 0.082271
C62_3 C 0.6098(3) 0.3923(2) 0.0354(3)
H37_3 H 0.608960 0.428196 0.060163
H38_3 H 0.668344 0.386512 0.025908
C63_3 C 0.6480(3) 0.3395(2) 0.1418(2)
H39_3 H 0.634580 0.304696 0.164592
H40_3 H 0.708887 0.337793 0.135938
H41_3 H 0.640628 0.373123 0.168875
H36_3 H 0.565988 0.394138 0.992953
N1_4 N 0.9114(2) 0.84377(16) 0.42368(19)
H34_4 H 0.909160 0.810504 0.446576
H35_4 H 0.967395 0.848070 0.417729
C62_4 C 0.8902(3) 0.8923(2) 0.4646(3)
H36_4 H 0.934012 0.894138 0.507047
H37_4 H 0.891040 0.928196 0.439837
H38_4 H 0.831656 0.886512 0.474092
C63_4 C 0.8520(3) 0.8395(2) 0.3582(2)
H39_4 H 0.865420 0.804696 0.335408
H40_4 H 0.791113 0.837793 0.364062
H41_4 H 0.859372 0.873123 0.331125
H47 H 0.026625 0.571996 0.469022
H48 H 0.014953 0.635580 0.438941
H49 H 0.006046 0.581638 0.389401
N2 N 0.9022(3) 0.5931(2) 0.4304(2)
H42 H 0.893061 0.601146 0.472154
H43 H 0.882808 0.556818 0.419735
C64 C 0.8504(5) 0.6332(4) 0.3819(4)
H44 H 0.792349 0.638660 0.392334
H45 H 0.843506 0.617610 0.336370
H46 H 0.880976 0.670185 0.384505
C65 C 0.9948(4) 0.5958(4) 0.4321(3)
N2_2 N 0.5978(3) 0.0931(2) 0.0696(2)
H42_2 H 0.606939 0.101146 0.027846
H43_2 H 0.617192 0.056818 0.080265
C64_2 C 0.6496(5) 0.1332(4) 0.1181(4)
H44_2 H 0.707651 0.138660 0.107666
H45_2 H 0.656494 0.117610 0.163630
H46_2 H 0.619024 0.170185 0.115495
C65_2 C 0.5052(4) 0.0958(4) 0.0679(3)
H47_2 H 0.473375 0.071996 0.030978
H48_2 H 0.485047 0.135580 0.061059
H49_2 H 0.493954 0.081638 0.110599
N2_3 N 0.0978(3) 0.4069(2) 0.5696(2)
H42_3 H 0.106939 0.398854 0.527846
H43_3 H 0.117192 0.443182 0.580265
C64_3 C 0.1496(5) 0.3668(4) 0.6181(4)
H44_3 H 0.207651 0.361340 0.607666
H45_3 H 0.156494 0.382390 0.663630
H46_3 H 0.119024 0.329815 0.615495
C65_3 C 0.0052(4) 0.4042(4) 0.5679(3)
H47_3 H 0.973375 0.428004 0.530978
H48_3 H 0.985047 0.364420 0.561059
H49_3 H 0.993954 0.418362 0.610599
N2_4 N 0.4022(3) 0.9069(2) 0.9304(2)
H42_4 H 0.393061 0.898854 0.972154
H43_4 H 0.382808 0.943182 0.919735
C64_4 C 0.3504(5) 0.8668(4) 0.8819(4)
H44_4 H 0.292349 0.861340 0.892334
H45_4 H 0.343506 0.882390 0.836370
H46_4 H 0.380976 0.829815 0.884505
C65_4 C 0.4948(4) 0.9042(4) 0.9321(3)
H47_4 H 0.526625 0.928004 0.969022
H48_4 H 0.514953 0.864420 0.938941
H49_4 H 0.506046 0.918362 0.889401
loop_
_geom_bond_atom_site_label_1
_geom_bond_atom_site_label_2
_geom_bond_site_symmetry_1
_geom_bond_site_symmetry_2
O16 C48 1_555 1_555
O17 C48 1_555 1_555
H22 C40 1_555 1_555
C41 C40 1_555 1_555
C42 C41 1_555 1_555
C43 C42 1_555 1_555
H23 C43 1_555 1_555
C48 C41 1_555 1_555
Tb5 O17 1_555 1_555
Tb6 O16 1_555 1_555
O17 Tb6 1_555 1_555
O20 C60 1_555 1_555
O21 C60 1_555 1_555
C51 C50 1_555 1_555
H27 C51 1_555 1_555
C52 C51 1_555 1_555
H28 C52 1_555 1_555
C53 C52 1_555 1_555
C54 C53 1_555 1_555
C55 C54 1_555 1_555
H29 C55 1_555 1_555
C56 C55 1_555 1_555
H30 C56 1_555 1_555
C57 C56 1_555 1_555
H31 C57 1_555 1_555
C58 C57 1_555 1_555
C59 C50 1_555 1_555
C60 C53 1_555 1_555
Tb9 O23 1_555 1_555
C54 C59 1_555 1_555
C58 C59 1_555 1_555
Tb1 O3 1_555 1_555
Tb2 O1 1_555 1_555
Tb3 O6 1_555 1_555
O1 H1 1_555 1_555
H2 O1 1_555 1_555
O2 Tb2 1_555 1_555
O3 C1 1_555 1_555
O4 C12 1_555 1_555
O5 C12 1_555 1_555
C1 O2 1_555 1_555
C2 C1 1_555 1_555
C3 C2 1_555 1_555
C4 C3 1_555 1_555
H3 C4 1_555 1_555
C5 C4 1_555 1_555
H4 C5 1_555 1_555
C6 C5 1_555 1_555
H5 C6 1_555 1_555
C7 C6 1_555 1_555
H6 C7 1_555 1_555
C8 C3 1_555 1_555
C9 C8 1_555 1_555
C10 C9 1_555 1_555
H7 C10 1_555 1_555
C11 C2 1_555 1_555
H8 C11 1_555 1_555
C12 C9 1_555 1_555
O6 C13 1_555 1_555
O7 Tb2 1_555 1_555
O8 C24 1_555 1_555
O9 C24 1_555 1_555
C13 O7 1_555 1_555
C14 C13 1_555 1_555
C15 C14 1_555 1_555
C16 C15 1_555 1_555
H9 C16 1_555 1_555
C17 C16 1_555 1_555
H10 C17 1_555 1_555
C18 C17 1_555 1_555
H11 C18 1_555 1_555
C19 C18 1_555 1_555
H12 C19 1_555 1_555
C20 C15 1_555 1_555
C21 C20 1_555 1_555
C22 C21 1_555 1_555
H13 C22 1_555 1_555
C23 C14 1_555 1_555
H14 C23 1_555 1_555
C24 C21 1_555 1_555
O10 Tb3 1_555 1_555
O11 Tb2 1_555 1_555
O12 C36 1_555 1_555
O13 C36 1_555 1_555
C25 O10 1_555 1_555
C26 C25 1_555 1_555
C27 C26 1_555 1_555
H15 C27 1_555 1_555
C28 C27 1_555 1_555
H16 C28 1_555 1_555
C29 C28 1_555 1_555
C30 C29 1_555 1_555
C31 C30 1_555 1_555
H17 C31 1_555 1_555
C32 C31 1_555 1_555
H18 C32 1_555 1_555
C33 C32 1_555 1_555
H19 C33 1_555 1_555
C34 C33 1_555 1_555
H20 C34 1_555 1_555
C35 C26 1_555 1_555
C36 C29 1_555 1_555
O14 Tb2 1_555 1_555
O15 Tb2 1_555 1_555
C37 O14 1_555 1_555
C38 C37 1_555 1_555
C39 C38 1_555 1_555
H21 C39 1_555 1_555
H25 C45 1_555 1_555
C46 C45 1_555 1_555
H26 C46 1_555 1_555
C47 C38 1_555 1_555
O18 Tb1 1_555 1_555
O19 Tb1 1_555 1_555
C49 O18 1_555 1_555
O22 Tb1 1_555 1_555
C61 O22 1_555 1_555
H33 C61 1_555 1_555
Tb4 O8 1_555 1_555
Tb7 O4 1_555 1_555
Tb9 O12 1_555 1_555
O24 Tb3 1_555 1_555
O25 Tb3 1_555 1_555
O26 Tb1 1_555 1_555
O27 Tb1 1_555 1_555
O30 Tb2 1_555 1_555
O31 Tb1 1_555 1_555
O32 Tb1 1_555 1_555
O33 Tb1 1_555 1_555
O34 Tb3 1_555 1_555
Tb2 O18 1_555 1_555
Tb2 O31 1_555 1_555
Tb3 O11 1_555 1_555
Tb3 O14 1_555 1_555
O5 Tb7 1_555 1_555
C7 C8 1_555 1_555
C10 C11 1_555 1_555
O9 Tb4 1_555 1_555
C19 C20 1_555 1_555
C22 C23 1_555 1_555
O11 C25 1_555 1_555
O13 Tb9 1_555 1_555
C30 C35 1_555 1_555
C34 C35 1_555 1_555
O15 C37 1_555 1_555
C46 C47 1_555 1_555
O19 C49 1_555 1_555
O24 C12_2 1_555 1_555
O25 C12_2 1_555 1_555
C9_2 C8_2 1_555 1_555
C10_2 C9_2 1_555 1_555
H7_2 C10_2 1_555 1_555
C12_2 C9_2 1_555 1_555
O26 C24_2 1_555 1_555
O27 C24_2 1_555 1_555
H11_2 C18_2 1_555 1_555
C19_2 C18_2 1_555 1_555
H12_2 C19_2 1_555 1_555
C21_2 C20_2 1_555 1_555
C22_2 C21_2 1_555 1_555
H13_2 C22_2 1_555 1_555
C24_2 C21_2 1_555 1_555
C19_2 C20_2 1_555 1_555
H4_2 C5_2 1_555 1_555
O23_2 C61_2 1_555 1_555
H33_2 C61_2 1_555 1_555
Tb8 O23_2 1_555 1_555
Tb4 O3_2 1_555 1_555
Tb2_2 O1_2 1_555 1_555
Tb7 O6_2 1_555 1_555
O1_2 H1_2 1_555 1_555
H2_2 O1_2 1_555 1_555
O2_2 Tb2_2 1_555 1_555
O3_2 C1_2 1_555 1_555
C1_2 O2_2 1_555 1_555
C2_2 C1_2 1_555 1_555
C3_2 C2_2 1_555 1_555
C4_2 C3_2 1_555 1_555
H3_2 C4_2 1_555 1_555
C11_2 C2_2 1_555 1_555
H8_2 C11_2 1_555 1_555
O6_2 C13_2 1_555 1_555
O7_2 Tb2_2 1_555 1_555
C13_2 O7_2 1_555 1_555
C14_2 C13_2 1_555 1_555
C15_2 C14_2 1_555 1_555
C16_2 C15_2 1_555 1_555
H9_2 C16_2 1_555 1_555
C17_2 C16_2 1_555 1_555
H10_2 C17_2 1_555 1_555
C23_2 C14_2 1_555 1_555
H14_2 C23_2 1_555 1_555
O10_2 Tb7 1_555 1_555
O11_2 Tb2_2 1_555 1_555
C25_2 O10_2 1_555 1_555
O14_2 Tb2_2 1_555 1_555
O15_2 Tb2_2 1_555 1_555
O16_2 C48_2 1_555 1_555
O17_2 C48_2 1_555 1_555
C37_2 O14_2 1_555 1_555
C38_2 C37_2 1_555 1_555
C39_2 C38_2 1_555 1_555
H21_2 C39_2 1_555 1_555
C40_2 C39_2 1_555 1_555
H22_2 C40_2 1_555 1_555
C41_2 C40_2 1_555 1_555
C42_2 C41_2 1_555 1_555
C43_2 C42_2 1_555 1_555
H23_2 C43_2 1_555 1_555
C44 C43_2 1_555 1_555
H24_2 C44 1_555 1_555
C45_2 C44 1_555 1_555
H25_2 C45_2 1_555 1_555
C46_2 C45_2 1_555 1_555
H26_2 C46_2 1_555 1_555
C47_2 C38_2 1_555 1_555
C48_2 C41_2 1_555 1_555
O18_2 Tb4 1_555 1_555
O19_2 Tb4 1_555 1_555
O20_2 C60_2 1_555 1_555
O21_2 C60_2 1_555 1_555
C49_2 O18_2 1_555 1_555
C50_2 C49_2 1_555 1_555
C51_2 C50_2 1_555 1_555
H27_2 C51_2 1_555 1_555
C52_2 C51_2 1_555 1_555
H28_2 C52_2 1_555 1_555
C53_2 C52_2 1_555 1_555
C54_2 C53_2 1_555 1_555
C55_2 C54_2 1_555 1_555
H29_2 C55_2 1_555 1_555
C56_2 C55_2 1_555 1_555
H30_2 C56_2 1_555 1_555
C57_2 C56_2 1_555 1_555
H31_2 C57_2 1_555 1_555
C58_2 C57_2 1_555 1_555
H32_2 C58_2 1_555 1_555
C59_2 C50_2 1_555 1_555
C60_2 C53_2 1_555 1_555
O22_2 Tb4 1_555 1_555
Tb5_2 O17_2 1_555 1_555
Tb6_2 O16_2 1_555 1_555
O28 Tb7 1_555 1_555
O29 Tb7 1_555 1_555
O30_2 Tb2_2 1_555 1_555
O31_2 Tb4 1_555 1_555
O34_2 Tb7 1_555 1_555
Tb2_2 O18_2 1_555 1_555
Tb2_2 O31_2 1_555 1_555
Tb7 O11_2 1_555 1_555
Tb7 O14_2 1_555 1_555
O11_2 C25_2 1_555 1_555
O15_2 C37_2 1_555 1_555
O17_2 Tb6_2 1_555 1_555
C42_2 C47_2 1_555 1_555
C46_2 C47_2 1_555 1_555
O19_2 C49_2 1_555 1_555
O20_2 Tb5_2 1_555 1_555
O21_2 Tb5_2 1_555 1_555
C54_2 C59_2 1_555 1_555
C58_2 C59_2 1_555 1_555
Tb5_2 O3_3 1_555 1_555
Tb6_2 O1_3 1_555 1_555
Tb8 O6_3 1_555 1_555
O1_3 H1_3 1_555 1_555
H2_3 O1_3 1_555 1_555
O2_3 Tb6_2 1_555 1_555
O3_3 C1_3 1_555 1_555
O4_2 C12_3 1_555 1_555
O5_2 C12_3 1_555 1_555
C1_3 O2_3 1_555 1_555
C2_3 C1_3 1_555 1_555
C3_3 C2_3 1_555 1_555
C4_3 C3_3 1_555 1_555
H3_3 C4_3 1_555 1_555
C5_3 C4_3 1_555 1_555
H4_3 C5_3 1_555 1_555
C6_2 C5_3 1_555 1_555
H5_2 C6_2 1_555 1_555
C7_2 C6_2 1_555 1_555
H6_2 C7_2 1_555 1_555
C8_3 C3_3 1_555 1_555
C9_3 C8_3 1_555 1_555
C10_3 C9_3 1_555 1_555
H7_3 C10_3 1_555 1_555
C11_3 C2_3 1_555 1_555
H8_3 C11_3 1_555 1_555
C12_3 C9_3 1_555 1_555
O6_3 C13_3 1_555 1_555
O7_3 Tb6_2 1_555 1_555
O8_2 C24_3 1_555 1_555
O9_2 C24_3 1_555 1_555
C13_3 O7_3 1_555 1_555
C14_3 C13_3 1_555 1_555
C15_3 C14_3 1_555 1_555
C16_3 C15_3 1_555 1_555
H9_3 C16_3 1_555 1_555
C17_3 C16_3 1_555 1_555
H10_3 C17_3 1_555 1_555
C18_3 C17_3 1_555 1_555
H11_3 C18_3 1_555 1_555
C19_3 C18_3 1_555 1_555
H12_3 C19_3 1_555 1_555
C20_3 C15_3 1_555 1_555
C21_3 C20_3 1_555 1_555
C22_3 C21_3 1_555 1_555
H13_3 C22_3 1_555 1_555
C23_3 C14_3 1_555 1_555
H14_3 C23_3 1_555 1_555
C24_3 C21_3 1_555 1_555
O10_3 Tb8 1_555 1_555
O11_3 Tb6_2 1_555 1_555
O28 C36_2 1_555 1_555
O29 C36_2 1_555 1_555
C25_3 O10_3 1_555 1_555
C26_2 C25_3 1_555 1_555
C27_2 C26_2 1_555 1_555
H15_2 C27_2 1_555 1_555
C28_2 C27_2 1_555 1_555
H16_2 C28_2 1_555 1_555
C29_2 C28_2 1_555 1_555
C30_2 C29_2 1_555 1_555
C31_2 C30_2 1_555 1_555
H17_2 C31_2 1_555 1_555
C32_2 C31_2 1_555 1_555
H18_2 C32_2 1_555 1_555
C33_2 C32_2 1_555 1_555
H19_2 C33_2 1_555 1_555
C34_2 C33_2 1_555 1_555
H20_3 C34_2 1_555 1_555
C35_2 C26_2 1_555 1_555
C36_2 C29_2 1_555 1_555
O14_3 Tb6_2 1_555 1_555
O15_3 Tb6_2 1_555 1_555
C37_3 O14_3 1_555 1_555
C38_3 C37_3 1_555 1_555
C39_3 C38_3 1_555 1_555
H21_3 C39_3 1_555 1_555
H25_3 C45_3 1_555 1_555
C46_3 C45_3 1_555 1_555
H26_3 C46_3 1_555 1_555
C47_3 C38_3 1_555 1_555
O18_3 Tb5_2 1_555 1_555
O19_3 Tb5_2 1_555 1_555
C49_3 O18_3 1_555 1_555
O22_3 Tb5_2 1_555 1_555
C61_3 O22_3 1_555 1_555
H33_3 C61_3 1_555 1_555
Tb5 O8_2 1_555 1_555
Tb9 O4_2 1_555 1_555
O24_2 Tb8 1_555 1_555
O25_2 Tb8 1_555 1_555
O26_2 Tb5_2 1_555 1_555
O27_2 Tb5_2 1_555 1_555
Tb6_2 O18_3 1_555 1_555
Tb8 O11_3 1_555 1_555
Tb8 O14_3 1_555 1_555
O5_2 Tb9 1_555 1_555
C7_2 C8_3 1_555 1_555
C10_3 C11_3 1_555 1_555
O9_2 Tb5 1_555 1_555
C19_3 C20_3 1_555 1_555
C22_3 C23_3 1_555 1_555
O11_3 C25_3 1_555 1_555
C30_2 C35_2 1_555 1_555
C34_2 C35_2 1_555 1_555
O15_3 C37_3 1_555 1_555
C46_3 C47_3 1_555 1_555
O19_3 C49_3 1_555 1_555
O32_2 C60_3 1_555 1_555
O33_2 C60_3 1_555 1_555
C51_3 C50_3 1_555 1_555
H27_3 C51_3 1_555 1_555
C52_3 C51_3 1_555 1_555
H28_3 C52_3 1_555 1_555
C53_3 C52_3 1_555 1_555
C54_3 C53_3 1_555 1_555
C55_3 C54_3 1_555 1_555
H29_3 C55_3 1_555 1_555
C56_3 C55_3 1_555 1_555
H30_3 C56_3 1_555 1_555
C57_3 C56_3 1_555 1_555
H31_3 C57_3 1_555 1_555
C58_3 C57_3 1_555 1_555
C59_3 C50_3 1_555 1_555
C60_3 C53_3 1_555 1_555
C54_3 C59_3 1_555 1_555
C58_3 C59_3 1_555 1_555
O30_2 C48_3 1_555 1_555
O31_2 C48_3 1_555 1_555
H22_3 C40_3 1_555 1_555
C41_3 C40_3 1_555 1_555
C42_3 C41_3 1_555 1_555
C43_3 C42_3 1_555 1_555
H23_3 C43_3 1_555 1_555
C48_3 C41_3 1_555 1_555
Tb5 O3_4 1_555 1_555
Tb6 O1_4 1_555 1_555
Tb9 O6_4 1_555 1_555
O1_4 H1_4 1_555 1_555
H2_4 O1_4 1_555 1_555
O2_4 Tb6 1_555 1_555
O3_4 C1_4 1_555 1_555
C1_4 O2_4 1_555 1_555
C2_4 C1_4 1_555 1_555
C3_4 C2_4 1_555 1_555
C4_4 C3_4 1_555 1_555
H3_4 C4_4 1_555 1_555
C11_4 C2_4 1_555 1_555
H8_4 C11_4 1_555 1_555
O6_4 C13_4 1_555 1_555
O7_4 Tb6 1_555 1_555
C13_4 O7_4 1_555 1_555
C14_4 C13_4 1_555 1_555
C15_4 C14_4 1_555 1_555
C16_4 C15_4 1_555 1_555
H9_4 C16_4 1_555 1_555
C17_4 C16_4 1_555 1_555
H10_4 C17_4 1_555 1_555
C23_4 C14_4 1_555 1_555
H14_4 C23_4 1_555 1_555
O10_4 Tb9 1_555 1_555
O11_4 Tb6 1_555 1_555
C25_4 O10_4 1_555 1_555
O14_4 Tb6 1_555 1_555
O15_4 Tb6 1_555 1_555
O30 C48_4 1_555 1_555
O31 C48_4 1_555 1_555
C37_4 O14_4 1_555 1_555
C38_4 C37_4 1_555 1_555
C39_4 C38_4 1_555 1_555
H21_4 C39_4 1_555 1_555
C40_4 C39_4 1_555 1_555
H22_4 C40_4 1_555 1_555
C41_4 C40_4 1_555 1_555
C42_4 C41_4 1_555 1_555
C43_4 C42_4 1_555 1_555
H23_4 C43_4 1_555 1_555
C44_2 C43_4 1_555 1_555
H24_4 C44_2 1_555 1_555
C45_4 C44_2 1_555 1_555
H25_4 C45_4 1_555 1_555
C46_4 C45_4 1_555 1_555
H26_4 C46_4 1_555 1_555
C47_4 C38_4 1_555 1_555
C48_4 C41_4 1_555 1_555
O18_4 Tb5 1_555 1_555
O19_4 Tb5 1_555 1_555
O32 C60_4 1_555 1_555
O33 C60_4 1_555 1_555
C49_4 O18_4 1_555 1_555
C50_4 C49_4 1_555 1_555
C51_4 C50_4 1_555 1_555
H27_4 C51_4 1_555 1_555
C52_4 C51_4 1_555 1_555
H28_4 C52_4 1_555 1_555
C53_4 C52_4 1_555 1_555
C54_4 C53_4 1_555 1_555
C55_4 C54_4 1_555 1_555
H29_4 C55_4 1_555 1_555
C56_4 C55_4 1_555 1_555
H30_4 C56_4 1_555 1_555
C57_4 C56_4 1_555 1_555
H31_4 C57_4 1_555 1_555
C58_4 C57_4 1_555 1_555
H32_4 C58_4 1_555 1_555
C59_4 C50_4 1_555 1_555
C60_4 C53_4 1_555 1_555
O22_4 Tb5 1_555 1_555
Tb6 O18_4 1_555 1_555
Tb9 O11_4 1_555 1_555
Tb9 O14_4 1_555 1_555
O11_4 C25_4 1_555 1_555
O15_4 C37_4 1_555 1_555
C42_4 C47_4 1_555 1_555
C46_4 C47_4 1_555 1_555
O19_4 C49_4 1_555 1_555
C54_4 C59_4 1_555 1_555
C58_4 C59_4 1_555 1_555
H4_4 C5_4 1_555 1_555
O34 C61_4 1_555 1_555
H33_4 C61_4 1_555 1_555
O24_2 C12_4 1_555 1_555
O25_2 C12_4 1_555 1_555
C9_4 C8_4 1_555 1_555
C10_4 C9_4 1_555 1_555
H7_4 C10_4 1_555 1_555
C12_4 C9_4 1_555 1_555
O26_2 C24_4 1_555 1_555
O27_2 C24_4 1_555 1_555
H11_4 C18_4 1_555 1_555
C19_4 C18_4 1_555 1_555
H12_4 C19_4 1_555 1_555
C21_4 C20_4 1_555 1_555
C22_4 C21_4 1_555 1_555
H13_4 C22_4 1_555 1_555
C24_4 C21_4 1_555 1_555
C19_4 C20_4 1_555 1_555
O28_2 C36_3 1_555 1_555
O29_2 C36_3 1_555 1_555
C27_3 C26_3 1_555 1_555
H15_3 C27_3 1_555 1_555
C28_3 C27_3 1_555 1_555
H16_3 C28_3 1_555 1_555
C29_3 C28_3 1_555 1_555
C30_3 C29_3 1_555 1_555
C31_3 C30_3 1_555 1_555
H17_3 C31_3 1_555 1_555
C32_3 C31_3 1_555 1_555
H18_3 C32_3 1_555 1_555
C33_3 C32_3 1_555 1_555
H19_3 C33_3 1_555 1_555
C34_3 C33_3 1_555 1_555
C35_3 C26_3 1_555 1_555
C36_3 C29_3 1_555 1_555
C30_3 C35_3 1_555 1_555
C34_3 C35_3 1_555 1_555
O12_2 C36_4 1_555 1_555
O13_2 C36_4 1_555 1_555
C27_4 C26_4 1_555 1_555
H15_4 C27_4 1_555 1_555
C28_4 C27_4 1_555 1_555
H16_4 C28_4 1_555 1_555
C29_4 C28_4 1_555 1_555
C30_4 C29_4 1_555 1_555
C31_4 C30_4 1_555 1_555
H17_4 C31_4 1_555 1_555
C32_4 C31_4 1_555 1_555
H18_4 C32_4 1_555 1_555
C33_4 C32_4 1_555 1_555
H19_4 C33_4 1_555 1_555
C34_4 C33_4 1_555 1_555
C35_4 C26_4 1_555 1_555
C36_4 C29_4 1_555 1_555
C30_4 C35_4 1_555 1_555
C34_4 C35_4 1_555 1_555
H5_3 C6_3 1_555 1_555
C7_3 C6_3 1_555 1_555
H6_3 C7_3 1_555 1_555
H5_4 C6_4 1_555 1_555
C7_4 C6_4 1_555 1_555
H6_4 C7_4 1_555 1_555
N1 H34 1_555 1_555
H35 N1 1_555 1_555
C62 N1 1_555 1_555
H37 C62 1_555 1_555
H38 C62 1_555 1_555
C63 N1 1_555 1_555
H39 C63 1_555 1_555
H40 C63 1_555 1_555
H41 C63 1_555 1_555
N1_2 H34_2 1_555 1_555
H35_2 N1_2 1_555 1_555
C62_2 N1_2 1_555 1_555
H36_2 C62_2 1_555 1_555
H37_2 C62_2 1_555 1_555
H38_2 C62_2 1_555 1_555
C63_2 N1_2 1_555 1_555
H39_2 C63_2 1_555 1_555
H40_2 C63_2 1_555 1_555
H41_2 C63_2 1_555 1_555
N1_3 H34_3 1_555 1_555
H35_3 N1_3 1_555 1_555
C62_3 N1_3 1_555 1_555
H37_3 C62_3 1_555 1_555
H38_3 C62_3 1_555 1_555
C63_3 N1_3 1_555 1_555
H39_3 C63_3 1_555 1_555
H40_3 C63_3 1_555 1_555
H41_3 C63_3 1_555 1_555
N1_4 H34_4 1_555 1_555
H35_4 N1_4 1_555 1_555
C62_4 N1_4 1_555 1_555
H36_4 C62_4 1_555 1_555
H37_4 C62_4 1_555 1_555
H38_4 C62_4 1_555 1_555
C63_4 N1_4 1_555 1_555
H39_4 C63_4 1_555 1_555
H40_4 C63_4 1_555 1_555
H41_4 C63_4 1_555 1_555
N2 H42 1_555 1_555
H43 N2 1_555 1_555
C64 N2 1_555 1_555
H44 C64 1_555 1_555
H45 C64 1_555 1_555
H46 C64 1_555 1_555
C65 N2 1_555 1_555
N2_2 H42_2 1_555 1_555
H43_2 N2_2 1_555 1_555
C64_2 N2_2 1_555 1_555
H44_2 C64_2 1_555 1_555
H45_2 C64_2 1_555 1_555
H46_2 C64_2 1_555 1_555
C65_2 N2_2 1_555 1_555
H47_2 C65_2 1_555 1_555
H48_2 C65_2 1_555 1_555
H49_2 C65_2 1_555 1_555
N2_3 H42_3 1_555 1_555
H43_3 N2_3 1_555 1_555
C64_3 N2_3 1_555 1_555
H44_3 C64_3 1_555 1_555
H45_3 C64_3 1_555 1_555
H46_3 C64_3 1_555 1_555
C65_3 N2_3 1_555 1_555
N2_4 H42_4 1_555 1_555
H43_4 N2_4 1_555 1_555
C64_4 N2_4 1_555 1_555
H44_4 C64_4 1_555 1_555
H45_4 C64_4 1_555 1_555
H46_4 C64_4 1_555 1_555
C65_4 N2_4 1_555 1_555
H47_4 C65_4 1_555 1_555
H48_4 C65_4 1_555 1_555
H49_4 C65_4 1_555 1_555

#END
