
###############################################################################
#
# This file contains modified crystal structure data generated from the
# MOF subset of the Cambridge Structural Database (CSD) v543 
# hosted by the Cambridge Crystallographic Data Centre (CCDC).
#
# This work is licensed under the Creative Commons
# Attribution-NonCommercial-ShareAlike 4.0 International License.
# To view a copy of this license, visit
# http://creativecommons.org/licenses/by-nc-sa/4.0/
# or send a letter to
# Creative Commons, PO Box 1866, Mountain View, CA 94042, USA.
#
# CIF created using the CSD Python API on 29 September 2022
# The structure has been converted into the P1 space group
# The structure has a 3D framework
# The original CSD entry ZAJMEG is in the monoclinic crystal system
# The framework has been calculated to contain at least 10.0% void space
# The void calculation uses a probe of radius 1.32A, grid spacing 0.4
# The framework is charged, counterions have been retained in the structure
# H atom positions have been added when not included in the experimental data
# Generated hydrogen atom positions removed from atoms on special positions
#
###############################################################################

data_ZAJMEG
_chemical_formula_moiety         '(C632 H420 N16 O164 Th28 8+)n'
_symmetry_cell_setting           triclinic
_symmetry_space_group_name_H-M   'P 1'
_symmetry_Int_Tables_number      1
_space_group_name_Hall           'P 1'
loop_
_symmetry_equiv_pos_site_id
_symmetry_equiv_pos_as_xyz
1 x,y,z
_cell_length_a                   42.013(2)
_cell_length_b                   25.8483(14)
_cell_length_c                   26.0312(14)
_cell_angle_alpha                90
_cell_angle_beta                 120.728(2)
_cell_angle_gamma                90
_cell_volume                     24300.1
loop_
_atom_site_label
_atom_site_type_symbol
_atom_site_fract_x
_atom_site_fract_y
_atom_site_fract_z
Th17 Th 0.69516(2) -0.0000 0.38699(2)
O6 O 0.34908(12) 0.44010(19) 0.35711(18)
O8 O 0.72683(13) 0.14439(18) 0.22968(18)
O12 O 0.72363(13) 0.06163(19) 0.20752(19)
O17 O 0.29856(12) 0.39386(19) 0.30006(19)
C4 C 0.34342(17) 0.3995(3) 0.2711(3)
C5 C 0.32451(19) 0.3667(3) 0.2237(3)
H2 H 0.3024 0.3505 0.2173
C6 C 0.36938(18) 0.3800(3) 0.1939(3)
C7 C 0.65533(17) 0.0938(3) 0.2730(3)
C8 C 0.71894(19) 0.1093(3) 0.1919(3)
C9 C 0.37577(18) 0.4228(3) 0.2809(3)
H3 H 0.3890 0.4453 0.3141
N1 N 0.42729(15) 0.3102(3) 0.0493(2)
C11 C 0.61949(17) 0.1215(3) 0.2344(3)
C12 C 0.42271(17) 0.3598(3) 0.1784(3)
H4 H 0.4392 0.3654 0.2198
C13 C 0.33729(17) 0.3567(3) 0.1849(3)
H5 H 0.3240 0.3339 0.1521
C14 C 0.38894(17) 0.4135(3) 0.2422(3)
H6 H 0.4110 0.4297 0.2487
C15 C 0.37579(17) 0.3419(3) 0.0586(3)
H7 H 0.3597 0.3375 0.0168
C16 C 0.38459(17) 0.3673(3) 0.1541(3)
C17 C 0.36155(18) 0.3583(3) 0.0942(3)
H8 H 0.3356 0.3633 0.0767
C18 C 0.70454(19) 0.1228(3) 0.1285(3)
C19 C 0.41330(17) 0.3321(3) 0.0843(3)
C20 C 0.46269(17) 0.2424(3) 0.1196(3)
H9 H 0.4447 0.2415 0.1315
C22 C 0.43629(18) 0.3445(3) 0.1434(3)
H11 H 0.4623 0.3424 0.1603
C26 C 0.45747(18) 0.2758(3) 0.0751(3)
C27 C 0.55399(19) 0.1790(3) 0.1658(3)
C29 C 0.7000(2) 0.1736(3) 0.1110(3)
H13 H 0.7060 0.1999 0.1400
C30 C 0.6954(3) 0.0845(3) 0.0860(3)
H14 H 0.6983 0.0492 0.0976
C34 C 0.49285(17) 0.2103(3) 0.1477(3)
H15 H 0.4952 0.1876 0.1781
C35 C 0.61643(19) 0.1579(3) 0.1946(4)
H16 H 0.6371 0.1644 0.1901
C36 C 0.6770(2) 0.1491(3) 0.0087(3)
C37 C 0.51985(18) 0.2106(3) 0.1324(3)
C41 C 0.5137(2) 0.2423(4) 0.0857(4)
H18 H 0.5312 0.2423 0.0728
C45 C 0.6869(2) 0.1877(3) 0.0519(3)
H22 H 0.6847 0.2232 0.0410
C48 C 0.5843(2) 0.1859(4) 0.1602(4)
H25 H 0.5832 0.2104 0.1322
C52 C 0.4829(2) 0.2743(4) 0.0568(3)
H26 H 0.4794 0.2952 0.0243
C57 C 0.6820(3) 0.0974(3) 0.0262(3)
C61 C 0.5884(3) 0.1106(5) 0.2368(5)
H34 H 0.5894 0.0836 0.2623
C70 C 0.5552(3) 0.1379(5) 0.2031(5)
H41 H 0.5339 0.1291 0.2050
H42 H 0.4220 0.4021 0.0036
O20 O 0.65336(11) 0.0586(2) 0.3066(2)
O21 O 0.68179(12) 0.1025(2) 0.2667(2)
C79 C 0.32928(19) 0.4121(3) 0.3119(3)
O25 O 0.34908(12) 0.55990(19) 0.35711(18)
O27 O 0.72683(13) 0.85561(18) 0.22968(18)
O31 O 0.72363(13) 0.93837(19) 0.20752(19)
O35 O 0.29856(12) 0.60614(19) 0.30006(19)
C83 C 0.34342(17) 0.6005(3) 0.2711(3)
C84 C 0.32451(19) 0.6333(3) 0.2237(3)
H51 H 0.3024 0.6495 0.2173
C85 C 0.36938(18) 0.6200(3) 0.1939(3)
C86 C 0.65533(17) 0.9062(3) 0.2730(3)
C87 C 0.71894(19) 0.8907(3) 0.1919(3)
C88 C 0.37577(18) 0.5772(3) 0.2809(3)
H52 H 0.3890 0.5547 0.3141
N3 N 0.42729(15) 0.6898(3) 0.0493(2)
C90 C 0.61949(17) 0.8785(3) 0.2344(3)
C91 C 0.42271(17) 0.6402(3) 0.1784(3)
H53 H 0.4392 0.6346 0.2198
C92 C 0.33729(17) 0.6433(3) 0.1849(3)
H54 H 0.3240 0.6661 0.1521
C93 C 0.38894(17) 0.5865(3) 0.2422(3)
H55 H 0.4110 0.5703 0.2487
C94 C 0.37579(17) 0.6581(3) 0.0586(3)
H56 H 0.3597 0.6625 0.0168
C95 C 0.38459(17) 0.6327(3) 0.1541(3)
C96 C 0.36155(18) 0.6417(3) 0.0942(3)
H57 H 0.3356 0.6367 0.0767
C97 C 0.70454(19) 0.8772(3) 0.1285(3)
C98 C 0.41330(17) 0.6679(3) 0.0843(3)
C99 C 0.46269(17) 0.7576(3) 0.1196(3)
H58 H 0.4447 0.7585 0.1315
C101 C 0.43629(18) 0.6555(3) 0.1434(3)
H60 H 0.4623 0.6576 0.1603
C105 C 0.45747(18) 0.7242(3) 0.0751(3)
C106 C 0.55399(19) 0.8210(3) 0.1658(3)
C108 C 0.7000(2) 0.8264(3) 0.1110(3)
H62 H 0.7060 0.8001 0.1400
C109 C 0.6954(3) 0.9155(3) 0.0860(3)
H63 H 0.6983 0.9508 0.0976
C113 C 0.49285(17) 0.7897(3) 0.1477(3)
H64 H 0.4952 0.8124 0.1781
C114 C 0.61643(19) 0.8421(3) 0.1946(4)
H65 H 0.6371 0.8356 0.1901
C115 C 0.6770(2) 0.8509(3) 0.0087(3)
C116 C 0.51985(18) 0.7894(3) 0.1324(3)
C120 C 0.5137(2) 0.7577(4) 0.0857(4)
H67 H 0.5312 0.7577 0.0728
C124 C 0.6869(2) 0.8123(3) 0.0519(3)
H71 H 0.6847 0.7768 0.0410
C127 C 0.5843(2) 0.8141(4) 0.1602(4)
H74 H 0.5832 0.7896 0.1322
C131 C 0.4829(2) 0.7257(4) 0.0568(3)
H75 H 0.4794 0.7048 0.0243
C136 C 0.6820(3) 0.9026(3) 0.0262(3)
C140 C 0.5884(3) 0.8894(5) 0.2368(5)
H83 H 0.5894 0.9164 0.2623
C149 C 0.5552(3) 0.8621(5) 0.2031(5)
H90 H 0.5339 0.8709 0.2050
H91 H 0.4220 0.5979 0.0036
O37 O 0.65336(11) 0.9414(2) 0.3066(2)
O38 O 0.68179(12) 0.8975(2) 0.2667(2)
C158 C 0.32928(19) 0.5879(3) 0.3119(3)
Th7 Th 0.33978(2) 0.5000 0.42087(2)
Th8 Th 0.24819(2) 0.42052(2) 0.31697(2)
Th9 Th 0.74819(2) 0.92052(2) 0.31697(2)
Th10 Th 0.24819(2) 0.57948(2) 0.31697(2)
Th11 Th 0.74819(2) 0.07948(2) 0.31697(2)
Th17_2 Th 0.69516(2) 1.0000 0.38699(2)
Th3 Th 0.28903(2) 0.42317(2) 0.48940(2)
Th4 Th 0.19516(2) 0.5000 0.38699(2)
O1 O 0.25547(14) 0.5000 0.4694(2)
O2 O 0.28076(14) 0.5000 0.3145(2)
O3 O 0.21572(15) 0.5000 0.3131(2)
O4 O 0.38072(11) 0.43576(19) 0.49302(18)
O5 O 0.22949(11) 0.41821(16) 0.39319(17)
O7 O 0.28039(14) 0.33231(18) 0.4528(2)
O9 O 0.35229(11) 0.38966(19) 0.53035(19)
O10 O 0.25870(14) 0.33163(19) 0.3540(2)
O11 O 0.31889(13) 0.4398(2) 0.59817(19)
O13 O 0.12853(18) 0.5000 0.3702(3)
O14 O 0.68888(12) 0.0588(2) 0.4548(2)
O15 O 0.74152(12) 0.1022(2) 0.51222(19)
O16 O 0.30989(18) 0.3564(3) 0.5794(2)
C1 C 0.3817(2) 0.4035(3) 0.5293(3)
C2 C 0.2682(2) 0.3108(4) 0.4028(4)
H1 H 0.2661 0.2742 0.4023
C3 C 0.41552(16) 0.3739(3) 0.5673(3)
C10 C 0.7096(2) 0.0872(3) 0.4991(3)
C21 C 0.62736(18) 0.2238(3) 0.8635(3)
H10 H 0.6142 0.2554 0.8493
C23 C 0.64250(18) 0.2088(3) 0.9230(3)
H12 H 0.6392 0.2306 0.9492
C24 C 0.69494(19) 0.1054(3) 0.5377(3)
N2 N 0.61605(19) 0.2045(3) 0.7644(2)
C25 C 0.51703(17) 0.2913(3) 0.6741(3)
C28 C 0.4114(2) 0.3254(4) 0.9881(3)
C31 C 0.3199(2) 0.3936(5) 0.6158(4)
C32 C 0.5835(2) 0.2355(4) 0.7357(3)
C33 C 0.6620(2) 0.1636(3) 0.9452(3)
C38 C 0.7161(2) 0.1384(4) 0.5852(3)
H17 H 0.7395 0.1500 0.5923
C39 C 0.48261(17) 0.3211(3) 0.6389(3)
C40 C 0.6322(2) 0.1905(4) 0.8249(3)
C42 C 0.5206(2) 0.2501(3) 0.7099(3)
H19 H 0.5002 0.2410 0.7143
C43 C 0.5528(2) 0.2210(3) 0.7400(3)
H20 H 0.5540 0.1919 0.7632
C44 C 0.4183(2) 0.3396(4) 0.6086(4)
H21 H 0.3975 0.3327 0.6127
C46 C 0.54875(18) 0.3055(3) 0.6716(3)
H23 H 0.5476 0.3344 0.6482
C47 C 0.6620(2) 0.0883(4) 0.5284(4)
H24 H 0.6474 0.0657 0.4959
C49 C 0.6698(3) 0.1366(4) 0.6133(3)
C50 C 0.6308(2) 0.1872(4) 0.7288(3)
C51 C 0.3353(3) 0.3826(4) 0.6831(5)
C53 C 0.6528(3) 0.1478(4) 0.8477(3)
H27 H 0.6572 0.1263 0.8223
C54 C 0.6556(2) 0.1533(4) 0.6534(3)
C55 C 0.58120(19) 0.2781(3) 0.7026(3)
H28 H 0.6023 0.2888 0.7010
C56 C 0.4455(2) 0.3818(5) 0.5609(5)
H29 H 0.4443 0.4070 0.5334
H30 H 0.6762 0.0708 0.9975
C58 C 0.7037(3) 0.1544(4) 0.6220(4)
H31 H 0.7181 0.1778 0.6536
C59 C 0.4522(2) 0.3142(4) 0.6456(5)
H32 H 0.4543 0.2917 0.6760
C60 C 0.6682(3) 0.1335(4) 0.9084(3)
H33 H 0.6828 0.1031 0.9233
C62 C 0.6193(3) 0.1509(4) 0.6354(4)
H35 H 0.6020 0.1386 0.5965
C63 C 0.3808(3) 0.3475(6) 0.8673(4)
C64 C 0.6070(3) 0.1662(4) 0.6738(4)
H36 H 0.5817 0.1620 0.6616
C65 C 0.6492(3) 0.1037(5) 0.5668(4)
H37 H 0.6262 0.0912 0.5602
C66 C 0.3637(4) 0.3605(7) 0.8017(5)
C67 C 0.3957(3) 0.2875(5) 0.9440(4)
H38 H 0.3960 0.2529 0.9564
C68 C 0.3513(4) 0.4208(6) 0.7176(5)
H39 H 0.3551 0.4540 0.7060
C69 C 0.3634(5) 0.4034(6) 0.7813(5)
H40 H 0.3721 0.4306 0.8099
C71 C 0.4120(3) 0.3765(5) 0.9731(4)
C72 C 0.4776(2) 0.3533(5) 0.5939(5)
H43 H 0.4967 0.3563 0.5849
C73 C 0.6665(3) 0.1889(6) 0.7467(4)
H44 H 0.6835 0.2024 0.7851
C74 C 0.3800(4) 0.2968(6) 0.8841(4)
H45 H 0.3690 0.2698 0.8554
C75 C 0.6793(3) 0.1717(6) 0.7108(4)
H46 H 0.7051 0.1724 0.7257
C76 C 0.3301(5) 0.3321(6) 0.6950(5)
H47 H 0.3165 0.3071 0.6649
C77 C 0.3482(6) 0.3214(6) 0.7599(6)
H48 H 0.3490 0.2869 0.7730
O18 O 0.29696(10) 0.43846(16) 0.40928(15)
C78 C 0.3981(4) 0.3910(7) 0.9143(5)
H49 H 0.3991 0.4258 0.9034
O19 O 0.32893(14) 0.5000 0.5089(2)
O22 O 0.40962(18) 0.5000 0.4421(3)
Th6 Th 0.28903(2) 0.57683(2) 0.48940(2)
O23 O 0.38072(11) 0.56424(19) 0.49302(18)
O24 O 0.22949(11) 0.58179(16) 0.39319(17)
O26 O 0.28039(14) 0.66769(18) 0.4528(2)
O28 O 0.35229(11) 0.61034(19) 0.53035(19)
O29 O 0.25870(14) 0.66837(19) 0.3540(2)
O30 O 0.31889(13) 0.5602(2) 0.59817(19)
O32 O 0.68888(12) 0.9412(2) 0.4548(2)
O33 O 0.74152(12) 0.8978(2) 0.51222(19)
O34 O 0.30989(18) 0.6436(3) 0.5794(2)
C80 C 0.3817(2) 0.5965(3) 0.5293(3)
C81 C 0.2682(2) 0.6892(4) 0.4028(4)
H50 H 0.2661 0.7258 0.4023
C82 C 0.41552(16) 0.6261(3) 0.5673(3)
C89 C 0.7096(2) 0.9128(3) 0.4991(3)
C100 C 0.62736(18) 0.7762(3) 0.8635(3)
H59 H 0.6142 0.7446 0.8493
C102 C 0.64250(18) 0.7912(3) 0.9230(3)
H61 H 0.6392 0.7694 0.9492
C103 C 0.69494(19) 0.8946(3) 0.5377(3)
N4 N 0.61605(19) 0.7955(3) 0.7644(2)
C104 C 0.51703(17) 0.7087(3) 0.6741(3)
C107 C 0.4114(2) 0.6746(4) 0.9881(3)
C110 C 0.3199(2) 0.6064(5) 0.6158(4)
C111 C 0.5835(2) 0.7645(4) 0.7357(3)
C112 C 0.6620(2) 0.8364(3) 0.9452(3)
C117 C 0.7161(2) 0.8616(4) 0.5852(3)
H66 H 0.7395 0.8500 0.5923
C118 C 0.48261(17) 0.6789(3) 0.6389(3)
C119 C 0.6322(2) 0.8095(4) 0.8249(3)
C121 C 0.5206(2) 0.7499(3) 0.7099(3)
H68 H 0.5002 0.7590 0.7143
C122 C 0.5528(2) 0.7790(3) 0.7400(3)
H69 H 0.5540 0.8081 0.7632
C123 C 0.4183(2) 0.6604(4) 0.6086(4)
H70 H 0.3975 0.6673 0.6127
C125 C 0.54875(18) 0.6945(3) 0.6716(3)
H72 H 0.5476 0.6656 0.6482
C126 C 0.6620(2) 0.9117(4) 0.5284(4)
H73 H 0.6474 0.9343 0.4959
C128 C 0.6698(3) 0.8634(4) 0.6133(3)
C129 C 0.6308(2) 0.8128(4) 0.7288(3)
C130 C 0.3353(3) 0.6174(4) 0.6831(5)
C132 C 0.6528(3) 0.8522(4) 0.8477(3)
H76 H 0.6572 0.8737 0.8223
C133 C 0.6556(2) 0.8467(4) 0.6534(3)
C134 C 0.58120(19) 0.7219(3) 0.7026(3)
H77 H 0.6023 0.7112 0.7010
C135 C 0.4455(2) 0.6182(5) 0.5609(5)
H78 H 0.4443 0.5930 0.5334
H79 H 0.6762 0.9292 0.9975
C137 C 0.7037(3) 0.8456(4) 0.6220(4)
H80 H 0.7181 0.8222 0.6536
C138 C 0.4522(2) 0.6858(4) 0.6456(5)
H81 H 0.4543 0.7083 0.6760
C139 C 0.6682(3) 0.8665(4) 0.9084(3)
H82 H 0.6828 0.8969 0.9233
C141 C 0.6193(3) 0.8491(4) 0.6354(4)
H84 H 0.6020 0.8614 0.5965
C142 C 0.3808(3) 0.6525(6) 0.8673(4)
C143 C 0.6070(3) 0.8338(4) 0.6738(4)
H85 H 0.5817 0.8380 0.6616
C144 C 0.6492(3) 0.8963(5) 0.5668(4)
H86 H 0.6262 0.9088 0.5602
C145 C 0.3637(4) 0.6395(7) 0.8017(5)
C146 C 0.3957(3) 0.7125(5) 0.9440(4)
H87 H 0.3960 0.7471 0.9564
C147 C 0.3513(4) 0.5792(6) 0.7176(5)
H88 H 0.3551 0.5460 0.7060
C148 C 0.3634(5) 0.5966(6) 0.7813(5)
H89 H 0.3721 0.5694 0.8099
C150 C 0.4120(3) 0.6235(5) 0.9731(4)
C151 C 0.4776(2) 0.6467(5) 0.5939(5)
H92 H 0.4967 0.6437 0.5849
C152 C 0.6665(3) 0.8111(6) 0.7467(4)
H93 H 0.6835 0.7976 0.7851
C153 C 0.3800(4) 0.7032(6) 0.8841(4)
H94 H 0.3690 0.7302 0.8554
C154 C 0.6793(3) 0.8283(6) 0.7108(4)
H95 H 0.7051 0.8276 0.7257
C155 C 0.3301(5) 0.6679(6) 0.6950(5)
H96 H 0.3165 0.6929 0.6649
C156 C 0.3482(6) 0.6786(6) 0.7599(6)
H97 H 0.3490 0.7131 0.7730
O36 O 0.29696(10) 0.56154(16) 0.40928(15)
C157 C 0.3981(4) 0.6090(7) 0.9143(5)
H98 H 0.3991 0.5742 0.9034
Th12 Th 0.78903(2) 0.92317(2) 0.48940(2)
Th13 Th 0.78903(2) 0.07683(2) 0.48940(2)
O41 O 0.22683(13) 0.64439(18) 0.22968(18)
O42 O 0.22683(13) 0.35561(18) 0.22968(18)
O43 O 0.22363(13) 0.56163(19) 0.20752(19)
O44 O 0.22363(13) 0.43837(19) 0.20752(19)
O45 O 0.18888(12) 0.5588(2) 0.4548(2)
O46 O 0.18888(12) 0.4412(2) 0.4548(2)
O47 O 0.24152(12) 0.6022(2) 0.51222(19)
O48 O 0.24152(12) 0.3978(2) 0.51222(19)
O51 O 0.15336(11) 0.5586(2) 0.3066(2)
O52 O 0.15336(11) 0.4414(2) 0.3066(2)
O53 O 0.18179(12) 0.6025(2) 0.2667(2)
O54 O 0.18179(12) 0.3975(2) 0.2667(2)
C86_2 C 0.15533(17) 0.4062(3) 0.2730(3)
C87_2 C 0.21894(19) 0.3907(3) 0.1919(3)
C90_2 C 0.11949(17) 0.3785(3) 0.2344(3)
C97_2 C 0.20454(19) 0.3772(3) 0.1285(3)
C106_2 C 0.05399(19) 0.3210(3) 0.1658(3)
C108_2 C 0.2000(2) 0.3264(3) 0.1110(3)
H62_2 H 0.2060 0.3001 0.1400
C109_2 C 0.1954(3) 0.4155(3) 0.0860(3)
H63_2 H 0.1983 0.4508 0.0976
C114_2 C 0.11643(19) 0.3421(3) 0.1946(4)
H65_2 H 0.1371 0.3356 0.1901
C115_2 C 0.1770(2) 0.3509(3) 0.0087(3)
C116_2 C 0.01985(18) 0.2894(3) 0.1324(3)
C120_2 C 0.0137(2) 0.2577(4) 0.0857(4)
H67_2 H 0.0312 0.2577 0.0728
C124_2 C 0.1869(2) 0.3123(3) 0.0519(3)
H71_2 H 0.1847 0.2768 0.0410
C127_2 C 0.0843(2) 0.3141(4) 0.1602(4)
H74_2 H 0.0832 0.2896 0.1322
C136_2 C 0.1820(3) 0.4026(3) 0.0262(3)
C140_2 C 0.0884(3) 0.3894(5) 0.2368(5)
H83_2 H 0.0894 0.4164 0.2623
C149_2 C 0.0552(3) 0.3621(5) 0.2031(5)
H90_2 H 0.0339 0.3709 0.2050
C89_2 C 0.2096(2) 0.4128(3) 0.4991(3)
C100_2 C 0.12736(18) 0.2762(3) 0.8635(3)
H59_2 H 0.1142 0.2446 0.8493
C102_2 C 0.14250(18) 0.2912(3) 0.9230(3)
H61_2 H 0.1392 0.2694 0.9492
C103_2 C 0.19494(19) 0.3946(3) 0.5377(3)
N4_2 N 0.11605(19) 0.2955(3) 0.7644(2)
C104_2 C 0.01703(17) 0.2087(3) 0.6741(3)
C111_2 C 0.0835(2) 0.2645(4) 0.7357(3)
C112_2 C 0.1620(2) 0.3364(3) 0.9452(3)
C117_2 C 0.2161(2) 0.3616(4) 0.5852(3)
H66_2 H 0.2395 0.3500 0.5923
C119_2 C 0.1322(2) 0.3095(4) 0.8249(3)
C121_2 C 0.0206(2) 0.2499(3) 0.7099(3)
H68_2 H 0.0002 0.2590 0.7143
C122_2 C 0.0528(2) 0.2790(3) 0.7400(3)
H69_2 H 0.0540 0.3081 0.7632
C125_2 C 0.04875(18) 0.1945(3) 0.6716(3)
H72_2 H 0.0476 0.1656 0.6482
C126_2 C 0.1620(2) 0.4117(4) 0.5284(4)
H73_2 H 0.1474 0.4343 0.4959
C128_2 C 0.1698(3) 0.3634(4) 0.6133(3)
C129_2 C 0.1308(2) 0.3128(4) 0.7288(3)
C132_2 C 0.1528(3) 0.3522(4) 0.8477(3)
H76_2 H 0.1572 0.3737 0.8223
C133_2 C 0.1556(2) 0.3467(4) 0.6534(3)
C134_2 C 0.08120(19) 0.2219(3) 0.7026(3)
H77_2 H 0.1023 0.2112 0.7010
H79_2 H 0.1762 0.4292 0.9975
C137_2 C 0.2037(3) 0.3456(4) 0.6220(4)
H80_2 H 0.2181 0.3222 0.6536
C139_2 C 0.1682(3) 0.3665(4) 0.9084(3)
H82_2 H 0.1828 0.3969 0.9233
C141_2 C 0.1193(3) 0.3491(4) 0.6354(4)
H84_2 H 0.1020 0.3614 0.5965
C143_2 C 0.1070(3) 0.3338(4) 0.6738(4)
H85_2 H 0.0817 0.3380 0.6616
C144_2 C 0.1492(3) 0.3963(5) 0.5668(4)
H86_2 H 0.1262 0.4088 0.5602
C152_2 C 0.1665(3) 0.3111(6) 0.7467(4)
H93_2 H 0.1835 0.2976 0.7851
C154_2 C 0.1793(3) 0.3283(6) 0.7108(4)
H95_2 H 0.2051 0.3276 0.7257
C7_2 C 0.15533(17) 0.5938(3) 0.2730(3)
C8_2 C 0.21894(19) 0.6093(3) 0.1919(3)
C11_2 C 0.11949(17) 0.6215(3) 0.2344(3)
C18_2 C 0.20454(19) 0.6228(3) 0.1285(3)
C27_2 C 0.05399(19) 0.6790(3) 0.1658(3)
C29_2 C 0.2000(2) 0.6736(3) 0.1110(3)
H13_2 H 0.2060 0.6999 0.1400
C30_2 C 0.1954(3) 0.5845(3) 0.0860(3)
H14_2 H 0.1983 0.5492 0.0976
C35_2 C 0.11643(19) 0.6579(3) 0.1946(4)
H16_2 H 0.1371 0.6644 0.1901
C36_2 C 0.1770(2) 0.6491(3) 0.0087(3)
C37_2 C 0.01985(18) 0.7106(3) 0.1324(3)
C41_2 C 0.0137(2) 0.7423(4) 0.0857(4)
H18_2 H 0.0312 0.7423 0.0728
C45_2 C 0.1869(2) 0.6877(3) 0.0519(3)
H22_2 H 0.1847 0.7232 0.0410
C48_2 C 0.0843(2) 0.6859(4) 0.1602(4)
H25_2 H 0.0832 0.7104 0.1322
C57_2 C 0.1820(3) 0.5974(3) 0.0262(3)
C61_2 C 0.0884(3) 0.6106(5) 0.2368(5)
H34_2 H 0.0894 0.5836 0.2623
C70_2 C 0.0552(3) 0.6379(5) 0.2031(5)
H41_2 H 0.0339 0.6291 0.2050
C10_2 C 0.2096(2) 0.5872(3) 0.4991(3)
C21_2 C 0.12736(18) 0.7238(3) 0.8635(3)
H10_2 H 0.1142 0.7554 0.8493
C23_2 C 0.14250(18) 0.7088(3) 0.9230(3)
H12_2 H 0.1392 0.7306 0.9492
C24_2 C 0.19494(19) 0.6054(3) 0.5377(3)
N2_2 N 0.11605(19) 0.7045(3) 0.7644(2)
C25_2 C 0.01703(17) 0.7913(3) 0.6741(3)
C32_2 C 0.0835(2) 0.7355(4) 0.7357(3)
C33_2 C 0.1620(2) 0.6636(3) 0.9452(3)
C38_2 C 0.2161(2) 0.6384(4) 0.5852(3)
H17_2 H 0.2395 0.6500 0.5923
C40_2 C 0.1322(2) 0.6905(4) 0.8249(3)
C42_2 C 0.0206(2) 0.7501(3) 0.7099(3)
H19_2 H 0.0002 0.7410 0.7143
C43_2 C 0.0528(2) 0.7210(3) 0.7400(3)
H20_2 H 0.0540 0.6919 0.7632
C46_2 C 0.04875(18) 0.8055(3) 0.6716(3)
H23_2 H 0.0476 0.8344 0.6482
C47_2 C 0.1620(2) 0.5883(4) 0.5284(4)
H24_2 H 0.1474 0.5657 0.4959
C49_2 C 0.1698(3) 0.6366(4) 0.6133(3)
C50_2 C 0.1308(2) 0.6872(4) 0.7288(3)
C53_2 C 0.1528(3) 0.6478(4) 0.8477(3)
H27_2 H 0.1572 0.6263 0.8223
C54_2 C 0.1556(2) 0.6533(4) 0.6534(3)
C55_2 C 0.08120(19) 0.7781(3) 0.7026(3)
H28_2 H 0.1023 0.7888 0.7010
H30_2 H 0.1762 0.5708 0.9975
C58_2 C 0.2037(3) 0.6544(4) 0.6220(4)
H31_2 H 0.2181 0.6778 0.6536
C60_2 C 0.1682(3) 0.6335(4) 0.9084(3)
H33_2 H 0.1828 0.6031 0.9233
C62_2 C 0.1193(3) 0.6509(4) 0.6354(4)
H35_2 H 0.1020 0.6386 0.5965
C64_2 C 0.1070(3) 0.6662(4) 0.6738(4)
H36_2 H 0.0817 0.6620 0.6616
C65_2 C 0.1492(3) 0.6037(5) 0.5668(4)
H37_2 H 0.1262 0.5912 0.5602
C73_2 C 0.1665(3) 0.6889(6) 0.7467(4)
H44_2 H 0.1835 0.7024 0.7851
C75_2 C 0.1793(3) 0.6717(6) 0.7108(4)
H46_2 H 0.2051 0.6724 0.7257
O25_2 O 0.84908(12) 0.05990(19) 0.35711(18)
O35_2 O 0.79856(12) 0.10614(19) 0.30006(19)
C83_2 C 0.84342(17) 0.1005(3) 0.2711(3)
C84_2 C 0.82451(19) 0.1333(3) 0.2237(3)
H51_2 H 0.8024 0.1495 0.2173
C85_2 C 0.86938(18) 0.1200(3) 0.1939(3)
C88_2 C 0.87577(18) 0.0772(3) 0.2809(3)
H52_2 H 0.8890 0.0547 0.3141
N3_2 N 0.92729(15) 0.1898(3) 0.0493(2)
C91_2 C 0.92271(17) 0.1402(3) 0.1784(3)
H53_2 H 0.9392 0.1346 0.2198
C92_2 C 0.83729(17) 0.1433(3) 0.1849(3)
H54_2 H 0.8240 0.1661 0.1521
C93_2 C 0.88894(17) 0.0865(3) 0.2422(3)
H55_2 H 0.9110 0.0703 0.2487
C94_2 C 0.87579(17) 0.1581(3) 0.0586(3)
H56_2 H 0.8597 0.1625 0.0168
C95_2 C 0.88459(17) 0.1327(3) 0.1541(3)
C96_2 C 0.86155(18) 0.1417(3) 0.0942(3)
H57_2 H 0.8356 0.1367 0.0767
C98_2 C 0.91330(17) 0.1679(3) 0.0843(3)
C99_2 C 0.96269(17) 0.2576(3) 0.1196(3)
H58_2 H 0.9447 0.2585 0.1315
C101_2 C 0.93629(18) 0.1555(3) 0.1434(3)
H60_2 H 0.9623 0.1576 0.1603
C105_2 C 0.95747(18) 0.2242(3) 0.0751(3)
C113_2 C 0.99285(17) 0.2897(3) 0.1477(3)
H64_2 H 0.9952 0.3124 0.1781
C131_2 C 0.9829(2) 0.2257(4) 0.0568(3)
H75_2 H 0.9794 0.2048 0.0243
H91_2 H 0.9220 0.0979 0.0036
C158_2 C 0.82928(19) 0.0879(3) 0.3119(3)
Th7_2 Th 0.83978(2) -0.0000 0.42087(2)
O1_2 O 0.75547(14) -0.0000 0.4694(2)
O2_2 O 0.78076(14) -0.0000 0.3145(2)
O3_2 O 0.71572(15) -0.0000 0.3131(2)
O13_2 O 0.62853(18) -0.0000 0.3702(3)
O19_2 O 0.82893(14) -0.0000 0.5089(2)
O22_2 O 0.90962(18) -0.0000 0.4421(3)
O23_2 O 0.88072(11) 0.06424(19) 0.49302(18)
O24_2 O 0.72949(11) 0.08179(16) 0.39319(17)
O26_2 O 0.78039(14) 0.16769(18) 0.4528(2)
O28_2 O 0.85229(11) 0.11034(19) 0.53035(19)
O29_2 O 0.75870(14) 0.16837(19) 0.3540(2)
O30_2 O 0.81889(13) 0.0602(2) 0.59817(19)
O34_2 O 0.80989(18) 0.1436(3) 0.5794(2)
C80_2 C 0.8817(2) 0.0965(3) 0.5293(3)
C81_2 C 0.7682(2) 0.1892(4) 0.4028(4)
H50_2 H 0.7661 0.2258 0.4023
C82_2 C 0.91552(16) 0.1261(3) 0.5673(3)
C107_2 C 0.9114(2) 0.1746(4) 0.9881(3)
C110_2 C 0.8199(2) 0.1064(5) 0.6158(4)
C118_2 C 0.98261(17) 0.1789(3) 0.6389(3)
C123_2 C 0.9183(2) 0.1604(4) 0.6086(4)
H70_2 H 0.8975 0.1673 0.6127
C130_2 C 0.8353(3) 0.1174(4) 0.6831(5)
C135_2 C 0.9455(2) 0.1182(5) 0.5609(5)
H78_2 H 0.9443 0.0930 0.5334
C138_2 C 0.9522(2) 0.1858(4) 0.6456(5)
H81_2 H 0.9543 0.2083 0.6760
C142_2 C 0.8808(3) 0.1525(6) 0.8673(4)
C145_2 C 0.8637(4) 0.1395(7) 0.8017(5)
C146_2 C 0.8957(3) 0.2125(5) 0.9440(4)
H87_2 H 0.8960 0.2471 0.9564
C147_2 C 0.8513(4) 0.0792(6) 0.7176(5)
H88_2 H 0.8551 0.0460 0.7060
C148_2 C 0.8634(5) 0.0966(6) 0.7813(5)
H89_2 H 0.8721 0.0694 0.8099
C150_2 C 0.9120(3) 0.1235(5) 0.9731(4)
C151_2 C 0.9776(2) 0.1467(5) 0.5939(5)
H92_2 H 0.9967 0.1437 0.5849
C153_2 C 0.8800(4) 0.2032(6) 0.8841(4)
H94_2 H 0.8690 0.2302 0.8554
C155_2 C 0.8301(5) 0.1679(6) 0.6950(5)
H96_2 H 0.8165 0.1929 0.6649
C156_2 C 0.8482(6) 0.1786(6) 0.7599(6)
H97_2 H 0.8490 0.2131 0.7730
O36_2 O 0.79696(10) 0.06154(16) 0.40928(15)
C157_2 C 0.8981(4) 0.1090(7) 0.9143(5)
H98_2 H 0.8991 0.0742 0.9034
H99 H 0.913646 0.0313669 0.424117
H100 H 0.92731 -5.55112e-17 0.485892
H101 H 0.625004 0.0313669 0.388766
H102 H 0.610167 -5.55112e-17 0.326664
O6_2 O 0.84908(12) 0.94010(19) 0.35711(18)
O17_2 O 0.79856(12) 0.89386(19) 0.30006(19)
C4_2 C 0.84342(17) 0.8995(3) 0.2711(3)
C5_2 C 0.82451(19) 0.8667(3) 0.2237(3)
H2_2 H 0.8024 0.8505 0.2173
C6_2 C 0.86938(18) 0.8800(3) 0.1939(3)
C9_2 C 0.87577(18) 0.9228(3) 0.2809(3)
H3_2 H 0.8890 0.9453 0.3141
N1_2 N 0.92729(15) 0.8102(3) 0.0493(2)
C12_2 C 0.92271(17) 0.8598(3) 0.1784(3)
H4_2 H 0.9392 0.8654 0.2198
C13_2 C 0.83729(17) 0.8567(3) 0.1849(3)
H5_2 H 0.8240 0.8339 0.1521
C14_2 C 0.88894(17) 0.9135(3) 0.2422(3)
H6_2 H 0.9110 0.9297 0.2487
C15_2 C 0.87579(17) 0.8419(3) 0.0586(3)
H7_2 H 0.8597 0.8375 0.0168
C16_2 C 0.88459(17) 0.8673(3) 0.1541(3)
C17_2 C 0.86155(18) 0.8583(3) 0.0942(3)
H8_2 H 0.8356 0.8633 0.0767
C19_2 C 0.91330(17) 0.8321(3) 0.0843(3)
C20_2 C 0.96269(17) 0.7424(3) 0.1196(3)
H9_2 H 0.9447 0.7415 0.1315
C22_2 C 0.93629(18) 0.8445(3) 0.1434(3)
H11_2 H 0.9623 0.8424 0.1603
C26_2 C 0.95747(18) 0.7758(3) 0.0751(3)
C34_2 C 0.99285(17) 0.7103(3) 0.1477(3)
H15_2 H 0.9952 0.6876 0.1781
C52_2 C 0.9829(2) 0.7743(4) 0.0568(3)
H26_2 H 0.9794 0.7952 0.0243
H42_2 H 0.9220 0.9021 0.0036
C79_2 C 0.82928(19) 0.9121(3) 0.3119(3)
Th7_3 Th 0.83978(2) 1.0000 0.42087(2)
O1_3 O 0.75547(14) 1.0000 0.4694(2)
O2_3 O 0.78076(14) 1.0000 0.3145(2)
O3_3 O 0.71572(15) 1.0000 0.3131(2)
O4_2 O 0.88072(11) 0.93576(19) 0.49302(18)
O5_2 O 0.72949(11) 0.91821(16) 0.39319(17)
O7_2 O 0.78039(14) 0.83231(18) 0.4528(2)
O9_2 O 0.85229(11) 0.88966(19) 0.53035(19)
O10_2 O 0.75870(14) 0.83163(19) 0.3540(2)
O11_2 O 0.81889(13) 0.9398(2) 0.59817(19)
O13_3 O 0.62853(18) 1.0000 0.3702(3)
O16_2 O 0.80989(18) 0.8564(3) 0.5794(2)
C1_2 C 0.8817(2) 0.9035(3) 0.5293(3)
C2_2 C 0.7682(2) 0.8108(4) 0.4028(4)
H1_2 H 0.7661 0.7742 0.4023
C3_2 C 0.91552(16) 0.8739(3) 0.5673(3)
C28_2 C 0.9114(2) 0.8254(4) 0.9881(3)
C31_2 C 0.8199(2) 0.8936(5) 0.6158(4)
C39_2 C 0.98261(17) 0.8211(3) 0.6389(3)
C44_2 C 0.9183(2) 0.8396(4) 0.6086(4)
H21_2 H 0.8975 0.8327 0.6127
C51_2 C 0.8353(3) 0.8826(4) 0.6831(5)
C56_2 C 0.9455(2) 0.8818(5) 0.5609(5)
H29_2 H 0.9443 0.9070 0.5334
C59_2 C 0.9522(2) 0.8142(4) 0.6456(5)
H32_2 H 0.9543 0.7917 0.6760
C63_2 C 0.8808(3) 0.8475(6) 0.8673(4)
C66_2 C 0.8637(4) 0.8605(7) 0.8017(5)
C67_2 C 0.8957(3) 0.7875(5) 0.9440(4)
H38_2 H 0.8960 0.7529 0.9564
C68_2 C 0.8513(4) 0.9208(6) 0.7176(5)
H39_2 H 0.8551 0.9540 0.7060
C69_2 C 0.8634(5) 0.9034(6) 0.7813(5)
H40_2 H 0.8721 0.9306 0.8099
C71_2 C 0.9120(3) 0.8765(5) 0.9731(4)
C72_2 C 0.9776(2) 0.8533(5) 0.5939(5)
H43_2 H 0.9967 0.8563 0.5849
C74_2 C 0.8800(4) 0.7968(6) 0.8841(4)
H45_2 H 0.8690 0.7698 0.8554
C76_2 C 0.8301(5) 0.8321(6) 0.6950(5)
H47_2 H 0.8165 0.8071 0.6649
C77_2 C 0.8482(6) 0.8214(6) 0.7599(6)
H48_2 H 0.8490 0.7869 0.7730
O18_2 O 0.79696(10) 0.93846(16) 0.40928(15)
C78_2 C 0.8981(4) 0.8910(7) 0.9143(5)
H49_2 H 0.8991 0.9258 0.9034
O19_3 O 0.82893(14) 1.0000 0.5089(2)
O22_3 O 0.90962(18) 1.0000 0.4421(3)
H100_2 H 0.92731 1 0.485892
H102_2 H 0.610167 1 0.326664
H99_2 H 0.913646 0.968633 0.424117
H101_2 H 0.625004 0.968633 0.388766
Th16 Th 0.30484(2) -0.0000 0.61301(2)
Th1 Th 0.66022(2) 0.5000 0.57913(2)
Th2 Th 0.75181(2) 0.42052(2) 0.68303(2)
Th3_2 Th 0.71097(2) 0.42317(2) 0.51060(2)
Th4_2 Th 0.80484(2) 0.5000 0.61301(2)
O1_4 O 0.74453(14) 0.5000 0.5306(2)
O2_4 O 0.71924(14) 0.5000 0.6855(2)
O3_4 O 0.78428(15) 0.5000 0.6869(2)
O4_3 O 0.61928(11) 0.43576(19) 0.50698(18)
O5_3 O 0.77051(11) 0.41821(16) 0.60681(17)
O7_3 O 0.71961(14) 0.33231(18) 0.5472(2)
O9_3 O 0.64771(11) 0.38966(19) 0.46965(19)
O10_3 O 0.74130(14) 0.33163(19) 0.6460(2)
O11_3 O 0.68111(13) 0.4398(2) 0.40183(19)
O13_4 O 0.87147(18) 0.5000 0.6298(3)
O14_2 O 0.31112(12) 0.0588(2) 0.5452(2)
O15_2 O 0.25848(12) 0.1022(2) 0.48778(19)
O16_3 O 0.69011(18) 0.3564(3) 0.4206(2)
C1_3 C 0.6183(2) 0.4035(3) 0.4707(3)
C2_3 C 0.7318(2) 0.3108(4) 0.5972(4)
H1_3 H 0.7339 0.2742 0.5977
C3_3 C 0.58448(16) 0.3739(3) 0.4327(3)
C10_3 C 0.2904(2) 0.0872(3) 0.5009(3)
C21_3 C 0.37264(18) 0.2238(3) 0.1365(3)
H10_3 H 0.3858 0.2554 0.1507
C23_3 C 0.35750(18) 0.2088(3) 0.0770(3)
H12_3 H 0.3608 0.2306 0.0508
C24_3 C 0.30506(19) 0.1054(3) 0.4623(3)
N2_3 N 0.38395(19) 0.2045(3) 0.2356(2)
C25_3 C 0.48297(17) 0.2913(3) 0.3259(3)
C28_3 C 0.5886(2) 0.3254(4) 0.0119(3)
C31_3 C 0.6801(2) 0.3936(5) 0.3842(4)
C32_3 C 0.4165(2) 0.2355(4) 0.2643(3)
C33_3 C 0.3380(2) 0.1636(3) 0.0548(3)
C38_3 C 0.2839(2) 0.1384(4) 0.4148(3)
H17_3 H 0.2605 0.1500 0.4077
C39_3 C 0.51739(17) 0.3211(3) 0.3611(3)
C40_3 C 0.3678(2) 0.1905(4) 0.1751(3)
C42_3 C 0.4794(2) 0.2501(3) 0.2901(3)
H19_3 H 0.4998 0.2410 0.2857
C43_3 C 0.4472(2) 0.2210(3) 0.2600(3)
H20_3 H 0.4460 0.1919 0.2368
C44_3 C 0.5817(2) 0.3396(4) 0.3914(4)
H21_3 H 0.6025 0.3327 0.3873
C46_3 C 0.45125(18) 0.3055(3) 0.3284(3)
H23_3 H 0.4524 0.3344 0.3518
C47_3 C 0.3380(2) 0.0883(4) 0.4716(4)
H24_3 H 0.3526 0.0657 0.5041
C49_3 C 0.3302(3) 0.1366(4) 0.3867(3)
C50_3 C 0.3692(2) 0.1872(4) 0.2712(3)
C51_3 C 0.6647(3) 0.3826(4) 0.3169(5)
C53_3 C 0.3472(3) 0.1478(4) 0.1523(3)
H27_3 H 0.3428 0.1263 0.1777
C54_3 C 0.3444(2) 0.1533(4) 0.3466(3)
C55_3 C 0.41880(19) 0.2781(3) 0.2974(3)
H28_3 H 0.3977 0.2888 0.2990
C56_3 C 0.5545(2) 0.3818(5) 0.4391(5)
H29_3 H 0.5557 0.4070 0.4666
H30_3 H 0.3238 0.0708 0.0025
C58_3 C 0.2963(3) 0.1544(4) 0.3780(4)
H31_3 H 0.2819 0.1778 0.3464
C59_3 C 0.5478(2) 0.3142(4) 0.3544(5)
H32_3 H 0.5457 0.2917 0.3240
C60_3 C 0.3318(3) 0.1335(4) 0.0916(3)
H33_3 H 0.3172 0.1031 0.0767
C62_3 C 0.3807(3) 0.1509(4) 0.3646(4)
H35_3 H 0.3980 0.1386 0.4035
C63_3 C 0.6192(3) 0.3475(6) 0.1327(4)
C64_3 C 0.3930(3) 0.1662(4) 0.3262(4)
H36_3 H 0.4183 0.1620 0.3384
C65_3 C 0.3508(3) 0.1037(5) 0.4332(4)
H37_3 H 0.3738 0.0912 0.4398
C66_3 C 0.6363(4) 0.3605(7) 0.1983(5)
C67_3 C 0.6043(3) 0.2875(5) 0.0560(4)
H38_3 H 0.6040 0.2529 0.0436
C68_3 C 0.6487(4) 0.4208(6) 0.2824(5)
H39_3 H 0.6449 0.4540 0.2940
C69_3 C 0.6366(5) 0.4034(6) 0.2187(5)
H40_3 H 0.6279 0.4306 0.1901
C71_3 C 0.5880(3) 0.3765(5) 0.0269(4)
C72_3 C 0.5224(2) 0.3533(5) 0.4061(5)
H43_3 H 0.5033 0.3563 0.4151
C73_3 C 0.3335(3) 0.1889(6) 0.2533(4)
H44_3 H 0.3165 0.2024 0.2149
C74_3 C 0.6200(4) 0.2968(6) 0.1159(4)
H45_3 H 0.6310 0.2698 0.1446
C75_3 C 0.3207(3) 0.1717(6) 0.2892(4)
H46_3 H 0.2949 0.1724 0.2743
C76_3 C 0.6699(5) 0.3321(6) 0.3050(5)
H47_3 H 0.6835 0.3071 0.3351
C77_3 C 0.6518(6) 0.3214(6) 0.2401(6)
H48_3 H 0.6510 0.2869 0.2270
O18_3 O 0.70304(10) 0.43846(16) 0.59072(15)
C78_3 C 0.6019(4) 0.3910(7) 0.0857(5)
H49_3 H 0.6009 0.4258 0.0966
O19_4 O 0.67107(14) 0.5000 0.4911(2)
O22_4 O 0.59038(18) 0.5000 0.5579(3)
Th5 Th 0.75181(2) 0.57948(2) 0.68303(2)
Th6_2 Th 0.71097(2) 0.57683(2) 0.51060(2)
O23_3 O 0.61928(11) 0.56424(19) 0.50698(18)
O24_3 O 0.77051(11) 0.58179(16) 0.60681(17)
O26_3 O 0.71961(14) 0.66769(18) 0.5472(2)
O28_3 O 0.64771(11) 0.61034(19) 0.46965(19)
O29_3 O 0.74130(14) 0.66837(19) 0.6460(2)
O30_3 O 0.68111(13) 0.5602(2) 0.40183(19)
O32_2 O 0.31112(12) 0.9412(2) 0.5452(2)
O33_2 O 0.25848(12) 0.8978(2) 0.48778(19)
O34_3 O 0.69011(18) 0.6436(3) 0.4206(2)
C80_3 C 0.6183(2) 0.5965(3) 0.4707(3)
C81_3 C 0.7318(2) 0.6892(4) 0.5972(4)
H50_3 H 0.7339 0.7258 0.5977
C82_3 C 0.58448(16) 0.6261(3) 0.4327(3)
C89_3 C 0.2904(2) 0.9128(3) 0.5009(3)
C100_3 C 0.37264(18) 0.7762(3) 0.1365(3)
H59_3 H 0.3858 0.7446 0.1507
C102_3 C 0.35750(18) 0.7912(3) 0.0770(3)
H61_3 H 0.3608 0.7694 0.0508
C103_3 C 0.30506(19) 0.8946(3) 0.4623(3)
N4_3 N 0.38395(19) 0.7955(3) 0.2356(2)
C104_3 C 0.48297(17) 0.7087(3) 0.3259(3)
C107_3 C 0.5886(2) 0.6746(4) 0.0119(3)
C110_3 C 0.6801(2) 0.6064(5) 0.3842(4)
C111_3 C 0.4165(2) 0.7645(4) 0.2643(3)
C112_3 C 0.3380(2) 0.8364(3) 0.0548(3)
C117_3 C 0.2839(2) 0.8616(4) 0.4148(3)
H66_3 H 0.2605 0.8500 0.4077
C118_3 C 0.51739(17) 0.6789(3) 0.3611(3)
C119_3 C 0.3678(2) 0.8095(4) 0.1751(3)
C121_3 C 0.4794(2) 0.7499(3) 0.2901(3)
H68_3 H 0.4998 0.7590 0.2857
C122_3 C 0.4472(2) 0.7790(3) 0.2600(3)
H69_3 H 0.4460 0.8081 0.2368
C123_3 C 0.5817(2) 0.6604(4) 0.3914(4)
H70_3 H 0.6025 0.6673 0.3873
C125_3 C 0.45125(18) 0.6945(3) 0.3284(3)
H72_3 H 0.4524 0.6656 0.3518
C126_3 C 0.3380(2) 0.9117(4) 0.4716(4)
H73_3 H 0.3526 0.9343 0.5041
C128_3 C 0.3302(3) 0.8634(4) 0.3867(3)
C129_3 C 0.3692(2) 0.8128(4) 0.2712(3)
C130_3 C 0.6647(3) 0.6174(4) 0.3169(5)
C132_3 C 0.3472(3) 0.8522(4) 0.1523(3)
H76_3 H 0.3428 0.8737 0.1777
C133_3 C 0.3444(2) 0.8467(4) 0.3466(3)
C134_3 C 0.41880(19) 0.7219(3) 0.2974(3)
H77_3 H 0.3977 0.7112 0.2990
C135_3 C 0.5545(2) 0.6182(5) 0.4391(5)
H78_3 H 0.5557 0.5930 0.4666
H79_3 H 0.3238 0.9292 0.0025
C137_3 C 0.2963(3) 0.8456(4) 0.3780(4)
H80_3 H 0.2819 0.8222 0.3464
C138_3 C 0.5478(2) 0.6858(4) 0.3544(5)
H81_3 H 0.5457 0.7083 0.3240
C139_3 C 0.3318(3) 0.8665(4) 0.0916(3)
H82_3 H 0.3172 0.8969 0.0767
C141_3 C 0.3807(3) 0.8491(4) 0.3646(4)
H84_3 H 0.3980 0.8614 0.4035
C142_3 C 0.6192(3) 0.6525(6) 0.1327(4)
C143_3 C 0.3930(3) 0.8338(4) 0.3262(4)
H85_3 H 0.4183 0.8380 0.3384
C144_3 C 0.3508(3) 0.8963(5) 0.4332(4)
H86_3 H 0.3738 0.9088 0.4398
C145_3 C 0.6363(4) 0.6395(7) 0.1983(5)
C146_3 C 0.6043(3) 0.7125(5) 0.0560(4)
H87_3 H 0.6040 0.7471 0.0436
C147_3 C 0.6487(4) 0.5792(6) 0.2824(5)
H88_3 H 0.6449 0.5460 0.2940
C148_3 C 0.6366(5) 0.5966(6) 0.2187(5)
H89_3 H 0.6279 0.5694 0.1901
C150_3 C 0.5880(3) 0.6235(5) 0.0269(4)
C151_3 C 0.5224(2) 0.6467(5) 0.4061(5)
H92_3 H 0.5033 0.6437 0.4151
C152_3 C 0.3335(3) 0.8111(6) 0.2533(4)
H93_3 H 0.3165 0.7976 0.2149
C153_3 C 0.6200(4) 0.7032(6) 0.1159(4)
H94_3 H 0.6310 0.7302 0.1446
C154_3 C 0.3207(3) 0.8283(6) 0.2892(4)
H95_3 H 0.2949 0.8276 0.2743
C155_3 C 0.6699(5) 0.6679(6) 0.3050(5)
H96_3 H 0.6835 0.6929 0.3351
C156_3 C 0.6518(6) 0.6786(6) 0.2401(6)
H97_3 H 0.6510 0.7131 0.2270
O36_3 O 0.70304(10) 0.56154(16) 0.59072(15)
C157_3 C 0.6019(4) 0.6090(7) 0.0857(5)
H98_3 H 0.6009 0.5742 0.0966
Th12_2 Th 0.21097(2) 0.92317(2) 0.51060(2)
Th13_2 Th 0.21097(2) 0.07683(2) 0.51060(2)
Th16_2 Th 0.30484(2) 1.0000 0.61301(2)
O39 O 0.65092(12) 0.44010(19) 0.64289(18)
O40 O 0.65092(12) 0.55990(19) 0.64289(18)
O41_2 O 0.77317(13) 0.64439(18) 0.77032(18)
O42_2 O 0.77317(13) 0.35561(18) 0.77032(18)
O43_2 O 0.77637(13) 0.56163(19) 0.79248(19)
O44_2 O 0.77637(13) 0.43837(19) 0.79248(19)
O45_2 O 0.81112(12) 0.5588(2) 0.5452(2)
O46_2 O 0.81112(12) 0.4412(2) 0.5452(2)
O47_2 O 0.75848(12) 0.6022(2) 0.48778(19)
O48_2 O 0.75848(12) 0.3978(2) 0.48778(19)
O49 O 0.70144(12) 0.39386(19) 0.69994(19)
O50 O 0.70144(12) 0.60614(19) 0.69994(19)
O51_2 O 0.84664(11) 0.5586(2) 0.6934(2)
O52_2 O 0.84664(11) 0.4414(2) 0.6934(2)
O53_2 O 0.81821(12) 0.6025(2) 0.7333(2)
O54_2 O 0.81821(12) 0.3975(2) 0.7333(2)
O8_2 O 0.27317(13) 0.14439(18) 0.77032(18)
O12_2 O 0.27637(13) 0.06163(19) 0.79248(19)
C4_3 C 0.65658(17) 0.3995(3) 0.7289(3)
C5_3 C 0.67549(19) 0.3667(3) 0.7763(3)
H2_3 H 0.6976 0.3505 0.7827
C6_3 C 0.63062(18) 0.3800(3) 0.8061(3)
C7_3 C 0.34467(17) 0.0938(3) 0.7270(3)
C8_3 C 0.28106(19) 0.1093(3) 0.8081(3)
C9_3 C 0.62423(18) 0.4228(3) 0.7191(3)
H3_3 H 0.6110 0.4453 0.6859
N1_3 N 0.57271(15) 0.3102(3) 0.9507(2)
C11_3 C 0.38051(17) 0.1215(3) 0.7656(3)
C12_3 C 0.57729(17) 0.3598(3) 0.8216(3)
H4_3 H 0.5608 0.3654 0.7802
C13_3 C 0.66271(17) 0.3567(3) 0.8151(3)
H5_3 H 0.6760 0.3339 0.8479
C14_3 C 0.61106(17) 0.4135(3) 0.7578(3)
H6_3 H 0.5890 0.4297 0.7513
C15_3 C 0.62421(17) 0.3419(3) 0.9414(3)
H7_3 H 0.6403 0.3375 0.9832
C16_3 C 0.61541(17) 0.3673(3) 0.8459(3)
C17_3 C 0.63845(18) 0.3583(3) 0.9058(3)
H8_3 H 0.6644 0.3633 0.9233
C18_3 C 0.29546(19) 0.1228(3) 0.8715(3)
C19_3 C 0.58670(17) 0.3321(3) 0.9157(3)
C20_3 C 0.53731(17) 0.2424(3) 0.8804(3)
H9_3 H 0.5553 0.2415 0.8685
C22_3 C 0.56371(18) 0.3445(3) 0.8566(3)
H11_3 H 0.5377 0.3424 0.8397
C26_3 C 0.54253(18) 0.2758(3) 0.9249(3)
C27_3 C 0.44601(19) 0.1790(3) 0.8342(3)
C29_3 C 0.3000(2) 0.1736(3) 0.8890(3)
H13_3 H 0.2940 0.1999 0.8600
C30_3 C 0.3046(3) 0.0845(3) 0.9140(3)
H14_3 H 0.3017 0.0492 0.9024
C34_3 C 0.50715(17) 0.2103(3) 0.8523(3)
H15_3 H 0.5048 0.1876 0.8219
C35_3 C 0.38357(19) 0.1579(3) 0.8054(4)
H16_3 H 0.3629 0.1644 0.8099
C36_3 C 0.3230(2) 0.1491(3) 0.9913(3)
C37_3 C 0.48015(18) 0.2106(3) 0.8676(3)
C41_3 C 0.4863(2) 0.2423(4) 0.9143(4)
H18_3 H 0.4688 0.2423 0.9272
C45_3 C 0.3131(2) 0.1877(3) 0.9481(3)
H22_3 H 0.3153 0.2232 0.9590
C48_3 C 0.4157(2) 0.1859(4) 0.8398(4)
H25_3 H 0.4168 0.2104 0.8678
C52_3 C 0.5171(2) 0.2743(4) 0.9432(3)
H26_3 H 0.5206 0.2952 0.9757
C57_3 C 0.3180(3) 0.0974(3) 0.9738(3)
C61_3 C 0.4116(3) 0.1106(5) 0.7632(5)
H34_3 H 0.4106 0.0836 0.7377
C70_3 C 0.4448(3) 0.1379(5) 0.7969(5)
H41_3 H 0.4661 0.1291 0.7950
H42_3 H 0.5780 0.4021 0.9964
O20_2 O 0.34664(11) 0.0586(2) 0.6934(2)
O21_2 O 0.31821(12) 0.1025(2) 0.7333(2)
C79_3 C 0.67072(19) 0.4121(3) 0.6881(3)
O27_2 O 0.27317(13) 0.85561(18) 0.77032(18)
O31_2 O 0.27637(13) 0.93837(19) 0.79248(19)
C83_3 C 0.65658(17) 0.6005(3) 0.7289(3)
C84_3 C 0.67549(19) 0.6333(3) 0.7763(3)
H51_3 H 0.6976 0.6495 0.7827
C85_3 C 0.63062(18) 0.6200(3) 0.8061(3)
C86_3 C 0.34467(17) 0.9062(3) 0.7270(3)
C87_3 C 0.28106(19) 0.8907(3) 0.8081(3)
C88_3 C 0.62423(18) 0.5772(3) 0.7191(3)
H52_3 H 0.6110 0.5547 0.6859
N3_3 N 0.57271(15) 0.6898(3) 0.9507(2)
C90_3 C 0.38051(17) 0.8785(3) 0.7656(3)
C91_3 C 0.57729(17) 0.6402(3) 0.8216(3)
H53_3 H 0.5608 0.6346 0.7802
C92_3 C 0.66271(17) 0.6433(3) 0.8151(3)
H54_3 H 0.6760 0.6661 0.8479
C93_3 C 0.61106(17) 0.5865(3) 0.7578(3)
H55_3 H 0.5890 0.5703 0.7513
C94_3 C 0.62421(17) 0.6581(3) 0.9414(3)
H56_3 H 0.6403 0.6625 0.9832
C95_3 C 0.61541(17) 0.6327(3) 0.8459(3)
C96_3 C 0.63845(18) 0.6417(3) 0.9058(3)
H57_3 H 0.6644 0.6367 0.9233
C97_3 C 0.29546(19) 0.8772(3) 0.8715(3)
C98_3 C 0.58670(17) 0.6679(3) 0.9157(3)
C99_3 C 0.53731(17) 0.7576(3) 0.8804(3)
H58_3 H 0.5553 0.7585 0.8685
C101_3 C 0.56371(18) 0.6555(3) 0.8566(3)
H60_3 H 0.5377 0.6576 0.8397
C105_3 C 0.54253(18) 0.7242(3) 0.9249(3)
C106_3 C 0.44601(19) 0.8210(3) 0.8342(3)
C108_3 C 0.3000(2) 0.8264(3) 0.8890(3)
H62_3 H 0.2940 0.8001 0.8600
C109_3 C 0.3046(3) 0.9155(3) 0.9140(3)
H63_3 H 0.3017 0.9508 0.9024
C113_3 C 0.50715(17) 0.7897(3) 0.8523(3)
H64_3 H 0.5048 0.8124 0.8219
C114_3 C 0.38357(19) 0.8421(3) 0.8054(4)
H65_3 H 0.3629 0.8356 0.8099
C115_3 C 0.3230(2) 0.8509(3) 0.9913(3)
C116_3 C 0.48015(18) 0.7894(3) 0.8676(3)
C120_3 C 0.4863(2) 0.7577(4) 0.9143(4)
H67_3 H 0.4688 0.7577 0.9272
C124_3 C 0.3131(2) 0.8123(3) 0.9481(3)
H71_3 H 0.3153 0.7768 0.9590
C127_3 C 0.4157(2) 0.8141(4) 0.8398(4)
H74_3 H 0.4168 0.7896 0.8678
C131_3 C 0.5171(2) 0.7257(4) 0.9432(3)
H75_3 H 0.5206 0.7048 0.9757
C136_3 C 0.3180(3) 0.9026(3) 0.9738(3)
C140_3 C 0.4116(3) 0.8894(5) 0.7632(5)
H83_3 H 0.4106 0.9164 0.7377
C149_3 C 0.4448(3) 0.8621(5) 0.7969(5)
H90_3 H 0.4661 0.8709 0.7950
H91_3 H 0.5780 0.5979 0.9964
O37_2 O 0.34664(11) 0.9414(2) 0.6934(2)
O38_2 O 0.31821(12) 0.8975(2) 0.7333(2)
C158_3 C 0.67072(19) 0.5879(3) 0.6881(3)
Th9_2 Th 0.25181(2) 0.92052(2) 0.68303(2)
Th11_2 Th 0.25181(2) 0.07948(2) 0.68303(2)
Th1_2 Th 0.16022(2) -0.0000 0.57913(2)
O1_5 O 0.24453(14) -0.0000 0.5306(2)
O2_5 O 0.21924(14) -0.0000 0.6855(2)
O3_5 O 0.28428(15) -0.0000 0.6869(2)
O13_5 O 0.37147(18) -0.0000 0.6298(3)
O19_5 O 0.17107(14) -0.0000 0.4911(2)
O22_5 O 0.09038(18) -0.0000 0.5579(3)
O23_4 O 0.11928(11) 0.06424(19) 0.50698(18)
O24_4 O 0.27051(11) 0.08179(16) 0.60681(17)
O26_4 O 0.21961(14) 0.16769(18) 0.5472(2)
O28_4 O 0.14771(11) 0.11034(19) 0.46965(19)
O29_4 O 0.24130(14) 0.16837(19) 0.6460(2)
O30_4 O 0.18111(13) 0.0602(2) 0.40183(19)
O34_4 O 0.19011(18) 0.1436(3) 0.4206(2)
C80_4 C 0.1183(2) 0.0965(3) 0.4707(3)
C81_4 C 0.2318(2) 0.1892(4) 0.5972(4)
H50_4 H 0.2339 0.2258 0.5977
C82_4 C 0.08448(16) 0.1261(3) 0.4327(3)
C107_4 C 0.0886(2) 0.1746(4) 0.0119(3)
C110_4 C 0.1801(2) 0.1064(5) 0.3842(4)
C118_4 C 0.01739(17) 0.1789(3) 0.3611(3)
C123_4 C 0.0817(2) 0.1604(4) 0.3914(4)
H70_4 H 0.1025 0.1673 0.3873
C130_4 C 0.1647(3) 0.1174(4) 0.3169(5)
C135_4 C 0.0545(2) 0.1182(5) 0.4391(5)
H78_4 H 0.0557 0.0930 0.4666
C138_4 C 0.0478(2) 0.1858(4) 0.3544(5)
H81_4 H 0.0457 0.2083 0.3240
C142_4 C 0.1192(3) 0.1525(6) 0.1327(4)
C145_4 C 0.1363(4) 0.1395(7) 0.1983(5)
C146_4 C 0.1043(3) 0.2125(5) 0.0560(4)
H87_4 H 0.1040 0.2471 0.0436
C147_4 C 0.1487(4) 0.0792(6) 0.2824(5)
H88_4 H 0.1449 0.0460 0.2940
C148_4 C 0.1366(5) 0.0966(6) 0.2187(5)
H89_4 H 0.1279 0.0694 0.1901
C150_4 C 0.0880(3) 0.1235(5) 0.0269(4)
C151_4 C 0.0224(2) 0.1467(5) 0.4061(5)
H92_4 H 0.0033 0.1437 0.4151
C153_4 C 0.1200(4) 0.2032(6) 0.1159(4)
H94_4 H 0.1310 0.2302 0.1446
C155_4 C 0.1699(5) 0.1679(6) 0.3050(5)
H96_4 H 0.1835 0.1929 0.3351
C156_4 C 0.1518(6) 0.1786(6) 0.2401(6)
H97_4 H 0.1510 0.2131 0.2270
O36_4 O 0.20304(10) 0.06154(16) 0.59072(15)
C157_4 C 0.1019(4) 0.1090(7) 0.0857(5)
H98_4 H 0.1009 0.0742 0.0966
O40_2 O 0.15092(12) 0.05990(19) 0.64289(18)
O50_2 O 0.20144(12) 0.10614(19) 0.69994(19)
H99_3 H 0.0863536 0.0313669 0.575883
H100_3 H 0.0726902 -5.55112e-17 0.514108
H101_3 H 0.374996 0.0313669 0.611234
H102_3 H 0.389833 -5.55112e-17 0.673336
C83_4 C 0.15658(17) 0.1005(3) 0.7289(3)
C84_4 C 0.17549(19) 0.1333(3) 0.7763(3)
H51_4 H 0.1976 0.1495 0.7827
C85_4 C 0.13062(18) 0.1200(3) 0.8061(3)
C88_4 C 0.12423(18) 0.0772(3) 0.7191(3)
H52_4 H 0.1110 0.0547 0.6859
N3_4 N 0.07271(15) 0.1898(3) 0.9507(2)
C91_4 C 0.07729(17) 0.1402(3) 0.8216(3)
H53_4 H 0.0608 0.1346 0.7802
C92_4 C 0.16271(17) 0.1433(3) 0.8151(3)
H54_4 H 0.1760 0.1661 0.8479
C93_4 C 0.11106(17) 0.0865(3) 0.7578(3)
H55_4 H 0.0890 0.0703 0.7513
C94_4 C 0.12421(17) 0.1581(3) 0.9414(3)
H56_4 H 0.1403 0.1625 0.9832
C95_4 C 0.11541(17) 0.1327(3) 0.8459(3)
C96_4 C 0.13845(18) 0.1417(3) 0.9058(3)
H57_4 H 0.1644 0.1367 0.9233
C98_4 C 0.08670(17) 0.1679(3) 0.9157(3)
C99_4 C 0.03731(17) 0.2576(3) 0.8804(3)
H58_4 H 0.0553 0.2585 0.8685
C101_4 C 0.06371(18) 0.1555(3) 0.8566(3)
H60_4 H 0.0377 0.1576 0.8397
C105_4 C 0.04253(18) 0.2242(3) 0.9249(3)
C113_4 C 0.00715(17) 0.2897(3) 0.8523(3)
H64_4 H 0.0048 0.3124 0.8219
C131_4 C 0.0171(2) 0.2257(4) 0.9432(3)
H75_4 H 0.0206 0.2048 0.9757
H91_4 H 0.0780 0.0979 0.9964
C158_4 C 0.17072(19) 0.0879(3) 0.6881(3)
Th1_3 Th 0.16022(2) 1.0000 0.57913(2)
O1_6 O 0.24453(14) 1.0000 0.5306(2)
O2_6 O 0.21924(14) 1.0000 0.6855(2)
O3_6 O 0.28428(15) 1.0000 0.6869(2)
O4_4 O 0.11928(11) 0.93576(19) 0.50698(18)
O5_4 O 0.27051(11) 0.91821(16) 0.60681(17)
O7_4 O 0.21961(14) 0.83231(18) 0.5472(2)
O9_4 O 0.14771(11) 0.88966(19) 0.46965(19)
O10_4 O 0.24130(14) 0.83163(19) 0.6460(2)
O11_4 O 0.18111(13) 0.9398(2) 0.40183(19)
O13_6 O 0.37147(18) 1.0000 0.6298(3)
O16_4 O 0.19011(18) 0.8564(3) 0.4206(2)
C1_4 C 0.1183(2) 0.9035(3) 0.4707(3)
C2_4 C 0.2318(2) 0.8108(4) 0.5972(4)
H1_4 H 0.2339 0.7742 0.5977
C3_4 C 0.08448(16) 0.8739(3) 0.4327(3)
C28_4 C 0.0886(2) 0.8254(4) 0.0119(3)
C31_4 C 0.1801(2) 0.8936(5) 0.3842(4)
C39_4 C 0.01739(17) 0.8211(3) 0.3611(3)
C44_4 C 0.0817(2) 0.8396(4) 0.3914(4)
H21_4 H 0.1025 0.8327 0.3873
C51_4 C 0.1647(3) 0.8826(4) 0.3169(5)
C56_4 C 0.0545(2) 0.8818(5) 0.4391(5)
H29_4 H 0.0557 0.9070 0.4666
C59_4 C 0.0478(2) 0.8142(4) 0.3544(5)
H32_4 H 0.0457 0.7917 0.3240
C63_4 C 0.1192(3) 0.8475(6) 0.1327(4)
C66_4 C 0.1363(4) 0.8605(7) 0.1983(5)
C67_4 C 0.1043(3) 0.7875(5) 0.0560(4)
H38_4 H 0.1040 0.7529 0.0436
C68_4 C 0.1487(4) 0.9208(6) 0.2824(5)
H39_4 H 0.1449 0.9540 0.2940
C69_4 C 0.1366(5) 0.9034(6) 0.2187(5)
H40_4 H 0.1279 0.9306 0.1901
C71_4 C 0.0880(3) 0.8765(5) 0.0269(4)
C72_4 C 0.0224(2) 0.8533(5) 0.4061(5)
H43_4 H 0.0033 0.8563 0.4151
C74_4 C 0.1200(4) 0.7968(6) 0.1159(4)
H45_4 H 0.1310 0.7698 0.1446
C76_4 C 0.1699(5) 0.8321(6) 0.3050(5)
H47_4 H 0.1835 0.8071 0.3351
C77_4 C 0.1518(6) 0.8214(6) 0.2401(6)
H48_4 H 0.1510 0.7869 0.2270
O18_4 O 0.20304(10) 0.93846(16) 0.59072(15)
C78_4 C 0.1019(4) 0.8910(7) 0.0857(5)
H49_4 H 0.1009 0.9258 0.0966
O19_6 O 0.17107(14) 1.0000 0.4911(2)
O22_6 O 0.09038(18) 1.0000 0.5579(3)
O39_2 O 0.15092(12) 0.94010(19) 0.64289(18)
O49_2 O 0.20144(12) 0.89386(19) 0.69994(19)
H100_4 H 0.0726902 1 0.514108
H102_4 H 0.389833 1 0.673336
C4_4 C 0.15658(17) 0.8995(3) 0.7289(3)
C5_4 C 0.17549(19) 0.8667(3) 0.7763(3)
H2_4 H 0.1976 0.8505 0.7827
C6_4 C 0.13062(18) 0.8800(3) 0.8061(3)
C9_4 C 0.12423(18) 0.9228(3) 0.7191(3)
H3_4 H 0.1110 0.9453 0.6859
N1_4 N 0.07271(15) 0.8102(3) 0.9507(2)
C12_4 C 0.07729(17) 0.8598(3) 0.8216(3)
H4_4 H 0.0608 0.8654 0.7802
C13_4 C 0.16271(17) 0.8567(3) 0.8151(3)
H5_4 H 0.1760 0.8339 0.8479
C14_4 C 0.11106(17) 0.9135(3) 0.7578(3)
H6_4 H 0.0890 0.9297 0.7513
C15_4 C 0.12421(17) 0.8419(3) 0.9414(3)
H7_4 H 0.1403 0.8375 0.9832
C16_4 C 0.11541(17) 0.8673(3) 0.8459(3)
C17_4 C 0.13845(18) 0.8583(3) 0.9058(3)
H8_4 H 0.1644 0.8633 0.9233
C19_4 C 0.08670(17) 0.8321(3) 0.9157(3)
C20_4 C 0.03731(17) 0.7424(3) 0.8804(3)
H9_4 H 0.0553 0.7415 0.8685
C22_4 C 0.06371(18) 0.8445(3) 0.8566(3)
H11_4 H 0.0377 0.8424 0.8397
C26_4 C 0.04253(18) 0.7758(3) 0.9249(3)
C34_4 C 0.00715(17) 0.7103(3) 0.8523(3)
H15_4 H 0.0048 0.6876 0.8219
C52_4 C 0.0171(2) 0.7743(4) 0.9432(3)
H26_4 H 0.0206 0.7952 0.9757
H42_4 H 0.0780 0.9021 0.9964
C79_4 C 0.17072(19) 0.9121(3) 0.6881(3)
C89_4 C 0.7904(2) 0.4128(3) 0.5009(3)
C100_4 C 0.87264(18) 0.2762(3) 0.1365(3)
H59_4 H 0.8858 0.2446 0.1507
C102_4 C 0.85750(18) 0.2912(3) 0.0770(3)
H61_4 H 0.8608 0.2694 0.0508
C103_4 C 0.80506(19) 0.3946(3) 0.4623(3)
N4_4 N 0.88395(19) 0.2955(3) 0.2356(2)
C104_4 C 0.98297(17) 0.2087(3) 0.3259(3)
C111_4 C 0.9165(2) 0.2645(4) 0.2643(3)
C112_4 C 0.8380(2) 0.3364(3) 0.0548(3)
C117_4 C 0.7839(2) 0.3616(4) 0.4148(3)
H66_4 H 0.7605 0.3500 0.4077
C119_4 C 0.8678(2) 0.3095(4) 0.1751(3)
C121_4 C 0.9794(2) 0.2499(3) 0.2901(3)
H68_4 H 0.9998 0.2590 0.2857
C122_4 C 0.9472(2) 0.2790(3) 0.2600(3)
H69_4 H 0.9460 0.3081 0.2368
C125_4 C 0.95125(18) 0.1945(3) 0.3284(3)
H72_4 H 0.9524 0.1656 0.3518
C126_4 C 0.8380(2) 0.4117(4) 0.4716(4)
H73_4 H 0.8526 0.4343 0.5041
C128_4 C 0.8302(3) 0.3634(4) 0.3867(3)
C129_4 C 0.8692(2) 0.3128(4) 0.2712(3)
C132_4 C 0.8472(3) 0.3522(4) 0.1523(3)
H76_4 H 0.8428 0.3737 0.1777
C133_4 C 0.8444(2) 0.3467(4) 0.3466(3)
C134_4 C 0.91880(19) 0.2219(3) 0.2974(3)
H77_4 H 0.8977 0.2112 0.2990
H79_4 H 0.8238 0.4292 0.0025
C137_4 C 0.7963(3) 0.3456(4) 0.3780(4)
H80_4 H 0.7819 0.3222 0.3464
C139_4 C 0.8318(3) 0.3665(4) 0.0916(3)
H82_4 H 0.8172 0.3969 0.0767
C141_4 C 0.8807(3) 0.3491(4) 0.3646(4)
H84_4 H 0.8980 0.3614 0.4035
C143_4 C 0.8930(3) 0.3338(4) 0.3262(4)
H85_4 H 0.9183 0.3380 0.3384
C144_4 C 0.8508(3) 0.3963(5) 0.4332(4)
H86_4 H 0.8738 0.4088 0.4398
C152_4 C 0.8335(3) 0.3111(6) 0.2533(4)
H93_4 H 0.8165 0.2976 0.2149
C154_4 C 0.8207(3) 0.3283(6) 0.2892(4)
H95_4 H 0.7949 0.3276 0.2743
C86_4 C 0.84467(17) 0.4062(3) 0.7270(3)
C87_4 C 0.78106(19) 0.3907(3) 0.8081(3)
C90_4 C 0.88051(17) 0.3785(3) 0.7656(3)
C97_4 C 0.79546(19) 0.3772(3) 0.8715(3)
C106_4 C 0.94601(19) 0.3210(3) 0.8342(3)
C108_4 C 0.8000(2) 0.3264(3) 0.8890(3)
H62_4 H 0.7940 0.3001 0.8600
C109_4 C 0.8046(3) 0.4155(3) 0.9140(3)
H63_4 H 0.8017 0.4508 0.9024
C114_4 C 0.88357(19) 0.3421(3) 0.8054(4)
H65_4 H 0.8629 0.3356 0.8099
C115_4 C 0.8230(2) 0.3509(3) 0.9913(3)
C116_4 C 0.98015(18) 0.2894(3) 0.8676(3)
C120_4 C 0.9863(2) 0.2577(4) 0.9143(4)
H67_4 H 0.9688 0.2577 0.9272
C124_4 C 0.8131(2) 0.3123(3) 0.9481(3)
H71_4 H 0.8153 0.2768 0.9590
C127_4 C 0.9157(2) 0.3141(4) 0.8398(4)
H74_4 H 0.9168 0.2896 0.8678
C136_4 C 0.8180(3) 0.4026(3) 0.9738(3)
C140_4 C 0.9116(3) 0.3894(5) 0.7632(5)
H83_4 H 0.9106 0.4164 0.7377
C149_4 C 0.9448(3) 0.3621(5) 0.7969(5)
H90_4 H 0.9661 0.3709 0.7950
C10_4 C 0.7904(2) 0.5872(3) 0.5009(3)
C21_4 C 0.87264(18) 0.7238(3) 0.1365(3)
H10_4 H 0.8858 0.7554 0.1507
C23_4 C 0.85750(18) 0.7088(3) 0.0770(3)
H12_4 H 0.8608 0.7306 0.0508
C24_4 C 0.80506(19) 0.6054(3) 0.4623(3)
N2_4 N 0.88395(19) 0.7045(3) 0.2356(2)
C25_4 C 0.98297(17) 0.7913(3) 0.3259(3)
C32_4 C 0.9165(2) 0.7355(4) 0.2643(3)
C33_4 C 0.8380(2) 0.6636(3) 0.0548(3)
C38_4 C 0.7839(2) 0.6384(4) 0.4148(3)
H17_4 H 0.7605 0.6500 0.4077
C40_4 C 0.8678(2) 0.6905(4) 0.1751(3)
C42_4 C 0.9794(2) 0.7501(3) 0.2901(3)
H19_4 H 0.9998 0.7410 0.2857
C43_4 C 0.9472(2) 0.7210(3) 0.2600(3)
H20_4 H 0.9460 0.6919 0.2368
C46_4 C 0.95125(18) 0.8055(3) 0.3284(3)
H23_4 H 0.9524 0.8344 0.3518
C47_4 C 0.8380(2) 0.5883(4) 0.4716(4)
H24_4 H 0.8526 0.5657 0.5041
C49_4 C 0.8302(3) 0.6366(4) 0.3867(3)
C50_4 C 0.8692(2) 0.6872(4) 0.2712(3)
C53_4 C 0.8472(3) 0.6478(4) 0.1523(3)
H27_4 H 0.8428 0.6263 0.1777
C54_4 C 0.8444(2) 0.6533(4) 0.3466(3)
C55_4 C 0.91880(19) 0.7781(3) 0.2974(3)
H28_4 H 0.8977 0.7888 0.2990
H30_4 H 0.8238 0.5708 0.0025
C58_4 C 0.7963(3) 0.6544(4) 0.3780(4)
H31_4 H 0.7819 0.6778 0.3464
C60_4 C 0.8318(3) 0.6335(4) 0.0916(3)
H33_4 H 0.8172 0.6031 0.0767
C62_4 C 0.8807(3) 0.6509(4) 0.3646(4)
H35_4 H 0.8980 0.6386 0.4035
C64_4 C 0.8930(3) 0.6662(4) 0.3262(4)
H36_4 H 0.9183 0.6620 0.3384
C65_4 C 0.8508(3) 0.6037(5) 0.4332(4)
H37_4 H 0.8738 0.5912 0.4398
C73_4 C 0.8335(3) 0.6889(6) 0.2533(4)
H44_4 H 0.8165 0.7024 0.2149
C75_4 C 0.8207(3) 0.6717(6) 0.2892(4)
H46_4 H 0.7949 0.6724 0.2743
C7_4 C 0.84467(17) 0.5938(3) 0.7270(3)
C8_4 C 0.78106(19) 0.6093(3) 0.8081(3)
C11_4 C 0.88051(17) 0.6215(3) 0.7656(3)
C18_4 C 0.79546(19) 0.6228(3) 0.8715(3)
C27_4 C 0.94601(19) 0.6790(3) 0.8342(3)
C29_4 C 0.8000(2) 0.6736(3) 0.8890(3)
H13_4 H 0.7940 0.6999 0.8600
C30_4 C 0.8046(3) 0.5845(3) 0.9140(3)
H14_4 H 0.8017 0.5492 0.9024
C35_4 C 0.88357(19) 0.6579(3) 0.8054(4)
H16_4 H 0.8629 0.6644 0.8099
C36_4 C 0.8230(2) 0.6491(3) 0.9913(3)
C37_4 C 0.98015(18) 0.7106(3) 0.8676(3)
C41_4 C 0.9863(2) 0.7423(4) 0.9143(4)
H18_4 H 0.9688 0.7423 0.9272
C45_4 C 0.8131(2) 0.6877(3) 0.9481(3)
H22_4 H 0.8153 0.7232 0.9590
C48_4 C 0.9157(2) 0.6859(4) 0.8398(4)
H25_4 H 0.9168 0.7104 0.8678
C57_4 C 0.8180(3) 0.5974(3) 0.9738(3)
C61_4 C 0.9116(3) 0.6106(5) 0.7632(5)
H34_4 H 0.9106 0.5836 0.7377
C70_4 C 0.9448(3) 0.6379(5) 0.7969(5)
H41_4 H 0.9661 0.6291 0.7950
H99_4 H 0.0863536 0.968633 0.575883
H101_4 H 0.374996 0.968633 0.611234
loop_
_geom_bond_atom_site_label_1
_geom_bond_atom_site_label_2
_geom_bond_site_symmetry_1
_geom_bond_site_symmetry_2
O6 C79 1_555 1_555
O8 C8 1_555 1_555
O12 C8 1_555 1_555
O17 C79 1_555 1_555
C4 C5 1_555 1_555
C5 H2 1_555 1_555
C6 C13 1_555 1_555
C7 C11 1_555 1_555
C8 C18 1_555 1_555
C9 C4 1_555 1_555
H3 C9 1_555 1_555
N1 C19 1_555 1_555
C11 C35 1_555 1_555
C12 H4 1_555 1_555
C13 C5 1_555 1_555
H5 C13 1_555 1_555
C14 C6 1_555 1_555
H6 C14 1_555 1_555
C15 H7 1_555 1_555
C16 C6 1_555 1_555
C17 C15 1_555 1_555
H8 C17 1_555 1_555
C18 C29 1_555 1_555
C19 C15 1_555 1_555
C20 H9 1_555 1_555
C22 C12 1_555 1_555
H11 C22 1_555 1_555
C26 N1 1_555 1_555
C27 C37 1_555 1_555
C29 H13 1_555 1_555
C30 C18 1_555 1_555
H14 C30 1_555 1_555
C34 C20 1_555 1_555
H15 C34 1_555 1_555
C35 H16 1_555 1_555
C37 C34 1_555 1_555
C41 C37 1_555 1_555
H18 C41 1_555 1_555
C45 C29 1_555 1_555
H22 C45 1_555 1_555
C48 C27 1_555 1_555
H25 C48 1_555 1_555
C52 C26 1_555 1_555
H26 C52 1_555 1_555
C57 C30 1_555 1_555
C61 C11 1_555 1_555
H34 C61 1_555 1_555
C70 C27 1_555 1_555
H41 C70 1_555 1_555
O20 C7 1_555 1_555
O21 C7 1_555 1_555
C79 C4 1_555 1_555
O25 C158 1_555 1_555
O27 C87 1_555 1_555
O31 C87 1_555 1_555
O35 C158 1_555 1_555
C83 C84 1_555 1_555
C84 H51 1_555 1_555
C85 C92 1_555 1_555
C86 C90 1_555 1_555
C87 C97 1_555 1_555
C88 C83 1_555 1_555
H52 C88 1_555 1_555
N3 C98 1_555 1_555
C90 C114 1_555 1_555
C91 H53 1_555 1_555
C92 C84 1_555 1_555
H54 C92 1_555 1_555
C93 C85 1_555 1_555
H55 C93 1_555 1_555
C94 H56 1_555 1_555
C95 C85 1_555 1_555
C96 C94 1_555 1_555
H57 C96 1_555 1_555
C97 C108 1_555 1_555
C98 C94 1_555 1_555
C99 H58 1_555 1_555
C101 C91 1_555 1_555
H60 C101 1_555 1_555
C105 N3 1_555 1_555
C106 C116 1_555 1_555
C108 H62 1_555 1_555
C109 C97 1_555 1_555
H63 C109 1_555 1_555
C113 C99 1_555 1_555
H64 C113 1_555 1_555
C114 H65 1_555 1_555
C116 C113 1_555 1_555
C120 C116 1_555 1_555
H67 C120 1_555 1_555
C124 C108 1_555 1_555
H71 C124 1_555 1_555
C127 C106 1_555 1_555
H74 C127 1_555 1_555
C131 C105 1_555 1_555
H75 C131 1_555 1_555
C136 C109 1_555 1_555
C140 C90 1_555 1_555
H83 C140 1_555 1_555
C149 C106 1_555 1_555
H90 C149 1_555 1_555
O37 C86 1_555 1_555
O38 C86 1_555 1_555
C158 C83 1_555 1_555
Th7 O6 1_555 1_555
Th8 O17 1_555 1_555
Th9 O27 1_555 1_555
Th10 O35 1_555 1_555
Th11 O8 1_555 1_555
Th17 O20 1_555 1_555
Th17_2 O37 1_555 1_555
O12 Th11 1_555 1_555
C9 C14 1_555 1_555
C12 C16 1_555 1_555
C16 C17 1_555 1_555
C19 C22 1_555 1_555
C20 C26 1_555 1_555
C35 C48 1_555 1_555
C36 C45 1_555 1_555
C36 C57 1_555 1_555
C41 C52 1_555 1_555
C61 C70 1_555 1_555
O21 Th11 1_555 1_555
O25 Th7 1_555 1_555
O31 Th9 1_555 1_555
C88 C93 1_555 1_555
C91 C95 1_555 1_555
C95 C96 1_555 1_555
C98 C101 1_555 1_555
C99 C105 1_555 1_555
C114 C127 1_555 1_555
C115 C124 1_555 1_555
C115 C136 1_555 1_555
C120 C131 1_555 1_555
C140 C149 1_555 1_555
O38 Th9 1_555 1_555
Th7 O2 1_555 1_555
Th8 O2 1_555 1_555
Th3 O1 1_555 1_555
Th4 O1 1_555 1_555
O1 Th6 1_555 1_555
O2 Th10 1_555 1_555
O3 Th8 1_555 1_555
O4 Th7 1_555 1_555
O5 Th8 1_555 1_555
O7 Th3 1_555 1_555
O9 Th3 1_555 1_555
O10 Th8 1_555 1_555
O11 Th3 1_555 1_555
O13 Th4 1_555 1_555
O14 C10 1_555 1_555
O15 C10 1_555 1_555
O16 Th3 1_555 1_555
C1 O4 1_555 1_555
C2 O7 1_555 1_555
H1 C2 1_555 1_555
C3 C1 1_555 1_555
C10 C24 1_555 1_555
C21 H10 1_555 1_555
C23 C21 1_555 1_555
H12 C23 1_555 1_555
C24 C38 1_555 1_555
N2 C32 1_555 1_555
C25 C39 1_555 1_555
C31 O11 1_555 1_555
C32 C43 1_555 1_555
C33 C23 1_555 1_555
C38 H17 1_555 1_555
C39 C59 1_555 1_555
C40 C21 1_555 1_555
C42 C25 1_555 1_555
H19 C42 1_555 1_555
C43 C42 1_555 1_555
H20 C43 1_555 1_555
C44 C3 1_555 1_555
H21 C44 1_555 1_555
C46 C25 1_555 1_555
H23 C46 1_555 1_555
C47 C24 1_555 1_555
H24 C47 1_555 1_555
C49 C54 1_555 1_555
C50 N2 1_555 1_555
C51 C31 1_555 1_555
C53 C40 1_555 1_555
H27 C53 1_555 1_555
C54 C62 1_555 1_555
C55 C32 1_555 1_555
H28 C55 1_555 1_555
C56 C3 1_555 1_555
H29 C56 1_555 1_555
C58 C38 1_555 1_555
H31 C58 1_555 1_555
C59 C44 1_555 1_555
H32 C59 1_555 1_555
C60 C33 1_555 1_555
H33 C60 1_555 1_555
C62 H35 1_555 1_555
C63 C66 1_555 1_555
C64 C50 1_555 1_555
H36 C64 1_555 1_555
C65 C47 1_555 1_555
H37 C65 1_555 1_555
C66 C69 1_555 1_555
C67 C28 1_555 1_555
H38 C67 1_555 1_555
C68 C51 1_555 1_555
H39 C68 1_555 1_555
C69 C68 1_555 1_555
H40 C69 1_555 1_555
C71 C28 1_555 1_555
C72 C39 1_555 1_555
H43 C72 1_555 1_555
C73 C50 1_555 1_555
H44 C73 1_555 1_555
C74 C63 1_555 1_555
H45 C74 1_555 1_555
C75 C54 1_555 1_555
H46 C75 1_555 1_555
C76 C51 1_555 1_555
H47 C76 1_555 1_555
C77 C66 1_555 1_555
H48 C77 1_555 1_555
O18 Th7 1_555 1_555
C78 C63 1_555 1_555
H49 C78 1_555 1_555
O19 Th7 1_555 1_555
O22 Th7 1_555 1_555
Th10 O3 1_555 1_555
Th6 O19 1_555 1_555
O23 Th7 1_555 1_555
O24 Th4 1_555 1_555
O26 Th6 1_555 1_555
O28 Th6 1_555 1_555
O29 Th10 1_555 1_555
O30 Th6 1_555 1_555
O32 C89 1_555 1_555
O33 C89 1_555 1_555
O34 Th6 1_555 1_555
C80 O23 1_555 1_555
C81 O26 1_555 1_555
H50 C81 1_555 1_555
C82 C80 1_555 1_555
C89 C103 1_555 1_555
C100 H59 1_555 1_555
C102 C100 1_555 1_555
H61 C102 1_555 1_555
C103 C117 1_555 1_555
N4 C111 1_555 1_555
C104 C118 1_555 1_555
C110 O30 1_555 1_555
C111 C122 1_555 1_555
C112 C102 1_555 1_555
C117 H66 1_555 1_555
C118 C138 1_555 1_555
C119 C100 1_555 1_555
C121 C104 1_555 1_555
H68 C121 1_555 1_555
C122 C121 1_555 1_555
H69 C122 1_555 1_555
C123 C82 1_555 1_555
H70 C123 1_555 1_555
C125 C104 1_555 1_555
H72 C125 1_555 1_555
C126 C103 1_555 1_555
H73 C126 1_555 1_555
C128 C133 1_555 1_555
C129 N4 1_555 1_555
C130 C110 1_555 1_555
C132 C119 1_555 1_555
H76 C132 1_555 1_555
C133 C141 1_555 1_555
C134 C111 1_555 1_555
H77 C134 1_555 1_555
C135 C82 1_555 1_555
H78 C135 1_555 1_555
C137 C117 1_555 1_555
H80 C137 1_555 1_555
C138 C123 1_555 1_555
H81 C138 1_555 1_555
C139 C112 1_555 1_555
H82 C139 1_555 1_555
C141 H84 1_555 1_555
C142 C145 1_555 1_555
C143 C129 1_555 1_555
H85 C143 1_555 1_555
C144 C126 1_555 1_555
H86 C144 1_555 1_555
C145 C148 1_555 1_555
C146 C107 1_555 1_555
H87 C146 1_555 1_555
C147 C130 1_555 1_555
H88 C147 1_555 1_555
C148 C147 1_555 1_555
H89 C148 1_555 1_555
C150 C107 1_555 1_555
C151 C118 1_555 1_555
H92 C151 1_555 1_555
C152 C129 1_555 1_555
H93 C152 1_555 1_555
C153 C142 1_555 1_555
H94 C153 1_555 1_555
C154 C133 1_555 1_555
H95 C154 1_555 1_555
C155 C130 1_555 1_555
H96 C155 1_555 1_555
C156 C145 1_555 1_555
H97 C156 1_555 1_555
O36 Th7 1_555 1_555
C157 C142 1_555 1_555
H98 C157 1_555 1_555
Th12 O33 1_555 1_555
Th13 O15 1_555 1_555
Th17 O14 1_555 1_555
Th17_2 O32 1_555 1_555
O41 Th10 1_555 1_555
O42 Th8 1_555 1_555
O43 Th10 1_555 1_555
O44 Th8 1_555 1_555
O45 Th4 1_555 1_555
O46 Th4 1_555 1_555
O47 Th6 1_555 1_555
O48 Th3 1_555 1_555
O51 Th4 1_555 1_555
O52 Th4 1_555 1_555
O53 Th10 1_555 1_555
O54 Th8 1_555 1_555
Th8 O18 1_555 1_555
Th3 O5 1_555 1_555
Th3 O18 1_555 1_555
Th3 O19 1_555 1_555
Th4 O3 1_555 1_555
Th4 O5 1_555 1_555
O9 C1 1_555 1_555
O10 C2 1_555 1_555
O16 C31 1_555 1_555
N2 C40 1_555 1_555
C46 C55 1_555 1_555
C49 C58 1_555 1_555
C49 C65 1_555 1_555
C53 C60 1_555 1_555
C56 C72 1_555 1_555
C62 C64 1_555 1_555
C67 C74 1_555 1_555
C71 C78 1_555 1_555
C73 C75 1_555 1_555
C76 C77 1_555 1_555
Th10 O24 1_555 1_555
Th10 O36 1_555 1_555
Th6 O24 1_555 1_555
Th6 O36 1_555 1_555
O28 C80 1_555 1_555
O29 C81 1_555 1_555
O34 C110 1_555 1_555
N4 C119 1_555 1_555
C125 C134 1_555 1_555
C128 C137 1_555 1_555
C128 C144 1_555 1_555
C132 C139 1_555 1_555
C135 C151 1_555 1_555
C141 C143 1_555 1_555
C146 C153 1_555 1_555
C150 C157 1_555 1_555
C152 C154 1_555 1_555
C155 C156 1_555 1_555
O42 C87_2 1_555 1_555
O44 C87_2 1_555 1_555
C86_2 C90_2 1_555 1_555
C87_2 C97_2 1_555 1_555
C90_2 C114_2 1_555 1_555
C97_2 C108_2 1_555 1_555
C106_2 C116_2 1_555 1_555
C108_2 H62_2 1_555 1_555
C109_2 C97_2 1_555 1_555
H63_2 C109_2 1_555 1_555
C114_2 H65_2 1_555 1_555
C120_2 C116_2 1_555 1_555
H67_2 C120_2 1_555 1_555
C124_2 C108_2 1_555 1_555
H71_2 C124_2 1_555 1_555
C127_2 C106_2 1_555 1_555
H74_2 C127_2 1_555 1_555
C136_2 C109_2 1_555 1_555
C140_2 C90_2 1_555 1_555
H83_2 C140_2 1_555 1_555
C149_2 C106_2 1_555 1_555
H90_2 C149_2 1_555 1_555
O52 C86_2 1_555 1_555
O54 C86_2 1_555 1_555
C114_2 C127_2 1_555 1_555
C115_2 C124_2 1_555 1_555
C115_2 C136_2 1_555 1_555
C140_2 C149_2 1_555 1_555
O46 C89_2 1_555 1_555
O48 C89_2 1_555 1_555
C89_2 C103_2 1_555 1_555
C100_2 H59_2 1_555 1_555
C102_2 C100_2 1_555 1_555
H61_2 C102_2 1_555 1_555
C103_2 C117_2 1_555 1_555
N4_2 C111_2 1_555 1_555
C111_2 C122_2 1_555 1_555
C112_2 C102_2 1_555 1_555
C117_2 H66_2 1_555 1_555
C119_2 C100_2 1_555 1_555
C121_2 C104_2 1_555 1_555
H68_2 C121_2 1_555 1_555
C122_2 C121_2 1_555 1_555
H69_2 C122_2 1_555 1_555
C125_2 C104_2 1_555 1_555
H72_2 C125_2 1_555 1_555
C126_2 C103_2 1_555 1_555
H73_2 C126_2 1_555 1_555
C128_2 C133_2 1_555 1_555
C129_2 N4_2 1_555 1_555
C132_2 C119_2 1_555 1_555
H76_2 C132_2 1_555 1_555
C133_2 C141_2 1_555 1_555
C134_2 C111_2 1_555 1_555
H77_2 C134_2 1_555 1_555
C137_2 C117_2 1_555 1_555
H80_2 C137_2 1_555 1_555
C139_2 C112_2 1_555 1_555
H82_2 C139_2 1_555 1_555
C141_2 H84_2 1_555 1_555
C143_2 C129_2 1_555 1_555
H85_2 C143_2 1_555 1_555
C144_2 C126_2 1_555 1_555
H86_2 C144_2 1_555 1_555
C152_2 C129_2 1_555 1_555
H93_2 C152_2 1_555 1_555
C154_2 C133_2 1_555 1_555
H95_2 C154_2 1_555 1_555
N4_2 C119_2 1_555 1_555
C125_2 C134_2 1_555 1_555
C128_2 C137_2 1_555 1_555
C128_2 C144_2 1_555 1_555
C132_2 C139_2 1_555 1_555
C141_2 C143_2 1_555 1_555
C152_2 C154_2 1_555 1_555
O41 C8_2 1_555 1_555
O43 C8_2 1_555 1_555
C7_2 C11_2 1_555 1_555
C8_2 C18_2 1_555 1_555
C11_2 C35_2 1_555 1_555
C18_2 C29_2 1_555 1_555
C27_2 C37_2 1_555 1_555
C29_2 H13_2 1_555 1_555
C30_2 C18_2 1_555 1_555
H14_2 C30_2 1_555 1_555
C35_2 H16_2 1_555 1_555
C41_2 C37_2 1_555 1_555
H18_2 C41_2 1_555 1_555
C45_2 C29_2 1_555 1_555
H22_2 C45_2 1_555 1_555
C48_2 C27_2 1_555 1_555
H25_2 C48_2 1_555 1_555
C57_2 C30_2 1_555 1_555
C61_2 C11_2 1_555 1_555
H34_2 C61_2 1_555 1_555
C70_2 C27_2 1_555 1_555
H41_2 C70_2 1_555 1_555
O51 C7_2 1_555 1_555
O53 C7_2 1_555 1_555
C35_2 C48_2 1_555 1_555
C36_2 C45_2 1_555 1_555
C36_2 C57_2 1_555 1_555
C61_2 C70_2 1_555 1_555
O45 C10_2 1_555 1_555
O47 C10_2 1_555 1_555
C10_2 C24_2 1_555 1_555
C21_2 H10_2 1_555 1_555
C23_2 C21_2 1_555 1_555
H12_2 C23_2 1_555 1_555
C24_2 C38_2 1_555 1_555
N2_2 C32_2 1_555 1_555
C32_2 C43_2 1_555 1_555
C33_2 C23_2 1_555 1_555
C38_2 H17_2 1_555 1_555
C40_2 C21_2 1_555 1_555
C42_2 C25_2 1_555 1_555
H19_2 C42_2 1_555 1_555
C43_2 C42_2 1_555 1_555
H20_2 C43_2 1_555 1_555
C46_2 C25_2 1_555 1_555
H23_2 C46_2 1_555 1_555
C47_2 C24_2 1_555 1_555
H24_2 C47_2 1_555 1_555
C49_2 C54_2 1_555 1_555
C50_2 N2_2 1_555 1_555
C53_2 C40_2 1_555 1_555
H27_2 C53_2 1_555 1_555
C54_2 C62_2 1_555 1_555
C55_2 C32_2 1_555 1_555
H28_2 C55_2 1_555 1_555
C58_2 C38_2 1_555 1_555
H31_2 C58_2 1_555 1_555
C60_2 C33_2 1_555 1_555
H33_2 C60_2 1_555 1_555
C62_2 H35_2 1_555 1_555
C64_2 C50_2 1_555 1_555
H36_2 C64_2 1_555 1_555
C65_2 C47_2 1_555 1_555
H37_2 C65_2 1_555 1_555
C73_2 C50_2 1_555 1_555
H44_2 C73_2 1_555 1_555
C75_2 C54_2 1_555 1_555
H46_2 C75_2 1_555 1_555
N2_2 C40_2 1_555 1_555
C46_2 C55_2 1_555 1_555
C49_2 C58_2 1_555 1_555
C49_2 C65_2 1_555 1_555
C53_2 C60_2 1_555 1_555
C62_2 C64_2 1_555 1_555
C73_2 C75_2 1_555 1_555
O25_2 C158_2 1_555 1_555
O35_2 C158_2 1_555 1_555
C83_2 C84_2 1_555 1_555
C84_2 H51_2 1_555 1_555
C85_2 C92_2 1_555 1_555
C88_2 C83_2 1_555 1_555
H52_2 C88_2 1_555 1_555
N3_2 C98_2 1_555 1_555
C91_2 H53_2 1_555 1_555
C92_2 C84_2 1_555 1_555
H54_2 C92_2 1_555 1_555
C93_2 C85_2 1_555 1_555
H55_2 C93_2 1_555 1_555
C94_2 H56_2 1_555 1_555
C95_2 C85_2 1_555 1_555
C96_2 C94_2 1_555 1_555
H57_2 C96_2 1_555 1_555
C98_2 C94_2 1_555 1_555
C99_2 H58_2 1_555 1_555
C101_2 C91_2 1_555 1_555
H60_2 C101_2 1_555 1_555
C105_2 N3_2 1_555 1_555
C113_2 C99_2 1_555 1_555
H64_2 C113_2 1_555 1_555
C131_2 C105_2 1_555 1_555
H75_2 C131_2 1_555 1_555
C158_2 C83_2 1_555 1_555
Th11 O35_2 1_555 1_555
O25_2 Th7_2 1_555 1_555
C88_2 C93_2 1_555 1_555
C91_2 C95_2 1_555 1_555
C95_2 C96_2 1_555 1_555
C98_2 C101_2 1_555 1_555
C99_2 C105_2 1_555 1_555
Th7_2 O2_2 1_555 1_555
Th17 O1_2 1_555 1_555
O1_2 Th13 1_555 1_555
O2_2 Th11 1_555 1_555
O13_2 Th17 1_555 1_555
O19_2 Th7_2 1_555 1_555
O22_2 Th7_2 1_555 1_555
Th11 O3_2 1_555 1_555
Th13 O19_2 1_555 1_555
O23_2 Th7_2 1_555 1_555
O24_2 Th17 1_555 1_555
O26_2 Th13 1_555 1_555
O28_2 Th13 1_555 1_555
O29_2 Th11 1_555 1_555
O30_2 Th13 1_555 1_555
O34_2 Th13 1_555 1_555
C80_2 O23_2 1_555 1_555
C81_2 O26_2 1_555 1_555
H50_2 C81_2 1_555 1_555
C82_2 C80_2 1_555 1_555
C110_2 O30_2 1_555 1_555
C118_2 C138_2 1_555 1_555
C123_2 C82_2 1_555 1_555
H70_2 C123_2 1_555 1_555
C130_2 C110_2 1_555 1_555
C135_2 C82_2 1_555 1_555
H78_2 C135_2 1_555 1_555
C138_2 C123_2 1_555 1_555
H81_2 C138_2 1_555 1_555
C142_2 C145_2 1_555 1_555
C145_2 C148_2 1_555 1_555
C146_2 C107_2 1_555 1_555
H87_2 C146_2 1_555 1_555
C147_2 C130_2 1_555 1_555
H88_2 C147_2 1_555 1_555
C148_2 C147_2 1_555 1_555
H89_2 C148_2 1_555 1_555
C150_2 C107_2 1_555 1_555
C151_2 C118_2 1_555 1_555
H92_2 C151_2 1_555 1_555
C153_2 C142_2 1_555 1_555
H94_2 C153_2 1_555 1_555
C155_2 C130_2 1_555 1_555
H96_2 C155_2 1_555 1_555
C156_2 C145_2 1_555 1_555
H97_2 C156_2 1_555 1_555
O36_2 Th7_2 1_555 1_555
C157_2 C142_2 1_555 1_555
H98_2 C157_2 1_555 1_555
Th17 O3_2 1_555 1_555
Th11 O24_2 1_555 1_555
Th11 O36_2 1_555 1_555
Th13 O24_2 1_555 1_555
Th13 O36_2 1_555 1_555
O28_2 C80_2 1_555 1_555
O29_2 C81_2 1_555 1_555
O34_2 C110_2 1_555 1_555
C135_2 C151_2 1_555 1_555
C146_2 C153_2 1_555 1_555
C150_2 C157_2 1_555 1_555
C155_2 C156_2 1_555 1_555
O22_2 H99 1_555 1_555
O22_2 H100 1_555 1_555
O13_2 H101 1_555 1_555
O13_2 H102 1_555 1_555
O6_2 C79_2 1_555 1_555
O17_2 C79_2 1_555 1_555
C4_2 C5_2 1_555 1_555
C5_2 H2_2 1_555 1_555
C6_2 C13_2 1_555 1_555
C9_2 C4_2 1_555 1_555
H3_2 C9_2 1_555 1_555
N1_2 C19_2 1_555 1_555
C12_2 H4_2 1_555 1_555
C13_2 C5_2 1_555 1_555
H5_2 C13_2 1_555 1_555
C14_2 C6_2 1_555 1_555
H6_2 C14_2 1_555 1_555
C15_2 H7_2 1_555 1_555
C16_2 C6_2 1_555 1_555
C17_2 C15_2 1_555 1_555
H8_2 C17_2 1_555 1_555
C19_2 C15_2 1_555 1_555
C20_2 H9_2 1_555 1_555
C22_2 C12_2 1_555 1_555
H11_2 C22_2 1_555 1_555
C26_2 N1_2 1_555 1_555
C34_2 C20_2 1_555 1_555
H15_2 C34_2 1_555 1_555
C52_2 C26_2 1_555 1_555
H26_2 C52_2 1_555 1_555
C79_2 C4_2 1_555 1_555
Th7_3 O6_2 1_555 1_555
Th9 O17_2 1_555 1_555
C9_2 C14_2 1_555 1_555
C12_2 C16_2 1_555 1_555
C16_2 C17_2 1_555 1_555
C19_2 C22_2 1_555 1_555
C20_2 C26_2 1_555 1_555
Th7_3 O2_3 1_555 1_555
Th9 O2_3 1_555 1_555
Th12 O1_3 1_555 1_555
Th17_2 O1_3 1_555 1_555
O3_3 Th9 1_555 1_555
O4_2 Th7_3 1_555 1_555
O5_2 Th9 1_555 1_555
O7_2 Th12 1_555 1_555
O9_2 Th12 1_555 1_555
O10_2 Th9 1_555 1_555
O11_2 Th12 1_555 1_555
O13_3 Th17_2 1_555 1_555
O16_2 Th12 1_555 1_555
C1_2 O4_2 1_555 1_555
C2_2 O7_2 1_555 1_555
H1_2 C2_2 1_555 1_555
C3_2 C1_2 1_555 1_555
C31_2 O11_2 1_555 1_555
C39_2 C59_2 1_555 1_555
C44_2 C3_2 1_555 1_555
H21_2 C44_2 1_555 1_555
C51_2 C31_2 1_555 1_555
C56_2 C3_2 1_555 1_555
H29_2 C56_2 1_555 1_555
C59_2 C44_2 1_555 1_555
H32_2 C59_2 1_555 1_555
C63_2 C66_2 1_555 1_555
C66_2 C69_2 1_555 1_555
C67_2 C28_2 1_555 1_555
H38_2 C67_2 1_555 1_555
C68_2 C51_2 1_555 1_555
H39_2 C68_2 1_555 1_555
C69_2 C68_2 1_555 1_555
H40_2 C69_2 1_555 1_555
C71_2 C28_2 1_555 1_555
C72_2 C39_2 1_555 1_555
H43_2 C72_2 1_555 1_555
C74_2 C63_2 1_555 1_555
H45_2 C74_2 1_555 1_555
C76_2 C51_2 1_555 1_555
H47_2 C76_2 1_555 1_555
C77_2 C66_2 1_555 1_555
H48_2 C77_2 1_555 1_555
O18_2 Th7_3 1_555 1_555
C78_2 C63_2 1_555 1_555
H49_2 C78_2 1_555 1_555
O19_3 Th7_3 1_555 1_555
O22_3 Th7_3 1_555 1_555
Th9 O18_2 1_555 1_555
Th12 O5_2 1_555 1_555
Th12 O18_2 1_555 1_555
Th12 O19_3 1_555 1_555
Th17_2 O3_3 1_555 1_555
Th17_2 O5_2 1_555 1_555
O9_2 C1_2 1_555 1_555
O10_2 C2_2 1_555 1_555
O16_2 C31_2 1_555 1_555
C56_2 C72_2 1_555 1_555
C67_2 C74_2 1_555 1_555
C71_2 C78_2 1_555 1_555
C76_2 C77_2 1_555 1_555
O22_3 H100_2 1_555 1_555
O13_3 H102_2 1_555 1_555
O22_3 H99_2 1_555 1_555
O13_3 H101_2 1_555 1_555
Th1 O2_4 1_555 1_555
Th2 O2_4 1_555 1_555
Th3_2 O1_4 1_555 1_555
Th4_2 O1_4 1_555 1_555
O1_4 Th6_2 1_555 1_555
O2_4 Th5 1_555 1_555
O3_4 Th2 1_555 1_555
O4_3 Th1 1_555 1_555
O5_3 Th2 1_555 1_555
O7_3 Th3_2 1_555 1_555
O9_3 Th3_2 1_555 1_555
O10_3 Th2 1_555 1_555
O11_3 Th3_2 1_555 1_555
O13_4 Th4_2 1_555 1_555
O14_2 C10_3 1_555 1_555
O15_2 C10_3 1_555 1_555
O16_3 Th3_2 1_555 1_555
C1_3 O4_3 1_555 1_555
C2_3 O7_3 1_555 1_555
H1_3 C2_3 1_555 1_555
C3_3 C1_3 1_555 1_555
C10_3 C24_3 1_555 1_555
C21_3 H10_3 1_555 1_555
C23_3 C21_3 1_555 1_555
H12_3 C23_3 1_555 1_555
C24_3 C38_3 1_555 1_555
N2_3 C32_3 1_555 1_555
C25_3 C39_3 1_555 1_555
C31_3 O11_3 1_555 1_555
C32_3 C43_3 1_555 1_555
C33_3 C23_3 1_555 1_555
C38_3 H17_3 1_555 1_555
C39_3 C59_3 1_555 1_555
C40_3 C21_3 1_555 1_555
C42_3 C25_3 1_555 1_555
H19_3 C42_3 1_555 1_555
C43_3 C42_3 1_555 1_555
H20_3 C43_3 1_555 1_555
C44_3 C3_3 1_555 1_555
H21_3 C44_3 1_555 1_555
C46_3 C25_3 1_555 1_555
H23_3 C46_3 1_555 1_555
C47_3 C24_3 1_555 1_555
H24_3 C47_3 1_555 1_555
C49_3 C54_3 1_555 1_555
C50_3 N2_3 1_555 1_555
C51_3 C31_3 1_555 1_555
C53_3 C40_3 1_555 1_555
H27_3 C53_3 1_555 1_555
C54_3 C62_3 1_555 1_555
C55_3 C32_3 1_555 1_555
H28_3 C55_3 1_555 1_555
C56_3 C3_3 1_555 1_555
H29_3 C56_3 1_555 1_555
C58_3 C38_3 1_555 1_555
H31_3 C58_3 1_555 1_555
C59_3 C44_3 1_555 1_555
H32_3 C59_3 1_555 1_555
C60_3 C33_3 1_555 1_555
H33_3 C60_3 1_555 1_555
C62_3 H35_3 1_555 1_555
C63_3 C66_3 1_555 1_555
C64_3 C50_3 1_555 1_555
H36_3 C64_3 1_555 1_555
C65_3 C47_3 1_555 1_555
H37_3 C65_3 1_555 1_555
C66_3 C69_3 1_555 1_555
C67_3 C28_3 1_555 1_555
H38_3 C67_3 1_555 1_555
C68_3 C51_3 1_555 1_555
H39_3 C68_3 1_555 1_555
C69_3 C68_3 1_555 1_555
H40_3 C69_3 1_555 1_555
C71_3 C28_3 1_555 1_555
C72_3 C39_3 1_555 1_555
H43_3 C72_3 1_555 1_555
C73_3 C50_3 1_555 1_555
H44_3 C73_3 1_555 1_555
C74_3 C63_3 1_555 1_555
H45_3 C74_3 1_555 1_555
C75_3 C54_3 1_555 1_555
H46_3 C75_3 1_555 1_555
C76_3 C51_3 1_555 1_555
H47_3 C76_3 1_555 1_555
C77_3 C66_3 1_555 1_555
H48_3 C77_3 1_555 1_555
O18_3 Th1 1_555 1_555
C78_3 C63_3 1_555 1_555
H49_3 C78_3 1_555 1_555
O19_4 Th1 1_555 1_555
O22_4 Th1 1_555 1_555
Th5 O3_4 1_555 1_555
Th6_2 O19_4 1_555 1_555
O23_3 Th1 1_555 1_555
O24_3 Th4_2 1_555 1_555
O26_3 Th6_2 1_555 1_555
O28_3 Th6_2 1_555 1_555
O29_3 Th5 1_555 1_555
O30_3 Th6_2 1_555 1_555
O32_2 C89_3 1_555 1_555
O33_2 C89_3 1_555 1_555
O34_3 Th6_2 1_555 1_555
C80_3 O23_3 1_555 1_555
C81_3 O26_3 1_555 1_555
H50_3 C81_3 1_555 1_555
C82_3 C80_3 1_555 1_555
C89_3 C103_3 1_555 1_555
C100_3 H59_3 1_555 1_555
C102_3 C100_3 1_555 1_555
H61_3 C102_3 1_555 1_555
C103_3 C117_3 1_555 1_555
N4_3 C111_3 1_555 1_555
C104_3 C118_3 1_555 1_555
C110_3 O30_3 1_555 1_555
C111_3 C122_3 1_555 1_555
C112_3 C102_3 1_555 1_555
C117_3 H66_3 1_555 1_555
C118_3 C138_3 1_555 1_555
C119_3 C100_3 1_555 1_555
C121_3 C104_3 1_555 1_555
H68_3 C121_3 1_555 1_555
C122_3 C121_3 1_555 1_555
H69_3 C122_3 1_555 1_555
C123_3 C82_3 1_555 1_555
H70_3 C123_3 1_555 1_555
C125_3 C104_3 1_555 1_555
H72_3 C125_3 1_555 1_555
C126_3 C103_3 1_555 1_555
H73_3 C126_3 1_555 1_555
C128_3 C133_3 1_555 1_555
C129_3 N4_3 1_555 1_555
C130_3 C110_3 1_555 1_555
C132_3 C119_3 1_555 1_555
H76_3 C132_3 1_555 1_555
C133_3 C141_3 1_555 1_555
C134_3 C111_3 1_555 1_555
H77_3 C134_3 1_555 1_555
C135_3 C82_3 1_555 1_555
H78_3 C135_3 1_555 1_555
C137_3 C117_3 1_555 1_555
H80_3 C137_3 1_555 1_555
C138_3 C123_3 1_555 1_555
H81_3 C138_3 1_555 1_555
C139_3 C112_3 1_555 1_555
H82_3 C139_3 1_555 1_555
C141_3 H84_3 1_555 1_555
C142_3 C145_3 1_555 1_555
C143_3 C129_3 1_555 1_555
H85_3 C143_3 1_555 1_555
C144_3 C126_3 1_555 1_555
H86_3 C144_3 1_555 1_555
C145_3 C148_3 1_555 1_555
C146_3 C107_3 1_555 1_555
H87_3 C146_3 1_555 1_555
C147_3 C130_3 1_555 1_555
H88_3 C147_3 1_555 1_555
C148_3 C147_3 1_555 1_555
H89_3 C148_3 1_555 1_555
C150_3 C107_3 1_555 1_555
C151_3 C118_3 1_555 1_555
H92_3 C151_3 1_555 1_555
C152_3 C129_3 1_555 1_555
H93_3 C152_3 1_555 1_555
C153_3 C142_3 1_555 1_555
H94_3 C153_3 1_555 1_555
C154_3 C133_3 1_555 1_555
H95_3 C154_3 1_555 1_555
C155_3 C130_3 1_555 1_555
H96_3 C155_3 1_555 1_555
C156_3 C145_3 1_555 1_555
H97_3 C156_3 1_555 1_555
O36_3 Th1 1_555 1_555
C157_3 C142_3 1_555 1_555
H98_3 C157_3 1_555 1_555
Th12_2 O33_2 1_555 1_555
Th13_2 O15_2 1_555 1_555
Th16 O14_2 1_555 1_555
Th16_2 O32_2 1_555 1_555
O39 Th1 1_555 1_555
O40 Th1 1_555 1_555
O41_2 Th5 1_555 1_555
O42_2 Th2 1_555 1_555
O43_2 Th5 1_555 1_555
O44_2 Th2 1_555 1_555
O45_2 Th4_2 1_555 1_555
O46_2 Th4_2 1_555 1_555
O47_2 Th6_2 1_555 1_555
O48_2 Th3_2 1_555 1_555
O49 Th2 1_555 1_555
O50 Th5 1_555 1_555
O51_2 Th4_2 1_555 1_555
O52_2 Th4_2 1_555 1_555
O53_2 Th5 1_555 1_555
O54_2 Th2 1_555 1_555
Th2 O18_3 1_555 1_555
Th3_2 O5_3 1_555 1_555
Th3_2 O18_3 1_555 1_555
Th3_2 O19_4 1_555 1_555
Th4_2 O3_4 1_555 1_555
Th4_2 O5_3 1_555 1_555
O9_3 C1_3 1_555 1_555
O10_3 C2_3 1_555 1_555
O16_3 C31_3 1_555 1_555
N2_3 C40_3 1_555 1_555
C46_3 C55_3 1_555 1_555
C49_3 C58_3 1_555 1_555
C49_3 C65_3 1_555 1_555
C53_3 C60_3 1_555 1_555
C56_3 C72_3 1_555 1_555
C62_3 C64_3 1_555 1_555
C67_3 C74_3 1_555 1_555
C71_3 C78_3 1_555 1_555
C73_3 C75_3 1_555 1_555
C76_3 C77_3 1_555 1_555
Th5 O24_3 1_555 1_555
Th5 O36_3 1_555 1_555
Th6_2 O24_3 1_555 1_555
Th6_2 O36_3 1_555 1_555
O28_3 C80_3 1_555 1_555
O29_3 C81_3 1_555 1_555
O34_3 C110_3 1_555 1_555
N4_3 C119_3 1_555 1_555
C125_3 C134_3 1_555 1_555
C128_3 C137_3 1_555 1_555
C128_3 C144_3 1_555 1_555
C132_3 C139_3 1_555 1_555
C135_3 C151_3 1_555 1_555
C141_3 C143_3 1_555 1_555
C146_3 C153_3 1_555 1_555
C150_3 C157_3 1_555 1_555
C152_3 C154_3 1_555 1_555
C155_3 C156_3 1_555 1_555
O39 C79_3 1_555 1_555
O8_2 C8_3 1_555 1_555
O12_2 C8_3 1_555 1_555
O49 C79_3 1_555 1_555
C4_3 C5_3 1_555 1_555
C5_3 H2_3 1_555 1_555
C6_3 C13_3 1_555 1_555
C7_3 C11_3 1_555 1_555
C8_3 C18_3 1_555 1_555
C9_3 C4_3 1_555 1_555
H3_3 C9_3 1_555 1_555
N1_3 C19_3 1_555 1_555
C11_3 C35_3 1_555 1_555
C12_3 H4_3 1_555 1_555
C13_3 C5_3 1_555 1_555
H5_3 C13_3 1_555 1_555
C14_3 C6_3 1_555 1_555
H6_3 C14_3 1_555 1_555
C15_3 H7_3 1_555 1_555
C16_3 C6_3 1_555 1_555
C17_3 C15_3 1_555 1_555
H8_3 C17_3 1_555 1_555
C18_3 C29_3 1_555 1_555
C19_3 C15_3 1_555 1_555
C20_3 H9_3 1_555 1_555
C22_3 C12_3 1_555 1_555
H11_3 C22_3 1_555 1_555
C26_3 N1_3 1_555 1_555
C27_3 C37_3 1_555 1_555
C29_3 H13_3 1_555 1_555
C30_3 C18_3 1_555 1_555
H14_3 C30_3 1_555 1_555
C34_3 C20_3 1_555 1_555
H15_3 C34_3 1_555 1_555
C35_3 H16_3 1_555 1_555
C37_3 C34_3 1_555 1_555
C41_3 C37_3 1_555 1_555
H18_3 C41_3 1_555 1_555
C45_3 C29_3 1_555 1_555
H22_3 C45_3 1_555 1_555
C48_3 C27_3 1_555 1_555
H25_3 C48_3 1_555 1_555
C52_3 C26_3 1_555 1_555
H26_3 C52_3 1_555 1_555
C57_3 C30_3 1_555 1_555
C61_3 C11_3 1_555 1_555
H34_3 C61_3 1_555 1_555
C70_3 C27_3 1_555 1_555
H41_3 C70_3 1_555 1_555
O20_2 C7_3 1_555 1_555
O21_2 C7_3 1_555 1_555
C79_3 C4_3 1_555 1_555
O40 C158_3 1_555 1_555
O27_2 C87_3 1_555 1_555
O31_2 C87_3 1_555 1_555
O50 C158_3 1_555 1_555
C83_3 C84_3 1_555 1_555
C84_3 H51_3 1_555 1_555
C85_3 C92_3 1_555 1_555
C86_3 C90_3 1_555 1_555
C87_3 C97_3 1_555 1_555
C88_3 C83_3 1_555 1_555
H52_3 C88_3 1_555 1_555
N3_3 C98_3 1_555 1_555
C90_3 C114_3 1_555 1_555
C91_3 H53_3 1_555 1_555
C92_3 C84_3 1_555 1_555
H54_3 C92_3 1_555 1_555
C93_3 C85_3 1_555 1_555
H55_3 C93_3 1_555 1_555
C94_3 H56_3 1_555 1_555
C95_3 C85_3 1_555 1_555
C96_3 C94_3 1_555 1_555
H57_3 C96_3 1_555 1_555
C97_3 C108_3 1_555 1_555
C98_3 C94_3 1_555 1_555
C99_3 H58_3 1_555 1_555
C101_3 C91_3 1_555 1_555
H60_3 C101_3 1_555 1_555
C105_3 N3_3 1_555 1_555
C106_3 C116_3 1_555 1_555
C108_3 H62_3 1_555 1_555
C109_3 C97_3 1_555 1_555
H63_3 C109_3 1_555 1_555
C113_3 C99_3 1_555 1_555
H64_3 C113_3 1_555 1_555
C114_3 H65_3 1_555 1_555
C116_3 C113_3 1_555 1_555
C120_3 C116_3 1_555 1_555
H67_3 C120_3 1_555 1_555
C124_3 C108_3 1_555 1_555
H71_3 C124_3 1_555 1_555
C127_3 C106_3 1_555 1_555
H74_3 C127_3 1_555 1_555
C131_3 C105_3 1_555 1_555
H75_3 C131_3 1_555 1_555
C136_3 C109_3 1_555 1_555
C140_3 C90_3 1_555 1_555
H83_3 C140_3 1_555 1_555
C149_3 C106_3 1_555 1_555
H90_3 C149_3 1_555 1_555
O37_2 C86_3 1_555 1_555
O38_2 C86_3 1_555 1_555
C158_3 C83_3 1_555 1_555
Th9_2 O27_2 1_555 1_555
Th11_2 O8_2 1_555 1_555
Th16 O20_2 1_555 1_555
Th16_2 O37_2 1_555 1_555
O12_2 Th11_2 1_555 1_555
C9_3 C14_3 1_555 1_555
C12_3 C16_3 1_555 1_555
C16_3 C17_3 1_555 1_555
C19_3 C22_3 1_555 1_555
C20_3 C26_3 1_555 1_555
C35_3 C48_3 1_555 1_555
C36_3 C45_3 1_555 1_555
C36_3 C57_3 1_555 1_555
C41_3 C52_3 1_555 1_555
C61_3 C70_3 1_555 1_555
O21_2 Th11_2 1_555 1_555
O31_2 Th9_2 1_555 1_555
C88_3 C93_3 1_555 1_555
C91_3 C95_3 1_555 1_555
C95_3 C96_3 1_555 1_555
C98_3 C101_3 1_555 1_555
C99_3 C105_3 1_555 1_555
C114_3 C127_3 1_555 1_555
C115_3 C124_3 1_555 1_555
C115_3 C136_3 1_555 1_555
C120_3 C131_3 1_555 1_555
C140_3 C149_3 1_555 1_555
O38_2 Th9_2 1_555 1_555
Th1_2 O2_5 1_555 1_555
Th16 O1_5 1_555 1_555
O1_5 Th13_2 1_555 1_555
O2_5 Th11_2 1_555 1_555
O13_5 Th16 1_555 1_555
O19_5 Th1_2 1_555 1_555
O22_5 Th1_2 1_555 1_555
Th11_2 O3_5 1_555 1_555
Th13_2 O19_5 1_555 1_555
O23_4 Th1_2 1_555 1_555
O24_4 Th16 1_555 1_555
O26_4 Th13_2 1_555 1_555
O28_4 Th13_2 1_555 1_555
O29_4 Th11_2 1_555 1_555
O30_4 Th13_2 1_555 1_555
O34_4 Th13_2 1_555 1_555
C80_4 O23_4 1_555 1_555
C81_4 O26_4 1_555 1_555
H50_4 C81_4 1_555 1_555
C82_4 C80_4 1_555 1_555
C110_4 O30_4 1_555 1_555
C118_4 C138_4 1_555 1_555
C123_4 C82_4 1_555 1_555
H70_4 C123_4 1_555 1_555
C130_4 C110_4 1_555 1_555
C135_4 C82_4 1_555 1_555
H78_4 C135_4 1_555 1_555
C138_4 C123_4 1_555 1_555
H81_4 C138_4 1_555 1_555
C142_4 C145_4 1_555 1_555
C145_4 C148_4 1_555 1_555
C146_4 C107_4 1_555 1_555
H87_4 C146_4 1_555 1_555
C147_4 C130_4 1_555 1_555
H88_4 C147_4 1_555 1_555
C148_4 C147_4 1_555 1_555
H89_4 C148_4 1_555 1_555
C150_4 C107_4 1_555 1_555
C151_4 C118_4 1_555 1_555
H92_4 C151_4 1_555 1_555
C153_4 C142_4 1_555 1_555
H94_4 C153_4 1_555 1_555
C155_4 C130_4 1_555 1_555
H96_4 C155_4 1_555 1_555
C156_4 C145_4 1_555 1_555
H97_4 C156_4 1_555 1_555
O36_4 Th1_2 1_555 1_555
C157_4 C142_4 1_555 1_555
H98_4 C157_4 1_555 1_555
O40_2 Th1_2 1_555 1_555
O50_2 Th11_2 1_555 1_555
Th16 O3_5 1_555 1_555
Th11_2 O24_4 1_555 1_555
Th11_2 O36_4 1_555 1_555
Th13_2 O24_4 1_555 1_555
Th13_2 O36_4 1_555 1_555
O28_4 C80_4 1_555 1_555
O29_4 C81_4 1_555 1_555
O34_4 C110_4 1_555 1_555
C135_4 C151_4 1_555 1_555
C146_4 C153_4 1_555 1_555
C150_4 C157_4 1_555 1_555
C155_4 C156_4 1_555 1_555
O22_5 H99_3 1_555 1_555
O22_5 H100_3 1_555 1_555
O13_5 H101_3 1_555 1_555
O13_5 H102_3 1_555 1_555
O40_2 C158_4 1_555 1_555
O50_2 C158_4 1_555 1_555
C83_4 C84_4 1_555 1_555
C84_4 H51_4 1_555 1_555
C85_4 C92_4 1_555 1_555
C88_4 C83_4 1_555 1_555
H52_4 C88_4 1_555 1_555
N3_4 C98_4 1_555 1_555
C91_4 H53_4 1_555 1_555
C92_4 C84_4 1_555 1_555
H54_4 C92_4 1_555 1_555
C93_4 C85_4 1_555 1_555
H55_4 C93_4 1_555 1_555
C94_4 H56_4 1_555 1_555
C95_4 C85_4 1_555 1_555
C96_4 C94_4 1_555 1_555
H57_4 C96_4 1_555 1_555
C98_4 C94_4 1_555 1_555
C99_4 H58_4 1_555 1_555
C101_4 C91_4 1_555 1_555
H60_4 C101_4 1_555 1_555
C105_4 N3_4 1_555 1_555
C113_4 C99_4 1_555 1_555
H64_4 C113_4 1_555 1_555
C131_4 C105_4 1_555 1_555
H75_4 C131_4 1_555 1_555
C158_4 C83_4 1_555 1_555
C88_4 C93_4 1_555 1_555
C91_4 C95_4 1_555 1_555
C95_4 C96_4 1_555 1_555
C98_4 C101_4 1_555 1_555
C99_4 C105_4 1_555 1_555
Th1_3 O2_6 1_555 1_555
Th9_2 O2_6 1_555 1_555
Th12_2 O1_6 1_555 1_555
Th16_2 O1_6 1_555 1_555
O3_6 Th9_2 1_555 1_555
O4_4 Th1_3 1_555 1_555
O5_4 Th9_2 1_555 1_555
O7_4 Th12_2 1_555 1_555
O9_4 Th12_2 1_555 1_555
O10_4 Th9_2 1_555 1_555
O11_4 Th12_2 1_555 1_555
O13_6 Th16_2 1_555 1_555
O16_4 Th12_2 1_555 1_555
C1_4 O4_4 1_555 1_555
C2_4 O7_4 1_555 1_555
H1_4 C2_4 1_555 1_555
C3_4 C1_4 1_555 1_555
C31_4 O11_4 1_555 1_555
C39_4 C59_4 1_555 1_555
C44_4 C3_4 1_555 1_555
H21_4 C44_4 1_555 1_555
C51_4 C31_4 1_555 1_555
C56_4 C3_4 1_555 1_555
H29_4 C56_4 1_555 1_555
C59_4 C44_4 1_555 1_555
H32_4 C59_4 1_555 1_555
C63_4 C66_4 1_555 1_555
C66_4 C69_4 1_555 1_555
C67_4 C28_4 1_555 1_555
H38_4 C67_4 1_555 1_555
C68_4 C51_4 1_555 1_555
H39_4 C68_4 1_555 1_555
C69_4 C68_4 1_555 1_555
H40_4 C69_4 1_555 1_555
C71_4 C28_4 1_555 1_555
C72_4 C39_4 1_555 1_555
H43_4 C72_4 1_555 1_555
C74_4 C63_4 1_555 1_555
H45_4 C74_4 1_555 1_555
C76_4 C51_4 1_555 1_555
H47_4 C76_4 1_555 1_555
C77_4 C66_4 1_555 1_555
H48_4 C77_4 1_555 1_555
O18_4 Th1_3 1_555 1_555
C78_4 C63_4 1_555 1_555
H49_4 C78_4 1_555 1_555
O19_6 Th1_3 1_555 1_555
O22_6 Th1_3 1_555 1_555
O39_2 Th1_3 1_555 1_555
O49_2 Th9_2 1_555 1_555
Th9_2 O18_4 1_555 1_555
Th12_2 O5_4 1_555 1_555
Th12_2 O18_4 1_555 1_555
Th12_2 O19_6 1_555 1_555
Th16_2 O3_6 1_555 1_555
Th16_2 O5_4 1_555 1_555
O9_4 C1_4 1_555 1_555
O10_4 C2_4 1_555 1_555
O16_4 C31_4 1_555 1_555
C56_4 C72_4 1_555 1_555
C67_4 C74_4 1_555 1_555
C71_4 C78_4 1_555 1_555
C76_4 C77_4 1_555 1_555
O22_6 H100_4 1_555 1_555
O13_6 H102_4 1_555 1_555
O39_2 C79_4 1_555 1_555
O49_2 C79_4 1_555 1_555
C4_4 C5_4 1_555 1_555
C5_4 H2_4 1_555 1_555
C6_4 C13_4 1_555 1_555
C9_4 C4_4 1_555 1_555
H3_4 C9_4 1_555 1_555
N1_4 C19_4 1_555 1_555
C12_4 H4_4 1_555 1_555
C13_4 C5_4 1_555 1_555
H5_4 C13_4 1_555 1_555
C14_4 C6_4 1_555 1_555
H6_4 C14_4 1_555 1_555
C15_4 H7_4 1_555 1_555
C16_4 C6_4 1_555 1_555
C17_4 C15_4 1_555 1_555
H8_4 C17_4 1_555 1_555
C19_4 C15_4 1_555 1_555
C20_4 H9_4 1_555 1_555
C22_4 C12_4 1_555 1_555
H11_4 C22_4 1_555 1_555
C26_4 N1_4 1_555 1_555
C34_4 C20_4 1_555 1_555
H15_4 C34_4 1_555 1_555
C52_4 C26_4 1_555 1_555
H26_4 C52_4 1_555 1_555
C79_4 C4_4 1_555 1_555
C9_4 C14_4 1_555 1_555
C12_4 C16_4 1_555 1_555
C16_4 C17_4 1_555 1_555
C19_4 C22_4 1_555 1_555
C20_4 C26_4 1_555 1_555
O46_2 C89_4 1_555 1_555
O48_2 C89_4 1_555 1_555
C89_4 C103_4 1_555 1_555
C100_4 H59_4 1_555 1_555
C102_4 C100_4 1_555 1_555
H61_4 C102_4 1_555 1_555
C103_4 C117_4 1_555 1_555
N4_4 C111_4 1_555 1_555
C111_4 C122_4 1_555 1_555
C112_4 C102_4 1_555 1_555
C117_4 H66_4 1_555 1_555
C119_4 C100_4 1_555 1_555
C121_4 C104_4 1_555 1_555
H68_4 C121_4 1_555 1_555
C122_4 C121_4 1_555 1_555
H69_4 C122_4 1_555 1_555
C125_4 C104_4 1_555 1_555
H72_4 C125_4 1_555 1_555
C126_4 C103_4 1_555 1_555
H73_4 C126_4 1_555 1_555
C128_4 C133_4 1_555 1_555
C129_4 N4_4 1_555 1_555
C132_4 C119_4 1_555 1_555
H76_4 C132_4 1_555 1_555
C133_4 C141_4 1_555 1_555
C134_4 C111_4 1_555 1_555
H77_4 C134_4 1_555 1_555
C137_4 C117_4 1_555 1_555
H80_4 C137_4 1_555 1_555
C139_4 C112_4 1_555 1_555
H82_4 C139_4 1_555 1_555
C141_4 H84_4 1_555 1_555
C143_4 C129_4 1_555 1_555
H85_4 C143_4 1_555 1_555
C144_4 C126_4 1_555 1_555
H86_4 C144_4 1_555 1_555
C152_4 C129_4 1_555 1_555
H93_4 C152_4 1_555 1_555
C154_4 C133_4 1_555 1_555
H95_4 C154_4 1_555 1_555
N4_4 C119_4 1_555 1_555
C125_4 C134_4 1_555 1_555
C128_4 C137_4 1_555 1_555
C128_4 C144_4 1_555 1_555
C132_4 C139_4 1_555 1_555
C141_4 C143_4 1_555 1_555
C152_4 C154_4 1_555 1_555
O42_2 C87_4 1_555 1_555
O44_2 C87_4 1_555 1_555
C86_4 C90_4 1_555 1_555
C87_4 C97_4 1_555 1_555
C90_4 C114_4 1_555 1_555
C97_4 C108_4 1_555 1_555
C106_4 C116_4 1_555 1_555
C108_4 H62_4 1_555 1_555
C109_4 C97_4 1_555 1_555
H63_4 C109_4 1_555 1_555
C114_4 H65_4 1_555 1_555
C120_4 C116_4 1_555 1_555
H67_4 C120_4 1_555 1_555
C124_4 C108_4 1_555 1_555
H71_4 C124_4 1_555 1_555
C127_4 C106_4 1_555 1_555
H74_4 C127_4 1_555 1_555
C136_4 C109_4 1_555 1_555
C140_4 C90_4 1_555 1_555
H83_4 C140_4 1_555 1_555
C149_4 C106_4 1_555 1_555
H90_4 C149_4 1_555 1_555
O52_2 C86_4 1_555 1_555
O54_2 C86_4 1_555 1_555
C114_4 C127_4 1_555 1_555
C115_4 C124_4 1_555 1_555
C115_4 C136_4 1_555 1_555
C140_4 C149_4 1_555 1_555
O45_2 C10_4 1_555 1_555
O47_2 C10_4 1_555 1_555
C10_4 C24_4 1_555 1_555
C21_4 H10_4 1_555 1_555
C23_4 C21_4 1_555 1_555
H12_4 C23_4 1_555 1_555
C24_4 C38_4 1_555 1_555
N2_4 C32_4 1_555 1_555
C32_4 C43_4 1_555 1_555
C33_4 C23_4 1_555 1_555
C38_4 H17_4 1_555 1_555
C40_4 C21_4 1_555 1_555
C42_4 C25_4 1_555 1_555
H19_4 C42_4 1_555 1_555
C43_4 C42_4 1_555 1_555
H20_4 C43_4 1_555 1_555
C46_4 C25_4 1_555 1_555
H23_4 C46_4 1_555 1_555
C47_4 C24_4 1_555 1_555
H24_4 C47_4 1_555 1_555
C49_4 C54_4 1_555 1_555
C50_4 N2_4 1_555 1_555
C53_4 C40_4 1_555 1_555
H27_4 C53_4 1_555 1_555
C54_4 C62_4 1_555 1_555
C55_4 C32_4 1_555 1_555
H28_4 C55_4 1_555 1_555
C58_4 C38_4 1_555 1_555
H31_4 C58_4 1_555 1_555
C60_4 C33_4 1_555 1_555
H33_4 C60_4 1_555 1_555
C62_4 H35_4 1_555 1_555
C64_4 C50_4 1_555 1_555
H36_4 C64_4 1_555 1_555
C65_4 C47_4 1_555 1_555
H37_4 C65_4 1_555 1_555
C73_4 C50_4 1_555 1_555
H44_4 C73_4 1_555 1_555
C75_4 C54_4 1_555 1_555
H46_4 C75_4 1_555 1_555
N2_4 C40_4 1_555 1_555
C46_4 C55_4 1_555 1_555
C49_4 C58_4 1_555 1_555
C49_4 C65_4 1_555 1_555
C53_4 C60_4 1_555 1_555
C62_4 C64_4 1_555 1_555
C73_4 C75_4 1_555 1_555
O41_2 C8_4 1_555 1_555
O43_2 C8_4 1_555 1_555
C7_4 C11_4 1_555 1_555
C8_4 C18_4 1_555 1_555
C11_4 C35_4 1_555 1_555
C18_4 C29_4 1_555 1_555
C27_4 C37_4 1_555 1_555
C29_4 H13_4 1_555 1_555
C30_4 C18_4 1_555 1_555
H14_4 C30_4 1_555 1_555
C35_4 H16_4 1_555 1_555
C41_4 C37_4 1_555 1_555
H18_4 C41_4 1_555 1_555
C45_4 C29_4 1_555 1_555
H22_4 C45_4 1_555 1_555
C48_4 C27_4 1_555 1_555
H25_4 C48_4 1_555 1_555
C57_4 C30_4 1_555 1_555
C61_4 C11_4 1_555 1_555
H34_4 C61_4 1_555 1_555
C70_4 C27_4 1_555 1_555
H41_4 C70_4 1_555 1_555
O51_2 C7_4 1_555 1_555
O53_2 C7_4 1_555 1_555
C35_4 C48_4 1_555 1_555
C36_4 C45_4 1_555 1_555
C36_4 C57_4 1_555 1_555
C61_4 C70_4 1_555 1_555
O22_6 H99_4 1_555 1_555
O13_6 H101_4 1_555 1_555

#END
