
###############################################################################
#
# This file contains modified crystal structure data generated from the
# MOF subset of the Cambridge Structural Database (CSD) v543 
# hosted by the Cambridge Crystallographic Data Centre (CCDC).
#
# This work is licensed under the Creative Commons
# Attribution-NonCommercial-ShareAlike 4.0 International License.
# To view a copy of this license, visit
# http://creativecommons.org/licenses/by-nc-sa/4.0/
# or send a letter to
# Creative Commons, PO Box 1866, Mountain View, CA 94042, USA.
#
# CIF created using the CSD Python API on 29 September 2022
# The structure has been converted into the P1 space group
# The structure has a 3D framework
# The original CSD entry ZAQSET is in the triclinic crystal system
# The framework has been calculated to contain at least 10.0% void space
# The void calculation uses a probe of radius 1.32A, grid spacing 0.4
# The framework is charged, counterions have been retained in the structure
# H atom positions have been added when not included in the experimental data
#
###############################################################################

data_ZAQSET
_chemical_formula_moiety         '(C120 H252 Cl4 Gd18 N24 Na2 O164 4+)n'
_symmetry_cell_setting           triclinic
_symmetry_space_group_name_H-M   'P 1'
_symmetry_Int_Tables_number      1
_space_group_name_Hall           'P 1'
loop_
_symmetry_equiv_pos_site_id
_symmetry_equiv_pos_as_xyz
1 x,y,z
_cell_length_a                   16.0329(12)
_cell_length_b                   16.3705(13)
_cell_length_c                   32.879(2)
_cell_angle_alpha                102.787(6)
_cell_angle_beta                 99.866(6)
_cell_angle_gamma                98.761(6)
_cell_volume                     8127.01
loop_
_atom_site_label
_atom_site_type_symbol
_atom_site_fract_x
_atom_site_fract_y
_atom_site_fract_z
Cl1 Cl 0.3801(6) 0.9063(6) 0.5435(3)
O1 O 0.4093(16) 0.9858(17) 0.5318(9)
O2 O 0.4361(16) 0.8598(18) 0.5263(8)
O3 O 0.2942(15) 0.8804(16) 0.5235(8)
O4 O 0.3763(17) 0.8883(19) 0.5841(9)
Cl1_2 Cl 0.6199(6) 0.0937(6) 0.4565(3)
O1_2 O 0.5907(16) 0.0142(17) 0.4682(9)
O2_2 O 0.5639(16) 0.1402(18) 0.4737(8)
O3_2 O 0.7058(15) 0.1196(16) 0.4765(8)
O4_2 O 0.6237(17) 0.1117(19) 0.4159(9)
Cl2 Cl 0.0965(6) 0.7358(2) 0.9712(4)
O5 O 0.1366(8) 0.8217(2) 0.9883(8)
O6 O 0.106(2) 0.695(2) 0.9344(12)
O7 O 0.008(2) 0.718(2) 0.9603(11)
O8 O 0.135(2) 0.676(2) 0.9938(12)
Cl2_2 Cl 0.9035(6) 0.2642(2) 0.0288(4)
O5_2 O 0.8634(8) 0.1783(2) 0.0117(8)
O6_2 O 0.894(2) 0.305(2) 0.0656(12)
O7_2 O 0.992(2) 0.282(2) 0.0397(11)
O8_2 O 0.865(2) 0.324(2) 0.0062(12)
O15 O 0.2252(9) 0.0567(9) 0.3614(5)
O18 O 0.2868(11) 0.1809(11) 0.4027(6)
O25 O 0.0579(10) 0.0578(11) 0.2669(5)
C3 C 0.3479(6) 0.0635(6) 0.4134(4)
H15 H 0.403565 0.092617 0.427170
C4 C 0.2834(6) 0.0981(6) 0.3927(4)
H17 H 0.219103 0.015016 0.442478
C42 C 0.5071(5) 0.0071(9) 0.3262(7)
H61 H 0.501269 0.066218 0.334891
C44 C 0.6604(6) 0.0131(7) 0.3190(3)
H62 H 0.685990 0.073508 0.326195
C45 C 0.5647(6) 0.0587(15) 0.2664(3)
H64 H 0.566526 0.115184 0.284063
H65 H 0.615289 0.061658 0.253894
C46 C 0.4907(6) 0.0364(15) 0.2336(3)
H66 H 0.491372 0.080860 0.218430
H67 H 0.440493 0.035381 0.246453
Gd10 Gd 0.37983(9) 0.31565(8) 0.42997(4)
H86 H 0.325948 0.0816833 0.443082
H107 H 0.0631035 0.119079 0.281161
H108 H 0.106542 0.0358133 0.280922
H120 H 0.171736 0.0230414 0.277643
Gd1 Gd 0.21692(7) 0.90422(7) 0.33094(3)
Gd2 Gd 0.43567(7) 0.64521(7) 0.37647(3)
Gd3 Gd 0.02446(7) 0.65758(7) 0.17218(3)
Gd4 Gd 0.32565(7) 0.50508(7) 0.12269(3)
Gd5 Gd 0.52333(7) 0.83768(7) 0.24353(4)
Gd6 Gd 0.14309(8) 0.38991(7) 0.25539(4)
Gd9 Gd 0.64511(8) 0.64030(9) 0.06396(4)
Na1 Na 0.2820(5) 0.6574(5) 0.2499(2)
O10 O 0.4076(9) 0.7876(9) 0.3993(5)
O11 O 0.2557(8) 0.8081(8) 0.2681(4)
H1 H 0.211149 0.808517 0.244182
H2 H 0.307826 0.841922 0.264548
O12 O 0.2929(8) 0.8104(8) 0.3624(4)
O14 O 0.3051(9) 0.6534(9) 0.3243(4)
H3 H 0.261768 0.605378 0.324617
H4 H 0.286347 0.703921 0.338372
O17 O 0.1266(9) 0.6460(9) 0.2361(4)
H5 H 0.116636 0.688077 0.259662
H6 H 0.104199 0.590786 0.240398
O19 O 0.2899(9) 0.6255(9) 0.1744(4)
H7 H 0.329208 0.675253 0.172609
H8 H 0.233367 0.630494 0.160173
O20 O 0.1168(9) 0.7701(9) 0.3064(4)
O21 O 0.4304(8) 0.7043(8) 0.2499(4)
H9 H 0.441010 0.660069 0.227430
H10 H 0.460235 0.695209 0.276263
O23 O 0.2593(8) 0.5062(8) 0.2486(4)
H11 H 0.308012 0.504063 0.270036
H12 H 0.272931 0.480916 0.221532
O24 O 0.0697(9) 0.9387(9) 0.3196(5)
O26 O 0.1929(10) 0.9692(10) 0.2690(5)
O28 O 0.4801(12) 0.2347(12) 0.4016(6)
O29 O 0.3090(9) 0.6141(9) 0.4059(4)
O30 O 0.4912(9) 0.6625(9) 0.4538(5)
O32 O 0.5537(11) 0.7440(11) 0.5167(6)
O33 O 0.3172(9) 0.6266(9) 0.0908(5)
O34 O 0.5022(9) 0.7171(9) 0.3303(5)
O35 O 0.6133(9) 0.7298(9) 0.2412(5)
O36 O 0.5659(9) 0.8361(9) 0.3181(4)
O37 O 0.2763(11) 0.3361(11) 0.2628(6)
O38 O 0.4094(10) 0.5399(10) 0.3108(5)
O39 O 0.3390(13) 0.3006(13) 0.3537(7)
O40 O 0.4398(10) 0.4211(11) 0.2737(5)
O41 O 0.2967(12) 0.4259(12) 0.4213(6)
O42 O 0.4311(10) 0.5060(10) 0.3906(5)
O43 O 0.2683(11) 0.3022(12) 0.4688(6)
O44 O 0.4929(10) 0.4101(10) 0.4155(5)
O45 O 0.4275(14) 0.4274(15) 0.4967(7)
O46 O 0.1704(10) 0.4938(10) 0.0987(5)
O47 O 0.6423(13) 0.7009(14) 0.1383(7)
O48 O 0.1323(9) 0.6060(9) 0.1361(5)
O49 O 0.5004(13) 0.6679(14) 0.0697(7)
O51 O 0.5994(14) 0.7276(15) 0.0100(7)
O53 O 0.5995(16) 0.5191(17) 0.0047(8)
O54 O 0.1527(8) 0.7713(8) 0.1898(4)
O55 O 0.7429(14) 0.7810(14) 0.0879(7)
O56 O 0.2017(10) 0.9043(10) 0.1876(5)
O59 O 0.2697(9) 0.4318(9) 0.1702(4)
O60 O 0.1597(10) 0.3475(10) 0.1819(5)
O61 O 0.3145(9) 0.4465(9) 0.0482(5)
O63 O 0.4350(10) 0.5585(10) 0.1882(5)
O64 O 0.5622(10) 0.5578(11) 0.2270(5)
O65 O 0.4603(11) 0.5409(11) 0.1059(5)
O66 O 0.5810(10) 0.5139(10) 0.0853(5)
O67 O 0.4096(9) 0.8911(9) 0.2736(4)
O68 O 0.3623(9) 0.9621(9) 0.3271(5)
O69 O 0.6695(9) 0.9103(9) 0.2575(4)
O70 O 0.7918(10) 0.9909(10) 0.3015(5)
O71 O 0.3966(9) 0.7828(9) 0.1857(5)
O72 O 0.3143(11) 0.7882(11) 0.1266(6)
O73 O 0.5690(11) 0.8214(11) 0.1749(6)
O74 O 0.5304(9) 0.8448(8) 0.11592(12)
O75 O 0.1385(9) 0.5920(10) 0.3705(5)
O76 O 0.1675(10) 0.5219(10) 0.3124(5)
O77 O 0.1242(14) 0.3555(14) 0.3855(7)
O78 O 0.1676(11) 0.3602(12) 0.3241(6)
O79 O 0.1080(10) 0.2360(10) 0.2420(5)
O80 O 0.0545(12) 0.1069(12) 0.1918(6)
O81 O 0.0659(9) 0.4842(9) 0.2236(4)
N1 N 0.3134(11) 0.9758(11) 0.4097(6)
N2 N 0.1282(10) 0.8719(10) 0.3895(5)
N3 N 0.5834(11) 0.7573(11) 0.4144(6)
N4 N 0.5714(10) 0.5771(10) 0.3649(5)
N6 N 0.0151(10) 0.7658(10) 0.1238(5)
N7 N 0.2479(11) 0.3396(11) 0.0877(5)
N8 N 0.4318(10) 0.4003(10) 0.1344(5)
N9 N 0.5692(10) 0.9982(10) 0.2940(5)
N10 N 0.4799(13) 0.9510(13) 0.2014(7)
N11 N 0.0134(13) 0.4052(13) 0.2935(7)
C1 C 0.3592(14) 0.8374(4) 0.3931(5)
C2 C 0.3792(13) 0.9224(4) 0.4174(5)
H13 H 0.432935 0.949727 0.412102
H14 H 0.389492 0.922326 0.447362
C5 C 0.2505(7) 0.9687(5) 0.4415(7)
H16 H 0.285154 0.976783 0.469813
C6 C 0.1905(7) 0.8917(5) 0.4314(6)
H18 H 0.158027 0.893149 0.453812
H19 H 0.221880 0.845424 0.431426
C7 C 0.0633(13) 0.7439(11) 0.33056(19)
C8 C 0.0834(14) 0.7795(12) 0.37473(19)
H20 H 0.119790 0.746169 0.387929
H21 H 0.030223 0.773708 0.385087
C9 C 0.0291(12) 0.9417(9) 0.3512(2)
C10 C 0.0616(12) 0.9290(9) 0.3911(2)
H22 H 0.014119 0.903254 0.401880
H23 H 0.087793 0.983893 0.410919
C11 C 0.5551(11) 0.7947(15) 0.3434(2)
C12 C 0.5962(11) 0.8250(13) 0.3865(2)
H24 H 0.574433 0.874946 0.398825
H25 H 0.657489 0.843165 0.388414
C13 C 0.5804(8) 0.7939(5) 0.4577(3)
H26 H 0.638674 0.818086 0.474098
H27 H 0.548511 0.839884 0.458669
C14 C 0.5411(9) 0.7335(5) 0.4764(3)
C15 C 0.6575(11) 0.7100(7) 0.4150(3)
H28 H 0.710768 0.751839 0.421279
H29 H 0.659133 0.682770 0.438424
C16 C 0.6567(11) 0.6477(7) 0.3780(3)
H30 H 0.706212 0.620943 0.382859
H31 H 0.661385 0.674621 0.354826
C17 C 0.5526(4) 0.5218(14) 0.3192(7)
H32 H 0.576301 0.555509 0.301489
H33 H 0.582216 0.474261 0.318701
C18 C 0.4648(4) 0.4896(12) 0.3014(6)
C19 C 0.5777(5) 0.5198(9) 0.3952(4)
H34 H 0.609064 0.476100 0.384850
H35 H 0.610856 0.553591 0.422958
C20 C 0.4976(5) 0.4801(9) 0.4001(4)
C21 C 0.1154(5) 0.5372(14) 0.1068(5)
C22 C 0.0303(5) 0.5108(17) 0.0832(5)
H36 H 0.004163 0.460402 0.090827
H37 H 0.032089 0.493855 0.053254
H40 H 0.060360 0.653622 0.066515
C27 C 0.1059(10) 0.8047(15) 0.1252(2)
H44 H 0.132844 0.763279 0.108912
H45 H 0.107414 0.853390 0.112908
C28 C 0.1504(10) 0.8307(15) 0.1679(2)
C31 C 0.2047(14) 0.3690(9) 0.1561(2)
C32 C 0.1829(14) 0.3154(9) 0.1147(2)
H48 H 0.125522 0.319230 0.101010
H49 H 0.181708 0.256684 0.116186
C33 C 0.2038(7) 0.3334(7) 0.0421(3)
H50 H 0.191159 0.274292 0.025660
H51 H 0.149657 0.352969 0.041925
C34 C 0.2567(6) 0.3831(6) 0.0232(3)
C35 C 0.3808(7) 0.3112(15) 0.1252(3)
H52 H 0.420242 0.271734 0.123799
H53 H 0.352597 0.306458 0.148635
C36 C 0.3180(7) 0.2866(15) 0.0871(3)
H54 H 0.291648 0.226932 0.082178
H55 H 0.345815 0.292220 0.063614
C37 C 0.4817(15) 0.4322(4) 0.1802(7)
H56 H 0.452121 0.402115 0.197626
H57 H 0.538336 0.417646 0.181738
C38 C 0.4923(13) 0.5202(4) 0.1979(6)
C39 C 0.4957(17) 0.4104(4) 0.1071(4)
H58 H 0.549447 0.397973 0.120430
H59 H 0.474520 0.368663 0.079758
C40 C 0.5125(15) 0.4918(4) 0.0998(4)
C41 C 0.4260(5) 0.9553(8) 0.3066(6)
H60 H 0.531045 0.990090 0.351454
C43 C 0.7091(6) 0.9663(7) 0.2947(3)
H63 H 0.660387 0.995683 0.345290
C47 C 0.5412(8) 0.9574(5) 0.1726(5)
H68 H 0.516408 0.983227 0.150689
H69 H 0.593788 0.996582 0.189044
C48 C 0.5641(2) 0.8822(4) 0.15212(10)
C49 C 0.3900(15) 0.9186(4) 0.1735(8)
H70 H 0.348524 0.942398 0.188503
H71 H 0.387331 0.937716 0.147543
C50 C 0.3678(16) 0.8293(4) 0.1631(8)
C51 C 0.1111(4) 0.5381(10) 0.3330(7)
C52 C 0.0250(4) 0.4950(2) 0.3187(3)
C53 C 0.1052(4) 0.3577(14) 0.3457(6)
C54 C 0.0183(4) 0.3530(2) 0.3280(3)
C57 C 0.0527(7) 0.1888(6) 0.2047(3)
C58 C 0.0013(7) 0.2281(6) 0.1791(3)
H81 H 0.026162 0.232583 0.154647
C60 C 0.0124(10) 0.4543(5) 0.1863(8)
Gd11 Gd 0.62017(9) 0.68435(8) 0.57003(4)
Gd12 Gd 0.91937(8) 0.97545(8) 0.27259(4)
O85 O 0.4463(11) 0.2560(11) 0.4833(6)
O86 O 0.7551(10) 0.5838(10) 0.0942(5)
O87 O 0.7454(10) 0.6359(10) 0.0161(5)
H87 H 0.292246 0.292843 0.496944
H88 H 0.244475 0.355273 0.473162
H89 H 0.63847 0.784519 0.0183324
H91 H 0.598687 0.662802 0.147322
H92 H 0.700134 0.706446 0.156492
H93 H 0.504526 0.72976 0.0823026
H94 H 0.461996 0.650662 0.0408676
H97 H 0.473964 0.471809 0.493665
H98 H 0.378019 0.453724 0.503426
H99 H 0.789136 0.781178 0.112264
H100 H 0.769232 0.792782 0.0640483
H109 H 0.259869 0.632832 0.390175
H110 H 0.293813 0.551674 0.403016
H113 H 0.360619 0.677205 0.108736
H114 H 0.329071 0.611845 0.0616684
H115 H 0.586634 0.680161 0.216491
H116 H 0.671698 0.75462 0.238152
H117 H 0.319293 0.374502 0.287664
H118 H 0.264785 0.277748 0.267275
H119 H 0.149323 0.928634 0.245103
H121 H 0.32169 0.239017 0.338588
H122 H 0.289778 0.329437 0.347687
H123 H 0.514759 0.268396 0.386413
H124 H 0.519171 0.222179 0.42534
H125 H 0.256428 0.407481 0.392963
H126 H 0.263195 0.435094 0.444104
O62 O 0.2546(10) 0.3641(10) 0.9839(5)
Gd14 Gd 0.35489(8) 0.35970(9) 0.93604(4)
H90 H 0.603136 0.696678 0.980966
H95 H 0.535411 0.504746 0.99704
H96 H 0.622066 0.531944 0.980028
O13 O 0.9086(11) 0.8294(11) 0.2733(6)
O16 O 0.7941(12) 0.8858(13) 0.2162(6)
O22 O 0.9998(9) 0.6851(9) 0.3132(5)
O27 O 0.9557(10) 0.9632(10) 0.3451(5)
O31 O 0.9419(9) 0.6324(9) 0.2258(5)
O52 O 0.8752(9) 0.6429(9) 0.1423(5)
O57 O 0.9650(10) 0.9195(10) 0.2071(5)
O58 O 0.9859(10) 0.7886(10) 0.2076(5)
O82 O 0.9957(9) 0.5052(9) 0.1655(5)
N5 N 0.9738(10) 0.5730(10) 0.0884(5)
N12 N 0.9919(11) 0.3144(11) 0.2014(6)
C23 C 0.8385(6) 0.5937(7) 0.1070(3)
C24 C 0.8807(6) 0.5446(7) 0.0798(3)
H38 H 0.857007 0.545110 0.050649
H39 H 0.868136 0.485983 0.081827
C25 C 0.9982(8) 0.6435(4) 0.0639(6)
H41 H 0.972161 0.619660 0.033896
C26 C 0.9749(8) 0.7228(4) 0.0766(7)
H42 H 0.912530 0.714848 0.072137
H43 H 0.994090 0.759498 0.059170
C29 C 0.9685(13) 0.8309(13) 0.14346(17)
H46 H 0.988248 0.883768 0.136196
H47 H 0.907570 0.812079 0.130262
C30 C 0.9765(13) 0.8491(14) 0.18777(17)
H72 H 0.994185 0.526167 0.301263
H73 H 0.998855 0.495329 0.343247
H74 H 0.989033 0.376281 0.350042
H75 H 0.990044 0.293863 0.314983
C55 C 0.9269(12) 0.3778(5) 0.2595(4)
H76 H 0.879018 0.369522 0.273557
H77 H 0.919981 0.422949 0.245193
C56 C 0.9250(12) 0.3021(5) 0.2291(4)
H78 H 0.867760 0.282885 0.210899
H79 H 0.936607 0.258184 0.243617
H80 H 0.944335 0.191890 0.168617
C59 C 0.9650(9) 0.3703(5) 0.1717(7)
H82 H 0.973283 0.345529 0.143417
H83 H 0.904026 0.371135 0.169601
H103 H 0.923453 0.797318 0.247036
H104 H 0.949204 0.824833 0.298763
H105 H 0.80509 0.888078 0.187614
H106 H 0.78653 0.82576 0.218491
H111 H 0.96325 0.679429 0.252215
H112 H 0.879823 0.630365 0.214608
Gd8 Gd 0.08063(8) 0.02455(8) 0.72741(4)
O13_2 O 0.0914(11) 0.1706(11) 0.7267(6)
O16_2 O 0.2059(12) 0.1142(13) 0.7838(6)
O22_2 O 0.0002(9) 0.3149(9) 0.6868(5)
O27_2 O 0.0443(10) 0.0368(10) 0.6549(5)
O31_2 O 0.0581(9) 0.3676(9) 0.7742(5)
O50 O 0.2449(10) 0.4162(10) 0.9058(5)
O52_2 O 0.1248(9) 0.3571(9) 0.8577(5)
O57_2 O 0.0350(10) 0.0805(10) 0.7929(5)
O58_2 O 0.0141(10) 0.2114(10) 0.7924(5)
O82_2 O 0.0043(9) 0.4948(9) 0.8345(5)
N5_2 N 0.0262(10) 0.4270(10) 0.9116(5)
N12_2 N 0.0081(11) 0.6856(11) 0.7986(6)
C23_2 C 0.1615(6) 0.4063(7) 0.8930(3)
C24_2 C 0.1193(6) 0.4554(7) 0.9202(3)
H38_2 H 0.142993 0.454890 0.949351
H39_2 H 0.131864 0.514017 0.918173
C25_2 C 0.0018(8) 0.3565(4) 0.9361(6)
H41_2 H 0.027839 0.380340 0.966104
C26_2 C 0.0251(8) 0.2772(4) 0.9234(7)
H42_2 H 0.087470 0.285152 0.927863
H43_2 H 0.005910 0.240502 0.940830
C29_2 C 0.0315(13) 0.1691(13) 0.85654(17)
H46_2 H 0.011752 0.116232 0.863804
H47_2 H 0.092430 0.187921 0.869738
C30_2 C 0.0235(13) 0.1509(14) 0.81223(17)
H72_2 H 0.005815 0.473833 0.698737
H73_2 H 0.001145 0.504671 0.656753
H74_2 H 0.010967 0.623719 0.649958
H75_2 H 0.009956 0.706137 0.685017
C55_2 C 0.0731(12) 0.6222(5) 0.7405(4)
H76_2 H 0.120982 0.630478 0.726443
H77_2 H 0.080019 0.577051 0.754807
C56_2 C 0.0750(12) 0.6979(5) 0.7709(4)
H78_2 H 0.132240 0.717115 0.789101
H79_2 H 0.063393 0.741816 0.756383
H80_2 H 0.055665 0.808110 0.831383
C59_2 C 0.0350(9) 0.6297(5) 0.8283(7)
H82_2 H 0.026717 0.654471 0.856583
H83_2 H 0.095974 0.628865 0.830399
O88 O 0.2082(10) 0.0091(10) 0.6985(5)
H103_2 H 0.0765473 0.202682 0.752964
H104_2 H 0.0507963 0.175167 0.701237
H105_2 H 0.19491 0.111922 0.812386
H106_2 H 0.21347 0.17424 0.781509
H111_2 H 0.0367499 0.320571 0.747785
H112_2 H 0.120177 0.369635 0.785392
H90_2 H 0.396864 0.303322 0.0190341
H95_2 H 0.464589 0.495254 0.00296037
H96_2 H 0.377934 0.468056 0.019972
Gd1_2 Gd 0.78308(7) 0.09578(7) 0.66906(3)
Gd2_2 Gd 0.56433(7) 0.35479(7) 0.62353(3)
Gd3_2 Gd 0.97554(7) 0.34242(7) 0.82782(3)
Gd4_2 Gd 0.67435(7) 0.49492(7) 0.87731(3)
Gd5_2 Gd 0.47667(7) 0.16232(7) 0.75647(4)
Gd6_2 Gd 0.85691(8) 0.61009(7) 0.74461(4)
Na1_2 Na 0.7180(5) 0.3426(5) 0.7501(2)
O10_2 O 0.5924(9) 0.2124(9) 0.6007(5)
O11_2 O 0.7443(8) 0.1919(8) 0.7319(4)
H1_2 H 0.788851 0.191483 0.755818
H2_2 H 0.692174 0.158078 0.735452
O12_2 O 0.7071(8) 0.1896(8) 0.6376(4)
O14_2 O 0.6949(9) 0.3466(9) 0.6757(4)
H3_2 H 0.738232 0.394622 0.675383
H4_2 H 0.713653 0.296079 0.661628
O17_2 O 0.8734(9) 0.3540(9) 0.7639(4)
H5_2 H 0.883364 0.311923 0.740338
H6_2 H 0.895801 0.409214 0.759602
O19_2 O 0.7101(9) 0.3745(9) 0.8256(4)
H7_2 H 0.670792 0.324747 0.827391
H8_2 H 0.766633 0.369506 0.839827
O20_2 O 0.8832(9) 0.2299(9) 0.6936(4)
O21_2 O 0.5696(8) 0.2957(8) 0.7501(4)
H9_2 H 0.558990 0.339931 0.772570
H10_2 H 0.539765 0.304791 0.723737
O23_2 O 0.7407(8) 0.4938(8) 0.7514(4)
H11_2 H 0.691988 0.495937 0.729964
H12_2 H 0.727069 0.519084 0.778468
O24_2 O 0.9303(9) 0.0613(9) 0.6804(5)
O26_2 O 0.8071(10) 0.0308(10) 0.7310(5)
O28_2 O 0.5199(12) 0.7653(12) 0.5984(6)
O29_2 O 0.6910(9) 0.3859(9) 0.5941(4)
O30_2 O 0.5088(9) 0.3375(9) 0.5462(5)
O33_2 O 0.6828(9) 0.3734(9) 0.9092(5)
O34_2 O 0.4978(9) 0.2829(9) 0.6697(5)
O35_2 O 0.3867(9) 0.2702(9) 0.7588(5)
O36_2 O 0.4341(9) 0.1639(9) 0.6819(4)
O37_2 O 0.7237(11) 0.6639(11) 0.7372(6)
O38_2 O 0.5906(10) 0.4601(10) 0.6892(5)
O39_2 O 0.6610(13) 0.6994(13) 0.6463(7)
O40_2 O 0.5602(10) 0.5789(11) 0.7263(5)
O41_2 O 0.7033(12) 0.5741(12) 0.5787(6)
O42_2 O 0.5689(10) 0.4940(10) 0.6094(5)
O43_2 O 0.7317(11) 0.6978(12) 0.5312(6)
O44_2 O 0.5071(10) 0.5899(10) 0.5845(5)
O45_2 O 0.5725(14) 0.5726(15) 0.5033(7)
O46_2 O 0.8296(10) 0.5062(10) 0.9013(5)
O47_2 O 0.3577(13) 0.2991(14) 0.8617(7)
O48_2 O 0.8677(9) 0.3940(9) 0.8639(5)
O49_2 O 0.4996(13) 0.3321(14) 0.9303(7)
O51_2 O 0.4006(14) 0.2724(15) 0.9900(7)
O53_2 O 0.4005(16) 0.4809(17) 0.9953(8)
O54_2 O 0.8473(8) 0.2287(8) 0.8102(4)
O55_2 O 0.2571(14) 0.2190(14) 0.9121(7)
O56_2 O 0.7983(10) 0.0957(10) 0.8124(5)
O59_2 O 0.7303(9) 0.5682(9) 0.8298(4)
O60_2 O 0.8403(10) 0.6525(10) 0.8181(5)
O61_2 O 0.6855(9) 0.5535(9) 0.9518(5)
O63_2 O 0.5650(10) 0.4415(10) 0.8118(5)
O64_2 O 0.4378(10) 0.4422(11) 0.7730(5)
O65_2 O 0.5397(11) 0.4591(11) 0.8941(5)
O66_2 O 0.4190(10) 0.4861(10) 0.9147(5)
O67_2 O 0.5904(9) 0.1089(9) 0.7264(4)
O68_2 O 0.6377(9) 0.0379(9) 0.6729(5)
O69_2 O 0.3305(9) 0.0897(9) 0.7425(4)
O71_2 O 0.6034(9) 0.2172(9) 0.8143(5)
O72_2 O 0.6857(11) 0.2118(11) 0.8734(6)
O73_2 O 0.4310(11) 0.1786(11) 0.8251(6)
O74_2 O 0.4696(9) 0.1552(8) 0.88408(12)
O75_2 O 0.8615(9) 0.4080(10) 0.6295(5)
O76_2 O 0.8325(10) 0.4781(10) 0.6876(5)
O77_2 O 0.8758(14) 0.6445(14) 0.6145(7)
O78_2 O 0.8324(11) 0.6398(12) 0.6759(6)
O79_2 O 0.8920(10) 0.7640(10) 0.7580(5)
O80_2 O 0.9455(12) 0.8931(12) 0.8082(6)
O81_2 O 0.9341(9) 0.5158(9) 0.7764(4)
N1_2 N 0.6866(11) 0.0242(11) 0.5903(6)
N2_2 N 0.8718(10) 0.1281(10) 0.6105(5)
N3_2 N 0.4166(11) 0.2427(11) 0.5856(6)
N4_2 N 0.4286(10) 0.4229(10) 0.6351(5)
N6_2 N 0.9849(10) 0.2342(10) 0.8762(5)
N7_2 N 0.7521(11) 0.6604(11) 0.9123(5)
N8_2 N 0.5682(10) 0.5997(10) 0.8656(5)
N9_2 N 0.4308(10) 0.0018(10) 0.7060(5)
N10_2 N 0.5201(13) 0.0490(13) 0.7986(7)
N11_2 N 0.9866(13) 0.5948(13) 0.7065(7)
C1_2 C 0.6408(14) 0.1626(4) 0.6069(5)
C2_2 C 0.6208(13) 0.0776(4) 0.5826(5)
H13_2 H 0.567065 0.050273 0.587898
H14_2 H 0.610508 0.077674 0.552638
C5_2 C 0.7495(7) 0.0313(5) 0.5585(7)
H16_2 H 0.714846 0.023217 0.530187
C6_2 C 0.8095(7) 0.1083(5) 0.5686(6)
H18_2 H 0.841973 0.106851 0.546188
H19_2 H 0.778120 0.154576 0.568574
C7_2 C 0.9367(13) 0.2561(11) 0.66944(19)
C8_2 C 0.9166(14) 0.2205(12) 0.62527(19)
H20_2 H 0.880210 0.253831 0.612071
H21_2 H 0.969777 0.226292 0.614913
C9_2 C 0.9709(12) 0.0583(9) 0.6488(2)
C10_2 C 0.9384(12) 0.0710(9) 0.6089(2)
H22_2 H 0.985881 0.096746 0.598120
H23_2 H 0.912207 0.016107 0.589081
C11_2 C 0.4449(11) 0.2053(15) 0.6566(2)
C12_2 C 0.4038(11) 0.1750(13) 0.6135(2)
H24_2 H 0.425567 0.125054 0.601175
H25_2 H 0.342511 0.156835 0.611586
C13_2 C 0.4196(8) 0.2061(5) 0.5423(3)
H26_2 H 0.361326 0.181914 0.525902
H27_2 H 0.451489 0.160116 0.541331
C14_2 C 0.4589(9) 0.2665(5) 0.5236(3)
C15_2 C 0.3425(11) 0.2900(7) 0.5850(3)
H28_2 H 0.289232 0.248161 0.578721
H29_2 H 0.340867 0.317230 0.561576
C16_2 C 0.3433(11) 0.3523(7) 0.6220(3)
H30_2 H 0.293788 0.379057 0.617141
H31_2 H 0.338615 0.325379 0.645174
C17_2 C 0.4474(4) 0.4782(14) 0.6808(7)
H32_2 H 0.423699 0.444491 0.698511
H33_2 H 0.417784 0.525739 0.681299
C18_2 C 0.5352(4) 0.5104(12) 0.6986(6)
C19_2 C 0.4223(5) 0.4802(9) 0.6048(4)
H34_2 H 0.390936 0.523900 0.615150
H35_2 H 0.389144 0.446409 0.577042
C20_2 C 0.5024(5) 0.5199(9) 0.5999(4)
C21_2 C 0.8846(5) 0.4628(14) 0.8932(5)
C22_2 C 0.9697(5) 0.4892(17) 0.9168(5)
H36_2 H 0.995837 0.539598 0.909173
H37_2 H 0.967911 0.506145 0.946746
H40_2 H 0.939640 0.346378 0.933485
C27_2 C 0.8941(10) 0.1953(15) 0.8748(2)
H44_2 H 0.867156 0.236721 0.891088
H45_2 H 0.892586 0.146610 0.887092
C28_2 C 0.8496(10) 0.1693(15) 0.8321(2)
C31_2 C 0.7953(14) 0.6310(9) 0.8439(2)
C32_2 C 0.8171(14) 0.6846(9) 0.8853(2)
H48_2 H 0.874478 0.680770 0.898990
H49_2 H 0.818292 0.743316 0.883814
C33_2 C 0.7962(7) 0.6666(7) 0.9579(3)
H50_2 H 0.808841 0.725708 0.974340
H51_2 H 0.850343 0.647031 0.958075
C34_2 C 0.7433(6) 0.6169(6) 0.9768(3)
C35_2 C 0.6192(7) 0.6888(15) 0.8748(3)
H52_2 H 0.579758 0.728266 0.876201
H53_2 H 0.647403 0.693542 0.851365
C36_2 C 0.6820(7) 0.7134(15) 0.9129(3)
H54_2 H 0.708352 0.773068 0.917822
H55_2 H 0.654185 0.707780 0.936386
C37_2 C 0.5183(15) 0.5678(4) 0.8198(7)
H56_2 H 0.547879 0.597885 0.802374
H57_2 H 0.461664 0.582354 0.818262
C38_2 C 0.5077(13) 0.4798(4) 0.8021(6)
C39_2 C 0.5043(17) 0.5896(4) 0.8929(4)
H58_2 H 0.450553 0.602027 0.879570
H59_2 H 0.525480 0.631337 0.920242
C40_2 C 0.4875(15) 0.5082(4) 0.9002(4)
C41_2 C 0.5740(5) 0.0447(8) 0.6934(6)
H60_2 H 0.468955 0.009910 0.648546
C43_2 C 0.2909(6) 0.0337(7) 0.7053(3)
H63_2 H 0.339613 0.004317 0.654710
C47_2 C 0.4588(8) 0.0426(5) 0.8274(5)
H68_2 H 0.483592 0.016773 0.849311
H69_2 H 0.406212 0.003418 0.810956
C48_2 C 0.4359(2) 0.1178(4) 0.84788(10)
C49_2 C 0.6100(15) 0.0814(4) 0.8265(8)
H70_2 H 0.651476 0.057602 0.811497
H71_2 H 0.612669 0.062284 0.852457
C50_2 C 0.6322(16) 0.1707(4) 0.8369(8)
C51_2 C 0.8889(4) 0.4619(10) 0.6670(7)
C52_2 C 0.9750(4) 0.5050(2) 0.6813(3)
C53_2 C 0.8948(4) 0.6423(14) 0.6543(6)
C54_2 C 0.9817(4) 0.6470(2) 0.6720(3)
C57_2 C 0.9473(7) 0.8112(6) 0.7953(3)
C58_2 C 0.9987(7) 0.7719(6) 0.8209(3)
H81_2 H 0.973838 0.767417 0.845353
C60_2 C 0.9876(10) 0.5457(5) 0.8137(8)
O84 O 0.7132(11) 0.8191(11) 0.5973(6)
H87_2 H 0.707754 0.707157 0.503056
H88_2 H 0.755525 0.644727 0.526838
H89_2 H 0.36153 0.215481 0.981668
H91_2 H 0.401313 0.337198 0.852678
H92_2 H 0.299866 0.293554 0.843508
H93_2 H 0.495474 0.27024 0.917697
H94_2 H 0.538004 0.349338 0.959132
H97_2 H 0.526036 0.528191 0.506335
H98_2 H 0.621981 0.546276 0.496574
H99_2 H 0.210864 0.218822 0.887736
H100_2 H 0.230768 0.207218 0.935952
H109_2 H 0.740131 0.367168 0.609825
H110_2 H 0.706187 0.448326 0.596984
H113_2 H 0.639381 0.322795 0.891264
H114_2 H 0.670929 0.388155 0.938332
H115_2 H 0.413366 0.319839 0.783509
H116_2 H 0.328302 0.24538 0.761848
H117_2 H 0.680707 0.625498 0.712336
H118_2 H 0.735215 0.722252 0.732725
H119_2 H 0.850677 0.0713663 0.754897
H121_2 H 0.67831 0.760983 0.661412
H122_2 H 0.710222 0.670563 0.652313
H123_2 H 0.485241 0.731604 0.613587
H124_2 H 0.480829 0.777821 0.57466
H125_2 H 0.743572 0.592519 0.607037
H126_2 H 0.736805 0.564906 0.555896
O15_2 O 0.7748(9) 0.9433(9) 0.6386(5)
O25_2 O 0.9421(10) 0.9422(11) 0.7331(5)
C3_2 C 0.6521(6) 0.9365(6) 0.5866(4)
H15_2 H 0.596435 0.907383 0.572830
C4_2 C 0.7166(6) 0.9019(6) 0.6073(4)
H17_2 H 0.780897 0.984984 0.557522
C42_2 C 0.4929(5) 0.9929(9) 0.6738(7)
H61_2 H 0.498731 0.933782 0.665109
C44_2 C 0.3396(6) 0.9869(7) 0.6810(3)
H62_2 H 0.314010 0.926492 0.673805
C45_2 C 0.4353(6) 0.9413(15) 0.7336(3)
H64_2 H 0.433474 0.884816 0.715937
H65_2 H 0.384711 0.938342 0.746106
C46_2 C 0.5093(6) 0.9636(15) 0.7664(3)
H66_2 H 0.508628 0.919140 0.781570
H67_2 H 0.559507 0.964619 0.753547
H86_2 H 0.674052 0.918317 0.556918
H107_2 H 0.936896 0.880921 0.718839
H108_2 H 0.893458 0.964187 0.719078
H120_2 H 0.828264 0.976959 0.722357
O9 O 0.8648(12) 0.0737(13) 0.2337(6)
O83 O 0.9508(13) 0.1236(13) 0.3221(7)
H84 H 0.895706 0.143241 0.324204
H85 H 0.981213 0.122281 0.35085
H101 H 0.801604 0.0677829 0.231849
H102 H 0.894154 0.133256 0.248922
O9_2 O 0.1352(12) 0.9263(13) 0.7663(6)
O83_2 O 0.0492(13) 0.8764(13) 0.6779(7)
H84_2 H 0.104294 0.856759 0.675796
H85_2 H 0.0187874 0.877719 0.64915
H101_2 H 0.198396 0.932217 0.768151
H102_2 H 0.105846 0.866744 0.751078
loop_
_geom_bond_atom_site_label_1
_geom_bond_atom_site_label_2
_geom_bond_site_symmetry_1
_geom_bond_site_symmetry_2
Cl1 O1 1_555 1_555
O2 Cl1 1_555 1_555
O3 Cl1 1_555 1_555
O4 Cl1 1_555 1_555
Cl1_2 O1_2 1_555 1_555
O2_2 Cl1_2 1_555 1_555
O3_2 Cl1_2 1_555 1_555
O4_2 Cl1_2 1_555 1_555
Cl2 O5 1_555 1_555
O6 Cl2 1_555 1_555
O7 Cl2 1_555 1_555
O8 Cl2 1_555 1_555
Cl2_2 O5_2 1_555 1_555
O6_2 Cl2_2 1_555 1_555
O7_2 Cl2_2 1_555 1_555
O8_2 Cl2_2 1_555 1_555
O18 C4 1_555 1_555
H15 C3 1_555 1_555
C4 O15 1_555 1_555
H61 C42 1_555 1_555
H62 C44 1_555 1_555
H64 C45 1_555 1_555
H65 C45 1_555 1_555
H66 C46 1_555 1_555
H67 C46 1_555 1_555
Gd10 O18 1_555 1_555
C3 C4 1_555 1_555
C45 C46 1_555 1_555
C3 H86 1_555 1_555
O25 H107 1_555 1_555
O25 H108 1_555 1_555
Gd1 O11 1_555 1_555
Gd2 O10 1_555 1_555
Gd3 O17 1_555 1_555
Gd4 O19 1_555 1_555
Gd5 O21 1_555 1_555
Gd6 O23 1_555 1_555
Gd10 O28 1_555 1_555
Gd9 O47 1_555 1_555
Na1 O11 1_555 1_555
O10 C1 1_555 1_555
O11 H1 1_555 1_555
H2 O11 1_555 1_555
O12 Gd1 1_555 1_555
O14 Gd2 1_555 1_555
H3 O14 1_555 1_555
H4 O14 1_555 1_555
O17 Na1 1_555 1_555
H5 O17 1_555 1_555
H6 O17 1_555 1_555
O19 Na1 1_555 1_555
H7 O19 1_555 1_555
H8 O19 1_555 1_555
O20 Gd1 1_555 1_555
O21 Na1 1_555 1_555
H9 O21 1_555 1_555
H10 O21 1_555 1_555
O23 Na1 1_555 1_555
H11 O23 1_555 1_555
H12 O23 1_555 1_555
O24 Gd1 1_555 1_555
O26 Gd1 1_555 1_555
O29 Gd2 1_555 1_555
O30 Gd2 1_555 1_555
O32 C14 1_555 1_555
O33 Gd4 1_555 1_555
O34 Gd2 1_555 1_555
O35 Gd5 1_555 1_555
O36 Gd5 1_555 1_555
O37 Gd6 1_555 1_555
O38 Gd2 1_555 1_555
O39 Gd10 1_555 1_555
O40 C18 1_555 1_555
O41 Gd10 1_555 1_555
O42 Gd2 1_555 1_555
O43 Gd10 1_555 1_555
O44 Gd10 1_555 1_555
O45 Gd10 1_555 1_555
O46 Gd4 1_555 1_555
O48 Gd3 1_555 1_555
O49 Gd9 1_555 1_555
O51 Gd9 1_555 1_555
O53 Gd9 1_555 1_555
O54 Gd3 1_555 1_555
O55 Gd9 1_555 1_555
O56 C28 1_555 1_555
O59 Gd4 1_555 1_555
O60 Gd6 1_555 1_555
O61 Gd4 1_555 1_555
O63 Gd4 1_555 1_555
O64 C38 1_555 1_555
O65 Gd4 1_555 1_555
O66 Gd9 1_555 1_555
O67 Gd5 1_555 1_555
O68 Gd1 1_555 1_555
O69 Gd5 1_555 1_555
O70 C43 1_555 1_555
O71 Gd5 1_555 1_555
O72 C50 1_555 1_555
O73 Gd5 1_555 1_555
O74 C48 1_555 1_555
O75 C51 1_555 1_555
O76 Gd6 1_555 1_555
O77 C53 1_555 1_555
O78 Gd6 1_555 1_555
O79 Gd6 1_555 1_555
O80 C57 1_555 1_555
O81 Gd6 1_555 1_555
N1 Gd1 1_555 1_555
N2 Gd1 1_555 1_555
N3 Gd2 1_555 1_555
N4 Gd2 1_555 1_555
N6 Gd3 1_555 1_555
N7 Gd4 1_555 1_555
N8 Gd4 1_555 1_555
N9 Gd5 1_555 1_555
N10 Gd5 1_555 1_555
N11 Gd6 1_555 1_555
C1 O12 1_555 1_555
C2 N1 1_555 1_555
H13 C2 1_555 1_555
H14 C2 1_555 1_555
C5 N1 1_555 1_555
H16 C5 1_555 1_555
C6 N2 1_555 1_555
H18 C6 1_555 1_555
H19 C6 1_555 1_555
C7 O20 1_555 1_555
C8 N2 1_555 1_555
H20 C8 1_555 1_555
H21 C8 1_555 1_555
C9 O24 1_555 1_555
C10 N2 1_555 1_555
H22 C10 1_555 1_555
H23 C10 1_555 1_555
C11 O34 1_555 1_555
C12 N3 1_555 1_555
H24 C12 1_555 1_555
H25 C12 1_555 1_555
C13 N3 1_555 1_555
H26 C13 1_555 1_555
H27 C13 1_555 1_555
C14 O30 1_555 1_555
C15 N3 1_555 1_555
H28 C15 1_555 1_555
H29 C15 1_555 1_555
C16 N4 1_555 1_555
H30 C16 1_555 1_555
H31 C16 1_555 1_555
C17 N4 1_555 1_555
H32 C17 1_555 1_555
H33 C17 1_555 1_555
C18 O38 1_555 1_555
C19 N4 1_555 1_555
H34 C19 1_555 1_555
H35 C19 1_555 1_555
C20 O42 1_555 1_555
C21 O46 1_555 1_555
H36 C22 1_555 1_555
H37 C22 1_555 1_555
C27 N6 1_555 1_555
H44 C27 1_555 1_555
H45 C27 1_555 1_555
C28 O54 1_555 1_555
C31 O59 1_555 1_555
C32 N7 1_555 1_555
H48 C32 1_555 1_555
H49 C32 1_555 1_555
C33 N7 1_555 1_555
H50 C33 1_555 1_555
H51 C33 1_555 1_555
C34 O61 1_555 1_555
C35 N8 1_555 1_555
H52 C35 1_555 1_555
H53 C35 1_555 1_555
C36 N7 1_555 1_555
H54 C36 1_555 1_555
H55 C36 1_555 1_555
C37 N8 1_555 1_555
H56 C37 1_555 1_555
H57 C37 1_555 1_555
C38 O63 1_555 1_555
C39 N8 1_555 1_555
H58 C39 1_555 1_555
H59 C39 1_555 1_555
C40 O65 1_555 1_555
C41 O67 1_555 1_555
C43 O69 1_555 1_555
C47 N10 1_555 1_555
H68 C47 1_555 1_555
H69 C47 1_555 1_555
C48 O73 1_555 1_555
C49 N10 1_555 1_555
H70 C49 1_555 1_555
H71 C49 1_555 1_555
C50 O71 1_555 1_555
C51 O76 1_555 1_555
C52 N11 1_555 1_555
C53 O78 1_555 1_555
C54 N11 1_555 1_555
C57 O79 1_555 1_555
H81 C58 1_555 1_555
C60 O81 1_555 1_555
Gd11 O32 1_555 1_555
Gd12 O70 1_555 1_555
O85 Gd10 1_555 1_555
O86 Gd9 1_555 1_555
O87 Gd9 1_555 1_555
Na1 O14 1_555 1_555
O36 C11 1_555 1_555
O44 C20 1_555 1_555
O48 C21 1_555 1_555
O60 C31 1_555 1_555
O66 C40 1_555 1_555
O68 C41 1_555 1_555
C1 C2 1_555 1_555
C5 C6 1_555 1_555
C7 C8 1_555 1_555
C9 C10 1_555 1_555
C11 C12 1_555 1_555
C13 C14 1_555 1_555
C15 C16 1_555 1_555
C17 C18 1_555 1_555
C19 C20 1_555 1_555
C21 C22 1_555 1_555
C27 C28 1_555 1_555
C31 C32 1_555 1_555
C33 C34 1_555 1_555
C35 C36 1_555 1_555
C37 C38 1_555 1_555
C39 C40 1_555 1_555
C47 C48 1_555 1_555
C49 C50 1_555 1_555
C51 C52 1_555 1_555
C53 C54 1_555 1_555
C57 C58 1_555 1_555
O43 H87 1_555 1_555
O43 H88 1_555 1_555
O51 H89 1_555 1_555
O47 H91 1_555 1_555
O47 H92 1_555 1_555
O49 H93 1_555 1_555
O49 H94 1_555 1_555
O45 H97 1_555 1_555
O45 H98 1_555 1_555
O55 H99 1_555 1_555
O55 H100 1_555 1_555
O29 H109 1_555 1_555
O29 H110 1_555 1_555
O33 H113 1_555 1_555
O33 H114 1_555 1_555
O35 H115 1_555 1_555
O35 H116 1_555 1_555
O37 H117 1_555 1_555
O37 H118 1_555 1_555
O26 H119 1_555 1_555
O39 H121 1_555 1_555
O39 H122 1_555 1_555
O28 H123 1_555 1_555
O28 H124 1_555 1_555
O41 H125 1_555 1_555
O41 H126 1_555 1_555
Gd14 O62 1_555 1_555
O13 Gd12 1_555 1_555
O16 Gd12 1_555 1_555
O27 Gd12 1_555 1_555
O86 C23 1_555 1_555
O57 Gd12 1_555 1_555
C23 O52 1_555 1_555
C24 N5 1_555 1_555
H38 C24 1_555 1_555
H39 C24 1_555 1_555
C25 N5 1_555 1_555
H41 C25 1_555 1_555
H42 C26 1_555 1_555
H43 C26 1_555 1_555
H46 C29 1_555 1_555
H47 C29 1_555 1_555
C30 O57 1_555 1_555
H76 C55 1_555 1_555
H77 C55 1_555 1_555
C56 N12 1_555 1_555
H78 C56 1_555 1_555
H79 C56 1_555 1_555
C59 N12 1_555 1_555
H82 C59 1_555 1_555
H83 C59 1_555 1_555
O58 C30 1_555 1_555
C23 C24 1_555 1_555
C25 C26 1_555 1_555
C29 C30 1_555 1_555
C55 C56 1_555 1_555
O13 H103 1_555 1_555
O13 H104 1_555 1_555
O16 H105 1_555 1_555
O16 H106 1_555 1_555
O31 H111 1_555 1_555
O31 H112 1_555 1_555
O13_2 Gd8 1_555 1_555
O16_2 Gd8 1_555 1_555
O27_2 Gd8 1_555 1_555
O50 C23_2 1_555 1_555
O57_2 Gd8 1_555 1_555
C23_2 O52_2 1_555 1_555
C24_2 N5_2 1_555 1_555
H38_2 C24_2 1_555 1_555
H39_2 C24_2 1_555 1_555
C25_2 N5_2 1_555 1_555
H41_2 C25_2 1_555 1_555
H42_2 C26_2 1_555 1_555
H43_2 C26_2 1_555 1_555
H46_2 C29_2 1_555 1_555
H47_2 C29_2 1_555 1_555
C30_2 O57_2 1_555 1_555
H76_2 C55_2 1_555 1_555
H77_2 C55_2 1_555 1_555
C56_2 N12_2 1_555 1_555
H78_2 C56_2 1_555 1_555
H79_2 C56_2 1_555 1_555
C59_2 N12_2 1_555 1_555
H82_2 C59_2 1_555 1_555
H83_2 C59_2 1_555 1_555
Gd14 O50 1_555 1_555
O88 Gd8 1_555 1_555
O58_2 C30_2 1_555 1_555
C23_2 C24_2 1_555 1_555
C25_2 C26_2 1_555 1_555
C29_2 C30_2 1_555 1_555
C55_2 C56_2 1_555 1_555
O13_2 H103_2 1_555 1_555
O13_2 H104_2 1_555 1_555
O16_2 H105_2 1_555 1_555
O16_2 H106_2 1_555 1_555
O31_2 H111_2 1_555 1_555
O31_2 H112_2 1_555 1_555
Gd1_2 O11_2 1_555 1_555
Gd2_2 O10_2 1_555 1_555
Gd3_2 O17_2 1_555 1_555
Gd4_2 O19_2 1_555 1_555
Gd5_2 O21_2 1_555 1_555
Gd6_2 O23_2 1_555 1_555
Gd11 O28_2 1_555 1_555
Gd14 O47_2 1_555 1_555
Na1_2 O11_2 1_555 1_555
O10_2 C1_2 1_555 1_555
O11_2 H1_2 1_555 1_555
H2_2 O11_2 1_555 1_555
O12_2 Gd1_2 1_555 1_555
O14_2 Gd2_2 1_555 1_555
H3_2 O14_2 1_555 1_555
H4_2 O14_2 1_555 1_555
O17_2 Na1_2 1_555 1_555
H5_2 O17_2 1_555 1_555
H6_2 O17_2 1_555 1_555
O19_2 Na1_2 1_555 1_555
H7_2 O19_2 1_555 1_555
H8_2 O19_2 1_555 1_555
O20_2 Gd1_2 1_555 1_555
O21_2 Na1_2 1_555 1_555
H9_2 O21_2 1_555 1_555
H10_2 O21_2 1_555 1_555
O23_2 Na1_2 1_555 1_555
H11_2 O23_2 1_555 1_555
H12_2 O23_2 1_555 1_555
O24_2 Gd1_2 1_555 1_555
O26_2 Gd1_2 1_555 1_555
O29_2 Gd2_2 1_555 1_555
O30_2 Gd2_2 1_555 1_555
O85 C14_2 1_555 1_555
O33_2 Gd4_2 1_555 1_555
O34_2 Gd2_2 1_555 1_555
O35_2 Gd5_2 1_555 1_555
O36_2 Gd5_2 1_555 1_555
O37_2 Gd6_2 1_555 1_555
O38_2 Gd2_2 1_555 1_555
O39_2 Gd11 1_555 1_555
O40_2 C18_2 1_555 1_555
O41_2 Gd11 1_555 1_555
O42_2 Gd2_2 1_555 1_555
O43_2 Gd11 1_555 1_555
O44_2 Gd11 1_555 1_555
O45_2 Gd11 1_555 1_555
O46_2 Gd4_2 1_555 1_555
O48_2 Gd3_2 1_555 1_555
O49_2 Gd14 1_555 1_555
O51_2 Gd14 1_555 1_555
O53_2 Gd14 1_555 1_555
O54_2 Gd3_2 1_555 1_555
O55_2 Gd14 1_555 1_555
O56_2 C28_2 1_555 1_555
O59_2 Gd4_2 1_555 1_555
O60_2 Gd6_2 1_555 1_555
O61_2 Gd4_2 1_555 1_555
O63_2 Gd4_2 1_555 1_555
O64_2 C38_2 1_555 1_555
O65_2 Gd4_2 1_555 1_555
O66_2 Gd14 1_555 1_555
O67_2 Gd5_2 1_555 1_555
O68_2 Gd1_2 1_555 1_555
O69_2 Gd5_2 1_555 1_555
O88 C43_2 1_555 1_555
O71_2 Gd5_2 1_555 1_555
O72_2 C50_2 1_555 1_555
O73_2 Gd5_2 1_555 1_555
O74_2 C48_2 1_555 1_555
O75_2 C51_2 1_555 1_555
O76_2 Gd6_2 1_555 1_555
O77_2 C53_2 1_555 1_555
O78_2 Gd6_2 1_555 1_555
O79_2 Gd6_2 1_555 1_555
O80_2 C57_2 1_555 1_555
O81_2 Gd6_2 1_555 1_555
N1_2 Gd1_2 1_555 1_555
N2_2 Gd1_2 1_555 1_555
N3_2 Gd2_2 1_555 1_555
N4_2 Gd2_2 1_555 1_555
N6_2 Gd3_2 1_555 1_555
N7_2 Gd4_2 1_555 1_555
N8_2 Gd4_2 1_555 1_555
N9_2 Gd5_2 1_555 1_555
N10_2 Gd5_2 1_555 1_555
N11_2 Gd6_2 1_555 1_555
C1_2 O12_2 1_555 1_555
C2_2 N1_2 1_555 1_555
H13_2 C2_2 1_555 1_555
H14_2 C2_2 1_555 1_555
C5_2 N1_2 1_555 1_555
H16_2 C5_2 1_555 1_555
C6_2 N2_2 1_555 1_555
H18_2 C6_2 1_555 1_555
H19_2 C6_2 1_555 1_555
C7_2 O20_2 1_555 1_555
C8_2 N2_2 1_555 1_555
H20_2 C8_2 1_555 1_555
H21_2 C8_2 1_555 1_555
C9_2 O24_2 1_555 1_555
C10_2 N2_2 1_555 1_555
H22_2 C10_2 1_555 1_555
H23_2 C10_2 1_555 1_555
C11_2 O34_2 1_555 1_555
C12_2 N3_2 1_555 1_555
H24_2 C12_2 1_555 1_555
H25_2 C12_2 1_555 1_555
C13_2 N3_2 1_555 1_555
H26_2 C13_2 1_555 1_555
H27_2 C13_2 1_555 1_555
C14_2 O30_2 1_555 1_555
C15_2 N3_2 1_555 1_555
H28_2 C15_2 1_555 1_555
H29_2 C15_2 1_555 1_555
C16_2 N4_2 1_555 1_555
H30_2 C16_2 1_555 1_555
H31_2 C16_2 1_555 1_555
C17_2 N4_2 1_555 1_555
H32_2 C17_2 1_555 1_555
H33_2 C17_2 1_555 1_555
C18_2 O38_2 1_555 1_555
C19_2 N4_2 1_555 1_555
H34_2 C19_2 1_555 1_555
H35_2 C19_2 1_555 1_555
C20_2 O42_2 1_555 1_555
C21_2 O46_2 1_555 1_555
H36_2 C22_2 1_555 1_555
H37_2 C22_2 1_555 1_555
C27_2 N6_2 1_555 1_555
H44_2 C27_2 1_555 1_555
H45_2 C27_2 1_555 1_555
C28_2 O54_2 1_555 1_555
C31_2 O59_2 1_555 1_555
C32_2 N7_2 1_555 1_555
H48_2 C32_2 1_555 1_555
H49_2 C32_2 1_555 1_555
C33_2 N7_2 1_555 1_555
H50_2 C33_2 1_555 1_555
H51_2 C33_2 1_555 1_555
C34_2 O61_2 1_555 1_555
C35_2 N8_2 1_555 1_555
H52_2 C35_2 1_555 1_555
H53_2 C35_2 1_555 1_555
C36_2 N7_2 1_555 1_555
H54_2 C36_2 1_555 1_555
H55_2 C36_2 1_555 1_555
C37_2 N8_2 1_555 1_555
H56_2 C37_2 1_555 1_555
H57_2 C37_2 1_555 1_555
C38_2 O63_2 1_555 1_555
C39_2 N8_2 1_555 1_555
H58_2 C39_2 1_555 1_555
H59_2 C39_2 1_555 1_555
C40_2 O65_2 1_555 1_555
C41_2 O67_2 1_555 1_555
C43_2 O69_2 1_555 1_555
C47_2 N10_2 1_555 1_555
H68_2 C47_2 1_555 1_555
H69_2 C47_2 1_555 1_555
C48_2 O73_2 1_555 1_555
C49_2 N10_2 1_555 1_555
H70_2 C49_2 1_555 1_555
H71_2 C49_2 1_555 1_555
C50_2 O71_2 1_555 1_555
C51_2 O76_2 1_555 1_555
C52_2 N11_2 1_555 1_555
C53_2 O78_2 1_555 1_555
C54_2 N11_2 1_555 1_555
C57_2 O79_2 1_555 1_555
H81_2 C58_2 1_555 1_555
C60_2 O81_2 1_555 1_555
O84 Gd11 1_555 1_555
Na1_2 O14_2 1_555 1_555
O36_2 C11_2 1_555 1_555
O44_2 C20_2 1_555 1_555
O48_2 C21_2 1_555 1_555
O60_2 C31_2 1_555 1_555
O66_2 C40_2 1_555 1_555
O68_2 C41_2 1_555 1_555
C1_2 C2_2 1_555 1_555
C5_2 C6_2 1_555 1_555
C7_2 C8_2 1_555 1_555
C9_2 C10_2 1_555 1_555
C11_2 C12_2 1_555 1_555
C13_2 C14_2 1_555 1_555
C15_2 C16_2 1_555 1_555
C17_2 C18_2 1_555 1_555
C19_2 C20_2 1_555 1_555
C21_2 C22_2 1_555 1_555
C27_2 C28_2 1_555 1_555
C31_2 C32_2 1_555 1_555
C33_2 C34_2 1_555 1_555
C35_2 C36_2 1_555 1_555
C37_2 C38_2 1_555 1_555
C39_2 C40_2 1_555 1_555
C47_2 C48_2 1_555 1_555
C49_2 C50_2 1_555 1_555
C51_2 C52_2 1_555 1_555
C53_2 C54_2 1_555 1_555
C57_2 C58_2 1_555 1_555
O43_2 H87_2 1_555 1_555
O43_2 H88_2 1_555 1_555
O51_2 H89_2 1_555 1_555
O47_2 H91_2 1_555 1_555
O47_2 H92_2 1_555 1_555
O49_2 H93_2 1_555 1_555
O49_2 H94_2 1_555 1_555
O45_2 H97_2 1_555 1_555
O45_2 H98_2 1_555 1_555
O55_2 H99_2 1_555 1_555
O55_2 H100_2 1_555 1_555
O29_2 H109_2 1_555 1_555
O29_2 H110_2 1_555 1_555
O33_2 H113_2 1_555 1_555
O33_2 H114_2 1_555 1_555
O35_2 H115_2 1_555 1_555
O35_2 H116_2 1_555 1_555
O37_2 H117_2 1_555 1_555
O37_2 H118_2 1_555 1_555
O26_2 H119_2 1_555 1_555
O39_2 H121_2 1_555 1_555
O39_2 H122_2 1_555 1_555
O28_2 H123_2 1_555 1_555
O28_2 H124_2 1_555 1_555
O41_2 H125_2 1_555 1_555
O41_2 H126_2 1_555 1_555
O84 C4_2 1_555 1_555
H15_2 C3_2 1_555 1_555
C4_2 O15_2 1_555 1_555
H61_2 C42_2 1_555 1_555
H62_2 C44_2 1_555 1_555
H64_2 C45_2 1_555 1_555
H65_2 C45_2 1_555 1_555
H66_2 C46_2 1_555 1_555
H67_2 C46_2 1_555 1_555
C3_2 C4_2 1_555 1_555
C45_2 C46_2 1_555 1_555
C3_2 H86_2 1_555 1_555
O25_2 H107_2 1_555 1_555
O25_2 H108_2 1_555 1_555
O83 H84 1_555 1_555
O83 H85 1_555 1_555
O9 H101 1_555 1_555
O9 H102 1_555 1_555
O83_2 H84_2 1_555 1_555
O83_2 H85_2 1_555 1_555
O9_2 H101_2 1_555 1_555
O9_2 H102_2 1_555 1_555

#END
