
###############################################################################
#
# This file contains modified crystal structure data generated from the
# MOF subset of the Cambridge Structural Database (CSD) v543 
# hosted by the Cambridge Crystallographic Data Centre (CCDC).
#
# This work is licensed under the Creative Commons
# Attribution-NonCommercial-ShareAlike 4.0 International License.
# To view a copy of this license, visit
# http://creativecommons.org/licenses/by-nc-sa/4.0/
# or send a letter to
# Creative Commons, PO Box 1866, Mountain View, CA 94042, USA.
#
# CIF created using the CSD Python API on 29 September 2022
# The structure has been converted into the P1 space group
# The structure has a 3D framework
# The original CSD entry ZAQWEW is in the orthorhombic crystal system
# The framework has been calculated to contain at least 10.0% void space
# The void calculation uses a probe of radius 1.32A, grid spacing 0.4
#
###############################################################################

data_ZAQWEW
_chemical_formula_moiety         '(C256 H208 Cd22 K9 O172)n'
_symmetry_cell_setting           triclinic
_symmetry_space_group_name_H-M   'P 1'
_symmetry_Int_Tables_number      1
_space_group_name_Hall           'P 1'
loop_
_symmetry_equiv_pos_site_id
_symmetry_equiv_pos_as_xyz
1 x,y,z
_cell_length_a                   26.6152(13)
_cell_length_b                   11.7449(5)
_cell_length_c                   29.5923(14)
_cell_angle_alpha                90
_cell_angle_beta                 90
_cell_angle_gamma                90
_cell_volume                     9250.34
loop_
_atom_site_label
_atom_site_type_symbol
_atom_site_fract_x
_atom_site_fract_y
_atom_site_fract_z
Cd3 Cd 0.49425(2) 0.26071(3) 0.62239(2)
K1 K 0.5000 0.10980(11) 0.7500
O5 O 0.57779(13) 0.2870(3) 0.62106(12)
O6 O 0.55644(12) 0.2522(3) 0.69203(13)
O7 O 0.64248(14) 0.6075(3) 0.69482(14)
H1 H 0.6241 0.6655 0.6963
O8 O 0.57754(15) 0.4932(3) 0.68578(19)
O20 O 0.4932(2) 0.2815(7) 0.5448(2)
H9 H 0.4637 0.2748 0.5351
H10 H 0.5114 0.2309 0.5332
O21 O 0.4833(2) 0.4586(4) 0.62662(19)
H11 H 0.4525 0.4737 0.6276
H12 H 0.4961 0.4897 0.6038
O22 O 0.5057(2) 0.0664(4) 0.6181(2)
H13 H 0.4775 0.0342 0.6182
H14 H 0.5212 0.0495 0.5943
C5 C 0.62555(15) 0.0358(3) 0.67925(14)
H16 H 0.6104 0.0698 0.7042
C6 C 0.66180(16) 0.0956(3) 0.65502(14)
C7 C 0.68351(17) 0.0440(4) 0.61679(15)
H17 H 0.7081 0.0822 0.6004
C9 C 0.67793(16) 0.2129(3) 0.66833(14)
C10 C 0.64280(15) 0.3021(3) 0.67455(14)
C11 C 0.65938(17) 0.4110(3) 0.68593(15)
C12 C 0.71063(17) 0.4314(4) 0.69267(15)
H18 H 0.7214 0.5035 0.7013
C13 C 0.74514(17) 0.3456(4) 0.68659(16)
H19 H 0.7792 0.3596 0.6909
C14 C 0.72886(16) 0.2385(4) 0.67395(16)
H20 H 0.7525 0.1816 0.6690
C15 C 0.58835(16) 0.2794(3) 0.66308(16)
C16 C 0.62220(19) 0.5064(4) 0.68888(18)
Cd5 Cd 0.50575(2) 0.26071(3) 0.87761(2)
O27 O 0.42221(13) 0.2870(3) 0.87894(12)
O28 O 0.44356(12) 0.2522(3) 0.80797(13)
O29 O 0.35752(14) 0.6075(3) 0.80518(14)
H27 H 0.3759 0.6655 0.8037
O30 O 0.42246(15) 0.4932(3) 0.81422(19)
O42 O 0.5068(2) 0.2815(7) 0.9552(2)
H35 H 0.5363 0.2748 0.9649
H36 H 0.4886 0.2309 0.9668
O43 O 0.5167(2) 0.4586(4) 0.87338(19)
H37 H 0.5475 0.4737 0.8724
H38 H 0.5039 0.4897 0.8962
O44 O 0.4943(2) 0.0664(4) 0.8819(2)
H39 H 0.5225 0.0342 0.8818
H40 H 0.4788 0.0495 0.9057
C37 C 0.37445(15) 0.0358(3) 0.82075(14)
H42 H 0.3896 0.0698 0.7958
C38 C 0.33820(16) 0.0956(3) 0.84498(14)
C39 C 0.31649(17) 0.0440(4) 0.88321(15)
H43 H 0.2919 0.0822 0.8996
C41 C 0.32207(16) 0.2129(3) 0.83167(14)
C42 C 0.35720(15) 0.3021(3) 0.82545(14)
C43 C 0.34062(17) 0.4110(3) 0.81407(15)
C44 C 0.28937(17) 0.4314(4) 0.80733(15)
H44 H 0.2786 0.5035 0.7987
C45 C 0.25486(17) 0.3456(4) 0.81341(16)
H45 H 0.2208 0.3596 0.8091
C46 C 0.27114(16) 0.2385(4) 0.82605(16)
H46 H 0.2475 0.1816 0.8310
C47 C 0.41165(16) 0.2794(3) 0.83692(16)
C48 C 0.37780(19) 0.5064(4) 0.81112(18)
K4 K 0.5000 0.40606(12) 0.7500
O53 O 0.41843(15) 0.0224(3) 0.68600(17)
O54 O 0.58157(15) 0.0224(3) 0.81400(17)
O55 O 0.40876(13) 0.2348(3) 0.62355(11)
O56 O 0.59124(13) 0.2348(3) 0.87645(11)
O57 O 0.44088(12) 0.2632(3) 0.69120(12)
O58 O 0.55912(12) 0.2632(3) 0.80880(12)
Cd4 Cd 0.27904(2) 0.77963(3) 0.01862(2)
O39 O 0.31129(16) 0.5993(3) 0.02639(14)
H29 H 0.2882 0.5549 0.0344
H30 H 0.3342 0.5991 0.0459
O40 O 0.35245(15) 0.8459(3) 0.05418(13)
H31 H 0.3499 0.8392 0.0823
H32 H 0.3568 0.9147 0.0475
O49 O 0.22451(14) 0.7497(3) 0.08740(12)
O51 O 0.24037(15) 0.9185(3) 0.06005(11)
Cd1 Cd 0.72096(2) 0.77963(3) 0.48138(2)
Cd2 Cd 0.5000 0.76026(3) 0.7500
O1 O 0.72034 0.9384(4) 0.53786(13)
O2 O 0.67532(16) 0.7859(3) 0.54939(12)
O3 O 0.56829(13) 0.7571(2) 0.69157(12)
O4 O 0.54093(12) 0.9199(3) 0.71614(12)
O9 O 0.45892(13) 0.5971(3) 0.71614(14)
O10 O 0.42733(12) 0.7621(2) 0.69902(12)
O11 O 0.27549(14) 0.7503(3) 0.58740(12)
O12 O 0.25963(15) 0.5815(3) 0.56005(11)
O17 O 0.68871(16) 0.5993(3) 0.47361(14)
H3 H 0.7118 0.5549 0.4656
H4 H 0.6658 0.5991 0.4541
O18 O 0.64755(15) 0.8459(3) 0.44582(13)
H5 H 0.6501 0.8392 0.4177
H6 H 0.6432 0.9147 0.4525
O19 O 0.78626(18) 0.6861(5) 0.51633(17)
H7 H 0.7749 0.6331 0.5324
H8 H 0.8018 0.7326 0.5327
C1 C 0.69008(19) 0.8831(4) 0.56112(15)
C2 C 0.66812(17) 0.9359(4) 0.60357(14)
C3 C 0.63314(16) 0.8759(3) 0.62880(14)
H15 H 0.6241 0.8024 0.6204
C4 C 0.61156(15) 0.9260(3) 0.66672(14)
C8 C 0.57145(15) 0.8643(3) 0.69321(14)
C17 C 0.42464(15) 0.6530(3) 0.69889(14)
C18 C 0.38050(15) 0.5936(3) 0.67765(14)
C19 C 0.35092(16) 0.6487(3) 0.64537(14)
H21 H 0.3575 0.7239 0.6376
C20 C 0.31136(16) 0.5903(3) 0.62473(14)
C21 C 0.30113(16) 0.4774(3) 0.63726(14)
H22 H 0.2750 0.4385 0.6232
C22 C 0.32973(15) 0.4220(3) 0.67060(14)
C23 C 0.36973(16) 0.4822(3) 0.68970(14)
H23 H 0.3898 0.4463 0.7112
C24 C 0.28031(17) 0.6453(4) 0.58886(14)
C25 C 0.31676(16) 0.3048(3) 0.68559(14)
C26 C 0.35270(15) 0.2158(3) 0.68551(14)
C27 C 0.33866(17) 0.1071(3) 0.70024(15)
C28 C 0.29018(17) 0.0881(4) 0.71603(15)
H24 H 0.2815 0.0169 0.7274
C29 C 0.25445(17) 0.1745(4) 0.71504(16)
H25 H 0.2218 0.1610 0.7249
C30 C 0.26810(17) 0.2808(4) 0.69920(16)
H26 H 0.2439 0.3378 0.6976
C31 C 0.37503(18) 0.0109(4) 0.69740(17)
C32 C 0.40462(16) 0.2385(3) 0.66619(16)
O23 O 0.27966 0.9384(4) 0.96214(13)
O24 O 0.32468(16) 0.7859(3) 0.95061(12)
O25 O 0.43171(13) 0.7571(2) 0.80843(12)
O26 O 0.45907(12) 0.9199(3) 0.78386(12)
O31 O 0.54108(13) 0.5971(3) 0.78386(14)
O32 O 0.57267(12) 0.7621(2) 0.80098(12)
O33 O 0.72451(14) 0.7503(3) 0.91260(12)
O34 O 0.74037(15) 0.5815(3) 0.93995(11)
O41 O 0.21374(18) 0.6861(5) 0.98367(17)
H33 H 0.2251 0.6331 0.9676
H34 H 0.1982 0.7326 0.9673
C33 C 0.30992(19) 0.8831(4) 0.93888(15)
C34 C 0.33188(17) 0.9359(4) 0.89643(14)
C35 C 0.36686(16) 0.8759(3) 0.87120(14)
H41 H 0.3759 0.8024 0.8796
C36 C 0.38844(15) 0.9260(3) 0.83328(14)
C40 C 0.42855(15) 0.8643(3) 0.80679(14)
C49 C 0.57536(15) 0.6530(3) 0.80111(14)
C50 C 0.61950(15) 0.5936(3) 0.82235(14)
C51 C 0.64908(16) 0.6487(3) 0.85463(14)
H47 H 0.6425 0.7239 0.8624
C52 C 0.68864(16) 0.5903(3) 0.87527(14)
C53 C 0.69887(16) 0.4774(3) 0.86274(14)
H48 H 0.7250 0.4385 0.8768
C54 C 0.67027(15) 0.4220(3) 0.82940(14)
C55 C 0.63027(16) 0.4822(3) 0.81030(14)
H49 H 0.6102 0.4463 0.7888
C56 C 0.71969(17) 0.6453(4) 0.91114(14)
C57 C 0.68324(16) 0.3048(3) 0.81441(14)
C58 C 0.64730(15) 0.2158(3) 0.81449(14)
C59 C 0.66134(17) 0.1071(3) 0.79976(15)
C60 C 0.70982(17) 0.0881(4) 0.78397(15)
H50 H 0.7185 0.0169 0.7726
C61 C 0.74555(17) 0.1745(4) 0.78496(16)
H51 H 0.7782 0.1610 0.7751
C62 C 0.73190(17) 0.2808(4) 0.80080(16)
H52 H 0.7561 0.3378 0.8024
C63 C 0.62497(18) 0.0109(4) 0.80260(17)
C64 C 0.59538(16) 0.2385(3) 0.83381(16)
Cd6 Cd 0.77904(2) 0.72037(3) 0.98138(2)
Cd7 Cd 0.22096(2) 0.72037(3) 0.51862(2)
O50 O 0.77549(14) 0.7497(3) 0.41260(12)
O52 O 0.75963(15) 0.9185(3) 0.43995(11)
K2 K -0.0000 0.09394(12) 0.2500
O13 O 0.14419(13) 0.5886(3) 0.20914(13)
H2 H 0.1261 0.6472 0.2090
O14 O 0.08157(15) 0.4776(3) 0.18600(17)
O15 O 0.09124(13) 0.2652(3) 0.12355(11)
O16 O 0.05912(12) 0.2368(3) 0.19120(12)
C21_2 C 0.19887(16) 0.0226(3) 0.13726(14)
H22_2 H 0.2250 0.0615 0.1232
C22_2 C 0.17027(15) 0.0780(3) 0.17060(14)
C23_2 C 0.13027(16) 0.0178(3) 0.18970(14)
H23_2 H 0.1102 0.0537 0.2112
C25_2 C 0.18324(16) 0.1952(3) 0.18559(14)
C26_2 C 0.14730(15) 0.2842(3) 0.18551(14)
C27_2 C 0.16134(17) 0.3929(3) 0.20024(15)
C28_2 C 0.20982(17) 0.4119(4) 0.21603(15)
H24_2 H 0.2185 0.4831 0.2274
C29_2 C 0.24555(17) 0.3255(4) 0.21504(16)
H25_2 H 0.2782 0.3390 0.2249
C30_2 C 0.23190(17) 0.2192(4) 0.19920(16)
H26_2 H 0.2561 0.1622 0.1976
C31_2 C 0.12497(18) 0.4891(4) 0.19740(17)
C32_2 C 0.09538(16) 0.2615(3) 0.16619(16)
Cd8 Cd 0.00575(2) 0.23929(3) 0.12239(2)
K3 K -0.0000 0.39020(11) 0.2500
O46 O 0.05644(12) 0.2478(3) 0.30797(13)
O48 O 0.07754(15) 0.0068(3) 0.31422(19)
Cd2_2 Cd -0.0000 0.73974(3) 0.2500
O9_2 O 0.04108(13) 0.9029(3) 0.21614(14)
O10_2 O 0.07267(12) 0.7379(2) 0.19902(12)
O20_2 O 0.0068(2) 0.2185(7) 0.0448(2)
H9_2 H 0.0363 0.2252 0.0351
O21_2 O 0.0167(2) 0.0414(4) 0.12662(19)
H11_2 H 0.0475 0.0263 0.1276
H12_2 H 0.0039 0.0103 0.1038
H13_2 H 0.0225 0.4658 0.1182
C17_2 C 0.07536(15) 0.8470(3) 0.19889(14)
C18_2 C 0.11950(15) 0.9064(3) 0.17765(14)
C19_2 C 0.14908(16) 0.8513(3) 0.14537(14)
H21_2 H 0.1425 0.7761 0.1376
C20_2 C 0.18864(16) 0.9097(3) 0.12473(14)
C24_2 C 0.21969(17) 0.8547(4) 0.08886(14)
O23_2 O 0.22034 0.5616(4) 0.46214(13)
O24_2 O 0.17532(16) 0.7141(3) 0.45061(12)
O25_2 O 0.06829(13) 0.7429(2) 0.30843(12)
O26_2 O 0.04093(12) 0.5801(3) 0.28386(12)
O27_2 O 0.07779(13) 0.2130(3) 0.37894(12)
O39_2 O 0.18871(16) 0.9007(3) 0.52639(14)
H29_2 H 0.2118 0.9451 0.5344
H30_2 H 0.1658 0.9009 0.5459
O40_2 O 0.14755(15) 0.6541(3) 0.55418(13)
H31_2 H 0.1501 0.6608 0.5823
H32_2 H 0.1432 0.5853 0.5475
O41_2 O 0.28626(18) 0.8139(5) 0.48367(17)
H33_2 H 0.2749 0.8669 0.4676
H34_2 H 0.3018 0.7674 0.4673
H36_2 H 0.0114 0.2691 0.4668
O44_2 O 0.0057(2) 0.4336(4) 0.3819(2)
H40_2 H 0.0212 0.4505 0.4057
C33_2 C 0.19008(19) 0.6169(4) 0.43888(15)
C34_2 C 0.16812(17) 0.5641(4) 0.39643(14)
C35_2 C 0.13314(16) 0.6241(3) 0.37120(14)
H41_2 H 0.1241 0.6976 0.3796
C36_2 C 0.11156(15) 0.5740(3) 0.33328(14)
C37_2 C 0.12555(15) 0.4642(3) 0.32075(14)
H42_2 H 0.1104 0.4302 0.2958
C38_2 C 0.16180(16) 0.4044(3) 0.34498(14)
C39_2 C 0.18351(17) 0.4560(4) 0.38321(15)
H43_2 H 0.2081 0.4178 0.3996
C40_2 C 0.07145(15) 0.6357(3) 0.30679(14)
C41_2 C 0.17793(16) 0.2871(3) 0.33167(14)
C42_2 C 0.14280(15) 0.1979(3) 0.32545(14)
C43_2 C 0.15938(17) 0.0890(3) 0.31407(15)
C44_2 C 0.21063(17) 0.0686(4) 0.30733(15)
C45_2 C 0.24514(17) 0.1544(4) 0.31341(16)
H45_2 H 0.2792 0.1404 0.3091
C46_2 C 0.22886(16) 0.2615(4) 0.32605(16)
H46_2 H 0.2525 0.3184 0.3310
C47_2 C 0.08835(16) 0.2206(3) 0.33692(16)
K2_2 K 1.0000 0.09394(12) 0.2500
O35 O 0.85581(13) 0.5886(3) 0.29086(13)
H28 H 0.8739 0.6472 0.2910
O36 O 0.91843(15) 0.4776(3) 0.31400(17)
O37 O 0.90876(13) 0.2652(3) 0.37645(11)
O38 O 0.94088(12) 0.2368(3) 0.30880(12)
C53_2 C 0.80113(16) 0.0226(3) 0.36274(14)
H48_2 H 0.7750 0.0615 0.3768
C54_2 C 0.82973(15) 0.0780(3) 0.32940(14)
C55_2 C 0.86973(16) 0.0178(3) 0.31030(14)
H49_2 H 0.8898 0.0537 0.2888
C57_2 C 0.81676(16) 0.1952(3) 0.31441(14)
C58_2 C 0.85270(15) 0.2842(3) 0.31449(14)
C59_2 C 0.83866(17) 0.3929(3) 0.29976(15)
C60_2 C 0.79018(17) 0.4119(4) 0.28397(15)
H50_2 H 0.7815 0.4831 0.2726
C61_2 C 0.75445(17) 0.3255(4) 0.28496(16)
H51_2 H 0.7218 0.3390 0.2751
C62_2 C 0.76810(17) 0.2192(4) 0.30080(16)
H52_2 H 0.7439 0.1622 0.3024
C63_2 C 0.87503(18) 0.4891(4) 0.30260(17)
C64_2 C 0.90462(16) 0.2615(3) 0.33381(16)
Cd9 Cd 0.99425(2) 0.23929(3) 0.37761(2)
K3_2 K 1.0000 0.39020(11) 0.2500
O45 O 0.94356(12) 0.2478(3) 0.19203(13)
O47 O 0.92246(15) 0.0068(3) 0.18578(19)
Cd2_3 Cd 1.0000 0.73974(3) 0.2500
O1_2 O 0.77966 0.5616(4) 0.03786(13)
O2_2 O 0.82468(16) 0.7141(3) 0.04939(12)
O3_2 O 0.93171(13) 0.7429(2) 0.19157(12)
O4_2 O 0.95907(12) 0.5801(3) 0.21614(12)
O5_2 O 0.92221(13) 0.2130(3) 0.12106(12)
O19_2 O 0.71374(18) 0.8139(5) 0.01633(17)
H7_2 H 0.7251 0.8669 0.0324
H8_2 H 0.6982 0.7674 0.0327
H10_2 H 0.9886 0.2691 0.0332
O22_2 O 0.9943(2) 0.4336(4) 0.1181(2)
H14_2 H 0.9788 0.4505 0.0943
C1_2 C 0.80992(19) 0.6169(4) 0.06112(15)
C2_2 C 0.83188(17) 0.5641(4) 0.10357(14)
C3_2 C 0.86686(16) 0.6241(3) 0.12880(14)
H15_2 H 0.8759 0.6976 0.1204
C4_2 C 0.88844(15) 0.5740(3) 0.16672(14)
C5_2 C 0.87445(15) 0.4642(3) 0.17925(14)
H16_2 H 0.8896 0.4302 0.2042
C6_2 C 0.83820(16) 0.4044(3) 0.15502(14)
C7_2 C 0.81649(17) 0.4560(4) 0.11679(15)
H17_2 H 0.7919 0.4178 0.1004
C8_2 C 0.92855(15) 0.6357(3) 0.19321(14)
C9_2 C 0.82207(16) 0.2871(3) 0.16833(14)
C10_2 C 0.85720(15) 0.1979(3) 0.17455(14)
C11_2 C 0.84062(17) 0.0890(3) 0.18593(15)
C12_2 C 0.78937(17) 0.0686(4) 0.19267(15)
C13_2 C 0.75486(17) 0.1544(4) 0.18659(16)
H19_2 H 0.7208 0.1404 0.1909
C14_2 C 0.77114(16) 0.2615(4) 0.17395(16)
H20_2 H 0.7475 0.3184 0.1690
C15_2 C 0.91165(16) 0.2206(3) 0.16308(16)
O31_2 O 0.95892(13) 0.9029(3) 0.28386(14)
O32_2 O 0.92733(12) 0.7379(2) 0.30098(12)
O42_2 O 0.9932(2) 0.2185(7) 0.4552(2)
H35_2 H 0.9637 0.2252 0.4649
O43_2 O 0.9833(2) 0.0414(4) 0.37338(19)
H37_2 H 0.9525 0.0263 0.3724
H38_2 H 0.9961 0.0103 0.3962
H39_2 H 0.9775 0.4658 0.3818
C49_2 C 0.92464(15) 0.8470(3) 0.30111(14)
C50_2 C 0.88050(15) 0.9064(3) 0.32235(14)
C51_2 C 0.85092(16) 0.8513(3) 0.35463(14)
H47_2 H 0.8575 0.7761 0.3624
C52_2 C 0.81136(16) 0.9097(3) 0.37527(14)
C56_2 C 0.78031(17) 0.8547(4) 0.41114(14)
O17_2 O 0.81129(16) 0.9007(3) 0.97361(14)
H3_2 H 0.7882 0.9451 0.9656
H4_2 H 0.8342 0.9009 0.9541
O18_2 O 0.85245(15) 0.6541(3) 0.94582(13)
H5_2 H 0.8499 0.6608 0.9177
H6_2 H 0.8568 0.5853 0.9525
O13_2 O 0.35581(13) 0.9114(3) 0.70914(13)
H2_2 H 0.3739 0.8528 0.7090
O35_2 O 0.64419(13) 0.9114(3) 0.79086(13)
H28_2 H 0.6261 0.8528 0.7910
O29_2 O 0.14248(14) 0.8925(3) 0.30518(14)
H27_2 H 0.1241 0.8345 0.3037
H44_2 H 0.2214 0.9965 0.2987
C48_2 C 0.12220(19) 0.9936(4) 0.31112(18)
O7_2 O 0.85752(14) 0.8925(3) 0.19482(14)
H1_2 H 0.8759 0.8345 0.1963
H18_2 H 0.7786 0.9965 0.2013
C16_2 C 0.87780(19) 0.9936(4) 0.18888(18)
O13_3 O 0.64419(13) 0.0886(3) 0.29086(13)
H2_3 H 0.6261 0.1472 0.2910
O35_3 O 0.35581(13) 0.0886(3) 0.20914(13)
H28_3 H 0.3739 0.1472 0.2090
Cd1_2 Cd 0.27904(2) 0.22037(3) 0.51862(2)
Cd2_4 Cd 0.5000 0.23974(3) 0.2500
K2_3 K 0.5000 0.59394(12) 0.2500
O1_3 O 0.27966 0.0616(4) 0.46214(13)
O2_3 O 0.32468(16) 0.2141(3) 0.45061(12)
O3_3 O 0.43171(13) 0.2429(2) 0.30843(12)
O4_3 O 0.45907(12) 0.0801(3) 0.28386(12)
O9_3 O 0.54108(13) 0.4029(3) 0.28386(14)
O10_3 O 0.57267(12) 0.2379(2) 0.30098(12)
O11_2 O 0.72451(14) 0.2497(3) 0.41260(12)
O12_2 O 0.74037(15) 0.4185(3) 0.43995(11)
O14_2 O 0.58157(15) 0.9776(3) 0.31400(17)
O15_2 O 0.59124(13) 0.7652(3) 0.37645(11)
O16_2 O 0.55912(12) 0.7368(3) 0.30880(12)
O17_3 O 0.31129(16) 0.4007(3) 0.52639(14)
H3_3 H 0.2882 0.4451 0.5344
H4_3 H 0.3342 0.4009 0.5459
O18_3 O 0.35245(15) 0.1541(3) 0.55418(13)
H5_3 H 0.3499 0.1608 0.5823
H6_3 H 0.3568 0.0853 0.5475
O19_3 O 0.21374(18) 0.3139(5) 0.48367(17)
H7_3 H 0.2251 0.3669 0.4676
H8_3 H 0.1982 0.2674 0.4673
C1_3 C 0.30992(19) 0.1169(4) 0.43888(15)
C2_3 C 0.33188(17) 0.0641(4) 0.39643(14)
C3_3 C 0.36686(16) 0.1241(3) 0.37120(14)
H15_3 H 0.3759 0.1976 0.3796
C4_3 C 0.38844(15) 0.0740(3) 0.33328(14)
C8_3 C 0.42855(15) 0.1357(3) 0.30679(14)
C17_3 C 0.57536(15) 0.3470(3) 0.30111(14)
C18_3 C 0.61950(15) 0.4064(3) 0.32235(14)
C19_3 C 0.64908(16) 0.3513(3) 0.35463(14)
H21_3 H 0.6425 0.2761 0.3624
C20_3 C 0.68864(16) 0.4097(3) 0.37527(14)
C21_3 C 0.69887(16) 0.5226(3) 0.36274(14)
H22_3 H 0.7250 0.5615 0.3768
C22_3 C 0.67027(15) 0.5780(3) 0.32940(14)
C23_3 C 0.63027(16) 0.5178(3) 0.31030(14)
H23_3 H 0.6102 0.5537 0.2888
C24_3 C 0.71969(17) 0.3547(4) 0.41114(14)
C25_3 C 0.68324(16) 0.6952(3) 0.31441(14)
C26_3 C 0.64730(15) 0.7842(3) 0.31449(14)
C27_3 C 0.66134(17) 0.8929(3) 0.29976(15)
C28_3 C 0.70982(17) 0.9119(4) 0.28397(15)
H24_3 H 0.7185 0.9831 0.2726
C29_3 C 0.74555(17) 0.8255(4) 0.28496(16)
H25_3 H 0.7782 0.8390 0.2751
C30_3 C 0.73190(17) 0.7192(4) 0.30080(16)
H26_3 H 0.7561 0.6622 0.3024
C31_3 C 0.62497(18) 0.9891(4) 0.30260(17)
C32_3 C 0.59538(16) 0.7615(3) 0.33381(16)
O23_3 O 0.72034 0.0616(4) 0.03786(13)
O24_3 O 0.67532(16) 0.2141(3) 0.04939(12)
O25_3 O 0.56829(13) 0.2429(2) 0.19157(12)
O26_3 O 0.54093(12) 0.0801(3) 0.21614(12)
O31_3 O 0.45892(13) 0.4029(3) 0.21614(14)
O32_3 O 0.42733(12) 0.2379(2) 0.19902(12)
O33_2 O 0.27549(14) 0.2497(3) 0.08740(12)
O34_2 O 0.25963(15) 0.4185(3) 0.06005(11)
O36_2 O 0.41843(15) 0.9776(3) 0.18600(17)
O37_2 O 0.40876(13) 0.7652(3) 0.12355(11)
O38_2 O 0.44088(12) 0.7368(3) 0.19120(12)
O41_3 O 0.78626(18) 0.3139(5) 0.01633(17)
H33_3 H 0.7749 0.3669 0.0324
H34_3 H 0.8018 0.2674 0.0327
C33_3 C 0.69008(19) 0.1169(4) 0.06112(15)
C34_3 C 0.66812(17) 0.0641(4) 0.10357(14)
C35_3 C 0.63314(16) 0.1241(3) 0.12880(14)
H41_3 H 0.6241 0.1976 0.1204
C36_3 C 0.61156(15) 0.0740(3) 0.16672(14)
C40_3 C 0.57145(15) 0.1357(3) 0.19321(14)
C49_3 C 0.42464(15) 0.3470(3) 0.19889(14)
C50_3 C 0.38050(15) 0.4064(3) 0.17765(14)
C51_3 C 0.35092(16) 0.3513(3) 0.14537(14)
H47_3 H 0.3575 0.2761 0.1376
C52_3 C 0.31136(16) 0.4097(3) 0.12473(14)
C53_3 C 0.30113(16) 0.5226(3) 0.13726(14)
H48_3 H 0.2750 0.5615 0.1232
C54_3 C 0.32973(15) 0.5780(3) 0.17060(14)
C55_3 C 0.36973(16) 0.5178(3) 0.18970(14)
H49_3 H 0.3898 0.5537 0.2112
C56_3 C 0.28031(17) 0.3547(4) 0.08886(14)
C57_3 C 0.31676(16) 0.6952(3) 0.18559(14)
C58_3 C 0.35270(15) 0.7842(3) 0.18551(14)
C59_3 C 0.33866(17) 0.8929(3) 0.20024(15)
C60_3 C 0.29018(17) 0.9119(4) 0.21603(15)
H50_3 H 0.2815 0.9831 0.2274
C61_3 C 0.25445(17) 0.8255(4) 0.21504(16)
H51_3 H 0.2218 0.8390 0.2249
C62_3 C 0.26810(17) 0.7192(4) 0.19920(16)
H52_3 H 0.2439 0.6622 0.1976
C63_3 C 0.37503(18) 0.9891(4) 0.19740(17)
C64_3 C 0.40462(16) 0.7615(3) 0.16619(16)
Cd6_2 Cd 0.22096(2) 0.27963(3) 0.01862(2)
Cd7_2 Cd 0.77904(2) 0.27963(3) 0.48138(2)
Cd8_2 Cd 0.50575(2) 0.73929(3) 0.37761(2)
Cd9_2 Cd 0.49425(2) 0.73929(3) 0.12239(2)
K3_3 K 0.5000 0.89020(11) 0.2500
O45_2 O 0.44356(12) 0.7478(3) 0.30797(13)
O46_2 O 0.55644(12) 0.7478(3) 0.19203(13)
O47_2 O 0.42246(15) 0.5068(3) 0.31422(19)
O48_2 O 0.57754(15) 0.5068(3) 0.18578(19)
O50_2 O 0.22451(14) 0.2503(3) 0.58740(12)
O52_2 O 0.24037(15) 0.0815(3) 0.56005(11)
Cd4_2 Cd 0.72096(2) 0.22037(3) 0.98138(2)
O39_3 O 0.68871(16) 0.4007(3) 0.97361(14)
H29_3 H 0.7118 0.4451 0.9656
H30_3 H 0.6658 0.4009 0.9541
O40_3 O 0.64755(15) 0.1541(3) 0.94582(13)
H31_3 H 0.6501 0.1608 0.9177
H32_3 H 0.6432 0.0853 0.9525
O49_2 O 0.77549(14) 0.2503(3) 0.91260(12)
O51_2 O 0.75963(15) 0.0815(3) 0.93995(11)
O5_3 O 0.42221(13) 0.7130(3) 0.37894(12)
O7_3 O 0.35752(14) 0.3925(3) 0.30518(14)
H1_3 H 0.3759 0.3345 0.3037
O20_3 O 0.5068(2) 0.7185(7) 0.4552(2)
H9_3 H 0.5363 0.7252 0.4649
H10_3 H 0.4886 0.7691 0.4668
O21_3 O 0.5167(2) 0.5414(4) 0.37338(19)
H11_3 H 0.5475 0.5263 0.3724
H12_3 H 0.5039 0.5103 0.3962
O22_3 O 0.4943(2) 0.9336(4) 0.3819(2)
H13_3 H 0.5225 0.9658 0.3818
H14_3 H 0.4788 0.9505 0.4057
C5_3 C 0.37445(15) 0.9642(3) 0.32075(14)
H16_3 H 0.3896 0.9302 0.2958
C6_3 C 0.33820(16) 0.9044(3) 0.34498(14)
C7_3 C 0.31649(17) 0.9560(4) 0.38321(15)
H17_3 H 0.2919 0.9178 0.3996
C9_3 C 0.32207(16) 0.7871(3) 0.33167(14)
C10_3 C 0.35720(15) 0.6979(3) 0.32545(14)
C11_3 C 0.34062(17) 0.5890(3) 0.31407(15)
C12_3 C 0.28937(17) 0.5686(4) 0.30733(15)
H18_3 H 0.2786 0.4965 0.2987
C13_3 C 0.25486(17) 0.6544(4) 0.31341(16)
H19_3 H 0.2208 0.6404 0.3091
C14_3 C 0.27114(16) 0.7615(4) 0.32605(16)
H20_3 H 0.2475 0.8184 0.3310
C15_3 C 0.41165(16) 0.7206(3) 0.33692(16)
C16_3 C 0.37780(19) 0.4936(4) 0.31112(18)
O27_3 O 0.57779(13) 0.7130(3) 0.12106(12)
O29_3 O 0.64248(14) 0.3925(3) 0.19482(14)
H27_3 H 0.6241 0.3345 0.1963
O42_3 O 0.4932(2) 0.7185(7) 0.0448(2)
H35_3 H 0.4637 0.7252 0.0351
H36_3 H 0.5114 0.7691 0.0332
O43_3 O 0.4833(2) 0.5414(4) 0.12662(19)
H37_3 H 0.4525 0.5263 0.1276
H38_3 H 0.4961 0.5103 0.1038
O44_3 O 0.5057(2) 0.9336(4) 0.1181(2)
H39_3 H 0.4775 0.9658 0.1182
H40_3 H 0.5212 0.9505 0.0943
C37_3 C 0.62555(15) 0.9642(3) 0.17925(14)
H42_3 H 0.6104 0.9302 0.2042
C38_3 C 0.66180(16) 0.9044(3) 0.15502(14)
C39_3 C 0.68351(17) 0.9560(4) 0.11679(15)
H43_3 H 0.7081 0.9178 0.1004
C41_3 C 0.67793(16) 0.7871(3) 0.16833(14)
C42_3 C 0.64280(15) 0.6979(3) 0.17455(14)
C43_3 C 0.65938(17) 0.5890(3) 0.18593(15)
C44_3 C 0.71063(17) 0.5686(4) 0.19267(15)
H44_3 H 0.7214 0.4965 0.2013
C45_3 C 0.74514(17) 0.6544(4) 0.18659(16)
H45_3 H 0.7792 0.6404 0.1909
C46_3 C 0.72886(16) 0.7615(4) 0.17395(16)
H46_3 H 0.7525 0.8184 0.1690
C47_3 C 0.58835(16) 0.7206(3) 0.16308(16)
C48_3 C 0.62220(19) 0.4936(4) 0.18888(18)
O17_4 O 0.18871(16) 0.0993(3) 0.02639(14)
H3_4 H 0.2118 0.0549 0.0344
H4_4 H 0.1658 0.0991 0.0459
O18_4 O 0.14755(15) 0.3459(3) 0.05418(13)
H5_4 H 0.1501 0.3392 0.0823
H6_4 H 0.1432 0.4147 0.0475
Cd2_5 Cd 0.0000 0.26026(3) 0.7500
K1_2 K 0.0000 0.60980(11) 0.7500
O1_4 O 0.22034 0.4384(4) 0.96214(13)
O2_4 O 0.17532(16) 0.2859(3) 0.95061(12)
O3_4 O 0.06829(13) 0.2571(2) 0.80843(12)
O4_4 O 0.04093(12) 0.4199(3) 0.78386(12)
O5_4 O 0.07779(13) 0.7870(3) 0.87894(12)
O6_2 O 0.05644(12) 0.7522(3) 0.80797(13)
O8_2 O 0.07754(15) 0.9932(3) 0.81422(19)
O19_4 O 0.28626(18) 0.1861(5) 0.98367(17)
H7_4 H 0.2749 0.1331 0.9676
H8_4 H 0.3018 0.2326 0.9673
H10_4 H 0.0114 0.7309 0.9668
O22_4 O 0.0057(2) 0.5664(4) 0.8819(2)
H14_4 H 0.0212 0.5495 0.9057
C1_4 C 0.19008(19) 0.3831(4) 0.93888(15)
C2_4 C 0.16812(17) 0.4359(4) 0.89643(14)
C3_4 C 0.13314(16) 0.3759(3) 0.87120(14)
H15_4 H 0.1241 0.3024 0.8796
C4_4 C 0.11156(15) 0.4260(3) 0.83328(14)
C5_4 C 0.12555(15) 0.5358(3) 0.82075(14)
H16_4 H 0.1104 0.5698 0.7958
C6_4 C 0.16180(16) 0.5956(3) 0.84498(14)
C7_4 C 0.18351(17) 0.5440(4) 0.88321(15)
H17_4 H 0.2081 0.5822 0.8996
C8_4 C 0.07145(15) 0.3643(3) 0.80679(14)
C9_4 C 0.17793(16) 0.7129(3) 0.83167(14)
C10_4 C 0.14280(15) 0.8021(3) 0.82545(14)
C11_4 C 0.15938(17) 0.9110(3) 0.81407(15)
C12_4 C 0.21063(17) 0.9314(4) 0.80733(15)
C13_4 C 0.24514(17) 0.8456(4) 0.81341(16)
H19_4 H 0.2792 0.8596 0.8091
C14_4 C 0.22886(16) 0.7385(4) 0.82605(16)
H20_4 H 0.2525 0.6816 0.8310
C15_4 C 0.08835(16) 0.7794(3) 0.83692(16)
Cd5_2 Cd 0.00575(2) 0.76071(3) 0.62239(2)
O31_4 O 0.04108(13) 0.0971(3) 0.71614(14)
O32_4 O 0.07267(12) 0.2621(2) 0.69902(12)
O42_4 O 0.0068(2) 0.7815(7) 0.5448(2)
H35_4 H 0.0363 0.7748 0.5351
O43_4 O 0.0167(2) 0.9586(4) 0.62662(19)
H37_4 H 0.0475 0.9737 0.6276
H38_4 H 0.0039 0.9897 0.6038
H39_4 H 0.0225 0.5342 0.6182
C49_4 C 0.07536(15) 0.1530(3) 0.69889(14)
C50_4 C 0.11950(15) 0.0936(3) 0.67765(14)
C51_4 C 0.14908(16) 0.1487(3) 0.64537(14)
H47_4 H 0.1425 0.2239 0.6376
C52_4 C 0.18864(16) 0.0903(3) 0.62473(14)
C56_4 C 0.21969(17) 0.1453(4) 0.58886(14)
K4_2 K 0.0000 0.90606(12) 0.7500
O54_2 O 0.08157(15) 0.5224(3) 0.68600(17)
O56_2 O 0.09124(13) 0.7348(3) 0.62355(11)
O58_2 O 0.05912(12) 0.7632(3) 0.69120(12)
O35_4 O 0.14419(13) 0.4114(3) 0.70914(13)
H28_4 H 0.1261 0.3528 0.7090
C53_4 C 0.19887(16) 0.9774(3) 0.63726(14)
H48_4 H 0.2250 0.9385 0.6232
C54_4 C 0.17027(15) 0.9220(3) 0.67060(14)
C55_4 C 0.13027(16) 0.9822(3) 0.68970(14)
H49_4 H 0.1102 0.9463 0.7112
C57_4 C 0.18324(16) 0.8048(3) 0.68559(14)
C58_4 C 0.14730(15) 0.7158(3) 0.68551(14)
C59_4 C 0.16134(17) 0.6071(3) 0.70024(15)
C60_4 C 0.20982(17) 0.5881(4) 0.71603(15)
H50_4 H 0.2185 0.5169 0.7274
C61_4 C 0.24555(17) 0.6745(4) 0.71504(16)
H51_4 H 0.2782 0.6610 0.7249
C62_4 C 0.23190(17) 0.7808(4) 0.69920(16)
H52_4 H 0.2561 0.8378 0.6976
C63_4 C 0.12497(18) 0.5109(4) 0.69740(17)
C64_4 C 0.09538(16) 0.7385(3) 0.66619(16)
Cd2_6 Cd 1.0000 0.26026(3) 0.7500
Cd3_2 Cd 0.99425(2) 0.76071(3) 0.87761(2)
K1_3 K 1.0000 0.60980(11) 0.7500
O9_4 O 0.95892(13) 0.0971(3) 0.78386(14)
O10_4 O 0.92733(12) 0.2621(2) 0.80098(12)
O20_4 O 0.9932(2) 0.7815(7) 0.9552(2)
H9_4 H 0.9637 0.7748 0.9649
O21_4 O 0.9833(2) 0.9586(4) 0.87338(19)
H11_4 H 0.9525 0.9737 0.8724
H12_4 H 0.9961 0.9897 0.8962
H13_4 H 0.9775 0.5342 0.8818
C17_4 C 0.92464(15) 0.1530(3) 0.80111(14)
C18_4 C 0.88050(15) 0.0936(3) 0.82235(14)
C19_4 C 0.85092(16) 0.1487(3) 0.85463(14)
H21_4 H 0.8575 0.2239 0.8624
C20_4 C 0.81136(16) 0.0903(3) 0.87527(14)
C24_4 C 0.78031(17) 0.1453(4) 0.91114(14)
O23_4 O 0.77966 0.4384(4) 0.53786(13)
O24_4 O 0.82468(16) 0.2859(3) 0.54939(12)
O25_4 O 0.93171(13) 0.2571(2) 0.69157(12)
O26_4 O 0.95907(12) 0.4199(3) 0.71614(12)
O27_4 O 0.92221(13) 0.7870(3) 0.62106(12)
O28_2 O 0.94356(12) 0.7522(3) 0.69203(13)
O30_2 O 0.92246(15) 0.9932(3) 0.68578(19)
O39_4 O 0.81129(16) 0.0993(3) 0.47361(14)
H29_4 H 0.7882 0.0549 0.4656
H30_4 H 0.8342 0.0991 0.4541
O40_4 O 0.85245(15) 0.3459(3) 0.44582(13)
H31_4 H 0.8499 0.3392 0.4177
H32_4 H 0.8568 0.4147 0.4525
O41_4 O 0.71374(18) 0.1861(5) 0.51633(17)
H33_4 H 0.7251 0.1331 0.5324
H34_4 H 0.6982 0.2326 0.5327
H36_4 H 0.9886 0.7309 0.5332
O44_4 O 0.9943(2) 0.5664(4) 0.6181(2)
H40_4 H 0.9788 0.5495 0.5943
C33_4 C 0.80992(19) 0.3831(4) 0.56112(15)
C34_4 C 0.83188(17) 0.4359(4) 0.60357(14)
C35_4 C 0.86686(16) 0.3759(3) 0.62880(14)
H41_4 H 0.8759 0.3024 0.6204
C36_4 C 0.88844(15) 0.4260(3) 0.66672(14)
C37_4 C 0.87445(15) 0.5358(3) 0.67925(14)
H42_4 H 0.8896 0.5698 0.7042
C38_4 C 0.83820(16) 0.5956(3) 0.65502(14)
C39_4 C 0.81649(17) 0.5440(4) 0.61679(15)
H43_4 H 0.7919 0.5822 0.6004
C40_4 C 0.92855(15) 0.3643(3) 0.69321(14)
C41_4 C 0.82207(16) 0.7129(3) 0.66833(14)
C42_4 C 0.85720(15) 0.8021(3) 0.67455(14)
C43_4 C 0.84062(17) 0.9110(3) 0.68593(15)
C44_4 C 0.78937(17) 0.9314(4) 0.69267(15)
C45_4 C 0.75486(17) 0.8456(4) 0.68659(16)
H45_4 H 0.7208 0.8596 0.6909
C46_4 C 0.77114(16) 0.7385(4) 0.67395(16)
H46_4 H 0.7475 0.6816 0.6690
C47_4 C 0.91165(16) 0.7794(3) 0.66308(16)
K4_3 K 1.0000 0.90606(12) 0.7500
O53_2 O 0.91843(15) 0.5224(3) 0.81400(17)
O55_2 O 0.90876(13) 0.7348(3) 0.87645(11)
O57_2 O 0.94088(12) 0.7632(3) 0.80880(12)
O13_4 O 0.85581(13) 0.4114(3) 0.79086(13)
H2_4 H 0.8739 0.3528 0.7910
C21_4 C 0.80113(16) 0.9774(3) 0.86274(14)
H22_4 H 0.7750 0.9385 0.8768
C22_4 C 0.82973(15) 0.9220(3) 0.82940(14)
C23_4 C 0.86973(16) 0.9822(3) 0.81030(14)
H23_4 H 0.8898 0.9463 0.7888
C25_4 C 0.81676(16) 0.8048(3) 0.81441(14)
C26_4 C 0.85270(15) 0.7158(3) 0.81449(14)
C27_4 C 0.83866(17) 0.6071(3) 0.79976(15)
C28_4 C 0.79018(17) 0.5881(4) 0.78397(15)
H24_4 H 0.7815 0.5169 0.7726
C29_4 C 0.75445(17) 0.6745(4) 0.78496(16)
H25_4 H 0.7218 0.6610 0.7751
C30_4 C 0.76810(17) 0.7808(4) 0.80080(16)
H26_4 H 0.7439 0.8378 0.8024
C31_4 C 0.87503(18) 0.5109(4) 0.80260(17)
C32_4 C 0.90462(16) 0.7385(3) 0.83381(16)
O7_4 O 0.14248(14) 0.1075(3) 0.80518(14)
H1_4 H 0.1241 0.1655 0.8037
H18_4 H 0.2214 0.0035 0.7987
C16_4 C 0.12220(19) 0.0064(4) 0.81112(18)
O29_4 O 0.85752(14) 0.1075(3) 0.69482(14)
H27_4 H 0.8759 0.1655 0.6963
H44_4 H 0.7786 0.0035 0.7013
C48_4 C 0.87780(19) 0.0064(4) 0.68888(18)
loop_
_geom_bond_atom_site_label_1
_geom_bond_atom_site_label_2
_geom_bond_site_symmetry_1
_geom_bond_site_symmetry_2
Cd3 O5 1_555 1_555
O5 C15 1_555 1_555
O6 Cd3 1_555 1_555
O7 H1 1_555 1_555
O8 C16 1_555 1_555
O20 Cd3 1_555 1_555
H9 O20 1_555 1_555
H10 O20 1_555 1_555
O21 Cd3 1_555 1_555
H11 O21 1_555 1_555
H12 O21 1_555 1_555
O22 Cd3 1_555 1_555
H13 O22 1_555 1_555
H14 O22 1_555 1_555
H16 C5 1_555 1_555
C6 C5 1_555 1_555
H17 C7 1_555 1_555
C9 C6 1_555 1_555
C10 C9 1_555 1_555
C11 C10 1_555 1_555
C12 C11 1_555 1_555
H18 C12 1_555 1_555
C13 C12 1_555 1_555
H19 C13 1_555 1_555
C14 C9 1_555 1_555
H20 C14 1_555 1_555
C15 O6 1_555 1_555
C16 O7 1_555 1_555
Cd5 O27 1_555 1_555
O27 C47 1_555 1_555
O28 K1 1_555 1_555
O29 H27 1_555 1_555
O30 C48 1_555 1_555
O42 Cd5 1_555 1_555
H35 O42 1_555 1_555
H36 O42 1_555 1_555
O43 Cd5 1_555 1_555
H37 O43 1_555 1_555
H38 O43 1_555 1_555
O44 Cd5 1_555 1_555
H39 O44 1_555 1_555
H40 O44 1_555 1_555
H42 C37 1_555 1_555
C38 C37 1_555 1_555
H43 C39 1_555 1_555
C41 C38 1_555 1_555
C42 C41 1_555 1_555
C43 C42 1_555 1_555
C44 C43 1_555 1_555
H44 C44 1_555 1_555
C45 C44 1_555 1_555
H45 C45 1_555 1_555
C46 C41 1_555 1_555
H46 C46 1_555 1_555
C47 O28 1_555 1_555
C48 O29 1_555 1_555
K4 O6 1_555 1_555
O53 K1 1_555 1_555
O54 K1 1_555 1_555
O55 Cd3 1_555 1_555
O56 Cd5 1_555 1_555
O57 Cd3 1_555 1_555
O58 K1 1_555 1_555
K1 O6 1_555 1_555
K1 O57 1_555 1_555
O8 K4 1_555 1_555
C6 C7 1_555 1_555
C10 C15 1_555 1_555
C11 C16 1_555 1_555
C13 C14 1_555 1_555
Cd5 O28 1_555 1_555
Cd5 O58 1_555 1_555
O28 K4 1_555 1_555
O30 K4 1_555 1_555
C38 C39 1_555 1_555
C42 C47 1_555 1_555
C43 C48 1_555 1_555
C45 C46 1_555 1_555
K4 O57 1_555 1_555
K4 O58 1_555 1_555
O39 Cd4 1_555 1_555
H29 O39 1_555 1_555
H30 O39 1_555 1_555
O40 Cd4 1_555 1_555
H31 O40 1_555 1_555
H32 O40 1_555 1_555
O49 Cd4 1_555 1_555
O51 Cd4 1_555 1_555
Cd1 O1 1_555 1_555
Cd2 O3 1_555 1_555
K4 O9 1_555 1_555
O1 C1 1_555 1_555
O2 Cd1 1_555 1_555
O3 C8 1_555 1_555
O4 Cd2 1_555 1_555
O9 Cd2 1_555 1_555
O10 Cd2 1_555 1_555
O11 C24 1_555 1_555
O12 C24 1_555 1_555
O53 C31 1_555 1_555
O55 C32 1_555 1_555
O17 Cd1 1_555 1_555
H3 O17 1_555 1_555
H4 O17 1_555 1_555
O18 Cd1 1_555 1_555
H5 O18 1_555 1_555
H6 O18 1_555 1_555
O19 Cd1 1_555 1_555
H7 O19 1_555 1_555
H8 O19 1_555 1_555
C1 O2 1_555 1_555
C2 C1 1_555 1_555
C3 C2 1_555 1_555
H15 C3 1_555 1_555
C4 C3 1_555 1_555
C8 O4 1_555 1_555
C17 O9 1_555 1_555
C18 C17 1_555 1_555
C19 C18 1_555 1_555
H21 C19 1_555 1_555
C20 C19 1_555 1_555
C21 C20 1_555 1_555
H22 C21 1_555 1_555
C22 C21 1_555 1_555
C23 C18 1_555 1_555
H23 C23 1_555 1_555
C24 C20 1_555 1_555
C25 C22 1_555 1_555
C26 C25 1_555 1_555
C27 C26 1_555 1_555
C28 C27 1_555 1_555
H24 C28 1_555 1_555
C29 C28 1_555 1_555
H25 C29 1_555 1_555
C30 C25 1_555 1_555
H26 C30 1_555 1_555
C32 O57 1_555 1_555
O23 C33 1_555 1_555
O25 Cd2 1_555 1_555
O26 Cd2 1_555 1_555
O31 Cd2 1_555 1_555
O32 Cd2 1_555 1_555
O33 C56 1_555 1_555
O34 C56 1_555 1_555
O54 C63 1_555 1_555
O56 C64 1_555 1_555
H33 O41 1_555 1_555
H34 O41 1_555 1_555
C33 O24 1_555 1_555
C34 C33 1_555 1_555
C35 C34 1_555 1_555
H41 C35 1_555 1_555
C36 C35 1_555 1_555
C40 O25 1_555 1_555
C49 O31 1_555 1_555
C50 C49 1_555 1_555
C51 C50 1_555 1_555
H47 C51 1_555 1_555
C52 C51 1_555 1_555
C53 C52 1_555 1_555
H48 C53 1_555 1_555
C54 C53 1_555 1_555
C55 C50 1_555 1_555
H49 C55 1_555 1_555
C56 C52 1_555 1_555
C57 C54 1_555 1_555
C58 C57 1_555 1_555
C59 C58 1_555 1_555
C60 C59 1_555 1_555
H50 C60 1_555 1_555
C61 C60 1_555 1_555
H51 C61 1_555 1_555
C62 C57 1_555 1_555
H52 C62 1_555 1_555
C64 O58 1_555 1_555
Cd6 O33 1_555 1_555
Cd7 O11 1_555 1_555
O50 Cd1 1_555 1_555
O52 Cd1 1_555 1_555
K4 O31 1_555 1_555
O10 C17 1_555 1_555
O12 Cd7 1_555 1_555
C4 C8 1_555 1_555
C22 C23 1_555 1_555
C26 C32 1_555 1_555
C27 C31 1_555 1_555
C29 C30 1_555 1_555
O26 C40 1_555 1_555
O32 C49 1_555 1_555
O34 Cd6 1_555 1_555
C36 C40 1_555 1_555
C54 C55 1_555 1_555
C58 C64 1_555 1_555
C59 C63 1_555 1_555
C61 C62 1_555 1_555
O13 H2 1_555 1_555
O14 C31_2 1_555 1_555
O15 C32_2 1_555 1_555
O16 K2 1_555 1_555
H22_2 C21_2 1_555 1_555
C22_2 C21_2 1_555 1_555
H23_2 C23_2 1_555 1_555
C25_2 C22_2 1_555 1_555
C26_2 C25_2 1_555 1_555
C27_2 C26_2 1_555 1_555
C28_2 C27_2 1_555 1_555
H24_2 C28_2 1_555 1_555
C29_2 C28_2 1_555 1_555
H25_2 C29_2 1_555 1_555
C30_2 C25_2 1_555 1_555
H26_2 C30_2 1_555 1_555
C31_2 O13 1_555 1_555
C32_2 O16 1_555 1_555
Cd8 O15 1_555 1_555
K3 O14 1_555 1_555
O46 K2 1_555 1_555
O48 K2 1_555 1_555
O16 Cd8 1_555 1_555
O16 K3 1_555 1_555
C22_2 C23_2 1_555 1_555
C26_2 C32_2 1_555 1_555
C27_2 C31_2 1_555 1_555
C29_2 C30_2 1_555 1_555
K3 O46 1_555 1_555
O9_2 Cd2_2 1_555 1_555
O10_2 Cd2_2 1_555 1_555
O49 C24_2 1_555 1_555
O51 C24_2 1_555 1_555
O20_2 Cd8 1_555 1_555
H9_2 O20_2 1_555 1_555
O21_2 Cd8 1_555 1_555
H11_2 O21_2 1_555 1_555
H12_2 O21_2 1_555 1_555
C17_2 O9_2 1_555 1_555
C18_2 C17_2 1_555 1_555
C19_2 C18_2 1_555 1_555
H21_2 C19_2 1_555 1_555
C20_2 C19_2 1_555 1_555
C24_2 C20_2 1_555 1_555
Cd7 O23_2 1_555 1_555
O23_2 C33_2 1_555 1_555
O24_2 Cd7 1_555 1_555
O25_2 Cd2_2 1_555 1_555
O26_2 Cd2_2 1_555 1_555
O27_2 C47_2 1_555 1_555
O39_2 Cd7 1_555 1_555
H29_2 O39_2 1_555 1_555
H30_2 O39_2 1_555 1_555
O40_2 Cd7 1_555 1_555
H31_2 O40_2 1_555 1_555
H32_2 O40_2 1_555 1_555
O41_2 Cd7 1_555 1_555
H33_2 O41_2 1_555 1_555
H34_2 O41_2 1_555 1_555
H40_2 O44_2 1_555 1_555
C33_2 O24_2 1_555 1_555
C34_2 C33_2 1_555 1_555
C35_2 C34_2 1_555 1_555
H41_2 C35_2 1_555 1_555
C36_2 C35_2 1_555 1_555
C37_2 C36_2 1_555 1_555
H42_2 C37_2 1_555 1_555
C38_2 C37_2 1_555 1_555
C39_2 C34_2 1_555 1_555
H43_2 C39_2 1_555 1_555
C40_2 O25_2 1_555 1_555
C41_2 C38_2 1_555 1_555
C42_2 C41_2 1_555 1_555
C43_2 C42_2 1_555 1_555
C44_2 C43_2 1_555 1_555
C45_2 C44_2 1_555 1_555
H45_2 C45_2 1_555 1_555
C46_2 C41_2 1_555 1_555
H46_2 C46_2 1_555 1_555
C47_2 O46 1_555 1_555
K3 O26_2 1_555 1_555
O10_2 C17_2 1_555 1_555
O26_2 C40_2 1_555 1_555
C36_2 C40_2 1_555 1_555
C38_2 C39_2 1_555 1_555
C42_2 C47_2 1_555 1_555
C45_2 C46_2 1_555 1_555
O35 H28 1_555 1_555
O36 C63_2 1_555 1_555
O37 C64_2 1_555 1_555
O38 K2_2 1_555 1_555
H48_2 C53_2 1_555 1_555
C54_2 C53_2 1_555 1_555
H49_2 C55_2 1_555 1_555
C57_2 C54_2 1_555 1_555
C58_2 C57_2 1_555 1_555
C59_2 C58_2 1_555 1_555
C60_2 C59_2 1_555 1_555
H50_2 C60_2 1_555 1_555
C61_2 C60_2 1_555 1_555
H51_2 C61_2 1_555 1_555
C62_2 C57_2 1_555 1_555
H52_2 C62_2 1_555 1_555
C63_2 O35 1_555 1_555
C64_2 O38 1_555 1_555
Cd9 O37 1_555 1_555
O45 K2_2 1_555 1_555
O47 K2_2 1_555 1_555
O36 K3_2 1_555 1_555
O38 Cd9 1_555 1_555
O38 K3_2 1_555 1_555
C54_2 C55_2 1_555 1_555
C58_2 C64_2 1_555 1_555
C59_2 C63_2 1_555 1_555
C61_2 C62_2 1_555 1_555
K3_2 O45 1_555 1_555
Cd2_3 O3_2 1_555 1_555
K3_2 O4_2 1_555 1_555
O1_2 C1_2 1_555 1_555
O3_2 C8_2 1_555 1_555
O4_2 Cd2_3 1_555 1_555
O5_2 C15_2 1_555 1_555
H7_2 O19_2 1_555 1_555
H8_2 O19_2 1_555 1_555
H14_2 O22_2 1_555 1_555
C1_2 O2_2 1_555 1_555
C2_2 C1_2 1_555 1_555
C3_2 C2_2 1_555 1_555
H15_2 C3_2 1_555 1_555
C4_2 C3_2 1_555 1_555
C5_2 C4_2 1_555 1_555
H16_2 C5_2 1_555 1_555
C6_2 C5_2 1_555 1_555
C7_2 C2_2 1_555 1_555
H17_2 C7_2 1_555 1_555
C8_2 O4_2 1_555 1_555
C9_2 C6_2 1_555 1_555
C10_2 C9_2 1_555 1_555
C11_2 C10_2 1_555 1_555
C12_2 C11_2 1_555 1_555
C13_2 C12_2 1_555 1_555
H19_2 C13_2 1_555 1_555
C14_2 C9_2 1_555 1_555
H20_2 C14_2 1_555 1_555
C15_2 O45 1_555 1_555
O31_2 Cd2_3 1_555 1_555
O32_2 Cd2_3 1_555 1_555
O50 C56_2 1_555 1_555
O52 C56_2 1_555 1_555
O42_2 Cd9 1_555 1_555
H35_2 O42_2 1_555 1_555
O43_2 Cd9 1_555 1_555
H37_2 O43_2 1_555 1_555
H38_2 O43_2 1_555 1_555
C49_2 O31_2 1_555 1_555
C50_2 C49_2 1_555 1_555
C51_2 C50_2 1_555 1_555
H47_2 C51_2 1_555 1_555
C52_2 C51_2 1_555 1_555
C56_2 C52_2 1_555 1_555
C4_2 C8_2 1_555 1_555
C6_2 C7_2 1_555 1_555
C10_2 C15_2 1_555 1_555
C13_2 C14_2 1_555 1_555
O32_2 C49_2 1_555 1_555
O17_2 Cd6 1_555 1_555
H3_2 O17_2 1_555 1_555
H4_2 O17_2 1_555 1_555
O18_2 Cd6 1_555 1_555
H5_2 O18_2 1_555 1_555
H6_2 O18_2 1_555 1_555
O13_2 H2_2 1_555 1_555
O35_2 H28_2 1_555 1_555
O29_2 H27_2 1_555 1_555
C48_2 O29_2 1_555 1_555
O7_2 H1_2 1_555 1_555
C16_2 O7_2 1_555 1_555
O13_3 H2_3 1_555 1_555
O35_3 H28_3 1_555 1_555
Cd1_2 O1_3 1_555 1_555
Cd2_4 O3_3 1_555 1_555
K2_3 O9_3 1_555 1_555
O1_3 C1_3 1_555 1_555
O2_3 Cd1_2 1_555 1_555
O3_3 C8_3 1_555 1_555
O4_3 Cd2_4 1_555 1_555
O9_3 Cd2_4 1_555 1_555
O10_3 Cd2_4 1_555 1_555
O11_2 C24_3 1_555 1_555
O12_2 C24_3 1_555 1_555
O14_2 C31_3 1_555 1_555
O15_2 C32_3 1_555 1_555
O16_2 K2_3 1_555 1_555
O17_3 Cd1_2 1_555 1_555
H3_3 O17_3 1_555 1_555
H4_3 O17_3 1_555 1_555
O18_3 Cd1_2 1_555 1_555
H5_3 O18_3 1_555 1_555
H6_3 O18_3 1_555 1_555
O19_3 Cd1_2 1_555 1_555
H7_3 O19_3 1_555 1_555
H8_3 O19_3 1_555 1_555
C1_3 O2_3 1_555 1_555
C2_3 C1_3 1_555 1_555
C3_3 C2_3 1_555 1_555
H15_3 C3_3 1_555 1_555
C4_3 C3_3 1_555 1_555
C8_3 O4_3 1_555 1_555
C17_3 O9_3 1_555 1_555
C18_3 C17_3 1_555 1_555
C19_3 C18_3 1_555 1_555
H21_3 C19_3 1_555 1_555
C20_3 C19_3 1_555 1_555
C21_3 C20_3 1_555 1_555
H22_3 C21_3 1_555 1_555
C22_3 C21_3 1_555 1_555
C23_3 C18_3 1_555 1_555
H23_3 C23_3 1_555 1_555
C24_3 C20_3 1_555 1_555
C25_3 C22_3 1_555 1_555
C26_3 C25_3 1_555 1_555
C27_3 C26_3 1_555 1_555
C28_3 C27_3 1_555 1_555
H24_3 C28_3 1_555 1_555
C29_3 C28_3 1_555 1_555
H25_3 C29_3 1_555 1_555
C30_3 C25_3 1_555 1_555
H26_3 C30_3 1_555 1_555
C32_3 O16_2 1_555 1_555
O23_3 C33_3 1_555 1_555
O25_3 Cd2_4 1_555 1_555
O26_3 Cd2_4 1_555 1_555
O31_3 Cd2_4 1_555 1_555
O32_3 Cd2_4 1_555 1_555
O33_2 C56_3 1_555 1_555
O34_2 C56_3 1_555 1_555
O36_2 C63_3 1_555 1_555
O37_2 C64_3 1_555 1_555
O38_2 K2_3 1_555 1_555
H33_3 O41_3 1_555 1_555
H34_3 O41_3 1_555 1_555
C33_3 O24_3 1_555 1_555
C34_3 C33_3 1_555 1_555
C35_3 C34_3 1_555 1_555
H41_3 C35_3 1_555 1_555
C36_3 C35_3 1_555 1_555
C40_3 O25_3 1_555 1_555
C49_3 O31_3 1_555 1_555
C50_3 C49_3 1_555 1_555
C51_3 C50_3 1_555 1_555
H47_3 C51_3 1_555 1_555
C52_3 C51_3 1_555 1_555
C53_3 C52_3 1_555 1_555
H48_3 C53_3 1_555 1_555
C54_3 C53_3 1_555 1_555
C55_3 C50_3 1_555 1_555
H49_3 C55_3 1_555 1_555
C56_3 C52_3 1_555 1_555
C57_3 C54_3 1_555 1_555
C58_3 C57_3 1_555 1_555
C59_3 C58_3 1_555 1_555
C60_3 C59_3 1_555 1_555
H50_3 C60_3 1_555 1_555
C61_3 C60_3 1_555 1_555
H51_3 C61_3 1_555 1_555
C62_3 C57_3 1_555 1_555
H52_3 C62_3 1_555 1_555
C64_3 O38_2 1_555 1_555
Cd6_2 O33_2 1_555 1_555
Cd7_2 O11_2 1_555 1_555
Cd8_2 O15_2 1_555 1_555
Cd9_2 O37_2 1_555 1_555
K3_3 O14_2 1_555 1_555
O45_2 K2_3 1_555 1_555
O46_2 K2_3 1_555 1_555
O47_2 K2_3 1_555 1_555
O48_2 K2_3 1_555 1_555
O50_2 Cd1_2 1_555 1_555
O52_2 Cd1_2 1_555 1_555
K2_3 O31_3 1_555 1_555
O10_3 C17_3 1_555 1_555
O12_2 Cd7_2 1_555 1_555
O16_2 Cd8_2 1_555 1_555
O16_2 K3_3 1_555 1_555
C4_3 C8_3 1_555 1_555
C22_3 C23_3 1_555 1_555
C26_3 C32_3 1_555 1_555
C27_3 C31_3 1_555 1_555
C29_3 C30_3 1_555 1_555
O26_3 C40_3 1_555 1_555
O32_3 C49_3 1_555 1_555
O34_2 Cd6_2 1_555 1_555
O36_2 K3_3 1_555 1_555
O38_2 Cd9_2 1_555 1_555
O38_2 K3_3 1_555 1_555
C36_3 C40_3 1_555 1_555
C54_3 C55_3 1_555 1_555
C58_3 C64_3 1_555 1_555
C59_3 C63_3 1_555 1_555
C61_3 C62_3 1_555 1_555
Cd8_2 O45_2 1_555 1_555
Cd9_2 O46_2 1_555 1_555
K3_3 O45_2 1_555 1_555
K3_3 O46_2 1_555 1_555
O39_3 Cd4_2 1_555 1_555
H29_3 O39_3 1_555 1_555
H30_3 O39_3 1_555 1_555
O40_3 Cd4_2 1_555 1_555
H31_3 O40_3 1_555 1_555
H32_3 O40_3 1_555 1_555
O49_2 Cd4_2 1_555 1_555
O51_2 Cd4_2 1_555 1_555
Cd8_2 O5_3 1_555 1_555
O5_3 C15_3 1_555 1_555
O7_3 H1_3 1_555 1_555
O47_2 C16_3 1_555 1_555
O20_3 Cd8_2 1_555 1_555
H9_3 O20_3 1_555 1_555
H10_3 O20_3 1_555 1_555
O21_3 Cd8_2 1_555 1_555
H11_3 O21_3 1_555 1_555
H12_3 O21_3 1_555 1_555
O22_3 Cd8_2 1_555 1_555
H13_3 O22_3 1_555 1_555
H14_3 O22_3 1_555 1_555
H16_3 C5_3 1_555 1_555
C6_3 C5_3 1_555 1_555
H17_3 C7_3 1_555 1_555
C9_3 C6_3 1_555 1_555
C10_3 C9_3 1_555 1_555
C11_3 C10_3 1_555 1_555
C12_3 C11_3 1_555 1_555
H18_3 C12_3 1_555 1_555
C13_3 C12_3 1_555 1_555
H19_3 C13_3 1_555 1_555
C14_3 C9_3 1_555 1_555
H20_3 C14_3 1_555 1_555
C15_3 O45_2 1_555 1_555
C16_3 O7_3 1_555 1_555
Cd9_2 O27_3 1_555 1_555
O27_3 C47_3 1_555 1_555
O29_3 H27_3 1_555 1_555
O48_2 C48_3 1_555 1_555
O42_3 Cd9_2 1_555 1_555
H35_3 O42_3 1_555 1_555
H36_3 O42_3 1_555 1_555
O43_3 Cd9_2 1_555 1_555
H37_3 O43_3 1_555 1_555
H38_3 O43_3 1_555 1_555
O44_3 Cd9_2 1_555 1_555
H39_3 O44_3 1_555 1_555
H40_3 O44_3 1_555 1_555
H42_3 C37_3 1_555 1_555
C38_3 C37_3 1_555 1_555
H43_3 C39_3 1_555 1_555
C41_3 C38_3 1_555 1_555
C42_3 C41_3 1_555 1_555
C43_3 C42_3 1_555 1_555
C44_3 C43_3 1_555 1_555
H44_3 C44_3 1_555 1_555
C45_3 C44_3 1_555 1_555
H45_3 C45_3 1_555 1_555
C46_3 C41_3 1_555 1_555
H46_3 C46_3 1_555 1_555
C47_3 O46_2 1_555 1_555
C48_3 O29_3 1_555 1_555
C6_3 C7_3 1_555 1_555
C10_3 C15_3 1_555 1_555
C11_3 C16_3 1_555 1_555
C13_3 C14_3 1_555 1_555
C38_3 C39_3 1_555 1_555
C42_3 C47_3 1_555 1_555
C43_3 C48_3 1_555 1_555
C45_3 C46_3 1_555 1_555
O17_4 Cd6_2 1_555 1_555
H3_4 O17_4 1_555 1_555
H4_4 O17_4 1_555 1_555
O18_4 Cd6_2 1_555 1_555
H5_4 O18_4 1_555 1_555
H6_4 O18_4 1_555 1_555
Cd2_5 O3_4 1_555 1_555
K1_2 O4_4 1_555 1_555
O1_4 C1_4 1_555 1_555
O3_4 C8_4 1_555 1_555
O4_4 Cd2_5 1_555 1_555
O5_4 C15_4 1_555 1_555
H7_4 O19_4 1_555 1_555
H8_4 O19_4 1_555 1_555
H14_4 O22_4 1_555 1_555
C1_4 O2_4 1_555 1_555
C2_4 C1_4 1_555 1_555
C3_4 C2_4 1_555 1_555
H15_4 C3_4 1_555 1_555
C4_4 C3_4 1_555 1_555
C5_4 C4_4 1_555 1_555
H16_4 C5_4 1_555 1_555
C6_4 C5_4 1_555 1_555
C7_4 C2_4 1_555 1_555
H17_4 C7_4 1_555 1_555
C8_4 O4_4 1_555 1_555
C9_4 C6_4 1_555 1_555
C10_4 C9_4 1_555 1_555
C11_4 C10_4 1_555 1_555
C12_4 C11_4 1_555 1_555
C13_4 C12_4 1_555 1_555
H19_4 C13_4 1_555 1_555
C14_4 C9_4 1_555 1_555
H20_4 C14_4 1_555 1_555
C15_4 O6_2 1_555 1_555
O31_4 Cd2_5 1_555 1_555
O32_4 Cd2_5 1_555 1_555
O50_2 C56_4 1_555 1_555
O52_2 C56_4 1_555 1_555
O42_4 Cd5_2 1_555 1_555
H35_4 O42_4 1_555 1_555
O43_4 Cd5_2 1_555 1_555
H37_4 O43_4 1_555 1_555
H38_4 O43_4 1_555 1_555
C49_4 O31_4 1_555 1_555
C50_4 C49_4 1_555 1_555
C51_4 C50_4 1_555 1_555
H47_4 C51_4 1_555 1_555
C52_4 C51_4 1_555 1_555
C56_4 C52_4 1_555 1_555
K4_2 O6_2 1_555 1_555
O54_2 K1_2 1_555 1_555
O56_2 Cd5_2 1_555 1_555
O58_2 K1_2 1_555 1_555
K1_2 O6_2 1_555 1_555
O8_2 K4_2 1_555 1_555
C4_4 C8_4 1_555 1_555
C6_4 C7_4 1_555 1_555
C10_4 C15_4 1_555 1_555
C13_4 C14_4 1_555 1_555
Cd5_2 O58_2 1_555 1_555
O32_4 C49_4 1_555 1_555
K4_2 O58_2 1_555 1_555
O35_4 H28_4 1_555 1_555
O54_2 C63_4 1_555 1_555
O56_2 C64_4 1_555 1_555
H48_4 C53_4 1_555 1_555
C54_4 C53_4 1_555 1_555
H49_4 C55_4 1_555 1_555
C57_4 C54_4 1_555 1_555
C58_4 C57_4 1_555 1_555
C59_4 C58_4 1_555 1_555
C60_4 C59_4 1_555 1_555
H50_4 C60_4 1_555 1_555
C61_4 C60_4 1_555 1_555
H51_4 C61_4 1_555 1_555
C62_4 C57_4 1_555 1_555
H52_4 C62_4 1_555 1_555
C63_4 O35_4 1_555 1_555
C64_4 O58_2 1_555 1_555
C54_4 C55_4 1_555 1_555
C58_4 C64_4 1_555 1_555
C59_4 C63_4 1_555 1_555
C61_4 C62_4 1_555 1_555
O9_4 Cd2_6 1_555 1_555
O10_4 Cd2_6 1_555 1_555
O49_2 C24_4 1_555 1_555
O51_2 C24_4 1_555 1_555
O20_4 Cd3_2 1_555 1_555
H9_4 O20_4 1_555 1_555
O21_4 Cd3_2 1_555 1_555
H11_4 O21_4 1_555 1_555
H12_4 O21_4 1_555 1_555
C17_4 O9_4 1_555 1_555
C18_4 C17_4 1_555 1_555
C19_4 C18_4 1_555 1_555
H21_4 C19_4 1_555 1_555
C20_4 C19_4 1_555 1_555
C24_4 C20_4 1_555 1_555
Cd7_2 O23_4 1_555 1_555
O23_4 C33_4 1_555 1_555
O24_4 Cd7_2 1_555 1_555
O25_4 Cd2_6 1_555 1_555
O26_4 Cd2_6 1_555 1_555
O27_4 C47_4 1_555 1_555
O28_2 K1_3 1_555 1_555
O39_4 Cd7_2 1_555 1_555
H29_4 O39_4 1_555 1_555
H30_4 O39_4 1_555 1_555
O40_4 Cd7_2 1_555 1_555
H31_4 O40_4 1_555 1_555
H32_4 O40_4 1_555 1_555
O41_4 Cd7_2 1_555 1_555
H33_4 O41_4 1_555 1_555
H34_4 O41_4 1_555 1_555
H40_4 O44_4 1_555 1_555
C33_4 O24_4 1_555 1_555
C34_4 C33_4 1_555 1_555
C35_4 C34_4 1_555 1_555
H41_4 C35_4 1_555 1_555
C36_4 C35_4 1_555 1_555
C37_4 C36_4 1_555 1_555
H42_4 C37_4 1_555 1_555
C38_4 C37_4 1_555 1_555
C39_4 C34_4 1_555 1_555
H43_4 C39_4 1_555 1_555
C40_4 O25_4 1_555 1_555
C41_4 C38_4 1_555 1_555
C42_4 C41_4 1_555 1_555
C43_4 C42_4 1_555 1_555
C44_4 C43_4 1_555 1_555
C45_4 C44_4 1_555 1_555
H45_4 C45_4 1_555 1_555
C46_4 C41_4 1_555 1_555
H46_4 C46_4 1_555 1_555
C47_4 O28_2 1_555 1_555
O53_2 K1_3 1_555 1_555
O55_2 Cd3_2 1_555 1_555
O57_2 Cd3_2 1_555 1_555
K1_3 O26_4 1_555 1_555
K1_3 O57_2 1_555 1_555
O10_4 C17_4 1_555 1_555
O26_4 C40_4 1_555 1_555
O28_2 K4_3 1_555 1_555
O30_2 K4_3 1_555 1_555
C36_4 C40_4 1_555 1_555
C38_4 C39_4 1_555 1_555
C42_4 C47_4 1_555 1_555
C45_4 C46_4 1_555 1_555
K4_3 O57_2 1_555 1_555
O13_4 H2_4 1_555 1_555
O53_2 C31_4 1_555 1_555
O55_2 C32_4 1_555 1_555
H22_4 C21_4 1_555 1_555
C22_4 C21_4 1_555 1_555
H23_4 C23_4 1_555 1_555
C25_4 C22_4 1_555 1_555
C26_4 C25_4 1_555 1_555
C27_4 C26_4 1_555 1_555
C28_4 C27_4 1_555 1_555
H24_4 C28_4 1_555 1_555
C29_4 C28_4 1_555 1_555
H25_4 C29_4 1_555 1_555
C30_4 C25_4 1_555 1_555
H26_4 C30_4 1_555 1_555
C31_4 O13_4 1_555 1_555
C32_4 O57_2 1_555 1_555
C22_4 C23_4 1_555 1_555
C26_4 C32_4 1_555 1_555
C27_4 C31_4 1_555 1_555
C29_4 C30_4 1_555 1_555
O7_4 H1_4 1_555 1_555
C16_4 O7_4 1_555 1_555
O29_4 H27_4 1_555 1_555
C48_4 O29_4 1_555 1_555

#END
