
###############################################################################
#
# This file contains modified crystal structure data generated from the
# MOF subset of the Cambridge Structural Database (CSD) v543 
# hosted by the Cambridge Crystallographic Data Centre (CCDC).
#
# This work is licensed under the Creative Commons
# Attribution-NonCommercial-ShareAlike 4.0 International License.
# To view a copy of this license, visit
# http://creativecommons.org/licenses/by-nc-sa/4.0/
# or send a letter to
# Creative Commons, PO Box 1866, Mountain View, CA 94042, USA.
#
# CIF created using the CSD Python API on 29 September 2022
# The structure has been converted into the P1 space group
# The structure has a 3D framework
# The original CSD entry ZARLIP is in the monoclinic crystal system
# The framework has been calculated to contain at least 10.0% void space
# The void calculation uses a probe of radius 1.32A, grid spacing 0.4
#
###############################################################################

data_ZARLIP
_chemical_formula_moiety         '(C434 H238 N8 O86 Zn22)n'
_symmetry_cell_setting           triclinic
_symmetry_space_group_name_H-M   'P 1'
_symmetry_Int_Tables_number      1
_space_group_name_Hall           'P 1'
loop_
_symmetry_equiv_pos_site_id
_symmetry_equiv_pos_as_xyz
1 x,y,z
_cell_length_a                   25.1355(17)
_cell_length_b                   37.055(2)
_cell_length_c                   20.2587(14)
_cell_angle_alpha                90
_cell_angle_beta                 124.71(2)
_cell_angle_gamma                90
_cell_volume                     15511.1
loop_
_atom_site_label
_atom_site_type_symbol
_atom_site_fract_x
_atom_site_fract_y
_atom_site_fract_z
Zn14 Zn 0.002183(13) 0.680763(8) 0.08452(2)
O27 O 0.92054(10) 0.65651(7) 0.01196(16)
Zn3 Zn -0.0000 0.651625(12) 0.2500
Zn4 Zn 0.099291(12) 0.716038(7) 0.259328(19)
Zn8 Zn 0.400709(12) 0.216038(7) 0.240672(19)
Zn13 Zn 0.497817(13) 0.180763(8) 0.41548(2)
O14 O 0.05230(7) 0.74868(4) 0.30128(11)
O15 O 0.01152(8) 0.68946(4) 0.18678(11)
O16 O 0.42932(8) 0.25439(5) 0.33063(11)
O18 O 0.07068(8) 0.75439(5) 0.16937(11)
O19 O 0.17953(8) 0.74712(5) 0.33478(12)
O21 O 0.15051(8) 0.68348(5) 0.22942(13)
O22 O 0.08048(9) 0.62650(5) 0.30888(15)
O23 O 0.50111(8) 0.23061(5) 0.45130(12)
O24 O 0.00111(8) 0.73061(5) 0.45130(12)
O26 O 0.13573(9) 0.67788(5) 0.35664(12)
O28 O 0.07946(10) 0.65651(7) 0.48804(16)
C57 C 0.13250(13) 0.64444(7) 0.35136(18)
O31 O 0.08163(9) 0.65835(6) 0.10951(13)
C60 C 0.46822(12) 0.48433(7) 0.55610(16)
H33 H 0.4279 0.4720 0.5258
C61 C 0.52282(12) 0.42806(7) 0.56701(16)
C62 C 0.48182(12) 0.29312(7) 0.44195(17)
C63 C 0.46940(12) 0.52127(7) 0.56999(15)
C66 C 0.58471(12) 0.48344(7) 0.63281(15)
H35 H 0.6241 0.4706 0.6547
C67 C 0.41052(14) 0.54121(8) 0.53732(18)
C68 C 0.52818(13) 0.53899(7) 0.61558(15)
H36 H 0.5291 0.5641 0.6254
C71 C 0.19359(13) 0.62265(7) 0.39751(19)
N2 N 0.28502(11) 0.75196(8) 0.43480(16)
C72 C 0.23500(12) 0.73453(8) 0.3761(2)
H37 H 0.2416 0.7108 0.3645
C73 C 0.50560(13) 0.36188(7) 0.51059(18)
C74 C 0.44915(17) 0.32306(7) 0.3937(2)
H38 H 0.4189 0.3201 0.3375
C75 C 0.58586(12) 0.52038(7) 0.64717(16)
C76 C 0.52538(12) 0.46531(7) 0.58613(15)
C77 C 0.64579(14) 0.53982(8) 0.69773(19)
C80 C 0.36325(14) 0.55928(8) 0.5093(2)
C81 C 0.52461(15) 0.29797(8) 0.5231(2)
H39 H 0.5465 0.2777 0.5567
C82 C 0.30867(14) 0.61776(8) 0.4830(2)
H40 H 0.3494 0.6294 0.5162
C83 C 0.46059(17) 0.35691(8) 0.4275(2)
H41 H 0.4378 0.3771 0.3943
C84 C 0.25266(13) 0.63798(8) 0.4453(2)
H42 H 0.2557 0.6634 0.4531
C87 C 0.51597(13) 0.39725(7) 0.54410(18)
C88 C 0.30611(14) 0.58097(8) 0.4730(2)
C89 C 0.81181(17) 0.61565(10) 0.9119(2)
H44 H 0.8185 0.6252 0.9596
C90 C 0.85466(17) 0.62302(10) 0.8942(3)
C91 C 0.53625(15) 0.33214(8) 0.55673(19)
H45 H 0.5662 0.3349 0.6131
C92 C 0.74789(16) 0.57990(10) 0.7934(2)
C95 C 0.2799(2) 0.78753(11) 0.4573(3)
H48 H 0.2959 0.8049 0.4360
H49 H 0.3059 0.7894 0.5160
H50 H 0.2346 0.7928 0.4354
C96 C 0.19057(17) 0.58598(10) 0.3879(4)
H51 H 0.1497 0.5747 0.3530
C97 C 0.75759(17) 0.59416(10) 0.8613(2)
H52 H 0.7274 0.5895 0.8743
C99 C 0.69155(15) 0.55768(9) 0.7402(2)
C100 C 0.8454(2) 0.60929(13) 0.8253(3)
H54 H 0.8758 0.6145 0.8129
O32 O 0.95175(15) 0.65340(11) 0.9313(2)
C101 C 0.7921(2) 0.58789(15) 0.7741(3)
H55 H 0.7855 0.5787 0.7262
C102 C 0.24534(18) 0.56539(10) 0.4278(4)
H56 H 0.2416 0.5398 0.4245
C103 C 0.34977(16) 0.73427(15) 0.4809(3)
H57 H 0.3471 0.7111 0.4561
H58 H 0.3636 0.7303 0.5364
H59 H 0.3812 0.7498 0.4807
C104 C 0.46943(13) 0.25672(7) 0.40420(17)
C105 C 0.9141(2) 0.64637(11) 0.9504(3)
Zn1 Zn 0.900709(12) 0.716038(7) 0.240672(19)
Zn2 Zn 0.997817(13) 0.680763(8) 0.41548(2)
Zn3_2 Zn 1.0000 0.651625(12) 0.2500
O1 O 0.44770(7) 0.24868(4) 0.19872(11)
O2 O 0.98848(8) 0.68946(4) 0.31322(11)
O3 O 0.57068(8) 0.25439(5) 0.16937(11)
O4 O 0.82047(8) 0.74712(5) 0.16522(12)
O5 O 0.84949(8) 0.68348(5) 0.27058(13)
O6 O 0.91952(9) 0.62650(5) 0.19112(15)
O7 O 0.49889(8) 0.23061(5) 0.04870(12)
O8 O 0.86427(9) 0.67788(5) 0.14336(12)
C1 C 0.5000 0.41925(9) 0.2500
C2 C 0.5000 0.49033(9) 0.2500
C3 C 0.86750(13) 0.64444(7) 0.14864(18)
O10 O 0.91837(9) 0.65835(6) 0.39049(13)
C4 C 0.55806(12) 0.32388(6) 0.29277(18)
H1 H 0.5979 0.3111 0.3224
C5 C 0.55635(12) 0.50904(6) 0.27593(16)
H2 H 0.5954 0.4962 0.2953
C7 C 0.5000 0.30504(9) 0.2500
C9 C 0.51818(12) 0.29312(7) 0.05805(17)
C10 C 0.5000 0.45139(9) 0.2500
C12 C 0.55599(12) 0.54705(7) 0.27365(17)
C13 C 0.55794(12) 0.36135(7) 0.29234(17)
H4 H 0.5978 0.3741 0.3212
C17 C 0.61248(14) 0.56613(7) 0.29099(19)
C18 C 0.86295(12) 0.66332(8) 0.3264(2)
C19 C 0.80641(13) 0.62265(7) 0.10249(19)
N1 N 0.71498(11) 0.75196(8) 0.06520(16)
C20 C 0.76500(12) 0.73453(8) 0.1239(2)
H7 H 0.7584 0.7108 0.1355
C21 C 0.5000 0.56544(9) 0.2500
H8 H 0.5000 0.5911 0.2500
C23 C 0.55085(17) 0.32306(7) 0.1063(2)
H9 H 0.5811 0.3201 0.1625
C24 C 0.5000 0.38030(9) 0.2500
C28 C 0.65702(14) 0.58247(8) 0.3007(2)
C29 C 0.70937(14) 0.60260(8) 0.3077(2)
C32 C 0.69133(14) 0.61776(8) 0.0170(2)
C33 C 0.53941(17) 0.35691(8) 0.0725(2)
H12 H 0.5622 0.3771 0.1057
C34 C 0.74734(13) 0.63798(8) 0.0547(2)
H13 H 0.7443 0.6634 0.0469
C35 C 0.70013(14) 0.61898(9) 0.2409(2)
H14 H 0.6600 0.6165 0.1902
C36 C 0.80874(13) 0.64200(8) 0.31962(19)
C38 C 0.69389(14) 0.58097(8) 0.0270(2)
C43 C 0.74978(14) 0.63930(9) 0.2479(2)
H17 H 0.7425 0.6514 0.2021
C44 C 0.81811(16) 0.62447(11) 0.3857(2)
H18 H 0.8592 0.6257 0.4356
C45 C 0.7201(2) 0.78753(11) 0.0427(3)
H19 H 0.7041 0.8049 0.0640
H21 H 0.7654 0.7928 0.0646
C46 C 0.80943(17) 0.58598(10) 0.1121(4)
H22 H 0.8503 0.5747 0.1470
C48 C 0.76912(17) 0.60522(11) 0.3806(2)
H24 H 0.7762 0.5938 0.4270
C52 C 0.75466(18) 0.56539(10) 0.0722(4)
H27 H 0.7584 0.5398 0.0755
C53 C 0.65023(16) 0.73427(15) 0.0191(3)
H28 H 0.6529 0.7111 0.0439
H30 H 0.6188 0.7498 0.0193
C54 C 0.5000 0.26462(9) 0.2500
C55 C 0.53057(13) 0.25672(7) 0.09580(17)
Zn6 Zn 0.599291(12) 0.216038(7) 0.259328(19)
Zn10 Zn 0.502183(13) 0.180763(8) 0.08452(2)
O12 O 0.55230(7) 0.24868(4) 0.30128(11)
O13 O 0.94770(7) 0.74868(4) 0.19872(11)
O17 O 0.92932(8) 0.75439(5) 0.33063(11)
O25 O 0.99889(8) 0.73061(5) 0.04870(12)
C58 C 0.44194(12) 0.32388(6) 0.20723(18)
H31 H 0.4021 0.3111 0.1776
C59 C 0.44365(12) 0.50904(6) 0.22407(16)
H32 H 0.4046 0.4962 0.2047
C64 C 0.44401(12) 0.54705(7) 0.22635(17)
C65 C 0.44206(12) 0.36135(7) 0.20766(17)
H34 H 0.4022 0.3741 0.1788
C69 C 0.38752(14) 0.56613(7) 0.20901(19)
C70 C 0.13705(12) 0.66332(8) 0.1736(2)
C78 C 0.34298(14) 0.58247(8) 0.1993(2)
C79 C 0.29063(14) 0.60260(8) 0.1923(2)
C85 C 0.29987(14) 0.61898(9) 0.2591(2)
H43 H 0.3400 0.6165 0.3098
C86 C 0.19126(13) 0.64200(8) 0.18038(19)
C93 C 0.25022(14) 0.63930(9) 0.2521(2)
H46 H 0.2575 0.6514 0.2979
C94 C 0.18189(16) 0.62447(11) 0.1143(2)
H47 H 0.1408 0.6257 0.0644
C98 C 0.23088(17) 0.60522(11) 0.1194(2)
H53 H 0.2238 0.5938 0.0730
C6 C 0.53178(12) 0.48433(7) 0.94390(16)
H3 H 0.5721 0.4720 0.9742
C8 C 0.47718(12) 0.42806(7) 0.93299(16)
C11 C 0.53060(12) 0.52127(7) 0.93001(15)
C14 C 0.41529(12) 0.48344(7) 0.86719(15)
H5 H 0.3759 0.4706 0.8453
C15 C 0.58948(14) 0.54121(8) 0.96268(18)
C16 C 0.47182(13) 0.53899(7) 0.88442(15)
H6 H 0.4709 0.5641 0.8746
C22 C 0.49440(13) 0.36188(7) 0.98941(18)
C25 C 0.41414(12) 0.52038(7) 0.85283(16)
C26 C 0.47462(12) 0.46531(7) 0.91387(15)
C27 C 0.35421(14) 0.53982(8) 0.80227(19)
C30 C 0.63675(14) 0.55928(8) 0.9907(2)
C31 C 0.47539(15) 0.29797(8) 0.9769(2)
H10 H 0.4535 0.2777 0.9433
H11 H 0.6506 0.6294 0.9838
C37 C 0.48403(13) 0.39725(7) 0.95590(18)
C39 C 0.18819(17) 0.61565(10) 0.5881(2)
H15 H 0.1815 0.6252 0.5404
C40 C 0.14534(17) 0.62302(10) 0.6058(3)
C41 C 0.46375(15) 0.33214(8) 0.94327(19)
H16 H 0.4338 0.3349 0.8869
C42 C 0.25211(16) 0.57990(10) 0.7066(2)
H20 H 0.6941 0.7894 0.9840
C47 C 0.24241(17) 0.59416(10) 0.6387(2)
H23 H 0.2726 0.5895 0.6257
C49 C 0.30845(15) 0.55768(9) 0.7598(2)
C50 C 0.1546(2) 0.60929(13) 0.6747(3)
H25 H 0.1242 0.6145 0.6871
O11 O 0.04825(15) 0.65340(11) 0.5687(2)
C51 C 0.2079(2) 0.58789(15) 0.7259(3)
H26 H 0.2145 0.5787 0.7738
H29 H 0.6364 0.7303 0.9636
C56 C 0.0859(2) 0.64637(11) 0.5496(3)
O27_2 O 0.42054(10) 0.15651(7) 0.01196(16)
C68_2 C 0.02818(13) 0.03899(7) 0.61558(15)
H36_2 H 0.0291 0.0641 0.6254
C75_2 C 0.08586(12) 0.02038(7) 0.64717(16)
C77_2 C 0.14579(14) 0.03982(8) 0.69773(19)
C89_2 C 0.31181(17) 0.11565(10) 0.9119(2)
H44_2 H 0.3185 0.1252 0.9596
C90_2 C 0.35466(17) 0.12302(10) 0.8942(3)
C92_2 C 0.24789(16) 0.07990(10) 0.7934(2)
C97_2 C 0.25759(17) 0.09416(10) 0.8613(2)
H52_2 H 0.2274 0.0895 0.8743
C99_2 C 0.19155(15) 0.05768(9) 0.7402(2)
C100_2 C 0.3454(2) 0.10929(13) 0.8253(3)
H54_2 H 0.3758 0.1145 0.8129
O32_2 O 0.45175(15) 0.15340(11) 0.9313(2)
C101_2 C 0.2921(2) 0.08789(15) 0.7741(3)
H55_2 H 0.2855 0.0787 0.7262
C105_2 C 0.4141(2) 0.14637(11) 0.9504(3)
C61_2 C 0.02282(12) 0.92806(7) 0.56701(16)
C66_2 C 0.08471(12) 0.98344(7) 0.63281(15)
H35_2 H 0.1241 0.9706 0.6547
C73_2 C 0.00560(13) 0.86188(7) 0.51059(18)
C76_2 C 0.02538(12) 0.96531(7) 0.58613(15)
C81_2 C 0.02461(15) 0.79797(8) 0.5231(2)
H39_2 H 0.0465 0.7777 0.5567
C87_2 C 0.01597(13) 0.89725(7) 0.54410(18)
C91_2 C 0.03625(15) 0.83214(8) 0.55673(19)
H45_2 H 0.0662 0.8349 0.6131
Zn3_3 Zn 0.5000 0.151625(12) 0.2500
O2_2 O 0.48848(8) 0.18946(4) 0.31322(11)
O4_2 O 0.32047(8) 0.24712(5) 0.16522(12)
O5_2 O 0.34949(8) 0.18348(5) 0.27058(13)
O6_2 O 0.41952(9) 0.12650(5) 0.19112(15)
O8_2 O 0.36427(9) 0.17788(5) 0.14336(12)
C3_2 C 0.36750(13) 0.14444(7) 0.14864(18)
O10_2 O 0.41837(9) 0.15835(6) 0.39049(13)
C5_2 C 0.05635(12) 0.00904(6) 0.27593(16)
C12_2 C 0.05599(12) 0.04705(7) 0.27365(17)
C17_2 C 0.11248(14) 0.06613(7) 0.29099(19)
C18_2 C 0.36295(12) 0.16332(8) 0.3264(2)
C19_2 C 0.30641(13) 0.12265(7) 0.10249(19)
N1_2 N 0.21498(11) 0.25196(8) 0.06520(16)
C20_2 C 0.26500(12) 0.23453(8) 0.1239(2)
H7_2 H 0.2584 0.2108 0.1355
C21_2 C -0.0000 0.06544(9) 0.2500
H8_2 H -0.0000 0.0911 0.2500
C28_2 C 0.15702(14) 0.08247(8) 0.3007(2)
C29_2 C 0.20937(14) 0.10260(8) 0.3077(2)
C32_2 C 0.19133(14) 0.11776(8) 0.0170(2)
C34_2 C 0.24734(13) 0.13798(8) 0.0547(2)
H13_2 H 0.2443 0.1634 0.0469
C35_2 C 0.20013(14) 0.11898(9) 0.2409(2)
H14_2 H 0.1600 0.1165 0.1902
C36_2 C 0.30874(13) 0.14200(8) 0.31962(19)
C38_2 C 0.19389(14) 0.08097(8) 0.0270(2)
C43_2 C 0.24978(14) 0.13930(9) 0.2479(2)
H17_2 H 0.2425 0.1514 0.2021
C44_2 C 0.31811(16) 0.12447(11) 0.3857(2)
H18_2 H 0.3592 0.1257 0.4356
C45_2 C 0.2201(2) 0.28753(11) 0.0427(3)
H19_2 H 0.2041 0.3049 0.0640
H21_2 H 0.2654 0.2928 0.0646
C46_2 C 0.30943(17) 0.08598(10) 0.1121(4)
H22_2 H 0.3503 0.0747 0.1470
C48_2 C 0.26912(17) 0.10522(11) 0.3806(2)
H24_2 H 0.2762 0.0938 0.4270
C52_2 C 0.25466(18) 0.06539(10) 0.0722(4)
H27_2 H 0.2584 0.0398 0.0755
C53_2 C 0.15023(16) 0.23427(15) 0.0191(3)
H28_2 H 0.1529 0.2111 0.0439
H30_2 H 0.1188 0.2498 0.0193
O15_2 O 0.51152(8) 0.18946(4) 0.18678(11)
O19_2 O 0.67953(8) 0.24712(5) 0.33478(12)
O21_2 O 0.65051(8) 0.18348(5) 0.22942(13)
O22_2 O 0.58048(9) 0.12650(5) 0.30888(15)
O26_2 O 0.63573(9) 0.17788(5) 0.35664(12)
O28_2 O 0.57946(10) 0.15651(7) 0.48804(16)
C57_2 C 0.63250(13) 0.14444(7) 0.35136(18)
O31_2 O 0.58163(9) 0.15835(6) 0.10951(13)
C63_2 C 0.96940(12) 0.02127(7) 0.56999(15)
C67_2 C 0.91052(14) 0.04121(8) 0.53732(18)
C71_2 C 0.69359(13) 0.12265(7) 0.39751(19)
N2_2 N 0.78502(11) 0.25196(8) 0.43480(16)
C72_2 C 0.73500(12) 0.23453(8) 0.3761(2)
H37_2 H 0.7416 0.2108 0.3645
C80_2 C 0.86325(14) 0.05928(8) 0.5093(2)
C82_2 C 0.80867(14) 0.11776(8) 0.4830(2)
H40_2 H 0.8494 0.1294 0.5162
C84_2 C 0.75266(13) 0.13798(8) 0.4453(2)
H42_2 H 0.7557 0.1634 0.4531
C88_2 C 0.80611(14) 0.08097(8) 0.4730(2)
C95_2 C 0.7799(2) 0.28753(11) 0.4573(3)
H48_2 H 0.7959 0.3049 0.4360
H49_2 H 0.8059 0.2894 0.5160
H50_2 H 0.7346 0.2928 0.4354
C96_2 C 0.69057(17) 0.08598(10) 0.3879(4)
H51_2 H 0.6497 0.0747 0.3530
C102_2 C 0.74534(18) 0.06539(10) 0.4278(4)
H56_2 H 0.7416 0.0398 0.4245
C103_2 C 0.84977(16) 0.23427(15) 0.4809(3)
H57_2 H 0.8471 0.2111 0.4561
H58_2 H 0.8636 0.2303 0.5364
H59_2 H 0.8812 0.2498 0.4807
C1_2 C -0.0000 0.91925(9) 0.2500
C2_2 C -0.0000 0.99033(9) 0.2500
C4_2 C 0.05806(12) 0.82388(6) 0.29277(18)
H1_2 H 0.0979 0.8111 0.3224
H2_2 H 0.0954 0.9962 0.2953
C7_2 C -0.0000 0.80504(9) 0.2500
C9_2 C 0.01818(12) 0.79312(7) 0.05805(17)
C10_2 C -0.0000 0.95139(9) 0.2500
C13_2 C 0.05794(12) 0.86135(7) 0.29234(17)
H4_2 H 0.0978 0.8741 0.3212
C23_2 C 0.05085(17) 0.82306(7) 0.1063(2)
H9_2 H 0.0811 0.8201 0.1625
C24_2 C -0.0000 0.88030(9) 0.2500
C33_2 C 0.03941(17) 0.85691(8) 0.0725(2)
H12_2 H 0.0622 0.8771 0.1057
C54_2 C -0.0000 0.76462(9) 0.2500
C55_2 C 0.03057(13) 0.75672(7) 0.09580(17)
C60_2 C 0.96822(12) 0.98433(7) 0.55610(16)
H33_2 H 0.9279 0.9720 0.5258
C62_2 C 0.98182(12) 0.79312(7) 0.44195(17)
C74_2 C 0.94915(17) 0.82306(7) 0.3937(2)
H38_2 H 0.9189 0.8201 0.3375
C83_2 C 0.96059(17) 0.85691(8) 0.4275(2)
H41_2 H 0.9378 0.8771 0.3943
C104_2 C 0.96943(13) 0.75672(7) 0.40420(17)
C21_3 C 1.0000 0.06544(9) 0.2500
H8_3 H 1.0000 0.0911 0.2500
C59_2 C 0.94365(12) 0.00904(6) 0.22407(16)
C64_2 C 0.94401(12) 0.04705(7) 0.22635(17)
C69_2 C 0.88752(14) 0.06613(7) 0.20901(19)
C70_2 C 0.63705(12) 0.16332(8) 0.1736(2)
C78_2 C 0.84298(14) 0.08247(8) 0.1993(2)
C79_2 C 0.79063(14) 0.10260(8) 0.1923(2)
C85_2 C 0.79987(14) 0.11898(9) 0.2591(2)
H43_2 H 0.8400 0.1165 0.3098
C86_2 C 0.69126(13) 0.14200(8) 0.18038(19)
C93_2 C 0.75022(14) 0.13930(9) 0.2521(2)
H46_2 H 0.7575 0.1514 0.2979
C94_2 C 0.68189(16) 0.12447(11) 0.1143(2)
H47_2 H 0.6408 0.1257 0.0644
C98_2 C 0.73088(17) 0.10522(11) 0.1194(2)
H53_2 H 0.7238 0.0938 0.0730
C16_2 C 0.97182(13) 0.03899(7) 0.88442(15)
H6_2 H 0.9709 0.0641 0.8746
C25_2 C 0.91414(12) 0.02038(7) 0.85283(16)
C27_2 C 0.85421(14) 0.03982(8) 0.80227(19)
C39_2 C 0.68819(17) 0.11565(10) 0.5881(2)
H15_2 H 0.6815 0.1252 0.5404
C40_2 C 0.64534(17) 0.12302(10) 0.6058(3)
C42_2 C 0.75211(16) 0.07990(10) 0.7066(2)
C47_2 C 0.74241(17) 0.09416(10) 0.6387(2)
H23_2 H 0.7726 0.0895 0.6257
C49_2 C 0.80845(15) 0.05768(9) 0.7598(2)
C50_2 C 0.6546(2) 0.10929(13) 0.6747(3)
H25_2 H 0.6242 0.1145 0.6871
O11_2 O 0.54825(15) 0.15340(11) 0.5687(2)
C51_2 C 0.7079(2) 0.08789(15) 0.7259(3)
H26_2 H 0.7145 0.0787 0.7738
C56_2 C 0.5859(2) 0.14637(11) 0.5496(3)
C1_3 C 1.0000 0.91925(9) 0.2500
C2_3 C 1.0000 0.99033(9) 0.2500
C7_3 C 1.0000 0.80504(9) 0.2500
C10_3 C 1.0000 0.95139(9) 0.2500
C24_3 C 1.0000 0.88030(9) 0.2500
C54_3 C 1.0000 0.76462(9) 0.2500
C58_2 C 0.94194(12) 0.82388(6) 0.20723(18)
H31_2 H 0.9021 0.8111 0.1776
H32_2 H 0.9046 0.9962 0.2047
C65_2 C 0.94206(12) 0.86135(7) 0.20766(17)
H34_2 H 0.9022 0.8741 0.1788
C11_2 C 0.03060(12) 0.02127(7) 0.93001(15)
C15_2 C 0.08948(14) 0.04121(8) 0.96268(18)
C30_2 C 0.13675(14) 0.05928(8) 0.9907(2)
H11_2 H 0.1506 0.1294 0.9838
H20_2 H 0.1941 0.2894 0.9840
H29_2 H 0.1364 0.2303 0.9636
C6_2 C 0.03178(12) 0.98433(7) 0.94390(16)
H3_2 H 0.0721 0.9720 0.9742
C8_2 C 0.97718(12) 0.92806(7) 0.93299(16)
C14_2 C 0.91529(12) 0.98344(7) 0.86719(15)
H5_2 H 0.8759 0.9706 0.8453
C22_2 C 0.99440(13) 0.86188(7) 0.98941(18)
C26_2 C 0.97462(12) 0.96531(7) 0.91387(15)
C31_2 C 0.97539(15) 0.79797(8) 0.9769(2)
H10_2 H 0.9535 0.7777 0.9433
C37_2 C 0.98403(13) 0.89725(7) 0.95590(18)
C41_2 C 0.96375(15) 0.83214(8) 0.94327(19)
H16_2 H 0.9338 0.8349 0.8869
Zn11 Zn 0.002183(13) 0.319237(8) 0.58452(2)
O9 O 0.92054(10) 0.34349(7) 0.51196(16)
C6_3 C 0.46822(12) 0.51567(7) 0.05610(16)
H3_3 H 0.4279 0.5280 0.0258
C8_3 C 0.52282(12) 0.57194(7) 0.06701(16)
C11_3 C 0.46940(12) 0.47873(7) 0.06999(15)
C14_3 C 0.58471(12) 0.51656(7) 0.13281(15)
H5_3 H 0.6241 0.5294 0.1547
C15_3 C 0.41052(14) 0.45879(8) 0.03732(18)
C16_3 C 0.52818(13) 0.46101(7) 0.11558(15)
H6_3 H 0.5291 0.4359 0.1254
C22_3 C 0.50560(13) 0.63812(7) 0.01059(18)
C25_3 C 0.58586(12) 0.47962(7) 0.14717(16)
C26_3 C 0.52538(12) 0.53469(7) 0.08613(15)
C27_3 C 0.64579(14) 0.46018(8) 0.19773(19)
C30_3 C 0.36325(14) 0.44072(8) 0.0093(2)
C31_3 C 0.52461(15) 0.70203(8) 0.0231(2)
H10_3 H 0.5465 0.7223 0.0567
H11_3 H 0.3494 0.3706 0.0162
C37_3 C 0.51597(13) 0.60275(7) 0.04410(18)
C39_3 C 0.81181(17) 0.38435(10) 0.4119(2)
H15_3 H 0.8185 0.3748 0.4596
C40_3 C 0.85466(17) 0.37698(10) 0.3942(3)
C41_3 C 0.53625(15) 0.66786(8) 0.05673(19)
H16_3 H 0.5662 0.6651 0.1131
C42_3 C 0.74789(16) 0.42010(10) 0.2934(2)
H20_3 H 0.3059 0.2106 0.0160
C47_3 C 0.75759(17) 0.40584(10) 0.3613(2)
H23_3 H 0.7274 0.4105 0.3743
C49_3 C 0.69155(15) 0.44232(9) 0.2402(2)
C50_3 C 0.8454(2) 0.39071(13) 0.3253(3)
H25_3 H 0.8758 0.3855 0.3129
O11_3 O 0.95175(15) 0.34660(11) 0.4313(2)
C51_3 C 0.7921(2) 0.41211(15) 0.2741(3)
H26_3 H 0.7855 0.4213 0.2262
H29_3 H 0.3636 0.2697 0.0364
C56_3 C 0.9141(2) 0.35363(11) 0.4504(3)
Zn1_2 Zn 0.099291(12) 0.283962(7) 0.759328(19)
Zn3_4 Zn -0.0000 0.348375(12) 0.7500
O1_2 O 0.55230(7) 0.75132(4) 0.80128(11)
O2_3 O 0.01152(8) 0.31054(4) 0.68678(11)
O3_2 O 0.42932(8) 0.74561(5) 0.83063(11)
O4_3 O 0.17953(8) 0.25288(5) 0.83478(12)
O5_3 O 0.15051(8) 0.31652(5) 0.72942(13)
O6_3 O 0.08048(9) 0.37350(5) 0.80888(15)
O7_2 O 0.50111(8) 0.76939(5) 0.95130(12)
O8_3 O 0.13573(9) 0.32212(5) 0.85664(12)
C1_4 C 0.5000 0.58075(9) 0.7500
C2_4 C 0.5000 0.50967(9) 0.7500
C3_3 C 0.13250(13) 0.35556(7) 0.85136(18)
O10_3 O 0.08163(9) 0.34165(6) 0.60951(13)
C4_3 C 0.44194(12) 0.67612(6) 0.70723(18)
H1_3 H 0.4021 0.6889 0.6776
C5_3 C 0.44365(12) 0.49096(6) 0.72407(16)
H2_3 H 0.4046 0.5038 0.7047
C7_4 C 0.5000 0.69496(9) 0.7500
C9_3 C 0.48182(12) 0.70688(7) 0.94195(17)
C10_4 C 0.5000 0.54861(9) 0.7500
C12_3 C 0.44401(12) 0.45295(7) 0.72635(17)
C13_3 C 0.44206(12) 0.63865(7) 0.70766(17)
H4_3 H 0.4022 0.6259 0.6788
C17_3 C 0.38752(14) 0.43387(7) 0.70901(19)
C18_3 C 0.13705(12) 0.33668(8) 0.6736(2)
C19_3 C 0.19359(13) 0.37735(7) 0.89751(19)
N1_3 N 0.28502(11) 0.24804(8) 0.93480(16)
C20_3 C 0.23500(12) 0.26547(8) 0.8761(2)
H7_3 H 0.2416 0.2892 0.8645
C21_4 C 0.5000 0.43456(9) 0.7500
H8_4 H 0.5000 0.4089 0.7500
C23_3 C 0.44915(17) 0.67694(7) 0.8937(2)
H9_3 H 0.4189 0.6799 0.8375
C24_4 C 0.5000 0.61970(9) 0.7500
C28_3 C 0.34298(14) 0.41753(8) 0.6993(2)
C29_3 C 0.29063(14) 0.39740(8) 0.6923(2)
C32_3 C 0.30867(14) 0.38224(8) 0.9830(2)
C33_3 C 0.46059(17) 0.64309(8) 0.9275(2)
H12_3 H 0.4378 0.6229 0.8943
C34_3 C 0.25266(13) 0.36202(8) 0.9453(2)
H13_3 H 0.2557 0.3366 0.9531
C35_3 C 0.29987(14) 0.38102(9) 0.7591(2)
H14_3 H 0.3400 0.3835 0.8098
C36_3 C 0.19126(13) 0.35800(8) 0.68038(19)
C38_3 C 0.30611(14) 0.41903(8) 0.9730(2)
C43_3 C 0.25022(14) 0.36070(9) 0.7521(2)
H17_3 H 0.2575 0.3486 0.7979
C44_3 C 0.18189(16) 0.37553(11) 0.6143(2)
H18_3 H 0.1408 0.3743 0.5644
C45_3 C 0.2799(2) 0.21247(11) 0.9573(3)
H19_3 H 0.2959 0.1951 0.9360
H21_3 H 0.2346 0.2072 0.9354
C46_3 C 0.19057(17) 0.41402(10) 0.8879(4)
H22_3 H 0.1497 0.4253 0.8530
C48_3 C 0.23088(17) 0.39478(11) 0.6194(2)
H24_3 H 0.2238 0.4062 0.5730
C52_3 C 0.24534(18) 0.43461(10) 0.9278(4)
H27_3 H 0.2416 0.4602 0.9245
C53_3 C 0.34977(16) 0.26573(15) 0.9809(3)
H28_3 H 0.3471 0.2889 0.9561
H30_3 H 0.3812 0.2502 0.9807
C54_4 C 0.5000 0.73538(9) 0.7500
C55_3 C 0.46943(13) 0.74328(7) 0.90420(17)
Zn5 Zn 0.599291(12) 0.783962(7) 0.759328(19)
Zn6_2 Zn 0.400709(12) 0.783962(7) 0.740672(19)
Zn7 Zn 0.900709(12) 0.283962(7) 0.740672(19)
Zn10_2 Zn 0.497817(13) 0.819237(8) 0.91548(2)
Zn12 Zn 0.997817(13) 0.319237(8) 0.91548(2)
O12_2 O 0.44770(7) 0.75132(4) 0.69872(11)
O13_2 O 0.05230(7) 0.25132(4) 0.80128(11)
O17_2 O 0.07068(8) 0.24561(5) 0.66937(11)
O20 O 0.84949(8) 0.31652(5) 0.77058(13)
O25_2 O 0.00111(8) 0.26939(5) 0.95130(12)
O29 O 0.07946(10) 0.34349(7) 0.98804(16)
O30 O 0.91837(9) 0.34165(6) 0.89049(13)
C58_3 C 0.55806(12) 0.67612(6) 0.79277(18)
H31_3 H 0.5979 0.6889 0.8224
C59_3 C 0.55635(12) 0.49096(6) 0.77593(16)
H32_3 H 0.5954 0.5038 0.7953
C64_3 C 0.55599(12) 0.45295(7) 0.77365(17)
C65_3 C 0.55794(12) 0.63865(7) 0.79234(17)
H34_3 H 0.5978 0.6259 0.8212
C69_3 C 0.61248(14) 0.43387(7) 0.79099(19)
C70_3 C 0.86295(12) 0.33668(8) 0.8264(2)
C78_3 C 0.65702(14) 0.41753(8) 0.8007(2)
C79_3 C 0.70937(14) 0.39740(8) 0.8077(2)
C85_3 C 0.70013(14) 0.38102(9) 0.7409(2)
H43_3 H 0.6600 0.3835 0.6902
C86_3 C 0.80874(13) 0.35800(8) 0.81962(19)
C93_3 C 0.74978(14) 0.36070(9) 0.7479(2)
H46_3 H 0.7425 0.3486 0.7021
C94_3 C 0.81811(16) 0.37553(11) 0.8857(2)
H47_3 H 0.8592 0.3743 0.9356
C98_3 C 0.76912(17) 0.39478(11) 0.8806(2)
H53_3 H 0.7762 0.4062 0.9270
Zn3_5 Zn 1.0000 0.348375(12) 0.7500
Zn13_2 Zn 0.502183(13) 0.819237(8) 0.58452(2)
O14_2 O 0.94770(7) 0.25132(4) 0.69872(11)
O15_3 O 0.98848(8) 0.31054(4) 0.81322(11)
O16_2 O 0.57068(8) 0.74561(5) 0.66937(11)
O18_2 O 0.92932(8) 0.24561(5) 0.83063(11)
O19_3 O 0.82047(8) 0.25288(5) 0.66522(12)
O22_3 O 0.91952(9) 0.37350(5) 0.69112(15)
O23_2 O 0.49889(8) 0.76939(5) 0.54870(12)
O24_2 O 0.99889(8) 0.26939(5) 0.54870(12)
O26_3 O 0.86427(9) 0.32212(5) 0.64336(12)
C57_3 C 0.86750(13) 0.35556(7) 0.64864(18)
C60_3 C 0.53178(12) 0.51567(7) 0.44390(16)
H33_3 H 0.5721 0.5280 0.4742
C61_3 C 0.47718(12) 0.57194(7) 0.43299(16)
C62_3 C 0.51818(12) 0.70688(7) 0.55805(17)
C63_3 C 0.53060(12) 0.47873(7) 0.43001(15)
C66_3 C 0.41529(12) 0.51656(7) 0.36719(15)
H35_3 H 0.3759 0.5294 0.3453
C67_3 C 0.58948(14) 0.45879(8) 0.46268(18)
C68_3 C 0.47182(13) 0.46101(7) 0.38442(15)
H36_3 H 0.4709 0.4359 0.3746
C71_3 C 0.80641(13) 0.37735(7) 0.60249(19)
N2_3 N 0.71498(11) 0.24804(8) 0.56520(16)
C72_3 C 0.76500(12) 0.26547(8) 0.6239(2)
H37_3 H 0.7584 0.2892 0.6355
C73_3 C 0.49440(13) 0.63812(7) 0.48941(18)
C74_3 C 0.55085(17) 0.67694(7) 0.6063(2)
H38_3 H 0.5811 0.6799 0.6625
C75_3 C 0.41414(12) 0.47962(7) 0.35283(16)
C76_3 C 0.47462(12) 0.53469(7) 0.41387(15)
C77_3 C 0.35421(14) 0.46018(8) 0.30227(19)
C80_3 C 0.63675(14) 0.44072(8) 0.4907(2)
C81_3 C 0.47539(15) 0.70203(8) 0.4769(2)
H39_3 H 0.4535 0.7223 0.4433
C82_3 C 0.69133(14) 0.38224(8) 0.5170(2)
H40_3 H 0.6506 0.3706 0.4838
C83_3 C 0.53941(17) 0.64309(8) 0.5725(2)
H41_3 H 0.5622 0.6229 0.6057
C84_3 C 0.74734(13) 0.36202(8) 0.5547(2)
H42_3 H 0.7443 0.3366 0.5469
C87_3 C 0.48403(13) 0.60275(7) 0.45590(18)
C88_3 C 0.69389(14) 0.41903(8) 0.5270(2)
C89_3 C 0.18819(17) 0.38435(10) 0.0881(2)
H44_3 H 0.1815 0.3748 0.0404
C90_3 C 0.14534(17) 0.37698(10) 0.1058(3)
C91_3 C 0.46375(15) 0.66786(8) 0.44327(19)
H45_3 H 0.4338 0.6651 0.3869
C92_3 C 0.25211(16) 0.42010(10) 0.2066(2)
C95_3 C 0.7201(2) 0.21247(11) 0.5427(3)
H48_3 H 0.7041 0.1951 0.5640
H49_3 H 0.6941 0.2106 0.4840
H50_3 H 0.7654 0.2072 0.5646
C96_3 C 0.80943(17) 0.41402(10) 0.6121(4)
H51_3 H 0.8503 0.4253 0.6470
C97_3 C 0.24241(17) 0.40584(10) 0.1387(2)
H52_3 H 0.2726 0.4105 0.1257
C99_3 C 0.30845(15) 0.44232(9) 0.2598(2)
C100_3 C 0.1546(2) 0.39071(13) 0.1747(3)
H54_3 H 0.1242 0.3855 0.1871
O32_3 O 0.04825(15) 0.34660(11) 0.0687(2)
C101_3 C 0.2079(2) 0.41211(15) 0.2259(3)
H55_3 H 0.2145 0.4213 0.2738
C102_3 C 0.75466(18) 0.43461(10) 0.5722(4)
H56_3 H 0.7584 0.4602 0.5755
C103_3 C 0.65023(16) 0.26573(15) 0.5191(3)
H57_3 H 0.6529 0.2889 0.5439
H58_3 H 0.6364 0.2697 0.4636
H59_3 H 0.6188 0.2502 0.5193
C104_3 C 0.53057(13) 0.74328(7) 0.59580(17)
C105_3 C 0.0859(2) 0.35363(11) 0.0496(3)
C1_5 C 0.0000 0.08075(9) 0.7500
C2_5 C 0.0000 0.00967(9) 0.7500
C7_5 C 0.0000 0.19496(9) 0.7500
C10_5 C 0.0000 0.04861(9) 0.7500
C24_5 C 0.0000 0.11970(9) 0.7500
C54_5 C 0.0000 0.23538(9) 0.7500
C58_4 C 0.05806(12) 0.17612(6) 0.79277(18)
H31_4 H 0.0979 0.1889 0.8224
H32_4 H 0.0954 0.0038 0.7953
C65_4 C 0.05794(12) 0.13865(7) 0.79234(17)
H34_4 H 0.0978 0.1259 0.8212
O9_2 O 0.42054(10) 0.84349(7) 0.51196(16)
C16_4 C 0.02818(13) 0.96101(7) 0.11558(15)
H6_4 H 0.0291 0.9359 0.1254
C25_4 C 0.08586(12) 0.97962(7) 0.14717(16)
C27_4 C 0.14579(14) 0.96018(8) 0.19773(19)
C39_4 C 0.31181(17) 0.88435(10) 0.4119(2)
H15_4 H 0.3185 0.8748 0.4596
C40_4 C 0.35466(17) 0.87698(10) 0.3942(3)
C42_4 C 0.24789(16) 0.92010(10) 0.2934(2)
C47_4 C 0.25759(17) 0.90584(10) 0.3613(2)
H23_4 H 0.2274 0.9105 0.3743
C49_4 C 0.19155(15) 0.94232(9) 0.2402(2)
C50_4 C 0.3454(2) 0.89071(13) 0.3253(3)
H25_4 H 0.3758 0.8855 0.3129
O11_4 O 0.45175(15) 0.84660(11) 0.4313(2)
C51_4 C 0.2921(2) 0.91211(15) 0.2741(3)
H26_4 H 0.2855 0.9213 0.2262
C56_4 C 0.4141(2) 0.85363(11) 0.4504(3)
C21_5 C 0.0000 0.93456(9) 0.7500
H8_5 H 0.0000 0.9089 0.7500
O20_2 O 0.34949(8) 0.81652(5) 0.77058(13)
O30_2 O 0.41837(9) 0.84165(6) 0.89049(13)
C59_4 C 0.05635(12) 0.99096(6) 0.77593(16)
C64_4 C 0.05599(12) 0.95295(7) 0.77365(17)
C69_4 C 0.11248(14) 0.93387(7) 0.79099(19)
C70_4 C 0.36295(12) 0.83668(8) 0.8264(2)
C78_4 C 0.15702(14) 0.91753(8) 0.8007(2)
C79_4 C 0.20937(14) 0.89740(8) 0.8077(2)
C85_4 C 0.20013(14) 0.88102(9) 0.7409(2)
H43_4 H 0.1600 0.8835 0.6902
C86_4 C 0.30874(13) 0.85800(8) 0.81962(19)
C93_4 C 0.24978(14) 0.86070(9) 0.7479(2)
H46_4 H 0.2425 0.8486 0.7021
C94_4 C 0.31811(16) 0.87553(11) 0.8857(2)
H47_4 H 0.3592 0.8743 0.9356
C98_4 C 0.26912(17) 0.89478(11) 0.8806(2)
H53_4 H 0.2762 0.9062 0.9270
C1_6 C 1.0000 0.08075(9) 0.7500
C2_6 C 1.0000 0.00967(9) 0.7500
C4_4 C 0.94194(12) 0.17612(6) 0.70723(18)
H1_4 H 0.9021 0.1889 0.6776
H2_4 H 0.9046 0.0038 0.7047
C7_6 C 1.0000 0.19496(9) 0.7500
C9_4 C 0.98182(12) 0.20688(7) 0.94195(17)
C10_6 C 1.0000 0.04861(9) 0.7500
C13_4 C 0.94206(12) 0.13865(7) 0.70766(17)
H4_4 H 0.9022 0.1259 0.6788
C23_4 C 0.94915(17) 0.17694(7) 0.8937(2)
H9_4 H 0.9189 0.1799 0.8375
C24_6 C 1.0000 0.11970(9) 0.7500
C33_4 C 0.96059(17) 0.14309(8) 0.9275(2)
H12_4 H 0.9378 0.1229 0.8943
C54_6 C 1.0000 0.23538(9) 0.7500
C55_4 C 0.96943(13) 0.24328(7) 0.90420(17)
C60_4 C 0.03178(12) 0.01567(7) 0.44390(16)
H33_4 H 0.0721 0.0280 0.4742
C62_4 C 0.01818(12) 0.20688(7) 0.55805(17)
C74_4 C 0.05085(17) 0.17694(7) 0.6063(2)
H38_4 H 0.0811 0.1799 0.6625
C83_4 C 0.03941(17) 0.14309(8) 0.5725(2)
H41_4 H 0.0622 0.1229 0.6057
C104_4 C 0.03057(13) 0.24328(7) 0.59580(17)
Zn3_6 Zn 0.5000 0.848375(12) 0.7500
O2_4 O 0.51152(8) 0.81054(4) 0.68678(11)
O4_4 O 0.67953(8) 0.75288(5) 0.83478(12)
O5_4 O 0.65051(8) 0.81652(5) 0.72942(13)
O6_4 O 0.58048(9) 0.87350(5) 0.80888(15)
O8_4 O 0.63573(9) 0.82212(5) 0.85664(12)
C3_4 C 0.63250(13) 0.85556(7) 0.85136(18)
O10_4 O 0.58163(9) 0.84165(6) 0.60951(13)
C5_4 C 0.94365(12) 0.99096(6) 0.72407(16)
C12_4 C 0.94401(12) 0.95295(7) 0.72635(17)
C17_4 C 0.88752(14) 0.93387(7) 0.70901(19)
C18_4 C 0.63705(12) 0.83668(8) 0.6736(2)
C19_4 C 0.69359(13) 0.87735(7) 0.89751(19)
N1_4 N 0.78502(11) 0.74804(8) 0.93480(16)
C20_4 C 0.73500(12) 0.76547(8) 0.8761(2)
H7_4 H 0.7416 0.7892 0.8645
C21_6 C 1.0000 0.93456(9) 0.7500
H8_6 H 1.0000 0.9089 0.7500
C28_4 C 0.84298(14) 0.91753(8) 0.6993(2)
C29_4 C 0.79063(14) 0.89740(8) 0.6923(2)
C32_4 C 0.80867(14) 0.88224(8) 0.9830(2)
C34_4 C 0.75266(13) 0.86202(8) 0.9453(2)
H13_4 H 0.7557 0.8366 0.9531
C35_4 C 0.79987(14) 0.88102(9) 0.7591(2)
H14_4 H 0.8400 0.8835 0.8098
C36_4 C 0.69126(13) 0.85800(8) 0.68038(19)
C38_4 C 0.80611(14) 0.91903(8) 0.9730(2)
C43_4 C 0.75022(14) 0.86070(9) 0.7521(2)
H17_4 H 0.7575 0.8486 0.7979
C44_4 C 0.68189(16) 0.87553(11) 0.6143(2)
H18_4 H 0.6408 0.8743 0.5644
C45_4 C 0.7799(2) 0.71247(11) 0.9573(3)
H19_4 H 0.7959 0.6951 0.9360
H21_4 H 0.7346 0.7072 0.9354
C46_4 C 0.69057(17) 0.91402(10) 0.8879(4)
H22_4 H 0.6497 0.9253 0.8530
C48_4 C 0.73088(17) 0.89478(11) 0.6194(2)
H24_4 H 0.7238 0.9062 0.5730
C52_4 C 0.74534(18) 0.93461(10) 0.9278(4)
H27_4 H 0.7416 0.9602 0.9245
C53_4 C 0.84977(16) 0.76573(15) 0.9809(3)
H28_4 H 0.8471 0.7889 0.9561
H30_4 H 0.8812 0.7502 0.9807
O15_4 O 0.48848(8) 0.81054(4) 0.81322(11)
O19_4 O 0.32047(8) 0.75288(5) 0.66522(12)
O22_4 O 0.41952(9) 0.87350(5) 0.69112(15)
O26_4 O 0.36427(9) 0.82212(5) 0.64336(12)
O29_2 O 0.57946(10) 0.84349(7) 0.98804(16)
C57_4 C 0.36750(13) 0.85556(7) 0.64864(18)
C63_4 C 0.03060(12) 0.97873(7) 0.43001(15)
C67_4 C 0.08948(14) 0.95879(8) 0.46268(18)
C71_4 C 0.30641(13) 0.87735(7) 0.60249(19)
N2_4 N 0.21498(11) 0.74804(8) 0.56520(16)
C72_4 C 0.26500(12) 0.76547(8) 0.6239(2)
H37_4 H 0.2584 0.7892 0.6355
C80_4 C 0.13675(14) 0.94072(8) 0.4907(2)
C82_4 C 0.19133(14) 0.88224(8) 0.5170(2)
H40_4 H 0.1506 0.8706 0.4838
C84_4 C 0.24734(13) 0.86202(8) 0.5547(2)
H42_4 H 0.2443 0.8366 0.5469
C88_4 C 0.19389(14) 0.91903(8) 0.5270(2)
C95_4 C 0.2201(2) 0.71247(11) 0.5427(3)
H48_4 H 0.2041 0.6951 0.5640
H49_4 H 0.1941 0.7106 0.4840
H50_4 H 0.2654 0.7072 0.5646
C96_4 C 0.30943(17) 0.91402(10) 0.6121(4)
H51_4 H 0.3503 0.9253 0.6470
C102_4 C 0.25466(18) 0.93461(10) 0.5722(4)
H56_4 H 0.2584 0.9602 0.5755
C103_4 C 0.15023(16) 0.76573(15) 0.5191(3)
H57_4 H 0.1529 0.7889 0.5439
H58_4 H 0.1364 0.7697 0.4636
H59_4 H 0.1188 0.7502 0.5193
C61_4 C 0.97718(12) 0.07194(7) 0.43299(16)
C66_4 C 0.91529(12) 0.01656(7) 0.36719(15)
H35_4 H 0.8759 0.0294 0.3453
C73_4 C 0.99440(13) 0.13812(7) 0.48941(18)
C76_4 C 0.97462(12) 0.03469(7) 0.41387(15)
C81_4 C 0.97539(15) 0.20203(8) 0.4769(2)
H39_4 H 0.9535 0.2223 0.4433
C87_4 C 0.98403(13) 0.10275(7) 0.45590(18)
C91_4 C 0.96375(15) 0.16786(8) 0.44327(19)
H45_4 H 0.9338 0.1651 0.3869
C68_4 C 0.97182(13) 0.96101(7) 0.38442(15)
H36_4 H 0.9709 0.9359 0.3746
C75_4 C 0.91414(12) 0.97962(7) 0.35283(16)
C77_4 C 0.85421(14) 0.96018(8) 0.30227(19)
C89_4 C 0.68819(17) 0.88435(10) 0.0881(2)
H44_4 H 0.6815 0.8748 0.0404
C90_4 C 0.64534(17) 0.87698(10) 0.1058(3)
C92_4 C 0.75211(16) 0.92010(10) 0.2066(2)
C97_4 C 0.74241(17) 0.90584(10) 0.1387(2)
H52_4 H 0.7726 0.9105 0.1257
C99_4 C 0.80845(15) 0.94232(9) 0.2598(2)
C100_4 C 0.6546(2) 0.89071(13) 0.1747(3)
H54_4 H 0.6242 0.8855 0.1871
O32_4 O 0.54825(15) 0.84660(11) 0.0687(2)
C101_4 C 0.7079(2) 0.91211(15) 0.2259(3)
H55_4 H 0.7145 0.9213 0.2738
C105_4 C 0.5859(2) 0.85363(11) 0.0496(3)
C8_4 C 0.02282(12) 0.07194(7) 0.06701(16)
C14_4 C 0.08471(12) 0.01656(7) 0.13281(15)
H5_4 H 0.1241 0.0294 0.1547
C22_4 C 0.00560(13) 0.13812(7) 0.01059(18)
C26_4 C 0.02538(12) 0.03469(7) 0.08613(15)
C31_4 C 0.02461(15) 0.20203(8) 0.0231(2)
H10_4 H 0.0465 0.2223 0.0567
C37_4 C 0.01597(13) 0.10275(7) 0.04410(18)
C41_4 C 0.03625(15) 0.16786(8) 0.05673(19)
H16_4 H 0.0662 0.1651 0.1131
C6_4 C 0.96822(12) 0.01567(7) 0.05610(16)
H3_4 H 0.9279 0.0280 0.0258
C11_4 C 0.96940(12) 0.97873(7) 0.06999(15)
C15_4 C 0.91052(14) 0.95879(8) 0.03732(18)
C30_4 C 0.86325(14) 0.94072(8) 0.0093(2)
H11_4 H 0.8494 0.8706 0.0162
H20_4 H 0.8059 0.7106 0.0160
H29_4 H 0.8636 0.7697 0.0364
loop_
_geom_bond_atom_site_label_1
_geom_bond_atom_site_label_2
_geom_bond_site_symmetry_1
_geom_bond_site_symmetry_2
Zn4 O14 1_555 1_555
Zn8 O16 1_555 1_555
Zn14 O15 1_555 1_555
Zn13 O23 1_555 1_555
O15 Zn3 1_555 1_555
O16 C104 1_555 1_555
O18 Zn4 1_555 1_555
O19 Zn4 1_555 1_555
O21 Zn4 1_555 1_555
O22 Zn3 1_555 1_555
O23 C104 1_555 1_555
O26 Zn4 1_555 1_555
C57 O22 1_555 1_555
O31 Zn14 1_555 1_555
C60 H33 1_555 1_555
C61 C76 1_555 1_555
C62 C74 1_555 1_555
C63 C60 1_555 1_555
C66 H35 1_555 1_555
C67 C63 1_555 1_555
C68 C63 1_555 1_555
H36 C68 1_555 1_555
C71 C57 1_555 1_555
N2 C72 1_555 1_555
C72 O19 1_555 1_555
H37 C72 1_555 1_555
C73 C83 1_555 1_555
C74 H38 1_555 1_555
C75 C66 1_555 1_555
C76 C60 1_555 1_555
C77 C75 1_555 1_555
C80 C67 1_555 1_555
C81 C62 1_555 1_555
H39 C81 1_555 1_555
C82 H40 1_555 1_555
C83 C74 1_555 1_555
H41 C83 1_555 1_555
C84 C71 1_555 1_555
H42 C84 1_555 1_555
C87 C61 1_555 1_555
C88 C80 1_555 1_555
C89 H44 1_555 1_555
C90 C89 1_555 1_555
C91 C73 1_555 1_555
H45 C91 1_555 1_555
C92 C97 1_555 1_555
C95 N2 1_555 1_555
H48 C95 1_555 1_555
H49 C95 1_555 1_555
H50 C95 1_555 1_555
C96 C71 1_555 1_555
H51 C96 1_555 1_555
C97 C89 1_555 1_555
H52 C97 1_555 1_555
C99 C77 1_555 1_555
C100 C90 1_555 1_555
H54 C100 1_555 1_555
O32 C105 1_555 1_555
C101 C92 1_555 1_555
H55 C101 1_555 1_555
C102 C88 1_555 1_555
H56 C102 1_555 1_555
C103 N2 1_555 1_555
H57 C103 1_555 1_555
H58 C103 1_555 1_555
H59 C103 1_555 1_555
C104 C62 1_555 1_555
C105 C90 1_555 1_555
Zn4 O15 1_555 1_555
O26 C57 1_555 1_555
C66 C76 1_555 1_555
C68 C75 1_555 1_555
C73 C87 1_555 1_555
C81 C91 1_555 1_555
C82 C84 1_555 1_555
C82 C88 1_555 1_555
C92 C99 1_555 1_555
C96 C102 1_555 1_555
C100 C101 1_555 1_555
Zn1 O2 1_555 1_555
Zn2 O2 1_555 1_555
Zn3_2 O2 1_555 1_555
O1 C54 1_555 1_555
O3 C55 1_555 1_555
O4 Zn1 1_555 1_555
O5 Zn1 1_555 1_555
O6 Zn3_2 1_555 1_555
O7 C55 1_555 1_555
O8 Zn1 1_555 1_555
C1 C10 1_555 1_555
C2 C5 1_555 1_555
C3 O6 1_555 1_555
O10 Zn2 1_555 1_555
C4 H1 1_555 1_555
C5 H2 1_555 1_555
C7 C4 1_555 1_555
C9 C23 1_555 1_555
C10 C2 1_555 1_555
C12 C5 1_555 1_555
C13 C4 1_555 1_555
H4 C13 1_555 1_555
C17 C12 1_555 1_555
C18 O5 1_555 1_555
C19 C3 1_555 1_555
N1 C20 1_555 1_555
C20 O4 1_555 1_555
H7 C20 1_555 1_555
C21 C12 1_555 1_555
H8 C21 1_555 1_555
C23 H9 1_555 1_555
C24 C1 1_555 1_555
C28 C17 1_555 1_555
C29 C28 1_555 1_555
C33 C23 1_555 1_555
H12 C33 1_555 1_555
C34 C19 1_555 1_555
H13 C34 1_555 1_555
C35 C29 1_555 1_555
H14 C35 1_555 1_555
C36 C18 1_555 1_555
C43 C35 1_555 1_555
H17 C43 1_555 1_555
C44 C36 1_555 1_555
H18 C44 1_555 1_555
C45 N1 1_555 1_555
H19 C45 1_555 1_555
H21 C45 1_555 1_555
C46 C19 1_555 1_555
H22 C46 1_555 1_555
C48 C29 1_555 1_555
H24 C48 1_555 1_555
C52 C38 1_555 1_555
H27 C52 1_555 1_555
C53 N1 1_555 1_555
H28 C53 1_555 1_555
H30 C53 1_555 1_555
C54 C7 1_555 1_555
C55 C9 1_555 1_555
Zn8 O1 1_555 1_555
Zn6 O3 1_555 1_555
Zn10 O7 1_555 1_555
O12 C54 1_555 1_555
O13 Zn1 1_555 1_555
O17 Zn1 1_555 1_555
O21 C70 1_555 1_555
O31 C70 1_555 1_555
C58 C7 1_555 1_555
H31 C58 1_555 1_555
C59 C2 1_555 1_555
H32 C59 1_555 1_555
C64 C21 1_555 1_555
C65 C24 1_555 1_555
H34 C65 1_555 1_555
C69 C64 1_555 1_555
C70 C86 1_555 1_555
C78 C69 1_555 1_555
C79 C78 1_555 1_555
C85 C79 1_555 1_555
H43 C85 1_555 1_555
C86 C93 1_555 1_555
C93 C85 1_555 1_555
H46 C93 1_555 1_555
C94 C86 1_555 1_555
H47 C94 1_555 1_555
C98 C79 1_555 1_555
H53 C98 1_555 1_555
O8 C3 1_555 1_555
O10 C18 1_555 1_555
C13 C24 1_555 1_555
C32 C34 1_555 1_555
C32 C38 1_555 1_555
C36 C43 1_555 1_555
C44 C48 1_555 1_555
C46 C52 1_555 1_555
Zn6 O12 1_555 1_555
C58 C65 1_555 1_555
C59 C64 1_555 1_555
C94 C98 1_555 1_555
O28 C56 1_555 1_555
C6 H3 1_555 1_555
C8 C26 1_555 1_555
C11 C6 1_555 1_555
C14 H5 1_555 1_555
C15 C11 1_555 1_555
C16 C11 1_555 1_555
H6 C16 1_555 1_555
C25 C14 1_555 1_555
C26 C6 1_555 1_555
C27 C25 1_555 1_555
C30 C15 1_555 1_555
H10 C31 1_555 1_555
C37 C8 1_555 1_555
C39 H15 1_555 1_555
C40 C39 1_555 1_555
C41 C22 1_555 1_555
H16 C41 1_555 1_555
C42 C47 1_555 1_555
C47 C39 1_555 1_555
H23 C47 1_555 1_555
C49 C27 1_555 1_555
C50 C40 1_555 1_555
H25 C50 1_555 1_555
O11 C56 1_555 1_555
C51 C42 1_555 1_555
H26 C51 1_555 1_555
C56 C40 1_555 1_555
C14 C26 1_555 1_555
C16 C25 1_555 1_555
C22 C37 1_555 1_555
C31 C41 1_555 1_555
C42 C49 1_555 1_555
C50 C51 1_555 1_555
Zn10 O27_2 1_555 1_555
H36_2 C68_2 1_555 1_555
C77_2 C75_2 1_555 1_555
C89_2 H44_2 1_555 1_555
C90_2 C89_2 1_555 1_555
C92_2 C97_2 1_555 1_555
C97_2 C89_2 1_555 1_555
H52_2 C97_2 1_555 1_555
C99_2 C77_2 1_555 1_555
C100_2 C90_2 1_555 1_555
H54_2 C100_2 1_555 1_555
O32_2 C105_2 1_555 1_555
C101_2 C92_2 1_555 1_555
H55_2 C101_2 1_555 1_555
C105_2 C90_2 1_555 1_555
C68_2 C75_2 1_555 1_555
C92_2 C99_2 1_555 1_555
C100_2 C101_2 1_555 1_555
C61_2 C76_2 1_555 1_555
C66_2 H35_2 1_555 1_555
H39_2 C81_2 1_555 1_555
C87_2 C61_2 1_555 1_555
C91_2 C73_2 1_555 1_555
H45_2 C91_2 1_555 1_555
C66_2 C76_2 1_555 1_555
C73_2 C87_2 1_555 1_555
C81_2 C91_2 1_555 1_555
Zn8 O2_2 1_555 1_555
Zn13 O2_2 1_555 1_555
Zn3_3 O2_2 1_555 1_555
O4_2 Zn8 1_555 1_555
O5_2 Zn8 1_555 1_555
O6_2 Zn3_3 1_555 1_555
O8_2 Zn8 1_555 1_555
C3_2 O6_2 1_555 1_555
O10_2 Zn13 1_555 1_555
C12_2 C5_2 1_555 1_555
C17_2 C12_2 1_555 1_555
C18_2 O5_2 1_555 1_555
C19_2 C3_2 1_555 1_555
N1_2 C20_2 1_555 1_555
C20_2 O4_2 1_555 1_555
H7_2 C20_2 1_555 1_555
C21_2 C12_2 1_555 1_555
H8_2 C21_2 1_555 1_555
C28_2 C17_2 1_555 1_555
C29_2 C28_2 1_555 1_555
C34_2 C19_2 1_555 1_555
H13_2 C34_2 1_555 1_555
C35_2 C29_2 1_555 1_555
H14_2 C35_2 1_555 1_555
C36_2 C18_2 1_555 1_555
C43_2 C35_2 1_555 1_555
H17_2 C43_2 1_555 1_555
C44_2 C36_2 1_555 1_555
H18_2 C44_2 1_555 1_555
C45_2 N1_2 1_555 1_555
H19_2 C45_2 1_555 1_555
H21_2 C45_2 1_555 1_555
C46_2 C19_2 1_555 1_555
H22_2 C46_2 1_555 1_555
C48_2 C29_2 1_555 1_555
H24_2 C48_2 1_555 1_555
C52_2 C38_2 1_555 1_555
H27_2 C52_2 1_555 1_555
C53_2 N1_2 1_555 1_555
H28_2 C53_2 1_555 1_555
H30_2 C53_2 1_555 1_555
Zn10 O15_2 1_555 1_555
O15_2 Zn3_3 1_555 1_555
O19_2 Zn6 1_555 1_555
O21_2 Zn6 1_555 1_555
O22_2 Zn3_3 1_555 1_555
O26_2 Zn6 1_555 1_555
O28_2 Zn13 1_555 1_555
C57_2 O22_2 1_555 1_555
O31_2 Zn10 1_555 1_555
C67_2 C63_2 1_555 1_555
C71_2 C57_2 1_555 1_555
N2_2 C72_2 1_555 1_555
C72_2 O19_2 1_555 1_555
H37_2 C72_2 1_555 1_555
C80_2 C67_2 1_555 1_555
C82_2 H40_2 1_555 1_555
C84_2 C71_2 1_555 1_555
H42_2 C84_2 1_555 1_555
C88_2 C80_2 1_555 1_555
C95_2 N2_2 1_555 1_555
H48_2 C95_2 1_555 1_555
H49_2 C95_2 1_555 1_555
H50_2 C95_2 1_555 1_555
C96_2 C71_2 1_555 1_555
H51_2 C96_2 1_555 1_555
C102_2 C88_2 1_555 1_555
H56_2 C102_2 1_555 1_555
C103_2 N2_2 1_555 1_555
H57_2 C103_2 1_555 1_555
H58_2 C103_2 1_555 1_555
H59_2 C103_2 1_555 1_555
O8_2 C3_2 1_555 1_555
O10_2 C18_2 1_555 1_555
C32_2 C34_2 1_555 1_555
C32_2 C38_2 1_555 1_555
C36_2 C43_2 1_555 1_555
C44_2 C48_2 1_555 1_555
C46_2 C52_2 1_555 1_555
Zn6 O15_2 1_555 1_555
O26_2 C57_2 1_555 1_555
C82_2 C84_2 1_555 1_555
C82_2 C88_2 1_555 1_555
C96_2 C102_2 1_555 1_555
O18 C55_2 1_555 1_555
C1_2 C10_2 1_555 1_555
C4_2 H1_2 1_555 1_555
C7_2 C4_2 1_555 1_555
C9_2 C23_2 1_555 1_555
C10_2 C2_2 1_555 1_555
C13_2 C4_2 1_555 1_555
H4_2 C13_2 1_555 1_555
C23_2 H9_2 1_555 1_555
C24_2 C1_2 1_555 1_555
C33_2 C23_2 1_555 1_555
H12_2 C33_2 1_555 1_555
C54_2 C7_2 1_555 1_555
C55_2 C9_2 1_555 1_555
O14 C54_2 1_555 1_555
O17 C104_2 1_555 1_555
C60_2 H33_2 1_555 1_555
C62_2 C74_2 1_555 1_555
C74_2 H38_2 1_555 1_555
C83_2 C74_2 1_555 1_555
H41_2 C83_2 1_555 1_555
C104_2 C62_2 1_555 1_555
C13_2 C24_2 1_555 1_555
H8_3 C21_3 1_555 1_555
O21_2 C70_2 1_555 1_555
O31_2 C70_2 1_555 1_555
C64_2 C21_3 1_555 1_555
C69_2 C64_2 1_555 1_555
C70_2 C86_2 1_555 1_555
C78_2 C69_2 1_555 1_555
C79_2 C78_2 1_555 1_555
C85_2 C79_2 1_555 1_555
H43_2 C85_2 1_555 1_555
C86_2 C93_2 1_555 1_555
C93_2 C85_2 1_555 1_555
H46_2 C93_2 1_555 1_555
C94_2 C86_2 1_555 1_555
H47_2 C94_2 1_555 1_555
C98_2 C79_2 1_555 1_555
H53_2 C98_2 1_555 1_555
C59_2 C64_2 1_555 1_555
C94_2 C98_2 1_555 1_555
O28_2 C56_2 1_555 1_555
H6_2 C16_2 1_555 1_555
C27_2 C25_2 1_555 1_555
C39_2 H15_2 1_555 1_555
C40_2 C39_2 1_555 1_555
C42_2 C47_2 1_555 1_555
C47_2 C39_2 1_555 1_555
H23_2 C47_2 1_555 1_555
C49_2 C27_2 1_555 1_555
C50_2 C40_2 1_555 1_555
H25_2 C50_2 1_555 1_555
O11_2 C56_2 1_555 1_555
C51_2 C42_2 1_555 1_555
H26_2 C51_2 1_555 1_555
C56_2 C40_2 1_555 1_555
C16_2 C25_2 1_555 1_555
C42_2 C49_2 1_555 1_555
C50_2 C51_2 1_555 1_555
O13 C54_3 1_555 1_555
C1_3 C10_3 1_555 1_555
C10_3 C2_3 1_555 1_555
C24_3 C1_3 1_555 1_555
C54_3 C7_3 1_555 1_555
C58_2 C7_3 1_555 1_555
H31_2 C58_2 1_555 1_555
C65_2 C24_3 1_555 1_555
H34_2 C65_2 1_555 1_555
C58_2 C65_2 1_555 1_555
C15_2 C11_2 1_555 1_555
C30_2 C15_2 1_555 1_555
C6_2 H3_2 1_555 1_555
C8_2 C26_2 1_555 1_555
C14_2 H5_2 1_555 1_555
H10_2 C31_2 1_555 1_555
C37_2 C8_2 1_555 1_555
C41_2 C22_2 1_555 1_555
H16_2 C41_2 1_555 1_555
C14_2 C26_2 1_555 1_555
C22_2 C37_2 1_555 1_555
C31_2 C41_2 1_555 1_555
O9 C56_3 1_555 1_555
C6_3 H3_3 1_555 1_555
C8_3 C26_3 1_555 1_555
C11_3 C6_3 1_555 1_555
C14_3 H5_3 1_555 1_555
C15_3 C11_3 1_555 1_555
C16_3 C11_3 1_555 1_555
H6_3 C16_3 1_555 1_555
C25_3 C14_3 1_555 1_555
C26_3 C6_3 1_555 1_555
C27_3 C25_3 1_555 1_555
C30_3 C15_3 1_555 1_555
H10_3 C31_3 1_555 1_555
C37_3 C8_3 1_555 1_555
C39_3 H15_3 1_555 1_555
C40_3 C39_3 1_555 1_555
C41_3 C22_3 1_555 1_555
H16_3 C41_3 1_555 1_555
C42_3 C47_3 1_555 1_555
C47_3 C39_3 1_555 1_555
H23_3 C47_3 1_555 1_555
C49_3 C27_3 1_555 1_555
C50_3 C40_3 1_555 1_555
H25_3 C50_3 1_555 1_555
O11_3 C56_3 1_555 1_555
C51_3 C42_3 1_555 1_555
H26_3 C51_3 1_555 1_555
C56_3 C40_3 1_555 1_555
C14_3 C26_3 1_555 1_555
C16_3 C25_3 1_555 1_555
C22_3 C37_3 1_555 1_555
C31_3 C41_3 1_555 1_555
C42_3 C49_3 1_555 1_555
C50_3 C51_3 1_555 1_555
Zn1_2 O2_3 1_555 1_555
Zn11 O2_3 1_555 1_555
Zn3_4 O2_3 1_555 1_555
O1_2 C54_4 1_555 1_555
O3_2 C55_3 1_555 1_555
O4_3 Zn1_2 1_555 1_555
O5_3 Zn1_2 1_555 1_555
O6_3 Zn3_4 1_555 1_555
O7_2 C55_3 1_555 1_555
O8_3 Zn1_2 1_555 1_555
C1_4 C10_4 1_555 1_555
C2_4 C5_3 1_555 1_555
C3_3 O6_3 1_555 1_555
O10_3 Zn11 1_555 1_555
C4_3 H1_3 1_555 1_555
C5_3 H2_3 1_555 1_555
C7_4 C4_3 1_555 1_555
C9_3 C23_3 1_555 1_555
C10_4 C2_4 1_555 1_555
C12_3 C5_3 1_555 1_555
C13_3 C4_3 1_555 1_555
H4_3 C13_3 1_555 1_555
C17_3 C12_3 1_555 1_555
C18_3 O5_3 1_555 1_555
C19_3 C3_3 1_555 1_555
N1_3 C20_3 1_555 1_555
C20_3 O4_3 1_555 1_555
H7_3 C20_3 1_555 1_555
C21_4 C12_3 1_555 1_555
H8_4 C21_4 1_555 1_555
C23_3 H9_3 1_555 1_555
C24_4 C1_4 1_555 1_555
C28_3 C17_3 1_555 1_555
C29_3 C28_3 1_555 1_555
C33_3 C23_3 1_555 1_555
H12_3 C33_3 1_555 1_555
C34_3 C19_3 1_555 1_555
H13_3 C34_3 1_555 1_555
C35_3 C29_3 1_555 1_555
H14_3 C35_3 1_555 1_555
C36_3 C18_3 1_555 1_555
C43_3 C35_3 1_555 1_555
H17_3 C43_3 1_555 1_555
C44_3 C36_3 1_555 1_555
H18_3 C44_3 1_555 1_555
C45_3 N1_3 1_555 1_555
H19_3 C45_3 1_555 1_555
H21_3 C45_3 1_555 1_555
C46_3 C19_3 1_555 1_555
H22_3 C46_3 1_555 1_555
C48_3 C29_3 1_555 1_555
H24_3 C48_3 1_555 1_555
C52_3 C38_3 1_555 1_555
H27_3 C52_3 1_555 1_555
C53_3 N1_3 1_555 1_555
H28_3 C53_3 1_555 1_555
H30_3 C53_3 1_555 1_555
C54_4 C7_4 1_555 1_555
C55_3 C9_3 1_555 1_555
Zn5 O1_2 1_555 1_555
Zn6_2 O3_2 1_555 1_555
Zn7 O20 1_555 1_555
Zn10_2 O7_2 1_555 1_555
Zn12 O30 1_555 1_555
O12_2 C54_4 1_555 1_555
O13_2 Zn1_2 1_555 1_555
O17_2 Zn1_2 1_555 1_555
O20 C70_3 1_555 1_555
O30 C70_3 1_555 1_555
C58_3 C7_4 1_555 1_555
H31_3 C58_3 1_555 1_555
C59_3 C2_4 1_555 1_555
H32_3 C59_3 1_555 1_555
C64_3 C21_4 1_555 1_555
C65_3 C24_4 1_555 1_555
H34_3 C65_3 1_555 1_555
C69_3 C64_3 1_555 1_555
C70_3 C86_3 1_555 1_555
C78_3 C69_3 1_555 1_555
C79_3 C78_3 1_555 1_555
C85_3 C79_3 1_555 1_555
H43_3 C85_3 1_555 1_555
C86_3 C93_3 1_555 1_555
C93_3 C85_3 1_555 1_555
H46_3 C93_3 1_555 1_555
C94_3 C86_3 1_555 1_555
H47_3 C94_3 1_555 1_555
C98_3 C79_3 1_555 1_555
H53_3 C98_3 1_555 1_555
O8_3 C3_3 1_555 1_555
O10_3 C18_3 1_555 1_555
C13_3 C24_4 1_555 1_555
C32_3 C34_3 1_555 1_555
C32_3 C38_3 1_555 1_555
C36_3 C43_3 1_555 1_555
C44_3 C48_3 1_555 1_555
C46_3 C52_3 1_555 1_555
Zn6_2 O12_2 1_555 1_555
C58_3 C65_3 1_555 1_555
C59_3 C64_3 1_555 1_555
C94_3 C98_3 1_555 1_555
Zn7 O14_2 1_555 1_555
Zn5 O16_2 1_555 1_555
Zn12 O15_3 1_555 1_555
Zn13_2 O23_2 1_555 1_555
O15_3 Zn3_5 1_555 1_555
O16_2 C104_3 1_555 1_555
O18_2 Zn7 1_555 1_555
O19_3 Zn7 1_555 1_555
O22_3 Zn3_5 1_555 1_555
O23_2 C104_3 1_555 1_555
O26_3 Zn7 1_555 1_555
C57_3 O22_3 1_555 1_555
C60_3 H33_3 1_555 1_555
C61_3 C76_3 1_555 1_555
C62_3 C74_3 1_555 1_555
C63_3 C60_3 1_555 1_555
C66_3 H35_3 1_555 1_555
C67_3 C63_3 1_555 1_555
C68_3 C63_3 1_555 1_555
H36_3 C68_3 1_555 1_555
C71_3 C57_3 1_555 1_555
N2_3 C72_3 1_555 1_555
C72_3 O19_3 1_555 1_555
H37_3 C72_3 1_555 1_555
C73_3 C83_3 1_555 1_555
C74_3 H38_3 1_555 1_555
C75_3 C66_3 1_555 1_555
C76_3 C60_3 1_555 1_555
C77_3 C75_3 1_555 1_555
C80_3 C67_3 1_555 1_555
C81_3 C62_3 1_555 1_555
H39_3 C81_3 1_555 1_555
C82_3 H40_3 1_555 1_555
C83_3 C74_3 1_555 1_555
H41_3 C83_3 1_555 1_555
C84_3 C71_3 1_555 1_555
H42_3 C84_3 1_555 1_555
C87_3 C61_3 1_555 1_555
C88_3 C80_3 1_555 1_555
C89_3 H44_3 1_555 1_555
C90_3 C89_3 1_555 1_555
C91_3 C73_3 1_555 1_555
H45_3 C91_3 1_555 1_555
C92_3 C97_3 1_555 1_555
C95_3 N2_3 1_555 1_555
H48_3 C95_3 1_555 1_555
H49_3 C95_3 1_555 1_555
H50_3 C95_3 1_555 1_555
C96_3 C71_3 1_555 1_555
H51_3 C96_3 1_555 1_555
C97_3 C89_3 1_555 1_555
H52_3 C97_3 1_555 1_555
C99_3 C77_3 1_555 1_555
C100_3 C90_3 1_555 1_555
H54_3 C100_3 1_555 1_555
O32_3 C105_3 1_555 1_555
C101_3 C92_3 1_555 1_555
H55_3 C101_3 1_555 1_555
C102_3 C88_3 1_555 1_555
H56_3 C102_3 1_555 1_555
C103_3 N2_3 1_555 1_555
H57_3 C103_3 1_555 1_555
H58_3 C103_3 1_555 1_555
H59_3 C103_3 1_555 1_555
C104_3 C62_3 1_555 1_555
C105_3 C90_3 1_555 1_555
Zn7 O15_3 1_555 1_555
O26_3 C57_3 1_555 1_555
C66_3 C76_3 1_555 1_555
C68_3 C75_3 1_555 1_555
C73_3 C87_3 1_555 1_555
C81_3 C91_3 1_555 1_555
C82_3 C84_3 1_555 1_555
C82_3 C88_3 1_555 1_555
C92_3 C99_3 1_555 1_555
C96_3 C102_3 1_555 1_555
C100_3 C101_3 1_555 1_555
O13_2 C54_5 1_555 1_555
C1_5 C10_5 1_555 1_555
C10_5 C2_5 1_555 1_555
C24_5 C1_5 1_555 1_555
C54_5 C7_5 1_555 1_555
C58_4 C7_5 1_555 1_555
H31_4 C58_4 1_555 1_555
C65_4 C24_5 1_555 1_555
H34_4 C65_4 1_555 1_555
C58_4 C65_4 1_555 1_555
O9_2 C56_4 1_555 1_555
H6_4 C16_4 1_555 1_555
C27_4 C25_4 1_555 1_555
C39_4 H15_4 1_555 1_555
C40_4 C39_4 1_555 1_555
C42_4 C47_4 1_555 1_555
C47_4 C39_4 1_555 1_555
H23_4 C47_4 1_555 1_555
C49_4 C27_4 1_555 1_555
C50_4 C40_4 1_555 1_555
H25_4 C50_4 1_555 1_555
O11_4 C56_4 1_555 1_555
C51_4 C42_4 1_555 1_555
H26_4 C51_4 1_555 1_555
C56_4 C40_4 1_555 1_555
Zn13_2 O9_2 1_555 1_555
C16_4 C25_4 1_555 1_555
C42_4 C49_4 1_555 1_555
C50_4 C51_4 1_555 1_555
H8_5 C21_5 1_555 1_555
Zn6_2 O20_2 1_555 1_555
Zn10_2 O30_2 1_555 1_555
O20_2 C70_4 1_555 1_555
O30_2 C70_4 1_555 1_555
C64_4 C21_5 1_555 1_555
C69_4 C64_4 1_555 1_555
C70_4 C86_4 1_555 1_555
C78_4 C69_4 1_555 1_555
C79_4 C78_4 1_555 1_555
C85_4 C79_4 1_555 1_555
H43_4 C85_4 1_555 1_555
C86_4 C93_4 1_555 1_555
C93_4 C85_4 1_555 1_555
H46_4 C93_4 1_555 1_555
C94_4 C86_4 1_555 1_555
H47_4 C94_4 1_555 1_555
C98_4 C79_4 1_555 1_555
H53_4 C98_4 1_555 1_555
C59_4 C64_4 1_555 1_555
C94_4 C98_4 1_555 1_555
O18_2 C55_4 1_555 1_555
C1_6 C10_6 1_555 1_555
C4_4 H1_4 1_555 1_555
C7_6 C4_4 1_555 1_555
C9_4 C23_4 1_555 1_555
C10_6 C2_6 1_555 1_555
C13_4 C4_4 1_555 1_555
H4_4 C13_4 1_555 1_555
C23_4 H9_4 1_555 1_555
C24_6 C1_6 1_555 1_555
C33_4 C23_4 1_555 1_555
H12_4 C33_4 1_555 1_555
C54_6 C7_6 1_555 1_555
C55_4 C9_4 1_555 1_555
O14_2 C54_6 1_555 1_555
O17_2 C104_4 1_555 1_555
C60_4 H33_4 1_555 1_555
C62_4 C74_4 1_555 1_555
C74_4 H38_4 1_555 1_555
C83_4 C74_4 1_555 1_555
H41_4 C83_4 1_555 1_555
C104_4 C62_4 1_555 1_555
C13_4 C24_6 1_555 1_555
Zn5 O2_4 1_555 1_555
Zn13_2 O2_4 1_555 1_555
Zn3_6 O2_4 1_555 1_555
O4_4 Zn5 1_555 1_555
O5_4 Zn5 1_555 1_555
O6_4 Zn3_6 1_555 1_555
O8_4 Zn5 1_555 1_555
C3_4 O6_4 1_555 1_555
O10_4 Zn13_2 1_555 1_555
C12_4 C5_4 1_555 1_555
C17_4 C12_4 1_555 1_555
C18_4 O5_4 1_555 1_555
C19_4 C3_4 1_555 1_555
N1_4 C20_4 1_555 1_555
C20_4 O4_4 1_555 1_555
H7_4 C20_4 1_555 1_555
C21_6 C12_4 1_555 1_555
H8_6 C21_6 1_555 1_555
C28_4 C17_4 1_555 1_555
C29_4 C28_4 1_555 1_555
C34_4 C19_4 1_555 1_555
H13_4 C34_4 1_555 1_555
C35_4 C29_4 1_555 1_555
H14_4 C35_4 1_555 1_555
C36_4 C18_4 1_555 1_555
C43_4 C35_4 1_555 1_555
H17_4 C43_4 1_555 1_555
C44_4 C36_4 1_555 1_555
H18_4 C44_4 1_555 1_555
C45_4 N1_4 1_555 1_555
H19_4 C45_4 1_555 1_555
H21_4 C45_4 1_555 1_555
C46_4 C19_4 1_555 1_555
H22_4 C46_4 1_555 1_555
C48_4 C29_4 1_555 1_555
H24_4 C48_4 1_555 1_555
C52_4 C38_4 1_555 1_555
H27_4 C52_4 1_555 1_555
C53_4 N1_4 1_555 1_555
H28_4 C53_4 1_555 1_555
H30_4 C53_4 1_555 1_555
Zn10_2 O15_4 1_555 1_555
O15_4 Zn3_6 1_555 1_555
O19_4 Zn6_2 1_555 1_555
O22_4 Zn3_6 1_555 1_555
O26_4 Zn6_2 1_555 1_555
O29_2 Zn10_2 1_555 1_555
C57_4 O22_4 1_555 1_555
C67_4 C63_4 1_555 1_555
C71_4 C57_4 1_555 1_555
N2_4 C72_4 1_555 1_555
C72_4 O19_4 1_555 1_555
H37_4 C72_4 1_555 1_555
C80_4 C67_4 1_555 1_555
C82_4 H40_4 1_555 1_555
C84_4 C71_4 1_555 1_555
H42_4 C84_4 1_555 1_555
C88_4 C80_4 1_555 1_555
C95_4 N2_4 1_555 1_555
H48_4 C95_4 1_555 1_555
H49_4 C95_4 1_555 1_555
H50_4 C95_4 1_555 1_555
C96_4 C71_4 1_555 1_555
H51_4 C96_4 1_555 1_555
C102_4 C88_4 1_555 1_555
H56_4 C102_4 1_555 1_555
C103_4 N2_4 1_555 1_555
H57_4 C103_4 1_555 1_555
H58_4 C103_4 1_555 1_555
H59_4 C103_4 1_555 1_555
O8_4 C3_4 1_555 1_555
O10_4 C18_4 1_555 1_555
C32_4 C34_4 1_555 1_555
C32_4 C38_4 1_555 1_555
C36_4 C43_4 1_555 1_555
C44_4 C48_4 1_555 1_555
C46_4 C52_4 1_555 1_555
Zn6_2 O15_4 1_555 1_555
O26_4 C57_4 1_555 1_555
C82_4 C84_4 1_555 1_555
C82_4 C88_4 1_555 1_555
C96_4 C102_4 1_555 1_555
C61_4 C76_4 1_555 1_555
C66_4 H35_4 1_555 1_555
H39_4 C81_4 1_555 1_555
C87_4 C61_4 1_555 1_555
C91_4 C73_4 1_555 1_555
H45_4 C91_4 1_555 1_555
C66_4 C76_4 1_555 1_555
C73_4 C87_4 1_555 1_555
C81_4 C91_4 1_555 1_555
H36_4 C68_4 1_555 1_555
C77_4 C75_4 1_555 1_555
C89_4 H44_4 1_555 1_555
C90_4 C89_4 1_555 1_555
C92_4 C97_4 1_555 1_555
C97_4 C89_4 1_555 1_555
H52_4 C97_4 1_555 1_555
C99_4 C77_4 1_555 1_555
C100_4 C90_4 1_555 1_555
H54_4 C100_4 1_555 1_555
O32_4 C105_4 1_555 1_555
C101_4 C92_4 1_555 1_555
H55_4 C101_4 1_555 1_555
C105_4 C90_4 1_555 1_555
C68_4 C75_4 1_555 1_555
C92_4 C99_4 1_555 1_555
C100_4 C101_4 1_555 1_555
C8_4 C26_4 1_555 1_555
C14_4 H5_4 1_555 1_555
H10_4 C31_4 1_555 1_555
C37_4 C8_4 1_555 1_555
C41_4 C22_4 1_555 1_555
H16_4 C41_4 1_555 1_555
C14_4 C26_4 1_555 1_555
C22_4 C37_4 1_555 1_555
C31_4 C41_4 1_555 1_555
C6_4 H3_4 1_555 1_555
C15_4 C11_4 1_555 1_555
C30_4 C15_4 1_555 1_555

#END
