
###############################################################################
#
# This file contains modified crystal structure data generated from the
# MOF subset of the Cambridge Structural Database (CSD) v543 
# hosted by the Cambridge Crystallographic Data Centre (CCDC).
#
# This work is licensed under the Creative Commons
# Attribution-NonCommercial-ShareAlike 4.0 International License.
# To view a copy of this license, visit
# http://creativecommons.org/licenses/by-nc-sa/4.0/
# or send a letter to
# Creative Commons, PO Box 1866, Mountain View, CA 94042, USA.
#
# CIF created using the CSD Python API on 29 September 2022
# The structure has been converted into the P1 space group
# The structure has a 3D framework
# The original CSD entry ZARLEL is in the tetragonal crystal system
# The original CSD entry ZARLEL is in a Sohncke space group
# The framework has been calculated to contain at least 10.0% void space
# The void calculation uses a probe of radius 1.32A, grid spacing 0.4
# H atom positions have been added when not included in the experimental data
#
###############################################################################

data_ZARLEL
_chemical_formula_moiety         '(C288 H176 N8 O50 Zn16)n'
_symmetry_cell_setting           triclinic
_symmetry_space_group_name_H-M   'P 1'
_symmetry_Int_Tables_number      1
_space_group_name_Hall           'P 1'
loop_
_symmetry_equiv_pos_site_id
_symmetry_equiv_pos_as_xyz
1 x,y,z
_cell_length_a                   20.269(2)
_cell_length_b                   20.269(2)
_cell_length_c                   39.645(4)
_cell_angle_alpha                90
_cell_angle_beta                 90
_cell_angle_gamma                90
_cell_volume                     16287.4
loop_
_atom_site_label
_atom_site_type_symbol
_atom_site_fract_x
_atom_site_fract_y
_atom_site_fract_z
Zn1 Zn 0.16811(2) 0.0000 0.2500
O1 O 0.16968(9) 0.01580(9) 0.30166(4)
O3 O 0.14902(13) 0.73685(11) 0.46111(6)
O4 O 0.07150(13) 0.76064(12) 0.50008(6)
C2 C 0.14420(15) 0.02579(18) 0.35960(7)
C3 C 0.14981(18) 0.0924(2) 0.35882(8)
H1 H 0.1619 0.1134 0.3386
C4 C 0.13795(18) 0.13015(17) 0.38735(9)
H2 H 0.1422 0.1763 0.3867
C5 C 0.11923(17) 0.0974(2) 0.41751(9)
C6 C 0.11407(17) 0.0296(2) 0.41808(8)
H3 H 0.1024 0.0082 0.4382
C8 C 0.10723(19) 0.13635(18) 0.44788(10)
C9 C 0.09925(19) 0.1685(2) 0.47208(10)
C10 C 0.08904(18) 0.2107(2) 0.50092(10)
C11 C 0.09400(18) 0.2784(2) 0.49756(9)
H5 H 0.1043 0.2963 0.4763
C12 C 0.0843(2) 0.3204(2) 0.52445(11)
C13 C 0.07166(18) 0.29220(19) 0.55730(9)
H6 H 0.0659 0.3195 0.5763
C14 C 0.06817(18) 0.2243(2) 0.56033(9)
C15 C 0.07736(18) 0.18149(18) 0.53263(10)
H7 H 0.0758 0.1354 0.5352
C16 C 0.0906(3) 0.3848(3) 0.52107(11)
C17 C 0.0925(2) 0.4440(3) 0.51690(10)
C18 C 0.1010(3) 0.5167(2) 0.50869(12)
C19 C 0.1371(2) 0.5375(2) 0.48198(11)
H8 H 0.1598 0.5068 0.4685
C20 C 0.1403(2) 0.6029(2) 0.47463(9)
H9 H 0.1656 0.6169 0.4561
C21 C 0.10756(18) 0.6490(2) 0.49374(10)
C22 C 0.07170(19) 0.6283(2) 0.52198(10)
H10 H 0.0516 0.6598 0.5360
C23 C 0.0659(2) 0.5652(3) 0.52902(10)
H11 H 0.0392 0.5514 0.5471
C24 C 0.1105(2) 0.7223(2) 0.48359(10)
C25 C 0.0518(2) 0.19707(17) 0.59345(10)
C26 C 0.03613(18) 0.18147(16) 0.62054(10)
C27 C 0.01127(18) 0.1654(2) 0.65428(8)
C32 C 0.01224(17) 0.1021(2) 0.66725(9)
H15 H 0.0327 0.0676 0.6553
Zn5 Zn -0.0000 0.83189(2) 0.5000
Zn7 Zn 0.168079(17) 0.145433(17) 0.200876(8)
Zn10 Zn 0.145433(17) 0.831921(17) 0.450876(8)
O9 O 0.15036(10) 0.07614(11) 0.16866(4)
O12 O 0.26315(11) 0.14902(13) 0.21111(6)
O15 O 0.23936(12) 0.07150(13) 0.25008(6)
O18 O 0.10922(11) 0.17329(12) 0.23726(5)
O21 O 0.09326(10) 0.06920(12) 0.24296(5)
O22 O 0.16226(14) 0.22431(11) 0.17057(6)
N2 N 0.1297(4) 0.3084(4) 0.1312(2)
C37 C 0.15612(15) 0.01444(18) 0.17218(7)
C43 C 0.12591(15) 0.00774(17) 0.11093(8)
H20 H 0.1217 0.0539 0.1107
C70 C 0.1205(5) 0.2529(5) 0.1532(2)
H32 H 0.0773 0.2363 0.1546
C71 C 0.2018(7) 0.3281(8) 0.1304(4)
C72 C 0.0703(5) 0.3144(5) 0.1083(2)
H39 H 0.0261185 0.321595 0.123491
H40 H 0.0768191 0.356403 0.0914993
H41 H 0.065203 0.269521 0.0934249
H42 H 0.231245 0.286875 0.121252
H43 H 0.208155 0.370202 0.113647
H44 H 0.217816 0.34138 0.155726
Zn4 Zn 0.83189(2) 1.0000 0.7500
Zn6 Zn 1.0000 0.16811(2) 0.0000
Zn6_2 Zn 1.0000 0.16811(2) 1.0000
Zn9 Zn 0.831921(17) 0.854567(17) 0.700876(8)
O16 O 0.89078(11) 0.82671(12) 0.73726(5)
O19 O 0.90674(10) 0.93080(12) 0.74296(5)
C64 C 0.9824(2) 0.78370(18) 0.82837(10)
H28 H 0.9825 0.7408 0.8374
C65 C 0.95336(19) 0.7958(2) 0.79799(10)
H29 H 0.9354 0.7604 0.7857
C66 C 0.94974(17) 0.8574(2) 0.78504(8)
C67 C 0.98306(15) 0.90924(17) 0.80245(9)
H30 H 0.9848 0.9516 0.7929
C69 C 0.91330(17) 0.8738(2) 0.75265(9)
C64_2 C 0.0176(2) 0.21630(18) 0.32837(10)
H28_2 H 0.0175 0.2592 0.3374
C65_2 C 0.04664(19) 0.2042(2) 0.29799(10)
H29_2 H 0.0646 0.2396 0.2857
C66_2 C 0.05026(17) 0.1426(2) 0.28504(8)
C67_2 C 0.01694(15) 0.09076(17) 0.30245(9)
H30_2 H 0.0152 0.0484 0.2929
C69_2 C 0.08670(17) 0.1262(2) 0.25265(9)
O4_2 O 0.92850(13) 0.23936(12) 0.00008(6)
C10_2 C 0.91096(18) 0.7893(2) 0.00092(10)
C12_2 C 0.9157(2) 0.6796(2) 0.02445(11)
C13_2 C 0.92834(18) 0.70780(19) 0.05730(9)
H6_2 H 0.9341 0.6805 0.0763
C14_2 C 0.93183(18) 0.7757(2) 0.06033(9)
C15_2 C 0.92264(18) 0.81851(18) 0.03263(10)
H7_2 H 0.9242 0.8646 0.0352
C16_2 C 0.9094(3) 0.6152(3) 0.02107(11)
C17_2 C 0.9075(2) 0.5560(3) 0.01690(10)
C18_2 C 0.8990(3) 0.4833(2) 0.00869(12)
C22_2 C 0.92830(19) 0.3717(2) 0.02198(10)
H10_2 H 0.9484 0.3402 0.0360
C23_2 C 0.9341(2) 0.4348(3) 0.02902(10)
H11_2 H 0.9608 0.4486 0.0471
C25_2 C 0.9482(2) 0.80293(17) 0.09345(10)
C26_2 C 0.96387(18) 0.81853(16) 0.12054(10)
C27_2 C 0.98873(18) 0.8346(2) 0.15428(8)
C32_2 C 0.98776(17) 0.8979(2) 0.16725(9)
H15_2 H 0.9673 0.9324 0.1553
O1_2 O 0.83032(9) 0.98420(9) 0.80166(4)
O3_2 O 0.85098(13) 0.26315(11) 0.96111(6)
C2_2 C 0.85580(15) 0.97421(18) 0.85960(7)
C3_2 C 0.85019(18) 0.9076(2) 0.85882(8)
H1_2 H 0.8381 0.8866 0.8386
C4_2 C 0.86205(18) 0.86985(17) 0.88735(9)
H2_2 H 0.8578 0.8237 0.8867
C5_2 C 0.88077(17) 0.9026(2) 0.91751(9)
C6_2 C 0.88593(17) 0.9704(2) 0.91808(8)
H3_2 H 0.8976 0.9918 0.9382
C8_2 C 0.89277(19) 0.86365(18) 0.94788(10)
C9_2 C 0.90075(19) 0.8315(2) 0.97208(10)
C11_2 C 0.90600(18) 0.7216(2) 0.99756(9)
H5_2 H 0.8957 0.7037 0.9763
C19_2 C 0.8629(2) 0.4625(2) 0.98198(11)
H8_2 H 0.8402 0.4932 0.9685
C20_2 C 0.8597(2) 0.3971(2) 0.97463(9)
H9_2 H 0.8344 0.3831 0.9561
C21_2 C 0.89244(18) 0.3510(2) 0.99374(10)
C24_2 C 0.8895(2) 0.2777(2) 0.98359(10)
Zn10_2 Zn 0.854567(17) 0.168079(17) 0.950876(8)
O9_2 O 0.84964(10) 0.92386(11) 0.66866(4)
O12_2 O 0.73685(11) 0.85098(13) 0.71111(6)
O15_2 O 0.76064(12) 0.92850(13) 0.75008(6)
O22_2 O 0.83774(14) 0.77569(11) 0.67057(6)
N2_2 N 0.8703(4) 0.6916(4) 0.6312(2)
C37_2 C 0.84388(15) 0.98556(18) 0.67218(7)
C43_2 C 0.87409(15) 0.99226(17) 0.61093(8)
H20_2 H 0.8783 0.9461 0.6107
C70_2 C 0.8795(5) 0.7471(5) 0.6532(2)
H32_2 H 0.9227 0.7637 0.6546
C71_2 C 0.7982(7) 0.6719(8) 0.6304(4)
C72_2 C 0.9297(5) 0.6856(5) 0.6083(2)
H39_2 H 0.973881 0.678405 0.623491
H40_2 H 0.923181 0.643597 0.591499
H41_2 H 0.934797 0.730479 0.593425
H42_2 H 0.768755 0.713125 0.621252
H43_2 H 0.791845 0.629798 0.613647
H44_2 H 0.782184 0.65862 0.655726
O2 O 0.07614(11) 0.84964(10) 0.41866(4)
O7 O 0.22431(11) 0.83774(14) 0.42057(6)
N1 N 0.3084(4) 0.8703(4) 0.3812(2)
C1 C 0.01444(18) 0.84388(15) 0.42218(7)
C7 C 0.00774(17) 0.87409(15) 0.36093(8)
H4 H 0.0539 0.8783 0.3607
C34 C 0.2529(5) 0.8795(5) 0.4032(2)
H16 H 0.2363 0.9227 0.4046
C35 C 0.3281(8) 0.7982(7) 0.3804(4)
C36 C 0.3144(5) 0.9297(5) 0.3583(2)
O8 O 0.01580(9) 0.83032(9) 0.55166(4)
O17 O 0.17329(12) 0.89078(11) 0.48726(5)
O20 O 0.06920(12) 0.90674(10) 0.49296(5)
C38 C 0.02579(18) 0.85580(15) 0.60960(7)
C39 C 0.0924(2) 0.85019(18) 0.60882(8)
H17 H 0.1134 0.8381 0.5886
C40 C 0.13015(17) 0.86205(18) 0.63735(9)
H18 H 0.1763 0.8578 0.6367
C41 C 0.0974(2) 0.88077(17) 0.66751(9)
C42 C 0.0296(2) 0.88593(17) 0.66808(8)
H19 H 0.0082 0.8976 0.6882
C44 C 0.13635(18) 0.89277(19) 0.69788(10)
C45 C 0.1685(2) 0.90075(19) 0.72208(10)
C46 C 0.2107(2) 0.91096(18) 0.75092(10)
C47 C 0.2784(2) 0.90600(18) 0.74756(9)
H21 H 0.2963 0.8957 0.7263
C48 C 0.3204(2) 0.9157(2) 0.77445(11)
C49 C 0.29220(19) 0.92834(18) 0.80730(9)
H22 H 0.3195 0.9341 0.8263
C50 C 0.2243(2) 0.93183(18) 0.81033(9)
C51 C 0.18149(18) 0.92264(18) 0.78263(10)
H23 H 0.1354 0.9242 0.7852
C52 C 0.3848(3) 0.9094(3) 0.77107(11)
C53 C 0.4440(3) 0.9075(2) 0.76690(10)
C54 C 0.5167(2) 0.8990(3) 0.75869(12)
C55 C 0.5375(2) 0.8629(2) 0.73198(11)
H24 H 0.5068 0.8402 0.7185
C56 C 0.6029(2) 0.8597(2) 0.72463(9)
H25 H 0.6169 0.8344 0.7061
C57 C 0.6490(2) 0.89244(18) 0.74374(10)
C58 C 0.6283(2) 0.92830(19) 0.77198(10)
H26 H 0.6598 0.9484 0.7860
C59 C 0.5652(3) 0.9341(2) 0.77902(10)
H27 H 0.5514 0.9608 0.7971
C60 C 0.7223(2) 0.8895(2) 0.73359(10)
C61 C 0.19707(17) 0.9482(2) 0.84345(10)
C62 C 0.18147(16) 0.96387(18) 0.87054(10)
C63 C 0.1654(2) 0.98873(18) 0.90428(8)
C68 C 0.1021(2) 0.98776(17) 0.91725(9)
H31 H 0.0676 0.9673 0.9053
H33 H 0.286875 0.768755 0.371252
H34 H 0.370202 0.791845 0.363647
H35 H 0.34138 0.782184 0.405726
H36 H 0.321595 0.973881 0.373491
H37 H 0.356403 0.923181 0.341499
H38 H 0.269521 0.934797 0.343425
C28 C 0.78370(18) 0.0176(2) 0.07837(10)
H12 H 0.7408 0.0175 0.0874
C29 C 0.7958(2) 0.04664(19) 0.04799(10)
H13 H 0.7604 0.0646 0.0357
C30 C 0.8574(2) 0.05026(17) 0.03504(8)
C31 C 0.90924(17) 0.01694(15) 0.05245(9)
H14 H 0.9516 0.0152 0.0429
C33 C 0.8738(2) 0.08670(17) 0.00265(9)
O5 O 0.82671(12) 0.10922(11) 0.98726(5)
O6 O 0.93080(12) 0.09326(10) 0.99296(5)
C28_2 C 0.21630(18) 0.9824(2) 0.57837(10)
H12_2 H 0.2592 0.9825 0.5874
C29_2 C 0.2042(2) 0.95336(19) 0.54799(10)
H13_2 H 0.2396 0.9354 0.5357
C30_2 C 0.1426(2) 0.94974(17) 0.53504(8)
C31_2 C 0.09076(17) 0.98306(15) 0.55245(9)
H14_2 H 0.0484 0.9848 0.5429
C33_2 C 0.1262(2) 0.91330(17) 0.50265(9)
O8_2 O 0.98420(9) 0.16968(9) 0.05166(4)
C38_2 C 0.97421(18) 0.14420(15) 0.10960(7)
C39_2 C 0.9076(2) 0.14981(18) 0.10882(8)
H17_2 H 0.8866 0.1619 0.0886
C40_2 C 0.86985(17) 0.13795(18) 0.13735(9)
H18_2 H 0.8237 0.1422 0.1367
C41_2 C 0.9026(2) 0.11923(17) 0.16751(9)
C42_2 C 0.9704(2) 0.11407(17) 0.16808(8)
H19_2 H 0.9918 0.1024 0.1882
C44_2 C 0.86365(18) 0.10723(19) 0.19788(10)
C45_2 C 0.8315(2) 0.09925(19) 0.22208(10)
C46_2 C 0.7893(2) 0.08904(18) 0.25092(10)
C47_2 C 0.7216(2) 0.09400(18) 0.24756(9)
H21_2 H 0.7037 0.1043 0.2263
C48_2 C 0.6796(2) 0.0843(2) 0.27445(11)
C49_2 C 0.70780(19) 0.07166(18) 0.30730(9)
H22_2 H 0.6805 0.0659 0.3263
C50_2 C 0.7757(2) 0.06817(18) 0.31033(9)
C51_2 C 0.81851(18) 0.07736(18) 0.28263(10)
H23_2 H 0.8646 0.0758 0.2852
C52_2 C 0.6152(3) 0.0906(3) 0.27107(11)
C53_2 C 0.5560(3) 0.0925(2) 0.26690(10)
C54_2 C 0.4833(2) 0.1010(3) 0.25869(12)
C55_2 C 0.4625(2) 0.1371(2) 0.23198(11)
H24_2 H 0.4932 0.1598 0.2185
C56_2 C 0.3971(2) 0.1403(2) 0.22463(9)
H25_2 H 0.3831 0.1656 0.2061
C57_2 C 0.3510(2) 0.10756(18) 0.24374(10)
C58_2 C 0.3717(2) 0.07170(19) 0.27198(10)
H26_2 H 0.3402 0.0516 0.2860
C59_2 C 0.4348(3) 0.0659(2) 0.27902(10)
H27_2 H 0.4486 0.0392 0.2971
C60_2 C 0.2777(2) 0.1105(2) 0.23359(10)
C61_2 C 0.80293(17) 0.0518(2) 0.34345(10)
C62_2 C 0.81853(16) 0.03613(18) 0.37054(10)
C63_2 C 0.8346(2) 0.01127(18) 0.40428(8)
C68_2 C 0.8979(2) 0.01224(17) 0.41725(9)
H31_2 H 0.9324 0.0327 0.4053
O2_2 O 0.92386(11) 0.15036(10) 0.91866(4)
O7_2 O 0.77569(11) 0.16226(14) 0.92057(6)
N1_2 N 0.6916(4) 0.1297(4) 0.8812(2)
C1_2 C 0.98556(18) 0.15612(15) 0.92218(7)
C7_2 C 0.99226(17) 0.12591(15) 0.86093(8)
H4_2 H 0.9461 0.1217 0.8607
C34_2 C 0.7471(5) 0.1205(5) 0.9032(2)
H16_2 H 0.7637 0.0773 0.9046
C35_2 C 0.6719(8) 0.2018(7) 0.8804(4)
C36_2 C 0.6856(5) 0.0703(5) 0.8583(2)
H33_2 H 0.713125 0.231245 0.871252
H34_2 H 0.629798 0.208155 0.863647
H35_2 H 0.65862 0.217816 0.905726
H36_2 H 0.678405 0.0261185 0.873491
H37_2 H 0.643597 0.0768191 0.841499
H38_2 H 0.730479 0.065203 0.843425
Zn1_2 Zn 0.16811(2) 1.0000 0.2500
Zn2 Zn 0.168079(17) 0.854567(17) 0.299124(8)
O2_3 O 0.15036(10) 0.92386(11) 0.33134(4)
O7_3 O 0.16226(14) 0.77569(11) 0.32943(6)
N1_3 N 0.1297(4) 0.6916(4) 0.3688(2)
C1_3 C 0.15612(15) 0.98556(18) 0.32782(7)
C7_3 C 0.12591(15) 0.99226(17) 0.38907(8)
H4_3 H 0.1217 0.9461 0.3893
C34_3 C 0.1205(5) 0.7471(5) 0.3468(2)
H16_3 H 0.0773 0.7637 0.3454
C35_3 C 0.2018(7) 0.6719(8) 0.3696(4)
C36_3 C 0.0703(5) 0.6856(5) 0.3917(2)
Zn6_3 Zn 0.0000 0.16811(2) 0.0000
Zn11 Zn 0.145433(17) 0.168079(17) 0.049124(8)
O8_3 O 0.16968(9) 0.98420(9) 0.19834(4)
O10 O 0.14902(13) 0.26315(11) 0.03889(6)
O11 O 0.26315(11) 0.85098(13) 0.28889(6)
O14 O 0.23936(12) 0.92850(13) 0.24992(6)
O17_2 O 0.10922(11) 0.82671(12) 0.26274(5)
O20_2 O 0.09326(10) 0.93080(12) 0.25704(5)
C38_3 C 0.14420(15) 0.97421(18) 0.14040(7)
C39_3 C 0.14981(18) 0.9076(2) 0.14118(8)
H17_3 H 0.1619 0.8866 0.1614
C40_3 C 0.13795(18) 0.86985(17) 0.11265(9)
H18_3 H 0.1422 0.8237 0.1133
C41_3 C 0.11923(17) 0.9026(2) 0.08249(9)
C42_3 C 0.11407(17) 0.9704(2) 0.08192(8)
H19_3 H 0.1024 0.9918 0.0618
C44_3 C 0.10723(19) 0.86365(18) 0.05212(10)
C45_3 C 0.09925(19) 0.8315(2) 0.02792(10)
C47_3 C 0.09400(18) 0.7216(2) 0.00244(9)
H21_3 H 0.1043 0.7037 0.0237
C55_3 C 0.1371(2) 0.4625(2) 0.01802(11)
H24_3 H 0.1598 0.4932 0.0315
C56_3 C 0.1403(2) 0.3971(2) 0.02537(9)
H25_3 H 0.1656 0.3831 0.0439
C57_3 C 0.10756(18) 0.3510(2) 0.00626(10)
C60_3 C 0.1105(2) 0.2777(2) 0.01641(10)
H33_3 H 0.231245 0.713125 0.378748
H34_3 H 0.208155 0.629798 0.386353
H35_3 H 0.217816 0.65862 0.344274
H36_3 H 0.0261185 0.678405 0.376509
H37_3 H 0.0768191 0.643597 0.408501
H38_3 H 0.065203 0.730479 0.406575
Zn6_4 Zn 0.0000 0.16811(2) 1.0000
O13 O 0.07150(13) 0.23936(12) 0.99992(6)
C46_3 C 0.08904(18) 0.7893(2) 0.99908(10)
C48_3 C 0.0843(2) 0.6796(2) 0.97555(11)
C49_3 C 0.07166(18) 0.70780(19) 0.94270(9)
H22_3 H 0.0659 0.6805 0.9237
C50_3 C 0.06817(18) 0.7757(2) 0.93967(9)
C51_3 C 0.07736(18) 0.81851(18) 0.96737(10)
H23_3 H 0.0758 0.8646 0.9648
C52_3 C 0.0906(3) 0.6152(3) 0.97893(11)
C53_3 C 0.0925(2) 0.5560(3) 0.98310(10)
C54_3 C 0.1010(3) 0.4833(2) 0.99131(12)
C58_3 C 0.07170(19) 0.3717(2) 0.97802(10)
H26_3 H 0.0516 0.3402 0.9640
C59_3 C 0.0659(2) 0.4348(3) 0.97098(10)
H27_3 H 0.0392 0.4486 0.9529
C61_3 C 0.0518(2) 0.80293(17) 0.90655(10)
C62_3 C 0.03613(18) 0.81853(16) 0.87946(10)
C63_3 C 0.01127(18) 0.8346(2) 0.84572(8)
C68_3 C 0.01224(17) 0.8979(2) 0.83275(9)
H31_3 H 0.0327 0.9324 0.8447
O5_2 O 0.89078(11) 0.17329(12) 0.76274(5)
O6_2 O 0.90674(10) 0.06920(12) 0.75704(5)
C28_3 C 0.9824(2) 0.21630(18) 0.67163(10)
H12_3 H 0.9825 0.2592 0.6626
C29_3 C 0.95336(19) 0.2042(2) 0.70201(10)
H13_3 H 0.9354 0.2396 0.7143
C30_3 C 0.94974(17) 0.1426(2) 0.71496(8)
C31_3 C 0.98306(15) 0.09076(17) 0.69755(9)
H14_3 H 0.9848 0.0484 0.7071
C33_3 C 0.91330(17) 0.1262(2) 0.74735(9)
Zn4_2 Zn 0.83189(2) 0.0000 0.7500
Zn5_2 Zn 1.0000 0.83189(2) 0.5000
Zn8 Zn 0.831921(17) 0.145433(17) 0.799124(8)
C28_4 C 0.0176(2) 0.78370(18) 0.17163(10)
H12_4 H 0.0175 0.7408 0.1626
C29_4 C 0.04664(19) 0.7958(2) 0.20201(10)
H13_4 H 0.0646 0.7604 0.2143
C30_4 C 0.05026(17) 0.8574(2) 0.21496(8)
C31_4 C 0.01694(15) 0.90924(17) 0.19755(9)
H14_4 H 0.0152 0.9516 0.2071
C33_4 C 0.08670(17) 0.8738(2) 0.24735(9)
O2_4 O 0.84964(10) 0.07614(11) 0.83134(4)
O7_4 O 0.83774(14) 0.22431(11) 0.82943(6)
N1_4 N 0.8703(4) 0.3084(4) 0.8688(2)
C1_4 C 0.84388(15) 0.01444(18) 0.82782(7)
C7_4 C 0.87409(15) 0.00774(17) 0.88907(8)
H4_4 H 0.8783 0.0539 0.8893
C34_4 C 0.8795(5) 0.2529(5) 0.8468(2)
H16_4 H 0.9227 0.2363 0.8454
C35_4 C 0.7982(7) 0.3281(8) 0.8696(4)
C36_4 C 0.9297(5) 0.3144(5) 0.8917(2)
Zn11_2 Zn 0.854567(17) 0.831921(17) 0.549124(8)
O8_4 O 0.83032(9) 0.01580(9) 0.69834(4)
O10_2 O 0.85098(13) 0.73685(11) 0.53889(6)
O11_2 O 0.73685(11) 0.14902(13) 0.78889(6)
O13_2 O 0.92850(13) 0.76064(12) 0.49992(6)
O14_2 O 0.76064(12) 0.07150(13) 0.74992(6)
C38_4 C 0.85580(15) 0.02579(18) 0.64040(7)
C39_4 C 0.85019(18) 0.0924(2) 0.64118(8)
H17_4 H 0.8381 0.1134 0.6614
C40_4 C 0.86205(18) 0.13015(17) 0.61265(9)
H18_4 H 0.8578 0.1763 0.6133
C41_4 C 0.88077(17) 0.0974(2) 0.58249(9)
C42_4 C 0.88593(17) 0.0296(2) 0.58192(8)
H19_4 H 0.8976 0.0082 0.5618
C44_4 C 0.89277(19) 0.13635(18) 0.55212(10)
C45_4 C 0.90075(19) 0.1685(2) 0.52792(10)
C46_4 C 0.91096(18) 0.2107(2) 0.49908(10)
C47_4 C 0.90600(18) 0.2784(2) 0.50244(9)
H21_4 H 0.8957 0.2963 0.5237
C48_4 C 0.9157(2) 0.3204(2) 0.47555(11)
C49_4 C 0.92834(18) 0.29220(19) 0.44270(9)
H22_4 H 0.9341 0.3195 0.4237
C50_4 C 0.93183(18) 0.2243(2) 0.43967(9)
C51_4 C 0.92264(18) 0.18149(18) 0.46737(10)
H23_4 H 0.9242 0.1354 0.4648
C52_4 C 0.9094(3) 0.3848(3) 0.47893(11)
C53_4 C 0.9075(2) 0.4440(3) 0.48310(10)
C54_4 C 0.8990(3) 0.5167(2) 0.49131(12)
C55_4 C 0.8629(2) 0.5375(2) 0.51802(11)
H24_4 H 0.8402 0.5068 0.5315
C56_4 C 0.8597(2) 0.6029(2) 0.52537(9)
H25_4 H 0.8344 0.6169 0.5439
C57_4 C 0.89244(18) 0.6490(2) 0.50626(10)
C58_4 C 0.92830(19) 0.6283(2) 0.47802(10)
H26_4 H 0.9484 0.6598 0.4640
C59_4 C 0.9341(2) 0.5652(3) 0.47098(10)
H27_4 H 0.9608 0.5514 0.4529
C60_4 C 0.8895(2) 0.7223(2) 0.51641(10)
C61_4 C 0.9482(2) 0.19707(17) 0.40655(10)
C62_4 C 0.96387(18) 0.18147(16) 0.37946(10)
C63_4 C 0.98873(18) 0.1654(2) 0.34572(8)
C68_4 C 0.98776(17) 0.1021(2) 0.33275(9)
H31_4 H 0.9673 0.0676 0.3447
H33_4 H 0.768755 0.286875 0.878748
H34_4 H 0.791845 0.370202 0.886353
H35_4 H 0.782184 0.34138 0.844274
H36_4 H 0.973881 0.321595 0.876509
H37_4 H 0.923181 0.356403 0.908501
H38_4 H 0.934797 0.269521 0.906575
O16_2 O 0.17329(12) 0.10922(11) 0.01274(5)
O19_2 O 0.06920(12) 0.09326(10) 0.00704(5)
C64_3 C 0.21630(18) 0.0176(2) 0.92163(10)
H28_3 H 0.2592 0.0175 0.9126
C65_3 C 0.2042(2) 0.04664(19) 0.95201(10)
H29_3 H 0.2396 0.0646 0.9643
C66_3 C 0.1426(2) 0.05026(17) 0.96496(8)
C67_3 C 0.09076(17) 0.01694(15) 0.94755(9)
H30_3 H 0.0484 0.0152 0.9571
C69_3 C 0.1262(2) 0.08670(17) 0.99735(9)
O1_3 O 0.98420(9) 0.83032(9) 0.44834(4)
C2_3 C 0.97421(18) 0.85580(15) 0.39040(7)
C3_3 C 0.9076(2) 0.85019(18) 0.39118(8)
H1_3 H 0.8866 0.8381 0.4114
C4_3 C 0.86985(17) 0.86205(18) 0.36265(9)
H2_3 H 0.8237 0.8578 0.3633
C5_3 C 0.9026(2) 0.88077(17) 0.33249(9)
C6_3 C 0.9704(2) 0.88593(17) 0.33192(8)
H3_3 H 0.9918 0.8976 0.3118
C8_3 C 0.86365(18) 0.89277(19) 0.30212(10)
C9_3 C 0.8315(2) 0.90075(19) 0.27792(10)
C10_3 C 0.7893(2) 0.91096(18) 0.24908(10)
C11_3 C 0.7216(2) 0.90600(18) 0.25244(9)
H5_3 H 0.7037 0.8957 0.2737
C12_3 C 0.6796(2) 0.9157(2) 0.22555(11)
C13_3 C 0.70780(19) 0.92834(18) 0.19270(9)
H6_3 H 0.6805 0.9341 0.1737
C14_3 C 0.7757(2) 0.93183(18) 0.18967(9)
C15_3 C 0.81851(18) 0.92264(18) 0.21737(10)
H7_3 H 0.8646 0.9242 0.2148
C16_3 C 0.6152(3) 0.9094(3) 0.22893(11)
C17_3 C 0.5560(3) 0.9075(2) 0.23310(10)
C18_3 C 0.4833(2) 0.8990(3) 0.24131(12)
C19_3 C 0.4625(2) 0.8629(2) 0.26802(11)
H8_3 H 0.4932 0.8402 0.2815
C20_3 C 0.3971(2) 0.8597(2) 0.27537(9)
H9_3 H 0.3831 0.8344 0.2939
C21_3 C 0.3510(2) 0.89244(18) 0.25626(10)
C22_3 C 0.3717(2) 0.92830(19) 0.22802(10)
H10_3 H 0.3402 0.9484 0.2140
C23_3 C 0.4348(3) 0.9341(2) 0.22098(10)
H11_3 H 0.4486 0.9608 0.2029
C24_3 C 0.2777(2) 0.8895(2) 0.26641(10)
C25_3 C 0.80293(17) 0.9482(2) 0.15655(10)
C26_3 C 0.81853(16) 0.96387(18) 0.12946(10)
C27_3 C 0.8346(2) 0.98873(18) 0.09572(8)
C32_3 C 0.8979(2) 0.98776(17) 0.08275(9)
H15_3 H 0.9324 0.9673 0.0947
O9_3 O 0.92386(11) 0.84964(10) 0.58134(4)
O18_2 O 0.82671(12) 0.89078(11) 0.51274(5)
O21_2 O 0.93080(12) 0.90674(10) 0.50704(5)
O22_3 O 0.77569(11) 0.83774(14) 0.57943(6)
N2_3 N 0.6916(4) 0.8703(4) 0.6188(2)
C37_3 C 0.98556(18) 0.84388(15) 0.57782(7)
C43_3 C 0.99226(17) 0.87409(15) 0.63907(8)
H20_3 H 0.9461 0.8783 0.6393
C70_3 C 0.7471(5) 0.8795(5) 0.5968(2)
H32_3 H 0.7637 0.9227 0.5954
C71_3 C 0.6719(8) 0.7982(7) 0.6196(4)
C72_3 C 0.6856(5) 0.9297(5) 0.6417(2)
H39_3 H 0.678405 0.973881 0.626509
H40_3 H 0.643597 0.923181 0.658501
H41_3 H 0.730479 0.934797 0.656575
H42_3 H 0.713125 0.768755 0.628748
H43_3 H 0.629798 0.791845 0.636353
H44_3 H 0.65862 0.782184 0.594274
O9_4 O 0.07614(11) 0.15036(10) 0.08134(4)
O22_4 O 0.22431(11) 0.16226(14) 0.07943(6)
N2_4 N 0.3084(4) 0.1297(4) 0.1188(2)
C37_4 C 0.01444(18) 0.15612(15) 0.07782(7)
C43_4 C 0.00774(17) 0.12591(15) 0.13907(8)
H20_4 H 0.0539 0.1217 0.1393
C70_4 C 0.2529(5) 0.1205(5) 0.0968(2)
H32_4 H 0.2363 0.0773 0.0954
C71_4 C 0.3281(8) 0.2018(7) 0.1196(4)
C72_4 C 0.3144(5) 0.0703(5) 0.1417(2)
H39_4 H 0.321595 0.0261185 0.126509
H40_4 H 0.356403 0.0768191 0.158501
H41_4 H 0.269521 0.065203 0.156575
H42_4 H 0.286875 0.231245 0.128748
H43_4 H 0.370202 0.208155 0.136353
H44_4 H 0.34138 0.217816 0.0942745
O1_4 O 0.01580(9) 0.16968(9) 0.94834(4)
C2_4 C 0.02579(18) 0.14420(15) 0.89040(7)
C3_4 C 0.0924(2) 0.14981(18) 0.89118(8)
H1_4 H 0.1134 0.1619 0.9114
C4_4 C 0.13015(17) 0.13795(18) 0.86265(9)
H2_4 H 0.1763 0.1422 0.8633
C5_4 C 0.0974(2) 0.11923(17) 0.83249(9)
C6_4 C 0.0296(2) 0.11407(17) 0.83192(8)
H3_4 H 0.0082 0.1024 0.8118
C8_4 C 0.13635(18) 0.10723(19) 0.80212(10)
C9_4 C 0.1685(2) 0.09925(19) 0.77792(10)
C10_4 C 0.2107(2) 0.08904(18) 0.74908(10)
C11_4 C 0.2784(2) 0.09400(18) 0.75244(9)
H5_4 H 0.2963 0.1043 0.7737
C12_4 C 0.3204(2) 0.0843(2) 0.72555(11)
C13_4 C 0.29220(19) 0.07166(18) 0.69270(9)
H6_4 H 0.3195 0.0659 0.6737
C14_4 C 0.2243(2) 0.06817(18) 0.68967(9)
C15_4 C 0.18149(18) 0.07736(18) 0.71737(10)
H7_4 H 0.1354 0.0758 0.7148
C16_4 C 0.3848(3) 0.0906(3) 0.72893(11)
C17_4 C 0.4440(3) 0.0925(2) 0.73310(10)
C18_4 C 0.5167(2) 0.1010(3) 0.74131(12)
C19_4 C 0.5375(2) 0.1371(2) 0.76802(11)
H8_4 H 0.5068 0.1598 0.7815
C20_4 C 0.6029(2) 0.1403(2) 0.77537(9)
H9_4 H 0.6169 0.1656 0.7939
C21_4 C 0.6490(2) 0.10756(18) 0.75626(10)
C22_4 C 0.6283(2) 0.07170(19) 0.72802(10)
H10_4 H 0.6598 0.0516 0.7140
C23_4 C 0.5652(3) 0.0659(2) 0.72098(10)
H11_4 H 0.5514 0.0392 0.7029
C24_4 C 0.7223(2) 0.1105(2) 0.76641(10)
C25_4 C 0.19707(17) 0.0518(2) 0.65655(10)
C26_4 C 0.18147(16) 0.03613(18) 0.62946(10)
C27_4 C 0.1654(2) 0.01127(18) 0.59572(8)
C32_4 C 0.1021(2) 0.01224(17) 0.58275(9)
H15_4 H 0.0676 0.0327 0.5947
C64_4 C 0.78370(18) 0.9824(2) 0.42163(10)
H28_4 H 0.7408 0.9825 0.4126
C65_4 C 0.7958(2) 0.95336(19) 0.45201(10)
H29_4 H 0.7604 0.9354 0.4643
C66_4 C 0.8574(2) 0.94974(17) 0.46496(8)
C67_4 C 0.90924(17) 0.98306(15) 0.44755(9)
H30_4 H 0.9516 0.9848 0.4571
C69_4 C 0.8738(2) 0.91330(17) 0.49735(9)
loop_
_geom_bond_atom_site_label_1
_geom_bond_atom_site_label_2
_geom_bond_site_symmetry_1
_geom_bond_site_symmetry_2
Zn1 O1 1_555 1_555
O3 C24 1_555 1_555
O4 C24 1_555 1_555
C2 C3 1_555 1_555
C3 H1 1_555 1_555
C4 C3 1_555 1_555
H2 C4 1_555 1_555
C5 C4 1_555 1_555
C6 C5 1_555 1_555
H3 C6 1_555 1_555
C8 C5 1_555 1_555
C9 C8 1_555 1_555
C10 C9 1_555 1_555
C11 C10 1_555 1_555
H5 C11 1_555 1_555
C12 C11 1_555 1_555
C13 C12 1_555 1_555
H6 C13 1_555 1_555
C14 C13 1_555 1_555
C15 C10 1_555 1_555
H7 C15 1_555 1_555
C16 C12 1_555 1_555
C17 C16 1_555 1_555
C18 C17 1_555 1_555
C19 C18 1_555 1_555
H8 C19 1_555 1_555
C20 C19 1_555 1_555
H9 C20 1_555 1_555
C21 C20 1_555 1_555
C22 C21 1_555 1_555
H10 C22 1_555 1_555
C23 C18 1_555 1_555
H11 C23 1_555 1_555
C24 C21 1_555 1_555
C25 C14 1_555 1_555
C26 C25 1_555 1_555
C27 C26 1_555 1_555
C32 C27 1_555 1_555
H15 C32 1_555 1_555
Zn5 O4 1_555 1_555
Zn7 O9 1_555 1_555
Zn10 O3 1_555 1_555
O9 C37 1_555 1_555
O12 Zn7 1_555 1_555
O15 Zn1 1_555 1_555
O18 Zn7 1_555 1_555
O21 Zn1 1_555 1_555
O22 Zn7 1_555 1_555
N2 C70 1_555 1_555
H20 C43 1_555 1_555
C70 O22 1_555 1_555
H32 C70 1_555 1_555
C71 N2 1_555 1_555
C72 N2 1_555 1_555
C14 C15 1_555 1_555
C22 C23 1_555 1_555
C72 H39 1_555 1_555
C72 H40 1_555 1_555
C72 H41 1_555 1_555
C71 H42 1_555 1_555
C71 H43 1_555 1_555
C71 H44 1_555 1_555
Zn4 O19 1_555 1_555
Zn9 O16 1_555 1_555
O16 C69 1_555 1_555
O19 C69 1_555 1_555
H28 C64 1_555 1_555
C65 C64 1_555 1_555
H29 C65 1_555 1_555
C66 C65 1_555 1_555
C67 C66 1_555 1_555
H30 C67 1_555 1_555
C69 C66 1_555 1_555
O18 C69_2 1_555 1_555
O21 C69_2 1_555 1_555
H28_2 C64_2 1_555 1_555
C65_2 C64_2 1_555 1_555
H29_2 C65_2 1_555 1_555
C66_2 C65_2 1_555 1_555
C67_2 C66_2 1_555 1_555
H30_2 C67_2 1_555 1_555
C69_2 C66_2 1_555 1_555
C13_2 C12_2 1_555 1_555
H6_2 C13_2 1_555 1_555
C14_2 C13_2 1_555 1_555
C15_2 C10_2 1_555 1_555
H7_2 C15_2 1_555 1_555
C16_2 C12_2 1_555 1_555
C17_2 C16_2 1_555 1_555
C18_2 C17_2 1_555 1_555
H10_2 C22_2 1_555 1_555
C23_2 C18_2 1_555 1_555
H11_2 C23_2 1_555 1_555
C25_2 C14_2 1_555 1_555
C26_2 C25_2 1_555 1_555
C27_2 C26_2 1_555 1_555
C32_2 C27_2 1_555 1_555
H15_2 C32_2 1_555 1_555
Zn6 O4_2 1_555 1_555
C14_2 C15_2 1_555 1_555
C22_2 C23_2 1_555 1_555
Zn4 O1_2 1_555 1_555
O3_2 C24_2 1_555 1_555
C2_2 C3_2 1_555 1_555
C3_2 H1_2 1_555 1_555
C4_2 C3_2 1_555 1_555
H2_2 C4_2 1_555 1_555
C5_2 C4_2 1_555 1_555
C6_2 C5_2 1_555 1_555
H3_2 C6_2 1_555 1_555
C8_2 C5_2 1_555 1_555
C9_2 C8_2 1_555 1_555
H5_2 C11_2 1_555 1_555
H8_2 C19_2 1_555 1_555
C20_2 C19_2 1_555 1_555
H9_2 C20_2 1_555 1_555
C21_2 C20_2 1_555 1_555
C24_2 C21_2 1_555 1_555
Zn9 O9_2 1_555 1_555
Zn10_2 O3_2 1_555 1_555
O9_2 C37_2 1_555 1_555
O12_2 Zn9 1_555 1_555
O15_2 Zn4 1_555 1_555
O22_2 Zn9 1_555 1_555
N2_2 C70_2 1_555 1_555
H20_2 C43_2 1_555 1_555
C70_2 O22_2 1_555 1_555
H32_2 C70_2 1_555 1_555
C71_2 N2_2 1_555 1_555
C72_2 N2_2 1_555 1_555
C72_2 H39_2 1_555 1_555
C72_2 H40_2 1_555 1_555
C72_2 H41_2 1_555 1_555
C71_2 H42_2 1_555 1_555
C71_2 H43_2 1_555 1_555
C71_2 H44_2 1_555 1_555
Zn10 O2 1_555 1_555
O2 C1 1_555 1_555
O7 Zn10 1_555 1_555
N1 C34 1_555 1_555
H4 C7 1_555 1_555
C34 O7 1_555 1_555
H16 C34 1_555 1_555
C35 N1 1_555 1_555
C36 N1 1_555 1_555
O8 Zn5 1_555 1_555
O12_2 C60 1_555 1_555
O15_2 C60 1_555 1_555
O17 Zn10 1_555 1_555
O20 Zn5 1_555 1_555
C39 C38 1_555 1_555
H17 C39 1_555 1_555
C40 C39 1_555 1_555
H18 C40 1_555 1_555
C41 C40 1_555 1_555
C42 C41 1_555 1_555
H19 C42 1_555 1_555
C44 C41 1_555 1_555
C45 C44 1_555 1_555
C46 C45 1_555 1_555
C47 C46 1_555 1_555
H21 C47 1_555 1_555
C48 C47 1_555 1_555
C49 C48 1_555 1_555
H22 C49 1_555 1_555
C50 C49 1_555 1_555
C51 C46 1_555 1_555
H23 C51 1_555 1_555
C52 C48 1_555 1_555
C53 C52 1_555 1_555
C54 C53 1_555 1_555
C55 C54 1_555 1_555
H24 C55 1_555 1_555
C56 C55 1_555 1_555
H25 C56 1_555 1_555
C57 C56 1_555 1_555
C58 C57 1_555 1_555
H26 C58 1_555 1_555
C59 C54 1_555 1_555
H27 C59 1_555 1_555
C60 C57 1_555 1_555
C61 C50 1_555 1_555
C62 C61 1_555 1_555
C63 C62 1_555 1_555
C68 C63 1_555 1_555
H31 C68 1_555 1_555
C50 C51 1_555 1_555
C58 C59 1_555 1_555
C35 H33 1_555 1_555
C35 H34 1_555 1_555
C35 H35 1_555 1_555
C36 H36 1_555 1_555
C36 H37 1_555 1_555
C36 H38 1_555 1_555
H12 C28 1_555 1_555
C29 C28 1_555 1_555
H13 C29 1_555 1_555
C30 C29 1_555 1_555
C31 C30 1_555 1_555
H14 C31 1_555 1_555
C33 C30 1_555 1_555
Zn6_2 O6 1_555 1_555
Zn10_2 O5 1_555 1_555
O17 C33_2 1_555 1_555
O20 C33_2 1_555 1_555
H12_2 C28_2 1_555 1_555
C29_2 C28_2 1_555 1_555
H13_2 C29_2 1_555 1_555
C30_2 C29_2 1_555 1_555
C31_2 C30_2 1_555 1_555
H14_2 C31_2 1_555 1_555
C33_2 C30_2 1_555 1_555
O8_2 Zn6 1_555 1_555
O12 C60_2 1_555 1_555
O15 C60_2 1_555 1_555
C39_2 C38_2 1_555 1_555
H17_2 C39_2 1_555 1_555
C40_2 C39_2 1_555 1_555
H18_2 C40_2 1_555 1_555
C41_2 C40_2 1_555 1_555
C42_2 C41_2 1_555 1_555
H19_2 C42_2 1_555 1_555
C44_2 C41_2 1_555 1_555
C45_2 C44_2 1_555 1_555
C46_2 C45_2 1_555 1_555
C47_2 C46_2 1_555 1_555
H21_2 C47_2 1_555 1_555
C48_2 C47_2 1_555 1_555
C49_2 C48_2 1_555 1_555
H22_2 C49_2 1_555 1_555
C50_2 C49_2 1_555 1_555
C51_2 C46_2 1_555 1_555
H23_2 C51_2 1_555 1_555
C52_2 C48_2 1_555 1_555
C53_2 C52_2 1_555 1_555
C54_2 C53_2 1_555 1_555
C55_2 C54_2 1_555 1_555
H24_2 C55_2 1_555 1_555
C56_2 C55_2 1_555 1_555
H25_2 C56_2 1_555 1_555
C57_2 C56_2 1_555 1_555
C58_2 C57_2 1_555 1_555
H26_2 C58_2 1_555 1_555
C59_2 C54_2 1_555 1_555
H27_2 C59_2 1_555 1_555
C60_2 C57_2 1_555 1_555
C61_2 C50_2 1_555 1_555
C62_2 C61_2 1_555 1_555
C63_2 C62_2 1_555 1_555
C68_2 C63_2 1_555 1_555
H31_2 C68_2 1_555 1_555
C50_2 C51_2 1_555 1_555
C58_2 C59_2 1_555 1_555
Zn10_2 O2_2 1_555 1_555
O2_2 C1_2 1_555 1_555
O7_2 Zn10_2 1_555 1_555
N1_2 C34_2 1_555 1_555
H4_2 C7_2 1_555 1_555
C34_2 O7_2 1_555 1_555
H16_2 C34_2 1_555 1_555
C35_2 N1_2 1_555 1_555
C36_2 N1_2 1_555 1_555
C35_2 H33_2 1_555 1_555
C35_2 H34_2 1_555 1_555
C35_2 H35_2 1_555 1_555
C36_2 H36_2 1_555 1_555
C36_2 H37_2 1_555 1_555
C36_2 H38_2 1_555 1_555
Zn2 O2_3 1_555 1_555
O2_3 C1_3 1_555 1_555
O7_3 Zn2 1_555 1_555
N1_3 C34_3 1_555 1_555
H4_3 C7_3 1_555 1_555
C34_3 O7_3 1_555 1_555
H16_3 C34_3 1_555 1_555
C35_3 N1_3 1_555 1_555
C36_3 N1_3 1_555 1_555
Zn11 O10 1_555 1_555
O8_3 Zn1_2 1_555 1_555
O10 C60_3 1_555 1_555
O11 Zn2 1_555 1_555
O14 Zn1_2 1_555 1_555
O17_2 Zn2 1_555 1_555
O20_2 Zn1_2 1_555 1_555
C39_3 C38_3 1_555 1_555
H17_3 C39_3 1_555 1_555
C40_3 C39_3 1_555 1_555
H18_3 C40_3 1_555 1_555
C41_3 C40_3 1_555 1_555
C42_3 C41_3 1_555 1_555
H19_3 C42_3 1_555 1_555
C44_3 C41_3 1_555 1_555
C45_3 C44_3 1_555 1_555
H21_3 C47_3 1_555 1_555
H24_3 C55_3 1_555 1_555
C56_3 C55_3 1_555 1_555
H25_3 C56_3 1_555 1_555
C57_3 C56_3 1_555 1_555
C60_3 C57_3 1_555 1_555
C35_3 H33_3 1_555 1_555
C35_3 H34_3 1_555 1_555
C35_3 H35_3 1_555 1_555
C36_3 H36_3 1_555 1_555
C36_3 H37_3 1_555 1_555
C36_3 H38_3 1_555 1_555
Zn6_4 O13 1_555 1_555
C49_3 C48_3 1_555 1_555
H22_3 C49_3 1_555 1_555
C50_3 C49_3 1_555 1_555
C51_3 C46_3 1_555 1_555
H23_3 C51_3 1_555 1_555
C52_3 C48_3 1_555 1_555
C53_3 C52_3 1_555 1_555
C54_3 C53_3 1_555 1_555
H26_3 C58_3 1_555 1_555
C59_3 C54_3 1_555 1_555
H27_3 C59_3 1_555 1_555
C61_3 C50_3 1_555 1_555
C62_3 C61_3 1_555 1_555
C63_3 C62_3 1_555 1_555
C68_3 C63_3 1_555 1_555
H31_3 C68_3 1_555 1_555
C50_3 C51_3 1_555 1_555
C58_3 C59_3 1_555 1_555
O5_2 C33_3 1_555 1_555
O6_2 C33_3 1_555 1_555
H12_3 C28_3 1_555 1_555
C29_3 C28_3 1_555 1_555
H13_3 C29_3 1_555 1_555
C30_3 C29_3 1_555 1_555
C31_3 C30_3 1_555 1_555
H14_3 C31_3 1_555 1_555
C33_3 C30_3 1_555 1_555
Zn4_2 O6_2 1_555 1_555
Zn8 O5_2 1_555 1_555
O17_2 C33_4 1_555 1_555
O20_2 C33_4 1_555 1_555
H12_4 C28_4 1_555 1_555
C29_4 C28_4 1_555 1_555
H13_4 C29_4 1_555 1_555
C30_4 C29_4 1_555 1_555
C31_4 C30_4 1_555 1_555
H14_4 C31_4 1_555 1_555
C33_4 C30_4 1_555 1_555
Zn8 O2_4 1_555 1_555
O2_4 C1_4 1_555 1_555
O7_4 Zn8 1_555 1_555
N1_4 C34_4 1_555 1_555
H4_4 C7_4 1_555 1_555
C34_4 O7_4 1_555 1_555
H16_4 C34_4 1_555 1_555
C35_4 N1_4 1_555 1_555
C36_4 N1_4 1_555 1_555
Zn5_2 O13_2 1_555 1_555
Zn11_2 O10_2 1_555 1_555
O8_4 Zn4_2 1_555 1_555
O10_2 C60_4 1_555 1_555
O11_2 Zn8 1_555 1_555
O13_2 C60_4 1_555 1_555
O14_2 Zn4_2 1_555 1_555
C39_4 C38_4 1_555 1_555
H17_4 C39_4 1_555 1_555
C40_4 C39_4 1_555 1_555
H18_4 C40_4 1_555 1_555
C41_4 C40_4 1_555 1_555
C42_4 C41_4 1_555 1_555
H19_4 C42_4 1_555 1_555
C44_4 C41_4 1_555 1_555
C45_4 C44_4 1_555 1_555
C46_4 C45_4 1_555 1_555
C47_4 C46_4 1_555 1_555
H21_4 C47_4 1_555 1_555
C48_4 C47_4 1_555 1_555
C49_4 C48_4 1_555 1_555
H22_4 C49_4 1_555 1_555
C50_4 C49_4 1_555 1_555
C51_4 C46_4 1_555 1_555
H23_4 C51_4 1_555 1_555
C52_4 C48_4 1_555 1_555
C53_4 C52_4 1_555 1_555
C54_4 C53_4 1_555 1_555
C55_4 C54_4 1_555 1_555
H24_4 C55_4 1_555 1_555
C56_4 C55_4 1_555 1_555
H25_4 C56_4 1_555 1_555
C57_4 C56_4 1_555 1_555
C58_4 C57_4 1_555 1_555
H26_4 C58_4 1_555 1_555
C59_4 C54_4 1_555 1_555
H27_4 C59_4 1_555 1_555
C60_4 C57_4 1_555 1_555
C61_4 C50_4 1_555 1_555
C62_4 C61_4 1_555 1_555
C63_4 C62_4 1_555 1_555
C68_4 C63_4 1_555 1_555
H31_4 C68_4 1_555 1_555
C50_4 C51_4 1_555 1_555
C58_4 C59_4 1_555 1_555
C35_4 H33_4 1_555 1_555
C35_4 H34_4 1_555 1_555
C35_4 H35_4 1_555 1_555
C36_4 H36_4 1_555 1_555
C36_4 H37_4 1_555 1_555
C36_4 H38_4 1_555 1_555
Zn6_3 O19_2 1_555 1_555
Zn11 O16_2 1_555 1_555
H28_3 C64_3 1_555 1_555
C65_3 C64_3 1_555 1_555
H29_3 C65_3 1_555 1_555
C66_3 C65_3 1_555 1_555
C67_3 C66_3 1_555 1_555
H30_3 C67_3 1_555 1_555
C69_3 C66_3 1_555 1_555
Zn5_2 O1_3 1_555 1_555
O11 C24_3 1_555 1_555
O14 C24_3 1_555 1_555
C2_3 C3_3 1_555 1_555
C3_3 H1_3 1_555 1_555
C4_3 C3_3 1_555 1_555
H2_3 C4_3 1_555 1_555
C5_3 C4_3 1_555 1_555
C6_3 C5_3 1_555 1_555
H3_3 C6_3 1_555 1_555
C8_3 C5_3 1_555 1_555
C9_3 C8_3 1_555 1_555
C10_3 C9_3 1_555 1_555
C11_3 C10_3 1_555 1_555
H5_3 C11_3 1_555 1_555
C12_3 C11_3 1_555 1_555
C13_3 C12_3 1_555 1_555
H6_3 C13_3 1_555 1_555
C14_3 C13_3 1_555 1_555
C15_3 C10_3 1_555 1_555
H7_3 C15_3 1_555 1_555
C16_3 C12_3 1_555 1_555
C17_3 C16_3 1_555 1_555
C18_3 C17_3 1_555 1_555
C19_3 C18_3 1_555 1_555
H8_3 C19_3 1_555 1_555
C20_3 C19_3 1_555 1_555
H9_3 C20_3 1_555 1_555
C21_3 C20_3 1_555 1_555
C22_3 C21_3 1_555 1_555
H10_3 C22_3 1_555 1_555
C23_3 C18_3 1_555 1_555
H11_3 C23_3 1_555 1_555
C24_3 C21_3 1_555 1_555
C25_3 C14_3 1_555 1_555
C26_3 C25_3 1_555 1_555
C27_3 C26_3 1_555 1_555
C32_3 C27_3 1_555 1_555
H15_3 C32_3 1_555 1_555
Zn11_2 O9_3 1_555 1_555
O9_3 C37_3 1_555 1_555
O18_2 Zn11_2 1_555 1_555
O21_2 Zn5_2 1_555 1_555
O22_3 Zn11_2 1_555 1_555
N2_3 C70_3 1_555 1_555
H20_3 C43_3 1_555 1_555
C70_3 O22_3 1_555 1_555
H32_3 C70_3 1_555 1_555
C71_3 N2_3 1_555 1_555
C72_3 N2_3 1_555 1_555
C14_3 C15_3 1_555 1_555
C22_3 C23_3 1_555 1_555
C72_3 H39_3 1_555 1_555
C72_3 H40_3 1_555 1_555
C72_3 H41_3 1_555 1_555
C71_3 H42_3 1_555 1_555
C71_3 H43_3 1_555 1_555
C71_3 H44_3 1_555 1_555
Zn11 O9_4 1_555 1_555
O9_4 C37_4 1_555 1_555
O22_4 Zn11 1_555 1_555
N2_4 C70_4 1_555 1_555
H20_4 C43_4 1_555 1_555
C70_4 O22_4 1_555 1_555
H32_4 C70_4 1_555 1_555
C71_4 N2_4 1_555 1_555
C72_4 N2_4 1_555 1_555
C72_4 H39_4 1_555 1_555
C72_4 H40_4 1_555 1_555
C72_4 H41_4 1_555 1_555
C71_4 H42_4 1_555 1_555
C71_4 H43_4 1_555 1_555
C71_4 H44_4 1_555 1_555
Zn6_4 O1_4 1_555 1_555
O11_2 C24_4 1_555 1_555
O14_2 C24_4 1_555 1_555
C2_4 C3_4 1_555 1_555
C3_4 H1_4 1_555 1_555
C4_4 C3_4 1_555 1_555
H2_4 C4_4 1_555 1_555
C5_4 C4_4 1_555 1_555
C6_4 C5_4 1_555 1_555
H3_4 C6_4 1_555 1_555
C8_4 C5_4 1_555 1_555
C9_4 C8_4 1_555 1_555
C10_4 C9_4 1_555 1_555
C11_4 C10_4 1_555 1_555
H5_4 C11_4 1_555 1_555
C12_4 C11_4 1_555 1_555
C13_4 C12_4 1_555 1_555
H6_4 C13_4 1_555 1_555
C14_4 C13_4 1_555 1_555
C15_4 C10_4 1_555 1_555
H7_4 C15_4 1_555 1_555
C16_4 C12_4 1_555 1_555
C17_4 C16_4 1_555 1_555
C18_4 C17_4 1_555 1_555
C19_4 C18_4 1_555 1_555
H8_4 C19_4 1_555 1_555
C20_4 C19_4 1_555 1_555
H9_4 C20_4 1_555 1_555
C21_4 C20_4 1_555 1_555
C22_4 C21_4 1_555 1_555
H10_4 C22_4 1_555 1_555
C23_4 C18_4 1_555 1_555
H11_4 C23_4 1_555 1_555
C24_4 C21_4 1_555 1_555
C25_4 C14_4 1_555 1_555
C26_4 C25_4 1_555 1_555
C27_4 C26_4 1_555 1_555
C32_4 C27_4 1_555 1_555
H15_4 C32_4 1_555 1_555
C14_4 C15_4 1_555 1_555
C22_4 C23_4 1_555 1_555
O18_2 C69_4 1_555 1_555
O21_2 C69_4 1_555 1_555
H28_4 C64_4 1_555 1_555
C65_4 C64_4 1_555 1_555
H29_4 C65_4 1_555 1_555
C66_4 C65_4 1_555 1_555
C67_4 C66_4 1_555 1_555
H30_4 C67_4 1_555 1_555
C69_4 C66_4 1_555 1_555

#END
