
###############################################################################
#
# This file contains modified crystal structure data generated from the
# MOF subset of the Cambridge Structural Database (CSD) v543 
# hosted by the Cambridge Crystallographic Data Centre (CCDC).
#
# This work is licensed under the Creative Commons
# Attribution-NonCommercial-ShareAlike 4.0 International License.
# To view a copy of this license, visit
# http://creativecommons.org/licenses/by-nc-sa/4.0/
# or send a letter to
# Creative Commons, PO Box 1866, Mountain View, CA 94042, USA.
#
# CIF created using the CSD Python API on 29 September 2022
# The structure has been converted into the P1 space group
# The structure has a 3D framework
# The original CSD entry ZARMAI is in the tetragonal crystal system
# The framework has been calculated to contain at least 10.0% void space
# The void calculation uses a probe of radius 1.32A, grid spacing 0.4
# The framework is charged, counterions have been retained in the structure
# H atom positions have been added when not included in the experimental data
# Generated hydrogen atom positions removed from atoms on special positions
#
###############################################################################

data_ZARMAI
_chemical_formula_moiety         '(C192 H192 N44 O108 Zn28 4+)n'
_symmetry_cell_setting           triclinic
_symmetry_space_group_name_H-M   'P 1'
_symmetry_Int_Tables_number      1
_space_group_name_Hall           'P 1'
loop_
_symmetry_equiv_pos_site_id
_symmetry_equiv_pos_as_xyz
1 x,y,z
_cell_length_a                   21.265(4)
_cell_length_b                   21.265(4)
_cell_length_c                   22.666(6)
_cell_angle_alpha                90
_cell_angle_beta                 90
_cell_angle_gamma                90
_cell_volume                     10249.6
loop_
_atom_site_label
_atom_site_type_symbol
_atom_site_fract_x
_atom_site_fract_y
_atom_site_fract_z
Zn2 Zn 0.77130(8) 0.12035(7) 0.5000
O1 O 0.7508(3) 0.0530(4) 0.5618(3)
N1 N 0.6802(5) 0.1662(5) 0.5000
O5 O 0.7002(4) 0.0822(5) 0.6425(4)
N2 N 0.6440(4) 0.1818(3) 0.4519(3)
C6 C 0.5898(6) 0.2026(7) 0.4717(5)
H3 H 0.5564 0.2154 0.4482
H4 H 0.6952 0.0016 0.7175
C8 C 0.7295(4) 0.0417(5) 0.6105(5)
O7 O 0.8745(14) 0.0579(11) 0.5000
Zn5 Zn 0.68447(5) 0.16891(5) 0.62678(4)
Zn6 Zn 0.68447(5) 0.16891(5) 0.37322(4)
O8 O 0.7508(3) 0.0530(4) 0.4382(3)
O11 O 0.8261(4) 0.1680(3) 0.5592(3)
O12 O 0.8261(4) 0.1680(3) 0.4408(3)
O16 O 0.7002(4) 0.0822(5) 0.3575(4)
N3 N 0.6440(4) 0.1818(3) 0.5481(3)
C16 C 0.5898(6) 0.2026(7) 0.5283(5)
H7 H 0.5564 0.2154 0.5518
H8 H 0.6952 0.0016 0.2825
C18 C 0.7295(4) 0.0417(5) 0.3895(5)
Zn1 Zn 0.66891(5) 0.81553(5) 0.87322(4)
O2 O 0.7060(4) 0.8478(4) 0.8045(3)
O3 O 0.8320(3) 0.8261(4) 0.5592(3)
O4 O 0.7892(4) 0.7650(5) 0.6245(4)
C1 C 0.7663(4) 0.9295(4) 0.6078(4)
H1 H 0.7835 0.9364 0.5706
C2 C 0.7365(5) 0.9783(5) 0.6385(4)
C3 C 0.7197(5) 0.9105(5) 0.7230(4)
C4 C 0.7697(5) 0.8714(5) 0.6337(4)
C5 C 0.7486(5) 0.8629(5) 0.6911(4)
H2 H 0.7541 0.8239 0.7089
C7 C 0.7139(5) 0.9686(5) 0.6970(4)
O6 O 0.6666(5) 0.9400(6) 0.8095(4)
C9 C 0.6956(7) 0.9014(6) 0.7821(5)
C10 C 0.8009(5) 0.8184(5) 0.6046(5)
Zn3 Zn 0.66891(5) 0.81553(5) 0.12678(4)
Zn4 Zn 0.83109(5) 0.68447(5) 0.62678(4)
Zn7 Zn 0.83109(5) 0.68447(5) 0.37322(4)
Zn8 Zn 0.87965(7) 0.77130(8) 0.5000
O9 O 0.7060(4) 0.8478(4) 0.1955(3)
O10 O 0.8320(3) 0.8261(4) 0.4408(3)
O13 O 0.7892(4) 0.7650(5) 0.3755(4)
O14 O 0.7108(4) 0.7350(5) 0.8755(4)
O15 O 0.7108(4) 0.7350(5) 0.1245(4)
O17 O 0.5822(5) 0.7998(4) 0.8575(4)
O18 O 0.5822(5) 0.7998(4) 0.1425(4)
C11 C 0.7663(4) 0.9295(4) 0.3922(4)
H5 H 0.7835 0.9364 0.4294
C12 C 0.7365(5) 0.9783(5) 0.3615(4)
C13 C 0.7197(5) 0.9105(5) 0.2770(4)
C14 C 0.7697(5) 0.8714(5) 0.3663(4)
C15 C 0.7486(5) 0.8629(5) 0.3089(4)
H6 H 0.7541 0.8239 0.2911
N4 N 0.6818(3) 0.8560(4) 0.9519(3)
N5 N 0.6818(3) 0.8560(4) 0.0481(3)
C17 C 0.7139(5) 0.9686(5) 0.3030(4)
O19 O 0.6666(5) 0.9400(6) 0.1905(4)
C19 C 0.6956(7) 0.9014(6) 0.2179(5)
C20 C 0.8009(5) 0.8184(5) 0.3954(5)
Zn1_2 Zn 0.33109(5) 0.18447(5) 0.87322(4)
O2_2 O 0.2940(4) 0.1522(4) 0.8045(3)
O3_2 O 0.1680(3) 0.1739(4) 0.5592(3)
O4_2 O 0.2108(4) 0.2350(5) 0.6245(4)
C1_2 C 0.2337(4) 0.0705(4) 0.6078(4)
H1_2 H 0.2165 0.0636 0.5706
C2_2 C 0.2635(5) 0.0217(5) 0.6385(4)
C3_2 C 0.2803(5) 0.0895(5) 0.7230(4)
C4_2 C 0.2303(5) 0.1286(5) 0.6337(4)
C5_2 C 0.2514(5) 0.1371(5) 0.6911(4)
H2_2 H 0.2459 0.1761 0.7089
C7_2 C 0.2861(5) 0.0314(5) 0.6970(4)
O6_2 O 0.3334(5) 0.0600(6) 0.8095(4)
C9_2 C 0.3044(7) 0.0986(6) 0.7821(5)
C10_2 C 0.1991(5) 0.1816(5) 0.6046(5)
Zn3_2 Zn 0.33109(5) 0.18447(5) 0.12678(4)
Zn4_2 Zn 0.16891(5) 0.31553(5) 0.62678(4)
Zn7_2 Zn 0.16891(5) 0.31553(5) 0.37322(4)
Zn8_2 Zn 0.12035(7) 0.22870(8) 0.5000
O9_2 O 0.2940(4) 0.1522(4) 0.1955(3)
O10_2 O 0.1680(3) 0.1739(4) 0.4408(3)
O13_2 O 0.2108(4) 0.2350(5) 0.3755(4)
O14_2 O 0.2892(4) 0.2650(5) 0.8755(4)
O15_2 O 0.2892(4) 0.2650(5) 0.1245(4)
O17_2 O 0.4178(5) 0.2002(4) 0.8575(4)
O18_2 O 0.4178(5) 0.2002(4) 0.1425(4)
C11_2 C 0.2337(4) 0.0705(4) 0.3922(4)
H5_2 H 0.2165 0.0636 0.4294
C12_2 C 0.2635(5) 0.0217(5) 0.3615(4)
C13_2 C 0.2803(5) 0.0895(5) 0.2770(4)
C14_2 C 0.2303(5) 0.1286(5) 0.3663(4)
C15_2 C 0.2514(5) 0.1371(5) 0.3089(4)
H6_2 H 0.2459 0.1761 0.2911
N4_2 N 0.3182(3) 0.1440(4) 0.9519(3)
N5_2 N 0.3182(3) 0.1440(4) 0.0481(3)
C17_2 C 0.2861(5) 0.0314(5) 0.3030(4)
O19_2 O 0.3334(5) 0.0600(6) 0.1905(4)
C19_2 C 0.3044(7) 0.0986(6) 0.2179(5)
C20_2 C 0.1991(5) 0.1816(5) 0.3954(5)
Zn2_2 Zn 0.22870(8) 0.87965(7) 0.5000
O1_2 O 0.2492(3) 0.9470(4) 0.5618(3)
N1_2 N 0.3198(5) 0.8338(5) 0.5000
O5_2 O 0.2998(4) 0.9178(5) 0.6425(4)
N2_2 N 0.3560(4) 0.8182(3) 0.4519(3)
C6_2 C 0.4102(6) 0.7974(7) 0.4717(5)
H3_2 H 0.4436 0.7846 0.4482
H4_2 H 0.3048 0.9984 0.7175
C8_2 C 0.2705(4) 0.9583(5) 0.6105(5)
O7_2 O 0.1255(14) 0.9421(11) 0.5000
Zn5_2 Zn 0.31553(5) 0.83109(5) 0.62678(4)
Zn6_2 Zn 0.31553(5) 0.83109(5) 0.37322(4)
O8_2 O 0.2492(3) 0.9470(4) 0.4382(3)
O11_2 O 0.1739(4) 0.8320(3) 0.5592(3)
O12_2 O 0.1739(4) 0.8320(3) 0.4408(3)
O16_2 O 0.2998(4) 0.9178(5) 0.3575(4)
N3_2 N 0.3560(4) 0.8182(3) 0.5481(3)
C16_2 C 0.4102(6) 0.7974(7) 0.5283(5)
H7_2 H 0.4436 0.7846 0.5518
H8_2 H 0.3048 0.9984 0.2825
C18_2 C 0.2705(4) 0.9583(5) 0.3895(5)
Zn1_3 Zn 0.18447(5) 0.66891(5) 0.87322(4)
O2_3 O 0.1522(4) 0.7060(4) 0.8045(3)
O4_3 O 0.2350(5) 0.7892(4) 0.6245(4)
C1_3 C 0.0705(4) 0.7663(4) 0.6078(4)
H1_3 H 0.0636 0.7835 0.5706
C2_3 C 0.0217(5) 0.7365(5) 0.6385(4)
C3_3 C 0.0895(5) 0.7197(5) 0.7230(4)
C4_3 C 0.1286(5) 0.7697(5) 0.6337(4)
C5_3 C 0.1371(5) 0.7486(5) 0.6911(4)
H2_3 H 0.1761 0.7541 0.7089
C7_3 C 0.0314(5) 0.7139(5) 0.6970(4)
O6_3 O 0.0600(6) 0.6666(5) 0.8095(4)
C9_3 C 0.0986(6) 0.6956(7) 0.7821(5)
C10_3 C 0.1816(5) 0.8009(5) 0.6046(5)
Zn3_3 Zn 0.18447(5) 0.66891(5) 0.12678(4)
O9_3 O 0.1522(4) 0.7060(4) 0.1955(3)
O13_3 O 0.2350(5) 0.7892(4) 0.3755(4)
O14_3 O 0.2650(5) 0.7108(4) 0.8755(4)
O15_3 O 0.2650(5) 0.7108(4) 0.1245(4)
O17_3 O 0.2002(4) 0.5822(5) 0.8575(4)
O18_3 O 0.2002(4) 0.5822(5) 0.1425(4)
C11_3 C 0.0705(4) 0.7663(4) 0.3922(4)
H5_3 H 0.0636 0.7835 0.4294
C12_3 C 0.0217(5) 0.7365(5) 0.3615(4)
C13_3 C 0.0895(5) 0.7197(5) 0.2770(4)
C14_3 C 0.1286(5) 0.7697(5) 0.3663(4)
C15_3 C 0.1371(5) 0.7486(5) 0.3089(4)
H6_3 H 0.1761 0.7541 0.2911
N4_3 N 0.1440(4) 0.6818(3) 0.9519(3)
N5_3 N 0.1440(4) 0.6818(3) 0.0481(3)
C17_3 C 0.0314(5) 0.7139(5) 0.3030(4)
O19_3 O 0.0600(6) 0.6666(5) 0.1905(4)
C19_3 C 0.0986(6) 0.6956(7) 0.2179(5)
C20_3 C 0.1816(5) 0.8009(5) 0.3954(5)
O1_3 O 0.9470(4) 0.7508(3) 0.5618(3)
N1_3 N 0.8338(5) 0.6802(5) 0.5000
O5_3 O 0.9178(5) 0.7002(4) 0.6425(4)
N2_3 N 0.8182(3) 0.6440(4) 0.4519(3)
C6_3 C 0.7974(7) 0.5898(6) 0.4717(5)
H3_3 H 0.7846 0.5564 0.4482
H4_3 H 0.9984 0.6952 0.7175
C8_3 C 0.9583(5) 0.7295(4) 0.6105(5)
O7_3 O 0.9421(11) 0.8745(14) 0.5000
O8_3 O 0.9470(4) 0.7508(3) 0.4382(3)
O16_3 O 0.9178(5) 0.7002(4) 0.3575(4)
N3_3 N 0.8182(3) 0.6440(4) 0.5481(3)
C16_3 C 0.7974(7) 0.5898(6) 0.5283(5)
H7_3 H 0.7846 0.5564 0.5518
H8_3 H 0.9984 0.6952 0.2825
C18_3 C 0.9583(5) 0.7295(4) 0.3895(5)
O1_4 O 0.0530(4) 0.2492(3) 0.5618(3)
N1_4 N 0.1662(5) 0.3198(5) 0.5000
O5_4 O 0.0822(5) 0.2998(4) 0.6425(4)
N2_4 N 0.1818(3) 0.3560(4) 0.4519(3)
C6_4 C 0.2026(7) 0.4102(6) 0.4717(5)
H3_4 H 0.2154 0.4436 0.4482
H4_4 H 0.0016 0.3048 0.7175
C8_4 C 0.0417(5) 0.2705(4) 0.6105(5)
O7_4 O 0.0579(11) 0.1255(14) 0.5000
O8_4 O 0.0530(4) 0.2492(3) 0.4382(3)
O16_4 O 0.0822(5) 0.2998(4) 0.3575(4)
N3_4 N 0.1818(3) 0.3560(4) 0.5481(3)
C16_4 C 0.2026(7) 0.4102(6) 0.5283(5)
H7_4 H 0.2154 0.4436 0.5518
H8_4 H 0.0016 0.3048 0.2825
C18_4 C 0.0417(5) 0.2705(4) 0.3895(5)
Zn1_4 Zn 0.81553(5) 0.33109(5) 0.87322(4)
O2_4 O 0.8478(4) 0.2940(4) 0.8045(3)
O4_4 O 0.7650(5) 0.2108(4) 0.6245(4)
C1_4 C 0.9295(4) 0.2337(4) 0.6078(4)
H1_4 H 0.9364 0.2165 0.5706
C2_4 C 0.9783(5) 0.2635(5) 0.6385(4)
C3_4 C 0.9105(5) 0.2803(5) 0.7230(4)
C4_4 C 0.8714(5) 0.2303(5) 0.6337(4)
C5_4 C 0.8629(5) 0.2514(5) 0.6911(4)
H2_4 H 0.8239 0.2459 0.7089
C7_4 C 0.9686(5) 0.2861(5) 0.6970(4)
O6_4 O 0.9400(6) 0.3334(5) 0.8095(4)
C9_4 C 0.9014(6) 0.3044(7) 0.7821(5)
C10_4 C 0.8184(5) 0.1991(5) 0.6046(5)
Zn3_4 Zn 0.81553(5) 0.33109(5) 0.12678(4)
O9_4 O 0.8478(4) 0.2940(4) 0.1955(3)
O13_4 O 0.7650(5) 0.2108(4) 0.3755(4)
O14_4 O 0.7350(5) 0.2892(4) 0.8755(4)
O15_4 O 0.7350(5) 0.2892(4) 0.1245(4)
O17_4 O 0.7998(4) 0.4178(5) 0.8575(4)
O18_4 O 0.7998(4) 0.4178(5) 0.1425(4)
C11_4 C 0.9295(4) 0.2337(4) 0.3922(4)
H5_4 H 0.9364 0.2165 0.4294
C12_4 C 0.9783(5) 0.2635(5) 0.3615(4)
C13_4 C 0.9105(5) 0.2803(5) 0.2770(4)
C14_4 C 0.8714(5) 0.2303(5) 0.3663(4)
C15_4 C 0.8629(5) 0.2514(5) 0.3089(4)
H6_4 H 0.8239 0.2459 0.2911
N4_4 N 0.8560(4) 0.3182(3) 0.9519(3)
N5_4 N 0.8560(4) 0.3182(3) 0.0481(3)
C17_4 C 0.9686(5) 0.2861(5) 0.3030(4)
O19_4 O 0.9400(6) 0.3334(5) 0.1905(4)
C19_4 C 0.9014(6) 0.3044(7) 0.2179(5)
C20_4 C 0.8184(5) 0.1991(5) 0.3954(5)
Zn2_3 Zn 0.27130(8) 0.62035(7) 0.0000
O1_5 O 0.2508(3) 0.5530(4) 0.0618(3)
N1_5 N 0.1802(5) 0.6662(5) 0.0000
O2_5 O 0.2060(4) 0.3478(4) 0.3045(3)
O3_3 O 0.3320(3) 0.3261(4) 0.0592(3)
C1_5 C 0.2663(4) 0.4295(4) 0.1078(4)
H1_5 H 0.2835 0.4364 0.0706
C2_5 C 0.2365(5) 0.4783(5) 0.1385(4)
C3_5 C 0.2197(5) 0.4105(5) 0.2230(4)
C4_5 C 0.2697(5) 0.3714(5) 0.1337(4)
C5_5 C 0.2486(5) 0.3629(5) 0.1911(4)
H2_5 H 0.2541 0.3239 0.2089
C7_5 C 0.2139(5) 0.4686(5) 0.1970(4)
H4_5 H 0.1952 0.5016 0.2175
C8_5 C 0.2295(4) 0.5417(5) 0.1105(5)
O6_5 O 0.1666(5) 0.4400(6) 0.3095(4)
C9_5 C 0.1956(7) 0.4014(6) 0.2821(5)
C10_5 C 0.3009(5) 0.3184(5) 0.1046(5)
O7_5 O 0.3745(14) 0.5579(11) 0.0000
Zn8_3 Zn 0.37965(7) 0.27130(8) 0.0000
O11_3 O 0.3261(4) 0.6680(3) 0.0592(3)
C16_5 C 0.0898(6) 0.7026(7) 0.0283(5)
H7_5 H 0.0564 0.7154 0.0518
Zn2_4 Zn 0.27130(8) 0.62035(7) 1.0000
N1_6 N 0.1802(5) 0.6662(5) 1.0000
C6_5 C 0.0898(6) 0.7026(7) 0.9717(5)
H3_5 H 0.0564 0.7154 0.9482
O7_6 O 0.3745(14) 0.5579(11) 1.0000
Zn8_4 Zn 0.37965(7) 0.27130(8) 1.0000
O8_5 O 0.2508(3) 0.5530(4) 0.9382(3)
O9_5 O 0.2060(4) 0.3478(4) 0.6955(3)
O10_3 O 0.3320(3) 0.3261(4) 0.9408(3)
O12_3 O 0.3261(4) 0.6680(3) 0.9408(3)
C11_5 C 0.2663(4) 0.4295(4) 0.8922(4)
H5_5 H 0.2835 0.4364 0.9294
C12_5 C 0.2365(5) 0.4783(5) 0.8615(4)
C13_5 C 0.2197(5) 0.4105(5) 0.7770(4)
C14_5 C 0.2697(5) 0.3714(5) 0.8663(4)
C15_5 C 0.2486(5) 0.3629(5) 0.8089(4)
H6_5 H 0.2541 0.3239 0.7911
C17_5 C 0.2139(5) 0.4686(5) 0.8030(4)
H8_5 H 0.1952 0.5016 0.7825
C18_5 C 0.2295(4) 0.5417(5) 0.8895(5)
O19_5 O 0.1666(5) 0.4400(6) 0.6905(4)
C19_5 C 0.1956(7) 0.4014(6) 0.7179(5)
C20_5 C 0.3009(5) 0.3184(5) 0.8954(5)
H21 H 0.365908 0.513636 0.988608
H22 H 0.404216 0.576941 0.971312
Zn2_5 Zn 0.72870(8) 0.37965(7) 0.0000
O1_6 O 0.7492(3) 0.4470(4) 0.0618(3)
N1_7 N 0.8198(5) 0.3338(5) 0.0000
O2_6 O 0.7940(4) 0.6522(4) 0.3045(3)
O3_4 O 0.6680(3) 0.6739(4) 0.0592(3)
C1_6 C 0.7337(4) 0.5705(4) 0.1078(4)
H1_6 H 0.7165 0.5636 0.0706
C2_6 C 0.7635(5) 0.5217(5) 0.1385(4)
C3_6 C 0.7803(5) 0.5895(5) 0.2230(4)
C4_6 C 0.7303(5) 0.6286(5) 0.1337(4)
C5_6 C 0.7514(5) 0.6371(5) 0.1911(4)
H2_6 H 0.7459 0.6761 0.2089
C7_6 C 0.7861(5) 0.5314(5) 0.1970(4)
H4_6 H 0.8048 0.4984 0.2175
C8_6 C 0.7705(4) 0.4583(5) 0.1105(5)
O6_6 O 0.8334(5) 0.5600(6) 0.3095(4)
C9_6 C 0.8044(7) 0.5986(6) 0.2821(5)
C10_6 C 0.6991(5) 0.6816(5) 0.1046(5)
O7_7 O 0.6255(14) 0.4421(11) 0.0000
Zn8_5 Zn 0.62035(7) 0.72870(8) 0.0000
O11_4 O 0.6739(4) 0.3320(3) 0.0592(3)
C16_6 C 0.9102(6) 0.2974(7) 0.0283(5)
H7_6 H 0.9436 0.2846 0.0518
Zn2_6 Zn 0.72870(8) 0.37965(7) 1.0000
N1_8 N 0.8198(5) 0.3338(5) 1.0000
C6_6 C 0.9102(6) 0.2974(7) 0.9717(5)
H3_6 H 0.9436 0.2846 0.9482
O7_8 O 0.6255(14) 0.4421(11) 1.0000
Zn8_6 Zn 0.62035(7) 0.72870(8) 1.0000
O8_6 O 0.7492(3) 0.4470(4) 0.9382(3)
O9_6 O 0.7940(4) 0.6522(4) 0.6955(3)
O10_4 O 0.6680(3) 0.6739(4) 0.9408(3)
O12_4 O 0.6739(4) 0.3320(3) 0.9408(3)
C11_6 C 0.7337(4) 0.5705(4) 0.8922(4)
H5_6 H 0.7165 0.5636 0.9294
C12_6 C 0.7635(5) 0.5217(5) 0.8615(4)
C13_6 C 0.7803(5) 0.5895(5) 0.7770(4)
C14_6 C 0.7303(5) 0.6286(5) 0.8663(4)
C15_6 C 0.7514(5) 0.6371(5) 0.8089(4)
H6_6 H 0.7459 0.6761 0.7911
C17_6 C 0.7861(5) 0.5314(5) 0.8030(4)
H8_6 H 0.8048 0.4984 0.7825
C18_6 C 0.7705(4) 0.4583(5) 0.8895(5)
O19_6 O 0.8334(5) 0.5600(6) 0.6905(4)
C19_6 C 0.8044(7) 0.5986(6) 0.7179(5)
C20_6 C 0.6991(5) 0.6816(5) 0.8954(5)
H21_2 H 0.634092 0.486364 0.988608
H22_2 H 0.595784 0.423059 0.971312
O1_7 O 0.4470(4) 0.2508(3) 0.0618(3)
N1_9 N 0.3338(5) 0.1802(5) 0.0000
O2_7 O 0.6522(4) 0.2060(4) 0.3045(3)
C1_7 C 0.5705(4) 0.2663(4) 0.1078(4)
H1_7 H 0.5636 0.2835 0.0706
C2_7 C 0.5217(5) 0.2365(5) 0.1385(4)
C3_7 C 0.5895(5) 0.2197(5) 0.2230(4)
C4_7 C 0.6286(5) 0.2697(5) 0.1337(4)
C5_7 C 0.6371(5) 0.2486(5) 0.1911(4)
H2_7 H 0.6761 0.2541 0.2089
C7_7 C 0.5314(5) 0.2139(5) 0.1970(4)
H4_7 H 0.4984 0.1952 0.2175
C8_7 C 0.4583(5) 0.2295(4) 0.1105(5)
O6_7 O 0.5600(6) 0.1666(5) 0.3095(4)
C9_7 C 0.5986(6) 0.1956(7) 0.2821(5)
C10_7 C 0.6816(5) 0.3009(5) 0.1046(5)
O7_9 O 0.4421(11) 0.3745(14) 0.0000
C16_7 C 0.2974(7) 0.0898(6) 0.0283(5)
H7_7 H 0.2846 0.0564 0.0518
N1_10 N 0.3338(5) 0.1802(5) 1.0000
C6_7 C 0.2974(7) 0.0898(6) 0.9717(5)
H3_7 H 0.2846 0.0564 0.9482
O7_10 O 0.4421(11) 0.3745(14) 1.0000
O8_7 O 0.4470(4) 0.2508(3) 0.9382(3)
O9_7 O 0.6522(4) 0.2060(4) 0.6955(3)
C11_7 C 0.5705(4) 0.2663(4) 0.8922(4)
H5_7 H 0.5636 0.2835 0.9294
C12_7 C 0.5217(5) 0.2365(5) 0.8615(4)
C13_7 C 0.5895(5) 0.2197(5) 0.7770(4)
C14_7 C 0.6286(5) 0.2697(5) 0.8663(4)
C15_7 C 0.6371(5) 0.2486(5) 0.8089(4)
H6_7 H 0.6761 0.2541 0.7911
C17_7 C 0.5314(5) 0.2139(5) 0.8030(4)
H8_7 H 0.4984 0.1952 0.7825
C18_7 C 0.4583(5) 0.2295(4) 0.8895(5)
O19_7 O 0.5600(6) 0.1666(5) 0.6905(4)
C19_7 C 0.5986(6) 0.1956(7) 0.7179(5)
C20_7 C 0.6816(5) 0.3009(5) 0.8954(5)
H21_3 H 0.486364 0.365908 0.988608
H22_3 H 0.423059 0.404216 0.971312
O1_8 O 0.5530(4) 0.7492(3) 0.0618(3)
N1_11 N 0.6662(5) 0.8198(5) 0.0000
O2_8 O 0.3478(4) 0.7940(4) 0.3045(3)
C1_8 C 0.4295(4) 0.7337(4) 0.1078(4)
H1_8 H 0.4364 0.7165 0.0706
C2_8 C 0.4783(5) 0.7635(5) 0.1385(4)
C3_8 C 0.4105(5) 0.7803(5) 0.2230(4)
C4_8 C 0.3714(5) 0.7303(5) 0.1337(4)
C5_8 C 0.3629(5) 0.7514(5) 0.1911(4)
H2_8 H 0.3239 0.7459 0.2089
C7_8 C 0.4686(5) 0.7861(5) 0.1970(4)
H4_8 H 0.5016 0.8048 0.2175
C8_8 C 0.5417(5) 0.7705(4) 0.1105(5)
O6_8 O 0.4400(6) 0.8334(5) 0.3095(4)
C9_8 C 0.4014(6) 0.8044(7) 0.2821(5)
C10_8 C 0.3184(5) 0.6991(5) 0.1046(5)
O7_11 O 0.5579(11) 0.6255(14) 0.0000
C16_8 C 0.7026(7) 0.9102(6) 0.0283(5)
H7_8 H 0.7154 0.9436 0.0518
N1_12 N 0.6662(5) 0.8198(5) 1.0000
C6_8 C 0.7026(7) 0.9102(6) 0.9717(5)
H3_8 H 0.7154 0.9436 0.9482
O7_12 O 0.5579(11) 0.6255(14) 1.0000
O8_8 O 0.5530(4) 0.7492(3) 0.9382(3)
O9_8 O 0.3478(4) 0.7940(4) 0.6955(3)
C11_8 C 0.4295(4) 0.7337(4) 0.8922(4)
H5_8 H 0.4364 0.7165 0.9294
C12_8 C 0.4783(5) 0.7635(5) 0.8615(4)
C13_8 C 0.4105(5) 0.7803(5) 0.7770(4)
C14_8 C 0.3714(5) 0.7303(5) 0.8663(4)
C15_8 C 0.3629(5) 0.7514(5) 0.8089(4)
H6_8 H 0.3239 0.7459 0.7911
C17_8 C 0.4686(5) 0.7861(5) 0.8030(4)
H8_8 H 0.5016 0.8048 0.7825
C18_8 C 0.5417(5) 0.7705(4) 0.8895(5)
O19_8 O 0.4400(6) 0.8334(5) 0.6905(4)
C19_8 C 0.4014(6) 0.8044(7) 0.7179(5)
C20_8 C 0.3184(5) 0.6991(5) 0.8954(5)
H21_4 H 0.513636 0.634092 0.988608
H22_4 H 0.576941 0.595784 0.971312
H21_5 H 0.634092 0.486364 0.0113916
H22_5 H 0.595784 0.423059 0.0286877
H21_6 H 0.365908 0.513636 0.0113916
H22_6 H 0.404216 0.576941 0.0286877
H21_7 H 0.513636 0.634092 0.0113916
H22_7 H 0.576941 0.595784 0.0286877
H21_8 H 0.486364 0.365908 0.0113916
H22_8 H 0.423059 0.404216 0.0286877
N6 N 0.5000 0.0000 0.3764(9)
C21 C 0.5293(12) 0.0540(10) 0.4118(10)
H9 H 0.5631 0.0381 0.4355
H10 H 0.4979 0.0725 0.4368
H11 H 0.5453 0.0853 0.3851
H13 H 0.5690 0.0084 0.3140
C24 C 0.4471(12) 0.0249(17) 0.3383(13)
H18 H 0.4141 0.0407 0.3630
H20 H 0.4626 0.0582 0.3137
N6_2 N 0.5000 1.0000 0.3764(9)
C22 C 0.5529(12) 0.9751(17) 0.3383(13)
H12 H 0.5859 0.9593 0.3630
H14 H 0.5374 0.9418 0.3137
C23 C 0.4707(12) 0.9460(10) 0.4118(10)
H15 H 0.4369 0.9619 0.4355
H16 H 0.5021 0.9275 0.4368
H17 H 0.4547 0.9147 0.3851
H19 H 0.4310 0.9916 0.3140
N6_3 N 0.0000 0.5000 0.3764(9)
C22_2 C 0.0249(17) 0.5529(12) 0.3383(13)
H12_2 H 0.0407 0.5859 0.3630
H14_2 H 0.0582 0.5374 0.3137
C23_2 C 0.0540(10) 0.4707(12) 0.4118(10)
H15_2 H 0.0381 0.4369 0.4355
H16_2 H 0.0725 0.5021 0.4368
H17_2 H 0.0853 0.4547 0.3851
H19_2 H 0.0084 0.4310 0.3140
N6_4 N 1.0000 0.5000 0.3764(9)
C21_2 C 0.9460(10) 0.5293(12) 0.4118(10)
H9_2 H 0.9619 0.5631 0.4355
H10_2 H 0.9275 0.4979 0.4368
H11_2 H 0.9147 0.5453 0.3851
H13_2 H 0.9916 0.5690 0.3140
C24_2 C 0.9751(17) 0.4471(12) 0.3383(13)
H18_2 H 0.9593 0.4141 0.3630
H20_2 H 0.9418 0.4626 0.3137
N6_5 N -0.0000 0.5000 0.8764(9)
C21_3 C 0.0293(12) 0.5540(10) 0.9118(10)
H9_3 H 0.0631 0.5381 0.9355
H11_3 H 0.0453 0.5853 0.8851
C22_3 C 0.0529(12) 0.4751(17) 0.8383(13)
H12_3 H 0.0859 0.4593 0.8630
H13_3 H 0.0690 0.5084 0.8140
H14_3 H 0.0374 0.4418 0.8137
H16_3 H 0.0021 0.4275 0.9368
N6_6 N 1.0000 0.5000 0.8764(9)
H10_3 H 0.9979 0.5725 0.9368
C23_3 C 0.9707(12) 0.4460(10) 0.9118(10)
H15_3 H 0.9369 0.4619 0.9355
H17_3 H 0.9547 0.4147 0.8851
C24_3 C 0.9471(12) 0.5249(17) 0.8383(13)
H18_3 H 0.9141 0.5407 0.8630
H19_3 H 0.9310 0.4916 0.8140
H20_3 H 0.9626 0.5582 0.8137
N6_7 N 0.5000 -0.0000 0.8764(9)
C21_4 C 0.4460(10) 0.0293(12) 0.9118(10)
H9_4 H 0.4619 0.0631 0.9355
H11_4 H 0.4147 0.0453 0.8851
C22_4 C 0.5249(17) 0.0529(12) 0.8383(13)
H12_4 H 0.5407 0.0859 0.8630
H13_4 H 0.4916 0.0690 0.8140
H14_4 H 0.5582 0.0374 0.8137
H16_4 H 0.5725 0.0021 0.9368
N6_8 N 0.5000 1.0000 0.8764(9)
H10_4 H 0.4275 0.9979 0.9368
C23_4 C 0.5540(10) 0.9707(12) 0.9118(10)
H15_4 H 0.5381 0.9369 0.9355
H17_4 H 0.5853 0.9547 0.8851
C24_4 C 0.4751(17) 0.9471(12) 0.8383(13)
H18_4 H 0.4593 0.9141 0.8630
H19_4 H 0.5084 0.9310 0.8140
H20_4 H 0.4418 0.9626 0.8137
N6_9 N 0.5000 0.0000 0.6236(9)
C22_5 C 0.4471(12) 0.0249(17) 0.6617(13)
H12_5 H 0.4141 0.0407 0.6370
H14_5 H 0.4626 0.0582 0.6863
C23_5 C 0.5293(12) 0.0540(10) 0.5882(10)
H15_5 H 0.5631 0.0381 0.5645
H16_5 H 0.4979 0.0725 0.5632
H17_5 H 0.5453 0.0853 0.6149
H19_5 H 0.5690 0.0084 0.6860
N6_10 N 0.5000 1.0000 0.6236(9)
C21_5 C 0.4707(12) 0.9460(10) 0.5882(10)
H9_5 H 0.4369 0.9619 0.5645
H10_5 H 0.5021 0.9275 0.5632
H11_5 H 0.4547 0.9147 0.6149
H13_5 H 0.4310 0.9916 0.6860
C24_5 C 0.5529(12) 0.9751(17) 0.6617(13)
H18_5 H 0.5859 0.9593 0.6370
H20_5 H 0.5374 0.9418 0.6863
N6_11 N 0.0000 0.5000 0.6236(9)
C21_6 C 0.0540(10) 0.4707(12) 0.5882(10)
H9_6 H 0.0381 0.4369 0.5645
H10_6 H 0.0725 0.5021 0.5632
H11_6 H 0.0853 0.4547 0.6149
H13_6 H 0.0084 0.4310 0.6860
C24_6 C 0.0249(17) 0.5529(12) 0.6617(13)
H18_6 H 0.0407 0.5859 0.6370
H20_6 H 0.0582 0.5374 0.6863
N6_12 N 1.0000 0.5000 0.6236(9)
C22_6 C 0.9751(17) 0.4471(12) 0.6617(13)
H12_6 H 0.9593 0.4141 0.6370
H14_6 H 0.9418 0.4626 0.6863
C23_6 C 0.9460(10) 0.5293(12) 0.5882(10)
H15_6 H 0.9619 0.5631 0.5645
H16_6 H 0.9275 0.4979 0.5632
H17_6 H 0.9147 0.5453 0.6149
H19_6 H 0.9916 0.5690 0.6860
N6_13 N 0.0000 0.5000 0.1236(9)
H10_7 H 0.0021 0.4275 0.0632
C23_7 C 0.0293(12) 0.5540(10) 0.0882(10)
H15_7 H 0.0631 0.5381 0.0645
H17_7 H 0.0453 0.5853 0.1149
C24_7 C 0.0529(12) 0.4751(17) 0.1617(13)
H18_7 H 0.0859 0.4593 0.1370
H19_7 H 0.0690 0.5084 0.1860
H20_7 H 0.0374 0.4418 0.1863
N6_14 N 1.0000 0.5000 0.1236(9)
C21_7 C 0.9707(12) 0.4460(10) 0.0882(10)
H9_7 H 0.9369 0.4619 0.0645
H11_7 H 0.9547 0.4147 0.1149
C22_7 C 0.9471(12) 0.5249(17) 0.1617(13)
H12_7 H 0.9141 0.5407 0.1370
H13_7 H 0.9310 0.4916 0.1860
H14_7 H 0.9626 0.5582 0.1863
H16_7 H 0.9979 0.5725 0.0632
N6_15 N 0.5000 -0.0000 0.1236(9)
H10_8 H 0.5725 0.0021 0.0632
C23_8 C 0.4460(10) 0.0293(12) 0.0882(10)
H15_8 H 0.4619 0.0631 0.0645
H17_8 H 0.4147 0.0453 0.1149
C24_8 C 0.5249(17) 0.0529(12) 0.1617(13)
H18_8 H 0.5407 0.0859 0.1370
H19_8 H 0.4916 0.0690 0.1860
H20_8 H 0.5582 0.0374 0.1863
N6_16 N 0.5000 1.0000 0.1236(9)
C21_8 C 0.5540(10) 0.9707(12) 0.0882(10)
H9_8 H 0.5381 0.9369 0.0645
H11_8 H 0.5853 0.9547 0.1149
C22_8 C 0.4751(17) 0.9471(12) 0.1617(13)
H12_8 H 0.4593 0.9141 0.1370
H13_8 H 0.5084 0.9310 0.1860
H14_8 H 0.4418 0.9626 0.1863
H16_8 H 0.4275 0.9979 0.0632
loop_
_geom_bond_atom_site_label_1
_geom_bond_atom_site_label_2
_geom_bond_site_symmetry_1
_geom_bond_site_symmetry_2
Zn2 O1 1_555 1_555
O1 C8 1_555 1_555
N1 Zn2 1_555 1_555
O5 C8 1_555 1_555
N2 N1 1_555 1_555
C6 N2 1_555 1_555
H3 C6 1_555 1_555
O7 Zn2 1_555 1_555
Zn5 O5 1_555 1_555
Zn6 N2 1_555 1_555
O8 Zn2 1_555 1_555
O11 Zn2 1_555 1_555
O12 Zn2 1_555 1_555
O16 Zn6 1_555 1_555
N3 N1 1_555 1_555
C16 C6 1_555 1_555
H7 C16 1_555 1_555
C18 O8 1_555 1_555
Zn5 N3 1_555 1_555
O16 C18 1_555 1_555
N3 C16 1_555 1_555
Zn1 O2 1_555 1_555
O2 C9 1_555 1_555
O3 C10 1_555 1_555
O4 C10 1_555 1_555
C1 H1 1_555 1_555
C2 C1 1_555 1_555
C3 C5 1_555 1_555
C4 C1 1_555 1_555
C5 C4 1_555 1_555
H2 C5 1_555 1_555
C7 C2 1_555 1_555
O6 C9 1_555 1_555
C9 C3 1_555 1_555
C10 C4 1_555 1_555
Zn3 O9 1_555 1_555
Zn4 O4 1_555 1_555
Zn7 O13 1_555 1_555
Zn8 O3 1_555 1_555
O9 C19 1_555 1_555
O10 Zn8 1_555 1_555
O13 C20 1_555 1_555
O14 Zn1 1_555 1_555
O15 Zn3 1_555 1_555
O17 Zn1 1_555 1_555
O18 Zn3 1_555 1_555
C11 H5 1_555 1_555
C12 C11 1_555 1_555
C13 C15 1_555 1_555
C14 C11 1_555 1_555
C15 C14 1_555 1_555
H6 C15 1_555 1_555
N4 Zn1 1_555 1_555
N5 Zn3 1_555 1_555
C17 C12 1_555 1_555
O19 C19 1_555 1_555
C19 C13 1_555 1_555
C20 O10 1_555 1_555
C3 C7 1_555 1_555
C13 C17 1_555 1_555
C14 C20 1_555 1_555
Zn1_2 O2_2 1_555 1_555
O2_2 C9_2 1_555 1_555
O3_2 C10_2 1_555 1_555
O4_2 C10_2 1_555 1_555
C1_2 H1_2 1_555 1_555
C2_2 C1_2 1_555 1_555
C3_2 C5_2 1_555 1_555
C4_2 C1_2 1_555 1_555
C5_2 C4_2 1_555 1_555
H2_2 C5_2 1_555 1_555
C7_2 C2_2 1_555 1_555
O6_2 C9_2 1_555 1_555
C9_2 C3_2 1_555 1_555
C10_2 C4_2 1_555 1_555
Zn3_2 O9_2 1_555 1_555
Zn4_2 O4_2 1_555 1_555
Zn7_2 O13_2 1_555 1_555
Zn8_2 O3_2 1_555 1_555
O9_2 C19_2 1_555 1_555
O10_2 Zn8_2 1_555 1_555
O13_2 C20_2 1_555 1_555
O14_2 Zn1_2 1_555 1_555
O15_2 Zn3_2 1_555 1_555
O17_2 Zn1_2 1_555 1_555
O18_2 Zn3_2 1_555 1_555
C11_2 H5_2 1_555 1_555
C12_2 C11_2 1_555 1_555
C13_2 C15_2 1_555 1_555
C14_2 C11_2 1_555 1_555
C15_2 C14_2 1_555 1_555
H6_2 C15_2 1_555 1_555
N4_2 Zn1_2 1_555 1_555
N5_2 Zn3_2 1_555 1_555
C17_2 C12_2 1_555 1_555
O19_2 C19_2 1_555 1_555
C19_2 C13_2 1_555 1_555
C20_2 O10_2 1_555 1_555
C3_2 C7_2 1_555 1_555
C13_2 C17_2 1_555 1_555
C14_2 C20_2 1_555 1_555
Zn2_2 O1_2 1_555 1_555
O1_2 C8_2 1_555 1_555
N1_2 Zn2_2 1_555 1_555
O5_2 C8_2 1_555 1_555
N2_2 N1_2 1_555 1_555
C6_2 N2_2 1_555 1_555
H3_2 C6_2 1_555 1_555
O7_2 Zn2_2 1_555 1_555
Zn5_2 O5_2 1_555 1_555
Zn6_2 N2_2 1_555 1_555
O8_2 Zn2_2 1_555 1_555
O11_2 Zn2_2 1_555 1_555
O12_2 Zn2_2 1_555 1_555
O16_2 Zn6_2 1_555 1_555
N3_2 N1_2 1_555 1_555
C16_2 C6_2 1_555 1_555
H7_2 C16_2 1_555 1_555
C18_2 O8_2 1_555 1_555
Zn5_2 N3_2 1_555 1_555
O16_2 C18_2 1_555 1_555
N3_2 C16_2 1_555 1_555
Zn1_3 O2_3 1_555 1_555
O2_3 C9_3 1_555 1_555
O11_2 C10_3 1_555 1_555
O4_3 C10_3 1_555 1_555
C1_3 H1_3 1_555 1_555
C2_3 C1_3 1_555 1_555
C3_3 C5_3 1_555 1_555
C4_3 C1_3 1_555 1_555
C5_3 C4_3 1_555 1_555
H2_3 C5_3 1_555 1_555
C7_3 C2_3 1_555 1_555
O6_3 C9_3 1_555 1_555
C9_3 C3_3 1_555 1_555
C10_3 C4_3 1_555 1_555
Zn3_3 O9_3 1_555 1_555
Zn5_2 O4_3 1_555 1_555
Zn6_2 O13_3 1_555 1_555
O9_3 C19_3 1_555 1_555
O13_3 C20_3 1_555 1_555
O14_3 Zn1_3 1_555 1_555
O15_3 Zn3_3 1_555 1_555
O17_3 Zn1_3 1_555 1_555
O18_3 Zn3_3 1_555 1_555
C11_3 H5_3 1_555 1_555
C12_3 C11_3 1_555 1_555
C13_3 C15_3 1_555 1_555
C14_3 C11_3 1_555 1_555
C15_3 C14_3 1_555 1_555
H6_3 C15_3 1_555 1_555
N4_3 Zn1_3 1_555 1_555
N5_3 Zn3_3 1_555 1_555
C17_3 C12_3 1_555 1_555
O19_3 C19_3 1_555 1_555
C19_3 C13_3 1_555 1_555
C20_3 O12_2 1_555 1_555
C3_3 C7_3 1_555 1_555
C13_3 C17_3 1_555 1_555
C14_3 C20_3 1_555 1_555
Zn8 O1_3 1_555 1_555
O1_3 C8_3 1_555 1_555
N1_3 Zn8 1_555 1_555
O5_3 C8_3 1_555 1_555
N2_3 N1_3 1_555 1_555
C6_3 N2_3 1_555 1_555
H3_3 C6_3 1_555 1_555
O7_3 Zn8 1_555 1_555
Zn4 O5_3 1_555 1_555
Zn7 N2_3 1_555 1_555
O8_3 Zn8 1_555 1_555
O16_3 Zn7 1_555 1_555
N3_3 N1_3 1_555 1_555
C16_3 C6_3 1_555 1_555
H7_3 C16_3 1_555 1_555
C18_3 O8_3 1_555 1_555
Zn4 N3_3 1_555 1_555
O16_3 C18_3 1_555 1_555
N3_3 C16_3 1_555 1_555
Zn8_2 O1_4 1_555 1_555
O1_4 C8_4 1_555 1_555
N1_4 Zn8_2 1_555 1_555
O5_4 C8_4 1_555 1_555
N2_4 N1_4 1_555 1_555
C6_4 N2_4 1_555 1_555
H3_4 C6_4 1_555 1_555
O7_4 Zn8_2 1_555 1_555
Zn4_2 O5_4 1_555 1_555
Zn7_2 N2_4 1_555 1_555
O8_4 Zn8_2 1_555 1_555
O16_4 Zn7_2 1_555 1_555
N3_4 N1_4 1_555 1_555
C16_4 C6_4 1_555 1_555
H7_4 C16_4 1_555 1_555
C18_4 O8_4 1_555 1_555
Zn4_2 N3_4 1_555 1_555
O16_4 C18_4 1_555 1_555
N3_4 C16_4 1_555 1_555
Zn1_4 O2_4 1_555 1_555
O2_4 C9_4 1_555 1_555
O11 C10_4 1_555 1_555
O4_4 C10_4 1_555 1_555
C1_4 H1_4 1_555 1_555
C2_4 C1_4 1_555 1_555
C3_4 C5_4 1_555 1_555
C4_4 C1_4 1_555 1_555
C5_4 C4_4 1_555 1_555
H2_4 C5_4 1_555 1_555
C7_4 C2_4 1_555 1_555
O6_4 C9_4 1_555 1_555
C9_4 C3_4 1_555 1_555
C10_4 C4_4 1_555 1_555
Zn3_4 O9_4 1_555 1_555
Zn5 O4_4 1_555 1_555
Zn6 O13_4 1_555 1_555
O9_4 C19_4 1_555 1_555
O13_4 C20_4 1_555 1_555
O14_4 Zn1_4 1_555 1_555
O15_4 Zn3_4 1_555 1_555
O17_4 Zn1_4 1_555 1_555
O18_4 Zn3_4 1_555 1_555
C11_4 H5_4 1_555 1_555
C12_4 C11_4 1_555 1_555
C13_4 C15_4 1_555 1_555
C14_4 C11_4 1_555 1_555
C15_4 C14_4 1_555 1_555
H6_4 C15_4 1_555 1_555
N4_4 Zn1_4 1_555 1_555
N5_4 Zn3_4 1_555 1_555
C17_4 C12_4 1_555 1_555
O19_4 C19_4 1_555 1_555
C19_4 C13_4 1_555 1_555
C20_4 O12 1_555 1_555
C3_4 C7_4 1_555 1_555
C13_4 C17_4 1_555 1_555
C14_4 C20_4 1_555 1_555
Zn7_2 O2_5 1_555 1_555
Zn2_3 O1_5 1_555 1_555
O1_5 C8_5 1_555 1_555
N1_5 Zn2_3 1_555 1_555
O2_5 C9_5 1_555 1_555
O3_3 C10_5 1_555 1_555
O15_2 C10_5 1_555 1_555
O18_3 C8_5 1_555 1_555
C1_5 H1_5 1_555 1_555
C2_5 C1_5 1_555 1_555
C3_5 C5_5 1_555 1_555
C4_5 C1_5 1_555 1_555
C5_5 C4_5 1_555 1_555
H2_5 C5_5 1_555 1_555
C7_5 C2_5 1_555 1_555
H4_5 C7_5 1_555 1_555
C8_5 C2_5 1_555 1_555
O6_5 C9_5 1_555 1_555
C9_5 C3_5 1_555 1_555
C10_5 C4_5 1_555 1_555
O7_5 Zn2_3 1_555 1_555
Zn8_3 O3_3 1_555 1_555
O11_3 Zn2_3 1_555 1_555
N5_3 N1_5 1_555 1_555
H7_5 C16_5 1_555 1_555
C3_5 C7_5 1_555 1_555
N5_3 C16_5 1_555 1_555
N1_6 Zn2_4 1_555 1_555
N4_3 N1_6 1_555 1_555
C6_5 N4_3 1_555 1_555
H3_5 C6_5 1_555 1_555
O7_6 Zn2_4 1_555 1_555
Zn4_2 O9_5 1_555 1_555
O8_5 Zn2_4 1_555 1_555
O9_5 C19_5 1_555 1_555
O10_3 Zn8_4 1_555 1_555
O12_3 Zn2_4 1_555 1_555
O14_2 C20_5 1_555 1_555
C11_5 H5_5 1_555 1_555
C12_5 C11_5 1_555 1_555
C13_5 C15_5 1_555 1_555
C14_5 C11_5 1_555 1_555
C15_5 C14_5 1_555 1_555
H6_5 C15_5 1_555 1_555
C17_5 C12_5 1_555 1_555
H8_5 C17_5 1_555 1_555
C18_5 O8_5 1_555 1_555
O19_5 C19_5 1_555 1_555
C19_5 C13_5 1_555 1_555
C20_5 O10_3 1_555 1_555
O17_3 C18_5 1_555 1_555
C12_5 C18_5 1_555 1_555
C13_5 C17_5 1_555 1_555
C14_5 C20_5 1_555 1_555
O7_6 H21 1_555 1_555
O7_6 H22 1_555 1_555
Zn7 O2_6 1_555 1_555
Zn2_5 O1_6 1_555 1_555
O1_6 C8_6 1_555 1_555
N1_7 Zn2_5 1_555 1_555
O2_6 C9_6 1_555 1_555
O3_4 C10_6 1_555 1_555
O15 C10_6 1_555 1_555
O18_4 C8_6 1_555 1_555
C1_6 H1_6 1_555 1_555
C2_6 C1_6 1_555 1_555
C3_6 C5_6 1_555 1_555
C4_6 C1_6 1_555 1_555
C5_6 C4_6 1_555 1_555
H2_6 C5_6 1_555 1_555
C7_6 C2_6 1_555 1_555
H4_6 C7_6 1_555 1_555
C8_6 C2_6 1_555 1_555
O6_6 C9_6 1_555 1_555
C9_6 C3_6 1_555 1_555
C10_6 C4_6 1_555 1_555
O7_7 Zn2_5 1_555 1_555
Zn8_5 O3_4 1_555 1_555
O11_4 Zn2_5 1_555 1_555
N5_4 N1_7 1_555 1_555
H7_6 C16_6 1_555 1_555
C3_6 C7_6 1_555 1_555
N5_4 C16_6 1_555 1_555
N1_8 Zn2_6 1_555 1_555
N4_4 N1_8 1_555 1_555
C6_6 N4_4 1_555 1_555
H3_6 C6_6 1_555 1_555
O7_8 Zn2_6 1_555 1_555
Zn4 O9_6 1_555 1_555
O8_6 Zn2_6 1_555 1_555
O9_6 C19_6 1_555 1_555
O10_4 Zn8_6 1_555 1_555
O12_4 Zn2_6 1_555 1_555
O14 C20_6 1_555 1_555
C11_6 H5_6 1_555 1_555
C12_6 C11_6 1_555 1_555
C13_6 C15_6 1_555 1_555
C14_6 C11_6 1_555 1_555
C15_6 C14_6 1_555 1_555
H6_6 C15_6 1_555 1_555
C17_6 C12_6 1_555 1_555
H8_6 C17_6 1_555 1_555
C18_6 O8_6 1_555 1_555
O19_6 C19_6 1_555 1_555
C19_6 C13_6 1_555 1_555
C20_6 O10_4 1_555 1_555
O17_4 C18_6 1_555 1_555
C12_6 C18_6 1_555 1_555
C13_6 C17_6 1_555 1_555
C14_6 C20_6 1_555 1_555
O7_8 H21_2 1_555 1_555
O7_8 H22_2 1_555 1_555
Zn6 O2_7 1_555 1_555
Zn8_3 O1_7 1_555 1_555
O1_7 C8_7 1_555 1_555
N1_9 Zn8_3 1_555 1_555
O2_7 C9_7 1_555 1_555
O11_4 C10_7 1_555 1_555
O15_4 C10_7 1_555 1_555
O18_2 C8_7 1_555 1_555
C1_7 H1_7 1_555 1_555
C2_7 C1_7 1_555 1_555
C3_7 C5_7 1_555 1_555
C4_7 C1_7 1_555 1_555
C5_7 C4_7 1_555 1_555
H2_7 C5_7 1_555 1_555
C7_7 C2_7 1_555 1_555
H4_7 C7_7 1_555 1_555
C8_7 C2_7 1_555 1_555
O6_7 C9_7 1_555 1_555
C9_7 C3_7 1_555 1_555
C10_7 C4_7 1_555 1_555
O7_9 Zn8_3 1_555 1_555
N5_2 N1_9 1_555 1_555
H7_7 C16_7 1_555 1_555
C3_7 C7_7 1_555 1_555
N5_2 C16_7 1_555 1_555
N1_10 Zn8_4 1_555 1_555
N4_2 N1_10 1_555 1_555
C6_7 N4_2 1_555 1_555
H3_7 C6_7 1_555 1_555
O7_10 Zn8_4 1_555 1_555
Zn5 O9_7 1_555 1_555
O8_7 Zn8_4 1_555 1_555
O9_7 C19_7 1_555 1_555
O14_4 C20_7 1_555 1_555
C11_7 H5_7 1_555 1_555
C12_7 C11_7 1_555 1_555
C13_7 C15_7 1_555 1_555
C14_7 C11_7 1_555 1_555
C15_7 C14_7 1_555 1_555
H6_7 C15_7 1_555 1_555
C17_7 C12_7 1_555 1_555
H8_7 C17_7 1_555 1_555
C18_7 O8_7 1_555 1_555
O19_7 C19_7 1_555 1_555
C19_7 C13_7 1_555 1_555
C20_7 O12_4 1_555 1_555
O17_2 C18_7 1_555 1_555
C12_7 C18_7 1_555 1_555
C13_7 C17_7 1_555 1_555
C14_7 C20_7 1_555 1_555
O7_10 H21_3 1_555 1_555
O7_10 H22_3 1_555 1_555
Zn6_2 O2_8 1_555 1_555
Zn8_5 O1_8 1_555 1_555
O1_8 C8_8 1_555 1_555
N1_11 Zn8_5 1_555 1_555
O2_8 C9_8 1_555 1_555
O11_3 C10_8 1_555 1_555
O15_3 C10_8 1_555 1_555
O18 C8_8 1_555 1_555
C1_8 H1_8 1_555 1_555
C2_8 C1_8 1_555 1_555
C3_8 C5_8 1_555 1_555
C4_8 C1_8 1_555 1_555
C5_8 C4_8 1_555 1_555
H2_8 C5_8 1_555 1_555
C7_8 C2_8 1_555 1_555
H4_8 C7_8 1_555 1_555
C8_8 C2_8 1_555 1_555
O6_8 C9_8 1_555 1_555
C9_8 C3_8 1_555 1_555
C10_8 C4_8 1_555 1_555
O7_11 Zn8_5 1_555 1_555
N5 N1_11 1_555 1_555
H7_8 C16_8 1_555 1_555
C3_8 C7_8 1_555 1_555
N5 C16_8 1_555 1_555
N1_12 Zn8_6 1_555 1_555
N4 N1_12 1_555 1_555
C6_8 N4 1_555 1_555
H3_8 C6_8 1_555 1_555
O7_12 Zn8_6 1_555 1_555
Zn5_2 O9_8 1_555 1_555
O8_8 Zn8_6 1_555 1_555
O9_8 C19_8 1_555 1_555
O14_3 C20_8 1_555 1_555
C11_8 H5_8 1_555 1_555
C12_8 C11_8 1_555 1_555
C13_8 C15_8 1_555 1_555
C14_8 C11_8 1_555 1_555
C15_8 C14_8 1_555 1_555
H6_8 C15_8 1_555 1_555
C17_8 C12_8 1_555 1_555
H8_8 C17_8 1_555 1_555
C18_8 O8_8 1_555 1_555
O19_8 C19_8 1_555 1_555
C19_8 C13_8 1_555 1_555
C20_8 O12_3 1_555 1_555
O17 C18_8 1_555 1_555
C12_8 C18_8 1_555 1_555
C13_8 C17_8 1_555 1_555
C14_8 C20_8 1_555 1_555
O7_12 H21_4 1_555 1_555
O7_12 H22_4 1_555 1_555
O7_7 H21_5 1_555 1_555
O7_7 H22_5 1_555 1_555
O7_5 H21_6 1_555 1_555
O7_5 H22_6 1_555 1_555
O7_11 H21_7 1_555 1_555
O7_11 H22_7 1_555 1_555
O7_9 H21_8 1_555 1_555
O7_9 H22_8 1_555 1_555
N6 C21 1_555 1_555
C21 H9 1_555 1_555
H10 C21 1_555 1_555
H11 C21 1_555 1_555
C24 N6 1_555 1_555
H18 C24 1_555 1_555
H20 C24 1_555 1_555
C22 N6_2 1_555 1_555
H12 C22 1_555 1_555
H14 C22 1_555 1_555
C23 N6_2 1_555 1_555
H15 C23 1_555 1_555
H16 C23 1_555 1_555
H17 C23 1_555 1_555
C22_2 N6_3 1_555 1_555
H12_2 C22_2 1_555 1_555
H14_2 C22_2 1_555 1_555
C23_2 N6_3 1_555 1_555
H15_2 C23_2 1_555 1_555
H16_2 C23_2 1_555 1_555
H17_2 C23_2 1_555 1_555
N6_4 C21_2 1_555 1_555
C21_2 H9_2 1_555 1_555
H10_2 C21_2 1_555 1_555
H11_2 C21_2 1_555 1_555
C24_2 N6_4 1_555 1_555
H18_2 C24_2 1_555 1_555
H20_2 C24_2 1_555 1_555
N6_5 C21_3 1_555 1_555
C21_3 H9_3 1_555 1_555
H11_3 C21_3 1_555 1_555
C22_3 N6_5 1_555 1_555
H12_3 C22_3 1_555 1_555
H13_3 C22_3 1_555 1_555
H14_3 C22_3 1_555 1_555
C23_3 N6_6 1_555 1_555
H15_3 C23_3 1_555 1_555
H17_3 C23_3 1_555 1_555
C24_3 N6_6 1_555 1_555
H18_3 C24_3 1_555 1_555
H19_3 C24_3 1_555 1_555
H20_3 C24_3 1_555 1_555
N6_7 C21_4 1_555 1_555
C21_4 H9_4 1_555 1_555
H11_4 C21_4 1_555 1_555
C22_4 N6_7 1_555 1_555
H12_4 C22_4 1_555 1_555
H13_4 C22_4 1_555 1_555
H14_4 C22_4 1_555 1_555
C23_4 N6_8 1_555 1_555
H15_4 C23_4 1_555 1_555
H17_4 C23_4 1_555 1_555
C24_4 N6_8 1_555 1_555
H18_4 C24_4 1_555 1_555
H19_4 C24_4 1_555 1_555
H20_4 C24_4 1_555 1_555
C22_5 N6_9 1_555 1_555
H12_5 C22_5 1_555 1_555
H14_5 C22_5 1_555 1_555
C23_5 N6_9 1_555 1_555
H15_5 C23_5 1_555 1_555
H16_5 C23_5 1_555 1_555
H17_5 C23_5 1_555 1_555
N6_10 C21_5 1_555 1_555
C21_5 H9_5 1_555 1_555
H10_5 C21_5 1_555 1_555
H11_5 C21_5 1_555 1_555
C24_5 N6_10 1_555 1_555
H18_5 C24_5 1_555 1_555
H20_5 C24_5 1_555 1_555
N6_11 C21_6 1_555 1_555
C21_6 H9_6 1_555 1_555
H10_6 C21_6 1_555 1_555
H11_6 C21_6 1_555 1_555
C24_6 N6_11 1_555 1_555
H18_6 C24_6 1_555 1_555
H20_6 C24_6 1_555 1_555
C22_6 N6_12 1_555 1_555
H12_6 C22_6 1_555 1_555
H14_6 C22_6 1_555 1_555
C23_6 N6_12 1_555 1_555
H15_6 C23_6 1_555 1_555
H16_6 C23_6 1_555 1_555
H17_6 C23_6 1_555 1_555
C23_7 N6_13 1_555 1_555
H15_7 C23_7 1_555 1_555
H17_7 C23_7 1_555 1_555
C24_7 N6_13 1_555 1_555
H18_7 C24_7 1_555 1_555
H19_7 C24_7 1_555 1_555
H20_7 C24_7 1_555 1_555
N6_14 C21_7 1_555 1_555
C21_7 H9_7 1_555 1_555
H11_7 C21_7 1_555 1_555
C22_7 N6_14 1_555 1_555
H12_7 C22_7 1_555 1_555
H13_7 C22_7 1_555 1_555
H14_7 C22_7 1_555 1_555
C23_8 N6_15 1_555 1_555
H15_8 C23_8 1_555 1_555
H17_8 C23_8 1_555 1_555
C24_8 N6_15 1_555 1_555
H18_8 C24_8 1_555 1_555
H19_8 C24_8 1_555 1_555
H20_8 C24_8 1_555 1_555
N6_16 C21_8 1_555 1_555
C21_8 H9_8 1_555 1_555
H11_8 C21_8 1_555 1_555
C22_8 N6_16 1_555 1_555
H12_8 C22_8 1_555 1_555
H13_8 C22_8 1_555 1_555
H14_8 C22_8 1_555 1_555

#END
