
###############################################################################
#
# This file contains modified crystal structure data generated from the
# MOF subset of the Cambridge Structural Database (CSD) v543 
# hosted by the Cambridge Crystallographic Data Centre (CCDC).
#
# This work is licensed under the Creative Commons
# Attribution-NonCommercial-ShareAlike 4.0 International License.
# To view a copy of this license, visit
# http://creativecommons.org/licenses/by-nc-sa/4.0/
# or send a letter to
# Creative Commons, PO Box 1866, Mountain View, CA 94042, USA.
#
# CIF created using the CSD Python API on 29 September 2022
# The structure has been converted into the P1 space group
# The structure has a 3D framework
# The original CSD entry ZASJAG is in the monoclinic crystal system
# The framework has been calculated to contain at least 10.0% void space
# The void calculation uses a probe of radius 1.32A, grid spacing 0.4
#
###############################################################################

data_ZASJAG
_chemical_formula_moiety         '(C96 H56 Cd2 N8 O10)n'
_symmetry_cell_setting           triclinic
_symmetry_space_group_name_H-M   'P 1'
_symmetry_Int_Tables_number      1
_space_group_name_Hall           'P 1'
loop_
_symmetry_equiv_pos_site_id
_symmetry_equiv_pos_as_xyz
1 x,y,z
_cell_length_a                   25.107(5)
_cell_length_b                   15.411(5)
_cell_length_c                   7.544(5)
_cell_angle_alpha                90
_cell_angle_beta                 106.999(5)
_cell_angle_gamma                90
_cell_volume                     2791.42
loop_
_atom_site_label
_atom_site_type_symbol
_atom_site_fract_x
_atom_site_fract_y
_atom_site_fract_z
Cd1 Cd 0.89314(6) 0.02576(3) 0.24843(8)
O5 O 0.8269(4) 0.0584(5) 0.4173(11)
O6 O 0.9494(3) 0.0101(5) 0.0422(11)
O8 O 0.9666(4) 0.1207(6) 0.4467(12)
N3 N 0.8544(4) 0.1420(6) 0.0884(10)
O1 O 0.8733(4) 0.8875(4) 0.1943(9)
C1 C 0.8418(5) 0.8788(7) 0.0357(16)
C3 C 0.8545(6) 0.7185(8) 0.0478(17)
H1 H 0.8882 0.7271 0.1386
H2 H 0.8596 0.5861 0.0413
C12 C 0.8539(5) 0.2964(7) 0.0360(18)
H6 H 0.8730 0.3487 0.0624
C13 C 0.8789(5) 0.2192(6) 0.1206(15)
H7 H 0.9146 0.2224 0.2033
O7 O 0.9494(3) 0.9899(5) 0.5422(11)
O2 O 0.8269(4) 0.9416(5) 0.9173(11)
O3 O 0.4494(3) 0.5101(5) 0.0422(11)
N1 N 0.7146(4) 0.5239(5) 0.6731(11)
C2 C 0.8227(5) 0.7882(6) 0.9719(16)
C4 C 0.8369(5) 0.6330(6) 0.9905(14)
C5 C 0.7860(5) 0.6191(7) 0.8590(14)
C6 C 0.7706(5) 0.7745(6) 0.8373(15)
H3 H 0.7482 0.8215 0.7859
C7 C 0.7536(5) 0.6917(7) 0.7832(15)
H4 H 0.7195 0.6833 0.6937
C8 C 0.7653(5) 0.5295(6) 0.8006(12)
C9 C 0.7942(5) 0.4555(7) 0.8798(14)
H5 H 0.8286 0.4608 0.9690
C10 C 0.7721(4) 0.3743(6) 0.8271(12)
C11 C 0.8008(4) 0.2942(6) 0.9137(13)
C14 C 0.8039(6) 0.1406(8) 0.968(2)
H8 H 0.7857 0.0875 0.9415
C15 C 0.7771(5) 0.2127(6) 0.8802(16)
H9 H 0.7419 0.2068 0.7958
C16 C 0.7205(4) 0.3704(6) 0.6972(12)
H10 H 0.7038 0.3167 0.6622
C17 C 0.6934(5) 0.4449(7) 0.6184(13)
C18 C 0.6386(4) 0.4437(7) 0.4734(13)
C19 C 0.6175(6) 0.3644(7) 0.3915(17)
H11 H 0.6378 0.3133 0.4229
C20 C 0.5638(6) 0.3648(7) 0.2582(16)
H12 H 0.5483 0.3128 0.2045
C21 C 0.5341(5) 0.4419(7) 0.2072(14)
C22 C 0.5575(5) 0.5185(6) 0.2849(14)
H13 H 0.5383 0.5704 0.2502
C23 C 0.6107(5) 0.5191(6) 0.4176(16)
H14 H 0.6266 0.5716 0.4670
C24 C 0.4797(5) 0.4424(8) 0.0565(17)
Cd2 Cd 0.89314(6) 0.97424(3) 0.74843(8)
Cd3 Cd 0.39314(6) 0.52576(3) 0.24843(8)
O4 O 0.4666(4) 0.3793(6) 0.9467(12)
Cd4 Cd 0.39314(6) 0.47424(3) 0.74843(8)
O1_2 O 0.8733(4) 0.1125(4) 0.6943(9)
N1_2 N 0.7146(4) 0.4761(5) 0.1731(11)
N2 N 0.8544(4) 0.8580(6) 0.5884(10)
C1_2 C 0.8418(5) 0.1212(7) 0.5357(16)
C2_2 C 0.8227(5) 0.2118(6) 0.4719(16)
C3_2 C 0.8545(6) 0.2815(8) 0.5478(17)
H1_2 H 0.8882 0.2729 0.6386
C4_2 C 0.8369(5) 0.3670(6) 0.4905(14)
H2_2 H 0.8596 0.4139 0.5413
C5_2 C 0.7860(5) 0.3809(7) 0.3590(14)
C6_2 C 0.7706(5) 0.2255(6) 0.3373(15)
H3_2 H 0.7482 0.1785 0.2859
C7_2 C 0.7536(5) 0.3083(7) 0.2832(15)
H4_2 H 0.7195 0.3167 0.1937
C8_2 C 0.7653(5) 0.4705(6) 0.3006(12)
C9_2 C 0.7942(5) 0.5445(7) 0.3798(14)
H5_2 H 0.8286 0.5392 0.4690
C10_2 C 0.7721(4) 0.6257(6) 0.3271(12)
C11_2 C 0.8008(4) 0.7058(6) 0.4137(13)
C12_2 C 0.8539(5) 0.7036(7) 0.5360(18)
H6_2 H 0.8730 0.6513 0.5624
C13_2 C 0.8789(5) 0.7808(6) 0.6206(15)
H7_2 H 0.9146 0.7776 0.7033
C14_2 C 0.8039(6) 0.8594(8) 0.468(2)
H8_2 H 0.7857 0.9125 0.4415
C15_2 C 0.7771(5) 0.7873(6) 0.3802(16)
H9_2 H 0.7419 0.7932 0.2958
C16_2 C 0.7205(4) 0.6296(6) 0.1972(12)
H10_2 H 0.7038 0.6833 0.1622
C17_2 C 0.6934(5) 0.5551(7) 0.1184(13)
O3_2 O 0.4494(3) 0.4899(5) 0.5422(11)
O4_2 O 0.4666(4) 0.6207(6) 0.4467(12)
C18_2 C 0.6386(4) 0.5563(7) 0.9734(13)
C19_2 C 0.6175(6) 0.6356(7) 0.8915(17)
H11_2 H 0.6378 0.6867 0.9229
C20_2 C 0.5638(6) 0.6352(7) 0.7582(16)
H12_2 H 0.5483 0.6872 0.7045
C21_2 C 0.5341(5) 0.5581(7) 0.7072(14)
C22_2 C 0.5575(5) 0.4815(6) 0.7849(14)
H13_2 H 0.5383 0.4296 0.7502
C23_2 C 0.6107(5) 0.4809(6) 0.9176(16)
H14_2 H 0.6266 0.4284 0.9670
C24_2 C 0.4797(5) 0.5576(8) 0.5565(17)
O8_2 O 0.9666(4) 0.8793(6) 0.9467(12)
O1_3 O 0.3733(4) 0.3875(4) 0.1943(9)
C1_3 C 0.3418(5) 0.3788(7) 0.0357(16)
C3_3 C 0.3545(6) 0.2185(8) 0.0478(17)
H1_3 H 0.3882 0.2271 0.1386
H2_3 H 0.3596 0.0861 0.0413
O5_2 O 0.3269(4) 0.5584(5) 0.4173(11)
N3_2 N 0.3544(4) 0.6420(6) 0.0884(10)
O2_2 O 0.3269(4) 0.4416(5) 0.9173(11)
N1_3 N 0.2146(4) 0.0239(5) 0.6731(11)
C2_3 C 0.3227(5) 0.2882(6) 0.9719(16)
C4_3 C 0.3369(5) 0.1330(6) 0.9905(14)
C5_3 C 0.2860(5) 0.1191(7) 0.8590(14)
C6_3 C 0.2706(5) 0.2745(6) 0.8373(15)
H3_3 H 0.2482 0.3215 0.7859
C7_3 C 0.2536(5) 0.1917(7) 0.7832(15)
H4_3 H 0.2195 0.1833 0.6937
C8_3 C 0.2653(5) 0.0295(6) 0.8006(12)
C22_3 C 0.0575(5) 0.0185(6) 0.2849(14)
H13_3 H 0.0383 0.0704 0.2502
C23_3 C 0.1107(5) 0.0191(6) 0.4176(16)
H14_3 H 0.1266 0.0716 0.4670
C12_3 C 0.3539(5) 0.7964(7) 0.0360(18)
H6_3 H 0.3730 0.8487 0.0624
C13_3 C 0.3789(5) 0.7192(6) 0.1206(15)
H7_3 H 0.4146 0.7224 0.2033
N2_2 N 0.3544(4) 0.3580(6) 0.5884(10)
C9_3 C 0.2942(5) 0.0445(7) 0.3798(14)
H5_3 H 0.3286 0.0392 0.4690
C10_3 C 0.2721(4) 0.1257(6) 0.3271(12)
C11_3 C 0.3008(4) 0.2058(6) 0.4137(13)
C12_4 C 0.3539(5) 0.2036(7) 0.5360(18)
H6_4 H 0.3730 0.1513 0.5624
C13_4 C 0.3789(5) 0.2808(6) 0.6206(15)
H7_4 H 0.4146 0.2776 0.7033
C14_3 C 0.3039(6) 0.3594(8) 0.468(2)
H8_3 H 0.2857 0.4125 0.4415
C15_3 C 0.2771(5) 0.2873(6) 0.3802(16)
H9_3 H 0.2419 0.2932 0.2958
C16_3 C 0.2205(4) 0.1296(6) 0.1972(12)
H10_3 H 0.2038 0.1833 0.1622
C17_3 C 0.1934(5) 0.0551(7) 0.1184(13)
O1_4 O 0.3733(4) 0.6125(4) 0.6943(9)
N1_4 N 0.2146(4) 0.9761(5) 0.1731(11)
C1_4 C 0.3418(5) 0.6212(7) 0.5357(16)
C2_4 C 0.3227(5) 0.7118(6) 0.4719(16)
C3_4 C 0.3545(6) 0.7815(8) 0.5478(17)
H1_4 H 0.3882 0.7729 0.6386
C4_4 C 0.3369(5) 0.8670(6) 0.4905(14)
H2_4 H 0.3596 0.9139 0.5413
C5_4 C 0.2860(5) 0.8809(7) 0.3590(14)
C6_4 C 0.2706(5) 0.7255(6) 0.3373(15)
H3_4 H 0.2482 0.6785 0.2859
C7_4 C 0.2536(5) 0.8083(7) 0.2832(15)
H4_4 H 0.2195 0.8167 0.1937
C8_4 C 0.2653(5) 0.9705(6) 0.3006(12)
C24_3 C 0.9797(5) 0.0576(8) 0.5565(17)
C9_4 C 0.2942(5) 0.9555(7) 0.8798(14)
H5_4 H 0.3286 0.9608 0.9690
C10_4 C 0.2721(4) 0.8743(6) 0.8271(12)
C11_4 C 0.3008(4) 0.7942(6) 0.9137(13)
C14_4 C 0.3039(6) 0.6406(8) 0.968(2)
H8_4 H 0.2857 0.5875 0.9415
C15_4 C 0.2771(5) 0.7127(6) 0.8802(16)
H9_4 H 0.2419 0.7068 0.7958
C16_4 C 0.2205(4) 0.8704(6) 0.6972(12)
H10_4 H 0.2038 0.8167 0.6622
C17_4 C 0.1934(5) 0.9449(7) 0.6184(13)
C18_3 C 0.1386(4) 0.9437(7) 0.4734(13)
C19_3 C 0.1175(6) 0.8644(7) 0.3915(17)
H11_3 H 0.1378 0.8133 0.4229
C20_3 C 0.0638(6) 0.8648(7) 0.2582(16)
H12_3 H 0.0483 0.8128 0.2045
C21_3 C 0.0341(5) 0.9419(7) 0.2072(14)
C24_4 C 0.9797(5) 0.9424(8) 0.0565(17)
C18_4 C 0.1386(4) 0.0563(7) 0.9734(13)
C19_4 C 0.1175(6) 0.1356(7) 0.8915(17)
H11_4 H 0.1378 0.1867 0.9229
C20_4 C 0.0638(6) 0.1352(7) 0.7582(16)
H12_4 H 0.0483 0.1872 0.7045
C21_4 C 0.0341(5) 0.0581(7) 0.7072(14)
C22_4 C 0.0575(5) 0.9815(6) 0.7849(14)
H13_4 H 0.0383 0.9296 0.7502
C23_4 C 0.1107(5) 0.9809(6) 0.9176(16)
H14_4 H 0.1266 0.9284 0.9670
loop_
_geom_bond_atom_site_label_1
_geom_bond_atom_site_label_2
_geom_bond_site_symmetry_1
_geom_bond_site_symmetry_2
O5 Cd1 1_555 1_555
O6 Cd1 1_555 1_555
O8 Cd1 1_555 1_555
N3 Cd1 1_555 1_555
O1 C1 1_555 1_555
N3 C13 1_555 1_555
C3 H1 1_555 1_555
H6 C12 1_555 1_555
C13 C12 1_555 1_555
H7 C13 1_555 1_555
O3 C24 1_555 1_555
N1 C8 1_555 1_555
C5 C4 1_555 1_555
C6 C2 1_555 1_555
H3 C6 1_555 1_555
C7 C5 1_555 1_555
H4 C7 1_555 1_555
C8 C5 1_555 1_555
C9 C8 1_555 1_555
H5 C9 1_555 1_555
C10 C9 1_555 1_555
C11 C10 1_555 1_555
H8 C14 1_555 1_555
C15 C11 1_555 1_555
H9 C15 1_555 1_555
C16 C10 1_555 1_555
H10 C16 1_555 1_555
C17 N1 1_555 1_555
C18 C17 1_555 1_555
C19 C18 1_555 1_555
H11 C19 1_555 1_555
C20 C19 1_555 1_555
H12 C20 1_555 1_555
C21 C20 1_555 1_555
C22 C21 1_555 1_555
H13 C22 1_555 1_555
C23 C18 1_555 1_555
H14 C23 1_555 1_555
C24 C21 1_555 1_555
Cd2 O2 1_555 1_555
Cd3 O3 1_555 1_555
C6 C7 1_555 1_555
C14 C15 1_555 1_555
C16 C17 1_555 1_555
C22 C23 1_555 1_555
O4 Cd4 1_555 1_555
O1_2 C1_2 1_555 1_555
O5 C1_2 1_555 1_555
N1_2 C8_2 1_555 1_555
N2 C13_2 1_555 1_555
C1_2 C2_2 1_555 1_555
C2_2 C3_2 1_555 1_555
C3_2 H1_2 1_555 1_555
C4_2 C3_2 1_555 1_555
H2_2 C4_2 1_555 1_555
C5_2 C4_2 1_555 1_555
C6_2 C2_2 1_555 1_555
H3_2 C6_2 1_555 1_555
C7_2 C5_2 1_555 1_555
H4_2 C7_2 1_555 1_555
C8_2 C5_2 1_555 1_555
C9_2 C8_2 1_555 1_555
H5_2 C9_2 1_555 1_555
C10_2 C9_2 1_555 1_555
C11_2 C10_2 1_555 1_555
C12_2 C11_2 1_555 1_555
H6_2 C12_2 1_555 1_555
C13_2 C12_2 1_555 1_555
H7_2 C13_2 1_555 1_555
C14_2 N2 1_555 1_555
H8_2 C14_2 1_555 1_555
C15_2 C11_2 1_555 1_555
H9_2 C15_2 1_555 1_555
C16_2 C10_2 1_555 1_555
H10_2 C16_2 1_555 1_555
C17_2 N1_2 1_555 1_555
Cd2 N2 1_555 1_555
C6_2 C7_2 1_555 1_555
C14_2 C15_2 1_555 1_555
C16_2 C17_2 1_555 1_555
O3_2 C24_2 1_555 1_555
O4_2 C24_2 1_555 1_555
C19_2 C18_2 1_555 1_555
H11_2 C19_2 1_555 1_555
C20_2 C19_2 1_555 1_555
H12_2 C20_2 1_555 1_555
C21_2 C20_2 1_555 1_555
C22_2 C21_2 1_555 1_555
H13_2 C22_2 1_555 1_555
C23_2 C18_2 1_555 1_555
H14_2 C23_2 1_555 1_555
C24_2 C21_2 1_555 1_555
Cd4 O3_2 1_555 1_555
Cd3 O3_2 1_555 1_555
O4_2 Cd3 1_555 1_555
C22_2 C23_2 1_555 1_555
O7 Cd2 1_555 1_555
O8_2 Cd2 1_555 1_555
Cd3 O1_3 1_555 1_555
O1_3 C1_3 1_555 1_555
C3_3 H1_3 1_555 1_555
O5_2 Cd3 1_555 1_555
N3_2 Cd3 1_555 1_555
N1_3 C8_3 1_555 1_555
C5_3 C4_3 1_555 1_555
C6_3 C2_3 1_555 1_555
H3_3 C6_3 1_555 1_555
C7_3 C5_3 1_555 1_555
H4_3 C7_3 1_555 1_555
C8_3 C5_3 1_555 1_555
H13_3 C22_3 1_555 1_555
H14_3 C23_3 1_555 1_555
Cd4 O2_2 1_555 1_555
C6_3 C7_3 1_555 1_555
C22_3 C23_3 1_555 1_555
N3_2 C13_3 1_555 1_555
H6_3 C12_3 1_555 1_555
C13_3 C12_3 1_555 1_555
H7_3 C13_3 1_555 1_555
N2_2 C13_4 1_555 1_555
H5_3 C9_3 1_555 1_555
C10_3 C9_3 1_555 1_555
C11_3 C10_3 1_555 1_555
C12_4 C11_3 1_555 1_555
H6_4 C12_4 1_555 1_555
C13_4 C12_4 1_555 1_555
H7_4 C13_4 1_555 1_555
C14_3 N2_2 1_555 1_555
H8_3 C14_3 1_555 1_555
C15_3 C11_3 1_555 1_555
H9_3 C15_3 1_555 1_555
C16_3 C10_3 1_555 1_555
H10_3 C16_3 1_555 1_555
Cd4 N2_2 1_555 1_555
C14_3 C15_3 1_555 1_555
C16_3 C17_3 1_555 1_555
Cd4 O1_4 1_555 1_555
O1_4 C1_4 1_555 1_555
O5_2 C1_4 1_555 1_555
N1_4 C8_4 1_555 1_555
C1_4 C2_4 1_555 1_555
C2_4 C3_4 1_555 1_555
C3_4 H1_4 1_555 1_555
C4_4 C3_4 1_555 1_555
H2_4 C4_4 1_555 1_555
C5_4 C4_4 1_555 1_555
C6_4 C2_4 1_555 1_555
H3_4 C6_4 1_555 1_555
C7_4 C5_4 1_555 1_555
H4_4 C7_4 1_555 1_555
C8_4 C5_4 1_555 1_555
C6_4 C7_4 1_555 1_555
O8 C24_3 1_555 1_555
H5_4 C9_4 1_555 1_555
C10_4 C9_4 1_555 1_555
C11_4 C10_4 1_555 1_555
H8_4 C14_4 1_555 1_555
C15_4 C11_4 1_555 1_555
H9_4 C15_4 1_555 1_555
C16_4 C10_4 1_555 1_555
H10_4 C16_4 1_555 1_555
C18_3 C17_4 1_555 1_555
C19_3 C18_3 1_555 1_555
H11_3 C19_3 1_555 1_555
C20_3 C19_3 1_555 1_555
H12_3 C20_3 1_555 1_555
C21_3 C20_3 1_555 1_555
C14_4 C15_4 1_555 1_555
C16_4 C17_4 1_555 1_555
C19_4 C18_4 1_555 1_555
H11_4 C19_4 1_555 1_555
C20_4 C19_4 1_555 1_555
H12_4 C20_4 1_555 1_555
C21_4 C20_4 1_555 1_555
H13_4 C22_4 1_555 1_555
H14_4 C23_4 1_555 1_555
C22_4 C23_4 1_555 1_555

#END
