
###############################################################################
#
# This file contains modified crystal structure data generated from the
# MOF subset of the Cambridge Structural Database (CSD) v543 
# hosted by the Cambridge Crystallographic Data Centre (CCDC).
#
# This work is licensed under the Creative Commons
# Attribution-NonCommercial-ShareAlike 4.0 International License.
# To view a copy of this license, visit
# http://creativecommons.org/licenses/by-nc-sa/4.0/
# or send a letter to
# Creative Commons, PO Box 1866, Mountain View, CA 94042, USA.
#
# CIF created using the CSD Python API on 29 September 2022
# The structure has been converted into the P1 space group
# The structure has a 3D framework
# The original CSD entry ZATPOC is in the tetragonal crystal system
# The framework has been calculated to contain at least 10.0% void space
# The void calculation uses a probe of radius 1.32A, grid spacing 0.4
# H atom positions have been added when not included in the experimental data
#
###############################################################################

data_ZATPOC
_chemical_formula_moiety         '(C192 H288 N96 O128 S32 Zr30)n'
_symmetry_cell_setting           triclinic
_symmetry_space_group_name_H-M   'P 1'
_symmetry_Int_Tables_number      1
_space_group_name_Hall           'P 1'
loop_
_symmetry_equiv_pos_site_id
_symmetry_equiv_pos_as_xyz
1 x,y,z
_cell_length_a                   26.10839(28)
_cell_length_b                   26.10839(28)
_cell_length_c                   14.36847(31)
_cell_angle_alpha                90
_cell_angle_beta                 90
_cell_angle_gamma                90
_cell_volume                     9794.24
loop_
_atom_site_label
_atom_site_type_symbol
_atom_site_fract_x
_atom_site_fract_y
_atom_site_fract_z
O18 O 0.02362(33) 0.65385(36) 0.2584(17)
O21 O 0.02812(49) 0.55706(48) 0.33460(83)
O26 O 0.02682(44) 0.55036(47) 0.17572(84)
O1 O 0.52450(61) 0.57147(36) 0.25559(66)
O2 O 0.88435(33) 0.59812(33) 0.2440(16)
O3 O 0.84615(36) 0.52362(33) 0.2416(17)
O4 O 0.53708(79) 0.62350(36) 0.36219(66)
C1 C 0.631092 0.694386 0.250855
N1 N 0.648346 0.644304 0.261782
N2 N 0.700579 0.634399 0.268947
C2 C 0.735559 0.674575 0.265184
N3 N 0.718306 0.724657 0.254257
N4 N 0.666072 0.734562 0.247092
S1 S 0.567293 0.706485 0.242104
S2 S 0.799359 0.662476 0.273935
C3 C 0.53851(57) 0.61197(50) 0.27650(99)
C4 C 0.52902(61) 0.65467(47) 0.21316(99)
C5 C 0.79166(51) 0.59401(47) 0.2812(21)
C6 C 0.84451(48) 0.57060(49) 0.2626(16)
Zr1 Zr 0.96976(14) 0.59356(12) 0.25061(33)
Zr2 Zr 0.500 0.500 0.32295(33)
O5 O 0.943781 0.639346 0.132835
C7 C 0.961930 0.680021 0.092390
N5 N 0.938863 0.698986 0.019991
H1 H 0.992999 0.696388 0.116480
O6 O 0.47188(49) 0.55706(48) 0.41540(83)
O7 O 0.44964(47) 0.47318(44) 0.42572(84)
O8 O 0.554790 0.48198 0.202413
C10 C 0.549577 0.478169 0.112702
N6 N 0.572420 0.441453 0.067846
C12 C 0.600477 0.408548 0.112702
H2 H 0.528426 0.502974 0.078887
O9 O 0.47550(61) 0.42853(36) 0.25559(66)
O10 O 0.11565(33) 0.40188(33) 0.2440(16)
O11 O 0.15385(36) 0.47638(33) 0.2416(17)
O12 O 0.46292(79) 0.37650(36) 0.36219(66)
C13 C 0.368908 0.305614 0.250855
N7 N 0.351654 0.355696 0.261782
N8 N 0.299421 0.365601 0.268947
C14 C 0.264441 0.325425 0.265184
N9 N 0.281694 0.275343 0.254257
N10 N 0.333928 0.265438 0.247092
S3 S 0.432707 0.293515 0.242104
S4 S 0.200641 0.337524 0.273935
C15 C 0.46149(57) 0.38803(50) 0.27650(99)
C16 C 0.47098(61) 0.34533(47) 0.21316(99)
C17 C 0.20834(51) 0.40599(47) 0.2812(21)
C18 C 0.15549(48) 0.42940(49) 0.2626(16)
O13 O 0.445210 0.51802 0.202413
C19 C 0.450423 0.521831 0.112702
N11 N 0.427580 0.558547 0.067846
C21 C 0.399523 0.591452 0.112702
H3 H 0.471574 0.497026 0.078887
O14 O 0.52812(49) 0.44294(48) 0.41540(83)
O15 O 0.55036(47) 0.52682(44) 0.42572(84)
Zr3 Zr 0.03024(14) 0.40644(12) 0.25061(33)
O16 O 0.056219 0.360654 0.132835
C22 C 0.038070 0.319979 0.092390
N12 N 0.061137 0.301014 0.019991
H4 H 0.007001 0.303612 0.116480
O19 O 0.96292(79) 0.62350(36) 0.38781(66)
O20 O 0.03708(79) 0.37650(36) 0.38781(66)
Zr4 Zr 0.53024(14) 0.59356(12) 0.49939(33)
Zr5 Zr 0.40644(12) 0.53024(14) 0.50061(33)
Zr6 Zr 0.90644(12) 0.46976(14) 0.24939(33)
Zr7 Zr 0.59356(12) 0.46976(14) 0.50061(33)
Zr8 Zr 0.09356(12) 0.53024(14) 0.24939(33)
Zr9 Zr 0.46976(14) 0.40644(12) 0.49939(33)
O22 O 0.94294(48) 0.52812(49) 0.16540(83)
O23 O 0.05706(48) 0.47188(49) 0.16540(83)
O25 O 0.05036(47) 0.47318(44) 0.32428(84)
O28 O 0.94964(47) 0.52682(44) 0.32428(84)
H5 H 0.577031 0.38867 0.163934
H6 H 0.61635 0.38088 0.0638666
H7 H 0.631552 0.42853 0.147881
H8 H 0.764314 0.5809 0.229164
H9 H 0.778249 0.583224 0.350239
H10 H 0.537613 0.642721 0.142244
H11 H 0.488929 0.665884 0.217883
H12 H 0.868251 0.677227 0.0418018
H20 H 0.957725 0.771259 0.0290059
H21 H 0.235686 0.4191 0.229164
H22 H 0.221751 0.416776 0.350239
H25 H 0.0422752 0.228741 0.0290059
H26 H 0.422969 0.61133 0.163934
H27 H 0.38365 0.61912 0.0638666
H28 H 0.368448 0.57147 0.147881
H32 H 0.462387 0.357279 0.142244
H33 H 0.511071 0.334116 0.217883
H34 H 0.131749 0.322773 0.0418018
O17 O 0.97638(33) 0.34615(36) 0.2584(17)
O24 O 0.97188(49) 0.44294(48) 0.33460(83)
O27 O 0.97318(44) 0.44964(47) 0.17572(84)
O27_2 O 0.02682(44) 0.94964(47) 0.07428(84)
O17_2 O 0.02362(33) 0.84615(36) 0.9916(17)
O24_2 O 0.02812(49) 0.94294(48) 0.91540(83)
O2_2 O 0.11565(33) 0.09812(33) 0.0060(16)
O3_2 O 0.15385(36) 0.02362(33) 0.0084(17)
N4_2 N 0.333928 0.234562 0.002908
S1_2 S 0.432707 0.206485 0.007896
C4_2 C 0.47098(61) 0.15467(47) 0.03684(99)
O5_2 O 0.056219 0.139346 0.117165
C7_2 C 0.038070 0.180021 0.157610
N5_2 N 0.061137 0.198986 0.230009
C8 C 0.042988 0.239662 0.270454
C9 C 0.102351 0.177275 0.261964
H1_2 H 0.007001 0.196388 0.133520
H2_2 H 0.471574 0.002974 0.171113
O13_2 O 0.554790 0.01802 0.047587
C19_2 C 0.549577 0.021831 0.137298
N11_2 N 0.572420 0.058547 0.182154
C20 C 0.567207 0.062359 0.271866
C21_2 C 0.600477 0.091452 0.137298
Zr8_2 Zr 0.90644(12) 0.03024(14) 0.00061(33)
O22_2 O 0.05706(48) 0.02812(49) 0.08460(83)
H8_2 H 0.235686 0.0808997 0.020836
H10_2 H 0.462387 0.142721 0.107756
H11_2 H 0.511071 0.165884 0.0321168
H12_2 H 0.131749 0.177227 0.208198
H13 H 0.116102 0.198408 0.322341
H14 H 0.0937264 0.138002 0.282122
H18 H 0.00425408 0.232032 0.294917
H19 H 0.0672317 0.249768 0.329331
H20_2 H 0.0422752 0.271259 0.220994
H26_2 H 0.577031 0.11133 0.0860663
H27_2 H 0.61635 0.11912 0.186133
H28_2 H 0.631552 0.0714699 0.102119
H29 H 0.581407 0.0276204 0.304943
H30 H 0.588961 0.0951693 0.296915
H31 H 0.526886 0.0674806 0.288891
O1_2 O 0.47550(61) 0.07147(36) 0.99441(66)
O4_2 O 0.46292(79) 0.12350(36) 0.88781(66)
C1_2 C 0.368908 0.194386 0.999145
N1_2 N 0.351654 0.144304 0.988218
N2_2 N 0.299421 0.134399 0.981053
C2_2 C 0.264441 0.174575 0.984816
N3_2 N 0.281694 0.224657 0.995743
S2_2 S 0.200641 0.162476 0.976065
C3_2 C 0.46149(57) 0.11197(50) 0.97350(99)
C5_2 C 0.20834(51) 0.09401(47) 0.9688(21)
C6_2 C 0.15549(48) 0.07060(49) 0.9874(16)
Zr1_2 Zr 0.03024(14) 0.09356(12) 0.99939(33)
Zr2_2 Zr 0.500 0.000 0.92705(33)
O6_2 O 0.52812(49) 0.05706(48) 0.83460(83)
O15_2 O 0.44964(47) 0.02682(44) 0.82428(84)
O19_2 O 0.03708(79) 0.12350(36) 0.86219(66)
Zr4_2 Zr 0.46976(14) 0.09356(12) 0.75061(33)
Zr5_2 Zr 0.59356(12) 0.03024(14) 0.74939(33)
O28_2 O 0.05036(47) 0.02682(44) 0.92572(84)
H9_2 H 0.221751 0.0832239 0.899761
O8_2 O 0.445210 0.98198 0.047587
C10_2 C 0.450423 0.978169 0.137298
N6_2 N 0.427580 0.941453 0.182154
C11 C 0.432793 0.937641 0.271866
C12_2 C 0.399523 0.908548 0.137298
O10_2 O 0.88435(33) 0.90188(33) 0.0060(16)
O11_2 O 0.84615(36) 0.97638(33) 0.0084(17)
N10_2 N 0.666072 0.765438 0.002908
S3_2 S 0.567293 0.793515 0.007896
C16_2 C 0.52902(61) 0.84533(47) 0.03684(99)
H3_2 H 0.528426 0.997026 0.171113
O16_2 O 0.943781 0.860654 0.117165
C22_2 C 0.961930 0.819979 0.157610
N12_2 N 0.938863 0.801014 0.230009
C23 C 0.957012 0.760338 0.270454
C24 C 0.897649 0.822725 0.261964
H4_2 H 0.992999 0.803612 0.133520
Zr6_2 Zr 0.09356(12) 0.96976(14) 0.00061(33)
O23_2 O 0.94294(48) 0.97188(49) 0.08460(83)
H5_2 H 0.422969 0.88867 0.0860663
H6_2 H 0.38365 0.88088 0.186133
H7_2 H 0.368448 0.92853 0.102119
H15 H 0.418593 0.97238 0.304943
H16 H 0.411039 0.904831 0.296915
H17 H 0.473114 0.932519 0.288891
H21_2 H 0.764314 0.9191 0.020836
H23 H 0.995746 0.767968 0.294917
H24 H 0.932768 0.750232 0.329331
H25_2 H 0.957725 0.728741 0.220994
H32_2 H 0.537613 0.857279 0.107756
H33_2 H 0.488929 0.834116 0.0321168
H34_2 H 0.868251 0.822773 0.208198
H35 H 0.883898 0.801592 0.322341
H36 H 0.906274 0.861998 0.282122
Zr2_3 Zr 0.500 1.000 0.92705(33)
O7_2 O 0.55036(47) 0.97318(44) 0.82428(84)
O9_2 O 0.52450(61) 0.92853(36) 0.99441(66)
O12_2 O 0.53708(79) 0.87650(36) 0.88781(66)
C13_2 C 0.631092 0.805614 0.999145
N7_2 N 0.648346 0.855696 0.988218
N8_2 N 0.700579 0.865601 0.981053
C14_2 C 0.735559 0.825425 0.984816
N9_2 N 0.718306 0.775343 0.995743
S4_2 S 0.799359 0.837524 0.976065
C15_2 C 0.53851(57) 0.88803(50) 0.97350(99)
C17_2 C 0.79166(51) 0.90599(47) 0.9688(21)
C18_2 C 0.84451(48) 0.92940(49) 0.9874(16)
O14_2 O 0.47188(49) 0.94294(48) 0.83460(83)
Zr3_2 Zr 0.96976(14) 0.90644(12) 0.99939(33)
O20_2 O 0.96292(79) 0.87650(36) 0.86219(66)
Zr7_2 Zr 0.40644(12) 0.96976(14) 0.74939(33)
Zr9_2 Zr 0.53024(14) 0.90644(12) 0.75061(33)
O25_2 O 0.94964(47) 0.97318(44) 0.92572(84)
H22_2 H 0.778249 0.916776 0.899761
O26_2 O 0.97318(44) 0.05036(47) 0.07428(84)
O18_2 O 0.97638(33) 0.15385(36) 0.9916(17)
O21_2 O 0.97188(49) 0.05706(48) 0.91540(83)
Zr2_4 Zr 0.000 -0.000 0.82295(33)
O9_3 O 0.02450(61) 0.07147(36) 0.75559(66)
O10_3 O 0.38435(33) 0.09812(33) 0.7440(16)
O11_3 O 0.34615(36) 0.02362(33) 0.7416(17)
C13_3 C 0.131092 0.194386 0.750855
N7_3 N 0.148346 0.144304 0.761782
N8_3 N 0.200579 0.134399 0.768947
C14_3 C 0.235559 0.174575 0.765184
N9_3 N 0.218306 0.224657 0.754257
N10_3 N 0.166072 0.234562 0.747092
S3_3 S 0.067293 0.206485 0.742104
S4_3 S 0.299359 0.162476 0.773935
C15_3 C 0.03851(57) 0.11197(50) 0.77650(99)
C16_3 C 0.02902(61) 0.15467(47) 0.71316(99)
C17_3 C 0.29166(51) 0.09401(47) 0.7812(21)
C18_3 C 0.34451(48) 0.07060(49) 0.7626(16)
H3_3 H 0.028426 0.002974 0.578887
O16_3 O 0.443781 0.139346 0.632835
C22_3 C 0.461930 0.180021 0.592390
N12_3 N 0.438863 0.198986 0.519991
C23_2 C 0.457012 0.239662 0.479546
C24_2 C 0.397649 0.177275 0.488036
H4_3 H 0.492999 0.196388 0.616480
O17_3 O 0.52362(33) 0.15385(36) 0.7584(17)
O23_3 O 0.44294(48) 0.02812(49) 0.66540(83)
O27_3 O 0.52682(44) 0.05036(47) 0.67572(84)
H21_3 H 0.264314 0.0808997 0.729164
H22_3 H 0.278249 0.0832239 0.850239
H23_2 H 0.495746 0.232032 0.455083
H24_2 H 0.432768 0.249768 0.420669
H25_3 H 0.457725 0.271259 0.529006
H32_3 H 0.0376126 0.142721 0.642244
H34_3 H 0.368251 0.177227 0.541802
H35_2 H 0.383898 0.198408 0.427659
H36_2 H 0.406274 0.138002 0.467878
Zr2_5 Zr 0.000 1.000 0.82295(33)
O13_3 O 0.054790 0.98198 0.702413
C19_3 C 0.049577 0.978169 0.612702
N11_3 N 0.072420 0.941453 0.567846
C20_2 C 0.067207 0.937641 0.478134
C21_3 C 0.100477 0.908548 0.612702
H11_3 H 0.0110709 0.834116 0.717883
H26_3 H 0.0770315 0.88867 0.663934
H27_3 H 0.11635 0.88088 0.563867
H28_3 H 0.131552 0.92853 0.647881
H29_2 H 0.0814072 0.97238 0.445057
H30_2 H 0.0889608 0.904831 0.453085
H31_2 H 0.0268861 0.932519 0.461109
Zr2_6 Zr 1.000 -0.000 0.82295(33)
O8_3 O 0.945210 0.01802 0.702413
C10_3 C 0.950423 0.021831 0.612702
N6_3 N 0.927580 0.058547 0.567846
C11_2 C 0.932793 0.062359 0.478134
C12_3 C 0.899523 0.091452 0.612702
H5_3 H 0.922969 0.11133 0.663934
H6_3 H 0.88365 0.11912 0.563867
H7_3 H 0.868448 0.0714699 0.647881
H15_2 H 0.918593 0.0276204 0.445057
H16_2 H 0.911039 0.0951693 0.453085
H17_2 H 0.973114 0.0674806 0.461109
H33_3 H 0.988929 0.165884 0.717883
O1_3 O 0.97550(61) 0.92853(36) 0.75559(66)
O2_3 O 0.61565(33) 0.90188(33) 0.7440(16)
O3_3 O 0.65385(36) 0.97638(33) 0.7416(17)
C1_3 C 0.868908 0.805614 0.750855
N1_3 N 0.851654 0.855696 0.761782
N2_3 N 0.799421 0.865601 0.768947
C2_3 C 0.764441 0.825425 0.765184
N3_3 N 0.781694 0.775343 0.754257
N4_3 N 0.833928 0.765438 0.747092
S1_3 S 0.932707 0.793515 0.742104
S2_3 S 0.700641 0.837524 0.773935
C3_3 C 0.96149(57) 0.88803(50) 0.77650(99)
C4_3 C 0.97098(61) 0.84533(47) 0.71316(99)
C5_3 C 0.70834(51) 0.90599(47) 0.7812(21)
C6_3 C 0.65549(48) 0.92940(49) 0.7626(16)
Zr2_7 Zr 1.000 1.000 0.82295(33)
O5_3 O 0.556219 0.860654 0.632835
C7_3 C 0.538070 0.819979 0.592390
N5_3 N 0.561137 0.801014 0.519991
C8_2 C 0.542988 0.760338 0.479546
C9_2 C 0.602351 0.822725 0.488036
H1_3 H 0.507001 0.803612 0.616480
H2_3 H 0.971574 0.997026 0.578887
O18_3 O 0.47638(33) 0.84615(36) 0.7584(17)
O22_3 O 0.55706(48) 0.97188(49) 0.66540(83)
O26_3 O 0.47318(44) 0.94964(47) 0.67572(84)
H8_3 H 0.735686 0.9191 0.729164
H9_3 H 0.721751 0.916776 0.850239
H10_3 H 0.962387 0.857279 0.642244
H12_3 H 0.631749 0.822773 0.541802
H13_2 H 0.616102 0.801592 0.427659
H14_2 H 0.593726 0.861998 0.467878
H18_2 H 0.504254 0.767968 0.455083
H19_2 H 0.567232 0.750232 0.420669
H20_3 H 0.542275 0.728741 0.529006
Zr2_8 Zr 0.000 0.500 0.42705(33)
O9_4 O 0.02450(61) 0.42853(36) 0.49441(66)
O10_4 O 0.38435(33) 0.40188(33) 0.5060(16)
O11_4 O 0.34615(36) 0.47638(33) 0.5084(17)
C13_4 C 0.131092 0.305614 0.499145
N7_4 N 0.148346 0.355696 0.488218
N8_4 N 0.200579 0.365601 0.481053
C14_4 C 0.235559 0.325425 0.484816
N9_4 N 0.218306 0.275343 0.495743
N10_4 N 0.166072 0.265438 0.502908
S3_4 S 0.067293 0.293515 0.507896
S4_4 S 0.299359 0.337524 0.476065
C15_4 C 0.03851(57) 0.38803(50) 0.47350(99)
C16_4 C 0.02902(61) 0.34533(47) 0.53684(99)
C17_4 C 0.29166(51) 0.40599(47) 0.4688(21)
C18_4 C 0.34451(48) 0.42940(49) 0.4874(16)
O13_4 O 0.054790 0.51802 0.547587
C19_4 C 0.049577 0.521831 0.637298
N11_4 N 0.072420 0.558547 0.682154
C20_3 C 0.067207 0.562359 0.771866
C21_4 C 0.100477 0.591452 0.637298
H3_4 H 0.028426 0.497026 0.671113
O16_4 O 0.443781 0.360654 0.617165
C22_4 C 0.461930 0.319979 0.657610
N12_4 N 0.438863 0.301014 0.730009
C23_3 C 0.457012 0.260338 0.770454
C24_3 C 0.397649 0.322725 0.761964
H4_4 H 0.492999 0.303612 0.633520
O17_4 O 0.52362(33) 0.34615(36) 0.4916(17)
O23_4 O 0.44294(48) 0.47188(49) 0.58460(83)
O27_4 O 0.52682(44) 0.44964(47) 0.57428(84)
H11_4 H 0.0110709 0.665884 0.532117
H21_4 H 0.264314 0.4191 0.520836
H22_4 H 0.278249 0.416776 0.399761
H23_3 H 0.495746 0.267968 0.794917
H24_3 H 0.432768 0.250232 0.829331
H25_4 H 0.457725 0.228741 0.720994
H26_4 H 0.0770315 0.61133 0.586066
H27_4 H 0.11635 0.61912 0.686133
H28_4 H 0.131552 0.57147 0.602119
H29_3 H 0.0814072 0.52762 0.804943
H30_3 H 0.0889608 0.595169 0.796915
H31_3 H 0.0268861 0.567481 0.788891
H32_4 H 0.0376126 0.357279 0.607756
H34_4 H 0.368251 0.322773 0.708198
H35_3 H 0.383898 0.301592 0.822341
H36_3 H 0.406274 0.361998 0.782122
O1_4 O 0.97550(61) 0.57147(36) 0.49441(66)
O2_4 O 0.61565(33) 0.59812(33) 0.5060(16)
O3_4 O 0.65385(36) 0.52362(33) 0.5084(17)
C1_4 C 0.868908 0.694386 0.499145
N1_4 N 0.851654 0.644304 0.488218
N2_4 N 0.799421 0.634399 0.481053
C2_4 C 0.764441 0.674575 0.484816
N3_4 N 0.781694 0.724657 0.495743
N4_4 N 0.833928 0.734562 0.502908
S1_4 S 0.932707 0.706485 0.507896
S2_4 S 0.700641 0.662476 0.476065
C3_4 C 0.96149(57) 0.61197(50) 0.47350(99)
C4_4 C 0.97098(61) 0.65467(47) 0.53684(99)
C5_4 C 0.70834(51) 0.59401(47) 0.4688(21)
C6_4 C 0.65549(48) 0.57060(49) 0.4874(16)
Zr2_9 Zr 1.000 0.500 0.42705(33)
O5_4 O 0.556219 0.639346 0.617165
C7_4 C 0.538070 0.680021 0.657610
N5_4 N 0.561137 0.698986 0.730009
C8_3 C 0.542988 0.739662 0.770454
C9_3 C 0.602351 0.677275 0.761964
H1_4 H 0.507001 0.696388 0.633520
O8_4 O 0.945210 0.48198 0.547587
C10_4 C 0.950423 0.478169 0.637298
N6_4 N 0.927580 0.441453 0.682154
C11_3 C 0.932793 0.437641 0.771866
C12_4 C 0.899523 0.408548 0.637298
H2_4 H 0.971574 0.502974 0.671113
O18_4 O 0.47638(33) 0.65385(36) 0.4916(17)
O22_4 O 0.55706(48) 0.52812(49) 0.58460(83)
O26_4 O 0.47318(44) 0.55036(47) 0.57428(84)
H5_4 H 0.922969 0.38867 0.586066
H6_4 H 0.88365 0.38088 0.686133
H7_4 H 0.868448 0.42853 0.602119
H8_4 H 0.735686 0.5809 0.520836
H9_4 H 0.721751 0.583224 0.399761
H10_4 H 0.962387 0.642721 0.607756
H12_4 H 0.631749 0.677227 0.708198
H13_3 H 0.616102 0.698408 0.822341
H14_3 H 0.593726 0.638002 0.782122
H15_3 H 0.918593 0.47238 0.804943
H16_3 H 0.911039 0.404831 0.796915
H17_3 H 0.973114 0.432519 0.788891
H18_3 H 0.504254 0.732032 0.794917
H19_3 H 0.567232 0.749768 0.829331
H20_4 H 0.542275 0.771259 0.720994
H33_4 H 0.988929 0.334116 0.532117
Zr2_10 Zr 0.500 0.000 0.57295(33)
O9_5 O 0.57147(36) 0.02450(61) 0.50559(66)
O10_5 O 0.59812(33) 0.38435(33) 0.4940(16)
O12_3 O 0.62350(36) 0.03708(79) 0.61219(66)
C13_5 C 0.694386 0.131092 0.500855
N7_5 N 0.644304 0.148346 0.511782
N8_5 N 0.634399 0.200579 0.518947
C14_5 C 0.674575 0.235559 0.515184
N9_5 N 0.724657 0.218306 0.504257
N10_5 N 0.734562 0.166072 0.497092
S3_5 S 0.706485 0.067293 0.492104
S4_5 S 0.662476 0.299359 0.523935
C15_5 C 0.61197(50) 0.03851(57) 0.52650(99)
C16_5 C 0.65467(47) 0.02902(61) 0.46316(99)
C17_5 C 0.59401(47) 0.29166(51) 0.5312(21)
C18_5 C 0.57060(49) 0.34451(48) 0.5126(16)
O13_5 O 0.48198 0.054790 0.452413
C19_5 C 0.478169 0.049577 0.362702
N11_5 N 0.441453 0.072420 0.317846
C20_4 C 0.437641 0.067207 0.228134
C21_5 C 0.408548 0.100477 0.362702
H3_5 H 0.502974 0.028426 0.328887
O16_5 O 0.639346 0.443781 0.382835
C22_5 C 0.680021 0.461930 0.342390
N12_5 N 0.698986 0.438863 0.269991
C23_4 C 0.739662 0.457012 0.229546
C24_4 C 0.677275 0.397649 0.238036
H4_5 H 0.696388 0.492999 0.366480
O20_3 O 0.62350(36) 0.46292(79) 0.63781(66)
H11_5 H 0.334116 0.0110709 0.467883
H21_5 H 0.5809 0.264314 0.479164
H22_5 H 0.583224 0.278249 0.600239
H23_4 H 0.732032 0.495746 0.205083
H24_4 H 0.749768 0.432768 0.170669
H25_5 H 0.771259 0.457725 0.279006
H26_5 H 0.38867 0.0770315 0.413934
H27_5 H 0.38088 0.11635 0.313867
H28_5 H 0.42853 0.131552 0.397881
H29_4 H 0.47238 0.0814072 0.195057
H30_4 H 0.404831 0.0889608 0.203085
H31_4 H 0.432519 0.0268861 0.211109
H32_5 H 0.642721 0.0376126 0.392244
H34_5 H 0.677227 0.368251 0.291802
H35_4 H 0.698408 0.383898 0.177659
H36_4 H 0.638002 0.406274 0.217878
O1_5 O 0.42853(36) 0.97550(61) 0.50559(66)
O2_5 O 0.40188(33) 0.61565(33) 0.4940(16)
O4_3 O 0.37650(36) 0.96292(79) 0.61219(66)
C1_5 C 0.305614 0.868908 0.500855
N1_5 N 0.355696 0.851654 0.511782
N2_5 N 0.365601 0.799421 0.518947
C2_5 C 0.325425 0.764441 0.515184
N3_5 N 0.275343 0.781694 0.504257
N4_5 N 0.265438 0.833928 0.497092
S1_5 S 0.293515 0.932707 0.492104
S2_5 S 0.337524 0.700641 0.523935
C3_5 C 0.38803(50) 0.96149(57) 0.52650(99)
C4_5 C 0.34533(47) 0.97098(61) 0.46316(99)
C5_5 C 0.40599(47) 0.70834(51) 0.5312(21)
C6_5 C 0.42940(49) 0.65549(48) 0.5126(16)
Zr2_11 Zr 0.500 1.000 0.57295(33)
O5_5 O 0.360654 0.556219 0.382835
C7_5 C 0.319979 0.538070 0.342390
N5_5 N 0.301014 0.561137 0.269991
C8_4 C 0.260338 0.542988 0.229546
C9_4 C 0.322725 0.602351 0.238036
H1_5 H 0.303612 0.507001 0.366480
O8_5 O 0.51802 0.945210 0.452413
C10_5 C 0.521831 0.950423 0.362702
N6_5 N 0.558547 0.927580 0.317846
C11_4 C 0.562359 0.932793 0.228134
C12_5 C 0.591452 0.899523 0.362702
H2_5 H 0.497026 0.971574 0.328887
O19_3 O 0.37650(36) 0.53708(79) 0.63781(66)
H5_5 H 0.61133 0.922969 0.413934
H6_5 H 0.61912 0.88365 0.313867
H7_5 H 0.57147 0.868448 0.397881
H8_5 H 0.4191 0.735686 0.479164
H9_5 H 0.416776 0.721751 0.600239
H10_5 H 0.357279 0.962387 0.392244
H12_5 H 0.322773 0.631749 0.291802
H13_4 H 0.301592 0.616102 0.177659
H14_4 H 0.361998 0.593726 0.217878
H15_4 H 0.52762 0.918593 0.195057
H16_4 H 0.595169 0.911039 0.203085
H17_4 H 0.567481 0.973114 0.211109
H18_4 H 0.267968 0.504254 0.205083
H19_4 H 0.250232 0.567232 0.170669
H20_5 H 0.228741 0.542275 0.279006
H33_5 H 0.665884 0.988929 0.467883
O1_6 O 0.42853(36) 0.52450(61) 0.74441(66)
O2_6 O 0.40188(33) 0.88435(33) 0.7560(16)
C1_6 C 0.305614 0.631092 0.749145
N1_6 N 0.355696 0.648346 0.738218
N2_6 N 0.365601 0.700579 0.731053
C2_6 C 0.325425 0.735559 0.734816
N3_6 N 0.275343 0.718306 0.745743
N4_6 N 0.265438 0.666072 0.752908
S1_6 S 0.293515 0.567293 0.757896
S2_6 S 0.337524 0.799359 0.726065
C3_6 C 0.38803(50) 0.53851(57) 0.72350(99)
C4_6 C 0.34533(47) 0.52902(61) 0.78684(99)
C5_6 C 0.40599(47) 0.79166(51) 0.7188(21)
C6_6 C 0.42940(49) 0.84451(48) 0.7374(16)
Zr2_12 Zr 0.500 0.500 0.67705(33)
O5_6 O 0.360654 0.943781 0.867165
C7_6 C 0.319979 0.961930 0.907610
N5_6 N 0.301014 0.938863 0.980009
H1_6 H 0.303612 0.992999 0.883520
O8_6 O 0.51802 0.554790 0.797587
C10_6 C 0.521831 0.549577 0.887298
N6_6 N 0.558547 0.572420 0.932154
C12_6 C 0.591452 0.600477 0.887298
H2_6 H 0.497026 0.528426 0.921113
O9_6 O 0.57147(36) 0.47550(61) 0.74441(66)
O10_6 O 0.59812(33) 0.11565(33) 0.7560(16)
C13_6 C 0.694386 0.368908 0.749145
N7_6 N 0.644304 0.351654 0.738218
N8_6 N 0.634399 0.299421 0.731053
C14_6 C 0.674575 0.264441 0.734816
N9_6 N 0.724657 0.281694 0.745743
N10_6 N 0.734562 0.333928 0.752908
S3_6 S 0.706485 0.432707 0.757896
S4_6 S 0.662476 0.200641 0.726065
C15_6 C 0.61197(50) 0.46149(57) 0.72350(99)
C16_6 C 0.65467(47) 0.47098(61) 0.78684(99)
C17_6 C 0.59401(47) 0.20834(51) 0.7188(21)
C18_6 C 0.57060(49) 0.15549(48) 0.7374(16)
O13_6 O 0.48198 0.445210 0.797587
C19_6 C 0.478169 0.450423 0.887298
N11_6 N 0.441453 0.427580 0.932154
C21_6 C 0.408548 0.399523 0.887298
H3_6 H 0.502974 0.471574 0.921113
O16_6 O 0.639346 0.056219 0.867165
C22_6 C 0.680021 0.038070 0.907610
N12_6 N 0.698986 0.061137 0.980009
H4_6 H 0.696388 0.007001 0.883520
H5_6 H 0.61133 0.577031 0.836066
H6_6 H 0.61912 0.61635 0.936133
H7_6 H 0.57147 0.631552 0.852119
H8_6 H 0.4191 0.764314 0.770836
H9_6 H 0.416776 0.778249 0.649761
H10_6 H 0.357279 0.537613 0.857756
H11_6 H 0.334116 0.488929 0.782117
H12_6 H 0.322773 0.868251 0.958198
H20_6 H 0.228741 0.957725 0.970994
H21_6 H 0.5809 0.235686 0.770836
H22_6 H 0.583224 0.221751 0.649761
H25_6 H 0.771259 0.0422752 0.970994
H26_6 H 0.38867 0.422969 0.836066
H27_6 H 0.38088 0.38365 0.936133
H28_6 H 0.42853 0.368448 0.852119
H32_6 H 0.642721 0.462387 0.857756
H33_6 H 0.665884 0.511071 0.782117
H34_6 H 0.677227 0.131749 0.958198
Zr2_13 Zr -0.000 0.500 0.07295(33)
O9_7 O 0.07147(36) 0.52450(61) 0.00559(66)
O12_4 O 0.12350(36) 0.53708(79) 0.11219(66)
C13_7 C 0.194386 0.631092 0.000855
N7_7 N 0.144304 0.648346 0.011782
N8_7 N 0.134399 0.700579 0.018947
C14_7 C 0.174575 0.735559 0.015184
N9_7 N 0.224657 0.718306 0.004257
S4_7 S 0.162476 0.799359 0.023935
C15_7 C 0.11197(50) 0.53851(57) 0.02650(99)
C17_7 C 0.09401(47) 0.79166(51) 0.0312(21)
C18_7 C 0.07060(49) 0.84451(48) 0.0126(16)
O20_4 O 0.12350(36) 0.96292(79) 0.13781(66)
H22_7 H 0.0832239 0.778249 0.100239
O8_7 O 0.01802 0.445210 0.952413
C10_7 C 0.021831 0.450423 0.862702
N6_7 N 0.058547 0.427580 0.817846
C11_5 C 0.062359 0.432793 0.728134
C12_7 C 0.091452 0.399523 0.862702
O10_7 O 0.09812(33) 0.88435(33) 0.9940(16)
N10_7 N 0.234562 0.666072 0.997092
S3_7 S 0.206485 0.567293 0.992104
C16_7 C 0.15467(47) 0.52902(61) 0.96316(99)
H3_7 H 0.002974 0.528426 0.828887
O16_7 O 0.139346 0.943781 0.882835
C22_7 C 0.180021 0.961930 0.842390
N12_7 N 0.198986 0.938863 0.769991
C23_5 C 0.239662 0.957012 0.729546
C24_5 C 0.177275 0.897649 0.738036
H4_7 H 0.196388 0.992999 0.866480
H5_7 H 0.11133 0.422969 0.913934
H6_7 H 0.11912 0.38365 0.813867
H7_7 H 0.0714699 0.368448 0.897881
H15_5 H 0.0276204 0.418593 0.695057
H16_5 H 0.0951693 0.411039 0.703085
H17_5 H 0.0674806 0.473114 0.711109
H21_7 H 0.0808997 0.764314 0.979164
H23_5 H 0.232032 0.995746 0.705083
H24_5 H 0.249768 0.932768 0.670669
H25_7 H 0.271259 0.957725 0.779006
H32_7 H 0.142721 0.537613 0.892244
H33_7 H 0.165884 0.488929 0.967883
H34_7 H 0.177227 0.868251 0.791802
H35_5 H 0.198408 0.883898 0.677659
H36_5 H 0.138002 0.906274 0.717878
O1_7 O 0.92853(36) 0.47550(61) 0.00559(66)
O4_4 O 0.87650(36) 0.46292(79) 0.11219(66)
C1_7 C 0.805614 0.368908 0.000855
N1_7 N 0.855696 0.351654 0.011782
N2_7 N 0.865601 0.299421 0.018947
C2_7 C 0.825425 0.264441 0.015184
N3_7 N 0.775343 0.281694 0.004257
S2_7 S 0.837524 0.200641 0.023935
C3_7 C 0.88803(50) 0.46149(57) 0.02650(99)
C5_7 C 0.90599(47) 0.20834(51) 0.0312(21)
C6_7 C 0.92940(49) 0.15549(48) 0.0126(16)
Zr2_14 Zr 1.000 0.500 0.07295(33)
O19_4 O 0.87650(36) 0.03708(79) 0.13781(66)
H9_7 H 0.916776 0.221751 0.100239
O2_7 O 0.90188(33) 0.11565(33) 0.9940(16)
N4_7 N 0.765438 0.333928 0.997092
S1_7 S 0.793515 0.432707 0.992104
C4_7 C 0.84533(47) 0.47098(61) 0.96316(99)
O5_7 O 0.860654 0.056219 0.882835
C7_7 C 0.819979 0.038070 0.842390
N5_7 N 0.801014 0.061137 0.769991
C8_5 C 0.760338 0.042988 0.729546
C9_5 C 0.822725 0.102351 0.738036
H1_7 H 0.803612 0.007001 0.866480
H2_7 H 0.997026 0.471574 0.828887
O13_7 O 0.98198 0.554790 0.952413
C19_7 C 0.978169 0.549577 0.862702
N11_7 N 0.941453 0.572420 0.817846
C20_5 C 0.937641 0.567207 0.728134
C21_7 C 0.908548 0.600477 0.862702
H8_7 H 0.9191 0.235686 0.979164
H10_7 H 0.857279 0.462387 0.892244
H11_7 H 0.834116 0.511071 0.967883
H12_7 H 0.822773 0.131749 0.791802
H13_5 H 0.801592 0.116102 0.677659
H14_5 H 0.861998 0.0937264 0.717878
H18_5 H 0.767968 0.00425408 0.705083
H19_5 H 0.750232 0.0672317 0.670669
H20_7 H 0.728741 0.0422752 0.779006
H26_7 H 0.88867 0.577031 0.913934
H27_7 H 0.88088 0.61635 0.813867
H28_7 H 0.92853 0.631552 0.897881
H29_5 H 0.97238 0.581407 0.695057
H30_5 H 0.904831 0.588961 0.703085
H31_5 H 0.932519 0.526886 0.711109
Zr2_15 Zr -0.000 -0.000 0.17705(33)
O8_8 O 0.01802 0.054790 0.297587
C10_8 C 0.021831 0.049577 0.387298
N6_8 N 0.058547 0.072420 0.432154
C11_6 C 0.062359 0.067207 0.521866
C12_8 C 0.091452 0.100477 0.387298
H5_8 H 0.11133 0.0770315 0.336066
H6_8 H 0.11912 0.11635 0.436133
H7_8 H 0.0714699 0.131552 0.352119
H15_6 H 0.0276204 0.0814072 0.554943
H16_6 H 0.0951693 0.0889608 0.546915
H17_6 H 0.0674806 0.0268861 0.538891
H33_8 H 0.165884 0.0110709 0.282117
Zr2_16 Zr -0.000 1.000 0.17705(33)
O9_8 O 0.07147(36) 0.97550(61) 0.24441(66)
O10_8 O 0.09812(33) 0.61565(33) 0.2560(16)
C13_8 C 0.194386 0.868908 0.249145
N7_8 N 0.144304 0.851654 0.238218
N8_8 N 0.134399 0.799421 0.231053
C14_8 C 0.174575 0.764441 0.234816
N9_8 N 0.224657 0.781694 0.245743
N10_8 N 0.234562 0.833928 0.252908
S3_8 S 0.206485 0.932707 0.257896
S4_8 S 0.162476 0.700641 0.226065
C15_8 C 0.11197(50) 0.96149(57) 0.22350(99)
C16_8 C 0.15467(47) 0.97098(61) 0.28684(99)
C17_8 C 0.09401(47) 0.70834(51) 0.2188(21)
C18_8 C 0.07060(49) 0.65549(48) 0.2374(16)
H3_8 H 0.002974 0.971574 0.421113
O16_8 O 0.139346 0.556219 0.367165
C22_8 C 0.180021 0.538070 0.407610
N12_8 N 0.198986 0.561137 0.480009
C23_6 C 0.239662 0.542988 0.520454
C24_6 C 0.177275 0.602351 0.511964
H4_8 H 0.196388 0.507001 0.383520
H21_8 H 0.0808997 0.735686 0.270836
H22_8 H 0.0832239 0.721751 0.149761
H23_6 H 0.232032 0.504254 0.544917
H24_6 H 0.249768 0.567232 0.579331
H25_8 H 0.271259 0.542275 0.470994
H32_8 H 0.142721 0.962387 0.357756
H34_8 H 0.177227 0.631749 0.458198
H35_6 H 0.198408 0.616102 0.572341
H36_6 H 0.138002 0.593726 0.532122
O1_8 O 0.92853(36) 0.02450(61) 0.24441(66)
O2_8 O 0.90188(33) 0.38435(33) 0.2560(16)
C1_8 C 0.805614 0.131092 0.249145
N1_8 N 0.855696 0.148346 0.238218
N2_8 N 0.865601 0.200579 0.231053
C2_8 C 0.825425 0.235559 0.234816
N3_8 N 0.775343 0.218306 0.245743
N4_8 N 0.765438 0.166072 0.252908
S1_8 S 0.793515 0.067293 0.257896
S2_8 S 0.837524 0.299359 0.226065
C3_8 C 0.88803(50) 0.03851(57) 0.22350(99)
C4_8 C 0.84533(47) 0.02902(61) 0.28684(99)
C5_8 C 0.90599(47) 0.29166(51) 0.2188(21)
C6_8 C 0.92940(49) 0.34451(48) 0.2374(16)
Zr2_17 Zr 1.000 -0.000 0.17705(33)
O5_8 O 0.860654 0.443781 0.367165
C7_8 C 0.819979 0.461930 0.407610
N5_8 N 0.801014 0.438863 0.480009
C8_6 C 0.760338 0.457012 0.520454
C9_6 C 0.822725 0.397649 0.511964
H1_8 H 0.803612 0.492999 0.383520
H2_8 H 0.997026 0.028426 0.421113
H8_8 H 0.9191 0.264314 0.270836
H9_8 H 0.916776 0.278249 0.149761
H10_8 H 0.857279 0.0376126 0.357756
H12_8 H 0.822773 0.368251 0.458198
H13_6 H 0.801592 0.383898 0.572341
H14_6 H 0.861998 0.406274 0.532122
H18_6 H 0.767968 0.495746 0.544917
H19_6 H 0.750232 0.432768 0.579331
H20_8 H 0.728741 0.457725 0.470994
Zr2_18 Zr 1.000 1.000 0.17705(33)
O13_8 O 0.98198 0.945210 0.297587
C19_8 C 0.978169 0.950423 0.387298
N11_8 N 0.941453 0.927580 0.432154
C20_6 C 0.937641 0.932793 0.521866
C21_8 C 0.908548 0.899523 0.387298
H11_8 H 0.834116 0.988929 0.282117
H26_8 H 0.88867 0.922969 0.336066
H27_8 H 0.88088 0.88365 0.436133
H28_8 H 0.92853 0.868448 0.352119
H29_6 H 0.97238 0.918593 0.554943
H30_6 H 0.904831 0.911039 0.546915
H31_6 H 0.932519 0.973114 0.538891
C8_7 C 0.957012 0.739662 0.979546
C9_7 C 0.897649 0.677275 0.988036
C11_7 C 0.567207 0.437641 0.978134
C20_7 C 0.432793 0.562359 0.978134
C23_7 C 0.042988 0.260338 0.979546
C24_7 C 0.102351 0.322725 0.988036
H13_7 H 0.883898 0.698408 0.927659
H14_7 H 0.906274 0.638002 0.967878
H15_7 H 0.581407 0.47238 0.945057
H16_7 H 0.588961 0.404831 0.953085
H17_7 H 0.526886 0.432519 0.961109
H18_7 H 0.995746 0.732032 0.955083
H19_7 H 0.932768 0.749768 0.920669
H23_7 H 0.00425408 0.267968 0.955083
H24_7 H 0.0672317 0.250232 0.920669
H29_7 H 0.418593 0.52762 0.945057
H30_7 H 0.411039 0.595169 0.953085
H31_7 H 0.473114 0.567481 0.961109
H35_7 H 0.116102 0.301592 0.927659
H36_7 H 0.0937264 0.361998 0.967878
C8_8 C 0.260338 0.957012 0.020454
C9_8 C 0.322725 0.897649 0.011964
C11_8 C 0.562359 0.567207 0.021866
C20_8 C 0.437641 0.432793 0.021866
C23_8 C 0.739662 0.042988 0.020454
C24_8 C 0.677275 0.102351 0.011964
H13_8 H 0.301592 0.883898 0.0723409
H14_8 H 0.361998 0.906274 0.0321216
H15_8 H 0.52762 0.581407 0.0549429
H16_8 H 0.595169 0.588961 0.0469154
H17_8 H 0.567481 0.526886 0.0388905
H18_8 H 0.267968 0.995746 0.0449173
H19_8 H 0.250232 0.932768 0.0793305
H23_8 H 0.732032 0.00425408 0.0449173
H24_8 H 0.749768 0.0672317 0.0793305
H29_8 H 0.47238 0.418593 0.0549429
H30_8 H 0.404831 0.411039 0.0469154
H31_8 H 0.432519 0.473114 0.0388905
H35_8 H 0.698408 0.116102 0.0723409
H36_8 H 0.638002 0.0937264 0.0321216
loop_
_geom_bond_atom_site_label_1
_geom_bond_atom_site_label_2
_geom_bond_site_symmetry_1
_geom_bond_site_symmetry_2
O1 C3 1_555 1_555
O2 C6 1_555 1_555
O3 C6 1_555 1_555
O4 C3 1_555 1_555
C1 N1 1_555 1_555
N1 N2 1_555 1_555
N2 C2 1_555 1_555
C2 N3 1_555 1_555
N3 N4 1_555 1_555
N4 C1 1_555 1_555
S1 C1 1_555 1_555
S2 C2 1_555 1_555
C3 C4 1_555 1_555
C4 S1 1_555 1_555
C5 S2 1_555 1_555
C6 C5 1_555 1_555
Zr1 O2 1_555 1_555
Zr2 O1 1_555 1_555
O5 Zr1 1_555 1_555
C7 O5 1_555 1_555
N5 C7 1_555 1_555
H1 C7 1_555 1_555
O6 Zr2 1_555 1_555
O7 Zr2 1_555 1_555
O8 Zr2 1_555 1_555
C10 O8 1_555 1_555
N6 C10 1_555 1_555
C12 N6 1_555 1_555
H2 C10 1_555 1_555
O9 Zr2 1_555 1_555
O10 C18 1_555 1_555
O11 C18 1_555 1_555
O12 C15 1_555 1_555
C13 N7 1_555 1_555
N7 N8 1_555 1_555
N8 C14 1_555 1_555
C14 N9 1_555 1_555
N9 N10 1_555 1_555
N10 C13 1_555 1_555
S3 C13 1_555 1_555
S4 C14 1_555 1_555
C15 O9 1_555 1_555
C16 S3 1_555 1_555
C17 S4 1_555 1_555
C18 C17 1_555 1_555
O13 Zr2 1_555 1_555
C19 O13 1_555 1_555
N11 C19 1_555 1_555
C21 N11 1_555 1_555
H3 C19 1_555 1_555
O14 Zr2 1_555 1_555
O15 Zr2 1_555 1_555
Zr3 O10 1_555 1_555
O16 Zr3 1_555 1_555
C22 O16 1_555 1_555
N12 C22 1_555 1_555
H4 C22 1_555 1_555
O19 Zr1 1_555 1_555
O20 Zr3 1_555 1_555
Zr4 O4 1_555 1_555
Zr5 O6 1_555 1_555
Zr6 O3 1_555 1_555
Zr7 O14 1_555 1_555
Zr8 O11 1_555 1_555
Zr9 O7 1_555 1_555
O22 Zr1 1_555 1_555
O23 Zr3 1_555 1_555
O25 Zr3 1_555 1_555
O28 Zr1 1_555 1_555
O6 Zr4 1_555 1_555
O7 Zr5 1_555 1_555
O12 Zr9 1_555 1_555
C15 C16 1_555 1_555
O14 Zr9 1_555 1_555
O15 Zr4 1_555 1_555
O15 Zr7 1_555 1_555
Zr6 O22 1_555 1_555
Zr6 O28 1_555 1_555
Zr8 O23 1_555 1_555
Zr8 O25 1_555 1_555
C12 H5 1_555 1_555
C12 H6 1_555 1_555
C12 H7 1_555 1_555
C5 H8 1_555 1_555
C5 H9 1_555 1_555
C4 H10 1_555 1_555
C4 H11 1_555 1_555
C17 H21 1_555 1_555
C17 H22 1_555 1_555
C21 H26 1_555 1_555
C21 H27 1_555 1_555
C21 H28 1_555 1_555
C16 H32 1_555 1_555
C16 H33 1_555 1_555
C4_2 S1_2 1_555 1_555
C7_2 O5_2 1_555 1_555
N5_2 C7_2 1_555 1_555
C8 N5_2 1_555 1_555
C9 N5_2 1_555 1_555
H1_2 C7_2 1_555 1_555
C19_2 O13_2 1_555 1_555
N11_2 C19_2 1_555 1_555
C20 N11_2 1_555 1_555
C21_2 N11_2 1_555 1_555
C4_2 H10_2 1_555 1_555
C4_2 H11_2 1_555 1_555
C9 H12_2 1_555 1_555
C9 H13 1_555 1_555
C9 H14 1_555 1_555
C8 H18 1_555 1_555
C8 H19 1_555 1_555
C8 H20_2 1_555 1_555
C21_2 H26_2 1_555 1_555
C21_2 H27_2 1_555 1_555
C21_2 H28_2 1_555 1_555
C20 H29 1_555 1_555
C20 H30 1_555 1_555
C20 H31 1_555 1_555
O1_2 C3_2 1_555 1_555
O4_2 C3_2 1_555 1_555
C1_2 N1_2 1_555 1_555
N1_2 N2_2 1_555 1_555
N2_2 C2_2 1_555 1_555
C2_2 N3_2 1_555 1_555
S2_2 C2_2 1_555 1_555
C5_2 S2_2 1_555 1_555
C6_2 C5_2 1_555 1_555
Zr2_2 O1_2 1_555 1_555
O6_2 Zr2_2 1_555 1_555
O15_2 Zr2_2 1_555 1_555
O19_2 Zr1_2 1_555 1_555
Zr4_2 O4_2 1_555 1_555
Zr5_2 O6_2 1_555 1_555
O28_2 Zr1_2 1_555 1_555
O6_2 Zr4_2 1_555 1_555
O15_2 Zr4_2 1_555 1_555
C5_2 H9_2 1_555 1_555
C10_2 O8_2 1_555 1_555
N6_2 C10_2 1_555 1_555
C11 N6_2 1_555 1_555
C12_2 N6_2 1_555 1_555
C16_2 S3_2 1_555 1_555
C22_2 O16_2 1_555 1_555
N12_2 C22_2 1_555 1_555
C23 N12_2 1_555 1_555
C24 N12_2 1_555 1_555
H4_2 C22_2 1_555 1_555
C12_2 H5_2 1_555 1_555
C12_2 H6_2 1_555 1_555
C12_2 H7_2 1_555 1_555
C11 H15 1_555 1_555
C11 H16 1_555 1_555
C11 H17 1_555 1_555
C23 H23 1_555 1_555
C23 H24 1_555 1_555
C23 H25_2 1_555 1_555
C16_2 H32_2 1_555 1_555
C16_2 H33_2 1_555 1_555
C24 H34_2 1_555 1_555
C24 H35 1_555 1_555
C24 H36 1_555 1_555
O7_2 Zr2_3 1_555 1_555
O9_2 Zr2_3 1_555 1_555
O12_2 C15_2 1_555 1_555
C13_2 N7_2 1_555 1_555
N7_2 N8_2 1_555 1_555
N8_2 C14_2 1_555 1_555
C14_2 N9_2 1_555 1_555
S4_2 C14_2 1_555 1_555
C15_2 O9_2 1_555 1_555
C17_2 S4_2 1_555 1_555
C18_2 C17_2 1_555 1_555
O14_2 Zr2_3 1_555 1_555
O20_2 Zr3_2 1_555 1_555
Zr7_2 O14_2 1_555 1_555
Zr9_2 O7_2 1_555 1_555
O25_2 Zr3_2 1_555 1_555
O12_2 Zr9_2 1_555 1_555
O14_2 Zr9_2 1_555 1_555
C17_2 H22_2 1_555 1_555
O28_2 Zr2_4 1_555 1_555
O9_3 Zr2_4 1_555 1_555
O10_3 C18_3 1_555 1_555
O11_3 C18_3 1_555 1_555
O19_2 C15_3 1_555 1_555
C13_3 N7_3 1_555 1_555
N7_3 N8_3 1_555 1_555
N8_3 C14_3 1_555 1_555
C14_3 N9_3 1_555 1_555
N9_3 N10_3 1_555 1_555
N10_3 C13_3 1_555 1_555
S3_3 C13_3 1_555 1_555
S4_3 C14_3 1_555 1_555
C15_3 O9_3 1_555 1_555
C16_3 S3_3 1_555 1_555
C17_3 S4_3 1_555 1_555
C18_3 C17_3 1_555 1_555
Zr4_2 O10_3 1_555 1_555
O16_3 Zr4_2 1_555 1_555
C22_3 O16_3 1_555 1_555
N12_3 C22_3 1_555 1_555
C23_2 N12_3 1_555 1_555
C24_2 N12_3 1_555 1_555
H4_3 C22_3 1_555 1_555
O17_3 Zr4_2 1_555 1_555
O23_3 Zr4_2 1_555 1_555
O27_3 Zr4_2 1_555 1_555
C15_3 C16_3 1_555 1_555
C17_3 H21_3 1_555 1_555
C17_3 H22_3 1_555 1_555
C23_2 H23_2 1_555 1_555
C23_2 H24_2 1_555 1_555
C23_2 H25_3 1_555 1_555
C16_3 H32_3 1_555 1_555
C24_2 H34_3 1_555 1_555
C24_2 H35_2 1_555 1_555
C24_2 H36_2 1_555 1_555
O24_2 Zr2_5 1_555 1_555
O13_3 Zr2_5 1_555 1_555
C19_3 O13_3 1_555 1_555
N11_3 C19_3 1_555 1_555
C20_2 N11_3 1_555 1_555
C21_3 N11_3 1_555 1_555
C21_3 H26_3 1_555 1_555
C21_3 H27_3 1_555 1_555
C21_3 H28_3 1_555 1_555
C20_2 H29_2 1_555 1_555
C20_2 H30_2 1_555 1_555
C20_2 H31_2 1_555 1_555
O8_3 Zr2_6 1_555 1_555
C10_3 O8_3 1_555 1_555
N6_3 C10_3 1_555 1_555
C11_2 N6_3 1_555 1_555
C12_3 N6_3 1_555 1_555
O21_2 Zr2_6 1_555 1_555
C12_3 H5_3 1_555 1_555
C12_3 H6_3 1_555 1_555
C12_3 H7_3 1_555 1_555
C11_2 H15_2 1_555 1_555
C11_2 H16_2 1_555 1_555
C11_2 H17_2 1_555 1_555
O1_3 C3_3 1_555 1_555
O2_3 C6_3 1_555 1_555
O3_3 C6_3 1_555 1_555
O20_2 C3_3 1_555 1_555
C1_3 N1_3 1_555 1_555
N1_3 N2_3 1_555 1_555
N2_3 C2_3 1_555 1_555
C2_3 N3_3 1_555 1_555
N3_3 N4_3 1_555 1_555
N4_3 C1_3 1_555 1_555
S1_3 C1_3 1_555 1_555
S2_3 C2_3 1_555 1_555
C3_3 C4_3 1_555 1_555
C4_3 S1_3 1_555 1_555
C5_3 S2_3 1_555 1_555
C6_3 C5_3 1_555 1_555
Zr9_2 O2_3 1_555 1_555
Zr2_7 O1_3 1_555 1_555
O5_3 Zr9_2 1_555 1_555
C7_3 O5_3 1_555 1_555
N5_3 C7_3 1_555 1_555
C8_2 N5_3 1_555 1_555
C9_2 N5_3 1_555 1_555
H1_3 C7_3 1_555 1_555
O25_2 Zr2_7 1_555 1_555
O18_3 Zr9_2 1_555 1_555
O22_3 Zr9_2 1_555 1_555
O26_3 Zr9_2 1_555 1_555
C5_3 H8_3 1_555 1_555
C5_3 H9_3 1_555 1_555
C4_3 H10_3 1_555 1_555
C9_2 H12_3 1_555 1_555
C9_2 H13_2 1_555 1_555
C9_2 H14_2 1_555 1_555
C8_2 H18_2 1_555 1_555
C8_2 H19_2 1_555 1_555
C8_2 H20_3 1_555 1_555
O21 Zr2_8 1_555 1_555
O25 Zr2_8 1_555 1_555
O9_4 Zr2_8 1_555 1_555
O10_4 C18_4 1_555 1_555
O11_4 C18_4 1_555 1_555
O20 C15_4 1_555 1_555
C13_4 N7_4 1_555 1_555
N7_4 N8_4 1_555 1_555
N8_4 C14_4 1_555 1_555
C14_4 N9_4 1_555 1_555
N9_4 N10_4 1_555 1_555
N10_4 C13_4 1_555 1_555
S3_4 C13_4 1_555 1_555
S4_4 C14_4 1_555 1_555
C15_4 O9_4 1_555 1_555
C16_4 S3_4 1_555 1_555
C17_4 S4_4 1_555 1_555
C18_4 C17_4 1_555 1_555
O13_4 Zr2_8 1_555 1_555
C19_4 O13_4 1_555 1_555
N11_4 C19_4 1_555 1_555
C20_3 N11_4 1_555 1_555
C21_4 N11_4 1_555 1_555
H3_4 C19_4 1_555 1_555
Zr9 O10_4 1_555 1_555
O16_4 Zr9 1_555 1_555
C22_4 O16_4 1_555 1_555
N12_4 C22_4 1_555 1_555
C23_3 N12_4 1_555 1_555
C24_3 N12_4 1_555 1_555
H4_4 C22_4 1_555 1_555
O17_4 Zr9 1_555 1_555
Zr8 O21 1_555 1_555
Zr5 O11_4 1_555 1_555
O23_4 Zr9 1_555 1_555
O27_4 Zr9 1_555 1_555
C15_4 C16_4 1_555 1_555
Zr5 O23_4 1_555 1_555
C17_4 H21_4 1_555 1_555
C17_4 H22_4 1_555 1_555
C23_3 H23_3 1_555 1_555
C23_3 H24_3 1_555 1_555
C23_3 H25_4 1_555 1_555
C21_4 H26_4 1_555 1_555
C21_4 H27_4 1_555 1_555
C21_4 H28_4 1_555 1_555
C20_3 H29_3 1_555 1_555
C20_3 H30_3 1_555 1_555
C20_3 H31_3 1_555 1_555
C16_4 H32_4 1_555 1_555
C24_3 H34_4 1_555 1_555
C24_3 H35_3 1_555 1_555
C24_3 H36_3 1_555 1_555
O1_4 C3_4 1_555 1_555
O2_4 C6_4 1_555 1_555
O3_4 C6_4 1_555 1_555
O19 C3_4 1_555 1_555
C1_4 N1_4 1_555 1_555
N1_4 N2_4 1_555 1_555
N2_4 C2_4 1_555 1_555
C2_4 N3_4 1_555 1_555
N3_4 N4_4 1_555 1_555
N4_4 C1_4 1_555 1_555
S1_4 C1_4 1_555 1_555
S2_4 C2_4 1_555 1_555
C3_4 C4_4 1_555 1_555
C4_4 S1_4 1_555 1_555
C5_4 S2_4 1_555 1_555
C6_4 C5_4 1_555 1_555
Zr4 O2_4 1_555 1_555
Zr2_9 O1_4 1_555 1_555
O5_4 Zr4 1_555 1_555
C7_4 O5_4 1_555 1_555
N5_4 C7_4 1_555 1_555
C8_3 N5_4 1_555 1_555
C9_3 N5_4 1_555 1_555
H1_4 C7_4 1_555 1_555
O8_4 Zr2_9 1_555 1_555
C10_4 O8_4 1_555 1_555
N6_4 C10_4 1_555 1_555
C11_3 N6_4 1_555 1_555
C12_4 N6_4 1_555 1_555
H2_4 C10_4 1_555 1_555
O24 Zr2_9 1_555 1_555
O28 Zr2_9 1_555 1_555
O18_4 Zr4 1_555 1_555
Zr7 O3_4 1_555 1_555
Zr6 O24 1_555 1_555
O22_4 Zr4 1_555 1_555
O26_4 Zr4 1_555 1_555
Zr7 O22_4 1_555 1_555
C12_4 H5_4 1_555 1_555
C12_4 H6_4 1_555 1_555
C12_4 H7_4 1_555 1_555
C5_4 H8_4 1_555 1_555
C5_4 H9_4 1_555 1_555
C4_4 H10_4 1_555 1_555
C9_3 H12_4 1_555 1_555
C9_3 H13_3 1_555 1_555
C9_3 H14_3 1_555 1_555
C11_3 H15_3 1_555 1_555
C11_3 H16_3 1_555 1_555
C11_3 H17_3 1_555 1_555
C8_3 H18_3 1_555 1_555
C8_3 H19_3 1_555 1_555
C8_3 H20_4 1_555 1_555
O23_3 Zr2_10 1_555 1_555
O27_3 Zr2_10 1_555 1_555
O9_5 Zr2_10 1_555 1_555
O10_5 C18_5 1_555 1_555
O17_4 C18_5 1_555 1_555
O12_3 C15_5 1_555 1_555
C13_5 N7_5 1_555 1_555
N7_5 N8_5 1_555 1_555
N8_5 C14_5 1_555 1_555
C14_5 N9_5 1_555 1_555
N9_5 N10_5 1_555 1_555
N10_5 C13_5 1_555 1_555
S3_5 C13_5 1_555 1_555
S4_5 C14_5 1_555 1_555
C15_5 O9_5 1_555 1_555
C16_5 S3_5 1_555 1_555
C17_5 S4_5 1_555 1_555
C18_5 C17_5 1_555 1_555
O13_5 Zr2_10 1_555 1_555
C19_5 O13_5 1_555 1_555
N11_5 C19_5 1_555 1_555
C20_4 N11_5 1_555 1_555
C21_5 N11_5 1_555 1_555
H3_5 C19_5 1_555 1_555
Zr7 O10_5 1_555 1_555
O16_5 Zr7 1_555 1_555
C22_5 O16_5 1_555 1_555
N12_5 C22_5 1_555 1_555
C23_4 N12_5 1_555 1_555
C24_4 N12_5 1_555 1_555
H4_5 C22_5 1_555 1_555
O20_3 Zr7 1_555 1_555
Zr5_2 O27_3 1_555 1_555
O27_4 Zr7 1_555 1_555
O12_3 Zr5_2 1_555 1_555
C15_5 C16_5 1_555 1_555
C17_5 H21_5 1_555 1_555
C17_5 H22_5 1_555 1_555
C23_4 H23_4 1_555 1_555
C23_4 H24_4 1_555 1_555
C23_4 H25_5 1_555 1_555
C21_5 H26_5 1_555 1_555
C21_5 H27_5 1_555 1_555
C21_5 H28_5 1_555 1_555
C20_4 H29_4 1_555 1_555
C20_4 H30_4 1_555 1_555
C20_4 H31_4 1_555 1_555
C16_5 H32_5 1_555 1_555
C24_4 H34_5 1_555 1_555
C24_4 H35_4 1_555 1_555
C24_4 H36_4 1_555 1_555
O1_5 C3_5 1_555 1_555
O2_5 C6_5 1_555 1_555
O18_4 C6_5 1_555 1_555
O4_3 C3_5 1_555 1_555
C1_5 N1_5 1_555 1_555
N1_5 N2_5 1_555 1_555
N2_5 C2_5 1_555 1_555
C2_5 N3_5 1_555 1_555
N3_5 N4_5 1_555 1_555
N4_5 C1_5 1_555 1_555
S1_5 C1_5 1_555 1_555
S2_5 C2_5 1_555 1_555
C3_5 C4_5 1_555 1_555
C4_5 S1_5 1_555 1_555
C5_5 S2_5 1_555 1_555
C6_5 C5_5 1_555 1_555
Zr5 O2_5 1_555 1_555
Zr2_11 O1_5 1_555 1_555
O5_5 Zr5 1_555 1_555
C7_5 O5_5 1_555 1_555
N5_5 C7_5 1_555 1_555
C8_4 N5_5 1_555 1_555
C9_4 N5_5 1_555 1_555
H1_5 C7_5 1_555 1_555
O8_5 Zr2_11 1_555 1_555
C10_5 O8_5 1_555 1_555
N6_5 C10_5 1_555 1_555
C11_4 N6_5 1_555 1_555
C12_5 N6_5 1_555 1_555
H2_5 C10_5 1_555 1_555
O22_3 Zr2_11 1_555 1_555
O26_3 Zr2_11 1_555 1_555
O19_3 Zr5 1_555 1_555
Zr7_2 O4_3 1_555 1_555
O26_4 Zr5 1_555 1_555
O26_3 Zr7_2 1_555 1_555
C12_5 H5_5 1_555 1_555
C12_5 H6_5 1_555 1_555
C12_5 H7_5 1_555 1_555
C5_5 H8_5 1_555 1_555
C5_5 H9_5 1_555 1_555
C4_5 H10_5 1_555 1_555
C9_4 H12_5 1_555 1_555
C9_4 H13_4 1_555 1_555
C9_4 H14_4 1_555 1_555
C11_4 H15_4 1_555 1_555
C11_4 H16_4 1_555 1_555
C11_4 H17_4 1_555 1_555
C8_4 H18_4 1_555 1_555
C8_4 H19_4 1_555 1_555
C8_4 H20_5 1_555 1_555
O1_6 C3_6 1_555 1_555
O2_6 C6_6 1_555 1_555
O18_3 C6_6 1_555 1_555
O19_3 C3_6 1_555 1_555
C1_6 N1_6 1_555 1_555
N1_6 N2_6 1_555 1_555
N2_6 C2_6 1_555 1_555
C2_6 N3_6 1_555 1_555
N3_6 N4_6 1_555 1_555
N4_6 C1_6 1_555 1_555
S1_6 C1_6 1_555 1_555
S2_6 C2_6 1_555 1_555
C3_6 C4_6 1_555 1_555
C4_6 S1_6 1_555 1_555
C5_6 S2_6 1_555 1_555
C6_6 C5_6 1_555 1_555
Zr7_2 O2_6 1_555 1_555
Zr2_12 O1_6 1_555 1_555
O5_6 Zr7_2 1_555 1_555
C7_6 O5_6 1_555 1_555
N5_6 C7_6 1_555 1_555
H1_6 C7_6 1_555 1_555
O23_4 Zr2_12 1_555 1_555
O27_4 Zr2_12 1_555 1_555
O8_6 Zr2_12 1_555 1_555
C10_6 O8_6 1_555 1_555
N6_6 C10_6 1_555 1_555
C12_6 N6_6 1_555 1_555
H2_6 C10_6 1_555 1_555
O9_6 Zr2_12 1_555 1_555
O10_6 C18_6 1_555 1_555
O17_3 C18_6 1_555 1_555
O20_3 C15_6 1_555 1_555
C13_6 N7_6 1_555 1_555
N7_6 N8_6 1_555 1_555
N8_6 C14_6 1_555 1_555
C14_6 N9_6 1_555 1_555
N9_6 N10_6 1_555 1_555
N10_6 C13_6 1_555 1_555
S3_6 C13_6 1_555 1_555
S4_6 C14_6 1_555 1_555
C15_6 O9_6 1_555 1_555
C16_6 S3_6 1_555 1_555
C17_6 S4_6 1_555 1_555
C18_6 C17_6 1_555 1_555
O13_6 Zr2_12 1_555 1_555
C19_6 O13_6 1_555 1_555
N11_6 C19_6 1_555 1_555
C21_6 N11_6 1_555 1_555
H3_6 C19_6 1_555 1_555
O22_4 Zr2_12 1_555 1_555
O26_4 Zr2_12 1_555 1_555
Zr5_2 O10_6 1_555 1_555
O16_6 Zr5_2 1_555 1_555
C22_6 O16_6 1_555 1_555
N12_6 C22_6 1_555 1_555
H4_6 C22_6 1_555 1_555
C15_6 C16_6 1_555 1_555
C12_6 H5_6 1_555 1_555
C12_6 H6_6 1_555 1_555
C12_6 H7_6 1_555 1_555
C5_6 H8_6 1_555 1_555
C5_6 H9_6 1_555 1_555
C4_6 H10_6 1_555 1_555
C4_6 H11_6 1_555 1_555
C17_6 H21_6 1_555 1_555
C17_6 H22_6 1_555 1_555
C21_6 H26_6 1_555 1_555
C21_6 H27_6 1_555 1_555
C21_6 H28_6 1_555 1_555
C16_6 H32_6 1_555 1_555
C16_6 H33_6 1_555 1_555
O26 Zr2_13 1_555 1_555
O9_7 Zr2_13 1_555 1_555
O12_4 C15_7 1_555 1_555
C13_7 N7_7 1_555 1_555
N7_7 N8_7 1_555 1_555
N8_7 C14_7 1_555 1_555
C14_7 N9_7 1_555 1_555
S4_7 C14_7 1_555 1_555
C15_7 O9_7 1_555 1_555
C17_7 S4_7 1_555 1_555
C18_7 C17_7 1_555 1_555
O23 Zr2_13 1_555 1_555
O20_4 Zr6_2 1_555 1_555
Zr8 O26 1_555 1_555
O27_2 Zr6_2 1_555 1_555
O12_4 Zr8 1_555 1_555
C17_7 H22_7 1_555 1_555
C10_7 O8_7 1_555 1_555
N6_7 C10_7 1_555 1_555
C11_5 N6_7 1_555 1_555
C12_7 N6_7 1_555 1_555
C16_7 S3_7 1_555 1_555
C22_7 O16_7 1_555 1_555
N12_7 C22_7 1_555 1_555
C23_5 N12_7 1_555 1_555
C24_5 N12_7 1_555 1_555
H4_7 C22_7 1_555 1_555
C12_7 H5_7 1_555 1_555
C12_7 H6_7 1_555 1_555
C12_7 H7_7 1_555 1_555
C11_5 H15_5 1_555 1_555
C11_5 H16_5 1_555 1_555
C11_5 H17_5 1_555 1_555
C23_5 H23_5 1_555 1_555
C23_5 H24_5 1_555 1_555
C23_5 H25_7 1_555 1_555
C16_7 H32_7 1_555 1_555
C16_7 H33_7 1_555 1_555
C24_5 H34_7 1_555 1_555
C24_5 H35_5 1_555 1_555
C24_5 H36_5 1_555 1_555
O1_7 C3_7 1_555 1_555
O4_4 C3_7 1_555 1_555
C1_7 N1_7 1_555 1_555
N1_7 N2_7 1_555 1_555
N2_7 C2_7 1_555 1_555
C2_7 N3_7 1_555 1_555
S2_7 C2_7 1_555 1_555
C5_7 S2_7 1_555 1_555
C6_7 C5_7 1_555 1_555
Zr2_14 O1_7 1_555 1_555
O22 Zr2_14 1_555 1_555
O27 Zr2_14 1_555 1_555
O19_4 Zr8_2 1_555 1_555
Zr6 O4_4 1_555 1_555
O26_2 Zr8_2 1_555 1_555
O27 Zr6 1_555 1_555
C5_7 H9_7 1_555 1_555
C4_7 S1_7 1_555 1_555
C7_7 O5_7 1_555 1_555
N5_7 C7_7 1_555 1_555
C8_5 N5_7 1_555 1_555
C9_5 N5_7 1_555 1_555
H1_7 C7_7 1_555 1_555
C19_7 O13_7 1_555 1_555
N11_7 C19_7 1_555 1_555
C20_5 N11_7 1_555 1_555
C21_7 N11_7 1_555 1_555
C4_7 H10_7 1_555 1_555
C4_7 H11_7 1_555 1_555
C9_5 H12_7 1_555 1_555
C9_5 H13_5 1_555 1_555
C9_5 H14_5 1_555 1_555
C8_5 H18_5 1_555 1_555
C8_5 H19_5 1_555 1_555
C8_5 H20_7 1_555 1_555
C21_7 H26_7 1_555 1_555
C21_7 H27_7 1_555 1_555
C21_7 H28_7 1_555 1_555
C20_5 H29_5 1_555 1_555
C20_5 H30_5 1_555 1_555
C20_5 H31_5 1_555 1_555
O8_8 Zr2_15 1_555 1_555
C10_8 O8_8 1_555 1_555
N6_8 C10_8 1_555 1_555
C11_6 N6_8 1_555 1_555
C12_8 N6_8 1_555 1_555
O22_2 Zr2_15 1_555 1_555
C12_8 H5_8 1_555 1_555
C12_8 H6_8 1_555 1_555
C12_8 H7_8 1_555 1_555
C11_6 H15_6 1_555 1_555
C11_6 H16_6 1_555 1_555
C11_6 H17_6 1_555 1_555
O27_2 Zr2_16 1_555 1_555
O9_8 Zr2_16 1_555 1_555
O10_8 C18_8 1_555 1_555
O18 C18_8 1_555 1_555
O20_4 C15_8 1_555 1_555
C13_8 N7_8 1_555 1_555
N7_8 N8_8 1_555 1_555
N8_8 C14_8 1_555 1_555
C14_8 N9_8 1_555 1_555
N9_8 N10_8 1_555 1_555
N10_8 C13_8 1_555 1_555
S3_8 C13_8 1_555 1_555
S4_8 C14_8 1_555 1_555
C15_8 O9_8 1_555 1_555
C16_8 S3_8 1_555 1_555
C17_8 S4_8 1_555 1_555
C18_8 C17_8 1_555 1_555
Zr8 O10_8 1_555 1_555
O16_8 Zr8 1_555 1_555
C22_8 O16_8 1_555 1_555
N12_8 C22_8 1_555 1_555
C23_6 N12_8 1_555 1_555
C24_6 N12_8 1_555 1_555
H4_8 C22_8 1_555 1_555
C15_8 C16_8 1_555 1_555
C17_8 H21_8 1_555 1_555
C17_8 H22_8 1_555 1_555
C23_6 H23_6 1_555 1_555
C23_6 H24_6 1_555 1_555
C23_6 H25_8 1_555 1_555
C16_8 H32_8 1_555 1_555
C24_6 H34_8 1_555 1_555
C24_6 H35_6 1_555 1_555
C24_6 H36_6 1_555 1_555
O1_8 C3_8 1_555 1_555
O2_8 C6_8 1_555 1_555
O17 C6_8 1_555 1_555
O19_4 C3_8 1_555 1_555
C1_8 N1_8 1_555 1_555
N1_8 N2_8 1_555 1_555
N2_8 C2_8 1_555 1_555
C2_8 N3_8 1_555 1_555
N3_8 N4_8 1_555 1_555
N4_8 C1_8 1_555 1_555
S1_8 C1_8 1_555 1_555
S2_8 C2_8 1_555 1_555
C3_8 C4_8 1_555 1_555
C4_8 S1_8 1_555 1_555
C5_8 S2_8 1_555 1_555
C6_8 C5_8 1_555 1_555
Zr6 O2_8 1_555 1_555
Zr2_17 O1_8 1_555 1_555
O5_8 Zr6 1_555 1_555
C7_8 O5_8 1_555 1_555
N5_8 C7_8 1_555 1_555
C8_6 N5_8 1_555 1_555
C9_6 N5_8 1_555 1_555
H1_8 C7_8 1_555 1_555
O26_2 Zr2_17 1_555 1_555
C5_8 H8_8 1_555 1_555
C5_8 H9_8 1_555 1_555
C4_8 H10_8 1_555 1_555
C9_6 H12_8 1_555 1_555
C9_6 H13_6 1_555 1_555
C9_6 H14_6 1_555 1_555
C8_6 H18_6 1_555 1_555
C8_6 H19_6 1_555 1_555
C8_6 H20_8 1_555 1_555
O23_2 Zr2_18 1_555 1_555
O13_8 Zr2_18 1_555 1_555
C19_8 O13_8 1_555 1_555
N11_8 C19_8 1_555 1_555
C20_6 N11_8 1_555 1_555
C21_8 N11_8 1_555 1_555
C21_8 H26_8 1_555 1_555
C21_8 H27_8 1_555 1_555
C21_8 H28_8 1_555 1_555
C20_6 H29_6 1_555 1_555
C20_6 H30_6 1_555 1_555
C20_6 H31_6 1_555 1_555
C9_7 H13_7 1_555 1_555
C9_7 H14_7 1_555 1_555
C11_7 H15_7 1_555 1_555
C11_7 H16_7 1_555 1_555
C11_7 H17_7 1_555 1_555
C8_7 H18_7 1_555 1_555
C8_7 H19_7 1_555 1_555
C23_7 H23_7 1_555 1_555
C23_7 H24_7 1_555 1_555
C20_7 H29_7 1_555 1_555
C20_7 H30_7 1_555 1_555
C20_7 H31_7 1_555 1_555
C24_7 H35_7 1_555 1_555
C24_7 H36_7 1_555 1_555
C9_8 H13_8 1_555 1_555
C9_8 H14_8 1_555 1_555
C11_8 H15_8 1_555 1_555
C11_8 H16_8 1_555 1_555
C11_8 H17_8 1_555 1_555
C8_8 H18_8 1_555 1_555
C8_8 H19_8 1_555 1_555
C23_8 H23_8 1_555 1_555
C23_8 H24_8 1_555 1_555
C20_8 H29_8 1_555 1_555
C20_8 H30_8 1_555 1_555
C20_8 H31_8 1_555 1_555
C24_8 H35_8 1_555 1_555
C24_8 H36_8 1_555 1_555

#END
