
###############################################################################
#
# This file contains modified crystal structure data generated from the
# MOF subset of the Cambridge Structural Database (CSD) v543 
# hosted by the Cambridge Crystallographic Data Centre (CCDC).
#
# This work is licensed under the Creative Commons
# Attribution-NonCommercial-ShareAlike 4.0 International License.
# To view a copy of this license, visit
# http://creativecommons.org/licenses/by-nc-sa/4.0/
# or send a letter to
# Creative Commons, PO Box 1866, Mountain View, CA 94042, USA.
#
# CIF created using the CSD Python API on 29 September 2022
# The structure has been converted into the P1 space group
# The structure has a 3D framework
# The original CSD entry ZATPIW is in the tetragonal crystal system
# The framework has been calculated to contain at least 10.0% void space
# The void calculation uses a probe of radius 1.32A, grid spacing 0.4
# H atom positions have been added when not included in the experimental data
#
###############################################################################

data_ZATPIW
_chemical_formula_moiety         '(C144 H208 N80 O120 S32 Zr34)n'
_symmetry_cell_setting           triclinic
_symmetry_space_group_name_H-M   'P 1'
_symmetry_Int_Tables_number      1
_space_group_name_Hall           'P 1'
loop_
_symmetry_equiv_pos_site_id
_symmetry_equiv_pos_as_xyz
1 x,y,z
_cell_length_a                   27.62861(37)
_cell_length_b                   27.62861(37)
_cell_length_c                   13.50100(45)
_cell_angle_alpha                90
_cell_angle_beta                 90
_cell_angle_gamma                90
_cell_volume                     10305.9
loop_
_atom_site_label
_atom_site_type_symbol
_atom_site_fract_x
_atom_site_fract_y
_atom_site_fract_z
O1 O 0.5371(13) 0.55964(59) 0.2341(18)
O2 O 0.88395(58) 0.57609(62) 0.2652(27)
O3 O 0.85022(71) 0.49842(65) 0.2889(17)
O4 O 0.5485(16) 0.6068(10) 0.3724(14)
C1 C 0.643432 0.676628 0.250921
N1 N 0.657537 0.628439 0.264880
N2 N 0.706738 0.616428 0.268186
C2 C 0.741835 0.652605 0.257533
N3 N 0.727729 0.700794 0.243574
N4 N 0.678528 0.712806 0.240268
S1 S 0.581189 0.691823 0.246739
S2 S 0.804077 0.637410 0.261716
C3 C 0.5412(13) 0.60180(80) 0.2794(18)
C4 C 0.53625(94) 0.64751(84) 0.2219(20)
C5 C 0.80145(89) 0.57850(77) 0.2755(44)
C6 C 0.84859(83) 0.54921(99) 0.2909(25)
Zr1 Zr 0.41740(25) 0.53644(30) 0.49082(80)
Zr2 Zr 0.500 0.500 0.31399(84)
O5 O 0.544642 0.487396 0.199995
C7 C 0.569748 0.479572 0.120148
N5 N 0.562122 0.440767 0.067973
C9 C 0.529391 0.409788 0.095646
H1 H 0.594423 0.502926 0.099287
O6 O 0.4784(12) 0.5597(13) 0.4152(22)
O7 O 0.4589(13) 0.4818(11) 0.4345(23)
O8 O 0.3762(13) 0.5645(15) 0.3808(24)
O9 O 0.4629(13) 0.44036(59) 0.2341(18)
O10 O 0.11605(58) 0.42391(62) 0.2652(27)
O11 O 0.14978(71) 0.50158(65) 0.2889(17)
O12 O 0.4515(16) 0.3932(10) 0.3724(14)
C10 C 0.356568 0.323372 0.250921
N6 N 0.342463 0.371561 0.264880
N7 N 0.293262 0.383572 0.268186
C11 C 0.258165 0.347395 0.257533
N8 N 0.272271 0.299206 0.243574
N9 N 0.321472 0.287194 0.240268
S3 S 0.418811 0.308177 0.246739
S4 S 0.195923 0.362590 0.261716
C12 C 0.4588(13) 0.39820(80) 0.2794(18)
C13 C 0.46375(94) 0.35249(84) 0.2219(20)
C14 C 0.19855(89) 0.42150(77) 0.2755(44)
C15 C 0.15141(83) 0.45079(99) 0.2909(25)
Zr3 Zr 0.58260(25) 0.46356(30) 0.49082(80)
O13 O 0.455358 0.512604 0.199995
C16 C 0.430252 0.520428 0.120148
N10 N 0.437878 0.559233 0.067973
C18 C 0.470609 0.590212 0.095646
H2 H 0.405577 0.497074 0.099287
O14 O 0.5216(12) 0.4403(13) 0.4152(22)
O15 O 0.5411(13) 0.5182(11) 0.4345(23)
O16 O 0.6238(13) 0.4355(15) 0.3808(24)
O17 O 0.42391(62) 0.61605(58) 0.5152(27)
O18 O 0.57609(62) 0.38395(58) 0.5152(27)
O19 O 0.64978(71) 0.49842(65) 0.4611(17)
O20 O 0.35022(71) 0.50158(65) 0.4611(17)
O21 O 0.3932(10) 0.5485(16) 0.6276(14)
O22 O 0.6068(10) 0.4515(16) 0.6276(14)
Zr4 Zr 0.08260(25) 0.53644(30) 0.25918(80)
Zr5 Zr 0.46356(30) 0.41740(25) 0.50918(80)
Zr6 Zr 0.96356(30) 0.58260(25) 0.24082(80)
Zr7 Zr 0.53644(30) 0.58260(25) 0.50918(80)
Zr8 Zr 0.03644(30) 0.41740(25) 0.24082(80)
Zr9 Zr 0.91740(25) 0.46356(30) 0.25918(80)
O23 O 0.4403(13) 0.4784(12) 0.5848(22)
O24 O 0.5597(13) 0.5216(12) 0.5848(22)
O25 O 0.5182(11) 0.4589(13) 0.5655(23)
O26 O 0.4818(11) 0.5411(13) 0.5655(23)
H3 H 0.462044 0.361457 0.143432
H4 H 0.498949 0.336799 0.238825
H5 H 0.505799 0.572493 0.09796
H6 H 0.471778 0.620125 0.0431737
H7 H 0.461668 0.60397 0.168986
H8 H 0.537956 0.638543 0.143432
H9 H 0.501051 0.663201 0.238825
H10 H 0.784093 0.564082 0.209365
H11 H 0.778602 0.571609 0.339696
H12 H 0.215907 0.435918 0.209365
H13 H 0.221398 0.428391 0.339696
H14 H 0.384607 0.548563 0.317161
H15 H 0.34147 0.558873 0.395822
H16 H 0.615393 0.451437 0.317161
H17 H 0.65853 0.441127 0.395822
H18 H 0.374495 0.56907 0.00692829
H21 H 0.625505 0.43093 0.00692829
H24 H 0.494201 0.427507 0.09796
H25 H 0.528222 0.379875 0.0431737
H26 H 0.538332 0.39603 0.168986
O1_2 O 0.4629(13) 0.05964(59) 0.0159(18)
N3_2 N 0.272271 0.200794 0.006426
N4_2 N 0.321472 0.212806 0.009732
S1_2 S 0.418811 0.191823 0.003261
C4_2 C 0.46375(94) 0.14751(84) 0.0281(20)
H1_2 H 0.405577 0.002926 0.150713
O13_2 O 0.544642 0.012604 0.050005
C16_2 C 0.569748 0.020428 0.129852
N10_2 N 0.562122 0.059233 0.182027
C17 C 0.587228 0.067057 0.261875
C18_2 C 0.529391 0.090212 0.154354
Zr6_2 Zr 0.03644(30) 0.08260(25) 0.00918(80)
H5_2 H 0.494201 0.0724932 0.15204
H6_2 H 0.528222 0.120125 0.206826
H7_2 H 0.538332 0.10397 0.0810139
H8_2 H 0.462044 0.138543 0.106568
H9_2 H 0.498949 0.163201 0.0111748
H10_2 H 0.215907 0.0640817 0.0406351
H18_2 H 0.625505 0.0690696 0.243072
H19 H 0.575837 0.101062 0.295344
H20 H 0.581374 0.0375934 0.314097
O2_2 O 0.11605(58) 0.07609(62) 0.9848(27)
O4_2 O 0.4515(16) 0.1068(10) 0.8776(14)
C1_2 C 0.356568 0.176628 0.999079
N1_2 N 0.342463 0.128439 0.985120
N2_2 N 0.293262 0.116428 0.981814
C2_2 C 0.258165 0.152605 0.992467
S2_2 S 0.195923 0.137410 0.988284
C3_2 C 0.4588(13) 0.10180(80) 0.9706(18)
C5_2 C 0.19855(89) 0.07850(77) 0.9745(44)
C6_2 C 0.15141(83) 0.04921(99) 0.9591(25)
Zr1_2 Zr 0.58260(25) 0.03644(30) 0.75918(80)
Zr2_2 Zr 0.500 -0.000 0.93601(84)
O6_2 O 0.5216(12) 0.0597(13) 0.8348(22)
O8_2 O 0.6238(13) 0.0645(15) 0.8692(24)
O11_2 O 0.85022(71) 0.00158(65) 0.9611(17)
O15_2 O 0.4589(13) 0.0182(11) 0.8155(23)
O17_2 O 0.57609(62) 0.11605(58) 0.7348(27)
O20_2 O 0.64978(71) 0.00158(65) 0.7889(17)
O21_2 O 0.6068(10) 0.0485(16) 0.6224(14)
Zr4_2 Zr 0.91740(25) 0.03644(30) 0.99082(80)
Zr7_2 Zr 0.46356(30) 0.08260(25) 0.74082(80)
O24_2 O 0.4403(13) 0.0216(12) 0.6652(22)
O26_2 O 0.5182(11) 0.0411(13) 0.6845(23)
H11_2 H 0.221398 0.0716085 0.910304
H14_2 H 0.615393 0.0485628 0.932839
H15_2 H 0.65853 0.0588733 0.854178
O5_2 O 0.455358 0.987396 0.050005
C7_2 C 0.430252 0.979572 0.129852
N5_2 N 0.437878 0.940767 0.182027
C8 C 0.412772 0.932943 0.261875
C9_2 C 0.470609 0.909788 0.154354
O9_2 O 0.5371(13) 0.94036(59) 0.0159(18)
N8_2 N 0.727729 0.799206 0.006426
N9_2 N 0.678528 0.787194 0.009732
S3_2 S 0.581189 0.808177 0.003261
C13_2 C 0.53625(94) 0.85249(84) 0.0281(20)
H2_2 H 0.594423 0.997074 0.150713
Zr8_2 Zr 0.96356(30) 0.91740(25) 0.00918(80)
H3_2 H 0.537956 0.861457 0.106568
H4_2 H 0.501051 0.836799 0.0111748
H12_2 H 0.784093 0.935918 0.0406351
H21_2 H 0.374495 0.93093 0.243072
H22 H 0.424163 0.898938 0.295344
H23 H 0.418626 0.962407 0.314097
H24_2 H 0.505799 0.927507 0.15204
H25_2 H 0.471778 0.879875 0.206826
H26_2 H 0.461668 0.89603 0.0810139
O3_2 O 0.14978(71) 0.99842(65) 0.9611(17)
Zr2_3 Zr 0.500 1.000 0.93601(84)
O7_2 O 0.5411(13) 0.9818(11) 0.8155(23)
O10_2 O 0.88395(58) 0.92391(62) 0.9848(27)
O12_2 O 0.5485(16) 0.8932(10) 0.8776(14)
C10_2 C 0.643432 0.823372 0.999079
N6_2 N 0.657537 0.871561 0.985120
N7_2 N 0.706738 0.883572 0.981814
C11_2 C 0.741835 0.847395 0.992467
S4_2 S 0.804077 0.862590 0.988284
C12_2 C 0.5412(13) 0.89820(80) 0.9706(18)
C14_2 C 0.80145(89) 0.92150(77) 0.9745(44)
C15_2 C 0.84859(83) 0.95079(99) 0.9591(25)
Zr3_2 Zr 0.41740(25) 0.96356(30) 0.75918(80)
O14_2 O 0.4784(12) 0.9403(13) 0.8348(22)
O16_2 O 0.3762(13) 0.9355(15) 0.8692(24)
O18_2 O 0.42391(62) 0.88395(58) 0.7348(27)
O19_2 O 0.35022(71) 0.99842(65) 0.7889(17)
O22_2 O 0.3932(10) 0.9515(16) 0.6224(14)
Zr5_2 Zr 0.53644(30) 0.91740(25) 0.74082(80)
Zr9_2 Zr 0.08260(25) 0.96356(30) 0.99082(80)
O23_2 O 0.5597(13) 0.9784(12) 0.6652(22)
O25_2 O 0.4818(11) 0.9589(13) 0.6845(23)
H13_2 H 0.778602 0.928391 0.910304
H16_2 H 0.384607 0.951437 0.932839
H17_2 H 0.34147 0.941127 0.854178
O23_3 O 0.0597(13) 0.0216(12) 0.0848(22)
Zr2_4 Zr 0.000 0.000 0.81399(84)
O7_3 O 0.0411(13) 0.0182(11) 0.9345(23)
O9_3 O 0.0371(13) 0.05964(59) 0.7341(18)
O10_3 O 0.38395(58) 0.07609(62) 0.7652(27)
O12_3 O 0.0485(16) 0.1068(10) 0.8724(14)
C10_3 C 0.143432 0.176628 0.750921
N6_3 N 0.157537 0.128439 0.764880
N7_3 N 0.206738 0.116428 0.768186
C11_3 C 0.241835 0.152605 0.757533
N8_3 N 0.227729 0.200794 0.743574
N9_3 N 0.178528 0.212806 0.740268
S3_3 S 0.081189 0.191823 0.746739
S4_3 S 0.304077 0.137410 0.761716
C12_3 C 0.0412(13) 0.10180(80) 0.7794(18)
C13_3 C 0.03625(94) 0.14751(84) 0.7219(20)
C14_3 C 0.30145(89) 0.07850(77) 0.7755(44)
C15_3 C 0.34859(83) 0.04921(99) 0.7909(25)
H2_3 H 0.094423 0.002926 0.599287
H3_3 H 0.0379556 0.138543 0.643432
H4_3 H 0.0010508 0.163201 0.738825
H12_3 H 0.284093 0.0640817 0.709365
H13_3 H 0.278602 0.0716085 0.839696
H24_3 H 0.00579932 0.0724932 0.59796
O17_3 O 0.07609(62) 0.88395(58) 0.0152(27)
O21_3 O 0.1068(10) 0.9515(16) 0.1276(14)
O26_3 O 0.0182(11) 0.9589(13) 0.0655(23)
Zr2_5 Zr 0.000 1.000 0.81399(84)
O6_3 O 0.0216(12) 0.9403(13) 0.9152(22)
O8_3 O 0.1238(13) 0.9355(15) 0.8808(24)
O13_3 O 0.044642 0.987396 0.699995
C16_3 C 0.069748 0.979572 0.620148
N10_3 N 0.062122 0.940767 0.567973
C17_2 C 0.087228 0.932943 0.488125
C18_3 C 0.029391 0.909788 0.595646
H6_3 H 0.0282218 0.879875 0.543174
H7_3 H 0.0383316 0.89603 0.668986
H14_3 H 0.115393 0.951437 0.817161
H15_3 H 0.15853 0.941127 0.895822
H18_3 H 0.125505 0.93093 0.506928
H19_2 H 0.0758365 0.898938 0.454656
H20_2 H 0.0813736 0.962407 0.435903
O18_3 O 0.92391(62) 0.11605(58) 0.0152(27)
O22_3 O 0.8932(10) 0.0485(16) 0.1276(14)
O25_3 O 0.9818(11) 0.0411(13) 0.0655(23)
Zr2_6 Zr 1.000 0.000 0.81399(84)
O5_3 O 0.955358 0.012604 0.699995
C7_3 C 0.930252 0.020428 0.620148
N5_3 N 0.937878 0.059233 0.567973
C8_2 C 0.912772 0.067057 0.488125
C9_3 C 0.970609 0.090212 0.595646
O14_3 O 0.9784(12) 0.0597(13) 0.9152(22)
O16_3 O 0.8762(13) 0.0645(15) 0.8808(24)
H16_3 H 0.884607 0.0485628 0.817161
H17_3 H 0.84147 0.0588733 0.895822
H21_3 H 0.874495 0.0690696 0.506928
H22_2 H 0.924163 0.101062 0.454656
H23_2 H 0.918626 0.0375934 0.435903
H25_3 H 0.971778 0.120125 0.543174
H26_3 H 0.961668 0.10397 0.668986
O24_3 O 0.9403(13) 0.9784(12) 0.0848(22)
O1_3 O 0.9629(13) 0.94036(59) 0.7341(18)
O2_3 O 0.61605(58) 0.92391(62) 0.7652(27)
O4_3 O 0.9515(16) 0.8932(10) 0.8724(14)
C1_3 C 0.856568 0.823372 0.750921
N1_3 N 0.842463 0.871561 0.764880
N2_3 N 0.793262 0.883572 0.768186
C2_3 C 0.758165 0.847395 0.757533
N3_3 N 0.772271 0.799206 0.743574
N4_3 N 0.821472 0.787194 0.740268
S1_3 S 0.918811 0.808177 0.746739
S2_3 S 0.695923 0.862590 0.761716
C3_3 C 0.9588(13) 0.89820(80) 0.7794(18)
C4_3 C 0.96375(94) 0.85249(84) 0.7219(20)
C5_3 C 0.69855(89) 0.92150(77) 0.7755(44)
C6_3 C 0.65141(83) 0.95079(99) 0.7909(25)
Zr2_7 Zr 1.000 1.000 0.81399(84)
H1_3 H 0.905577 0.997074 0.599287
O15_3 O 0.9589(13) 0.9818(11) 0.9345(23)
H5_3 H 0.994201 0.927507 0.59796
H8_3 H 0.962044 0.861457 0.643432
H9_3 H 0.998949 0.836799 0.738825
H10_3 H 0.715907 0.935918 0.709365
H11_3 H 0.721398 0.928391 0.839696
Zr2_8 Zr 0.000 0.500 0.43601(84)
O6_4 O 0.0216(12) 0.5597(13) 0.3348(22)
O7_4 O 0.0411(13) 0.4818(11) 0.3155(23)
O8_4 O 0.1238(13) 0.5645(15) 0.3692(24)
O9_4 O 0.0371(13) 0.44036(59) 0.5159(18)
O10_4 O 0.38395(58) 0.42391(62) 0.4848(27)
O12_4 O 0.0485(16) 0.3932(10) 0.3776(14)
C10_4 C 0.143432 0.323372 0.499079
N6_4 N 0.157537 0.371561 0.485120
N7_4 N 0.206738 0.383572 0.481814
C11_4 C 0.241835 0.347395 0.492467
N8_4 N 0.227729 0.299206 0.506426
N9_4 N 0.178528 0.287194 0.509732
S3_4 S 0.081189 0.308177 0.503261
S4_4 S 0.304077 0.362590 0.488284
C12_4 C 0.0412(13) 0.39820(80) 0.4706(18)
C13_4 C 0.03625(94) 0.35249(84) 0.5281(20)
C14_4 C 0.30145(89) 0.42150(77) 0.4745(44)
C15_4 C 0.34859(83) 0.45079(99) 0.4591(25)
O13_4 O 0.044642 0.512604 0.550005
C16_4 C 0.069748 0.520428 0.629852
N10_4 N 0.062122 0.559233 0.682027
C17_3 C 0.087228 0.567057 0.761875
C18_4 C 0.029391 0.590212 0.654354
H2_4 H 0.094423 0.497074 0.650713
O17_4 O 0.07609(62) 0.61605(58) 0.2348(27)
O21_4 O 0.1068(10) 0.5485(16) 0.1224(14)
O23_4 O 0.0597(13) 0.4784(12) 0.1652(22)
O26_4 O 0.0182(11) 0.5411(13) 0.1845(23)
H3_4 H 0.0379556 0.361457 0.606568
H4_4 H 0.0010508 0.336799 0.511175
H6_4 H 0.0282218 0.620125 0.706826
H7_4 H 0.0383316 0.60397 0.581014
H12_4 H 0.284093 0.435918 0.540635
H13_4 H 0.278602 0.428391 0.410304
H14_4 H 0.115393 0.548563 0.432839
H15_4 H 0.15853 0.558873 0.354178
H18_4 H 0.125505 0.56907 0.743072
H19_3 H 0.0758365 0.601062 0.795344
H20_3 H 0.0813736 0.537593 0.814097
H24_4 H 0.00579932 0.427507 0.65204
O1_4 O 0.9629(13) 0.55964(59) 0.5159(18)
O2_4 O 0.61605(58) 0.57609(62) 0.4848(27)
O4_4 O 0.9515(16) 0.6068(10) 0.3776(14)
C1_4 C 0.856568 0.676628 0.499079
N1_4 N 0.842463 0.628439 0.485120
N2_4 N 0.793262 0.616428 0.481814
C2_4 C 0.758165 0.652605 0.492467
N3_4 N 0.772271 0.700794 0.506426
N4_4 N 0.821472 0.712806 0.509732
S1_4 S 0.918811 0.691823 0.503261
S2_4 S 0.695923 0.637410 0.488284
C3_4 C 0.9588(13) 0.60180(80) 0.4706(18)
C4_4 C 0.96375(94) 0.64751(84) 0.5281(20)
C5_4 C 0.69855(89) 0.57850(77) 0.4745(44)
C6_4 C 0.65141(83) 0.54921(99) 0.4591(25)
Zr2_9 Zr 1.000 0.500 0.43601(84)
O5_4 O 0.955358 0.487396 0.550005
C7_4 C 0.930252 0.479572 0.629852
N5_4 N 0.937878 0.440767 0.682027
C8_3 C 0.912772 0.432943 0.761875
C9_4 C 0.970609 0.409788 0.654354
H1_4 H 0.905577 0.502926 0.650713
O14_4 O 0.9784(12) 0.4403(13) 0.3348(22)
O15_4 O 0.9589(13) 0.5182(11) 0.3155(23)
O16_4 O 0.8762(13) 0.4355(15) 0.3692(24)
O18_4 O 0.92391(62) 0.38395(58) 0.2348(27)
O22_4 O 0.8932(10) 0.4515(16) 0.1224(14)
O24_4 O 0.9403(13) 0.5216(12) 0.1652(22)
O25_4 O 0.9818(11) 0.4589(13) 0.1845(23)
H5_4 H 0.994201 0.572493 0.65204
H8_4 H 0.962044 0.638543 0.606568
H9_4 H 0.998949 0.663201 0.511175
H10_4 H 0.715907 0.564082 0.540635
H11_4 H 0.721398 0.571609 0.410304
H16_4 H 0.884607 0.451437 0.432839
H17_4 H 0.84147 0.441127 0.354178
H21_4 H 0.874495 0.43093 0.743072
H22_3 H 0.924163 0.398938 0.795344
H23_3 H 0.918626 0.462407 0.814097
H25_4 H 0.971778 0.379875 0.706826
H26_4 H 0.961668 0.39603 0.581014
Zr2_10 Zr 0.500 0.000 0.56399(84)
O8_5 O 0.4355(15) 0.1238(13) 0.6308(24)
O9_5 O 0.55964(59) 0.0371(13) 0.4841(18)
O11_3 O 0.49842(65) 0.35022(71) 0.5389(17)
C10_5 C 0.676628 0.143432 0.500921
N6_5 N 0.628439 0.157537 0.514880
N7_5 N 0.616428 0.206738 0.518186
C11_5 C 0.652605 0.241835 0.507533
N8_5 N 0.700794 0.227729 0.493574
N9_5 N 0.712806 0.178528 0.490268
S3_5 S 0.691823 0.081189 0.496739
S4_5 S 0.637410 0.304077 0.511716
C12_5 C 0.60180(80) 0.0412(13) 0.5294(18)
C13_5 C 0.64751(84) 0.03625(94) 0.4719(20)
C14_5 C 0.57850(77) 0.30145(89) 0.5255(44)
C15_5 C 0.54921(99) 0.34859(83) 0.5409(25)
O13_5 O 0.487396 0.044642 0.449995
C16_5 C 0.479572 0.069748 0.370148
N10_5 N 0.440767 0.062122 0.317973
C17_4 C 0.432943 0.087228 0.238125
C18_5 C 0.409788 0.029391 0.345646
H2_5 H 0.502926 0.094423 0.349287
O20_3 O 0.49842(65) 0.14978(71) 0.7111(17)
H3_5 H 0.638543 0.0379556 0.393432
H4_5 H 0.663201 0.0010508 0.488825
H6_5 H 0.379875 0.0282218 0.293174
H7_5 H 0.39603 0.0383316 0.418986
H12_5 H 0.564082 0.284093 0.459365
H13_5 H 0.571609 0.278602 0.589696
H14_5 H 0.451437 0.115393 0.567161
H15_5 H 0.441127 0.15853 0.645822
H18_5 H 0.43093 0.125505 0.256928
H19_4 H 0.398938 0.0758365 0.204656
H20_4 H 0.462407 0.0813736 0.185903
H24_5 H 0.572493 0.00579932 0.34796
O1_5 O 0.44036(59) 0.9629(13) 0.4841(18)
O3_3 O 0.50158(65) 0.64978(71) 0.5389(17)
C1_5 C 0.323372 0.856568 0.500921
N1_5 N 0.371561 0.842463 0.514880
N2_5 N 0.383572 0.793262 0.518186
C2_5 C 0.347395 0.758165 0.507533
N3_5 N 0.299206 0.772271 0.493574
N4_5 N 0.287194 0.821472 0.490268
S1_5 S 0.308177 0.918811 0.496739
S2_5 S 0.362590 0.695923 0.511716
C3_5 C 0.39820(80) 0.9588(13) 0.5294(18)
C4_5 C 0.35249(84) 0.96375(94) 0.4719(20)
C5_5 C 0.42150(77) 0.69855(89) 0.5255(44)
C6_5 C 0.45079(99) 0.65141(83) 0.5409(25)
Zr2_11 Zr 0.500 1.000 0.56399(84)
O5_5 O 0.512604 0.955358 0.449995
C7_5 C 0.520428 0.930252 0.370148
N5_5 N 0.559233 0.937878 0.317973
C8_4 C 0.567057 0.912772 0.238125
C9_5 C 0.590212 0.970609 0.345646
H1_5 H 0.497074 0.905577 0.349287
O16_5 O 0.5645(15) 0.8762(13) 0.6308(24)
O19_3 O 0.50158(65) 0.85022(71) 0.7111(17)
H5_5 H 0.427507 0.994201 0.34796
H8_5 H 0.361457 0.962044 0.393432
H9_5 H 0.336799 0.998949 0.488825
H10_5 H 0.435918 0.715907 0.459365
H11_5 H 0.428391 0.721398 0.589696
H16_5 H 0.548563 0.884607 0.567161
H17_5 H 0.558873 0.84147 0.645822
H21_5 H 0.56907 0.874495 0.256928
H22_4 H 0.601062 0.924163 0.204656
H23_4 H 0.537593 0.918626 0.185903
H25_5 H 0.620125 0.971778 0.293174
H26_5 H 0.60397 0.961668 0.418986
O1_6 O 0.44036(59) 0.5371(13) 0.7659(18)
C1_6 C 0.323372 0.643432 0.749079
N1_6 N 0.371561 0.657537 0.735120
N2_6 N 0.383572 0.706738 0.731814
C2_6 C 0.347395 0.741835 0.742467
N3_6 N 0.299206 0.727729 0.756426
N4_6 N 0.287194 0.678528 0.759732
S1_6 S 0.308177 0.581189 0.753261
S2_6 S 0.362590 0.804077 0.738284
C3_6 C 0.39820(80) 0.5412(13) 0.7206(18)
C4_6 C 0.35249(84) 0.53625(94) 0.7781(20)
C5_6 C 0.42150(77) 0.80145(89) 0.7245(44)
C6_6 C 0.45079(99) 0.84859(83) 0.7091(25)
Zr2_12 Zr 0.500 0.500 0.68601(84)
O5_6 O 0.512604 0.544642 0.800005
C7_6 C 0.520428 0.569748 0.879852
N5_6 N 0.559233 0.562122 0.932027
C9_6 C 0.590212 0.529391 0.904354
H1_6 H 0.497074 0.594423 0.900713
O8_6 O 0.4355(15) 0.3762(13) 0.6192(24)
O9_6 O 0.55964(59) 0.4629(13) 0.7659(18)
C10_6 C 0.676628 0.356568 0.749079
N6_6 N 0.628439 0.342463 0.735120
N7_6 N 0.616428 0.293262 0.731814
C11_6 C 0.652605 0.258165 0.742467
N8_6 N 0.700794 0.272271 0.756426
N9_6 N 0.712806 0.321472 0.759732
S3_6 S 0.691823 0.418811 0.753261
S4_6 S 0.637410 0.195923 0.738284
C12_6 C 0.60180(80) 0.4588(13) 0.7206(18)
C13_6 C 0.64751(84) 0.46375(94) 0.7781(20)
C14_6 C 0.57850(77) 0.19855(89) 0.7245(44)
C15_6 C 0.54921(99) 0.15141(83) 0.7091(25)
O13_6 O 0.487396 0.455358 0.800005
C16_6 C 0.479572 0.430252 0.879852
N10_6 N 0.440767 0.437878 0.932027
C18_6 C 0.409788 0.470609 0.904354
H2_6 H 0.502926 0.405577 0.900713
O16_6 O 0.5645(15) 0.6238(13) 0.6192(24)
H3_6 H 0.638543 0.462044 0.856568
H4_6 H 0.663201 0.498949 0.761175
H5_6 H 0.427507 0.505799 0.90204
H6_6 H 0.379875 0.471778 0.956826
H7_6 H 0.39603 0.461668 0.831014
H8_6 H 0.361457 0.537956 0.856568
H9_6 H 0.336799 0.501051 0.761175
H10_6 H 0.435918 0.784093 0.790635
H11_6 H 0.428391 0.778602 0.660304
H12_6 H 0.564082 0.215907 0.790635
H13_6 H 0.571609 0.221398 0.660304
H14_6 H 0.451437 0.384607 0.682839
H15_6 H 0.441127 0.34147 0.604178
H16_6 H 0.548563 0.615393 0.682839
H17_6 H 0.558873 0.65853 0.604178
H18_6 H 0.43093 0.374495 0.993072
H21_6 H 0.56907 0.625505 0.993072
H24_6 H 0.572493 0.494201 0.90204
H25_6 H 0.620125 0.528222 0.956826
H26_6 H 0.60397 0.538332 0.831014
O3_4 O 0.00158(65) 0.14978(71) 0.0389(17)
Zr2_13 Zr 0.000 0.500 0.06399(84)
C10_7 C 0.176628 0.643432 0.000921
N6_7 N 0.128439 0.657537 0.014880
N7_7 N 0.116428 0.706738 0.018186
C11_7 C 0.152605 0.741835 0.007533
S4_7 S 0.137410 0.804077 0.011716
C12_7 C 0.10180(80) 0.5412(13) 0.0294(18)
C14_7 C 0.07850(77) 0.80145(89) 0.0255(44)
C15_7 C 0.04921(99) 0.84859(83) 0.0409(25)
O16_7 O 0.0645(15) 0.3762(13) 0.1308(24)
O19_4 O 0.00158(65) 0.35022(71) 0.2111(17)
H13_7 H 0.0716085 0.778602 0.0896961
H16_7 H 0.0485628 0.384607 0.0671606
H17_7 H 0.0588733 0.34147 0.145822
O5_7 O 0.012604 0.455358 0.949995
C7_7 C 0.020428 0.430252 0.870148
N5_7 N 0.059233 0.437878 0.817973
C8_5 C 0.067057 0.412772 0.738125
C9_7 C 0.090212 0.470609 0.845646
O9_7 O 0.05964(59) 0.5371(13) 0.9841(18)
N8_7 N 0.200794 0.727729 0.993574
N9_7 N 0.212806 0.678528 0.990268
S3_7 S 0.191823 0.581189 0.996739
C13_7 C 0.14751(84) 0.53625(94) 0.9719(20)
H2_7 H 0.002926 0.594423 0.849287
H3_7 H 0.138543 0.537956 0.893432
H4_7 H 0.163201 0.501051 0.988825
H12_7 H 0.0640817 0.784093 0.959365
H21_7 H 0.0690696 0.374495 0.756928
H22_5 H 0.101062 0.424163 0.704656
H23_5 H 0.0375934 0.418626 0.685903
H24_7 H 0.0724932 0.505799 0.84796
H25_7 H 0.120125 0.471778 0.793174
H26_7 H 0.10397 0.461668 0.918986
C1_7 C 0.823372 0.356568 0.000921
N1_7 N 0.871561 0.342463 0.014880
N2_7 N 0.883572 0.293262 0.018186
C2_7 C 0.847395 0.258165 0.007533
S2_7 S 0.862590 0.195923 0.011716
C3_7 C 0.89820(80) 0.4588(13) 0.0294(18)
C5_7 C 0.92150(77) 0.19855(89) 0.0255(44)
C6_7 C 0.95079(99) 0.15141(83) 0.0409(25)
Zr2_14 Zr 1.000 0.500 0.06399(84)
O8_7 O 0.9355(15) 0.6238(13) 0.1308(24)
O11_4 O 0.99842(65) 0.85022(71) 0.0389(17)
O20_4 O 0.99842(65) 0.64978(71) 0.2111(17)
H11_7 H 0.928391 0.221398 0.0896961
H14_7 H 0.951437 0.615393 0.0671606
H15_7 H 0.941127 0.65853 0.145822
O1_7 O 0.94036(59) 0.4629(13) 0.9841(18)
N3_7 N 0.799206 0.272271 0.993574
N4_7 N 0.787194 0.321472 0.990268
S1_7 S 0.808177 0.418811 0.996739
C4_7 C 0.85249(84) 0.46375(94) 0.9719(20)
H1_7 H 0.997074 0.405577 0.849287
O13_7 O 0.987396 0.544642 0.949995
C16_7 C 0.979572 0.569748 0.870148
N10_7 N 0.940767 0.562122 0.817973
C17_5 C 0.932943 0.587228 0.738125
C18_7 C 0.909788 0.529391 0.845646
H5_7 H 0.927507 0.494201 0.84796
H6_7 H 0.879875 0.528222 0.793174
H7_7 H 0.89603 0.538332 0.918986
H8_7 H 0.861457 0.462044 0.893432
H9_7 H 0.836799 0.498949 0.988825
H10_7 H 0.935918 0.215907 0.959365
H18_7 H 0.93093 0.625505 0.756928
H19_5 H 0.898938 0.575837 0.704656
H20_5 H 0.962407 0.581374 0.685903
Zr2_15 Zr 0.000 -0.000 0.18601(84)
O5_8 O 0.012604 0.044642 0.300005
C7_8 C 0.020428 0.069748 0.379852
N5_8 N 0.059233 0.062122 0.432027
C8_6 C 0.067057 0.087228 0.511875
C9_8 C 0.090212 0.029391 0.404354
O16_8 O 0.0645(15) 0.1238(13) 0.1192(24)
H16_8 H 0.0485628 0.115393 0.182839
H17_8 H 0.0588733 0.15853 0.104178
H21_8 H 0.0690696 0.125505 0.493072
H22_6 H 0.101062 0.0758365 0.545344
H23_6 H 0.0375934 0.0813736 0.564097
H25_8 H 0.120125 0.0282218 0.456826
H26_8 H 0.10397 0.0383316 0.331014
Zr2_16 Zr 0.000 1.000 0.18601(84)
O9_8 O 0.05964(59) 0.9629(13) 0.2659(18)
C10_8 C 0.176628 0.856568 0.249079
N6_8 N 0.128439 0.842463 0.235120
N7_8 N 0.116428 0.793262 0.231814
C11_8 C 0.152605 0.758165 0.242467
N8_8 N 0.200794 0.772271 0.256426
N9_8 N 0.212806 0.821472 0.259732
S3_8 S 0.191823 0.918811 0.253261
S4_8 S 0.137410 0.695923 0.238284
C12_8 C 0.10180(80) 0.9588(13) 0.2206(18)
C13_8 C 0.14751(84) 0.96375(94) 0.2781(20)
C14_8 C 0.07850(77) 0.69855(89) 0.2245(44)
C15_8 C 0.04921(99) 0.65141(83) 0.2091(25)
H2_8 H 0.002926 0.905577 0.400713
H3_8 H 0.138543 0.962044 0.356568
H4_8 H 0.163201 0.998949 0.261175
H12_8 H 0.0640817 0.715907 0.290635
H13_8 H 0.0716085 0.721398 0.160304
H24_8 H 0.0724932 0.994201 0.40204
O1_8 O 0.94036(59) 0.0371(13) 0.2659(18)
C1_8 C 0.823372 0.143432 0.249079
N1_8 N 0.871561 0.157537 0.235120
N2_8 N 0.883572 0.206738 0.231814
C2_8 C 0.847395 0.241835 0.242467
N3_8 N 0.799206 0.227729 0.256426
N4_8 N 0.787194 0.178528 0.259732
S1_8 S 0.808177 0.081189 0.253261
S2_8 S 0.862590 0.304077 0.238284
C3_8 C 0.89820(80) 0.0412(13) 0.2206(18)
C4_8 C 0.85249(84) 0.03625(94) 0.2781(20)
C5_8 C 0.92150(77) 0.30145(89) 0.2245(44)
C6_8 C 0.95079(99) 0.34859(83) 0.2091(25)
Zr2_17 Zr 1.000 -0.000 0.18601(84)
H1_8 H 0.997074 0.094423 0.400713
H5_8 H 0.927507 0.00579932 0.40204
H8_8 H 0.861457 0.0379556 0.356568
H9_8 H 0.836799 0.0010508 0.261175
H10_8 H 0.935918 0.284093 0.290635
H11_8 H 0.928391 0.278602 0.160304
Zr2_18 Zr 1.000 1.000 0.18601(84)
O8_8 O 0.9355(15) 0.8762(13) 0.1192(24)
O13_8 O 0.987396 0.955358 0.300005
C16_8 C 0.979572 0.930252 0.379852
N10_8 N 0.940767 0.937878 0.432027
C17_6 C 0.932943 0.912772 0.511875
C18_8 C 0.909788 0.970609 0.404354
H6_8 H 0.879875 0.971778 0.456826
H7_8 H 0.89603 0.961668 0.331014
H14_8 H 0.951437 0.884607 0.182839
H15_8 H 0.941127 0.84147 0.104178
H18_8 H 0.93093 0.874495 0.493072
H19_6 H 0.898938 0.924163 0.545344
H20_6 H 0.962407 0.918626 0.564097
C8_7 C 0.587228 0.432943 0.988125
C17_7 C 0.412772 0.567057 0.988125
H19_7 H 0.424163 0.601062 0.954656
H20_7 H 0.418626 0.537593 0.935903
H22_7 H 0.575837 0.398938 0.954656
H23_7 H 0.581374 0.462407 0.935903
C8_8 C 0.567057 0.587228 0.011875
C17_8 C 0.432943 0.412772 0.011875
H19_8 H 0.398938 0.424163 0.0453439
H20_8 H 0.462407 0.418626 0.0640972
H22_8 H 0.601062 0.575837 0.0453439
H23_8 H 0.537593 0.581374 0.0640972
loop_
_geom_bond_atom_site_label_1
_geom_bond_atom_site_label_2
_geom_bond_site_symmetry_1
_geom_bond_site_symmetry_2
O1 C3 1_555 1_555
O2 C6 1_555 1_555
O3 C6 1_555 1_555
O4 C3 1_555 1_555
C1 N1 1_555 1_555
N1 N2 1_555 1_555
N2 C2 1_555 1_555
C2 N3 1_555 1_555
N3 N4 1_555 1_555
N4 C1 1_555 1_555
S1 C1 1_555 1_555
S2 C2 1_555 1_555
C3 C4 1_555 1_555
C4 S1 1_555 1_555
C5 S2 1_555 1_555
C6 C5 1_555 1_555
Zr1 O6 1_555 1_555
Zr2 O1 1_555 1_555
O5 Zr2 1_555 1_555
C7 O5 1_555 1_555
N5 C7 1_555 1_555
C9 N5 1_555 1_555
H1 C7 1_555 1_555
O6 Zr2 1_555 1_555
O7 Zr1 1_555 1_555
O8 Zr1 1_555 1_555
O9 Zr2 1_555 1_555
O10 C15 1_555 1_555
O11 C15 1_555 1_555
O12 C12 1_555 1_555
C10 N6 1_555 1_555
N6 N7 1_555 1_555
N7 C11 1_555 1_555
C11 N8 1_555 1_555
N8 N9 1_555 1_555
N9 C10 1_555 1_555
S3 C10 1_555 1_555
S4 C11 1_555 1_555
C12 O9 1_555 1_555
C13 S3 1_555 1_555
C14 S4 1_555 1_555
C15 C14 1_555 1_555
Zr3 O14 1_555 1_555
O13 Zr2 1_555 1_555
C16 O13 1_555 1_555
N10 C16 1_555 1_555
C18 N10 1_555 1_555
H2 C16 1_555 1_555
O14 Zr2 1_555 1_555
O15 Zr2 1_555 1_555
O16 Zr3 1_555 1_555
O17 Zr1 1_555 1_555
O18 Zr3 1_555 1_555
O19 Zr3 1_555 1_555
O20 Zr1 1_555 1_555
O21 Zr1 1_555 1_555
O22 Zr3 1_555 1_555
Zr4 O11 1_555 1_555
Zr5 O7 1_555 1_555
Zr6 O2 1_555 1_555
Zr7 O4 1_555 1_555
Zr8 O10 1_555 1_555
Zr9 O3 1_555 1_555
O23 Zr1 1_555 1_555
O24 Zr3 1_555 1_555
O25 Zr3 1_555 1_555
O26 Zr1 1_555 1_555
Zr2 O7 1_555 1_555
O6 Zr7 1_555 1_555
O12 Zr5 1_555 1_555
C12 C13 1_555 1_555
Zr3 O15 1_555 1_555
O14 Zr5 1_555 1_555
O15 Zr7 1_555 1_555
Zr5 O23 1_555 1_555
Zr5 O25 1_555 1_555
Zr7 O24 1_555 1_555
Zr7 O26 1_555 1_555
C13 H3 1_555 1_555
C13 H4 1_555 1_555
C18 H5 1_555 1_555
C18 H6 1_555 1_555
C18 H7 1_555 1_555
C4 H8 1_555 1_555
C4 H9 1_555 1_555
C5 H10 1_555 1_555
C5 H11 1_555 1_555
C14 H12 1_555 1_555
C14 H13 1_555 1_555
O8 H14 1_555 1_555
O8 H15 1_555 1_555
O16 H16 1_555 1_555
O16 H17 1_555 1_555
C9 H24 1_555 1_555
C9 H25 1_555 1_555
C9 H26 1_555 1_555
N3_2 N4_2 1_555 1_555
C4_2 S1_2 1_555 1_555
C16_2 O13_2 1_555 1_555
N10_2 C16_2 1_555 1_555
C17 N10_2 1_555 1_555
C18_2 N10_2 1_555 1_555
C18_2 H5_2 1_555 1_555
C18_2 H6_2 1_555 1_555
C18_2 H7_2 1_555 1_555
C4_2 H8_2 1_555 1_555
C4_2 H9_2 1_555 1_555
C17 H18_2 1_555 1_555
C17 H19 1_555 1_555
C17 H20 1_555 1_555
O2_2 C6_2 1_555 1_555
O4_2 C3_2 1_555 1_555
C1_2 N1_2 1_555 1_555
N1_2 N2_2 1_555 1_555
N2_2 C2_2 1_555 1_555
S2_2 C2_2 1_555 1_555
C5_2 S2_2 1_555 1_555
C6_2 C5_2 1_555 1_555
Zr1_2 O6_2 1_555 1_555
O6_2 Zr2_2 1_555 1_555
O8_2 Zr1_2 1_555 1_555
O15_2 Zr2_2 1_555 1_555
O17_2 Zr1_2 1_555 1_555
O20_2 Zr1_2 1_555 1_555
O21_2 Zr1_2 1_555 1_555
Zr4_2 O11_2 1_555 1_555
Zr7_2 O4_2 1_555 1_555
O26_2 Zr1_2 1_555 1_555
O6_2 Zr7_2 1_555 1_555
O15_2 Zr7_2 1_555 1_555
Zr7_2 O24_2 1_555 1_555
Zr7_2 O26_2 1_555 1_555
C5_2 H11_2 1_555 1_555
O8_2 H14_2 1_555 1_555
O8_2 H15_2 1_555 1_555
C7_2 O5_2 1_555 1_555
N5_2 C7_2 1_555 1_555
C8 N5_2 1_555 1_555
C9_2 N5_2 1_555 1_555
N8_2 N9_2 1_555 1_555
C13_2 S3_2 1_555 1_555
C13_2 H3_2 1_555 1_555
C13_2 H4_2 1_555 1_555
C8 H21_2 1_555 1_555
C8 H22 1_555 1_555
C8 H23 1_555 1_555
C9_2 H24_2 1_555 1_555
C9_2 H25_2 1_555 1_555
C9_2 H26_2 1_555 1_555
O10_2 C15_2 1_555 1_555
O12_2 C12_2 1_555 1_555
C10_2 N6_2 1_555 1_555
N6_2 N7_2 1_555 1_555
N7_2 C11_2 1_555 1_555
S4_2 C11_2 1_555 1_555
C14_2 S4_2 1_555 1_555
C15_2 C14_2 1_555 1_555
Zr3_2 O14_2 1_555 1_555
O14_2 Zr2_3 1_555 1_555
O16_2 Zr3_2 1_555 1_555
O18_2 Zr3_2 1_555 1_555
O19_2 Zr3_2 1_555 1_555
O22_2 Zr3_2 1_555 1_555
Zr5_2 O7_2 1_555 1_555
Zr9_2 O3_2 1_555 1_555
O25_2 Zr3_2 1_555 1_555
Zr2_3 O7_2 1_555 1_555
O12_2 Zr5_2 1_555 1_555
O14_2 Zr5_2 1_555 1_555
Zr5_2 O23_2 1_555 1_555
Zr5_2 O25_2 1_555 1_555
C14_2 H13_2 1_555 1_555
O16_2 H16_2 1_555 1_555
O16_2 H17_2 1_555 1_555
Zr6_2 O23_3 1_555 1_555
O9_3 Zr2_4 1_555 1_555
O10_3 C15_3 1_555 1_555
O12_3 C12_3 1_555 1_555
C10_3 N6_3 1_555 1_555
N6_3 N7_3 1_555 1_555
N7_3 C11_3 1_555 1_555
C11_3 N8_3 1_555 1_555
N8_3 N9_3 1_555 1_555
N9_3 C10_3 1_555 1_555
S3_3 C10_3 1_555 1_555
S4_3 C11_3 1_555 1_555
C12_3 O9_3 1_555 1_555
C13_3 S3_3 1_555 1_555
C14_3 S4_3 1_555 1_555
C15_3 C14_3 1_555 1_555
Zr7_2 O10_3 1_555 1_555
Zr2_4 O7_3 1_555 1_555
C12_3 C13_3 1_555 1_555
C13_3 H3_3 1_555 1_555
C13_3 H4_3 1_555 1_555
C14_3 H12_3 1_555 1_555
C14_3 H13_3 1_555 1_555
Zr9_2 O6_3 1_555 1_555
O6_3 Zr2_5 1_555 1_555
O8_3 Zr9_2 1_555 1_555
O13_3 Zr2_5 1_555 1_555
C16_3 O13_3 1_555 1_555
N10_3 C16_3 1_555 1_555
C17_2 N10_3 1_555 1_555
C18_3 N10_3 1_555 1_555
C18_3 H6_3 1_555 1_555
C18_3 H7_3 1_555 1_555
O8_3 H14_3 1_555 1_555
O8_3 H15_3 1_555 1_555
C17_2 H18_3 1_555 1_555
C17_2 H19_2 1_555 1_555
C17_2 H20_2 1_555 1_555
O5_3 Zr2_6 1_555 1_555
C7_3 O5_3 1_555 1_555
N5_3 C7_3 1_555 1_555
C8_2 N5_3 1_555 1_555
C9_3 N5_3 1_555 1_555
Zr4_2 O14_3 1_555 1_555
O14_3 Zr2_6 1_555 1_555
O16_3 Zr4_2 1_555 1_555
O16_3 H16_3 1_555 1_555
O16_3 H17_3 1_555 1_555
C8_2 H21_3 1_555 1_555
C8_2 H22_2 1_555 1_555
C8_2 H23_2 1_555 1_555
C9_3 H25_3 1_555 1_555
C9_3 H26_3 1_555 1_555
Zr8_2 O24_3 1_555 1_555
O1_3 C3_3 1_555 1_555
O2_3 C6_3 1_555 1_555
O4_3 C3_3 1_555 1_555
C1_3 N1_3 1_555 1_555
N1_3 N2_3 1_555 1_555
N2_3 C2_3 1_555 1_555
C2_3 N3_3 1_555 1_555
N3_3 N4_3 1_555 1_555
N4_3 C1_3 1_555 1_555
S1_3 C1_3 1_555 1_555
S2_3 C2_3 1_555 1_555
C3_3 C4_3 1_555 1_555
C4_3 S1_3 1_555 1_555
C5_3 S2_3 1_555 1_555
C6_3 C5_3 1_555 1_555
Zr2_7 O1_3 1_555 1_555
O15_3 Zr2_7 1_555 1_555
Zr5_2 O2_3 1_555 1_555
C4_3 H8_3 1_555 1_555
C4_3 H9_3 1_555 1_555
C5_3 H10_3 1_555 1_555
C5_3 H11_3 1_555 1_555
Zr4 O6_4 1_555 1_555
O6_4 Zr2_8 1_555 1_555
O7_4 Zr4 1_555 1_555
O8_4 Zr4 1_555 1_555
O9_4 Zr2_8 1_555 1_555
O10_4 C15_4 1_555 1_555
O20 C15_4 1_555 1_555
O12_4 C12_4 1_555 1_555
C10_4 N6_4 1_555 1_555
N6_4 N7_4 1_555 1_555
N7_4 C11_4 1_555 1_555
C11_4 N8_4 1_555 1_555
N8_4 N9_4 1_555 1_555
N9_4 C10_4 1_555 1_555
S3_4 C10_4 1_555 1_555
S4_4 C11_4 1_555 1_555
C12_4 O9_4 1_555 1_555
C13_4 S3_4 1_555 1_555
C14_4 S4_4 1_555 1_555
C15_4 C14_4 1_555 1_555
O13_4 Zr2_8 1_555 1_555
C16_4 O13_4 1_555 1_555
N10_4 C16_4 1_555 1_555
C17_3 N10_4 1_555 1_555
C18_4 N10_4 1_555 1_555
H2_4 C16_4 1_555 1_555
O17_4 Zr4 1_555 1_555
O21_4 Zr4 1_555 1_555
Zr8 O7_4 1_555 1_555
Zr5 O10_4 1_555 1_555
O23_4 Zr4 1_555 1_555
O26_4 Zr4 1_555 1_555
Zr2_8 O7_4 1_555 1_555
O12_4 Zr8 1_555 1_555
C12_4 C13_4 1_555 1_555
Zr8 O23_4 1_555 1_555
C13_4 H3_4 1_555 1_555
C13_4 H4_4 1_555 1_555
C18_4 H6_4 1_555 1_555
C18_4 H7_4 1_555 1_555
C14_4 H12_4 1_555 1_555
C14_4 H13_4 1_555 1_555
O8_4 H14_4 1_555 1_555
O8_4 H15_4 1_555 1_555
C17_3 H18_4 1_555 1_555
C17_3 H19_3 1_555 1_555
C17_3 H20_3 1_555 1_555
O1_4 C3_4 1_555 1_555
O2_4 C6_4 1_555 1_555
O19 C6_4 1_555 1_555
O4_4 C3_4 1_555 1_555
C1_4 N1_4 1_555 1_555
N1_4 N2_4 1_555 1_555
N2_4 C2_4 1_555 1_555
C2_4 N3_4 1_555 1_555
N3_4 N4_4 1_555 1_555
N4_4 C1_4 1_555 1_555
S1_4 C1_4 1_555 1_555
S2_4 C2_4 1_555 1_555
C3_4 C4_4 1_555 1_555
C4_4 S1_4 1_555 1_555
C5_4 S2_4 1_555 1_555
C6_4 C5_4 1_555 1_555
Zr2_9 O1_4 1_555 1_555
O5_4 Zr2_9 1_555 1_555
C7_4 O5_4 1_555 1_555
N5_4 C7_4 1_555 1_555
C8_3 N5_4 1_555 1_555
C9_4 N5_4 1_555 1_555
H1_4 C7_4 1_555 1_555
Zr9 O14_4 1_555 1_555
O14_4 Zr2_9 1_555 1_555
O15_4 Zr2_9 1_555 1_555
O16_4 Zr9 1_555 1_555
O18_4 Zr9 1_555 1_555
O22_4 Zr9 1_555 1_555
Zr7 O2_4 1_555 1_555
Zr6 O4_4 1_555 1_555
O24_4 Zr9 1_555 1_555
O25_4 Zr9 1_555 1_555
Zr9 O15_4 1_555 1_555
O15_4 Zr6 1_555 1_555
Zr6 O24_4 1_555 1_555
C4_4 H8_4 1_555 1_555
C4_4 H9_4 1_555 1_555
C5_4 H10_4 1_555 1_555
C5_4 H11_4 1_555 1_555
O16_4 H16_4 1_555 1_555
O16_4 H17_4 1_555 1_555
C8_3 H21_4 1_555 1_555
C8_3 H22_3 1_555 1_555
C8_3 H23_3 1_555 1_555
C9_4 H25_4 1_555 1_555
C9_4 H26_4 1_555 1_555
O24_2 Zr2_10 1_555 1_555
O8_5 Zr7_2 1_555 1_555
O9_5 Zr2_10 1_555 1_555
O18 C15_5 1_555 1_555
O11_3 C15_5 1_555 1_555
O21_2 C12_5 1_555 1_555
C10_5 N6_5 1_555 1_555
N6_5 N7_5 1_555 1_555
N7_5 C11_5 1_555 1_555
C11_5 N8_5 1_555 1_555
N8_5 N9_5 1_555 1_555
N9_5 C10_5 1_555 1_555
S3_5 C10_5 1_555 1_555
S4_5 C11_5 1_555 1_555
C12_5 O9_5 1_555 1_555
C13_5 S3_5 1_555 1_555
C14_5 S4_5 1_555 1_555
C15_5 C14_5 1_555 1_555
O13_5 Zr2_10 1_555 1_555
C16_5 O13_5 1_555 1_555
N10_5 C16_5 1_555 1_555
C17_4 N10_5 1_555 1_555
C18_5 N10_5 1_555 1_555
H2_5 C16_5 1_555 1_555
O20_3 Zr7_2 1_555 1_555
Zr5 O11_3 1_555 1_555
Zr2_10 O26_2 1_555 1_555
C12_5 C13_5 1_555 1_555
C13_5 H3_5 1_555 1_555
C13_5 H4_5 1_555 1_555
C18_5 H6_5 1_555 1_555
C18_5 H7_5 1_555 1_555
C14_5 H12_5 1_555 1_555
C14_5 H13_5 1_555 1_555
O8_5 H14_5 1_555 1_555
O8_5 H15_5 1_555 1_555
C17_4 H18_5 1_555 1_555
C17_4 H19_4 1_555 1_555
C17_4 H20_4 1_555 1_555
O1_5 C3_5 1_555 1_555
O17 C6_5 1_555 1_555
O3_3 C6_5 1_555 1_555
O22_2 C3_5 1_555 1_555
C1_5 N1_5 1_555 1_555
N1_5 N2_5 1_555 1_555
N2_5 C2_5 1_555 1_555
C2_5 N3_5 1_555 1_555
N3_5 N4_5 1_555 1_555
N4_5 C1_5 1_555 1_555
S1_5 C1_5 1_555 1_555
S2_5 C2_5 1_555 1_555
C3_5 C4_5 1_555 1_555
C4_5 S1_5 1_555 1_555
C5_5 S2_5 1_555 1_555
C6_5 C5_5 1_555 1_555
Zr2_11 O1_5 1_555 1_555
O5_5 Zr2_11 1_555 1_555
C7_5 O5_5 1_555 1_555
N5_5 C7_5 1_555 1_555
C8_4 N5_5 1_555 1_555
C9_5 N5_5 1_555 1_555
H1_5 C7_5 1_555 1_555
O23_2 Zr2_11 1_555 1_555
O25_2 Zr2_11 1_555 1_555
O16_5 Zr5_2 1_555 1_555
O19_3 Zr5_2 1_555 1_555
Zr7 O3_3 1_555 1_555
C4_5 H8_5 1_555 1_555
C4_5 H9_5 1_555 1_555
C5_5 H10_5 1_555 1_555
C5_5 H11_5 1_555 1_555
O16_5 H16_5 1_555 1_555
O16_5 H17_5 1_555 1_555
C8_4 H21_5 1_555 1_555
C8_4 H22_4 1_555 1_555
C8_4 H23_4 1_555 1_555
C9_5 H25_5 1_555 1_555
C9_5 H26_5 1_555 1_555
O1_6 C3_6 1_555 1_555
O18_2 C6_6 1_555 1_555
O19_3 C6_6 1_555 1_555
O21 C3_6 1_555 1_555
C1_6 N1_6 1_555 1_555
N1_6 N2_6 1_555 1_555
N2_6 C2_6 1_555 1_555
C2_6 N3_6 1_555 1_555
N3_6 N4_6 1_555 1_555
N4_6 C1_6 1_555 1_555
S1_6 C1_6 1_555 1_555
S2_6 C2_6 1_555 1_555
C3_6 C4_6 1_555 1_555
C4_6 S1_6 1_555 1_555
C5_6 S2_6 1_555 1_555
C6_6 C5_6 1_555 1_555
Zr2_12 O1_6 1_555 1_555
O5_6 Zr2_12 1_555 1_555
C7_6 O5_6 1_555 1_555
N5_6 C7_6 1_555 1_555
C9_6 N5_6 1_555 1_555
H1_6 C7_6 1_555 1_555
O23 Zr2_12 1_555 1_555
O8_6 Zr5 1_555 1_555
O9_6 Zr2_12 1_555 1_555
O17_2 C15_6 1_555 1_555
O20_3 C15_6 1_555 1_555
O22 C12_6 1_555 1_555
C10_6 N6_6 1_555 1_555
N6_6 N7_6 1_555 1_555
N7_6 C11_6 1_555 1_555
C11_6 N8_6 1_555 1_555
N8_6 N9_6 1_555 1_555
N9_6 C10_6 1_555 1_555
S3_6 C10_6 1_555 1_555
S4_6 C11_6 1_555 1_555
C12_6 O9_6 1_555 1_555
C13_6 S3_6 1_555 1_555
C14_6 S4_6 1_555 1_555
C15_6 C14_6 1_555 1_555
O13_6 Zr2_12 1_555 1_555
C16_6 O13_6 1_555 1_555
N10_6 C16_6 1_555 1_555
C18_6 N10_6 1_555 1_555
H2_6 C16_6 1_555 1_555
O24 Zr2_12 1_555 1_555
O26 Zr2_12 1_555 1_555
O16_6 Zr7 1_555 1_555
Zr2_12 O25 1_555 1_555
C12_6 C13_6 1_555 1_555
C13_6 H3_6 1_555 1_555
C13_6 H4_6 1_555 1_555
C18_6 H5_6 1_555 1_555
C18_6 H6_6 1_555 1_555
C18_6 H7_6 1_555 1_555
C4_6 H8_6 1_555 1_555
C4_6 H9_6 1_555 1_555
C5_6 H10_6 1_555 1_555
C5_6 H11_6 1_555 1_555
C14_6 H12_6 1_555 1_555
C14_6 H13_6 1_555 1_555
O8_6 H14_6 1_555 1_555
O8_6 H15_6 1_555 1_555
O16_6 H16_6 1_555 1_555
O16_6 H17_6 1_555 1_555
C9_6 H24_6 1_555 1_555
C9_6 H25_6 1_555 1_555
C9_6 H26_6 1_555 1_555
O17_3 C15_7 1_555 1_555
O21_4 C12_7 1_555 1_555
C10_7 N6_7 1_555 1_555
N6_7 N7_7 1_555 1_555
N7_7 C11_7 1_555 1_555
S4_7 C11_7 1_555 1_555
C14_7 S4_7 1_555 1_555
C15_7 C14_7 1_555 1_555
O23_4 Zr2_13 1_555 1_555
O16_7 Zr8 1_555 1_555
O19_4 Zr8 1_555 1_555
Zr6_2 O3_4 1_555 1_555
Zr2_13 O26_4 1_555 1_555
C14_7 H13_7 1_555 1_555
O16_7 H16_7 1_555 1_555
O16_7 H17_7 1_555 1_555
C7_7 O5_7 1_555 1_555
N5_7 C7_7 1_555 1_555
C8_5 N5_7 1_555 1_555
C9_7 N5_7 1_555 1_555
N8_7 N9_7 1_555 1_555
C13_7 S3_7 1_555 1_555
C13_7 H3_7 1_555 1_555
C13_7 H4_7 1_555 1_555
C8_5 H21_7 1_555 1_555
C8_5 H22_5 1_555 1_555
C8_5 H23_5 1_555 1_555
C9_7 H24_7 1_555 1_555
C9_7 H25_7 1_555 1_555
C9_7 H26_7 1_555 1_555
O18_3 C6_7 1_555 1_555
O22_4 C3_7 1_555 1_555
C1_7 N1_7 1_555 1_555
N1_7 N2_7 1_555 1_555
N2_7 C2_7 1_555 1_555
S2_7 C2_7 1_555 1_555
C5_7 S2_7 1_555 1_555
C6_7 C5_7 1_555 1_555
O24_4 Zr2_14 1_555 1_555
O8_7 Zr6 1_555 1_555
O25_4 Zr2_14 1_555 1_555
O20_4 Zr6 1_555 1_555
Zr8_2 O11_4 1_555 1_555
C5_7 H11_7 1_555 1_555
O8_7 H14_7 1_555 1_555
O8_7 H15_7 1_555 1_555
N3_7 N4_7 1_555 1_555
C4_7 S1_7 1_555 1_555
C16_7 O13_7 1_555 1_555
N10_7 C16_7 1_555 1_555
C17_5 N10_7 1_555 1_555
C18_7 N10_7 1_555 1_555
C18_7 H5_7 1_555 1_555
C18_7 H6_7 1_555 1_555
C18_7 H7_7 1_555 1_555
C4_7 H8_7 1_555 1_555
C4_7 H9_7 1_555 1_555
C17_5 H18_7 1_555 1_555
C17_5 H19_5 1_555 1_555
C17_5 H20_5 1_555 1_555
O5_8 Zr2_15 1_555 1_555
C7_8 O5_8 1_555 1_555
N5_8 C7_8 1_555 1_555
C8_6 N5_8 1_555 1_555
C9_8 N5_8 1_555 1_555
O23_3 Zr2_15 1_555 1_555
O16_8 Zr6_2 1_555 1_555
O16_8 H16_8 1_555 1_555
O16_8 H17_8 1_555 1_555
C8_6 H21_8 1_555 1_555
C8_6 H22_6 1_555 1_555
C8_6 H23_6 1_555 1_555
C9_8 H25_8 1_555 1_555
C9_8 H26_8 1_555 1_555
O9_8 Zr2_16 1_555 1_555
O17_4 C15_8 1_555 1_555
O21_3 C12_8 1_555 1_555
C10_8 N6_8 1_555 1_555
N6_8 N7_8 1_555 1_555
N7_8 C11_8 1_555 1_555
C11_8 N8_8 1_555 1_555
N8_8 N9_8 1_555 1_555
N9_8 C10_8 1_555 1_555
S3_8 C10_8 1_555 1_555
S4_8 C11_8 1_555 1_555
C12_8 O9_8 1_555 1_555
C13_8 S3_8 1_555 1_555
C14_8 S4_8 1_555 1_555
C15_8 C14_8 1_555 1_555
Zr2_16 O26_3 1_555 1_555
C12_8 C13_8 1_555 1_555
C13_8 H3_8 1_555 1_555
C13_8 H4_8 1_555 1_555
C14_8 H12_8 1_555 1_555
C14_8 H13_8 1_555 1_555
O1_8 C3_8 1_555 1_555
O18_4 C6_8 1_555 1_555
O22_3 C3_8 1_555 1_555
C1_8 N1_8 1_555 1_555
N1_8 N2_8 1_555 1_555
N2_8 C2_8 1_555 1_555
C2_8 N3_8 1_555 1_555
N3_8 N4_8 1_555 1_555
N4_8 C1_8 1_555 1_555
S1_8 C1_8 1_555 1_555
S2_8 C2_8 1_555 1_555
C3_8 C4_8 1_555 1_555
C4_8 S1_8 1_555 1_555
C5_8 S2_8 1_555 1_555
C6_8 C5_8 1_555 1_555
Zr2_17 O1_8 1_555 1_555
O25_3 Zr2_17 1_555 1_555
C4_8 H8_8 1_555 1_555
C4_8 H9_8 1_555 1_555
C5_8 H10_8 1_555 1_555
C5_8 H11_8 1_555 1_555
O24_3 Zr2_18 1_555 1_555
O8_8 Zr8_2 1_555 1_555
O13_8 Zr2_18 1_555 1_555
C16_8 O13_8 1_555 1_555
N10_8 C16_8 1_555 1_555
C17_6 N10_8 1_555 1_555
C18_8 N10_8 1_555 1_555
C18_8 H6_8 1_555 1_555
C18_8 H7_8 1_555 1_555
O8_8 H14_8 1_555 1_555
O8_8 H15_8 1_555 1_555
C17_6 H18_8 1_555 1_555
C17_6 H19_6 1_555 1_555
C17_6 H20_6 1_555 1_555
C17_7 H19_7 1_555 1_555
C17_7 H20_7 1_555 1_555
C8_7 H22_7 1_555 1_555
C8_7 H23_7 1_555 1_555
C17_8 H19_8 1_555 1_555
C17_8 H20_8 1_555 1_555
C8_8 H22_8 1_555 1_555
C8_8 H23_8 1_555 1_555

#END
