
###############################################################################
#
# This file contains modified crystal structure data generated from the
# MOF subset of the Cambridge Structural Database (CSD) v543 
# hosted by the Cambridge Crystallographic Data Centre (CCDC).
#
# This work is licensed under the Creative Commons
# Attribution-NonCommercial-ShareAlike 4.0 International License.
# To view a copy of this license, visit
# http://creativecommons.org/licenses/by-nc-sa/4.0/
# or send a letter to
# Creative Commons, PO Box 1866, Mountain View, CA 94042, USA.
#
# CIF created using the CSD Python API on 29 September 2022
# The structure has been converted into the P1 space group
# The structure has a 3D framework
# The original CSD entry ZATYAX is in the tetragonal crystal system
# The framework has been calculated to contain at least 10.0% void space
# The void calculation uses a probe of radius 1.32A, grid spacing 0.4
# H atom positions have been added when not included in the experimental data
#
###############################################################################

data_ZATYAX
_chemical_formula_moiety         '(C256 H128 Cd16 N160 O96)n'
_symmetry_cell_setting           triclinic
_symmetry_space_group_name_H-M   'P 1'
_symmetry_Int_Tables_number      1
_space_group_name_Hall           'P 1'
loop_
_symmetry_equiv_pos_site_id
_symmetry_equiv_pos_as_xyz
1 x,y,z
_cell_length_a                   15.3067(14)
_cell_length_b                   15.3067(14)
_cell_length_c                   52.667(10)
_cell_angle_alpha                90
_cell_angle_beta                 90
_cell_angle_gamma                90
_cell_volume                     12339.6
loop_
_atom_site_label
_atom_site_type_symbol
_atom_site_fract_x
_atom_site_fract_y
_atom_site_fract_z
C1 C 0.0104(5) 0.4690(5) 0.34294(14)
C2 C 0.0343(5) 0.4503(6) 0.29780(15)
C3 C 0.0856(5) 0.3387(6) 0.32837(18)
C4 C 0.1121(5) 0.2827(5) 0.30672(15)
C5 C 0.1470(5) 0.2017(5) 0.31148(17)
H1 H 0.1543 0.1836 0.3282
C6 C 0.1718(5) 0.1459(5) 0.2917(2)
H2 H 0.1955 0.0912 0.2951
C7 C 0.1605(5) 0.1737(6) 0.2675(2)
C8 C 0.1235(4) 0.2558(6) 0.26138(17)
C9 C 0.1106(5) 0.2855(6) 0.23633(17)
C10 C 0.0726(5) 0.3649(6) 0.23159(17)
H3 H 0.0615 0.3827 0.2150
C11 C 0.0503(5) 0.4201(6) 0.25265(14)
H4 H 0.0270 0.4752 0.2496
C12 C 0.0626(5) 0.3931(5) 0.27660(15)
C13 C 0.0996(4) 0.3123(5) 0.28231(15)
C14 C 0.1320(5) 0.2305(8) 0.2133(2)
C15 C 0.1814(6) 0.1152(7) 0.2444(3)
C16 C 0.1709(6) 0.0865(7) 0.1997(2)
N2 N 0.2425(5) 0.0655(5) 0.18852(14)
N4 N 0.0061(4) 0.5598(4) 0.37289(11)
N5 N 0.0604(4) 0.5254(4) 0.35563(11)
N6 N 0.0446(4) 0.4168(4) 0.32191(11)
N7 N 0.1625(5) 0.1458(7) 0.22047(19)
N8 N 0.1030(5) 0.0405(9) 0.1929(2)
N10 N 0.2171(4) 0.0052(6) 0.17169(18)
O1 O 0.0001(4) 0.5203(4) 0.29451(11)
O2 O 0.0947(5) 0.3169(4) 0.35068(13)
O3 O 0.1221(5) 0.2493(6) 0.19246(14)
O4 O 0.2104(5) 0.0420(5) 0.24917(16)
Cd3 Cd 0.19873(4) 0.56679(4) 0.35494(2)
O6 O 0.2510(16) 0.0451(16) 0.1112(3)
H7 H 0.188451 0.0351059 0.107128
H8 H 0.258651 0.10525 0.117904
Cd1 Cd 0.18321(4) 0.94873(4) 0.39506(2)
N3 N 0.0681(4) 0.9799(4) 0.37036(11)
O5 O 0.0822(5) 0.9190(5) 0.42867(14)
O6_2 O 0.2951(16) 0.9990(16) 0.3612(3)
N11 N 0.2246(4) 0.8104(4) 0.39437(11)
H5 H 0.0424354 0.870947 0.423485
H6 H 0.114841 0.901418 0.444142
H8_2 H 0.35525 0.991349 0.367904
C1_2 C 0.4896(5) 0.0310(5) 0.15706(14)
C2_2 C 0.4657(5) 0.0497(6) 0.20220(15)
C3_2 C 0.4144(5) 0.1613(6) 0.17163(18)
C4_2 C 0.3879(5) 0.2173(5) 0.19328(15)
C5_2 C 0.3530(5) 0.2983(5) 0.18852(17)
H1_2 H 0.3457 0.3164 0.1718
C6_2 C 0.3282(5) 0.3541(5) 0.2083(2)
H2_2 H 0.3045 0.4088 0.2049
C7_2 C 0.3395(5) 0.3263(6) 0.2325(2)
C8_2 C 0.3765(4) 0.2442(6) 0.23862(17)
C9_2 C 0.3894(5) 0.2145(6) 0.26367(17)
C10_2 C 0.4274(5) 0.1351(6) 0.26841(17)
H3_2 H 0.4385 0.1173 0.2850
C11_2 C 0.4497(5) 0.0799(6) 0.24735(14)
H4_2 H 0.4730 0.0248 0.2504
C12_2 C 0.4374(5) 0.1069(5) 0.22340(15)
C13_2 C 0.4004(4) 0.1877(5) 0.21769(15)
C14_2 C 0.3680(5) 0.2695(8) 0.2867(2)
C15_2 C 0.3186(6) 0.3848(7) 0.2556(3)
C16_2 C 0.3291(6) 0.4135(7) 0.3003(2)
N1 N 0.5686(4) 0.0377(4) 0.14894(12)
N2_2 N 0.2575(5) 0.4345(5) 0.31148(14)
N6_2 N 0.4554(4) 0.0832(4) 0.17809(11)
N7_2 N 0.3375(5) 0.3542(7) 0.27953(19)
N8_2 N 0.3970(5) 0.4595(9) 0.3071(2)
N9 N 0.3676(6) 0.5133(8) 0.3253(2)
N10_2 N 0.2829(4) 0.4948(6) 0.32831(18)
O2_2 O 0.4053(5) 0.1831(4) 0.14932(13)
O3_2 O 0.3779(5) 0.2507(6) 0.30754(14)
O4_2 O 0.2896(5) 0.4580(5) 0.25083(16)
N12 N 0.7552(6) 0.0329(4) 0.07831(18)
H7_2 H 0.785106 0.0615494 0.142872
N1_2 N 0.9314(4) 0.9623(4) 0.64894(12)
N12_2 N 0.7448(6) 0.9671(4) 0.57831(18)
H7_3 H 0.714894 0.938451 0.642872
C14_3 C 0.9805(8) 0.1180(5) 0.0367(2)
C15_3 C 0.8652(7) 0.0686(6) 0.0056(3)
C16_3 C 0.8365(7) 0.0791(6) 0.0503(2)
N2_3 N 0.8155(5) 0.0075(5) 0.06148(14)
N7_3 N 0.8958(7) 0.0875(5) 0.02953(19)
N8_3 N 0.7905(9) 0.1470(5) 0.0571(2)
N9_2 N 0.7367(8) 0.1176(6) 0.0753(2)
O3_3 O 0.9993(6) 0.1279(5) 0.05754(14)
O4_3 O 0.7920(5) 0.0396(5) 0.00083(16)
C1_3 C 0.2810(5) 0.7604(5) 0.40706(14)
C2_3 C 0.2997(6) 0.7843(5) 0.45220(15)
C3_3 C 0.4113(6) 0.8356(5) 0.42163(18)
C4_3 C 0.4673(5) 0.8621(5) 0.44328(15)
C5_3 C 0.5483(5) 0.8970(5) 0.43852(17)
H1_3 H 0.5664 0.9043 0.4218
C6_3 C 0.6041(5) 0.9218(5) 0.4583(2)
H2_3 H 0.6588 0.9455 0.4549
C7_3 C 0.5763(6) 0.9105(5) 0.4825(2)
C8_3 C 0.4942(6) 0.8735(4) 0.48862(17)
C9_3 C 0.4645(6) 0.8606(5) 0.51367(17)
C10_3 C 0.3851(6) 0.8226(5) 0.51841(17)
H3_3 H 0.3673 0.8115 0.5350
C11_3 C 0.3299(6) 0.8003(5) 0.49735(14)
H4_3 H 0.2748 0.7770 0.5004
C12_3 C 0.3569(5) 0.8126(5) 0.47340(15)
C13_3 C 0.4377(5) 0.8496(4) 0.46769(15)
C14_4 C 0.5195(8) 0.8820(5) 0.5367(2)
C15_4 C 0.6348(7) 0.9314(6) 0.5056(3)
C16_4 C 0.6635(7) 0.9209(6) 0.5503(2)
N1_3 N 0.2877(4) 0.6814(4) 0.39894(12)
N2_4 N 0.6845(5) 0.9925(5) 0.56148(14)
N3_2 N 0.2299(4) 0.6819(4) 0.37964(11)
N4_2 N 0.1902(4) 0.7561(4) 0.37711(11)
N6_3 N 0.3332(4) 0.7946(4) 0.42809(11)
N7_4 N 0.6042(7) 0.9125(5) 0.52953(19)
N8_4 N 0.7095(9) 0.8530(5) 0.5571(2)
N9_3 N 0.7633(8) 0.8824(6) 0.5753(2)
O1_2 O 0.2297(4) 0.7501(4) 0.45549(11)
O2_3 O 0.4331(4) 0.8447(5) 0.39932(13)
O3_4 O 0.5007(6) 0.8721(5) 0.55754(14)
O4_4 O 0.7080(5) 0.9604(5) 0.50083(16)
O5_2 O 0.1690(5) 0.6678(5) 0.32133(14)
O6_3 O 0.2490(16) 0.4549(16) 0.3888(3)
H5_2 H 0.120947 0.707565 0.326515
H6_2 H 0.151418 0.635159 0.305858
H7_4 H 0.311549 0.464894 0.392872
H8_3 H 0.241349 0.39475 0.382096
N9_4 N 0.1324(6) 0.9867(8) 0.1747(2)
Cd2 Cd 0.30127(4) 0.93321(4) 0.14506(2)
C1_4 C 0.2190(5) 0.7396(5) 0.09294(14)
C2_4 C 0.2003(6) 0.7157(5) 0.04780(15)
C3_4 C 0.0887(6) 0.6644(5) 0.07837(18)
C4_4 C 0.0327(5) 0.6379(5) 0.05672(15)
C8_4 C 0.0058(6) 0.6265(4) 0.01138(17)
C11_4 C 0.1701(6) 0.6997(5) 0.00265(14)
C12_4 C 0.1431(5) 0.6874(5) 0.02660(15)
C13_4 C 0.0623(5) 0.6504(4) 0.03231(15)
N1_4 N 0.2123(4) 0.8186(4) 0.10106(12)
N3_3 N 0.2701(4) 0.8181(4) 0.12036(11)
N4_3 N 0.3098(4) 0.7439(4) 0.12289(11)
N5_2 N 0.2754(4) 0.6896(4) 0.10563(11)
N6_4 N 0.1668(4) 0.7054(4) 0.07191(11)
O1_3 O 0.2703(4) 0.7499(4) 0.04451(11)
O2_4 O 0.0669(4) 0.6553(5) 0.10068(13)
O5_3 O 0.3310(5) 0.8322(5) 0.17867(14)
Cd3_2 Cd 0.31679(4) 0.55127(4) 0.10494(2)
N11_2 N 0.4396(4) 0.9746(4) 0.14437(11)
H5_3 H 0.379053 0.792435 0.173485
H6_3 H 0.348582 0.864841 0.194142
C1_5 C 0.9896(5) 0.0310(5) 0.34294(14)
C2_5 C 0.9657(5) 0.0497(6) 0.29780(15)
C3_5 C 0.9144(5) 0.1613(6) 0.32837(18)
C4_5 C 0.8879(5) 0.2173(5) 0.30672(15)
C5_4 C 0.8530(5) 0.2983(5) 0.31148(17)
H1_4 H 0.8457 0.3164 0.3282
C6_4 C 0.8282(5) 0.3541(5) 0.2917(2)
H2_4 H 0.8045 0.4088 0.2951
C7_4 C 0.8395(5) 0.3263(6) 0.2675(2)
C8_5 C 0.8765(4) 0.2442(6) 0.26138(17)
C9_4 C 0.8894(5) 0.2145(6) 0.23633(17)
C10_4 C 0.9274(5) 0.1351(6) 0.23159(17)
H3_4 H 0.9385 0.1173 0.2150
C11_5 C 0.9497(5) 0.0799(6) 0.25265(14)
H4_4 H 0.9730 0.0248 0.2496
C12_5 C 0.9374(5) 0.1069(5) 0.27660(15)
C13_5 C 0.9004(4) 0.1877(5) 0.28231(15)
C14_5 C 0.8680(5) 0.2695(8) 0.2133(2)
C15_5 C 0.8186(6) 0.3848(7) 0.2444(3)
C16_5 C 0.8291(6) 0.4135(7) 0.1997(2)
N2_5 N 0.7575(5) 0.4345(5) 0.18852(14)
N6_5 N 0.9554(4) 0.0832(4) 0.32191(11)
N7_5 N 0.8375(5) 0.3542(7) 0.22047(19)
N8_5 N 0.8970(5) 0.4595(9) 0.1929(2)
N9_5 N 0.8676(6) 0.5133(8) 0.1747(2)
N10_3 N 0.7829(4) 0.4948(6) 0.17169(18)
O2_5 O 0.9053(5) 0.1831(4) 0.35068(13)
O3_5 O 0.8779(5) 0.2507(6) 0.19246(14)
O4_5 O 0.7896(5) 0.4580(5) 0.24917(16)
Cd2_2 Cd 0.69873(4) 0.56679(4) 0.14506(2)
C1_6 C 0.7810(5) 0.7604(5) 0.09294(14)
C2_6 C 0.7997(6) 0.7843(5) 0.04780(15)
C3_6 C 0.9113(6) 0.8356(5) 0.07837(18)
C4_6 C 0.9673(5) 0.8621(5) 0.05672(15)
C8_6 C 0.9942(6) 0.8735(4) 0.01138(17)
C11_6 C 0.8299(6) 0.8003(5) 0.00265(14)
C12_6 C 0.8569(5) 0.8126(5) 0.02660(15)
C13_6 C 0.9377(5) 0.8496(4) 0.03231(15)
N1_5 N 0.7877(4) 0.6814(4) 0.10106(12)
N3_4 N 0.7299(4) 0.6819(4) 0.12036(11)
N4_4 N 0.6902(4) 0.7561(4) 0.12289(11)
N5_3 N 0.7246(4) 0.8104(4) 0.10563(11)
N6_6 N 0.8332(4) 0.7946(4) 0.07191(11)
O1_4 O 0.7297(4) 0.7501(4) 0.04451(11)
O2_6 O 0.9331(4) 0.8447(5) 0.10068(13)
O5_4 O 0.6690(5) 0.6678(5) 0.17867(14)
O6_4 O 0.7490(16) 0.4549(16) 0.1112(3)
Cd3_3 Cd 0.68321(4) 0.94873(4) 0.10494(2)
N11_3 N 0.5604(4) 0.5254(4) 0.14437(11)
H5_4 H 0.620947 0.707565 0.173485
H6_4 H 0.651418 0.635159 0.194142
H7_5 H 0.811549 0.464894 0.107128
H8_4 H 0.741349 0.39475 0.117904
C1_7 C 0.5104(5) 0.4690(5) 0.15706(14)
C2_7 C 0.5343(5) 0.4503(6) 0.20220(15)
C3_7 C 0.5856(5) 0.3387(6) 0.17163(18)
C4_7 C 0.6121(5) 0.2827(5) 0.19328(15)
C5_5 C 0.6470(5) 0.2017(5) 0.18852(17)
H1_5 H 0.6543 0.1836 0.1718
C6_5 C 0.6718(5) 0.1459(5) 0.2083(2)
H2_5 H 0.6955 0.0912 0.2049
C7_5 C 0.6605(5) 0.1737(6) 0.2325(2)
C8_7 C 0.6235(4) 0.2558(6) 0.23862(17)
C9_5 C 0.6106(5) 0.2855(6) 0.26367(17)
C10_5 C 0.5726(5) 0.3649(6) 0.26841(17)
H3_5 H 0.5615 0.3827 0.2850
C11_7 C 0.5503(5) 0.4201(6) 0.24735(14)
H4_5 H 0.5270 0.4752 0.2504
C12_7 C 0.5626(5) 0.3931(5) 0.22340(15)
C13_7 C 0.5996(4) 0.3123(5) 0.21769(15)
C14_6 C 0.6320(5) 0.2305(8) 0.2867(2)
C15_6 C 0.6814(6) 0.1152(7) 0.2556(3)
C16_6 C 0.6709(6) 0.0865(7) 0.3003(2)
N1_6 N 0.4314(4) 0.4623(4) 0.14894(12)
N2_6 N 0.7425(5) 0.0655(5) 0.31148(14)
N3_5 N 0.4319(4) 0.5201(4) 0.12964(11)
N4_5 N 0.5061(4) 0.5598(4) 0.12711(11)
N6_7 N 0.5446(4) 0.4168(4) 0.17809(11)
N7_6 N 0.6625(5) 0.1458(7) 0.27953(19)
N8_6 N 0.6030(5) 0.0405(9) 0.3071(2)
N10_4 N 0.7171(4) 0.0052(6) 0.32831(18)
O1_5 O 0.5001(4) 0.5203(4) 0.20549(11)
O2_7 O 0.5947(5) 0.3169(4) 0.14932(13)
O3_6 O 0.6221(5) 0.2493(6) 0.30754(14)
O4_6 O 0.7104(5) 0.0420(5) 0.25083(16)
O5_5 O 0.4178(5) 0.5810(5) 0.07133(14)
O6_5 O 0.2049(16) 0.5010(16) 0.1388(3)
N12_3 N 0.2448(6) 0.4671(4) 0.07831(18)
H5_5 H 0.457565 0.629053 0.0765151
H6_5 H 0.385159 0.598582 0.0558581
H7_6 H 0.214894 0.438451 0.142872
H8_5 H 0.14475 0.508651 0.132096
O6_6 O 0.7510(16) 0.0451(16) 0.3888(3)
H7_7 H 0.688451 0.0351059 0.392872
H8_6 H 0.758651 0.10525 0.382096
C14_7 C 0.0195(8) 0.3820(5) 0.0367(2)
C15_7 C 0.1348(7) 0.4314(6) 0.0056(3)
C16_7 C 0.1635(7) 0.4209(6) 0.0503(2)
N2_7 N 0.1845(5) 0.4925(5) 0.06148(14)
N7_7 N 0.1042(7) 0.4125(5) 0.02953(19)
N8_7 N 0.2095(9) 0.3530(5) 0.0571(2)
N9_6 N 0.2633(8) 0.3824(6) 0.0753(2)
O3_7 O 0.0007(6) 0.3721(5) 0.05754(14)
O4_7 O 0.2080(5) 0.4604(5) 0.00083(16)
N3_6 N 0.5681(4) 0.9799(4) 0.12964(11)
N4_6 N 0.4939(4) 0.9402(4) 0.12711(11)
O1_6 O 0.4999(4) 0.9797(4) 0.20549(11)
O5_6 O 0.5822(5) 0.9190(5) 0.07133(14)
O6_7 O 0.7951(16) 0.9990(16) 0.1388(3)
H5_6 H 0.542435 0.870947 0.0765151
H6_6 H 0.614841 0.901418 0.0558581
H8_7 H 0.85525 0.991349 0.132096
Cd1_2 Cd 0.81679(4) 0.55127(4) 0.39506(2)
N1_7 N 0.9314(4) 0.4623(4) 0.35106(12)
N3_7 N 0.9319(4) 0.5201(4) 0.37036(11)
O5_7 O 0.9178(5) 0.5810(5) 0.42867(14)
O6_8 O 0.7049(16) 0.5010(16) 0.3612(3)
N11_4 N 0.7754(4) 0.6896(4) 0.39437(11)
N12_4 N 0.7448(6) 0.4671(4) 0.42169(18)
H5_7 H 0.957565 0.629053 0.423485
H6_7 H 0.885159 0.598582 0.444142
H7_8 H 0.714894 0.438451 0.357128
H8_8 H 0.64475 0.508651 0.367904
N9_7 N 0.3676(6) 0.0133(8) 0.6747(2)
Cd2_3 Cd 0.19873(4) 0.06679(4) 0.64506(2)
C1_8 C 0.2810(5) 0.2604(5) 0.59294(14)
C2_8 C 0.2997(6) 0.2843(5) 0.54780(15)
C3_8 C 0.4113(6) 0.3356(5) 0.57837(18)
C4_8 C 0.4673(5) 0.3621(5) 0.55672(15)
C5_6 C 0.5483(5) 0.3970(5) 0.56148(17)
H1_6 H 0.5664 0.4043 0.5782
C6_6 C 0.6041(5) 0.4218(5) 0.5417(2)
H2_6 H 0.6588 0.4455 0.5451
C7_6 C 0.5763(6) 0.4105(5) 0.5175(2)
C8_8 C 0.4942(6) 0.3735(4) 0.51138(17)
C9_6 C 0.4645(6) 0.3606(5) 0.48633(17)
C10_6 C 0.3851(6) 0.3226(5) 0.48159(17)
H3_6 H 0.3673 0.3115 0.4650
C11_8 C 0.3299(6) 0.3003(5) 0.50265(14)
H4_6 H 0.2748 0.2770 0.4996
C12_8 C 0.3569(5) 0.3126(5) 0.52660(15)
C13_8 C 0.4377(5) 0.3496(4) 0.53231(15)
C14_8 C 0.5195(8) 0.3820(5) 0.4633(2)
C15_8 C 0.6348(7) 0.4314(6) 0.4944(3)
C16_8 C 0.6635(7) 0.4209(6) 0.4497(2)
N1_8 N 0.2877(4) 0.1814(4) 0.60106(12)
N2_8 N 0.6845(5) 0.4925(5) 0.43852(14)
N3_8 N 0.2299(4) 0.1819(4) 0.62036(11)
N4_7 N 0.1902(4) 0.2561(4) 0.62289(11)
N5_4 N 0.2246(4) 0.3104(4) 0.60563(11)
N6_8 N 0.3332(4) 0.2946(4) 0.57191(11)
N7_8 N 0.6042(7) 0.4125(5) 0.47047(19)
N8_8 N 0.7095(9) 0.3530(5) 0.4429(2)
N9_8 N 0.7633(8) 0.3824(6) 0.4247(2)
O1_7 O 0.2297(4) 0.2501(4) 0.54451(11)
O2_8 O 0.4331(4) 0.3447(5) 0.60068(13)
O3_8 O 0.5007(6) 0.3721(5) 0.44246(14)
O4_8 O 0.7080(5) 0.4604(5) 0.49917(16)
O5_8 O 0.1690(5) 0.1678(5) 0.67867(14)
Cd3_4 Cd 0.18321(4) 0.44873(4) 0.60494(2)
N11_5 N 0.0604(4) 0.0254(4) 0.64437(11)
H5_8 H 0.120947 0.207565 0.673485
H6_8 H 0.151418 0.135159 0.694142
N4_8 N 0.9939(4) 0.9402(4) 0.37289(11)
N5_5 N 0.9396(4) 0.9746(4) 0.35563(11)
O1_8 O 0.9999(4) 0.9797(4) 0.29451(11)
Cd3_5 Cd 0.80127(4) 0.93321(4) 0.35494(2)
N1_9 N 0.0686(4) 0.5377(4) 0.64894(12)
N3_9 N 0.0681(4) 0.4799(4) 0.62964(11)
O5_9 O 0.0822(5) 0.4190(5) 0.57133(14)
O6_9 O 0.2951(16) 0.4990(16) 0.6388(3)
N12_5 N 0.2552(6) 0.5329(4) 0.57831(18)
H5_9 H 0.0424354 0.370947 0.576515
H6_9 H 0.114841 0.401418 0.555858
H7_9 H 0.285106 0.561549 0.642872
H8_9 H 0.35525 0.491349 0.632096
N9_9 N 0.6324(6) 0.9867(8) 0.3253(2)
C1_9 C 0.7190(5) 0.7396(5) 0.40706(14)
C2_9 C 0.7003(6) 0.7157(5) 0.45220(15)
C3_9 C 0.5887(6) 0.6644(5) 0.42163(18)
C4_9 C 0.5327(5) 0.6379(5) 0.44328(15)
C5_7 C 0.4517(5) 0.6030(5) 0.43852(17)
H1_7 H 0.4336 0.5957 0.4218
C6_7 C 0.3959(5) 0.5782(5) 0.4583(2)
H2_7 H 0.3412 0.5545 0.4549
C7_7 C 0.4237(6) 0.5895(5) 0.4825(2)
C8_9 C 0.5058(6) 0.6265(4) 0.48862(17)
C9_7 C 0.5355(6) 0.6394(5) 0.51367(17)
C10_7 C 0.6149(6) 0.6774(5) 0.51841(17)
H3_7 H 0.6327 0.6885 0.5350
C11_9 C 0.6701(6) 0.6997(5) 0.49735(14)
H4_7 H 0.7252 0.7230 0.5004
C12_9 C 0.6431(5) 0.6874(5) 0.47340(15)
C13_9 C 0.5623(5) 0.6504(4) 0.46769(15)
C14_9 C 0.4805(8) 0.6180(5) 0.5367(2)
C15_9 C 0.3652(7) 0.5686(6) 0.5056(3)
C16_9 C 0.3365(7) 0.5791(6) 0.5503(2)
N1_10 N 0.7123(4) 0.8186(4) 0.39894(12)
N2_9 N 0.3155(5) 0.5075(5) 0.56148(14)
N3_10 N 0.7701(4) 0.8181(4) 0.37964(11)
N4_9 N 0.8098(4) 0.7439(4) 0.37711(11)
N6_9 N 0.6668(4) 0.7054(4) 0.42809(11)
N7_9 N 0.3958(7) 0.5875(5) 0.52953(19)
N8_9 N 0.2905(9) 0.6470(5) 0.5571(2)
N9_10 N 0.2367(8) 0.6176(6) 0.5753(2)
O1_9 O 0.7703(4) 0.7499(4) 0.45549(11)
O2_9 O 0.5669(4) 0.6553(5) 0.39932(13)
O3_9 O 0.4993(6) 0.6279(5) 0.55754(14)
O4_9 O 0.2920(5) 0.5396(5) 0.50083(16)
O5_10 O 0.8310(5) 0.8322(5) 0.32133(14)
H5_10 H 0.879053 0.792435 0.326515
H6_10 H 0.848582 0.864841 0.305858
N4_10 N 0.0061(4) 0.0598(4) 0.62711(11)
O1_10 O 0.0001(4) 0.0203(4) 0.70549(11)
Cd1_3 Cd 0.68321(4) 0.44873(4) 0.89506(2)
C1_10 C 0.4896(5) 0.5310(5) 0.84294(14)
C2_10 C 0.4657(5) 0.5497(6) 0.79780(15)
C3_10 C 0.4144(5) 0.6613(6) 0.82837(18)
C4_10 C 0.3879(5) 0.7173(5) 0.80672(15)
C5_8 C 0.3530(5) 0.7983(5) 0.81148(17)
H1_8 H 0.3457 0.8164 0.8282
C6_8 C 0.3282(5) 0.8541(5) 0.7917(2)
H2_8 H 0.3045 0.9088 0.7951
C7_8 C 0.3395(5) 0.8263(6) 0.7675(2)
C8_10 C 0.3765(4) 0.7442(6) 0.76138(17)
C9_8 C 0.3894(5) 0.7145(6) 0.73633(17)
C10_8 C 0.4274(5) 0.6351(6) 0.73159(17)
H3_8 H 0.4385 0.6173 0.7150
C11_10 C 0.4497(5) 0.5799(6) 0.75265(14)
H4_8 H 0.4730 0.5248 0.7496
C12_10 C 0.4374(5) 0.6069(5) 0.77660(15)
C13_10 C 0.4004(4) 0.6877(5) 0.78231(15)
C14_10 C 0.3680(5) 0.7695(8) 0.7133(2)
C15_10 C 0.3186(6) 0.8848(7) 0.7444(3)
C16_10 C 0.3291(6) 0.9135(7) 0.6997(2)
N1_11 N 0.5686(4) 0.5377(4) 0.85106(12)
N2_10 N 0.2575(5) 0.9345(5) 0.68852(14)
N3_11 N 0.5681(4) 0.4799(4) 0.87036(11)
N4_11 N 0.4939(4) 0.4402(4) 0.87289(11)
N5_6 N 0.4396(4) 0.4746(4) 0.85563(11)
N6_10 N 0.4554(4) 0.5832(4) 0.82191(11)
N7_10 N 0.3375(5) 0.8542(7) 0.72047(19)
N8_10 N 0.3970(5) 0.9595(9) 0.6929(2)
N10_5 N 0.2829(4) 0.9948(6) 0.67169(18)
O1_11 O 0.4999(4) 0.4797(4) 0.79451(11)
O2_10 O 0.4053(5) 0.6831(4) 0.85068(13)
O3_10 O 0.3779(5) 0.7507(6) 0.69246(14)
O4_10 O 0.2896(5) 0.9580(5) 0.74917(16)
O5_11 O 0.5822(5) 0.4190(5) 0.92867(14)
O6_10 O 0.7951(16) 0.4990(16) 0.8612(3)
Cd3_6 Cd 0.30127(4) 0.43321(4) 0.85494(2)
N11_6 N 0.7246(4) 0.3104(4) 0.89437(11)
N12_6 N 0.7552(6) 0.5329(4) 0.92169(18)
H5_11 H 0.542435 0.370947 0.923485
H6_11 H 0.614841 0.401418 0.944142
H7_10 H 0.785106 0.561549 0.857128
H8_10 H 0.85525 0.491349 0.867904
O6_11 O 0.2490(16) 0.9549(16) 0.6112(3)
H7_11 H 0.311549 0.964894 0.607128
H8_11 H 0.241349 0.89475 0.617904
C14_11 C 0.9805(8) 0.6180(5) 0.9633(2)
C15_11 C 0.8652(7) 0.5686(6) 0.9944(3)
C16_11 C 0.8365(7) 0.5791(6) 0.9497(2)
N2_11 N 0.8155(5) 0.5075(5) 0.93852(14)
N7_11 N 0.8958(7) 0.5875(5) 0.97047(19)
N8_11 N 0.7905(9) 0.6470(5) 0.9429(2)
N9_11 N 0.7367(8) 0.6176(6) 0.9247(2)
O3_11 O 0.9993(6) 0.6279(5) 0.94246(14)
O4_11 O 0.7920(5) 0.5396(5) 0.99917(16)
Cd1_4 Cd 0.31679(4) 0.05127(4) 0.89506(2)
N3_12 N 0.4319(4) 0.0201(4) 0.87036(11)
N4_12 N 0.5061(4) 0.0598(4) 0.87289(11)
N5_7 N 0.5604(4) 0.0254(4) 0.85563(11)
O1_12 O 0.5001(4) 0.0203(4) 0.79451(11)
O5_12 O 0.4178(5) 0.0810(5) 0.92867(14)
O6_12 O 0.2049(16) 0.0010(16) 0.8612(3)
Cd3_7 Cd 0.69873(4) 0.06679(4) 0.85494(2)
N11_7 N 0.2754(4) 0.1896(4) 0.89437(11)
H5_12 H 0.457565 0.129053 0.923485
H6_12 H 0.385159 0.0985819 0.944142
H8_12 H 0.14475 0.00865122 0.867904
N9_12 N 0.8676(6) 0.0133(8) 0.8253(2)
C1_11 C 0.7810(5) 0.2604(5) 0.90706(14)
C2_11 C 0.7997(6) 0.2843(5) 0.95220(15)
C3_11 C 0.9113(6) 0.3356(5) 0.92163(18)
C4_11 C 0.9673(5) 0.3621(5) 0.94328(15)
C8_11 C 0.9942(6) 0.3735(4) 0.98862(17)
C11_11 C 0.8299(6) 0.3003(5) 0.99735(14)
C12_11 C 0.8569(5) 0.3126(5) 0.97340(15)
C13_11 C 0.9377(5) 0.3496(4) 0.96769(15)
N1_12 N 0.7877(4) 0.1814(4) 0.89894(12)
N3_13 N 0.7299(4) 0.1819(4) 0.87964(11)
N4_13 N 0.6902(4) 0.2561(4) 0.87711(11)
N6_11 N 0.8332(4) 0.2946(4) 0.92809(11)
O1_13 O 0.7297(4) 0.2501(4) 0.95549(11)
O2_11 O 0.9331(4) 0.3447(5) 0.89932(13)
O5_13 O 0.6690(5) 0.1678(5) 0.82133(14)
H5_13 H 0.620947 0.207565 0.826515
H6_13 H 0.651418 0.135159 0.805858
C1_12 C 0.0104(5) 0.9690(5) 0.65706(14)
C2_12 C 0.0343(5) 0.9503(6) 0.70220(15)
C3_12 C 0.0856(5) 0.8387(6) 0.67163(18)
C4_12 C 0.1121(5) 0.7827(5) 0.69328(15)
C5_9 C 0.1470(5) 0.7017(5) 0.68852(17)
H1_9 H 0.1543 0.6836 0.6718
C6_9 C 0.1718(5) 0.6459(5) 0.7083(2)
H2_9 H 0.1955 0.5912 0.7049
C7_9 C 0.1605(5) 0.6737(6) 0.7325(2)
C8_12 C 0.1235(4) 0.7558(6) 0.73862(17)
C9_9 C 0.1106(5) 0.7855(6) 0.76367(17)
C10_9 C 0.0726(5) 0.8649(6) 0.76841(17)
H3_9 H 0.0615 0.8827 0.7850
C11_12 C 0.0503(5) 0.9201(6) 0.74735(14)
H4_9 H 0.0270 0.9752 0.7504
C12_12 C 0.0626(5) 0.8931(5) 0.72340(15)
C13_12 C 0.0996(4) 0.8123(5) 0.71769(15)
C14_12 C 0.1320(5) 0.7305(8) 0.7867(2)
C15_12 C 0.1814(6) 0.6152(7) 0.7556(3)
C16_12 C 0.1709(6) 0.5865(7) 0.8003(2)
N2_12 N 0.2425(5) 0.5655(5) 0.81148(14)
N6_12 N 0.0446(4) 0.9168(4) 0.67809(11)
N7_12 N 0.1625(5) 0.6458(7) 0.77953(19)
N8_12 N 0.1030(5) 0.5405(9) 0.8071(2)
N9_13 N 0.1324(6) 0.4867(8) 0.8253(2)
N10_6 N 0.2171(4) 0.5052(6) 0.82831(18)
O2_12 O 0.0947(5) 0.8169(4) 0.64932(13)
O3_12 O 0.1221(5) 0.7493(6) 0.80754(14)
O4_12 O 0.2104(5) 0.5420(5) 0.75083(16)
C1_13 C 0.2190(5) 0.2396(5) 0.90706(14)
C2_13 C 0.2003(6) 0.2157(5) 0.95220(15)
C3_13 C 0.0887(6) 0.1644(5) 0.92163(18)
C4_13 C 0.0327(5) 0.1379(5) 0.94328(15)
C8_13 C 0.0058(6) 0.1265(4) 0.98862(17)
C11_13 C 0.1701(6) 0.1997(5) 0.99735(14)
C12_13 C 0.1431(5) 0.1874(5) 0.97340(15)
C13_13 C 0.0623(5) 0.1504(4) 0.96769(15)
N1_13 N 0.2123(4) 0.3186(4) 0.89894(12)
N3_14 N 0.2701(4) 0.3181(4) 0.87964(11)
N4_14 N 0.3098(4) 0.2439(4) 0.87711(11)
N6_13 N 0.1668(4) 0.2054(4) 0.92809(11)
O1_14 O 0.2703(4) 0.2499(4) 0.95549(11)
O2_13 O 0.0669(4) 0.1553(5) 0.89932(13)
O5_14 O 0.3310(5) 0.3322(5) 0.82133(14)
O6_13 O 0.2510(16) 0.5451(16) 0.8888(3)
H5_14 H 0.379053 0.292435 0.826515
H6_14 H 0.348582 0.364841 0.805858
H7_12 H 0.188451 0.535106 0.892872
H8_13 H 0.258651 0.60525 0.882096
C9_10 C 0.0355(6) 0.6394(5) 0.98633(17)
C10_10 C 0.1149(6) 0.6774(5) 0.98159(17)
H3_10 H 0.1327 0.6885 0.9650
H4_10 H 0.2252 0.7230 0.9996
C5_10 C 0.9517(5) 0.6030(5) 0.06148(17)
H1_10 H 0.9336 0.5957 0.0782
C6_10 C 0.8959(5) 0.5782(5) 0.0417(2)
H2_10 H 0.8412 0.5545 0.0451
C7_10 C 0.9237(6) 0.5895(5) 0.0175(2)
C1_14 C 0.5104(5) 0.9690(5) 0.84294(14)
C2_14 C 0.5343(5) 0.9503(6) 0.79780(15)
C3_14 C 0.5856(5) 0.8387(6) 0.82837(18)
C4_14 C 0.6121(5) 0.7827(5) 0.80672(15)
C5_11 C 0.6470(5) 0.7017(5) 0.81148(17)
H1_11 H 0.6543 0.6836 0.8282
C6_11 C 0.6718(5) 0.6459(5) 0.7917(2)
H2_11 H 0.6955 0.5912 0.7951
C7_11 C 0.6605(5) 0.6737(6) 0.7675(2)
C8_14 C 0.6235(4) 0.7558(6) 0.76138(17)
C9_11 C 0.6106(5) 0.7855(6) 0.73633(17)
C10_11 C 0.5726(5) 0.8649(6) 0.73159(17)
H3_11 H 0.5615 0.8827 0.7150
C11_14 C 0.5503(5) 0.9201(6) 0.75265(14)
H4_11 H 0.5270 0.9752 0.7496
C12_14 C 0.5626(5) 0.8931(5) 0.77660(15)
C13_14 C 0.5996(4) 0.8123(5) 0.78231(15)
C14_13 C 0.6320(5) 0.7305(8) 0.7133(2)
C15_13 C 0.6814(6) 0.6152(7) 0.7444(3)
C16_13 C 0.6709(6) 0.5865(7) 0.6997(2)
N1_14 N 0.4314(4) 0.9623(4) 0.85106(12)
N2_13 N 0.7425(5) 0.5655(5) 0.68852(14)
N6_14 N 0.5446(4) 0.9168(4) 0.82191(11)
N7_13 N 0.6625(5) 0.6458(7) 0.72047(19)
N8_13 N 0.6030(5) 0.5405(9) 0.6929(2)
N9_14 N 0.6324(6) 0.4867(8) 0.6747(2)
N10_7 N 0.7171(4) 0.5052(6) 0.67169(18)
O2_14 O 0.5947(5) 0.8169(4) 0.85068(13)
O3_13 O 0.6221(5) 0.7493(6) 0.69246(14)
O4_13 O 0.7104(5) 0.5420(5) 0.74917(16)
Cd2_4 Cd 0.80127(4) 0.43321(4) 0.64506(2)
N12_7 N 0.2448(6) 0.9671(4) 0.92169(18)
H7_13 H 0.214894 0.938451 0.857128
N1_15 N 0.0686(4) 0.0377(4) 0.35106(12)
N12_8 N 0.2552(6) 0.0329(4) 0.42169(18)
H7_14 H 0.285106 0.0615494 0.357128
C14_14 C 0.0195(8) 0.8820(5) 0.9633(2)
C15_14 C 0.1348(7) 0.9314(6) 0.9944(3)
C16_14 C 0.1635(7) 0.9209(6) 0.9497(2)
N2_14 N 0.1845(5) 0.9925(5) 0.93852(14)
N7_14 N 0.1042(7) 0.9125(5) 0.97047(19)
N8_14 N 0.2095(9) 0.8530(5) 0.9429(2)
N9_15 N 0.2633(8) 0.8824(6) 0.9247(2)
O3_14 O 0.0007(6) 0.8721(5) 0.94246(14)
O4_14 O 0.2080(5) 0.9604(5) 0.99917(16)
C1_15 C 0.7190(5) 0.2396(5) 0.59294(14)
C2_15 C 0.7003(6) 0.2157(5) 0.54780(15)
C3_15 C 0.5887(6) 0.1644(5) 0.57837(18)
C4_15 C 0.5327(5) 0.1379(5) 0.55672(15)
C5_12 C 0.4517(5) 0.1030(5) 0.56148(17)
H1_12 H 0.4336 0.0957 0.5782
C6_12 C 0.3959(5) 0.0782(5) 0.5417(2)
H2_12 H 0.3412 0.0545 0.5451
C7_12 C 0.4237(6) 0.0895(5) 0.5175(2)
C8_15 C 0.5058(6) 0.1265(4) 0.51138(17)
C9_12 C 0.5355(6) 0.1394(5) 0.48633(17)
C10_12 C 0.6149(6) 0.1774(5) 0.48159(17)
H3_12 H 0.6327 0.1885 0.4650
C11_15 C 0.6701(6) 0.1997(5) 0.50265(14)
H4_12 H 0.7252 0.2230 0.4996
C12_15 C 0.6431(5) 0.1874(5) 0.52660(15)
C13_15 C 0.5623(5) 0.1504(4) 0.53231(15)
C14_15 C 0.4805(8) 0.1180(5) 0.4633(2)
C15_15 C 0.3652(7) 0.0686(6) 0.4944(3)
C16_15 C 0.3365(7) 0.0791(6) 0.4497(2)
N1_16 N 0.7123(4) 0.3186(4) 0.60106(12)
N2_15 N 0.3155(5) 0.0075(5) 0.43852(14)
N3_15 N 0.7701(4) 0.3181(4) 0.62036(11)
N4_15 N 0.8098(4) 0.2439(4) 0.62289(11)
N5_8 N 0.7754(4) 0.1896(4) 0.60563(11)
N6_15 N 0.6668(4) 0.2054(4) 0.57191(11)
N7_15 N 0.3958(7) 0.0875(5) 0.47047(19)
N8_15 N 0.2905(9) 0.1470(5) 0.4429(2)
N9_16 N 0.2367(8) 0.1176(6) 0.4247(2)
O1_15 O 0.7703(4) 0.2499(4) 0.54451(11)
O2_15 O 0.5669(4) 0.1553(5) 0.60068(13)
O3_15 O 0.4993(6) 0.1279(5) 0.44246(14)
O4_15 O 0.2920(5) 0.0396(5) 0.49917(16)
O5_15 O 0.8310(5) 0.3322(5) 0.67867(14)
O6_14 O 0.7510(16) 0.5451(16) 0.6112(3)
Cd3_8 Cd 0.81679(4) 0.05127(4) 0.60494(2)
N11_8 N 0.9396(4) 0.4746(4) 0.64437(11)
H5_15 H 0.879053 0.292435 0.673485
H6_15 H 0.848582 0.364841 0.694142
H7_15 H 0.688451 0.535106 0.607128
H8_14 H 0.758651 0.60525 0.617904
C1_16 C 0.9896(5) 0.5310(5) 0.65706(14)
C2_16 C 0.9657(5) 0.5497(6) 0.70220(15)
C3_16 C 0.9144(5) 0.6613(6) 0.67163(18)
C4_16 C 0.8879(5) 0.7173(5) 0.69328(15)
C5_13 C 0.8530(5) 0.7983(5) 0.68852(17)
H1_13 H 0.8457 0.8164 0.6718
C6_13 C 0.8282(5) 0.8541(5) 0.7083(2)
H2_13 H 0.8045 0.9088 0.7049
C7_13 C 0.8395(5) 0.8263(6) 0.7325(2)
C8_16 C 0.8765(4) 0.7442(6) 0.73862(17)
C9_13 C 0.8894(5) 0.7145(6) 0.76367(17)
C10_13 C 0.9274(5) 0.6351(6) 0.76841(17)
H3_13 H 0.9385 0.6173 0.7850
C11_16 C 0.9497(5) 0.5799(6) 0.74735(14)
H4_13 H 0.9730 0.5248 0.7504
C12_16 C 0.9374(5) 0.6069(5) 0.72340(15)
C13_16 C 0.9004(4) 0.6877(5) 0.71769(15)
C14_16 C 0.8680(5) 0.7695(8) 0.7867(2)
C15_16 C 0.8186(6) 0.8848(7) 0.7556(3)
C16_16 C 0.8291(6) 0.9135(7) 0.8003(2)
N2_16 N 0.7575(5) 0.9345(5) 0.81148(14)
N4_16 N 0.9939(4) 0.4402(4) 0.62711(11)
N6_16 N 0.9554(4) 0.5832(4) 0.67809(11)
N7_16 N 0.8375(5) 0.8542(7) 0.77953(19)
N8_16 N 0.8970(5) 0.9595(9) 0.8071(2)
N10_8 N 0.7829(4) 0.9948(6) 0.82831(18)
O1_16 O 0.9999(4) 0.4797(4) 0.70549(11)
O2_16 O 0.9053(5) 0.6831(4) 0.64932(13)
O3_16 O 0.8779(5) 0.7507(6) 0.80754(14)
O4_16 O 0.7896(5) 0.9580(5) 0.75083(16)
O6_15 O 0.7490(16) 0.9549(16) 0.8888(3)
H7_16 H 0.811549 0.964894 0.892872
H8_15 H 0.741349 0.89475 0.882096
N3_16 N 0.9319(4) 0.0201(4) 0.62964(11)
O5_16 O 0.9178(5) 0.0810(5) 0.57133(14)
O6_16 O 0.7049(16) 0.0010(16) 0.6388(3)
H5_16 H 0.957565 0.129053 0.576515
H6_16 H 0.885159 0.0985819 0.555858
H8_16 H 0.64475 0.00865122 0.632096
C5_14 C 0.0483(5) 0.8970(5) 0.06148(17)
H1_14 H 0.0664 0.9043 0.0782
C6_14 C 0.1041(5) 0.9218(5) 0.0417(2)
H2_14 H 0.1588 0.9455 0.0451
C7_14 C 0.0763(6) 0.9105(5) 0.0175(2)
C9_14 C 0.9645(6) 0.8606(5) 0.98633(17)
C10_14 C 0.8851(6) 0.8226(5) 0.98159(17)
H3_14 H 0.8673 0.8115 0.9650
H4_14 H 0.7748 0.7770 0.9996
C5_15 C 0.0483(5) 0.3970(5) 0.93852(17)
H1_15 H 0.0664 0.4043 0.9218
C6_15 C 0.1041(5) 0.4218(5) 0.9583(2)
H2_15 H 0.1588 0.4455 0.9549
C7_15 C 0.0763(6) 0.4105(5) 0.9825(2)
C9_15 C 0.9645(6) 0.3606(5) 0.01367(17)
C10_15 C 0.8851(6) 0.3226(5) 0.01841(17)
H3_15 H 0.8673 0.3115 0.0350
H4_15 H 0.7748 0.2770 0.0004
C9_16 C 0.0355(6) 0.1394(5) 0.01367(17)
C10_16 C 0.1149(6) 0.1774(5) 0.01841(17)
H3_16 H 0.1327 0.1885 0.0350
H4_16 H 0.2252 0.2230 0.0004
C5_16 C 0.9517(5) 0.1030(5) 0.93852(17)
H1_16 H 0.9336 0.0957 0.9218
C6_16 C 0.8959(5) 0.0782(5) 0.9583(2)
H2_16 H 0.8412 0.0545 0.9549
C7_16 C 0.9237(6) 0.0895(5) 0.9825(2)
loop_
_geom_bond_atom_site_label_1
_geom_bond_atom_site_label_2
_geom_bond_site_symmetry_1
_geom_bond_site_symmetry_2
C2 C12 1_555 1_555
C3 C4 1_555 1_555
C4 C5 1_555 1_555
C5 H1 1_555 1_555
C6 C5 1_555 1_555
H2 C6 1_555 1_555
C7 C6 1_555 1_555
C8 C7 1_555 1_555
C9 C8 1_555 1_555
C10 C9 1_555 1_555
H3 C10 1_555 1_555
C11 C10 1_555 1_555
H4 C11 1_555 1_555
C12 C11 1_555 1_555
C13 C4 1_555 1_555
C14 C9 1_555 1_555
C15 C7 1_555 1_555
C16 N2 1_555 1_555
N2 N10 1_555 1_555
N4 N5 1_555 1_555
N5 C1 1_555 1_555
N6 C1 1_555 1_555
N7 C14 1_555 1_555
N8 C16 1_555 1_555
O1 C2 1_555 1_555
O2 C3 1_555 1_555
O3 C14 1_555 1_555
O4 C15 1_555 1_555
Cd3 N5 1_555 1_555
C2 N6 1_555 1_555
C3 N6 1_555 1_555
C8 C13 1_555 1_555
C12 C13 1_555 1_555
C15 N7 1_555 1_555
C16 N7 1_555 1_555
O6 H7 1_555 1_555
O6 H8 1_555 1_555
Cd1 N3 1_555 1_555
O5 Cd1 1_555 1_555
O6_2 Cd1 1_555 1_555
N11 Cd1 1_555 1_555
O5 H5 1_555 1_555
O5 H6 1_555 1_555
O6_2 H8_2 1_555 1_555
C1_2 N1 1_555 1_555
C2_2 C12_2 1_555 1_555
C3_2 C4_2 1_555 1_555
C4_2 C5_2 1_555 1_555
C5_2 H1_2 1_555 1_555
C6_2 C5_2 1_555 1_555
H2_2 C6_2 1_555 1_555
C7_2 C6_2 1_555 1_555
C8_2 C7_2 1_555 1_555
C9_2 C8_2 1_555 1_555
C10_2 C9_2 1_555 1_555
H3_2 C10_2 1_555 1_555
C11_2 C10_2 1_555 1_555
H4_2 C11_2 1_555 1_555
C12_2 C11_2 1_555 1_555
C13_2 C4_2 1_555 1_555
C14_2 C9_2 1_555 1_555
C15_2 C7_2 1_555 1_555
C16_2 N2_2 1_555 1_555
N2_2 N10_2 1_555 1_555
N6_2 C1_2 1_555 1_555
N7_2 C14_2 1_555 1_555
N8_2 C16_2 1_555 1_555
N9 N8_2 1_555 1_555
N10_2 N9 1_555 1_555
O2_2 C3_2 1_555 1_555
O3_2 C14_2 1_555 1_555
O4_2 C15_2 1_555 1_555
Cd3 N10_2 1_555 1_555
C2_2 N6_2 1_555 1_555
C3_2 N6_2 1_555 1_555
C8_2 C13_2 1_555 1_555
C12_2 C13_2 1_555 1_555
C15_2 N7_2 1_555 1_555
C16_2 N7_2 1_555 1_555
C16_3 N2_3 1_555 1_555
N2_3 N12 1_555 1_555
N7_3 C14_3 1_555 1_555
N8_3 C16_3 1_555 1_555
N9_2 N8_3 1_555 1_555
N12 N9_2 1_555 1_555
O3_3 C14_3 1_555 1_555
O4_3 C15_3 1_555 1_555
C15_3 N7_3 1_555 1_555
C16_3 N7_3 1_555 1_555
Cd3 N3_2 1_555 1_555
C1_3 N1_3 1_555 1_555
C2_3 C12_3 1_555 1_555
C3_3 C4_3 1_555 1_555
C4_3 C5_3 1_555 1_555
C5_3 H1_3 1_555 1_555
C6_3 C5_3 1_555 1_555
H2_3 C6_3 1_555 1_555
C7_3 C6_3 1_555 1_555
C8_3 C7_3 1_555 1_555
C9_3 C8_3 1_555 1_555
C10_3 C9_3 1_555 1_555
H3_3 C10_3 1_555 1_555
C11_3 C10_3 1_555 1_555
H4_3 C11_3 1_555 1_555
C12_3 C11_3 1_555 1_555
C13_3 C4_3 1_555 1_555
C14_4 C9_3 1_555 1_555
C15_4 C7_3 1_555 1_555
C16_4 N2_4 1_555 1_555
N1_3 N3_2 1_555 1_555
N2_4 N12_2 1_555 1_555
N3_2 N4_2 1_555 1_555
N4_2 N11 1_555 1_555
N11 C1_3 1_555 1_555
N6_3 C1_3 1_555 1_555
N7_4 C14_4 1_555 1_555
N8_4 C16_4 1_555 1_555
N9_3 N8_4 1_555 1_555
N12_2 N9_3 1_555 1_555
O1_2 C2_3 1_555 1_555
O2_3 C3_3 1_555 1_555
O3_4 C14_4 1_555 1_555
O4_4 C15_4 1_555 1_555
O5_2 Cd3 1_555 1_555
O6_3 Cd3 1_555 1_555
C2_3 N6_3 1_555 1_555
C3_3 N6_3 1_555 1_555
C8_3 C13_3 1_555 1_555
C12_3 C13_3 1_555 1_555
C15_4 N7_4 1_555 1_555
C16_4 N7_4 1_555 1_555
O5_2 H5_2 1_555 1_555
O5_2 H6_2 1_555 1_555
O6_3 H7_4 1_555 1_555
O6_3 H8_3 1_555 1_555
Cd2 N3_3 1_555 1_555
C1_4 N1_4 1_555 1_555
C2_4 C12_4 1_555 1_555
C3_4 C4_4 1_555 1_555
C12_4 C11_4 1_555 1_555
C13_4 C4_4 1_555 1_555
N1_4 N3_3 1_555 1_555
N3_3 N4_3 1_555 1_555
N4_3 N5_2 1_555 1_555
N5_2 C1_4 1_555 1_555
N6_4 C1_4 1_555 1_555
O1_3 C2_4 1_555 1_555
O2_4 C3_4 1_555 1_555
O5_3 Cd2 1_555 1_555
Cd3_2 N5_2 1_555 1_555
N11_2 Cd2 1_555 1_555
C2_4 N6_4 1_555 1_555
C3_4 N6_4 1_555 1_555
C8_4 C13_4 1_555 1_555
C12_4 C13_4 1_555 1_555
O5_3 H5_3 1_555 1_555
O5_3 H6_3 1_555 1_555
C2_5 C12_5 1_555 1_555
C3_5 C4_5 1_555 1_555
C4_5 C5_4 1_555 1_555
C5_4 H1_4 1_555 1_555
C6_4 C5_4 1_555 1_555
H2_4 C6_4 1_555 1_555
C7_4 C6_4 1_555 1_555
C8_5 C7_4 1_555 1_555
C9_4 C8_5 1_555 1_555
C10_4 C9_4 1_555 1_555
H3_4 C10_4 1_555 1_555
C11_5 C10_4 1_555 1_555
H4_4 C11_5 1_555 1_555
C12_5 C11_5 1_555 1_555
C13_5 C4_5 1_555 1_555
C14_5 C9_4 1_555 1_555
C15_5 C7_4 1_555 1_555
C16_5 N2_5 1_555 1_555
N2_5 N10_3 1_555 1_555
N6_5 C1_5 1_555 1_555
N7_5 C14_5 1_555 1_555
N8_5 C16_5 1_555 1_555
N9_5 N8_5 1_555 1_555
N10_3 N9_5 1_555 1_555
O2_5 C3_5 1_555 1_555
O3_5 C14_5 1_555 1_555
O4_5 C15_5 1_555 1_555
Cd2_2 N10_3 1_555 1_555
C2_5 N6_5 1_555 1_555
C3_5 N6_5 1_555 1_555
C8_5 C13_5 1_555 1_555
C12_5 C13_5 1_555 1_555
C15_5 N7_5 1_555 1_555
C16_5 N7_5 1_555 1_555
Cd2_2 N3_4 1_555 1_555
C1_6 N1_5 1_555 1_555
C2_6 C12_6 1_555 1_555
C3_6 C4_6 1_555 1_555
C12_6 C11_6 1_555 1_555
C13_6 C4_6 1_555 1_555
N1_5 N3_4 1_555 1_555
N3_4 N4_4 1_555 1_555
N4_4 N5_3 1_555 1_555
N5_3 C1_6 1_555 1_555
N6_6 C1_6 1_555 1_555
O1_4 C2_6 1_555 1_555
O2_6 C3_6 1_555 1_555
O5_4 Cd2_2 1_555 1_555
O6_4 Cd2_2 1_555 1_555
Cd3_3 N5_3 1_555 1_555
N11_3 Cd2_2 1_555 1_555
C2_6 N6_6 1_555 1_555
C3_6 N6_6 1_555 1_555
C8_6 C13_6 1_555 1_555
C12_6 C13_6 1_555 1_555
O5_4 H5_4 1_555 1_555
O5_4 H6_4 1_555 1_555
O6_4 H7_5 1_555 1_555
O6_4 H8_4 1_555 1_555
Cd3_2 N3_5 1_555 1_555
C1_7 N1_6 1_555 1_555
C2_7 C12_7 1_555 1_555
C3_7 C4_7 1_555 1_555
C4_7 C5_5 1_555 1_555
C5_5 H1_5 1_555 1_555
C6_5 C5_5 1_555 1_555
H2_5 C6_5 1_555 1_555
C7_5 C6_5 1_555 1_555
C8_7 C7_5 1_555 1_555
C9_5 C8_7 1_555 1_555
C10_5 C9_5 1_555 1_555
H3_5 C10_5 1_555 1_555
C11_7 C10_5 1_555 1_555
H4_5 C11_7 1_555 1_555
C12_7 C11_7 1_555 1_555
C13_7 C4_7 1_555 1_555
C14_6 C9_5 1_555 1_555
C15_6 C7_5 1_555 1_555
C16_6 N2_6 1_555 1_555
N1_6 N3_5 1_555 1_555
N2_6 N10_4 1_555 1_555
N3_5 N4_5 1_555 1_555
N4_5 N11_3 1_555 1_555
N11_3 C1_7 1_555 1_555
N6_7 C1_7 1_555 1_555
N7_6 C14_6 1_555 1_555
N8_6 C16_6 1_555 1_555
O1_5 C2_7 1_555 1_555
O2_7 C3_7 1_555 1_555
O3_6 C14_6 1_555 1_555
O4_6 C15_6 1_555 1_555
O5_5 Cd3_2 1_555 1_555
O6_5 Cd3_2 1_555 1_555
N12_3 Cd3_2 1_555 1_555
C2_7 N6_7 1_555 1_555
C3_7 N6_7 1_555 1_555
C8_7 C13_7 1_555 1_555
C12_7 C13_7 1_555 1_555
C15_6 N7_6 1_555 1_555
C16_6 N7_6 1_555 1_555
O5_5 H5_5 1_555 1_555
O5_5 H6_5 1_555 1_555
O6_5 H7_6 1_555 1_555
O6_5 H8_5 1_555 1_555
O6_6 H7_7 1_555 1_555
O6_6 H8_6 1_555 1_555
C16_7 N2_7 1_555 1_555
N2_7 N12_3 1_555 1_555
N7_7 C14_7 1_555 1_555
N8_7 C16_7 1_555 1_555
N9_6 N8_7 1_555 1_555
N12_3 N9_6 1_555 1_555
O3_7 C14_7 1_555 1_555
O4_7 C15_7 1_555 1_555
C15_7 N7_7 1_555 1_555
C16_7 N7_7 1_555 1_555
Cd3_3 N3_6 1_555 1_555
N3_6 N4_6 1_555 1_555
N4_6 N11_2 1_555 1_555
O5_6 Cd3_3 1_555 1_555
O6_7 Cd3_3 1_555 1_555
O5_6 H5_6 1_555 1_555
O5_6 H6_6 1_555 1_555
O6_7 H8_7 1_555 1_555
Cd1_2 N3_7 1_555 1_555
N1_7 N3_7 1_555 1_555
O5_7 Cd1_2 1_555 1_555
O6_8 Cd1_2 1_555 1_555
N11_4 Cd1_2 1_555 1_555
N12_4 Cd1_2 1_555 1_555
O5_7 H5_7 1_555 1_555
O5_7 H6_7 1_555 1_555
O6_8 H7_8 1_555 1_555
O6_8 H8_8 1_555 1_555
Cd2_3 N3_8 1_555 1_555
C1_8 N1_8 1_555 1_555
C2_8 C12_8 1_555 1_555
C3_8 C4_8 1_555 1_555
C4_8 C5_6 1_555 1_555
C5_6 H1_6 1_555 1_555
C6_6 C5_6 1_555 1_555
H2_6 C6_6 1_555 1_555
C7_6 C6_6 1_555 1_555
C8_8 C7_6 1_555 1_555
C9_6 C8_8 1_555 1_555
C10_6 C9_6 1_555 1_555
H3_6 C10_6 1_555 1_555
C11_8 C10_6 1_555 1_555
H4_6 C11_8 1_555 1_555
C12_8 C11_8 1_555 1_555
C13_8 C4_8 1_555 1_555
C14_8 C9_6 1_555 1_555
C15_8 C7_6 1_555 1_555
C16_8 N2_8 1_555 1_555
N1_8 N3_8 1_555 1_555
N2_8 N12_4 1_555 1_555
N3_8 N4_7 1_555 1_555
N4_7 N5_4 1_555 1_555
N5_4 C1_8 1_555 1_555
N6_8 C1_8 1_555 1_555
N7_8 C14_8 1_555 1_555
N8_8 C16_8 1_555 1_555
N9_8 N8_8 1_555 1_555
N12_4 N9_8 1_555 1_555
O1_7 C2_8 1_555 1_555
O2_8 C3_8 1_555 1_555
O3_8 C14_8 1_555 1_555
O4_8 C15_8 1_555 1_555
O5_8 Cd2_3 1_555 1_555
Cd3_4 N5_4 1_555 1_555
N11_5 Cd2_3 1_555 1_555
C2_8 N6_8 1_555 1_555
C3_8 N6_8 1_555 1_555
C8_8 C13_8 1_555 1_555
C12_8 C13_8 1_555 1_555
C15_8 N7_8 1_555 1_555
C16_8 N7_8 1_555 1_555
O5_8 H5_8 1_555 1_555
O5_8 H6_8 1_555 1_555
N4_8 N5_5 1_555 1_555
Cd3_5 N5_5 1_555 1_555
Cd3_4 N3_9 1_555 1_555
N1_9 N3_9 1_555 1_555
O5_9 Cd3_4 1_555 1_555
O6_9 Cd3_4 1_555 1_555
N12_5 Cd3_4 1_555 1_555
O5_9 H5_9 1_555 1_555
O5_9 H6_9 1_555 1_555
O6_9 H7_9 1_555 1_555
O6_9 H8_9 1_555 1_555
Cd3_5 N3_10 1_555 1_555
C1_9 N1_10 1_555 1_555
C2_9 C12_9 1_555 1_555
C3_9 C4_9 1_555 1_555
C4_9 C5_7 1_555 1_555
C5_7 H1_7 1_555 1_555
C6_7 C5_7 1_555 1_555
H2_7 C6_7 1_555 1_555
C7_7 C6_7 1_555 1_555
C8_9 C7_7 1_555 1_555
C9_7 C8_9 1_555 1_555
C10_7 C9_7 1_555 1_555
H3_7 C10_7 1_555 1_555
C11_9 C10_7 1_555 1_555
H4_7 C11_9 1_555 1_555
C12_9 C11_9 1_555 1_555
C13_9 C4_9 1_555 1_555
C14_9 C9_7 1_555 1_555
C15_9 C7_7 1_555 1_555
C16_9 N2_9 1_555 1_555
N1_10 N3_10 1_555 1_555
N2_9 N12_5 1_555 1_555
N3_10 N4_9 1_555 1_555
N4_9 N11_4 1_555 1_555
N11_4 C1_9 1_555 1_555
N6_9 C1_9 1_555 1_555
N7_9 C14_9 1_555 1_555
N8_9 C16_9 1_555 1_555
N9_10 N8_9 1_555 1_555
N12_5 N9_10 1_555 1_555
O1_9 C2_9 1_555 1_555
O2_9 C3_9 1_555 1_555
O3_9 C14_9 1_555 1_555
O4_9 C15_9 1_555 1_555
O5_10 Cd3_5 1_555 1_555
C2_9 N6_9 1_555 1_555
C3_9 N6_9 1_555 1_555
C8_9 C13_9 1_555 1_555
C12_9 C13_9 1_555 1_555
C15_9 N7_9 1_555 1_555
C16_9 N7_9 1_555 1_555
O5_10 H5_10 1_555 1_555
O5_10 H6_10 1_555 1_555
N4_10 N11_5 1_555 1_555
Cd1_3 N3_11 1_555 1_555
C1_10 N1_11 1_555 1_555
C2_10 C12_10 1_555 1_555
C3_10 C4_10 1_555 1_555
C4_10 C5_8 1_555 1_555
C5_8 H1_8 1_555 1_555
C6_8 C5_8 1_555 1_555
H2_8 C6_8 1_555 1_555
C7_8 C6_8 1_555 1_555
C8_10 C7_8 1_555 1_555
C9_8 C8_10 1_555 1_555
C10_8 C9_8 1_555 1_555
H3_8 C10_8 1_555 1_555
C11_10 C10_8 1_555 1_555
H4_8 C11_10 1_555 1_555
C12_10 C11_10 1_555 1_555
C13_10 C4_10 1_555 1_555
C14_10 C9_8 1_555 1_555
C15_10 C7_8 1_555 1_555
C16_10 N2_10 1_555 1_555
N1_11 N3_11 1_555 1_555
N2_10 N10_5 1_555 1_555
N3_11 N4_11 1_555 1_555
N4_11 N5_6 1_555 1_555
N5_6 C1_10 1_555 1_555
N6_10 C1_10 1_555 1_555
N7_10 C14_10 1_555 1_555
N8_10 C16_10 1_555 1_555
O1_11 C2_10 1_555 1_555
O2_10 C3_10 1_555 1_555
O3_10 C14_10 1_555 1_555
O4_10 C15_10 1_555 1_555
O5_11 Cd1_3 1_555 1_555
O6_10 Cd1_3 1_555 1_555
Cd3_6 N5_6 1_555 1_555
N11_6 Cd1_3 1_555 1_555
N12_6 Cd1_3 1_555 1_555
C2_10 N6_10 1_555 1_555
C3_10 N6_10 1_555 1_555
C8_10 C13_10 1_555 1_555
C12_10 C13_10 1_555 1_555
C15_10 N7_10 1_555 1_555
C16_10 N7_10 1_555 1_555
O5_11 H5_11 1_555 1_555
O5_11 H6_11 1_555 1_555
O6_10 H7_10 1_555 1_555
O6_10 H8_10 1_555 1_555
O6_11 H7_11 1_555 1_555
O6_11 H8_11 1_555 1_555
C16_11 N2_11 1_555 1_555
N2_11 N12_6 1_555 1_555
N7_11 C14_11 1_555 1_555
N8_11 C16_11 1_555 1_555
N9_11 N8_11 1_555 1_555
N12_6 N9_11 1_555 1_555
O3_11 C14_11 1_555 1_555
O4_11 C15_11 1_555 1_555
C15_11 N7_11 1_555 1_555
C16_11 N7_11 1_555 1_555
Cd1_4 N3_12 1_555 1_555
N3_12 N4_12 1_555 1_555
N4_12 N5_7 1_555 1_555
O5_12 Cd1_4 1_555 1_555
O6_12 Cd1_4 1_555 1_555
Cd3_7 N5_7 1_555 1_555
N11_7 Cd1_4 1_555 1_555
O5_12 H5_12 1_555 1_555
O5_12 H6_12 1_555 1_555
O6_12 H8_12 1_555 1_555
Cd3_7 N3_13 1_555 1_555
C1_11 N1_12 1_555 1_555
C2_11 C12_11 1_555 1_555
C3_11 C4_11 1_555 1_555
C12_11 C11_11 1_555 1_555
C13_11 C4_11 1_555 1_555
N1_12 N3_13 1_555 1_555
N3_13 N4_13 1_555 1_555
N4_13 N11_6 1_555 1_555
N11_6 C1_11 1_555 1_555
N6_11 C1_11 1_555 1_555
O1_13 C2_11 1_555 1_555
O2_11 C3_11 1_555 1_555
O5_13 Cd3_7 1_555 1_555
C2_11 N6_11 1_555 1_555
C3_11 N6_11 1_555 1_555
C8_11 C13_11 1_555 1_555
C12_11 C13_11 1_555 1_555
O5_13 H5_13 1_555 1_555
O5_13 H6_13 1_555 1_555
C2_12 C12_12 1_555 1_555
C3_12 C4_12 1_555 1_555
C4_12 C5_9 1_555 1_555
C5_9 H1_9 1_555 1_555
C6_9 C5_9 1_555 1_555
H2_9 C6_9 1_555 1_555
C7_9 C6_9 1_555 1_555
C8_12 C7_9 1_555 1_555
C9_9 C8_12 1_555 1_555
C10_9 C9_9 1_555 1_555
H3_9 C10_9 1_555 1_555
C11_12 C10_9 1_555 1_555
H4_9 C11_12 1_555 1_555
C12_12 C11_12 1_555 1_555
C13_12 C4_12 1_555 1_555
C14_12 C9_9 1_555 1_555
C15_12 C7_9 1_555 1_555
C16_12 N2_12 1_555 1_555
N2_12 N10_6 1_555 1_555
N6_12 C1_12 1_555 1_555
N7_12 C14_12 1_555 1_555
N8_12 C16_12 1_555 1_555
N9_13 N8_12 1_555 1_555
N10_6 N9_13 1_555 1_555
O2_12 C3_12 1_555 1_555
O3_12 C14_12 1_555 1_555
O4_12 C15_12 1_555 1_555
Cd3_6 N10_6 1_555 1_555
C2_12 N6_12 1_555 1_555
C3_12 N6_12 1_555 1_555
C8_12 C13_12 1_555 1_555
C12_12 C13_12 1_555 1_555
C15_12 N7_12 1_555 1_555
C16_12 N7_12 1_555 1_555
Cd3_6 N3_14 1_555 1_555
C1_13 N1_13 1_555 1_555
C2_13 C12_13 1_555 1_555
C3_13 C4_13 1_555 1_555
C12_13 C11_13 1_555 1_555
C13_13 C4_13 1_555 1_555
N1_13 N3_14 1_555 1_555
N3_14 N4_14 1_555 1_555
N4_14 N11_7 1_555 1_555
N11_7 C1_13 1_555 1_555
N6_13 C1_13 1_555 1_555
O1_14 C2_13 1_555 1_555
O2_13 C3_13 1_555 1_555
O5_14 Cd3_6 1_555 1_555
O6_13 Cd3_6 1_555 1_555
C2_13 N6_13 1_555 1_555
C3_13 N6_13 1_555 1_555
C8_13 C13_13 1_555 1_555
C12_13 C13_13 1_555 1_555
O5_14 H5_14 1_555 1_555
O5_14 H6_14 1_555 1_555
O6_13 H7_12 1_555 1_555
O6_13 H8_13 1_555 1_555
C10_10 C9_10 1_555 1_555
H3_10 C10_10 1_555 1_555
C5_10 H1_10 1_555 1_555
C6_10 C5_10 1_555 1_555
H2_10 C6_10 1_555 1_555
C7_10 C6_10 1_555 1_555
C1_14 N1_14 1_555 1_555
C2_14 C12_14 1_555 1_555
C3_14 C4_14 1_555 1_555
C4_14 C5_11 1_555 1_555
C5_11 H1_11 1_555 1_555
C6_11 C5_11 1_555 1_555
H2_11 C6_11 1_555 1_555
C7_11 C6_11 1_555 1_555
C8_14 C7_11 1_555 1_555
C9_11 C8_14 1_555 1_555
C10_11 C9_11 1_555 1_555
H3_11 C10_11 1_555 1_555
C11_14 C10_11 1_555 1_555
H4_11 C11_14 1_555 1_555
C12_14 C11_14 1_555 1_555
C13_14 C4_14 1_555 1_555
C14_13 C9_11 1_555 1_555
C15_13 C7_11 1_555 1_555
C16_13 N2_13 1_555 1_555
N2_13 N10_7 1_555 1_555
N6_14 C1_14 1_555 1_555
N7_13 C14_13 1_555 1_555
N8_13 C16_13 1_555 1_555
N9_14 N8_13 1_555 1_555
N10_7 N9_14 1_555 1_555
O2_14 C3_14 1_555 1_555
O3_13 C14_13 1_555 1_555
O4_13 C15_13 1_555 1_555
Cd2_4 N10_7 1_555 1_555
C2_14 N6_14 1_555 1_555
C3_14 N6_14 1_555 1_555
C8_14 C13_14 1_555 1_555
C12_14 C13_14 1_555 1_555
C15_13 N7_13 1_555 1_555
C16_13 N7_13 1_555 1_555
C16_14 N2_14 1_555 1_555
N2_14 N12_7 1_555 1_555
N7_14 C14_14 1_555 1_555
N8_14 C16_14 1_555 1_555
N9_15 N8_14 1_555 1_555
N12_7 N9_15 1_555 1_555
O3_14 C14_14 1_555 1_555
O4_14 C15_14 1_555 1_555
C15_14 N7_14 1_555 1_555
C16_14 N7_14 1_555 1_555
Cd2_4 N3_15 1_555 1_555
C1_15 N1_16 1_555 1_555
C2_15 C12_15 1_555 1_555
C3_15 C4_15 1_555 1_555
C4_15 C5_12 1_555 1_555
C5_12 H1_12 1_555 1_555
C6_12 C5_12 1_555 1_555
H2_12 C6_12 1_555 1_555
C7_12 C6_12 1_555 1_555
C8_15 C7_12 1_555 1_555
C9_12 C8_15 1_555 1_555
C10_12 C9_12 1_555 1_555
H3_12 C10_12 1_555 1_555
C11_15 C10_12 1_555 1_555
H4_12 C11_15 1_555 1_555
C12_15 C11_15 1_555 1_555
C13_15 C4_15 1_555 1_555
C14_15 C9_12 1_555 1_555
C15_15 C7_12 1_555 1_555
C16_15 N2_15 1_555 1_555
N1_16 N3_15 1_555 1_555
N2_15 N12_8 1_555 1_555
N3_15 N4_15 1_555 1_555
N4_15 N5_8 1_555 1_555
N5_8 C1_15 1_555 1_555
N6_15 C1_15 1_555 1_555
N7_15 C14_15 1_555 1_555
N8_15 C16_15 1_555 1_555
N9_16 N8_15 1_555 1_555
N12_8 N9_16 1_555 1_555
O1_15 C2_15 1_555 1_555
O2_15 C3_15 1_555 1_555
O3_15 C14_15 1_555 1_555
O4_15 C15_15 1_555 1_555
O5_15 Cd2_4 1_555 1_555
O6_14 Cd2_4 1_555 1_555
Cd3_8 N5_8 1_555 1_555
N11_8 Cd2_4 1_555 1_555
C2_15 N6_15 1_555 1_555
C3_15 N6_15 1_555 1_555
C8_15 C13_15 1_555 1_555
C12_15 C13_15 1_555 1_555
C15_15 N7_15 1_555 1_555
C16_15 N7_15 1_555 1_555
O5_15 H5_15 1_555 1_555
O5_15 H6_15 1_555 1_555
O6_14 H7_15 1_555 1_555
O6_14 H8_14 1_555 1_555
C2_16 C12_16 1_555 1_555
C3_16 C4_16 1_555 1_555
C4_16 C5_13 1_555 1_555
C5_13 H1_13 1_555 1_555
C6_13 C5_13 1_555 1_555
H2_13 C6_13 1_555 1_555
C7_13 C6_13 1_555 1_555
C8_16 C7_13 1_555 1_555
C9_13 C8_16 1_555 1_555
C10_13 C9_13 1_555 1_555
H3_13 C10_13 1_555 1_555
C11_16 C10_13 1_555 1_555
H4_13 C11_16 1_555 1_555
C12_16 C11_16 1_555 1_555
C13_16 C4_16 1_555 1_555
C14_16 C9_13 1_555 1_555
C15_16 C7_13 1_555 1_555
C16_16 N2_16 1_555 1_555
N2_16 N10_8 1_555 1_555
N4_16 N11_8 1_555 1_555
N11_8 C1_16 1_555 1_555
N6_16 C1_16 1_555 1_555
N7_16 C14_16 1_555 1_555
N8_16 C16_16 1_555 1_555
O1_16 C2_16 1_555 1_555
O2_16 C3_16 1_555 1_555
O3_16 C14_16 1_555 1_555
O4_16 C15_16 1_555 1_555
C2_16 N6_16 1_555 1_555
C3_16 N6_16 1_555 1_555
C8_16 C13_16 1_555 1_555
C12_16 C13_16 1_555 1_555
C15_16 N7_16 1_555 1_555
C16_16 N7_16 1_555 1_555
O6_15 H7_16 1_555 1_555
O6_15 H8_15 1_555 1_555
Cd3_8 N3_16 1_555 1_555
O5_16 Cd3_8 1_555 1_555
O6_16 Cd3_8 1_555 1_555
O5_16 H5_16 1_555 1_555
O5_16 H6_16 1_555 1_555
O6_16 H8_16 1_555 1_555
C5_14 H1_14 1_555 1_555
C6_14 C5_14 1_555 1_555
H2_14 C6_14 1_555 1_555
C7_14 C6_14 1_555 1_555
C10_14 C9_14 1_555 1_555
H3_14 C10_14 1_555 1_555
C5_15 H1_15 1_555 1_555
C6_15 C5_15 1_555 1_555
H2_15 C6_15 1_555 1_555
C7_15 C6_15 1_555 1_555
C10_15 C9_15 1_555 1_555
H3_15 C10_15 1_555 1_555
C10_16 C9_16 1_555 1_555
H3_16 C10_16 1_555 1_555
C5_16 H1_16 1_555 1_555
C6_16 C5_16 1_555 1_555
H2_16 C6_16 1_555 1_555
C7_16 C6_16 1_555 1_555

#END
