
###############################################################################
#
# This file contains modified crystal structure data generated from the
# MOF subset of the Cambridge Structural Database (CSD) v543 
# hosted by the Cambridge Crystallographic Data Centre (CCDC).
#
# This work is licensed under the Creative Commons
# Attribution-NonCommercial-ShareAlike 4.0 International License.
# To view a copy of this license, visit
# http://creativecommons.org/licenses/by-nc-sa/4.0/
# or send a letter to
# Creative Commons, PO Box 1866, Mountain View, CA 94042, USA.
#
# CIF created using the CSD Python API on 29 September 2022
# The structure has been converted into the P1 space group
# The structure has a 3D framework
# The original CSD entry ZAVBUX is in the monoclinic crystal system
# The framework has been calculated to contain at least 10.0% void space
# The void calculation uses a probe of radius 1.32A, grid spacing 0.4
#
###############################################################################

data_ZAVBUX
_chemical_formula_moiety         '(C158 H158 N96 Zn24)n'
_symmetry_cell_setting           triclinic
_symmetry_space_group_name_H-M   'P 1'
_symmetry_Int_Tables_number      1
_space_group_name_Hall           'P 1'
loop_
_symmetry_equiv_pos_site_id
_symmetry_equiv_pos_as_xyz
1 x,y,z
_cell_length_a                   14.10730(10)
_cell_length_b                   24.1246(2)
_cell_length_c                   19.8844(2)
_cell_angle_alpha                90
_cell_angle_beta                 98.2080(10)
_cell_angle_gamma                90
_cell_volume                     6697.99
loop_
_atom_site_label
_atom_site_type_symbol
_atom_site_fract_x
_atom_site_fract_y
_atom_site_fract_z
C8 C 0.000000 0.37461(14) 0.000000
H8 H 0.000001 0.413994 0.000000
N16 N 0.04205(15) 0.34459(8) 0.05184(10)
C24 C 0.0257(2) 0.29039(11) 0.03163(13)
H24 H 0.046754 0.258464 0.057499
Zn10 Zn 0.10652(2) 0.37518(2) 0.13951(2)
Zn1 Zn 0.21002(2) 0.37578(2) 0.50102(2)
Zn2 Zn 0.89348(2) 0.37518(2) 0.86049(2)
Zn3 Zn 0.53596(2) 0.30696(2) 0.70022(2)
N1 N 0.72966(14) 0.33011(8) 0.56493(10)
N2 N 0.49742(14) 0.23072(9) 0.72260(10)
N3 N 0.62838(15) 0.30199(8) 0.63397(10)
N4 N 0.08008(14) 0.34586(8) 0.50498(10)
N5 N 0.44538(14) 0.16293(8) 0.78447(10)
N6 N 0.29301(15) 0.37367(8) 0.59043(10)
N7 N 0.19320(16) 0.45381(8) 0.46935(11)
N8 N 0.93393(16) 0.45395(9) 0.85868(11)
N9 N 0.95795(15) 0.34459(8) 0.94816(10)
N10 N 0.42015(15) 0.34965(9) 0.66534(10)
N11 N 0.61577(15) 0.34027(9) 0.78158(10)
N12 N 0.75322(15) 0.36405(10) 0.84416(11)
C1 C 0.8823(3) 0.500000 0.86059(18)
H1 H 0.815520 0.499999 0.863047
C2 C 0.000000 0.37580(13) 0.500000
H2 H 0.000000 0.415177 0.500001
C3 C 0.45882(16) 0.21713(10) 0.77825(12)
H3 H 0.442675 0.243634 0.810074
C4 C 0.38106(17) 0.35151(10) 0.60035(12)
H4 H 0.412624 0.338353 0.564352
C5 C 0.04786(18) 0.29155(10) 0.50329(12)
H5 H 0.087351 0.259496 0.506310
C6 C 0.76613(19) 0.28280(10) 0.59723(13)
H6 H 0.824570 0.265210 0.591176
C7 C 0.64808(18) 0.33977(10) 0.58911(11)
H7 H 0.607829 0.370573 0.575717
C8_2 C 1.000000 0.37461(14) 1.000000
H8_2 H 1.000001 0.413994 1.000000
C9 C 0.70418(19) 0.26543(11) 0.63938(13)
H9 H 0.711854 0.233561 0.667698
C10 C 0.70916(17) 0.34750(11) 0.78359(12)
H10 H 0.741712 0.341486 0.745576
C11 C 0.2113(3) 0.500000 0.50467(18)
H11 H 0.235397 0.500000 0.551789
C12 C 0.5077(2) 0.18093(12) 0.69060(13)
H12 H 0.532401 0.176156 0.648960
C13 C 0.9743(2) 0.29039(11) 0.96837(13)
H13 H 0.953246 0.258464 0.942501
C14 C 0.47658(19) 0.13977(11) 0.72865(13)
H14 H 0.476454 0.101333 0.718278
C15 C 0.5968(2) 0.35336(16) 0.84555(14)
H15 H 0.535726 0.352601 0.860380
C16 C 0.2750(2) 0.38709(17) 0.65414(15)
H16 H 0.217655 0.403358 0.664885
C17 C 0.6806(2) 0.36755(17) 0.88375(15)
H17 H 0.688139 0.378171 0.930211
C18 C 0.3532(2) 0.37318(17) 0.69985(16)
H18 H 0.359861 0.378892 0.747561
C20 C 0.1640(4) 0.47158(13) 0.40547(17)
H20 H 0.146345 0.448585 0.366935
N14 N 0.19320(16) 0.54619(8) 0.46935(11)
C22 C 0.1640(4) 0.52842(13) 0.40547(17)
H22 H 0.146345 0.551415 0.366935
N15 N 0.93393(16) 0.54605(9) 0.85868(11)
Zn8 Zn 0.78998(2) 0.37578(2) 0.49898(2)
Zn9 Zn 0.21002(2) 0.62422(2) 0.50102(2)
Zn11 Zn 0.89348(2) 0.62482(2) 0.86049(2)
Zn13 Zn 0.39348(2) 0.12482(2) 0.86049(2)
N26 N 0.27034(14) 0.33011(8) 0.43507(10)
N28 N 0.94538(14) 0.33707(8) 0.78447(10)
C2_2 C 1.000000 0.37580(13) 0.500000
H2_2 H 1.000000 0.415177 0.500001
N13 N 0.91992(14) 0.34586(8) 0.49502(10)
C21 C 0.95214(18) 0.29155(10) 0.49671(12)
H21 H 0.912649 0.259496 0.493690
Zn6 Zn 0.46404(2) 0.30696(2) 0.29978(2)
N18 N 0.50258(14) 0.23072(9) 0.27740(10)
N19 N 0.37162(15) 0.30199(8) 0.36603(10)
N20 N 0.55462(14) 0.16293(8) 0.21553(10)
N21 N 0.70699(15) 0.37367(8) 0.40957(10)
N22 N 0.57985(15) 0.34965(9) 0.33466(10)
N23 N 0.38423(15) 0.34027(9) 0.21842(10)
N24 N 0.24678(15) 0.36405(10) 0.15584(11)
C25 C 0.54118(16) 0.21713(10) 0.22175(12)
H25 H 0.557325 0.243634 0.189926
C26 C 0.61894(17) 0.35151(10) 0.39965(12)
H26 H 0.587376 0.338353 0.435648
C27 C 0.23387(19) 0.28280(10) 0.40277(13)
H27 H 0.175430 0.265210 0.408824
C28 C 0.35192(18) 0.33977(10) 0.41089(11)
H28 H 0.392171 0.370573 0.424283
C29 C 0.29582(19) 0.26543(11) 0.36062(13)
H29 H 0.288146 0.233561 0.332302
C30 C 0.29084(17) 0.34750(11) 0.21641(12)
H30 H 0.258288 0.341486 0.254424
C31 C 0.4923(2) 0.18093(12) 0.30940(13)
H31 H 0.467599 0.176156 0.351040
C32 C 0.52342(19) 0.13977(11) 0.27135(13)
H32 H 0.523546 0.101333 0.281722
C33 C 0.4032(2) 0.35336(16) 0.15445(14)
H33 H 0.464274 0.352601 0.139620
C34 C 0.7250(2) 0.38709(17) 0.34586(15)
H34 H 0.782345 0.403358 0.335115
C35 C 0.3194(2) 0.36755(17) 0.11625(15)
H35 H 0.311861 0.378171 0.069789
C36 C 0.6468(2) 0.37318(17) 0.30015(16)
H36 H 0.640139 0.378892 0.252439
Zn12 Zn 0.60652(2) 0.12482(2) 0.13951(2)
N27 N 0.05462(14) 0.33707(8) 0.21553(10)
N29 N 0.80680(16) 0.45381(8) 0.53065(11)
N30 N 0.06607(16) 0.45395(9) 0.14132(11)
C1_2 C 0.1177(3) 0.500000 0.13941(18)
H1_2 H 0.184480 0.499999 0.136953
C11_2 C 0.7887(3) 0.500000 0.49533(18)
H11_2 H 0.764603 0.500000 0.448211
C20_2 C 0.8360(4) 0.47158(13) 0.59453(17)
H20_2 H 0.853655 0.448585 0.633065
N14_2 N 0.80680(16) 0.54619(8) 0.53065(11)
C22_2 C 0.8360(4) 0.52842(13) 0.59453(17)
H22_2 H 0.853655 0.551415 0.633065
N15_2 N 0.06607(16) 0.54605(9) 0.14132(11)
Zn9_2 Zn 0.78998(2) 0.62422(2) 0.49898(2)
Zn11_2 Zn 0.10652(2) 0.62482(2) 0.13951(2)
C1_3 C 0.3823(3) 0.000000 0.86059(18)
H1_3 H 0.315520 -0.000001 0.863047
N15_3 N 0.43393(16) 0.04605(9) 0.85868(11)
C23 C 0.5243(2) 0.02772(13) 0.8546(2)
H23 H 0.578498 0.050605 0.852134
C8_3 C 0.500000 0.87461(14) 0.000000
H8_3 H 0.500001 0.913994 0.000000
N16_2 N 0.54205(15) 0.84459(8) 0.05184(10)
C24_2 C 0.5257(2) 0.79039(11) 0.03163(13)
H24_2 H 0.546754 0.758464 0.057499
Zn10_2 Zn 0.60652(2) 0.87518(2) 0.13951(2)
Zn2_2 Zn 0.39348(2) 0.87518(2) 0.86049(2)
Zn3_2 Zn 0.03596(2) 0.80696(2) 0.70022(2)
N1_2 N 0.22966(14) 0.83011(8) 0.56493(10)
N3_2 N 0.12838(15) 0.80199(8) 0.63397(10)
N8_2 N 0.43393(16) 0.95395(9) 0.85868(11)
N9_2 N 0.45795(15) 0.84459(8) 0.94816(10)
N11_2 N 0.11577(15) 0.84027(9) 0.78158(10)
N12_2 N 0.25322(15) 0.86405(10) 0.84416(11)
C1_4 C 0.3823(3) 1.000000 0.86059(18)
H1_4 H 0.315520 0.999999 0.863047
C6_2 C 0.26613(19) 0.78280(10) 0.59723(13)
H6_2 H 0.324570 0.765210 0.591176
C7_2 C 0.14808(18) 0.83977(10) 0.58911(11)
H7_2 H 0.107829 0.870573 0.575717
C8_4 C 0.500000 0.87461(14) 1.000000
H8_4 H 0.500001 0.913994 1.000000
C9_2 C 0.20418(19) 0.76543(11) 0.63938(13)
H9_2 H 0.211854 0.733561 0.667698
C10_2 C 0.20916(17) 0.84750(11) 0.78359(12)
H10_2 H 0.241712 0.841486 0.745576
C12_2 C 0.0077(2) 0.68093(12) 0.69060(13)
H12_2 H 0.032401 0.676156 0.648960
C13_2 C 0.4743(2) 0.79039(11) 0.96837(13)
H13_2 H 0.453246 0.758464 0.942501
C15_2 C 0.0968(2) 0.85336(16) 0.84555(14)
H15_2 H 0.035726 0.852601 0.860380
C17_2 C 0.1806(2) 0.86755(17) 0.88375(15)
H17_2 H 0.188139 0.878171 0.930211
C19 C 0.5243(2) 0.97228(13) 0.8546(2)
H19 H 0.578498 0.949395 0.852134
Zn8_2 Zn 0.28998(2) 0.87578(2) 0.49898(2)
N28_2 N 0.44538(14) 0.83707(8) 0.78447(10)
C11_3 C 0.7113(3) -0.000000 0.50467(18)
H11_3 H 0.735397 -0.000000 0.551789
N14_3 N 0.69320(16) 0.04619(8) 0.46935(11)
C22_3 C 0.6640(4) 0.02842(13) 0.40547(17)
H22_3 H 0.646345 0.051415 0.366935
Zn9_3 Zn 0.71002(2) 0.12422(2) 0.50102(2)
Zn1_2 Zn 0.71002(2) 0.87578(2) 0.50102(2)
N2_2 N 0.99742(14) 0.73072(9) 0.72260(10)
N4_2 N 0.58008(14) 0.84586(8) 0.50498(10)
N5_2 N 0.94538(14) 0.66293(8) 0.78447(10)
N6_2 N 0.79301(15) 0.87367(8) 0.59043(10)
N7_2 N 0.69320(16) 0.95381(8) 0.46935(11)
N10_2 N 0.92015(15) 0.84965(9) 0.66534(10)
C2_3 C 0.500000 0.87580(13) 0.500000
H2_3 H 0.500000 0.915177 0.500001
C3_2 C 0.95882(16) 0.71713(10) 0.77825(12)
H3_2 H 0.942675 0.743634 0.810074
C4_2 C 0.88106(17) 0.85151(10) 0.60035(12)
H4_2 H 0.912624 0.838353 0.564352
C5_2 C 0.54786(18) 0.79155(10) 0.50329(12)
H5_2 H 0.587351 0.759496 0.506310
C11_4 C 0.7113(3) 1.000000 0.50467(18)
H11_4 H 0.735397 1.000000 0.551789
C14_2 C 0.97658(19) 0.63977(11) 0.72865(13)
H14_2 H 0.976454 0.601333 0.718278
C16_2 C 0.7750(2) 0.88709(17) 0.65414(15)
H16_2 H 0.717655 0.903358 0.664885
C18_2 C 0.8532(2) 0.87318(17) 0.69985(16)
H18_2 H 0.859861 0.878892 0.747561
C20_3 C 0.6640(4) 0.97158(13) 0.40547(17)
H20_3 H 0.646345 0.948585 0.366935
N13_2 N 0.41992(14) 0.84586(8) 0.49502(10)
C21_2 C 0.45214(18) 0.79155(10) 0.49671(12)
H21_2 H 0.412649 0.759496 0.493690
N18_2 N 0.00258(14) 0.73072(9) 0.27740(10)
N20_2 N 0.05462(14) 0.66293(8) 0.21553(10)
N21_2 N 0.20699(15) 0.87367(8) 0.40957(10)
N22_2 N 0.07985(15) 0.84965(9) 0.33466(10)
C25_2 C 0.04118(16) 0.71713(10) 0.22175(12)
H25_2 H 0.057325 0.743634 0.189926
C26_2 C 0.11894(17) 0.85151(10) 0.39965(12)
H26_2 H 0.087376 0.838353 0.435648
C32_2 C 0.02342(19) 0.63977(11) 0.27135(13)
H32_2 H 0.023546 0.601333 0.281722
C34_2 C 0.2250(2) 0.88709(17) 0.34586(15)
H34_2 H 0.282345 0.903358 0.335115
C36_2 C 0.1468(2) 0.87318(17) 0.30015(16)
H36_2 H 0.140139 0.878892 0.252439
N26_2 N 0.77034(14) 0.83011(8) 0.43507(10)
N29_2 N 0.30680(16) 0.95381(8) 0.53065(11)
Zn6_2 Zn 0.96404(2) 0.80696(2) 0.29978(2)
N19_2 N 0.87162(15) 0.80199(8) 0.36603(10)
N23_2 N 0.88423(15) 0.84027(9) 0.21842(10)
N24_2 N 0.74678(15) 0.86405(10) 0.15584(11)
C27_2 C 0.73387(19) 0.78280(10) 0.40277(13)
H27_2 H 0.675430 0.765210 0.408824
C28_2 C 0.85192(18) 0.83977(10) 0.41089(11)
H28_2 H 0.892171 0.870573 0.424283
C29_2 C 0.79582(19) 0.76543(11) 0.36062(13)
H29_2 H 0.788146 0.733561 0.332302
C30_2 C 0.79084(17) 0.84750(11) 0.21641(12)
H30_2 H 0.758288 0.841486 0.254424
C31_2 C 0.9923(2) 0.68093(12) 0.30940(13)
H31_2 H 0.967599 0.676156 0.351040
C33_2 C 0.9032(2) 0.85336(16) 0.15445(14)
H33_2 H 0.964274 0.852601 0.139620
C35_2 C 0.8194(2) 0.86755(17) 0.11625(15)
H35_2 H 0.811861 0.878171 0.069789
N27_2 N 0.55462(14) 0.83707(8) 0.21553(10)
N30_2 N 0.56607(16) 0.95395(9) 0.14132(11)
C11_5 C 0.2887(3) -0.000000 0.49533(18)
H11_5 H 0.264603 -0.000000 0.448211
N14_4 N 0.30680(16) 0.04619(8) 0.53065(11)
C22_4 C 0.3360(4) 0.02842(13) 0.59453(17)
H22_4 H 0.353655 0.051415 0.633065
Zn9_4 Zn 0.28998(2) 0.12422(2) 0.49898(2)
C11_6 C 0.2887(3) 1.000000 0.49533(18)
H11_6 H 0.264603 1.000000 0.448211
C20_4 C 0.3360(4) 0.97158(13) 0.59453(17)
H20_4 H 0.353655 0.948585 0.633065
C1_5 C 0.6177(3) 0.000000 0.13941(18)
H1_5 H 0.684480 -0.000001 0.136953
N15_4 N 0.56607(16) 0.04605(9) 0.14132(11)
C23_2 C 0.4757(2) 0.02772(13) 0.1454(2)
H23_2 H 0.421502 0.050605 0.147866
C1_6 C 0.6177(3) 1.000000 0.13941(18)
H1_6 H 0.684480 0.999999 0.136953
C19_2 C 0.4757(2) 0.97228(13) 0.1454(2)
H19_2 H 0.421502 0.949395 0.147866
C2_4 C -0.000000 0.62420(13) 0.500000
H2_4 H -0.000000 0.584823 0.499999
N13_3 N 0.08008(14) 0.65414(8) 0.50498(10)
C21_3 C 0.04786(18) 0.70845(10) 0.50329(12)
H21_3 H 0.087351 0.740504 0.506310
Zn6_3 Zn 0.53596(2) 0.69304(2) 0.70022(2)
N17 N 0.72966(14) 0.66989(8) 0.56493(10)
N18_3 N 0.49742(14) 0.76928(9) 0.72260(10)
N19_3 N 0.62838(15) 0.69801(8) 0.63397(10)
N21_3 N 0.29301(15) 0.62633(8) 0.59043(10)
N22_3 N 0.42015(15) 0.65035(9) 0.66534(10)
N23_3 N 0.61577(15) 0.65973(9) 0.78158(10)
N24_3 N 0.75322(15) 0.63595(10) 0.84416(11)
C25_3 C 0.45882(16) 0.78287(10) 0.77825(12)
H25_3 H 0.442675 0.756366 0.810074
C26_3 C 0.38106(17) 0.64849(10) 0.60035(12)
H26_3 H 0.412624 0.661647 0.564352
C27_3 C 0.76613(19) 0.71720(10) 0.59723(13)
H27_3 H 0.824570 0.734790 0.591176
C28_3 C 0.64808(18) 0.66023(10) 0.58911(11)
H28_3 H 0.607829 0.629427 0.575717
C29_3 C 0.70418(19) 0.73457(11) 0.63938(13)
H29_3 H 0.711854 0.766439 0.667698
C30_3 C 0.70916(17) 0.65250(11) 0.78359(12)
H30_3 H 0.741712 0.658514 0.745576
C31_3 C 0.5077(2) 0.81907(12) 0.69060(13)
H31_3 H 0.532401 0.823844 0.648960
C32_3 C 0.47658(19) 0.86023(11) 0.72865(13)
H32_3 H 0.476454 0.898667 0.718278
C33_3 C 0.5968(2) 0.64664(16) 0.84555(14)
H33_3 H 0.535726 0.647399 0.860380
C34_3 C 0.2750(2) 0.61291(17) 0.65414(15)
H34_3 H 0.217655 0.596642 0.664885
C35_3 C 0.6806(2) 0.63245(17) 0.88375(15)
H35_3 H 0.688139 0.621829 0.930211
C36_3 C 0.3532(2) 0.62682(17) 0.69985(16)
H36_3 H 0.359861 0.621108 0.747561
N25 N 0.27034(14) 0.66989(8) 0.43507(10)
N31 N 0.95795(15) 0.65541(8) 0.94816(10)
Zn3_3 Zn 0.46404(2) 0.69304(2) 0.29978(2)
N2_3 N 0.50258(14) 0.76928(9) 0.27740(10)
N3_3 N 0.37162(15) 0.69801(8) 0.36603(10)
N4_3 N 0.91992(14) 0.65414(8) 0.49502(10)
N6_3 N 0.70699(15) 0.62633(8) 0.40957(10)
N9_3 N 0.04205(15) 0.65541(8) 0.05184(10)
N10_3 N 0.57985(15) 0.65035(9) 0.33466(10)
N11_3 N 0.38423(15) 0.65973(9) 0.21842(10)
N12_3 N 0.24678(15) 0.63595(10) 0.15584(11)
C2_5 C 1.000000 0.62420(13) 0.500000
H2_5 H 1.000000 0.584823 0.499999
C3_3 C 0.54118(16) 0.78287(10) 0.22175(12)
H3_3 H 0.557325 0.756366 0.189926
C4_3 C 0.61894(17) 0.64849(10) 0.39965(12)
H4_3 H 0.587376 0.661647 0.435648
C5_3 C 0.95214(18) 0.70845(10) 0.49671(12)
H5_3 H 0.912649 0.740504 0.493690
C6_3 C 0.23387(19) 0.71720(10) 0.40277(13)
H6_3 H 0.175430 0.734790 0.408824
C7_3 C 0.35192(18) 0.66023(10) 0.41089(11)
H7_3 H 0.392171 0.629427 0.424283
C8_5 C 0.000000 0.62539(14) 0.000000
H8_5 H -0.000001 0.586006 0.000000
C9_3 C 0.29582(19) 0.73457(11) 0.36062(13)
H9_3 H 0.288146 0.766439 0.332302
C10_3 C 0.29084(17) 0.65250(11) 0.21641(12)
H10_3 H 0.258288 0.658514 0.254424
C12_3 C 0.4923(2) 0.81907(12) 0.30940(13)
H12_3 H 0.467599 0.823844 0.351040
C13_3 C 0.0257(2) 0.70961(11) 0.03163(13)
H13_3 H 0.046754 0.741536 0.057499
C14_3 C 0.52342(19) 0.86023(11) 0.27135(13)
H14_3 H 0.523546 0.898667 0.281722
C15_3 C 0.4032(2) 0.64664(16) 0.15445(14)
H15_3 H 0.464274 0.647399 0.139620
C16_3 C 0.7250(2) 0.61291(17) 0.34586(15)
H16_3 H 0.782345 0.596642 0.335115
C17_3 C 0.3194(2) 0.63245(17) 0.11625(15)
H17_3 H 0.311861 0.621829 0.069789
C18_3 C 0.6468(2) 0.62682(17) 0.30015(16)
H18_3 H 0.640139 0.621108 0.252439
C8_6 C 1.000000 0.62539(14) 1.000000
H8_6 H 0.999999 0.586006 1.000000
C24_3 C 0.9743(2) 0.70961(11) 0.96837(13)
H24_3 H 0.953246 0.741536 0.942501
Zn6_4 Zn 0.03596(2) 0.19304(2) 0.70022(2)
N17_2 N 0.22966(14) 0.16989(8) 0.56493(10)
N19_4 N 0.12838(15) 0.19801(8) 0.63397(10)
N23_4 N 0.11577(15) 0.15973(9) 0.78158(10)
N24_4 N 0.25322(15) 0.13595(10) 0.84416(11)
C27_4 C 0.26613(19) 0.21720(10) 0.59723(13)
H27_4 H 0.324570 0.234790 0.591176
C28_4 C 0.14808(18) 0.16023(10) 0.58911(11)
H28_4 H 0.107829 0.129427 0.575717
C29_4 C 0.20418(19) 0.23457(11) 0.63938(13)
H29_4 H 0.211854 0.266439 0.667698
C30_4 C 0.20916(17) 0.15250(11) 0.78359(12)
H30_4 H 0.241712 0.158514 0.745576
C31_4 C 0.0077(2) 0.31907(12) 0.69060(13)
H31_4 H 0.032401 0.323844 0.648960
C33_4 C 0.0968(2) 0.14664(16) 0.84555(14)
H33_4 H 0.035726 0.147399 0.860380
C35_4 C 0.1806(2) 0.13245(17) 0.88375(15)
H35_4 H 0.188139 0.121829 0.930211
N31_2 N 0.45795(15) 0.15541(8) 0.94816(10)
N2_4 N 0.00258(14) 0.26928(9) 0.27740(10)
N4_4 N 0.41992(14) 0.15414(8) 0.49502(10)
N6_4 N 0.20699(15) 0.12633(8) 0.40957(10)
N10_4 N 0.07985(15) 0.15035(9) 0.33466(10)
C2_6 C 0.500000 0.12420(13) 0.500000
H2_6 H 0.500000 0.084823 0.499999
C3_4 C 0.04118(16) 0.28287(10) 0.22175(12)
H3_4 H 0.057325 0.256366 0.189926
C4_4 C 0.11894(17) 0.14849(10) 0.39965(12)
H4_4 H 0.087376 0.161647 0.435648
C5_4 C 0.45214(18) 0.20845(10) 0.49671(12)
H5_4 H 0.412649 0.240504 0.493690
C14_4 C 0.02342(19) 0.36023(11) 0.27135(13)
H14_4 H 0.023546 0.398667 0.281722
C16_4 C 0.2250(2) 0.11291(17) 0.34586(15)
H16_4 H 0.282345 0.096642 0.335115
C18_4 C 0.1468(2) 0.12682(17) 0.30015(16)
H18_4 H 0.140139 0.121108 0.252439
N13_4 N 0.58008(14) 0.15414(8) 0.50498(10)
C21_4 C 0.54786(18) 0.20845(10) 0.50329(12)
H21_4 H 0.587351 0.240504 0.506310
N18_4 N 0.99742(14) 0.26928(9) 0.72260(10)
N21_4 N 0.79301(15) 0.12633(8) 0.59043(10)
N22_4 N 0.92015(15) 0.15035(9) 0.66534(10)
C25_4 C 0.95882(16) 0.28287(10) 0.77825(12)
H25_4 H 0.942675 0.256366 0.810074
C26_4 C 0.88106(17) 0.14849(10) 0.60035(12)
H26_4 H 0.912624 0.161647 0.564352
C32_4 C 0.97658(19) 0.36023(11) 0.72865(13)
H32_4 H 0.976454 0.398667 0.718278
C34_4 C 0.7750(2) 0.11291(17) 0.65414(15)
H34_4 H 0.717655 0.096642 0.664885
C36_4 C 0.8532(2) 0.12682(17) 0.69985(16)
H36_4 H 0.859861 0.121108 0.747561
N25_2 N 0.77034(14) 0.16989(8) 0.43507(10)
Zn3_4 Zn 0.96404(2) 0.19304(2) 0.29978(2)
N3_4 N 0.87162(15) 0.19801(8) 0.36603(10)
N9_4 N 0.54205(15) 0.15541(8) 0.05184(10)
N11_4 N 0.88423(15) 0.15973(9) 0.21842(10)
N12_4 N 0.74678(15) 0.13595(10) 0.15584(11)
C6_4 C 0.73387(19) 0.21720(10) 0.40277(13)
H6_4 H 0.675430 0.234790 0.408824
C7_4 C 0.85192(18) 0.16023(10) 0.41089(11)
H7_4 H 0.892171 0.129427 0.424283
C8_7 C 0.500000 0.12539(14) 0.000000
H8_7 H 0.499999 0.086006 0.000000
C9_4 C 0.79582(19) 0.23457(11) 0.36062(13)
H9_4 H 0.788146 0.266439 0.332302
C10_4 C 0.79084(17) 0.15250(11) 0.21641(12)
H10_4 H 0.758288 0.158514 0.254424
C12_4 C 0.9923(2) 0.31907(12) 0.30940(13)
H12_4 H 0.967599 0.323844 0.351040
C13_4 C 0.5257(2) 0.20961(11) 0.03163(13)
H13_4 H 0.546754 0.241536 0.057499
C15_4 C 0.9032(2) 0.14664(16) 0.15445(14)
H15_4 H 0.964274 0.147399 0.139620
C17_4 C 0.8194(2) 0.13245(17) 0.11625(15)
H17_4 H 0.811861 0.121829 0.069789
C8_8 C 0.500000 0.12539(14) 1.000000
H8_8 H 0.499999 0.086006 1.000000
C24_4 C 0.4743(2) 0.20961(11) 0.96837(13)
H24_4 H 0.453246 0.241536 0.942501
C8_9 C 0.000000 0.37461(14) 1.000000
H8_9 H 0.000001 0.413994 1.000000
C19_3 C 0.0243(2) 0.47228(13) 0.8546(2)
H19_3 H 0.078498 0.449395 0.852134
C23_3 C 0.0243(2) 0.52772(13) 0.8546(2)
H23_3 H 0.078498 0.550605 0.852134
C8_10 C 0.000000 0.62539(14) 1.000000
H8_10 H -0.000001 0.586006 1.000000
C8_11 C 1.000000 0.37461(14) 0.000000
H8_11 H 1.000001 0.413994 0.000000
C19_4 C 0.9757(2) 0.47228(13) 0.1454(2)
H19_4 H 0.921502 0.449395 0.147866
C23_4 C 0.9757(2) 0.52772(13) 0.1454(2)
H23_4 H 0.921502 0.550605 0.147866
C8_12 C 1.000000 0.62539(14) 0.000000
H8_12 H 0.999999 0.586006 0.000000
loop_
_geom_bond_atom_site_label_1
_geom_bond_atom_site_label_2
_geom_bond_site_symmetry_1
_geom_bond_site_symmetry_2
H8 C8 1_555 1_555
N16 C8 1_555 1_555
H24 C24 1_555 1_555
Zn10 N16 1_555 1_555
N16 C24 1_555 1_555
Zn1 N4 1_555 1_555
Zn2 N8 1_555 1_555
Zn3 N2 1_555 1_555
N1 C6 1_555 1_555
N2 C3 1_555 1_555
N3 Zn3 1_555 1_555
N4 C2 1_555 1_555
N5 C3 1_555 1_555
N6 Zn1 1_555 1_555
N7 Zn1 1_555 1_555
N8 C1 1_555 1_555
N9 Zn2 1_555 1_555
N10 Zn3 1_555 1_555
N11 Zn3 1_555 1_555
N12 Zn2 1_555 1_555
C1 H1 1_555 1_555
C2 H2 1_555 1_555
C3 H3 1_555 1_555
C4 N6 1_555 1_555
H4 C4 1_555 1_555
C5 N4 1_555 1_555
H5 C5 1_555 1_555
C6 H6 1_555 1_555
C7 N1 1_555 1_555
H7 C7 1_555 1_555
C8_2 N9 1_555 1_555
H8_2 C8_2 1_555 1_555
C9 N3 1_555 1_555
H9 C9 1_555 1_555
C10 N11 1_555 1_555
H10 C10 1_555 1_555
C11 N7 1_555 1_555
H11 C11 1_555 1_555
C12 N2 1_555 1_555
H12 C12 1_555 1_555
C13 N9 1_555 1_555
H13 C13 1_555 1_555
C14 N5 1_555 1_555
H14 C14 1_555 1_555
C15 N11 1_555 1_555
H15 C15 1_555 1_555
C16 N6 1_555 1_555
H16 C16 1_555 1_555
C17 N12 1_555 1_555
H17 C17 1_555 1_555
C18 N10 1_555 1_555
H18 C18 1_555 1_555
C20 N7 1_555 1_555
H20 C20 1_555 1_555
N14 C11 1_555 1_555
C22 C20 1_555 1_555
H22 C22 1_555 1_555
N15 C1 1_555 1_555
Zn8 N1 1_555 1_555
Zn9 N14 1_555 1_555
Zn11 N15 1_555 1_555
Zn13 N5 1_555 1_555
N26 Zn1 1_555 1_555
N28 Zn2 1_555 1_555
N3 C7 1_555 1_555
N10 C4 1_555 1_555
N12 C10 1_555 1_555
C6 C9 1_555 1_555
C12 C14 1_555 1_555
C15 C17 1_555 1_555
C16 C18 1_555 1_555
N14 C22 1_555 1_555
C2_2 H2_2 1_555 1_555
N13 C2_2 1_555 1_555
H21 C21 1_555 1_555
Zn8 N13 1_555 1_555
Zn10 N24 1_555 1_555
Zn6 N18 1_555 1_555
N26 C27 1_555 1_555
N18 C25 1_555 1_555
N19 Zn6 1_555 1_555
N20 C25 1_555 1_555
N21 Zn8 1_555 1_555
N22 Zn6 1_555 1_555
N23 Zn6 1_555 1_555
N24 C30 1_555 1_555
C25 H25 1_555 1_555
C26 N21 1_555 1_555
H26 C26 1_555 1_555
C27 H27 1_555 1_555
C28 N26 1_555 1_555
H28 C28 1_555 1_555
C29 N19 1_555 1_555
H29 C29 1_555 1_555
C30 N23 1_555 1_555
H30 C30 1_555 1_555
C31 N18 1_555 1_555
H31 C31 1_555 1_555
C32 N20 1_555 1_555
H32 C32 1_555 1_555
C33 N23 1_555 1_555
H33 C33 1_555 1_555
C34 N21 1_555 1_555
H34 C34 1_555 1_555
C35 N24 1_555 1_555
H35 C35 1_555 1_555
C36 N22 1_555 1_555
H36 C36 1_555 1_555
Zn12 N20 1_555 1_555
N27 Zn10 1_555 1_555
N29 Zn8 1_555 1_555
N30 Zn10 1_555 1_555
N13 C21 1_555 1_555
N19 C28 1_555 1_555
N22 C26 1_555 1_555
C27 C29 1_555 1_555
C31 C32 1_555 1_555
C33 C35 1_555 1_555
C34 C36 1_555 1_555
N30 C1_2 1_555 1_555
C1_2 H1_2 1_555 1_555
C11_2 N29 1_555 1_555
H11_2 C11_2 1_555 1_555
C20_2 N29 1_555 1_555
H20_2 C20_2 1_555 1_555
N14_2 C11_2 1_555 1_555
C22_2 C20_2 1_555 1_555
H22_2 C22_2 1_555 1_555
N15_2 C1_2 1_555 1_555
Zn9_2 N14_2 1_555 1_555
Zn11_2 N15_2 1_555 1_555
N14_2 C22_2 1_555 1_555
C1_3 H1_3 1_555 1_555
N15_3 C1_3 1_555 1_555
H23 C23 1_555 1_555
Zn13 N15_3 1_555 1_555
N15_3 C23 1_555 1_555
H8_3 C8_3 1_555 1_555
N16_2 C8_3 1_555 1_555
H24_2 C24_2 1_555 1_555
Zn10_2 N16_2 1_555 1_555
N16_2 C24_2 1_555 1_555
Zn2_2 N8_2 1_555 1_555
N1_2 C6_2 1_555 1_555
N3_2 Zn3_2 1_555 1_555
N8_2 C1_4 1_555 1_555
N9_2 Zn2_2 1_555 1_555
N11_2 Zn3_2 1_555 1_555
N12_2 Zn2_2 1_555 1_555
C1_4 H1_4 1_555 1_555
C6_2 H6_2 1_555 1_555
C7_2 N1_2 1_555 1_555
H7_2 C7_2 1_555 1_555
C8_4 N9_2 1_555 1_555
H8_4 C8_4 1_555 1_555
C9_2 N3_2 1_555 1_555
H9_2 C9_2 1_555 1_555
C10_2 N11_2 1_555 1_555
H10_2 C10_2 1_555 1_555
H12_2 C12_2 1_555 1_555
C13_2 N9_2 1_555 1_555
H13_2 C13_2 1_555 1_555
C15_2 N11_2 1_555 1_555
H15_2 C15_2 1_555 1_555
C17_2 N12_2 1_555 1_555
H17_2 C17_2 1_555 1_555
C19 N8_2 1_555 1_555
H19 C19 1_555 1_555
Zn8_2 N1_2 1_555 1_555
N28_2 Zn2_2 1_555 1_555
N3_2 C7_2 1_555 1_555
N12_2 C10_2 1_555 1_555
C6_2 C9_2 1_555 1_555
C15_2 C17_2 1_555 1_555
H11_3 C11_3 1_555 1_555
N14_3 C11_3 1_555 1_555
H22_3 C22_3 1_555 1_555
Zn9_3 N14_3 1_555 1_555
N14_3 C22_3 1_555 1_555
Zn1_2 N4_2 1_555 1_555
N2_2 C3_2 1_555 1_555
N4_2 C2_3 1_555 1_555
N5_2 C3_2 1_555 1_555
N6_2 Zn1_2 1_555 1_555
N7_2 Zn1_2 1_555 1_555
C2_3 H2_3 1_555 1_555
C3_2 H3_2 1_555 1_555
C4_2 N6_2 1_555 1_555
H4_2 C4_2 1_555 1_555
C5_2 N4_2 1_555 1_555
H5_2 C5_2 1_555 1_555
C11_4 N7_2 1_555 1_555
H11_4 C11_4 1_555 1_555
C14_2 N5_2 1_555 1_555
H14_2 C14_2 1_555 1_555
C16_2 N6_2 1_555 1_555
H16_2 C16_2 1_555 1_555
C18_2 N10_2 1_555 1_555
H18_2 C18_2 1_555 1_555
C20_3 N7_2 1_555 1_555
H20_3 C20_3 1_555 1_555
N13_2 C2_3 1_555 1_555
C21_2 C5_2 1_555 1_555
H21_2 C21_2 1_555 1_555
Zn8_2 N13_2 1_555 1_555
N18_2 C25_2 1_555 1_555
N20_2 C25_2 1_555 1_555
N21_2 Zn8_2 1_555 1_555
C25_2 H25_2 1_555 1_555
C26_2 N21_2 1_555 1_555
H26_2 C26_2 1_555 1_555
C32_2 N20_2 1_555 1_555
H32_2 C32_2 1_555 1_555
C34_2 N21_2 1_555 1_555
H34_2 C34_2 1_555 1_555
C36_2 N22_2 1_555 1_555
H36_2 C36_2 1_555 1_555
Zn11_2 N20_2 1_555 1_555
Zn11 N5_2 1_555 1_555
N26_2 Zn1_2 1_555 1_555
N29_2 Zn8_2 1_555 1_555
N10_2 C4_2 1_555 1_555
C16_2 C18_2 1_555 1_555
N13_2 C21_2 1_555 1_555
N22_2 C26_2 1_555 1_555
C34_2 C36_2 1_555 1_555
Zn10_2 N24_2 1_555 1_555
N26_2 C27_2 1_555 1_555
N19_2 Zn6_2 1_555 1_555
N23_2 Zn6_2 1_555 1_555
N24_2 C30_2 1_555 1_555
C27_2 H27_2 1_555 1_555
C28_2 N26_2 1_555 1_555
H28_2 C28_2 1_555 1_555
C29_2 N19_2 1_555 1_555
H29_2 C29_2 1_555 1_555
C30_2 N23_2 1_555 1_555
H30_2 C30_2 1_555 1_555
H31_2 C31_2 1_555 1_555
C33_2 N23_2 1_555 1_555
H33_2 C33_2 1_555 1_555
C35_2 N24_2 1_555 1_555
H35_2 C35_2 1_555 1_555
N27_2 Zn10_2 1_555 1_555
N30_2 Zn10_2 1_555 1_555
N19_2 C28_2 1_555 1_555
C27_2 C29_2 1_555 1_555
C33_2 C35_2 1_555 1_555
H11_5 C11_5 1_555 1_555
N14_4 C11_5 1_555 1_555
H22_4 C22_4 1_555 1_555
Zn9_4 N14_4 1_555 1_555
N14_4 C22_4 1_555 1_555
C11_6 N29_2 1_555 1_555
H11_6 C11_6 1_555 1_555
C20_4 N29_2 1_555 1_555
H20_4 C20_4 1_555 1_555
C1_5 H1_5 1_555 1_555
N15_4 C1_5 1_555 1_555
H23_2 C23_2 1_555 1_555
Zn12 N15_4 1_555 1_555
N15_4 C23_2 1_555 1_555
N30_2 C1_6 1_555 1_555
C1_6 H1_6 1_555 1_555
C19_2 N30_2 1_555 1_555
H19_2 C19_2 1_555 1_555
C2_4 H2_4 1_555 1_555
N13_3 C2_4 1_555 1_555
H21_3 C21_3 1_555 1_555
Zn9 N13_3 1_555 1_555
Zn11 N24_3 1_555 1_555
Zn6_3 N18_3 1_555 1_555
N17 C27_3 1_555 1_555
N18_3 C25_3 1_555 1_555
N19_3 Zn6_3 1_555 1_555
N28_2 C25_3 1_555 1_555
N21_3 Zn9 1_555 1_555
N22_3 Zn6_3 1_555 1_555
N23_3 Zn6_3 1_555 1_555
N24_3 C30_3 1_555 1_555
C25_3 H25_3 1_555 1_555
C26_3 N21_3 1_555 1_555
H26_3 C26_3 1_555 1_555
C27_3 H27_3 1_555 1_555
C28_3 N17 1_555 1_555
H28_3 C28_3 1_555 1_555
C29_3 N19_3 1_555 1_555
H29_3 C29_3 1_555 1_555
C30_3 N23_3 1_555 1_555
H30_3 C30_3 1_555 1_555
C31_3 N18_3 1_555 1_555
H31_3 C31_3 1_555 1_555
C32_3 N28_2 1_555 1_555
H32_3 C32_3 1_555 1_555
C33_3 N23_3 1_555 1_555
H33_3 C33_3 1_555 1_555
C34_3 N21_3 1_555 1_555
H34_3 C34_3 1_555 1_555
C35_3 N24_3 1_555 1_555
H35_3 C35_3 1_555 1_555
C36_3 N22_3 1_555 1_555
H36_3 C36_3 1_555 1_555
Zn9_2 N17 1_555 1_555
N25 Zn9 1_555 1_555
N31 Zn11 1_555 1_555
N13_3 C21_3 1_555 1_555
N19_3 C28_3 1_555 1_555
N22_3 C26_3 1_555 1_555
C27_3 C29_3 1_555 1_555
C31_3 C32_3 1_555 1_555
C33_3 C35_3 1_555 1_555
C34_3 C36_3 1_555 1_555
Zn9_2 N4_3 1_555 1_555
Zn3_3 N2_3 1_555 1_555
N25 C6_3 1_555 1_555
N2_3 C3_3 1_555 1_555
N3_3 Zn3_3 1_555 1_555
N4_3 C2_5 1_555 1_555
N27_2 C3_3 1_555 1_555
N6_3 Zn9_2 1_555 1_555
N9_3 Zn11_2 1_555 1_555
N10_3 Zn3_3 1_555 1_555
N11_3 Zn3_3 1_555 1_555
N12_3 Zn11_2 1_555 1_555
C2_5 H2_5 1_555 1_555
C3_3 H3_3 1_555 1_555
C4_3 N6_3 1_555 1_555
H4_3 C4_3 1_555 1_555
C5_3 N4_3 1_555 1_555
H5_3 C5_3 1_555 1_555
C6_3 H6_3 1_555 1_555
C7_3 N25 1_555 1_555
H7_3 C7_3 1_555 1_555
C8_5 N9_3 1_555 1_555
H8_5 C8_5 1_555 1_555
C9_3 N3_3 1_555 1_555
H9_3 C9_3 1_555 1_555
C10_3 N11_3 1_555 1_555
H10_3 C10_3 1_555 1_555
C12_3 N2_3 1_555 1_555
H12_3 C12_3 1_555 1_555
C13_3 N9_3 1_555 1_555
H13_3 C13_3 1_555 1_555
C14_3 N27_2 1_555 1_555
H14_3 C14_3 1_555 1_555
C15_3 N11_3 1_555 1_555
H15_3 C15_3 1_555 1_555
C16_3 N6_3 1_555 1_555
H16_3 C16_3 1_555 1_555
C17_3 N12_3 1_555 1_555
H17_3 C17_3 1_555 1_555
C18_3 N10_3 1_555 1_555
H18_3 C18_3 1_555 1_555
N3_3 C7_3 1_555 1_555
N10_3 C4_3 1_555 1_555
N12_3 C10_3 1_555 1_555
C6_3 C9_3 1_555 1_555
C12_3 C14_3 1_555 1_555
C15_3 C17_3 1_555 1_555
C16_3 C18_3 1_555 1_555
H8_6 C8_6 1_555 1_555
N31 C8_6 1_555 1_555
H24_3 C24_3 1_555 1_555
N31 C24_3 1_555 1_555
Zn13 N24_4 1_555 1_555
N17_2 C27_4 1_555 1_555
N19_4 Zn6_4 1_555 1_555
N23_4 Zn6_4 1_555 1_555
N24_4 C30_4 1_555 1_555
C27_4 H27_4 1_555 1_555
C28_4 N17_2 1_555 1_555
H28_4 C28_4 1_555 1_555
C29_4 N19_4 1_555 1_555
H29_4 C29_4 1_555 1_555
C30_4 N23_4 1_555 1_555
H30_4 C30_4 1_555 1_555
H31_4 C31_4 1_555 1_555
C33_4 N23_4 1_555 1_555
H33_4 C33_4 1_555 1_555
C35_4 N24_4 1_555 1_555
H35_4 C35_4 1_555 1_555
Zn9_4 N17_2 1_555 1_555
N31_2 Zn13 1_555 1_555
N19_4 C28_4 1_555 1_555
C27_4 C29_4 1_555 1_555
C33_4 C35_4 1_555 1_555
Zn9_4 N4_4 1_555 1_555
N2_4 C3_4 1_555 1_555
N4_4 C2_6 1_555 1_555
N27 C3_4 1_555 1_555
N6_4 Zn9_4 1_555 1_555
C2_6 H2_6 1_555 1_555
C3_4 H3_4 1_555 1_555
C4_4 N6_4 1_555 1_555
H4_4 C4_4 1_555 1_555
C5_4 N4_4 1_555 1_555
H5_4 C5_4 1_555 1_555
C14_4 N27 1_555 1_555
H14_4 C14_4 1_555 1_555
C16_4 N6_4 1_555 1_555
H16_4 C16_4 1_555 1_555
C18_4 N10_4 1_555 1_555
H18_4 C18_4 1_555 1_555
N13_4 C2_6 1_555 1_555
C21_4 C5_4 1_555 1_555
H21_4 C21_4 1_555 1_555
Zn9_3 N13_4 1_555 1_555
N18_4 C25_4 1_555 1_555
N28 C25_4 1_555 1_555
N21_4 Zn9_3 1_555 1_555
C25_4 H25_4 1_555 1_555
C26_4 N21_4 1_555 1_555
H26_4 C26_4 1_555 1_555
C32_4 N28 1_555 1_555
H32_4 C32_4 1_555 1_555
C34_4 N21_4 1_555 1_555
H34_4 C34_4 1_555 1_555
C36_4 N22_4 1_555 1_555
H36_4 C36_4 1_555 1_555
N25_2 Zn9_3 1_555 1_555
N10_4 C4_4 1_555 1_555
C16_4 C18_4 1_555 1_555
N13_4 C21_4 1_555 1_555
N22_4 C26_4 1_555 1_555
C34_4 C36_4 1_555 1_555
N25_2 C6_4 1_555 1_555
N3_4 Zn3_4 1_555 1_555
N9_4 Zn12 1_555 1_555
N11_4 Zn3_4 1_555 1_555
N12_4 Zn12 1_555 1_555
C6_4 H6_4 1_555 1_555
C7_4 N25_2 1_555 1_555
H7_4 C7_4 1_555 1_555
C8_7 N9_4 1_555 1_555
H8_7 C8_7 1_555 1_555
C9_4 N3_4 1_555 1_555
H9_4 C9_4 1_555 1_555
C10_4 N11_4 1_555 1_555
H10_4 C10_4 1_555 1_555
H12_4 C12_4 1_555 1_555
C13_4 N9_4 1_555 1_555
H13_4 C13_4 1_555 1_555
C15_4 N11_4 1_555 1_555
H15_4 C15_4 1_555 1_555
C17_4 N12_4 1_555 1_555
H17_4 C17_4 1_555 1_555
N3_4 C7_4 1_555 1_555
N12_4 C10_4 1_555 1_555
C6_4 C9_4 1_555 1_555
C15_4 C17_4 1_555 1_555
H8_8 C8_8 1_555 1_555
N31_2 C8_8 1_555 1_555
H24_4 C24_4 1_555 1_555
N31_2 C24_4 1_555 1_555
H8_9 C8_9 1_555 1_555
H19_3 C19_3 1_555 1_555
C23_3 C19_3 1_555 1_555
H23_3 C23_3 1_555 1_555
H8_10 C8_10 1_555 1_555
H8_11 C8_11 1_555 1_555
H19_4 C19_4 1_555 1_555
C23_4 C19_4 1_555 1_555
H23_4 C23_4 1_555 1_555
H8_12 C8_12 1_555 1_555

#END
