
###############################################################################
#
# This file contains modified crystal structure data generated from the
# MOF subset of the Cambridge Structural Database (CSD) v543 
# hosted by the Cambridge Crystallographic Data Centre (CCDC).
#
# This work is licensed under the Creative Commons
# Attribution-NonCommercial-ShareAlike 4.0 International License.
# To view a copy of this license, visit
# http://creativecommons.org/licenses/by-nc-sa/4.0/
# or send a letter to
# Creative Commons, PO Box 1866, Mountain View, CA 94042, USA.
#
# CIF created using the CSD Python API on 29 September 2022
# The structure has been converted into the P1 space group
# The structure has a 3D framework
# The original CSD entry ZAVBOR is in the tetragonal crystal system
# The framework has been calculated to contain at least 10.0% void space
# The void calculation uses a probe of radius 1.32A, grid spacing 0.4
#
###############################################################################

data_ZAVBOR
_chemical_formula_moiety         '(C192 H192 N64 Zn16)n'
_symmetry_cell_setting           triclinic
_symmetry_space_group_name_H-M   'P 1'
_symmetry_Int_Tables_number      1
_space_group_name_Hall           'P 1'
loop_
_symmetry_equiv_pos_site_id
_symmetry_equiv_pos_as_xyz
1 x,y,z
_cell_length_a                   16.5658(2)
_cell_length_b                   16.5658(2)
_cell_length_c                   21.3167(3)
_cell_angle_alpha                90
_cell_angle_beta                 90
_cell_angle_gamma                90
_cell_volume                     5849.85
loop_
_atom_site_label
_atom_site_type_symbol
_atom_site_fract_x
_atom_site_fract_y
_atom_site_fract_z
Zn1 Zn 0.65806(3) 0.54884(3) 0.64394(2)
N1 N 0.6892(2) 0.5176(2) 0.72995(15)
N2 N 0.7327(2) 0.5368(2) 0.82912(15)
N3 N 0.5401(3) 0.5324(3) 0.6365(2)
N4 N 0.4079(3) 0.5501(3) 0.6236(2)
C1 C 0.7175(3) 0.5695(3) 0.77243(17)
H1 H 0.726267 0.624975 0.763466
C2 C 0.6850(3) 0.4440(3) 0.76132(18)
C3 C 0.4811(3) 0.5768(3) 0.6178(2)
H2 H 0.491057 0.628390 0.600005
C4 C 0.7123(3) 0.4563(3) 0.82276(19)
C5 C 0.7161(3) 0.3909(3) 0.8645(2)
H3 H 0.736041 0.398797 0.905828
C6 C 0.6910(4) 0.3155(3) 0.8458(3)
C7 C 0.6594(3) 0.3666(3) 0.7421(2)
H4 H 0.640972 0.358300 0.700337
C8 C 0.6611(3) 0.3032(3) 0.7836(3)
C9 C 0.6304(4) 0.2210(3) 0.7635(3)
H5 H 0.672558 0.180471 0.770413
H6 H 0.616167 0.222422 0.718907
H7 H 0.582513 0.206898 0.788237
C10 C 0.6956(5) 0.2457(4) 0.8901(3)
H8 H 0.723915 0.262265 0.928407
H9 H 0.725076 0.201205 0.870237
H10 H 0.640950 0.227768 0.900829
C11 C 0.4188(5) 0.4845(6) 0.6638(6)
H11 H 0.377477 0.452146 0.681840
C12 C 0.4976(5) 0.4757(6) 0.6722(5)
H12 H 0.521874 0.436432 0.698748
Zn2 Zn 0.79884(3) 0.59194(3) 0.89394(2)
Zn3 Zn 0.29884(3) 0.59194(3) 0.60606(2)
N5 N 0.7132(2) 0.4827(2) 0.57912(15)
N6 N 0.6999(3) 0.6579(3) 0.6264(2)
N4_2 N 0.0921(3) 0.4499(3) 0.1236(2)
C3_2 C 0.0189(3) 0.4232(3) 0.1178(2)
H2_2 H 0.008943 0.371610 0.100005
C11_2 C 0.0812(5) 0.5155(6) 0.1638(6)
H11_2 H 0.122523 0.547854 0.181840
C12_2 C 0.0024(5) 0.5243(6) 0.1722(5)
Zn3_2 Zn 0.20116(3) 0.40806(3) 0.10606(2)
Zn1_2 Zn 0.84194(3) 0.45116(3) 0.14394(2)
N1_2 N 0.8108(2) 0.4824(2) 0.22995(15)
N2_2 N 0.7673(2) 0.4632(2) 0.32912(15)
N3_2 N 0.9599(3) 0.4676(3) 0.1365(2)
C1_2 C 0.7825(3) 0.4305(3) 0.27243(17)
H1_2 H 0.773733 0.375025 0.263466
C2_2 C 0.8150(3) 0.5560(3) 0.26132(18)
C4_2 C 0.7877(3) 0.5437(3) 0.32276(19)
C5_2 C 0.7839(3) 0.6091(3) 0.3645(2)
H3_2 H 0.763959 0.601203 0.405828
C6_2 C 0.8090(4) 0.6845(3) 0.3458(3)
C7_2 C 0.8406(3) 0.6334(3) 0.2421(2)
H4_2 H 0.859028 0.641700 0.200337
C8_2 C 0.8389(3) 0.6968(3) 0.2836(3)
C9_2 C 0.8696(4) 0.7790(3) 0.2635(3)
H5_2 H 0.827442 0.819529 0.270413
H6_2 H 0.883833 0.777578 0.218907
H7_2 H 0.917487 0.793102 0.288237
C10_2 C 0.8044(5) 0.7543(4) 0.3901(3)
H8_2 H 0.776085 0.737735 0.428407
H9_2 H 0.774924 0.798795 0.370237
H10_2 H 0.859050 0.772232 0.400829
H12_2 H 0.978126 0.563568 0.198748
Zn2_2 Zn 0.70116(3) 0.40806(3) 0.39394(2)
N5_2 N 0.7868(2) 0.5173(2) 0.07912(15)
N6_2 N 0.8001(3) 0.3421(3) 0.1264(2)
Zn2_3 Zn 0.15806(3) 0.04884(3) 0.14394(2)
Zn1_3 Zn 0.20116(3) 0.90806(3) 0.89394(2)
N1_3 N 0.2324(2) 0.9392(2) 0.97995(15)
N3_3 N 0.2176(3) 0.7901(3) 0.8865(2)
N4_3 N 0.1999(3) 0.6579(3) 0.8736(2)
C3_3 C 0.1732(3) 0.7311(3) 0.8678(2)
H2_3 H 0.121610 0.741057 0.850005
C7_3 C 0.3834(3) 0.9094(3) 0.9921(2)
H4_3 H 0.391700 0.890972 0.950337
H6_3 H 0.527578 0.866167 0.968907
C11_3 C 0.2655(6) 0.6688(5) 0.9138(6)
H11_3 H 0.297854 0.627477 0.931840
C12_3 C 0.2743(6) 0.7476(5) 0.9222(5)
H12_3 H 0.313568 0.771874 0.948748
Zn3_3 Zn 0.15806(3) 0.54884(3) 0.85606(2)
N5_3 N 0.2673(2) 0.9632(2) 0.82912(15)
N6_3 N 0.0921(3) 0.9499(3) 0.8764(2)
Zn1_4 Zn 0.29884(3) 0.09194(3) 0.39394(2)
N1_4 N 0.2676(2) 0.0608(2) 0.47995(15)
N2_3 N 0.2868(2) 0.0173(2) 0.57912(15)
N3_4 N 0.2824(3) 0.2099(3) 0.3865(2)
N4_4 N 0.3001(3) 0.3421(3) 0.3736(2)
C1_3 C 0.3195(3) 0.0325(3) 0.52243(17)
H1_3 H 0.374975 0.023733 0.513466
C2_3 C 0.1940(3) 0.0650(3) 0.51132(18)
C3_4 C 0.3268(3) 0.2689(3) 0.3678(2)
H2_4 H 0.378390 0.258943 0.350005
C4_3 C 0.2063(3) 0.0377(3) 0.57276(19)
C5_3 C 0.1409(3) 0.0339(3) 0.6145(2)
H3_3 H 0.148797 0.013959 0.655828
C6_3 C 0.0655(3) 0.0590(4) 0.5958(3)
C7_4 C 0.1166(3) 0.0906(3) 0.4921(2)
H4_4 H 0.108300 0.109028 0.450337
C8_3 C 0.0532(3) 0.0889(3) 0.5336(3)
H8_3 H 0.012265 0.026085 0.678407
C11_4 C 0.2345(6) 0.3312(5) 0.4138(6)
H11_4 H 0.202146 0.372523 0.431840
C12_4 C 0.2257(6) 0.2524(5) 0.4222(5)
H12_4 H 0.186432 0.228126 0.448748
Zn3_4 Zn 0.34194(3) 0.45116(3) 0.35606(2)
N5_4 N 0.2327(2) 0.0368(2) 0.32912(15)
N6_4 N 0.4079(3) 0.0501(3) 0.3764(2)
Zn2_4 Zn 0.34194(3) 0.95116(3) 0.64394(2)
N1_5 N 0.1892(2) 0.0176(2) 0.22995(15)
N3_5 N 0.0401(3) 0.0324(3) 0.1365(2)
C1_4 C 0.2175(3) 0.0695(3) 0.27243(17)
H1_4 H 0.226267 0.124975 0.263466
N6_5 N 0.1999(3) 0.1579(3) 0.1264(2)
N4_5 N 0.9079(3) 0.0501(3) 0.1236(2)
C3_5 C 0.9811(3) 0.0768(3) 0.1178(2)
H2_5 H 0.991057 0.128390 0.100005
Zn3_5 Zn 0.79884(3) 0.09194(3) 0.10606(2)
C2_4 C 0.3150(3) 0.0560(3) 0.76132(18)
C4_4 C 0.2877(3) 0.0437(3) 0.82276(19)
C5_4 C 0.2839(3) 0.1091(3) 0.8645(2)
H3_4 H 0.263959 0.101203 0.905828
C6_4 C 0.3090(4) 0.1845(3) 0.8458(3)
C7_5 C 0.3406(3) 0.1334(3) 0.7421(2)
H4_5 H 0.359028 0.141700 0.700337
C8_4 C 0.3389(3) 0.1968(3) 0.7836(3)
C9_3 C 0.3696(4) 0.2790(3) 0.7635(3)
H5_3 H 0.327442 0.319529 0.770413
H6_4 H 0.383833 0.277578 0.718907
H7_3 H 0.417487 0.293102 0.788237
C10_3 C 0.3044(5) 0.2543(4) 0.8901(3)
H8_4 H 0.276085 0.237735 0.928407
H9_3 H 0.274924 0.298795 0.870237
H10_3 H 0.359050 0.272232 0.900829
C11_5 C 0.5812(5) 0.0155(6) 0.6638(6)
H11_5 H 0.622523 0.047854 0.681840
C12_5 C 0.5024(5) 0.0243(6) 0.6722(5)
H12_5 H 0.478126 0.063568 0.698748
N1_6 N 0.3108(2) 0.9824(2) 0.72995(15)
N3_6 N 0.4599(3) 0.9676(3) 0.6365(2)
N4_6 N 0.5921(3) 0.9499(3) 0.6236(2)
C1_5 C 0.2825(3) 0.9305(3) 0.77243(17)
H1_5 H 0.273733 0.875025 0.763466
C3_6 C 0.5189(3) 0.9232(3) 0.6178(2)
H2_6 H 0.508943 0.871610 0.600005
Zn3_6 Zn 0.70116(3) 0.90806(3) 0.60606(2)
N6_6 N 0.3001(3) 0.8421(3) 0.6264(2)
N1_7 N 0.7324(2) 0.4392(2) 0.47995(15)
N3_7 N 0.7176(3) 0.2901(3) 0.3865(2)
N4_7 N 0.6999(3) 0.1579(3) 0.3736(2)
C1_6 C 0.6805(3) 0.4675(3) 0.52243(17)
H1_6 H 0.625025 0.476267 0.513466
C2_5 C 0.8060(3) 0.4350(3) 0.51132(18)
C3_7 C 0.6732(3) 0.2311(3) 0.3678(2)
H2_7 H 0.621610 0.241057 0.350005
C4_5 C 0.7937(3) 0.4623(3) 0.57276(19)
C5_5 C 0.8591(3) 0.4661(3) 0.6145(2)
H3_5 H 0.851203 0.486041 0.655828
C6_5 C 0.9345(3) 0.4410(4) 0.5958(3)
C7_6 C 0.8834(3) 0.4094(3) 0.4921(2)
H4_6 H 0.891700 0.390972 0.450337
C8_5 C 0.9468(3) 0.4111(3) 0.5336(3)
H8_5 H 0.987735 0.473915 0.678407
C11_6 C 0.7655(6) 0.1688(5) 0.4138(6)
H11_6 H 0.797854 0.127477 0.431840
C12_6 C 0.7743(6) 0.2476(5) 0.4222(5)
H12_6 H 0.813568 0.271874 0.448748
Zn3_7 Zn 0.65806(3) 0.04884(3) 0.35606(2)
N6_7 N 0.5921(3) 0.4499(3) 0.3764(2)
C1_7 C 0.8195(3) 0.5325(3) 0.02243(17)
H1_7 H 0.874975 0.523733 0.013466
C2_6 C 0.6940(3) 0.5650(3) 0.01132(18)
C4_6 C 0.7063(3) 0.5377(3) 0.07276(19)
C5_6 C 0.6409(3) 0.5339(3) 0.1145(2)
H3_6 H 0.648797 0.513959 0.155828
C6_6 C 0.5655(3) 0.5590(4) 0.0958(3)
C8_6 C 0.5532(3) 0.5889(3) 0.0336(3)
C9_4 C 0.4710(3) 0.6196(4) 0.0135(3)
H5_4 H 0.430471 0.577442 0.020413
H7_4 H 0.456898 0.667487 0.038237
C10_4 C 0.4957(4) 0.5544(5) 0.1401(3)
H8_6 H 0.512265 0.526085 0.178407
H9_4 H 0.451205 0.524924 0.120237
H10_4 H 0.477768 0.609050 0.150829
N1_8 N 0.7676(2) 0.5608(2) 0.97995(15)
N3_8 N 0.7824(3) 0.7099(3) 0.8865(2)
N4_8 N 0.8001(3) 0.8421(3) 0.8736(2)
C3_8 C 0.8268(3) 0.7689(3) 0.8678(2)
H2_8 H 0.878390 0.758943 0.850005
C7_7 C 0.6166(3) 0.5906(3) 0.9921(2)
H4_7 H 0.608300 0.609028 0.950337
H6_5 H 0.472422 0.633833 0.968907
C11_7 C 0.7345(6) 0.8312(5) 0.9138(6)
H11_7 H 0.702146 0.872523 0.931840
C12_7 C 0.7257(6) 0.7524(5) 0.9222(5)
H12_7 H 0.686432 0.728126 0.948748
Zn3_8 Zn 0.84194(3) 0.95116(3) 0.85606(2)
N6_8 N 0.9079(3) 0.5501(3) 0.8764(2)
N1_9 N 0.3108(2) 0.4824(2) 0.27005(15)
N2_4 N 0.2673(2) 0.4632(2) 0.17088(15)
N3_9 N 0.4599(3) 0.4676(3) 0.3635(2)
C1_8 C 0.2825(3) 0.4305(3) 0.22757(17)
H1_8 H 0.273733 0.375025 0.236534
C2_7 C 0.3150(3) 0.5560(3) 0.23868(18)
C3_9 C 0.5189(3) 0.4232(3) 0.3822(2)
H2_9 H 0.508943 0.371610 0.399995
C4_7 C 0.2877(3) 0.5437(3) 0.17724(19)
C5_7 C 0.2839(3) 0.6091(3) 0.1355(2)
H3_7 H 0.263959 0.601203 0.094172
C6_7 C 0.3090(4) 0.6845(3) 0.1542(3)
C7_8 C 0.3406(3) 0.6334(3) 0.2579(2)
H4_8 H 0.359028 0.641700 0.299663
C8_7 C 0.3389(3) 0.6968(3) 0.2164(3)
C9_5 C 0.3696(4) 0.7790(3) 0.2365(3)
H5_5 H 0.327442 0.819529 0.229587
H6_6 H 0.383833 0.777578 0.281093
H7_5 H 0.417487 0.793102 0.211763
C10_5 C 0.3044(5) 0.7543(4) 0.1099(3)
H8_7 H 0.276085 0.737735 0.071593
H9_5 H 0.274924 0.798795 0.129763
H10_5 H 0.359050 0.772232 0.099171
C11_8 C 0.5812(5) 0.5155(6) 0.3362(6)
H11_8 H 0.622523 0.547854 0.318160
C12_8 C 0.5024(5) 0.5243(6) 0.3278(5)
H12_8 H 0.478126 0.563568 0.301252
N5_5 N 0.2868(2) 0.5173(2) 0.42088(15)
N1_10 N 0.1892(2) 0.5176(2) 0.77005(15)
N2_5 N 0.2327(2) 0.5368(2) 0.67088(15)
N3_10 N 0.0401(3) 0.5324(3) 0.8635(2)
C1_9 C 0.2175(3) 0.5695(3) 0.72757(17)
H1_9 H 0.226267 0.624975 0.736534
C2_8 C 0.1850(3) 0.4440(3) 0.73868(18)
C4_8 C 0.2123(3) 0.4563(3) 0.67724(19)
C5_8 C 0.2161(3) 0.3909(3) 0.6355(2)
H3_8 H 0.236041 0.398797 0.594172
C6_8 C 0.1910(4) 0.3155(3) 0.6542(3)
C7_9 C 0.1594(3) 0.3666(3) 0.7579(2)
H4_9 H 0.140972 0.358300 0.799663
C8_8 C 0.1611(3) 0.3032(3) 0.7164(3)
C9_6 C 0.1304(4) 0.2210(3) 0.7365(3)
H5_6 H 0.172558 0.180471 0.729587
H6_7 H 0.116167 0.222422 0.781093
H7_6 H 0.082513 0.206898 0.711763
C10_6 C 0.1956(5) 0.2457(4) 0.6099(3)
H8_8 H 0.223915 0.262265 0.571593
H9_6 H 0.225076 0.201205 0.629763
H10_6 H 0.140950 0.227768 0.599171
H12_9 H 0.021874 0.436432 0.801252
N5_6 N 0.2132(2) 0.4827(2) 0.92088(15)
C3_10 C 0.9811(3) 0.5768(3) 0.8822(2)
H2_10 H 0.991057 0.628390 0.899995
C11_9 C 0.9188(5) 0.4845(6) 0.8362(6)
H11_9 H 0.877477 0.452146 0.818160
C12_9 C 0.9976(5) 0.4757(6) 0.8278(5)
N1_11 N 0.7676(2) 0.0608(2) 0.02005(15)
N3_11 N 0.7824(3) 0.2099(3) 0.1135(2)
C3_11 C 0.8268(3) 0.2689(3) 0.1322(2)
H2_11 H 0.878390 0.258943 0.149995
C7_10 C 0.6166(3) 0.0906(3) 0.0079(2)
H4_10 H 0.608300 0.109028 0.049663
H6_8 H 0.472422 0.133833 0.031093
C11_10 C 0.7345(6) 0.3312(5) 0.0862(6)
H11_10 H 0.702146 0.372523 0.068160
C12_10 C 0.7257(6) 0.2524(5) 0.0778(5)
H12_10 H 0.686432 0.228126 0.051252
N5_7 N 0.7327(2) 0.0368(2) 0.17088(15)
N1_12 N 0.7324(2) 0.9392(2) 0.52005(15)
N2_6 N 0.7132(2) 0.9827(2) 0.42088(15)
N3_12 N 0.7176(3) 0.7901(3) 0.6135(2)
C1_10 C 0.6805(3) 0.9675(3) 0.47757(17)
H1_10 H 0.625025 0.976267 0.486534
C2_9 C 0.8060(3) 0.9350(3) 0.48868(18)
C3_12 C 0.6732(3) 0.7311(3) 0.6322(2)
H2_12 H 0.621610 0.741057 0.649995
C4_9 C 0.7937(3) 0.9623(3) 0.42724(19)
C5_9 C 0.8591(3) 0.9661(3) 0.3855(2)
H3_9 H 0.851203 0.986041 0.344172
C6_9 C 0.9345(3) 0.9410(4) 0.4042(3)
C7_11 C 0.8834(3) 0.9094(3) 0.5079(2)
H4_11 H 0.891700 0.890972 0.549663
C8_9 C 0.9468(3) 0.9111(3) 0.4664(3)
H8_9 H 0.987735 0.973915 0.321593
C11_11 C 0.7655(6) 0.6688(5) 0.5862(6)
H11_11 H 0.797854 0.627477 0.568160
C12_11 C 0.7743(6) 0.7476(5) 0.5778(5)
H12_11 H 0.813568 0.771874 0.551252
N5_8 N 0.7673(2) 0.9632(2) 0.67088(15)
C3_13 C 0.0189(3) 0.9232(3) 0.8822(2)
H2_13 H 0.008943 0.871610 0.899995
N1_13 N 0.8108(2) 0.9824(2) 0.77005(15)
N3_13 N 0.9599(3) 0.9676(3) 0.8635(2)
C1_11 C 0.7825(3) 0.9305(3) 0.72757(17)
H1_11 H 0.773733 0.875025 0.736534
N1_14 N 0.6892(2) 0.0176(2) 0.27005(15)
N3_14 N 0.5401(3) 0.0324(3) 0.3635(2)
C1_12 C 0.7175(3) 0.0695(3) 0.22757(17)
H1_12 H 0.726267 0.124975 0.236534
C3_14 C 0.4811(3) 0.0768(3) 0.3822(2)
H2_14 H 0.491057 0.128390 0.399995
C2_10 C 0.6850(3) 0.9440(3) 0.23868(18)
C4_10 C 0.7123(3) 0.9563(3) 0.17724(19)
C5_10 C 0.7161(3) 0.8909(3) 0.1355(2)
H3_10 H 0.736041 0.898797 0.094172
C6_10 C 0.6910(4) 0.8155(3) 0.1542(3)
C7_12 C 0.6594(3) 0.8666(3) 0.2579(2)
H4_12 H 0.640972 0.858300 0.299663
C8_10 C 0.6611(3) 0.8032(3) 0.2164(3)
C9_7 C 0.6304(4) 0.7210(3) 0.2365(3)
H5_7 H 0.672558 0.680471 0.229587
H6_9 H 0.616167 0.722422 0.281093
H7_7 H 0.582513 0.706898 0.211763
C10_7 C 0.6956(5) 0.7457(4) 0.1099(3)
H8_10 H 0.723915 0.762265 0.071593
H9_7 H 0.725076 0.701205 0.129763
H10_7 H 0.640950 0.727768 0.099171
C11_12 C 0.4188(5) 0.9845(6) 0.3362(6)
H11_12 H 0.377477 0.952146 0.318160
C12_12 C 0.4976(5) 0.9757(6) 0.3278(5)
H12_12 H 0.521874 0.936432 0.301252
N1_15 N 0.2676(2) 0.5608(2) 0.52005(15)
N3_15 N 0.2824(3) 0.7099(3) 0.6135(2)
C1_13 C 0.3195(3) 0.5325(3) 0.47757(17)
H1_13 H 0.374975 0.523733 0.486534
C2_11 C 0.1940(3) 0.5650(3) 0.48868(18)
C3_15 C 0.3268(3) 0.7689(3) 0.6322(2)
H2_15 H 0.378390 0.758943 0.649995
C4_11 C 0.2063(3) 0.5377(3) 0.42724(19)
C5_11 C 0.1409(3) 0.5339(3) 0.3855(2)
H3_11 H 0.148797 0.513959 0.344172
C6_11 C 0.0655(3) 0.5590(4) 0.4042(3)
C7_13 C 0.1166(3) 0.5906(3) 0.5079(2)
H4_13 H 0.108300 0.609028 0.549663
C8_11 C 0.0532(3) 0.5889(3) 0.4664(3)
H8_11 H 0.012265 0.526085 0.321593
C11_13 C 0.2345(6) 0.8312(5) 0.5862(6)
H11_13 H 0.202146 0.872523 0.568160
C12_13 C 0.2257(6) 0.7524(5) 0.5778(5)
H12_13 H 0.186432 0.728126 0.551252
N1_16 N 0.2324(2) 0.4392(2) 0.02005(15)
N3_16 N 0.2176(3) 0.2901(3) 0.1135(2)
C3_16 C 0.1732(3) 0.2311(3) 0.1322(2)
H2_16 H 0.121610 0.241057 0.149995
C7_14 C 0.3834(3) 0.4094(3) 0.0079(2)
H4_14 H 0.391700 0.390972 0.049663
H6_10 H 0.527578 0.366167 0.031093
C11_14 C 0.2655(6) 0.1688(5) 0.0862(6)
H11_14 H 0.297854 0.127477 0.068160
C12_14 C 0.2743(6) 0.2476(5) 0.0778(5)
H12_14 H 0.313568 0.271874 0.051252
C1_14 C 0.1805(3) 0.4675(3) 0.97757(17)
H1_14 H 0.125025 0.476267 0.986534
C2_12 C 0.3060(3) 0.4350(3) 0.98868(18)
C4_12 C 0.2937(3) 0.4623(3) 0.92724(19)
C5_12 C 0.3591(3) 0.4661(3) 0.8855(2)
H3_12 H 0.351203 0.486041 0.844172
C6_12 C 0.4345(3) 0.4410(4) 0.9042(3)
C8_12 C 0.4468(3) 0.4111(3) 0.9664(3)
C9_8 C 0.5290(3) 0.3804(4) 0.9865(3)
H5_8 H 0.569529 0.422558 0.979587
H7_8 H 0.543102 0.332513 0.961763
C10_8 C 0.5043(4) 0.4456(5) 0.8599(3)
H8_12 H 0.487735 0.473915 0.821593
H9_8 H 0.548795 0.475076 0.879763
H10_8 H 0.522232 0.390950 0.849171
N2_7 N 0.2132(2) 0.9827(2) 0.07912(15)
C1_15 C 0.1805(3) 0.9675(3) 0.02243(17)
H1_15 H 0.125025 0.976267 0.013466
C2_13 C 0.3060(3) 0.9350(3) 0.01132(18)
C4_13 C 0.2937(3) 0.9623(3) 0.07276(19)
C5_13 C 0.3591(3) 0.9661(3) 0.1145(2)
H3_13 H 0.351203 0.986041 0.155828
C6_13 C 0.4345(3) 0.9410(4) 0.0958(3)
C8_13 C 0.4468(3) 0.9111(3) 0.0336(3)
C9_9 C 0.5290(3) 0.8804(4) 0.0135(3)
H5_9 H 0.569529 0.922558 0.020413
H7_9 H 0.543102 0.832513 0.038237
C10_9 C 0.5043(4) 0.9456(5) 0.1401(3)
H8_13 H 0.487735 0.973915 0.178407
H9_9 H 0.548795 0.975076 0.120237
H10_9 H 0.522232 0.890950 0.150829
C2_14 C 0.1850(3) 0.9440(3) 0.26132(18)
C4_14 C 0.2123(3) 0.9563(3) 0.32276(19)
C5_14 C 0.2161(3) 0.8909(3) 0.3645(2)
H3_14 H 0.236041 0.898797 0.405828
C6_14 C 0.1910(4) 0.8155(3) 0.3458(3)
C7_15 C 0.1594(3) 0.8666(3) 0.2421(2)
H4_15 H 0.140972 0.858300 0.200337
C8_14 C 0.1611(3) 0.8032(3) 0.2836(3)
C9_10 C 0.1304(4) 0.7210(3) 0.2635(3)
H5_10 H 0.172558 0.680471 0.270413
H6_11 H 0.116167 0.722422 0.218907
H7_10 H 0.082513 0.706898 0.288237
C10_10 C 0.1956(5) 0.7457(4) 0.3901(3)
H8_14 H 0.223915 0.762265 0.428407
H9_10 H 0.225076 0.701205 0.370237
H10_10 H 0.140950 0.727768 0.400829
H12_15 H 0.021874 0.936432 0.198748
C9_11 C 0.9710(3) 0.1196(4) 0.5135(3)
H5_11 H 0.930471 0.077442 0.520413
H6_12 H 0.972422 0.133833 0.468907
H7_11 H 0.956898 0.167487 0.538237
C10_11 C 0.9957(4) 0.0544(5) 0.6401(3)
H9_11 H 0.951205 0.024924 0.620237
H10_11 H 0.977768 0.109050 0.650829
C11_15 C 0.9188(5) 0.9845(6) 0.1638(6)
H11_15 H 0.877477 0.952146 0.181840
C12_15 C 0.9976(5) 0.9757(6) 0.1722(5)
C9_12 C 0.0290(3) 0.3804(4) 0.5135(3)
H5_12 H 0.069529 0.422558 0.520413
H6_13 H 0.027578 0.366167 0.468907
H7_12 H 0.043102 0.332513 0.538237
C10_12 C 0.0043(4) 0.4456(5) 0.6401(3)
H9_12 H 0.048795 0.475076 0.620237
H10_12 H 0.022232 0.390950 0.650829
N2_8 N 0.7868(2) 0.0173(2) 0.92088(15)
C1_16 C 0.8195(3) 0.0325(3) 0.97757(17)
H1_16 H 0.874975 0.023733 0.986534
C2_15 C 0.6940(3) 0.0650(3) 0.98868(18)
C4_15 C 0.7063(3) 0.0377(3) 0.92724(19)
C5_15 C 0.6409(3) 0.0339(3) 0.8855(2)
H3_15 H 0.648797 0.013959 0.844172
C6_15 C 0.5655(3) 0.0590(4) 0.9042(3)
C8_15 C 0.5532(3) 0.0889(3) 0.9664(3)
C9_13 C 0.4710(3) 0.1196(4) 0.9865(3)
H5_13 H 0.430471 0.077442 0.979587
H7_13 H 0.456898 0.167487 0.961763
C10_13 C 0.4957(4) 0.0544(5) 0.8599(3)
H8_15 H 0.512265 0.026085 0.821593
H9_13 H 0.451205 0.024924 0.879763
H10_13 H 0.477768 0.109050 0.849171
C2_16 C 0.8150(3) 0.0560(3) 0.73868(18)
C4_16 C 0.7877(3) 0.0437(3) 0.67724(19)
C5_16 C 0.7839(3) 0.1091(3) 0.6355(2)
H3_16 H 0.763959 0.101203 0.594172
C6_16 C 0.8090(4) 0.1845(3) 0.6542(3)
C7_16 C 0.8406(3) 0.1334(3) 0.7579(2)
H4_16 H 0.859028 0.141700 0.799663
C8_16 C 0.8389(3) 0.1968(3) 0.7164(3)
C9_14 C 0.8696(4) 0.2790(3) 0.7365(3)
H5_14 H 0.827442 0.319529 0.729587
H6_14 H 0.883833 0.277578 0.781093
H7_14 H 0.917487 0.293102 0.711763
C10_14 C 0.8044(5) 0.2543(4) 0.6099(3)
H8_16 H 0.776085 0.237735 0.571593
H9_14 H 0.774924 0.298795 0.629763
H10_14 H 0.859050 0.272232 0.599171
H12_16 H 0.978126 0.063568 0.801252
C9_15 C 0.0290(3) 0.8804(4) 0.4865(3)
H5_15 H 0.069529 0.922558 0.479587
H6_15 H 0.027578 0.866167 0.531093
H7_15 H 0.043102 0.832513 0.461763
C10_15 C 0.0043(4) 0.9456(5) 0.3599(3)
H9_15 H 0.048795 0.975076 0.379763
H10_15 H 0.022232 0.890950 0.349171
C11_16 C 0.0812(5) 0.0155(6) 0.8362(6)
H11_16 H 0.122523 0.047854 0.818160
C12_16 C 0.0024(5) 0.0243(6) 0.8278(5)
C9_16 C 0.9710(3) 0.6196(4) 0.4865(3)
H5_16 H 0.930471 0.577442 0.479587
H6_16 H 0.972422 0.633833 0.531093
H7_16 H 0.956898 0.667487 0.461763
C10_16 C 0.9957(4) 0.5544(5) 0.3599(3)
H9_16 H 0.951205 0.524924 0.379763
H10_16 H 0.977768 0.609050 0.349171
loop_
_geom_bond_atom_site_label_1
_geom_bond_atom_site_label_2
_geom_bond_site_symmetry_1
_geom_bond_site_symmetry_2
Zn1 N1 1_555 1_555
N1 C1 1_555 1_555
N2 C1 1_555 1_555
N3 Zn1 1_555 1_555
N4 C3 1_555 1_555
C1 H1 1_555 1_555
C2 N1 1_555 1_555
C3 N3 1_555 1_555
H2 C3 1_555 1_555
C4 N2 1_555 1_555
C5 C4 1_555 1_555
H3 C5 1_555 1_555
C6 C5 1_555 1_555
C7 C2 1_555 1_555
H4 C7 1_555 1_555
C8 C6 1_555 1_555
C9 C8 1_555 1_555
H5 C9 1_555 1_555
H6 C9 1_555 1_555
H7 C9 1_555 1_555
C10 C6 1_555 1_555
H8 C10 1_555 1_555
H9 C10 1_555 1_555
H10 C10 1_555 1_555
C11 N4 1_555 1_555
H11 C11 1_555 1_555
C12 N3 1_555 1_555
H12 C12 1_555 1_555
Zn2 N2 1_555 1_555
Zn3 N4 1_555 1_555
N5 Zn1 1_555 1_555
N6 Zn1 1_555 1_555
C2 C4 1_555 1_555
C7 C8 1_555 1_555
C11 C12 1_555 1_555
N4_2 C3_2 1_555 1_555
H2_2 C3_2 1_555 1_555
C11_2 N4_2 1_555 1_555
H11_2 C11_2 1_555 1_555
Zn3_2 N4_2 1_555 1_555
C11_2 C12_2 1_555 1_555
Zn1_2 N1_2 1_555 1_555
N1_2 C1_2 1_555 1_555
N2_2 C1_2 1_555 1_555
N3_2 Zn1_2 1_555 1_555
C1_2 H1_2 1_555 1_555
C2_2 N1_2 1_555 1_555
C4_2 N2_2 1_555 1_555
C5_2 C4_2 1_555 1_555
H3_2 C5_2 1_555 1_555
C6_2 C5_2 1_555 1_555
C7_2 C2_2 1_555 1_555
H4_2 C7_2 1_555 1_555
C8_2 C6_2 1_555 1_555
C9_2 C8_2 1_555 1_555
H5_2 C9_2 1_555 1_555
H6_2 C9_2 1_555 1_555
H7_2 C9_2 1_555 1_555
C10_2 C6_2 1_555 1_555
H8_2 C10_2 1_555 1_555
H9_2 C10_2 1_555 1_555
H10_2 C10_2 1_555 1_555
Zn2_2 N2_2 1_555 1_555
N5_2 Zn1_2 1_555 1_555
N6_2 Zn1_2 1_555 1_555
C2_2 C4_2 1_555 1_555
C7_2 C8_2 1_555 1_555
Zn1_3 N1_3 1_555 1_555
N3_3 Zn1_3 1_555 1_555
N4_3 C3_3 1_555 1_555
C3_3 N3_3 1_555 1_555
H2_3 C3_3 1_555 1_555
H4_3 C7_3 1_555 1_555
C11_3 N4_3 1_555 1_555
H11_3 C11_3 1_555 1_555
C12_3 N3_3 1_555 1_555
H12_3 C12_3 1_555 1_555
Zn3_3 N4_3 1_555 1_555
N5_3 Zn1_3 1_555 1_555
N6_3 Zn1_3 1_555 1_555
C11_3 C12_3 1_555 1_555
Zn1_4 N1_4 1_555 1_555
N1_4 C1_3 1_555 1_555
N2_3 C1_3 1_555 1_555
N3_4 Zn1_4 1_555 1_555
N4_4 C3_4 1_555 1_555
C1_3 H1_3 1_555 1_555
C2_3 N1_4 1_555 1_555
C3_4 N3_4 1_555 1_555
H2_4 C3_4 1_555 1_555
C4_3 N2_3 1_555 1_555
C5_3 C4_3 1_555 1_555
H3_3 C5_3 1_555 1_555
C6_3 C5_3 1_555 1_555
C7_4 C2_3 1_555 1_555
H4_4 C7_4 1_555 1_555
C8_3 C6_3 1_555 1_555
C11_4 N4_4 1_555 1_555
H11_4 C11_4 1_555 1_555
C12_4 N3_4 1_555 1_555
H12_4 C12_4 1_555 1_555
Zn3_4 N4_4 1_555 1_555
N5_4 Zn1_4 1_555 1_555
N6_4 Zn1_4 1_555 1_555
C2_3 C4_3 1_555 1_555
C7_4 C8_3 1_555 1_555
C11_4 C12_4 1_555 1_555
Zn2_3 N1_5 1_555 1_555
N1_5 C1_4 1_555 1_555
N5_4 C1_4 1_555 1_555
N3_5 Zn2_3 1_555 1_555
C1_4 H1_4 1_555 1_555
N6_5 Zn2_3 1_555 1_555
N4_5 C3_5 1_555 1_555
H2_5 C3_5 1_555 1_555
Zn3_5 N4_5 1_555 1_555
C5_4 C4_4 1_555 1_555
H3_4 C5_4 1_555 1_555
C6_4 C5_4 1_555 1_555
C7_5 C2_4 1_555 1_555
H4_5 C7_5 1_555 1_555
C8_4 C6_4 1_555 1_555
C9_3 C8_4 1_555 1_555
H5_3 C9_3 1_555 1_555
H6_4 C9_3 1_555 1_555
H7_3 C9_3 1_555 1_555
C10_3 C6_4 1_555 1_555
H8_4 C10_3 1_555 1_555
H9_3 C10_3 1_555 1_555
H10_3 C10_3 1_555 1_555
H11_5 C11_5 1_555 1_555
H12_5 C12_5 1_555 1_555
C2_4 C4_4 1_555 1_555
C7_5 C8_4 1_555 1_555
C11_5 C12_5 1_555 1_555
Zn2_4 N1_6 1_555 1_555
N1_6 C1_5 1_555 1_555
N5_3 C1_5 1_555 1_555
N3_6 Zn2_4 1_555 1_555
N4_6 C3_6 1_555 1_555
C1_5 H1_5 1_555 1_555
C3_6 N3_6 1_555 1_555
H2_6 C3_6 1_555 1_555
Zn3_6 N4_6 1_555 1_555
N6_6 Zn2_4 1_555 1_555
Zn2_2 N1_7 1_555 1_555
N1_7 C1_6 1_555 1_555
N5 C1_6 1_555 1_555
N3_7 Zn2_2 1_555 1_555
N4_7 C3_7 1_555 1_555
C1_6 H1_6 1_555 1_555
C2_5 N1_7 1_555 1_555
C3_7 N3_7 1_555 1_555
H2_7 C3_7 1_555 1_555
C4_5 N5 1_555 1_555
C5_5 C4_5 1_555 1_555
H3_5 C5_5 1_555 1_555
C6_5 C5_5 1_555 1_555
C7_6 C2_5 1_555 1_555
H4_6 C7_6 1_555 1_555
C8_5 C6_5 1_555 1_555
C11_6 N4_7 1_555 1_555
H11_6 C11_6 1_555 1_555
C12_6 N3_7 1_555 1_555
H12_6 C12_6 1_555 1_555
Zn3_7 N4_7 1_555 1_555
N6_7 Zn2_2 1_555 1_555
C2_5 C4_5 1_555 1_555
C7_6 C8_5 1_555 1_555
C11_6 C12_6 1_555 1_555
N5_2 C1_7 1_555 1_555
C1_7 H1_7 1_555 1_555
C4_6 N5_2 1_555 1_555
C5_6 C4_6 1_555 1_555
H3_6 C5_6 1_555 1_555
C6_6 C5_6 1_555 1_555
C8_6 C6_6 1_555 1_555
C9_4 C8_6 1_555 1_555
H5_4 C9_4 1_555 1_555
H7_4 C9_4 1_555 1_555
C10_4 C6_6 1_555 1_555
H8_6 C10_4 1_555 1_555
H9_4 C10_4 1_555 1_555
H10_4 C10_4 1_555 1_555
C2_6 C4_6 1_555 1_555
Zn2 N1_8 1_555 1_555
N3_8 Zn2 1_555 1_555
N4_8 C3_8 1_555 1_555
C3_8 N3_8 1_555 1_555
H2_8 C3_8 1_555 1_555
H4_7 C7_7 1_555 1_555
C11_7 N4_8 1_555 1_555
H11_7 C11_7 1_555 1_555
C12_7 N3_8 1_555 1_555
H12_7 C12_7 1_555 1_555
Zn3_8 N4_8 1_555 1_555
N6_8 Zn2 1_555 1_555
C11_7 C12_7 1_555 1_555
Zn3_4 N1_9 1_555 1_555
N1_9 C1_8 1_555 1_555
N2_4 C1_8 1_555 1_555
N3_9 Zn3_4 1_555 1_555
N6_7 C3_9 1_555 1_555
C1_8 H1_8 1_555 1_555
C2_7 N1_9 1_555 1_555
C3_9 N3_9 1_555 1_555
H2_9 C3_9 1_555 1_555
C4_7 N2_4 1_555 1_555
C5_7 C4_7 1_555 1_555
H3_7 C5_7 1_555 1_555
C6_7 C5_7 1_555 1_555
C7_8 C2_7 1_555 1_555
H4_8 C7_8 1_555 1_555
C8_7 C6_7 1_555 1_555
C9_5 C8_7 1_555 1_555
H5_5 C9_5 1_555 1_555
H6_6 C9_5 1_555 1_555
H7_5 C9_5 1_555 1_555
C10_5 C6_7 1_555 1_555
H8_7 C10_5 1_555 1_555
H9_5 C10_5 1_555 1_555
H10_5 C10_5 1_555 1_555
C11_8 N6_7 1_555 1_555
H11_8 C11_8 1_555 1_555
C12_8 N3_9 1_555 1_555
H12_8 C12_8 1_555 1_555
Zn3_2 N2_4 1_555 1_555
N5_5 Zn3_4 1_555 1_555
C2_7 C4_7 1_555 1_555
C7_8 C8_7 1_555 1_555
C11_8 C12_8 1_555 1_555
Zn3_3 N1_10 1_555 1_555
N1_10 C1_9 1_555 1_555
N2_5 C1_9 1_555 1_555
N3_10 Zn3_3 1_555 1_555
C1_9 H1_9 1_555 1_555
C2_8 N1_10 1_555 1_555
C4_8 N2_5 1_555 1_555
C5_8 C4_8 1_555 1_555
H3_8 C5_8 1_555 1_555
C6_8 C5_8 1_555 1_555
C7_9 C2_8 1_555 1_555
H4_9 C7_9 1_555 1_555
C8_8 C6_8 1_555 1_555
C9_6 C8_8 1_555 1_555
H5_6 C9_6 1_555 1_555
H6_7 C9_6 1_555 1_555
H7_6 C9_6 1_555 1_555
C10_6 C6_8 1_555 1_555
H8_8 C10_6 1_555 1_555
H9_6 C10_6 1_555 1_555
H10_6 C10_6 1_555 1_555
Zn3 N2_5 1_555 1_555
N5_6 Zn3_3 1_555 1_555
C2_8 C4_8 1_555 1_555
C7_9 C8_8 1_555 1_555
N6_8 C3_10 1_555 1_555
H2_10 C3_10 1_555 1_555
C11_9 N6_8 1_555 1_555
H11_9 C11_9 1_555 1_555
C11_9 C12_9 1_555 1_555
Zn3_5 N1_11 1_555 1_555
N3_11 Zn3_5 1_555 1_555
N6_2 C3_11 1_555 1_555
C3_11 N3_11 1_555 1_555
H2_11 C3_11 1_555 1_555
H4_10 C7_10 1_555 1_555
C11_10 N6_2 1_555 1_555
H11_10 C11_10 1_555 1_555
C12_10 N3_11 1_555 1_555
H12_10 C12_10 1_555 1_555
N5_7 Zn3_5 1_555 1_555
C11_10 C12_10 1_555 1_555
Zn3_6 N1_12 1_555 1_555
N1_12 C1_10 1_555 1_555
N2_6 C1_10 1_555 1_555
N3_12 Zn3_6 1_555 1_555
N6 C3_12 1_555 1_555
C1_10 H1_10 1_555 1_555
C2_9 N1_12 1_555 1_555
C3_12 N3_12 1_555 1_555
H2_12 C3_12 1_555 1_555
C4_9 N2_6 1_555 1_555
C5_9 C4_9 1_555 1_555
H3_9 C5_9 1_555 1_555
C6_9 C5_9 1_555 1_555
C7_11 C2_9 1_555 1_555
H4_11 C7_11 1_555 1_555
C8_9 C6_9 1_555 1_555
C11_11 N6 1_555 1_555
H11_11 C11_11 1_555 1_555
C12_11 N3_12 1_555 1_555
H12_11 C12_11 1_555 1_555
N5_8 Zn3_6 1_555 1_555
C2_9 C4_9 1_555 1_555
C7_11 C8_9 1_555 1_555
C11_11 C12_11 1_555 1_555
N6_3 C3_13 1_555 1_555
H2_13 C3_13 1_555 1_555
Zn3_8 N1_13 1_555 1_555
N1_13 C1_11 1_555 1_555
N5_8 C1_11 1_555 1_555
N3_13 Zn3_8 1_555 1_555
C1_11 H1_11 1_555 1_555
Zn3_7 N1_14 1_555 1_555
N1_14 C1_12 1_555 1_555
N5_7 C1_12 1_555 1_555
N3_14 Zn3_7 1_555 1_555
N6_4 C3_14 1_555 1_555
C1_12 H1_12 1_555 1_555
C3_14 N3_14 1_555 1_555
H2_14 C3_14 1_555 1_555
C5_10 C4_10 1_555 1_555
H3_10 C5_10 1_555 1_555
C6_10 C5_10 1_555 1_555
C7_12 C2_10 1_555 1_555
H4_12 C7_12 1_555 1_555
C8_10 C6_10 1_555 1_555
C9_7 C8_10 1_555 1_555
H5_7 C9_7 1_555 1_555
H6_9 C9_7 1_555 1_555
H7_7 C9_7 1_555 1_555
C10_7 C6_10 1_555 1_555
H8_10 C10_7 1_555 1_555
H9_7 C10_7 1_555 1_555
H10_7 C10_7 1_555 1_555
H11_12 C11_12 1_555 1_555
H12_12 C12_12 1_555 1_555
C2_10 C4_10 1_555 1_555
C7_12 C8_10 1_555 1_555
C11_12 C12_12 1_555 1_555
Zn3 N1_15 1_555 1_555
N1_15 C1_13 1_555 1_555
N5_5 C1_13 1_555 1_555
N3_15 Zn3 1_555 1_555
N6_6 C3_15 1_555 1_555
C1_13 H1_13 1_555 1_555
C2_11 N1_15 1_555 1_555
C3_15 N3_15 1_555 1_555
H2_15 C3_15 1_555 1_555
C4_11 N5_5 1_555 1_555
C5_11 C4_11 1_555 1_555
H3_11 C5_11 1_555 1_555
C6_11 C5_11 1_555 1_555
C7_13 C2_11 1_555 1_555
H4_13 C7_13 1_555 1_555
C8_11 C6_11 1_555 1_555
C11_13 N6_6 1_555 1_555
H11_13 C11_13 1_555 1_555
C12_13 N3_15 1_555 1_555
H12_13 C12_13 1_555 1_555
C2_11 C4_11 1_555 1_555
C7_13 C8_11 1_555 1_555
C11_13 C12_13 1_555 1_555
Zn3_2 N1_16 1_555 1_555
N3_16 Zn3_2 1_555 1_555
N6_5 C3_16 1_555 1_555
C3_16 N3_16 1_555 1_555
H2_16 C3_16 1_555 1_555
H4_14 C7_14 1_555 1_555
C11_14 N6_5 1_555 1_555
H11_14 C11_14 1_555 1_555
C12_14 N3_16 1_555 1_555
H12_14 C12_14 1_555 1_555
C11_14 C12_14 1_555 1_555
N5_6 C1_14 1_555 1_555
C1_14 H1_14 1_555 1_555
C4_12 N5_6 1_555 1_555
C5_12 C4_12 1_555 1_555
H3_12 C5_12 1_555 1_555
C6_12 C5_12 1_555 1_555
C8_12 C6_12 1_555 1_555
C9_8 C8_12 1_555 1_555
H5_8 C9_8 1_555 1_555
H7_8 C9_8 1_555 1_555
C10_8 C6_12 1_555 1_555
H8_12 C10_8 1_555 1_555
H9_8 C10_8 1_555 1_555
H10_8 C10_8 1_555 1_555
C2_12 C4_12 1_555 1_555
N2_7 C1_15 1_555 1_555
C1_15 H1_15 1_555 1_555
C4_13 N2_7 1_555 1_555
C5_13 C4_13 1_555 1_555
H3_13 C5_13 1_555 1_555
C6_13 C5_13 1_555 1_555
C8_13 C6_13 1_555 1_555
C9_9 C8_13 1_555 1_555
H5_9 C9_9 1_555 1_555
H7_9 C9_9 1_555 1_555
C10_9 C6_13 1_555 1_555
H8_13 C10_9 1_555 1_555
H9_9 C10_9 1_555 1_555
H10_9 C10_9 1_555 1_555
C2_13 C4_13 1_555 1_555
C5_14 C4_14 1_555 1_555
H3_14 C5_14 1_555 1_555
C6_14 C5_14 1_555 1_555
C7_15 C2_14 1_555 1_555
H4_15 C7_15 1_555 1_555
C8_14 C6_14 1_555 1_555
C9_10 C8_14 1_555 1_555
H5_10 C9_10 1_555 1_555
H6_11 C9_10 1_555 1_555
H7_10 C9_10 1_555 1_555
C10_10 C6_14 1_555 1_555
H8_14 C10_10 1_555 1_555
H9_10 C10_10 1_555 1_555
H10_10 C10_10 1_555 1_555
C2_14 C4_14 1_555 1_555
C7_15 C8_14 1_555 1_555
H5_11 C9_11 1_555 1_555
H6_12 C9_11 1_555 1_555
H7_11 C9_11 1_555 1_555
H9_11 C10_11 1_555 1_555
H10_11 C10_11 1_555 1_555
H11_15 C11_15 1_555 1_555
C11_15 C12_15 1_555 1_555
H5_12 C9_12 1_555 1_555
H6_13 C9_12 1_555 1_555
H7_12 C9_12 1_555 1_555
H9_12 C10_12 1_555 1_555
H10_12 C10_12 1_555 1_555
N2_8 C1_16 1_555 1_555
C1_16 H1_16 1_555 1_555
C4_15 N2_8 1_555 1_555
C5_15 C4_15 1_555 1_555
H3_15 C5_15 1_555 1_555
C6_15 C5_15 1_555 1_555
C8_15 C6_15 1_555 1_555
C9_13 C8_15 1_555 1_555
H5_13 C9_13 1_555 1_555
H7_13 C9_13 1_555 1_555
C10_13 C6_15 1_555 1_555
H8_15 C10_13 1_555 1_555
H9_13 C10_13 1_555 1_555
H10_13 C10_13 1_555 1_555
C2_15 C4_15 1_555 1_555
C5_16 C4_16 1_555 1_555
H3_16 C5_16 1_555 1_555
C6_16 C5_16 1_555 1_555
C7_16 C2_16 1_555 1_555
H4_16 C7_16 1_555 1_555
C8_16 C6_16 1_555 1_555
C9_14 C8_16 1_555 1_555
H5_14 C9_14 1_555 1_555
H6_14 C9_14 1_555 1_555
H7_14 C9_14 1_555 1_555
C10_14 C6_16 1_555 1_555
H8_16 C10_14 1_555 1_555
H9_14 C10_14 1_555 1_555
H10_14 C10_14 1_555 1_555
C2_16 C4_16 1_555 1_555
C7_16 C8_16 1_555 1_555
H5_15 C9_15 1_555 1_555
H6_15 C9_15 1_555 1_555
H7_15 C9_15 1_555 1_555
H9_15 C10_15 1_555 1_555
H10_15 C10_15 1_555 1_555
H11_16 C11_16 1_555 1_555
C11_16 C12_16 1_555 1_555
H5_16 C9_16 1_555 1_555
H6_16 C9_16 1_555 1_555
H7_16 C9_16 1_555 1_555
H9_16 C10_16 1_555 1_555
H10_16 C10_16 1_555 1_555

#END
