
###############################################################################
#
# This file contains modified crystal structure data generated from the
# MOF subset of the Cambridge Structural Database (CSD) v543 
# hosted by the Cambridge Crystallographic Data Centre (CCDC).
#
# This work is licensed under the Creative Commons
# Attribution-NonCommercial-ShareAlike 4.0 International License.
# To view a copy of this license, visit
# http://creativecommons.org/licenses/by-nc-sa/4.0/
# or send a letter to
# Creative Commons, PO Box 1866, Mountain View, CA 94042, USA.
#
# CIF created using the CSD Python API on 29 September 2022
# The structure has been converted into the P1 space group
# The structure has a 3D framework
# The original CSD entry ZAWHIQ is in the monoclinic crystal system
# The framework has been calculated to contain at least 10.0% void space
# The void calculation uses a probe of radius 1.32A, grid spacing 0.4
#
###############################################################################

data_ZAWHIQ
_chemical_formula_moiety         '(C72 H80 N16 O34 P8 Zn12)n'
_symmetry_cell_setting           triclinic
_symmetry_space_group_name_H-M   'P 1'
_symmetry_Int_Tables_number      1
_space_group_name_Hall           'P 1'
loop_
_symmetry_equiv_pos_site_id
_symmetry_equiv_pos_as_xyz
1 x,y,z
_cell_length_a                   16.566(15)
_cell_length_b                   8.573(8)
_cell_length_c                   18.719(17)
_cell_angle_alpha                90
_cell_angle_beta                 101.70(2)
_cell_angle_gamma                90
_cell_volume                     2603.24
loop_
_atom_site_label
_atom_site_type_symbol
_atom_site_fract_x
_atom_site_fract_y
_atom_site_fract_z
O4 O 0.2261(3) 0.5914(7) 0.3324(3)
O5 O 0.1471(4) 0.4500(7) 0.2498(3)
N1 N 0.0560(4) 0.2010(8) 0.6149(4)
N2 N 0.0712(4) 0.3129(7) 0.3484(4)
C3 C 0.0557(5) 0.1790(9) 0.4648(5)
C4 C 0.1284(6) 0.1674(11) 0.5172(5)
H3 H 0.1784 0.1528 0.5029
C5 C 0.1264(6) 0.1774(13) 0.5897(5)
H4 H 0.1757 0.1676 0.6235
C6 C 0.0558(5) 0.1669(9) 0.3848(4)
H5 H 0.0976 0.0917 0.3785
H6 H 0.0029 0.1258 0.3603
C7 C 0.1541(4) 0.3778(9) 0.3748(4)
H7 H 0.1939 0.2939 0.3866
H8 H 0.1550 0.4390 0.4185
C8 C 0.1768(5) 0.4810(9) 0.3149(4)
C9 C 0.0084(5) 0.4343(9) 0.3505(4)
H9 H 0.0317 0.5357 0.3437
Zn4 Zn 0.24254(6) 0.69845(11) 0.23988(5)
Zn6 Zn 0.06357(6) 0.27358(11) 0.22725(5)
Zn7 Zn 0.06357(6) 0.22642(11) 0.72725(5)
O11 O 0.0549(4) 0.8192(7) 0.2807(3)
O9 O 0.7165(4) 0.0642(7) 0.3296(3)
Zn5 Zn 0.75746(6) 0.19845(11) 0.26012(5)
Zn2 Zn 0.93643(6) 0.77358(11) 0.27275(5)
Zn3 Zn 0.45167(6) 0.26450(11) 0.29065(5)
P1 P 0.91579(12) 0.4049(2) 0.28062(12)
P2 P 0.60971(14) 0.4392(3) 0.25646(14)
O1 O 0.8546(4) 0.3092(7) 0.3126(3)
O2 O 0.8827(4) 0.5681(7) 0.2587(3)
O3 O 0.9451(4) 0.3192(7) 0.2193(3)
O6 O 0.6787(4) 0.3606(8) 0.2273(4)
O7 O 0.5648(4) 0.3244(7) 0.2950(3)
O8 O 0.5559(5) 0.5297(8) 0.1981(4)
O10 O 0.6366(4) 0.9348(7) 0.2376(3)
N3 N 0.5485(5) 0.7041(8) 0.5981(4)
N4 N 0.5924(5) 0.7144(9) 0.3290(4)
C1 C 0.9863(5) 0.2113(9) 0.5639(5)
H1 H 0.9370 0.2258 0.5795
C2 C 0.9831(5) 0.2018(9) 0.4898(4)
H2 H 0.9330 0.2105 0.4570
H10 H 0.9938 0.4335 0.3981
C10 C 0.4883(8) 0.7692(16) 0.5489(6)
H11 H 0.4478 0.8240 0.5663
C11 C 0.4816(7) 0.7616(16) 0.4755(6)
H12 H 0.4384 0.8121 0.4447
C12 C 0.5385(5) 0.6796(9) 0.4467(5)
C13 C 0.6015(6) 0.6085(15) 0.4958(6)
H13 H 0.6414 0.5501 0.4793
C14 C 0.6044(6) 0.6253(14) 0.5699(5)
H14 H 0.6479 0.5790 0.6021
C15 C 0.5267(5) 0.6637(10) 0.3653(5)
H15 H 0.5159 0.5545 0.3534
H16 H 0.4773 0.7210 0.3438
C16 C 0.6311(6) 0.8631(10) 0.3598(5)
H17 H 0.6760 0.8393 0.4003
H18 H 0.5907 0.9239 0.3787
C17 C 0.6642(5) 0.9607(10) 0.3044(5)
C18 C 0.6556(5) 0.5915(11) 0.3232(5)
H19 H 0.6751 0.5441 0.3706
H20 H 0.7023 0.6390 0.3077
Zn8 Zn 0.54833(6) 0.76450(11) 0.20935(5)
Zn9 Zn 0.54833(6) 0.73550(11) 0.70935(5)
O12 O 0.7739(3) 0.0914(7) 0.1676(3)
O13 O 0.8529(4) 0.9500(7) 0.2502(3)
O14 O 0.4441(5) 0.0297(8) 0.3019(4)
O16 O 0.3634(4) 0.4348(7) 0.2624(3)
N5 N 0.9440(4) 0.7990(8) 0.3851(4)
N6 N 0.9288(4) 0.8129(7) 0.1516(4)
N7 N 0.4515(5) 0.2959(8) 0.4019(4)
N8 N 0.4076(5) 0.2144(9) 0.1710(4)
O2_2 O 0.1173(4) 0.0681(7) 0.2413(3)
O9_2 O 0.2835(4) 0.5642(7) 0.1704(3)
C11_2 C 0.5184(7) 0.2616(16) 0.0245(6)
H12_2 H 0.5616 0.3121 0.0553
C12_2 C 0.4615(5) 0.1796(9) 0.0533(5)
C13_2 C 0.3985(6) 0.1085(15) 0.0042(6)
H13_2 H 0.3586 0.0501 0.0207
C15_2 C 0.4733(5) 0.1637(10) 0.1347(5)
H15_2 H 0.4841 0.0545 0.1466
H16_2 H 0.5227 0.2210 0.1562
C16_2 C 0.3689(6) 0.3631(10) 0.1402(5)
H17_2 H 0.3240 0.3393 0.0997
H18_2 H 0.4093 0.4239 0.1213
C17_2 C 0.3358(5) 0.4607(10) 0.1956(5)
C18_2 C 0.3444(5) 0.0915(11) 0.1768(5)
H19_2 H 0.3249 0.0441 0.1294
H20_2 H 0.2977 0.1390 0.1923
N5_2 N 0.0560(4) 0.2990(8) 0.1149(4)
N3_2 N 0.4515(5) 0.2041(8) 0.9019(4)
C10_2 C 0.5117(8) 0.2692(16) 0.9511(6)
H11_2 H 0.5522 0.3240 0.9337
C14_2 C 0.3956(6) 0.1253(14) 0.9301(5)
H14_2 H 0.3521 0.0790 0.8979
Zn9_2 Zn 0.45167(6) 0.23550(11) 0.79065(5)
P1_2 P 0.08421(12) 0.9049(2) 0.21938(12)
P2_2 P 0.39029(14) 0.9392(3) 0.24354(14)
O1_2 O 0.1454(4) 0.8092(7) 0.1874(3)
O6_2 O 0.3213(4) 0.8606(8) 0.2727(4)
O7_2 O 0.4352(4) 0.8244(7) 0.2050(3)
C2_2 C 0.0169(5) 0.7018(9) 0.0102(4)
H2_2 H 0.0670 0.7105 0.0430
H10_2 H 0.0062 0.9335 0.1019
N7_2 N 0.5485(5) 0.7959(8) 0.0981(4)
H9_2 H 0.9683 0.0357 0.1563
C3_2 C 0.9443(5) 0.6790(9) 0.0352(5)
C6_2 C 0.9442(5) 0.6669(9) 0.1152(4)
H5_2 H 0.9024 0.5917 0.1215
H6_2 H 0.9971 0.6258 0.1397
C7_2 C 0.8459(4) 0.8778(9) 0.1252(4)
H7_2 H 0.8061 0.7939 0.1134
H8_2 H 0.8450 0.9390 0.0815
C8_2 C 0.8232(5) 0.9810(9) 0.1851(4)
C9_2 C 0.9916(5) 0.9343(9) 0.1495(4)
N1_2 N 0.9440(4) 0.7010(8) 0.8851(4)
C4_2 C 0.8716(6) 0.6674(11) 0.9828(5)
H3_2 H 0.8216 0.6528 0.9971
C5_2 C 0.8736(6) 0.6774(13) 0.9103(5)
H4_2 H 0.8243 0.6676 0.8765
Zn7_2 Zn 0.93643(6) 0.72642(11) 0.77275(5)
Zn1 Zn 0.24254(6) 0.80155(11) 0.73988(5)
P1_3 P 0.08421(12) 0.5951(2) 0.71938(12)
P2_3 P 0.39029(14) 0.5608(3) 0.74354(14)
O1_3 O 0.1454(4) 0.6908(7) 0.6874(3)
O2_3 O 0.1173(4) 0.4319(7) 0.7413(3)
O3_2 O 0.0549(4) 0.6808(7) 0.7807(3)
O6_3 O 0.3213(4) 0.6394(8) 0.7727(4)
O7_3 O 0.4352(4) 0.6756(7) 0.7050(3)
O8_2 O 0.4441(5) 0.4703(8) 0.8019(4)
O10_2 O 0.3634(4) 0.0652(7) 0.7624(3)
N4_2 N 0.4076(5) 0.2856(9) 0.6710(4)
C1_2 C 0.0137(5) 0.7887(9) 0.4361(5)
H1_2 H 0.0630 0.7742 0.4205
C2_3 C 0.0169(5) 0.7982(9) 0.5102(4)
H2_3 H 0.0670 0.7895 0.5430
H10_3 H 0.0062 0.5665 0.6019
C10_3 C 0.5117(8) 0.2308(16) 0.4511(6)
H11_3 H 0.5522 0.1760 0.4337
C11_3 C 0.5184(7) 0.2384(16) 0.5245(6)
H12_3 H 0.5616 0.1879 0.5553
C12_3 C 0.4615(5) 0.3204(9) 0.5533(5)
C13_3 C 0.3985(6) 0.3915(15) 0.5042(6)
H13_3 H 0.3586 0.4499 0.5207
C14_3 C 0.3956(6) 0.3747(14) 0.4301(5)
H14_3 H 0.3521 0.4210 0.3979
C15_3 C 0.4733(5) 0.3363(10) 0.6347(5)
H15_3 H 0.4841 0.4455 0.6466
H16_3 H 0.5227 0.2790 0.6562
C16_3 C 0.3689(6) 0.1369(10) 0.6402(5)
H17_3 H 0.3240 0.1607 0.5997
H18_3 H 0.4093 0.0761 0.6213
C17_3 C 0.3358(5) 0.0393(10) 0.6956(5)
C18_3 C 0.3444(5) 0.4085(11) 0.6768(5)
H19_3 H 0.3249 0.4559 0.6294
H20_3 H 0.2977 0.3610 0.6923
O12_2 O 0.2261(3) 0.9086(7) 0.8324(3)
O13_2 O 0.1471(4) 0.0500(7) 0.7498(3)
O14_2 O 0.5559(5) 0.9703(8) 0.6981(4)
O15 O 0.2835(4) 0.9358(7) 0.6704(3)
O16_2 O 0.6366(4) 0.5652(7) 0.7376(3)
N6_2 N 0.0712(4) 0.1871(7) 0.8484(4)
N8_2 N 0.5924(5) 0.7856(9) 0.8290(4)
O4_2 O 0.7739(3) 0.4086(7) 0.6676(3)
O5_2 O 0.8529(4) 0.5500(7) 0.7502(3)
N2_2 N 0.9288(4) 0.6871(7) 0.6516(4)
C3_3 C 0.9443(5) 0.8210(9) 0.5352(5)
C4_3 C 0.8716(6) 0.8326(11) 0.4828(5)
H3_3 H 0.8216 0.8472 0.4971
C5_3 C 0.8736(6) 0.8226(13) 0.4103(5)
H4_3 H 0.8243 0.8324 0.3765
C6_3 C 0.9442(5) 0.8331(9) 0.6152(4)
H5_3 H 0.9024 0.9083 0.6215
H6_3 H 0.9971 0.8742 0.6397
C7_3 C 0.8459(4) 0.6222(9) 0.6252(4)
H7_3 H 0.8061 0.7061 0.6134
H8_3 H 0.8450 0.5610 0.5815
C8_3 C 0.8232(5) 0.5190(9) 0.6851(4)
C9_3 C 0.9916(5) 0.5657(9) 0.6495(4)
H9_3 H 0.9683 0.4643 0.6563
Zn4_2 Zn 0.75746(6) 0.30155(11) 0.76012(5)
O11_2 O 0.9451(4) 0.1808(7) 0.7193(3)
C4_4 C 0.1284(6) 0.3326(11) 0.0172(5)
H3_4 H 0.1784 0.3472 0.0029
C5_4 C 0.1264(6) 0.3226(13) 0.0897(5)
H4_4 H 0.1757 0.3324 0.1235
C3_4 C 0.0557(5) 0.3210(9) 0.9648(5)
C6_4 C 0.0558(5) 0.3331(9) 0.8848(4)
H5_4 H 0.0976 0.4083 0.8785
H6_4 H 0.0029 0.3742 0.8603
C7_4 C 0.1541(4) 0.1222(9) 0.8748(4)
H7_4 H 0.1939 0.2061 0.8866
H8_4 H 0.1550 0.0610 0.9185
C8_4 C 0.1768(5) 0.0190(9) 0.8149(4)
C9_4 C 0.0084(5) 0.0657(9) 0.8505(4)
H9_4 H 0.0317 0.9643 0.8437
P1_4 P 0.91579(12) 0.0951(2) 0.78062(12)
P2_4 P 0.60971(14) 0.0608(3) 0.75646(14)
O1_4 O 0.8546(4) 0.1908(7) 0.8126(3)
O6_4 O 0.6787(4) 0.1394(8) 0.7273(4)
O7_4 O 0.5648(4) 0.1756(7) 0.7950(3)
C2_4 C 0.9831(5) 0.2982(9) 0.9898(4)
H2_4 H 0.9330 0.2895 0.9570
H10_4 H 0.9938 0.0665 0.8981
O15_2 O 0.7165(4) 0.4358(7) 0.8296(3)
C10_4 C 0.4883(8) 0.7308(16) 0.0489(6)
H11_4 H 0.4478 0.6760 0.0663
C14_4 C 0.6044(6) 0.8747(14) 0.0699(5)
H14_4 H 0.6479 0.9210 0.1021
O2_4 O 0.8827(4) 0.9319(7) 0.7587(3)
C11_4 C 0.4816(7) 0.7384(16) 0.9755(6)
H12_4 H 0.4384 0.6879 0.9447
C12_4 C 0.5385(5) 0.8204(9) 0.9467(5)
C13_4 C 0.6015(6) 0.8915(15) 0.9958(6)
H13_4 H 0.6414 0.9499 0.9793
C15_4 C 0.5267(5) 0.8363(10) 0.8653(5)
H15_4 H 0.5159 0.9455 0.8534
H16_4 H 0.4773 0.7790 0.8438
C16_4 C 0.6311(6) 0.6369(10) 0.8598(5)
H17_4 H 0.6760 0.6607 0.9003
H18_4 H 0.5907 0.5761 0.8787
C17_4 C 0.6642(5) 0.5393(10) 0.8044(5)
C18_4 C 0.6556(5) 0.9085(11) 0.8232(5)
H19_4 H 0.6751 0.9559 0.8706
H20_4 H 0.7023 0.8610 0.8077
C1_3 C 0.0137(5) 0.7113(9) 0.9361(5)
H1_3 H 0.0630 0.7258 0.9205
C1_4 C 0.9863(5) 0.2887(9) 0.0639(5)
H1_4 H 0.9370 0.2742 0.0795
loop_
_geom_bond_atom_site_label_1
_geom_bond_atom_site_label_2
_geom_bond_site_symmetry_1
_geom_bond_site_symmetry_2
O4 C8 1_555 1_555
O5 C8 1_555 1_555
N2 C6 1_555 1_555
C4 C3 1_555 1_555
H3 C4 1_555 1_555
C5 N1 1_555 1_555
H4 C5 1_555 1_555
C6 C3 1_555 1_555
H5 C6 1_555 1_555
H6 C6 1_555 1_555
C7 N2 1_555 1_555
H7 C7 1_555 1_555
H8 C7 1_555 1_555
C8 C7 1_555 1_555
H9 C9 1_555 1_555
Zn4 O4 1_555 1_555
Zn7 N1 1_555 1_555
O5 Zn6 1_555 1_555
N2 C9 1_555 1_555
N2 Zn6 1_555 1_555
C4 C5 1_555 1_555
Zn5 O9 1_555 1_555
Zn5 O1 1_555 1_555
Zn2 O2 1_555 1_555
Zn3 O7 1_555 1_555
P1 O1 1_555 1_555
P2 O6 1_555 1_555
O2 P1 1_555 1_555
O3 P1 1_555 1_555
O6 Zn5 1_555 1_555
O7 P2 1_555 1_555
O8 P2 1_555 1_555
O10 C17 1_555 1_555
N3 C10 1_555 1_555
N4 C15 1_555 1_555
C1 H1 1_555 1_555
C2 C1 1_555 1_555
H2 C2 1_555 1_555
C10 H11 1_555 1_555
C11 C10 1_555 1_555
H12 C11 1_555 1_555
C12 C11 1_555 1_555
C13 C12 1_555 1_555
H13 C13 1_555 1_555
C14 N3 1_555 1_555
H14 C14 1_555 1_555
C15 C12 1_555 1_555
H15 C15 1_555 1_555
H16 C15 1_555 1_555
C16 N4 1_555 1_555
H17 C16 1_555 1_555
H18 C16 1_555 1_555
C17 C16 1_555 1_555
C18 P2 1_555 1_555
H19 C18 1_555 1_555
H20 C18 1_555 1_555
Zn8 O8 1_555 1_555
Zn9 N3 1_555 1_555
O12 Zn5 1_555 1_555
O13 Zn2 1_555 1_555
O14 Zn3 1_555 1_555
O16 Zn3 1_555 1_555
N5 Zn2 1_555 1_555
N6 Zn2 1_555 1_555
N7 Zn3 1_555 1_555
N8 Zn3 1_555 1_555
O10 Zn8 1_555 1_555
N4 C18 1_555 1_555
N4 Zn8 1_555 1_555
C13 C14 1_555 1_555
Zn6 O2_2 1_555 1_555
O9_2 C17_2 1_555 1_555
O16 C17_2 1_555 1_555
N8 C15_2 1_555 1_555
H12_2 C11_2 1_555 1_555
C12_2 C11_2 1_555 1_555
C13_2 C12_2 1_555 1_555
H13_2 C13_2 1_555 1_555
C15_2 C12_2 1_555 1_555
H15_2 C15_2 1_555 1_555
H16_2 C15_2 1_555 1_555
C16_2 N8 1_555 1_555
H17_2 C16_2 1_555 1_555
H18_2 C16_2 1_555 1_555
C17_2 C16_2 1_555 1_555
H19_2 C18_2 1_555 1_555
H20_2 C18_2 1_555 1_555
Zn4 O9_2 1_555 1_555
N5_2 Zn6 1_555 1_555
N8 C18_2 1_555 1_555
N3_2 C10_2 1_555 1_555
C10_2 H11_2 1_555 1_555
C14_2 N3_2 1_555 1_555
H14_2 C14_2 1_555 1_555
Zn9_2 N3_2 1_555 1_555
Zn4 O1_2 1_555 1_555
Zn8 O7_2 1_555 1_555
P1_2 O1_2 1_555 1_555
P2_2 O6_2 1_555 1_555
O11 P1_2 1_555 1_555
O6_2 Zn4 1_555 1_555
O7_2 P2_2 1_555 1_555
H2_2 C2_2 1_555 1_555
N7_2 Zn8 1_555 1_555
O13 C8_2 1_555 1_555
N6 C6_2 1_555 1_555
C6_2 C3_2 1_555 1_555
H5_2 C6_2 1_555 1_555
H6_2 C6_2 1_555 1_555
C7_2 N6 1_555 1_555
H7_2 C7_2 1_555 1_555
H8_2 C7_2 1_555 1_555
C8_2 C7_2 1_555 1_555
N6 C9_2 1_555 1_555
H3_2 C4_2 1_555 1_555
C5_2 N1_2 1_555 1_555
H4_2 C5_2 1_555 1_555
Zn7_2 N1_2 1_555 1_555
C4_2 C5_2 1_555 1_555
Zn1 O1_3 1_555 1_555
Zn7 O2_3 1_555 1_555
Zn9 O7_3 1_555 1_555
P1_3 O1_3 1_555 1_555
P2_3 O6_3 1_555 1_555
O2_3 P1_3 1_555 1_555
O3_2 P1_3 1_555 1_555
O6_3 Zn1 1_555 1_555
O7_3 P2_3 1_555 1_555
O8_2 P2_3 1_555 1_555
O10_2 C17_3 1_555 1_555
N7 C10_3 1_555 1_555
N4_2 C15_3 1_555 1_555
C1_2 H1_2 1_555 1_555
C2_3 C1_2 1_555 1_555
H2_3 C2_3 1_555 1_555
C10_3 H11_3 1_555 1_555
C11_3 C10_3 1_555 1_555
H12_3 C11_3 1_555 1_555
C12_3 C11_3 1_555 1_555
C13_3 C12_3 1_555 1_555
H13_3 C13_3 1_555 1_555
C14_3 N7 1_555 1_555
H14_3 C14_3 1_555 1_555
C15_3 C12_3 1_555 1_555
H15_3 C15_3 1_555 1_555
H16_3 C15_3 1_555 1_555
C16_3 N4_2 1_555 1_555
H17_3 C16_3 1_555 1_555
H18_3 C16_3 1_555 1_555
C17_3 C16_3 1_555 1_555
C18_3 P2_3 1_555 1_555
H19_3 C18_3 1_555 1_555
H20_3 C18_3 1_555 1_555
Zn9_2 O8_2 1_555 1_555
O12_2 Zn1 1_555 1_555
O13_2 Zn7 1_555 1_555
O14_2 Zn9 1_555 1_555
O15 Zn1 1_555 1_555
O16_2 Zn9 1_555 1_555
N6_2 Zn7 1_555 1_555
N8_2 Zn9 1_555 1_555
O10_2 Zn9_2 1_555 1_555
N4_2 C18_3 1_555 1_555
N4_2 Zn9_2 1_555 1_555
C13_3 C14_3 1_555 1_555
O4_2 C8_3 1_555 1_555
O5_2 C8_3 1_555 1_555
N2_2 C6_3 1_555 1_555
C4_3 C3_3 1_555 1_555
H3_3 C4_3 1_555 1_555
C5_3 N5 1_555 1_555
H4_3 C5_3 1_555 1_555
C6_3 C3_3 1_555 1_555
H5_3 C6_3 1_555 1_555
H6_3 C6_3 1_555 1_555
C7_3 N2_2 1_555 1_555
H7_3 C7_3 1_555 1_555
H8_3 C7_3 1_555 1_555
C8_3 C7_3 1_555 1_555
H9_3 C9_3 1_555 1_555
Zn4_2 O4_2 1_555 1_555
O5_2 Zn7_2 1_555 1_555
N2_2 C9_3 1_555 1_555
N2_2 Zn7_2 1_555 1_555
C4_3 C5_3 1_555 1_555
H3_4 C4_4 1_555 1_555
C5_4 N5_2 1_555 1_555
H4_4 C5_4 1_555 1_555
C4_4 C5_4 1_555 1_555
O13_2 C8_4 1_555 1_555
N6_2 C6_4 1_555 1_555
C6_4 C3_4 1_555 1_555
H5_4 C6_4 1_555 1_555
H6_4 C6_4 1_555 1_555
C7_4 N6_2 1_555 1_555
H7_4 C7_4 1_555 1_555
H8_4 C7_4 1_555 1_555
C8_4 C7_4 1_555 1_555
N6_2 C9_4 1_555 1_555
Zn4_2 O1_4 1_555 1_555
Zn9_2 O7_4 1_555 1_555
P1_4 O1_4 1_555 1_555
P2_4 O6_4 1_555 1_555
O11_2 P1_4 1_555 1_555
O6_4 Zn4_2 1_555 1_555
O7_4 P2_4 1_555 1_555
H2_4 C2_4 1_555 1_555
O15_2 Zn4_2 1_555 1_555
N7_2 C10_4 1_555 1_555
C10_4 H11_4 1_555 1_555
C14_4 N7_2 1_555 1_555
H14_4 C14_4 1_555 1_555
Zn7_2 O2_4 1_555 1_555
O15_2 C17_4 1_555 1_555
O16_2 C17_4 1_555 1_555
N8_2 C15_4 1_555 1_555
H12_4 C11_4 1_555 1_555
C12_4 C11_4 1_555 1_555
C13_4 C12_4 1_555 1_555
H13_4 C13_4 1_555 1_555
C15_4 C12_4 1_555 1_555
H15_4 C15_4 1_555 1_555
H16_4 C15_4 1_555 1_555
C16_4 N8_2 1_555 1_555
H17_4 C16_4 1_555 1_555
H18_4 C16_4 1_555 1_555
C17_4 C16_4 1_555 1_555
H19_4 C18_4 1_555 1_555
H20_4 C18_4 1_555 1_555
N8_2 C18_4 1_555 1_555
C1_3 H1_3 1_555 1_555
C1_4 H1_4 1_555 1_555

#END
