
###############################################################################
#
# This file contains modified crystal structure data generated from the
# MOF subset of the Cambridge Structural Database (CSD) v543 
# hosted by the Cambridge Crystallographic Data Centre (CCDC).
#
# This work is licensed under the Creative Commons
# Attribution-NonCommercial-ShareAlike 4.0 International License.
# To view a copy of this license, visit
# http://creativecommons.org/licenses/by-nc-sa/4.0/
# or send a letter to
# Creative Commons, PO Box 1866, Mountain View, CA 94042, USA.
#
# CIF created using the CSD Python API on 29 September 2022
# The structure has been converted into the P1 space group
# The structure has a 3D framework
# The original CSD entry ZAXQOG is in the tetragonal crystal system
# The framework has been calculated to contain at least 10.0% void space
# The void calculation uses a probe of radius 1.32A, grid spacing 0.4
# The framework is charged, counterions have been retained in the structure
#
###############################################################################

data_ZAXQOG
_chemical_formula_moiety         '(C112 H80 B18 Cu14 F64 N48 8+)n'
_symmetry_cell_setting           triclinic
_symmetry_space_group_name_H-M   'P 1'
_symmetry_Int_Tables_number      1
_space_group_name_Hall           'P 1'
loop_
_symmetry_equiv_pos_site_id
_symmetry_equiv_pos_as_xyz
1 x,y,z
_cell_length_a                   14.537(2)
_cell_length_b                   14.537(2)
_cell_length_c                   20.195(3)
_cell_angle_alpha                90
_cell_angle_beta                 90
_cell_angle_gamma                90
_cell_volume                     4267.7
loop_
_atom_site_label
_atom_site_type_symbol
_atom_site_fract_x
_atom_site_fract_y
_atom_site_fract_z
Cu3 Cu 0.0000 0.0000 0.0000
H9 H 0.2433 0.0558 0.1349
H11 H 0.0558 0.2433 0.1349
Cu3_2 Cu 0.0000 0.0000 1.0000
C15 C 0.1889(4) 0.0171(4) 0.9413(3)
H13 H 0.1980 0.0664 0.9715
H16 H 0.3150 0.0289 0.8968
C16 C 0.0171(4) 0.1889(4) 0.9413(3)
H14 H 0.0664 0.1980 0.9715
H17 H 0.0289 0.3150 0.8968
Cu1 Cu 0.5000 0.5000 0.0000
Cu2 Cu 0.2500 0.7500 0.2500
N1 N 0.3002(3) 0.6503(3) 0.18740(18)
C1 C 0.2597(4) 0.5697(4) 0.1818(3)
H1 H 0.2086 0.5567 0.2096
C2 C 0.2887(4) 0.5012(4) 0.1362(3)
H2 H 0.2567 0.4442 0.1349
N2 N 0.3584(3) 0.5140(3) 0.0956(2)
N3 N 0.4721(3) 0.6096(3) 0.0578(2)
C3 C 0.5171(4) 0.6889(4) 0.0587(3)
H3 H 0.5664 0.6980 0.0285
C4 C 0.4942(4) 0.7597(4) 0.1028(3)
H4 H 0.5289 0.8150 0.1032
C5 C 0.4221(4) 0.7490(3) 0.1452(2)
H5 H 0.4049 0.7973 0.1743
C6 C 0.3739(3) 0.6660(3) 0.1451(2)
C7 C 0.4005(3) 0.5964(3) 0.1004(2)
Cu3_3 Cu 0.0000 1.0000 0.0000
Cu4 Cu 0.7500 0.2500 0.2500
N4 N 0.1998(3) 0.8497(3) 0.18740(18)
N6 N 0.6503(3) 0.3002(3) 0.18740(18)
N7 N 0.1503(3) 0.6998(3) 0.31260(18)
N8 N 0.3497(3) 0.8002(3) 0.31260(18)
C8 C 0.2403(4) 0.9303(4) 0.1818(3)
C10 C 0.5697(4) 0.2597(4) 0.1818(3)
H6 H 0.2914 0.9433 0.2096
H8 H 0.5567 0.2086 0.2096
C11 C 0.2113(4) 0.9988(4) 0.1362(3)
C13 C 0.5012(4) 0.2887(4) 0.1362(3)
H11_2 H 0.4442 0.2567 0.1349
N9 N 0.1416(3) 0.9860(3) 0.0956(2)
N11 N 0.5140(3) 0.3584(3) 0.0956(2)
N12 N 0.0279(3) 0.8904(3) 0.0578(2)
N14 N 0.6096(3) 0.4721(3) 0.0578(2)
C16_2 C 0.6889(4) 0.5171(4) 0.0587(3)
H14_2 H 0.6980 0.5664 0.0285
C17 C 0.0058(4) 0.7403(4) 0.1028(3)
C19 C 0.7597(4) 0.4942(4) 0.1028(3)
H17_2 H 0.8150 0.5289 0.1032
C20 C 0.0779(4) 0.7510(3) 0.1452(2)
C22 C 0.7490(3) 0.4221(4) 0.1452(2)
H18 H 0.0951 0.7027 0.1743
H20 H 0.7973 0.4049 0.1743
C23 C 0.1261(3) 0.8340(3) 0.1451(2)
C25 C 0.6660(3) 0.3739(3) 0.1451(2)
C26 C 0.0995(3) 0.9036(3) 0.1004(2)
C28 C 0.5964(3) 0.4005(3) 0.1004(2)
Cu1_2 Cu 0.5000 0.5000 1.0000
Cu3_4 Cu 0.0000 1.0000 1.0000
Cu5 Cu 0.2500 0.7500 0.7500
N5 N 0.3497(3) 0.6998(3) 0.81260(18)
C9 C 0.4303(4) 0.7403(4) 0.8182(3)
H7 H 0.4433 0.7914 0.7904
C12 C 0.4988(4) 0.7113(4) 0.8638(3)
H10 H 0.5558 0.7433 0.8651
N10 N 0.4860(3) 0.6416(3) 0.9044(2)
N13 N 0.3904(3) 0.5279(3) 0.9422(2)
N15 N 0.5279(3) 0.3904(3) 0.9422(2)
C15_2 C 0.3111(4) 0.4829(4) 0.9413(3)
H13_2 H 0.3020 0.4336 0.9715
C18 C 0.2403(4) 0.5058(4) 0.8972(3)
H16_2 H 0.1850 0.4711 0.8968
C21 C 0.2510(3) 0.5779(4) 0.8548(2)
H19 H 0.2027 0.5951 0.8257
C24 C 0.3340(3) 0.6261(3) 0.8549(2)
C27 C 0.4036(3) 0.5995(3) 0.8996(2)
Cu3_5 Cu 1.0000 0.0000 0.0000
Cu3_6 Cu 1.0000 0.0000 1.0000
Cu1_3 Cu -0.0000 0.5000 0.5000
H2_2 H 0.0558 0.2567 0.6349
N6_2 N 0.1998(3) 0.6503(3) 0.68740(18)
C10_2 C 0.2403(4) 0.5697(4) 0.6818(3)
H8_2 H 0.2914 0.5567 0.7096
C13_2 C 0.2113(4) 0.5012(4) 0.6362(3)
H11_3 H 0.2433 0.4442 0.6349
N11_2 N 0.1416(3) 0.5140(3) 0.5956(2)
N14_2 N 0.0279(3) 0.6096(3) 0.5578(2)
N15_2 N 0.1096(3) 0.5279(3) 0.4422(2)
C15_3 C 0.0171(4) 0.3111(4) 0.4413(3)
H13_3 H 0.0664 0.3020 0.4715
C19_2 C 0.0058(4) 0.7597(4) 0.6028(3)
H16_3 H 0.0289 0.1850 0.3968
C22_2 C 0.0779(4) 0.7490(3) 0.6452(2)
H20_2 H 0.0951 0.7973 0.6743
C25_2 C 0.1261(3) 0.6660(3) 0.6451(2)
C28_2 C 0.0995(3) 0.5964(3) 0.6004(2)
Cu1_4 Cu 1.0000 0.5000 0.5000
Cu2_2 Cu 0.7500 0.2500 0.7500
N1_2 N 0.8497(3) 0.3002(3) 0.68740(18)
C1_2 C 0.9303(4) 0.2597(4) 0.6818(3)
H1_2 H 0.9433 0.2086 0.7096
C2_2 C 0.9988(4) 0.2887(4) 0.6362(3)
N2_2 N 0.9860(3) 0.3584(3) 0.5956(2)
N3_2 N 0.8904(3) 0.4721(3) 0.5578(2)
C3_2 C 0.8111(4) 0.5171(4) 0.5587(3)
H3_2 H 0.8020 0.5664 0.5285
C4_2 C 0.7403(4) 0.4942(4) 0.6028(3)
H4_2 H 0.6850 0.5289 0.6032
C5_2 C 0.7510(3) 0.4221(4) 0.6452(2)
H5_2 H 0.7027 0.4049 0.6743
C6_2 C 0.8340(3) 0.3739(3) 0.6451(2)
C7_2 C 0.9036(3) 0.4005(3) 0.6004(2)
Cu3_7 Cu 0.5000 0.0000 0.5000
N4_2 N 0.6503(3) 0.1998(3) 0.68740(18)
N5_2 N 0.8002(3) 0.3497(3) 0.31260(18)
N7_2 N 0.8002(3) 0.1503(3) 0.81260(18)
N8_2 N 0.6998(3) 0.3497(3) 0.81260(18)
C8_2 C 0.5697(4) 0.2403(4) 0.6818(3)
C9_2 C 0.7597(4) 0.4303(4) 0.3182(3)
H6_2 H 0.5567 0.2914 0.7096
H7_2 H 0.7086 0.4433 0.2904
C11_2 C 0.5012(4) 0.2113(4) 0.6362(3)
C12_2 C 0.7887(4) 0.4988(4) 0.3638(3)
H9_2 H 0.4442 0.2433 0.6349
H10_2 H 0.7567 0.5558 0.3651
N9_2 N 0.5140(3) 0.1416(3) 0.5956(2)
N10_2 N 0.8584(3) 0.4860(3) 0.4044(2)
N12_2 N 0.6096(3) 0.0279(3) 0.5578(2)
N13_2 N 0.9721(3) 0.3904(3) 0.4422(2)
C16_3 C 0.9829(4) 0.6889(4) 0.5587(3)
H14_3 H 0.9336 0.6980 0.5285
C17_2 C 0.7597(4) 0.0058(4) 0.6028(3)
C18_2 C 0.9942(4) 0.2403(4) 0.3972(3)
H17_3 H 0.9711 0.8150 0.6032
C20_2 C 0.7490(3) 0.0779(4) 0.6452(2)
C21_2 C 0.9221(4) 0.2510(3) 0.3548(2)
H18_2 H 0.7973 0.0951 0.6743
H19_2 H 0.9049 0.2027 0.3257
C23_2 C 0.6660(3) 0.1261(3) 0.6451(2)
C24_2 C 0.8739(3) 0.3340(3) 0.3549(2)
C26_2 C 0.5964(3) 0.0995(3) 0.6004(2)
C27_2 C 0.9005(3) 0.4036(3) 0.3996(2)
Cu3_8 Cu 0.5000 1.0000 0.5000
C14 C 0.6889(4) 0.9829(4) 0.5587(3)
H12 H 0.6980 0.9336 0.5285
H15 H 0.8150 0.9711 0.6032
N5_3 N 0.1503(3) 0.8002(3) 0.81260(18)
C9_3 C 0.0697(4) 0.7597(4) 0.8182(3)
H7_3 H 0.0567 0.7086 0.7904
C12_3 C 0.0012(4) 0.7887(4) 0.8638(3)
N10_3 N 0.0140(3) 0.8584(3) 0.9044(2)
N13_3 N 0.1096(3) 0.9721(3) 0.9422(2)
C18_3 C 0.2597(4) 0.9942(4) 0.8972(3)
C21_3 C 0.2490(3) 0.9221(4) 0.8548(2)
H19_3 H 0.2973 0.9049 0.8257
C24_3 C 0.1660(3) 0.8739(3) 0.8549(2)
C27_3 C 0.0964(3) 0.9005(3) 0.8996(2)
N6_3 N 0.8497(3) 0.1998(3) 0.18740(18)
C10_3 C 0.9303(4) 0.2403(4) 0.1818(3)
H8_3 H 0.9433 0.2914 0.2096
C13_3 C 0.9988(4) 0.2113(4) 0.1362(3)
N11_3 N 0.9860(3) 0.1416(3) 0.0956(2)
N14_3 N 0.8904(3) 0.0279(3) 0.0578(2)
C19_3 C 0.7403(4) 0.0058(4) 0.1028(3)
C22_3 C 0.7510(3) 0.0779(4) 0.1452(2)
H20_3 H 0.7027 0.0951 0.1743
C25_3 C 0.8340(3) 0.1261(3) 0.1451(2)
C28_3 C 0.9036(3) 0.0995(3) 0.1004(2)
N15_3 N 0.9721(3) 0.1096(3) 0.9422(2)
N5_4 N 0.6998(3) 0.1503(3) 0.31260(18)
C9_4 C 0.7403(4) 0.0697(4) 0.3182(3)
H7_4 H 0.7914 0.0567 0.2904
C12_4 C 0.7113(4) 0.0012(4) 0.3638(3)
H11_4 H 0.2567 0.0558 0.6349
N10_4 N 0.6416(3) 0.0140(3) 0.4044(2)
N13_4 N 0.5279(3) 0.1096(3) 0.4422(2)
C15_4 C 0.4829(4) 0.1889(4) 0.4413(3)
H13_4 H 0.4336 0.1980 0.4715
C18_4 C 0.5058(4) 0.2597(4) 0.3972(3)
H16_4 H 0.4711 0.3150 0.3968
C21_4 C 0.5779(4) 0.2490(3) 0.3548(2)
H19_4 H 0.5951 0.2973 0.3257
C24_4 C 0.6261(3) 0.1660(3) 0.3549(2)
C27_4 C 0.5995(3) 0.0964(3) 0.3996(2)
N6_4 N 0.3002(3) 0.8497(3) 0.68740(18)
C10_4 C 0.2597(4) 0.9303(4) 0.6818(3)
H8_4 H 0.2086 0.9433 0.7096
C13_4 C 0.2887(4) 0.9988(4) 0.6362(3)
H10_3 H 0.7433 0.9442 0.3651
N11_4 N 0.3584(3) 0.9860(3) 0.5956(2)
N14_4 N 0.4721(3) 0.8904(3) 0.5578(2)
N15_4 N 0.3904(3) 0.9721(3) 0.4422(2)
C16_4 C 0.5171(4) 0.8111(4) 0.5587(3)
H14_4 H 0.5664 0.8020 0.5285
C19_4 C 0.4942(4) 0.7403(4) 0.6028(3)
H17_4 H 0.5289 0.6850 0.6032
C22_4 C 0.4221(4) 0.7510(3) 0.6452(2)
H20_4 H 0.4049 0.7027 0.6743
C25_4 C 0.3739(3) 0.8340(3) 0.6451(2)
C28_4 C 0.4005(3) 0.9036(3) 0.6004(2)
C10_5 C 0.0697(4) 0.7403(4) 0.3182(3)
H8_5 H 0.0567 0.7914 0.2904
C13_5 C 0.0012(4) 0.7113(4) 0.3638(3)
N11_5 N 0.0140(3) 0.6416(3) 0.4044(2)
C16_5 C 0.1889(4) 0.4829(4) 0.4413(3)
H14_5 H 0.1980 0.4336 0.4715
C19_5 C 0.2597(4) 0.5058(4) 0.3972(3)
H17_5 H 0.3150 0.4711 0.3968
C22_5 C 0.2490(3) 0.5779(4) 0.3548(2)
H20_5 H 0.2973 0.5951 0.3257
C25_5 C 0.1660(3) 0.6261(3) 0.3549(2)
C28_5 C 0.0964(3) 0.5995(3) 0.3996(2)
H11_5 H 0.9442 0.7433 0.3651
C10_6 C 0.7597(4) 0.0697(4) 0.8182(3)
H8_6 H 0.7086 0.0567 0.7904
C13_6 C 0.7887(4) 0.0012(4) 0.8638(3)
N11_6 N 0.8584(3) 0.0140(3) 0.9044(2)
C19_6 C 0.9942(4) 0.2597(4) 0.8972(3)
C22_6 C 0.9221(4) 0.2490(3) 0.8548(2)
H20_6 H 0.9049 0.2973 0.8257
C25_6 C 0.8739(3) 0.1660(3) 0.8549(2)
C28_6 C 0.9005(3) 0.0964(3) 0.8996(2)
C16_6 C 0.3111(4) 0.0171(4) 0.4413(3)
H14_6 H 0.3020 0.0664 0.4715
H17_6 H 0.1850 0.0289 0.3968
C10_7 C 0.4303(4) 0.7597(4) 0.3182(3)
H8_7 H 0.4433 0.7086 0.2904
C13_7 C 0.4988(4) 0.7887(4) 0.3638(3)
H11_6 H 0.5558 0.7567 0.3651
N11_7 N 0.4860(3) 0.8584(3) 0.4044(2)
C19_7 C 0.2403(4) 0.9942(4) 0.3972(3)
C22_7 C 0.2510(3) 0.9221(4) 0.3548(2)
H20_7 H 0.2027 0.9049 0.3257
C25_7 C 0.3340(3) 0.8739(3) 0.3549(2)
C28_7 C 0.4036(3) 0.9005(3) 0.3996(2)
C10_8 C 0.7403(4) 0.4303(4) 0.8182(3)
H8_8 H 0.7914 0.4433 0.7904
C13_8 C 0.7113(4) 0.4988(4) 0.8638(3)
H11_7 H 0.7433 0.5558 0.8651
N11_8 N 0.6416(3) 0.4860(3) 0.9044(2)
C16_7 C 0.4829(4) 0.3111(4) 0.9413(3)
H14_7 H 0.4336 0.3020 0.9715
C19_8 C 0.5058(4) 0.2403(4) 0.8972(3)
H17_7 H 0.4711 0.1850 0.8968
C22_8 C 0.5779(4) 0.2510(3) 0.8548(2)
H20_8 H 0.5951 0.2027 0.8257
C25_8 C 0.6261(3) 0.3340(3) 0.8549(2)
C28_8 C 0.5995(3) 0.4036(3) 0.8996(2)
Cu3_9 Cu 1.0000 1.0000 0.0000
C14_2 C 0.9829(4) 0.8111(4) 0.0587(3)
H12_2 H 0.9336 0.8020 0.0285
H15_2 H 0.9711 0.6850 0.1032
C16_8 C 0.8111(4) 0.9829(4) 0.0587(3)
H14_8 H 0.8020 0.9336 0.0285
H17_8 H 0.6850 0.9711 0.1032
Cu3_10 Cu 1.0000 1.0000 1.0000
H10_4 H 0.9442 0.7567 0.8651
H11_8 H 0.7567 0.9442 0.8651
B1 B 0.2500 0.2500 0.0101(15)
F2 F 0.3075(4) 0.3075(4) 0.0487(5)
F4 F 0.1925(4) 0.1925(4) 0.0487(5)
F1 F 0.3043(9) 0.1957(9) 0.9750(9)
F3 F 0.1957(9) 0.3043(9) 0.9750(9)
B1_2 B 0.2500 0.2500 0.5101(15)
F1_2 F 0.3043(9) 0.3043(9) 0.4750(9)
F2_2 F 0.1925(4) 0.3075(4) 0.5487(5)
F3_2 F 0.1957(9) 0.1957(9) 0.4750(9)
F4_2 F 0.3075(4) 0.1925(4) 0.5487(5)
B1_3 B 0.7500 0.7500 0.4899(15)
F1_3 F 0.8043(9) 0.8043(9) 0.5250(9)
F2_3 F 0.8075(4) 0.6925(4) 0.4513(5)
F3_3 F 0.6957(9) 0.6957(9) 0.5250(9)
F4_3 F 0.6925(4) 0.8075(4) 0.4513(5)
F1_4 F 0.6957(9) 0.8043(9) 0.0250(9)
F3_4 F 0.8043(9) 0.6957(9) 0.0250(9)
B1_4 B 0.7500 0.7500 0.9899(15)
F2_4 F 0.8075(4) 0.8075(4) 0.9513(5)
F4_4 F 0.6925(4) 0.6925(4) 0.9513(5)
B2 B 0.5241(9) 0.5241(9) 0.2746(8)
F5 F 0.5491(9) 0.5491(9) 0.2017(8)
F6 F 0.5801(4) 0.5801(4) 0.3068(5)
F7 F 0.4363(4) 0.5467(4) 0.2705(4)
F8 F 0.5467(4) 0.4363(4) 0.2705(4)
F8_2 F 0.0637(4) 0.5467(4) 0.7705(4)
B2_2 B 0.9759(9) 0.5241(9) 0.7746(8)
F5_2 F 0.9509(9) 0.5491(9) 0.7017(8)
F6_2 F 0.9199(4) 0.5801(4) 0.8068(5)
F7_2 F 0.9533(4) 0.4363(4) 0.7705(4)
F7_3 F 0.0637(4) 0.9533(4) 0.2705(4)
F8_3 F 0.9533(4) 0.0637(4) 0.2705(4)
B2_3 B 0.9759(9) 0.9759(9) 0.2746(8)
F5_3 F 0.9509(9) 0.9509(9) 0.2017(8)
F6_3 F 0.9199(4) 0.9199(4) 0.3068(5)
F7_4 F 0.5467(4) 0.0637(4) 0.7705(4)
B2_4 B 0.5241(9) 0.9759(9) 0.7746(8)
F5_4 F 0.5491(9) 0.9509(9) 0.7017(8)
F6_4 F 0.5801(4) 0.9199(4) 0.8068(5)
F8_4 F 0.4363(4) 0.9533(4) 0.7705(4)
B2_5 B 0.0241(9) 0.4759(9) 0.2254(8)
F5_5 F 0.0491(9) 0.4509(9) 0.2983(8)
F6_5 F 0.0801(4) 0.4199(4) 0.1932(5)
F8_5 F 0.0467(4) 0.5637(4) 0.2295(4)
F7_5 F 0.9363(4) 0.4533(4) 0.2295(4)
B2_6 B 0.0241(9) 0.0241(9) 0.7254(8)
F5_6 F 0.0491(9) 0.0491(9) 0.7983(8)
F6_6 F 0.0801(4) 0.0801(4) 0.6932(5)
F7_6 F 0.0467(4) 0.9363(4) 0.7295(4)
F8_6 F 0.9363(4) 0.0467(4) 0.7295(4)
B2_7 B 0.4759(9) 0.0241(9) 0.2254(8)
F5_7 F 0.4509(9) 0.0491(9) 0.2983(8)
F6_7 F 0.4199(4) 0.0801(4) 0.1932(5)
F7_7 F 0.5637(4) 0.0467(4) 0.2295(4)
F8_7 F 0.4533(4) 0.9363(4) 0.2295(4)
B2_8 B 0.4759(9) 0.4759(9) 0.7254(8)
F5_8 F 0.4509(9) 0.4509(9) 0.7983(8)
F6_8 F 0.4199(4) 0.4199(4) 0.6932(5)
F7_8 F 0.4533(4) 0.5637(4) 0.7295(4)
F8_8 F 0.5637(4) 0.4533(4) 0.7295(4)
B3 B 0.2500 0.7500 0.0000
F9 F 0.2473(10) 0.6731(10) 0.0337(7)
F10 F 0.2527(10) 0.8269(10) 0.0337(7)
B3_2 B 0.2500 0.7500 1.0000
F11 F 0.1731(10) 0.7473(10) 0.9663(7)
F12 F 0.3269(10) 0.7527(10) 0.9663(7)
B3_3 B 0.7500 0.2500 0.5000
F9_2 F 0.8269(10) 0.2473(10) 0.5337(7)
F10_2 F 0.6731(10) 0.2527(10) 0.5337(7)
F11_2 F 0.7527(10) 0.1731(10) 0.4663(7)
F12_2 F 0.7473(10) 0.3269(10) 0.4663(7)
B3_4 B 0.7500 0.2500 0.0000
F11_3 F 0.8269(10) 0.2527(10) 0.0337(7)
F12_3 F 0.6731(10) 0.2473(10) 0.0337(7)
B3_5 B 0.7500 0.2500 1.0000
F9_3 F 0.7527(10) 0.3269(10) 0.9663(7)
F10_3 F 0.7473(10) 0.1731(10) 0.9663(7)
B3_6 B 0.2500 0.7500 0.5000
F9_4 F 0.1731(10) 0.7527(10) 0.4663(7)
F10_4 F 0.3269(10) 0.7473(10) 0.4663(7)
F11_4 F 0.2473(10) 0.8269(10) 0.5337(7)
F12_4 F 0.2527(10) 0.6731(10) 0.5337(7)
loop_
_geom_bond_atom_site_label_1
_geom_bond_atom_site_label_2
_geom_bond_site_symmetry_1
_geom_bond_site_symmetry_2
H13 C15 1_555 1_555
H14 C16 1_555 1_555
Cu1 N3 1_555 1_555
Cu2 N1 1_555 1_555
N1 C1 1_555 1_555
C1 H1 1_555 1_555
C2 C1 1_555 1_555
H2 C2 1_555 1_555
N2 C2 1_555 1_555
N3 C3 1_555 1_555
C3 H3 1_555 1_555
C4 C3 1_555 1_555
H4 C4 1_555 1_555
C5 C4 1_555 1_555
H5 C5 1_555 1_555
C6 N1 1_555 1_555
C7 N2 1_555 1_555
Cu3_3 N12 1_555 1_555
Cu4 N6 1_555 1_555
N4 Cu2 1_555 1_555
N6 C10 1_555 1_555
N7 Cu2 1_555 1_555
N8 Cu2 1_555 1_555
C8 N4 1_555 1_555
C10 H8 1_555 1_555
H6 C8 1_555 1_555
C11 C8 1_555 1_555
C13 C10 1_555 1_555
H11_2 C13 1_555 1_555
N9 C11 1_555 1_555
N11 C13 1_555 1_555
N14 Cu1 1_555 1_555
C16_2 N14 1_555 1_555
H14_2 C16_2 1_555 1_555
C19 C16_2 1_555 1_555
H17_2 C19 1_555 1_555
C20 C17 1_555 1_555
C22 C19 1_555 1_555
H18 C20 1_555 1_555
H20 C22 1_555 1_555
C23 N4 1_555 1_555
C25 N6 1_555 1_555
C26 N9 1_555 1_555
C28 N11 1_555 1_555
N3 C7 1_555 1_555
C5 C6 1_555 1_555
C6 C7 1_555 1_555
N12 C26 1_555 1_555
N14 C28 1_555 1_555
C20 C23 1_555 1_555
C22 C25 1_555 1_555
C23 C26 1_555 1_555
C25 C28 1_555 1_555
Cu5 N5 1_555 1_555
N5 C9 1_555 1_555
C9 H7 1_555 1_555
C12 C9 1_555 1_555
H10 C12 1_555 1_555
N10 C12 1_555 1_555
N13 Cu1_2 1_555 1_555
N15 Cu1_2 1_555 1_555
C15_2 N13 1_555 1_555
H13_2 C15_2 1_555 1_555
C18 C15_2 1_555 1_555
H16_2 C18 1_555 1_555
C21 C18 1_555 1_555
H19 C21 1_555 1_555
C24 N5 1_555 1_555
C27 N10 1_555 1_555
N13 C27 1_555 1_555
C21 C24 1_555 1_555
C24 C27 1_555 1_555
Cu5 N6_2 1_555 1_555
N6_2 C10_2 1_555 1_555
C10_2 H8_2 1_555 1_555
C13_2 C10_2 1_555 1_555
H11_3 C13_2 1_555 1_555
N11_2 C13_2 1_555 1_555
N14_2 Cu1_3 1_555 1_555
N15_2 Cu1_3 1_555 1_555
H13_3 C15_3 1_555 1_555
C22_2 C19_2 1_555 1_555
H20_2 C22_2 1_555 1_555
C25_2 N6_2 1_555 1_555
C28_2 N11_2 1_555 1_555
N14_2 C28_2 1_555 1_555
C22_2 C25_2 1_555 1_555
C25_2 C28_2 1_555 1_555
Cu1_4 N3_2 1_555 1_555
Cu2_2 N1_2 1_555 1_555
N1_2 C1_2 1_555 1_555
C1_2 H1_2 1_555 1_555
C2_2 C1_2 1_555 1_555
N2_2 C2_2 1_555 1_555
N3_2 C3_2 1_555 1_555
C3_2 H3_2 1_555 1_555
C4_2 C3_2 1_555 1_555
H4_2 C4_2 1_555 1_555
C5_2 C4_2 1_555 1_555
H5_2 C5_2 1_555 1_555
C6_2 N1_2 1_555 1_555
C7_2 N2_2 1_555 1_555
Cu3_7 N12_2 1_555 1_555
Cu4 N5_2 1_555 1_555
N4_2 Cu2_2 1_555 1_555
N5_2 C9_2 1_555 1_555
N7_2 Cu2_2 1_555 1_555
N8_2 Cu2_2 1_555 1_555
C8_2 N4_2 1_555 1_555
C9_2 H7_2 1_555 1_555
H6_2 C8_2 1_555 1_555
C11_2 C8_2 1_555 1_555
C12_2 C9_2 1_555 1_555
H9_2 C11_2 1_555 1_555
H10_2 C12_2 1_555 1_555
N9_2 C11_2 1_555 1_555
N10_2 C12_2 1_555 1_555
N13_2 Cu1_4 1_555 1_555
H14_3 C16_3 1_555 1_555
C20_2 C17_2 1_555 1_555
C21_2 C18_2 1_555 1_555
H18_2 C20_2 1_555 1_555
H19_2 C21_2 1_555 1_555
C23_2 N4_2 1_555 1_555
C24_2 N5_2 1_555 1_555
C26_2 N9_2 1_555 1_555
C27_2 N10_2 1_555 1_555
N3_2 C7_2 1_555 1_555
C5_2 C6_2 1_555 1_555
C6_2 C7_2 1_555 1_555
N12_2 C26_2 1_555 1_555
N13_2 C27_2 1_555 1_555
C20_2 C23_2 1_555 1_555
C21_2 C24_2 1_555 1_555
C23_2 C26_2 1_555 1_555
C24_2 C27_2 1_555 1_555
C14 H12 1_555 1_555
Cu5 N5_3 1_555 1_555
N5_3 C9_3 1_555 1_555
C9_3 H7_3 1_555 1_555
C12_3 C9_3 1_555 1_555
N10_3 C12_3 1_555 1_555
N13_3 Cu3_4 1_555 1_555
C21_3 C18_3 1_555 1_555
H19_3 C21_3 1_555 1_555
C24_3 N5_3 1_555 1_555
C27_3 N10_3 1_555 1_555
N13_3 C27_3 1_555 1_555
C21_3 C24_3 1_555 1_555
C24_3 C27_3 1_555 1_555
Cu4 N6_3 1_555 1_555
N6_3 C10_3 1_555 1_555
C10_3 H8_3 1_555 1_555
C13_3 C10_3 1_555 1_555
N11_3 C13_3 1_555 1_555
N14_3 Cu3_5 1_555 1_555
C22_3 C19_3 1_555 1_555
H20_3 C22_3 1_555 1_555
C25_3 N6_3 1_555 1_555
C28_3 N11_3 1_555 1_555
N14_3 C28_3 1_555 1_555
C22_3 C25_3 1_555 1_555
C25_3 C28_3 1_555 1_555
N15_3 Cu3_6 1_555 1_555
Cu4 N5_4 1_555 1_555
N5_4 C9_4 1_555 1_555
C9_4 H7_4 1_555 1_555
C12_4 C9_4 1_555 1_555
N10_4 C12_4 1_555 1_555
N13_4 Cu3_7 1_555 1_555
C15_4 N13_4 1_555 1_555
H13_4 C15_4 1_555 1_555
C18_4 C15_4 1_555 1_555
H16_4 C18_4 1_555 1_555
C21_4 C18_4 1_555 1_555
H19_4 C21_4 1_555 1_555
C24_4 N5_4 1_555 1_555
C27_4 N10_4 1_555 1_555
N13_4 C27_4 1_555 1_555
C21_4 C24_4 1_555 1_555
C24_4 C27_4 1_555 1_555
Cu5 N6_4 1_555 1_555
N6_4 C10_4 1_555 1_555
C10_4 H8_4 1_555 1_555
C13_4 C10_4 1_555 1_555
N11_4 C13_4 1_555 1_555
N14_4 Cu3_8 1_555 1_555
N15_4 Cu3_8 1_555 1_555
C16_4 N14_4 1_555 1_555
H14_4 C16_4 1_555 1_555
C19_4 C16_4 1_555 1_555
H17_4 C19_4 1_555 1_555
C22_4 C19_4 1_555 1_555
H20_4 C22_4 1_555 1_555
C25_4 N6_4 1_555 1_555
C28_4 N11_4 1_555 1_555
N14_4 C28_4 1_555 1_555
C22_4 C25_4 1_555 1_555
C25_4 C28_4 1_555 1_555
N7 C10_5 1_555 1_555
C10_5 H8_5 1_555 1_555
C13_5 C10_5 1_555 1_555
N11_5 C13_5 1_555 1_555
C16_5 N15_2 1_555 1_555
H14_5 C16_5 1_555 1_555
C19_5 C16_5 1_555 1_555
H17_5 C19_5 1_555 1_555
C22_5 C19_5 1_555 1_555
H20_5 C22_5 1_555 1_555
C25_5 N7 1_555 1_555
C28_5 N11_5 1_555 1_555
N15_2 C28_5 1_555 1_555
C22_5 C25_5 1_555 1_555
C25_5 C28_5 1_555 1_555
N7_2 C10_6 1_555 1_555
C10_6 H8_6 1_555 1_555
C13_6 C10_6 1_555 1_555
N11_6 C13_6 1_555 1_555
C22_6 C19_6 1_555 1_555
H20_6 C22_6 1_555 1_555
C25_6 N7_2 1_555 1_555
C28_6 N11_6 1_555 1_555
N15_3 C28_6 1_555 1_555
C22_6 C25_6 1_555 1_555
C25_6 C28_6 1_555 1_555
H14_6 C16_6 1_555 1_555
N8 C10_7 1_555 1_555
C10_7 H8_7 1_555 1_555
C13_7 C10_7 1_555 1_555
H11_6 C13_7 1_555 1_555
N11_7 C13_7 1_555 1_555
C22_7 C19_7 1_555 1_555
H20_7 C22_7 1_555 1_555
C25_7 N8 1_555 1_555
C28_7 N11_7 1_555 1_555
N15_4 C28_7 1_555 1_555
C22_7 C25_7 1_555 1_555
C25_7 C28_7 1_555 1_555
N8_2 C10_8 1_555 1_555
C10_8 H8_8 1_555 1_555
C13_8 C10_8 1_555 1_555
H11_7 C13_8 1_555 1_555
N11_8 C13_8 1_555 1_555
C16_7 N15 1_555 1_555
H14_7 C16_7 1_555 1_555
C19_8 C16_7 1_555 1_555
H17_7 C19_8 1_555 1_555
C22_8 C19_8 1_555 1_555
H20_8 C22_8 1_555 1_555
C25_8 N8_2 1_555 1_555
C28_8 N11_8 1_555 1_555
N15 C28_8 1_555 1_555
C22_8 C25_8 1_555 1_555
C25_8 C28_8 1_555 1_555
C14_2 H12_2 1_555 1_555
H14_8 C16_8 1_555 1_555
F2 B1 1_555 1_555
F4 B1 1_555 1_555
B1_2 F1_2 1_555 1_555
F2_2 B1_2 1_555 1_555
F3_2 B1_2 1_555 1_555
F4_2 B1_2 1_555 1_555
B1_3 F1_3 1_555 1_555
F2_3 B1_3 1_555 1_555
F3_3 B1_3 1_555 1_555
F4_3 B1_3 1_555 1_555
F2_4 B1_4 1_555 1_555
F4_4 B1_4 1_555 1_555
B2 F5 1_555 1_555
F6 B2 1_555 1_555
F7 B2 1_555 1_555
F8 B2 1_555 1_555
B2_2 F5_2 1_555 1_555
F6_2 B2_2 1_555 1_555
F7_2 B2_2 1_555 1_555
B2_3 F5_3 1_555 1_555
F6_3 B2_3 1_555 1_555
B2_4 F5_4 1_555 1_555
F6_4 B2_4 1_555 1_555
F8_4 B2_4 1_555 1_555
B2_5 F5_5 1_555 1_555
F6_5 B2_5 1_555 1_555
F8_5 B2_5 1_555 1_555
B2_6 F5_6 1_555 1_555
F6_6 B2_6 1_555 1_555
B2_7 F5_7 1_555 1_555
F6_7 B2_7 1_555 1_555
F7_7 B2_7 1_555 1_555
B2_8 F5_8 1_555 1_555
F6_8 B2_8 1_555 1_555
F7_8 B2_8 1_555 1_555
F8_8 B2_8 1_555 1_555
B3 F9 1_555 1_555
F10 B3 1_555 1_555
F11 B3_2 1_555 1_555
F12 B3_2 1_555 1_555
B3_3 F9_2 1_555 1_555
F10_2 B3_3 1_555 1_555
F11_2 B3_3 1_555 1_555
F12_2 B3_3 1_555 1_555
F11_3 B3_4 1_555 1_555
F12_3 B3_4 1_555 1_555
B3_5 F9_3 1_555 1_555
F10_3 B3_5 1_555 1_555
B3_6 F9_4 1_555 1_555
F10_4 B3_6 1_555 1_555
F11_4 B3_6 1_555 1_555
F12_4 B3_6 1_555 1_555

#END
