
###############################################################################
#
# This file contains modified crystal structure data generated from the
# MOF subset of the Cambridge Structural Database (CSD) v543 
# hosted by the Cambridge Crystallographic Data Centre (CCDC).
#
# This work is licensed under the Creative Commons
# Attribution-NonCommercial-ShareAlike 4.0 International License.
# To view a copy of this license, visit
# http://creativecommons.org/licenses/by-nc-sa/4.0/
# or send a letter to
# Creative Commons, PO Box 1866, Mountain View, CA 94042, USA.
#
# CIF created using the CSD Python API on 29 September 2022
# The structure has been converted into the P1 space group
# The structure has a 3D framework
# The original CSD entry ZAYJOA is in the monoclinic crystal system
# The framework has been calculated to contain at least 10.0% void space
# The void calculation uses a probe of radius 1.32A, grid spacing 0.4
# H atom positions have been added when not included in the experimental data
#
###############################################################################

data_ZAYJOA
_chemical_formula_moiety         '(C40 H112 Ce8 N24 O200 W48)n'
_symmetry_cell_setting           triclinic
_symmetry_space_group_name_H-M   'P 1'
_symmetry_Int_Tables_number      1
_space_group_name_Hall           'P 1'
loop_
_symmetry_equiv_pos_site_id
_symmetry_equiv_pos_as_xyz
1 x,y,z
_cell_length_a                   12.283(5)
_cell_length_b                   21.743(5)
_cell_length_c                   22.757(5)
_cell_angle_alpha                90
_cell_angle_beta                 91.631(5)
_cell_angle_gamma                90
_cell_volume                     6075.23
loop_
_atom_site_label
_atom_site_type_symbol
_atom_site_fract_x
_atom_site_fract_y
_atom_site_fract_z
Ce5 Ce 0.14677(13) 0.88557(7) 0.08346(7)
Ce2 Ce 0.63329(14) 0.78874(7) 0.08523(8)
W1 W 0.31677(12) 0.46586(6) 0.35167(7)
W2 W 0.24144(12) 0.59671(7) 0.41137(6)
W3 W 0.05903(11) 0.51279(6) 0.33583(7)
W5 W 0.19641(12) 0.71853(6) 0.17810(7)
W6 W 0.17371(11) 0.72866(6) 0.32425(6)
W7 W 0.45222(11) 0.68052(6) 0.34126(6)
W8 W 0.47088(11) 0.66658(6) 0.19529(8)
W9 W 0.53288(10) 0.54568(6) 0.28151(6)
W10 W 0.34337(12) 0.45520(6) 0.19464(6)
W11 W 0.07932(11) 0.50097(6) 0.17840(6)
W12 W 0.27851(11) 0.57886(6) 0.10860(6)
C1 C 0.193(2) 0.9122(12) 0.2419(13)
H1 H 0.1232 0.9323 0.2378
C2 C 0.240(3) 0.9050(14) 0.2985(16)
H2 H 0.2046 0.9179 0.3334
C3 C 0.384(3) 0.8623(16) 0.2569(17)
H3 H 0.4571 0.8464 0.2601
C4 C 0.339(2) 0.8688(11) 0.1994(11)
C5 C 0.395(2) 0.8522(12) 0.1407(12)
C6 C 0.706(2) 0.7817(13) 0.2402(14)
H4 H 0.6356 0.7628 0.2409
C7 C 0.762(3) 0.7890(14) 0.2921(16)
H5 H 0.7266 0.7819 0.3286
C8 C 0.909(3) 0.8201(13) 0.2403(14)
H6 H 0.9833 0.8332 0.2396
C9 C 0.8510(19) 0.8151(10) 0.1904(11)
C10 C 0.886(3) 0.8259(14) 0.1319(15)
N1 N 0.7412(18) 0.7980(9) 0.1902(10)
N2 N 0.864(2) 0.8070(10) 0.2934(11)
N3 N 0.2396(19) 0.8930(10) 0.1947(11)
N4 N 0.342(2) 0.8774(11) 0.3022(12)
O1 O 0.2264(17) 0.5500(9) 0.3317(9)
O2 O 0.1774(19) 0.6574(10) 0.2553(11)
O3 O 0.399(2) 0.6153(10) 0.2707(10)
O4 O 0.243(2) 0.5436(12) 0.2036(13)
O6 O 0.1807(16) 0.7814(8) 0.1288(8)
O7 O 0.145(2) 0.7950(10) 0.3637(12)
O8 O 0.534(2) 0.7229(9) 0.3866(11)
O9 O 0.5665(15) 0.7081(8) 0.1541(9)
O10 O 0.6609(16) 0.5156(9) 0.2913(9)
O11 O 0.3925(19) 0.3870(9) 0.1729(12)
O13 O 0.2932(18) 0.5831(12) 0.0377(10)
O14 O 0.3061(18) 0.5157(10) 0.4233(13)
O15 O 0.1604(18) 0.4492(10) 0.3570(11)
O16 O 0.451(2) 0.5054(11) 0.3394(11)
O17 O 0.317(2) 0.4365(13) 0.2740(14)
O18 O 0.099(2) 0.5528(10) 0.4088(11)
O19 O 0.379(2) 0.6309(11) 0.3982(11)
O20 O 0.172(2) 0.6680(11) 0.3843(11)
O22 O 0.0562(19) 0.4813(10) 0.2575(10)
O23 O 0.041(2) 0.6998(11) 0.1858(11)
O24 O 0.0320(19) 0.7035(10) 0.3040(11)
O25 O 0.0174(18) 0.5777(10) 0.1904(10)
O26 O 0.1856(19) 0.7697(11) 0.2511(11)
O27 O 0.3437(17) 0.7150(9) 0.1902(11)
O28 O 0.207(2) 0.6523(11) 0.1236(12)
O29 O 0.3284(17) 0.7266(9) 0.3293(10)
O30 O 0.503(2) 0.7132(10) 0.2709(11)
O31 O 0.5560(18) 0.6111(9) 0.3397(10)
O32 O 0.5730(19) 0.6025(10) 0.2221(10)
O33 O 0.411(2) 0.6124(11) 0.1428(13)
O34 O 0.469(2) 0.4948(12) 0.2211(12)
O35 O 0.1928(19) 0.4396(11) 0.1767(12)
O36 O 0.3511(16) 0.5037(9) 0.1252(9)
O37 O 0.149(2) 0.5398(11) 0.1138(12)
O38 O 0.4851(15) 0.8277(9) 0.1502(10)
O39 O 0.3453(16) 0.8640(9) 0.0958(9)
O40 O 0.2306(15) 0.6097(9) 0.4862(9)
O41 O 0.0825(19) 0.7933(10) 0.0159(10)
O43 O 0.236(2) 0.9875(10) 0.0713(15)
O45 O 0.9910(17) 0.8476(9) 0.1329(10)
O46 O 0.513(2) 0.7131(11) 0.0289(12)
O47 O 0.752(2) 0.6953(9) 0.0794(12)
O49 O 0.498(2) 0.8497(11) 0.0206(11)
O50 O 0.8340(16) 0.8202(8) 0.0862(8)
O51 O 0.3489(16) 0.4021(9) 0.3896(9)
Ce4 Ce 0.14677(13) 0.61443(7) 0.58346(7)
Ce6 Ce 0.36671(14) 0.28874(7) 0.41477(8)
O53 O 0.0501(16) 0.9730(9) 0.1380(10)
O55 O 0.6511(16) 0.9021(9) 0.1104(9)
H15 H 0.0112773 0.973738 0.00864369
H19 H 0.446624 0.704681 0.0514773
H21 H 0.736118 0.667103 0.112394
H22 H 0.737205 0.67391 0.0414551
H23 H 0.315944 0.98303 0.0775659
H25 H 0.0252696 0.769534 0.0358768
H27 H 0.530359 0.890056 0.0104919
O48 O 0.697(2) 0.7904(12) 0.9813(13)
O52 O 0.2306(15) 0.8903(9) 0.9862(9)
H16 H 0.00169044 0.907792 0.975624
H17 H 0.748787 0.756018 0.975446
H18 H 0.63344 0.785732 0.953713
H20 H 0.491728 0.730835 0.990035
H26 H 0.0525586 0.80955 0.977997
H28 H 0.481182 0.826305 0.983982
W4 W 0.99395(11) 0.64308(6) 0.24347(7)
O5 O 0.8598(19) 0.6585(10) 0.2375(11)
O12 O 0.980(2) 0.4582(11) 0.1436(12)
O21 O 0.9957(19) 0.5846(10) 0.3047(10)
O42 O 0.999(2) 0.9290(12) 0.0142(11)
O44 O 0.9499(16) 0.4730(9) 0.3620(10)
Ce3 Ce 0.85323(13) 0.38557(7) 0.41654(7)
W4_2 W 0.00605(11) 0.14308(6) 0.25653(7)
O5_2 O 0.1402(19) 0.1585(10) 0.2625(11)
O21_2 O 0.0043(19) 0.0846(10) 0.1953(10)
O42_2 O 0.001(2) 0.4290(12) 0.4858(11)
O54 O 0.0090(17) 0.3476(9) 0.3671(10)
O12_2 O 0.020(2) 0.9582(11) 0.3564(12)
W2_2 W 0.75856(12) 0.09671(7) 0.08863(6)
W3_2 W 0.94097(11) 0.01279(6) 0.16417(7)
W5_2 W 0.80359(12) 0.21853(6) 0.32190(7)
W6_2 W 0.82629(11) 0.22866(6) 0.17575(6)
W7_2 W 0.54778(11) 0.18052(6) 0.15874(6)
W8_2 W 0.52912(11) 0.16658(6) 0.30471(8)
W9_2 W 0.46712(10) 0.04568(6) 0.21849(6)
W11_2 W 0.92068(11) 0.00097(6) 0.32160(6)
W12_2 W 0.72149(11) 0.07886(6) 0.39140(6)
C1_2 C 0.807(2) 0.4122(12) 0.2581(13)
H1_2 H 0.8768 0.4323 0.2622
C2_2 C 0.760(3) 0.4050(14) 0.2015(16)
H2_2 H 0.7954 0.4179 0.1666
C3_2 C 0.616(3) 0.3623(16) 0.2431(17)
H3_2 H 0.5429 0.3464 0.2399
C4_2 C 0.661(2) 0.3688(11) 0.3006(11)
C5_2 C 0.605(2) 0.3522(12) 0.3593(12)
C6_2 C 0.294(2) 0.2817(13) 0.2598(14)
H4_2 H 0.3644 0.2628 0.2591
C7_2 C 0.238(3) 0.2890(14) 0.2079(16)
H5_2 H 0.2734 0.2819 0.1714
C8_2 C 0.091(3) 0.3201(13) 0.2597(14)
H6_2 H 0.0167 0.3332 0.2604
C9_2 C 0.1490(19) 0.3151(10) 0.3096(11)
C10_2 C 0.114(3) 0.3259(14) 0.3681(15)
N1_2 N 0.2588(18) 0.2980(9) 0.3098(10)
N2_2 N 0.136(2) 0.3070(10) 0.2066(11)
N3_2 N 0.7604(19) 0.3930(10) 0.3053(11)
N4_2 N 0.658(2) 0.3774(11) 0.1978(12)
O1_2 O 0.7736(17) 0.0500(9) 0.1683(9)
O2_2 O 0.8226(19) 0.1574(10) 0.2447(11)
O3_2 O 0.601(2) 0.1153(10) 0.2293(10)
O4_2 O 0.757(2) 0.0436(12) 0.2964(13)
O6_2 O 0.8193(16) 0.2814(8) 0.3712(8)
O7_2 O 0.855(2) 0.2950(10) 0.1363(12)
O8_2 O 0.466(2) 0.2229(9) 0.1134(11)
O9_2 O 0.4335(15) 0.2081(8) 0.3459(9)
O10_2 O 0.3391(16) 0.0156(9) 0.2087(9)
O13_2 O 0.7068(18) 0.0831(12) 0.4623(10)
O14_2 O 0.6939(18) 0.0157(10) 0.0767(13)
O16_2 O 0.549(2) 0.0054(11) 0.1606(11)
O18_2 O 0.901(2) 0.0528(10) 0.0912(11)
O19_2 O 0.621(2) 0.1309(11) 0.1018(11)
O20_2 O 0.828(2) 0.1680(11) 0.1157(11)
O23_2 O 0.959(2) 0.1998(11) 0.3142(11)
O24_2 O 0.9680(19) 0.2035(10) 0.1960(11)
O25_2 O 0.9826(18) 0.0777(10) 0.3096(10)
O26_2 O 0.8144(19) 0.2697(11) 0.2489(11)
O27_2 O 0.6563(17) 0.2150(9) 0.3098(11)
O28_2 O 0.793(2) 0.1523(11) 0.3764(12)
O29_2 O 0.6716(17) 0.2266(9) 0.1707(10)
O30_2 O 0.497(2) 0.2132(10) 0.2291(11)
O31_2 O 0.4440(18) 0.1111(9) 0.1603(10)
O32_2 O 0.4270(19) 0.1025(10) 0.2779(10)
O33_2 O 0.589(2) 0.1124(11) 0.3572(13)
O36_2 O 0.6489(16) 0.0037(9) 0.3748(9)
O37_2 O 0.851(2) 0.0398(11) 0.3862(12)
O38_2 O 0.5149(15) 0.3277(9) 0.3498(10)
O39_2 O 0.6547(16) 0.3640(9) 0.4042(9)
O40_2 O 0.7694(15) 0.1097(9) 0.0138(9)
O41_2 O 0.9175(19) 0.2933(10) 0.4841(10)
O43_2 O 0.764(2) 0.4875(10) 0.4287(15)
O46_2 O 0.487(2) 0.2131(11) 0.4711(12)
O47_2 O 0.248(2) 0.1953(9) 0.4206(12)
O48_2 O 0.303(2) 0.2904(12) 0.5187(13)
O49_2 O 0.502(2) 0.3497(11) 0.4794(11)
O50_2 O 0.1660(16) 0.3202(8) 0.4138(8)
O52_2 O 0.7694(15) 0.3903(9) 0.5138(9)
H15_2 H 0.988723 0.473738 0.491356
H16_2 H 0.99831 0.407792 0.524376
H17_2 H 0.251213 0.256018 0.524554
H18_2 H 0.36656 0.285732 0.546287
H19_2 H 0.553376 0.204681 0.448523
H20_2 H 0.508272 0.230835 0.509965
H21_2 H 0.263882 0.167103 0.387606
H22_2 H 0.262795 0.17391 0.458545
H23_2 H 0.684056 0.48303 0.422434
H24 H 0.779844 0.503209 0.469014
H25_2 H 0.97473 0.269534 0.464123
H26_2 H 0.947441 0.30955 0.522003
H27_2 H 0.469641 0.390056 0.489508
H28_2 H 0.518818 0.326305 0.516018
Ce4_2 Ce 0.85323(13) 0.11443(7) 0.91654(7)
W1_2 W 0.68323(12) 0.96586(6) 0.14833(7)
W10_2 W 0.65663(12) 0.95520(6) 0.30536(6)
O11_2 O 0.6075(19) 0.8870(9) 0.3271(12)
O15_2 O 0.8396(18) 0.9492(10) 0.1430(11)
O17_2 O 0.683(2) 0.9365(13) 0.2260(14)
O22_2 O 0.9438(19) 0.9813(10) 0.2425(10)
O34_2 O 0.531(2) 0.9948(12) 0.2789(12)
O35_2 O 0.8072(19) 0.9396(11) 0.3233(12)
W4_3 W 0.00605(11) 0.35692(6) 0.75653(7)
O5_3 O 0.1402(19) 0.3415(10) 0.7625(11)
O12_3 O 0.020(2) 0.5418(11) 0.8564(12)
O21_3 O 0.0043(19) 0.4154(10) 0.6953(10)
O42_3 O 0.001(2) 0.0710(12) 0.9858(11)
O44_2 O 0.0501(16) 0.5270(9) 0.6380(10)
O54_2 O 0.0090(17) 0.1524(9) 0.8671(10)
O48_3 O 0.303(2) 0.2096(12) 0.0187(13)
H16_3 H 0.99831 0.092208 0.0243762
H17_3 H 0.251213 0.243982 0.0245538
H18_3 H 0.36656 0.214268 0.0462872
H20_3 H 0.508272 0.269165 0.00996465
H26_3 H 0.947441 0.19045 0.0220032
H28_3 H 0.518818 0.173695 0.0160184
Ce2_2 Ce 0.36671(14) 0.21126(7) 0.91477(8)
W1_3 W 0.68323(12) 0.53414(6) 0.64833(7)
W2_3 W 0.75856(12) 0.40329(7) 0.58863(6)
W3_3 W 0.94097(11) 0.48721(6) 0.66417(7)
W5_3 W 0.80359(12) 0.28147(6) 0.82190(7)
W6_3 W 0.82629(11) 0.27134(6) 0.67575(6)
W7_3 W 0.54778(11) 0.31948(6) 0.65874(6)
W8_3 W 0.52912(11) 0.33342(6) 0.80471(8)
W9_3 W 0.46712(10) 0.45432(6) 0.71849(6)
W10_3 W 0.65663(12) 0.54480(6) 0.80536(6)
W11_3 W 0.92068(11) 0.49903(6) 0.82160(6)
W12_3 W 0.72149(11) 0.42114(6) 0.89140(6)
C1_3 C 0.807(2) 0.0878(12) 0.7581(13)
H1_3 H 0.8768 0.0677 0.7622
C2_3 C 0.760(3) 0.0950(14) 0.7015(16)
H2_3 H 0.7954 0.0821 0.6666
C3_3 C 0.616(3) 0.1377(16) 0.7431(17)
H3_3 H 0.5429 0.1536 0.7399
C4_3 C 0.661(2) 0.1312(11) 0.8006(11)
C5_3 C 0.605(2) 0.1478(12) 0.8593(12)
C6_3 C 0.294(2) 0.2183(13) 0.7598(14)
H4_3 H 0.3644 0.2372 0.7591
C7_3 C 0.238(3) 0.2110(14) 0.7079(16)
H5_3 H 0.2734 0.2181 0.6714
C8_3 C 0.091(3) 0.1799(13) 0.7597(14)
H6_3 H 0.0167 0.1668 0.7604
C9_3 C 0.1490(19) 0.1849(10) 0.8096(11)
C10_3 C 0.114(3) 0.1741(14) 0.8681(15)
N1_3 N 0.2588(18) 0.2020(9) 0.8098(10)
N2_3 N 0.136(2) 0.1930(10) 0.7066(11)
N3_3 N 0.7604(19) 0.1070(10) 0.8053(11)
N4_3 N 0.658(2) 0.1226(11) 0.6978(12)
O1_3 O 0.7736(17) 0.4500(9) 0.6683(9)
O2_3 O 0.8226(19) 0.3426(10) 0.7447(11)
O3_3 O 0.601(2) 0.3847(10) 0.7293(10)
O4_3 O 0.757(2) 0.4564(12) 0.7964(13)
O6_3 O 0.8193(16) 0.2186(8) 0.8712(8)
O7_3 O 0.855(2) 0.2050(10) 0.6363(12)
O8_3 O 0.466(2) 0.2771(9) 0.6134(11)
O9_3 O 0.4335(15) 0.2919(8) 0.8459(9)
O10_3 O 0.3391(16) 0.4844(9) 0.7087(9)
O11_3 O 0.6075(19) 0.6130(9) 0.8271(12)
O13_3 O 0.7068(18) 0.4169(12) 0.9623(10)
O14_3 O 0.6939(18) 0.4843(10) 0.5767(13)
O15_3 O 0.8396(18) 0.5508(10) 0.6430(11)
O16_3 O 0.549(2) 0.4946(11) 0.6606(11)
O17_3 O 0.683(2) 0.5635(13) 0.7260(14)
O18_3 O 0.901(2) 0.4472(10) 0.5912(11)
O19_3 O 0.621(2) 0.3691(11) 0.6018(11)
O20_3 O 0.828(2) 0.3320(11) 0.6157(11)
O22_3 O 0.9438(19) 0.5187(10) 0.7425(10)
O23_3 O 0.959(2) 0.3002(11) 0.8142(11)
O24_3 O 0.9680(19) 0.2965(10) 0.6960(11)
O25_3 O 0.9826(18) 0.4223(10) 0.8096(10)
O26_3 O 0.8144(19) 0.2303(11) 0.7489(11)
O27_3 O 0.6563(17) 0.2850(9) 0.8098(11)
O28_3 O 0.793(2) 0.3477(11) 0.8764(12)
O29_3 O 0.6716(17) 0.2734(9) 0.6707(10)
O30_3 O 0.497(2) 0.2868(10) 0.7291(11)
O31_3 O 0.4440(18) 0.3889(9) 0.6603(10)
O32_3 O 0.4270(19) 0.3975(10) 0.7779(10)
O33_3 O 0.589(2) 0.3876(11) 0.8572(13)
O34_3 O 0.531(2) 0.5052(12) 0.7789(12)
O35_3 O 0.8072(19) 0.5604(11) 0.8233(12)
O36_3 O 0.6489(16) 0.4963(9) 0.8748(9)
O37_3 O 0.851(2) 0.4602(11) 0.8862(12)
O38_3 O 0.5149(15) 0.1723(9) 0.8498(10)
O39_3 O 0.6547(16) 0.1360(9) 0.9042(9)
O41_3 O 0.9175(19) 0.2067(10) 0.9841(10)
O43_3 O 0.764(2) 0.0125(10) 0.9287(15)
O46_3 O 0.487(2) 0.2869(11) 0.9711(12)
O47_3 O 0.248(2) 0.3047(9) 0.9206(12)
O49_3 O 0.502(2) 0.1503(11) 0.9794(11)
O50_3 O 0.1660(16) 0.1798(8) 0.9138(8)
O51_2 O 0.6511(16) 0.5979(9) 0.6104(9)
Ce6_2 Ce 0.63329(14) 0.71126(7) 0.58523(8)
O53_2 O 0.9499(16) 0.0270(9) 0.8620(10)
O55_2 O 0.3489(16) 0.0979(9) 0.8896(9)
H15_3 H 0.988723 0.0262617 0.991356
H19_3 H 0.553376 0.295319 0.948523
H21_3 H 0.263882 0.332897 0.887606
H22_3 H 0.262795 0.32609 0.958545
H23_3 H 0.684056 0.0169704 0.922434
H25_3 H 0.97473 0.230466 0.964123
H27_3 H 0.469641 0.109944 0.989508
W1_4 W 0.31677(12) 0.03414(6) 0.85167(7)
W10_4 W 0.34337(12) 0.04480(6) 0.69464(6)
O11_4 O 0.3925(19) 0.1130(9) 0.6729(12)
O15_4 O 0.1604(18) 0.0508(10) 0.8570(11)
O17_4 O 0.317(2) 0.0635(13) 0.7740(14)
O22_4 O 0.0562(19) 0.0187(10) 0.7575(10)
O34_4 O 0.469(2) 0.0052(12) 0.7211(12)
O35_4 O 0.1928(19) 0.0604(11) 0.6767(12)
W2_4 W 0.24144(12) 0.90329(7) 0.91137(6)
W3_4 W 0.05903(11) 0.98721(6) 0.83583(7)
W5_4 W 0.19641(12) 0.78147(6) 0.67810(7)
W6_4 W 0.17371(11) 0.77134(6) 0.82425(6)
W7_4 W 0.45222(11) 0.81948(6) 0.84126(6)
W8_4 W 0.47088(11) 0.83342(6) 0.69529(8)
W9_4 W 0.53288(10) 0.95432(6) 0.78151(6)
W11_4 W 0.07932(11) 0.99903(6) 0.67840(6)
W12_4 W 0.27851(11) 0.92114(6) 0.60860(6)
C1_4 C 0.193(2) 0.5878(12) 0.7419(13)
H1_4 H 0.1232 0.5677 0.7378
C2_4 C 0.240(3) 0.5950(14) 0.7985(16)
H2_4 H 0.2046 0.5821 0.8334
C3_4 C 0.384(3) 0.6377(16) 0.7569(17)
H3_4 H 0.4571 0.6536 0.7601
C4_4 C 0.339(2) 0.6312(11) 0.6994(11)
C5_4 C 0.395(2) 0.6478(12) 0.6407(12)
C6_4 C 0.706(2) 0.7183(13) 0.7402(14)
H4_4 H 0.6356 0.7372 0.7409
C7_4 C 0.762(3) 0.7110(14) 0.7921(16)
H5_4 H 0.7266 0.7181 0.8286
C8_4 C 0.909(3) 0.6799(13) 0.7403(14)
H6_4 H 0.9833 0.6668 0.7396
C9_4 C 0.8510(19) 0.6849(10) 0.6904(11)
C10_4 C 0.886(3) 0.6741(14) 0.6319(15)
N1_4 N 0.7412(18) 0.7020(9) 0.6902(10)
N2_4 N 0.864(2) 0.6930(10) 0.7934(11)
N3_4 N 0.2396(19) 0.6070(10) 0.6947(11)
N4_4 N 0.342(2) 0.6226(11) 0.8022(12)
O1_4 O 0.2264(17) 0.9500(9) 0.8317(9)
O2_4 O 0.1774(19) 0.8426(10) 0.7553(11)
O3_4 O 0.399(2) 0.8847(10) 0.7707(10)
O4_4 O 0.243(2) 0.9564(12) 0.7036(13)
O6_4 O 0.1807(16) 0.7186(8) 0.6288(8)
O7_4 O 0.145(2) 0.7050(10) 0.8637(12)
O8_4 O 0.534(2) 0.7771(9) 0.8866(11)
O9_4 O 0.5665(15) 0.7919(8) 0.6541(9)
O10_4 O 0.6609(16) 0.9844(9) 0.7913(9)
O13_4 O 0.2932(18) 0.9169(12) 0.5377(10)
O14_4 O 0.3061(18) 0.9843(10) 0.9233(13)
O16_4 O 0.451(2) 0.9946(11) 0.8394(11)
O18_4 O 0.099(2) 0.9472(10) 0.9088(11)
O19_4 O 0.379(2) 0.8691(11) 0.8982(11)
O20_4 O 0.172(2) 0.8320(11) 0.8843(11)
O23_4 O 0.041(2) 0.8002(11) 0.6858(11)
O24_4 O 0.0320(19) 0.7965(10) 0.8040(11)
O25_4 O 0.0174(18) 0.9223(10) 0.6904(10)
O26_4 O 0.1856(19) 0.7303(11) 0.7511(11)
O27_4 O 0.3437(17) 0.7850(9) 0.6902(11)
O28_4 O 0.207(2) 0.8477(11) 0.6236(12)
O29_4 O 0.3284(17) 0.7734(9) 0.8293(10)
O30_4 O 0.503(2) 0.7868(10) 0.7709(11)
O31_4 O 0.5560(18) 0.8889(9) 0.8397(10)
O32_4 O 0.5730(19) 0.8975(10) 0.7221(10)
O33_4 O 0.411(2) 0.8876(11) 0.6428(13)
O36_4 O 0.3511(16) 0.9963(9) 0.6252(9)
O37_4 O 0.149(2) 0.9602(11) 0.6138(12)
O38_4 O 0.4851(15) 0.6723(9) 0.6502(10)
O39_4 O 0.3453(16) 0.6360(9) 0.5958(9)
O41_4 O 0.0825(19) 0.7067(10) 0.5159(10)
O43_4 O 0.236(2) 0.5125(10) 0.5713(15)
O45_2 O 0.9910(17) 0.6524(9) 0.6329(10)
O46_4 O 0.513(2) 0.7869(11) 0.5289(12)
O47_4 O 0.752(2) 0.8047(9) 0.5794(12)
O48_4 O 0.697(2) 0.7096(12) 0.4813(13)
O49_4 O 0.498(2) 0.6503(11) 0.5206(11)
O50_4 O 0.8340(16) 0.6798(8) 0.5862(8)
H15_4 H 0.0112773 0.526262 0.508644
H16_4 H 0.00169044 0.592208 0.475624
H17_4 H 0.748787 0.743982 0.475446
H18_4 H 0.63344 0.714268 0.453713
H19_4 H 0.446624 0.795319 0.551477
H20_4 H 0.491728 0.769165 0.490035
H21_4 H 0.736118 0.832897 0.612394
H22_4 H 0.737205 0.82609 0.541455
H23_4 H 0.315944 0.51697 0.577566
H24_2 H 0.220156 0.496791 0.530986
H25_4 H 0.0252696 0.730466 0.535877
H26_4 H 0.0525586 0.69045 0.477997
H27_4 H 0.530359 0.609944 0.510492
H28_4 H 0.481182 0.673695 0.483982
O12_4 O 0.980(2) 0.0418(11) 0.6436(12)
W4_4 W 0.99395(11) 0.85692(6) 0.74347(7)
O5_4 O 0.8598(19) 0.8415(10) 0.7375(11)
O21_4 O 0.9957(19) 0.9154(10) 0.8047(10)
O42_4 O 0.999(2) 0.5710(12) 0.5142(11)
H24_3 H 0.220156 0.00320864 0.0309857
H24_4 H 0.779844 0.996791 0.969014
H7 H 0.0073 0.6662 0.0926
H10 H 0.0059 0.7289 0.0586
N5 N 0.9710(19) 0.6897(11) 0.0622(11)
H8 H 0.9745 0.6680 0.0255
H9 H 0.8961 0.6956 0.0718
N5_2 N 0.0290(19) 0.1897(11) 0.4378(11)
H8_2 H 0.0255 0.1680 0.4745
H9_2 H 0.1039 0.1956 0.4282
H7_2 H 0.9927 0.1662 0.4074
H10_2 H 0.9941 0.2289 0.4414
N5_3 N 0.0290(19) 0.3103(11) 0.9378(11)
H8_3 H 0.0255 0.3320 0.9745
H9_3 H 0.1039 0.3044 0.9282
H7_3 H 0.9927 0.3338 0.9074
H10_3 H 0.9941 0.2711 0.9414
H7_4 H 0.0073 0.8338 0.5926
H10_4 H 0.0059 0.7711 0.5586
N5_4 N 0.9710(19) 0.8103(11) 0.5622(11)
H8_4 H 0.9745 0.8320 0.5255
H9_4 H 0.8961 0.8044 0.5718
N6 N 0.752(2) 0.5849(14) 0.1428(14)
H11 H 0.8144 0.5718 0.1658
H12 H 0.7200 0.5501 0.1230
H13 H 0.6995 0.6030 0.1682
H14 H 0.7737 0.6147 0.1144
N6_2 N 0.248(2) 0.0849(14) 0.3572(14)
H11_2 H 0.1856 0.0718 0.3342
H12_2 H 0.2800 0.0501 0.3770
H13_2 H 0.3005 0.1030 0.3318
H14_2 H 0.2263 0.1147 0.3856
N6_3 N 0.248(2) 0.4151(14) 0.8572(14)
H11_3 H 0.1856 0.4282 0.8342
H12_3 H 0.2800 0.4499 0.8770
H13_3 H 0.3005 0.3970 0.8318
H14_3 H 0.2263 0.3853 0.8856
N6_4 N 0.752(2) 0.9151(14) 0.6428(14)
H11_4 H 0.8144 0.9282 0.6658
H12_4 H 0.7200 0.9499 0.6230
H13_4 H 0.6995 0.8970 0.6682
H14_4 H 0.7737 0.8853 0.6144
loop_
_geom_bond_atom_site_label_1
_geom_bond_atom_site_label_2
_geom_bond_site_symmetry_1
_geom_bond_site_symmetry_2
Ce5 N3 1_555 1_555
Ce2 N1 1_555 1_555
W1 O1 1_555 1_555
W2 O1 1_555 1_555
W3 O1 1_555 1_555
W5 O2 1_555 1_555
W6 O2 1_555 1_555
W7 O3 1_555 1_555
W8 O3 1_555 1_555
W9 O3 1_555 1_555
W10 O4 1_555 1_555
W11 O4 1_555 1_555
W12 O4 1_555 1_555
C1 H1 1_555 1_555
C2 C1 1_555 1_555
H2 C2 1_555 1_555
C3 H3 1_555 1_555
C4 C3 1_555 1_555
C5 C4 1_555 1_555
C6 H4 1_555 1_555
C7 C6 1_555 1_555
H5 C7 1_555 1_555
C8 H6 1_555 1_555
C9 C8 1_555 1_555
C10 C9 1_555 1_555
N1 C6 1_555 1_555
N2 C7 1_555 1_555
N3 C1 1_555 1_555
N4 C2 1_555 1_555
O6 Ce5 1_555 1_555
O7 W6 1_555 1_555
O8 W7 1_555 1_555
O9 Ce2 1_555 1_555
O10 W9 1_555 1_555
O11 W10 1_555 1_555
O13 W12 1_555 1_555
O14 W1 1_555 1_555
O15 W1 1_555 1_555
O16 W1 1_555 1_555
O17 W1 1_555 1_555
O18 W2 1_555 1_555
O19 W2 1_555 1_555
O20 W2 1_555 1_555
O22 W3 1_555 1_555
O26 W5 1_555 1_555
O27 W5 1_555 1_555
O28 W5 1_555 1_555
O29 W6 1_555 1_555
O30 W7 1_555 1_555
O31 W7 1_555 1_555
O32 W8 1_555 1_555
O33 W8 1_555 1_555
O34 W9 1_555 1_555
O35 W10 1_555 1_555
O36 W10 1_555 1_555
O37 W11 1_555 1_555
O38 Ce2 1_555 1_555
O39 Ce5 1_555 1_555
O40 W2 1_555 1_555
O41 Ce5 1_555 1_555
O43 Ce5 1_555 1_555
O45 C10 1_555 1_555
O46 Ce2 1_555 1_555
O47 Ce2 1_555 1_555
O49 Ce2 1_555 1_555
O50 Ce2 1_555 1_555
O51 W1 1_555 1_555
Ce4 O40 1_555 1_555
Ce6 O51 1_555 1_555
O53 Ce5 1_555 1_555
O55 Ce2 1_555 1_555
W2 O14 1_555 1_555
W3 O15 1_555 1_555
W3 O18 1_555 1_555
W5 O6 1_555 1_555
W5 O23 1_555 1_555
W6 O20 1_555 1_555
W6 O24 1_555 1_555
W6 O26 1_555 1_555
W7 O19 1_555 1_555
W7 O29 1_555 1_555
W8 O9 1_555 1_555
W8 O27 1_555 1_555
W8 O30 1_555 1_555
W9 O16 1_555 1_555
W9 O31 1_555 1_555
W9 O32 1_555 1_555
W10 O17 1_555 1_555
W10 O34 1_555 1_555
W11 O22 1_555 1_555
W11 O25 1_555 1_555
W11 O35 1_555 1_555
W12 O28 1_555 1_555
W12 O33 1_555 1_555
W12 O36 1_555 1_555
W12 O37 1_555 1_555
C3 N4 1_555 1_555
C4 N3 1_555 1_555
C5 O38 1_555 1_555
C5 O39 1_555 1_555
C8 N2 1_555 1_555
C9 N1 1_555 1_555
C10 O50 1_555 1_555
O46 H19 1_555 1_555
O47 H21 1_555 1_555
O47 H22 1_555 1_555
O43 H23 1_555 1_555
O41 H25 1_555 1_555
O49 H27 1_555 1_555
O48 H17 1_555 1_555
O48 H18 1_555 1_555
O5 W4 1_555 1_555
Ce3 O44 1_555 1_555
W4 O21 1_555 1_555
O5_2 W4_2 1_555 1_555
W4_2 O21_2 1_555 1_555
Ce3 N3_2 1_555 1_555
Ce6 N1_2 1_555 1_555
W2_2 O1_2 1_555 1_555
W3_2 O1_2 1_555 1_555
W5_2 O2_2 1_555 1_555
W6_2 O2_2 1_555 1_555
W7_2 O3_2 1_555 1_555
W8_2 O3_2 1_555 1_555
W9_2 O3_2 1_555 1_555
W11_2 O4_2 1_555 1_555
W12_2 O4_2 1_555 1_555
C1_2 H1_2 1_555 1_555
C2_2 C1_2 1_555 1_555
H2_2 C2_2 1_555 1_555
C3_2 H3_2 1_555 1_555
C4_2 C3_2 1_555 1_555
C5_2 C4_2 1_555 1_555
C6_2 H4_2 1_555 1_555
C7_2 C6_2 1_555 1_555
H5_2 C7_2 1_555 1_555
C8_2 H6_2 1_555 1_555
C9_2 C8_2 1_555 1_555
C10_2 C9_2 1_555 1_555
N1_2 C6_2 1_555 1_555
N2_2 C7_2 1_555 1_555
N3_2 C1_2 1_555 1_555
N4_2 C2_2 1_555 1_555
O6_2 Ce3 1_555 1_555
O7_2 W6_2 1_555 1_555
O8_2 W7_2 1_555 1_555
O9_2 Ce6 1_555 1_555
O10_2 W9_2 1_555 1_555
O13_2 W12_2 1_555 1_555
O18_2 W2_2 1_555 1_555
O19_2 W2_2 1_555 1_555
O20_2 W2_2 1_555 1_555
O26_2 W5_2 1_555 1_555
O27_2 W5_2 1_555 1_555
O28_2 W5_2 1_555 1_555
O29_2 W6_2 1_555 1_555
O30_2 W7_2 1_555 1_555
O31_2 W7_2 1_555 1_555
O32_2 W8_2 1_555 1_555
O33_2 W8_2 1_555 1_555
O37_2 W11_2 1_555 1_555
O38_2 Ce6 1_555 1_555
O39_2 Ce3 1_555 1_555
O40_2 W2_2 1_555 1_555
O41_2 Ce3 1_555 1_555
O43_2 Ce3 1_555 1_555
O54 C10_2 1_555 1_555
O46_2 Ce6 1_555 1_555
O47_2 Ce6 1_555 1_555
O48_2 Ce6 1_555 1_555
O49_2 Ce6 1_555 1_555
O50_2 Ce6 1_555 1_555
O52_2 Ce3 1_555 1_555
W2_2 O14_2 1_555 1_555
W3_2 O18_2 1_555 1_555
W5_2 O6_2 1_555 1_555
W5_2 O23_2 1_555 1_555
W6_2 O20_2 1_555 1_555
W6_2 O24_2 1_555 1_555
W6_2 O26_2 1_555 1_555
W7_2 O19_2 1_555 1_555
W7_2 O29_2 1_555 1_555
W8_2 O9_2 1_555 1_555
W8_2 O27_2 1_555 1_555
W8_2 O30_2 1_555 1_555
W9_2 O16_2 1_555 1_555
W9_2 O31_2 1_555 1_555
W9_2 O32_2 1_555 1_555
W11_2 O25_2 1_555 1_555
W12_2 O28_2 1_555 1_555
W12_2 O33_2 1_555 1_555
W12_2 O36_2 1_555 1_555
W12_2 O37_2 1_555 1_555
C3_2 N4_2 1_555 1_555
C4_2 N3_2 1_555 1_555
C5_2 O38_2 1_555 1_555
C5_2 O39_2 1_555 1_555
C8_2 N2_2 1_555 1_555
C9_2 N1_2 1_555 1_555
C10_2 O50_2 1_555 1_555
O48_2 H17_2 1_555 1_555
O48_2 H18_2 1_555 1_555
O46_2 H19_2 1_555 1_555
O46_2 H20_2 1_555 1_555
O47_2 H21_2 1_555 1_555
O47_2 H22_2 1_555 1_555
O43_2 H23_2 1_555 1_555
O43_2 H24 1_555 1_555
O41_2 H25_2 1_555 1_555
O41_2 H26_2 1_555 1_555
O49_2 H27_2 1_555 1_555
O49_2 H28_2 1_555 1_555
O11_2 W10_2 1_555 1_555
O15_2 W1_2 1_555 1_555
O17_2 W1_2 1_555 1_555
O35_2 W10_2 1_555 1_555
O55 W1_2 1_555 1_555
W10_2 O17_2 1_555 1_555
W10_2 O34_2 1_555 1_555
O5_3 W4_3 1_555 1_555
Ce4 O44_2 1_555 1_555
W4_3 O21_3 1_555 1_555
O48_3 H17_3 1_555 1_555
O48_3 H18_3 1_555 1_555
Ce4_2 N3_3 1_555 1_555
Ce2_2 N1_3 1_555 1_555
W1_3 O1_3 1_555 1_555
W2_3 O1_3 1_555 1_555
W3_3 O1_3 1_555 1_555
W5_3 O2_3 1_555 1_555
W6_3 O2_3 1_555 1_555
W7_3 O3_3 1_555 1_555
W8_3 O3_3 1_555 1_555
W9_3 O3_3 1_555 1_555
W10_3 O4_3 1_555 1_555
W11_3 O4_3 1_555 1_555
W12_3 O4_3 1_555 1_555
C1_3 H1_3 1_555 1_555
C2_3 C1_3 1_555 1_555
H2_3 C2_3 1_555 1_555
C3_3 H3_3 1_555 1_555
C4_3 C3_3 1_555 1_555
C5_3 C4_3 1_555 1_555
C6_3 H4_3 1_555 1_555
C7_3 C6_3 1_555 1_555
H5_3 C7_3 1_555 1_555
C8_3 H6_3 1_555 1_555
C9_3 C8_3 1_555 1_555
C10_3 C9_3 1_555 1_555
N1_3 C6_3 1_555 1_555
N2_3 C7_3 1_555 1_555
N3_3 C1_3 1_555 1_555
N4_3 C2_3 1_555 1_555
O6_3 Ce4_2 1_555 1_555
O7_3 W6_3 1_555 1_555
O8_3 W7_3 1_555 1_555
O9_3 Ce2_2 1_555 1_555
O10_3 W9_3 1_555 1_555
O11_3 W10_3 1_555 1_555
O13_3 W12_3 1_555 1_555
O14_3 W1_3 1_555 1_555
O15_3 W1_3 1_555 1_555
O16_3 W1_3 1_555 1_555
O17_3 W1_3 1_555 1_555
O18_3 W2_3 1_555 1_555
O19_3 W2_3 1_555 1_555
O20_3 W2_3 1_555 1_555
O22_3 W3_3 1_555 1_555
O26_3 W5_3 1_555 1_555
O27_3 W5_3 1_555 1_555
O28_3 W5_3 1_555 1_555
O29_3 W6_3 1_555 1_555
O30_3 W7_3 1_555 1_555
O31_3 W7_3 1_555 1_555
O32_3 W8_3 1_555 1_555
O33_3 W8_3 1_555 1_555
O34_3 W9_3 1_555 1_555
O35_3 W10_3 1_555 1_555
O36_3 W10_3 1_555 1_555
O37_3 W11_3 1_555 1_555
O38_3 Ce2_2 1_555 1_555
O39_3 Ce4_2 1_555 1_555
O52_2 W2_3 1_555 1_555
O41_3 Ce4_2 1_555 1_555
O43_3 Ce4_2 1_555 1_555
O54_2 C10_3 1_555 1_555
O46_3 Ce2_2 1_555 1_555
O47_3 Ce2_2 1_555 1_555
O49_3 Ce2_2 1_555 1_555
O50_3 Ce2_2 1_555 1_555
O51_2 W1_3 1_555 1_555
Ce6_2 O51_2 1_555 1_555
O53_2 Ce4_2 1_555 1_555
O55_2 Ce2_2 1_555 1_555
W2_3 O14_3 1_555 1_555
W3_3 O15_3 1_555 1_555
W3_3 O18_3 1_555 1_555
W5_3 O6_3 1_555 1_555
W5_3 O23_3 1_555 1_555
W6_3 O20_3 1_555 1_555
W6_3 O24_3 1_555 1_555
W6_3 O26_3 1_555 1_555
W7_3 O19_3 1_555 1_555
W7_3 O29_3 1_555 1_555
W8_3 O9_3 1_555 1_555
W8_3 O27_3 1_555 1_555
W8_3 O30_3 1_555 1_555
W9_3 O16_3 1_555 1_555
W9_3 O31_3 1_555 1_555
W9_3 O32_3 1_555 1_555
W10_3 O17_3 1_555 1_555
W10_3 O34_3 1_555 1_555
W11_3 O22_3 1_555 1_555
W11_3 O25_3 1_555 1_555
W11_3 O35_3 1_555 1_555
W12_3 O28_3 1_555 1_555
W12_3 O33_3 1_555 1_555
W12_3 O36_3 1_555 1_555
W12_3 O37_3 1_555 1_555
C3_3 N4_3 1_555 1_555
C4_3 N3_3 1_555 1_555
C5_3 O38_3 1_555 1_555
C5_3 O39_3 1_555 1_555
C8_3 N2_3 1_555 1_555
C9_3 N1_3 1_555 1_555
C10_3 O50_3 1_555 1_555
O46_3 H19_3 1_555 1_555
O47_3 H21_3 1_555 1_555
O47_3 H22_3 1_555 1_555
O43_3 H23_3 1_555 1_555
O41_3 H25_3 1_555 1_555
O49_3 H27_3 1_555 1_555
O11_4 W10_4 1_555 1_555
O15_4 W1_4 1_555 1_555
O17_4 W1_4 1_555 1_555
O35_4 W10_4 1_555 1_555
O55_2 W1_4 1_555 1_555
W10_4 O17_4 1_555 1_555
W10_4 O34_4 1_555 1_555
Ce4 N3_4 1_555 1_555
Ce6_2 N1_4 1_555 1_555
W2_4 O1_4 1_555 1_555
W3_4 O1_4 1_555 1_555
W5_4 O2_4 1_555 1_555
W6_4 O2_4 1_555 1_555
W7_4 O3_4 1_555 1_555
W8_4 O3_4 1_555 1_555
W9_4 O3_4 1_555 1_555
W11_4 O4_4 1_555 1_555
W12_4 O4_4 1_555 1_555
C1_4 H1_4 1_555 1_555
C2_4 C1_4 1_555 1_555
H2_4 C2_4 1_555 1_555
C3_4 H3_4 1_555 1_555
C4_4 C3_4 1_555 1_555
C5_4 C4_4 1_555 1_555
C6_4 H4_4 1_555 1_555
C7_4 C6_4 1_555 1_555
H5_4 C7_4 1_555 1_555
C8_4 H6_4 1_555 1_555
C9_4 C8_4 1_555 1_555
C10_4 C9_4 1_555 1_555
N1_4 C6_4 1_555 1_555
N2_4 C7_4 1_555 1_555
N3_4 C1_4 1_555 1_555
N4_4 C2_4 1_555 1_555
O6_4 Ce4 1_555 1_555
O7_4 W6_4 1_555 1_555
O8_4 W7_4 1_555 1_555
O9_4 Ce6_2 1_555 1_555
O10_4 W9_4 1_555 1_555
O13_4 W12_4 1_555 1_555
O18_4 W2_4 1_555 1_555
O19_4 W2_4 1_555 1_555
O20_4 W2_4 1_555 1_555
O26_4 W5_4 1_555 1_555
O27_4 W5_4 1_555 1_555
O28_4 W5_4 1_555 1_555
O29_4 W6_4 1_555 1_555
O30_4 W7_4 1_555 1_555
O31_4 W7_4 1_555 1_555
O32_4 W8_4 1_555 1_555
O33_4 W8_4 1_555 1_555
O37_4 W11_4 1_555 1_555
O38_4 Ce6_2 1_555 1_555
O39_4 Ce4 1_555 1_555
O52 W2_4 1_555 1_555
O41_4 Ce4 1_555 1_555
O43_4 Ce4 1_555 1_555
O45_2 C10_4 1_555 1_555
O46_4 Ce6_2 1_555 1_555
O47_4 Ce6_2 1_555 1_555
O48_4 Ce6_2 1_555 1_555
O49_4 Ce6_2 1_555 1_555
O50_4 Ce6_2 1_555 1_555
W2_4 O14_4 1_555 1_555
W3_4 O18_4 1_555 1_555
W5_4 O6_4 1_555 1_555
W5_4 O23_4 1_555 1_555
W6_4 O20_4 1_555 1_555
W6_4 O24_4 1_555 1_555
W6_4 O26_4 1_555 1_555
W7_4 O19_4 1_555 1_555
W7_4 O29_4 1_555 1_555
W8_4 O9_4 1_555 1_555
W8_4 O27_4 1_555 1_555
W8_4 O30_4 1_555 1_555
W9_4 O16_4 1_555 1_555
W9_4 O31_4 1_555 1_555
W9_4 O32_4 1_555 1_555
W11_4 O25_4 1_555 1_555
W12_4 O28_4 1_555 1_555
W12_4 O33_4 1_555 1_555
W12_4 O36_4 1_555 1_555
W12_4 O37_4 1_555 1_555
C3_4 N4_4 1_555 1_555
C4_4 N3_4 1_555 1_555
C5_4 O38_4 1_555 1_555
C5_4 O39_4 1_555 1_555
C8_4 N2_4 1_555 1_555
C9_4 N1_4 1_555 1_555
C10_4 O50_4 1_555 1_555
O48_4 H17_4 1_555 1_555
O48_4 H18_4 1_555 1_555
O46_4 H19_4 1_555 1_555
O46_4 H20_4 1_555 1_555
O47_4 H21_4 1_555 1_555
O47_4 H22_4 1_555 1_555
O43_4 H23_4 1_555 1_555
O43_4 H24_2 1_555 1_555
O41_4 H25_4 1_555 1_555
O41_4 H26_4 1_555 1_555
O49_4 H27_4 1_555 1_555
O49_4 H28_4 1_555 1_555
O5_4 W4_4 1_555 1_555
W4_4 O21_4 1_555 1_555
H8 N5 1_555 1_555
H9 N5 1_555 1_555
H8_2 N5_2 1_555 1_555
H9_2 N5_2 1_555 1_555
H8_3 N5_3 1_555 1_555
H9_3 N5_3 1_555 1_555
H8_4 N5_4 1_555 1_555
H9_4 N5_4 1_555 1_555
N6 H11 1_555 1_555
H12 N6 1_555 1_555
H13 N6 1_555 1_555
H14 N6 1_555 1_555
N6_2 H11_2 1_555 1_555
H12_2 N6_2 1_555 1_555
H13_2 N6_2 1_555 1_555
H14_2 N6_2 1_555 1_555
N6_3 H11_3 1_555 1_555
H12_3 N6_3 1_555 1_555
H13_3 N6_3 1_555 1_555
H14_3 N6_3 1_555 1_555
N6_4 H11_4 1_555 1_555
H12_4 N6_4 1_555 1_555
H13_4 N6_4 1_555 1_555
H14_4 N6_4 1_555 1_555

#END
