
###############################################################################
#
# This file contains modified crystal structure data generated from the
# MOF subset of the Cambridge Structural Database (CSD) v543 
# hosted by the Cambridge Crystallographic Data Centre (CCDC).
#
# This work is licensed under the Creative Commons
# Attribution-NonCommercial-ShareAlike 4.0 International License.
# To view a copy of this license, visit
# http://creativecommons.org/licenses/by-nc-sa/4.0/
# or send a letter to
# Creative Commons, PO Box 1866, Mountain View, CA 94042, USA.
#
# CIF created using the CSD Python API on 29 September 2022
# The structure has been converted into the P1 space group
# The structure has a 3D framework
# The original CSD entry ZAZBUZ is in the triclinic crystal system
# The framework has been calculated to contain at least 10.0% void space
# The void calculation uses a probe of radius 1.32A, grid spacing 0.4
#
###############################################################################

data_ZAZBUZ
_chemical_formula_moiety         '(C16 H12 Cu4 O8)n'
_symmetry_cell_setting           triclinic
_symmetry_space_group_name_H-M   'P 1'
_symmetry_Int_Tables_number      1
_space_group_name_Hall           'P 1'
loop_
_symmetry_equiv_pos_site_id
_symmetry_equiv_pos_as_xyz
1 x,y,z
_cell_length_a                   6.605
_cell_length_b                   10.44780(10)
_cell_length_c                   11.0881(6)
_cell_angle_alpha                62.064(11)
_cell_angle_beta                 73.410(15)
_cell_angle_gamma                78.404(16)
_cell_volume                     645.814
loop_
_atom_site_label
_atom_site_type_symbol
_atom_site_fract_x
_atom_site_fract_y
_atom_site_fract_z
Cu1 Cu 0.0000 0.0000 0.5000
O4 O 0.0023(4) 0.0220(3) 0.3159(2)
O5 O 0.0189(4) 0.3081(3) 0.4595(4)
C8 C 0.1400(6) 0.0293(5) 0.0547(4)
H6 H 0.2362 0.0497 0.0917
Cu5 Cu 0.5000 -0.0000 0.5000
O6 O 0.3292(4) 0.0125(3) 0.6698(2)
C15 C 0.2063(6) 0.0277(5) 0.9244(4)
H11 H 0.3478 0.0465 0.8728
Cu1_2 Cu 0.0000 1.0000 0.5000
O9 O 0.2130(4) 0.8324(3) 0.5207(3)
Cu5_2 Cu 0.5000 1.0000 0.5000
C9 C 0.1363(5) 0.9961(4) 0.7289(3)
C12 C 0.0655(6) 0.9987(4) 0.8697(3)
Cu1_3 Cu 1.0000 0.0000 0.5000
O2 O 0.7870(4) 0.1676(3) 0.4793(3)
O3 O 0.3165(4) 0.1469(3) 0.3877(3)
H1 H 0.3093 0.1675 0.3051
H2 H 0.2621 0.2200 0.4035
C1 C 0.8637(5) 0.0039(4) 0.2711(3)
C2 C 0.8353(6) 0.2823(4) 0.4740(4)
C3 C 0.4486(6) 0.3629(4) 0.5337(4)
H3 H 0.4133 0.2690 0.5571
C4 C 0.9345(6) 0.0013(4) 0.1303(3)
C5 C 0.6598(6) 0.3946(4) 0.4868(4)
C6 C 0.7099(6) 0.5326(4) 0.4537(5)
H4 H 0.8538 0.5547 0.4224
C10 C 0.1647(6) 0.7177(4) 0.5260(4)
C11 C 0.5514(6) 0.6371(4) 0.4663(4)
H9 H 0.5867 0.7310 0.4429
C13 C 0.3402(6) 0.6054(4) 0.5132(4)
C14 C 0.2901(6) 0.4674(4) 0.5463(5)
H10 H 0.1462 0.4453 0.5776
Cu1_4 Cu 1.0000 1.0000 0.5000
O1 O 0.6708(4) 0.9875(3) 0.3302(2)
C7 C 0.7937(6) 0.9723(5) 0.0756(4)
H5 H 0.6522 0.9535 0.1272
O10 O 0.6835(4) 0.8531(3) 0.6123(3)
H7 H 0.6907 0.8325 0.6949
H8 H 0.7379 0.7800 0.5965
O12 O 0.9977(4) 0.9780(3) 0.6841(2)
C16 C 0.8600(6) 0.9707(5) 0.9453(4)
H12 H 0.7638 0.9503 0.9083
O13 O 0.9811(4) 0.6919(3) 0.5405(4)
loop_
_geom_bond_atom_site_label_1
_geom_bond_atom_site_label_2
_geom_bond_site_symmetry_1
_geom_bond_site_symmetry_2
O4 Cu1 1_555 1_555
H6 C8 1_555 1_555
Cu5 O6 1_555 1_555
H11 C15 1_555 1_555
O9 Cu1_2 1_555 1_555
C9 C12 1_555 1_555
Cu1_3 O2 1_555 1_555
O2 C2 1_555 1_555
O3 Cu5 1_555 1_555
H1 O3 1_555 1_555
H2 O3 1_555 1_555
C3 H3 1_555 1_555
C4 C1 1_555 1_555
C5 C2 1_555 1_555
C6 C5 1_555 1_555
H4 C6 1_555 1_555
O9 C10 1_555 1_555
C11 C6 1_555 1_555
H9 C11 1_555 1_555
C13 C10 1_555 1_555
C14 C3 1_555 1_555
H10 C14 1_555 1_555
C3 C5 1_555 1_555
C11 C13 1_555 1_555
C13 C14 1_555 1_555
Cu5_2 O1 1_555 1_555
H5 C7 1_555 1_555
O10 Cu5_2 1_555 1_555
H7 O10 1_555 1_555
H8 O10 1_555 1_555
O12 Cu1_4 1_555 1_555
H12 C16 1_555 1_555

#END
