
###############################################################################
#
# This file contains modified crystal structure data generated from the
# MOF subset of the Cambridge Structural Database (CSD) v543 
# hosted by the Cambridge Crystallographic Data Centre (CCDC).
#
# This work is licensed under the Creative Commons
# Attribution-NonCommercial-ShareAlike 4.0 International License.
# To view a copy of this license, visit
# http://creativecommons.org/licenses/by-nc-sa/4.0/
# or send a letter to
# Creative Commons, PO Box 1866, Mountain View, CA 94042, USA.
#
# CIF created using the CSD Python API on 29 September 2022
# The structure has been converted into the P1 space group
# The structure has a 3D framework
# The original CSD entry ZEBDOB is in the monoclinic crystal system
# The framework has been calculated to contain at least 10.0% void space
# The void calculation uses a probe of radius 1.32A, grid spacing 0.4
#
###############################################################################

data_ZEBDOB
_chemical_formula_moiety         '(C168 H120 Cd8 N16 O48)n'
_symmetry_cell_setting           triclinic
_symmetry_space_group_name_H-M   'P 1'
_symmetry_Int_Tables_number      1
_space_group_name_Hall           'P 1'
loop_
_symmetry_equiv_pos_site_id
_symmetry_equiv_pos_as_xyz
1 x,y,z
_cell_length_a                   22.275(5)
_cell_length_b                   9.1138(18)
_cell_length_c                   22.091(4)
_cell_angle_alpha                90
_cell_angle_beta                 105.39(3)
_cell_angle_gamma                90
_cell_volume                     4323.88
loop_
_atom_site_label
_atom_site_type_symbol
_atom_site_fract_x
_atom_site_fract_y
_atom_site_fract_z
Cd5 Cd 0.76978(3) 0.24513(6) 0.83832(2)
N3 N 0.7623(3) 0.0489(6) 0.9021(3)
C33 C 0.7324(3) 0.0599(8) 0.9458(3)
H23 H 0.7140 0.1492 0.9507
Cd1 Cd 0.73022(3) 0.25487(6) 0.16168(2)
O1 O 0.6498(3) 0.3992(6) 0.2094(3)
O2 O 0.6929(3) 0.1884(6) 0.2442(3)
O3 O 0.5586(3) 0.2702(6) 0.4579(3)
O4 O 0.6772(4) 0.6592(7) 0.3666(4)
O5 O 0.7334(3) 0.5106(7) 0.3278(3)
O6 O 0.7999(3) 0.3869(7) 0.2431(3)
H1 H 0.7944 0.4784 0.2363
H2 H 0.7928 0.3654 0.2780
N1 N 0.7377(3) 0.4511(6) 0.0979(3)
N2 N 0.6418(3) 0.1561(7) 0.0899(3)
C1 C 0.6603(4) 0.2990(10) 0.2487(4)
C2 C 0.6867(4) 0.5360(9) 0.3464(4)
C3 C 0.6321(4) 0.2993(8) 0.3036(4)
C4 C 0.6428(4) 0.4136(8) 0.3474(4)
C5 C 0.6153(4) 0.4074(9) 0.3977(4)
H3 H 0.6208 0.4843 0.4263
C6 C 0.5802(4) 0.2879(9) 0.4046(4)
C7 C 0.5705(5) 0.1749(11) 0.3619(5)
H4 H 0.5468 0.0939 0.3669
C8 C 0.5961(5) 0.1826(11) 0.3118(5)
H5 H 0.5888 0.1067 0.2826
C9 C 0.5298(4) 0.3901(9) 0.4775(4)
C10 C 0.4866(5) 0.4740(11) 0.4365(4)
H6 H 0.4777 0.4565 0.3936
C11 C 0.5438(4) 0.4147(10) 0.5408(4)
H7 H 0.5734 0.3573 0.5683
C12 C 0.7676(3) 0.4401(8) 0.0542(3)
H8 H 0.7860 0.3508 0.0493
C13 C 0.7729(4) 0.5546(8) 0.0151(3)
C14 C 0.7475(4) 0.6884(8) 0.0208(3)
C15 C 0.7168(3) 0.6993(8) 0.0673(3)
H10 H 0.6986 0.7877 0.0737
C16 C 0.7130(3) 0.5801(8) 0.1042(3)
H11 H 0.6921 0.5908 0.1352
C17 C 0.6115(4) 0.0515(10) 0.1137(4)
H12 H 0.6284 0.0208 0.1548
C19 C 0.5304(4) 0.0311(8) 0.0183(4)
C21 C 0.6169(4) 0.1950(9) 0.0304(4)
H15 H 0.6371 0.2659 0.0127
Cd2 Cd 0.26978(3) 0.74513(6) 0.83832(2)
Cd3 Cd 0.76978(3) 0.75487(6) 0.33832(2)
Cd4 Cd 0.23022(3) 0.24513(6) 0.66168(2)
O7 O 0.3502(3) 0.6008(6) 0.7906(3)
O8 O 0.3071(3) 0.8116(6) 0.7558(3)
O9 O 0.4414(3) 0.7298(6) 0.5421(3)
O10 O 0.3228(4) 0.3408(7) 0.6334(4)
O11 O 0.8228(4) 0.1592(7) 0.1334(4)
O12 O 0.1772(4) 0.8408(7) 0.8666(4)
O13 O 0.2666(3) 0.4894(7) 0.6722(3)
O14 O 0.7666(3) 0.0106(7) 0.1722(3)
O15 O 0.2334(3) 0.9894(7) 0.8278(3)
O16 O 0.2001(3) 0.6131(7) 0.7569(3)
H16 H 0.2056 0.5216 0.7637
H17 H 0.2072 0.6346 0.7220
N4 N 0.2623(3) 0.5489(6) 0.9021(3)
N6 N 0.3582(3) 0.8439(7) 0.9101(3)
C22 C 0.3397(4) 0.7010(10) 0.7513(4)
C23 C 0.3133(4) 0.4640(9) 0.6536(4)
C24 C 0.3679(4) 0.7007(8) 0.6964(4)
C25 C 0.3572(4) 0.5864(8) 0.6526(4)
C26 C 0.3847(4) 0.5926(9) 0.6023(4)
H18 H 0.3792 0.5157 0.5737
C27 C 0.4198(4) 0.7121(9) 0.5954(4)
C28 C 0.4295(5) 0.8251(11) 0.6381(5)
H19 H 0.4532 0.9061 0.6331
C29 C 0.4039(5) 0.8174(11) 0.6882(5)
H20 H 0.4112 0.8933 0.7174
C30 C 0.4702(4) 0.6099(9) 0.5225(4)
C31 C 0.5134(5) 0.5260(11) 0.5635(4)
H21 H 0.5223 0.5435 0.6064
C32 C 0.4562(4) 0.5853(10) 0.4592(4)
H22 H 0.4266 0.6427 0.4317
H24 H 0.7060 0.9595 0.0155
H9 H 0.7940 0.5405 0.9845
C20 C 0.5629(3) 0.1351(9) 0.9942(4)
H14 H 0.5477 0.1649 0.9526
C34 C 0.7271(4) 0.9454(8) 0.9849(3)
C35 C 0.7525(4) 0.8116(8) 0.9792(3)
C36 C 0.7832(3) 0.8007(8) 0.9327(3)
H25 H 0.8014 0.7123 0.9263
C37 C 0.7870(3) 0.9199(8) 0.8958(3)
H26 H 0.8079 0.9092 0.8648
C39 C 0.4428(4) 0.0107(10) 0.9198(4)
H28 H 0.4621 0.0817 0.9013
C18 C 0.5572(4) 0.9893(10) 0.0802(4)
H13 H 0.5379 0.9183 0.0987
C41 C 0.4371(3) 0.8649(9) 0.0058(4)
H29 H 0.4523 0.8351 0.0474
C38 C 0.3885(4) 0.9485(10) 0.8863(4)
H27 H 0.3716 0.9792 0.8452
C40 C 0.4696(4) 0.9689(8) 0.9817(4)
C42 C 0.3831(4) 0.8050(9) 0.9696(4)
H30 H 0.3629 0.7341 0.9873
N3_2 N 0.2377(3) 0.0489(6) 0.5979(3)
C33_2 C 0.2676(3) 0.0599(8) 0.5542(3)
H23_2 H 0.2860 0.1492 0.5493
Cd1_2 Cd 0.26978(3) 0.25487(6) 0.33832(2)
O1_2 O 0.3502(3) 0.3992(6) 0.2906(3)
O2_2 O 0.3071(3) 0.1884(6) 0.2558(3)
O3_2 O 0.4414(3) 0.2702(6) 0.0421(3)
O4_2 O 0.3228(4) 0.6592(7) 0.1334(4)
O5_2 O 0.2666(3) 0.5106(7) 0.1722(3)
O6_2 O 0.2001(3) 0.3869(7) 0.2569(3)
H1_2 H 0.2056 0.4784 0.2637
H2_2 H 0.2072 0.3654 0.2220
N1_2 N 0.2623(3) 0.4511(6) 0.4021(3)
N2_2 N 0.3582(3) 0.1561(7) 0.4101(3)
C1_2 C 0.3397(4) 0.2990(10) 0.2513(4)
C2_2 C 0.3133(4) 0.5360(9) 0.1536(4)
C3_2 C 0.3679(4) 0.2993(8) 0.1964(4)
C4_2 C 0.3572(4) 0.4136(8) 0.1526(4)
C5_2 C 0.3847(4) 0.4074(9) 0.1023(4)
H3_2 H 0.3792 0.4843 0.0737
C6_2 C 0.4198(4) 0.2879(9) 0.0954(4)
C7_2 C 0.4295(5) 0.1749(11) 0.1381(5)
H4_2 H 0.4532 0.0939 0.1331
C8_2 C 0.4039(5) 0.1826(11) 0.1882(5)
H5_2 H 0.4112 0.1067 0.2174
C9_2 C 0.4702(4) 0.3901(9) 0.0225(4)
C10_2 C 0.5134(5) 0.4740(11) 0.0635(4)
H6_2 H 0.5223 0.4565 0.1064
C12_2 C 0.2324(3) 0.4401(8) 0.4458(3)
H8_2 H 0.2140 0.3508 0.4507
C13_2 C 0.2271(4) 0.5546(8) 0.4849(3)
H9_2 H 0.2060 0.5405 0.5155
C14_2 C 0.2525(4) 0.6884(8) 0.4792(3)
C15_2 C 0.2832(3) 0.6993(8) 0.4327(3)
H10_2 H 0.3014 0.7877 0.4263
C16_2 C 0.2870(3) 0.5801(8) 0.3958(3)
H11_2 H 0.3079 0.5908 0.3648
C17_2 C 0.3885(4) 0.0515(10) 0.3863(4)
H12_2 H 0.3716 0.0208 0.3452
C19_2 C 0.4696(4) 0.0311(8) 0.4817(4)
C20_2 C 0.4371(3) 0.1351(9) 0.5058(4)
H14_2 H 0.4523 0.1649 0.5474
C21_2 C 0.3831(4) 0.1950(9) 0.4696(4)
H15_2 H 0.3629 0.2659 0.4873
Cd3_2 Cd 0.23022(3) 0.75487(6) 0.16168(2)
O11_2 O 0.1772(4) 0.1592(7) 0.3666(4)
O14_2 O 0.2334(3) 0.0106(7) 0.3278(3)
C32_2 C 0.5438(4) 0.5853(10) 0.0408(4)
H22_2 H 0.5734 0.6427 0.0683
C34_2 C 0.2729(4) 0.9454(8) 0.5151(3)
H24_2 H 0.2940 0.9595 0.4845
C35_2 C 0.2475(4) 0.8116(8) 0.5208(3)
C36_2 C 0.2168(3) 0.8007(8) 0.5673(3)
H25_2 H 0.1986 0.7123 0.5737
C37_2 C 0.2130(3) 0.9199(8) 0.6042(3)
H26_2 H 0.1921 0.9092 0.6352
C39_2 C 0.5572(4) 0.0107(10) 0.5802(4)
H28_2 H 0.5379 0.0817 0.5987
C11_2 C 0.4562(4) 0.4147(10) 0.9592(4)
H7_2 H 0.4266 0.3573 0.9317
Cd2_2 Cd 0.73022(3) 0.74513(6) 0.66168(2)
O7_2 O 0.6498(3) 0.6008(6) 0.7094(3)
O8_2 O 0.6929(3) 0.8116(6) 0.7442(3)
O9_2 O 0.5586(3) 0.7298(6) 0.9579(3)
O10_2 O 0.6772(4) 0.3408(7) 0.8666(4)
O12_2 O 0.8228(4) 0.8408(7) 0.6334(4)
O13_2 O 0.7334(3) 0.4894(7) 0.8278(3)
O15_2 O 0.7666(3) 0.9894(7) 0.6722(3)
O16_2 O 0.7999(3) 0.6131(7) 0.7431(3)
H16_2 H 0.7944 0.5216 0.7363
H17_2 H 0.7928 0.6346 0.7780
N4_2 N 0.7377(3) 0.5489(6) 0.5979(3)
N6_2 N 0.6418(3) 0.8439(7) 0.5899(3)
C22_2 C 0.6603(4) 0.7010(10) 0.7487(4)
C23_2 C 0.6867(4) 0.4640(9) 0.8464(4)
C24_2 C 0.6321(4) 0.7007(8) 0.8036(4)
C25_2 C 0.6428(4) 0.5864(8) 0.8474(4)
C26_2 C 0.6153(4) 0.5926(9) 0.8977(4)
H18_2 H 0.6208 0.5157 0.9263
C27_2 C 0.5802(4) 0.7121(9) 0.9046(4)
C28_2 C 0.5705(5) 0.8251(11) 0.8619(5)
H19_2 H 0.5468 0.9061 0.8669
C29_2 C 0.5961(5) 0.8174(11) 0.8118(5)
H20_2 H 0.5888 0.8933 0.7826
C30_2 C 0.5298(4) 0.6099(9) 0.9775(4)
C31_2 C 0.4866(5) 0.5260(11) 0.9365(4)
H21_2 H 0.4777 0.5435 0.8936
C18_2 C 0.4428(4) 0.9893(10) 0.4198(4)
H13_2 H 0.4621 0.9183 0.4013
C38_2 C 0.6115(4) 0.9485(10) 0.6137(4)
H27_2 H 0.6284 0.9792 0.6548
C40_2 C 0.5304(4) 0.9689(8) 0.5183(4)
C41_2 C 0.5629(3) 0.8649(9) 0.4942(4)
H29_2 H 0.5477 0.8351 0.4526
C42_2 C 0.6169(4) 0.8050(9) 0.5304(4)
H30_2 H 0.6371 0.7341 0.5127
C2_3 C 0.1867(4) 0.0360(9) 0.3464(4)
C13_3 C 0.2729(4) 0.0546(8) 0.0151(3)
C14_3 C 0.2475(4) 0.1884(8) 0.0208(3)
C15_3 C 0.2168(3) 0.1993(8) 0.0673(3)
H10_3 H 0.1986 0.2877 0.0737
C16_3 C 0.2130(3) 0.0801(8) 0.1042(3)
H11_3 H 0.1921 0.0908 0.1352
C31_3 C 0.0134(5) 0.0260(11) 0.5635(4)
H21_3 H 0.0223 0.0435 0.6064
H24_3 H 0.2060 0.4595 0.0155
H9_3 H 0.2940 0.0405 0.9845
C33_3 C 0.2324(3) 0.5599(8) 0.9458(3)
H23_3 H 0.2140 0.6492 0.9507
C34_3 C 0.2271(4) 0.4454(8) 0.9849(3)
C35_3 C 0.2525(4) 0.3116(8) 0.9792(3)
C36_3 C 0.2832(3) 0.3007(8) 0.9327(3)
H25_3 H 0.3014 0.2123 0.9263
C37_3 C 0.2870(3) 0.4199(8) 0.8958(3)
H26_3 H 0.3079 0.4092 0.8648
O1_3 O 0.1498(3) 0.8992(6) 0.2094(3)
O2_3 O 0.1929(3) 0.6884(6) 0.2442(3)
O3_3 O 0.0586(3) 0.7702(6) 0.4579(3)
O6_3 O 0.2999(3) 0.8869(7) 0.2431(3)
H1_3 H 0.2944 0.9784 0.2363
H2_3 H 0.2928 0.8654 0.2780
N1_3 N 0.2377(3) 0.9511(6) 0.0979(3)
N2_3 N 0.1418(3) 0.6561(7) 0.0899(3)
C1_3 C 0.1603(4) 0.7990(10) 0.2487(4)
C3_3 C 0.1321(4) 0.7993(8) 0.3036(4)
C4_3 C 0.1428(4) 0.9136(8) 0.3474(4)
C5_3 C 0.1153(4) 0.9074(9) 0.3977(4)
H3_3 H 0.1208 0.9843 0.4263
C6_3 C 0.0802(4) 0.7879(9) 0.4046(4)
C7_3 C 0.0705(5) 0.6749(11) 0.3619(5)
H4_3 H 0.0468 0.5939 0.3669
C8_3 C 0.0961(5) 0.6826(11) 0.3118(5)
H5_3 H 0.0888 0.6067 0.2826
C9_3 C 0.0298(4) 0.8901(9) 0.4775(4)
C11_3 C 0.0438(4) 0.9147(10) 0.5408(4)
H7_3 H 0.0734 0.8573 0.5683
C12_3 C 0.2676(3) 0.9401(8) 0.0542(3)
H8_3 H 0.2860 0.8508 0.0493
C17_3 C 0.1115(4) 0.5515(10) 0.1137(4)
H12_3 H 0.1284 0.5208 0.1548
C18_3 C 0.0572(4) 0.4893(10) 0.0802(4)
H13_3 H 0.0379 0.4183 0.0987
C19_3 C 0.0304(4) 0.5311(8) 0.0183(4)
C21_3 C 0.1169(4) 0.6950(9) 0.0304(4)
H15_3 H 0.1371 0.7659 0.0127
C20_3 C 0.0629(3) 0.6351(9) 0.9942(4)
H14_3 H 0.0477 0.6649 0.9526
O7_3 O 0.8502(3) 0.1008(6) 0.7906(3)
O8_3 O 0.8071(3) 0.3116(6) 0.7558(3)
O9_3 O 0.9414(3) 0.2298(6) 0.5421(3)
O16_3 O 0.7001(3) 0.1131(7) 0.7569(3)
H16_3 H 0.7056 0.0216 0.7637
H17_3 H 0.7072 0.1346 0.7220
N6_3 N 0.8582(3) 0.3439(7) 0.9101(3)
C22_3 C 0.8397(4) 0.2010(10) 0.7513(4)
C24_3 C 0.8679(4) 0.2007(8) 0.6964(4)
C25_3 C 0.8572(4) 0.0864(8) 0.6526(4)
C26_3 C 0.8847(4) 0.0926(9) 0.6023(4)
H18_3 H 0.8792 0.0157 0.5737
C27_3 C 0.9198(4) 0.2121(9) 0.5954(4)
C28_3 C 0.9295(5) 0.3251(11) 0.6381(5)
H19_3 H 0.9532 0.4061 0.6331
C29_3 C 0.9039(5) 0.3174(11) 0.6882(5)
H20_3 H 0.9112 0.3933 0.7174
C30_3 C 0.9702(4) 0.1099(9) 0.5225(4)
C32_3 C 0.9562(4) 0.0853(10) 0.4592(4)
H22_3 H 0.9266 0.1427 0.4317
C10_3 C 0.9866(5) 0.9740(11) 0.4365(4)
H6_3 H 0.9777 0.9565 0.3936
C23_3 C 0.8133(4) 0.9640(9) 0.6536(4)
C41_3 C 0.9371(3) 0.3649(9) 0.0058(4)
H29_3 H 0.9523 0.3351 0.0474
C38_3 C 0.8885(4) 0.4485(10) 0.8863(4)
H27_3 H 0.8716 0.4792 0.8452
C39_3 C 0.9428(4) 0.5107(10) 0.9198(4)
H28_3 H 0.9621 0.5817 0.9013
C40_3 C 0.9696(4) 0.4689(8) 0.9817(4)
C42_3 C 0.8831(4) 0.3050(9) 0.9696(4)
H30_3 H 0.8629 0.2341 0.9873
O7_4 O 0.1498(3) 0.1008(6) 0.7094(3)
O8_4 O 0.1929(3) 0.3116(6) 0.7442(3)
O9_4 O 0.0586(3) 0.2298(6) 0.9579(3)
O16_4 O 0.2999(3) 0.1131(7) 0.7431(3)
H16_4 H 0.2944 0.0216 0.7363
H17_4 H 0.2928 0.1346 0.7780
N6_4 N 0.1418(3) 0.3439(7) 0.5899(3)
C22_4 C 0.1603(4) 0.2010(10) 0.7487(4)
C24_4 C 0.1321(4) 0.2007(8) 0.8036(4)
C25_4 C 0.1428(4) 0.0864(8) 0.8474(4)
C26_4 C 0.1153(4) 0.0926(9) 0.8977(4)
H18_4 H 0.1208 0.0157 0.9263
C27_4 C 0.0802(4) 0.2121(9) 0.9046(4)
C28_4 C 0.0705(5) 0.3251(11) 0.8619(5)
H19_4 H 0.0468 0.4061 0.8669
C29_4 C 0.0961(5) 0.3174(11) 0.8118(5)
H20_4 H 0.0888 0.3933 0.7826
C30_4 C 0.0298(4) 0.1099(9) 0.9775(4)
C10_4 C 0.0134(5) 0.9740(11) 0.0635(4)
H6_4 H 0.0223 0.9565 0.1064
C38_4 C 0.1115(4) 0.4485(10) 0.6137(4)
H27_4 H 0.1284 0.4792 0.6548
C39_4 C 0.0572(4) 0.5107(10) 0.5802(4)
H28_4 H 0.0379 0.5817 0.5987
C40_4 C 0.0304(4) 0.4689(8) 0.5183(4)
C41_4 C 0.0629(3) 0.3649(9) 0.4942(4)
H29_4 H 0.0477 0.3351 0.4526
C42_4 C 0.1169(4) 0.3050(9) 0.5304(4)
H30_4 H 0.1371 0.2341 0.5127
C23_4 C 0.1867(4) 0.9640(9) 0.8464(4)
C2_4 C 0.8133(4) 0.0360(9) 0.1536(4)
C13_4 C 0.7271(4) 0.0546(8) 0.4849(3)
H9_4 H 0.7060 0.0405 0.5155
C14_4 C 0.7525(4) 0.1884(8) 0.4792(3)
C15_4 C 0.7832(3) 0.1993(8) 0.4327(3)
H10_4 H 0.8014 0.2877 0.4263
C16_4 C 0.7870(3) 0.0801(8) 0.3958(3)
H11_4 H 0.8079 0.0908 0.3648
C33_4 C 0.7676(3) 0.5599(8) 0.5542(3)
H23_4 H 0.7860 0.6492 0.5493
C34_4 C 0.7729(4) 0.4454(8) 0.5151(3)
H24_4 H 0.7940 0.4595 0.4845
C35_4 C 0.7475(4) 0.3116(8) 0.5208(3)
C36_4 C 0.7168(3) 0.3007(8) 0.5673(3)
H25_4 H 0.6986 0.2123 0.5737
C37_4 C 0.7130(3) 0.4199(8) 0.6042(3)
H26_4 H 0.6921 0.4092 0.6352
C31_4 C 0.9866(5) 0.0260(11) 0.9365(4)
H21_4 H 0.9777 0.0435 0.8936
O1_4 O 0.8502(3) 0.8992(6) 0.2906(3)
O2_4 O 0.8071(3) 0.6884(6) 0.2558(3)
O3_4 O 0.9414(3) 0.7702(6) 0.0421(3)
O6_4 O 0.7001(3) 0.8869(7) 0.2569(3)
H1_4 H 0.7056 0.9784 0.2637
H2_4 H 0.7072 0.8654 0.2220
N1_4 N 0.7623(3) 0.9511(6) 0.4021(3)
N2_4 N 0.8582(3) 0.6561(7) 0.4101(3)
C1_4 C 0.8397(4) 0.7990(10) 0.2513(4)
C3_4 C 0.8679(4) 0.7993(8) 0.1964(4)
C4_4 C 0.8572(4) 0.9136(8) 0.1526(4)
C5_4 C 0.8847(4) 0.9074(9) 0.1023(4)
H3_4 H 0.8792 0.9843 0.0737
C6_4 C 0.9198(4) 0.7879(9) 0.0954(4)
C7_4 C 0.9295(5) 0.6749(11) 0.1381(5)
H4_4 H 0.9532 0.5939 0.1331
C8_4 C 0.9039(5) 0.6826(11) 0.1882(5)
H5_4 H 0.9112 0.6067 0.2174
C9_4 C 0.9702(4) 0.8901(9) 0.0225(4)
C12_4 C 0.7324(3) 0.9401(8) 0.4458(3)
H8_4 H 0.7140 0.8508 0.4507
C17_4 C 0.8885(4) 0.5515(10) 0.3863(4)
H12_4 H 0.8716 0.5208 0.3452
C18_4 C 0.9428(4) 0.4893(10) 0.4198(4)
H13_4 H 0.9621 0.4183 0.4013
C19_4 C 0.9696(4) 0.5311(8) 0.4817(4)
C20_4 C 0.9371(3) 0.6351(9) 0.5058(4)
H14_4 H 0.9523 0.6649 0.5474
C21_4 C 0.8831(4) 0.6950(9) 0.4696(4)
H15_4 H 0.8629 0.7659 0.4873
C32_4 C 0.0438(4) 0.0853(10) 0.0408(4)
H22_4 H 0.0734 0.1427 0.0683
C11_4 C 0.9562(4) 0.9147(10) 0.9592(4)
H7_4 H 0.9266 0.8573 0.9317
loop_
_geom_bond_atom_site_label_1
_geom_bond_atom_site_label_2
_geom_bond_site_symmetry_1
_geom_bond_site_symmetry_2
Cd5 N3 1_555 1_555
N3 C33 1_555 1_555
C33 H23 1_555 1_555
Cd1 O1 1_555 1_555
O1 C1 1_555 1_555
O2 Cd1 1_555 1_555
O3 C6 1_555 1_555
O4 C2 1_555 1_555
O5 C2 1_555 1_555
O6 Cd1 1_555 1_555
H1 O6 1_555 1_555
H2 O6 1_555 1_555
N1 Cd1 1_555 1_555
N2 Cd1 1_555 1_555
C1 O2 1_555 1_555
C2 C4 1_555 1_555
C3 C1 1_555 1_555
C4 C3 1_555 1_555
C5 C4 1_555 1_555
H3 C5 1_555 1_555
C6 C5 1_555 1_555
C7 C6 1_555 1_555
H4 C7 1_555 1_555
C8 C3 1_555 1_555
H5 C8 1_555 1_555
C9 O3 1_555 1_555
C10 C9 1_555 1_555
H6 C10 1_555 1_555
C11 C9 1_555 1_555
H7 C11 1_555 1_555
C12 N1 1_555 1_555
H8 C12 1_555 1_555
C13 C12 1_555 1_555
C14 C13 1_555 1_555
C15 C14 1_555 1_555
H10 C15 1_555 1_555
C16 N1 1_555 1_555
H11 C16 1_555 1_555
C17 N2 1_555 1_555
H12 C17 1_555 1_555
C21 N2 1_555 1_555
H15 C21 1_555 1_555
Cd2 O7 1_555 1_555
Cd3 O4 1_555 1_555
Cd4 O10 1_555 1_555
O7 C22 1_555 1_555
O8 Cd2 1_555 1_555
O9 C27 1_555 1_555
O10 C23 1_555 1_555
O11 Cd1 1_555 1_555
O12 Cd2 1_555 1_555
O13 Cd4 1_555 1_555
O14 Cd1 1_555 1_555
O15 Cd2 1_555 1_555
O16 Cd2 1_555 1_555
H16 O16 1_555 1_555
H17 O16 1_555 1_555
N4 Cd2 1_555 1_555
N6 Cd2 1_555 1_555
C22 O8 1_555 1_555
C23 O13 1_555 1_555
C24 C22 1_555 1_555
C25 C23 1_555 1_555
C26 C25 1_555 1_555
H18 C26 1_555 1_555
C27 C26 1_555 1_555
C28 C27 1_555 1_555
H19 C28 1_555 1_555
C29 C24 1_555 1_555
H20 C29 1_555 1_555
C30 O9 1_555 1_555
C31 C11 1_555 1_555
H21 C31 1_555 1_555
C32 C10 1_555 1_555
H22 C32 1_555 1_555
O5 Cd3 1_555 1_555
C7 C8 1_555 1_555
C15 C16 1_555 1_555
C24 C25 1_555 1_555
C28 C29 1_555 1_555
C30 C31 1_555 1_555
C30 C32 1_555 1_555
H14 C20 1_555 1_555
C36 C35 1_555 1_555
H25 C36 1_555 1_555
H26 C37 1_555 1_555
H28 C39 1_555 1_555
C34 C35 1_555 1_555
C36 C37 1_555 1_555
H13 C18 1_555 1_555
H29 C41 1_555 1_555
N6 C38 1_555 1_555
C38 H27 1_555 1_555
C42 N6 1_555 1_555
H30 C42 1_555 1_555
Cd4 N3_2 1_555 1_555
N3_2 C33_2 1_555 1_555
C33_2 H23_2 1_555 1_555
Cd1_2 O1_2 1_555 1_555
O1_2 C1_2 1_555 1_555
O2_2 Cd1_2 1_555 1_555
O3_2 C6_2 1_555 1_555
O4_2 C2_2 1_555 1_555
O5_2 C2_2 1_555 1_555
O6_2 Cd1_2 1_555 1_555
H1_2 O6_2 1_555 1_555
H2_2 O6_2 1_555 1_555
N1_2 Cd1_2 1_555 1_555
N2_2 Cd1_2 1_555 1_555
C1_2 O2_2 1_555 1_555
C2_2 C4_2 1_555 1_555
C3_2 C1_2 1_555 1_555
C4_2 C3_2 1_555 1_555
C5_2 C4_2 1_555 1_555
H3_2 C5_2 1_555 1_555
C6_2 C5_2 1_555 1_555
C7_2 C6_2 1_555 1_555
H4_2 C7_2 1_555 1_555
C8_2 C3_2 1_555 1_555
H5_2 C8_2 1_555 1_555
C9_2 O3_2 1_555 1_555
C10_2 C9_2 1_555 1_555
H6_2 C10_2 1_555 1_555
C12_2 N1_2 1_555 1_555
H8_2 C12_2 1_555 1_555
C13_2 C12_2 1_555 1_555
H9_2 C13_2 1_555 1_555
C14_2 C13_2 1_555 1_555
C15_2 C14_2 1_555 1_555
H10_2 C15_2 1_555 1_555
C16_2 N1_2 1_555 1_555
H11_2 C16_2 1_555 1_555
C17_2 N2_2 1_555 1_555
H12_2 C17_2 1_555 1_555
C20_2 C19_2 1_555 1_555
H14_2 C20_2 1_555 1_555
C21_2 N2_2 1_555 1_555
H15_2 C21_2 1_555 1_555
Cd3_2 O4_2 1_555 1_555
O11_2 Cd1_2 1_555 1_555
O14_2 Cd1_2 1_555 1_555
C32_2 C10_2 1_555 1_555
H22_2 C32_2 1_555 1_555
H24_2 C34_2 1_555 1_555
C35_2 C14_2 1_555 1_555
C36_2 C35_2 1_555 1_555
H25_2 C36_2 1_555 1_555
H26_2 C37_2 1_555 1_555
H28_2 C39_2 1_555 1_555
O5_2 Cd3_2 1_555 1_555
C7_2 C8_2 1_555 1_555
C15_2 C16_2 1_555 1_555
C20_2 C21_2 1_555 1_555
C34_2 C35_2 1_555 1_555
C36_2 C37_2 1_555 1_555
H7_2 C11_2 1_555 1_555
Cd2_2 O7_2 1_555 1_555
Cd5 O10_2 1_555 1_555
O7_2 C22_2 1_555 1_555
O8_2 Cd2_2 1_555 1_555
O9_2 C27_2 1_555 1_555
O10_2 C23_2 1_555 1_555
O12_2 Cd2_2 1_555 1_555
O13_2 Cd5 1_555 1_555
O15_2 Cd2_2 1_555 1_555
O16_2 Cd2_2 1_555 1_555
H16_2 O16_2 1_555 1_555
H17_2 O16_2 1_555 1_555
N4_2 Cd2_2 1_555 1_555
N6_2 Cd2_2 1_555 1_555
C22_2 O8_2 1_555 1_555
C23_2 O13_2 1_555 1_555
C24_2 C22_2 1_555 1_555
C25_2 C23_2 1_555 1_555
C26_2 C25_2 1_555 1_555
H18_2 C26_2 1_555 1_555
C27_2 C26_2 1_555 1_555
C28_2 C27_2 1_555 1_555
H19_2 C28_2 1_555 1_555
C29_2 C24_2 1_555 1_555
H20_2 C29_2 1_555 1_555
C30_2 O9_2 1_555 1_555
C31_2 C11_2 1_555 1_555
H21_2 C31_2 1_555 1_555
C24_2 C25_2 1_555 1_555
C28_2 C29_2 1_555 1_555
C30_2 C31_2 1_555 1_555
H13_2 C18_2 1_555 1_555
N6_2 C38_2 1_555 1_555
C38_2 H27_2 1_555 1_555
C41_2 C40_2 1_555 1_555
H29_2 C41_2 1_555 1_555
C42_2 N6_2 1_555 1_555
H30_2 C42_2 1_555 1_555
C41_2 C42_2 1_555 1_555
O11_2 C2_3 1_555 1_555
O14_2 C2_3 1_555 1_555
C14_3 C13_3 1_555 1_555
C15_3 C14_3 1_555 1_555
H10_3 C15_3 1_555 1_555
H11_3 C16_3 1_555 1_555
H21_3 C31_3 1_555 1_555
C15_3 C16_3 1_555 1_555
N4 C33_3 1_555 1_555
C33_3 H23_3 1_555 1_555
C34_3 C33_3 1_555 1_555
C36_3 C35_3 1_555 1_555
H25_3 C36_3 1_555 1_555
C37_3 N4 1_555 1_555
H26_3 C37_3 1_555 1_555
C34_3 C35_3 1_555 1_555
C36_3 C37_3 1_555 1_555
Cd3_2 O1_3 1_555 1_555
O1_3 C1_3 1_555 1_555
O2_3 Cd3_2 1_555 1_555
O3_3 C6_3 1_555 1_555
O6_3 Cd3_2 1_555 1_555
H1_3 O6_3 1_555 1_555
H2_3 O6_3 1_555 1_555
N1_3 Cd3_2 1_555 1_555
N2_3 Cd3_2 1_555 1_555
C1_3 O2_3 1_555 1_555
C3_3 C1_3 1_555 1_555
C4_3 C3_3 1_555 1_555
C5_3 C4_3 1_555 1_555
H3_3 C5_3 1_555 1_555
C6_3 C5_3 1_555 1_555
C7_3 C6_3 1_555 1_555
H4_3 C7_3 1_555 1_555
C8_3 C3_3 1_555 1_555
H5_3 C8_3 1_555 1_555
C9_3 O3_3 1_555 1_555
C11_3 C9_3 1_555 1_555
H7_3 C11_3 1_555 1_555
C12_3 N1_3 1_555 1_555
H8_3 C12_3 1_555 1_555
C17_3 N2_3 1_555 1_555
H12_3 C17_3 1_555 1_555
C18_3 C17_3 1_555 1_555
H13_3 C18_3 1_555 1_555
C19_3 C18_3 1_555 1_555
C21_3 N2_3 1_555 1_555
H15_3 C21_3 1_555 1_555
C7_3 C8_3 1_555 1_555
H14_3 C20_3 1_555 1_555
Cd5 O7_3 1_555 1_555
O7_3 C22_3 1_555 1_555
O8_3 Cd5 1_555 1_555
O9_3 C27_3 1_555 1_555
O16_3 Cd5 1_555 1_555
H16_3 O16_3 1_555 1_555
H17_3 O16_3 1_555 1_555
N6_3 Cd5 1_555 1_555
C22_3 O8_3 1_555 1_555
C24_3 C22_3 1_555 1_555
C26_3 C25_3 1_555 1_555
H18_3 C26_3 1_555 1_555
C27_3 C26_3 1_555 1_555
C28_3 C27_3 1_555 1_555
H19_3 C28_3 1_555 1_555
C29_3 C24_3 1_555 1_555
H20_3 C29_3 1_555 1_555
C30_3 O9_3 1_555 1_555
H22_3 C32_3 1_555 1_555
C24_3 C25_3 1_555 1_555
C28_3 C29_3 1_555 1_555
C30_3 C32_3 1_555 1_555
H6_3 C10_3 1_555 1_555
O12_2 C23_3 1_555 1_555
C23_3 O15_2 1_555 1_555
H29_3 C41_3 1_555 1_555
N6_3 C38_3 1_555 1_555
C38_3 H27_3 1_555 1_555
C39_3 C38_3 1_555 1_555
H28_3 C39_3 1_555 1_555
C42_3 N6_3 1_555 1_555
H30_3 C42_3 1_555 1_555
C39_3 C40_3 1_555 1_555
Cd4 O7_4 1_555 1_555
O7_4 C22_4 1_555 1_555
O8_4 Cd4 1_555 1_555
O9_4 C27_4 1_555 1_555
O16_4 Cd4 1_555 1_555
H16_4 O16_4 1_555 1_555
H17_4 O16_4 1_555 1_555
N6_4 Cd4 1_555 1_555
C22_4 O8_4 1_555 1_555
C24_4 C22_4 1_555 1_555
C26_4 C25_4 1_555 1_555
H18_4 C26_4 1_555 1_555
C27_4 C26_4 1_555 1_555
C28_4 C27_4 1_555 1_555
H19_4 C28_4 1_555 1_555
C29_4 C24_4 1_555 1_555
H20_4 C29_4 1_555 1_555
C30_4 O9_4 1_555 1_555
C24_4 C25_4 1_555 1_555
C28_4 C29_4 1_555 1_555
H6_4 C10_4 1_555 1_555
N6_4 C38_4 1_555 1_555
C38_4 H27_4 1_555 1_555
C39_4 C38_4 1_555 1_555
H28_4 C39_4 1_555 1_555
C41_4 C40_4 1_555 1_555
H29_4 C41_4 1_555 1_555
C42_4 N6_4 1_555 1_555
H30_4 C42_4 1_555 1_555
C39_4 C40_4 1_555 1_555
C41_4 C42_4 1_555 1_555
O12 C23_4 1_555 1_555
C23_4 O15 1_555 1_555
O11 C2_4 1_555 1_555
O14 C2_4 1_555 1_555
H9_4 C13_4 1_555 1_555
C14_4 C13_4 1_555 1_555
C15_4 C14_4 1_555 1_555
H10_4 C15_4 1_555 1_555
H11_4 C16_4 1_555 1_555
N4_2 C33_4 1_555 1_555
C33_4 H23_4 1_555 1_555
C34_4 C33_4 1_555 1_555
H24_4 C34_4 1_555 1_555
C35_4 C14_4 1_555 1_555
C36_4 C35_4 1_555 1_555
H25_4 C36_4 1_555 1_555
C37_4 N4_2 1_555 1_555
H26_4 C37_4 1_555 1_555
C15_4 C16_4 1_555 1_555
C34_4 C35_4 1_555 1_555
C36_4 C37_4 1_555 1_555
H21_4 C31_4 1_555 1_555
Cd3 O1_4 1_555 1_555
O1_4 C1_4 1_555 1_555
O2_4 Cd3 1_555 1_555
O3_4 C6_4 1_555 1_555
O6_4 Cd3 1_555 1_555
H1_4 O6_4 1_555 1_555
H2_4 O6_4 1_555 1_555
N1_4 Cd3 1_555 1_555
N2_4 Cd3 1_555 1_555
C1_4 O2_4 1_555 1_555
C3_4 C1_4 1_555 1_555
C4_4 C3_4 1_555 1_555
C5_4 C4_4 1_555 1_555
H3_4 C5_4 1_555 1_555
C6_4 C5_4 1_555 1_555
C7_4 C6_4 1_555 1_555
H4_4 C7_4 1_555 1_555
C8_4 C3_4 1_555 1_555
H5_4 C8_4 1_555 1_555
C9_4 O3_4 1_555 1_555
C12_4 N1_4 1_555 1_555
H8_4 C12_4 1_555 1_555
C17_4 N2_4 1_555 1_555
H12_4 C17_4 1_555 1_555
C18_4 C17_4 1_555 1_555
H13_4 C18_4 1_555 1_555
C19_4 C18_4 1_555 1_555
C20_4 C19_4 1_555 1_555
H14_4 C20_4 1_555 1_555
C21_4 N2_4 1_555 1_555
H15_4 C21_4 1_555 1_555
C7_4 C8_4 1_555 1_555
C20_4 C21_4 1_555 1_555
H22_4 C32_4 1_555 1_555
H7_4 C11_4 1_555 1_555

#END
