
###############################################################################
#
# This file contains modified crystal structure data generated from the
# MOF subset of the Cambridge Structural Database (CSD) v543 
# hosted by the Cambridge Crystallographic Data Centre (CCDC).
#
# This work is licensed under the Creative Commons
# Attribution-NonCommercial-ShareAlike 4.0 International License.
# To view a copy of this license, visit
# http://creativecommons.org/licenses/by-nc-sa/4.0/
# or send a letter to
# Creative Commons, PO Box 1866, Mountain View, CA 94042, USA.
#
# CIF created using the CSD Python API on 29 September 2022
# The structure has been converted into the P1 space group
# The structure has a 3D framework
# The original CSD entry ZEBMAW is in the monoclinic crystal system
# The framework has been calculated to contain at least 10.0% void space
# The void calculation uses a probe of radius 1.32A, grid spacing 0.4
# H atom positions have been added when not included in the experimental data
#
###############################################################################

data_ZEBMAW
_chemical_formula_moiety         '(C224 H152 Ce8 O72 Si8)n'
_symmetry_cell_setting           triclinic
_symmetry_space_group_name_H-M   'P 1'
_symmetry_Int_Tables_number      1
_space_group_name_Hall           'P 1'
loop_
_symmetry_equiv_pos_site_id
_symmetry_equiv_pos_as_xyz
1 x,y,z
_cell_length_a                   24.2895(4)
_cell_length_b                   15.9697(3)
_cell_length_c                   21.9356(5)
_cell_angle_alpha                90
_cell_angle_beta                 99.271(2)
_cell_angle_gamma                90
_cell_volume                     8397.59
loop_
_atom_site_label
_atom_site_type_symbol
_atom_site_fract_x
_atom_site_fract_y
_atom_site_fract_z
C2 C 0.31631(15) 0.0551(2) 0.62103(15)
C3 C 0.29942(15) 0.0590(3) 0.55823(17)
H1 H 0.2754 0.0184 0.5385
C4 C 0.31805(14) 0.1232(2) 0.52406(16)
H2 H 0.3059 0.1252 0.4817
C5 C 0.35399(13) 0.1841(2) 0.55118(14)
C6 C 0.3697(2) 0.1791(3) 0.61488(18)
H3 H 0.3937 0.2194 0.6350
C7 C 0.3509(2) 0.1166(3) 0.64877(17)
H4 H 0.3618 0.1158 0.6914
C8 C 0.45839(12) 0.2723(2) 0.52754(14)
C9 C 0.48965(14) 0.2002(2) 0.52092(17)
H5 H 0.4715 0.1518 0.5049
C10 C 0.54668(14) 0.1994(2) 0.53762(17)
H6 H 0.5667 0.1511 0.5321
C11 C 0.57458(12) 0.2704(2) 0.56274(14)
C12 C 0.63676(12) 0.2708(2) 0.58029(14)
C13 C 0.54463(13) 0.3418(2) 0.57057(17)
H7 H 0.5629 0.3896 0.5877
C14 C 0.48689(13) 0.3422(2) 0.55270(17)
H8 H 0.4670 0.3908 0.5578
C15 C 0.28995(12) 0.6187(2) 0.55913(14)
C16 C 0.30091(13) 0.2283(2) 0.22556(15)
C17 C 0.32142(13) 0.2357(2) 0.29327(14)
C18 C 0.28410(13) 0.2553(2) 0.33315(15)
H9 H 0.2464 0.2618 0.3175
C19 C 0.30244(13) 0.2652(2) 0.39560(15)
H10 H 0.2771 0.2803 0.4213
C20 C 0.35842(12) 0.2529(2) 0.42100(14)
C21 C 0.39517(13) 0.2324(3) 0.38068(16)
H11 H 0.4327 0.2243 0.3962
C22 C 0.37666(14) 0.2239(3) 0.31762(16)
H12 H 0.4019 0.2100 0.2916
C23 C 0.35206(11) 0.3743(2) 0.52429(13)
C24 C 0.32282(15) 0.3882(2) 0.57316(16)
H13 H 0.3163 0.3437 0.5984
C25 C 0.30333(15) 0.4670(2) 0.58472(16)
H14 H 0.2847 0.4753 0.6181
C26 C 0.31151(12) 0.53390(19) 0.54664(14)
C27 C 0.34046(13) 0.5208(2) 0.49773(15)
H15 H 0.3462 0.5650 0.4719
C28 C 0.36051(13) 0.4426(2) 0.48766(16)
H16 H 0.3804 0.4351 0.4553
H17 H 0.3253 0.0299 0.7255
O3 O 0.65997(8) 0.33374(14) 0.60800(10)
O4 O 0.66513(9) 0.20930(14) 0.56580(10)
O5 O 0.28360(11) 0.63714(16) 0.61277(11)
O6 O 0.33553(9) 0.21544(17) 0.18915(11)
O7 O 0.24941(9) 0.23561(17) 0.20542(10)
O9 O 0.27939(9) 0.67204(14) 0.51493(10)
Si1 Si 0.38069(3) 0.26999(5) 0.50609(4)
Ce2 Ce 0.758044(6) 0.290109(11) 0.595730(7)
Ce3 Ce 0.258044(6) 0.790109(11) 0.595730(7)
Ce4 Ce 0.258044(6) 0.209891(11) 0.095730(7)
Ce5 Ce 0.241956(6) 0.709891(11) 0.404270(7)
C1 C 0.29457(19) 0.9878(3) 0.65864(18)
O1 O 0.3058(2) 0.9891(3) 0.71458(16)
O2 O 0.26270(10) 0.93296(16) 0.62962(12)
O8 O 0.34230(10) 0.83679(19) 0.55405(12)
O10 O 0.15997(8) 0.83374(14) 0.60800(10)
O11 O 0.16513(9) 0.70930(14) 0.56580(10)
O13 O 0.33553(9) 0.78456(17) 0.68915(11)
O14 O 0.24941(9) 0.76439(17) 0.70542(10)
O16 O 0.22061(9) 0.82796(14) 0.48507(10)
H18 H 0.371138 0.855927 0.588553
H19 H 0.357203 0.789419 0.532324
H2_2 H 0.6941 0.1252 0.0183
C16_2 C 0.69909(13) 0.2283(2) 0.27444(15)
C17_2 C 0.67858(13) 0.2357(2) 0.20673(14)
C18_2 C 0.71590(13) 0.2553(2) 0.16685(15)
H9_2 H 0.7536 0.2618 0.1825
C19_2 C 0.69756(13) 0.2652(2) 0.10440(15)
H10_2 H 0.7229 0.2803 0.0787
C20_2 C 0.64158(12) 0.2529(2) 0.07900(14)
C21_2 C 0.60483(13) 0.2324(3) 0.11932(16)
H11_2 H 0.5673 0.2243 0.1038
C22_2 C 0.62334(14) 0.2239(3) 0.18238(16)
H12_2 H 0.5981 0.2100 0.2084
C27_2 C 0.65954(13) 0.5208(2) 0.00227(15)
H15_2 H 0.6538 0.5650 0.0281
C28_2 C 0.63949(13) 0.4426(2) 0.01234(16)
H16_2 H 0.6196 0.4351 0.0447
O6_2 O 0.66447(9) 0.21544(17) 0.31085(11)
O7_2 O 0.75059(9) 0.23561(17) 0.29458(10)
Ce4_2 Ce 0.741956(6) 0.209891(11) 0.404270(7)
Ce5_2 Ce 0.758044(6) 0.709891(11) 0.095730(7)
C2_2 C 0.68369(15) 0.0551(2) 0.87897(15)
C3_2 C 0.70058(15) 0.0590(3) 0.94177(17)
H1_2 H 0.7246 0.0184 0.9615
C4_2 C 0.68195(14) 0.1232(2) 0.97594(16)
C5_2 C 0.64601(13) 0.1841(2) 0.94882(14)
C6_2 C 0.6303(2) 0.1791(3) 0.88512(18)
H3_2 H 0.6063 0.2194 0.8650
C7_2 C 0.6491(2) 0.1166(3) 0.85123(17)
H4_2 H 0.6382 0.1158 0.8086
C8_2 C 0.54161(12) 0.2723(2) 0.97246(14)
C9_2 C 0.51035(14) 0.2002(2) 0.97908(17)
H5_2 H 0.5285 0.1518 0.9951
C10_2 C 0.45332(14) 0.1994(2) 0.96238(17)
H6_2 H 0.4333 0.1511 0.9679
C11_2 C 0.42542(12) 0.2704(2) 0.93726(14)
C12_2 C 0.36324(12) 0.2708(2) 0.91971(14)
C13_2 C 0.45537(13) 0.3418(2) 0.92943(17)
H7_2 H 0.4371 0.3896 0.9123
C14_2 C 0.51311(13) 0.3422(2) 0.94730(17)
H8_2 H 0.5330 0.3908 0.9422
C15_2 C 0.71005(12) 0.6187(2) 0.94087(14)
C23_2 C 0.64794(11) 0.3743(2) 0.97571(13)
C24_2 C 0.67718(15) 0.3882(2) 0.92684(16)
H13_2 H 0.6837 0.3437 0.9016
C25_2 C 0.69667(15) 0.4670(2) 0.91528(16)
H14_2 H 0.7153 0.4753 0.8819
C26_2 C 0.68849(12) 0.53390(19) 0.95336(14)
H17_2 H 0.6747 0.0299 0.7745
O3_2 O 0.34003(8) 0.33374(14) 0.89200(10)
O4_2 O 0.33487(9) 0.20930(14) 0.93420(10)
O5_2 O 0.71640(11) 0.63714(16) 0.88723(11)
O9_2 O 0.72061(9) 0.67204(14) 0.98507(10)
Si1_2 Si 0.61931(3) 0.26999(5) 0.99391(4)
Ce2_2 Ce 0.241956(6) 0.290109(11) 0.904270(7)
Ce3_2 Ce 0.741956(6) 0.790109(11) 0.904270(7)
O16_2 O 0.77939(9) 0.82796(14) 0.01493(10)
C1_2 C 0.70543(19) 0.9878(3) 0.84136(18)
O1_2 O 0.6942(2) 0.9891(3) 0.78542(16)
O2_2 O 0.73730(10) 0.93296(16) 0.87038(12)
O8_2 O 0.65770(10) 0.83679(19) 0.94595(12)
O10_2 O 0.84003(8) 0.83374(14) 0.89200(10)
O11_2 O 0.83487(9) 0.70930(14) 0.93420(10)
O13_2 O 0.66447(9) 0.78456(17) 0.81085(11)
O14_2 O 0.75059(9) 0.76439(17) 0.79458(10)
H18_2 H 0.628862 0.855927 0.911447
H19_2 H 0.642797 0.789419 0.967676
C10_3 C 0.04668(14) 0.6994(2) 0.53762(17)
H6_3 H 0.0667 0.6511 0.5321
C11_3 C 0.07458(12) 0.7704(2) 0.56274(14)
C12_3 C 0.13676(12) 0.7708(2) 0.58029(14)
C13_3 C 0.04463(13) 0.8418(2) 0.57057(17)
H7_3 H 0.0629 0.8896 0.5877
C15_3 C 0.78995(12) 0.1187(2) 0.55913(14)
C26_3 C 0.81151(12) 0.03390(19) 0.54664(14)
C27_3 C 0.84046(13) 0.0208(2) 0.49773(15)
H15_3 H 0.8462 0.0650 0.4719
O5_3 O 0.78360(11) 0.13714(16) 0.61277(11)
O9_3 O 0.77939(9) 0.17204(14) 0.51493(10)
C1_3 C 0.79457(19) 0.4878(3) 0.65864(18)
C2_3 C 0.81631(15) 0.5551(2) 0.62103(15)
C3_3 C 0.79942(15) 0.5590(3) 0.55823(17)
H1_3 H 0.7754 0.5184 0.5385
C4_3 C 0.81805(14) 0.6232(2) 0.52406(16)
H2_3 H 0.8059 0.6252 0.4817
C5_3 C 0.85399(13) 0.6841(2) 0.55118(14)
C6_3 C 0.8697(2) 0.6791(3) 0.61488(18)
H3_3 H 0.8937 0.7194 0.6350
C7_3 C 0.8509(2) 0.6166(3) 0.64877(17)
H4_3 H 0.8618 0.6158 0.6914
C8_3 C 0.95839(12) 0.7723(2) 0.52754(14)
C9_3 C 0.98965(14) 0.7002(2) 0.52092(17)
H5_3 H 0.9715 0.6518 0.5049
C14_3 C 0.98689(13) 0.8422(2) 0.55270(17)
H8_3 H 0.9670 0.8908 0.5578
C16_3 C 0.80091(13) 0.7283(2) 0.22556(15)
C17_3 C 0.82142(13) 0.7357(2) 0.29327(14)
C18_3 C 0.78410(13) 0.7553(2) 0.33315(15)
H9_3 H 0.7464 0.7618 0.3175
C19_3 C 0.80244(13) 0.7652(2) 0.39560(15)
H10_3 H 0.7771 0.7803 0.4213
C20_3 C 0.85842(12) 0.7529(2) 0.42100(14)
C21_3 C 0.89517(13) 0.7324(3) 0.38068(16)
H11_3 H 0.9327 0.7243 0.3962
C22_3 C 0.87666(14) 0.7239(3) 0.31762(16)
H12_3 H 0.9019 0.7100 0.2916
C23_3 C 0.85206(11) 0.8743(2) 0.52429(13)
C24_3 C 0.82282(15) 0.8882(2) 0.57316(16)
H13_3 H 0.8163 0.8437 0.5984
C25_3 C 0.80333(15) 0.9670(2) 0.58472(16)
H14_3 H 0.7847 0.9753 0.6181
C28_3 C 0.86051(13) 0.9426(2) 0.48766(16)
H16_3 H 0.8804 0.9351 0.4553
O1_3 O 0.8058(2) 0.4891(3) 0.71458(16)
H17_3 H 0.8253 0.5299 0.7255
O2_3 O 0.76270(10) 0.43296(16) 0.62962(12)
O6_3 O 0.83553(9) 0.71544(17) 0.18915(11)
O7_3 O 0.74941(9) 0.73561(17) 0.20542(10)
O8_3 O 0.84230(10) 0.33679(19) 0.55405(12)
Si1_3 Si 0.88069(3) 0.76999(5) 0.50609(4)
O13_3 O 0.83553(9) 0.28456(17) 0.68915(11)
O14_3 O 0.74941(9) 0.26439(17) 0.70542(10)
O16_3 O 0.72061(9) 0.32796(14) 0.48507(10)
H18_3 H 0.871138 0.355927 0.588553
H19_3 H 0.857203 0.289419 0.532324
C27_4 C 0.15954(13) 0.0208(2) 0.00227(15)
H15_4 H 0.1538 0.0650 0.0281
C15_4 C 0.21005(12) 0.1187(2) 0.94087(14)
C26_4 C 0.18849(12) 0.03390(19) 0.95336(14)
O5_4 O 0.21640(11) 0.13714(16) 0.88723(11)
O9_4 O 0.22061(9) 0.17204(14) 0.98507(10)
H2_4 H 0.1941 0.6252 0.0183
C16_4 C 0.19909(13) 0.7283(2) 0.27444(15)
C17_4 C 0.17858(13) 0.7357(2) 0.20673(14)
C18_4 C 0.21590(13) 0.7553(2) 0.16685(15)
H9_4 H 0.2536 0.7618 0.1825
C19_4 C 0.19756(13) 0.7652(2) 0.10440(15)
H10_4 H 0.2229 0.7803 0.0787
C20_4 C 0.14158(12) 0.7529(2) 0.07900(14)
C21_4 C 0.10483(13) 0.7324(3) 0.11932(16)
H11_4 H 0.0673 0.7243 0.1038
C22_4 C 0.12334(14) 0.7239(3) 0.18238(16)
H12_4 H 0.0981 0.7100 0.2084
C28_4 C 0.13949(13) 0.9426(2) 0.01234(16)
H16_4 H 0.1196 0.9351 0.0447
O6_4 O 0.16447(9) 0.71544(17) 0.31085(11)
O7_4 O 0.25059(9) 0.73561(17) 0.29458(10)
O16_4 O 0.27939(9) 0.32796(14) 0.01493(10)
C1_4 C 0.20543(19) 0.4878(3) 0.84136(18)
C2_4 C 0.18369(15) 0.5551(2) 0.87897(15)
C3_4 C 0.20058(15) 0.5590(3) 0.94177(17)
H1_4 H 0.2246 0.5184 0.9615
C4_4 C 0.18195(14) 0.6232(2) 0.97594(16)
C5_4 C 0.14601(13) 0.6841(2) 0.94882(14)
C6_4 C 0.1303(2) 0.6791(3) 0.88512(18)
H3_4 H 0.1063 0.7194 0.8650
C7_4 C 0.1491(2) 0.6166(3) 0.85123(17)
H4_4 H 0.1382 0.6158 0.8086
C8_4 C 0.04161(12) 0.7723(2) 0.97246(14)
C9_4 C 0.01035(14) 0.7002(2) 0.97908(17)
H5_4 H 0.0285 0.6518 0.9951
C14_4 C 0.01311(13) 0.8422(2) 0.94730(17)
H8_4 H 0.0330 0.8908 0.9422
C23_4 C 0.14794(11) 0.8743(2) 0.97571(13)
C24_4 C 0.17718(15) 0.8882(2) 0.92684(16)
H13_4 H 0.1837 0.8437 0.9016
C25_4 C 0.19667(15) 0.9670(2) 0.91528(16)
H14_4 H 0.2153 0.9753 0.8819
O1_4 O 0.1942(2) 0.4891(3) 0.78542(16)
H17_4 H 0.1747 0.5299 0.7745
O2_4 O 0.23730(10) 0.43296(16) 0.87038(12)
O8_4 O 0.15770(10) 0.33679(19) 0.94595(12)
Si1_4 Si 0.11931(3) 0.76999(5) 0.99391(4)
O13_4 O 0.16447(9) 0.28456(17) 0.81085(11)
O14_4 O 0.25059(9) 0.26439(17) 0.79458(10)
H18_4 H 0.128862 0.355927 0.911447
H19_4 H 0.142797 0.289419 0.967676
C10_4 C 0.95332(14) 0.6994(2) 0.96238(17)
H6_4 H 0.9333 0.6511 0.9679
C11_4 C 0.92542(12) 0.7704(2) 0.93726(14)
C12_4 C 0.86324(12) 0.7708(2) 0.91971(14)
C13_4 C 0.95537(13) 0.8418(2) 0.92943(17)
H7_4 H 0.9371 0.8896 0.9123
C1_5 C 0.70543(19) 0.0122(3) 0.34136(18)
O1_5 O 0.6942(2) 0.0109(3) 0.28542(16)
O2_5 O 0.73730(10) 0.06704(16) 0.37038(12)
O8_5 O 0.65770(10) 0.16321(19) 0.44595(12)
O10_3 O 0.84003(8) 0.16626(14) 0.39200(10)
O11_3 O 0.83487(9) 0.29070(14) 0.43420(10)
O12 O 0.71640(11) 0.36286(16) 0.38723(11)
H18_5 H 0.628862 0.144073 0.411447
H19_5 H 0.642797 0.210581 0.467676
C2_5 C 0.68369(15) 0.9449(2) 0.37897(15)
C3_5 C 0.70058(15) 0.9410(3) 0.44177(17)
H1_5 H 0.7246 0.9816 0.4615
C4_5 C 0.68195(14) 0.8768(2) 0.47594(16)
H2_5 H 0.6941 0.8748 0.5183
C5_5 C 0.64601(13) 0.8159(2) 0.44882(14)
C6_5 C 0.6303(2) 0.8209(3) 0.38512(18)
H3_5 H 0.6063 0.7806 0.3650
C7_5 C 0.6491(2) 0.8834(3) 0.35123(17)
H4_5 H 0.6382 0.8842 0.3086
C8_5 C 0.54161(12) 0.7277(2) 0.47246(14)
C9_5 C 0.51035(14) 0.7998(2) 0.47908(17)
H5_5 H 0.5285 0.8482 0.4951
C10_5 C 0.45332(14) 0.8006(2) 0.46238(17)
H6_5 H 0.4333 0.8489 0.4679
C11_5 C 0.42542(12) 0.7296(2) 0.43726(14)
C12_5 C 0.36324(12) 0.7292(2) 0.41971(14)
C13_5 C 0.45537(13) 0.6582(2) 0.42943(17)
H7_5 H 0.4371 0.6104 0.4123
C14_5 C 0.51311(13) 0.6578(2) 0.44730(17)
H8_5 H 0.5330 0.6092 0.4422
C15_5 C 0.71005(12) 0.3813(2) 0.44087(14)
C16_5 C 0.69909(13) 0.7717(2) 0.77444(15)
C17_5 C 0.67858(13) 0.7643(2) 0.70673(14)
C18_5 C 0.71590(13) 0.7447(2) 0.66685(15)
H9_5 H 0.7536 0.7382 0.6825
C19_5 C 0.69756(13) 0.7348(2) 0.60440(15)
H10_5 H 0.7229 0.7197 0.5787
C20_5 C 0.64158(12) 0.7471(2) 0.57900(14)
C21_5 C 0.60483(13) 0.7676(3) 0.61932(16)
H11_5 H 0.5673 0.7757 0.6038
C22_5 C 0.62334(14) 0.7761(3) 0.68238(16)
H12_5 H 0.5981 0.7900 0.7084
C23_5 C 0.64794(11) 0.6257(2) 0.47571(13)
C24_5 C 0.67718(15) 0.6118(2) 0.42684(16)
H13_5 H 0.6837 0.6563 0.4016
C25_5 C 0.69667(15) 0.5330(2) 0.41528(16)
H14_5 H 0.7153 0.5247 0.3819
C26_5 C 0.68849(12) 0.46610(19) 0.45336(14)
C27_5 C 0.65954(13) 0.4792(2) 0.50227(15)
H15_5 H 0.6538 0.4350 0.5281
C28_5 C 0.63949(13) 0.5574(2) 0.51234(16)
H16_5 H 0.6196 0.5649 0.5447
H17_5 H 0.6747 0.9701 0.2745
O3_3 O 0.34003(8) 0.66626(14) 0.39200(10)
O4_3 O 0.33487(9) 0.79070(14) 0.43420(10)
Si1_5 Si 0.61931(3) 0.73001(5) 0.49391(4)
C1_6 C 0.29457(19) 0.0122(3) 0.15864(18)
O1_6 O 0.3058(2) 0.0109(3) 0.21458(16)
O2_6 O 0.26270(10) 0.06704(16) 0.12962(12)
O8_6 O 0.34230(10) 0.16321(19) 0.05405(12)
O10_4 O 0.15997(8) 0.16626(14) 0.10800(10)
O11_4 O 0.16513(9) 0.29070(14) 0.06580(10)
O12_2 O 0.28360(11) 0.36286(16) 0.11277(11)
H18_6 H 0.371138 0.144073 0.0885529
H19_6 H 0.357203 0.210581 0.0323241
C2_6 C 0.31631(15) 0.9449(2) 0.12103(15)
C3_6 C 0.29942(15) 0.9410(3) 0.05823(17)
H1_6 H 0.2754 0.9816 0.0385
C4_6 C 0.31805(14) 0.8768(2) 0.02406(16)
C5_6 C 0.35399(13) 0.8159(2) 0.05118(14)
C6_6 C 0.3697(2) 0.8209(3) 0.11488(18)
H3_6 H 0.3937 0.7806 0.1350
C7_6 C 0.3509(2) 0.8834(3) 0.14877(17)
H4_6 H 0.3618 0.8842 0.1914
C8_6 C 0.45839(12) 0.7277(2) 0.02754(14)
C9_6 C 0.48965(14) 0.7998(2) 0.02092(17)
H5_6 H 0.4715 0.8482 0.0049
C10_6 C 0.54668(14) 0.8006(2) 0.03762(17)
H6_6 H 0.5667 0.8489 0.0321
C11_6 C 0.57458(12) 0.7296(2) 0.06274(14)
C12_6 C 0.63676(12) 0.7292(2) 0.08029(14)
C13_6 C 0.54463(13) 0.6582(2) 0.07057(17)
H7_6 H 0.5629 0.6104 0.0877
C14_6 C 0.48689(13) 0.6578(2) 0.05270(17)
H8_6 H 0.4670 0.6092 0.0578
C15_6 C 0.28995(12) 0.3813(2) 0.05913(14)
C23_6 C 0.35206(11) 0.6257(2) 0.02429(13)
C24_6 C 0.32282(15) 0.6118(2) 0.07316(16)
H13_6 H 0.3163 0.6563 0.0984
C25_6 C 0.30333(15) 0.5330(2) 0.08472(16)
H14_6 H 0.2847 0.5247 0.1181
C26_6 C 0.31151(12) 0.46610(19) 0.04664(14)
H17_6 H 0.3253 0.9701 0.2255
O3_4 O 0.65997(8) 0.66626(14) 0.10800(10)
O4_4 O 0.66513(9) 0.79070(14) 0.06580(10)
Si1_6 Si 0.38069(3) 0.73001(5) 0.00609(4)
H2_6 H 0.3059 0.8748 0.9817
C16_6 C 0.30091(13) 0.7717(2) 0.72556(15)
C17_6 C 0.32142(13) 0.7643(2) 0.79327(14)
C18_6 C 0.28410(13) 0.7447(2) 0.83315(15)
H9_6 H 0.2464 0.7382 0.8175
C19_6 C 0.30244(13) 0.7348(2) 0.89560(15)
H10_6 H 0.2771 0.7197 0.9213
C20_6 C 0.35842(12) 0.7471(2) 0.92100(14)
C21_6 C 0.39517(13) 0.7676(3) 0.88068(16)
H11_6 H 0.4327 0.7757 0.8962
C22_6 C 0.37666(14) 0.7761(3) 0.81762(16)
H12_6 H 0.4019 0.7900 0.7916
C27_6 C 0.34046(13) 0.4792(2) 0.99773(15)
H15_6 H 0.3462 0.4350 0.9719
C28_6 C 0.36051(13) 0.5574(2) 0.98766(16)
H16_6 H 0.3804 0.5649 0.9553
C1_7 C 0.20543(19) 0.5122(3) 0.34136(18)
C2_7 C 0.18369(15) 0.4449(2) 0.37897(15)
C3_7 C 0.20058(15) 0.4410(3) 0.44177(17)
H1_7 H 0.2246 0.4816 0.4615
C4_7 C 0.18195(14) 0.3768(2) 0.47594(16)
H2_7 H 0.1941 0.3748 0.5183
C5_7 C 0.14601(13) 0.3159(2) 0.44882(14)
C6_7 C 0.1303(2) 0.3209(3) 0.38512(18)
H3_7 H 0.1063 0.2806 0.3650
C7_7 C 0.1491(2) 0.3834(3) 0.35123(17)
H4_7 H 0.1382 0.3842 0.3086
C8_7 C 0.04161(12) 0.2277(2) 0.47246(14)
C9_7 C 0.01035(14) 0.2998(2) 0.47908(17)
H5_7 H 0.0285 0.3482 0.4951
C14_7 C 0.01311(13) 0.1578(2) 0.44730(17)
H8_7 H 0.0330 0.1092 0.4422
C16_7 C 0.19909(13) 0.2717(2) 0.77444(15)
C17_7 C 0.17858(13) 0.2643(2) 0.70673(14)
C18_7 C 0.21590(13) 0.2447(2) 0.66685(15)
H9_7 H 0.2536 0.2382 0.6825
C19_7 C 0.19756(13) 0.2348(2) 0.60440(15)
H10_7 H 0.2229 0.2197 0.5787
C20_7 C 0.14158(12) 0.2471(2) 0.57900(14)
C21_7 C 0.10483(13) 0.2676(3) 0.61932(16)
H11_7 H 0.0673 0.2757 0.6038
C22_7 C 0.12334(14) 0.2761(3) 0.68238(16)
H12_7 H 0.0981 0.2900 0.7084
C23_7 C 0.14794(11) 0.1257(2) 0.47571(13)
C24_7 C 0.17718(15) 0.1118(2) 0.42684(16)
H13_7 H 0.1837 0.1563 0.4016
C25_7 C 0.19667(15) 0.0330(2) 0.41528(16)
H14_7 H 0.2153 0.0247 0.3819
C28_7 C 0.13949(13) 0.0574(2) 0.51234(16)
H16_7 H 0.1196 0.0649 0.5447
O1_7 O 0.1942(2) 0.5109(3) 0.28542(16)
H17_7 H 0.1747 0.4701 0.2745
O2_7 O 0.23730(10) 0.56704(16) 0.37038(12)
O8_7 O 0.15770(10) 0.66321(19) 0.44595(12)
Si1_7 Si 0.11931(3) 0.23001(5) 0.49391(4)
O12_3 O 0.21640(11) 0.86286(16) 0.38723(11)
H18_7 H 0.128862 0.644073 0.411447
H19_7 H 0.142797 0.710581 0.467676
C15_7 C 0.21005(12) 0.8813(2) 0.44087(14)
C26_7 C 0.18849(12) 0.96610(19) 0.45336(14)
C27_7 C 0.15954(13) 0.9792(2) 0.50227(15)
H15_7 H 0.1538 0.9350 0.5281
C10_7 C 0.95332(14) 0.3006(2) 0.46238(17)
H6_7 H 0.9333 0.3489 0.4679
C11_7 C 0.92542(12) 0.2296(2) 0.43726(14)
C12_7 C 0.86324(12) 0.2292(2) 0.41971(14)
C13_7 C 0.95537(13) 0.1582(2) 0.42943(17)
H7_7 H 0.9371 0.1104 0.4123
C10_8 C 0.04668(14) 0.3006(2) 0.03762(17)
H6_8 H 0.0667 0.3489 0.0321
C11_8 C 0.07458(12) 0.2296(2) 0.06274(14)
C12_8 C 0.13676(12) 0.2292(2) 0.08029(14)
C13_8 C 0.04463(13) 0.1582(2) 0.07057(17)
H7_8 H 0.0629 0.1104 0.0877
C1_8 C 0.79457(19) 0.5122(3) 0.15864(18)
C2_8 C 0.81631(15) 0.4449(2) 0.12103(15)
C3_8 C 0.79942(15) 0.4410(3) 0.05823(17)
H1_8 H 0.7754 0.4816 0.0385
C4_8 C 0.81805(14) 0.3768(2) 0.02406(16)
C5_8 C 0.85399(13) 0.3159(2) 0.05118(14)
C6_8 C 0.8697(2) 0.3209(3) 0.11488(18)
H3_8 H 0.8937 0.2806 0.1350
C7_8 C 0.8509(2) 0.3834(3) 0.14877(17)
H4_8 H 0.8618 0.3842 0.1914
C8_8 C 0.95839(12) 0.2277(2) 0.02754(14)
C9_8 C 0.98965(14) 0.2998(2) 0.02092(17)
H5_8 H 0.9715 0.3482 0.0049
C14_8 C 0.98689(13) 0.1578(2) 0.05270(17)
H8_8 H 0.9670 0.1092 0.0578
C23_8 C 0.85206(11) 0.1257(2) 0.02429(13)
C24_8 C 0.82282(15) 0.1118(2) 0.07316(16)
H13_8 H 0.8163 0.1563 0.0984
C25_8 C 0.80333(15) 0.0330(2) 0.08472(16)
H14_8 H 0.7847 0.0247 0.1181
O1_8 O 0.8058(2) 0.5109(3) 0.21458(16)
H17_8 H 0.8253 0.4701 0.2255
O2_8 O 0.76270(10) 0.56704(16) 0.12962(12)
O8_8 O 0.84230(10) 0.66321(19) 0.05405(12)
Si1_8 Si 0.88069(3) 0.23001(5) 0.00609(4)
O12_4 O 0.78360(11) 0.86286(16) 0.11277(11)
H18_8 H 0.871138 0.644073 0.0885529
H19_8 H 0.857203 0.710581 0.0323241
H2_8 H 0.8059 0.3748 0.9817
C16_8 C 0.80091(13) 0.2717(2) 0.72556(15)
C17_8 C 0.82142(13) 0.2643(2) 0.79327(14)
C18_8 C 0.78410(13) 0.2447(2) 0.83315(15)
H9_8 H 0.7464 0.2382 0.8175
C19_8 C 0.80244(13) 0.2348(2) 0.89560(15)
H10_8 H 0.7771 0.2197 0.9213
C20_8 C 0.85842(12) 0.2471(2) 0.92100(14)
C21_8 C 0.89517(13) 0.2676(3) 0.88068(16)
H11_8 H 0.9327 0.2757 0.8962
C22_8 C 0.87666(14) 0.2761(3) 0.81762(16)
H12_8 H 0.9019 0.2900 0.7916
C28_8 C 0.86051(13) 0.0574(2) 0.98766(16)
H16_8 H 0.8804 0.0649 0.9553
C15_8 C 0.78995(12) 0.8813(2) 0.05913(14)
C26_8 C 0.81151(12) 0.96610(19) 0.04664(14)
C27_8 C 0.84046(13) 0.9792(2) 0.99773(15)
H15_8 H 0.8462 0.9350 0.9719
loop_
_geom_bond_atom_site_label_1
_geom_bond_atom_site_label_2
_geom_bond_site_symmetry_1
_geom_bond_site_symmetry_2
C2 C3 1_555 1_555
C3 H1 1_555 1_555
C4 C3 1_555 1_555
H2 C4 1_555 1_555
C5 C4 1_555 1_555
C6 C5 1_555 1_555
H3 C6 1_555 1_555
C7 C2 1_555 1_555
H4 C7 1_555 1_555
C8 C9 1_555 1_555
C9 H5 1_555 1_555
C10 C9 1_555 1_555
H6 C10 1_555 1_555
C11 C10 1_555 1_555
C12 C11 1_555 1_555
C13 C11 1_555 1_555
H7 C13 1_555 1_555
C14 C8 1_555 1_555
H8 C14 1_555 1_555
C15 C26 1_555 1_555
C16 C17 1_555 1_555
C17 C18 1_555 1_555
C18 H9 1_555 1_555
C19 C18 1_555 1_555
H10 C19 1_555 1_555
C20 C19 1_555 1_555
C21 C20 1_555 1_555
H11 C21 1_555 1_555
C22 C17 1_555 1_555
H12 C22 1_555 1_555
C23 C24 1_555 1_555
C24 H13 1_555 1_555
C25 C24 1_555 1_555
H14 C25 1_555 1_555
C26 C25 1_555 1_555
C27 C26 1_555 1_555
H15 C27 1_555 1_555
C28 C23 1_555 1_555
H16 C28 1_555 1_555
O3 C12 1_555 1_555
O4 C12 1_555 1_555
O5 C15 1_555 1_555
O6 C16 1_555 1_555
O7 C16 1_555 1_555
O9 C15 1_555 1_555
Si1 C5 1_555 1_555
Ce2 O3 1_555 1_555
Ce3 O5 1_555 1_555
Ce4 O6 1_555 1_555
Ce5 O9 1_555 1_555
C6 C7 1_555 1_555
C8 Si1 1_555 1_555
C13 C14 1_555 1_555
C20 Si1 1_555 1_555
C21 C22 1_555 1_555
C23 Si1 1_555 1_555
C27 C28 1_555 1_555
O4 Ce2 1_555 1_555
O7 Ce4 1_555 1_555
O9 Ce3 1_555 1_555
O1 C1 1_555 1_555
O2 C1 1_555 1_555
O8 Ce3 1_555 1_555
Ce3 O2 1_555 1_555
O10 Ce3 1_555 1_555
O11 Ce3 1_555 1_555
O13 Ce3 1_555 1_555
O14 Ce3 1_555 1_555
O16 Ce3 1_555 1_555
O8 H18 1_555 1_555
O8 H19 1_555 1_555
C16_2 C17_2 1_555 1_555
C17_2 C18_2 1_555 1_555
C18_2 H9_2 1_555 1_555
C19_2 C18_2 1_555 1_555
H10_2 C19_2 1_555 1_555
C20_2 C19_2 1_555 1_555
C21_2 C20_2 1_555 1_555
H11_2 C21_2 1_555 1_555
C22_2 C17_2 1_555 1_555
H12_2 C22_2 1_555 1_555
H15_2 C27_2 1_555 1_555
H16_2 C28_2 1_555 1_555
O6_2 C16_2 1_555 1_555
O7_2 C16_2 1_555 1_555
Ce4_2 O6_2 1_555 1_555
C21_2 C22_2 1_555 1_555
C27_2 C28_2 1_555 1_555
O7_2 Ce4_2 1_555 1_555
C2_2 C3_2 1_555 1_555
C3_2 H1_2 1_555 1_555
C4_2 C3_2 1_555 1_555
C5_2 C4_2 1_555 1_555
C6_2 C5_2 1_555 1_555
H3_2 C6_2 1_555 1_555
C7_2 C2_2 1_555 1_555
H4_2 C7_2 1_555 1_555
C8_2 C9_2 1_555 1_555
C9_2 H5_2 1_555 1_555
C10_2 C9_2 1_555 1_555
H6_2 C10_2 1_555 1_555
C11_2 C10_2 1_555 1_555
C12_2 C11_2 1_555 1_555
C13_2 C11_2 1_555 1_555
H7_2 C13_2 1_555 1_555
C14_2 C8_2 1_555 1_555
H8_2 C14_2 1_555 1_555
C15_2 C26_2 1_555 1_555
C23_2 C24_2 1_555 1_555
C24_2 H13_2 1_555 1_555
C25_2 C24_2 1_555 1_555
H14_2 C25_2 1_555 1_555
C26_2 C25_2 1_555 1_555
O3_2 C12_2 1_555 1_555
O4_2 C12_2 1_555 1_555
O5_2 C15_2 1_555 1_555
O9_2 C15_2 1_555 1_555
Si1_2 C5_2 1_555 1_555
Ce2_2 O3_2 1_555 1_555
Ce3_2 O5_2 1_555 1_555
C6_2 C7_2 1_555 1_555
C8_2 Si1_2 1_555 1_555
C13_2 C14_2 1_555 1_555
C23_2 Si1_2 1_555 1_555
O4_2 Ce2_2 1_555 1_555
O9_2 Ce3_2 1_555 1_555
O1_2 C1_2 1_555 1_555
O2_2 C1_2 1_555 1_555
O8_2 Ce3_2 1_555 1_555
Ce3_2 O2_2 1_555 1_555
O10_2 Ce3_2 1_555 1_555
O11_2 Ce3_2 1_555 1_555
O13_2 Ce3_2 1_555 1_555
O14_2 Ce3_2 1_555 1_555
O8_2 H18_2 1_555 1_555
O8_2 H19_2 1_555 1_555
H6_3 C10_3 1_555 1_555
C11_3 C10_3 1_555 1_555
C12_3 C11_3 1_555 1_555
C13_3 C11_3 1_555 1_555
H7_3 C13_3 1_555 1_555
O10 C12_3 1_555 1_555
O11 C12_3 1_555 1_555
C15_3 C26_3 1_555 1_555
C27_3 C26_3 1_555 1_555
H15_3 C27_3 1_555 1_555
O5_3 C15_3 1_555 1_555
O9_3 C15_3 1_555 1_555
Ce2 O5_3 1_555 1_555
Ce4_2 O9_3 1_555 1_555
O9_3 Ce2 1_555 1_555
C1_3 C2_3 1_555 1_555
C2_3 C3_3 1_555 1_555
C3_3 H1_3 1_555 1_555
C4_3 C3_3 1_555 1_555
H2_3 C4_3 1_555 1_555
C5_3 C4_3 1_555 1_555
C6_3 C5_3 1_555 1_555
H3_3 C6_3 1_555 1_555
C7_3 C2_3 1_555 1_555
H4_3 C7_3 1_555 1_555
C8_3 C9_3 1_555 1_555
C9_3 H5_3 1_555 1_555
C14_3 C8_3 1_555 1_555
H8_3 C14_3 1_555 1_555
C16_3 C17_3 1_555 1_555
C17_3 C18_3 1_555 1_555
C18_3 H9_3 1_555 1_555
C19_3 C18_3 1_555 1_555
H10_3 C19_3 1_555 1_555
C20_3 C19_3 1_555 1_555
C21_3 C20_3 1_555 1_555
H11_3 C21_3 1_555 1_555
C22_3 C17_3 1_555 1_555
H12_3 C22_3 1_555 1_555
C23_3 C24_3 1_555 1_555
C24_3 H13_3 1_555 1_555
C25_3 C24_3 1_555 1_555
H14_3 C25_3 1_555 1_555
C28_3 C23_3 1_555 1_555
H16_3 C28_3 1_555 1_555
O1_3 C1_3 1_555 1_555
H17_3 O1_3 1_555 1_555
O2_3 C1_3 1_555 1_555
O6_3 C16_3 1_555 1_555
O7_3 C16_3 1_555 1_555
O8_3 Ce2 1_555 1_555
Si1_3 C5_3 1_555 1_555
Ce2 O2_3 1_555 1_555
O13_3 Ce2 1_555 1_555
O14_3 Ce2 1_555 1_555
O16_3 Ce2 1_555 1_555
Ce5_2 O6_3 1_555 1_555
C6_3 C7_3 1_555 1_555
C8_3 Si1_3 1_555 1_555
C20_3 Si1_3 1_555 1_555
C21_3 C22_3 1_555 1_555
C23_3 Si1_3 1_555 1_555
O7_3 Ce5_2 1_555 1_555
O8_3 H18_3 1_555 1_555
O8_3 H19_3 1_555 1_555
H15_4 C27_4 1_555 1_555
C15_4 C26_4 1_555 1_555
O5_4 C15_4 1_555 1_555
O9_4 C15_4 1_555 1_555
Ce2_2 O5_4 1_555 1_555
O9_4 Ce2_2 1_555 1_555
C16_4 C17_4 1_555 1_555
C17_4 C18_4 1_555 1_555
C18_4 H9_4 1_555 1_555
C19_4 C18_4 1_555 1_555
H10_4 C19_4 1_555 1_555
C20_4 C19_4 1_555 1_555
C21_4 C20_4 1_555 1_555
H11_4 C21_4 1_555 1_555
C22_4 C17_4 1_555 1_555
H12_4 C22_4 1_555 1_555
H16_4 C28_4 1_555 1_555
O6_4 C16_4 1_555 1_555
O7_4 C16_4 1_555 1_555
Ce5 O6_4 1_555 1_555
C21_4 C22_4 1_555 1_555
O7_4 Ce5 1_555 1_555
C1_4 C2_4 1_555 1_555
C2_4 C3_4 1_555 1_555
C3_4 H1_4 1_555 1_555
C4_4 C3_4 1_555 1_555
C5_4 C4_4 1_555 1_555
C6_4 C5_4 1_555 1_555
H3_4 C6_4 1_555 1_555
C7_4 C2_4 1_555 1_555
H4_4 C7_4 1_555 1_555
C8_4 C9_4 1_555 1_555
C9_4 H5_4 1_555 1_555
C14_4 C8_4 1_555 1_555
H8_4 C14_4 1_555 1_555
C23_4 C24_4 1_555 1_555
C24_4 H13_4 1_555 1_555
C25_4 C24_4 1_555 1_555
H14_4 C25_4 1_555 1_555
O1_4 C1_4 1_555 1_555
H17_4 O1_4 1_555 1_555
O2_4 C1_4 1_555 1_555
O8_4 Ce2_2 1_555 1_555
Si1_4 C5_4 1_555 1_555
Ce2_2 O2_4 1_555 1_555
O13_4 Ce2_2 1_555 1_555
O14_4 Ce2_2 1_555 1_555
C6_4 C7_4 1_555 1_555
C8_4 Si1_4 1_555 1_555
C23_4 Si1_4 1_555 1_555
O8_4 H18_4 1_555 1_555
O8_4 H19_4 1_555 1_555
H6_4 C10_4 1_555 1_555
C11_4 C10_4 1_555 1_555
C12_4 C11_4 1_555 1_555
C13_4 C11_4 1_555 1_555
H7_4 C13_4 1_555 1_555
O10_2 C12_4 1_555 1_555
O11_2 C12_4 1_555 1_555
O1_5 C1_5 1_555 1_555
O2_5 C1_5 1_555 1_555
O8_5 Ce4_2 1_555 1_555
Ce4_2 O2_5 1_555 1_555
O10_3 Ce4_2 1_555 1_555
O11_3 Ce4_2 1_555 1_555
O12 Ce4_2 1_555 1_555
O16_3 Ce4_2 1_555 1_555
O8_5 H18_5 1_555 1_555
O8_5 H19_5 1_555 1_555
C2_5 C3_5 1_555 1_555
C3_5 H1_5 1_555 1_555
C4_5 C3_5 1_555 1_555
H2_5 C4_5 1_555 1_555
C5_5 C4_5 1_555 1_555
C6_5 C5_5 1_555 1_555
H3_5 C6_5 1_555 1_555
C7_5 C2_5 1_555 1_555
H4_5 C7_5 1_555 1_555
C8_5 C9_5 1_555 1_555
C9_5 H5_5 1_555 1_555
C10_5 C9_5 1_555 1_555
H6_5 C10_5 1_555 1_555
C11_5 C10_5 1_555 1_555
C12_5 C11_5 1_555 1_555
C13_5 C11_5 1_555 1_555
H7_5 C13_5 1_555 1_555
C14_5 C8_5 1_555 1_555
H8_5 C14_5 1_555 1_555
C15_5 C26_5 1_555 1_555
C16_5 C17_5 1_555 1_555
C17_5 C18_5 1_555 1_555
C18_5 H9_5 1_555 1_555
C19_5 C18_5 1_555 1_555
H10_5 C19_5 1_555 1_555
C20_5 C19_5 1_555 1_555
C21_5 C20_5 1_555 1_555
H11_5 C21_5 1_555 1_555
C22_5 C17_5 1_555 1_555
H12_5 C22_5 1_555 1_555
C23_5 C24_5 1_555 1_555
C24_5 H13_5 1_555 1_555
C25_5 C24_5 1_555 1_555
H14_5 C25_5 1_555 1_555
C26_5 C25_5 1_555 1_555
C27_5 C26_5 1_555 1_555
H15_5 C27_5 1_555 1_555
C28_5 C23_5 1_555 1_555
H16_5 C28_5 1_555 1_555
O3_3 C12_5 1_555 1_555
O4_3 C12_5 1_555 1_555
O12 C15_5 1_555 1_555
O13_2 C16_5 1_555 1_555
O14_2 C16_5 1_555 1_555
O16_3 C15_5 1_555 1_555
Si1_5 C5_5 1_555 1_555
Ce5 O3_3 1_555 1_555
C6_5 C7_5 1_555 1_555
C8_5 Si1_5 1_555 1_555
C13_5 C14_5 1_555 1_555
C20_5 Si1_5 1_555 1_555
C21_5 C22_5 1_555 1_555
C23_5 Si1_5 1_555 1_555
C27_5 C28_5 1_555 1_555
O4_3 Ce5 1_555 1_555
O1_6 C1_6 1_555 1_555
O2_6 C1_6 1_555 1_555
O8_6 Ce4 1_555 1_555
Ce4 O2_6 1_555 1_555
O10_4 Ce4 1_555 1_555
O11_4 Ce4 1_555 1_555
O12_2 Ce4 1_555 1_555
O16_4 Ce4 1_555 1_555
O8_6 H18_6 1_555 1_555
O8_6 H19_6 1_555 1_555
C2_6 C3_6 1_555 1_555
C3_6 H1_6 1_555 1_555
C4_6 C3_6 1_555 1_555
C5_6 C4_6 1_555 1_555
C6_6 C5_6 1_555 1_555
H3_6 C6_6 1_555 1_555
C7_6 C2_6 1_555 1_555
H4_6 C7_6 1_555 1_555
C8_6 C9_6 1_555 1_555
C9_6 H5_6 1_555 1_555
C10_6 C9_6 1_555 1_555
H6_6 C10_6 1_555 1_555
C11_6 C10_6 1_555 1_555
C12_6 C11_6 1_555 1_555
C13_6 C11_6 1_555 1_555
H7_6 C13_6 1_555 1_555
C14_6 C8_6 1_555 1_555
H8_6 C14_6 1_555 1_555
C15_6 C26_6 1_555 1_555
C23_6 C24_6 1_555 1_555
C24_6 H13_6 1_555 1_555
C25_6 C24_6 1_555 1_555
H14_6 C25_6 1_555 1_555
C26_6 C25_6 1_555 1_555
O3_4 C12_6 1_555 1_555
O4_4 C12_6 1_555 1_555
O12_2 C15_6 1_555 1_555
O16_4 C15_6 1_555 1_555
Si1_6 C5_6 1_555 1_555
Ce5_2 O3_4 1_555 1_555
C6_6 C7_6 1_555 1_555
C8_6 Si1_6 1_555 1_555
C13_6 C14_6 1_555 1_555
C23_6 Si1_6 1_555 1_555
O4_4 Ce5_2 1_555 1_555
C16_6 C17_6 1_555 1_555
C17_6 C18_6 1_555 1_555
C18_6 H9_6 1_555 1_555
C19_6 C18_6 1_555 1_555
H10_6 C19_6 1_555 1_555
C20_6 C19_6 1_555 1_555
C21_6 C20_6 1_555 1_555
H11_6 C21_6 1_555 1_555
C22_6 C17_6 1_555 1_555
H12_6 C22_6 1_555 1_555
H15_6 C27_6 1_555 1_555
H16_6 C28_6 1_555 1_555
O13 C16_6 1_555 1_555
O14 C16_6 1_555 1_555
C21_6 C22_6 1_555 1_555
C27_6 C28_6 1_555 1_555
C1_7 C2_7 1_555 1_555
C2_7 C3_7 1_555 1_555
C3_7 H1_7 1_555 1_555
C4_7 C3_7 1_555 1_555
H2_7 C4_7 1_555 1_555
C5_7 C4_7 1_555 1_555
C6_7 C5_7 1_555 1_555
H3_7 C6_7 1_555 1_555
C7_7 C2_7 1_555 1_555
H4_7 C7_7 1_555 1_555
C8_7 C9_7 1_555 1_555
C9_7 H5_7 1_555 1_555
C14_7 C8_7 1_555 1_555
H8_7 C14_7 1_555 1_555
C16_7 C17_7 1_555 1_555
C17_7 C18_7 1_555 1_555
C18_7 H9_7 1_555 1_555
C19_7 C18_7 1_555 1_555
H10_7 C19_7 1_555 1_555
C20_7 C19_7 1_555 1_555
C21_7 C20_7 1_555 1_555
H11_7 C21_7 1_555 1_555
C22_7 C17_7 1_555 1_555
H12_7 C22_7 1_555 1_555
C23_7 C24_7 1_555 1_555
C24_7 H13_7 1_555 1_555
C25_7 C24_7 1_555 1_555
H14_7 C25_7 1_555 1_555
C28_7 C23_7 1_555 1_555
H16_7 C28_7 1_555 1_555
O1_7 C1_7 1_555 1_555
H17_7 O1_7 1_555 1_555
O2_7 C1_7 1_555 1_555
O13_4 C16_7 1_555 1_555
O14_4 C16_7 1_555 1_555
O8_7 Ce5 1_555 1_555
Si1_7 C5_7 1_555 1_555
Ce5 O2_7 1_555 1_555
O12_3 Ce5 1_555 1_555
O16 Ce5 1_555 1_555
C6_7 C7_7 1_555 1_555
C8_7 Si1_7 1_555 1_555
C20_7 Si1_7 1_555 1_555
C21_7 C22_7 1_555 1_555
C23_7 Si1_7 1_555 1_555
O8_7 H18_7 1_555 1_555
O8_7 H19_7 1_555 1_555
C15_7 C26_7 1_555 1_555
C27_7 C26_7 1_555 1_555
H15_7 C27_7 1_555 1_555
O12_3 C15_7 1_555 1_555
O16 C15_7 1_555 1_555
H6_7 C10_7 1_555 1_555
C11_7 C10_7 1_555 1_555
C12_7 C11_7 1_555 1_555
C13_7 C11_7 1_555 1_555
H7_7 C13_7 1_555 1_555
O10_3 C12_7 1_555 1_555
O11_3 C12_7 1_555 1_555
H6_8 C10_8 1_555 1_555
C11_8 C10_8 1_555 1_555
C12_8 C11_8 1_555 1_555
C13_8 C11_8 1_555 1_555
H7_8 C13_8 1_555 1_555
O10_4 C12_8 1_555 1_555
O11_4 C12_8 1_555 1_555
C1_8 C2_8 1_555 1_555
C2_8 C3_8 1_555 1_555
C3_8 H1_8 1_555 1_555
C4_8 C3_8 1_555 1_555
C5_8 C4_8 1_555 1_555
C6_8 C5_8 1_555 1_555
H3_8 C6_8 1_555 1_555
C7_8 C2_8 1_555 1_555
H4_8 C7_8 1_555 1_555
C8_8 C9_8 1_555 1_555
C9_8 H5_8 1_555 1_555
C14_8 C8_8 1_555 1_555
H8_8 C14_8 1_555 1_555
C23_8 C24_8 1_555 1_555
C24_8 H13_8 1_555 1_555
C25_8 C24_8 1_555 1_555
H14_8 C25_8 1_555 1_555
O1_8 C1_8 1_555 1_555
H17_8 O1_8 1_555 1_555
O2_8 C1_8 1_555 1_555
O8_8 Ce5_2 1_555 1_555
Si1_8 C5_8 1_555 1_555
Ce5_2 O2_8 1_555 1_555
O12_4 Ce5_2 1_555 1_555
O16_2 Ce5_2 1_555 1_555
C6_8 C7_8 1_555 1_555
C8_8 Si1_8 1_555 1_555
C23_8 Si1_8 1_555 1_555
O8_8 H18_8 1_555 1_555
O8_8 H19_8 1_555 1_555
C16_8 C17_8 1_555 1_555
C17_8 C18_8 1_555 1_555
C18_8 H9_8 1_555 1_555
C19_8 C18_8 1_555 1_555
H10_8 C19_8 1_555 1_555
C20_8 C19_8 1_555 1_555
C21_8 C20_8 1_555 1_555
H11_8 C21_8 1_555 1_555
C22_8 C17_8 1_555 1_555
H12_8 C22_8 1_555 1_555
H16_8 C28_8 1_555 1_555
O13_3 C16_8 1_555 1_555
O14_3 C16_8 1_555 1_555
C21_8 C22_8 1_555 1_555
C15_8 C26_8 1_555 1_555
O12_4 C15_8 1_555 1_555
O16_2 C15_8 1_555 1_555
H15_8 C27_8 1_555 1_555

#END
