
###############################################################################
#
# This file contains modified crystal structure data generated from the
# MOF subset of the Cambridge Structural Database (CSD) v543 
# hosted by the Cambridge Crystallographic Data Centre (CCDC).
#
# This work is licensed under the Creative Commons
# Attribution-NonCommercial-ShareAlike 4.0 International License.
# To view a copy of this license, visit
# http://creativecommons.org/licenses/by-nc-sa/4.0/
# or send a letter to
# Creative Commons, PO Box 1866, Mountain View, CA 94042, USA.
#
# CIF created using the CSD Python API on 29 September 2022
# The structure has been converted into the P1 space group
# The structure has a 3D framework
# The original CSD entry ZEBWUB is in the triclinic crystal system
# The original CSD entry ZEBWUB is in a Sohncke space group
# The framework has been calculated to contain at least 10.0% void space
# The void calculation uses a probe of radius 1.32A, grid spacing 0.4
#
###############################################################################

data_ZEBWUB
_chemical_formula_moiety         '(C189 H138 Cd5 N16 Ni2 O18)n'
_symmetry_cell_setting           triclinic
_symmetry_space_group_name_H-M   'P 1'
_symmetry_Int_Tables_number      1
_space_group_name_Hall           'P 1'
loop_
_symmetry_equiv_pos_site_id
_symmetry_equiv_pos_as_xyz
1 x,y,z
_cell_length_a                   16.3993(4)
_cell_length_b                   17.3042(3)
_cell_length_c                   24.3278(10)
_cell_angle_alpha                85.324(2)
_cell_angle_beta                 78.917(3)
_cell_angle_gamma                89.496(2)
_cell_volume                     6752.19
loop_
_atom_site_label
_atom_site_type_symbol
_atom_site_fract_x
_atom_site_fract_y
_atom_site_fract_z
Cd1 Cd 0.84234(6) 0.27019(6) 0.03369(5)
O1 O 0.7723(8) 0.1843(8) 0.0001(7)
N3 N 0.7466(7) 0.2615(8) 0.1147(6)
C1 C 0.7210(11) 0.1917(12) 0.1384(9)
H2 H 0.7387 0.1465 0.1217
C2 C 0.7139(11) 0.3318(11) 0.1359(9)
H3 H 0.7300 0.3791 0.1160
C17 C 0.6358(12) 0.2586(10) 0.2181(8)
H9 H 0.6529 0.0938 0.0321
H11 H 0.5480 0.0002 0.0301
C27 C 0.6626(11) 0.1906(9) 0.1929(7)
H13 H 0.6429 0.1431 0.2110
C41 C 0.6606(12) 0.3294(12) 0.1841(10)
H22 H 0.6380 0.3757 0.1966
C46 C 0.5864(12) 0.2552(12) 0.2721(10)
C47 C 0.5930(13) 0.3160(9) 0.3074(9)
H26 H 0.6305 0.3557 0.2923
C48 C 0.5249(11) 0.1973(10) 0.2897(9)
H27 H 0.5176 0.1574 0.2677
Ni1 Ni 0.3377(2) 0.21367(18) 0.46225(14)
O7 O 0.4309(8) 0.2716(7) 0.4298(6)
C49 C 0.4774(11) 0.2652(10) 0.3787(8)
C50 C 0.5481(13) 0.3227(11) 0.3640(9)
C51 C 0.4738(11) 0.2046(10) 0.3447(8)
O8 O 0.3309(7) 0.2738(7) 0.5190(5)
C52 C 0.1973(19) 0.1655(17) 0.5401(15)
H28 H 0.1547 0.1293 0.5517
N6 N 0.2399(11) 0.1629(10) 0.4915(8)
C53 C 0.4017(14) 0.1502(12) 0.3632(9)
H29 H 0.3968 0.1125 0.3388
C54 C 0.2092(14) 0.2193(14) 0.5781(12)
C55 C 0.2816(11) 0.3334(10) 0.6079(7)
N7 N 0.3458(10) 0.1482(9) 0.4077(6)
C56 C 0.0949(10) 0.2683(10) 0.7245(8)
C57 C 0.0275(12) 0.2188(10) 0.7379(8)
H30 H 0.0217 0.1798 0.7148
C58 C 0.1480(17) 0.2205(13) 0.6284(10)
H31 H 0.1007 0.1897 0.6327
C59 C 0.5578(15) 0.3860(13) 0.4008(10)
C60 C 0.3518(18) 0.387(2) 0.5994(13)
C61 C 0.1570(11) 0.2667(12) 0.6714(8)
C62 C 0.2235(11) 0.3321(12) 0.6561(8)
H32 H 0.2236 0.3710 0.6803
C65 C 0.6336(15) 0.4380(12) 0.3697(12)
H35 H 0.6221 0.4609 0.3348
H36 H 0.6825 0.4066 0.3625
H37 H 0.6427 0.4781 0.3929
C66 C 0.4856(18) 0.4425(16) 0.4093(12)
H38 H 0.4762 0.4638 0.3734
H39 H 0.4987 0.4836 0.4304
H40 H 0.4365 0.4157 0.4293
C68 C 0.3489(14) 0.4365(13) 0.5476(11)
H42 H 0.3507 0.4048 0.5168
H43 H 0.3957 0.4713 0.5396
H44 H 0.2985 0.4659 0.5526
C69 C 0.5753(13) 0.3506(12) 0.4564(9)
H45 H 0.6240 0.3190 0.4498
H46 H 0.5287 0.3192 0.4754
H47 H 0.5841 0.3912 0.4794
C70 C 0.2112(18) 0.1127(15) 0.4548(11)
H48 H 0.1813 0.0696 0.4787
C71 C 0.279(2) 0.0781(17) 0.4145(15)
H49 H 0.2648 0.0628 0.3796
C73 C 0.0359(11) 0.3342(11) 0.8081(8)
H51 H 0.0342 0.3786 0.8275
C74 C 0.0958(13) 0.3268(13) 0.7600(8)
H52 H 0.1388 0.3631 0.7512
C77 C 0.0494(11) 0.0541(10) 0.0426(8)
H53 H 0.0175 0.0635 0.0773
C78 C 0.4319(15) 0.342(2) 0.5870(17)
H54 H 0.4325 0.3140 0.5545
H55 H 0.4363 0.3067 0.6187
H56 H 0.4780 0.3779 0.5798
C79 C 0.2741(14) 0.2712(11) 0.5704(12)
C80 C 0.348(3) 0.4372(16) 0.6505(15)
H57 H 0.2978 0.4663 0.6558
H58 H 0.3950 0.4723 0.6430
H59 H 0.3503 0.4041 0.6838
C81 C 0.1597(16) 0.1446(15) 0.4246(11)
C83 C 0.1205(19) 0.2229(17) 0.3497(14)
H61 H 0.1390 0.2475 0.3140
C84 C 0.0757(16) 0.1480(15) 0.4460(13)
H62 H 0.0564 0.1208 0.4805
C85 C 0.039(2) 0.238(2) 0.3722(16)
H63 H 0.0041 0.2734 0.3577
C86 C 0.018(3) 0.1883(19) 0.4207(16)
C87 C 0.1802(19) 0.1784(17) 0.3704(12)
H65 H 0.2324 0.1716 0.3485
C88 C 0.3334(18) 0.0082(18) 0.4511(12)
C89 C 0.402(2) 0.012(3) 0.4756(15)
H66 H 0.4306 0.0590 0.4723
O12 O 0.9423(8) 0.3547(7) 0.0228(6)
O14 O 0.9285(7) 0.1714(7) 0.0442(6)
Cd2 Cd 0.89136(6) 0.28028(6) 0.90375(5)
O4 O 0.8122(8) 0.1789(6) 0.8956(6)
C8 C 0.7076(13) 0.0912(12) 0.9521(11)
C10 C 0.7687(12) 0.1570(11) 0.9517(12)
C21 C 0.3280(17) 0.0241(13) 0.9669(10)
H8 H 0.2948 0.0674 0.9633
C22 C 0.6513(10) 0.0709(9) 0.9990(7)
C25 C 0.5876(13) 0.0131(11) 0.9979(11)
C34 C 0.4140(12) 0.0216(10) 0.9609(11)
H17 H 0.4497 0.0640 0.9571
C38 C 0.7039(11) 0.0543(11) 0.9046(9)
H20 H 0.7414 0.0690 0.8716
C64 C 0.0776(13) 0.0836(13) 0.9426(10)
H34 H 0.0689 0.1116 0.9099
C67 C 0.1350(12) 0.0246(10) 0.9424(8)
H41 H 0.1646 0.0135 0.9073
C75 C 0.0340(12) 0.0974(11) 0.9956(8)
O11 O 0.9670(8) 0.3796(7) 0.9321(7)
O13 O 0.9676(8) 0.2015(8) 0.9520(7)
N9 N 0.9785(11) 0.2746(8) 0.8269(6)
O15 O 0.7743(9) 0.3667(8) 0.9943(8)
O16 O 0.7896(8) 0.3625(8) 0.9040(6)
C9 C 0.0554(9) 0.4803(11) 0.0247(9)
H5 H 0.0268 0.4556 0.0581
H6 H 0.5688 0.5563 0.0321
H7 H 0.6616 0.4542 0.0310
C23 C 0.1103(10) 0.5384(9) 0.0306(8)
H10 H 0.1194 0.5509 0.0654
C42 C 0.1067(13) 0.8156(12) 0.0000(10)
H23 H 0.0610 0.8461 0.0125
C63 C 0.1095(11) 0.9973(12) 0.0410(8)
H33 H 0.1202 0.9716 0.0739
C90 C 0.392(3) 0.878(2) 0.5128(15)
H67 H 0.4100 0.8379 0.5354
C91 C 0.302(3) 0.934(2) 0.4617(19)
H68 H 0.2531 0.9282 0.4482
C92 C 0.432(2) 0.949(3) 0.5047(18)
H69 H 0.4794 0.9547 0.5192
C93 C 0.325(3) 0.865(2) 0.487(2)
H70 H 0.2997 0.8172 0.4877
N1 N 0.5005(9) 0.7795(9) 0.9532(6)
H1 H 0.4471 0.7806 0.9593
N2 N 0.3675(8) 0.8949(7) 0.9652(6)
N4 N 0.2410(10) 0.7804(8) 0.9794(7)
H4 H 0.2944 0.7821 0.9736
N5 N 0.3677(8) 0.6683(10) 0.9573(7)
C3 C 0.1538(11) 0.9798(10) 0.9886(6)
C4 C 0.5256(11) 0.6368(11) 0.9484(9)
C5 C 0.5855(11) 0.9780(12) 0.9506(9)
C6 C 0.5425(12) 0.7168(11) 0.9492(8)
C7 C 0.5843(11) 0.5727(11) 0.9470(8)
C11 C 0.2974(13) 0.6145(14) 0.9692(12)
C12 C 0.5969(9) 0.5391(8) 0.9984(9)
C13 C 0.0375(9) 0.4540(8) 0.9765(6)
C14 C 0.1500(11) 0.5760(10) 0.9806(6)
C15 C 0.1874(10) 0.8457(10) 0.9856(10)
C16 C 0.6532(9) 0.4786(8) 0.9971(8)
C18 C 0.3004(13) 0.9392(12) 0.9806(11)
C19 C 0.2147(11) 0.6371(13) 0.9760(8)
C20 C 0.5220(10) 0.9201(9) 0.9544(9)
C24 C 0.4365(16) 0.9443(13) 0.9616(11)
C26 C 0.6348(10) 0.7355(10) 0.9461(8)
H12 H 0.6814 0.7040 0.9426
C28 C 0.6253(12) 0.8174(10) 0.9504(10)
H14 H 0.6674 0.8508 0.9547
C29 C 0.5460(14) 0.8397(12) 0.9471(11)
C30 C 0.2177(11) 0.9197(10) 0.9837(9)
C31 C 0.4339(14) 0.6153(11) 0.9593(10)
C32 C 0.0999(10) 0.7401(9) 0.9946(9)
H15 H 0.0515 0.7116 0.9965
C33 C 0.6275(11) 0.5467(9) 0.8969(9)
H16 H 0.6167 0.5691 0.8630
C35 C 0.6854(11) 0.4891(9) 0.8962(7)
H18 H 0.7158 0.4744 0.8623
C36 C 0.3235(13) 0.5391(12) 0.9611(11)
H19 H 0.2878 0.4981 0.9596
C39 C 0.4091(14) 0.5320(10) 0.9556(10)
H21 H 0.4422 0.4882 0.9509
C40 C 0.6978(10) 0.4529(8) 0.9472(6)
C42_2 C 0.1067(13) 0.8156(12) 1.0000(10)
C43 C 0.0745(14) 0.4978(12) 0.9281(7)
H24 H 0.0604 0.4893 0.8938
C44 C 0.1321(10) 0.5539(10) 0.9307(7)
H25 H 0.1607 0.5783 0.8972
C45 C 0.1909(12) 0.7105(12) 0.9845(10)
C82 C 0.6459(14) 0.9957(12) 0.9037(11)
H60 H 0.6483 0.9690 0.8717
C94 C 0.7621(9) 0.3878(9) 0.9483(9)
C72 C 0.9687(10) 0.2273(10) 0.7859(7)
H50 H 0.9193 0.1993 0.7907
H64 H 0.9616 0.1821 0.4370
C76 C 0.9720(12) 0.1666(9) 0.9983(9)
C37 C 0.9760(10) 0.3889(10) 0.9786(10)
C135 C 0.0206(13) 0.7037(16) 0.8689(11)
H92 H 0.0236 0.7364 0.8970
Ni2 Ni 0.1347(2) 0.6145(2) 0.66974(16)
O25 O 0.1351(9) 0.6641(7) 0.7328(7)
C136 C 0.0796(12) 0.7149(14) 0.8173(9)
N15 N 0.0407(11) 0.5551(11) 0.6993(9)
O26 O 0.2322(9) 0.6640(9) 0.6474(7)
N16 N 0.1315(12) 0.5747(11) 0.6053(9)
C142 C 0.050(2) 0.5413(13) 0.6004(15)
H96 H 0.0103 0.5834 0.5964
C144 C 0.0513(15) 0.4856(12) 0.5521(11)
C145 C 0.0257(13) 0.4976(11) 0.6630(9)
H97 H 0.0627 0.4534 0.6665
C147 C 0.2254(18) 0.7465(19) 0.7971(13)
H98 H 0.2301 0.7068 0.7713
H99 H 0.2363 0.7247 0.8326
H100 H 0.2649 0.7871 0.7822
C148 C 0.1374(15) 0.7797(18) 0.8056(11)
C149 C 0.1316(14) 0.8262(14) 0.7521(11)
H101 H 0.1459 0.7944 0.7212
H102 H 0.1693 0.8695 0.7468
H103 H 0.0759 0.8448 0.7539
C157 C 0.2827(12) 0.6573(12) 0.5942(10)
C158 C 0.0749(11) 0.6635(13) 0.7792(11)
C159 C 0.1770(12) 0.5968(12) 0.5510(9)
H108 H 0.1550 0.5936 0.5188
C162 C 0.0048(13) 0.6009(14) 0.7917(9)
C163 C 0.0981(14) 0.4187(12) 0.5491(10)
H111 H 0.1321 0.4043 0.5746
C166 C 0.2583(14) 0.6240(13) 0.5492(11)
C167 C 0.3657(15) 0.6938(15) 0.5881(12)
C168 C 0.409(3) 0.6888(16) 0.5367(15)
H113 H 0.4633 0.7068 0.5317
C169 C 0.3082(13) 0.6338(11) 0.4973(9)
H114 H 0.2884 0.6211 0.4659
C170 C 0.3895(14) 0.6630(12) 0.4911(12)
C171 C 0.4479(12) 0.6545(11) 0.4333(9)
C172 C 0.4192(11) 0.6431(11) 0.3853(7)
H115 H 0.3620 0.6431 0.3870
C173 C 0.5323(11) 0.6619(10) 0.4284(8)
H116 H 0.5542 0.6722 0.4596
C174 C 0.4702(7) 0.6318(10) 0.3346(7)
H117 H 0.4481 0.6232 0.3031
C175 C 0.5851(11) 0.6543(13) 0.3776(7)
H118 H 0.6417 0.6633 0.3743
N17 N 0.5551(7) 0.6336(9) 0.3318(7)
C176 C 0.4004(17) 0.7210(16) 0.6344(14)
C177 C 0.393(2) 0.658(2) 0.6859(15)
H119 H 0.4243 0.6130 0.6744
H120 H 0.3356 0.6435 0.6990
H121 H 0.4142 0.6788 0.7157
C179 C 0.4906(17) 0.746(2) 0.6238(15)
H123 H 0.5253 0.7019 0.6140
H124 H 0.5031 0.7651 0.6571
H125 H 0.5008 0.7856 0.5935
C182 C 0.0905(17) 0.3750(15) 0.5055(11)
H128 H 0.1246 0.3318 0.5009
C183 C 0.349(2) 0.7903(18) 0.6526(18)
H129 H 0.2911 0.7759 0.6612
H130 H 0.3578 0.8311 0.6228
H131 H 0.3649 0.8081 0.6854
C184 C 0.038(2) 0.388(2) 0.4682(14)
H132 H 0.0389 0.3545 0.4403
C185 C 0.124(3) 0.850(3) 0.840(2)
H133 H 0.0702 0.8712 0.8395
H134 H 0.1660 0.8885 0.8251
H135 H 0.1283 0.8342 0.8786
Cd16 Cd 0.64007(6) 0.61772(5) 0.24852(5)
O18 O 0.5654(7) 0.5248(6) 0.2263(5)
N11 N 0.2955(9) 0.1227(9) 0.1763(8)
N12 N 0.1623(10) 0.2387(8) 0.1930(8)
N13 N 0.0380(8) 0.1203(7) 0.2013(8)
C96 C 0.3436(10) 0.1814(9) 0.1803(9)
O23 O 0.5846(8) 0.5335(7) 0.1320(7)
C97 C 0.3440(11) 0.0595(10) 0.1684(7)
C106 C 0.0174(11) 0.2570(11) 0.2041(10)
C108 C 0.1994(14) 0.3658(10) 0.1969(10)
H74 H 0.2311 0.4102 0.1966
C109 C 0.3107(13) 0.2567(9) 0.1842(10)
C115 C 0.2327(11) 0.2802(9) 0.1901(9)
C116 C 0.0944(10) 0.2815(10) 0.2057(7)
C119 C 0.4302(9) 0.0801(10) 0.1662(8)
H78 H 0.4764 0.0480 0.1618
C122 C 0.1241(11) 0.3618(12) 0.2025(11)
H81 H 0.0894 0.4047 0.2045
C126 C 0.4270(14) 0.1615(11) 0.1723(10)
H84 H 0.4719 0.1945 0.1711
C146 C 0.3782(9) 0.3213(9) 0.1853(7)
C150 C 0.4098(13) 0.3615(13) 0.1344(8)
H104 H 0.3907 0.3491 0.1026
C151 C 0.3960(10) 0.3444(9) 0.2346(8)
H105 H 0.3732 0.3188 0.2692
C152 C 0.4488(8) 0.4068(9) 0.2306(7)
H106 H 0.4589 0.4264 0.2632
C153 C 0.4871(11) 0.4407(11) 0.1789(7)
C154 C 0.5507(12) 0.5047(10) 0.1801(8)
C155 C 0.4689(13) 0.4197(9) 0.1290(7)
H107 H 0.4945 0.4430 0.0942
Cd12 Cd 0.1605(2) 0.1095(2) 0.2218(2)
Cd19 Cd 0.68880(6) 0.62396(5) 0.11761(5)
N10 N 0.1667(9) 0.9998(9) 0.1739(7)
O19 O 0.5703(8) 0.6975(8) 0.1940(6)
O21 O 0.6028(10) 0.7240(9) 0.1004(8)
N14 N 0.7824(12) 0.6274(9) 0.0406(7)
C98 C 0.3840(10) 0.9187(9) 0.1616(7)
C102 C 0.4998(10) 0.7979(9) 0.1536(7)
C104 C 0.3193(13) 0.9813(11) 0.1664(9)
C105 C 0.4225(9) 0.8946(8) 0.1111(8)
H72 H 0.4096 0.9195 0.0785
C107 C 0.4800(9) 0.8348(7) 0.1059(8)
H73 H 0.5046 0.8201 0.0706
C111 C 0.0149(15) 0.9785(14) 0.1901(10)
C113 C 0.0995(9) 0.9552(8) 0.1848(8)
C114 C 0.2364(11) 0.9543(10) 0.1763(8)
C117 C 0.5621(11) 0.7416(12) 0.1501(12)
C120 C 0.1262(12) 0.8782(12) 0.1732(9)
H79 H 0.0924 0.8362 0.1710
C121 C 0.3985(12) 0.8820(10) 0.2112(9)
H80 H 0.3710 0.8943 0.2464
C124 C 0.8125(10) 0.6959(9) 0.0122(7)
H82 H 0.7927 0.7412 0.0281
C127 C 0.2114(10) 0.8782(9) 0.1660(8)
H85 H 0.2462 0.8367 0.1564
C132 C 0.4584(11) 0.8251(10) 0.2031(8)
H90 H 0.4728 0.8018 0.2357
C133 C 0.8117(10) 0.5663(10) 0.0116(8)
H91 H 0.7950 0.5171 0.0281
O27 O 0.7689(7) 0.7090(7) 0.1578(6)
O29 O 0.7275(9) 0.7114(9) 0.2410(6)
O30 O 0.7603(7) 0.5262(6) 0.1530(5)
O32 O 0.7433(8) 0.5319(8) 0.2501(7)
C95 C 0.8375(9) 0.4421(10) 0.2041(6)
C99 C 0.9492(9) 0.3196(9) 0.2082(5)
C100 C 0.9837(10) 0.1831(9) 0.2052(9)
C103 C 0.9061(14) 0.1572(12) 0.2052(10)
H71 H 0.8614 0.1908 0.2058
C110 C 0.8973(11) 0.0791(12) 0.2044(8)
H75 H 0.8493 0.0501 0.2063
C112 C 0.9062(9) 0.3449(9) 0.2583(7)
H76 H 0.9141 0.3224 0.2930
C125 C 0.8505(11) 0.4055(9) 0.2544(8)
H83 H 0.8204 0.4224 0.2876
C129 C 0.9374(9) 0.3549(9) 0.1569(6)
H87 H 0.9677 0.3385 0.1235
C130 C 0.8809(9) 0.4144(9) 0.1552(7)
H88 H 0.8719 0.4362 0.1207
C139 C 0.9858(11) 0.0522(10) 0.1997(7)
C156 C 0.7800(13) 0.5053(11) 0.2031(9)
C101 C 0.9489(10) 0.9180(8) 0.1911(6)
C118 C 0.8845(11) 0.8260(10) 0.1454(8)
H77 H 0.8795 0.8037 0.1126
C137 C 0.9423(9) 0.8846(9) 0.1424(7)
H93 H 0.9760 0.9013 0.1083
C138 C 0.8989(9) 0.8927(8) 0.2422(7)
H94 H 0.9036 0.9152 0.2749
C140 C 0.8338(9) 0.7992(8) 0.1955(6)
C141 C 0.8420(11) 0.8335(10) 0.2439(8)
H95 H 0.8086 0.8164 0.2780
C165 C 0.7717(12) 0.7359(11) 0.2003(9)
C123 C 0.8975(11) 0.6440(11) 0.9344(10)
C128 C 0.8641(10) 0.5703(9) 0.9596(7)
H86 H 0.8777 0.5256 0.9412
C131 C 0.8675(11) 0.7039(12) 0.9642(10)
H89 H 0.8864 0.7536 0.9504
C134 C 0.9587(13) 0.6466(11) 0.8796(10)
C143 C 0.9368(14) 0.4695(13) 0.6727(10)
C160 C 0.9998(14) 0.5537(15) 0.7538(10)
H109 H 0.9627 0.5126 0.7656
C161 C 0.9574(12) 0.6005(13) 0.8402(10)
H110 H 0.9165 0.5622 0.8483
C164 C 0.9841(18) 0.4500(19) 0.4704(14)
H112 H 0.9453 0.4609 0.4476
C178 C 0.920(2) 0.3931(15) 0.6924(13)
H122 H 0.9611 0.3574 0.6979
C180 C 0.8688(16) 0.5170(16) 0.6727(10)
H126 H 0.8798 0.5692 0.6615
C181 C 0.999(2) 0.493(3) 0.5133(12)
H127 H 0.9664 0.5368 0.5170
C186 C 0.766(2) 0.418(2) 0.7037(16)
H136 H 0.7118 0.3989 0.7136
C187 C 0.786(2) 0.495(3) 0.6876(15)
H137 H 0.7448 0.5321 0.6869
C188 C 0.8365(19) 0.375(2) 0.7031(15)
H138 H 0.8256 0.3223 0.7118
loop_
_geom_bond_atom_site_label_1
_geom_bond_atom_site_label_2
_geom_bond_site_symmetry_1
_geom_bond_site_symmetry_2
Cd1 O1 1_555 1_555
N3 Cd1 1_555 1_555
C1 N3 1_555 1_555
H2 C1 1_555 1_555
C2 N3 1_555 1_555
H3 C2 1_555 1_555
C17 C27 1_555 1_555
C27 C1 1_555 1_555
H13 C27 1_555 1_555
C41 C2 1_555 1_555
H22 C41 1_555 1_555
C46 C17 1_555 1_555
C47 C46 1_555 1_555
H26 C47 1_555 1_555
C48 C46 1_555 1_555
H27 C48 1_555 1_555
Ni1 O7 1_555 1_555
O7 C49 1_555 1_555
C49 C50 1_555 1_555
C50 C47 1_555 1_555
C51 C48 1_555 1_555
O8 Ni1 1_555 1_555
C52 H28 1_555 1_555
N6 Ni1 1_555 1_555
C53 C51 1_555 1_555
H29 C53 1_555 1_555
C54 C52 1_555 1_555
C55 C60 1_555 1_555
N7 Ni1 1_555 1_555
C56 C57 1_555 1_555
C57 H30 1_555 1_555
C58 C54 1_555 1_555
H31 C58 1_555 1_555
C59 C50 1_555 1_555
C60 C68 1_555 1_555
C61 C56 1_555 1_555
C62 C55 1_555 1_555
H32 C62 1_555 1_555
C65 C59 1_555 1_555
H35 C65 1_555 1_555
H36 C65 1_555 1_555
H37 C65 1_555 1_555
C66 C59 1_555 1_555
H38 C66 1_555 1_555
H39 C66 1_555 1_555
H40 C66 1_555 1_555
C68 H42 1_555 1_555
H43 C68 1_555 1_555
H44 C68 1_555 1_555
C69 C59 1_555 1_555
H45 C69 1_555 1_555
H46 C69 1_555 1_555
H47 C69 1_555 1_555
C70 N6 1_555 1_555
H48 C70 1_555 1_555
C71 N7 1_555 1_555
H49 C71 1_555 1_555
H51 C73 1_555 1_555
C74 C56 1_555 1_555
H52 C74 1_555 1_555
H53 C77 1_555 1_555
C78 C60 1_555 1_555
H54 C78 1_555 1_555
H55 C78 1_555 1_555
H56 C78 1_555 1_555
C79 O8 1_555 1_555
C80 C60 1_555 1_555
H57 C80 1_555 1_555
H58 C80 1_555 1_555
H59 C80 1_555 1_555
C81 C70 1_555 1_555
C83 H61 1_555 1_555
C84 C81 1_555 1_555
H62 C84 1_555 1_555
C85 C83 1_555 1_555
H63 C85 1_555 1_555
C86 C84 1_555 1_555
C87 C81 1_555 1_555
H65 C87 1_555 1_555
C88 C71 1_555 1_555
C89 C88 1_555 1_555
H66 C89 1_555 1_555
O12 Cd1 1_555 1_555
O14 Cd1 1_555 1_555
C17 C41 1_555 1_555
C49 C51 1_555 1_555
C52 N6 1_555 1_555
C53 N7 1_555 1_555
C54 C79 1_555 1_555
C55 C79 1_555 1_555
C58 C61 1_555 1_555
C61 C62 1_555 1_555
C70 C71 1_555 1_555
C73 C74 1_555 1_555
C83 C87 1_555 1_555
C85 C86 1_555 1_555
Cd2 O4 1_555 1_555
O4 C10 1_555 1_555
C8 C10 1_555 1_555
C21 H8 1_555 1_555
C22 C8 1_555 1_555
C34 C21 1_555 1_555
H17 C34 1_555 1_555
C38 C8 1_555 1_555
H20 C38 1_555 1_555
C64 H34 1_555 1_555
H41 C67 1_555 1_555
C75 C64 1_555 1_555
O11 Cd2 1_555 1_555
O13 Cd2 1_555 1_555
N9 Cd2 1_555 1_555
O16 Cd2 1_555 1_555
C22 C25 1_555 1_555
C64 C67 1_555 1_555
C9 H5 1_555 1_555
C23 C9 1_555 1_555
H10 C23 1_555 1_555
H23 C42 1_555 1_555
H33 C63 1_555 1_555
C90 H67 1_555 1_555
H68 C91 1_555 1_555
H69 C92 1_555 1_555
C93 C90 1_555 1_555
H70 C93 1_555 1_555
C90 C92 1_555 1_555
C91 C93 1_555 1_555
N1 H1 1_555 1_555
N2 C18 1_555 1_555
N4 H4 1_555 1_555
N5 C11 1_555 1_555
C3 C30 1_555 1_555
C4 C6 1_555 1_555
C5 C20 1_555 1_555
C6 N1 1_555 1_555
C7 C4 1_555 1_555
C11 C19 1_555 1_555
C12 C7 1_555 1_555
C14 C19 1_555 1_555
C15 N4 1_555 1_555
C16 C12 1_555 1_555
C19 C45 1_555 1_555
C20 C24 1_555 1_555
C24 N2 1_555 1_555
C26 C6 1_555 1_555
H12 C26 1_555 1_555
C28 C26 1_555 1_555
H14 C28 1_555 1_555
C29 N1 1_555 1_555
C30 C15 1_555 1_555
C31 N5 1_555 1_555
C32 H15 1_555 1_555
C33 C7 1_555 1_555
H16 C33 1_555 1_555
C35 C33 1_555 1_555
H18 C35 1_555 1_555
C36 C11 1_555 1_555
H19 C36 1_555 1_555
C39 C31 1_555 1_555
H21 C39 1_555 1_555
C40 C16 1_555 1_555
C42_2 C15 1_555 1_555
C43 C13 1_555 1_555
H24 C43 1_555 1_555
C44 C14 1_555 1_555
H25 C44 1_555 1_555
C45 N4 1_555 1_555
C82 C5 1_555 1_555
H60 C82 1_555 1_555
C94 C40 1_555 1_555
O15 C94 1_555 1_555
O16 C94 1_555 1_555
C4 C31 1_555 1_555
C18 C30 1_555 1_555
C20 C29 1_555 1_555
C28 C29 1_555 1_555
C32 C42_2 1_555 1_555
C32 C45 1_555 1_555
C35 C40 1_555 1_555
C36 C39 1_555 1_555
C43 C44 1_555 1_555
H50 C72 1_555 1_555
N9 C72 1_555 1_555
O13 C76 1_555 1_555
O11 C37 1_555 1_555
H92 C135 1_555 1_555
Ni2 O25 1_555 1_555
O25 C158 1_555 1_555
C136 C135 1_555 1_555
N15 Ni2 1_555 1_555
O26 Ni2 1_555 1_555
N16 Ni2 1_555 1_555
C142 N16 1_555 1_555
H96 C142 1_555 1_555
C144 C142 1_555 1_555
C145 N15 1_555 1_555
H97 C145 1_555 1_555
C147 H98 1_555 1_555
H99 C147 1_555 1_555
H100 C147 1_555 1_555
C148 C136 1_555 1_555
C149 C148 1_555 1_555
H101 C149 1_555 1_555
H102 C149 1_555 1_555
H103 C149 1_555 1_555
C157 O26 1_555 1_555
C158 C136 1_555 1_555
C159 N16 1_555 1_555
H108 C159 1_555 1_555
C162 C158 1_555 1_555
C163 C144 1_555 1_555
H111 C163 1_555 1_555
C166 C157 1_555 1_555
C167 C157 1_555 1_555
C168 C167 1_555 1_555
H113 C168 1_555 1_555
C169 C166 1_555 1_555
H114 C169 1_555 1_555
C170 C168 1_555 1_555
C171 C170 1_555 1_555
C172 C171 1_555 1_555
H115 C172 1_555 1_555
C173 C171 1_555 1_555
H116 C173 1_555 1_555
C174 C172 1_555 1_555
H117 C174 1_555 1_555
C175 C173 1_555 1_555
H118 C175 1_555 1_555
N17 C174 1_555 1_555
C176 C167 1_555 1_555
C177 C176 1_555 1_555
H119 C177 1_555 1_555
H120 C177 1_555 1_555
H121 C177 1_555 1_555
C179 C176 1_555 1_555
H123 C179 1_555 1_555
H124 C179 1_555 1_555
H125 C179 1_555 1_555
C182 C163 1_555 1_555
H128 C182 1_555 1_555
C183 C176 1_555 1_555
H129 C183 1_555 1_555
H130 C183 1_555 1_555
H131 C183 1_555 1_555
H132 C184 1_555 1_555
C185 C148 1_555 1_555
H133 C185 1_555 1_555
H134 C185 1_555 1_555
H135 C185 1_555 1_555
Cd16 N17 1_555 1_555
C142 C145 1_555 1_555
C147 C148 1_555 1_555
C159 C166 1_555 1_555
C169 C170 1_555 1_555
C175 N17 1_555 1_555
C182 C184 1_555 1_555
O18 C154 1_555 1_555
N11 C96 1_555 1_555
N12 C115 1_555 1_555
C96 C109 1_555 1_555
O23 C154 1_555 1_555
C97 N11 1_555 1_555
C108 H74 1_555 1_555
C109 C115 1_555 1_555
C115 C108 1_555 1_555
C116 N12 1_555 1_555
C119 C97 1_555 1_555
H78 C119 1_555 1_555
C122 C108 1_555 1_555
H81 C122 1_555 1_555
C126 C96 1_555 1_555
H84 C126 1_555 1_555
C146 C109 1_555 1_555
C150 C146 1_555 1_555
H104 C150 1_555 1_555
C151 C146 1_555 1_555
H105 C151 1_555 1_555
C152 C151 1_555 1_555
H106 C152 1_555 1_555
C153 C152 1_555 1_555
C154 C153 1_555 1_555
C155 C150 1_555 1_555
H107 C155 1_555 1_555
Cd16 O18 1_555 1_555
Cd19 O23 1_555 1_555
N11 Cd12 1_555 1_555
N12 Cd12 1_555 1_555
N13 Cd12 1_555 1_555
C106 C116 1_555 1_555
C116 C122 1_555 1_555
C119 C126 1_555 1_555
C153 C155 1_555 1_555
Cd16 O19 1_555 1_555
Cd19 O21 1_555 1_555
N10 C113 1_555 1_555
O19 C117 1_555 1_555
O21 C117 1_555 1_555
N14 Cd19 1_555 1_555
C98 C104 1_555 1_555
C102 C107 1_555 1_555
C105 C98 1_555 1_555
H72 C105 1_555 1_555
C107 C105 1_555 1_555
H73 C107 1_555 1_555
C111 C113 1_555 1_555
C113 C120 1_555 1_555
C114 N10 1_555 1_555
C117 C102 1_555 1_555
C120 H79 1_555 1_555
C121 C98 1_555 1_555
H80 C121 1_555 1_555
C124 N14 1_555 1_555
H82 C124 1_555 1_555
C127 C114 1_555 1_555
H85 C127 1_555 1_555
C132 C102 1_555 1_555
H90 C132 1_555 1_555
C133 N14 1_555 1_555
H91 C133 1_555 1_555
O27 Cd19 1_555 1_555
O29 Cd16 1_555 1_555
O30 Cd19 1_555 1_555
O32 Cd16 1_555 1_555
C104 C114 1_555 1_555
C120 C127 1_555 1_555
C121 C132 1_555 1_555
C95 C125 1_555 1_555
O30 C156 1_555 1_555
O32 C156 1_555 1_555
C100 C103 1_555 1_555
C103 H71 1_555 1_555
C110 C103 1_555 1_555
H75 C110 1_555 1_555
C112 C99 1_555 1_555
H76 C112 1_555 1_555
C125 C112 1_555 1_555
H83 C125 1_555 1_555
C129 C99 1_555 1_555
H87 C129 1_555 1_555
C130 C95 1_555 1_555
H88 C130 1_555 1_555
C156 C95 1_555 1_555
C110 C139 1_555 1_555
C129 C130 1_555 1_555
O27 C165 1_555 1_555
O29 C165 1_555 1_555
C118 H77 1_555 1_555
C137 C101 1_555 1_555
H93 C137 1_555 1_555
C138 C101 1_555 1_555
H94 C138 1_555 1_555
C140 C118 1_555 1_555
C141 C138 1_555 1_555
H95 C141 1_555 1_555
C165 C140 1_555 1_555
C118 C137 1_555 1_555
C140 C141 1_555 1_555
C123 C128 1_555 1_555
C128 H86 1_555 1_555
C131 C123 1_555 1_555
H89 C131 1_555 1_555
C134 C123 1_555 1_555
H109 C160 1_555 1_555
C161 C134 1_555 1_555
H110 C161 1_555 1_555
C164 H112 1_555 1_555
C178 C143 1_555 1_555
H122 C178 1_555 1_555
C180 C143 1_555 1_555
H126 C180 1_555 1_555
H127 C181 1_555 1_555
C186 H136 1_555 1_555
C187 C180 1_555 1_555
H137 C187 1_555 1_555
C188 C178 1_555 1_555
H138 C188 1_555 1_555
C164 C181 1_555 1_555
C186 C187 1_555 1_555
C186 C188 1_555 1_555

#END
