
###############################################################################
#
# This file contains modified crystal structure data generated from the
# MOF subset of the Cambridge Structural Database (CSD) v543 
# hosted by the Cambridge Crystallographic Data Centre (CCDC).
#
# This work is licensed under the Creative Commons
# Attribution-NonCommercial-ShareAlike 4.0 International License.
# To view a copy of this license, visit
# http://creativecommons.org/licenses/by-nc-sa/4.0/
# or send a letter to
# Creative Commons, PO Box 1866, Mountain View, CA 94042, USA.
#
# CIF created using the CSD Python API on 29 September 2022
# The structure has been converted into the P1 space group
# The structure has a 3D framework
# The original CSD entry ZECBOB is in the monoclinic crystal system
# The framework has been calculated to contain at least 10.0% void space
# The void calculation uses a probe of radius 1.32A, grid spacing 0.4
#
###############################################################################

data_ZECBOB
_chemical_formula_moiety         '(C156 H164 Eu8 N24 O76)n'
_symmetry_cell_setting           triclinic
_symmetry_space_group_name_H-M   'P 1'
_symmetry_Int_Tables_number      1
_space_group_name_Hall           'P 1'
loop_
_symmetry_equiv_pos_site_id
_symmetry_equiv_pos_as_xyz
1 x,y,z
_cell_length_a                   16.472(3)
_cell_length_b                   17.297(3)
_cell_length_c                   20.853(3)
_cell_angle_alpha                90
_cell_angle_beta                 109.499(3)
_cell_angle_gamma                90
_cell_volume                     5600.6
loop_
_atom_site_label
_atom_site_type_symbol
_atom_site_fract_x
_atom_site_fract_y
_atom_site_fract_z
O8 O 0.0182(4) 0.2401(5) 0.4289(3)
O9 O 0.0155(3) 0.1415(4) 0.7242(3)
O10 O 0.1090(3) 0.1403(4) 0.6695(3)
H10 H 0.0471 0.2030 0.5528
C18 C 0.0353(4) 0.1569(5) 0.6732(4)
Eu10 Eu 0.25563(2) 0.16154(3) 0.70803(2)
Eu1 Eu 0.25563(2) 0.33846(3) 0.20803(2)
O1 O 0.2336(4) 0.3420(4) 0.3135(3)
O2 O 0.1358(4) 0.2844(4) 0.3489(3)
O3 O 0.2210(4) 0.1973(4) 0.5881(3)
O4 O 0.3571(4) 0.1871(4) 0.6485(3)
O5 O 0.5933(4) 0.2060(4) 0.5820(3)
O6 O 0.6655(5) 0.3023(7) 0.4638(5)
O7 O 0.8964(4) 0.3044(5) 0.3911(3)
O16 O 0.2450(5) 0.4613(4) 0.1514(4)
O18 O 0.0737(6) 0.4103(5) 0.4128(4)
O19 O 0.3745(5) 0.4146(5) 0.2763(3)
H1 H 0.4036 0.3886 0.3108
H2 H 0.4063 0.4266 0.2530
N1 N 0.5160(4) 0.2725(5) 0.4867(4)
H3 H 0.5232 0.2996 0.4545
N2 N 0.7381(4) 0.2287(5) 0.5550(4)
H4 H 0.7302 0.2053 0.5887
N4 N 0.2616(9) 0.4944(5) 0.0600(7)
N6 N 0.1331(9) 0.4624(10) 0.5135(9)
C1 C 0.2114(5) 0.3036(6) 0.3547(4)
C2 C 0.2782(5) 0.2779(5) 0.4194(4)
C3 C 0.3650(5) 0.2852(6) 0.4259(4)
H6 H 0.3793 0.3049 0.3896
C4 C 0.4301(5) 0.2643(6) 0.4843(4)
C5 C 0.4090(5) 0.2337(6) 0.5398(4)
H7 H 0.4519 0.2177 0.5793
C6 C 0.3222(5) 0.2284(5) 0.5337(4)
C7 C 0.2589(5) 0.2487(5) 0.4737(4)
H8 H 0.2014 0.2425 0.4700
C8 C 0.2994(5) 0.2014(6) 0.5933(4)
C9 C 0.5883(5) 0.2443(6) 0.5319(4)
C10 C 0.6688(6) 0.2632(9) 0.5122(6)
C11 C 0.8238(5) 0.2252(6) 0.5526(5)
C12 C 0.8428(5) 0.2461(6) 0.4963(5)
H9 H 0.8003 0.2655 0.4580
C13 C 0.9284(5) 0.2378(6) 0.4973(4)
C14 C 0.9911(5) 0.2089(5) 0.5530(4)
C15 C 0.9696(5) 0.1882(5) 0.6107(4)
C16 C 0.8854(5) 0.1979(6) 0.6097(4)
H11 H 0.8710 0.1857 0.6480
C17 C 0.9486(6) 0.2639(7) 0.4346(5)
C28 C 0.1147(9) 0.4786(10) 0.0436(9)
H15 H 0.0777 0.4646 0.0688
H16 H 0.1070 0.4428 0.0069
H17 H 0.1007 0.5299 0.0256
C29 C 0.2080(9) 0.4765(5) 0.0904(6)
C30 C 0.3541(8) 0.4951(9) 0.0981(9)
H18 H 0.3773 0.4442 0.0977
H19 H 0.3634 0.5107 0.1441
H20 H 0.3823 0.5308 0.0772
C32 C 0.0208(14) 0.0894(12) 0.3096(11)
H24 H 0.0700 0.1212 0.3317
H25 H 0.0345 0.0541 0.2792
H26 H 0.0052 0.0608 0.3432
C36 C 0.0750(16) 0.5478(11) 0.4181(11)
H33 H 0.0485 0.5801 0.4430
H34 H 0.0359 0.5407 0.3726
H35 H 0.1268 0.5720 0.4166
C37 C 0.0968(12) 0.4697(11) 0.4531(12)
C38 C 0.1471(12) 0.3799(10) 0.5418(7)
H36 H 0.1857 0.3809 0.5879
H37 H 0.1714 0.3488 0.5146
H38 H 0.0929 0.3583 0.5405
C39 C 0.1672(15) 0.5253(12) 0.5598(9)
H39 H 0.1862 0.5063 0.6056
H40 H 0.1232 0.5636 0.5545
H41 H 0.2150 0.5480 0.5501
Eu11 Eu 0.99337(2) 0.32511(3) 0.32643(2)
Eu14 Eu 0.99337(2) 0.17489(3) 0.82643(2)
O40 O 0.2210(4) 0.3027(4) 0.0881(3)
O42 O 0.3571(4) 0.3129(4) 0.1485(3)
O48 O 0.0155(3) 0.3585(4) 0.2242(3)
O50 O 0.1090(3) 0.3597(4) 0.1695(3)
O51 O 0.2101(4) 0.2067(4) 0.2064(3)
O53 O 0.3428(4) 0.2291(4) 0.2733(3)
O11 O 0.9178(4) 0.4471(4) 0.3031(3)
O12 O 0.8409(4) 0.3514(3) 0.2448(3)
O13 O 0.7899(4) 0.7067(4) 0.2936(3)
O14 O 0.6572(4) 0.7291(4) 0.2267(3)
O15 O 0.5108(5) 0.5918(4) 0.0352(3)
O17 O 0.9497(5) 0.2080(4) 0.2739(4)
N3 N 0.5800(5) 0.4798(4) 0.0801(3)
H5 H 0.5754 0.4305 0.0745
N5 N 0.8739(10) 0.0992(8) 0.2369(8)
C19 C 0.8494(5) 0.4211(6) 0.2612(4)
C20 C 0.7782(5) 0.4758(5) 0.2284(4)
C21 C 0.7811(6) 0.5515(6) 0.2523(4)
H12 H 0.8271 0.5671 0.2899
C22 C 0.7171(5) 0.6030(5) 0.2212(4)
C23 C 0.6497(6) 0.5805(6) 0.1647(4)
H13 H 0.6072 0.6162 0.1430
C24 C 0.6442(5) 0.5069(5) 0.1399(4)
C25 C 0.7088(5) 0.4540(5) 0.1721(4)
H14 H 0.7053 0.4036 0.1558
C26 C 0.7213(6) 0.6851(6) 0.2481(5)
C27 C 0.5251(5) 0.5241(5) 0.0308(3)
C33 C 0.9479(10) 0.1390(11) 0.2707(7)
C34 C 0.8004(13) 0.1476(14) 0.1993(15)
H27 H 0.7968 0.1513 0.1525
H28 H 0.8070 0.1985 0.2189
H29 H 0.7487 0.1245 0.2020
C35 C 0.8624(13) 0.0125(10) 0.2283(11)
Eu7 Eu 0.74437(2) 0.83846(3) 0.29197(2)
O20 O 0.0822(4) 0.5529(4) 0.6969(3)
O21 O 0.1591(4) 0.6486(3) 0.7552(3)
O22 O 0.2101(4) 0.2933(4) 0.7064(3)
O23 O 0.3428(4) 0.2709(4) 0.7733(3)
O24 O 0.4892(5) 0.4082(4) 0.9648(3)
N7 N 0.4200(5) 0.5202(4) 0.9199(3)
H42 H 0.4246 0.5695 0.9255
C40 C 0.1506(5) 0.5789(6) 0.7388(4)
C41 C 0.2218(5) 0.5242(5) 0.7716(4)
C42 C 0.2189(6) 0.4485(6) 0.7477(4)
H43 H 0.1729 0.4329 0.7101
C43 C 0.2829(5) 0.3970(5) 0.7788(4)
C44 C 0.3503(6) 0.4195(6) 0.8353(4)
H44 H 0.3928 0.3838 0.8570
C45 C 0.3558(5) 0.4931(5) 0.8601(4)
C46 C 0.2912(5) 0.5460(5) 0.8279(4)
H45 H 0.2947 0.5964 0.8442
C47 C 0.2787(6) 0.3149(6) 0.7519(5)
C48 C 0.4749(5) 0.4759(5) 0.9692(3)
Eu4 Eu 0.00663(2) 0.67489(3) 0.67357(2)
O36 O 0.0503(5) 0.7920(4) 0.7261(4)
N11 N 0.1261(10) 0.9008(8) 0.7631(8)
C72 C 0.0521(10) 0.8610(11) 0.7293(7)
C73 C 0.1996(13) 0.8524(14) 0.8007(15)
H68 H 0.2032 0.8487 0.8475
H69 H 0.1930 0.8015 0.7811
H70 H 0.2513 0.8755 0.7980
C74 C 0.1376(13) 0.9875(10) 0.7717(11)
O44 O 0.1036(4) 0.6956(5) 0.6089(3)
Eu3 Eu 0.74437(2) 0.66154(3) 0.79197(2)
O25 O 0.7664(4) 0.6580(4) 0.6865(3)
O26 O 0.8642(4) 0.7156(4) 0.6511(3)
O27 O 0.7790(4) 0.8027(4) 0.4119(3)
O28 O 0.6429(4) 0.8129(4) 0.3515(3)
O29 O 0.4067(4) 0.7940(4) 0.4180(3)
O30 O 0.3345(5) 0.6977(7) 0.5362(5)
O35 O 0.7550(5) 0.5387(4) 0.8486(4)
O37 O 0.9263(6) 0.5897(5) 0.5872(4)
O38 O 0.6255(5) 0.5854(5) 0.7237(3)
H46 H 0.5964 0.6114 0.6892
H47 H 0.5937 0.5734 0.7470
N8 N 0.4840(4) 0.7275(5) 0.5133(4)
H48 H 0.4768 0.7004 0.5455
N9 N 0.2619(4) 0.7713(5) 0.4450(4)
H49 H 0.2698 0.7947 0.4113
N10 N 0.7384(9) 0.5056(5) 0.9400(7)
N12 N 0.8669(9) 0.5376(10) 0.4865(9)
C49 C 0.7886(5) 0.6964(6) 0.6453(4)
C50 C 0.7218(5) 0.7221(5) 0.5806(4)
C51 C 0.6350(5) 0.7148(6) 0.5741(4)
H50 H 0.6207 0.6951 0.6104
C52 C 0.5699(5) 0.7357(6) 0.5157(4)
C53 C 0.5910(5) 0.7663(6) 0.4602(4)
H51 H 0.5481 0.7823 0.4207
C54 C 0.6778(5) 0.7716(5) 0.4663(4)
C55 C 0.7411(5) 0.7513(5) 0.5263(4)
H52 H 0.7986 0.7575 0.5300
C56 C 0.7006(5) 0.7986(6) 0.4067(4)
C57 C 0.4117(5) 0.7557(6) 0.4681(4)
C58 C 0.3312(6) 0.7368(9) 0.4878(6)
C59 C 0.1762(5) 0.7748(6) 0.4474(5)
C60 C 0.1572(5) 0.7539(6) 0.5037(5)
H53 H 0.1997 0.7345 0.5420
C61 C 0.0716(5) 0.7622(6) 0.5027(4)
C62 C 0.0089(5) 0.7911(5) 0.4470(4)
C63 C 0.0304(5) 0.8118(5) 0.3893(4)
C64 C 0.1146(5) 0.8021(6) 0.3903(4)
H55 H 0.1290 0.8143 0.3520
C65 C 0.0514(6) 0.7361(7) 0.5654(5)
C67 C 0.8853(9) 0.5214(10) 0.9564(9)
H56 H 0.9223 0.5354 0.9312
H57 H 0.8930 0.5572 0.9931
H58 H 0.8993 0.4701 0.9744
C68 C 0.7920(9) 0.5235(5) 0.9096(6)
C69 C 0.6459(8) 0.5049(9) 0.9019(9)
H59 H 0.6227 0.5558 0.9023
H60 H 0.6366 0.4893 0.8559
H61 H 0.6177 0.4692 0.9228
C71 C 0.9792(14) 0.9106(12) 0.6904(11)
H65 H 0.9300 0.8788 0.6683
H66 H 0.9655 0.9459 0.7208
H67 H 0.9948 0.9392 0.6568
C75 C 0.9250(16) 0.4522(11) 0.5819(11)
H74 H 0.9515 0.4199 0.5570
H75 H 0.9641 0.4593 0.6274
H76 H 0.8732 0.4280 0.5834
C76 C 0.9032(12) 0.5303(11) 0.5469(12)
C77 C 0.8529(12) 0.6201(10) 0.4582(7)
H77 H 0.8143 0.6191 0.4121
H78 H 0.8286 0.6512 0.4854
H79 H 0.9071 0.6417 0.4595
C78 C 0.8328(15) 0.4747(12) 0.4402(9)
H80 H 0.8138 0.4937 0.3944
H81 H 0.8768 0.4364 0.4455
H82 H 0.7850 0.4520 0.4499
Eu12 Eu 0.00663(2) 0.82511(3) 0.17357(2)
O39 O 0.7790(4) 0.6973(4) 0.9119(3)
O41 O 0.6429(4) 0.6871(4) 0.8515(3)
O46 O 0.9818(4) 0.7599(5) 0.5711(3)
O47 O 0.9845(3) 0.6415(4) 0.7758(3)
O49 O 0.8910(3) 0.6403(4) 0.8305(3)
O52 O 0.7899(4) 0.7933(4) 0.7936(3)
O54 O 0.6572(4) 0.7709(4) 0.7267(3)
O33 O 0.9845(3) 0.8585(4) 0.2758(3)
O34 O 0.8910(3) 0.8597(4) 0.3305(3)
H54 H 0.9529 0.7970 0.4472
C66 C 0.9647(4) 0.8431(5) 0.3268(4)
H54_2 H 0.0471 0.2970 0.0528
C66_2 C 0.0353(4) 0.3431(5) 0.1732(4)
O32 O 0.0182(4) 0.2599(5) 0.9289(3)
O29_2 O 0.5933(4) 0.2940(4) 0.0820(3)
N9_2 N 0.7381(4) 0.2713(5) 0.0550(4)
H49_2 H 0.7302 0.2947 0.0887
N12_2 N 0.1331(9) 0.0376(10) 0.0135(9)
C53_2 C 0.4090(5) 0.2663(6) 0.0398(4)
H51_2 H 0.4519 0.2823 0.0793
C54_2 C 0.3222(5) 0.2716(5) 0.0337(4)
C56_2 C 0.2994(5) 0.2986(6) 0.0933(4)
C57_2 C 0.5883(5) 0.2557(6) 0.0319(4)
C58_2 C 0.6688(6) 0.2368(9) 0.0122(6)
C59_2 C 0.8238(5) 0.2748(6) 0.0526(5)
C62_2 C 0.9911(5) 0.2911(5) 0.0530(4)
C63_2 C 0.9696(5) 0.3118(5) 0.1107(4)
C64_2 C 0.8854(5) 0.3021(6) 0.1097(4)
H55_2 H 0.8710 0.3143 0.1480
C77_2 C 0.1471(12) 0.1201(10) 0.0418(7)
H77_2 H 0.1857 0.1191 0.0879
H78_2 H 0.1714 0.1512 0.0146
H79_2 H 0.0929 0.1417 0.0405
O25_2 O 0.2336(4) 0.1580(4) 0.8135(3)
O26_2 O 0.1358(4) 0.2156(4) 0.8489(3)
O30_2 O 0.6655(5) 0.1977(7) 0.9638(5)
O31 O 0.8964(4) 0.1956(5) 0.8911(3)
O35_2 O 0.2450(5) 0.0387(4) 0.6514(4)
O37_2 O 0.0737(6) 0.0897(5) 0.9128(4)
O38_2 O 0.3745(5) 0.0854(5) 0.7763(3)
H46_2 H 0.4036 0.1114 0.8108
H47_2 H 0.4063 0.0734 0.7530
N8_2 N 0.5160(4) 0.2275(5) 0.9867(4)
H48_2 H 0.5232 0.2004 0.9545
N10_2 N 0.2616(9) 0.0056(5) 0.5600(7)
C49_2 C 0.2114(5) 0.1964(6) 0.8547(4)
C50_2 C 0.2782(5) 0.2221(5) 0.9194(4)
C51_2 C 0.3650(5) 0.2148(6) 0.9259(4)
H50_2 H 0.3793 0.1951 0.8896
C52_2 C 0.4301(5) 0.2357(6) 0.9843(4)
C55_2 C 0.2589(5) 0.2513(5) 0.9737(4)
H52_2 H 0.2014 0.2575 0.9700
C60_2 C 0.8428(5) 0.2539(6) 0.9963(5)
H53_2 H 0.8003 0.2345 0.9580
C61_2 C 0.9284(5) 0.2622(6) 0.9973(4)
C65_2 C 0.9486(6) 0.2361(7) 0.9346(5)
C67_2 C 0.1147(9) 0.0214(10) 0.5436(9)
H56_2 H 0.0777 0.0354 0.5688
H57_2 H 0.1070 0.0572 0.5069
C68_2 C 0.2080(9) 0.0235(5) 0.5904(6)
C69_2 C 0.3541(8) 0.0049(9) 0.5981(9)
H59_2 H 0.3773 0.0558 0.5977
H63 H 0.2565 0.0214 0.4640
C71_2 C 0.0208(14) 0.4106(12) 0.8096(11)
H65_2 H 0.0700 0.3788 0.8317
H66_2 H 0.0345 0.4459 0.7792
H67_2 H 0.0052 0.4392 0.8432
C76_2 C 0.0968(12) 0.0303(11) 0.9531(12)
O15_2 O 0.4892(5) 0.0918(4) 0.4648(3)
C21_2 C 0.2189(6) 0.0515(6) 0.2477(4)
H12_2 H 0.1729 0.0671 0.2101
C22_2 C 0.2829(5) 0.1030(5) 0.2788(4)
C23_2 C 0.3503(6) 0.0805(6) 0.3353(4)
H13_2 H 0.3928 0.1162 0.3570
C24_2 C 0.3558(5) 0.0069(5) 0.3601(4)
C26_2 C 0.2787(6) 0.1851(6) 0.2519(5)
C27_2 C 0.4749(5) 0.0241(5) 0.4692(3)
O20_2 O 0.9178(4) 0.0529(4) 0.8031(3)
O21_2 O 0.8409(4) 0.1486(3) 0.7448(3)
N7_2 N 0.5800(5) 0.0202(4) 0.5801(3)
H42_2 H 0.5754 0.0695 0.5745
C40_2 C 0.8494(5) 0.0789(6) 0.7612(4)
C41_2 C 0.7782(5) 0.0242(5) 0.7284(4)
C46_2 C 0.7088(5) 0.0460(5) 0.6721(4)
H45_2 H 0.7053 0.0964 0.6558
O36_2 O 0.9497(5) 0.2920(4) 0.7739(4)
N11_2 N 0.8739(10) 0.4008(8) 0.7369(8)
C72_2 C 0.9479(10) 0.3610(11) 0.7707(7)
C73_2 C 0.8004(13) 0.3524(14) 0.6993(15)
H68_2 H 0.7968 0.3487 0.6525
H69_2 H 0.8070 0.3015 0.7189
H70_2 H 0.7487 0.3755 0.7020
C74_2 C 0.8624(13) 0.4875(10) 0.7283(11)
H71 H 0.8106 0.5027 0.7363
H72 H 0.9108 0.5131 0.7604
H73 H 0.8588 0.5016 0.6829
O11_2 O 0.0822(4) 0.9471(4) 0.1969(3)
O12_2 O 0.1591(4) 0.8514(3) 0.2552(3)
O17_2 O 0.0503(5) 0.7080(4) 0.2261(4)
N3_2 N 0.4200(5) 0.9798(4) 0.4199(3)
H5_2 H 0.4246 0.9305 0.4255
N5_2 N 0.1261(10) 0.5992(8) 0.2631(8)
C19_2 C 0.1506(5) 0.9211(6) 0.2388(4)
C20_2 C 0.2218(5) 0.9758(5) 0.2716(4)
C25_2 C 0.2912(5) 0.9540(5) 0.3279(4)
H14_2 H 0.2947 0.9036 0.3442
C33_2 C 0.0521(10) 0.6390(11) 0.2293(7)
C34_2 C 0.1996(13) 0.6476(14) 0.3007(15)
H27_2 H 0.2032 0.6513 0.3475
H28_2 H 0.1930 0.6985 0.2811
H29_2 H 0.2513 0.6245 0.2980
C35_2 C 0.1376(13) 0.5125(10) 0.2717(11)
H30 H 0.1894 0.4973 0.2637
H31 H 0.0892 0.4869 0.2396
H32 H 0.1412 0.4984 0.3171
O24_2 O 0.5108(5) 0.9082(4) 0.5352(3)
C42_2 C 0.7811(6) 0.9485(6) 0.7523(4)
H43_2 H 0.8271 0.9329 0.7899
C43_2 C 0.7171(5) 0.8970(5) 0.7212(4)
C44_2 C 0.6497(6) 0.9195(6) 0.6647(4)
H44_2 H 0.6072 0.8838 0.6430
C45_2 C 0.6442(5) 0.9931(5) 0.6399(4)
C47_2 C 0.7213(6) 0.8149(6) 0.7481(5)
C48_2 C 0.5251(5) 0.9759(5) 0.5308(3)
O43 O 0.1036(4) 0.8044(5) 0.1089(3)
O1_2 O 0.7664(4) 0.8420(4) 0.1865(3)
O2_2 O 0.8642(4) 0.7844(4) 0.1511(3)
O6_2 O 0.3345(5) 0.8023(7) 0.0362(5)
O16_2 O 0.7550(5) 0.9613(4) 0.3486(4)
O18_2 O 0.9263(6) 0.9103(5) 0.0872(4)
O19_2 O 0.6255(5) 0.9146(5) 0.2237(3)
H1_2 H 0.5964 0.8886 0.1892
H2_2 H 0.5937 0.9266 0.2470
N1_2 N 0.4840(4) 0.7725(5) 0.0133(4)
H3_2 H 0.4768 0.7996 0.0455
N4_2 N 0.7384(9) 0.9944(5) 0.4400(7)
C1_2 C 0.7886(5) 0.8036(6) 0.1453(4)
C2_2 C 0.7218(5) 0.7779(5) 0.0806(4)
C3_2 C 0.6350(5) 0.7852(6) 0.0741(4)
H6_2 H 0.6207 0.8049 0.1104
C4_2 C 0.5699(5) 0.7643(6) 0.0157(4)
C7_2 C 0.7411(5) 0.7487(5) 0.0263(4)
H8_2 H 0.7986 0.7425 0.0300
C12_2 C 0.1572(5) 0.7461(6) 0.0037(5)
H9_2 H 0.1997 0.7655 0.0420
C13_2 C 0.0716(5) 0.7378(6) 0.0027(4)
C17_2 C 0.0514(6) 0.7639(7) 0.0654(5)
C28_2 C 0.8853(9) 0.9786(10) 0.4564(9)
H15_2 H 0.9223 0.9646 0.4312
H16_2 H 0.8930 0.9428 0.4931
C29_2 C 0.7920(9) 0.9765(5) 0.4096(6)
C30_2 C 0.6459(8) 0.9951(9) 0.4019(9)
H18_2 H 0.6227 0.9442 0.4023
H22 H 0.7435 0.9786 0.5360
C32_2 C 0.9792(14) 0.5894(12) 0.1904(11)
H24_2 H 0.9300 0.6212 0.1683
H25_2 H 0.9655 0.5541 0.2208
H26_2 H 0.9948 0.5608 0.1568
C37_2 C 0.9032(12) 0.9697(11) 0.0469(12)
O45 O 0.9818(4) 0.7401(5) 0.0711(3)
O5_2 O 0.4067(4) 0.7060(4) 0.9180(3)
N2_2 N 0.2619(4) 0.7287(5) 0.9450(4)
H4_2 H 0.2698 0.7053 0.9113
N6_2 N 0.8669(9) 0.9624(10) 0.9865(9)
C5_2 C 0.5910(5) 0.7337(6) 0.9602(4)
H7_2 H 0.5481 0.7177 0.9207
C6_2 C 0.6778(5) 0.7284(5) 0.9663(4)
C8_2 C 0.7006(5) 0.7014(6) 0.9067(4)
C9_2 C 0.4117(5) 0.7443(6) 0.9681(4)
C10_2 C 0.3312(6) 0.7632(9) 0.9878(6)
C11_2 C 0.1762(5) 0.7252(6) 0.9474(5)
C14_2 C 0.0089(5) 0.7089(5) 0.9470(4)
C15_2 C 0.0304(5) 0.6882(5) 0.8893(4)
C16_2 C 0.1146(5) 0.6979(6) 0.8903(4)
H11_2 H 0.1290 0.6857 0.8520
C38_2 C 0.8529(12) 0.8799(10) 0.9582(7)
H36_2 H 0.8143 0.8809 0.9121
H37_2 H 0.8286 0.8488 0.9854
H38_2 H 0.9071 0.8583 0.9595
H10_2 H 0.9529 0.7030 0.9472
C18_2 C 0.9647(4) 0.6569(5) 0.8268(4)
C31 C 0.2324(13) 0.5143(9) 0.9880(8)
H21 H 0.1707 0.5117 0.9700
H22_2 H 0.2565 0.4786 0.9640
H23 H 0.2509 0.5658 0.9825
H71_2 H 0.1894 0.0027 0.7637
H72_2 H 0.0892 0.0131 0.7396
H73_2 H 0.1412 0.0016 0.8171
H30_2 H 0.8106 0.9973 0.2363
H31_2 H 0.9108 0.9869 0.2604
H32_2 H 0.8588 0.9984 0.1829
C70 C 0.7676(13) 0.4857(9) 0.0120(8)
H62 H 0.8293 0.4883 0.0300
H63_2 H 0.7435 0.5214 0.0360
H64 H 0.7491 0.4342 0.0175
C78_2 C 0.1672(15) 0.9747(12) 0.0598(9)
H80_2 H 0.1862 0.9937 0.1056
H81_2 H 0.1232 0.9364 0.0545
H82_2 H 0.2150 0.9520 0.0501
H58_2 H 0.1007 0.9701 0.5256
H60_2 H 0.3634 0.9893 0.6441
H61_2 H 0.3823 0.9692 0.5772
C70_2 C 0.2324(13) 0.9857(9) 0.4880(8)
H62_2 H 0.1707 0.9883 0.4700
H64_2 H 0.2509 0.9342 0.4825
C75_2 C 0.0750(16) 0.9522(11) 0.9181(11)
H74_2 H 0.0485 0.9199 0.9430
H75_2 H 0.0359 0.9593 0.8726
H76_2 H 0.1268 0.9280 0.9166
H17_2 H 0.8993 0.0299 0.4744
H19_2 H 0.6366 0.0107 0.3559
H20_2 H 0.6177 0.0308 0.4228
C31_2 C 0.7676(13) 0.0143(9) 0.5120(8)
H21_2 H 0.8293 0.0117 0.5300
H23_2 H 0.7491 0.0658 0.5175
C36_2 C 0.9250(16) 0.0478(11) 0.0819(11)
H33_2 H 0.9515 0.0801 0.0570
H34_2 H 0.9641 0.0407 0.1274
H35_2 H 0.8732 0.0720 0.0834
C39_2 C 0.8328(15) 0.0253(12) 0.9402(9)
H39_2 H 0.8138 0.0063 0.8944
H40_2 H 0.8768 0.0636 0.9455
H41_2 H 0.7850 0.0480 0.9499
loop_
_geom_bond_atom_site_label_1
_geom_bond_atom_site_label_2
_geom_bond_site_symmetry_1
_geom_bond_site_symmetry_2
O9 C18 1_555 1_555
O10 C18 1_555 1_555
Eu10 O10 1_555 1_555
Eu1 O1 1_555 1_555
O1 C1 1_555 1_555
O2 C1 1_555 1_555
O3 C8 1_555 1_555
O4 C8 1_555 1_555
O5 C9 1_555 1_555
O6 C10 1_555 1_555
O7 C17 1_555 1_555
O16 Eu1 1_555 1_555
O19 Eu1 1_555 1_555
H1 O19 1_555 1_555
H2 O19 1_555 1_555
N1 H3 1_555 1_555
N2 H4 1_555 1_555
N4 C29 1_555 1_555
N6 C37 1_555 1_555
C1 C2 1_555 1_555
C2 C3 1_555 1_555
C3 H6 1_555 1_555
C4 N1 1_555 1_555
C5 C4 1_555 1_555
H7 C5 1_555 1_555
C6 C5 1_555 1_555
C7 C2 1_555 1_555
H8 C7 1_555 1_555
C8 C6 1_555 1_555
C9 N1 1_555 1_555
C10 N2 1_555 1_555
C11 N2 1_555 1_555
C12 C11 1_555 1_555
H9 C12 1_555 1_555
C13 C12 1_555 1_555
C14 C13 1_555 1_555
C15 C14 1_555 1_555
C16 C11 1_555 1_555
H11 C16 1_555 1_555
C17 C13 1_555 1_555
C28 H15 1_555 1_555
H16 C28 1_555 1_555
H17 C28 1_555 1_555
C29 O16 1_555 1_555
C30 N4 1_555 1_555
H18 C30 1_555 1_555
H19 C30 1_555 1_555
H20 C30 1_555 1_555
C32 H24 1_555 1_555
H25 C32 1_555 1_555
H26 C32 1_555 1_555
C36 H33 1_555 1_555
H34 C36 1_555 1_555
H35 C36 1_555 1_555
C37 O18 1_555 1_555
C38 N6 1_555 1_555
H36 C38 1_555 1_555
H37 C38 1_555 1_555
H38 C38 1_555 1_555
C39 N6 1_555 1_555
H39 C39 1_555 1_555
H40 C39 1_555 1_555
H41 C39 1_555 1_555
Eu10 O3 1_555 1_555
Eu11 O7 1_555 1_555
O40 Eu1 1_555 1_555
O42 Eu1 1_555 1_555
O50 Eu1 1_555 1_555
O51 Eu1 1_555 1_555
O53 Eu1 1_555 1_555
O4 Eu10 1_555 1_555
C3 C4 1_555 1_555
C6 C7 1_555 1_555
C9 C10 1_555 1_555
C15 C16 1_555 1_555
C28 C29 1_555 1_555
C36 C37 1_555 1_555
O11 Eu11 1_555 1_555
O12 Eu11 1_555 1_555
O13 C26 1_555 1_555
O14 C26 1_555 1_555
O15 C27 1_555 1_555
O17 Eu11 1_555 1_555
N3 H5 1_555 1_555
N5 C33 1_555 1_555
C19 O11 1_555 1_555
C20 C19 1_555 1_555
C21 C20 1_555 1_555
H12 C21 1_555 1_555
C22 C21 1_555 1_555
C23 C22 1_555 1_555
H13 C23 1_555 1_555
C24 N3 1_555 1_555
C25 C20 1_555 1_555
H14 C25 1_555 1_555
C26 C22 1_555 1_555
C27 N3 1_555 1_555
C33 O17 1_555 1_555
C34 N5 1_555 1_555
H27 C34 1_555 1_555
H28 C34 1_555 1_555
H29 C34 1_555 1_555
C35 N5 1_555 1_555
Eu7 O13 1_555 1_555
O12 C19 1_555 1_555
O14 Eu7 1_555 1_555
C23 C24 1_555 1_555
C24 C25 1_555 1_555
O20 C40 1_555 1_555
O21 C40 1_555 1_555
O22 C47 1_555 1_555
O23 C47 1_555 1_555
O24 C48 1_555 1_555
N7 H42 1_555 1_555
C40 C41 1_555 1_555
C41 C42 1_555 1_555
C42 H43 1_555 1_555
C43 C42 1_555 1_555
C44 C43 1_555 1_555
H44 C44 1_555 1_555
C45 N7 1_555 1_555
C46 C41 1_555 1_555
H45 C46 1_555 1_555
C47 C43 1_555 1_555
Eu4 O20 1_555 1_555
O36 Eu4 1_555 1_555
N11 C72 1_555 1_555
C72 O36 1_555 1_555
C73 N11 1_555 1_555
H68 C73 1_555 1_555
H69 C73 1_555 1_555
H70 C73 1_555 1_555
C74 N11 1_555 1_555
Eu10 O22 1_555 1_555
O44 Eu4 1_555 1_555
O21 Eu4 1_555 1_555
O23 Eu10 1_555 1_555
N7 C48 1_555 1_555
C44 C45 1_555 1_555
C45 C46 1_555 1_555
Eu3 O25 1_555 1_555
O25 C49 1_555 1_555
O27 C56 1_555 1_555
O28 C56 1_555 1_555
O29 C57 1_555 1_555
O30 C58 1_555 1_555
O44 C65 1_555 1_555
O35 Eu3 1_555 1_555
O38 Eu3 1_555 1_555
H46 O38 1_555 1_555
H47 O38 1_555 1_555
N8 H48 1_555 1_555
N9 H49 1_555 1_555
N10 C68 1_555 1_555
N12 C76 1_555 1_555
C49 O26 1_555 1_555
C50 C49 1_555 1_555
C51 C50 1_555 1_555
H50 C51 1_555 1_555
C52 N8 1_555 1_555
C53 C52 1_555 1_555
H51 C53 1_555 1_555
C54 C53 1_555 1_555
C55 C50 1_555 1_555
H52 C55 1_555 1_555
C56 C54 1_555 1_555
C57 N8 1_555 1_555
C58 N9 1_555 1_555
C59 N9 1_555 1_555
C60 C59 1_555 1_555
H53 C60 1_555 1_555
C61 C60 1_555 1_555
C62 C61 1_555 1_555
C63 C62 1_555 1_555
C64 C59 1_555 1_555
H55 C64 1_555 1_555
C65 C61 1_555 1_555
C67 H56 1_555 1_555
H57 C67 1_555 1_555
H58 C67 1_555 1_555
C68 O35 1_555 1_555
C69 N10 1_555 1_555
H59 C69 1_555 1_555
H60 C69 1_555 1_555
H61 C69 1_555 1_555
C71 H65 1_555 1_555
H66 C71 1_555 1_555
H67 C71 1_555 1_555
C75 H74 1_555 1_555
H75 C75 1_555 1_555
H76 C75 1_555 1_555
C76 O37 1_555 1_555
C77 N12 1_555 1_555
H77 C77 1_555 1_555
H78 C77 1_555 1_555
H79 C77 1_555 1_555
C78 N12 1_555 1_555
H80 C78 1_555 1_555
H81 C78 1_555 1_555
H82 C78 1_555 1_555
Eu7 O27 1_555 1_555
O39 Eu3 1_555 1_555
O41 Eu3 1_555 1_555
O49 Eu3 1_555 1_555
O52 Eu3 1_555 1_555
O54 Eu3 1_555 1_555
O28 Eu7 1_555 1_555
C51 C52 1_555 1_555
C54 C55 1_555 1_555
C57 C58 1_555 1_555
C63 C64 1_555 1_555
C67 C68 1_555 1_555
C75 C76 1_555 1_555
O33 C66 1_555 1_555
O34 C66 1_555 1_555
Eu7 O34 1_555 1_555
O48 C66_2 1_555 1_555
O50 C66_2 1_555 1_555
O40 C56_2 1_555 1_555
O42 C56_2 1_555 1_555
O29_2 C57_2 1_555 1_555
N9_2 H49_2 1_555 1_555
H51_2 C53_2 1_555 1_555
C54_2 C53_2 1_555 1_555
C56_2 C54_2 1_555 1_555
C58_2 N9_2 1_555 1_555
C59_2 N9_2 1_555 1_555
C63_2 C62_2 1_555 1_555
C64_2 C59_2 1_555 1_555
H55_2 C64_2 1_555 1_555
C77_2 N12_2 1_555 1_555
H77_2 C77_2 1_555 1_555
H78_2 C77_2 1_555 1_555
H79_2 C77_2 1_555 1_555
C57_2 C58_2 1_555 1_555
C63_2 C64_2 1_555 1_555
Eu10 O25_2 1_555 1_555
O25_2 C49_2 1_555 1_555
O31 C65_2 1_555 1_555
O35_2 Eu10 1_555 1_555
O38_2 Eu10 1_555 1_555
H46_2 O38_2 1_555 1_555
H47_2 O38_2 1_555 1_555
N8_2 H48_2 1_555 1_555
N10_2 C68_2 1_555 1_555
C49_2 O26_2 1_555 1_555
C50_2 C49_2 1_555 1_555
C51_2 C50_2 1_555 1_555
H50_2 C51_2 1_555 1_555
C52_2 N8_2 1_555 1_555
C55_2 C50_2 1_555 1_555
H52_2 C55_2 1_555 1_555
H53_2 C60_2 1_555 1_555
C61_2 C60_2 1_555 1_555
C65_2 C61_2 1_555 1_555
C67_2 H56_2 1_555 1_555
H57_2 C67_2 1_555 1_555
C68_2 O35_2 1_555 1_555
C69_2 N10_2 1_555 1_555
H59_2 C69_2 1_555 1_555
C71_2 H65_2 1_555 1_555
H66_2 C71_2 1_555 1_555
H67_2 C71_2 1_555 1_555
C76_2 O37_2 1_555 1_555
Eu14 O31 1_555 1_555
C51_2 C52_2 1_555 1_555
C67_2 C68_2 1_555 1_555
O51 C26_2 1_555 1_555
O53 C26_2 1_555 1_555
O15_2 C27_2 1_555 1_555
H12_2 C21_2 1_555 1_555
C22_2 C21_2 1_555 1_555
C23_2 C22_2 1_555 1_555
H13_2 C23_2 1_555 1_555
C26_2 C22_2 1_555 1_555
O20_2 C40_2 1_555 1_555
O21_2 C40_2 1_555 1_555
N7_2 H42_2 1_555 1_555
C40_2 C41_2 1_555 1_555
C46_2 C41_2 1_555 1_555
H45_2 C46_2 1_555 1_555
Eu14 O20_2 1_555 1_555
O36_2 Eu14 1_555 1_555
N11_2 C72_2 1_555 1_555
C72_2 O36_2 1_555 1_555
C73_2 N11_2 1_555 1_555
H68_2 C73_2 1_555 1_555
H69_2 C73_2 1_555 1_555
H70_2 C73_2 1_555 1_555
C74_2 N11_2 1_555 1_555
H71 C74_2 1_555 1_555
H72 C74_2 1_555 1_555
H73 C74_2 1_555 1_555
C23_2 C24_2 1_555 1_555
O21_2 Eu14 1_555 1_555
O11_2 Eu12 1_555 1_555
O12_2 Eu12 1_555 1_555
O17_2 Eu12 1_555 1_555
N3_2 H5_2 1_555 1_555
N5_2 C33_2 1_555 1_555
C19_2 O11_2 1_555 1_555
C20_2 C19_2 1_555 1_555
C25_2 C20_2 1_555 1_555
H14_2 C25_2 1_555 1_555
C33_2 O17_2 1_555 1_555
C34_2 N5_2 1_555 1_555
H27_2 C34_2 1_555 1_555
H28_2 C34_2 1_555 1_555
H29_2 C34_2 1_555 1_555
C35_2 N5_2 1_555 1_555
H30 C35_2 1_555 1_555
H31 C35_2 1_555 1_555
H32 C35_2 1_555 1_555
O52 C47_2 1_555 1_555
O54 C47_2 1_555 1_555
O24_2 C48_2 1_555 1_555
C42_2 H43_2 1_555 1_555
C43_2 C42_2 1_555 1_555
C44_2 C43_2 1_555 1_555
H44_2 C44_2 1_555 1_555
C47_2 C43_2 1_555 1_555
O43 Eu12 1_555 1_555
O12_2 C19_2 1_555 1_555
C44_2 C45_2 1_555 1_555
Eu7 O1_2 1_555 1_555
O1_2 C1_2 1_555 1_555
O2_2 C1_2 1_555 1_555
O43 C17_2 1_555 1_555
O16_2 Eu7 1_555 1_555
O19_2 Eu7 1_555 1_555
H1_2 O19_2 1_555 1_555
H2_2 O19_2 1_555 1_555
N1_2 H3_2 1_555 1_555
N4_2 C29_2 1_555 1_555
C1_2 C2_2 1_555 1_555
C2_2 C3_2 1_555 1_555
C3_2 H6_2 1_555 1_555
C4_2 N1_2 1_555 1_555
C7_2 C2_2 1_555 1_555
H8_2 C7_2 1_555 1_555
H9_2 C12_2 1_555 1_555
C13_2 C12_2 1_555 1_555
C17_2 C13_2 1_555 1_555
C28_2 H15_2 1_555 1_555
H16_2 C28_2 1_555 1_555
C29_2 O16_2 1_555 1_555
C30_2 N4_2 1_555 1_555
H18_2 C30_2 1_555 1_555
C32_2 H24_2 1_555 1_555
H25_2 C32_2 1_555 1_555
H26_2 C32_2 1_555 1_555
C37_2 O18_2 1_555 1_555
C3_2 C4_2 1_555 1_555
C28_2 C29_2 1_555 1_555
O39 C8_2 1_555 1_555
O41 C8_2 1_555 1_555
O5_2 C9_2 1_555 1_555
N2_2 H4_2 1_555 1_555
H7_2 C5_2 1_555 1_555
C6_2 C5_2 1_555 1_555
C8_2 C6_2 1_555 1_555
C10_2 N2_2 1_555 1_555
C11_2 N2_2 1_555 1_555
C15_2 C14_2 1_555 1_555
C16_2 C11_2 1_555 1_555
H11_2 C16_2 1_555 1_555
C38_2 N6_2 1_555 1_555
H36_2 C38_2 1_555 1_555
H37_2 C38_2 1_555 1_555
H38_2 C38_2 1_555 1_555
C9_2 C10_2 1_555 1_555
C15_2 C16_2 1_555 1_555
O47 C18_2 1_555 1_555
O49 C18_2 1_555 1_555
H21 C31 1_555 1_555
H22_2 C31 1_555 1_555
H23 C31 1_555 1_555
H62 C70 1_555 1_555
H63_2 C70 1_555 1_555
H64 C70 1_555 1_555
H80_2 C78_2 1_555 1_555
H81_2 C78_2 1_555 1_555
H82_2 C78_2 1_555 1_555
H62_2 C70_2 1_555 1_555
H64_2 C70_2 1_555 1_555
C75_2 H74_2 1_555 1_555
H75_2 C75_2 1_555 1_555
H76_2 C75_2 1_555 1_555
H21_2 C31_2 1_555 1_555
H23_2 C31_2 1_555 1_555
C36_2 H33_2 1_555 1_555
H34_2 C36_2 1_555 1_555
H35_2 C36_2 1_555 1_555
H39_2 C39_2 1_555 1_555
H40_2 C39_2 1_555 1_555
H41_2 C39_2 1_555 1_555

#END
