
###############################################################################
#
# This file contains modified crystal structure data generated from the
# MOF subset of the Cambridge Structural Database (CSD) v543 
# hosted by the Cambridge Crystallographic Data Centre (CCDC).
#
# This work is licensed under the Creative Commons
# Attribution-NonCommercial-ShareAlike 4.0 International License.
# To view a copy of this license, visit
# http://creativecommons.org/licenses/by-nc-sa/4.0/
# or send a letter to
# Creative Commons, PO Box 1866, Mountain View, CA 94042, USA.
#
# CIF created using the CSD Python API on 29 September 2022
# The structure has been converted into the P1 space group
# The structure has a 3D framework
# The original CSD entry ZECBUH is in the monoclinic crystal system
# The framework has been calculated to contain at least 10.0% void space
# The void calculation uses a probe of radius 1.32A, grid spacing 0.4
#
###############################################################################

data_ZECBUH
_chemical_formula_moiety         '(C156 H164 Gd8 N24 O76)n'
_symmetry_cell_setting           triclinic
_symmetry_space_group_name_H-M   'P 1'
_symmetry_Int_Tables_number      1
_space_group_name_Hall           'P 1'
loop_
_symmetry_equiv_pos_site_id
_symmetry_equiv_pos_as_xyz
1 x,y,z
_cell_length_a                   16.437(5)
_cell_length_b                   17.223(5)
_cell_length_c                   20.740(7)
_cell_angle_alpha                90
_cell_angle_beta                 109.584(5)
_cell_angle_gamma                90
_cell_volume                     5531.73
loop_
_atom_site_label
_atom_site_type_symbol
_atom_site_fract_x
_atom_site_fract_y
_atom_site_fract_z
Gd1 Gd 0.25965(3) 0.16124(3) 0.20690(2)
O1 O 0.1142(4) 0.1398(4) 0.1681(3)
O2 O 0.0188(4) 0.1400(4) 0.2226(3)
O16 O 0.2463(6) 0.0375(5) 0.1473(5)
O18 O 0.0766(6) 0.0878(6) 0.4116(5)
O19 O 0.3778(6) 0.0821(5) 0.2734(4)
H1 H 0.4075 0.1076 0.3085
H2 H 0.4092 0.0703 0.2497
N4 N 0.2081(8) 0.0122(6) 0.0376(7)
N6 N 0.1327(10) 0.0344(9) 0.5131(7)
C1 C 0.0404(6) 0.1545(6) 0.1700(4)
H8 H 0.0510 0.2023 0.0509
C28 C 0.3589(8) 0.0069(10) 0.0968(10)
H15 H 0.3987 0.0134 0.1425
H16 H 0.3720 0.0438 0.0670
C29 C 0.2675(9) 0.0201(4) 0.0965(6)
C30 C 0.1187(8) 0.0248(9) 0.0362(10)
H18 H 0.1121 0.0037 0.0770
H20 H 0.1066 0.0795 0.0339
C32 C 0.0240(12) 0.4126(11) 0.3107(10)
H24 H 0.0247 0.4197 0.3569
H25 H 0.0180 0.4622 0.2884
H26 H 0.0769 0.3886 0.3113
C37 C 0.0983(12) 0.0314(10) 0.4528(9)
C38 C 0.1459(13) 0.1165(10) 0.5427(7)
H36 H 0.1877 0.1432 0.5278
H37 H 0.1662 0.1137 0.5918
H38 H 0.0921 0.1441 0.5273
O40 O 0.0237(4) 0.2547(5) 0.4272(4)
O43 O 0.3606(5) 0.1870(5) 0.1464(4)
O45 O 0.2259(5) 0.1987(5) 0.0877(3)
O48 O 0.2381(4) 0.1547(5) 0.3124(3)
O50 O 0.1407(4) 0.2110(6) 0.3479(4)
O51 O 0.2111(5) 0.2922(5) 0.2052(4)
O53 O 0.3431(5) 0.2714(4) 0.2709(4)
O3 O 0.0237(4) 0.2453(5) 0.9272(4)
H21 H 0.2811 0.0150 0.9773
H22 H 0.1819 0.0116 0.9361
H17 H 0.3639 0.9552 0.0813
C36 C 0.0746(13) 0.9505(10) 0.4222(10)
H33 H 0.0413 0.9240 0.4456
H34 H 0.1263 0.9217 0.4272
H35 H 0.0411 0.9551 0.3745
C39 C 0.1594(13) 0.9693(11) 0.5612(8)
H39 H 0.1128 0.9551 0.5769
H40 H 0.2085 0.9844 0.5995
H41 H 0.1745 0.9257 0.5386
Gd10 Gd 0.00176(3) 0.67223(3) 0.17468(2)
Gd2 Gd 0.99824(3) 0.17223(3) 0.32532(2)
O6 O 0.5987(4) 0.2059(5) 0.0810(4)
O11 O 0.9221(4) 0.0511(5) 0.3032(3)
O12 O 0.8450(4) 0.1478(5) 0.2432(3)
O17 O 0.9574(6) 0.2914(5) 0.2732(5)
N1 N 0.7431(5) 0.2281(6) 0.0532(5)
H3 H 0.7349 0.2027 0.0863
N3 N 0.5798(5) 0.0199(5) 0.0793(4)
H5 H 0.5752 0.0693 0.0733
N5 N 0.8772(10) 0.3986(8) 0.2389(8)
C2 C 0.9754(6) 0.1885(6) 0.1112(5)
C3 C 0.8916(6) 0.1963(7) 0.1083(5)
H6 H 0.8764 0.1807 0.1457
C4 C 0.8286(6) 0.2268(7) 0.0514(5)
C7 C 0.9953(6) 0.2095(6) 0.0518(5)
C9 C 0.6736(6) 0.2633(8) 0.0105(6)
C10 C 0.5948(7) 0.2458(7) 0.0311(6)
C12 C 0.4121(6) 0.2380(7) 0.0382(5)
H9 H 0.4550 0.2231 0.0785
C13 C 0.3271(6) 0.2321(7) 0.0334(5)
C17 C 0.3030(6) 0.2037(7) 0.0920(6)
C19 C 0.8539(6) 0.0774(7) 0.2606(5)
C20 C 0.7807(6) 0.0214(6) 0.2278(5)
C25 C 0.7108(6) 0.0449(6) 0.1710(5)
H14 H 0.7079 0.0952 0.1542
C33 C 0.9516(12) 0.3633(10) 0.2739(9)
C34 C 0.8034(14) 0.3475(11) 0.1976(13)
H27 H 0.8254 0.3057 0.1777
H28 H 0.7635 0.3777 0.1620
H29 H 0.7743 0.3267 0.2270
C35 C 0.8602(13) 0.4825(10) 0.2352(10)
H30 H 0.8156 0.4937 0.2542
H31 H 0.8419 0.4990 0.1883
H32 H 0.9119 0.5098 0.2608
O42 O 0.9009(5) 0.1944(5) 0.3884(4)
O4 O 0.9009(5) 0.3056(5) 0.8884(4)
O5 O 0.6701(5) 0.3037(7) 0.9626(5)
O9 O 0.2381(4) 0.3453(5) 0.8124(3)
O10 O 0.1407(4) 0.2890(6) 0.8479(4)
N2 N 0.5214(5) 0.2744(6) 0.9868(4)
H4 H 0.5282 0.3026 0.9548
C5 C 0.8480(6) 0.2490(7) 0.9935(6)
H7 H 0.8056 0.2689 0.9551
C6 C 0.9322(7) 0.2406(7) 0.9951(5)
C8 C 0.9539(6) 0.2642(7) 0.9330(5)
C11 C 0.4352(6) 0.2658(7) 0.9840(5)
C14 C 0.2623(6) 0.2523(7) 0.9721(5)
H10 H 0.2046 0.2464 0.9681
C15 C 0.2837(6) 0.2808(7) 0.9176(5)
C16 C 0.3711(6) 0.2888(7) 0.9243(5)
H11 H 0.3862 0.3096 0.8885
C18 C 0.2161(6) 0.3063(7) 0.8532(5)
O22 O 0.2111(5) 0.2078(5) 0.7052(4)
O23 O 0.3431(5) 0.2286(4) 0.7709(4)
O24 O 0.4899(6) 0.0913(5) 0.9654(4)
C42 C 0.2174(6) 0.0532(6) 0.7465(5)
H43 H 0.1722 0.0684 0.7078
C43 C 0.2829(7) 0.1047(6) 0.7785(5)
C44 C 0.3522(6) 0.0796(6) 0.8355(5)
H44 H 0.3974 0.1134 0.8567
C45 C 0.3533(6) 0.0075(6) 0.8593(4)
C47 C 0.2786(7) 0.1850(7) 0.7512(5)
C48 C 0.4760(6) 0.0247(7) 0.9693(6)
Gd8 Gd 0.25965(3) 0.33876(3) 0.70690(2)
Gd12 Gd 0.99824(3) 0.32777(3) 0.82532(2)
O13 O 0.7889(5) 0.7922(5) 0.2948(4)
O14 O 0.6569(5) 0.7714(4) 0.2291(4)
O15 O 0.5101(6) 0.9087(5) 0.0346(4)
C21 C 0.7826(6) 0.9468(6) 0.2535(5)
H12 H 0.8278 0.9316 0.2922
C22 C 0.7171(7) 0.8953(6) 0.2215(5)
C23 C 0.6478(6) 0.9204(6) 0.1645(5)
H13 H 0.6026 0.8866 0.1433
C24 C 0.6467(6) 0.9925(6) 0.1407(4)
C26 C 0.7214(7) 0.8150(7) 0.2488(5)
C27 C 0.5240(6) 0.9753(7) 0.0307(6)
O28 O 0.0991(5) 0.6944(5) 0.1116(4)
O29 O 0.3299(5) 0.6963(7) 0.0374(5)
O33 O 0.7619(4) 0.6547(5) 0.1876(3)
O34 O 0.8593(4) 0.7110(6) 0.1521(4)
N9 N 0.4786(5) 0.7256(6) 0.0132(4)
H49 H 0.4718 0.6974 0.0452
C53 C 0.1520(6) 0.7510(7) 0.0065(6)
H51 H 0.1944 0.7311 0.0449
C54 C 0.0678(7) 0.7594(7) 0.0049(5)
C56 C 0.0461(6) 0.7358(7) 0.0670(5)
C59 C 0.5648(6) 0.7342(7) 0.0160(5)
C62 C 0.7377(6) 0.7477(7) 0.0279(5)
H54 H 0.7954 0.7536 0.0319
C63 C 0.7163(6) 0.7192(7) 0.0824(5)
C64 C 0.6289(6) 0.7112(7) 0.0757(5)
H55 H 0.6138 0.6904 0.1115
C66 C 0.7839(6) 0.6937(7) 0.1468(5)
Gd6 Gd 0.74035(3) 0.66124(3) 0.29310(2)
O20 O 0.0779(4) 0.9489(5) 0.6968(3)
O21 O 0.1550(4) 0.8522(5) 0.7568(3)
N7 N 0.4202(5) 0.9801(5) 0.9207(4)
H42 H 0.4248 0.9307 0.9267
C40 C 0.1461(6) 0.9226(7) 0.7394(5)
C41 C 0.2193(6) 0.9786(6) 0.7722(5)
C46 C 0.2892(6) 0.9551(6) 0.8290(5)
H45 H 0.2921 0.9048 0.8458
Gd4 Gd 0.00176(3) 0.82777(3) 0.67468(2)
O30 O 0.4013(4) 0.7941(5) 0.9190(4)
O31 O 0.6394(5) 0.8130(5) 0.8536(4)
O32 O 0.7741(5) 0.8013(5) 0.9123(3)
O36 O 0.0426(6) 0.7086(5) 0.7268(5)
N8 N 0.2569(5) 0.7719(6) 0.9468(5)
H48 H 0.2651 0.7973 0.9137
N11 N 0.1228(10) 0.6014(8) 0.7611(8)
C50 C 0.0246(6) 0.8115(6) 0.8888(5)
C51 C 0.1084(6) 0.8037(7) 0.8917(5)
H50 H 0.1236 0.8193 0.8543
C52 C 0.1714(6) 0.7732(7) 0.9486(5)
C55 C 0.0047(6) 0.7905(6) 0.9482(5)
C57 C 0.3264(6) 0.7367(8) 0.9895(6)
C58 C 0.4052(7) 0.7542(7) 0.9689(6)
C60 C 0.5879(6) 0.7620(7) 0.9618(5)
H53 H 0.5450 0.7769 0.9215
C61 C 0.6729(6) 0.7679(7) 0.9666(5)
C65 C 0.6970(6) 0.7963(7) 0.9080(6)
C72 C 0.0484(12) 0.6367(10) 0.7261(9)
C73 C 0.1966(14) 0.6525(11) 0.8024(13)
H68 H 0.1746 0.6943 0.8223
H69 H 0.2365 0.6223 0.8380
H70 H 0.2257 0.6733 0.7730
C74 C 0.1398(13) 0.5175(10) 0.7648(10)
H71 H 0.1844 0.5063 0.7458
H72 H 0.1581 0.5010 0.8117
H73 H 0.0881 0.4902 0.7392
Gd7 Gd 0.74035(3) 0.83876(3) 0.79310(2)
O41 O 0.0991(5) 0.8056(5) 0.6116(4)
H58 H 0.6361 0.0448 0.9187
C75 C 0.9254(13) 0.0495(10) 0.5778(10)
H74 H 0.9587 0.0760 0.5544
H75 H 0.8737 0.0783 0.5728
H76 H 0.9589 0.0449 0.6255
C78 C 0.8406(13) 0.0307(11) 0.4388(8)
H80 H 0.8872 0.0449 0.4231
H81 H 0.7915 0.0156 0.4005
H82 H 0.8255 0.0743 0.4614
O27 O 0.9763(4) 0.7547(5) 0.0728(4)
H62 H 0.7189 0.9850 0.0227
H63 H 0.8181 0.9884 0.0639
O25 O 0.8858(4) 0.8602(4) 0.8319(3)
O26 O 0.9812(4) 0.8600(4) 0.7774(3)
O35 O 0.7537(6) 0.9625(5) 0.8527(5)
O37 O 0.9234(6) 0.9122(6) 0.5884(5)
O38 O 0.6222(6) 0.9179(5) 0.7266(4)
H46 H 0.5925 0.8924 0.6915
H47 H 0.5908 0.9297 0.7503
N10 N 0.7919(8) 0.9878(6) 0.9624(7)
N12 N 0.8673(10) 0.9656(9) 0.4869(7)
C49 C 0.9596(6) 0.8455(6) 0.8300(4)
H52 H 0.9490 0.7977 0.9491
C67 C 0.6411(8) 0.9931(10) 0.9032(10)
H56 H 0.6013 0.9866 0.8575
H57 H 0.6280 0.9562 0.9330
C68 C 0.7325(9) 0.9799(4) 0.9035(6)
C69 C 0.8813(8) 0.9752(9) 0.9638(10)
H59 H 0.8879 0.9963 0.9230
H61 H 0.8934 0.9205 0.9661
C71 C 0.9760(12) 0.5874(11) 0.6893(10)
H65 H 0.9753 0.5803 0.6431
H66 H 0.9820 0.5378 0.7116
H67 H 0.9231 0.6114 0.6887
C76 C 0.9017(12) 0.9686(10) 0.5472(9)
C77 C 0.8541(13) 0.8835(10) 0.4573(7)
H77 H 0.8123 0.8568 0.4722
H78 H 0.8338 0.8863 0.4082
H79 H 0.9079 0.8559 0.4727
O39 O 0.9763(4) 0.7453(5) 0.5728(4)
O47 O 0.7619(4) 0.8453(5) 0.6876(3)
O49 O 0.8593(4) 0.7890(6) 0.6521(4)
O52 O 0.7889(5) 0.7078(5) 0.7948(4)
O54 O 0.6569(5) 0.7286(4) 0.7291(4)
O25_2 O 0.1142(4) 0.3602(4) 0.6681(3)
O26_2 O 0.0188(4) 0.3600(4) 0.7226(3)
O35_2 O 0.2463(6) 0.4625(5) 0.6473(5)
O37_2 O 0.0766(6) 0.4122(6) 0.9116(5)
O38_2 O 0.3778(6) 0.4179(5) 0.7734(4)
H46_2 H 0.4075 0.3924 0.8085
H47_2 H 0.4092 0.4297 0.7497
N10_2 N 0.2081(8) 0.4878(6) 0.5376(7)
C49_2 C 0.0404(6) 0.3455(6) 0.6700(4)
H52_2 H 0.0510 0.2977 0.5509
C67_2 C 0.3589(8) 0.4931(10) 0.5968(10)
H56_2 H 0.3987 0.4866 0.6425
H57_2 H 0.3720 0.4562 0.5670
H58_2 H 0.3639 0.5448 0.5813
C68_2 C 0.2675(9) 0.4799(4) 0.5965(6)
C69_2 C 0.1187(8) 0.4752(9) 0.5362(10)
H59_2 H 0.1121 0.4963 0.5770
H60 H 0.0792 0.5005 0.4969
H61_2 H 0.1066 0.4205 0.5339
C70 C 0.2271(14) 0.5079(10) 0.4754(7)
H62_2 H 0.2811 0.4850 0.4773
H63_2 H 0.1819 0.4884 0.4361
H64 H 0.2305 0.5633 0.4720
C71_2 C 0.0240(12) 0.0874(11) 0.8107(10)
H65_2 H 0.0247 0.0803 0.8569
H66_2 H 0.0180 0.0378 0.7884
H67_2 H 0.0769 0.1114 0.8113
C75_2 C 0.0746(13) 0.5495(10) 0.9222(10)
H74_2 H 0.0413 0.5760 0.9456
H75_2 H 0.1263 0.5783 0.9272
H76_2 H 0.0411 0.5449 0.8745
C76_2 C 0.0983(12) 0.4686(10) 0.9528(9)
O44 O 0.3606(5) 0.3130(5) 0.6464(4)
O46 O 0.2259(5) 0.3013(5) 0.5877(3)
O5_2 O 0.3299(5) 0.8037(7) 0.5374(5)
O6_2 O 0.4013(4) 0.7059(5) 0.4190(4)
O7 O 0.6394(5) 0.6870(5) 0.3536(4)
O8 O 0.7741(5) 0.6987(5) 0.4123(3)
O11_2 O 0.0779(4) 0.5511(5) 0.1968(3)
O12_2 O 0.1550(4) 0.6478(5) 0.2568(3)
O15_2 O 0.4899(6) 0.4087(5) 0.4654(4)
O17_2 O 0.0426(6) 0.7914(5) 0.2268(5)
N1_2 N 0.2569(5) 0.7281(6) 0.4468(5)
H3_2 H 0.2651 0.7027 0.4137
N2_2 N 0.4786(5) 0.7744(6) 0.5132(4)
H4_2 H 0.4718 0.8026 0.5452
N3_2 N 0.4202(5) 0.5199(5) 0.4207(4)
H5_2 H 0.4248 0.5693 0.4267
N5_2 N 0.1228(10) 0.8986(8) 0.2611(8)
C2_2 C 0.0246(6) 0.6885(6) 0.3888(5)
C3_2 C 0.1084(6) 0.6963(7) 0.3917(5)
H6_2 H 0.1236 0.6807 0.3543
C4_2 C 0.1714(6) 0.7268(7) 0.4486(5)
C5_2 C 0.1520(6) 0.7490(7) 0.5065(6)
H7_2 H 0.1944 0.7689 0.5449
C6_2 C 0.0678(7) 0.7406(7) 0.5049(5)
C7_2 C 0.0047(6) 0.7095(6) 0.4482(5)
C8_2 C 0.0461(6) 0.7642(7) 0.5670(5)
C9_2 C 0.3264(6) 0.7633(8) 0.4895(6)
C10_2 C 0.4052(7) 0.7458(7) 0.4689(6)
C11_2 C 0.5648(6) 0.7658(7) 0.5160(5)
C12_2 C 0.5879(6) 0.7380(7) 0.4618(5)
H9_2 H 0.5450 0.7231 0.4215
C13_2 C 0.6729(6) 0.7321(7) 0.4666(5)
C14_2 C 0.7377(6) 0.7523(7) 0.5279(5)
H10_2 H 0.7954 0.7464 0.5319
C15_2 C 0.7163(6) 0.7808(7) 0.5824(5)
C16_2 C 0.6289(6) 0.7888(7) 0.5757(5)
H11_2 H 0.6138 0.8096 0.6115
C17_2 C 0.6970(6) 0.7037(7) 0.4080(6)
C18_2 C 0.7839(6) 0.8063(7) 0.6468(5)
C19_2 C 0.1461(6) 0.5774(7) 0.2394(5)
C20_2 C 0.2193(6) 0.5214(6) 0.2722(5)
C21_2 C 0.2174(6) 0.4468(6) 0.2465(5)
H12_2 H 0.1722 0.4316 0.2078
C22_2 C 0.2829(7) 0.3953(6) 0.2785(5)
C23_2 C 0.3522(6) 0.4204(6) 0.3355(5)
H13_2 H 0.3974 0.3866 0.3567
C24_2 C 0.3533(6) 0.4925(6) 0.3593(4)
C25_2 C 0.2892(6) 0.5449(6) 0.3290(5)
H14_2 H 0.2921 0.5952 0.3458
C26_2 C 0.2786(7) 0.3150(7) 0.2512(5)
C27_2 C 0.4760(6) 0.4753(7) 0.4693(6)
C33_2 C 0.0484(12) 0.8633(10) 0.2261(9)
C34_2 C 0.1966(14) 0.8475(11) 0.3024(13)
H27_2 H 0.1746 0.8057 0.3223
H28_2 H 0.2365 0.8777 0.3380
H29_2 H 0.2257 0.8267 0.2730
C35_2 C 0.1398(13) 0.9825(10) 0.2648(10)
H30_2 H 0.1844 0.9937 0.2458
H31_2 H 0.1581 0.9990 0.3117
O20_2 O 0.9221(4) 0.4489(5) 0.8032(3)
O21_2 O 0.8450(4) 0.3522(5) 0.7432(3)
O24_2 O 0.5101(6) 0.5913(5) 0.5346(4)
N7_2 N 0.5798(5) 0.4801(5) 0.5793(4)
H42_2 H 0.5752 0.4307 0.5733
C40_2 C 0.8539(6) 0.4226(7) 0.7606(5)
C41_2 C 0.7807(6) 0.4786(6) 0.7278(5)
C42_2 C 0.7826(6) 0.5532(6) 0.7535(5)
H43_2 H 0.8278 0.5684 0.7922
C43_2 C 0.7171(7) 0.6047(6) 0.7215(5)
C44_2 C 0.6478(6) 0.5796(6) 0.6645(5)
H44_2 H 0.6026 0.6134 0.6433
C45_2 C 0.6467(6) 0.5075(6) 0.6407(4)
C46_2 C 0.7108(6) 0.4551(6) 0.6710(5)
H45_2 H 0.7079 0.4048 0.6542
C47_2 C 0.7214(7) 0.6850(7) 0.7488(5)
C48_2 C 0.5240(6) 0.5247(7) 0.5307(6)
O29_2 O 0.6701(5) 0.1963(7) 0.4626(5)
O30_2 O 0.5987(4) 0.2941(5) 0.5810(4)
O36_2 O 0.9574(6) 0.2086(5) 0.7732(5)
N8_2 N 0.7431(5) 0.2719(6) 0.5532(5)
H48_2 H 0.7349 0.2973 0.5863
N9_2 N 0.5214(5) 0.2256(6) 0.4868(4)
H49_2 H 0.5282 0.1974 0.4548
N11_2 N 0.8772(10) 0.1014(8) 0.7389(8)
C50_2 C 0.9754(6) 0.3115(6) 0.6112(5)
C51_2 C 0.8916(6) 0.3037(7) 0.6083(5)
H50_2 H 0.8764 0.3193 0.6457
C52_2 C 0.8286(6) 0.2732(7) 0.5514(5)
C53_2 C 0.8480(6) 0.2510(7) 0.4935(6)
H51_2 H 0.8056 0.2311 0.4551
C54_2 C 0.9322(7) 0.2594(7) 0.4951(5)
C55_2 C 0.9953(6) 0.2905(6) 0.5518(5)
C56_2 C 0.9539(6) 0.2358(7) 0.4330(5)
C57_2 C 0.6736(6) 0.2367(8) 0.5105(6)
C58_2 C 0.5948(7) 0.2542(7) 0.5311(6)
C59_2 C 0.4352(6) 0.2342(7) 0.4840(5)
C60_2 C 0.4121(6) 0.2620(7) 0.5382(5)
H53_2 H 0.4550 0.2769 0.5785
C61_2 C 0.3271(6) 0.2679(7) 0.5334(5)
C62_2 C 0.2623(6) 0.2477(7) 0.4721(5)
H54_2 H 0.2046 0.2536 0.4681
C63_2 C 0.2837(6) 0.2192(7) 0.4176(5)
C64_2 C 0.3711(6) 0.2112(7) 0.4243(5)
H55_2 H 0.3862 0.1904 0.3885
C65_2 C 0.3030(6) 0.2963(7) 0.5920(6)
C66_2 C 0.2161(6) 0.1937(7) 0.3532(5)
C72_2 C 0.9516(12) 0.1367(10) 0.7739(9)
C73_2 C 0.8034(14) 0.1525(11) 0.6976(13)
H68_2 H 0.8254 0.1943 0.6777
H69_2 H 0.7635 0.1223 0.6620
H70_2 H 0.7743 0.1733 0.7270
C74_2 C 0.8602(13) 0.0175(10) 0.7352(10)
H71_2 H 0.8156 0.0063 0.7542
H72_2 H 0.8419 0.0010 0.6883
O1_2 O 0.8858(4) 0.6398(4) 0.3319(3)
O2_2 O 0.9812(4) 0.6400(4) 0.2774(3)
O16_2 O 0.7537(6) 0.5375(5) 0.3527(5)
O18_2 O 0.9234(6) 0.5878(6) 0.0884(5)
O19_2 O 0.6222(6) 0.5821(5) 0.2266(4)
H1_2 H 0.5925 0.6076 0.1915
H2_2 H 0.5908 0.5703 0.2503
N4_2 N 0.7919(8) 0.5122(6) 0.4624(7)
C1_2 C 0.9596(6) 0.6545(6) 0.3300(4)
H8_2 H 0.9490 0.7023 0.4491
C28_2 C 0.6411(8) 0.5069(10) 0.4032(10)
H15_2 H 0.6013 0.5134 0.3575
H16_2 H 0.6280 0.5438 0.4330
H17_2 H 0.6361 0.4552 0.4187
C29_2 C 0.7325(9) 0.5201(4) 0.4035(6)
C30_2 C 0.8813(8) 0.5248(9) 0.4638(10)
H18_2 H 0.8879 0.5037 0.4230
H19 H 0.9208 0.4995 0.5031
H20_2 H 0.8934 0.5795 0.4661
C31 C 0.7729(14) 0.4921(10) 0.5246(7)
H21_2 H 0.7189 0.5150 0.5227
H22_2 H 0.8181 0.5116 0.5639
H23 H 0.7695 0.4367 0.5280
C32_2 C 0.9760(12) 0.9126(11) 0.1893(10)
H24_2 H 0.9753 0.9197 0.1431
H25_2 H 0.9820 0.9622 0.2116
H26_2 H 0.9231 0.8886 0.1887
C36_2 C 0.9254(13) 0.4505(10) 0.0778(10)
H33_2 H 0.9587 0.4240 0.0544
H34_2 H 0.8737 0.4217 0.0728
H35_2 H 0.9589 0.4551 0.1255
C37_2 C 0.9017(12) 0.5314(10) 0.0472(9)
H19_2 H 0.0792 0.9995 0.9969
C31_2 C 0.2271(14) 0.9921(10) 0.9754(7)
H23_2 H 0.2305 0.9367 0.9720
H60_2 H 0.9208 0.0005 0.0031
C70_2 C 0.7729(14) 0.0079(10) 0.0246(7)
H64_2 H 0.7695 0.0633 0.0280
N12_2 N 0.1327(10) 0.4656(9) 0.0131(7)
C77_2 C 0.1459(13) 0.3835(10) 0.0427(7)
H77_2 H 0.1877 0.3568 0.0278
H78_2 H 0.1662 0.3863 0.0918
H79_2 H 0.0921 0.3559 0.0273
C78_2 C 0.1594(13) 0.5307(11) 0.0612(8)
H80_2 H 0.1128 0.5449 0.0769
H81_2 H 0.2085 0.5156 0.0995
H82_2 H 0.1745 0.5743 0.0386
H32_2 H 0.0881 0.0098 0.2392
H73_2 H 0.9119 0.9902 0.7608
N6_2 N 0.8673(10) 0.5344(9) 0.9869(7)
C38_2 C 0.8541(13) 0.6165(10) 0.9573(7)
H36_2 H 0.8123 0.6432 0.9722
H37_2 H 0.8338 0.6137 0.9082
H38_2 H 0.9079 0.6441 0.9727
C39_2 C 0.8406(13) 0.4693(11) 0.9388(8)
H39_2 H 0.8872 0.4551 0.9231
H40_2 H 0.7915 0.4844 0.9005
H41_2 H 0.8255 0.4257 0.9614
loop_
_geom_bond_atom_site_label_1
_geom_bond_atom_site_label_2
_geom_bond_site_symmetry_1
_geom_bond_site_symmetry_2
Gd1 O1 1_555 1_555
O1 C1 1_555 1_555
O2 C1 1_555 1_555
O16 Gd1 1_555 1_555
O19 Gd1 1_555 1_555
H1 O19 1_555 1_555
H2 O19 1_555 1_555
N4 C29 1_555 1_555
N6 C37 1_555 1_555
C28 H15 1_555 1_555
H16 C28 1_555 1_555
C29 O16 1_555 1_555
C30 N4 1_555 1_555
H18 C30 1_555 1_555
H20 C30 1_555 1_555
C32 H24 1_555 1_555
H25 C32 1_555 1_555
H26 C32 1_555 1_555
C37 O18 1_555 1_555
C38 N6 1_555 1_555
H36 C38 1_555 1_555
H37 C38 1_555 1_555
H38 C38 1_555 1_555
O43 Gd1 1_555 1_555
O45 Gd1 1_555 1_555
O48 Gd1 1_555 1_555
O51 Gd1 1_555 1_555
O53 Gd1 1_555 1_555
C28 C29 1_555 1_555
C36 H33 1_555 1_555
H34 C36 1_555 1_555
H35 C36 1_555 1_555
H39 C39 1_555 1_555
H40 C39 1_555 1_555
H41 C39 1_555 1_555
O6 C10 1_555 1_555
O43 C17 1_555 1_555
O45 C17 1_555 1_555
O11 Gd2 1_555 1_555
O12 Gd2 1_555 1_555
O17 Gd2 1_555 1_555
N1 H3 1_555 1_555
N3 H5 1_555 1_555
N5 C33 1_555 1_555
C2 C3 1_555 1_555
C3 H6 1_555 1_555
C4 N1 1_555 1_555
C7 C2 1_555 1_555
C9 N1 1_555 1_555
H9 C12 1_555 1_555
C13 C12 1_555 1_555
C17 C13 1_555 1_555
C19 O11 1_555 1_555
C20 C19 1_555 1_555
C25 C20 1_555 1_555
H14 C25 1_555 1_555
C33 O17 1_555 1_555
C34 N5 1_555 1_555
H27 C34 1_555 1_555
H28 C34 1_555 1_555
H29 C34 1_555 1_555
C35 N5 1_555 1_555
H30 C35 1_555 1_555
H31 C35 1_555 1_555
H32 C35 1_555 1_555
O42 Gd2 1_555 1_555
O12 C19 1_555 1_555
C3 C4 1_555 1_555
C9 C10 1_555 1_555
O4 C8 1_555 1_555
O9 C18 1_555 1_555
O10 C18 1_555 1_555
N2 H4 1_555 1_555
H7 C5 1_555 1_555
C6 C5 1_555 1_555
C8 C6 1_555 1_555
C11 N2 1_555 1_555
H10 C14 1_555 1_555
C15 C14 1_555 1_555
C16 C11 1_555 1_555
H11 C16 1_555 1_555
C18 C15 1_555 1_555
O22 C47 1_555 1_555
O23 C47 1_555 1_555
O24 C48 1_555 1_555
C42 H43 1_555 1_555
C43 C42 1_555 1_555
C44 C43 1_555 1_555
H44 C44 1_555 1_555
C47 C43 1_555 1_555
Gd8 O9 1_555 1_555
O4 Gd12 1_555 1_555
C15 C16 1_555 1_555
O22 Gd8 1_555 1_555
O23 Gd8 1_555 1_555
C44 C45 1_555 1_555
O13 C26 1_555 1_555
O14 C26 1_555 1_555
O15 C27 1_555 1_555
H12 C21 1_555 1_555
C22 C21 1_555 1_555
C23 C22 1_555 1_555
H13 C23 1_555 1_555
C26 C22 1_555 1_555
O28 C56 1_555 1_555
O33 C66 1_555 1_555
O34 C66 1_555 1_555
N9 H49 1_555 1_555
H51 C53 1_555 1_555
C54 C53 1_555 1_555
C56 C54 1_555 1_555
C59 N9 1_555 1_555
H54 C62 1_555 1_555
C63 C62 1_555 1_555
C64 C59 1_555 1_555
H55 C64 1_555 1_555
C66 C63 1_555 1_555
Gd6 O13 1_555 1_555
O14 Gd6 1_555 1_555
C23 C24 1_555 1_555
O28 Gd10 1_555 1_555
O33 Gd6 1_555 1_555
C63 C64 1_555 1_555
O20 C40 1_555 1_555
O21 C40 1_555 1_555
N7 H42 1_555 1_555
C40 C41 1_555 1_555
C46 C41 1_555 1_555
H45 C46 1_555 1_555
Gd4 O20 1_555 1_555
O30 C58 1_555 1_555
O31 C65 1_555 1_555
O32 C65 1_555 1_555
O36 Gd4 1_555 1_555
N8 H48 1_555 1_555
N11 C72 1_555 1_555
C51 C50 1_555 1_555
H50 C51 1_555 1_555
C52 N8 1_555 1_555
C55 C50 1_555 1_555
C57 N8 1_555 1_555
H53 C60 1_555 1_555
C61 C60 1_555 1_555
C65 C61 1_555 1_555
C72 O36 1_555 1_555
C73 N11 1_555 1_555
H68 C73 1_555 1_555
H69 C73 1_555 1_555
H70 C73 1_555 1_555
C74 N11 1_555 1_555
H71 C74 1_555 1_555
H72 C74 1_555 1_555
H73 C74 1_555 1_555
Gd7 O31 1_555 1_555
O41 Gd4 1_555 1_555
O21 Gd4 1_555 1_555
O32 Gd7 1_555 1_555
C51 C52 1_555 1_555
C57 C58 1_555 1_555
C75 H74 1_555 1_555
H75 C75 1_555 1_555
H76 C75 1_555 1_555
H80 C78 1_555 1_555
H81 C78 1_555 1_555
H82 C78 1_555 1_555
Gd7 O25 1_555 1_555
O25 C49 1_555 1_555
O35 Gd7 1_555 1_555
O38 Gd7 1_555 1_555
H46 O38 1_555 1_555
H47 O38 1_555 1_555
N10 C68 1_555 1_555
N12 C76 1_555 1_555
C49 O26 1_555 1_555
C67 H56 1_555 1_555
H57 C67 1_555 1_555
C68 O35 1_555 1_555
C69 N10 1_555 1_555
H59 C69 1_555 1_555
H61 C69 1_555 1_555
C71 H65 1_555 1_555
H66 C71 1_555 1_555
H67 C71 1_555 1_555
C76 O37 1_555 1_555
C77 N12 1_555 1_555
H77 C77 1_555 1_555
H78 C77 1_555 1_555
H79 C77 1_555 1_555
O47 Gd7 1_555 1_555
O52 Gd7 1_555 1_555
O54 Gd7 1_555 1_555
C67 C68 1_555 1_555
Gd8 O25_2 1_555 1_555
O25_2 C49_2 1_555 1_555
O35_2 Gd8 1_555 1_555
O38_2 Gd8 1_555 1_555
H46_2 O38_2 1_555 1_555
H47_2 O38_2 1_555 1_555
N10_2 C68_2 1_555 1_555
C49_2 O26_2 1_555 1_555
C67_2 H56_2 1_555 1_555
H57_2 C67_2 1_555 1_555
H58_2 C67_2 1_555 1_555
C68_2 O35_2 1_555 1_555
C69_2 N10_2 1_555 1_555
H59_2 C69_2 1_555 1_555
H60 C69_2 1_555 1_555
H61_2 C69_2 1_555 1_555
C70 N10_2 1_555 1_555
H62_2 C70 1_555 1_555
H63_2 C70 1_555 1_555
H64 C70 1_555 1_555
C71_2 H65_2 1_555 1_555
H66_2 C71_2 1_555 1_555
H67_2 C71_2 1_555 1_555
C75_2 H74_2 1_555 1_555
H75_2 C75_2 1_555 1_555
H76_2 C75_2 1_555 1_555
C76_2 O37_2 1_555 1_555
O44 Gd8 1_555 1_555
O46 Gd8 1_555 1_555
C67_2 C68_2 1_555 1_555
C75_2 C76_2 1_555 1_555
O41 C8_2 1_555 1_555
O5_2 C9_2 1_555 1_555
O6_2 C10_2 1_555 1_555
O7 C17_2 1_555 1_555
O8 C17_2 1_555 1_555
O47 C18_2 1_555 1_555
O49 C18_2 1_555 1_555
O11_2 Gd10 1_555 1_555
O12_2 Gd10 1_555 1_555
O51 C26_2 1_555 1_555
O53 C26_2 1_555 1_555
O15_2 C27_2 1_555 1_555
O17_2 Gd10 1_555 1_555
N1_2 H3_2 1_555 1_555
N2_2 H4_2 1_555 1_555
N3_2 H5_2 1_555 1_555
N5_2 C33_2 1_555 1_555
C2_2 C3_2 1_555 1_555
C3_2 H6_2 1_555 1_555
C4_2 N1_2 1_555 1_555
C5_2 C4_2 1_555 1_555
H7_2 C5_2 1_555 1_555
C6_2 C5_2 1_555 1_555
C7_2 C2_2 1_555 1_555
C8_2 C6_2 1_555 1_555
C9_2 N1_2 1_555 1_555
C10_2 N2_2 1_555 1_555
C11_2 N2_2 1_555 1_555
C12_2 C11_2 1_555 1_555
H9_2 C12_2 1_555 1_555
C13_2 C12_2 1_555 1_555
C14_2 C13_2 1_555 1_555
H10_2 C14_2 1_555 1_555
C15_2 C14_2 1_555 1_555
C16_2 C11_2 1_555 1_555
H11_2 C16_2 1_555 1_555
C17_2 C13_2 1_555 1_555
C18_2 C15_2 1_555 1_555
C19_2 O11_2 1_555 1_555
C20_2 C19_2 1_555 1_555
C21_2 C20_2 1_555 1_555
H12_2 C21_2 1_555 1_555
C22_2 C21_2 1_555 1_555
C23_2 C22_2 1_555 1_555
H13_2 C23_2 1_555 1_555
C24_2 N3_2 1_555 1_555
C25_2 C20_2 1_555 1_555
H14_2 C25_2 1_555 1_555
C26_2 C22_2 1_555 1_555
C27_2 N3_2 1_555 1_555
C33_2 O17_2 1_555 1_555
C34_2 N5_2 1_555 1_555
H27_2 C34_2 1_555 1_555
H28_2 C34_2 1_555 1_555
H29_2 C34_2 1_555 1_555
C35_2 N5_2 1_555 1_555
H30_2 C35_2 1_555 1_555
H31_2 C35_2 1_555 1_555
O20_2 C40_2 1_555 1_555
O21_2 C40_2 1_555 1_555
O52 C47_2 1_555 1_555
O54 C47_2 1_555 1_555
O24_2 C48_2 1_555 1_555
N7_2 H42_2 1_555 1_555
C40_2 C41_2 1_555 1_555
C41_2 C42_2 1_555 1_555
C42_2 H43_2 1_555 1_555
C43_2 C42_2 1_555 1_555
C44_2 C43_2 1_555 1_555
H44_2 C44_2 1_555 1_555
C45_2 N7_2 1_555 1_555
C46_2 C41_2 1_555 1_555
H45_2 C46_2 1_555 1_555
C47_2 C43_2 1_555 1_555
C48_2 C27_2 1_555 1_555
Gd12 O20_2 1_555 1_555
O42 C56_2 1_555 1_555
O29_2 C57_2 1_555 1_555
O30_2 C58_2 1_555 1_555
O44 C65_2 1_555 1_555
O46 C65_2 1_555 1_555
O48 C66_2 1_555 1_555
O50 C66_2 1_555 1_555
O36_2 Gd12 1_555 1_555
N8_2 H48_2 1_555 1_555
N9_2 H49_2 1_555 1_555
N11_2 C72_2 1_555 1_555
C51_2 C50_2 1_555 1_555
H50_2 C51_2 1_555 1_555
C52_2 N8_2 1_555 1_555
C53_2 C52_2 1_555 1_555
H51_2 C53_2 1_555 1_555
C54_2 C53_2 1_555 1_555
C55_2 C50_2 1_555 1_555
C56_2 C54_2 1_555 1_555
C57_2 N8_2 1_555 1_555
C58_2 N9_2 1_555 1_555
C59_2 N9_2 1_555 1_555
C60_2 C59_2 1_555 1_555
H53_2 C60_2 1_555 1_555
C61_2 C60_2 1_555 1_555
C62_2 C61_2 1_555 1_555
H54_2 C62_2 1_555 1_555
C63_2 C62_2 1_555 1_555
C64_2 C59_2 1_555 1_555
H55_2 C64_2 1_555 1_555
C65_2 C61_2 1_555 1_555
C66_2 C63_2 1_555 1_555
C72_2 O36_2 1_555 1_555
C73_2 N11_2 1_555 1_555
H68_2 C73_2 1_555 1_555
H69_2 C73_2 1_555 1_555
H70_2 C73_2 1_555 1_555
C74_2 N11_2 1_555 1_555
H71_2 C74_2 1_555 1_555
H72_2 C74_2 1_555 1_555
Gd6 O7 1_555 1_555
O8 Gd6 1_555 1_555
O12_2 C19_2 1_555 1_555
C3_2 C4_2 1_555 1_555
C6_2 C7_2 1_555 1_555
C9_2 C10_2 1_555 1_555
C15_2 C16_2 1_555 1_555
C23_2 C24_2 1_555 1_555
C24_2 C25_2 1_555 1_555
O21_2 Gd12 1_555 1_555
N7_2 C48_2 1_555 1_555
C44_2 C45_2 1_555 1_555
C45_2 C46_2 1_555 1_555
C51_2 C52_2 1_555 1_555
C54_2 C55_2 1_555 1_555
C57_2 C58_2 1_555 1_555
C63_2 C64_2 1_555 1_555
Gd6 O1_2 1_555 1_555
O1_2 C1_2 1_555 1_555
O2_2 C1_2 1_555 1_555
O16_2 Gd6 1_555 1_555
O19_2 Gd6 1_555 1_555
H1_2 O19_2 1_555 1_555
H2_2 O19_2 1_555 1_555
N4_2 C29_2 1_555 1_555
C28_2 H15_2 1_555 1_555
H16_2 C28_2 1_555 1_555
H17_2 C28_2 1_555 1_555
C29_2 O16_2 1_555 1_555
C30_2 N4_2 1_555 1_555
H18_2 C30_2 1_555 1_555
H19 C30_2 1_555 1_555
H20_2 C30_2 1_555 1_555
C31 N4_2 1_555 1_555
H21_2 C31 1_555 1_555
H22_2 C31 1_555 1_555
H23 C31 1_555 1_555
C32_2 H24_2 1_555 1_555
H25_2 C32_2 1_555 1_555
H26_2 C32_2 1_555 1_555
C36_2 H33_2 1_555 1_555
H34_2 C36_2 1_555 1_555
H35_2 C36_2 1_555 1_555
C37_2 O18_2 1_555 1_555
C28_2 C29_2 1_555 1_555
C36_2 C37_2 1_555 1_555
H23_2 C31_2 1_555 1_555
H64_2 C70_2 1_555 1_555
C77_2 N12_2 1_555 1_555
H77_2 C77_2 1_555 1_555
H78_2 C77_2 1_555 1_555
H79_2 C77_2 1_555 1_555
C78_2 N12_2 1_555 1_555
H80_2 C78_2 1_555 1_555
H81_2 C78_2 1_555 1_555
H82_2 C78_2 1_555 1_555
C38_2 N6_2 1_555 1_555
H36_2 C38_2 1_555 1_555
H37_2 C38_2 1_555 1_555
H38_2 C38_2 1_555 1_555
C39_2 N6_2 1_555 1_555
H39_2 C39_2 1_555 1_555
H40_2 C39_2 1_555 1_555
H41_2 C39_2 1_555 1_555

#END
