
###############################################################################
#
# This file contains modified crystal structure data generated from the
# MOF subset of the Cambridge Structural Database (CSD) v543 
# hosted by the Cambridge Crystallographic Data Centre (CCDC).
#
# This work is licensed under the Creative Commons
# Attribution-NonCommercial-ShareAlike 4.0 International License.
# To view a copy of this license, visit
# http://creativecommons.org/licenses/by-nc-sa/4.0/
# or send a letter to
# Creative Commons, PO Box 1866, Mountain View, CA 94042, USA.
#
# CIF created using the CSD Python API on 29 September 2022
# The structure has been converted into the P1 space group
# The structure has a 3D framework
# The original CSD entry ZECCAO is in the monoclinic crystal system
# The framework has been calculated to contain at least 10.0% void space
# The void calculation uses a probe of radius 1.32A, grid spacing 0.4
#
###############################################################################

data_ZECCAO
_chemical_formula_moiety         '(C156 H164 N24 O76 Tb8)n'
_symmetry_cell_setting           triclinic
_symmetry_space_group_name_H-M   'P 1'
_symmetry_Int_Tables_number      1
_space_group_name_Hall           'P 1'
loop_
_symmetry_equiv_pos_site_id
_symmetry_equiv_pos_as_xyz
1 x,y,z
_cell_length_a                   16.4258(16)
_cell_length_b                   17.2439(18)
_cell_length_c                   20.743(2)
_cell_angle_alpha                90
_cell_angle_beta                 109.465(2)
_cell_angle_gamma                90
_cell_volume                     5539.54
loop_
_atom_site_label
_atom_site_type_symbol
_atom_site_fract_x
_atom_site_fract_y
_atom_site_fract_z
O5 O 0.0969(3) 0.2943(4) 0.5812(3)
O6 O 0.1686(4) 0.1944(6) 0.4635(4)
O7 O 0.4009(4) 0.1930(4) 0.3895(3)
O8 O 0.5224(3) 0.2554(4) 0.4280(3)
O9 O 0.5164(3) 0.3587(3) 0.7233(2)
O10 O 0.6121(3) 0.3584(3) 0.6684(2)
N1 N 0.0183(4) 0.2255(4) 0.4857(3)
H3 H 0.0254 0.1977 0.4536
N2 N 0.2404(4) 0.2715(5) 0.5548(3)
H4 H 0.2327 0.2966 0.5881
C9 C 0.0891(4) 0.2553(5) 0.5304(4)
C10 C 0.1712(5) 0.2366(7) 0.5121(5)
C11 C 0.3257(4) 0.2721(5) 0.5519(3)
C12 C 0.3470(5) 0.2505(6) 0.4948(4)
H9 H 0.3050 0.2304 0.4564
C13 C 0.4307(4) 0.2592(5) 0.4957(4)
C14 C 0.4933(4) 0.2889(5) 0.5526(3)
H10 H 0.5497 0.2941 0.5527
C15 C 0.4729(4) 0.3109(4) 0.6096(3)
C16 C 0.3888(5) 0.3023(5) 0.6089(4)
H11 H 0.3745 0.3169 0.6470
C17 C 0.4532(5) 0.2346(5) 0.4334(4)
C18 C 0.5392(4) 0.3447(4) 0.6716(3)
Tb10 Tb 0.75722(2) 0.33744(2) 0.706799(16)
Tb11 Tb 0.49680(2) 0.17288(2) 0.325329(16)
Tb14 Tb 0.49680(2) 0.32712(2) 0.825329(16)
Tb1 Tb 0.75722(2) 0.16256(2) 0.206799(16)
O1 O 0.7356(3) 0.1555(4) 0.3111(3)
O2 O 0.6363(3) 0.2133(4) 0.3467(3)
O3 O 0.7223(3) 0.3008(4) 0.5880(3)
O4 O 0.8584(3) 0.3107(4) 0.6485(3)
O11 O 0.4209(3) 0.0528(3) 0.3030(2)
O12 O 0.3440(3) 0.1491(3) 0.2442(2)
O16 O 0.7436(5) 0.0396(4) 0.1487(4)
O17 O 0.4550(4) 0.2907(4) 0.2730(3)
O18 O 0.5779(5) 0.0877(5) 0.4110(3)
O19 O 0.8753(4) 0.0854(4) 0.2736(3)
H1 H 0.9050 0.1113 0.3083
H2 H 0.9067 0.0732 0.2498
N3 N 0.0799(4) 0.0187(4) 0.0805(3)
H5 H 0.0749 0.0682 0.0751
N4 N 0.7097(10) 0.0122(9) 0.0347(7)
N5 N 0.3770(8) 0.4002(7) 0.2408(7)
N6 N 0.6304(8) 0.0367(9) 0.5117(6)
C1 C 0.7128(4) 0.1951(5) 0.3529(4)
C2 C 0.7807(5) 0.2205(5) 0.4184(3)
C3 C 0.8672(4) 0.2123(5) 0.4237(3)
H6 H 0.8815 0.1925 0.3871
C4 C 0.9331(4) 0.2343(5) 0.4849(4)
C5 C 0.9102(4) 0.2635(5) 0.5372(4)
H7 H 0.9530 0.2809 0.5764
C6 C 0.8245(4) 0.2681(5) 0.5337(3)
C7 C 0.7582(4) 0.2498(5) 0.4713(4)
H8 H 0.7004 0.2577 0.4665
C8 C 0.8012(5) 0.2966(5) 0.5927(4)
C19 C 0.3524(4) 0.0787(4) 0.2599(3)
C20 C 0.2787(4) 0.0227(4) 0.2280(3)
C25 C 0.2107(5) 0.0459(5) 0.1729(3)
H14 H 0.2077 0.0967 0.1572
C28 C 0.8560(11) 0.0057(12) 0.0974(10)
H15 H 0.8977 0.0232 0.1394
H16 H 0.8611 0.0318 0.0581
C29 C 0.7629(9) 0.0172(10) 0.0968(8)
C30 C 0.6245(11) 0.0321(12) 0.0376(10)
H18 H 0.6307 0.0535 0.0817
H20 H 0.5976 0.0696 0.0028
C32 C 0.5253(13) 0.4108(10) 0.3120(8)
H24 H 0.5578 0.3850 0.3537
H25 H 0.5040 0.4593 0.3226
H26 H 0.5619 0.4201 0.2851
C33 C 0.4509(8) 0.3607(8) 0.2725(5)
C34 C 0.2991(11) 0.3518(10) 0.1999(13)
H27 H 0.2986 0.3466 0.1537
H28 H 0.2471 0.3769 0.2001
H29 H 0.3027 0.3013 0.2203
C35 C 0.3610(13) 0.4837(8) 0.2362(10)
H30 H 0.3445 0.5003 0.2743
H31 H 0.3153 0.4952 0.1943
H32 H 0.4125 0.5104 0.2369
C37 C 0.5999(9) 0.0342(10) 0.4517(8)
C38 C 0.6430(14) 0.1186(10) 0.5442(7)
H36 H 0.6507 0.1556 0.5121
H37 H 0.6931 0.1187 0.5847
H38 H 0.5930 0.1324 0.5559
O40 O 0.7223(3) 0.1992(4) 0.0880(3)
O42 O 0.8584(3) 0.1893(4) 0.1485(3)
O48 O 0.5164(3) 0.1413(3) 0.2233(2)
O50 O 0.6121(3) 0.1416(3) 0.1684(2)
O51 O 0.7098(4) 0.2938(3) 0.2067(3)
O53 O 0.8433(3) 0.2723(3) 0.2718(3)
O13 O 0.2902(4) 0.7938(3) 0.2933(3)
O14 O 0.1567(3) 0.7723(3) 0.2282(3)
O15 O 0.0107(4) 0.9084(4) 0.0353(3)
C21 C 0.2830(5) 0.9476(5) 0.2519(4)
H12 H 0.3310 0.9316 0.2879
C22 C 0.2168(5) 0.8964(5) 0.2226(4)
C23 C 0.1481(5) 0.9193(4) 0.1645(4)
H13 H 0.1044 0.8843 0.1427
C24 C 0.1457(5) 0.9930(4) 0.1402(3)
C26 C 0.2219(5) 0.8153(5) 0.2504(4)
C27 C 0.0242(5) 0.9759(5) 0.0311(4)
H17 H 0.8608 0.9513 0.0897
H19 H 0.5893 0.9863 0.0304
C36 C 0.5814(14) 0.9518(10) 0.4186(9)
H33 H 0.5327 0.9538 0.3772
H34 H 0.5687 0.9175 0.4505
H35 H 0.6310 0.9330 0.4088
C39 C 0.6566(14) 0.9670(9) 0.5588(7)
H39 H 0.6078 0.9490 0.5703
H40 H 0.7021 0.9815 0.5998
H41 H 0.6765 0.9263 0.5361
Tb7 Tb 0.24278(2) 0.66256(2) 0.293201(16)
O22 O 0.7098(4) 0.2062(3) 0.7067(3)
O23 O 0.8433(3) 0.2277(3) 0.7718(3)
O24 O 0.9893(4) 0.0916(4) 0.9647(3)
C42 C 0.7170(5) 0.0524(5) 0.7481(4)
H43 H 0.6690 0.0684 0.7121
C43 C 0.7832(5) 0.1036(5) 0.7774(4)
C44 C 0.8519(5) 0.0807(4) 0.8355(4)
H44 H 0.8956 0.1157 0.8573
C45 C 0.8543(5) 0.0070(4) 0.8598(3)
C47 C 0.7781(5) 0.1847(5) 0.7496(4)
C48 C 0.9758(5) 0.0241(5) 0.9689(4)
H58 H 0.1392 0.0487 0.9103
H60 H 0.4107 0.0137 0.9696
C75 C 0.4186(14) 0.0482(10) 0.5814(9)
H74 H 0.4673 0.0462 0.6228
H75 H 0.4313 0.0825 0.5495
H76 H 0.3690 0.0670 0.5912
C78 C 0.3434(14) 0.0330(9) 0.4412(7)
H80 H 0.3922 0.0510 0.4297
H81 H 0.2979 0.0185 0.4002
H82 H 0.3235 0.0737 0.4639
O20 O 0.5791(3) 0.9472(3) 0.6970(2)
O21 O 0.6560(3) 0.8509(3) 0.7558(2)
N7 N 0.9201(4) 0.9813(4) 0.9195(3)
H42 H 0.9251 0.9318 0.9249
C40 C 0.6476(4) 0.9213(4) 0.7401(3)
C41 C 0.7213(4) 0.9773(4) 0.7720(3)
C46 C 0.7893(5) 0.9541(5) 0.8271(3)
H45 H 0.7923 0.9033 0.8428
Tb3 Tb 0.24278(2) 0.83744(2) 0.793201(16)
Tb4 Tb 0.50320(2) 0.82712(2) 0.674671(16)
O25 O 0.2644(3) 0.8445(4) 0.6889(3)
O26 O 0.3637(3) 0.7867(4) 0.6533(3)
O27 O 0.2777(3) 0.6992(4) 0.4120(3)
O28 O 0.1416(3) 0.6893(4) 0.3515(3)
O35 O 0.2564(5) 0.9604(4) 0.8513(4)
O36 O 0.5450(4) 0.7093(4) 0.7270(3)
O37 O 0.4221(5) 0.9123(5) 0.5890(3)
O38 O 0.1247(4) 0.9146(4) 0.7264(3)
H46 H 0.0950 0.8887 0.6917
H47 H 0.0933 0.9268 0.7502
N10 N 0.2903(10) 0.9878(9) 0.9653(7)
N11 N 0.6230(8) 0.5998(7) 0.7592(7)
N12 N 0.3696(8) 0.9633(9) 0.4883(6)
C49 C 0.2872(4) 0.8049(5) 0.6471(4)
C50 C 0.2193(5) 0.7795(5) 0.5816(3)
C51 C 0.1328(4) 0.7877(5) 0.5763(3)
H50 H 0.1185 0.8075 0.6129
C52 C 0.0669(4) 0.7657(5) 0.5151(4)
C53 C 0.0898(4) 0.7365(5) 0.4628(4)
H51 H 0.0470 0.7191 0.4236
C54 C 0.1755(4) 0.7319(5) 0.4663(3)
C55 C 0.2418(4) 0.7502(5) 0.5287(4)
H52 H 0.2996 0.7423 0.5335
C56 C 0.1988(5) 0.7034(5) 0.4073(4)
C67 C 0.1440(11) 0.9943(12) 0.9026(10)
H56 H 0.1023 0.9768 0.8606
H57 H 0.1389 0.9682 0.9419
C68 C 0.2371(9) 0.9828(10) 0.9032(8)
C69 C 0.3755(11) 0.9679(12) 0.9624(10)
H59 H 0.3693 0.9465 0.9183
H61 H 0.4024 0.9304 0.9972
C71 C 0.4747(13) 0.5892(10) 0.6880(8)
H65 H 0.4422 0.6150 0.6463
H66 H 0.4960 0.5407 0.6774
H67 H 0.4381 0.5799 0.7149
C72 C 0.5491(8) 0.6393(8) 0.7275(5)
C73 C 0.7009(11) 0.6482(10) 0.8001(13)
H68 H 0.7014 0.6534 0.8463
H69 H 0.7529 0.6231 0.7999
H70 H 0.6973 0.6987 0.7797
C74 C 0.6390(13) 0.5163(8) 0.7638(10)
H71 H 0.6555 0.4997 0.7257
H72 H 0.6847 0.5048 0.8057
H73 H 0.5875 0.4896 0.7631
C76 C 0.4001(9) 0.9658(10) 0.5483(8)
C77 C 0.3570(14) 0.8814(10) 0.4558(7)
H77 H 0.3493 0.8444 0.4879
H78 H 0.3069 0.8813 0.4153
H79 H 0.4070 0.8676 0.4441
O39 O 0.2777(3) 0.8008(4) 0.9120(3)
O41 O 0.1416(3) 0.8107(4) 0.8515(3)
O44 O 0.5991(4) 0.8070(4) 0.6105(3)
O46 O 0.4776(3) 0.7446(4) 0.5720(3)
O47 O 0.4836(3) 0.8587(3) 0.7767(2)
O49 O 0.3879(3) 0.8584(3) 0.8316(2)
O52 O 0.2902(4) 0.7062(3) 0.7933(3)
O54 O 0.1567(3) 0.7277(3) 0.7282(3)
O29 O 0.9031(3) 0.7057(4) 0.4188(3)
O30 O 0.8314(4) 0.8056(6) 0.5365(4)
O33 O 0.4836(3) 0.6413(3) 0.2767(2)
O34 O 0.3879(3) 0.6416(3) 0.3316(2)
N8 N 0.9817(4) 0.7745(4) 0.5143(3)
H48 H 0.9746 0.8023 0.5464
N9 N 0.7596(4) 0.7285(5) 0.4452(3)
H49 H 0.7673 0.7034 0.4119
C57 C 0.9109(4) 0.7447(5) 0.4696(4)
C58 C 0.8288(5) 0.7634(7) 0.4879(5)
C59 C 0.6743(4) 0.7279(5) 0.4481(3)
C60 C 0.6530(5) 0.7495(6) 0.5052(4)
H53 H 0.6950 0.7696 0.5436
C61 C 0.5693(4) 0.7408(5) 0.5043(4)
C62 C 0.5067(4) 0.7111(5) 0.4474(3)
H54 H 0.4503 0.7059 0.4473
C63 C 0.5271(4) 0.6891(4) 0.3904(3)
C64 C 0.6112(5) 0.6977(5) 0.3911(4)
H55 H 0.6255 0.6831 0.3530
C65 C 0.5468(5) 0.7654(5) 0.5666(4)
C66 C 0.4608(4) 0.6553(4) 0.3284(3)
Tb12 Tb 0.50320(2) 0.67288(2) 0.174671(16)
O29_2 O 0.0969(3) 0.2057(4) 0.0812(3)
N9_2 N 0.2404(4) 0.2285(5) 0.0548(3)
H49_2 H 0.2327 0.2034 0.0881
C57_2 C 0.0891(4) 0.2447(5) 0.0304(4)
C58_2 C 0.1712(5) 0.2634(7) 0.0121(5)
C59_2 C 0.3257(4) 0.2279(5) 0.0519(3)
C62_2 C 0.4933(4) 0.2111(5) 0.0526(3)
H54_2 H 0.5497 0.2059 0.0527
C63_2 C 0.4729(4) 0.1891(4) 0.1096(3)
C64_2 C 0.3888(5) 0.1977(5) 0.1089(4)
H55_2 H 0.3745 0.1831 0.1470
C66_2 C 0.5392(4) 0.1553(4) 0.1716(3)
O30_2 O 0.1686(4) 0.3056(6) 0.9635(4)
O31 O 0.4009(4) 0.3070(4) 0.8895(3)
O32 O 0.5224(3) 0.2446(4) 0.9280(3)
N8_2 N 0.0183(4) 0.2745(4) 0.9857(3)
H48_2 H 0.0254 0.3023 0.9536
C60_2 C 0.3470(5) 0.2495(6) 0.9948(4)
H53_2 H 0.3050 0.2696 0.9564
C61_2 C 0.4307(4) 0.2408(5) 0.9957(4)
C65_2 C 0.4532(5) 0.2654(5) 0.9334(4)
N12_2 N 0.6304(8) 0.4633(9) 0.0117(6)
C53_2 C 0.9102(4) 0.2365(5) 0.0372(4)
H51_2 H 0.9530 0.2191 0.0764
C54_2 C 0.8245(4) 0.2319(5) 0.0337(3)
C56_2 C 0.8012(5) 0.2034(5) 0.0927(4)
C77_2 C 0.6430(14) 0.3814(10) 0.0442(7)
H77_2 H 0.6507 0.3444 0.0121
H78_2 H 0.6931 0.3813 0.0847
H79_2 H 0.5930 0.3676 0.0559
C78_2 C 0.6566(14) 0.5330(9) 0.0588(7)
H80_2 H 0.6078 0.5510 0.0703
H81_2 H 0.7021 0.5185 0.0998
H82_2 H 0.6765 0.5737 0.0361
O20_2 O 0.4209(3) 0.4472(3) 0.8030(2)
O21_2 O 0.3440(3) 0.3509(3) 0.7442(2)
O24_2 O 0.0107(4) 0.5916(4) 0.5353(3)
N7_2 N 0.0799(4) 0.4813(4) 0.5805(3)
H42_2 H 0.0749 0.4318 0.5751
C40_2 C 0.3524(4) 0.4213(4) 0.7599(3)
C41_2 C 0.2787(4) 0.4773(4) 0.7280(3)
C42_2 C 0.2830(5) 0.5524(5) 0.7519(4)
H43_2 H 0.3310 0.5684 0.7879
C43_2 C 0.2168(5) 0.6036(5) 0.7226(4)
C44_2 C 0.1481(5) 0.5807(4) 0.6645(4)
H44_2 H 0.1044 0.6157 0.6427
C45_2 C 0.1457(5) 0.5070(4) 0.6402(3)
C46_2 C 0.2107(5) 0.4541(5) 0.6729(3)
H45_2 H 0.2077 0.4033 0.6572
C47_2 C 0.2219(5) 0.6847(5) 0.7504(4)
C48_2 C 0.0242(5) 0.5241(5) 0.5311(4)
O25_2 O 0.7356(3) 0.3445(4) 0.8111(3)
O26_2 O 0.6363(3) 0.2867(4) 0.8467(3)
O35_2 O 0.7436(5) 0.4604(4) 0.6487(4)
O36_2 O 0.4550(4) 0.2093(4) 0.7730(3)
O37_2 O 0.5779(5) 0.4123(5) 0.9110(3)
O38_2 O 0.8753(4) 0.4146(4) 0.7736(3)
H46_2 H 0.9050 0.3887 0.8083
H47_2 H 0.9067 0.4268 0.7498
N10_2 N 0.7097(10) 0.4878(9) 0.5347(7)
N11_2 N 0.3770(8) 0.0998(7) 0.7408(7)
C49_2 C 0.7128(4) 0.3049(5) 0.8529(4)
C50_2 C 0.7807(5) 0.2795(5) 0.9184(3)
C51_2 C 0.8672(4) 0.2877(5) 0.9237(3)
H50_2 H 0.8815 0.3075 0.8871
C52_2 C 0.9331(4) 0.2657(5) 0.9849(4)
C55_2 C 0.7582(4) 0.2502(5) 0.9713(4)
H52_2 H 0.7004 0.2423 0.9665
C67_2 C 0.8560(11) 0.4943(12) 0.5974(10)
H56_2 H 0.8977 0.4768 0.6394
H57_2 H 0.8611 0.4682 0.5581
H58_2 H 0.8608 0.5487 0.5897
C68_2 C 0.7629(9) 0.4828(10) 0.5968(8)
C69_2 C 0.6245(11) 0.4679(12) 0.5376(10)
H59_2 H 0.6307 0.4465 0.5817
H60_2 H 0.5893 0.5137 0.5304
H61_2 H 0.5976 0.4304 0.5028
C70 C 0.7284(12) 0.5006(12) 0.4721(8)
H62 H 0.7449 0.4525 0.4568
H63 H 0.6779 0.5206 0.4377
H64 H 0.7747 0.5373 0.4804
C71_2 C 0.5253(13) 0.0892(10) 0.8120(8)
H65_2 H 0.5578 0.1150 0.8537
H66_2 H 0.5040 0.0407 0.8226
H67_2 H 0.5619 0.0799 0.7851
C72_2 C 0.4509(8) 0.1393(8) 0.7725(5)
C73_2 C 0.2991(11) 0.1482(10) 0.6999(13)
H68_2 H 0.2986 0.1534 0.6537
H69_2 H 0.2471 0.1231 0.7001
H70_2 H 0.3027 0.1987 0.7203
C74_2 C 0.3610(13) 0.0163(8) 0.7362(10)
H72_2 H 0.3153 0.0048 0.6943
C75_2 C 0.5814(14) 0.5482(10) 0.9186(9)
H74_2 H 0.5327 0.5462 0.8772
H75_2 H 0.5687 0.5825 0.9505
H76_2 H 0.6310 0.5670 0.9088
C76_2 C 0.5999(9) 0.4658(10) 0.9517(8)
O1_2 O 0.2644(3) 0.6555(4) 0.1889(3)
O2_2 O 0.3637(3) 0.7133(4) 0.1533(3)
O11_2 O 0.5791(3) 0.5528(3) 0.1970(2)
O12_2 O 0.6560(3) 0.6491(3) 0.2558(2)
O15_2 O 0.9893(4) 0.4084(4) 0.4647(3)
O16_2 O 0.2564(5) 0.5396(4) 0.3513(4)
O17_2 O 0.5450(4) 0.7907(4) 0.2270(3)
O18_2 O 0.4221(5) 0.5877(5) 0.0890(3)
O19_2 O 0.1247(4) 0.5854(4) 0.2264(3)
H1_2 H 0.0950 0.6113 0.1917
H2_2 H 0.0933 0.5732 0.2502
N3_2 N 0.9201(4) 0.5187(4) 0.4195(3)
H5_2 H 0.9251 0.5682 0.4249
N4_2 N 0.2903(10) 0.5122(9) 0.4653(7)
N5_2 N 0.6230(8) 0.9002(7) 0.2592(7)
C1_2 C 0.2872(4) 0.6951(5) 0.1471(4)
C2_2 C 0.2193(5) 0.7205(5) 0.0816(3)
C3_2 C 0.1328(4) 0.7123(5) 0.0763(3)
H6_2 H 0.1185 0.6925 0.1129
C4_2 C 0.0669(4) 0.7343(5) 0.0151(4)
C7_2 C 0.2418(4) 0.7498(5) 0.0287(4)
H8_2 H 0.2996 0.7577 0.0335
C19_2 C 0.6476(4) 0.5787(4) 0.2401(3)
C20_2 C 0.7213(4) 0.5227(4) 0.2720(3)
C21_2 C 0.7170(5) 0.4476(5) 0.2481(4)
H12_2 H 0.6690 0.4316 0.2121
C22_2 C 0.7832(5) 0.3964(5) 0.2774(4)
C23_2 C 0.8519(5) 0.4193(4) 0.3355(4)
H13_2 H 0.8956 0.3843 0.3573
C24_2 C 0.8543(5) 0.4930(4) 0.3598(3)
C25_2 C 0.7893(5) 0.5459(5) 0.3271(3)
H14_2 H 0.7923 0.5967 0.3428
C26_2 C 0.7781(5) 0.3153(5) 0.2496(4)
C27_2 C 0.9758(5) 0.4759(5) 0.4689(4)
C28_2 C 0.1440(11) 0.5057(12) 0.4026(10)
H15_2 H 0.1023 0.5232 0.3606
H16_2 H 0.1389 0.5318 0.4419
H17_2 H 0.1392 0.4513 0.4103
C29_2 C 0.2371(9) 0.5172(10) 0.4032(8)
C30_2 C 0.3755(11) 0.5321(12) 0.4624(10)
H18_2 H 0.3693 0.5535 0.4183
H19_2 H 0.4107 0.4863 0.4696
H20_2 H 0.4024 0.5696 0.4972
C31 C 0.2716(12) 0.4994(12) 0.5279(8)
H21 H 0.2551 0.5475 0.5432
H22 H 0.3221 0.4794 0.5623
H23 H 0.2253 0.4627 0.5196
C32_2 C 0.4747(13) 0.9108(10) 0.1880(8)
H24_2 H 0.4422 0.8850 0.1463
H25_2 H 0.4960 0.9593 0.1774
H26_2 H 0.4381 0.9201 0.2149
C33_2 C 0.5491(8) 0.8607(8) 0.2275(5)
C34_2 C 0.7009(11) 0.8518(10) 0.3001(13)
H27_2 H 0.7014 0.8466 0.3463
H28_2 H 0.7529 0.8769 0.2999
H29_2 H 0.6973 0.8013 0.2797
C35_2 C 0.6390(13) 0.9837(8) 0.2638(10)
H31_2 H 0.6847 0.9952 0.3057
C36_2 C 0.4186(14) 0.4518(10) 0.0814(9)
H33_2 H 0.4673 0.4538 0.1228
H34_2 H 0.4313 0.4175 0.0495
H35_2 H 0.3690 0.4330 0.0912
C37_2 C 0.4001(9) 0.5342(10) 0.0483(8)
O43 O 0.5991(4) 0.6930(4) 0.1105(3)
O45 O 0.4776(3) 0.7554(4) 0.0720(3)
N6_2 N 0.3696(8) 0.5367(9) 0.9883(6)
C5_2 C 0.0898(4) 0.7635(5) 0.9628(4)
H7_2 H 0.0470 0.7809 0.9236
C6_2 C 0.1755(4) 0.7681(5) 0.9663(3)
C8_2 C 0.1988(5) 0.7966(5) 0.9073(4)
C38_2 C 0.3570(14) 0.6186(10) 0.9558(7)
H36_2 H 0.3493 0.6556 0.9879
H37_2 H 0.3069 0.6187 0.9153
H38_2 H 0.4070 0.6324 0.9441
C39_2 C 0.3434(14) 0.4670(9) 0.9412(7)
H39_2 H 0.3922 0.4490 0.9297
H40_2 H 0.2979 0.4815 0.9002
H41_2 H 0.3235 0.4263 0.9639
O6_2 O 0.8314(4) 0.6944(6) 0.0365(4)
N1_2 N 0.9817(4) 0.7255(4) 0.0143(3)
H3_2 H 0.9746 0.6977 0.0464
C12_2 C 0.6530(5) 0.7505(6) 0.0052(4)
H9_2 H 0.6950 0.7304 0.0436
C13_2 C 0.5693(4) 0.7592(5) 0.0043(4)
C17_2 C 0.5468(5) 0.7346(5) 0.0666(4)
O5_2 O 0.9031(3) 0.7943(4) 0.9188(3)
N2_2 N 0.7596(4) 0.7715(5) 0.9452(3)
H4_2 H 0.7673 0.7966 0.9119
C9_2 C 0.9109(4) 0.7553(5) 0.9696(4)
C10_2 C 0.8288(5) 0.7366(7) 0.9879(5)
C11_2 C 0.6743(4) 0.7721(5) 0.9481(3)
C14_2 C 0.5067(4) 0.7889(5) 0.9474(3)
H10_2 H 0.4503 0.7941 0.9473
C15_2 C 0.5271(4) 0.8109(4) 0.8904(3)
C16_2 C 0.6112(5) 0.8023(5) 0.8911(4)
H11_2 H 0.6255 0.8169 0.8530
C18_2 C 0.4608(4) 0.8447(4) 0.8284(3)
H21_2 H 0.7449 0.0475 0.9568
C31_2 C 0.7284(12) 0.9994(12) 0.9721(8)
H22_2 H 0.6779 0.9794 0.9377
H23_2 H 0.7747 0.9627 0.9804
C70_2 C 0.2716(12) 0.0006(12) 0.0279(8)
H63_2 H 0.3221 0.0206 0.0623
H64_2 H 0.2253 0.0373 0.0196
H62_2 H 0.2551 0.9525 0.0432
H71_2 H 0.3445 0.9997 0.7743
H73_2 H 0.4125 0.9896 0.7369
H30_2 H 0.6555 0.0003 0.2257
H32_2 H 0.5875 0.0104 0.2631
loop_
_geom_bond_atom_site_label_1
_geom_bond_atom_site_label_2
_geom_bond_site_symmetry_1
_geom_bond_site_symmetry_2
O5 C9 1_555 1_555
O6 C10 1_555 1_555
O7 C17 1_555 1_555
O8 C17 1_555 1_555
O9 C18 1_555 1_555
O10 C18 1_555 1_555
N1 H3 1_555 1_555
N2 H4 1_555 1_555
C9 N1 1_555 1_555
C10 N2 1_555 1_555
C11 N2 1_555 1_555
C12 C11 1_555 1_555
H9 C12 1_555 1_555
C13 C12 1_555 1_555
C14 C13 1_555 1_555
H10 C14 1_555 1_555
C15 C14 1_555 1_555
C16 C11 1_555 1_555
H11 C16 1_555 1_555
C17 C13 1_555 1_555
C18 C15 1_555 1_555
Tb10 O10 1_555 1_555
Tb11 O7 1_555 1_555
Tb14 O9 1_555 1_555
O8 Tb11 1_555 1_555
C9 C10 1_555 1_555
C15 C16 1_555 1_555
Tb1 O1 1_555 1_555
Tb11 O2 1_555 1_555
O1 C1 1_555 1_555
O2 C1 1_555 1_555
O3 C8 1_555 1_555
O4 C8 1_555 1_555
O11 Tb11 1_555 1_555
O12 Tb11 1_555 1_555
O16 Tb1 1_555 1_555
O17 Tb11 1_555 1_555
O18 Tb11 1_555 1_555
O19 Tb1 1_555 1_555
H1 O19 1_555 1_555
H2 O19 1_555 1_555
N3 H5 1_555 1_555
N4 C29 1_555 1_555
N5 C33 1_555 1_555
N6 C37 1_555 1_555
C1 C2 1_555 1_555
C2 C3 1_555 1_555
C3 H6 1_555 1_555
C5 C4 1_555 1_555
H7 C5 1_555 1_555
C6 C5 1_555 1_555
C7 C2 1_555 1_555
H8 C7 1_555 1_555
C8 C6 1_555 1_555
C19 O11 1_555 1_555
C20 C19 1_555 1_555
C25 C20 1_555 1_555
H14 C25 1_555 1_555
C28 H15 1_555 1_555
H16 C28 1_555 1_555
C29 O16 1_555 1_555
C30 N4 1_555 1_555
H18 C30 1_555 1_555
H20 C30 1_555 1_555
C32 H24 1_555 1_555
H25 C32 1_555 1_555
H26 C32 1_555 1_555
C33 O17 1_555 1_555
C34 N5 1_555 1_555
H27 C34 1_555 1_555
H28 C34 1_555 1_555
H29 C34 1_555 1_555
C35 N5 1_555 1_555
H30 C35 1_555 1_555
H31 C35 1_555 1_555
H32 C35 1_555 1_555
C37 O18 1_555 1_555
C38 N6 1_555 1_555
H36 C38 1_555 1_555
H37 C38 1_555 1_555
H38 C38 1_555 1_555
Tb10 O3 1_555 1_555
O40 Tb1 1_555 1_555
O42 Tb1 1_555 1_555
O48 Tb11 1_555 1_555
O50 Tb1 1_555 1_555
O51 Tb1 1_555 1_555
O53 Tb1 1_555 1_555
O4 Tb10 1_555 1_555
O12 C19 1_555 1_555
C3 C4 1_555 1_555
C6 C7 1_555 1_555
C28 C29 1_555 1_555
C32 C33 1_555 1_555
O13 C26 1_555 1_555
O14 C26 1_555 1_555
O15 C27 1_555 1_555
H12 C21 1_555 1_555
C22 C21 1_555 1_555
C23 C22 1_555 1_555
H13 C23 1_555 1_555
C26 C22 1_555 1_555
C36 H33 1_555 1_555
H34 C36 1_555 1_555
H35 C36 1_555 1_555
H39 C39 1_555 1_555
H40 C39 1_555 1_555
H41 C39 1_555 1_555
Tb7 O13 1_555 1_555
O14 Tb7 1_555 1_555
C23 C24 1_555 1_555
O22 C47 1_555 1_555
O23 C47 1_555 1_555
O24 C48 1_555 1_555
C42 H43 1_555 1_555
C43 C42 1_555 1_555
C44 C43 1_555 1_555
H44 C44 1_555 1_555
C47 C43 1_555 1_555
C75 H74 1_555 1_555
H75 C75 1_555 1_555
H76 C75 1_555 1_555
H80 C78 1_555 1_555
H81 C78 1_555 1_555
H82 C78 1_555 1_555
Tb10 O22 1_555 1_555
O23 Tb10 1_555 1_555
C44 C45 1_555 1_555
O20 C40 1_555 1_555
O21 C40 1_555 1_555
N7 H42 1_555 1_555
C40 C41 1_555 1_555
C46 C41 1_555 1_555
H45 C46 1_555 1_555
Tb3 O25 1_555 1_555
Tb4 O20 1_555 1_555
O25 C49 1_555 1_555
O26 Tb4 1_555 1_555
O27 C56 1_555 1_555
O28 C56 1_555 1_555
O35 Tb3 1_555 1_555
O36 Tb4 1_555 1_555
O37 Tb4 1_555 1_555
O38 Tb3 1_555 1_555
H46 O38 1_555 1_555
H47 O38 1_555 1_555
N10 C68 1_555 1_555
N11 C72 1_555 1_555
N12 C76 1_555 1_555
C49 O26 1_555 1_555
C50 C49 1_555 1_555
C51 C50 1_555 1_555
H50 C51 1_555 1_555
C53 C52 1_555 1_555
H51 C53 1_555 1_555
C54 C53 1_555 1_555
C55 C50 1_555 1_555
H52 C55 1_555 1_555
C56 C54 1_555 1_555
C67 H56 1_555 1_555
H57 C67 1_555 1_555
C68 O35 1_555 1_555
C69 N10 1_555 1_555
H59 C69 1_555 1_555
H61 C69 1_555 1_555
C71 H65 1_555 1_555
H66 C71 1_555 1_555
H67 C71 1_555 1_555
C72 O36 1_555 1_555
C73 N11 1_555 1_555
H68 C73 1_555 1_555
H69 C73 1_555 1_555
H70 C73 1_555 1_555
C74 N11 1_555 1_555
H71 C74 1_555 1_555
H72 C74 1_555 1_555
H73 C74 1_555 1_555
C76 O37 1_555 1_555
C77 N12 1_555 1_555
H77 C77 1_555 1_555
H78 C77 1_555 1_555
H79 C77 1_555 1_555
Tb7 O27 1_555 1_555
O39 Tb3 1_555 1_555
O41 Tb3 1_555 1_555
O44 Tb4 1_555 1_555
O46 Tb4 1_555 1_555
O47 Tb4 1_555 1_555
O49 Tb3 1_555 1_555
O52 Tb3 1_555 1_555
O54 Tb3 1_555 1_555
O21 Tb4 1_555 1_555
O28 Tb7 1_555 1_555
C51 C52 1_555 1_555
C54 C55 1_555 1_555
C67 C68 1_555 1_555
C71 C72 1_555 1_555
O29 C57 1_555 1_555
O30 C58 1_555 1_555
O44 C65 1_555 1_555
O46 C65 1_555 1_555
O33 C66 1_555 1_555
O34 C66 1_555 1_555
N8 H48 1_555 1_555
N9 H49 1_555 1_555
C57 N8 1_555 1_555
C58 N9 1_555 1_555
C59 N9 1_555 1_555
C60 C59 1_555 1_555
H53 C60 1_555 1_555
C61 C60 1_555 1_555
C62 C61 1_555 1_555
H54 C62 1_555 1_555
C63 C62 1_555 1_555
C64 C59 1_555 1_555
H55 C64 1_555 1_555
C65 C61 1_555 1_555
C66 C63 1_555 1_555
Tb7 O34 1_555 1_555
Tb12 O33 1_555 1_555
C57 C58 1_555 1_555
C63 C64 1_555 1_555
O29_2 C57_2 1_555 1_555
O48 C66_2 1_555 1_555
O50 C66_2 1_555 1_555
N9_2 H49_2 1_555 1_555
C58_2 N9_2 1_555 1_555
C59_2 N9_2 1_555 1_555
H54_2 C62_2 1_555 1_555
C63_2 C62_2 1_555 1_555
C64_2 C59_2 1_555 1_555
H55_2 C64_2 1_555 1_555
C66_2 C63_2 1_555 1_555
C57_2 C58_2 1_555 1_555
C63_2 C64_2 1_555 1_555
O31 C65_2 1_555 1_555
O32 C65_2 1_555 1_555
N8_2 H48_2 1_555 1_555
H53_2 C60_2 1_555 1_555
C61_2 C60_2 1_555 1_555
C65_2 C61_2 1_555 1_555
Tb14 O31 1_555 1_555
O32 Tb14 1_555 1_555
O40 C56_2 1_555 1_555
O42 C56_2 1_555 1_555
H51_2 C53_2 1_555 1_555
C54_2 C53_2 1_555 1_555
C56_2 C54_2 1_555 1_555
C77_2 N12_2 1_555 1_555
H77_2 C77_2 1_555 1_555
H78_2 C77_2 1_555 1_555
H79_2 C77_2 1_555 1_555
C78_2 N12_2 1_555 1_555
H80_2 C78_2 1_555 1_555
H81_2 C78_2 1_555 1_555
H82_2 C78_2 1_555 1_555
O20_2 C40_2 1_555 1_555
O21_2 C40_2 1_555 1_555
O52 C47_2 1_555 1_555
O54 C47_2 1_555 1_555
O24_2 C48_2 1_555 1_555
N7_2 H42_2 1_555 1_555
C40_2 C41_2 1_555 1_555
C41_2 C42_2 1_555 1_555
C42_2 H43_2 1_555 1_555
C43_2 C42_2 1_555 1_555
C44_2 C43_2 1_555 1_555
H44_2 C44_2 1_555 1_555
C45_2 N7_2 1_555 1_555
C46_2 C41_2 1_555 1_555
H45_2 C46_2 1_555 1_555
C47_2 C43_2 1_555 1_555
Tb10 O25_2 1_555 1_555
Tb14 O20_2 1_555 1_555
O25_2 C49_2 1_555 1_555
O26_2 Tb14 1_555 1_555
O35_2 Tb10 1_555 1_555
O36_2 Tb14 1_555 1_555
O37_2 Tb14 1_555 1_555
O38_2 Tb10 1_555 1_555
H46_2 O38_2 1_555 1_555
H47_2 O38_2 1_555 1_555
N10_2 C68_2 1_555 1_555
N11_2 C72_2 1_555 1_555
C49_2 O26_2 1_555 1_555
C50_2 C49_2 1_555 1_555
C51_2 C50_2 1_555 1_555
H50_2 C51_2 1_555 1_555
C55_2 C50_2 1_555 1_555
H52_2 C55_2 1_555 1_555
C67_2 H56_2 1_555 1_555
H57_2 C67_2 1_555 1_555
H58_2 C67_2 1_555 1_555
C68_2 O35_2 1_555 1_555
C69_2 N10_2 1_555 1_555
H59_2 C69_2 1_555 1_555
H60_2 C69_2 1_555 1_555
H61_2 C69_2 1_555 1_555
C70 N10_2 1_555 1_555
H62 C70 1_555 1_555
H63 C70 1_555 1_555
H64 C70 1_555 1_555
C71_2 H65_2 1_555 1_555
H66_2 C71_2 1_555 1_555
H67_2 C71_2 1_555 1_555
C72_2 O36_2 1_555 1_555
C73_2 N11_2 1_555 1_555
H68_2 C73_2 1_555 1_555
H69_2 C73_2 1_555 1_555
H70_2 C73_2 1_555 1_555
C74_2 N11_2 1_555 1_555
H72_2 C74_2 1_555 1_555
C75_2 H74_2 1_555 1_555
H75_2 C75_2 1_555 1_555
H76_2 C75_2 1_555 1_555
C76_2 O37_2 1_555 1_555
O21_2 Tb14 1_555 1_555
N7_2 C48_2 1_555 1_555
C44_2 C45_2 1_555 1_555
C45_2 C46_2 1_555 1_555
C51_2 C52_2 1_555 1_555
C67_2 C68_2 1_555 1_555
C71_2 C72_2 1_555 1_555
C75_2 C76_2 1_555 1_555
Tb7 O1_2 1_555 1_555
Tb12 O2_2 1_555 1_555
O1_2 C1_2 1_555 1_555
O2_2 C1_2 1_555 1_555
O11_2 Tb12 1_555 1_555
O12_2 Tb12 1_555 1_555
O51 C26_2 1_555 1_555
O53 C26_2 1_555 1_555
O15_2 C27_2 1_555 1_555
O16_2 Tb7 1_555 1_555
O17_2 Tb12 1_555 1_555
O18_2 Tb12 1_555 1_555
O19_2 Tb7 1_555 1_555
H1_2 O19_2 1_555 1_555
H2_2 O19_2 1_555 1_555
N3_2 H5_2 1_555 1_555
N4_2 C29_2 1_555 1_555
N5_2 C33_2 1_555 1_555
C1_2 C2_2 1_555 1_555
C2_2 C3_2 1_555 1_555
C3_2 H6_2 1_555 1_555
C7_2 C2_2 1_555 1_555
H8_2 C7_2 1_555 1_555
C19_2 O11_2 1_555 1_555
C20_2 C19_2 1_555 1_555
C21_2 C20_2 1_555 1_555
H12_2 C21_2 1_555 1_555
C22_2 C21_2 1_555 1_555
C23_2 C22_2 1_555 1_555
H13_2 C23_2 1_555 1_555
C24_2 N3_2 1_555 1_555
C25_2 C20_2 1_555 1_555
H14_2 C25_2 1_555 1_555
C26_2 C22_2 1_555 1_555
C27_2 N3_2 1_555 1_555
C28_2 H15_2 1_555 1_555
H16_2 C28_2 1_555 1_555
H17_2 C28_2 1_555 1_555
C29_2 O16_2 1_555 1_555
C30_2 N4_2 1_555 1_555
H18_2 C30_2 1_555 1_555
H19_2 C30_2 1_555 1_555
H20_2 C30_2 1_555 1_555
C31 N4_2 1_555 1_555
H21 C31 1_555 1_555
H22 C31 1_555 1_555
H23 C31 1_555 1_555
C32_2 H24_2 1_555 1_555
H25_2 C32_2 1_555 1_555
H26_2 C32_2 1_555 1_555
C33_2 O17_2 1_555 1_555
C34_2 N5_2 1_555 1_555
H27_2 C34_2 1_555 1_555
H28_2 C34_2 1_555 1_555
H29_2 C34_2 1_555 1_555
C35_2 N5_2 1_555 1_555
H31_2 C35_2 1_555 1_555
C36_2 H33_2 1_555 1_555
H34_2 C36_2 1_555 1_555
H35_2 C36_2 1_555 1_555
C37_2 O18_2 1_555 1_555
O43 Tb12 1_555 1_555
O45 Tb12 1_555 1_555
O12_2 C19_2 1_555 1_555
C3_2 C4_2 1_555 1_555
C23_2 C24_2 1_555 1_555
C24_2 C25_2 1_555 1_555
C28_2 C29_2 1_555 1_555
C32_2 C33_2 1_555 1_555
C36_2 C37_2 1_555 1_555
O39 C8_2 1_555 1_555
O41 C8_2 1_555 1_555
H7_2 C5_2 1_555 1_555
C6_2 C5_2 1_555 1_555
C8_2 C6_2 1_555 1_555
C38_2 N6_2 1_555 1_555
H36_2 C38_2 1_555 1_555
H37_2 C38_2 1_555 1_555
H38_2 C38_2 1_555 1_555
C39_2 N6_2 1_555 1_555
H39_2 C39_2 1_555 1_555
H40_2 C39_2 1_555 1_555
H41_2 C39_2 1_555 1_555
O43 C17_2 1_555 1_555
O45 C17_2 1_555 1_555
N1_2 H3_2 1_555 1_555
H9_2 C12_2 1_555 1_555
C13_2 C12_2 1_555 1_555
C17_2 C13_2 1_555 1_555
O5_2 C9_2 1_555 1_555
O47 C18_2 1_555 1_555
O49 C18_2 1_555 1_555
N2_2 H4_2 1_555 1_555
C10_2 N2_2 1_555 1_555
C11_2 N2_2 1_555 1_555
H10_2 C14_2 1_555 1_555
C15_2 C14_2 1_555 1_555
C16_2 C11_2 1_555 1_555
H11_2 C16_2 1_555 1_555
C18_2 C15_2 1_555 1_555
C9_2 C10_2 1_555 1_555
C15_2 C16_2 1_555 1_555
H22_2 C31_2 1_555 1_555
H23_2 C31_2 1_555 1_555
H63_2 C70_2 1_555 1_555
H64_2 C70_2 1_555 1_555

#END
