
###############################################################################
#
# This file contains modified crystal structure data generated from the
# MOF subset of the Cambridge Structural Database (CSD) v543 
# hosted by the Cambridge Crystallographic Data Centre (CCDC).
#
# This work is licensed under the Creative Commons
# Attribution-NonCommercial-ShareAlike 4.0 International License.
# To view a copy of this license, visit
# http://creativecommons.org/licenses/by-nc-sa/4.0/
# or send a letter to
# Creative Commons, PO Box 1866, Mountain View, CA 94042, USA.
#
# CIF created using the CSD Python API on 29 September 2022
# The structure has been converted into the P1 space group
# The structure has a 3D framework
# The original CSD entry ZECKOJ is in the tetragonal crystal system
# The framework has been calculated to contain at least 10.0% void space
# The void calculation uses a probe of radius 1.32A, grid spacing 0.4
#
###############################################################################

data_ZECKOJ
_chemical_formula_moiety         '(C56 H48 Cu12 N16 O25)n'
_symmetry_cell_setting           triclinic
_symmetry_space_group_name_H-M   'P 1'
_symmetry_Int_Tables_number      1
_space_group_name_Hall           'P 1'
loop_
_symmetry_equiv_pos_site_id
_symmetry_equiv_pos_as_xyz
1 x,y,z
_cell_length_a                   16.756(8)
_cell_length_b                   16.756(8)
_cell_length_c                   14.209(7)
_cell_angle_alpha                90
_cell_angle_beta                 90
_cell_angle_gamma                90
_cell_volume                     3989.37
loop_
_atom_site_label
_atom_site_type_symbol
_atom_site_fract_x
_atom_site_fract_y
_atom_site_fract_z
Cu1 Cu 0.09908(10) 0.0000 0.47883(14)
O2 O 0.0000 0.0000 0.3527(16)
Cu4 Cu -0.0000 0.40092(10) 0.72883(14)
N3 N 0.0406(5) 0.0872(5) 0.5383(7)
C6 C 0.0667(6) 0.1554(7) 0.5756(8)
C8 C 0.0000 0.2045(9) 0.6002(12)
C10 C 0.1530(7) 0.1733(10) 0.5874(13)
H5 H 0.1630 0.2285 0.5708
H8 H 0.1683 0.1643 0.6524
H11 H 0.1840 0.1386 0.5467
O5 O 0.1849(6) 0.0651(5) 0.4155(8)
O9 O 0.0651(5) 0.3151(6) 0.6655(8)
C12 C -0.0000 0.2792(10) 0.6447(15)
Cu1_2 Cu 0.09908(10) 1.0000 0.47883(14)
N1 N 0.0406(5) 0.9128(5) 0.5383(7)
C1 C 0.0667(6) 0.8446(7) 0.5756(8)
C2 C 0.0000 0.7955(9) 0.6002(12)
C3 C 0.1530(7) 0.8267(10) 0.5874(13)
H1 H 0.1630 0.7715 0.5708
H2 H 0.1683 0.8357 0.6524
H3 H 0.1840 0.8614 0.5467
O1 O 0.0651(5) 0.6849(6) 0.6655(8)
C4 C 0.0000 0.7208(10) 0.6447(15)
O2_2 O 0.0000 1.0000 0.3527(16)
Cu3 Cu 0.0000 0.59908(10) 0.72883(14)
O4 O 0.1849(6) 0.9349(5) 0.4155(8)
O2_3 O 1.0000 0.0000 0.3527(16)
Cu2 Cu 0.90092(10) 0.0000 0.47883(14)
Cu4_2 Cu 1.0000 0.40092(10) 0.72883(14)
N4 N 0.9594(5) 0.0872(5) 0.5383(7)
C7 C 0.9333(6) 0.1554(7) 0.5756(8)
C8_2 C 1.0000 0.2045(9) 0.6002(12)
C11 C 0.8470(7) 0.1733(10) 0.5874(13)
H6 H 0.8370 0.2285 0.5708
H9 H 0.8317 0.1643 0.6524
H12 H 0.8160 0.1386 0.5467
O7 O 0.8151(6) 0.0651(5) 0.4155(8)
O8 O 0.9349(5) 0.3151(6) 0.6655(8)
C12_2 C 1.0000 0.2792(10) 0.6447(15)
C2_2 C 1.0000 0.7955(9) 0.6002(12)
C4_2 C 1.0000 0.7208(10) 0.6447(15)
O2_4 O 1.0000 1.0000 0.3527(16)
Cu2_2 Cu 0.90092(10) 1.0000 0.47883(14)
Cu3_2 Cu 1.0000 0.59908(10) 0.72883(14)
N2 N 0.9594(5) 0.9128(5) 0.5383(7)
C5 C 0.9333(6) 0.8446(7) 0.5756(8)
C9 C 0.8470(7) 0.8267(10) 0.5874(13)
H4 H 0.8370 0.7715 0.5708
H7 H 0.8317 0.8357 0.6524
H10 H 0.8160 0.8614 0.5467
O3 O 0.9349(5) 0.6849(6) 0.6655(8)
O6 O 0.8151(6) 0.9349(5) 0.4155(8)
N1_2 N 0.0872(5) 0.5406(5) 0.7883(7)
C1_2 C 0.1554(7) 0.5667(6) 0.8256(8)
C2_3 C 0.2045(9) 0.5000 0.8502(12)
C3_2 C 0.1733(10) 0.6530(7) 0.8374(13)
H1_2 H 0.2285 0.6630 0.8208
H2_2 H 0.1643 0.6683 0.9024
H3_2 H 0.1386 0.6840 0.7967
O1_2 O 0.3151(6) 0.5651(5) 0.9155(8)
C4_3 C 0.2792(10) 0.5000 0.8947(15)
O2_5 O -0.0000 0.5000 0.6027(16)
Cu3_3 Cu 0.40092(10) 0.5000 0.97883(14)
N2_2 N 0.0872(5) 0.4594(5) 0.7883(7)
C5_2 C 0.1554(7) 0.4333(6) 0.8256(8)
C9_2 C 0.1733(10) 0.3470(7) 0.8374(13)
H4_2 H 0.2285 0.3370 0.8208
H7_2 H 0.1643 0.3317 0.9024
H10_2 H 0.1386 0.3160 0.7967
O3_2 O 0.3151(6) 0.4349(5) 0.9155(8)
O2_6 O 1.0000 0.5000 0.6027(16)
Cu4_3 Cu 0.59908(10) 0.5000 0.97883(14)
N3_2 N 0.9128(5) 0.5406(5) 0.7883(7)
N4_2 N 0.9128(5) 0.4594(5) 0.7883(7)
C6_2 C 0.8446(7) 0.5667(6) 0.8256(8)
C7_2 C 0.8446(7) 0.4333(6) 0.8256(8)
C8_3 C 0.7955(9) 0.5000 0.8502(12)
C10_2 C 0.8267(10) 0.6530(7) 0.8374(13)
C11_2 C 0.8267(10) 0.3470(7) 0.8374(13)
H5_2 H 0.7715 0.6630 0.8208
H6_2 H 0.7715 0.3370 0.8208
H8_2 H 0.8357 0.6683 0.9024
H9_2 H 0.8357 0.3317 0.9024
H11_2 H 0.8614 0.6840 0.7967
H12_2 H 0.8614 0.3160 0.7967
O8_2 O 0.6849(6) 0.4349(5) 0.9155(8)
O9_2 O 0.6849(6) 0.5651(5) 0.9155(8)
C12_3 C 0.7208(10) 0.5000 0.8947(15)
N1_3 N 0.5406(5) 0.4128(5) 0.0383(7)
C1_3 C 0.5667(6) 0.3446(7) 0.0756(8)
C2_4 C 0.5000 0.2955(9) 0.1002(12)
C3_3 C 0.6530(7) 0.3267(10) 0.0874(13)
H1_3 H 0.6630 0.2715 0.0708
H2_3 H 0.6683 0.3357 0.1524
H3_3 H 0.6840 0.3614 0.0467
O1_3 O 0.5651(5) 0.1849(6) 0.1655(8)
C4_4 C 0.5000 0.2208(10) 0.1447(15)
Cu3_4 Cu 0.5000 0.09908(10) 0.22883(14)
Cu4_4 Cu 0.5000 0.90092(10) 0.22883(14)
N2_3 N 0.4594(5) 0.4128(5) 0.0383(7)
N3_3 N 0.5406(5) 0.5872(5) 0.0383(7)
N4_3 N 0.4594(5) 0.5872(5) 0.0383(7)
C5_3 C 0.4333(6) 0.3446(7) 0.0756(8)
C6_3 C 0.5667(6) 0.6554(7) 0.0756(8)
C7_3 C 0.4333(6) 0.6554(7) 0.0756(8)
C8_4 C 0.5000 0.7045(9) 0.1002(12)
C9_3 C 0.3470(7) 0.3267(10) 0.0874(13)
C10_3 C 0.6530(7) 0.6733(10) 0.0874(13)
C11_3 C 0.3470(7) 0.6733(10) 0.0874(13)
H4_3 H 0.3370 0.2715 0.0708
H5_3 H 0.6630 0.7285 0.0708
H6_3 H 0.3370 0.7285 0.0708
H7_3 H 0.3317 0.3357 0.1524
H8_3 H 0.6683 0.6643 0.1524
H9_3 H 0.3317 0.6643 0.1524
H10_3 H 0.3160 0.3614 0.0467
H11_3 H 0.6840 0.6386 0.0467
H12_3 H 0.3160 0.6386 0.0467
O3_3 O 0.4349(5) 0.1849(6) 0.1655(8)
O8_3 O 0.4349(5) 0.8151(6) 0.1655(8)
O9_3 O 0.5651(5) 0.8151(6) 0.1655(8)
C12_4 C 0.5000 0.7792(10) 0.1447(15)
O2_7 O 0.5000 0.5000 0.8527(16)
N1_4 N 0.5872(5) 0.0406(5) 0.2883(7)
C1_4 C 0.6554(7) 0.0667(6) 0.3256(8)
C2_5 C 0.7045(9) 0.0000 0.3502(12)
C3_4 C 0.6733(10) 0.1530(7) 0.3374(13)
H1_4 H 0.7285 0.1630 0.3208
H2_4 H 0.6643 0.1683 0.4024
H3_4 H 0.6386 0.1840 0.2967
C4_5 C 0.7792(10) -0.0000 0.3947(15)
O2_8 O 0.5000 0.0000 0.1027(16)
N3_4 N 0.4128(5) 0.0406(5) 0.2883(7)
C6_4 C 0.3446(7) 0.0667(6) 0.3256(8)
C8_5 C 0.2955(9) 0.0000 0.3502(12)
C10_4 C 0.3267(10) 0.1530(7) 0.3374(13)
H5_4 H 0.2715 0.1630 0.3208
H8_4 H 0.3357 0.1683 0.4024
H11_4 H 0.3614 0.1840 0.2967
C12_5 C 0.2208(10) -0.0000 0.3947(15)
C2_6 C 0.7045(9) 1.0000 0.3502(12)
C4_6 C 0.7792(10) 1.0000 0.3947(15)
O2_9 O 0.5000 1.0000 0.1027(16)
N2_4 N 0.5872(5) 0.9594(5) 0.2883(7)
N4_4 N 0.4128(5) 0.9594(5) 0.2883(7)
C5_4 C 0.6554(7) 0.9333(6) 0.3256(8)
C7_4 C 0.3446(7) 0.9333(6) 0.3256(8)
C8_6 C 0.2955(9) 1.0000 0.3502(12)
C9_4 C 0.6733(10) 0.8470(7) 0.3374(13)
C11_4 C 0.3267(10) 0.8470(7) 0.3374(13)
H4_4 H 0.7285 0.8370 0.3208
H6_4 H 0.2715 0.8370 0.3208
H7_4 H 0.6643 0.8317 0.4024
H9_4 H 0.3357 0.8317 0.4024
H10_4 H 0.6386 0.8160 0.2967
H12_4 H 0.3614 0.8160 0.2967
C12_6 C 0.2208(10) 1.0000 0.3947(15)
loop_
_geom_bond_atom_site_label_1
_geom_bond_atom_site_label_2
_geom_bond_site_symmetry_1
_geom_bond_site_symmetry_2
O2 Cu1 1_555 1_555
N3 Cu1 1_555 1_555
C6 N3 1_555 1_555
C8 C6 1_555 1_555
C10 C6 1_555 1_555
H5 C10 1_555 1_555
H8 C10 1_555 1_555
H11 C10 1_555 1_555
O5 Cu1 1_555 1_555
O9 Cu4 1_555 1_555
C12 C8 1_555 1_555
O9 C12 1_555 1_555
Cu1_2 N1 1_555 1_555
N1 C1 1_555 1_555
C1 C2 1_555 1_555
C2 C4 1_555 1_555
C3 C1 1_555 1_555
H1 C3 1_555 1_555
H2 C3 1_555 1_555
H3 C3 1_555 1_555
O1 C4 1_555 1_555
O2_2 Cu1_2 1_555 1_555
Cu3 O1 1_555 1_555
O4 Cu1_2 1_555 1_555
Cu2 O2_3 1_555 1_555
Cu4_2 O8 1_555 1_555
N4 Cu2 1_555 1_555
C7 N4 1_555 1_555
C11 C7 1_555 1_555
H6 C11 1_555 1_555
H9 C11 1_555 1_555
H12 C11 1_555 1_555
O7 Cu2 1_555 1_555
O8 C12_2 1_555 1_555
C12_2 C8_2 1_555 1_555
C7 C8_2 1_555 1_555
C2_2 C4_2 1_555 1_555
C4_2 O3 1_555 1_555
Cu2_2 O2_4 1_555 1_555
C5 C2_2 1_555 1_555
C9 C5 1_555 1_555
H4 C9 1_555 1_555
H7 C9 1_555 1_555
H10 C9 1_555 1_555
O3 Cu3_2 1_555 1_555
O6 Cu2_2 1_555 1_555
Cu2_2 N2 1_555 1_555
N2 C5 1_555 1_555
Cu3 N1_2 1_555 1_555
N1_2 C1_2 1_555 1_555
C1_2 C2_3 1_555 1_555
C2_3 C4_3 1_555 1_555
C3_2 C1_2 1_555 1_555
H1_2 C3_2 1_555 1_555
H2_2 C3_2 1_555 1_555
H3_2 C3_2 1_555 1_555
O1_2 C4_3 1_555 1_555
C4_3 O3_2 1_555 1_555
O2_5 Cu3 1_555 1_555
Cu4 O2_5 1_555 1_555
Cu3_3 O1_2 1_555 1_555
N2_2 N1_2 1_555 1_555
C5_2 C2_3 1_555 1_555
C9_2 C5_2 1_555 1_555
H4_2 C9_2 1_555 1_555
H7_2 C9_2 1_555 1_555
H10_2 C9_2 1_555 1_555
O3_2 Cu3_3 1_555 1_555
Cu4 N2_2 1_555 1_555
N2_2 C5_2 1_555 1_555
O2_6 Cu3_2 1_555 1_555
Cu4_2 O2_6 1_555 1_555
Cu4_3 O8_2 1_555 1_555
N3_2 Cu3_2 1_555 1_555
N4_2 Cu4_2 1_555 1_555
C6_2 N3_2 1_555 1_555
C7_2 N4_2 1_555 1_555
C8_3 C6_2 1_555 1_555
C10_2 C6_2 1_555 1_555
C11_2 C7_2 1_555 1_555
H5_2 C10_2 1_555 1_555
H6_2 C11_2 1_555 1_555
H8_2 C10_2 1_555 1_555
H9_2 C11_2 1_555 1_555
H11_2 C10_2 1_555 1_555
H12_2 C11_2 1_555 1_555
O8_2 C12_3 1_555 1_555
O9_2 Cu4_3 1_555 1_555
C12_3 C8_3 1_555 1_555
N3_2 N4_2 1_555 1_555
C7_2 C8_3 1_555 1_555
O9_2 C12_3 1_555 1_555
N1_3 C1_3 1_555 1_555
C1_3 C2_4 1_555 1_555
C2_4 C4_4 1_555 1_555
C3_3 C1_3 1_555 1_555
H1_3 C3_3 1_555 1_555
H2_3 C3_3 1_555 1_555
H3_3 C3_3 1_555 1_555
O1_3 C4_4 1_555 1_555
C4_4 O3_3 1_555 1_555
Cu3_4 O1_3 1_555 1_555
Cu4_4 O8_3 1_555 1_555
N2_3 N1_3 1_555 1_555
C5_3 C2_4 1_555 1_555
C6_3 N3_3 1_555 1_555
C7_3 N4_3 1_555 1_555
C8_4 C6_3 1_555 1_555
C9_3 C5_3 1_555 1_555
C10_3 C6_3 1_555 1_555
C11_3 C7_3 1_555 1_555
H4_3 C9_3 1_555 1_555
H5_3 C10_3 1_555 1_555
H6_3 C11_3 1_555 1_555
H7_3 C9_3 1_555 1_555
H8_3 C10_3 1_555 1_555
H9_3 C11_3 1_555 1_555
H10_3 C9_3 1_555 1_555
H11_3 C10_3 1_555 1_555
H12_3 C11_3 1_555 1_555
O3_3 Cu3_4 1_555 1_555
O8_3 C12_4 1_555 1_555
O9_3 Cu4_4 1_555 1_555
C12_4 C8_4 1_555 1_555
N2_3 C5_3 1_555 1_555
N3_3 N4_3 1_555 1_555
C7_3 C8_4 1_555 1_555
O9_3 C12_4 1_555 1_555
O2_7 Cu4_3 1_555 1_555
Cu3_3 O2_7 1_555 1_555
Cu3_4 N1_4 1_555 1_555
N1_4 C1_4 1_555 1_555
C1_4 C2_5 1_555 1_555
C2_5 C4_5 1_555 1_555
C3_4 C1_4 1_555 1_555
H1_4 C3_4 1_555 1_555
H2_4 C3_4 1_555 1_555
H3_4 C3_4 1_555 1_555
O7 C4_5 1_555 1_555
O2_8 Cu3_4 1_555 1_555
N3_4 Cu3_4 1_555 1_555
C6_4 N3_4 1_555 1_555
C8_5 C6_4 1_555 1_555
C10_4 C6_4 1_555 1_555
H5_4 C10_4 1_555 1_555
H8_4 C10_4 1_555 1_555
H11_4 C10_4 1_555 1_555
C12_5 C8_5 1_555 1_555
O5 C12_5 1_555 1_555
C2_6 C4_6 1_555 1_555
C4_6 O6 1_555 1_555
Cu4_4 O2_9 1_555 1_555
N4_4 Cu4_4 1_555 1_555
C5_4 C2_6 1_555 1_555
C7_4 N4_4 1_555 1_555
C9_4 C5_4 1_555 1_555
C11_4 C7_4 1_555 1_555
H4_4 C9_4 1_555 1_555
H6_4 C11_4 1_555 1_555
H7_4 C9_4 1_555 1_555
H9_4 C11_4 1_555 1_555
H10_4 C9_4 1_555 1_555
H12_4 C11_4 1_555 1_555
O4 C12_6 1_555 1_555
C12_6 C8_6 1_555 1_555
Cu4_4 N2_4 1_555 1_555
N2_4 C5_4 1_555 1_555
C7_4 C8_6 1_555 1_555

#END
