
###############################################################################
#
# This file contains modified crystal structure data generated from the
# MOF subset of the Cambridge Structural Database (CSD) v543 
# hosted by the Cambridge Crystallographic Data Centre (CCDC).
#
# This work is licensed under the Creative Commons
# Attribution-NonCommercial-ShareAlike 4.0 International License.
# To view a copy of this license, visit
# http://creativecommons.org/licenses/by-nc-sa/4.0/
# or send a letter to
# Creative Commons, PO Box 1866, Mountain View, CA 94042, USA.
#
# CIF created using the CSD Python API on 29 September 2022
# The structure has been converted into the P1 space group
# The structure has a 3D framework
# The original CSD entry ZEDGUO is in the monoclinic crystal system
# The framework has been calculated to contain at least 10.0% void space
# The void calculation uses a probe of radius 1.32A, grid spacing 0.4
# The framework is charged, counterions have been retained in the structure
#
###############################################################################

data_ZEDGUO
_chemical_formula_moiety         '(C184 H184 N52 O92 S8 Zn14 8-)n'
_symmetry_cell_setting           triclinic
_symmetry_space_group_name_H-M   'P 1'
_symmetry_Int_Tables_number      1
_space_group_name_Hall           'P 1'
loop_
_symmetry_equiv_pos_site_id
_symmetry_equiv_pos_as_xyz
1 x,y,z
_cell_length_a                   30.492(2)
_cell_length_b                   11.9895(9)
_cell_length_c                   21.9612(17)
_cell_angle_alpha                90
_cell_angle_beta                 109.883(1)
_cell_angle_gamma                90
_cell_volume                     7550.06
loop_
_atom_site_label
_atom_site_type_symbol
_atom_site_fract_x
_atom_site_fract_y
_atom_site_fract_z
O18 O 0.47612(7) 0.78413(18) 0.16939(10)
N8 N 0.36982(7) 0.5289(2) 0.00368(11)
H16 H 0.35520(7) 0.5808(2) 0.01590(11)
O21 O 0.56995(7) 0.3704(2) 0.09555(13)
H18 H 0.58592(11) 0.3181(15) 0.0912(17)
O22 O 0.51143(8) 0.2635(2) 0.03526(13)
C29 C 0.41804(9) 0.5224(2) 0.03970(13)
O24 O 0.54291(8) 0.6934(2) 0.20609(14)
C33 C 0.43611(9) 0.6102(2) 0.08207(13)
H22 H 0.41656(9) 0.6675(2) 0.08555(13)
C34 C 0.48328(9) 0.6130(2) 0.11939(14)
C36 C 0.44711(10) 0.4354(3) 0.03492(14)
H23 H 0.43503(10) 0.3752(3) 0.00770(14)
C37 C 0.49438(10) 0.4399(3) 0.07137(14)
C38 C 0.52528(11) 0.3481(3) 0.06477(16)
C39 C 0.51246(10) 0.5288(3) 0.11266(15)
H24 H 0.54425(10) 0.5319(3) 0.13591(15)
C40 C 0.50249(11) 0.7041(3) 0.16786(15)
Zn5 Zn 0.5 0.87113(4) 0.250
Zn1 Zn 0.0 0.62887(4) 0.750
Zn3 Zn 0.218492(10) 0.17282(3) 0.570047(15)
S2 S 0.18387(2) 0.32623(6) 0.45305(3)
O13 O 0.18830(6) 0.20976(16) 0.47899(9)
O14 O 0.05572(6) 0.53755(17) 0.76488(10)
O15 O 0.21549(6) 0.25349(18) 0.64534(9)
O16 O 0.14081(7) 0.24440(18) 0.58773(9)
O17 O 0.21338(6) 0.33112(17) 0.41091(9)
N7 N 0.29917(7) 0.50835(18) 0.92336(10)
O19 O 0.13609(7) 0.34335(19) 0.41085(11)
O20 O 0.03123(7) 0.4785(2) 0.66295(11)
N9 N 0.28471(8) 0.3454(2) 0.85683(12)
N10 N 0.36028(8) 0.3750(2) 0.93716(12)
N11 N 0.22635(7) 0.4719(2) 0.84856(11)
H17 H 0.21798(7) 0.5262(2) 0.86773(11)
O23 O 0.19952(9) 0.4038(2) 0.50539(12)
C22 C 0.34296(9) 0.4675(2) 0.95346(13)
C23 C 0.27143(9) 0.4387(2) 0.87640(13)
C24 C 0.14593(9) 0.4678(2) 0.78408(13)
H19 H 0.14018(9) 0.5099(2) 0.81615(13)
C25 C 0.16300(9) 0.3416(2) 0.68887(13)
C26 C 0.11802(9) 0.3788(2) 0.67970(13)
H20 H 0.09379(9) 0.3614(2) 0.64176(13)
C27 C 0.19947(9) 0.3678(2) 0.74522(13)
H21 H 0.22946(9) 0.3429(2) 0.75079(13)
C28 C 0.10936(9) 0.4422(2) 0.72749(13)
C30 C 0.17281(9) 0.2754(2) 0.63687(14)
C31 C 0.19133(9) 0.4308(2) 0.79312(13)
N12 N 0.34637(9) 0.2282(2) 0.86553(14)
C32 C 0.06124(10) 0.4890(2) 0.71674(15)
C35 C 0.33005(11) 0.3190(3) 0.88700(15)
C41 C 0.39551(13) 0.1946(3) 0.8933(2)
H25 H 0.4043(3) 0.190(2) 0.9396(2)
H26 H 0.3996(2) 0.1231(12) 0.8764(11)
H27 H 0.41472(16) 0.2488(13) 0.8822(12)
C42 C 0.31648(16) 0.1618(4) 0.8109(2)
H28 H 0.3198(10) 0.188(2) 0.7714(3)
H29 H 0.3255(9) 0.0848(6) 0.8173(9)
H30 H 0.2845(2) 0.169(3) 0.8082(11)
Zn6 Zn 0.281508(10) 0.67282(3) 0.929953(15)
Zn9 Zn 0.281508(10) 0.32718(3) 0.429953(15)
O26 O 0.28662(6) 0.16888(17) 0.58909(9)
O28 O 0.02388(7) 0.71587(18) 0.83061(10)
N13 N 0.20083(7) 0.00835(18) 0.57664(10)
S1 S 0.81613(2) 0.32623(6) 0.04695(3)
O1 O 0.81170(6) 0.20976(16) 0.02101(9)
O5 O 0.78662(6) 0.33112(17) 0.08909(9)
O7 O 0.86391(7) 0.34335(19) 0.08915(11)
Zn8 Zn 0.718492(10) 0.32718(3) 0.070047(15)
Zn1_2 Zn 1.0 0.62887(4) 0.750
Zn2 Zn 0.781508(10) 0.17282(3) 0.929953(15)
O2 O 0.94428(6) 0.53755(17) 0.73512(10)
O3 O 0.78451(6) 0.25349(18) 0.85466(9)
O4 O 0.85919(7) 0.24440(18) 0.91227(9)
O6 O 0.52388(7) 0.78413(18) 0.33061(10)
N1 N 0.70083(7) 0.50835(18) 0.57664(10)
O8 O 0.96877(7) 0.4785(2) 0.83705(11)
N2 N 0.63018(7) 0.5289(2) 0.49632(11)
H1 H 0.64480(7) 0.5808(2) 0.48410(11)
N3 N 0.71529(8) 0.3454(2) 0.64317(12)
N4 N 0.63972(8) 0.3750(2) 0.56284(12)
N5 N 0.77365(7) 0.4719(2) 0.65144(11)
H2 H 0.78202(7) 0.5262(2) 0.63227(11)
O9 O 0.43005(7) 0.3704(2) 0.40445(13)
H3 H 0.41408(11) 0.3181(15) 0.4088(17)
O10 O 0.48857(8) 0.2635(2) 0.46474(13)
O11 O 0.80048(9) 0.4038(2) 0.99461(12)
C1 C 0.65704(9) 0.4675(2) 0.54654(13)
C2 C 0.72857(9) 0.4387(2) 0.62360(13)
C3 C 0.85407(9) 0.4678(2) 0.71592(13)
H4 H 0.85982(9) 0.5099(2) 0.68385(13)
C4 C 0.83700(9) 0.3416(2) 0.81113(13)
C5 C 0.88198(9) 0.3788(2) 0.82030(13)
H5 H 0.90621(9) 0.3614(2) 0.85824(13)
C6 C 0.80053(9) 0.3678(2) 0.75478(13)
H6 H 0.77054(9) 0.3429(2) 0.74921(13)
C7 C 0.89064(9) 0.4422(2) 0.77251(13)
C8 C 0.58196(9) 0.5224(2) 0.46030(13)
O12 O 0.45709(8) 0.6934(2) 0.29391(14)
C9 C 0.82719(9) 0.2754(2) 0.86313(14)
C10 C 0.80867(9) 0.4308(2) 0.70688(13)
N6 N 0.65363(9) 0.2282(2) 0.63447(14)
C11 C 0.93876(10) 0.4890(2) 0.78326(15)
C12 C 0.56389(9) 0.6102(2) 0.41793(13)
H7 H 0.58344(9) 0.6675(2) 0.41445(13)
C13 C 0.51672(9) 0.6130(2) 0.38061(14)
C14 C 0.66995(11) 0.3190(3) 0.61300(15)
C15 C 0.55289(10) 0.4354(3) 0.46508(14)
H8 H 0.56497(10) 0.3752(3) 0.49230(14)
C16 C 0.50562(10) 0.4399(3) 0.42863(14)
C17 C 0.47472(11) 0.3481(3) 0.43523(16)
C18 C 0.48754(10) 0.5288(3) 0.38734(15)
H9 H 0.45575(10) 0.5319(3) 0.36409(15)
C19 C 0.49751(11) 0.7041(3) 0.33214(15)
C20 C 0.60449(13) 0.1946(3) 0.6067(2)
H10 H 0.5957(3) 0.190(2) 0.5604(2)
H11 H 0.6004(2) 0.1231(12) 0.6236(11)
H12 H 0.58528(16) 0.2488(13) 0.6178(12)
C21 C 0.68352(16) 0.1618(4) 0.6891(2)
H13 H 0.6802(10) 0.188(2) 0.7286(3)
H14 H 0.6745(9) 0.0848(6) 0.6827(9)
H15 H 0.7155(2) 0.169(3) 0.6918(11)
Zn7 Zn 0.718492(10) 0.67282(3) 0.570047(15)
O25 O 0.71338(6) 0.16888(17) 0.91091(9)
O27 O 0.97612(7) 0.71587(18) 0.66939(10)
N14 N 0.79917(7) 0.00835(18) 0.92336(10)
O24_2 O 0.04291(8) 0.1934(2) 0.20609(14)
C39_2 C 0.01246(10) 0.0288(3) 0.11266(15)
H24_2 H 0.04425(10) 0.0319(3) 0.13591(15)
C40_2 C 0.00249(11) 0.2041(3) 0.16786(15)
Zn5_2 Zn 0.0 0.37113(4) 0.250
O18_2 O 0.97612(7) 0.28413(18) 0.16939(10)
N8_2 N 0.86982(7) 0.0289(2) 0.00368(11)
H16_2 H 0.85520(7) 0.0808(2) 0.01590(11)
C29_2 C 0.91804(9) 0.0224(2) 0.03970(13)
C33_2 C 0.93611(9) 0.1102(2) 0.08207(13)
H22_2 H 0.91656(9) 0.1675(2) 0.08555(13)
C34_2 C 0.98328(9) 0.1130(2) 0.11939(14)
Zn5_3 Zn 1.0 0.37113(4) 0.250
Zn1_3 Zn 0.5 0.12887(4) 0.750
O2_2 O 0.44428(6) 0.03755(17) 0.73512(10)
O6_2 O 0.02388(7) 0.28413(18) 0.33061(10)
N2_2 N 0.13018(7) 0.0289(2) 0.49632(11)
H1_2 H 0.14480(7) 0.0808(2) 0.48410(11)
H2_2 H 0.28202(7) 0.0262(2) 0.63227(11)
H4_2 H 0.35982(9) 0.0099(2) 0.68385(13)
C8_2 C 0.08196(9) 0.0224(2) 0.46030(13)
C12_2 C 0.06389(9) 0.1102(2) 0.41793(13)
H7_2 H 0.08344(9) 0.1675(2) 0.41445(13)
C13_2 C 0.01672(9) 0.1130(2) 0.38061(14)
O14_2 O 0.55572(6) 0.03755(17) 0.76488(10)
H17_2 H 0.71798(7) 0.0262(2) 0.86773(11)
H19_2 H 0.64018(9) 0.0099(2) 0.81615(13)
O27_2 O 0.47612(7) 0.21587(18) 0.66939(10)
O28_2 O 0.52388(7) 0.21587(18) 0.83061(10)
S1_2 S 0.31613(2) 0.82623(6) 0.04695(3)
O1_2 O 0.31170(6) 0.70976(16) 0.02101(9)
O5_2 O 0.28662(6) 0.83112(17) 0.08909(9)
O7_2 O 0.36391(7) 0.84335(19) 0.08915(11)
C36_2 C 0.94711(10) 0.9354(3) 0.03492(14)
H23_2 H 0.93503(10) 0.8752(3) 0.00770(14)
C37_2 C 0.99438(10) 0.9399(3) 0.07137(14)
Zn8_2 Zn 0.218492(10) 0.82718(3) 0.070047(15)
O3_2 O 0.28451(6) 0.75349(18) 0.85466(9)
O4_2 O 0.35919(7) 0.74440(18) 0.91227(9)
O8_2 O 0.46877(7) 0.9785(2) 0.83705(11)
N3_2 N 0.21529(8) 0.8454(2) 0.64317(12)
N4_2 N 0.13972(8) 0.8750(2) 0.56284(12)
N5_2 N 0.27365(7) 0.9719(2) 0.65144(11)
O11_2 O 0.30048(9) 0.9038(2) 0.99461(12)
C1_2 C 0.15704(9) 0.9675(2) 0.54654(13)
C2_2 C 0.22857(9) 0.9387(2) 0.62360(13)
C3_2 C 0.35407(9) 0.9678(2) 0.71592(13)
C4_2 C 0.33700(9) 0.8416(2) 0.81113(13)
C5_2 C 0.38198(9) 0.8788(2) 0.82030(13)
H5_2 H 0.40621(9) 0.8614(2) 0.85824(13)
C6_2 C 0.30053(9) 0.8678(2) 0.75478(13)
H6_2 H 0.27054(9) 0.8429(2) 0.74921(13)
C7_2 C 0.39064(9) 0.9422(2) 0.77251(13)
C9_2 C 0.32719(9) 0.7754(2) 0.86313(14)
C10_2 C 0.30867(9) 0.9308(2) 0.70688(13)
N6_2 N 0.15363(9) 0.7282(2) 0.63447(14)
C11_2 C 0.43876(10) 0.9890(2) 0.78326(15)
C14_2 C 0.16995(11) 0.8190(3) 0.61300(15)
C15_2 C 0.05289(10) 0.9354(3) 0.46508(14)
H8_2 H 0.06497(10) 0.8752(3) 0.49230(14)
C16_2 C 0.00562(10) 0.9399(3) 0.42863(14)
C20_2 C 0.10449(13) 0.6946(3) 0.6067(2)
H10_2 H 0.0957(3) 0.690(2) 0.5604(2)
H11_2 H 0.1004(2) 0.6231(12) 0.6236(11)
H12_2 H 0.08528(16) 0.7488(13) 0.6178(12)
C21_2 C 0.18352(16) 0.6618(4) 0.6891(2)
H13_2 H 0.1802(10) 0.688(2) 0.7286(3)
H14_2 H 0.1745(9) 0.5848(6) 0.6827(9)
H15_2 H 0.2155(2) 0.669(3) 0.6918(11)
S2_2 S 0.68387(2) 0.82623(6) 0.45305(3)
O13_2 O 0.68830(6) 0.70976(16) 0.47899(9)
O15_2 O 0.71549(6) 0.75349(18) 0.64534(9)
O16_2 O 0.64081(7) 0.74440(18) 0.58773(9)
O17_2 O 0.71338(6) 0.83112(17) 0.41091(9)
O19_2 O 0.63609(7) 0.84335(19) 0.41085(11)
O20_2 O 0.53123(7) 0.9785(2) 0.66295(11)
N9_2 N 0.78471(8) 0.8454(2) 0.85683(12)
N10_2 N 0.86028(8) 0.8750(2) 0.93716(12)
N11_2 N 0.72635(7) 0.9719(2) 0.84856(11)
O23_2 O 0.69952(9) 0.9038(2) 0.50539(12)
C22_2 C 0.84296(9) 0.9675(2) 0.95346(13)
C23_2 C 0.77143(9) 0.9387(2) 0.87640(13)
C24_2 C 0.64593(9) 0.9678(2) 0.78408(13)
C25_2 C 0.66300(9) 0.8416(2) 0.68887(13)
C26_2 C 0.61802(9) 0.8788(2) 0.67970(13)
H20_2 H 0.59379(9) 0.8614(2) 0.64176(13)
C27_2 C 0.69947(9) 0.8678(2) 0.74522(13)
H21_2 H 0.72946(9) 0.8429(2) 0.75079(13)
C28_2 C 0.60936(9) 0.9422(2) 0.72749(13)
C30_2 C 0.67281(9) 0.7754(2) 0.63687(14)
C31_2 C 0.69133(9) 0.9308(2) 0.79312(13)
N12_2 N 0.84637(9) 0.7282(2) 0.86553(14)
C32_2 C 0.56124(10) 0.9890(2) 0.71674(15)
C35_2 C 0.83005(11) 0.8190(3) 0.88700(15)
C41_2 C 0.89551(13) 0.6946(3) 0.8933(2)
H25_2 H 0.9043(3) 0.690(2) 0.9396(2)
H26_2 H 0.8996(2) 0.6231(12) 0.8764(11)
H27_2 H 0.91472(16) 0.7488(13) 0.8822(12)
C42_2 C 0.81648(16) 0.6618(4) 0.8109(2)
H28_2 H 0.8198(10) 0.688(2) 0.7714(3)
H29_2 H 0.8255(9) 0.5848(6) 0.8173(9)
H30_2 H 0.7845(2) 0.669(3) 0.8082(11)
Zn9_2 Zn 0.781508(10) 0.82718(3) 0.429953(15)
O25_2 O 0.21338(6) 0.66888(17) 0.91091(9)
O26_2 O 0.78662(6) 0.66888(17) 0.58909(9)
O12_2 O 0.95709(8) 0.1934(2) 0.29391(14)
C18_2 C 0.98754(10) 0.0288(3) 0.38734(15)
H9_2 H 0.95575(10) 0.0319(3) 0.36409(15)
C19_2 C 0.99751(11) 0.2041(3) 0.33214(15)
O2_3 O 0.05572(6) 0.46245(17) 0.26488(10)
O3_3 O 0.21549(6) 0.74651(18) 0.14534(9)
O4_3 O 0.14081(7) 0.75560(18) 0.08773(9)
N1_2 N 0.29917(7) 0.49165(18) 0.42336(10)
O8_3 O 0.03123(7) 0.5215(2) 0.16295(11)
N2_3 N 0.36982(7) 0.4711(2) 0.50368(11)
H1_3 H 0.35520(7) 0.4192(2) 0.51590(11)
N3_3 N 0.28471(8) 0.6546(2) 0.35683(12)
N4_3 N 0.36028(8) 0.6250(2) 0.43716(12)
N5_3 N 0.22635(7) 0.5281(2) 0.34856(11)
H2_3 H 0.21798(7) 0.4738(2) 0.36773(11)
O9_2 O 0.56995(7) 0.6296(2) 0.59555(13)
H3_2 H 0.58592(11) 0.6819(15) 0.5912(17)
O10_2 O 0.51143(8) 0.7365(2) 0.53526(13)
O11_3 O 0.19952(9) 0.5962(2) 0.00539(12)
C1_3 C 0.34296(9) 0.5325(2) 0.45346(13)
C2_3 C 0.27143(9) 0.5613(2) 0.37640(13)
C3_3 C 0.14593(9) 0.5322(2) 0.28408(13)
H4_3 H 0.14018(9) 0.4901(2) 0.31615(13)
C4_3 C 0.16300(9) 0.6584(2) 0.18887(13)
C5_3 C 0.11802(9) 0.6212(2) 0.17970(13)
H5_3 H 0.09379(9) 0.6386(2) 0.14176(13)
C6_3 C 0.19947(9) 0.6322(2) 0.24522(13)
H6_3 H 0.22946(9) 0.6571(2) 0.25079(13)
C7_3 C 0.10936(9) 0.5578(2) 0.22749(13)
C8_3 C 0.41804(9) 0.4776(2) 0.53970(13)
O12_3 O 0.54291(8) 0.3066(2) 0.70609(14)
C9_3 C 0.17281(9) 0.7246(2) 0.13687(14)
C10_3 C 0.19133(9) 0.5692(2) 0.29312(13)
N6_3 N 0.34637(9) 0.7718(2) 0.36553(14)
C11_3 C 0.06124(10) 0.5110(2) 0.21674(15)
C12_3 C 0.43611(9) 0.3898(2) 0.58207(13)
H7_3 H 0.41656(9) 0.3325(2) 0.58555(13)
C13_3 C 0.48328(9) 0.3870(2) 0.61939(14)
C14_3 C 0.33005(11) 0.6810(3) 0.38700(15)
C15_3 C 0.44711(10) 0.5646(3) 0.53492(14)
H8_3 H 0.43503(10) 0.6248(3) 0.50770(14)
C16_3 C 0.49438(10) 0.5601(3) 0.57137(14)
C17_2 C 0.52528(11) 0.6519(3) 0.56477(16)
C18_3 C 0.51246(10) 0.4712(3) 0.61266(15)
H9_3 H 0.54425(10) 0.4681(3) 0.63591(15)
C19_3 C 0.50249(11) 0.2959(3) 0.66786(15)
C20_3 C 0.39551(13) 0.8054(3) 0.3933(2)
H10_3 H 0.4043(3) 0.810(2) 0.4396(2)
H11_3 H 0.3996(2) 0.8769(12) 0.3764(11)
H12_3 H 0.41472(16) 0.7512(13) 0.3822(12)
C21_3 C 0.31648(16) 0.8382(4) 0.3109(2)
H13_3 H 0.3198(10) 0.812(2) 0.2714(3)
H14_3 H 0.3255(9) 0.9152(6) 0.3173(9)
H15_3 H 0.2845(2) 0.831(3) 0.3082(11)
N14_2 N 0.20083(7) 0.99165(18) 0.07664(10)
S1_3 S 0.18387(2) 0.67377(6) 0.95305(3)
O1_3 O 0.18830(6) 0.79024(16) 0.97899(9)
O7_3 O 0.13609(7) 0.65665(19) 0.91085(11)
S2_3 S 0.81613(2) 0.67377(6) 0.54695(3)
O13_3 O 0.81170(6) 0.79024(16) 0.52101(9)
O14_3 O 0.94428(6) 0.46245(17) 0.23512(10)
O15_3 O 0.78451(6) 0.74651(18) 0.35466(9)
O16_3 O 0.85919(7) 0.75560(18) 0.41227(9)
N7_2 N 0.70083(7) 0.49165(18) 0.07664(10)
O19_3 O 0.86391(7) 0.65665(19) 0.58915(11)
O20_3 O 0.96877(7) 0.5215(2) 0.33705(11)
N9_3 N 0.71529(8) 0.6546(2) 0.14317(12)
N10_3 N 0.63972(8) 0.6250(2) 0.06284(12)
N11_3 N 0.77365(7) 0.5281(2) 0.15144(11)
H17_3 H 0.78202(7) 0.4738(2) 0.13227(11)
O23_3 O 0.80048(9) 0.5962(2) 0.49461(12)
C22_3 C 0.65704(9) 0.5325(2) 0.04654(13)
C23_3 C 0.72857(9) 0.5613(2) 0.12360(13)
C24_3 C 0.85407(9) 0.5322(2) 0.21592(13)
H19_3 H 0.85982(9) 0.4901(2) 0.18385(13)
C25_3 C 0.83700(9) 0.6584(2) 0.31113(13)
C26_3 C 0.88198(9) 0.6212(2) 0.32030(13)
H20_3 H 0.90621(9) 0.6386(2) 0.35824(13)
C27_3 C 0.80053(9) 0.6322(2) 0.25478(13)
H21_3 H 0.77054(9) 0.6571(2) 0.24921(13)
C28_3 C 0.89064(9) 0.5578(2) 0.27251(13)
C30_3 C 0.82719(9) 0.7246(2) 0.36313(14)
C31_3 C 0.80867(9) 0.5692(2) 0.20688(13)
N12_3 N 0.65363(9) 0.7718(2) 0.13447(14)
C32_3 C 0.93876(10) 0.5110(2) 0.28326(15)
C35_3 C 0.66995(11) 0.6810(3) 0.11300(15)
C41_3 C 0.60449(13) 0.8054(3) 0.1067(2)
H25_3 H 0.5957(3) 0.810(2) 0.0604(2)
H26_3 H 0.6004(2) 0.8769(12) 0.1236(11)
H27_3 H 0.58528(16) 0.7512(13) 0.1178(12)
C42_3 C 0.68352(16) 0.8382(4) 0.1891(2)
H28_3 H 0.6802(10) 0.812(2) 0.2286(3)
H29_3 H 0.6745(9) 0.9152(6) 0.1827(9)
H30_3 H 0.7155(2) 0.831(3) 0.1918(11)
N13_2 N 0.79917(7) 0.99165(18) 0.42336(10)
N8_3 N 0.63018(7) 0.4711(2) 0.99632(11)
H16_3 H 0.64480(7) 0.4192(2) 0.98410(11)
O21_2 O 0.43005(7) 0.6296(2) 0.90445(13)
H18_2 H 0.41408(11) 0.6819(15) 0.9088(17)
O22_2 O 0.48857(8) 0.7365(2) 0.96474(13)
C29_3 C 0.58196(9) 0.4776(2) 0.96030(13)
O24_3 O 0.45709(8) 0.3066(2) 0.79391(14)
C33_3 C 0.56389(9) 0.3898(2) 0.91793(13)
H22_3 H 0.58344(9) 0.3325(2) 0.91445(13)
C34_3 C 0.51672(9) 0.3870(2) 0.88061(14)
C36_3 C 0.55289(10) 0.5646(3) 0.96508(14)
H23_3 H 0.56497(10) 0.6248(3) 0.99230(14)
C37_3 C 0.50562(10) 0.5601(3) 0.92863(14)
C38_2 C 0.47472(11) 0.6519(3) 0.93523(16)
C39_3 C 0.48754(10) 0.4712(3) 0.88734(15)
H24_3 H 0.45575(10) 0.4681(3) 0.86409(15)
C40_3 C 0.49751(11) 0.2959(3) 0.83214(15)
O12_4 O 0.04291(8) 0.8066(2) 0.70609(14)
C18_4 C 0.01246(10) 0.9712(3) 0.61266(15)
H9_4 H 0.04425(10) 0.9681(3) 0.63591(15)
C19_4 C 0.00249(11) 0.7959(3) 0.66786(15)
O3_4 O 0.71549(6) 0.24651(18) 0.14534(9)
O4_4 O 0.64081(7) 0.25560(18) 0.08773(9)
O8_4 O 0.53123(7) 0.0215(2) 0.16295(11)
N3_4 N 0.78471(8) 0.1546(2) 0.35683(12)
N4_4 N 0.86028(8) 0.1250(2) 0.43716(12)
N5_4 N 0.72635(7) 0.0281(2) 0.34856(11)
O11_4 O 0.69952(9) 0.0962(2) 0.00539(12)
C1_4 C 0.84296(9) 0.0325(2) 0.45346(13)
C2_4 C 0.77143(9) 0.0613(2) 0.37640(13)
C3_4 C 0.64593(9) 0.0322(2) 0.28408(13)
C4_4 C 0.66300(9) 0.1584(2) 0.18887(13)
C5_4 C 0.61802(9) 0.1212(2) 0.17970(13)
H5_4 H 0.59379(9) 0.1386(2) 0.14176(13)
C6_4 C 0.69947(9) 0.1322(2) 0.24522(13)
H6_4 H 0.72946(9) 0.1571(2) 0.25079(13)
C7_4 C 0.60936(9) 0.0578(2) 0.22749(13)
C9_4 C 0.67281(9) 0.2246(2) 0.13687(14)
C10_4 C 0.69133(9) 0.0692(2) 0.29312(13)
N6_4 N 0.84637(9) 0.2718(2) 0.36553(14)
C11_4 C 0.56124(10) 0.0110(2) 0.21674(15)
C14_4 C 0.83005(11) 0.1810(3) 0.38700(15)
C15_4 C 0.94711(10) 0.0646(3) 0.53492(14)
H8_4 H 0.93503(10) 0.1248(3) 0.50770(14)
C16_4 C 0.99438(10) 0.0601(3) 0.57137(14)
C20_4 C 0.89551(13) 0.3054(3) 0.3933(2)
H10_4 H 0.9043(3) 0.310(2) 0.4396(2)
H11_4 H 0.8996(2) 0.3769(12) 0.3764(11)
H12_4 H 0.91472(16) 0.2512(13) 0.3822(12)
C21_4 C 0.81648(16) 0.3382(4) 0.3109(2)
H13_4 H 0.8198(10) 0.312(2) 0.2714(3)
H14_4 H 0.8255(9) 0.4152(6) 0.3173(9)
H15_4 H 0.7845(2) 0.331(3) 0.3082(11)
S2_4 S 0.31613(2) 0.17377(6) 0.54695(3)
O13_4 O 0.31170(6) 0.29024(16) 0.52101(9)
O15_4 O 0.28451(6) 0.24651(18) 0.35466(9)
O16_4 O 0.35919(7) 0.25560(18) 0.41227(9)
O19_4 O 0.36391(7) 0.15665(19) 0.58915(11)
O20_4 O 0.46877(7) 0.0215(2) 0.33705(11)
N9_4 N 0.21529(8) 0.1546(2) 0.14317(12)
N10_4 N 0.13972(8) 0.1250(2) 0.06284(12)
N11_4 N 0.27365(7) 0.0281(2) 0.15144(11)
O23_4 O 0.30048(9) 0.0962(2) 0.49461(12)
C22_4 C 0.15704(9) 0.0325(2) 0.04654(13)
C23_4 C 0.22857(9) 0.0613(2) 0.12360(13)
C24_4 C 0.35407(9) 0.0322(2) 0.21592(13)
C25_4 C 0.33700(9) 0.1584(2) 0.31113(13)
C26_4 C 0.38198(9) 0.1212(2) 0.32030(13)
H20_4 H 0.40621(9) 0.1386(2) 0.35824(13)
C27_4 C 0.30053(9) 0.1322(2) 0.25478(13)
H21_4 H 0.27054(9) 0.1571(2) 0.24921(13)
C28_4 C 0.39064(9) 0.0578(2) 0.27251(13)
C30_4 C 0.32719(9) 0.2246(2) 0.36313(14)
C31_4 C 0.30867(9) 0.0692(2) 0.20688(13)
N12_4 N 0.15363(9) 0.2718(2) 0.13447(14)
C32_4 C 0.43876(10) 0.0110(2) 0.28326(15)
C35_4 C 0.16995(11) 0.1810(3) 0.11300(15)
C41_4 C 0.10449(13) 0.3054(3) 0.1067(2)
H25_4 H 0.0957(3) 0.310(2) 0.0604(2)
H26_4 H 0.1004(2) 0.3769(12) 0.1236(11)
H27_4 H 0.08528(16) 0.2512(13) 0.1178(12)
C42_4 C 0.18352(16) 0.3382(4) 0.1891(2)
H28_4 H 0.1802(10) 0.312(2) 0.2286(3)
H29_4 H 0.1745(9) 0.4152(6) 0.1827(9)
H30_4 H 0.2155(2) 0.331(3) 0.1918(11)
S1_4 S 0.68387(2) 0.17377(6) 0.95305(3)
O1_4 O 0.68830(6) 0.29024(16) 0.97899(9)
O7_4 O 0.63609(7) 0.15665(19) 0.91085(11)
C36_4 C 0.05289(10) 0.0646(3) 0.96508(14)
H23_4 H 0.06497(10) 0.1248(3) 0.99230(14)
C37_4 C 0.00562(10) 0.0601(3) 0.92863(14)
O2_4 O 0.55572(6) 0.96245(17) 0.26488(10)
N2_4 N 0.86982(7) 0.9711(2) 0.50368(11)
H1_4 H 0.85520(7) 0.9192(2) 0.51590(11)
H2_4 H 0.71798(7) 0.9738(2) 0.36773(11)
H4_4 H 0.64018(9) 0.9901(2) 0.31615(13)
C8_4 C 0.91804(9) 0.9776(2) 0.53970(13)
C12_4 C 0.93611(9) 0.8898(2) 0.58207(13)
H7_4 H 0.91656(9) 0.8325(2) 0.58555(13)
C13_4 C 0.98328(9) 0.8870(2) 0.61939(14)
O14_4 O 0.44428(6) 0.96245(17) 0.23512(10)
H17_4 H 0.28202(7) 0.9738(2) 0.13227(11)
H19_4 H 0.35982(9) 0.9901(2) 0.18385(13)
N8_4 N 0.13018(7) 0.9711(2) 0.99632(11)
H16_4 H 0.14480(7) 0.9192(2) 0.98410(11)
C29_4 C 0.08196(9) 0.9776(2) 0.96030(13)
C33_4 C 0.06389(9) 0.8898(2) 0.91793(13)
H22_4 H 0.08344(9) 0.8325(2) 0.91445(13)
C34_4 C 0.01672(9) 0.8870(2) 0.88061(14)
O24_4 O 0.95709(8) 0.8066(2) 0.79391(14)
C39_4 C 0.98754(10) 0.9712(3) 0.88734(15)
H24_4 H 0.95575(10) 0.9681(3) 0.86409(15)
C40_4 C 0.99751(11) 0.7959(3) 0.83214(15)
O21_3 O 0.06995(7) 0.8704(2) 0.09555(13)
H18_3 H 0.08592(11) 0.8181(15) 0.0912(17)
O22_3 O 0.01143(8) 0.7635(2) 0.03526(13)
C38_3 C 0.02528(11) 0.8481(3) 0.06477(16)
O9_3 O 0.93005(7) 0.8704(2) 0.40445(13)
H3_3 H 0.91408(11) 0.8181(15) 0.4088(17)
O10_3 O 0.98857(8) 0.7635(2) 0.46474(13)
C17_3 C 0.97472(11) 0.8481(3) 0.43523(16)
O9_4 O 0.06995(7) 0.1296(2) 0.59555(13)
H3_4 H 0.08592(11) 0.1819(15) 0.5912(17)
O10_4 O 0.01143(8) 0.2365(2) 0.53526(13)
C17_4 C 0.02528(11) 0.1519(3) 0.56477(16)
O21_4 O 0.93005(7) 0.1296(2) 0.90445(13)
H18_4 H 0.91408(11) 0.1819(15) 0.9088(17)
O22_4 O 0.98857(8) 0.2365(2) 0.96474(13)
C38_4 C 0.97472(11) 0.1519(3) 0.93523(16)
C43 C 0.58326(16) 0.0864(4) 0.4205(2)
H33 H 0.5848(10) 0.1095(13) 0.3794(4)
H34 H 0.5659(6) 0.1403(7) 0.4353(15)
H35 H 0.6143(4) 0.0806(7) 0.4514(11)
N15 N 0.56013(8) 0.9778(2) 0.41350(13)
H31 H 0.53139(8) 0.9838(2) 0.38378(13)
H32 H 0.57617(8) 0.9285(2) 0.39836(13)
C44 C 0.55595(16) 0.9339(4) 0.4732(2)
H36 H 0.5376(9) 0.8669(15) 0.4639(3)
H37 H 0.58643(18) 0.918(2) 0.5033(6)
H38 H 0.5411(10) 0.9883(11) 0.4917(8)
C43_2 C 0.41674(16) 0.0864(4) 0.0795(2)
H33_2 H 0.4152(10) 0.1095(13) 0.1206(4)
H34_2 H 0.4341(6) 0.1403(7) 0.0647(15)
H35_2 H 0.3857(4) 0.0806(7) 0.0486(11)
N15_2 N 0.43987(8) 0.9778(2) 0.08650(13)
H31_2 H 0.46861(8) 0.9838(2) 0.11622(13)
H32_2 H 0.42383(8) 0.9285(2) 0.10164(13)
C44_2 C 0.44405(16) 0.9339(4) 0.0268(2)
H36_2 H 0.4624(9) 0.8669(15) 0.0361(3)
H38_2 H 0.4589(10) 0.9883(11) 0.0083(8)
H37_2 H 0.41357(18) 0.918(2) 0.9967(6)
N15_3 N 0.06013(8) 0.4778(2) 0.41350(13)
H31_3 H 0.03139(8) 0.4838(2) 0.38378(13)
H32_3 H 0.07617(8) 0.4285(2) 0.39836(13)
C43_3 C 0.08326(16) 0.5864(4) 0.4205(2)
H33_3 H 0.0848(10) 0.6095(13) 0.3794(4)
H34_3 H 0.0659(6) 0.6403(7) 0.4353(15)
H35_3 H 0.1143(4) 0.5806(7) 0.4514(11)
C44_3 C 0.05595(16) 0.4339(4) 0.4732(2)
H36_3 H 0.0376(9) 0.3669(15) 0.4639(3)
H37_3 H 0.08643(18) 0.418(2) 0.5033(6)
H38_3 H 0.0411(10) 0.4883(11) 0.4917(8)
N15_4 N 0.93987(8) 0.4778(2) 0.08650(13)
H31_4 H 0.96861(8) 0.4838(2) 0.11622(13)
H32_4 H 0.92383(8) 0.4285(2) 0.10164(13)
C43_4 C 0.91674(16) 0.5864(4) 0.0795(2)
H33_4 H 0.9152(10) 0.6095(13) 0.1206(4)
H34_4 H 0.9341(6) 0.6403(7) 0.0647(15)
H35_4 H 0.8857(4) 0.5806(7) 0.0486(11)
C44_4 C 0.94405(16) 0.4339(4) 0.0268(2)
H36_4 H 0.9624(9) 0.3669(15) 0.0361(3)
H38_4 H 0.9589(10) 0.4883(11) 0.0083(8)
H37_4 H 0.91357(18) 0.418(2) 0.9967(6)
N15_5 N 0.43987(8) 0.0222(2) 0.58650(13)
H31_5 H 0.46861(8) 0.0162(2) 0.61622(13)
H32_5 H 0.42383(8) 0.0715(2) 0.60164(13)
C44_5 C 0.44405(16) 0.0661(4) 0.5268(2)
H36_5 H 0.4624(9) 0.1331(15) 0.5361(3)
H37_5 H 0.41357(18) 0.082(2) 0.4967(6)
H38_5 H 0.4589(10) 0.0117(11) 0.5083(8)
C43_5 C 0.41674(16) 0.9136(4) 0.5795(2)
H33_5 H 0.4152(10) 0.8905(13) 0.6206(4)
H34_5 H 0.4341(6) 0.8597(7) 0.5647(15)
H35_5 H 0.3857(4) 0.9194(7) 0.5486(11)
H37_6 H 0.58643(18) 0.082(2) 0.0033(6)
N15_6 N 0.56013(8) 0.0222(2) 0.91350(13)
H31_6 H 0.53139(8) 0.0162(2) 0.88378(13)
H32_6 H 0.57617(8) 0.0715(2) 0.89836(13)
C44_6 C 0.55595(16) 0.0661(4) 0.9732(2)
H36_6 H 0.5376(9) 0.1331(15) 0.9639(3)
H38_6 H 0.5411(10) 0.0117(11) 0.9917(8)
C43_6 C 0.58326(16) 0.9136(4) 0.9205(2)
H33_6 H 0.5848(10) 0.8905(13) 0.8794(4)
H34_6 H 0.5659(6) 0.8597(7) 0.9353(15)
H35_6 H 0.6143(4) 0.9194(7) 0.9514(11)
N15_7 N 0.93987(8) 0.5222(2) 0.58650(13)
H31_7 H 0.96861(8) 0.5162(2) 0.61622(13)
H32_7 H 0.92383(8) 0.5715(2) 0.60164(13)
C43_7 C 0.91674(16) 0.4136(4) 0.5795(2)
H33_7 H 0.9152(10) 0.3905(13) 0.6206(4)
H34_7 H 0.9341(6) 0.3597(7) 0.5647(15)
H35_7 H 0.8857(4) 0.4194(7) 0.5486(11)
C44_7 C 0.94405(16) 0.5661(4) 0.5268(2)
H36_7 H 0.9624(9) 0.6331(15) 0.5361(3)
H37_7 H 0.91357(18) 0.582(2) 0.4967(6)
H38_7 H 0.9589(10) 0.5117(11) 0.5083(8)
H37_8 H 0.08643(18) 0.582(2) 0.0033(6)
N15_8 N 0.06013(8) 0.5222(2) 0.91350(13)
H31_8 H 0.03139(8) 0.5162(2) 0.88378(13)
H32_8 H 0.07617(8) 0.5715(2) 0.89836(13)
C43_8 C 0.08326(16) 0.4136(4) 0.9205(2)
H33_8 H 0.0848(10) 0.3905(13) 0.8794(4)
H34_8 H 0.0659(6) 0.3597(7) 0.9353(15)
H35_8 H 0.1143(4) 0.4194(7) 0.9514(11)
C44_8 C 0.05595(16) 0.5661(4) 0.9732(2)
H36_8 H 0.0376(9) 0.6331(15) 0.9639(3)
H38_8 H 0.0411(10) 0.5117(11) 0.9917(8)
loop_
_geom_bond_atom_site_label_1
_geom_bond_atom_site_label_2
_geom_bond_site_symmetry_1
_geom_bond_site_symmetry_2
O18 C40 1_555 1_555
N8 H16 1_555 1_555
O21 H18 1_555 1_555
O22 C38 1_555 1_555
C29 N8 1_555 1_555
O24 C40 1_555 1_555
C33 C29 1_555 1_555
H22 C33 1_555 1_555
C34 C33 1_555 1_555
C36 C29 1_555 1_555
H23 C36 1_555 1_555
C37 C36 1_555 1_555
C38 O21 1_555 1_555
C39 C34 1_555 1_555
H24 C39 1_555 1_555
C40 C34 1_555 1_555
Zn5 O18 1_555 1_555
C37 C38 1_555 1_555
C37 C39 1_555 1_555
Zn3 O13 1_555 1_555
S2 O13 1_555 1_555
O14 Zn1 1_555 1_555
O15 Zn3 1_555 1_555
O16 C30 1_555 1_555
O17 S2 1_555 1_555
N7 C22 1_555 1_555
O19 S2 1_555 1_555
O20 C32 1_555 1_555
N9 C23 1_555 1_555
N10 C22 1_555 1_555
N11 H17 1_555 1_555
O23 S2 1_555 1_555
C23 N7 1_555 1_555
C24 H19 1_555 1_555
C25 C26 1_555 1_555
C26 H20 1_555 1_555
C27 C25 1_555 1_555
H21 C27 1_555 1_555
C28 C24 1_555 1_555
C30 O15 1_555 1_555
C31 N11 1_555 1_555
N12 C35 1_555 1_555
C32 O14 1_555 1_555
C35 N9 1_555 1_555
C41 N12 1_555 1_555
H25 C41 1_555 1_555
H26 C41 1_555 1_555
H27 C41 1_555 1_555
C42 N12 1_555 1_555
H28 C42 1_555 1_555
H29 C42 1_555 1_555
H30 C42 1_555 1_555
Zn6 N7 1_555 1_555
Zn9 O17 1_555 1_555
O26 Zn3 1_555 1_555
O28 Zn1 1_555 1_555
N13 Zn3 1_555 1_555
N10 C35 1_555 1_555
N11 C23 1_555 1_555
C24 C31 1_555 1_555
C25 C30 1_555 1_555
C26 C28 1_555 1_555
C27 C31 1_555 1_555
C28 C32 1_555 1_555
S1 O1 1_555 1_555
O5 S1 1_555 1_555
O7 S1 1_555 1_555
Zn8 O5 1_555 1_555
Zn1_2 O2 1_555 1_555
O2 C11 1_555 1_555
O3 Zn2 1_555 1_555
O4 C9 1_555 1_555
O6 C19 1_555 1_555
N1 C1 1_555 1_555
O8 C11 1_555 1_555
N2 H1 1_555 1_555
N3 C2 1_555 1_555
N4 C1 1_555 1_555
N5 H2 1_555 1_555
O9 H3 1_555 1_555
O10 C17 1_555 1_555
C1 N2 1_555 1_555
C2 N1 1_555 1_555
C3 H4 1_555 1_555
C4 C5 1_555 1_555
C5 H5 1_555 1_555
C6 C4 1_555 1_555
H6 C6 1_555 1_555
C7 C3 1_555 1_555
C8 N2 1_555 1_555
O12 C19 1_555 1_555
C9 O3 1_555 1_555
C10 N5 1_555 1_555
N6 C14 1_555 1_555
C11 C7 1_555 1_555
C12 C8 1_555 1_555
H7 C12 1_555 1_555
C13 C12 1_555 1_555
C14 N3 1_555 1_555
C15 C8 1_555 1_555
H8 C15 1_555 1_555
C16 C15 1_555 1_555
C17 O9 1_555 1_555
C18 C13 1_555 1_555
H9 C18 1_555 1_555
C19 C13 1_555 1_555
C20 N6 1_555 1_555
H10 C20 1_555 1_555
H11 C20 1_555 1_555
H12 C20 1_555 1_555
C21 N6 1_555 1_555
H13 C21 1_555 1_555
H14 C21 1_555 1_555
H15 C21 1_555 1_555
Zn5 O6 1_555 1_555
Zn7 N1 1_555 1_555
O25 Zn2 1_555 1_555
O27 Zn1_2 1_555 1_555
N14 Zn2 1_555 1_555
N4 C14 1_555 1_555
N5 C2 1_555 1_555
C3 C10 1_555 1_555
C4 C9 1_555 1_555
C5 C7 1_555 1_555
C6 C10 1_555 1_555
C16 C17 1_555 1_555
C16 C18 1_555 1_555
O24_2 C40_2 1_555 1_555
H24_2 C39_2 1_555 1_555
N8_2 H16_2 1_555 1_555
C29_2 N8_2 1_555 1_555
C33_2 C29_2 1_555 1_555
H22_2 C33_2 1_555 1_555
C34_2 C33_2 1_555 1_555
Zn5_3 O18_2 1_555 1_555
Zn1_3 O2_2 1_555 1_555
N2_2 H1_2 1_555 1_555
C8_2 N2_2 1_555 1_555
C12_2 C8_2 1_555 1_555
H7_2 C12_2 1_555 1_555
C13_2 C12_2 1_555 1_555
O14_2 Zn1_3 1_555 1_555
Zn5_2 O6_2 1_555 1_555
O27_2 Zn1_3 1_555 1_555
O28_2 Zn1_3 1_555 1_555
S1_2 O1_2 1_555 1_555
O5_2 S1_2 1_555 1_555
O7_2 S1_2 1_555 1_555
H23_2 C36_2 1_555 1_555
C37_2 C36_2 1_555 1_555
Zn8_2 O5_2 1_555 1_555
O3_2 Zn6 1_555 1_555
O4_2 C9_2 1_555 1_555
O8_2 C11_2 1_555 1_555
N3_2 C2_2 1_555 1_555
N4_2 C1_2 1_555 1_555
C4_2 C5_2 1_555 1_555
C5_2 H5_2 1_555 1_555
C6_2 C4_2 1_555 1_555
H6_2 C6_2 1_555 1_555
C7_2 C3_2 1_555 1_555
C9_2 O3_2 1_555 1_555
C10_2 N5_2 1_555 1_555
N6_2 C14_2 1_555 1_555
C11_2 C7_2 1_555 1_555
C14_2 N3_2 1_555 1_555
H8_2 C15_2 1_555 1_555
C16_2 C15_2 1_555 1_555
C20_2 N6_2 1_555 1_555
H10_2 C20_2 1_555 1_555
H11_2 C20_2 1_555 1_555
H12_2 C20_2 1_555 1_555
C21_2 N6_2 1_555 1_555
H13_2 C21_2 1_555 1_555
H14_2 C21_2 1_555 1_555
H15_2 C21_2 1_555 1_555
Zn7 O13_2 1_555 1_555
S2_2 O13_2 1_555 1_555
O15_2 Zn7 1_555 1_555
O16_2 C30_2 1_555 1_555
O17_2 S2_2 1_555 1_555
O19_2 S2_2 1_555 1_555
O20_2 C32_2 1_555 1_555
N9_2 C23_2 1_555 1_555
N10_2 C22_2 1_555 1_555
O23_2 S2_2 1_555 1_555
C25_2 C26_2 1_555 1_555
C26_2 H20_2 1_555 1_555
C27_2 C25_2 1_555 1_555
H21_2 C27_2 1_555 1_555
C28_2 C24_2 1_555 1_555
C30_2 O15_2 1_555 1_555
C31_2 N11_2 1_555 1_555
N12_2 C35_2 1_555 1_555
C35_2 N9_2 1_555 1_555
C41_2 N12_2 1_555 1_555
H25_2 C41_2 1_555 1_555
H26_2 C41_2 1_555 1_555
H27_2 C41_2 1_555 1_555
C42_2 N12_2 1_555 1_555
H28_2 C42_2 1_555 1_555
H29_2 C42_2 1_555 1_555
H30_2 C42_2 1_555 1_555
Zn9_2 O17_2 1_555 1_555
O25_2 Zn6 1_555 1_555
O26_2 Zn7 1_555 1_555
N4_2 C14_2 1_555 1_555
N5_2 C2_2 1_555 1_555
C3_2 C10_2 1_555 1_555
C4_2 C9_2 1_555 1_555
C5_2 C7_2 1_555 1_555
C6_2 C10_2 1_555 1_555
N10_2 C35_2 1_555 1_555
N11_2 C23_2 1_555 1_555
C24_2 C31_2 1_555 1_555
C25_2 C30_2 1_555 1_555
C26_2 C28_2 1_555 1_555
C27_2 C31_2 1_555 1_555
C28_2 C32_2 1_555 1_555
O12_2 C19_2 1_555 1_555
H9_2 C18_2 1_555 1_555
Zn5_2 O2_3 1_555 1_555
O2_3 C11_3 1_555 1_555
O3_3 Zn8_2 1_555 1_555
O4_3 C9_3 1_555 1_555
O27_2 C19_3 1_555 1_555
N1_2 C1_3 1_555 1_555
O8_3 C11_3 1_555 1_555
N2_3 H1_3 1_555 1_555
N3_3 C2_3 1_555 1_555
N4_3 C1_3 1_555 1_555
N5_3 H2_3 1_555 1_555
O9_2 H3_2 1_555 1_555
O10_2 C17_2 1_555 1_555
C1_3 N2_3 1_555 1_555
C2_3 N1_2 1_555 1_555
C3_3 H4_3 1_555 1_555
C4_3 C5_3 1_555 1_555
C5_3 H5_3 1_555 1_555
C6_3 C4_3 1_555 1_555
H6_3 C6_3 1_555 1_555
C7_3 C3_3 1_555 1_555
C8_3 N2_3 1_555 1_555
O12_3 C19_3 1_555 1_555
C9_3 O3_3 1_555 1_555
C10_3 N5_3 1_555 1_555
N6_3 C14_3 1_555 1_555
C11_3 C7_3 1_555 1_555
C12_3 C8_3 1_555 1_555
H7_3 C12_3 1_555 1_555
C13_3 C12_3 1_555 1_555
C14_3 N3_3 1_555 1_555
C15_3 C8_3 1_555 1_555
H8_3 C15_3 1_555 1_555
C16_3 C15_3 1_555 1_555
C17_2 O9_2 1_555 1_555
C18_3 C13_3 1_555 1_555
H9_3 C18_3 1_555 1_555
C19_3 C13_3 1_555 1_555
C20_3 N6_3 1_555 1_555
H10_3 C20_3 1_555 1_555
H11_3 C20_3 1_555 1_555
H12_3 C20_3 1_555 1_555
C21_3 N6_3 1_555 1_555
H13_3 C21_3 1_555 1_555
H14_3 C21_3 1_555 1_555
H15_3 C21_3 1_555 1_555
Zn9 N1_2 1_555 1_555
N14_2 Zn8_2 1_555 1_555
N4_3 C14_3 1_555 1_555
N5_3 C2_3 1_555 1_555
C3_3 C10_3 1_555 1_555
C4_3 C9_3 1_555 1_555
C5_3 C7_3 1_555 1_555
C6_3 C10_3 1_555 1_555
C16_3 C17_2 1_555 1_555
C16_3 C18_3 1_555 1_555
S1_3 O1_3 1_555 1_555
O25_2 S1_3 1_555 1_555
O7_3 S1_3 1_555 1_555
Zn9_2 O13_3 1_555 1_555
S2_3 O13_3 1_555 1_555
O14_3 Zn5_3 1_555 1_555
O15_3 Zn9_2 1_555 1_555
O16_3 C30_3 1_555 1_555
O26_2 S2_3 1_555 1_555
N7_2 C22_3 1_555 1_555
O19_3 S2_3 1_555 1_555
O20_3 C32_3 1_555 1_555
N9_3 C23_3 1_555 1_555
N10_3 C22_3 1_555 1_555
N11_3 H17_3 1_555 1_555
O23_3 S2_3 1_555 1_555
C23_3 N7_2 1_555 1_555
C24_3 H19_3 1_555 1_555
C25_3 C26_3 1_555 1_555
C26_3 H20_3 1_555 1_555
C27_3 C25_3 1_555 1_555
H21_3 C27_3 1_555 1_555
C28_3 C24_3 1_555 1_555
C30_3 O15_3 1_555 1_555
C31_3 N11_3 1_555 1_555
N12_3 C35_3 1_555 1_555
C32_3 O14_3 1_555 1_555
C35_3 N9_3 1_555 1_555
C41_3 N12_3 1_555 1_555
H25_3 C41_3 1_555 1_555
H26_3 C41_3 1_555 1_555
H27_3 C41_3 1_555 1_555
C42_3 N12_3 1_555 1_555
H28_3 C42_3 1_555 1_555
H29_3 C42_3 1_555 1_555
H30_3 C42_3 1_555 1_555
Zn8 N7_2 1_555 1_555
N13_2 Zn9_2 1_555 1_555
N10_3 C35_3 1_555 1_555
N11_3 C23_3 1_555 1_555
C24_3 C31_3 1_555 1_555
C25_3 C30_3 1_555 1_555
C26_3 C28_3 1_555 1_555
C27_3 C31_3 1_555 1_555
C28_3 C32_3 1_555 1_555
O28_2 C40_3 1_555 1_555
N8_3 H16_3 1_555 1_555
O21_2 H18_2 1_555 1_555
O22_2 C38_2 1_555 1_555
C29_3 N8_3 1_555 1_555
O24_3 C40_3 1_555 1_555
C33_3 C29_3 1_555 1_555
H22_3 C33_3 1_555 1_555
C34_3 C33_3 1_555 1_555
C36_3 C29_3 1_555 1_555
H23_3 C36_3 1_555 1_555
C37_3 C36_3 1_555 1_555
C38_2 O21_2 1_555 1_555
C39_3 C34_3 1_555 1_555
H24_3 C39_3 1_555 1_555
C40_3 C34_3 1_555 1_555
C37_3 C38_2 1_555 1_555
C37_3 C39_3 1_555 1_555
O12_4 C19_4 1_555 1_555
H9_4 C18_4 1_555 1_555
O3_4 Zn8 1_555 1_555
O4_4 C9_4 1_555 1_555
O8_4 C11_4 1_555 1_555
N3_4 C2_4 1_555 1_555
N4_4 C1_4 1_555 1_555
C4_4 C5_4 1_555 1_555
C5_4 H5_4 1_555 1_555
C6_4 C4_4 1_555 1_555
H6_4 C6_4 1_555 1_555
C7_4 C3_4 1_555 1_555
C9_4 O3_4 1_555 1_555
C10_4 N5_4 1_555 1_555
N6_4 C14_4 1_555 1_555
C11_4 C7_4 1_555 1_555
C14_4 N3_4 1_555 1_555
H8_4 C15_4 1_555 1_555
C16_4 C15_4 1_555 1_555
C20_4 N6_4 1_555 1_555
H10_4 C20_4 1_555 1_555
H11_4 C20_4 1_555 1_555
H12_4 C20_4 1_555 1_555
C21_4 N6_4 1_555 1_555
H13_4 C21_4 1_555 1_555
H14_4 C21_4 1_555 1_555
H15_4 C21_4 1_555 1_555
Zn9 O13_4 1_555 1_555
S2_4 O13_4 1_555 1_555
O15_4 Zn9 1_555 1_555
O16_4 C30_4 1_555 1_555
O26 S2_4 1_555 1_555
O19_4 S2_4 1_555 1_555
O20_4 C32_4 1_555 1_555
N9_4 C23_4 1_555 1_555
N10_4 C22_4 1_555 1_555
O23_4 S2_4 1_555 1_555
C25_4 C26_4 1_555 1_555
C26_4 H20_4 1_555 1_555
C27_4 C25_4 1_555 1_555
H21_4 C27_4 1_555 1_555
C28_4 C24_4 1_555 1_555
C30_4 O15_4 1_555 1_555
C31_4 N11_4 1_555 1_555
N12_4 C35_4 1_555 1_555
C35_4 N9_4 1_555 1_555
C41_4 N12_4 1_555 1_555
H25_4 C41_4 1_555 1_555
H26_4 C41_4 1_555 1_555
H27_4 C41_4 1_555 1_555
C42_4 N12_4 1_555 1_555
H28_4 C42_4 1_555 1_555
H29_4 C42_4 1_555 1_555
H30_4 C42_4 1_555 1_555
N4_4 C14_4 1_555 1_555
N5_4 C2_4 1_555 1_555
C3_4 C10_4 1_555 1_555
C4_4 C9_4 1_555 1_555
C5_4 C7_4 1_555 1_555
C6_4 C10_4 1_555 1_555
N10_4 C35_4 1_555 1_555
N11_4 C23_4 1_555 1_555
C24_4 C31_4 1_555 1_555
C25_4 C30_4 1_555 1_555
C26_4 C28_4 1_555 1_555
C27_4 C31_4 1_555 1_555
C28_4 C32_4 1_555 1_555
S1_4 O1_4 1_555 1_555
O25 S1_4 1_555 1_555
O7_4 S1_4 1_555 1_555
H23_4 C36_4 1_555 1_555
C37_4 C36_4 1_555 1_555
Zn5 O2_4 1_555 1_555
N2_4 H1_4 1_555 1_555
C8_4 N2_4 1_555 1_555
C12_4 C8_4 1_555 1_555
H7_4 C12_4 1_555 1_555
C13_4 C12_4 1_555 1_555
O14_4 Zn5 1_555 1_555
N8_4 H16_4 1_555 1_555
C29_4 N8_4 1_555 1_555
C33_4 C29_4 1_555 1_555
H22_4 C33_4 1_555 1_555
C34_4 C33_4 1_555 1_555
O24_4 C40_4 1_555 1_555
H24_4 C39_4 1_555 1_555
O21_3 H18_3 1_555 1_555
O22_3 C38_3 1_555 1_555
C38_3 O21_3 1_555 1_555
O9_3 H3_3 1_555 1_555
O10_3 C17_3 1_555 1_555
C17_3 O9_3 1_555 1_555
O9_4 H3_4 1_555 1_555
O10_4 C17_4 1_555 1_555
C17_4 O9_4 1_555 1_555
O21_4 H18_4 1_555 1_555
O22_4 C38_4 1_555 1_555
C38_4 O21_4 1_555 1_555
H33 C43 1_555 1_555
H34 C43 1_555 1_555
H35 C43 1_555 1_555
N15 H31 1_555 1_555
H32 N15 1_555 1_555
C44 N15 1_555 1_555
H36 C44 1_555 1_555
H37 C44 1_555 1_555
H38 C44 1_555 1_555
H33_2 C43_2 1_555 1_555
H34_2 C43_2 1_555 1_555
H35_2 C43_2 1_555 1_555
N15_2 H31_2 1_555 1_555
H32_2 N15_2 1_555 1_555
C44_2 N15_2 1_555 1_555
H36_2 C44_2 1_555 1_555
H38_2 C44_2 1_555 1_555
N15_3 H31_3 1_555 1_555
H32_3 N15_3 1_555 1_555
C43_3 N15_3 1_555 1_555
H33_3 C43_3 1_555 1_555
H34_3 C43_3 1_555 1_555
H35_3 C43_3 1_555 1_555
C44_3 N15_3 1_555 1_555
H36_3 C44_3 1_555 1_555
H37_3 C44_3 1_555 1_555
H38_3 C44_3 1_555 1_555
N15_4 H31_4 1_555 1_555
H32_4 N15_4 1_555 1_555
C43_4 N15_4 1_555 1_555
H33_4 C43_4 1_555 1_555
H34_4 C43_4 1_555 1_555
H35_4 C43_4 1_555 1_555
C44_4 N15_4 1_555 1_555
H36_4 C44_4 1_555 1_555
H38_4 C44_4 1_555 1_555
N15_5 H31_5 1_555 1_555
H32_5 N15_5 1_555 1_555
C44_5 N15_5 1_555 1_555
H36_5 C44_5 1_555 1_555
H37_5 C44_5 1_555 1_555
H38_5 C44_5 1_555 1_555
H33_5 C43_5 1_555 1_555
H34_5 C43_5 1_555 1_555
H35_5 C43_5 1_555 1_555
N15_6 H31_6 1_555 1_555
H32_6 N15_6 1_555 1_555
C44_6 N15_6 1_555 1_555
H36_6 C44_6 1_555 1_555
H38_6 C44_6 1_555 1_555
H33_6 C43_6 1_555 1_555
H34_6 C43_6 1_555 1_555
H35_6 C43_6 1_555 1_555
N15_7 H31_7 1_555 1_555
H32_7 N15_7 1_555 1_555
C43_7 N15_7 1_555 1_555
H33_7 C43_7 1_555 1_555
H34_7 C43_7 1_555 1_555
H35_7 C43_7 1_555 1_555
C44_7 N15_7 1_555 1_555
H36_7 C44_7 1_555 1_555
H37_7 C44_7 1_555 1_555
H38_7 C44_7 1_555 1_555
N15_8 H31_8 1_555 1_555
H32_8 N15_8 1_555 1_555
C43_8 N15_8 1_555 1_555
H33_8 C43_8 1_555 1_555
H34_8 C43_8 1_555 1_555
H35_8 C43_8 1_555 1_555
C44_8 N15_8 1_555 1_555
H36_8 C44_8 1_555 1_555
H38_8 C44_8 1_555 1_555

#END
