
###############################################################################
#
# This file contains modified crystal structure data generated from the
# MOF subset of the Cambridge Structural Database (CSD) v543 
# hosted by the Cambridge Crystallographic Data Centre (CCDC).
#
# This work is licensed under the Creative Commons
# Attribution-NonCommercial-ShareAlike 4.0 International License.
# To view a copy of this license, visit
# http://creativecommons.org/licenses/by-nc-sa/4.0/
# or send a letter to
# Creative Commons, PO Box 1866, Mountain View, CA 94042, USA.
#
# CIF created using the CSD Python API on 29 September 2022
# The structure has been converted into the P1 space group
# The structure has a 3D framework
# The original CSD entry ZEDVOV is in the triclinic crystal system
# The framework has been calculated to contain at least 10.0% void space
# The void calculation uses a probe of radius 1.32A, grid spacing 0.4
# The framework is charged, counterions have been retained in the structure
# H atom positions have been added when not included in the experimental data
# Generated hydrogen atom positions removed from atoms on special positions
#
###############################################################################

data_ZEDVOV
_chemical_formula_moiety         '(C156 H136 N20 Nd4 O48 1+)n'
_symmetry_cell_setting           triclinic
_symmetry_space_group_name_H-M   'P 1'
_symmetry_Int_Tables_number      1
_space_group_name_Hall           'P 1'
loop_
_symmetry_equiv_pos_site_id
_symmetry_equiv_pos_as_xyz
1 x,y,z
_cell_length_a                   11.649(2)
_cell_length_b                   16.833(3)
_cell_length_c                   25.515(5)
_cell_angle_alpha                99.17(3)
_cell_angle_beta                 101.55(3)
_cell_angle_gamma                93.41(3)
_cell_volume                     4817.57
loop_
_atom_site_label
_atom_site_type_symbol
_atom_site_fract_x
_atom_site_fract_y
_atom_site_fract_z
O32 O 0.0221(7) 0.2846(4) 0.0381(3)
O36 O 0.1147(7) 0.1457(4) 0.1100(3)
O41 O 0.0631(6) 0.3198(4) 0.1636(3)
H85 H 0.0512255 0.132917 0.202106
Nd6 Nd 0.07263(5) 0.79280(3) 0.89581(2)
Nd3 Nd 0.92737(5) 0.20720(3) 0.10419(2)
Nd10 Nd 0.59629(5) 0.80300(3) 0.30706(2)
C37 C 0.7053(10) 0.1078(7) 0.0603(5)
C38 C 0.5966(8) 0.0515(6) 0.0302(4)
C41 C 0.8189(10) 0.3141(7) 0.2142(5)
C42 C 0.8140(11) 0.4121(7) 0.2217(5)
C43 C 0.7577(13) 0.4536(8) 0.2605(5)
H21 H 0.7302 0.4257 0.2849
C44 C 0.8575(11) 0.4555(7) 0.1861(5)
H22 H 0.8932 0.4289 0.1597
C65 C 0.7587(11) 0.6770(6) 0.2232(5)
C66 C 0.7821(10) 0.5853(7) 0.2269(5)
C67 C 0.8473(12) 0.5425(8) 0.1902(6)
H33 H 0.8835 0.5711 0.1687
C68 C 0.7415(11) 0.5419(7) 0.2631(5)
H34 H 0.7040 0.5680 0.2889
O23 O 0.9263(6) 0.1026(4) 0.0132(3)
O24 O 0.7810(7) 0.0808(4) 0.0963(3)
O25 O 0.9720(8) 0.1530(5) 0.1967(3)
O26 O 0.7247(7) 0.1827(4) 0.0493(3)
O27 O 0.8125(7) 0.2755(5) 0.1640(3)
O30 O 0.8302(8) 0.2756(5) 0.2543(3)
O34 O 0.8763(6) 0.3421(4) 0.0702(3)
O47 O 0.6940(7) 0.7111(5) 0.2534(3)
O49 O 0.7971(9) 0.7102(6) 0.1882(4)
H86 H 0.969772 0.197437 0.227064
C3 C 0.4116(8) 0.0369(6) 0.9679(4)
H1 H 0.3512 0.0581 0.9463
C40 C 0.5094(9) 0.0879(7) 0.9984(4)
H20 H 0.5163 0.1431 0.9977
H83 H 0.845829 0.0941461 0.989919
H84 H 0.982188 0.124641 0.993214
C4 C 0.4906(9) 0.9121(7) 0.0016(4)
H2 H 0.4837 0.8569 0.0023
C39 C 0.5884(8) 0.9631(6) 0.0321(4)
H19 H 0.6488 0.9419 0.0537
H76 H 0.0178125 0.875359 0.00678597
Nd2 Nd 0.40371(5) 0.19700(3) 0.69294(2)
C1 C 0.2947(10) 0.8922(7) 0.9397(5)
C2 C 0.4034(8) 0.9485(6) 0.9698(4)
C5 C 0.1811(10) 0.6859(7) 0.7858(5)
C6 C 0.1860(11) 0.5879(7) 0.7783(5)
C7 C 0.2423(13) 0.5464(8) 0.7395(5)
H3 H 0.2698 0.5743 0.7151
C8 C 0.1425(11) 0.5445(7) 0.8139(5)
H4 H 0.1068 0.5711 0.8403
C9 C 0.0406(10) 0.6534(6) 0.9557(4)
C10 C 0.0205(9) 0.5747(6) 0.9793(4)
C11 C 0.0596(10) 0.4975(6) 0.9578(4)
H5 H 0.0987 0.4955 0.9293
C29 C 0.2413(11) 0.3230(6) 0.7768(5)
C30 C 0.2179(10) 0.4147(7) 0.7731(5)
C31 C 0.1527(12) 0.4575(8) 0.8098(6)
H15 H 0.1165 0.4289 0.8313
C32 C 0.2585(11) 0.4581(7) 0.7369(5)
H16 H 0.2960 0.4320 0.7111
C33 C 0.4489(16) 0.1034(7) 0.5945(5)
C34 C 0.4763(17) 0.0504(8) 0.5451(4)
C35 C 0.5724(17) 0.0743(7) 0.5253(5)
H17 H 0.6189 0.1222 0.5413
O1 O 0.0737(6) 0.8974(4) 0.9868(3)
O2 O 0.2190(7) 0.9192(4) 0.9037(3)
O3 O 0.0280(8) 0.8470(5) 0.8033(3)
O4 O 0.2753(7) 0.8173(4) 0.9507(3)
O5 O 0.1875(7) 0.7245(5) 0.8360(3)
O6 O 0.2373(8) 0.0884(6) 0.7023(5)
O7 O 0.2400(9) 0.2208(5) 0.6205(4)
O8 O 0.1698(8) 0.7244(5) 0.7457(3)
O10 O 0.1237(6) 0.6579(4) 0.9298(3)
O19 O 0.3060(7) 0.2889(5) 0.7466(3)
O20 O 0.2029(9) 0.2898(6) 0.8118(4)
O21 O 0.5057(9) 0.1759(4) 0.6145(3)
O22 O 0.3699(9) 0.0740(5) 0.6161(3)
C48 C 0.0405(10) 0.4254(7) 0.9786(4)
H24 H 0.0685 0.3780 0.9641
C52 C 0.7019(11) 0.0005(7) 0.7843(4)
C53 C 0.6169(9) 0.0498(6) 0.8016(4)
C54 C 0.5974(10) 0.0511(6) 0.8540(4)
H27 H 0.5401 0.0814 0.8656
C55 C 0.6654(9) 0.0061(6) 0.8898(4)
H28 H 0.6526 0.0077 0.9248
C56 C 0.5471(10) 0.0996(6) 0.7634(4)
C57 C 0.8582(9) 0.6737(7) 0.7929(4)
C58 C 0.7836(9) 0.5900(6) 0.7720(4)
C59 C 0.6846(9) 0.5851(6) 0.7303(4)
H29 H 0.6634 0.6301 0.7149
C60 C 0.6158(10) 0.5079(6) 0.7116(4)
H30 H 0.5499 0.5046 0.6836
C61 C 0.6425(9) 0.4350(6) 0.7337(4)
C62 C 0.7434(9) 0.4417(6) 0.7751(4)
H31 H 0.7656 0.3967 0.7902
C63 C 0.8126(8) 0.5181(6) 0.7944(4)
H32 H 0.8787 0.5215 0.8223
C64 C 0.5644(9) 0.3542(7) 0.7159(4)
C72 C 0.5978(16) 0.0243(7) 0.4804(4)
H36 H 0.6626 0.0389 0.4666
O38 O 0.5633(8) 0.0967(5) 0.7157(3)
O39 O 0.4712(7) 0.1462(5) 0.7806(3)
O40 O 0.9369(6) 0.6802(4) 0.8364(3)
O42 O 0.8398(6) 0.7354(5) 0.7666(3)
O43 O 0.5910(6) 0.2896(4) 0.7392(3)
O45 O 0.4733(6) 0.3469(4) 0.6786(3)
H75 H 0.0495134 0.949769 0.977268
H77 H 0.0881572 0.891805 0.804163
H78 H 0.030228 0.802563 0.772936
C36 C 0.4022(16) 0.9757(7) 0.5196(4)
H18 H 0.3374 0.9611 0.5334
C49 C 0.8319(9) 0.9132(6) 0.9110(4)
C50 C 0.7529(9) 0.9585(6) 0.8724(4)
C51 C 0.7675(10) 0.9547(6) 0.8194(4)
H25 H 0.8211 0.9217 0.8069
H26 H 0.7145 0.9983 0.7493
C69 C 0.5511(16) 0.8966(7) 0.4055(5)
C70 C 0.5237(17) 0.9496(8) 0.4549(4)
C71 C 0.4276(17) 0.9257(7) 0.4747(5)
H35 H 0.3811 0.8778 0.4587
O35 O 0.8853(7) 0.8543(4) 0.8900(3)
O37 O 0.8412(6) 0.9380(4) 0.9618(3)
O50 O 0.4943(9) 0.8241(4) 0.3855(3)
O52 O 0.6301(9) 0.9260(5) 0.3839(3)
C12 C 0.9595(10) 0.5746(7) 0.0214(4)
H6 H 0.9315 0.6220 0.0359
C45 C 0.9594(10) 0.3466(6) 0.0443(4)
C46 C 0.9795(9) 0.4253(6) 0.0207(4)
C47 C 0.9404(10) 0.5025(6) 0.0422(4)
H23 H 0.9013 0.5045 0.0707
O9 O 0.9779(7) 0.7154(4) 0.9619(3)
C13 C 0.1681(9) 0.0868(6) 0.0890(4)
C14 C 0.2471(9) 0.0415(6) 0.1276(4)
C15 C 0.2325(10) 0.0453(6) 0.1806(4)
H7 H 0.1789 0.0783 0.1931
H8 H 0.2855 0.0017 0.2507
C21 C 0.1418(9) 0.3263(7) 0.2071(4)
C22 C 0.2164(9) 0.4100(6) 0.2280(4)
C23 C 0.3154(9) 0.4149(6) 0.2697(4)
H11 H 0.3366 0.3699 0.2851
C24 C 0.3842(10) 0.4921(6) 0.2884(4)
H12 H 0.4501 0.4954 0.3164
C25 C 0.3575(9) 0.5650(6) 0.2663(4)
C26 C 0.2566(9) 0.5583(6) 0.2249(4)
H13 H 0.2344 0.6033 0.2098
C27 C 0.1874(8) 0.4819(6) 0.2056(4)
H14 H 0.1213 0.4785 0.1777
C28 C 0.4356(9) 0.6458(7) 0.2841(4)
O12 O 0.1588(6) 0.0620(4) 0.0382(3)
O16 O 0.1602(6) 0.2646(5) 0.2334(3)
O17 O 0.4090(6) 0.7104(4) 0.2608(3)
O18 O 0.5267(6) 0.6531(4) 0.3214(3)
C16 C 0.2981(11) 0.9995(7) 0.2157(4)
C17 C 0.3831(9) 0.9502(6) 0.1984(4)
C18 C 0.4026(10) 0.9489(6) 0.1460(4)
H9 H 0.4599 0.9186 0.1344
C19 C 0.3346(9) 0.9939(6) 0.1102(4)
H10 H 0.3474 0.9923 0.0752
C20 C 0.4529(10) 0.9004(6) 0.2366(4)
O13 O 0.4367(8) 0.9033(5) 0.2843(3)
O14 O 0.5288(7) 0.8538(5) 0.2194(3)
O28 O 0.7627(8) 0.9116(6) 0.2977(5)
O29 O 0.7600(9) 0.7792(5) 0.3795(4)
H75_2 H 0.950487 0.0502314 0.0227319
H77_2 H 0.911843 0.108195 0.195837
H83_2 H 0.154171 0.905854 0.0100815
H85_2 H 0.948774 0.867083 0.797894
C97 C 0.0187(10) 0.1060(7) 0.8407(5)
H58 H 0.0690 0.0683 0.8522
C98 C 0.0159(10) 0.1293(7) 0.7905(5)
H59 H 0.0656 0.1091 0.7683
C101 C 0.0107(11) 0.2164(7) 0.6925(4)
H61 H 0.0828 0.1948 0.6986
H62 H 0.0039 0.2627 0.6225
C73 C 0.7464(11) 0.7559(7) 0.6519(4)
H37 H 0.7661 0.7465 0.6874
C74 C 0.7499(14) 0.7601(9) 0.5667(5)
H38 H 0.7735 0.7523 0.5337
C75 C 0.6573(14) 0.8013(9) 0.5779(5)
H39 H 0.6069 0.8270 0.5543
C76 C 0.5722(10) 0.8303(7) 0.6625(4)
C77 C 0.4897(11) 0.8846(7) 0.6431(5)
H40 H 0.4873 0.8999 0.6095
C78 C 0.4140(10) 0.9135(7) 0.6753(5)
H41 H 0.3613 0.9500 0.6642
C79 C 0.4177(10) 0.8872(7) 0.7250(5)
H42 H 0.3683 0.9058 0.7478
C80 C 0.4997(9) 0.8314(6) 0.7389(4)
C81 C 0.6089(10) 0.7679(6) 0.8139(4)
H43 H 0.6768 0.7611 0.8005
C82 C 0.4296(10) 0.8021(7) 0.8240(4)
H44 H 0.3562 0.8221 0.8180
C83 C 0.4777(11) 0.7664(7) 0.8663(5)
H45 H 0.4429 0.7576 0.8949
C84 C 0.6714(10) 0.7029(6) 0.8960(4)
H46 H 0.6794 0.7302 0.9332
H47 H 0.7484 0.7069 0.8871
C85 C 0.6279(10) 0.6079(7) 0.8920(4)
C86 C 0.6746(14) 0.5680(7) 0.9350(5)
H48 H 0.7281 0.5969 0.9650
C87 C 0.6406(15) 0.4815(8) 0.9337(5)
H49 H 0.6713 0.4577 0.9633
C88 C 0.5639(10) 0.4350(7) 0.8892(4)
C89 C 0.5163(10) 0.4744(6) 0.8470(4)
H50 H 0.4627 0.4454 0.8171
C90 C 0.5491(10) 0.5621(7) 0.8485(4)
H51 H 0.5156 0.5863 0.8195
C91 C 0.5253(10) 0.3402(7) 0.8884(5)
H52 H 0.4820 0.3362 0.9168
H53 H 0.4732 0.3178 0.8538
C92 C 0.6910(10) 0.2691(7) 0.8588(4)
H54 H 0.6743 0.2786 0.8233
C93 C 0.6810(10) 0.2641(6) 0.9443(4)
H55 H 0.6543 0.2707 0.9766
C94 C 0.7758(10) 0.2268(7) 0.9351(4)
H56 H 0.8270 0.2033 0.9597
C95 C 0.8669(9) 0.1941(6) 0.8522(4)
C96 C 0.9472(9) 0.1387(7) 0.8728(5)
H57 H 0.9500 0.1258 0.9072
C99 C 0.9350(9) 0.1844(6) 0.7745(4)
C100 C 0.8329(10) 0.2540(7) 0.7009(4)
H60 H 0.7645 0.2616 0.7138
C102 C 0.9665(11) 0.2541(8) 0.6503(4)
C103 C 0.7756(12) 0.3190(8) 0.6176(4)
H63 H 0.6979 0.3144 0.6257
H64 H 0.7694 0.2908 0.5807
C104 C 0.8146(11) 0.4120(8) 0.6201(4)
C105 C 0.7575(11) 0.4549(8) 0.5800(5)
H65 H 0.6992 0.4264 0.5518
C106 C 0.7848(11) 0.5409(7) 0.5805(5)
H66 H 0.7428 0.5647 0.5530
C107 C 0.8709(11) 0.5883(8) 0.6205(4)
C108 C 0.9296(12) 0.5470(8) 0.6604(5)
H67 H 0.9894 0.5759 0.6878
C109 C 0.9017(11) 0.4608(8) 0.6613(4)
H68 H 0.9420 0.4379 0.6896
C110 C 0.9058(11) 0.6816(8) 0.6201(5)
H69 H 0.9605 0.7042 0.6539
H70 H 0.9463 0.6852 0.5908
N1 N 0.8029(9) 0.7321(6) 0.6136(4)
N2 N 0.6534(8) 0.7970(6) 0.6317(3)
N3 N 0.5763(8) 0.8027(5) 0.7098(3)
N4 N 0.5142(8) 0.8027(5) 0.7904(3)
N5 N 0.5895(8) 0.7451(5) 0.8594(3)
N6 N 0.6297(8) 0.2911(5) 0.8968(3)
N7 N 0.7829(8) 0.2300(5) 0.8816(3)
N8 N 0.8625(7) 0.2196(5) 0.8042(3)
N9 N 0.9274(8) 0.2168(5) 0.7244(3)
N10 N 0.8572(8) 0.2773(6) 0.6556(3)
C73_2 C 0.2536(11) 0.2441(7) 0.3481(4)
H37_2 H 0.2339 0.2535 0.3126
C74_2 C 0.2501(14) 0.2399(9) 0.4333(5)
H38_2 H 0.2265 0.2477 0.4663
C75_2 C 0.3427(14) 0.1987(9) 0.4221(5)
H39_2 H 0.3931 0.1730 0.4457
C76_2 C 0.4278(10) 0.1697(7) 0.3375(4)
C77_2 C 0.5103(11) 0.1154(7) 0.3569(5)
H40_2 H 0.5127 0.1001 0.3905
C78_2 C 0.5860(10) 0.0865(7) 0.3247(5)
H41_2 H 0.6387 0.0500 0.3358
C79_2 C 0.5823(10) 0.1128(7) 0.2750(5)
H42_2 H 0.6317 0.0942 0.2522
C80_2 C 0.5003(9) 0.1686(6) 0.2611(4)
C81_2 C 0.3911(10) 0.2321(6) 0.1861(4)
H43_2 H 0.3232 0.2389 0.1995
C82_2 C 0.5704(10) 0.1979(7) 0.1760(4)
H44_2 H 0.6438 0.1779 0.1820
C83_2 C 0.5223(11) 0.2336(7) 0.1337(5)
H45_2 H 0.5571 0.2424 0.1051
C84_2 C 0.3286(10) 0.2971(6) 0.1040(4)
H46_2 H 0.3206 0.2698 0.0668
H47_2 H 0.2516 0.2931 0.1129
C85_2 C 0.3721(10) 0.3921(7) 0.1080(4)
C86_2 C 0.3254(14) 0.4320(7) 0.0650(5)
H48_2 H 0.2719 0.4031 0.0350
C87_2 C 0.3594(15) 0.5185(8) 0.0663(5)
H49_2 H 0.3287 0.5423 0.0367
C88_2 C 0.4361(10) 0.5650(7) 0.1108(4)
C89_2 C 0.4837(10) 0.5256(6) 0.1530(4)
H50_2 H 0.5373 0.5546 0.1829
C90_2 C 0.4509(10) 0.4379(7) 0.1515(4)
H51_2 H 0.4844 0.4137 0.1805
C91_2 C 0.4747(10) 0.6598(7) 0.1116(5)
H52_2 H 0.5180 0.6638 0.0832
H53_2 H 0.5268 0.6822 0.1462
C92_2 C 0.3090(10) 0.7309(7) 0.1412(4)
H54_2 H 0.3257 0.7214 0.1767
C93_2 C 0.3190(10) 0.7359(6) 0.0557(4)
H55_2 H 0.3457 0.7293 0.0234
C94_2 C 0.2242(10) 0.7732(7) 0.0649(4)
H56_2 H 0.1730 0.7967 0.0403
C95_2 C 0.1331(9) 0.8059(6) 0.1478(4)
C96_2 C 0.0528(9) 0.8613(7) 0.1272(5)
H57_2 H 0.0500 0.8742 0.0928
C99_2 C 0.0650(9) 0.8156(6) 0.2255(4)
C100_2 C 0.1671(10) 0.7460(7) 0.2991(4)
H60_2 H 0.2355 0.7384 0.2862
C102_2 C 0.0335(11) 0.7459(8) 0.3497(4)
C103_2 C 0.2244(12) 0.6810(8) 0.3824(4)
H63_2 H 0.3021 0.6856 0.3743
H64_2 H 0.2306 0.7092 0.4193
C104_2 C 0.1854(11) 0.5880(8) 0.3799(4)
C105_2 C 0.2425(11) 0.5451(8) 0.4200(5)
H65_2 H 0.3008 0.5736 0.4482
C106_2 C 0.2152(11) 0.4591(7) 0.4195(5)
H66_2 H 0.2572 0.4353 0.4470
C107_2 C 0.1291(11) 0.4117(8) 0.3795(4)
C108_2 C 0.0704(12) 0.4530(8) 0.3396(5)
H67_2 H 0.0106 0.4241 0.3122
C109_2 C 0.0983(11) 0.5392(8) 0.3387(4)
H68_2 H 0.0580 0.5621 0.3104
C110_2 C 0.0942(11) 0.3184(8) 0.3799(5)
H69_2 H 0.0395 0.2958 0.3461
H70_2 H 0.0537 0.3148 0.4092
N1_2 N 0.1971(9) 0.2679(6) 0.3864(4)
N2_2 N 0.3466(8) 0.2030(6) 0.3683(3)
N3_2 N 0.4237(8) 0.1973(5) 0.2902(3)
N4_2 N 0.4858(8) 0.1973(5) 0.2096(3)
N5_2 N 0.4105(8) 0.2549(5) 0.1406(3)
N6_2 N 0.3703(8) 0.7089(5) 0.1032(3)
N7_2 N 0.2171(8) 0.7700(5) 0.1184(3)
N8_2 N 0.1375(7) 0.7804(5) 0.1958(3)
N9_2 N 0.0726(8) 0.7832(5) 0.2756(3)
N10_2 N 0.1428(8) 0.7227(6) 0.3444(3)
C97_2 C 0.9813(10) 0.8940(7) 0.1593(5)
H58_2 H 0.9310 0.9317 0.1478
C98_2 C 0.9841(10) 0.8707(7) 0.2095(5)
H59_2 H 0.9344 0.8909 0.2317
C101_2 C 0.9893(11) 0.7836(7) 0.3075(4)
H61_2 H 0.9172 0.8052 0.3014
H62_2 H 0.9961 0.7373 0.3775
C111 C 0.0696(12) 0.3447(8) 0.5402(5)
C112 C 0.0328(9) 0.4253(7) 0.5200(4)
C113 C 0.0909(10) 0.5049(7) 0.5443(4)
H71 H 0.1516 0.5094 0.5748
O54 O 0.0138(9) 0.2733(6) 0.5169(4)
O55 O 0.1560(8) 0.3529(5) 0.5796(3)
C118 C 0.0598(10) 0.5771(7) 0.5240(4)
H74 H 0.1024 0.6262 0.5406
C114 C 0.9402(10) 0.4229(7) 0.4760(4)
H72 H 0.8976 0.3738 0.4594
C115 C 0.9304(12) 0.6553(8) 0.4598(5)
C116 C 0.9672(9) 0.5747(7) 0.4800(4)
C117 C 0.9091(10) 0.4951(7) 0.4557(4)
H73 H 0.8484 0.4906 0.4252
O56 O 0.9862(9) 0.7267(6) 0.4831(4)
O57 O 0.8440(8) 0.6471(5) 0.4204(3)
loop_
_geom_bond_atom_site_label_1
_geom_bond_atom_site_label_2
_geom_bond_site_symmetry_1
_geom_bond_site_symmetry_2
Nd3 O23 1_555 1_555
Nd10 O47 1_555 1_555
C37 C38 1_555 1_555
C41 C42 1_555 1_555
C42 C43 1_555 1_555
C43 H21 1_555 1_555
C44 C42 1_555 1_555
H22 C44 1_555 1_555
C65 C66 1_555 1_555
C66 C67 1_555 1_555
C67 C44 1_555 1_555
H33 C67 1_555 1_555
C68 C43 1_555 1_555
H34 C68 1_555 1_555
O24 Nd3 1_555 1_555
O25 Nd3 1_555 1_555
O26 Nd3 1_555 1_555
O27 Nd3 1_555 1_555
O30 C41 1_555 1_555
O34 Nd3 1_555 1_555
O47 C65 1_555 1_555
O49 C65 1_555 1_555
C37 O24 1_555 1_555
C37 O26 1_555 1_555
C41 O27 1_555 1_555
C66 C68 1_555 1_555
O25 H86 1_555 1_555
C3 H1 1_555 1_555
C40 C3 1_555 1_555
H20 C40 1_555 1_555
H2 C4 1_555 1_555
C39 C4 1_555 1_555
H19 C39 1_555 1_555
Nd6 O1 1_555 1_555
Nd2 O6 1_555 1_555
C1 C2 1_555 1_555
C5 C6 1_555 1_555
C6 C7 1_555 1_555
C7 H3 1_555 1_555
C8 C6 1_555 1_555
H4 C8 1_555 1_555
C9 C10 1_555 1_555
C10 C11 1_555 1_555
C11 H5 1_555 1_555
C29 C30 1_555 1_555
C30 C31 1_555 1_555
C31 C8 1_555 1_555
H15 C31 1_555 1_555
C32 C7 1_555 1_555
H16 C32 1_555 1_555
C33 C34 1_555 1_555
C34 C35 1_555 1_555
C35 H17 1_555 1_555
O2 Nd6 1_555 1_555
O3 Nd6 1_555 1_555
O4 Nd6 1_555 1_555
O5 Nd6 1_555 1_555
O7 Nd2 1_555 1_555
O8 C5 1_555 1_555
O10 Nd6 1_555 1_555
O19 Nd2 1_555 1_555
O20 C29 1_555 1_555
O21 Nd2 1_555 1_555
O22 Nd2 1_555 1_555
C48 C11 1_555 1_555
H24 C48 1_555 1_555
C53 C52 1_555 1_555
C54 C53 1_555 1_555
H27 C54 1_555 1_555
H28 C55 1_555 1_555
C56 C53 1_555 1_555
C57 C58 1_555 1_555
C58 C59 1_555 1_555
C59 H29 1_555 1_555
C60 C59 1_555 1_555
H30 C60 1_555 1_555
C61 C60 1_555 1_555
C62 C61 1_555 1_555
H31 C62 1_555 1_555
C63 C58 1_555 1_555
H32 C63 1_555 1_555
C64 C61 1_555 1_555
C72 C35 1_555 1_555
H36 C72 1_555 1_555
O38 Nd2 1_555 1_555
O39 Nd2 1_555 1_555
O40 C57 1_555 1_555
O42 C57 1_555 1_555
O43 Nd2 1_555 1_555
O45 Nd2 1_555 1_555
C1 O2 1_555 1_555
C1 O4 1_555 1_555
C5 O5 1_555 1_555
C9 O10 1_555 1_555
C29 O19 1_555 1_555
C30 C32 1_555 1_555
C33 O21 1_555 1_555
C33 O22 1_555 1_555
C54 C55 1_555 1_555
C56 O38 1_555 1_555
C56 O39 1_555 1_555
C62 C63 1_555 1_555
C64 O43 1_555 1_555
C64 O45 1_555 1_555
O1 H75 1_555 1_555
O3 H77 1_555 1_555
O3 H78 1_555 1_555
H18 C36 1_555 1_555
Nd10 O50 1_555 1_555
C49 C50 1_555 1_555
C50 C51 1_555 1_555
C51 H25 1_555 1_555
C69 C70 1_555 1_555
C70 C71 1_555 1_555
C71 C36 1_555 1_555
H35 C71 1_555 1_555
O35 C49 1_555 1_555
O37 C49 1_555 1_555
O50 C69 1_555 1_555
O52 Nd10 1_555 1_555
C69 O52 1_555 1_555
H6 C12 1_555 1_555
C45 C46 1_555 1_555
C46 C47 1_555 1_555
C47 C12 1_555 1_555
H23 C47 1_555 1_555
C45 O34 1_555 1_555
C13 C14 1_555 1_555
C14 C15 1_555 1_555
C15 H7 1_555 1_555
C21 C22 1_555 1_555
C22 C23 1_555 1_555
C23 H11 1_555 1_555
C24 C23 1_555 1_555
H12 C24 1_555 1_555
C25 C24 1_555 1_555
C26 C25 1_555 1_555
H13 C26 1_555 1_555
C27 C22 1_555 1_555
H14 C27 1_555 1_555
C28 C25 1_555 1_555
O12 C13 1_555 1_555
O16 C21 1_555 1_555
O17 C28 1_555 1_555
O18 C28 1_555 1_555
Nd10 O17 1_555 1_555
C13 O36 1_555 1_555
C21 O41 1_555 1_555
C26 C27 1_555 1_555
O18 Nd10 1_555 1_555
C17 C16 1_555 1_555
C18 C17 1_555 1_555
H9 C18 1_555 1_555
H10 C19 1_555 1_555
C20 C17 1_555 1_555
O13 C20 1_555 1_555
O14 C20 1_555 1_555
Nd10 O13 1_555 1_555
O28 Nd10 1_555 1_555
O29 Nd10 1_555 1_555
C18 C19 1_555 1_555
O14 Nd10 1_555 1_555
O23 H75_2 1_555 1_555
O25 H77_2 1_555 1_555
H58 C97 1_555 1_555
C98 C97 1_555 1_555
H59 C98 1_555 1_555
C101 H61 1_555 1_555
C73 H37 1_555 1_555
C74 H38 1_555 1_555
C75 C74 1_555 1_555
H39 C75 1_555 1_555
C76 C77 1_555 1_555
C77 H40 1_555 1_555
C78 C77 1_555 1_555
H41 C78 1_555 1_555
C79 C78 1_555 1_555
H42 C79 1_555 1_555
C80 C79 1_555 1_555
C81 H43 1_555 1_555
C82 H44 1_555 1_555
C83 C82 1_555 1_555
H45 C83 1_555 1_555
C84 H46 1_555 1_555
H47 C84 1_555 1_555
C85 C84 1_555 1_555
C86 C85 1_555 1_555
H48 C86 1_555 1_555
C87 C86 1_555 1_555
H49 C87 1_555 1_555
C88 C87 1_555 1_555
C89 C88 1_555 1_555
H50 C89 1_555 1_555
C90 C85 1_555 1_555
H51 C90 1_555 1_555
C91 C88 1_555 1_555
H52 C91 1_555 1_555
H53 C91 1_555 1_555
C92 H54 1_555 1_555
C93 H55 1_555 1_555
C94 C93 1_555 1_555
H56 C94 1_555 1_555
C95 C96 1_555 1_555
C96 H57 1_555 1_555
C100 H60 1_555 1_555
C103 H63 1_555 1_555
H64 C103 1_555 1_555
C104 C103 1_555 1_555
C105 C104 1_555 1_555
H65 C105 1_555 1_555
C106 C105 1_555 1_555
H66 C106 1_555 1_555
C107 C106 1_555 1_555
C108 C107 1_555 1_555
H67 C108 1_555 1_555
C109 C104 1_555 1_555
H68 C109 1_555 1_555
C110 C107 1_555 1_555
H69 C110 1_555 1_555
H70 C110 1_555 1_555
N1 C73 1_555 1_555
N2 C73 1_555 1_555
N3 C76 1_555 1_555
N4 C80 1_555 1_555
N5 C81 1_555 1_555
N6 C91 1_555 1_555
N7 C92 1_555 1_555
N8 C95 1_555 1_555
N9 C99 1_555 1_555
N10 C100 1_555 1_555
C74 N1 1_555 1_555
C75 N2 1_555 1_555
C76 N2 1_555 1_555
C80 N3 1_555 1_555
C81 N4 1_555 1_555
C82 N4 1_555 1_555
C83 N5 1_555 1_555
C84 N5 1_555 1_555
C89 C90 1_555 1_555
C92 N6 1_555 1_555
C93 N6 1_555 1_555
C94 N7 1_555 1_555
C95 N7 1_555 1_555
C99 N8 1_555 1_555
C100 N9 1_555 1_555
C102 N10 1_555 1_555
C103 N10 1_555 1_555
C108 C109 1_555 1_555
C110 N1 1_555 1_555
C73_2 H37_2 1_555 1_555
C74_2 H38_2 1_555 1_555
C75_2 C74_2 1_555 1_555
H39_2 C75_2 1_555 1_555
C76_2 C77_2 1_555 1_555
C77_2 H40_2 1_555 1_555
C78_2 C77_2 1_555 1_555
H41_2 C78_2 1_555 1_555
C79_2 C78_2 1_555 1_555
H42_2 C79_2 1_555 1_555
C80_2 C79_2 1_555 1_555
C81_2 H43_2 1_555 1_555
C82_2 H44_2 1_555 1_555
C83_2 C82_2 1_555 1_555
H45_2 C83_2 1_555 1_555
C84_2 H46_2 1_555 1_555
H47_2 C84_2 1_555 1_555
C85_2 C84_2 1_555 1_555
C86_2 C85_2 1_555 1_555
H48_2 C86_2 1_555 1_555
C87_2 C86_2 1_555 1_555
H49_2 C87_2 1_555 1_555
C88_2 C87_2 1_555 1_555
C89_2 C88_2 1_555 1_555
H50_2 C89_2 1_555 1_555
C90_2 C85_2 1_555 1_555
H51_2 C90_2 1_555 1_555
C91_2 C88_2 1_555 1_555
H52_2 C91_2 1_555 1_555
H53_2 C91_2 1_555 1_555
C92_2 H54_2 1_555 1_555
C93_2 H55_2 1_555 1_555
C94_2 C93_2 1_555 1_555
H56_2 C94_2 1_555 1_555
C95_2 C96_2 1_555 1_555
C96_2 H57_2 1_555 1_555
C100_2 H60_2 1_555 1_555
C103_2 H63_2 1_555 1_555
H64_2 C103_2 1_555 1_555
C104_2 C103_2 1_555 1_555
C105_2 C104_2 1_555 1_555
H65_2 C105_2 1_555 1_555
C106_2 C105_2 1_555 1_555
H66_2 C106_2 1_555 1_555
C107_2 C106_2 1_555 1_555
C108_2 C107_2 1_555 1_555
H67_2 C108_2 1_555 1_555
C109_2 C104_2 1_555 1_555
H68_2 C109_2 1_555 1_555
C110_2 C107_2 1_555 1_555
H69_2 C110_2 1_555 1_555
H70_2 C110_2 1_555 1_555
N1_2 C73_2 1_555 1_555
N2_2 C73_2 1_555 1_555
N3_2 C76_2 1_555 1_555
N4_2 C80_2 1_555 1_555
N5_2 C81_2 1_555 1_555
N6_2 C91_2 1_555 1_555
N7_2 C92_2 1_555 1_555
N8_2 C95_2 1_555 1_555
N9_2 C99_2 1_555 1_555
N10_2 C100_2 1_555 1_555
C74_2 N1_2 1_555 1_555
C75_2 N2_2 1_555 1_555
C76_2 N2_2 1_555 1_555
C80_2 N3_2 1_555 1_555
C81_2 N4_2 1_555 1_555
C82_2 N4_2 1_555 1_555
C83_2 N5_2 1_555 1_555
C84_2 N5_2 1_555 1_555
C89_2 C90_2 1_555 1_555
C92_2 N6_2 1_555 1_555
C93_2 N6_2 1_555 1_555
C94_2 N7_2 1_555 1_555
C95_2 N7_2 1_555 1_555
C99_2 N8_2 1_555 1_555
C100_2 N9_2 1_555 1_555
C102_2 N10_2 1_555 1_555
C103_2 N10_2 1_555 1_555
C108_2 C109_2 1_555 1_555
C110_2 N1_2 1_555 1_555
H58_2 C97_2 1_555 1_555
C98_2 C97_2 1_555 1_555
H59_2 C98_2 1_555 1_555
C101_2 H61_2 1_555 1_555
C111 C112 1_555 1_555
C112 C113 1_555 1_555
C113 H71 1_555 1_555
O54 C111 1_555 1_555
O55 C111 1_555 1_555
C118 C113 1_555 1_555
H74 C118 1_555 1_555
H72 C114 1_555 1_555
C115 C116 1_555 1_555
C116 C117 1_555 1_555
C117 C114 1_555 1_555
H73 C117 1_555 1_555
O56 C115 1_555 1_555
O57 C115 1_555 1_555

#END
