
###############################################################################
#
# This file contains modified crystal structure data generated from the
# MOF subset of the Cambridge Structural Database (CSD) v543 
# hosted by the Cambridge Crystallographic Data Centre (CCDC).
#
# This work is licensed under the Creative Commons
# Attribution-NonCommercial-ShareAlike 4.0 International License.
# To view a copy of this license, visit
# http://creativecommons.org/licenses/by-nc-sa/4.0/
# or send a letter to
# Creative Commons, PO Box 1866, Mountain View, CA 94042, USA.
#
# CIF created using the CSD Python API on 29 September 2022
# The structure has been converted into the P1 space group
# The structure has a 3D framework
# The original CSD entry ZEDVIP is in the monoclinic crystal system
# The framework has been calculated to contain at least 10.0% void space
# The void calculation uses a probe of radius 1.32A, grid spacing 0.4
# The framework is charged, counterions have been retained in the structure
# H atom positions have been added when not included in the experimental data
# Generated hydrogen atom positions removed from atoms on special positions
#
###############################################################################

data_ZEDVIP
_chemical_formula_moiety         '(C312 H260 Eu8 N40 O90 3+)n'
_symmetry_cell_setting           triclinic
_symmetry_space_group_name_H-M   'P 1'
_symmetry_Int_Tables_number      1
_space_group_name_Hall           'P 1'
loop_
_symmetry_equiv_pos_site_id
_symmetry_equiv_pos_as_xyz
1 x,y,z
_cell_length_a                   23.198(5)
_cell_length_b                   15.455(3)
_cell_length_c                   34.046(10)
_cell_angle_alpha                90
_cell_angle_beta                 130.442(19)
_cell_angle_gamma                90
_cell_volume                     9289.8
loop_
_atom_site_label
_atom_site_type_symbol
_atom_site_fract_x
_atom_site_fract_y
_atom_site_fract_z
N1 N 0.2262(5) 0.4929(6) 0.2802(4)
N2 N 0.3013(5) 0.4413(7) 0.2693(4)
N3 N 0.3217(5) 0.3012(6) 0.2620(3)
N4 N 0.3344(4) 0.1526(6) 0.2576(3)
N5 N 0.2712(5) 0.0469(6) 0.2533(3)
N6 N 0.2183(6) 0.0352(5) 0.4465(4)
N7 N 0.1463(5) 0.1046(6) 0.4576(3)
N8 N 0.1541(5) 0.2425(6) 0.4815(3)
N9 N 0.1679(5) 0.3880(5) 0.5027(4)
N10 N 0.2379(4) 0.4835(5) 0.5050(3)
C1 C 0.2453(6) 0.4212(8) 0.2686(5)
H1 H 0.2230 0.3670 0.2614
C2 C 0.2744(7) 0.5605(7) 0.2895(5)
H2 H 0.2741 0.6170 0.2988
C3 C 0.3196(7) 0.5293(9) 0.2827(5)
H3 H 0.3573 0.5596 0.2860
C4 C 0.3386(6) 0.3818(6) 0.2612(4)
C5 C 0.3882(7) 0.4038(9) 0.2550(5)
H4 H 0.3968 0.4620 0.2536
C6 C 0.4259(6) 0.3432(10) 0.2506(5)
H5 H 0.4613 0.3592 0.2474
C7 C 0.4101(6) 0.2550(8) 0.2511(4)
H6 H 0.4336 0.2099 0.2481
C8 C 0.3556(6) 0.2418(7) 0.2565(4)
C9 C 0.2745(5) 0.1315(7) 0.2510(4)
H7 H 0.2393 0.1704 0.2456
C10 C 0.3740(8) 0.0796(10) 0.2622(5)
H8 H 0.4171 0.0760 0.2657
C11 C 0.3303(7) 0.0120(8) 0.2602(5)
C12 C 0.2144(6) 0.0016(6) 0.2511(4)
H11 H 0.1651 0.0266 0.2240
C13 C 0.2303(7) 0.0064(6) 0.3011(5)
C16 C 0.2598(8) 0.0144(7) 0.3935(6)
C17 C 0.1906(7) 0.0418(6) 0.3489(6)
H14 H 0.1536 0.0627 0.3495
C18 C 0.1783(8) 0.0373(7) 0.3041(5)
H15 H 0.1320 0.0564 0.2739
C19 C 0.2790(8) 0.0156(7) 0.4470(5)
H17 H 0.3190 0.0576 0.4689
C20 C 0.2126(7) 0.1072(8) 0.4665(5)
H18 H 0.2483 0.1514 0.4835
C22 C 0.1069(7) 0.0286(7) 0.4299(5)
H20 H 0.0590 0.0116 0.4172
C23 C 0.1214(6) 0.1644(8) 0.4736(5)
C24 C 0.0706(7) 0.1448(7) 0.4780(5)
H21 H 0.0499 0.0898 0.4714
C25 C 0.0493(7) 0.2170(9) 0.4940(5)
H22 H 0.0140 0.2081 0.4983
C26 C 0.0808(7) 0.2983(9) 0.5030(5)
H23 H 0.0672 0.3444 0.5131
C27 C 0.1336(6) 0.3080(7) 0.4964(4)
C28 C 0.2215(5) 0.3978(7) 0.4993(4)
H24 H 0.2435 0.3543 0.4940
C29 C 0.1526(7) 0.4702(7) 0.5130(5)
H25 H 0.1194 0.4826 0.5188
C30 C 0.1936(6) 0.5221(8) 0.5126(4)
H26 H 0.1936 0.5814 0.5172
C31 C 0.2900(6) 0.5195(7) 0.4977(5)
H27 H 0.2997 0.5799 0.5078
H28 H 0.3380 0.4890 0.5202
C32 C 0.2604(7) 0.5127(6) 0.4459(5)
C33 C 0.3045(8) 0.4808(7) 0.4335(6)
H29 H 0.3537 0.4621 0.4599
C34 C 0.2763(7) 0.4769(7) 0.3838(6)
H30 H 0.3076 0.4558 0.3780
C35 C 0.2018(6) 0.5033(7) 0.3403(6)
C36 C 0.1594(7) 0.5363(8) 0.3541(6)
H31 H 0.1109 0.5567 0.3274
C37 C 0.1832(7) 0.5402(7) 0.4014(5)
H32 H 0.1509 0.5606 0.4065
C38 C 0.1691(6) 0.4975(7) 0.2868(5)
H33 H 0.1372 0.5477 0.2683
H34 H 0.1372 0.4465 0.2714
H9 H 0.3409 0.9532 0.2632
H10 H 0.2131 0.9414 0.2424
C14 C 0.2996(7) 0.9754(6) 0.3481(5)
H12 H 0.3357 0.9512 0.3476
C15 C 0.3141(7) 0.9805(6) 0.3937(4)
H13 H 0.3600 0.9613 0.4241
H16 H 0.2992 0.9593 0.4630
C21 C 0.1553(7) 0.9840(8) 0.4256(5)
H19 H 0.1466 0.9294 0.4113
C2_2 C 0.7256(7) 0.0605(7) 0.2105(5)
H2_2 H 0.7259 0.1170 0.2012
C3_2 C 0.6804(7) 0.0293(9) 0.2173(5)
H3_2 H 0.6427 0.0596 0.2140
C31_2 C 0.7100(6) 0.0195(7) 0.0023(5)
C32_2 C 0.7396(7) 0.0127(6) 0.0541(5)
C35_2 C 0.7982(6) 0.0033(7) 0.1597(6)
C36_2 C 0.8406(7) 0.0363(8) 0.1459(6)
H31_2 H 0.8891 0.0567 0.1726
C37_2 C 0.8168(7) 0.0402(7) 0.0986(5)
H32_2 H 0.8491 0.0606 0.0935
H33_2 H 0.8628 0.0477 0.2317
C30_2 C 0.8064(6) 0.0221(8) 0.9874(4)
H26_2 H 0.8064 0.0814 0.9828
H27_2 H 0.7003 0.0799 0.9922
N1_2 N 0.7738(5) 0.9929(6) 0.2198(4)
N2_2 N 0.6987(5) 0.9413(7) 0.2307(4)
N3_2 N 0.6783(5) 0.8012(6) 0.2380(3)
N4_2 N 0.6656(4) 0.6526(6) 0.2424(3)
N5_2 N 0.7288(5) 0.5469(6) 0.2467(3)
N6_2 N 0.7817(6) 0.5352(5) 0.0535(4)
N7_2 N 0.8537(5) 0.6046(6) 0.0424(3)
N8_2 N 0.8459(5) 0.7425(6) 0.0185(3)
C1_2 C 0.7547(6) 0.9212(8) 0.2314(5)
H1_2 H 0.7770 0.8670 0.2386
C4_2 C 0.6614(6) 0.8818(6) 0.2388(4)
C5_2 C 0.6118(7) 0.9038(9) 0.2450(5)
H4_2 H 0.6032 0.9620 0.2464
C6_2 C 0.5741(6) 0.8432(10) 0.2494(5)
H5_2 H 0.5387 0.8592 0.2526
C7_2 C 0.5899(6) 0.7550(8) 0.2489(4)
H6_2 H 0.5664 0.7099 0.2519
C8_2 C 0.6444(6) 0.7418(7) 0.2435(4)
C9_2 C 0.7255(5) 0.6315(7) 0.2490(4)
H7_2 H 0.7607 0.6704 0.2544
C10_2 C 0.6260(8) 0.5796(10) 0.2378(5)
H8_2 H 0.5829 0.5760 0.2343
C11_2 C 0.6697(7) 0.5120(8) 0.2398(5)
H9_2 H 0.6591 0.4532 0.2368
C12_2 C 0.7856(6) 0.5016(6) 0.2489(4)
H10_2 H 0.7869 0.4414 0.2576
H11_2 H 0.8349 0.5266 0.2760
C13_2 C 0.7697(7) 0.5064(6) 0.1989(5)
C14_2 C 0.7004(7) 0.4754(6) 0.1519(5)
H12_2 H 0.6643 0.4512 0.1524
C15_2 C 0.6859(7) 0.4805(6) 0.1063(4)
H13_2 H 0.6400 0.4613 0.0759
C16_2 C 0.7402(8) 0.5144(7) 0.1065(6)
C17_2 C 0.8094(7) 0.5418(6) 0.1511(6)
H14_2 H 0.8464 0.5627 0.1505
C18_2 C 0.8217(8) 0.5373(7) 0.1959(5)
H15_2 H 0.8680 0.5564 0.2261
C19_2 C 0.7210(8) 0.5156(7) 0.0530(5)
H16_2 H 0.7008 0.4593 0.0370
H17_2 H 0.6810 0.5576 0.0311
C20_2 C 0.7874(7) 0.6072(8) 0.0335(5)
H18_2 H 0.7517 0.6514 0.0165
C21_2 C 0.8447(7) 0.4840(8) 0.0744(5)
H19_2 H 0.8534 0.4294 0.0887
C22_2 C 0.8931(7) 0.5286(7) 0.0701(5)
H20_2 H 0.9410 0.5116 0.0828
C23_2 C 0.8786(6) 0.6644(8) 0.0264(5)
C24_2 C 0.9294(7) 0.6448(7) 0.0220(5)
H21_2 H 0.9501 0.5898 0.0286
C25_2 C 0.9507(7) 0.7170(9) 0.0060(5)
H22_2 H 0.9860 0.7081 0.0017
C27_2 C 0.8664(6) 0.8080(7) 0.0036(4)
C28_2 C 0.7785(5) 0.8978(7) 0.0007(4)
H24_2 H 0.7565 0.8543 0.0060
C33_2 C 0.6955(8) 0.9808(7) 0.0665(6)
H29_2 H 0.6463 0.9621 0.0401
C34_2 C 0.7237(7) 0.9769(7) 0.1162(6)
H30_2 H 0.6924 0.9558 0.1220
C38_2 C 0.8309(6) 0.9975(7) 0.2132(5)
H34_2 H 0.8628 0.9465 0.2286
N9_2 N 0.8321(5) 0.8880(5) 0.9973(4)
N10_2 N 0.7621(4) 0.9835(5) 0.9950(3)
C26_2 C 0.9192(7) 0.7983(9) 0.9970(5)
H23_2 H 0.9328 0.8444 0.9869
C29_2 C 0.8474(7) 0.9702(7) 0.9870(5)
H25_2 H 0.8806 0.9826 0.9812
H28_2 H 0.6620 0.9890 0.9798
H9_3 H 0.6591 0.0468 0.7368
H10_3 H 0.7869 0.0586 0.7576
C14_3 C 0.7004(7) 0.0246(6) 0.6519(5)
H12_3 H 0.6643 0.0488 0.6524
C15_3 C 0.6859(7) 0.0195(6) 0.6063(4)
H13_3 H 0.6400 0.0387 0.5759
H16_3 H 0.7008 0.0407 0.5370
C21_3 C 0.8447(7) 0.0160(8) 0.5744(5)
H19_3 H 0.8534 0.0706 0.5887
N1_3 N 0.7738(5) 0.5071(6) 0.7198(4)
N2_3 N 0.6987(5) 0.5587(7) 0.7307(4)
N3_3 N 0.6783(5) 0.6988(6) 0.7380(3)
N4_3 N 0.6656(4) 0.8474(6) 0.7424(3)
N5_3 N 0.7288(5) 0.9531(6) 0.7467(3)
N6_3 N 0.7817(6) 0.9648(5) 0.5535(4)
N7_3 N 0.8537(5) 0.8954(6) 0.5424(3)
N8_3 N 0.8459(5) 0.7575(6) 0.5185(3)
N9_3 N 0.8321(5) 0.6120(5) 0.4973(4)
N10_3 N 0.7621(4) 0.5165(5) 0.4950(3)
C1_3 C 0.7547(6) 0.5788(8) 0.7314(5)
H1_3 H 0.7770 0.6330 0.7386
C2_3 C 0.7256(7) 0.4395(7) 0.7105(5)
H2_3 H 0.7259 0.3830 0.7012
C3_3 C 0.6804(7) 0.4707(9) 0.7173(5)
H3_3 H 0.6427 0.4404 0.7140
C4_3 C 0.6614(6) 0.6182(6) 0.7388(4)
C5_3 C 0.6118(7) 0.5962(9) 0.7450(5)
H4_3 H 0.6032 0.5380 0.7464
C6_3 C 0.5741(6) 0.6568(10) 0.7494(5)
H5_3 H 0.5387 0.6408 0.7526
C7_3 C 0.5899(6) 0.7450(8) 0.7489(4)
H6_3 H 0.5664 0.7901 0.7519
C8_3 C 0.6444(6) 0.7582(7) 0.7435(4)
C9_3 C 0.7255(5) 0.8685(7) 0.7490(4)
H7_3 H 0.7607 0.8296 0.7544
C10_3 C 0.6260(8) 0.9204(10) 0.7378(5)
H8_3 H 0.5829 0.9240 0.7343
C11_3 C 0.6697(7) 0.9880(8) 0.7398(5)
C12_3 C 0.7856(6) 0.9984(6) 0.7489(4)
H11_3 H 0.8349 0.9734 0.7760
C13_3 C 0.7697(7) 0.9936(6) 0.6989(5)
C16_3 C 0.7402(8) 0.9856(7) 0.6065(6)
C17_3 C 0.8094(7) 0.9582(6) 0.6511(6)
H14_3 H 0.8464 0.9373 0.6505
C18_3 C 0.8217(8) 0.9627(7) 0.6959(5)
H15_3 H 0.8680 0.9436 0.7261
C19_3 C 0.7210(8) 0.9844(7) 0.5530(5)
H17_3 H 0.6810 0.9424 0.5311
C20_3 C 0.7874(7) 0.8928(8) 0.5335(5)
H18_3 H 0.7517 0.8486 0.5165
C22_3 C 0.8931(7) 0.9714(7) 0.5701(5)
H20_3 H 0.9410 0.9884 0.5828
C23_3 C 0.8786(6) 0.8356(8) 0.5264(5)
C24_3 C 0.9294(7) 0.8552(7) 0.5220(5)
H21_3 H 0.9501 0.9102 0.5286
C25_3 C 0.9507(7) 0.7830(9) 0.5060(5)
H22_3 H 0.9860 0.7919 0.5017
C26_3 C 0.9192(7) 0.7017(9) 0.4970(5)
H23_3 H 0.9328 0.6556 0.4869
C27_3 C 0.8664(6) 0.6920(7) 0.5036(4)
C28_3 C 0.7785(5) 0.6022(7) 0.5007(4)
H24_3 H 0.7565 0.6457 0.5060
C29_3 C 0.8474(7) 0.5298(7) 0.4870(5)
H25_3 H 0.8806 0.5174 0.4812
C30_3 C 0.8064(6) 0.4779(8) 0.4874(4)
H26_3 H 0.8064 0.4186 0.4828
C31_3 C 0.7100(6) 0.4805(7) 0.5023(5)
H27_3 H 0.7003 0.4201 0.4922
H28_3 H 0.6620 0.5110 0.4798
C32_3 C 0.7396(7) 0.4873(6) 0.5541(5)
C33_3 C 0.6955(8) 0.5192(7) 0.5665(6)
H29_3 H 0.6463 0.5379 0.5401
C34_3 C 0.7237(7) 0.5231(7) 0.6162(6)
H30_3 H 0.6924 0.5442 0.6220
C35_3 C 0.7982(6) 0.4967(7) 0.6597(6)
C36_3 C 0.8406(7) 0.4637(8) 0.6459(6)
H31_3 H 0.8891 0.4433 0.6726
C37_3 C 0.8168(7) 0.4598(7) 0.5986(5)
H32_3 H 0.8491 0.4394 0.5935
C38_3 C 0.8309(6) 0.5025(7) 0.7132(5)
H33_3 H 0.8628 0.4523 0.7317
H34_3 H 0.8628 0.5535 0.7286
N9_4 N 0.1679(5) 0.1120(5) 0.0027(4)
N10_4 N 0.2379(4) 0.0165(5) 0.0050(3)
C26_4 C 0.0808(7) 0.2017(9) 0.0030(5)
H23_4 H 0.0672 0.1556 0.0131
C29_4 C 0.1526(7) 0.0298(7) 0.0130(5)
H25_4 H 0.1194 0.0174 0.0188
H28_4 H 0.3380 0.0110 0.0202
N1_4 N 0.2262(5) 0.0071(6) 0.7802(4)
N2_4 N 0.3013(5) 0.0587(7) 0.7693(4)
N3_4 N 0.3217(5) 0.1988(6) 0.7620(3)
N4_4 N 0.3344(4) 0.3474(6) 0.7576(3)
N5_4 N 0.2712(5) 0.4531(6) 0.7533(3)
N6_4 N 0.2183(6) 0.4648(5) 0.9465(4)
N7_4 N 0.1463(5) 0.3954(6) 0.9576(3)
N8_4 N 0.1541(5) 0.2575(6) 0.9815(3)
C1_4 C 0.2453(6) 0.0788(8) 0.7686(5)
H1_4 H 0.2230 0.1330 0.7614
C4_4 C 0.3386(6) 0.1182(6) 0.7612(4)
C5_4 C 0.3882(7) 0.0962(9) 0.7550(5)
H4_4 H 0.3968 0.0380 0.7536
C6_4 C 0.4259(6) 0.1568(10) 0.7506(5)
H5_4 H 0.4613 0.1408 0.7474
C7_4 C 0.4101(6) 0.2450(8) 0.7511(4)
H6_4 H 0.4336 0.2901 0.7481
C8_4 C 0.3556(6) 0.2582(7) 0.7565(4)
C9_4 C 0.2745(5) 0.3685(7) 0.7510(4)
H7_4 H 0.2393 0.3296 0.7456
C10_4 C 0.3740(8) 0.4204(10) 0.7622(5)
H8_4 H 0.4171 0.4240 0.7657
C11_4 C 0.3303(7) 0.4880(8) 0.7602(5)
H9_4 H 0.3409 0.5468 0.7632
C12_4 C 0.2144(6) 0.4984(6) 0.7511(4)
H10_4 H 0.2131 0.5586 0.7424
H11_4 H 0.1651 0.4734 0.7240
C13_4 C 0.2303(7) 0.4936(6) 0.8011(5)
C14_4 C 0.2996(7) 0.5246(6) 0.8481(5)
H12_4 H 0.3357 0.5488 0.8476
C15_4 C 0.3141(7) 0.5195(6) 0.8937(4)
H13_4 H 0.3600 0.5387 0.9241
C16_4 C 0.2598(8) 0.4856(7) 0.8935(6)
C17_4 C 0.1906(7) 0.4582(6) 0.8489(6)
H14_4 H 0.1536 0.4373 0.8495
C18_4 C 0.1783(8) 0.4627(7) 0.8041(5)
H15_4 H 0.1320 0.4436 0.7739
C19_4 C 0.2790(8) 0.4844(7) 0.9470(5)
H16_4 H 0.2992 0.5407 0.9630
H17_4 H 0.3190 0.4424 0.9689
C20_4 C 0.2126(7) 0.3928(8) 0.9665(5)
H18_4 H 0.2483 0.3486 0.9835
C21_4 C 0.1553(7) 0.5160(8) 0.9256(5)
H19_4 H 0.1466 0.5706 0.9113
C22_4 C 0.1069(7) 0.4714(7) 0.9299(5)
H20_4 H 0.0590 0.4884 0.9172
C23_4 C 0.1214(6) 0.3356(8) 0.9736(5)
C24_4 C 0.0706(7) 0.3552(7) 0.9780(5)
H21_4 H 0.0499 0.4102 0.9714
C25_4 C 0.0493(7) 0.2830(9) 0.9940(5)
H22_4 H 0.0140 0.2919 0.9983
C27_4 C 0.1336(6) 0.1920(7) 0.9964(4)
C28_4 C 0.2215(5) 0.1022(7) 0.9993(4)
H24_4 H 0.2435 0.1457 0.9940
C33_4 C 0.3045(8) 0.0192(7) 0.9335(6)
H29_4 H 0.3537 0.0379 0.9599
C34_4 C 0.2763(7) 0.0231(7) 0.8838(6)
H30_4 H 0.3076 0.0442 0.8780
C38_4 C 0.1691(6) 0.0025(7) 0.7868(5)
H34_4 H 0.1372 0.0535 0.7714
C30_4 C 0.1936(6) 0.9779(8) 0.0126(4)
H26_4 H 0.1936 0.9186 0.0172
H27_4 H 0.2997 0.9201 0.0078
C2_4 C 0.2744(7) 0.9395(7) 0.7895(5)
H2_4 H 0.2741 0.8830 0.7988
C3_4 C 0.3196(7) 0.9707(9) 0.7827(5)
H3_4 H 0.3573 0.9404 0.7860
C31_4 C 0.2900(6) 0.9805(7) 0.9977(5)
C32_4 C 0.2604(7) 0.9873(6) 0.9459(5)
C35_4 C 0.2018(6) 0.9967(7) 0.8403(6)
C36_4 C 0.1594(7) 0.9637(8) 0.8541(6)
H31_4 H 0.1109 0.9433 0.8274
C37_4 C 0.1832(7) 0.9598(7) 0.9014(5)
H32_4 H 0.1509 0.9394 0.9065
H33_4 H 0.1372 0.9523 0.7683
Eu6 Eu 0.45499(3) 0.24215(3) 0.08695(2)
O24 O 0.4127(4) 0.2332(4) 0.0005(3)
O27 O 0.3228(4) 0.2371(4) 0.0049(3)
Eu2 Eu 0.02036(3) 0.26500(4) 0.64573(2)
O4 O 0.0195(4) 0.1078(5) 0.6552(4)
O20 O 0.0283(4) 0.4029(5) 0.6830(3)
O22 O 0.0643(8) 0.8525(6) 0.7001(6)
O23 O 0.1069(9) 0.8381(7) 0.6605(6)
C72 C 0.0113(6) 0.5402(7) 0.6466(5)
C73 C 0.0215(9) 0.5831(10) 0.6874(6)
H51 H 0.0174 0.5532 0.7092
C74 C 0.0379(8) 0.6714(9) 0.6942(6)
H52 H 0.0403 0.7002 0.7192
C75 C 0.0507(7) 0.7183(8) 0.6662(5)
C76 C 0.0386(7) 0.6710(10) 0.6276(5)
H53 H 0.0427 0.7004 0.6056
C77 C 0.0207(8) 0.5828(9) 0.6175(5)
H54 H 0.0157 0.5552 0.5912
C78 C 0.0715(8) 0.8070(10) 0.6747(7)
Eu5 Eu 0.45499(3) 0.25785(3) 0.58695(2)
O41 O 0.3826(4) 0.3349(4) 0.6080(3)
O43 O 0.3807(4) 0.1960(4) 0.6080(3)
O45 O 0.1148(4) 0.3395(4) 0.6434(3)
O46 O 0.0964(4) 0.2033(4) 0.6257(3)
O47 O 0.0520(4) 0.2421(5) 0.7319(3)
O49 O 0.1472(3) 0.2499(4) 0.7319(3)
C79 C 0.3430(5) 0.2344(5) 0.9777(4)
C80 C 0.2865(6) 0.2373(6) 0.9223(4)
C81 C 0.2077(6) 0.2312(6) 0.8959(5)
H55 H 0.1909 0.2262 0.9142
C82 C 0.3098(6) 0.2479(5) 0.8937(5)
H56 H 0.3611 0.2535 0.9106
C99 C 0.3604(6) 0.2673(7) 0.6130(4)
C100 C 0.3025(5) 0.2708(6) 0.6190(4)
C101 C 0.2796(5) 0.3460(6) 0.6275(4)
H65 H 0.3012 0.3984 0.6296
C102 C 0.2280(6) 0.3455(6) 0.6329(4)
H66 H 0.2148 0.3981 0.6385
C103 C 0.1927(5) 0.2718(6) 0.6308(4)
C104 C 0.2139(5) 0.1944(6) 0.6227(4)
H67 H 0.1912 0.1431 0.6206
C105 C 0.2687(6) 0.1929(6) 0.6177(4)
H68 H 0.2836 0.1402 0.6136
C106 C 0.1300(5) 0.2739(7) 0.6334(4)
C107 C 0.1219(6) 0.2450(6) 0.7550(4)
C108 C 0.1795(6) 0.2407(6) 0.8139(5)
C109 C 0.1555(6) 0.2327(6) 0.8414(5)
H69 H 0.1040 0.2283 0.8238
C110 C 0.2560(6) 0.2502(6) 0.8391(5)
H70 H 0.2718 0.2580 0.8203
O1 O 0.4127(4) 0.2668(4) 0.5005(3)
O2 O 0.5520(4) 0.2532(5) 0.6812(3)
O3 O 0.3228(4) 0.2629(4) 0.5049(3)
O5 O 0.4485(4) 0.1125(4) 0.5692(3)
O6 O 0.9292(4) 0.2332(4) 0.5526(3)
O8 O 0.4852(4) 0.4019(4) 0.5903(3)
O9 O 0.5043(5) 0.5405(4) 0.6092(3)
O10 O 0.5699(4) 0.2353(5) 0.6037(3)
O11 O 0.6697(5) 0.2320(6) 0.6871(4)
O12 O 0.9032(4) 0.2479(6) 0.6258(3)
O13 O 0.8025(4) 0.2549(6) 0.5412(4)
O18 O 0.0520(4) 0.2579(5) 0.2319(3)
O19 O 0.1472(3) 0.2501(4) 0.2319(3)
O21 O 0.9671(4) 0.4098(5) 0.6004(3)
C39 C 0.3430(5) 0.2656(5) 0.4777(4)
C40 C 0.2865(6) 0.2627(6) 0.4223(4)
C41 C 0.2077(6) 0.2688(6) 0.3959(5)
H35 H 0.1909 0.2738 0.4142
C42 C 0.3098(6) 0.2521(5) 0.3937(5)
H36 H 0.3611 0.2465 0.4106
C43 C 0.4756(6) 0.0377(7) 0.5732(6)
C44 C 0.4861(7) 0.0178(7) 0.5339(5)
C46 C 0.4901(7) 0.0830(7) 0.5075(5)
H38 H 0.4839 0.1404 0.5122
C47 C 0.4986(6) 0.4773(7) 0.5846(5)
C48 C 0.5004(5) 0.4906(5) 0.5413(4)
C49 C 0.4867(5) 0.5704(7) 0.5192(4)
H39 H 0.4793 0.6177 0.5324
C50 C 0.5163(5) 0.4186(6) 0.5223(4)
H40 H 0.5286 0.3648 0.5382
C51 C 0.6401(6) 0.2342(7) 0.6400(5)
C52 C 0.6904(6) 0.2369(7) 0.6262(5)
C53 C 0.7695(5) 0.2370(8) 0.6651(5)
H41 H 0.7913 0.2360 0.6996
C54 C 0.8147(6) 0.2384(8) 0.6524(5)
H42 H 0.8670 0.2358 0.6784
C55 C 0.7836(6) 0.2437(7) 0.6018(5)
C56 C 0.7024(5) 0.2446(6) 0.5621(5)
H43 H 0.6809 0.2470 0.5276
C57 C 0.6570(6) 0.2419(6) 0.5739(5)
H44 H 0.6046 0.2433 0.5480
C58 C 0.8344(7) 0.2492(8) 0.5898(6)
C67 C 0.1219(6) 0.2550(6) 0.2550(4)
C68 C 0.1795(6) 0.2593(6) 0.3139(5)
C69 C 0.1555(6) 0.2673(6) 0.3414(5)
H49 H 0.1040 0.2717 0.3238
C70 C 0.2560(6) 0.2498(6) 0.3391(5)
H50 H 0.2718 0.2420 0.3203
C71 C 0.9991(7) 0.4423(8) 0.6433(6)
Eu4 Eu 0.54501(3) 0.74215(3) 0.41305(2)
Eu8 Eu 0.02036(3) 0.23500(4) 0.14573(2)
O32 O 0.5129(5) 0.0193(5) 0.3983(3)
O33 O 0.5148(4) 0.5981(4) 0.4097(3)
O35 O 0.4957(5) 0.4595(4) 0.3908(3)
C85 C 0.5032(7) 0.0635(7) 0.4747(5)
H57 H 0.5048 0.1087 0.4573
C87 C 0.5014(6) 0.5227(7) 0.4154(5)
C88 C 0.4996(5) 0.5094(5) 0.4587(4)
C89 C 0.5133(5) 0.4296(7) 0.4808(4)
H59 H 0.5207 0.3823 0.4676
C90 C 0.4837(5) 0.5814(6) 0.4777(4)
H60 H 0.4714 0.6352 0.4618
O7 O 0.4871(5) 0.9807(5) 0.6017(3)
C45 C 0.4968(7) 0.9365(7) 0.5253(5)
H37 H 0.4952 0.8913 0.5427
O25 O 0.5873(4) 0.7332(4) 0.4995(3)
O26 O 0.4480(4) 0.7468(5) 0.3188(3)
O28 O 0.6772(4) 0.7371(4) 0.4951(3)
O30 O 0.5515(4) 0.8875(4) 0.4308(3)
O36 O 0.4301(4) 0.7647(5) 0.3963(3)
O37 O 0.3303(5) 0.7680(6) 0.3129(4)
O38 O 0.0968(4) 0.7521(6) 0.3742(3)
O40 O 0.1975(4) 0.7451(6) 0.4588(4)
O42 O 0.6174(4) 0.6651(4) 0.3920(3)
O44 O 0.6193(4) 0.8040(4) 0.3920(3)
C83 C 0.5244(6) 0.9623(7) 0.4268(6)
C84 C 0.5139(7) 0.9822(7) 0.4661(5)
C86 C 0.5099(7) 0.9170(7) 0.4925(5)
H58 H 0.5161 0.8596 0.4878
C91 C 0.3599(6) 0.7658(7) 0.3600(5)
C92 C 0.3096(6) 0.7631(7) 0.3738(5)
C93 C 0.2305(5) 0.7630(8) 0.3349(5)
H61 H 0.2087 0.7640 0.3004
C94 C 0.1853(6) 0.7616(8) 0.3476(5)
H62 H 0.1330 0.7642 0.3216
C95 C 0.2164(6) 0.7563(7) 0.3982(5)
C96 C 0.2976(5) 0.7554(6) 0.4379(5)
H63 H 0.3191 0.7530 0.4724
C97 C 0.3430(6) 0.7581(6) 0.4261(5)
H64 H 0.3954 0.7567 0.4520
C98 C 0.1656(7) 0.7508(8) 0.4102(6)
H86 H 0.977998 0.092053 0.655198
Eu9 Eu 0.97964(3) 0.73500(4) 0.35427(2)
O31 O 0.0708(4) 0.7332(4) 0.9474(3)
O39 O 0.0968(4) 0.7479(6) 0.8742(3)
O52 O 0.0329(4) 0.9098(5) 0.8996(3)
C111 C 0.0009(7) 0.9423(8) 0.8567(6)
H86_2 H 0.0220017 0.592053 0.844802
O33_2 O 0.4852(4) 0.0981(4) 0.0903(3)
C87_2 C 0.4986(6) 0.0227(7) 0.0846(5)
C88_2 C 0.5004(5) 0.0094(5) 0.0413(4)
C90_2 C 0.5163(5) 0.0814(6) 0.0223(4)
H60_2 H 0.5286 0.1352 0.0382
O9_2 O 0.4957(5) 0.0405(4) 0.8908(3)
C49_2 C 0.5133(5) 0.0704(7) 0.9808(4)
H39_2 H 0.5207 0.1177 0.9676
O53 O 0.9357(8) 0.3525(6) 0.7999(6)
O54 O 0.8931(9) 0.3381(7) 0.8395(6)
C112 C 0.9887(6) 0.0402(7) 0.8534(5)
C113 C 0.9785(9) 0.0831(10) 0.8126(6)
H71 H 0.9826 0.0532 0.7908
C114 C 0.9621(8) 0.1714(9) 0.8058(6)
H72 H 0.9597 0.2002 0.7808
C115 C 0.9493(7) 0.2183(8) 0.8338(5)
C116 C 0.9614(7) 0.1710(10) 0.8724(5)
H73 H 0.9573 0.2004 0.8944
C117 C 0.9793(8) 0.0828(9) 0.8825(5)
H74 H 0.9843 0.0552 0.9088
C118 C 0.9285(8) 0.3070(10) 0.8253(7)
O18_2 O 0.9480(4) 0.7579(5) 0.2681(3)
O19_2 O 0.8528(3) 0.7501(4) 0.2681(3)
C39_2 C 0.6570(5) 0.7656(5) 0.0223(4)
C40_2 C 0.7135(6) 0.7627(6) 0.0777(4)
C41_2 C 0.7923(6) 0.7688(6) 0.1041(5)
H35_2 H 0.8091 0.7738 0.0858
C42_2 C 0.6902(6) 0.7521(5) 0.1063(5)
H36_2 H 0.6389 0.7465 0.0894
C67_2 C 0.8781(6) 0.7550(6) 0.2450(4)
C68_2 C 0.8205(6) 0.7593(6) 0.1861(5)
C69_2 C 0.8445(6) 0.7673(6) 0.1586(5)
H49_2 H 0.8960 0.7717 0.1762
C70_2 C 0.7440(6) 0.7498(6) 0.1609(5)
H50_2 H 0.7282 0.7420 0.1797
O26_2 O 0.5520(4) 0.2468(5) 0.1812(3)
O30_2 O 0.4485(4) 0.3875(4) 0.0692(3)
O32_2 O 0.4871(5) 0.5193(5) 0.1017(3)
O35_2 O 0.5043(5) 0.9595(4) 0.1092(3)
O36_2 O 0.5699(4) 0.2647(5) 0.1037(3)
O37_2 O 0.6697(5) 0.2680(6) 0.1871(4)
O38_2 O 0.9032(4) 0.2521(6) 0.1258(3)
O40_2 O 0.8025(4) 0.2451(6) 0.0412(4)
O42_2 O 0.3826(4) 0.1651(4) 0.1080(3)
O44_2 O 0.3807(4) 0.3040(4) 0.1080(3)
C83_2 C 0.4756(6) 0.4623(7) 0.0732(6)
C84_2 C 0.4861(7) 0.4822(7) 0.0339(5)
C85_2 C 0.4968(7) 0.5635(7) 0.0253(5)
H57_2 H 0.4952 0.6087 0.0427
C86_2 C 0.4901(7) 0.4170(7) 0.0075(5)
H58_2 H 0.4839 0.3596 0.0122
C89_2 C 0.4867(5) 0.9296(7) 0.0192(4)
H59_2 H 0.4793 0.8823 0.0324
C91_2 C 0.6401(6) 0.2658(7) 0.1400(5)
C92_2 C 0.6904(6) 0.2631(7) 0.1262(5)
C93_2 C 0.7695(5) 0.2630(8) 0.1651(5)
H61_2 H 0.7913 0.2640 0.1996
C94_2 C 0.8147(6) 0.2616(8) 0.1524(5)
H62_2 H 0.8670 0.2642 0.1784
C95_2 C 0.7836(6) 0.2563(7) 0.1018(5)
C96_2 C 0.7024(5) 0.2554(6) 0.0621(5)
H63_2 H 0.6809 0.2530 0.0276
C97_2 C 0.6570(6) 0.2581(6) 0.0739(5)
H64_2 H 0.6046 0.2567 0.0480
C98_2 C 0.8344(7) 0.2508(8) 0.0898(6)
Eu1 Eu 0.54501(3) 0.75785(3) 0.91305(2)
O1_2 O 0.5873(4) 0.7668(4) 0.9995(3)
O2_2 O 0.4480(4) 0.7532(5) 0.8188(3)
O3_2 O 0.6772(4) 0.7629(4) 0.9951(3)
O5_2 O 0.5515(4) 0.6125(4) 0.9308(3)
O7_2 O 0.5129(5) 0.4807(5) 0.8983(3)
O8_2 O 0.5148(4) 0.9019(4) 0.9097(3)
O10_2 O 0.4301(4) 0.7353(5) 0.8963(3)
O11_2 O 0.3303(5) 0.7320(6) 0.8129(4)
O13_2 O 0.1975(4) 0.7549(6) 0.9588(4)
O14 O 0.6174(4) 0.8349(4) 0.8920(3)
O15 O 0.6193(4) 0.6960(4) 0.8920(3)
O16 O 0.8852(4) 0.8395(4) 0.8566(3)
O17 O 0.9036(4) 0.7033(4) 0.8743(3)
C43_2 C 0.5244(6) 0.5377(7) 0.9268(6)
C44_2 C 0.5139(7) 0.5178(7) 0.9661(5)
C45_2 C 0.5032(7) 0.4365(7) 0.9747(5)
H37_2 H 0.5048 0.3913 0.9573
C46_2 C 0.5099(7) 0.5830(7) 0.9925(5)
H38_2 H 0.5161 0.6404 0.9878
C47_2 C 0.5014(6) 0.9773(7) 0.9154(5)
C48_2 C 0.4996(5) 0.9906(5) 0.9587(4)
C50_2 C 0.4837(5) 0.9186(6) 0.9777(4)
H40_2 H 0.4714 0.8648 0.9618
C51_2 C 0.3599(6) 0.7342(7) 0.8600(5)
C52_2 C 0.3096(6) 0.7369(7) 0.8738(5)
C53_2 C 0.2305(5) 0.7370(8) 0.8349(5)
H41_2 H 0.2087 0.7360 0.8004
C54_2 C 0.1853(6) 0.7384(8) 0.8476(5)
H42_2 H 0.1330 0.7358 0.8216
C55_2 C 0.2164(6) 0.7437(7) 0.8982(5)
C56_2 C 0.2976(5) 0.7446(6) 0.9379(5)
H43_2 H 0.3191 0.7470 0.9724
C57_2 C 0.3430(6) 0.7419(6) 0.9261(5)
H44_2 H 0.3954 0.7433 0.9520
C58_2 C 0.1656(7) 0.7492(8) 0.9102(6)
C59 C 0.6396(6) 0.7673(7) 0.8870(4)
C60 C 0.6975(5) 0.7708(6) 0.8810(4)
C61 C 0.7204(5) 0.8460(6) 0.8725(4)
H45 H 0.6988 0.8984 0.8704
C62 C 0.7720(6) 0.8455(6) 0.8671(4)
H46 H 0.7852 0.8981 0.8615
C63 C 0.8073(5) 0.7718(6) 0.8692(4)
C64 C 0.7861(5) 0.6944(6) 0.8773(4)
H47 H 0.8088 0.6431 0.8794
C65 C 0.7313(6) 0.6929(6) 0.8823(4)
H48 H 0.7164 0.6402 0.8864
C66 C 0.8700(5) 0.7739(7) 0.8666(4)
Eu7 Eu 0.97964(3) 0.76500(4) 0.85427(2)
O29 O 0.9805(4) 0.6078(5) 0.8448(4)
O48 O 0.9480(4) 0.7421(5) 0.7681(3)
O50 O 0.8528(3) 0.7499(4) 0.7681(3)
O51 O 0.9717(4) 0.9029(5) 0.8170(3)
C79_2 C 0.6570(5) 0.7344(5) 0.5223(4)
C80_2 C 0.7135(6) 0.7373(6) 0.5777(4)
C81_2 C 0.7923(6) 0.7312(6) 0.6041(5)
H55_2 H 0.8091 0.7262 0.5858
C82_2 C 0.6902(6) 0.7479(5) 0.6063(5)
H56_2 H 0.6389 0.7535 0.5894
C107_2 C 0.8781(6) 0.7450(6) 0.7450(4)
C108_2 C 0.8205(6) 0.7407(6) 0.6861(5)
C109_2 C 0.8445(6) 0.7327(6) 0.6586(5)
H69_2 H 0.8960 0.7283 0.6762
C110_2 C 0.7440(6) 0.7502(6) 0.6609(5)
H70_2 H 0.7282 0.7580 0.6797
O31_2 O 0.0708(4) 0.7668(4) 0.4474(3)
O52_2 O 0.0329(4) 0.5902(5) 0.3996(3)
C111_2 C 0.0009(7) 0.5577(8) 0.3567(6)
H86_3 H 0.0220017 0.907947 0.344802
O16_2 O 0.8852(4) 0.6605(4) 0.3566(3)
O17_2 O 0.9036(4) 0.7967(4) 0.3743(3)
C59_2 C 0.6396(6) 0.7327(7) 0.3870(4)
C60_2 C 0.6975(5) 0.7292(6) 0.3810(4)
C61_2 C 0.7204(5) 0.6540(6) 0.3725(4)
H45_2 H 0.6988 0.6016 0.3704
C62_2 C 0.7720(6) 0.6545(6) 0.3671(4)
H46_2 H 0.7852 0.6019 0.3615
C63_2 C 0.8073(5) 0.7282(6) 0.3692(4)
C64_2 C 0.7861(5) 0.8056(6) 0.3773(4)
H47_2 H 0.8088 0.8569 0.3794
C65_2 C 0.7313(6) 0.8071(6) 0.3823(4)
H48_2 H 0.7164 0.8598 0.3864
C66_2 C 0.8700(5) 0.7261(7) 0.3666(4)
O29_2 O 0.9805(4) 0.8922(5) 0.3448(4)
O51_2 O 0.9717(4) 0.5971(5) 0.3170(3)
O53_2 O 0.9357(8) 0.1475(6) 0.2999(6)
O54_2 O 0.8931(9) 0.1619(7) 0.3395(6)
C112_2 C 0.9887(6) 0.4598(7) 0.3534(5)
C113_2 C 0.9785(9) 0.4169(10) 0.3126(6)
H71_2 H 0.9826 0.4468 0.2908
C114_2 C 0.9621(8) 0.3286(9) 0.3058(6)
H72_2 H 0.9597 0.2998 0.2808
C115_2 C 0.9493(7) 0.2817(8) 0.3338(5)
C116_2 C 0.9614(7) 0.3290(10) 0.3724(5)
H73_2 H 0.9573 0.2996 0.3944
C117_2 C 0.9793(8) 0.4172(9) 0.3825(5)
H74_2 H 0.9843 0.4448 0.4088
C118_2 C 0.9285(8) 0.1930(10) 0.3253(7)
O4_2 O 0.0195(4) 0.3922(5) 0.1552(4)
O20_2 O 0.0283(4) 0.0971(5) 0.1830(3)
O45_2 O 0.1148(4) 0.1605(4) 0.1434(3)
O46_2 O 0.0964(4) 0.2967(4) 0.1257(3)
C99_2 C 0.3604(6) 0.2327(7) 0.1130(4)
C100_2 C 0.3025(5) 0.2292(6) 0.1190(4)
C101_2 C 0.2796(5) 0.1540(6) 0.1275(4)
H65_2 H 0.3012 0.1016 0.1296
C102_2 C 0.2280(6) 0.1545(6) 0.1329(4)
H66_2 H 0.2148 0.1019 0.1385
C103_2 C 0.1927(5) 0.2282(6) 0.1308(4)
C104_2 C 0.2139(5) 0.3056(6) 0.1227(4)
H67_2 H 0.1912 0.3569 0.1206
C105_2 C 0.2687(6) 0.3071(6) 0.1177(4)
H68_2 H 0.2836 0.3598 0.1136
C106_2 C 0.1300(5) 0.2261(7) 0.1334(4)
O22_2 O 0.0643(8) 0.6475(6) 0.2001(6)
O23_2 O 0.1069(9) 0.6619(7) 0.1605(6)
C72_2 C 0.0113(6) 0.9598(7) 0.1466(5)
C73_2 C 0.0215(9) 0.9169(10) 0.1874(6)
H51_2 H 0.0174 0.9468 0.2092
C74_2 C 0.0379(8) 0.8286(9) 0.1942(6)
H52_2 H 0.0403 0.7998 0.2192
C75_2 C 0.0507(7) 0.7817(8) 0.1662(5)
C76_2 C 0.0386(7) 0.8290(10) 0.1276(5)
H53_2 H 0.0427 0.7996 0.1056
C77_2 C 0.0207(8) 0.9172(9) 0.1175(5)
H54_2 H 0.0157 0.9448 0.0912
C78_2 C 0.0715(8) 0.6930(10) 0.1747(7)
O6_2 O 0.9292(4) 0.2668(4) 0.0526(3)
O21_2 O 0.9671(4) 0.0902(5) 0.1004(3)
C71_2 C 0.9991(7) 0.0577(8) 0.1433(6)
H86_4 H 0.977998 0.407947 0.155198
loop_
_geom_bond_atom_site_label_1
_geom_bond_atom_site_label_2
_geom_bond_site_symmetry_1
_geom_bond_site_symmetry_2
N1 C1 1_555 1_555
N2 C1 1_555 1_555
N3 C4 1_555 1_555
N4 C8 1_555 1_555
N5 C9 1_555 1_555
N6 C19 1_555 1_555
N7 C20 1_555 1_555
N8 C23 1_555 1_555
N9 C27 1_555 1_555
N10 C28 1_555 1_555
C1 H1 1_555 1_555
C2 N1 1_555 1_555
H2 C2 1_555 1_555
C3 N2 1_555 1_555
H3 C3 1_555 1_555
C4 N2 1_555 1_555
C5 C4 1_555 1_555
H4 C5 1_555 1_555
C6 C5 1_555 1_555
H5 C6 1_555 1_555
C7 C6 1_555 1_555
H6 C7 1_555 1_555
C8 N3 1_555 1_555
C9 N4 1_555 1_555
H7 C9 1_555 1_555
C10 N4 1_555 1_555
H8 C10 1_555 1_555
C11 N5 1_555 1_555
C12 N5 1_555 1_555
H11 C12 1_555 1_555
C13 C12 1_555 1_555
C17 C16 1_555 1_555
H14 C17 1_555 1_555
C18 C13 1_555 1_555
H15 C18 1_555 1_555
C19 C16 1_555 1_555
H17 C19 1_555 1_555
C20 N6 1_555 1_555
H18 C20 1_555 1_555
C22 N7 1_555 1_555
H20 C22 1_555 1_555
C23 N7 1_555 1_555
C24 C23 1_555 1_555
H21 C24 1_555 1_555
C25 C24 1_555 1_555
H22 C25 1_555 1_555
C26 C25 1_555 1_555
H23 C26 1_555 1_555
C27 N8 1_555 1_555
C28 N9 1_555 1_555
H24 C28 1_555 1_555
C29 N9 1_555 1_555
H25 C29 1_555 1_555
C30 N10 1_555 1_555
H26 C30 1_555 1_555
C31 N10 1_555 1_555
H27 C31 1_555 1_555
H28 C31 1_555 1_555
C32 C31 1_555 1_555
C33 C32 1_555 1_555
H29 C33 1_555 1_555
C34 C33 1_555 1_555
H30 C34 1_555 1_555
C35 C34 1_555 1_555
C36 C35 1_555 1_555
H31 C36 1_555 1_555
C37 C32 1_555 1_555
H32 C37 1_555 1_555
C38 N1 1_555 1_555
H33 C38 1_555 1_555
H34 C38 1_555 1_555
C2 C3 1_555 1_555
C7 C8 1_555 1_555
C10 C11 1_555 1_555
C17 C18 1_555 1_555
C26 C27 1_555 1_555
C29 C30 1_555 1_555
C35 C38 1_555 1_555
C36 C37 1_555 1_555
H12 C14 1_555 1_555
C15 C14 1_555 1_555
H13 C15 1_555 1_555
H19 C21 1_555 1_555
H2_2 C2_2 1_555 1_555
H3_2 C3_2 1_555 1_555
C32_2 C31_2 1_555 1_555
C36_2 C35_2 1_555 1_555
H31_2 C36_2 1_555 1_555
C37_2 C32_2 1_555 1_555
H32_2 C37_2 1_555 1_555
C2_2 C3_2 1_555 1_555
C36_2 C37_2 1_555 1_555
H26_2 C30_2 1_555 1_555
N1_2 C1_2 1_555 1_555
N2_2 C1_2 1_555 1_555
N3_2 C4_2 1_555 1_555
N4_2 C8_2 1_555 1_555
N5_2 C9_2 1_555 1_555
N6_2 C19_2 1_555 1_555
N7_2 C20_2 1_555 1_555
N8_2 C23_2 1_555 1_555
C1_2 H1_2 1_555 1_555
C4_2 N2_2 1_555 1_555
C5_2 C4_2 1_555 1_555
H4_2 C5_2 1_555 1_555
C6_2 C5_2 1_555 1_555
H5_2 C6_2 1_555 1_555
C7_2 C6_2 1_555 1_555
H6_2 C7_2 1_555 1_555
C8_2 N3_2 1_555 1_555
C9_2 N4_2 1_555 1_555
H7_2 C9_2 1_555 1_555
C10_2 N4_2 1_555 1_555
H8_2 C10_2 1_555 1_555
C11_2 N5_2 1_555 1_555
H9_2 C11_2 1_555 1_555
C12_2 N5_2 1_555 1_555
H10_2 C12_2 1_555 1_555
H11_2 C12_2 1_555 1_555
C13_2 C12_2 1_555 1_555
C14_2 C13_2 1_555 1_555
H12_2 C14_2 1_555 1_555
C15_2 C14_2 1_555 1_555
H13_2 C15_2 1_555 1_555
C16_2 C15_2 1_555 1_555
C17_2 C16_2 1_555 1_555
H14_2 C17_2 1_555 1_555
C18_2 C13_2 1_555 1_555
H15_2 C18_2 1_555 1_555
C19_2 C16_2 1_555 1_555
H16_2 C19_2 1_555 1_555
H17_2 C19_2 1_555 1_555
C20_2 N6_2 1_555 1_555
H18_2 C20_2 1_555 1_555
C21_2 N6_2 1_555 1_555
H19_2 C21_2 1_555 1_555
C22_2 N7_2 1_555 1_555
H20_2 C22_2 1_555 1_555
C23_2 N7_2 1_555 1_555
C24_2 C23_2 1_555 1_555
H21_2 C24_2 1_555 1_555
C25_2 C24_2 1_555 1_555
H22_2 C25_2 1_555 1_555
C27_2 N8_2 1_555 1_555
H24_2 C28_2 1_555 1_555
H29_2 C33_2 1_555 1_555
C34_2 C33_2 1_555 1_555
H30_2 C34_2 1_555 1_555
C38_2 N1_2 1_555 1_555
H34_2 C38_2 1_555 1_555
C7_2 C8_2 1_555 1_555
C10_2 C11_2 1_555 1_555
C17_2 C18_2 1_555 1_555
C21_2 C22_2 1_555 1_555
H23_2 C26_2 1_555 1_555
C29_2 N9_2 1_555 1_555
H25_2 C29_2 1_555 1_555
H12_3 C14_3 1_555 1_555
C15_3 C14_3 1_555 1_555
H13_3 C15_3 1_555 1_555
H19_3 C21_3 1_555 1_555
N1_3 C1_3 1_555 1_555
N2_3 C1_3 1_555 1_555
N3_3 C4_3 1_555 1_555
N4_3 C8_3 1_555 1_555
N5_3 C9_3 1_555 1_555
N6_3 C19_3 1_555 1_555
N7_3 C20_3 1_555 1_555
N8_3 C23_3 1_555 1_555
N9_3 C27_3 1_555 1_555
N10_3 C28_3 1_555 1_555
C1_3 H1_3 1_555 1_555
C2_3 N1_3 1_555 1_555
H2_3 C2_3 1_555 1_555
C3_3 N2_3 1_555 1_555
H3_3 C3_3 1_555 1_555
C4_3 N2_3 1_555 1_555
C5_3 C4_3 1_555 1_555
H4_3 C5_3 1_555 1_555
C6_3 C5_3 1_555 1_555
H5_3 C6_3 1_555 1_555
C7_3 C6_3 1_555 1_555
H6_3 C7_3 1_555 1_555
C8_3 N3_3 1_555 1_555
C9_3 N4_3 1_555 1_555
H7_3 C9_3 1_555 1_555
C10_3 N4_3 1_555 1_555
H8_3 C10_3 1_555 1_555
C11_3 N5_3 1_555 1_555
C12_3 N5_3 1_555 1_555
H11_3 C12_3 1_555 1_555
C13_3 C12_3 1_555 1_555
C17_3 C16_3 1_555 1_555
H14_3 C17_3 1_555 1_555
C18_3 C13_3 1_555 1_555
H15_3 C18_3 1_555 1_555
C19_3 C16_3 1_555 1_555
H17_3 C19_3 1_555 1_555
C20_3 N6_3 1_555 1_555
H18_3 C20_3 1_555 1_555
C22_3 N7_3 1_555 1_555
H20_3 C22_3 1_555 1_555
C23_3 N7_3 1_555 1_555
C24_3 C23_3 1_555 1_555
H21_3 C24_3 1_555 1_555
C25_3 C24_3 1_555 1_555
H22_3 C25_3 1_555 1_555
C26_3 C25_3 1_555 1_555
H23_3 C26_3 1_555 1_555
C27_3 N8_3 1_555 1_555
C28_3 N9_3 1_555 1_555
H24_3 C28_3 1_555 1_555
C29_3 N9_3 1_555 1_555
H25_3 C29_3 1_555 1_555
C30_3 N10_3 1_555 1_555
H26_3 C30_3 1_555 1_555
C31_3 N10_3 1_555 1_555
H27_3 C31_3 1_555 1_555
H28_3 C31_3 1_555 1_555
C32_3 C31_3 1_555 1_555
C33_3 C32_3 1_555 1_555
H29_3 C33_3 1_555 1_555
C34_3 C33_3 1_555 1_555
H30_3 C34_3 1_555 1_555
C35_3 C34_3 1_555 1_555
C36_3 C35_3 1_555 1_555
H31_3 C36_3 1_555 1_555
C37_3 C32_3 1_555 1_555
H32_3 C37_3 1_555 1_555
C38_3 N1_3 1_555 1_555
H33_3 C38_3 1_555 1_555
H34_3 C38_3 1_555 1_555
C2_3 C3_3 1_555 1_555
C7_3 C8_3 1_555 1_555
C10_3 C11_3 1_555 1_555
C17_3 C18_3 1_555 1_555
C26_3 C27_3 1_555 1_555
C29_3 C30_3 1_555 1_555
C35_3 C38_3 1_555 1_555
C36_3 C37_3 1_555 1_555
H23_4 C26_4 1_555 1_555
C29_4 N9_4 1_555 1_555
H25_4 C29_4 1_555 1_555
N1_4 C1_4 1_555 1_555
N2_4 C1_4 1_555 1_555
N3_4 C4_4 1_555 1_555
N4_4 C8_4 1_555 1_555
N5_4 C9_4 1_555 1_555
N6_4 C19_4 1_555 1_555
N7_4 C20_4 1_555 1_555
N8_4 C23_4 1_555 1_555
C1_4 H1_4 1_555 1_555
C4_4 N2_4 1_555 1_555
C5_4 C4_4 1_555 1_555
H4_4 C5_4 1_555 1_555
C6_4 C5_4 1_555 1_555
H5_4 C6_4 1_555 1_555
C7_4 C6_4 1_555 1_555
H6_4 C7_4 1_555 1_555
C8_4 N3_4 1_555 1_555
C9_4 N4_4 1_555 1_555
H7_4 C9_4 1_555 1_555
C10_4 N4_4 1_555 1_555
H8_4 C10_4 1_555 1_555
C11_4 N5_4 1_555 1_555
H9_4 C11_4 1_555 1_555
C12_4 N5_4 1_555 1_555
H10_4 C12_4 1_555 1_555
H11_4 C12_4 1_555 1_555
C13_4 C12_4 1_555 1_555
C14_4 C13_4 1_555 1_555
H12_4 C14_4 1_555 1_555
C15_4 C14_4 1_555 1_555
H13_4 C15_4 1_555 1_555
C16_4 C15_4 1_555 1_555
C17_4 C16_4 1_555 1_555
H14_4 C17_4 1_555 1_555
C18_4 C13_4 1_555 1_555
H15_4 C18_4 1_555 1_555
C19_4 C16_4 1_555 1_555
H16_4 C19_4 1_555 1_555
H17_4 C19_4 1_555 1_555
C20_4 N6_4 1_555 1_555
H18_4 C20_4 1_555 1_555
C21_4 N6_4 1_555 1_555
H19_4 C21_4 1_555 1_555
C22_4 N7_4 1_555 1_555
H20_4 C22_4 1_555 1_555
C23_4 N7_4 1_555 1_555
C24_4 C23_4 1_555 1_555
H21_4 C24_4 1_555 1_555
C25_4 C24_4 1_555 1_555
H22_4 C25_4 1_555 1_555
C27_4 N8_4 1_555 1_555
H24_4 C28_4 1_555 1_555
H29_4 C33_4 1_555 1_555
C34_4 C33_4 1_555 1_555
H30_4 C34_4 1_555 1_555
C38_4 N1_4 1_555 1_555
H34_4 C38_4 1_555 1_555
C7_4 C8_4 1_555 1_555
C10_4 C11_4 1_555 1_555
C17_4 C18_4 1_555 1_555
C21_4 C22_4 1_555 1_555
H26_4 C30_4 1_555 1_555
H2_4 C2_4 1_555 1_555
H3_4 C3_4 1_555 1_555
C32_4 C31_4 1_555 1_555
C36_4 C35_4 1_555 1_555
H31_4 C36_4 1_555 1_555
C37_4 C32_4 1_555 1_555
H32_4 C37_4 1_555 1_555
C2_4 C3_4 1_555 1_555
C36_4 C37_4 1_555 1_555
Eu6 O24 1_555 1_555
O27 Eu6 1_555 1_555
Eu2 O4 1_555 1_555
O20 Eu2 1_555 1_555
O22 C78 1_555 1_555
O23 C78 1_555 1_555
C73 C72 1_555 1_555
H51 C73 1_555 1_555
C74 C73 1_555 1_555
H52 C74 1_555 1_555
C75 C74 1_555 1_555
C76 C75 1_555 1_555
H53 C76 1_555 1_555
C77 C72 1_555 1_555
H54 C77 1_555 1_555
C78 C75 1_555 1_555
Eu5 O41 1_555 1_555
O41 C99 1_555 1_555
O43 Eu5 1_555 1_555
O45 Eu2 1_555 1_555
O46 Eu2 1_555 1_555
O47 Eu2 1_555 1_555
O49 Eu2 1_555 1_555
C80 C79 1_555 1_555
C81 C80 1_555 1_555
H55 C81 1_555 1_555
C82 C80 1_555 1_555
H56 C82 1_555 1_555
C99 O43 1_555 1_555
C100 C99 1_555 1_555
C101 C100 1_555 1_555
H65 C101 1_555 1_555
C102 C101 1_555 1_555
H66 C102 1_555 1_555
C103 C102 1_555 1_555
C104 C103 1_555 1_555
H67 C104 1_555 1_555
C105 C100 1_555 1_555
H68 C105 1_555 1_555
C106 O45 1_555 1_555
C107 O47 1_555 1_555
C108 C107 1_555 1_555
C109 C81 1_555 1_555
H69 C109 1_555 1_555
C110 C82 1_555 1_555
H70 C110 1_555 1_555
C76 C77 1_555 1_555
O46 C106 1_555 1_555
O49 C107 1_555 1_555
C103 C106 1_555 1_555
C104 C105 1_555 1_555
C108 C109 1_555 1_555
C108 C110 1_555 1_555
Eu5 O1 1_555 1_555
O1 C39 1_555 1_555
O2 Eu5 1_555 1_555
O3 Eu5 1_555 1_555
O5 Eu5 1_555 1_555
O8 Eu5 1_555 1_555
O9 C47 1_555 1_555
O10 Eu5 1_555 1_555
O11 C51 1_555 1_555
O13 C58 1_555 1_555
O18 C67 1_555 1_555
O19 C67 1_555 1_555
C39 O3 1_555 1_555
C40 C39 1_555 1_555
C41 C40 1_555 1_555
H35 C41 1_555 1_555
C42 C40 1_555 1_555
H36 C42 1_555 1_555
C43 O5 1_555 1_555
C44 C43 1_555 1_555
C46 C44 1_555 1_555
H38 C46 1_555 1_555
C47 O8 1_555 1_555
C48 C47 1_555 1_555
C49 C48 1_555 1_555
H39 C49 1_555 1_555
C50 C48 1_555 1_555
H40 C50 1_555 1_555
C51 O10 1_555 1_555
C52 C51 1_555 1_555
C53 C52 1_555 1_555
H41 C53 1_555 1_555
C54 C53 1_555 1_555
H42 C54 1_555 1_555
C55 C54 1_555 1_555
C56 C55 1_555 1_555
H43 C56 1_555 1_555
C57 C52 1_555 1_555
H44 C57 1_555 1_555
C58 O12 1_555 1_555
C67 C68 1_555 1_555
C68 C69 1_555 1_555
C69 C41 1_555 1_555
H49 C69 1_555 1_555
C70 C42 1_555 1_555
H50 C70 1_555 1_555
Eu4 O33 1_555 1_555
Eu8 O18 1_555 1_555
O33 C87 1_555 1_555
O35 C87 1_555 1_555
C85 C46 1_555 1_555
H57 C85 1_555 1_555
C87 C88 1_555 1_555
C88 C89 1_555 1_555
C89 C50 1_555 1_555
H59 C89 1_555 1_555
C90 C49 1_555 1_555
H60 C90 1_555 1_555
O19 Eu8 1_555 1_555
O21 C71 1_555 1_555
C55 C58 1_555 1_555
C56 C57 1_555 1_555
C68 C70 1_555 1_555
C88 C90 1_555 1_555
H37 C45 1_555 1_555
Eu4 O25 1_555 1_555
O26 Eu4 1_555 1_555
O28 Eu4 1_555 1_555
O30 Eu4 1_555 1_555
O36 Eu4 1_555 1_555
O37 C91 1_555 1_555
O38 C98 1_555 1_555
O40 C98 1_555 1_555
O42 Eu4 1_555 1_555
O44 Eu4 1_555 1_555
C83 O30 1_555 1_555
C84 C83 1_555 1_555
C86 C45 1_555 1_555
H58 C86 1_555 1_555
C91 O36 1_555 1_555
C92 C91 1_555 1_555
C93 C92 1_555 1_555
H61 C93 1_555 1_555
C94 C93 1_555 1_555
H62 C94 1_555 1_555
C95 C94 1_555 1_555
C96 C95 1_555 1_555
H63 C96 1_555 1_555
C97 C92 1_555 1_555
H64 C97 1_555 1_555
C98 C95 1_555 1_555
C84 C86 1_555 1_555
C96 C97 1_555 1_555
O52 C111 1_555 1_555
Eu6 O33_2 1_555 1_555
O33_2 C87_2 1_555 1_555
C87_2 C88_2 1_555 1_555
H60_2 C90_2 1_555 1_555
C88_2 C90_2 1_555 1_555
H39_2 C49_2 1_555 1_555
O53 C118 1_555 1_555
O54 C118 1_555 1_555
C113 C112 1_555 1_555
H71 C113 1_555 1_555
C114 C113 1_555 1_555
H72 C114 1_555 1_555
C115 C114 1_555 1_555
C116 C115 1_555 1_555
H73 C116 1_555 1_555
C117 C112 1_555 1_555
H74 C117 1_555 1_555
C118 C115 1_555 1_555
C116 C117 1_555 1_555
O18_2 C67_2 1_555 1_555
O19_2 C67_2 1_555 1_555
C40_2 C39_2 1_555 1_555
C41_2 C40_2 1_555 1_555
H35_2 C41_2 1_555 1_555
C42_2 C40_2 1_555 1_555
H36_2 C42_2 1_555 1_555
C67_2 C68_2 1_555 1_555
C68_2 C69_2 1_555 1_555
C69_2 C41_2 1_555 1_555
H49_2 C69_2 1_555 1_555
C70_2 C42_2 1_555 1_555
H50_2 C70_2 1_555 1_555
Eu9 O18_2 1_555 1_555
O26_2 Eu6 1_555 1_555
O30_2 Eu6 1_555 1_555
O32_2 C83_2 1_555 1_555
O36_2 Eu6 1_555 1_555
O37_2 C91_2 1_555 1_555
O38_2 C98_2 1_555 1_555
O40_2 C98_2 1_555 1_555
O42_2 Eu6 1_555 1_555
O44_2 Eu6 1_555 1_555
C83_2 O30_2 1_555 1_555
C84_2 C83_2 1_555 1_555
H57_2 C85_2 1_555 1_555
H58_2 C86_2 1_555 1_555
H59_2 C89_2 1_555 1_555
C91_2 O36_2 1_555 1_555
C92_2 C91_2 1_555 1_555
C93_2 C92_2 1_555 1_555
H61_2 C93_2 1_555 1_555
C94_2 C93_2 1_555 1_555
H62_2 C94_2 1_555 1_555
C95_2 C94_2 1_555 1_555
C96_2 C95_2 1_555 1_555
H63_2 C96_2 1_555 1_555
C97_2 C92_2 1_555 1_555
H64_2 C97_2 1_555 1_555
C98_2 C95_2 1_555 1_555
O19_2 Eu9 1_555 1_555
C68_2 C70_2 1_555 1_555
C84_2 C85_2 1_555 1_555
C84_2 C86_2 1_555 1_555
C96_2 C97_2 1_555 1_555
Eu1 O1_2 1_555 1_555
O2_2 Eu1 1_555 1_555
O3_2 Eu1 1_555 1_555
O5_2 Eu1 1_555 1_555
O7_2 C43_2 1_555 1_555
O8_2 Eu1 1_555 1_555
O10_2 Eu1 1_555 1_555
O11_2 C51_2 1_555 1_555
O13_2 C58_2 1_555 1_555
O14 Eu1 1_555 1_555
O15 Eu1 1_555 1_555
O16 C66 1_555 1_555
O17 C66 1_555 1_555
C43_2 O5_2 1_555 1_555
C44_2 C43_2 1_555 1_555
C45_2 C44_2 1_555 1_555
H37_2 C45_2 1_555 1_555
C46_2 C44_2 1_555 1_555
H38_2 C46_2 1_555 1_555
C47_2 O8_2 1_555 1_555
C48_2 C47_2 1_555 1_555
C50_2 C48_2 1_555 1_555
H40_2 C50_2 1_555 1_555
C51_2 O10_2 1_555 1_555
C52_2 C51_2 1_555 1_555
C53_2 C52_2 1_555 1_555
H41_2 C53_2 1_555 1_555
C54_2 C53_2 1_555 1_555
H42_2 C54_2 1_555 1_555
C55_2 C54_2 1_555 1_555
C56_2 C55_2 1_555 1_555
H43_2 C56_2 1_555 1_555
C57_2 C52_2 1_555 1_555
H44_2 C57_2 1_555 1_555
C58_2 O39 1_555 1_555
C59 O14 1_555 1_555
C60 C59 1_555 1_555
C61 C60 1_555 1_555
H45 C61 1_555 1_555
C62 C61 1_555 1_555
H46 C62 1_555 1_555
C63 C62 1_555 1_555
C64 C63 1_555 1_555
H47 C64 1_555 1_555
C65 C60 1_555 1_555
H48 C65 1_555 1_555
C66 C63 1_555 1_555
Eu7 O16 1_555 1_555
O29 Eu7 1_555 1_555
O48 Eu7 1_555 1_555
O50 Eu7 1_555 1_555
O51 Eu7 1_555 1_555
O15 C59 1_555 1_555
O17 Eu7 1_555 1_555
C55_2 C58_2 1_555 1_555
C56_2 C57_2 1_555 1_555
C64 C65 1_555 1_555
O25 C79_2 1_555 1_555
C79_2 O28 1_555 1_555
C80_2 C79_2 1_555 1_555
C81_2 C80_2 1_555 1_555
H55_2 C81_2 1_555 1_555
C82_2 C80_2 1_555 1_555
H56_2 C82_2 1_555 1_555
C107_2 O48 1_555 1_555
C108_2 C107_2 1_555 1_555
C109_2 C81_2 1_555 1_555
H69_2 C109_2 1_555 1_555
C110_2 C82_2 1_555 1_555
H70_2 C110_2 1_555 1_555
O50 C107_2 1_555 1_555
C108_2 C109_2 1_555 1_555
C108_2 C110_2 1_555 1_555
O52_2 C111_2 1_555 1_555
O16_2 C66_2 1_555 1_555
O17_2 C66_2 1_555 1_555
C59_2 O42 1_555 1_555
C60_2 C59_2 1_555 1_555
C61_2 C60_2 1_555 1_555
H45_2 C61_2 1_555 1_555
C62_2 C61_2 1_555 1_555
H46_2 C62_2 1_555 1_555
C63_2 C62_2 1_555 1_555
C64_2 C63_2 1_555 1_555
H47_2 C64_2 1_555 1_555
C65_2 C60_2 1_555 1_555
H48_2 C65_2 1_555 1_555
C66_2 C63_2 1_555 1_555
Eu9 O16_2 1_555 1_555
O29_2 Eu9 1_555 1_555
O51_2 Eu9 1_555 1_555
O53_2 C118_2 1_555 1_555
O54_2 C118_2 1_555 1_555
C113_2 C112_2 1_555 1_555
H71_2 C113_2 1_555 1_555
C114_2 C113_2 1_555 1_555
H72_2 C114_2 1_555 1_555
C115_2 C114_2 1_555 1_555
C116_2 C115_2 1_555 1_555
H73_2 C116_2 1_555 1_555
C117_2 C112_2 1_555 1_555
H74_2 C117_2 1_555 1_555
C118_2 C115_2 1_555 1_555
O44 C59_2 1_555 1_555
O17_2 Eu9 1_555 1_555
C64_2 C65_2 1_555 1_555
C116_2 C117_2 1_555 1_555
Eu8 O4_2 1_555 1_555
O20_2 Eu8 1_555 1_555
O42_2 C99_2 1_555 1_555
O45_2 Eu8 1_555 1_555
O46_2 Eu8 1_555 1_555
C99_2 O44_2 1_555 1_555
C100_2 C99_2 1_555 1_555
C101_2 C100_2 1_555 1_555
H65_2 C101_2 1_555 1_555
C102_2 C101_2 1_555 1_555
H66_2 C102_2 1_555 1_555
C103_2 C102_2 1_555 1_555
C104_2 C103_2 1_555 1_555
H67_2 C104_2 1_555 1_555
C105_2 C100_2 1_555 1_555
H68_2 C105_2 1_555 1_555
C106_2 O45_2 1_555 1_555
O46_2 C106_2 1_555 1_555
C103_2 C106_2 1_555 1_555
C104_2 C105_2 1_555 1_555
O22_2 C78_2 1_555 1_555
O23_2 C78_2 1_555 1_555
C73_2 C72_2 1_555 1_555
H51_2 C73_2 1_555 1_555
C74_2 C73_2 1_555 1_555
H52_2 C74_2 1_555 1_555
C75_2 C74_2 1_555 1_555
C76_2 C75_2 1_555 1_555
H53_2 C76_2 1_555 1_555
C77_2 C72_2 1_555 1_555
H54_2 C77_2 1_555 1_555
C78_2 C75_2 1_555 1_555
C76_2 C77_2 1_555 1_555
O21_2 C71_2 1_555 1_555

#END
