
###############################################################################
#
# This file contains modified crystal structure data generated from the
# MOF subset of the Cambridge Structural Database (CSD) v543 
# hosted by the Cambridge Crystallographic Data Centre (CCDC).
#
# This work is licensed under the Creative Commons
# Attribution-NonCommercial-ShareAlike 4.0 International License.
# To view a copy of this license, visit
# http://creativecommons.org/licenses/by-nc-sa/4.0/
# or send a letter to
# Creative Commons, PO Box 1866, Mountain View, CA 94042, USA.
#
# CIF created using the CSD Python API on 29 September 2022
# The structure has been converted into the P1 space group
# The structure has a 3D framework
# The original CSD entry ZEDVUB is in the monoclinic crystal system
# The framework has been calculated to contain at least 10.0% void space
# The void calculation uses a probe of radius 1.32A, grid spacing 0.4
# The framework is charged, counterions have been retained in the structure
# H atom positions have been added when not included in the experimental data
# Generated hydrogen atom positions removed from atoms on special positions
#
###############################################################################

data_ZEDVUB
_chemical_formula_moiety         '(C312 H244 N40 O87 Sm8 1+)n'
_symmetry_cell_setting           triclinic
_symmetry_space_group_name_H-M   'P 1'
_symmetry_Int_Tables_number      1
_space_group_name_Hall           'P 1'
loop_
_symmetry_equiv_pos_site_id
_symmetry_equiv_pos_as_xyz
1 x,y,z
_cell_length_a                   24.003(5)
_cell_length_b                   11.365(2)
_cell_length_c                   32.883(7)
_cell_angle_alpha                90
_cell_angle_beta                 97.17(3)
_cell_angle_gamma                90
_cell_volume                     8900.14
loop_
_atom_site_label
_atom_site_type_symbol
_atom_site_fract_x
_atom_site_fract_y
_atom_site_fract_z
O22 O 0.0039(3) 0.5385(6) 0.61141(16)
C40 C 0.0255(3) 0.5750(7) 0.5302(2)
H20 H 0.0429 0.6249 0.5503
Sm10 Sm 0.128450(15) 0.73127(4) 0.398460(11)
O52 O 0.0528(2) 0.6100(5) 0.40697(15)
C44 C 0.0197(3) 0.0440(7) 0.7596(2)
H22 H 0.0562 0.0631 0.7706
H36 H 0.0090 0.1785 0.7190
C77 C 0.0202(3) 0.5303(7) 0.4155(2)
C78 C 0.0104(3) 0.5147(7) 0.4588(2)
C79 C 0.0354(3) 0.5899(7) 0.4895(2)
H39 H 0.0588 0.6503 0.4828
C35 C 0.0073(3) 0.9743(7) 0.5417(2)
H17 H 0.0121 0.9567 0.5695
Sm6 Sm 0.087905(16) 0.74009(4) 0.872725(11)
O26 O 0.0754(2) 0.8967(6) 0.81958(16)
O48 O 0.0551(2) 0.8870(5) 0.40803(15)
O50 O 0.1095(2) 0.8214(5) 0.46198(15)
C41 C 0.0238(3) 0.8725(7) 0.8074(2)
C73 C 0.0680(3) 0.8799(7) 0.4464(2)
C74 C 0.0327(3) 0.9430(7) 0.4738(2)
C76 C 0.0401(3) 0.9182(7) 0.5155(2)
H38 H 0.0670 0.8638 0.5259
Sm2 Sm 0.871550(15) 0.26873(4) 0.601540(11)
O4 O 0.8266(2) 0.4143(5) 0.63945(16)
O8 O 0.4629(2) 0.0314(5) 0.38794(15)
O10 O 0.7146(3) 0.0351(6) 0.37871(18)
O11 O 0.7841(2) 0.1745(6) 0.58657(18)
O12 O 0.7122(2) 0.0670(6) 0.60045(19)
O19 O 0.9449(2) 0.1130(5) 0.59197(15)
O20 O 0.8905(2) 0.1786(5) 0.53802(15)
O21 O 0.9472(2) 0.3900(5) 0.59303(15)
C12 C 0.4684(3) 0.0756(7) 0.4733(2)
H6 H 0.4470 0.1261 0.4554
C14 C 0.7053(3) 0.0106(7) 0.4491(2)
C17 C 0.7309(3) 0.0737(7) 0.5319(3)
C18 C 0.7531(3) 0.1367(7) 0.5017(2)
H9 H 0.7764 0.2005 0.5091
C19 C 0.7412(3) 0.1067(8) 0.4605(3)
H10 H 0.7568 0.1495 0.4406
C20 C 0.7434(3) 0.1080(7) 0.5755(3)
C33 C 0.9320(3) 0.1201(7) 0.5536(2)
C34 C 0.9673(3) 0.0570(7) 0.5262(2)
C36 C 0.9599(3) 0.0818(7) 0.4845(2)
H18 H 0.9330 0.1362 0.4741
C37 C 0.9798(3) 0.4697(7) 0.5845(2)
C38 C 0.9896(3) 0.4853(7) 0.5412(2)
C39 C 0.9646(3) 0.4101(7) 0.5105(2)
H19 H 0.9412 0.3497 0.5172
Sm4 Sm 0.412095(16) 0.24009(4) 0.627275(11)
Sm5 Sm 0.587905(16) 0.75991(4) 0.372725(11)
O31 O 0.4760(2) 0.1173(5) 0.60095(15)
O39 O 0.6737(2) 0.6649(6) 0.37347(16)
O41 O 0.7475(2) 0.5866(6) 0.35076(18)
O42 O 0.8276(2) 0.4013(5) 0.55322(16)
O43 O 0.7810(2) 0.5506(5) 0.57655(16)
O44 O 0.9296(3) 0.2536(5) 0.66897(18)
O46 O 0.8646(2) 0.1194(6) 0.65686(17)
O54 O 0.9961(3) 0.4615(6) 0.38859(16)
C49 C 0.5049(3) 0.0334(7) 0.5884(2)
C50 C 0.5011(3) 0.0145(7) 0.5427(2)
C51 C 0.4694(3) 0.0916(7) 0.5153(2)
H25 H 0.4492 0.1527 0.5253
C61 C 0.7198(3) 0.6147(7) 0.3793(2)
C62 C 0.7436(3) 0.5888(7) 0.4225(2)
C63 C 0.7786(3) 0.4913(8) 0.4318(2)
H31 H 0.7904 0.4470 0.4107
C64 C 0.7961(3) 0.4599(8) 0.4725(2)
H32 H 0.8183 0.3934 0.4783
C65 C 0.7803(3) 0.5283(7) 0.5044(2)
C66 C 0.7477(3) 0.6301(7) 0.4951(2)
H33 H 0.7383 0.6782 0.5161
C67 C 0.7297(3) 0.6586(7) 0.4544(2)
H34 H 0.7080 0.7256 0.4484
C68 C 0.7971(3) 0.4921(7) 0.5479(2)
C69 C 0.9096(3) 0.1565(8) 0.6780(2)
C70 C 0.9375(3) 0.0825(8) 0.7121(2)
C72 C 0.9916(3) 0.1128(8) 0.7286(2)
C75 C 0.9927(3) 0.0257(7) 0.4583(2)
H37 H 0.9879 0.0433 0.4305
C80 C 0.9745(3) 0.4250(7) 0.4698(2)
H40 H 0.9571 0.3751 0.4497
O1 O 0.5891(3) 0.8794(6) 0.31157(17)
O2 O 0.4995(2) 0.7127(5) 0.32325(17)
O3 O 0.5754(2) 0.6033(6) 0.31958(16)
O5 O 0.5350(2) 0.5927(5) 0.39948(15)
O6 O 0.5931(2) 0.6866(5) 0.44603(15)
O7 O 0.5240(2) 0.8827(5) 0.39905(15)
O9 O 0.6516(3) 0.9062(6) 0.39608(18)
O17 O 0.4296(3) 0.2464(5) 0.16897(18)
O18 O 0.3646(2) 0.3806(6) 0.15686(17)
C1 C 0.5238(3) 0.6275(7) 0.3074(2)
C2 C 0.4932(3) 0.5537(8) 0.2744(2)
C3 C 0.4383(3) 0.5811(8) 0.2583(2)
H1 H 0.4201 0.6448 0.2687
C4 C 0.5197(3) 0.4560(7) 0.2596(2)
H2 H 0.5562 0.4369 0.2706
C5 C 0.5541(3) 0.6149(7) 0.4371(2)
C6 C 0.5262(3) 0.5551(7) 0.4694(2)
C7 C 0.5373(3) 0.5926(7) 0.5102(2)
H3 H 0.5626 0.6536 0.5171
C8 C 0.4889(3) 0.4603(7) 0.4601(2)
H4 H 0.4821 0.4332 0.4332
C9 C 0.4951(3) 0.9666(7) 0.4116(2)
C10 C 0.4989(3) 0.9855(7) 0.4573(2)
C11 C 0.5306(3) 0.9084(7) 0.4847(2)
H5 H 0.5508 0.8473 0.4747
C13 C 0.6911(3) 0.9821(8) 0.4042(3)
C15 C 0.6835(3) 0.9479(7) 0.4797(3)
H7 H 0.6597 0.8846 0.4726
C16 C 0.6962(3) 0.9773(7) 0.5200(3)
H8 H 0.6816 0.9327 0.5399
C29 C 0.4096(3) 0.3435(8) 0.1780(2)
C30 C 0.4375(3) 0.4175(8) 0.2121(2)
C31 C 0.4107(3) 0.5139(8) 0.2271(2)
H15 H 0.3742 0.5330 0.2161
C32 C 0.4916(3) 0.3872(8) 0.2286(2)
H16 H 0.5090 0.3215 0.2190
Sm8 Sm 0.371550(15) 0.23127(4) 0.101540(11)
O23 O 0.4109(3) 0.1206(6) 0.68843(17)
O24 O 0.9995(2) 0.7873(5) 0.82325(17)
O25 O 0.5005(2) 0.2873(5) 0.67675(17)
O27 O 0.4246(2) 0.3967(6) 0.68042(16)
O29 O 0.4650(2) 0.4073(5) 0.60052(15)
O30 O 0.4069(2) 0.3134(5) 0.55397(15)
O33 O 0.5371(2) 0.9686(5) 0.61206(15)
O34 O 0.3484(3) 0.0938(6) 0.60392(18)
O40 O 0.3263(2) 0.3351(6) 0.62653(16)
C42 C 0.9932(3) 0.9463(8) 0.7744(2)
C43 C 0.9383(3) 0.9189(8) 0.7583(2)
H21 H 0.9201 0.8552 0.7687
C45 C 0.4459(3) 0.3851(7) 0.5629(2)
C46 C 0.4738(3) 0.4449(7) 0.5306(2)
C47 C 0.4627(3) 0.4074(7) 0.4898(2)
H23 H 0.4374 0.3464 0.4829
C48 C 0.5111(3) 0.5397(7) 0.5399(2)
H24 H 0.5179 0.5668 0.5668
C52 C 0.5316(3) 0.9244(7) 0.5267(2)
H26 H 0.5530 0.8739 0.5446
C53 C 0.3089(3) 0.0179(8) 0.5958(3)
C55 C 0.3165(3) 0.0521(7) 0.5203(3)
H27 H 0.3403 0.1154 0.5274
C56 C 0.3038(3) 0.0227(7) 0.4800(3)
H28 H 0.3184 0.0673 0.4601
C71 C 0.9107(3) 0.9861(8) 0.7271(2)
H35 H 0.8742 0.9670 0.7161
O35 O 0.2854(3) 0.9649(6) 0.62129(18)
O36 O 0.2159(2) 0.8255(6) 0.41343(18)
O38 O 0.2878(2) 0.9330(6) 0.39955(19)
C54 C 0.2947(3) 0.9894(7) 0.5509(2)
C57 C 0.2691(3) 0.9263(7) 0.4681(3)
C58 C 0.2469(3) 0.8633(7) 0.4983(2)
H29 H 0.2236 0.7995 0.4909
C59 C 0.2588(3) 0.8933(8) 0.5395(3)
H30 H 0.2432 0.8505 0.5594
C60 C 0.2566(3) 0.8920(7) 0.4245(3)
O2_2 O 0.0005(2) 0.2127(5) 0.17675(17)
O8_2 O 0.0371(2) 0.5314(5) 0.11206(15)
C2_2 C 0.0068(3) 0.0537(8) 0.2256(2)
C3_2 C 0.0617(3) 0.0811(8) 0.2417(2)
H1_2 H 0.0799 0.1448 0.2313
C9_2 C 0.0049(3) 0.4666(7) 0.0884(2)
C10_2 C 0.0011(3) 0.4855(7) 0.0427(2)
C12_2 C 0.0316(3) 0.5756(7) 0.0267(2)
H6_2 H 0.0530 0.6261 0.0446
C31_2 C 0.0893(3) 0.0139(8) 0.2729(2)
H15_2 H 0.1258 0.0330 0.2839
O31_2 O 0.0240(2) 0.6173(5) 0.89905(15)
C51_2 C 0.0306(3) 0.5916(7) 0.9847(2)
H25_2 H 0.0508 0.6527 0.9747
O17_2 O 0.0704(3) 0.7464(5) 0.33103(18)
O18_2 O 0.1354(2) 0.8806(6) 0.34314(17)
C8_2 C 0.0111(3) 0.9603(7) 0.0399(2)
H4_2 H 0.0179 0.9332 0.0668
C29_2 C 0.0904(3) 0.8435(8) 0.3220(2)
C30_2 C 0.0625(3) 0.9175(8) 0.2879(2)
C32_2 C 0.0084(3) 0.8872(8) 0.2714(2)
O36_2 O 0.2841(2) 0.3255(6) 0.08657(18)
O38_2 O 0.2122(2) 0.4330(6) 0.10045(19)
C47_2 C 0.0373(3) 0.9074(7) 0.0102(2)
H23_2 H 0.0626 0.8464 0.0171
C56_2 C 0.1962(3) 0.5227(7) 0.0200(3)
H28_2 H 0.1816 0.5673 0.0399
C57_2 C 0.2309(3) 0.4263(7) 0.0319(3)
C58_2 C 0.2531(3) 0.3633(7) 0.0017(2)
H29_2 H 0.2764 0.2995 0.0091
C60_2 C 0.2434(3) 0.3920(7) 0.0755(3)
O23_2 O 0.0891(3) 0.6206(6) 0.81157(17)
O29_2 O 0.0350(2) 0.9073(5) 0.89948(15)
O30_2 O 0.0931(2) 0.8134(5) 0.94603(15)
O34_2 O 0.1516(3) 0.5938(6) 0.89608(18)
O35_2 O 0.2146(3) 0.4649(6) 0.87871(18)
O40_2 O 0.1737(2) 0.8351(6) 0.87347(16)
C45_2 C 0.0541(3) 0.8851(7) 0.9371(2)
C46_2 C 0.0262(3) 0.9449(7) 0.9694(2)
C53_2 C 0.1911(3) 0.5179(8) 0.9042(3)
C54_2 C 0.2053(3) 0.4894(7) 0.9491(2)
C55_2 C 0.1835(3) 0.5521(7) 0.9797(3)
H27_2 H 0.1597 0.6154 0.9726
C59_2 C 0.2412(3) 0.3933(8) 0.9605(3)
H30_2 H 0.2568 0.3505 0.9406
Sm5_2 Sm 0.912095(16) 0.25991(4) 0.127275(11)
O39_2 O 0.8263(2) 0.1649(6) 0.12653(16)
O41_2 O 0.7525(2) 0.0866(6) 0.14924(18)
O52_2 O 0.4472(2) 0.1100(5) 0.09303(15)
C61_2 C 0.7802(3) 0.1147(7) 0.1207(2)
C62_2 C 0.7564(3) 0.0888(7) 0.0775(2)
C66_2 C 0.7523(3) 0.1301(7) 0.0049(2)
C67_2 C 0.7703(3) 0.1586(7) 0.0456(2)
H34_2 H 0.7920 0.2256 0.0516
C77_2 C 0.4798(3) 0.0303(7) 0.0845(2)
C78_2 C 0.4896(3) 0.0147(7) 0.0412(2)
C79_2 C 0.4646(3) 0.0899(7) 0.0105(2)
H39_2 H 0.4412 0.1503 0.0172
O22_2 O 0.4961(3) 0.0385(6) 0.88859(16)
C40_2 C 0.4745(3) 0.0750(7) 0.9698(2)
H20_2 H 0.4571 0.1249 0.9497
O43_2 O 0.7190(2) 0.0506(5) 0.92345(16)
C65_2 C 0.7197(3) 0.0283(7) 0.9956(2)
H33_2 H 0.7617 0.1782 0.9839
O1_2 O 0.9109(3) 0.3794(6) 0.18843(17)
O3_2 O 0.9246(2) 0.1033(6) 0.18042(16)
O5_2 O 0.9650(2) 0.0927(5) 0.10052(15)
O6_2 O 0.9069(2) 0.1866(5) 0.05397(15)
O7_2 O 0.9760(2) 0.3827(5) 0.10095(15)
O9_2 O 0.8484(3) 0.4062(6) 0.10392(18)
O10_2 O 0.7854(3) 0.5351(6) 0.12129(18)
C1_2 C 0.9762(3) 0.1275(7) 0.1926(2)
C5_2 C 0.9459(3) 0.1149(7) 0.0629(2)
C6_2 C 0.9738(3) 0.0551(7) 0.0306(2)
C11_2 C 0.9694(3) 0.4084(7) 0.0153(2)
H5_2 H 0.9492 0.3473 0.0253
C13_2 C 0.8089(3) 0.4821(8) 0.0958(3)
C14_2 C 0.7947(3) 0.5106(7) 0.0509(2)
C15_2 C 0.8165(3) 0.4479(7) 0.0203(3)
H7_2 H 0.8403 0.3846 0.0274
C19_2 C 0.7588(3) 0.6067(8) 0.0395(3)
H10_2 H 0.7432 0.6495 0.0594
C36_2 C 0.5401(3) 0.5818(7) 0.0155(2)
H18_2 H 0.5670 0.6362 0.0259
O48_2 O 0.4449(2) 0.3870(5) 0.09197(15)
O50_2 O 0.3905(2) 0.3214(5) 0.03802(15)
O54_2 O 0.5039(3) 0.9615(6) 0.11141(16)
C63_2 C 0.7214(3) 0.9913(8) 0.0682(2)
H31_2 H 0.7096 0.9470 0.0893
C64_2 C 0.7039(3) 0.9599(8) 0.0275(2)
H32_2 H 0.6817 0.8934 0.0217
C73_2 C 0.4320(3) 0.3799(7) 0.0536(2)
C74_2 C 0.4673(3) 0.4430(7) 0.0262(2)
C75_2 C 0.5073(3) 0.5257(7) 0.0417(2)
H37_2 H 0.5121 0.5433 0.0695
C80_2 C 0.5255(3) 0.9250(7) 0.0302(2)
H40_2 H 0.5429 0.8751 0.0503
Sm2_2 Sm 0.628450(15) 0.76873(4) 0.898460(11)
O4_2 O 0.6734(2) 0.9143(5) 0.86055(16)
O11_2 O 0.7159(2) 0.6745(6) 0.91343(18)
O12_2 O 0.7878(2) 0.5670(6) 0.89955(19)
O19_2 O 0.5551(2) 0.6130(5) 0.90803(15)
O20_2 O 0.6095(2) 0.6786(5) 0.96198(15)
O21_2 O 0.5528(2) 0.8900(5) 0.90697(15)
C7_2 C 0.9627(3) 0.0926(7) 0.9898(2)
H3_2 H 0.9374 0.1536 0.9829
C16_2 C 0.8038(3) 0.4773(7) 0.9800(3)
H8_2 H 0.8184 0.4327 0.9601
C17_2 C 0.7691(3) 0.5737(7) 0.9681(3)
C18_2 C 0.7469(3) 0.6367(7) 0.9983(2)
H9_2 H 0.7236 0.7005 0.9909
C20_2 C 0.7566(3) 0.6080(7) 0.9245(3)
C33_2 C 0.5680(3) 0.6201(7) 0.9464(2)
C34_2 C 0.5327(3) 0.5570(7) 0.9738(2)
C35_2 C 0.4927(3) 0.4743(7) 0.9583(2)
H17_2 H 0.4879 0.4567 0.9305
C37_2 C 0.5202(3) 0.9697(7) 0.9155(2)
C38_2 C 0.5104(3) 0.9853(7) 0.9588(2)
C39_2 C 0.5354(3) 0.9101(7) 0.9895(2)
H19_2 H 0.5588 0.8497 0.9828
O33_2 O 0.9629(2) 0.4686(5) 0.88794(15)
O42_2 O 0.6724(2) 0.9013(5) 0.94678(16)
O44_2 O 0.5704(3) 0.7536(5) 0.83103(18)
O46_2 O 0.6354(2) 0.6194(6) 0.84314(17)
C41_2 C 0.4762(3) 0.3725(7) 0.6926(2)
C42_2 C 0.5068(3) 0.4463(8) 0.7256(2)
C43_2 C 0.5617(3) 0.4189(8) 0.7417(2)
H21_2 H 0.5799 0.3552 0.7313
C44_2 C 0.4803(3) 0.5440(7) 0.7404(2)
H22_2 H 0.4438 0.5631 0.7294
C48_2 C 0.9889(3) 0.0397(7) 0.9601(2)
H24_2 H 0.9821 0.0668 0.9332
C49_2 C 0.9951(3) 0.5334(7) 0.9116(2)
C50_2 C 0.9989(3) 0.5145(7) 0.9573(2)
C52_2 C 0.9684(3) 0.4244(7) 0.9733(2)
H26_2 H 0.9470 0.3739 0.9554
C68_2 C 0.7029(3) 0.9921(7) 0.9521(2)
C69_2 C 0.5904(3) 0.6565(8) 0.8220(2)
C70_2 C 0.5625(3) 0.5825(8) 0.7879(2)
C71_2 C 0.5893(3) 0.4861(8) 0.7729(2)
H35_2 H 0.6258 0.4670 0.7839
C72_2 C 0.5084(3) 0.6128(8) 0.7714(2)
H36_2 H 0.4910 0.6785 0.7810
C76_2 C 0.4599(3) 0.4182(7) 0.9845(2)
H38_2 H 0.4330 0.3638 0.9741
C4_2 C 0.9803(3) 0.9560(7) 0.2404(2)
H2_2 H 0.9438 0.9369 0.2294
H16_2 H 0.9910 0.8215 0.2810
O14 O 0.2525(2) 0.4134(6) 0.64924(18)
O15 O 0.1724(2) 0.5987(5) 0.44678(16)
O16 O 0.2190(2) 0.4494(5) 0.42345(16)
C21 C 0.2802(3) 0.3853(7) 0.6207(2)
C22 C 0.2564(3) 0.4112(7) 0.5775(2)
C23 C 0.2214(3) 0.5087(8) 0.5682(2)
H11 H 0.2096 0.5530 0.5893
C24 C 0.2039(3) 0.5401(8) 0.5275(2)
H12 H 0.1817 0.6066 0.5217
C25 C 0.2197(3) 0.4717(7) 0.4956(2)
C26 C 0.2523(3) 0.3699(7) 0.5049(2)
H13 H 0.2617 0.3218 0.4839
C27 C 0.2703(3) 0.3414(7) 0.5456(2)
H14 H 0.2920 0.2744 0.5516
C28 C 0.2029(3) 0.5079(7) 0.4521(2)
O28 O 0.1734(2) 0.5857(5) 0.36055(16)
O15_2 O 0.3276(2) 0.0987(5) 0.05322(16)
C28_2 C 0.2971(3) 0.0079(7) 0.0479(2)
O28_2 O 0.3266(2) 0.0857(5) 0.13945(16)
C23_2 C 0.2786(3) 0.0087(8) 0.9318(2)
H11_2 H 0.2904 0.0530 0.9107
C24_2 C 0.2961(3) 0.0401(8) 0.9725(2)
H12_2 H 0.3183 0.1066 0.9783
O16_2 O 0.2810(2) 0.9494(5) 0.07655(16)
C25_2 C 0.2803(3) 0.9717(7) 0.0044(2)
H13_2 H 0.2383 0.8218 0.0161
O14_2 O 0.2475(2) 0.9134(6) 0.85076(18)
C21_2 C 0.2198(3) 0.8853(7) 0.8793(2)
C22_2 C 0.2436(3) 0.9112(7) 0.9225(2)
C26_2 C 0.2477(3) 0.8699(7) 0.9951(2)
C27_2 C 0.2297(3) 0.8414(7) 0.9544(2)
H14_2 H 0.2080 0.7744 0.9484
N1 N 0.3707(3) 0.6639(6) 0.3969(2)
N2 N 0.3661(3) 0.5197(6) 0.3546(2)
N3 N 0.4368(3) 0.3864(6) 0.34558(19)
N4 N 0.5141(3) 0.2688(6) 0.3413(2)
N5 N 0.5971(3) 0.2920(6) 0.3737(2)
C81 C 0.3826(3) 0.7214(7) 0.4708(3)
C82 C 0.3940(3) 0.7509(7) 0.4276(3)
H41 H 0.3781 0.8275 0.4201
H42 H 0.4343 0.7560 0.4272
C83 C 0.4011(3) 0.5851(8) 0.3797(2)
H43 H 0.4400 0.5771 0.3843
C84 C 0.3148(3) 0.6484(9) 0.3813(3)
H44 H 0.2845 0.6923 0.3881
C85 C 0.3122(3) 0.5597(8) 0.3551(3)
H45 H 0.2800 0.5301 0.3398
C86 C 0.3841(3) 0.4157(7) 0.3336(2)
C87 C 0.3482(3) 0.3564(8) 0.3048(2)
H46 H 0.3114 0.3814 0.2975
C88 C 0.3690(4) 0.2593(8) 0.2874(3)
H47 H 0.3462 0.2163 0.2678
C89 C 0.4244(4) 0.2246(8) 0.2992(3)
H48 H 0.4395 0.1582 0.2881
C90 C 0.4555(3) 0.2928(7) 0.3277(2)
C91 C 0.5469(3) 0.3413(8) 0.3661(2)
H49 H 0.5362 0.4132 0.3763
C92 C 0.5446(4) 0.1715(8) 0.3323(3)
H50 H 0.5319 0.1088 0.3155
C93 C 0.5968(4) 0.1852(8) 0.3528(3)
H51 H 0.6267 0.1332 0.3529
C94 C 0.6428(3) 0.3398(9) 0.4033(3)
H52 H 0.6459 0.4239 0.3991
H53 H 0.6780 0.3037 0.3987
C95 C 0.6323(3) 0.3172(7) 0.4471(2)
C96 C 0.6086(3) 0.2147(7) 0.4588(3)
H54 H 0.5973 0.1576 0.4392
C97 C 0.3987(3) 0.8048(7) 0.5011(2)
H55 H 0.4147 0.8752 0.4939
C98 C 0.6477(3) 0.4035(7) 0.4767(2)
H56 H 0.6627 0.4746 0.4692
C99 C 0.3595(3) 0.6176(8) 0.4826(3)
H57 H 0.3485 0.5605 0.4630
N6 N 0.6293(3) 0.3361(6) 0.6031(2)
N7 N 0.6339(3) 0.4803(6) 0.6454(2)
N8 N 0.5632(3) 0.6136(6) 0.65442(19)
N9 N 0.4859(3) 0.7312(6) 0.6587(2)
N10 N 0.4029(3) 0.7080(6) 0.6263(2)
C100 C 0.6174(3) 0.2786(7) 0.5292(3)
C101 C 0.6060(3) 0.2491(7) 0.5724(3)
H58 H 0.6219 0.1725 0.5799
H59 H 0.5657 0.2440 0.5728
C102 C 0.5989(3) 0.4149(8) 0.6203(2)
H60 H 0.5600 0.4229 0.6157
C103 C 0.6852(3) 0.3516(9) 0.6187(3)
H61 H 0.7155 0.3077 0.6119
C104 C 0.6878(3) 0.4403(8) 0.6449(3)
H62 H 0.7200 0.4699 0.6602
C105 C 0.6159(3) 0.5843(7) 0.6664(2)
C106 C 0.6518(3) 0.6436(8) 0.6952(2)
H63 H 0.6886 0.6186 0.7025
C107 C 0.6310(4) 0.7407(8) 0.7126(3)
H64 H 0.6538 0.7837 0.7322
C108 C 0.5756(4) 0.7754(8) 0.7008(3)
H65 H 0.5605 0.8418 0.7119
C109 C 0.5445(3) 0.7072(7) 0.6723(2)
C110 C 0.4531(3) 0.6587(8) 0.6339(2)
H66 H 0.4638 0.5868 0.6237
C111 C 0.4554(4) 0.8285(8) 0.6677(3)
H67 H 0.4681 0.8912 0.6845
C112 C 0.4032(4) 0.8148(8) 0.6472(3)
H68 H 0.3733 0.8668 0.6471
C113 C 0.3572(3) 0.6602(9) 0.5967(3)
H69 H 0.3541 0.5761 0.6009
H70 H 0.3220 0.6963 0.6013
C114 C 0.3677(3) 0.6828(7) 0.5529(2)
C115 C 0.3914(3) 0.7853(7) 0.5412(3)
H71 H 0.4027 0.8424 0.5608
C116 C 0.6013(3) 0.1952(7) 0.4989(2)
H72 H 0.5853 0.1248 0.5061
C117 C 0.3523(3) 0.5965(7) 0.5233(2)
H73 H 0.3373 0.5254 0.5308
C118 C 0.6405(3) 0.3824(8) 0.5174(3)
H74 H 0.6515 0.4395 0.5370
N1_2 N 0.1293(3) 0.1639(6) 0.1031(2)
N2_2 N 0.1339(3) 0.0197(6) 0.1454(2)
C81_2 C 0.1174(3) 0.2214(7) 0.0292(3)
C82_2 C 0.1060(3) 0.2509(7) 0.0724(3)
H41_2 H 0.1219 0.3275 0.0799
H42_2 H 0.0657 0.2560 0.0728
C83_2 C 0.0989(3) 0.0851(8) 0.1203(2)
H43_2 H 0.0600 0.0771 0.1157
C84_2 C 0.1852(3) 0.1484(9) 0.1187(3)
H44_2 H 0.2155 0.1923 0.1119
C85_2 C 0.1878(3) 0.0597(8) 0.1449(3)
H45_2 H 0.2200 0.0301 0.1602
H55_2 H 0.0853 0.3752 0.0061
C99_2 C 0.1405(3) 0.1176(8) 0.0174(3)
H57_2 H 0.1515 0.0605 0.0370
C97_2 C 0.1013(3) 0.3048(7) 0.9989(2)
N9_2 N 0.0141(3) 0.2312(6) 0.8413(2)
N10_2 N 0.0971(3) 0.2080(6) 0.8737(2)
C110_2 C 0.0469(3) 0.1587(8) 0.8661(2)
H66_2 H 0.0362 0.0868 0.8763
C111_2 C 0.0446(4) 0.3285(8) 0.8323(3)
H67_2 H 0.0319 0.3912 0.8155
C112_2 C 0.0968(4) 0.3148(8) 0.8528(3)
H68_2 H 0.1267 0.3668 0.8529
C113_2 C 0.1428(3) 0.1602(9) 0.9033(3)
H69_2 H 0.1459 0.0761 0.8991
H70_2 H 0.1780 0.1963 0.8987
C114_2 C 0.1323(3) 0.1828(7) 0.9471(2)
C115_2 C 0.1086(3) 0.2853(7) 0.9588(3)
H71_2 H 0.0973 0.3424 0.9392
C117_2 C 0.1477(3) 0.0965(7) 0.9767(2)
H73_2 H 0.1627 0.0254 0.9692
N3_2 N 0.0632(3) 0.8864(6) 0.15442(19)
C86_2 C 0.1159(3) 0.9157(7) 0.1664(2)
C87_2 C 0.1518(3) 0.8564(8) 0.1952(2)
H46_2 H 0.1886 0.8814 0.2025
C88_2 C 0.1310(4) 0.7593(8) 0.2126(3)
H47_2 H 0.1538 0.7163 0.2322
C89_2 C 0.0756(4) 0.7246(8) 0.2008(3)
H48_2 H 0.0605 0.6582 0.2119
C90_2 C 0.0445(3) 0.7928(7) 0.1723(2)
N8_2 N 0.9368(3) 0.1136(6) 0.84558(19)
C105_2 C 0.8841(3) 0.0843(7) 0.8336(2)
C106_2 C 0.8482(3) 0.1436(8) 0.8048(2)
H63_2 H 0.8114 0.1186 0.7975
C107_2 C 0.8690(4) 0.2407(8) 0.7874(3)
H64_2 H 0.8462 0.2837 0.7678
C108_2 C 0.9244(4) 0.2754(8) 0.7992(3)
H65_2 H 0.9395 0.3418 0.7881
C109_2 C 0.9555(3) 0.2072(7) 0.8277(2)
N4_2 N 0.9859(3) 0.7688(6) 0.1587(2)
N5_2 N 0.9029(3) 0.7920(6) 0.1263(2)
C91_2 C 0.9531(3) 0.8413(8) 0.1339(2)
H49_2 H 0.9638 0.9132 0.1237
C92_2 C 0.9554(4) 0.6715(8) 0.1677(3)
H50_2 H 0.9681 0.6088 0.1845
C93_2 C 0.9032(4) 0.6852(8) 0.1472(3)
H51_2 H 0.8733 0.6332 0.1471
C94_2 C 0.8572(3) 0.8398(9) 0.0967(3)
H52_2 H 0.8541 0.9239 0.1009
H53_2 H 0.8220 0.8037 0.1013
C95_2 C 0.8677(3) 0.8172(7) 0.0529(2)
C96_2 C 0.8914(3) 0.7147(7) 0.0412(3)
H54_2 H 0.9027 0.6576 0.0608
C98_2 C 0.8523(3) 0.9035(7) 0.0233(2)
H56_2 H 0.8373 0.9746 0.0308
C116_2 C 0.8987(3) 0.6952(7) 0.0011(2)
N6_2 N 0.8707(3) 0.8361(6) 0.8969(2)
N7_2 N 0.8661(3) 0.9803(6) 0.8546(2)
C100_2 C 0.8826(3) 0.7786(7) 0.9708(3)
C101_2 C 0.8940(3) 0.7491(7) 0.9276(3)
H58_2 H 0.8781 0.6725 0.9201
H59_2 H 0.9343 0.7440 0.9272
C102_2 C 0.9011(3) 0.9149(8) 0.8797(2)
H60_2 H 0.9400 0.9229 0.8843
C103_2 C 0.8148(3) 0.8516(9) 0.8813(3)
H61_2 H 0.7845 0.8077 0.8881
C104_2 C 0.8122(3) 0.9403(8) 0.8551(3)
H62_2 H 0.7800 0.9699 0.8398
H72_2 H 0.9147 0.6248 0.9939
C118_2 C 0.8595(3) 0.8824(8) 0.9826(3)
H74_2 H 0.8485 0.9395 0.9630
N14 N 0.1107(3) 0.0476(7) 0.6555(2)
N15 N 0.1159(3) 0.1880(7) 0.6124(3)
C128 C 0.0814(3) 0.1158(8) 0.6271(3)
H83 H 0.0429 0.1120 0.6192
C129 C 0.1666(4) 0.0836(12) 0.6590(5)
H84 H 0.1961 0.0535 0.6770
C130 C 0.1699(5) 0.1699(12) 0.6315(5)
H85 H 0.2021 0.2097 0.6263
C131 C 0.0998(5) 0.2731(10) 0.5797(4)
H86 H 0.1174 0.3481 0.5872
H87 H 0.0594 0.2845 0.5769
C132 C 0.1167(4) 0.2335(8) 0.5379(3)
C133 C 0.1039(4) 0.3122(8) 0.5056(3)
H88 H 0.0870 0.3838 0.5102
C134 C 0.1163(4) 0.2842(8) 0.4661(3)
H89 H 0.1075 0.3371 0.4447
C137 C 0.1417(4) 0.1275(9) 0.5310(4)
H91 H 0.1504 0.0748 0.5525
N16 N 0.1177(3) 0.1852(7) 0.3840(3)
N17 N 0.0404(3) 0.1993(7) 0.3432(2)
C138 C 0.1585(3) 0.1437(9) 0.4182(3)
H92 H 0.1618 0.0588 0.4165
H93 H 0.1950 0.1773 0.4155
C139 C 0.0698(3) 0.1324(8) 0.3720(3)
H94 H 0.0581 0.0609 0.3818
C140 C 0.1205(5) 0.2885(9) 0.3636(4)
H95 H 0.1498 0.3426 0.3671
C141 C 0.0721(4) 0.2983(9) 0.3369(4)
H96 H 0.0625 0.3589 0.3183
C154 C 0.1419(3) 0.1763(8) 0.4590(3)
C155 C 0.1540(4) 0.0991(9) 0.4921(3)
H107 H 0.1707 0.0270 0.4879
N13 N 0.0368(3) 0.9211(6) 0.6591(2)
C123 C 0.0141(4) 0.8294(8) 0.6757(3)
C124 C 0.0413(4) 0.7646(9) 0.7083(3)
H80 H 0.0241 0.6998 0.7186
C125 C 0.0943(4) 0.7991(11) 0.7247(3)
H81 H 0.1134 0.7580 0.7466
C126 C 0.1195(4) 0.8970(9) 0.7081(3)
H82 H 0.1549 0.9241 0.7187
C127 C 0.0889(3) 0.9492(8) 0.6757(2)
N18 N 0.9632(3) 0.0789(6) 0.3409(2)
C142 C 0.9859(4) 0.1706(8) 0.3243(3)
C143 C 0.9587(4) 0.2354(9) 0.2917(3)
H97 H 0.9759 0.3002 0.2814
C144 C 0.9057(4) 0.2009(11) 0.2753(3)
H98 H 0.8866 0.2420 0.2534
C145 C 0.8805(4) 0.1030(9) 0.2919(3)
H99 H 0.8451 0.0759 0.2813
C146 C 0.9111(3) 0.0508(8) 0.3243(2)
N11 N 0.8823(3) 0.8148(7) 0.6160(3)
N12 N 0.9596(3) 0.8007(7) 0.6568(2)
C119 C 0.8415(3) 0.8563(9) 0.5818(3)
H75 H 0.8382 0.9412 0.5835
H76 H 0.8050 0.8227 0.5845
C120 C 0.9302(3) 0.8676(8) 0.6280(3)
H77 H 0.9419 0.9391 0.6182
C121 C 0.8795(5) 0.7115(9) 0.6364(4)
H78 H 0.8502 0.6574 0.6329
C122 C 0.9279(4) 0.7017(9) 0.6631(4)
H79 H 0.9375 0.6411 0.6817
C135 C 0.8581(3) 0.8237(8) 0.5410(3)
C136 C 0.8460(4) 0.9009(9) 0.5079(3)
H90 H 0.8293 0.9730 0.5121
N19 N 0.8893(3) 0.9524(7) 0.3445(2)
N20 N 0.8841(3) 0.8120(7) 0.3876(3)
C147 C 0.9186(3) 0.8842(8) 0.3729(3)
H100 H 0.9571 0.8880 0.3808
C148 C 0.8334(4) 0.9164(12) 0.3410(5)
H101 H 0.8039 0.9465 0.3230
C149 C 0.8301(5) 0.8301(12) 0.3685(5)
H102 H 0.7979 0.7903 0.3737
C150 C 0.9002(5) 0.7269(10) 0.4203(4)
H103 H 0.8826 0.6519 0.4128
H104 H 0.9406 0.7155 0.4231
C151 C 0.8833(4) 0.7665(8) 0.4621(3)
C152 C 0.8961(4) 0.6878(8) 0.4944(3)
H105 H 0.9130 0.6162 0.4898
C153 C 0.8837(4) 0.7158(8) 0.5339(3)
H106 H 0.8925 0.6629 0.5553
C156 C 0.8583(4) 0.8725(9) 0.4690(4)
H108 H 0.8496 0.9252 0.4475
C134_2 C 0.3837(4) 0.7842(8) 0.0339(3)
H89_2 H 0.3925 0.8371 0.0553
N16_2 N 0.3823(3) 0.6852(7) 0.1160(3)
N17_2 N 0.4596(3) 0.6993(7) 0.1568(2)
N18_2 N 0.5368(3) 0.5789(6) 0.1591(2)
N19_2 N 0.6107(3) 0.4524(7) 0.1555(2)
N20_2 N 0.6159(3) 0.3120(7) 0.1124(3)
C138_2 C 0.3415(3) 0.6437(9) 0.0818(3)
H92_2 H 0.3382 0.5588 0.0835
H93_2 H 0.3050 0.6773 0.0845
C139_2 C 0.4302(3) 0.6324(8) 0.1280(3)
H94_2 H 0.4419 0.5609 0.1182
C140_2 C 0.3795(5) 0.7885(9) 0.1364(4)
H95_2 H 0.3502 0.8426 0.1329
C141_2 C 0.4279(4) 0.7983(9) 0.1631(4)
H96_2 H 0.4375 0.8589 0.1817
C142_2 C 0.5141(4) 0.6706(8) 0.1757(3)
C143_2 C 0.5413(4) 0.7354(9) 0.2083(3)
H97_2 H 0.5241 0.8002 0.2186
C144_2 C 0.5943(4) 0.7009(11) 0.2247(3)
H98_2 H 0.6134 0.7420 0.2466
C145_2 C 0.6195(4) 0.6030(9) 0.2081(3)
H99_2 H 0.6549 0.5759 0.2187
C146_2 C 0.5889(3) 0.5508(8) 0.1757(2)
C147_2 C 0.5814(3) 0.3842(8) 0.1271(3)
H100_2 H 0.5429 0.3880 0.1192
C148_2 C 0.6666(4) 0.4164(12) 0.1590(5)
H101_2 H 0.6961 0.4465 0.1770
C149_2 C 0.6699(5) 0.3301(12) 0.1315(5)
H102_2 H 0.7021 0.2903 0.1263
C150_2 C 0.5998(5) 0.2269(10) 0.0797(4)
H103_2 H 0.6174 0.1519 0.0872
H104_2 H 0.5594 0.2155 0.0769
C151_2 C 0.6167(4) 0.2665(8) 0.0379(3)
C152_2 C 0.6039(4) 0.1878(8) 0.0056(3)
H105_2 H 0.5870 0.1162 0.0102
C154_2 C 0.3581(3) 0.6763(8) 0.0410(3)
C155_2 C 0.3460(4) 0.5991(9) 0.0079(3)
H107_2 H 0.3293 0.5270 0.0121
C156_2 C 0.6417(4) 0.3725(9) 0.0310(4)
H108_2 H 0.6504 0.4252 0.0525
N11_2 N 0.6177(3) 0.3148(7) 0.8840(3)
N12_2 N 0.5404(3) 0.3007(7) 0.8432(2)
N13_2 N 0.4632(3) 0.4211(6) 0.8409(2)
N14_2 N 0.3893(3) 0.5476(7) 0.8445(2)
N15_2 N 0.3841(3) 0.6880(7) 0.8876(3)
C119_2 C 0.6585(3) 0.3563(9) 0.9182(3)
H75_2 H 0.6618 0.4412 0.9165
H76_2 H 0.6950 0.3227 0.9155
C120_2 C 0.5698(3) 0.3676(8) 0.8720(3)
H77_2 H 0.5581 0.4391 0.8818
C121_2 C 0.6205(5) 0.2115(9) 0.8636(4)
H78_2 H 0.6498 0.1574 0.8671
C122_2 C 0.5721(4) 0.2017(9) 0.8369(4)
H79_2 H 0.5625 0.1411 0.8183
C123_2 C 0.4859(4) 0.3294(8) 0.8243(3)
C124_2 C 0.4587(4) 0.2646(9) 0.7917(3)
H80_2 H 0.4759 0.1998 0.7814
C125_2 C 0.4057(4) 0.2991(11) 0.7753(3)
H81_2 H 0.3866 0.2580 0.7534
C126_2 C 0.3805(4) 0.3970(9) 0.7919(3)
H82_2 H 0.3451 0.4241 0.7813
C127_2 C 0.4111(3) 0.4492(8) 0.8243(2)
C128_2 C 0.4186(3) 0.6158(8) 0.8729(3)
H83_2 H 0.4571 0.6120 0.8808
C129_2 C 0.3334(4) 0.5836(12) 0.8410(5)
H84_2 H 0.3039 0.5535 0.8230
C130_2 C 0.3301(5) 0.6699(12) 0.8685(5)
H85_2 H 0.2979 0.7097 0.8737
C131_2 C 0.4002(5) 0.7731(10) 0.9203(4)
H86_2 H 0.3826 0.8481 0.9128
H87_2 H 0.4406 0.7845 0.9231
C132_2 C 0.3833(4) 0.7335(8) 0.9621(3)
C133_2 C 0.3961(4) 0.8122(8) 0.9944(3)
H88_2 H 0.4130 0.8838 0.9898
C135_2 C 0.6419(3) 0.3237(8) 0.9590(3)
C136_2 C 0.6540(4) 0.4009(9) 0.9921(3)
H90_2 H 0.6707 0.4730 0.9879
C137_2 C 0.3583(4) 0.6275(9) 0.9690(4)
H91_2 H 0.3496 0.5748 0.9475
C153_2 C 0.6163(4) 0.2158(8) 0.9661(3)
H106_2 H 0.6075 0.1629 0.9447
loop_
_geom_bond_atom_site_label_1
_geom_bond_atom_site_label_2
_geom_bond_site_symmetry_1
_geom_bond_site_symmetry_2
H20 C40 1_555 1_555
Sm10 O52 1_555 1_555
O52 C77 1_555 1_555
H22 C44 1_555 1_555
C77 C78 1_555 1_555
C78 C79 1_555 1_555
C79 C40 1_555 1_555
H39 C79 1_555 1_555
H17 C35 1_555 1_555
Sm10 O48 1_555 1_555
O26 Sm6 1_555 1_555
O48 C73 1_555 1_555
O50 Sm10 1_555 1_555
C41 O26 1_555 1_555
C73 O50 1_555 1_555
C74 C73 1_555 1_555
C76 C35 1_555 1_555
H38 C76 1_555 1_555
C74 C76 1_555 1_555
Sm2 O4 1_555 1_555
O11 Sm2 1_555 1_555
O12 C20 1_555 1_555
O19 Sm2 1_555 1_555
O20 Sm2 1_555 1_555
O21 Sm2 1_555 1_555
H6 C12 1_555 1_555
C18 C17 1_555 1_555
H9 C18 1_555 1_555
C19 C14 1_555 1_555
H10 C19 1_555 1_555
C20 O11 1_555 1_555
C33 O19 1_555 1_555
C34 C33 1_555 1_555
C36 C34 1_555 1_555
H18 C36 1_555 1_555
C37 O21 1_555 1_555
C38 C37 1_555 1_555
C39 C38 1_555 1_555
H19 C39 1_555 1_555
Sm4 O31 1_555 1_555
Sm5 O39 1_555 1_555
O31 C49 1_555 1_555
O39 C61 1_555 1_555
O41 C61 1_555 1_555
O42 Sm2 1_555 1_555
O43 C68 1_555 1_555
O44 Sm2 1_555 1_555
O46 Sm2 1_555 1_555
C49 C50 1_555 1_555
C50 C51 1_555 1_555
C51 C12 1_555 1_555
H25 C51 1_555 1_555
C61 C62 1_555 1_555
C62 C63 1_555 1_555
C63 H31 1_555 1_555
C64 C63 1_555 1_555
H32 C64 1_555 1_555
C65 C64 1_555 1_555
C66 C65 1_555 1_555
H33 C66 1_555 1_555
C67 C62 1_555 1_555
H34 C67 1_555 1_555
C68 O42 1_555 1_555
C69 O44 1_555 1_555
C70 C69 1_555 1_555
C75 C36 1_555 1_555
H37 C75 1_555 1_555
C80 C39 1_555 1_555
H40 C80 1_555 1_555
O20 C33 1_555 1_555
C17 C20 1_555 1_555
C18 C19 1_555 1_555
O46 C69 1_555 1_555
C65 C68 1_555 1_555
C66 C67 1_555 1_555
C70 C72 1_555 1_555
Sm5 O1 1_555 1_555
O2 Sm5 1_555 1_555
O3 Sm5 1_555 1_555
O5 Sm5 1_555 1_555
O6 Sm5 1_555 1_555
O7 Sm5 1_555 1_555
O9 Sm5 1_555 1_555
O17 C29 1_555 1_555
O18 C29 1_555 1_555
C1 O2 1_555 1_555
C2 C1 1_555 1_555
C3 C2 1_555 1_555
H1 C3 1_555 1_555
C4 C2 1_555 1_555
H2 C4 1_555 1_555
C5 O5 1_555 1_555
C6 C5 1_555 1_555
C7 C6 1_555 1_555
H3 C7 1_555 1_555
C8 C6 1_555 1_555
H4 C8 1_555 1_555
C9 O7 1_555 1_555
C10 C9 1_555 1_555
C11 C10 1_555 1_555
H5 C11 1_555 1_555
C13 O9 1_555 1_555
H7 C15 1_555 1_555
C16 C15 1_555 1_555
H8 C16 1_555 1_555
C29 C30 1_555 1_555
C30 C31 1_555 1_555
C31 C3 1_555 1_555
H15 C31 1_555 1_555
C32 C4 1_555 1_555
H16 C32 1_555 1_555
Sm4 O23 1_555 1_555
Sm8 O17 1_555 1_555
O25 Sm4 1_555 1_555
O27 Sm4 1_555 1_555
O29 Sm4 1_555 1_555
O30 Sm4 1_555 1_555
O34 Sm4 1_555 1_555
O40 Sm4 1_555 1_555
C43 C42 1_555 1_555
H21 C43 1_555 1_555
C45 O29 1_555 1_555
C46 C45 1_555 1_555
C47 C8 1_555 1_555
H23 C47 1_555 1_555
C48 C7 1_555 1_555
H24 C48 1_555 1_555
C52 C11 1_555 1_555
H26 C52 1_555 1_555
C53 O34 1_555 1_555
H27 C55 1_555 1_555
C56 C55 1_555 1_555
H28 C56 1_555 1_555
C71 C43 1_555 1_555
H35 C71 1_555 1_555
O3 C1 1_555 1_555
O6 C5 1_555 1_555
O18 Sm8 1_555 1_555
C30 C32 1_555 1_555
O30 C45 1_555 1_555
C46 C47 1_555 1_555
C46 C48 1_555 1_555
Sm10 O36 1_555 1_555
O36 C60 1_555 1_555
O38 C60 1_555 1_555
C58 C57 1_555 1_555
H29 C58 1_555 1_555
C59 C54 1_555 1_555
H30 C59 1_555 1_555
C60 C57 1_555 1_555
C58 C59 1_555 1_555
O8_2 C9_2 1_555 1_555
C3_2 C2_2 1_555 1_555
H1_2 C3_2 1_555 1_555
C10_2 C9_2 1_555 1_555
C12_2 C10_2 1_555 1_555
H6_2 C12_2 1_555 1_555
C31_2 C3_2 1_555 1_555
H15_2 C31_2 1_555 1_555
Sm6 O31_2 1_555 1_555
H25_2 C51_2 1_555 1_555
O17_2 C29_2 1_555 1_555
O18_2 C29_2 1_555 1_555
H4_2 C8_2 1_555 1_555
C29_2 C30_2 1_555 1_555
Sm10 O17_2 1_555 1_555
Sm8 O36_2 1_555 1_555
O36_2 C60_2 1_555 1_555
O38_2 C60_2 1_555 1_555
C47_2 C8_2 1_555 1_555
H23_2 C47_2 1_555 1_555
H28_2 C56_2 1_555 1_555
C57_2 C56_2 1_555 1_555
C58_2 C57_2 1_555 1_555
H29_2 C58_2 1_555 1_555
C60_2 C57_2 1_555 1_555
O18_2 Sm10 1_555 1_555
C30_2 C32_2 1_555 1_555
Sm6 O23_2 1_555 1_555
O29_2 Sm6 1_555 1_555
O30_2 Sm6 1_555 1_555
O34_2 Sm6 1_555 1_555
O35_2 C53_2 1_555 1_555
O40_2 Sm6 1_555 1_555
C45_2 O29_2 1_555 1_555
C46_2 C45_2 1_555 1_555
C53_2 O34_2 1_555 1_555
C54_2 C53_2 1_555 1_555
C55_2 C54_2 1_555 1_555
H27_2 C55_2 1_555 1_555
C59_2 C54_2 1_555 1_555
H30_2 C59_2 1_555 1_555
O30_2 C45_2 1_555 1_555
Sm5_2 O39_2 1_555 1_555
Sm8 O52_2 1_555 1_555
O39_2 C61_2 1_555 1_555
O41_2 C61_2 1_555 1_555
O52_2 C77_2 1_555 1_555
C61_2 C62_2 1_555 1_555
C67_2 C62_2 1_555 1_555
H34_2 C67_2 1_555 1_555
C77_2 C78_2 1_555 1_555
C78_2 C79_2 1_555 1_555
H39_2 C79_2 1_555 1_555
C66_2 C67_2 1_555 1_555
H20_2 C40_2 1_555 1_555
Sm5_2 O1_2 1_555 1_555
O3_2 Sm5_2 1_555 1_555
O5_2 Sm5_2 1_555 1_555
O6_2 Sm5_2 1_555 1_555
O7_2 Sm5_2 1_555 1_555
O9_2 Sm5_2 1_555 1_555
O10_2 C13_2 1_555 1_555
C5_2 O5_2 1_555 1_555
C6_2 C5_2 1_555 1_555
H5_2 C11_2 1_555 1_555
C13_2 O9_2 1_555 1_555
C14_2 C13_2 1_555 1_555
C15_2 C14_2 1_555 1_555
H7_2 C15_2 1_555 1_555
C19_2 C14_2 1_555 1_555
H10_2 C19_2 1_555 1_555
H18_2 C36_2 1_555 1_555
Sm8 O48_2 1_555 1_555
O48_2 C73_2 1_555 1_555
O50_2 Sm8 1_555 1_555
C63_2 H31_2 1_555 1_555
C64_2 C63_2 1_555 1_555
H32_2 C64_2 1_555 1_555
C73_2 O50_2 1_555 1_555
C74_2 C73_2 1_555 1_555
C75_2 C36_2 1_555 1_555
H37_2 C75_2 1_555 1_555
H40_2 C80_2 1_555 1_555
O3_2 C1_2 1_555 1_555
O6_2 C5_2 1_555 1_555
C74_2 C75_2 1_555 1_555
Sm2_2 O4_2 1_555 1_555
O11_2 Sm2_2 1_555 1_555
O12_2 C20_2 1_555 1_555
O19_2 Sm2_2 1_555 1_555
O20_2 Sm2_2 1_555 1_555
O21_2 Sm2_2 1_555 1_555
H3_2 C7_2 1_555 1_555
H8_2 C16_2 1_555 1_555
C17_2 C16_2 1_555 1_555
C18_2 C17_2 1_555 1_555
H9_2 C18_2 1_555 1_555
C20_2 O11_2 1_555 1_555
C33_2 O19_2 1_555 1_555
C34_2 C33_2 1_555 1_555
C35_2 C34_2 1_555 1_555
H17_2 C35_2 1_555 1_555
C37_2 O21_2 1_555 1_555
C38_2 C37_2 1_555 1_555
C39_2 C38_2 1_555 1_555
H19_2 C39_2 1_555 1_555
O25 C41_2 1_555 1_555
O33_2 C49_2 1_555 1_555
O42_2 Sm2_2 1_555 1_555
O44_2 Sm2_2 1_555 1_555
O46_2 Sm2_2 1_555 1_555
C41_2 O27 1_555 1_555
C42_2 C41_2 1_555 1_555
C43_2 C42_2 1_555 1_555
H21_2 C43_2 1_555 1_555
C44_2 C42_2 1_555 1_555
H22_2 C44_2 1_555 1_555
C48_2 C7_2 1_555 1_555
H24_2 C48_2 1_555 1_555
C49_2 C50_2 1_555 1_555
H26_2 C52_2 1_555 1_555
C68_2 O42_2 1_555 1_555
C69_2 O44_2 1_555 1_555
C70_2 C69_2 1_555 1_555
C71_2 C43_2 1_555 1_555
H35_2 C71_2 1_555 1_555
C72_2 C44_2 1_555 1_555
H36_2 C72_2 1_555 1_555
C76_2 C35_2 1_555 1_555
H38_2 C76_2 1_555 1_555
O20_2 C33_2 1_555 1_555
C17_2 C20_2 1_555 1_555
O46_2 C69_2 1_555 1_555
C50_2 C52_2 1_555 1_555
C70_2 C71_2 1_555 1_555
C70_2 C72_2 1_555 1_555
H2_2 C4_2 1_555 1_555
O14 C21 1_555 1_555
O15 C28 1_555 1_555
O16 C28 1_555 1_555
C21 O40 1_555 1_555
C22 C21 1_555 1_555
C23 C22 1_555 1_555
H11 C23 1_555 1_555
C24 C23 1_555 1_555
H12 C24 1_555 1_555
C25 C24 1_555 1_555
C26 C25 1_555 1_555
H13 C26 1_555 1_555
C27 C22 1_555 1_555
H14 C27 1_555 1_555
C28 C25 1_555 1_555
Sm10 O15 1_555 1_555
O28 Sm10 1_555 1_555
C26 C27 1_555 1_555
O15_2 C28_2 1_555 1_555
Sm8 O15_2 1_555 1_555
O28_2 Sm8 1_555 1_555
H11_2 C23_2 1_555 1_555
C24_2 C23_2 1_555 1_555
H12_2 C24_2 1_555 1_555
O14_2 C21_2 1_555 1_555
C21_2 O40_2 1_555 1_555
C22_2 C21_2 1_555 1_555
C27_2 C22_2 1_555 1_555
H14_2 C27_2 1_555 1_555
C26_2 C27_2 1_555 1_555
N1 C82 1_555 1_555
N2 C83 1_555 1_555
N3 C86 1_555 1_555
N4 C90 1_555 1_555
N5 C91 1_555 1_555
C81 C82 1_555 1_555
C82 H41 1_555 1_555
H42 C82 1_555 1_555
C83 N1 1_555 1_555
H43 C83 1_555 1_555
C84 N1 1_555 1_555
H44 C84 1_555 1_555
C85 N2 1_555 1_555
H45 C85 1_555 1_555
C86 N2 1_555 1_555
C87 C86 1_555 1_555
H46 C87 1_555 1_555
C88 C87 1_555 1_555
H47 C88 1_555 1_555
C89 C88 1_555 1_555
H48 C89 1_555 1_555
C90 N3 1_555 1_555
C91 N4 1_555 1_555
H49 C91 1_555 1_555
C92 N4 1_555 1_555
H50 C92 1_555 1_555
C93 N5 1_555 1_555
H51 C93 1_555 1_555
C94 N5 1_555 1_555
H52 C94 1_555 1_555
H53 C94 1_555 1_555
C95 C94 1_555 1_555
C96 C95 1_555 1_555
H54 C96 1_555 1_555
C97 C81 1_555 1_555
H55 C97 1_555 1_555
C98 C95 1_555 1_555
H56 C98 1_555 1_555
C99 C81 1_555 1_555
H57 C99 1_555 1_555
N6 C101 1_555 1_555
N7 C102 1_555 1_555
N8 C105 1_555 1_555
N9 C109 1_555 1_555
N10 C110 1_555 1_555
C100 C101 1_555 1_555
C101 H58 1_555 1_555
H59 C101 1_555 1_555
C102 N6 1_555 1_555
H60 C102 1_555 1_555
C103 N6 1_555 1_555
H61 C103 1_555 1_555
C104 N7 1_555 1_555
H62 C104 1_555 1_555
C105 N7 1_555 1_555
C106 C105 1_555 1_555
H63 C106 1_555 1_555
C107 C106 1_555 1_555
H64 C107 1_555 1_555
C108 C107 1_555 1_555
H65 C108 1_555 1_555
C109 N8 1_555 1_555
C110 N9 1_555 1_555
H66 C110 1_555 1_555
C111 N9 1_555 1_555
H67 C111 1_555 1_555
C112 N10 1_555 1_555
H68 C112 1_555 1_555
C113 N10 1_555 1_555
H69 C113 1_555 1_555
H70 C113 1_555 1_555
C114 C113 1_555 1_555
C115 C97 1_555 1_555
H71 C115 1_555 1_555
C116 C96 1_555 1_555
H72 C116 1_555 1_555
C117 C99 1_555 1_555
H73 C117 1_555 1_555
C118 C98 1_555 1_555
H74 C118 1_555 1_555
C84 C85 1_555 1_555
C89 C90 1_555 1_555
C92 C93 1_555 1_555
C100 C116 1_555 1_555
C100 C118 1_555 1_555
C103 C104 1_555 1_555
C108 C109 1_555 1_555
C111 C112 1_555 1_555
C114 C115 1_555 1_555
C114 C117 1_555 1_555
N1_2 C82_2 1_555 1_555
N2_2 C83_2 1_555 1_555
C81_2 C82_2 1_555 1_555
C82_2 H41_2 1_555 1_555
H42_2 C82_2 1_555 1_555
C83_2 N1_2 1_555 1_555
H43_2 C83_2 1_555 1_555
C84_2 N1_2 1_555 1_555
H44_2 C84_2 1_555 1_555
C85_2 N2_2 1_555 1_555
H45_2 C85_2 1_555 1_555
C99_2 C81_2 1_555 1_555
H57_2 C99_2 1_555 1_555
C84_2 C85_2 1_555 1_555
N10_2 C110_2 1_555 1_555
C110_2 N9_2 1_555 1_555
H66_2 C110_2 1_555 1_555
C111_2 N9_2 1_555 1_555
H67_2 C111_2 1_555 1_555
C112_2 N10_2 1_555 1_555
H68_2 C112_2 1_555 1_555
C113_2 N10_2 1_555 1_555
H69_2 C113_2 1_555 1_555
H70_2 C113_2 1_555 1_555
C114_2 C113_2 1_555 1_555
C115_2 C97_2 1_555 1_555
H71_2 C115_2 1_555 1_555
H73_2 C117_2 1_555 1_555
C111_2 C112_2 1_555 1_555
C114_2 C115_2 1_555 1_555
C114_2 C117_2 1_555 1_555
N3_2 C86_2 1_555 1_555
C87_2 C86_2 1_555 1_555
H46_2 C87_2 1_555 1_555
C88_2 C87_2 1_555 1_555
H47_2 C88_2 1_555 1_555
C89_2 C88_2 1_555 1_555
H48_2 C89_2 1_555 1_555
C90_2 N3_2 1_555 1_555
C89_2 C90_2 1_555 1_555
N8_2 C105_2 1_555 1_555
C106_2 C105_2 1_555 1_555
H63_2 C106_2 1_555 1_555
C107_2 C106_2 1_555 1_555
H64_2 C107_2 1_555 1_555
C108_2 C107_2 1_555 1_555
H65_2 C108_2 1_555 1_555
C109_2 N8_2 1_555 1_555
C108_2 C109_2 1_555 1_555
N5_2 C91_2 1_555 1_555
C91_2 N4_2 1_555 1_555
H49_2 C91_2 1_555 1_555
C92_2 N4_2 1_555 1_555
H50_2 C92_2 1_555 1_555
C93_2 N5_2 1_555 1_555
H51_2 C93_2 1_555 1_555
C94_2 N5_2 1_555 1_555
H52_2 C94_2 1_555 1_555
H53_2 C94_2 1_555 1_555
C95_2 C94_2 1_555 1_555
C96_2 C95_2 1_555 1_555
H54_2 C96_2 1_555 1_555
C98_2 C95_2 1_555 1_555
H56_2 C98_2 1_555 1_555
C116_2 C96_2 1_555 1_555
C92_2 C93_2 1_555 1_555
N6_2 C101_2 1_555 1_555
N7_2 C102_2 1_555 1_555
C100_2 C101_2 1_555 1_555
C101_2 H58_2 1_555 1_555
H59_2 C101_2 1_555 1_555
C102_2 N6_2 1_555 1_555
H60_2 C102_2 1_555 1_555
C103_2 N6_2 1_555 1_555
H61_2 C103_2 1_555 1_555
C104_2 N7_2 1_555 1_555
H62_2 C104_2 1_555 1_555
H74_2 C118_2 1_555 1_555
C100_2 C118_2 1_555 1_555
C103_2 C104_2 1_555 1_555
N15 C128 1_555 1_555
C128 N14 1_555 1_555
H83 C128 1_555 1_555
C129 N14 1_555 1_555
H84 C129 1_555 1_555
C130 N15 1_555 1_555
H85 C130 1_555 1_555
C131 N15 1_555 1_555
H86 C131 1_555 1_555
H87 C131 1_555 1_555
C132 C131 1_555 1_555
C133 C132 1_555 1_555
H88 C133 1_555 1_555
C134 C133 1_555 1_555
H89 C134 1_555 1_555
C137 C132 1_555 1_555
H91 C137 1_555 1_555
N16 C138 1_555 1_555
N17 C139 1_555 1_555
C138 H92 1_555 1_555
H93 C138 1_555 1_555
C139 N16 1_555 1_555
H94 C139 1_555 1_555
C140 N16 1_555 1_555
H95 C140 1_555 1_555
C141 N17 1_555 1_555
H96 C141 1_555 1_555
C154 C134 1_555 1_555
C155 C137 1_555 1_555
H107 C155 1_555 1_555
C129 C130 1_555 1_555
C138 C154 1_555 1_555
C140 C141 1_555 1_555
C154 C155 1_555 1_555
N13 C123 1_555 1_555
C124 C123 1_555 1_555
H80 C124 1_555 1_555
C125 C124 1_555 1_555
H81 C125 1_555 1_555
C126 C125 1_555 1_555
H82 C126 1_555 1_555
C127 N13 1_555 1_555
C126 C127 1_555 1_555
N18 C142 1_555 1_555
C143 C142 1_555 1_555
H97 C143 1_555 1_555
C144 C143 1_555 1_555
H98 C144 1_555 1_555
C145 C144 1_555 1_555
H99 C145 1_555 1_555
C146 N18 1_555 1_555
C145 C146 1_555 1_555
N11 C119 1_555 1_555
N12 C120 1_555 1_555
C119 H75 1_555 1_555
H76 C119 1_555 1_555
C120 N11 1_555 1_555
H77 C120 1_555 1_555
C121 N11 1_555 1_555
H78 C121 1_555 1_555
C122 N12 1_555 1_555
H79 C122 1_555 1_555
C135 C119 1_555 1_555
C136 C135 1_555 1_555
H90 C136 1_555 1_555
N20 C147 1_555 1_555
C147 N19 1_555 1_555
H100 C147 1_555 1_555
C148 N19 1_555 1_555
H101 C148 1_555 1_555
C149 N20 1_555 1_555
H102 C149 1_555 1_555
C150 N20 1_555 1_555
H103 C150 1_555 1_555
H104 C150 1_555 1_555
C151 C150 1_555 1_555
C152 C151 1_555 1_555
H105 C152 1_555 1_555
C153 C135 1_555 1_555
H106 C153 1_555 1_555
C156 C136 1_555 1_555
H108 C156 1_555 1_555
C121 C122 1_555 1_555
C148 C149 1_555 1_555
C151 C156 1_555 1_555
C152 C153 1_555 1_555
H89_2 C134_2 1_555 1_555
N16_2 C138_2 1_555 1_555
N17_2 C139_2 1_555 1_555
N18_2 C142_2 1_555 1_555
N19_2 C146_2 1_555 1_555
N20_2 C147_2 1_555 1_555
C138_2 H92_2 1_555 1_555
H93_2 C138_2 1_555 1_555
C139_2 N16_2 1_555 1_555
H94_2 C139_2 1_555 1_555
C140_2 N16_2 1_555 1_555
H95_2 C140_2 1_555 1_555
C141_2 N17_2 1_555 1_555
H96_2 C141_2 1_555 1_555
C142_2 N17_2 1_555 1_555
C143_2 C142_2 1_555 1_555
H97_2 C143_2 1_555 1_555
C144_2 C143_2 1_555 1_555
H98_2 C144_2 1_555 1_555
C145_2 C144_2 1_555 1_555
H99_2 C145_2 1_555 1_555
C146_2 N18_2 1_555 1_555
C147_2 N19_2 1_555 1_555
H100_2 C147_2 1_555 1_555
C148_2 N19_2 1_555 1_555
H101_2 C148_2 1_555 1_555
C149_2 N20_2 1_555 1_555
H102_2 C149_2 1_555 1_555
C150_2 N20_2 1_555 1_555
H103_2 C150_2 1_555 1_555
H104_2 C150_2 1_555 1_555
C151_2 C150_2 1_555 1_555
C152_2 C151_2 1_555 1_555
H105_2 C152_2 1_555 1_555
C154_2 C134_2 1_555 1_555
H107_2 C155_2 1_555 1_555
H108_2 C156_2 1_555 1_555
C138_2 C154_2 1_555 1_555
C140_2 C141_2 1_555 1_555
C145_2 C146_2 1_555 1_555
C148_2 C149_2 1_555 1_555
C151_2 C156_2 1_555 1_555
C154_2 C155_2 1_555 1_555
N11_2 C119_2 1_555 1_555
N12_2 C120_2 1_555 1_555
N13_2 C123_2 1_555 1_555
N14_2 C127_2 1_555 1_555
N15_2 C128_2 1_555 1_555
C119_2 H75_2 1_555 1_555
H76_2 C119_2 1_555 1_555
C120_2 N11_2 1_555 1_555
H77_2 C120_2 1_555 1_555
C121_2 N11_2 1_555 1_555
H78_2 C121_2 1_555 1_555
C122_2 N12_2 1_555 1_555
H79_2 C122_2 1_555 1_555
C123_2 N12_2 1_555 1_555
C124_2 C123_2 1_555 1_555
H80_2 C124_2 1_555 1_555
C125_2 C124_2 1_555 1_555
H81_2 C125_2 1_555 1_555
C126_2 C125_2 1_555 1_555
H82_2 C126_2 1_555 1_555
C127_2 N13_2 1_555 1_555
C128_2 N14_2 1_555 1_555
H83_2 C128_2 1_555 1_555
C129_2 N14_2 1_555 1_555
H84_2 C129_2 1_555 1_555
C130_2 N15_2 1_555 1_555
H85_2 C130_2 1_555 1_555
C131_2 N15_2 1_555 1_555
H86_2 C131_2 1_555 1_555
H87_2 C131_2 1_555 1_555
C132_2 C131_2 1_555 1_555
C133_2 C132_2 1_555 1_555
H88_2 C133_2 1_555 1_555
C135_2 C119_2 1_555 1_555
C136_2 C135_2 1_555 1_555
H90_2 C136_2 1_555 1_555
C137_2 C132_2 1_555 1_555
H91_2 C137_2 1_555 1_555
C153_2 C135_2 1_555 1_555
H106_2 C153_2 1_555 1_555
C121_2 C122_2 1_555 1_555
C126_2 C127_2 1_555 1_555
C129_2 C130_2 1_555 1_555

#END
