
###############################################################################
#
# This file contains modified crystal structure data generated from the
# MOF subset of the Cambridge Structural Database (CSD) v543 
# hosted by the Cambridge Crystallographic Data Centre (CCDC).
#
# This work is licensed under the Creative Commons
# Attribution-NonCommercial-ShareAlike 4.0 International License.
# To view a copy of this license, visit
# http://creativecommons.org/licenses/by-nc-sa/4.0/
# or send a letter to
# Creative Commons, PO Box 1866, Mountain View, CA 94042, USA.
#
# CIF created using the CSD Python API on 29 September 2022
# The structure has been converted into the P1 space group
# The structure has a 3D framework
# The original CSD entry ZEDWAI is in the monoclinic crystal system
# The framework has been calculated to contain at least 10.0% void space
# The void calculation uses a probe of radius 1.32A, grid spacing 0.4
# The framework is charged, counterions have been retained in the structure
# H atom positions have been added when not included in the experimental data
# Generated hydrogen atom positions removed from atoms on special positions
#
###############################################################################

data_ZEDWAI
_chemical_formula_moiety         '(C312 H244 N40 O87 Tb8 1+)n'
_symmetry_cell_setting           triclinic
_symmetry_space_group_name_H-M   'P 1'
_symmetry_Int_Tables_number      1
_space_group_name_Hall           'P 1'
loop_
_symmetry_equiv_pos_site_id
_symmetry_equiv_pos_as_xyz
1 x,y,z
_cell_length_a                   23.896(5)
_cell_length_b                   11.350(2)
_cell_length_c                   32.793(7)
_cell_angle_alpha                90
_cell_angle_beta                 97.64(3)
_cell_angle_gamma                90
_cell_volume                     8815.15
loop_
_atom_site_label
_atom_site_type_symbol
_atom_site_fract_x
_atom_site_fract_y
_atom_site_fract_z
O22 O 0.0024(6) 0.5297(12) 0.6132(4)
C40 C 0.0259(6) 0.5677(13) 0.5306(5)
H20 H 0.0446 0.6148 0.5513
Tb10 Tb 0.12554(3) 0.73424(6) 0.398870(18)
O52 O 0.0554(4) 0.6145(10) 0.4092(3)
C44 C 0.0219(6) 0.0383(14) 0.7594(5)
H22 H 0.0586 0.0563 0.7710
H36 H 0.0125 0.1714 0.7188
C77 C 0.0235(7) 0.5338(14) 0.4165(5)
C78 C 0.0110(6) 0.5168(12) 0.4597(5)
C79 C 0.0358(7) 0.5842(15) 0.4903(5)
H39 H 0.0603 0.6436 0.4844
C35 C 0.0025(7) 0.9674(14) 0.5407(5)
H17 H 0.0028 0.9438 0.5679
Tb6 Tb 0.08539(3) 0.74103(6) 0.874452(18)
O24 O 0.0014(4) 0.7862(9) 0.8230(3)
O26 O 0.0759(4) 0.8898(9) 0.8215(3)
O48 O 0.0579(4) 0.8914(9) 0.4089(3)
O50 O 0.1084(4) 0.8183(9) 0.4630(3)
C41 C 0.0272(7) 0.8684(14) 0.8088(5)
C73 C 0.0663(6) 0.8798(13) 0.4449(5)
C74 C 0.0326(5) 0.9429(12) 0.4748(5)
C76 C 0.0367(7) 0.9126(13) 0.5167(5)
H38 H 0.0624 0.8559 0.5277
Tb2 Tb 0.87446(3) 0.26576(6) 0.601130(18)
O4 O 0.8327(5) 0.4049(9) 0.6408(3)
O8 O 0.4622(5) 0.0208(10) 0.3884(4)
O10 O 0.7050(6) 0.0247(13) 0.3803(4)
O11 O 0.7895(4) 0.1779(10) 0.5868(3)
O12 O 0.7216(6) 0.0701(12) 0.6042(4)
O19 O 0.9421(4) 0.1086(9) 0.5911(3)
O20 O 0.8916(4) 0.1817(9) 0.5370(3)
O21 O 0.9446(4) 0.3855(10) 0.5908(3)
C12 C 0.4659(6) 0.0697(12) 0.4726(5)
H6 H 0.4428 0.1178 0.4546
C14 C 0.7019(6) 0.0079(11) 0.4522(4)
C17 C 0.7318(6) 0.0757(13) 0.5355(5)
C18 C 0.7501(6) 0.1379(13) 0.5017(5)
H9 H 0.7725 0.2045 0.5072
C19 C 0.7362(6) 0.1035(13) 0.4613(5)
H10 H 0.7500 0.1451 0.4403
C20 C 0.7510(7) 0.1100(14) 0.5771(5)
C33 C 0.9337(6) 0.1202(13) 0.5551(5)
C34 C 0.9674(5) 0.0571(12) 0.5252(5)
C36 C 0.9633(7) 0.0874(13) 0.4833(5)
H18 H 0.9376 0.1441 0.4723
C37 C 0.9765(7) 0.4662(14) 0.5835(5)
C38 C 0.9890(6) 0.4832(12) 0.5403(5)
C39 C 0.9642(7) 0.4158(15) 0.5097(5)
H19 H 0.9397 0.3564 0.5156
Tb4 Tb 0.41461(3) 0.24103(6) 0.625548(18)
Tb5 Tb 0.58539(3) 0.75897(6) 0.374452(18)
O31 O 0.4787(4) 0.1209(9) 0.6011(3)
O39 O 0.6686(4) 0.6689(10) 0.3775(3)
O41 O 0.7457(5) 0.6093(12) 0.3551(4)
O42 O 0.8290(4) 0.3953(9) 0.5543(3)
O43 O 0.7845(4) 0.5422(10) 0.5797(3)
O44 O 0.9359(5) 0.2475(9) 0.6656(3)
O46 O 0.8695(4) 0.1205(11) 0.6568(3)
O54 O 0.9976(6) 0.4703(12) 0.3868(4)
C49 C 0.5065(6) 0.0415(13) 0.5883(5)
C50 C 0.5024(6) 0.0195(13) 0.5436(5)
C51 C 0.4683(6) 0.0878(12) 0.5146(4)
H25 H 0.4465 0.1474 0.5239
C61 C 0.7161(6) 0.6256(14) 0.3818(5)
C62 C 0.7421(6) 0.5943(13) 0.4260(5)
C63 C 0.7750(6) 0.4985(15) 0.4331(5)
H31 H 0.7850 0.4556 0.4110
C64 C 0.7943(6) 0.4630(13) 0.4730(5)
H32 H 0.8168 0.3961 0.4774
C65 C 0.7804(6) 0.5265(12) 0.5066(5)
C66 C 0.7455(6) 0.6233(12) 0.4982(4)
H33 H 0.7337 0.6655 0.5198
C67 C 0.7281(6) 0.6583(13) 0.4585(5)
H34 H 0.7065 0.7263 0.4536
C68 C 0.8003(6) 0.4829(13) 0.5507(5)
C69 C 0.9118(6) 0.1513(15) 0.6754(5)
C70 C 0.9432(6) 0.0841(14) 0.7117(5)
C72 C 0.9940(6) 0.1069(14) 0.7282(4)
C75 C 0.9975(7) 0.0326(14) 0.4593(5)
H37 H 0.9972 0.0562 0.4321
C80 C 0.9741(6) 0.4323(13) 0.4694(5)
H40 H 0.9554 0.3852 0.4487
O1 O 0.5870(5) 0.8810(11) 0.3159(4)
O2 O 0.5014(4) 0.7138(9) 0.3230(3)
O3 O 0.5759(4) 0.6102(9) 0.3215(3)
O5 O 0.5321(4) 0.5980(8) 0.3989(3)
O6 O 0.5912(4) 0.6890(9) 0.4462(3)
O7 O 0.5213(4) 0.8791(9) 0.3989(3)
O9 O 0.6442(5) 0.8993(11) 0.4021(4)
O17 O 0.4359(5) 0.2525(9) 0.1656(3)
O18 O 0.3695(4) 0.3795(11) 0.1568(3)
C1 C 0.5272(7) 0.6316(14) 0.3088(5)
C2 C 0.4939(6) 0.5565(13) 0.2727(4)
C3 C 0.4422(6) 0.5839(13) 0.2572(5)
H1 H 0.4242 0.6493 0.2665
C4 C 0.5219(6) 0.4617(14) 0.2594(5)
H2 H 0.5586 0.4437 0.2710
C5 C 0.5530(6) 0.6183(13) 0.4369(4)
C6 C 0.5248(6) 0.5558(12) 0.4701(4)
C7 C 0.5368(6) 0.5914(13) 0.5100(4)
H3 H 0.5625 0.6522 0.5167
C8 C 0.4886(6) 0.4618(14) 0.4597(4)
H4 H 0.4817 0.4354 0.4327
C9 C 0.4935(6) 0.9585(13) 0.4117(5)
C10 C 0.4976(6) 0.9805(13) 0.4564(5)
C11 C 0.5317(6) 0.9122(12) 0.4854(4)
H5 H 0.5535 0.8526 0.4761
C13 C 0.6821(7) 0.9753(15) 0.4087(6)
C15 C 0.6836(6) 0.9458(12) 0.4848(5)
H7 H 0.6615 0.8790 0.4789
C16 C 0.6968(6) 0.9789(14) 0.5239(6)
H8 H 0.6823 0.9360 0.5443
C29 C 0.4118(6) 0.3487(15) 0.1754(5)
C30 C 0.4432(6) 0.4159(14) 0.2117(5)
C31 C 0.4159(6) 0.5137(14) 0.2270(4)
H15 H 0.3788 0.5304 0.2161
C32 C 0.4940(6) 0.3931(14) 0.2282(4)
H16 H 0.5125 0.3286 0.2188
Tb8 Tb 0.37446(3) 0.23424(6) 0.101130(18)
O23 O 0.4130(5) 0.1190(11) 0.6841(4)
O25 O 0.4986(4) 0.2862(9) 0.6770(3)
O27 O 0.4241(4) 0.3898(9) 0.6785(3)
O29 O 0.4679(4) 0.4020(8) 0.6011(3)
O30 O 0.4088(4) 0.3110(9) 0.5538(3)
O33 O 0.5378(5) 0.9792(10) 0.6116(4)
O34 O 0.3558(5) 0.1007(11) 0.5979(4)
O40 O 0.3314(4) 0.3311(10) 0.6225(3)
C42 C 0.9939(6) 0.9435(13) 0.7727(4)
C43 C 0.9422(6) 0.9161(13) 0.7572(5)
H21 H 0.9242 0.8507 0.7665
C45 C 0.4470(6) 0.3817(13) 0.5631(4)
C46 C 0.4752(6) 0.4442(12) 0.5299(4)
C47 C 0.4632(6) 0.4086(13) 0.4900(4)
H23 H 0.4375 0.3478 0.4833
C48 C 0.5114(6) 0.5382(14) 0.5403(4)
H24 H 0.5183 0.5646 0.5673
C52 C 0.5341(6) 0.9303(12) 0.5274(5)
H26 H 0.5572 0.8822 0.5454
C53 C 0.3179(7) 0.0247(15) 0.5913(6)
C55 C 0.3164(6) 0.0542(12) 0.5152(5)
H27 H 0.3385 0.1210 0.5211
C56 C 0.3032(6) 0.0211(14) 0.4761(6)
H28 H 0.3177 0.0640 0.4557
C71 C 0.9159(6) 0.9863(14) 0.7270(4)
H35 H 0.8788 0.9696 0.7161
O35 O 0.2950(6) 0.9753(13) 0.6197(4)
O36 O 0.2105(4) 0.8221(10) 0.4132(3)
O38 O 0.2784(6) 0.9299(12) 0.3958(4)
C54 C 0.2981(6) 0.9921(11) 0.5478(4)
C57 C 0.2682(6) 0.9243(13) 0.4645(5)
C58 C 0.2499(6) 0.8621(13) 0.4983(5)
H29 H 0.2275 0.7955 0.4928
C59 C 0.2638(6) 0.8965(13) 0.5387(5)
H30 H 0.2500 0.8549 0.5597
C60 C 0.2490(7) 0.8900(14) 0.4229(5)
O8_2 O 0.0378(5) 0.5208(10) 0.1116(4)
C2_2 C 0.0061(6) 0.0565(13) 0.2273(4)
C3_2 C 0.0578(6) 0.0839(13) 0.2428(5)
H1_2 H 0.0758 0.1493 0.2335
C9_2 C 0.0065(6) 0.4585(13) 0.0883(5)
C10_2 C 0.0024(6) 0.4805(13) 0.0436(5)
C12_2 C 0.0341(6) 0.5697(12) 0.0274(5)
H6_2 H 0.0572 0.6178 0.0454
C31_2 C 0.0841(6) 0.0137(14) 0.2730(4)
H15_2 H 0.1212 0.0304 0.2839
O31_2 O 0.0213(4) 0.6209(9) 0.8989(3)
C51_2 C 0.0317(6) 0.5878(12) 0.9854(4)
H25_2 H 0.0535 0.6474 0.9761
O17_2 O 0.0641(5) 0.7525(9) 0.3344(3)
O18_2 O 0.1305(4) 0.8795(11) 0.3432(3)
C8_2 C 0.0114(6) 0.9618(14) 0.0403(4)
H4_2 H 0.0183 0.9354 0.0673
C29_2 C 0.0882(6) 0.8487(15) 0.3246(5)
C30_2 C 0.0568(6) 0.9159(14) 0.2883(5)
C32_2 C 0.0060(6) 0.8931(14) 0.2718(4)
O36_2 O 0.2895(4) 0.3221(10) 0.0868(3)
O38_2 O 0.2216(6) 0.4299(12) 0.1042(4)
C47_2 C 0.0368(6) 0.9086(13) 0.0100(4)
H23_2 H 0.0625 0.8478 0.0167
C56_2 C 0.1968(6) 0.5211(14) 0.0239(6)
H28_2 H 0.1823 0.5640 0.0443
C57_2 C 0.2318(6) 0.4243(13) 0.0355(5)
C58_2 C 0.2501(6) 0.3621(13) 0.0017(5)
H29_2 H 0.2725 0.2955 0.0072
C60_2 C 0.2510(7) 0.3900(14) 0.0771(5)
O23_2 O 0.0870(5) 0.6190(11) 0.8159(4)
O29_2 O 0.0321(4) 0.9020(8) 0.8989(3)
O30_2 O 0.0912(4) 0.8110(9) 0.9462(3)
O34_2 O 0.1442(5) 0.6007(11) 0.9021(4)
O35_2 O 0.2050(6) 0.4753(13) 0.8803(4)
O40_2 O 0.1686(4) 0.8311(10) 0.8775(3)
C45_2 C 0.0530(6) 0.8817(13) 0.9369(4)
C46_2 C 0.0248(6) 0.9442(12) 0.9701(4)
C53_2 C 0.1821(7) 0.5247(15) 0.9087(6)
C54_2 C 0.2019(6) 0.4921(11) 0.9522(4)
C55_2 C 0.1836(6) 0.5542(12) 0.9848(5)
H27_2 H 0.1615 0.6210 0.9789
C59_2 C 0.2362(6) 0.3965(13) 0.9613(5)
H30_2 H 0.2500 0.3549 0.9403
Tb5_2 Tb 0.91461(3) 0.25897(6) 0.125548(18)
O39_2 O 0.8314(4) 0.1689(10) 0.1225(3)
O41_2 O 0.7543(5) 0.1093(12) 0.1449(4)
O52_2 O 0.4446(4) 0.1145(10) 0.0908(3)
C61_2 C 0.7839(6) 0.1256(14) 0.1182(5)
C62_2 C 0.7579(6) 0.0943(13) 0.0740(5)
C66_2 C 0.7545(6) 0.1233(12) 0.0018(4)
C67_2 C 0.7719(6) 0.1583(13) 0.0415(5)
H34_2 H 0.7935 0.2263 0.0464
C77_2 C 0.4765(7) 0.0338(14) 0.0835(5)
C78_2 C 0.4890(6) 0.0168(12) 0.0403(5)
C79_2 C 0.4642(7) 0.0842(15) 0.0097(5)
H39_2 H 0.4397 0.1436 0.0156
O22_2 O 0.4976(6) 0.0297(12) 0.8868(4)
C40_2 C 0.4741(6) 0.0677(13) 0.9694(5)
H20_2 H 0.4554 0.1148 0.9487
O43_2 O 0.7155(4) 0.0422(10) 0.9203(3)
C65_2 C 0.7196(6) 0.0265(12) 0.9934(5)
H33_2 H 0.7663 0.1655 0.9802
O1_2 O 0.9130(5) 0.3810(11) 0.1841(4)
O2_2 O 0.9986(4) 0.2138(9) 0.1770(3)
O3_2 O 0.9241(4) 0.1102(9) 0.1785(3)
O5_2 O 0.9679(4) 0.0980(8) 0.1011(3)
O6_2 O 0.9088(4) 0.1890(9) 0.0538(3)
O7_2 O 0.9787(4) 0.3791(9) 0.1011(3)
O9_2 O 0.8558(5) 0.3993(11) 0.0979(4)
O10_2 O 0.7950(6) 0.5247(13) 0.1197(4)
C1_2 C 0.9728(7) 0.1316(14) 0.1912(5)
C5_2 C 0.9470(6) 0.1183(13) 0.0631(4)
C6_2 C 0.9752(6) 0.0558(12) 0.0299(4)
C11_2 C 0.9683(6) 0.4122(12) 0.0146(4)
H5_2 H 0.9465 0.3526 0.0239
C13_2 C 0.8179(7) 0.4753(15) 0.0913(6)
C14_2 C 0.7981(6) 0.5079(11) 0.0478(4)
C15_2 C 0.8164(6) 0.4458(12) 0.0152(5)
H7_2 H 0.8385 0.3790 0.0211
C19_2 C 0.7638(6) 0.6035(13) 0.0387(5)
H10_2 H 0.7500 0.6451 0.0597
C36_2 C 0.5367(7) 0.5874(13) 0.0167(5)
H18_2 H 0.5624 0.6441 0.0277
O48_2 O 0.4421(4) 0.3914(9) 0.0911(3)
O50_2 O 0.3916(4) 0.3183(9) 0.0370(3)
O54_2 O 0.5024(6) 0.9703(12) 0.1132(4)
C63_2 C 0.7250(6) 0.9985(15) 0.0669(5)
H31_2 H 0.7150 0.9556 0.0890
C64_2 C 0.7057(6) 0.9630(13) 0.0270(5)
H32_2 H 0.6832 0.8961 0.0226
C73_2 C 0.4337(6) 0.3798(13) 0.0551(5)
C74_2 C 0.4674(5) 0.4429(12) 0.0252(5)
C75_2 C 0.5025(7) 0.5326(14) 0.0407(5)
H37_2 H 0.5028 0.5562 0.0679
C80_2 C 0.5259(6) 0.9323(13) 0.0306(5)
H40_2 H 0.5446 0.8852 0.0513
Tb2_2 Tb 0.62554(3) 0.76576(6) 0.898870(18)
O4_2 O 0.6673(5) 0.9049(9) 0.8592(3)
O11_2 O 0.7105(4) 0.6779(10) 0.9132(3)
O12_2 O 0.7784(6) 0.5701(12) 0.8958(4)
O19_2 O 0.5579(4) 0.6086(9) 0.9089(3)
O20_2 O 0.6084(4) 0.6817(9) 0.9630(3)
O21_2 O 0.5554(4) 0.8855(10) 0.9092(3)
C7_2 C 0.9632(6) 0.0914(13) 0.9900(4)
H3_2 H 0.9375 0.1522 0.9833
C16_2 C 0.8032(6) 0.4789(14) 0.9761(6)
H8_2 H 0.8177 0.4360 0.9557
C17_2 C 0.7682(6) 0.5757(13) 0.9645(5)
C18_2 C 0.7499(6) 0.6379(13) 0.9983(5)
H9_2 H 0.7275 0.7045 0.9928
C20_2 C 0.7490(7) 0.6100(14) 0.9229(5)
C33_2 C 0.5663(6) 0.6202(13) 0.9449(5)
C34_2 C 0.5326(5) 0.5571(12) 0.9748(5)
C35_2 C 0.4975(7) 0.4674(14) 0.9593(5)
H17_2 H 0.4972 0.4438 0.9321
C37_2 C 0.5235(7) 0.9662(14) 0.9165(5)
C38_2 C 0.5110(6) 0.9832(12) 0.9597(5)
C39_2 C 0.5358(7) 0.9158(15) 0.9903(5)
H19_2 H 0.5603 0.8564 0.9844
O33_2 O 0.9622(5) 0.4792(10) 0.8884(4)
O42_2 O 0.6710(4) 0.8953(9) 0.9457(3)
O44_2 O 0.5641(5) 0.7475(9) 0.8344(3)
O46_2 O 0.6305(4) 0.6205(11) 0.8432(3)
C41_2 C 0.4728(7) 0.3684(14) 0.6912(5)
C42_2 C 0.5061(6) 0.4435(13) 0.7273(4)
C43_2 C 0.5578(6) 0.4161(13) 0.7428(5)
H21_2 H 0.5758 0.3507 0.7335
C44_2 C 0.4781(6) 0.5383(14) 0.7406(5)
H22_2 H 0.4414 0.5563 0.7290
C48_2 C 0.9886(6) 0.0382(14) 0.9597(4)
H24_2 H 0.9817 0.0646 0.9327
C49_2 C 0.9935(6) 0.5415(13) 0.9117(5)
C50_2 C 0.9976(6) 0.5195(13) 0.9564(5)
C52_2 C 0.9659(6) 0.4303(12) 0.9726(5)
H26_2 H 0.9428 0.3822 0.9546
C68_2 C 0.6997(6) 0.9829(13) 0.9493(5)
C69_2 C 0.5882(6) 0.6513(15) 0.8246(5)
C70_2 C 0.5568(6) 0.5841(14) 0.7883(5)
C71_2 C 0.5841(6) 0.4863(14) 0.7730(4)
H35_2 H 0.6212 0.4696 0.7839
C72_2 C 0.5060(6) 0.6069(14) 0.7718(4)
H36_2 H 0.4875 0.6714 0.7812
C76_2 C 0.4633(7) 0.4126(13) 0.9833(5)
H38_2 H 0.4376 0.3559 0.9723
C4_2 C 0.9781(6) 0.9617(14) 0.2406(5)
H2_2 H 0.9414 0.9437 0.2290
H16_2 H 0.9875 0.8286 0.2812
O14 O 0.2543(5) 0.3907(12) 0.6449(4)
O15 O 0.1710(4) 0.6047(9) 0.4457(3)
O16 O 0.2155(4) 0.4578(10) 0.4203(3)
C21 C 0.2839(6) 0.3744(14) 0.6182(5)
C22 C 0.2579(6) 0.4057(13) 0.5740(5)
C23 C 0.2250(6) 0.5015(15) 0.5669(5)
H11 H 0.2150 0.5444 0.5890
C24 C 0.2057(6) 0.5370(13) 0.5270(5)
H12 H 0.1832 0.6039 0.5226
C25 C 0.2196(6) 0.4735(12) 0.4934(5)
C26 C 0.2545(6) 0.3767(12) 0.5018(4)
H13 H 0.2663 0.3345 0.4802
C27 C 0.2719(6) 0.3417(13) 0.5415(5)
H14 H 0.2935 0.2737 0.5464
C28 C 0.1997(6) 0.5171(13) 0.4493(5)
O28 O 0.1673(5) 0.5951(9) 0.3592(3)
O15_2 O 0.3290(4) 0.1047(9) 0.0543(3)
C28_2 C 0.3003(6) 0.0171(13) 0.0507(5)
O28_2 O 0.3327(5) 0.0951(9) 0.1408(3)
C23_2 C 0.2750(6) 0.0015(15) 0.9331(5)
H11_2 H 0.2850 0.0444 0.9110
C24_2 C 0.2943(6) 0.0370(13) 0.9730(5)
H12_2 H 0.3168 0.1039 0.9774
O16_2 O 0.2845(4) 0.9578(10) 0.0797(3)
C25_2 C 0.2804(6) 0.9735(12) 0.0066(5)
H13_2 H 0.2337 0.8345 0.0198
O14_2 O 0.2457(5) 0.8907(12) 0.8551(4)
C21_2 C 0.2161(6) 0.8744(14) 0.8818(5)
C22_2 C 0.2421(6) 0.9057(13) 0.9260(5)
C26_2 C 0.2455(6) 0.8767(12) 0.9982(4)
C27_2 C 0.2281(6) 0.8417(13) 0.9585(5)
H14_2 H 0.2065 0.7737 0.9536
N1 N 0.3675(5) 0.6654(11) 0.3968(4)
N2 N 0.3650(5) 0.5189(11) 0.3537(4)
N3 N 0.4331(5) 0.3892(11) 0.3443(4)
N4 N 0.5110(5) 0.2730(11) 0.3418(4)
N5 N 0.5928(5) 0.2963(11) 0.3723(4)
C81 C 0.3824(5) 0.7190(12) 0.4710(5)
C82 C 0.3901(6) 0.7510(13) 0.4265(5)
H41 H 0.3720 0.8262 0.4196
H42 H 0.4301 0.7604 0.4249
C83 C 0.3965(6) 0.5874(14) 0.3767(5)
H43 H 0.4357 0.5845 0.3795
C84 C 0.3149(7) 0.6447(17) 0.3815(7)
H44 H 0.2842 0.6866 0.3887
C85 C 0.3106(7) 0.5560(15) 0.3543(6)
H45 H 0.2779 0.5264 0.3392
C86 C 0.3823(6) 0.4168(14) 0.3331(5)
C87 C 0.3471(6) 0.3611(16) 0.3034(5)
H46 H 0.3107 0.3886 0.2951
C88 C 0.3675(8) 0.2624(17) 0.2859(6)
H47 H 0.3447 0.2192 0.2661
C89 C 0.4225(7) 0.2293(16) 0.2987(5)
H48 H 0.4383 0.1626 0.2883
C90 C 0.4519(7) 0.2982(14) 0.3269(5)
C91 C 0.5433(6) 0.3444(14) 0.3638(5)
H49 H 0.5331 0.4186 0.3723
C92 C 0.5406(7) 0.1745(15) 0.3337(6)
H50 H 0.5269 0.1097 0.3181
C93 C 0.5905(8) 0.1896(16) 0.3517(6)
H51 H 0.6205 0.1377 0.3511
C94 C 0.6393(6) 0.3409(16) 0.4037(6)
H52 H 0.6743 0.3030 0.3992
H53 H 0.6437 0.4249 0.3997
C95 C 0.6292(6) 0.3194(14) 0.4469(5)
C96 C 0.6062(6) 0.2188(14) 0.4583(5)
H54 H 0.5941 0.1613 0.4389
C97 C 0.3993(6) 0.7981(14) 0.5014(6)
H55 H 0.4156 0.8680 0.4941
C98 C 0.6464(7) 0.3981(15) 0.4757(6)
H56 H 0.6624 0.4677 0.4677
C99 C 0.3581(6) 0.6182(13) 0.4815(6)
H57 H 0.3450 0.5619 0.4619
N6 N 0.6325(5) 0.3346(11) 0.6032(4)
N7 N 0.6350(5) 0.4811(11) 0.6463(4)
N8 N 0.5669(5) 0.6108(11) 0.6557(4)
N9 N 0.4890(5) 0.7270(11) 0.6582(4)
N10 N 0.4072(5) 0.7037(11) 0.6277(4)
C100 C 0.6176(5) 0.2810(12) 0.5290(5)
C101 C 0.6099(6) 0.2490(13) 0.5735(5)
H58 H 0.6280 0.1738 0.5804
H59 H 0.5699 0.2396 0.5751
C102 C 0.6035(6) 0.4126(14) 0.6233(5)
H60 H 0.5643 0.4155 0.6205
C103 C 0.6851(7) 0.3553(17) 0.6185(7)
H61 H 0.7158 0.3134 0.6113
C104 C 0.6894(7) 0.4440(15) 0.6457(6)
H62 H 0.7221 0.4736 0.6608
C105 C 0.6177(6) 0.5832(14) 0.6669(5)
C106 C 0.6529(6) 0.6389(16) 0.6966(5)
H63 H 0.6893 0.6114 0.7049
C107 C 0.6325(8) 0.7376(17) 0.7141(6)
H64 H 0.6553 0.7808 0.7339
C108 C 0.5775(7) 0.7707(16) 0.7013(5)
H65 H 0.5617 0.8374 0.7117
C109 C 0.5481(7) 0.7018(14) 0.6731(5)
C110 C 0.4567(6) 0.6556(14) 0.6362(5)
H66 H 0.4669 0.5814 0.6277
C111 C 0.4594(7) 0.8255(15) 0.6663(6)
H67 H 0.4731 0.8903 0.6819
C112 C 0.4095(8) 0.8104(16) 0.6483(6)
H68 H 0.3795 0.8623 0.6489
C113 C 0.3607(6) 0.6591(16) 0.5963(6)
H69 H 0.3257 0.6970 0.6008
H70 H 0.3563 0.5751 0.6003
C114 C 0.3708(6) 0.6806(14) 0.5531(5)
C115 C 0.3938(6) 0.7812(14) 0.5417(5)
H71 H 0.4059 0.8387 0.5611
C116 C 0.6007(6) 0.2019(14) 0.4986(6)
H72 H 0.5844 0.1320 0.5059
C117 C 0.3536(7) 0.6019(15) 0.5243(6)
H73 H 0.3376 0.5323 0.5323
C118 C 0.6419(6) 0.3818(13) 0.5185(6)
H74 H 0.6550 0.4381 0.5381
N1_2 N 0.1325(5) 0.1654(11) 0.1032(4)
N2_2 N 0.1350(5) 0.0189(11) 0.1463(4)
C81_2 C 0.1176(5) 0.2190(12) 0.0290(5)
C82_2 C 0.1099(6) 0.2510(13) 0.0735(5)
H41_2 H 0.1280 0.3262 0.0804
H42_2 H 0.0699 0.2604 0.0751
C83_2 C 0.1035(6) 0.0874(14) 0.1233(5)
H43_2 H 0.0643 0.0845 0.1205
C84_2 C 0.1851(7) 0.1447(17) 0.1185(7)
H44_2 H 0.2158 0.1866 0.1113
C85_2 C 0.1894(7) 0.0560(15) 0.1457(6)
H45_2 H 0.2221 0.0264 0.1608
H55_2 H 0.0844 0.3680 0.0059
C99_2 C 0.1419(6) 0.1182(13) 0.0185(6)
H57_2 H 0.1550 0.0619 0.0381
C97_2 C 0.1007(6) 0.2981(14) 0.9986(6)
N9_2 N 0.0110(5) 0.2270(11) 0.8418(4)
N10_2 N 0.0928(5) 0.2037(11) 0.8723(4)
C110_2 C 0.0433(6) 0.1556(14) 0.8638(5)
H66_2 H 0.0331 0.0814 0.8723
C111_2 C 0.0406(7) 0.3255(15) 0.8337(6)
H67_2 H 0.0269 0.3903 0.8181
C112_2 C 0.0905(8) 0.3104(16) 0.8517(6)
H68_2 H 0.1205 0.3623 0.8511
C113_2 C 0.1393(6) 0.1591(16) 0.9037(6)
H69_2 H 0.1743 0.1970 0.8992
H70_2 H 0.1437 0.0751 0.8997
C114_2 C 0.1292(6) 0.1806(14) 0.9469(5)
C115_2 C 0.1062(6) 0.2812(14) 0.9583(5)
H71_2 H 0.0941 0.3387 0.9389
C117_2 C 0.1464(7) 0.1019(15) 0.9757(6)
H73_2 H 0.1624 0.0323 0.9677
N3_2 N 0.0669(5) 0.8892(11) 0.1557(4)
C86_2 C 0.1177(6) 0.9168(14) 0.1669(5)
C87_2 C 0.1529(6) 0.8611(16) 0.1966(5)
H46_2 H 0.1893 0.8886 0.2049
C88_2 C 0.1325(8) 0.7624(17) 0.2141(6)
H47_2 H 0.1553 0.7192 0.2339
C89_2 C 0.0775(7) 0.7293(16) 0.2013(5)
H48_2 H 0.0617 0.6626 0.2117
C90_2 C 0.0481(7) 0.7982(14) 0.1731(5)
N8_2 N 0.9331(5) 0.1108(11) 0.8443(4)
C105_2 C 0.8823(6) 0.0832(14) 0.8331(5)
C106_2 C 0.8471(6) 0.1389(16) 0.8034(5)
H63_2 H 0.8107 0.1114 0.7951
C107_2 C 0.8675(8) 0.2376(17) 0.7859(6)
H64_2 H 0.8447 0.2808 0.7661
C108_2 C 0.9225(7) 0.2707(16) 0.7987(5)
H65_2 H 0.9383 0.3374 0.7883
C109_2 C 0.9519(7) 0.2018(14) 0.8269(5)
N4_2 N 0.9890(5) 0.7730(11) 0.1582(4)
N5_2 N 0.9072(5) 0.7963(11) 0.1277(4)
C91_2 C 0.9567(6) 0.8444(14) 0.1362(5)
H49_2 H 0.9669 0.9186 0.1277
C92_2 C 0.9594(7) 0.6745(15) 0.1663(6)
H50_2 H 0.9731 0.6097 0.1819
C93_2 C 0.9095(8) 0.6896(16) 0.1483(6)
H51_2 H 0.8795 0.6377 0.1489
C94_2 C 0.8607(6) 0.8409(16) 0.0963(6)
H52_2 H 0.8257 0.8030 0.1008
H53_2 H 0.8563 0.9249 0.1003
C95_2 C 0.8708(6) 0.8194(14) 0.0531(5)
C96_2 C 0.8938(6) 0.7188(14) 0.0417(5)
H54_2 H 0.9059 0.6613 0.0611
C98_2 C 0.8536(7) 0.8981(15) 0.0243(6)
H56_2 H 0.8376 0.9677 0.0323
C116_2 C 0.8993(6) 0.7019(14) 0.0014(6)
N6_2 N 0.8675(5) 0.8346(11) 0.8968(4)
N7_2 N 0.8650(5) 0.9811(11) 0.8537(4)
C100_2 C 0.8824(5) 0.7810(12) 0.9710(5)
C101_2 C 0.8901(6) 0.7490(13) 0.9265(5)
H58_2 H 0.8720 0.6738 0.9196
H59_2 H 0.9301 0.7396 0.9249
C102_2 C 0.8965(6) 0.9126(14) 0.8767(5)
H60_2 H 0.9357 0.9155 0.8795
C103_2 C 0.8149(7) 0.8553(17) 0.8815(7)
H61_2 H 0.7842 0.8134 0.8887
C104_2 C 0.8106(7) 0.9440(15) 0.8543(6)
H62_2 H 0.7779 0.9736 0.8392
H72_2 H 0.9156 0.6320 0.9941
C118_2 C 0.8581(6) 0.8818(13) 0.9815(6)
H74_2 H 0.8450 0.9381 0.9619
N14 N 0.1113(6) 0.0378(14) 0.6555(5)
N15 N 0.1166(7) 0.1810(14) 0.6145(6)
C128 C 0.0804(7) 0.1046(15) 0.6269(5)
H83 H 0.0419 0.0985 0.6178
C129 C 0.1647(7) 0.070(2) 0.6605(7)
H84 H 0.1938 0.0349 0.6779
C130 C 0.1693(9) 0.162(2) 0.6361(8)
H85 H 0.2019 0.2050 0.6340
C131 C 0.1010(8) 0.2667(18) 0.5804(7)
H86 H 0.1193 0.3414 0.5879
H87 H 0.0606 0.2797 0.5773
C132 C 0.1170(6) 0.2281(15) 0.5400(6)
C133 C 0.1059(8) 0.3012(18) 0.5109(7)
H88 H 0.0907 0.3738 0.5168
C134 C 0.1160(7) 0.2766(17) 0.4671(7)
H89 H 0.1048 0.3288 0.4457
C137 C 0.1406(8) 0.1270(18) 0.5306(9)
H91 H 0.1476 0.0703 0.5511
N16 N 0.1170(6) 0.1855(12) 0.3847(5)
N17 N 0.0399(6) 0.2040(12) 0.3449(4)
C138 C 0.1595(7) 0.1483(17) 0.4225(6)
H92 H 0.1953 0.1874 0.4208
H93 H 0.1659 0.0641 0.4210
C139 C 0.0696(6) 0.1351(14) 0.3724(5)
H94 H 0.0581 0.0623 0.3813
C140 C 0.1182(9) 0.2918(19) 0.3619(8)
H95 H 0.1481 0.3449 0.3637
C141 C 0.0739(9) 0.3008(17) 0.3400(7)
H96 H 0.0638 0.3636 0.3224
C154 C 0.1422(6) 0.1746(14) 0.4612(6)
C155 C 0.1550(8) 0.1018(18) 0.4932(7)
H107 H 0.1743 0.0323 0.4895
N13 N 0.0364(5) 0.9135(12) 0.6572(4)
C123 C 0.0149(6) 0.8223(15) 0.6741(5)
C124 C 0.0387(8) 0.7518(18) 0.7053(6)
H80 H 0.0203 0.6872 0.7148
C125 C 0.0954(8) 0.7871(18) 0.7222(6)
H81 H 0.1151 0.7446 0.7437
C126 C 0.1195(7) 0.882(2) 0.7068(5)
H82 H 0.1553 0.9082 0.7174
C127 C 0.0866(8) 0.9374(16) 0.6732(6)
N18 N 0.9636(5) 0.0865(12) 0.3428(4)
C142 C 0.9851(6) 0.1777(15) 0.3259(5)
C143 C 0.9613(8) 0.2482(18) 0.2947(6)
H97 H 0.9797 0.3128 0.2852
C144 C 0.9046(8) 0.2129(18) 0.2778(6)
H98 H 0.8849 0.2554 0.2563
C145 C 0.8805(7) 0.118(2) 0.2932(5)
H99 H 0.8447 0.0918 0.2826
C146 C 0.9134(8) 0.0626(16) 0.3268(6)
N11 N 0.8830(6) 0.8145(12) 0.6153(5)
N12 N 0.9601(6) 0.7960(12) 0.6551(4)
C119 C 0.8405(7) 0.8517(17) 0.5775(6)
H75 H 0.8047 0.8126 0.5792
H76 H 0.8341 0.9359 0.5790
C120 C 0.9304(6) 0.8649(14) 0.6276(5)
H77 H 0.9419 0.9377 0.6187
C121 C 0.8818(9) 0.7082(19) 0.6381(8)
H78 H 0.8519 0.6551 0.6363
C122 C 0.9261(9) 0.6992(17) 0.6600(7)
H79 H 0.9362 0.6364 0.6776
C135 C 0.8578(6) 0.8254(14) 0.5388(6)
C136 C 0.8450(8) 0.8982(18) 0.5068(7)
H90 H 0.8257 0.9677 0.5105
N19 N 0.8887(6) 0.9622(14) 0.3445(5)
N20 N 0.8834(7) 0.8190(14) 0.3855(6)
C147 C 0.9196(7) 0.8954(15) 0.3731(5)
H100 H 0.9581 0.9015 0.3822
C148 C 0.8353(7) 0.930(2) 0.3395(7)
H101 H 0.8062 0.9651 0.3221
C149 C 0.8307(9) 0.838(2) 0.3639(8)
H102 H 0.7981 0.7950 0.3660
C150 C 0.8990(8) 0.7333(18) 0.4196(7)
H103 H 0.8807 0.6586 0.4121
H104 H 0.9394 0.7203 0.4227
C151 C 0.8830(6) 0.7719(15) 0.4600(6)
C152 C 0.8941(8) 0.6988(18) 0.4891(7)
H105 H 0.9093 0.6262 0.4832
C153 C 0.8840(7) 0.7234(17) 0.5329(7)
H106 H 0.8952 0.6712 0.5543
C156 C 0.8594(8) 0.8730(18) 0.4694(9)
H108 H 0.8524 0.9297 0.4489
C134_2 C 0.3840(7) 0.7766(17) 0.0329(7)
H89_2 H 0.3952 0.8288 0.0543
N16_2 N 0.3830(6) 0.6855(12) 0.1153(5)
N17_2 N 0.4601(6) 0.7040(12) 0.1551(4)
N18_2 N 0.5364(5) 0.5865(12) 0.1572(4)
N19_2 N 0.6113(6) 0.4622(14) 0.1555(5)
N20_2 N 0.6166(7) 0.3190(14) 0.1145(6)
C138_2 C 0.3405(7) 0.6483(17) 0.0775(6)
H92_2 H 0.3047 0.6874 0.0792
H93_2 H 0.3341 0.5641 0.0790
C139_2 C 0.4304(6) 0.6351(14) 0.1276(5)
H94_2 H 0.4419 0.5623 0.1187
C140_2 C 0.3818(9) 0.7918(19) 0.1381(8)
H95_2 H 0.3519 0.8449 0.1363
C141_2 C 0.4261(9) 0.8008(17) 0.1600(7)
H96_2 H 0.4362 0.8636 0.1776
C142_2 C 0.5149(6) 0.6777(15) 0.1741(5)
C143_2 C 0.5387(8) 0.7482(18) 0.2053(6)
H97_2 H 0.5203 0.8128 0.2148
C144_2 C 0.5954(8) 0.7129(18) 0.2222(6)
H98_2 H 0.6151 0.7554 0.2437
C145_2 C 0.6195(7) 0.618(2) 0.2068(5)
H99_2 H 0.6553 0.5918 0.2174
C146_2 C 0.5866(8) 0.5626(16) 0.1732(6)
C147_2 C 0.5804(7) 0.3954(15) 0.1269(5)
H100_2 H 0.5419 0.4015 0.1178
C148_2 C 0.6647(7) 0.430(2) 0.1605(7)
H101_2 H 0.6938 0.4651 0.1779
C149_2 C 0.6693(9) 0.338(2) 0.1361(8)
H102_2 H 0.7019 0.2950 0.1340
C150_2 C 0.6010(8) 0.2333(18) 0.0804(7)
H103_2 H 0.6193 0.1586 0.0879
H104_2 H 0.5606 0.2203 0.0773
C151_2 C 0.6170(6) 0.2719(15) 0.0400(6)
C152_2 C 0.6059(8) 0.1988(18) 0.0109(7)
H105_2 H 0.5907 0.1262 0.0168
C154_2 C 0.3578(6) 0.6746(14) 0.0388(6)
C155_2 C 0.3450(8) 0.6018(18) 0.0068(7)
H107_2 H 0.3257 0.5323 0.0105
C156_2 C 0.6406(8) 0.3730(18) 0.0306(9)
H108_2 H 0.6476 0.4297 0.0511
N11_2 N 0.6170(6) 0.3145(12) 0.8847(5)
N12_2 N 0.5399(6) 0.2960(12) 0.8449(4)
N13_2 N 0.4636(5) 0.4135(12) 0.8428(4)
N14_2 N 0.3887(6) 0.5378(14) 0.8445(5)
N15_2 N 0.3834(7) 0.6810(14) 0.8855(6)
C119_2 C 0.6595(7) 0.3517(17) 0.9225(6)
H75_2 H 0.6953 0.3126 0.9208
H76_2 H 0.6659 0.4359 0.9210
C120_2 C 0.5696(6) 0.3649(14) 0.8724(5)
H77_2 H 0.5581 0.4377 0.8813
C121_2 C 0.6182(9) 0.2082(19) 0.8619(8)
H78_2 H 0.6481 0.1551 0.8637
C122_2 C 0.5739(9) 0.1992(17) 0.8400(7)
H79_2 H 0.5638 0.1364 0.8224
C123_2 C 0.4851(6) 0.3223(15) 0.8259(5)
C124_2 C 0.4613(8) 0.2518(18) 0.7947(6)
H80_2 H 0.4797 0.1872 0.7852
C125_2 C 0.4046(8) 0.2871(18) 0.7778(6)
H81_2 H 0.3849 0.2446 0.7563
C126_2 C 0.3805(7) 0.382(2) 0.7932(5)
H82_2 H 0.3447 0.4082 0.7826
C127_2 C 0.4134(8) 0.4374(16) 0.8268(6)
C128_2 C 0.4196(7) 0.6046(15) 0.8731(5)
H83_2 H 0.4581 0.5985 0.8822
C129_2 C 0.3353(7) 0.570(2) 0.8395(7)
H84_2 H 0.3062 0.5349 0.8221
C130_2 C 0.3307(9) 0.662(2) 0.8639(8)
H85_2 H 0.2981 0.7050 0.8660
C131_2 C 0.3990(8) 0.7667(18) 0.9196(7)
H86_2 H 0.3807 0.8414 0.9121
H87_2 H 0.4394 0.7797 0.9227
C132_2 C 0.3830(6) 0.7281(15) 0.9600(6)
C133_2 C 0.3941(8) 0.8012(18) 0.9891(7)
H88_2 H 0.4093 0.8738 0.9832
C135_2 C 0.6422(6) 0.3254(14) 0.9612(6)
C136_2 C 0.6550(8) 0.3982(18) 0.9932(7)
H90_2 H 0.6743 0.4677 0.9895
C137_2 C 0.3594(8) 0.6270(18) 0.9694(9)
H91_2 H 0.3524 0.5703 0.9489
C153_2 C 0.6160(7) 0.2234(17) 0.9671(7)
H106_2 H 0.6048 0.1712 0.9457
loop_
_geom_bond_atom_site_label_1
_geom_bond_atom_site_label_2
_geom_bond_site_symmetry_1
_geom_bond_site_symmetry_2
H20 C40 1_555 1_555
Tb10 O52 1_555 1_555
O52 C77 1_555 1_555
H22 C44 1_555 1_555
C77 C78 1_555 1_555
C78 C79 1_555 1_555
C79 C40 1_555 1_555
H39 C79 1_555 1_555
H17 C35 1_555 1_555
Tb6 O24 1_555 1_555
Tb10 O48 1_555 1_555
O24 C41 1_555 1_555
O26 Tb6 1_555 1_555
O48 C73 1_555 1_555
O50 Tb10 1_555 1_555
C41 O26 1_555 1_555
C73 O50 1_555 1_555
C74 C73 1_555 1_555
C76 C35 1_555 1_555
H38 C76 1_555 1_555
C74 C76 1_555 1_555
Tb2 O4 1_555 1_555
O11 Tb2 1_555 1_555
O12 C20 1_555 1_555
O19 Tb2 1_555 1_555
O20 Tb2 1_555 1_555
O21 Tb2 1_555 1_555
H6 C12 1_555 1_555
C18 C17 1_555 1_555
H9 C18 1_555 1_555
C19 C14 1_555 1_555
H10 C19 1_555 1_555
C20 O11 1_555 1_555
C33 O19 1_555 1_555
C34 C33 1_555 1_555
C36 C34 1_555 1_555
H18 C36 1_555 1_555
C37 O21 1_555 1_555
C38 C37 1_555 1_555
C39 C38 1_555 1_555
H19 C39 1_555 1_555
Tb4 O31 1_555 1_555
Tb5 O39 1_555 1_555
O31 C49 1_555 1_555
O39 C61 1_555 1_555
O41 C61 1_555 1_555
O42 Tb2 1_555 1_555
O43 C68 1_555 1_555
O44 Tb2 1_555 1_555
O46 Tb2 1_555 1_555
C49 C50 1_555 1_555
C50 C51 1_555 1_555
C51 C12 1_555 1_555
H25 C51 1_555 1_555
C61 C62 1_555 1_555
C62 C63 1_555 1_555
C63 H31 1_555 1_555
C64 C63 1_555 1_555
H32 C64 1_555 1_555
C65 C64 1_555 1_555
C66 C65 1_555 1_555
H33 C66 1_555 1_555
C67 C62 1_555 1_555
H34 C67 1_555 1_555
C68 O42 1_555 1_555
C69 O44 1_555 1_555
C70 C69 1_555 1_555
C75 C36 1_555 1_555
H37 C75 1_555 1_555
C80 C39 1_555 1_555
H40 C80 1_555 1_555
O20 C33 1_555 1_555
C17 C20 1_555 1_555
C18 C19 1_555 1_555
O46 C69 1_555 1_555
C65 C68 1_555 1_555
C66 C67 1_555 1_555
C70 C72 1_555 1_555
Tb5 O1 1_555 1_555
O2 Tb5 1_555 1_555
O3 Tb5 1_555 1_555
O5 Tb5 1_555 1_555
O6 Tb5 1_555 1_555
O7 Tb5 1_555 1_555
O9 Tb5 1_555 1_555
O17 C29 1_555 1_555
O18 C29 1_555 1_555
C1 O2 1_555 1_555
C2 C1 1_555 1_555
C3 C2 1_555 1_555
H1 C3 1_555 1_555
C4 C2 1_555 1_555
H2 C4 1_555 1_555
C5 O5 1_555 1_555
C6 C5 1_555 1_555
C7 C6 1_555 1_555
H3 C7 1_555 1_555
C8 C6 1_555 1_555
H4 C8 1_555 1_555
C9 O7 1_555 1_555
C10 C9 1_555 1_555
C11 C10 1_555 1_555
H5 C11 1_555 1_555
C13 O9 1_555 1_555
H7 C15 1_555 1_555
C16 C15 1_555 1_555
H8 C16 1_555 1_555
C29 C30 1_555 1_555
C30 C31 1_555 1_555
C31 C3 1_555 1_555
H15 C31 1_555 1_555
C32 C4 1_555 1_555
H16 C32 1_555 1_555
Tb4 O23 1_555 1_555
Tb8 O17 1_555 1_555
O25 Tb4 1_555 1_555
O27 Tb4 1_555 1_555
O29 Tb4 1_555 1_555
O30 Tb4 1_555 1_555
O34 Tb4 1_555 1_555
O40 Tb4 1_555 1_555
C43 C42 1_555 1_555
H21 C43 1_555 1_555
C45 O29 1_555 1_555
C46 C45 1_555 1_555
C47 C8 1_555 1_555
H23 C47 1_555 1_555
C48 C7 1_555 1_555
H24 C48 1_555 1_555
C52 C11 1_555 1_555
H26 C52 1_555 1_555
C53 O34 1_555 1_555
H27 C55 1_555 1_555
C56 C55 1_555 1_555
H28 C56 1_555 1_555
C71 C43 1_555 1_555
H35 C71 1_555 1_555
O3 C1 1_555 1_555
O6 C5 1_555 1_555
O18 Tb8 1_555 1_555
C30 C32 1_555 1_555
O30 C45 1_555 1_555
C46 C47 1_555 1_555
C46 C48 1_555 1_555
Tb10 O36 1_555 1_555
O36 C60 1_555 1_555
O38 C60 1_555 1_555
C58 C57 1_555 1_555
H29 C58 1_555 1_555
C59 C54 1_555 1_555
H30 C59 1_555 1_555
C60 C57 1_555 1_555
C58 C59 1_555 1_555
O8_2 C9_2 1_555 1_555
C3_2 C2_2 1_555 1_555
H1_2 C3_2 1_555 1_555
C10_2 C9_2 1_555 1_555
C12_2 C10_2 1_555 1_555
H6_2 C12_2 1_555 1_555
C31_2 C3_2 1_555 1_555
H15_2 C31_2 1_555 1_555
Tb6 O31_2 1_555 1_555
H25_2 C51_2 1_555 1_555
O17_2 C29_2 1_555 1_555
O18_2 C29_2 1_555 1_555
H4_2 C8_2 1_555 1_555
C29_2 C30_2 1_555 1_555
Tb10 O17_2 1_555 1_555
Tb8 O36_2 1_555 1_555
O36_2 C60_2 1_555 1_555
O38_2 C60_2 1_555 1_555
C47_2 C8_2 1_555 1_555
H23_2 C47_2 1_555 1_555
H28_2 C56_2 1_555 1_555
C57_2 C56_2 1_555 1_555
C58_2 C57_2 1_555 1_555
H29_2 C58_2 1_555 1_555
C60_2 C57_2 1_555 1_555
O18_2 Tb10 1_555 1_555
C30_2 C32_2 1_555 1_555
Tb6 O23_2 1_555 1_555
O29_2 Tb6 1_555 1_555
O30_2 Tb6 1_555 1_555
O34_2 Tb6 1_555 1_555
O35_2 C53_2 1_555 1_555
O40_2 Tb6 1_555 1_555
C45_2 O29_2 1_555 1_555
C46_2 C45_2 1_555 1_555
C53_2 O34_2 1_555 1_555
C54_2 C53_2 1_555 1_555
C55_2 C54_2 1_555 1_555
H27_2 C55_2 1_555 1_555
C59_2 C54_2 1_555 1_555
H30_2 C59_2 1_555 1_555
O30_2 C45_2 1_555 1_555
Tb5_2 O39_2 1_555 1_555
Tb8 O52_2 1_555 1_555
O39_2 C61_2 1_555 1_555
O41_2 C61_2 1_555 1_555
O52_2 C77_2 1_555 1_555
C61_2 C62_2 1_555 1_555
C67_2 C62_2 1_555 1_555
H34_2 C67_2 1_555 1_555
C77_2 C78_2 1_555 1_555
C78_2 C79_2 1_555 1_555
H39_2 C79_2 1_555 1_555
C66_2 C67_2 1_555 1_555
H20_2 C40_2 1_555 1_555
Tb5_2 O1_2 1_555 1_555
O2_2 Tb5_2 1_555 1_555
O3_2 Tb5_2 1_555 1_555
O5_2 Tb5_2 1_555 1_555
O6_2 Tb5_2 1_555 1_555
O7_2 Tb5_2 1_555 1_555
O9_2 Tb5_2 1_555 1_555
O10_2 C13_2 1_555 1_555
C1_2 O2_2 1_555 1_555
C5_2 O5_2 1_555 1_555
C6_2 C5_2 1_555 1_555
H5_2 C11_2 1_555 1_555
C13_2 O9_2 1_555 1_555
C14_2 C13_2 1_555 1_555
C15_2 C14_2 1_555 1_555
H7_2 C15_2 1_555 1_555
C19_2 C14_2 1_555 1_555
H10_2 C19_2 1_555 1_555
H18_2 C36_2 1_555 1_555
Tb8 O48_2 1_555 1_555
O48_2 C73_2 1_555 1_555
O50_2 Tb8 1_555 1_555
C63_2 H31_2 1_555 1_555
C64_2 C63_2 1_555 1_555
H32_2 C64_2 1_555 1_555
C73_2 O50_2 1_555 1_555
C74_2 C73_2 1_555 1_555
C75_2 C36_2 1_555 1_555
H37_2 C75_2 1_555 1_555
H40_2 C80_2 1_555 1_555
O3_2 C1_2 1_555 1_555
O6_2 C5_2 1_555 1_555
C74_2 C75_2 1_555 1_555
Tb2_2 O4_2 1_555 1_555
O11_2 Tb2_2 1_555 1_555
O12_2 C20_2 1_555 1_555
O19_2 Tb2_2 1_555 1_555
O20_2 Tb2_2 1_555 1_555
O21_2 Tb2_2 1_555 1_555
H3_2 C7_2 1_555 1_555
H8_2 C16_2 1_555 1_555
C17_2 C16_2 1_555 1_555
C18_2 C17_2 1_555 1_555
H9_2 C18_2 1_555 1_555
C20_2 O11_2 1_555 1_555
C33_2 O19_2 1_555 1_555
C34_2 C33_2 1_555 1_555
C35_2 C34_2 1_555 1_555
H17_2 C35_2 1_555 1_555
C37_2 O21_2 1_555 1_555
C38_2 C37_2 1_555 1_555
C39_2 C38_2 1_555 1_555
H19_2 C39_2 1_555 1_555
O25 C41_2 1_555 1_555
O33_2 C49_2 1_555 1_555
O42_2 Tb2_2 1_555 1_555
O44_2 Tb2_2 1_555 1_555
O46_2 Tb2_2 1_555 1_555
C41_2 O27 1_555 1_555
C42_2 C41_2 1_555 1_555
C43_2 C42_2 1_555 1_555
H21_2 C43_2 1_555 1_555
C44_2 C42_2 1_555 1_555
H22_2 C44_2 1_555 1_555
C48_2 C7_2 1_555 1_555
H24_2 C48_2 1_555 1_555
C49_2 C50_2 1_555 1_555
H26_2 C52_2 1_555 1_555
C68_2 O42_2 1_555 1_555
C69_2 O44_2 1_555 1_555
C70_2 C69_2 1_555 1_555
C71_2 C43_2 1_555 1_555
H35_2 C71_2 1_555 1_555
C72_2 C44_2 1_555 1_555
H36_2 C72_2 1_555 1_555
C76_2 C35_2 1_555 1_555
H38_2 C76_2 1_555 1_555
O20_2 C33_2 1_555 1_555
C17_2 C20_2 1_555 1_555
O46_2 C69_2 1_555 1_555
C50_2 C52_2 1_555 1_555
C70_2 C71_2 1_555 1_555
C70_2 C72_2 1_555 1_555
H2_2 C4_2 1_555 1_555
O14 C21 1_555 1_555
O15 C28 1_555 1_555
O16 C28 1_555 1_555
C21 O40 1_555 1_555
C22 C21 1_555 1_555
C23 C22 1_555 1_555
H11 C23 1_555 1_555
C24 C23 1_555 1_555
H12 C24 1_555 1_555
C25 C24 1_555 1_555
C26 C25 1_555 1_555
H13 C26 1_555 1_555
C27 C22 1_555 1_555
H14 C27 1_555 1_555
C28 C25 1_555 1_555
Tb10 O15 1_555 1_555
O28 Tb10 1_555 1_555
C26 C27 1_555 1_555
O15_2 C28_2 1_555 1_555
Tb8 O15_2 1_555 1_555
O28_2 Tb8 1_555 1_555
H11_2 C23_2 1_555 1_555
C24_2 C23_2 1_555 1_555
H12_2 C24_2 1_555 1_555
O14_2 C21_2 1_555 1_555
C21_2 O40_2 1_555 1_555
C22_2 C21_2 1_555 1_555
C27_2 C22_2 1_555 1_555
H14_2 C27_2 1_555 1_555
C26_2 C27_2 1_555 1_555
N1 C82 1_555 1_555
N2 C83 1_555 1_555
N3 C86 1_555 1_555
N4 C90 1_555 1_555
N5 C91 1_555 1_555
C81 C82 1_555 1_555
C82 H41 1_555 1_555
H42 C82 1_555 1_555
C83 N1 1_555 1_555
H43 C83 1_555 1_555
C84 N1 1_555 1_555
H44 C84 1_555 1_555
C85 N2 1_555 1_555
H45 C85 1_555 1_555
C86 N2 1_555 1_555
C87 C86 1_555 1_555
H46 C87 1_555 1_555
C88 C87 1_555 1_555
H47 C88 1_555 1_555
C89 C88 1_555 1_555
H48 C89 1_555 1_555
C90 N3 1_555 1_555
C91 N4 1_555 1_555
H49 C91 1_555 1_555
C92 N4 1_555 1_555
H50 C92 1_555 1_555
C93 N5 1_555 1_555
H51 C93 1_555 1_555
C94 N5 1_555 1_555
H52 C94 1_555 1_555
H53 C94 1_555 1_555
C95 C94 1_555 1_555
C96 C95 1_555 1_555
H54 C96 1_555 1_555
C97 C81 1_555 1_555
H55 C97 1_555 1_555
C98 C95 1_555 1_555
H56 C98 1_555 1_555
C99 C81 1_555 1_555
H57 C99 1_555 1_555
N6 C101 1_555 1_555
N7 C102 1_555 1_555
N8 C105 1_555 1_555
N9 C109 1_555 1_555
N10 C110 1_555 1_555
C100 C101 1_555 1_555
C101 H58 1_555 1_555
H59 C101 1_555 1_555
C102 N6 1_555 1_555
H60 C102 1_555 1_555
C103 N6 1_555 1_555
H61 C103 1_555 1_555
C104 N7 1_555 1_555
H62 C104 1_555 1_555
C105 N7 1_555 1_555
C106 C105 1_555 1_555
H63 C106 1_555 1_555
C107 C106 1_555 1_555
H64 C107 1_555 1_555
C108 C107 1_555 1_555
H65 C108 1_555 1_555
C109 N8 1_555 1_555
C110 N9 1_555 1_555
H66 C110 1_555 1_555
C111 N9 1_555 1_555
H67 C111 1_555 1_555
C112 N10 1_555 1_555
H68 C112 1_555 1_555
C113 N10 1_555 1_555
H69 C113 1_555 1_555
H70 C113 1_555 1_555
C114 C113 1_555 1_555
C115 C97 1_555 1_555
H71 C115 1_555 1_555
C116 C96 1_555 1_555
H72 C116 1_555 1_555
C117 C99 1_555 1_555
H73 C117 1_555 1_555
C118 C98 1_555 1_555
H74 C118 1_555 1_555
C84 C85 1_555 1_555
C89 C90 1_555 1_555
C92 C93 1_555 1_555
C100 C116 1_555 1_555
C100 C118 1_555 1_555
C103 C104 1_555 1_555
C108 C109 1_555 1_555
C111 C112 1_555 1_555
C114 C115 1_555 1_555
C114 C117 1_555 1_555
N1_2 C82_2 1_555 1_555
N2_2 C83_2 1_555 1_555
C81_2 C82_2 1_555 1_555
C82_2 H41_2 1_555 1_555
H42_2 C82_2 1_555 1_555
C83_2 N1_2 1_555 1_555
H43_2 C83_2 1_555 1_555
C84_2 N1_2 1_555 1_555
H44_2 C84_2 1_555 1_555
C85_2 N2_2 1_555 1_555
H45_2 C85_2 1_555 1_555
C99_2 C81_2 1_555 1_555
H57_2 C99_2 1_555 1_555
C84_2 C85_2 1_555 1_555
N10_2 C110_2 1_555 1_555
C110_2 N9_2 1_555 1_555
H66_2 C110_2 1_555 1_555
C111_2 N9_2 1_555 1_555
H67_2 C111_2 1_555 1_555
C112_2 N10_2 1_555 1_555
H68_2 C112_2 1_555 1_555
C113_2 N10_2 1_555 1_555
H69_2 C113_2 1_555 1_555
H70_2 C113_2 1_555 1_555
C114_2 C113_2 1_555 1_555
C115_2 C97_2 1_555 1_555
H71_2 C115_2 1_555 1_555
H73_2 C117_2 1_555 1_555
C111_2 C112_2 1_555 1_555
C114_2 C115_2 1_555 1_555
C114_2 C117_2 1_555 1_555
N3_2 C86_2 1_555 1_555
C87_2 C86_2 1_555 1_555
H46_2 C87_2 1_555 1_555
C88_2 C87_2 1_555 1_555
H47_2 C88_2 1_555 1_555
C89_2 C88_2 1_555 1_555
H48_2 C89_2 1_555 1_555
C90_2 N3_2 1_555 1_555
C89_2 C90_2 1_555 1_555
N8_2 C105_2 1_555 1_555
C106_2 C105_2 1_555 1_555
H63_2 C106_2 1_555 1_555
C107_2 C106_2 1_555 1_555
H64_2 C107_2 1_555 1_555
C108_2 C107_2 1_555 1_555
H65_2 C108_2 1_555 1_555
C109_2 N8_2 1_555 1_555
C108_2 C109_2 1_555 1_555
N5_2 C91_2 1_555 1_555
C91_2 N4_2 1_555 1_555
H49_2 C91_2 1_555 1_555
C92_2 N4_2 1_555 1_555
H50_2 C92_2 1_555 1_555
C93_2 N5_2 1_555 1_555
H51_2 C93_2 1_555 1_555
C94_2 N5_2 1_555 1_555
H52_2 C94_2 1_555 1_555
H53_2 C94_2 1_555 1_555
C95_2 C94_2 1_555 1_555
C96_2 C95_2 1_555 1_555
H54_2 C96_2 1_555 1_555
C98_2 C95_2 1_555 1_555
H56_2 C98_2 1_555 1_555
C116_2 C96_2 1_555 1_555
C92_2 C93_2 1_555 1_555
N6_2 C101_2 1_555 1_555
N7_2 C102_2 1_555 1_555
C100_2 C101_2 1_555 1_555
C101_2 H58_2 1_555 1_555
H59_2 C101_2 1_555 1_555
C102_2 N6_2 1_555 1_555
H60_2 C102_2 1_555 1_555
C103_2 N6_2 1_555 1_555
H61_2 C103_2 1_555 1_555
C104_2 N7_2 1_555 1_555
H62_2 C104_2 1_555 1_555
H74_2 C118_2 1_555 1_555
C100_2 C118_2 1_555 1_555
C103_2 C104_2 1_555 1_555
N15 C128 1_555 1_555
C128 N14 1_555 1_555
H83 C128 1_555 1_555
C129 N14 1_555 1_555
H84 C129 1_555 1_555
C130 N15 1_555 1_555
H85 C130 1_555 1_555
C131 N15 1_555 1_555
H86 C131 1_555 1_555
H87 C131 1_555 1_555
C132 C131 1_555 1_555
C133 C132 1_555 1_555
H88 C133 1_555 1_555
C134 C133 1_555 1_555
H89 C134 1_555 1_555
C137 C132 1_555 1_555
H91 C137 1_555 1_555
N16 C138 1_555 1_555
N17 C139 1_555 1_555
C138 H92 1_555 1_555
H93 C138 1_555 1_555
C139 N16 1_555 1_555
H94 C139 1_555 1_555
C140 N16 1_555 1_555
H95 C140 1_555 1_555
C141 N17 1_555 1_555
H96 C141 1_555 1_555
C154 C134 1_555 1_555
C155 C137 1_555 1_555
H107 C155 1_555 1_555
C129 C130 1_555 1_555
C138 C154 1_555 1_555
C140 C141 1_555 1_555
C154 C155 1_555 1_555
N13 C123 1_555 1_555
C124 C123 1_555 1_555
H80 C124 1_555 1_555
C125 C124 1_555 1_555
H81 C125 1_555 1_555
C126 C125 1_555 1_555
H82 C126 1_555 1_555
C127 N13 1_555 1_555
C126 C127 1_555 1_555
N18 C142 1_555 1_555
C143 C142 1_555 1_555
H97 C143 1_555 1_555
C144 C143 1_555 1_555
H98 C144 1_555 1_555
C145 C144 1_555 1_555
H99 C145 1_555 1_555
C146 N18 1_555 1_555
C145 C146 1_555 1_555
N11 C119 1_555 1_555
N12 C120 1_555 1_555
C119 H75 1_555 1_555
H76 C119 1_555 1_555
C120 N11 1_555 1_555
H77 C120 1_555 1_555
C121 N11 1_555 1_555
H78 C121 1_555 1_555
C122 N12 1_555 1_555
H79 C122 1_555 1_555
C135 C119 1_555 1_555
C136 C135 1_555 1_555
H90 C136 1_555 1_555
N20 C147 1_555 1_555
C147 N19 1_555 1_555
H100 C147 1_555 1_555
C148 N19 1_555 1_555
H101 C148 1_555 1_555
C149 N20 1_555 1_555
H102 C149 1_555 1_555
C150 N20 1_555 1_555
H103 C150 1_555 1_555
H104 C150 1_555 1_555
C151 C150 1_555 1_555
C152 C151 1_555 1_555
H105 C152 1_555 1_555
C153 C135 1_555 1_555
H106 C153 1_555 1_555
C156 C136 1_555 1_555
H108 C156 1_555 1_555
C121 C122 1_555 1_555
C148 C149 1_555 1_555
C151 C156 1_555 1_555
C152 C153 1_555 1_555
H89_2 C134_2 1_555 1_555
N16_2 C138_2 1_555 1_555
N17_2 C139_2 1_555 1_555
N18_2 C142_2 1_555 1_555
N19_2 C146_2 1_555 1_555
N20_2 C147_2 1_555 1_555
C138_2 H92_2 1_555 1_555
H93_2 C138_2 1_555 1_555
C139_2 N16_2 1_555 1_555
H94_2 C139_2 1_555 1_555
C140_2 N16_2 1_555 1_555
H95_2 C140_2 1_555 1_555
C141_2 N17_2 1_555 1_555
H96_2 C141_2 1_555 1_555
C142_2 N17_2 1_555 1_555
C143_2 C142_2 1_555 1_555
H97_2 C143_2 1_555 1_555
C144_2 C143_2 1_555 1_555
H98_2 C144_2 1_555 1_555
C145_2 C144_2 1_555 1_555
H99_2 C145_2 1_555 1_555
C146_2 N18_2 1_555 1_555
C147_2 N19_2 1_555 1_555
H100_2 C147_2 1_555 1_555
C148_2 N19_2 1_555 1_555
H101_2 C148_2 1_555 1_555
C149_2 N20_2 1_555 1_555
H102_2 C149_2 1_555 1_555
C150_2 N20_2 1_555 1_555
H103_2 C150_2 1_555 1_555
H104_2 C150_2 1_555 1_555
C151_2 C150_2 1_555 1_555
C152_2 C151_2 1_555 1_555
H105_2 C152_2 1_555 1_555
C154_2 C134_2 1_555 1_555
H107_2 C155_2 1_555 1_555
H108_2 C156_2 1_555 1_555
C138_2 C154_2 1_555 1_555
C140_2 C141_2 1_555 1_555
C145_2 C146_2 1_555 1_555
C148_2 C149_2 1_555 1_555
C151_2 C156_2 1_555 1_555
C154_2 C155_2 1_555 1_555
N11_2 C119_2 1_555 1_555
N12_2 C120_2 1_555 1_555
N13_2 C123_2 1_555 1_555
N14_2 C127_2 1_555 1_555
N15_2 C128_2 1_555 1_555
C119_2 H75_2 1_555 1_555
H76_2 C119_2 1_555 1_555
C120_2 N11_2 1_555 1_555
H77_2 C120_2 1_555 1_555
C121_2 N11_2 1_555 1_555
H78_2 C121_2 1_555 1_555
C122_2 N12_2 1_555 1_555
H79_2 C122_2 1_555 1_555
C123_2 N12_2 1_555 1_555
C124_2 C123_2 1_555 1_555
H80_2 C124_2 1_555 1_555
C125_2 C124_2 1_555 1_555
H81_2 C125_2 1_555 1_555
C126_2 C125_2 1_555 1_555
H82_2 C126_2 1_555 1_555
C127_2 N13_2 1_555 1_555
C128_2 N14_2 1_555 1_555
H83_2 C128_2 1_555 1_555
C129_2 N14_2 1_555 1_555
H84_2 C129_2 1_555 1_555
C130_2 N15_2 1_555 1_555
H85_2 C130_2 1_555 1_555
C131_2 N15_2 1_555 1_555
H86_2 C131_2 1_555 1_555
H87_2 C131_2 1_555 1_555
C132_2 C131_2 1_555 1_555
C133_2 C132_2 1_555 1_555
H88_2 C133_2 1_555 1_555
C135_2 C119_2 1_555 1_555
C136_2 C135_2 1_555 1_555
H90_2 C136_2 1_555 1_555
C137_2 C132_2 1_555 1_555
H91_2 C137_2 1_555 1_555
C153_2 C135_2 1_555 1_555
H106_2 C153_2 1_555 1_555
C121_2 C122_2 1_555 1_555
C126_2 C127_2 1_555 1_555
C129_2 C130_2 1_555 1_555

#END
