
###############################################################################
#
# This file contains modified crystal structure data generated from the
# MOF subset of the Cambridge Structural Database (CSD) v543 
# hosted by the Cambridge Crystallographic Data Centre (CCDC).
#
# This work is licensed under the Creative Commons
# Attribution-NonCommercial-ShareAlike 4.0 International License.
# To view a copy of this license, visit
# http://creativecommons.org/licenses/by-nc-sa/4.0/
# or send a letter to
# Creative Commons, PO Box 1866, Mountain View, CA 94042, USA.
#
# CIF created using the CSD Python API on 29 September 2022
# The structure has been converted into the P1 space group
# The structure has a 3D framework
# The original CSD entry ZEDZAL is in the hexagonal crystal system
# The original CSD entry ZEDZAL is in a Sohncke space group
# The framework has been calculated to contain at least 10.0% void space
# The void calculation uses a probe of radius 1.32A, grid spacing 0.4
# H atom positions have been added when not included in the experimental data
# Generated hydrogen atom positions removed from atoms on special positions
#
###############################################################################

data_ZEDZAL
_chemical_formula_moiety         '(C162 H114 O40 Pr12)n'
_symmetry_cell_setting           triclinic
_symmetry_space_group_name_H-M   'P 1'
_symmetry_Int_Tables_number      1
_space_group_name_Hall           'P 1'
loop_
_symmetry_equiv_pos_site_id
_symmetry_equiv_pos_as_xyz
1 x,y,z
_cell_length_a                   16.4393(3)
_cell_length_b                   16.4393(3)
_cell_length_c                   23.7770(9)
_cell_angle_alpha                90
_cell_angle_beta                 90
_cell_angle_gamma                120
_cell_volume                     5564.86
loop_
_atom_site_label
_atom_site_type_symbol
_atom_site_fract_x
_atom_site_fract_y
_atom_site_fract_z
O12 O 0.0652(2) 0.0709(2) 0.04446(14)
O7 O 0.0331(3) 0.1420(2) 0.93164(14)
Pr1 Pr 0.91567(2) 0.0000 0.0000
O4 O 0.7642(3) 0.0000 0.0000
O8 O 0.8911(2) 0.0331(3) 0.09831(14)
H16 H 0.749095 0.0100595 0.0389111
Pr1_2 Pr 0.91567(2) 0.0000 1.0000
O4_2 O 0.7642(3) 0.0000 1.0000
O10 O 0.9590(4) 0.1692(2) 0.9979(2)
H17 H 0.76969 0.0512494 0.975328
Pr1_3 Pr 0.91567(2) 1.0000 0.0000
C1 C 0.8243(3) 0.8004(3) 0.0363(2)
C2 C 0.7863(3) 0.6970(3) 0.0415(2)
C3 C 0.8315(4) 0.6604(3) 0.0746(2)
H1 H 0.8891 0.7012 0.0910
C4 C 0.7928(3) 0.5669(3) 0.0829(2)
H2 H 0.8223 0.5445 0.1065
C5 C 0.7069(4) 0.5024(3) 0.0559(2)
C6 C 0.6669(4) 0.5386(4) 0.0207(2)
H3 H 0.6131 0.4977 0.0008
C7 C 0.7048(3) 0.6350(3) 0.0141(2)
C8 C 0.6579(4) 0.4014(3) 0.0697(2)
C9 C 0.7069(5) 0.3535(2) 0.0833
H5 H 0.7723 0.3861 0.0833
C10 C 0.5615(4) 0.3498(4) 0.0687(3)
H6 H 0.5284 0.3794 0.0577
C11 C 0.5115(5) 0.2557(3) 0.0833
C12 C 0.4053(5) 0.2027(3) 0.0833
C13 C 0.3567(4) 0.2233(5) 0.0424(3)
H7 H 0.3891 0.2690 0.0153
C14 C 0.2597(4) 0.1741(5) 0.0434(3)
H8 H 0.2267 0.1875 0.0167
C15 C 0.2103(5) 0.1052(2) 0.0833
C16 C 0.1053(5) 0.0527(2) 0.0833
O1 O 0.8911(2) 0.8580(2) 0.06836(14)
O2 O 0.7898(3) 0.8308(2) 0.0021(2)
O4_3 O 0.7642(3) 1.0000 0.0000
Pr2 Pr 0.91567(2) 0.91567(2) 0.1667
C17 C 0.8243(3) 0.0239(4) 0.1304(2)
C18 C 0.7863(3) 0.0893(4) 0.1252(2)
C19 C 0.8315(4) 0.1711(5) 0.0921(2)
H9 H 0.8891 0.1879 0.0757
C20 C 0.7928(3) 0.2259(4) 0.0838(2)
H10 H 0.8223 0.2778 0.0602
C21 C 0.7069(4) 0.2045(5) 0.1108(2)
C22 C 0.6669(4) 0.1283(6) 0.1460(2)
H11 H 0.6131 0.1154 0.1659
C23 C 0.7048(3) 0.0698(4) 0.1526(2)
H12 H 0.6749 0.0173 0.1757
C24 C 0.6579(4) 0.2565(5) 0.0970(2)
C25 C 0.5615(4) 0.2117(6) 0.0980(3)
H13 H 0.5284 0.1490 0.1090
C26 C 0.3567(4) 0.1334(6) 0.1243(3)
H14 H 0.3891 0.1201 0.1514
C27 C 0.2597(4) 0.0856(6) 0.1233(3)
H15 H 0.2267 0.0392 0.1500
Pr1_4 Pr 0.91567(2) 1.0000 1.0000
H4 H 0.6749 0.6576 0.9910
O4_4 O 0.7642(3) 1.0000 1.0000
O6 O 0.8580(2) 0.9669(3) 0.90169(14)
O13 O 0.9943(3) 0.9291(2) 0.95554(14)
O9 O 0.7898(3) 0.9590(4) 0.1646(2)
O11 O 0.0652(2) 0.9943(3) 0.12221(14)
Pr4 Pr 0.08433(2) 0.00000(3) 0.5000
Pr4_2 Pr 0.08433(2) 1.00000(3) 0.5000
Pr5 Pr 0.0000 0.91567(2) 0.3333
O9_2 O 0.0410(4) 0.8308(5) 0.4979(2)
O11_2 O 0.0057(3) 0.0709(4) 0.45554(14)
C1_2 C 0.1996(3) 0.0239(4) 0.3696(2)
C2_2 C 0.3030(3) 0.0893(4) 0.3748(2)
C3_2 C 0.3396(3) 0.1711(5) 0.4079(2)
H1_2 H 0.2988 0.1879 0.4243
C4_2 C 0.4331(3) 0.2259(4) 0.4162(2)
H2_2 H 0.4555 0.2778 0.4398
C5_2 C 0.4976(3) 0.2045(5) 0.3892(2)
C6_2 C 0.4614(4) 0.1283(6) 0.3540(2)
H3_2 H 0.5023 0.1154 0.3341
C7_2 C 0.3650(3) 0.0698(4) 0.3474(2)
H4_2 H 0.3424 0.0173 0.3243
C8_2 C 0.5986(3) 0.2565(5) 0.4030(2)
C9_2 C 0.6465(2) 0.3534(5) 0.4166
H5_2 H 0.6139 0.3862 0.4166
C10_2 C 0.6502(4) 0.2117(6) 0.4020(3)
H6_2 H 0.6206 0.1490 0.3910
C11_2 C 0.7443(3) 0.2558(6) 0.4166
C12_2 C 0.7973(3) 0.2026(6) 0.4166
C13_2 C 0.7767(5) 0.1334(6) 0.3757(3)
H7_2 H 0.7310 0.1201 0.3486
C14_2 C 0.8259(5) 0.0856(6) 0.3767(3)
H8_2 H 0.8125 0.0392 0.3500
C15_2 C 0.8948(2) 0.1051(5) 0.4166
C16_2 C 0.9473(2) 0.0526(5) 0.4166
O1_2 O 0.1420(2) 0.0331(3) 0.40169(14)
Pr5_2 Pr 1.0000 0.91567(2) 0.3333
C17_2 C 0.9761(4) 0.8004(5) 0.4637(2)
C18_2 C 0.9107(4) 0.6970(5) 0.4585(2)
C19_2 C 0.8289(5) 0.6604(6) 0.4254(2)
H9_2 H 0.8121 0.7012 0.4090
C20_2 C 0.7741(4) 0.5669(5) 0.4171(2)
H10_2 H 0.7222 0.5445 0.3935
C21_2 C 0.7955(5) 0.5024(6) 0.4441(2)
C22_2 C 0.8717(6) 0.5386(7) 0.4793(2)
H11_2 H 0.8846 0.4977 0.4992
C23_2 C 0.9302(4) 0.6350(5) 0.4859(2)
H12_2 H 0.9827 0.6576 0.5090
C24_2 C 0.7435(5) 0.4014(6) 0.4303(2)
C25_2 C 0.7883(6) 0.3498(7) 0.4313(3)
H13_2 H 0.8510 0.3794 0.4423
C26_2 C 0.8666(6) 0.2233(7) 0.4576(3)
H14_2 H 0.8799 0.2690 0.4847
C27_2 C 0.9144(6) 0.1741(7) 0.4566(3)
H15_2 H 0.9608 0.1875 0.4833
O5 O 0.9669(3) 0.8580(4) 0.43164(14)
O13_2 O 0.0709(2) 0.0652(4) 0.28887(14)
O2_2 O 0.1692(2) 0.9590(4) 0.3354(2)
O3 O 0.9291(2) 0.9943(3) 0.37779(14)
O4_5 O 0.0000 0.7642(3) 0.3333
O6_2 O 0.0331(3) 0.8911(4) 0.23503(14)
O4_6 O 1.0000 0.7642(3) 0.3333
O7_2 O 0.8580(2) 0.8911(4) 0.26497(14)
O10_2 O 0.8308(2) 0.7898(4) 0.3312(2)
H16_2 H 0.98994 0.739036 0.372244
H17_2 H 0.948751 0.718441 0.308661
Pr3 Pr 0.08433(2) 0.08433(2) 0.6667
Pr6 Pr 0.00000(3) 0.08433(2) 0.8333
O2_3 O 0.0410(4) 0.2102(3) 0.6688(2)
O3_2 O 0.0057(3) 0.9348(2) 0.71113(14)
O4_7 O 0.2358(3) 0.2358(3) 0.6667
O6_3 O 0.1089(4) 0.1420(2) 0.56836(14)
O8_2 O 0.1420(4) 0.1089(2) 0.76497(14)
O10_3 O 0.2102(4) 0.0410(4) 0.6646(2)
O7_3 O 0.1089(4) 0.9669(3) 0.59831(14)
Pr6_2 Pr 1.00000(3) 0.08433(2) 0.8333
C1_3 C 0.9761(4) 0.1757(3) 0.7030(2)
C2_3 C 0.9107(4) 0.2137(3) 0.7082(2)
C3_3 C 0.8289(5) 0.1685(4) 0.7413(2)
H1_3 H 0.8121 0.1109 0.7577
C4_3 C 0.7741(4) 0.2072(3) 0.7496(2)
H2_3 H 0.7222 0.1777 0.7732
C5_3 C 0.7955(5) 0.2931(4) 0.7226(2)
C6_3 C 0.8717(6) 0.3331(4) 0.6874(2)
H3_3 H 0.8846 0.3869 0.6675
C7_3 C 0.9302(4) 0.2952(3) 0.6808(2)
H4_3 H 0.9827 0.3251 0.6577
C8_3 C 0.7435(5) 0.3421(4) 0.7364(2)
C9_3 C 0.6466(5) 0.2931(5) 0.7500
H5_3 H 0.6138 0.2277 0.7500
C10_3 C 0.7883(6) 0.4385(4) 0.7354(3)
H6_3 H 0.8510 0.4716 0.7244
C11_3 C 0.7442(6) 0.4885(5) 0.7500
C12_3 C 0.7974(6) 0.5947(5) 0.7500
C13_3 C 0.8666(6) 0.6433(4) 0.7091(3)
H7_3 H 0.8799 0.6109 0.6820
C14_3 C 0.9144(6) 0.7403(4) 0.7101(3)
H8_3 H 0.9608 0.7733 0.6834
C15_3 C 0.8949(5) 0.7897(5) 0.7500
C16_3 C 0.9474(5) 0.8947(5) 0.7500
O1_3 O 0.9669(3) 0.1089(2) 0.73503(14)
C17_3 C 0.1996(5) 0.1757(3) 0.7970(2)
C18_3 C 0.3030(5) 0.2137(3) 0.7918(2)
C19_3 C 0.3396(6) 0.1685(4) 0.7587(2)
H9_3 H 0.2988 0.1109 0.7423
C20_3 C 0.4331(5) 0.2072(3) 0.7504(2)
H10_3 H 0.4555 0.1777 0.7268
C21_3 C 0.4976(6) 0.2931(4) 0.7774(2)
C22_3 C 0.4614(7) 0.3331(4) 0.8126(2)
H11_3 H 0.5023 0.3869 0.8325
C23_3 C 0.3650(5) 0.2952(3) 0.8192(2)
H12_3 H 0.3424 0.3251 0.8423
C24_3 C 0.5986(6) 0.3421(4) 0.7636(2)
C25_3 C 0.6502(7) 0.4385(4) 0.7646(3)
H13_3 H 0.6206 0.4716 0.7756
C26_3 C 0.7767(7) 0.6433(4) 0.7909(3)
H14_3 H 0.7310 0.6109 0.8180
C27_3 C 0.8259(7) 0.7403(4) 0.7899(3)
H15_3 H 0.8125 0.7733 0.8166
O9_3 O 0.1692(5) 0.2102(3) 0.8312(2)
O11_3 O 0.9291(4) 0.9348(2) 0.78887(14)
O13_3 O 0.9348(4) 0.0057(3) 0.62221(14)
C1_4 C 0.1757(3) 0.1996(3) 0.5363(2)
C2_4 C 0.2137(3) 0.3030(3) 0.5415(2)
C3_4 C 0.1685(4) 0.3396(3) 0.5746(2)
H1_4 H 0.1109 0.2988 0.5910
C4_4 C 0.2072(3) 0.4331(3) 0.5829(2)
H2_4 H 0.1777 0.4555 0.6065
C5_4 C 0.2931(4) 0.4976(3) 0.5559(2)
C6_4 C 0.3331(4) 0.4614(4) 0.5207(2)
H3_4 H 0.3869 0.5023 0.5008
C7_4 C 0.2952(3) 0.3650(3) 0.5141(2)
H4_4 H 0.3251 0.3424 0.4910
C8_4 C 0.3421(4) 0.5986(3) 0.5697(2)
C9_4 C 0.2931(5) 0.6465(2) 0.5833
H5_4 H 0.2277 0.6139 0.5833
C10_4 C 0.4385(4) 0.6502(4) 0.5687(3)
H6_4 H 0.4716 0.6206 0.5577
C11_4 C 0.4885(5) 0.7443(3) 0.5833
C12_4 C 0.5947(5) 0.7973(3) 0.5833
C13_4 C 0.6433(4) 0.7767(5) 0.5424(3)
H7_4 H 0.6109 0.7310 0.5153
C14_4 C 0.7403(4) 0.8259(5) 0.5434(3)
H8_4 H 0.7733 0.8125 0.5167
C15_4 C 0.7897(5) 0.8948(2) 0.5833
C16_4 C 0.8947(5) 0.9473(2) 0.5833
O2_4 O 0.2102(3) 0.1692(2) 0.5021(2)
O3_3 O 0.9348(2) 0.9291(2) 0.54446(14)
O4_8 O 0.2358(3) 0.0000 0.5000
C17_4 C 0.1757(3) 0.9761(4) 0.6304(2)
C18_4 C 0.2137(3) 0.9107(4) 0.6252(2)
C19_4 C 0.1685(4) 0.8289(5) 0.5921(2)
H9_4 H 0.1109 0.8121 0.5757
C20_4 C 0.2072(3) 0.7741(4) 0.5838(2)
H10_4 H 0.1777 0.7222 0.5602
C21_4 C 0.2931(4) 0.7955(5) 0.6108(2)
C22_4 C 0.3331(4) 0.8717(6) 0.6460(2)
H11_4 H 0.3869 0.8846 0.6659
C23_4 C 0.2952(3) 0.9302(4) 0.6526(2)
H12_4 H 0.3251 0.9827 0.6757
C24_4 C 0.3421(4) 0.7435(5) 0.5970(2)
C25_4 C 0.4385(4) 0.7883(6) 0.5980(3)
H13_4 H 0.4716 0.8510 0.6090
C26_4 C 0.6433(4) 0.8666(6) 0.6243(3)
H14_4 H 0.6109 0.8799 0.6514
C27_4 C 0.7403(4) 0.9144(6) 0.6233(3)
H15_4 H 0.7733 0.9608 0.6500
O4_9 O 0.2358(3) 1.0000 0.5000
H16_3 H 0.250905 0.98994 0.538911
H17_3 H 0.23031 0.948751 0.475328
O4_10 O 0.0000 0.2358(3) 0.8333
O12_2 O 0.0709(2) 0.0057(3) 0.87779(14)
H16_4 H 0.0100595 0.260964 0.872244
H17_4 H 0.0512494 0.281559 0.808661
O2_5 O 0.8308(2) 0.0410(4) 0.8354(2)
O4_11 O 1.0000 0.2358(3) 0.8333
H12_5 H 0.0173 0.3424 0.0090
C1_5 C 0.8004(3) 0.9761(4) 0.8696(2)
C2_5 C 0.6970(3) 0.9107(4) 0.8748(2)
C3_5 C 0.6604(3) 0.8289(5) 0.9079(2)
H1_5 H 0.7012 0.8121 0.9243
C4_5 C 0.5669(3) 0.7741(4) 0.9162(2)
H2_5 H 0.5445 0.7222 0.9398
C5_5 C 0.5024(3) 0.7955(5) 0.8892(2)
C6_5 C 0.5386(4) 0.8717(6) 0.8540(2)
H3_5 H 0.4977 0.8846 0.8341
C7_5 C 0.6350(3) 0.9302(4) 0.8474(2)
H4_5 H 0.6576 0.9827 0.8243
C8_5 C 0.4014(3) 0.7435(5) 0.9030(2)
C9_5 C 0.3535(2) 0.6466(5) 0.9166
H5_5 H 0.3861 0.6138 0.9166
C10_5 C 0.3498(4) 0.7883(6) 0.9020(3)
H6_5 H 0.3794 0.8510 0.8910
C11_5 C 0.2557(3) 0.7442(6) 0.9166
C12_5 C 0.2027(3) 0.7974(6) 0.9166
C13_5 C 0.2233(5) 0.8666(6) 0.8757(3)
H7_5 H 0.2690 0.8799 0.8486
C14_5 C 0.1741(5) 0.9144(6) 0.8767(3)
H8_5 H 0.1875 0.9608 0.8500
C15_5 C 0.1052(2) 0.8949(5) 0.9166
C16_5 C 0.0527(2) 0.9474(5) 0.9166
C17_5 C 0.0239(4) 0.1996(5) 0.9637(2)
C18_5 C 0.0893(4) 0.3030(5) 0.9585(2)
C19_5 C 0.1711(5) 0.3396(6) 0.9254(2)
H9_5 H 0.1879 0.2988 0.9090
C20_5 C 0.2259(4) 0.4331(5) 0.9171(2)
H10_5 H 0.2778 0.4555 0.8935
C21_5 C 0.2045(5) 0.4976(6) 0.9441(2)
C22_5 C 0.1283(6) 0.4614(7) 0.9793(2)
H11_5 H 0.1154 0.5023 0.9992
C23_5 C 0.0698(4) 0.3650(5) 0.9859(2)
C24_5 C 0.2565(5) 0.5986(6) 0.9303(2)
C25_5 C 0.2117(6) 0.6502(7) 0.9313(3)
H13_5 H 0.1490 0.6206 0.9423
C26_5 C 0.1334(6) 0.7767(7) 0.9576(3)
H14_5 H 0.1201 0.7310 0.9847
C27_5 C 0.0856(6) 0.8259(7) 0.9566(3)
H15_5 H 0.0392 0.8125 0.9833
C1_6 C 0.0239(4) 0.8243(3) 0.2030(2)
C2_6 C 0.0893(4) 0.7863(3) 0.2082(2)
C3_6 C 0.1711(5) 0.8315(4) 0.2413(2)
H1_6 H 0.1879 0.8891 0.2577
C4_6 C 0.2259(4) 0.7928(3) 0.2496(2)
H2_6 H 0.2778 0.8223 0.2732
C5_6 C 0.2045(5) 0.7069(4) 0.2226(2)
C6_6 C 0.1283(6) 0.6669(4) 0.1874(2)
H3_6 H 0.1154 0.6131 0.1675
C7_6 C 0.0698(4) 0.7048(3) 0.1808(2)
H4_6 H 0.0173 0.6749 0.1577
C8_6 C 0.2565(5) 0.6579(4) 0.2364(2)
C9_6 C 0.3534(5) 0.7069(5) 0.2500
H5_6 H 0.3862 0.7723 0.2500
C10_6 C 0.2117(6) 0.5615(4) 0.2354(3)
H6_6 H 0.1490 0.5284 0.2244
C11_6 C 0.2558(6) 0.5115(5) 0.2500
C12_6 C 0.2026(6) 0.4053(5) 0.2500
C13_6 C 0.1334(6) 0.3567(4) 0.2091(3)
H7_6 H 0.1201 0.3891 0.1820
C14_6 C 0.0856(6) 0.2597(4) 0.2101(3)
H8_6 H 0.0392 0.2267 0.1834
C15_6 C 0.1051(5) 0.2103(5) 0.2500
C16_6 C 0.0526(5) 0.1053(5) 0.2500
C17_6 C 0.8004(5) 0.8243(3) 0.2970(2)
C18_6 C 0.6970(5) 0.7863(3) 0.2918(2)
C19_6 C 0.6604(6) 0.8315(4) 0.2587(2)
H9_6 H 0.7012 0.8891 0.2423
C20_6 C 0.5669(5) 0.7928(3) 0.2504(2)
H10_6 H 0.5445 0.8223 0.2268
C21_6 C 0.5024(6) 0.7069(4) 0.2774(2)
C22_6 C 0.5386(7) 0.6669(4) 0.3126(2)
H11_6 H 0.4977 0.6131 0.3325
C23_6 C 0.6350(5) 0.7048(3) 0.3192(2)
H12_6 H 0.6576 0.6749 0.3423
C24_6 C 0.4014(6) 0.6579(4) 0.2636(2)
C25_6 C 0.3498(7) 0.5615(4) 0.2646(3)
H13_6 H 0.3794 0.5284 0.2756
C26_6 C 0.2233(7) 0.3567(4) 0.2909(3)
H14_6 H 0.2690 0.3891 0.3180
C27_6 C 0.1741(7) 0.2597(4) 0.2899(3)
H15_6 H 0.1875 0.2267 0.3166
O12_3 O 0.9943(3) 0.0652(2) 0.21113(14)
O2_6 O 0.9590(4) 0.7898(3) 0.1688(2)
O4_12 O 0.7642(3) 0.7642(3) 0.1667
H16_5 H 0.0100595 0.749095 0.294422
H17_5 H 0.0512494 0.76969 0.358005
H17_6 H 0.718441 0.948751 0.0246719
H16_6 H 0.739036 0.98994 0.961089
H16_7 H 0.98994 0.250905 0.794422
H17_7 H 0.948751 0.23031 0.858005
H16_8 H 0.260964 0.0100595 0.461089
H17_8 H 0.281559 0.0512494 0.524672
loop_
_geom_bond_atom_site_label_1
_geom_bond_atom_site_label_2
_geom_bond_site_symmetry_1
_geom_bond_site_symmetry_2
O4 Pr1 1_555 1_555
O8 Pr1 1_555 1_555
O4 H16 1_555 1_555
O4_2 Pr1_2 1_555 1_555
O10 Pr1_2 1_555 1_555
O4_2 H17 1_555 1_555
Pr1_3 O1 1_555 1_555
C1 C2 1_555 1_555
C2 C3 1_555 1_555
C3 H1 1_555 1_555
C4 C3 1_555 1_555
H2 C4 1_555 1_555
C5 C4 1_555 1_555
C6 C5 1_555 1_555
H3 C6 1_555 1_555
C7 C2 1_555 1_555
C8 C5 1_555 1_555
C9 C8 1_555 1_555
H5 C9 1_555 1_555
C10 C8 1_555 1_555
H6 C10 1_555 1_555
C11 C10 1_555 1_555
C12 C11 1_555 1_555
C13 C12 1_555 1_555
H7 C13 1_555 1_555
C14 C13 1_555 1_555
H8 C14 1_555 1_555
C15 C14 1_555 1_555
C16 C15 1_555 1_555
O1 C1 1_555 1_555
O2 Pr1_3 1_555 1_555
O12 C16 1_555 1_555
O4_3 Pr1_3 1_555 1_555
Pr2 O1 1_555 1_555
C17 C18 1_555 1_555
C18 C19 1_555 1_555
C19 H9 1_555 1_555
C20 C19 1_555 1_555
H10 C20 1_555 1_555
C21 C20 1_555 1_555
C22 C21 1_555 1_555
H11 C22 1_555 1_555
C23 C18 1_555 1_555
H12 C23 1_555 1_555
C24 C9 1_555 1_555
C25 C11 1_555 1_555
H13 C25 1_555 1_555
C26 C12 1_555 1_555
H14 C26 1_555 1_555
C27 C15 1_555 1_555
H15 C27 1_555 1_555
O8 C17 1_555 1_555
C1 O2 1_555 1_555
C6 C7 1_555 1_555
C21 C24 1_555 1_555
C22 C23 1_555 1_555
C24 C25 1_555 1_555
C26 C27 1_555 1_555
O4_4 Pr1_4 1_555 1_555
O6 Pr1_4 1_555 1_555
O13 Pr1_4 1_555 1_555
O9 Pr2 1_555 1_555
Pr4 O11_2 1_555 1_555
O9_2 Pr4_2 1_555 1_555
C1_2 C2_2 1_555 1_555
C2_2 C3_2 1_555 1_555
C3_2 H1_2 1_555 1_555
C4_2 C3_2 1_555 1_555
H2_2 C4_2 1_555 1_555
C5_2 C4_2 1_555 1_555
C6_2 C5_2 1_555 1_555
H3_2 C6_2 1_555 1_555
C7_2 C2_2 1_555 1_555
H4_2 C7_2 1_555 1_555
C8_2 C5_2 1_555 1_555
C9_2 C8_2 1_555 1_555
H5_2 C9_2 1_555 1_555
C10_2 C8_2 1_555 1_555
H6_2 C10_2 1_555 1_555
C11_2 C10_2 1_555 1_555
C12_2 C11_2 1_555 1_555
C13_2 C12_2 1_555 1_555
H7_2 C13_2 1_555 1_555
C14_2 C13_2 1_555 1_555
H8_2 C14_2 1_555 1_555
C15_2 C14_2 1_555 1_555
C16_2 C15_2 1_555 1_555
O1_2 C1_2 1_555 1_555
Pr4 O1_2 1_555 1_555
Pr5_2 O5 1_555 1_555
C17_2 C18_2 1_555 1_555
C18_2 C19_2 1_555 1_555
C19_2 H9_2 1_555 1_555
C20_2 C19_2 1_555 1_555
H10_2 C20_2 1_555 1_555
C21_2 C20_2 1_555 1_555
C22_2 C21_2 1_555 1_555
H11_2 C22_2 1_555 1_555
C23_2 C18_2 1_555 1_555
H12_2 C23_2 1_555 1_555
C24_2 C9_2 1_555 1_555
C25_2 C11_2 1_555 1_555
H13_2 C25_2 1_555 1_555
C26_2 C12_2 1_555 1_555
H14_2 C26_2 1_555 1_555
C27_2 C15_2 1_555 1_555
H15_2 C27_2 1_555 1_555
O5 C17_2 1_555 1_555
C6_2 C7_2 1_555 1_555
C21_2 C24_2 1_555 1_555
C22_2 C23_2 1_555 1_555
C24_2 C25_2 1_555 1_555
C26_2 C27_2 1_555 1_555
O2_2 Pr5 1_555 1_555
O4_5 Pr5 1_555 1_555
Pr5_2 O3 1_555 1_555
O6_2 Pr5 1_555 1_555
O4_6 Pr5_2 1_555 1_555
O7_2 Pr5_2 1_555 1_555
O10_2 Pr5_2 1_555 1_555
O4_6 H16_2 1_555 1_555
O4_6 H17_2 1_555 1_555
O2_3 Pr3 1_555 1_555
O4_7 Pr3 1_555 1_555
O6_3 Pr3 1_555 1_555
O8_2 Pr3 1_555 1_555
O10_3 Pr3 1_555 1_555
Pr6 O8_2 1_555 1_555
C1_3 C2_3 1_555 1_555
C2_3 C3_3 1_555 1_555
C3_3 H1_3 1_555 1_555
C4_3 C3_3 1_555 1_555
H2_3 C4_3 1_555 1_555
C5_3 C4_3 1_555 1_555
C6_3 C5_3 1_555 1_555
H3_3 C6_3 1_555 1_555
C7_3 C2_3 1_555 1_555
H4_3 C7_3 1_555 1_555
C8_3 C5_3 1_555 1_555
C9_3 C8_3 1_555 1_555
H5_3 C9_3 1_555 1_555
C10_3 C8_3 1_555 1_555
H6_3 C10_3 1_555 1_555
C11_3 C10_3 1_555 1_555
C12_3 C11_3 1_555 1_555
C13_3 C12_3 1_555 1_555
H7_3 C13_3 1_555 1_555
C14_3 C13_3 1_555 1_555
H8_3 C14_3 1_555 1_555
C15_3 C14_3 1_555 1_555
C16_3 C15_3 1_555 1_555
O1_3 C1_3 1_555 1_555
Pr6_2 O1_3 1_555 1_555
C17_3 C18_3 1_555 1_555
C18_3 C19_3 1_555 1_555
C19_3 H9_3 1_555 1_555
C20_3 C19_3 1_555 1_555
H10_3 C20_3 1_555 1_555
C21_3 C20_3 1_555 1_555
C22_3 C21_3 1_555 1_555
H11_3 C22_3 1_555 1_555
C23_3 C18_3 1_555 1_555
H12_3 C23_3 1_555 1_555
C24_3 C9_3 1_555 1_555
C25_3 C11_3 1_555 1_555
H13_3 C25_3 1_555 1_555
C26_3 C12_3 1_555 1_555
H14_3 C26_3 1_555 1_555
C27_3 C15_3 1_555 1_555
H15_3 C27_3 1_555 1_555
O8_2 C17_3 1_555 1_555
O9_3 Pr6 1_555 1_555
O11_3 C16_3 1_555 1_555
C6_3 C7_3 1_555 1_555
C17_3 O9_3 1_555 1_555
C21_3 C24_3 1_555 1_555
C22_3 C23_3 1_555 1_555
C24_3 C25_3 1_555 1_555
C26_3 C27_3 1_555 1_555
Pr4 O6_3 1_555 1_555
C1_4 C2_4 1_555 1_555
C2_4 C3_4 1_555 1_555
C3_4 H1_4 1_555 1_555
C4_4 C3_4 1_555 1_555
H2_4 C4_4 1_555 1_555
C5_4 C4_4 1_555 1_555
C6_4 C5_4 1_555 1_555
H3_4 C6_4 1_555 1_555
C7_4 C2_4 1_555 1_555
H4_4 C7_4 1_555 1_555
C8_4 C5_4 1_555 1_555
C9_4 C8_4 1_555 1_555
H5_4 C9_4 1_555 1_555
C10_4 C8_4 1_555 1_555
H6_4 C10_4 1_555 1_555
C11_4 C10_4 1_555 1_555
C12_4 C11_4 1_555 1_555
C13_4 C12_4 1_555 1_555
H7_4 C13_4 1_555 1_555
C14_4 C13_4 1_555 1_555
H8_4 C14_4 1_555 1_555
C15_4 C14_4 1_555 1_555
C16_4 C15_4 1_555 1_555
O6_3 C1_4 1_555 1_555
O2_4 Pr4 1_555 1_555
O3_3 C16_4 1_555 1_555
O4_8 Pr4 1_555 1_555
Pr4_2 O7_3 1_555 1_555
C17_4 C18_4 1_555 1_555
C18_4 C19_4 1_555 1_555
C19_4 H9_4 1_555 1_555
C20_4 C19_4 1_555 1_555
H10_4 C20_4 1_555 1_555
C21_4 C20_4 1_555 1_555
C22_4 C21_4 1_555 1_555
H11_4 C22_4 1_555 1_555
C23_4 C18_4 1_555 1_555
H12_4 C23_4 1_555 1_555
C24_4 C9_4 1_555 1_555
C25_4 C11_4 1_555 1_555
H13_4 C25_4 1_555 1_555
C26_4 C12_4 1_555 1_555
H14_4 C26_4 1_555 1_555
C27_4 C15_4 1_555 1_555
H15_4 C27_4 1_555 1_555
O7_3 C17_4 1_555 1_555
C1_4 O2_4 1_555 1_555
C6_4 C7_4 1_555 1_555
C21_4 C24_4 1_555 1_555
C22_4 C23_4 1_555 1_555
C24_4 C25_4 1_555 1_555
C26_4 C27_4 1_555 1_555
O4_9 Pr4_2 1_555 1_555
O4_9 H16_3 1_555 1_555
O4_9 H17_3 1_555 1_555
O4_10 Pr6 1_555 1_555
O7 Pr6 1_555 1_555
O12_2 Pr6 1_555 1_555
O4_10 H16_4 1_555 1_555
O4_10 H17_4 1_555 1_555
O2_5 Pr6_2 1_555 1_555
O4_11 Pr6_2 1_555 1_555
C1_5 C2_5 1_555 1_555
C2_5 C3_5 1_555 1_555
C3_5 H1_5 1_555 1_555
C4_5 C3_5 1_555 1_555
H2_5 C4_5 1_555 1_555
C5_5 C4_5 1_555 1_555
C6_5 C5_5 1_555 1_555
H3_5 C6_5 1_555 1_555
C7_5 C2_5 1_555 1_555
H4_5 C7_5 1_555 1_555
C8_5 C5_5 1_555 1_555
C9_5 C8_5 1_555 1_555
H5_5 C9_5 1_555 1_555
C10_5 C8_5 1_555 1_555
H6_5 C10_5 1_555 1_555
C11_5 C10_5 1_555 1_555
C12_5 C11_5 1_555 1_555
C13_5 C12_5 1_555 1_555
H7_5 C13_5 1_555 1_555
C14_5 C13_5 1_555 1_555
H8_5 C14_5 1_555 1_555
C15_5 C14_5 1_555 1_555
C16_5 C15_5 1_555 1_555
O6 C1_5 1_555 1_555
C17_5 C18_5 1_555 1_555
C18_5 C19_5 1_555 1_555
C19_5 H9_5 1_555 1_555
C20_5 C19_5 1_555 1_555
H10_5 C20_5 1_555 1_555
C21_5 C20_5 1_555 1_555
C22_5 C21_5 1_555 1_555
H11_5 C22_5 1_555 1_555
C23_5 C18_5 1_555 1_555
C24_5 C9_5 1_555 1_555
C25_5 C11_5 1_555 1_555
H13_5 C25_5 1_555 1_555
C26_5 C12_5 1_555 1_555
H14_5 C26_5 1_555 1_555
C27_5 C15_5 1_555 1_555
H15_5 C27_5 1_555 1_555
O7 C17_5 1_555 1_555
C6_5 C7_5 1_555 1_555
C21_5 C24_5 1_555 1_555
C22_5 C23_5 1_555 1_555
C24_5 C25_5 1_555 1_555
C26_5 C27_5 1_555 1_555
C1_6 C2_6 1_555 1_555
C2_6 C3_6 1_555 1_555
C3_6 H1_6 1_555 1_555
C4_6 C3_6 1_555 1_555
H2_6 C4_6 1_555 1_555
C5_6 C4_6 1_555 1_555
C6_6 C5_6 1_555 1_555
H3_6 C6_6 1_555 1_555
C7_6 C2_6 1_555 1_555
H4_6 C7_6 1_555 1_555
C8_6 C5_6 1_555 1_555
C9_6 C8_6 1_555 1_555
H5_6 C9_6 1_555 1_555
C10_6 C8_6 1_555 1_555
H6_6 C10_6 1_555 1_555
C11_6 C10_6 1_555 1_555
C12_6 C11_6 1_555 1_555
C13_6 C12_6 1_555 1_555
H7_6 C13_6 1_555 1_555
C14_6 C13_6 1_555 1_555
H8_6 C14_6 1_555 1_555
C15_6 C14_6 1_555 1_555
C16_6 C15_6 1_555 1_555
O6_2 C1_6 1_555 1_555
Pr2 O7_2 1_555 1_555
C17_6 C18_6 1_555 1_555
C18_6 C19_6 1_555 1_555
C19_6 H9_6 1_555 1_555
C20_6 C19_6 1_555 1_555
H10_6 C20_6 1_555 1_555
C21_6 C20_6 1_555 1_555
C22_6 C21_6 1_555 1_555
H11_6 C22_6 1_555 1_555
C23_6 C18_6 1_555 1_555
H12_6 C23_6 1_555 1_555
C24_6 C9_6 1_555 1_555
C25_6 C11_6 1_555 1_555
H13_6 C25_6 1_555 1_555
C26_6 C12_6 1_555 1_555
H14_6 C26_6 1_555 1_555
C27_6 C15_6 1_555 1_555
H15_6 C27_6 1_555 1_555
O7_2 C17_6 1_555 1_555
O13_2 C16_6 1_555 1_555
C6_6 C7_6 1_555 1_555
C17_6 O10_2 1_555 1_555
C21_6 C24_6 1_555 1_555
C22_6 C23_6 1_555 1_555
C24_6 C25_6 1_555 1_555
C26_6 C27_6 1_555 1_555
O2_6 Pr2 1_555 1_555
O4_12 Pr2 1_555 1_555
O4_5 H16_5 1_555 1_555
O4_5 H17_5 1_555 1_555
O4_3 H17_6 1_555 1_555
O4_4 H16_6 1_555 1_555
O4_11 H16_7 1_555 1_555
O4_11 H17_7 1_555 1_555
O4_8 H16_8 1_555 1_555
O4_8 H17_8 1_555 1_555

#END
