
###############################################################################
#
# This file contains modified crystal structure data generated from the
# MOF subset of the Cambridge Structural Database (CSD) v543 
# hosted by the Cambridge Crystallographic Data Centre (CCDC).
#
# This work is licensed under the Creative Commons
# Attribution-NonCommercial-ShareAlike 4.0 International License.
# To view a copy of this license, visit
# http://creativecommons.org/licenses/by-nc-sa/4.0/
# or send a letter to
# Creative Commons, PO Box 1866, Mountain View, CA 94042, USA.
#
# CIF created using the CSD Python API on 29 September 2022
# The structure has been converted into the P1 space group
# The structure has a 3D framework
# The original CSD entry ZEDZAL01 is in the hexagonal crystal system
# The original CSD entry ZEDZAL01 is in a Sohncke space group
# The framework has been calculated to contain at least 10.0% void space
# The void calculation uses a probe of radius 1.32A, grid spacing 0.4
# H atom positions have been added when not included in the experimental data
# Generated hydrogen atom positions removed from atoms on special positions
#
###############################################################################

data_ZEDZAL01
_chemical_formula_moiety         '(C162 H114 O40 Pr12)n'
_symmetry_cell_setting           triclinic
_symmetry_space_group_name_H-M   'P 1'
_symmetry_Int_Tables_number      1
_space_group_name_Hall           'P 1'
loop_
_symmetry_equiv_pos_site_id
_symmetry_equiv_pos_as_xyz
1 x,y,z
_cell_length_a                   16.4393(3)
_cell_length_b                   16.4393(3)
_cell_length_c                   23.7770(9)
_cell_angle_alpha                90
_cell_angle_beta                 90
_cell_angle_gamma                120
_cell_volume                     5564.86
loop_
_atom_site_label
_atom_site_type_symbol
_atom_site_fract_x
_atom_site_fract_y
_atom_site_fract_z
O12 O 0.0642(5) 0.0705(5) 0.0451(3)
O7 O 0.0330(7) 0.1416(5) 0.9312(3)
Pr1 Pr 0.91567(4) 0.0000 0.0000
O4 O 0.7649(8) 0.0000 0.0000
O8 O 0.8914(5) 0.0330(7) 0.0979(3)
H16 H 0.749942 0.0103528 0.0388836
Pr1_2 Pr 0.91567(4) 0.0000 1.0000
O4_2 O 0.7649(8) 0.0000 1.0000
O10 O 0.9595(9) 0.1695(6) 0.9984(5)
H17 H 0.770297 0.0510629 0.97519
Pr1_3 Pr 0.91567(4) 1.0000 0.0000
C1 C 0.8258(7) 0.8013(7) 0.0374(5)
C2 C 0.7883(7) 0.6967(7) 0.0420(4)
C3 C 0.8324(8) 0.6614(7) 0.0748(5)
H1 H 0.8896 0.7023 0.0916
C4 C 0.7928(7) 0.5663(7) 0.0828(5)
H2 H 0.8229 0.5439 0.1059
C5 C 0.7066(7) 0.5015(6) 0.0566(5)
C6 C 0.6662(9) 0.5380(8) 0.0213(5)
H3 H 0.6118 0.4971 0.0018
C7 C 0.7048(8) 0.6349(8) 0.0141(5)
C8 C 0.6574(7) 0.4009(7) 0.0704(5)
C9 C 0.7067(10) 0.3533(5) 0.0833
H5 H 0.7720 0.3860 0.0833
C10 C 0.5613(8) 0.3497(8) 0.0691(6)
H6 H 0.5285 0.3795 0.0581
C11 C 0.5108(11) 0.2554(6) 0.0833
C12 C 0.4055(11) 0.2027(6) 0.0833
C13 C 0.3563(11) 0.2213(9) 0.0426(7)
H7 H 0.3889 0.2658 0.0148
C14 C 0.2594(11) 0.1741(9) 0.0430(6)
H8 H 0.2271 0.1884 0.0163
C15 C 0.2095(11) 0.1048(6) 0.0833
C16 C 0.1041(11) 0.0521(5) 0.0833
O1 O 0.8914(5) 0.8584(5) 0.0688(3)
O2 O 0.7900(7) 0.8305(6) 0.0016(5)
O4_3 O 0.7649(8) 1.0000 0.0000
Pr2 Pr 0.91567(4) 0.91567(4) 0.1667
C17 C 0.8258(7) 0.0245(10) 0.1293(5)
C18 C 0.7883(7) 0.0916(10) 0.1247(4)
C19 C 0.8324(8) 0.1710(11) 0.0919(5)
H9 H 0.8896 0.1873 0.0751
C20 C 0.7928(7) 0.2265(10) 0.0839(5)
H10 H 0.8229 0.2790 0.0608
C21 C 0.7066(7) 0.2051(9) 0.1101(5)
C22 C 0.6662(9) 0.1282(12) 0.1454(5)
H11 H 0.6118 0.1147 0.1649
C23 C 0.7048(8) 0.0699(11) 0.1526(5)
H12 H 0.6752 0.0171 0.1757
C24 C 0.6574(7) 0.2565(10) 0.0963(5)
C25 C 0.5613(8) 0.2116(11) 0.0976(6)
H13 H 0.5285 0.1490 0.1086
C26 C 0.3563(11) 0.1350(14) 0.1241(7)
H14 H 0.3889 0.1231 0.1519
C27 C 0.2594(11) 0.0853(14) 0.1237(6)
H15 H 0.2271 0.0387 0.1504
Pr1_4 Pr 0.91567(4) 1.0000 1.0000
H4 H 0.6752 0.6581 0.9910
O4_4 O 0.7649(8) 1.0000 1.0000
O6 O 0.8584(5) 0.9670(7) 0.9021(3)
O13 O 0.9937(7) 0.9295(5) 0.9549(3)
O9 O 0.7900(7) 0.9595(9) 0.1651(5)
O11 O 0.0642(5) 0.9937(7) 0.1216(3)
Pr4 Pr 0.08433(4) 0.00000(6) 0.5000
Pr4_2 Pr 0.08433(4) 1.00000(6) 0.5000
Pr5 Pr 0.0000 0.91567(4) 0.3333
O9_2 O 0.0405(9) 0.8305(11) 0.4984(5)
O11_2 O 0.0063(7) 0.0705(9) 0.4549(3)
C1_2 C 0.1987(7) 0.0245(10) 0.3707(5)
C2_2 C 0.3033(7) 0.0916(10) 0.3753(4)
C3_2 C 0.3386(7) 0.1710(11) 0.4081(5)
H1_2 H 0.2977 0.1873 0.4249
C4_2 C 0.4337(7) 0.2265(10) 0.4161(5)
H2_2 H 0.4561 0.2790 0.4392
C5_2 C 0.4985(6) 0.2051(9) 0.3899(5)
C6_2 C 0.4620(8) 0.1282(12) 0.3546(5)
H3_2 H 0.5029 0.1147 0.3351
C7_2 C 0.3651(8) 0.0699(11) 0.3474(5)
H4_2 H 0.3419 0.0171 0.3243
C8_2 C 0.5991(7) 0.2565(10) 0.4037(5)
C9_2 C 0.6467(5) 0.3534(11) 0.4166
H5_2 H 0.6140 0.3860 0.4166
C10_2 C 0.6503(8) 0.2116(11) 0.4024(6)
H6_2 H 0.6205 0.1490 0.3914
C11_2 C 0.7446(6) 0.2554(13) 0.4166
C12_2 C 0.7973(6) 0.2028(13) 0.4166
C13_2 C 0.7787(9) 0.1350(14) 0.3759(7)
H7_2 H 0.7342 0.1231 0.3481
C14_2 C 0.8259(9) 0.0853(14) 0.3763(6)
H8_2 H 0.8116 0.0387 0.3496
C15_2 C 0.8952(6) 0.1047(13) 0.4166
C16_2 C 0.9479(5) 0.0520(12) 0.4166
O1_2 O 0.1416(5) 0.0330(7) 0.4021(3)
Pr5_2 Pr 1.0000 0.91567(4) 0.3333
C17_2 C 0.9755(10) 0.8013(12) 0.4626(5)
C18_2 C 0.9084(10) 0.6967(12) 0.4580(4)
C19_2 C 0.8290(11) 0.6614(14) 0.4252(5)
H9_2 H 0.8127 0.7023 0.4084
C20_2 C 0.7735(10) 0.5663(12) 0.4172(5)
H10_2 H 0.7210 0.5439 0.3941
C21_2 C 0.7949(9) 0.5015(11) 0.4434(5)
C22_2 C 0.8718(12) 0.5380(15) 0.4787(5)
H11_2 H 0.8853 0.4971 0.4982
C23_2 C 0.9301(11) 0.6349(14) 0.4859(5)
H12_2 H 0.9829 0.6581 0.5090
C24_2 C 0.7435(10) 0.4009(12) 0.4296(5)
C25_2 C 0.7884(11) 0.3497(14) 0.4309(6)
H13_2 H 0.8510 0.3795 0.4419
C26_2 C 0.8650(14) 0.2213(18) 0.4574(7)
H14_2 H 0.8769 0.2658 0.4852
C27_2 C 0.9147(14) 0.1741(18) 0.4570(6)
H15_2 H 0.9613 0.1884 0.4837
O5 O 0.9670(7) 0.8584(9) 0.4312(3)
O13_2 O 0.0705(5) 0.0642(9) 0.2882(3)
O2_2 O 0.1695(6) 0.9595(9) 0.3349(5)
O3 O 0.9295(5) 0.9937(7) 0.3784(3)
O4_5 O 0.0000 0.7649(8) 0.3333
O6_2 O 0.0330(7) 0.8914(9) 0.2355(3)
O4_6 O 1.0000 0.7649(8) 0.3333
O7_2 O 0.8584(5) 0.8914(9) 0.2645(3)
O10_2 O 0.8305(6) 0.7900(11) 0.3317(5)
H16_2 H 0.989647 0.739589 0.372217
H17_2 H 0.948937 0.719234 0.308523
Pr3 Pr 0.08433(4) 0.08433(4) 0.6667
Pr6 Pr 0.00000(6) 0.08433(4) 0.8333
O2_3 O 0.0405(9) 0.2100(7) 0.6683(5)
O3_2 O 0.0063(7) 0.9358(5) 0.7118(3)
O4_7 O 0.2351(8) 0.2351(8) 0.6667
O6_3 O 0.1086(9) 0.1416(5) 0.5688(3)
O8_2 O 0.1416(9) 0.1086(5) 0.7645(3)
O10_3 O 0.2100(11) 0.0405(9) 0.6651(5)
O7_3 O 0.1086(9) 0.9670(7) 0.5979(3)
Pr6_2 Pr 1.00000(6) 0.08433(4) 0.8333
C1_3 C 0.9755(10) 0.1742(7) 0.7041(5)
C2_3 C 0.9084(10) 0.2117(7) 0.7087(4)
C3_3 C 0.8290(11) 0.1676(8) 0.7415(5)
H1_3 H 0.8127 0.1104 0.7583
C4_3 C 0.7735(10) 0.2072(7) 0.7495(5)
H2_3 H 0.7210 0.1771 0.7726
C5_3 C 0.7949(9) 0.2934(7) 0.7233(5)
C6_3 C 0.8718(12) 0.3338(9) 0.6880(5)
H3_3 H 0.8853 0.3882 0.6685
C7_3 C 0.9301(11) 0.2952(8) 0.6808(5)
H4_3 H 0.9829 0.3248 0.6577
C8_3 C 0.7435(10) 0.3426(7) 0.7371(5)
C9_3 C 0.6466(11) 0.2933(10) 0.7500
H5_3 H 0.6140 0.2280 0.7500
C10_3 C 0.7884(11) 0.4387(8) 0.7358(6)
H6_3 H 0.8510 0.4715 0.7248
C11_3 C 0.7446(13) 0.4892(11) 0.7500
C12_3 C 0.7972(13) 0.5945(11) 0.7500
C13_3 C 0.8650(14) 0.6437(11) 0.7093(7)
H7_3 H 0.8769 0.6111 0.6815
C14_3 C 0.9147(14) 0.7406(11) 0.7097(6)
H8_3 H 0.9613 0.7729 0.6830
C15_3 C 0.8953(13) 0.7905(11) 0.7500
C16_3 C 0.9480(12) 0.8959(11) 0.7500
O1_3 O 0.9670(7) 0.1086(5) 0.7355(3)
C17_3 C 0.1987(12) 0.1742(7) 0.7959(5)
C18_3 C 0.3033(12) 0.2117(7) 0.7913(4)
C19_3 C 0.3386(14) 0.1676(8) 0.7585(5)
H9_3 H 0.2977 0.1104 0.7417
C20_3 C 0.4337(12) 0.2072(7) 0.7505(5)
H10_3 H 0.4561 0.1771 0.7274
C21_3 C 0.4985(11) 0.2934(7) 0.7767(5)
C22_3 C 0.4620(15) 0.3338(9) 0.8120(5)
H11_3 H 0.5029 0.3882 0.8315
C23_3 C 0.3651(14) 0.2952(8) 0.8192(5)
H12_3 H 0.3419 0.3248 0.8423
C24_3 C 0.5991(12) 0.3426(7) 0.7629(5)
C25_3 C 0.6503(14) 0.4387(8) 0.7642(6)
H13_3 H 0.6205 0.4715 0.7752
C26_3 C 0.7787(18) 0.6437(11) 0.7907(7)
H14_3 H 0.7342 0.6111 0.8185
C27_3 C 0.8259(18) 0.7406(11) 0.7903(6)
H15_3 H 0.8116 0.7729 0.8170
O9_3 O 0.1695(11) 0.2100(7) 0.8317(5)
O11_3 O 0.9295(9) 0.9358(5) 0.7882(3)
O13_3 O 0.9358(9) 0.0063(7) 0.6216(3)
C1_4 C 0.1742(7) 0.1987(7) 0.5374(5)
C2_4 C 0.2117(7) 0.3033(7) 0.5420(4)
C3_4 C 0.1676(8) 0.3386(7) 0.5748(5)
H1_4 H 0.1104 0.2977 0.5916
C4_4 C 0.2072(7) 0.4337(7) 0.5828(5)
H2_4 H 0.1771 0.4561 0.6059
C5_4 C 0.2934(7) 0.4985(6) 0.5566(5)
C6_4 C 0.3338(9) 0.4620(8) 0.5213(5)
H3_4 H 0.3882 0.5029 0.5018
C7_4 C 0.2952(8) 0.3651(8) 0.5141(5)
H4_4 H 0.3248 0.3419 0.4910
C8_4 C 0.3426(7) 0.5991(7) 0.5704(5)
C9_4 C 0.2933(10) 0.6467(5) 0.5833
H5_4 H 0.2280 0.6140 0.5833
C10_4 C 0.4387(8) 0.6503(8) 0.5691(6)
H6_4 H 0.4715 0.6205 0.5581
C11_4 C 0.4892(11) 0.7446(6) 0.5833
C12_4 C 0.5945(11) 0.7973(6) 0.5833
C13_4 C 0.6437(11) 0.7787(9) 0.5426(7)
H7_4 H 0.6111 0.7342 0.5148
C14_4 C 0.7406(11) 0.8259(9) 0.5430(6)
H8_4 H 0.7729 0.8116 0.5163
C15_4 C 0.7905(11) 0.8952(6) 0.5833
C16_4 C 0.8959(11) 0.9479(5) 0.5833
O2_4 O 0.2100(7) 0.1695(6) 0.5016(5)
O3_3 O 0.9358(5) 0.9295(5) 0.5451(3)
O4_8 O 0.2351(8) 0.0000 0.5000
C17_4 C 0.1742(7) 0.9755(10) 0.6293(5)
C18_4 C 0.2117(7) 0.9084(10) 0.6247(4)
C19_4 C 0.1676(8) 0.8290(11) 0.5919(5)
H9_4 H 0.1104 0.8127 0.5751
C20_4 C 0.2072(7) 0.7735(10) 0.5839(5)
H10_4 H 0.1771 0.7210 0.5608
C21_4 C 0.2934(7) 0.7949(9) 0.6101(5)
C22_4 C 0.3338(9) 0.8718(12) 0.6454(5)
H11_4 H 0.3882 0.8853 0.6649
C23_4 C 0.2952(8) 0.9301(11) 0.6526(5)
H12_4 H 0.3248 0.9829 0.6757
C24_4 C 0.3426(7) 0.7435(10) 0.5963(5)
C25_4 C 0.4387(8) 0.7884(11) 0.5976(6)
H13_4 H 0.4715 0.8510 0.6086
C26_4 C 0.6437(11) 0.8650(14) 0.6241(7)
H14_4 H 0.6111 0.8769 0.6519
C27_4 C 0.7406(11) 0.9147(14) 0.6237(6)
H15_4 H 0.7729 0.9613 0.6504
O4_9 O 0.2351(8) 1.0000 0.5000
H16_3 H 0.250058 0.989647 0.538884
H17_3 H 0.229703 0.948937 0.47519
O4_10 O 0.0000 0.2351(8) 0.8333
O12_2 O 0.0705(5) 0.0063(7) 0.8784(3)
H16_4 H 0.0103528 0.260411 0.872217
H17_4 H 0.0510629 0.280766 0.808523
O2_5 O 0.8305(6) 0.0405(9) 0.8349(5)
O4_11 O 1.0000 0.2351(8) 0.8333
H12_5 H 0.0171 0.3419 0.0090
C1_5 C 0.8013(7) 0.9755(10) 0.8707(5)
C2_5 C 0.6967(7) 0.9084(10) 0.8753(4)
C3_5 C 0.6614(7) 0.8290(11) 0.9081(5)
H1_5 H 0.7023 0.8127 0.9249
C4_5 C 0.5663(7) 0.7735(10) 0.9161(5)
H2_5 H 0.5439 0.7210 0.9392
C5_5 C 0.5015(6) 0.7949(9) 0.8899(5)
C6_5 C 0.5380(8) 0.8718(12) 0.8546(5)
H3_5 H 0.4971 0.8853 0.8351
C7_5 C 0.6349(8) 0.9301(11) 0.8474(5)
H4_5 H 0.6581 0.9829 0.8243
C8_5 C 0.4009(7) 0.7435(10) 0.9037(5)
C9_5 C 0.3533(5) 0.6466(11) 0.9166
H5_5 H 0.3860 0.6140 0.9166
C10_5 C 0.3497(8) 0.7884(11) 0.9024(6)
H6_5 H 0.3795 0.8510 0.8914
C11_5 C 0.2554(6) 0.7446(13) 0.9166
C12_5 C 0.2027(6) 0.7972(13) 0.9166
C13_5 C 0.2213(9) 0.8650(14) 0.8759(7)
H7_5 H 0.2658 0.8769 0.8481
C14_5 C 0.1741(9) 0.9147(14) 0.8763(6)
H8_5 H 0.1884 0.9613 0.8496
C15_5 C 0.1048(6) 0.8953(13) 0.9166
C16_5 C 0.0521(5) 0.9480(12) 0.9166
C17_5 C 0.0245(10) 0.1987(12) 0.9626(5)
C18_5 C 0.0916(10) 0.3033(12) 0.9580(4)
C19_5 C 0.1710(11) 0.3386(14) 0.9252(5)
H9_5 H 0.1873 0.2977 0.9084
C20_5 C 0.2265(10) 0.4337(12) 0.9172(5)
H10_5 H 0.2790 0.4561 0.8941
C21_5 C 0.2051(9) 0.4985(11) 0.9434(5)
C22_5 C 0.1282(12) 0.4620(15) 0.9787(5)
H11_5 H 0.1147 0.5029 0.9982
C23_5 C 0.0699(11) 0.3651(14) 0.9859(5)
C24_5 C 0.2565(10) 0.5991(12) 0.9296(5)
C25_5 C 0.2116(11) 0.6503(14) 0.9309(6)
H13_5 H 0.1490 0.6205 0.9419
C26_5 C 0.1350(14) 0.7787(18) 0.9574(7)
H14_5 H 0.1231 0.7342 0.9852
C27_5 C 0.0853(14) 0.8259(18) 0.9570(6)
H15_5 H 0.0387 0.8116 0.9837
C1_6 C 0.0245(10) 0.8258(7) 0.2041(5)
C2_6 C 0.0916(10) 0.7883(7) 0.2087(4)
C3_6 C 0.1710(11) 0.8324(8) 0.2415(5)
H1_6 H 0.1873 0.8896 0.2583
C4_6 C 0.2265(10) 0.7928(7) 0.2495(5)
H2_6 H 0.2790 0.8229 0.2726
C5_6 C 0.2051(9) 0.7066(7) 0.2233(5)
C6_6 C 0.1282(12) 0.6662(9) 0.1880(5)
H3_6 H 0.1147 0.6118 0.1685
C7_6 C 0.0699(11) 0.7048(8) 0.1808(5)
H4_6 H 0.0171 0.6752 0.1577
C8_6 C 0.2565(10) 0.6574(7) 0.2371(5)
C9_6 C 0.3534(11) 0.7067(10) 0.2500
H5_6 H 0.3860 0.7720 0.2500
C10_6 C 0.2116(11) 0.5613(8) 0.2358(6)
H6_6 H 0.1490 0.5285 0.2248
C11_6 C 0.2554(13) 0.5108(11) 0.2500
C12_6 C 0.2028(13) 0.4055(11) 0.2500
C13_6 C 0.1350(14) 0.3563(11) 0.2093(7)
H7_6 H 0.1231 0.3889 0.1815
C14_6 C 0.0853(14) 0.2594(11) 0.2097(6)
H8_6 H 0.0387 0.2271 0.1830
C15_6 C 0.1047(13) 0.2095(11) 0.2500
C16_6 C 0.0520(12) 0.1041(11) 0.2500
C17_6 C 0.8013(12) 0.8258(7) 0.2959(5)
C18_6 C 0.6967(12) 0.7883(7) 0.2913(4)
C19_6 C 0.6614(14) 0.8324(8) 0.2585(5)
H9_6 H 0.7023 0.8896 0.2417
C20_6 C 0.5663(12) 0.7928(7) 0.2505(5)
H10_6 H 0.5439 0.8229 0.2274
C21_6 C 0.5015(11) 0.7066(7) 0.2767(5)
C22_6 C 0.5380(15) 0.6662(9) 0.3120(5)
H11_6 H 0.4971 0.6118 0.3315
C23_6 C 0.6349(14) 0.7048(8) 0.3192(5)
H12_6 H 0.6581 0.6752 0.3423
C24_6 C 0.4009(12) 0.6574(7) 0.2629(5)
C25_6 C 0.3497(14) 0.5613(8) 0.2642(6)
H13_6 H 0.3795 0.5285 0.2752
C26_6 C 0.2213(18) 0.3563(11) 0.2907(7)
H14_6 H 0.2658 0.3889 0.3185
C27_6 C 0.1741(18) 0.2594(11) 0.2903(6)
H15_6 H 0.1884 0.2271 0.3170
O12_3 O 0.9937(7) 0.0642(5) 0.2118(3)
O2_6 O 0.9595(9) 0.7900(7) 0.1683(5)
O4_12 O 0.7649(8) 0.7649(8) 0.1667
H16_5 H 0.0103528 0.749942 0.29445
H17_5 H 0.0510629 0.770297 0.358144
H17_6 H 0.719234 0.948937 0.0248102
H16_6 H 0.739589 0.989647 0.961116
H16_7 H 0.989647 0.250058 0.79445
H17_7 H 0.948937 0.229703 0.858144
H16_8 H 0.260411 0.0103528 0.461116
H17_8 H 0.280766 0.0510629 0.52481
loop_
_geom_bond_atom_site_label_1
_geom_bond_atom_site_label_2
_geom_bond_site_symmetry_1
_geom_bond_site_symmetry_2
O4 Pr1 1_555 1_555
O8 Pr1 1_555 1_555
O4 H16 1_555 1_555
O4_2 Pr1_2 1_555 1_555
O10 Pr1_2 1_555 1_555
O4_2 H17 1_555 1_555
Pr1_3 O1 1_555 1_555
C1 C2 1_555 1_555
C2 C3 1_555 1_555
C3 H1 1_555 1_555
C4 C3 1_555 1_555
H2 C4 1_555 1_555
C5 C4 1_555 1_555
C6 C5 1_555 1_555
H3 C6 1_555 1_555
C7 C2 1_555 1_555
C8 C5 1_555 1_555
C9 C8 1_555 1_555
H5 C9 1_555 1_555
C10 C8 1_555 1_555
H6 C10 1_555 1_555
C11 C10 1_555 1_555
C12 C11 1_555 1_555
C13 C12 1_555 1_555
H7 C13 1_555 1_555
C14 C13 1_555 1_555
H8 C14 1_555 1_555
C15 C14 1_555 1_555
C16 C15 1_555 1_555
O1 C1 1_555 1_555
O2 Pr1_3 1_555 1_555
O12 C16 1_555 1_555
O4_3 Pr1_3 1_555 1_555
Pr2 O1 1_555 1_555
C17 C18 1_555 1_555
C18 C19 1_555 1_555
C19 H9 1_555 1_555
C20 C19 1_555 1_555
H10 C20 1_555 1_555
C21 C20 1_555 1_555
C22 C21 1_555 1_555
H11 C22 1_555 1_555
C23 C18 1_555 1_555
H12 C23 1_555 1_555
C24 C9 1_555 1_555
C25 C11 1_555 1_555
H13 C25 1_555 1_555
C26 C12 1_555 1_555
H14 C26 1_555 1_555
C27 C15 1_555 1_555
H15 C27 1_555 1_555
O8 C17 1_555 1_555
C1 O2 1_555 1_555
C6 C7 1_555 1_555
C21 C24 1_555 1_555
C22 C23 1_555 1_555
C24 C25 1_555 1_555
C26 C27 1_555 1_555
O4_4 Pr1_4 1_555 1_555
O6 Pr1_4 1_555 1_555
O13 Pr1_4 1_555 1_555
O9 Pr2 1_555 1_555
Pr4 O11_2 1_555 1_555
O9_2 Pr4_2 1_555 1_555
C1_2 C2_2 1_555 1_555
C2_2 C3_2 1_555 1_555
C3_2 H1_2 1_555 1_555
C4_2 C3_2 1_555 1_555
H2_2 C4_2 1_555 1_555
C5_2 C4_2 1_555 1_555
C6_2 C5_2 1_555 1_555
H3_2 C6_2 1_555 1_555
C7_2 C2_2 1_555 1_555
H4_2 C7_2 1_555 1_555
C8_2 C5_2 1_555 1_555
C9_2 C8_2 1_555 1_555
H5_2 C9_2 1_555 1_555
C10_2 C8_2 1_555 1_555
H6_2 C10_2 1_555 1_555
C11_2 C10_2 1_555 1_555
C12_2 C11_2 1_555 1_555
C13_2 C12_2 1_555 1_555
H7_2 C13_2 1_555 1_555
C14_2 C13_2 1_555 1_555
H8_2 C14_2 1_555 1_555
C15_2 C14_2 1_555 1_555
C16_2 C15_2 1_555 1_555
O1_2 C1_2 1_555 1_555
Pr4 O1_2 1_555 1_555
Pr5_2 O5 1_555 1_555
C17_2 C18_2 1_555 1_555
C18_2 C19_2 1_555 1_555
C19_2 H9_2 1_555 1_555
C20_2 C19_2 1_555 1_555
H10_2 C20_2 1_555 1_555
C21_2 C20_2 1_555 1_555
C22_2 C21_2 1_555 1_555
H11_2 C22_2 1_555 1_555
C23_2 C18_2 1_555 1_555
H12_2 C23_2 1_555 1_555
C24_2 C9_2 1_555 1_555
C25_2 C11_2 1_555 1_555
H13_2 C25_2 1_555 1_555
C26_2 C12_2 1_555 1_555
H14_2 C26_2 1_555 1_555
C27_2 C15_2 1_555 1_555
H15_2 C27_2 1_555 1_555
O5 C17_2 1_555 1_555
C6_2 C7_2 1_555 1_555
C21_2 C24_2 1_555 1_555
C22_2 C23_2 1_555 1_555
C24_2 C25_2 1_555 1_555
C26_2 C27_2 1_555 1_555
O2_2 Pr5 1_555 1_555
O4_5 Pr5 1_555 1_555
Pr5_2 O3 1_555 1_555
O6_2 Pr5 1_555 1_555
O4_6 Pr5_2 1_555 1_555
O7_2 Pr5_2 1_555 1_555
O10_2 Pr5_2 1_555 1_555
O4_6 H16_2 1_555 1_555
O4_6 H17_2 1_555 1_555
O2_3 Pr3 1_555 1_555
O4_7 Pr3 1_555 1_555
O6_3 Pr3 1_555 1_555
O8_2 Pr3 1_555 1_555
O10_3 Pr3 1_555 1_555
Pr6 O8_2 1_555 1_555
C1_3 C2_3 1_555 1_555
C2_3 C3_3 1_555 1_555
C3_3 H1_3 1_555 1_555
C4_3 C3_3 1_555 1_555
H2_3 C4_3 1_555 1_555
C5_3 C4_3 1_555 1_555
C6_3 C5_3 1_555 1_555
H3_3 C6_3 1_555 1_555
C7_3 C2_3 1_555 1_555
H4_3 C7_3 1_555 1_555
C8_3 C5_3 1_555 1_555
C9_3 C8_3 1_555 1_555
H5_3 C9_3 1_555 1_555
C10_3 C8_3 1_555 1_555
H6_3 C10_3 1_555 1_555
C11_3 C10_3 1_555 1_555
C12_3 C11_3 1_555 1_555
C13_3 C12_3 1_555 1_555
H7_3 C13_3 1_555 1_555
C14_3 C13_3 1_555 1_555
H8_3 C14_3 1_555 1_555
C15_3 C14_3 1_555 1_555
C16_3 C15_3 1_555 1_555
O1_3 C1_3 1_555 1_555
Pr6_2 O1_3 1_555 1_555
C17_3 C18_3 1_555 1_555
C18_3 C19_3 1_555 1_555
C19_3 H9_3 1_555 1_555
C20_3 C19_3 1_555 1_555
H10_3 C20_3 1_555 1_555
C21_3 C20_3 1_555 1_555
C22_3 C21_3 1_555 1_555
H11_3 C22_3 1_555 1_555
C23_3 C18_3 1_555 1_555
H12_3 C23_3 1_555 1_555
C24_3 C9_3 1_555 1_555
C25_3 C11_3 1_555 1_555
H13_3 C25_3 1_555 1_555
C26_3 C12_3 1_555 1_555
H14_3 C26_3 1_555 1_555
C27_3 C15_3 1_555 1_555
H15_3 C27_3 1_555 1_555
O8_2 C17_3 1_555 1_555
O9_3 Pr6 1_555 1_555
O11_3 C16_3 1_555 1_555
C6_3 C7_3 1_555 1_555
C17_3 O9_3 1_555 1_555
C21_3 C24_3 1_555 1_555
C22_3 C23_3 1_555 1_555
C24_3 C25_3 1_555 1_555
C26_3 C27_3 1_555 1_555
Pr4 O6_3 1_555 1_555
C1_4 C2_4 1_555 1_555
C2_4 C3_4 1_555 1_555
C3_4 H1_4 1_555 1_555
C4_4 C3_4 1_555 1_555
H2_4 C4_4 1_555 1_555
C5_4 C4_4 1_555 1_555
C6_4 C5_4 1_555 1_555
H3_4 C6_4 1_555 1_555
C7_4 C2_4 1_555 1_555
H4_4 C7_4 1_555 1_555
C8_4 C5_4 1_555 1_555
C9_4 C8_4 1_555 1_555
H5_4 C9_4 1_555 1_555
C10_4 C8_4 1_555 1_555
H6_4 C10_4 1_555 1_555
C11_4 C10_4 1_555 1_555
C12_4 C11_4 1_555 1_555
C13_4 C12_4 1_555 1_555
H7_4 C13_4 1_555 1_555
C14_4 C13_4 1_555 1_555
H8_4 C14_4 1_555 1_555
C15_4 C14_4 1_555 1_555
C16_4 C15_4 1_555 1_555
O6_3 C1_4 1_555 1_555
O2_4 Pr4 1_555 1_555
O3_3 C16_4 1_555 1_555
O4_8 Pr4 1_555 1_555
Pr4_2 O7_3 1_555 1_555
C17_4 C18_4 1_555 1_555
C18_4 C19_4 1_555 1_555
C19_4 H9_4 1_555 1_555
C20_4 C19_4 1_555 1_555
H10_4 C20_4 1_555 1_555
C21_4 C20_4 1_555 1_555
C22_4 C21_4 1_555 1_555
H11_4 C22_4 1_555 1_555
C23_4 C18_4 1_555 1_555
H12_4 C23_4 1_555 1_555
C24_4 C9_4 1_555 1_555
C25_4 C11_4 1_555 1_555
H13_4 C25_4 1_555 1_555
C26_4 C12_4 1_555 1_555
H14_4 C26_4 1_555 1_555
C27_4 C15_4 1_555 1_555
H15_4 C27_4 1_555 1_555
O7_3 C17_4 1_555 1_555
C1_4 O2_4 1_555 1_555
C6_4 C7_4 1_555 1_555
C21_4 C24_4 1_555 1_555
C22_4 C23_4 1_555 1_555
C24_4 C25_4 1_555 1_555
C26_4 C27_4 1_555 1_555
O4_9 Pr4_2 1_555 1_555
O4_9 H16_3 1_555 1_555
O4_9 H17_3 1_555 1_555
O4_10 Pr6 1_555 1_555
O7 Pr6 1_555 1_555
O12_2 Pr6 1_555 1_555
O4_10 H16_4 1_555 1_555
O4_10 H17_4 1_555 1_555
O2_5 Pr6_2 1_555 1_555
O4_11 Pr6_2 1_555 1_555
C1_5 C2_5 1_555 1_555
C2_5 C3_5 1_555 1_555
C3_5 H1_5 1_555 1_555
C4_5 C3_5 1_555 1_555
H2_5 C4_5 1_555 1_555
C5_5 C4_5 1_555 1_555
C6_5 C5_5 1_555 1_555
H3_5 C6_5 1_555 1_555
C7_5 C2_5 1_555 1_555
H4_5 C7_5 1_555 1_555
C8_5 C5_5 1_555 1_555
C9_5 C8_5 1_555 1_555
H5_5 C9_5 1_555 1_555
C10_5 C8_5 1_555 1_555
H6_5 C10_5 1_555 1_555
C11_5 C10_5 1_555 1_555
C12_5 C11_5 1_555 1_555
C13_5 C12_5 1_555 1_555
H7_5 C13_5 1_555 1_555
C14_5 C13_5 1_555 1_555
H8_5 C14_5 1_555 1_555
C15_5 C14_5 1_555 1_555
C16_5 C15_5 1_555 1_555
O6 C1_5 1_555 1_555
C17_5 C18_5 1_555 1_555
C18_5 C19_5 1_555 1_555
C19_5 H9_5 1_555 1_555
C20_5 C19_5 1_555 1_555
H10_5 C20_5 1_555 1_555
C21_5 C20_5 1_555 1_555
C22_5 C21_5 1_555 1_555
H11_5 C22_5 1_555 1_555
C23_5 C18_5 1_555 1_555
C24_5 C9_5 1_555 1_555
C25_5 C11_5 1_555 1_555
H13_5 C25_5 1_555 1_555
C26_5 C12_5 1_555 1_555
H14_5 C26_5 1_555 1_555
C27_5 C15_5 1_555 1_555
H15_5 C27_5 1_555 1_555
O7 C17_5 1_555 1_555
C6_5 C7_5 1_555 1_555
C21_5 C24_5 1_555 1_555
C22_5 C23_5 1_555 1_555
C24_5 C25_5 1_555 1_555
C26_5 C27_5 1_555 1_555
C1_6 C2_6 1_555 1_555
C2_6 C3_6 1_555 1_555
C3_6 H1_6 1_555 1_555
C4_6 C3_6 1_555 1_555
H2_6 C4_6 1_555 1_555
C5_6 C4_6 1_555 1_555
C6_6 C5_6 1_555 1_555
H3_6 C6_6 1_555 1_555
C7_6 C2_6 1_555 1_555
H4_6 C7_6 1_555 1_555
C8_6 C5_6 1_555 1_555
C9_6 C8_6 1_555 1_555
H5_6 C9_6 1_555 1_555
C10_6 C8_6 1_555 1_555
H6_6 C10_6 1_555 1_555
C11_6 C10_6 1_555 1_555
C12_6 C11_6 1_555 1_555
C13_6 C12_6 1_555 1_555
H7_6 C13_6 1_555 1_555
C14_6 C13_6 1_555 1_555
H8_6 C14_6 1_555 1_555
C15_6 C14_6 1_555 1_555
C16_6 C15_6 1_555 1_555
O6_2 C1_6 1_555 1_555
Pr2 O7_2 1_555 1_555
C17_6 C18_6 1_555 1_555
C18_6 C19_6 1_555 1_555
C19_6 H9_6 1_555 1_555
C20_6 C19_6 1_555 1_555
H10_6 C20_6 1_555 1_555
C21_6 C20_6 1_555 1_555
C22_6 C21_6 1_555 1_555
H11_6 C22_6 1_555 1_555
C23_6 C18_6 1_555 1_555
H12_6 C23_6 1_555 1_555
C24_6 C9_6 1_555 1_555
C25_6 C11_6 1_555 1_555
H13_6 C25_6 1_555 1_555
C26_6 C12_6 1_555 1_555
H14_6 C26_6 1_555 1_555
C27_6 C15_6 1_555 1_555
H15_6 C27_6 1_555 1_555
O7_2 C17_6 1_555 1_555
O13_2 C16_6 1_555 1_555
C6_6 C7_6 1_555 1_555
C17_6 O10_2 1_555 1_555
C21_6 C24_6 1_555 1_555
C22_6 C23_6 1_555 1_555
C24_6 C25_6 1_555 1_555
C26_6 C27_6 1_555 1_555
O2_6 Pr2 1_555 1_555
O4_12 Pr2 1_555 1_555
O4_5 H16_5 1_555 1_555
O4_5 H17_5 1_555 1_555
O4_3 H17_6 1_555 1_555
O4_4 H16_6 1_555 1_555
O4_11 H16_7 1_555 1_555
O4_11 H17_7 1_555 1_555
O4_8 H16_8 1_555 1_555
O4_8 H17_8 1_555 1_555

#END
