
###############################################################################
#
# This file contains modified crystal structure data generated from the
# MOF subset of the Cambridge Structural Database (CSD) v543 
# hosted by the Cambridge Crystallographic Data Centre (CCDC).
#
# This work is licensed under the Creative Commons
# Attribution-NonCommercial-ShareAlike 4.0 International License.
# To view a copy of this license, visit
# http://creativecommons.org/licenses/by-nc-sa/4.0/
# or send a letter to
# Creative Commons, PO Box 1866, Mountain View, CA 94042, USA.
#
# CIF created using the CSD Python API on 29 September 2022
# The structure has been converted into the P1 space group
# The structure has a 3D framework
# The original CSD entry ZEFKII is in the orthorhombic crystal system
# The framework has been calculated to contain at least 10.0% void space
# The void calculation uses a probe of radius 1.32A, grid spacing 0.4
# H atom positions have been added when not included in the experimental data
#
###############################################################################

data_ZEFKII
_chemical_formula_moiety         '(C128 H112 N64 Zn16)n'
_symmetry_cell_setting           triclinic
_symmetry_space_group_name_H-M   'P 1'
_symmetry_Int_Tables_number      1
_space_group_name_Hall           'P 1'
loop_
_symmetry_equiv_pos_site_id
_symmetry_equiv_pos_as_xyz
1 x,y,z
_cell_length_a                   15.4750(16)
_cell_length_b                   15.5877(17)
_cell_length_c                   17.974(2)
_cell_angle_alpha                90
_cell_angle_beta                 90
_cell_angle_gamma                90
_cell_volume                     4335.68
loop_
_atom_site_label
_atom_site_type_symbol
_atom_site_fract_x
_atom_site_fract_y
_atom_site_fract_z
_atom_site_U_iso_or_equiv
_atom_site_thermal_displace_type
C11 C 0.017217 0.490462 0.405702 0.0760 Uiso
C15 C 0.060609 0.343759 0.371904 0.0760 Uiso
C16 C 0.08275 0.430408 0.387111 0.0760 Uiso
Zn5 Zn 0.0103 0.14896 0.31353 0.0570 Uiso
H9 H 0.149988 0.450804 0.384516 . .
H11 H 0.0341977 0.556914 0.417363 . .
H14 H 0.110867 0.297704 0.357646 . .
C1 C 0.64374 0.36546 0.56649 0.0760 Uiso
C2 C 0.60517 0.26309 0.30057 0.0760 Uiso
C3 C 0.60936 0.51224 0.34078 0.0760 Uiso
C4 C 0.8512 0.25128 0.37417 0.0760 Uiso
C5 C 0.635758 0.540008 0.226087 0.0760 Uiso
C6 C 0.699429 0.481445 0.251720 0.0760 Uiso
C7 C 0.604285 0.188489 0.402904 0.0760 Uiso
C8 C 0.565920 0.140998 0.34413 0.0760 Uiso
C9 C 0.608115 0.491707 0.602857 0.0760 Uiso
C10 C 0.651613 0.499597 0.533631 0.0760 Uiso
C12 C 0.929541 0.463866 0.409087 0.0760 Uiso
C13 C 0.907400 0.377217 0.39388 0.0760 Uiso
C14 C 0.972933 0.317163 0.375289 0.0760 Uiso
N1 N 0.57997 0.558727 0.282104 0.0633 Uiso
N2 N 0.566845 0.188172 0.280615 0.0633 Uiso
N3 N 0.628553 0.265583 0.373710 0.0633 Uiso
N4 N 0.681111 0.464977 0.324565 0.0633 Uiso
N5 N 0.937109 0.238880 0.363126 0.0633 Uiso
N6 N 0.830938 0.333705 0.392749 0.0633 Uiso
N7 N 0.603604 0.407785 0.622766 0.0633 Uiso
N8 N 0.673448 0.418609 0.511895 0.0633 Uiso
Zn1 Zn 0.5103 0.35104 0.68647 0.0570 Uiso
Zn2 Zn 0.70303 0.37061 0.40855 0.0570 Uiso
N9 N 0.42003 0.441273 0.717896 0.0633 Uiso
N10 N 0.566845 0.311828 0.780615 0.0633 Uiso
N11 N 0.437109 0.261120 0.636874 0.0633 Uiso
Zn3 Zn 0.5103 0.14896 0.18647 0.0570 Uiso
Zn4 Zn 0.4897 0.64896 0.31353 0.0570 Uiso
H1 H 0.578712 0.512654 0.395319 . .
H2 H 0.651438 0.296035 0.565088 . .
H3 H 0.803282 0.200501 0.368737 . .
H4 H 0.612705 0.167427 0.460216 . .
H5 H 0.616138 0.315893 0.262038 . .
H6 H 0.6322 0.566008 0.169935 . .
H7 H 0.752612 0.454822 0.219452 . .
H8 H 0.879283 0.509921 0.423345 . .
H10 H 0.664961 0.558863 0.50368 . .
H12 H 0.539692 0.0764357 0.349225 . .
H13 H 0.582254 0.544963 0.635137 . .
C3_2 C 0.39064 0.01224 0.15922 0.0760 Uiso
C5_2 C 0.364242 0.040008 0.273913 0.0760 Uiso
N1_2 N 0.42003 0.058727 0.217896 0.0633 Uiso
H1_2 H 0.421288 0.0126538 0.104681 . .
H6_2 H 0.3678 0.0660075 0.330065 . .
H8_2 H 0.120717 0.00992084 0.0766549 . .
C2_2 C 0.39483 0.76309 0.19943 0.0760 Uiso
C4_2 C 0.1488 0.75128 0.12583 0.0760 Uiso
C6_2 C 0.300571 0.981445 0.248280 0.0760 Uiso
C7_2 C 0.395715 0.688489 0.097096 0.0760 Uiso
C8_2 C 0.434080 0.640998 0.15587 0.0760 Uiso
C12_2 C 0.070459 0.963866 0.090913 0.0760 Uiso
C13_2 C 0.092600 0.877217 0.10612 0.0760 Uiso
C14_2 C 0.027067 0.817163 0.124711 0.0760 Uiso
N2_2 N 0.433155 0.688172 0.219385 0.0633 Uiso
N3_2 N 0.371447 0.765583 0.126290 0.0633 Uiso
N4_2 N 0.318889 0.964977 0.175435 0.0633 Uiso
N5_2 N 0.062891 0.738880 0.136874 0.0633 Uiso
N6_2 N 0.169062 0.833705 0.107251 0.0633 Uiso
Zn2_2 Zn 0.29697 0.87061 0.09145 0.0570 Uiso
H3_2 H 0.196718 0.700501 0.131263 . .
H4_2 H 0.387295 0.667427 0.0397842 . .
H5_2 H 0.383862 0.815893 0.237962 . .
H7_2 H 0.247388 0.954822 0.280548 . .
H12_2 H 0.460308 0.576436 0.150775 . .
C1_2 C 0.35626 0.86546 0.93351 0.0760 Uiso
C9_2 C 0.391885 0.991707 0.897143 0.0760 Uiso
C10_2 C 0.348387 0.999597 0.966369 0.0760 Uiso
N7_2 N 0.396396 0.907785 0.877234 0.0633 Uiso
N8_2 N 0.326552 0.918609 0.988105 0.0633 Uiso
Zn1_2 Zn 0.4897 0.85104 0.81353 0.0570 Uiso
N9_2 N 0.57997 0.941273 0.782104 0.0633 Uiso
N10_2 N 0.433155 0.811828 0.719385 0.0633 Uiso
N11_2 N 0.562891 0.761120 0.863126 0.0633 Uiso
H2_2 H 0.348562 0.796035 0.934912 . .
C11_2 C 0.982783 0.990462 0.094298 0.0760 Uiso
C15_2 C 0.939391 0.843759 0.128096 0.0760 Uiso
C16_2 C 0.91725 0.930408 0.112889 0.0760 Uiso
Zn5_2 Zn 0.9897 0.64896 0.18647 0.0570 Uiso
H9_2 H 0.850012 0.950804 0.115484 . .
H14_2 H 0.889133 0.797704 0.142354 . .
N9_3 N 0.07997 0.558727 0.217896 0.0633 Uiso
Zn4_2 Zn 0.0103 0.35104 0.81353 0.0570 Uiso
C1_3 C 0.85626 0.63454 0.06649 0.0760 Uiso
C9_3 C 0.891885 0.508293 0.102857 0.0760 Uiso
C10_3 C 0.848387 0.500403 0.033631 0.0760 Uiso
N7_3 N 0.896396 0.592215 0.122766 0.0633 Uiso
N8_3 N 0.826552 0.581391 0.011895 0.0633 Uiso
N10_3 N 0.933155 0.688172 0.280615 0.0633 Uiso
H2_3 H 0.848562 0.703965 0.0650881 . .
H10_2 H 0.835039 0.441137 0.00367955 . .
H13_2 H 0.917746 0.455037 0.135137 . .
C2_3 C 0.89483 0.73691 0.80057 0.0760 Uiso
C3_3 C 0.89064 0.48776 0.84078 0.0760 Uiso
C4_3 C 0.6488 0.74872 0.87417 0.0760 Uiso
C5_3 C 0.864242 0.459992 0.726087 0.0760 Uiso
C6_3 C 0.800571 0.518555 0.751720 0.0760 Uiso
C7_3 C 0.895715 0.811511 0.902904 0.0760 Uiso
C8_3 C 0.934080 0.859002 0.84413 0.0760 Uiso
C11_3 C 0.482783 0.509538 0.905702 0.0760 Uiso
C12_3 C 0.570459 0.536134 0.909087 0.0760 Uiso
C13_3 C 0.592600 0.622783 0.89388 0.0760 Uiso
C14_3 C 0.527067 0.682837 0.875289 0.0760 Uiso
C15_3 C 0.439391 0.656241 0.871904 0.0760 Uiso
C16_3 C 0.41725 0.569592 0.887111 0.0760 Uiso
N1_3 N 0.92003 0.441273 0.782104 0.0633 Uiso
N2_3 N 0.933155 0.811828 0.780615 0.0633 Uiso
N3_3 N 0.871447 0.734417 0.873710 0.0633 Uiso
N4_3 N 0.818889 0.535023 0.824565 0.0633 Uiso
N6_3 N 0.669062 0.666295 0.892749 0.0633 Uiso
Zn2_3 Zn 0.79697 0.62939 0.90855 0.0570 Uiso
Zn3_2 Zn 0.9897 0.85104 0.68647 0.0570 Uiso
H1_3 H 0.921288 0.487346 0.895319 . .
H3_3 H 0.696718 0.799499 0.868737 . .
H4_3 H 0.887295 0.832573 0.960216 . .
H5_3 H 0.883862 0.684107 0.762038 . .
H6_3 H 0.8678 0.433992 0.669935 . .
H7_3 H 0.747388 0.545178 0.719452 . .
H8_3 H 0.620717 0.490079 0.923345 . .
H9_3 H 0.350012 0.549196 0.884516 . .
H11_2 H 0.465802 0.443086 0.917363 . .
H12_3 H 0.960308 0.923564 0.849225 . .
H14_3 H 0.389133 0.702296 0.857646 . .
C1_4 C 0.14374 0.13454 0.43351 0.0760 Uiso
C2_4 C 0.10517 0.23691 0.69943 0.0760 Uiso
C4_4 C 0.3512 0.24872 0.62583 0.0760 Uiso
C6_4 C 0.199429 0.018555 0.748280 0.0760 Uiso
C7_4 C 0.104285 0.311511 0.597096 0.0760 Uiso
C8_4 C 0.065920 0.359002 0.65587 0.0760 Uiso
C9_4 C 0.108115 0.008293 0.397143 0.0760 Uiso
C10_4 C 0.151613 0.000403 0.466369 0.0760 Uiso
C11_4 C 0.517217 0.009538 0.594298 0.0760 Uiso
C12_4 C 0.429541 0.036134 0.590913 0.0760 Uiso
C13_4 C 0.407400 0.122783 0.60612 0.0760 Uiso
C14_4 C 0.472933 0.182837 0.624711 0.0760 Uiso
C15_4 C 0.560609 0.156241 0.628096 0.0760 Uiso
C16_4 C 0.58275 0.069592 0.612889 0.0760 Uiso
N2_4 N 0.066845 0.311828 0.719385 0.0633 Uiso
N3_4 N 0.128553 0.234417 0.626290 0.0633 Uiso
N4_4 N 0.181111 0.035023 0.675435 0.0633 Uiso
N6_4 N 0.330938 0.166295 0.607251 0.0633 Uiso
N7_4 N 0.103604 0.092215 0.377234 0.0633 Uiso
N8_4 N 0.173448 0.081391 0.488105 0.0633 Uiso
Zn2_4 Zn 0.20303 0.12939 0.59145 0.0570 Uiso
N10_4 N 0.066845 0.188172 0.219385 0.0633 Uiso
H2_4 H 0.151438 0.203965 0.434912 . .
H3_4 H 0.303282 0.299499 0.631263 . .
H4_4 H 0.112705 0.332573 0.539784 . .
H5_4 H 0.116138 0.184107 0.737962 . .
H7_4 H 0.252612 0.0451776 0.780548 . .
H9_4 H 0.649988 0.0491958 0.615484 . .
H12_4 H 0.0396919 0.423564 0.650775 . .
H14_4 H 0.610867 0.202296 0.642354 . .
C3_4 C 0.10936 0.98776 0.65922 0.0760 Uiso
C5_4 C 0.135758 0.959992 0.773913 0.0760 Uiso
N1_4 N 0.07997 0.941273 0.717896 0.0633 Uiso
H1_4 H 0.0787121 0.987346 0.604681 . .
H6_4 H 0.1322 0.933992 0.830065 . .
H8_4 H 0.379283 0.990079 0.576655 . .
H10_3 H 0.164961 0.941137 0.49632 . .
H11_3 H 0.534198 0.943086 0.582637 . .
H13_3 H 0.0822544 0.955037 0.364863 . .
N9_4 N 0.92003 0.058727 0.282104 0.0633 Uiso
C1_5 C 0.35626 0.63454 0.43351 0.0760 Uiso
C2_5 C 0.39483 0.73691 0.69943 0.0760 Uiso
C3_5 C 0.39064 0.48776 0.65922 0.0760 Uiso
C4_5 C 0.1488 0.74872 0.62583 0.0760 Uiso
C5_5 C 0.364242 0.459992 0.773913 0.0760 Uiso
C6_5 C 0.300571 0.518555 0.748280 0.0760 Uiso
C7_5 C 0.395715 0.811511 0.597096 0.0760 Uiso
C8_5 C 0.434080 0.859002 0.65587 0.0760 Uiso
C9_5 C 0.391885 0.508293 0.397143 0.0760 Uiso
C10_5 C 0.348387 0.500403 0.466369 0.0760 Uiso
C12_5 C 0.070459 0.536134 0.590913 0.0760 Uiso
C13_5 C 0.092600 0.622783 0.60612 0.0760 Uiso
C14_5 C 0.027067 0.682837 0.624711 0.0760 Uiso
N3_5 N 0.371447 0.734417 0.626290 0.0633 Uiso
N4_5 N 0.318889 0.535023 0.675435 0.0633 Uiso
N5_3 N 0.062891 0.761120 0.636874 0.0633 Uiso
N6_5 N 0.169062 0.666295 0.607251 0.0633 Uiso
N7_5 N 0.396396 0.592215 0.377234 0.0633 Uiso
N8_5 N 0.326552 0.581391 0.488105 0.0633 Uiso
Zn2_5 Zn 0.29697 0.62939 0.59145 0.0570 Uiso
N11_3 N 0.562891 0.738880 0.363126 0.0633 Uiso
H1_5 H 0.421288 0.487346 0.604681 . .
H2_5 H 0.348562 0.703965 0.434912 . .
H3_5 H 0.196718 0.799499 0.631263 . .
H4_5 H 0.387295 0.832573 0.539784 . .
H5_5 H 0.383862 0.684107 0.737962 . .
H6_5 H 0.3678 0.433992 0.830065 . .
H7_5 H 0.247388 0.545178 0.780548 . .
H8_5 H 0.120717 0.490079 0.576655 . .
H10_4 H 0.335039 0.441137 0.49632 . .
H12_5 H 0.460308 0.923564 0.650775 . .
H13_4 H 0.417746 0.455037 0.364863 . .
C11_5 C 0.982783 0.509538 0.594298 0.0760 Uiso
C15_5 C 0.939391 0.656241 0.628096 0.0760 Uiso
C16_5 C 0.91725 0.569592 0.612889 0.0760 Uiso
H9_5 H 0.850012 0.549196 0.615484 . .
H11_4 H 0.965802 0.443086 0.582637 . .
H14_5 H 0.889133 0.702296 0.642354 . .
C11_6 C 0.017217 0.009538 0.905702 0.0760 Uiso
C15_6 C 0.060609 0.156241 0.871904 0.0760 Uiso
C16_6 C 0.08275 0.069592 0.887111 0.0760 Uiso
H9_6 H 0.149988 0.0491958 0.884516 . .
H14_6 H 0.110867 0.202296 0.857646 . .
C1_6 C 0.64374 0.13454 0.06649 0.0760 Uiso
C9_6 C 0.608115 0.008293 0.102857 0.0760 Uiso
C10_6 C 0.651613 0.000403 0.033631 0.0760 Uiso
N7_6 N 0.603604 0.092215 0.122766 0.0633 Uiso
N8_6 N 0.673448 0.081391 0.011895 0.0633 Uiso
N11_4 N 0.437109 0.238880 0.136874 0.0633 Uiso
H2_6 H 0.651438 0.203965 0.0650881 . .
C2_6 C 0.60517 0.23691 0.80057 0.0760 Uiso
C4_6 C 0.8512 0.24872 0.87417 0.0760 Uiso
C6_6 C 0.699429 0.018555 0.751720 0.0760 Uiso
C7_6 C 0.604285 0.311511 0.902904 0.0760 Uiso
C8_6 C 0.565920 0.359002 0.84413 0.0760 Uiso
C12_6 C 0.929541 0.036134 0.909087 0.0760 Uiso
C13_6 C 0.907400 0.122783 0.89388 0.0760 Uiso
C14_6 C 0.972933 0.182837 0.875289 0.0760 Uiso
N3_6 N 0.628553 0.234417 0.873710 0.0633 Uiso
N4_6 N 0.681111 0.035023 0.824565 0.0633 Uiso
N5_4 N 0.937109 0.261120 0.863126 0.0633 Uiso
N6_6 N 0.830938 0.166295 0.892749 0.0633 Uiso
Zn2_6 Zn 0.70303 0.12939 0.90855 0.0570 Uiso
H3_6 H 0.803282 0.299499 0.868737 . .
H4_6 H 0.612705 0.332573 0.960216 . .
H5_6 H 0.616138 0.184107 0.762038 . .
H7_6 H 0.752612 0.0451776 0.719452 . .
H12_6 H 0.539692 0.423564 0.849225 . .
C3_6 C 0.60936 0.98776 0.84078 0.0760 Uiso
C5_6 C 0.635758 0.959992 0.726087 0.0760 Uiso
H1_6 H 0.578712 0.987346 0.895319 . .
H6_6 H 0.6322 0.933992 0.669935 . .
H8_6 H 0.879283 0.990079 0.923345 . .
C2_7 C 0.10517 0.26309 0.19943 0.0760 Uiso
C3_7 C 0.10936 0.51224 0.15922 0.0760 Uiso
C4_7 C 0.3512 0.25128 0.12583 0.0760 Uiso
C5_7 C 0.135758 0.540008 0.273913 0.0760 Uiso
C6_7 C 0.199429 0.481445 0.248280 0.0760 Uiso
C7_7 C 0.104285 0.188489 0.097096 0.0760 Uiso
C8_7 C 0.065920 0.140998 0.15587 0.0760 Uiso
C11_7 C 0.517217 0.490462 0.094298 0.0760 Uiso
C12_7 C 0.429541 0.463866 0.090913 0.0760 Uiso
C13_7 C 0.407400 0.377217 0.10612 0.0760 Uiso
C14_7 C 0.472933 0.317163 0.124711 0.0760 Uiso
C15_7 C 0.560609 0.343759 0.128096 0.0760 Uiso
C16_7 C 0.58275 0.430408 0.112889 0.0760 Uiso
N3_7 N 0.128553 0.265583 0.126290 0.0633 Uiso
N4_7 N 0.181111 0.464977 0.175435 0.0633 Uiso
N6_7 N 0.330938 0.333705 0.107251 0.0633 Uiso
Zn2_7 Zn 0.20303 0.37061 0.09145 0.0570 Uiso
H1_7 H 0.0787121 0.512654 0.104681 . .
H3_7 H 0.303282 0.200501 0.131263 . .
H4_7 H 0.112705 0.167427 0.0397842 . .
H5_7 H 0.116138 0.315893 0.237962 . .
H6_7 H 0.1322 0.566008 0.330065 . .
H7_7 H 0.252612 0.454822 0.280548 . .
H8_7 H 0.379283 0.509921 0.0766549 . .
H9_7 H 0.649988 0.450804 0.115484 . .
H11_5 H 0.534198 0.556914 0.0826365 . .
H12_7 H 0.0396919 0.0764357 0.150775 . .
H14_7 H 0.610867 0.297704 0.142354 . .
C1_7 C 0.14374 0.36546 0.93351 0.0760 Uiso
C9_7 C 0.108115 0.491707 0.897143 0.0760 Uiso
C10_7 C 0.151613 0.499597 0.966369 0.0760 Uiso
N7_7 N 0.103604 0.407785 0.877234 0.0633 Uiso
N8_7 N 0.173448 0.418609 0.988105 0.0633 Uiso
H2_7 H 0.151438 0.296035 0.934912 . .
H10_5 H 0.164961 0.558863 0.99632 . .
H13_5 H 0.0822544 0.544963 0.864863 . .
C3_8 C 0.89064 0.01224 0.34078 0.0760 Uiso
C5_8 C 0.864242 0.040008 0.226087 0.0760 Uiso
H1_8 H 0.921288 0.0126538 0.395319 . .
H6_8 H 0.8678 0.0660075 0.169935 . .
H8_8 H 0.620717 0.00992084 0.423345 . .
H10_6 H 0.835039 0.0588627 0.50368 . .
H11_6 H 0.465802 0.0569135 0.417363 . .
H13_6 H 0.917746 0.044963 0.635137 . .
C1_8 C 0.85626 0.86546 0.56649 0.0760 Uiso
C2_8 C 0.89483 0.76309 0.30057 0.0760 Uiso
C4_8 C 0.6488 0.75128 0.37417 0.0760 Uiso
C6_8 C 0.800571 0.981445 0.251720 0.0760 Uiso
C7_8 C 0.895715 0.688489 0.402904 0.0760 Uiso
C8_8 C 0.934080 0.640998 0.34413 0.0760 Uiso
C9_8 C 0.891885 0.991707 0.602857 0.0760 Uiso
C10_8 C 0.848387 0.999597 0.533631 0.0760 Uiso
C11_8 C 0.482783 0.990462 0.405702 0.0760 Uiso
C12_8 C 0.570459 0.963866 0.409087 0.0760 Uiso
C13_8 C 0.592600 0.877217 0.39388 0.0760 Uiso
C14_8 C 0.527067 0.817163 0.375289 0.0760 Uiso
C15_8 C 0.439391 0.843759 0.371904 0.0760 Uiso
C16_8 C 0.41725 0.930408 0.387111 0.0760 Uiso
N3_8 N 0.871447 0.765583 0.373710 0.0633 Uiso
N4_8 N 0.818889 0.964977 0.324565 0.0633 Uiso
N6_8 N 0.669062 0.833705 0.392749 0.0633 Uiso
N7_8 N 0.896396 0.907785 0.622766 0.0633 Uiso
N8_8 N 0.826552 0.918609 0.511895 0.0633 Uiso
Zn2_8 Zn 0.79697 0.87061 0.40855 0.0570 Uiso
H2_8 H 0.848562 0.796035 0.565088 . .
H3_8 H 0.696718 0.700501 0.368737 . .
H4_8 H 0.887295 0.667427 0.460216 . .
H5_8 H 0.883862 0.815893 0.262038 . .
H7_8 H 0.747388 0.954822 0.219452 . .
H9_8 H 0.350012 0.950804 0.384516 . .
H12_8 H 0.960308 0.576436 0.349225 . .
H14_8 H 0.389133 0.797704 0.357646 . .
H10_7 H 0.335039 0.0588627 0.99632 . .
H13_7 H 0.417746 0.044963 0.864863 . .
H11_7 H 0.965802 0.0569135 0.0826365 . .
H11_8 H 0.0341977 0.943086 0.917363 . .
H10_8 H 0.664961 0.941137 0.00367955 . .
H13_8 H 0.582254 0.955037 0.135137 . .
loop_
_geom_bond_atom_site_label_1
_geom_bond_atom_site_label_2
_geom_bond_site_symmetry_1
_geom_bond_site_symmetry_2
C15 C16 1_555 1_555
C16 C11 1_555 1_555
C16 H9 1_555 1_555
C11 H11 1_555 1_555
C15 H14 1_555 1_555
C1 N7 1_555 1_555
C2 N2 1_555 1_555
C3 N1 1_555 1_555
C4 N5 1_555 1_555
C5 C6 1_555 1_555
C6 N4 1_555 1_555
C7 C8 1_555 1_555
C8 N2 1_555 1_555
C9 C10 1_555 1_555
C10 N8 1_555 1_555
C12 C13 1_555 1_555
C13 C14 1_555 1_555
N1 C5 1_555 1_555
N2 Zn3 1_555 1_555
N3 C2 1_555 1_555
N4 C3 1_555 1_555
N5 C14 1_555 1_555
N6 C4 1_555 1_555
N7 C9 1_555 1_555
N8 C1 1_555 1_555
Zn1 N7 1_555 1_555
Zn2 N3 1_555 1_555
N9 Zn1 1_555 1_555
N10 Zn1 1_555 1_555
N11 Zn1 1_555 1_555
Zn4 N1 1_555 1_555
C7 N3 1_555 1_555
C13 N6 1_555 1_555
N4 Zn2 1_555 1_555
N6 Zn2 1_555 1_555
N8 Zn2 1_555 1_555
C3 H1 1_555 1_555
C1 H2 1_555 1_555
C4 H3 1_555 1_555
C7 H4 1_555 1_555
C2 H5 1_555 1_555
C5 H6 1_555 1_555
C6 H7 1_555 1_555
C12 H8 1_555 1_555
C10 H10 1_555 1_555
C8 H12 1_555 1_555
C9 H13 1_555 1_555
C3_2 N1_2 1_555 1_555
N1_2 C5_2 1_555 1_555
Zn3 N1_2 1_555 1_555
C3_2 H1_2 1_555 1_555
C5_2 H6_2 1_555 1_555
C2_2 N2_2 1_555 1_555
C4_2 N5_2 1_555 1_555
C6_2 N4_2 1_555 1_555
C7_2 C8_2 1_555 1_555
C8_2 N2_2 1_555 1_555
C12_2 C13_2 1_555 1_555
C13_2 C14_2 1_555 1_555
N2_2 Zn4 1_555 1_555
N3_2 C2_2 1_555 1_555
N5_2 C14_2 1_555 1_555
N6_2 C4_2 1_555 1_555
Zn2_2 N3_2 1_555 1_555
C7_2 N3_2 1_555 1_555
C13_2 N6_2 1_555 1_555
N4_2 Zn2_2 1_555 1_555
N6_2 Zn2_2 1_555 1_555
C4_2 H3_2 1_555 1_555
C7_2 H4_2 1_555 1_555
C2_2 H5_2 1_555 1_555
C6_2 H7_2 1_555 1_555
C8_2 H12_2 1_555 1_555
C1_2 N7_2 1_555 1_555
C9_2 C10_2 1_555 1_555
C10_2 N8_2 1_555 1_555
N7_2 C9_2 1_555 1_555
N8_2 C1_2 1_555 1_555
Zn1_2 N7_2 1_555 1_555
N9_2 Zn1_2 1_555 1_555
N10_2 Zn1_2 1_555 1_555
N11_2 Zn1_2 1_555 1_555
C1_2 H2_2 1_555 1_555
C15_2 C16_2 1_555 1_555
C16_2 C11_2 1_555 1_555
C16_2 H9_2 1_555 1_555
C15_2 H14_2 1_555 1_555
C1_3 N7_3 1_555 1_555
C9_3 C10_3 1_555 1_555
C10_3 N8_3 1_555 1_555
N7_3 C9_3 1_555 1_555
N8_3 C1_3 1_555 1_555
Zn5_2 N7_3 1_555 1_555
N10_3 Zn5_2 1_555 1_555
C1_3 H2_3 1_555 1_555
C10_3 H10_2 1_555 1_555
C9_3 H13_2 1_555 1_555
C2_3 N2_3 1_555 1_555
C3_3 N1_3 1_555 1_555
C4_3 N11_2 1_555 1_555
C5_3 C6_3 1_555 1_555
C6_3 N4_3 1_555 1_555
C7_3 C8_3 1_555 1_555
C8_3 N2_3 1_555 1_555
C11_3 C12_3 1_555 1_555
C12_3 C13_3 1_555 1_555
C13_3 C14_3 1_555 1_555
C14_3 C15_3 1_555 1_555
C15_3 C16_3 1_555 1_555
C16_3 C11_3 1_555 1_555
N1_3 C5_3 1_555 1_555
N2_3 Zn3_2 1_555 1_555
N3_3 C2_3 1_555 1_555
N4_3 C3_3 1_555 1_555
N11_2 C14_3 1_555 1_555
N6_3 C4_3 1_555 1_555
Zn2_3 N3_3 1_555 1_555
C7_3 N3_3 1_555 1_555
C13_3 N6_3 1_555 1_555
N4_3 Zn2_3 1_555 1_555
N6_3 Zn2_3 1_555 1_555
C3_3 H1_3 1_555 1_555
C4_3 H3_3 1_555 1_555
C7_3 H4_3 1_555 1_555
C2_3 H5_3 1_555 1_555
C5_3 H6_3 1_555 1_555
C6_3 H7_3 1_555 1_555
C12_3 H8_3 1_555 1_555
C16_3 H9_3 1_555 1_555
C11_3 H11_2 1_555 1_555
C8_3 H12_3 1_555 1_555
C15_3 H14_3 1_555 1_555
C1_4 N7_4 1_555 1_555
C2_4 N2_4 1_555 1_555
C4_4 N11 1_555 1_555
C6_4 N4_4 1_555 1_555
C7_4 C8_4 1_555 1_555
C8_4 N2_4 1_555 1_555
C9_4 C10_4 1_555 1_555
C10_4 N8_4 1_555 1_555
C11_4 C12_4 1_555 1_555
C12_4 C13_4 1_555 1_555
C13_4 C14_4 1_555 1_555
C14_4 C15_4 1_555 1_555
C15_4 C16_4 1_555 1_555
C16_4 C11_4 1_555 1_555
N2_4 Zn4_2 1_555 1_555
N3_4 C2_4 1_555 1_555
N11 C14_4 1_555 1_555
N6_4 C4_4 1_555 1_555
N7_4 C9_4 1_555 1_555
N8_4 C1_4 1_555 1_555
Zn5 N7_4 1_555 1_555
Zn2_4 N3_4 1_555 1_555
N10_4 Zn5 1_555 1_555
C7_4 N3_4 1_555 1_555
C13_4 N6_4 1_555 1_555
N4_4 Zn2_4 1_555 1_555
N6_4 Zn2_4 1_555 1_555
N8_4 Zn2_4 1_555 1_555
C1_4 H2_4 1_555 1_555
C4_4 H3_4 1_555 1_555
C7_4 H4_4 1_555 1_555
C2_4 H5_4 1_555 1_555
C6_4 H7_4 1_555 1_555
C16_4 H9_4 1_555 1_555
C8_4 H12_4 1_555 1_555
C15_4 H14_4 1_555 1_555
C3_4 N1_4 1_555 1_555
N1_4 C5_4 1_555 1_555
C3_4 H1_4 1_555 1_555
C5_4 H6_4 1_555 1_555
C1_5 N7_5 1_555 1_555
C2_5 N10_2 1_555 1_555
C3_5 N9 1_555 1_555
C4_5 N5_3 1_555 1_555
C5_5 C6_5 1_555 1_555
C6_5 N4_5 1_555 1_555
C7_5 C8_5 1_555 1_555
C8_5 N10_2 1_555 1_555
C9_5 C10_5 1_555 1_555
C10_5 N8_5 1_555 1_555
C12_5 C13_5 1_555 1_555
C13_5 C14_5 1_555 1_555
N9 C5_5 1_555 1_555
N3_5 C2_5 1_555 1_555
N4_5 C3_5 1_555 1_555
N5_3 C14_5 1_555 1_555
N6_5 C4_5 1_555 1_555
N7_5 C9_5 1_555 1_555
N8_5 C1_5 1_555 1_555
Zn4 N7_5 1_555 1_555
Zn2_5 N3_5 1_555 1_555
N11_3 Zn4 1_555 1_555
C7_5 N3_5 1_555 1_555
C13_5 N6_5 1_555 1_555
N4_5 Zn2_5 1_555 1_555
N6_5 Zn2_5 1_555 1_555
N8_5 Zn2_5 1_555 1_555
C3_5 H1_5 1_555 1_555
C1_5 H2_5 1_555 1_555
C4_5 H3_5 1_555 1_555
C7_5 H4_5 1_555 1_555
C2_5 H5_5 1_555 1_555
C5_5 H6_5 1_555 1_555
C6_5 H7_5 1_555 1_555
C12_5 H8_5 1_555 1_555
C10_5 H10_4 1_555 1_555
C8_5 H12_5 1_555 1_555
C9_5 H13_4 1_555 1_555
C15_5 C16_5 1_555 1_555
C16_5 C11_5 1_555 1_555
C16_5 H9_5 1_555 1_555
C11_5 H11_4 1_555 1_555
C15_5 H14_5 1_555 1_555
C15_6 C16_6 1_555 1_555
C16_6 C11_6 1_555 1_555
C16_6 H9_6 1_555 1_555
C15_6 H14_6 1_555 1_555
C1_6 N7_6 1_555 1_555
C9_6 C10_6 1_555 1_555
C10_6 N8_6 1_555 1_555
N7_6 C9_6 1_555 1_555
N8_6 C1_6 1_555 1_555
Zn3 N7_6 1_555 1_555
N11_4 Zn3 1_555 1_555
C1_6 H2_6 1_555 1_555
C2_6 N10 1_555 1_555
C4_6 N5_4 1_555 1_555
C6_6 N4_6 1_555 1_555
C7_6 C8_6 1_555 1_555
C8_6 N10 1_555 1_555
C12_6 C13_6 1_555 1_555
C13_6 C14_6 1_555 1_555
N3_6 C2_6 1_555 1_555
N5_4 C14_6 1_555 1_555
N6_6 C4_6 1_555 1_555
Zn2_6 N3_6 1_555 1_555
C7_6 N3_6 1_555 1_555
C13_6 N6_6 1_555 1_555
N4_6 Zn2_6 1_555 1_555
N6_6 Zn2_6 1_555 1_555
C4_6 H3_6 1_555 1_555
C7_6 H4_6 1_555 1_555
C2_6 H5_6 1_555 1_555
C6_6 H7_6 1_555 1_555
C8_6 H12_6 1_555 1_555
C3_6 N9_2 1_555 1_555
N9_2 C5_6 1_555 1_555
C3_6 H1_6 1_555 1_555
C5_6 H6_6 1_555 1_555
C2_7 N10_4 1_555 1_555
C3_7 N9_3 1_555 1_555
C4_7 N11_4 1_555 1_555
C5_7 C6_7 1_555 1_555
C6_7 N4_7 1_555 1_555
C7_7 C8_7 1_555 1_555
C8_7 N10_4 1_555 1_555
C11_7 C12_7 1_555 1_555
C12_7 C13_7 1_555 1_555
C13_7 C14_7 1_555 1_555
C14_7 C15_7 1_555 1_555
C15_7 C16_7 1_555 1_555
C16_7 C11_7 1_555 1_555
N9_3 C5_7 1_555 1_555
N3_7 C2_7 1_555 1_555
N4_7 C3_7 1_555 1_555
N11_4 C14_7 1_555 1_555
N6_7 C4_7 1_555 1_555
Zn2_7 N3_7 1_555 1_555
C7_7 N3_7 1_555 1_555
C13_7 N6_7 1_555 1_555
N4_7 Zn2_7 1_555 1_555
N6_7 Zn2_7 1_555 1_555
C3_7 H1_7 1_555 1_555
C4_7 H3_7 1_555 1_555
C7_7 H4_7 1_555 1_555
C2_7 H5_7 1_555 1_555
C5_7 H6_7 1_555 1_555
C6_7 H7_7 1_555 1_555
C12_7 H8_7 1_555 1_555
C16_7 H9_7 1_555 1_555
C11_7 H11_5 1_555 1_555
C8_7 H12_7 1_555 1_555
C15_7 H14_7 1_555 1_555
C1_7 N7_7 1_555 1_555
C9_7 C10_7 1_555 1_555
C10_7 N8_7 1_555 1_555
N7_7 C9_7 1_555 1_555
N8_7 C1_7 1_555 1_555
Zn4_2 N7_7 1_555 1_555
C1_7 H2_7 1_555 1_555
C10_7 H10_5 1_555 1_555
C9_7 H13_5 1_555 1_555
C3_8 N9_4 1_555 1_555
N9_4 C5_8 1_555 1_555
C3_8 H1_8 1_555 1_555
C5_8 H6_8 1_555 1_555
C1_8 N7_8 1_555 1_555
C2_8 N10_3 1_555 1_555
C4_8 N11_3 1_555 1_555
C6_8 N4_8 1_555 1_555
C7_8 C8_8 1_555 1_555
C8_8 N10_3 1_555 1_555
C9_8 C10_8 1_555 1_555
C10_8 N8_8 1_555 1_555
C11_8 C12_8 1_555 1_555
C12_8 C13_8 1_555 1_555
C13_8 C14_8 1_555 1_555
C14_8 C15_8 1_555 1_555
C15_8 C16_8 1_555 1_555
C16_8 C11_8 1_555 1_555
N3_8 C2_8 1_555 1_555
N11_3 C14_8 1_555 1_555
N6_8 C4_8 1_555 1_555
N7_8 C9_8 1_555 1_555
N8_8 C1_8 1_555 1_555
Zn3_2 N7_8 1_555 1_555
Zn2_8 N3_8 1_555 1_555
C7_8 N3_8 1_555 1_555
C13_8 N6_8 1_555 1_555
N4_8 Zn2_8 1_555 1_555
N6_8 Zn2_8 1_555 1_555
N8_8 Zn2_8 1_555 1_555
C1_8 H2_8 1_555 1_555
C4_8 H3_8 1_555 1_555
C7_8 H4_8 1_555 1_555
C2_8 H5_8 1_555 1_555
C6_8 H7_8 1_555 1_555
C16_8 H9_8 1_555 1_555
C8_8 H12_8 1_555 1_555
C15_8 H14_8 1_555 1_555

#END
