
###############################################################################
#
# This file contains modified crystal structure data generated from the
# MOF subset of the Cambridge Structural Database (CSD) v543 
# hosted by the Cambridge Crystallographic Data Centre (CCDC).
#
# This work is licensed under the Creative Commons
# Attribution-NonCommercial-ShareAlike 4.0 International License.
# To view a copy of this license, visit
# http://creativecommons.org/licenses/by-nc-sa/4.0/
# or send a letter to
# Creative Commons, PO Box 1866, Mountain View, CA 94042, USA.
#
# CIF created using the CSD Python API on 29 September 2022
# The structure has been converted into the P1 space group
# The structure has a 3D framework
# The original CSD entry ZEFVEN is in the monoclinic crystal system
# The framework has been calculated to contain at least 10.0% void space
# The void calculation uses a probe of radius 1.32A, grid spacing 0.4
#
###############################################################################

data_ZEFVEN
_chemical_formula_moiety         '(C80 H40 Co12 N16 O46 Sm2)n'
_symmetry_cell_setting           triclinic
_symmetry_space_group_name_H-M   'P 1'
_symmetry_Int_Tables_number      1
_space_group_name_Hall           'P 1'
loop_
_symmetry_equiv_pos_site_id
_symmetry_equiv_pos_as_xyz
1 x,y,z
_cell_length_a                   10.446(2)
_cell_length_b                   7.5939(15)
_cell_length_c                   30.513(6)
_cell_angle_alpha                90
_cell_angle_beta                 99.00(3)
_cell_angle_gamma                90
_cell_volume                     2390.67
loop_
_atom_site_label
_atom_site_type_symbol
_atom_site_fract_x
_atom_site_fract_y
_atom_site_fract_z
H17 H 0.0311 0.1082 0.9378
C3 C 0.4457(4) 0.3535(6) 0.13995(13)
C4 C 0.3272(4) 0.2483(6) 0.12199(13)
C5 C 0.2365(4) 0.3294(6) 0.09040(15)
H1 H 0.2446 0.4492 0.0823
C6 C 0.1328(4) 0.2257(6) 0.07106(14)
C7 C 0.1191(4) 0.0521(6) 0.08418(15)
C9 C 0.3162(4) 0.0685(6) 0.13336(13)
C12 C 0.2636(4) 0.0003(5) 0.26723(14)
C13 C 0.1590(4) 0.0624(6) 0.23047(13)
C17 C 0.0360(4) 0.3079(6) 0.19261(14)
H5 H 0.0268 0.4297 0.1858
C18 C 0.1453(4) 0.2445(6) 0.21997(14)
C19 C 0.2504(4) 0.3731(6) 0.23493(14)
Co1 Co 0.0000 0.5000 0.0000
N1 N 0.0287(4) 0.2684(5) 0.03879(12)
O5 O 0.5454(3) 0.3173(4) 0.12360(10)
O6 O 0.4346(3) 0.4760(4) 0.16630(10)
O8 O 0.4911(3) 0.0911(4) 0.19219(10)
O9 O 0.2471(3) 0.0419(5) 0.30511(10)
O11 O 0.3644(3) 0.3167(4) 0.24964(10)
O12 O 0.2298(3) 0.5358(4) 0.23064(11)
Sm1 Sm 0.449250(18) 0.63056(3) 0.231950(6)
C35 C 0.0409(4) 0.5072(6) 0.31553(15)
C36 C 0.0595(4) 0.6881(6) 0.32441(14)
C40 C 0.2282(5) 0.5543(7) 0.35816(18)
H16 H 0.3102 0.5313 0.3755
Co4 Co 0.71389(5) 0.44932(8) 0.130104(19)
Co7 Co 0.28611(5) 0.94932(8) 0.369896(19)
N7 N 0.1790(3) 0.7124(5) 0.35115(12)
N9 N 0.1501(4) 0.4287(6) 0.33812(15)
H18 H 0.1661 0.3148 0.3392
O23 O 0.4179(3) 0.8243(4) 0.17132(10)
O26 O 0.5089(3) 0.5911(4) 0.30781(10)
O31 O 0.6406(3) 0.4124(4) 0.24198(10)
O32 O 0.3594(3) 0.9124(4) 0.25802(10)
O36 O 0.6356(3) 0.8167(4) 0.25036(10)
Sm4 Sm 0.550750(18) 0.13056(3) 0.268050(6)
Co1_2 Co 0.0000 0.5000 1.0000
C21 C 0.1053(4) 0.4306(6) 0.92301(14)
C22 C 0.2103(4) 0.5291(7) 0.95506(15)
C31 C 0.0452(5) 0.8718(7) 0.96584(16)
H13 H 0.1248 0.8788 0.9857
Co3 Co 0.28611(5) 0.55068(8) 0.869896(19)
N8 N 0.1790(3) 0.7876(5) 0.85115(12)
O14 O 0.0094(3) 0.3700(5) 0.93908(11)
O15 O 0.1965(3) 0.5361(5) 0.99540(10)
O16 O 0.1218(3) 0.4165(5) 0.88378(10)
O17 O 0.3004(3) 0.5932(5) 0.93867(11)
O20 O 0.4546(3) 0.6827(4) 0.87640(10)
O29 O 0.2471(3) 0.4581(5) 0.80511(10)
O41 O 0.3918(3) 0.3043(5) 0.88492(12)
H19 H 0.4184 0.2804 0.9120
H20 H 0.4454 0.2916 0.8669
C8 C 0.2110(4) 0.9691(6) 0.11483(14)
H2 H 0.2020 0.8493 0.1228
C10 C 0.4148(4) 0.9895(6) 0.16814(13)
C14 C 0.0675(4) 0.9410(6) 0.21189(14)
H4 H 0.0782 0.8184 0.2176
N2 N 0.0041(4) 0.9963(6) 0.06047(13)
O39 O 0.7702(3) 0.0358(4) 0.26936(11)
C28 C 0.7890(4) 0.0309(6) 0.88517(14)
H12 H 0.7980 0.1507 0.8772
C30 C 0.5852(4) 0.0105(6) 0.83186(13)
N6 N 0.9959(4) 0.0037(6) 0.93953(13)
O22 O 0.5821(3) 0.1757(4) 0.82868(10)
Sm5 Sm 0.550750(18) 0.36944(3) 0.768050(6)
C1 C 0.8947(4) 0.5694(6) 0.07699(14)
C2 C 0.7897(4) 0.4709(7) 0.04494(15)
C11 C 0.9548(5) 0.1282(7) 0.03416(16)
H3 H 0.8752 0.1212 0.0143
C15 C 0.9591(4) 0.0072(6) 0.18447(15)
C16 C 0.9405(4) 0.1881(6) 0.17559(14)
C20 C 0.7718(5) 0.0543(7) 0.14184(18)
H6 H 0.6898 0.0313 0.1245
Co1_3 Co 1.0000 0.5000 0.0000
N3 N 0.8210(3) 0.2124(5) 0.14885(12)
O1 O 0.9906(3) 0.6300(5) 0.06092(11)
O2 O 0.8035(3) 0.4639(5) 0.00460(10)
O3 O 0.8782(3) 0.5835(5) 0.11622(10)
O4 O 0.6996(3) 0.4068(5) 0.06133(11)
O13 O 0.6082(3) 0.6957(5) 0.11508(12)
H9 H 0.5816 0.7196 0.0880
H10 H 0.5546 0.7084 0.1331
C32 C 0.7364(4) 0.5003(5) 0.23277(14)
C33 C 0.8410(4) 0.5624(6) 0.26953(13)
C34 C 0.9325(4) 0.4410(6) 0.28811(14)
H14 H 0.9218 0.3184 0.2824
C37 C 0.9640(4) 0.8079(6) 0.30739(14)
H15 H 0.9732 0.9297 0.3142
C38 C 0.8547(4) 0.7445(6) 0.28003(14)
C39 C 0.7496(4) 0.8731(6) 0.26507(14)
O28 O 0.7529(3) 0.5419(5) 0.19489(10)
Co1_4 Co 1.0000 0.5000 1.0000
C23 C 0.5543(4) 0.6465(6) 0.86005(13)
C24 C 0.6728(4) 0.7517(6) 0.87801(13)
C25 C 0.7635(4) 0.6706(6) 0.90960(15)
H11 H 0.7554 0.5508 0.9177
C26 C 0.8672(4) 0.7743(6) 0.92894(14)
C27 C 0.8809(4) 0.9479(6) 0.91582(15)
C29 C 0.6838(4) 0.9315(6) 0.86664(13)
N5 N 0.9713(4) 0.7316(5) 0.96121(12)
O21 O 0.5654(3) 0.5240(4) 0.83370(10)
O25 O 0.5089(3) 0.9089(4) 0.80781(10)
O27 O 0.4911(3) 0.4089(4) 0.69219(10)
O33 O 0.3594(3) 0.5876(4) 0.75802(10)
O34 O 0.6406(3) 0.0876(4) 0.74198(10)
O37 O 0.3644(3) 0.1833(4) 0.74964(10)
O38 O 0.6356(3) 0.6833(4) 0.75036(10)
O40 O 0.7702(3) 0.4642(4) 0.76936(11)
Sm6 Sm 0.449250(18) 0.86944(3) 0.731950(6)
H7 H 0.9689 0.8918 0.0622
N4 N 0.8499(4) 0.9287(6) 0.16188(15)
H8 H 0.8339 0.8148 0.1608
C1_2 C 0.1053(4) 0.0694(6) 0.42301(14)
Co1_5 Co 0.0000 0.0000 0.5000
O1_2 O 0.0094(3) 0.1300(5) 0.43908(11)
O3_2 O 0.1218(3) 0.0835(5) 0.38378(10)
O13_2 O 0.3918(3) 0.1957(5) 0.38492(12)
H9_2 H 0.4184 0.2196 0.4120
H10_2 H 0.4454 0.2084 0.3669
C23_2 C 0.4457(4) 0.1465(6) 0.63995(13)
C24_2 C 0.3272(4) 0.2517(6) 0.62199(13)
C25_2 C 0.2365(4) 0.1706(6) 0.59040(15)
H11_2 H 0.2446 0.0508 0.5823
C26_2 C 0.1328(4) 0.2743(6) 0.57106(14)
C27_2 C 0.1191(4) 0.4479(6) 0.58418(15)
C28_2 C 0.2110(4) 0.5309(6) 0.61483(14)
H12_2 H 0.2020 0.6507 0.6228
C29_2 C 0.3162(4) 0.4315(6) 0.63336(13)
C30_2 C 0.4148(4) 0.5105(6) 0.66814(13)
Co6 Co 0.71389(5) 0.05068(8) 0.630104(19)
N5_2 N 0.0287(4) 0.2316(5) 0.53879(12)
N6_2 N 0.0041(4) 0.5037(6) 0.56047(13)
O18 O 0.5454(3) 0.1827(4) 0.62360(10)
O21_2 O 0.4346(3) 0.0240(4) 0.66630(10)
O22_2 O 0.4179(3) 0.6757(4) 0.67132(10)
C2_2 C 0.2103(4) 0.9709(7) 0.45506(15)
C11_2 C 0.0452(5) 0.6282(7) 0.46584(16)
H3_2 H 0.1248 0.6212 0.4857
Co1_6 Co -0.0000 1.0000 0.5000
H7_2 H 0.0311 0.3918 0.4378
O2_2 O 0.1965(3) 0.9639(5) 0.49540(10)
O4_2 O 0.3004(3) 0.9068(5) 0.43867(11)
O19 O 0.4546(3) 0.8173(4) 0.37640(10)
O40_2 O 0.2298(3) 0.9642(4) 0.73064(11)
Co1_7 Co 1.0000 0.0000 0.5000
C22_2 C 0.7897(4) 0.0291(7) 0.54494(15)
C31_2 C 0.9548(5) 0.3718(7) 0.53416(16)
H13_2 H 0.8752 0.3788 0.5143
H17_2 H 0.9689 0.6082 0.5622
N8_2 N 0.8210(3) 0.2876(5) 0.64885(12)
O15_2 O 0.8035(3) 0.0361(5) 0.50460(10)
O17_2 O 0.6996(3) 0.0932(5) 0.56133(11)
O23_2 O 0.5821(3) 0.3243(4) 0.32868(10)
C3_2 C 0.5543(4) 0.8535(6) 0.36005(13)
C4_2 C 0.6728(4) 0.7483(6) 0.37801(13)
C5_2 C 0.7635(4) 0.8294(6) 0.40960(15)
H1_2 H 0.7554 0.9492 0.4177
C6_2 C 0.8672(4) 0.7257(6) 0.42894(14)
C7_2 C 0.8809(4) 0.5521(6) 0.41582(15)
C8_2 C 0.7890(4) 0.4691(6) 0.38517(14)
H2_2 H 0.7980 0.3493 0.3772
C9_2 C 0.6838(4) 0.5685(6) 0.36664(13)
C10_2 C 0.5852(4) 0.4895(6) 0.33186(13)
Co1_8 Co 1.0000 1.0000 0.5000
N1_2 N 0.9713(4) 0.7684(5) 0.46121(12)
N2_2 N 0.9959(4) 0.4963(6) 0.43953(13)
O6_2 O 0.5654(3) 0.9760(4) 0.33370(10)
C21_2 C 0.8947(4) 0.9306(6) 0.57699(14)
O14_2 O 0.9906(3) 0.8700(5) 0.56092(11)
O16_2 O 0.8782(3) 0.9165(5) 0.61622(10)
O29_2 O 0.7529(3) 0.9581(5) 0.69489(10)
O41_2 O 0.6082(3) 0.8043(5) 0.61508(12)
H19_2 H 0.5816 0.7804 0.5880
H20_2 H 0.5546 0.7916 0.6331
N4_2 N 0.1501(4) 0.0713(6) 0.83812(15)
H8_2 H 0.1661 0.1852 0.8392
C15_2 C 0.0409(4) 0.9928(6) 0.81553(15)
C16_2 C 0.0595(4) 0.8119(6) 0.82441(14)
C20_2 C 0.2282(5) 0.9457(7) 0.85816(18)
H6_2 H 0.3102 0.9687 0.8755
C32_2 C 0.2636(4) 0.4997(5) 0.76723(14)
C33_2 C 0.1590(4) 0.4376(6) 0.73047(13)
C34_2 C 0.0675(4) 0.5590(6) 0.71189(14)
H14_2 H 0.0782 0.6816 0.7176
C37_2 C 0.0360(4) 0.1921(6) 0.69261(14)
H15_2 H 0.0268 0.0703 0.6858
C38_2 C 0.1453(4) 0.2555(6) 0.71997(14)
C39_2 C 0.2504(4) 0.1269(6) 0.73493(14)
C14_2 C 0.9325(4) 0.0590(6) 0.78811(14)
H4_2 H 0.9218 0.1816 0.7824
C12_2 C 0.7364(4) 0.9997(5) 0.73277(14)
C13_2 C 0.8410(4) 0.9376(6) 0.76953(13)
C17_2 C 0.9640(4) 0.6921(6) 0.80739(14)
H5_2 H 0.9732 0.5703 0.8142
C18_2 C 0.8547(4) 0.7555(6) 0.78003(14)
C19_2 C 0.7496(4) 0.6269(6) 0.76507(14)
C35_2 C 0.9591(4) 0.4928(6) 0.68447(15)
C36_2 C 0.9405(4) 0.3119(6) 0.67559(14)
C40_2 C 0.7718(5) 0.4457(7) 0.64184(18)
H16_2 H 0.6898 0.4687 0.6245
N9_2 N 0.8499(4) 0.5713(6) 0.66188(15)
H18_2 H 0.8339 0.6852 0.6608
loop_
_geom_bond_atom_site_label_1
_geom_bond_atom_site_label_2
_geom_bond_site_symmetry_1
_geom_bond_site_symmetry_2
C3 C4 1_555 1_555
C4 C5 1_555 1_555
C5 H1 1_555 1_555
C6 C5 1_555 1_555
C7 C6 1_555 1_555
C9 C4 1_555 1_555
C12 C13 1_555 1_555
H5 C17 1_555 1_555
C18 C13 1_555 1_555
C19 C18 1_555 1_555
Co1 N1 1_555 1_555
N1 C6 1_555 1_555
O5 C3 1_555 1_555
O6 C3 1_555 1_555
O9 C12 1_555 1_555
O11 C19 1_555 1_555
O12 C19 1_555 1_555
Sm1 O6 1_555 1_555
C36 C35 1_555 1_555
C40 H16 1_555 1_555
Co4 O5 1_555 1_555
Co7 N7 1_555 1_555
N7 C36 1_555 1_555
N9 C35 1_555 1_555
H18 N9 1_555 1_555
O23 Sm1 1_555 1_555
O26 Sm1 1_555 1_555
O31 Sm1 1_555 1_555
O32 Sm1 1_555 1_555
O36 Sm1 1_555 1_555
Sm4 O8 1_555 1_555
C17 C18 1_555 1_555
O11 Sm1 1_555 1_555
O11 Sm4 1_555 1_555
O12 Sm1 1_555 1_555
C40 N7 1_555 1_555
C40 N9 1_555 1_555
O31 Sm4 1_555 1_555
C21 C22 1_555 1_555
C22 O15 1_555 1_555
C31 H13 1_555 1_555
Co3 N8 1_555 1_555
O14 Co1_2 1_555 1_555
O15 Co1_2 1_555 1_555
O16 C21 1_555 1_555
O17 C22 1_555 1_555
O20 Co3 1_555 1_555
O29 Co3 1_555 1_555
O41 Co3 1_555 1_555
H19 O41 1_555 1_555
H20 O41 1_555 1_555
C21 O14 1_555 1_555
Co3 O16 1_555 1_555
Co3 O17 1_555 1_555
H2 C8 1_555 1_555
C14 H4 1_555 1_555
O23 C10 1_555 1_555
O39 Sm4 1_555 1_555
H12 C28 1_555 1_555
O22 C30 1_555 1_555
Sm5 O22 1_555 1_555
C1 C2 1_555 1_555
C2 O2 1_555 1_555
C11 H3 1_555 1_555
C16 C15 1_555 1_555
C20 H6 1_555 1_555
Co4 N3 1_555 1_555
N3 C16 1_555 1_555
O1 C1 1_555 1_555
O2 Co1_3 1_555 1_555
O3 C1 1_555 1_555
O4 C2 1_555 1_555
O13 Co4 1_555 1_555
H9 O13 1_555 1_555
H10 O13 1_555 1_555
C32 C33 1_555 1_555
C33 C34 1_555 1_555
C34 H14 1_555 1_555
H15 C37 1_555 1_555
C38 C33 1_555 1_555
C39 C38 1_555 1_555
O28 Co4 1_555 1_555
O31 C32 1_555 1_555
O36 C39 1_555 1_555
C20 N3 1_555 1_555
Co1_3 O1 1_555 1_555
Co4 O3 1_555 1_555
Co4 O4 1_555 1_555
C32 O28 1_555 1_555
C37 C38 1_555 1_555
C23 C24 1_555 1_555
C24 C25 1_555 1_555
C25 H11 1_555 1_555
C26 C25 1_555 1_555
C27 C26 1_555 1_555
C29 C24 1_555 1_555
N5 Co1_4 1_555 1_555
O20 C23 1_555 1_555
O21 C23 1_555 1_555
O27 Sm5 1_555 1_555
O33 Sm5 1_555 1_555
O34 Sm5 1_555 1_555
O37 Sm5 1_555 1_555
O38 Sm5 1_555 1_555
O40 Sm5 1_555 1_555
Sm5 O21 1_555 1_555
Sm6 O25 1_555 1_555
C26 N5 1_555 1_555
O33 Sm6 1_555 1_555
O38 Sm6 1_555 1_555
H8 N4 1_555 1_555
O1_2 C1_2 1_555 1_555
O3_2 C1_2 1_555 1_555
H9_2 O13_2 1_555 1_555
H10_2 O13_2 1_555 1_555
C23_2 C24_2 1_555 1_555
C24_2 C25_2 1_555 1_555
C25_2 H11_2 1_555 1_555
C26_2 C25_2 1_555 1_555
C27_2 C26_2 1_555 1_555
C28_2 C27_2 1_555 1_555
H12_2 C28_2 1_555 1_555
C29_2 C24_2 1_555 1_555
C30_2 C29_2 1_555 1_555
Co6 O18 1_555 1_555
N5_2 Co1_5 1_555 1_555
N6_2 C27_2 1_555 1_555
O18 C23_2 1_555 1_555
O21_2 C23_2 1_555 1_555
O22_2 C30_2 1_555 1_555
O27 C30_2 1_555 1_555
Sm6 O22_2 1_555 1_555
Co1_5 O1_2 1_555 1_555
C26_2 N5_2 1_555 1_555
C28_2 C29_2 1_555 1_555
C2_2 O2_2 1_555 1_555
C11_2 H3_2 1_555 1_555
O2_2 Co1_6 1_555 1_555
O4_2 C2_2 1_555 1_555
O19 Co7 1_555 1_555
O40_2 Sm6 1_555 1_555
Co7 O4_2 1_555 1_555
C22_2 O15_2 1_555 1_555
C31_2 H13_2 1_555 1_555
Co6 N8_2 1_555 1_555
O15_2 Co1_7 1_555 1_555
O17_2 C22_2 1_555 1_555
O23_2 Sm4 1_555 1_555
Co6 O17_2 1_555 1_555
C3_2 C4_2 1_555 1_555
C4_2 C5_2 1_555 1_555
C5_2 H1_2 1_555 1_555
C6_2 C5_2 1_555 1_555
C7_2 C6_2 1_555 1_555
C8_2 C7_2 1_555 1_555
H2_2 C8_2 1_555 1_555
C9_2 C4_2 1_555 1_555
C10_2 C9_2 1_555 1_555
Co1_8 N1_2 1_555 1_555
N1_2 C6_2 1_555 1_555
N2_2 C7_2 1_555 1_555
O19 C3_2 1_555 1_555
O6_2 C3_2 1_555 1_555
O23_2 C10_2 1_555 1_555
O26 C10_2 1_555 1_555
O14_2 Co1_8 1_555 1_555
O16_2 C21_2 1_555 1_555
H19_2 O41_2 1_555 1_555
H20_2 O41_2 1_555 1_555
C8_2 C9_2 1_555 1_555
C21_2 O14_2 1_555 1_555
H8_2 N4_2 1_555 1_555
C16_2 C15_2 1_555 1_555
C20_2 H6_2 1_555 1_555
N8 C16_2 1_555 1_555
C32_2 C33_2 1_555 1_555
C33_2 C34_2 1_555 1_555
C34_2 H14_2 1_555 1_555
H15_2 C37_2 1_555 1_555
C38_2 C33_2 1_555 1_555
C39_2 C38_2 1_555 1_555
O33 C32_2 1_555 1_555
O37 C39_2 1_555 1_555
C20_2 N8 1_555 1_555
C32_2 O29 1_555 1_555
C37_2 C38_2 1_555 1_555
C14_2 H4_2 1_555 1_555
C12_2 C13_2 1_555 1_555
H5_2 C17_2 1_555 1_555
C18_2 C13_2 1_555 1_555
C19_2 C18_2 1_555 1_555
O29_2 C12_2 1_555 1_555
O38 C19_2 1_555 1_555
O40 C19_2 1_555 1_555
C36_2 C35_2 1_555 1_555
C40_2 H16_2 1_555 1_555
N8_2 C36_2 1_555 1_555
N9_2 C35_2 1_555 1_555
H18_2 N9_2 1_555 1_555
C17_2 C18_2 1_555 1_555
C40_2 N8_2 1_555 1_555
C40_2 N9_2 1_555 1_555

#END
