
###############################################################################
#
# This file contains modified crystal structure data generated from the
# MOF subset of the Cambridge Structural Database (CSD) v543 
# hosted by the Cambridge Crystallographic Data Centre (CCDC).
#
# This work is licensed under the Creative Commons
# Attribution-NonCommercial-ShareAlike 4.0 International License.
# To view a copy of this license, visit
# http://creativecommons.org/licenses/by-nc-sa/4.0/
# or send a letter to
# Creative Commons, PO Box 1866, Mountain View, CA 94042, USA.
#
# CIF created using the CSD Python API on 29 September 2022
# The structure has been converted into the P1 space group
# The structure has a 3D framework
# The original CSD entry ZEFYIU is in the hexagonal crystal system
# The original CSD entry ZEFYIU is in a Sohncke space group
# The framework has been calculated to contain at least 10.0% void space
# The void calculation uses a probe of radius 1.32A, grid spacing 0.4
# The framework is charged, counterions have been retained in the structure
# H atom positions have been added when not included in the experimental data
#
###############################################################################

data_ZEFYIU
_chemical_formula_moiety         '(C318 H192 N6 O58 Zn12 5-)n'
_symmetry_cell_setting           triclinic
_symmetry_space_group_name_H-M   'P 1'
_symmetry_Int_Tables_number      1
_space_group_name_Hall           'P 1'
loop_
_symmetry_equiv_pos_site_id
_symmetry_equiv_pos_as_xyz
1 x,y,z
_cell_length_a                   23.965(3)
_cell_length_b                   23.965(3)
_cell_length_c                   26.192(6)
_cell_angle_alpha                90
_cell_angle_beta                 90
_cell_angle_gamma                120
_cell_volume                     13027.3
loop_
_atom_site_label
_atom_site_type_symbol
_atom_site_fract_x
_atom_site_fract_y
_atom_site_fract_z
C22 C 0.0270(16) 0.2928(16) 0.4783(10)
C23 C 0.0605(8) 0.3494(15) 0.5062(12)
C24 C 0.0270(17) 0.3732(10) 0.5335(10)
C26 C 0.1335(8) 0.3924(9) 0.5082(10)
C27 C 0.1604(11) 0.3904(10) 0.4617(9)
C28 C 0.2270(12) 0.4229(11) 0.4558(6)
C29 C 0.2666(8) 0.4574(8) 0.4964(7)
C30 C 0.2398(10) 0.4594(9) 0.5429(6)
C31 C 0.1732(10) 0.4269(11) 0.5488(8)
C32 C 0.3341(8) 0.4973(11) 0.5014(12)
O3 O 0.3670(4) 0.5202(6) 0.5395(7)
O4 O 0.3584(4) 0.4930(6) 0.4590(7)
Zn3 Zn 0.4516(2) 0.5453(2) 0.43281(16)
Zn5 Zn 0.45462(19) 0.5487(2) 0.55699(16)
H9 H 0.0531832 0.274201 0.456911
H15 H 0.129329 0.363385 0.429885
H16 H 0.0532375 0.417642 0.555296
H18 H 0.152145 0.42848 0.585237
H19 H 0.248088 0.421304 0.419384
H20 H 0.270898 0.486387 0.574711
C1 C 0.7520(15) 0.2472(15) 0.4970(12)
C2 C 0.8189(15) 0.2805(8) 0.5003(11)
C3 C 0.8522(8) 0.2469(15) 0.4998(10)
C4 C 0.8188(15) 0.1801(15) 0.4961(11)
C5 C 0.7519(15) 0.1468(8) 0.4929(10)
C6 C 0.7185(8) 0.1804(15) 0.4933(11)
C7 C 0.7182(16) 0.2845(16) 0.4977(15)
C8 C 0.6638(18) 0.2633(10) 0.4672(11)
C9 C 0.6286(10) 0.2950(17) 0.4686(11)
C10 C 0.6476(16) 0.3479(16) 0.5004(14)
C11 C 0.7020(18) 0.3691(10) 0.5310(10)
C12 C 0.7372(10) 0.3374(18) 0.5296(11)
C13 C 0.6166(8) 0.3881(8) 0.4928(12)
C14 C 0.5886(9) 0.3937(8) 0.4480(9)
C15 C 0.5538(7) 0.4259(7) 0.4485(7)
C16 C 0.5470(6) 0.4524(5) 0.4936(9)
C17 C 0.5750(8) 0.4468(7) 0.5383(7)
C18 C 0.6098(8) 0.4146(9) 0.5379(9)
C19 C 0.5181(7) 0.5070(6) 0.4905(15)
C20 C 0.9266(8) 0.2836(14) 0.5049(11)
C21 C 0.9600(16) 0.2599(9) 0.4777(9)
C25 C 0.9601(17) 0.3402(16) 0.5329(9)
C33 C 0.7188(13) 0.0744(7) 0.4861(10)
C34 C 0.6603(15) 0.0419(15) 0.4604(9)
C38 C 0.7428(9) 0.0399(16) 0.5116(9)
C46 C 0.563(3) 0.5053(19) 0.146(2)
C47 C 0.5321(4) 0.4997(4) 0.1988(5)
C48 C 0.4781(4) 0.4619(4) 0.2286(5)
C49 C 0.4725(4) 0.4830(4) 0.2767(5)
C50 C 0.5209(4) 0.5419(4) 0.2951(5)
C51 C 0.5749(4) 0.5797(4) 0.2653(5)
C52 C 0.5805(4) 0.5586(4) 0.2171(5)
C53 C 0.5070(4) 0.5648(4) 0.3508(5)
N1 N 0.6310(4) 0.6512(4) 0.2991(5)
O1 O 0.4844(4) 0.4925(4) 0.4555(5)
O2 O 0.5062(4) 0.5083(4) 0.5335(5)
O7 O 0.5388(5) 0.4517(5) 0.1349(5)
O8 O 0.6055(5) 0.5462(5) 0.1213(5)
O9 O 0.5507(4) 0.6012(4) 0.3789(5)
O10 O 0.4524(4) 0.5377(4) 0.3672(5)
Zn7 Zn 0.54538(19) 0.4513(2) 0.05699(16)
O13 O 0.5015(6) 0.6365(4) 0.5346(6)
O14 O 0.4738(6) 0.6321(4) 0.4539(6)
O15 O 0.4612(5) 0.5483(5) 0.6349(5)
H1 H 0.593913 0.372925 0.412626
H2 H 0.585996 0.278336 0.444704
H3 H 0.648788 0.221869 0.442226
H4 H 0.845112 0.332837 0.503271
H5 H 0.845 0.153831 0.495706
H6 H 0.666131 0.154388 0.490716
H7 H 0.716957 0.410488 0.556012
H8 H 0.779765 0.354008 0.553534
H10 H 0.933724 0.215497 0.455863
H11 H 0.569708 0.467618 0.573658
H12 H 0.641518 0.0689331 0.440487
H17 H 0.933855 0.358661 0.554373
H22 H 0.531849 0.430338 0.413468
H24 H 0.788599 0.0653165 0.531759
H27 H 0.631716 0.410169 0.572955
H28 H 0.430168 0.453388 0.30002
H29 H 0.440184 0.415739 0.214229
H30 H 0.622782 0.588223 0.193734
H31 H 0.672974 0.68372 0.282242
H32 H 0.620741 0.6591 0.335065
C35 C 0.6258(9) 0.9750(15) 0.4601(9)
C36 C 0.6498(14) 0.9405(7) 0.4856(11)
C37 C 0.7082(15) 0.9729(15) 0.5113(9)
C39 C 0.6122(7) 0.8658(7) 0.4819(7)
C40 C 0.5773(7) 0.8300(8) 0.4399(6)
C41 C 0.5395(8) 0.7634(8) 0.4435(6)
C42 C 0.5365(7) 0.7326(7) 0.4893(6)
C43 C 0.5713(9) 0.7684(8) 0.5313(6)
C44 C 0.6092(10) 0.8350(8) 0.5277(7)
C45 C 0.5113(8) 0.6633(7) 0.4931(8)
H13 H 0.512256 0.735346 0.410511
H14 H 0.568905 0.744262 0.56714
H21 H 0.580011 0.949568 0.439929
H23 H 0.579555 0.854145 0.404096
H25 H 0.726923 0.94583 0.531235
H26 H 0.636507 0.863035 0.560675
C37_2 C 0.2918(15) 0.0271(15) 0.0113(9)
C43_2 C 0.4287(9) 0.2316(8) 0.0313(6)
C44_2 C 0.3908(10) 0.1650(8) 0.0277(7)
O5 O 0.4985(6) 0.3635(4) 0.0346(6)
H14_2 H 0.431095 0.255738 0.0671404
H25_2 H 0.273077 0.05417 0.0312354
H26_2 H 0.363493 0.136965 0.0606751
C35_2 C 0.3742(9) 0.0250(15) 0.9601(9)
C36_2 C 0.3502(14) 0.0595(7) 0.9856(11)
C39_2 C 0.3878(7) 0.1342(7) 0.9819(7)
C40_2 C 0.4227(7) 0.1700(8) 0.9399(6)
C41_2 C 0.4605(8) 0.2366(8) 0.9435(6)
C42_2 C 0.4635(7) 0.2674(7) 0.9893(6)
C45_2 C 0.4887(8) 0.3367(7) 0.9931(8)
O6 O 0.5262(6) 0.3679(4) 0.9539(6)
Zn4 Zn 0.5484(2) 0.4547(2) 0.93281(16)
H13_2 H 0.487744 0.264654 0.910511
H21_2 H 0.419989 0.0504324 0.939929
H23_2 H 0.420445 0.145855 0.904096
C2_2 C 0.1811(15) 0.7195(8) 0.0003(11)
C10_2 C 0.3524(16) 0.6521(16) 0.0004(14)
C11_2 C 0.2980(18) 0.6309(10) 0.0310(10)
C12_2 C 0.2628(10) 0.6626(18) 0.0296(11)
C17_2 C 0.4250(8) 0.5532(7) 0.0383(7)
C18_2 C 0.3902(8) 0.5854(9) 0.0379(9)
C20_2 C 0.0734(8) 0.7164(14) 0.0049(11)
C25_2 C 0.0399(17) 0.6598(16) 0.0329(9)
C38_2 C 0.2572(9) 0.9601(16) 0.0116(9)
O2_2 O 0.4938(4) 0.4917(4) 0.0335(5)
O11 O 0.6330(4) 0.4798(6) 0.0395(7)
H4_2 H 0.154888 0.667163 0.00327072
H7_2 H 0.283043 0.589512 0.0560118
H8_2 H 0.220235 0.645992 0.0535335
H11_2 H 0.430292 0.532382 0.0736583
H17_2 H 0.0661449 0.641339 0.054373
H24_2 H 0.211401 0.934684 0.031759
H27_2 H 0.368284 0.589831 0.0729549
C1_2 C 0.2480(15) 0.7528(15) 0.9970(12)
C3_2 C 0.1478(8) 0.7531(15) 0.9998(10)
C4_2 C 0.1812(15) 0.8199(15) 0.9961(11)
C5_2 C 0.2481(15) 0.8532(8) 0.9929(10)
C6_2 C 0.2815(8) 0.8196(15) 0.9933(11)
C7_2 C 0.2818(16) 0.7155(16) 0.9977(15)
C8_2 C 0.3362(18) 0.7367(10) 0.9672(11)
C9_2 C 0.3714(10) 0.7050(17) 0.9686(11)
C13_2 C 0.3834(8) 0.6119(8) 0.9928(12)
C14_2 C 0.4114(9) 0.6063(8) 0.9480(9)
C15_2 C 0.4462(7) 0.5741(7) 0.9485(7)
C16_2 C 0.4530(6) 0.5476(5) 0.9936(9)
C19_2 C 0.4819(7) 0.4930(6) 0.9905(15)
C21_2 C 0.0400(16) 0.7401(9) 0.9777(9)
C33_2 C 0.2812(13) 0.9256(7) 0.9861(10)
C34_2 C 0.3397(15) 0.9581(15) 0.9604(9)
C46_2 C 0.437(3) 0.4947(19) 0.646(2)
C47_2 C 0.4679(4) 0.5003(4) 0.6988(5)
C48_2 C 0.5219(4) 0.5381(4) 0.7286(5)
C49_2 C 0.5275(4) 0.5170(4) 0.7767(5)
C50_2 C 0.4791(4) 0.4581(4) 0.7951(5)
C51_2 C 0.4251(4) 0.4203(4) 0.7653(5)
C52_2 C 0.4195(4) 0.4414(4) 0.7171(5)
C53_2 C 0.4930(4) 0.4352(4) 0.8508(5)
N1_2 N 0.3690(4) 0.3488(4) 0.7991(5)
O1_2 O 0.5156(4) 0.5075(4) 0.9555(5)
O8_2 O 0.3945(5) 0.4538(5) 0.6213(5)
O9_2 O 0.4493(4) 0.3988(4) 0.8789(5)
O10_2 O 0.5476(4) 0.4623(4) 0.8672(5)
O12 O 0.6416(4) 0.5070(6) 0.9590(7)
H1_2 H 0.406087 0.627075 0.912626
H2_2 H 0.414004 0.721664 0.944704
H3_2 H 0.351212 0.778131 0.942226
H5_2 H 0.155 0.846169 0.995706
H6_2 H 0.333869 0.845612 0.990716
H10_2 H 0.0662765 0.784503 0.955863
H12_2 H 0.358482 0.931067 0.940487
H22_2 H 0.468151 0.569662 0.913468
H28_2 H 0.569832 0.546612 0.80002
H29_2 H 0.559816 0.584261 0.714229
H30_2 H 0.377218 0.411777 0.693734
H31_2 H 0.327026 0.31628 0.782242
H32_2 H 0.379259 0.3409 0.835065
C23_2 C 0.9395(8) 0.6506(15) 0.0062(12)
C24_2 C 0.9730(17) 0.6268(10) 0.0335(10)
C26_2 C 0.8665(8) 0.6076(9) 0.0082(10)
C30_2 C 0.7602(10) 0.5406(9) 0.0429(6)
C31_2 C 0.8268(10) 0.5731(11) 0.0488(8)
C32_2 C 0.6659(8) 0.5027(11) 0.0014(12)
H16_2 H 0.946762 0.582358 0.0552956
H18_2 H 0.847855 0.57152 0.0852369
H20_2 H 0.729102 0.513613 0.0747112
C22_2 C 0.9730(16) 0.7072(16) 0.9783(10)
C27_2 C 0.8396(11) 0.6096(10) 0.9617(9)
C28_2 C 0.7730(12) 0.5771(11) 0.9558(6)
C29_2 C 0.7334(8) 0.5426(8) 0.9964(7)
H9_2 H 0.946817 0.725799 0.956911
H15_2 H 0.870671 0.636615 0.929885
H19_2 H 0.751912 0.578696 0.919384
C22_3 C 0.7342(23) 0.0270(16) 0.6450(10)
C23_3 C 0.7111(17) 0.0605(8) 0.6729(12)
C24_3 C 0.6538(20) 0.0270(17) 0.7002(10)
C26_3 C 0.7411(12) 0.1335(8) 0.6749(10)
C27_3 C 0.7700(15) 0.1604(11) 0.6284(9)
C28_3 C 0.8041(16) 0.2270(12) 0.6225(6)
C29_3 C 0.8092(11) 0.2666(8) 0.6631(7)
C30_3 C 0.7804(13) 0.2398(10) 0.7096(6)
C31_3 C 0.7463(15) 0.1732(10) 0.7155(8)
C32_3 C 0.8368(14) 0.3341(8) 0.6681(12)
O3_2 O 0.8468(7) 0.3670(4) 0.7062(7)
O4_2 O 0.8654(7) 0.3584(4) 0.6257(7)
Zn3_2 Zn 0.9063(3) 0.4516(2) 0.59948(16)
Zn5_2 Zn 0.90592(28) 0.45462(19) 0.72366(16)
H9_3 H 0.778982 0.0531832 0.623578
H15_3 H 0.765944 0.129329 0.596551
H16_3 H 0.635595 0.0532375 0.721962
H18_3 H 0.723666 0.152145 0.751904
H19_3 H 0.826784 0.248088 0.586051
H20_3 H 0.784511 0.270898 0.741378
C1_3 C 0.5048(21) 0.7520(15) 0.6637(12)
C2_3 C 0.5384(17) 0.8189(15) 0.6670(11)
C3_3 C 0.6053(17) 0.8522(8) 0.6665(10)
C4_3 C 0.6387(21) 0.8188(15) 0.6628(11)
C5_3 C 0.6051(17) 0.7519(15) 0.6596(10)
C6_3 C 0.5381(17) 0.7185(8) 0.6600(11)
C7_3 C 0.4337(23) 0.7182(16) 0.6644(15)
C8_3 C 0.4005(21) 0.6638(18) 0.6339(11)
C9_3 C 0.3336(20) 0.6286(10) 0.6353(11)
C10_3 C 0.2997(23) 0.6476(16) 0.6671(14)
C11_3 C 0.3329(21) 0.7020(18) 0.6977(10)
C12_3 C 0.3998(21) 0.7372(10) 0.6963(11)
C13_3 C 0.2285(11) 0.6166(8) 0.6595(12)
C14_3 C 0.1949(12) 0.5886(9) 0.6147(9)
C15_3 C 0.1279(10) 0.5538(7) 0.6152(7)
C16_3 C 0.0946(8) 0.5470(6) 0.6603(9)
C17_3 C 0.1282(11) 0.5750(8) 0.7050(7)
C18_3 C 0.1952(12) 0.6098(8) 0.7046(9)
C19_3 C 0.0111(9) 0.5181(7) 0.6572(15)
C20_3 C 0.6430(16) 0.9266(8) 0.6716(11)
C21_3 C 0.7001(18) 0.9600(16) 0.6444(9)
C25_3 C 0.6199(23) 0.9601(17) 0.6996(9)
C33_3 C 0.6444(15) 0.7188(13) 0.6528(10)
C34_3 C 0.6184(21) 0.6603(15) 0.6271(9)
C35_3 C 0.6508(17) 0.6258(9) 0.6268(9)
C36_3 C 0.7093(16) 0.6498(14) 0.6523(11)
C37_3 C 0.7353(21) 0.7082(15) 0.6780(9)
C38_3 C 0.7029(18) 0.7428(9) 0.6783(9)
C39_3 C 0.7464(10) 0.6122(7) 0.6486(7)
C40_3 C 0.7473(11) 0.5773(7) 0.6066(6)
C41_3 C 0.7761(11) 0.5395(8) 0.6102(6)
C42_3 C 0.8039(10) 0.5365(7) 0.6560(6)
C43_3 C 0.8029(12) 0.5713(9) 0.6980(6)
C44_3 C 0.7742(13) 0.6092(10) 0.6944(7)
C45_3 C 0.8480(11) 0.5113(8) 0.6598(8)
C46_3 C 0.0577(36) 0.563(3) 0.313(2)
C47_3 C 0.0324(6) 0.5321(4) 0.3655(5)
C48_3 C 0.0162(6) 0.4781(4) 0.3953(5)
C52_3 C 0.0219(6) 0.5805(4) 0.3838(5)
O5_2 O 0.8650(7) 0.5015(6) 0.7013(6)
O6_2 O 0.8417(7) 0.4738(6) 0.6206(6)
O7_2 O 0.0871(7) 0.5388(5) 0.3016(5)
O8_3 O 0.0593(7) 0.6055(5) 0.2880(5)
Zn7_2 Zn 0.09408(28) 0.54538(19) 0.22366(16)
H1_3 H 0.220988 0.593913 0.579292
H2_3 H 0.30766 0.585996 0.611371
H3_3 H 0.426918 0.648788 0.608892
H4_3 H 0.512275 0.845112 0.669937
H5_3 H 0.691169 0.845 0.662373
H6_3 H 0.511742 0.666131 0.657383
H7_3 H 0.306469 0.716957 0.722678
H8_3 H 0.425757 0.779765 0.7202
H10_3 H 0.718227 0.933724 0.62253
H11_3 H 0.10209 0.569708 0.740325
H12_3 H 0.572585 0.641518 0.607154
H13_3 H 0.77691 0.512256 0.577178
H14_3 H 0.824642 0.568905 0.733807
H17_3 H 0.575194 0.933855 0.72104
H21_3 H 0.630444 0.580011 0.606595
H22_3 H 0.101511 0.531849 0.580134
H23_3 H 0.725409 0.579555 0.570762
H24_3 H 0.723282 0.788599 0.698426
H25_3 H 0.781093 0.726923 0.697902
H26_3 H 0.773472 0.636507 0.727342
H27_3 H 0.221547 0.631716 0.739622
H29_3 H 0.0244453 0.440184 0.380895
H30_3 H 0.0345591 0.622782 0.360401
C49_3 C 0.9895(6) 0.4725(4) 0.4434(5)
C50_3 C 0.9790(6) 0.5209(4) 0.4618(5)
C51_3 C 0.9952(6) 0.5749(4) 0.4320(5)
C53_3 C 0.9422(6) 0.5070(4) 0.5175(5)
N1_3 N 0.9798(6) 0.6310(4) 0.4658(5)
O1_3 O 0.9919(6) 0.4844(4) 0.6222(5)
O2_3 O 0.9979(6) 0.5062(4) 0.7002(5)
O9_3 O 0.9495(6) 0.5507(4) 0.5456(5)
O10_3 O 0.9147(6) 0.4524(4) 0.5339(5)
O15_2 O 0.9129(7) 0.4612(5) 0.8016(5)
H28_3 H 0.97678 0.430168 0.466687
H31_3 H 0.989254 0.672974 0.448909
H32_3 H 0.96164 0.620741 0.501732
Zn1 Zn 0.0937(3) 0.5484(2) 0.09948(16)
C53_4 C 0.0578(6) 0.4930(4) 0.0175(5)
O1_4 O 0.0081(6) 0.5156(4) 0.1222(5)
O2_4 O 0.0021(6) 0.4938(4) 0.2002(5)
O9_4 O 0.0505(6) 0.4493(4) 0.0456(5)
O10_4 O 0.0853(6) 0.5476(4) 0.0339(5)
O11_2 O 0.1532(7) 0.6330(4) 0.2062(7)
O12_2 O 0.1346(7) 0.6416(4) 0.1257(7)
O13_2 O 0.1350(7) 0.4985(6) 0.2013(6)
O14_2 O 0.1583(7) 0.5262(6) 0.1206(6)
H32_4 H 0.0383598 0.379259 0.00173212
C1_4 C 0.4952(21) 0.2480(15) 0.1637(12)
C2_4 C 0.4616(17) 0.1811(15) 0.1670(11)
C3_4 C 0.3947(17) 0.1478(8) 0.1665(10)
C4_4 C 0.3613(21) 0.1812(15) 0.1628(11)
C5_4 C 0.3949(17) 0.2481(15) 0.1596(10)
C6_4 C 0.4619(17) 0.2815(8) 0.1600(11)
C7_4 C 0.5663(23) 0.2818(16) 0.1644(15)
C8_4 C 0.5995(21) 0.3362(18) 0.1339(11)
C9_4 C 0.6664(20) 0.3714(10) 0.1353(11)
C10_4 C 0.7003(23) 0.3524(16) 0.1671(14)
C11_4 C 0.6671(21) 0.2980(18) 0.1977(10)
C12_4 C 0.6002(21) 0.2628(10) 0.1963(11)
C13_4 C 0.7715(11) 0.3834(8) 0.1595(12)
C14_4 C 0.8051(12) 0.4114(9) 0.1147(9)
C15_4 C 0.8721(10) 0.4462(7) 0.1152(7)
C16_4 C 0.9054(8) 0.4530(6) 0.1603(9)
C17_4 C 0.8718(11) 0.4250(8) 0.2050(7)
C18_4 C 0.8048(12) 0.3902(8) 0.2046(9)
C19_4 C 0.9889(9) 0.4819(7) 0.1572(15)
C20_4 C 0.3570(16) 0.0734(8) 0.1716(11)
C21_4 C 0.2999(18) 0.0400(16) 0.1444(9)
C25_4 C 0.3801(23) 0.0399(17) 0.1996(9)
C33_4 C 0.3556(15) 0.2812(13) 0.1528(10)
C34_4 C 0.3816(21) 0.3397(15) 0.1271(9)
C35_4 C 0.3492(17) 0.3742(9) 0.1268(9)
C36_4 C 0.2907(16) 0.3502(14) 0.1523(11)
C37_4 C 0.2647(21) 0.2918(15) 0.1780(9)
C38_4 C 0.2971(18) 0.2572(9) 0.1783(9)
C39_4 C 0.2536(10) 0.3878(7) 0.1486(7)
C40_4 C 0.2527(11) 0.4227(7) 0.1066(6)
C41_4 C 0.2239(11) 0.4605(8) 0.1102(6)
C42_4 C 0.1961(10) 0.4635(7) 0.1560(6)
C43_4 C 0.1971(12) 0.4287(9) 0.1980(6)
C44_4 C 0.2258(13) 0.3908(10) 0.1944(7)
C45_4 C 0.1520(11) 0.4887(8) 0.1598(8)
H1_4 H 0.779012 0.406087 0.0792924
H2_4 H 0.69234 0.414004 0.111371
H3_4 H 0.573082 0.351212 0.108892
H4_4 H 0.487725 0.154888 0.169937
H5_4 H 0.308831 0.155 0.162373
H6_4 H 0.488258 0.333869 0.157383
H7_4 H 0.693531 0.283043 0.222678
H8_4 H 0.574243 0.220235 0.2202
H10_4 H 0.281773 0.0662765 0.12253
H11_4 H 0.89791 0.430292 0.240325
H12_4 H 0.427415 0.358482 0.107154
H13_4 H 0.22309 0.487744 0.0771776
H14_4 H 0.175358 0.431095 0.233807
H17_4 H 0.424806 0.0661449 0.22104
H21_4 H 0.369556 0.419989 0.106595
H22_4 H 0.898489 0.468151 0.0801342
H23_4 H 0.274591 0.420445 0.0707625
H24_4 H 0.276718 0.211401 0.198426
H25_4 H 0.218907 0.273077 0.197902
H26_4 H 0.226528 0.363493 0.227342
H27_4 H 0.778453 0.368284 0.239622
C46_4 C 0.9423(36) 0.437(3) 0.813(2)
C47_4 C 0.9676(6) 0.4679(4) 0.8655(5)
C48_4 C 0.9838(6) 0.5219(4) 0.8953(5)
C52_4 C 0.9781(6) 0.4195(4) 0.8838(5)
O8_4 O 0.9407(7) 0.3945(5) 0.7880(5)
H29_4 H 0.975555 0.559816 0.880895
H30_4 H 0.965441 0.377218 0.860401
C22_4 C 0.2658(23) 0.9730(16) 0.1450(10)
C23_4 C 0.2889(17) 0.9395(8) 0.1729(12)
C24_4 C 0.3462(20) 0.9730(17) 0.2002(10)
C26_4 C 0.2589(12) 0.8665(8) 0.1749(10)
C27_4 C 0.2300(15) 0.8396(11) 0.1284(9)
C28_4 C 0.1959(16) 0.7730(12) 0.1225(6)
C29_4 C 0.1908(11) 0.7334(8) 0.1631(7)
C30_4 C 0.2196(13) 0.7602(10) 0.2096(6)
C31_4 C 0.2537(15) 0.8268(10) 0.2155(8)
C32_4 C 0.1632(14) 0.6659(8) 0.1681(12)
H9_4 H 0.221018 0.946817 0.123578
H15_4 H 0.234056 0.870671 0.0965512
H16_4 H 0.364405 0.946762 0.221962
H18_4 H 0.276334 0.847855 0.251904
H19_4 H 0.173216 0.751912 0.086051
H20_4 H 0.215489 0.729102 0.241378
C35_5 C 0.0250(15) 0.6508(17) 0.7934(9)
C36_5 C 0.0595(7) 0.7093(16) 0.8189(11)
C37_5 C 0.0271(15) 0.7353(21) 0.8446(9)
C39_5 C 0.1342(7) 0.7464(10) 0.8152(7)
C40_5 C 0.1700(8) 0.7473(11) 0.7732(6)
C41_5 C 0.2366(8) 0.7761(11) 0.7768(6)
C42_5 C 0.2674(7) 0.8039(10) 0.8226(6)
C43_5 C 0.2316(8) 0.8029(12) 0.8646(6)
C44_5 C 0.1650(8) 0.7742(13) 0.8610(7)
C45_5 C 0.3367(7) 0.8480(11) 0.8264(8)
O5_3 O 0.3635(4) 0.8650(7) 0.8679(6)
O6_3 O 0.3679(4) 0.8417(7) 0.7872(6)
Zn4_2 Zn 0.4547(2) 0.9063(3) 0.76614(16)
Zn6 Zn 0.4513(2) 0.90592(28) 0.89032(16)
H13_5 H 0.264654 0.77691 0.743844
H14_5 H 0.255738 0.824642 0.900474
H21_5 H 0.0504324 0.630444 0.773262
H23_5 H 0.145855 0.725409 0.737429
H25_5 H 0.05417 0.781093 0.864569
H26_5 H 0.136965 0.773472 0.894008
C1_5 C 0.7528(15) 0.5048(21) 0.8303(12)
C2_5 C 0.7195(8) 0.5384(17) 0.8336(11)
C3_5 C 0.7531(15) 0.6053(17) 0.8331(10)
C4_5 C 0.8199(15) 0.6387(21) 0.8294(11)
C5_5 C 0.8532(8) 0.6051(17) 0.8262(10)
C6_5 C 0.8196(15) 0.5381(17) 0.8266(11)
C7_5 C 0.7155(16) 0.4337(23) 0.8310(15)
C8_5 C 0.7367(10) 0.4005(21) 0.8005(11)
C9_5 C 0.7050(17) 0.3336(20) 0.8019(11)
C10_5 C 0.6521(16) 0.2997(23) 0.8337(14)
C11_5 C 0.6309(10) 0.3329(21) 0.8643(10)
C12_5 C 0.6626(18) 0.3998(21) 0.8629(11)
C13_5 C 0.6119(8) 0.2285(11) 0.8261(12)
C14_5 C 0.6063(8) 0.1949(12) 0.7813(9)
C15_5 C 0.5741(7) 0.1279(10) 0.7818(7)
C16_5 C 0.5476(5) 0.0946(8) 0.8269(9)
C17_5 C 0.5532(7) 0.1282(11) 0.8716(7)
C18_5 C 0.5854(9) 0.1952(12) 0.8712(9)
C19_5 C 0.4930(6) 0.0111(9) 0.8238(15)
C20_5 C 0.7164(14) 0.6430(16) 0.8382(11)
C21_5 C 0.7401(9) 0.7001(18) 0.8110(9)
C22_5 C 0.7072(16) 0.7342(23) 0.8116(10)
C23_5 C 0.6506(15) 0.7111(17) 0.8395(12)
C24_5 C 0.6268(10) 0.6538(20) 0.8668(10)
C25_5 C 0.6598(16) 0.6199(23) 0.8662(9)
C26_5 C 0.6076(9) 0.7411(12) 0.8415(10)
C27_5 C 0.6096(10) 0.7700(15) 0.7950(9)
C28_5 C 0.5771(11) 0.8041(16) 0.7891(6)
C29_5 C 0.5426(8) 0.8092(11) 0.8297(7)
C30_5 C 0.5406(9) 0.7804(13) 0.8762(6)
C31_5 C 0.5731(11) 0.7463(15) 0.8821(8)
C32_5 C 0.5027(11) 0.8368(14) 0.8347(12)
C33_5 C 0.9256(7) 0.6444(15) 0.8194(10)
C34_5 C 0.9581(15) 0.6184(21) 0.7937(9)
C38_5 C 0.9601(16) 0.7029(18) 0.8449(9)
C46_5 C 0.4947(19) 0.0577(36) 0.479(2)
C47_5 C 0.5003(4) 0.0324(6) 0.5321(5)
C48_5 C 0.5381(4) 0.0162(6) 0.5619(5)
C52_5 C 0.4414(4) 0.0219(6) 0.5504(5)
O3_3 O 0.4798(6) 0.8468(7) 0.8728(7)
O4_3 O 0.5070(6) 0.8654(7) 0.7923(7)
O7_3 O 0.5483(5) 0.0871(7) 0.4682(5)
O8_5 O 0.4538(5) 0.0593(7) 0.4546(5)
Zn7_3 Zn 0.5487(2) 0.09408(28) 0.39032(16)
H1_5 H 0.627075 0.220988 0.745959
H2_5 H 0.721664 0.30766 0.778038
H3_5 H 0.778131 0.426918 0.775559
H4_5 H 0.667163 0.512275 0.836604
H5_5 H 0.846169 0.691169 0.829039
H6_5 H 0.845612 0.511742 0.824049
H7_5 H 0.589512 0.306469 0.889345
H8_5 H 0.645992 0.425757 0.886867
H9_5 H 0.725799 0.778982 0.790244
H10_5 H 0.784503 0.718227 0.789197
H11_5 H 0.532382 0.10209 0.906992
H12_5 H 0.931067 0.572585 0.773821
H15_5 H 0.636615 0.765944 0.763218
H16_5 H 0.582358 0.635595 0.888629
H17_5 H 0.641339 0.575194 0.887706
H18_5 H 0.57152 0.723666 0.91857
H19_5 H 0.578696 0.826784 0.752718
H20_5 H 0.513613 0.784511 0.908045
H22_5 H 0.569662 0.101511 0.746801
H24_5 H 0.934684 0.723282 0.865092
H27_5 H 0.589831 0.221547 0.906288
H29_5 H 0.584261 0.0244453 0.547562
H30_5 H 0.411777 0.0345591 0.527068
C49_4 C 0.5170(4) 0.9895(6) 0.6100(5)
C50_4 C 0.4581(4) 0.9790(6) 0.6284(5)
C51_4 C 0.4203(4) 0.9952(6) 0.5986(5)
C53_5 C 0.4352(4) 0.9422(6) 0.6841(5)
N1_4 N 0.3488(4) 0.9798(6) 0.6324(5)
O1_5 O 0.5075(4) 0.9919(6) 0.7888(5)
O2_5 O 0.4917(4) 0.9979(6) 0.8668(5)
O9_5 O 0.3988(4) 0.9495(6) 0.7122(5)
O10_5 O 0.4623(4) 0.9147(6) 0.7005(5)
O15_3 O 0.4517(5) 0.9129(7) 0.9682(5)
H28_4 H 0.546612 0.97678 0.633353
H31_4 H 0.31628 0.989254 0.615576
H32_5 H 0.3409 0.96164 0.668399
Zn1_2 Zn 0.5453(2) 0.0937(3) 0.26614(16)
C49_5 C 0.4830(4) 0.0105(6) 0.1100(5)
C50_5 C 0.5419(4) 0.0210(6) 0.1284(5)
C51_5 C 0.5797(4) 0.0048(6) 0.0986(5)
C53_6 C 0.5648(4) 0.0578(6) 0.1841(5)
N1_5 N 0.6512(4) 0.0202(6) 0.1324(5)
O1_6 O 0.4925(4) 0.0081(6) 0.2888(5)
O2_6 O 0.5083(4) 0.0021(6) 0.3668(5)
O9_6 O 0.6012(4) 0.0505(6) 0.2122(5)
O10_6 O 0.5377(4) 0.0853(6) 0.2005(5)
O11_3 O 0.5202(6) 0.1532(7) 0.3728(7)
O12_3 O 0.4930(6) 0.1346(7) 0.2923(7)
O13_3 O 0.6365(4) 0.1350(7) 0.3679(6)
O14_3 O 0.6321(4) 0.1583(7) 0.2872(6)
H28_5 H 0.453388 0.0232203 0.133353
H31_5 H 0.68372 0.0107461 0.115576
H32_6 H 0.6591 0.0383598 0.168399
C1_6 C 0.2472(15) 0.4952(21) 0.3303(12)
C2_6 C 0.2805(8) 0.4616(17) 0.3336(11)
C3_6 C 0.2469(15) 0.3947(17) 0.3331(10)
C4_6 C 0.1801(15) 0.3613(21) 0.3294(11)
C5_6 C 0.1468(8) 0.3949(17) 0.3262(10)
C6_6 C 0.1804(15) 0.4619(17) 0.3266(11)
C7_6 C 0.2845(16) 0.5663(23) 0.3310(15)
C8_6 C 0.2633(10) 0.5995(21) 0.3005(11)
C9_6 C 0.2950(17) 0.6664(20) 0.3019(11)
C10_6 C 0.3479(16) 0.7003(23) 0.3337(14)
C11_6 C 0.3691(10) 0.6671(21) 0.3643(10)
C12_6 C 0.3374(18) 0.6002(21) 0.3629(11)
C13_6 C 0.3881(8) 0.7715(11) 0.3261(12)
C14_6 C 0.3937(8) 0.8051(12) 0.2813(9)
C15_6 C 0.4259(7) 0.8721(10) 0.2818(7)
C16_6 C 0.4524(5) 0.9054(8) 0.3269(9)
C17_6 C 0.4468(7) 0.8718(11) 0.3716(7)
C18_6 C 0.4146(9) 0.8048(12) 0.3712(9)
C19_6 C 0.5070(6) 0.9889(9) 0.3238(15)
C20_6 C 0.2836(14) 0.3570(16) 0.3382(11)
C21_6 C 0.2599(9) 0.2999(18) 0.3110(9)
C22_6 C 0.2928(16) 0.2658(23) 0.3116(10)
C23_6 C 0.3494(15) 0.2889(17) 0.3395(12)
C24_6 C 0.3732(10) 0.3462(20) 0.3668(10)
C25_6 C 0.3402(16) 0.3801(23) 0.3662(9)
C26_6 C 0.3924(9) 0.2589(12) 0.3415(10)
C27_6 C 0.3904(10) 0.2300(15) 0.2950(9)
C28_6 C 0.4229(11) 0.1959(16) 0.2891(6)
C29_6 C 0.4574(8) 0.1908(11) 0.3297(7)
C30_6 C 0.4594(9) 0.2196(13) 0.3762(6)
C31_6 C 0.4269(11) 0.2537(15) 0.3821(8)
C32_6 C 0.4973(11) 0.1632(14) 0.3347(12)
C33_6 C 0.0744(7) 0.3556(15) 0.3194(10)
C34_6 C 0.0419(15) 0.3816(21) 0.2937(9)
C38_6 C 0.0399(16) 0.2971(18) 0.3449(9)
C47_6 C 0.4997(4) 0.9676(6) 0.0321(5)
C48_6 C 0.4619(4) 0.9838(6) 0.0619(5)
C52_6 C 0.5586(4) 0.9781(6) 0.0504(5)
H1_6 H 0.372925 0.779012 0.245959
H2_6 H 0.278336 0.69234 0.278038
H3_6 H 0.221869 0.573082 0.275559
H4_6 H 0.332837 0.487725 0.336604
H5_6 H 0.153831 0.308831 0.329039
H6_6 H 0.154388 0.488258 0.324049
H7_6 H 0.410488 0.693531 0.389345
H8_6 H 0.354008 0.574243 0.386867
H9_6 H 0.274201 0.221018 0.290244
H10_6 H 0.215497 0.281773 0.289197
H11_6 H 0.467618 0.89791 0.406992
H12_6 H 0.0689331 0.427415 0.273821
H15_6 H 0.363385 0.234056 0.263218
H16_6 H 0.417642 0.364405 0.388629
H17_6 H 0.358661 0.424806 0.387706
H18_6 H 0.42848 0.276334 0.41857
H19_6 H 0.421304 0.173216 0.252718
H20_6 H 0.486387 0.215489 0.408045
H22_6 H 0.430338 0.898489 0.246801
H24_6 H 0.0653165 0.276718 0.365092
H27_6 H 0.410169 0.778453 0.406288
H29_6 H 0.415739 0.975555 0.0475619
H30_6 H 0.588223 0.965441 0.0270677
C46_6 C 0.5053(19) 0.9423(36) 0.979(2)
O8_6 O 0.5462(5) 0.9407(7) 0.9546(5)
C35_6 C 0.9750(15) 0.3492(17) 0.2934(9)
C36_6 C 0.9405(7) 0.2907(16) 0.3189(11)
C37_6 C 0.9729(15) 0.2647(21) 0.3446(9)
C39_6 C 0.8658(7) 0.2536(10) 0.3152(7)
C40_6 C 0.8300(8) 0.2527(11) 0.2732(6)
C41_6 C 0.7634(8) 0.2239(11) 0.2768(6)
C42_6 C 0.7326(7) 0.1961(10) 0.3226(6)
C43_6 C 0.7684(8) 0.1971(12) 0.3646(6)
C44_6 C 0.8350(8) 0.2258(13) 0.3610(7)
C45_6 C 0.6633(7) 0.1520(11) 0.3264(8)
H13_6 H 0.735346 0.22309 0.243844
H14_6 H 0.744262 0.175358 0.400474
H21_6 H 0.949568 0.369556 0.273262
H23_6 H 0.854145 0.274591 0.237429
H25_6 H 0.94583 0.218907 0.364569
H26_6 H 0.863035 0.226528 0.394008
C49_6 C 0.0105(6) 0.5275(4) 0.9434(5)
C50_6 C 0.0210(6) 0.4791(4) 0.9618(5)
C51_6 C 0.0048(6) 0.4251(4) 0.9320(5)
N1_6 N 0.0202(6) 0.3690(4) 0.9658(5)
H28_6 H 0.0232203 0.569832 0.966687
H31_6 H 0.0107461 0.327026 0.948909
loop_
_geom_bond_atom_site_label_1
_geom_bond_atom_site_label_2
_geom_bond_site_symmetry_1
_geom_bond_site_symmetry_2
C23 C22 1_555 1_555
C24 C23 1_555 1_555
C26 C23 1_555 1_555
C27 C26 1_555 1_555
C28 C27 1_555 1_555
C29 C28 1_555 1_555
C30 C29 1_555 1_555
C31 C26 1_555 1_555
C32 C29 1_555 1_555
O3 C32 1_555 1_555
O4 C32 1_555 1_555
Zn3 O4 1_555 1_555
Zn5 O3 1_555 1_555
C30 C31 1_555 1_555
C22 H9 1_555 1_555
C27 H15 1_555 1_555
C24 H16 1_555 1_555
C31 H18 1_555 1_555
C28 H19 1_555 1_555
C30 H20 1_555 1_555
Zn3 O1 1_555 1_555
Zn5 O2 1_555 1_555
C1 C2 1_555 1_555
C2 C3 1_555 1_555
C3 C4 1_555 1_555
C4 C5 1_555 1_555
C5 C6 1_555 1_555
C6 C1 1_555 1_555
C7 C1 1_555 1_555
C8 C7 1_555 1_555
C9 C8 1_555 1_555
C10 C9 1_555 1_555
C11 C10 1_555 1_555
C12 C7 1_555 1_555
C13 C10 1_555 1_555
C14 C13 1_555 1_555
C15 C14 1_555 1_555
C16 C15 1_555 1_555
C17 C16 1_555 1_555
C18 C13 1_555 1_555
C19 C16 1_555 1_555
C20 C3 1_555 1_555
C21 C20 1_555 1_555
C25 C20 1_555 1_555
C33 C5 1_555 1_555
C34 C33 1_555 1_555
C38 C33 1_555 1_555
C46 C47 1_555 1_555
C47 C48 1_555 1_555
C48 C49 1_555 1_555
C49 C50 1_555 1_555
C50 C51 1_555 1_555
C51 C52 1_555 1_555
C52 C47 1_555 1_555
C53 C50 1_555 1_555
N1 C51 1_555 1_555
O1 C19 1_555 1_555
O2 C19 1_555 1_555
O7 C46 1_555 1_555
O8 C46 1_555 1_555
O9 C53 1_555 1_555
O10 Zn3 1_555 1_555
Zn7 O7 1_555 1_555
O13 Zn5 1_555 1_555
O14 Zn3 1_555 1_555
O15 Zn5 1_555 1_555
C11 C12 1_555 1_555
C17 C18 1_555 1_555
C53 O10 1_555 1_555
C14 H1 1_555 1_555
C9 H2 1_555 1_555
C8 H3 1_555 1_555
C2 H4 1_555 1_555
C4 H5 1_555 1_555
C6 H6 1_555 1_555
C11 H7 1_555 1_555
C12 H8 1_555 1_555
C21 H10 1_555 1_555
C17 H11 1_555 1_555
C34 H12 1_555 1_555
C25 H17 1_555 1_555
C15 H22 1_555 1_555
C38 H24 1_555 1_555
C18 H27 1_555 1_555
C49 H28 1_555 1_555
C48 H29 1_555 1_555
C52 H30 1_555 1_555
N1 H31 1_555 1_555
N1 H32 1_555 1_555
C36 C35 1_555 1_555
C37 C36 1_555 1_555
C39 C36 1_555 1_555
C40 C39 1_555 1_555
C41 C40 1_555 1_555
C42 C41 1_555 1_555
C43 C42 1_555 1_555
C44 C39 1_555 1_555
C45 C42 1_555 1_555
O13 C45 1_555 1_555
O14 C45 1_555 1_555
C43 C44 1_555 1_555
C41 H13 1_555 1_555
C43 H14 1_555 1_555
C35 H21 1_555 1_555
C40 H23 1_555 1_555
C37 H25 1_555 1_555
C44 H26 1_555 1_555
Zn7 O5 1_555 1_555
C43_2 C44_2 1_555 1_555
C43_2 H14_2 1_555 1_555
C37_2 H25_2 1_555 1_555
C44_2 H26_2 1_555 1_555
C36_2 C35_2 1_555 1_555
C39_2 C36_2 1_555 1_555
C40_2 C39_2 1_555 1_555
C41_2 C40_2 1_555 1_555
C42_2 C41_2 1_555 1_555
C45_2 C42_2 1_555 1_555
O6 C45_2 1_555 1_555
Zn4 O6 1_555 1_555
C41_2 H13_2 1_555 1_555
C35_2 H21_2 1_555 1_555
C40_2 H23_2 1_555 1_555
Zn7 O2_2 1_555 1_555
C11_2 C10_2 1_555 1_555
C25_2 C20_2 1_555 1_555
O11 Zn7 1_555 1_555
C11_2 C12_2 1_555 1_555
C17_2 C18_2 1_555 1_555
C2_2 H4_2 1_555 1_555
C11_2 H7_2 1_555 1_555
C12_2 H8_2 1_555 1_555
C17_2 H11_2 1_555 1_555
C25_2 H17_2 1_555 1_555
C38_2 H24_2 1_555 1_555
C18_2 H27_2 1_555 1_555
Zn4 O1_2 1_555 1_555
C3_2 C4_2 1_555 1_555
C4_2 C5_2 1_555 1_555
C5_2 C6_2 1_555 1_555
C6_2 C1_2 1_555 1_555
C7_2 C1_2 1_555 1_555
C8_2 C7_2 1_555 1_555
C9_2 C8_2 1_555 1_555
C14_2 C13_2 1_555 1_555
C15_2 C14_2 1_555 1_555
C16_2 C15_2 1_555 1_555
C19_2 C16_2 1_555 1_555
C33_2 C5_2 1_555 1_555
C34_2 C33_2 1_555 1_555
C46_2 C47_2 1_555 1_555
C47_2 C48_2 1_555 1_555
C48_2 C49_2 1_555 1_555
C49_2 C50_2 1_555 1_555
C50_2 C51_2 1_555 1_555
C51_2 C52_2 1_555 1_555
C52_2 C47_2 1_555 1_555
C53_2 C50_2 1_555 1_555
N1_2 C51_2 1_555 1_555
O1_2 C19_2 1_555 1_555
O15 C46_2 1_555 1_555
O8_2 C46_2 1_555 1_555
O9_2 C53_2 1_555 1_555
O10_2 Zn4 1_555 1_555
O12 Zn4 1_555 1_555
C53_2 O10_2 1_555 1_555
C14_2 H1_2 1_555 1_555
C9_2 H2_2 1_555 1_555
C8_2 H3_2 1_555 1_555
C4_2 H5_2 1_555 1_555
C6_2 H6_2 1_555 1_555
C21_2 H10_2 1_555 1_555
C34_2 H12_2 1_555 1_555
C15_2 H22_2 1_555 1_555
C49_2 H28_2 1_555 1_555
C48_2 H29_2 1_555 1_555
C52_2 H30_2 1_555 1_555
N1_2 H31_2 1_555 1_555
N1_2 H32_2 1_555 1_555
C24_2 C23_2 1_555 1_555
C26_2 C23_2 1_555 1_555
C31_2 C26_2 1_555 1_555
O11 C32_2 1_555 1_555
C30_2 C31_2 1_555 1_555
C24_2 H16_2 1_555 1_555
C31_2 H18_2 1_555 1_555
C30_2 H20_2 1_555 1_555
C28_2 C27_2 1_555 1_555
C29_2 C28_2 1_555 1_555
C22_2 H9_2 1_555 1_555
C27_2 H15_2 1_555 1_555
C28_2 H19_2 1_555 1_555
C23_3 C22_3 1_555 1_555
C24_3 C23_3 1_555 1_555
C26_3 C23_3 1_555 1_555
C27_3 C26_3 1_555 1_555
C28_3 C27_3 1_555 1_555
C29_3 C28_3 1_555 1_555
C30_3 C29_3 1_555 1_555
C31_3 C26_3 1_555 1_555
C32_3 C29_3 1_555 1_555
O3_2 C32_3 1_555 1_555
O4_2 C32_3 1_555 1_555
Zn3_2 O4_2 1_555 1_555
Zn5_2 O3_2 1_555 1_555
C30_3 C31_3 1_555 1_555
C22_3 H9_3 1_555 1_555
C27_3 H15_3 1_555 1_555
C24_3 H16_3 1_555 1_555
C31_3 H18_3 1_555 1_555
C28_3 H19_3 1_555 1_555
C30_3 H20_3 1_555 1_555
C1_3 C2_3 1_555 1_555
C2_3 C3_3 1_555 1_555
C3_3 C4_3 1_555 1_555
C4_3 C5_3 1_555 1_555
C5_3 C6_3 1_555 1_555
C6_3 C1_3 1_555 1_555
C7_3 C1_3 1_555 1_555
C8_3 C7_3 1_555 1_555
C9_3 C8_3 1_555 1_555
C10_3 C9_3 1_555 1_555
C11_3 C10_3 1_555 1_555
C12_3 C7_3 1_555 1_555
C13_3 C10_3 1_555 1_555
C14_3 C13_3 1_555 1_555
C15_3 C14_3 1_555 1_555
C16_3 C15_3 1_555 1_555
C17_3 C16_3 1_555 1_555
C18_3 C13_3 1_555 1_555
C19_3 C16_3 1_555 1_555
C20_3 C3_3 1_555 1_555
C21_3 C20_3 1_555 1_555
C25_3 C20_3 1_555 1_555
C33_3 C5_3 1_555 1_555
C34_3 C33_3 1_555 1_555
C35_3 C34_3 1_555 1_555
C36_3 C35_3 1_555 1_555
C37_3 C36_3 1_555 1_555
C38_3 C33_3 1_555 1_555
C39_3 C36_3 1_555 1_555
C40_3 C39_3 1_555 1_555
C41_3 C40_3 1_555 1_555
C42_3 C41_3 1_555 1_555
C43_3 C42_3 1_555 1_555
C44_3 C39_3 1_555 1_555
C45_3 C42_3 1_555 1_555
C46_3 C47_3 1_555 1_555
C47_3 C48_3 1_555 1_555
C52_3 C47_3 1_555 1_555
O5_2 C45_3 1_555 1_555
O6_2 C45_3 1_555 1_555
O7_2 C46_3 1_555 1_555
O8_3 C46_3 1_555 1_555
Zn3_2 O6_2 1_555 1_555
Zn5_2 O5_2 1_555 1_555
Zn7_2 O7_2 1_555 1_555
C11_3 C12_3 1_555 1_555
C17_3 C18_3 1_555 1_555
C37_3 C38_3 1_555 1_555
C43_3 C44_3 1_555 1_555
C14_3 H1_3 1_555 1_555
C9_3 H2_3 1_555 1_555
C8_3 H3_3 1_555 1_555
C2_3 H4_3 1_555 1_555
C4_3 H5_3 1_555 1_555
C6_3 H6_3 1_555 1_555
C11_3 H7_3 1_555 1_555
C12_3 H8_3 1_555 1_555
C21_3 H10_3 1_555 1_555
C17_3 H11_3 1_555 1_555
C34_3 H12_3 1_555 1_555
C41_3 H13_3 1_555 1_555
C43_3 H14_3 1_555 1_555
C25_3 H17_3 1_555 1_555
C35_3 H21_3 1_555 1_555
C15_3 H22_3 1_555 1_555
C40_3 H23_3 1_555 1_555
C38_3 H24_3 1_555 1_555
C37_3 H25_3 1_555 1_555
C44_3 H26_3 1_555 1_555
C18_3 H27_3 1_555 1_555
C48_3 H29_3 1_555 1_555
C52_3 H30_3 1_555 1_555
Zn3_2 O1_3 1_555 1_555
Zn5_2 O2_3 1_555 1_555
C49_3 C50_3 1_555 1_555
C50_3 C51_3 1_555 1_555
C53_3 C50_3 1_555 1_555
N1_3 C51_3 1_555 1_555
O9_3 C53_3 1_555 1_555
O10_3 Zn3_2 1_555 1_555
O15_2 Zn5_2 1_555 1_555
C53_3 O10_3 1_555 1_555
C49_3 H28_3 1_555 1_555
N1_3 H31_3 1_555 1_555
N1_3 H32_3 1_555 1_555
Zn1 O1_4 1_555 1_555
Zn7_2 O2_4 1_555 1_555
O9_4 C53_4 1_555 1_555
O10_4 Zn1 1_555 1_555
O11_2 Zn7_2 1_555 1_555
O12_2 Zn1 1_555 1_555
O13_2 Zn7_2 1_555 1_555
O14_2 Zn1 1_555 1_555
C53_4 O10_4 1_555 1_555
C1_4 C2_4 1_555 1_555
C2_4 C3_4 1_555 1_555
C3_4 C4_4 1_555 1_555
C4_4 C5_4 1_555 1_555
C5_4 C6_4 1_555 1_555
C6_4 C1_4 1_555 1_555
C7_4 C1_4 1_555 1_555
C8_4 C7_4 1_555 1_555
C9_4 C8_4 1_555 1_555
C10_4 C9_4 1_555 1_555
C11_4 C10_4 1_555 1_555
C12_4 C7_4 1_555 1_555
C13_4 C10_4 1_555 1_555
C14_4 C13_4 1_555 1_555
C15_4 C14_4 1_555 1_555
C16_4 C15_4 1_555 1_555
C17_4 C16_4 1_555 1_555
C18_4 C13_4 1_555 1_555
C19_4 C16_4 1_555 1_555
C20_4 C3_4 1_555 1_555
C21_4 C20_4 1_555 1_555
C25_4 C20_4 1_555 1_555
C33_4 C5_4 1_555 1_555
C34_4 C33_4 1_555 1_555
C35_4 C34_4 1_555 1_555
C36_4 C35_4 1_555 1_555
C37_4 C36_4 1_555 1_555
C38_4 C33_4 1_555 1_555
C39_4 C36_4 1_555 1_555
C40_4 C39_4 1_555 1_555
C41_4 C40_4 1_555 1_555
C42_4 C41_4 1_555 1_555
C43_4 C42_4 1_555 1_555
C44_4 C39_4 1_555 1_555
C45_4 C42_4 1_555 1_555
O13_2 C45_4 1_555 1_555
O14_2 C45_4 1_555 1_555
C11_4 C12_4 1_555 1_555
C17_4 C18_4 1_555 1_555
C37_4 C38_4 1_555 1_555
C43_4 C44_4 1_555 1_555
C14_4 H1_4 1_555 1_555
C9_4 H2_4 1_555 1_555
C8_4 H3_4 1_555 1_555
C2_4 H4_4 1_555 1_555
C4_4 H5_4 1_555 1_555
C6_4 H6_4 1_555 1_555
C11_4 H7_4 1_555 1_555
C12_4 H8_4 1_555 1_555
C21_4 H10_4 1_555 1_555
C17_4 H11_4 1_555 1_555
C34_4 H12_4 1_555 1_555
C41_4 H13_4 1_555 1_555
C43_4 H14_4 1_555 1_555
C25_4 H17_4 1_555 1_555
C35_4 H21_4 1_555 1_555
C15_4 H22_4 1_555 1_555
C40_4 H23_4 1_555 1_555
C38_4 H24_4 1_555 1_555
C37_4 H25_4 1_555 1_555
C44_4 H26_4 1_555 1_555
C18_4 H27_4 1_555 1_555
C46_4 C47_4 1_555 1_555
C47_4 C48_4 1_555 1_555
C52_4 C47_4 1_555 1_555
O15_2 C46_4 1_555 1_555
O8_4 C46_4 1_555 1_555
C48_4 H29_4 1_555 1_555
C52_4 H30_4 1_555 1_555
C23_4 C22_4 1_555 1_555
C24_4 C23_4 1_555 1_555
C26_4 C23_4 1_555 1_555
C27_4 C26_4 1_555 1_555
C28_4 C27_4 1_555 1_555
C29_4 C28_4 1_555 1_555
C30_4 C29_4 1_555 1_555
C31_4 C26_4 1_555 1_555
C32_4 C29_4 1_555 1_555
O11_2 C32_4 1_555 1_555
O12_2 C32_4 1_555 1_555
C30_4 C31_4 1_555 1_555
C22_4 H9_4 1_555 1_555
C27_4 H15_4 1_555 1_555
C24_4 H16_4 1_555 1_555
C31_4 H18_4 1_555 1_555
C28_4 H19_4 1_555 1_555
C30_4 H20_4 1_555 1_555
C36_5 C35_5 1_555 1_555
C37_5 C36_5 1_555 1_555
C39_5 C36_5 1_555 1_555
C40_5 C39_5 1_555 1_555
C41_5 C40_5 1_555 1_555
C42_5 C41_5 1_555 1_555
C43_5 C42_5 1_555 1_555
C44_5 C39_5 1_555 1_555
C45_5 C42_5 1_555 1_555
O5_3 C45_5 1_555 1_555
O6_3 C45_5 1_555 1_555
Zn4_2 O6_3 1_555 1_555
Zn6 O5_3 1_555 1_555
C43_5 C44_5 1_555 1_555
C41_5 H13_5 1_555 1_555
C43_5 H14_5 1_555 1_555
C35_5 H21_5 1_555 1_555
C40_5 H23_5 1_555 1_555
C37_5 H25_5 1_555 1_555
C44_5 H26_5 1_555 1_555
C1_5 C2_5 1_555 1_555
C2_5 C3_5 1_555 1_555
C3_5 C4_5 1_555 1_555
C4_5 C5_5 1_555 1_555
C5_5 C6_5 1_555 1_555
C6_5 C1_5 1_555 1_555
C7_5 C1_5 1_555 1_555
C8_5 C7_5 1_555 1_555
C9_5 C8_5 1_555 1_555
C10_5 C9_5 1_555 1_555
C11_5 C10_5 1_555 1_555
C12_5 C7_5 1_555 1_555
C13_5 C10_5 1_555 1_555
C14_5 C13_5 1_555 1_555
C15_5 C14_5 1_555 1_555
C16_5 C15_5 1_555 1_555
C17_5 C16_5 1_555 1_555
C18_5 C13_5 1_555 1_555
C19_5 C16_5 1_555 1_555
C20_5 C3_5 1_555 1_555
C21_5 C20_5 1_555 1_555
C22_5 C21_5 1_555 1_555
C23_5 C22_5 1_555 1_555
C24_5 C23_5 1_555 1_555
C25_5 C20_5 1_555 1_555
C26_5 C23_5 1_555 1_555
C27_5 C26_5 1_555 1_555
C28_5 C27_5 1_555 1_555
C29_5 C28_5 1_555 1_555
C30_5 C29_5 1_555 1_555
C31_5 C26_5 1_555 1_555
C32_5 C29_5 1_555 1_555
C33_5 C5_5 1_555 1_555
C34_5 C33_5 1_555 1_555
C38_5 C33_5 1_555 1_555
C46_5 C47_5 1_555 1_555
C47_5 C48_5 1_555 1_555
C52_5 C47_5 1_555 1_555
O3_3 C32_5 1_555 1_555
O4_3 C32_5 1_555 1_555
O7_3 C46_5 1_555 1_555
O8_5 C46_5 1_555 1_555
Zn4_2 O4_3 1_555 1_555
Zn6 O3_3 1_555 1_555
Zn7_3 O7_3 1_555 1_555
C11_5 C12_5 1_555 1_555
C17_5 C18_5 1_555 1_555
C24_5 C25_5 1_555 1_555
C30_5 C31_5 1_555 1_555
C14_5 H1_5 1_555 1_555
C9_5 H2_5 1_555 1_555
C8_5 H3_5 1_555 1_555
C2_5 H4_5 1_555 1_555
C4_5 H5_5 1_555 1_555
C6_5 H6_5 1_555 1_555
C11_5 H7_5 1_555 1_555
C12_5 H8_5 1_555 1_555
C22_5 H9_5 1_555 1_555
C21_5 H10_5 1_555 1_555
C17_5 H11_5 1_555 1_555
C34_5 H12_5 1_555 1_555
C27_5 H15_5 1_555 1_555
C24_5 H16_5 1_555 1_555
C25_5 H17_5 1_555 1_555
C31_5 H18_5 1_555 1_555
C28_5 H19_5 1_555 1_555
C30_5 H20_5 1_555 1_555
C15_5 H22_5 1_555 1_555
C38_5 H24_5 1_555 1_555
C18_5 H27_5 1_555 1_555
C48_5 H29_5 1_555 1_555
C52_5 H30_5 1_555 1_555
Zn4_2 O1_5 1_555 1_555
Zn6 O2_5 1_555 1_555
C49_4 C50_4 1_555 1_555
C50_4 C51_4 1_555 1_555
C53_5 C50_4 1_555 1_555
N1_4 C51_4 1_555 1_555
O9_5 C53_5 1_555 1_555
O10_5 Zn4_2 1_555 1_555
O15_3 Zn6 1_555 1_555
C53_5 O10_5 1_555 1_555
C49_4 H28_4 1_555 1_555
N1_4 H31_4 1_555 1_555
N1_4 H32_5 1_555 1_555
Zn1_2 O1_6 1_555 1_555
Zn7_3 O2_6 1_555 1_555
C49_5 C50_5 1_555 1_555
C50_5 C51_5 1_555 1_555
C53_6 C50_5 1_555 1_555
N1_5 C51_5 1_555 1_555
O9_6 C53_6 1_555 1_555
O10_6 Zn1_2 1_555 1_555
O11_3 Zn7_3 1_555 1_555
O12_3 Zn1_2 1_555 1_555
O13_3 Zn7_3 1_555 1_555
O14_3 Zn1_2 1_555 1_555
C53_6 O10_6 1_555 1_555
C49_5 H28_5 1_555 1_555
N1_5 H31_5 1_555 1_555
N1_5 H32_6 1_555 1_555
C1_6 C2_6 1_555 1_555
C2_6 C3_6 1_555 1_555
C3_6 C4_6 1_555 1_555
C4_6 C5_6 1_555 1_555
C5_6 C6_6 1_555 1_555
C6_6 C1_6 1_555 1_555
C7_6 C1_6 1_555 1_555
C8_6 C7_6 1_555 1_555
C9_6 C8_6 1_555 1_555
C10_6 C9_6 1_555 1_555
C11_6 C10_6 1_555 1_555
C12_6 C7_6 1_555 1_555
C13_6 C10_6 1_555 1_555
C14_6 C13_6 1_555 1_555
C15_6 C14_6 1_555 1_555
C16_6 C15_6 1_555 1_555
C17_6 C16_6 1_555 1_555
C18_6 C13_6 1_555 1_555
C19_6 C16_6 1_555 1_555
C20_6 C3_6 1_555 1_555
C21_6 C20_6 1_555 1_555
C22_6 C21_6 1_555 1_555
C23_6 C22_6 1_555 1_555
C24_6 C23_6 1_555 1_555
C25_6 C20_6 1_555 1_555
C26_6 C23_6 1_555 1_555
C27_6 C26_6 1_555 1_555
C28_6 C27_6 1_555 1_555
C29_6 C28_6 1_555 1_555
C30_6 C29_6 1_555 1_555
C31_6 C26_6 1_555 1_555
C32_6 C29_6 1_555 1_555
C33_6 C5_6 1_555 1_555
C34_6 C33_6 1_555 1_555
C38_6 C33_6 1_555 1_555
C47_6 C48_6 1_555 1_555
C52_6 C47_6 1_555 1_555
O11_3 C32_6 1_555 1_555
O12_3 C32_6 1_555 1_555
C11_6 C12_6 1_555 1_555
C17_6 C18_6 1_555 1_555
C24_6 C25_6 1_555 1_555
C30_6 C31_6 1_555 1_555
C14_6 H1_6 1_555 1_555
C9_6 H2_6 1_555 1_555
C8_6 H3_6 1_555 1_555
C2_6 H4_6 1_555 1_555
C4_6 H5_6 1_555 1_555
C6_6 H6_6 1_555 1_555
C11_6 H7_6 1_555 1_555
C12_6 H8_6 1_555 1_555
C22_6 H9_6 1_555 1_555
C21_6 H10_6 1_555 1_555
C17_6 H11_6 1_555 1_555
C34_6 H12_6 1_555 1_555
C27_6 H15_6 1_555 1_555
C24_6 H16_6 1_555 1_555
C25_6 H17_6 1_555 1_555
C31_6 H18_6 1_555 1_555
C28_6 H19_6 1_555 1_555
C30_6 H20_6 1_555 1_555
C15_6 H22_6 1_555 1_555
C38_6 H24_6 1_555 1_555
C18_6 H27_6 1_555 1_555
C48_6 H29_6 1_555 1_555
C52_6 H30_6 1_555 1_555
O15_3 C46_6 1_555 1_555
O8_6 C46_6 1_555 1_555
C36_6 C35_6 1_555 1_555
C37_6 C36_6 1_555 1_555
C39_6 C36_6 1_555 1_555
C40_6 C39_6 1_555 1_555
C41_6 C40_6 1_555 1_555
C42_6 C41_6 1_555 1_555
C43_6 C42_6 1_555 1_555
C44_6 C39_6 1_555 1_555
C45_6 C42_6 1_555 1_555
O13_3 C45_6 1_555 1_555
O14_3 C45_6 1_555 1_555
C43_6 C44_6 1_555 1_555
C41_6 H13_6 1_555 1_555
C43_6 H14_6 1_555 1_555
C35_6 H21_6 1_555 1_555
C40_6 H23_6 1_555 1_555
C37_6 H25_6 1_555 1_555
C44_6 H26_6 1_555 1_555
C49_6 C50_6 1_555 1_555
C50_6 C51_6 1_555 1_555
N1_6 C51_6 1_555 1_555
C49_6 H28_6 1_555 1_555
N1_6 H31_6 1_555 1_555

#END
