
###############################################################################
#
# This file contains modified crystal structure data generated from the
# MOF subset of the Cambridge Structural Database (CSD) v543 
# hosted by the Cambridge Crystallographic Data Centre (CCDC).
#
# This work is licensed under the Creative Commons
# Attribution-NonCommercial-ShareAlike 4.0 International License.
# To view a copy of this license, visit
# http://creativecommons.org/licenses/by-nc-sa/4.0/
# or send a letter to
# Creative Commons, PO Box 1866, Mountain View, CA 94042, USA.
#
# CIF created using the CSD Python API on 29 September 2022
# The structure has been converted into the P1 space group
# The structure has a 3D framework
# The original CSD entry ZEGVOZ is in the rhombohedral crystal system
# The framework has been calculated to contain at least 10.0% void space
# The void calculation uses a probe of radius 1.32A, grid spacing 0.4
#
###############################################################################

data_ZEGVOZ
_chemical_formula_moiety         '(C432 H432 Ag56 F144 N80 O144)n'
_symmetry_cell_setting           triclinic
_symmetry_space_group_name_H-M   'P 1'
_symmetry_Int_Tables_number      1
_space_group_name_Hall           'P 1'
loop_
_symmetry_equiv_pos_site_id
_symmetry_equiv_pos_as_xyz
1 x,y,z
_cell_length_a                   25.1849(4)
_cell_length_b                   25.1849(4)
_cell_length_c                   33.2733(7)
_cell_angle_alpha                90
_cell_angle_beta                 90
_cell_angle_gamma                120
_cell_volume                     18277.1
loop_
_atom_site_label
_atom_site_type_symbol
_atom_site_fract_x
_atom_site_fract_y
_atom_site_fract_z
Ag1 Ag 0.36075(2) 0.02742(2) 0.0833
F1 F 0.38497(10) 0.22711(9) 0.00144(6)
F2 F 0.40283(9) 0.23747(9) 0.06543(6)
F3 F 0.26333(9) 0.15044(9) 0.01580(6)
F4 F 0.28102(10) 0.15074(9) 0.07932(6)
C1 C 0.36548(15) 0.19758(13) 0.03714(9)
N2 N 0.45223(11) 0.01136(12) 0.00044(8)
O1 O 0.36177(14) 0.11333(12) 0.00402(8)
O2 O 0.38355(12) 0.12482(11) 0.06917(8)
C2 C 0.30101(15) 0.18565(14) 0.04579(9)
C3 C 0.37131(14) 0.13939(14) 0.03684(10)
H1 H 0.2619 0.0314 0.0752
H2 H 0.1908 0.0006 0.0809
H3 H 0.2180 0.0008 0.0385
O3 O 0.27726(15) 0.25166(14) 0.08274(8)
C6 C 0.29506(15) 0.24375(15) 0.05020(11)
O4 O 0.30772(14) 0.27460(12) 0.01936(9)
C9 C 0.50969(15) 0.05744(14) 0.00542(9)
C10 C 0.51923(18) 0.12080(17) 0.01107(13)
H8 H 0.5566 0.1454 0.0257
H9 H 0.4854 0.1185 0.0258
Ag3 Ag 0.25841(2) 0.3333 0.0833
C17 C 0.62381(16) 0.09534(16) 0.01034(12)
H19 H 0.6507 0.0804 0.0026
H21 H 0.6307 0.1075 0.0381
C18 C 0.55858(14) 0.04562(14) 0.00475(9)
Ag4 Ag 0.36662(2) 0.04389(2) 0.17350(2)
F5 F 0.56044(9) 0.05164(10) 0.16523(6)
F6 F 0.57080(9) 0.06950(9) 0.10124(6)
C21 C 0.53091(13) 0.03215(15) 0.12953(9)
O5 O 0.44666(12) 0.02844(14) 0.16265(8)
O6 O 0.45815(11) 0.05022(12) 0.09750(8)
C23 C 0.47272(14) 0.03798(14) 0.12983(10)
Ag6 Ag 0.34393(3) 0.37722(2) 0.00683(2)
Ag7 Ag 0.71055(2) 0.01060(3) 0.15984(2)
Ag8 Ag 0.30004(2) 0.28945(2) 0.15984(2)
N5 N 0.34469(12) 0.11890(11) 0.16623(8)
O9 O 0.35893(21) 0.41501(14) 0.08393(8)
O10 O 0.38941(15) 0.08167(14) 0.25059(8)
N6 N 0.16998(14) 0.33334(20) 0.0833
Ag2 Ag 0.37722(2) 0.03329(2) 0.99317(2)
H7 H 0.5218 0.1391 0.9853
H20 H 0.6318 0.1300 0.9940
O11 O 0.41501(14) 0.05607(15) 0.91607(8)
N1 N 0.27229(14) 0.93895(14) 0.0833
C4 C 0.22283(17) 0.99814(16) 0.06688(12)
H5 H 0.3682 0.8700 0.0060
C7 C 0.21940(14) 0.93807(14) 0.07643(9)
C11 C 0.16405(14) 0.88309(15) 0.07775(9)
C12 C 0.10314(16) 0.87992(19) 0.07329(13)
H10 H 0.0908 0.8881 0.0988
H11 H 0.0731 0.8397 0.0643
H12 H 0.1067 0.9099 0.0540
N3 N 0.16336(14) 0.83002(14) 0.0833
C13 C 0.33147(16) 0.88950(17) 0.09979(12)
H13 H 0.3647 0.9286 0.0915
H14 H 0.3339 0.8575 0.0858
H15 H 0.3341 0.8847 0.1282
C14 C 0.27140(14) 0.88607(14) 0.09024(9)
C15 C 0.21642(15) 0.83072(14) 0.08892(9)
C16 C 0.21325(19) 0.76981(16) 0.09338(13)
H16 H 0.2214 0.7575 0.0679
H17 H 0.1730 0.7398 0.1024
H18 H 0.2432 0.7734 0.1127
H22 H 0.4782 0.8609 0.0147
F7 F 0.48377(9) 0.93000(9) 0.15087(6)
F8 F 0.48407(9) 0.94769(10) 0.08735(6)
C22 C 0.51898(14) 0.96768(15) 0.12088(9)
O7 O 0.58499(14) 0.94393(15) 0.08393(8)
C24 C 0.57708(15) 0.96173(15) 0.11647(11)
O8 O 0.60793(12) 0.97439(14) 0.14731(9)
Ag5 Ag 0.62278(2) 0.96671(2) 0.00683(2)
O13 O 0.30021(18) 0.94127(12) 0.18603(9)
Ag9 Ag 0.6667 0.92511(2) 0.0833
Ag10 Ag 0.07489(2) 0.74159(2) 0.0833
C5 C 0.37619(16) 0.90466(16) 0.98966(12)
H4 H 0.3493 0.9196 0.9974
H6 H 0.3693 0.8925 0.9619
C8 C 0.44142(14) 0.95438(14) 0.99525(9)
N4 N 0.54777(11) 0.98864(12) 0.99956(8)
C19 C 0.49031(15) 0.94256(14) 0.99458(9)
C20 C 0.48077(18) 0.87920(17) 0.98893(13)
H23 H 0.4434 0.8546 0.9743
H24 H 0.5146 0.8815 0.9742
O12 O 0.27460(12) 0.96688(18) 0.98064(9)
N1_2 N 0.06105(14) 0.33334(20) 0.0833
C4_2 C 0.00186(16) 0.22469(23) 0.06688(12)
H5_2 H 0.1300 0.4982 0.0060
C7_2 C 0.06193(14) 0.28133(20) 0.07643(9)
C11_2 C 0.11691(15) 0.28096(21) 0.07775(9)
C12_2 C 0.12008(19) 0.22322(25) 0.07329(13)
H10_2 H 0.1119 0.2027 0.0988
H11_2 H 0.1603 0.2334 0.0643
H12_2 H 0.0901 0.1968 0.0540
C13_2 C 0.11050(17) 0.44198(23) 0.09979(12)
H13_2 H 0.0714 0.4362 0.0915
H14_2 H 0.1425 0.4765 0.0858
H15_2 H 0.1153 0.4495 0.1282
C14_2 C 0.11393(14) 0.38534(20) 0.09024(9)
C15_2 C 0.16928(14) 0.38571(21) 0.08892(9)
C16_2 C 0.23019(16) 0.44345(25) 0.09338(13)
H16_2 H 0.2425 0.4640 0.0679
H17_2 H 0.2602 0.4333 0.1024
H18_2 H 0.2266 0.4699 0.1127
H22_2 H 0.1391 0.6173 0.0147
F7_2 F 0.07000(9) 0.55378(13) 0.15087(6)
F8_2 F 0.05231(10) 0.53639(13) 0.08735(6)
C22_2 C 0.03232(15) 0.55131(21) 0.12088(9)
O7_2 O 0.05607(15) 0.64107(21) 0.08393(8)
C24_2 C 0.03827(15) 0.61536(21) 0.11647(11)
O8_2 O 0.02561(14) 0.63355(18) 0.14731(9)
Ag5_2 Ag 0.03329(2) 0.65607(3) 0.00683(2)
O13_2 O 0.05873(12) 0.35895(22) 0.18603(9)
C5_2 C 0.09534(16) 0.47153(23) 0.98966(12)
H4_2 H 0.0804 0.4297 0.9974
H6_2 H 0.1075 0.4768 0.9619
C8_2 C 0.04562(14) 0.48704(20) 0.99525(9)
N4_2 N 0.01136(12) 0.55913(16) 0.99956(8)
C19_2 C 0.05744(14) 0.54775(21) 0.99458(9)
C20_2 C 0.12080(17) 0.60157(25) 0.98893(13)
H23_2 H 0.1454 0.5888 0.9743
H24_2 H 0.1185 0.6331 0.9742
O12_2 O 0.03312(18) 0.30772(22) 0.98064(9)
Ag1_2 Ag 0.97258(2) 0.33333(3) 0.0833
F1_2 F 0.77289(9) 0.15786(13) 0.00144(6)
F2_2 F 0.76253(9) 0.16536(13) 0.06543(6)
F3_2 F 0.84956(9) 0.11289(13) 0.01580(6)
F4_2 F 0.84926(9) 0.13028(13) 0.07932(6)
C1_2 C 0.80242(13) 0.16790(20) 0.03714(9)
N2_2 N 0.98864(12) 0.44087(16) 0.00044(8)
O1_2 O 0.88667(12) 0.24844(18) 0.00402(8)
O2_2 O 0.87518(11) 0.25873(16) 0.06917(8)
C2_2 C 0.81435(14) 0.11536(21) 0.04579(9)
C3_2 C 0.86061(14) 0.23192(20) 0.03684(10)
H1_2 H 0.9686 0.2305 0.0752
H2_2 H 0.9994 0.1902 0.0809
H3_2 H 0.9992 0.2172 0.0385
O3_2 O 0.74834(14) 0.02560(21) 0.08274(8)
C6_2 C 0.75625(15) 0.05131(21) 0.05020(11)
O4_2 O 0.72540(12) 0.03312(18) 0.01936(9)
C9_2 C 0.94256(14) 0.45225(21) 0.00542(9)
C10_2 C 0.87920(17) 0.39843(25) 0.01107(13)
H8_2 H 0.8546 0.4112 0.0257
H9_2 H 0.8815 0.3669 0.0258
C17_2 C 0.90466(16) 0.52847(23) 0.01034(12)
H19_2 H 0.9196 0.5703 0.0026
H21_2 H 0.8925 0.5232 0.0381
C18_2 C 0.95438(14) 0.51296(20) 0.00475(9)
Ag4_2 Ag 0.95611(2) 0.32274(3) 0.17350(2)
F5_2 F 0.94836(10) 0.50881(13) 0.16523(6)
F6_2 F 0.93050(9) 0.50131(13) 0.10124(6)
C21_2 C 0.96785(15) 0.49877(20) 0.12953(9)
O5_2 O 0.97156(14) 0.41823(18) 0.16265(8)
O6_2 O 0.94978(12) 0.40794(16) 0.09750(8)
C23_2 C 0.96202(14) 0.43475(20) 0.12983(10)
Ag7_2 Ag 0.98940(3) 0.69996(4) 0.15984(2)
N5_2 N 0.88110(11) 0.22580(16) 0.16623(8)
O10_2 O 0.91833(14) 0.30773(21) 0.25059(8)
Ag2_2 Ag 0.96671(2) 0.34393(3) 0.99317(2)
H7_2 H 0.8609 0.3827 0.9853
H20_2 H 0.8700 0.5018 0.9940
O11_2 O 0.94393(15) 0.35893(21) 0.91607(8)
N6_2 N 0.66666(20) 0.83664(24) 0.0833
Ag1_3 Ag 0.66667(3) 0.63925(2) 0.0833
N1_3 N 0.66666(20) 0.72771(14) 0.0833
F1_3 F 0.84214(13) 0.61503(10) 0.00144(6)
F2_3 F 0.83464(13) 0.59717(9) 0.06543(6)
F3_3 F 0.88711(13) 0.73667(9) 0.01580(6)
F4_3 F 0.86972(13) 0.71898(10) 0.07932(6)
C1_3 C 0.83210(20) 0.63452(15) 0.03714(9)
N2_3 N 0.55913(16) 0.54777(11) 0.00044(8)
O1_3 O 0.75156(18) 0.63823(14) 0.00402(8)
O2_3 O 0.74127(16) 0.61645(12) 0.06917(8)
C2_3 C 0.88464(21) 0.69899(15) 0.04579(9)
C3_3 C 0.76808(20) 0.62869(14) 0.03684(10)
C4_3 C 0.77531(23) 0.77717(17) 0.06688(12)
H1_3 H 0.7695 0.7381 0.0752
H2_3 H 0.8098 0.8092 0.0809
H3_3 H 0.7828 0.7820 0.0385
H5_3 H 0.5018 0.6318 0.0060
O3_3 O 0.97440(21) 0.72274(15) 0.08274(8)
C6_3 C 0.94869(21) 0.70494(15) 0.05020(11)
O4_3 O 0.96688(18) 0.69228(14) 0.01936(9)
C7_3 C 0.71867(20) 0.78060(14) 0.07643(9)
C9_3 C 0.54775(21) 0.49031(15) 0.00542(9)
C10_3 C 0.60157(25) 0.48077(18) 0.01107(13)
H8_3 H 0.5888 0.4434 0.0257
H9_3 H 0.6331 0.5146 0.0258
C11_3 C 0.71904(21) 0.83595(14) 0.07775(9)
C12_3 C 0.77678(25) 0.89686(16) 0.07329(13)
H10_3 H 0.7973 0.9092 0.0988
H11_3 H 0.7666 0.9269 0.0643
H12_3 H 0.8032 0.8933 0.0540
C13_3 C 0.55802(23) 0.66853(16) 0.09979(12)
H13_3 H 0.5638 0.6353 0.0915
H14_3 H 0.5235 0.6661 0.0858
H15_3 H 0.5505 0.6659 0.1282
C14_3 C 0.61466(20) 0.72860(14) 0.09024(9)
C15_3 C 0.61429(21) 0.78358(15) 0.08892(9)
C16_3 C 0.55655(25) 0.78675(19) 0.09338(13)
H16_3 H 0.5360 0.7786 0.0679
H17_3 H 0.5667 0.8270 0.1024
H18_3 H 0.5301 0.7568 0.1127
C17_3 C 0.47153(23) 0.37619(16) 0.01034(12)
H19_3 H 0.4297 0.3493 0.0026
H21_3 H 0.4768 0.3693 0.0381
C18_3 C 0.48704(20) 0.44142(14) 0.00475(9)
H22_3 H 0.3827 0.5218 0.0147
Ag4_3 Ag 0.67726(3) 0.63338(2) 0.17350(2)
F5_3 F 0.49119(13) 0.43956(9) 0.16523(6)
F6_3 F 0.49869(13) 0.42920(9) 0.10124(6)
F7_3 F 0.44622(13) 0.51623(9) 0.15087(6)
F8_3 F 0.46361(13) 0.51593(9) 0.08735(6)
C21_3 C 0.50123(20) 0.46909(13) 0.12953(9)
O5_3 O 0.58177(18) 0.55334(12) 0.16265(8)
O6_3 O 0.59206(16) 0.54185(11) 0.09750(8)
C22_3 C 0.44869(21) 0.48102(14) 0.12088(9)
C23_3 C 0.56525(20) 0.52728(14) 0.12983(10)
C24_3 C 0.38464(21) 0.42292(15) 0.11647(11)
O8_3 O 0.36645(18) 0.39207(12) 0.14731(9)
N5_3 N 0.77420(16) 0.65531(12) 0.16623(8)
O10_3 O 0.69227(21) 0.61059(15) 0.25059(8)
O13_3 O 0.64105(22) 0.69979(18) 0.18603(9)
Ag2_3 Ag 0.65607(3) 0.62278(2) 0.99317(2)
C5_3 C 0.52847(23) 0.62381(16) 0.98966(12)
H4_3 H 0.5703 0.6507 0.9974
H6_3 H 0.5232 0.6307 0.9619
C8_3 C 0.51296(20) 0.55858(14) 0.99525(9)
H7_3 H 0.6173 0.4782 0.9853
N4_3 N 0.44087(16) 0.45223(11) 0.99956(8)
H20_3 H 0.4982 0.3682 0.9940
C19_3 C 0.45225(21) 0.50969(15) 0.99458(9)
C20_3 C 0.39843(25) 0.51923(18) 0.98893(13)
H23_3 H 0.4112 0.5566 0.9743
H24_3 H 0.3669 0.4854 0.9742
O11_3 O 0.64107(21) 0.58499(14) 0.91607(8)
O12_3 O 0.69228(22) 0.72540(12) 0.98064(9)
N1_4 N 0.33334(20) 0.06105(14) 0.4167
C4_4 C 0.22469(23) 0.00186(16) 0.43312(12)
C5_4 C 0.47153(23) 0.09534(16) 0.51034(12)
H4_4 H 0.4297 0.0804 0.5026
H5_4 H 0.4982 0.1300 0.4940
H6_4 H 0.4768 0.1075 0.5381
C7_4 C 0.28133(20) 0.06193(14) 0.42357(9)
C8_4 C 0.48704(20) 0.04562(14) 0.50475(9)
C11_4 C 0.28096(21) 0.11691(15) 0.42225(9)
C12_4 C 0.22322(25) 0.12008(19) 0.42671(13)
H10_4 H 0.2027 0.1119 0.4012
H11_4 H 0.2334 0.1603 0.4357
H12_4 H 0.1968 0.0901 0.4460
N3_2 N 0.33334(20) 0.16998(14) 0.4167
C13_4 C 0.44198(23) 0.11050(17) 0.40021(12)
H13_4 H 0.4362 0.0714 0.4085
H14_4 H 0.4765 0.1425 0.4142
H15_4 H 0.4495 0.1153 0.3718
C14_4 C 0.38534(20) 0.11393(14) 0.40976(9)
C15_4 C 0.38571(21) 0.16928(14) 0.41108(9)
C16_4 C 0.44345(25) 0.23019(16) 0.40662(13)
H16_4 H 0.4640 0.2425 0.4321
H17_4 H 0.4333 0.2602 0.3976
H18_4 H 0.4699 0.2266 0.3873
N4_4 N 0.55913(16) 0.01136(12) 0.50044(8)
C19_4 C 0.54775(21) 0.05744(14) 0.50542(9)
C20_4 C 0.60157(25) 0.12080(17) 0.51107(13)
H22_4 H 0.6173 0.1391 0.4853
H23_4 H 0.5888 0.1454 0.5257
H24_4 H 0.6331 0.1185 0.5258
F7_4 F 0.55378(13) 0.07000(9) 0.34913(6)
F8_4 F 0.53639(13) 0.05231(10) 0.41265(6)
C22_4 C 0.55131(21) 0.03232(15) 0.37912(9)
O7_3 O 0.64107(21) 0.05607(15) 0.41607(8)
C24_4 C 0.61536(21) 0.03827(15) 0.38353(11)
O8_4 O 0.63355(18) 0.02561(14) 0.35269(9)
Ag5_3 Ag 0.65607(3) 0.03329(2) 0.49317(2)
O12_4 O 0.30772(22) 0.03312(18) 0.51936(9)
O13_4 O 0.35895(22) 0.05873(12) 0.31397(9)
Ag9_2 Ag 0.74159(2) 0.07489(2) 0.4167
Ag10_2 Ag 0.33330(3) 0.25841(2) 0.4167
Ag1_4 Ag 0.33333(3) 0.97258(2) 0.4167
Ag2_4 Ag 0.34393(3) 0.96671(2) 0.50683(2)
F1_4 F 0.15786(13) 0.77289(9) 0.49856(6)
F2_4 F 0.16536(13) 0.76253(9) 0.43457(6)
F3_4 F 0.11289(13) 0.84956(9) 0.48420(6)
F4_4 F 0.13028(13) 0.84926(9) 0.42068(6)
C1_4 C 0.16790(20) 0.80242(13) 0.46286(9)
N2_4 N 0.44087(16) 0.98864(12) 0.49956(8)
O1_4 O 0.24844(18) 0.88667(12) 0.49598(8)
O2_4 O 0.25873(16) 0.87518(11) 0.43083(8)
C2_4 C 0.11536(21) 0.81435(14) 0.45421(9)
C3_4 C 0.23192(20) 0.86061(14) 0.46316(10)
H1_4 H 0.2305 0.9686 0.4248
H2_4 H 0.1902 0.9994 0.4191
H3_4 H 0.2172 0.9992 0.4615
O3_4 O 0.02560(21) 0.74834(14) 0.41726(8)
C6_4 C 0.05131(21) 0.75625(15) 0.44980(11)
O4_4 O 0.03312(18) 0.72540(12) 0.48064(9)
C9_4 C 0.45225(21) 0.94256(14) 0.49458(9)
C10_4 C 0.39843(25) 0.87920(17) 0.48893(13)
H7_4 H 0.3827 0.8609 0.5147
H8_4 H 0.4112 0.8546 0.4743
H9_4 H 0.3669 0.8815 0.4742
C17_4 C 0.52847(23) 0.90466(16) 0.48966(12)
H19_4 H 0.5703 0.9196 0.4974
H20_4 H 0.5018 0.8700 0.5060
H21_4 H 0.5232 0.8925 0.4619
C18_4 C 0.51296(20) 0.95438(14) 0.49525(9)
Ag4_4 Ag 0.32274(3) 0.95611(2) 0.32650(2)
F5_4 F 0.50881(13) 0.94836(10) 0.33477(6)
F6_4 F 0.50131(13) 0.93050(9) 0.39876(6)
C21_4 C 0.49877(20) 0.96785(15) 0.37047(9)
O5_4 O 0.41823(18) 0.97156(14) 0.33735(8)
O6_4 O 0.40794(16) 0.94978(12) 0.40250(8)
C23_4 C 0.43475(20) 0.96202(14) 0.37017(10)
Ag7_3 Ag 0.69996(4) 0.98940(3) 0.34016(2)
Ag8_2 Ag 0.01060(3) 0.71055(2) 0.34016(2)
N5_4 N 0.22580(16) 0.88110(11) 0.33377(8)
O10_4 O 0.30773(21) 0.91833(14) 0.24941(8)
O11_4 O 0.35893(21) 0.94393(15) 0.58393(8)
Ag3_2 Ag 0.92511(2) 0.6667 0.4167
Ag6_2 Ag 0.96671(4) 0.62278(2) 0.49317(2)
O9_2 O 0.94393(25) 0.58499(14) 0.41607(8)
N6_3 N 0.83664(24) 0.66666(20) 0.4167
N6_4 N 0.83002(14) 0.16336(24) 0.4167
Ag1_5 Ag 0.63925(2) 0.66667(3) 0.4167
Ag2_5 Ag 0.62278(2) 0.65607(3) 0.50683(2)
N1_5 N 0.72771(14) 0.66666(20) 0.4167
F1_5 F 0.61503(10) 0.84214(13) 0.49856(6)
F2_5 F 0.59717(9) 0.83464(13) 0.43457(6)
F3_5 F 0.73667(9) 0.88711(13) 0.48420(6)
F4_5 F 0.71898(10) 0.86972(13) 0.42068(6)
C1_5 C 0.63452(15) 0.83210(20) 0.46286(9)
N2_5 N 0.54777(11) 0.55913(16) 0.49956(8)
O1_5 O 0.63823(14) 0.75156(18) 0.49598(8)
O2_5 O 0.61645(12) 0.74127(16) 0.43083(8)
C2_5 C 0.69899(15) 0.88464(21) 0.45421(9)
C3_5 C 0.62869(14) 0.76808(20) 0.46316(10)
C4_5 C 0.77717(17) 0.77531(23) 0.43312(12)
H1_5 H 0.7381 0.7695 0.4248
H2_5 H 0.8092 0.8098 0.4191
H3_5 H 0.7820 0.7828 0.4615
C5_5 C 0.62381(16) 0.52847(23) 0.51034(12)
H4_5 H 0.6507 0.5703 0.5026
H5_5 H 0.6318 0.5018 0.4940
H6_5 H 0.6307 0.5232 0.5381
O3_5 O 0.72274(15) 0.97440(21) 0.41726(8)
C6_5 C 0.70494(15) 0.94869(21) 0.44980(11)
O4_5 O 0.69228(14) 0.96688(18) 0.48064(9)
C7_5 C 0.78060(14) 0.71867(20) 0.42357(9)
C8_5 C 0.55858(14) 0.51296(20) 0.50475(9)
C9_5 C 0.49031(15) 0.54775(21) 0.49458(9)
C10_5 C 0.48077(18) 0.60157(25) 0.48893(13)
H7_5 H 0.4782 0.6173 0.5147
H8_5 H 0.4434 0.5888 0.4743
H9_5 H 0.5146 0.6331 0.4742
C11_5 C 0.83595(14) 0.71904(21) 0.42225(9)
C12_5 C 0.89686(16) 0.77678(25) 0.42671(13)
H10_5 H 0.9092 0.7973 0.4012
H11_5 H 0.9269 0.7666 0.4357
H12_5 H 0.8933 0.8032 0.4460
C13_5 C 0.66853(16) 0.55802(23) 0.40021(12)
H13_5 H 0.6353 0.5638 0.4085
H14_5 H 0.6661 0.5235 0.4142
H15_5 H 0.6659 0.5505 0.3718
C14_5 C 0.72860(14) 0.61466(20) 0.40976(9)
C15_5 C 0.78358(15) 0.61429(21) 0.41108(9)
C16_5 C 0.78675(19) 0.55655(25) 0.40662(13)
H16_5 H 0.7786 0.5360 0.4321
H17_5 H 0.8270 0.5667 0.3976
H18_5 H 0.7568 0.5301 0.3873
N4_5 N 0.45223(11) 0.44087(16) 0.50044(8)
C17_5 C 0.37619(16) 0.47153(23) 0.48966(12)
H19_5 H 0.3493 0.4297 0.4974
H20_5 H 0.3682 0.4982 0.5060
H21_5 H 0.3693 0.4768 0.4619
C18_5 C 0.44142(14) 0.48704(20) 0.49525(9)
C19_5 C 0.50969(15) 0.45225(21) 0.50542(9)
C20_5 C 0.51923(18) 0.39843(25) 0.51107(13)
H22_5 H 0.5218 0.3827 0.4853
H23_5 H 0.5566 0.4112 0.5257
H24_5 H 0.4854 0.3669 0.5258
Ag4_5 Ag 0.63338(2) 0.67726(3) 0.32650(2)
F5_5 F 0.43956(9) 0.49119(13) 0.33477(6)
F6_5 F 0.42920(9) 0.49869(13) 0.39876(6)
F7_5 F 0.51623(9) 0.44622(13) 0.34913(6)
F8_5 F 0.51593(9) 0.46361(13) 0.41265(6)
C21_5 C 0.46909(13) 0.50123(20) 0.37047(9)
O5_5 O 0.55334(12) 0.58177(18) 0.33735(8)
O6_5 O 0.54185(11) 0.59206(16) 0.40250(8)
C22_5 C 0.48102(14) 0.44869(21) 0.37912(9)
C23_5 C 0.52728(14) 0.56525(20) 0.37017(10)
O7_4 O 0.41501(14) 0.35893(21) 0.41607(8)
C24_5 C 0.42292(15) 0.38464(21) 0.38353(11)
O8_5 O 0.39207(12) 0.36645(18) 0.35269(9)
Ag5_4 Ag 0.37722(2) 0.34393(3) 0.49317(2)
Ag7_4 Ag 0.28945(2) 0.30004(4) 0.34016(2)
N5_5 N 0.65531(12) 0.77420(16) 0.33377(8)
O10_5 O 0.61059(15) 0.69227(21) 0.24941(8)
O11_5 O 0.58499(14) 0.64107(21) 0.58393(8)
O12_5 O 0.72540(12) 0.69228(22) 0.51936(9)
O13_5 O 0.69979(18) 0.64105(22) 0.31397(9)
Ag1_6 Ag 0.02742(2) 0.36075(2) 0.4167
Ag2_6 Ag 0.03329(2) 0.37722(2) 0.50683(2)
F1_6 F 0.22711(9) 0.38497(10) 0.49856(6)
F2_6 F 0.23747(9) 0.40283(9) 0.43457(6)
F3_6 F 0.15044(9) 0.26333(9) 0.48420(6)
F4_6 F 0.15074(9) 0.28102(10) 0.42068(6)
C1_6 C 0.19758(13) 0.36548(15) 0.46286(9)
N2_6 N 0.01136(12) 0.45223(11) 0.49956(8)
O1_6 O 0.11333(12) 0.36177(14) 0.49598(8)
O2_6 O 0.12482(11) 0.38355(12) 0.43083(8)
C2_6 C 0.18565(14) 0.30101(15) 0.45421(9)
C3_6 C 0.13939(14) 0.37131(14) 0.46316(10)
H1_6 H 0.0314 0.2619 0.4248
H2_6 H 0.0006 0.1908 0.4191
H3_6 H 0.0008 0.2180 0.4615
O3_6 O 0.25166(14) 0.27726(15) 0.41726(8)
C6_6 C 0.24375(15) 0.29506(15) 0.44980(11)
O4_6 O 0.27460(12) 0.30772(14) 0.48064(9)
C9_6 C 0.05744(14) 0.50969(15) 0.49458(9)
C10_6 C 0.12080(17) 0.51923(18) 0.48893(13)
H7_6 H 0.1391 0.5218 0.5147
H8_6 H 0.1454 0.5566 0.4743
H9_6 H 0.1185 0.4854 0.4742
C17_6 C 0.09534(16) 0.62381(16) 0.48966(12)
H19_6 H 0.0804 0.6507 0.4974
H20_6 H 0.1300 0.6318 0.5060
H21_6 H 0.1075 0.6307 0.4619
C18_6 C 0.04562(14) 0.55858(14) 0.49525(9)
Ag4_6 Ag 0.04389(2) 0.36662(2) 0.32650(2)
F5_6 F 0.05164(10) 0.56044(9) 0.33477(6)
F6_6 F 0.06950(9) 0.57080(9) 0.39876(6)
C21_6 C 0.03215(15) 0.53091(13) 0.37047(9)
O5_6 O 0.02844(14) 0.44666(12) 0.33735(8)
O6_6 O 0.05022(12) 0.45815(11) 0.40250(8)
C23_6 C 0.03798(14) 0.47272(14) 0.37017(10)
N5_6 N 0.11890(11) 0.34469(12) 0.33377(8)
O10_6 O 0.08167(14) 0.38941(15) 0.24941(8)
O11_6 O 0.05607(15) 0.41501(14) 0.58393(8)
N1_6 N 0.93895(14) 0.27229(14) 0.4167
C4_6 C 0.99814(16) 0.22283(17) 0.43312(12)
C5_6 C 0.90466(16) 0.37619(16) 0.51034(12)
H4_6 H 0.9196 0.3493 0.5026
H5_6 H 0.8700 0.3682 0.4940
H6_6 H 0.8925 0.3693 0.5381
C7_6 C 0.93807(14) 0.21940(14) 0.42357(9)
C8_6 C 0.95438(14) 0.44142(14) 0.50475(9)
C11_6 C 0.88309(15) 0.16405(14) 0.42225(9)
C12_6 C 0.87992(19) 0.10314(16) 0.42671(13)
H10_6 H 0.8881 0.0908 0.4012
H11_6 H 0.8397 0.0731 0.4357
H12_6 H 0.9099 0.1067 0.4460
C13_6 C 0.88950(17) 0.33147(16) 0.40021(12)
H13_6 H 0.9286 0.3647 0.4085
H14_6 H 0.8575 0.3339 0.4142
H15_6 H 0.8847 0.3341 0.3718
C14_6 C 0.88607(14) 0.27140(14) 0.40976(9)
C15_6 C 0.83072(14) 0.21642(15) 0.41108(9)
C16_6 C 0.76981(16) 0.21325(19) 0.40662(13)
H16_6 H 0.7575 0.2214 0.4321
H17_6 H 0.7398 0.1730 0.3976
H18_6 H 0.7734 0.2432 0.3873
N4_6 N 0.98864(12) 0.54777(11) 0.50044(8)
C19_6 C 0.94256(14) 0.49031(15) 0.50542(9)
C20_6 C 0.87920(17) 0.48077(18) 0.51107(13)
H22_6 H 0.8609 0.4782 0.4853
H23_6 H 0.8546 0.4434 0.5257
H24_6 H 0.8815 0.5146 0.5258
F7_6 F 0.93000(9) 0.48377(9) 0.34913(6)
F8_6 F 0.94769(10) 0.48407(9) 0.41265(6)
C22_6 C 0.96768(15) 0.51898(14) 0.37912(9)
C24_6 C 0.96173(15) 0.57708(15) 0.38353(11)
O8_6 O 0.97439(14) 0.60793(12) 0.35269(9)
O12_6 O 0.96688(18) 0.27460(12) 0.51936(9)
O13_6 O 0.94127(12) 0.30021(18) 0.31397(9)
C5_7 C 0.04286(16) 0.23799(16) 0.32299(12)
H4_7 H 0.0160 0.2529 0.3307
H5_7 H 0.0349 0.2033 0.3393
H6_7 H 0.0360 0.2258 0.2952
C8_7 C 0.10809(14) 0.28771(14) 0.32858(9)
C9_7 C 0.17636(15) 0.39077(14) 0.33875(9)
C10_7 C 0.18590(18) 0.45413(17) 0.34440(13)
H7_7 H 0.1885 0.4724 0.3186
H8_7 H 0.2233 0.4787 0.3590
H9_7 H 0.1521 0.4518 0.3591
N4_7 N 0.21444(11) 0.32197(12) 0.33289(8)
C17_7 C 0.29048(16) 0.42867(16) 0.34367(12)
H19_7 H 0.3174 0.4137 0.3359
H20_7 H 0.2985 0.4633 0.3273
H21_7 H 0.2974 0.4408 0.3714
C18_7 C 0.22525(14) 0.37895(14) 0.33808(9)
C19_7 C 0.15698(15) 0.27589(14) 0.32791(9)
C20_7 C 0.14744(18) 0.21253(17) 0.32226(13)
H22_7 H 0.1449 0.1942 0.3480
H23_7 H 0.1101 0.1879 0.3076
H24_7 H 0.1813 0.2148 0.3075
C5_8 C 0.76201(16) 0.80486(23) 0.32299(12)
H4_8 H 0.7471 0.7630 0.3307
H5_8 H 0.7967 0.8315 0.3393
H6_8 H 0.7742 0.8101 0.2952
C8_8 C 0.71229(14) 0.82037(20) 0.32858(9)
C9_8 C 0.60923(14) 0.78558(21) 0.33875(9)
C10_8 C 0.54587(17) 0.73176(25) 0.34440(13)
H7_8 H 0.5276 0.7160 0.3186
H8_8 H 0.5213 0.7445 0.3590
H9_8 H 0.5482 0.7002 0.3591
N4_8 N 0.67803(12) 0.89246(16) 0.33289(8)
C17_8 C 0.57133(16) 0.86180(23) 0.34367(12)
H19_8 H 0.5863 0.9036 0.3359
H20_8 H 0.5367 0.8351 0.3273
H21_8 H 0.5592 0.8565 0.3714
C18_8 C 0.62105(14) 0.84629(20) 0.33808(9)
C19_8 C 0.72411(14) 0.88108(21) 0.32791(9)
C20_8 C 0.78747(17) 0.93490(25) 0.32226(13)
H22_8 H 0.8058 0.9506 0.3480
H23_8 H 0.8121 0.9221 0.3076
H24_8 H 0.7852 0.9664 0.3075
C5_9 C 0.19514(23) 0.95714(16) 0.32299(12)
H4_9 H 0.2370 0.9840 0.3307
H5_9 H 0.1685 0.9651 0.3393
H6_9 H 0.1899 0.9640 0.2952
C8_9 C 0.17963(20) 0.89191(14) 0.32858(9)
C9_9 C 0.21442(21) 0.82364(15) 0.33875(9)
C10_9 C 0.26824(25) 0.81410(18) 0.34440(13)
H7_9 H 0.2840 0.8115 0.3186
H8_9 H 0.2555 0.7767 0.3590
H9_9 H 0.2998 0.8479 0.3591
N4_9 N 0.10754(16) 0.78556(11) 0.33289(8)
C17_9 C 0.13820(23) 0.70952(16) 0.34367(12)
H19_9 H 0.0964 0.6826 0.3359
H20_9 H 0.1649 0.7015 0.3273
H21_9 H 0.1435 0.7026 0.3714
C18_9 C 0.15371(20) 0.77475(14) 0.33808(9)
C19_9 C 0.11892(21) 0.84302(15) 0.32791(9)
C20_9 C 0.06510(25) 0.85256(18) 0.32226(13)
H22_9 H 0.0494 0.8551 0.3480
H23_9 H 0.0779 0.8899 0.3076
H24_9 H 0.0336 0.8187 0.3075
Ag1_7 Ag -0.00000(3) 0.30591(2) 0.7500
Ag2_7 Ag 0.01060(3) 0.30004(2) 0.84016(2)
N1_7 N 0.00001(20) 0.39438(14) 0.7500
N2_7 N 0.10754(16) 0.32197(12) 0.83289(8)
C5_10 C 0.13820(23) 0.42867(16) 0.84367(12)
H4_10 H 0.0964 0.4137 0.8359
H5_10 H 0.1649 0.4633 0.8273
H6_10 H 0.1435 0.4408 0.8714
C8_10 C 0.15371(20) 0.37895(14) 0.83808(9)
C9_10 C 0.11892(21) 0.27589(14) 0.82791(9)
C10_10 C 0.06510(25) 0.21253(17) 0.82226(13)
H7_10 H 0.0494 0.1942 0.8480
H8_10 H 0.0779 0.1879 0.8076
H9_10 H 0.0336 0.2148 0.8075
N3_3 N 0.00001(20) 0.50331(14) 0.7500
C13_7 C 0.10864(23) 0.44384(17) 0.73355(12)
H13_7 H 0.1028 0.4048 0.7419
H14_7 H 0.1431 0.4759 0.7476
H15_7 H 0.1161 0.4487 0.7052
C14_7 C 0.05200(20) 0.44727(14) 0.74310(9)
C15_7 C 0.05237(21) 0.50262(14) 0.74442(9)
C16_7 C 0.11011(25) 0.56353(16) 0.73996(13)
H16_7 H 0.1306 0.5759 0.7655
H17_7 H 0.0999 0.5936 0.7310
H18_7 H 0.1365 0.5600 0.7207
N4_10 N 0.22580(16) 0.34469(12) 0.83377(8)
C17_10 C 0.19514(23) 0.23799(16) 0.82299(12)
H19_10 H 0.2370 0.2529 0.8307
H20_10 H 0.1685 0.2033 0.8393
H21_10 H 0.1899 0.2258 0.7952
C18_10 C 0.17963(20) 0.28771(14) 0.82858(9)
C19_10 C 0.21442(21) 0.39077(14) 0.83875(9)
C20_10 C 0.26824(25) 0.45413(17) 0.84440(13)
H22_10 H 0.2840 0.4724 0.8186
H23_10 H 0.2555 0.4787 0.8590
H24_10 H 0.2998 0.4518 0.8591
F5_7 F 0.17547(13) 0.28170(10) 0.66811(6)
F6_7 F 0.16797(13) 0.26384(9) 0.73210(6)
F7_7 F 0.22044(13) 0.40334(9) 0.68247(6)
F8_7 F 0.20305(13) 0.38565(10) 0.74599(6)
C21_7 C 0.16543(20) 0.30119(15) 0.70381(9)
O5_7 O 0.08489(18) 0.30490(14) 0.67069(8)
O6_7 O 0.07460(16) 0.28312(12) 0.73584(8)
C22_7 C 0.21797(21) 0.36566(15) 0.71246(9)
C23_7 C 0.10141(20) 0.29536(14) 0.70351(10)
O7_5 O 0.30773(21) 0.38941(15) 0.74941(8)
C24_7 C 0.28202(21) 0.37161(15) 0.71687(11)
O8_7 O 0.30021(18) 0.35895(14) 0.68603(9)
Ag5_5 Ag 0.32274(3) 0.36662(2) 0.82650(2)
Ag7_5 Ag 0.36662(4) 0.32274(3) 0.67350(2)
O11_7 O 0.02560(21) 0.27726(15) 0.91726(8)
O13_7 O 0.02561(22) 0.39207(12) 0.64731(9)
Ag9_3 Ag 0.40826(2) 0.40822(2) 0.7500
Ag10_3 Ag -0.00003(3) 0.59174(2) 0.7500
Ag1_8 Ag 1.00000(3) 0.30591(2) 0.7500
N1_8 N 1.00001(20) 0.39438(14) 0.7500
F1_7 F 0.82453(13) 0.10622(9) 0.83189(6)
F2_7 F 0.83203(13) 0.09586(9) 0.76790(6)
F3_7 F 0.77956(13) 0.18289(9) 0.81753(6)
F4_7 F 0.79695(13) 0.18259(9) 0.75401(6)
C1_7 C 0.83457(20) 0.13575(13) 0.79619(9)
O1_7 O 0.91511(18) 0.22000(12) 0.82931(8)
O2_7 O 0.92540(16) 0.20851(11) 0.76416(8)
C2_7 C 0.78203(21) 0.14768(14) 0.78754(9)
C3_7 C 0.89859(20) 0.19394(14) 0.79649(10)
C4_7 C 0.89136(23) 0.33519(16) 0.76645(12)
H1_7 H 0.8972 0.3019 0.7581
H2_7 H 0.8569 0.3327 0.7524
H3_7 H 0.8839 0.3325 0.7948
O3_7 O 0.69227(21) 0.08167(14) 0.75059(8)
C6_7 C 0.71798(21) 0.08958(15) 0.78313(11)
O4_7 O 0.69979(18) 0.05873(12) 0.81397(9)
C7_7 C 0.94800(20) 0.39526(14) 0.75690(9)
C11_7 C 0.94763(21) 0.45024(15) 0.75558(9)
C12_7 C 0.88989(25) 0.45341(19) 0.76004(13)
H10_7 H 0.8694 0.4452 0.7345
H11_7 H 0.9001 0.4936 0.7690
H12_7 H 0.8635 0.4234 0.7793
N3_4 N 1.00001(20) 0.50331(14) 0.7500
Ag3_3 Ag 0.59178(2) 0.0000 0.7500
Ag4_7 Ag 0.98940(3) 0.28945(2) 0.65984(2)
Ag8_3 Ag 0.67726(3) 0.04389(2) 0.67350(2)
N5_7 N 0.89246(16) 0.21444(11) 0.66711(8)
O10_7 O 0.97440(21) 0.25166(14) 0.58274(8)
O12_7 O 0.97439(22) 0.36645(18) 0.85269(9)
N6_5 N 0.50331(24) -0.00001(20) 0.7500
Ag10_4 Ag 0.99997(3) 0.59174(2) 0.7500
Ag3_4 Ag 0.59178(2) 1.0000 0.7500
Ag6_3 Ag 0.63338(4) 0.95611(2) 0.82650(2)
O9_3 O 0.61059(25) 0.91833(14) 0.74941(8)
N6_6 N 0.50331(24) 0.99999(20) 0.7500
Ag1_9 Ag 0.30592(2) 0.00000(3) 0.7500
N1_9 N 0.39438(14) -0.00001(20) 0.7500
F1_8 F 0.28170(10) 0.17547(13) 0.83189(6)
F2_8 F 0.26384(9) 0.16797(13) 0.76790(6)
F3_8 F 0.40334(9) 0.22044(13) 0.81753(6)
F4_8 F 0.38565(10) 0.20305(13) 0.75401(6)
C1_8 C 0.30119(15) 0.16543(20) 0.79619(9)
O1_8 O 0.30490(14) 0.08489(18) 0.82931(8)
O2_8 O 0.28312(12) 0.07460(16) 0.76416(8)
C2_8 C 0.36566(15) 0.21797(21) 0.78754(9)
C3_8 C 0.29536(14) 0.10141(20) 0.79649(10)
C4_8 C 0.44384(17) 0.10864(23) 0.76645(12)
H1_8 H 0.4048 0.1028 0.7581
H2_8 H 0.4759 0.1431 0.7524
H3_8 H 0.4487 0.1161 0.7948
O3_8 O 0.38941(15) 0.30773(21) 0.75059(8)
C6_8 C 0.37161(15) 0.28202(21) 0.78313(11)
O4_8 O 0.35895(14) 0.30021(18) 0.81397(9)
C7_8 C 0.44727(14) 0.05200(20) 0.75690(9)
C11_8 C 0.50262(14) 0.05237(21) 0.75558(9)
C12_8 C 0.56353(16) 0.11011(25) 0.76004(13)
H10_8 H 0.5759 0.1306 0.7345
H11_8 H 0.5936 0.0999 0.7690
H12_8 H 0.5600 0.1365 0.7793
Ag4_8 Ag 0.30004(2) 0.01060(3) 0.65984(2)
N5_8 N 0.32197(12) 0.10754(16) 0.66711(8)
O10_8 O 0.27726(15) 0.02560(21) 0.58274(8)
O12_8 O 0.39207(12) 0.02561(22) 0.85269(9)
N6_7 N 0.49669(14) 0.49669(24) 0.7500
Ag1_10 Ag 0.30592(2) 1.00000(3) 0.7500
Ag2_8 Ag 0.28945(2) 0.98940(3) 0.84016(2)
N1_10 N 0.39438(14) 0.99999(20) 0.7500
N2_8 N 0.21444(11) 0.89246(16) 0.83289(8)
C5_11 C 0.29048(16) 0.86180(23) 0.84367(12)
H4_11 H 0.3174 0.9036 0.8359
H5_11 H 0.2985 0.8351 0.8273
H6_11 H 0.2974 0.8565 0.8714
C8_11 C 0.22525(14) 0.84629(20) 0.83808(9)
C9_11 C 0.15698(15) 0.88108(21) 0.82791(9)
C10_11 C 0.14744(18) 0.93490(25) 0.82226(13)
H7_11 H 0.1449 0.9506 0.8480
H8_11 H 0.1101 0.9221 0.8076
H9_11 H 0.1813 0.9664 0.8075
C13_8 C 0.33519(16) 0.89136(23) 0.73355(12)
H13_8 H 0.3019 0.8972 0.7419
H14_8 H 0.3327 0.8569 0.7476
H15_8 H 0.3325 0.8839 0.7052
C14_8 C 0.39526(14) 0.94800(20) 0.74310(9)
C15_8 C 0.45024(15) 0.94763(21) 0.74442(9)
C16_8 C 0.45341(19) 0.88989(25) 0.73996(13)
H16_8 H 0.4452 0.8694 0.7655
H17_8 H 0.4936 0.9001 0.7310
H18_8 H 0.4234 0.8635 0.7207
N4_11 N 0.11890(11) 0.77420(16) 0.83377(8)
C17_11 C 0.04286(16) 0.80486(23) 0.82299(12)
H19_11 H 0.0160 0.7630 0.8307
H20_11 H 0.0349 0.8315 0.8393
H21_11 H 0.0360 0.8101 0.7952
C18_11 C 0.10809(14) 0.82037(20) 0.82858(9)
C19_11 C 0.17636(15) 0.78558(21) 0.83875(9)
C20_11 C 0.18590(18) 0.73176(25) 0.84440(13)
H22_11 H 0.1885 0.7160 0.8186
H23_11 H 0.2233 0.7445 0.8590
H24_11 H 0.1521 0.7002 0.8591
F5_8 F 0.10622(9) 0.82453(13) 0.66811(6)
F6_8 F 0.09586(9) 0.83203(13) 0.73210(6)
F7_8 F 0.18289(9) 0.77956(13) 0.68247(6)
F8_8 F 0.18259(9) 0.79695(13) 0.74599(6)
C21_8 C 0.13575(13) 0.83457(20) 0.70381(9)
O5_8 O 0.22000(12) 0.91511(18) 0.67069(8)
O6_8 O 0.20851(11) 0.92540(16) 0.73584(8)
C22_8 C 0.14768(14) 0.78203(21) 0.71246(9)
C23_8 C 0.19394(14) 0.89859(20) 0.70351(10)
O7_6 O 0.08167(14) 0.69227(21) 0.74941(8)
C24_8 C 0.08958(15) 0.71798(21) 0.71687(11)
O8_8 O 0.05873(12) 0.69979(18) 0.68603(9)
Ag5_6 Ag 0.04389(2) 0.67726(3) 0.82650(2)
O11_8 O 0.25166(14) 0.97440(21) 0.91726(8)
O13_8 O 0.36645(18) 0.97439(22) 0.64731(9)
Ag7_6 Ag 0.95611(2) 0.63338(4) 0.67350(2)
Ag1_11 Ag 0.69409(2) 0.69408(2) 0.7500
Ag2_9 Ag 0.69996(2) 0.71055(2) 0.84016(2)
N1_11 N 0.60562(14) 0.60562(14) 0.7500
F1_9 F 0.89378(9) 0.71830(10) 0.83189(6)
F2_9 F 0.90414(9) 0.73616(9) 0.76790(6)
F3_9 F 0.81711(9) 0.59666(9) 0.81753(6)
F4_9 F 0.81741(9) 0.61435(10) 0.75401(6)
C1_9 C 0.86425(13) 0.69881(15) 0.79619(9)
N2_9 N 0.67803(12) 0.78556(11) 0.83289(8)
O1_9 O 0.78000(12) 0.69510(14) 0.82931(8)
O2_9 O 0.79149(11) 0.71688(12) 0.76416(8)
C2_9 C 0.85232(14) 0.63434(15) 0.78754(9)
C3_9 C 0.80606(14) 0.70464(14) 0.79649(10)
C4_9 C 0.66481(16) 0.55616(17) 0.76645(12)
H1_9 H 0.6981 0.5952 0.7581
H2_9 H 0.6673 0.5241 0.7524
H3_9 H 0.6675 0.5513 0.7948
C5_12 C 0.57133(16) 0.70952(16) 0.84367(12)
H4_12 H 0.5863 0.6826 0.8359
H5_12 H 0.5367 0.7015 0.8273
H6_12 H 0.5592 0.7026 0.8714
O3_9 O 0.91833(14) 0.61059(15) 0.75059(8)
C6_9 C 0.91042(15) 0.62839(15) 0.78313(11)
O4_9 O 0.94127(12) 0.64105(14) 0.81397(9)
C7_9 C 0.60474(14) 0.55273(14) 0.75690(9)
C8_12 C 0.62105(14) 0.77475(14) 0.83808(9)
C9_12 C 0.72411(14) 0.84302(15) 0.82791(9)
C10_12 C 0.78747(17) 0.85256(18) 0.82226(13)
H7_12 H 0.8058 0.8551 0.8480
H8_12 H 0.8121 0.8899 0.8076
H9_12 H 0.7852 0.8187 0.8075
C11_9 C 0.54976(15) 0.49738(14) 0.75558(9)
C12_9 C 0.54659(19) 0.43647(16) 0.76004(13)
H10_9 H 0.5548 0.4241 0.7345
H11_9 H 0.5064 0.4064 0.7690
H12_9 H 0.5766 0.4400 0.7793
C13_9 C 0.55616(17) 0.66481(16) 0.73355(12)
H13_9 H 0.5952 0.6981 0.7419
H14_9 H 0.5241 0.6673 0.7476
H15_9 H 0.5513 0.6675 0.7052
C14_9 C 0.55273(14) 0.60474(14) 0.74310(9)
C15_9 C 0.49738(14) 0.54976(15) 0.74442(9)
C16_9 C 0.43647(16) 0.54659(19) 0.73996(13)
H16_9 H 0.4241 0.5548 0.7655
H17_9 H 0.4064 0.5064 0.7310
H18_9 H 0.4400 0.5766 0.7207
N4_12 N 0.65531(12) 0.88110(11) 0.83377(8)
C17_12 C 0.76201(16) 0.95714(16) 0.82299(12)
H19_12 H 0.7471 0.9840 0.8307
H20_12 H 0.7967 0.9651 0.8393
H21_12 H 0.7742 0.9640 0.7952
C18_12 C 0.71229(14) 0.89191(14) 0.82858(9)
C19_12 C 0.60923(14) 0.82364(15) 0.83875(9)
C20_12 C 0.54587(17) 0.81410(18) 0.84440(13)
H22_12 H 0.5276 0.8115 0.8186
H23_12 H 0.5213 0.7767 0.8590
H24_12 H 0.5482 0.8479 0.8591
Ag4_9 Ag 0.71055(2) 0.69996(2) 0.65984(2)
F5_9 F 0.71830(10) 0.89378(9) 0.66811(6)
F6_9 F 0.73616(9) 0.90414(9) 0.73210(6)
F7_9 F 0.59666(9) 0.81711(9) 0.68247(6)
F8_9 F 0.61435(10) 0.81741(9) 0.74599(6)
C21_9 C 0.69881(15) 0.86425(13) 0.70381(9)
O5_9 O 0.69510(14) 0.78000(12) 0.67069(8)
O6_9 O 0.71688(12) 0.79149(11) 0.73584(8)
C22_9 C 0.63434(15) 0.85232(14) 0.71246(9)
C23_9 C 0.70464(14) 0.80606(14) 0.70351(10)
C24_9 C 0.62839(15) 0.91042(15) 0.71687(11)
O8_9 O 0.64105(14) 0.94127(12) 0.68603(9)
N5_9 N 0.78556(11) 0.67803(12) 0.66711(8)
O10_9 O 0.74834(14) 0.72274(15) 0.58274(8)
O11_9 O 0.72274(15) 0.74834(14) 0.91726(8)
O12_9 O 0.63355(18) 0.60793(12) 0.85269(9)
O13_9 O 0.60793(12) 0.63355(18) 0.64731(9)
C5_13 C 0.70952(16) 0.57133(16) 0.65633(12)
H4_13 H 0.6826 0.5863 0.6641
H5_13 H 0.7015 0.5367 0.6727
H6_13 H 0.7026 0.5592 0.6286
C8_13 C 0.77475(14) 0.62105(14) 0.66192(9)
C9_13 C 0.84302(15) 0.72411(14) 0.67209(9)
C10_13 C 0.85256(18) 0.78747(17) 0.67774(13)
H7_13 H 0.8551 0.8058 0.6520
H8_13 H 0.8899 0.8121 0.6924
H9_13 H 0.8187 0.7852 0.6925
N4_13 N 0.88110(11) 0.65531(12) 0.66623(8)
C17_13 C 0.95714(16) 0.76201(16) 0.67701(12)
H19_13 H 0.9840 0.7471 0.6693
H20_13 H 0.9651 0.7967 0.6607
H21_13 H 0.9640 0.7742 0.7048
C18_13 C 0.89191(14) 0.71229(14) 0.67142(9)
C19_13 C 0.82364(15) 0.60923(14) 0.66125(9)
C20_13 C 0.81410(18) 0.54587(17) 0.65560(13)
H22_13 H 0.8115 0.5276 0.6814
H23_13 H 0.7767 0.5213 0.6410
H24_13 H 0.8479 0.5482 0.6409
C5_14 C 0.42867(16) 0.13820(23) 0.65633(12)
H4_14 H 0.4137 0.0964 0.6641
H5_14 H 0.4633 0.1649 0.6727
H6_14 H 0.4408 0.1435 0.6286
C8_14 C 0.37895(14) 0.15371(20) 0.66192(9)
C9_14 C 0.27589(14) 0.11892(21) 0.67209(9)
C10_14 C 0.21253(17) 0.06510(25) 0.67774(13)
H7_14 H 0.1942 0.0494 0.6520
H8_14 H 0.1879 0.0779 0.6924
H9_14 H 0.2148 0.0336 0.6925
N4_14 N 0.34469(12) 0.22580(16) 0.66623(8)
C17_14 C 0.23799(16) 0.19514(23) 0.67701(12)
H19_14 H 0.2529 0.2370 0.6693
H20_14 H 0.2033 0.1685 0.6607
H21_14 H 0.2258 0.1899 0.7048
C18_14 C 0.28771(14) 0.17963(20) 0.67142(9)
C19_14 C 0.39077(14) 0.21442(21) 0.66125(9)
C20_14 C 0.45413(17) 0.26824(25) 0.65560(13)
H22_14 H 0.4724 0.2840 0.6814
H23_14 H 0.4787 0.2555 0.6410
H24_14 H 0.4518 0.2998 0.6409
C5_15 C 0.86180(23) 0.29048(16) 0.65633(12)
H4_15 H 0.9036 0.3174 0.6641
H5_15 H 0.8351 0.2985 0.6727
H6_15 H 0.8565 0.2974 0.6286
C8_15 C 0.84629(20) 0.22525(14) 0.66192(9)
C9_15 C 0.88108(21) 0.15698(15) 0.67209(9)
C10_15 C 0.93490(25) 0.14744(18) 0.67774(13)
H7_15 H 0.9506 0.1449 0.6520
H8_15 H 0.9221 0.1101 0.6924
H9_15 H 0.9664 0.1813 0.6925
N4_15 N 0.77420(16) 0.11890(11) 0.66623(8)
C17_15 C 0.80486(23) 0.04286(16) 0.67701(12)
H19_15 H 0.7630 0.0160 0.6693
H20_15 H 0.8315 0.0349 0.6607
H21_15 H 0.8101 0.0360 0.7048
C18_15 C 0.82037(20) 0.10809(14) 0.67142(9)
C19_15 C 0.78558(21) 0.17636(15) 0.66125(9)
C20_15 C 0.73176(25) 0.18590(18) 0.65560(13)
H22_15 H 0.7160 0.1885 0.6814
H23_15 H 0.7445 0.2233 0.6410
H24_15 H 0.7002 0.1521 0.6409
C5_16 C 0.80486(23) 0.76201(16) 0.17701(12)
H4_16 H 0.7630 0.7471 0.1693
H5_16 H 0.8315 0.7967 0.1607
H6_16 H 0.8101 0.7742 0.2048
C8_16 C 0.82037(20) 0.71229(14) 0.17142(9)
C9_16 C 0.78558(21) 0.60923(14) 0.16125(9)
C10_16 C 0.73176(25) 0.54587(17) 0.15560(13)
H7_16 H 0.7160 0.5276 0.1814
H8_16 H 0.7445 0.5213 0.1410
H9_16 H 0.7002 0.5482 0.1409
N4_16 N 0.89246(16) 0.67803(12) 0.16711(8)
C17_16 C 0.86180(23) 0.57133(16) 0.15633(12)
H19_16 H 0.9036 0.5863 0.1641
H20_16 H 0.8351 0.5367 0.1727
H21_16 H 0.8565 0.5592 0.1286
C18_16 C 0.84629(20) 0.62105(14) 0.16192(9)
C19_16 C 0.88108(21) 0.72411(14) 0.17209(9)
C20_16 C 0.93490(25) 0.78747(17) 0.17774(13)
H22_16 H 0.9506 0.8058 0.1520
H23_16 H 0.9221 0.8121 0.1924
H24_16 H 0.9664 0.7852 0.1925
C5_17 C 0.95714(16) 0.19514(23) 0.17701(12)
H4_17 H 0.9840 0.2370 0.1693
H5_17 H 0.9651 0.1685 0.1607
H6_17 H 0.9640 0.1899 0.2048
C8_17 C 0.89191(14) 0.17963(20) 0.17142(9)
C9_17 C 0.82364(15) 0.21442(21) 0.16125(9)
C10_17 C 0.81410(18) 0.26824(25) 0.15560(13)
H7_17 H 0.8115 0.2840 0.1814
H8_17 H 0.7767 0.2555 0.1410
H9_17 H 0.8479 0.2998 0.1409
N4_17 N 0.78556(11) 0.10754(16) 0.16711(8)
C17_17 C 0.70952(16) 0.13820(23) 0.15633(12)
H19_17 H 0.6826 0.0964 0.1641
H20_17 H 0.7015 0.1649 0.1727
H21_17 H 0.7026 0.1435 0.1286
C18_17 C 0.77475(14) 0.15371(20) 0.16192(9)
C19_17 C 0.84302(15) 0.11892(21) 0.17209(9)
C20_17 C 0.85256(18) 0.06510(25) 0.17774(13)
H22_17 H 0.8551 0.0494 0.1520
H23_17 H 0.8899 0.0779 0.1924
H24_17 H 0.8187 0.0336 0.1925
C5_18 C 0.23799(16) 0.04286(16) 0.17701(12)
H4_18 H 0.2529 0.0160 0.1693
H5_18 H 0.2033 0.0349 0.1607
H6_18 H 0.2258 0.0360 0.2048
C8_18 C 0.28771(14) 0.10809(14) 0.17142(9)
C9_18 C 0.39077(14) 0.17636(15) 0.16125(9)
C10_18 C 0.45413(17) 0.18590(18) 0.15560(13)
H7_18 H 0.4724 0.1885 0.1814
H8_18 H 0.4787 0.2233 0.1410
H9_18 H 0.4518 0.1521 0.1409
N4_18 N 0.32197(12) 0.21444(11) 0.16711(8)
C17_18 C 0.42867(16) 0.29048(16) 0.15633(12)
H19_18 H 0.4137 0.3174 0.1641
H20_18 H 0.4633 0.2985 0.1727
H21_18 H 0.4408 0.2974 0.1286
C18_18 C 0.37895(14) 0.22525(14) 0.16192(9)
C19_18 C 0.27589(14) 0.15698(15) 0.17209(9)
C20_18 C 0.21253(17) 0.14744(18) 0.17774(13)
H22_18 H 0.1942 0.1449 0.1520
H23_18 H 0.1879 0.1101 0.1924
H24_18 H 0.2148 0.1813 0.1925
N1_12 N 0.72771(14) 0.06105(14) 0.9167
C4_10 C 0.77717(17) 0.00186(16) 0.93312(12)
C7_10 C 0.78060(14) 0.06193(14) 0.92357(9)
C11_10 C 0.83595(14) 0.11691(15) 0.92225(9)
C12_10 C 0.89686(16) 0.12008(19) 0.92671(13)
H10_10 H 0.9092 0.1119 0.9012
H11_10 H 0.9269 0.1603 0.9357
H12_10 H 0.8933 0.0901 0.9460
N3_5 N 0.83664(14) 0.16998(14) 0.9167
C13_10 C 0.66853(16) 0.11050(17) 0.90021(12)
H13_10 H 0.6353 0.0714 0.9085
H14_10 H 0.6661 0.1425 0.9142
H15_10 H 0.6659 0.1153 0.8718
C14_10 C 0.72860(14) 0.11393(14) 0.90976(9)
C15_10 C 0.78358(15) 0.16928(14) 0.91108(9)
C16_10 C 0.78675(19) 0.23019(16) 0.90662(13)
H16_10 H 0.7786 0.2425 0.9321
H17_10 H 0.8270 0.2602 0.8976
H18_10 H 0.7568 0.2266 0.8873
F7_10 F 0.51623(9) 0.07000(9) 0.84913(6)
F8_10 F 0.51593(9) 0.05231(10) 0.91265(6)
C22_10 C 0.48102(14) 0.03232(15) 0.87912(9)
C24_10 C 0.42292(15) 0.03827(15) 0.88353(11)
Ag9_4 Ag 0.3333 0.07489(2) 0.9167
Ag10_5 Ag 0.92511(2) 0.25841(2) 0.9167
Ag1_12 Ag 0.63925(2) 0.97258(2) 0.9167
F1_10 F 0.61503(10) 0.77289(9) 0.99856(6)
F2_10 F 0.59717(9) 0.76253(9) 0.93457(6)
F3_10 F 0.73667(9) 0.84956(9) 0.98420(6)
F4_10 F 0.71898(10) 0.84926(9) 0.92068(6)
C1_10 C 0.63452(15) 0.80242(13) 0.96286(9)
O1_10 O 0.63823(14) 0.88667(12) 0.99598(8)
O2_10 O 0.61645(12) 0.87518(11) 0.93083(8)
C2_10 C 0.69899(15) 0.81435(14) 0.95421(9)
C3_10 C 0.62869(14) 0.86061(14) 0.96316(10)
H1_10 H 0.7381 0.9686 0.9248
H2_10 H 0.8092 0.9994 0.9191
H3_10 H 0.7820 0.9992 0.9615
C6_10 C 0.70494(15) 0.75625(15) 0.94980(11)
Ag3_5 Ag 0.74159(2) 0.6667 0.9167
F5_10 F 0.43956(9) 0.94836(10) 0.83477(6)
F6_10 F 0.42920(9) 0.93050(9) 0.89876(6)
C21_10 C 0.46909(13) 0.96785(15) 0.87047(9)
O5_10 O 0.55334(12) 0.97156(14) 0.83735(8)
O6_10 O 0.54185(11) 0.94978(12) 0.90250(8)
C23_10 C 0.52728(14) 0.96202(14) 0.87017(10)
N6_8 N 0.83002(14) 0.66666(20) 0.9167
N6_9 N 0.33334(20) 0.16336(24) 0.9167
Ag1_13 Ag 0.02742(2) 0.66667(3) 0.9167
F1_11 F 0.22711(9) 0.84214(13) 0.99856(6)
F2_11 F 0.23747(9) 0.83464(13) 0.93457(6)
F3_11 F 0.15044(9) 0.88711(13) 0.98420(6)
F4_11 F 0.15074(9) 0.86972(13) 0.92068(6)
C1_11 C 0.19758(13) 0.83210(20) 0.96286(9)
O1_11 O 0.11333(12) 0.75156(18) 0.99598(8)
O2_11 O 0.12482(11) 0.74127(16) 0.93083(8)
C2_11 C 0.18565(14) 0.88464(21) 0.95421(9)
C3_11 C 0.13939(14) 0.76808(20) 0.96316(10)
H1_11 H 0.0314 0.7695 0.9248
H2_11 H 0.0006 0.8098 0.9191
H3_11 H 0.0008 0.7828 0.9615
C6_11 C 0.24375(15) 0.94869(21) 0.94980(11)
F5_11 F 0.05164(10) 0.49119(13) 0.83477(6)
F6_11 F 0.06950(9) 0.49869(13) 0.89876(6)
C21_11 C 0.03215(15) 0.50123(20) 0.87047(9)
O5_11 O 0.02844(14) 0.58177(18) 0.83735(8)
O6_11 O 0.05022(12) 0.59206(16) 0.90250(8)
C23_11 C 0.03798(14) 0.56525(20) 0.87017(10)
N1_13 N 0.93895(14) 0.66666(20) 0.9167
C4_11 C 0.99814(16) 0.77531(23) 0.93312(12)
C7_11 C 0.93807(14) 0.71867(20) 0.92357(9)
C11_11 C 0.88309(15) 0.71904(21) 0.92225(9)
C12_11 C 0.87992(19) 0.77678(25) 0.92671(13)
H10_11 H 0.8881 0.7973 0.9012
H11_11 H 0.8397 0.7666 0.9357
H12_11 H 0.9099 0.8032 0.9460
C13_11 C 0.88950(17) 0.55802(23) 0.90021(12)
H13_11 H 0.9286 0.5638 0.9085
H14_11 H 0.8575 0.5235 0.9142
H15_11 H 0.8847 0.5505 0.8718
C14_11 C 0.88607(14) 0.61466(20) 0.90976(9)
C15_11 C 0.83072(14) 0.61429(21) 0.91108(9)
C16_11 C 0.76981(16) 0.55655(25) 0.90662(13)
H16_11 H 0.7575 0.5360 0.9321
H17_11 H 0.7398 0.5667 0.8976
H18_11 H 0.7734 0.5301 0.8873
F7_11 F 0.93000(9) 0.44622(13) 0.84913(6)
F8_11 F 0.94769(10) 0.46361(13) 0.91265(6)
C22_11 C 0.96768(15) 0.44869(21) 0.87912(9)
C24_11 C 0.96173(15) 0.38464(21) 0.88353(11)
Ag1_14 Ag 0.33333(3) 0.36075(2) 0.9167
N1_14 N 0.33334(20) 0.27229(14) 0.9167
F1_12 F 0.15786(13) 0.38497(10) 0.99856(6)
F2_12 F 0.16536(13) 0.40283(9) 0.93457(6)
F3_12 F 0.11289(13) 0.26333(9) 0.98420(6)
F4_12 F 0.13028(13) 0.28102(10) 0.92068(6)
C1_12 C 0.16790(20) 0.36548(15) 0.96286(9)
O1_12 O 0.24844(18) 0.36177(14) 0.99598(8)
O2_12 O 0.25873(16) 0.38355(12) 0.93083(8)
C2_12 C 0.11536(21) 0.30101(15) 0.95421(9)
C3_12 C 0.23192(20) 0.37131(14) 0.96316(10)
C4_12 C 0.22469(23) 0.22283(17) 0.93312(12)
H1_12 H 0.2305 0.2619 0.9248
H2_12 H 0.1902 0.1908 0.9191
H3_12 H 0.2172 0.2180 0.9615
C6_12 C 0.05131(21) 0.29506(15) 0.94980(11)
C7_12 C 0.28133(20) 0.21940(14) 0.92357(9)
C11_12 C 0.28096(21) 0.16405(14) 0.92225(9)
C12_12 C 0.22322(25) 0.10314(16) 0.92671(13)
H10_12 H 0.2027 0.0908 0.9012
H11_12 H 0.2334 0.0731 0.9357
H12_12 H 0.1968 0.1067 0.9460
C13_12 C 0.44198(23) 0.33147(16) 0.90021(12)
H13_12 H 0.4362 0.3647 0.9085
H14_12 H 0.4765 0.3339 0.9142
H15_12 H 0.4495 0.3341 0.8718
C14_12 C 0.38534(20) 0.27140(14) 0.90976(9)
C15_12 C 0.38571(21) 0.21642(15) 0.91108(9)
C16_12 C 0.44345(25) 0.21325(19) 0.90662(13)
H16_12 H 0.4640 0.2214 0.9321
H17_12 H 0.4333 0.1730 0.8976
H18_12 H 0.4699 0.2432 0.8873
F5_12 F 0.50881(13) 0.56044(9) 0.83477(6)
F6_12 F 0.50131(13) 0.57080(9) 0.89876(6)
F7_12 F 0.55378(13) 0.48377(9) 0.84913(6)
F8_12 F 0.53639(13) 0.48407(9) 0.91265(6)
C21_12 C 0.49877(20) 0.53091(13) 0.87047(9)
O5_12 O 0.41823(18) 0.44666(12) 0.83735(8)
O6_12 O 0.40794(16) 0.45815(11) 0.90250(8)
C22_12 C 0.55131(21) 0.51898(14) 0.87912(9)
C23_12 C 0.43475(20) 0.47272(14) 0.87017(10)
C24_12 C 0.61536(21) 0.57708(15) 0.88353(11)
Ag3_6 Ag 0.07489(2) 0.3333 0.5833
N6_10 N 0.16336(24) 0.33334(20) 0.5833
Ag1_15 Ag 0.66667(3) 0.02742(2) 0.5833
F1_13 F 0.84214(13) 0.22711(9) 0.50144(6)
F2_13 F 0.83464(13) 0.23747(9) 0.56543(6)
F3_13 F 0.88711(13) 0.15044(9) 0.51580(6)
F4_13 F 0.86972(13) 0.15074(9) 0.57932(6)
C1_13 C 0.83210(20) 0.19758(13) 0.53714(9)
O1_13 O 0.75156(18) 0.11333(12) 0.50402(8)
O2_13 O 0.74127(16) 0.12482(11) 0.56917(8)
C2_13 C 0.88464(21) 0.18565(14) 0.54579(9)
C3_13 C 0.76808(20) 0.13939(14) 0.53684(10)
H1_13 H 0.7695 0.0314 0.5752
H2_13 H 0.8098 0.0006 0.5809
H3_13 H 0.7828 0.0008 0.5385
C6_13 C 0.94869(21) 0.24375(15) 0.55020(11)
F5_13 F 0.49119(13) 0.05164(10) 0.66523(6)
F6_13 F 0.49869(13) 0.06950(9) 0.60124(6)
C21_13 C 0.50123(20) 0.03215(15) 0.62953(9)
O5_13 O 0.58177(18) 0.02844(14) 0.66265(8)
O6_13 O 0.59206(16) 0.05022(12) 0.59750(8)
C23_13 C 0.56525(20) 0.03798(14) 0.62983(10)
N1_15 N 0.66666(20) 0.93895(14) 0.5833
C4_13 C 0.77531(23) 0.99814(16) 0.56688(12)
C7_13 C 0.71867(20) 0.93807(14) 0.57643(9)
C11_13 C 0.71904(21) 0.88309(15) 0.57775(9)
C12_13 C 0.77678(25) 0.87992(19) 0.57329(13)
H10_13 H 0.7973 0.8881 0.5988
H11_13 H 0.7666 0.8397 0.5643
H12_13 H 0.8032 0.9099 0.5540
N3_6 N 0.66666(20) 0.83002(14) 0.5833
C13_13 C 0.55802(23) 0.88950(17) 0.59979(12)
H13_13 H 0.5638 0.9286 0.5915
H14_13 H 0.5235 0.8575 0.5858
H15_13 H 0.5505 0.8847 0.6282
C14_13 C 0.61466(20) 0.88607(14) 0.59024(9)
C15_13 C 0.61429(21) 0.83072(14) 0.58892(9)
C16_13 C 0.55655(25) 0.76981(16) 0.59338(13)
H16_13 H 0.5360 0.7575 0.5679
H17_13 H 0.5667 0.7398 0.6024
H18_13 H 0.5301 0.7734 0.6127
F7_13 F 0.44622(13) 0.93000(9) 0.65087(6)
F8_13 F 0.46361(13) 0.94769(10) 0.58735(6)
C22_13 C 0.44869(21) 0.96768(15) 0.62088(9)
C24_13 C 0.38464(21) 0.96173(15) 0.61647(11)
Ag9_5 Ag 0.25841(2) 0.92511(2) 0.5833
Ag10_6 Ag 0.66670(3) 0.74159(2) 0.5833
Ag1_16 Ag 0.36075(2) 0.33333(3) 0.5833
N1_16 N 0.27229(14) 0.33334(20) 0.5833
F1_14 F 0.38497(10) 0.15786(13) 0.50144(6)
F2_14 F 0.40283(9) 0.16536(13) 0.56543(6)
F3_14 F 0.26333(9) 0.11289(13) 0.51580(6)
F4_14 F 0.28102(10) 0.13028(13) 0.57932(6)
C1_14 C 0.36548(15) 0.16790(20) 0.53714(9)
O1_14 O 0.36177(14) 0.24844(18) 0.50402(8)
O2_14 O 0.38355(12) 0.25873(16) 0.56917(8)
C2_14 C 0.30101(15) 0.11536(21) 0.54579(9)
C3_14 C 0.37131(14) 0.23192(20) 0.53684(10)
C4_14 C 0.22283(17) 0.22469(23) 0.56688(12)
H1_14 H 0.2619 0.2305 0.5752
H2_14 H 0.1908 0.1902 0.5809
H3_14 H 0.2180 0.2172 0.5385
C6_14 C 0.29506(15) 0.05131(21) 0.55020(11)
C7_14 C 0.21940(14) 0.28133(20) 0.57643(9)
C11_14 C 0.16405(14) 0.28096(21) 0.57775(9)
C12_14 C 0.10314(16) 0.22322(25) 0.57329(13)
H10_14 H 0.0908 0.2027 0.5988
H11_14 H 0.0731 0.2334 0.5643
H12_14 H 0.1067 0.1968 0.5540
C13_14 C 0.33147(16) 0.44198(23) 0.59979(12)
H13_14 H 0.3647 0.4362 0.5915
H14_14 H 0.3339 0.4765 0.5858
H15_14 H 0.3341 0.4495 0.6282
C14_14 C 0.27140(14) 0.38534(20) 0.59024(9)
C15_14 C 0.21642(15) 0.38571(21) 0.58892(9)
C16_14 C 0.21325(19) 0.44345(25) 0.59338(13)
H16_14 H 0.2214 0.4640 0.5679
H17_14 H 0.1730 0.4333 0.6024
H18_14 H 0.2432 0.4699 0.6127
F5_14 F 0.56044(9) 0.50881(13) 0.66523(6)
F6_14 F 0.57080(9) 0.50131(13) 0.60124(6)
F7_14 F 0.48377(9) 0.55378(13) 0.65087(6)
F8_14 F 0.48407(9) 0.53639(13) 0.58735(6)
C21_14 C 0.53091(13) 0.49877(20) 0.62953(9)
O5_14 O 0.44666(12) 0.41823(18) 0.66265(8)
O6_14 O 0.45815(11) 0.40794(16) 0.59750(8)
C22_14 C 0.51898(14) 0.55131(21) 0.62088(9)
C23_14 C 0.47272(14) 0.43475(20) 0.62983(10)
C24_14 C 0.57708(15) 0.61536(21) 0.61647(11)
N6_11 N 0.16998(14) 0.83664(24) 0.5833
N1_17 N 0.06105(14) 0.72771(14) 0.5833
C4_15 C 0.00186(16) 0.77717(17) 0.56688(12)
C7_15 C 0.06193(14) 0.78060(14) 0.57643(9)
C11_15 C 0.11691(15) 0.83595(14) 0.57775(9)
C12_15 C 0.12008(19) 0.89686(16) 0.57329(13)
H10_15 H 0.1119 0.9092 0.5988
H11_15 H 0.1603 0.9269 0.5643
H12_15 H 0.0901 0.8933 0.5540
C13_15 C 0.11050(17) 0.66853(16) 0.59979(12)
H13_15 H 0.0714 0.6353 0.5915
H14_15 H 0.1425 0.6661 0.5858
H15_15 H 0.1153 0.6659 0.6282
C14_15 C 0.11393(14) 0.72860(14) 0.59024(9)
C15_15 C 0.16928(14) 0.78358(15) 0.58892(9)
C16_15 C 0.23019(16) 0.78675(19) 0.59338(13)
H16_15 H 0.2425 0.7786 0.5679
H17_15 H 0.2602 0.8270 0.6024
H18_15 H 0.2266 0.7568 0.6127
F7_15 F 0.07000(9) 0.51623(9) 0.65087(6)
F8_15 F 0.05231(10) 0.51593(9) 0.58735(6)
C22_15 C 0.03232(15) 0.48102(14) 0.62088(9)
C24_15 C 0.03827(15) 0.42292(15) 0.61647(11)
Ag1_17 Ag 0.97258(2) 0.63925(2) 0.5833
F1_15 F 0.77289(9) 0.61503(10) 0.50144(6)
F2_15 F 0.76253(9) 0.59717(9) 0.56543(6)
F3_15 F 0.84956(9) 0.73667(9) 0.51580(6)
F4_15 F 0.84926(9) 0.71898(10) 0.57932(6)
C1_15 C 0.80242(13) 0.63452(15) 0.53714(9)
O1_15 O 0.88667(12) 0.63823(14) 0.50402(8)
O2_15 O 0.87518(11) 0.61645(12) 0.56917(8)
C2_15 C 0.81435(14) 0.69899(15) 0.54579(9)
C3_15 C 0.86061(14) 0.62869(14) 0.53684(10)
H1_15 H 0.9686 0.7381 0.5752
H2_15 H 0.9994 0.8092 0.5809
H3_15 H 0.9992 0.7820 0.5385
C6_15 C 0.75625(15) 0.70494(15) 0.55020(11)
F5_15 F 0.94836(10) 0.43956(9) 0.66523(6)
F6_15 F 0.93050(9) 0.42920(9) 0.60124(6)
C21_15 C 0.96785(15) 0.46909(13) 0.62953(9)
O5_15 O 0.97156(14) 0.55334(12) 0.66265(8)
O6_15 O 0.94978(12) 0.54185(11) 0.59750(8)
C23_15 C 0.96202(14) 0.52728(14) 0.62983(10)
Ag3_7 Ag 0.40822(2) -0.0000 0.2500
N6_12 N 0.49669(24) 0.00001(20) 0.2500
Ag1_18 Ag 0.00000(3) 0.69409(2) 0.2500
N1_18 N -0.00001(20) 0.60562(14) 0.2500
F1_16 F 0.17547(13) 0.89378(9) 0.16811(6)
F2_16 F 0.16797(13) 0.90414(9) 0.23210(6)
F3_16 F 0.22044(13) 0.81711(9) 0.18247(6)
F4_16 F 0.20305(13) 0.81741(9) 0.24599(6)
C1_16 C 0.16543(20) 0.86425(13) 0.20381(9)
O1_16 O 0.08489(18) 0.78000(12) 0.17069(8)
O2_16 O 0.07460(16) 0.79149(11) 0.23584(8)
C2_16 C 0.21797(21) 0.85232(14) 0.21246(9)
C3_16 C 0.10141(20) 0.80606(14) 0.20351(10)
C4_16 C 0.10864(23) 0.66481(16) 0.23355(12)
H1_16 H 0.1028 0.6981 0.2419
H2_16 H 0.1431 0.6673 0.2476
H3_16 H 0.1161 0.6675 0.2052
C6_16 C 0.28202(21) 0.91042(15) 0.21687(11)
C7_16 C 0.05200(20) 0.60474(14) 0.24310(9)
C11_16 C 0.05237(21) 0.54976(15) 0.24442(9)
C12_16 C 0.11011(25) 0.54659(19) 0.23996(13)
H10_16 H 0.1306 0.5548 0.2655
H11_16 H 0.0999 0.5064 0.2310
H12_16 H 0.1365 0.5766 0.2207
N3_7 N -0.00001(20) 0.49669(14) 0.2500
Ag3_8 Ag 0.40822(2) 1.0000 0.2500
N6_13 N 0.49669(24) 1.00001(20) 0.2500
Ag10_7 Ag 0.00003(3) 0.40826(2) 0.2500
Ag1_19 Ag 1.00000(3) 0.69409(2) 0.2500
N1_19 N 0.99999(20) 0.60562(14) 0.2500
N3_8 N 0.99999(20) 0.49669(14) 0.2500
C13_16 C 0.89136(23) 0.55616(17) 0.26645(12)
H13_16 H 0.8972 0.5952 0.2581
H14_16 H 0.8569 0.5241 0.2524
H15_16 H 0.8839 0.5513 0.2948
C14_16 C 0.94800(20) 0.55273(14) 0.25690(9)
C15_16 C 0.94763(21) 0.49738(14) 0.25558(9)
C16_16 C 0.88989(25) 0.43647(16) 0.26004(13)
H16_16 H 0.8694 0.4241 0.2345
H17_16 H 0.9001 0.4064 0.2690
H18_16 H 0.8635 0.4400 0.2793
F5_16 F 0.82453(13) 0.71830(10) 0.33189(6)
F6_16 F 0.83203(13) 0.73616(9) 0.26790(6)
F7_16 F 0.77956(13) 0.59666(9) 0.31753(6)
F8_16 F 0.79695(13) 0.61435(10) 0.25401(6)
C21_16 C 0.83457(20) 0.69881(15) 0.29619(9)
O5_16 O 0.91511(18) 0.69510(14) 0.32931(8)
O6_16 O 0.92540(16) 0.71688(12) 0.26416(8)
C22_16 C 0.78203(21) 0.63434(15) 0.28754(9)
C23_16 C 0.89859(20) 0.70464(14) 0.29649(10)
C24_16 C 0.71798(21) 0.62839(15) 0.28313(11)
Ag9_6 Ag 0.59174(2) 0.59178(2) 0.2500
Ag10_8 Ag 1.00003(3) 0.40826(2) 0.2500
Ag1_20 Ag 0.69408(2) -0.00000(3) 0.2500
N1_20 N 0.60562(14) 0.00001(20) 0.2500
C13_17 C 0.66481(16) 0.10864(23) 0.26645(12)
H13_17 H 0.6981 0.1028 0.2581
H14_17 H 0.6673 0.1431 0.2524
H15_17 H 0.6675 0.1161 0.2948
C14_17 C 0.60474(14) 0.05200(20) 0.25690(9)
C15_17 C 0.54976(15) 0.05237(21) 0.25558(9)
C16_17 C 0.54659(19) 0.11011(25) 0.26004(13)
H16_17 H 0.5548 0.1306 0.2345
H17_17 H 0.5064 0.0999 0.2690
H18_17 H 0.5766 0.1365 0.2793
F5_17 F 0.89378(9) 0.17547(13) 0.33189(6)
F6_17 F 0.90414(9) 0.16797(13) 0.26790(6)
F7_17 F 0.81711(9) 0.22044(13) 0.31753(6)
F8_17 F 0.81741(9) 0.20305(13) 0.25401(6)
C21_17 C 0.86425(13) 0.16543(20) 0.29619(9)
O5_17 O 0.78000(12) 0.08489(18) 0.32931(8)
O6_17 O 0.79149(11) 0.07460(16) 0.26416(8)
C22_17 C 0.85232(14) 0.21797(21) 0.28754(9)
C23_17 C 0.80606(14) 0.10141(20) 0.29649(10)
C24_17 C 0.91042(15) 0.28202(21) 0.28313(11)
Ag1_21 Ag 0.69408(2) 1.00000(3) 0.2500
N1_21 N 0.60562(14) 1.00001(20) 0.2500
F1_17 F 0.71830(10) 0.82453(13) 0.16811(6)
F2_17 F 0.73616(9) 0.83203(13) 0.23210(6)
F3_17 F 0.59666(9) 0.77956(13) 0.18247(6)
F4_17 F 0.61435(10) 0.79695(13) 0.24599(6)
C1_17 C 0.69881(15) 0.83457(20) 0.20381(9)
O1_17 O 0.69510(14) 0.91511(18) 0.17069(8)
O2_17 O 0.71688(12) 0.92540(16) 0.23584(8)
C2_17 C 0.63434(15) 0.78203(21) 0.21246(9)
C3_17 C 0.70464(14) 0.89859(20) 0.20351(10)
C4_17 C 0.55616(17) 0.89136(23) 0.23355(12)
H1_17 H 0.5952 0.8972 0.2419
H2_17 H 0.5241 0.8569 0.2476
H3_17 H 0.5513 0.8839 0.2052
C6_17 C 0.62839(15) 0.71798(21) 0.21687(11)
C7_17 C 0.55273(14) 0.94800(20) 0.24310(9)
C11_17 C 0.49738(14) 0.94763(21) 0.24442(9)
C12_17 C 0.43647(16) 0.88989(25) 0.23996(13)
H10_17 H 0.4241 0.8694 0.2655
H11_17 H 0.4064 0.9001 0.2310
H12_17 H 0.4400 0.8635 0.2207
N6_14 N 0.50331(14) 0.50331(24) 0.2500
Ag1_22 Ag 0.30591(2) 0.30592(2) 0.2500
N1_22 N 0.39438(14) 0.39438(14) 0.2500
F1_18 F 0.10622(9) 0.28170(10) 0.16811(6)
F2_18 F 0.09586(9) 0.26384(9) 0.23210(6)
F3_18 F 0.18289(9) 0.40334(9) 0.18247(6)
F4_18 F 0.18259(9) 0.38565(10) 0.24599(6)
C1_18 C 0.13575(13) 0.30119(15) 0.20381(9)
O1_18 O 0.22000(12) 0.30490(14) 0.17069(8)
O2_18 O 0.20851(11) 0.28312(12) 0.23584(8)
C2_18 C 0.14768(14) 0.36566(15) 0.21246(9)
C3_18 C 0.19394(14) 0.29536(14) 0.20351(10)
C4_18 C 0.33519(16) 0.44384(17) 0.23355(12)
H1_18 H 0.3019 0.4048 0.2419
H2_18 H 0.3327 0.4759 0.2476
H3_18 H 0.3325 0.4487 0.2052
C6_18 C 0.08958(15) 0.37161(15) 0.21687(11)
C7_18 C 0.39526(14) 0.44727(14) 0.24310(9)
C11_18 C 0.45024(15) 0.50262(14) 0.24442(9)
C12_18 C 0.45341(19) 0.56353(16) 0.23996(13)
H10_18 H 0.4452 0.5759 0.2655
H11_18 H 0.4936 0.5936 0.2310
H12_18 H 0.4234 0.5600 0.2207
C13_18 C 0.44384(17) 0.33519(16) 0.26645(12)
H13_18 H 0.4048 0.3019 0.2581
H14_18 H 0.4759 0.3327 0.2524
H15_18 H 0.4487 0.3325 0.2948
C14_18 C 0.44727(14) 0.39526(14) 0.25690(9)
C15_18 C 0.50262(14) 0.45024(15) 0.25558(9)
C16_18 C 0.56353(16) 0.45341(19) 0.26004(13)
H16_18 H 0.5759 0.4452 0.2345
H17_18 H 0.5936 0.4936 0.2690
H18_18 H 0.5600 0.4234 0.2793
F5_18 F 0.28170(10) 0.10622(9) 0.33189(6)
F6_18 F 0.26384(9) 0.09586(9) 0.26790(6)
F7_18 F 0.40334(9) 0.18289(9) 0.31753(6)
F8_18 F 0.38565(10) 0.18259(9) 0.25401(6)
C21_18 C 0.30119(15) 0.13575(13) 0.29619(9)
O5_18 O 0.30490(14) 0.22000(12) 0.32931(8)
O6_18 O 0.28312(12) 0.20851(11) 0.26416(8)
C22_18 C 0.36566(15) 0.14768(14) 0.28754(9)
C23_18 C 0.29536(14) 0.19394(14) 0.29649(10)
C24_18 C 0.37161(15) 0.08958(15) 0.28313(11)
loop_
_geom_bond_atom_site_label_1
_geom_bond_atom_site_label_2
_geom_bond_site_symmetry_1
_geom_bond_site_symmetry_2
F1 C1 1_555 1_555
F2 C1 1_555 1_555
F3 C2 1_555 1_555
F4 C2 1_555 1_555
C1 C2 1_555 1_555
O2 Ag1 1_555 1_555
C2 C6 1_555 1_555
C3 C1 1_555 1_555
O3 C6 1_555 1_555
C6 O4 1_555 1_555
O4 Ag6 1_555 1_555
C9 N2 1_555 1_555
C10 C9 1_555 1_555
H8 C10 1_555 1_555
H9 C10 1_555 1_555
Ag3 O3 1_555 1_555
C17 H19 1_555 1_555
H21 C17 1_555 1_555
C18 C9 1_555 1_555
Ag4 O5 1_555 1_555
F5 C21 1_555 1_555
F6 C21 1_555 1_555
O5 C23 1_555 1_555
O6 Ag1 1_555 1_555
C23 C21 1_555 1_555
Ag6 O9 1_555 1_555
Ag8 O3 1_555 1_555
N5 Ag4 1_555 1_555
O9 Ag3 1_555 1_555
O10 Ag4 1_555 1_555
N6 Ag3 1_555 1_555
O1 C3 1_555 1_555
O2 C3 1_555 1_555
C17 C18 1_555 1_555
O6 C23 1_555 1_555
O11 Ag2 1_555 1_555
N1 C7 1_555 1_555
C7 C4 1_555 1_555
C11 C7 1_555 1_555
C12 C11 1_555 1_555
H10 C12 1_555 1_555
H11 C12 1_555 1_555
H12 C12 1_555 1_555
N3 C11 1_555 1_555
C13 H13 1_555 1_555
H14 C13 1_555 1_555
H15 C13 1_555 1_555
C14 N1 1_555 1_555
C15 N3 1_555 1_555
C16 C15 1_555 1_555
H16 C16 1_555 1_555
H17 C16 1_555 1_555
H18 C16 1_555 1_555
F7 C22 1_555 1_555
F8 C22 1_555 1_555
C22 C24 1_555 1_555
O7 C24 1_555 1_555
C24 O8 1_555 1_555
Ag9 O7 1_555 1_555
Ag10 N3 1_555 1_555
C13 C14 1_555 1_555
C14 C15 1_555 1_555
O7 Ag5 1_555 1_555
C5 H4 1_555 1_555
H6 C5 1_555 1_555
C8 C5 1_555 1_555
C19 C8 1_555 1_555
C20 C19 1_555 1_555
H23 C20 1_555 1_555
H24 C20 1_555 1_555
N4 C19 1_555 1_555
N1_2 C7_2 1_555 1_555
C7_2 C4_2 1_555 1_555
C11_2 C7_2 1_555 1_555
C12_2 C11_2 1_555 1_555
H10_2 C12_2 1_555 1_555
H11_2 C12_2 1_555 1_555
H12_2 C12_2 1_555 1_555
N6 C11_2 1_555 1_555
C13_2 H13_2 1_555 1_555
H14_2 C13_2 1_555 1_555
H15_2 C13_2 1_555 1_555
C14_2 N1_2 1_555 1_555
C15_2 N6 1_555 1_555
C16_2 C15_2 1_555 1_555
H16_2 C16_2 1_555 1_555
H17_2 C16_2 1_555 1_555
H18_2 C16_2 1_555 1_555
F7_2 C22_2 1_555 1_555
F8_2 C22_2 1_555 1_555
C22_2 C24_2 1_555 1_555
O7_2 C24_2 1_555 1_555
C24_2 O8_2 1_555 1_555
Ag10 O7_2 1_555 1_555
C13_2 C14_2 1_555 1_555
C14_2 C15_2 1_555 1_555
O7_2 Ag5_2 1_555 1_555
C5_2 H4_2 1_555 1_555
H6_2 C5_2 1_555 1_555
C8_2 C5_2 1_555 1_555
C19_2 C8_2 1_555 1_555
C20_2 C19_2 1_555 1_555
H23_2 C20_2 1_555 1_555
H24_2 C20_2 1_555 1_555
N4_2 C19_2 1_555 1_555
F1_2 C1_2 1_555 1_555
F2_2 C1_2 1_555 1_555
F3_2 C2_2 1_555 1_555
F4_2 C2_2 1_555 1_555
C1_2 C2_2 1_555 1_555
O2_2 Ag1_2 1_555 1_555
C2_2 C6_2 1_555 1_555
C3_2 C1_2 1_555 1_555
O3_2 C6_2 1_555 1_555
C6_2 O4_2 1_555 1_555
C9_2 N2_2 1_555 1_555
C10_2 C9_2 1_555 1_555
H8_2 C10_2 1_555 1_555
H9_2 C10_2 1_555 1_555
C17_2 H19_2 1_555 1_555
H21_2 C17_2 1_555 1_555
C18_2 C9_2 1_555 1_555
Ag4_2 O5_2 1_555 1_555
F5_2 C21_2 1_555 1_555
F6_2 C21_2 1_555 1_555
O5_2 C23_2 1_555 1_555
O6_2 Ag1_2 1_555 1_555
C23_2 C21_2 1_555 1_555
Ag7 O3_2 1_555 1_555
N5_2 Ag4_2 1_555 1_555
O10_2 Ag4_2 1_555 1_555
O1_2 C3_2 1_555 1_555
O2_2 C3_2 1_555 1_555
C17_2 C18_2 1_555 1_555
O6_2 C23_2 1_555 1_555
O11_2 Ag2_2 1_555 1_555
N6_2 Ag9 1_555 1_555
Ag1_3 N1_3 1_555 1_555
N1_3 C7_3 1_555 1_555
F1_3 C1_3 1_555 1_555
F2_3 C1_3 1_555 1_555
F3_3 C2_3 1_555 1_555
F4_3 C2_3 1_555 1_555
C1_3 C2_3 1_555 1_555
O2_3 Ag1_3 1_555 1_555
C2_3 C6_3 1_555 1_555
C3_3 C1_3 1_555 1_555
C4_3 H1_3 1_555 1_555
H2_3 C4_3 1_555 1_555
H3_3 C4_3 1_555 1_555
O3_3 C6_3 1_555 1_555
C6_3 O4_3 1_555 1_555
C7_3 C4_3 1_555 1_555
C9_3 N2_3 1_555 1_555
C10_3 C9_3 1_555 1_555
H8_3 C10_3 1_555 1_555
H9_3 C10_3 1_555 1_555
C11_3 C7_3 1_555 1_555
C12_3 C11_3 1_555 1_555
H10_3 C12_3 1_555 1_555
H11_3 C12_3 1_555 1_555
H12_3 C12_3 1_555 1_555
N6_2 C11_3 1_555 1_555
C13_3 H13_3 1_555 1_555
H14_3 C13_3 1_555 1_555
H15_3 C13_3 1_555 1_555
C14_3 N1_3 1_555 1_555
C15_3 N6_2 1_555 1_555
C16_3 C15_3 1_555 1_555
H16_3 C16_3 1_555 1_555
H17_3 C16_3 1_555 1_555
H18_3 C16_3 1_555 1_555
C17_3 H19_3 1_555 1_555
H21_3 C17_3 1_555 1_555
C18_3 C9_3 1_555 1_555
Ag4_3 O5_3 1_555 1_555
F5_3 C21_3 1_555 1_555
F6_3 C21_3 1_555 1_555
F7_3 C22_3 1_555 1_555
F8_3 C22_3 1_555 1_555
C21_3 C22_3 1_555 1_555
O5_3 C23_3 1_555 1_555
O6_3 Ag1_3 1_555 1_555
C22_3 C24_3 1_555 1_555
C23_3 C21_3 1_555 1_555
O9 C24_3 1_555 1_555
C24_3 O8_3 1_555 1_555
O8_3 Ag8 1_555 1_555
Ag7_2 O3_3 1_555 1_555
N5_3 Ag4_3 1_555 1_555
O10_3 Ag4_3 1_555 1_555
O13_3 Ag4_3 1_555 1_555
O1_3 C3_3 1_555 1_555
O2_3 C3_3 1_555 1_555
C13_3 C14_3 1_555 1_555
C14_3 C15_3 1_555 1_555
C17_3 C18_3 1_555 1_555
O6_3 C23_3 1_555 1_555
C5_3 H4_3 1_555 1_555
H6_3 C5_3 1_555 1_555
C8_3 C5_3 1_555 1_555
C19_3 C8_3 1_555 1_555
C20_3 C19_3 1_555 1_555
H23_3 C20_3 1_555 1_555
H24_3 C20_3 1_555 1_555
O11_3 Ag2_3 1_555 1_555
O12_3 Ag2_3 1_555 1_555
N4_3 C19_3 1_555 1_555
N1_4 C7_4 1_555 1_555
C5_4 H4_4 1_555 1_555
H5_4 C5_4 1_555 1_555
H6_4 C5_4 1_555 1_555
C7_4 C4_4 1_555 1_555
C8_4 C5_4 1_555 1_555
C11_4 C7_4 1_555 1_555
C12_4 C11_4 1_555 1_555
H10_4 C12_4 1_555 1_555
H11_4 C12_4 1_555 1_555
H12_4 C12_4 1_555 1_555
N3_2 C11_4 1_555 1_555
C13_4 H13_4 1_555 1_555
H14_4 C13_4 1_555 1_555
H15_4 C13_4 1_555 1_555
C14_4 N1_4 1_555 1_555
C15_4 N3_2 1_555 1_555
C16_4 C15_4 1_555 1_555
H16_4 C16_4 1_555 1_555
H17_4 C16_4 1_555 1_555
H18_4 C16_4 1_555 1_555
C19_4 C8_4 1_555 1_555
C20_4 C19_4 1_555 1_555
H22_4 C20_4 1_555 1_555
H23_4 C20_4 1_555 1_555
H24_4 C20_4 1_555 1_555
F7_4 C22_4 1_555 1_555
F8_4 C22_4 1_555 1_555
C22_4 C24_4 1_555 1_555
O7_3 C24_4 1_555 1_555
C24_4 O8_4 1_555 1_555
Ag5_3 N4_4 1_555 1_555
Ag9_2 O7_3 1_555 1_555
Ag10_2 N3_2 1_555 1_555
C13_4 C14_4 1_555 1_555
C14_4 C15_4 1_555 1_555
N4_4 C19_4 1_555 1_555
O7_3 Ag5_3 1_555 1_555
Ag2_4 N2_4 1_555 1_555
F1_4 C1_4 1_555 1_555
F2_4 C1_4 1_555 1_555
F3_4 C2_4 1_555 1_555
F4_4 C2_4 1_555 1_555
C1_4 C2_4 1_555 1_555
O1_4 Ag2_4 1_555 1_555
O2_4 Ag1_4 1_555 1_555
C2_4 C6_4 1_555 1_555
C3_4 C1_4 1_555 1_555
O3_4 C6_4 1_555 1_555
C6_4 O4_4 1_555 1_555
C9_4 N2_4 1_555 1_555
C10_4 C9_4 1_555 1_555
H7_4 C10_4 1_555 1_555
H8_4 C10_4 1_555 1_555
H9_4 C10_4 1_555 1_555
C17_4 H19_4 1_555 1_555
H20_4 C17_4 1_555 1_555
H21_4 C17_4 1_555 1_555
C18_4 C9_4 1_555 1_555
Ag4_4 O5_4 1_555 1_555
F5_4 C21_4 1_555 1_555
F6_4 C21_4 1_555 1_555
O5_4 C23_4 1_555 1_555
O6_4 Ag1_4 1_555 1_555
C23_4 C21_4 1_555 1_555
Ag8_2 O3_4 1_555 1_555
N5_4 Ag4_4 1_555 1_555
O10_4 Ag4_4 1_555 1_555
O11_4 Ag2_4 1_555 1_555
O1_4 C3_4 1_555 1_555
O2_4 C3_4 1_555 1_555
C17_4 C18_4 1_555 1_555
O6_4 C23_4 1_555 1_555
Ag6_2 O9_2 1_555 1_555
O9_2 Ag3_2 1_555 1_555
N6_3 Ag3_2 1_555 1_555
N6_4 Ag9_2 1_555 1_555
Ag1_5 N1_5 1_555 1_555
Ag2_5 N2_5 1_555 1_555
N1_5 C7_5 1_555 1_555
F1_5 C1_5 1_555 1_555
F2_5 C1_5 1_555 1_555
F3_5 C2_5 1_555 1_555
F4_5 C2_5 1_555 1_555
C1_5 C2_5 1_555 1_555
N2_5 C8_5 1_555 1_555
O1_5 Ag2_5 1_555 1_555
O2_5 Ag1_5 1_555 1_555
C2_5 C6_5 1_555 1_555
C3_5 C1_5 1_555 1_555
C4_5 H1_5 1_555 1_555
H2_5 C4_5 1_555 1_555
H3_5 C4_5 1_555 1_555
C5_5 H4_5 1_555 1_555
H5_5 C5_5 1_555 1_555
H6_5 C5_5 1_555 1_555
O3_5 C6_5 1_555 1_555
C6_5 O4_5 1_555 1_555
C7_5 C4_5 1_555 1_555
C8_5 C5_5 1_555 1_555
C9_5 N2_5 1_555 1_555
C10_5 C9_5 1_555 1_555
H7_5 C10_5 1_555 1_555
H8_5 C10_5 1_555 1_555
H9_5 C10_5 1_555 1_555
C11_5 C7_5 1_555 1_555
C12_5 C11_5 1_555 1_555
H10_5 C12_5 1_555 1_555
H11_5 C12_5 1_555 1_555
H12_5 C12_5 1_555 1_555
N6_3 C11_5 1_555 1_555
C13_5 H13_5 1_555 1_555
H14_5 C13_5 1_555 1_555
H15_5 C13_5 1_555 1_555
C14_5 N1_5 1_555 1_555
C15_5 N6_3 1_555 1_555
C16_5 C15_5 1_555 1_555
H16_5 C16_5 1_555 1_555
H17_5 C16_5 1_555 1_555
H18_5 C16_5 1_555 1_555
N4_5 C18_5 1_555 1_555
C17_5 H19_5 1_555 1_555
H20_5 C17_5 1_555 1_555
H21_5 C17_5 1_555 1_555
C18_5 C9_5 1_555 1_555
C19_5 C8_5 1_555 1_555
C20_5 C19_5 1_555 1_555
H22_5 C20_5 1_555 1_555
H23_5 C20_5 1_555 1_555
H24_5 C20_5 1_555 1_555
Ag4_5 O5_5 1_555 1_555
F5_5 C21_5 1_555 1_555
F6_5 C21_5 1_555 1_555
F7_5 C22_5 1_555 1_555
F8_5 C22_5 1_555 1_555
C21_5 C22_5 1_555 1_555
O5_5 C23_5 1_555 1_555
O6_5 Ag1_5 1_555 1_555
C22_5 C24_5 1_555 1_555
C23_5 C21_5 1_555 1_555
O7_4 C24_5 1_555 1_555
C24_5 O8_5 1_555 1_555
O8_5 Ag7_4 1_555 1_555
Ag5_4 N4_5 1_555 1_555
Ag7_3 O3_5 1_555 1_555
N5_5 Ag4_5 1_555 1_555
O10_5 Ag4_5 1_555 1_555
O11_5 Ag2_5 1_555 1_555
O12_5 Ag2_5 1_555 1_555
O13_5 Ag4_5 1_555 1_555
Ag10_2 O7_4 1_555 1_555
O1_5 C3_5 1_555 1_555
O2_5 C3_5 1_555 1_555
C13_5 C14_5 1_555 1_555
C14_5 C15_5 1_555 1_555
N4_5 C19_5 1_555 1_555
C17_5 C18_5 1_555 1_555
O6_5 C23_5 1_555 1_555
O7_4 Ag5_4 1_555 1_555
Ag2_6 N2_6 1_555 1_555
F1_6 C1_6 1_555 1_555
F2_6 C1_6 1_555 1_555
F3_6 C2_6 1_555 1_555
F4_6 C2_6 1_555 1_555
C1_6 C2_6 1_555 1_555
O1_6 Ag2_6 1_555 1_555
O2_6 Ag1_6 1_555 1_555
C2_6 C6_6 1_555 1_555
C3_6 C1_6 1_555 1_555
O3_6 C6_6 1_555 1_555
C6_6 O4_6 1_555 1_555
O4_6 Ag5_4 1_555 1_555
C9_6 N2_6 1_555 1_555
C10_6 C9_6 1_555 1_555
H7_6 C10_6 1_555 1_555
H8_6 C10_6 1_555 1_555
H9_6 C10_6 1_555 1_555
Ag10_2 O3_6 1_555 1_555
C17_6 H19_6 1_555 1_555
H20_6 C17_6 1_555 1_555
H21_6 C17_6 1_555 1_555
C18_6 C9_6 1_555 1_555
Ag4_6 O5_6 1_555 1_555
F5_6 C21_6 1_555 1_555
F6_6 C21_6 1_555 1_555
O5_6 C23_6 1_555 1_555
O6_6 Ag1_6 1_555 1_555
C23_6 C21_6 1_555 1_555
Ag7_4 O3_6 1_555 1_555
N5_6 Ag4_6 1_555 1_555
O10_6 Ag4_6 1_555 1_555
O11_6 Ag2_6 1_555 1_555
O1_6 C3_6 1_555 1_555
O2_6 C3_6 1_555 1_555
C17_6 C18_6 1_555 1_555
O6_6 C23_6 1_555 1_555
N1_6 C7_6 1_555 1_555
C5_6 H4_6 1_555 1_555
H5_6 C5_6 1_555 1_555
H6_6 C5_6 1_555 1_555
C7_6 C4_6 1_555 1_555
C8_6 C5_6 1_555 1_555
C11_6 C7_6 1_555 1_555
C12_6 C11_6 1_555 1_555
H10_6 C12_6 1_555 1_555
H11_6 C12_6 1_555 1_555
H12_6 C12_6 1_555 1_555
N6_4 C11_6 1_555 1_555
C13_6 H13_6 1_555 1_555
H14_6 C13_6 1_555 1_555
H15_6 C13_6 1_555 1_555
C14_6 N1_6 1_555 1_555
C15_6 N6_4 1_555 1_555
C16_6 C15_6 1_555 1_555
H16_6 C16_6 1_555 1_555
H17_6 C16_6 1_555 1_555
H18_6 C16_6 1_555 1_555
C19_6 C8_6 1_555 1_555
C20_6 C19_6 1_555 1_555
H22_6 C20_6 1_555 1_555
H23_6 C20_6 1_555 1_555
H24_6 C20_6 1_555 1_555
F7_6 C22_6 1_555 1_555
F8_6 C22_6 1_555 1_555
C22_6 C24_6 1_555 1_555
O9_2 C24_6 1_555 1_555
C24_6 O8_6 1_555 1_555
Ag6_2 N4_6 1_555 1_555
C13_6 C14_6 1_555 1_555
C14_6 C15_6 1_555 1_555
N4_6 C19_6 1_555 1_555
N5_6 C8_7 1_555 1_555
C5_7 H4_7 1_555 1_555
H5_7 C5_7 1_555 1_555
H6_7 C5_7 1_555 1_555
C8_7 C5_7 1_555 1_555
C9_7 N5_6 1_555 1_555
C10_7 C9_7 1_555 1_555
H7_7 C10_7 1_555 1_555
H8_7 C10_7 1_555 1_555
H9_7 C10_7 1_555 1_555
N4_7 C18_7 1_555 1_555
C17_7 H19_7 1_555 1_555
H20_7 C17_7 1_555 1_555
H21_7 C17_7 1_555 1_555
C18_7 C9_7 1_555 1_555
C19_7 C8_7 1_555 1_555
C20_7 C19_7 1_555 1_555
H22_7 C20_7 1_555 1_555
H23_7 C20_7 1_555 1_555
H24_7 C20_7 1_555 1_555
Ag7_4 N4_7 1_555 1_555
N4_7 C19_7 1_555 1_555
C17_7 C18_7 1_555 1_555
N5_5 C8_8 1_555 1_555
C5_8 H4_8 1_555 1_555
H5_8 C5_8 1_555 1_555
H6_8 C5_8 1_555 1_555
C8_8 C5_8 1_555 1_555
C9_8 N5_5 1_555 1_555
C10_8 C9_8 1_555 1_555
H7_8 C10_8 1_555 1_555
H8_8 C10_8 1_555 1_555
H9_8 C10_8 1_555 1_555
N4_8 C18_8 1_555 1_555
C17_8 H19_8 1_555 1_555
H20_8 C17_8 1_555 1_555
H21_8 C17_8 1_555 1_555
C18_8 C9_8 1_555 1_555
C19_8 C8_8 1_555 1_555
C20_8 C19_8 1_555 1_555
H22_8 C20_8 1_555 1_555
H23_8 C20_8 1_555 1_555
H24_8 C20_8 1_555 1_555
Ag7_3 N4_8 1_555 1_555
N4_8 C19_8 1_555 1_555
C17_8 C18_8 1_555 1_555
N5_4 C8_9 1_555 1_555
C5_9 H4_9 1_555 1_555
H5_9 C5_9 1_555 1_555
H6_9 C5_9 1_555 1_555
C8_9 C5_9 1_555 1_555
C9_9 N5_4 1_555 1_555
C10_9 C9_9 1_555 1_555
H7_9 C10_9 1_555 1_555
H8_9 C10_9 1_555 1_555
H9_9 C10_9 1_555 1_555
N4_9 C18_9 1_555 1_555
C17_9 H19_9 1_555 1_555
H20_9 C17_9 1_555 1_555
H21_9 C17_9 1_555 1_555
C18_9 C9_9 1_555 1_555
C19_9 C8_9 1_555 1_555
C20_9 C19_9 1_555 1_555
H22_9 C20_9 1_555 1_555
H23_9 C20_9 1_555 1_555
H24_9 C20_9 1_555 1_555
Ag8_2 N4_9 1_555 1_555
N4_9 C19_9 1_555 1_555
C17_9 C18_9 1_555 1_555
Ag1_7 N1_7 1_555 1_555
Ag2_7 N2_7 1_555 1_555
N2_7 C8_10 1_555 1_555
C5_10 H4_10 1_555 1_555
H5_10 C5_10 1_555 1_555
H6_10 C5_10 1_555 1_555
C8_10 C5_10 1_555 1_555
C9_10 N2_7 1_555 1_555
C10_10 C9_10 1_555 1_555
H7_10 C10_10 1_555 1_555
H8_10 C10_10 1_555 1_555
H9_10 C10_10 1_555 1_555
C13_7 H13_7 1_555 1_555
H14_7 C13_7 1_555 1_555
H15_7 C13_7 1_555 1_555
C14_7 N1_7 1_555 1_555
C15_7 N3_3 1_555 1_555
C16_7 C15_7 1_555 1_555
H16_7 C16_7 1_555 1_555
H17_7 C16_7 1_555 1_555
H18_7 C16_7 1_555 1_555
N4_10 C18_10 1_555 1_555
C17_10 H19_10 1_555 1_555
H20_10 C17_10 1_555 1_555
H21_10 C17_10 1_555 1_555
C18_10 C9_10 1_555 1_555
C19_10 C8_10 1_555 1_555
C20_10 C19_10 1_555 1_555
H22_10 C20_10 1_555 1_555
H23_10 C20_10 1_555 1_555
H24_10 C20_10 1_555 1_555
F5_7 C21_7 1_555 1_555
F6_7 C21_7 1_555 1_555
F7_7 C22_7 1_555 1_555
F8_7 C22_7 1_555 1_555
C21_7 C22_7 1_555 1_555
O5_7 C23_7 1_555 1_555
O6_7 Ag1_7 1_555 1_555
C22_7 C24_7 1_555 1_555
C23_7 C21_7 1_555 1_555
O7_5 C24_7 1_555 1_555
C24_7 O8_7 1_555 1_555
O8_7 Ag7_5 1_555 1_555
Ag5_5 N4_10 1_555 1_555
O11_7 Ag2_7 1_555 1_555
Ag9_3 O7_5 1_555 1_555
Ag10_3 N3_3 1_555 1_555
C13_7 C14_7 1_555 1_555
C14_7 C15_7 1_555 1_555
N4_10 C19_10 1_555 1_555
C17_10 C18_10 1_555 1_555
O6_7 C23_7 1_555 1_555
O7_5 Ag5_5 1_555 1_555
Ag1_8 N1_8 1_555 1_555
N1_8 C7_7 1_555 1_555
F1_7 C1_7 1_555 1_555
F2_7 C1_7 1_555 1_555
F3_7 C2_7 1_555 1_555
F4_7 C2_7 1_555 1_555
C1_7 C2_7 1_555 1_555
O2_7 Ag1_8 1_555 1_555
C2_7 C6_7 1_555 1_555
C3_7 C1_7 1_555 1_555
C4_7 H1_7 1_555 1_555
H2_7 C4_7 1_555 1_555
H3_7 C4_7 1_555 1_555
O3_7 C6_7 1_555 1_555
C6_7 O4_7 1_555 1_555
C7_7 C4_7 1_555 1_555
C11_7 C7_7 1_555 1_555
C12_7 C11_7 1_555 1_555
H10_7 C12_7 1_555 1_555
H11_7 C12_7 1_555 1_555
H12_7 C12_7 1_555 1_555
N3_4 C11_7 1_555 1_555
Ag3_3 O3_7 1_555 1_555
Ag8_3 O3_7 1_555 1_555
N5_7 Ag4_7 1_555 1_555
O10_7 Ag4_7 1_555 1_555
N6_5 Ag3_3 1_555 1_555
Ag10_4 N3_4 1_555 1_555
O1_7 C3_7 1_555 1_555
O2_7 C3_7 1_555 1_555
Ag6_3 O9_3 1_555 1_555
O9_3 Ag3_4 1_555 1_555
N6_6 Ag3_4 1_555 1_555
Ag1_9 N1_9 1_555 1_555
N1_9 C7_8 1_555 1_555
F1_8 C1_8 1_555 1_555
F2_8 C1_8 1_555 1_555
F3_8 C2_8 1_555 1_555
F4_8 C2_8 1_555 1_555
C1_8 C2_8 1_555 1_555
O2_8 Ag1_9 1_555 1_555
C2_8 C6_8 1_555 1_555
C3_8 C1_8 1_555 1_555
C4_8 H1_8 1_555 1_555
H2_8 C4_8 1_555 1_555
H3_8 C4_8 1_555 1_555
O3_8 C6_8 1_555 1_555
C6_8 O4_8 1_555 1_555
O4_8 Ag5_5 1_555 1_555
C7_8 C4_8 1_555 1_555
C11_8 C7_8 1_555 1_555
C12_8 C11_8 1_555 1_555
H10_8 C12_8 1_555 1_555
H11_8 C12_8 1_555 1_555
H12_8 C12_8 1_555 1_555
N6_5 C11_8 1_555 1_555
Ag9_3 O3_8 1_555 1_555
Ag7_5 O3_8 1_555 1_555
N5_8 Ag4_8 1_555 1_555
O10_8 Ag4_8 1_555 1_555
N6_7 Ag9_3 1_555 1_555
O1_8 C3_8 1_555 1_555
O2_8 C3_8 1_555 1_555
Ag1_10 N1_10 1_555 1_555
Ag2_8 N2_8 1_555 1_555
N2_8 C8_11 1_555 1_555
C5_11 H4_11 1_555 1_555
H5_11 C5_11 1_555 1_555
H6_11 C5_11 1_555 1_555
C8_11 C5_11 1_555 1_555
C9_11 N2_8 1_555 1_555
C10_11 C9_11 1_555 1_555
H7_11 C10_11 1_555 1_555
H8_11 C10_11 1_555 1_555
H9_11 C10_11 1_555 1_555
C13_8 H13_8 1_555 1_555
H14_8 C13_8 1_555 1_555
H15_8 C13_8 1_555 1_555
C14_8 N1_10 1_555 1_555
C15_8 N6_6 1_555 1_555
C16_8 C15_8 1_555 1_555
H16_8 C16_8 1_555 1_555
H17_8 C16_8 1_555 1_555
H18_8 C16_8 1_555 1_555
N4_11 C18_11 1_555 1_555
C17_11 H19_11 1_555 1_555
H20_11 C17_11 1_555 1_555
H21_11 C17_11 1_555 1_555
C18_11 C9_11 1_555 1_555
C19_11 C8_11 1_555 1_555
C20_11 C19_11 1_555 1_555
H22_11 C20_11 1_555 1_555
H23_11 C20_11 1_555 1_555
H24_11 C20_11 1_555 1_555
F5_8 C21_8 1_555 1_555
F6_8 C21_8 1_555 1_555
F7_8 C22_8 1_555 1_555
F8_8 C22_8 1_555 1_555
C21_8 C22_8 1_555 1_555
O5_8 C23_8 1_555 1_555
O6_8 Ag1_10 1_555 1_555
C22_8 C24_8 1_555 1_555
C23_8 C21_8 1_555 1_555
O7_6 C24_8 1_555 1_555
C24_8 O8_8 1_555 1_555
Ag5_6 N4_11 1_555 1_555
O11_8 Ag2_8 1_555 1_555
Ag10_3 O7_6 1_555 1_555
C13_8 C14_8 1_555 1_555
C14_8 C15_8 1_555 1_555
N4_11 C19_11 1_555 1_555
C17_11 C18_11 1_555 1_555
O6_8 C23_8 1_555 1_555
O7_6 Ag5_6 1_555 1_555
Ag1_11 N1_11 1_555 1_555
Ag2_9 N2_9 1_555 1_555
N1_11 C7_9 1_555 1_555
F1_9 C1_9 1_555 1_555
F2_9 C1_9 1_555 1_555
F3_9 C2_9 1_555 1_555
F4_9 C2_9 1_555 1_555
C1_9 C2_9 1_555 1_555
N2_9 C8_12 1_555 1_555
O1_9 Ag2_9 1_555 1_555
O2_9 Ag1_11 1_555 1_555
C2_9 C6_9 1_555 1_555
C3_9 C1_9 1_555 1_555
C4_9 H1_9 1_555 1_555
H2_9 C4_9 1_555 1_555
H3_9 C4_9 1_555 1_555
C5_12 H4_12 1_555 1_555
H5_12 C5_12 1_555 1_555
H6_12 C5_12 1_555 1_555
O3_9 C6_9 1_555 1_555
C6_9 O4_9 1_555 1_555
C7_9 C4_9 1_555 1_555
C8_12 C5_12 1_555 1_555
C9_12 N2_9 1_555 1_555
C10_12 C9_12 1_555 1_555
H7_12 C10_12 1_555 1_555
H8_12 C10_12 1_555 1_555
H9_12 C10_12 1_555 1_555
C11_9 C7_9 1_555 1_555
C12_9 C11_9 1_555 1_555
H10_9 C12_9 1_555 1_555
H11_9 C12_9 1_555 1_555
H12_9 C12_9 1_555 1_555
N6_7 C11_9 1_555 1_555
Ag10_4 O3_9 1_555 1_555
C13_9 H13_9 1_555 1_555
H14_9 C13_9 1_555 1_555
H15_9 C13_9 1_555 1_555
C14_9 N1_11 1_555 1_555
C15_9 N6_7 1_555 1_555
C16_9 C15_9 1_555 1_555
H16_9 C16_9 1_555 1_555
H17_9 C16_9 1_555 1_555
H18_9 C16_9 1_555 1_555
N4_12 C18_12 1_555 1_555
C17_12 H19_12 1_555 1_555
H20_12 C17_12 1_555 1_555
H21_12 C17_12 1_555 1_555
C18_12 C9_12 1_555 1_555
C19_12 C8_12 1_555 1_555
C20_12 C19_12 1_555 1_555
H22_12 C20_12 1_555 1_555
H23_12 C20_12 1_555 1_555
H24_12 C20_12 1_555 1_555
Ag4_9 O5_9 1_555 1_555
F5_9 C21_9 1_555 1_555
F6_9 C21_9 1_555 1_555
F7_9 C22_9 1_555 1_555
F8_9 C22_9 1_555 1_555
C21_9 C22_9 1_555 1_555
O5_9 C23_9 1_555 1_555
O6_9 Ag1_11 1_555 1_555
C22_9 C24_9 1_555 1_555
C23_9 C21_9 1_555 1_555
O9_3 C24_9 1_555 1_555
C24_9 O8_9 1_555 1_555
Ag6_3 N4_12 1_555 1_555
Ag7_6 O3_9 1_555 1_555
N5_9 Ag4_9 1_555 1_555
O10_9 Ag4_9 1_555 1_555
O11_9 Ag2_9 1_555 1_555
O12_9 Ag2_9 1_555 1_555
O13_9 Ag4_9 1_555 1_555
O1_9 C3_9 1_555 1_555
O2_9 C3_9 1_555 1_555
C13_9 C14_9 1_555 1_555
C14_9 C15_9 1_555 1_555
N4_12 C19_12 1_555 1_555
C17_12 C18_12 1_555 1_555
O6_9 C23_9 1_555 1_555
N5_9 C8_13 1_555 1_555
C5_13 H4_13 1_555 1_555
H5_13 C5_13 1_555 1_555
H6_13 C5_13 1_555 1_555
C8_13 C5_13 1_555 1_555
C9_13 N5_9 1_555 1_555
C10_13 C9_13 1_555 1_555
H7_13 C10_13 1_555 1_555
H8_13 C10_13 1_555 1_555
H9_13 C10_13 1_555 1_555
N4_13 C18_13 1_555 1_555
C17_13 H19_13 1_555 1_555
H20_13 C17_13 1_555 1_555
H21_13 C17_13 1_555 1_555
C18_13 C9_13 1_555 1_555
C19_13 C8_13 1_555 1_555
C20_13 C19_13 1_555 1_555
H22_13 C20_13 1_555 1_555
H23_13 C20_13 1_555 1_555
H24_13 C20_13 1_555 1_555
Ag7_6 N4_13 1_555 1_555
N4_13 C19_13 1_555 1_555
C17_13 C18_13 1_555 1_555
N5_8 C8_14 1_555 1_555
C5_14 H4_14 1_555 1_555
H5_14 C5_14 1_555 1_555
H6_14 C5_14 1_555 1_555
C8_14 C5_14 1_555 1_555
C9_14 N5_8 1_555 1_555
C10_14 C9_14 1_555 1_555
H7_14 C10_14 1_555 1_555
H8_14 C10_14 1_555 1_555
H9_14 C10_14 1_555 1_555
N4_14 C18_14 1_555 1_555
C17_14 H19_14 1_555 1_555
H20_14 C17_14 1_555 1_555
H21_14 C17_14 1_555 1_555
C18_14 C9_14 1_555 1_555
C19_14 C8_14 1_555 1_555
C20_14 C19_14 1_555 1_555
H22_14 C20_14 1_555 1_555
H23_14 C20_14 1_555 1_555
H24_14 C20_14 1_555 1_555
Ag7_5 N4_14 1_555 1_555
N4_14 C19_14 1_555 1_555
C17_14 C18_14 1_555 1_555
N5_7 C8_15 1_555 1_555
C5_15 H4_15 1_555 1_555
H5_15 C5_15 1_555 1_555
H6_15 C5_15 1_555 1_555
C8_15 C5_15 1_555 1_555
C9_15 N5_7 1_555 1_555
C10_15 C9_15 1_555 1_555
H7_15 C10_15 1_555 1_555
H8_15 C10_15 1_555 1_555
H9_15 C10_15 1_555 1_555
N4_15 C18_15 1_555 1_555
C17_15 H19_15 1_555 1_555
H20_15 C17_15 1_555 1_555
H21_15 C17_15 1_555 1_555
C18_15 C9_15 1_555 1_555
C19_15 C8_15 1_555 1_555
C20_15 C19_15 1_555 1_555
H22_15 C20_15 1_555 1_555
H23_15 C20_15 1_555 1_555
H24_15 C20_15 1_555 1_555
Ag8_3 N4_15 1_555 1_555
N4_15 C19_15 1_555 1_555
C17_15 C18_15 1_555 1_555
N5_3 C8_16 1_555 1_555
C5_16 H4_16 1_555 1_555
H5_16 C5_16 1_555 1_555
H6_16 C5_16 1_555 1_555
C8_16 C5_16 1_555 1_555
C9_16 N5_3 1_555 1_555
C10_16 C9_16 1_555 1_555
H7_16 C10_16 1_555 1_555
H8_16 C10_16 1_555 1_555
H9_16 C10_16 1_555 1_555
N4_16 C18_16 1_555 1_555
C17_16 H19_16 1_555 1_555
H20_16 C17_16 1_555 1_555
H21_16 C17_16 1_555 1_555
C18_16 C9_16 1_555 1_555
C19_16 C8_16 1_555 1_555
C20_16 C19_16 1_555 1_555
H22_16 C20_16 1_555 1_555
H23_16 C20_16 1_555 1_555
H24_16 C20_16 1_555 1_555
Ag7_2 N4_16 1_555 1_555
N4_16 C19_16 1_555 1_555
C17_16 C18_16 1_555 1_555
N5_2 C8_17 1_555 1_555
C5_17 H4_17 1_555 1_555
H5_17 C5_17 1_555 1_555
H6_17 C5_17 1_555 1_555
C8_17 C5_17 1_555 1_555
C9_17 N5_2 1_555 1_555
C10_17 C9_17 1_555 1_555
H7_17 C10_17 1_555 1_555
H8_17 C10_17 1_555 1_555
H9_17 C10_17 1_555 1_555
N4_17 C18_17 1_555 1_555
C17_17 H19_17 1_555 1_555
H20_17 C17_17 1_555 1_555
H21_17 C17_17 1_555 1_555
C18_17 C9_17 1_555 1_555
C19_17 C8_17 1_555 1_555
C20_17 C19_17 1_555 1_555
H22_17 C20_17 1_555 1_555
H23_17 C20_17 1_555 1_555
H24_17 C20_17 1_555 1_555
Ag7 N4_17 1_555 1_555
N4_17 C19_17 1_555 1_555
C17_17 C18_17 1_555 1_555
N5 C8_18 1_555 1_555
C5_18 H4_18 1_555 1_555
H5_18 C5_18 1_555 1_555
H6_18 C5_18 1_555 1_555
C8_18 C5_18 1_555 1_555
C9_18 N5 1_555 1_555
C10_18 C9_18 1_555 1_555
H7_18 C10_18 1_555 1_555
H8_18 C10_18 1_555 1_555
H9_18 C10_18 1_555 1_555
N4_18 C18_18 1_555 1_555
C17_18 H19_18 1_555 1_555
H20_18 C17_18 1_555 1_555
H21_18 C17_18 1_555 1_555
C18_18 C9_18 1_555 1_555
C19_18 C8_18 1_555 1_555
C20_18 C19_18 1_555 1_555
H22_18 C20_18 1_555 1_555
H23_18 C20_18 1_555 1_555
H24_18 C20_18 1_555 1_555
Ag8 N4_18 1_555 1_555
N4_18 C19_18 1_555 1_555
C17_18 C18_18 1_555 1_555
N1_12 C7_10 1_555 1_555
C7_10 C4_10 1_555 1_555
C11_10 C7_10 1_555 1_555
C12_10 C11_10 1_555 1_555
H10_10 C12_10 1_555 1_555
H11_10 C12_10 1_555 1_555
H12_10 C12_10 1_555 1_555
N3_5 C11_10 1_555 1_555
C13_10 H13_10 1_555 1_555
H14_10 C13_10 1_555 1_555
H15_10 C13_10 1_555 1_555
C14_10 N1_12 1_555 1_555
C15_10 N3_5 1_555 1_555
C16_10 C15_10 1_555 1_555
H16_10 C16_10 1_555 1_555
H17_10 C16_10 1_555 1_555
H18_10 C16_10 1_555 1_555
F7_10 C22_10 1_555 1_555
F8_10 C22_10 1_555 1_555
C22_10 C24_10 1_555 1_555
O11 C24_10 1_555 1_555
C24_10 O12_8 1_555 1_555
Ag9_4 O11 1_555 1_555
Ag10_5 N3_5 1_555 1_555
C13_10 C14_10 1_555 1_555
C14_10 C15_10 1_555 1_555
F1_10 C1_10 1_555 1_555
F2_10 C1_10 1_555 1_555
F3_10 C2_10 1_555 1_555
F4_10 C2_10 1_555 1_555
C1_10 C2_10 1_555 1_555
O2_10 Ag1_12 1_555 1_555
C2_10 C6_10 1_555 1_555
C3_10 C1_10 1_555 1_555
O11_9 C6_10 1_555 1_555
C6_10 O12_3 1_555 1_555
Ag3_5 O11_9 1_555 1_555
Ag6_3 O5_10 1_555 1_555
F5_10 C21_10 1_555 1_555
F6_10 C21_10 1_555 1_555
O5_10 C23_10 1_555 1_555
O6_10 Ag1_12 1_555 1_555
C23_10 C21_10 1_555 1_555
O11_3 Ag3_5 1_555 1_555
N6_8 Ag3_5 1_555 1_555
O1_10 C3_10 1_555 1_555
O2_10 C3_10 1_555 1_555
O6_10 C23_10 1_555 1_555
N6_9 Ag9_4 1_555 1_555
F1_11 C1_11 1_555 1_555
F2_11 C1_11 1_555 1_555
F3_11 C2_11 1_555 1_555
F4_11 C2_11 1_555 1_555
C1_11 C2_11 1_555 1_555
O2_11 Ag1_13 1_555 1_555
C2_11 C6_11 1_555 1_555
C3_11 C1_11 1_555 1_555
O11_8 C6_11 1_555 1_555
C6_11 O12 1_555 1_555
Ag5_6 O5_11 1_555 1_555
F5_11 C21_11 1_555 1_555
F6_11 C21_11 1_555 1_555
O5_11 C23_11 1_555 1_555
O6_11 Ag1_13 1_555 1_555
C23_11 C21_11 1_555 1_555
O1_11 C3_11 1_555 1_555
O2_11 C3_11 1_555 1_555
O6_11 C23_11 1_555 1_555
N1_13 C7_11 1_555 1_555
C7_11 C4_11 1_555 1_555
C11_11 C7_11 1_555 1_555
C12_11 C11_11 1_555 1_555
H10_11 C12_11 1_555 1_555
H11_11 C12_11 1_555 1_555
H12_11 C12_11 1_555 1_555
N6_8 C11_11 1_555 1_555
C13_11 H13_11 1_555 1_555
H14_11 C13_11 1_555 1_555
H15_11 C13_11 1_555 1_555
C14_11 N1_13 1_555 1_555
C15_11 N6_8 1_555 1_555
C16_11 C15_11 1_555 1_555
H16_11 C16_11 1_555 1_555
H17_11 C16_11 1_555 1_555
H18_11 C16_11 1_555 1_555
F7_11 C22_11 1_555 1_555
F8_11 C22_11 1_555 1_555
C22_11 C24_11 1_555 1_555
O11_2 C24_11 1_555 1_555
C24_11 O12_7 1_555 1_555
Ag10_5 O11_2 1_555 1_555
C13_11 C14_11 1_555 1_555
C14_11 C15_11 1_555 1_555
Ag1_14 N1_14 1_555 1_555
N1_14 C7_12 1_555 1_555
F1_12 C1_12 1_555 1_555
F2_12 C1_12 1_555 1_555
F3_12 C2_12 1_555 1_555
F4_12 C2_12 1_555 1_555
C1_12 C2_12 1_555 1_555
O2_12 Ag1_14 1_555 1_555
C2_12 C6_12 1_555 1_555
C3_12 C1_12 1_555 1_555
C4_12 H1_12 1_555 1_555
H2_12 C4_12 1_555 1_555
H3_12 C4_12 1_555 1_555
O11_7 C6_12 1_555 1_555
C6_12 O12_2 1_555 1_555
C7_12 C4_12 1_555 1_555
C11_12 C7_12 1_555 1_555
C12_12 C11_12 1_555 1_555
H10_12 C12_12 1_555 1_555
H11_12 C12_12 1_555 1_555
H12_12 C12_12 1_555 1_555
N6_9 C11_12 1_555 1_555
C13_12 H13_12 1_555 1_555
H14_12 C13_12 1_555 1_555
H15_12 C13_12 1_555 1_555
C14_12 N1_14 1_555 1_555
C15_12 N6_9 1_555 1_555
C16_12 C15_12 1_555 1_555
H16_12 C16_12 1_555 1_555
H17_12 C16_12 1_555 1_555
H18_12 C16_12 1_555 1_555
Ag5_5 O5_12 1_555 1_555
F5_12 C21_12 1_555 1_555
F6_12 C21_12 1_555 1_555
F7_12 C22_12 1_555 1_555
F8_12 C22_12 1_555 1_555
C21_12 C22_12 1_555 1_555
O5_12 C23_12 1_555 1_555
O6_12 Ag1_14 1_555 1_555
C22_12 C24_12 1_555 1_555
C23_12 C21_12 1_555 1_555
O11_3 C24_12 1_555 1_555
C24_12 O12_9 1_555 1_555
O1_12 C3_12 1_555 1_555
O2_12 C3_12 1_555 1_555
C13_12 C14_12 1_555 1_555
C14_12 C15_12 1_555 1_555
O6_12 C23_12 1_555 1_555
O11_6 Ag3_6 1_555 1_555
N6_10 Ag3_6 1_555 1_555
F1_13 C1_13 1_555 1_555
F2_13 C1_13 1_555 1_555
F3_13 C2_13 1_555 1_555
F4_13 C2_13 1_555 1_555
C1_13 C2_13 1_555 1_555
O1_13 Ag5_3 1_555 1_555
O2_13 Ag1_15 1_555 1_555
C2_13 C6_13 1_555 1_555
C3_13 C1_13 1_555 1_555
O10_7 C6_13 1_555 1_555
C6_13 O12_6 1_555 1_555
Ag8_3 O5_13 1_555 1_555
F5_13 C21_13 1_555 1_555
F6_13 C21_13 1_555 1_555
O5_13 C23_13 1_555 1_555
O6_13 Ag1_15 1_555 1_555
C23_13 C21_13 1_555 1_555
O1_13 C3_13 1_555 1_555
O2_13 C3_13 1_555 1_555
O6_13 C23_13 1_555 1_555
N1_15 C7_13 1_555 1_555
C7_13 C4_13 1_555 1_555
C11_13 C7_13 1_555 1_555
C12_13 C11_13 1_555 1_555
H10_13 C12_13 1_555 1_555
H11_13 C12_13 1_555 1_555
H12_13 C12_13 1_555 1_555
N3_6 C11_13 1_555 1_555
C13_13 H13_13 1_555 1_555
H14_13 C13_13 1_555 1_555
H15_13 C13_13 1_555 1_555
C14_13 N1_15 1_555 1_555
C15_13 N3_6 1_555 1_555
C16_13 C15_13 1_555 1_555
H16_13 C16_13 1_555 1_555
H17_13 C16_13 1_555 1_555
H18_13 C16_13 1_555 1_555
F7_13 C22_13 1_555 1_555
F8_13 C22_13 1_555 1_555
C22_13 C24_13 1_555 1_555
O11_4 C24_13 1_555 1_555
C24_13 O13_8 1_555 1_555
Ag9_5 O11_4 1_555 1_555
Ag10_6 N3_6 1_555 1_555
C13_13 C14_13 1_555 1_555
C14_13 C15_13 1_555 1_555
Ag1_16 N1_16 1_555 1_555
N1_16 C7_14 1_555 1_555
F1_14 C1_14 1_555 1_555
F2_14 C1_14 1_555 1_555
F3_14 C2_14 1_555 1_555
F4_14 C2_14 1_555 1_555
C1_14 C2_14 1_555 1_555
O1_14 Ag5_4 1_555 1_555
O2_14 Ag1_16 1_555 1_555
C2_14 C6_14 1_555 1_555
C3_14 C1_14 1_555 1_555
C4_14 H1_14 1_555 1_555
H2_14 C4_14 1_555 1_555
H3_14 C4_14 1_555 1_555
O10_8 C6_14 1_555 1_555
C6_14 O12_4 1_555 1_555
C7_14 C4_14 1_555 1_555
C11_14 C7_14 1_555 1_555
C12_14 C11_14 1_555 1_555
H10_14 C12_14 1_555 1_555
H11_14 C12_14 1_555 1_555
H12_14 C12_14 1_555 1_555
N6_10 C11_14 1_555 1_555
C13_14 H13_14 1_555 1_555
H14_14 C13_14 1_555 1_555
H15_14 C13_14 1_555 1_555
C14_14 N1_16 1_555 1_555
C15_14 N6_10 1_555 1_555
C16_14 C15_14 1_555 1_555
H16_14 C16_14 1_555 1_555
H17_14 C16_14 1_555 1_555
H18_14 C16_14 1_555 1_555
Ag7_5 O5_14 1_555 1_555
F5_14 C21_14 1_555 1_555
F6_14 C21_14 1_555 1_555
F7_14 C22_14 1_555 1_555
F8_14 C22_14 1_555 1_555
C21_14 C22_14 1_555 1_555
O5_14 C23_14 1_555 1_555
O6_14 Ag1_16 1_555 1_555
C22_14 C24_14 1_555 1_555
C23_14 C21_14 1_555 1_555
O11_5 C24_14 1_555 1_555
C24_14 O13_9 1_555 1_555
Ag10_6 O11_5 1_555 1_555
O1_14 C3_14 1_555 1_555
O2_14 C3_14 1_555 1_555
C13_14 C14_14 1_555 1_555
C14_14 C15_14 1_555 1_555
O6_14 C23_14 1_555 1_555
N6_11 Ag9_5 1_555 1_555
N1_17 C7_15 1_555 1_555
C7_15 C4_15 1_555 1_555
C11_15 C7_15 1_555 1_555
C12_15 C11_15 1_555 1_555
H10_15 C12_15 1_555 1_555
H11_15 C12_15 1_555 1_555
H12_15 C12_15 1_555 1_555
N6_11 C11_15 1_555 1_555
C13_15 H13_15 1_555 1_555
H14_15 C13_15 1_555 1_555
H15_15 C13_15 1_555 1_555
C14_15 N1_17 1_555 1_555
C15_15 N6_11 1_555 1_555
C16_15 C15_15 1_555 1_555
H16_15 C16_15 1_555 1_555
H17_15 C16_15 1_555 1_555
H18_15 C16_15 1_555 1_555
F7_15 C22_15 1_555 1_555
F8_15 C22_15 1_555 1_555
C22_15 C24_15 1_555 1_555
O11_6 C24_15 1_555 1_555
C24_15 O13_7 1_555 1_555
C13_15 C14_15 1_555 1_555
C14_15 C15_15 1_555 1_555
F1_15 C1_15 1_555 1_555
F2_15 C1_15 1_555 1_555
F3_15 C2_15 1_555 1_555
F4_15 C2_15 1_555 1_555
C1_15 C2_15 1_555 1_555
O1_15 Ag6_2 1_555 1_555
O2_15 Ag1_17 1_555 1_555
C2_15 C6_15 1_555 1_555
C3_15 C1_15 1_555 1_555
O10_9 C6_15 1_555 1_555
C6_15 O12_5 1_555 1_555
Ag10_6 O10_9 1_555 1_555
Ag7_6 O5_15 1_555 1_555
F5_15 C21_15 1_555 1_555
F6_15 C21_15 1_555 1_555
O5_15 C23_15 1_555 1_555
O6_15 Ag1_17 1_555 1_555
C23_15 C21_15 1_555 1_555
O1_15 C3_15 1_555 1_555
O2_15 C3_15 1_555 1_555
O6_15 C23_15 1_555 1_555
O10 Ag3_7 1_555 1_555
N6_12 Ag3_7 1_555 1_555
Ag1_18 N1_18 1_555 1_555
N1_18 C7_16 1_555 1_555
F1_16 C1_16 1_555 1_555
F2_16 C1_16 1_555 1_555
F3_16 C2_16 1_555 1_555
F4_16 C2_16 1_555 1_555
C1_16 C2_16 1_555 1_555
O2_16 Ag1_18 1_555 1_555
C2_16 C6_16 1_555 1_555
C3_16 C1_16 1_555 1_555
C4_16 H1_16 1_555 1_555
H2_16 C4_16 1_555 1_555
H3_16 C4_16 1_555 1_555
O10_4 C6_16 1_555 1_555
C6_16 O13 1_555 1_555
C7_16 C4_16 1_555 1_555
C11_16 C7_16 1_555 1_555
C12_16 C11_16 1_555 1_555
H10_16 C12_16 1_555 1_555
H11_16 C12_16 1_555 1_555
H12_16 C12_16 1_555 1_555
N3_7 C11_16 1_555 1_555
Ag3_8 O10_4 1_555 1_555
N6_13 Ag3_8 1_555 1_555
Ag10_7 N3_7 1_555 1_555
O1_16 C3_16 1_555 1_555
O2_16 C3_16 1_555 1_555
Ag1_19 N1_19 1_555 1_555
C13_16 H13_16 1_555 1_555
H14_16 C13_16 1_555 1_555
H15_16 C13_16 1_555 1_555
C14_16 N1_19 1_555 1_555
C15_16 N3_8 1_555 1_555
C16_16 C15_16 1_555 1_555
H16_16 C16_16 1_555 1_555
H17_16 C16_16 1_555 1_555
H18_16 C16_16 1_555 1_555
F5_16 C21_16 1_555 1_555
F6_16 C21_16 1_555 1_555
F7_16 C22_16 1_555 1_555
F8_16 C22_16 1_555 1_555
C21_16 C22_16 1_555 1_555
O5_16 C23_16 1_555 1_555
O6_16 Ag1_19 1_555 1_555
C22_16 C24_16 1_555 1_555
C23_16 C21_16 1_555 1_555
O10_3 C24_16 1_555 1_555
C24_16 O13_5 1_555 1_555
Ag9_6 O10_3 1_555 1_555
Ag10_8 N3_8 1_555 1_555
C13_16 C14_16 1_555 1_555
C14_16 C15_16 1_555 1_555
O6_16 C23_16 1_555 1_555
Ag1_20 N1_20 1_555 1_555
C13_17 H13_17 1_555 1_555
H14_17 C13_17 1_555 1_555
H15_17 C13_17 1_555 1_555
C14_17 N1_20 1_555 1_555
C15_17 N6_12 1_555 1_555
C16_17 C15_17 1_555 1_555
H16_17 C16_17 1_555 1_555
H17_17 C16_17 1_555 1_555
H18_17 C16_17 1_555 1_555
F5_17 C21_17 1_555 1_555
F6_17 C21_17 1_555 1_555
F7_17 C22_17 1_555 1_555
F8_17 C22_17 1_555 1_555
C21_17 C22_17 1_555 1_555
O5_17 C23_17 1_555 1_555
O6_17 Ag1_20 1_555 1_555
C22_17 C24_17 1_555 1_555
C23_17 C21_17 1_555 1_555
O10_2 C24_17 1_555 1_555
C24_17 O13_6 1_555 1_555
Ag10_8 O10_2 1_555 1_555
C13_17 C14_17 1_555 1_555
C14_17 C15_17 1_555 1_555
O6_17 C23_17 1_555 1_555
Ag1_21 N1_21 1_555 1_555
N1_21 C7_17 1_555 1_555
F1_17 C1_17 1_555 1_555
F2_17 C1_17 1_555 1_555
F3_17 C2_17 1_555 1_555
F4_17 C2_17 1_555 1_555
C1_17 C2_17 1_555 1_555
O2_17 Ag1_21 1_555 1_555
C2_17 C6_17 1_555 1_555
C3_17 C1_17 1_555 1_555
C4_17 H1_17 1_555 1_555
H2_17 C4_17 1_555 1_555
H3_17 C4_17 1_555 1_555
O10_5 C6_17 1_555 1_555
C6_17 O13_3 1_555 1_555
C7_17 C4_17 1_555 1_555
C11_17 C7_17 1_555 1_555
C12_17 C11_17 1_555 1_555
H10_17 C12_17 1_555 1_555
H11_17 C12_17 1_555 1_555
H12_17 C12_17 1_555 1_555
N6_13 C11_17 1_555 1_555
Ag9_6 O10_5 1_555 1_555
N6_14 Ag9_6 1_555 1_555
O1_17 C3_17 1_555 1_555
O2_17 C3_17 1_555 1_555
Ag1_22 N1_22 1_555 1_555
N1_22 C7_18 1_555 1_555
F1_18 C1_18 1_555 1_555
F2_18 C1_18 1_555 1_555
F3_18 C2_18 1_555 1_555
F4_18 C2_18 1_555 1_555
C1_18 C2_18 1_555 1_555
O1_18 Ag8 1_555 1_555
O2_18 Ag1_22 1_555 1_555
C2_18 C6_18 1_555 1_555
C3_18 C1_18 1_555 1_555
C4_18 H1_18 1_555 1_555
H2_18 C4_18 1_555 1_555
H3_18 C4_18 1_555 1_555
O10_6 C6_18 1_555 1_555
C6_18 O13_2 1_555 1_555
C7_18 C4_18 1_555 1_555
C11_18 C7_18 1_555 1_555
C12_18 C11_18 1_555 1_555
H10_18 C12_18 1_555 1_555
H11_18 C12_18 1_555 1_555
H12_18 C12_18 1_555 1_555
N6_14 C11_18 1_555 1_555
Ag10_7 O10_6 1_555 1_555
C13_18 H13_18 1_555 1_555
H14_18 C13_18 1_555 1_555
H15_18 C13_18 1_555 1_555
C14_18 N1_22 1_555 1_555
C15_18 N6_14 1_555 1_555
C16_18 C15_18 1_555 1_555
H16_18 C16_18 1_555 1_555
H17_18 C16_18 1_555 1_555
H18_18 C16_18 1_555 1_555
Ag7_4 O5_18 1_555 1_555
F5_18 C21_18 1_555 1_555
F6_18 C21_18 1_555 1_555
F7_18 C22_18 1_555 1_555
F8_18 C22_18 1_555 1_555
C21_18 C22_18 1_555 1_555
O5_18 C23_18 1_555 1_555
O6_18 Ag1_22 1_555 1_555
C22_18 C24_18 1_555 1_555
C23_18 C21_18 1_555 1_555
O10 C24_18 1_555 1_555
C24_18 O13_4 1_555 1_555
O1_18 C3_18 1_555 1_555
O2_18 C3_18 1_555 1_555
C13_18 C14_18 1_555 1_555
C14_18 C15_18 1_555 1_555
O6_18 C23_18 1_555 1_555

#END
