
###############################################################################
#
# This file contains modified crystal structure data generated from the
# MOF subset of the Cambridge Structural Database (CSD) v543 
# hosted by the Cambridge Crystallographic Data Centre (CCDC).
#
# This work is licensed under the Creative Commons
# Attribution-NonCommercial-ShareAlike 4.0 International License.
# To view a copy of this license, visit
# http://creativecommons.org/licenses/by-nc-sa/4.0/
# or send a letter to
# Creative Commons, PO Box 1866, Mountain View, CA 94042, USA.
#
# CIF created using the CSD Python API on 29 September 2022
# The structure has been converted into the P1 space group
# The structure has a 3D framework
# The original CSD entry ZEGVIT is in the rhombohedral crystal system
# The framework has been calculated to contain at least 10.0% void space
# The void calculation uses a probe of radius 1.32A, grid spacing 0.4
#
###############################################################################

data_ZEGVIT
_chemical_formula_moiety         '(C1728 H1728 Ag278 F576 N288 O576)n'
_symmetry_cell_setting           triclinic
_symmetry_space_group_name_H-M   'P 1'
_symmetry_Int_Tables_number      1
_space_group_name_Hall           'P 1'
loop_
_symmetry_equiv_pos_site_id
_symmetry_equiv_pos_as_xyz
1 x,y,z
_cell_length_a                   50.0474(6)
_cell_length_b                   50.0474(6)
_cell_length_c                   32.7348(4)
_cell_angle_alpha                90
_cell_angle_beta                 90
_cell_angle_gamma                120
_cell_volume                     71007.4
loop_
_atom_site_label
_atom_site_type_symbol
_atom_site_fract_x
_atom_site_fract_y
_atom_site_fract_z
Ag1 Ag 0.31604(2) 0.33391(2) 0.60987(3)
Ag2 Ag 0.49866(2) 0.34812(2) 0.76007(3)
Ag3 Ag 0.48241(2) 0.31357(2) 0.42686(3)
Ag4 Ag 0.31194(2) 0.32593(2) 0.51979(2)
Ag5 Ag 0.33583(2) 0.37466(2) 0.44643(3)
Ag6 Ag 0.49569(2) 0.34805(2) 0.66930(3)
Ag7 Ag 0.30934(2) 0.33413(2) 0.70001(2)
Ag8 Ag 0.45747(2) 0.33037(2) 0.59038(3)
Ag9 Ag 0.48175(2) 0.30118(2) 0.51638(3)
Ag10 Ag 0.49888(2) 0.35595(2) 0.84987(3)
O1 O 0.6548(2) 0.4566(3) 0.7441(3)
F1 F 0.36325(16) 0.43808(22) 0.59774(19)
F2 F 0.40468(14) 0.35439(15) 0.6881(2)
F3 F 0.41064(14) 0.36463(14) 0.75402(18)
F4 F 0.60173(15) 0.40681(15) 0.75282(19)
F5 F 0.58704(14) 0.45289(14) 0.7639(2)
F6 F 0.57380(14) 0.37987(14) 0.50257(19)
F7 F 0.21038(14) 0.24817(14) 0.61583(19)
F8 F 0.52444(15) 0.27726(14) 0.66647(19)
F9 F 0.56315(15) 0.42086(15) 0.5824(2)
F10 F 0.59322(15) 0.45096(14) 0.82929(19)
F11 F 0.42743(14) 0.36476(15) 0.50678(19)
O2 O 0.37575(18) 0.36357(18) 0.4447(2)
F12 F 0.21260(14) 0.24195(14) 0.68161(18)
O3 O 0.26612(17) 0.29699(18) 0.6192(2)
F13 F 0.57998(15) 0.37613(14) 0.5680(2)
F14 F 0.31139(15) 0.42205(16) 0.51694(19)
O4 O 0.62840(18) 0.43224(25) 0.5663(2)
F15 F 0.37842(15) 0.29570(15) 0.4548(2)
F16 F 0.38278(14) 0.29355(15) 0.7036(2)
F17 F 0.25271(21) 0.22085(15) 0.66918(19)
O5 O 0.53763(19) 0.39797(18) 0.7664(2)
F18 F 0.61289(16) 0.40937(15) 0.81712(19)
F19 F 0.30264(14) 0.42305(14) 0.58274(19)
N1 N 0.5267(2) 0.3576(2) 0.4235(3)
F20 F 0.53121(15) 0.28510(15) 0.6010(2)
F21 F 0.46372(15) 0.23502(14) 0.65326(19)
F22 F 0.42349(14) 0.35614(15) 0.44027(19)
F23 F 0.54935(15) 0.41711(15) 0.51890(19)
O6 O 0.2075(3) 0.1774(2) 0.5971(3)
F24 F 0.25563(21) 0.23267(15) 0.60432(18)
N2 N 0.3602(2) 0.3339(2) 0.6078(3)
O7 O 0.34212(18) 0.30153(25) 0.7778(2)
O8 O 0.54629(17) 0.39355(18) 0.8331(2)
O9 O 0.65401(18) 0.47110(26) 0.8079(3)
O10 O 0.34241(18) 0.3155(2) 0.7123(2)
O11 O 0.3543(2) 0.48602(28) 0.5284(3)
O12 O 0.36503(18) 0.49058(25) 0.5957(2)
O13 O 0.46041(18) 0.35994(18) 0.7523(2)
O14 O 0.30686(18) 0.37301(18) 0.5927(2)
F25 F 0.37213(14) 0.44253(20) 0.53177(19)
O15 O 0.32172(18) 0.37545(17) 0.5275(2)
F26 F 0.38684(15) 0.30344(15) 0.52040(19)
O16 O 0.43419(18) 0.30273(18) 0.4456(2)
N3 N 0.3370(2) 0.4741(3) 0.4270(3)
O17 O 0.27016(19) 0.28623(18) 0.6848(2)
O18 O 0.36389(18) 0.34318(18) 0.5078(2)
O19 O 0.44274(19) 0.3121(2) 0.5127(2)
O20 O 0.44864(18) 0.33985(19) 0.6884(2)
C1 C 0.5272(3) 0.3843(3) 0.4310(3)
O21 O 0.1888(3) 0.1813(2) 0.6590(3)
N4 N 0.4989(2) 0.3039(2) 0.7583(3)
C2 C 0.5605(3) 0.3469(2) 0.6621(3)
H1 H 0.5401 0.3339 0.6729
H2 H 0.5751 0.3439 0.6776
H3 H 0.5610 0.3416 0.6340
O22 O 0.52537(25) 0.23022(18) 0.5915(3)
N5 N 0.4145(2) 0.3328(2) 0.6023(3)
O23 O 0.47966(19) 0.29599(19) 0.6570(2)
N6 N 0.2750(2) 0.2769(2) 0.5229(3)
O24 O 0.4673(2) 0.2896(2) 0.5912(2)
O25 O 0.61577(19) 0.43961(28) 0.5037(2)
O26 O 0.5138(2) 0.3526(2) 0.5314(3)
F27 F 0.47067(15) 0.23910(14) 0.58841(18)
N7 N 0.4991(3) 0.2493(2) 0.7497(2)
C3 C 0.3858(3) 0.3886(2) 0.5915(3)
H4 H 0.3866 0.3919 0.5625
H5 H 0.4031 0.4058 0.6042
H6 H 0.3670 0.3866 0.6022
N8 N 0.2270(3) 0.2167(2) 0.5146(3)
F28 F 0.39543(14) 0.30388(14) 0.76823(18)
N9 N 0.3366(2) 0.4193(2) 0.4355(3)
C4 C 0.3606(3) 0.3075(2) 0.6136(3)
C5 C 0.4980(3) 0.3823(3) 0.4449(4)
H7 H 0.4811 0.3668 0.4293
H8 H 0.4991 0.4018 0.4410
H9 H 0.4948 0.3769 0.4733
C6 C 0.5512(3) 0.3276(3) 0.4053(3)
H10 H 0.5319 0.3110 0.4152
H11 H 0.5679 0.3268 0.4184
H12 H 0.5524 0.3256 0.3763
C7 C 0.2817(3) 0.4473(4) 0.4102(4)
H13 H 0.2820 0.4647 0.4230
H14 H 0.2638 0.4286 0.4191
H15 H 0.2809 0.4491 0.3810
C8 C 0.4752(3) 0.2829(3) 0.6242(3)
O27 O 0.51929(25) 0.22288(18) 0.6593(2)
C9 C 0.3868(3) 0.3599(2) 0.6001(3)
C10 C 0.3627(3) 0.4460(3) 0.4390(3)
C11 C 0.2580(2) 0.2811(3) 0.6511(3)
C12 C 0.5246(3) 0.3036(3) 0.7605(3)
C13 C 0.5538(3) 0.4019(3) 0.5493(3)
C14 C 0.5858(3) 0.4337(3) 0.7948(3)
C15 C 0.4425(3) 0.2777(3) 0.7477(4)
H16 H 0.4425 0.2915 0.7680
H17 H 0.4254 0.2573 0.7524
H18 H 0.4407 0.2846 0.7211
C16 C 0.3586(2) 0.4775(3) 0.5619(3)
C17 C 0.3155(2) 0.3850(2) 0.5592(3)
C18 C 0.4802(3) 0.2549(3) 0.6238(3)
C19 C 0.3540(2) 0.4440(3) 0.5629(3)
C20 C 0.6436(2) 0.4550(4) 0.7781(3)
C21 C 0.3880(2) 0.3067(2) 0.6092(3)
C22 C 0.3104(3) 0.4191(3) 0.4272(3)
C23 C 0.4075(2) 0.3462(2) 0.4765(3)
C24 C 0.4287(2) 0.3090(2) 0.4810(3)
C25 C 0.3922(3) 0.5045(3) 0.4405(3)
H19 H 0.3892 0.5208 0.4300
H20 H 0.4088 0.5043 0.4262
H21 H 0.3970 0.5079 0.4691
C26 C 0.5256(3) 0.2764(3) 0.7561(3)
C27 C 0.3206(2) 0.4183(2) 0.5548(3)
C28 C 0.2084(4) 0.1913(3) 0.6295(4)
C29 C 0.4006(2) 0.3139(2) 0.4838(3)
C30 C 0.4146(2) 0.3596(2) 0.5986(3)
C31 C 0.5811(2) 0.3859(3) 0.4133(3)
C32 C 0.3794(3) 0.3517(2) 0.4768(3)
C33 C 0.3534(3) 0.3102(4) 0.7436(4)
C34 C 0.5534(3) 0.3338(3) 0.7712(3)
H22 H 0.5491 0.3504 0.7693
H23 H 0.5697 0.3373 0.7526
H24 H 0.5596 0.3326 0.7986
C35 C 0.2291(2) 0.2488(3) 0.6469(3)
C36 C 0.3144(2) 0.2620(3) 0.5132(3)
H25 H 0.3187 0.2586 0.4857
H26 H 0.3179 0.2491 0.5315
H27 H 0.3276 0.2832 0.5204
C37 C 0.5552(3) 0.4125(2) 0.4261(3)
C38 C 0.5531(3) 0.3579(3) 0.4147(3)
C39 C 0.5686(2) 0.3802(3) 0.6649(3)
N10 N 0.5451(2) 0.3860(2) 0.6716(3)
C40 C 0.6111(3) 0.4264(3) 0.7858(3)
C41 C 0.4434(4) 0.2192(2) 0.7434(3)
H28 H 0.4307 0.2152 0.7672
H29 H 0.4325 0.2199 0.7197
H30 H 0.4483 0.2030 0.7403
C42 C 0.4716(3) 0.2769(3) 0.7503(3)
C43 C 0.2568(3) 0.2239(2) 0.5117(3)
C44 C 0.5532(3) 0.4050(2) 0.7989(3)
C45 C 0.2630(3) 0.1973(2) 0.5045(3)
H31 H 0.2689 0.1920 0.5298
H32 H 0.2795 0.2036 0.4851
H33 H 0.2448 0.1798 0.4941
C46 C 0.4451(2) 0.3887(2) 0.5931(3)
H34 H 0.4506 0.4005 0.6180
H35 H 0.4436 0.4007 0.5713
H36 H 0.4607 0.3835 0.5866
C47 C 0.3854(2) 0.3128(3) 0.7359(3)
N11 N 0.6047(2) 0.4333(3) 0.6631(3)
C48 C 0.2811(2) 0.2541(3) 0.5163(3)
C49 C 0.5512(2) 0.4149(2) 0.6739(3)
O28 O 0.5078(2) 0.3724(2) 0.5875(3)
C50 C 0.5207(4) 0.2357(3) 0.6274(4)
C51 C 0.4439(3) 0.3493(3) 0.7221(3)
N12 N 0.5815(2) 0.4126(2) 0.4172(3)
C52 C 0.2217(3) 0.2402(2) 0.5206(3)
C53 C 0.4724(4) 0.2492(2) 0.7482(3)
C54 C 0.6110(3) 0.3872(3) 0.4058(3)
H37 H 0.6152 0.3771 0.4277
H38 H 0.6272 0.4084 0.4043
H39 H 0.6100 0.3771 0.3805
C55 C 0.5250(2) 0.4203(2) 0.6797(3)
H40 H 0.5086 0.4073 0.6615
H41 H 0.5316 0.4416 0.6740
H42 H 0.5178 0.4156 0.7074
C56 C 0.5817(2) 0.4392(2) 0.6690(3)
C57 C 0.5545(3) 0.2749(3) 0.7567(3)
H43 H 0.5614 0.2762 0.7843
H44 H 0.5701 0.2918 0.7411
H45 H 0.5507 0.2558 0.7448
C58 C 0.5218(3) 0.3724(3) 0.5580(4)
C59 C 0.4113(2) 0.3460(2) 0.7237(3)
C60 C 0.2393(2) 0.2966(2) 0.5306(3)
H46 H 0.2583 0.3150 0.5370
H47 H 0.2249 0.2918 0.5525
H48 H 0.2309 0.2997 0.5058
C61 C 0.5983(2) 0.4038(3) 0.6610(3)
C62 C 0.2810(3) 0.3882(3) 0.4250(3)
H49 H 0.2843 0.3744 0.4083
H50 H 0.2649 0.3908 0.4134
H51 H 0.2751 0.3797 0.4520
C63 C 0.1882(4) 0.2317(3) 0.5229(3)
H52 H 0.1754 0.2114 0.5118
H53 H 0.1852 0.2463 0.5074
H54 H 0.1826 0.2320 0.5509
C64 C 0.2455(2) 0.2701(2) 0.5248(3)
C65 C 0.3924(3) 0.4454(3) 0.4444(3)
H55 H 0.3881 0.4263 0.4571
H56 H 0.4063 0.4623 0.4614
H57 H 0.4018 0.4471 0.4182
C66 C 0.5895(2) 0.4723(2) 0.6709(3)
H58 H 0.5862 0.4772 0.6981
H59 H 0.5765 0.4755 0.6522
H60 H 0.6107 0.4854 0.6635
C67 C 0.6248(2) 0.3987(3) 0.6554(3)
H61 H 0.6387 0.4074 0.6781
H62 H 0.6355 0.4085 0.6306
H63 H 0.6175 0.3770 0.6539
C68 C 0.3630(3) 0.4740(3) 0.4347(3)
C69 C 0.5795(3) 0.3954(3) 0.5391(4)
C70 C 0.3306(3) 0.2790(3) 0.6220(3)
H64 H 0.3235 0.2803 0.6488
H65 H 0.3333 0.2613 0.6204
H66 H 0.3157 0.2771 0.6021
C71 C 0.3103(3) 0.4464(4) 0.4216(3)
C72 C 0.2365(4) 0.2233(3) 0.6367(4)
C73 C 0.3891(3) 0.2771(2) 0.6128(3)
H67 H 0.3866 0.2681 0.5862
H68 H 0.3727 0.2630 0.6303
H69 H 0.4086 0.2815 0.6241
C74 C 0.5577(3) 0.4436(3) 0.4312(3)
H70 H 0.5379 0.4417 0.4267
H71 H 0.5722 0.4578 0.4117
H72 H 0.5646 0.4511 0.4583
C75 C 0.6114(3) 0.4253(4) 0.5356(3)
C76 C 0.5142(3) 0.2637(3) 0.6306(3)
Ag11 Ag 0.54237(3) 0.16671(2) 0.40559(3)
Ag12 Ag 0.49163(3) 0.14238(2) 0.33001(3)
F29 F 0.53298(20) 0.25795(14) 0.34635(19)
F30 F 0.52430(20) 0.25468(14) 0.41116(18)
F31 F 0.46297(24) 0.20976(14) 0.39514(19)
F32 F 0.47205(25) 0.21949(14) 0.33003(19)
O29 O 0.48526(30) 0.27778(17) 0.3405(2)
O30 O 0.50991(26) 0.19412(19) 0.3452(2)
O31 O 0.46983(29) 0.26499(16) 0.4053(2)
O32 O 0.53152(27) 0.20657(19) 0.4080(3)
C77 C 0.5181(4) 0.2092(3) 0.3779(4)
N13 N 0.4434(3) 0.1069(2) 0.3158(3)
N14 N 0.3827(4) 0.0611(3) 0.3126(2)
C78 C 0.4813(5) 0.2318(3) 0.3683(4)
C79 C 0.3893(4) 0.0896(4) 0.3188(3)
C80 C 0.4369(3) 0.0780(2) 0.3107(3)
C81 C 0.4053(4) 0.0542(3) 0.3086(3)
C82 C 0.3639(4) 0.0963(4) 0.3233(3)
H73 H 0.3569 0.0930 0.3511
H74 H 0.3711 0.1174 0.3160
H75 H 0.3472 0.0830 0.3057
C83 C 0.4781(5) 0.2609(3) 0.3726(4)
C84 C 0.3965(4) 0.0211(4) 0.3027(3)
H76 H 0.3961 0.0169 0.2740
H77 H 0.4113 0.0172 0.3160
H78 H 0.3764 0.0080 0.3142
C85 C 0.4624(4) 0.0716(3) 0.3071(3)
H79 H 0.4799 0.0868 0.3221
H80 H 0.4561 0.0515 0.3180
H81 H 0.4679 0.0723 0.2789
C86 C 0.4292(3) 0.1465(2) 0.3267(3)
H82 H 0.4509 0.1592 0.3220
H83 H 0.4181 0.1523 0.3082
H84 H 0.4245 0.1492 0.3543
C87 C 0.5146(4) 0.2380(3) 0.3760(3)
C88 C 0.4198(3) 0.1134(2) 0.3198(3)
Ag13 Ag 0.52050(3) 0.18291(2) 0.48586(3)
N15 N 0.5084(3) 0.2198(2) 0.4950(3)
N16 N 0.4950(4) 0.2664(2) 0.5004(3)
C89 C 0.4548(4) 0.1807(2) 0.4851(3)
H85 H 0.4599 0.1673 0.5000
H86 H 0.4353 0.1776 0.4943
H87 H 0.4538 0.1762 0.4565
C90 C 0.4794(4) 0.2138(3) 0.4925(3)
C91 C 0.5488(4) 0.3057(3) 0.5104(4)
H88 H 0.5572 0.3078 0.5373
H89 H 0.5648 0.3115 0.4905
H90 H 0.5399 0.3188 0.5078
C92 C 0.4395(4) 0.2309(2) 0.4905(4)
H91 H 0.4396 0.2501 0.4879
H92 H 0.4300 0.2184 0.4668
H93 H 0.4281 0.2202 0.5144
C93 C 0.5634(4) 0.2556(3) 0.5045(4)
H94 H 0.5736 0.2617 0.4785
H95 H 0.5744 0.2719 0.5240
H96 H 0.5632 0.2373 0.5137
C94 C 0.5312(4) 0.2494(3) 0.5005(4)
C95 C 0.4725(4) 0.2374(2) 0.4942(3)
C96 C 0.5245(4) 0.2731(3) 0.5036(4)
Ag14 Ag 0.70546(2) 0.49935(3) 0.73870(3)
Ag15 Ag 0.66420(2) 0.48239(3) 0.57705(3)
Ag16 Ag 0.65394(2) 0.47001(3) 0.66664(3)
Ag17 Ag 0.34074(2) 0.31934(3) 0.85312(2)
Ag18 Ag 0.29201(2) 0.29450(3) 0.77976(3)
Ag19 Ag 0.35812(3) 0.35733(2) 0.36668(2)
Ag20 Ag 0.33413(2) 0.02479(3) 0.29999(2)
Ag21 Ag 0.19040(3) 0.16779(2) 0.51654(3)
Ag22 Ag 0.68928(2) 0.52374(3) 0.81680(3)
O33 O 0.30310(18) 0.34551(25) 0.7780(2)
O34 O 0.6968(4) 0.5408(3) 0.7362(3)
O35 O 0.29274(31) 0.32455(18) 0.4445(2)
O36 O 0.51624(32) 0.32068(18) 0.8588(3)
O37 O 0.48602(28) 0.13172(34) 0.4716(3)
O38 O 0.49058(25) 0.12555(31) 0.4043(2)
N17 N 0.6630(2) 0.5259(3) 0.5730(3)
O39 O 0.6742(4) 0.5221(3) 0.6743(3)
O40 O 0.70485(31) 0.47463(25) 0.5915(3)
O41 O 0.56039(28) 0.17616(34) 0.5037(2)
N18 N 0.7502(4) 0.5009(3) 0.7497(2)
N19 N 0.4500(2) 0.3436(4) 0.8479(3)
O42 O 0.70359(31) 0.48071(25) 0.6593(2)
N20 N 0.5874(2) 0.1689(3) 0.4172(3)
Ag23 Ag 0.62434(4) 0.45763(3) 0.40559(3)
Ag24 Ag 0.37566(4) 0.54237(3) 0.59441(3)
Ag25 Ag 0.50004(2) 0.29101(4) 0.26108(3)
Ag26 Ag 0.34925(4) 0.49163(3) 0.66999(3)
Ag27 Ag 0.47571(2) 0.31742(4) 0.33666(3)
O43 O 0.54081(34) 0.15193(30) 0.3262(2)
N21 N 0.3216(5) 0.3827(4) 0.6874(2)
Ag28 Ag 0.66241(4) 0.47950(3) 0.48586(3)
Ag29 Ag 0.33759(4) 0.52050(3) 0.51414(3)
Ag30 Ag 0.50065(3) 0.20611(4) 0.73870(3)
Ag31 Ag 0.16602(3) 0.12722(4) 0.59463(3)
Ag32 Ag 0.51761(3) 0.18181(4) 0.57705(3)
Ag33 Ag 0.33580(2) 0.51761(3) 0.42295(3)
Ag34 Ag 0.52999(3) 0.18393(4) 0.66664(3)
Ag35 Ag 0.13668(3) 0.14940(4) 0.66669(3)
Ag2_2 Ag 0.65188(2) 0.15054(3) 0.76007(3)
Ag3_2 Ag 0.68643(2) 0.16884(3) 0.42686(3)
Ag6_2 Ag 0.65195(2) 0.14764(3) 0.66930(3)
Ag8_2 Ag 0.66963(2) 0.12710(3) 0.59038(3)
Ag9_2 Ag 0.69882(2) 0.18057(3) 0.51638(3)
Ag10_2 Ag 0.64405(2) 0.14293(3) 0.84987(3)
O1_2 O 0.5434(3) 0.1982(4) 0.7441(3)
F2_2 F 0.64561(15) 0.05029(21) 0.6881(2)
F3_2 F 0.63537(14) 0.04601(20) 0.75402(18)
F4_2 F 0.59319(15) 0.19492(21) 0.75282(19)
F5_2 F 0.54711(14) 0.13415(20) 0.7639(2)
F6_2 F 0.62013(14) 0.19393(20) 0.50257(19)
F8_2 F 0.72274(14) 0.24718(21) 0.66647(19)
F9_2 F 0.57914(15) 0.14229(21) 0.5824(2)
F10_2 F 0.54904(14) 0.14226(21) 0.82929(19)
F11_2 F 0.63524(15) 0.06267(21) 0.50678(19)
O2_2 O 0.63643(18) 0.01218(25) 0.4447(2)
F13_2 F 0.62387(14) 0.20385(21) 0.5680(2)
O4_2 O 0.56776(25) 0.19616(31) 0.5663(2)
F15_2 F 0.70430(15) 0.08272(21) 0.4548(2)
F16_2 F 0.70645(15) 0.08923(21) 0.7036(2)
F17_2 F 0.77915(15) 0.03186(26) 0.66918(19)
O5_2 O 0.60203(18) 0.13966(26) 0.7664(2)
F18_2 F 0.59063(15) 0.20352(22) 0.81712(19)
N1_2 N 0.6424(2) 0.1691(3) 0.4235(3)
F20_2 F 0.71490(15) 0.24611(21) 0.6010(2)
F21_2 F 0.76498(14) 0.22870(21) 0.65326(19)
F22_2 F 0.64386(15) 0.06735(21) 0.44027(19)
F23_2 F 0.58289(15) 0.13224(21) 0.51890(19)
O6_2 O 0.8226(2) 0.0301(4) 0.5971(3)
F24_2 F 0.76733(15) 0.02296(26) 0.60432(18)
N2_2 N 0.6661(2) 0.0263(3) 0.6078(3)
O7_2 O 0.69847(25) 0.04059(31) 0.7778(2)
O8_2 O 0.60645(18) 0.15274(25) 0.8331(2)
O9_2 O 0.52890(26) 0.18291(32) 0.8079(3)
O10_2 O 0.6845(2) 0.02691(27) 0.7123(2)
O13_2 O 0.64006(18) 0.10047(25) 0.7523(2)
F26_2 F 0.69656(15) 0.08340(21) 0.52040(19)
O16_2 O 0.69727(18) 0.13146(25) 0.4456(2)
O18_2 O 0.65682(18) 0.02071(25) 0.5078(2)
O19_2 O 0.6879(2) 0.13064(28) 0.5127(2)
O20_2 O 0.66015(19) 0.10879(26) 0.6884(2)
C1_2 C 0.6157(3) 0.1429(4) 0.4310(3)
O21_2 O 0.8187(2) 0.0075(4) 0.6590(3)
N4_2 N 0.6961(2) 0.1950(3) 0.7583(3)
C2_2 C 0.6531(2) 0.2136(4) 0.6621(3)
H1_2 H 0.6661 0.2062 0.6729
H2_2 H 0.6561 0.2312 0.6776
H3_2 H 0.6584 0.2194 0.6340
O22_2 O 0.76978(18) 0.29515(31) 0.5915(3)
N5_2 N 0.6672(2) 0.0817(3) 0.6023(3)
O23_2 O 0.70401(19) 0.18367(27) 0.6570(2)
O24_2 O 0.7104(2) 0.1777(3) 0.5912(2)
O26_2 O 0.6474(2) 0.1612(3) 0.5314(3)
F27_2 F 0.76090(14) 0.23157(21) 0.58841(18)
N7_2 N 0.7507(2) 0.2498(4) 0.7497(2)
N8_2 N 0.7833(2) 0.0103(4) 0.5146(3)
F28_2 F 0.69612(14) 0.09155(20) 0.76823(18)
C4_2 C 0.6925(2) 0.0531(4) 0.6136(3)
C5_2 C 0.6177(3) 0.1157(4) 0.4449(4)
H7_2 H 0.6332 0.1143 0.4293
H8_2 H 0.5982 0.0973 0.4410
H9_2 H 0.6231 0.1179 0.4733
C6_2 C 0.6724(3) 0.2236(4) 0.4053(3)
H10_2 H 0.6890 0.2209 0.4152
H11_2 H 0.6732 0.2411 0.4184
H12_2 H 0.6744 0.2268 0.3763
C8_2 C 0.7171(3) 0.1923(4) 0.6242(3)
O27_2 O 0.77712(18) 0.29641(31) 0.6593(2)
C9_2 C 0.6401(2) 0.0269(4) 0.6001(3)
C12_2 C 0.6964(3) 0.2210(4) 0.7605(3)
C13_2 C 0.5981(3) 0.1519(4) 0.5493(3)
C14_2 C 0.5663(3) 0.1521(4) 0.7948(3)
C15_2 C 0.7223(3) 0.1648(4) 0.7477(4)
H16_2 H 0.7085 0.1510 0.7680
H17_2 H 0.7427 0.1681 0.7524
H18_2 H 0.7154 0.1561 0.7211
C18_2 C 0.7451(3) 0.2253(4) 0.6238(3)
C20_2 C 0.5450(4) 0.1886(4) 0.7781(3)
C21_2 C 0.6933(2) 0.0813(3) 0.6092(3)
C23_2 C 0.6538(2) 0.0613(3) 0.4765(3)
C24_2 C 0.6910(2) 0.1197(3) 0.4810(3)
C26_2 C 0.7236(3) 0.2492(4) 0.7561(3)
C28_2 C 0.8087(3) 0.0171(5) 0.6295(4)
C29_2 C 0.6861(2) 0.0867(3) 0.4838(3)
C30_2 C 0.6404(2) 0.0550(3) 0.5986(3)
C31_2 C 0.6141(3) 0.1952(4) 0.4133(3)
C32_2 C 0.6483(2) 0.0277(4) 0.4768(3)
C33_2 C 0.6898(4) 0.0432(5) 0.7436(4)
C34_2 C 0.6662(3) 0.2196(4) 0.7712(3)
H22_2 H 0.6496 0.1987 0.7693
H23_2 H 0.6627 0.2324 0.7526
H24_2 H 0.6674 0.2270 0.7986
C36_2 C 0.7380(3) 0.0524(4) 0.5132(3)
H25_2 H 0.7414 0.0601 0.4857
H26_2 H 0.7509 0.0688 0.5315
H27_2 H 0.7168 0.0444 0.5204
C37_2 C 0.5875(2) 0.1427(4) 0.4261(3)
C38_2 C 0.6421(3) 0.1952(4) 0.4147(3)
C39_2 C 0.6198(3) 0.1884(4) 0.6649(3)
N10_2 N 0.6140(2) 0.1591(3) 0.6716(3)
C40_2 C 0.5736(3) 0.1847(4) 0.7858(3)
C41_2 C 0.7808(2) 0.2242(4) 0.7434(3)
H28_2 H 0.7848 0.2155 0.7672
H29_2 H 0.7801 0.2126 0.7197
H30_2 H 0.7970 0.2453 0.7403
C42_2 C 0.7231(3) 0.1947(4) 0.7503(3)
C43_2 C 0.7761(2) 0.0329(4) 0.5117(3)
C44_2 C 0.5950(2) 0.1482(4) 0.7989(3)
C45_2 C 0.8027(2) 0.0657(4) 0.5045(3)
H31_2 H 0.8080 0.0769 0.5298
H32_2 H 0.7964 0.0759 0.4851
H33_2 H 0.8202 0.0650 0.4941
C46_2 C 0.6113(2) 0.0564(3) 0.5931(3)
H34_2 H 0.5995 0.0501 0.6180
H35_2 H 0.5993 0.0429 0.5713
H36_2 H 0.6165 0.0772 0.5866
C47_2 C 0.6872(3) 0.0726(4) 0.7359(3)
N11_2 N 0.5667(3) 0.1714(4) 0.6631(3)
C48_2 C 0.7459(3) 0.0270(4) 0.5163(3)
C49_2 C 0.5851(2) 0.1363(3) 0.6739(3)
O28_2 O 0.6276(2) 0.1354(3) 0.5875(3)
C50_2 C 0.7643(3) 0.2850(5) 0.6274(4)
C51_2 C 0.6507(3) 0.0946(4) 0.7221(3)
C53_2 C 0.7508(2) 0.2232(4) 0.7482(3)
C54_2 C 0.6128(3) 0.2238(4) 0.4058(3)
H37_2 H 0.6229 0.2381 0.4277
H38_2 H 0.5916 0.2188 0.4043
H39_2 H 0.6229 0.2329 0.3805
C55_2 C 0.5797(2) 0.1047(3) 0.6797(3)
H40_2 H 0.5927 0.1013 0.6615
H41_2 H 0.5584 0.0900 0.6740
H42_2 H 0.5844 0.1022 0.7074
C56_2 C 0.5608(2) 0.1425(3) 0.6690(3)
C57_2 C 0.7251(3) 0.2796(4) 0.7567(3)
H43_2 H 0.7238 0.2852 0.7843
H44_2 H 0.7082 0.2783 0.7411
H45_2 H 0.7442 0.2949 0.7448
C58_2 C 0.6276(3) 0.1494(4) 0.5580(4)
C59_2 C 0.6540(2) 0.0653(3) 0.7237(3)
C61_2 C 0.5962(3) 0.1945(4) 0.6610(3)
C66_2 C 0.5277(2) 0.1172(3) 0.6709(3)
H58_2 H 0.5228 0.1090 0.6981
H59_2 H 0.5245 0.1010 0.6522
H60_2 H 0.5146 0.1253 0.6635
C67_2 C 0.6013(3) 0.2261(4) 0.6554(3)
H61_2 H 0.5926 0.2313 0.6781
H62_2 H 0.5915 0.2270 0.6306
H63_2 H 0.6230 0.2405 0.6539
C69_2 C 0.6046(3) 0.1841(4) 0.5391(4)
C70_2 C 0.7210(3) 0.0516(4) 0.6220(3)
H64_2 H 0.7197 0.0432 0.6488
H65_2 H 0.7387 0.0720 0.6204
H66_2 H 0.7229 0.0386 0.6021
C72_2 C 0.7767(3) 0.0132(5) 0.6367(4)
C73_2 C 0.7229(2) 0.1120(4) 0.6128(3)
H67_2 H 0.7319 0.1185 0.5862
H68_2 H 0.7370 0.1097 0.6303
H69_2 H 0.7185 0.1271 0.6241
C74_2 C 0.5564(3) 0.1141(4) 0.4312(3)
H70_2 H 0.5583 0.0962 0.4267
H71_2 H 0.5422 0.1144 0.4117
H72_2 H 0.5489 0.1135 0.4583
C75_2 C 0.5747(4) 0.1861(5) 0.5356(3)
C76_2 C 0.7363(3) 0.2505(4) 0.6306(3)
Ag11_2 Ag 0.83329(2) 0.37566(4) 0.40559(3)
Ag12_2 Ag 0.85762(2) 0.34925(4) 0.33001(3)
F29_2 F 0.74205(14) 0.27503(24) 0.34635(19)
F30_2 F 0.74532(14) 0.26962(24) 0.41116(18)
F31_2 F 0.79024(14) 0.25321(28) 0.39514(19)
F32_2 F 0.78051(14) 0.25256(29) 0.33003(19)
O29_2 O 0.72222(17) 0.20748(34) 0.3405(2)
O30_2 O 0.80588(19) 0.31579(32) 0.3452(2)
O31_2 O 0.73501(16) 0.20484(33) 0.4053(2)
O32_2 O 0.79343(19) 0.32495(33) 0.4080(3)
C77_2 C 0.7908(3) 0.3089(5) 0.3779(4)
N13_2 N 0.8931(2) 0.3365(4) 0.3158(3)
N14_2 N 0.9389(3) 0.3216(5) 0.3126(2)
C78_2 C 0.7682(3) 0.2495(6) 0.3683(4)
C79_2 C 0.9104(4) 0.2997(6) 0.3188(3)
C80_2 C 0.9220(2) 0.3589(4) 0.3107(3)
C81_2 C 0.9458(3) 0.3511(5) 0.3086(3)
C82_2 C 0.9037(4) 0.2676(6) 0.3233(3)
H73_2 H 0.9070 0.2639 0.3511
H74_2 H 0.8826 0.2537 0.3160
H75_2 H 0.9170 0.2642 0.3057
C83_2 C 0.7391(3) 0.2172(6) 0.3726(4)
C84_2 C 0.9789(4) 0.3754(6) 0.3027(3)
H76_2 H 0.9831 0.3792 0.2740
H77_2 H 0.9828 0.3941 0.3160
H78_2 H 0.9920 0.3684 0.3142
C85_2 C 0.9284(3) 0.3908(5) 0.3071(3)
H79_2 H 0.9132 0.3931 0.3221
H80_2 H 0.9485 0.4046 0.3180
H81_2 H 0.9277 0.3956 0.2789
C86_2 C 0.8535(2) 0.2827(4) 0.3267(3)
H82_2 H 0.8408 0.2917 0.3220
H83_2 H 0.8477 0.2658 0.3082
H84_2 H 0.8508 0.2753 0.3543
C87_2 C 0.7620(3) 0.2766(5) 0.3760(3)
C88_2 C 0.8866(2) 0.3064(4) 0.3198(3)
Ag13_2 Ag 0.81709(2) 0.33759(4) 0.48586(3)
N15_2 N 0.7802(2) 0.2886(4) 0.4950(3)
N16_2 N 0.7336(2) 0.2286(4) 0.5004(3)
C89_2 C 0.8193(2) 0.2741(4) 0.4851(3)
H85_2 H 0.8327 0.2926 0.5000
H86_2 H 0.8224 0.2577 0.4943
H87_2 H 0.8238 0.2776 0.4565
C90_2 C 0.7862(3) 0.2656(5) 0.4925(3)
C91_2 C 0.6943(3) 0.2431(5) 0.5104(4)
H88_2 H 0.6922 0.2494 0.5373
H89_2 H 0.6885 0.2533 0.4905
H90_2 H 0.6812 0.2211 0.5078
C92_2 C 0.7691(2) 0.2086(4) 0.4905(4)
H91_2 H 0.7499 0.1895 0.4879
H92_2 H 0.7816 0.2116 0.4668
H93_2 H 0.7798 0.2079 0.5144
C93_2 C 0.7444(3) 0.3078(5) 0.5045(4)
H94_2 H 0.7383 0.3119 0.4785
H95_2 H 0.7281 0.3025 0.5240
H96_2 H 0.7627 0.3259 0.5137
C94_2 C 0.7506(3) 0.2818(5) 0.5005(4)
C95_2 C 0.7626(2) 0.2351(4) 0.4942(3)
C96_2 C 0.7269(3) 0.2514(5) 0.5036(4)
Ag17_2 Ag 0.68066(3) 0.02139(4) 0.85312(2)
Ag19_2 Ag 0.64267(2) 0.00080(4) 0.36668(2)
Ag20_2 Ag 0.97521(3) 0.30934(4) 0.29999(2)
Ag21_2 Ag 0.83221(2) 0.02262(4) 0.51654(3)
Ag22_2 Ag 0.47626(3) 0.16555(4) 0.81680(3)
O34_2 O 0.4592(3) 0.1559(5) 0.7362(3)
O36_2 O 0.67932(18) 0.19557(37) 0.8588(3)
O37_2 O 0.86828(34) 0.35430(44) 0.4716(3)
O38_2 O 0.87445(31) 0.36503(40) 0.4043(2)
N17_2 N 0.4741(3) 0.1371(4) 0.5730(3)
O39_2 O 0.4779(3) 0.1520(5) 0.6743(3)
O41_2 O 0.82384(34) 0.38423(44) 0.5037(2)
N19_2 N 0.6564(4) 0.1063(4) 0.8479(3)
N20_2 N 0.8311(3) 0.4185(4) 0.4172(3)
Ag25_2 Ag 0.70899(4) 0.20904(4) 0.26108(3)
Ag27_2 Ag 0.68258(4) 0.15830(4) 0.33666(3)
O43_2 O 0.84807(30) 0.38889(45) 0.3262(2)
Ag30_2 Ag 0.79389(4) 0.29454(5) 0.73870(3)
Ag31_2 Ag 0.87278(4) 0.03879(5) 0.59463(3)
Ag32_2 Ag 0.81819(4) 0.33580(5) 0.57705(3)
Ag34_2 Ag 0.81607(4) 0.34606(5) 0.66664(3)
Ag1_2 Ag 0.66609(2) 0.98213(3) 0.60987(3)
Ag4_2 Ag 0.67407(2) 0.98601(3) 0.51979(2)
Ag5_2 Ag 0.62534(2) 0.96117(3) 0.44643(3)
Ag7_2 Ag 0.66587(2) 0.97521(3) 0.70001(2)
F1_2 F 0.56192(22) 0.92517(27) 0.59774(19)
F7_2 F 0.75183(14) 0.96221(20) 0.61583(19)
F12_2 F 0.75805(14) 0.97065(20) 0.68161(18)
O3_2 O 0.70301(18) 0.96913(25) 0.6192(2)
F14_2 F 0.57795(16) 0.88934(22) 0.51694(19)
F19_2 F 0.57695(14) 0.87959(20) 0.58274(19)
O11_2 O 0.51398(28) 0.86828(34) 0.5284(3)
O12_2 O 0.50942(25) 0.87445(31) 0.5957(2)
O14_2 O 0.62699(18) 0.93385(25) 0.5927(2)
F25_2 F 0.55747(20) 0.92960(24) 0.53177(19)
O15_2 O 0.62455(17) 0.94627(25) 0.5275(2)
N3_2 N 0.5259(3) 0.8629(4) 0.4270(3)
O17_2 O 0.71377(18) 0.98393(26) 0.6848(2)
N6_2 N 0.7231(2) 0.9981(3) 0.5229(3)
C3_2 C 0.6114(2) 0.9972(4) 0.5915(3)
H4_2 H 0.6081 0.9947 0.5625
H5_2 H 0.5942 0.9973 0.6042
H6_2 H 0.6134 0.9804 0.6022
N9_2 N 0.5807(2) 0.9173(3) 0.4355(3)
C7_2 C 0.5527(4) 0.8344(5) 0.4102(4)
H13_2 H 0.5353 0.8173 0.4230
H14_2 H 0.5714 0.8352 0.4191
H15_2 H 0.5509 0.8318 0.3810
C10_2 C 0.5540(3) 0.9167(4) 0.4390(3)
C11_2 C 0.7189(3) 0.9769(4) 0.6511(3)
C16_2 C 0.5225(3) 0.8811(4) 0.5619(3)
C17_2 C 0.6150(2) 0.9305(3) 0.5592(3)
C19_2 C 0.5560(3) 0.9100(4) 0.5629(3)
C22_2 C 0.5809(3) 0.8913(4) 0.4272(3)
C25_2 C 0.4955(3) 0.8877(4) 0.4405(3)
H19_2 H 0.4792 0.8684 0.4300
H20_2 H 0.4957 0.9045 0.4262
H21_2 H 0.4921 0.8891 0.4691
C27_2 C 0.5817(2) 0.9023(3) 0.5548(3)
C35_2 C 0.7512(3) 0.9803(4) 0.6469(3)
C52_2 C 0.7598(2) 0.9815(4) 0.5206(3)
C60_2 C 0.7034(2) 0.9427(3) 0.5306(3)
H46_2 H 0.6850 0.9433 0.5370
H47_2 H 0.7082 0.9331 0.5525
H48_2 H 0.7003 0.9312 0.5058
C62_2 C 0.6118(3) 0.8928(4) 0.4250(3)
H49_2 H 0.6256 0.9099 0.4083
H50_2 H 0.6092 0.8741 0.4134
H51_2 H 0.6203 0.8954 0.4520
C63_2 C 0.7683(3) 0.9565(5) 0.5229(3)
H52_2 H 0.7886 0.9640 0.5118
H53_2 H 0.7537 0.9389 0.5074
H54_2 H 0.7680 0.9506 0.5509
C64_2 C 0.7299(2) 0.9754(3) 0.5248(3)
C65_2 C 0.5546(3) 0.9470(4) 0.4444(3)
H55_2 H 0.5737 0.9618 0.4571
H56_2 H 0.5377 0.9440 0.4614
H57_2 H 0.5529 0.9547 0.4182
C68_2 C 0.5260(3) 0.8890(4) 0.4347(3)
C71_2 C 0.5536(4) 0.8639(5) 0.4216(3)
Ag18_2 Ag 0.70550(3) 0.99750(4) 0.77976(3)
O33_2 O 0.65449(25) 0.95758(31) 0.7780(2)
O35_2 O 0.67545(18) 0.96820(36) 0.4445(2)
Ag24_2 Ag 0.45763(3) 0.83329(5) 0.59441(3)
Ag26_2 Ag 0.50837(3) 0.85762(5) 0.66999(3)
N21_2 N 0.6173(4) 0.9389(6) 0.6874(2)
Ag29_2 Ag 0.47950(3) 0.81709(5) 0.51414(3)
Ag33_2 Ag 0.48239(3) 0.81819(4) 0.42295(3)
Ag35_2 Ag 0.85060(4) 0.98727(5) 0.66669(3)
Ag1_3 Ag 0.01787(3) 0.68396(2) 0.60987(3)
Ag4_3 Ag 0.01399(3) 0.68806(2) 0.51979(2)
Ag5_3 Ag 0.03883(3) 0.66417(2) 0.44643(3)
Ag7_3 Ag 0.02479(3) 0.69066(2) 0.70001(2)
F1_3 F 0.07483(27) 0.63675(16) 0.59774(19)
F7_3 F 0.03779(20) 0.78962(14) 0.61583(19)
F12_3 F 0.02935(20) 0.78740(14) 0.68161(18)
O3_3 O 0.03087(25) 0.73388(17) 0.6192(2)
F14_3 F 0.11066(22) 0.68861(15) 0.51694(19)
F19_3 F 0.12041(20) 0.69736(14) 0.58274(19)
O11_3 O 0.13172(34) 0.6457(2) 0.5284(3)
O12_3 O 0.12555(31) 0.63497(18) 0.5957(2)
O14_3 O 0.06615(25) 0.69314(18) 0.5927(2)
F25_3 F 0.07040(24) 0.62787(14) 0.53177(19)
O15_3 O 0.05373(25) 0.67828(18) 0.5275(2)
N3_3 N 0.1371(4) 0.6630(2) 0.4270(3)
O17_3 O 0.01607(26) 0.72984(19) 0.6848(2)
N6_3 N 0.0019(3) 0.7250(2) 0.5229(3)
C3_3 C 0.0028(4) 0.6142(3) 0.5915(3)
H4_3 H 0.0053 0.6134 0.5625
H5_3 H 0.0027 0.5969 0.6042
H6_3 H 0.0196 0.6330 0.6022
N9_3 N 0.0827(3) 0.6634(2) 0.4355(3)
C7_3 C 0.1656(5) 0.7183(3) 0.4102(4)
H13_3 H 0.1827 0.7180 0.4230
H14_3 H 0.1648 0.7362 0.4191
H15_3 H 0.1682 0.7191 0.3810
C10_3 C 0.0833(4) 0.6373(3) 0.4390(3)
C11_3 C 0.0231(4) 0.7420(2) 0.6511(3)
C16_3 C 0.1189(4) 0.6414(2) 0.5619(3)
C17_3 C 0.0695(3) 0.6845(2) 0.5592(3)
C19_3 C 0.0900(4) 0.6460(2) 0.5629(3)
C22_3 C 0.1087(4) 0.6896(3) 0.4272(3)
C25_3 C 0.1123(4) 0.6078(3) 0.4405(3)
H19_3 H 0.1316 0.6108 0.4300
H20_3 H 0.0955 0.5912 0.4262
H21_3 H 0.1109 0.6030 0.4691
C27_3 C 0.0977(3) 0.6794(2) 0.5548(3)
C35_3 C 0.0197(4) 0.7709(2) 0.6469(3)
C52_3 C 0.0185(4) 0.7783(3) 0.5206(3)
C60_3 C 0.0573(3) 0.7607(2) 0.5306(3)
H46_3 H 0.0567 0.7417 0.5370
H47_3 H 0.0669 0.7751 0.5525
H48_3 H 0.0688 0.7691 0.5058
C62_3 C 0.1072(4) 0.7190(3) 0.4250(3)
H49_3 H 0.0901 0.7157 0.4083
H50_3 H 0.1259 0.7351 0.4134
H51_3 H 0.1046 0.7249 0.4520
C63_3 C 0.0435(5) 0.8118(4) 0.5229(3)
H52_3 H 0.0360 0.8246 0.5118
H53_3 H 0.0611 0.8148 0.5074
H54_3 H 0.0494 0.8174 0.5509
C64_3 C 0.0246(3) 0.7545(2) 0.5248(3)
C65_3 C 0.0530(4) 0.6076(3) 0.4444(3)
H55_3 H 0.0382 0.6119 0.4571
H56_3 H 0.0560 0.5937 0.4614
H57_3 H 0.0453 0.5982 0.4182
C68_3 C 0.1110(4) 0.6370(3) 0.4347(3)
C71_3 C 0.1361(5) 0.6897(3) 0.4216(3)
Ag18_3 Ag 0.00250(4) 0.70799(2) 0.77976(3)
O33_3 O 0.04242(31) 0.69690(18) 0.7780(2)
O35_3 O 0.03180(36) 0.70726(31) 0.4445(2)
Ag24_3 Ag 0.16671(5) 0.62434(4) 0.59441(3)
Ag26_3 Ag 0.14238(5) 0.65075(4) 0.66999(3)
N21_3 N 0.0611(6) 0.6784(5) 0.6874(2)
Ag29_3 Ag 0.18291(5) 0.66241(4) 0.51414(3)
Ag33_3 Ag 0.18181(4) 0.66420(2) 0.42295(3)
Ag35_3 Ag 0.01273(5) 0.86332(3) 0.66669(3)
Ag2_3 Ag 0.84946(3) 0.50134(2) 0.76007(3)
Ag3_3 Ag 0.83116(3) 0.51759(2) 0.42686(3)
Ag6_3 Ag 0.85236(3) 0.50431(2) 0.66930(3)
Ag8_3 Ag 0.87290(3) 0.54253(2) 0.59038(3)
Ag9_3 Ag 0.81943(3) 0.51825(2) 0.51638(3)
Ag10_3 Ag 0.85707(3) 0.50112(2) 0.84987(3)
O1_3 O 0.8018(4) 0.3452(2) 0.7441(3)
F2_3 F 0.94971(21) 0.59532(14) 0.6881(2)
F3_3 F 0.95399(20) 0.58936(14) 0.75402(18)
F4_3 F 0.80508(21) 0.39827(15) 0.75282(19)
F5_3 F 0.86585(20) 0.41296(14) 0.7639(2)
F6_3 F 0.80607(20) 0.42620(14) 0.50257(19)
F8_3 F 0.75282(21) 0.47556(15) 0.66647(19)
F9_3 F 0.85771(21) 0.43685(15) 0.5824(2)
F10_3 F 0.85774(21) 0.40678(15) 0.82929(19)
F11_3 F 0.93733(21) 0.57257(14) 0.50678(19)
O2_3 O 0.98782(25) 0.62425(18) 0.4447(2)
F13_3 F 0.79615(21) 0.42002(15) 0.5680(2)
O4_3 O 0.80384(31) 0.37160(18) 0.5663(2)
F15_3 F 0.91728(21) 0.62158(15) 0.4548(2)
F16_3 F 0.91077(21) 0.61722(14) 0.7036(2)
F17_3 F 0.96814(26) 0.74729(21) 0.66918(19)
O5_3 O 0.86034(26) 0.46237(19) 0.7664(2)
F18_3 F 0.79648(22) 0.38711(16) 0.81712(19)
N1_3 N 0.8309(3) 0.4733(2) 0.4235(3)
F20_3 F 0.75389(21) 0.46879(15) 0.6010(2)
F21_3 F 0.77130(21) 0.53628(15) 0.65326(19)
F22_3 F 0.93265(21) 0.57651(14) 0.44027(19)
F23_3 F 0.86776(21) 0.45065(15) 0.51890(19)
O6_3 O 0.9699(4) 0.7925(3) 0.5971(3)
F24_3 F 0.97704(26) 0.74437(21) 0.60432(18)
N2_3 N 0.9737(3) 0.6398(2) 0.6078(3)
O7_3 O 0.95941(31) 0.65788(18) 0.7778(2)
O8_3 O 0.84726(25) 0.45371(17) 0.8331(2)
O9_3 O 0.81709(32) 0.34599(18) 0.8079(3)
O10_3 O 0.97309(27) 0.65759(18) 0.7123(2)
O13_3 O 0.89953(25) 0.53959(18) 0.7523(2)
F26_3 F 0.91660(21) 0.61316(15) 0.52040(19)
O16_3 O 0.86854(25) 0.56581(18) 0.4456(2)
O18_3 O 0.97929(25) 0.63611(18) 0.5078(2)
O19_3 O 0.86936(28) 0.55726(19) 0.5127(2)
O20_3 O 0.89121(26) 0.55136(18) 0.6884(2)
C1_3 C 0.8571(4) 0.4728(3) 0.4310(3)
O21_3 O 0.9925(4) 0.8112(3) 0.6590(3)
N4_3 N 0.8050(3) 0.5011(2) 0.7583(3)
C2_3 C 0.7864(4) 0.4395(3) 0.6621(3)
H1_3 H 0.7938 0.4599 0.6729
H2_3 H 0.7688 0.4249 0.6776
H3_3 H 0.7806 0.4390 0.6340
N5_3 N 0.9183(3) 0.5855(2) 0.6023(3)
O23_3 O 0.81633(27) 0.52034(19) 0.6570(2)
O24_3 O 0.8223(3) 0.5327(2) 0.5912(2)
O26_3 O 0.8388(3) 0.4862(2) 0.5314(3)
F27_3 F 0.76843(21) 0.52933(15) 0.58841(18)
N8_3 N 0.9897(4) 0.7730(3) 0.5146(3)
F28_3 F 0.90845(20) 0.60457(14) 0.76823(18)
C4_3 C 0.9469(4) 0.6394(3) 0.6136(3)
C5_3 C 0.8843(4) 0.5020(3) 0.4449(4)
H7_3 H 0.8857 0.5189 0.4293
H8_3 H 0.9027 0.5009 0.4410
H9_3 H 0.8821 0.5052 0.4733
C6_3 C 0.7764(4) 0.4488(3) 0.4053(3)
H10_3 H 0.7791 0.4681 0.4152
H11_3 H 0.7589 0.4321 0.4184
H12_3 H 0.7732 0.4476 0.3763
C8_3 C 0.8077(4) 0.5248(3) 0.6242(3)
C9_3 C 0.9731(4) 0.6132(3) 0.6001(3)
C12_3 C 0.7790(4) 0.4754(3) 0.7605(3)
C13_3 C 0.8481(4) 0.4462(3) 0.5493(3)
C14_3 C 0.8479(4) 0.4142(3) 0.7948(3)
C15_3 C 0.8352(4) 0.5575(3) 0.7477(4)
H16_3 H 0.8490 0.5575 0.7680
H17_3 H 0.8319 0.5746 0.7524
H18_3 H 0.8439 0.5593 0.7211
C18_3 C 0.7747(4) 0.5198(3) 0.6238(3)
C20_3 C 0.8114(4) 0.3564(2) 0.7781(3)
C21_3 C 0.9187(3) 0.6120(2) 0.6092(3)
C23_3 C 0.9387(3) 0.5925(2) 0.4765(3)
C24_3 C 0.8803(3) 0.5713(2) 0.4810(3)
C26_3 C 0.7508(4) 0.4744(3) 0.7561(3)
C28_3 C 0.9829(5) 0.7916(4) 0.6295(4)
C29_3 C 0.9133(3) 0.5994(2) 0.4838(3)
C30_3 C 0.9450(3) 0.5854(2) 0.5986(3)
C31_3 C 0.8048(4) 0.4189(2) 0.4133(3)
C32_3 C 0.9723(4) 0.6206(3) 0.4768(3)
C33_3 C 0.9568(5) 0.6466(3) 0.7436(4)
C34_3 C 0.7804(4) 0.4466(3) 0.7712(3)
H22_3 H 0.8013 0.4509 0.7693
H23_3 H 0.7676 0.4303 0.7526
H24_3 H 0.7730 0.4404 0.7986
C36_3 C 0.9476(4) 0.6856(2) 0.5132(3)
H25_3 H 0.9399 0.6813 0.4857
H26_3 H 0.9312 0.6821 0.5315
H27_3 H 0.9556 0.6724 0.5204
C37_3 C 0.8573(4) 0.4448(3) 0.4261(3)
C38_3 C 0.8048(4) 0.4469(3) 0.4147(3)
C39_3 C 0.8116(4) 0.4314(2) 0.6649(3)
N10_3 N 0.8409(3) 0.4549(2) 0.6716(3)
C40_3 C 0.8153(4) 0.3889(3) 0.7858(3)
C41_3 C 0.7758(4) 0.5566(4) 0.7434(3)
H28_3 H 0.7845 0.5693 0.7672
H29_3 H 0.7874 0.5675 0.7197
H30_3 H 0.7547 0.5517 0.7403
C42_3 C 0.8053(4) 0.5284(3) 0.7503(3)
C43_3 C 0.9671(4) 0.7432(3) 0.5117(3)
C44_3 C 0.8518(4) 0.4468(3) 0.7989(3)
C45_3 C 0.9343(4) 0.7370(3) 0.5045(3)
H31_3 H 0.9231 0.7311 0.5298
H32_3 H 0.9241 0.7205 0.4851
H33_3 H 0.9350 0.7552 0.4941
C46_3 C 0.9436(3) 0.5549(2) 0.5931(3)
H34_3 H 0.9499 0.5494 0.6180
H35_3 H 0.9571 0.5564 0.5713
H36_3 H 0.9228 0.5393 0.5866
C47_3 C 0.9274(4) 0.6146(2) 0.7359(3)
N11_3 N 0.8286(4) 0.3953(2) 0.6631(3)
C48_3 C 0.9730(4) 0.7189(2) 0.5163(3)
C49_3 C 0.8637(3) 0.4488(2) 0.6739(3)
O28_3 O 0.8646(3) 0.4922(2) 0.5875(3)
C50_3 C 0.7150(5) 0.4793(4) 0.6274(4)
C51_3 C 0.9054(4) 0.5561(3) 0.7221(3)
C53_3 C 0.7768(4) 0.5276(4) 0.7482(3)
C54_3 C 0.7762(4) 0.3890(3) 0.4058(3)
H37_3 H 0.7619 0.3848 0.4277
H38_3 H 0.7812 0.3728 0.4043
H39_3 H 0.7671 0.3900 0.3805
C55_3 C 0.8953(3) 0.4750(2) 0.6797(3)
H40_3 H 0.8987 0.4914 0.6615
H41_3 H 0.9100 0.4684 0.6740
H42_3 H 0.8978 0.4822 0.7074
C56_3 C 0.8575(3) 0.4183(2) 0.6690(3)
C57_3 C 0.7204(4) 0.4455(3) 0.7567(3)
H43_3 H 0.7148 0.4386 0.7843
H44_3 H 0.7217 0.4299 0.7411
H45_3 H 0.7051 0.4493 0.7448
C58_3 C 0.8506(4) 0.4782(3) 0.5580(4)
C59_3 C 0.9347(3) 0.5887(2) 0.7237(3)
C61_3 C 0.8055(4) 0.4017(2) 0.6610(3)
C66_3 C 0.8828(3) 0.4105(2) 0.6709(3)
H58_3 H 0.8910 0.4138 0.6981
H59_3 H 0.8990 0.4235 0.6522
H60_3 H 0.8747 0.3893 0.6635
C67_3 C 0.7739(4) 0.3752(2) 0.6554(3)
H61_3 H 0.7687 0.3613 0.6781
H62_3 H 0.7730 0.3645 0.6306
H63_3 H 0.7595 0.3825 0.6539
C69_3 C 0.8159(4) 0.4205(3) 0.5391(4)
C70_3 C 0.9484(4) 0.6694(3) 0.6220(3)
H64_3 H 0.9568 0.6765 0.6488
H65_3 H 0.9280 0.6667 0.6204
H66_3 H 0.9614 0.6843 0.6021
C72_3 C 0.9868(5) 0.7635(4) 0.6367(4)
C73_3 C 0.8880(4) 0.6109(3) 0.6128(3)
H67_3 H 0.8815 0.6134 0.5862
H68_3 H 0.8903 0.6273 0.6303
H69_3 H 0.8729 0.5914 0.6241
C74_3 C 0.8859(4) 0.4423(3) 0.4312(3)
H70_3 H 0.9038 0.4621 0.4267
H71_3 H 0.8856 0.4278 0.4117
H72_3 H 0.8865 0.4354 0.4583
C75_3 C 0.8139(5) 0.3886(3) 0.5356(3)
C76_3 C 0.7495(4) 0.4858(3) 0.6306(3)
Ag12_3 Ag 0.65075(4) 0.50837(3) 0.33001(3)
F29_3 F 0.72497(24) 0.46702(20) 0.34635(19)
F30_3 F 0.73038(24) 0.47570(20) 0.41116(18)
F31_3 F 0.74679(28) 0.53703(24) 0.39514(19)
F32_3 F 0.74744(29) 0.52795(25) 0.33003(19)
O29_3 O 0.79252(34) 0.51474(30) 0.3405(2)
O30_3 O 0.68421(32) 0.49009(26) 0.3452(2)
O31_3 O 0.79516(33) 0.53017(29) 0.4053(2)
O32_3 O 0.67505(33) 0.46848(27) 0.4080(3)
C77_3 C 0.6911(5) 0.4819(4) 0.3779(4)
N13_3 N 0.6635(4) 0.5566(3) 0.3158(3)
N14_3 N 0.6784(5) 0.6173(4) 0.3126(2)
C78_3 C 0.7505(6) 0.5187(5) 0.3683(4)
C79_3 C 0.7003(6) 0.6107(4) 0.3188(3)
C80_3 C 0.6411(4) 0.5631(3) 0.3107(3)
C81_3 C 0.6489(5) 0.5947(4) 0.3086(3)
C82_3 C 0.7324(6) 0.6361(4) 0.3233(3)
H73_3 H 0.7361 0.6431 0.3511
H74_3 H 0.7463 0.6289 0.3160
H75_3 H 0.7358 0.6528 0.3057
C83_3 C 0.7828(6) 0.5219(5) 0.3726(4)
C84_3 C 0.6246(6) 0.6035(4) 0.3027(3)
H76_3 H 0.6208 0.6039 0.2740
H77_3 H 0.6059 0.5887 0.3160
H78_3 H 0.6316 0.6236 0.3142
C85_3 C 0.6092(5) 0.5376(4) 0.3071(3)
H79_3 H 0.6069 0.5201 0.3221
H80_3 H 0.5954 0.5439 0.3180
H81_3 H 0.6044 0.5321 0.2789
C86_3 C 0.7173(4) 0.5708(3) 0.3267(3)
H82_3 H 0.7083 0.5491 0.3220
H83_3 H 0.7342 0.5819 0.3082
H84_3 H 0.7247 0.5755 0.3543
C87_3 C 0.7234(5) 0.4854(4) 0.3760(3)
C88_3 C 0.6936(4) 0.5802(3) 0.3198(3)
N15_3 N 0.7114(4) 0.4916(3) 0.4950(3)
N16_3 N 0.7714(4) 0.5050(4) 0.5004(3)
C89_3 C 0.7259(4) 0.5452(4) 0.4851(3)
H85_3 H 0.7074 0.5401 0.5000
H86_3 H 0.7423 0.5647 0.4943
H87_3 H 0.7224 0.5462 0.4565
C90_3 C 0.7344(5) 0.5206(4) 0.4925(3)
C91_3 C 0.7569(5) 0.4512(4) 0.5104(4)
H88_3 H 0.7506 0.4428 0.5373
H89_3 H 0.7467 0.4352 0.4905
H90_3 H 0.7789 0.4601 0.5078
C92_3 C 0.7914(4) 0.5605(4) 0.4905(4)
H91_3 H 0.8105 0.5604 0.4879
H92_3 H 0.7884 0.5700 0.4668
H93_3 H 0.7921 0.5719 0.5144
C93_3 C 0.6922(5) 0.4366(4) 0.5045(4)
H94_3 H 0.6881 0.4264 0.4785
H95_3 H 0.6975 0.4256 0.5240
H96_3 H 0.6741 0.4368 0.5137
C94_3 C 0.7182(5) 0.4688(4) 0.5005(4)
C95_3 C 0.7649(4) 0.5275(4) 0.4942(3)
C96_3 C 0.7486(5) 0.4755(4) 0.5036(4)
Ag17_3 Ag 0.97861(4) 0.65926(2) 0.85312(2)
Ag19_3 Ag 0.99920(4) 0.64188(3) 0.36668(2)
Ag20_3 Ag 0.69066(4) 0.66587(2) 0.29999(2)
Ag21_3 Ag 0.97738(4) 0.80960(3) 0.51654(3)
Ag22_3 Ag 0.83445(4) 0.31072(2) 0.81680(3)
O34_3 O 0.8441(5) 0.3032(4) 0.7362(3)
O36_3 O 0.80443(37) 0.48376(32) 0.8588(3)
O37_3 O 0.64570(44) 0.51398(28) 0.4716(3)
O38_3 O 0.63497(40) 0.50942(25) 0.4043(2)
N17_3 N 0.8629(4) 0.3370(2) 0.5730(3)
O39_3 O 0.8480(5) 0.3258(4) 0.6743(3)
N19_3 N 0.8937(4) 0.5500(2) 0.8479(3)
Ag25_3 Ag 0.79096(4) 0.49996(2) 0.26108(3)
Ag27_3 Ag 0.84170(4) 0.52429(2) 0.33666(3)
O43_3 O 0.61111(45) 0.45919(34) 0.3262(2)
Ag31_3 Ag 0.96121(5) 0.83398(3) 0.59463(3)
Ag2_4 Ag 0.16533(2) 0.68145(2) 0.09340(3)
Ag6_4 Ag 0.16236(2) 0.68138(2) 0.00263(3)
Ag10_4 Ag 0.16555(2) 0.68928(2) 0.18320(3)
O1_4 O 0.3215(2) 0.7899(3) 0.0774(3)
F2_4 F 0.07135(14) 0.68772(15) 0.0214(2)
F3_4 F 0.07731(14) 0.69796(14) 0.08735(18)
F4_4 F 0.26840(15) 0.74014(15) 0.08615(19)
F5_4 F 0.25371(14) 0.78622(14) 0.0972(2)
F10_4 F 0.25989(15) 0.78429(14) 0.16262(19)
F16_4 F 0.04945(14) 0.62688(15) 0.0369(2)
O5_4 O 0.20430(19) 0.73130(18) 0.0997(2)
F18_4 F 0.27956(16) 0.74270(15) 0.15045(19)
O7_4 O 0.00879(18) 0.63486(25) 0.1111(2)
O8_4 O 0.21296(17) 0.72688(18) 0.1664(2)
O9_4 O 0.32068(18) 0.80443(26) 0.1412(3)
O10_4 O 0.00908(18) 0.6488(2) 0.0456(2)
O13_4 O 0.12708(18) 0.69327(18) 0.0856(2)
O20_4 O 0.11531(18) 0.67318(19) 0.0217(2)
N4_4 N 0.1656(2) 0.6372(2) 0.0916(3)
H1_4 H 0.2068 0.6672 0.0062
H2_4 H 0.2418 0.6772 0.0109
N7_3 N 0.1658(3) 0.5826(2) 0.0830(2)
F28_4 F 0.06210(14) 0.63721(14) 0.10156(18)
C12_4 C 0.1913(3) 0.6369(3) 0.0938(3)
C14_4 C 0.2525(3) 0.7670(3) 0.1281(3)
C15_4 C 0.1092(3) 0.6110(3) 0.0810(4)
H16_4 H 0.1092 0.6248 0.1013
H17_4 H 0.0921 0.5906 0.0857
H18_4 H 0.1074 0.6179 0.0544
C20_4 C 0.3103(2) 0.7883(4) 0.1114(3)
C26_4 C 0.1923(3) 0.6097(3) 0.0894(3)
C33_4 C 0.0201(3) 0.6435(4) 0.0769(4)
C34_4 C 0.2201(3) 0.6671(3) 0.1045(3)
H22_4 H 0.2158 0.6837 0.1026
H23_4 H 0.2364 0.6706 0.0859
H24_4 H 0.2263 0.6659 0.1319
N10_4 N 0.2118(2) 0.7193(2) 0.0049(3)
C40_4 C 0.2778(3) 0.7597(3) 0.1191(3)
C41_4 C 0.1101(4) 0.5525(2) 0.0767(3)
H28_4 H 0.0974 0.5485 0.1005
H29_4 H 0.0992 0.5532 0.0530
H30_4 H 0.1150 0.5363 0.0736
C42_4 C 0.1383(3) 0.6102(3) 0.0836(3)
C44_4 C 0.2199(3) 0.7383(2) 0.1322(3)
C47_4 C 0.0521(2) 0.6461(3) 0.0692(3)
C49_4 C 0.2179(2) 0.7482(2) 0.0072(3)
C51_4 C 0.1106(3) 0.6826(3) 0.0554(3)
C53_4 C 0.1391(4) 0.5825(2) 0.0815(3)
C55_4 C 0.1917(2) 0.7536(2) 0.0130(3)
H41_4 H 0.1983 0.7749 0.0073
H42_4 H 0.1845 0.7489 0.0407
C56_4 C 0.2484(2) 0.7725(2) 0.0023(3)
C57_4 C 0.2212(3) 0.6082(3) 0.0900(3)
H43_4 H 0.2281 0.6095 0.1176
H44_4 H 0.2368 0.6251 0.0744
H45_4 H 0.2174 0.5891 0.0781
C59_4 C 0.0780(2) 0.6793(2) 0.0570(3)
C66_4 C 0.2562(2) 0.8056(2) 0.0042(3)
H58_4 H 0.2529 0.8105 0.0314
H61_4 H 0.3054 0.7407 0.0114
Ag14_2 Ag 0.37213(2) 0.83268(3) 0.07203(3)
Ag16_2 Ag 0.32061(2) 0.80334(3) -0.00003(3)
Ag17_4 Ag 0.00740(2) 0.65268(3) 0.18646(2)
Ag22_4 Ag 0.35595(2) 0.85707(3) 0.15013(3)
O34_4 O 0.3634(4) 0.8742(3) 0.0696(3)
O36_4 O 0.18291(32) 0.65401(18) 0.1921(3)
O39_4 O 0.3408(4) 0.8555(3) 0.0077(3)
N18_2 N 0.4169(4) 0.8342(3) 0.0830(2)
N19_4 N 0.1166(2) 0.6770(4) 0.1813(3)
Ag26_4 Ag 0.01592(4) 0.82496(3) 0.00332(3)
Ag30_3 Ag 0.16732(3) 0.53944(4) 0.07203(3)
Ag34_3 Ag 0.19666(3) 0.51726(4) -0.00003(3)
Ag3_4 Ag 0.14908(2) 0.64690(2) 0.76019(3)
Ag8_4 Ag 0.12414(2) 0.66370(2) 0.92371(3)
Ag9_4 Ag 0.14842(2) 0.63451(2) 0.84971(3)
F1_4 F 0.02992(16) 0.77141(22) 0.93107(19)
F6_4 F 0.24047(14) 0.71320(14) 0.83590(19)
F8_4 F 0.19111(15) 0.61059(14) 0.99980(19)
F9_4 F 0.22982(15) 0.75419(15) 0.9157(2)
F11_4 F 0.09410(14) 0.69809(15) 0.84011(19)
F13_4 F 0.24665(15) 0.70946(14) 0.9013(2)
O4_4 O 0.29507(18) 0.76557(25) 0.8996(2)
F15_4 F 0.04509(15) 0.62903(15) 0.7881(2)
N1_4 N 0.1934(2) 0.6909(2) 0.7568(3)
F20_4 F 0.19788(15) 0.61843(15) 0.9343(2)
F21_4 F 0.13039(15) 0.56835(14) 0.98659(19)
F22_4 F 0.09016(14) 0.68947(15) 0.77360(19)
F23_4 F 0.21602(15) 0.75044(15) 0.85223(19)
N2_4 N 0.0269(2) 0.6672(2) 0.9411(3)
O11_4 O 0.0210(2) 0.81935(28) 0.8617(3)
O12_4 O 0.03170(18) 0.82391(25) 0.9290(2)
F25_4 F 0.03880(14) 0.77586(20) 0.86510(19)
F26_4 F 0.05351(15) 0.63677(15) 0.85373(19)
O16_4 O 0.10086(18) 0.63606(18) 0.7789(2)
N3_4 N 0.0037(2) 0.8074(3) 0.7603(3)
O18_4 O 0.03056(18) 0.67651(18) 0.8411(2)
O19_4 O 0.10941(19) 0.6454(2) 0.8460(2)
C1_4 C 0.1939(3) 0.7176(3) 0.7643(3)
C2_4 C 0.2272(3) 0.6802(2) 0.9954(3)
H3_4 H 0.2277 0.6749 0.9673
O22_3 O 0.19204(25) 0.56355(18) 0.9248(3)
N5_4 N 0.0812(2) 0.6661(2) 0.9356(3)
O23_4 O 0.14633(19) 0.62932(19) 0.9903(2)
O24_4 O 0.1340(2) 0.6229(2) 0.9245(2)
O25_2 O 0.28244(19) 0.77294(28) 0.8370(2)
O26_4 O 0.1805(2) 0.6859(2) 0.8647(3)
F27_4 F 0.13734(15) 0.57243(14) 0.92174(18)
C3_4 C 0.0525(3) 0.7219(2) 0.9248(3)
H4_4 H 0.0533 0.7252 0.8958
H5_4 H 0.0698 0.7391 0.9375
H6_4 H 0.0337 0.7199 0.9355
N9_4 N 0.0033(2) 0.7526(2) 0.7688(3)
C4_4 C 0.0273(3) 0.6408(2) 0.9469(3)
C5_4 C 0.1647(3) 0.7156(3) 0.7782(4)
H7_4 H 0.1478 0.7001 0.7626
H8_4 H 0.1658 0.7351 0.7743
H9_4 H 0.1615 0.7102 0.8066
C6_4 C 0.2179(3) 0.6609(3) 0.7386(3)
H10_4 H 0.1986 0.6443 0.7485
H11_4 H 0.2346 0.6601 0.7517
H12_4 H 0.2191 0.6589 0.7096
C8_4 C 0.1419(3) 0.6162(3) 0.9575(3)
O27_3 O 0.18596(25) 0.55621(18) 0.9926(2)
C9_4 C 0.0535(3) 0.6932(2) 0.9334(3)
C10_4 C 0.0294(3) 0.7793(3) 0.7723(3)
C13_4 C 0.2205(3) 0.7352(3) 0.8826(3)
C16_4 C 0.0253(2) 0.8108(3) 0.8952(3)
C18_4 C 0.1469(3) 0.5882(3) 0.9571(3)
C19_4 C 0.0207(2) 0.7773(3) 0.8962(3)
C21_4 C 0.0547(2) 0.6400(2) 0.9425(3)
C23_4 C 0.0742(2) 0.6795(2) 0.8098(3)
C24_4 C 0.0954(2) 0.6423(2) 0.8143(3)
C25_4 C 0.0589(3) 0.8378(3) 0.7738(3)
H19_4 H 0.0559 0.8541 0.7633
H20_4 H 0.0755 0.8376 0.7595
H21_4 H 0.0637 0.8412 0.8024
C29_4 C 0.0673(2) 0.6472(2) 0.8171(3)
C30_4 C 0.0813(2) 0.6929(2) 0.9319(3)
C31_4 C 0.2478(2) 0.7192(3) 0.7466(3)
C32_4 C 0.0461(3) 0.6850(2) 0.8101(3)
C37_4 C 0.2219(3) 0.7458(2) 0.7594(3)
C38_4 C 0.2198(3) 0.6912(3) 0.7480(3)
C39_4 C 0.2353(2) 0.7135(3) 0.9982(3)
C46_4 C 0.1118(2) 0.7220(2) 0.9264(3)
H34_4 H 0.1173 0.7338 0.9513
H35_4 H 0.1103 0.7340 0.9046
H36_4 H 0.1274 0.7168 0.9199
N11_4 N 0.2714(2) 0.7666(3) 0.9964(3)
O28_4 O 0.1745(2) 0.7057(2) 0.9208(3)
C50_4 C 0.1874(4) 0.5690(3) 0.9607(4)
N12_2 N 0.2482(2) 0.7459(2) 0.7505(3)
C54_4 C 0.2777(3) 0.7205(3) 0.7391(3)
H37_4 H 0.2819 0.7104 0.7610
H38_4 H 0.2939 0.7417 0.7376
H39_4 H 0.2767 0.7104 0.7138
H40_4 H 0.1753 0.7406 0.9948
C58_4 C 0.1885(3) 0.7057(3) 0.8913(4)
C61_4 C 0.2650(2) 0.7371(3) 0.9943(3)
C65_4 C 0.0591(3) 0.7787(3) 0.7777(3)
H55_4 H 0.0548 0.7596 0.7904
H56_4 H 0.0730 0.7956 0.7947
H57_4 H 0.0685 0.7804 0.7515
H59_4 H 0.2432 0.8088 0.9855
H60_4 H 0.2774 0.8187 0.9968
C67_4 C 0.2915(2) 0.7320(3) 0.9887(3)
H62_4 H 0.3022 0.7418 0.9639
H63_4 H 0.2842 0.7103 0.9872
C68_4 C 0.0297(3) 0.8073(3) 0.7680(3)
C69_4 C 0.2462(3) 0.7287(3) 0.8724(4)
C73_4 C 0.0558(3) 0.6104(2) 0.9461(3)
H67_4 H 0.0533 0.6014 0.9195
H68_4 H 0.0394 0.5963 0.9636
H69_4 H 0.0753 0.6148 0.9574
C74_4 C 0.2244(3) 0.7769(3) 0.7645(3)
H70_4 H 0.2046 0.7750 0.7600
H71_4 H 0.2389 0.7911 0.7450
H72_4 H 0.2313 0.7844 0.7916
C75_4 C 0.2781(3) 0.7586(4) 0.8689(3)
C76_4 C 0.1809(3) 0.5970(3) 0.9639(3)
Ag11_3 Ag 0.20904(3) 0.50004(2) 0.73892(3)
Ag12_4 Ag 0.15830(3) 0.47571(2) 0.66334(3)
F29_4 F 0.19965(20) 0.59128(14) 0.67968(19)
F30_4 F 0.19097(20) 0.58801(14) 0.74449(18)
F31_4 F 0.12964(24) 0.54309(14) 0.72847(19)
F32_4 F 0.13872(25) 0.55282(14) 0.66336(19)
O29_4 O 0.15193(30) 0.61111(17) 0.6738(2)
O30_4 O 0.17658(26) 0.52745(19) 0.6785(2)
O31_4 O 0.13650(29) 0.59832(16) 0.7386(2)
O32_4 O 0.19819(27) 0.53990(19) 0.7413(3)
C77_4 C 0.1848(4) 0.5425(3) 0.7112(4)
N13_4 N 0.1101(3) 0.4402(2) 0.6491(3)
N14_4 N 0.0494(4) 0.3944(3) 0.6459(2)
C78_4 C 0.1480(5) 0.5651(3) 0.7016(4)
C79_4 C 0.0560(4) 0.4229(4) 0.6521(3)
C80_4 C 0.1036(3) 0.4113(2) 0.6440(3)
C81_4 C 0.0720(4) 0.3875(3) 0.6419(3)
C82_4 C 0.0306(4) 0.4296(4) 0.6566(3)
H73_4 H 0.0236 0.4263 0.6844
H74_4 H 0.0378 0.4507 0.6493
H75_4 H 0.0139 0.4163 0.6390
C83_4 C 0.1448(5) 0.5942(3) 0.7059(4)
C84_4 C 0.0632(4) 0.3544(4) 0.6360(3)
H76_4 H 0.0628 0.3502 0.6073
H77_4 H 0.0780 0.3505 0.6493
H78_4 H 0.0431 0.3413 0.6475
C85_4 C 0.1291(4) 0.4049(3) 0.6404(3)
H79_4 H 0.1466 0.4201 0.6554
H80_4 H 0.1228 0.3848 0.6513
H81_4 H 0.1346 0.4056 0.6122
C86_4 C 0.0959(3) 0.4798(2) 0.6600(3)
H82_4 H 0.1176 0.4925 0.6553
H83_4 H 0.0848 0.4856 0.6415
H84_4 H 0.0912 0.4825 0.6876
C87_4 C 0.1813(4) 0.5713(3) 0.7093(3)
C88_4 C 0.0865(3) 0.4467(2) 0.6531(3)
Ag13_3 Ag 0.18717(3) 0.51624(2) 0.81919(3)
N15_4 N 0.1751(3) 0.5531(2) 0.8283(3)
N16_4 N 0.1617(4) 0.5997(2) 0.8337(3)
C89_4 C 0.1215(4) 0.5140(2) 0.8184(3)
H85_4 H 0.1266 0.5006 0.8333
H86_4 H 0.1020 0.5109 0.8276
H87_4 H 0.1205 0.5095 0.7898
C90_4 C 0.1461(4) 0.5471(3) 0.8258(3)
C91_4 C 0.2155(4) 0.6390(3) 0.8437(4)
H88_4 H 0.2239 0.6411 0.8706
H89_4 H 0.2315 0.6448 0.8238
H90_4 H 0.2066 0.6521 0.8411
C92_4 C 0.1062(4) 0.5642(2) 0.8238(4)
H91_4 H 0.1063 0.5834 0.8212
H92_4 H 0.0967 0.5517 0.8001
H93_4 H 0.0948 0.5535 0.8477
C93_4 C 0.2301(4) 0.5889(3) 0.8378(4)
H94_4 H 0.2403 0.5950 0.8118
H95_4 H 0.2411 0.6052 0.8573
H96_4 H 0.2299 0.5706 0.8470
C94_4 C 0.1979(4) 0.5827(3) 0.8338(4)
C95_4 C 0.1392(4) 0.5707(2) 0.8275(3)
C96_4 C 0.1912(4) 0.6064(3) 0.8369(4)
Ag15_2 Ag 0.33087(2) 0.81572(3) 0.91038(3)
Ag16_3 Ag 0.32061(2) 0.80334(3) 0.99997(3)
Ag20_4 Ag 0.00080(2) 0.35812(3) 0.63332(2)
O37_4 O 0.15269(28) 0.46505(34) 0.8049(3)
O38_4 O 0.15725(25) 0.45888(31) 0.7376(2)
N17_4 N 0.3297(2) 0.8592(3) 0.9063(3)
O40_2 O 0.37152(31) 0.80796(25) 0.9248(3)
O41_3 O 0.22706(28) 0.50949(34) 0.8370(2)
O42_2 O 0.37026(31) 0.81404(25) 0.9926(2)
N20_3 N 0.2541(2) 0.5022(3) 0.7505(3)
Ag23_2 Ag 0.29101(4) 0.79096(3) 0.73892(3)
Ag24_4 Ag 0.04233(4) 0.87570(3) 0.92774(3)
O43_4 O 0.20748(34) 0.48526(30) 0.6595(2)
Ag28_2 Ag 0.32908(4) 0.81283(3) 0.81919(3)
Ag29_4 Ag 0.00426(4) 0.85383(3) 0.84747(3)
Ag32_3 Ag 0.18428(3) 0.51514(4) 0.91038(3)
Ag33_4 Ag 0.00247(2) 0.85094(3) 0.75628(3)
Ag34_4 Ag 0.19666(3) 0.51726(4) 0.99997(3)
Ag7_4 Ag 0.97601(2) 0.66746(2) 0.03334(2)
F12_4 F 0.87927(14) 0.57528(14) 0.01494(18)
F17_4 F 0.91938(21) 0.55418(15) 0.00251(19)
O17_4 O 0.93683(19) 0.61956(18) 0.0181(2)
Ag18_4 Ag 0.95867(2) 0.62784(3) 0.11310(3)
O33_4 O 0.96976(18) 0.67885(25) 0.1114(2)
N21_4 N 0.9883(5) 0.7160(4) 0.0207(2)
Ag35_4 Ag 0.80334(3) 0.48274(4) 0.00003(3)
Ag1_4 Ag 0.98271(2) 0.66724(2) 0.94320(3)
F7_4 F 0.87705(14) 0.58150(14) 0.94916(19)
O3_4 O 0.93279(17) 0.63032(18) 0.9525(2)
F14_4 F 0.97806(15) 0.75538(16) 0.85027(19)
F19_4 F 0.96931(14) 0.75638(14) 0.91607(19)
O6_4 O 0.8742(3) 0.5107(2) 0.9304(3)
F24_4 F 0.92230(21) 0.56600(15) 0.93765(18)
O14_4 O 0.97353(18) 0.70634(18) 0.9260(2)
O15_4 O 0.98839(18) 0.70878(17) 0.8608(2)
O21_4 O 0.8555(3) 0.5146(2) 0.9923(3)
N6_4 N 0.9417(2) 0.6102(2) 0.8562(3)
C7_4 C 0.9484(3) 0.7806(4) 0.7435(4)
H13_4 H 0.9487 0.7980 0.7563
H14_4 H 0.9305 0.7619 0.7524
H15_4 H 0.9476 0.7824 0.7143
C11_4 C 0.9247(2) 0.6144(3) 0.9844(3)
C17_4 C 0.9822(2) 0.7183(2) 0.8925(3)
C22_4 C 0.9771(3) 0.7524(3) 0.7605(3)
C27_4 C 0.9873(2) 0.7516(2) 0.8881(3)
C28_4 C 0.8751(4) 0.5246(3) 0.9628(4)
C35_4 C 0.8958(2) 0.5821(3) 0.9802(3)
C36_4 C 0.9811(2) 0.5953(3) 0.8465(3)
H25_4 H 0.9854 0.5919 0.8190
H26_4 H 0.9846 0.5824 0.8648
H27_4 H 0.9943 0.6165 0.8537
C43_4 C 0.9235(3) 0.5572(2) 0.8450(3)
C45_4 C 0.9297(3) 0.5306(2) 0.8378(3)
H31_4 H 0.9356 0.5253 0.8631
H32_4 H 0.9462 0.5369 0.8184
H33_4 H 0.9115 0.5131 0.8274
C48_4 C 0.9478(2) 0.5874(3) 0.8496(3)
C52_4 C 0.8884(3) 0.5735(2) 0.8539(3)
C60_4 C 0.9060(2) 0.6299(2) 0.8639(3)
H46_4 H 0.9250 0.6483 0.8703
H47_4 H 0.8916 0.6251 0.8858
H48_4 H 0.8976 0.6330 0.8391
C62_4 C 0.9477(3) 0.7215(3) 0.7583(3)
H49_4 H 0.9510 0.7077 0.7416
H50_4 H 0.9316 0.7241 0.7467
H51_4 H 0.9418 0.7130 0.7853
C63_4 C 0.8549(4) 0.5650(3) 0.8562(3)
H52_4 H 0.8421 0.5447 0.8451
H53_4 H 0.8519 0.5796 0.8407
H54_4 H 0.8493 0.5653 0.8842
C64_4 C 0.9122(2) 0.6034(2) 0.8581(3)
C70_4 C 0.9973(3) 0.6123(3) 0.9553(3)
H64_4 H 0.9902 0.6136 0.9821
H65_4 H 1.0000 0.5946 0.9537
H66_4 H 0.9824 0.6104 0.9354
C71_4 C 0.9770(3) 0.7797(4) 0.7549(3)
C72_4 C 0.9032(4) 0.5566(3) 0.9700(4)
Ag31_4 Ag 0.83268(3) 0.46056(4) 0.92797(3)
Ag35_5 Ag 0.80334(3) 0.48274(4) 1.00003(3)
Ag2_5 Ag 0.31855(2) 0.48387(3) 0.09340(3)
Ag6_5 Ag 0.31862(2) 0.48097(3) 0.00263(3)
Ag7_5 Ag 0.33254(2) 0.30854(3) 0.03334(2)
Ag10_5 Ag 0.31072(2) 0.47626(3) 0.18320(3)
O1_5 O 0.2101(3) 0.5315(4) 0.0774(3)
F2_5 F 0.31228(15) 0.38362(21) 0.0214(2)
F3_5 F 0.30204(14) 0.37934(20) 0.08735(18)
F4_5 F 0.25986(15) 0.52825(21) 0.08615(19)
F5_5 F 0.21378(14) 0.46748(20) 0.0972(2)
F10_5 F 0.21571(14) 0.47559(21) 0.16262(19)
F12_5 F 0.42472(14) 0.30398(20) 0.01494(18)
F16_5 F 0.37312(15) 0.42256(21) 0.0369(2)
F17_5 F 0.44582(15) 0.36519(26) 0.00251(19)
O5_5 O 0.26870(18) 0.47299(26) 0.0997(2)
F18_5 F 0.25730(15) 0.53685(22) 0.15045(19)
O7_5 O 0.36514(25) 0.37392(31) 0.1111(2)
O8_5 O 0.27312(18) 0.48607(25) 0.1664(2)
O9_5 O 0.19557(26) 0.51624(32) 0.1412(3)
O10_5 O 0.3512(2) 0.36024(27) 0.0456(2)
O13_5 O 0.30673(18) 0.43380(25) 0.0856(2)
O17_5 O 0.38044(18) 0.31726(26) 0.0181(2)
O20_5 O 0.32682(19) 0.44212(26) 0.0217(2)
N4_5 N 0.3628(2) 0.5283(3) 0.0916(3)
H1_5 H 0.3328 0.5395 0.0062
H2_5 H 0.3228 0.5645 0.0109
N7_4 N 0.4174(2) 0.5831(4) 0.0830(2)
F28_5 F 0.36279(14) 0.42488(20) 0.10156(18)
C12_5 C 0.3631(3) 0.5543(4) 0.0938(3)
C14_5 C 0.2330(3) 0.4854(4) 0.1281(3)
C15_5 C 0.3890(3) 0.4981(4) 0.0810(4)
H16_5 H 0.3752 0.4843 0.1013
H17_5 H 0.4094 0.5014 0.0857
H18_5 H 0.3821 0.4894 0.0544
C20_5 C 0.2117(4) 0.5219(4) 0.1114(3)
C26_5 C 0.3903(3) 0.5825(4) 0.0894(3)
C33_5 C 0.3565(4) 0.3765(5) 0.0769(4)
C34_5 C 0.3329(3) 0.5529(4) 0.1045(3)
H22_5 H 0.3163 0.5320 0.1026
H23_5 H 0.3294 0.5657 0.0859
H24_5 H 0.3341 0.5603 0.1319
N10_5 N 0.2807(2) 0.4924(3) 0.0049(3)
C40_5 C 0.2403(3) 0.5180(4) 0.1191(3)
C41_5 C 0.4475(2) 0.5575(4) 0.0767(3)
H28_5 H 0.4515 0.5488 0.1005
H29_5 H 0.4468 0.5459 0.0530
H30_5 H 0.4637 0.5786 0.0736
C42_5 C 0.3898(3) 0.5280(4) 0.0836(3)
C44_5 C 0.2617(2) 0.4815(4) 0.1322(3)
C47_5 C 0.3539(3) 0.4059(4) 0.0692(3)
C49_5 C 0.2518(2) 0.4696(3) 0.0072(3)
C51_5 C 0.3174(3) 0.4279(4) 0.0554(3)
C53_5 C 0.4175(2) 0.5565(4) 0.0815(3)
C55_5 C 0.2464(2) 0.4380(3) 0.0130(3)
H41_5 H 0.2251 0.4233 0.0073
H42_5 H 0.2511 0.4355 0.0407
C56_5 C 0.2275(2) 0.4758(3) 0.0023(3)
C57_5 C 0.3918(3) 0.6129(4) 0.0900(3)
H43_5 H 0.3905 0.6185 0.1176
H44_5 H 0.3749 0.6116 0.0744
H45_5 H 0.4109 0.6282 0.0781
C59_5 C 0.3207(2) 0.3986(3) 0.0570(3)
C66_5 C 0.1944(2) 0.4505(3) 0.0042(3)
H58_5 H 0.1895 0.4423 0.0314
H61_5 H 0.2593 0.5646 0.0114
Ag17_5 Ag 0.34732(3) 0.35473(4) 0.18646(2)
Ag18_5 Ag 0.37216(3) 0.33084(4) 0.11310(3)
Ag22_5 Ag 0.14293(3) 0.49888(4) 0.15013(3)
O33_5 O 0.32115(25) 0.29092(31) 0.1114(2)
O34_5 O 0.1258(3) 0.4893(5) 0.0696(3)
O36_5 O 0.34599(18) 0.52890(37) 0.1921(3)
O39_5 O 0.1445(3) 0.4854(5) 0.0077(3)
N19_5 N 0.3230(4) 0.4397(4) 0.1813(3)
Ag26_5 Ag 0.17504(3) 0.19095(5) 0.00332(3)
N21_5 N 0.2840(4) 0.2722(6) 0.0207(2)
Ag30_4 Ag 0.46056(4) 0.62787(5) 0.07203(3)
Ag34_5 Ag 0.48274(4) 0.67939(5) -0.00003(3)
Ag35_6 Ag 0.51726(4) 0.32061(5) 0.00003(3)
Ag1_5 Ag 0.33276(2) 0.31546(3) 0.94320(3)
Ag3_5 Ag 0.35310(2) 0.50217(3) 0.76019(3)
Ag8_5 Ag 0.33630(2) 0.46043(3) 0.92371(3)
Ag9_5 Ag 0.36549(2) 0.51390(3) 0.84971(3)
F1_5 F 0.22859(22) 0.25850(27) 0.93107(19)
F6_5 F 0.28680(14) 0.52726(20) 0.83590(19)
F7_5 F 0.41850(14) 0.29554(20) 0.94916(19)
F8_5 F 0.38941(14) 0.58051(21) 0.99980(19)
F9_5 F 0.24581(15) 0.47562(21) 0.9157(2)
F11_5 F 0.30191(15) 0.39600(21) 0.84011(19)
O3_5 O 0.36968(18) 0.30246(25) 0.9525(2)
F13_5 F 0.29054(14) 0.53718(21) 0.9013(2)
F14_5 F 0.24462(16) 0.22267(22) 0.85027(19)
O4_5 O 0.23443(25) 0.52949(31) 0.8996(2)
F15_5 F 0.37097(15) 0.41605(21) 0.7881(2)
F19_5 F 0.24362(14) 0.21292(20) 0.91607(19)
N1_5 N 0.3091(2) 0.5024(3) 0.7568(3)
F20_5 F 0.38157(15) 0.57944(21) 0.9343(2)
F21_5 F 0.43165(14) 0.56203(21) 0.98659(19)
F22_5 F 0.31053(15) 0.40068(21) 0.77360(19)
F23_5 F 0.24956(15) 0.46557(21) 0.85223(19)
O6_5 O 0.4893(2) 0.3634(4) 0.9304(3)
F24_5 F 0.43400(15) 0.35629(26) 0.93765(18)
N2_5 N 0.3328(2) 0.3596(3) 0.9411(3)
O11_5 O 0.18065(28) 0.20161(34) 0.8617(3)
O12_5 O 0.17609(25) 0.20778(31) 0.9290(2)
O14_5 O 0.29366(18) 0.26718(25) 0.9260(2)
F25_5 F 0.22414(20) 0.26293(24) 0.86510(19)
O15_5 O 0.29122(17) 0.27960(25) 0.8608(2)
F26_5 F 0.36323(15) 0.41673(21) 0.85373(19)
O16_5 O 0.36394(18) 0.46479(25) 0.7789(2)
N3_5 N 0.1926(3) 0.1962(4) 0.7603(3)
O18_5 O 0.32349(18) 0.35404(25) 0.8411(2)
O19_5 O 0.3546(2) 0.46397(28) 0.8460(2)
C1_5 C 0.2824(3) 0.4762(4) 0.7643(3)
O21_5 O 0.4854(2) 0.3408(4) 0.9923(3)
C2_5 C 0.3198(2) 0.5469(4) 0.9954(3)
H3_5 H 0.3251 0.5527 0.9673
O22_4 O 0.43645(18) 0.62848(31) 0.9248(3)
N5_5 N 0.3339(2) 0.4150(3) 0.9356(3)
O23_5 O 0.37068(19) 0.51700(27) 0.9903(2)
N6_5 N 0.3898(2) 0.3314(3) 0.8562(3)
O24_5 O 0.3771(2) 0.5110(3) 0.9245(2)
O26_5 O 0.3141(2) 0.4945(3) 0.8647(3)
F27_5 F 0.42757(14) 0.56490(21) 0.92174(18)
C3_5 C 0.2781(2) 0.3305(4) 0.9248(3)
H4_5 H 0.2748 0.3280 0.8958
H5_5 H 0.2609 0.3306 0.9375
H6_5 H 0.2801 0.3137 0.9355
N9_5 N 0.2474(2) 0.2506(3) 0.7688(3)
C4_5 C 0.3592(2) 0.3864(4) 0.9469(3)
C5_5 C 0.2844(3) 0.4490(4) 0.7782(4)
H7_5 H 0.2999 0.4476 0.7626
H8_5 H 0.2649 0.4306 0.7743
H9_5 H 0.2898 0.4512 0.8066
C6_5 C 0.3391(3) 0.5569(4) 0.7386(3)
H10_5 H 0.3557 0.5542 0.7485
H11_5 H 0.3399 0.5744 0.7517
H12_5 H 0.3411 0.5601 0.7096
C7_5 C 0.2194(4) 0.1677(5) 0.7435(4)
H13_5 H 0.2020 0.1506 0.7563
H14_5 H 0.2381 0.1685 0.7524
H15_5 H 0.2176 0.1651 0.7143
C8_5 C 0.3838(3) 0.5256(4) 0.9575(3)
O27_4 O 0.44379(18) 0.62974(31) 0.9926(2)
C9_5 C 0.3068(2) 0.3602(4) 0.9334(3)
C10_5 C 0.2207(3) 0.2500(4) 0.7723(3)
C11_5 C 0.3856(3) 0.3102(4) 0.9844(3)
C13_5 C 0.2648(3) 0.4852(4) 0.8826(3)
C16_5 C 0.1892(3) 0.2144(4) 0.8952(3)
C17_5 C 0.2817(2) 0.2638(3) 0.8925(3)
C18_5 C 0.4118(3) 0.5586(4) 0.9571(3)
C19_5 C 0.2227(3) 0.2433(4) 0.8962(3)
C21_5 C 0.3600(2) 0.4146(3) 0.9425(3)
C22_5 C 0.2476(3) 0.2246(4) 0.7605(3)
C23_5 C 0.3205(2) 0.3946(3) 0.8098(3)
C24_5 C 0.3577(2) 0.4530(3) 0.8143(3)
C25_5 C 0.1622(3) 0.2210(4) 0.7738(3)
H19_5 H 0.1459 0.2017 0.7633
H20_5 H 0.1624 0.2378 0.7595
H21_5 H 0.1588 0.2224 0.8024
C27_5 C 0.2484(2) 0.2356(3) 0.8881(3)
C28_5 C 0.4754(3) 0.3504(5) 0.9628(4)
C29_5 C 0.3528(2) 0.4200(3) 0.8171(3)
C30_5 C 0.3071(2) 0.3883(3) 0.9319(3)
C31_5 C 0.2808(3) 0.5285(4) 0.7466(3)
C32_5 C 0.3150(2) 0.3610(4) 0.8101(3)
C35_5 C 0.4179(3) 0.3136(4) 0.9802(3)
C36_5 C 0.4047(3) 0.3857(4) 0.8465(3)
H25_5 H 0.4081 0.3934 0.8190
H26_5 H 0.4176 0.4021 0.8648
H27_5 H 0.3835 0.3777 0.8537
C37_5 C 0.2542(2) 0.4760(4) 0.7594(3)
C38_5 C 0.3088(3) 0.5285(4) 0.7480(3)
C39_5 C 0.2865(3) 0.5217(4) 0.9982(3)
C43_5 C 0.4428(2) 0.3662(4) 0.8450(3)
C45_5 C 0.4694(2) 0.3990(4) 0.8378(3)
H31_5 H 0.4747 0.4102 0.8631
H32_5 H 0.4631 0.4092 0.8184
H33_5 H 0.4869 0.3983 0.8274
C46_5 C 0.2780(2) 0.3897(3) 0.9264(3)
H34_5 H 0.2662 0.3834 0.9513
H35_5 H 0.2660 0.3762 0.9046
H36_5 H 0.2832 0.4105 0.9199
N11_5 N 0.2334(3) 0.5047(4) 0.9964(3)
C48_5 C 0.4126(3) 0.3603(4) 0.8496(3)
O28_5 O 0.2943(2) 0.4687(3) 0.9208(3)
C50_5 C 0.4310(3) 0.6183(5) 0.9607(4)
C52_5 C 0.4265(2) 0.3148(4) 0.8539(3)
C54_5 C 0.2795(3) 0.5571(4) 0.7391(3)
H37_5 H 0.2896 0.5714 0.7610
H38_5 H 0.2583 0.5521 0.7376
H39_5 H 0.2896 0.5662 0.7138
H40_5 H 0.2594 0.4346 0.9948
C58_5 C 0.2943(3) 0.4827(4) 0.8913(4)
C60_5 C 0.3701(2) 0.2760(3) 0.8639(3)
H46_5 H 0.3517 0.2766 0.8703
H47_5 H 0.3749 0.2664 0.8858
H48_5 H 0.3670 0.2645 0.8391
C61_5 C 0.2629(3) 0.5278(4) 0.9943(3)
C62_5 C 0.2785(3) 0.2261(4) 0.7583(3)
H49_5 H 0.2923 0.2432 0.7416
H50_5 H 0.2759 0.2074 0.7467
H51_5 H 0.2870 0.2287 0.7853
C63_5 C 0.4350(3) 0.2898(5) 0.8562(3)
H52_5 H 0.4553 0.2973 0.8451
H53_5 H 0.4204 0.2722 0.8407
H54_5 H 0.4347 0.2839 0.8842
C64_5 C 0.3966(2) 0.3087(3) 0.8581(3)
C65_5 C 0.2213(3) 0.2803(4) 0.7777(3)
H55_5 H 0.2404 0.2951 0.7904
H56_5 H 0.2044 0.2773 0.7947
H57_5 H 0.2196 0.2880 0.7515
H59_5 H 0.1912 0.4343 0.9855
H60_5 H 0.1813 0.4586 0.9968
C67_5 C 0.2680(3) 0.5594(4) 0.9887(3)
H62_5 H 0.2582 0.5603 0.9639
H63_5 H 0.2897 0.5738 0.9872
C68_5 C 0.1927(3) 0.2223(4) 0.7680(3)
C69_5 C 0.2713(3) 0.5174(4) 0.8724(4)
C70_5 C 0.3877(3) 0.3849(4) 0.9553(3)
H64_5 H 0.3864 0.3765 0.9821
H65_5 H 0.4054 0.4053 0.9537
H66_5 H 0.3896 0.3719 0.9354
C71_5 C 0.2203(4) 0.1972(5) 0.7549(3)
C72_5 C 0.4434(3) 0.3465(5) 0.9700(4)
C73_5 C 0.3896(2) 0.4453(4) 0.9461(3)
H67_5 H 0.3986 0.4518 0.9195
H68_5 H 0.4037 0.4430 0.9636
H69_5 H 0.3852 0.4604 0.9574
C74_5 C 0.2231(3) 0.4474(4) 0.7645(3)
H70_5 H 0.2250 0.4295 0.7600
H71_5 H 0.2089 0.4477 0.7450
H72_5 H 0.2156 0.4468 0.7916
C75_5 C 0.2414(4) 0.5194(5) 0.8689(3)
C76_5 C 0.4030(3) 0.5838(4) 0.9639(3)
Ag11_4 Ag 0.49996(2) 0.70899(4) 0.73892(3)
Ag12_5 Ag 0.52429(2) 0.68258(4) 0.66334(3)
F29_5 F 0.40872(14) 0.60836(24) 0.67968(19)
F30_5 F 0.41199(14) 0.60295(24) 0.74449(18)
F31_5 F 0.45691(14) 0.58654(28) 0.72847(19)
F32_5 F 0.44718(14) 0.58589(29) 0.66336(19)
O29_5 O 0.38889(17) 0.54081(34) 0.6738(2)
O30_5 O 0.47255(19) 0.64912(32) 0.6785(2)
O31_5 O 0.40168(16) 0.53817(33) 0.7386(2)
O32_5 O 0.46010(19) 0.65828(33) 0.7413(3)
C77_5 C 0.4575(3) 0.6422(5) 0.7112(4)
N13_5 N 0.5598(2) 0.6698(4) 0.6491(3)
N14_5 N 0.6056(3) 0.6549(5) 0.6459(2)
C78_5 C 0.4349(3) 0.5828(6) 0.7016(4)
C79_5 C 0.5771(4) 0.6330(6) 0.6521(3)
C80_5 C 0.5887(2) 0.6922(4) 0.6440(3)
C81_5 C 0.6125(3) 0.6844(5) 0.6419(3)
C82_5 C 0.5704(4) 0.6009(6) 0.6566(3)
H73_5 H 0.5737 0.5972 0.6844
H74_5 H 0.5493 0.5870 0.6493
H75_5 H 0.5837 0.5975 0.6390
C83_5 C 0.4058(3) 0.5505(6) 0.7059(4)
C84_5 C 0.6456(4) 0.7087(6) 0.6360(3)
H76_5 H 0.6498 0.7125 0.6073
H77_5 H 0.6495 0.7274 0.6493
H78_5 H 0.6587 0.7017 0.6475
C85_5 C 0.5951(3) 0.7241(5) 0.6404(3)
H79_5 H 0.5799 0.7264 0.6554
H80_5 H 0.6152 0.7379 0.6513
H81_5 H 0.5944 0.7289 0.6122
C86_5 C 0.5202(2) 0.6160(4) 0.6600(3)
H82_5 H 0.5075 0.6250 0.6553
H83_5 H 0.5144 0.5991 0.6415
H84_5 H 0.5175 0.6086 0.6876
C87_5 C 0.4287(3) 0.6099(5) 0.7093(3)
C88_5 C 0.5533(2) 0.6397(4) 0.6531(3)
Ag13_4 Ag 0.48376(2) 0.67092(4) 0.81919(3)
N15_5 N 0.4469(2) 0.6219(4) 0.8283(3)
N16_5 N 0.4003(2) 0.5619(4) 0.8337(3)
C89_5 C 0.4860(2) 0.6074(4) 0.8184(3)
H85_5 H 0.4994 0.6259 0.8333
H86_5 H 0.4891 0.5910 0.8276
H87_5 H 0.4905 0.6109 0.7898
C90_5 C 0.4529(3) 0.5989(5) 0.8258(3)
C91_5 C 0.3610(3) 0.5764(5) 0.8437(4)
H88_5 H 0.3589 0.5827 0.8706
H89_5 H 0.3552 0.5866 0.8238
H90_5 H 0.3479 0.5544 0.8411
C92_5 C 0.4358(2) 0.5419(4) 0.8238(4)
H91_5 H 0.4166 0.5228 0.8212
H92_5 H 0.4483 0.5449 0.8001
H93_5 H 0.4465 0.5412 0.8477
C93_5 C 0.4111(3) 0.6411(5) 0.8378(4)
H94_5 H 0.4050 0.6452 0.8118
H95_5 H 0.3948 0.6358 0.8573
H96_5 H 0.4294 0.6592 0.8470
C94_5 C 0.4173(3) 0.6151(5) 0.8338(4)
C95_5 C 0.4293(2) 0.5684(4) 0.8275(3)
C96_5 C 0.3936(3) 0.5847(5) 0.8369(4)
Ag20_5 Ag 0.64188(3) 0.64267(4) 0.63332(2)
O37_5 O 0.53495(34) 0.68763(44) 0.8049(3)
O38_5 O 0.54112(31) 0.69836(40) 0.7376(2)
N17_5 N 0.1408(3) 0.4704(4) 0.9063(3)
O41_4 O 0.49051(34) 0.71756(44) 0.8370(2)
N20_4 N 0.4978(3) 0.7518(4) 0.7505(3)
Ag24_5 Ag 0.12430(3) 0.16662(5) 0.92774(3)
O43_5 O 0.51474(30) 0.72222(45) 0.6595(2)
Ag29_5 Ag 0.14617(3) 0.15042(5) 0.84747(3)
Ag31_5 Ag 0.53944(4) 0.37213(5) 0.92797(3)
Ag32_4 Ag 0.48486(4) 0.66913(5) 0.91038(3)
Ag33_5 Ag 0.14906(3) 0.15152(4) 0.75628(3)
Ag34_6 Ag 0.48274(4) 0.67939(5) 0.99997(3)
Ag35_7 Ag 0.51726(4) 0.32061(5) 1.00003(3)
Ag7_6 Ag 0.69146(3) 0.02399(2) 0.03334(2)
F12_6 F 0.69602(20) 0.12073(14) 0.01494(18)
F17_6 F 0.63481(26) 0.08062(21) 0.00251(19)
O17_6 O 0.68274(26) 0.06317(19) 0.0181(2)
Ag18_6 Ag 0.66916(4) 0.04133(2) 0.11310(3)
O33_6 O 0.70908(31) 0.03024(18) 0.1114(2)
N21_6 N 0.7278(6) 0.0117(5) 0.0207(2)
Ag35_8 Ag 0.67939(5) 0.19666(3) 0.00003(3)
Ag1_6 Ag 0.68454(3) 0.01729(2) 0.94320(3)
F7_6 F 0.70446(20) 0.12295(14) 0.94916(19)
O3_6 O 0.69754(25) 0.06721(17) 0.9525(2)
F14_6 F 0.77733(22) 0.02194(15) 0.85027(19)
F19_6 F 0.78708(20) 0.03069(14) 0.91607(19)
O6_6 O 0.6366(4) 0.1258(3) 0.9304(3)
F24_6 F 0.64371(26) 0.07770(21) 0.93765(18)
O14_6 O 0.73282(25) 0.02647(18) 0.9260(2)
O15_6 O 0.72040(25) 0.01161(18) 0.8608(2)
O21_6 O 0.6592(4) 0.1445(3) 0.9923(3)
N6_6 N 0.6686(3) 0.0583(2) 0.8562(3)
C7_6 C 0.8323(5) 0.0516(3) 0.7435(4)
H13_6 H 0.8494 0.0513 0.7563
H14_6 H 0.8315 0.0695 0.7524
H15_6 H 0.8349 0.0524 0.7143
C11_6 C 0.6898(4) 0.0753(2) 0.9844(3)
C17_6 C 0.7362(3) 0.0178(2) 0.8925(3)
C22_6 C 0.7754(4) 0.0229(3) 0.7605(3)
C27_6 C 0.7644(3) 0.0127(2) 0.8881(3)
C28_6 C 0.6496(5) 0.1249(4) 0.9628(4)
C35_6 C 0.6864(4) 0.1042(2) 0.9802(3)
C36_6 C 0.6143(4) 0.0189(2) 0.8465(3)
H25_6 H 0.6066 0.0146 0.8190
H26_6 H 0.5979 0.0154 0.8648
H27_6 H 0.6223 0.0057 0.8537
C43_6 C 0.6338(4) 0.0765(3) 0.8450(3)
C45_6 C 0.6010(4) 0.0703(3) 0.8378(3)
H31_6 H 0.5898 0.0644 0.8631
H32_6 H 0.5908 0.0538 0.8184
H33_6 H 0.6017 0.0885 0.8274
C48_6 C 0.6397(4) 0.0522(2) 0.8496(3)
C52_6 C 0.6852(4) 0.1116(3) 0.8539(3)
C60_6 C 0.7240(3) 0.0940(2) 0.8639(3)
H46_6 H 0.7234 0.0750 0.8703
H47_6 H 0.7336 0.1084 0.8858
H48_6 H 0.7355 0.1024 0.8391
C62_6 C 0.7739(4) 0.0523(3) 0.7583(3)
H49_6 H 0.7568 0.0490 0.7416
H50_6 H 0.7926 0.0684 0.7467
H51_6 H 0.7713 0.0582 0.7853
C63_6 C 0.7102(5) 0.1451(4) 0.8562(3)
H52_6 H 0.7027 0.1579 0.8451
H53_6 H 0.7278 0.1481 0.8407
H54_6 H 0.7161 0.1507 0.8842
C64_6 C 0.6913(3) 0.0878(2) 0.8581(3)
C70_6 C 0.6151(4) 0.0027(3) 0.9553(3)
H64_6 H 0.6235 0.0098 0.9821
H65_6 H 0.5947 0.0000 0.9537
H66_6 H 0.6281 0.0176 0.9354
C71_6 C 0.8028(5) 0.0230(3) 0.7549(3)
C72_6 C 0.6535(5) 0.0968(4) 0.9700(4)
Ag31_6 Ag 0.62787(5) 0.16732(3) 0.92797(3)
Ag35_9 Ag 0.67939(5) 0.19666(3) 1.00003(3)
Ag2_6 Ag 0.51613(3) 0.83467(2) 0.09340(3)
Ag6_6 Ag 0.51903(3) 0.83764(2) 0.00263(3)
Ag10_6 Ag 0.52374(3) 0.83445(2) 0.18320(3)
O1_6 O 0.4685(4) 0.6785(2) 0.0774(3)
F2_6 F 0.61638(21) 0.92865(14) 0.0214(2)
F3_6 F 0.62066(20) 0.92269(14) 0.08735(18)
F4_6 F 0.47175(21) 0.73160(15) 0.08615(19)
F5_6 F 0.53252(20) 0.74629(14) 0.0972(2)
F10_6 F 0.52441(21) 0.74011(15) 0.16262(19)
F16_6 F 0.57744(21) 0.95055(14) 0.0369(2)
O5_6 O 0.52701(26) 0.79570(19) 0.0997(2)
F18_6 F 0.46315(22) 0.72044(16) 0.15045(19)
O7_6 O 0.62608(31) 0.99121(18) 0.1111(2)
O8_6 O 0.51393(25) 0.78704(17) 0.1664(2)
O9_6 O 0.48376(32) 0.67932(18) 0.1412(3)
O10_6 O 0.63976(27) 0.99092(18) 0.0456(2)
O13_6 O 0.56620(25) 0.87292(18) 0.0856(2)
O20_6 O 0.55788(26) 0.88469(18) 0.0217(2)
N4_6 N 0.4717(3) 0.8344(2) 0.0916(3)
H1_6 H 0.4605 0.7932 0.0062
H2_6 H 0.4355 0.7582 0.0109
F28_6 F 0.57512(20) 0.93790(14) 0.10156(18)
C12_6 C 0.4457(4) 0.8087(3) 0.0938(3)
C14_6 C 0.5146(4) 0.7475(3) 0.1281(3)
C15_6 C 0.5019(4) 0.8908(3) 0.0810(4)
H16_6 H 0.5157 0.8908 0.1013
H17_6 H 0.4986 0.9079 0.0857
H18_6 H 0.5106 0.8926 0.0544
C20_6 C 0.4781(4) 0.6897(2) 0.1114(3)
C26_6 C 0.4175(4) 0.8077(3) 0.0894(3)
C33_6 C 0.6235(5) 0.9799(3) 0.0769(4)
C34_6 C 0.4471(4) 0.7799(3) 0.1045(3)
H22_6 H 0.4680 0.7842 0.1026
H23_6 H 0.4343 0.7636 0.0859
H24_6 H 0.4397 0.7737 0.1319
N10_6 N 0.5076(3) 0.7882(2) 0.0049(3)
C40_6 C 0.4820(4) 0.7222(3) 0.1191(3)
C41_6 C 0.4425(4) 0.8899(4) 0.0767(3)
H28_6 H 0.4512 0.9026 0.1005
H29_6 H 0.4541 0.9008 0.0530
H30_6 H 0.4214 0.8850 0.0736
C42_6 C 0.4720(4) 0.8617(3) 0.0836(3)
C44_6 C 0.5185(4) 0.7801(3) 0.1322(3)
C47_6 C 0.5941(4) 0.9479(2) 0.0692(3)
C49_6 C 0.5304(3) 0.7821(2) 0.0072(3)
C51_6 C 0.5721(4) 0.8894(3) 0.0554(3)
C53_6 C 0.4435(4) 0.8609(4) 0.0815(3)
C55_6 C 0.5620(3) 0.8083(2) 0.0130(3)
H41_6 H 0.5767 0.8017 0.0073
H42_6 H 0.5645 0.8155 0.0407
C56_6 C 0.5242(3) 0.7516(2) 0.0023(3)
C57_6 C 0.3871(4) 0.7788(3) 0.0900(3)
H43_6 H 0.3815 0.7719 0.1176
H44_6 H 0.3884 0.7632 0.0744
H45_6 H 0.3718 0.7826 0.0781
C59_6 C 0.6014(3) 0.9220(2) 0.0570(3)
C66_6 C 0.5495(3) 0.7438(2) 0.0042(3)
H58_6 H 0.5577 0.7471 0.0314
H61_6 H 0.4354 0.6946 0.0114
Ag17_6 Ag 0.64527(4) 0.99260(2) 0.18646(2)
Ag22_6 Ag 0.50112(4) 0.64405(2) 0.15013(3)
O34_6 O 0.5107(5) 0.6366(4) 0.0696(3)
O36_6 O 0.47110(37) 0.81709(32) 0.1921(3)
O39_6 O 0.5146(5) 0.6592(4) 0.0077(3)
N19_6 N 0.5603(4) 0.8834(2) 0.1813(3)
Ag26_6 Ag 0.80905(5) 0.98408(4) 0.00332(3)
Ag3_6 Ag 0.49783(3) 0.85092(2) 0.76019(3)
Ag8_6 Ag 0.53957(3) 0.87586(2) 0.92371(3)
Ag9_6 Ag 0.48610(3) 0.85158(2) 0.84971(3)
F1_6 F 0.74150(27) 0.97008(16) 0.93107(19)
F6_6 F 0.47274(20) 0.75953(14) 0.83590(19)
F8_6 F 0.41949(21) 0.80889(15) 0.99980(19)
F9_6 F 0.52438(21) 0.77018(15) 0.9157(2)
F11_6 F 0.60400(21) 0.90590(14) 0.84011(19)
F13_6 F 0.46282(21) 0.75335(15) 0.9013(2)
O4_6 O 0.47051(31) 0.70493(18) 0.8996(2)
F15_6 F 0.58395(21) 0.95491(15) 0.7881(2)
N1_6 N 0.4976(3) 0.8066(2) 0.7568(3)
F20_6 F 0.42056(21) 0.80212(15) 0.9343(2)
F21_6 F 0.43797(21) 0.86961(15) 0.98659(19)
F22_6 F 0.59932(21) 0.90984(14) 0.77360(19)
F23_6 F 0.53443(21) 0.78398(15) 0.85223(19)
N2_6 N 0.6404(3) 0.9731(2) 0.9411(3)
O11_6 O 0.79839(34) 0.9790(2) 0.8617(3)
O12_6 O 0.79222(31) 0.96830(18) 0.9290(2)
F25_6 F 0.73707(24) 0.96120(14) 0.86510(19)
F26_6 F 0.58327(21) 0.94649(15) 0.85373(19)
O16_6 O 0.53521(25) 0.89914(18) 0.7789(2)
N3_6 N 0.8038(4) 0.9963(2) 0.7603(3)
O18_6 O 0.64596(25) 0.96944(18) 0.8411(2)
O19_6 O 0.53603(28) 0.89059(19) 0.8460(2)
C1_6 C 0.5238(4) 0.8061(3) 0.7643(3)
C2_6 C 0.4531(4) 0.7728(3) 0.9954(3)
H3_6 H 0.4473 0.7723 0.9673
N5_6 N 0.5850(3) 0.9188(2) 0.9356(3)
O23_6 O 0.48300(27) 0.85367(19) 0.9903(2)
O24_6 O 0.4890(3) 0.8660(2) 0.9245(2)
O26_6 O 0.5055(3) 0.8195(2) 0.8647(3)
F27_6 F 0.43510(21) 0.86266(15) 0.92174(18)
C3_6 C 0.6695(4) 0.9475(3) 0.9248(3)
H4_6 H 0.6720 0.9467 0.8958
H5_6 H 0.6694 0.9302 0.9375
H6_6 H 0.6863 0.9663 0.9355
N9_6 N 0.7494(3) 0.9967(2) 0.7688(3)
C4_6 C 0.6136(4) 0.9727(3) 0.9469(3)
C5_6 C 0.5510(4) 0.8353(3) 0.7782(4)
H7_6 H 0.5524 0.8522 0.7626
H8_6 H 0.5694 0.8342 0.7743
H9_6 H 0.5488 0.8385 0.8066
C6_6 C 0.4431(4) 0.7821(3) 0.7386(3)
H10_6 H 0.4458 0.8014 0.7485
H11_6 H 0.4256 0.7654 0.7517
H12_6 H 0.4399 0.7809 0.7096
C8_6 C 0.4744(4) 0.8581(3) 0.9575(3)
C9_6 C 0.6398(4) 0.9465(3) 0.9334(3)
C10_6 C 0.7500(4) 0.9706(3) 0.7723(3)
C13_6 C 0.5148(4) 0.7795(3) 0.8826(3)
C16_6 C 0.7856(4) 0.9747(2) 0.8952(3)
C18_6 C 0.4414(4) 0.8531(3) 0.9571(3)
C19_6 C 0.7567(4) 0.9793(2) 0.8962(3)
C21_6 C 0.5854(3) 0.9453(2) 0.9425(3)
C23_6 C 0.6054(3) 0.9258(2) 0.8098(3)
C24_6 C 0.5470(3) 0.9046(2) 0.8143(3)
C25_6 C 0.7790(4) 0.9411(3) 0.7738(3)
H19_6 H 0.7983 0.9441 0.7633
H20_6 H 0.7622 0.9245 0.7595
H21_6 H 0.7776 0.9363 0.8024
C29_6 C 0.5800(3) 0.9327(2) 0.8171(3)
C30_6 C 0.6117(3) 0.9187(2) 0.9319(3)
C31_6 C 0.4715(4) 0.7522(2) 0.7466(3)
C32_6 C 0.6390(4) 0.9539(3) 0.8101(3)
C37_6 C 0.5240(4) 0.7781(3) 0.7594(3)
C38_6 C 0.4715(4) 0.7802(3) 0.7480(3)
C39_6 C 0.4783(4) 0.7647(2) 0.9982(3)
C46_6 C 0.6103(3) 0.8882(2) 0.9264(3)
H34_6 H 0.6166 0.8827 0.9513
H35_6 H 0.6238 0.8897 0.9046
H36_6 H 0.5895 0.8726 0.9199
N11_6 N 0.4953(4) 0.7286(2) 0.9964(3)
O28_6 O 0.5313(3) 0.8255(2) 0.9208(3)
C50_6 C 0.3817(5) 0.8126(4) 0.9607(4)
C54_6 C 0.4429(4) 0.7223(3) 0.7391(3)
H37_6 H 0.4286 0.7181 0.7610
H38_6 H 0.4479 0.7061 0.7376
H39_6 H 0.4338 0.7233 0.7138
H40_6 H 0.5654 0.8247 0.9948
C58_6 C 0.5173(4) 0.8115(3) 0.8913(4)
C61_6 C 0.4722(4) 0.7350(2) 0.9943(3)
C65_6 C 0.7197(4) 0.9409(3) 0.7777(3)
H55_6 H 0.7049 0.9452 0.7904
H56_6 H 0.7227 0.9270 0.7947
H57_6 H 0.7120 0.9315 0.7515
H59_6 H 0.5657 0.7568 0.9855
H60_6 H 0.5414 0.7226 0.9968
C67_6 C 0.4406(4) 0.7085(2) 0.9887(3)
H62_6 H 0.4397 0.6978 0.9639
H63_6 H 0.4262 0.7158 0.9872
C68_6 C 0.7777(4) 0.9703(3) 0.7680(3)
C69_6 C 0.4826(4) 0.7538(3) 0.8724(4)
C73_6 C 0.5547(4) 0.9442(3) 0.9461(3)
H67_6 H 0.5482 0.9467 0.9195
H68_6 H 0.5570 0.9606 0.9636
H69_6 H 0.5396 0.9247 0.9574
C74_6 C 0.5526(4) 0.7756(3) 0.7645(3)
H70_6 H 0.5705 0.7954 0.7600
H71_6 H 0.5523 0.7611 0.7450
H72_6 H 0.5532 0.7687 0.7916
C75_6 C 0.4806(5) 0.7219(3) 0.8689(3)
C76_6 C 0.4162(4) 0.8191(3) 0.9639(3)
Ag12_6 Ag 0.31742(4) 0.84170(3) 0.66334(3)
F29_6 F 0.39164(24) 0.80035(20) 0.67968(19)
F30_6 F 0.39705(24) 0.80903(20) 0.74449(18)
F31_6 F 0.41346(28) 0.87036(24) 0.72847(19)
F32_6 F 0.41411(29) 0.86128(25) 0.66336(19)
O29_6 O 0.45919(34) 0.84807(30) 0.6738(2)
O30_6 O 0.35088(32) 0.82342(26) 0.6785(2)
O31_6 O 0.46183(33) 0.86350(29) 0.7386(2)
O32_6 O 0.34172(33) 0.80181(27) 0.7413(3)
C77_6 C 0.3578(5) 0.8152(4) 0.7112(4)
N13_6 N 0.3302(4) 0.8899(3) 0.6491(3)
N14_6 N 0.3451(5) 0.9506(4) 0.6459(2)
C78_6 C 0.4172(6) 0.8520(5) 0.7016(4)
C79_6 C 0.3670(6) 0.9440(4) 0.6521(3)
C80_6 C 0.3078(4) 0.8964(3) 0.6440(3)
C81_6 C 0.3156(5) 0.9280(4) 0.6419(3)
C82_6 C 0.3991(6) 0.9694(4) 0.6566(3)
H73_6 H 0.4028 0.9764 0.6844
H74_6 H 0.4130 0.9622 0.6493
H75_6 H 0.4025 0.9861 0.6390
C83_6 C 0.4495(6) 0.8552(5) 0.7059(4)
C84_6 C 0.2913(6) 0.9368(4) 0.6360(3)
H76_6 H 0.2875 0.9372 0.6073
H77_6 H 0.2726 0.9220 0.6493
H78_6 H 0.2983 0.9569 0.6475
C85_6 C 0.2759(5) 0.8709(4) 0.6404(3)
H79_6 H 0.2736 0.8534 0.6554
H80_6 H 0.2621 0.8772 0.6513
H81_6 H 0.2711 0.8654 0.6122
C86_6 C 0.3840(4) 0.9041(3) 0.6600(3)
H82_6 H 0.3750 0.8824 0.6553
H83_6 H 0.4009 0.9152 0.6415
H84_6 H 0.3914 0.9088 0.6876
C87_6 C 0.3901(5) 0.8187(4) 0.7093(3)
C88_6 C 0.3603(4) 0.9135(3) 0.6531(3)
N15_6 N 0.3781(4) 0.8249(3) 0.8283(3)
N16_6 N 0.4381(4) 0.8383(4) 0.8337(3)
C89_6 C 0.3926(4) 0.8785(4) 0.8184(3)
H85_6 H 0.3741 0.8734 0.8333
H86_6 H 0.4090 0.8980 0.8276
H87_6 H 0.3891 0.8795 0.7898
C90_6 C 0.4011(5) 0.8539(4) 0.8258(3)
C91_6 C 0.4236(5) 0.7845(4) 0.8437(4)
H88_6 H 0.4173 0.7761 0.8706
H89_6 H 0.4134 0.7685 0.8238
H90_6 H 0.4456 0.7934 0.8411
C92_6 C 0.4581(4) 0.8938(4) 0.8238(4)
H91_6 H 0.4772 0.8937 0.8212
H92_6 H 0.4551 0.9033 0.8001
H93_6 H 0.4588 0.9052 0.8477
C93_6 C 0.3589(5) 0.7699(4) 0.8378(4)
H94_6 H 0.3548 0.7597 0.8118
H95_6 H 0.3642 0.7589 0.8573
H96_6 H 0.3408 0.7701 0.8470
C94_6 C 0.3849(5) 0.8021(4) 0.8338(4)
C95_6 C 0.4316(4) 0.8608(4) 0.8275(3)
C96_6 C 0.4153(5) 0.8088(4) 0.8369(4)
Ag20_6 Ag 0.35733(4) 0.99920(2) 0.63332(2)
O37_6 O 0.31237(44) 0.84731(28) 0.8049(3)
O38_6 O 0.30164(40) 0.84275(25) 0.7376(2)
N17_6 N 0.5296(4) 0.6703(2) 0.9063(3)
Ag24_6 Ag 0.83338(5) 0.95767(4) 0.92774(3)
O43_6 O 0.27778(45) 0.79252(34) 0.6595(2)
Ag29_6 Ag 0.84958(5) 0.99574(4) 0.84747(3)
Ag33_6 Ag 0.84848(4) 0.99753(2) 0.75628(3)
Ag14_3 Ag 0.03879(2) 0.16602(3) 0.40537(3)
Ag22_7 Ag 0.02262(2) 0.19040(3) 0.48346(3)
O34_7 O 0.0301(4) 0.2075(3) 0.4029(3)
O39_7 O 0.0075(4) 0.1888(3) 0.3410(3)
O40_3 O 0.03818(31) 0.14130(25) 0.2582(3)
N18_3 N 0.0835(4) 0.1676(3) 0.4164(2)
O42_3 O 0.03692(31) 0.14738(25) 0.3260(2)
Ag1_7 Ag 0.64937(2) 0.00058(2) 0.27654(3)
Ag2_7 Ag 0.83199(2) 0.01479(2) 0.42674(3)
Ag6_7 Ag 0.82902(2) 0.01472(2) 0.33597(3)
O1_7 O 0.9881(2) 0.1233(3) 0.4108(3)
F1_7 F 0.69658(16) 0.10475(22) 0.26441(19)
F2_7 F 0.73801(14) 0.02106(15) 0.3548(2)
F3_7 F 0.74397(14) 0.03130(14) 0.42069(18)
F4_7 F 0.93506(15) 0.07348(15) 0.41949(19)
F5_7 F 0.92037(14) 0.11956(14) 0.4306(2)
F6_7 F 0.90713(14) 0.04654(14) 0.16924(19)
F9_7 F 0.89648(15) 0.08753(15) 0.2491(2)
F10_7 F 0.92655(15) 0.11763(14) 0.49596(19)
F11_7 F 0.76076(14) 0.03143(15) 0.17345(19)
F13_7 F 0.91331(15) 0.04280(14) 0.2347(2)
F14_7 F 0.64472(15) 0.08872(16) 0.18361(19)
O4_7 O 0.96173(18) 0.09891(25) 0.2330(2)
O5_7 O 0.87096(19) 0.06464(18) 0.4331(2)
F18_7 F 0.94622(16) 0.07604(15) 0.48379(19)
F19_7 F 0.63597(14) 0.08972(14) 0.24941(19)
N1_7 N 0.8600(2) 0.0243(2) 0.0902(3)
F22_7 F 0.75682(14) 0.02281(15) 0.10694(19)
F23_7 F 0.88268(15) 0.08378(15) 0.18557(19)
N2_7 N 0.6935(2) 0.0006(2) 0.2745(3)
O8_7 O 0.87962(17) 0.06022(18) 0.4998(2)
O9_7 O 0.98734(18) 0.13777(26) 0.4746(3)
O11_7 O 0.6876(2) 0.15269(28) 0.1951(3)
O12_7 O 0.69836(18) 0.15725(25) 0.2624(2)
O13_7 O 0.79374(18) 0.02661(18) 0.4190(2)
O14_7 O 0.64019(18) 0.03968(18) 0.2594(2)
F25_7 F 0.70546(14) 0.10920(20) 0.19844(19)
O15_7 O 0.65505(18) 0.04212(17) 0.1942(2)
N3_7 N 0.6703(2) 0.1408(3) 0.0937(3)
O18_7 O 0.69722(18) 0.00985(18) 0.1745(2)
O20_7 O 0.78197(18) 0.00652(19) 0.3551(2)
C1_7 C 0.8605(3) 0.0510(3) 0.0977(3)
C2_7 C 0.8938(3) 0.0136(2) 0.3288(3)
H1_7 H 0.8734 0.0006 0.3396
H2_7 H 0.9084 0.0106 0.3443
H3_7 H 0.8943 0.0083 0.3007
O25_3 O 0.94910(19) 0.10628(28) 0.1704(2)
O26_7 O 0.8471(2) 0.0193(2) 0.1981(3)
C3_7 C 0.7191(3) 0.0553(2) 0.2582(3)
H4_7 H 0.7199 0.0586 0.2292
H5_7 H 0.7364 0.0725 0.2709
H6_7 H 0.7003 0.0533 0.2689
N9_7 N 0.6699(2) 0.0860(2) 0.1022(3)
C5_7 C 0.8313(3) 0.0490(3) 0.1116(4)
H7_7 H 0.8144 0.0335 0.0960
H8_7 H 0.8324 0.0685 0.1077
H9_7 H 0.8281 0.0436 0.1400
C7_7 C 0.6150(3) 0.1140(4) 0.0769(4)
H13_7 H 0.6153 0.1314 0.0897
H14_7 H 0.5971 0.0953 0.0858
H15_7 H 0.6142 0.1158 0.0477
C9_7 C 0.7201(3) 0.0266(2) 0.2668(3)
C10_7 C 0.6960(3) 0.1127(3) 0.1057(3)
C13_7 C 0.8871(3) 0.0686(3) 0.2160(3)
C14_7 C 0.9191(3) 0.1004(3) 0.4615(3)
C16_7 C 0.6919(2) 0.1442(3) 0.2286(3)
C17_7 C 0.6488(2) 0.0517(2) 0.2259(3)
C19_7 C 0.6873(2) 0.1107(3) 0.2296(3)
C20_7 C 0.9769(2) 0.1217(4) 0.4448(3)
C22_7 C 0.6437(3) 0.0858(3) 0.0939(3)
C23_7 C 0.7408(2) 0.0129(2) 0.1432(3)
C25_7 C 0.7255(3) 0.1712(3) 0.1072(3)
H19_7 H 0.7225 0.1875 0.0967
H20_7 H 0.7421 0.1710 0.0929
H21_7 H 0.7303 0.1746 0.1358
C27_7 C 0.6539(2) 0.0850(2) 0.2215(3)
C30_7 C 0.7479(2) 0.0263(2) 0.2653(3)
C31_7 C 0.9144(2) 0.0526(3) 0.0800(3)
C32_7 C 0.7127(3) 0.0184(2) 0.1435(3)
C34_7 C 0.8867(3) 0.0005(3) 0.4379(3)
H22_7 H 0.8824 0.0171 0.4360
H23_7 H 0.9030 0.0040 0.4193
C37_7 C 0.8885(3) 0.0792(2) 0.0928(3)
C38_7 C 0.8864(3) 0.0246(3) 0.0814(3)
C39_7 C 0.9019(2) 0.0469(3) 0.3316(3)
N10_7 N 0.8784(2) 0.0527(2) 0.3383(3)
C40_7 C 0.9444(3) 0.0931(3) 0.4525(3)
C44_7 C 0.8865(3) 0.0717(2) 0.4656(3)
C46_7 C 0.7784(2) 0.0554(2) 0.2598(3)
H34_7 H 0.7839 0.0672 0.2847
H35_7 H 0.7769 0.0674 0.2380
H36_7 H 0.7940 0.0502 0.2533
N11_7 N 0.9380(2) 0.1000(3) 0.3298(3)
C49_7 C 0.8845(2) 0.0816(2) 0.3406(3)
O28_7 O 0.8411(2) 0.0391(2) 0.2542(3)
C51_7 C 0.7772(3) 0.0160(3) 0.3888(3)
N12_3 N 0.9148(2) 0.0793(2) 0.0839(3)
C54_7 C 0.9443(3) 0.0539(3) 0.0725(3)
H37_7 H 0.9485 0.0438 0.0944
H38_7 H 0.9605 0.0751 0.0710
H39_7 H 0.9433 0.0438 0.0472
C55_7 C 0.8583(2) 0.0870(2) 0.3464(3)
H40_7 H 0.8419 0.0740 0.3282
H41_7 H 0.8649 0.1083 0.3407
H42_7 H 0.8511 0.0823 0.3741
C56_7 C 0.9150(2) 0.1059(2) 0.3357(3)
C58_7 C 0.8551(3) 0.0391(3) 0.2247(4)
C59_7 C 0.7446(2) 0.0127(2) 0.3904(3)
C61_7 C 0.9316(2) 0.0705(3) 0.3277(3)
C62_7 C 0.6143(3) 0.0549(3) 0.0917(3)
H49_7 H 0.6176 0.0411 0.0750
H50_7 H 0.5982 0.0575 0.0801
H51_7 H 0.6084 0.0464 0.1187
C65_7 C 0.7257(3) 0.1121(3) 0.1111(3)
H55_7 H 0.7214 0.0930 0.1238
H56_7 H 0.7396 0.1290 0.1281
H57_7 H 0.7351 0.1138 0.0849
C66_7 C 0.9228(2) 0.1390(2) 0.3376(3)
H58_7 H 0.9195 0.1439 0.3648
H59_7 H 0.9098 0.1422 0.3189
H60_7 H 0.9440 0.1521 0.3302
C67_7 C 0.9581(2) 0.0654(3) 0.3221(3)
H61_7 H 0.9720 0.0741 0.3448
H62_7 H 0.9688 0.0752 0.2973
H63_7 H 0.9508 0.0437 0.3206
C68_7 C 0.6963(3) 0.1407(3) 0.1014(3)
C69_7 C 0.9128(3) 0.0621(3) 0.2058(4)
C71_7 C 0.6436(3) 0.1131(4) 0.0883(3)
C74_7 C 0.8910(3) 0.1103(3) 0.0979(3)
H70_7 H 0.8712 0.1084 0.0934
H71_7 H 0.9055 0.1245 0.0784
H72_7 H 0.8979 0.1178 0.1250
C75_7 C 0.9447(3) 0.0920(4) 0.2023(3)
Ag15_3 Ag 0.99753(2) 0.14906(3) 0.24372(3)
Ag16_4 Ag 0.98727(2) 0.13668(3) 0.33331(3)
N17_7 N 0.9963(2) 0.1926(3) 0.2397(3)
Ag23_3 Ag 0.95767(4) 0.12430(3) 0.07226(3)
N21_7 N 0.6549(5) 0.0494(4) 0.3541(2)
Ag28_3 Ag 0.99574(4) 0.14617(3) 0.15253(3)
Ag29_7 Ag 0.67092(4) 0.18717(3) 0.18081(3)
Ag33_7 Ag 0.66913(2) 0.18428(3) 0.08962(3)
Ag3_7 Ag 0.81574(2) 0.98024(2) 0.09353(3)
Ag8_7 Ag 0.79080(2) 0.99704(2) 0.25705(3)
Ag9_7 Ag 0.81508(2) 0.96785(2) 0.18305(3)
F7_7 F 0.54371(14) 0.91484(14) 0.28250(19)
F8_7 F 0.85777(15) 0.94393(14) 0.33314(19)
F12_7 F 0.54593(14) 0.90862(14) 0.34828(18)
O3_7 O 0.59945(17) 0.96366(18) 0.2859(2)
F15_7 F 0.71175(15) 0.96237(15) 0.1215(2)
F16_7 F 0.71611(14) 0.96022(15) 0.3703(2)
F17_7 F 0.58604(21) 0.88752(15) 0.33585(19)
F20_7 F 0.86454(15) 0.95177(15) 0.2677(2)
F21_7 F 0.79705(15) 0.90169(14) 0.31993(19)
O6_7 O 0.5408(3) 0.8441(2) 0.2638(3)
F24_7 F 0.58896(21) 0.89934(15) 0.27099(18)
O10_7 O 0.67574(18) 0.9822(2) 0.3790(2)
F26_7 F 0.72017(15) 0.97011(15) 0.18707(19)
O16_7 O 0.76752(18) 0.96940(18) 0.1123(2)
O17_7 O 0.60349(19) 0.95290(18) 0.3515(2)
O19_7 O 0.77607(19) 0.9788(2) 0.1794(2)
O21_7 O 0.5221(3) 0.8480(2) 0.3257(3)
N4_7 N 0.8322(2) 0.9706(2) 0.4250(3)
O22_5 O 0.85870(25) 0.89689(18) 0.2582(3)
N5_7 N 0.7478(2) 0.9995(2) 0.2690(3)
O23_7 O 0.81299(19) 0.96266(19) 0.3237(2)
N6_7 N 0.6083(2) 0.9436(2) 0.1896(3)
O24_7 O 0.8006(2) 0.9563(2) 0.2579(2)
F27_7 F 0.80400(15) 0.90577(14) 0.25508(18)
N7_5 N 0.8324(3) 0.9160(2) 0.4164(2)
F28_7 F 0.72876(14) 0.97055(14) 0.43490(18)
C4_7 C 0.6939(3) 0.9742(2) 0.2803(3)
C6_7 C 0.8845(3) 0.9943(3) 0.0720(3)
H10_7 H 0.8652 0.9777 0.0819
H11_7 H 0.9012 0.9935 0.0851
H12_7 H 0.8857 0.9923 0.0430
C8_7 C 0.8085(3) 0.9496(3) 0.2909(3)
O27_5 O 0.85262(25) 0.88955(18) 0.3260(2)
C11_7 C 0.5913(2) 0.9478(3) 0.3178(3)
C12_7 C 0.8579(3) 0.9703(3) 0.4272(3)
C15_7 C 0.7758(3) 0.9444(3) 0.4144(4)
H16_7 H 0.7758 0.9582 0.4347
H17_7 H 0.7587 0.9240 0.4191
H18_7 H 0.7740 0.9513 0.3878
C18_7 C 0.8135(3) 0.9216(3) 0.2905(3)
C21_7 C 0.7213(2) 0.9734(2) 0.2759(3)
C24_7 C 0.7620(2) 0.9757(2) 0.1477(3)
C26_7 C 0.8589(3) 0.9431(3) 0.4228(3)
C28_7 C 0.5417(4) 0.8580(3) 0.2962(4)
C29_7 C 0.7339(2) 0.9806(2) 0.1505(3)
C33_7 C 0.6867(3) 0.9769(4) 0.4103(4)
H24_7 H 0.8929 0.9993 0.4653
C35_7 C 0.5624(2) 0.9155(3) 0.3136(3)
C36_7 C 0.6477(2) 0.9287(3) 0.1799(3)
H25_7 H 0.6520 0.9253 0.1524
H26_7 H 0.6512 0.9158 0.1982
H27_7 H 0.6609 0.9499 0.1871
C41_7 C 0.7767(4) 0.8859(2) 0.4101(3)
H28_7 H 0.7640 0.8819 0.4339
H29_7 H 0.7658 0.8866 0.3864
H30_7 H 0.7816 0.8697 0.4070
C42_7 C 0.8049(3) 0.9436(3) 0.4170(3)
C43_7 C 0.5901(3) 0.8906(2) 0.1784(3)
C45_7 C 0.5963(3) 0.8640(2) 0.1712(3)
H31_7 H 0.6022 0.8587 0.1965
H32_7 H 0.6128 0.8703 0.1518
H33_7 H 0.5781 0.8465 0.1608
C47_7 C 0.7187(2) 0.9795(3) 0.4026(3)
C48_7 C 0.6144(2) 0.9208(3) 0.1830(3)
C50_7 C 0.8540(4) 0.9024(3) 0.2941(4)
C52_7 C 0.5550(3) 0.9069(2) 0.1873(3)
C53_7 C 0.8057(4) 0.9159(2) 0.4149(3)
C57_7 C 0.8878(3) 0.9416(3) 0.4234(3)
H43_7 H 0.8947 0.9429 0.4510
H44_7 H 0.9034 0.9585 0.4078
H45_7 H 0.8840 0.9225 0.4115
C60_7 C 0.5726(2) 0.9633(2) 0.1973(3)
H46_7 H 0.5916 0.9817 0.2037
H47_7 H 0.5582 0.9585 0.2192
H48_7 H 0.5642 0.9664 0.1725
C63_7 C 0.5215(4) 0.8984(3) 0.1896(3)
H52_7 H 0.5087 0.8781 0.1785
H53_7 H 0.5185 0.9130 0.1741
H54_7 H 0.5159 0.8987 0.2176
C64_7 C 0.5788(2) 0.9368(2) 0.1915(3)
C70_7 C 0.6639(3) 0.9457(3) 0.2887(3)
H64_7 H 0.6568 0.9470 0.3155
H65_7 H 0.6666 0.9280 0.2871
H66_7 H 0.6490 0.9438 0.2688
C72_7 C 0.5698(4) 0.8900(3) 0.3034(4)
C73_7 C 0.7224(3) 0.9438(2) 0.2795(3)
H67_7 H 0.7199 0.9348 0.2529
H68_7 H 0.7060 0.9297 0.2970
H69_7 H 0.7419 0.9482 0.2908
C76_7 C 0.8475(3) 0.9304(3) 0.2973(3)
Ag11_5 Ag 0.87570(3) 0.83338(2) 0.07226(3)
F29_7 F 0.86631(20) 0.92462(14) 0.01302(19)
F30_7 F 0.85763(20) 0.92135(14) 0.07783(18)
F31_7 F 0.79630(24) 0.87643(14) 0.06181(19)
O29_7 O 0.81859(30) 0.94445(17) 0.0072(2)
O30_7 O 0.84324(26) 0.86079(19) 0.0119(2)
O31_7 O 0.80316(29) 0.93166(16) 0.0720(2)
O32_7 O 0.86485(27) 0.87324(19) 0.0747(3)
C77_7 C 0.8514(4) 0.8759(3) 0.0446(4)
C78_7 C 0.8146(5) 0.8985(3) 0.0350(4)
H73_7 H 0.6902 0.7597 0.0178
C83_7 C 0.8114(5) 0.9276(3) 0.0393(4)
H84_7 H 0.7578 0.8159 0.0210
C87_7 C 0.8479(4) 0.9047(3) 0.0427(3)
Ag13_5 Ag 0.85383(3) 0.84958(2) 0.15253(3)
N15_7 N 0.8417(3) 0.8865(2) 0.1617(3)
N16_7 N 0.8283(4) 0.9331(2) 0.1671(3)
C89_7 C 0.7881(4) 0.8474(2) 0.1518(3)
H85_7 H 0.7932 0.8340 0.1667
H86_7 H 0.7686 0.8443 0.1610
H87_7 H 0.7871 0.8429 0.1232
C90_7 C 0.8127(4) 0.8805(3) 0.1592(3)
C91_7 C 0.8821(4) 0.9724(3) 0.1771(4)
H88_7 H 0.8905 0.9745 0.2040
H89_7 H 0.8981 0.9782 0.1572
H90_7 H 0.8732 0.9855 0.1745
C92_7 C 0.7728(4) 0.8976(2) 0.1572(4)
H91_7 H 0.7729 0.9168 0.1546
H92_7 H 0.7633 0.8851 0.1335
H93_7 H 0.7614 0.8869 0.1811
C93_7 C 0.8967(4) 0.9223(3) 0.1712(4)
H94_7 H 0.9069 0.9284 0.1452
H95_7 H 0.9077 0.9386 0.1907
H96_7 H 0.8965 0.9040 0.1804
C94_7 C 0.8645(4) 0.9161(3) 0.1672(4)
C95_7 C 0.8058(4) 0.9041(2) 0.1609(3)
C96_7 C 0.8578(4) 0.9398(3) 0.1703(4)
O36_7 O 0.84958(32) 0.98734(18) 0.5254(3)
O37_7 O 0.81935(28) 0.79839(34) 0.1383(3)
O38_7 O 0.82391(25) 0.79222(31) 0.0710(2)
O41_5 O 0.89372(28) 0.84283(34) 0.1704(2)
N20_5 N 0.9207(2) 0.8356(3) 0.0839(3)
Ag30_5 Ag 0.83398(3) 0.87278(4) 0.40537(3)
Ag31_7 Ag 0.49935(3) 0.79389(4) 0.26130(3)
Ag32_5 Ag 0.85094(3) 0.84848(4) 0.24372(3)
Ag34_7 Ag 0.86332(3) 0.85060(4) 0.33331(3)
Ag35_10 Ag 0.47001(3) 0.81607(4) 0.33336(3)
Ag12_7 Ag 0.82496(3) 0.80905(2) 0.99668(3)
F32_7 F 0.80538(25) 0.88616(14) 0.99670(19)
N13_7 N 0.7767(3) 0.7736(2) 0.9825(3)
N14_7 N 0.7160(4) 0.7278(3) 0.9793(2)
C79_7 C 0.7226(4) 0.7563(4) 0.9855(3)
C80_7 C 0.7702(3) 0.7447(2) 0.9774(3)
C81_7 C 0.7386(4) 0.7209(3) 0.9753(3)
C82_7 C 0.6972(4) 0.7630(4) 0.9900(3)
H74_7 H 0.7044 0.7841 0.9827
H75_7 H 0.6805 0.7497 0.9724
C84_7 C 0.7298(4) 0.6878(4) 0.9694(3)
H76_7 H 0.7294 0.6836 0.9407
H77_7 H 0.7446 0.6839 0.9827
H78_7 H 0.7097 0.6747 0.9809
C85_7 C 0.7957(4) 0.7383(3) 0.9738(3)
H79_7 H 0.8132 0.7535 0.9888
H80_7 H 0.7894 0.7182 0.9847
H81_7 H 0.8012 0.7390 0.9456
C86_7 C 0.7625(3) 0.8132(2) 0.9934(3)
H82_7 H 0.7842 0.8259 0.9887
H83_7 H 0.7514 0.8190 0.9749
C88_7 C 0.7531(3) 0.7801(2) 0.9865(3)
Ag20_7 Ag 0.66746(2) 0.69146(3) 0.96666(2)
O43_7 O 0.87415(34) 0.81859(30) 0.9928(2)
Ag11_6 Ag 0.16662(2) 0.04233(4) 0.07226(3)
Ag13_6 Ag 0.15042(2) 0.00426(4) 0.15253(3)
O37_8 O 0.20161(34) 0.02097(44) 0.1383(3)
O38_8 O 0.20778(31) 0.03170(40) 0.0710(2)
O41_6 O 0.15717(34) 0.05090(44) 0.1704(2)
N20_6 N 0.1644(3) 0.0852(4) 0.0839(3)
Ag32_6 Ag 0.15152(4) 0.00247(5) 0.24372(3)
Ag34_8 Ag 0.14940(4) 0.01273(5) 0.33331(3)
Ag12_8 Ag 0.19095(2) 0.01592(4) 0.99668(3)
N13_8 N 0.2264(2) 0.0032(4) 0.9825(3)
C80_8 C 0.2553(2) 0.0256(4) 0.9774(3)
C81_8 C 0.2791(3) 0.0178(5) 0.9753(3)
C84_8 C 0.3122(4) 0.0421(6) 0.9694(3)
H76_8 H 0.3164 0.0459 0.9407
H77_8 H 0.3161 0.0608 0.9827
H78_8 H 0.3253 0.0351 0.9809
C85_8 C 0.2617(3) 0.0575(5) 0.9738(3)
H79_8 H 0.2465 0.0598 0.9888
H80_8 H 0.2818 0.0713 0.9847
H81_8 H 0.2610 0.0623 0.9456
O43_8 O 0.18141(30) 0.05555(45) 0.9928(2)
Ag3_8 Ag 0.01976(2) 0.83551(3) 0.09353(3)
Ag8_8 Ag 0.00296(2) 0.79377(3) 0.25705(3)
Ag9_8 Ag 0.03215(2) 0.84724(3) 0.18305(3)
F7_8 F 0.08516(14) 0.62888(20) 0.28250(19)
F8_8 F 0.05607(14) 0.91385(21) 0.33314(19)
F12_8 F 0.09138(14) 0.63732(20) 0.34828(18)
O3_8 O 0.03634(18) 0.63580(25) 0.2859(2)
F15_8 F 0.03763(15) 0.74939(21) 0.1215(2)
F16_8 F 0.03978(15) 0.75590(21) 0.3703(2)
F17_8 F 0.11248(15) 0.69853(26) 0.33585(19)
F20_8 F 0.04823(15) 0.91278(21) 0.2677(2)
F21_8 F 0.09831(14) 0.89537(21) 0.31993(19)
O6_8 O 0.1559(2) 0.6968(4) 0.2638(3)
F24_8 F 0.10066(15) 0.68963(26) 0.27099(18)
O10_8 O 0.0178(2) 0.69358(27) 0.3790(2)
F26_8 F 0.02989(15) 0.75007(21) 0.18707(19)
O16_8 O 0.03060(18) 0.79813(25) 0.1123(2)
O17_8 O 0.04710(18) 0.65060(26) 0.3515(2)
O19_8 O 0.0212(2) 0.79731(28) 0.1794(2)
O21_8 O 0.1520(2) 0.6742(4) 0.3257(3)
N4_8 N 0.0294(2) 0.8617(3) 0.4250(3)
O22_6 O 0.10311(18) 0.96182(31) 0.2582(3)
N5_8 N 0.0005(2) 0.7484(3) 0.2690(3)
O23_8 O 0.03734(19) 0.85034(27) 0.3237(2)
N6_8 N 0.0564(2) 0.6648(3) 0.1896(3)
O24_8 O 0.0437(2) 0.8444(3) 0.2579(2)
F27_8 F 0.09423(14) 0.89824(21) 0.25508(18)
N7_6 N 0.0840(2) 0.9165(4) 0.4164(2)
F28_8 F 0.02945(14) 0.75822(20) 0.43490(18)
C4_8 C 0.0258(2) 0.7198(4) 0.2803(3)
C6_8 C 0.0057(3) 0.8903(4) 0.0720(3)
H10_8 H 0.0223 0.8876 0.0819
H11_8 H 0.0065 0.9078 0.0851
H12_8 H 0.0077 0.8935 0.0430
C8_8 C 0.0504(3) 0.8590(4) 0.2909(3)
O27_6 O 0.11045(18) 0.96308(31) 0.3260(2)
C11_8 C 0.0522(3) 0.6436(4) 0.3178(3)
C12_8 C 0.0297(3) 0.8877(4) 0.4272(3)
C15_8 C 0.0556(3) 0.8315(4) 0.4144(4)
H16_8 H 0.0418 0.8177 0.4347
H17_8 H 0.0760 0.8348 0.4191
H18_8 H 0.0487 0.8228 0.3878
C18_8 C 0.0784(3) 0.8920(4) 0.2905(3)
C21_8 C 0.0266(2) 0.7480(3) 0.2759(3)
C24_8 C 0.0243(2) 0.7864(3) 0.1477(3)
C26_8 C 0.0569(3) 0.9159(4) 0.4228(3)
C28_8 C 0.1420(3) 0.6838(5) 0.2962(4)
C29_8 C 0.0194(2) 0.7534(3) 0.1505(3)
C33_8 C 0.0231(4) 0.7099(5) 0.4103(4)
H24_8 H 0.0007 0.8937 0.4653
C35_8 C 0.0845(3) 0.6470(4) 0.3136(3)
C36_8 C 0.0713(3) 0.7191(4) 0.1799(3)
H25_8 H 0.0747 0.7268 0.1524
H26_8 H 0.0842 0.7355 0.1982
H27_8 H 0.0501 0.7111 0.1871
C41_8 C 0.1141(2) 0.8909(4) 0.4101(3)
H28_8 H 0.1181 0.8822 0.4339
H29_8 H 0.1134 0.8793 0.3864
H30_8 H 0.1303 0.9120 0.4070
C42_8 C 0.0564(3) 0.8614(4) 0.4170(3)
C43_8 C 0.1094(2) 0.6996(4) 0.1784(3)
C45_8 C 0.1360(2) 0.7324(4) 0.1712(3)
H31_8 H 0.1413 0.7436 0.1965
H32_8 H 0.1297 0.7426 0.1518
H33_8 H 0.1535 0.7317 0.1608
C47_8 C 0.0205(3) 0.7393(4) 0.4026(3)
C48_8 C 0.0792(3) 0.6937(4) 0.1830(3)
C50_8 C 0.0976(3) 0.9517(5) 0.2941(4)
C52_8 C 0.0931(2) 0.6482(4) 0.1873(3)
C53_8 C 0.0841(2) 0.8899(4) 0.4149(3)
C57_8 C 0.0584(3) 0.9463(4) 0.4234(3)
H43_8 H 0.0571 0.9519 0.4510
H44_8 H 0.0415 0.9450 0.4078
H45_8 H 0.0775 0.9616 0.4115
C60_8 C 0.0367(2) 0.6094(3) 0.1973(3)
H46_8 H 0.0183 0.6100 0.2037
H47_8 H 0.0415 0.5998 0.2192
H48_8 H 0.0336 0.5979 0.1725
C63_8 C 0.1016(3) 0.6232(5) 0.1896(3)
H52_8 H 0.1219 0.6307 0.1785
H53_8 H 0.0870 0.6056 0.1741
H54_8 H 0.1013 0.6173 0.2176
C64_8 C 0.0632(2) 0.6421(3) 0.1915(3)
C70_8 C 0.0543(3) 0.7183(4) 0.2887(3)
H64_8 H 0.0530 0.7099 0.3155
H65_8 H 0.0720 0.7387 0.2871
H66_8 H 0.0562 0.7053 0.2688
C72_8 C 0.1100(3) 0.6799(5) 0.3034(4)
C73_8 C 0.0562(2) 0.7787(4) 0.2795(3)
H67_8 H 0.0652 0.7852 0.2529
H68_8 H 0.0703 0.7764 0.2970
H69_8 H 0.0518 0.7938 0.2908
C76_8 C 0.0696(3) 0.9172(4) 0.2973(3)
F29_8 F 0.07538(14) 0.94170(24) 0.01302(19)
F30_8 F 0.07865(14) 0.93629(24) 0.07783(18)
F31_8 F 0.12357(14) 0.91988(28) 0.06181(19)
O29_8 O 0.05555(17) 0.87415(34) 0.0072(2)
O30_8 O 0.13921(19) 0.98246(32) 0.0119(2)
O31_8 O 0.06834(16) 0.87151(33) 0.0720(2)
O32_8 O 0.12676(19) 0.99162(33) 0.0747(3)
C77_8 C 0.1241(3) 0.9756(5) 0.0446(4)
C78_8 C 0.1015(3) 0.9162(6) 0.0350(4)
H73_8 H 0.2403 0.9306 0.0178
C83_8 C 0.0724(3) 0.8839(6) 0.0393(4)
H84_8 H 0.1841 0.9420 0.0210
C87_8 C 0.0953(3) 0.9433(5) 0.0427(3)
N15_8 N 0.1135(2) 0.9553(4) 0.1617(3)
N16_8 N 0.0669(2) 0.8953(4) 0.1671(3)
C89_8 C 0.1526(2) 0.9408(4) 0.1518(3)
H85_8 H 0.1660 0.9593 0.1667
H86_8 H 0.1557 0.9244 0.1610
H87_8 H 0.1571 0.9443 0.1232
C90_8 C 0.1195(3) 0.9323(5) 0.1592(3)
C91_8 C 0.0276(3) 0.9098(5) 0.1771(4)
H88_8 H 0.0255 0.9161 0.2040
H89_8 H 0.0218 0.9200 0.1572
H90_8 H 0.0145 0.8878 0.1745
C92_8 C 0.1024(2) 0.8753(4) 0.1572(4)
H91_8 H 0.0832 0.8562 0.1546
H92_8 H 0.1149 0.8783 0.1335
H93_8 H 0.1131 0.8746 0.1811
C93_8 C 0.0777(3) 0.9745(5) 0.1712(4)
H94_8 H 0.0716 0.9786 0.1452
H95_8 H 0.0614 0.9692 0.1907
H96_8 H 0.0960 0.9926 0.1804
C94_8 C 0.0839(3) 0.9485(5) 0.1672(4)
C95_8 C 0.0959(2) 0.9018(4) 0.1609(3)
C96_8 C 0.0602(3) 0.9181(5) 0.1703(4)
O36_8 O 0.01266(18) 0.86223(37) 0.5254(3)
Ag30_6 Ag 0.12722(4) 0.96121(5) 0.40537(3)
Ag31_8 Ag 0.20611(4) 0.70546(5) 0.26130(3)
Ag35_11 Ag 0.18393(4) 0.65394(5) 0.33336(3)
F32_8 F 0.11384(14) 0.91923(29) 0.99670(19)
N14_8 N 0.2722(3) 0.9883(5) 0.9793(2)
C79_8 C 0.2437(4) 0.9664(6) 0.9855(3)
C82_8 C 0.2370(4) 0.9343(6) 0.9900(3)
H74_8 H 0.2159 0.9204 0.9827
H75_8 H 0.2503 0.9309 0.9724
C86_8 C 0.1868(2) 0.9494(4) 0.9934(3)
H82_8 H 0.1741 0.9584 0.9887
H83_8 H 0.1810 0.9325 0.9749
C88_8 C 0.2199(2) 0.9731(4) 0.9865(3)
Ag20_8 Ag 0.30854(3) 0.97601(4) 0.96666(2)
Ag1_8 Ag 0.99942(2) 0.64880(3) 0.27654(3)
Ag2_8 Ag 0.98521(2) 0.81721(3) 0.42674(3)
Ag6_8 Ag 0.98528(2) 0.81431(3) 0.33597(3)
O1_8 O 0.8767(3) 0.8649(4) 0.4108(3)
F1_8 F 0.89525(22) 0.59184(27) 0.26441(19)
F2_8 F 0.97894(15) 0.71696(21) 0.3548(2)
F3_8 F 0.96870(14) 0.71268(20) 0.42069(18)
F4_8 F 0.92652(15) 0.86159(21) 0.41949(19)
F5_8 F 0.88044(14) 0.80082(20) 0.4306(2)
F6_8 F 0.95346(14) 0.86060(20) 0.16924(19)
F9_8 F 0.91247(15) 0.80896(21) 0.2491(2)
F10_8 F 0.88237(14) 0.80893(21) 0.49596(19)
F11_8 F 0.96857(15) 0.72934(21) 0.17345(19)
F13_8 F 0.95720(14) 0.87052(21) 0.2347(2)
F14_8 F 0.91128(16) 0.55601(22) 0.18361(19)
O4_8 O 0.90109(25) 0.86283(31) 0.2330(2)
O5_8 O 0.93536(18) 0.80633(26) 0.4331(2)
F18_8 F 0.92396(15) 0.87019(22) 0.48379(19)
F19_8 F 0.91028(14) 0.54626(20) 0.24941(19)
N1_8 N 0.9757(2) 0.8358(3) 0.0902(3)
F22_8 F 0.97719(15) 0.73402(21) 0.10694(19)
F23_8 F 0.91622(15) 0.79891(21) 0.18557(19)
N2_8 N 0.9994(2) 0.6930(3) 0.2745(3)
O8_8 O 0.93978(18) 0.81941(25) 0.4998(2)
O9_8 O 0.86223(26) 0.84958(32) 0.4746(3)
O11_8 O 0.84731(28) 0.53495(34) 0.1951(3)
O12_8 O 0.84275(25) 0.54112(31) 0.2624(2)
O13_8 O 0.97339(18) 0.76714(25) 0.4190(2)
O14_8 O 0.96032(18) 0.60052(25) 0.2594(2)
F25_8 F 0.89080(20) 0.59627(24) 0.19844(19)
O15_8 O 0.95788(17) 0.61294(25) 0.1942(2)
N3_8 N 0.8592(3) 0.5296(4) 0.0937(3)
O18_8 O 0.99015(18) 0.68738(25) 0.1745(2)
O20_8 O 0.99348(19) 0.77546(26) 0.3551(2)
C1_8 C 0.9490(3) 0.8096(4) 0.0977(3)
C2_8 C 0.9864(2) 0.8803(4) 0.3288(3)
H1_8 H 0.9994 0.8729 0.3396
H2_8 H 0.9894 0.8979 0.3443
H3_8 H 0.9917 0.8861 0.3007
O26_8 O 0.9807(2) 0.8279(3) 0.1981(3)
C3_8 C 0.9447(2) 0.6639(4) 0.2582(3)
H4_8 H 0.9414 0.6614 0.2292
H5_8 H 0.9275 0.6640 0.2709
H6_8 H 0.9467 0.6471 0.2689
N9_8 N 0.9140(2) 0.5840(3) 0.1022(3)
C5_8 C 0.9510(3) 0.7824(4) 0.1116(4)
H7_8 H 0.9665 0.7810 0.0960
H8_8 H 0.9315 0.7640 0.1077
H9_8 H 0.9564 0.7846 0.1400
C7_8 C 0.8860(4) 0.5011(5) 0.0769(4)
H13_8 H 0.8686 0.4840 0.0897
H14_8 H 0.9047 0.5019 0.0858
H15_8 H 0.8842 0.4985 0.0477
C9_8 C 0.9734(2) 0.6936(4) 0.2668(3)
C10_8 C 0.8873(3) 0.5834(4) 0.1057(3)
C13_8 C 0.9314(3) 0.8186(4) 0.2160(3)
C14_8 C 0.8996(3) 0.8188(4) 0.4615(3)
C16_8 C 0.8558(3) 0.5478(4) 0.2286(3)
C17_8 C 0.9483(2) 0.5972(3) 0.2259(3)
C19_8 C 0.8893(3) 0.5767(4) 0.2296(3)
C20_8 C 0.8783(4) 0.8553(4) 0.4448(3)
C22_8 C 0.9142(3) 0.5580(4) 0.0939(3)
C23_8 C 0.9871(2) 0.7280(3) 0.1432(3)
C25_8 C 0.8288(3) 0.5544(4) 0.1072(3)
H19_8 H 0.8125 0.5351 0.0967
H20_8 H 0.8290 0.5712 0.0929
H21_8 H 0.8254 0.5558 0.1358
C27_8 C 0.9150(2) 0.5690(3) 0.2215(3)
C30_8 C 0.9737(2) 0.7217(3) 0.2653(3)
C31_8 C 0.9474(3) 0.8619(4) 0.0800(3)
C32_8 C 0.9816(2) 0.6944(4) 0.1435(3)
C34_8 C 0.9995(3) 0.8863(4) 0.4379(3)
H22_8 H 0.9829 0.8654 0.4360
H23_8 H 0.9960 0.8991 0.4193
C37_8 C 0.9208(2) 0.8094(4) 0.0928(3)
C38_8 C 0.9754(3) 0.8619(4) 0.0814(3)
C39_8 C 0.9531(3) 0.8551(4) 0.3316(3)
N10_8 N 0.9473(2) 0.8258(3) 0.3383(3)
C40_8 C 0.9069(3) 0.8514(4) 0.4525(3)
C44_8 C 0.9283(2) 0.8149(4) 0.4656(3)
C46_8 C 0.9446(2) 0.7231(3) 0.2598(3)
H34_8 H 0.9328 0.7168 0.2847
H35_8 H 0.9326 0.7096 0.2380
H36_8 H 0.9498 0.7439 0.2533
N11_8 N 0.9000(3) 0.8381(4) 0.3298(3)
C49_8 C 0.9184(2) 0.8030(3) 0.3406(3)
O28_8 O 0.9609(2) 0.8021(3) 0.2542(3)
C51_8 C 0.9840(3) 0.7613(4) 0.3888(3)
C54_8 C 0.9461(3) 0.8905(4) 0.0725(3)
H37_8 H 0.9562 0.9048 0.0944
H38_8 H 0.9249 0.8855 0.0710
H39_8 H 0.9562 0.8996 0.0472
C55_8 C 0.9130(2) 0.7714(3) 0.3464(3)
H40_8 H 0.9260 0.7680 0.3282
H41_8 H 0.8917 0.7567 0.3407
H42_8 H 0.9177 0.7689 0.3741
C56_8 C 0.8941(2) 0.8092(3) 0.3357(3)
C58_8 C 0.9609(3) 0.8161(4) 0.2247(4)
C59_8 C 0.9873(2) 0.7320(3) 0.3904(3)
C61_8 C 0.9295(3) 0.8612(4) 0.3277(3)
C62_8 C 0.9451(3) 0.5595(4) 0.0917(3)
H49_8 H 0.9589 0.5766 0.0750
H50_8 H 0.9425 0.5408 0.0801
H51_8 H 0.9536 0.5621 0.1187
C65_8 C 0.8879(3) 0.6137(4) 0.1111(3)
H55_8 H 0.9070 0.6285 0.1238
H56_8 H 0.8710 0.6107 0.1281
H57_8 H 0.8862 0.6214 0.0849
C66_8 C 0.8610(2) 0.7839(3) 0.3376(3)
H58_8 H 0.8561 0.7757 0.3648
H59_8 H 0.8578 0.7677 0.3189
H60_8 H 0.8479 0.7920 0.3302
C67_8 C 0.9346(3) 0.8928(4) 0.3221(3)
H61_8 H 0.9259 0.8980 0.3448
H62_8 H 0.9248 0.8937 0.2973
H63_8 H 0.9563 0.9072 0.3206
C68_8 C 0.8593(3) 0.5557(4) 0.1014(3)
C69_8 C 0.9379(3) 0.8508(4) 0.2058(4)
C71_8 C 0.8869(4) 0.5306(5) 0.0883(3)
C74_8 C 0.8897(3) 0.7808(4) 0.0979(3)
H70_8 H 0.8916 0.7629 0.0934
H71_8 H 0.8755 0.7811 0.0784
H72_8 H 0.8822 0.7802 0.1250
C75_8 C 0.9080(4) 0.8528(5) 0.2023(3)
Ag22_8 Ag 0.80960(3) 0.83221(4) 0.48346(3)
O34_8 O 0.7925(3) 0.8226(5) 0.4029(3)
N17_8 N 0.8074(3) 0.8038(4) 0.2397(3)
O39_8 O 0.8112(3) 0.8187(5) 0.3410(3)
N21_8 N 0.9506(4) 0.6056(6) 0.3541(2)
Ag29_8 Ag 0.81283(3) 0.48376(5) 0.18081(3)
Ag33_8 Ag 0.81572(3) 0.48486(4) 0.08962(3)
Ag1_9 Ag 0.35120(3) 0.35063(2) 0.27654(3)
Ag2_9 Ag 0.18279(3) 0.16801(2) 0.42674(3)
Ag3_9 Ag 0.16449(3) 0.18426(2) 0.09353(3)
Ag6_9 Ag 0.18569(3) 0.17098(2) 0.33597(3)
Ag8_9 Ag 0.20623(3) 0.20920(2) 0.25705(3)
Ag9_9 Ag 0.15276(3) 0.18492(2) 0.18305(3)
O1_9 O 0.1351(4) 0.0119(2) 0.4108(3)
F1_9 F 0.40816(27) 0.30342(16) 0.26441(19)
F2_9 F 0.28304(21) 0.26199(14) 0.3548(2)
F3_9 F 0.28732(20) 0.25603(14) 0.42069(18)
F4_9 F 0.13841(21) 0.06494(15) 0.41949(19)
F5_9 F 0.19918(20) 0.07963(14) 0.4306(2)
F6_9 F 0.13940(20) 0.09287(14) 0.16924(19)
F7_9 F 0.37112(20) 0.45629(14) 0.28250(19)
F8_9 F 0.08615(21) 0.14223(15) 0.33314(19)
F9_9 F 0.19104(21) 0.10352(15) 0.2491(2)
F10_9 F 0.19107(21) 0.07345(15) 0.49596(19)
F11_9 F 0.27066(21) 0.23924(14) 0.17345(19)
F12_9 F 0.36268(20) 0.45407(14) 0.34828(18)
O3_9 O 0.36420(25) 0.40055(17) 0.2859(2)
F13_9 F 0.12948(21) 0.08669(15) 0.2347(2)
F14_9 F 0.44399(22) 0.35528(15) 0.18361(19)
O4_9 O 0.13717(31) 0.03827(18) 0.2330(2)
F15_9 F 0.25061(21) 0.28825(15) 0.1215(2)
F16_9 F 0.24410(21) 0.28389(14) 0.3703(2)
F17_9 F 0.30147(26) 0.41396(21) 0.33585(19)
O5_9 O 0.19367(26) 0.12904(19) 0.4331(2)
F18_9 F 0.12981(22) 0.05378(16) 0.48379(19)
F19_9 F 0.45374(20) 0.36403(14) 0.24941(19)
N1_9 N 0.1642(3) 0.1400(2) 0.0902(3)
F20_9 F 0.08722(21) 0.13546(15) 0.2677(2)
F21_9 F 0.10463(21) 0.20295(15) 0.31993(19)
F22_9 F 0.26598(21) 0.24318(14) 0.10694(19)
F23_9 F 0.20109(21) 0.11732(15) 0.18557(19)
O6_9 O 0.3032(4) 0.4592(3) 0.2638(3)
F24_9 F 0.31037(26) 0.41104(21) 0.27099(18)
N2_9 N 0.3070(3) 0.3065(2) 0.2745(3)
O8_9 O 0.18059(25) 0.12038(17) 0.4998(2)
O9_9 O 0.15042(32) 0.01266(18) 0.4746(3)
O10_9 O 0.30642(27) 0.32426(18) 0.3790(2)
O11_9 O 0.46505(34) 0.3124(2) 0.1951(3)
O12_9 O 0.45888(31) 0.30164(18) 0.2624(2)
O13_9 O 0.23286(25) 0.20626(18) 0.4190(2)
O14_9 O 0.39948(25) 0.35981(18) 0.2594(2)
F25_9 F 0.40373(24) 0.29454(14) 0.19844(19)
O15_9 O 0.38706(25) 0.34495(18) 0.1942(2)
F26_9 F 0.24993(21) 0.27983(15) 0.18707(19)
O16_9 O 0.20187(25) 0.23248(18) 0.1123(2)
N3_9 N 0.4704(4) 0.3297(2) 0.0937(3)
O17_9 O 0.34940(26) 0.39651(19) 0.3515(2)
O18_9 O 0.31262(25) 0.30278(18) 0.1745(2)
O19_9 O 0.20269(28) 0.22393(19) 0.1794(2)
O20_9 O 0.22454(26) 0.21803(18) 0.3551(2)
C1_9 C 0.1904(4) 0.1395(3) 0.0977(3)
O21_9 O 0.3258(4) 0.4779(3) 0.3257(3)
N4_9 N 0.1383(3) 0.1678(2) 0.4250(3)
C2_9 C 0.1197(4) 0.1062(3) 0.3288(3)
H1_9 H 0.1271 0.1266 0.3396
H2_9 H 0.1021 0.0916 0.3443
H3_9 H 0.1139 0.1057 0.3007
N5_9 N 0.2516(3) 0.2522(2) 0.2690(3)
O23_9 O 0.14966(27) 0.18701(19) 0.3237(2)
N6_9 N 0.3352(3) 0.3917(2) 0.1896(3)
O24_9 O 0.1556(3) 0.1994(2) 0.2579(2)
O26_9 O 0.1721(3) 0.1529(2) 0.1981(3)
F27_9 F 0.10176(21) 0.19600(15) 0.25508(18)
C3_9 C 0.3361(4) 0.2809(3) 0.2582(3)
H4_9 H 0.3386 0.2801 0.2292
H5_9 H 0.3360 0.2636 0.2709
H6_9 H 0.3529 0.2997 0.2689
F28_9 F 0.24178(20) 0.27124(14) 0.43490(18)
N9_9 N 0.4160(3) 0.3301(2) 0.1022(3)
C4_9 C 0.2802(4) 0.3061(3) 0.2803(3)
C5_9 C 0.2176(4) 0.1687(3) 0.1116(4)
H7_9 H 0.2190 0.1856 0.0960
H8_9 H 0.2360 0.1676 0.1077
H9_9 H 0.2154 0.1719 0.1400
C6_9 C 0.1097(4) 0.1155(3) 0.0720(3)
H10_9 H 0.1124 0.1348 0.0819
H11_9 H 0.0922 0.0988 0.0851
H12_9 H 0.1065 0.1143 0.0430
C7_9 C 0.4989(5) 0.3850(3) 0.0769(4)
H13_9 H 0.5160 0.3847 0.0897
H14_9 H 0.4981 0.4029 0.0858
H15_9 H 0.5015 0.3858 0.0477
C8_9 C 0.1410(4) 0.1915(3) 0.2909(3)
C9_9 C 0.3064(4) 0.2799(3) 0.2668(3)
C10_9 C 0.4166(4) 0.3040(3) 0.1057(3)
C11_9 C 0.3564(4) 0.4087(2) 0.3178(3)
C12_9 C 0.1123(4) 0.1421(3) 0.4272(3)
C13_9 C 0.1814(4) 0.1129(3) 0.2160(3)
C14_9 C 0.1812(4) 0.0809(3) 0.4615(3)
C15_9 C 0.1685(4) 0.2242(3) 0.4144(4)
H16_9 H 0.1823 0.2242 0.4347
H17_9 H 0.1652 0.2413 0.4191
H18_9 H 0.1772 0.2260 0.3878
C16_9 C 0.4522(4) 0.3081(2) 0.2286(3)
C17_9 C 0.4028(3) 0.3512(2) 0.2259(3)
C18_9 C 0.1080(4) 0.1865(3) 0.2905(3)
C19_9 C 0.4233(4) 0.3127(2) 0.2296(3)
C20_9 C 0.1447(4) 0.0231(2) 0.4448(3)
C21_9 C 0.2520(3) 0.2787(2) 0.2759(3)
C22_9 C 0.4420(4) 0.3563(3) 0.0939(3)
C23_9 C 0.2720(3) 0.2592(2) 0.1432(3)
C24_9 C 0.2136(3) 0.2380(2) 0.1477(3)
C25_9 C 0.4456(4) 0.2745(3) 0.1072(3)
H19_9 H 0.4649 0.2775 0.0967
H20_9 H 0.4288 0.2579 0.0929
H21_9 H 0.4442 0.2697 0.1358
C26_9 C 0.0841(4) 0.1411(3) 0.4228(3)
C27_9 C 0.4310(3) 0.3461(2) 0.2215(3)
C28_9 C 0.3162(5) 0.4583(4) 0.2962(4)
C29_9 C 0.2466(3) 0.2661(2) 0.1505(3)
C30_9 C 0.2783(3) 0.2521(2) 0.2653(3)
C31_9 C 0.1381(4) 0.0856(2) 0.0800(3)
C32_9 C 0.3056(4) 0.2873(3) 0.1435(3)
C33_9 C 0.2901(5) 0.3133(3) 0.4103(4)
C34_9 C 0.1137(4) 0.1133(3) 0.4379(3)
H22_9 H 0.1346 0.1176 0.4360
H23_9 H 0.1009 0.0970 0.4193
H24_9 H 0.1063 0.1071 0.4653
C35_9 C 0.3530(4) 0.4376(2) 0.3136(3)
C36_9 C 0.2809(4) 0.3523(2) 0.1799(3)
H25_9 H 0.2732 0.3480 0.1524
H26_9 H 0.2645 0.3488 0.1982
H27_9 H 0.2889 0.3391 0.1871
C37_9 C 0.1906(4) 0.1115(3) 0.0928(3)
C38_9 C 0.1381(4) 0.1136(3) 0.0814(3)
C39_9 C 0.1449(4) 0.0981(2) 0.3316(3)
N10_9 N 0.1742(3) 0.1216(2) 0.3383(3)
C40_9 C 0.1486(4) 0.0556(3) 0.4525(3)
C41_9 C 0.1091(4) 0.2233(4) 0.4101(3)
H28_9 H 0.1178 0.2360 0.4339
H29_9 H 0.1207 0.2342 0.3864
H30_9 H 0.0880 0.2184 0.4070
C42_9 C 0.1386(4) 0.1951(3) 0.4170(3)
C43_9 C 0.3004(4) 0.4099(3) 0.1784(3)
C44_9 C 0.1851(4) 0.1135(3) 0.4656(3)
C45_9 C 0.2676(4) 0.4037(3) 0.1712(3)
H31_9 H 0.2564 0.3978 0.1965
H32_9 H 0.2574 0.3872 0.1518
H33_9 H 0.2683 0.4219 0.1608
C46_9 C 0.2769(3) 0.2216(2) 0.2598(3)
H34_9 H 0.2832 0.2161 0.2847
H35_9 H 0.2904 0.2231 0.2380
H36_9 H 0.2561 0.2060 0.2533
C47_9 C 0.2607(4) 0.2813(2) 0.4026(3)
N11_9 N 0.1619(4) 0.0620(2) 0.3298(3)
C48_9 C 0.3063(4) 0.3856(2) 0.1830(3)
C49_9 C 0.1970(3) 0.1155(2) 0.3406(3)
O28_9 O 0.1979(3) 0.1589(2) 0.2542(3)
C50_9 C 0.0483(5) 0.1460(4) 0.2941(4)
C51_9 C 0.2387(4) 0.2228(3) 0.3888(3)
C52_9 C 0.3518(4) 0.4450(3) 0.1873(3)
C53_9 C 0.1101(4) 0.1943(4) 0.4149(3)
C54_9 C 0.1095(4) 0.0557(3) 0.0725(3)
H37_9 H 0.0952 0.0515 0.0944
H38_9 H 0.1145 0.0395 0.0710
H39_9 H 0.1004 0.0567 0.0472
C55_9 C 0.2286(3) 0.1417(2) 0.3464(3)
H40_9 H 0.2320 0.1581 0.3282
H41_9 H 0.2433 0.1351 0.3407
H42_9 H 0.2311 0.1489 0.3741
C56_9 C 0.1908(3) 0.0850(2) 0.3357(3)
C57_9 C 0.0537(4) 0.1122(3) 0.4234(3)
H43_9 H 0.0481 0.1053 0.4510
H44_9 H 0.0550 0.0966 0.4078
H45_9 H 0.0384 0.1160 0.4115
C58_9 C 0.1839(4) 0.1449(3) 0.2247(4)
C59_9 C 0.2680(3) 0.2554(2) 0.3904(3)
C60_9 C 0.3906(3) 0.4274(2) 0.1973(3)
H46_9 H 0.3900 0.4084 0.2037
H47_9 H 0.4002 0.4418 0.2192
H48_9 H 0.4021 0.4358 0.1725
C61_9 C 0.1388(4) 0.0684(2) 0.3277(3)
C62_9 C 0.4405(4) 0.3857(3) 0.0917(3)
H49_9 H 0.4234 0.3824 0.0750
H50_9 H 0.4592 0.4018 0.0801
H51_9 H 0.4379 0.3916 0.1187
C63_9 C 0.3768(5) 0.4785(4) 0.1896(3)
H52_9 H 0.3693 0.4913 0.1785
H53_9 H 0.3944 0.4815 0.1741
H54_9 H 0.3827 0.4841 0.2176
C64_9 C 0.3579(3) 0.4212(2) 0.1915(3)
C65_9 C 0.3863(4) 0.2743(3) 0.1111(3)
H55_9 H 0.3715 0.2786 0.1238
H56_9 H 0.3893 0.2604 0.1281
H57_9 H 0.3786 0.2649 0.0849
C66_9 C 0.2161(3) 0.0772(2) 0.3376(3)
H58_9 H 0.2243 0.0805 0.3648
H59_9 H 0.2323 0.0902 0.3189
H60_9 H 0.2080 0.0560 0.3302
C67_9 C 0.1072(4) 0.0419(2) 0.3221(3)
H61_9 H 0.1020 0.0280 0.3448
H62_9 H 0.1063 0.0312 0.2973
H63_9 H 0.0928 0.0492 0.3206
C68_9 C 0.4443(4) 0.3037(3) 0.1014(3)
C69_9 C 0.1492(4) 0.0872(3) 0.2058(4)
C70_9 C 0.2817(4) 0.3361(3) 0.2887(3)
H64_9 H 0.2901 0.3432 0.3155
H65_9 H 0.2613 0.3334 0.2871
H66_9 H 0.2947 0.3510 0.2688
C71_9 C 0.4694(5) 0.3564(3) 0.0883(3)
C72_9 C 0.3201(5) 0.4302(4) 0.3034(4)
C73_9 C 0.2213(4) 0.2776(3) 0.2795(3)
H67_9 H 0.2148 0.2801 0.2529
H68_9 H 0.2236 0.2940 0.2970
H69_9 H 0.2062 0.2581 0.2908
C74_9 C 0.2192(4) 0.1090(3) 0.0979(3)
H70_9 H 0.2371 0.1288 0.0934
H71_9 H 0.2189 0.0945 0.0784
H72_9 H 0.2198 0.1021 0.1250
C75_9 C 0.1472(5) 0.0553(3) 0.2023(3)
C76_9 C 0.0828(4) 0.1525(3) 0.2973(3)
F29_9 F 0.05830(24) 0.13369(20) 0.01302(19)
F30_9 F 0.06371(24) 0.14237(20) 0.07783(18)
F31_9 F 0.08012(28) 0.20370(24) 0.06181(19)
O29_9 O 0.12585(34) 0.18141(30) 0.0072(2)
O30_9 O 0.01754(32) 0.15676(26) 0.0119(2)
O31_9 O 0.12849(33) 0.19684(29) 0.0720(2)
O32_9 O 0.00838(33) 0.13515(27) 0.0747(3)
C77_9 C 0.0244(5) 0.1486(4) 0.0446(4)
C78_9 C 0.0838(6) 0.1854(5) 0.0350(4)
H73_9 H 0.0694 0.3098 0.0178
C83_9 C 0.1161(6) 0.1886(5) 0.0393(4)
H84_9 H 0.0580 0.2422 0.0210
C87_9 C 0.0567(5) 0.1521(4) 0.0427(3)
N15_9 N 0.0447(4) 0.1583(3) 0.1617(3)
N16_9 N 0.1047(4) 0.1717(4) 0.1671(3)
C89_9 C 0.0592(4) 0.2119(4) 0.1518(3)
H85_9 H 0.0407 0.2068 0.1667
H86_9 H 0.0756 0.2314 0.1610
H87_9 H 0.0557 0.2129 0.1232
C90_9 C 0.0677(5) 0.1873(4) 0.1592(3)
C91_9 C 0.0902(5) 0.1179(4) 0.1771(4)
H88_9 H 0.0839 0.1095 0.2040
H89_9 H 0.0800 0.1019 0.1572
H90_9 H 0.1122 0.1268 0.1745
C92_9 C 0.1247(4) 0.2272(4) 0.1572(4)
H91_9 H 0.1438 0.2271 0.1546
H92_9 H 0.1217 0.2367 0.1335
H93_9 H 0.1254 0.2386 0.1811
C93_9 C 0.0255(5) 0.1033(4) 0.1712(4)
H94_9 H 0.0214 0.0931 0.1452
H95_9 H 0.0308 0.0923 0.1907
H96_9 H 0.0074 0.1035 0.1804
C94_9 C 0.0515(5) 0.1355(4) 0.1672(4)
C95_9 C 0.0982(4) 0.1942(4) 0.1609(3)
C96_9 C 0.0819(5) 0.1422(4) 0.1703(4)
O36_9 O 0.13777(37) 0.15042(32) 0.5254(3)
N17_9 N 0.1962(4) 0.0037(2) 0.2397(3)
N21_9 N 0.3944(6) 0.3451(5) 0.3541(2)
Ag29_9 Ag 0.51624(5) 0.32908(4) 0.18081(3)
Ag31_9 Ag 0.29454(5) 0.50065(3) 0.26130(3)
Ag33_9 Ag 0.51514(4) 0.33087(2) 0.08962(3)
Ag35_12 Ag 0.34606(5) 0.52999(3) 0.33336(3)
F32_9 F 0.08077(29) 0.19462(25) 0.99670(19)
N14_9 N 0.0117(5) 0.2840(4) 0.9793(2)
C79_9 C 0.0336(6) 0.2774(4) 0.9855(3)
C82_9 C 0.0657(6) 0.3028(4) 0.9900(3)
H74_9 H 0.0796 0.2956 0.9827
H75_9 H 0.0691 0.3195 0.9724
C86_9 C 0.0506(4) 0.2375(3) 0.9934(3)
H82_9 H 0.0416 0.2158 0.9887
H83_9 H 0.0675 0.2486 0.9749
C88_9 C 0.0269(4) 0.2469(3) 0.9865(3)
Ag20_9 Ag 0.02399(4) 0.33254(2) 0.96666(2)
Ag22_9 Ag 0.16779(4) 0.97738(2) 0.48346(3)
O34_9 O 0.1774(5) 0.9699(4) 0.4029(3)
O39_9 O 0.1813(5) 0.9925(4) 0.3410(3)
O37_9 O 0.97903(44) 0.18065(28) 0.1383(3)
O38_9 O 0.96830(40) 0.17609(25) 0.0710(2)
Ag12_9 Ag 0.98408(4) 0.17504(3) 0.99668(3)
N13_9 N 0.9968(4) 0.2233(3) 0.9825(3)
C80_9 C 0.9744(4) 0.2298(3) 0.9774(3)
C81_9 C 0.9822(5) 0.2614(4) 0.9753(3)
C84_9 C 0.9579(6) 0.2702(4) 0.9694(3)
H76_9 H 0.9541 0.2706 0.9407
H77_9 H 0.9392 0.2554 0.9827
H78_9 H 0.9649 0.2903 0.9809
C85_9 C 0.9425(5) 0.2043(4) 0.9738(3)
H79_9 H 0.9402 0.1868 0.9888
H80_9 H 0.9287 0.2106 0.9847
H81_9 H 0.9377 0.1988 0.9456
O43_9 O 0.94445(45) 0.12585(34) 0.9928(2)
Ag1_10 Ag 0.68396(2) 0.66609(2) 0.39013(3)
Ag2_10 Ag 0.50134(2) 0.65188(2) 0.23993(3)
Ag3_10 Ag 0.51759(2) 0.68643(2) 0.57314(3)
Ag4_4 Ag 0.68806(2) 0.67407(2) 0.48021(2)
Ag5_4 Ag 0.66417(2) 0.62534(2) 0.55357(3)
Ag6_10 Ag 0.50431(2) 0.65195(2) 0.33070(3)
Ag8_10 Ag 0.54253(2) 0.66963(2) 0.40962(3)
Ag9_10 Ag 0.51825(2) 0.69882(2) 0.48362(3)
O1_10 O 0.3452(2) 0.5434(3) 0.2559(3)
F1_10 F 0.63675(16) 0.56192(22) 0.40226(19)
F2_10 F 0.59532(14) 0.64561(15) 0.3119(2)
F3_10 F 0.58936(14) 0.63537(14) 0.24598(18)
F4_10 F 0.39827(15) 0.59319(15) 0.24718(19)
F5_10 F 0.41296(14) 0.54711(14) 0.2361(2)
F6_10 F 0.42620(14) 0.62013(14) 0.49743(19)
F7_10 F 0.78962(14) 0.75183(14) 0.38417(19)
F8_10 F 0.47556(15) 0.72274(14) 0.33353(19)
F9_10 F 0.43685(15) 0.57914(15) 0.4176(2)
F10_10 F 0.40678(15) 0.54904(14) 0.17071(19)
F11_10 F 0.57257(14) 0.63524(15) 0.49322(19)
O2_4 O 0.62425(18) 0.63643(18) 0.5553(2)
F12_10 F 0.78740(14) 0.75805(14) 0.31839(18)
O3_10 O 0.73388(17) 0.70301(18) 0.3808(2)
F13_10 F 0.42002(15) 0.62387(14) 0.4320(2)
F14_10 F 0.68861(15) 0.57795(16) 0.48306(19)
O4_10 O 0.37160(18) 0.56776(25) 0.4337(2)
F15_10 F 0.62158(15) 0.70430(15) 0.5452(2)
F16_10 F 0.61722(14) 0.70645(15) 0.2964(2)
F17_10 F 0.74729(21) 0.77915(15) 0.33082(19)
O5_10 O 0.46237(19) 0.60203(18) 0.2336(2)
F18_10 F 0.38711(16) 0.59063(15) 0.18288(19)
F19_10 F 0.69736(14) 0.57695(14) 0.41726(19)
N1_10 N 0.4733(2) 0.6424(2) 0.5765(3)
F20_10 F 0.46879(15) 0.71490(15) 0.3990(2)
F21_10 F 0.53628(15) 0.76498(14) 0.34674(19)
F22_10 F 0.57651(14) 0.64386(15) 0.55973(19)
F23_10 F 0.45065(15) 0.58289(15) 0.48110(19)
F24_10 F 0.74437(21) 0.76733(15) 0.39568(18)
N2_10 N 0.6398(2) 0.6661(2) 0.3922(3)
O7_7 O 0.65788(18) 0.69847(25) 0.2222(2)
O8_10 O 0.45371(17) 0.60645(18) 0.1669(2)
O10_10 O 0.65759(18) 0.6845(2) 0.2877(2)
O13_10 O 0.53959(18) 0.64006(18) 0.2477(2)
O14_10 O 0.69314(18) 0.62699(18) 0.4073(2)
F25_10 F 0.62787(14) 0.55747(20) 0.46823(19)
O15_10 O 0.67828(18) 0.62455(17) 0.4725(2)
F26_10 F 0.61316(15) 0.69656(15) 0.47960(19)
O16_10 O 0.56581(18) 0.69727(18) 0.5544(2)
O17_10 O 0.72984(19) 0.71377(18) 0.3152(2)
O18_10 O 0.63611(18) 0.65682(18) 0.4922(2)
O19_10 O 0.55726(19) 0.6879(2) 0.4873(2)
O20_10 O 0.55136(18) 0.66015(19) 0.3116(2)
C1_10 C 0.4728(3) 0.6157(3) 0.5690(3)
N4_10 N 0.5011(2) 0.6961(2) 0.2417(3)
C2_10 C 0.4395(3) 0.6531(2) 0.3379(3)
H1_10 H 0.4599 0.6661 0.3271
H2_10 H 0.4249 0.6561 0.3224
H3_10 H 0.4390 0.6584 0.3660
O22_7 O 0.47463(25) 0.76978(18) 0.4085(3)
N5_10 N 0.5855(2) 0.6672(2) 0.3977(3)
O23_10 O 0.52034(19) 0.70401(19) 0.3430(2)
N6_10 N 0.7250(2) 0.7231(2) 0.4771(3)
O24_10 O 0.5327(2) 0.7104(2) 0.4088(2)
O25_4 O 0.38423(19) 0.56039(28) 0.4963(2)
O26_10 O 0.4862(2) 0.6474(2) 0.4686(3)
F27_10 F 0.52933(15) 0.76090(14) 0.41159(18)
N7_7 N 0.5009(3) 0.7507(2) 0.2503(2)
C3_10 C 0.6142(3) 0.6114(2) 0.4085(3)
H4_10 H 0.6134 0.6081 0.4375
H5_10 H 0.5969 0.5942 0.3958
H6_10 H 0.6330 0.6134 0.3978
N8_4 N 0.7730(3) 0.7833(2) 0.4854(3)
F28_10 F 0.60457(14) 0.69612(14) 0.23177(18)
N9_10 N 0.6634(2) 0.5807(2) 0.5645(3)
C4_10 C 0.6394(3) 0.6925(2) 0.3864(3)
C5_10 C 0.5020(3) 0.6177(3) 0.5551(4)
H7_10 H 0.5189 0.6332 0.5707
H8_10 H 0.5009 0.5982 0.5590
H9_10 H 0.5052 0.6231 0.5267
C6_10 C 0.4488(3) 0.6724(3) 0.5947(3)
H10_10 H 0.4681 0.6890 0.5848
H11_10 H 0.4321 0.6732 0.5816
H12_10 H 0.4476 0.6744 0.6237
C7_10 C 0.7183(3) 0.5527(4) 0.5898(4)
H13_10 H 0.7180 0.5353 0.5770
H14_10 H 0.7362 0.5714 0.5809
H15_10 H 0.7191 0.5509 0.6190
C8_10 C 0.5248(3) 0.7171(3) 0.3758(3)
O27_7 O 0.48071(25) 0.77712(18) 0.3407(2)
C9_10 C 0.6132(3) 0.6401(2) 0.3999(3)
C10_10 C 0.6373(3) 0.5540(3) 0.5610(3)
C11_10 C 0.7420(2) 0.7189(3) 0.3489(3)
C12_10 C 0.4754(3) 0.6964(3) 0.2395(3)
C13_10 C 0.4462(3) 0.5981(3) 0.4507(3)
C14_10 C 0.4142(3) 0.5663(3) 0.2052(3)
C15_10 C 0.5575(3) 0.7223(3) 0.2523(4)
H16_10 H 0.5575 0.7085 0.2320
H17_10 H 0.5746 0.7427 0.2476
H18_10 H 0.5593 0.7154 0.2789
C16_10 C 0.6414(2) 0.5225(3) 0.4381(3)
C17_10 C 0.6845(2) 0.6150(2) 0.4408(3)
C18_10 C 0.5198(3) 0.7451(3) 0.3762(3)
C19_10 C 0.6460(2) 0.5560(3) 0.4371(3)
C20_10 C 0.3564(2) 0.5450(4) 0.2219(3)
C21_10 C 0.6120(2) 0.6933(2) 0.3908(3)
C22_10 C 0.6896(3) 0.5809(3) 0.5728(3)
C23_10 C 0.5925(2) 0.6538(2) 0.5235(3)
C24_10 C 0.5713(2) 0.6910(2) 0.5190(3)
C25_10 C 0.6078(3) 0.4955(3) 0.5595(3)
H19_10 H 0.6108 0.4792 0.5700
H20_10 H 0.5912 0.4957 0.5738
H21_10 H 0.6030 0.4921 0.5309
C26_10 C 0.4744(3) 0.7236(3) 0.2439(3)
C27_10 C 0.6794(2) 0.5817(2) 0.4452(3)
C28_10 C 0.7916(4) 0.8087(3) 0.3705(4)
C29_10 C 0.5994(2) 0.6861(2) 0.5162(3)
C30_10 C 0.5854(2) 0.6404(2) 0.4014(3)
C31_10 C 0.4189(2) 0.6141(3) 0.5867(3)
C32_10 C 0.6206(3) 0.6483(2) 0.5232(3)
C33_10 C 0.6466(3) 0.6898(4) 0.2564(4)
C34_10 C 0.4466(3) 0.6662(3) 0.2288(3)
H22_10 H 0.4509 0.6496 0.2307
H23_10 H 0.4303 0.6627 0.2474
H24_10 H 0.4404 0.6674 0.2014
C35_10 C 0.7709(2) 0.7512(3) 0.3531(3)
C36_10 C 0.6856(2) 0.7380(3) 0.4868(3)
H25_10 H 0.6813 0.7414 0.5143
H26_10 H 0.6821 0.7509 0.4685
H27_10 H 0.6724 0.7168 0.4796
C37_10 C 0.4448(3) 0.5875(2) 0.5739(3)
C38_10 C 0.4469(3) 0.6421(3) 0.5853(3)
C39_10 C 0.4314(2) 0.6198(3) 0.3351(3)
N10_10 N 0.4549(2) 0.6140(2) 0.3284(3)
C40_10 C 0.3889(3) 0.5736(3) 0.2142(3)
C41_10 C 0.5566(4) 0.7808(2) 0.2566(3)
H28_10 H 0.5693 0.7848 0.2328
H29_10 H 0.5675 0.7801 0.2803
H30_10 H 0.5517 0.7970 0.2597
C42_10 C 0.5284(3) 0.7231(3) 0.2497(3)
C43_10 C 0.7432(3) 0.7761(2) 0.4883(3)
C44_10 C 0.4468(3) 0.5950(2) 0.2011(3)
C45_10 C 0.7370(3) 0.8027(2) 0.4955(3)
H31_10 H 0.7311 0.8080 0.4702
H32_10 H 0.7205 0.7964 0.5149
H33_10 H 0.7552 0.8202 0.5059
C46_10 C 0.5549(2) 0.6113(2) 0.4069(3)
H34_10 H 0.5494 0.5995 0.3820
H35_10 H 0.5564 0.5993 0.4287
H36_10 H 0.5393 0.6165 0.4134
C47_10 C 0.6146(2) 0.6872(3) 0.2641(3)
N11_10 N 0.3953(2) 0.5667(3) 0.3369(3)
C48_10 C 0.7189(2) 0.7459(3) 0.4837(3)
C49_10 C 0.4488(2) 0.5851(2) 0.3261(3)
O28_10 O 0.4922(2) 0.6276(2) 0.4125(3)
C50_10 C 0.4793(4) 0.7643(3) 0.3726(4)
C51_10 C 0.5561(3) 0.6507(3) 0.2779(3)
N12_4 N 0.4185(2) 0.5874(2) 0.5828(3)
C52_10 C 0.7783(3) 0.7598(2) 0.4794(3)
C53_10 C 0.5276(4) 0.7508(2) 0.2518(3)
C54_10 C 0.3890(3) 0.6128(3) 0.5942(3)
H37_10 H 0.3848 0.6229 0.5723
H38_10 H 0.3728 0.5916 0.5957
H39_10 H 0.3900 0.6229 0.6195
C55_10 C 0.4750(2) 0.5797(2) 0.3203(3)
H40_10 H 0.4914 0.5927 0.3385
H41_10 H 0.4684 0.5584 0.3260
H42_10 H 0.4822 0.5844 0.2926
C56_10 C 0.4183(2) 0.5608(2) 0.3310(3)
C57_10 C 0.4455(3) 0.7251(3) 0.2433(3)
H43_10 H 0.4386 0.7238 0.2157
H44_10 H 0.4299 0.7082 0.2589
H45_10 H 0.4493 0.7442 0.2552
C58_10 C 0.4782(3) 0.6276(3) 0.4420(4)
C59_10 C 0.5887(2) 0.6540(2) 0.2763(3)
C60_10 C 0.7607(2) 0.7034(2) 0.4694(3)
H46_10 H 0.7417 0.6850 0.4630
H47_10 H 0.7751 0.7082 0.4475
H48_10 H 0.7691 0.7003 0.4942
C61_10 C 0.4017(2) 0.5962(3) 0.3390(3)
C62_10 C 0.7190(3) 0.6118(3) 0.5750(3)
H49_10 H 0.7157 0.6256 0.5917
H50_10 H 0.7351 0.6092 0.5866
H51_10 H 0.7249 0.6203 0.5480
C63_10 C 0.8118(4) 0.7683(3) 0.4771(3)
H52_10 H 0.8246 0.7886 0.4882
H53_10 H 0.8148 0.7537 0.4926
H54_10 H 0.8174 0.7680 0.4491
C64_10 C 0.7545(2) 0.7299(2) 0.4752(3)
C65_10 C 0.6076(3) 0.5546(3) 0.5556(3)
H55_10 H 0.6119 0.5737 0.5429
H56_10 H 0.5937 0.5377 0.5386
H57_10 H 0.5982 0.5529 0.5818
C66_10 C 0.4105(2) 0.5277(2) 0.3291(3)
H58_10 H 0.4138 0.5228 0.3019
H59_10 H 0.4235 0.5245 0.3478
H60_10 H 0.3893 0.5146 0.3365
C67_10 C 0.3752(2) 0.6013(3) 0.3446(3)
H61_10 H 0.3613 0.5926 0.3219
H62_10 H 0.3645 0.5915 0.3694
H63_10 H 0.3825 0.6230 0.3461
C68_10 C 0.6370(3) 0.5260(3) 0.5653(3)
C69_10 C 0.4205(3) 0.6046(3) 0.4609(4)
C70_10 C 0.6694(3) 0.7210(3) 0.3780(3)
H64_10 H 0.6765 0.7197 0.3512
H65_10 H 0.6667 0.7387 0.3796
H66_10 H 0.6843 0.7229 0.3979
C71_10 C 0.6897(3) 0.5536(4) 0.5784(3)
C72_10 C 0.7635(4) 0.7767(3) 0.3633(4)
C73_10 C 0.6109(3) 0.7229(2) 0.3872(3)
H67_10 H 0.6134 0.7319 0.4138
H68_10 H 0.6273 0.7370 0.3697
H69_10 H 0.5914 0.7185 0.3759
C74_10 C 0.4423(3) 0.5564(3) 0.5688(3)
H70_10 H 0.4621 0.5583 0.5733
H71_10 H 0.4278 0.5422 0.5883
H72_10 H 0.4354 0.5489 0.5417
C75_10 C 0.3886(3) 0.5747(4) 0.4644(3)
C76_10 C 0.4858(3) 0.7363(3) 0.3694(3)
F29_10 F 0.46702(20) 0.74205(14) 0.65365(19)
F30_10 F 0.47570(20) 0.74532(14) 0.58884(18)
F31_10 F 0.53703(24) 0.79024(14) 0.60486(19)
F32_10 F 0.52795(25) 0.78051(14) 0.66997(19)
O30_10 O 0.49009(26) 0.80588(19) 0.6548(2)
O31_10 O 0.53017(29) 0.73501(16) 0.5947(2)
O32_10 O 0.46848(27) 0.79343(19) 0.5920(3)
C77_10 C 0.4819(4) 0.7908(3) 0.6221(4)
N13_10 N 0.5566(3) 0.8931(2) 0.6842(3)
C78_10 C 0.5187(5) 0.7682(3) 0.6317(4)
C79_10 C 0.6107(4) 0.9104(4) 0.6812(3)
C80_10 C 0.5631(3) 0.9220(2) 0.6893(3)
C81_10 C 0.5947(4) 0.9458(3) 0.6914(3)
C82_10 C 0.6361(4) 0.9037(4) 0.6767(3)
H73_10 H 0.6431 0.9070 0.6489
H74_10 H 0.6289 0.8826 0.6840
H75_10 H 0.6528 0.9170 0.6943
C83_10 C 0.5219(5) 0.7391(3) 0.6274(4)
C84_10 C 0.6035(4) 0.9789(4) 0.6973(3)
H76_10 H 0.6039 0.9831 0.7260
H77_10 H 0.5887 0.9828 0.6840
H78_10 H 0.6236 0.9920 0.6858
C85_10 C 0.5376(4) 0.9284(3) 0.6929(3)
H79_10 H 0.5201 0.9132 0.6779
H80_10 H 0.5439 0.9485 0.6820
H81_10 H 0.5321 0.9277 0.7211
C86_10 C 0.5708(3) 0.8535(2) 0.6733(3)
H82_10 H 0.5491 0.8408 0.6780
H83_10 H 0.5819 0.8477 0.6918
H84_10 H 0.5755 0.8508 0.6457
C87_10 C 0.4854(4) 0.7620(3) 0.6240(3)
C88_10 C 0.5802(3) 0.8866(2) 0.6802(3)
N15_10 N 0.4916(3) 0.7802(2) 0.5050(3)
N16_10 N 0.5050(4) 0.7336(2) 0.4996(3)
C89_10 C 0.5452(4) 0.8193(2) 0.5149(3)
H85_10 H 0.5401 0.8327 0.5000
H86_10 H 0.5647 0.8224 0.5057
H87_10 H 0.5462 0.8238 0.5435
C90_10 C 0.5206(4) 0.7862(3) 0.5075(3)
C91_10 C 0.4512(4) 0.6943(3) 0.4896(4)
H88_10 H 0.4428 0.6922 0.4627
H89_10 H 0.4352 0.6885 0.5095
H90_10 H 0.4601 0.6812 0.4922
C92_10 C 0.5605(4) 0.7691(2) 0.5095(4)
H91_10 H 0.5604 0.7499 0.5121
H92_10 H 0.5700 0.7816 0.5332
H93_10 H 0.5719 0.7798 0.4856
C93_10 C 0.4366(4) 0.7444(3) 0.4955(4)
H94_10 H 0.4264 0.7383 0.5215
H95_10 H 0.4256 0.7281 0.4760
H96_10 H 0.4368 0.7627 0.4863
C94_10 C 0.4688(4) 0.7506(3) 0.4995(4)
C95_10 C 0.5275(4) 0.7626(2) 0.5058(3)
C96_10 C 0.4755(4) 0.7269(3) 0.4964(4)
Ag17_7 Ag 0.65926(2) 0.68066(3) 0.14688(2)
Ag18_7 Ag 0.70799(2) 0.70550(3) 0.22024(3)
O33_7 O 0.69690(18) 0.65449(25) 0.2220(2)
O35_4 O 0.70726(31) 0.67545(18) 0.5555(2)
O40_4 O 0.29515(31) 0.52537(25) 0.4085(3)
O41_7 O 0.43961(28) 0.82384(34) 0.4963(2)
N18_4 N 0.2498(4) 0.4991(3) 0.2503(2)
N19_7 N 0.5500(2) 0.6564(4) 0.1521(3)
O42_4 O 0.29641(31) 0.51929(25) 0.3407(2)
N20_7 N 0.4126(2) 0.8311(3) 0.5828(3)
Ag1_11 Ag 0.33391(2) 0.01787(3) 0.39013(3)
Ag4_5 Ag 0.32593(2) 0.01399(3) 0.48021(2)
Ag5_5 Ag 0.37466(2) 0.03883(3) 0.55357(3)
F1_11 F 0.43808(22) 0.07483(27) 0.40226(19)
F7_11 F 0.24817(14) 0.03779(20) 0.38417(19)
F12_11 F 0.24195(14) 0.02935(20) 0.31839(18)
O3_11 O 0.29699(18) 0.03087(25) 0.3808(2)
F14_11 F 0.42205(16) 0.11066(22) 0.48306(19)
F19_11 F 0.42305(14) 0.12041(20) 0.41726(19)
O14_11 O 0.37301(18) 0.06615(25) 0.4073(2)
F25_11 F 0.44253(20) 0.07040(24) 0.46823(19)
O15_11 O 0.37545(17) 0.05373(25) 0.4725(2)
O17_11 O 0.28623(18) 0.01607(26) 0.3152(2)
N6_11 N 0.2769(2) 0.0019(3) 0.4771(3)
C3_11 C 0.3886(2) 0.0028(4) 0.4085(3)
H4_11 H 0.3919 0.0053 0.4375
H5_11 H 0.4058 0.0027 0.3958
H6_11 H 0.3866 0.0196 0.3978
N9_11 N 0.4193(2) 0.0827(3) 0.5645(3)
C7_11 C 0.4473(4) 0.1656(5) 0.5898(4)
H13_11 H 0.4647 0.1827 0.5770
H14_11 H 0.4286 0.1648 0.5809
H15_11 H 0.4491 0.1682 0.6190
C10_11 C 0.4460(3) 0.0833(4) 0.5610(3)
C11_11 C 0.2811(3) 0.0231(4) 0.3489(3)
C16_11 C 0.4775(3) 0.1189(4) 0.4381(3)
C17_11 C 0.3850(2) 0.0695(3) 0.4408(3)
C19_11 C 0.4440(3) 0.0900(4) 0.4371(3)
C22_11 C 0.4191(3) 0.1087(4) 0.5728(3)
C25_11 C 0.5045(3) 0.1123(4) 0.5595(3)
H19_11 H 0.5208 0.1316 0.5700
H20_11 H 0.5043 0.0955 0.5738
H21_11 H 0.5079 0.1109 0.5309
C27_11 C 0.4183(2) 0.0977(3) 0.4452(3)
C35_11 C 0.2488(3) 0.0197(4) 0.3531(3)
C52_11 C 0.2402(2) 0.0185(4) 0.4794(3)
C60_11 C 0.2966(2) 0.0573(3) 0.4694(3)
H46_11 H 0.3150 0.0567 0.4630
H47_11 H 0.2918 0.0669 0.4475
H48_11 H 0.2997 0.0688 0.4942
C62_11 C 0.3882(3) 0.1072(4) 0.5750(3)
H49_11 H 0.3744 0.0901 0.5917
H50_11 H 0.3908 0.1259 0.5866
H51_11 H 0.3797 0.1046 0.5480
C63_11 C 0.2317(3) 0.0435(5) 0.4771(3)
H52_11 H 0.2114 0.0360 0.4882
H53_11 H 0.2463 0.0611 0.4926
H54_11 H 0.2320 0.0494 0.4491
C64_11 C 0.2701(2) 0.0246(3) 0.4752(3)
C65_11 C 0.4454(3) 0.0530(4) 0.5556(3)
H55_11 H 0.4263 0.0382 0.5429
H56_11 H 0.4623 0.0560 0.5386
H57_11 H 0.4471 0.0453 0.5818
C68_11 C 0.4740(3) 0.1110(4) 0.5653(3)
C71_11 C 0.4464(4) 0.1361(5) 0.5784(3)
Ag18_8 Ag 0.29450(3) 0.00250(4) 0.22024(3)
O33_8 O 0.34551(25) 0.04242(31) 0.2220(2)
O35_5 O 0.32455(18) 0.03180(36) 0.5555(2)
Ag2_11 Ag 0.34812(2) 0.84946(3) 0.23993(3)
Ag3_11 Ag 0.31357(2) 0.83116(3) 0.57314(3)
Ag6_11 Ag 0.34805(2) 0.85236(3) 0.33070(3)
Ag8_11 Ag 0.33037(2) 0.87290(3) 0.40962(3)
Ag9_11 Ag 0.30118(2) 0.81943(3) 0.48362(3)
O1_11 O 0.4566(3) 0.8018(4) 0.2559(3)
F2_11 F 0.35439(15) 0.94971(21) 0.3119(2)
F3_11 F 0.36463(14) 0.95399(20) 0.24598(18)
F4_11 F 0.40681(15) 0.80508(21) 0.24718(19)
F5_11 F 0.45289(14) 0.86585(20) 0.2361(2)
F6_11 F 0.37987(14) 0.80607(20) 0.49743(19)
F8_11 F 0.27726(14) 0.75282(21) 0.33353(19)
F9_11 F 0.42086(15) 0.85771(21) 0.4176(2)
F10_11 F 0.45096(14) 0.85774(21) 0.17071(19)
F11_11 F 0.36476(15) 0.93733(21) 0.49322(19)
O2_5 O 0.36357(18) 0.98782(25) 0.5553(2)
F13_11 F 0.37613(14) 0.79615(21) 0.4320(2)
O4_11 O 0.43224(25) 0.80384(31) 0.4337(2)
F15_11 F 0.29570(15) 0.91728(21) 0.5452(2)
F16_11 F 0.29355(15) 0.91077(21) 0.2964(2)
F17_11 F 0.22085(15) 0.96814(26) 0.33082(19)
O5_11 O 0.39797(18) 0.86034(26) 0.2336(2)
F18_11 F 0.40937(15) 0.79648(22) 0.18288(19)
N1_11 N 0.3576(2) 0.8309(3) 0.5765(3)
F20_11 F 0.28510(15) 0.75389(21) 0.3990(2)
F21_11 F 0.23502(14) 0.77130(21) 0.34674(19)
F22_11 F 0.35614(15) 0.93265(21) 0.55973(19)
F23_11 F 0.41711(15) 0.86776(21) 0.48110(19)
F24_11 F 0.23267(15) 0.97704(26) 0.39568(18)
N2_11 N 0.3339(2) 0.9737(3) 0.3922(3)
O7_8 O 0.30153(25) 0.95941(31) 0.2222(2)
O8_11 O 0.39355(18) 0.84726(25) 0.1669(2)
O10_11 O 0.3155(2) 0.97309(27) 0.2877(2)
O13_11 O 0.35994(18) 0.89953(25) 0.2477(2)
F26_11 F 0.30344(15) 0.91660(21) 0.47960(19)
O16_11 O 0.30273(18) 0.86854(25) 0.5544(2)
O18_11 O 0.34318(18) 0.97929(25) 0.4922(2)
O19_11 O 0.3121(2) 0.86936(28) 0.4873(2)
O20_11 O 0.33985(19) 0.89121(26) 0.3116(2)
C1_11 C 0.3843(3) 0.8571(4) 0.5690(3)
N4_11 N 0.3039(2) 0.8050(3) 0.2417(3)
C2_11 C 0.3469(2) 0.7864(4) 0.3379(3)
H1_11 H 0.3339 0.7938 0.3271
H2_11 H 0.3439 0.7688 0.3224
H3_11 H 0.3416 0.7806 0.3660
O22_8 O 0.23022(18) 0.70485(31) 0.4085(3)
N5_11 N 0.3328(2) 0.9183(3) 0.3977(3)
O23_11 O 0.29599(19) 0.81633(27) 0.3430(2)
O24_11 O 0.2896(2) 0.8223(3) 0.4088(2)
O26_11 O 0.3526(2) 0.8388(3) 0.4686(3)
F27_11 F 0.23910(14) 0.76843(21) 0.41159(18)
N7_8 N 0.2493(2) 0.7502(4) 0.2503(2)
N8_5 N 0.2167(2) 0.9897(4) 0.4854(3)
F28_11 F 0.30388(14) 0.90845(20) 0.23177(18)
C4_11 C 0.3075(2) 0.9469(4) 0.3864(3)
C5_11 C 0.3823(3) 0.8843(4) 0.5551(4)
H7_11 H 0.3668 0.8857 0.5707
H8_11 H 0.4018 0.9027 0.5590
H9_11 H 0.3769 0.8821 0.5267
C6_11 C 0.3276(3) 0.7764(4) 0.5947(3)
H10_11 H 0.3110 0.7791 0.5848
H11_11 H 0.3268 0.7589 0.5816
H12_11 H 0.3256 0.7732 0.6237
C8_11 C 0.2829(3) 0.8077(4) 0.3758(3)
O27_8 O 0.22288(18) 0.70359(31) 0.3407(2)
C9_11 C 0.3599(2) 0.9731(4) 0.3999(3)
C12_11 C 0.3036(3) 0.7790(4) 0.2395(3)
C13_11 C 0.4019(3) 0.8481(4) 0.4507(3)
C14_11 C 0.4337(3) 0.8479(4) 0.2052(3)
C15_11 C 0.2777(3) 0.8352(4) 0.2523(4)
H16_11 H 0.2915 0.8490 0.2320
H17_11 H 0.2573 0.8319 0.2476
H18_11 H 0.2846 0.8439 0.2789
C18_11 C 0.2549(3) 0.7747(4) 0.3762(3)
C20_11 C 0.4550(4) 0.8114(4) 0.2219(3)
C21_11 C 0.3067(2) 0.9187(3) 0.3908(3)
C23_11 C 0.3462(2) 0.9387(3) 0.5235(3)
C24_11 C 0.3090(2) 0.8803(3) 0.5190(3)
C26_11 C 0.2764(3) 0.7508(4) 0.2439(3)
C28_11 C 0.1913(3) 0.9829(5) 0.3705(4)
C29_11 C 0.3139(2) 0.9133(3) 0.5162(3)
C30_11 C 0.3596(2) 0.9450(3) 0.4014(3)
C31_11 C 0.3859(3) 0.8048(4) 0.5867(3)
C32_11 C 0.3517(2) 0.9723(4) 0.5232(3)
C33_11 C 0.3102(4) 0.9568(5) 0.2564(4)
C34_11 C 0.3338(3) 0.7804(4) 0.2288(3)
H22_11 H 0.3504 0.8013 0.2307
H23_11 H 0.3373 0.7676 0.2474
H24_11 H 0.3326 0.7730 0.2014
C36_11 C 0.2620(3) 0.9476(4) 0.4868(3)
H25_11 H 0.2586 0.9399 0.5143
H26_11 H 0.2491 0.9312 0.4685
H27_11 H 0.2832 0.9556 0.4796
C37_11 C 0.4125(2) 0.8573(4) 0.5739(3)
C38_11 C 0.3579(3) 0.8048(4) 0.5853(3)
C39_11 C 0.3802(3) 0.8116(4) 0.3351(3)
N10_11 N 0.3860(2) 0.8409(3) 0.3284(3)
C40_11 C 0.4264(3) 0.8153(4) 0.2142(3)
C41_11 C 0.2192(2) 0.7758(4) 0.2566(3)
H28_11 H 0.2152 0.7845 0.2328
H29_11 H 0.2199 0.7874 0.2803
H30_11 H 0.2030 0.7547 0.2597
C42_11 C 0.2769(3) 0.8053(4) 0.2497(3)
C43_11 C 0.2239(2) 0.9671(4) 0.4883(3)
C44_11 C 0.4050(2) 0.8518(4) 0.2011(3)
C45_11 C 0.1973(2) 0.9343(4) 0.4955(3)
H31_11 H 0.1920 0.9231 0.4702
H32_11 H 0.2036 0.9241 0.5149
H33_11 H 0.1798 0.9350 0.5059
C46_11 C 0.3887(2) 0.9436(3) 0.4069(3)
H34_11 H 0.4005 0.9499 0.3820
H35_11 H 0.4007 0.9571 0.4287
H36_11 H 0.3835 0.9228 0.4134
C47_11 C 0.3128(3) 0.9274(4) 0.2641(3)
N11_11 N 0.4333(3) 0.8286(4) 0.3369(3)
C48_11 C 0.2541(3) 0.9730(4) 0.4837(3)
C49_11 C 0.4149(2) 0.8637(3) 0.3261(3)
O28_11 O 0.3724(2) 0.8646(3) 0.4125(3)
C50_11 C 0.2357(3) 0.7150(5) 0.3726(4)
C51_11 C 0.3493(3) 0.9054(4) 0.2779(3)
C53_11 C 0.2492(2) 0.7768(4) 0.2518(3)
C54_11 C 0.3872(3) 0.7762(4) 0.5942(3)
H37_11 H 0.3771 0.7619 0.5723
H38_11 H 0.4084 0.7812 0.5957
H39_11 H 0.3771 0.7671 0.6195
C55_11 C 0.4203(2) 0.8953(3) 0.3203(3)
H40_11 H 0.4073 0.8987 0.3385
H41_11 H 0.4416 0.9100 0.3260
H42_11 H 0.4156 0.8978 0.2926
C56_11 C 0.4392(2) 0.8575(3) 0.3310(3)
C57_11 C 0.2749(3) 0.7204(4) 0.2433(3)
H43_11 H 0.2762 0.7148 0.2157
H44_11 H 0.2918 0.7217 0.2589
H45_11 H 0.2558 0.7051 0.2552
C58_11 C 0.3724(3) 0.8506(4) 0.4420(4)
C59_11 C 0.3460(2) 0.9347(3) 0.2763(3)
C61_11 C 0.4038(3) 0.8055(4) 0.3390(3)
C66_11 C 0.4723(2) 0.8828(3) 0.3291(3)
H58_11 H 0.4772 0.8910 0.3019
H59_11 H 0.4755 0.8990 0.3478
H60_11 H 0.4854 0.8747 0.3365
C67_11 C 0.3987(3) 0.7739(4) 0.3446(3)
H61_11 H 0.4074 0.7687 0.3219
H62_11 H 0.4085 0.7730 0.3694
H63_11 H 0.3770 0.7595 0.3461
C69_11 C 0.3954(3) 0.8159(4) 0.4609(4)
C70_11 C 0.2790(3) 0.9484(4) 0.3780(3)
H64_11 H 0.2803 0.9568 0.3512
H65_11 H 0.2613 0.9280 0.3796
H66_11 H 0.2771 0.9614 0.3979
C72_11 C 0.2233(3) 0.9868(5) 0.3633(4)
C73_11 C 0.2771(2) 0.8880(4) 0.3872(3)
H67_11 H 0.2681 0.8815 0.4138
H68_11 H 0.2630 0.8903 0.3697
H69_11 H 0.2815 0.8729 0.3759
C74_11 C 0.4436(3) 0.8859(4) 0.5688(3)
H70_11 H 0.4417 0.9038 0.5733
H71_11 H 0.4578 0.8856 0.5883
H72_11 H 0.4511 0.8865 0.5417
C75_11 C 0.4253(4) 0.8139(5) 0.4644(3)
C76_11 C 0.2637(3) 0.7495(4) 0.3694(3)
F29_11 F 0.25795(14) 0.72497(24) 0.65365(19)
F30_11 F 0.25468(14) 0.73038(24) 0.58884(18)
F31_11 F 0.20976(14) 0.74679(28) 0.60486(19)
F32_11 F 0.21949(14) 0.74744(29) 0.66997(19)
O30_11 O 0.19412(19) 0.68421(32) 0.6548(2)
O31_11 O 0.26499(16) 0.79516(33) 0.5947(2)
O32_11 O 0.20657(19) 0.67505(33) 0.5920(3)
C77_11 C 0.2092(3) 0.6911(5) 0.6221(4)
N13_11 N 0.1069(2) 0.6635(4) 0.6842(3)
C78_11 C 0.2318(3) 0.7505(6) 0.6317(4)
C79_11 C 0.0896(4) 0.7003(6) 0.6812(3)
C80_11 C 0.0780(2) 0.6411(4) 0.6893(3)
C81_11 C 0.0542(3) 0.6489(5) 0.6914(3)
C82_11 C 0.0963(4) 0.7324(6) 0.6767(3)
H73_11 H 0.0930 0.7361 0.6489
H74_11 H 0.1174 0.7463 0.6840
H75_11 H 0.0830 0.7358 0.6943
C83_11 C 0.2609(3) 0.7828(6) 0.6274(4)
C84_11 C 0.0211(4) 0.6246(6) 0.6973(3)
H76_11 H 0.0169 0.6208 0.7260
H77_11 H 0.0172 0.6059 0.6840
H78_11 H 0.0080 0.6316 0.6858
C85_11 C 0.0716(3) 0.6092(5) 0.6929(3)
H79_11 H 0.0868 0.6069 0.6779
H80_11 H 0.0515 0.5954 0.6820
H81_11 H 0.0723 0.6044 0.7211
C86_11 C 0.1465(2) 0.7173(4) 0.6733(3)
H82_11 H 0.1592 0.7083 0.6780
H83_11 H 0.1523 0.7342 0.6918
H84_11 H 0.1492 0.7247 0.6457
C87_11 C 0.2380(3) 0.7234(5) 0.6240(3)
C88_11 C 0.1134(2) 0.6936(4) 0.6802(3)
N15_11 N 0.2198(2) 0.7114(4) 0.5050(3)
N16_11 N 0.2664(2) 0.7714(4) 0.4996(3)
C89_11 C 0.1807(2) 0.7259(4) 0.5149(3)
H85_11 H 0.1673 0.7074 0.5000
H86_11 H 0.1776 0.7423 0.5057
H87_11 H 0.1762 0.7224 0.5435
C90_11 C 0.2138(3) 0.7344(5) 0.5075(3)
C91_11 C 0.3057(3) 0.7569(5) 0.4896(4)
H88_11 H 0.3078 0.7506 0.4627
H89_11 H 0.3115 0.7467 0.5095
H90_11 H 0.3188 0.7789 0.4922
C92_11 C 0.2309(2) 0.7914(4) 0.5095(4)
H91_11 H 0.2501 0.8105 0.5121
H92_11 H 0.2184 0.7884 0.5332
H93_11 H 0.2202 0.7921 0.4856
C93_11 C 0.2556(3) 0.6922(5) 0.4955(4)
H94_11 H 0.2617 0.6881 0.5215
H95_11 H 0.2719 0.6975 0.4760
H96_11 H 0.2373 0.6741 0.4863
C94_11 C 0.2494(3) 0.7182(5) 0.4995(4)
C95_11 C 0.2374(2) 0.7649(4) 0.5058(3)
C96_11 C 0.2731(3) 0.7486(5) 0.4964(4)
Ag17_8 Ag 0.31934(3) 0.97861(4) 0.14688(2)
O41_8 O 0.17616(34) 0.61577(44) 0.4963(2)
N19_8 N 0.3436(4) 0.8937(4) 0.1521(3)
N20_8 N 0.1689(3) 0.5815(4) 0.5828(3)
Ag2_12 Ag 0.15054(3) 0.49866(2) 0.23993(3)
Ag3_12 Ag 0.16884(3) 0.48241(2) 0.57314(3)
Ag6_12 Ag 0.14764(3) 0.49569(2) 0.33070(3)
Ag8_12 Ag 0.12710(3) 0.45747(2) 0.40962(3)
Ag9_12 Ag 0.18057(3) 0.48175(2) 0.48362(3)
O1_12 O 0.1982(4) 0.6548(2) 0.2559(3)
F2_12 F 0.05029(21) 0.40468(14) 0.3119(2)
F3_12 F 0.04601(20) 0.41064(14) 0.24598(18)
F4_12 F 0.19492(21) 0.60173(15) 0.24718(19)
F5_12 F 0.13415(20) 0.58704(14) 0.2361(2)
F6_12 F 0.19393(20) 0.57380(14) 0.49743(19)
F8_12 F 0.24718(21) 0.52444(15) 0.33353(19)
F9_12 F 0.14229(21) 0.56315(15) 0.4176(2)
F10_12 F 0.14226(21) 0.59322(15) 0.17071(19)
F11_12 F 0.06267(21) 0.42743(14) 0.49322(19)
O2_6 O 0.01218(25) 0.37575(18) 0.5553(2)
F13_12 F 0.20385(21) 0.57998(15) 0.4320(2)
O4_12 O 0.19616(31) 0.62840(18) 0.4337(2)
F15_12 F 0.08272(21) 0.37842(15) 0.5452(2)
F16_12 F 0.08923(21) 0.38278(14) 0.2964(2)
F17_12 F 0.03186(26) 0.25271(21) 0.33082(19)
O5_12 O 0.13966(26) 0.53763(19) 0.2336(2)
F18_12 F 0.20352(22) 0.61289(16) 0.18288(19)
N1_12 N 0.1691(3) 0.5267(2) 0.5765(3)
F20_12 F 0.24611(21) 0.53121(15) 0.3990(2)
F21_12 F 0.22870(21) 0.46372(15) 0.34674(19)
F22_12 F 0.06735(21) 0.42349(14) 0.55973(19)
F23_12 F 0.13224(21) 0.54935(15) 0.48110(19)
F24_12 F 0.02296(26) 0.25563(21) 0.39568(18)
N2_12 N 0.0263(3) 0.3602(2) 0.3922(3)
O7_9 O 0.04059(31) 0.34212(18) 0.2222(2)
O8_12 O 0.15274(25) 0.54629(17) 0.1669(2)
O10_12 O 0.02691(27) 0.34241(18) 0.2877(2)
O13_12 O 0.10047(25) 0.46041(18) 0.2477(2)
F26_12 F 0.08340(21) 0.38684(15) 0.47960(19)
O16_12 O 0.13146(25) 0.43419(18) 0.5544(2)
O18_12 O 0.02071(25) 0.36389(18) 0.4922(2)
O19_12 O 0.13064(28) 0.44274(19) 0.4873(2)
O20_12 O 0.10879(26) 0.44864(18) 0.3116(2)
C1_12 C 0.1429(4) 0.5272(3) 0.5690(3)
N4_12 N 0.1950(3) 0.4989(2) 0.2417(3)
C2_12 C 0.2136(4) 0.5605(3) 0.3379(3)
H1_12 H 0.2062 0.5401 0.3271
H2_12 H 0.2312 0.5751 0.3224
H3_12 H 0.2194 0.5610 0.3660
N5_12 N 0.0817(3) 0.4145(2) 0.3977(3)
O23_12 O 0.18367(27) 0.47966(19) 0.3430(2)
O24_12 O 0.1777(3) 0.4673(2) 0.4088(2)
O26_12 O 0.1612(3) 0.5138(2) 0.4686(3)
F27_12 F 0.23157(21) 0.47067(15) 0.41159(18)
N8_6 N 0.0103(4) 0.2270(3) 0.4854(3)
F28_12 F 0.09155(20) 0.39543(14) 0.23177(18)
C4_12 C 0.0531(4) 0.3606(3) 0.3864(3)
C5_12 C 0.1157(4) 0.4980(3) 0.5551(4)
H7_12 H 0.1143 0.4811 0.5707
H8_12 H 0.0973 0.4991 0.5590
H9_12 H 0.1179 0.4948 0.5267
C6_12 C 0.2236(4) 0.5512(3) 0.5947(3)
H10_12 H 0.2209 0.5319 0.5848
H11_12 H 0.2411 0.5679 0.5816
H12_12 H 0.2268 0.5524 0.6237
C8_12 C 0.1923(4) 0.4752(3) 0.3758(3)
C9_12 C 0.0269(4) 0.3868(3) 0.3999(3)
C12_12 C 0.2210(4) 0.5246(3) 0.2395(3)
C13_12 C 0.1519(4) 0.5538(3) 0.4507(3)
C14_12 C 0.1521(4) 0.5858(3) 0.2052(3)
C15_12 C 0.1648(4) 0.4425(3) 0.2523(4)
H16_12 H 0.1510 0.4425 0.2320
H17_12 H 0.1681 0.4254 0.2476
H18_12 H 0.1561 0.4407 0.2789
C18_12 C 0.2253(4) 0.4802(3) 0.3762(3)
C20_12 C 0.1886(4) 0.6436(2) 0.2219(3)
C21_12 C 0.0813(3) 0.3880(2) 0.3908(3)
C23_12 C 0.0613(3) 0.4075(2) 0.5235(3)
C24_12 C 0.1197(3) 0.4287(2) 0.5190(3)
C26_12 C 0.2492(4) 0.5256(3) 0.2439(3)
C28_12 C 0.0171(5) 0.2084(4) 0.3705(4)
C29_12 C 0.0867(3) 0.4006(2) 0.5162(3)
C30_12 C 0.0550(3) 0.4146(2) 0.4014(3)
C31_12 C 0.1952(4) 0.5811(2) 0.5867(3)
C32_12 C 0.0277(4) 0.3794(3) 0.5232(3)
C33_12 C 0.0432(5) 0.3534(3) 0.2564(4)
C34_12 C 0.2196(4) 0.5534(3) 0.2288(3)
H22_12 H 0.1987 0.5491 0.2307
H23_12 H 0.2324 0.5697 0.2474
H24_12 H 0.2270 0.5596 0.2014
C36_12 C 0.0524(4) 0.3144(2) 0.4868(3)
H25_12 H 0.0601 0.3187 0.5143
H26_12 H 0.0688 0.3179 0.4685
H27_12 H 0.0444 0.3276 0.4796
C37_12 C 0.1427(4) 0.5552(3) 0.5739(3)
C38_12 C 0.1952(4) 0.5531(3) 0.5853(3)
C39_12 C 0.1884(4) 0.5686(2) 0.3351(3)
N10_12 N 0.1591(3) 0.5451(2) 0.3284(3)
C40_12 C 0.1847(4) 0.6111(3) 0.2142(3)
C41_12 C 0.2242(4) 0.4434(4) 0.2566(3)
H28_12 H 0.2155 0.4307 0.2328
H29_12 H 0.2126 0.4325 0.2803
H30_12 H 0.2453 0.4483 0.2597
C42_12 C 0.1947(4) 0.4716(3) 0.2497(3)
C43_12 C 0.0329(4) 0.2568(3) 0.4883(3)
C44_12 C 0.1482(4) 0.5532(3) 0.2011(3)
C45_12 C 0.0657(4) 0.2630(3) 0.4955(3)
H31_12 H 0.0769 0.2689 0.4702
H32_12 H 0.0759 0.2795 0.5149
H33_12 H 0.0650 0.2448 0.5059
C46_12 C 0.0564(3) 0.4451(2) 0.4069(3)
H34_12 H 0.0501 0.4506 0.3820
H35_12 H 0.0429 0.4436 0.4287
H36_12 H 0.0772 0.4607 0.4134
C47_12 C 0.0726(4) 0.3854(2) 0.2641(3)
N11_12 N 0.1714(4) 0.6047(2) 0.3369(3)
C48_12 C 0.0270(4) 0.2811(2) 0.4837(3)
C49_12 C 0.1363(3) 0.5512(2) 0.3261(3)
O28_12 O 0.1354(3) 0.5078(2) 0.4125(3)
C50_12 C 0.2850(5) 0.5207(4) 0.3726(4)
C51_12 C 0.0946(4) 0.4439(3) 0.2779(3)
C53_12 C 0.2232(4) 0.4724(4) 0.2518(3)
C54_12 C 0.2238(4) 0.6110(3) 0.5942(3)
H37_12 H 0.2381 0.6152 0.5723
H38_12 H 0.2188 0.6272 0.5957
H39_12 H 0.2329 0.6100 0.6195
C55_12 C 0.1047(3) 0.5250(2) 0.3203(3)
H40_12 H 0.1013 0.5086 0.3385
H41_12 H 0.0900 0.5316 0.3260
H42_12 H 0.1022 0.5178 0.2926
C56_12 C 0.1425(3) 0.5817(2) 0.3310(3)
C57_12 C 0.2796(4) 0.5545(3) 0.2433(3)
H43_12 H 0.2852 0.5614 0.2157
H44_12 H 0.2783 0.5701 0.2589
H45_12 H 0.2949 0.5507 0.2552
C58_12 C 0.1494(4) 0.5218(3) 0.4420(4)
C59_12 C 0.0653(3) 0.4113(2) 0.2763(3)
C61_12 C 0.1945(4) 0.5983(2) 0.3390(3)
C66_12 C 0.1172(3) 0.5895(2) 0.3291(3)
H58_12 H 0.1090 0.5862 0.3019
H59_12 H 0.1010 0.5765 0.3478
H60_12 H 0.1253 0.6107 0.3365
C67_12 C 0.2261(4) 0.6248(2) 0.3446(3)
H61_12 H 0.2313 0.6387 0.3219
H62_12 H 0.2270 0.6355 0.3694
H63_12 H 0.2405 0.6175 0.3461
C69_12 C 0.1841(4) 0.5795(3) 0.4609(4)
C70_12 C 0.0516(4) 0.3306(3) 0.3780(3)
H64_12 H 0.0432 0.3235 0.3512
H65_12 H 0.0720 0.3333 0.3796
H66_12 H 0.0386 0.3157 0.3979
C72_12 C 0.0132(5) 0.2365(4) 0.3633(4)
C73_12 C 0.1120(4) 0.3891(3) 0.3872(3)
H67_12 H 0.1185 0.3866 0.4138
H68_12 H 0.1097 0.3727 0.3697
H69_12 H 0.1271 0.4086 0.3759
C74_12 C 0.1141(4) 0.5577(3) 0.5688(3)
H70_12 H 0.0962 0.5379 0.5733
H71_12 H 0.1144 0.5722 0.5883
H72_12 H 0.1135 0.5646 0.5417
C75_12 C 0.1861(5) 0.6114(3) 0.4644(3)
C76_12 C 0.2505(4) 0.5142(3) 0.3694(3)
F29_12 F 0.27503(24) 0.53298(20) 0.65365(19)
F30_12 F 0.26962(24) 0.52430(20) 0.58884(18)
F31_12 F 0.25321(28) 0.46297(24) 0.60486(19)
F32_12 F 0.25256(29) 0.47205(25) 0.66997(19)
O30_12 O 0.31579(32) 0.50991(26) 0.6548(2)
O31_12 O 0.20484(33) 0.46983(29) 0.5947(2)
O32_12 O 0.32495(33) 0.53152(27) 0.5920(3)
C77_12 C 0.3089(5) 0.5181(4) 0.6221(4)
N13_12 N 0.3365(4) 0.4434(3) 0.6842(3)
C78_12 C 0.2495(6) 0.4813(5) 0.6317(4)
C79_12 C 0.2997(6) 0.3893(4) 0.6812(3)
C80_12 C 0.3589(4) 0.4369(3) 0.6893(3)
C81_12 C 0.3511(5) 0.4053(4) 0.6914(3)
C82_12 C 0.2676(6) 0.3639(4) 0.6767(3)
H73_12 H 0.2639 0.3569 0.6489
H74_12 H 0.2537 0.3711 0.6840
H75_12 H 0.2642 0.3472 0.6943
C83_12 C 0.2172(6) 0.4781(5) 0.6274(4)
C84_12 C 0.3754(6) 0.3965(4) 0.6973(3)
H76_12 H 0.3792 0.3961 0.7260
H77_12 H 0.3941 0.4113 0.6840
H78_12 H 0.3684 0.3764 0.6858
C85_12 C 0.3908(5) 0.4624(4) 0.6929(3)
H79_12 H 0.3931 0.4799 0.6779
H80_12 H 0.4046 0.4561 0.6820
H81_12 H 0.3956 0.4679 0.7211
C86_12 C 0.2827(4) 0.4292(3) 0.6733(3)
H82_12 H 0.2917 0.4509 0.6780
H83_12 H 0.2658 0.4181 0.6918
H84_12 H 0.2753 0.4245 0.6457
C87_12 C 0.2766(5) 0.5146(4) 0.6240(3)
C88_12 C 0.3064(4) 0.4198(3) 0.6802(3)
N15_12 N 0.2886(4) 0.5084(3) 0.5050(3)
N16_12 N 0.2286(4) 0.4950(4) 0.4996(3)
C89_12 C 0.2741(4) 0.4548(4) 0.5149(3)
H85_12 H 0.2926 0.4599 0.5000
H86_12 H 0.2577 0.4353 0.5057
H87_12 H 0.2776 0.4538 0.5435
C90_12 C 0.2656(5) 0.4794(4) 0.5075(3)
C91_12 C 0.2431(5) 0.5488(4) 0.4896(4)
H88_12 H 0.2494 0.5572 0.4627
H89_12 H 0.2533 0.5648 0.5095
H90_12 H 0.2211 0.5399 0.4922
C92_12 C 0.2086(4) 0.4395(4) 0.5095(4)
H91_12 H 0.1895 0.4396 0.5121
H92_12 H 0.2116 0.4300 0.5332
H93_12 H 0.2079 0.4281 0.4856
C93_12 C 0.3078(5) 0.5634(4) 0.4955(4)
H94_12 H 0.3119 0.5736 0.5215
H95_12 H 0.3025 0.5744 0.4760
H96_12 H 0.3259 0.5632 0.4863
C94_12 C 0.2818(5) 0.5312(4) 0.4995(4)
C95_12 C 0.2351(4) 0.4725(4) 0.5058(3)
C96_12 C 0.2514(5) 0.5245(4) 0.4964(4)
Ag17_9 Ag 0.02139(4) 0.34074(2) 0.14688(2)
N19_9 N 0.1063(4) 0.4500(2) 0.1521(3)
Ag1_12 Ag 0.98213(3) 0.31604(2) 0.39013(3)
Ag4_6 Ag 0.98601(3) 0.31194(2) 0.48021(2)
Ag5_6 Ag 0.96117(3) 0.33583(2) 0.55357(3)
F1_12 F 0.92517(27) 0.36325(16) 0.40226(19)
F7_12 F 0.96221(20) 0.21038(14) 0.38417(19)
F12_12 F 0.97065(20) 0.21260(14) 0.31839(18)
O3_12 O 0.96913(25) 0.26612(17) 0.3808(2)
F14_12 F 0.88934(22) 0.31139(15) 0.48306(19)
F19_12 F 0.87959(20) 0.30264(14) 0.41726(19)
O14_12 O 0.93385(25) 0.30686(18) 0.4073(2)
F25_12 F 0.92960(24) 0.37213(14) 0.46823(19)
O15_12 O 0.94627(25) 0.32172(18) 0.4725(2)
O17_12 O 0.98393(26) 0.27016(19) 0.3152(2)
N6_12 N 0.9981(3) 0.2750(2) 0.4771(3)
C3_12 C 0.9972(4) 0.3858(3) 0.4085(3)
H4_12 H 0.9947 0.3866 0.4375
H5_12 H 0.9973 0.4031 0.3958
H6_12 H 0.9804 0.3670 0.3978
N9_12 N 0.9173(3) 0.3366(2) 0.5645(3)
C7_12 C 0.8344(5) 0.2817(3) 0.5898(4)
H13_12 H 0.8173 0.2820 0.5770
H14_12 H 0.8352 0.2638 0.5809
H15_12 H 0.8318 0.2809 0.6190
C10_12 C 0.9167(4) 0.3627(3) 0.5610(3)
C11_12 C 0.9769(4) 0.2580(2) 0.3489(3)
C16_12 C 0.8811(4) 0.3586(2) 0.4381(3)
C17_12 C 0.9305(3) 0.3155(2) 0.4408(3)
C19_12 C 0.9100(4) 0.3540(2) 0.4371(3)
C22_12 C 0.8913(4) 0.3104(3) 0.5728(3)
C25_12 C 0.8877(4) 0.3922(3) 0.5595(3)
H19_12 H 0.8684 0.3892 0.5700
H20_12 H 0.9045 0.4088 0.5738
H21_12 H 0.8891 0.3970 0.5309
C27_12 C 0.9023(3) 0.3206(2) 0.4452(3)
C35_12 C 0.9803(4) 0.2291(2) 0.3531(3)
C52_12 C 0.9815(4) 0.2217(3) 0.4794(3)
C60_12 C 0.9427(3) 0.2393(2) 0.4694(3)
H46_12 H 0.9433 0.2583 0.4630
H47_12 H 0.9331 0.2249 0.4475
H48_12 H 0.9312 0.2309 0.4942
C62_12 C 0.8928(4) 0.2810(3) 0.5750(3)
H49_12 H 0.9099 0.2843 0.5917
H50_12 H 0.8741 0.2649 0.5866
H51_12 H 0.8954 0.2751 0.5480
C63_12 C 0.9565(5) 0.1882(4) 0.4771(3)
H52_12 H 0.9640 0.1754 0.4882
H53_12 H 0.9389 0.1852 0.4926
H54_12 H 0.9506 0.1826 0.4491
C64_12 C 0.9754(3) 0.2455(2) 0.4752(3)
C65_12 C 0.9470(4) 0.3924(3) 0.5556(3)
H55_12 H 0.9618 0.3881 0.5429
H56_12 H 0.9440 0.4063 0.5386
H57_12 H 0.9547 0.4018 0.5818
C68_12 C 0.8890(4) 0.3630(3) 0.5653(3)
C71_12 C 0.8639(5) 0.3103(3) 0.5784(3)
Ag18_9 Ag 0.99750(4) 0.29201(2) 0.22024(3)
O33_9 O 0.95758(31) 0.30310(18) 0.2220(2)
O35_6 O 0.96820(36) 0.29274(31) 0.5555(2)
Ag1_13 Ag 0.01729(2) 0.33276(2) 0.05680(3)
F7_13 F 0.12295(14) 0.41850(14) 0.05084(19)
O3_13 O 0.06721(17) 0.36968(18) 0.0475(2)
F14_13 F 0.02194(15) 0.24462(16) 0.14973(19)
F19_13 F 0.03069(14) 0.24362(14) 0.08393(19)
F24_13 F 0.07770(21) 0.43400(15) 0.06235(18)
O14_13 O 0.02647(18) 0.29366(18) 0.0740(2)
O15_13 O 0.01161(18) 0.29122(17) 0.1392(2)
N6_13 N 0.0583(2) 0.3898(2) 0.1438(3)
C7_13 C 0.0516(3) 0.2194(4) 0.2565(4)
H13_13 H 0.0513 0.2020 0.2437
H14_13 H 0.0695 0.2381 0.2476
H15_13 H 0.0524 0.2176 0.2857
C11_13 C 0.0753(2) 0.3856(3) 0.0156(3)
C17_13 C 0.0178(2) 0.2817(2) 0.1075(3)
C22_13 C 0.0229(3) 0.2476(3) 0.2395(3)
C27_13 C 0.0127(2) 0.2484(2) 0.1119(3)
C28_13 C 0.1249(4) 0.4754(3) 0.0372(4)
C35_13 C 0.1042(2) 0.4179(3) 0.0198(3)
C36_13 C 0.0189(2) 0.4047(3) 0.1535(3)
H25_13 H 0.0146 0.4081 0.1810
H26_13 H 0.0154 0.4176 0.1352
H27_13 H 0.0057 0.3835 0.1463
C43_13 C 0.0765(3) 0.4428(2) 0.1550(3)
C45_13 C 0.0703(3) 0.4694(2) 0.1622(3)
H31_13 H 0.0644 0.4747 0.1369
H32_13 H 0.0538 0.4631 0.1816
H33_13 H 0.0885 0.4869 0.1726
C48_13 C 0.0522(2) 0.4126(3) 0.1504(3)
C52_13 C 0.1116(3) 0.4265(2) 0.1461(3)
C60_13 C 0.0940(2) 0.3701(2) 0.1361(3)
H46_13 H 0.0750 0.3517 0.1297
H47_13 H 0.1084 0.3749 0.1142
H48_13 H 0.1024 0.3670 0.1609
C62_13 C 0.0523(3) 0.2785(3) 0.2417(3)
H49_13 H 0.0490 0.2923 0.2584
H50_13 H 0.0684 0.2759 0.2533
H51_13 H 0.0582 0.2870 0.2147
C63_13 C 0.1451(4) 0.4350(3) 0.1438(3)
H52_13 H 0.1579 0.4553 0.1549
H53_13 H 0.1481 0.4204 0.1593
H54_13 H 0.1507 0.4347 0.1158
C64_13 C 0.0878(2) 0.3966(2) 0.1419(3)
C70_13 C 0.0027(3) 0.3877(3) 0.0447(3)
H64_13 H 0.0098 0.3864 0.0179
H65_13 H 0.0000 0.4054 0.0463
H66_13 H 0.0176 0.3896 0.0646
C71_13 C 0.0230(3) 0.2203(4) 0.2451(3)
C72_13 C 0.0968(4) 0.4434(3) 0.0300(4)
F12_13 F 0.12073(14) 0.42472(14) 0.98506(18)
F17_13 F 0.08062(21) 0.44582(15) 0.99749(19)
O17_13 O 0.06317(19) 0.38044(18) 0.9819(2)
Ag18_10 Ag 0.04133(2) 0.37216(3) 0.88690(3)
O33_10 O 0.03024(18) 0.32115(25) 0.8886(2)
Ag3_13 Ag 0.85092(2) 0.35310(2) 0.23981(3)
Ag8_13 Ag 0.87586(2) 0.33630(2) 0.07629(3)
Ag9_13 Ag 0.85158(2) 0.36549(2) 0.15029(3)
F1_13 F 0.97008(16) 0.22859(22) 0.06893(19)
F6_13 F 0.75953(14) 0.28680(14) 0.16410(19)
F8_13 F 0.80889(15) 0.38941(14) 0.00020(19)
F9_13 F 0.77018(15) 0.24581(15) 0.0843(2)
F11_13 F 0.90590(14) 0.30191(15) 0.15989(19)
F13_13 F 0.75335(15) 0.29054(14) 0.0987(2)
O4_13 O 0.70493(18) 0.23443(25) 0.1004(2)
F15_13 F 0.95491(15) 0.37097(15) 0.2119(2)
N1_13 N 0.8066(2) 0.3091(2) 0.2432(3)
F20_13 F 0.80212(15) 0.38157(15) 0.0657(2)
F21_13 F 0.86961(15) 0.43165(14) 0.01341(19)
F22_13 F 0.90984(14) 0.31053(15) 0.22640(19)
F23_13 F 0.78398(15) 0.24956(15) 0.14777(19)
N2_13 N 0.9731(2) 0.3328(2) 0.0589(3)
F25_13 F 0.96120(14) 0.22414(20) 0.13490(19)
F26_13 F 0.94649(15) 0.36323(15) 0.14627(19)
O16_13 O 0.89914(18) 0.36394(18) 0.2211(2)
O18_13 O 0.96944(18) 0.32349(18) 0.1589(2)
O19_13 O 0.89059(19) 0.3546(2) 0.1540(2)
C1_13 C 0.8061(3) 0.2824(3) 0.2357(3)
C2_13 C 0.7728(3) 0.3198(2) 0.0046(3)
H3_13 H 0.7723 0.3251 0.0327
O22_9 O 0.80796(25) 0.43645(18) 0.0752(3)
N5_13 N 0.9188(2) 0.3339(2) 0.0644(3)
O23_13 O 0.85367(19) 0.37068(19) 0.0097(2)
O24_13 O 0.8660(2) 0.3771(2) 0.0755(2)
O25_5 O 0.71756(19) 0.22706(28) 0.1630(2)
O26_13 O 0.8195(2) 0.3141(2) 0.1353(3)
F27_13 F 0.86266(15) 0.42757(14) 0.07826(18)
C3_13 C 0.9475(3) 0.2781(2) 0.0752(3)
H4_13 H 0.9467 0.2748 0.1042
H5_13 H 0.9302 0.2609 0.0625
H6_13 H 0.9663 0.2801 0.0645
N9_13 N 0.9967(2) 0.2474(2) 0.2312(3)
C4_13 C 0.9727(3) 0.3592(2) 0.0531(3)
C5_13 C 0.8353(3) 0.2844(3) 0.2218(4)
H7_13 H 0.8522 0.2999 0.2374
H8_13 H 0.8342 0.2649 0.2257
H9_13 H 0.8385 0.2898 0.1934
C6_13 C 0.7821(3) 0.3391(3) 0.2614(3)
H10_13 H 0.8014 0.3557 0.2515
H11_13 H 0.7654 0.3399 0.2483
H12_13 H 0.7809 0.3411 0.2904
C8_13 C 0.8581(3) 0.3838(3) 0.0425(3)
O27_9 O 0.81404(25) 0.44379(18) 0.0074(2)
C9_13 C 0.9465(3) 0.3068(2) 0.0666(3)
C10_13 C 0.9706(3) 0.2207(3) 0.2277(3)
C13_13 C 0.7795(3) 0.2648(3) 0.1174(3)
C16_13 C 0.9747(2) 0.1892(3) 0.1048(3)
C18_13 C 0.8531(3) 0.4118(3) 0.0429(3)
C19_13 C 0.9793(2) 0.2227(3) 0.1038(3)
C21_13 C 0.9453(2) 0.3600(2) 0.0575(3)
C23_13 C 0.9258(2) 0.3205(2) 0.1902(3)
C24_13 C 0.9046(2) 0.3577(2) 0.1857(3)
C25_13 C 0.9411(3) 0.1622(3) 0.2262(3)
H19_13 H 0.9441 0.1459 0.2367
H20_13 H 0.9245 0.1624 0.2405
H21_13 H 0.9363 0.1588 0.1976
C29_13 C 0.9327(2) 0.3528(2) 0.1829(3)
C30_13 C 0.9187(2) 0.3071(2) 0.0681(3)
C31_13 C 0.7522(2) 0.2808(3) 0.2534(3)
C32_13 C 0.9539(3) 0.3150(2) 0.1899(3)
C37_13 C 0.7781(3) 0.2542(2) 0.2406(3)
C38_13 C 0.7802(3) 0.3088(3) 0.2520(3)
C39_13 C 0.7647(2) 0.2865(3) 0.0018(3)
C46_13 C 0.8882(2) 0.2780(2) 0.0736(3)
H34_13 H 0.8827 0.2662 0.0487
H35_13 H 0.8897 0.2660 0.0954
H36_13 H 0.8726 0.2832 0.0801
N11_13 N 0.7286(2) 0.2334(3) 0.0036(3)
O28_13 O 0.8255(2) 0.2943(2) 0.0792(3)
C50_13 C 0.8126(4) 0.4310(3) 0.0393(4)
N12_5 N 0.7518(2) 0.2541(2) 0.2495(3)
C54_13 C 0.7223(3) 0.2795(3) 0.2609(3)
H37_13 H 0.7181 0.2896 0.2390
H38_13 H 0.7061 0.2583 0.2624
H39_13 H 0.7233 0.2896 0.2862
H40_13 H 0.8247 0.2594 0.0052
C58_13 C 0.8115(3) 0.2943(3) 0.1087(4)
C61_13 C 0.7350(2) 0.2629(3) 0.0057(3)
C65_13 C 0.9409(3) 0.2213(3) 0.2223(3)
H55_13 H 0.9452 0.2404 0.2096
H56_13 H 0.9270 0.2044 0.2053
H57_13 H 0.9315 0.2196 0.2485
H59_13 H 0.7568 0.1912 0.0145
H60_13 H 0.7226 0.1813 0.0032
C67_13 C 0.7085(2) 0.2680(3) 0.0113(3)
H62_13 H 0.6978 0.2582 0.0361
H63_13 H 0.7158 0.2897 0.0128
C68_13 C 0.9703(3) 0.1927(3) 0.2320(3)
C69_13 C 0.7538(3) 0.2713(3) 0.1276(4)
C73_13 C 0.9442(3) 0.3896(2) 0.0539(3)
H67_13 H 0.9467 0.3986 0.0805
H68_13 H 0.9606 0.4037 0.0364
H69_13 H 0.9247 0.3852 0.0426
C74_13 C 0.7756(3) 0.2231(3) 0.2355(3)
H70_13 H 0.7954 0.2250 0.2400
H71_13 H 0.7611 0.2089 0.2550
H72_13 H 0.7687 0.2156 0.2084
C75_13 C 0.7219(3) 0.2414(4) 0.1311(3)
C76_13 C 0.8191(3) 0.4030(3) 0.0361(3)
F29_13 F 0.80035(20) 0.40872(14) 0.32032(19)
F30_13 F 0.80903(20) 0.41199(14) 0.25551(18)
F31_13 F 0.87036(24) 0.45691(14) 0.27153(19)
F32_13 F 0.86128(25) 0.44718(14) 0.33664(19)
O30_13 O 0.82342(26) 0.47255(19) 0.3215(2)
O31_13 O 0.86350(29) 0.40168(16) 0.2614(2)
O32_13 O 0.80181(27) 0.46010(19) 0.2587(3)
C77_13 C 0.8152(4) 0.4575(3) 0.2888(4)
N13_13 N 0.8899(3) 0.5598(2) 0.3509(3)
C78_13 C 0.8520(5) 0.4349(3) 0.2984(4)
C79_13 C 0.9440(4) 0.5771(4) 0.3479(3)
C80_13 C 0.8964(3) 0.5887(2) 0.3560(3)
C81_13 C 0.9280(4) 0.6125(3) 0.3581(3)
C82_13 C 0.9694(4) 0.5704(4) 0.3434(3)
H73_13 H 0.9764 0.5737 0.3156
H74_13 H 0.9622 0.5493 0.3507
H75_13 H 0.9861 0.5837 0.3610
C83_13 C 0.8552(5) 0.4058(3) 0.2941(4)
C84_13 C 0.9368(4) 0.6456(4) 0.3640(3)
H76_13 H 0.9372 0.6498 0.3927
H77_13 H 0.9220 0.6495 0.3507
H78_13 H 0.9569 0.6587 0.3525
C85_13 C 0.8709(4) 0.5951(3) 0.3596(3)
H79_13 H 0.8534 0.5799 0.3446
H80_13 H 0.8772 0.6152 0.3487
H81_13 H 0.8654 0.5944 0.3878
C86_13 C 0.9041(3) 0.5202(2) 0.3400(3)
H82_13 H 0.8824 0.5075 0.3447
H83_13 H 0.9152 0.5144 0.3585
H84_13 H 0.9088 0.5175 0.3124
C87_13 C 0.8187(4) 0.4287(3) 0.2907(3)
C88_13 C 0.9135(3) 0.5533(2) 0.3469(3)
N15_13 N 0.8249(3) 0.4469(2) 0.1717(3)
N16_13 N 0.8383(4) 0.4003(2) 0.1663(3)
C89_13 C 0.8785(4) 0.4860(2) 0.1816(3)
H85_13 H 0.8734 0.4994 0.1667
H86_13 H 0.8980 0.4891 0.1724
H87_13 H 0.8795 0.4905 0.2102
C90_13 C 0.8539(4) 0.4529(3) 0.1742(3)
C91_13 C 0.7845(4) 0.3610(3) 0.1563(4)
H88_13 H 0.7761 0.3589 0.1294
H89_13 H 0.7685 0.3552 0.1762
H90_13 H 0.7934 0.3479 0.1589
C92_13 C 0.8938(4) 0.4358(2) 0.1762(4)
H91_13 H 0.8937 0.4166 0.1788
H92_13 H 0.9033 0.4483 0.1999
H93_13 H 0.9052 0.4465 0.1523
C93_13 C 0.7699(4) 0.4111(3) 0.1622(4)
H94_13 H 0.7597 0.4050 0.1882
H95_13 H 0.7589 0.3948 0.1427
H96_13 H 0.7701 0.4294 0.1530
C94_13 C 0.8021(4) 0.4173(3) 0.1662(4)
C95_13 C 0.8608(4) 0.4293(2) 0.1725(3)
C96_13 C 0.8088(4) 0.3936(3) 0.1631(4)
O40_5 O 0.62848(31) 0.19204(25) 0.0752(3)
O41_9 O 0.77294(28) 0.49051(34) 0.1630(2)
O42_5 O 0.62974(31) 0.18596(25) 0.0074(2)
N20_9 N 0.7459(2) 0.4978(3) 0.2495(3)
Ag2_13 Ag 0.83467(2) 0.31855(2) 0.90660(3)
Ag6_13 Ag 0.83764(2) 0.31862(2) 0.99737(3)
O1_13 O 0.6785(2) 0.2101(3) 0.9226(3)
F2_13 F 0.92865(14) 0.31228(15) 0.9786(2)
F3_13 F 0.92269(14) 0.30204(14) 0.91265(18)
F4_13 F 0.73160(15) 0.25986(15) 0.91385(19)
F5_13 F 0.74629(14) 0.21378(14) 0.9028(2)
F10_13 F 0.74011(15) 0.21571(14) 0.83738(19)
F16_13 F 0.95055(14) 0.37312(15) 0.9631(2)
O5_13 O 0.79570(19) 0.26870(18) 0.9003(2)
F18_13 F 0.72044(16) 0.25730(15) 0.84955(19)
O7_10 O 0.99121(18) 0.36514(25) 0.8889(2)
O8_13 O 0.78704(17) 0.27312(18) 0.8336(2)
O10_13 O 0.99092(18) 0.3512(2) 0.9544(2)
O13_13 O 0.87292(18) 0.30673(18) 0.9144(2)
O20_13 O 0.88469(18) 0.32682(19) 0.9783(2)
N4_13 N 0.8344(2) 0.3628(2) 0.9084(3)
H1_13 H 0.7932 0.3328 0.9938
H2_13 H 0.7582 0.3228 0.9891
N7_9 N 0.8342(3) 0.4174(2) 0.9170(2)
F28_13 F 0.93790(14) 0.36279(14) 0.89844(18)
C12_13 C 0.8087(3) 0.3631(3) 0.9062(3)
C14_13 C 0.7475(3) 0.2330(3) 0.8719(3)
C15_13 C 0.8908(3) 0.3890(3) 0.9190(4)
H16_13 H 0.8908 0.3752 0.8987
H17_13 H 0.9079 0.4094 0.9143
H18_13 H 0.8926 0.3821 0.9456
C20_13 C 0.6897(2) 0.2117(4) 0.8886(3)
C26_13 C 0.8077(3) 0.3903(3) 0.9106(3)
C33_13 C 0.9799(3) 0.3565(4) 0.9231(4)
C34_13 C 0.7799(3) 0.3329(3) 0.8955(3)
H22_13 H 0.7842 0.3163 0.8974
H23_13 H 0.7636 0.3294 0.9141
H24_13 H 0.7737 0.3341 0.8681
N10_13 N 0.7882(2) 0.2807(2) 0.9951(3)
C40_13 C 0.7222(3) 0.2403(3) 0.8809(3)
C41_13 C 0.8899(4) 0.4475(2) 0.9233(3)
H28_13 H 0.9026 0.4515 0.8995
H29_13 H 0.9008 0.4468 0.9470
H30_13 H 0.8850 0.4637 0.9264
C42_13 C 0.8617(3) 0.3898(3) 0.9164(3)
C44_13 C 0.7801(3) 0.2617(2) 0.8678(3)
C47_13 C 0.9479(2) 0.3539(3) 0.9308(3)
C49_13 C 0.7821(2) 0.2518(2) 0.9928(3)
C51_13 C 0.8894(3) 0.3174(3) 0.9446(3)
C53_13 C 0.8609(4) 0.4175(2) 0.9185(3)
C55_13 C 0.8083(2) 0.2464(2) 0.9870(3)
H41_13 H 0.8017 0.2251 0.9927
H42_13 H 0.8155 0.2511 0.9593
C56_13 C 0.7516(2) 0.2275(2) 0.9977(3)
C57_13 C 0.7788(3) 0.3918(3) 0.9100(3)
H43_13 H 0.7719 0.3905 0.8824
H44_13 H 0.7632 0.3749 0.9256
H45_13 H 0.7826 0.4109 0.9219
C59_13 C 0.9220(2) 0.3207(2) 0.9430(3)
C66_13 C 0.7438(2) 0.1944(2) 0.9958(3)
H58_13 H 0.7471 0.1895 0.9686
H61_13 H 0.6946 0.2593 0.9886
Ag17_10 Ag 0.99260(2) 0.34732(3) 0.81354(2)
N18_5 N 0.5831(4) 0.1658(3) 0.9170(2)
N19_10 N 0.8834(2) 0.3230(4) 0.8187(3)
Ag1_14 Ag 0.66724(2) 0.68454(3) 0.05680(3)
Ag3_14 Ag 0.64690(2) 0.49783(3) 0.23981(3)
Ag8_14 Ag 0.66370(2) 0.53957(3) 0.07629(3)
Ag9_14 Ag 0.63451(2) 0.48610(3) 0.15029(3)
F1_14 F 0.77141(22) 0.74150(27) 0.06893(19)
F6_14 F 0.71320(14) 0.47274(20) 0.16410(19)
F7_14 F 0.58150(14) 0.70446(20) 0.05084(19)
F8_14 F 0.61059(14) 0.41949(21) 0.00020(19)
F9_14 F 0.75419(15) 0.52438(21) 0.0843(2)
F11_14 F 0.69809(15) 0.60400(21) 0.15989(19)
O3_14 O 0.63032(18) 0.69754(25) 0.0475(2)
F13_14 F 0.70946(14) 0.46282(21) 0.0987(2)
F14_14 F 0.75538(16) 0.77733(22) 0.14973(19)
O4_14 O 0.76557(25) 0.47051(31) 0.1004(2)
F15_14 F 0.62903(15) 0.58395(21) 0.2119(2)
F19_14 F 0.75638(14) 0.78708(20) 0.08393(19)
N1_14 N 0.6909(2) 0.4976(3) 0.2432(3)
F20_14 F 0.61843(15) 0.42056(21) 0.0657(2)
F21_14 F 0.56835(14) 0.43797(21) 0.01341(19)
F22_14 F 0.68947(15) 0.59932(21) 0.22640(19)
F23_14 F 0.75044(15) 0.53443(21) 0.14777(19)
F24_14 F 0.56600(15) 0.64371(26) 0.06235(18)
N2_14 N 0.6672(2) 0.6404(3) 0.0589(3)
O14_14 O 0.70634(18) 0.73282(25) 0.0740(2)
F25_14 F 0.77586(20) 0.73707(24) 0.13490(19)
O15_14 O 0.70878(17) 0.72040(25) 0.1392(2)
F26_14 F 0.63677(15) 0.58327(21) 0.14627(19)
O16_14 O 0.63606(18) 0.53521(25) 0.2211(2)
O18_14 O 0.67651(18) 0.64596(25) 0.1589(2)
O19_14 O 0.6454(2) 0.53603(28) 0.1540(2)
C1_14 C 0.7176(3) 0.5238(4) 0.2357(3)
C2_14 C 0.6802(2) 0.4531(4) 0.0046(3)
H3_14 H 0.6749 0.4473 0.0327
O22_10 O 0.56355(18) 0.37152(31) 0.0752(3)
N5_14 N 0.6661(2) 0.5850(3) 0.0644(3)
O23_14 O 0.62932(19) 0.48300(27) 0.0097(2)
N6_14 N 0.6102(2) 0.6686(3) 0.1438(3)
O24_14 O 0.6229(2) 0.4890(3) 0.0755(2)
O26_14 O 0.6859(2) 0.5055(3) 0.1353(3)
F27_14 F 0.57243(14) 0.43510(21) 0.07826(18)
C3_14 C 0.7219(2) 0.6695(4) 0.0752(3)
H4_14 H 0.7252 0.6720 0.1042
H5_14 H 0.7391 0.6694 0.0625
H6_14 H 0.7199 0.6863 0.0645
N9_14 N 0.7526(2) 0.7494(3) 0.2312(3)
C4_14 C 0.6408(2) 0.6136(4) 0.0531(3)
C5_14 C 0.7156(3) 0.5510(4) 0.2218(4)
H7_14 H 0.7001 0.5524 0.2374
H8_14 H 0.7351 0.5694 0.2257
H9_14 H 0.7102 0.5488 0.1934
C6_14 C 0.6609(3) 0.4431(4) 0.2614(3)
H10_14 H 0.6443 0.4458 0.2515
H11_14 H 0.6601 0.4256 0.2483
H12_14 H 0.6589 0.4399 0.2904
C7_14 C 0.7806(4) 0.8323(5) 0.2565(4)
H13_14 H 0.7980 0.8494 0.2437
H14_14 H 0.7619 0.8315 0.2476
H15_14 H 0.7824 0.8349 0.2857
C8_14 C 0.6162(3) 0.4744(4) 0.0425(3)
O27_10 O 0.55621(18) 0.37026(31) 0.0074(2)
C9_14 C 0.6932(2) 0.6398(4) 0.0666(3)
C10_14 C 0.7793(3) 0.7500(4) 0.2277(3)
C11_14 C 0.6144(3) 0.6898(4) 0.0156(3)
C13_14 C 0.7352(3) 0.5148(4) 0.1174(3)
C16_14 C 0.8108(3) 0.7856(4) 0.1048(3)
C17_14 C 0.7183(2) 0.7362(3) 0.1075(3)
C18_14 C 0.5882(3) 0.4414(4) 0.0429(3)
C19_14 C 0.7773(3) 0.7567(4) 0.1038(3)
C21_14 C 0.6400(2) 0.5854(3) 0.0575(3)
C22_14 C 0.7524(3) 0.7754(4) 0.2395(3)
C23_14 C 0.6795(2) 0.6054(3) 0.1902(3)
C24_14 C 0.6423(2) 0.5470(3) 0.1857(3)
C25_14 C 0.8378(3) 0.7790(4) 0.2262(3)
H19_14 H 0.8541 0.7983 0.2367
H20_14 H 0.8376 0.7622 0.2405
H21_14 H 0.8412 0.7776 0.1976
C27_14 C 0.7516(2) 0.7644(3) 0.1119(3)
C28_14 C 0.5246(3) 0.6496(5) 0.0372(4)
C29_14 C 0.6472(2) 0.5800(3) 0.1829(3)
C30_14 C 0.6929(2) 0.6117(3) 0.0681(3)
C31_14 C 0.7192(3) 0.4715(4) 0.2534(3)
C32_14 C 0.6850(2) 0.6390(4) 0.1899(3)
C35_14 C 0.5821(3) 0.6864(4) 0.0198(3)
C36_14 C 0.5953(3) 0.6143(4) 0.1535(3)
H25_14 H 0.5919 0.6066 0.1810
H26_14 H 0.5824 0.5979 0.1352
H27_14 H 0.6165 0.6223 0.1463
C37_14 C 0.7458(2) 0.5240(4) 0.2406(3)
C38_14 C 0.6912(3) 0.4715(4) 0.2520(3)
C39_14 C 0.7135(3) 0.4783(4) 0.0018(3)
C43_14 C 0.5572(2) 0.6338(4) 0.1550(3)
C45_14 C 0.5306(2) 0.6010(4) 0.1622(3)
H31_14 H 0.5253 0.5898 0.1369
H32_14 H 0.5369 0.5908 0.1816
H33_14 H 0.5131 0.6017 0.1726
C46_14 C 0.7220(2) 0.6103(3) 0.0736(3)
H34_14 H 0.7338 0.6166 0.0487
H35_14 H 0.7340 0.6238 0.0954
H36_14 H 0.7168 0.5895 0.0801
N11_14 N 0.7666(3) 0.4953(4) 0.0036(3)
C48_14 C 0.5874(3) 0.6397(4) 0.1504(3)
O28_14 O 0.7057(2) 0.5313(3) 0.0792(3)
C50_14 C 0.5690(3) 0.3817(5) 0.0393(4)
C52_14 C 0.5735(2) 0.6852(4) 0.1461(3)
C54_14 C 0.7205(3) 0.4429(4) 0.2609(3)
H37_14 H 0.7104 0.4286 0.2390
H38_14 H 0.7417 0.4479 0.2624
H39_14 H 0.7104 0.4338 0.2862
H40_14 H 0.7406 0.5654 0.0052
C58_14 C 0.7057(3) 0.5173(4) 0.1087(4)
C60_14 C 0.6299(2) 0.7240(3) 0.1361(3)
H46_14 H 0.6483 0.7234 0.1297
H47_14 H 0.6251 0.7336 0.1142
H48_14 H 0.6330 0.7355 0.1609
C61_14 C 0.7371(3) 0.4722(4) 0.0057(3)
C62_14 C 0.7215(3) 0.7739(4) 0.2417(3)
H49_14 H 0.7077 0.7568 0.2584
H50_14 H 0.7241 0.7926 0.2533
H51_14 H 0.7130 0.7713 0.2147
C63_14 C 0.5650(3) 0.7102(5) 0.1438(3)
H52_14 H 0.5447 0.7027 0.1549
H53_14 H 0.5796 0.7278 0.1593
H54_14 H 0.5653 0.7161 0.1158
C64_14 C 0.6034(2) 0.6913(3) 0.1419(3)
C65_14 C 0.7787(3) 0.7197(4) 0.2223(3)
H55_14 H 0.7596 0.7049 0.2096
H56_14 H 0.7956 0.7227 0.2053
H57_14 H 0.7804 0.7120 0.2485
H59_14 H 0.8088 0.5657 0.0145
H60_14 H 0.8187 0.5414 0.0032
C67_14 C 0.7320(3) 0.4406(4) 0.0113(3)
H62_14 H 0.7418 0.4397 0.0361
H63_14 H 0.7103 0.4262 0.0128
C68_14 C 0.8073(3) 0.7777(4) 0.2320(3)
C69_14 C 0.7287(3) 0.4826(4) 0.1276(4)
C70_14 C 0.6123(3) 0.6151(4) 0.0447(3)
H64_14 H 0.6136 0.6235 0.0179
H65_14 H 0.5946 0.5947 0.0463
H66_14 H 0.6104 0.6281 0.0646
C71_14 C 0.7797(4) 0.8028(5) 0.2451(3)
C72_14 C 0.5566(3) 0.6535(5) 0.0300(4)
C73_14 C 0.6104(2) 0.5547(4) 0.0539(3)
H67_14 H 0.6014 0.5482 0.0805
H68_14 H 0.5963 0.5570 0.0364
H69_14 H 0.6148 0.5396 0.0426
C74_14 C 0.7769(3) 0.5526(4) 0.2355(3)
H70_14 H 0.7750 0.5705 0.2400
H71_14 H 0.7911 0.5523 0.2550
H72_14 H 0.7844 0.5532 0.2084
C75_14 C 0.7586(4) 0.4806(5) 0.1311(3)
C76_14 C 0.5970(3) 0.4162(4) 0.0361(3)
F29_14 F 0.59128(14) 0.39164(24) 0.32032(19)
F30_14 F 0.58801(14) 0.39705(24) 0.25551(18)
F31_14 F 0.54309(14) 0.41346(28) 0.27153(19)
F32_14 F 0.55282(14) 0.41411(29) 0.33664(19)
O30_14 O 0.52745(19) 0.35088(32) 0.3215(2)
O31_14 O 0.59832(16) 0.46183(33) 0.2614(2)
O32_14 O 0.53990(19) 0.34172(33) 0.2587(3)
C77_14 C 0.5425(3) 0.3578(5) 0.2888(4)
N13_14 N 0.4402(2) 0.3302(4) 0.3509(3)
C78_14 C 0.5651(3) 0.4172(6) 0.2984(4)
C79_14 C 0.4229(4) 0.3670(6) 0.3479(3)
C80_14 C 0.4113(2) 0.3078(4) 0.3560(3)
C81_14 C 0.3875(3) 0.3156(5) 0.3581(3)
C82_14 C 0.4296(4) 0.3991(6) 0.3434(3)
H73_14 H 0.4263 0.4028 0.3156
H74_14 H 0.4507 0.4130 0.3507
H75_14 H 0.4163 0.4025 0.3610
C83_14 C 0.5942(3) 0.4495(6) 0.2941(4)
C84_14 C 0.3544(4) 0.2913(6) 0.3640(3)
H76_14 H 0.3502 0.2875 0.3927
H77_14 H 0.3505 0.2726 0.3507
H78_14 H 0.3413 0.2983 0.3525
C85_14 C 0.4049(3) 0.2759(5) 0.3596(3)
H79_14 H 0.4201 0.2736 0.3446
H80_14 H 0.3848 0.2621 0.3487
H81_14 H 0.4056 0.2711 0.3878
C86_14 C 0.4798(2) 0.3840(4) 0.3400(3)
H82_14 H 0.4925 0.3750 0.3447
H83_14 H 0.4856 0.4009 0.3585
H84_14 H 0.4825 0.3914 0.3124
C87_14 C 0.5713(3) 0.3901(5) 0.2907(3)
C88_14 C 0.4467(2) 0.3603(4) 0.3469(3)
N15_14 N 0.5531(2) 0.3781(4) 0.1717(3)
N16_14 N 0.5997(2) 0.4381(4) 0.1663(3)
C89_14 C 0.5140(2) 0.3926(4) 0.1816(3)
H85_14 H 0.5006 0.3741 0.1667
H86_14 H 0.5109 0.4090 0.1724
H87_14 H 0.5095 0.3891 0.2102
C90_14 C 0.5471(3) 0.4011(5) 0.1742(3)
C91_14 C 0.6390(3) 0.4236(5) 0.1563(4)
H88_14 H 0.6411 0.4173 0.1294
H89_14 H 0.6448 0.4134 0.1762
H90_14 H 0.6521 0.4456 0.1589
C92_14 C 0.5642(2) 0.4581(4) 0.1762(4)
H91_14 H 0.5834 0.4772 0.1788
H92_14 H 0.5517 0.4551 0.1999
H93_14 H 0.5535 0.4588 0.1523
C93_14 C 0.5889(3) 0.3589(5) 0.1622(4)
H94_14 H 0.5950 0.3548 0.1882
H95_14 H 0.6052 0.3642 0.1427
H96_14 H 0.5706 0.3408 0.1530
C94_14 C 0.5827(3) 0.3849(5) 0.1662(4)
C95_14 C 0.5707(2) 0.4316(4) 0.1725(3)
C96_14 C 0.6064(3) 0.4153(5) 0.1631(4)
O41_10 O 0.50949(34) 0.28244(44) 0.1630(2)
N20_10 N 0.5022(3) 0.2482(4) 0.2495(3)
Ag2_14 Ag 0.68145(2) 0.51613(3) 0.90660(3)
Ag6_14 Ag 0.68138(2) 0.51903(3) 0.99737(3)
O1_14 O 0.7899(3) 0.4685(4) 0.9226(3)
F2_14 F 0.68772(15) 0.61638(21) 0.9786(2)
F3_14 F 0.69796(14) 0.62066(20) 0.91265(18)
F4_14 F 0.74014(15) 0.47175(21) 0.91385(19)
F5_14 F 0.78622(14) 0.53252(20) 0.9028(2)
F10_14 F 0.78429(14) 0.52441(21) 0.83738(19)
F12_14 F 0.57528(14) 0.69602(20) 0.98506(18)
F16_14 F 0.62688(15) 0.57744(21) 0.9631(2)
F17_14 F 0.55418(15) 0.63481(26) 0.99749(19)
O5_14 O 0.73130(18) 0.52701(26) 0.9003(2)
F18_14 F 0.74270(15) 0.46315(22) 0.84955(19)
O7_11 O 0.63486(25) 0.62608(31) 0.8889(2)
O8_14 O 0.72688(18) 0.51393(25) 0.8336(2)
O10_14 O 0.6488(2) 0.63976(27) 0.9544(2)
O13_14 O 0.69327(18) 0.56620(25) 0.9144(2)
O17_14 O 0.61956(18) 0.68274(26) 0.9819(2)
O20_14 O 0.67318(19) 0.55788(26) 0.9783(2)
N4_14 N 0.6372(2) 0.4717(3) 0.9084(3)
H1_14 H 0.6672 0.4605 0.9938
H2_14 H 0.6772 0.4355 0.9891
N7_10 N 0.5826(2) 0.4169(4) 0.9170(2)
F28_14 F 0.63721(14) 0.57512(20) 0.89844(18)
C12_14 C 0.6369(3) 0.4457(4) 0.9062(3)
C14_14 C 0.7670(3) 0.5146(4) 0.8719(3)
C15_14 C 0.6110(3) 0.5019(4) 0.9190(4)
H16_14 H 0.6248 0.5157 0.8987
H17_14 H 0.5906 0.4986 0.9143
H18_14 H 0.6179 0.5106 0.9456
C20_14 C 0.7883(4) 0.4781(4) 0.8886(3)
C26_14 C 0.6097(3) 0.4175(4) 0.9106(3)
C33_14 C 0.6435(4) 0.6235(5) 0.9231(4)
C34_14 C 0.6671(3) 0.4471(4) 0.8955(3)
H22_14 H 0.6837 0.4680 0.8974
H23_14 H 0.6706 0.4343 0.9141
H24_14 H 0.6659 0.4397 0.8681
N10_14 N 0.7193(2) 0.5076(3) 0.9951(3)
C40_14 C 0.7597(3) 0.4820(4) 0.8809(3)
C41_14 C 0.5525(2) 0.4425(4) 0.9233(3)
H28_14 H 0.5485 0.4512 0.8995
H29_14 H 0.5532 0.4541 0.9470
H30_14 H 0.5363 0.4214 0.9264
C42_14 C 0.6102(3) 0.4720(4) 0.9164(3)
C44_14 C 0.7383(2) 0.5185(4) 0.8678(3)
C47_14 C 0.6461(3) 0.5941(4) 0.9308(3)
C49_14 C 0.7482(2) 0.5304(3) 0.9928(3)
C51_14 C 0.6826(3) 0.5721(4) 0.9446(3)
C53_14 C 0.5825(2) 0.4435(4) 0.9185(3)
C55_14 C 0.7536(2) 0.5620(3) 0.9870(3)
H41_14 H 0.7749 0.5767 0.9927
H42_14 H 0.7489 0.5645 0.9593
C56_14 C 0.7725(2) 0.5242(3) 0.9977(3)
C57_14 C 0.6082(3) 0.3871(4) 0.9100(3)
H43_14 H 0.6095 0.3815 0.8824
H44_14 H 0.6251 0.3884 0.9256
H45_14 H 0.5891 0.3718 0.9219
C59_14 C 0.6793(2) 0.6014(3) 0.9430(3)
C66_14 C 0.8056(2) 0.5495(3) 0.9958(3)
H58_14 H 0.8105 0.5577 0.9686
H61_14 H 0.7407 0.4354 0.9886
Ag17_11 Ag 0.65268(3) 0.64527(4) 0.81354(2)
Ag18_11 Ag 0.62784(3) 0.66916(4) 0.88690(3)
O33_11 O 0.67885(25) 0.70908(31) 0.8886(2)
N19_11 N 0.6770(4) 0.5603(4) 0.8187(3)
Ag3_15 Ag 0.50217(3) 0.14908(2) 0.23981(3)
Ag8_15 Ag 0.46043(3) 0.12414(2) 0.07629(3)
Ag9_15 Ag 0.51390(3) 0.14842(2) 0.15029(3)
F1_15 F 0.25850(27) 0.02992(16) 0.06893(19)
F6_15 F 0.52726(20) 0.24047(14) 0.16410(19)
F8_15 F 0.58051(21) 0.19111(15) 0.00020(19)
F9_15 F 0.47562(21) 0.22982(15) 0.0843(2)
F11_15 F 0.39600(21) 0.09410(14) 0.15989(19)
F13_15 F 0.53718(21) 0.24665(15) 0.0987(2)
O4_15 O 0.52949(31) 0.29507(18) 0.1004(2)
F15_15 F 0.41605(21) 0.04509(15) 0.2119(2)
N1_15 N 0.5024(3) 0.1934(2) 0.2432(3)
F20_15 F 0.57944(21) 0.19788(15) 0.0657(2)
F21_15 F 0.56203(21) 0.13039(15) 0.01341(19)
F22_15 F 0.40068(21) 0.09016(14) 0.22640(19)
F23_15 F 0.46557(21) 0.21602(15) 0.14777(19)
N2_15 N 0.3596(3) 0.0269(2) 0.0589(3)
F25_15 F 0.26293(24) 0.03880(14) 0.13490(19)
F26_15 F 0.41673(21) 0.05351(15) 0.14627(19)
O16_15 O 0.46479(25) 0.10086(18) 0.2211(2)
O18_15 O 0.35404(25) 0.03056(18) 0.1589(2)
O19_15 O 0.46397(28) 0.10941(19) 0.1540(2)
C1_15 C 0.4762(4) 0.1939(3) 0.2357(3)
C2_15 C 0.5469(4) 0.2272(3) 0.0046(3)
H3_15 H 0.5527 0.2277 0.0327
N5_15 N 0.4150(3) 0.0812(2) 0.0644(3)
O23_15 O 0.51700(27) 0.14633(19) 0.0097(2)
O24_15 O 0.5110(3) 0.1340(2) 0.0755(2)
O26_15 O 0.4945(3) 0.1805(2) 0.1353(3)
F27_15 F 0.56490(21) 0.13734(15) 0.07826(18)
C3_15 C 0.3305(4) 0.0525(3) 0.0752(3)
H4_15 H 0.3280 0.0533 0.1042
H5_15 H 0.3306 0.0698 0.0625
H6_15 H 0.3137 0.0337 0.0645
N9_15 N 0.2506(3) 0.0033(2) 0.2312(3)
C4_15 C 0.3864(4) 0.0273(3) 0.0531(3)
C5_15 C 0.4490(4) 0.1647(3) 0.2218(4)
H7_15 H 0.4476 0.1478 0.2374
H8_15 H 0.4306 0.1658 0.2257
H9_15 H 0.4512 0.1615 0.1934
C6_15 C 0.5569(4) 0.2179(3) 0.2614(3)
H10_15 H 0.5542 0.1986 0.2515
H11_15 H 0.5744 0.2346 0.2483
H12_15 H 0.5601 0.2191 0.2904
C8_15 C 0.5256(4) 0.1419(3) 0.0425(3)
C9_15 C 0.3602(4) 0.0535(3) 0.0666(3)
C10_15 C 0.2500(4) 0.0294(3) 0.2277(3)
C13_15 C 0.4852(4) 0.2205(3) 0.1174(3)
C16_15 C 0.2144(4) 0.0253(2) 0.1048(3)
C18_15 C 0.5586(4) 0.1469(3) 0.0429(3)
C19_15 C 0.2433(4) 0.0207(2) 0.1038(3)
C21_15 C 0.4146(3) 0.0547(2) 0.0575(3)
C23_15 C 0.3946(3) 0.0742(2) 0.1902(3)
C24_15 C 0.4530(3) 0.0954(2) 0.1857(3)
C25_15 C 0.2210(4) 0.0589(3) 0.2262(3)
H19_15 H 0.2017 0.0559 0.2367
H20_15 H 0.2378 0.0755 0.2405
H21_15 H 0.2224 0.0637 0.1976
C29_15 C 0.4200(3) 0.0673(2) 0.1829(3)
C30_15 C 0.3883(3) 0.0813(2) 0.0681(3)
C31_15 C 0.5285(4) 0.2478(2) 0.2534(3)
C32_15 C 0.3610(4) 0.0461(3) 0.1899(3)
C37_15 C 0.4760(4) 0.2219(3) 0.2406(3)
C38_15 C 0.5285(4) 0.2198(3) 0.2520(3)
C39_15 C 0.5217(4) 0.2353(2) 0.0018(3)
C46_15 C 0.3897(3) 0.1118(2) 0.0736(3)
H34_15 H 0.3834 0.1173 0.0487
H35_15 H 0.3762 0.1103 0.0954
H36_15 H 0.4105 0.1274 0.0801
N11_15 N 0.5047(4) 0.2714(2) 0.0036(3)
O28_15 O 0.4687(3) 0.1745(2) 0.0792(3)
C50_15 C 0.6183(5) 0.1874(4) 0.0393(4)
C54_15 C 0.5571(4) 0.2777(3) 0.2609(3)
H37_15 H 0.5714 0.2819 0.2390
H38_15 H 0.5521 0.2939 0.2624
H39_15 H 0.5662 0.2767 0.2862
H40_15 H 0.4346 0.1753 0.0052
C58_15 C 0.4827(4) 0.1885(3) 0.1087(4)
C61_15 C 0.5278(4) 0.2650(2) 0.0057(3)
C65_15 C 0.2803(4) 0.0591(3) 0.2223(3)
H55_15 H 0.2951 0.0548 0.2096
H56_15 H 0.2773 0.0730 0.2053
H57_15 H 0.2880 0.0685 0.2485
H59_15 H 0.4343 0.2432 0.0145
H60_15 H 0.4586 0.2774 0.0032
C67_15 C 0.5594(4) 0.2915(2) 0.0113(3)
H62_15 H 0.5603 0.3022 0.0361
H63_15 H 0.5738 0.2842 0.0128
C68_15 C 0.2223(4) 0.0297(3) 0.2320(3)
C69_15 C 0.5174(4) 0.2462(3) 0.1276(4)
C73_15 C 0.4453(4) 0.0558(3) 0.0539(3)
H67_15 H 0.4518 0.0533 0.0805
H68_15 H 0.4430 0.0394 0.0364
H69_15 H 0.4604 0.0753 0.0426
C74_15 C 0.4474(4) 0.2244(3) 0.2355(3)
H70_15 H 0.4295 0.2046 0.2400
H71_15 H 0.4477 0.2389 0.2550
H72_15 H 0.4468 0.2313 0.2084
C75_15 C 0.5194(5) 0.2781(3) 0.1311(3)
C76_15 C 0.5838(4) 0.1809(3) 0.0361(3)
F29_15 F 0.60836(24) 0.19965(20) 0.32032(19)
F30_15 F 0.60295(24) 0.19097(20) 0.25551(18)
F31_15 F 0.58654(28) 0.12964(24) 0.27153(19)
F32_15 F 0.58589(29) 0.13872(25) 0.33664(19)
O30_15 O 0.64912(32) 0.17658(26) 0.3215(2)
O31_15 O 0.53817(33) 0.13650(29) 0.2614(2)
O32_15 O 0.65828(33) 0.19819(27) 0.2587(3)
C77_15 C 0.6422(5) 0.1848(4) 0.2888(4)
N13_15 N 0.6698(4) 0.1101(3) 0.3509(3)
C78_15 C 0.5828(6) 0.1480(5) 0.2984(4)
C79_15 C 0.6330(6) 0.0560(4) 0.3479(3)
C80_15 C 0.6922(4) 0.1036(3) 0.3560(3)
C81_15 C 0.6844(5) 0.0720(4) 0.3581(3)
C82_15 C 0.6009(6) 0.0306(4) 0.3434(3)
H73_15 H 0.5972 0.0236 0.3156
H74_15 H 0.5870 0.0378 0.3507
H75_15 H 0.5975 0.0139 0.3610
C83_15 C 0.5505(6) 0.1448(5) 0.2941(4)
C84_15 C 0.7087(6) 0.0632(4) 0.3640(3)
H76_15 H 0.7125 0.0628 0.3927
H77_15 H 0.7274 0.0780 0.3507
H78_15 H 0.7017 0.0431 0.3525
C85_15 C 0.7241(5) 0.1291(4) 0.3596(3)
H79_15 H 0.7264 0.1466 0.3446
H80_15 H 0.7379 0.1228 0.3487
H81_15 H 0.7289 0.1346 0.3878
C86_15 C 0.6160(4) 0.0959(3) 0.3400(3)
H82_15 H 0.6250 0.1176 0.3447
H83_15 H 0.5991 0.0848 0.3585
H84_15 H 0.6086 0.0912 0.3124
C87_15 C 0.6099(5) 0.1813(4) 0.2907(3)
C88_15 C 0.6397(4) 0.0865(3) 0.3469(3)
N15_15 N 0.6219(4) 0.1751(3) 0.1717(3)
N16_15 N 0.5619(4) 0.1617(4) 0.1663(3)
C89_15 C 0.6074(4) 0.1215(4) 0.1816(3)
H85_15 H 0.6259 0.1266 0.1667
H86_15 H 0.5910 0.1020 0.1724
H87_15 H 0.6109 0.1205 0.2102
C90_15 C 0.5989(5) 0.1461(4) 0.1742(3)
C91_15 C 0.5764(5) 0.2155(4) 0.1563(4)
H88_15 H 0.5827 0.2239 0.1294
H89_15 H 0.5866 0.2315 0.1762
H90_15 H 0.5544 0.2066 0.1589
C92_15 C 0.5419(4) 0.1062(4) 0.1762(4)
H91_15 H 0.5228 0.1063 0.1788
H92_15 H 0.5449 0.0967 0.1999
H93_15 H 0.5412 0.0948 0.1523
C93_15 C 0.6411(5) 0.2301(4) 0.1622(4)
H94_15 H 0.6452 0.2403 0.1882
H95_15 H 0.6358 0.2411 0.1427
H96_15 H 0.6592 0.2299 0.1530
C94_15 C 0.6151(5) 0.1979(4) 0.1662(4)
C95_15 C 0.5684(4) 0.1392(4) 0.1725(3)
C96_15 C 0.5847(5) 0.1912(4) 0.1631(4)
Ag2_15 Ag 0.48387(3) 0.16533(2) 0.90660(3)
Ag6_15 Ag 0.48097(3) 0.16236(2) 0.99737(3)
O1_15 O 0.5315(4) 0.3215(2) 0.9226(3)
F2_15 F 0.38362(21) 0.07135(14) 0.9786(2)
F3_15 F 0.37934(20) 0.07731(14) 0.91265(18)
F4_15 F 0.52825(21) 0.26840(15) 0.91385(19)
F5_15 F 0.46748(20) 0.25371(14) 0.9028(2)
F10_15 F 0.47559(21) 0.25989(15) 0.83738(19)
F16_15 F 0.42256(21) 0.04945(14) 0.9631(2)
O5_15 O 0.47299(26) 0.20430(19) 0.9003(2)
F18_15 F 0.53685(22) 0.27956(16) 0.84955(19)
O7_12 O 0.37392(31) 0.00879(18) 0.8889(2)
O8_15 O 0.48607(25) 0.21296(17) 0.8336(2)
O10_15 O 0.36024(27) 0.00908(18) 0.9544(2)
O13_15 O 0.43380(25) 0.12708(18) 0.9144(2)
O20_15 O 0.44212(26) 0.11531(18) 0.9783(2)
N4_15 N 0.5283(3) 0.1656(2) 0.9084(3)
H1_15 H 0.5395 0.2068 0.9938
H2_15 H 0.5645 0.2418 0.9891
F28_15 F 0.42488(20) 0.06210(14) 0.89844(18)
C12_15 C 0.5543(4) 0.1913(3) 0.9062(3)
C14_15 C 0.4854(4) 0.2525(3) 0.8719(3)
C15_15 C 0.4981(4) 0.1092(3) 0.9190(4)
H16_15 H 0.4843 0.1092 0.8987
H17_15 H 0.5014 0.0921 0.9143
H18_15 H 0.4894 0.1074 0.9456
C20_15 C 0.5219(4) 0.3103(2) 0.8886(3)
C26_15 C 0.5825(4) 0.1923(3) 0.9106(3)
C33_15 C 0.3765(5) 0.0201(3) 0.9231(4)
C34_15 C 0.5529(4) 0.2201(3) 0.8955(3)
H22_15 H 0.5320 0.2158 0.8974
H23_15 H 0.5657 0.2364 0.9141
H24_15 H 0.5603 0.2263 0.8681
N10_15 N 0.4924(3) 0.2118(2) 0.9951(3)
C40_15 C 0.5180(4) 0.2778(3) 0.8809(3)
C41_15 C 0.5575(4) 0.1101(4) 0.9233(3)
H28_15 H 0.5488 0.0974 0.8995
H29_15 H 0.5459 0.0992 0.9470
H30_15 H 0.5786 0.1150 0.9264
C42_15 C 0.5280(4) 0.1383(3) 0.9164(3)
C44_15 C 0.4815(4) 0.2199(3) 0.8678(3)
C47_15 C 0.4059(4) 0.0521(2) 0.9308(3)
C49_15 C 0.4696(3) 0.2179(2) 0.9928(3)
C51_15 C 0.4279(4) 0.1106(3) 0.9446(3)
C53_15 C 0.5565(4) 0.1391(4) 0.9185(3)
C55_15 C 0.4380(3) 0.1917(2) 0.9870(3)
H41_15 H 0.4233 0.1983 0.9927
H42_15 H 0.4355 0.1845 0.9593
C56_15 C 0.4758(3) 0.2484(2) 0.9977(3)
C57_15 C 0.6129(4) 0.2212(3) 0.9100(3)
H43_15 H 0.6185 0.2281 0.8824
H44_15 H 0.6116 0.2368 0.9256
H45_15 H 0.6282 0.2174 0.9219
C59_15 C 0.3986(3) 0.0780(2) 0.9430(3)
C66_15 C 0.4505(3) 0.2562(2) 0.9958(3)
H58_15 H 0.4423 0.2529 0.9686
H61_15 H 0.5646 0.3054 0.9886
Ag17_12 Ag 0.35473(4) 0.00740(2) 0.81354(2)
N19_12 N 0.4397(4) 0.1166(2) 0.8187(3)
Ag1_15 Ag 0.31546(3) 0.98271(2) 0.05680(3)
F7_15 F 0.29554(20) 0.87705(14) 0.05084(19)
O3_15 O 0.30246(25) 0.93279(17) 0.0475(2)
F14_15 F 0.22267(22) 0.97806(15) 0.14973(19)
F19_15 F 0.21292(20) 0.96931(14) 0.08393(19)
F24_15 F 0.35629(26) 0.92230(21) 0.06235(18)
O14_15 O 0.26718(25) 0.97353(18) 0.0740(2)
O15_15 O 0.27960(25) 0.98839(18) 0.1392(2)
N6_15 N 0.3314(3) 0.9417(2) 0.1438(3)
C7_15 C 0.1677(5) 0.9484(3) 0.2565(4)
H13_15 H 0.1506 0.9487 0.2437
H14_15 H 0.1685 0.9305 0.2476
H15_15 H 0.1651 0.9476 0.2857
C11_15 C 0.3102(4) 0.9247(2) 0.0156(3)
C17_15 C 0.2638(3) 0.9822(2) 0.1075(3)
C22_15 C 0.2246(4) 0.9771(3) 0.2395(3)
C27_15 C 0.2356(3) 0.9873(2) 0.1119(3)
C28_15 C 0.3504(5) 0.8751(4) 0.0372(4)
C35_15 C 0.3136(4) 0.8958(2) 0.0198(3)
C36_15 C 0.3857(4) 0.9811(2) 0.1535(3)
H25_15 H 0.3934 0.9854 0.1810
H26_15 H 0.4021 0.9846 0.1352
H27_15 H 0.3777 0.9943 0.1463
C43_15 C 0.3662(4) 0.9235(3) 0.1550(3)
C45_15 C 0.3990(4) 0.9297(3) 0.1622(3)
H31_15 H 0.4102 0.9356 0.1369
H32_15 H 0.4092 0.9462 0.1816
H33_15 H 0.3983 0.9115 0.1726
C48_15 C 0.3603(4) 0.9478(2) 0.1504(3)
C52_15 C 0.3148(4) 0.8884(3) 0.1461(3)
C60_15 C 0.2760(3) 0.9060(2) 0.1361(3)
H46_15 H 0.2766 0.9250 0.1297
H47_15 H 0.2664 0.8916 0.1142
H48_15 H 0.2645 0.8976 0.1609
C62_15 C 0.2261(4) 0.9477(3) 0.2417(3)
H49_15 H 0.2432 0.9510 0.2584
H50_15 H 0.2074 0.9316 0.2533
H51_15 H 0.2287 0.9418 0.2147
C63_15 C 0.2898(5) 0.8549(4) 0.1438(3)
H52_15 H 0.2973 0.8421 0.1549
H53_15 H 0.2722 0.8519 0.1593
H54_15 H 0.2839 0.8493 0.1158
C64_15 C 0.3087(3) 0.9122(2) 0.1419(3)
C70_15 C 0.3849(4) 0.9973(3) 0.0447(3)
H64_15 H 0.3765 0.9902 0.0179
H65_15 H 0.4053 1.0000 0.0463
H66_15 H 0.3719 0.9824 0.0646
C71_15 C 0.1972(5) 0.9770(3) 0.2451(3)
C72_15 C 0.3465(5) 0.9032(4) 0.0300(4)
F12_15 F 0.30398(20) 0.87927(14) 0.98506(18)
F17_15 F 0.36519(26) 0.91938(21) 0.99749(19)
O17_15 O 0.31726(26) 0.93683(19) 0.9819(2)
Ag18_12 Ag 0.33084(4) 0.95867(2) 0.88690(3)
O33_12 O 0.29092(31) 0.96976(18) 0.8886(2)
F32_16 F 0.19462(25) 0.11384(14) 0.00330(19)
N13_16 N 0.2233(3) 0.2264(2) 0.0175(3)
C79_16 C 0.2774(4) 0.2437(4) 0.0145(3)
C80_16 C 0.2298(3) 0.2553(2) 0.0226(3)
C81_16 C 0.2614(4) 0.2791(3) 0.0247(3)
C82_16 C 0.3028(4) 0.2370(4) 0.0100(3)
H74_16 H 0.2956 0.2159 0.0173
H75_16 H 0.3195 0.2503 0.0276
C84_16 C 0.2702(4) 0.3122(4) 0.0306(3)
H76_16 H 0.2706 0.3164 0.0593
H77_16 H 0.2554 0.3161 0.0173
H78_16 H 0.2903 0.3253 0.0191
C85_16 C 0.2043(4) 0.2617(3) 0.0262(3)
H79_16 H 0.1868 0.2465 0.0112
H80_16 H 0.2106 0.2818 0.0153
H81_16 H 0.1988 0.2610 0.0544
C86_16 C 0.2375(3) 0.1868(2) 0.0066(3)
H82_16 H 0.2158 0.1741 0.0113
H83_16 H 0.2486 0.1810 0.0251
C88_16 C 0.2469(3) 0.2199(2) 0.0135(3)
Ag3_16 Ag 0.18426(2) 0.01976(2) 0.90647(3)
Ag8_16 Ag 0.20920(2) 0.00296(2) 0.74295(3)
Ag9_16 Ag 0.18492(2) 0.03215(2) 0.81695(3)
F7_16 F 0.45629(14) 0.08516(14) 0.71750(19)
F8_16 F 0.14223(15) 0.05607(14) 0.66686(19)
F12_16 F 0.45407(14) 0.09138(14) 0.65172(18)
O3_16 O 0.40055(17) 0.03634(18) 0.7141(2)
F15_16 F 0.28825(15) 0.03763(15) 0.8785(2)
F16_16 F 0.28389(14) 0.03978(15) 0.6297(2)
F17_16 F 0.41396(21) 0.11248(15) 0.66415(19)
F20_16 F 0.13546(15) 0.04823(15) 0.7323(2)
F21_16 F 0.20295(15) 0.09831(14) 0.68007(19)
F24_16 F 0.41104(21) 0.10066(15) 0.72901(18)
O10_16 O 0.32426(18) 0.0178(2) 0.6210(2)
F26_16 F 0.27983(15) 0.02989(15) 0.81293(19)
O16_16 O 0.23248(18) 0.03060(18) 0.8877(2)
O17_16 O 0.39651(19) 0.04710(18) 0.6485(2)
O19_16 O 0.22393(19) 0.0212(2) 0.8206(2)
N4_16 N 0.1678(2) 0.0294(2) 0.5750(3)
O22_11 O 0.14130(25) 0.10311(18) 0.7418(3)
N5_16 N 0.2522(2) 0.0005(2) 0.7310(3)
O23_16 O 0.18701(19) 0.03734(19) 0.6763(2)
N6_16 N 0.3917(2) 0.0564(2) 0.8104(3)
O24_16 O 0.1994(2) 0.0437(2) 0.7421(2)
F27_16 F 0.19600(15) 0.09423(14) 0.74492(18)
N7_11 N 0.1676(3) 0.0840(2) 0.5836(2)
F28_16 F 0.27124(14) 0.02945(14) 0.56510(18)
C4_16 C 0.3061(3) 0.0258(2) 0.7197(3)
C6_16 C 0.1155(3) 0.0057(3) 0.9280(3)
H10_16 H 0.1348 0.0223 0.9181
H11_16 H 0.0988 0.0065 0.9149
H12_16 H 0.1143 0.0077 0.9570
C8_16 C 0.1915(3) 0.0504(3) 0.7091(3)
O27_11 O 0.14738(25) 0.11045(18) 0.6740(2)
C11_16 C 0.4087(2) 0.0522(3) 0.6822(3)
C12_16 C 0.1421(3) 0.0297(3) 0.5728(3)
C15_16 C 0.2242(3) 0.0556(3) 0.5856(4)
H16_16 H 0.2242 0.0418 0.5653
H17_16 H 0.2413 0.0760 0.5809
H18_16 H 0.2260 0.0487 0.6122
C18_16 C 0.1865(3) 0.0784(3) 0.7095(3)
C21_16 C 0.2787(2) 0.0266(2) 0.7241(3)
C24_16 C 0.2380(2) 0.0243(2) 0.8523(3)
C26_16 C 0.1411(3) 0.0569(3) 0.5772(3)
C28_16 C 0.4583(4) 0.1420(3) 0.7038(4)
C29_16 C 0.2661(2) 0.0194(2) 0.8495(3)
C33_16 C 0.3133(3) 0.0231(4) 0.5897(4)
H24_16 H 0.1071 0.0007 0.5347
C35_16 C 0.4376(2) 0.0845(3) 0.6864(3)
C36_16 C 0.3523(2) 0.0713(3) 0.8201(3)
H25_16 H 0.3480 0.0747 0.8476
H26_16 H 0.3488 0.0842 0.8018
H27_16 H 0.3391 0.0501 0.8129
C41_16 C 0.2233(4) 0.1141(2) 0.5899(3)
H28_16 H 0.2360 0.1181 0.5661
H29_16 H 0.2342 0.1134 0.6136
H30_16 H 0.2184 0.1303 0.5930
C42_16 C 0.1951(3) 0.0564(3) 0.5830(3)
C43_16 C 0.4099(3) 0.1094(2) 0.8216(3)
C45_16 C 0.4037(3) 0.1360(2) 0.8288(3)
H31_16 H 0.3978 0.1413 0.8035
H32_16 H 0.3872 0.1297 0.8482
H33_16 H 0.4219 0.1535 0.8392
C47_16 C 0.2813(2) 0.0205(3) 0.5974(3)
C48_16 C 0.3856(2) 0.0792(3) 0.8170(3)
C50_16 C 0.1460(4) 0.0976(3) 0.7059(4)
C52_16 C 0.4450(3) 0.0931(2) 0.8127(3)
C53_16 C 0.1943(4) 0.0841(2) 0.5851(3)
C57_16 C 0.1122(3) 0.0584(3) 0.5766(3)
H43_16 H 0.1053 0.0571 0.5490
H44_16 H 0.0966 0.0415 0.5922
H45_16 H 0.1160 0.0775 0.5885
C60_16 C 0.4274(2) 0.0367(2) 0.8027(3)
H46_16 H 0.4084 0.0183 0.7963
H47_16 H 0.4418 0.0415 0.7808
H48_16 H 0.4358 0.0336 0.8275
C63_16 C 0.4785(4) 0.1016(3) 0.8104(3)
H52_16 H 0.4913 0.1219 0.8215
H53_16 H 0.4815 0.0870 0.8259
H54_16 H 0.4841 0.1013 0.7824
C64_16 C 0.4212(2) 0.0632(2) 0.8085(3)
C70_16 C 0.3361(3) 0.0543(3) 0.7113(3)
H64_16 H 0.3432 0.0530 0.6845
H65_16 H 0.3334 0.0720 0.7129
H66_16 H 0.3510 0.0562 0.7312
C72_16 C 0.4302(4) 0.1100(3) 0.6966(4)
C73_16 C 0.2776(3) 0.0562(2) 0.7205(3)
H67_16 H 0.2801 0.0652 0.7471
H68_16 H 0.2940 0.0703 0.7030
H69_16 H 0.2581 0.0518 0.7092
C76_16 C 0.1525(3) 0.0696(3) 0.7027(3)
F29_16 F 0.13369(20) 0.07538(14) 0.98698(19)
F30_16 F 0.14237(20) 0.07865(14) 0.92217(18)
F31_16 F 0.20370(24) 0.12357(14) 0.93819(19)
O30_16 O 0.15676(26) 0.13921(19) 0.9881(2)
O31_16 O 0.19684(29) 0.06834(16) 0.9280(2)
O32_16 O 0.13515(27) 0.12676(19) 0.9253(3)
C77_16 C 0.1486(4) 0.1241(3) 0.9554(4)
C78_16 C 0.1854(5) 0.1015(3) 0.9650(4)
H73_16 H 0.3098 0.2403 0.9822
C83_16 C 0.1886(5) 0.0724(3) 0.9607(4)
H84_16 H 0.2422 0.1841 0.9790
C87_16 C 0.1521(4) 0.0953(3) 0.9573(3)
N15_16 N 0.1583(3) 0.1135(2) 0.8383(3)
N16_16 N 0.1717(4) 0.0669(2) 0.8329(3)
C89_16 C 0.2119(4) 0.1526(2) 0.8482(3)
H85_16 H 0.2068 0.1660 0.8333
H86_16 H 0.2314 0.1557 0.8390
H87_16 H 0.2129 0.1571 0.8768
C90_16 C 0.1873(4) 0.1195(3) 0.8408(3)
C91_16 C 0.1179(4) 0.0276(3) 0.8229(4)
H88_16 H 0.1095 0.0255 0.7960
H89_16 H 0.1019 0.0218 0.8428
H90_16 H 0.1268 0.0145 0.8255
C92_16 C 0.2272(4) 0.1024(2) 0.8428(4)
H91_16 H 0.2271 0.0832 0.8454
H92_16 H 0.2367 0.1149 0.8665
H93_16 H 0.2386 0.1131 0.8189
C93_16 C 0.1033(4) 0.0777(3) 0.8288(4)
H94_16 H 0.0931 0.0716 0.8548
H95_16 H 0.0923 0.0614 0.8093
H96_16 H 0.1035 0.0960 0.8196
C94_16 C 0.1355(4) 0.0839(3) 0.8328(4)
C95_16 C 0.1942(4) 0.0959(2) 0.8391(3)
C96_16 C 0.1422(4) 0.0602(3) 0.8297(4)
O41_11 O 0.10628(28) 0.15717(34) 0.8296(2)
N20_11 N 0.0793(2) 0.1644(3) 0.9161(3)
Ag1_16 Ag 0.35063(2) 0.99942(2) 0.72346(3)
Ag2_16 Ag 0.16801(2) 0.98521(2) 0.57326(3)
Ag6_16 Ag 0.17098(2) 0.98528(2) 0.66403(3)
O1_16 O 0.0119(2) 0.8767(3) 0.5892(3)
F1_16 F 0.30342(16) 0.89525(22) 0.73559(19)
F2_16 F 0.26199(14) 0.97894(15) 0.6452(2)
F3_16 F 0.25603(14) 0.96870(14) 0.57931(18)
F4_16 F 0.06494(15) 0.92652(15) 0.58051(19)
F5_16 F 0.07963(14) 0.88044(14) 0.5694(2)
F6_16 F 0.09287(14) 0.95346(14) 0.83076(19)
F9_16 F 0.10352(15) 0.91247(15) 0.7509(2)
F10_16 F 0.07345(15) 0.88237(14) 0.50404(19)
F11_16 F 0.23924(14) 0.96857(15) 0.82655(19)
F13_16 F 0.08669(15) 0.95720(14) 0.7653(2)
F14_16 F 0.35528(15) 0.91128(16) 0.81639(19)
O4_16 O 0.03827(18) 0.90109(25) 0.7670(2)
O5_16 O 0.12904(19) 0.93536(18) 0.5669(2)
F18_16 F 0.05378(16) 0.92396(15) 0.51621(19)
F19_16 F 0.36403(14) 0.91028(14) 0.75059(19)
N1_16 N 0.1400(2) 0.9757(2) 0.9098(3)
F22_16 F 0.24318(14) 0.97719(15) 0.89306(19)
F23_16 F 0.11732(15) 0.91622(15) 0.81443(19)
N2_16 N 0.3065(2) 0.9994(2) 0.7255(3)
O8_16 O 0.12038(17) 0.93978(18) 0.5002(2)
O13_16 O 0.20626(18) 0.97339(18) 0.5810(2)
O14_16 O 0.35981(18) 0.96032(18) 0.7406(2)
F25_16 F 0.29454(14) 0.89080(20) 0.80156(19)
O15_16 O 0.34495(18) 0.95788(17) 0.8058(2)
O18_16 O 0.30278(18) 0.99015(18) 0.8255(2)
O20_16 O 0.21803(18) 0.99348(19) 0.6449(2)
C1_16 C 0.1395(3) 0.9490(3) 0.9023(3)
C2_16 C 0.1062(3) 0.9864(2) 0.6712(3)
H1_16 H 0.1266 0.9994 0.6604
H2_16 H 0.0916 0.9894 0.6557
H3_16 H 0.1057 0.9917 0.6993
O25_6 O 0.05090(19) 0.89372(28) 0.8296(2)
O26_16 O 0.1529(2) 0.9807(2) 0.8019(3)
C3_16 C 0.2809(3) 0.9447(2) 0.7418(3)
H4_16 H 0.2801 0.9414 0.7708
H5_16 H 0.2636 0.9275 0.7291
H6_16 H 0.2997 0.9467 0.7311
N9_16 N 0.3301(2) 0.9140(2) 0.8978(3)
C5_16 C 0.1687(3) 0.9510(3) 0.8884(4)
H7_16 H 0.1856 0.9665 0.9040
H8_16 H 0.1676 0.9315 0.8923
H9_16 H 0.1719 0.9564 0.8600
C7_16 C 0.3850(3) 0.8860(4) 0.9231(4)
H13_16 H 0.3847 0.8686 0.9103
H14_16 H 0.4029 0.9047 0.9142
H15_16 H 0.3858 0.8842 0.9523
C9_16 C 0.2799(3) 0.9734(2) 0.7332(3)
C10_16 C 0.3040(3) 0.8873(3) 0.8943(3)
C13_16 C 0.1129(3) 0.9314(3) 0.7840(3)
C14_16 C 0.0809(3) 0.8996(3) 0.5385(3)
C16_16 C 0.3081(2) 0.8558(3) 0.7714(3)
C17_16 C 0.3512(2) 0.9483(2) 0.7741(3)
C19_16 C 0.3127(2) 0.8893(3) 0.7704(3)
C20_16 C 0.0231(2) 0.8783(4) 0.5552(3)
C22_16 C 0.3563(3) 0.9142(3) 0.9061(3)
C23_16 C 0.2592(2) 0.9871(2) 0.8568(3)
C25_16 C 0.2745(3) 0.8288(3) 0.8928(3)
H19_16 H 0.2775 0.8125 0.9033
H20_16 H 0.2579 0.8290 0.9071
H21_16 H 0.2697 0.8254 0.8642
C27_16 C 0.3461(2) 0.9150(2) 0.7785(3)
C30_16 C 0.2521(2) 0.9737(2) 0.7347(3)
C31_16 C 0.0856(2) 0.9474(3) 0.9200(3)
C32_16 C 0.2873(3) 0.9816(2) 0.8565(3)
C34_16 C 0.1133(3) 0.9995(3) 0.5621(3)
H22_16 H 0.1176 0.9829 0.5640
H23_16 H 0.0970 0.9960 0.5807
C37_16 C 0.1115(3) 0.9208(2) 0.9072(3)
C38_16 C 0.1136(3) 0.9754(3) 0.9186(3)
C39_16 C 0.0981(2) 0.9531(3) 0.6684(3)
N10_16 N 0.1216(2) 0.9473(2) 0.6617(3)
C40_16 C 0.0556(3) 0.9069(3) 0.5475(3)
C44_16 C 0.1135(3) 0.9283(2) 0.5344(3)
C46_16 C 0.2216(2) 0.9446(2) 0.7402(3)
H34_16 H 0.2161 0.9328 0.7153
H35_16 H 0.2231 0.9326 0.7620
H36_16 H 0.2060 0.9498 0.7467
N11_16 N 0.0620(2) 0.9000(3) 0.6702(3)
C49_16 C 0.1155(2) 0.9184(2) 0.6594(3)
O28_16 O 0.1589(2) 0.9609(2) 0.7458(3)
C51_16 C 0.2228(3) 0.9840(3) 0.6112(3)
N12_6 N 0.0852(2) 0.9207(2) 0.9161(3)
C54_16 C 0.0557(3) 0.9461(3) 0.9275(3)
H37_16 H 0.0515 0.9562 0.9056
H38_16 H 0.0395 0.9249 0.9290
H39_16 H 0.0567 0.9562 0.9528
C55_16 C 0.1417(2) 0.9130(2) 0.6536(3)
H40_16 H 0.1581 0.9260 0.6718
H41_16 H 0.1351 0.8917 0.6593
H42_16 H 0.1489 0.9177 0.6259
C56_16 C 0.0850(2) 0.8941(2) 0.6643(3)
C58_16 C 0.1449(3) 0.9609(3) 0.7753(4)
C59_16 C 0.2554(2) 0.9873(2) 0.6096(3)
C61_16 C 0.0684(2) 0.9295(3) 0.6723(3)
C62_16 C 0.3857(3) 0.9451(3) 0.9083(3)
H49_16 H 0.3824 0.9589 0.9250
H50_16 H 0.4018 0.9425 0.9199
H51_16 H 0.3916 0.9536 0.8813
C65_16 C 0.2743(3) 0.8879(3) 0.8889(3)
H55_16 H 0.2786 0.9070 0.8762
H56_16 H 0.2604 0.8710 0.8719
H57_16 H 0.2649 0.8862 0.9151
C66_16 C 0.0772(2) 0.8610(2) 0.6624(3)
H58_16 H 0.0805 0.8561 0.6352
H59_16 H 0.0902 0.8578 0.6811
H60_16 H 0.0560 0.8479 0.6698
C67_16 C 0.0419(2) 0.9346(3) 0.6779(3)
H61_16 H 0.0280 0.9259 0.6552
H62_16 H 0.0312 0.9248 0.7027
H63_16 H 0.0492 0.9563 0.6794
C68_16 C 0.3037(3) 0.8593(3) 0.8986(3)
C69_16 C 0.0872(3) 0.9379(3) 0.7942(4)
C71_16 C 0.3564(3) 0.8869(4) 0.9117(3)
C74_16 C 0.1090(3) 0.8897(3) 0.9021(3)
H70_16 H 0.1288 0.8916 0.9066
H71_16 H 0.0945 0.8755 0.9216
H72_16 H 0.1021 0.8822 0.8750
C75_16 C 0.0553(3) 0.9080(4) 0.7977(3)
O40_6 O 0.96182(31) 0.85870(25) 0.7418(3)
N18_6 N 0.9165(4) 0.8324(3) 0.5836(2)
O42_6 O 0.96308(31) 0.85262(25) 0.6740(2)
Ag1_17 Ag 0.00058(2) 0.35120(3) 0.72346(3)
Ag2_17 Ag 0.01479(2) 0.18279(3) 0.57326(3)
Ag6_17 Ag 0.01472(2) 0.18569(3) 0.66403(3)
O1_17 O 0.1233(3) 0.1351(4) 0.5892(3)
F1_17 F 0.10475(22) 0.40816(27) 0.73559(19)
F2_17 F 0.02106(15) 0.28304(21) 0.6452(2)
F3_17 F 0.03130(14) 0.28732(20) 0.57931(18)
F4_17 F 0.07348(15) 0.13841(21) 0.58051(19)
F5_17 F 0.11956(14) 0.19918(20) 0.5694(2)
F6_17 F 0.04654(14) 0.13940(20) 0.83076(19)
F9_17 F 0.08753(15) 0.19104(21) 0.7509(2)
F10_17 F 0.11763(14) 0.19107(21) 0.50404(19)
F11_17 F 0.03143(15) 0.27066(21) 0.82655(19)
F13_17 F 0.04280(14) 0.12948(21) 0.7653(2)
F14_17 F 0.08872(16) 0.44399(22) 0.81639(19)
O4_17 O 0.09891(25) 0.13717(31) 0.7670(2)
O5_17 O 0.06464(18) 0.19367(26) 0.5669(2)
F18_17 F 0.07604(15) 0.12981(22) 0.51621(19)
F19_17 F 0.08972(14) 0.45374(20) 0.75059(19)
N1_17 N 0.0243(2) 0.1642(3) 0.9098(3)
F22_17 F 0.02281(15) 0.26598(21) 0.89306(19)
F23_17 F 0.08378(15) 0.20109(21) 0.81443(19)
N2_17 N 0.0006(2) 0.3070(3) 0.7255(3)
O8_17 O 0.06022(18) 0.18059(25) 0.5002(2)
O13_17 O 0.02661(18) 0.23286(25) 0.5810(2)
O14_17 O 0.03968(18) 0.39948(25) 0.7406(2)
F25_17 F 0.10920(20) 0.40373(24) 0.80156(19)
O15_17 O 0.04212(17) 0.38706(25) 0.8058(2)
O18_17 O 0.00985(18) 0.31262(25) 0.8255(2)
O20_17 O 0.00652(19) 0.22454(26) 0.6449(2)
C1_17 C 0.0510(3) 0.1904(4) 0.9023(3)
C2_17 C 0.0136(2) 0.1197(4) 0.6712(3)
H1_17 H 0.0006 0.1271 0.6604
H2_17 H 0.0106 0.1021 0.6557
H3_17 H 0.0083 0.1139 0.6993
O26_17 O 0.0193(2) 0.1721(3) 0.8019(3)
C3_17 C 0.0553(2) 0.3361(4) 0.7418(3)
H4_17 H 0.0586 0.3386 0.7708
H5_17 H 0.0725 0.3360 0.7291
H6_17 H 0.0533 0.3529 0.7311
N9_17 N 0.0860(2) 0.4160(3) 0.8978(3)
C5_17 C 0.0490(3) 0.2176(4) 0.8884(4)
H7_17 H 0.0335 0.2190 0.9040
H8_17 H 0.0685 0.2360 0.8923
H9_17 H 0.0436 0.2154 0.8600
C7_17 C 0.1140(4) 0.4989(5) 0.9231(4)
H13_17 H 0.1314 0.5160 0.9103
H14_17 H 0.0953 0.4981 0.9142
H15_17 H 0.1158 0.5015 0.9523
C9_17 C 0.0266(2) 0.3064(4) 0.7332(3)
C10_17 C 0.1127(3) 0.4166(4) 0.8943(3)
C13_17 C 0.0686(3) 0.1814(4) 0.7840(3)
C14_17 C 0.1004(3) 0.1812(4) 0.5385(3)
C16_17 C 0.1442(3) 0.4522(4) 0.7714(3)
C17_17 C 0.0517(2) 0.4028(3) 0.7741(3)
C19_17 C 0.1107(3) 0.4233(4) 0.7704(3)
C20_17 C 0.1217(4) 0.1447(4) 0.5552(3)
C22_17 C 0.0858(3) 0.4420(4) 0.9061(3)
C23_17 C 0.0129(2) 0.2720(3) 0.8568(3)
C25_17 C 0.1712(3) 0.4456(4) 0.8928(3)
H19_17 H 0.1875 0.4649 0.9033
H20_17 H 0.1710 0.4288 0.9071
H21_17 H 0.1746 0.4442 0.8642
C27_17 C 0.0850(2) 0.4310(3) 0.7785(3)
C30_17 C 0.0263(2) 0.2783(3) 0.7347(3)
C31_17 C 0.0526(3) 0.1381(4) 0.9200(3)
C32_17 C 0.0184(2) 0.3056(4) 0.8565(3)
C34_17 C 0.0005(3) 0.1137(4) 0.5621(3)
H22_17 H 0.0171 0.1346 0.5640
H23_17 H 0.0040 0.1009 0.5807
C37_17 C 0.0792(2) 0.1906(4) 0.9072(3)
C38_17 C 0.0246(3) 0.1381(4) 0.9186(3)
C39_17 C 0.0469(3) 0.1449(4) 0.6684(3)
N10_17 N 0.0527(2) 0.1742(3) 0.6617(3)
C40_17 C 0.0931(3) 0.1486(4) 0.5475(3)
C44_17 C 0.0717(2) 0.1851(4) 0.5344(3)
C46_17 C 0.0554(2) 0.2769(3) 0.7402(3)
H34_17 H 0.0672 0.2832 0.7153
H35_17 H 0.0674 0.2904 0.7620
H36_17 H 0.0502 0.2561 0.7467
N11_17 N 0.1000(3) 0.1619(4) 0.6702(3)
C49_17 C 0.0816(2) 0.1970(3) 0.6594(3)
O28_17 O 0.0391(2) 0.1979(3) 0.7458(3)
C51_17 C 0.0160(3) 0.2387(4) 0.6112(3)
C54_17 C 0.0539(3) 0.1095(4) 0.9275(3)
H37_17 H 0.0438 0.0952 0.9056
H38_17 H 0.0751 0.1145 0.9290
H39_17 H 0.0438 0.1004 0.9528
C55_17 C 0.0870(2) 0.2286(3) 0.6536(3)
H40_17 H 0.0740 0.2320 0.6718
H41_17 H 0.1083 0.2433 0.6593
H42_17 H 0.0823 0.2311 0.6259
C56_17 C 0.1059(2) 0.1908(3) 0.6643(3)
C58_17 C 0.0391(3) 0.1839(4) 0.7753(4)
C59_17 C 0.0127(2) 0.2680(3) 0.6096(3)
C61_17 C 0.0705(3) 0.1388(4) 0.6723(3)
C62_17 C 0.0549(3) 0.4405(4) 0.9083(3)
H49_17 H 0.0411 0.4234 0.9250
H50_17 H 0.0575 0.4592 0.9199
H51_17 H 0.0464 0.4379 0.8813
C65_17 C 0.1121(3) 0.3863(4) 0.8889(3)
H55_17 H 0.0930 0.3715 0.8762
H56_17 H 0.1290 0.3893 0.8719
H57_17 H 0.1138 0.3786 0.9151
C66_17 C 0.1390(2) 0.2161(3) 0.6624(3)
H58_17 H 0.1439 0.2243 0.6352
H59_17 H 0.1422 0.2323 0.6811
H60_17 H 0.1521 0.2080 0.6698
C67_17 C 0.0654(3) 0.1072(4) 0.6779(3)
H61_17 H 0.0741 0.1020 0.6552
H62_17 H 0.0752 0.1063 0.7027
H63_17 H 0.0437 0.0928 0.6794
C68_17 C 0.1407(3) 0.4443(4) 0.8986(3)
C69_17 C 0.0621(3) 0.1492(4) 0.7942(4)
C71_17 C 0.1131(4) 0.4694(5) 0.9117(3)
C74_17 C 0.1103(3) 0.2192(4) 0.9021(3)
H70_17 H 0.1084 0.2371 0.9066
H71_17 H 0.1245 0.2189 0.9216
H72_17 H 0.1178 0.2198 0.8750
C75_17 C 0.0920(4) 0.1472(5) 0.7977(3)
F32_17 F 0.88616(14) 0.08077(29) 0.00330(19)
C79_17 C 0.7563(4) 0.0336(6) 0.0145(3)
C82_17 C 0.7630(4) 0.0657(6) 0.0100(3)
H74_17 H 0.7841 0.0796 0.0173
H75_17 H 0.7497 0.0691 0.0276
C86_17 C 0.8132(2) 0.0506(4) 0.0066(3)
H82_17 H 0.8259 0.0416 0.0113
H83_17 H 0.8190 0.0675 0.0251
C88_17 C 0.7801(2) 0.0269(4) 0.0135(3)
Ag3_17 Ag 0.98024(2) 0.16449(3) 0.90647(3)
Ag8_17 Ag 0.99704(2) 0.20623(3) 0.74295(3)
Ag9_17 Ag 0.96785(2) 0.15276(3) 0.81695(3)
F7_17 F 0.91484(14) 0.37112(20) 0.71750(19)
F8_17 F 0.94393(14) 0.08615(21) 0.66686(19)
F12_17 F 0.90862(14) 0.36268(20) 0.65172(18)
O3_17 O 0.96366(18) 0.36420(25) 0.7141(2)
F15_17 F 0.96237(15) 0.25061(21) 0.8785(2)
F16_17 F 0.96022(15) 0.24410(21) 0.6297(2)
F17_17 F 0.88752(15) 0.30147(26) 0.66415(19)
F20_17 F 0.95177(15) 0.08722(21) 0.7323(2)
F21_17 F 0.90169(14) 0.10463(21) 0.68007(19)
F24_17 F 0.89934(15) 0.31037(26) 0.72901(18)
O10_17 O 0.9822(2) 0.30642(27) 0.6210(2)
F26_17 F 0.97011(15) 0.24993(21) 0.81293(19)
O16_17 O 0.96940(18) 0.20187(25) 0.8877(2)
O17_17 O 0.95290(18) 0.34940(26) 0.6485(2)
O19_17 O 0.9788(2) 0.20269(28) 0.8206(2)
N4_17 N 0.9706(2) 0.1383(3) 0.5750(3)
O22_12 O 0.89689(18) 0.03818(31) 0.7418(3)
N5_17 N 0.9995(2) 0.2516(3) 0.7310(3)
O23_17 O 0.96266(19) 0.14966(27) 0.6763(2)
N6_17 N 0.9436(2) 0.3352(3) 0.8104(3)
O24_17 O 0.9563(2) 0.1556(3) 0.7421(2)
F27_17 F 0.90577(14) 0.10176(21) 0.74492(18)
N7_12 N 0.9160(2) 0.0835(4) 0.5836(2)
F28_17 F 0.97055(14) 0.24178(20) 0.56510(18)
C4_17 C 0.9742(2) 0.2802(4) 0.7197(3)
C6_17 C 0.9943(3) 0.1097(4) 0.9280(3)
H10_17 H 0.9777 0.1124 0.9181
H11_17 H 0.9935 0.0922 0.9149
H12_17 H 0.9923 0.1065 0.9570
C8_17 C 0.9496(3) 0.1410(4) 0.7091(3)
O27_12 O 0.88955(18) 0.03692(31) 0.6740(2)
C11_17 C 0.9478(3) 0.3564(4) 0.6822(3)
C12_17 C 0.9703(3) 0.1123(4) 0.5728(3)
C15_17 C 0.9444(3) 0.1685(4) 0.5856(4)
H16_17 H 0.9582 0.1823 0.5653
H17_17 H 0.9240 0.1652 0.5809
H18_17 H 0.9513 0.1772 0.6122
C18_17 C 0.9216(3) 0.1080(4) 0.7095(3)
C21_17 C 0.9734(2) 0.2520(3) 0.7241(3)
C24_17 C 0.9757(2) 0.2136(3) 0.8523(3)
C26_17 C 0.9431(3) 0.0841(4) 0.5772(3)
C28_17 C 0.8580(3) 0.3162(5) 0.7038(4)
C29_17 C 0.9806(2) 0.2466(3) 0.8495(3)
C33_17 C 0.9769(4) 0.2901(5) 0.5897(4)
H24_17 H 0.9993 0.1063 0.5347
C35_17 C 0.9155(3) 0.3530(4) 0.6864(3)
C36_17 C 0.9287(3) 0.2809(4) 0.8201(3)
H25_17 H 0.9253 0.2732 0.8476
H26_17 H 0.9158 0.2645 0.8018
H27_17 H 0.9499 0.2889 0.8129
C41_17 C 0.8859(2) 0.1091(4) 0.5899(3)
H28_17 H 0.8819 0.1178 0.5661
H29_17 H 0.8866 0.1207 0.6136
H30_17 H 0.8697 0.0880 0.5930
C42_17 C 0.9436(3) 0.1386(4) 0.5830(3)
C43_17 C 0.8906(2) 0.3004(4) 0.8216(3)
C45_17 C 0.8640(2) 0.2676(4) 0.8288(3)
H31_17 H 0.8587 0.2564 0.8035
H32_17 H 0.8703 0.2574 0.8482
H33_17 H 0.8465 0.2683 0.8392
C47_17 C 0.9795(3) 0.2607(4) 0.5974(3)
C48_17 C 0.9208(3) 0.3063(4) 0.8170(3)
C50_17 C 0.9024(3) 0.0483(5) 0.7059(4)
C52_17 C 0.9069(2) 0.3518(4) 0.8127(3)
C53_17 C 0.9159(2) 0.1101(4) 0.5851(3)
C57_17 C 0.9416(3) 0.0537(4) 0.5766(3)
H43_17 H 0.9429 0.0481 0.5490
H44_17 H 0.9585 0.0550 0.5922
H45_17 H 0.9225 0.0384 0.5885
C60_17 C 0.9633(2) 0.3906(3) 0.8027(3)
H46_17 H 0.9817 0.3900 0.7963
H47_17 H 0.9585 0.4002 0.7808
H48_17 H 0.9664 0.4021 0.8275
C63_17 C 0.8984(3) 0.3768(5) 0.8104(3)
H52_17 H 0.8781 0.3693 0.8215
H53_17 H 0.9130 0.3944 0.8259
H54_17 H 0.8987 0.3827 0.7824
C64_17 C 0.9368(2) 0.3579(3) 0.8085(3)
C70_17 C 0.9457(3) 0.2817(4) 0.7113(3)
H64_17 H 0.9470 0.2901 0.6845
H65_17 H 0.9280 0.2613 0.7129
H66_17 H 0.9438 0.2947 0.7312
C72_17 C 0.8900(3) 0.3201(5) 0.6966(4)
C73_17 C 0.9438(2) 0.2213(4) 0.7205(3)
H67_17 H 0.9348 0.2148 0.7471
H68_17 H 0.9297 0.2236 0.7030
H69_17 H 0.9482 0.2062 0.7092
C76_17 C 0.9304(3) 0.0828(4) 0.7027(3)
F29_17 F 0.92462(14) 0.05830(24) 0.98698(19)
F30_17 F 0.92135(14) 0.06371(24) 0.92217(18)
F31_17 F 0.87643(14) 0.08012(28) 0.93819(19)
O30_17 O 0.86079(19) 0.01754(32) 0.9881(2)
O31_17 O 0.93166(16) 0.12849(33) 0.9280(2)
O32_17 O 0.87324(19) 0.00838(33) 0.9253(3)
C77_17 C 0.8759(3) 0.0244(5) 0.9554(4)
C78_17 C 0.8985(3) 0.0838(6) 0.9650(4)
H73_17 H 0.7597 0.0694 0.9822
C83_17 C 0.9276(3) 0.1161(6) 0.9607(4)
H84_17 H 0.8159 0.0580 0.9790
C87_17 C 0.9047(3) 0.0567(5) 0.9573(3)
N15_17 N 0.8865(2) 0.0447(4) 0.8383(3)
N16_17 N 0.9331(2) 0.1047(4) 0.8329(3)
C89_17 C 0.8474(2) 0.0592(4) 0.8482(3)
H85_17 H 0.8340 0.0407 0.8333
H86_17 H 0.8443 0.0756 0.8390
H87_17 H 0.8429 0.0557 0.8768
C90_17 C 0.8805(3) 0.0677(5) 0.8408(3)
C91_17 C 0.9724(3) 0.0902(5) 0.8229(4)
H88_17 H 0.9745 0.0839 0.7960
H89_17 H 0.9782 0.0800 0.8428
H90_17 H 0.9855 0.1122 0.8255
C92_17 C 0.8976(2) 0.1247(4) 0.8428(4)
H91_17 H 0.9168 0.1438 0.8454
H92_17 H 0.8851 0.1217 0.8665
H93_17 H 0.8869 0.1254 0.8189
C93_17 C 0.9223(3) 0.0255(5) 0.8288(4)
H94_17 H 0.9284 0.0214 0.8548
H95_17 H 0.9386 0.0308 0.8093
H96_17 H 0.9040 0.0074 0.8196
C94_17 C 0.9161(3) 0.0515(5) 0.8328(4)
C95_17 C 0.9041(2) 0.0982(4) 0.8391(3)
C96_17 C 0.9398(3) 0.0819(5) 0.8297(4)
N13_17 N 0.7736(2) 0.9968(4) 0.0175(3)
C80_17 C 0.7447(2) 0.9744(4) 0.0226(3)
C81_17 C 0.7209(3) 0.9822(5) 0.0247(3)
C84_17 C 0.6878(4) 0.9579(6) 0.0306(3)
H76_17 H 0.6836 0.9541 0.0593
H77_17 H 0.6839 0.9392 0.0173
H78_17 H 0.6747 0.9649 0.0191
C85_17 C 0.7383(3) 0.9425(5) 0.0262(3)
H79_17 H 0.7535 0.9402 0.0112
H80_17 H 0.7182 0.9287 0.0153
H81_17 H 0.7390 0.9377 0.0544
O41_12 O 0.84283(34) 0.94910(44) 0.8296(2)
N20_12 N 0.8356(3) 0.9148(4) 0.9161(3)
N13_18 N 0.0032(4) 0.7767(3) 0.0175(3)
C80_18 C 0.0256(4) 0.7702(3) 0.0226(3)
C81_18 C 0.0178(5) 0.7386(4) 0.0247(3)
C84_18 C 0.0421(6) 0.7298(4) 0.0306(3)
H76_18 H 0.0459 0.7294 0.0593
H77_18 H 0.0608 0.7446 0.0173
H78_18 H 0.0351 0.7097 0.0191
C85_18 C 0.0575(5) 0.7957(4) 0.0262(3)
H79_18 H 0.0598 0.8132 0.0112
H80_18 H 0.0713 0.7894 0.0153
H81_18 H 0.0623 0.8012 0.0544
F32_18 F 0.91923(29) 0.80538(25) 0.00330(19)
C79_18 C 0.9664(6) 0.7226(4) 0.0145(3)
C82_18 C 0.9343(6) 0.6972(4) 0.0100(3)
H74_18 H 0.9204 0.7044 0.0173
H75_18 H 0.9309 0.6805 0.0276
C86_18 C 0.9494(4) 0.7625(3) 0.0066(3)
H82_18 H 0.9584 0.7842 0.0113
H83_18 H 0.9325 0.7514 0.0251
C88_18 C 0.9731(4) 0.7531(3) 0.0135(3)
Ag1_18 Ag 0.64880(3) 0.64937(2) 0.72346(3)
Ag2_18 Ag 0.81721(3) 0.83199(2) 0.57326(3)
Ag3_18 Ag 0.83551(3) 0.81574(2) 0.90647(3)
Ag6_18 Ag 0.81431(3) 0.82902(2) 0.66403(3)
Ag8_18 Ag 0.79377(3) 0.79080(2) 0.74295(3)
Ag9_18 Ag 0.84724(3) 0.81508(2) 0.81695(3)
O1_18 O 0.8649(4) 0.9881(2) 0.5892(3)
F1_18 F 0.59184(27) 0.69658(16) 0.73559(19)
F2_18 F 0.71696(21) 0.73801(14) 0.6452(2)
F3_18 F 0.71268(20) 0.74397(14) 0.57931(18)
F4_18 F 0.86159(21) 0.93506(15) 0.58051(19)
F5_18 F 0.80082(20) 0.92037(14) 0.5694(2)
F6_18 F 0.86060(20) 0.90713(14) 0.83076(19)
F7_18 F 0.62888(20) 0.54371(14) 0.71750(19)
F8_18 F 0.91385(21) 0.85777(15) 0.66686(19)
F9_18 F 0.80896(21) 0.89648(15) 0.7509(2)
F10_18 F 0.80893(21) 0.92655(15) 0.50404(19)
F11_18 F 0.72934(21) 0.76076(14) 0.82655(19)
F12_18 F 0.63732(20) 0.54593(14) 0.65172(18)
O3_18 O 0.63580(25) 0.59945(17) 0.7141(2)
F13_18 F 0.87052(21) 0.91331(15) 0.7653(2)
F14_18 F 0.55601(22) 0.64472(15) 0.81639(19)
O4_18 O 0.86283(31) 0.96173(18) 0.7670(2)
F15_18 F 0.74939(21) 0.71175(15) 0.8785(2)
F16_18 F 0.75590(21) 0.71611(14) 0.6297(2)
F17_18 F 0.69853(26) 0.58604(21) 0.66415(19)
O5_18 O 0.80633(26) 0.87096(19) 0.5669(2)
F18_18 F 0.87019(22) 0.94622(16) 0.51621(19)
F19_18 F 0.54626(20) 0.63597(14) 0.75059(19)
N1_18 N 0.8358(3) 0.8600(2) 0.9098(3)
F20_18 F 0.91278(21) 0.86454(15) 0.7323(2)
F21_18 F 0.89537(21) 0.79705(15) 0.68007(19)
F22_18 F 0.73402(21) 0.75682(14) 0.89306(19)
F23_18 F 0.79891(21) 0.88268(15) 0.81443(19)
F24_18 F 0.68963(26) 0.58896(21) 0.72901(18)
N2_18 N 0.6930(3) 0.6935(2) 0.7255(3)
O8_18 O 0.81941(25) 0.87962(17) 0.5002(2)
O10_18 O 0.69358(27) 0.67574(18) 0.6210(2)
O13_18 O 0.76714(25) 0.79374(18) 0.5810(2)
O14_18 O 0.60052(25) 0.64019(18) 0.7406(2)
F25_18 F 0.59627(24) 0.70546(14) 0.80156(19)
O15_18 O 0.61294(25) 0.65505(18) 0.8058(2)
F26_18 F 0.75007(21) 0.72017(15) 0.81293(19)
O16_18 O 0.79813(25) 0.76752(18) 0.8877(2)
O17_18 O 0.65060(26) 0.60349(19) 0.6485(2)
O18_18 O 0.68738(25) 0.69722(18) 0.8255(2)
O19_18 O 0.79731(28) 0.77607(19) 0.8206(2)
O20_18 O 0.77546(26) 0.78197(18) 0.6449(2)
C1_18 C 0.8096(4) 0.8605(3) 0.9023(3)
N4_18 N 0.8617(3) 0.8322(2) 0.5750(3)
C2_18 C 0.8803(4) 0.8938(3) 0.6712(3)
H1_18 H 0.8729 0.8734 0.6604
H2_18 H 0.8979 0.9084 0.6557
H3_18 H 0.8861 0.8943 0.6993
N5_18 N 0.7484(3) 0.7478(2) 0.7310(3)
O23_18 O 0.85034(27) 0.81299(19) 0.6763(2)
N6_18 N 0.6648(3) 0.6083(2) 0.8104(3)
O24_18 O 0.8444(3) 0.8006(2) 0.7421(2)
O26_18 O 0.8279(3) 0.8471(2) 0.8019(3)
F27_18 F 0.89824(21) 0.80400(15) 0.74492(18)
C3_18 C 0.6639(4) 0.7191(3) 0.7418(3)
H4_18 H 0.6614 0.7199 0.7708
H5_18 H 0.6640 0.7364 0.7291
H6_18 H 0.6471 0.7003 0.7311
F28_18 F 0.75822(20) 0.72876(14) 0.56510(18)
N9_18 N 0.5840(3) 0.6699(2) 0.8978(3)
C4_18 C 0.7198(4) 0.6939(3) 0.7197(3)
C5_18 C 0.7824(4) 0.8313(3) 0.8884(4)
H7_18 H 0.7810 0.8144 0.9040
H8_18 H 0.7640 0.8324 0.8923
H9_18 H 0.7846 0.8281 0.8600
C6_18 C 0.8903(4) 0.8845(3) 0.9280(3)
H10_18 H 0.8876 0.8652 0.9181
H11_18 H 0.9078 0.9012 0.9149
H12_18 H 0.8935 0.8857 0.9570
C7_18 C 0.5011(5) 0.6150(3) 0.9231(4)
H13_18 H 0.4840 0.6153 0.9103
H14_18 H 0.5019 0.5971 0.9142
H15_18 H 0.4985 0.6142 0.9523
C8_18 C 0.8590(4) 0.8085(3) 0.7091(3)
C9_18 C 0.6936(4) 0.7201(3) 0.7332(3)
C10_18 C 0.5834(4) 0.6960(3) 0.8943(3)
C11_18 C 0.6436(4) 0.5913(2) 0.6822(3)
C12_18 C 0.8877(4) 0.8579(3) 0.5728(3)
C13_18 C 0.8186(4) 0.8871(3) 0.7840(3)
C14_18 C 0.8188(4) 0.9191(3) 0.5385(3)
C15_18 C 0.8315(4) 0.7758(3) 0.5856(4)
H16_18 H 0.8177 0.7758 0.5653
H17_18 H 0.8348 0.7587 0.5809
H18_18 H 0.8228 0.7740 0.6122
C16_18 C 0.5478(4) 0.6919(2) 0.7714(3)
C17_18 C 0.5972(3) 0.6488(2) 0.7741(3)
C18_18 C 0.8920(4) 0.8135(3) 0.7095(3)
C19_18 C 0.5767(4) 0.6873(2) 0.7704(3)
C20_18 C 0.8553(4) 0.9769(2) 0.5552(3)
C21_18 C 0.7480(3) 0.7213(2) 0.7241(3)
C22_18 C 0.5580(4) 0.6437(3) 0.9061(3)
C23_18 C 0.7280(3) 0.7408(2) 0.8568(3)
C24_18 C 0.7864(3) 0.7620(2) 0.8523(3)
C25_18 C 0.5544(4) 0.7255(3) 0.8928(3)
H19_18 H 0.5351 0.7225 0.9033
H20_18 H 0.5712 0.7421 0.9071
H21_18 H 0.5558 0.7303 0.8642
C26_18 C 0.9159(4) 0.8589(3) 0.5772(3)
C27_18 C 0.5690(3) 0.6539(2) 0.7785(3)
C28_18 C 0.6838(5) 0.5417(4) 0.7038(4)
C29_18 C 0.7534(3) 0.7339(2) 0.8495(3)
C30_18 C 0.7217(3) 0.7479(2) 0.7347(3)
C31_18 C 0.8619(4) 0.9144(2) 0.9200(3)
C32_18 C 0.6944(4) 0.7127(3) 0.8565(3)
C33_18 C 0.7099(5) 0.6867(3) 0.5897(4)
C34_18 C 0.8863(4) 0.8867(3) 0.5621(3)
H22_18 H 0.8654 0.8824 0.5640
H23_18 H 0.8991 0.9030 0.5807
H24_18 H 0.8937 0.8929 0.5347
C35_18 C 0.6470(4) 0.5624(2) 0.6864(3)
C36_18 C 0.7191(4) 0.6477(2) 0.8201(3)
H25_18 H 0.7268 0.6520 0.8476
H26_18 H 0.7355 0.6512 0.8018
H27_18 H 0.7111 0.6609 0.8129
C37_18 C 0.8094(4) 0.8885(3) 0.9072(3)
C38_18 C 0.8619(4) 0.8864(3) 0.9186(3)
C39_18 C 0.8551(4) 0.9019(2) 0.6684(3)
N10_18 N 0.8258(3) 0.8784(2) 0.6617(3)
C40_18 C 0.8514(4) 0.9444(3) 0.5475(3)
C41_18 C 0.8909(4) 0.7767(4) 0.5899(3)
H28_18 H 0.8822 0.7640 0.5661
H29_18 H 0.8793 0.7658 0.6136
H30_18 H 0.9120 0.7816 0.5930
C42_18 C 0.8614(4) 0.8049(3) 0.5830(3)
C43_18 C 0.6996(4) 0.5901(3) 0.8216(3)
C44_18 C 0.8149(4) 0.8865(3) 0.5344(3)
C45_18 C 0.7324(4) 0.5963(3) 0.8288(3)
H31_18 H 0.7436 0.6022 0.8035
H32_18 H 0.7426 0.6128 0.8482
H33_18 H 0.7317 0.5781 0.8392
C46_18 C 0.7231(3) 0.7784(2) 0.7402(3)
H34_18 H 0.7168 0.7839 0.7153
H35_18 H 0.7096 0.7769 0.7620
H36_18 H 0.7439 0.7940 0.7467
C47_18 C 0.7393(4) 0.7187(2) 0.5974(3)
N11_18 N 0.8381(4) 0.9380(2) 0.6702(3)
C48_18 C 0.6937(4) 0.6144(2) 0.8170(3)
C49_18 C 0.8030(3) 0.8845(2) 0.6594(3)
O28_18 O 0.8021(3) 0.8411(2) 0.7458(3)
C50_18 C 0.9517(5) 0.8540(4) 0.7059(4)
C51_18 C 0.7613(4) 0.7772(3) 0.6112(3)
C52_18 C 0.6482(4) 0.5550(3) 0.8127(3)
C53_18 C 0.8899(4) 0.8057(4) 0.5851(3)
C54_18 C 0.8905(4) 0.9443(3) 0.9275(3)
H37_18 H 0.9048 0.9485 0.9056
H38_18 H 0.8855 0.9605 0.9290
H39_18 H 0.8996 0.9433 0.9528
C55_18 C 0.7714(3) 0.8583(2) 0.6536(3)
H40_18 H 0.7680 0.8419 0.6718
H41_18 H 0.7567 0.8649 0.6593
H42_18 H 0.7689 0.8511 0.6259
C56_18 C 0.8092(3) 0.9150(2) 0.6643(3)
C57_18 C 0.9463(4) 0.8878(3) 0.5766(3)
H43_18 H 0.9519 0.8947 0.5490
H44_18 H 0.9450 0.9034 0.5922
H45_18 H 0.9616 0.8840 0.5885
C58_18 C 0.8161(4) 0.8551(3) 0.7753(4)
C59_18 C 0.7320(3) 0.7446(2) 0.6096(3)
C60_18 C 0.6094(3) 0.5726(2) 0.8027(3)
H46_18 H 0.6100 0.5916 0.7963
H47_18 H 0.5998 0.5582 0.7808
H48_18 H 0.5979 0.5642 0.8275
C61_18 C 0.8612(4) 0.9316(2) 0.6723(3)
C62_18 C 0.5595(4) 0.6143(3) 0.9083(3)
H49_18 H 0.5766 0.6176 0.9250
H50_18 H 0.5408 0.5982 0.9199
H51_18 H 0.5621 0.6084 0.8813
C63_18 C 0.6232(5) 0.5215(4) 0.8104(3)
H52_18 H 0.6307 0.5087 0.8215
H53_18 H 0.6056 0.5185 0.8259
H54_18 H 0.6173 0.5159 0.7824
C64_18 C 0.6421(3) 0.5788(2) 0.8085(3)
C65_18 C 0.6137(4) 0.7257(3) 0.8889(3)
H55_18 H 0.6285 0.7214 0.8762
H56_18 H 0.6107 0.7396 0.8719
H57_18 H 0.6214 0.7351 0.9151
C66_18 C 0.7839(3) 0.9228(2) 0.6624(3)
H58_18 H 0.7757 0.9195 0.6352
H59_18 H 0.7677 0.9098 0.6811
H60_18 H 0.7920 0.9440 0.6698
C67_18 C 0.8928(4) 0.9581(2) 0.6779(3)
H61_18 H 0.8980 0.9720 0.6552
H62_18 H 0.8937 0.9688 0.7027
H63_18 H 0.9072 0.9508 0.6794
C68_18 C 0.5557(4) 0.6963(3) 0.8986(3)
C69_18 C 0.8508(4) 0.9128(3) 0.7942(4)
C70_18 C 0.7183(4) 0.6639(3) 0.7113(3)
H64_18 H 0.7099 0.6568 0.6845
H65_18 H 0.7387 0.6666 0.7129
H66_18 H 0.7053 0.6490 0.7312
C71_18 C 0.5306(5) 0.6436(3) 0.9117(3)
C72_18 C 0.6799(5) 0.5698(4) 0.6966(4)
C73_18 C 0.7787(4) 0.7224(3) 0.7205(3)
H67_18 H 0.7852 0.7199 0.7471
H68_18 H 0.7764 0.7060 0.7030
H69_18 H 0.7938 0.7419 0.7092
C74_18 C 0.7808(4) 0.8910(3) 0.9021(3)
H70_18 H 0.7629 0.8712 0.9066
H71_18 H 0.7811 0.9055 0.9216
H72_18 H 0.7802 0.8979 0.8750
C75_18 C 0.8528(5) 0.9447(3) 0.7977(3)
C76_18 C 0.9172(4) 0.8475(3) 0.7027(3)
F29_18 F 0.94170(24) 0.86631(20) 0.98698(19)
F30_18 F 0.93629(24) 0.85763(20) 0.92217(18)
F31_18 F 0.91988(28) 0.79630(24) 0.93819(19)
O30_18 O 0.98246(32) 0.84324(26) 0.9881(2)
O31_18 O 0.87151(33) 0.80316(29) 0.9280(2)
O32_18 O 0.99162(33) 0.86485(27) 0.9253(3)
C77_18 C 0.9756(5) 0.8514(4) 0.9554(4)
C78_18 C 0.9162(6) 0.8146(5) 0.9650(4)
H73_18 H 0.9306 0.6902 0.9822
C83_18 C 0.8839(6) 0.8114(5) 0.9607(4)
H84_18 H 0.9420 0.7578 0.9790
C87_18 C 0.9433(5) 0.8479(4) 0.9573(3)
N15_18 N 0.9553(4) 0.8417(3) 0.8383(3)
N16_18 N 0.8953(4) 0.8283(4) 0.8329(3)
C89_18 C 0.9408(4) 0.7881(4) 0.8482(3)
H85_18 H 0.9593 0.7932 0.8333
H86_18 H 0.9244 0.7686 0.8390
H87_18 H 0.9443 0.7871 0.8768
C90_18 C 0.9323(5) 0.8127(4) 0.8408(3)
C91_18 C 0.9098(5) 0.8821(4) 0.8229(4)
H88_18 H 0.9161 0.8905 0.7960
H89_18 H 0.9200 0.8981 0.8428
H90_18 H 0.8878 0.8732 0.8255
C92_18 C 0.8753(4) 0.7728(4) 0.8428(4)
H91_18 H 0.8562 0.7729 0.8454
H92_18 H 0.8783 0.7633 0.8665
H93_18 H 0.8746 0.7614 0.8189
C93_18 C 0.9745(5) 0.8967(4) 0.8288(4)
H94_18 H 0.9786 0.9069 0.8548
H95_18 H 0.9692 0.9077 0.8093
H96_18 H 0.9926 0.8965 0.8196
C94_18 C 0.9485(5) 0.8645(4) 0.8328(4)
C95_18 C 0.9018(4) 0.8058(4) 0.8391(3)
C96_18 C 0.9181(5) 0.8578(4) 0.8297(4)
loop_
_geom_bond_atom_site_label_1
_geom_bond_atom_site_label_2
_geom_bond_site_symmetry_1
_geom_bond_site_symmetry_2
Ag1 O3 1_555 1_555
Ag2 O5 1_555 1_555
Ag3 N1 1_555 1_555
Ag4 O15 1_555 1_555
Ag5 O2 1_555 1_555
Ag6 O20 1_555 1_555
Ag7 O10 1_555 1_555
Ag8 O19 1_555 1_555
Ag9 O19 1_555 1_555
Ag10 O8 1_555 1_555
O1 C20 1_555 1_555
F1 C19 1_555 1_555
F2 C59 1_555 1_555
F3 C59 1_555 1_555
F4 C40 1_555 1_555
F5 C14 1_555 1_555
F6 C69 1_555 1_555
F7 C35 1_555 1_555
F8 C76 1_555 1_555
F9 C13 1_555 1_555
F10 C14 1_555 1_555
F11 C23 1_555 1_555
O2 C32 1_555 1_555
F12 C35 1_555 1_555
O3 C11 1_555 1_555
F13 C69 1_555 1_555
F14 C27 1_555 1_555
O4 C75 1_555 1_555
F15 C29 1_555 1_555
F16 C47 1_555 1_555
F17 C72 1_555 1_555
O5 C44 1_555 1_555
F18 C40 1_555 1_555
F19 C27 1_555 1_555
N1 C1 1_555 1_555
F20 C76 1_555 1_555
F21 C18 1_555 1_555
F22 C23 1_555 1_555
F23 C13 1_555 1_555
O6 C28 1_555 1_555
F24 C72 1_555 1_555
N2 Ag1 1_555 1_555
O7 C33 1_555 1_555
O8 C44 1_555 1_555
O9 C20 1_555 1_555
O10 C33 1_555 1_555
O11 C16 1_555 1_555
O12 C16 1_555 1_555
O13 Ag2 1_555 1_555
O14 Ag1 1_555 1_555
F25 C19 1_555 1_555
O15 C17 1_555 1_555
F26 C29 1_555 1_555
O16 Ag3 1_555 1_555
N3 C68 1_555 1_555
O17 Ag7 1_555 1_555
O18 Ag4 1_555 1_555
O19 C24 1_555 1_555
O20 C51 1_555 1_555
C1 C5 1_555 1_555
O21 C28 1_555 1_555
N4 Ag2 1_555 1_555
C2 H1 1_555 1_555
H2 C2 1_555 1_555
H3 C2 1_555 1_555
O22 C50 1_555 1_555
N5 Ag8 1_555 1_555
O23 Ag6 1_555 1_555
N6 Ag4 1_555 1_555
O24 Ag8 1_555 1_555
O25 C75 1_555 1_555
O26 Ag9 1_555 1_555
F27 C18 1_555 1_555
N7 C26 1_555 1_555
C3 H4 1_555 1_555
H5 C3 1_555 1_555
H6 C3 1_555 1_555
N8 C43 1_555 1_555
F28 C47 1_555 1_555
N9 Ag5 1_555 1_555
C4 N2 1_555 1_555
C5 H7 1_555 1_555
H8 C5 1_555 1_555
H9 C5 1_555 1_555
C6 H10 1_555 1_555
H11 C6 1_555 1_555
H12 C6 1_555 1_555
C7 H13 1_555 1_555
H14 C7 1_555 1_555
H15 C7 1_555 1_555
C8 O23 1_555 1_555
O27 C50 1_555 1_555
C9 N2 1_555 1_555
C10 N9 1_555 1_555
C11 O17 1_555 1_555
C12 N4 1_555 1_555
C13 C58 1_555 1_555
C14 C40 1_555 1_555
C15 H16 1_555 1_555
H17 C15 1_555 1_555
H18 C15 1_555 1_555
C16 C19 1_555 1_555
C17 O14 1_555 1_555
C18 C8 1_555 1_555
C19 C27 1_555 1_555
C20 C40 1_555 1_555
C21 N5 1_555 1_555
C22 N9 1_555 1_555
C23 C29 1_555 1_555
C24 O16 1_555 1_555
C25 H19 1_555 1_555
H20 C25 1_555 1_555
H21 C25 1_555 1_555
C26 C12 1_555 1_555
C27 C17 1_555 1_555
C28 C72 1_555 1_555
C29 C24 1_555 1_555
C30 N5 1_555 1_555
C31 C38 1_555 1_555
C32 O18 1_555 1_555
C33 C47 1_555 1_555
C34 C12 1_555 1_555
H22 C34 1_555 1_555
H23 C34 1_555 1_555
H24 C34 1_555 1_555
C35 C11 1_555 1_555
C36 H25 1_555 1_555
H26 C36 1_555 1_555
H27 C36 1_555 1_555
C37 C1 1_555 1_555
C38 N1 1_555 1_555
C39 C2 1_555 1_555
N10 Ag6 1_555 1_555
C41 H28 1_555 1_555
H29 C41 1_555 1_555
H30 C41 1_555 1_555
C42 N4 1_555 1_555
C43 C45 1_555 1_555
C44 C14 1_555 1_555
C45 H31 1_555 1_555
H32 C45 1_555 1_555
H33 C45 1_555 1_555
C46 C30 1_555 1_555
H34 C46 1_555 1_555
H35 C46 1_555 1_555
H36 C46 1_555 1_555
C47 C59 1_555 1_555
N11 C56 1_555 1_555
C48 N6 1_555 1_555
C49 N10 1_555 1_555
O28 Ag8 1_555 1_555
C50 C76 1_555 1_555
C51 O13 1_555 1_555
N12 C31 1_555 1_555
C52 N8 1_555 1_555
C53 N7 1_555 1_555
C54 C31 1_555 1_555
H37 C54 1_555 1_555
H38 C54 1_555 1_555
H39 C54 1_555 1_555
C55 C49 1_555 1_555
H40 C55 1_555 1_555
H41 C55 1_555 1_555
H42 C55 1_555 1_555
C56 C49 1_555 1_555
C57 C26 1_555 1_555
H43 C57 1_555 1_555
H44 C57 1_555 1_555
H45 C57 1_555 1_555
C58 O26 1_555 1_555
C59 C51 1_555 1_555
C60 H46 1_555 1_555
H47 C60 1_555 1_555
H48 C60 1_555 1_555
C61 C39 1_555 1_555
C62 C22 1_555 1_555
H49 C62 1_555 1_555
H50 C62 1_555 1_555
H51 C62 1_555 1_555
C63 C52 1_555 1_555
H52 C63 1_555 1_555
H53 C63 1_555 1_555
H54 C63 1_555 1_555
C64 N6 1_555 1_555
C65 C10 1_555 1_555
H55 C65 1_555 1_555
H56 C65 1_555 1_555
H57 C65 1_555 1_555
C66 C56 1_555 1_555
H58 C66 1_555 1_555
H59 C66 1_555 1_555
H60 C66 1_555 1_555
C67 C61 1_555 1_555
H61 C67 1_555 1_555
H62 C67 1_555 1_555
H63 C67 1_555 1_555
C68 C10 1_555 1_555
C69 C13 1_555 1_555
C70 C4 1_555 1_555
H64 C70 1_555 1_555
H65 C70 1_555 1_555
H66 C70 1_555 1_555
C71 N3 1_555 1_555
C72 C35 1_555 1_555
C73 C21 1_555 1_555
H67 C73 1_555 1_555
H68 C73 1_555 1_555
H69 C73 1_555 1_555
C74 C37 1_555 1_555
H70 C74 1_555 1_555
H71 C74 1_555 1_555
H72 C74 1_555 1_555
C75 C69 1_555 1_555
C76 C18 1_555 1_555
Ag11 O32 1_555 1_555
Ag12 O30 1_555 1_555
F29 C87 1_555 1_555
F30 C87 1_555 1_555
F31 C78 1_555 1_555
F32 C78 1_555 1_555
O29 C83 1_555 1_555
O30 C77 1_555 1_555
O31 Ag3 1_555 1_555
O32 C77 1_555 1_555
C77 C87 1_555 1_555
N13 Ag12 1_555 1_555
N14 C79 1_555 1_555
C78 C83 1_555 1_555
C79 C82 1_555 1_555
C80 N13 1_555 1_555
C81 N14 1_555 1_555
C82 H73 1_555 1_555
H74 C82 1_555 1_555
H75 C82 1_555 1_555
C83 O31 1_555 1_555
C84 C81 1_555 1_555
H76 C84 1_555 1_555
H77 C84 1_555 1_555
H78 C84 1_555 1_555
C85 C80 1_555 1_555
H79 C85 1_555 1_555
H80 C85 1_555 1_555
H81 C85 1_555 1_555
C86 H82 1_555 1_555
H83 C86 1_555 1_555
H84 C86 1_555 1_555
C87 C78 1_555 1_555
C88 N13 1_555 1_555
Ag13 N15 1_555 1_555
N15 C90 1_555 1_555
N16 Ag9 1_555 1_555
C89 H85 1_555 1_555
H86 C89 1_555 1_555
H87 C89 1_555 1_555
C90 C89 1_555 1_555
C91 H88 1_555 1_555
H89 C91 1_555 1_555
H90 C91 1_555 1_555
C92 H91 1_555 1_555
H92 C92 1_555 1_555
H93 C92 1_555 1_555
C93 H94 1_555 1_555
H95 C93 1_555 1_555
H96 C93 1_555 1_555
C94 N15 1_555 1_555
C95 N16 1_555 1_555
C96 N16 1_555 1_555
Ag14 O1 1_555 1_555
Ag15 O4 1_555 1_555
Ag16 O1 1_555 1_555
Ag17 O7 1_555 1_555
Ag18 O7 1_555 1_555
Ag19 O2 1_555 1_555
Ag20 N14 1_555 1_555
Ag21 N8 1_555 1_555
Ag22 O9 1_555 1_555
O33 Ag7 1_555 1_555
O34 Ag14 1_555 1_555
O35 Ag4 1_555 1_555
O36 Ag10 1_555 1_555
O37 Ag13 1_555 1_555
O38 Ag11 1_555 1_555
N17 Ag15 1_555 1_555
O39 Ag16 1_555 1_555
O40 Ag15 1_555 1_555
O41 Ag13 1_555 1_555
N18 Ag14 1_555 1_555
N19 Ag10 1_555 1_555
O42 Ag16 1_555 1_555
N20 Ag11 1_555 1_555
Ag23 N12 1_555 1_555
Ag24 O12 1_555 1_555
Ag25 O29 1_555 1_555
Ag26 O12 1_555 1_555
Ag27 O29 1_555 1_555
O43 Ag11 1_555 1_555
N21 Ag7 1_555 1_555
Ag28 O25 1_555 1_555
Ag29 O11 1_555 1_555
Ag30 N7 1_555 1_555
Ag31 O6 1_555 1_555
Ag32 O22 1_555 1_555
Ag33 N3 1_555 1_555
Ag34 O27 1_555 1_555
Ag35 O21 1_555 1_555
Ag5 O35 1_555 1_555
Ag9 O24 1_555 1_555
O24 C8 1_555 1_555
C3 C9 1_555 1_555
C4 C21 1_555 1_555
C6 C38 1_555 1_555
C7 C71 1_555 1_555
C9 C30 1_555 1_555
C15 C42 1_555 1_555
C22 C71 1_555 1_555
C23 C32 1_555 1_555
C25 C68 1_555 1_555
C36 C48 1_555 1_555
C37 N12 1_555 1_555
C39 N10 1_555 1_555
C41 C53 1_555 1_555
C42 C53 1_555 1_555
C43 C48 1_555 1_555
N11 C61 1_555 1_555
N11 Ag16 1_555 1_555
O28 C58 1_555 1_555
C52 C64 1_555 1_555
C60 C64 1_555 1_555
Ag12 O38 1_555 1_555
Ag12 O43 1_555 1_555
C79 C88 1_555 1_555
C80 C81 1_555 1_555
C86 C88 1_555 1_555
C90 C95 1_555 1_555
C91 C96 1_555 1_555
C92 C95 1_555 1_555
C93 C94 1_555 1_555
C94 C96 1_555 1_555
Ag18 O33 1_555 1_555
Ag2_2 O5_2 1_555 1_555
Ag3_2 N1_2 1_555 1_555
Ag6_2 O20_2 1_555 1_555
Ag8_2 O19_2 1_555 1_555
Ag9_2 O19_2 1_555 1_555
Ag10_2 O8_2 1_555 1_555
O1_2 C20_2 1_555 1_555
F2_2 C59_2 1_555 1_555
F3_2 C59_2 1_555 1_555
F4_2 C40_2 1_555 1_555
F5_2 C14_2 1_555 1_555
F6_2 C69_2 1_555 1_555
F8_2 C76_2 1_555 1_555
F9_2 C13_2 1_555 1_555
F10_2 C14_2 1_555 1_555
F11_2 C23_2 1_555 1_555
O2_2 C32_2 1_555 1_555
F13_2 C69_2 1_555 1_555
O4_2 C75_2 1_555 1_555
F15_2 C29_2 1_555 1_555
F16_2 C47_2 1_555 1_555
F17_2 C72_2 1_555 1_555
O5_2 C44_2 1_555 1_555
F18_2 C40_2 1_555 1_555
N1_2 C1_2 1_555 1_555
F20_2 C76_2 1_555 1_555
F21_2 C18_2 1_555 1_555
F22_2 C23_2 1_555 1_555
F23_2 C13_2 1_555 1_555
O6_2 C28_2 1_555 1_555
F24_2 C72_2 1_555 1_555
O7_2 C33_2 1_555 1_555
O8_2 C44_2 1_555 1_555
O9_2 C20_2 1_555 1_555
O10_2 C33_2 1_555 1_555
O13_2 Ag2_2 1_555 1_555
F26_2 C29_2 1_555 1_555
O16_2 Ag3_2 1_555 1_555
O19_2 C24_2 1_555 1_555
O20_2 C51_2 1_555 1_555
C1_2 C5_2 1_555 1_555
O21_2 C28_2 1_555 1_555
N4_2 Ag2_2 1_555 1_555
C2_2 H1_2 1_555 1_555
H2_2 C2_2 1_555 1_555
H3_2 C2_2 1_555 1_555
O22_2 C50_2 1_555 1_555
N5_2 Ag8_2 1_555 1_555
O23_2 Ag6_2 1_555 1_555
O24_2 Ag8_2 1_555 1_555
O41 C75_2 1_555 1_555
O26_2 Ag9_2 1_555 1_555
F27_2 C18_2 1_555 1_555
N7_2 C26_2 1_555 1_555
N8_2 C43_2 1_555 1_555
F28_2 C47_2 1_555 1_555
C4_2 N2_2 1_555 1_555
C5_2 H7_2 1_555 1_555
H8_2 C5_2 1_555 1_555
H9_2 C5_2 1_555 1_555
C6_2 H10_2 1_555 1_555
H11_2 C6_2 1_555 1_555
H12_2 C6_2 1_555 1_555
C8_2 O23_2 1_555 1_555
O27_2 C50_2 1_555 1_555
C9_2 N2_2 1_555 1_555
C12_2 N4_2 1_555 1_555
C13_2 C58_2 1_555 1_555
C14_2 C40_2 1_555 1_555
C15_2 H16_2 1_555 1_555
H17_2 C15_2 1_555 1_555
H18_2 C15_2 1_555 1_555
C18_2 C8_2 1_555 1_555
C20_2 C40_2 1_555 1_555
C21_2 N5_2 1_555 1_555
C23_2 C29_2 1_555 1_555
C24_2 O16_2 1_555 1_555
C26_2 C12_2 1_555 1_555
C28_2 C72_2 1_555 1_555
C29_2 C24_2 1_555 1_555
C30_2 N5_2 1_555 1_555
C31_2 C38_2 1_555 1_555
C32_2 O18_2 1_555 1_555
C33_2 C47_2 1_555 1_555
C34_2 C12_2 1_555 1_555
H22_2 C34_2 1_555 1_555
H23_2 C34_2 1_555 1_555
H24_2 C34_2 1_555 1_555
C36_2 H25_2 1_555 1_555
H26_2 C36_2 1_555 1_555
H27_2 C36_2 1_555 1_555
C37_2 C1_2 1_555 1_555
C38_2 N1_2 1_555 1_555
C39_2 C2_2 1_555 1_555
N10_2 Ag6_2 1_555 1_555
C41_2 H28_2 1_555 1_555
H29_2 C41_2 1_555 1_555
H30_2 C41_2 1_555 1_555
C42_2 N4_2 1_555 1_555
C43_2 C45_2 1_555 1_555
C44_2 C14_2 1_555 1_555
C45_2 H31_2 1_555 1_555
H32_2 C45_2 1_555 1_555
H33_2 C45_2 1_555 1_555
C46_2 C30_2 1_555 1_555
H34_2 C46_2 1_555 1_555
H35_2 C46_2 1_555 1_555
H36_2 C46_2 1_555 1_555
C47_2 C59_2 1_555 1_555
N11_2 C56_2 1_555 1_555
C49_2 N10_2 1_555 1_555
O28_2 Ag8_2 1_555 1_555
C50_2 C76_2 1_555 1_555
C51_2 O13_2 1_555 1_555
N20 C31_2 1_555 1_555
C53_2 N7_2 1_555 1_555
C54_2 C31_2 1_555 1_555
H37_2 C54_2 1_555 1_555
H38_2 C54_2 1_555 1_555
H39_2 C54_2 1_555 1_555
C55_2 C49_2 1_555 1_555
H40_2 C55_2 1_555 1_555
H41_2 C55_2 1_555 1_555
H42_2 C55_2 1_555 1_555
C56_2 C49_2 1_555 1_555
C57_2 C26_2 1_555 1_555
H43_2 C57_2 1_555 1_555
H44_2 C57_2 1_555 1_555
H45_2 C57_2 1_555 1_555
C58_2 O26_2 1_555 1_555
C59_2 C51_2 1_555 1_555
C61_2 C39_2 1_555 1_555
C66_2 C56_2 1_555 1_555
H58_2 C66_2 1_555 1_555
H59_2 C66_2 1_555 1_555
H60_2 C66_2 1_555 1_555
C67_2 C61_2 1_555 1_555
H61_2 C67_2 1_555 1_555
H62_2 C67_2 1_555 1_555
H63_2 C67_2 1_555 1_555
C69_2 C13_2 1_555 1_555
C70_2 C4_2 1_555 1_555
H64_2 C70_2 1_555 1_555
H65_2 C70_2 1_555 1_555
H66_2 C70_2 1_555 1_555
C73_2 C21_2 1_555 1_555
H67_2 C73_2 1_555 1_555
H68_2 C73_2 1_555 1_555
H69_2 C73_2 1_555 1_555
C74_2 C37_2 1_555 1_555
H70_2 C74_2 1_555 1_555
H71_2 C74_2 1_555 1_555
H72_2 C74_2 1_555 1_555
C75_2 C69_2 1_555 1_555
C76_2 C18_2 1_555 1_555
Ag11_2 O32_2 1_555 1_555
Ag12_2 O30_2 1_555 1_555
F29_2 C87_2 1_555 1_555
F30_2 C87_2 1_555 1_555
F31_2 C78_2 1_555 1_555
F32_2 C78_2 1_555 1_555
O29_2 C83_2 1_555 1_555
O30_2 C77_2 1_555 1_555
O31_2 Ag3_2 1_555 1_555
O32_2 C77_2 1_555 1_555
C77_2 C87_2 1_555 1_555
N13_2 Ag12_2 1_555 1_555
N14_2 C79_2 1_555 1_555
C78_2 C83_2 1_555 1_555
C79_2 C82_2 1_555 1_555
C80_2 N13_2 1_555 1_555
C81_2 N14_2 1_555 1_555
C82_2 H73_2 1_555 1_555
H74_2 C82_2 1_555 1_555
H75_2 C82_2 1_555 1_555
C83_2 O31_2 1_555 1_555
C84_2 C81_2 1_555 1_555
H76_2 C84_2 1_555 1_555
H77_2 C84_2 1_555 1_555
H78_2 C84_2 1_555 1_555
C85_2 C80_2 1_555 1_555
H79_2 C85_2 1_555 1_555
H80_2 C85_2 1_555 1_555
H81_2 C85_2 1_555 1_555
C86_2 H82_2 1_555 1_555
H83_2 C86_2 1_555 1_555
H84_2 C86_2 1_555 1_555
C87_2 C78_2 1_555 1_555
C88_2 N13_2 1_555 1_555
Ag13_2 N15_2 1_555 1_555
N15_2 C90_2 1_555 1_555
N16_2 Ag9_2 1_555 1_555
C89_2 H85_2 1_555 1_555
H86_2 C89_2 1_555 1_555
H87_2 C89_2 1_555 1_555
C90_2 C89_2 1_555 1_555
C91_2 H88_2 1_555 1_555
H89_2 C91_2 1_555 1_555
H90_2 C91_2 1_555 1_555
C92_2 H91_2 1_555 1_555
H92_2 C92_2 1_555 1_555
H93_2 C92_2 1_555 1_555
C93_2 H94_2 1_555 1_555
H95_2 C93_2 1_555 1_555
H96_2 C93_2 1_555 1_555
C94_2 N15_2 1_555 1_555
C95_2 N16_2 1_555 1_555
C96_2 N16_2 1_555 1_555
Ag30 O1_2 1_555 1_555
Ag32 O4_2 1_555 1_555
Ag34 O1_2 1_555 1_555
Ag17_2 O7_2 1_555 1_555
Ag19_2 O2_2 1_555 1_555
Ag20_2 N14_2 1_555 1_555
Ag21_2 N8_2 1_555 1_555
Ag22_2 O9_2 1_555 1_555
O34_2 Ag30 1_555 1_555
O36_2 Ag10_2 1_555 1_555
O37_2 Ag13_2 1_555 1_555
O38_2 Ag11_2 1_555 1_555
N17_2 Ag32 1_555 1_555
O39_2 Ag34 1_555 1_555
O41_2 Ag13_2 1_555 1_555
N19_2 Ag10_2 1_555 1_555
N20_2 Ag11_2 1_555 1_555
Ag25_2 O29_2 1_555 1_555
Ag27_2 O29_2 1_555 1_555
O43_2 Ag11_2 1_555 1_555
Ag30_2 N7_2 1_555 1_555
Ag31_2 O6_2 1_555 1_555
Ag32_2 O22_2 1_555 1_555
Ag34_2 O27_2 1_555 1_555
Ag9_2 O24_2 1_555 1_555
O24_2 C8_2 1_555 1_555
C4_2 C21_2 1_555 1_555
C6_2 C38_2 1_555 1_555
C9_2 C30_2 1_555 1_555
C15_2 C42_2 1_555 1_555
C23_2 C32_2 1_555 1_555
C36_2 C48_2 1_555 1_555
C37_2 N20 1_555 1_555
C39_2 N10_2 1_555 1_555
C41_2 C53_2 1_555 1_555
C42_2 C53_2 1_555 1_555
C43_2 C48_2 1_555 1_555
N11_2 C61_2 1_555 1_555
N11_2 Ag34 1_555 1_555
O28_2 C58_2 1_555 1_555
Ag12_2 O38_2 1_555 1_555
Ag12_2 O43_2 1_555 1_555
C79_2 C88_2 1_555 1_555
C80_2 C81_2 1_555 1_555
C86_2 C88_2 1_555 1_555
C90_2 C95_2 1_555 1_555
C91_2 C96_2 1_555 1_555
C92_2 C95_2 1_555 1_555
C93_2 C94_2 1_555 1_555
C94_2 C96_2 1_555 1_555
Ag1_2 O3_2 1_555 1_555
Ag4_2 O15_2 1_555 1_555
F1_2 C19_2 1_555 1_555
F7_2 C35_2 1_555 1_555
F12_2 C35_2 1_555 1_555
O3_2 C11_2 1_555 1_555
F14_2 C27_2 1_555 1_555
F19_2 C27_2 1_555 1_555
O11_2 C16_2 1_555 1_555
O12_2 C16_2 1_555 1_555
O14_2 Ag1_2 1_555 1_555
F25_2 C19_2 1_555 1_555
O15_2 C17_2 1_555 1_555
N3_2 C68_2 1_555 1_555
O17_2 Ag7_2 1_555 1_555
N6_2 Ag4_2 1_555 1_555
C3_2 H4_2 1_555 1_555
H5_2 C3_2 1_555 1_555
H6_2 C3_2 1_555 1_555
N9_2 Ag5_2 1_555 1_555
C7_2 H13_2 1_555 1_555
H14_2 C7_2 1_555 1_555
H15_2 C7_2 1_555 1_555
C10_2 N9_2 1_555 1_555
C11_2 O17_2 1_555 1_555
C16_2 C19_2 1_555 1_555
C17_2 O14_2 1_555 1_555
C19_2 C27_2 1_555 1_555
C22_2 N9_2 1_555 1_555
C25_2 H19_2 1_555 1_555
H20_2 C25_2 1_555 1_555
H21_2 C25_2 1_555 1_555
C27_2 C17_2 1_555 1_555
C35_2 C11_2 1_555 1_555
C60_2 H46_2 1_555 1_555
H47_2 C60_2 1_555 1_555
H48_2 C60_2 1_555 1_555
C62_2 C22_2 1_555 1_555
H49_2 C62_2 1_555 1_555
H50_2 C62_2 1_555 1_555
H51_2 C62_2 1_555 1_555
C63_2 C52_2 1_555 1_555
H52_2 C63_2 1_555 1_555
H53_2 C63_2 1_555 1_555
H54_2 C63_2 1_555 1_555
C64_2 N6_2 1_555 1_555
C65_2 C10_2 1_555 1_555
H55_2 C65_2 1_555 1_555
H56_2 C65_2 1_555 1_555
H57_2 C65_2 1_555 1_555
C68_2 C10_2 1_555 1_555
C71_2 N3_2 1_555 1_555
O33_2 Ag7_2 1_555 1_555
O35_2 Ag4_2 1_555 1_555
Ag24_2 O12_2 1_555 1_555
Ag26_2 O12_2 1_555 1_555
N21_2 Ag7_2 1_555 1_555
Ag29_2 O11_2 1_555 1_555
Ag33_2 N3_2 1_555 1_555
Ag5_2 O35_2 1_555 1_555
C7_2 C71_2 1_555 1_555
C22_2 C71_2 1_555 1_555
C25_2 C68_2 1_555 1_555
C52_2 C64_2 1_555 1_555
C60_2 C64_2 1_555 1_555
Ag18_2 O33_2 1_555 1_555
Ag1_3 O3_3 1_555 1_555
Ag4_3 O15_3 1_555 1_555
F1_3 C19_3 1_555 1_555
F7_3 C35_3 1_555 1_555
F12_3 C35_3 1_555 1_555
O3_3 C11_3 1_555 1_555
F14_3 C27_3 1_555 1_555
F19_3 C27_3 1_555 1_555
O11_3 C16_3 1_555 1_555
O12_3 C16_3 1_555 1_555
O14_3 Ag1_3 1_555 1_555
F25_3 C19_3 1_555 1_555
O15_3 C17_3 1_555 1_555
N3_3 C68_3 1_555 1_555
O17_3 Ag7_3 1_555 1_555
N6_3 Ag4_3 1_555 1_555
C3_3 H4_3 1_555 1_555
H5_3 C3_3 1_555 1_555
H6_3 C3_3 1_555 1_555
N9_3 Ag5_3 1_555 1_555
C7_3 H13_3 1_555 1_555
H14_3 C7_3 1_555 1_555
H15_3 C7_3 1_555 1_555
C10_3 N9_3 1_555 1_555
C11_3 O17_3 1_555 1_555
C16_3 C19_3 1_555 1_555
C17_3 O14_3 1_555 1_555
C19_3 C27_3 1_555 1_555
C22_3 N9_3 1_555 1_555
C25_3 H19_3 1_555 1_555
H20_3 C25_3 1_555 1_555
H21_3 C25_3 1_555 1_555
C27_3 C17_3 1_555 1_555
C35_3 C11_3 1_555 1_555
C60_3 H46_3 1_555 1_555
H47_3 C60_3 1_555 1_555
H48_3 C60_3 1_555 1_555
C62_3 C22_3 1_555 1_555
H49_3 C62_3 1_555 1_555
H50_3 C62_3 1_555 1_555
H51_3 C62_3 1_555 1_555
C63_3 C52_3 1_555 1_555
H52_3 C63_3 1_555 1_555
H53_3 C63_3 1_555 1_555
H54_3 C63_3 1_555 1_555
C64_3 N6_3 1_555 1_555
C65_3 C10_3 1_555 1_555
H55_3 C65_3 1_555 1_555
H56_3 C65_3 1_555 1_555
H57_3 C65_3 1_555 1_555
C68_3 C10_3 1_555 1_555
C71_3 N3_3 1_555 1_555
O33_3 Ag7_3 1_555 1_555
O35_3 Ag4_3 1_555 1_555
Ag24_3 O12_3 1_555 1_555
Ag26_3 O12_3 1_555 1_555
N21_3 Ag7_3 1_555 1_555
Ag29_3 O11_3 1_555 1_555
Ag33_3 N3_3 1_555 1_555
Ag5_3 O35_3 1_555 1_555
C7_3 C71_3 1_555 1_555
C22_3 C71_3 1_555 1_555
C25_3 C68_3 1_555 1_555
C52_3 C64_3 1_555 1_555
C60_3 C64_3 1_555 1_555
Ag18_3 O33_3 1_555 1_555
Ag2_3 O5_3 1_555 1_555
Ag3_3 N1_3 1_555 1_555
Ag6_3 O20_3 1_555 1_555
Ag8_3 O19_3 1_555 1_555
Ag9_3 O19_3 1_555 1_555
Ag10_3 O8_3 1_555 1_555
O1_3 C20_3 1_555 1_555
F2_3 C59_3 1_555 1_555
F3_3 C59_3 1_555 1_555
F4_3 C40_3 1_555 1_555
F5_3 C14_3 1_555 1_555
F6_3 C69_3 1_555 1_555
F8_3 C76_3 1_555 1_555
F9_3 C13_3 1_555 1_555
F10_3 C14_3 1_555 1_555
F11_3 C23_3 1_555 1_555
O2_3 C32_3 1_555 1_555
F13_3 C69_3 1_555 1_555
O4_3 C75_3 1_555 1_555
F15_3 C29_3 1_555 1_555
F16_3 C47_3 1_555 1_555
F17_3 C72_3 1_555 1_555
O5_3 C44_3 1_555 1_555
F18_3 C40_3 1_555 1_555
N1_3 C1_3 1_555 1_555
F20_3 C76_3 1_555 1_555
F21_3 C18_3 1_555 1_555
F22_3 C23_3 1_555 1_555
F23_3 C13_3 1_555 1_555
O6_3 C28_3 1_555 1_555
F24_3 C72_3 1_555 1_555
O7_3 C33_3 1_555 1_555
O8_3 C44_3 1_555 1_555
O9_3 C20_3 1_555 1_555
O10_3 C33_3 1_555 1_555
O13_3 Ag2_3 1_555 1_555
F26_3 C29_3 1_555 1_555
O16_3 Ag3_3 1_555 1_555
O19_3 C24_3 1_555 1_555
O20_3 C51_3 1_555 1_555
C1_3 C5_3 1_555 1_555
O21_3 C28_3 1_555 1_555
N4_3 Ag2_3 1_555 1_555
C2_3 H1_3 1_555 1_555
H2_3 C2_3 1_555 1_555
H3_3 C2_3 1_555 1_555
O40 C50_3 1_555 1_555
N5_3 Ag8_3 1_555 1_555
O23_3 Ag6_3 1_555 1_555
O24_3 Ag8_3 1_555 1_555
O41_2 C75_3 1_555 1_555
O26_3 Ag9_3 1_555 1_555
F27_3 C18_3 1_555 1_555
N18 C26_3 1_555 1_555
N8_3 C43_3 1_555 1_555
F28_3 C47_3 1_555 1_555
C4_3 N2_3 1_555 1_555
C5_3 H7_3 1_555 1_555
H8_3 C5_3 1_555 1_555
H9_3 C5_3 1_555 1_555
C6_3 H10_3 1_555 1_555
H11_3 C6_3 1_555 1_555
H12_3 C6_3 1_555 1_555
C8_3 O23_3 1_555 1_555
O42 C50_3 1_555 1_555
C9_3 N2_3 1_555 1_555
C12_3 N4_3 1_555 1_555
C13_3 C58_3 1_555 1_555
C14_3 C40_3 1_555 1_555
C15_3 H16_3 1_555 1_555
H17_3 C15_3 1_555 1_555
H18_3 C15_3 1_555 1_555
C18_3 C8_3 1_555 1_555
C20_3 C40_3 1_555 1_555
C21_3 N5_3 1_555 1_555
C23_3 C29_3 1_555 1_555
C24_3 O16_3 1_555 1_555
C26_3 C12_3 1_555 1_555
C28_3 C72_3 1_555 1_555
C29_3 C24_3 1_555 1_555
C30_3 N5_3 1_555 1_555
C31_3 C38_3 1_555 1_555
C32_3 O18_3 1_555 1_555
C33_3 C47_3 1_555 1_555
C34_3 C12_3 1_555 1_555
H22_3 C34_3 1_555 1_555
H23_3 C34_3 1_555 1_555
H24_3 C34_3 1_555 1_555
C36_3 H25_3 1_555 1_555
H26_3 C36_3 1_555 1_555
H27_3 C36_3 1_555 1_555
C37_3 C1_3 1_555 1_555
C38_3 N1_3 1_555 1_555
C39_3 C2_3 1_555 1_555
N10_3 Ag6_3 1_555 1_555
C41_3 H28_3 1_555 1_555
H29_3 C41_3 1_555 1_555
H30_3 C41_3 1_555 1_555
C42_3 N4_3 1_555 1_555
C43_3 C45_3 1_555 1_555
C44_3 C14_3 1_555 1_555
C45_3 H31_3 1_555 1_555
H32_3 C45_3 1_555 1_555
H33_3 C45_3 1_555 1_555
C46_3 C30_3 1_555 1_555
H34_3 C46_3 1_555 1_555
H35_3 C46_3 1_555 1_555
H36_3 C46_3 1_555 1_555
C47_3 C59_3 1_555 1_555
N11_3 C56_3 1_555 1_555
C49_3 N10_3 1_555 1_555
O28_3 Ag8_3 1_555 1_555
C50_3 C76_3 1_555 1_555
C51_3 O13_3 1_555 1_555
N20_2 C31_3 1_555 1_555
C53_3 N18 1_555 1_555
C54_3 C31_3 1_555 1_555
H37_3 C54_3 1_555 1_555
H38_3 C54_3 1_555 1_555
H39_3 C54_3 1_555 1_555
C55_3 C49_3 1_555 1_555
H40_3 C55_3 1_555 1_555
H41_3 C55_3 1_555 1_555
H42_3 C55_3 1_555 1_555
C56_3 C49_3 1_555 1_555
C57_3 C26_3 1_555 1_555
H43_3 C57_3 1_555 1_555
H44_3 C57_3 1_555 1_555
H45_3 C57_3 1_555 1_555
C58_3 O26_3 1_555 1_555
C59_3 C51_3 1_555 1_555
C61_3 C39_3 1_555 1_555
C66_3 C56_3 1_555 1_555
H58_3 C66_3 1_555 1_555
H59_3 C66_3 1_555 1_555
H60_3 C66_3 1_555 1_555
C67_3 C61_3 1_555 1_555
H61_3 C67_3 1_555 1_555
H62_3 C67_3 1_555 1_555
H63_3 C67_3 1_555 1_555
C69_3 C13_3 1_555 1_555
C70_3 C4_3 1_555 1_555
H64_3 C70_3 1_555 1_555
H65_3 C70_3 1_555 1_555
H66_3 C70_3 1_555 1_555
C73_3 C21_3 1_555 1_555
H67_3 C73_3 1_555 1_555
H68_3 C73_3 1_555 1_555
H69_3 C73_3 1_555 1_555
C74_3 C37_3 1_555 1_555
H70_3 C74_3 1_555 1_555
H71_3 C74_3 1_555 1_555
H72_3 C74_3 1_555 1_555
C75_3 C69_3 1_555 1_555
C76_3 C18_3 1_555 1_555
Ag23 O32_3 1_555 1_555
Ag12_3 O30_3 1_555 1_555
F29_3 C87_3 1_555 1_555
F30_3 C87_3 1_555 1_555
F31_3 C78_3 1_555 1_555
F32_3 C78_3 1_555 1_555
O29_3 C83_3 1_555 1_555
O30_3 C77_3 1_555 1_555
O31_3 Ag3_3 1_555 1_555
O32_3 C77_3 1_555 1_555
C77_3 C87_3 1_555 1_555
N13_3 Ag12_3 1_555 1_555
N14_3 C79_3 1_555 1_555
C78_3 C83_3 1_555 1_555
C79_3 C82_3 1_555 1_555
C80_3 N13_3 1_555 1_555
C81_3 N14_3 1_555 1_555
C82_3 H73_3 1_555 1_555
H74_3 C82_3 1_555 1_555
H75_3 C82_3 1_555 1_555
C83_3 O31_3 1_555 1_555
C84_3 C81_3 1_555 1_555
H76_3 C84_3 1_555 1_555
H77_3 C84_3 1_555 1_555
H78_3 C84_3 1_555 1_555
C85_3 C80_3 1_555 1_555
H79_3 C85_3 1_555 1_555
H80_3 C85_3 1_555 1_555
H81_3 C85_3 1_555 1_555
C86_3 H82_3 1_555 1_555
H83_3 C86_3 1_555 1_555
H84_3 C86_3 1_555 1_555
C87_3 C78_3 1_555 1_555
C88_3 N13_3 1_555 1_555
Ag28 N15_3 1_555 1_555
N15_3 C90_3 1_555 1_555
N16_3 Ag9_3 1_555 1_555
C89_3 H85_3 1_555 1_555
H86_3 C89_3 1_555 1_555
H87_3 C89_3 1_555 1_555
C90_3 C89_3 1_555 1_555
C91_3 H88_3 1_555 1_555
H89_3 C91_3 1_555 1_555
H90_3 C91_3 1_555 1_555
C92_3 H91_3 1_555 1_555
H92_3 C92_3 1_555 1_555
H93_3 C92_3 1_555 1_555
C93_3 H94_3 1_555 1_555
H95_3 C93_3 1_555 1_555
H96_3 C93_3 1_555 1_555
C94_3 N15_3 1_555 1_555
C95_3 N16_3 1_555 1_555
C96_3 N16_3 1_555 1_555
Ag30_2 O1_3 1_555 1_555
Ag32_2 O4_3 1_555 1_555
Ag34_2 O1_3 1_555 1_555
Ag17_3 O7_3 1_555 1_555
Ag19_3 O2_3 1_555 1_555
Ag20_3 N14_3 1_555 1_555
Ag21_3 N8_3 1_555 1_555
Ag22_3 O9_3 1_555 1_555
O34_3 Ag30_2 1_555 1_555
O36_3 Ag10_3 1_555 1_555
O37_3 Ag28 1_555 1_555
O38_3 Ag23 1_555 1_555
N17_3 Ag32_2 1_555 1_555
O39_3 Ag34_2 1_555 1_555
N19_3 Ag10_3 1_555 1_555
Ag25_3 O29_3 1_555 1_555
Ag27_3 O29_3 1_555 1_555
O43_3 Ag23 1_555 1_555
Ag31_3 O6_3 1_555 1_555
Ag9_3 O24_3 1_555 1_555
O24_3 C8_3 1_555 1_555
C4_3 C21_3 1_555 1_555
C6_3 C38_3 1_555 1_555
C9_3 C30_3 1_555 1_555
C15_3 C42_3 1_555 1_555
C23_3 C32_3 1_555 1_555
C36_3 C48_3 1_555 1_555
C37_3 N20_2 1_555 1_555
C39_3 N10_3 1_555 1_555
C41_3 C53_3 1_555 1_555
C42_3 C53_3 1_555 1_555
C43_3 C48_3 1_555 1_555
N11_3 C61_3 1_555 1_555
N11_3 Ag34_2 1_555 1_555
O28_3 C58_3 1_555 1_555
Ag12_3 O38_3 1_555 1_555
Ag12_3 O43_3 1_555 1_555
C79_3 C88_3 1_555 1_555
C80_3 C81_3 1_555 1_555
C86_3 C88_3 1_555 1_555
C90_3 C95_3 1_555 1_555
C91_3 C96_3 1_555 1_555
C92_3 C95_3 1_555 1_555
C93_3 C94_3 1_555 1_555
C94_3 C96_3 1_555 1_555
Ag2_4 O5_4 1_555 1_555
Ag6_4 O20_4 1_555 1_555
Ag10_4 O8_4 1_555 1_555
O1_4 C20_4 1_555 1_555
F2_4 C59_4 1_555 1_555
F3_4 C59_4 1_555 1_555
F4_4 C40_4 1_555 1_555
F5_4 C14_4 1_555 1_555
F10_4 C14_4 1_555 1_555
F16_4 C47_4 1_555 1_555
O5_4 C44_4 1_555 1_555
F18_4 C40_4 1_555 1_555
O7_4 C33_4 1_555 1_555
O8_4 C44_4 1_555 1_555
O9_4 C20_4 1_555 1_555
O10_4 C33_4 1_555 1_555
O13_4 Ag2_4 1_555 1_555
O20_4 C51_4 1_555 1_555
N4_4 Ag2_4 1_555 1_555
N7_3 C26_4 1_555 1_555
F28_4 C47_4 1_555 1_555
C12_4 N4_4 1_555 1_555
C14_4 C40_4 1_555 1_555
C15_4 H16_4 1_555 1_555
H17_4 C15_4 1_555 1_555
H18_4 C15_4 1_555 1_555
C20_4 C40_4 1_555 1_555
C26_4 C12_4 1_555 1_555
C33_4 C47_4 1_555 1_555
C34_4 C12_4 1_555 1_555
H22_4 C34_4 1_555 1_555
H23_4 C34_4 1_555 1_555
H24_4 C34_4 1_555 1_555
N10_4 Ag6_4 1_555 1_555
C41_4 H28_4 1_555 1_555
H29_4 C41_4 1_555 1_555
H30_4 C41_4 1_555 1_555
C42_4 N4_4 1_555 1_555
C44_4 C14_4 1_555 1_555
C47_4 C59_4 1_555 1_555
C49_4 N10_4 1_555 1_555
C51_4 O13_4 1_555 1_555
C53_4 N7_3 1_555 1_555
C55_4 C49_4 1_555 1_555
H41_4 C55_4 1_555 1_555
H42_4 C55_4 1_555 1_555
C56_4 C49_4 1_555 1_555
C57_4 C26_4 1_555 1_555
H43_4 C57_4 1_555 1_555
H44_4 C57_4 1_555 1_555
H45_4 C57_4 1_555 1_555
C59_4 C51_4 1_555 1_555
C66_4 C56_4 1_555 1_555
H58_4 C66_4 1_555 1_555
Ag14_2 O1_4 1_555 1_555
Ag16_2 O1_4 1_555 1_555
Ag17_4 O7_4 1_555 1_555
Ag22_4 O9_4 1_555 1_555
O34_4 Ag14_2 1_555 1_555
O36_4 Ag10_4 1_555 1_555
O39_4 Ag16_2 1_555 1_555
N18_2 Ag14_2 1_555 1_555
N19_4 Ag10_4 1_555 1_555
Ag30_3 N7_3 1_555 1_555
C15_4 C42_4 1_555 1_555
C41_4 C53_4 1_555 1_555
C42_4 C53_4 1_555 1_555
Ag3_4 N1_4 1_555 1_555
Ag8_4 O19_4 1_555 1_555
Ag9_4 O19_4 1_555 1_555
F1_4 C19_4 1_555 1_555
F6_4 C69_4 1_555 1_555
F8_4 C76_4 1_555 1_555
F9_4 C13_4 1_555 1_555
F11_4 C23_4 1_555 1_555
O33_3 C32_4 1_555 1_555
F13_4 C69_4 1_555 1_555
O4_4 C75_4 1_555 1_555
F15_4 C29_4 1_555 1_555
N1_4 C1_4 1_555 1_555
F20_4 C76_4 1_555 1_555
F21_4 C18_4 1_555 1_555
F22_4 C23_4 1_555 1_555
F23_4 C13_4 1_555 1_555
O11_4 C16_4 1_555 1_555
O12_4 C16_4 1_555 1_555
F25_4 C19_4 1_555 1_555
F26_4 C29_4 1_555 1_555
O16_4 Ag3_4 1_555 1_555
N3_4 C68_4 1_555 1_555
O19_4 C24_4 1_555 1_555
C1_4 C5_4 1_555 1_555
H3_4 C2_4 1_555 1_555
O22_3 C50_4 1_555 1_555
N5_4 Ag8_4 1_555 1_555
O24_4 Ag8_4 1_555 1_555
O25_2 C75_4 1_555 1_555
O26_4 Ag9_4 1_555 1_555
F27_4 C18_4 1_555 1_555
C3_4 H4_4 1_555 1_555
H5_4 C3_4 1_555 1_555
H6_4 C3_4 1_555 1_555
N9_4 Ag18_3 1_555 1_555
C4_4 N2_4 1_555 1_555
C5_4 H7_4 1_555 1_555
H8_4 C5_4 1_555 1_555
H9_4 C5_4 1_555 1_555
C6_4 H10_4 1_555 1_555
H11_4 C6_4 1_555 1_555
H12_4 C6_4 1_555 1_555
C8_4 O23_4 1_555 1_555
O27_3 C50_4 1_555 1_555
C9_4 N2_4 1_555 1_555
C10_4 N9_4 1_555 1_555
C13_4 C58_4 1_555 1_555
C16_4 C19_4 1_555 1_555
C18_4 C8_4 1_555 1_555
C21_4 N5_4 1_555 1_555
C23_4 C29_4 1_555 1_555
C24_4 O16_4 1_555 1_555
C25_4 H19_4 1_555 1_555
H20_4 C25_4 1_555 1_555
H21_4 C25_4 1_555 1_555
C29_4 C24_4 1_555 1_555
C30_4 N5_4 1_555 1_555
C31_4 C38_4 1_555 1_555
C32_4 O18_4 1_555 1_555
C37_4 C1_4 1_555 1_555
C38_4 N1_4 1_555 1_555
C39_4 C2_4 1_555 1_555
C46_4 C30_4 1_555 1_555
H34_4 C46_4 1_555 1_555
H35_4 C46_4 1_555 1_555
H36_4 C46_4 1_555 1_555
O28_4 Ag8_4 1_555 1_555
C50_4 C76_4 1_555 1_555
N12_2 C31_4 1_555 1_555
C54_4 C31_4 1_555 1_555
H37_4 C54_4 1_555 1_555
H38_4 C54_4 1_555 1_555
H39_4 C54_4 1_555 1_555
C58_4 O26_4 1_555 1_555
C61_4 C39_4 1_555 1_555
C65_4 C10_4 1_555 1_555
H55_4 C65_4 1_555 1_555
H56_4 C65_4 1_555 1_555
H57_4 C65_4 1_555 1_555
C67_4 C61_4 1_555 1_555
H62_4 C67_4 1_555 1_555
H63_4 C67_4 1_555 1_555
C68_4 C10_4 1_555 1_555
C69_4 C13_4 1_555 1_555
C73_4 C21_4 1_555 1_555
H67_4 C73_4 1_555 1_555
H68_4 C73_4 1_555 1_555
H69_4 C73_4 1_555 1_555
C74_4 C37_4 1_555 1_555
H70_4 C74_4 1_555 1_555
H71_4 C74_4 1_555 1_555
H72_4 C74_4 1_555 1_555
C75_4 C69_4 1_555 1_555
C76_4 C18_4 1_555 1_555
Ag11_3 O32_4 1_555 1_555
Ag12_4 O30_4 1_555 1_555
F29_4 C87_4 1_555 1_555
F30_4 C87_4 1_555 1_555
F31_4 C78_4 1_555 1_555
F32_4 C78_4 1_555 1_555
O29_4 C83_4 1_555 1_555
O30_4 C77_4 1_555 1_555
O31_4 Ag3_4 1_555 1_555
O32_4 C77_4 1_555 1_555
C77_4 C87_4 1_555 1_555
N13_4 Ag12_4 1_555 1_555
N14_4 C79_4 1_555 1_555
C78_4 C83_4 1_555 1_555
C79_4 C82_4 1_555 1_555
C80_4 N13_4 1_555 1_555
C81_4 N14_4 1_555 1_555
C82_4 H73_4 1_555 1_555
H74_4 C82_4 1_555 1_555
H75_4 C82_4 1_555 1_555
C83_4 O31_4 1_555 1_555
C84_4 C81_4 1_555 1_555
H76_4 C84_4 1_555 1_555
H77_4 C84_4 1_555 1_555
H78_4 C84_4 1_555 1_555
C85_4 C80_4 1_555 1_555
H79_4 C85_4 1_555 1_555
H80_4 C85_4 1_555 1_555
H81_4 C85_4 1_555 1_555
C86_4 H82_4 1_555 1_555
H83_4 C86_4 1_555 1_555
H84_4 C86_4 1_555 1_555
C87_4 C78_4 1_555 1_555
C88_4 N13_4 1_555 1_555
Ag13_3 N15_4 1_555 1_555
N15_4 C90_4 1_555 1_555
N16_4 Ag9_4 1_555 1_555
C89_4 H85_4 1_555 1_555
H86_4 C89_4 1_555 1_555
H87_4 C89_4 1_555 1_555
C90_4 C89_4 1_555 1_555
C91_4 H88_4 1_555 1_555
H89_4 C91_4 1_555 1_555
H90_4 C91_4 1_555 1_555
C92_4 H91_4 1_555 1_555
H92_4 C92_4 1_555 1_555
H93_4 C92_4 1_555 1_555
C93_4 H94_4 1_555 1_555
H95_4 C93_4 1_555 1_555
H96_4 C93_4 1_555 1_555
C94_4 N15_4 1_555 1_555
C95_4 N16_4 1_555 1_555
C96_4 N16_4 1_555 1_555
Ag15_2 O4_4 1_555 1_555
Ag20_4 N14_4 1_555 1_555
O37_4 Ag13_3 1_555 1_555
O38_4 Ag11_3 1_555 1_555
N17_4 Ag15_2 1_555 1_555
O40_2 Ag15_2 1_555 1_555
O41_3 Ag13_3 1_555 1_555
O42_2 Ag16_3 1_555 1_555
N20_3 Ag11_3 1_555 1_555
Ag23_2 N12_2 1_555 1_555
Ag24_4 O12_4 1_555 1_555
Ag24_3 O29_4 1_555 1_555
Ag26_3 O29_4 1_555 1_555
O43_4 Ag11_3 1_555 1_555
Ag28_2 O25_2 1_555 1_555
Ag29_4 O11_4 1_555 1_555
Ag32_3 O22_3 1_555 1_555
Ag33_4 N3_4 1_555 1_555
Ag34_4 O27_3 1_555 1_555
Ag9_4 O24_4 1_555 1_555
O24_4 C8_4 1_555 1_555
C3_4 C9_4 1_555 1_555
C4_4 C21_4 1_555 1_555
C6_4 C38_4 1_555 1_555
C9_4 C30_4 1_555 1_555
C23_4 C32_4 1_555 1_555
C25_4 C68_4 1_555 1_555
C37_4 N12_2 1_555 1_555
N11_4 C61_4 1_555 1_555
N11_4 Ag16_3 1_555 1_555
O28_4 C58_4 1_555 1_555
Ag12_4 O38_4 1_555 1_555
Ag12_4 O43_4 1_555 1_555
C79_4 C88_4 1_555 1_555
C80_4 C81_4 1_555 1_555
C86_4 C88_4 1_555 1_555
C90_4 C95_4 1_555 1_555
C91_4 C96_4 1_555 1_555
C92_4 C95_4 1_555 1_555
C93_4 C94_4 1_555 1_555
C94_4 C96_4 1_555 1_555
O17_4 Ag7_4 1_555 1_555
O33_4 Ag7_4 1_555 1_555
N21_4 Ag7_4 1_555 1_555
Ag18_4 O33_4 1_555 1_555
Ag1_4 O3_4 1_555 1_555
Ag17_3 O15_4 1_555 1_555
F7_4 C35_4 1_555 1_555
O3_4 C11_4 1_555 1_555
F14_4 C27_4 1_555 1_555
F19_4 C27_4 1_555 1_555
O6_4 C28_4 1_555 1_555
F24_4 C72_4 1_555 1_555
O14_4 Ag1_4 1_555 1_555
O15_4 C17_4 1_555 1_555
O21_4 C28_4 1_555 1_555
N6_4 Ag17_3 1_555 1_555
N19_3 C43_4 1_555 1_555
C7_4 H13_4 1_555 1_555
H14_4 C7_4 1_555 1_555
H15_4 C7_4 1_555 1_555
C17_4 O14_4 1_555 1_555
C27_4 C17_4 1_555 1_555
C28_4 C72_4 1_555 1_555
C35_4 C11_4 1_555 1_555
C36_4 H25_4 1_555 1_555
H26_4 C36_4 1_555 1_555
H27_4 C36_4 1_555 1_555
C43_4 C45_4 1_555 1_555
C45_4 H31_4 1_555 1_555
H32_4 C45_4 1_555 1_555
H33_4 C45_4 1_555 1_555
C48_4 N6_4 1_555 1_555
C52_4 N19_3 1_555 1_555
C60_4 H46_4 1_555 1_555
H47_4 C60_4 1_555 1_555
H48_4 C60_4 1_555 1_555
C62_4 C22_4 1_555 1_555
H49_4 C62_4 1_555 1_555
H50_4 C62_4 1_555 1_555
H51_4 C62_4 1_555 1_555
C63_4 C52_4 1_555 1_555
H52_4 C63_4 1_555 1_555
H53_4 C63_4 1_555 1_555
H54_4 C63_4 1_555 1_555
C64_4 N6_4 1_555 1_555
H64_4 C70_4 1_555 1_555
H65_4 C70_4 1_555 1_555
H66_4 C70_4 1_555 1_555
C72_4 C35_4 1_555 1_555
Ag31_4 O6_4 1_555 1_555
Ag35_5 O21_4 1_555 1_555
C7_4 C71_4 1_555 1_555
C22_4 C71_4 1_555 1_555
C36_4 C48_4 1_555 1_555
C43_4 C48_4 1_555 1_555
C52_4 C64_4 1_555 1_555
C60_4 C64_4 1_555 1_555
Ag2_5 O5_5 1_555 1_555
Ag6_5 O20_5 1_555 1_555
Ag7_5 O10_5 1_555 1_555
Ag10_5 O8_5 1_555 1_555
O1_5 C20_5 1_555 1_555
F2_5 C59_5 1_555 1_555
F3_5 C59_5 1_555 1_555
F4_5 C40_5 1_555 1_555
F5_5 C14_5 1_555 1_555
F10_5 C14_5 1_555 1_555
F16_5 C47_5 1_555 1_555
O5_5 C44_5 1_555 1_555
F18_5 C40_5 1_555 1_555
O7_5 C33_5 1_555 1_555
O8_5 C44_5 1_555 1_555
O9_5 C20_5 1_555 1_555
O10_5 C33_5 1_555 1_555
O13_5 Ag2_5 1_555 1_555
O17_5 Ag7_5 1_555 1_555
O20_5 C51_5 1_555 1_555
N4_5 Ag2_5 1_555 1_555
N7_4 C26_5 1_555 1_555
F28_5 C47_5 1_555 1_555
C12_5 N4_5 1_555 1_555
C14_5 C40_5 1_555 1_555
C15_5 H16_5 1_555 1_555
H17_5 C15_5 1_555 1_555
H18_5 C15_5 1_555 1_555
C20_5 C40_5 1_555 1_555
C26_5 C12_5 1_555 1_555
C33_5 C47_5 1_555 1_555
C34_5 C12_5 1_555 1_555
H22_5 C34_5 1_555 1_555
H23_5 C34_5 1_555 1_555
H24_5 C34_5 1_555 1_555
N10_5 Ag6_5 1_555 1_555
C41_5 H28_5 1_555 1_555
H29_5 C41_5 1_555 1_555
H30_5 C41_5 1_555 1_555
C42_5 N4_5 1_555 1_555
C44_5 C14_5 1_555 1_555
C47_5 C59_5 1_555 1_555
C49_5 N10_5 1_555 1_555
C51_5 O13_5 1_555 1_555
C53_5 N7_4 1_555 1_555
C55_5 C49_5 1_555 1_555
H41_5 C55_5 1_555 1_555
H42_5 C55_5 1_555 1_555
C56_5 C49_5 1_555 1_555
C57_5 C26_5 1_555 1_555
H43_5 C57_5 1_555 1_555
H44_5 C57_5 1_555 1_555
H45_5 C57_5 1_555 1_555
C59_5 C51_5 1_555 1_555
C66_5 C56_5 1_555 1_555
H58_5 C66_5 1_555 1_555
Ag30_3 O1_5 1_555 1_555
Ag34_3 O1_5 1_555 1_555
Ag17_5 O7_5 1_555 1_555
Ag18_5 O7_5 1_555 1_555
Ag22_5 O9_5 1_555 1_555
O33_5 Ag7_5 1_555 1_555
O34_5 Ag30_3 1_555 1_555
O36_5 Ag10_5 1_555 1_555
O39_5 Ag34_3 1_555 1_555
N19_5 Ag10_5 1_555 1_555
N21_5 Ag7_5 1_555 1_555
Ag30_4 N7_4 1_555 1_555
C15_5 C42_5 1_555 1_555
C41_5 C53_5 1_555 1_555
C42_5 C53_5 1_555 1_555
Ag18_5 O33_5 1_555 1_555
Ag1_5 O3_5 1_555 1_555
Ag3_5 N1_5 1_555 1_555
Ag17 O15_5 1_555 1_555
Ag8_5 O19_5 1_555 1_555
Ag9_5 O19_5 1_555 1_555
F1_5 C19_5 1_555 1_555
F6_5 C69_5 1_555 1_555
F7_5 C35_5 1_555 1_555
F8_5 C76_5 1_555 1_555
F9_5 C13_5 1_555 1_555
F11_5 C23_5 1_555 1_555
O33 C32_5 1_555 1_555
O3_5 C11_5 1_555 1_555
F13_5 C69_5 1_555 1_555
F14_5 C27_5 1_555 1_555
O4_5 C75_5 1_555 1_555
F15_5 C29_5 1_555 1_555
F19_5 C27_5 1_555 1_555
N1_5 C1_5 1_555 1_555
F20_5 C76_5 1_555 1_555
F21_5 C18_5 1_555 1_555
F22_5 C23_5 1_555 1_555
F23_5 C13_5 1_555 1_555
O6_5 C28_5 1_555 1_555
F24_5 C72_5 1_555 1_555
N2_5 Ag1_5 1_555 1_555
O11_5 C16_5 1_555 1_555
O12_5 C16_5 1_555 1_555
O14_5 Ag1_5 1_555 1_555
F25_5 C19_5 1_555 1_555
O15_5 C17_5 1_555 1_555
F26_5 C29_5 1_555 1_555
O16_5 Ag3_5 1_555 1_555
N3_5 C68_5 1_555 1_555
O18_5 Ag17 1_555 1_555
O19_5 C24_5 1_555 1_555
C1_5 C5_5 1_555 1_555
O21_5 C28_5 1_555 1_555
H3_5 C2_5 1_555 1_555
O22_4 C50_5 1_555 1_555
N5_5 Ag8_5 1_555 1_555
N6_5 Ag17 1_555 1_555
O24_5 Ag8_5 1_555 1_555
O41_3 C75_5 1_555 1_555
O26_5 Ag9_5 1_555 1_555
F27_5 C18_5 1_555 1_555
C3_5 H4_5 1_555 1_555
H5_5 C3_5 1_555 1_555
H6_5 C3_5 1_555 1_555
N19 C43_5 1_555 1_555
N9_5 Ag18 1_555 1_555
C4_5 N2_5 1_555 1_555
C5_5 H7_5 1_555 1_555
H8_5 C5_5 1_555 1_555
H9_5 C5_5 1_555 1_555
C6_5 H10_5 1_555 1_555
H11_5 C6_5 1_555 1_555
H12_5 C6_5 1_555 1_555
C7_5 H13_5 1_555 1_555
H14_5 C7_5 1_555 1_555
H15_5 C7_5 1_555 1_555
C8_5 O23_5 1_555 1_555
O27_4 C50_5 1_555 1_555
C9_5 N2_5 1_555 1_555
C10_5 N9_5 1_555 1_555
C13_5 C58_5 1_555 1_555
C16_5 C19_5 1_555 1_555
C17_5 O14_5 1_555 1_555
C18_5 C8_5 1_555 1_555
C19_5 C27_5 1_555 1_555
C21_5 N5_5 1_555 1_555
C22_5 N9_5 1_555 1_555
C23_5 C29_5 1_555 1_555
C24_5 O16_5 1_555 1_555
C25_5 H19_5 1_555 1_555
H20_5 C25_5 1_555 1_555
H21_5 C25_5 1_555 1_555
C27_5 C17_5 1_555 1_555
C28_5 C72_5 1_555 1_555
C29_5 C24_5 1_555 1_555
C30_5 N5_5 1_555 1_555
C31_5 C38_5 1_555 1_555
C32_5 O18_5 1_555 1_555
C35_5 C11_5 1_555 1_555
C36_5 H25_5 1_555 1_555
H26_5 C36_5 1_555 1_555
H27_5 C36_5 1_555 1_555
C37_5 C1_5 1_555 1_555
C38_5 N1_5 1_555 1_555
C39_5 C2_5 1_555 1_555
C43_5 C45_5 1_555 1_555
C45_5 H31_5 1_555 1_555
H32_5 C45_5 1_555 1_555
H33_5 C45_5 1_555 1_555
C46_5 C30_5 1_555 1_555
H34_5 C46_5 1_555 1_555
H35_5 C46_5 1_555 1_555
H36_5 C46_5 1_555 1_555
C48_5 N6_5 1_555 1_555
O28_5 Ag8_5 1_555 1_555
C50_5 C76_5 1_555 1_555
N20_3 C31_5 1_555 1_555
C52_5 N19 1_555 1_555
C54_5 C31_5 1_555 1_555
H37_5 C54_5 1_555 1_555
H38_5 C54_5 1_555 1_555
H39_5 C54_5 1_555 1_555
C58_5 O26_5 1_555 1_555
C60_5 H46_5 1_555 1_555
H47_5 C60_5 1_555 1_555
H48_5 C60_5 1_555 1_555
C61_5 C39_5 1_555 1_555
C62_5 C22_5 1_555 1_555
H49_5 C62_5 1_555 1_555
H50_5 C62_5 1_555 1_555
H51_5 C62_5 1_555 1_555
C63_5 C52_5 1_555 1_555
H52_5 C63_5 1_555 1_555
H53_5 C63_5 1_555 1_555
H54_5 C63_5 1_555 1_555
C64_5 N6_5 1_555 1_555
C65_5 C10_5 1_555 1_555
H55_5 C65_5 1_555 1_555
H56_5 C65_5 1_555 1_555
H57_5 C65_5 1_555 1_555
C67_5 C61_5 1_555 1_555
H62_5 C67_5 1_555 1_555
H63_5 C67_5 1_555 1_555
C68_5 C10_5 1_555 1_555
C69_5 C13_5 1_555 1_555
C70_5 C4_5 1_555 1_555
H64_5 C70_5 1_555 1_555
H65_5 C70_5 1_555 1_555
H66_5 C70_5 1_555 1_555
C71_5 N3_5 1_555 1_555
C72_5 C35_5 1_555 1_555
C73_5 C21_5 1_555 1_555
H67_5 C73_5 1_555 1_555
H68_5 C73_5 1_555 1_555
H69_5 C73_5 1_555 1_555
C74_5 C37_5 1_555 1_555
H70_5 C74_5 1_555 1_555
H71_5 C74_5 1_555 1_555
H72_5 C74_5 1_555 1_555
C75_5 C69_5 1_555 1_555
C76_5 C18_5 1_555 1_555
Ag11_4 O32_5 1_555 1_555
Ag12_5 O30_5 1_555 1_555
F29_5 C87_5 1_555 1_555
F30_5 C87_5 1_555 1_555
F31_5 C78_5 1_555 1_555
F32_5 C78_5 1_555 1_555
O29_5 C83_5 1_555 1_555
O30_5 C77_5 1_555 1_555
O31_5 Ag3_5 1_555 1_555
O32_5 C77_5 1_555 1_555
C77_5 C87_5 1_555 1_555
N13_5 Ag12_5 1_555 1_555
N14_5 C79_5 1_555 1_555
C78_5 C83_5 1_555 1_555
C79_5 C82_5 1_555 1_555
C80_5 N13_5 1_555 1_555
C81_5 N14_5 1_555 1_555
C82_5 H73_5 1_555 1_555
H74_5 C82_5 1_555 1_555
H75_5 C82_5 1_555 1_555
C83_5 O31_5 1_555 1_555
C84_5 C81_5 1_555 1_555
H76_5 C84_5 1_555 1_555
H77_5 C84_5 1_555 1_555
H78_5 C84_5 1_555 1_555
C85_5 C80_5 1_555 1_555
H79_5 C85_5 1_555 1_555
H80_5 C85_5 1_555 1_555
H81_5 C85_5 1_555 1_555
C86_5 H82_5 1_555 1_555
H83_5 C86_5 1_555 1_555
H84_5 C86_5 1_555 1_555
C87_5 C78_5 1_555 1_555
C88_5 N13_5 1_555 1_555
Ag13_4 N15_5 1_555 1_555
N15_5 C90_5 1_555 1_555
N16_5 Ag9_5 1_555 1_555
C89_5 H85_5 1_555 1_555
H86_5 C89_5 1_555 1_555
H87_5 C89_5 1_555 1_555
C90_5 C89_5 1_555 1_555
C91_5 H88_5 1_555 1_555
H89_5 C91_5 1_555 1_555
H90_5 C91_5 1_555 1_555
C92_5 H91_5 1_555 1_555
H92_5 C92_5 1_555 1_555
H93_5 C92_5 1_555 1_555
C93_5 H94_5 1_555 1_555
H95_5 C93_5 1_555 1_555
H96_5 C93_5 1_555 1_555
C94_5 N15_5 1_555 1_555
C95_5 N16_5 1_555 1_555
C96_5 N16_5 1_555 1_555
Ag32_3 O4_5 1_555 1_555
Ag20_5 N14_5 1_555 1_555
O37_5 Ag13_4 1_555 1_555
O38_5 Ag11_4 1_555 1_555
N17_5 Ag32_3 1_555 1_555
O41_4 Ag13_4 1_555 1_555
N20_4 Ag11_4 1_555 1_555
Ag24_5 O12_5 1_555 1_555
Ag24 O29_5 1_555 1_555
Ag26 O29_5 1_555 1_555
O43_5 Ag11_4 1_555 1_555
Ag29_5 O11_5 1_555 1_555
Ag31_5 O6_5 1_555 1_555
Ag32_4 O22_4 1_555 1_555
Ag33_5 N3_5 1_555 1_555
Ag34_6 O27_4 1_555 1_555
Ag35_7 O21_5 1_555 1_555
Ag9_5 O24_5 1_555 1_555
O24_5 C8_5 1_555 1_555
C3_5 C9_5 1_555 1_555
C4_5 C21_5 1_555 1_555
C6_5 C38_5 1_555 1_555
C7_5 C71_5 1_555 1_555
C9_5 C30_5 1_555 1_555
C22_5 C71_5 1_555 1_555
C23_5 C32_5 1_555 1_555
C25_5 C68_5 1_555 1_555
C36_5 C48_5 1_555 1_555
C37_5 N20_3 1_555 1_555
C43_5 C48_5 1_555 1_555
N11_5 C61_5 1_555 1_555
N11_5 Ag34_4 1_555 1_555
O28_5 C58_5 1_555 1_555
C52_5 C64_5 1_555 1_555
C60_5 C64_5 1_555 1_555
Ag12_5 O38_5 1_555 1_555
Ag12_5 O43_5 1_555 1_555
C79_5 C88_5 1_555 1_555
C80_5 C81_5 1_555 1_555
C86_5 C88_5 1_555 1_555
C90_5 C95_5 1_555 1_555
C91_5 C96_5 1_555 1_555
C92_5 C95_5 1_555 1_555
C93_5 C94_5 1_555 1_555
C94_5 C96_5 1_555 1_555
O17_6 Ag7_6 1_555 1_555
O33_6 Ag7_6 1_555 1_555
N21_6 Ag7_6 1_555 1_555
Ag18_6 O33_6 1_555 1_555
Ag1_6 O3_6 1_555 1_555
Ag17_2 O15_6 1_555 1_555
F7_6 C35_6 1_555 1_555
O3_6 C11_6 1_555 1_555
F14_6 C27_6 1_555 1_555
F19_6 C27_6 1_555 1_555
O6_6 C28_6 1_555 1_555
F24_6 C72_6 1_555 1_555
O14_6 Ag1_6 1_555 1_555
O15_6 C17_6 1_555 1_555
O21_6 C28_6 1_555 1_555
N6_6 Ag17_2 1_555 1_555
N19_2 C43_6 1_555 1_555
C7_6 H13_6 1_555 1_555
H14_6 C7_6 1_555 1_555
H15_6 C7_6 1_555 1_555
C17_6 O14_6 1_555 1_555
C27_6 C17_6 1_555 1_555
C28_6 C72_6 1_555 1_555
C35_6 C11_6 1_555 1_555
C36_6 H25_6 1_555 1_555
H26_6 C36_6 1_555 1_555
H27_6 C36_6 1_555 1_555
C43_6 C45_6 1_555 1_555
C45_6 H31_6 1_555 1_555
H32_6 C45_6 1_555 1_555
H33_6 C45_6 1_555 1_555
C48_6 N6_6 1_555 1_555
C52_6 N19_2 1_555 1_555
C60_6 H46_6 1_555 1_555
H47_6 C60_6 1_555 1_555
H48_6 C60_6 1_555 1_555
C62_6 C22_6 1_555 1_555
H49_6 C62_6 1_555 1_555
H50_6 C62_6 1_555 1_555
H51_6 C62_6 1_555 1_555
C63_6 C52_6 1_555 1_555
H52_6 C63_6 1_555 1_555
H53_6 C63_6 1_555 1_555
H54_6 C63_6 1_555 1_555
C64_6 N6_6 1_555 1_555
H64_6 C70_6 1_555 1_555
H65_6 C70_6 1_555 1_555
H66_6 C70_6 1_555 1_555
C72_6 C35_6 1_555 1_555
Ag31_6 O6_6 1_555 1_555
Ag35_9 O21_6 1_555 1_555
C7_6 C71_6 1_555 1_555
C22_6 C71_6 1_555 1_555
C36_6 C48_6 1_555 1_555
C43_6 C48_6 1_555 1_555
C52_6 C64_6 1_555 1_555
C60_6 C64_6 1_555 1_555
Ag2_6 O5_6 1_555 1_555
Ag6_6 O20_6 1_555 1_555
Ag10_6 O8_6 1_555 1_555
O1_6 C20_6 1_555 1_555
F2_6 C59_6 1_555 1_555
F3_6 C59_6 1_555 1_555
F4_6 C40_6 1_555 1_555
F5_6 C14_6 1_555 1_555
F10_6 C14_6 1_555 1_555
F16_6 C47_6 1_555 1_555
O5_6 C44_6 1_555 1_555
F18_6 C40_6 1_555 1_555
O7_6 C33_6 1_555 1_555
O8_6 C44_6 1_555 1_555
O9_6 C20_6 1_555 1_555
O10_6 C33_6 1_555 1_555
O13_6 Ag2_6 1_555 1_555
O20_6 C51_6 1_555 1_555
N4_6 Ag2_6 1_555 1_555
N18_2 C26_6 1_555 1_555
F28_6 C47_6 1_555 1_555
C12_6 N4_6 1_555 1_555
C14_6 C40_6 1_555 1_555
C15_6 H16_6 1_555 1_555
H17_6 C15_6 1_555 1_555
H18_6 C15_6 1_555 1_555
C20_6 C40_6 1_555 1_555
C26_6 C12_6 1_555 1_555
C33_6 C47_6 1_555 1_555
C34_6 C12_6 1_555 1_555
H22_6 C34_6 1_555 1_555
H23_6 C34_6 1_555 1_555
H24_6 C34_6 1_555 1_555
N10_6 Ag6_6 1_555 1_555
C41_6 H28_6 1_555 1_555
H29_6 C41_6 1_555 1_555
H30_6 C41_6 1_555 1_555
C42_6 N4_6 1_555 1_555
C44_6 C14_6 1_555 1_555
C47_6 C59_6 1_555 1_555
C49_6 N10_6 1_555 1_555
C51_6 O13_6 1_555 1_555
C53_6 N18_2 1_555 1_555
C55_6 C49_6 1_555 1_555
H41_6 C55_6 1_555 1_555
H42_6 C55_6 1_555 1_555
C56_6 C49_6 1_555 1_555
C57_6 C26_6 1_555 1_555
H43_6 C57_6 1_555 1_555
H44_6 C57_6 1_555 1_555
H45_6 C57_6 1_555 1_555
C59_6 C51_6 1_555 1_555
C66_6 C56_6 1_555 1_555
H58_6 C66_6 1_555 1_555
Ag30_4 O1_6 1_555 1_555
Ag34_5 O1_6 1_555 1_555
Ag17_6 O7_6 1_555 1_555
Ag22_6 O9_6 1_555 1_555
O34_6 Ag30_4 1_555 1_555
O36_6 Ag10_6 1_555 1_555
O39_6 Ag34_5 1_555 1_555
N19_6 Ag10_6 1_555 1_555
C15_6 C42_6 1_555 1_555
C41_6 C53_6 1_555 1_555
C42_6 C53_6 1_555 1_555
Ag3_6 N1_6 1_555 1_555
Ag8_6 O19_6 1_555 1_555
Ag9_6 O19_6 1_555 1_555
F1_6 C19_6 1_555 1_555
F6_6 C69_6 1_555 1_555
F8_6 C76_6 1_555 1_555
F9_6 C13_6 1_555 1_555
F11_6 C23_6 1_555 1_555
O33_2 C32_6 1_555 1_555
F13_6 C69_6 1_555 1_555
O4_6 C75_6 1_555 1_555
F15_6 C29_6 1_555 1_555
N1_6 C1_6 1_555 1_555
F20_6 C76_6 1_555 1_555
F21_6 C18_6 1_555 1_555
F22_6 C23_6 1_555 1_555
F23_6 C13_6 1_555 1_555
O11_6 C16_6 1_555 1_555
O12_6 C16_6 1_555 1_555
F25_6 C19_6 1_555 1_555
F26_6 C29_6 1_555 1_555
O16_6 Ag3_6 1_555 1_555
N3_6 C68_6 1_555 1_555
O19_6 C24_6 1_555 1_555
C1_6 C5_6 1_555 1_555
H3_6 C2_6 1_555 1_555
O40_2 C50_6 1_555 1_555
N5_6 Ag8_6 1_555 1_555
O24_6 Ag8_6 1_555 1_555
O41_4 C75_6 1_555 1_555
O26_6 Ag9_6 1_555 1_555
F27_6 C18_6 1_555 1_555
C3_6 H4_6 1_555 1_555
H5_6 C3_6 1_555 1_555
H6_6 C3_6 1_555 1_555
N9_6 Ag18_2 1_555 1_555
C4_6 N2_6 1_555 1_555
C5_6 H7_6 1_555 1_555
H8_6 C5_6 1_555 1_555
H9_6 C5_6 1_555 1_555
C6_6 H10_6 1_555 1_555
H11_6 C6_6 1_555 1_555
H12_6 C6_6 1_555 1_555
C8_6 O23_6 1_555 1_555
O42_2 C50_6 1_555 1_555
C9_6 N2_6 1_555 1_555
C10_6 N9_6 1_555 1_555
C13_6 C58_6 1_555 1_555
C16_6 C19_6 1_555 1_555
C18_6 C8_6 1_555 1_555
C21_6 N5_6 1_555 1_555
C23_6 C29_6 1_555 1_555
C24_6 O16_6 1_555 1_555
C25_6 H19_6 1_555 1_555
H20_6 C25_6 1_555 1_555
H21_6 C25_6 1_555 1_555
C29_6 C24_6 1_555 1_555
C30_6 N5_6 1_555 1_555
C31_6 C38_6 1_555 1_555
C32_6 O18_6 1_555 1_555
C37_6 C1_6 1_555 1_555
C38_6 N1_6 1_555 1_555
C39_6 C2_6 1_555 1_555
C46_6 C30_6 1_555 1_555
H34_6 C46_6 1_555 1_555
H35_6 C46_6 1_555 1_555
H36_6 C46_6 1_555 1_555
O28_6 Ag8_6 1_555 1_555
C50_6 C76_6 1_555 1_555
N20_4 C31_6 1_555 1_555
C54_6 C31_6 1_555 1_555
H37_6 C54_6 1_555 1_555
H38_6 C54_6 1_555 1_555
H39_6 C54_6 1_555 1_555
C58_6 O26_6 1_555 1_555
C61_6 C39_6 1_555 1_555
C65_6 C10_6 1_555 1_555
H55_6 C65_6 1_555 1_555
H56_6 C65_6 1_555 1_555
H57_6 C65_6 1_555 1_555
C67_6 C61_6 1_555 1_555
H62_6 C67_6 1_555 1_555
H63_6 C67_6 1_555 1_555
C68_6 C10_6 1_555 1_555
C69_6 C13_6 1_555 1_555
C73_6 C21_6 1_555 1_555
H67_6 C73_6 1_555 1_555
H68_6 C73_6 1_555 1_555
H69_6 C73_6 1_555 1_555
C74_6 C37_6 1_555 1_555
H70_6 C74_6 1_555 1_555
H71_6 C74_6 1_555 1_555
H72_6 C74_6 1_555 1_555
C75_6 C69_6 1_555 1_555
C76_6 C18_6 1_555 1_555
Ag23_2 O32_6 1_555 1_555
Ag12_6 O30_6 1_555 1_555
F29_6 C87_6 1_555 1_555
F30_6 C87_6 1_555 1_555
F31_6 C78_6 1_555 1_555
F32_6 C78_6 1_555 1_555
O29_6 C83_6 1_555 1_555
O30_6 C77_6 1_555 1_555
O31_6 Ag3_6 1_555 1_555
O32_6 C77_6 1_555 1_555
C77_6 C87_6 1_555 1_555
N13_6 Ag12_6 1_555 1_555
N14_6 C79_6 1_555 1_555
C78_6 C83_6 1_555 1_555
C79_6 C82_6 1_555 1_555
C80_6 N13_6 1_555 1_555
C81_6 N14_6 1_555 1_555
C82_6 H73_6 1_555 1_555
H74_6 C82_6 1_555 1_555
H75_6 C82_6 1_555 1_555
C83_6 O31_6 1_555 1_555
C84_6 C81_6 1_555 1_555
H76_6 C84_6 1_555 1_555
H77_6 C84_6 1_555 1_555
H78_6 C84_6 1_555 1_555
C85_6 C80_6 1_555 1_555
H79_6 C85_6 1_555 1_555
H80_6 C85_6 1_555 1_555
H81_6 C85_6 1_555 1_555
C86_6 H82_6 1_555 1_555
H83_6 C86_6 1_555 1_555
H84_6 C86_6 1_555 1_555
C87_6 C78_6 1_555 1_555
C88_6 N13_6 1_555 1_555
Ag28_2 N15_6 1_555 1_555
N15_6 C90_6 1_555 1_555
N16_6 Ag9_6 1_555 1_555
C89_6 H85_6 1_555 1_555
H86_6 C89_6 1_555 1_555
H87_6 C89_6 1_555 1_555
C90_6 C89_6 1_555 1_555
C91_6 H88_6 1_555 1_555
H89_6 C91_6 1_555 1_555
H90_6 C91_6 1_555 1_555
C92_6 H91_6 1_555 1_555
H92_6 C92_6 1_555 1_555
H93_6 C92_6 1_555 1_555
C93_6 H94_6 1_555 1_555
H95_6 C93_6 1_555 1_555
H96_6 C93_6 1_555 1_555
C94_6 N15_6 1_555 1_555
C95_6 N16_6 1_555 1_555
C96_6 N16_6 1_555 1_555
Ag32_4 O4_6 1_555 1_555
Ag20_6 N14_6 1_555 1_555
O37_6 Ag28_2 1_555 1_555
O38_6 Ag23_2 1_555 1_555
N17_6 Ag32_4 1_555 1_555
Ag24_6 O12_6 1_555 1_555
Ag24_2 O29_6 1_555 1_555
Ag26_2 O29_6 1_555 1_555
O43_6 Ag23_2 1_555 1_555
Ag29_6 O11_6 1_555 1_555
Ag33_6 N3_6 1_555 1_555
Ag9_6 O24_6 1_555 1_555
O24_6 C8_6 1_555 1_555
C3_6 C9_6 1_555 1_555
C4_6 C21_6 1_555 1_555
C6_6 C38_6 1_555 1_555
C9_6 C30_6 1_555 1_555
C23_6 C32_6 1_555 1_555
C25_6 C68_6 1_555 1_555
C37_6 N20_4 1_555 1_555
N11_6 C61_6 1_555 1_555
N11_6 Ag34_6 1_555 1_555
O28_6 C58_6 1_555 1_555
Ag12_6 O38_6 1_555 1_555
Ag12_6 O43_6 1_555 1_555
C79_6 C88_6 1_555 1_555
C80_6 C81_6 1_555 1_555
C86_6 C88_6 1_555 1_555
C90_6 C95_6 1_555 1_555
C91_6 C96_6 1_555 1_555
C92_6 C95_6 1_555 1_555
C93_6 C94_6 1_555 1_555
C94_6 C96_6 1_555 1_555
O34_7 Ag14_3 1_555 1_555
N18_3 Ag14_3 1_555 1_555
Ag2_7 O5_7 1_555 1_555
Ag6_7 O20_7 1_555 1_555
Ag21_2 O8_7 1_555 1_555
O1_7 C20_7 1_555 1_555
F1_7 C19_7 1_555 1_555
F2_7 C59_7 1_555 1_555
F3_7 C59_7 1_555 1_555
F4_7 C40_7 1_555 1_555
F5_7 C14_7 1_555 1_555
F6_7 C69_7 1_555 1_555
F9_7 C13_7 1_555 1_555
F10_7 C14_7 1_555 1_555
F11_7 C23_7 1_555 1_555
O33_6 C32_7 1_555 1_555
F13_7 C69_7 1_555 1_555
F14_7 C27_7 1_555 1_555
O4_7 C75_7 1_555 1_555
O5_7 C44_7 1_555 1_555
F18_7 C40_7 1_555 1_555
F19_7 C27_7 1_555 1_555
N1_7 C1_7 1_555 1_555
F22_7 C23_7 1_555 1_555
F23_7 C13_7 1_555 1_555
N2_7 Ag1_7 1_555 1_555
O8_7 C44_7 1_555 1_555
O9_7 C20_7 1_555 1_555
O11_7 C16_7 1_555 1_555
O12_7 C16_7 1_555 1_555
O13_7 Ag2_7 1_555 1_555
O14_7 Ag1_7 1_555 1_555
F25_7 C19_7 1_555 1_555
O15_7 C17_7 1_555 1_555
N3_7 C68_7 1_555 1_555
O20_7 C51_7 1_555 1_555
C1_7 C5_7 1_555 1_555
C2_7 H1_7 1_555 1_555
H2_7 C2_7 1_555 1_555
H3_7 C2_7 1_555 1_555
O25_3 C75_7 1_555 1_555
C3_7 H4_7 1_555 1_555
H5_7 C3_7 1_555 1_555
H6_7 C3_7 1_555 1_555
N9_7 Ag18_6 1_555 1_555
C5_7 H7_7 1_555 1_555
H8_7 C5_7 1_555 1_555
H9_7 C5_7 1_555 1_555
C7_7 H13_7 1_555 1_555
H14_7 C7_7 1_555 1_555
H15_7 C7_7 1_555 1_555
C9_7 N2_7 1_555 1_555
C10_7 N9_7 1_555 1_555
C13_7 C58_7 1_555 1_555
C14_7 C40_7 1_555 1_555
C16_7 C19_7 1_555 1_555
C17_7 O14_7 1_555 1_555
C19_7 C27_7 1_555 1_555
C20_7 C40_7 1_555 1_555
C22_7 N9_7 1_555 1_555
C25_7 H19_7 1_555 1_555
H20_7 C25_7 1_555 1_555
H21_7 C25_7 1_555 1_555
C27_7 C17_7 1_555 1_555
C31_7 C38_7 1_555 1_555
C32_7 O18_7 1_555 1_555
H22_7 C34_7 1_555 1_555
H23_7 C34_7 1_555 1_555
C37_7 C1_7 1_555 1_555
C38_7 N1_7 1_555 1_555
C39_7 C2_7 1_555 1_555
N10_7 Ag6_7 1_555 1_555
C44_7 C14_7 1_555 1_555
C46_7 C30_7 1_555 1_555
H34_7 C46_7 1_555 1_555
H35_7 C46_7 1_555 1_555
H36_7 C46_7 1_555 1_555
N11_7 C56_7 1_555 1_555
C49_7 N10_7 1_555 1_555
C51_7 O13_7 1_555 1_555
N12_3 C31_7 1_555 1_555
C54_7 C31_7 1_555 1_555
H37_7 C54_7 1_555 1_555
H38_7 C54_7 1_555 1_555
H39_7 C54_7 1_555 1_555
C55_7 C49_7 1_555 1_555
H40_7 C55_7 1_555 1_555
H41_7 C55_7 1_555 1_555
H42_7 C55_7 1_555 1_555
C56_7 C49_7 1_555 1_555
C58_7 O26_7 1_555 1_555
C59_7 C51_7 1_555 1_555
C61_7 C39_7 1_555 1_555
C62_7 C22_7 1_555 1_555
H49_7 C62_7 1_555 1_555
H50_7 C62_7 1_555 1_555
H51_7 C62_7 1_555 1_555
C65_7 C10_7 1_555 1_555
H55_7 C65_7 1_555 1_555
H56_7 C65_7 1_555 1_555
H57_7 C65_7 1_555 1_555
C66_7 C56_7 1_555 1_555
H58_7 C66_7 1_555 1_555
H59_7 C66_7 1_555 1_555
H60_7 C66_7 1_555 1_555
C67_7 C61_7 1_555 1_555
H61_7 C67_7 1_555 1_555
H62_7 C67_7 1_555 1_555
H63_7 C67_7 1_555 1_555
C68_7 C10_7 1_555 1_555
C69_7 C13_7 1_555 1_555
C71_7 N3_7 1_555 1_555
C74_7 C37_7 1_555 1_555
H70_7 C74_7 1_555 1_555
H71_7 C74_7 1_555 1_555
H72_7 C74_7 1_555 1_555
C75_7 C69_7 1_555 1_555
Ag15_3 O4_7 1_555 1_555
Ag16_4 O1_7 1_555 1_555
N17_7 Ag15_3 1_555 1_555
Ag23_3 N12_3 1_555 1_555
Ag25_2 O12_7 1_555 1_555
Ag27_2 O12_7 1_555 1_555
N21_7 Ag19_2 1_555 1_555
Ag28_3 O25_3 1_555 1_555
Ag29_7 O11_7 1_555 1_555
Ag33_7 N3_7 1_555 1_555
C3_7 C9_7 1_555 1_555
C7_7 C71_7 1_555 1_555
C9_7 C30_7 1_555 1_555
C22_7 C71_7 1_555 1_555
C23_7 C32_7 1_555 1_555
C25_7 C68_7 1_555 1_555
C37_7 N12_3 1_555 1_555
C39_7 N10_7 1_555 1_555
N11_7 C61_7 1_555 1_555
N11_7 Ag16_4 1_555 1_555
O28_7 C58_7 1_555 1_555
Ag8_7 O19_7 1_555 1_555
Ag9_7 O19_7 1_555 1_555
F7_7 C35_7 1_555 1_555
F8_7 C76_7 1_555 1_555
F12_7 C35_7 1_555 1_555
O3_7 C11_7 1_555 1_555
F15_7 C29_7 1_555 1_555
F16_7 C47_7 1_555 1_555
F17_7 C72_7 1_555 1_555
F20_7 C76_7 1_555 1_555
F21_7 C18_7 1_555 1_555
O6_7 C28_7 1_555 1_555
F24_7 C72_7 1_555 1_555
O35_2 C33_7 1_555 1_555
O10_7 C33_7 1_555 1_555
F26_7 C29_7 1_555 1_555
O16_7 Ag3_7 1_555 1_555
O19_7 C24_7 1_555 1_555
O21_7 C28_7 1_555 1_555
O22_5 C50_7 1_555 1_555
N5_7 Ag8_7 1_555 1_555
N6_7 Ag17_6 1_555 1_555
O24_7 Ag8_7 1_555 1_555
F27_7 C18_7 1_555 1_555
N7_5 C26_7 1_555 1_555
N19_6 C43_7 1_555 1_555
F28_7 C47_7 1_555 1_555
C6_7 H10_7 1_555 1_555
H11_7 C6_7 1_555 1_555
H12_7 C6_7 1_555 1_555
C8_7 O23_7 1_555 1_555
O27_5 C50_7 1_555 1_555
C11_7 O17_7 1_555 1_555
C12_7 N4_7 1_555 1_555
C15_7 H16_7 1_555 1_555
H17_7 C15_7 1_555 1_555
H18_7 C15_7 1_555 1_555
C18_7 C8_7 1_555 1_555
C21_7 N5_7 1_555 1_555
C24_7 O16_7 1_555 1_555
C26_7 C12_7 1_555 1_555
C28_7 C72_7 1_555 1_555
C29_7 C24_7 1_555 1_555
C33_7 C47_7 1_555 1_555
C35_7 C11_7 1_555 1_555
C36_7 H25_7 1_555 1_555
H26_7 C36_7 1_555 1_555
H27_7 C36_7 1_555 1_555
C41_7 H28_7 1_555 1_555
H29_7 C41_7 1_555 1_555
H30_7 C41_7 1_555 1_555
C42_7 N4_7 1_555 1_555
C43_7 C45_7 1_555 1_555
C45_7 H31_7 1_555 1_555
H32_7 C45_7 1_555 1_555
H33_7 C45_7 1_555 1_555
C48_7 N6_7 1_555 1_555
C50_7 C76_7 1_555 1_555
C52_7 N19_6 1_555 1_555
C53_7 N7_5 1_555 1_555
C57_7 C26_7 1_555 1_555
H43_7 C57_7 1_555 1_555
H44_7 C57_7 1_555 1_555
H45_7 C57_7 1_555 1_555
C60_7 H46_7 1_555 1_555
H47_7 C60_7 1_555 1_555
H48_7 C60_7 1_555 1_555
C63_7 C52_7 1_555 1_555
H52_7 C63_7 1_555 1_555
H53_7 C63_7 1_555 1_555
H54_7 C63_7 1_555 1_555
C64_7 N6_7 1_555 1_555
C70_7 C4_7 1_555 1_555
H64_7 C70_7 1_555 1_555
H65_7 C70_7 1_555 1_555
H66_7 C70_7 1_555 1_555
C72_7 C35_7 1_555 1_555
C73_7 C21_7 1_555 1_555
H67_7 C73_7 1_555 1_555
H68_7 C73_7 1_555 1_555
H69_7 C73_7 1_555 1_555
C76_7 C18_7 1_555 1_555
Ag11_5 O32_7 1_555 1_555
F29_7 C87_7 1_555 1_555
F30_7 C87_7 1_555 1_555
F31_7 C78_7 1_555 1_555
O29_7 C83_7 1_555 1_555
O30_7 C77_7 1_555 1_555
O31_7 Ag3_7 1_555 1_555
O32_7 C77_7 1_555 1_555
C77_7 C87_7 1_555 1_555
C78_7 C83_7 1_555 1_555
C83_7 O31_7 1_555 1_555
C87_7 C78_7 1_555 1_555
Ag13_5 N15_7 1_555 1_555
N15_7 C90_7 1_555 1_555
N16_7 Ag9_7 1_555 1_555
C89_7 H85_7 1_555 1_555
H86_7 C89_7 1_555 1_555
H87_7 C89_7 1_555 1_555
C90_7 C89_7 1_555 1_555
C91_7 H88_7 1_555 1_555
H89_7 C91_7 1_555 1_555
H90_7 C91_7 1_555 1_555
C92_7 H91_7 1_555 1_555
H92_7 C92_7 1_555 1_555
H93_7 C92_7 1_555 1_555
C93_7 H94_7 1_555 1_555
H95_7 C93_7 1_555 1_555
H96_7 C93_7 1_555 1_555
C94_7 N15_7 1_555 1_555
C95_7 N16_7 1_555 1_555
C96_7 N16_7 1_555 1_555
O37_7 Ag13_5 1_555 1_555
O38_7 Ag11_5 1_555 1_555
O41_5 Ag13_5 1_555 1_555
N20_5 Ag11_5 1_555 1_555
Ag26_6 O29_7 1_555 1_555
Ag30_5 N7_5 1_555 1_555
Ag31_7 O6_7 1_555 1_555
Ag32_5 O22_5 1_555 1_555
Ag34_7 O27_5 1_555 1_555
Ag35_10 O21_7 1_555 1_555
Ag9_7 O24_7 1_555 1_555
O24_7 C8_7 1_555 1_555
C4_7 C21_7 1_555 1_555
C15_7 C42_7 1_555 1_555
C36_7 C48_7 1_555 1_555
C41_7 C53_7 1_555 1_555
C42_7 C53_7 1_555 1_555
C43_7 C48_7 1_555 1_555
C52_7 C64_7 1_555 1_555
C60_7 C64_7 1_555 1_555
C90_7 C95_7 1_555 1_555
C91_7 C96_7 1_555 1_555
C92_7 C95_7 1_555 1_555
C93_7 C94_7 1_555 1_555
C94_7 C96_7 1_555 1_555
N13_7 Ag12_7 1_555 1_555
N14_7 C79_7 1_555 1_555
C79_7 C82_7 1_555 1_555
C80_7 N13_7 1_555 1_555
C81_7 N14_7 1_555 1_555
H74_7 C82_7 1_555 1_555
H75_7 C82_7 1_555 1_555
C84_7 C81_7 1_555 1_555
H76_7 C84_7 1_555 1_555
H77_7 C84_7 1_555 1_555
H78_7 C84_7 1_555 1_555
C85_7 C80_7 1_555 1_555
H79_7 C85_7 1_555 1_555
H80_7 C85_7 1_555 1_555
H81_7 C85_7 1_555 1_555
C86_7 H82_7 1_555 1_555
H83_7 C86_7 1_555 1_555
C88_7 N13_7 1_555 1_555
Ag20_7 N14_7 1_555 1_555
Ag12_7 O43_7 1_555 1_555
C79_7 C88_7 1_555 1_555
C80_7 C81_7 1_555 1_555
C86_7 C88_7 1_555 1_555
O37_8 Ag13_6 1_555 1_555
O38_8 Ag11_6 1_555 1_555
O41_6 Ag13_6 1_555 1_555
N20_6 Ag11_6 1_555 1_555
N13_8 Ag12_8 1_555 1_555
C80_8 N13_8 1_555 1_555
C84_8 C81_8 1_555 1_555
H76_8 C84_8 1_555 1_555
H77_8 C84_8 1_555 1_555
H78_8 C84_8 1_555 1_555
C85_8 C80_8 1_555 1_555
H79_8 C85_8 1_555 1_555
H80_8 C85_8 1_555 1_555
H81_8 C85_8 1_555 1_555
Ag12_8 O43_8 1_555 1_555
C80_8 C81_8 1_555 1_555
Ag8_8 O19_8 1_555 1_555
Ag9_8 O19_8 1_555 1_555
F7_8 C35_8 1_555 1_555
F8_8 C76_8 1_555 1_555
F12_8 C35_8 1_555 1_555
O3_8 C11_8 1_555 1_555
F15_8 C29_8 1_555 1_555
F16_8 C47_8 1_555 1_555
F17_8 C72_8 1_555 1_555
F20_8 C76_8 1_555 1_555
F21_8 C18_8 1_555 1_555
O6_8 C28_8 1_555 1_555
F24_8 C72_8 1_555 1_555
O35_3 C33_8 1_555 1_555
O10_8 C33_8 1_555 1_555
F26_8 C29_8 1_555 1_555
O16_8 Ag3_8 1_555 1_555
O19_8 C24_8 1_555 1_555
O21_8 C28_8 1_555 1_555
O22_6 C50_8 1_555 1_555
N5_8 Ag8_8 1_555 1_555
N6_8 Ag17_4 1_555 1_555
O24_8 Ag8_8 1_555 1_555
F27_8 C18_8 1_555 1_555
N7_6 C26_8 1_555 1_555
N19_4 C43_8 1_555 1_555
F28_8 C47_8 1_555 1_555
C6_8 H10_8 1_555 1_555
H11_8 C6_8 1_555 1_555
H12_8 C6_8 1_555 1_555
C8_8 O23_8 1_555 1_555
O27_6 C50_8 1_555 1_555
C11_8 O17_8 1_555 1_555
C12_8 N4_8 1_555 1_555
C15_8 H16_8 1_555 1_555
H17_8 C15_8 1_555 1_555
H18_8 C15_8 1_555 1_555
C18_8 C8_8 1_555 1_555
C21_8 N5_8 1_555 1_555
C24_8 O16_8 1_555 1_555
C26_8 C12_8 1_555 1_555
C28_8 C72_8 1_555 1_555
C29_8 C24_8 1_555 1_555
C33_8 C47_8 1_555 1_555
C35_8 C11_8 1_555 1_555
C36_8 H25_8 1_555 1_555
H26_8 C36_8 1_555 1_555
H27_8 C36_8 1_555 1_555
C41_8 H28_8 1_555 1_555
H29_8 C41_8 1_555 1_555
H30_8 C41_8 1_555 1_555
C42_8 N4_8 1_555 1_555
C43_8 C45_8 1_555 1_555
C45_8 H31_8 1_555 1_555
H32_8 C45_8 1_555 1_555
H33_8 C45_8 1_555 1_555
C48_8 N6_8 1_555 1_555
C50_8 C76_8 1_555 1_555
C52_8 N19_4 1_555 1_555
C53_8 N7_6 1_555 1_555
C57_8 C26_8 1_555 1_555
H43_8 C57_8 1_555 1_555
H44_8 C57_8 1_555 1_555
H45_8 C57_8 1_555 1_555
C60_8 H46_8 1_555 1_555
H47_8 C60_8 1_555 1_555
H48_8 C60_8 1_555 1_555
C63_8 C52_8 1_555 1_555
H52_8 C63_8 1_555 1_555
H53_8 C63_8 1_555 1_555
H54_8 C63_8 1_555 1_555
C64_8 N6_8 1_555 1_555
C70_8 C4_8 1_555 1_555
H64_8 C70_8 1_555 1_555
H65_8 C70_8 1_555 1_555
H66_8 C70_8 1_555 1_555
C72_8 C35_8 1_555 1_555
C73_8 C21_8 1_555 1_555
H67_8 C73_8 1_555 1_555
H68_8 C73_8 1_555 1_555
H69_8 C73_8 1_555 1_555
C76_8 C18_8 1_555 1_555
F29_8 C87_8 1_555 1_555
F30_8 C87_8 1_555 1_555
F31_8 C78_8 1_555 1_555
O29_8 C83_8 1_555 1_555
O30_8 C77_8 1_555 1_555
O31_8 Ag3_8 1_555 1_555
O32_8 C77_8 1_555 1_555
C77_8 C87_8 1_555 1_555
C78_8 C83_8 1_555 1_555
C83_8 O31_8 1_555 1_555
C87_8 C78_8 1_555 1_555
N15_8 C90_8 1_555 1_555
N16_8 Ag9_8 1_555 1_555
C89_8 H85_8 1_555 1_555
H86_8 C89_8 1_555 1_555
H87_8 C89_8 1_555 1_555
C90_8 C89_8 1_555 1_555
C91_8 H88_8 1_555 1_555
H89_8 C91_8 1_555 1_555
H90_8 C91_8 1_555 1_555
C92_8 H91_8 1_555 1_555
H92_8 C92_8 1_555 1_555
H93_8 C92_8 1_555 1_555
C93_8 H94_8 1_555 1_555
H95_8 C93_8 1_555 1_555
H96_8 C93_8 1_555 1_555
C94_8 N15_8 1_555 1_555
C95_8 N16_8 1_555 1_555
C96_8 N16_8 1_555 1_555
Ag26_4 O29_8 1_555 1_555
Ag30_6 N7_6 1_555 1_555
Ag31_8 O6_8 1_555 1_555
Ag35_11 O21_8 1_555 1_555
Ag9_8 O24_8 1_555 1_555
O24_8 C8_8 1_555 1_555
C4_8 C21_8 1_555 1_555
C15_8 C42_8 1_555 1_555
C36_8 C48_8 1_555 1_555
C41_8 C53_8 1_555 1_555
C42_8 C53_8 1_555 1_555
C43_8 C48_8 1_555 1_555
C52_8 C64_8 1_555 1_555
C60_8 C64_8 1_555 1_555
C90_8 C95_8 1_555 1_555
C91_8 C96_8 1_555 1_555
C92_8 C95_8 1_555 1_555
C93_8 C94_8 1_555 1_555
C94_8 C96_8 1_555 1_555
N14_8 C79_8 1_555 1_555
C79_8 C82_8 1_555 1_555
H74_8 C82_8 1_555 1_555
H75_8 C82_8 1_555 1_555
C86_8 H82_8 1_555 1_555
H83_8 C86_8 1_555 1_555
Ag20_8 N14_8 1_555 1_555
C79_8 C88_8 1_555 1_555
C86_8 C88_8 1_555 1_555
Ag2_8 O5_8 1_555 1_555
Ag6_8 O20_8 1_555 1_555
Ag21_3 O8_8 1_555 1_555
O1_8 C20_8 1_555 1_555
F1_8 C19_8 1_555 1_555
F2_8 C59_8 1_555 1_555
F3_8 C59_8 1_555 1_555
F4_8 C40_8 1_555 1_555
F5_8 C14_8 1_555 1_555
F6_8 C69_8 1_555 1_555
F9_8 C13_8 1_555 1_555
F10_8 C14_8 1_555 1_555
F11_8 C23_8 1_555 1_555
O33_4 C32_8 1_555 1_555
F13_8 C69_8 1_555 1_555
F14_8 C27_8 1_555 1_555
O4_8 C75_8 1_555 1_555
O5_8 C44_8 1_555 1_555
F18_8 C40_8 1_555 1_555
F19_8 C27_8 1_555 1_555
N1_8 C1_8 1_555 1_555
F22_8 C23_8 1_555 1_555
F23_8 C13_8 1_555 1_555
N2_8 Ag1_8 1_555 1_555
O8_8 C44_8 1_555 1_555
O9_8 C20_8 1_555 1_555
O11_8 C16_8 1_555 1_555
O12_8 C16_8 1_555 1_555
O13_8 Ag2_8 1_555 1_555
O14_8 Ag1_8 1_555 1_555
F25_8 C19_8 1_555 1_555
O15_8 C17_8 1_555 1_555
N3_8 C68_8 1_555 1_555
O20_8 C51_8 1_555 1_555
C1_8 C5_8 1_555 1_555
C2_8 H1_8 1_555 1_555
H2_8 C2_8 1_555 1_555
H3_8 C2_8 1_555 1_555
O41_5 C75_8 1_555 1_555
C3_8 H4_8 1_555 1_555
H5_8 C3_8 1_555 1_555
H6_8 C3_8 1_555 1_555
N9_8 Ag18_4 1_555 1_555
C5_8 H7_8 1_555 1_555
H8_8 C5_8 1_555 1_555
H9_8 C5_8 1_555 1_555
C7_8 H13_8 1_555 1_555
H14_8 C7_8 1_555 1_555
H15_8 C7_8 1_555 1_555
C9_8 N2_8 1_555 1_555
C10_8 N9_8 1_555 1_555
C13_8 C58_8 1_555 1_555
C14_8 C40_8 1_555 1_555
C16_8 C19_8 1_555 1_555
C17_8 O14_8 1_555 1_555
C19_8 C27_8 1_555 1_555
C20_8 C40_8 1_555 1_555
C22_8 N9_8 1_555 1_555
C25_8 H19_8 1_555 1_555
H20_8 C25_8 1_555 1_555
H21_8 C25_8 1_555 1_555
C27_8 C17_8 1_555 1_555
C31_8 C38_8 1_555 1_555
C32_8 O18_8 1_555 1_555
H22_8 C34_8 1_555 1_555
H23_8 C34_8 1_555 1_555
C37_8 C1_8 1_555 1_555
C38_8 N1_8 1_555 1_555
C39_8 C2_8 1_555 1_555
N10_8 Ag6_8 1_555 1_555
C44_8 C14_8 1_555 1_555
C46_8 C30_8 1_555 1_555
H34_8 C46_8 1_555 1_555
H35_8 C46_8 1_555 1_555
H36_8 C46_8 1_555 1_555
N11_8 C56_8 1_555 1_555
C49_8 N10_8 1_555 1_555
C51_8 O13_8 1_555 1_555
N20_5 C31_8 1_555 1_555
C54_8 C31_8 1_555 1_555
H37_8 C54_8 1_555 1_555
H38_8 C54_8 1_555 1_555
H39_8 C54_8 1_555 1_555
C55_8 C49_8 1_555 1_555
H40_8 C55_8 1_555 1_555
H41_8 C55_8 1_555 1_555
H42_8 C55_8 1_555 1_555
C56_8 C49_8 1_555 1_555
C58_8 O26_8 1_555 1_555
C59_8 C51_8 1_555 1_555
C61_8 C39_8 1_555 1_555
C62_8 C22_8 1_555 1_555
H49_8 C62_8 1_555 1_555
H50_8 C62_8 1_555 1_555
H51_8 C62_8 1_555 1_555
C65_8 C10_8 1_555 1_555
H55_8 C65_8 1_555 1_555
H56_8 C65_8 1_555 1_555
H57_8 C65_8 1_555 1_555
C66_8 C56_8 1_555 1_555
H58_8 C66_8 1_555 1_555
H59_8 C66_8 1_555 1_555
H60_8 C66_8 1_555 1_555
C67_8 C61_8 1_555 1_555
H61_8 C67_8 1_555 1_555
H62_8 C67_8 1_555 1_555
H63_8 C67_8 1_555 1_555
C68_8 C10_8 1_555 1_555
C69_8 C13_8 1_555 1_555
C71_8 N3_8 1_555 1_555
C74_8 C37_8 1_555 1_555
H70_8 C74_8 1_555 1_555
H71_8 C74_8 1_555 1_555
H72_8 C74_8 1_555 1_555
C75_8 C69_8 1_555 1_555
Ag30_5 O1_8 1_555 1_555
Ag32_5 O4_8 1_555 1_555
Ag34_7 O1_8 1_555 1_555
Ag22_8 O9_8 1_555 1_555
O34_8 Ag30_5 1_555 1_555
N17_8 Ag32_5 1_555 1_555
O39_8 Ag34_7 1_555 1_555
Ag25_3 O12_8 1_555 1_555
Ag27_3 O12_8 1_555 1_555
N21_8 Ag19_3 1_555 1_555
Ag29_8 O11_8 1_555 1_555
Ag33_8 N3_8 1_555 1_555
C3_8 C9_8 1_555 1_555
C7_8 C71_8 1_555 1_555
C9_8 C30_8 1_555 1_555
C22_8 C71_8 1_555 1_555
C23_8 C32_8 1_555 1_555
C25_8 C68_8 1_555 1_555
C37_8 N20_5 1_555 1_555
C39_8 N10_8 1_555 1_555
N11_8 C61_8 1_555 1_555
N11_8 Ag34_7 1_555 1_555
O28_8 C58_8 1_555 1_555
Ag1_9 O3_9 1_555 1_555
Ag2_9 O5_9 1_555 1_555
Ag3_9 N1_9 1_555 1_555
Ag17_5 O15_9 1_555 1_555
Ag6_9 O20_9 1_555 1_555
Ag19 O10_9 1_555 1_555
Ag8_9 O19_9 1_555 1_555
Ag9_9 O19_9 1_555 1_555
Ag21 O8_9 1_555 1_555
O1_9 C20_9 1_555 1_555
F1_9 C19_9 1_555 1_555
F2_9 C59_9 1_555 1_555
F3_9 C59_9 1_555 1_555
F4_9 C40_9 1_555 1_555
F5_9 C14_9 1_555 1_555
F6_9 C69_9 1_555 1_555
F7_9 C35_9 1_555 1_555
F8_9 C76_9 1_555 1_555
F9_9 C13_9 1_555 1_555
F10_9 C14_9 1_555 1_555
F11_9 C23_9 1_555 1_555
O33_5 C32_9 1_555 1_555
F12_9 C35_9 1_555 1_555
O3_9 C11_9 1_555 1_555
F13_9 C69_9 1_555 1_555
F14_9 C27_9 1_555 1_555
O4_9 C75_9 1_555 1_555
F15_9 C29_9 1_555 1_555
F16_9 C47_9 1_555 1_555
F17_9 C72_9 1_555 1_555
O5_9 C44_9 1_555 1_555
F18_9 C40_9 1_555 1_555
F19_9 C27_9 1_555 1_555
N1_9 C1_9 1_555 1_555
F20_9 C76_9 1_555 1_555
F21_9 C18_9 1_555 1_555
F22_9 C23_9 1_555 1_555
F23_9 C13_9 1_555 1_555
O6_9 C28_9 1_555 1_555
F24_9 C72_9 1_555 1_555
N2_9 Ag1_9 1_555 1_555
O35 C33_9 1_555 1_555
O8_9 C44_9 1_555 1_555
O9_9 C20_9 1_555 1_555
O10_9 C33_9 1_555 1_555
O11_9 C16_9 1_555 1_555
O12_9 C16_9 1_555 1_555
O13_9 Ag2_9 1_555 1_555
O14_9 Ag1_9 1_555 1_555
F25_9 C19_9 1_555 1_555
O15_9 C17_9 1_555 1_555
F26_9 C29_9 1_555 1_555
O16_9 Ag3_9 1_555 1_555
N3_9 C68_9 1_555 1_555
O17_9 Ag19 1_555 1_555
O18_9 Ag17_5 1_555 1_555
O19_9 C24_9 1_555 1_555
O20_9 C51_9 1_555 1_555
C1_9 C5_9 1_555 1_555
O21_9 C28_9 1_555 1_555
N4_9 Ag2_9 1_555 1_555
C2_9 H1_9 1_555 1_555
H2_9 C2_9 1_555 1_555
H3_9 C2_9 1_555 1_555
O40_3 C50_9 1_555 1_555
N5_9 Ag8_9 1_555 1_555
O23_9 Ag6_9 1_555 1_555
N6_9 Ag17_5 1_555 1_555
O24_9 Ag8_9 1_555 1_555
O41_6 C75_9 1_555 1_555
O26_9 Ag9_9 1_555 1_555
F27_9 C18_9 1_555 1_555
N18_3 C26_9 1_555 1_555
C3_9 H4_9 1_555 1_555
H5_9 C3_9 1_555 1_555
H6_9 C3_9 1_555 1_555
N19_5 C43_9 1_555 1_555
F28_9 C47_9 1_555 1_555
N9_9 Ag18_5 1_555 1_555
C4_9 N2_9 1_555 1_555
C5_9 H7_9 1_555 1_555
H8_9 C5_9 1_555 1_555
H9_9 C5_9 1_555 1_555
C6_9 H10_9 1_555 1_555
H11_9 C6_9 1_555 1_555
H12_9 C6_9 1_555 1_555
C7_9 H13_9 1_555 1_555
H14_9 C7_9 1_555 1_555
H15_9 C7_9 1_555 1_555
C8_9 O23_9 1_555 1_555
O42_3 C50_9 1_555 1_555
C9_9 N2_9 1_555 1_555
C10_9 N9_9 1_555 1_555
C11_9 O17_9 1_555 1_555
C12_9 N4_9 1_555 1_555
C13_9 C58_9 1_555 1_555
C14_9 C40_9 1_555 1_555
C15_9 H16_9 1_555 1_555
H17_9 C15_9 1_555 1_555
H18_9 C15_9 1_555 1_555
C16_9 C19_9 1_555 1_555
C17_9 O14_9 1_555 1_555
C18_9 C8_9 1_555 1_555
C19_9 C27_9 1_555 1_555
C20_9 C40_9 1_555 1_555
C21_9 N5_9 1_555 1_555
C22_9 N9_9 1_555 1_555
C23_9 C29_9 1_555 1_555
C24_9 O16_9 1_555 1_555
C25_9 H19_9 1_555 1_555
H20_9 C25_9 1_555 1_555
H21_9 C25_9 1_555 1_555
C26_9 C12_9 1_555 1_555
C27_9 C17_9 1_555 1_555
C28_9 C72_9 1_555 1_555
C29_9 C24_9 1_555 1_555
C30_9 N5_9 1_555 1_555
C31_9 C38_9 1_555 1_555
C32_9 O18_9 1_555 1_555
C33_9 C47_9 1_555 1_555
C34_9 C12_9 1_555 1_555
H22_9 C34_9 1_555 1_555
H23_9 C34_9 1_555 1_555
H24_9 C34_9 1_555 1_555
C35_9 C11_9 1_555 1_555
C36_9 H25_9 1_555 1_555
H26_9 C36_9 1_555 1_555
H27_9 C36_9 1_555 1_555
C37_9 C1_9 1_555 1_555
C38_9 N1_9 1_555 1_555
C39_9 C2_9 1_555 1_555
N10_9 Ag6_9 1_555 1_555
C41_9 H28_9 1_555 1_555
H29_9 C41_9 1_555 1_555
H30_9 C41_9 1_555 1_555
C42_9 N4_9 1_555 1_555
C43_9 C45_9 1_555 1_555
C44_9 C14_9 1_555 1_555
C45_9 H31_9 1_555 1_555
H32_9 C45_9 1_555 1_555
H33_9 C45_9 1_555 1_555
C46_9 C30_9 1_555 1_555
H34_9 C46_9 1_555 1_555
H35_9 C46_9 1_555 1_555
H36_9 C46_9 1_555 1_555
C47_9 C59_9 1_555 1_555
N11_9 C56_9 1_555 1_555
C48_9 N6_9 1_555 1_555
C49_9 N10_9 1_555 1_555
O28_9 Ag8_9 1_555 1_555
C50_9 C76_9 1_555 1_555
C51_9 O13_9 1_555 1_555
N20_6 C31_9 1_555 1_555
C52_9 N19_5 1_555 1_555
C53_9 N18_3 1_555 1_555
C54_9 C31_9 1_555 1_555
H37_9 C54_9 1_555 1_555
H38_9 C54_9 1_555 1_555
H39_9 C54_9 1_555 1_555
C55_9 C49_9 1_555 1_555
H40_9 C55_9 1_555 1_555
H41_9 C55_9 1_555 1_555
H42_9 C55_9 1_555 1_555
C56_9 C49_9 1_555 1_555
C57_9 C26_9 1_555 1_555
H43_9 C57_9 1_555 1_555
H44_9 C57_9 1_555 1_555
H45_9 C57_9 1_555 1_555
C58_9 O26_9 1_555 1_555
C59_9 C51_9 1_555 1_555
C60_9 H46_9 1_555 1_555
H47_9 C60_9 1_555 1_555
H48_9 C60_9 1_555 1_555
C61_9 C39_9 1_555 1_555
C62_9 C22_9 1_555 1_555
H49_9 C62_9 1_555 1_555
H50_9 C62_9 1_555 1_555
H51_9 C62_9 1_555 1_555
C63_9 C52_9 1_555 1_555
H52_9 C63_9 1_555 1_555
H53_9 C63_9 1_555 1_555
H54_9 C63_9 1_555 1_555
C64_9 N6_9 1_555 1_555
C65_9 C10_9 1_555 1_555
H55_9 C65_9 1_555 1_555
H56_9 C65_9 1_555 1_555
H57_9 C65_9 1_555 1_555
C66_9 C56_9 1_555 1_555
H58_9 C66_9 1_555 1_555
H59_9 C66_9 1_555 1_555
H60_9 C66_9 1_555 1_555
C67_9 C61_9 1_555 1_555
H61_9 C67_9 1_555 1_555
H62_9 C67_9 1_555 1_555
H63_9 C67_9 1_555 1_555
C68_9 C10_9 1_555 1_555
C69_9 C13_9 1_555 1_555
C70_9 C4_9 1_555 1_555
H64_9 C70_9 1_555 1_555
H65_9 C70_9 1_555 1_555
H66_9 C70_9 1_555 1_555
C71_9 N3_9 1_555 1_555
C72_9 C35_9 1_555 1_555
C73_9 C21_9 1_555 1_555
H67_9 C73_9 1_555 1_555
H68_9 C73_9 1_555 1_555
H69_9 C73_9 1_555 1_555
C74_9 C37_9 1_555 1_555
H70_9 C74_9 1_555 1_555
H71_9 C74_9 1_555 1_555
H72_9 C74_9 1_555 1_555
C75_9 C69_9 1_555 1_555
C76_9 C18_9 1_555 1_555
F29_9 C87_9 1_555 1_555
F30_9 C87_9 1_555 1_555
F31_9 C78_9 1_555 1_555
O29_9 C83_9 1_555 1_555
O30_9 C77_9 1_555 1_555
O31_9 Ag3_9 1_555 1_555
O32_9 C77_9 1_555 1_555
C77_9 C87_9 1_555 1_555
C78_9 C83_9 1_555 1_555
C83_9 O31_9 1_555 1_555
C87_9 C78_9 1_555 1_555
N15_9 C90_9 1_555 1_555
N16_9 Ag9_9 1_555 1_555
C89_9 H85_9 1_555 1_555
H86_9 C89_9 1_555 1_555
H87_9 C89_9 1_555 1_555
C90_9 C89_9 1_555 1_555
C91_9 H88_9 1_555 1_555
H89_9 C91_9 1_555 1_555
H90_9 C91_9 1_555 1_555
C92_9 H91_9 1_555 1_555
H92_9 C92_9 1_555 1_555
H93_9 C92_9 1_555 1_555
C93_9 H94_9 1_555 1_555
H95_9 C93_9 1_555 1_555
H96_9 C93_9 1_555 1_555
C94_9 N15_9 1_555 1_555
C95_9 N16_9 1_555 1_555
C96_9 N16_9 1_555 1_555
Ag32_6 O4_9 1_555 1_555
Ag34_8 O1_9 1_555 1_555
O36_9 Ag21 1_555 1_555
N17_9 Ag32_6 1_555 1_555
Ag25 O12_9 1_555 1_555
Ag27 O12_9 1_555 1_555
Ag26_5 O29_9 1_555 1_555
N21_9 Ag19 1_555 1_555
Ag29_9 O11_9 1_555 1_555
Ag31_9 O6_9 1_555 1_555
Ag33_9 N3_9 1_555 1_555
Ag35_12 O21_9 1_555 1_555
Ag9_9 O24_9 1_555 1_555
O24_9 C8_9 1_555 1_555
C3_9 C9_9 1_555 1_555
C4_9 C21_9 1_555 1_555
C6_9 C38_9 1_555 1_555
C7_9 C71_9 1_555 1_555
C9_9 C30_9 1_555 1_555
C15_9 C42_9 1_555 1_555
C22_9 C71_9 1_555 1_555
C23_9 C32_9 1_555 1_555
C25_9 C68_9 1_555 1_555
C36_9 C48_9 1_555 1_555
C37_9 N20_6 1_555 1_555
C39_9 N10_9 1_555 1_555
C41_9 C53_9 1_555 1_555
C42_9 C53_9 1_555 1_555
C43_9 C48_9 1_555 1_555
N11_9 C61_9 1_555 1_555
N11_9 Ag34_8 1_555 1_555
O28_9 C58_9 1_555 1_555
C52_9 C64_9 1_555 1_555
C60_9 C64_9 1_555 1_555
C90_9 C95_9 1_555 1_555
C91_9 C96_9 1_555 1_555
C92_9 C95_9 1_555 1_555
C93_9 C94_9 1_555 1_555
C94_9 C96_9 1_555 1_555
N14_9 C79_9 1_555 1_555
C79_9 C82_9 1_555 1_555
H74_9 C82_9 1_555 1_555
H75_9 C82_9 1_555 1_555
C86_9 H82_9 1_555 1_555
H83_9 C86_9 1_555 1_555
Ag20_9 N14_9 1_555 1_555
C79_9 C88_9 1_555 1_555
C86_9 C88_9 1_555 1_555
O34_9 Ag30_6 1_555 1_555
O37_9 Ag28_3 1_555 1_555
O38_9 Ag23_3 1_555 1_555
N13_9 Ag12_9 1_555 1_555
C80_9 N13_9 1_555 1_555
C84_9 C81_9 1_555 1_555
H76_9 C84_9 1_555 1_555
H77_9 C84_9 1_555 1_555
H78_9 C84_9 1_555 1_555
C85_9 C80_9 1_555 1_555
H79_9 C85_9 1_555 1_555
H80_9 C85_9 1_555 1_555
H81_9 C85_9 1_555 1_555
Ag12_9 O43_9 1_555 1_555
C80_9 C81_9 1_555 1_555
Ag1_10 O3_10 1_555 1_555
Ag2_10 O5_10 1_555 1_555
Ag3_10 N1_10 1_555 1_555
Ag4_4 O15_10 1_555 1_555
Ag5_4 O2_4 1_555 1_555
Ag6_10 O20_10 1_555 1_555
Ag20_3 O10_10 1_555 1_555
Ag8_10 O19_10 1_555 1_555
Ag9_10 O19_10 1_555 1_555
Ag22_6 O8_10 1_555 1_555
O1_10 C20_10 1_555 1_555
F1_10 C19_10 1_555 1_555
F2_10 C59_10 1_555 1_555
F3_10 C59_10 1_555 1_555
F4_10 C40_10 1_555 1_555
F5_10 C14_10 1_555 1_555
F6_10 C69_10 1_555 1_555
F7_10 C35_10 1_555 1_555
F8_10 C76_10 1_555 1_555
F9_10 C13_10 1_555 1_555
F10_10 C14_10 1_555 1_555
F11_10 C23_10 1_555 1_555
O2_4 C32_10 1_555 1_555
F12_10 C35_10 1_555 1_555
O3_10 C11_10 1_555 1_555
F13_10 C69_10 1_555 1_555
F14_10 C27_10 1_555 1_555
O4_10 C75_10 1_555 1_555
F15_10 C29_10 1_555 1_555
F16_10 C47_10 1_555 1_555
F17_10 C72_10 1_555 1_555
O5_10 C44_10 1_555 1_555
F18_10 C40_10 1_555 1_555
F19_10 C27_10 1_555 1_555
N1_10 C1_10 1_555 1_555
F20_10 C76_10 1_555 1_555
F21_10 C18_10 1_555 1_555
F22_10 C23_10 1_555 1_555
F23_10 C13_10 1_555 1_555
O34_8 C28_10 1_555 1_555
F24_10 C72_10 1_555 1_555
N2_10 Ag1_10 1_555 1_555
O7_7 C33_10 1_555 1_555
O8_10 C44_10 1_555 1_555
O36_5 C20_10 1_555 1_555
O10_10 C33_10 1_555 1_555
O37_3 C16_10 1_555 1_555
O38_3 C16_10 1_555 1_555
O13_10 Ag2_10 1_555 1_555
O14_10 Ag1_10 1_555 1_555
F25_10 C19_10 1_555 1_555
O15_10 C17_10 1_555 1_555
F26_10 C29_10 1_555 1_555
O16_10 Ag3_10 1_555 1_555
N17 C68_10 1_555 1_555
O17_10 Ag20_3 1_555 1_555
O18_10 Ag4_4 1_555 1_555
O19_10 C24_10 1_555 1_555
O20_10 C51_10 1_555 1_555
C1_10 C5_10 1_555 1_555
O39_8 C28_10 1_555 1_555
N4_10 Ag2_10 1_555 1_555
C2_10 H1_10 1_555 1_555
H2_10 C2_10 1_555 1_555
H3_10 C2_10 1_555 1_555
O22_7 C50_10 1_555 1_555
N5_10 Ag8_10 1_555 1_555
O23_10 Ag6_10 1_555 1_555
N6_10 Ag4_4 1_555 1_555
O24_10 Ag8_10 1_555 1_555
O25_4 C75_10 1_555 1_555
O26_10 Ag9_10 1_555 1_555
F27_10 C18_10 1_555 1_555
N7_7 C26_10 1_555 1_555
C3_10 H4_10 1_555 1_555
H5_10 C3_10 1_555 1_555
H6_10 C3_10 1_555 1_555
N8_4 C43_10 1_555 1_555
F28_10 C47_10 1_555 1_555
N9_10 Ag5_4 1_555 1_555
C4_10 N2_10 1_555 1_555
C5_10 H7_10 1_555 1_555
H8_10 C5_10 1_555 1_555
H9_10 C5_10 1_555 1_555
C6_10 H10_10 1_555 1_555
H11_10 C6_10 1_555 1_555
H12_10 C6_10 1_555 1_555
C7_10 H13_10 1_555 1_555
H14_10 C7_10 1_555 1_555
H15_10 C7_10 1_555 1_555
C8_10 O23_10 1_555 1_555
O27_7 C50_10 1_555 1_555
C9_10 N2_10 1_555 1_555
C10_10 N9_10 1_555 1_555
C11_10 O17_10 1_555 1_555
C12_10 N4_10 1_555 1_555
C13_10 C58_10 1_555 1_555
C14_10 C40_10 1_555 1_555
C15_10 H16_10 1_555 1_555
H17_10 C15_10 1_555 1_555
H18_10 C15_10 1_555 1_555
C16_10 C19_10 1_555 1_555
C17_10 O14_10 1_555 1_555
C18_10 C8_10 1_555 1_555
C19_10 C27_10 1_555 1_555
C20_10 C40_10 1_555 1_555
C21_10 N5_10 1_555 1_555
C22_10 N9_10 1_555 1_555
C23_10 C29_10 1_555 1_555
C24_10 O16_10 1_555 1_555
C25_10 H19_10 1_555 1_555
H20_10 C25_10 1_555 1_555
H21_10 C25_10 1_555 1_555
C26_10 C12_10 1_555 1_555
C27_10 C17_10 1_555 1_555
C28_10 C72_10 1_555 1_555
C29_10 C24_10 1_555 1_555
C30_10 N5_10 1_555 1_555
C31_10 C38_10 1_555 1_555
C32_10 O18_10 1_555 1_555
C33_10 C47_10 1_555 1_555
C34_10 C12_10 1_555 1_555
H22_10 C34_10 1_555 1_555
H23_10 C34_10 1_555 1_555
H24_10 C34_10 1_555 1_555
C35_10 C11_10 1_555 1_555
C36_10 H25_10 1_555 1_555
H26_10 C36_10 1_555 1_555
H27_10 C36_10 1_555 1_555
C37_10 C1_10 1_555 1_555
C38_10 N1_10 1_555 1_555
C39_10 C2_10 1_555 1_555
N10_10 Ag6_10 1_555 1_555
C41_10 H28_10 1_555 1_555
H29_10 C41_10 1_555 1_555
H30_10 C41_10 1_555 1_555
C42_10 N4_10 1_555 1_555
C43_10 C45_10 1_555 1_555
C44_10 C14_10 1_555 1_555
C45_10 H31_10 1_555 1_555
H32_10 C45_10 1_555 1_555
H33_10 C45_10 1_555 1_555
C46_10 C30_10 1_555 1_555
H34_10 C46_10 1_555 1_555
H35_10 C46_10 1_555 1_555
H36_10 C46_10 1_555 1_555
C47_10 C59_10 1_555 1_555
N11_10 C56_10 1_555 1_555
C48_10 N6_10 1_555 1_555
C49_10 N10_10 1_555 1_555
O28_10 Ag8_10 1_555 1_555
C50_10 C76_10 1_555 1_555
C51_10 O13_10 1_555 1_555
N12_4 C31_10 1_555 1_555
C52_10 N8_4 1_555 1_555
C53_10 N7_7 1_555 1_555
C54_10 C31_10 1_555 1_555
H37_10 C54_10 1_555 1_555
H38_10 C54_10 1_555 1_555
H39_10 C54_10 1_555 1_555
C55_10 C49_10 1_555 1_555
H40_10 C55_10 1_555 1_555
H41_10 C55_10 1_555 1_555
H42_10 C55_10 1_555 1_555
C56_10 C49_10 1_555 1_555
C57_10 C26_10 1_555 1_555
H43_10 C57_10 1_555 1_555
H44_10 C57_10 1_555 1_555
H45_10 C57_10 1_555 1_555
C58_10 O26_10 1_555 1_555
C59_10 C51_10 1_555 1_555
C60_10 H46_10 1_555 1_555
H47_10 C60_10 1_555 1_555
H48_10 C60_10 1_555 1_555
C61_10 C39_10 1_555 1_555
C62_10 C22_10 1_555 1_555
H49_10 C62_10 1_555 1_555
H50_10 C62_10 1_555 1_555
H51_10 C62_10 1_555 1_555
C63_10 C52_10 1_555 1_555
H52_10 C63_10 1_555 1_555
H53_10 C63_10 1_555 1_555
H54_10 C63_10 1_555 1_555
C64_10 N6_10 1_555 1_555
C65_10 C10_10 1_555 1_555
H55_10 C65_10 1_555 1_555
H56_10 C65_10 1_555 1_555
H57_10 C65_10 1_555 1_555
C66_10 C56_10 1_555 1_555
H58_10 C66_10 1_555 1_555
H59_10 C66_10 1_555 1_555
H60_10 C66_10 1_555 1_555
C67_10 C61_10 1_555 1_555
H61_10 C67_10 1_555 1_555
H62_10 C67_10 1_555 1_555
H63_10 C67_10 1_555 1_555
C68_10 C10_10 1_555 1_555
C69_10 C13_10 1_555 1_555
C70_10 C4_10 1_555 1_555
H64_10 C70_10 1_555 1_555
H65_10 C70_10 1_555 1_555
H66_10 C70_10 1_555 1_555
C71_10 N17 1_555 1_555
C72_10 C35_10 1_555 1_555
C73_10 C21_10 1_555 1_555
H67_10 C73_10 1_555 1_555
H68_10 C73_10 1_555 1_555
H69_10 C73_10 1_555 1_555
C74_10 C37_10 1_555 1_555
H70_10 C74_10 1_555 1_555
H71_10 C74_10 1_555 1_555
H72_10 C74_10 1_555 1_555
C75_10 C69_10 1_555 1_555
C76_10 C18_10 1_555 1_555
Ag24_2 O32_10 1_555 1_555
Ag26_2 O30_10 1_555 1_555
F29_10 C87_10 1_555 1_555
F30_10 C87_10 1_555 1_555
F31_10 C78_10 1_555 1_555
F32_10 C78_10 1_555 1_555
O43_5 C83_10 1_555 1_555
O30_10 C77_10 1_555 1_555
O31_10 Ag3_10 1_555 1_555
O32_10 C77_10 1_555 1_555
C77_10 C87_10 1_555 1_555
N13_10 Ag26_2 1_555 1_555
N21_2 C79_10 1_555 1_555
C78_10 C83_10 1_555 1_555
C79_10 C82_10 1_555 1_555
C80_10 N13_10 1_555 1_555
C81_10 N21_2 1_555 1_555
C82_10 H73_10 1_555 1_555
H74_10 C82_10 1_555 1_555
H75_10 C82_10 1_555 1_555
C83_10 O31_10 1_555 1_555
C84_10 C81_10 1_555 1_555
H76_10 C84_10 1_555 1_555
H77_10 C84_10 1_555 1_555
H78_10 C84_10 1_555 1_555
C85_10 C80_10 1_555 1_555
H79_10 C85_10 1_555 1_555
H80_10 C85_10 1_555 1_555
H81_10 C85_10 1_555 1_555
C86_10 H82_10 1_555 1_555
H83_10 C86_10 1_555 1_555
H84_10 C86_10 1_555 1_555
C87_10 C78_10 1_555 1_555
C88_10 N13_10 1_555 1_555
Ag29_2 N15_10 1_555 1_555
N15_10 C90_10 1_555 1_555
N16_10 Ag9_10 1_555 1_555
C89_10 H85_10 1_555 1_555
H86_10 C89_10 1_555 1_555
H87_10 C89_10 1_555 1_555
C90_10 C89_10 1_555 1_555
C91_10 H88_10 1_555 1_555
H89_10 C91_10 1_555 1_555
H90_10 C91_10 1_555 1_555
C92_10 H91_10 1_555 1_555
H92_10 C92_10 1_555 1_555
H93_10 C92_10 1_555 1_555
C93_10 H94_10 1_555 1_555
H95_10 C93_10 1_555 1_555
H96_10 C93_10 1_555 1_555
C94_10 N15_10 1_555 1_555
C95_10 N16_10 1_555 1_555
C96_10 N16_10 1_555 1_555
Ag31_9 O1_10 1_555 1_555
Ag33 O4_10 1_555 1_555
Ag35_12 O1_10 1_555 1_555
Ag17_7 O7_7 1_555 1_555
Ag18_7 O7_7 1_555 1_555
Ag20_5 O2_4 1_555 1_555
Ag22_8 N8_4 1_555 1_555
O33_7 Ag20_3 1_555 1_555
O35_4 Ag4_4 1_555 1_555
O40_4 Ag33 1_555 1_555
O41_7 Ag29_2 1_555 1_555
N18_4 Ag31_9 1_555 1_555
N19_7 Ag22_6 1_555 1_555
O42_4 Ag35_12 1_555 1_555
N20_7 Ag24_2 1_555 1_555
Ag24 N12_4 1_555 1_555
Ag29 O25_4 1_555 1_555
Ag31_7 N7_7 1_555 1_555
Ag33_2 O22_7 1_555 1_555
Ag35_10 O27_7 1_555 1_555
Ag5_4 O35_4 1_555 1_555
Ag9_10 O24_10 1_555 1_555
O24_10 C8_10 1_555 1_555
C3_10 C9_10 1_555 1_555
C4_10 C21_10 1_555 1_555
C6_10 C38_10 1_555 1_555
C7_10 C71_10 1_555 1_555
C9_10 C30_10 1_555 1_555
C15_10 C42_10 1_555 1_555
C22_10 C71_10 1_555 1_555
C23_10 C32_10 1_555 1_555
C25_10 C68_10 1_555 1_555
C36_10 C48_10 1_555 1_555
C37_10 N12_4 1_555 1_555
C39_10 N10_10 1_555 1_555
C41_10 C53_10 1_555 1_555
C42_10 C53_10 1_555 1_555
C43_10 C48_10 1_555 1_555
N11_10 C61_10 1_555 1_555
N11_10 Ag35_12 1_555 1_555
O28_10 C58_10 1_555 1_555
C52_10 C64_10 1_555 1_555
C60_10 C64_10 1_555 1_555
C79_10 C88_10 1_555 1_555
C80_10 C81_10 1_555 1_555
C86_10 C88_10 1_555 1_555
C90_10 C95_10 1_555 1_555
C91_10 C96_10 1_555 1_555
C92_10 C95_10 1_555 1_555
C93_10 C94_10 1_555 1_555
C94_10 C96_10 1_555 1_555
Ag18_7 O33_7 1_555 1_555
Ag1_11 O3_11 1_555 1_555
Ag4_5 O15_11 1_555 1_555
F1_11 C19_11 1_555 1_555
F7_11 C35_11 1_555 1_555
F12_11 C35_11 1_555 1_555
O3_11 C11_11 1_555 1_555
F14_11 C27_11 1_555 1_555
F19_11 C27_11 1_555 1_555
O37 C16_11 1_555 1_555
O38 C16_11 1_555 1_555
O14_11 Ag1_11 1_555 1_555
F25_11 C19_11 1_555 1_555
O15_11 C17_11 1_555 1_555
N17_2 C68_11 1_555 1_555
O17_11 Ag20 1_555 1_555
N6_11 Ag4_5 1_555 1_555
C3_11 H4_11 1_555 1_555
H5_11 C3_11 1_555 1_555
H6_11 C3_11 1_555 1_555
N9_11 Ag5_5 1_555 1_555
C7_11 H13_11 1_555 1_555
H14_11 C7_11 1_555 1_555
H15_11 C7_11 1_555 1_555
C10_11 N9_11 1_555 1_555
C11_11 O17_11 1_555 1_555
C16_11 C19_11 1_555 1_555
C17_11 O14_11 1_555 1_555
C19_11 C27_11 1_555 1_555
C22_11 N9_11 1_555 1_555
C25_11 H19_11 1_555 1_555
H20_11 C25_11 1_555 1_555
H21_11 C25_11 1_555 1_555
C27_11 C17_11 1_555 1_555
C35_11 C11_11 1_555 1_555
C60_11 H46_11 1_555 1_555
H47_11 C60_11 1_555 1_555
H48_11 C60_11 1_555 1_555
C62_11 C22_11 1_555 1_555
H49_11 C62_11 1_555 1_555
H50_11 C62_11 1_555 1_555
H51_11 C62_11 1_555 1_555
C63_11 C52_11 1_555 1_555
H52_11 C63_11 1_555 1_555
H53_11 C63_11 1_555 1_555
H54_11 C63_11 1_555 1_555
C64_11 N6_11 1_555 1_555
C65_11 C10_11 1_555 1_555
H55_11 C65_11 1_555 1_555
H56_11 C65_11 1_555 1_555
H57_11 C65_11 1_555 1_555
C68_11 C10_11 1_555 1_555
C71_11 N17_2 1_555 1_555
O33_8 Ag20 1_555 1_555
O35_5 Ag4_5 1_555 1_555
Ag5_5 O35_5 1_555 1_555
C7_11 C71_11 1_555 1_555
C22_11 C71_11 1_555 1_555
C25_11 C68_11 1_555 1_555
C52_11 C64_11 1_555 1_555
C60_11 C64_11 1_555 1_555
Ag18_8 O33_8 1_555 1_555
Ag2_11 O5_11 1_555 1_555
Ag3_11 N1_11 1_555 1_555
Ag6_11 O20_11 1_555 1_555
Ag8_11 O19_11 1_555 1_555
Ag9_11 O19_11 1_555 1_555
Ag22_4 O8_11 1_555 1_555
O1_11 C20_11 1_555 1_555
F2_11 C59_11 1_555 1_555
F3_11 C59_11 1_555 1_555
F4_11 C40_11 1_555 1_555
F5_11 C14_11 1_555 1_555
F6_11 C69_11 1_555 1_555
F8_11 C76_11 1_555 1_555
F9_11 C13_11 1_555 1_555
F10_11 C14_11 1_555 1_555
F11_11 C23_11 1_555 1_555
O2_5 C32_11 1_555 1_555
F13_11 C69_11 1_555 1_555
O4_11 C75_11 1_555 1_555
F15_11 C29_11 1_555 1_555
F16_11 C47_11 1_555 1_555
F17_11 C72_11 1_555 1_555
O5_11 C44_11 1_555 1_555
F18_11 C40_11 1_555 1_555
N1_11 C1_11 1_555 1_555
F20_11 C76_11 1_555 1_555
F21_11 C18_11 1_555 1_555
F22_11 C23_11 1_555 1_555
F23_11 C13_11 1_555 1_555
O34_9 C28_11 1_555 1_555
F24_11 C72_11 1_555 1_555
O7_8 C33_11 1_555 1_555
O8_11 C44_11 1_555 1_555
O36_6 C20_11 1_555 1_555
O10_11 C33_11 1_555 1_555
O13_11 Ag2_11 1_555 1_555
F26_11 C29_11 1_555 1_555
O16_11 Ag3_11 1_555 1_555
O19_11 C24_11 1_555 1_555
O20_11 C51_11 1_555 1_555
C1_11 C5_11 1_555 1_555
O39_9 C28_11 1_555 1_555
N4_11 Ag2_11 1_555 1_555
C2_11 H1_11 1_555 1_555
H2_11 C2_11 1_555 1_555
H3_11 C2_11 1_555 1_555
O22_8 C50_11 1_555 1_555
N5_11 Ag8_11 1_555 1_555
O23_11 Ag6_11 1_555 1_555
O24_11 Ag8_11 1_555 1_555
O41_7 C75_11 1_555 1_555
O26_11 Ag9_11 1_555 1_555
F27_11 C18_11 1_555 1_555
N7_8 C26_11 1_555 1_555
N8_5 C43_11 1_555 1_555
F28_11 C47_11 1_555 1_555
C4_11 N2_11 1_555 1_555
C5_11 H7_11 1_555 1_555
H8_11 C5_11 1_555 1_555
H9_11 C5_11 1_555 1_555
C6_11 H10_11 1_555 1_555
H11_11 C6_11 1_555 1_555
H12_11 C6_11 1_555 1_555
C8_11 O23_11 1_555 1_555
O27_8 C50_11 1_555 1_555
C9_11 N2_11 1_555 1_555
C12_11 N4_11 1_555 1_555
C13_11 C58_11 1_555 1_555
C14_11 C40_11 1_555 1_555
C15_11 H16_11 1_555 1_555
H17_11 C15_11 1_555 1_555
H18_11 C15_11 1_555 1_555
C18_11 C8_11 1_555 1_555
C20_11 C40_11 1_555 1_555
C21_11 N5_11 1_555 1_555
C23_11 C29_11 1_555 1_555
C24_11 O16_11 1_555 1_555
C26_11 C12_11 1_555 1_555
C28_11 C72_11 1_555 1_555
C29_11 C24_11 1_555 1_555
C30_11 N5_11 1_555 1_555
C31_11 C38_11 1_555 1_555
C32_11 O18_11 1_555 1_555
C33_11 C47_11 1_555 1_555
C34_11 C12_11 1_555 1_555
H22_11 C34_11 1_555 1_555
H23_11 C34_11 1_555 1_555
H24_11 C34_11 1_555 1_555
C36_11 H25_11 1_555 1_555
H26_11 C36_11 1_555 1_555
H27_11 C36_11 1_555 1_555
C37_11 C1_11 1_555 1_555
C38_11 N1_11 1_555 1_555
C39_11 C2_11 1_555 1_555
N10_11 Ag6_11 1_555 1_555
C41_11 H28_11 1_555 1_555
H29_11 C41_11 1_555 1_555
H30_11 C41_11 1_555 1_555
C42_11 N4_11 1_555 1_555
C43_11 C45_11 1_555 1_555
C44_11 C14_11 1_555 1_555
C45_11 H31_11 1_555 1_555
H32_11 C45_11 1_555 1_555
H33_11 C45_11 1_555 1_555
C46_11 C30_11 1_555 1_555
H34_11 C46_11 1_555 1_555
H35_11 C46_11 1_555 1_555
H36_11 C46_11 1_555 1_555
C47_11 C59_11 1_555 1_555
N11_11 C56_11 1_555 1_555
C49_11 N10_11 1_555 1_555
O28_11 Ag8_11 1_555 1_555
C50_11 C76_11 1_555 1_555
C51_11 O13_11 1_555 1_555
N20_7 C31_11 1_555 1_555
C53_11 N7_8 1_555 1_555
C54_11 C31_11 1_555 1_555
H37_11 C54_11 1_555 1_555
H38_11 C54_11 1_555 1_555
H39_11 C54_11 1_555 1_555
C55_11 C49_11 1_555 1_555
H40_11 C55_11 1_555 1_555
H41_11 C55_11 1_555 1_555
H42_11 C55_11 1_555 1_555
C56_11 C49_11 1_555 1_555
C57_11 C26_11 1_555 1_555
H43_11 C57_11 1_555 1_555
H44_11 C57_11 1_555 1_555
H45_11 C57_11 1_555 1_555
C58_11 O26_11 1_555 1_555
C59_11 C51_11 1_555 1_555
C61_11 C39_11 1_555 1_555
C66_11 C56_11 1_555 1_555
H58_11 C66_11 1_555 1_555
H59_11 C66_11 1_555 1_555
H60_11 C66_11 1_555 1_555
C67_11 C61_11 1_555 1_555
H61_11 C67_11 1_555 1_555
H62_11 C67_11 1_555 1_555
H63_11 C67_11 1_555 1_555
C69_11 C13_11 1_555 1_555
C70_11 C4_11 1_555 1_555
H64_11 C70_11 1_555 1_555
H65_11 C70_11 1_555 1_555
H66_11 C70_11 1_555 1_555
C73_11 C21_11 1_555 1_555
H67_11 C73_11 1_555 1_555
H68_11 C73_11 1_555 1_555
H69_11 C73_11 1_555 1_555
C74_11 C37_11 1_555 1_555
H70_11 C74_11 1_555 1_555
H71_11 C74_11 1_555 1_555
H72_11 C74_11 1_555 1_555
C75_11 C69_11 1_555 1_555
C76_11 C18_11 1_555 1_555
Ag24_3 O32_11 1_555 1_555
Ag26_3 O30_11 1_555 1_555
F29_11 C87_11 1_555 1_555
F30_11 C87_11 1_555 1_555
F31_11 C78_11 1_555 1_555
F32_11 C78_11 1_555 1_555
O43_6 C83_11 1_555 1_555
O30_11 C77_11 1_555 1_555
O31_11 Ag3_11 1_555 1_555
O32_11 C77_11 1_555 1_555
C77_11 C87_11 1_555 1_555
N13_11 Ag26_3 1_555 1_555
N21_3 C79_11 1_555 1_555
C78_11 C83_11 1_555 1_555
C79_11 C82_11 1_555 1_555
C80_11 N13_11 1_555 1_555
C81_11 N21_3 1_555 1_555
C82_11 H73_11 1_555 1_555
H74_11 C82_11 1_555 1_555
H75_11 C82_11 1_555 1_555
C83_11 O31_11 1_555 1_555
C84_11 C81_11 1_555 1_555
H76_11 C84_11 1_555 1_555
H77_11 C84_11 1_555 1_555
H78_11 C84_11 1_555 1_555
C85_11 C80_11 1_555 1_555
H79_11 C85_11 1_555 1_555
H80_11 C85_11 1_555 1_555
H81_11 C85_11 1_555 1_555
C86_11 H82_11 1_555 1_555
H83_11 C86_11 1_555 1_555
H84_11 C86_11 1_555 1_555
C87_11 C78_11 1_555 1_555
C88_11 N13_11 1_555 1_555
Ag29_3 N15_11 1_555 1_555
N15_11 C90_11 1_555 1_555
N16_11 Ag9_11 1_555 1_555
C89_11 H85_11 1_555 1_555
H86_11 C89_11 1_555 1_555
H87_11 C89_11 1_555 1_555
C90_11 C89_11 1_555 1_555
C91_11 H88_11 1_555 1_555
H89_11 C91_11 1_555 1_555
H90_11 C91_11 1_555 1_555
C92_11 H91_11 1_555 1_555
H92_11 C92_11 1_555 1_555
H93_11 C92_11 1_555 1_555
C93_11 H94_11 1_555 1_555
H95_11 C93_11 1_555 1_555
H96_11 C93_11 1_555 1_555
C94_11 N15_11 1_555 1_555
C95_11 N16_11 1_555 1_555
C96_11 N16_11 1_555 1_555
Ag31_7 O1_11 1_555 1_555
Ag33_2 O4_11 1_555 1_555
Ag35_10 O1_11 1_555 1_555
Ag17_8 O7_8 1_555 1_555
Ag20_6 O2_5 1_555 1_555
Ag22_9 N8_5 1_555 1_555
O41_8 Ag29_3 1_555 1_555
N19_8 Ag22_4 1_555 1_555
N20_8 Ag24_3 1_555 1_555
Ag31_8 N7_8 1_555 1_555
Ag33_3 O22_8 1_555 1_555
Ag35_11 O27_8 1_555 1_555
Ag9_11 O24_11 1_555 1_555
O24_11 C8_11 1_555 1_555
C4_11 C21_11 1_555 1_555
C6_11 C38_11 1_555 1_555
C9_11 C30_11 1_555 1_555
C15_11 C42_11 1_555 1_555
C23_11 C32_11 1_555 1_555
C36_11 C48_11 1_555 1_555
C37_11 N20_7 1_555 1_555
C39_11 N10_11 1_555 1_555
C41_11 C53_11 1_555 1_555
C42_11 C53_11 1_555 1_555
C43_11 C48_11 1_555 1_555
N11_11 C61_11 1_555 1_555
N11_11 Ag35_10 1_555 1_555
O28_11 C58_11 1_555 1_555
C79_11 C88_11 1_555 1_555
C80_11 C81_11 1_555 1_555
C86_11 C88_11 1_555 1_555
C90_11 C95_11 1_555 1_555
C91_11 C96_11 1_555 1_555
C92_11 C95_11 1_555 1_555
C93_11 C94_11 1_555 1_555
C94_11 C96_11 1_555 1_555
Ag2_12 O5_12 1_555 1_555
Ag3_12 N1_12 1_555 1_555
Ag6_12 O20_12 1_555 1_555
Ag8_12 O19_12 1_555 1_555
Ag9_12 O19_12 1_555 1_555
Ag22_5 O8_12 1_555 1_555
O1_12 C20_12 1_555 1_555
F2_12 C59_12 1_555 1_555
F3_12 C59_12 1_555 1_555
F4_12 C40_12 1_555 1_555
F5_12 C14_12 1_555 1_555
F6_12 C69_12 1_555 1_555
F8_12 C76_12 1_555 1_555
F9_12 C13_12 1_555 1_555
F10_12 C14_12 1_555 1_555
F11_12 C23_12 1_555 1_555
O2_6 C32_12 1_555 1_555
F13_12 C69_12 1_555 1_555
O4_12 C75_12 1_555 1_555
F15_12 C29_12 1_555 1_555
F16_12 C47_12 1_555 1_555
F17_12 C72_12 1_555 1_555
O5_12 C44_12 1_555 1_555
F18_12 C40_12 1_555 1_555
N1_12 C1_12 1_555 1_555
F20_12 C76_12 1_555 1_555
F21_12 C18_12 1_555 1_555
F22_12 C23_12 1_555 1_555
F23_12 C13_12 1_555 1_555
O34_7 C28_12 1_555 1_555
F24_12 C72_12 1_555 1_555
O7_9 C33_12 1_555 1_555
O8_12 C44_12 1_555 1_555
O36_4 C20_12 1_555 1_555
O10_12 C33_12 1_555 1_555
O13_12 Ag2_12 1_555 1_555
F26_12 C29_12 1_555 1_555
O16_12 Ag3_12 1_555 1_555
O19_12 C24_12 1_555 1_555
O20_12 C51_12 1_555 1_555
C1_12 C5_12 1_555 1_555
O39_7 C28_12 1_555 1_555
N4_12 Ag2_12 1_555 1_555
C2_12 H1_12 1_555 1_555
H2_12 C2_12 1_555 1_555
H3_12 C2_12 1_555 1_555
O40_4 C50_12 1_555 1_555
N5_12 Ag8_12 1_555 1_555
O23_12 Ag6_12 1_555 1_555
O24_12 Ag8_12 1_555 1_555
O41_8 C75_12 1_555 1_555
O26_12 Ag9_12 1_555 1_555
F27_12 C18_12 1_555 1_555
N18_4 C26_12 1_555 1_555
N8_6 C43_12 1_555 1_555
F28_12 C47_12 1_555 1_555
C4_12 N2_12 1_555 1_555
C5_12 H7_12 1_555 1_555
H8_12 C5_12 1_555 1_555
H9_12 C5_12 1_555 1_555
C6_12 H10_12 1_555 1_555
H11_12 C6_12 1_555 1_555
H12_12 C6_12 1_555 1_555
C8_12 O23_12 1_555 1_555
O42_4 C50_12 1_555 1_555
C9_12 N2_12 1_555 1_555
C12_12 N4_12 1_555 1_555
C13_12 C58_12 1_555 1_555
C14_12 C40_12 1_555 1_555
C15_12 H16_12 1_555 1_555
H17_12 C15_12 1_555 1_555
H18_12 C15_12 1_555 1_555
C18_12 C8_12 1_555 1_555
C20_12 C40_12 1_555 1_555
C21_12 N5_12 1_555 1_555
C23_12 C29_12 1_555 1_555
C24_12 O16_12 1_555 1_555
C26_12 C12_12 1_555 1_555
C28_12 C72_12 1_555 1_555
C29_12 C24_12 1_555 1_555
C30_12 N5_12 1_555 1_555
C31_12 C38_12 1_555 1_555
C32_12 O18_12 1_555 1_555
C33_12 C47_12 1_555 1_555
C34_12 C12_12 1_555 1_555
H22_12 C34_12 1_555 1_555
H23_12 C34_12 1_555 1_555
H24_12 C34_12 1_555 1_555
C36_12 H25_12 1_555 1_555
H26_12 C36_12 1_555 1_555
H27_12 C36_12 1_555 1_555
C37_12 C1_12 1_555 1_555
C38_12 N1_12 1_555 1_555
C39_12 C2_12 1_555 1_555
N10_12 Ag6_12 1_555 1_555
C41_12 H28_12 1_555 1_555
H29_12 C41_12 1_555 1_555
H30_12 C41_12 1_555 1_555
C42_12 N4_12 1_555 1_555
C43_12 C45_12 1_555 1_555
C44_12 C14_12 1_555 1_555
C45_12 H31_12 1_555 1_555
H32_12 C45_12 1_555 1_555
H33_12 C45_12 1_555 1_555
C46_12 C30_12 1_555 1_555
H34_12 C46_12 1_555 1_555
H35_12 C46_12 1_555 1_555
H36_12 C46_12 1_555 1_555
C47_12 C59_12 1_555 1_555
N11_12 C56_12 1_555 1_555
C49_12 N10_12 1_555 1_555
O28_12 Ag8_12 1_555 1_555
C50_12 C76_12 1_555 1_555
C51_12 O13_12 1_555 1_555
N20_8 C31_12 1_555 1_555
C53_12 N18_4 1_555 1_555
C54_12 C31_12 1_555 1_555
H37_12 C54_12 1_555 1_555
H38_12 C54_12 1_555 1_555
H39_12 C54_12 1_555 1_555
C55_12 C49_12 1_555 1_555
H40_12 C55_12 1_555 1_555
H41_12 C55_12 1_555 1_555
H42_12 C55_12 1_555 1_555
C56_12 C49_12 1_555 1_555
C57_12 C26_12 1_555 1_555
H43_12 C57_12 1_555 1_555
H44_12 C57_12 1_555 1_555
H45_12 C57_12 1_555 1_555
C58_12 O26_12 1_555 1_555
C59_12 C51_12 1_555 1_555
C61_12 C39_12 1_555 1_555
C66_12 C56_12 1_555 1_555
H58_12 C66_12 1_555 1_555
H59_12 C66_12 1_555 1_555
H60_12 C66_12 1_555 1_555
C67_12 C61_12 1_555 1_555
H61_12 C67_12 1_555 1_555
H62_12 C67_12 1_555 1_555
H63_12 C67_12 1_555 1_555
C69_12 C13_12 1_555 1_555
C70_12 C4_12 1_555 1_555
H64_12 C70_12 1_555 1_555
H65_12 C70_12 1_555 1_555
H66_12 C70_12 1_555 1_555
C73_12 C21_12 1_555 1_555
H67_12 C73_12 1_555 1_555
H68_12 C73_12 1_555 1_555
H69_12 C73_12 1_555 1_555
C74_12 C37_12 1_555 1_555
H70_12 C74_12 1_555 1_555
H71_12 C74_12 1_555 1_555
H72_12 C74_12 1_555 1_555
C75_12 C69_12 1_555 1_555
C76_12 C18_12 1_555 1_555
Ag24 O32_12 1_555 1_555
Ag26 O30_12 1_555 1_555
F29_12 C87_12 1_555 1_555
F30_12 C87_12 1_555 1_555
F31_12 C78_12 1_555 1_555
F32_12 C78_12 1_555 1_555
O43_4 C83_12 1_555 1_555
O30_12 C77_12 1_555 1_555
O31_12 Ag3_12 1_555 1_555
O32_12 C77_12 1_555 1_555
C77_12 C87_12 1_555 1_555
N13_12 Ag26 1_555 1_555
N21 C79_12 1_555 1_555
C78_12 C83_12 1_555 1_555
C79_12 C82_12 1_555 1_555
C80_12 N13_12 1_555 1_555
C81_12 N21 1_555 1_555
C82_12 H73_12 1_555 1_555
H74_12 C82_12 1_555 1_555
H75_12 C82_12 1_555 1_555
C83_12 O31_12 1_555 1_555
C84_12 C81_12 1_555 1_555
H76_12 C84_12 1_555 1_555
H77_12 C84_12 1_555 1_555
H78_12 C84_12 1_555 1_555
C85_12 C80_12 1_555 1_555
H79_12 C85_12 1_555 1_555
H80_12 C85_12 1_555 1_555
H81_12 C85_12 1_555 1_555
C86_12 H82_12 1_555 1_555
H83_12 C86_12 1_555 1_555
H84_12 C86_12 1_555 1_555
C87_12 C78_12 1_555 1_555
C88_12 N13_12 1_555 1_555
Ag29 N15_12 1_555 1_555
N15_12 C90_12 1_555 1_555
N16_12 Ag9_12 1_555 1_555
C89_12 H85_12 1_555 1_555
H86_12 C89_12 1_555 1_555
H87_12 C89_12 1_555 1_555
C90_12 C89_12 1_555 1_555
C91_12 H88_12 1_555 1_555
H89_12 C91_12 1_555 1_555
H90_12 C91_12 1_555 1_555
C92_12 H91_12 1_555 1_555
H92_12 C92_12 1_555 1_555
H93_12 C92_12 1_555 1_555
C93_12 H94_12 1_555 1_555
H95_12 C93_12 1_555 1_555
H96_12 C93_12 1_555 1_555
C94_12 N15_12 1_555 1_555
C95_12 N16_12 1_555 1_555
C96_12 N16_12 1_555 1_555
Ag31_8 O1_12 1_555 1_555
Ag33_3 O4_12 1_555 1_555
Ag35_11 O1_12 1_555 1_555
Ag17_9 O7_9 1_555 1_555
Ag20_4 O2_6 1_555 1_555
Ag22_7 N8_6 1_555 1_555
N19_9 Ag22_5 1_555 1_555
Ag9_12 O24_12 1_555 1_555
O24_12 C8_12 1_555 1_555
C4_12 C21_12 1_555 1_555
C6_12 C38_12 1_555 1_555
C9_12 C30_12 1_555 1_555
C15_12 C42_12 1_555 1_555
C23_12 C32_12 1_555 1_555
C36_12 C48_12 1_555 1_555
C37_12 N20_8 1_555 1_555
C39_12 N10_12 1_555 1_555
C41_12 C53_12 1_555 1_555
C42_12 C53_12 1_555 1_555
C43_12 C48_12 1_555 1_555
N11_12 C61_12 1_555 1_555
N11_12 Ag35_11 1_555 1_555
O28_12 C58_12 1_555 1_555
C79_12 C88_12 1_555 1_555
C80_12 C81_12 1_555 1_555
C86_12 C88_12 1_555 1_555
C90_12 C95_12 1_555 1_555
C91_12 C96_12 1_555 1_555
C92_12 C95_12 1_555 1_555
C93_12 C94_12 1_555 1_555
C94_12 C96_12 1_555 1_555
Ag1_12 O3_12 1_555 1_555
Ag4_6 O15_12 1_555 1_555
F1_12 C19_12 1_555 1_555
F7_12 C35_12 1_555 1_555
F12_12 C35_12 1_555 1_555
O3_12 C11_12 1_555 1_555
F14_12 C27_12 1_555 1_555
F19_12 C27_12 1_555 1_555
O37_2 C16_12 1_555 1_555
O38_2 C16_12 1_555 1_555
O14_12 Ag1_12 1_555 1_555
F25_12 C19_12 1_555 1_555
O15_12 C17_12 1_555 1_555
N17_3 C68_12 1_555 1_555
O17_12 Ag20_2 1_555 1_555
N6_12 Ag4_6 1_555 1_555
C3_12 H4_12 1_555 1_555
H5_12 C3_12 1_555 1_555
H6_12 C3_12 1_555 1_555
N9_12 Ag5_6 1_555 1_555
C7_12 H13_12 1_555 1_555
H14_12 C7_12 1_555 1_555
H15_12 C7_12 1_555 1_555
C10_12 N9_12 1_555 1_555
C11_12 O17_12 1_555 1_555
C16_12 C19_12 1_555 1_555
C17_12 O14_12 1_555 1_555
C19_12 C27_12 1_555 1_555
C22_12 N9_12 1_555 1_555
C25_12 H19_12 1_555 1_555
H20_12 C25_12 1_555 1_555
H21_12 C25_12 1_555 1_555
C27_12 C17_12 1_555 1_555
C35_12 C11_12 1_555 1_555
C60_12 H46_12 1_555 1_555
H47_12 C60_12 1_555 1_555
H48_12 C60_12 1_555 1_555
C62_12 C22_12 1_555 1_555
H49_12 C62_12 1_555 1_555
H50_12 C62_12 1_555 1_555
H51_12 C62_12 1_555 1_555
C63_12 C52_12 1_555 1_555
H52_12 C63_12 1_555 1_555
H53_12 C63_12 1_555 1_555
H54_12 C63_12 1_555 1_555
C64_12 N6_12 1_555 1_555
C65_12 C10_12 1_555 1_555
H55_12 C65_12 1_555 1_555
H56_12 C65_12 1_555 1_555
H57_12 C65_12 1_555 1_555
C68_12 C10_12 1_555 1_555
C71_12 N17_3 1_555 1_555
O33_9 Ag20_2 1_555 1_555
O35_6 Ag4_6 1_555 1_555
Ag5_6 O35_6 1_555 1_555
C7_12 C71_12 1_555 1_555
C22_12 C71_12 1_555 1_555
C25_12 C68_12 1_555 1_555
C52_12 C64_12 1_555 1_555
C60_12 C64_12 1_555 1_555
Ag18_9 O33_9 1_555 1_555
Ag1_13 O3_13 1_555 1_555
Ag17_9 O15_13 1_555 1_555
F7_13 C35_13 1_555 1_555
O3_13 C11_13 1_555 1_555
F14_13 C27_13 1_555 1_555
F19_13 C27_13 1_555 1_555
O34_5 C28_13 1_555 1_555
F24_13 C72_13 1_555 1_555
O14_13 Ag1_13 1_555 1_555
O15_13 C17_13 1_555 1_555
O39_5 C28_13 1_555 1_555
N6_13 Ag17_9 1_555 1_555
N19_9 C43_13 1_555 1_555
C7_13 H13_13 1_555 1_555
H14_13 C7_13 1_555 1_555
H15_13 C7_13 1_555 1_555
C17_13 O14_13 1_555 1_555
C27_13 C17_13 1_555 1_555
C28_13 C72_13 1_555 1_555
C35_13 C11_13 1_555 1_555
C36_13 H25_13 1_555 1_555
H26_13 C36_13 1_555 1_555
H27_13 C36_13 1_555 1_555
C43_13 C45_13 1_555 1_555
C45_13 H31_13 1_555 1_555
H32_13 C45_13 1_555 1_555
H33_13 C45_13 1_555 1_555
C48_13 N6_13 1_555 1_555
C52_13 N19_9 1_555 1_555
C60_13 H46_13 1_555 1_555
H47_13 C60_13 1_555 1_555
H48_13 C60_13 1_555 1_555
C62_13 C22_13 1_555 1_555
H49_13 C62_13 1_555 1_555
H50_13 C62_13 1_555 1_555
H51_13 C62_13 1_555 1_555
C63_13 C52_13 1_555 1_555
H52_13 C63_13 1_555 1_555
H53_13 C63_13 1_555 1_555
H54_13 C63_13 1_555 1_555
C64_13 N6_13 1_555 1_555
H64_13 C70_13 1_555 1_555
H65_13 C70_13 1_555 1_555
H66_13 C70_13 1_555 1_555
C72_13 C35_13 1_555 1_555
C7_13 C71_13 1_555 1_555
C22_13 C71_13 1_555 1_555
C36_13 C48_13 1_555 1_555
C43_13 C48_13 1_555 1_555
C52_13 C64_13 1_555 1_555
C60_13 C64_13 1_555 1_555
O17_13 Ag20_9 1_555 1_555
O33_10 Ag20_9 1_555 1_555
Ag18_10 O33_10 1_555 1_555
Ag3_13 N1_13 1_555 1_555
Ag8_13 O19_13 1_555 1_555
Ag9_13 O19_13 1_555 1_555
F1_13 C19_13 1_555 1_555
F6_13 C69_13 1_555 1_555
F8_13 C76_13 1_555 1_555
F9_13 C13_13 1_555 1_555
F11_13 C23_13 1_555 1_555
O33_9 C32_13 1_555 1_555
F13_13 C69_13 1_555 1_555
O4_13 C75_13 1_555 1_555
F15_13 C29_13 1_555 1_555
N1_13 C1_13 1_555 1_555
F20_13 C76_13 1_555 1_555
F21_13 C18_13 1_555 1_555
F22_13 C23_13 1_555 1_555
F23_13 C13_13 1_555 1_555
O37_9 C16_13 1_555 1_555
O38_9 C16_13 1_555 1_555
F25_13 C19_13 1_555 1_555
F26_13 C29_13 1_555 1_555
O16_13 Ag3_13 1_555 1_555
N17_7 C68_13 1_555 1_555
O19_13 C24_13 1_555 1_555
C1_13 C5_13 1_555 1_555
H3_13 C2_13 1_555 1_555
O22_9 C50_13 1_555 1_555
N5_13 Ag8_13 1_555 1_555
O24_13 Ag8_13 1_555 1_555
O25_5 C75_13 1_555 1_555
O26_13 Ag9_13 1_555 1_555
F27_13 C18_13 1_555 1_555
C3_13 H4_13 1_555 1_555
H5_13 C3_13 1_555 1_555
H6_13 C3_13 1_555 1_555
N9_13 Ag18_9 1_555 1_555
C4_13 N2_13 1_555 1_555
C5_13 H7_13 1_555 1_555
H8_13 C5_13 1_555 1_555
H9_13 C5_13 1_555 1_555
C6_13 H10_13 1_555 1_555
H11_13 C6_13 1_555 1_555
H12_13 C6_13 1_555 1_555
C8_13 O23_13 1_555 1_555
O27_9 C50_13 1_555 1_555
C9_13 N2_13 1_555 1_555
C10_13 N9_13 1_555 1_555
C13_13 C58_13 1_555 1_555
C16_13 C19_13 1_555 1_555
C18_13 C8_13 1_555 1_555
C21_13 N5_13 1_555 1_555
C23_13 C29_13 1_555 1_555
C24_13 O16_13 1_555 1_555
C25_13 H19_13 1_555 1_555
H20_13 C25_13 1_555 1_555
H21_13 C25_13 1_555 1_555
C29_13 C24_13 1_555 1_555
C30_13 N5_13 1_555 1_555
C31_13 C38_13 1_555 1_555
C32_13 O18_13 1_555 1_555
C37_13 C1_13 1_555 1_555
C38_13 N1_13 1_555 1_555
C39_13 C2_13 1_555 1_555
C46_13 C30_13 1_555 1_555
H34_13 C46_13 1_555 1_555
H35_13 C46_13 1_555 1_555
H36_13 C46_13 1_555 1_555
O28_13 Ag8_13 1_555 1_555
C50_13 C76_13 1_555 1_555
N12_5 C31_13 1_555 1_555
C54_13 C31_13 1_555 1_555
H37_13 C54_13 1_555 1_555
H38_13 C54_13 1_555 1_555
H39_13 C54_13 1_555 1_555
C58_13 O26_13 1_555 1_555
C61_13 C39_13 1_555 1_555
C65_13 C10_13 1_555 1_555
H55_13 C65_13 1_555 1_555
H56_13 C65_13 1_555 1_555
H57_13 C65_13 1_555 1_555
C67_13 C61_13 1_555 1_555
H62_13 C67_13 1_555 1_555
H63_13 C67_13 1_555 1_555
C68_13 C10_13 1_555 1_555
C69_13 C13_13 1_555 1_555
C73_13 C21_13 1_555 1_555
H67_13 C73_13 1_555 1_555
H68_13 C73_13 1_555 1_555
H69_13 C73_13 1_555 1_555
C74_13 C37_13 1_555 1_555
H70_13 C74_13 1_555 1_555
H71_13 C74_13 1_555 1_555
H72_13 C74_13 1_555 1_555
C75_13 C69_13 1_555 1_555
C76_13 C18_13 1_555 1_555
Ag25_3 O32_13 1_555 1_555
Ag27_3 O30_13 1_555 1_555
F29_13 C87_13 1_555 1_555
F30_13 C87_13 1_555 1_555
F31_13 C78_13 1_555 1_555
F32_13 C78_13 1_555 1_555
O43_2 C83_13 1_555 1_555
O30_13 C77_13 1_555 1_555
O31_13 Ag3_13 1_555 1_555
O32_13 C77_13 1_555 1_555
C77_13 C87_13 1_555 1_555
N13_13 Ag27_3 1_555 1_555
N21_8 C79_13 1_555 1_555
C78_13 C83_13 1_555 1_555
C79_13 C82_13 1_555 1_555
C80_13 N13_13 1_555 1_555
C81_13 N21_8 1_555 1_555
C82_13 H73_13 1_555 1_555
H74_13 C82_13 1_555 1_555
H75_13 C82_13 1_555 1_555
C83_13 O31_13 1_555 1_555
C84_13 C81_13 1_555 1_555
H76_13 C84_13 1_555 1_555
H77_13 C84_13 1_555 1_555
H78_13 C84_13 1_555 1_555
C85_13 C80_13 1_555 1_555
H79_13 C85_13 1_555 1_555
H80_13 C85_13 1_555 1_555
H81_13 C85_13 1_555 1_555
C86_13 H82_13 1_555 1_555
H83_13 C86_13 1_555 1_555
H84_13 C86_13 1_555 1_555
C87_13 C78_13 1_555 1_555
C88_13 N13_13 1_555 1_555
Ag29_8 N15_13 1_555 1_555
N15_13 C90_13 1_555 1_555
N16_13 Ag9_13 1_555 1_555
C89_13 H85_13 1_555 1_555
H86_13 C89_13 1_555 1_555
H87_13 C89_13 1_555 1_555
C90_13 C89_13 1_555 1_555
C91_13 H88_13 1_555 1_555
H89_13 C91_13 1_555 1_555
H90_13 C91_13 1_555 1_555
C92_13 H91_13 1_555 1_555
H92_13 C92_13 1_555 1_555
H93_13 C92_13 1_555 1_555
C93_13 H94_13 1_555 1_555
H95_13 C93_13 1_555 1_555
H96_13 C93_13 1_555 1_555
C94_13 N15_13 1_555 1_555
C95_13 N16_13 1_555 1_555
C96_13 N16_13 1_555 1_555
Ag33_7 O4_13 1_555 1_555
O40_5 Ag33_7 1_555 1_555
O41_9 Ag29_8 1_555 1_555
O42_5 Ag35_8 1_555 1_555
N20_9 Ag25_3 1_555 1_555
Ag25_2 N12_5 1_555 1_555
Ag29_7 O25_5 1_555 1_555
Ag33_8 O22_9 1_555 1_555
Ag35_4 O27_9 1_555 1_555
Ag9_13 O24_13 1_555 1_555
O24_13 C8_13 1_555 1_555
C3_13 C9_13 1_555 1_555
C4_13 C21_13 1_555 1_555
C6_13 C38_13 1_555 1_555
C9_13 C30_13 1_555 1_555
C23_13 C32_13 1_555 1_555
C25_13 C68_13 1_555 1_555
C37_13 N12_5 1_555 1_555
N11_13 C61_13 1_555 1_555
N11_13 Ag35_8 1_555 1_555
O28_13 C58_13 1_555 1_555
C79_13 C88_13 1_555 1_555
C80_13 C81_13 1_555 1_555
C86_13 C88_13 1_555 1_555
C90_13 C95_13 1_555 1_555
C91_13 C96_13 1_555 1_555
C92_13 C95_13 1_555 1_555
C93_13 C94_13 1_555 1_555
C94_13 C96_13 1_555 1_555
Ag2_13 O5_13 1_555 1_555
Ag6_13 O20_13 1_555 1_555
Ag22_3 O8_13 1_555 1_555
O1_13 C20_13 1_555 1_555
F2_13 C59_13 1_555 1_555
F3_13 C59_13 1_555 1_555
F4_13 C40_13 1_555 1_555
F5_13 C14_13 1_555 1_555
F10_13 C14_13 1_555 1_555
F16_13 C47_13 1_555 1_555
O5_13 C44_13 1_555 1_555
F18_13 C40_13 1_555 1_555
O7_10 C33_13 1_555 1_555
O8_13 C44_13 1_555 1_555
O36_2 C20_13 1_555 1_555
O10_13 C33_13 1_555 1_555
O13_13 Ag2_13 1_555 1_555
O20_13 C51_13 1_555 1_555
N4_13 Ag2_13 1_555 1_555
N7_9 C26_13 1_555 1_555
F28_13 C47_13 1_555 1_555
C12_13 N4_13 1_555 1_555
C14_13 C40_13 1_555 1_555
C15_13 H16_13 1_555 1_555
H17_13 C15_13 1_555 1_555
H18_13 C15_13 1_555 1_555
C20_13 C40_13 1_555 1_555
C26_13 C12_13 1_555 1_555
C33_13 C47_13 1_555 1_555
C34_13 C12_13 1_555 1_555
H22_13 C34_13 1_555 1_555
H23_13 C34_13 1_555 1_555
H24_13 C34_13 1_555 1_555
N10_13 Ag6_13 1_555 1_555
C41_13 H28_13 1_555 1_555
H29_13 C41_13 1_555 1_555
H30_13 C41_13 1_555 1_555
C42_13 N4_13 1_555 1_555
C44_13 C14_13 1_555 1_555
C47_13 C59_13 1_555 1_555
C49_13 N10_13 1_555 1_555
C51_13 O13_13 1_555 1_555
C53_13 N7_9 1_555 1_555
C55_13 C49_13 1_555 1_555
H41_13 C55_13 1_555 1_555
H42_13 C55_13 1_555 1_555
C56_13 C49_13 1_555 1_555
C57_13 C26_13 1_555 1_555
H43_13 C57_13 1_555 1_555
H44_13 C57_13 1_555 1_555
H45_13 C57_13 1_555 1_555
C59_13 C51_13 1_555 1_555
C66_13 C56_13 1_555 1_555
H58_13 C66_13 1_555 1_555
Ag31_6 O1_13 1_555 1_555
Ag35_9 O1_13 1_555 1_555
Ag17_10 O7_10 1_555 1_555
N18_5 Ag31_6 1_555 1_555
N19_10 Ag22_3 1_555 1_555
Ag31_4 N7_9 1_555 1_555
C15_13 C42_13 1_555 1_555
C41_13 C53_13 1_555 1_555
C42_13 C53_13 1_555 1_555
Ag1_14 O3_14 1_555 1_555
Ag3_14 N1_14 1_555 1_555
Ag17_7 O15_14 1_555 1_555
Ag8_14 O19_14 1_555 1_555
Ag9_14 O19_14 1_555 1_555
F1_14 C19_14 1_555 1_555
F6_14 C69_14 1_555 1_555
F7_14 C35_14 1_555 1_555
F8_14 C76_14 1_555 1_555
F9_14 C13_14 1_555 1_555
F11_14 C23_14 1_555 1_555
O33_7 C32_14 1_555 1_555
O3_14 C11_14 1_555 1_555
F13_14 C69_14 1_555 1_555
F14_14 C27_14 1_555 1_555
O4_14 C75_14 1_555 1_555
F15_14 C29_14 1_555 1_555
F19_14 C27_14 1_555 1_555
N1_14 C1_14 1_555 1_555
F20_14 C76_14 1_555 1_555
F21_14 C18_14 1_555 1_555
F22_14 C23_14 1_555 1_555
F23_14 C13_14 1_555 1_555
O34_6 C28_14 1_555 1_555
F24_14 C72_14 1_555 1_555
N2_14 Ag1_14 1_555 1_555
O37_7 C16_14 1_555 1_555
O38_7 C16_14 1_555 1_555
O14_14 Ag1_14 1_555 1_555
F25_14 C19_14 1_555 1_555
O15_14 C17_14 1_555 1_555
F26_14 C29_14 1_555 1_555
O16_14 Ag3_14 1_555 1_555
N17_8 C68_14 1_555 1_555
O18_14 Ag17_7 1_555 1_555
O19_14 C24_14 1_555 1_555
C1_14 C5_14 1_555 1_555
O39_6 C28_14 1_555 1_555
H3_14 C2_14 1_555 1_555
O22_10 C50_14 1_555 1_555
N5_14 Ag8_14 1_555 1_555
N6_14 Ag17_7 1_555 1_555
O24_14 Ag8_14 1_555 1_555
O41_9 C75_14 1_555 1_555
O26_14 Ag9_14 1_555 1_555
F27_14 C18_14 1_555 1_555
C3_14 H4_14 1_555 1_555
H5_14 C3_14 1_555 1_555
H6_14 C3_14 1_555 1_555
N19_7 C43_14 1_555 1_555
N9_14 Ag18_7 1_555 1_555
C4_14 N2_14 1_555 1_555
C5_14 H7_14 1_555 1_555
H8_14 C5_14 1_555 1_555
H9_14 C5_14 1_555 1_555
C6_14 H10_14 1_555 1_555
H11_14 C6_14 1_555 1_555
H12_14 C6_14 1_555 1_555
C7_14 H13_14 1_555 1_555
H14_14 C7_14 1_555 1_555
H15_14 C7_14 1_555 1_555
C8_14 O23_14 1_555 1_555
O27_10 C50_14 1_555 1_555
C9_14 N2_14 1_555 1_555
C10_14 N9_14 1_555 1_555
C13_14 C58_14 1_555 1_555
C16_14 C19_14 1_555 1_555
C17_14 O14_14 1_555 1_555
C18_14 C8_14 1_555 1_555
C19_14 C27_14 1_555 1_555
C21_14 N5_14 1_555 1_555
C22_14 N9_14 1_555 1_555
C23_14 C29_14 1_555 1_555
C24_14 O16_14 1_555 1_555
C25_14 H19_14 1_555 1_555
H20_14 C25_14 1_555 1_555
H21_14 C25_14 1_555 1_555
C27_14 C17_14 1_555 1_555
C28_14 C72_14 1_555 1_555
C29_14 C24_14 1_555 1_555
C30_14 N5_14 1_555 1_555
C31_14 C38_14 1_555 1_555
C32_14 O18_14 1_555 1_555
C35_14 C11_14 1_555 1_555
C36_14 H25_14 1_555 1_555
H26_14 C36_14 1_555 1_555
H27_14 C36_14 1_555 1_555
C37_14 C1_14 1_555 1_555
C38_14 N1_14 1_555 1_555
C39_14 C2_14 1_555 1_555
C43_14 C45_14 1_555 1_555
C45_14 H31_14 1_555 1_555
H32_14 C45_14 1_555 1_555
H33_14 C45_14 1_555 1_555
C46_14 C30_14 1_555 1_555
H34_14 C46_14 1_555 1_555
H35_14 C46_14 1_555 1_555
H36_14 C46_14 1_555 1_555
C48_14 N6_14 1_555 1_555
O28_14 Ag8_14 1_555 1_555
C50_14 C76_14 1_555 1_555
N20_9 C31_14 1_555 1_555
C52_14 N19_7 1_555 1_555
C54_14 C31_14 1_555 1_555
H37_14 C54_14 1_555 1_555
H38_14 C54_14 1_555 1_555
H39_14 C54_14 1_555 1_555
C58_14 O26_14 1_555 1_555
C60_14 H46_14 1_555 1_555
H47_14 C60_14 1_555 1_555
H48_14 C60_14 1_555 1_555
C61_14 C39_14 1_555 1_555
C62_14 C22_14 1_555 1_555
H49_14 C62_14 1_555 1_555
H50_14 C62_14 1_555 1_555
H51_14 C62_14 1_555 1_555
C63_14 C52_14 1_555 1_555
H52_14 C63_14 1_555 1_555
H53_14 C63_14 1_555 1_555
H54_14 C63_14 1_555 1_555
C64_14 N6_14 1_555 1_555
C65_14 C10_14 1_555 1_555
H55_14 C65_14 1_555 1_555
H56_14 C65_14 1_555 1_555
H57_14 C65_14 1_555 1_555
C67_14 C61_14 1_555 1_555
H62_14 C67_14 1_555 1_555
H63_14 C67_14 1_555 1_555
C68_14 C10_14 1_555 1_555
C69_14 C13_14 1_555 1_555
C70_14 C4_14 1_555 1_555
H64_14 C70_14 1_555 1_555
H65_14 C70_14 1_555 1_555
H66_14 C70_14 1_555 1_555
C71_14 N17_8 1_555 1_555
C72_14 C35_14 1_555 1_555
C73_14 C21_14 1_555 1_555
H67_14 C73_14 1_555 1_555
H68_14 C73_14 1_555 1_555
H69_14 C73_14 1_555 1_555
C74_14 C37_14 1_555 1_555
H70_14 C74_14 1_555 1_555
H71_14 C74_14 1_555 1_555
H72_14 C74_14 1_555 1_555
C75_14 C69_14 1_555 1_555
C76_14 C18_14 1_555 1_555
Ag25 O32_14 1_555 1_555
Ag27 O30_14 1_555 1_555
F29_14 C87_14 1_555 1_555
F30_14 C87_14 1_555 1_555
F31_14 C78_14 1_555 1_555
F32_14 C78_14 1_555 1_555
O43_3 C83_14 1_555 1_555
O30_14 C77_14 1_555 1_555
O31_14 Ag3_14 1_555 1_555
O32_14 C77_14 1_555 1_555
C77_14 C87_14 1_555 1_555
N13_14 Ag27 1_555 1_555
N21_9 C79_14 1_555 1_555
C78_14 C83_14 1_555 1_555
C79_14 C82_14 1_555 1_555
C80_14 N13_14 1_555 1_555
C81_14 N21_9 1_555 1_555
C82_14 H73_14 1_555 1_555
H74_14 C82_14 1_555 1_555
H75_14 C82_14 1_555 1_555
C83_14 O31_14 1_555 1_555
C84_14 C81_14 1_555 1_555
H76_14 C84_14 1_555 1_555
H77_14 C84_14 1_555 1_555
H78_14 C84_14 1_555 1_555
C85_14 C80_14 1_555 1_555
H79_14 C85_14 1_555 1_555
H80_14 C85_14 1_555 1_555
H81_14 C85_14 1_555 1_555
C86_14 H82_14 1_555 1_555
H83_14 C86_14 1_555 1_555
H84_14 C86_14 1_555 1_555
C87_14 C78_14 1_555 1_555
C88_14 N13_14 1_555 1_555
Ag29_9 N15_14 1_555 1_555
N15_14 C90_14 1_555 1_555
N16_14 Ag9_14 1_555 1_555
C89_14 H85_14 1_555 1_555
H86_14 C89_14 1_555 1_555
H87_14 C89_14 1_555 1_555
C90_14 C89_14 1_555 1_555
C91_14 H88_14 1_555 1_555
H89_14 C91_14 1_555 1_555
H90_14 C91_14 1_555 1_555
C92_14 H91_14 1_555 1_555
H92_14 C92_14 1_555 1_555
H93_14 C92_14 1_555 1_555
C93_14 H94_14 1_555 1_555
H95_14 C93_14 1_555 1_555
H96_14 C93_14 1_555 1_555
C94_14 N15_14 1_555 1_555
C95_14 N16_14 1_555 1_555
C96_14 N16_14 1_555 1_555
Ag33_8 O4_14 1_555 1_555
O41_10 Ag29_9 1_555 1_555
N20_10 Ag25 1_555 1_555
Ag33_9 O22_10 1_555 1_555
Ag35_6 O27_10 1_555 1_555
Ag9_14 O24_14 1_555 1_555
O24_14 C8_14 1_555 1_555
C3_14 C9_14 1_555 1_555
C4_14 C21_14 1_555 1_555
C6_14 C38_14 1_555 1_555
C7_14 C71_14 1_555 1_555
C9_14 C30_14 1_555 1_555
C22_14 C71_14 1_555 1_555
C23_14 C32_14 1_555 1_555
C25_14 C68_14 1_555 1_555
C36_14 C48_14 1_555 1_555
C37_14 N20_9 1_555 1_555
C43_14 C48_14 1_555 1_555
N11_14 C61_14 1_555 1_555
N11_14 Ag35_4 1_555 1_555
O28_14 C58_14 1_555 1_555
C52_14 C64_14 1_555 1_555
C60_14 C64_14 1_555 1_555
C79_14 C88_14 1_555 1_555
C80_14 C81_14 1_555 1_555
C86_14 C88_14 1_555 1_555
C90_14 C95_14 1_555 1_555
C91_14 C96_14 1_555 1_555
C92_14 C95_14 1_555 1_555
C93_14 C94_14 1_555 1_555
C94_14 C96_14 1_555 1_555
Ag2_14 O5_14 1_555 1_555
Ag6_14 O20_14 1_555 1_555
Ag20_7 O10_14 1_555 1_555
Ag22 O8_14 1_555 1_555
O1_14 C20_14 1_555 1_555
F2_14 C59_14 1_555 1_555
F3_14 C59_14 1_555 1_555
F4_14 C40_14 1_555 1_555
F5_14 C14_14 1_555 1_555
F10_14 C14_14 1_555 1_555
F16_14 C47_14 1_555 1_555
O5_14 C44_14 1_555 1_555
F18_14 C40_14 1_555 1_555
O7_11 C33_14 1_555 1_555
O8_14 C44_14 1_555 1_555
O36_3 C20_14 1_555 1_555
O10_14 C33_14 1_555 1_555
O13_14 Ag2_14 1_555 1_555
O17_14 Ag20_7 1_555 1_555
O20_14 C51_14 1_555 1_555
N4_14 Ag2_14 1_555 1_555
N7_10 C26_14 1_555 1_555
F28_14 C47_14 1_555 1_555
C12_14 N4_14 1_555 1_555
C14_14 C40_14 1_555 1_555
C15_14 H16_14 1_555 1_555
H17_14 C15_14 1_555 1_555
H18_14 C15_14 1_555 1_555
C20_14 C40_14 1_555 1_555
C26_14 C12_14 1_555 1_555
C33_14 C47_14 1_555 1_555
C34_14 C12_14 1_555 1_555
H22_14 C34_14 1_555 1_555
H23_14 C34_14 1_555 1_555
H24_14 C34_14 1_555 1_555
N10_14 Ag6_14 1_555 1_555
C41_14 H28_14 1_555 1_555
H29_14 C41_14 1_555 1_555
H30_14 C41_14 1_555 1_555
C42_14 N4_14 1_555 1_555
C44_14 C14_14 1_555 1_555
C47_14 C59_14 1_555 1_555
C49_14 N10_14 1_555 1_555
C51_14 O13_14 1_555 1_555
C53_14 N7_10 1_555 1_555
C55_14 C49_14 1_555 1_555
H41_14 C55_14 1_555 1_555
H42_14 C55_14 1_555 1_555
C56_14 C49_14 1_555 1_555
C57_14 C26_14 1_555 1_555
H43_14 C57_14 1_555 1_555
H44_14 C57_14 1_555 1_555
H45_14 C57_14 1_555 1_555
C59_14 C51_14 1_555 1_555
C66_14 C56_14 1_555 1_555
H58_14 C66_14 1_555 1_555
Ag31_4 O1_14 1_555 1_555
Ag35_5 O1_14 1_555 1_555
Ag17_11 O7_11 1_555 1_555
Ag18_11 O7_11 1_555 1_555
O33_11 Ag20_7 1_555 1_555
N19_11 Ag22 1_555 1_555
Ag31_5 N7_10 1_555 1_555
C15_14 C42_14 1_555 1_555
C41_14 C53_14 1_555 1_555
C42_14 C53_14 1_555 1_555
Ag18_11 O33_11 1_555 1_555
Ag3_15 N1_15 1_555 1_555
Ag8_15 O19_15 1_555 1_555
Ag9_15 O19_15 1_555 1_555
F1_15 C19_15 1_555 1_555
F6_15 C69_15 1_555 1_555
F8_15 C76_15 1_555 1_555
F9_15 C13_15 1_555 1_555
F11_15 C23_15 1_555 1_555
O33_8 C32_15 1_555 1_555
F13_15 C69_15 1_555 1_555
O4_15 C75_15 1_555 1_555
F15_15 C29_15 1_555 1_555
N1_15 C1_15 1_555 1_555
F20_15 C76_15 1_555 1_555
F21_15 C18_15 1_555 1_555
F22_15 C23_15 1_555 1_555
F23_15 C13_15 1_555 1_555
O37_8 C16_15 1_555 1_555
O38_8 C16_15 1_555 1_555
F25_15 C19_15 1_555 1_555
F26_15 C29_15 1_555 1_555
O16_15 Ag3_15 1_555 1_555
N17_9 C68_15 1_555 1_555
O19_15 C24_15 1_555 1_555
C1_15 C5_15 1_555 1_555
H3_15 C2_15 1_555 1_555
O40_5 C50_15 1_555 1_555
N5_15 Ag8_15 1_555 1_555
O24_15 Ag8_15 1_555 1_555
O41_10 C75_15 1_555 1_555
O26_15 Ag9_15 1_555 1_555
F27_15 C18_15 1_555 1_555
C3_15 H4_15 1_555 1_555
H5_15 C3_15 1_555 1_555
H6_15 C3_15 1_555 1_555
N9_15 Ag18_8 1_555 1_555
C4_15 N2_15 1_555 1_555
C5_15 H7_15 1_555 1_555
H8_15 C5_15 1_555 1_555
H9_15 C5_15 1_555 1_555
C6_15 H10_15 1_555 1_555
H11_15 C6_15 1_555 1_555
H12_15 C6_15 1_555 1_555
C8_15 O23_15 1_555 1_555
O42_5 C50_15 1_555 1_555
C9_15 N2_15 1_555 1_555
C10_15 N9_15 1_555 1_555
C13_15 C58_15 1_555 1_555
C16_15 C19_15 1_555 1_555
C18_15 C8_15 1_555 1_555
C21_15 N5_15 1_555 1_555
C23_15 C29_15 1_555 1_555
C24_15 O16_15 1_555 1_555
C25_15 H19_15 1_555 1_555
H20_15 C25_15 1_555 1_555
H21_15 C25_15 1_555 1_555
C29_15 C24_15 1_555 1_555
C30_15 N5_15 1_555 1_555
C31_15 C38_15 1_555 1_555
C32_15 O18_15 1_555 1_555
C37_15 C1_15 1_555 1_555
C38_15 N1_15 1_555 1_555
C39_15 C2_15 1_555 1_555
C46_15 C30_15 1_555 1_555
H34_15 C46_15 1_555 1_555
H35_15 C46_15 1_555 1_555
H36_15 C46_15 1_555 1_555
O28_15 Ag8_15 1_555 1_555
C50_15 C76_15 1_555 1_555
N20_10 C31_15 1_555 1_555
C54_15 C31_15 1_555 1_555
H37_15 C54_15 1_555 1_555
H38_15 C54_15 1_555 1_555
H39_15 C54_15 1_555 1_555
C58_15 O26_15 1_555 1_555
C61_15 C39_15 1_555 1_555
C65_15 C10_15 1_555 1_555
H55_15 C65_15 1_555 1_555
H56_15 C65_15 1_555 1_555
H57_15 C65_15 1_555 1_555
C67_15 C61_15 1_555 1_555
H62_15 C67_15 1_555 1_555
H63_15 C67_15 1_555 1_555
C68_15 C10_15 1_555 1_555
C69_15 C13_15 1_555 1_555
C73_15 C21_15 1_555 1_555
H67_15 C73_15 1_555 1_555
H68_15 C73_15 1_555 1_555
H69_15 C73_15 1_555 1_555
C74_15 C37_15 1_555 1_555
H70_15 C74_15 1_555 1_555
H71_15 C74_15 1_555 1_555
H72_15 C74_15 1_555 1_555
C75_15 C69_15 1_555 1_555
C76_15 C18_15 1_555 1_555
Ag25_2 O32_15 1_555 1_555
Ag27_2 O30_15 1_555 1_555
F29_15 C87_15 1_555 1_555
F30_15 C87_15 1_555 1_555
F31_15 C78_15 1_555 1_555
F32_15 C78_15 1_555 1_555
O43 C83_15 1_555 1_555
O30_15 C77_15 1_555 1_555
O31_15 Ag3_15 1_555 1_555
O32_15 C77_15 1_555 1_555
C77_15 C87_15 1_555 1_555
N13_15 Ag27_2 1_555 1_555
N21_7 C79_15 1_555 1_555
C78_15 C83_15 1_555 1_555
C79_15 C82_15 1_555 1_555
C80_15 N13_15 1_555 1_555
C81_15 N21_7 1_555 1_555
C82_15 H73_15 1_555 1_555
H74_15 C82_15 1_555 1_555
H75_15 C82_15 1_555 1_555
C83_15 O31_15 1_555 1_555
C84_15 C81_15 1_555 1_555
H76_15 C84_15 1_555 1_555
H77_15 C84_15 1_555 1_555
H78_15 C84_15 1_555 1_555
C85_15 C80_15 1_555 1_555
H79_15 C85_15 1_555 1_555
H80_15 C85_15 1_555 1_555
H81_15 C85_15 1_555 1_555
C86_15 H82_15 1_555 1_555
H83_15 C86_15 1_555 1_555
H84_15 C86_15 1_555 1_555
C87_15 C78_15 1_555 1_555
C88_15 N13_15 1_555 1_555
Ag29_7 N15_15 1_555 1_555
N15_15 C90_15 1_555 1_555
N16_15 Ag9_15 1_555 1_555
C89_15 H85_15 1_555 1_555
H86_15 C89_15 1_555 1_555
H87_15 C89_15 1_555 1_555
C90_15 C89_15 1_555 1_555
C91_15 H88_15 1_555 1_555
H89_15 C91_15 1_555 1_555
H90_15 C91_15 1_555 1_555
C92_15 H91_15 1_555 1_555
H92_15 C92_15 1_555 1_555
H93_15 C92_15 1_555 1_555
C93_15 H94_15 1_555 1_555
H95_15 C93_15 1_555 1_555
H96_15 C93_15 1_555 1_555
C94_15 N15_15 1_555 1_555
C95_15 N16_15 1_555 1_555
C96_15 N16_15 1_555 1_555
Ag33_9 O4_15 1_555 1_555
Ag9_15 O24_15 1_555 1_555
O24_15 C8_15 1_555 1_555
C3_15 C9_15 1_555 1_555
C4_15 C21_15 1_555 1_555
C6_15 C38_15 1_555 1_555
C9_15 C30_15 1_555 1_555
C23_15 C32_15 1_555 1_555
C25_15 C68_15 1_555 1_555
C37_15 N20_10 1_555 1_555
N11_15 C61_15 1_555 1_555
N11_15 Ag35_6 1_555 1_555
O28_15 C58_15 1_555 1_555
C79_15 C88_15 1_555 1_555
C80_15 C81_15 1_555 1_555
C86_15 C88_15 1_555 1_555
C90_15 C95_15 1_555 1_555
C91_15 C96_15 1_555 1_555
C92_15 C95_15 1_555 1_555
C93_15 C94_15 1_555 1_555
C94_15 C96_15 1_555 1_555
Ag2_15 O5_15 1_555 1_555
Ag6_15 O20_15 1_555 1_555
Ag22_2 O8_15 1_555 1_555
O1_15 C20_15 1_555 1_555
F2_15 C59_15 1_555 1_555
F3_15 C59_15 1_555 1_555
F4_15 C40_15 1_555 1_555
F5_15 C14_15 1_555 1_555
F10_15 C14_15 1_555 1_555
F16_15 C47_15 1_555 1_555
O5_15 C44_15 1_555 1_555
F18_15 C40_15 1_555 1_555
O7_12 C33_15 1_555 1_555
O8_15 C44_15 1_555 1_555
O36 C20_15 1_555 1_555
O10_15 C33_15 1_555 1_555
O13_15 Ag2_15 1_555 1_555
O20_15 C51_15 1_555 1_555
N4_15 Ag2_15 1_555 1_555
N18_5 C26_15 1_555 1_555
F28_15 C47_15 1_555 1_555
C12_15 N4_15 1_555 1_555
C14_15 C40_15 1_555 1_555
C15_15 H16_15 1_555 1_555
H17_15 C15_15 1_555 1_555
H18_15 C15_15 1_555 1_555
C20_15 C40_15 1_555 1_555
C26_15 C12_15 1_555 1_555
C33_15 C47_15 1_555 1_555
C34_15 C12_15 1_555 1_555
H22_15 C34_15 1_555 1_555
H23_15 C34_15 1_555 1_555
H24_15 C34_15 1_555 1_555
N10_15 Ag6_15 1_555 1_555
C41_15 H28_15 1_555 1_555
H29_15 C41_15 1_555 1_555
H30_15 C41_15 1_555 1_555
C42_15 N4_15 1_555 1_555
C44_15 C14_15 1_555 1_555
C47_15 C59_15 1_555 1_555
C49_15 N10_15 1_555 1_555
C51_15 O13_15 1_555 1_555
C53_15 N18_5 1_555 1_555
C55_15 C49_15 1_555 1_555
H41_15 C55_15 1_555 1_555
H42_15 C55_15 1_555 1_555
C56_15 C49_15 1_555 1_555
C57_15 C26_15 1_555 1_555
H43_15 C57_15 1_555 1_555
H44_15 C57_15 1_555 1_555
H45_15 C57_15 1_555 1_555
C59_15 C51_15 1_555 1_555
C66_15 C56_15 1_555 1_555
H58_15 C66_15 1_555 1_555
Ag31_5 O1_15 1_555 1_555
Ag35_7 O1_15 1_555 1_555
Ag17_12 O7_12 1_555 1_555
N19_12 Ag22_2 1_555 1_555
C15_15 C42_15 1_555 1_555
C41_15 C53_15 1_555 1_555
C42_15 C53_15 1_555 1_555
Ag1_15 O3_15 1_555 1_555
Ag17_8 O15_15 1_555 1_555
F7_15 C35_15 1_555 1_555
O3_15 C11_15 1_555 1_555
F14_15 C27_15 1_555 1_555
F19_15 C27_15 1_555 1_555
O34_4 C28_15 1_555 1_555
F24_15 C72_15 1_555 1_555
O14_15 Ag1_15 1_555 1_555
O15_15 C17_15 1_555 1_555
O39_4 C28_15 1_555 1_555
N6_15 Ag17_8 1_555 1_555
N19_8 C43_15 1_555 1_555
C7_15 H13_15 1_555 1_555
H14_15 C7_15 1_555 1_555
H15_15 C7_15 1_555 1_555
C17_15 O14_15 1_555 1_555
C27_15 C17_15 1_555 1_555
C28_15 C72_15 1_555 1_555
C35_15 C11_15 1_555 1_555
C36_15 H25_15 1_555 1_555
H26_15 C36_15 1_555 1_555
H27_15 C36_15 1_555 1_555
C43_15 C45_15 1_555 1_555
C45_15 H31_15 1_555 1_555
H32_15 C45_15 1_555 1_555
H33_15 C45_15 1_555 1_555
C48_15 N6_15 1_555 1_555
C52_15 N19_8 1_555 1_555
C60_15 H46_15 1_555 1_555
H47_15 C60_15 1_555 1_555
H48_15 C60_15 1_555 1_555
C62_15 C22_15 1_555 1_555
H49_15 C62_15 1_555 1_555
H50_15 C62_15 1_555 1_555
H51_15 C62_15 1_555 1_555
C63_15 C52_15 1_555 1_555
H52_15 C63_15 1_555 1_555
H53_15 C63_15 1_555 1_555
H54_15 C63_15 1_555 1_555
C64_15 N6_15 1_555 1_555
H64_15 C70_15 1_555 1_555
H65_15 C70_15 1_555 1_555
H66_15 C70_15 1_555 1_555
C72_15 C35_15 1_555 1_555
C7_15 C71_15 1_555 1_555
C22_15 C71_15 1_555 1_555
C36_15 C48_15 1_555 1_555
C43_15 C48_15 1_555 1_555
C52_15 C64_15 1_555 1_555
C60_15 C64_15 1_555 1_555
O17_15 Ag20_8 1_555 1_555
O33_12 Ag20_8 1_555 1_555
Ag18_12 O33_12 1_555 1_555
N13_16 Ag26_5 1_555 1_555
N21_5 C79_16 1_555 1_555
C79_16 C82_16 1_555 1_555
C80_16 N13_16 1_555 1_555
C81_16 N21_5 1_555 1_555
H74_16 C82_16 1_555 1_555
H75_16 C82_16 1_555 1_555
C84_16 C81_16 1_555 1_555
H76_16 C84_16 1_555 1_555
H77_16 C84_16 1_555 1_555
H78_16 C84_16 1_555 1_555
C85_16 C80_16 1_555 1_555
H79_16 C85_16 1_555 1_555
H80_16 C85_16 1_555 1_555
H81_16 C85_16 1_555 1_555
C86_16 H82_16 1_555 1_555
H83_16 C86_16 1_555 1_555
C88_16 N13_16 1_555 1_555
C79_16 C88_16 1_555 1_555
C80_16 C81_16 1_555 1_555
C86_16 C88_16 1_555 1_555
Ag8_16 O19_16 1_555 1_555
Ag9_16 O19_16 1_555 1_555
F7_16 C35_16 1_555 1_555
F8_16 C76_16 1_555 1_555
F12_16 C35_16 1_555 1_555
O3_16 C11_16 1_555 1_555
F15_16 C29_16 1_555 1_555
F16_16 C47_16 1_555 1_555
F17_16 C72_16 1_555 1_555
F20_16 C76_16 1_555 1_555
F21_16 C18_16 1_555 1_555
O34_2 C28_16 1_555 1_555
F24_16 C72_16 1_555 1_555
O35_5 C33_16 1_555 1_555
O10_16 C33_16 1_555 1_555
F26_16 C29_16 1_555 1_555
O16_16 Ag3_16 1_555 1_555
O19_16 C24_16 1_555 1_555
O39_2 C28_16 1_555 1_555
O22_11 C50_16 1_555 1_555
N5_16 Ag8_16 1_555 1_555
N6_16 Ag17_12 1_555 1_555
O24_16 Ag8_16 1_555 1_555
F27_16 C18_16 1_555 1_555
N7_11 C26_16 1_555 1_555
N19_12 C43_16 1_555 1_555
F28_16 C47_16 1_555 1_555
C6_16 H10_16 1_555 1_555
H11_16 C6_16 1_555 1_555
H12_16 C6_16 1_555 1_555
C8_16 O23_16 1_555 1_555
O27_11 C50_16 1_555 1_555
C11_16 O17_16 1_555 1_555
C12_16 N4_16 1_555 1_555
C15_16 H16_16 1_555 1_555
H17_16 C15_16 1_555 1_555
H18_16 C15_16 1_555 1_555
C18_16 C8_16 1_555 1_555
C21_16 N5_16 1_555 1_555
C24_16 O16_16 1_555 1_555
C26_16 C12_16 1_555 1_555
C28_16 C72_16 1_555 1_555
C29_16 C24_16 1_555 1_555
C33_16 C47_16 1_555 1_555
C35_16 C11_16 1_555 1_555
C36_16 H25_16 1_555 1_555
H26_16 C36_16 1_555 1_555
H27_16 C36_16 1_555 1_555
C41_16 H28_16 1_555 1_555
H29_16 C41_16 1_555 1_555
H30_16 C41_16 1_555 1_555
C42_16 N4_16 1_555 1_555
C43_16 C45_16 1_555 1_555
C45_16 H31_16 1_555 1_555
H32_16 C45_16 1_555 1_555
H33_16 C45_16 1_555 1_555
C48_16 N6_16 1_555 1_555
C50_16 C76_16 1_555 1_555
C52_16 N19_12 1_555 1_555
C53_16 N7_11 1_555 1_555
C57_16 C26_16 1_555 1_555
H43_16 C57_16 1_555 1_555
H44_16 C57_16 1_555 1_555
H45_16 C57_16 1_555 1_555
C60_16 H46_16 1_555 1_555
H47_16 C60_16 1_555 1_555
H48_16 C60_16 1_555 1_555
C63_16 C52_16 1_555 1_555
H52_16 C63_16 1_555 1_555
H53_16 C63_16 1_555 1_555
H54_16 C63_16 1_555 1_555
C64_16 N6_16 1_555 1_555
C70_16 C4_16 1_555 1_555
H64_16 C70_16 1_555 1_555
H65_16 C70_16 1_555 1_555
H66_16 C70_16 1_555 1_555
C72_16 C35_16 1_555 1_555
C73_16 C21_16 1_555 1_555
H67_16 C73_16 1_555 1_555
H68_16 C73_16 1_555 1_555
H69_16 C73_16 1_555 1_555
C76_16 C18_16 1_555 1_555
Ag24_5 O32_16 1_555 1_555
F29_16 C87_16 1_555 1_555
F30_16 C87_16 1_555 1_555
F31_16 C78_16 1_555 1_555
O43_8 C83_16 1_555 1_555
O30_16 C77_16 1_555 1_555
O31_16 Ag3_16 1_555 1_555
O32_16 C77_16 1_555 1_555
C77_16 C87_16 1_555 1_555
C78_16 C83_16 1_555 1_555
C83_16 O31_16 1_555 1_555
C87_16 C78_16 1_555 1_555
Ag29_5 N15_16 1_555 1_555
N15_16 C90_16 1_555 1_555
N16_16 Ag9_16 1_555 1_555
C89_16 H85_16 1_555 1_555
H86_16 C89_16 1_555 1_555
H87_16 C89_16 1_555 1_555
C90_16 C89_16 1_555 1_555
C91_16 H88_16 1_555 1_555
H89_16 C91_16 1_555 1_555
H90_16 C91_16 1_555 1_555
C92_16 H91_16 1_555 1_555
H92_16 C92_16 1_555 1_555
H93_16 C92_16 1_555 1_555
C93_16 H94_16 1_555 1_555
H95_16 C93_16 1_555 1_555
H96_16 C93_16 1_555 1_555
C94_16 N15_16 1_555 1_555
C95_16 N16_16 1_555 1_555
C96_16 N16_16 1_555 1_555
O41_11 Ag29_5 1_555 1_555
N20_11 Ag24_5 1_555 1_555
Ag31 N7_11 1_555 1_555
Ag33_5 O22_11 1_555 1_555
Ag35 O27_11 1_555 1_555
Ag9_16 O24_16 1_555 1_555
O24_16 C8_16 1_555 1_555
C4_16 C21_16 1_555 1_555
C15_16 C42_16 1_555 1_555
C36_16 C48_16 1_555 1_555
C41_16 C53_16 1_555 1_555
C42_16 C53_16 1_555 1_555
C43_16 C48_16 1_555 1_555
C52_16 C64_16 1_555 1_555
C60_16 C64_16 1_555 1_555
C90_16 C95_16 1_555 1_555
C91_16 C96_16 1_555 1_555
C92_16 C95_16 1_555 1_555
C93_16 C94_16 1_555 1_555
C94_16 C96_16 1_555 1_555
Ag2_16 O5_16 1_555 1_555
Ag6_16 O20_16 1_555 1_555
Ag22_9 O8_16 1_555 1_555
O1_16 C20_16 1_555 1_555
F1_16 C19_16 1_555 1_555
F2_16 C59_16 1_555 1_555
F3_16 C59_16 1_555 1_555
F4_16 C40_16 1_555 1_555
F5_16 C14_16 1_555 1_555
F6_16 C69_16 1_555 1_555
F9_16 C13_16 1_555 1_555
F10_16 C14_16 1_555 1_555
F11_16 C23_16 1_555 1_555
O33_12 C32_16 1_555 1_555
F13_16 C69_16 1_555 1_555
F14_16 C27_16 1_555 1_555
O4_16 C75_16 1_555 1_555
O5_16 C44_16 1_555 1_555
F18_16 C40_16 1_555 1_555
F19_16 C27_16 1_555 1_555
N1_16 C1_16 1_555 1_555
F22_16 C23_16 1_555 1_555
F23_16 C13_16 1_555 1_555
N2_16 Ag1_16 1_555 1_555
O8_16 C44_16 1_555 1_555
O36_8 C20_16 1_555 1_555
O37_6 C16_16 1_555 1_555
O38_6 C16_16 1_555 1_555
O13_16 Ag2_16 1_555 1_555
O14_16 Ag1_16 1_555 1_555
F25_16 C19_16 1_555 1_555
O15_16 C17_16 1_555 1_555
N17_4 C68_16 1_555 1_555
O20_16 C51_16 1_555 1_555
C1_16 C5_16 1_555 1_555
C2_16 H1_16 1_555 1_555
H2_16 C2_16 1_555 1_555
H3_16 C2_16 1_555 1_555
O25_6 C75_16 1_555 1_555
C3_16 H4_16 1_555 1_555
H5_16 C3_16 1_555 1_555
H6_16 C3_16 1_555 1_555
N9_16 Ag18_12 1_555 1_555
C5_16 H7_16 1_555 1_555
H8_16 C5_16 1_555 1_555
H9_16 C5_16 1_555 1_555
C7_16 H13_16 1_555 1_555
H14_16 C7_16 1_555 1_555
H15_16 C7_16 1_555 1_555
C9_16 N2_16 1_555 1_555
C10_16 N9_16 1_555 1_555
C13_16 C58_16 1_555 1_555
C14_16 C40_16 1_555 1_555
C16_16 C19_16 1_555 1_555
C17_16 O14_16 1_555 1_555
C19_16 C27_16 1_555 1_555
C20_16 C40_16 1_555 1_555
C22_16 N9_16 1_555 1_555
C25_16 H19_16 1_555 1_555
H20_16 C25_16 1_555 1_555
H21_16 C25_16 1_555 1_555
C27_16 C17_16 1_555 1_555
C31_16 C38_16 1_555 1_555
C32_16 O18_16 1_555 1_555
H22_16 C34_16 1_555 1_555
H23_16 C34_16 1_555 1_555
C37_16 C1_16 1_555 1_555
C38_16 N1_16 1_555 1_555
C39_16 C2_16 1_555 1_555
N10_16 Ag6_16 1_555 1_555
C44_16 C14_16 1_555 1_555
C46_16 C30_16 1_555 1_555
H34_16 C46_16 1_555 1_555
H35_16 C46_16 1_555 1_555
H36_16 C46_16 1_555 1_555
N11_16 C56_16 1_555 1_555
C49_16 N10_16 1_555 1_555
C51_16 O13_16 1_555 1_555
N12_6 C31_16 1_555 1_555
C54_16 C31_16 1_555 1_555
H37_16 C54_16 1_555 1_555
H38_16 C54_16 1_555 1_555
H39_16 C54_16 1_555 1_555
C55_16 C49_16 1_555 1_555
H40_16 C55_16 1_555 1_555
H41_16 C55_16 1_555 1_555
H42_16 C55_16 1_555 1_555
C56_16 C49_16 1_555 1_555
C58_16 O26_16 1_555 1_555
C59_16 C51_16 1_555 1_555
C61_16 C39_16 1_555 1_555
C62_16 C22_16 1_555 1_555
H49_16 C62_16 1_555 1_555
H50_16 C62_16 1_555 1_555
H51_16 C62_16 1_555 1_555
C65_16 C10_16 1_555 1_555
H55_16 C65_16 1_555 1_555
H56_16 C65_16 1_555 1_555
H57_16 C65_16 1_555 1_555
C66_16 C56_16 1_555 1_555
H58_16 C66_16 1_555 1_555
H59_16 C66_16 1_555 1_555
H60_16 C66_16 1_555 1_555
C67_16 C61_16 1_555 1_555
H61_16 C67_16 1_555 1_555
H62_16 C67_16 1_555 1_555
H63_16 C67_16 1_555 1_555
C68_16 C10_16 1_555 1_555
C69_16 C13_16 1_555 1_555
C71_16 N17_4 1_555 1_555
C74_16 C37_16 1_555 1_555
H70_16 C74_16 1_555 1_555
H71_16 C74_16 1_555 1_555
H72_16 C74_16 1_555 1_555
C75_16 C69_16 1_555 1_555
Ag33_4 O4_16 1_555 1_555
Ag35_3 O1_16 1_555 1_555
Ag24_4 N12_6 1_555 1_555
Ag29_4 O25_6 1_555 1_555
C3_16 C9_16 1_555 1_555
C7_16 C71_16 1_555 1_555
C9_16 C30_16 1_555 1_555
C22_16 C71_16 1_555 1_555
C23_16 C32_16 1_555 1_555
C25_16 C68_16 1_555 1_555
C37_16 N12_6 1_555 1_555
C39_16 N10_16 1_555 1_555
N11_16 C61_16 1_555 1_555
N11_16 Ag35_3 1_555 1_555
O28_16 C58_16 1_555 1_555
N18_6 Ag31_3 1_555 1_555
Ag2_17 O5_17 1_555 1_555
Ag6_17 O20_17 1_555 1_555
Ag22_7 O8_17 1_555 1_555
O1_17 C20_17 1_555 1_555
F1_17 C19_17 1_555 1_555
F2_17 C59_17 1_555 1_555
F3_17 C59_17 1_555 1_555
F4_17 C40_17 1_555 1_555
F5_17 C14_17 1_555 1_555
F6_17 C69_17 1_555 1_555
F9_17 C13_17 1_555 1_555
F10_17 C14_17 1_555 1_555
F11_17 C23_17 1_555 1_555
O33_10 C32_17 1_555 1_555
F13_17 C69_17 1_555 1_555
F14_17 C27_17 1_555 1_555
O4_17 C75_17 1_555 1_555
O5_17 C44_17 1_555 1_555
F18_17 C40_17 1_555 1_555
F19_17 C27_17 1_555 1_555
N1_17 C1_17 1_555 1_555
F22_17 C23_17 1_555 1_555
F23_17 C13_17 1_555 1_555
N2_17 Ag1_17 1_555 1_555
O8_17 C44_17 1_555 1_555
O36_9 C20_17 1_555 1_555
O37_4 C16_17 1_555 1_555
O38_4 C16_17 1_555 1_555
O13_17 Ag2_17 1_555 1_555
O14_17 Ag1_17 1_555 1_555
F25_17 C19_17 1_555 1_555
O15_17 C17_17 1_555 1_555
N17_5 C68_17 1_555 1_555
O20_17 C51_17 1_555 1_555
C1_17 C5_17 1_555 1_555
C2_17 H1_17 1_555 1_555
H2_17 C2_17 1_555 1_555
H3_17 C2_17 1_555 1_555
O41_11 C75_17 1_555 1_555
C3_17 H4_17 1_555 1_555
H5_17 C3_17 1_555 1_555
H6_17 C3_17 1_555 1_555
N9_17 Ag18_10 1_555 1_555
C5_17 H7_17 1_555 1_555
H8_17 C5_17 1_555 1_555
H9_17 C5_17 1_555 1_555
C7_17 H13_17 1_555 1_555
H14_17 C7_17 1_555 1_555
H15_17 C7_17 1_555 1_555
C9_17 N2_17 1_555 1_555
C10_17 N9_17 1_555 1_555
C13_17 C58_17 1_555 1_555
C14_17 C40_17 1_555 1_555
C16_17 C19_17 1_555 1_555
C17_17 O14_17 1_555 1_555
C19_17 C27_17 1_555 1_555
C20_17 C40_17 1_555 1_555
C22_17 N9_17 1_555 1_555
C25_17 H19_17 1_555 1_555
H20_17 C25_17 1_555 1_555
H21_17 C25_17 1_555 1_555
C27_17 C17_17 1_555 1_555
C31_17 C38_17 1_555 1_555
C32_17 O18_17 1_555 1_555
H22_17 C34_17 1_555 1_555
H23_17 C34_17 1_555 1_555
C37_17 C1_17 1_555 1_555
C38_17 N1_17 1_555 1_555
C39_17 C2_17 1_555 1_555
N10_17 Ag6_17 1_555 1_555
C44_17 C14_17 1_555 1_555
C46_17 C30_17 1_555 1_555
H34_17 C46_17 1_555 1_555
H35_17 C46_17 1_555 1_555
H36_17 C46_17 1_555 1_555
N11_17 C56_17 1_555 1_555
C49_17 N10_17 1_555 1_555
C51_17 O13_17 1_555 1_555
N20_11 C31_17 1_555 1_555
C54_17 C31_17 1_555 1_555
H37_17 C54_17 1_555 1_555
H38_17 C54_17 1_555 1_555
H39_17 C54_17 1_555 1_555
C55_17 C49_17 1_555 1_555
H40_17 C55_17 1_555 1_555
H41_17 C55_17 1_555 1_555
H42_17 C55_17 1_555 1_555
C56_17 C49_17 1_555 1_555
C58_17 O26_17 1_555 1_555
C59_17 C51_17 1_555 1_555
C61_17 C39_17 1_555 1_555
C62_17 C22_17 1_555 1_555
H49_17 C62_17 1_555 1_555
H50_17 C62_17 1_555 1_555
H51_17 C62_17 1_555 1_555
C65_17 C10_17 1_555 1_555
H55_17 C65_17 1_555 1_555
H56_17 C65_17 1_555 1_555
H57_17 C65_17 1_555 1_555
C66_17 C56_17 1_555 1_555
H58_17 C66_17 1_555 1_555
H59_17 C66_17 1_555 1_555
H60_17 C66_17 1_555 1_555
C67_17 C61_17 1_555 1_555
H61_17 C67_17 1_555 1_555
H62_17 C67_17 1_555 1_555
H63_17 C67_17 1_555 1_555
C68_17 C10_17 1_555 1_555
C69_17 C13_17 1_555 1_555
C71_17 N17_5 1_555 1_555
C74_17 C37_17 1_555 1_555
H70_17 C74_17 1_555 1_555
H71_17 C74_17 1_555 1_555
H72_17 C74_17 1_555 1_555
C75_17 C69_17 1_555 1_555
Ag31 O1_17 1_555 1_555
Ag33_5 O4_17 1_555 1_555
Ag35 O1_17 1_555 1_555
C3_17 C9_17 1_555 1_555
C7_17 C71_17 1_555 1_555
C9_17 C30_17 1_555 1_555
C22_17 C71_17 1_555 1_555
C23_17 C32_17 1_555 1_555
C25_17 C68_17 1_555 1_555
C37_17 N20_11 1_555 1_555
C39_17 N10_17 1_555 1_555
N11_17 C61_17 1_555 1_555
N11_17 Ag35 1_555 1_555
O28_17 C58_17 1_555 1_555
N21_6 C79_17 1_555 1_555
C79_17 C82_17 1_555 1_555
H74_17 C82_17 1_555 1_555
H75_17 C82_17 1_555 1_555
C86_17 H82_17 1_555 1_555
H83_17 C86_17 1_555 1_555
C79_17 C88_17 1_555 1_555
C86_17 C88_17 1_555 1_555
Ag8_17 O19_17 1_555 1_555
Ag9_17 O19_17 1_555 1_555
F7_17 C35_17 1_555 1_555
F8_17 C76_17 1_555 1_555
F12_17 C35_17 1_555 1_555
O3_17 C11_17 1_555 1_555
F15_17 C29_17 1_555 1_555
F16_17 C47_17 1_555 1_555
F17_17 C72_17 1_555 1_555
F20_17 C76_17 1_555 1_555
F21_17 C18_17 1_555 1_555
O34_3 C28_17 1_555 1_555
F24_17 C72_17 1_555 1_555
O35_6 C33_17 1_555 1_555
O10_17 C33_17 1_555 1_555
F26_17 C29_17 1_555 1_555
O16_17 Ag3_17 1_555 1_555
O19_17 C24_17 1_555 1_555
O39_3 C28_17 1_555 1_555
O22_12 C50_17 1_555 1_555
N5_17 Ag8_17 1_555 1_555
N6_17 Ag17_10 1_555 1_555
O24_17 Ag8_17 1_555 1_555
F27_17 C18_17 1_555 1_555
N7_12 C26_17 1_555 1_555
N19_10 C43_17 1_555 1_555
F28_17 C47_17 1_555 1_555
C6_17 H10_17 1_555 1_555
H11_17 C6_17 1_555 1_555
H12_17 C6_17 1_555 1_555
C8_17 O23_17 1_555 1_555
O27_12 C50_17 1_555 1_555
C11_17 O17_17 1_555 1_555
C12_17 N4_17 1_555 1_555
C15_17 H16_17 1_555 1_555
H17_17 C15_17 1_555 1_555
H18_17 C15_17 1_555 1_555
C18_17 C8_17 1_555 1_555
C21_17 N5_17 1_555 1_555
C24_17 O16_17 1_555 1_555
C26_17 C12_17 1_555 1_555
C28_17 C72_17 1_555 1_555
C29_17 C24_17 1_555 1_555
C33_17 C47_17 1_555 1_555
C35_17 C11_17 1_555 1_555
C36_17 H25_17 1_555 1_555
H26_17 C36_17 1_555 1_555
H27_17 C36_17 1_555 1_555
C41_17 H28_17 1_555 1_555
H29_17 C41_17 1_555 1_555
H30_17 C41_17 1_555 1_555
C42_17 N4_17 1_555 1_555
C43_17 C45_17 1_555 1_555
C45_17 H31_17 1_555 1_555
H32_17 C45_17 1_555 1_555
H33_17 C45_17 1_555 1_555
C48_17 N6_17 1_555 1_555
C50_17 C76_17 1_555 1_555
C52_17 N19_10 1_555 1_555
C53_17 N7_12 1_555 1_555
C57_17 C26_17 1_555 1_555
H43_17 C57_17 1_555 1_555
H44_17 C57_17 1_555 1_555
H45_17 C57_17 1_555 1_555
C60_17 H46_17 1_555 1_555
H47_17 C60_17 1_555 1_555
H48_17 C60_17 1_555 1_555
C63_17 C52_17 1_555 1_555
H52_17 C63_17 1_555 1_555
H53_17 C63_17 1_555 1_555
H54_17 C63_17 1_555 1_555
C64_17 N6_17 1_555 1_555
C70_17 C4_17 1_555 1_555
H64_17 C70_17 1_555 1_555
H65_17 C70_17 1_555 1_555
H66_17 C70_17 1_555 1_555
C72_17 C35_17 1_555 1_555
C73_17 C21_17 1_555 1_555
H67_17 C73_17 1_555 1_555
H68_17 C73_17 1_555 1_555
H69_17 C73_17 1_555 1_555
C76_17 C18_17 1_555 1_555
F29_17 C87_17 1_555 1_555
F30_17 C87_17 1_555 1_555
F31_17 C78_17 1_555 1_555
O43_9 C83_17 1_555 1_555
O30_17 C77_17 1_555 1_555
O31_17 Ag3_17 1_555 1_555
O32_17 C77_17 1_555 1_555
C77_17 C87_17 1_555 1_555
C78_17 C83_17 1_555 1_555
C83_17 O31_17 1_555 1_555
C87_17 C78_17 1_555 1_555
N15_17 C90_17 1_555 1_555
N16_17 Ag9_17 1_555 1_555
C89_17 H85_17 1_555 1_555
H86_17 C89_17 1_555 1_555
H87_17 C89_17 1_555 1_555
C90_17 C89_17 1_555 1_555
C91_17 H88_17 1_555 1_555
H89_17 C91_17 1_555 1_555
H90_17 C91_17 1_555 1_555
C92_17 H91_17 1_555 1_555
H92_17 C92_17 1_555 1_555
H93_17 C92_17 1_555 1_555
C93_17 H94_17 1_555 1_555
H95_17 C93_17 1_555 1_555
H96_17 C93_17 1_555 1_555
C94_17 N15_17 1_555 1_555
C95_17 N16_17 1_555 1_555
C96_17 N16_17 1_555 1_555
Ag31_2 N7_12 1_555 1_555
Ag9_17 O24_17 1_555 1_555
O24_17 C8_17 1_555 1_555
C4_17 C21_17 1_555 1_555
C15_17 C42_17 1_555 1_555
C36_17 C48_17 1_555 1_555
C41_17 C53_17 1_555 1_555
C42_17 C53_17 1_555 1_555
C43_17 C48_17 1_555 1_555
C52_17 C64_17 1_555 1_555
C60_17 C64_17 1_555 1_555
C90_17 C95_17 1_555 1_555
C91_17 C96_17 1_555 1_555
C92_17 C95_17 1_555 1_555
C93_17 C94_17 1_555 1_555
C94_17 C96_17 1_555 1_555
N13_17 Ag26_6 1_555 1_555
C80_17 N13_17 1_555 1_555
C84_17 C81_17 1_555 1_555
H76_17 C84_17 1_555 1_555
H77_17 C84_17 1_555 1_555
H78_17 C84_17 1_555 1_555
C85_17 C80_17 1_555 1_555
H79_17 C85_17 1_555 1_555
H80_17 C85_17 1_555 1_555
H81_17 C85_17 1_555 1_555
C80_17 C81_17 1_555 1_555
O41_12 Ag29_6 1_555 1_555
N20_12 Ag24_6 1_555 1_555
N13_18 Ag26_4 1_555 1_555
C80_18 N13_18 1_555 1_555
C84_18 C81_18 1_555 1_555
H76_18 C84_18 1_555 1_555
H77_18 C84_18 1_555 1_555
H78_18 C84_18 1_555 1_555
C85_18 C80_18 1_555 1_555
H79_18 C85_18 1_555 1_555
H80_18 C85_18 1_555 1_555
H81_18 C85_18 1_555 1_555
C80_18 C81_18 1_555 1_555
N21_4 C79_18 1_555 1_555
C79_18 C82_18 1_555 1_555
H74_18 C82_18 1_555 1_555
H75_18 C82_18 1_555 1_555
C86_18 H82_18 1_555 1_555
H83_18 C86_18 1_555 1_555
C79_18 C88_18 1_555 1_555
C86_18 C88_18 1_555 1_555
Ag1_18 O3_18 1_555 1_555
Ag2_18 O5_18 1_555 1_555
Ag3_18 N1_18 1_555 1_555
Ag17_11 O15_18 1_555 1_555
Ag6_18 O20_18 1_555 1_555
Ag20_5 O10_18 1_555 1_555
Ag8_18 O19_18 1_555 1_555
Ag9_18 O19_18 1_555 1_555
Ag22_8 O8_18 1_555 1_555
O1_18 C20_18 1_555 1_555
F1_18 C19_18 1_555 1_555
F2_18 C59_18 1_555 1_555
F3_18 C59_18 1_555 1_555
F4_18 C40_18 1_555 1_555
F5_18 C14_18 1_555 1_555
F6_18 C69_18 1_555 1_555
F7_18 C35_18 1_555 1_555
F8_18 C76_18 1_555 1_555
F9_18 C13_18 1_555 1_555
F10_18 C14_18 1_555 1_555
F11_18 C23_18 1_555 1_555
O33_11 C32_18 1_555 1_555
F12_18 C35_18 1_555 1_555
O3_18 C11_18 1_555 1_555
F13_18 C69_18 1_555 1_555
F14_18 C27_18 1_555 1_555
O4_18 C75_18 1_555 1_555
F15_18 C29_18 1_555 1_555
F16_18 C47_18 1_555 1_555
F17_18 C72_18 1_555 1_555
O5_18 C44_18 1_555 1_555
F18_18 C40_18 1_555 1_555
F19_18 C27_18 1_555 1_555
N1_18 C1_18 1_555 1_555
F20_18 C76_18 1_555 1_555
F21_18 C18_18 1_555 1_555
F22_18 C23_18 1_555 1_555
F23_18 C13_18 1_555 1_555
O34 C28_18 1_555 1_555
F24_18 C72_18 1_555 1_555
N2_18 Ag1_18 1_555 1_555
O35_4 C33_18 1_555 1_555
O8_18 C44_18 1_555 1_555
O36_7 C20_18 1_555 1_555
O10_18 C33_18 1_555 1_555
O37_5 C16_18 1_555 1_555
O38_5 C16_18 1_555 1_555
O13_18 Ag2_18 1_555 1_555
O14_18 Ag1_18 1_555 1_555
F25_18 C19_18 1_555 1_555
O15_18 C17_18 1_555 1_555
F26_18 C29_18 1_555 1_555
O16_18 Ag3_18 1_555 1_555
N17_6 C68_18 1_555 1_555
O17_18 Ag20_5 1_555 1_555
O18_18 Ag17_11 1_555 1_555
O19_18 C24_18 1_555 1_555
O20_18 C51_18 1_555 1_555
C1_18 C5_18 1_555 1_555
O39 C28_18 1_555 1_555
N4_18 Ag2_18 1_555 1_555
C2_18 H1_18 1_555 1_555
H2_18 C2_18 1_555 1_555
H3_18 C2_18 1_555 1_555
O40_6 C50_18 1_555 1_555
N5_18 Ag8_18 1_555 1_555
O23_18 Ag6_18 1_555 1_555
N6_18 Ag17_11 1_555 1_555
O24_18 Ag8_18 1_555 1_555
O41_12 C75_18 1_555 1_555
O26_18 Ag9_18 1_555 1_555
F27_18 C18_18 1_555 1_555
N18_6 C26_18 1_555 1_555
C3_18 H4_18 1_555 1_555
H5_18 C3_18 1_555 1_555
H6_18 C3_18 1_555 1_555
N19_11 C43_18 1_555 1_555
F28_18 C47_18 1_555 1_555
N9_18 Ag18_11 1_555 1_555
C4_18 N2_18 1_555 1_555
C5_18 H7_18 1_555 1_555
H8_18 C5_18 1_555 1_555
H9_18 C5_18 1_555 1_555
C6_18 H10_18 1_555 1_555
H11_18 C6_18 1_555 1_555
H12_18 C6_18 1_555 1_555
C7_18 H13_18 1_555 1_555
H14_18 C7_18 1_555 1_555
H15_18 C7_18 1_555 1_555
C8_18 O23_18 1_555 1_555
O42_6 C50_18 1_555 1_555
C9_18 N2_18 1_555 1_555
C10_18 N9_18 1_555 1_555
C11_18 O17_18 1_555 1_555
C12_18 N4_18 1_555 1_555
C13_18 C58_18 1_555 1_555
C14_18 C40_18 1_555 1_555
C15_18 H16_18 1_555 1_555
H17_18 C15_18 1_555 1_555
H18_18 C15_18 1_555 1_555
C16_18 C19_18 1_555 1_555
C17_18 O14_18 1_555 1_555
C18_18 C8_18 1_555 1_555
C19_18 C27_18 1_555 1_555
C20_18 C40_18 1_555 1_555
C21_18 N5_18 1_555 1_555
C22_18 N9_18 1_555 1_555
C23_18 C29_18 1_555 1_555
C24_18 O16_18 1_555 1_555
C25_18 H19_18 1_555 1_555
H20_18 C25_18 1_555 1_555
H21_18 C25_18 1_555 1_555
C26_18 C12_18 1_555 1_555
C27_18 C17_18 1_555 1_555
C28_18 C72_18 1_555 1_555
C29_18 C24_18 1_555 1_555
C30_18 N5_18 1_555 1_555
C31_18 C38_18 1_555 1_555
C32_18 O18_18 1_555 1_555
C33_18 C47_18 1_555 1_555
C34_18 C12_18 1_555 1_555
H22_18 C34_18 1_555 1_555
H23_18 C34_18 1_555 1_555
H24_18 C34_18 1_555 1_555
C35_18 C11_18 1_555 1_555
C36_18 H25_18 1_555 1_555
H26_18 C36_18 1_555 1_555
H27_18 C36_18 1_555 1_555
C37_18 C1_18 1_555 1_555
C38_18 N1_18 1_555 1_555
C39_18 C2_18 1_555 1_555
N10_18 Ag6_18 1_555 1_555
C41_18 H28_18 1_555 1_555
H29_18 C41_18 1_555 1_555
H30_18 C41_18 1_555 1_555
C42_18 N4_18 1_555 1_555
C43_18 C45_18 1_555 1_555
C44_18 C14_18 1_555 1_555
C45_18 H31_18 1_555 1_555
H32_18 C45_18 1_555 1_555
H33_18 C45_18 1_555 1_555
C46_18 C30_18 1_555 1_555
H34_18 C46_18 1_555 1_555
H35_18 C46_18 1_555 1_555
H36_18 C46_18 1_555 1_555
C47_18 C59_18 1_555 1_555
N11_18 C56_18 1_555 1_555
C48_18 N6_18 1_555 1_555
C49_18 N10_18 1_555 1_555
O28_18 Ag8_18 1_555 1_555
C50_18 C76_18 1_555 1_555
C51_18 O13_18 1_555 1_555
N20_12 C31_18 1_555 1_555
C52_18 N19_11 1_555 1_555
C53_18 N18_6 1_555 1_555
C54_18 C31_18 1_555 1_555
H37_18 C54_18 1_555 1_555
H38_18 C54_18 1_555 1_555
H39_18 C54_18 1_555 1_555
C55_18 C49_18 1_555 1_555
H40_18 C55_18 1_555 1_555
H41_18 C55_18 1_555 1_555
H42_18 C55_18 1_555 1_555
C56_18 C49_18 1_555 1_555
C57_18 C26_18 1_555 1_555
H43_18 C57_18 1_555 1_555
H44_18 C57_18 1_555 1_555
H45_18 C57_18 1_555 1_555
C58_18 O26_18 1_555 1_555
C59_18 C51_18 1_555 1_555
C60_18 H46_18 1_555 1_555
H47_18 C60_18 1_555 1_555
H48_18 C60_18 1_555 1_555
C61_18 C39_18 1_555 1_555
C62_18 C22_18 1_555 1_555
H49_18 C62_18 1_555 1_555
H50_18 C62_18 1_555 1_555
H51_18 C62_18 1_555 1_555
C63_18 C52_18 1_555 1_555
H52_18 C63_18 1_555 1_555
H53_18 C63_18 1_555 1_555
H54_18 C63_18 1_555 1_555
C64_18 N6_18 1_555 1_555
C65_18 C10_18 1_555 1_555
H55_18 C65_18 1_555 1_555
H56_18 C65_18 1_555 1_555
H57_18 C65_18 1_555 1_555
C66_18 C56_18 1_555 1_555
H58_18 C66_18 1_555 1_555
H59_18 C66_18 1_555 1_555
H60_18 C66_18 1_555 1_555
C67_18 C61_18 1_555 1_555
H61_18 C67_18 1_555 1_555
H62_18 C67_18 1_555 1_555
H63_18 C67_18 1_555 1_555
C68_18 C10_18 1_555 1_555
C69_18 C13_18 1_555 1_555
C70_18 C4_18 1_555 1_555
H64_18 C70_18 1_555 1_555
H65_18 C70_18 1_555 1_555
H66_18 C70_18 1_555 1_555
C71_18 N17_6 1_555 1_555
C72_18 C35_18 1_555 1_555
C73_18 C21_18 1_555 1_555
H67_18 C73_18 1_555 1_555
H68_18 C73_18 1_555 1_555
H69_18 C73_18 1_555 1_555
C74_18 C37_18 1_555 1_555
H70_18 C74_18 1_555 1_555
H71_18 C74_18 1_555 1_555
H72_18 C74_18 1_555 1_555
C75_18 C69_18 1_555 1_555
C76_18 C18_18 1_555 1_555
F29_18 C87_18 1_555 1_555
F30_18 C87_18 1_555 1_555
F31_18 C78_18 1_555 1_555
O43_7 C83_18 1_555 1_555
O30_18 C77_18 1_555 1_555
O31_18 Ag3_18 1_555 1_555
O32_18 C77_18 1_555 1_555
C77_18 C87_18 1_555 1_555
C78_18 C83_18 1_555 1_555
C83_18 O31_18 1_555 1_555
C87_18 C78_18 1_555 1_555
N15_18 C90_18 1_555 1_555
N16_18 Ag9_18 1_555 1_555
C89_18 H85_18 1_555 1_555
H86_18 C89_18 1_555 1_555
H87_18 C89_18 1_555 1_555
C90_18 C89_18 1_555 1_555
C91_18 H88_18 1_555 1_555
H89_18 C91_18 1_555 1_555
H90_18 C91_18 1_555 1_555
C92_18 H91_18 1_555 1_555
H92_18 C92_18 1_555 1_555
H93_18 C92_18 1_555 1_555
C93_18 H94_18 1_555 1_555
H95_18 C93_18 1_555 1_555
H96_18 C93_18 1_555 1_555
C94_18 N15_18 1_555 1_555
C95_18 N16_18 1_555 1_555
C96_18 N16_18 1_555 1_555
Ag33_6 O4_18 1_555 1_555
Ag35_2 O1_18 1_555 1_555
Ag9_18 O24_18 1_555 1_555
O24_18 C8_18 1_555 1_555
C3_18 C9_18 1_555 1_555
C4_18 C21_18 1_555 1_555
C6_18 C38_18 1_555 1_555
C7_18 C71_18 1_555 1_555
C9_18 C30_18 1_555 1_555
C15_18 C42_18 1_555 1_555
C22_18 C71_18 1_555 1_555
C23_18 C32_18 1_555 1_555
C25_18 C68_18 1_555 1_555
C36_18 C48_18 1_555 1_555
C37_18 N20_12 1_555 1_555
C39_18 N10_18 1_555 1_555
C41_18 C53_18 1_555 1_555
C42_18 C53_18 1_555 1_555
C43_18 C48_18 1_555 1_555
N11_18 C61_18 1_555 1_555
N11_18 Ag35_2 1_555 1_555
O28_18 C58_18 1_555 1_555
C52_18 C64_18 1_555 1_555
C60_18 C64_18 1_555 1_555
C90_18 C95_18 1_555 1_555
C91_18 C96_18 1_555 1_555
C92_18 C95_18 1_555 1_555
C93_18 C94_18 1_555 1_555
C94_18 C96_18 1_555 1_555

#END
