
###############################################################################
#
# This file contains modified crystal structure data generated from the
# MOF subset of the Cambridge Structural Database (CSD) v543 
# hosted by the Cambridge Crystallographic Data Centre (CCDC).
#
# This work is licensed under the Creative Commons
# Attribution-NonCommercial-ShareAlike 4.0 International License.
# To view a copy of this license, visit
# http://creativecommons.org/licenses/by-nc-sa/4.0/
# or send a letter to
# Creative Commons, PO Box 1866, Mountain View, CA 94042, USA.
#
# CIF created using the CSD Python API on 29 September 2022
# The structure has been converted into the P1 space group
# The structure has a 3D framework
# The original CSD entry ZEGWOA is in the monoclinic crystal system
# The framework has been calculated to contain at least 10.0% void space
# The void calculation uses a probe of radius 1.32A, grid spacing 0.4
#
###############################################################################

data_ZEGWOA
_chemical_formula_moiety         '(C328 H224 Co14 N48 O48 S8)n'
_symmetry_cell_setting           triclinic
_symmetry_space_group_name_H-M   'P 1'
_symmetry_Int_Tables_number      1
_space_group_name_Hall           'P 1'
loop_
_symmetry_equiv_pos_site_id
_symmetry_equiv_pos_as_xyz
1 x,y,z
_cell_length_a                   21.839(4)
_cell_length_b                   27.394(6)
_cell_length_c                   14.628(3)
_cell_angle_alpha                90
_cell_angle_beta                 103.78(3)
_cell_angle_gamma                90
_cell_volume                     8499.43
loop_
_atom_site_label
_atom_site_type_symbol
_atom_site_fract_x
_atom_site_fract_y
_atom_site_fract_z
Co8 Co 0.0000 0.21794(3) 0.7500
Co1 Co 0.10922(3) 0.177222(19) 0.07702(4)
C1 C 0.0647(2) 0.09216(16) 0.0512(4)
C2 C 0.0317(2) 0.04468(15) 0.0253(3)
C9 C 0.24138(19) 0.13647(15) 0.1606(3)
H5 H 0.2265 0.1075 0.1805
C10 C 0.2452(2) 0.20666(16) 0.0965(3)
H6 H 0.2328 0.2353 0.0630
C11 C 0.3051(2) 0.19463(17) 0.1394(3)
H7 H 0.3410 0.2132 0.1412
C12 C 0.35533(19) 0.12268(15) 0.2356(3)
C13 C 0.4104(2) 0.14700(16) 0.2768(3)
H8 H 0.4135 0.1805 0.2690
C14 C 0.4607(2) 0.12123(15) 0.3296(3)
H9 H 0.4976 0.1379 0.3569
C15 C 0.45811(19) 0.07148(15) 0.3431(3)
C16 C 0.40194(19) 0.04793(15) 0.3017(3)
H10 H 0.3987 0.0145 0.3104
C17 C 0.3505(2) 0.07292(15) 0.2478(3)
H11 H 0.3135 0.0564 0.2204
C18 C 0.51516(18) 0.04361(15) 0.3923(3)
C19 C 0.56598(18) 0.06675(15) 0.4526(3)
H12 H 0.5625 0.0996 0.4668
C20 C 0.62227(19) 0.04185(15) 0.4923(3)
C24 C 0.67649(19) 0.06707(15) 0.5559(3)
C25 C 0.6862(2) 0.11684(17) 0.5491(3)
H15 H 0.6572 0.1353 0.5059
C26 C 0.7389(2) 0.13980(17) 0.6058(3)
H16 H 0.7450 0.1731 0.5998
C27 C 0.7811(2) 0.11333(17) 0.6698(3)
C28 C 0.7714(2) 0.06440(18) 0.6811(4)
H17 H 0.7997 0.0467 0.7267
C29 C 0.7192(2) 0.04126(17) 0.6245(3)
H18 H 0.7128 0.0081 0.6326
C30 C 0.8763(2) 0.16629(16) 0.6952(3)
H19 H 0.8704 0.1764 0.6330
C31 C 0.9151(3) 0.1563(2) 0.8422(4)
H20 H 0.9419 0.1587 0.9018
C32 C 0.8615(3) 0.1297(2) 0.8207(4)
H21 H 0.8448 0.1106 0.8615
N1 N 0.20535(16) 0.16986(12) 0.1101(3)
N2 N 0.30287(16) 0.14965(12) 0.1800(2)
N3 N 0.92411(16) 0.17924(12) 0.7631(3)
N4 N 0.83689(17) 0.13646(14) 0.7264(3)
O5 O 0.0905(3) 0.10247(16) 0.1336(3)
C48 C 0.1319(2) 0.0059(2) 0.0101(4)
H32 H 0.1537 0.0349 0.0271
C49 C 0.0653(2) 0.00401(16) 0.0056(3)
Co8_2 Co 1.0000 0.21794(3) 0.7500
N15 N 0.09558(16) 0.21111(12) 0.1942(2)
S1 S 0.04889(5) 0.25931(4) 0.95791(7)
O1 O 0.11025(14) 0.23179(11) 0.9849(2)
O2 O 0.03252(14) 0.26315(10) 0.85319(19)
O3 O 0.00171(15) 0.23172(13) 0.9904(2)
O4 O 0.05784(16) 0.30802(11) 0.9966(2)
O6 O 0.0660(2) 0.12294(13) 0.9907(3)
N14 N 0.07589(16) 0.17924(12) 0.7369(3)
C21 C 0.62707(19) 0.99275(16) 0.4689(3)
H13 H 0.6645 0.9760 0.4928
C22 C 0.57641(19) 0.96854(15) 0.4100(3)
C23 C 0.5210(2) 0.99411(15) 0.3740(3)
H14 H 0.4868 0.9777 0.3365
C33 C 0.5819(2) 0.91667(15) 0.3829(3)
C34 C 0.6281(2) 0.90191(17) 0.3385(4)
H22 H 0.6576 0.9245 0.3281
C35 C 0.6311(2) 0.85415(16) 0.3094(3)
H23 H 0.6624 0.8447 0.2797
C36 C 0.5873(2) 0.82042(15) 0.3247(3)
C37 C 0.5414(2) 0.83417(16) 0.3700(3)
H24 H 0.5125 0.8114 0.3815
C38 C 0.5389(2) 0.88216(16) 0.3982(3)
H25 H 0.5077 0.8915 0.4282
C39 C 0.6004(2) 0.75858(16) 0.2073(3)
H26 H 0.6107 0.7805 0.1648
C40 C 0.5788(2) 0.69284(17) 0.2718(3)
H27 H 0.5720 0.6599 0.2816
C41 C 0.5735(2) 0.72898(17) 0.3324(4)
H28 H 0.5622 0.7260 0.3896
N5 N 0.59558(16) 0.71111(12) 0.1942(2)
N6 N 0.58833(16) 0.77132(12) 0.2907(2)
Co4 Co 0.60922(3) 0.677222(19) 0.07702(4)
Co3 Co 0.89078(3) 0.177222(19) 0.42298(4)
S2 S 0.95111(5) 0.25931(4) 0.54209(7)
C50 C 0.75862(19) 0.13647(15) 0.3394(3)
H33 H 0.7735 0.1075 0.3195
C51 C 0.7548(2) 0.20666(16) 0.4035(3)
H34 H 0.7672 0.2353 0.4370
C52 C 0.6949(2) 0.19463(17) 0.3606(3)
H35 H 0.6590 0.2132 0.3588
C53 C 0.64467(19) 0.12268(15) 0.2644(3)
C54 C 0.5896(2) 0.14700(16) 0.2232(3)
H36 H 0.5865 0.1805 0.2310
C55 C 0.5393(2) 0.12123(15) 0.1704(3)
H37 H 0.5024 0.1379 0.1431
C56 C 0.54189(19) 0.07148(15) 0.1569(3)
C57 C 0.59806(19) 0.04793(15) 0.1983(3)
H38 H 0.6013 0.0145 0.1896
C58 C 0.6495(2) 0.07292(15) 0.2522(3)
H39 H 0.6865 0.0564 0.2796
C59 C 0.48484(18) 0.04361(15) 0.1077(3)
C60 C 0.43402(18) 0.06675(15) 0.0474(3)
H40 H 0.4375 0.0996 0.0332
C61 C 0.37773(19) 0.04185(15) 0.0077(3)
N7 N 0.79465(16) 0.16986(12) 0.3899(3)
N8 N 0.69713(16) 0.14965(12) 0.3200(2)
O9 O 0.88975(14) 0.23179(11) 0.5151(2)
O10 O 0.96748(14) 0.26315(10) 0.64681(19)
O11 O 0.99829(15) 0.23172(13) 0.5096(2)
O12 O 0.94216(16) 0.30802(11) 0.5034(2)
N16 N 0.90442(16) 0.21111(12) 0.3058(2)
O13 O 0.9095(3) 0.10247(16) 0.3664(3)
O14 O 0.9340(2) 0.12294(13) 0.5093(3)
C65 C 0.32351(19) 0.06707(15) 0.9441(3)
C66 C 0.3138(2) 0.11684(17) 0.9509(3)
H43 H 0.3428 0.1353 0.9941
C67 C 0.2611(2) 0.13980(17) 0.8942(3)
H44 H 0.2550 0.1731 0.9002
C68 C 0.2189(2) 0.11333(17) 0.8302(3)
C69 C 0.2286(2) 0.06440(18) 0.8189(4)
H45 H 0.2003 0.0467 0.7733
C70 C 0.2808(2) 0.04126(17) 0.8755(3)
H46 H 0.2872 0.0081 0.8674
C71 C 0.1237(2) 0.16629(16) 0.8048(3)
H47 H 0.1296 0.1764 0.8670
C72 C 0.0849(3) 0.1563(2) 0.6578(4)
H48 H 0.0581 0.1587 0.5982
C73 C 0.1385(3) 0.1297(2) 0.6793(4)
H49 H 0.1552 0.1106 0.6385
N10 N 0.16311(17) 0.13646(14) 0.7736(3)
O8 O 0.9340(2) 0.87706(13) 0.0093(3)
C7 C 0.8681(2) 0.9941(2) 0.9899(4)
H4 H 0.8463 0.9651 0.9729
C8 C 0.9347(2) 0.99599(16) 0.9944(3)
C42 C 0.9353(2) 0.90784(16) 0.9488(4)
C43 C 0.9683(2) 0.95532(15) 0.9747(3)
O7 O 0.9095(3) 0.89753(16) 0.8664(3)
C62 C 0.37293(19) 0.99275(16) 0.0311(3)
H41 H 0.3355 0.9760 0.0072
C63 C 0.42359(19) 0.96854(15) 0.0900(3)
C64 C 0.4790(2) 0.99411(15) 0.1260(3)
H42 H 0.5132 0.9777 0.1635
C74 C 0.4181(2) 0.91667(15) 0.1171(3)
C75 C 0.3719(2) 0.90191(17) 0.1615(4)
H50 H 0.3424 0.9245 0.1719
C76 C 0.3689(2) 0.85415(16) 0.1906(3)
H51 H 0.3376 0.8447 0.2203
C77 C 0.4127(2) 0.82042(15) 0.1753(3)
C78 C 0.4586(2) 0.83417(16) 0.1300(3)
H52 H 0.4875 0.8114 0.1185
C79 C 0.4611(2) 0.88216(16) 0.1018(3)
H53 H 0.4923 0.8915 0.0718
C80 C 0.3996(2) 0.75858(16) 0.2927(3)
H54 H 0.3893 0.7805 0.3352
C81 C 0.4212(2) 0.69284(17) 0.2282(3)
H55 H 0.4280 0.6599 0.2184
C82 C 0.4265(2) 0.72898(17) 0.1676(4)
H56 H 0.4378 0.7260 0.1104
N11 N 0.40442(16) 0.71111(12) 0.3058(2)
N12 N 0.41167(16) 0.77132(12) 0.2093(2)
Co5 Co 0.39078(3) 0.677222(19) 0.42298(4)
Co6 Co 0.89078(3) 0.822778(19) 0.92298(4)
C3 C 0.0332(2) 0.04165(16) 0.4791(3)
C4 C 0.0683(3) 0.08205(17) 0.4574(4)
H1 H 0.0479 0.1116 0.4399
C5 C 0.1306(3) 0.07854(19) 0.4616(4)
H2 H 0.1520 0.1054 0.4459
C6 C 0.1639(3) 0.0344(2) 0.4898(4)
H3 H 0.2071 0.0327 0.4945
C7_2 C 0.1319(2) 0.9941(2) 0.5101(4)
H4_2 H 0.1537 0.9651 0.5271
C8_2 C 0.0653(2) 0.99599(16) 0.5056(3)
C42_2 C 0.0647(2) 0.90784(16) 0.5512(4)
C43_2 C 0.0317(2) 0.95532(15) 0.5253(3)
O7_2 O 0.0905(3) 0.89753(16) 0.6336(3)
O8_2 O 0.0660(2) 0.87706(13) 0.4907(3)
Co6_2 Co 0.10922(3) 0.822778(19) 0.57702(4)
C1_2 C 0.9353(2) 0.09216(16) 0.4488(4)
C2_2 C 0.9683(2) 0.04468(15) 0.4747(3)
C48_2 C 0.8681(2) 0.0059(2) 0.4899(4)
H32_2 H 0.8463 0.0349 0.4729
C49_2 C 0.9347(2) 0.00401(16) 0.4944(3)
C44 C 0.9668(2) 0.95835(16) 0.5209(3)
C45 C 0.9317(3) 0.91795(17) 0.5426(4)
H29 H 0.9521 0.8884 0.5601
C46 C 0.8694(3) 0.92146(19) 0.5384(4)
H30 H 0.8480 0.8946 0.5541
C47 C 0.8361(3) 0.9656(2) 0.5102(4)
H31 H 0.7929 0.9673 0.5055
C18_2 C 0.01516(18) 0.54361(15) 0.3923(3)
C19_2 C 0.06598(18) 0.56675(15) 0.4526(3)
H12_2 H 0.0625 0.5996 0.4668
C20_2 C 0.12227(19) 0.54185(15) 0.4923(3)
C21_2 C 0.12707(19) 0.49275(16) 0.4689(3)
H13_2 H 0.1645 0.4760 0.4928
C22_2 C 0.07641(19) 0.46854(15) 0.4100(3)
C23_2 C 0.0210(2) 0.49411(15) 0.3740(3)
C24_2 C 0.17649(19) 0.56707(15) 0.5559(3)
C25_2 C 0.1862(2) 0.61684(17) 0.5491(3)
H15_2 H 0.1572 0.6353 0.5059
C26_2 C 0.2389(2) 0.63980(17) 0.6058(3)
H16_2 H 0.2450 0.6731 0.5998
C27_2 C 0.2811(2) 0.61333(17) 0.6698(3)
C28_2 C 0.2714(2) 0.56440(18) 0.6811(4)
H17_2 H 0.2997 0.5467 0.7267
C29_2 C 0.2192(2) 0.54126(17) 0.6245(3)
H18_2 H 0.2128 0.5081 0.6326
C30_2 C 0.3763(2) 0.66629(16) 0.6952(3)
H19_2 H 0.3704 0.6764 0.6330
C31_2 C 0.4151(3) 0.6563(2) 0.8422(4)
H20_2 H 0.4419 0.6587 0.9018
C32_2 C 0.3615(3) 0.6297(2) 0.8207(4)
H21_2 H 0.3448 0.6106 0.8615
C33_2 C 0.0819(2) 0.41667(15) 0.3829(3)
C34_2 C 0.1281(2) 0.40191(17) 0.3385(4)
H22_2 H 0.1576 0.4245 0.3281
C35_2 C 0.1311(2) 0.35415(16) 0.3094(3)
H23_2 H 0.1624 0.3447 0.2797
C36_2 C 0.0873(2) 0.32042(15) 0.3247(3)
C37_2 C 0.0414(2) 0.33417(16) 0.3700(3)
H24_2 H 0.0125 0.3114 0.3815
C38_2 C 0.0389(2) 0.38216(16) 0.3982(3)
H25_2 H 0.0077 0.3915 0.4282
C39_2 C 0.1004(2) 0.25858(16) 0.2073(3)
H26_2 H 0.1107 0.2805 0.1648
C40_2 C 0.0788(2) 0.19284(17) 0.2718(3)
H27_2 H 0.0720 0.1599 0.2816
C41_2 C 0.0735(2) 0.22898(17) 0.3324(4)
H28_2 H 0.0622 0.2260 0.3896
N3_2 N 0.42411(16) 0.67924(12) 0.7631(3)
N4_2 N 0.33689(17) 0.63646(14) 0.7264(3)
N6_2 N 0.08833(16) 0.27132(12) 0.2907(2)
Co8_3 Co 0.5000 0.71794(3) 0.7500
C1_3 C 0.5647(2) 0.59216(16) 0.0512(4)
C2_3 C 0.5317(2) 0.54468(15) 0.0253(3)
C3_2 C 0.4668(2) 0.54165(16) 0.0209(3)
C4_2 C 0.4317(3) 0.58205(17) 0.0426(4)
H1_2 H 0.4521 0.6116 0.0601
C5_2 C 0.3694(3) 0.57854(19) 0.0384(4)
H2_2 H 0.3480 0.6054 0.0541
C6_2 C 0.3361(3) 0.5344(2) 0.0102(4)
H3_2 H 0.2929 0.5327 0.0055
C9_2 C 0.74138(19) 0.63647(15) 0.1606(3)
H5_2 H 0.7265 0.6075 0.1805
C10_2 C 0.7452(2) 0.70666(16) 0.0965(3)
H6_2 H 0.7328 0.7353 0.0630
C11_2 C 0.8051(2) 0.69463(17) 0.1394(3)
H7_2 H 0.8410 0.7132 0.1412
C12_2 C 0.85533(19) 0.62268(15) 0.2356(3)
C13_2 C 0.9104(2) 0.64700(16) 0.2768(3)
H8_2 H 0.9135 0.6805 0.2690
C14_2 C 0.9607(2) 0.62123(15) 0.3296(3)
H9_2 H 0.9976 0.6379 0.3569
C15_2 C 0.95811(19) 0.57148(15) 0.3431(3)
C16_2 C 0.90194(19) 0.54793(15) 0.3017(3)
H10_2 H 0.8987 0.5145 0.3104
C17_2 C 0.8505(2) 0.57292(15) 0.2478(3)
H11_2 H 0.8135 0.5564 0.2204
H14_2 H 0.9868 0.4777 0.3365
N1_2 N 0.70535(16) 0.66986(12) 0.1101(3)
N2_2 N 0.80287(16) 0.64965(12) 0.1800(2)
O5_2 O 0.5905(3) 0.60247(16) 0.1336(3)
C48_3 C 0.6319(2) 0.5059(2) 0.0101(4)
H32_3 H 0.6537 0.5349 0.0271
C49_3 C 0.5653(2) 0.50401(16) 0.0056(3)
O8_3 O 0.4340(2) 0.37706(13) 0.0093(3)
S1_2 S 0.54889(5) 0.75931(4) 0.95791(7)
C7_3 C 0.3681(2) 0.4941(2) 0.9899(4)
H4_3 H 0.3463 0.4651 0.9729
C8_3 C 0.4347(2) 0.49599(16) 0.9944(3)
O1_2 O 0.61025(14) 0.73179(11) 0.9849(2)
O2_2 O 0.53252(14) 0.76315(10) 0.85319(19)
O3_2 O 0.50171(15) 0.73172(13) 0.9904(2)
O4_2 O 0.55784(16) 0.80802(11) 0.9966(2)
O6_2 O 0.5660(2) 0.62294(13) 0.9907(3)
C42_3 C 0.4353(2) 0.40784(16) 0.9488(4)
C43_3 C 0.4683(2) 0.45532(15) 0.9747(3)
C44_2 C 0.5332(2) 0.45835(16) 0.9791(3)
C45_2 C 0.5683(3) 0.41795(17) 0.9574(4)
H29_2 H 0.5479 0.3884 0.9399
C46_2 C 0.6306(3) 0.42146(19) 0.9616(4)
H30_2 H 0.6520 0.3946 0.9459
C47_2 C 0.6639(3) 0.4656(2) 0.9898(4)
H31_2 H 0.7071 0.4673 0.9945
O7_3 O 0.4095(3) 0.39753(16) 0.8664(3)
S2_2 S 0.45111(5) 0.75931(4) 0.54209(7)
C50_2 C 0.25862(19) 0.63647(15) 0.3394(3)
H33_2 H 0.2735 0.6075 0.3195
C51_2 C 0.2548(2) 0.70666(16) 0.4035(3)
H34_2 H 0.2672 0.7353 0.4370
C52_2 C 0.1949(2) 0.69463(17) 0.3606(3)
H35_2 H 0.1590 0.7132 0.3588
C53_2 C 0.14467(19) 0.62268(15) 0.2644(3)
C54_2 C 0.0896(2) 0.64700(16) 0.2232(3)
H36_2 H 0.0865 0.6805 0.2310
C55_2 C 0.0393(2) 0.62123(15) 0.1704(3)
H37_2 H 0.0024 0.6379 0.1431
C56_2 C 0.04189(19) 0.57148(15) 0.1569(3)
C57_2 C 0.09806(19) 0.54793(15) 0.1983(3)
H38_2 H 0.1013 0.5145 0.1896
C58_2 C 0.1495(2) 0.57292(15) 0.2522(3)
H39_2 H 0.1865 0.5564 0.2796
H42_2 H 0.0132 0.4777 0.1635
N7_2 N 0.29465(16) 0.66986(12) 0.3899(3)
N8_2 N 0.19713(16) 0.64965(12) 0.3200(2)
O9_2 O 0.38975(14) 0.73179(11) 0.5151(2)
O10_2 O 0.46748(14) 0.76315(10) 0.64681(19)
O11_2 O 0.49829(15) 0.73172(13) 0.5096(2)
O12_2 O 0.44216(16) 0.80802(11) 0.5034(2)
Co6_3 Co 0.39078(3) 0.322778(19) 0.92298(4)
N14_2 N 0.57589(16) 0.67924(12) 0.7369(3)
O13_2 O 0.4095(3) 0.60247(16) 0.3664(3)
O14_2 O 0.4340(2) 0.62294(13) 0.5093(3)
C59_2 C 0.98484(18) 0.54361(15) 0.1077(3)
C60_2 C 0.93402(18) 0.56675(15) 0.0474(3)
H40_2 H 0.9375 0.5996 0.0332
C61_2 C 0.87773(19) 0.54185(15) 0.0077(3)
C62_2 C 0.87293(19) 0.49275(16) 0.0311(3)
H41_2 H 0.8355 0.4760 0.0072
C63_2 C 0.92359(19) 0.46854(15) 0.0900(3)
C64_2 C 0.9790(2) 0.49411(15) 0.1260(3)
C74_2 C 0.9181(2) 0.41667(15) 0.1171(3)
C75_2 C 0.8719(2) 0.40191(17) 0.1615(4)
H50_2 H 0.8424 0.4245 0.1719
C76_2 C 0.8689(2) 0.35415(16) 0.1906(3)
H51_2 H 0.8376 0.3447 0.2203
C77_2 C 0.9127(2) 0.32042(15) 0.1753(3)
C78_2 C 0.9586(2) 0.33417(16) 0.1300(3)
H52_2 H 0.9875 0.3114 0.1185
C79_2 C 0.9611(2) 0.38216(16) 0.1018(3)
H53_2 H 0.9923 0.3915 0.0718
C80_2 C 0.8996(2) 0.25858(16) 0.2927(3)
H54_2 H 0.8893 0.2805 0.3352
C81_2 C 0.9212(2) 0.19284(17) 0.2282(3)
H55_2 H 0.9280 0.1599 0.2184
C82_2 C 0.9265(2) 0.22898(17) 0.1676(4)
H56_2 H 0.9378 0.2260 0.1104
N12_2 N 0.91167(16) 0.27132(12) 0.2093(2)
C65_2 C 0.82351(19) 0.56707(15) 0.9441(3)
C66_2 C 0.8138(2) 0.61684(17) 0.9509(3)
H43_2 H 0.8428 0.6353 0.9941
C67_2 C 0.7611(2) 0.63980(17) 0.8942(3)
H44_2 H 0.7550 0.6731 0.9002
C68_2 C 0.7189(2) 0.61333(17) 0.8302(3)
C69_2 C 0.7286(2) 0.56440(18) 0.8189(4)
H45_2 H 0.7003 0.5467 0.7733
C70_2 C 0.7808(2) 0.54126(17) 0.8755(3)
H46_2 H 0.7872 0.5081 0.8674
C71_2 C 0.6237(2) 0.66629(16) 0.8048(3)
H47_2 H 0.6296 0.6764 0.8670
C72_2 C 0.5849(3) 0.6563(2) 0.6578(4)
H48_2 H 0.5581 0.6587 0.5982
C73_2 C 0.6385(3) 0.6297(2) 0.6793(4)
H49_2 H 0.6552 0.6106 0.6385
N10_2 N 0.66311(17) 0.63646(14) 0.7736(3)
C1_4 C 0.4353(2) 0.59216(16) 0.4488(4)
C2_4 C 0.4683(2) 0.54468(15) 0.4747(3)
C3_3 C 0.5332(2) 0.54165(16) 0.4791(3)
C4_3 C 0.5683(3) 0.58205(17) 0.4574(4)
H1_3 H 0.5479 0.6116 0.4399
C5_3 C 0.6306(3) 0.57854(19) 0.4616(4)
H2_3 H 0.6520 0.6054 0.4459
C6_3 C 0.6639(3) 0.5344(2) 0.4898(4)
H3_3 H 0.7071 0.5327 0.4945
C7_4 C 0.6319(2) 0.4941(2) 0.5101(4)
H4_4 H 0.6537 0.4651 0.5271
C8_4 C 0.5653(2) 0.49599(16) 0.5056(3)
C42_4 C 0.5647(2) 0.40784(16) 0.5512(4)
C43_4 C 0.5317(2) 0.45532(15) 0.5253(3)
C44_3 C 0.4668(2) 0.45835(16) 0.5209(3)
C45_3 C 0.4317(3) 0.41795(17) 0.5426(4)
H29_3 H 0.4521 0.3884 0.5601
C46_3 C 0.3694(3) 0.42146(19) 0.5384(4)
H30_3 H 0.3480 0.3946 0.5541
C47_3 C 0.3361(3) 0.4656(2) 0.5102(4)
H31_3 H 0.2929 0.4673 0.5055
C48_4 C 0.3681(2) 0.5059(2) 0.4899(4)
H32_4 H 0.3463 0.5349 0.4729
C49_4 C 0.4347(2) 0.50401(16) 0.4944(3)
O7_4 O 0.5905(3) 0.39753(16) 0.6336(3)
O8_4 O 0.5660(2) 0.37706(13) 0.4907(3)
Co6_4 Co 0.60922(3) 0.322778(19) 0.57702(4)
Co7 Co 0.0000 0.78206(3) 0.2500
C62_3 C 0.62707(19) 0.00725(16) 0.9689(3)
H41_3 H 0.6645 0.0240 0.9928
C63_3 C 0.57641(19) 0.03146(15) 0.9100(3)
C64_3 C 0.5210(2) 0.00589(15) 0.8740(3)
H42_3 H 0.4868 0.0223 0.8365
C74_3 C 0.5819(2) 0.08333(15) 0.8829(3)
C75_3 C 0.6281(2) 0.09809(17) 0.8385(4)
H50_3 H 0.6576 0.0755 0.8281
C76_3 C 0.6311(2) 0.14585(16) 0.8094(3)
H51_3 H 0.6624 0.1553 0.7797
C77_3 C 0.5873(2) 0.17958(15) 0.8247(3)
C78_3 C 0.5414(2) 0.16583(16) 0.8700(3)
H52_3 H 0.5125 0.1886 0.8815
C79_3 C 0.5389(2) 0.11784(16) 0.8982(3)
H53_3 H 0.5077 0.1085 0.9282
C80_3 C 0.6004(2) 0.24142(16) 0.7073(3)
H54_3 H 0.6107 0.2195 0.6648
C81_3 C 0.5788(2) 0.30716(17) 0.7718(3)
H55_3 H 0.5720 0.3401 0.7816
C82_3 C 0.5735(2) 0.27102(17) 0.8324(4)
H56_3 H 0.5622 0.2740 0.8896
N11_2 N 0.59558(16) 0.28889(12) 0.6942(2)
N12_3 N 0.58833(16) 0.22868(12) 0.7907(2)
C65_3 C 0.67649(19) 0.93293(15) 0.0559(3)
C66_3 C 0.6862(2) 0.88316(17) 0.0491(3)
H43_3 H 0.6572 0.8647 0.0059
C67_3 C 0.7389(2) 0.86020(17) 0.1058(3)
H44_3 H 0.7450 0.8269 0.0998
C68_3 C 0.7811(2) 0.88667(17) 0.1698(3)
C69_3 C 0.7714(2) 0.93560(18) 0.1811(4)
H45_3 H 0.7997 0.9533 0.2267
C70_3 C 0.7192(2) 0.95874(17) 0.1245(3)
H46_3 H 0.7128 0.9919 0.1326
C71_3 C 0.8763(2) 0.83371(16) 0.1952(3)
H47_3 H 0.8704 0.8236 0.1330
C72_3 C 0.9151(3) 0.8437(2) 0.3422(4)
H48_3 H 0.9419 0.8413 0.4018
C73_3 C 0.8615(3) 0.8703(2) 0.3207(4)
H49_3 H 0.8448 0.8894 0.3615
N9 N 0.92411(16) 0.82076(12) 0.2631(3)
N10_3 N 0.83689(17) 0.86354(14) 0.2264(3)
Co7_2 Co 1.0000 0.78206(3) 0.2500
S2_3 S 0.04889(5) 0.74069(4) 0.45791(7)
C50_3 C 0.24138(19) 0.86353(15) 0.6606(3)
H33_3 H 0.2265 0.8925 0.6805
C51_3 C 0.2452(2) 0.79334(16) 0.5965(3)
H34_3 H 0.2328 0.7647 0.5630
C52_3 C 0.3051(2) 0.80537(17) 0.6394(3)
H35_3 H 0.3410 0.7868 0.6412
C53_3 C 0.35533(19) 0.87732(15) 0.7356(3)
C54_3 C 0.4104(2) 0.85300(16) 0.7768(3)
H36_3 H 0.4135 0.8195 0.7690
C55_3 C 0.4607(2) 0.87877(15) 0.8296(3)
H37_3 H 0.4976 0.8621 0.8569
C56_3 C 0.45811(19) 0.92852(15) 0.8431(3)
C57_3 C 0.40194(19) 0.95207(15) 0.8017(3)
H38_3 H 0.3987 0.9855 0.8104
C58_3 C 0.3505(2) 0.92708(15) 0.7478(3)
H39_3 H 0.3135 0.9436 0.7204
C59_3 C 0.51516(18) 0.95639(15) 0.8923(3)
C60_3 C 0.56598(18) 0.93325(15) 0.9526(3)
H40_3 H 0.5625 0.9004 0.9668
C61_3 C 0.62227(19) 0.95815(15) 0.9923(3)
N7_3 N 0.20535(16) 0.83014(12) 0.6101(3)
N8_3 N 0.30287(16) 0.85035(12) 0.6800(2)
O9_3 O 0.11025(14) 0.76821(11) 0.4849(2)
O10_3 O 0.03252(14) 0.73685(10) 0.35319(19)
O11_3 O 0.00171(15) 0.76828(13) 0.4904(2)
O12_3 O 0.05784(16) 0.69198(11) 0.4966(2)
N13 N 0.07589(16) 0.82076(12) 0.2369(3)
N16_2 N 0.09558(16) 0.78889(12) 0.6942(2)
C21_3 C 0.37293(19) 0.00725(16) 0.5311(3)
H13_3 H 0.3355 0.0240 0.5072
C22_3 C 0.42359(19) 0.03146(15) 0.5900(3)
C23_3 C 0.4790(2) 0.00589(15) 0.6260(3)
H14_3 H 0.5132 0.0223 0.6635
C33_3 C 0.4181(2) 0.08333(15) 0.6171(3)
C34_3 C 0.3719(2) 0.09809(17) 0.6615(4)
H22_3 H 0.3424 0.0755 0.6719
C35_3 C 0.3689(2) 0.14585(16) 0.6906(3)
H23_3 H 0.3376 0.1553 0.7203
C36_3 C 0.4127(2) 0.17958(15) 0.6753(3)
C37_3 C 0.4586(2) 0.16583(16) 0.6300(3)
H24_3 H 0.4875 0.1886 0.6185
C38_3 C 0.4611(2) 0.11784(16) 0.6018(3)
H25_3 H 0.4923 0.1085 0.5718
C39_3 C 0.3996(2) 0.24142(16) 0.7927(3)
H26_3 H 0.3893 0.2195 0.8352
C40_3 C 0.4212(2) 0.30716(17) 0.7282(3)
H27_3 H 0.4280 0.3401 0.7184
C41_3 C 0.4265(2) 0.27102(17) 0.6676(4)
H28_3 H 0.4378 0.2740 0.6104
N5_2 N 0.40442(16) 0.28889(12) 0.8058(2)
N6_3 N 0.41167(16) 0.22868(12) 0.7093(2)
S1_3 S 0.95111(5) 0.74069(4) 0.04209(7)
O1_3 O 0.88975(14) 0.76821(11) 0.0151(2)
O2_3 O 0.96748(14) 0.73685(10) 0.14681(19)
O3_3 O 0.99829(15) 0.76828(13) 0.0096(2)
O4_3 O 0.94216(16) 0.69198(11) 0.0034(2)
C9_3 C 0.75862(19) 0.86353(15) 0.8394(3)
H5_3 H 0.7735 0.8925 0.8195
C10_3 C 0.7548(2) 0.79334(16) 0.9035(3)
H6_3 H 0.7672 0.7647 0.9370
C11_3 C 0.6949(2) 0.80537(17) 0.8606(3)
H7_3 H 0.6590 0.7868 0.8588
C12_3 C 0.64467(19) 0.87732(15) 0.7644(3)
C13_3 C 0.5896(2) 0.85300(16) 0.7232(3)
H8_3 H 0.5865 0.8195 0.7310
C14_3 C 0.5393(2) 0.87877(15) 0.6704(3)
H9_3 H 0.5024 0.8621 0.6431
C15_3 C 0.54189(19) 0.92852(15) 0.6569(3)
C16_3 C 0.59806(19) 0.95207(15) 0.6983(3)
H10_3 H 0.6013 0.9855 0.6896
C17_3 C 0.6495(2) 0.92708(15) 0.7522(3)
H11_3 H 0.6865 0.9436 0.7796
C18_3 C 0.48484(18) 0.95639(15) 0.6077(3)
C19_3 C 0.43402(18) 0.93325(15) 0.5474(3)
H12_3 H 0.4375 0.9004 0.5332
C20_3 C 0.37773(19) 0.95815(15) 0.5077(3)
C24_3 C 0.32351(19) 0.93293(15) 0.4441(3)
C25_3 C 0.3138(2) 0.88316(17) 0.4509(3)
H15_3 H 0.3428 0.8647 0.4941
C26_3 C 0.2611(2) 0.86020(17) 0.3942(3)
H16_3 H 0.2550 0.8269 0.4002
C27_3 C 0.2189(2) 0.88667(17) 0.3302(3)
C28_3 C 0.2286(2) 0.93560(18) 0.3189(4)
H17_3 H 0.2003 0.9533 0.2733
C29_3 C 0.2808(2) 0.95874(17) 0.3755(3)
H18_3 H 0.2872 0.9919 0.3674
C30_3 C 0.1237(2) 0.83371(16) 0.3048(3)
H19_3 H 0.1296 0.8236 0.3670
C31_3 C 0.0849(3) 0.8437(2) 0.1578(4)
H20_3 H 0.0581 0.8413 0.0982
C32_3 C 0.1385(3) 0.8703(2) 0.1793(4)
H21_3 H 0.1552 0.8894 0.1385
N1_3 N 0.79465(16) 0.83014(12) 0.8899(3)
N2_3 N 0.69713(16) 0.85035(12) 0.8200(2)
N4_3 N 0.16311(17) 0.86354(14) 0.2736(3)
N15_2 N 0.90442(16) 0.78889(12) 0.8058(2)
C65_4 C 0.17649(19) 0.43293(15) 0.0559(3)
C66_4 C 0.1862(2) 0.38316(17) 0.0491(3)
H43_4 H 0.1572 0.3647 0.0059
C67_4 C 0.2389(2) 0.36020(17) 0.1058(3)
H44_4 H 0.2450 0.3269 0.0998
C68_4 C 0.2811(2) 0.38667(17) 0.1698(3)
C69_4 C 0.2714(2) 0.43560(18) 0.1811(4)
H45_4 H 0.2997 0.4533 0.2267
C70_4 C 0.2192(2) 0.45874(17) 0.1245(3)
H46_4 H 0.2128 0.4919 0.1326
C71_4 C 0.3763(2) 0.33371(16) 0.1952(3)
H47_4 H 0.3704 0.3236 0.1330
C72_4 C 0.4151(3) 0.3437(2) 0.3422(4)
H48_4 H 0.4419 0.3413 0.4018
C73_4 C 0.3615(3) 0.3703(2) 0.3207(4)
H49_4 H 0.3448 0.3894 0.3615
N9_2 N 0.42411(16) 0.32076(12) 0.2631(3)
N10_4 N 0.33689(17) 0.36354(14) 0.2264(3)
Co7_3 Co 0.5000 0.28206(3) 0.2500
C59_4 C 0.01516(18) 0.45639(15) 0.8923(3)
C60_4 C 0.06598(18) 0.43325(15) 0.9526(3)
H40_4 H 0.0625 0.4004 0.9668
C61_4 C 0.12227(19) 0.45815(15) 0.9923(3)
C62_4 C 0.12707(19) 0.50725(16) 0.9689(3)
H41_4 H 0.1645 0.5240 0.9928
C63_4 C 0.07641(19) 0.53146(15) 0.9100(3)
C64_4 C 0.0210(2) 0.50589(15) 0.8740(3)
C74_4 C 0.0819(2) 0.58333(15) 0.8829(3)
C75_4 C 0.1281(2) 0.59809(17) 0.8385(4)
H50_4 H 0.1576 0.5755 0.8281
C76_4 C 0.1311(2) 0.64585(16) 0.8094(3)
H51_4 H 0.1624 0.6553 0.7797
C77_4 C 0.0873(2) 0.67958(15) 0.8247(3)
C78_4 C 0.0414(2) 0.66583(16) 0.8700(3)
H52_4 H 0.0125 0.6886 0.8815
C79_4 C 0.0389(2) 0.61784(16) 0.8982(3)
H53_4 H 0.0077 0.6085 0.9282
C80_4 C 0.1004(2) 0.74142(16) 0.7073(3)
H54_4 H 0.1107 0.7195 0.6648
C81_4 C 0.0788(2) 0.80716(17) 0.7718(3)
H55_4 H 0.0720 0.8401 0.7816
C82_4 C 0.0735(2) 0.77102(17) 0.8324(4)
H56_4 H 0.0622 0.7740 0.8896
N12_4 N 0.08833(16) 0.72868(12) 0.7907(2)
S1_4 S 0.45111(5) 0.24069(4) 0.04209(7)
O1_4 O 0.38975(14) 0.26821(11) 0.0151(2)
O2_4 O 0.46748(14) 0.23685(10) 0.14681(19)
O3_4 O 0.49829(15) 0.26828(13) 0.0096(2)
O4_4 O 0.44216(16) 0.19198(11) 0.0034(2)
S2_4 S 0.54889(5) 0.24069(4) 0.45791(7)
C50_4 C 0.74138(19) 0.36353(15) 0.6606(3)
H33_4 H 0.7265 0.3925 0.6805
C51_4 C 0.7452(2) 0.29334(16) 0.5965(3)
H34_4 H 0.7328 0.2647 0.5630
C52_4 C 0.8051(2) 0.30537(17) 0.6394(3)
H35_4 H 0.8410 0.2868 0.6412
C53_4 C 0.85533(19) 0.37732(15) 0.7356(3)
C54_4 C 0.9104(2) 0.35300(16) 0.7768(3)
H36_4 H 0.9135 0.3195 0.7690
C55_4 C 0.9607(2) 0.37877(15) 0.8296(3)
H37_4 H 0.9976 0.3621 0.8569
C56_4 C 0.95811(19) 0.42852(15) 0.8431(3)
C57_4 C 0.90194(19) 0.45207(15) 0.8017(3)
H38_4 H 0.8987 0.4855 0.8104
C58_4 C 0.8505(2) 0.42708(15) 0.7478(3)
H39_4 H 0.8135 0.4436 0.7204
H42_4 H 0.9868 0.5223 0.8365
N7_4 N 0.70535(16) 0.33014(12) 0.6101(3)
N8_4 N 0.80287(16) 0.35035(12) 0.6800(2)
O9_4 O 0.61025(14) 0.26821(11) 0.4849(2)
O10_4 O 0.53252(14) 0.23685(10) 0.35319(19)
O11_4 O 0.50171(15) 0.26828(13) 0.4904(2)
O12_4 O 0.55784(16) 0.19198(11) 0.4966(2)
N13_2 N 0.57589(16) 0.32076(12) 0.2369(3)
C9_4 C 0.25862(19) 0.36353(15) 0.8394(3)
H5_4 H 0.2735 0.3925 0.8195
C10_4 C 0.2548(2) 0.29334(16) 0.9035(3)
H6_4 H 0.2672 0.2647 0.9370
C11_4 C 0.1949(2) 0.30537(17) 0.8606(3)
H7_4 H 0.1590 0.2868 0.8588
C12_4 C 0.14467(19) 0.37732(15) 0.7644(3)
C13_4 C 0.0896(2) 0.35300(16) 0.7232(3)
H8_4 H 0.0865 0.3195 0.7310
C14_4 C 0.0393(2) 0.37877(15) 0.6704(3)
H9_4 H 0.0024 0.3621 0.6431
C15_4 C 0.04189(19) 0.42852(15) 0.6569(3)
C16_4 C 0.09806(19) 0.45207(15) 0.6983(3)
H10_4 H 0.1013 0.4855 0.6896
C17_4 C 0.1495(2) 0.42708(15) 0.7522(3)
H11_4 H 0.1865 0.4436 0.7796
H14_4 H 0.0132 0.5223 0.6635
N1_4 N 0.29465(16) 0.33014(12) 0.8899(3)
N2_4 N 0.19713(16) 0.35035(12) 0.8200(2)
C18_4 C 0.98484(18) 0.45639(15) 0.6077(3)
C19_4 C 0.93402(18) 0.43325(15) 0.5474(3)
H12_4 H 0.9375 0.4004 0.5332
C20_4 C 0.87773(19) 0.45815(15) 0.5077(3)
C21_4 C 0.87293(19) 0.50725(16) 0.5311(3)
H13_4 H 0.8355 0.5240 0.5072
C22_4 C 0.92359(19) 0.53146(15) 0.5900(3)
C23_4 C 0.9790(2) 0.50589(15) 0.6260(3)
C24_4 C 0.82351(19) 0.43293(15) 0.4441(3)
C25_4 C 0.8138(2) 0.38316(17) 0.4509(3)
H15_4 H 0.8428 0.3647 0.4941
C26_4 C 0.7611(2) 0.36020(17) 0.3942(3)
H16_4 H 0.7550 0.3269 0.4002
C27_4 C 0.7189(2) 0.38667(17) 0.3302(3)
C28_4 C 0.7286(2) 0.43560(18) 0.3189(4)
H17_4 H 0.7003 0.4533 0.2733
C29_4 C 0.7808(2) 0.45874(17) 0.3755(3)
H18_4 H 0.7872 0.4919 0.3674
C30_4 C 0.6237(2) 0.33371(16) 0.3048(3)
H19_4 H 0.6296 0.3236 0.3670
C31_4 C 0.5849(3) 0.3437(2) 0.1578(4)
H20_4 H 0.5581 0.3413 0.0982
C32_4 C 0.6385(3) 0.3703(2) 0.1793(4)
H21_4 H 0.6552 0.3894 0.1385
C33_4 C 0.9181(2) 0.58333(15) 0.6171(3)
C34_4 C 0.8719(2) 0.59809(17) 0.6615(4)
H22_4 H 0.8424 0.5755 0.6719
C35_4 C 0.8689(2) 0.64585(16) 0.6906(3)
H23_4 H 0.8376 0.6553 0.7203
C36_4 C 0.9127(2) 0.67958(15) 0.6753(3)
C37_4 C 0.9586(2) 0.66583(16) 0.6300(3)
H24_4 H 0.9875 0.6886 0.6185
C38_4 C 0.9611(2) 0.61784(16) 0.6018(3)
H25_4 H 0.9923 0.6085 0.5718
C39_4 C 0.8996(2) 0.74142(16) 0.7927(3)
H26_4 H 0.8893 0.7195 0.8352
C40_4 C 0.9212(2) 0.80716(17) 0.7282(3)
H27_4 H 0.9280 0.8401 0.7184
C41_4 C 0.9265(2) 0.77102(17) 0.6676(4)
H28_4 H 0.9378 0.7740 0.6104
N4_4 N 0.66311(17) 0.36354(14) 0.2736(3)
N6_4 N 0.91167(16) 0.72868(12) 0.7093(2)
C44_4 C 0.0332(2) 0.95835(16) 0.9791(3)
C45_4 C 0.0683(3) 0.91795(17) 0.9574(4)
H29_4 H 0.0479 0.8884 0.9399
C46_4 C 0.1306(3) 0.92146(19) 0.9616(4)
H30_4 H 0.1520 0.8946 0.9459
C47_4 C 0.1639(3) 0.9656(2) 0.9898(4)
H31_4 H 0.2071 0.9673 0.9945
C3_4 C 0.9668(2) 0.04165(16) 0.0209(3)
C4_4 C 0.9317(3) 0.08205(17) 0.0426(4)
H1_4 H 0.9521 0.1116 0.0601
C5_4 C 0.8694(3) 0.07854(19) 0.0384(4)
H2_4 H 0.8480 0.1054 0.0541
C6_4 C 0.8361(3) 0.0344(2) 0.0102(4)
H3_4 H 0.7929 0.0327 0.0055
loop_
_geom_bond_atom_site_label_1
_geom_bond_atom_site_label_2
_geom_bond_site_symmetry_1
_geom_bond_site_symmetry_2
Co1 N1 1_555 1_555
C1 C2 1_555 1_555
C9 H5 1_555 1_555
C10 H6 1_555 1_555
C11 C10 1_555 1_555
H7 C11 1_555 1_555
C12 C13 1_555 1_555
C13 H8 1_555 1_555
C14 C13 1_555 1_555
H9 C14 1_555 1_555
C15 C14 1_555 1_555
C16 C15 1_555 1_555
H10 C16 1_555 1_555
C17 C12 1_555 1_555
H11 C17 1_555 1_555
C18 C15 1_555 1_555
C19 C18 1_555 1_555
H12 C19 1_555 1_555
C20 C19 1_555 1_555
C24 C20 1_555 1_555
C25 C24 1_555 1_555
H15 C25 1_555 1_555
C26 C25 1_555 1_555
H16 C26 1_555 1_555
C27 C26 1_555 1_555
C28 C27 1_555 1_555
H17 C28 1_555 1_555
C29 C24 1_555 1_555
H18 C29 1_555 1_555
C30 H19 1_555 1_555
C31 H20 1_555 1_555
C32 C31 1_555 1_555
H21 C32 1_555 1_555
N1 C9 1_555 1_555
N2 C9 1_555 1_555
N3 C30 1_555 1_555
N4 C27 1_555 1_555
O5 Co1 1_555 1_555
H32 C48 1_555 1_555
C49 C2 1_555 1_555
Co8_2 N3 1_555 1_555
N15 Co1 1_555 1_555
C1 O5 1_555 1_555
C10 N1 1_555 1_555
C11 N2 1_555 1_555
C12 N2 1_555 1_555
C16 C17 1_555 1_555
C28 C29 1_555 1_555
C30 N4 1_555 1_555
C31 N3 1_555 1_555
C32 N4 1_555 1_555
C48 C49 1_555 1_555
Co8 O2 1_555 1_555
S1 O1 1_555 1_555
O2 S1 1_555 1_555
O3 S1 1_555 1_555
O4 S1 1_555 1_555
N14 Co8 1_555 1_555
H13 C21 1_555 1_555
C22 C21 1_555 1_555
H14 C23 1_555 1_555
C33 C22 1_555 1_555
C34 C33 1_555 1_555
H22 C34 1_555 1_555
C35 C34 1_555 1_555
H23 C35 1_555 1_555
C36 C35 1_555 1_555
C37 C36 1_555 1_555
H24 C37 1_555 1_555
C38 C33 1_555 1_555
H25 C38 1_555 1_555
C39 H26 1_555 1_555
C40 H27 1_555 1_555
C41 C40 1_555 1_555
H28 C41 1_555 1_555
N5 C39 1_555 1_555
N6 C36 1_555 1_555
Co4 N5 1_555 1_555
C22 C23 1_555 1_555
C37 C38 1_555 1_555
C39 N6 1_555 1_555
C40 N5 1_555 1_555
C41 N6 1_555 1_555
Co3 N7 1_555 1_555
S2 O9 1_555 1_555
C50 H33 1_555 1_555
C51 H34 1_555 1_555
C52 C51 1_555 1_555
H35 C52 1_555 1_555
C53 C54 1_555 1_555
C54 H36 1_555 1_555
C55 C54 1_555 1_555
H37 C55 1_555 1_555
C56 C55 1_555 1_555
C57 C56 1_555 1_555
H38 C57 1_555 1_555
C58 C53 1_555 1_555
H39 C58 1_555 1_555
C59 C56 1_555 1_555
C60 C59 1_555 1_555
H40 C60 1_555 1_555
C61 C60 1_555 1_555
N7 C50 1_555 1_555
N8 C50 1_555 1_555
O9 Co3 1_555 1_555
O10 Co8_2 1_555 1_555
O11 S2 1_555 1_555
O12 S2 1_555 1_555
N16 Co3 1_555 1_555
O13 Co3 1_555 1_555
O14 Co3 1_555 1_555
S2 O10 1_555 1_555
C51 N7 1_555 1_555
C52 N8 1_555 1_555
C53 N8 1_555 1_555
C57 C58 1_555 1_555
C66 C65 1_555 1_555
H43 C66 1_555 1_555
C67 C66 1_555 1_555
H44 C67 1_555 1_555
C68 C67 1_555 1_555
C69 C68 1_555 1_555
H45 C69 1_555 1_555
C70 C65 1_555 1_555
H46 C70 1_555 1_555
C71 H47 1_555 1_555
C72 H48 1_555 1_555
C73 C72 1_555 1_555
H49 C73 1_555 1_555
N14 C71 1_555 1_555
N10 C68 1_555 1_555
C69 C70 1_555 1_555
C71 N10 1_555 1_555
C72 N14 1_555 1_555
C73 N10 1_555 1_555
H4 C7 1_555 1_555
C42 C43 1_555 1_555
C43 C8 1_555 1_555
O7 C42 1_555 1_555
H41 C62 1_555 1_555
C63 C62 1_555 1_555
H42 C64 1_555 1_555
C74 C63 1_555 1_555
C75 C74 1_555 1_555
H50 C75 1_555 1_555
C76 C75 1_555 1_555
H51 C76 1_555 1_555
C77 C76 1_555 1_555
C78 C77 1_555 1_555
H52 C78 1_555 1_555
C79 C74 1_555 1_555
H53 C79 1_555 1_555
C80 H54 1_555 1_555
C81 H55 1_555 1_555
C82 C81 1_555 1_555
H56 C82 1_555 1_555
N11 C80 1_555 1_555
N12 C77 1_555 1_555
Co5 N11 1_555 1_555
Co6 O7 1_555 1_555
C7 C8 1_555 1_555
C63 C64 1_555 1_555
C78 C79 1_555 1_555
C80 N12 1_555 1_555
C81 N11 1_555 1_555
C82 N12 1_555 1_555
C3 C4 1_555 1_555
C4 H1 1_555 1_555
C5 C4 1_555 1_555
H2 C5 1_555 1_555
C6 C5 1_555 1_555
H3 C6 1_555 1_555
H4_2 C7_2 1_555 1_555
C42_2 C43_2 1_555 1_555
C43_2 C8_2 1_555 1_555
O7_2 C42_2 1_555 1_555
O8_2 C42_2 1_555 1_555
Co6_2 O7_2 1_555 1_555
C7_2 C8_2 1_555 1_555
O8_2 Co6_2 1_555 1_555
C1_2 C2_2 1_555 1_555
H32_2 C48_2 1_555 1_555
C49_2 C2_2 1_555 1_555
C1_2 O13 1_555 1_555
C1_2 O14 1_555 1_555
C48_2 C49_2 1_555 1_555
C45 C44 1_555 1_555
H29 C45 1_555 1_555
C46 C45 1_555 1_555
H30 C46 1_555 1_555
C47 C46 1_555 1_555
H31 C47 1_555 1_555
C19_2 C18_2 1_555 1_555
H12_2 C19_2 1_555 1_555
C20_2 C19_2 1_555 1_555
C21_2 C20_2 1_555 1_555
H13_2 C21_2 1_555 1_555
C22_2 C21_2 1_555 1_555
C23_2 C18_2 1_555 1_555
C24_2 C20_2 1_555 1_555
C25_2 C24_2 1_555 1_555
H15_2 C25_2 1_555 1_555
C26_2 C25_2 1_555 1_555
H16_2 C26_2 1_555 1_555
C27_2 C26_2 1_555 1_555
C28_2 C27_2 1_555 1_555
H17_2 C28_2 1_555 1_555
C29_2 C24_2 1_555 1_555
H18_2 C29_2 1_555 1_555
C30_2 H19_2 1_555 1_555
C31_2 H20_2 1_555 1_555
C32_2 C31_2 1_555 1_555
H21_2 C32_2 1_555 1_555
C33_2 C22_2 1_555 1_555
C34_2 C33_2 1_555 1_555
H22_2 C34_2 1_555 1_555
C35_2 C34_2 1_555 1_555
H23_2 C35_2 1_555 1_555
C36_2 C35_2 1_555 1_555
C37_2 C36_2 1_555 1_555
H24_2 C37_2 1_555 1_555
C38_2 C33_2 1_555 1_555
H25_2 C38_2 1_555 1_555
C39_2 H26_2 1_555 1_555
C40_2 H27_2 1_555 1_555
C41_2 C40_2 1_555 1_555
H28_2 C41_2 1_555 1_555
N3_2 C30_2 1_555 1_555
N4_2 C27_2 1_555 1_555
N15 C39_2 1_555 1_555
N6_2 C36_2 1_555 1_555
Co8_3 N3_2 1_555 1_555
C22_2 C23_2 1_555 1_555
C28_2 C29_2 1_555 1_555
C30_2 N4_2 1_555 1_555
C31_2 N3_2 1_555 1_555
C32_2 N4_2 1_555 1_555
C37_2 C38_2 1_555 1_555
C39_2 N6_2 1_555 1_555
C40_2 N15 1_555 1_555
C41_2 N6_2 1_555 1_555
Co4 N1_2 1_555 1_555
C1_3 C2_3 1_555 1_555
C2_3 C3_2 1_555 1_555
C3_2 C4_2 1_555 1_555
C4_2 H1_2 1_555 1_555
C5_2 C4_2 1_555 1_555
H2_2 C5_2 1_555 1_555
C6_2 C5_2 1_555 1_555
H3_2 C6_2 1_555 1_555
C9_2 H5_2 1_555 1_555
C10_2 H6_2 1_555 1_555
C11_2 C10_2 1_555 1_555
H7_2 C11_2 1_555 1_555
C12_2 C13_2 1_555 1_555
C13_2 H8_2 1_555 1_555
C14_2 C13_2 1_555 1_555
H9_2 C14_2 1_555 1_555
C15_2 C14_2 1_555 1_555
C16_2 C15_2 1_555 1_555
H10_2 C16_2 1_555 1_555
C17_2 C12_2 1_555 1_555
H11_2 C17_2 1_555 1_555
N1_2 C9_2 1_555 1_555
N2_2 C9_2 1_555 1_555
O5_2 Co4 1_555 1_555
H32_3 C48_3 1_555 1_555
C49_3 C2_3 1_555 1_555
C1_3 O5_2 1_555 1_555
C10_2 N1_2 1_555 1_555
C11_2 N2_2 1_555 1_555
C12_2 N2_2 1_555 1_555
C16_2 C17_2 1_555 1_555
C48_3 C49_3 1_555 1_555
Co8_3 O2_2 1_555 1_555
S1_2 O1_2 1_555 1_555
H4_3 C7_3 1_555 1_555
O2_2 S1_2 1_555 1_555
O3_2 S1_2 1_555 1_555
O4_2 S1_2 1_555 1_555
C42_3 C43_3 1_555 1_555
C43_3 C8_3 1_555 1_555
C44_2 C43_3 1_555 1_555
C45_2 C44_2 1_555 1_555
H29_2 C45_2 1_555 1_555
C46_2 C45_2 1_555 1_555
H30_2 C46_2 1_555 1_555
C47_2 C46_2 1_555 1_555
H31_2 C47_2 1_555 1_555
O7_3 C42_3 1_555 1_555
Co5 N7_2 1_555 1_555
S2_2 O9_2 1_555 1_555
C50_2 H33_2 1_555 1_555
C51_2 H34_2 1_555 1_555
C52_2 C51_2 1_555 1_555
H35_2 C52_2 1_555 1_555
C53_2 C54_2 1_555 1_555
C54_2 H36_2 1_555 1_555
C55_2 C54_2 1_555 1_555
H37_2 C55_2 1_555 1_555
C56_2 C55_2 1_555 1_555
C57_2 C56_2 1_555 1_555
H38_2 C57_2 1_555 1_555
C58_2 C53_2 1_555 1_555
H39_2 C58_2 1_555 1_555
N7_2 C50_2 1_555 1_555
N8_2 C50_2 1_555 1_555
O9_2 Co5 1_555 1_555
O10_2 Co8_3 1_555 1_555
O11_2 S2_2 1_555 1_555
O12_2 S2_2 1_555 1_555
Co6_3 O7_3 1_555 1_555
N14_2 Co8_3 1_555 1_555
O13_2 Co5 1_555 1_555
O14_2 Co5 1_555 1_555
C7_3 C8_3 1_555 1_555
S2_2 O10_2 1_555 1_555
C51_2 N7_2 1_555 1_555
C52_2 N8_2 1_555 1_555
C53_2 N8_2 1_555 1_555
C57_2 C58_2 1_555 1_555
C60_2 C59_2 1_555 1_555
H40_2 C60_2 1_555 1_555
C61_2 C60_2 1_555 1_555
C62_2 C61_2 1_555 1_555
H41_2 C62_2 1_555 1_555
C63_2 C62_2 1_555 1_555
C64_2 C59_2 1_555 1_555
C74_2 C63_2 1_555 1_555
C75_2 C74_2 1_555 1_555
H50_2 C75_2 1_555 1_555
C76_2 C75_2 1_555 1_555
H51_2 C76_2 1_555 1_555
C77_2 C76_2 1_555 1_555
C78_2 C77_2 1_555 1_555
H52_2 C78_2 1_555 1_555
C79_2 C74_2 1_555 1_555
H53_2 C79_2 1_555 1_555
C80_2 H54_2 1_555 1_555
C81_2 H55_2 1_555 1_555
C82_2 C81_2 1_555 1_555
H56_2 C82_2 1_555 1_555
N16 C80_2 1_555 1_555
N12_2 C77_2 1_555 1_555
C63_2 C64_2 1_555 1_555
C78_2 C79_2 1_555 1_555
C80_2 N12_2 1_555 1_555
C81_2 N16 1_555 1_555
C82_2 N12_2 1_555 1_555
C66_2 C65_2 1_555 1_555
H43_2 C66_2 1_555 1_555
C67_2 C66_2 1_555 1_555
H44_2 C67_2 1_555 1_555
C68_2 C67_2 1_555 1_555
C69_2 C68_2 1_555 1_555
H45_2 C69_2 1_555 1_555
C70_2 C65_2 1_555 1_555
H46_2 C70_2 1_555 1_555
C71_2 H47_2 1_555 1_555
C72_2 H48_2 1_555 1_555
C73_2 C72_2 1_555 1_555
H49_2 C73_2 1_555 1_555
N14_2 C71_2 1_555 1_555
N10_2 C68_2 1_555 1_555
C69_2 C70_2 1_555 1_555
C71_2 N10_2 1_555 1_555
C72_2 N14_2 1_555 1_555
C73_2 N10_2 1_555 1_555
C1_4 C2_4 1_555 1_555
C2_4 C3_3 1_555 1_555
C3_3 C4_3 1_555 1_555
C4_3 H1_3 1_555 1_555
C5_3 C4_3 1_555 1_555
H2_3 C5_3 1_555 1_555
C6_3 C5_3 1_555 1_555
H3_3 C6_3 1_555 1_555
C7_4 C6_3 1_555 1_555
H4_4 C7_4 1_555 1_555
C8_4 C3_3 1_555 1_555
C42_4 C43_4 1_555 1_555
C43_4 C8_4 1_555 1_555
C44_3 C43_4 1_555 1_555
C45_3 C44_3 1_555 1_555
H29_3 C45_3 1_555 1_555
C46_3 C45_3 1_555 1_555
H30_3 C46_3 1_555 1_555
C47_3 C46_3 1_555 1_555
H31_3 C47_3 1_555 1_555
C48_4 C47_3 1_555 1_555
H32_4 C48_4 1_555 1_555
C49_4 C2_4 1_555 1_555
O7_4 C42_4 1_555 1_555
O8_4 C42_4 1_555 1_555
Co6_4 O7_4 1_555 1_555
C1_4 O13_2 1_555 1_555
C1_4 O14_2 1_555 1_555
C7_4 C8_4 1_555 1_555
C44_3 C49_4 1_555 1_555
C48_4 C49_4 1_555 1_555
O8_4 Co6_4 1_555 1_555
H41_3 C62_3 1_555 1_555
C63_3 C62_3 1_555 1_555
H42_3 C64_3 1_555 1_555
C74_3 C63_3 1_555 1_555
C75_3 C74_3 1_555 1_555
H50_3 C75_3 1_555 1_555
C76_3 C75_3 1_555 1_555
H51_3 C76_3 1_555 1_555
C77_3 C76_3 1_555 1_555
C78_3 C77_3 1_555 1_555
H52_3 C78_3 1_555 1_555
C79_3 C74_3 1_555 1_555
H53_3 C79_3 1_555 1_555
C80_3 H54_3 1_555 1_555
C81_3 H55_3 1_555 1_555
C82_3 C81_3 1_555 1_555
H56_3 C82_3 1_555 1_555
N11_2 C80_3 1_555 1_555
N12_3 C77_3 1_555 1_555
Co6_4 N11_2 1_555 1_555
C63_3 C64_3 1_555 1_555
C78_3 C79_3 1_555 1_555
C80_3 N12_3 1_555 1_555
C81_3 N11_2 1_555 1_555
C82_3 N12_3 1_555 1_555
C66_3 C65_3 1_555 1_555
H43_3 C66_3 1_555 1_555
C67_3 C66_3 1_555 1_555
H44_3 C67_3 1_555 1_555
C68_3 C67_3 1_555 1_555
C69_3 C68_3 1_555 1_555
H45_3 C69_3 1_555 1_555
C70_3 C65_3 1_555 1_555
H46_3 C70_3 1_555 1_555
C71_3 H47_3 1_555 1_555
C72_3 H48_3 1_555 1_555
C73_3 C72_3 1_555 1_555
H49_3 C73_3 1_555 1_555
N9 C71_3 1_555 1_555
N10_3 C68_3 1_555 1_555
Co7_2 N9 1_555 1_555
C69_3 C70_3 1_555 1_555
C71_3 N10_3 1_555 1_555
C72_3 N9 1_555 1_555
C73_3 N10_3 1_555 1_555
Co6_2 N7_3 1_555 1_555
S2_3 O9_3 1_555 1_555
C50_3 H33_3 1_555 1_555
C51_3 H34_3 1_555 1_555
C52_3 C51_3 1_555 1_555
H35_3 C52_3 1_555 1_555
C53_3 C54_3 1_555 1_555
C54_3 H36_3 1_555 1_555
C55_3 C54_3 1_555 1_555
H37_3 C55_3 1_555 1_555
C56_3 C55_3 1_555 1_555
C57_3 C56_3 1_555 1_555
H38_3 C57_3 1_555 1_555
C58_3 C53_3 1_555 1_555
H39_3 C58_3 1_555 1_555
C59_3 C56_3 1_555 1_555
C60_3 C59_3 1_555 1_555
H40_3 C60_3 1_555 1_555
C61_3 C60_3 1_555 1_555
N7_3 C50_3 1_555 1_555
N8_3 C50_3 1_555 1_555
O9_3 Co6_2 1_555 1_555
O10_3 Co7 1_555 1_555
O11_3 S2_3 1_555 1_555
O12_3 S2_3 1_555 1_555
N13 Co7 1_555 1_555
N16_2 Co6_2 1_555 1_555
S2_3 O10_3 1_555 1_555
C51_3 N7_3 1_555 1_555
C52_3 N8_3 1_555 1_555
C53_3 N8_3 1_555 1_555
C57_3 C58_3 1_555 1_555
H13_3 C21_3 1_555 1_555
C22_3 C21_3 1_555 1_555
H14_3 C23_3 1_555 1_555
C33_3 C22_3 1_555 1_555
C34_3 C33_3 1_555 1_555
H22_3 C34_3 1_555 1_555
C35_3 C34_3 1_555 1_555
H23_3 C35_3 1_555 1_555
C36_3 C35_3 1_555 1_555
C37_3 C36_3 1_555 1_555
H24_3 C37_3 1_555 1_555
C38_3 C33_3 1_555 1_555
H25_3 C38_3 1_555 1_555
C39_3 H26_3 1_555 1_555
C40_3 H27_3 1_555 1_555
C41_3 C40_3 1_555 1_555
H28_3 C41_3 1_555 1_555
N5_2 C39_3 1_555 1_555
N6_3 C36_3 1_555 1_555
Co6_3 N5_2 1_555 1_555
C22_3 C23_3 1_555 1_555
C37_3 C38_3 1_555 1_555
C39_3 N6_3 1_555 1_555
C40_3 N5_2 1_555 1_555
C41_3 N6_3 1_555 1_555
Co7_2 O2_3 1_555 1_555
S1_3 O1_3 1_555 1_555
O2_3 S1_3 1_555 1_555
O3_3 S1_3 1_555 1_555
O4_3 S1_3 1_555 1_555
Co6 N1_3 1_555 1_555
C9_3 H5_3 1_555 1_555
C10_3 H6_3 1_555 1_555
C11_3 C10_3 1_555 1_555
H7_3 C11_3 1_555 1_555
C12_3 C13_3 1_555 1_555
C13_3 H8_3 1_555 1_555
C14_3 C13_3 1_555 1_555
H9_3 C14_3 1_555 1_555
C15_3 C14_3 1_555 1_555
C16_3 C15_3 1_555 1_555
H10_3 C16_3 1_555 1_555
C17_3 C12_3 1_555 1_555
H11_3 C17_3 1_555 1_555
C18_3 C15_3 1_555 1_555
C19_3 C18_3 1_555 1_555
H12_3 C19_3 1_555 1_555
C20_3 C19_3 1_555 1_555
C24_3 C20_3 1_555 1_555
C25_3 C24_3 1_555 1_555
H15_3 C25_3 1_555 1_555
C26_3 C25_3 1_555 1_555
H16_3 C26_3 1_555 1_555
C27_3 C26_3 1_555 1_555
C28_3 C27_3 1_555 1_555
H17_3 C28_3 1_555 1_555
C29_3 C24_3 1_555 1_555
H18_3 C29_3 1_555 1_555
C30_3 H19_3 1_555 1_555
C31_3 H20_3 1_555 1_555
C32_3 C31_3 1_555 1_555
H21_3 C32_3 1_555 1_555
N1_3 C9_3 1_555 1_555
N2_3 C9_3 1_555 1_555
N13 C30_3 1_555 1_555
N4_3 C27_3 1_555 1_555
N15_2 Co6 1_555 1_555
C10_3 N1_3 1_555 1_555
C11_3 N2_3 1_555 1_555
C12_3 N2_3 1_555 1_555
C16_3 C17_3 1_555 1_555
C28_3 C29_3 1_555 1_555
C30_3 N4_3 1_555 1_555
C31_3 N13 1_555 1_555
C32_3 N4_3 1_555 1_555
C66_4 C65_4 1_555 1_555
H43_4 C66_4 1_555 1_555
C67_4 C66_4 1_555 1_555
H44_4 C67_4 1_555 1_555
C68_4 C67_4 1_555 1_555
C69_4 C68_4 1_555 1_555
H45_4 C69_4 1_555 1_555
C70_4 C65_4 1_555 1_555
H46_4 C70_4 1_555 1_555
C71_4 H47_4 1_555 1_555
C72_4 H48_4 1_555 1_555
C73_4 C72_4 1_555 1_555
H49_4 C73_4 1_555 1_555
N9_2 C71_4 1_555 1_555
N10_4 C68_4 1_555 1_555
Co7_3 N9_2 1_555 1_555
C69_4 C70_4 1_555 1_555
C71_4 N10_4 1_555 1_555
C72_4 N9_2 1_555 1_555
C73_4 N10_4 1_555 1_555
C60_4 C59_4 1_555 1_555
H40_4 C60_4 1_555 1_555
C61_4 C60_4 1_555 1_555
C62_4 C61_4 1_555 1_555
H41_4 C62_4 1_555 1_555
C63_4 C62_4 1_555 1_555
C64_4 C59_4 1_555 1_555
C74_4 C63_4 1_555 1_555
C75_4 C74_4 1_555 1_555
H50_4 C75_4 1_555 1_555
C76_4 C75_4 1_555 1_555
H51_4 C76_4 1_555 1_555
C77_4 C76_4 1_555 1_555
C78_4 C77_4 1_555 1_555
H52_4 C78_4 1_555 1_555
C79_4 C74_4 1_555 1_555
H53_4 C79_4 1_555 1_555
C80_4 H54_4 1_555 1_555
C81_4 H55_4 1_555 1_555
C82_4 C81_4 1_555 1_555
H56_4 C82_4 1_555 1_555
N16_2 C80_4 1_555 1_555
N12_4 C77_4 1_555 1_555
C63_4 C64_4 1_555 1_555
C78_4 C79_4 1_555 1_555
C80_4 N12_4 1_555 1_555
C81_4 N16_2 1_555 1_555
C82_4 N12_4 1_555 1_555
Co7_3 O2_4 1_555 1_555
S1_4 O1_4 1_555 1_555
O2_4 S1_4 1_555 1_555
O3_4 S1_4 1_555 1_555
O4_4 S1_4 1_555 1_555
Co6_4 N7_4 1_555 1_555
S2_4 O9_4 1_555 1_555
C50_4 H33_4 1_555 1_555
C51_4 H34_4 1_555 1_555
C52_4 C51_4 1_555 1_555
H35_4 C52_4 1_555 1_555
C53_4 C54_4 1_555 1_555
C54_4 H36_4 1_555 1_555
C55_4 C54_4 1_555 1_555
H37_4 C55_4 1_555 1_555
C56_4 C55_4 1_555 1_555
C57_4 C56_4 1_555 1_555
H38_4 C57_4 1_555 1_555
C58_4 C53_4 1_555 1_555
H39_4 C58_4 1_555 1_555
N7_4 C50_4 1_555 1_555
N8_4 C50_4 1_555 1_555
O9_4 Co6_4 1_555 1_555
O10_4 Co7_3 1_555 1_555
O11_4 S2_4 1_555 1_555
O12_4 S2_4 1_555 1_555
N13_2 Co7_3 1_555 1_555
S2_4 O10_4 1_555 1_555
C51_4 N7_4 1_555 1_555
C52_4 N8_4 1_555 1_555
C53_4 N8_4 1_555 1_555
C57_4 C58_4 1_555 1_555
Co6_3 N1_4 1_555 1_555
C9_4 H5_4 1_555 1_555
C10_4 H6_4 1_555 1_555
C11_4 C10_4 1_555 1_555
H7_4 C11_4 1_555 1_555
C12_4 C13_4 1_555 1_555
C13_4 H8_4 1_555 1_555
C14_4 C13_4 1_555 1_555
H9_4 C14_4 1_555 1_555
C15_4 C14_4 1_555 1_555
C16_4 C15_4 1_555 1_555
H10_4 C16_4 1_555 1_555
C17_4 C12_4 1_555 1_555
H11_4 C17_4 1_555 1_555
N1_4 C9_4 1_555 1_555
N2_4 C9_4 1_555 1_555
C10_4 N1_4 1_555 1_555
C11_4 N2_4 1_555 1_555
C12_4 N2_4 1_555 1_555
C16_4 C17_4 1_555 1_555
C19_4 C18_4 1_555 1_555
H12_4 C19_4 1_555 1_555
C20_4 C19_4 1_555 1_555
C21_4 C20_4 1_555 1_555
H13_4 C21_4 1_555 1_555
C22_4 C21_4 1_555 1_555
C23_4 C18_4 1_555 1_555
C24_4 C20_4 1_555 1_555
C25_4 C24_4 1_555 1_555
H15_4 C25_4 1_555 1_555
C26_4 C25_4 1_555 1_555
H16_4 C26_4 1_555 1_555
C27_4 C26_4 1_555 1_555
C28_4 C27_4 1_555 1_555
H17_4 C28_4 1_555 1_555
C29_4 C24_4 1_555 1_555
H18_4 C29_4 1_555 1_555
C30_4 H19_4 1_555 1_555
C31_4 H20_4 1_555 1_555
C32_4 C31_4 1_555 1_555
H21_4 C32_4 1_555 1_555
C33_4 C22_4 1_555 1_555
C34_4 C33_4 1_555 1_555
H22_4 C34_4 1_555 1_555
C35_4 C34_4 1_555 1_555
H23_4 C35_4 1_555 1_555
C36_4 C35_4 1_555 1_555
C37_4 C36_4 1_555 1_555
H24_4 C37_4 1_555 1_555
C38_4 C33_4 1_555 1_555
H25_4 C38_4 1_555 1_555
C39_4 H26_4 1_555 1_555
C40_4 H27_4 1_555 1_555
C41_4 C40_4 1_555 1_555
H28_4 C41_4 1_555 1_555
N13_2 C30_4 1_555 1_555
N4_4 C27_4 1_555 1_555
N15_2 C39_4 1_555 1_555
N6_4 C36_4 1_555 1_555
C22_4 C23_4 1_555 1_555
C28_4 C29_4 1_555 1_555
C30_4 N4_4 1_555 1_555
C31_4 N13_2 1_555 1_555
C32_4 N4_4 1_555 1_555
C37_4 C38_4 1_555 1_555
C39_4 N6_4 1_555 1_555
C40_4 N15_2 1_555 1_555
C41_4 N6_4 1_555 1_555
C45_4 C44_4 1_555 1_555
H29_4 C45_4 1_555 1_555
C46_4 C45_4 1_555 1_555
H30_4 C46_4 1_555 1_555
C47_4 C46_4 1_555 1_555
H31_4 C47_4 1_555 1_555
C3_4 C4_4 1_555 1_555
C4_4 H1_4 1_555 1_555
C5_4 C4_4 1_555 1_555
H2_4 C5_4 1_555 1_555
C6_4 C5_4 1_555 1_555
H3_4 C6_4 1_555 1_555

#END
