
###############################################################################
#
# This file contains modified crystal structure data generated from the
# MOF subset of the Cambridge Structural Database (CSD) v543 
# hosted by the Cambridge Crystallographic Data Centre (CCDC).
#
# This work is licensed under the Creative Commons
# Attribution-NonCommercial-ShareAlike 4.0 International License.
# To view a copy of this license, visit
# http://creativecommons.org/licenses/by-nc-sa/4.0/
# or send a letter to
# Creative Commons, PO Box 1866, Mountain View, CA 94042, USA.
#
# CIF created using the CSD Python API on 29 September 2022
# The structure has been converted into the P1 space group
# The structure has a 3D framework
# The original CSD entry ZEGXUH is in the monoclinic crystal system
# The framework has been calculated to contain at least 10.0% void space
# The void calculation uses a probe of radius 1.32A, grid spacing 0.4
#
###############################################################################

data_ZEGXUH
_chemical_formula_moiety         '(C296 H208 Co14 N48 O48 S8)n'
_symmetry_cell_setting           triclinic
_symmetry_space_group_name_H-M   'P 1'
_symmetry_Int_Tables_number      1
_space_group_name_Hall           'P 1'
loop_
_symmetry_equiv_pos_site_id
_symmetry_equiv_pos_as_xyz
1 x,y,z
_cell_length_a                   21.9628(13)
_cell_length_b                   27.4453(15)
_cell_length_c                   14.1306(8)
_cell_angle_alpha                90
_cell_angle_beta                 104.6580(10)
_cell_angle_gamma                90
_cell_volume                     8240.36
loop_
_atom_site_label
_atom_site_type_symbol
_atom_site_fract_x
_atom_site_fract_y
_atom_site_fract_z
Co8 Co 0.0000 0.221136(16) 0.2500
C12 C 0.62345(11) 0.04349(8) 0.00079(18)
C16 C 0.67645(11) 0.07015(9) 0.06708(19)
C17 C 0.69032(12) 0.11780(10) 0.0471(2)
C18 C 0.74209(13) 0.14187(10) 0.1045(2)
H12 H 0.7511 0.1743 0.0891
C19 C 0.78039(12) 0.11871(9) 0.18405(19)
C20 C 0.76481(13) 0.07250(10) 0.2115(2)
H13 H 0.7890 0.0577 0.2696
C21 C 0.71322(13) 0.04841(10) 0.1524(2)
H14 H 0.7027 0.0167 0.1702
C22 C 0.91724(17) 0.16341(15) 0.3573(2)
H15 H 0.9450 0.1677 0.4203
C23 C 0.86242(17) 0.13818(16) 0.3383(2)
H16 H 0.8451 0.1214 0.3842
C24 C 0.87716(14) 0.16783(11) 0.2023(2)
H17 H 0.8708 0.1752 0.1349
N3 N 0.92673(10) 0.18203(8) 0.27115(17)
N4 N 0.83697(10) 0.14183(8) 0.23899(17)
Co8_2 Co 1.0000 0.221136(16) 0.2500
Co1 Co 0.106799(16) 0.176914(12) 0.58224(3)
S1 S 0.05392(3) 0.262762(19) 0.46026(4)
C1 C 0.24107(13) 0.20593(9) 0.6023(2)
H1 H 0.2274 0.2355 0.5686
C2 C 0.30160(13) 0.19467(10) 0.6458(2)
H2 H 0.3377 0.2143 0.6489
C3 C 0.23905(11) 0.13460(9) 0.66513(18)
H3 H 0.2248 0.1046 0.6853
C4 C 0.35340(11) 0.12177(9) 0.73904(18)
C5 C 0.40708(13) 0.14682(9) 0.7878(2)
H4 H 0.4077 0.1814 0.7866
C6 C 0.45952(12) 0.12133(9) 0.8381(2)
H5 H 0.4965 0.1387 0.8697
C7 C 0.45927(10) 0.07048(8) 0.84337(16)
C8 C 0.40423(11) 0.04633(8) 0.79595(18)
H6 H 0.4026 0.0118 0.8002
C9 C 0.35152(11) 0.07130(9) 0.74249(18)
H7 H 0.3149 0.0541 0.7089
C10 C 0.51711(10) 0.04381(8) 0.89434(16)
C11 C 0.56792(11) 0.06809(8) 0.95615(17)
H8 H 0.5646 0.1019 0.9680
H11 H 0.6638 0.1342 0.9929
C34 C 0.06044(16) 0.09253(11) 0.5649(3)
C35 C 0.02791(18) 0.04466(12) 0.5319(3)
C37 C 0.0426(2) 0.00433(14) 0.5898(4)
H26 H 0.0719 0.0068 0.6519
N1 N 0.20198(10) 0.16826(7) 0.61399(16)
N2 N 0.29996(10) 0.14847(7) 0.68503(16)
O1 O 0.05246(13) 0.12681(9) 0.5012(2)
O2 O 0.09439(12) 0.09757(8) 0.6484(2)
O3 O 0.11075(10) 0.23049(8) 0.48705(15)
O4 O 0.03745(10) 0.26790(6) 0.35119(13)
O5 O 0.06982(10) 0.31048(7) 0.50355(14)
O6 O 0.00328(10) 0.23944(8) 0.49210(16)
N14 N 0.07327(10) 0.18203(8) 0.22885(17)
N15 N 0.09686(10) 0.21052(8) 0.70434(16)
C13 C 0.62912(11) 0.99415(9) 0.98078(18)
C14 C 0.57908(11) 0.96919(8) 0.91906(17)
C15 C 0.52321(10) 0.99400(8) 0.87823(16)
H10 H 0.4886 0.9767 0.8386
C25 C 0.58462(11) 0.91718(8) 0.89270(17)
C26 C 0.63223(12) 0.90225(9) 0.8499(2)
H18 H 0.6627 0.9251 0.8407
C27 C 0.63520(13) 0.85406(10) 0.8208(2)
H19 H 0.6672 0.8440 0.7908
C28 C 0.59092(12) 0.82086(8) 0.83604(18)
C29 C 0.54387(12) 0.83492(9) 0.87961(19)
H20 H 0.5141 0.8119 0.8906
C30 C 0.54088(12) 0.88322(9) 0.90695(19)
H21 H 0.5083 0.8933 0.9359
C31 C 0.58245(15) 0.69252(10) 0.7869(2)
H22 H 0.5762 0.6591 0.7992
C32 C 0.57848(16) 0.72988(10) 0.8482(2)
H23 H 0.5685 0.7277 0.9097
C33 C 0.60206(12) 0.75833(9) 0.71622(18)
H24 H 0.6117 0.7803 0.6701
N5 N 0.59686(10) 0.71052(8) 0.70434(16)
N6 N 0.59186(10) 0.77151(7) 0.80288(15)
C40 C 0.0148(2) 0.95951(14) 0.5584(4)
H27 H 0.0252 0.9317 0.5992
Co4 Co 0.606799(16) 0.676914(12) 0.58224(3)
C36 C 0.9852(2) 0.04049(14) 0.4416(4)
H25 H 0.9748 0.0683 0.4008
S2 S 0.94608(3) 0.262762(19) 0.03974(4)
O9 O 0.88925(10) 0.23049(8) 0.01295(15)
O10 O 0.96255(10) 0.26790(6) 0.14881(13)
O12 O 0.99672(10) 0.23944(8) 0.00790(16)
Co3 Co 0.893201(16) 0.176914(12) 0.91776(3)
C42 C 0.75893(13) 0.20593(9) 0.8977(2)
H29 H 0.7726 0.2355 0.9314
C43 C 0.69840(13) 0.19467(10) 0.8542(2)
H30 H 0.6623 0.2143 0.8511
C44 C 0.76095(11) 0.13460(9) 0.83487(18)
H31 H 0.7752 0.1046 0.8147
C45 C 0.64660(11) 0.12177(9) 0.76096(18)
C46 C 0.59292(13) 0.14682(9) 0.7122(2)
H32 H 0.5923 0.1814 0.7134
C47 C 0.54048(12) 0.12133(9) 0.6619(2)
H33 H 0.5035 0.1387 0.6303
C48 C 0.54073(10) 0.07048(8) 0.65663(16)
C49 C 0.59577(11) 0.04633(8) 0.70405(18)
H34 H 0.5974 0.0118 0.6998
C50 C 0.64848(11) 0.07130(9) 0.75751(18)
H35 H 0.6851 0.0541 0.7911
C51 C 0.48289(10) 0.04381(8) 0.60566(16)
C52 C 0.43208(11) 0.06809(8) 0.54385(17)
H36 H 0.4354 0.1019 0.5320
C53 C 0.37655(11) 0.04349(8) 0.49921(18)
C57 C 0.32355(11) 0.07015(9) 0.43292(19)
C58 C 0.30968(12) 0.11780(10) 0.4529(2)
H39 H 0.3362 0.1342 0.5071
C59 C 0.25791(13) 0.14187(10) 0.3955(2)
H40 H 0.2489 0.1743 0.4109
C60 C 0.21961(12) 0.11871(9) 0.31595(19)
C61 C 0.23519(13) 0.07250(10) 0.2885(2)
H41 H 0.2110 0.0577 0.2304
C62 C 0.28678(13) 0.04841(10) 0.3476(2)
H42 H 0.2973 0.0167 0.3298
C63 C 0.08276(17) 0.16341(15) 0.1427(2)
H43 H 0.0550 0.1677 0.0797
C64 C 0.13758(17) 0.13818(16) 0.1617(2)
H44 H 0.1549 0.1214 0.1158
C65 C 0.12284(14) 0.16783(11) 0.2977(2)
H45 H 0.1292 0.1752 0.3651
N7 N 0.79802(10) 0.16826(7) 0.88601(16)
N8 N 0.70004(10) 0.14847(7) 0.81497(16)
N10 N 0.16303(10) 0.14183(8) 0.26101(17)
O11 O 0.93018(10) 0.31048(7) 0.99645(14)
N16 N 0.90314(10) 0.21052(8) 0.79566(16)
O13 O 0.94754(13) 0.12681(9) 0.9988(2)
O14 O 0.90561(12) 0.09757(8) 0.8516(2)
C38 C 0.93956(16) 0.90747(11) 0.4351(3)
C39 C 0.97209(18) 0.95534(12) 0.4681(3)
C41 C 0.9574(2) 0.99567(14) 0.4102(4)
H28 H 0.9281 0.9932 0.3481
O7 O 0.94754(13) 0.87319(9) 0.4988(2)
O8 O 0.90561(12) 0.90243(8) 0.3516(2)
Co6 Co 0.893201(16) 0.823086(12) 0.41776(3)
C54 C 0.37088(11) 0.99415(9) 0.51922(18)
H37 H 0.3328 0.9774 0.4907
C55 C 0.42092(11) 0.96919(8) 0.58094(17)
C56 C 0.47679(10) 0.99400(8) 0.62177(16)
H38 H 0.5114 0.9767 0.6614
C66 C 0.41538(11) 0.91718(8) 0.60730(17)
C67 C 0.36777(12) 0.90225(9) 0.6501(2)
H46 H 0.3373 0.9251 0.6593
C68 C 0.36480(13) 0.85406(10) 0.6792(2)
H47 H 0.3328 0.8440 0.7092
C69 C 0.40908(12) 0.82086(8) 0.66396(18)
C70 C 0.45613(12) 0.83492(9) 0.62039(19)
H48 H 0.4859 0.8119 0.6094
C71 C 0.45912(12) 0.88322(9) 0.59305(19)
H49 H 0.4917 0.8933 0.5641
C72 C 0.41755(15) 0.69252(10) 0.7131(2)
H50 H 0.4238 0.6591 0.7008
C73 C 0.42152(16) 0.72988(10) 0.6518(2)
H51 H 0.4315 0.7277 0.5903
C74 C 0.39794(12) 0.75833(9) 0.78378(18)
H52 H 0.3883 0.7803 0.8299
N11 N 0.40314(10) 0.71052(8) 0.79566(16)
N12 N 0.40814(10) 0.77151(7) 0.69712(15)
Co5 Co 0.393201(16) 0.676914(12) 0.91776(3)
C36_2 C 0.0148(2) 0.04049(14) 0.0584(4)
H25_2 H 0.0252 0.0683 0.0992
C38_2 C 0.06044(16) 0.90747(11) 0.0649(3)
C39_2 C 0.02791(18) 0.95534(12) 0.0319(3)
C41_2 C 0.0426(2) 0.99567(14) 0.0898(4)
H28_2 H 0.0719 0.9932 0.1519
O7_2 O 0.05246(13) 0.87319(9) 0.0012(2)
O8_2 O 0.09439(12) 0.90243(8) 0.1484(2)
Co6_2 Co 0.106799(16) 0.823086(12) 0.08224(3)
C34_2 C 0.93956(16) 0.09253(11) 0.9351(3)
C35_2 C 0.97209(18) 0.04466(12) 0.9681(3)
C37_2 C 0.9574(2) 0.00433(14) 0.9102(4)
H26_2 H 0.9281 0.0068 0.8481
C40_2 C 0.9852(2) 0.95951(14) 0.9416(4)
H27_2 H 0.9748 0.9317 0.9008
C12_2 C 0.12345(11) 0.54349(8) 0.00079(18)
H9 H 0.1672 0.4774 0.0093
C16_2 C 0.17645(11) 0.57015(9) 0.06708(19)
C17_2 C 0.19032(12) 0.61780(10) 0.0471(2)
C18_2 C 0.24209(13) 0.64187(10) 0.1045(2)
H12_2 H 0.2511 0.6743 0.0891
C19_2 C 0.28039(12) 0.61871(9) 0.18405(19)
C20_2 C 0.26481(13) 0.57250(10) 0.2115(2)
H13_2 H 0.2890 0.5577 0.2696
C21_2 C 0.21322(13) 0.54841(10) 0.1524(2)
H14_2 H 0.2027 0.5167 0.1702
C22_2 C 0.41724(17) 0.66341(15) 0.3573(2)
H15_2 H 0.4450 0.6677 0.4203
C23_2 C 0.36242(17) 0.63818(16) 0.3383(2)
H16_2 H 0.3451 0.6214 0.3842
C24_2 C 0.37716(14) 0.66783(11) 0.2023(2)
H17_2 H 0.3708 0.6752 0.1349
N3_2 N 0.42673(10) 0.68203(8) 0.27115(17)
N4_2 N 0.33697(10) 0.64183(8) 0.23899(17)
Co8_3 Co 0.5000 0.721136(16) 0.2500
C10_2 C 0.01711(10) 0.54381(8) 0.89434(16)
C11_2 C 0.06792(11) 0.56809(8) 0.95615(17)
H8_2 H 0.0646 0.6019 0.9680
C13_2 C 0.12912(11) 0.49415(9) 0.98078(18)
C14_2 C 0.07908(11) 0.46919(8) 0.91906(17)
C15_2 C 0.02321(10) 0.49400(8) 0.87823(16)
H11_2 H 0.1638 0.6342 0.9929
C25_2 C 0.08462(11) 0.41718(8) 0.89270(17)
C26_2 C 0.13223(12) 0.40225(9) 0.8499(2)
H18_2 H 0.1627 0.4251 0.8407
C27_2 C 0.13520(13) 0.35406(10) 0.8208(2)
H19_2 H 0.1672 0.3440 0.7908
C28_2 C 0.09092(12) 0.32086(8) 0.83604(18)
C29_2 C 0.04387(12) 0.33492(9) 0.87961(19)
H20_2 H 0.0141 0.3119 0.8906
C30_2 C 0.04088(12) 0.38322(9) 0.90695(19)
H21_2 H 0.0083 0.3933 0.9359
C31_2 C 0.08245(15) 0.19252(10) 0.7869(2)
H22_2 H 0.0762 0.1591 0.7992
C32_2 C 0.07848(16) 0.22988(10) 0.8482(2)
H23_2 H 0.0685 0.2277 0.9097
C33_2 C 0.10206(12) 0.25833(9) 0.71622(18)
H24_2 H 0.1117 0.2803 0.6701
N6_2 N 0.09186(10) 0.27151(7) 0.80288(15)
S1_2 S 0.55392(3) 0.762762(19) 0.46026(4)
C1_2 C 0.74107(13) 0.70593(9) 0.6023(2)
H1_2 H 0.7274 0.7355 0.5686
C2_2 C 0.80160(13) 0.69467(10) 0.6458(2)
H2_2 H 0.8377 0.7143 0.6489
C3_2 C 0.73905(11) 0.63460(9) 0.66513(18)
H3_2 H 0.7248 0.6046 0.6853
C4_2 C 0.85340(11) 0.62177(9) 0.73904(18)
C5_2 C 0.90708(13) 0.64682(9) 0.7878(2)
H4_2 H 0.9077 0.6814 0.7866
C6_2 C 0.95952(12) 0.62133(9) 0.8381(2)
H5_2 H 0.9965 0.6387 0.8697
C7_2 C 0.95927(10) 0.57048(8) 0.84337(16)
C8_2 C 0.90423(11) 0.54633(8) 0.79595(18)
H6_2 H 0.9026 0.5118 0.8002
C9_2 C 0.85152(11) 0.57130(9) 0.74249(18)
H7_2 H 0.8149 0.5541 0.7089
H10_2 H 0.9886 0.4767 0.8386
C34_3 C 0.56044(16) 0.59253(11) 0.5649(3)
C35_3 C 0.52791(18) 0.54466(12) 0.5319(3)
C36_3 C 0.4852(2) 0.54049(14) 0.4416(4)
H25_3 H 0.4748 0.5683 0.4008
C37_3 C 0.5426(2) 0.50433(14) 0.5898(4)
H26_3 H 0.5719 0.5068 0.6519
N1_2 N 0.70198(10) 0.66826(7) 0.61399(16)
N2_2 N 0.79996(10) 0.64847(7) 0.68503(16)
O1_2 O 0.55246(13) 0.62681(9) 0.5012(2)
O2_2 O 0.59439(12) 0.59757(8) 0.6484(2)
O3_2 O 0.61075(10) 0.73049(8) 0.48705(15)
O4_2 O 0.53745(10) 0.76790(6) 0.35119(13)
O5_2 O 0.56982(10) 0.81048(7) 0.50355(14)
O6_2 O 0.50328(10) 0.73944(8) 0.49210(16)
C38_3 C 0.43956(16) 0.40747(11) 0.4351(3)
C39_3 C 0.47209(18) 0.45534(12) 0.4681(3)
C40_3 C 0.5148(2) 0.45951(14) 0.5584(4)
H27_3 H 0.5252 0.4317 0.5992
C41_3 C 0.4574(2) 0.49567(14) 0.4102(4)
H28_3 H 0.4281 0.4932 0.3481
O7_3 O 0.44754(13) 0.37319(9) 0.4988(2)
O8_3 O 0.40561(12) 0.40243(8) 0.3516(2)
S2_2 S 0.44608(3) 0.762762(19) 0.03974(4)
O9_2 O 0.38925(10) 0.73049(8) 0.01295(15)
O10_2 O 0.46255(10) 0.76790(6) 0.14881(13)
O12_2 O 0.49672(10) 0.73944(8) 0.00790(16)
Co6_3 Co 0.393201(16) 0.323086(12) 0.41776(3)
N14_2 N 0.57327(10) 0.68203(8) 0.22885(17)
C42_2 C 0.25893(13) 0.70593(9) 0.8977(2)
H29_2 H 0.2726 0.7355 0.9314
C43_2 C 0.19840(13) 0.69467(10) 0.8542(2)
H30_2 H 0.1623 0.7143 0.8511
C44_2 C 0.26095(11) 0.63460(9) 0.83487(18)
H31_2 H 0.2752 0.6046 0.8147
C45_2 C 0.14660(11) 0.62177(9) 0.76096(18)
C46_2 C 0.09292(13) 0.64682(9) 0.7122(2)
H32_2 H 0.0923 0.6814 0.7134
C47_2 C 0.04048(12) 0.62133(9) 0.6619(2)
H33_2 H 0.0035 0.6387 0.6303
C48_2 C 0.04073(10) 0.57048(8) 0.65663(16)
C49_2 C 0.09577(11) 0.54633(8) 0.70405(18)
H34_2 H 0.0974 0.5118 0.6998
C50_2 C 0.14848(11) 0.57130(9) 0.75751(18)
H35_2 H 0.1851 0.5541 0.7911
H38_2 H 0.0114 0.4767 0.6614
N7_2 N 0.29802(10) 0.66826(7) 0.88601(16)
N8_2 N 0.20004(10) 0.64847(7) 0.81497(16)
O11_2 O 0.43018(10) 0.81048(7) 0.99645(14)
O13_2 O 0.44754(13) 0.62681(9) 0.9988(2)
O14_2 O 0.40561(12) 0.59757(8) 0.8516(2)
C51_2 C 0.98289(10) 0.54381(8) 0.60566(16)
C52_2 C 0.93208(11) 0.56809(8) 0.54385(17)
H36_2 H 0.9354 0.6019 0.5320
C53_2 C 0.87655(11) 0.54349(8) 0.49921(18)
C54_2 C 0.87088(11) 0.49415(9) 0.51922(18)
H37_2 H 0.8328 0.4774 0.4907
C55_2 C 0.92092(11) 0.46919(8) 0.58094(17)
C56_2 C 0.97679(10) 0.49400(8) 0.62177(16)
C57_2 C 0.82355(11) 0.57015(9) 0.43292(19)
C58_2 C 0.80968(12) 0.61780(10) 0.4529(2)
H39_2 H 0.8362 0.6342 0.5071
C59_2 C 0.75791(13) 0.64187(10) 0.3955(2)
H40_2 H 0.7489 0.6743 0.4109
C60_2 C 0.71961(12) 0.61871(9) 0.31595(19)
C61_2 C 0.73519(13) 0.57250(10) 0.2885(2)
H41_2 H 0.7110 0.5577 0.2304
C62_2 C 0.78678(13) 0.54841(10) 0.3476(2)
H42_2 H 0.7973 0.5167 0.3298
C63_2 C 0.58276(17) 0.66341(15) 0.1427(2)
H43_2 H 0.5550 0.6677 0.0797
C64_2 C 0.63758(17) 0.63818(16) 0.1617(2)
H44_2 H 0.6549 0.6214 0.1158
C65_2 C 0.62284(14) 0.66783(11) 0.2977(2)
H45_2 H 0.6292 0.6752 0.3651
C66_2 C 0.91538(11) 0.41718(8) 0.60730(17)
C67_2 C 0.86777(12) 0.40225(9) 0.6501(2)
H46_2 H 0.8373 0.4251 0.6593
C68_2 C 0.86480(13) 0.35406(10) 0.6792(2)
H47_2 H 0.8328 0.3440 0.7092
C69_2 C 0.90908(12) 0.32086(8) 0.66396(18)
C70_2 C 0.95613(12) 0.33492(9) 0.62039(19)
H48_2 H 0.9859 0.3119 0.6094
C71_2 C 0.95912(12) 0.38322(9) 0.59305(19)
H49_2 H 0.9917 0.3933 0.5641
C72_2 C 0.91755(15) 0.19252(10) 0.7131(2)
H50_2 H 0.9238 0.1591 0.7008
C73_2 C 0.92152(16) 0.22988(10) 0.6518(2)
H51_2 H 0.9315 0.2277 0.5903
C74_2 C 0.89794(12) 0.25833(9) 0.78378(18)
H52_2 H 0.8883 0.2803 0.8299
N10_2 N 0.66303(10) 0.64183(8) 0.26101(17)
N12_2 N 0.90814(10) 0.27151(7) 0.69712(15)
C36_4 C 0.5148(2) 0.54049(14) 0.0584(4)
H25_4 H 0.5252 0.5683 0.0992
C38_4 C 0.56044(16) 0.40747(11) 0.0649(3)
C39_4 C 0.52791(18) 0.45534(12) 0.0319(3)
C41_4 C 0.5426(2) 0.49567(14) 0.0898(4)
H28_4 H 0.5719 0.4932 0.1519
O7_4 O 0.55246(13) 0.37319(9) 0.0012(2)
O8_4 O 0.59439(12) 0.40243(8) 0.1484(2)
Co6_4 Co 0.606799(16) 0.323086(12) 0.08224(3)
C34_4 C 0.43956(16) 0.59253(11) 0.9351(3)
C35_4 C 0.47209(18) 0.54466(12) 0.9681(3)
C37_4 C 0.4574(2) 0.50433(14) 0.9102(4)
H26_4 H 0.4281 0.5068 0.8481
C40_4 C 0.4852(2) 0.45951(14) 0.9416(4)
H27_4 H 0.4748 0.4317 0.9008
Co7 Co 0.0000 0.778864(16) 0.7500
C54_3 C 0.62912(11) 0.00585(9) 0.48078(18)
H37_3 H 0.6672 0.0226 0.5093
C55_3 C 0.57908(11) 0.03081(8) 0.41906(17)
C56_3 C 0.52321(10) 0.00600(8) 0.37823(16)
H38_3 H 0.4886 0.0233 0.3386
C66_3 C 0.58462(11) 0.08282(8) 0.39270(17)
C67_3 C 0.63223(12) 0.09775(9) 0.3499(2)
H46_3 H 0.6627 0.0749 0.3407
C68_3 C 0.63520(13) 0.14594(10) 0.3208(2)
H47_3 H 0.6672 0.1560 0.2908
C69_3 C 0.59092(12) 0.17914(8) 0.33604(18)
C70_3 C 0.54387(12) 0.16508(9) 0.37961(19)
H48_3 H 0.5141 0.1881 0.3906
C71_3 C 0.54088(12) 0.11678(9) 0.40695(19)
H49_3 H 0.5083 0.1067 0.4359
C72_3 C 0.58245(15) 0.30748(10) 0.2869(2)
H50_3 H 0.5762 0.3409 0.2992
C73_3 C 0.57848(16) 0.27012(10) 0.3482(2)
H51_3 H 0.5685 0.2723 0.4097
C74_3 C 0.60206(12) 0.24167(9) 0.21622(18)
H52_3 H 0.6117 0.2197 0.1701
N11_2 N 0.59686(10) 0.28948(8) 0.20434(16)
N12_3 N 0.59186(10) 0.22849(7) 0.30288(15)
C42_3 C 0.24107(13) 0.79407(9) 0.1023(2)
H29_3 H 0.2274 0.7645 0.0686
C43_3 C 0.30160(13) 0.80533(10) 0.1458(2)
H30_3 H 0.3377 0.7857 0.1489
C44_3 C 0.23905(11) 0.86540(9) 0.16513(18)
H31_3 H 0.2248 0.8954 0.1853
C45_3 C 0.35340(11) 0.87823(9) 0.23904(18)
C46_3 C 0.40708(13) 0.85318(9) 0.2878(2)
H32_3 H 0.4077 0.8186 0.2866
C47_3 C 0.45952(12) 0.87867(9) 0.3381(2)
H33_3 H 0.4965 0.8613 0.3697
C48_3 C 0.45927(10) 0.92952(8) 0.34337(16)
C49_3 C 0.40423(11) 0.95367(8) 0.29595(18)
H34_3 H 0.4026 0.9882 0.3002
C50_3 C 0.35152(11) 0.92870(9) 0.24249(18)
H35_3 H 0.3149 0.9459 0.2089
C51_3 C 0.51711(10) 0.95619(8) 0.39434(16)
C52_3 C 0.56792(11) 0.93191(8) 0.45615(17)
H36_3 H 0.5646 0.8981 0.4680
C53_3 C 0.62345(11) 0.95651(8) 0.50079(18)
C57_3 C 0.67645(11) 0.92985(9) 0.56708(19)
C58_3 C 0.69032(12) 0.88220(10) 0.5471(2)
H39_3 H 0.6638 0.8658 0.4929
C59_3 C 0.74209(13) 0.85813(10) 0.6045(2)
H40_3 H 0.7511 0.8257 0.5891
C60_3 C 0.78039(12) 0.88129(9) 0.68405(19)
C61_3 C 0.76481(13) 0.92750(10) 0.7115(2)
H41_3 H 0.7890 0.9423 0.7696
C62_3 C 0.71322(13) 0.95159(10) 0.6524(2)
H42_3 H 0.7027 0.9833 0.6702
C63_3 C 0.91724(17) 0.83659(15) 0.8573(2)
H43_3 H 0.9450 0.8323 0.9203
C64_3 C 0.86242(17) 0.86182(16) 0.8383(2)
H44_3 H 0.8451 0.8786 0.8842
C65_3 C 0.87716(14) 0.83217(11) 0.7023(2)
H45_3 H 0.8708 0.8248 0.6349
N7_3 N 0.20198(10) 0.83174(7) 0.11399(16)
N8_3 N 0.29996(10) 0.85153(7) 0.18503(16)
N9 N 0.92673(10) 0.81797(8) 0.77115(17)
N10_3 N 0.83697(10) 0.85817(8) 0.73899(17)
O11_3 O 0.06982(10) 0.68952(7) 0.00355(14)
Co7_2 Co 1.0000 0.778864(16) 0.7500
N16_2 N 0.09686(10) 0.78948(8) 0.20434(16)
S2_3 S 0.05392(3) 0.737238(19) 0.96026(4)
O9_3 O 0.11075(10) 0.76951(8) 0.98705(15)
O10_3 O 0.03745(10) 0.73210(6) 0.85119(13)
O12_3 O 0.00328(10) 0.76056(8) 0.99210(16)
N13 N 0.07327(10) 0.81797(8) 0.72885(17)
C13_3 C 0.37088(11) 0.00585(9) 0.01922(18)
C14_3 C 0.42092(11) 0.03081(8) 0.08094(17)
C15_3 C 0.47679(10) 0.00600(8) 0.12177(16)
H10_3 H 0.5114 0.0233 0.1614
C25_3 C 0.41538(11) 0.08282(8) 0.10730(17)
C26_3 C 0.36777(12) 0.09775(9) 0.1501(2)
H18_3 H 0.3373 0.0749 0.1593
C27_3 C 0.36480(13) 0.14594(10) 0.1792(2)
H19_3 H 0.3328 0.1560 0.2092
C28_3 C 0.40908(12) 0.17914(8) 0.16396(18)
C29_3 C 0.45613(12) 0.16508(9) 0.12039(19)
H20_3 H 0.4859 0.1881 0.1094
C30_3 C 0.45912(12) 0.11678(9) 0.09305(19)
H21_3 H 0.4917 0.1067 0.0641
C31_3 C 0.41755(15) 0.30748(10) 0.2131(2)
H22_3 H 0.4238 0.3409 0.2008
C32_3 C 0.42152(16) 0.27012(10) 0.1518(2)
H23_3 H 0.4315 0.2723 0.0903
C33_3 C 0.39794(12) 0.24167(9) 0.28378(18)
H24_3 H 0.3883 0.2197 0.3299
N5_2 N 0.40314(10) 0.28948(8) 0.29566(16)
N6_3 N 0.40814(10) 0.22849(7) 0.19712(15)
S1_3 S 0.94608(3) 0.737238(19) 0.53974(4)
C1_3 C 0.75893(13) 0.79407(9) 0.3977(2)
H1_3 H 0.7726 0.7645 0.4314
C2_3 C 0.69840(13) 0.80533(10) 0.3542(2)
H2_3 H 0.6623 0.7857 0.3511
C3_3 C 0.76095(11) 0.86540(9) 0.33487(18)
H3_3 H 0.7752 0.8954 0.3147
C4_3 C 0.64660(11) 0.87823(9) 0.26096(18)
C5_3 C 0.59292(13) 0.85318(9) 0.2122(2)
H4_3 H 0.5923 0.8186 0.2134
C6_3 C 0.54048(12) 0.87867(9) 0.1619(2)
H5_3 H 0.5035 0.8613 0.1303
C7_3 C 0.54073(10) 0.92952(8) 0.15663(16)
C8_3 C 0.59577(11) 0.95367(8) 0.20405(18)
H6_3 H 0.5974 0.9882 0.1998
C9_3 C 0.64848(11) 0.92870(9) 0.25751(18)
H7_3 H 0.6851 0.9459 0.2911
C10_3 C 0.48289(10) 0.95619(8) 0.10566(16)
C11_3 C 0.43208(11) 0.93191(8) 0.04385(17)
H8_3 H 0.4354 0.8981 0.0320
H11_3 H 0.3362 0.8658 0.0071
N1_3 N 0.79802(10) 0.83174(7) 0.38601(16)
N2_3 N 0.70004(10) 0.85153(7) 0.31497(16)
O3_3 O 0.88925(10) 0.76951(8) 0.51295(15)
O4_3 O 0.96255(10) 0.73210(6) 0.64881(13)
O5_3 O 0.93018(10) 0.68952(7) 0.49645(14)
O6_3 O 0.99672(10) 0.76056(8) 0.50790(16)
N15_2 N 0.90314(10) 0.78948(8) 0.29566(16)
C12_3 C 0.37655(11) 0.95651(8) 0.99921(18)
C16_3 C 0.32355(11) 0.92985(9) 0.93292(19)
C17_3 C 0.30968(12) 0.88220(10) 0.9529(2)
C18_3 C 0.25791(13) 0.85813(10) 0.8955(2)
H12_3 H 0.2489 0.8257 0.9109
C19_3 C 0.21961(12) 0.88129(9) 0.81595(19)
C20_3 C 0.23519(13) 0.92750(10) 0.7885(2)
H13_3 H 0.2110 0.9423 0.7304
C21_3 C 0.28678(13) 0.95159(10) 0.8476(2)
H14_3 H 0.2973 0.9833 0.8298
C22_3 C 0.08276(17) 0.83659(15) 0.6427(2)
H15_3 H 0.0550 0.8323 0.5797
C23_3 C 0.13758(17) 0.86182(16) 0.6617(2)
H16_3 H 0.1549 0.8786 0.6158
C24_3 C 0.12284(14) 0.83217(11) 0.7977(2)
H17_3 H 0.1292 0.8248 0.8651
N4_3 N 0.16303(10) 0.85817(8) 0.76101(17)
C51_4 C 0.01711(10) 0.45619(8) 0.39434(16)
C52_4 C 0.06792(11) 0.43191(8) 0.45615(17)
H36_4 H 0.0646 0.3981 0.4680
C53_4 C 0.12345(11) 0.45651(8) 0.50079(18)
C54_4 C 0.12912(11) 0.50585(9) 0.48078(18)
H37_4 H 0.1672 0.5226 0.5093
C55_4 C 0.07908(11) 0.53081(8) 0.41906(17)
C56_4 C 0.02321(10) 0.50600(8) 0.37823(16)
C57_4 C 0.17645(11) 0.42985(9) 0.56708(19)
C58_4 C 0.19032(12) 0.38220(10) 0.5471(2)
H39_4 H 0.1638 0.3658 0.4929
C59_4 C 0.24209(13) 0.35813(10) 0.6045(2)
H40_4 H 0.2511 0.3257 0.5891
C60_4 C 0.28039(12) 0.38129(9) 0.68405(19)
C61_4 C 0.26481(13) 0.42750(10) 0.7115(2)
H41_4 H 0.2890 0.4423 0.7696
C62_4 C 0.21322(13) 0.45159(10) 0.6524(2)
H42_4 H 0.2027 0.4833 0.6702
C63_4 C 0.41724(17) 0.33659(15) 0.8573(2)
H43_4 H 0.4450 0.3323 0.9203
C64_4 C 0.36242(17) 0.36182(16) 0.8383(2)
H44_4 H 0.3451 0.3786 0.8842
C65_4 C 0.37716(14) 0.33217(11) 0.7023(2)
H45_4 H 0.3708 0.3248 0.6349
C66_4 C 0.08462(11) 0.58282(8) 0.39270(17)
C67_4 C 0.13223(12) 0.59775(9) 0.3499(2)
H46_4 H 0.1627 0.5749 0.3407
C68_4 C 0.13520(13) 0.64594(10) 0.3208(2)
H47_4 H 0.1672 0.6560 0.2908
C69_4 C 0.09092(12) 0.67914(8) 0.33604(18)
C70_4 C 0.04387(12) 0.66508(9) 0.37961(19)
H48_4 H 0.0141 0.6881 0.3906
C71_4 C 0.04088(12) 0.61678(9) 0.40695(19)
H49_4 H 0.0083 0.6067 0.4359
C72_4 C 0.08245(15) 0.80748(10) 0.2869(2)
H50_4 H 0.0762 0.8409 0.2992
C73_4 C 0.07848(16) 0.77012(10) 0.3482(2)
H51_4 H 0.0685 0.7723 0.4097
C74_4 C 0.10206(12) 0.74167(9) 0.21622(18)
H52_4 H 0.1117 0.7197 0.1701
N9_2 N 0.42673(10) 0.31797(8) 0.77115(17)
N10_4 N 0.33697(10) 0.35817(8) 0.73899(17)
N12_4 N 0.09186(10) 0.72849(7) 0.30288(15)
Co7_3 Co 0.5000 0.278864(16) 0.7500
C42_4 C 0.74107(13) 0.29407(9) 0.1023(2)
H29_4 H 0.7274 0.2645 0.0686
C43_4 C 0.80160(13) 0.30533(10) 0.1458(2)
H30_4 H 0.8377 0.2857 0.1489
C44_4 C 0.73905(11) 0.36540(9) 0.16513(18)
H31_4 H 0.7248 0.3954 0.1853
C45_4 C 0.85340(11) 0.37823(9) 0.23904(18)
C46_4 C 0.90708(13) 0.35318(9) 0.2878(2)
H32_4 H 0.9077 0.3186 0.2866
C47_4 C 0.95952(12) 0.37867(9) 0.3381(2)
H33_4 H 0.9965 0.3613 0.3697
C48_4 C 0.95927(10) 0.42952(8) 0.34337(16)
C49_4 C 0.90423(11) 0.45367(8) 0.29595(18)
H34_4 H 0.9026 0.4882 0.3002
C50_4 C 0.85152(11) 0.42870(9) 0.24249(18)
H35_4 H 0.8149 0.4459 0.2089
H38_4 H 0.9886 0.5233 0.3386
N7_4 N 0.70198(10) 0.33174(7) 0.11399(16)
N8_4 N 0.79996(10) 0.35153(7) 0.18503(16)
O11_4 O 0.56982(10) 0.18952(7) 0.00355(14)
S1_4 S 0.44608(3) 0.237238(19) 0.53974(4)
C1_4 C 0.25893(13) 0.29407(9) 0.3977(2)
H1_4 H 0.2726 0.2645 0.4314
C2_4 C 0.19840(13) 0.30533(10) 0.3542(2)
H2_4 H 0.1623 0.2857 0.3511
C3_4 C 0.26095(11) 0.36540(9) 0.33487(18)
H3_4 H 0.2752 0.3954 0.3147
C4_4 C 0.14660(11) 0.37823(9) 0.26096(18)
C5_4 C 0.09292(13) 0.35318(9) 0.2122(2)
H4_4 H 0.0923 0.3186 0.2134
C6_4 C 0.04048(12) 0.37867(9) 0.1619(2)
H5_4 H 0.0035 0.3613 0.1303
C7_4 C 0.04073(10) 0.42952(8) 0.15663(16)
C8_4 C 0.09577(11) 0.45367(8) 0.20405(18)
H6_4 H 0.0974 0.4882 0.1998
C9_4 C 0.14848(11) 0.42870(9) 0.25751(18)
H7_4 H 0.1851 0.4459 0.2911
H10_4 H 0.0114 0.5233 0.1614
N1_4 N 0.29802(10) 0.33174(7) 0.38601(16)
N2_4 N 0.20004(10) 0.35153(7) 0.31497(16)
O3_4 O 0.38925(10) 0.26951(8) 0.51295(15)
O4_4 O 0.46255(10) 0.23210(6) 0.64881(13)
O5_4 O 0.43018(10) 0.18952(7) 0.49645(14)
O6_4 O 0.49672(10) 0.26056(8) 0.50790(16)
S2_4 S 0.55392(3) 0.237238(19) 0.96026(4)
O9_4 O 0.61075(10) 0.26951(8) 0.98705(15)
O10_4 O 0.53745(10) 0.23210(6) 0.85119(13)
O12_4 O 0.50328(10) 0.26056(8) 0.99210(16)
N13_2 N 0.57327(10) 0.31797(8) 0.72885(17)
C10_4 C 0.98289(10) 0.45619(8) 0.10566(16)
C11_4 C 0.93208(11) 0.43191(8) 0.04385(17)
H8_4 H 0.9354 0.3981 0.0320
C13_4 C 0.87088(11) 0.50585(9) 0.01922(18)
C14_4 C 0.92092(11) 0.53081(8) 0.08094(17)
C15_4 C 0.97679(10) 0.50600(8) 0.12177(16)
H11_4 H 0.8362 0.3658 0.0071
C25_4 C 0.91538(11) 0.58282(8) 0.10730(17)
C26_4 C 0.86777(12) 0.59775(9) 0.1501(2)
H18_4 H 0.8373 0.5749 0.1593
C27_4 C 0.86480(13) 0.64594(10) 0.1792(2)
H19_4 H 0.8328 0.6560 0.2092
C28_4 C 0.90908(12) 0.67914(8) 0.16396(18)
C29_4 C 0.95613(12) 0.66508(9) 0.12039(19)
H20_4 H 0.9859 0.6881 0.1094
C30_4 C 0.95912(12) 0.61678(9) 0.09305(19)
H21_4 H 0.9917 0.6067 0.0641
C31_4 C 0.91755(15) 0.80748(10) 0.2131(2)
H22_4 H 0.9238 0.8409 0.2008
C32_4 C 0.92152(16) 0.77012(10) 0.1518(2)
H23_4 H 0.9315 0.7723 0.0903
C33_4 C 0.89794(12) 0.74167(9) 0.28378(18)
H24_4 H 0.8883 0.7197 0.3299
N6_4 N 0.90814(10) 0.72849(7) 0.19712(15)
C12_4 C 0.87655(11) 0.45651(8) 0.99921(18)
H9_2 H 0.8328 0.5226 0.9907
C16_4 C 0.82355(11) 0.42985(9) 0.93292(19)
C17_4 C 0.80968(12) 0.38220(10) 0.9529(2)
C18_4 C 0.75791(13) 0.35813(10) 0.8955(2)
H12_4 H 0.7489 0.3257 0.9109
C19_4 C 0.71961(12) 0.38129(9) 0.81595(19)
C20_4 C 0.73519(13) 0.42750(10) 0.7885(2)
H13_4 H 0.7110 0.4423 0.7304
C21_4 C 0.78678(13) 0.45159(10) 0.8476(2)
H14_4 H 0.7973 0.4833 0.8298
C22_4 C 0.58276(17) 0.33659(15) 0.6427(2)
H15_4 H 0.5550 0.3323 0.5797
C23_4 C 0.63758(17) 0.36182(16) 0.6617(2)
H16_4 H 0.6549 0.3786 0.6158
C24_4 C 0.62284(14) 0.33217(11) 0.7977(2)
H17_4 H 0.6292 0.3248 0.8651
N4_4 N 0.66303(10) 0.35817(8) 0.76101(17)
H9_3 H 0.6672 0.9774 0.0093
H9_4 H 0.3328 0.0226 0.9907
loop_
_geom_bond_atom_site_label_1
_geom_bond_atom_site_label_2
_geom_bond_site_symmetry_1
_geom_bond_site_symmetry_2
C16 C12 1_555 1_555
C17 C16 1_555 1_555
C18 C17 1_555 1_555
H12 C18 1_555 1_555
C19 C18 1_555 1_555
C20 C19 1_555 1_555
H13 C20 1_555 1_555
C21 C16 1_555 1_555
H14 C21 1_555 1_555
C22 H15 1_555 1_555
C23 C22 1_555 1_555
H16 C23 1_555 1_555
C24 H17 1_555 1_555
N3 C22 1_555 1_555
N4 C19 1_555 1_555
Co8_2 N3 1_555 1_555
C20 C21 1_555 1_555
C23 N4 1_555 1_555
C24 N3 1_555 1_555
C24 N4 1_555 1_555
Co1 N1 1_555 1_555
Co8 O4 1_555 1_555
S1 O3 1_555 1_555
C1 H1 1_555 1_555
C2 C1 1_555 1_555
H2 C2 1_555 1_555
C3 H3 1_555 1_555
C4 C5 1_555 1_555
C5 H4 1_555 1_555
C6 C5 1_555 1_555
H5 C6 1_555 1_555
C7 C6 1_555 1_555
C8 C7 1_555 1_555
H6 C8 1_555 1_555
C9 C4 1_555 1_555
H7 C9 1_555 1_555
C10 C7 1_555 1_555
C11 C10 1_555 1_555
H8 C11 1_555 1_555
C34 C35 1_555 1_555
C37 C35 1_555 1_555
H26 C37 1_555 1_555
N1 C1 1_555 1_555
N2 C2 1_555 1_555
O1 Co1 1_555 1_555
O2 Co1 1_555 1_555
O3 Co1 1_555 1_555
O4 S1 1_555 1_555
O5 S1 1_555 1_555
O6 S1 1_555 1_555
N14 Co8 1_555 1_555
N15 Co1 1_555 1_555
C3 N1 1_555 1_555
C3 N2 1_555 1_555
C4 N2 1_555 1_555
C8 C9 1_555 1_555
C34 O1 1_555 1_555
C34 O2 1_555 1_555
C14 C13 1_555 1_555
H10 C15 1_555 1_555
C25 C14 1_555 1_555
C26 C25 1_555 1_555
H18 C26 1_555 1_555
C27 C26 1_555 1_555
H19 C27 1_555 1_555
C28 C27 1_555 1_555
C29 C28 1_555 1_555
H20 C29 1_555 1_555
C30 C25 1_555 1_555
H21 C30 1_555 1_555
C31 H22 1_555 1_555
C32 C31 1_555 1_555
H23 C32 1_555 1_555
C33 H24 1_555 1_555
N5 C31 1_555 1_555
N6 C28 1_555 1_555
H27 C40 1_555 1_555
Co4 N5 1_555 1_555
C14 C15 1_555 1_555
C29 C30 1_555 1_555
C32 N6 1_555 1_555
C33 N5 1_555 1_555
C33 N6 1_555 1_555
C36 H25 1_555 1_555
S2 O9 1_555 1_555
O10 Co8_2 1_555 1_555
O12 S2 1_555 1_555
S2 O10 1_555 1_555
Co3 N7 1_555 1_555
C42 H29 1_555 1_555
C43 C42 1_555 1_555
H30 C43 1_555 1_555
C44 H31 1_555 1_555
C45 C46 1_555 1_555
C46 H32 1_555 1_555
C47 C46 1_555 1_555
H33 C47 1_555 1_555
C48 C47 1_555 1_555
C49 C48 1_555 1_555
H34 C49 1_555 1_555
C50 C45 1_555 1_555
H35 C50 1_555 1_555
C51 C48 1_555 1_555
C52 C51 1_555 1_555
H36 C52 1_555 1_555
C53 C52 1_555 1_555
C57 C53 1_555 1_555
C58 C57 1_555 1_555
H39 C58 1_555 1_555
C59 C58 1_555 1_555
H40 C59 1_555 1_555
C60 C59 1_555 1_555
C61 C60 1_555 1_555
H41 C61 1_555 1_555
C62 C57 1_555 1_555
H42 C62 1_555 1_555
C63 H43 1_555 1_555
C64 C63 1_555 1_555
H44 C64 1_555 1_555
C65 H45 1_555 1_555
N7 C42 1_555 1_555
N8 C43 1_555 1_555
N14 C63 1_555 1_555
N10 C60 1_555 1_555
N16 Co3 1_555 1_555
O13 Co3 1_555 1_555
O14 Co3 1_555 1_555
C44 N7 1_555 1_555
C44 N8 1_555 1_555
C45 N8 1_555 1_555
C49 C50 1_555 1_555
C61 C62 1_555 1_555
C64 N10 1_555 1_555
C65 N14 1_555 1_555
C65 N10 1_555 1_555
C38 C39 1_555 1_555
H28 C41 1_555 1_555
O7 C38 1_555 1_555
O8 C38 1_555 1_555
Co6 O7 1_555 1_555
C39 C41 1_555 1_555
O8 Co6 1_555 1_555
H37 C54 1_555 1_555
C55 C54 1_555 1_555
H38 C56 1_555 1_555
C66 C55 1_555 1_555
C67 C66 1_555 1_555
H46 C67 1_555 1_555
C68 C67 1_555 1_555
H47 C68 1_555 1_555
C69 C68 1_555 1_555
C70 C69 1_555 1_555
H48 C70 1_555 1_555
C71 C66 1_555 1_555
H49 C71 1_555 1_555
C72 H50 1_555 1_555
C73 C72 1_555 1_555
H51 C73 1_555 1_555
C74 H52 1_555 1_555
N11 C72 1_555 1_555
N12 C69 1_555 1_555
Co5 N11 1_555 1_555
C55 C56 1_555 1_555
C70 C71 1_555 1_555
C73 N12 1_555 1_555
C74 N11 1_555 1_555
C74 N12 1_555 1_555
C36_2 H25_2 1_555 1_555
C38_2 C39_2 1_555 1_555
H28_2 C41_2 1_555 1_555
O7_2 C38_2 1_555 1_555
O8_2 C38_2 1_555 1_555
Co6_2 O7_2 1_555 1_555
C39_2 C41_2 1_555 1_555
O8_2 Co6_2 1_555 1_555
C34_2 C35_2 1_555 1_555
C37_2 C35_2 1_555 1_555
H26_2 C37_2 1_555 1_555
C34_2 O13 1_555 1_555
C34_2 O14 1_555 1_555
H27_2 C40_2 1_555 1_555
C16_2 C12_2 1_555 1_555
C17_2 C16_2 1_555 1_555
C18_2 C17_2 1_555 1_555
H12_2 C18_2 1_555 1_555
C19_2 C18_2 1_555 1_555
C20_2 C19_2 1_555 1_555
H13_2 C20_2 1_555 1_555
C21_2 C16_2 1_555 1_555
H14_2 C21_2 1_555 1_555
C22_2 H15_2 1_555 1_555
C23_2 C22_2 1_555 1_555
H16_2 C23_2 1_555 1_555
C24_2 H17_2 1_555 1_555
N3_2 C22_2 1_555 1_555
N4_2 C19_2 1_555 1_555
Co8_3 N3_2 1_555 1_555
C20_2 C21_2 1_555 1_555
C23_2 N4_2 1_555 1_555
C24_2 N3_2 1_555 1_555
C24_2 N4_2 1_555 1_555
C11_2 C10_2 1_555 1_555
H8_2 C11_2 1_555 1_555
C14_2 C13_2 1_555 1_555
C15_2 C10_2 1_555 1_555
C25_2 C14_2 1_555 1_555
C26_2 C25_2 1_555 1_555
H18_2 C26_2 1_555 1_555
C27_2 C26_2 1_555 1_555
H19_2 C27_2 1_555 1_555
C28_2 C27_2 1_555 1_555
C29_2 C28_2 1_555 1_555
H20_2 C29_2 1_555 1_555
C30_2 C25_2 1_555 1_555
H21_2 C30_2 1_555 1_555
C31_2 H22_2 1_555 1_555
C32_2 C31_2 1_555 1_555
H23_2 C32_2 1_555 1_555
C33_2 H24_2 1_555 1_555
N15 C31_2 1_555 1_555
N6_2 C28_2 1_555 1_555
C14_2 C15_2 1_555 1_555
C29_2 C30_2 1_555 1_555
C32_2 N6_2 1_555 1_555
C33_2 N15 1_555 1_555
C33_2 N6_2 1_555 1_555
Co4 N1_2 1_555 1_555
Co8_3 O4_2 1_555 1_555
S1_2 O3_2 1_555 1_555
C1_2 H1_2 1_555 1_555
C2_2 C1_2 1_555 1_555
H2_2 C2_2 1_555 1_555
C3_2 H3_2 1_555 1_555
C4_2 C5_2 1_555 1_555
C5_2 H4_2 1_555 1_555
C6_2 C5_2 1_555 1_555
H5_2 C6_2 1_555 1_555
C7_2 C6_2 1_555 1_555
C8_2 C7_2 1_555 1_555
H6_2 C8_2 1_555 1_555
C9_2 C4_2 1_555 1_555
H7_2 C9_2 1_555 1_555
C34_3 C35_3 1_555 1_555
C35_3 C36_3 1_555 1_555
C36_3 H25_3 1_555 1_555
C37_3 C35_3 1_555 1_555
H26_3 C37_3 1_555 1_555
N1_2 C1_2 1_555 1_555
N2_2 C2_2 1_555 1_555
O1_2 Co4 1_555 1_555
O2_2 Co4 1_555 1_555
O3_2 Co4 1_555 1_555
O4_2 S1_2 1_555 1_555
O5_2 S1_2 1_555 1_555
O6_2 S1_2 1_555 1_555
C38_3 C39_3 1_555 1_555
C39_3 C40_3 1_555 1_555
C40_3 C37_3 1_555 1_555
H27_3 C40_3 1_555 1_555
C41_3 C36_3 1_555 1_555
H28_3 C41_3 1_555 1_555
O7_3 C38_3 1_555 1_555
O8_3 C38_3 1_555 1_555
S2_2 O9_2 1_555 1_555
O10_2 Co8_3 1_555 1_555
O12_2 S2_2 1_555 1_555
Co6_3 O7_3 1_555 1_555
N14_2 Co8_3 1_555 1_555
C3_2 N1_2 1_555 1_555
C3_2 N2_2 1_555 1_555
C4_2 N2_2 1_555 1_555
C8_2 C9_2 1_555 1_555
C34_3 O1_2 1_555 1_555
C34_3 O2_2 1_555 1_555
C39_3 C41_3 1_555 1_555
O8_3 Co6_3 1_555 1_555
S2_2 O10_2 1_555 1_555
Co5 N7_2 1_555 1_555
C42_2 H29_2 1_555 1_555
C43_2 C42_2 1_555 1_555
H30_2 C43_2 1_555 1_555
C44_2 H31_2 1_555 1_555
C45_2 C46_2 1_555 1_555
C46_2 H32_2 1_555 1_555
C47_2 C46_2 1_555 1_555
H33_2 C47_2 1_555 1_555
C48_2 C47_2 1_555 1_555
C49_2 C48_2 1_555 1_555
H34_2 C49_2 1_555 1_555
C50_2 C45_2 1_555 1_555
H35_2 C50_2 1_555 1_555
N7_2 C42_2 1_555 1_555
N8_2 C43_2 1_555 1_555
O13_2 Co5 1_555 1_555
O14_2 Co5 1_555 1_555
C44_2 N7_2 1_555 1_555
C44_2 N8_2 1_555 1_555
C45_2 N8_2 1_555 1_555
C49_2 C50_2 1_555 1_555
C52_2 C51_2 1_555 1_555
H36_2 C52_2 1_555 1_555
C53_2 C52_2 1_555 1_555
C54_2 C53_2 1_555 1_555
H37_2 C54_2 1_555 1_555
C55_2 C54_2 1_555 1_555
C56_2 C51_2 1_555 1_555
C57_2 C53_2 1_555 1_555
C58_2 C57_2 1_555 1_555
H39_2 C58_2 1_555 1_555
C59_2 C58_2 1_555 1_555
H40_2 C59_2 1_555 1_555
C60_2 C59_2 1_555 1_555
C61_2 C60_2 1_555 1_555
H41_2 C61_2 1_555 1_555
C62_2 C57_2 1_555 1_555
H42_2 C62_2 1_555 1_555
C63_2 H43_2 1_555 1_555
C64_2 C63_2 1_555 1_555
H44_2 C64_2 1_555 1_555
C65_2 H45_2 1_555 1_555
C66_2 C55_2 1_555 1_555
C67_2 C66_2 1_555 1_555
H46_2 C67_2 1_555 1_555
C68_2 C67_2 1_555 1_555
H47_2 C68_2 1_555 1_555
C69_2 C68_2 1_555 1_555
C70_2 C69_2 1_555 1_555
H48_2 C70_2 1_555 1_555
C71_2 C66_2 1_555 1_555
H49_2 C71_2 1_555 1_555
C72_2 H50_2 1_555 1_555
C73_2 C72_2 1_555 1_555
H51_2 C73_2 1_555 1_555
C74_2 H52_2 1_555 1_555
N14_2 C63_2 1_555 1_555
N10_2 C60_2 1_555 1_555
N16 C72_2 1_555 1_555
N12_2 C69_2 1_555 1_555
C55_2 C56_2 1_555 1_555
C61_2 C62_2 1_555 1_555
C64_2 N10_2 1_555 1_555
C65_2 N14_2 1_555 1_555
C65_2 N10_2 1_555 1_555
C70_2 C71_2 1_555 1_555
C73_2 N12_2 1_555 1_555
C74_2 N16 1_555 1_555
C74_2 N12_2 1_555 1_555
C36_4 H25_4 1_555 1_555
C38_4 C39_4 1_555 1_555
C41_4 C36_4 1_555 1_555
H28_4 C41_4 1_555 1_555
O7_4 C38_4 1_555 1_555
O8_4 C38_4 1_555 1_555
Co6_4 O7_4 1_555 1_555
C39_4 C41_4 1_555 1_555
O8_4 Co6_4 1_555 1_555
C34_4 C35_4 1_555 1_555
C37_4 C35_4 1_555 1_555
H26_4 C37_4 1_555 1_555
C40_4 C37_4 1_555 1_555
H27_4 C40_4 1_555 1_555
C34_4 O13_2 1_555 1_555
C34_4 O14_2 1_555 1_555
H37_3 C54_3 1_555 1_555
C55_3 C54_3 1_555 1_555
H38_3 C56_3 1_555 1_555
C66_3 C55_3 1_555 1_555
C67_3 C66_3 1_555 1_555
H46_3 C67_3 1_555 1_555
C68_3 C67_3 1_555 1_555
H47_3 C68_3 1_555 1_555
C69_3 C68_3 1_555 1_555
C70_3 C69_3 1_555 1_555
H48_3 C70_3 1_555 1_555
C71_3 C66_3 1_555 1_555
H49_3 C71_3 1_555 1_555
C72_3 H50_3 1_555 1_555
C73_3 C72_3 1_555 1_555
H51_3 C73_3 1_555 1_555
C74_3 H52_3 1_555 1_555
N11_2 C72_3 1_555 1_555
N12_3 C69_3 1_555 1_555
Co6_4 N11_2 1_555 1_555
C55_3 C56_3 1_555 1_555
C70_3 C71_3 1_555 1_555
C73_3 N12_3 1_555 1_555
C74_3 N11_2 1_555 1_555
C74_3 N12_3 1_555 1_555
Co6_2 N7_3 1_555 1_555
C42_3 H29_3 1_555 1_555
C43_3 C42_3 1_555 1_555
H30_3 C43_3 1_555 1_555
C44_3 H31_3 1_555 1_555
C45_3 C46_3 1_555 1_555
C46_3 H32_3 1_555 1_555
C47_3 C46_3 1_555 1_555
H33_3 C47_3 1_555 1_555
C48_3 C47_3 1_555 1_555
C49_3 C48_3 1_555 1_555
H34_3 C49_3 1_555 1_555
C50_3 C45_3 1_555 1_555
H35_3 C50_3 1_555 1_555
C51_3 C48_3 1_555 1_555
C52_3 C51_3 1_555 1_555
H36_3 C52_3 1_555 1_555
C53_3 C52_3 1_555 1_555
C57_3 C53_3 1_555 1_555
C58_3 C57_3 1_555 1_555
H39_3 C58_3 1_555 1_555
C59_3 C58_3 1_555 1_555
H40_3 C59_3 1_555 1_555
C60_3 C59_3 1_555 1_555
C61_3 C60_3 1_555 1_555
H41_3 C61_3 1_555 1_555
C62_3 C57_3 1_555 1_555
H42_3 C62_3 1_555 1_555
C63_3 H43_3 1_555 1_555
C64_3 C63_3 1_555 1_555
H44_3 C64_3 1_555 1_555
C65_3 H45_3 1_555 1_555
N7_3 C42_3 1_555 1_555
N8_3 C43_3 1_555 1_555
N9 C63_3 1_555 1_555
N10_3 C60_3 1_555 1_555
Co7_2 N9 1_555 1_555
N16_2 Co6_2 1_555 1_555
C44_3 N7_3 1_555 1_555
C44_3 N8_3 1_555 1_555
C45_3 N8_3 1_555 1_555
C49_3 C50_3 1_555 1_555
C61_3 C62_3 1_555 1_555
C64_3 N10_3 1_555 1_555
C65_3 N9 1_555 1_555
C65_3 N10_3 1_555 1_555
S2_3 O9_3 1_555 1_555
O10_3 Co7 1_555 1_555
O12_3 S2_3 1_555 1_555
N13 Co7 1_555 1_555
S2_3 O10_3 1_555 1_555
C14_3 C13_3 1_555 1_555
H10_3 C15_3 1_555 1_555
C25_3 C14_3 1_555 1_555
C26_3 C25_3 1_555 1_555
H18_3 C26_3 1_555 1_555
C27_3 C26_3 1_555 1_555
H19_3 C27_3 1_555 1_555
C28_3 C27_3 1_555 1_555
C29_3 C28_3 1_555 1_555
H20_3 C29_3 1_555 1_555
C30_3 C25_3 1_555 1_555
H21_3 C30_3 1_555 1_555
C31_3 H22_3 1_555 1_555
C32_3 C31_3 1_555 1_555
H23_3 C32_3 1_555 1_555
C33_3 H24_3 1_555 1_555
N5_2 C31_3 1_555 1_555
N6_3 C28_3 1_555 1_555
Co6_3 N5_2 1_555 1_555
C14_3 C15_3 1_555 1_555
C29_3 C30_3 1_555 1_555
C32_3 N6_3 1_555 1_555
C33_3 N5_2 1_555 1_555
C33_3 N6_3 1_555 1_555
Co6 N1_3 1_555 1_555
Co7_2 O4_3 1_555 1_555
S1_3 O3_3 1_555 1_555
C1_3 H1_3 1_555 1_555
C2_3 C1_3 1_555 1_555
H2_3 C2_3 1_555 1_555
C3_3 H3_3 1_555 1_555
C4_3 C5_3 1_555 1_555
C5_3 H4_3 1_555 1_555
C6_3 C5_3 1_555 1_555
H5_3 C6_3 1_555 1_555
C7_3 C6_3 1_555 1_555
C8_3 C7_3 1_555 1_555
H6_3 C8_3 1_555 1_555
C9_3 C4_3 1_555 1_555
H7_3 C9_3 1_555 1_555
C10_3 C7_3 1_555 1_555
C11_3 C10_3 1_555 1_555
H8_3 C11_3 1_555 1_555
N1_3 C1_3 1_555 1_555
N2_3 C2_3 1_555 1_555
O3_3 Co6 1_555 1_555
O4_3 S1_3 1_555 1_555
O5_3 S1_3 1_555 1_555
O6_3 S1_3 1_555 1_555
N15_2 Co6 1_555 1_555
C3_3 N1_3 1_555 1_555
C3_3 N2_3 1_555 1_555
C4_3 N2_3 1_555 1_555
C8_3 C9_3 1_555 1_555
C16_3 C12_3 1_555 1_555
C17_3 C16_3 1_555 1_555
C18_3 C17_3 1_555 1_555
H12_3 C18_3 1_555 1_555
C19_3 C18_3 1_555 1_555
C20_3 C19_3 1_555 1_555
H13_3 C20_3 1_555 1_555
C21_3 C16_3 1_555 1_555
H14_3 C21_3 1_555 1_555
C22_3 H15_3 1_555 1_555
C23_3 C22_3 1_555 1_555
H16_3 C23_3 1_555 1_555
C24_3 H17_3 1_555 1_555
N13 C22_3 1_555 1_555
N4_3 C19_3 1_555 1_555
C20_3 C21_3 1_555 1_555
C23_3 N4_3 1_555 1_555
C24_3 N13 1_555 1_555
C24_3 N4_3 1_555 1_555
C52_4 C51_4 1_555 1_555
H36_4 C52_4 1_555 1_555
C53_4 C52_4 1_555 1_555
C54_4 C53_4 1_555 1_555
H37_4 C54_4 1_555 1_555
C55_4 C54_4 1_555 1_555
C56_4 C51_4 1_555 1_555
C57_4 C53_4 1_555 1_555
C58_4 C57_4 1_555 1_555
H39_4 C58_4 1_555 1_555
C59_4 C58_4 1_555 1_555
H40_4 C59_4 1_555 1_555
C60_4 C59_4 1_555 1_555
C61_4 C60_4 1_555 1_555
H41_4 C61_4 1_555 1_555
C62_4 C57_4 1_555 1_555
H42_4 C62_4 1_555 1_555
C63_4 H43_4 1_555 1_555
C64_4 C63_4 1_555 1_555
H44_4 C64_4 1_555 1_555
C65_4 H45_4 1_555 1_555
C66_4 C55_4 1_555 1_555
C67_4 C66_4 1_555 1_555
H46_4 C67_4 1_555 1_555
C68_4 C67_4 1_555 1_555
H47_4 C68_4 1_555 1_555
C69_4 C68_4 1_555 1_555
C70_4 C69_4 1_555 1_555
H48_4 C70_4 1_555 1_555
C71_4 C66_4 1_555 1_555
H49_4 C71_4 1_555 1_555
C72_4 H50_4 1_555 1_555
C73_4 C72_4 1_555 1_555
H51_4 C73_4 1_555 1_555
C74_4 H52_4 1_555 1_555
N9_2 C63_4 1_555 1_555
N10_4 C60_4 1_555 1_555
N16_2 C72_4 1_555 1_555
N12_4 C69_4 1_555 1_555
Co7_3 N9_2 1_555 1_555
C55_4 C56_4 1_555 1_555
C61_4 C62_4 1_555 1_555
C64_4 N10_4 1_555 1_555
C65_4 N9_2 1_555 1_555
C65_4 N10_4 1_555 1_555
C70_4 C71_4 1_555 1_555
C73_4 N12_4 1_555 1_555
C74_4 N16_2 1_555 1_555
C74_4 N12_4 1_555 1_555
Co6_4 N7_4 1_555 1_555
C42_4 H29_4 1_555 1_555
C43_4 C42_4 1_555 1_555
H30_4 C43_4 1_555 1_555
C44_4 H31_4 1_555 1_555
C45_4 C46_4 1_555 1_555
C46_4 H32_4 1_555 1_555
C47_4 C46_4 1_555 1_555
H33_4 C47_4 1_555 1_555
C48_4 C47_4 1_555 1_555
C49_4 C48_4 1_555 1_555
H34_4 C49_4 1_555 1_555
C50_4 C45_4 1_555 1_555
H35_4 C50_4 1_555 1_555
N7_4 C42_4 1_555 1_555
N8_4 C43_4 1_555 1_555
C44_4 N7_4 1_555 1_555
C44_4 N8_4 1_555 1_555
C45_4 N8_4 1_555 1_555
C49_4 C50_4 1_555 1_555
Co6_3 N1_4 1_555 1_555
Co7_3 O4_4 1_555 1_555
S1_4 O3_4 1_555 1_555
C1_4 H1_4 1_555 1_555
C2_4 C1_4 1_555 1_555
H2_4 C2_4 1_555 1_555
C3_4 H3_4 1_555 1_555
C4_4 C5_4 1_555 1_555
C5_4 H4_4 1_555 1_555
C6_4 C5_4 1_555 1_555
H5_4 C6_4 1_555 1_555
C7_4 C6_4 1_555 1_555
C8_4 C7_4 1_555 1_555
H6_4 C8_4 1_555 1_555
C9_4 C4_4 1_555 1_555
H7_4 C9_4 1_555 1_555
N1_4 C1_4 1_555 1_555
N2_4 C2_4 1_555 1_555
O3_4 Co6_3 1_555 1_555
O4_4 S1_4 1_555 1_555
O5_4 S1_4 1_555 1_555
O6_4 S1_4 1_555 1_555
S2_4 O9_4 1_555 1_555
O10_4 Co7_3 1_555 1_555
O12_4 S2_4 1_555 1_555
N13_2 Co7_3 1_555 1_555
C3_4 N1_4 1_555 1_555
C3_4 N2_4 1_555 1_555
C4_4 N2_4 1_555 1_555
C8_4 C9_4 1_555 1_555
S2_4 O10_4 1_555 1_555
C11_4 C10_4 1_555 1_555
H8_4 C11_4 1_555 1_555
C14_4 C13_4 1_555 1_555
C15_4 C10_4 1_555 1_555
C25_4 C14_4 1_555 1_555
C26_4 C25_4 1_555 1_555
H18_4 C26_4 1_555 1_555
C27_4 C26_4 1_555 1_555
H19_4 C27_4 1_555 1_555
C28_4 C27_4 1_555 1_555
C29_4 C28_4 1_555 1_555
H20_4 C29_4 1_555 1_555
C30_4 C25_4 1_555 1_555
H21_4 C30_4 1_555 1_555
C31_4 H22_4 1_555 1_555
C32_4 C31_4 1_555 1_555
H23_4 C32_4 1_555 1_555
C33_4 H24_4 1_555 1_555
N15_2 C31_4 1_555 1_555
N6_4 C28_4 1_555 1_555
C14_4 C15_4 1_555 1_555
C29_4 C30_4 1_555 1_555
C32_4 N6_4 1_555 1_555
C33_4 N15_2 1_555 1_555
C33_4 N6_4 1_555 1_555
C16_4 C12_4 1_555 1_555
C17_4 C16_4 1_555 1_555
C18_4 C17_4 1_555 1_555
H12_4 C18_4 1_555 1_555
C19_4 C18_4 1_555 1_555
C20_4 C19_4 1_555 1_555
H13_4 C20_4 1_555 1_555
C21_4 C16_4 1_555 1_555
H14_4 C21_4 1_555 1_555
C22_4 H15_4 1_555 1_555
C23_4 C22_4 1_555 1_555
H16_4 C23_4 1_555 1_555
C24_4 H17_4 1_555 1_555
N13_2 C22_4 1_555 1_555
N4_4 C19_4 1_555 1_555
C20_4 C21_4 1_555 1_555
C23_4 N4_4 1_555 1_555
C24_4 N13_2 1_555 1_555
C24_4 N4_4 1_555 1_555

#END
