
###############################################################################
#
# This file contains modified crystal structure data generated from the
# MOF subset of the Cambridge Structural Database (CSD) v543 
# hosted by the Cambridge Crystallographic Data Centre (CCDC).
#
# This work is licensed under the Creative Commons
# Attribution-NonCommercial-ShareAlike 4.0 International License.
# To view a copy of this license, visit
# http://creativecommons.org/licenses/by-nc-sa/4.0/
# or send a letter to
# Creative Commons, PO Box 1866, Mountain View, CA 94042, USA.
#
# CIF created using the CSD Python API on 29 September 2022
# The structure has been converted into the P1 space group
# The structure has a 3D framework
# The original CSD entry ZEHJEE is in the rhombohedral crystal system
# The framework has been calculated to contain at least 10.0% void space
# The void calculation uses a probe of radius 1.32A, grid spacing 0.4
#
###############################################################################

data_ZEHJEE
_chemical_formula_moiety         '(C198 H216 N18 O72 Zn16)n'
_symmetry_cell_setting           triclinic
_symmetry_space_group_name_H-M   'P 1'
_symmetry_Int_Tables_number      1
_space_group_name_Hall           'P 1'
loop_
_symmetry_equiv_pos_site_id
_symmetry_equiv_pos_as_xyz
1 x,y,z
_cell_length_a                   36.5943(12)
_cell_length_b                   36.5943(12)
_cell_length_c                   6.7186(2)
_cell_angle_alpha                90
_cell_angle_beta                 90
_cell_angle_gamma                120
_cell_volume                     7791.77
loop_
_atom_site_label
_atom_site_type_symbol
_atom_site_fract_x
_atom_site_fract_y
_atom_site_fract_z
O8 O 0.75051(5) 0.00358(8) 0.3555(3)
H22 H 0.787438 0.057385 0.067158
Zn7 Zn 0.67569(3) 0.03744(2) 0.83658(3)
O10 O 0.72432(4) 0.04608(6) 0.65668(19)
O13 O 0.68395(4) 0.02798(6) 0.29556(19)
H19 H 0.831885 0.000692 0.924821
C22 C 0.77978(15) 0.03272(21) 0.9829(5)
H23 H 0.797173 0.041601 0.862279
H24 H 0.749936 0.019579 0.946028
C10 C 0.8270(2) 0.8062(2) 0.0085(11)
H7 H 0.831193 0.831885 0.075179
H9 H 0.825738 0.786107 0.108218
C11 C 0.74706(14) 0.77978(15) 0.0171(5)
H11 H 0.755572 0.797173 0.137721
H12 H 0.730357 0.749936 0.053972
Zn5 Zn 0.63824(2) 0.67569(3) 0.16342(3)
Zn1 Zn 0.70411(2) 0.69509(2) 0.49675(3)
O1 O 0.67824(4) 0.72432(4) 0.34332(19)
O2 O 0.65597(4) 0.68395(4) 0.70444(19)
O3 O 0.63498(5) 0.71171(4) 0.94245(19)
O4 O 0.74693(6) 0.75051(5) 0.6445(3)
N1 N 0.78799(12) 0.78760(13) 0.8981(6)
C1 C 0.66797(6) 0.75059(5) 0.4321(2)
C2 C 0.65343(6) 0.74625(5) 0.6310(2)
C3 C 0.64335(8) 0.77602(7) 0.7044(3)
H1 H 0.632872 0.772917 0.836337
C4 C 0.64810(9) 0.80974(7) 0.5914(3)
H2 H 0.640988 0.829299 0.646413
C5 C 0.67254(6) 0.78521(5) 0.3200(2)
H3 H 0.682305 0.788206 0.186709
C6 C 0.66347(7) 0.81513(6) 0.3951(3)
C7 C 0.64799(5) 0.71171(5) 0.7679(2)
C8 C 0.78036(12) 0.76776(12) 0.7222(6)
C9 C 0.81678(14) 0.76819(15) 0.6127(8)
H4 H 0.825577 0.750506 0.684052
H5 H 0.840502 0.797185 0.605596
H6 H 0.807821 0.757168 0.477759
H8 H 0.850485 0.813397 0.917145
H10 H 0.730053 0.787438 0.932842
O5 O 0.65509(4) 0.94235(4) 0.32335(19)
C12 C 0.66536(6) 0.91608(5) 0.2346(2)
C13 C 0.67990(6) 0.92042(5) 0.0357(2)
C15 C 0.68523(9) 0.85693(7) 0.0753(3)
H14 H 0.692345 0.837368 0.020254
C16 C 0.66079(6) 0.88146(5) 0.3467(2)
H15 H 0.651028 0.878461 0.479958
C17 C 0.66986(7) 0.85154(6) 0.2716(3)
Zn3 Zn 0.65765(3) 0.62922(2) 0.83008(3)
Zn6 Zn 0.69509(2) 0.99098(3) 0.50325(3)
Zn8 Zn 0.62922(2) 0.97158(2) 0.16992(3)
O9 O 0.71275(6) 0.65509(4) 0.67665(19)
O12 O 0.64938(4) 0.63869(6) 0.37111(19)
O15 O 0.74340(6) 0.69835(5) 0.27578(19)
O6 O 0.67736(4) 0.98272(4) 0.96223(19)
O7 O 0.69835(5) 0.95496(4) 0.72422(19)
C14 C 0.68998(8) 0.89065(7) 0.9623(3)
H13 H 0.700461 0.893750 0.830330
C18 C 0.68534(5) 0.95496(5) 0.8988(2)
N2 N 0.78760(13) 0.99961(18) 0.1019(6)
C19 C 0.76776(12) 0.98740(17) 0.2778(6)
C20 C 0.76819(15) 0.95141(21) 0.3873(8)
H16 H 0.750506 0.924929 0.315948
H17 H 0.797185 0.956683 0.394404
H18 H 0.757168 0.949347 0.522241
H20 H 0.813397 0.962912 0.082855
O14 O 0.63869(6) 0.98930(4) 0.62889(19)
Zn1_2 Zn 0.30491(2) 0.00902(3) 0.49675(3)
N1_2 N 0.21240(13) 0.00039(18) 0.8981(6)
C8_2 C 0.23224(12) 0.01260(17) 0.7222(6)
C9_2 C 0.23181(15) 0.04859(21) 0.6127(8)
H4_2 H 0.249494 0.075071 0.684052
H5_2 H 0.202815 0.043317 0.605596
H6_2 H 0.242832 0.050653 0.477759
H8_2 H 0.186603 0.037088 0.917145
Zn3_2 Zn 0.37078(2) 0.02842(4) 0.83008(3)
O9_2 O 0.34491(4) 0.05765(7) 0.67665(19)
O12_2 O 0.36131(6) 0.01070(7) 0.37111(19)
O15_2 O 0.30165(5) 0.04504(8) 0.27578(19)
H7_2 H 0.168115 0.999308 0.075179
C11_2 C 0.22022(15) 0.96728(21) 0.0171(5)
H11_2 H 0.202827 0.958399 0.137721
H12_2 H 0.250064 0.980421 0.053972
Zn5_2 Zn 0.32431(3) 0.96256(4) 0.16342(3)
O1_2 O 0.27568(4) 0.95392(6) 0.34332(19)
O2_2 O 0.31605(4) 0.97202(6) 0.70444(19)
O3_2 O 0.28829(4) 0.92327(6) 0.94245(19)
O4_2 O 0.24949(5) 0.99642(8) 0.6445(3)
C1_2 C 0.24941(5) 0.91738(8) 0.4321(2)
C2_2 C 0.25375(5) 0.90718(8) 0.6310(2)
C3_2 C 0.22398(7) 0.86733(11) 0.7044(3)
H1_2 H 0.227083 0.859955 0.836337
C4_2 C 0.19026(7) 0.83836(11) 0.5914(3)
H2_2 H 0.170701 0.811689 0.646413
C5_2 C 0.21479(5) 0.88733(8) 0.3200(2)
H3_2 H 0.211794 0.894099 0.186709
C6_2 C 0.18487(6) 0.84834(9) 0.3951(3)
C7_2 C 0.28829(5) 0.93628(7) 0.7679(2)
H10_2 H 0.212562 0.942615 0.932842
O5_2 O 0.05765(4) 0.71275(6) 0.32335(19)
C12_2 C 0.08392(5) 0.74929(8) 0.2346(2)
C13_2 C 0.07958(5) 0.75949(8) 0.0357(2)
C15_2 C 0.14307(7) 0.82831(11) 0.0753(3)
H14_2 H 0.162632 0.854978 0.020254
C16_2 C 0.11854(5) 0.77934(8) 0.3467(2)
H15_2 H 0.121539 0.772568 0.479958
C17_2 C 0.14846(6) 0.81833(9) 0.2716(3)
Zn6_2 Zn 0.00902(3) 0.70411(4) 0.50325(3)
Zn8_2 Zn 0.02842(2) 0.65765(3) 0.16992(3)
O6_2 O 0.01728(4) 0.69465(6) 0.96223(19)
O7_2 O 0.04504(4) 0.74340(6) 0.72422(19)
C14_2 C 0.10935(7) 0.79934(11) 0.9623(3)
H13_2 H 0.106250 0.806712 0.830330
C18_2 C 0.04504(5) 0.73039(7) 0.8988(2)
N2_2 N 0.00039(18) 0.78799(22) 0.1019(6)
C19_2 C 0.01260(17) 0.78036(21) 0.2778(6)
C20_2 C 0.04859(21) 0.81678(26) 0.3873(8)
H16_2 H 0.075071 0.825577 0.315948
H17_2 H 0.043317 0.840502 0.394404
H18_2 H 0.050653 0.807821 0.522241
H20_2 H 0.037088 0.850485 0.082855
O14_2 O 0.01070(4) 0.64938(7) 0.62889(19)
O8_2 O 0.99642(8) 0.74693(9) 0.3555(3)
H22_2 H 0.942615 0.730053 0.067158
Zn7_2 Zn 0.96256(2) 0.63824(4) 0.83658(3)
O10_2 O 0.95392(6) 0.67824(7) 0.65668(19)
O13_2 O 0.97202(6) 0.65597(7) 0.29556(19)
H19_2 H 0.999308 0.831193 0.924821
C22_2 C 0.96728(21) 0.74706(26) 0.9829(5)
H23_2 H 0.958399 0.755572 0.862279
H24_2 H 0.980421 0.730357 0.946028
H7_3 H 0.000692 0.168807 0.075179
C11_3 C 0.03272(21) 0.25294(14) 0.0171(5)
H11_3 H 0.041601 0.244428 0.137721
H12_3 H 0.019579 0.269643 0.053972
Zn5_3 Zn 0.03744(4) 0.36176(2) 0.16342(3)
O1_3 O 0.04608(6) 0.32176(4) 0.34332(19)
O2_3 O 0.02798(6) 0.34403(4) 0.70444(19)
O3_3 O 0.07673(6) 0.36502(5) 0.94245(19)
O4_3 O 0.00358(8) 0.25307(6) 0.6445(3)
C1_3 C 0.08262(8) 0.33203(6) 0.4321(2)
C2_3 C 0.09282(8) 0.34657(6) 0.6310(2)
C3_3 C 0.13267(11) 0.35665(8) 0.7044(3)
H1_3 H 0.140045 0.367128 0.836337
C4_3 C 0.16164(11) 0.35190(9) 0.5914(3)
H2_3 H 0.188311 0.359012 0.646413
C5_3 C 0.11267(8) 0.32746(6) 0.3200(2)
H3_3 H 0.105901 0.317695 0.186709
C6_3 C 0.15166(9) 0.33653(7) 0.3951(3)
C7_3 C 0.06372(7) 0.35201(5) 0.7679(2)
H10_3 H 0.057385 0.269947 0.932842
O5_3 O 0.28725(6) 0.34491(4) 0.32335(19)
C12_3 C 0.25071(8) 0.33464(6) 0.2346(2)
C13_3 C 0.24051(8) 0.32010(6) 0.0357(2)
C15_3 C 0.17169(11) 0.31477(9) 0.0753(3)
H14_3 H 0.145022 0.307655 0.020254
C16_3 C 0.22066(8) 0.33921(6) 0.3467(2)
H15_3 H 0.227432 0.348972 0.479958
C17_3 C 0.18167(9) 0.33014(7) 0.2716(3)
Zn6_3 Zn 0.29589(4) 0.30491(2) 0.50325(3)
Zn8_3 Zn 0.34235(3) 0.37078(2) 0.16992(3)
O6_3 O 0.30535(6) 0.32264(4) 0.96223(19)
O7_3 O 0.25660(6) 0.30165(5) 0.72422(19)
C14_3 C 0.20066(11) 0.31002(8) 0.9623(3)
H13_3 H 0.193288 0.299539 0.830330
C18_3 C 0.26961(7) 0.31466(5) 0.8988(2)
O8_3 O 0.25307(9) 0.24949(5) 0.3555(3)
N2_3 N 0.21201(22) 0.21240(13) 0.1019(6)
C19_3 C 0.21964(21) 0.23224(12) 0.2778(6)
C20_3 C 0.18322(26) 0.23181(15) 0.3873(8)
H16_3 H 0.174423 0.249494 0.315948
H17_3 H 0.159498 0.202815 0.394404
H18_3 H 0.192179 0.242832 0.522241
H20_3 H 0.149515 0.186603 0.082855
H22_3 H 0.269947 0.212562 0.067158
Zn7_3 Zn 0.36176(4) 0.32431(3) 0.83658(3)
O10_3 O 0.32176(7) 0.27568(4) 0.65668(19)
O13_3 O 0.34403(7) 0.31605(4) 0.29556(19)
O14_3 O 0.35062(7) 0.36131(6) 0.62889(19)
C21 C 0.1730(4) 0.1938(2) 0.9915(11)
H19_3 H 0.168807 0.168115 0.924821
H21 H 0.174262 0.213893 0.891782
C22_3 C 0.25294(26) 0.22022(15) 0.9829(5)
H23_3 H 0.244428 0.202827 0.862279
H24_3 H 0.269643 0.250064 0.946028
Zn1_3 Zn 0.99098(3) 0.29589(2) 0.49675(3)
N1_3 N 0.99961(18) 0.21201(12) 0.8981(6)
C8_3 C 0.98740(17) 0.21964(12) 0.7222(6)
C9_3 C 0.95141(21) 0.18322(14) 0.6127(8)
H4_3 H 0.924929 0.174423 0.684052
H5_3 H 0.956683 0.159498 0.605596
H6_3 H 0.949347 0.192179 0.477759
H8_3 H 0.962912 0.149515 0.917145
Zn3_3 Zn 0.97158(4) 0.34235(3) 0.83008(3)
O9_3 O 0.94235(7) 0.28725(6) 0.67665(19)
O12_3 O 0.98930(7) 0.35062(4) 0.37111(19)
O15_3 O 0.95496(8) 0.25660(6) 0.27578(19)
O2_4 O 0.32264(4) 0.01728(4) 0.03777(19)
N1_4 N 0.45466(12) 0.12093(13) 0.2314(6)
C3_4 C 0.31002(8) 0.10935(7) 0.0377(3)
H1_4 H 0.299539 0.106250 0.169670
C7_4 C 0.31466(5) 0.04504(5) 0.1012(2)
C8_4 C 0.44703(12) 0.10109(12) 0.0555(6)
H4_4 H 0.492244 0.083839 0.017385
C10_2 C 0.4937(2) 0.1395(2) 0.3418(11)
H7_4 H 0.497860 0.165218 0.408512
H8_4 H 0.517152 0.146730 0.250478
H9_2 H 0.492405 0.119440 0.441551
C11_4 C 0.41373(14) 0.11311(15) 0.3504(5)
H10_4 H 0.396720 0.120771 0.266175
H11_4 H 0.422239 0.130506 0.471054
H12_4 H 0.397024 0.083269 0.387305
O4_4 O 0.41360(6) 0.08384(5) 0.9778(3)
C1_4 C 0.33464(6) 0.08392(5) 0.7654(2)
C2_4 C 0.32010(6) 0.07958(5) 0.9643(2)
C4_4 C 0.31477(9) 0.14307(7) 0.9247(3)
H2_4 H 0.307655 0.162632 0.979746
C5_4 C 0.33921(6) 0.11854(5) 0.6533(2)
H3_4 H 0.348972 0.121539 0.520042
C6_4 C 0.33014(7) 0.14846(6) 0.7284(3)
C9_4 C 0.48345(14) 0.10152(15) 0.9460(8)
H5_4 H 0.507169 0.130518 0.938929
H6_4 H 0.474488 0.090501 0.811092
O7_4 O 0.36502(5) 0.28829(4) 0.05755(19)
C12_4 C 0.33203(6) 0.24941(5) 0.5679(2)
C13_4 C 0.34657(6) 0.25375(5) 0.3690(2)
C14_4 C 0.35665(8) 0.22398(7) 0.2956(3)
H13_4 H 0.367128 0.227083 0.163663
C15_4 C 0.35190(9) 0.19026(7) 0.4086(3)
H14_4 H 0.359012 0.170701 0.353587
C16_4 C 0.32746(6) 0.21479(5) 0.6800(2)
H15_4 H 0.317695 0.211794 0.813291
C17_4 C 0.33653(7) 0.18487(6) 0.6049(3)
C18_4 C 0.35201(5) 0.28829(5) 0.2321(2)
O15_4 O 0.41006(6) 0.03169(5) 0.60912(19)
O8_4 O 0.41718(5) 0.33691(8) 0.6888(3)
N2_4 N 0.45427(13) 0.33294(18) 0.4352(6)
C19_4 C 0.43443(12) 0.32073(17) 0.6111(6)
C20_4 C 0.43486(15) 0.28474(21) 0.7206(8)
H16_4 H 0.417173 0.258262 0.649281
H17_4 H 0.463852 0.290016 0.727737
H18_4 H 0.423835 0.282680 0.855574
C21_2 C 0.4729(2) 0.3125(3) 0.3248(11)
H19_4 H 0.498552 0.334025 0.258154
H20_4 H 0.480064 0.296245 0.416188
H21_2 H 0.452774 0.293702 0.225115
C22_4 C 0.44645(15) 0.36605(21) 0.3162(5)
H22_4 H 0.454105 0.390718 0.400491
H23_4 H 0.463840 0.374934 0.195612
H24_4 H 0.416603 0.352912 0.279361
O10_4 O 0.39099(4) 0.37941(6) 0.99001(19)
O9_4 O 0.37941(6) 0.98843(4) 0.00999(19)
O9_5 O 0.01157(4) 0.39099(7) 0.00999(19)
O2_5 O 0.98272(4) 0.30535(6) 0.03777(19)
N1_5 N 0.87907(13) 0.33372(18) 0.2314(6)
C3_5 C 0.89065(7) 0.20066(11) 0.0377(3)
H1_5 H 0.893750 0.193288 0.169670
C7_5 C 0.95496(5) 0.26961(7) 0.1012(2)
C8_5 C 0.89891(12) 0.34593(17) 0.0555(6)
H4_5 H 0.916161 0.408404 0.017385
C10_3 C 0.8605(2) 0.3541(3) 0.3418(11)
H7_5 H 0.834782 0.332641 0.408512
H8_5 H 0.853270 0.370421 0.250478
H9_3 H 0.880560 0.372964 0.441551
C11_5 C 0.88689(15) 0.30061(21) 0.3504(5)
H10_5 H 0.879229 0.275948 0.266175
H11_5 H 0.869494 0.291732 0.471054
H12_5 H 0.916731 0.313754 0.387305
O4_5 O 0.91616(5) 0.32975(8) 0.9778(3)
C1_5 C 0.91608(5) 0.25071(8) 0.7654(2)
C2_5 C 0.92042(5) 0.24051(8) 0.9643(2)
C4_5 C 0.85693(7) 0.17169(11) 0.9247(3)
H2_5 H 0.837368 0.145022 0.979746
C5_5 C 0.88146(5) 0.22066(8) 0.6533(2)
H3_5 H 0.878461 0.227432 0.520042
C6_5 C 0.85154(6) 0.18167(9) 0.7284(3)
C9_5 C 0.89848(15) 0.38192(21) 0.9460(8)
H5_5 H 0.869482 0.376650 0.938929
H6_5 H 0.909499 0.383986 0.811092
O7_5 O 0.71171(4) 0.07673(6) 0.05755(19)
C12_5 C 0.75059(5) 0.08262(8) 0.5679(2)
C13_5 C 0.74625(5) 0.09282(8) 0.3690(2)
C14_5 C 0.77602(7) 0.13267(11) 0.2956(3)
H13_5 H 0.772917 0.140045 0.163663
C15_5 C 0.80974(7) 0.16164(11) 0.4086(3)
H14_5 H 0.829299 0.188311 0.353587
C16_5 C 0.78521(5) 0.11267(8) 0.6800(2)
H15_5 H 0.788206 0.105901 0.813291
C17_5 C 0.81513(6) 0.15166(9) 0.6049(3)
C18_5 C 0.71171(5) 0.06372(7) 0.2321(2)
O15_5 O 0.96831(5) 0.37838(8) 0.60912(19)
O8_5 O 0.66309(8) 0.08026(9) 0.6888(3)
N2_5 N 0.66706(18) 0.12132(22) 0.4352(6)
C19_5 C 0.67927(17) 0.11369(21) 0.6111(6)
C20_5 C 0.71526(21) 0.15011(26) 0.7206(8)
H16_5 H 0.741738 0.158910 0.649281
H17_5 H 0.709984 0.173835 0.727737
H18_5 H 0.717320 0.141154 0.855574
C21_3 C 0.6875(3) 0.1603(4) 0.3248(11)
H19_5 H 0.665975 0.164526 0.258154
H20_5 H 0.703755 0.183818 0.416188
H21_3 H 0.706298 0.159071 0.225115
C22_5 C 0.63395(21) 0.08039(26) 0.3162(5)
H22_5 H 0.609282 0.063386 0.400491
H23_5 H 0.625066 0.088905 0.195612
H24_5 H 0.647088 0.063690 0.279361
O10_5 O 0.62059(6) 0.01157(7) 0.99001(19)
O2_6 O 0.69465(6) 0.67736(4) 0.03777(19)
N1_6 N 0.66628(18) 0.54534(12) 0.2314(6)
C3_6 C 0.79934(11) 0.68998(8) 0.0377(3)
H1_6 H 0.806712 0.700461 0.169670
C7_6 C 0.73039(7) 0.68534(5) 0.1012(2)
C8_6 C 0.65407(17) 0.55297(12) 0.0555(6)
H4_6 H 0.591596 0.507756 0.017385
C10_4 C 0.6459(3) 0.5063(2) 0.3418(11)
H7_6 H 0.667359 0.502140 0.408512
H8_6 H 0.629579 0.482848 0.250478
H9_4 H 0.627036 0.507595 0.441551
C11_6 C 0.69939(21) 0.58627(14) 0.3504(5)
H10_6 H 0.724052 0.603280 0.266175
H11_6 H 0.708268 0.577761 0.471054
H12_6 H 0.686246 0.602976 0.387305
O9_6 O 0.60901(7) 0.62059(6) 0.00999(19)
O4_6 O 0.67025(8) 0.58640(6) 0.9778(3)
C1_6 C 0.74929(8) 0.66536(6) 0.7654(2)
C2_6 C 0.75949(8) 0.67990(6) 0.9643(2)
C4_6 C 0.82831(11) 0.68523(9) 0.9247(3)
H2_6 H 0.854978 0.692345 0.979746
C5_6 C 0.77934(8) 0.66079(6) 0.6533(2)
H3_6 H 0.772568 0.651028 0.520042
C6_6 C 0.81833(9) 0.66986(7) 0.7284(3)
C9_6 C 0.61808(21) 0.51655(14) 0.9460(8)
H5_6 H 0.623350 0.492831 0.938929
H6_6 H 0.616014 0.525512 0.811092
O7_6 O 0.92327(6) 0.63498(5) 0.05755(19)
C12_6 C 0.91738(8) 0.66797(6) 0.5679(2)
C13_6 C 0.90718(8) 0.65343(6) 0.3690(2)
C14_6 C 0.86733(11) 0.64335(8) 0.2956(3)
H13_6 H 0.859955 0.632872 0.163663
C15_6 C 0.83836(11) 0.64810(9) 0.4086(3)
H14_6 H 0.811689 0.640988 0.353587
C16_6 C 0.88733(8) 0.67254(6) 0.6800(2)
H15_6 H 0.894099 0.682305 0.813291
C17_6 C 0.84834(9) 0.66347(7) 0.6049(3)
C18_6 C 0.93628(7) 0.64799(5) 0.2321(2)
O15_6 O 0.62162(8) 0.58994(6) 0.60912(19)
O8_6 O 0.91974(9) 0.58282(5) 0.6888(3)
N2_6 N 0.87868(22) 0.54573(13) 0.4352(6)
C19_6 C 0.88631(21) 0.56557(12) 0.6111(6)
C20_6 C 0.84989(26) 0.56514(15) 0.7206(8)
H16_6 H 0.841090 0.582827 0.649281
H17_6 H 0.826165 0.536148 0.727737
H18_6 H 0.858846 0.576165 0.855574
C21_4 C 0.8397(4) 0.5271(2) 0.3248(11)
H19_6 H 0.835474 0.501448 0.258154
H20_6 H 0.816182 0.519936 0.416188
H21_4 H 0.840929 0.547226 0.225115
C22_6 C 0.91961(26) 0.55355(15) 0.3162(5)
H22_6 H 0.936614 0.545895 0.400491
H23_6 H 0.911095 0.536160 0.195612
H24_6 H 0.936310 0.583397 0.279361
O10_6 O 0.98843(7) 0.60901(4) 0.99001(19)
O4_7 O 0.08026(6) 0.41718(5) 0.3112(3)
N1_7 N 0.12132(12) 0.45427(13) 0.5648(6)
C1_7 C 0.00130(6) 0.41726(5) 0.0988(2)
C8_7 C 0.11369(12) 0.43443(12) 0.3889(6)
C9_7 C 0.15011(14) 0.43486(15) 0.2794(8)
H4_7 H 0.158910 0.417173 0.350719
H5_7 H 0.173835 0.463852 0.272263
H6_7 H 0.141154 0.423835 0.144426
C10_5 C 0.1603(2) 0.4729(2) 0.6752(11)
H7_7 H 0.164526 0.498552 0.741846
H8_7 H 0.183818 0.480064 0.583812
H9_5 H 0.159071 0.452774 0.774885
C11_7 C 0.08039(14) 0.44645(15) 0.6838(5)
H10_7 H 0.063386 0.454105 0.599509
H11_7 H 0.088905 0.463840 0.804388
H12_7 H 0.063690 0.416603 0.720639
C5_7 C 0.00587(6) 0.45188(5) 0.9867(2)
H3_7 H 0.015638 0.454873 0.853376
O7_7 O 0.03169(5) 0.62162(4) 0.39088(19)
C13_7 C 0.01324(6) 0.58708(5) 0.7023(2)
C14_7 C 0.02332(8) 0.55731(7) 0.6289(3)
H13_7 H 0.033795 0.560416 0.496996
C15_7 C 0.01857(9) 0.52359(7) 0.7419(3)
H14_7 H 0.025679 0.504034 0.686920
C17_7 C 0.00320(7) 0.51820(6) 0.9382(3)
C18_7 C 0.01868(5) 0.62162(5) 0.5654(2)
O8_7 O 0.08384(5) 0.67025(8) 0.0222(3)
C20_7 C 0.10152(15) 0.61808(21) 0.0540(8)
H17_7 H 0.130518 0.623350 0.061071
H18_7 H 0.090501 0.616014 0.188908
N2_7 N 0.12093(13) 0.66628(18) 0.7686(6)
C19_7 C 0.10109(12) 0.65407(17) 0.9445(6)
H16_7 H 0.083839 0.591596 0.982615
C21_5 C 0.1395(2) 0.6459(3) 0.6582(11)
H19_7 H 0.165218 0.667359 0.591488
H20_7 H 0.146730 0.629579 0.749522
H21_5 H 0.119440 0.627036 0.558449
C22_7 C 0.11311(15) 0.69939(21) 0.6496(5)
H22_7 H 0.120771 0.724052 0.733825
H23_7 H 0.130506 0.708268 0.528946
H24_7 H 0.083269 0.686246 0.612695
C2_7 C 0.98676(6) 0.41292(5) 0.2977(2)
C3_7 C 0.97668(8) 0.44269(7) 0.3711(3)
H1_7 H 0.966205 0.439584 0.503004
C4_7 C 0.98143(9) 0.47641(7) 0.2581(3)
H2_7 H 0.974321 0.495966 0.313080
C6_7 C 0.99680(7) 0.48180(6) 0.0618(3)
C7_7 C 0.98132(5) 0.37838(5) 0.4346(2)
C16_7 C 0.99413(6) 0.54812(5) 0.0133(2)
H15_7 H 0.984362 0.545127 0.146624
C12_7 C 0.99870(6) 0.58274(5) 0.9012(2)
O4_8 O 0.58282(5) 0.66309(8) 0.3112(3)
N1_8 N 0.54573(13) 0.66706(18) 0.5648(6)
C1_8 C 0.58274(5) 0.58405(8) 0.0988(2)
C2_8 C 0.58708(5) 0.57385(8) 0.2977(2)
C3_8 C 0.55731(7) 0.53400(11) 0.3711(3)
H1_8 H 0.560416 0.526622 0.503004
C4_8 C 0.52359(7) 0.50503(11) 0.2581(3)
H2_8 H 0.504034 0.478356 0.313080
C6_8 C 0.51820(6) 0.51501(9) 0.0618(3)
C7_8 C 0.62162(5) 0.60295(7) 0.4346(2)
C8_8 C 0.56557(12) 0.67927(17) 0.3889(6)
C9_8 C 0.56514(15) 0.71526(21) 0.2794(8)
H4_8 H 0.582827 0.741738 0.350719
H5_8 H 0.536148 0.709984 0.272263
H6_8 H 0.576165 0.717320 0.144426
C10_6 C 0.5271(2) 0.6875(3) 0.6752(11)
H7_8 H 0.501448 0.665975 0.741846
H8_8 H 0.519936 0.703755 0.583812
H9_6 H 0.547226 0.706298 0.774885
C11_8 C 0.55355(15) 0.63395(21) 0.6838(5)
H10_8 H 0.545895 0.609282 0.599509
H11_8 H 0.536160 0.625066 0.804388
H12_8 H 0.583397 0.647088 0.720639
C16_8 C 0.45188(5) 0.44600(8) 0.0133(2)
H15_8 H 0.454873 0.439234 0.146624
C5_8 C 0.54812(5) 0.55400(8) 0.9867(2)
H3_8 H 0.545127 0.560766 0.853376
O7_8 O 0.37838(4) 0.41006(6) 0.39088(19)
C12_8 C 0.41726(5) 0.41595(8) 0.9012(2)
C13_8 C 0.41292(5) 0.42615(8) 0.7023(2)
C14_8 C 0.44269(7) 0.46600(11) 0.6289(3)
H13_8 H 0.439584 0.473378 0.496996
C15_8 C 0.47641(7) 0.49497(11) 0.7419(3)
H14_8 H 0.495966 0.521644 0.686920
C17_8 C 0.48180(6) 0.48499(9) 0.9382(3)
C18_8 C 0.37838(5) 0.39705(7) 0.5654(2)
O8_8 O 0.32975(8) 0.41360(9) 0.0222(3)
C20_8 C 0.38192(21) 0.48345(26) 0.0540(8)
H17_8 H 0.376650 0.507169 0.061071
H18_8 H 0.383986 0.474488 0.188908
N2_8 N 0.33372(18) 0.45466(22) 0.7686(6)
C19_8 C 0.34593(17) 0.44703(21) 0.9445(6)
H16_8 H 0.408404 0.492244 0.982615
C21_6 C 0.3541(3) 0.4937(4) 0.6582(11)
H19_8 H 0.332641 0.497860 0.591488
H20_8 H 0.370421 0.517152 0.749522
H21_6 H 0.372964 0.492405 0.558449
C22_8 C 0.30061(21) 0.41373(26) 0.6496(5)
H22_8 H 0.275948 0.396720 0.733825
H23_8 H 0.291732 0.422239 0.528946
H24_8 H 0.313754 0.397024 0.612695
C2_9 C 0.42615(8) 0.01324(6) 0.2977(2)
C3_9 C 0.46600(11) 0.02332(8) 0.3711(3)
H1_9 H 0.473378 0.033795 0.503004
C4_9 C 0.49497(11) 0.01857(9) 0.2581(3)
H2_9 H 0.521644 0.025679 0.313080
C6_9 C 0.48499(9) 0.00320(7) 0.0618(3)
C7_9 C 0.39705(7) 0.01868(5) 0.4346(2)
C16_9 C 0.55400(8) 0.00587(6) 0.0133(2)
H15_9 H 0.560766 0.015638 0.146624
C12_9 C 0.58405(8) 0.00130(6) 0.9012(2)
O4_9 O 0.33691(8) 0.91974(6) 0.3112(3)
N1_9 N 0.33294(18) 0.87868(12) 0.5648(6)
C1_9 C 0.41595(8) 0.99870(6) 0.0988(2)
C8_9 C 0.32073(17) 0.88631(12) 0.3889(6)
C9_9 C 0.28474(21) 0.84989(14) 0.2794(8)
H4_9 H 0.258262 0.841090 0.350719
H5_9 H 0.290016 0.826165 0.272263
H6_9 H 0.282680 0.858846 0.144426
C10_7 C 0.3125(3) 0.8397(2) 0.6752(11)
H7_9 H 0.334025 0.835474 0.741846
H8_9 H 0.296245 0.816182 0.583812
H9_7 H 0.293702 0.840929 0.774885
C11_9 C 0.36605(21) 0.91961(14) 0.6838(5)
H10_9 H 0.390718 0.936614 0.599509
H11_9 H 0.374934 0.911095 0.804388
H12_9 H 0.352912 0.936310 0.720639
C5_9 C 0.44600(8) 0.99413(6) 0.9867(2)
H3_9 H 0.439234 0.984362 0.853376
O7_9 O 0.58994(6) 0.96831(5) 0.39088(19)
C13_9 C 0.57385(8) 0.98676(6) 0.7023(2)
C14_9 C 0.53400(11) 0.97668(8) 0.6289(3)
H13_9 H 0.526622 0.966205 0.496996
C15_9 C 0.50503(11) 0.98143(9) 0.7419(3)
H14_9 H 0.478356 0.974321 0.686920
C17_9 C 0.51501(9) 0.99680(7) 0.9382(3)
C18_9 C 0.60295(7) 0.98132(5) 0.5654(2)
O8_9 O 0.58640(9) 0.91616(5) 0.0222(3)
C20_9 C 0.51655(26) 0.89848(15) 0.0540(8)
H17_9 H 0.492831 0.869482 0.061071
H18_9 H 0.525512 0.909499 0.188908
N2_9 N 0.54534(22) 0.87907(13) 0.7686(6)
C19_9 C 0.55297(21) 0.89891(12) 0.9445(6)
H16_9 H 0.507756 0.916161 0.982615
C21_7 C 0.5063(4) 0.8605(2) 0.6582(11)
H19_9 H 0.502140 0.834782 0.591488
H20_9 H 0.482848 0.853270 0.749522
H21_7 H 0.507595 0.880560 0.558449
C22_9 C 0.58627(26) 0.88689(15) 0.6496(5)
H22_9 H 0.603280 0.879229 0.733825
H23_9 H 0.577761 0.869494 0.528946
H24_9 H 0.602976 0.916731 0.612695
C21_8 C 0.8062(2) 0.9792(3) 0.9915(11)
H21_8 H 0.786107 0.960369 0.891782
C10_8 C 0.1938(2) 0.0208(3) 0.0085(11)
H9_8 H 0.213893 0.039631 0.108218
C21_9 C 0.0208(3) 0.8270(4) 0.9915(11)
H21_9 H 0.039631 0.825738 0.891782
C10_9 C 0.9792(3) 0.1730(2) 0.0085(11)
H9_9 H 0.960369 0.174262 0.108218
loop_
_geom_bond_atom_site_label_1
_geom_bond_atom_site_label_2
_geom_bond_site_symmetry_1
_geom_bond_site_symmetry_2
Zn7 O10 1_555 1_555
H23 C22 1_555 1_555
H24 C22 1_555 1_555
H7 C10 1_555 1_555
H9 C10 1_555 1_555
H11 C11 1_555 1_555
H12 C11 1_555 1_555
Zn1 O1 1_555 1_555
O1 C1 1_555 1_555
O2 Zn1 1_555 1_555
O3 C7 1_555 1_555
O4 Zn1 1_555 1_555
N1 C8 1_555 1_555
C1 C2 1_555 1_555
C2 C3 1_555 1_555
C3 H1 1_555 1_555
C4 C3 1_555 1_555
H2 C4 1_555 1_555
C5 C1 1_555 1_555
H3 C5 1_555 1_555
C6 C4 1_555 1_555
C7 O2 1_555 1_555
C8 O4 1_555 1_555
C9 C8 1_555 1_555
H4 C9 1_555 1_555
H5 C9 1_555 1_555
H6 C9 1_555 1_555
O5 C12 1_555 1_555
C12 C13 1_555 1_555
H14 C15 1_555 1_555
C16 C12 1_555 1_555
H15 C16 1_555 1_555
C17 C6 1_555 1_555
Zn3 O2 1_555 1_555
Zn5 O1 1_555 1_555
Zn6 O5 1_555 1_555
Zn8 O5 1_555 1_555
O9 Zn1 1_555 1_555
O12 Zn1 1_555 1_555
O15 Zn1 1_555 1_555
C2 C7 1_555 1_555
C5 C6 1_555 1_555
C15 C17 1_555 1_555
C16 C17 1_555 1_555
Zn3 O9 1_555 1_555
Zn5 O12 1_555 1_555
O6 C18 1_555 1_555
O7 C18 1_555 1_555
C14 H13 1_555 1_555
Zn6 O7 1_555 1_555
N2 C19 1_555 1_555
C20 C19 1_555 1_555
H16 C20 1_555 1_555
H17 C20 1_555 1_555
H18 C20 1_555 1_555
O14 Zn6 1_555 1_555
N1_2 C8_2 1_555 1_555
C9_2 C8_2 1_555 1_555
H4_2 C9_2 1_555 1_555
H5_2 C9_2 1_555 1_555
H6_2 C9_2 1_555 1_555
O9_2 Zn1_2 1_555 1_555
O12_2 Zn1_2 1_555 1_555
O15_2 Zn1_2 1_555 1_555
Zn3_2 O9_2 1_555 1_555
H11_2 C11_2 1_555 1_555
H12_2 C11_2 1_555 1_555
O1_2 C1_2 1_555 1_555
O3_2 C7_2 1_555 1_555
C1_2 C2_2 1_555 1_555
C2_2 C3_2 1_555 1_555
C3_2 H1_2 1_555 1_555
C4_2 C3_2 1_555 1_555
H2_2 C4_2 1_555 1_555
C5_2 C1_2 1_555 1_555
H3_2 C5_2 1_555 1_555
C6_2 C4_2 1_555 1_555
C7_2 O2_2 1_555 1_555
O5_2 C12_2 1_555 1_555
C12_2 C13_2 1_555 1_555
H14_2 C15_2 1_555 1_555
C16_2 C12_2 1_555 1_555
H15_2 C16_2 1_555 1_555
C17_2 C6_2 1_555 1_555
Zn5_2 O1_2 1_555 1_555
Zn6_2 O5_2 1_555 1_555
Zn8_2 O5_2 1_555 1_555
C2_2 C7_2 1_555 1_555
C5_2 C6_2 1_555 1_555
C15_2 C17_2 1_555 1_555
C16_2 C17_2 1_555 1_555
O6_2 C18_2 1_555 1_555
O7_2 C18_2 1_555 1_555
C14_2 H13_2 1_555 1_555
Zn6_2 O7_2 1_555 1_555
N2_2 C19_2 1_555 1_555
C20_2 C19_2 1_555 1_555
H16_2 C20_2 1_555 1_555
H17_2 C20_2 1_555 1_555
H18_2 C20_2 1_555 1_555
O14_2 Zn6_2 1_555 1_555
Zn7_2 O10_2 1_555 1_555
H23_2 C22_2 1_555 1_555
H24_2 C22_2 1_555 1_555
H11_3 C11_3 1_555 1_555
H12_3 C11_3 1_555 1_555
O1_3 C1_3 1_555 1_555
O3_3 C7_3 1_555 1_555
C1_3 C2_3 1_555 1_555
C2_3 C3_3 1_555 1_555
C3_3 H1_3 1_555 1_555
C4_3 C3_3 1_555 1_555
H2_3 C4_3 1_555 1_555
C5_3 C1_3 1_555 1_555
H3_3 C5_3 1_555 1_555
C6_3 C4_3 1_555 1_555
C7_3 O2_3 1_555 1_555
O5_3 C12_3 1_555 1_555
C12_3 C13_3 1_555 1_555
H14_3 C15_3 1_555 1_555
C16_3 C12_3 1_555 1_555
H15_3 C16_3 1_555 1_555
C17_3 C6_3 1_555 1_555
Zn5_3 O1_3 1_555 1_555
Zn6_3 O5_3 1_555 1_555
Zn8_3 O5_3 1_555 1_555
C2_3 C7_3 1_555 1_555
C5_3 C6_3 1_555 1_555
C15_3 C17_3 1_555 1_555
C16_3 C17_3 1_555 1_555
O6_3 C18_3 1_555 1_555
O7_3 C18_3 1_555 1_555
C14_3 H13_3 1_555 1_555
Zn6_3 O7_3 1_555 1_555
O8_3 Zn6_3 1_555 1_555
N2_3 C19_3 1_555 1_555
C19_3 O8_3 1_555 1_555
C20_3 C19_3 1_555 1_555
H16_3 C20_3 1_555 1_555
H17_3 C20_3 1_555 1_555
H18_3 C20_3 1_555 1_555
Zn7_3 O6_3 1_555 1_555
O10_3 Zn6_3 1_555 1_555
O13_3 Zn6_3 1_555 1_555
O14_3 Zn6_3 1_555 1_555
Zn7_3 O10_3 1_555 1_555
Zn7_3 O14_3 1_555 1_555
H19_3 C21 1_555 1_555
H21 C21 1_555 1_555
H23_3 C22_3 1_555 1_555
H24_3 C22_3 1_555 1_555
N1_3 C8_3 1_555 1_555
C9_3 C8_3 1_555 1_555
H4_3 C9_3 1_555 1_555
H5_3 C9_3 1_555 1_555
H6_3 C9_3 1_555 1_555
O9_3 Zn1_3 1_555 1_555
O12_3 Zn1_3 1_555 1_555
O15_3 Zn1_3 1_555 1_555
Zn3_3 O9_3 1_555 1_555
O15_2 C7_4 1_555 1_555
N1_4 C8_4 1_555 1_555
C3_4 H1_4 1_555 1_555
C7_4 O2_4 1_555 1_555
C10_2 N1_4 1_555 1_555
H7_4 C10_2 1_555 1_555
H8_4 C10_2 1_555 1_555
H9_2 C10_2 1_555 1_555
C11_4 N1_4 1_555 1_555
H10_4 C11_4 1_555 1_555
H11_4 C11_4 1_555 1_555
H12_4 C11_4 1_555 1_555
O9_2 C1_4 1_555 1_555
O4_4 Zn3_2 1_555 1_555
C1_4 C2_4 1_555 1_555
H2_4 C4_4 1_555 1_555
C5_4 C1_4 1_555 1_555
H3_4 C5_4 1_555 1_555
C6_4 C4_4 1_555 1_555
H5_4 C9_4 1_555 1_555
H6_4 C9_4 1_555 1_555
O10_3 C12_4 1_555 1_555
O13_3 C18_4 1_555 1_555
O7_4 C18_4 1_555 1_555
C12_4 C13_4 1_555 1_555
C13_4 C14_4 1_555 1_555
C14_4 H13_4 1_555 1_555
C15_4 C14_4 1_555 1_555
H14_4 C15_4 1_555 1_555
C16_4 C12_4 1_555 1_555
H15_4 C16_4 1_555 1_555
C17_4 C6_4 1_555 1_555
C18_4 C13_4 1_555 1_555
Zn8_3 O13_3 1_555 1_555
O15_4 Zn3_2 1_555 1_555
C5_4 C6_4 1_555 1_555
C15_4 C17_4 1_555 1_555
C16_4 C17_4 1_555 1_555
O8_4 Zn7_3 1_555 1_555
N2_4 C19_4 1_555 1_555
C19_4 O8_4 1_555 1_555
C20_4 C19_4 1_555 1_555
H16_4 C20_4 1_555 1_555
H17_4 C20_4 1_555 1_555
H18_4 C20_4 1_555 1_555
C21_2 N2_4 1_555 1_555
H19_4 C21_2 1_555 1_555
H20_4 C21_2 1_555 1_555
H21_2 C21_2 1_555 1_555
C22_4 N2_4 1_555 1_555
H22_4 C22_4 1_555 1_555
H23_4 C22_4 1_555 1_555
H24_4 C22_4 1_555 1_555
O10_4 Zn7_3 1_555 1_555
Zn5_2 O9_4 1_555 1_555
Zn5_3 O9_5 1_555 1_555
O15_3 C7_5 1_555 1_555
N1_5 C8_5 1_555 1_555
C3_5 H1_5 1_555 1_555
C7_5 O2_5 1_555 1_555
C10_3 N1_5 1_555 1_555
H7_5 C10_3 1_555 1_555
H8_5 C10_3 1_555 1_555
H9_3 C10_3 1_555 1_555
C11_5 N1_5 1_555 1_555
H10_5 C11_5 1_555 1_555
H11_5 C11_5 1_555 1_555
H12_5 C11_5 1_555 1_555
O9_3 C1_5 1_555 1_555
O4_5 Zn3_3 1_555 1_555
C1_5 C2_5 1_555 1_555
H2_5 C4_5 1_555 1_555
C5_5 C1_5 1_555 1_555
H3_5 C5_5 1_555 1_555
C6_5 C4_5 1_555 1_555
H5_5 C9_5 1_555 1_555
H6_5 C9_5 1_555 1_555
O10 C12_5 1_555 1_555
O13 C18_5 1_555 1_555
O7_5 C18_5 1_555 1_555
C12_5 C13_5 1_555 1_555
C13_5 C14_5 1_555 1_555
C14_5 H13_5 1_555 1_555
C15_5 C14_5 1_555 1_555
H14_5 C15_5 1_555 1_555
C16_5 C12_5 1_555 1_555
H15_5 C16_5 1_555 1_555
C17_5 C6_5 1_555 1_555
C18_5 C13_5 1_555 1_555
O15_5 Zn3_3 1_555 1_555
C5_5 C6_5 1_555 1_555
C15_5 C17_5 1_555 1_555
C16_5 C17_5 1_555 1_555
O8_5 Zn7 1_555 1_555
N2_5 C19_5 1_555 1_555
C19_5 O8_5 1_555 1_555
C20_5 C19_5 1_555 1_555
H16_5 C20_5 1_555 1_555
H17_5 C20_5 1_555 1_555
H18_5 C20_5 1_555 1_555
C21_3 N2_5 1_555 1_555
H19_5 C21_3 1_555 1_555
H20_5 C21_3 1_555 1_555
H21_3 C21_3 1_555 1_555
C22_5 N2_5 1_555 1_555
H22_5 C22_5 1_555 1_555
H23_5 C22_5 1_555 1_555
H24_5 C22_5 1_555 1_555
O10_5 Zn7 1_555 1_555
O15 C7_6 1_555 1_555
N1_6 C8_6 1_555 1_555
C3_6 H1_6 1_555 1_555
C7_6 O2_6 1_555 1_555
C10_4 N1_6 1_555 1_555
H7_6 C10_4 1_555 1_555
H8_6 C10_4 1_555 1_555
H9_4 C10_4 1_555 1_555
C11_6 N1_6 1_555 1_555
H10_6 C11_6 1_555 1_555
H11_6 C11_6 1_555 1_555
H12_6 C11_6 1_555 1_555
Zn5 O2_6 1_555 1_555
Zn5 O9_6 1_555 1_555
O9 C1_6 1_555 1_555
O4_6 Zn3 1_555 1_555
C1_6 C2_6 1_555 1_555
H2_6 C4_6 1_555 1_555
C5_6 C1_6 1_555 1_555
H3_6 C5_6 1_555 1_555
C6_6 C4_6 1_555 1_555
H5_6 C9_6 1_555 1_555
H6_6 C9_6 1_555 1_555
O10_2 C12_6 1_555 1_555
O13_2 C18_6 1_555 1_555
O7_6 C18_6 1_555 1_555
C12_6 C13_6 1_555 1_555
C13_6 C14_6 1_555 1_555
C14_6 H13_6 1_555 1_555
C15_6 C14_6 1_555 1_555
H14_6 C15_6 1_555 1_555
C16_6 C12_6 1_555 1_555
H15_6 C16_6 1_555 1_555
C17_6 C6_6 1_555 1_555
C18_6 C13_6 1_555 1_555
O15_6 Zn3 1_555 1_555
C5_6 C6_6 1_555 1_555
C15_6 C17_6 1_555 1_555
C16_6 C17_6 1_555 1_555
O8_6 Zn7_2 1_555 1_555
N2_6 C19_6 1_555 1_555
C19_6 O8_6 1_555 1_555
C20_6 C19_6 1_555 1_555
H16_6 C20_6 1_555 1_555
H17_6 C20_6 1_555 1_555
H18_6 C20_6 1_555 1_555
C21_4 N2_6 1_555 1_555
H19_6 C21_4 1_555 1_555
H20_6 C21_4 1_555 1_555
H21_4 C21_4 1_555 1_555
C22_6 N2_6 1_555 1_555
H22_6 C22_6 1_555 1_555
H23_6 C22_6 1_555 1_555
H24_6 C22_6 1_555 1_555
O10_6 Zn7_2 1_555 1_555
O9_5 C1_7 1_555 1_555
O4_7 Zn5_3 1_555 1_555
N1_7 C8_7 1_555 1_555
C8_7 O4_7 1_555 1_555
C9_7 C8_7 1_555 1_555
H4_7 C9_7 1_555 1_555
H5_7 C9_7 1_555 1_555
H6_7 C9_7 1_555 1_555
C10_5 N1_7 1_555 1_555
H7_7 C10_5 1_555 1_555
H8_7 C10_5 1_555 1_555
H9_5 C10_5 1_555 1_555
C11_7 N1_7 1_555 1_555
H10_7 C11_7 1_555 1_555
H11_7 C11_7 1_555 1_555
H12_7 C11_7 1_555 1_555
H3_7 C5_7 1_555 1_555
O14_2 C18_7 1_555 1_555
O7_7 C18_7 1_555 1_555
C13_7 C14_7 1_555 1_555
C14_7 H13_7 1_555 1_555
C15_7 C14_7 1_555 1_555
H14_7 C15_7 1_555 1_555
C18_7 C13_7 1_555 1_555
Zn8_2 O7_7 1_555 1_555
O8_7 Zn8_2 1_555 1_555
H17_7 C20_7 1_555 1_555
H18_7 C20_7 1_555 1_555
C15_7 C17_7 1_555 1_555
N2_7 C19_7 1_555 1_555
C21_5 N2_7 1_555 1_555
H19_7 C21_5 1_555 1_555
H20_7 C21_5 1_555 1_555
H21_5 C21_5 1_555 1_555
C22_7 N2_7 1_555 1_555
H22_7 C22_7 1_555 1_555
H23_7 C22_7 1_555 1_555
H24_7 C22_7 1_555 1_555
O15_5 C7_7 1_555 1_555
C2_7 C3_7 1_555 1_555
C3_7 H1_7 1_555 1_555
C4_7 C3_7 1_555 1_555
H2_7 C4_7 1_555 1_555
C6_7 C4_7 1_555 1_555
C7_7 O12_3 1_555 1_555
H15_7 C16_7 1_555 1_555
C2_7 C7_7 1_555 1_555
O10_6 C12_7 1_555 1_555
O9_6 C1_8 1_555 1_555
O15_6 C7_8 1_555 1_555
O4_8 Zn5 1_555 1_555
N1_8 C8_8 1_555 1_555
C1_8 C2_8 1_555 1_555
C2_8 C3_8 1_555 1_555
C3_8 H1_8 1_555 1_555
C4_8 C3_8 1_555 1_555
H2_8 C4_8 1_555 1_555
C6_8 C4_8 1_555 1_555
C7_8 O12 1_555 1_555
C8_8 O4_8 1_555 1_555
C9_8 C8_8 1_555 1_555
H4_8 C9_8 1_555 1_555
H5_8 C9_8 1_555 1_555
H6_8 C9_8 1_555 1_555
C10_6 N1_8 1_555 1_555
H7_8 C10_6 1_555 1_555
H8_8 C10_6 1_555 1_555
H9_6 C10_6 1_555 1_555
C11_8 N1_8 1_555 1_555
H10_8 C11_8 1_555 1_555
H11_8 C11_8 1_555 1_555
H12_8 C11_8 1_555 1_555
H15_8 C16_8 1_555 1_555
C2_8 C7_8 1_555 1_555
H3_8 C5_8 1_555 1_555
O10_4 C12_8 1_555 1_555
O14_3 C18_8 1_555 1_555
O7_8 C18_8 1_555 1_555
C12_8 C13_8 1_555 1_555
C13_8 C14_8 1_555 1_555
C14_8 H13_8 1_555 1_555
C15_8 C14_8 1_555 1_555
H14_8 C15_8 1_555 1_555
C18_8 C13_8 1_555 1_555
Zn8_3 O7_8 1_555 1_555
O8_8 Zn8_3 1_555 1_555
H17_8 C20_8 1_555 1_555
H18_8 C20_8 1_555 1_555
C15_8 C17_8 1_555 1_555
N2_8 C19_8 1_555 1_555
C21_6 N2_8 1_555 1_555
H19_8 C21_6 1_555 1_555
H20_8 C21_6 1_555 1_555
H21_6 C21_6 1_555 1_555
C22_8 N2_8 1_555 1_555
H22_8 C22_8 1_555 1_555
H23_8 C22_8 1_555 1_555
H24_8 C22_8 1_555 1_555
O15_4 C7_9 1_555 1_555
C2_9 C3_9 1_555 1_555
C3_9 H1_9 1_555 1_555
C4_9 C3_9 1_555 1_555
H2_9 C4_9 1_555 1_555
C6_9 C4_9 1_555 1_555
C7_9 O12_2 1_555 1_555
H15_9 C16_9 1_555 1_555
C2_9 C7_9 1_555 1_555
O10_5 C12_9 1_555 1_555
O9_4 C1_9 1_555 1_555
O4_9 Zn5_2 1_555 1_555
N1_9 C8_9 1_555 1_555
C8_9 O4_9 1_555 1_555
C9_9 C8_9 1_555 1_555
H4_9 C9_9 1_555 1_555
H5_9 C9_9 1_555 1_555
H6_9 C9_9 1_555 1_555
C10_7 N1_9 1_555 1_555
H7_9 C10_7 1_555 1_555
H8_9 C10_7 1_555 1_555
H9_7 C10_7 1_555 1_555
C11_9 N1_9 1_555 1_555
H10_9 C11_9 1_555 1_555
H11_9 C11_9 1_555 1_555
H12_9 C11_9 1_555 1_555
H3_9 C5_9 1_555 1_555
O14 C18_9 1_555 1_555
O7_9 C18_9 1_555 1_555
C13_9 C14_9 1_555 1_555
C14_9 H13_9 1_555 1_555
C15_9 C14_9 1_555 1_555
H14_9 C15_9 1_555 1_555
C18_9 C13_9 1_555 1_555
Zn8 O7_9 1_555 1_555
O8_9 Zn8 1_555 1_555
H17_9 C20_9 1_555 1_555
H18_9 C20_9 1_555 1_555
C15_9 C17_9 1_555 1_555
N2_9 C19_9 1_555 1_555
C21_7 N2_9 1_555 1_555
H19_9 C21_7 1_555 1_555
H20_9 C21_7 1_555 1_555
H21_7 C21_7 1_555 1_555
C22_9 N2_9 1_555 1_555
H22_9 C22_9 1_555 1_555
H23_9 C22_9 1_555 1_555
H24_9 C22_9 1_555 1_555
H21_8 C21_8 1_555 1_555
H9_8 C10_8 1_555 1_555
H21_9 C21_9 1_555 1_555
H9_9 C10_9 1_555 1_555

#END
