
###############################################################################
#
# This file contains modified crystal structure data generated from the
# MOF subset of the Cambridge Structural Database (CSD) v543 
# hosted by the Cambridge Crystallographic Data Centre (CCDC).
#
# This work is licensed under the Creative Commons
# Attribution-NonCommercial-ShareAlike 4.0 International License.
# To view a copy of this license, visit
# http://creativecommons.org/licenses/by-nc-sa/4.0/
# or send a letter to
# Creative Commons, PO Box 1866, Mountain View, CA 94042, USA.
#
# CIF created using the CSD Python API on 29 September 2022
# The structure has been converted into the P1 space group
# The structure has a 3D framework
# The original CSD entry ZEHTEP is in the orthorhombic crystal system
# The framework has been calculated to contain at least 10.0% void space
# The void calculation uses a probe of radius 1.32A, grid spacing 0.4
# The framework is charged, counterions have been retained in the structure
# H atom positions have been added when not included in the experimental data
# Generated hydrogen atom positions removed from atoms on special positions
#
###############################################################################

data_ZEHTEP
_chemical_formula_moiety         '(C332 H248 N12 O152 Yb36 16+)n'
_symmetry_cell_setting           triclinic
_symmetry_space_group_name_H-M   'P 1'
_symmetry_Int_Tables_number      1
_space_group_name_Hall           'P 1'
loop_
_symmetry_equiv_pos_site_id
_symmetry_equiv_pos_as_xyz
1 x,y,z
_cell_length_a                   20.6796(8)
_cell_length_b                   32.4900(5)
_cell_length_c                   34.0670(6)
_cell_angle_alpha                90
_cell_angle_beta                 90
_cell_angle_gamma                90
_cell_volume                     22888.9
loop_
_atom_site_label
_atom_site_type_symbol
_atom_site_fract_x
_atom_site_fract_y
_atom_site_fract_z
Yb1 Yb -0.000000 0.78715(2) 0.42092(2)
Yb2 Yb 0.09292(3) 0.84808(2) 0.500000
Yb3 Yb 0.09279(3) 0.73082(2) 0.500000
O1 O 0.0710(3) 0.74100(16) 0.39273(14)
O2 O 0.1241(3) 0.70794(17) 0.44010(13)
O3 O 0.4310(3) 0.66867(16) 0.10569(13)
O4 O 0.3732(3) 0.63231(17) 0.06231(13)
O5 O 0.0830(2) 0.78878(11) 0.46429(10)
O6 O -0.000000 0.8454(2) 0.46467(16)
O7 O -0.000000 0.73181(17) 0.46373(15)
O8 O 0.1971(5) 0.7518(3) 0.500000
O9 O 0.1962(4) 0.8244(3) 0.500000
O10 O 0.0685(6) 0.6607(2) 0.500000
O11 O 0.0772(6) 0.9161(3) 0.500000
N1 N 0.2596(5) 0.500000 0.2174(3)
C1 C 0.1076(4) 0.7128(3) 0.4049(2)
C2 C 0.1306(5) 0.6827(2) 0.3750(2)
C3 C 0.1264(6) 0.6904(3) 0.3360(3)
H1 H 0.109722 0.715419 0.327529
C4 C 0.1464(6) 0.6618(3) 0.3087(2)
H2 H 0.141540 0.667365 0.282097
C5 C 0.1740(5) 0.6243(2) 0.3206(2)
C6 C 0.1783(5) 0.6185(2) 0.3600(2)
H3 H 0.196109 0.593873 0.368906
C7 C 0.1581(5) 0.6466(2) 0.3877(2)
H4 H 0.162987 0.641224 0.414322
C8 C 0.1961(5) 0.5924(2) 0.2923(2)
C9 C 0.2284(5) 0.6041(2) 0.2577(2)
H5 H 0.236126 0.631900 0.253432
C10 C 0.2490(5) 0.5763(2) 0.2299(2)
C11 C 0.2399(5) 0.5346(2) 0.2383(2)
C12 C 0.2069(5) 0.5227(2) 0.2720(2)
C13 C 0.1851(5) 0.5507(2) 0.2998(2)
C14 C 0.2866(5) 0.5916(2) 0.19473(19)
C15 C 0.2747(5) 0.5774(3) 0.1576(2)
H6 H 0.245143 0.556280 0.153564
C16 C 0.3077(5) 0.5951(3) 0.1256(2)
H7 H 0.298132 0.586063 0.100313
C17 C 0.3523(4) 0.6244(2) 0.13046(19)
C18 C 0.3644(5) 0.6375(3) 0.1679(2)
H8 H 0.395474 0.657731 0.171877
C19 C 0.3323(5) 0.6218(3) 0.1994(2)
H9 H 0.341508 0.631729 0.224451
C20 C 0.3885(4) 0.6429(2) 0.0967(2)
C21 C 0.2229(8) 0.7904(8) 0.500000
O12 O 0.0710(3) 0.25900(16) 0.39273(14)
O13 O 0.1241(3) 0.29206(17) 0.44010(13)
O14 O 0.4310(3) 0.33133(16) 0.10569(13)
O15 O 0.3732(3) 0.36769(17) 0.06231(13)
C22 C 0.1076(4) 0.2872(3) 0.4049(2)
C23 C 0.1306(5) 0.3173(2) 0.3750(2)
C24 C 0.1264(6) 0.3096(3) 0.3360(3)
H10 H 0.109722 0.284581 0.327529
C25 C 0.1464(6) 0.3382(3) 0.3087(2)
H11 H 0.141540 0.332635 0.282097
C26 C 0.1740(5) 0.3757(2) 0.3206(2)
C27 C 0.1783(5) 0.3815(2) 0.3600(2)
H12 H 0.196109 0.406127 0.368906
C28 C 0.1581(5) 0.3534(2) 0.3877(2)
H13 H 0.162987 0.358776 0.414322
C29 C 0.1961(5) 0.4076(2) 0.2923(2)
C30 C 0.2284(5) 0.3959(2) 0.2577(2)
H14 H 0.236126 0.368100 0.253432
C31 C 0.2490(5) 0.4237(2) 0.2299(2)
C32 C 0.2399(5) 0.4654(2) 0.2383(2)
C33 C 0.2069(5) 0.4773(2) 0.2720(2)
C34 C 0.1851(5) 0.4493(2) 0.2998(2)
C35 C 0.2866(5) 0.4084(2) 0.19473(19)
C36 C 0.2747(5) 0.4226(3) 0.1576(2)
H15 H 0.245143 0.443720 0.153564
C37 C 0.3077(5) 0.4049(3) 0.1256(2)
H16 H 0.298132 0.413937 0.100313
C38 C 0.3523(4) 0.3756(2) 0.13046(19)
C39 C 0.3644(5) 0.3625(3) 0.1679(2)
H17 H 0.395474 0.342269 0.171877
C40 C 0.3323(5) 0.3782(3) 0.1994(2)
H18 H 0.341508 0.368271 0.224451
C41 C 0.3885(4) 0.3571(2) 0.0967(2)
Yb4 Yb -0.000000 0.21285(2) 0.42092(2)
Yb5 Yb 0.500000 0.28715(2) 0.07908(2)
Yb6 Yb 0.500000 0.71285(2) 0.07908(2)
Yb8 Yb 0.40708(3) 0.65192(2) 0.000000
Yb9 Yb 0.40708(3) 0.34808(2) 0.000000
Yb11 Yb 0.09279(3) 0.26918(2) 0.500000
O18 O 0.1241(3) 0.70794(17) 0.55990(13)
O20 O 0.0690(3) 0.83133(16) 0.39431(13)
O21 O 0.1268(3) 0.86769(17) 0.56231(13)
O22 O 0.1268(3) 0.86769(17) 0.43769(13)
O23 O 0.0830(2) 0.78878(11) 0.53571(10)
O24 O 0.000000 0.8454(2) 0.53533(16)
O25 O -0.000000 0.73181(17) 0.53627(15)
H19 H 0.16045 0.459417 0.326349
H24 H 0.283976 0.5 0.19154
H25 H 0.16045 0.540583 0.326349
H26 H 0.275536 0.791427 0.5
Yb8_2 Yb 0.40708(3) 0.65192(2) 1.000000
Yb9_2 Yb 0.40708(3) 0.34808(2) 1.000000
Yb1_2 Yb 1.000000 0.78715(2) 0.42092(2)
O6_2 O 1.000000 0.8454(2) 0.46467(16)
O7_2 O 1.000000 0.73181(17) 0.46373(15)
O16 O 0.9170(2) 0.78878(11) 0.46429(10)
Yb4_2 Yb 1.000000 0.21285(2) 0.42092(2)
Yb7 Yb 0.90708(3) 0.84808(2) 0.500000
Yb10 Yb 0.90721(3) 0.73082(2) 0.500000
O17 O 0.9290(3) 0.74100(16) 0.39273(14)
O19 O 0.9310(3) 0.83133(16) 0.39431(13)
O24_2 O 1.000000 0.8454(2) 0.53533(16)
O25_2 O 1.000000 0.73181(17) 0.53627(15)
O6_3 O 0.000000 0.1546(2) 0.46467(16)
O7_3 O 0.000000 0.26819(17) 0.46373(15)
O16_2 O 0.0830(2) 0.21122(11) 0.46429(10)
Yb7_2 Yb 0.09292(3) 0.15192(2) 0.500000
O19_2 O 0.0690(3) 0.16867(16) 0.39431(13)
O24_3 O -0.000000 0.1546(2) 0.53533(16)
O25_3 O -0.000000 0.26819(17) 0.53627(15)
Yb2_2 Yb 0.90708(3) 0.15192(2) 0.500000
Yb3_2 Yb 0.90721(3) 0.26918(2) 0.500000
O1_2 O 0.9290(3) 0.25900(16) 0.39273(14)
O2_2 O 0.8759(3) 0.29206(17) 0.44010(13)
O3_2 O 0.5690(3) 0.33133(16) 0.10569(13)
O4_2 O 0.6268(3) 0.36769(17) 0.06231(13)
O5_2 O 0.9170(2) 0.21122(11) 0.46429(10)
O6_4 O 1.000000 0.1546(2) 0.46467(16)
O7_4 O 1.000000 0.26819(17) 0.46373(15)
O8_2 O 0.8029(5) 0.2482(3) 0.500000
O9_2 O 0.8038(4) 0.1756(3) 0.500000
O10_2 O 0.9315(6) 0.3393(2) 0.500000
O11_2 O 0.9228(6) 0.0839(3) 0.500000
N1_2 N 0.7404(5) 0.500000 0.2174(3)
C1_2 C 0.8924(4) 0.2872(3) 0.4049(2)
C2_2 C 0.8694(5) 0.3173(2) 0.3750(2)
C3_2 C 0.8736(6) 0.3096(3) 0.3360(3)
H1_2 H 0.890278 0.284581 0.327529
C4_2 C 0.8536(6) 0.3382(3) 0.3087(2)
H2_2 H 0.858460 0.332635 0.282097
C5_2 C 0.8260(5) 0.3757(2) 0.3206(2)
C6_2 C 0.8217(5) 0.3815(2) 0.3600(2)
H3_2 H 0.803891 0.406127 0.368906
C7_2 C 0.8419(5) 0.3534(2) 0.3877(2)
H4_2 H 0.837013 0.358776 0.414322
C8_2 C 0.8039(5) 0.4076(2) 0.2923(2)
C9_2 C 0.7716(5) 0.3959(2) 0.2577(2)
H5_2 H 0.763874 0.368100 0.253432
C10_2 C 0.7510(5) 0.4237(2) 0.2299(2)
C11_2 C 0.7601(5) 0.4654(2) 0.2383(2)
C12_2 C 0.7931(5) 0.4773(2) 0.2720(2)
C13_2 C 0.8149(5) 0.4493(2) 0.2998(2)
C14_2 C 0.7134(5) 0.4084(2) 0.19473(19)
C15_2 C 0.7253(5) 0.4226(3) 0.1576(2)
H6_2 H 0.754857 0.443720 0.153564
C16_2 C 0.6923(5) 0.4049(3) 0.1256(2)
H7_2 H 0.701868 0.413937 0.100313
C17_2 C 0.6477(4) 0.3756(2) 0.13046(19)
C18_2 C 0.6356(5) 0.3625(3) 0.1679(2)
H8_2 H 0.604526 0.342269 0.171877
C19_2 C 0.6677(5) 0.3782(3) 0.1994(2)
H9_2 H 0.658492 0.368271 0.224451
C20_2 C 0.6115(4) 0.3571(2) 0.0967(2)
C21_2 C 0.7771(8) 0.2096(8) 0.500000
O13_2 O 0.8759(3) 0.70794(17) 0.44010(13)
O14_2 O 0.5690(3) 0.66867(16) 0.10569(13)
O15_2 O 0.6268(3) 0.63231(17) 0.06231(13)
C22_2 C 0.8924(4) 0.7128(3) 0.4049(2)
C23_2 C 0.8694(5) 0.6827(2) 0.3750(2)
C24_2 C 0.8736(6) 0.6904(3) 0.3360(3)
H10_2 H 0.890278 0.715419 0.327529
C25_2 C 0.8536(6) 0.6618(3) 0.3087(2)
H11_2 H 0.858460 0.667365 0.282097
C26_2 C 0.8260(5) 0.6243(2) 0.3206(2)
C27_2 C 0.8217(5) 0.6185(2) 0.3600(2)
H12_2 H 0.803891 0.593873 0.368906
C28_2 C 0.8419(5) 0.6466(2) 0.3877(2)
H13_2 H 0.837013 0.641224 0.414322
C29_2 C 0.8039(5) 0.5924(2) 0.2923(2)
C30_2 C 0.7716(5) 0.6041(2) 0.2577(2)
H14_2 H 0.763874 0.631900 0.253432
C31_2 C 0.7510(5) 0.5763(2) 0.2299(2)
C32_2 C 0.7601(5) 0.5346(2) 0.2383(2)
C33_2 C 0.7931(5) 0.5227(2) 0.2720(2)
C34_2 C 0.8149(5) 0.5507(2) 0.2998(2)
C35_2 C 0.7134(5) 0.5916(2) 0.19473(19)
C36_2 C 0.7253(5) 0.5774(3) 0.1576(2)
H15_2 H 0.754857 0.556280 0.153564
C37_2 C 0.6923(5) 0.5951(3) 0.1256(2)
H16_2 H 0.701868 0.586063 0.100313
C38_2 C 0.6477(4) 0.6244(2) 0.13046(19)
C39_2 C 0.6356(5) 0.6375(3) 0.1679(2)
H17_2 H 0.604526 0.657731 0.171877
C40_2 C 0.6677(5) 0.6218(3) 0.1994(2)
H18_2 H 0.658492 0.631729 0.224451
C41_2 C 0.6115(4) 0.6429(2) 0.0967(2)
Yb8_3 Yb 0.59292(3) 0.34808(2) 0.000000
Yb9_3 Yb 0.59292(3) 0.65192(2) 0.000000
O18_2 O 0.8759(3) 0.29206(17) 0.55990(13)
O20_2 O 0.9310(3) 0.16867(16) 0.39431(13)
O21_2 O 0.8732(3) 0.13231(17) 0.56231(13)
O22_2 O 0.8732(3) 0.13231(17) 0.43769(13)
O23_2 O 0.9170(2) 0.21122(11) 0.53571(10)
O24_4 O 1.000000 0.1546(2) 0.53533(16)
O25_4 O 1.000000 0.26819(17) 0.53627(15)
H19_2 H 0.83955 0.540583 0.326349
H24_2 H 0.716024 0.5 0.19154
H25_2 H 0.83955 0.459417 0.326349
H26_2 H 0.724464 0.208573 0.5
Yb8_4 Yb 0.59292(3) 0.34808(2) 1.000000
Yb9_4 Yb 0.59292(3) 0.65192(2) 1.000000
Yb1_3 Yb -0.000000 0.78715(2) 0.57908(2)
Yb4_3 Yb 0.000000 0.21285(2) 0.57908(2)
O17_2 O 0.0710(3) 0.74100(16) 0.60727(14)
O19_3 O 0.0690(3) 0.83133(16) 0.60569(13)
Yb1_4 Yb 1.000000 0.78715(2) 0.57908(2)
O1_3 O 0.9290(3) 0.74100(16) 0.60727(14)
O2_3 O 0.8759(3) 0.70794(17) 0.55990(13)
O3_3 O 0.5690(3) 0.66867(16) 0.89431(13)
O4_3 O 0.6268(3) 0.63231(17) 0.93769(13)
O5_3 O 0.9170(2) 0.78878(11) 0.53571(10)
O8_3 O 0.8029(5) 0.7518(3) 0.500000
O9_3 O 0.8038(4) 0.8244(3) 0.500000
O10_3 O 0.9315(6) 0.6607(2) 0.500000
O11_3 O 0.9228(6) 0.9161(3) 0.500000
N1_3 N 0.7404(5) 0.500000 0.7826(3)
C1_3 C 0.8924(4) 0.7128(3) 0.5951(2)
C2_3 C 0.8694(5) 0.6827(2) 0.6250(2)
C3_3 C 0.8736(6) 0.6904(3) 0.6640(3)
H1_3 H 0.890278 0.715419 0.672471
C4_3 C 0.8536(6) 0.6618(3) 0.6913(2)
H2_3 H 0.858460 0.667365 0.717903
C5_3 C 0.8260(5) 0.6243(2) 0.6794(2)
C6_3 C 0.8217(5) 0.6185(2) 0.6400(2)
H3_3 H 0.803891 0.593873 0.631094
C7_3 C 0.8419(5) 0.6466(2) 0.6123(2)
H4_3 H 0.837013 0.641224 0.585678
C8_3 C 0.8039(5) 0.5924(2) 0.7077(2)
C9_3 C 0.7716(5) 0.6041(2) 0.7423(2)
H5_3 H 0.763874 0.631900 0.746568
C10_3 C 0.7510(5) 0.5763(2) 0.7701(2)
C11_3 C 0.7601(5) 0.5346(2) 0.7617(2)
C12_3 C 0.7931(5) 0.5227(2) 0.7280(2)
C13_3 C 0.8149(5) 0.5507(2) 0.7002(2)
C14_3 C 0.7134(5) 0.5916(2) 0.80527(19)
C15_3 C 0.7253(5) 0.5774(3) 0.8424(2)
H6_3 H 0.754857 0.556280 0.846436
C16_3 C 0.6923(5) 0.5951(3) 0.8744(2)
H7_3 H 0.701868 0.586063 0.899687
C17_3 C 0.6477(4) 0.6244(2) 0.86954(19)
C18_3 C 0.6356(5) 0.6375(3) 0.8321(2)
H8_3 H 0.604526 0.657731 0.828123
C19_3 C 0.6677(5) 0.6218(3) 0.8006(2)
H9_3 H 0.658492 0.631729 0.775549
C20_3 C 0.6115(4) 0.6429(2) 0.9033(2)
C21_3 C 0.7771(8) 0.7904(8) 0.500000
O12_2 O 0.9290(3) 0.25900(16) 0.60727(14)
O14_3 O 0.5690(3) 0.33133(16) 0.89431(13)
O15_3 O 0.6268(3) 0.36769(17) 0.93769(13)
C22_3 C 0.8924(4) 0.2872(3) 0.5951(2)
C23_3 C 0.8694(5) 0.3173(2) 0.6250(2)
C24_3 C 0.8736(6) 0.3096(3) 0.6640(3)
H10_3 H 0.890278 0.284581 0.672471
C25_3 C 0.8536(6) 0.3382(3) 0.6913(2)
H11_3 H 0.858460 0.332635 0.717903
C26_3 C 0.8260(5) 0.3757(2) 0.6794(2)
C27_3 C 0.8217(5) 0.3815(2) 0.6400(2)
H12_3 H 0.803891 0.406127 0.631094
C28_3 C 0.8419(5) 0.3534(2) 0.6123(2)
H13_3 H 0.837013 0.358776 0.585678
C29_3 C 0.8039(5) 0.4076(2) 0.7077(2)
C30_3 C 0.7716(5) 0.3959(2) 0.7423(2)
H14_3 H 0.763874 0.368100 0.746568
C31_3 C 0.7510(5) 0.4237(2) 0.7701(2)
C32_3 C 0.7601(5) 0.4654(2) 0.7617(2)
C33_3 C 0.7931(5) 0.4773(2) 0.7280(2)
C34_3 C 0.8149(5) 0.4493(2) 0.7002(2)
C35_3 C 0.7134(5) 0.4084(2) 0.80527(19)
C36_3 C 0.7253(5) 0.4226(3) 0.8424(2)
H15_3 H 0.754857 0.443720 0.846436
C37_3 C 0.6923(5) 0.4049(3) 0.8744(2)
H16_3 H 0.701868 0.413937 0.899687
C38_3 C 0.6477(4) 0.3756(2) 0.86954(19)
C39_3 C 0.6356(5) 0.3625(3) 0.8321(2)
H17_3 H 0.604526 0.342269 0.828123
C40_3 C 0.6677(5) 0.3782(3) 0.8006(2)
H18_3 H 0.658492 0.368271 0.775549
C41_3 C 0.6115(4) 0.3571(2) 0.9033(2)
Yb4_4 Yb 1.000000 0.21285(2) 0.57908(2)
Yb5_2 Yb 0.500000 0.28715(2) 0.92092(2)
Yb6_2 Yb 0.500000 0.71285(2) 0.92092(2)
O20_3 O 0.9310(3) 0.83133(16) 0.60569(13)
O21_3 O 0.8732(3) 0.86769(17) 0.43769(13)
O22_3 O 0.8732(3) 0.86769(17) 0.56231(13)
H19_3 H 0.83955 0.459417 0.673651
H24_3 H 0.716024 0.5 0.80846
H25_3 H 0.83955 0.540583 0.673651
H26_3 H 0.724464 0.791427 0.5
O1_4 O 0.0710(3) 0.25900(16) 0.60727(14)
O2_4 O 0.1241(3) 0.29206(17) 0.55990(13)
O3_4 O 0.4310(3) 0.33133(16) 0.89431(13)
O4_4 O 0.3732(3) 0.36769(17) 0.93769(13)
O5_4 O 0.0830(2) 0.21122(11) 0.53571(10)
O8_4 O 0.1971(5) 0.2482(3) 0.500000
O9_4 O 0.1962(4) 0.1756(3) 0.500000
O10_4 O 0.0685(6) 0.3393(2) 0.500000
O11_4 O 0.0772(6) 0.0839(3) 0.500000
N1_4 N 0.2596(5) 0.500000 0.7826(3)
C1_4 C 0.1076(4) 0.2872(3) 0.5951(2)
C2_4 C 0.1306(5) 0.3173(2) 0.6250(2)
C3_4 C 0.1264(6) 0.3096(3) 0.6640(3)
H1_4 H 0.109722 0.284581 0.672471
C4_4 C 0.1464(6) 0.3382(3) 0.6913(2)
H2_4 H 0.141540 0.332635 0.717903
C5_4 C 0.1740(5) 0.3757(2) 0.6794(2)
C6_4 C 0.1783(5) 0.3815(2) 0.6400(2)
H3_4 H 0.196109 0.406127 0.631094
C7_4 C 0.1581(5) 0.3534(2) 0.6123(2)
H4_4 H 0.162987 0.358776 0.585678
C8_4 C 0.1961(5) 0.4076(2) 0.7077(2)
C9_4 C 0.2284(5) 0.3959(2) 0.7423(2)
H5_4 H 0.236126 0.368100 0.746568
C10_4 C 0.2490(5) 0.4237(2) 0.7701(2)
C11_4 C 0.2399(5) 0.4654(2) 0.7617(2)
C12_4 C 0.2069(5) 0.4773(2) 0.7280(2)
C13_4 C 0.1851(5) 0.4493(2) 0.7002(2)
C14_4 C 0.2866(5) 0.4084(2) 0.80527(19)
C15_4 C 0.2747(5) 0.4226(3) 0.8424(2)
H6_4 H 0.245143 0.443720 0.846436
C16_4 C 0.3077(5) 0.4049(3) 0.8744(2)
H7_4 H 0.298132 0.413937 0.899687
C17_4 C 0.3523(4) 0.3756(2) 0.86954(19)
C18_4 C 0.3644(5) 0.3625(3) 0.8321(2)
H8_4 H 0.395474 0.342269 0.828123
C19_4 C 0.3323(5) 0.3782(3) 0.8006(2)
H9_4 H 0.341508 0.368271 0.775549
C20_4 C 0.3885(4) 0.3571(2) 0.9033(2)
C21_4 C 0.2229(8) 0.2096(8) 0.500000
O14_4 O 0.4310(3) 0.66867(16) 0.89431(13)
O15_4 O 0.3732(3) 0.63231(17) 0.93769(13)
C22_4 C 0.1076(4) 0.7128(3) 0.5951(2)
C23_4 C 0.1306(5) 0.6827(2) 0.6250(2)
C24_4 C 0.1264(6) 0.6904(3) 0.6640(3)
H10_4 H 0.109722 0.715419 0.672471
C25_4 C 0.1464(6) 0.6618(3) 0.6913(2)
H11_4 H 0.141540 0.667365 0.717903
C26_4 C 0.1740(5) 0.6243(2) 0.6794(2)
C27_4 C 0.1783(5) 0.6185(2) 0.6400(2)
H12_4 H 0.196109 0.593873 0.631094
C28_4 C 0.1581(5) 0.6466(2) 0.6123(2)
H13_4 H 0.162987 0.641224 0.585678
C29_4 C 0.1961(5) 0.5924(2) 0.7077(2)
C30_4 C 0.2284(5) 0.6041(2) 0.7423(2)
H14_4 H 0.236126 0.631900 0.746568
C31_4 C 0.2490(5) 0.5763(2) 0.7701(2)
C32_4 C 0.2399(5) 0.5346(2) 0.7617(2)
C33_4 C 0.2069(5) 0.5227(2) 0.7280(2)
C34_4 C 0.1851(5) 0.5507(2) 0.7002(2)
C35_4 C 0.2866(5) 0.5916(2) 0.80527(19)
C36_4 C 0.2747(5) 0.5774(3) 0.8424(2)
H15_4 H 0.245143 0.556280 0.846436
C37_4 C 0.3077(5) 0.5951(3) 0.8744(2)
H16_4 H 0.298132 0.586063 0.899687
C38_4 C 0.3523(4) 0.6244(2) 0.86954(19)
C39_4 C 0.3644(5) 0.6375(3) 0.8321(2)
H17_4 H 0.395474 0.657731 0.828123
C40_4 C 0.3323(5) 0.6218(3) 0.8006(2)
H18_4 H 0.341508 0.631729 0.775549
C41_4 C 0.3885(4) 0.6429(2) 0.9033(2)
O20_4 O 0.0690(3) 0.16867(16) 0.60569(13)
O21_4 O 0.1268(3) 0.13231(17) 0.43769(13)
O22_4 O 0.1268(3) 0.13231(17) 0.56231(13)
H19_4 H 0.16045 0.540583 0.673651
H24_4 H 0.283976 0.5 0.80846
H25_4 H 0.16045 0.459417 0.673651
H26_4 H 0.275536 0.208573 0.5
O19_4 O 0.9310(3) 0.16867(16) 0.60569(13)
Yb3_3 Yb 0.59279(3) 0.23082(2) 0.000000
O8_5 O 0.6971(5) 0.2518(3) 0.000000
O9_5 O 0.6962(4) 0.3244(3) 0.000000
O10_5 O 0.5685(6) 0.1607(2) 0.000000
O11_5 O 0.5772(6) 0.4161(3) 0.000000
C21_5 C 0.7229(8) 0.2904(8) 0.000000
Yb10_2 Yb 0.40721(3) 0.23082(2) 0.000000
O18_3 O 0.6241(3) 0.20794(17) 0.05990(13)
O23_3 O 0.5830(2) 0.28878(11) 0.03571(10)
O24_5 O 0.500000 0.3454(2) 0.03533(16)
O25_5 O 0.500000 0.23181(17) 0.03627(15)
H21 H 0.591409 0.427728 0.0255394
H23 H 0.549051 0.152997 0.025618
H26_5 H 0.775536 0.291427 0
Yb3_4 Yb 0.59279(3) 0.23082(2) 1.000000
O1_5 O 0.5710(3) 0.24100(16) 0.89273(14)
O2_5 O 0.6241(3) 0.20794(17) 0.94010(13)
O5_5 O 0.5830(2) 0.28878(11) 0.96429(10)
O6_5 O 0.500000 0.3454(2) 0.96467(16)
O7_5 O 0.500000 0.23181(17) 0.96373(15)
O8_6 O 0.6971(5) 0.2518(3) 1.000000
O9_6 O 0.6962(4) 0.3244(3) 1.000000
O10_6 O 0.5685(6) 0.1607(2) 1.000000
O11_6 O 0.5772(6) 0.4161(3) 1.000000
N1_5 N 0.7596(5) 0.000000 0.7174(3)
C1_5 C 0.6076(4) 0.2128(3) 0.9049(2)
C2_5 C 0.6306(5) 0.1827(2) 0.8750(2)
C3_5 C 0.6264(6) 0.1904(3) 0.8360(3)
H1_5 H 0.609722 0.215419 0.827529
C4_5 C 0.6464(6) 0.1618(3) 0.8087(2)
H2_5 H 0.641540 0.167365 0.782097
C5_5 C 0.6740(5) 0.1243(2) 0.8206(2)
C6_5 C 0.6783(5) 0.1185(2) 0.8600(2)
H3_5 H 0.696109 0.093873 0.868906
C7_5 C 0.6581(5) 0.1466(2) 0.8877(2)
H4_5 H 0.662987 0.141224 0.914322
C8_5 C 0.6961(5) 0.0924(2) 0.7923(2)
C9_5 C 0.7284(5) 0.1041(2) 0.7577(2)
H5_5 H 0.736126 0.131900 0.753432
C10_5 C 0.7490(5) 0.0763(2) 0.7299(2)
C11_5 C 0.7399(5) 0.0346(2) 0.7383(2)
C12_5 C 0.7069(5) 0.0227(2) 0.7720(2)
C13_5 C 0.6851(5) 0.0507(2) 0.7998(2)
C14_5 C 0.7866(5) 0.0916(2) 0.69473(19)
C15_5 C 0.7747(5) 0.0774(3) 0.6576(2)
H6_5 H 0.745143 0.056280 0.653564
C16_5 C 0.8077(5) 0.0951(3) 0.6256(2)
H7_5 H 0.798132 0.086063 0.600313
C17_5 C 0.8523(4) 0.1244(2) 0.63046(19)
C18_5 C 0.8644(5) 0.1375(3) 0.6679(2)
H8_5 H 0.895474 0.157731 0.671877
C19_5 C 0.8323(5) 0.1218(3) 0.6994(2)
H9_5 H 0.841508 0.131729 0.724451
C20_5 C 0.8885(4) 0.1429(2) 0.5967(2)
C21_6 C 0.7229(8) 0.2904(8) 1.000000
O16_3 O 0.4170(2) 0.28878(11) 0.96429(10)
Yb10_3 Yb 0.40721(3) 0.23082(2) 1.000000
O17_3 O 0.4290(3) 0.24100(16) 0.89273(14)
H20 H 0.530553 0.42203 0.996018
H22 H 0.608746 0.14462 0.995806
H24_5 H 0.783976 1.11022e-16 0.69154
H25_5 H 0.66045 0.0405827 0.826349
H26_6 H 0.775536 0.291427 1
Yb11_2 Yb 0.59279(3) 0.76918(2) 0.000000
N1_6 N 0.7596(5) 1.000000 0.7174(3)
O12_3 O 0.5710(3) 0.75900(16) 0.89273(14)
O13_3 O 0.6241(3) 0.79206(17) 0.94010(13)
C22_5 C 0.6076(4) 0.7872(3) 0.9049(2)
C23_5 C 0.6306(5) 0.8173(2) 0.8750(2)
C24_5 C 0.6264(6) 0.8096(3) 0.8360(3)
H10_5 H 0.609722 0.784581 0.827529
C25_5 C 0.6464(6) 0.8382(3) 0.8087(2)
H11_5 H 0.641540 0.832635 0.782097
C26_5 C 0.6740(5) 0.8757(2) 0.8206(2)
C27_5 C 0.6783(5) 0.8815(2) 0.8600(2)
H12_5 H 0.696109 0.906127 0.868906
C28_5 C 0.6581(5) 0.8534(2) 0.8877(2)
H13_5 H 0.662987 0.858776 0.914322
C29_5 C 0.6961(5) 0.9076(2) 0.7923(2)
C30_5 C 0.7284(5) 0.8959(2) 0.7577(2)
H14_5 H 0.736126 0.868100 0.753432
C31_5 C 0.7490(5) 0.9237(2) 0.7299(2)
C32_5 C 0.7399(5) 0.9654(2) 0.7383(2)
C33_5 C 0.7069(5) 0.9773(2) 0.7720(2)
C34_5 C 0.6851(5) 0.9493(2) 0.7998(2)
C35_5 C 0.7866(5) 0.9084(2) 0.69473(19)
C36_5 C 0.7747(5) 0.9226(3) 0.6576(2)
H15_5 H 0.745143 0.943720 0.653564
C37_5 C 0.8077(5) 0.9049(3) 0.6256(2)
H16_5 H 0.798132 0.913937 0.600313
C38_5 C 0.8523(4) 0.8756(2) 0.63046(19)
C39_5 C 0.8644(5) 0.8625(3) 0.6679(2)
H17_5 H 0.895474 0.842269 0.671877
C40_5 C 0.8323(5) 0.8782(3) 0.6994(2)
H18_5 H 0.841508 0.868271 0.724451
C41_5 C 0.8885(4) 0.8571(2) 0.5967(2)
Yb11_3 Yb 0.59279(3) 0.76918(2) 1.000000
H19_5 H 0.66045 0.959417 0.826349
H24_6 H 0.783976 1 0.69154
N1_7 N 0.2404(5) -0.000000 0.7174(3)
O13_4 O 0.3759(3) 0.20794(17) 0.94010(13)
C22_6 C 0.3924(4) 0.2128(3) 0.9049(2)
C23_6 C 0.3694(5) 0.1827(2) 0.8750(2)
C24_6 C 0.3736(6) 0.1904(3) 0.8360(3)
H10_6 H 0.390278 0.215419 0.827529
C25_6 C 0.3536(6) 0.1618(3) 0.8087(2)
H11_6 H 0.358460 0.167365 0.782097
C26_6 C 0.3260(5) 0.1243(2) 0.8206(2)
C27_6 C 0.3217(5) 0.1185(2) 0.8600(2)
H12_6 H 0.303891 0.093873 0.868906
C28_6 C 0.3419(5) 0.1466(2) 0.8877(2)
H13_6 H 0.337013 0.141224 0.914322
C29_6 C 0.3039(5) 0.0924(2) 0.7923(2)
C30_6 C 0.2716(5) 0.1041(2) 0.7577(2)
H14_6 H 0.263874 0.131900 0.753432
C31_6 C 0.2510(5) 0.0763(2) 0.7299(2)
C32_6 C 0.2601(5) 0.0346(2) 0.7383(2)
C33_6 C 0.2931(5) 0.0227(2) 0.7720(2)
C34_6 C 0.3149(5) 0.0507(2) 0.7998(2)
C35_6 C 0.2134(5) 0.0916(2) 0.69473(19)
C36_6 C 0.2253(5) 0.0774(3) 0.6576(2)
H15_6 H 0.254857 0.056280 0.653564
C37_6 C 0.1923(5) 0.0951(3) 0.6256(2)
H16_6 H 0.201868 0.086063 0.600313
C38_6 C 0.1477(4) 0.1244(2) 0.63046(19)
C39_6 C 0.1356(5) 0.1375(3) 0.6679(2)
H17_6 H 0.104526 0.157731 0.671877
C40_6 C 0.1677(5) 0.1218(3) 0.6994(2)
H18_6 H 0.158492 0.131729 0.724451
C41_6 C 0.1115(4) 0.1429(2) 0.5967(2)
H19_6 H 0.33955 0.0405827 0.826349
H24_7 H 0.216024 -1.11022e-16 0.69154
Yb3_5 Yb 0.40721(3) 0.76918(2) 0.000000
O8_7 O 0.3029(5) 0.7482(3) 0.000000
O9_7 O 0.3038(4) 0.6756(3) 0.000000
O10_7 O 0.4315(6) 0.8393(2) 0.000000
O11_7 O 0.4228(6) 0.5839(3) 0.000000
C21_7 C 0.2771(8) 0.7096(8) 0.000000
O18_4 O 0.3759(3) 0.79206(17) 0.05990(13)
O23_4 O 0.4170(2) 0.71122(11) 0.03571(10)
O24_6 O 0.500000 0.6546(2) 0.03533(16)
O25_6 O 0.500000 0.76819(17) 0.03627(15)
H21_2 H 0.408591 0.572272 0.0255394
H23_2 H 0.450949 0.847003 0.025618
H26_7 H 0.224464 0.708573 0
Yb3_6 Yb 0.40721(3) 0.76918(2) 1.000000
O1_6 O 0.4290(3) 0.75900(16) 0.89273(14)
O2_6 O 0.3759(3) 0.79206(17) 0.94010(13)
O5_6 O 0.4170(2) 0.71122(11) 0.96429(10)
O6_6 O 0.500000 0.6546(2) 0.96467(16)
O7_6 O 0.500000 0.76819(17) 0.96373(15)
O8_8 O 0.3029(5) 0.7482(3) 1.000000
O9_8 O 0.3038(4) 0.6756(3) 1.000000
O10_8 O 0.4315(6) 0.8393(2) 1.000000
O11_8 O 0.4228(6) 0.5839(3) 1.000000
N1_8 N 0.2404(5) 1.000000 0.7174(3)
C1_6 C 0.3924(4) 0.7872(3) 0.9049(2)
C2_6 C 0.3694(5) 0.8173(2) 0.8750(2)
C3_6 C 0.3736(6) 0.8096(3) 0.8360(3)
H1_6 H 0.390278 0.784581 0.827529
C4_6 C 0.3536(6) 0.8382(3) 0.8087(2)
H2_6 H 0.358460 0.832635 0.782097
C5_6 C 0.3260(5) 0.8757(2) 0.8206(2)
C6_6 C 0.3217(5) 0.8815(2) 0.8600(2)
H3_6 H 0.303891 0.906127 0.868906
C7_6 C 0.3419(5) 0.8534(2) 0.8877(2)
H4_6 H 0.337013 0.858776 0.914322
C8_6 C 0.3039(5) 0.9076(2) 0.7923(2)
C9_6 C 0.2716(5) 0.8959(2) 0.7577(2)
H5_6 H 0.263874 0.868100 0.753432
C10_6 C 0.2510(5) 0.9237(2) 0.7299(2)
C11_6 C 0.2601(5) 0.9654(2) 0.7383(2)
C12_6 C 0.2931(5) 0.9773(2) 0.7720(2)
C13_6 C 0.3149(5) 0.9493(2) 0.7998(2)
C14_6 C 0.2134(5) 0.9084(2) 0.69473(19)
C15_6 C 0.2253(5) 0.9226(3) 0.6576(2)
H6_6 H 0.254857 0.943720 0.653564
C16_6 C 0.1923(5) 0.9049(3) 0.6256(2)
H7_6 H 0.201868 0.913937 0.600313
C17_6 C 0.1477(4) 0.8756(2) 0.63046(19)
C18_6 C 0.1356(5) 0.8625(3) 0.6679(2)
H8_6 H 0.104526 0.842269 0.671877
C19_6 C 0.1677(5) 0.8782(3) 0.6994(2)
H9_6 H 0.158492 0.868271 0.724451
C20_6 C 0.1115(4) 0.8571(2) 0.5967(2)
C21_8 C 0.2771(8) 0.7096(8) 1.000000
O16_4 O 0.5830(2) 0.71122(11) 0.96429(10)
H20_2 H 0.469447 0.57797 0.996018
H22_2 H 0.391254 0.85538 0.995806
H24_8 H 0.216024 1 0.69154
H25_6 H 0.33955 0.959417 0.826349
H26_8 H 0.224464 0.708573 1
O1_7 O 0.4290(3) 0.24100(16) 0.10727(14)
O2_7 O 0.3759(3) 0.20794(17) 0.05990(13)
O5_7 O 0.4170(2) 0.28878(11) 0.03571(10)
O8_9 O 0.3029(5) 0.2518(3) 0.000000
O9_9 O 0.3038(4) 0.3244(3) 0.000000
O10_9 O 0.4315(6) 0.1607(2) 0.000000
O11_9 O 0.4228(6) 0.4161(3) 0.000000
N1_9 N 0.2404(5) 0.000000 0.2826(3)
C1_7 C 0.3924(4) 0.2128(3) 0.0951(2)
C2_7 C 0.3694(5) 0.1827(2) 0.1250(2)
C3_7 C 0.3736(6) 0.1904(3) 0.1640(3)
H1_7 H 0.390278 0.215419 0.172471
C4_7 C 0.3536(6) 0.1618(3) 0.1913(2)
H2_7 H 0.358460 0.167365 0.217903
C5_7 C 0.3260(5) 0.1243(2) 0.1794(2)
C6_7 C 0.3217(5) 0.1185(2) 0.1400(2)
H3_7 H 0.303891 0.093873 0.131094
C7_7 C 0.3419(5) 0.1466(2) 0.1123(2)
H4_7 H 0.337013 0.141224 0.085678
C8_7 C 0.3039(5) 0.0924(2) 0.2077(2)
C9_7 C 0.2716(5) 0.1041(2) 0.2423(2)
H5_7 H 0.263874 0.131900 0.246568
C10_7 C 0.2510(5) 0.0763(2) 0.2701(2)
C11_7 C 0.2601(5) 0.0346(2) 0.2617(2)
C12_7 C 0.2931(5) 0.0227(2) 0.2280(2)
C13_7 C 0.3149(5) 0.0507(2) 0.2002(2)
C14_7 C 0.2134(5) 0.0916(2) 0.30527(19)
C15_7 C 0.2253(5) 0.0774(3) 0.3424(2)
H6_7 H 0.254857 0.056280 0.346436
C16_7 C 0.1923(5) 0.0951(3) 0.3744(2)
H7_7 H 0.201868 0.086063 0.399687
C17_7 C 0.1477(4) 0.1244(2) 0.36954(19)
C18_7 C 0.1356(5) 0.1375(3) 0.3321(2)
H8_7 H 0.104526 0.157731 0.328123
C19_7 C 0.1677(5) 0.1218(3) 0.3006(2)
H9_7 H 0.158492 0.131729 0.275549
C20_7 C 0.1115(4) 0.1429(2) 0.4033(2)
C21_9 C 0.2771(8) 0.2904(8) 0.000000
O17_4 O 0.5710(3) 0.24100(16) 0.10727(14)
H20_3 H 0.469447 0.42203 0.00398194
H22_3 H 0.391254 0.14462 0.00419446
H24_9 H 0.216024 1.11022e-16 0.30846
H25_7 H 0.33955 0.0405827 0.173651
H26_9 H 0.224464 0.291427 0
O8_10 O 0.3029(5) 0.2518(3) 1.000000
O9_10 O 0.3038(4) 0.3244(3) 1.000000
O10_10 O 0.4315(6) 0.1607(2) 1.000000
O11_10 O 0.4228(6) 0.4161(3) 1.000000
C21_10 C 0.2771(8) 0.2904(8) 1.000000
H21_3 H 0.408591 0.427728 0.974461
H23_3 H 0.450949 0.152997 0.974382
H26_10 H 0.224464 0.291427 1
N1_10 N 0.2404(5) 1.000000 0.2826(3)
O12_4 O 0.4290(3) 0.75900(16) 0.10727(14)
C22_7 C 0.3924(4) 0.7872(3) 0.0951(2)
C23_7 C 0.3694(5) 0.8173(2) 0.1250(2)
C24_7 C 0.3736(6) 0.8096(3) 0.1640(3)
H10_7 H 0.390278 0.784581 0.172471
C25_7 C 0.3536(6) 0.8382(3) 0.1913(2)
H11_7 H 0.358460 0.832635 0.217903
C26_7 C 0.3260(5) 0.8757(2) 0.1794(2)
C27_7 C 0.3217(5) 0.8815(2) 0.1400(2)
H12_7 H 0.303891 0.906127 0.131094
C28_7 C 0.3419(5) 0.8534(2) 0.1123(2)
H13_7 H 0.337013 0.858776 0.085678
C29_7 C 0.3039(5) 0.9076(2) 0.2077(2)
C30_7 C 0.2716(5) 0.8959(2) 0.2423(2)
H14_7 H 0.263874 0.868100 0.246568
C31_7 C 0.2510(5) 0.9237(2) 0.2701(2)
C32_7 C 0.2601(5) 0.9654(2) 0.2617(2)
C33_7 C 0.2931(5) 0.9773(2) 0.2280(2)
C34_7 C 0.3149(5) 0.9493(2) 0.2002(2)
C35_7 C 0.2134(5) 0.9084(2) 0.30527(19)
C36_7 C 0.2253(5) 0.9226(3) 0.3424(2)
H15_7 H 0.254857 0.943720 0.346436
C37_7 C 0.1923(5) 0.9049(3) 0.3744(2)
H16_7 H 0.201868 0.913937 0.399687
C38_7 C 0.1477(4) 0.8756(2) 0.36954(19)
C39_7 C 0.1356(5) 0.8625(3) 0.3321(2)
H17_7 H 0.104526 0.842269 0.328123
C40_7 C 0.1677(5) 0.8782(3) 0.3006(2)
H18_7 H 0.158492 0.868271 0.275549
C41_7 C 0.1115(4) 0.8571(2) 0.4033(2)
H19_7 H 0.33955 0.959417 0.173651
H24_10 H 0.216024 1 0.30846
N1_11 N 0.7596(5) -0.000000 0.2826(3)
C22_8 C 0.6076(4) 0.2128(3) 0.0951(2)
C23_8 C 0.6306(5) 0.1827(2) 0.1250(2)
C24_8 C 0.6264(6) 0.1904(3) 0.1640(3)
H10_8 H 0.609722 0.215419 0.172471
C25_8 C 0.6464(6) 0.1618(3) 0.1913(2)
H11_8 H 0.641540 0.167365 0.217903
C26_8 C 0.6740(5) 0.1243(2) 0.1794(2)
C27_8 C 0.6783(5) 0.1185(2) 0.1400(2)
H12_8 H 0.696109 0.093873 0.131094
C28_8 C 0.6581(5) 0.1466(2) 0.1123(2)
H13_8 H 0.662987 0.141224 0.085678
C29_8 C 0.6961(5) 0.0924(2) 0.2077(2)
C30_8 C 0.7284(5) 0.1041(2) 0.2423(2)
H14_8 H 0.736126 0.131900 0.246568
C31_8 C 0.7490(5) 0.0763(2) 0.2701(2)
C32_8 C 0.7399(5) 0.0346(2) 0.2617(2)
C33_8 C 0.7069(5) 0.0227(2) 0.2280(2)
C34_8 C 0.6851(5) 0.0507(2) 0.2002(2)
C35_8 C 0.7866(5) 0.0916(2) 0.30527(19)
C36_8 C 0.7747(5) 0.0774(3) 0.3424(2)
H15_8 H 0.745143 0.056280 0.346436
C37_8 C 0.8077(5) 0.0951(3) 0.3744(2)
H16_8 H 0.798132 0.086063 0.399687
C38_8 C 0.8523(4) 0.1244(2) 0.36954(19)
C39_8 C 0.8644(5) 0.1375(3) 0.3321(2)
H17_8 H 0.895474 0.157731 0.328123
C40_8 C 0.8323(5) 0.1218(3) 0.3006(2)
H18_8 H 0.841508 0.131729 0.275549
C41_8 C 0.8885(4) 0.1429(2) 0.4033(2)
H19_8 H 0.66045 0.0405827 0.173651
H24_11 H 0.783976 -1.11022e-16 0.30846
O1_8 O 0.5710(3) 0.75900(16) 0.10727(14)
O2_8 O 0.6241(3) 0.79206(17) 0.05990(13)
O5_8 O 0.5830(2) 0.71122(11) 0.03571(10)
O8_11 O 0.6971(5) 0.7482(3) 0.000000
O9_11 O 0.6962(4) 0.6756(3) 0.000000
O10_11 O 0.5685(6) 0.8393(2) 0.000000
O11_11 O 0.5772(6) 0.5839(3) 0.000000
N1_12 N 0.7596(5) 1.000000 0.2826(3)
C1_8 C 0.6076(4) 0.7872(3) 0.0951(2)
C2_8 C 0.6306(5) 0.8173(2) 0.1250(2)
C3_8 C 0.6264(6) 0.8096(3) 0.1640(3)
H1_8 H 0.609722 0.784581 0.172471
C4_8 C 0.6464(6) 0.8382(3) 0.1913(2)
H2_8 H 0.641540 0.832635 0.217903
C5_8 C 0.6740(5) 0.8757(2) 0.1794(2)
C6_8 C 0.6783(5) 0.8815(2) 0.1400(2)
H3_8 H 0.696109 0.906127 0.131094
C7_8 C 0.6581(5) 0.8534(2) 0.1123(2)
H4_8 H 0.662987 0.858776 0.085678
C8_8 C 0.6961(5) 0.9076(2) 0.2077(2)
C9_8 C 0.7284(5) 0.8959(2) 0.2423(2)
H5_8 H 0.736126 0.868100 0.246568
C10_8 C 0.7490(5) 0.9237(2) 0.2701(2)
C11_8 C 0.7399(5) 0.9654(2) 0.2617(2)
C12_8 C 0.7069(5) 0.9773(2) 0.2280(2)
C13_8 C 0.6851(5) 0.9493(2) 0.2002(2)
C14_8 C 0.7866(5) 0.9084(2) 0.30527(19)
C15_8 C 0.7747(5) 0.9226(3) 0.3424(2)
H6_8 H 0.745143 0.943720 0.346436
C16_8 C 0.8077(5) 0.9049(3) 0.3744(2)
H7_8 H 0.798132 0.913937 0.399687
C17_8 C 0.8523(4) 0.8756(2) 0.36954(19)
C18_8 C 0.8644(5) 0.8625(3) 0.3321(2)
H8_8 H 0.895474 0.842269 0.328123
C19_8 C 0.8323(5) 0.8782(3) 0.3006(2)
H9_8 H 0.841508 0.868271 0.275549
C20_8 C 0.8885(4) 0.8571(2) 0.4033(2)
C21_11 C 0.7229(8) 0.7096(8) 0.000000
H20_4 H 0.530553 0.57797 0.00398194
H22_4 H 0.608746 0.85538 0.00419446
H24_12 H 0.783976 1 0.30846
H25_8 H 0.66045 0.959417 0.173651
H26_11 H 0.775536 0.708573 0
O8_12 O 0.6971(5) 0.7482(3) 1.000000
O9_12 O 0.6962(4) 0.6756(3) 1.000000
O10_12 O 0.5685(6) 0.8393(2) 1.000000
O11_12 O 0.5772(6) 0.5839(3) 1.000000
C21_12 C 0.7229(8) 0.7096(8) 1.000000
H21_4 H 0.591409 0.572272 0.974461
H23_4 H 0.549051 0.847003 0.974382
H26_12 H 0.775536 0.708573 1
H20_5 H 0.469447 0.57797 0.00398194
H22_5 H 0.391254 0.85538 0.00419446
H21_5 H 0.408591 0.572272 0.974461
H23_5 H 0.450949 0.847003 0.974382
H20_6 H 0.530553 0.42203 0.00398194
H22_6 H 0.608746 0.14462 0.00419446
H21_6 H 0.591409 0.427728 0.974461
H23_6 H 0.549051 0.152997 0.974382
H21_7 H 0.591409 0.572272 0.0255394
H23_7 H 0.549051 0.847003 0.025618
H20_7 H 0.530553 0.57797 0.996018
H22_7 H 0.608746 0.85538 0.995806
H21_8 H 0.408591 0.427728 0.0255394
H23_8 H 0.450949 0.152997 0.025618
H20_8 H 0.469447 0.42203 0.996018
H22_8 H 0.391254 0.14462 0.995806
loop_
_geom_bond_atom_site_label_1
_geom_bond_atom_site_label_2
_geom_bond_site_symmetry_1
_geom_bond_site_symmetry_2
Yb1 O1 1_555 1_555
Yb2 O5 1_555 1_555
Yb3 O2 1_555 1_555
O1 C1 1_555 1_555
O2 C1 1_555 1_555
O3 C20 1_555 1_555
O4 C20 1_555 1_555
O5 Yb1 1_555 1_555
O6 Yb1 1_555 1_555
O7 Yb1 1_555 1_555
O8 Yb3 1_555 1_555
O9 Yb2 1_555 1_555
O10 Yb3 1_555 1_555
O11 Yb2 1_555 1_555
N1 C11 1_555 1_555
C1 C2 1_555 1_555
C2 C3 1_555 1_555
C3 H1 1_555 1_555
C4 C3 1_555 1_555
H2 C4 1_555 1_555
C5 C4 1_555 1_555
C6 C5 1_555 1_555
H3 C6 1_555 1_555
C7 C2 1_555 1_555
H4 C7 1_555 1_555
C8 C5 1_555 1_555
C9 C8 1_555 1_555
H5 C9 1_555 1_555
C10 C9 1_555 1_555
C11 C10 1_555 1_555
C12 C11 1_555 1_555
C13 C8 1_555 1_555
C14 C10 1_555 1_555
C15 C14 1_555 1_555
H6 C15 1_555 1_555
C16 C15 1_555 1_555
H7 C16 1_555 1_555
C17 C16 1_555 1_555
C18 C17 1_555 1_555
H8 C18 1_555 1_555
C19 C14 1_555 1_555
H9 C19 1_555 1_555
C20 C17 1_555 1_555
C21 O8 1_555 1_555
O12 C22 1_555 1_555
O13 C22 1_555 1_555
O14 C41 1_555 1_555
O15 C41 1_555 1_555
C22 C23 1_555 1_555
C23 C24 1_555 1_555
C24 H10 1_555 1_555
C25 C24 1_555 1_555
H11 C25 1_555 1_555
C26 C25 1_555 1_555
C27 C26 1_555 1_555
H12 C27 1_555 1_555
C28 C23 1_555 1_555
H13 C28 1_555 1_555
C29 C26 1_555 1_555
C30 C29 1_555 1_555
H14 C30 1_555 1_555
C31 C30 1_555 1_555
C32 N1 1_555 1_555
C33 C12 1_555 1_555
C34 C29 1_555 1_555
C35 C31 1_555 1_555
C36 C35 1_555 1_555
H15 C36 1_555 1_555
C37 C36 1_555 1_555
H16 C37 1_555 1_555
C38 C37 1_555 1_555
C39 C38 1_555 1_555
H17 C39 1_555 1_555
C40 C35 1_555 1_555
H18 C40 1_555 1_555
C41 C38 1_555 1_555
Yb4 O12 1_555 1_555
Yb5 O14 1_555 1_555
Yb6 O3 1_555 1_555
Yb8 O4 1_555 1_555
Yb9 O15 1_555 1_555
Yb11 O13 1_555 1_555
O18 Yb3 1_555 1_555
O20 Yb1 1_555 1_555
O21 Yb2 1_555 1_555
O22 Yb2 1_555 1_555
O23 Yb2 1_555 1_555
O24 Yb2 1_555 1_555
O25 Yb3 1_555 1_555
Yb2 O6 1_555 1_555
Yb3 O5 1_555 1_555
Yb3 O7 1_555 1_555
Yb3 O23 1_555 1_555
O9 C21 1_555 1_555
C6 C7 1_555 1_555
C12 C13 1_555 1_555
C18 C19 1_555 1_555
C27 C28 1_555 1_555
C31 C32 1_555 1_555
C32 C33 1_555 1_555
C33 C34 1_555 1_555
C39 C40 1_555 1_555
C34 H19 1_555 1_555
N1 H24 1_555 1_555
C13 H25 1_555 1_555
C21 H26 1_555 1_555
O6_2 Yb1_2 1_555 1_555
O7_2 Yb1_2 1_555 1_555
O16 Yb1_2 1_555 1_555
Yb7 O6_2 1_555 1_555
Yb10 O7_2 1_555 1_555
O17 Yb1_2 1_555 1_555
O19 Yb1_2 1_555 1_555
O16 Yb7 1_555 1_555
O16 Yb10 1_555 1_555
Yb7 O24_2 1_555 1_555
Yb10 O25_2 1_555 1_555
O6_3 Yb4 1_555 1_555
O7_3 Yb4 1_555 1_555
O16_2 Yb4 1_555 1_555
Yb7_2 O6_3 1_555 1_555
Yb11 O7_3 1_555 1_555
O19_2 Yb4 1_555 1_555
O16_2 Yb7_2 1_555 1_555
O16_2 Yb11 1_555 1_555
Yb7_2 O24_3 1_555 1_555
Yb11 O25_3 1_555 1_555
Yb4_2 O1_2 1_555 1_555
Yb2_2 O5_2 1_555 1_555
Yb3_2 O2_2 1_555 1_555
O1_2 C1_2 1_555 1_555
O2_2 C1_2 1_555 1_555
O3_2 C20_2 1_555 1_555
O4_2 C20_2 1_555 1_555
O5_2 Yb4_2 1_555 1_555
O6_4 Yb4_2 1_555 1_555
O7_4 Yb4_2 1_555 1_555
O8_2 Yb3_2 1_555 1_555
O9_2 Yb2_2 1_555 1_555
O10_2 Yb3_2 1_555 1_555
O11_2 Yb2_2 1_555 1_555
N1_2 C11_2 1_555 1_555
C1_2 C2_2 1_555 1_555
C2_2 C3_2 1_555 1_555
C3_2 H1_2 1_555 1_555
C4_2 C3_2 1_555 1_555
H2_2 C4_2 1_555 1_555
C5_2 C4_2 1_555 1_555
C6_2 C5_2 1_555 1_555
H3_2 C6_2 1_555 1_555
C7_2 C2_2 1_555 1_555
H4_2 C7_2 1_555 1_555
C8_2 C5_2 1_555 1_555
C9_2 C8_2 1_555 1_555
H5_2 C9_2 1_555 1_555
C10_2 C9_2 1_555 1_555
C11_2 C10_2 1_555 1_555
C12_2 C11_2 1_555 1_555
C13_2 C8_2 1_555 1_555
C14_2 C10_2 1_555 1_555
C15_2 C14_2 1_555 1_555
H6_2 C15_2 1_555 1_555
C16_2 C15_2 1_555 1_555
H7_2 C16_2 1_555 1_555
C17_2 C16_2 1_555 1_555
C18_2 C17_2 1_555 1_555
H8_2 C18_2 1_555 1_555
C19_2 C14_2 1_555 1_555
H9_2 C19_2 1_555 1_555
C20_2 C17_2 1_555 1_555
C21_2 O8_2 1_555 1_555
O17 C22_2 1_555 1_555
O13_2 C22_2 1_555 1_555
O14_2 C41_2 1_555 1_555
O15_2 C41_2 1_555 1_555
C22_2 C23_2 1_555 1_555
C23_2 C24_2 1_555 1_555
C24_2 H10_2 1_555 1_555
C25_2 C24_2 1_555 1_555
H11_2 C25_2 1_555 1_555
C26_2 C25_2 1_555 1_555
C27_2 C26_2 1_555 1_555
H12_2 C27_2 1_555 1_555
C28_2 C23_2 1_555 1_555
H13_2 C28_2 1_555 1_555
C29_2 C26_2 1_555 1_555
C30_2 C29_2 1_555 1_555
H14_2 C30_2 1_555 1_555
C31_2 C30_2 1_555 1_555
C32_2 N1_2 1_555 1_555
C33_2 C12_2 1_555 1_555
C34_2 C29_2 1_555 1_555
C35_2 C31_2 1_555 1_555
C36_2 C35_2 1_555 1_555
H15_2 C36_2 1_555 1_555
C37_2 C36_2 1_555 1_555
H16_2 C37_2 1_555 1_555
C38_2 C37_2 1_555 1_555
C39_2 C38_2 1_555 1_555
H17_2 C39_2 1_555 1_555
C40_2 C35_2 1_555 1_555
H18_2 C40_2 1_555 1_555
C41_2 C38_2 1_555 1_555
Yb6 O14_2 1_555 1_555
Yb5 O3_2 1_555 1_555
Yb8_3 O4_2 1_555 1_555
Yb9_3 O15_2 1_555 1_555
Yb10 O13_2 1_555 1_555
O18_2 Yb3_2 1_555 1_555
O20_2 Yb4_2 1_555 1_555
O21_2 Yb2_2 1_555 1_555
O22_2 Yb2_2 1_555 1_555
O23_2 Yb2_2 1_555 1_555
O24_4 Yb2_2 1_555 1_555
O25_4 Yb3_2 1_555 1_555
Yb2_2 O6_4 1_555 1_555
Yb3_2 O5_2 1_555 1_555
Yb3_2 O7_4 1_555 1_555
Yb3_2 O23_2 1_555 1_555
O9_2 C21_2 1_555 1_555
C6_2 C7_2 1_555 1_555
C12_2 C13_2 1_555 1_555
C18_2 C19_2 1_555 1_555
C27_2 C28_2 1_555 1_555
C31_2 C32_2 1_555 1_555
C32_2 C33_2 1_555 1_555
C33_2 C34_2 1_555 1_555
C39_2 C40_2 1_555 1_555
C34_2 H19_2 1_555 1_555
N1_2 H24_2 1_555 1_555
C13_2 H25_2 1_555 1_555
C21_2 H26_2 1_555 1_555
O24 Yb1_3 1_555 1_555
O25 Yb1_3 1_555 1_555
O23 Yb1_3 1_555 1_555
O17_2 Yb1_3 1_555 1_555
O19_3 Yb1_3 1_555 1_555
Yb1_4 O1_3 1_555 1_555
Yb7 O5_3 1_555 1_555
Yb10 O2_3 1_555 1_555
O1_3 C1_3 1_555 1_555
O2_3 C1_3 1_555 1_555
O3_3 C20_3 1_555 1_555
O4_3 C20_3 1_555 1_555
O5_3 Yb1_4 1_555 1_555
O24_2 Yb1_4 1_555 1_555
O25_2 Yb1_4 1_555 1_555
O8_3 Yb10 1_555 1_555
O9_3 Yb7 1_555 1_555
O10_3 Yb10 1_555 1_555
O11_3 Yb7 1_555 1_555
N1_3 C11_3 1_555 1_555
C1_3 C2_3 1_555 1_555
C2_3 C3_3 1_555 1_555
C3_3 H1_3 1_555 1_555
C4_3 C3_3 1_555 1_555
H2_3 C4_3 1_555 1_555
C5_3 C4_3 1_555 1_555
C6_3 C5_3 1_555 1_555
H3_3 C6_3 1_555 1_555
C7_3 C2_3 1_555 1_555
H4_3 C7_3 1_555 1_555
C8_3 C5_3 1_555 1_555
C9_3 C8_3 1_555 1_555
H5_3 C9_3 1_555 1_555
C10_3 C9_3 1_555 1_555
C11_3 C10_3 1_555 1_555
C12_3 C11_3 1_555 1_555
C13_3 C8_3 1_555 1_555
C14_3 C10_3 1_555 1_555
C15_3 C14_3 1_555 1_555
H6_3 C15_3 1_555 1_555
C16_3 C15_3 1_555 1_555
H7_3 C16_3 1_555 1_555
C17_3 C16_3 1_555 1_555
C18_3 C17_3 1_555 1_555
H8_3 C18_3 1_555 1_555
C19_3 C14_3 1_555 1_555
H9_3 C19_3 1_555 1_555
C20_3 C17_3 1_555 1_555
C21_3 O8_3 1_555 1_555
O12_2 C22_3 1_555 1_555
O18_2 C22_3 1_555 1_555
O14_3 C41_3 1_555 1_555
O15_3 C41_3 1_555 1_555
C22_3 C23_3 1_555 1_555
C23_3 C24_3 1_555 1_555
C24_3 H10_3 1_555 1_555
C25_3 C24_3 1_555 1_555
H11_3 C25_3 1_555 1_555
C26_3 C25_3 1_555 1_555
C27_3 C26_3 1_555 1_555
H12_3 C27_3 1_555 1_555
C28_3 C23_3 1_555 1_555
H13_3 C28_3 1_555 1_555
C29_3 C26_3 1_555 1_555
C30_3 C29_3 1_555 1_555
H14_3 C30_3 1_555 1_555
C31_3 C30_3 1_555 1_555
C32_3 N1_3 1_555 1_555
C33_3 C12_3 1_555 1_555
C34_3 C29_3 1_555 1_555
C35_3 C31_3 1_555 1_555
C36_3 C35_3 1_555 1_555
H15_3 C36_3 1_555 1_555
C37_3 C36_3 1_555 1_555
H16_3 C37_3 1_555 1_555
C38_3 C37_3 1_555 1_555
C39_3 C38_3 1_555 1_555
H17_3 C39_3 1_555 1_555
C40_3 C35_3 1_555 1_555
H18_3 C40_3 1_555 1_555
C41_3 C38_3 1_555 1_555
Yb4_4 O12_2 1_555 1_555
Yb5_2 O14_3 1_555 1_555
Yb6_2 O3_3 1_555 1_555
Yb9_4 O4_3 1_555 1_555
Yb8_4 O15_3 1_555 1_555
O20_3 Yb1_4 1_555 1_555
O21_3 Yb7 1_555 1_555
O22_3 Yb7 1_555 1_555
Yb10 O5_3 1_555 1_555
O9_3 C21_3 1_555 1_555
C6_3 C7_3 1_555 1_555
C12_3 C13_3 1_555 1_555
C18_3 C19_3 1_555 1_555
C27_3 C28_3 1_555 1_555
C31_3 C32_3 1_555 1_555
C32_3 C33_3 1_555 1_555
C33_3 C34_3 1_555 1_555
C39_3 C40_3 1_555 1_555
C34_3 H19_3 1_555 1_555
N1_3 H24_3 1_555 1_555
C13_3 H25_3 1_555 1_555
C21_3 H26_3 1_555 1_555
Yb4_3 O1_4 1_555 1_555
Yb7_2 O5_4 1_555 1_555
Yb11 O2_4 1_555 1_555
O1_4 C1_4 1_555 1_555
O2_4 C1_4 1_555 1_555
O3_4 C20_4 1_555 1_555
O4_4 C20_4 1_555 1_555
O5_4 Yb4_3 1_555 1_555
O24_3 Yb4_3 1_555 1_555
O25_3 Yb4_3 1_555 1_555
O8_4 Yb11 1_555 1_555
O9_4 Yb7_2 1_555 1_555
O10_4 Yb11 1_555 1_555
O11_4 Yb7_2 1_555 1_555
N1_4 C11_4 1_555 1_555
C1_4 C2_4 1_555 1_555
C2_4 C3_4 1_555 1_555
C3_4 H1_4 1_555 1_555
C4_4 C3_4 1_555 1_555
H2_4 C4_4 1_555 1_555
C5_4 C4_4 1_555 1_555
C6_4 C5_4 1_555 1_555
H3_4 C6_4 1_555 1_555
C7_4 C2_4 1_555 1_555
H4_4 C7_4 1_555 1_555
C8_4 C5_4 1_555 1_555
C9_4 C8_4 1_555 1_555
H5_4 C9_4 1_555 1_555
C10_4 C9_4 1_555 1_555
C11_4 C10_4 1_555 1_555
C12_4 C11_4 1_555 1_555
C13_4 C8_4 1_555 1_555
C14_4 C10_4 1_555 1_555
C15_4 C14_4 1_555 1_555
H6_4 C15_4 1_555 1_555
C16_4 C15_4 1_555 1_555
H7_4 C16_4 1_555 1_555
C17_4 C16_4 1_555 1_555
C18_4 C17_4 1_555 1_555
H8_4 C18_4 1_555 1_555
C19_4 C14_4 1_555 1_555
H9_4 C19_4 1_555 1_555
C20_4 C17_4 1_555 1_555
C21_4 O8_4 1_555 1_555
O17_2 C22_4 1_555 1_555
O18 C22_4 1_555 1_555
O14_4 C41_4 1_555 1_555
O15_4 C41_4 1_555 1_555
C22_4 C23_4 1_555 1_555
C23_4 C24_4 1_555 1_555
C24_4 H10_4 1_555 1_555
C25_4 C24_4 1_555 1_555
H11_4 C25_4 1_555 1_555
C26_4 C25_4 1_555 1_555
C27_4 C26_4 1_555 1_555
H12_4 C27_4 1_555 1_555
C28_4 C23_4 1_555 1_555
H13_4 C28_4 1_555 1_555
C29_4 C26_4 1_555 1_555
C30_4 C29_4 1_555 1_555
H14_4 C30_4 1_555 1_555
C31_4 C30_4 1_555 1_555
C32_4 N1_4 1_555 1_555
C33_4 C12_4 1_555 1_555
C34_4 C29_4 1_555 1_555
C35_4 C31_4 1_555 1_555
C36_4 C35_4 1_555 1_555
H15_4 C36_4 1_555 1_555
C37_4 C36_4 1_555 1_555
H16_4 C37_4 1_555 1_555
C38_4 C37_4 1_555 1_555
C39_4 C38_4 1_555 1_555
H17_4 C39_4 1_555 1_555
C40_4 C35_4 1_555 1_555
H18_4 C40_4 1_555 1_555
C41_4 C38_4 1_555 1_555
Yb6_2 O14_4 1_555 1_555
Yb5_2 O3_4 1_555 1_555
Yb9_2 O4_4 1_555 1_555
Yb8_2 O15_4 1_555 1_555
O20_4 Yb4_3 1_555 1_555
O21_4 Yb7_2 1_555 1_555
O22_4 Yb7_2 1_555 1_555
Yb11 O5_4 1_555 1_555
O9_4 C21_4 1_555 1_555
C6_4 C7_4 1_555 1_555
C12_4 C13_4 1_555 1_555
C18_4 C19_4 1_555 1_555
C27_4 C28_4 1_555 1_555
C31_4 C32_4 1_555 1_555
C32_4 C33_4 1_555 1_555
C33_4 C34_4 1_555 1_555
C39_4 C40_4 1_555 1_555
C34_4 H19_4 1_555 1_555
N1_4 H24_4 1_555 1_555
C13_4 H25_4 1_555 1_555
C21_4 H26_4 1_555 1_555
O24_4 Yb4_4 1_555 1_555
O25_4 Yb4_4 1_555 1_555
O23_2 Yb4_4 1_555 1_555
O19_4 Yb4_4 1_555 1_555
O8_5 Yb3_3 1_555 1_555
O9_5 Yb8_3 1_555 1_555
O10_5 Yb3_3 1_555 1_555
O11_5 Yb8_3 1_555 1_555
C21_5 O8_5 1_555 1_555
O18_3 Yb3_3 1_555 1_555
O23_3 Yb8_3 1_555 1_555
O24_5 Yb8_3 1_555 1_555
O25_5 Yb3_3 1_555 1_555
Yb3_3 O23_3 1_555 1_555
O9_5 C21_5 1_555 1_555
Yb9 O24_5 1_555 1_555
Yb10_2 O25_5 1_555 1_555
O11_5 H21 1_555 1_555
O10_5 H23 1_555 1_555
C21_5 H26_5 1_555 1_555
Yb5_2 O1_5 1_555 1_555
Yb8_4 O5_5 1_555 1_555
Yb3_4 O2_5 1_555 1_555
O1_5 C1_5 1_555 1_555
O2_5 C1_5 1_555 1_555
O19_4 C20_5 1_555 1_555
O21_2 C20_5 1_555 1_555
O5_5 Yb5_2 1_555 1_555
O6_5 Yb5_2 1_555 1_555
O7_5 Yb5_2 1_555 1_555
O8_6 Yb3_4 1_555 1_555
O9_6 Yb8_4 1_555 1_555
O10_6 Yb3_4 1_555 1_555
O11_6 Yb8_4 1_555 1_555
N1_5 C11_5 1_555 1_555
C1_5 C2_5 1_555 1_555
C2_5 C3_5 1_555 1_555
C3_5 H1_5 1_555 1_555
C4_5 C3_5 1_555 1_555
H2_5 C4_5 1_555 1_555
C5_5 C4_5 1_555 1_555
C6_5 C5_5 1_555 1_555
H3_5 C6_5 1_555 1_555
C7_5 C2_5 1_555 1_555
H4_5 C7_5 1_555 1_555
C8_5 C5_5 1_555 1_555
C9_5 C8_5 1_555 1_555
H5_5 C9_5 1_555 1_555
C10_5 C9_5 1_555 1_555
C11_5 C10_5 1_555 1_555
C12_5 C11_5 1_555 1_555
C13_5 C8_5 1_555 1_555
C14_5 C10_5 1_555 1_555
C15_5 C14_5 1_555 1_555
H6_5 C15_5 1_555 1_555
C16_5 C15_5 1_555 1_555
H7_5 C16_5 1_555 1_555
C17_5 C16_5 1_555 1_555
C18_5 C17_5 1_555 1_555
H8_5 C18_5 1_555 1_555
C19_5 C14_5 1_555 1_555
H9_5 C19_5 1_555 1_555
C20_5 C17_5 1_555 1_555
C21_6 O8_6 1_555 1_555
O16_3 Yb5_2 1_555 1_555
Yb9_2 O6_5 1_555 1_555
Yb10_3 O7_5 1_555 1_555
O17_3 Yb5_2 1_555 1_555
Yb8_4 O6_5 1_555 1_555
Yb3_4 O5_5 1_555 1_555
Yb3_4 O7_5 1_555 1_555
O9_6 C21_6 1_555 1_555
C6_5 C7_5 1_555 1_555
C12_5 C13_5 1_555 1_555
C18_5 C19_5 1_555 1_555
O16_3 Yb9_2 1_555 1_555
O16_3 Yb10_3 1_555 1_555
O11_6 H20 1_555 1_555
O10_6 H22 1_555 1_555
N1_5 H24_5 1_555 1_555
C13_5 H25_5 1_555 1_555
C21_6 H26_6 1_555 1_555
O12_3 C22_5 1_555 1_555
O13_3 C22_5 1_555 1_555
O20_3 C41_5 1_555 1_555
O22_3 C41_5 1_555 1_555
C22_5 C23_5 1_555 1_555
C23_5 C24_5 1_555 1_555
C24_5 H10_5 1_555 1_555
C25_5 C24_5 1_555 1_555
H11_5 C25_5 1_555 1_555
C26_5 C25_5 1_555 1_555
C27_5 C26_5 1_555 1_555
H12_5 C27_5 1_555 1_555
C28_5 C23_5 1_555 1_555
H13_5 C28_5 1_555 1_555
C29_5 C26_5 1_555 1_555
C30_5 C29_5 1_555 1_555
H14_5 C30_5 1_555 1_555
C31_5 C30_5 1_555 1_555
C32_5 N1_6 1_555 1_555
C34_5 C29_5 1_555 1_555
C35_5 C31_5 1_555 1_555
C36_5 C35_5 1_555 1_555
H15_5 C36_5 1_555 1_555
C37_5 C36_5 1_555 1_555
H16_5 C37_5 1_555 1_555
C38_5 C37_5 1_555 1_555
C39_5 C38_5 1_555 1_555
H17_5 C39_5 1_555 1_555
C40_5 C35_5 1_555 1_555
H18_5 C40_5 1_555 1_555
C41_5 C38_5 1_555 1_555
Yb6_2 O12_3 1_555 1_555
Yb11_3 O13_3 1_555 1_555
C27_5 C28_5 1_555 1_555
C31_5 C32_5 1_555 1_555
C32_5 C33_5 1_555 1_555
C33_5 C34_5 1_555 1_555
C39_5 C40_5 1_555 1_555
C34_5 H19_5 1_555 1_555
N1_6 H24_6 1_555 1_555
O17_3 C22_6 1_555 1_555
O13_4 C22_6 1_555 1_555
O20_4 C41_6 1_555 1_555
O22_4 C41_6 1_555 1_555
C22_6 C23_6 1_555 1_555
C23_6 C24_6 1_555 1_555
C24_6 H10_6 1_555 1_555
C25_6 C24_6 1_555 1_555
H11_6 C25_6 1_555 1_555
C26_6 C25_6 1_555 1_555
C27_6 C26_6 1_555 1_555
H12_6 C27_6 1_555 1_555
C28_6 C23_6 1_555 1_555
H13_6 C28_6 1_555 1_555
C29_6 C26_6 1_555 1_555
C30_6 C29_6 1_555 1_555
H14_6 C30_6 1_555 1_555
C31_6 C30_6 1_555 1_555
C32_6 N1_7 1_555 1_555
C34_6 C29_6 1_555 1_555
C35_6 C31_6 1_555 1_555
C36_6 C35_6 1_555 1_555
H15_6 C36_6 1_555 1_555
C37_6 C36_6 1_555 1_555
H16_6 C37_6 1_555 1_555
C38_6 C37_6 1_555 1_555
C39_6 C38_6 1_555 1_555
H17_6 C39_6 1_555 1_555
C40_6 C35_6 1_555 1_555
H18_6 C40_6 1_555 1_555
C41_6 C38_6 1_555 1_555
Yb10_3 O13_4 1_555 1_555
C27_6 C28_6 1_555 1_555
C31_6 C32_6 1_555 1_555
C32_6 C33_6 1_555 1_555
C33_6 C34_6 1_555 1_555
C39_6 C40_6 1_555 1_555
C34_6 H19_6 1_555 1_555
N1_7 H24_7 1_555 1_555
O8_7 Yb3_5 1_555 1_555
O9_7 Yb8 1_555 1_555
O10_7 Yb3_5 1_555 1_555
O11_7 Yb8 1_555 1_555
C21_7 O8_7 1_555 1_555
O18_4 Yb3_5 1_555 1_555
O23_4 Yb8 1_555 1_555
O24_6 Yb8 1_555 1_555
O25_6 Yb3_5 1_555 1_555
Yb3_5 O23_4 1_555 1_555
O9_7 C21_7 1_555 1_555
Yb9_3 O24_6 1_555 1_555
Yb11_2 O25_6 1_555 1_555
O11_7 H21_2 1_555 1_555
O10_7 H23_2 1_555 1_555
C21_7 H26_7 1_555 1_555
Yb6_2 O1_6 1_555 1_555
Yb8_2 O5_6 1_555 1_555
Yb3_6 O2_6 1_555 1_555
O1_6 C1_6 1_555 1_555
O2_6 C1_6 1_555 1_555
O19_3 C20_6 1_555 1_555
O21 C20_6 1_555 1_555
O5_6 Yb6_2 1_555 1_555
O6_6 Yb6_2 1_555 1_555
O7_6 Yb6_2 1_555 1_555
O8_8 Yb3_6 1_555 1_555
O9_8 Yb8_2 1_555 1_555
O10_8 Yb3_6 1_555 1_555
O11_8 Yb8_2 1_555 1_555
N1_8 C11_6 1_555 1_555
C1_6 C2_6 1_555 1_555
C2_6 C3_6 1_555 1_555
C3_6 H1_6 1_555 1_555
C4_6 C3_6 1_555 1_555
H2_6 C4_6 1_555 1_555
C5_6 C4_6 1_555 1_555
C6_6 C5_6 1_555 1_555
H3_6 C6_6 1_555 1_555
C7_6 C2_6 1_555 1_555
H4_6 C7_6 1_555 1_555
C8_6 C5_6 1_555 1_555
C9_6 C8_6 1_555 1_555
H5_6 C9_6 1_555 1_555
C10_6 C9_6 1_555 1_555
C11_6 C10_6 1_555 1_555
C12_6 C11_6 1_555 1_555
C13_6 C8_6 1_555 1_555
C14_6 C10_6 1_555 1_555
C15_6 C14_6 1_555 1_555
H6_6 C15_6 1_555 1_555
C16_6 C15_6 1_555 1_555
H7_6 C16_6 1_555 1_555
C17_6 C16_6 1_555 1_555
C18_6 C17_6 1_555 1_555
H8_6 C18_6 1_555 1_555
C19_6 C14_6 1_555 1_555
H9_6 C19_6 1_555 1_555
C20_6 C17_6 1_555 1_555
C21_8 O8_8 1_555 1_555
O16_4 Yb6_2 1_555 1_555
Yb9_4 O6_6 1_555 1_555
Yb11_3 O7_6 1_555 1_555
Yb8_2 O6_6 1_555 1_555
Yb3_6 O5_6 1_555 1_555
Yb3_6 O7_6 1_555 1_555
O9_8 C21_8 1_555 1_555
C6_6 C7_6 1_555 1_555
C12_6 C13_6 1_555 1_555
C18_6 C19_6 1_555 1_555
O16_4 Yb9_4 1_555 1_555
O16_4 Yb11_3 1_555 1_555
O11_8 H20_2 1_555 1_555
O10_8 H22_2 1_555 1_555
N1_8 H24_8 1_555 1_555
C13_6 H25_6 1_555 1_555
C21_8 H26_8 1_555 1_555
Yb5 O1_7 1_555 1_555
Yb9 O5_7 1_555 1_555
Yb10_2 O2_7 1_555 1_555
O1_7 C1_7 1_555 1_555
O2_7 C1_7 1_555 1_555
O19_2 C20_7 1_555 1_555
O21_4 C20_7 1_555 1_555
O5_7 Yb5 1_555 1_555
O24_5 Yb5 1_555 1_555
O25_5 Yb5 1_555 1_555
O8_9 Yb10_2 1_555 1_555
O9_9 Yb9 1_555 1_555
O10_9 Yb10_2 1_555 1_555
O11_9 Yb9 1_555 1_555
N1_9 C11_7 1_555 1_555
C1_7 C2_7 1_555 1_555
C2_7 C3_7 1_555 1_555
C3_7 H1_7 1_555 1_555
C4_7 C3_7 1_555 1_555
H2_7 C4_7 1_555 1_555
C5_7 C4_7 1_555 1_555
C6_7 C5_7 1_555 1_555
H3_7 C6_7 1_555 1_555
C7_7 C2_7 1_555 1_555
H4_7 C7_7 1_555 1_555
C8_7 C5_7 1_555 1_555
C9_7 C8_7 1_555 1_555
H5_7 C9_7 1_555 1_555
C10_7 C9_7 1_555 1_555
C11_7 C10_7 1_555 1_555
C12_7 C11_7 1_555 1_555
C13_7 C8_7 1_555 1_555
C14_7 C10_7 1_555 1_555
C15_7 C14_7 1_555 1_555
H6_7 C15_7 1_555 1_555
C16_7 C15_7 1_555 1_555
H7_7 C16_7 1_555 1_555
C17_7 C16_7 1_555 1_555
C18_7 C17_7 1_555 1_555
H8_7 C18_7 1_555 1_555
C19_7 C14_7 1_555 1_555
H9_7 C19_7 1_555 1_555
C20_7 C17_7 1_555 1_555
C21_9 O8_9 1_555 1_555
O23_3 Yb5 1_555 1_555
O17_4 Yb5 1_555 1_555
Yb10_2 O5_7 1_555 1_555
O9_9 C21_9 1_555 1_555
C6_7 C7_7 1_555 1_555
C12_7 C13_7 1_555 1_555
C18_7 C19_7 1_555 1_555
O11_9 H20_3 1_555 1_555
O10_9 H22_3 1_555 1_555
N1_9 H24_9 1_555 1_555
C13_7 H25_7 1_555 1_555
C21_9 H26_9 1_555 1_555
O8_10 Yb10_3 1_555 1_555
O9_10 Yb9_2 1_555 1_555
O10_10 Yb10_3 1_555 1_555
O11_10 Yb9_2 1_555 1_555
C21_10 O8_10 1_555 1_555
O9_10 C21_10 1_555 1_555
O11_10 H21_3 1_555 1_555
O10_10 H23_3 1_555 1_555
C21_10 H26_10 1_555 1_555
O12_4 C22_7 1_555 1_555
O18_4 C22_7 1_555 1_555
O20 C41_7 1_555 1_555
O22 C41_7 1_555 1_555
C22_7 C23_7 1_555 1_555
C23_7 C24_7 1_555 1_555
C24_7 H10_7 1_555 1_555
C25_7 C24_7 1_555 1_555
H11_7 C25_7 1_555 1_555
C26_7 C25_7 1_555 1_555
C27_7 C26_7 1_555 1_555
H12_7 C27_7 1_555 1_555
C28_7 C23_7 1_555 1_555
H13_7 C28_7 1_555 1_555
C29_7 C26_7 1_555 1_555
C30_7 C29_7 1_555 1_555
H14_7 C30_7 1_555 1_555
C31_7 C30_7 1_555 1_555
C32_7 N1_10 1_555 1_555
C34_7 C29_7 1_555 1_555
C35_7 C31_7 1_555 1_555
C36_7 C35_7 1_555 1_555
H15_7 C36_7 1_555 1_555
C37_7 C36_7 1_555 1_555
H16_7 C37_7 1_555 1_555
C38_7 C37_7 1_555 1_555
C39_7 C38_7 1_555 1_555
H17_7 C39_7 1_555 1_555
C40_7 C35_7 1_555 1_555
H18_7 C40_7 1_555 1_555
C41_7 C38_7 1_555 1_555
Yb6 O12_4 1_555 1_555
C27_7 C28_7 1_555 1_555
C31_7 C32_7 1_555 1_555
C32_7 C33_7 1_555 1_555
C33_7 C34_7 1_555 1_555
C39_7 C40_7 1_555 1_555
C34_7 H19_7 1_555 1_555
N1_10 H24_10 1_555 1_555
O17_4 C22_8 1_555 1_555
O18_3 C22_8 1_555 1_555
O20_2 C41_8 1_555 1_555
O22_2 C41_8 1_555 1_555
C22_8 C23_8 1_555 1_555
C23_8 C24_8 1_555 1_555
C24_8 H10_8 1_555 1_555
C25_8 C24_8 1_555 1_555
H11_8 C25_8 1_555 1_555
C26_8 C25_8 1_555 1_555
C27_8 C26_8 1_555 1_555
H12_8 C27_8 1_555 1_555
C28_8 C23_8 1_555 1_555
H13_8 C28_8 1_555 1_555
C29_8 C26_8 1_555 1_555
C30_8 C29_8 1_555 1_555
H14_8 C30_8 1_555 1_555
C31_8 C30_8 1_555 1_555
C32_8 N1_11 1_555 1_555
C34_8 C29_8 1_555 1_555
C35_8 C31_8 1_555 1_555
C36_8 C35_8 1_555 1_555
H15_8 C36_8 1_555 1_555
C37_8 C36_8 1_555 1_555
H16_8 C37_8 1_555 1_555
C38_8 C37_8 1_555 1_555
C39_8 C38_8 1_555 1_555
H17_8 C39_8 1_555 1_555
C40_8 C35_8 1_555 1_555
H18_8 C40_8 1_555 1_555
C41_8 C38_8 1_555 1_555
C27_8 C28_8 1_555 1_555
C31_8 C32_8 1_555 1_555
C32_8 C33_8 1_555 1_555
C33_8 C34_8 1_555 1_555
C39_8 C40_8 1_555 1_555
C34_8 H19_8 1_555 1_555
N1_11 H24_11 1_555 1_555
Yb6 O1_8 1_555 1_555
Yb9_3 O5_8 1_555 1_555
Yb11_2 O2_8 1_555 1_555
O1_8 C1_8 1_555 1_555
O2_8 C1_8 1_555 1_555
O19 C20_8 1_555 1_555
O21_3 C20_8 1_555 1_555
O5_8 Yb6 1_555 1_555
O24_6 Yb6 1_555 1_555
O25_6 Yb6 1_555 1_555
O8_11 Yb11_2 1_555 1_555
O9_11 Yb9_3 1_555 1_555
O10_11 Yb11_2 1_555 1_555
O11_11 Yb9_3 1_555 1_555
N1_12 C11_8 1_555 1_555
C1_8 C2_8 1_555 1_555
C2_8 C3_8 1_555 1_555
C3_8 H1_8 1_555 1_555
C4_8 C3_8 1_555 1_555
H2_8 C4_8 1_555 1_555
C5_8 C4_8 1_555 1_555
C6_8 C5_8 1_555 1_555
H3_8 C6_8 1_555 1_555
C7_8 C2_8 1_555 1_555
H4_8 C7_8 1_555 1_555
C8_8 C5_8 1_555 1_555
C9_8 C8_8 1_555 1_555
H5_8 C9_8 1_555 1_555
C10_8 C9_8 1_555 1_555
C11_8 C10_8 1_555 1_555
C12_8 C11_8 1_555 1_555
C13_8 C8_8 1_555 1_555
C14_8 C10_8 1_555 1_555
C15_8 C14_8 1_555 1_555
H6_8 C15_8 1_555 1_555
C16_8 C15_8 1_555 1_555
H7_8 C16_8 1_555 1_555
C17_8 C16_8 1_555 1_555
C18_8 C17_8 1_555 1_555
H8_8 C18_8 1_555 1_555
C19_8 C14_8 1_555 1_555
H9_8 C19_8 1_555 1_555
C20_8 C17_8 1_555 1_555
C21_11 O8_11 1_555 1_555
O23_4 Yb6 1_555 1_555
Yb11_2 O5_8 1_555 1_555
O9_11 C21_11 1_555 1_555
C6_8 C7_8 1_555 1_555
C12_8 C13_8 1_555 1_555
C18_8 C19_8 1_555 1_555
O11_11 H20_4 1_555 1_555
O10_11 H22_4 1_555 1_555
N1_12 H24_12 1_555 1_555
C13_8 H25_8 1_555 1_555
C21_11 H26_11 1_555 1_555
O8_12 Yb11_3 1_555 1_555
O9_12 Yb9_4 1_555 1_555
O10_12 Yb11_3 1_555 1_555
O11_12 Yb9_4 1_555 1_555
C21_12 O8_12 1_555 1_555
O9_12 C21_12 1_555 1_555
O11_12 H21_4 1_555 1_555
O10_12 H23_4 1_555 1_555
C21_12 H26_12 1_555 1_555
O11_7 H20_5 1_555 1_555
O10_7 H22_5 1_555 1_555
O11_8 H21_5 1_555 1_555
O10_8 H23_5 1_555 1_555
O11_5 H20_6 1_555 1_555
O10_5 H22_6 1_555 1_555
O11_6 H21_6 1_555 1_555
O10_6 H23_6 1_555 1_555
O11_11 H21_7 1_555 1_555
O10_11 H23_7 1_555 1_555
O11_12 H20_7 1_555 1_555
O10_12 H22_7 1_555 1_555
O11_9 H21_8 1_555 1_555
O10_9 H23_8 1_555 1_555
O11_10 H20_8 1_555 1_555
O10_10 H22_8 1_555 1_555

#END
