
###############################################################################
#
# This file contains modified crystal structure data generated from the
# MOF subset of the Cambridge Structural Database (CSD) v543 
# hosted by the Cambridge Crystallographic Data Centre (CCDC).
#
# This work is licensed under the Creative Commons
# Attribution-NonCommercial-ShareAlike 4.0 International License.
# To view a copy of this license, visit
# http://creativecommons.org/licenses/by-nc-sa/4.0/
# or send a letter to
# Creative Commons, PO Box 1866, Mountain View, CA 94042, USA.
#
# CIF created using the CSD Python API on 29 September 2022
# The structure has been converted into the P1 space group
# The structure has a 3D framework
# The original CSD entry ZEJWIX is in the monoclinic crystal system
# The framework has been calculated to contain at least 10.0% void space
# The void calculation uses a probe of radius 1.32A, grid spacing 0.4
#
###############################################################################

data_ZEJWIX
_chemical_formula_moiety         '(C184 H112 Er8 N88 O32 W8)n'
_symmetry_cell_setting           triclinic
_symmetry_space_group_name_H-M   'P 1'
_symmetry_Int_Tables_number      1
_space_group_name_Hall           'P 1'
loop_
_symmetry_equiv_pos_site_id
_symmetry_equiv_pos_as_xyz
1 x,y,z
_cell_length_a                   29.361(3)
_cell_length_b                   14.6278(14)
_cell_length_c                   15.6509(15)
_cell_angle_alpha                90
_cell_angle_beta                 96.9100(10)
_cell_angle_gamma                90
_cell_volume                     6673.03
loop_
_atom_site_label
_atom_site_type_symbol
_atom_site_fract_x
_atom_site_fract_y
_atom_site_fract_z
H10 H 0.2783 0.0211 0.8105
Er3 Er 0.71776(2) 0.48648(2) 0.04237(2)
Er5 Er 0.21776(2) 0.98648(2) 0.04237(2)
W1 W 0.34326(2) 0.74868(2) 0.23851(2)
Er1 Er 0.28224(2) 0.48648(2) 0.45763(2)
N1 N 0.3389(2) 0.6229(5) 0.5934(4)
N2 N 0.2932(2) 0.9353(4) 0.9060(4)
N3 N 0.3873(2) 0.4331(4) 0.4406(4)
N4 N 0.2988(2) 0.5687(4) 0.3282(4)
N5 N 0.2973(2) 0.6281(5) 0.0706(5)
N6 N 0.2642(2) 0.8852(5) 0.1375(4)
N7 N 0.3989(3) 0.8204(6) 0.0811(6)
N8 N 0.3862(4) 0.9533(8) 0.2880(7)
N9 N 0.2816(3) 0.8064(4) 0.3945(4)
N10 N 0.4154(4) 0.7371(6) 0.4168(6)
N11 N 0.4184(3) 0.5836(6) 0.2136(5)
O1 O 0.3407(2) 0.5612(4) 0.5307(4)
O2 O 0.27995(14) 0.9907(3) 0.9638(3)
O3 O 0.34314(19) 0.4104(4) 0.4182(4)
O4 O 0.2492(2) 0.6299(4) 0.4561(4)
H1 H 0.2588 0.6756 0.4325
H2 H 0.2409 0.6459 0.5027
C1 C 0.3268(3) 0.5950(5) 0.6694(5)
H3 H 0.3226 0.5332 0.6796
C2 C 0.3207(3) 0.6584(6) 0.7320(6)
H4 H 0.3099 0.6394 0.7826
C3 C 0.3303(3) 0.7508(5) 0.7206(6)
C4 C 0.3428(3) 0.7757(6) 0.6414(5)
H5 H 0.3476 0.8371 0.6300
C5 C 0.3484(3) 0.7105(6) 0.5781(6)
H6 H 0.3585 0.7277 0.5263
C6 C 0.3092(3) 0.8536(6) 0.9315(5)
H7 H 0.3111 0.8366 0.9891
C7 C 0.3229(3) 0.7948(6) 0.8712(5)
H8 H 0.3346 0.7377 0.8883
C8 C 0.3194(3) 0.8194(5) 0.7857(5)
C9 C 0.3036(3) 0.9035(6) 0.7630(5)
H9 H 0.3018 0.9221 0.7059
C10 C 0.2896(3) 0.9633(6) 0.8256(5)
C11 C 0.4108(4) 0.3960(8) 0.5080(7)
H11 H 0.3978 0.3496 0.5377
C12 C 0.4536(4) 0.4248(8) 0.5346(7)
H12 H 0.4686 0.4030 0.5863
C13 C 0.4758(3) 0.4861(5) 0.4867(5)
C14 C 0.4523(4) 0.5196(9) 0.4180(9)
H13 H 0.4655 0.5645 0.3868
C15 C 0.4067(4) 0.4894(8) 0.3892(8)
H14 H 0.3913 0.5083 0.3367
C16 C 0.3134(3) 0.6309(5) 0.2935(5)
C17 C 0.3114(3) 0.6705(6) 0.1281(5)
C18 C 0.2903(3) 0.8356(6) 0.1720(5)
C19 C 0.3801(4) 0.7954(6) 0.1348(6)
C20 C 0.3710(4) 0.8840(7) 0.2713(6)
C21 C 0.3021(3) 0.7902(5) 0.3373(5)
C22 C 0.3899(3) 0.7377(6) 0.3563(6)
C23 C 0.3927(3) 0.6433(6) 0.2209(6)
N12 N 0.6127(2) 0.5669(4) 0.5594(4)
O5 O 0.65686(19) 0.5896(4) 0.5818(4)
C24 C 0.5892(4) 0.6040(8) 0.4920(7)
H15 H 0.6022 0.6504 0.4623
C25 C 0.5464(4) 0.5752(8) 0.4654(7)
H16 H 0.5314 0.5970 0.4137
C26 C 0.5242(3) 0.5139(5) 0.5133(5)
C27 C 0.5477(4) 0.4804(9) 0.5820(9)
H17 H 0.5345 0.4355 0.6132
C28 C 0.5933(4) 0.5106(8) 0.6108(8)
H18 H 0.6087 0.4917 0.6633
W2 W 0.65674(2) 0.25132(2) 0.76149(2)
Er2 Er 0.71776(2) 0.51352(2) 0.54237(2)
N13 N 0.6611(2) 0.3771(5) 0.4066(4)
N14 N 0.7068(2) 0.0647(4) 0.0940(4)
N15 N 0.7012(2) 0.4313(4) 0.6718(4)
N16 N 0.7027(2) 0.3719(5) 0.9294(5)
N17 N 0.7358(2) 0.1148(5) 0.8625(4)
N18 N 0.6011(3) 0.1796(6) 0.9189(6)
N19 N 0.6138(4) 0.0467(8) 0.7120(7)
N20 N 0.7184(3) 0.1936(4) 0.6055(4)
N21 N 0.5846(4) 0.2629(6) 0.5832(6)
N22 N 0.5816(3) 0.4164(6) 0.7864(5)
O6 O 0.6593(2) 0.4388(4) 0.4693(4)
O7 O 0.72005(14) 0.0093(3) 0.0362(3)
O8 O 0.7508(2) 0.3701(4) 0.5439(4)
H19 H 0.7412 0.3244 0.5675
H20 H 0.7591 0.3541 0.4973
C29 C 0.6732(3) 0.4050(5) 0.3306(5)
H21 H 0.6774 0.4668 0.3204
C30 C 0.6793(3) 0.3416(6) 0.2680(6)
H22 H 0.6901 0.3606 0.2174
C31 C 0.6697(3) 0.2492(5) 0.2794(6)
C32 C 0.6572(3) 0.2243(6) 0.3586(5)
H23 H 0.6524 0.1629 0.3700
C33 C 0.6516(3) 0.2895(6) 0.4219(6)
H24 H 0.6415 0.2723 0.4737
C34 C 0.6908(3) 0.1464(6) 0.0685(5)
H25 H 0.6889 0.1634 0.0109
C35 C 0.6771(3) 0.2052(6) 0.1288(5)
H26 H 0.6654 0.2623 0.1117
C36 C 0.6806(3) 0.1806(5) 0.2143(5)
C37 C 0.6964(3) 0.0965(6) 0.2370(5)
H27 H 0.6982 0.0779 0.2941
C38 C 0.7104(3) 0.0367(6) 0.1744(5)
C39 C 0.6866(3) 0.3691(5) 0.7065(5)
C40 C 0.6886(3) 0.3295(6) 0.8719(5)
C41 C 0.7097(3) 0.1644(6) 0.8280(5)
C42 C 0.6199(4) 0.2046(6) 0.8652(6)
C43 C 0.6290(4) 0.1160(7) 0.7287(6)
C44 C 0.6979(3) 0.2098(5) 0.6627(5)
C45 C 0.6101(3) 0.2623(6) 0.6437(6)
C46 C 0.6073(3) 0.3567(6) 0.7791(6)
Er8 Er 0.78224(2) 0.01352(2) 0.95763(2)
N23 N 0.7027(2) 0.6281(5) 0.4294(5)
N24 N 0.2973(2) 0.3719(5) 0.5706(5)
N25 N 0.2358(2) 0.3852(5) 0.3625(4)
N26 N 0.7642(2) 0.6148(5) 0.6375(4)
O9 O 0.22005(14) 0.4907(3) 0.5362(3)
O10 O 0.77995(14) 0.5093(3) 0.4638(3)
Er6 Er 0.28224(2) 0.51352(2) 0.95763(2)
W1_2 W 0.65674(2) 0.74868(2) 0.26149(2)
N3_2 N 0.6127(2) 0.4331(4) 0.0594(4)
N4_2 N 0.7012(2) 0.5687(4) 0.1718(4)
N6_2 N 0.7358(2) 0.8852(5) 0.3625(4)
N7_2 N 0.6011(3) 0.8204(6) 0.4189(6)
N8_2 N 0.6138(4) 0.9533(8) 0.2120(7)
N9_2 N 0.7184(3) 0.8064(4) 0.1055(4)
N10_2 N 0.5846(4) 0.7371(6) 0.0832(6)
N11_2 N 0.5816(3) 0.5836(6) 0.2864(5)
O3_2 O 0.65686(19) 0.4104(4) 0.0818(4)
O4_2 O 0.7508(2) 0.6299(4) 0.0439(4)
H1_2 H 0.7412 0.6756 0.0675
C13_2 C 0.5242(3) 0.4861(5) 0.0133(5)
C14_2 C 0.5477(4) 0.5196(9) 0.0820(9)
H13_2 H 0.5345 0.5645 0.1132
C15_2 C 0.5933(4) 0.4894(8) 0.1108(8)
H14_2 H 0.6087 0.5083 0.1633
C16_2 C 0.6866(3) 0.6309(5) 0.2065(5)
C17_2 C 0.6886(3) 0.6705(6) 0.3719(5)
C18_2 C 0.7097(3) 0.8356(6) 0.3280(5)
C19_2 C 0.6199(4) 0.7954(6) 0.3652(6)
C20_2 C 0.6290(4) 0.8840(7) 0.2287(6)
C21_2 C 0.6979(3) 0.7902(5) 0.1627(5)
C22_2 C 0.6101(3) 0.7377(6) 0.1437(6)
C23_2 C 0.6073(3) 0.6433(6) 0.2791(6)
C24_2 C 0.4108(4) 0.6040(8) 0.0080(7)
H15_2 H 0.3978 0.6504 0.0377
C25_2 C 0.4536(4) 0.5752(8) 0.0346(7)
H16_2 H 0.4686 0.5970 0.0863
N13_2 N 0.3389(2) 0.3771(5) 0.0934(4)
N14_2 N 0.2932(2) 0.0647(4) 0.4060(4)
O6_2 O 0.3407(2) 0.4388(4) 0.0307(4)
O7_2 O 0.27995(14) 0.0093(3) 0.4638(3)
H20_2 H 0.2409 0.3541 0.0027
C29_2 C 0.3268(3) 0.4050(5) 0.1694(5)
H21_2 H 0.3226 0.4668 0.1796
C30_2 C 0.3207(3) 0.3416(6) 0.2320(6)
H22_2 H 0.3099 0.3606 0.2826
C31_2 C 0.3303(3) 0.2492(5) 0.2206(6)
C32_2 C 0.3428(3) 0.2243(6) 0.1414(5)
H23_2 H 0.3476 0.1629 0.1300
C33_2 C 0.3484(3) 0.2895(6) 0.0781(6)
H24_2 H 0.3585 0.2723 0.0263
C34_2 C 0.3092(3) 0.1464(6) 0.4315(5)
H25_2 H 0.3111 0.1634 0.4891
C35_2 C 0.3229(3) 0.2052(6) 0.3712(5)
H26_2 H 0.3346 0.2623 0.3883
C36_2 C 0.3194(3) 0.1806(5) 0.2857(5)
C37_2 C 0.3036(3) 0.0965(6) 0.2630(5)
H27_2 H 0.3018 0.0779 0.2059
C38_2 C 0.2896(3) 0.0367(6) 0.3256(5)
Er4 Er 0.78224(2) 0.98648(2) 0.45763(2)
Er7 Er 0.21776(2) 0.01352(2) 0.54237(2)
N25_2 N 0.7642(2) 0.3852(5) 0.1375(4)
O10_2 O 0.22005(14) 0.5093(3) 0.0362(3)
N1_2 N 0.6611(2) 0.6229(5) 0.9066(4)
N2_2 N 0.7068(2) 0.9353(4) 0.5940(4)
O1_2 O 0.6593(2) 0.5612(4) 0.9693(4)
O2_2 O 0.72005(14) 0.9907(3) 0.5362(3)
H2_2 H 0.7591 0.6459 0.9973
C1_2 C 0.6732(3) 0.5950(5) 0.8306(5)
H3_2 H 0.6774 0.5332 0.8204
C2_2 C 0.6793(3) 0.6584(6) 0.7680(6)
H4_2 H 0.6901 0.6394 0.7174
C3_2 C 0.6697(3) 0.7508(5) 0.7794(6)
C4_2 C 0.6572(3) 0.7757(6) 0.8586(5)
H5_2 H 0.6524 0.8371 0.8700
C5_2 C 0.6516(3) 0.7105(6) 0.9219(6)
H6_2 H 0.6415 0.7277 0.9737
C6_2 C 0.6908(3) 0.8536(6) 0.5685(5)
H7_2 H 0.6889 0.8366 0.5109
C7_2 C 0.6771(3) 0.7948(6) 0.6288(5)
H8_2 H 0.6654 0.7377 0.6117
C8_2 C 0.6806(3) 0.8194(5) 0.7143(5)
C9_2 C 0.6964(3) 0.9035(6) 0.7370(5)
H9_2 H 0.6982 0.9221 0.7941
C10_2 C 0.7104(3) 0.9633(6) 0.6744(5)
C11_2 C 0.5892(4) 0.3960(8) 0.9920(7)
H11_2 H 0.6022 0.3496 0.9623
C12_2 C 0.5464(4) 0.4248(8) 0.9654(7)
H12_2 H 0.5314 0.4030 0.9137
N12_2 N 0.3873(2) 0.5669(4) 0.9406(4)
O5_2 O 0.34314(19) 0.5896(4) 0.9182(4)
C26_2 C 0.4758(3) 0.5139(5) 0.9867(5)
C27_2 C 0.4523(4) 0.4804(9) 0.9180(9)
H17_2 H 0.4655 0.4355 0.8868
C28_2 C 0.4067(4) 0.5106(8) 0.8892(8)
H18_2 H 0.3913 0.4917 0.8367
W2_2 W 0.34326(2) 0.25132(2) 0.73851(2)
N15_2 N 0.2988(2) 0.4313(4) 0.8282(4)
N17_2 N 0.2642(2) 0.1148(5) 0.6375(4)
N18_2 N 0.3989(3) 0.1796(6) 0.5811(6)
N19_2 N 0.3862(4) 0.0467(8) 0.7880(7)
N20_2 N 0.2816(3) 0.1936(4) 0.8945(4)
N21_2 N 0.4154(4) 0.2629(6) 0.9168(6)
N22_2 N 0.4184(3) 0.4164(6) 0.7136(5)
O8_2 O 0.2492(2) 0.3701(4) 0.9561(4)
H19_2 H 0.2588 0.3244 0.9325
C39_2 C 0.3134(3) 0.3691(5) 0.7935(5)
C40_2 C 0.3114(3) 0.3295(6) 0.6281(5)
C41_2 C 0.2903(3) 0.1644(6) 0.6720(5)
C42_2 C 0.3801(4) 0.2046(6) 0.6348(6)
C43_2 C 0.3710(4) 0.1160(7) 0.7713(6)
C44_2 C 0.3021(3) 0.2098(5) 0.8373(5)
C45_2 C 0.3899(3) 0.2623(6) 0.8563(6)
C46_2 C 0.3927(3) 0.3567(6) 0.7209(6)
N26_2 N 0.2358(2) 0.6148(5) 0.8625(4)
O9_2 O 0.77995(14) 0.4907(3) 0.9638(3)
N12_3 N 0.1127(2) 0.0669(4) 0.5594(4)
O5_3 O 0.15686(19) 0.0896(4) 0.5818(4)
C24_3 C 0.0892(4) 0.1040(8) 0.4920(7)
H15_3 H 0.1022 0.1504 0.4623
C25_3 C 0.0464(4) 0.0752(8) 0.4654(7)
H16_3 H 0.0314 0.0970 0.4137
C26_3 C 0.0242(3) 0.0139(5) 0.5133(5)
C28_3 C 0.0933(4) 0.0106(8) 0.6108(8)
N23_2 N 0.2027(2) 0.1281(5) 0.4294(5)
C27_3 C 0.0477(4) 0.9804(9) 0.5820(9)
H17_3 H 0.0345 0.9355 0.6132
H18_3 H 0.1087 0.9917 0.6633
W2_3 W 0.15674(2) 0.75132(2) 0.76149(2)
N13_3 N 0.1611(2) 0.8771(5) 0.4066(4)
N14_3 N 0.2068(2) 0.5647(4) 0.0940(4)
N15_3 N 0.2012(2) 0.9313(4) 0.6718(4)
N16_2 N 0.2027(2) 0.8719(5) 0.9294(5)
N18_3 N 0.1011(3) 0.6796(6) 0.9189(6)
N19_3 N 0.1138(4) 0.5467(8) 0.7120(7)
N20_3 N 0.2184(3) 0.6936(4) 0.6055(4)
N21_3 N 0.0846(4) 0.7629(6) 0.5832(6)
N22_3 N 0.0816(3) 0.9164(6) 0.7864(5)
O6_3 O 0.1593(2) 0.9388(4) 0.4693(4)
O8_3 O 0.2508(2) 0.8701(4) 0.5439(4)
H19_3 H 0.2412 0.8244 0.5675
H20_3 H 0.2591 0.8541 0.4973
C29_3 C 0.1732(3) 0.9050(5) 0.3306(5)
H21_3 H 0.1774 0.9668 0.3204
C30_3 C 0.1793(3) 0.8416(6) 0.2680(6)
H22_3 H 0.1901 0.8606 0.2174
C31_3 C 0.1697(3) 0.7492(5) 0.2794(6)
C32_3 C 0.1572(3) 0.7243(6) 0.3586(5)
H23_3 H 0.1524 0.6629 0.3700
C33_3 C 0.1516(3) 0.7895(6) 0.4219(6)
H24_3 H 0.1415 0.7723 0.4737
C34_3 C 0.1908(3) 0.6464(6) 0.0685(5)
H25_3 H 0.1889 0.6634 0.0109
C35_3 C 0.1771(3) 0.7052(6) 0.1288(5)
H26_3 H 0.1654 0.7623 0.1117
C36_3 C 0.1806(3) 0.6806(5) 0.2143(5)
C37_3 C 0.1964(3) 0.5965(6) 0.2370(5)
H27_3 H 0.1982 0.5779 0.2941
C38_3 C 0.2104(3) 0.5367(6) 0.1744(5)
H28 H 0.2217 0.4789 0.1895
C39_3 C 0.1866(3) 0.8691(5) 0.7065(5)
C40_3 C 0.1886(3) 0.8295(6) 0.8719(5)
C41_3 C 0.2097(3) 0.6644(6) 0.8280(5)
C42_3 C 0.1199(4) 0.7046(6) 0.8652(6)
C43_3 C 0.1290(4) 0.6160(7) 0.7287(6)
C44_3 C 0.1979(3) 0.7098(5) 0.6627(5)
C45_3 C 0.1101(3) 0.7623(6) 0.6437(6)
C46_3 C 0.1073(3) 0.8567(6) 0.7791(6)
W1_3 W 0.84326(2) 0.24868(2) 0.23851(2)
N1_3 N 0.8389(2) 0.1229(5) 0.5934(4)
N2_3 N 0.7932(2) 0.4353(4) 0.9060(4)
N4_3 N 0.7988(2) 0.0687(4) 0.3282(4)
N5_2 N 0.7973(2) 0.1281(5) 0.0706(5)
N7_3 N 0.8989(3) 0.3204(6) 0.0811(6)
N8_3 N 0.8862(4) 0.4533(8) 0.2880(7)
N9_3 N 0.7816(3) 0.3064(4) 0.3945(4)
N10_3 N 0.9154(4) 0.2371(6) 0.4168(6)
N11_3 N 0.9184(3) 0.0836(6) 0.2136(5)
O1_3 O 0.8407(2) 0.0612(4) 0.5307(4)
O4_3 O 0.7492(2) 0.1299(4) 0.4561(4)
H1_3 H 0.7588 0.1756 0.4325
H2_3 H 0.7409 0.1459 0.5027
C1_3 C 0.8268(3) 0.0950(5) 0.6694(5)
H3_3 H 0.8226 0.0332 0.6796
C2_3 C 0.8207(3) 0.1584(6) 0.7320(6)
H4_3 H 0.8099 0.1394 0.7826
C3_3 C 0.8303(3) 0.2508(5) 0.7206(6)
C4_3 C 0.8428(3) 0.2757(6) 0.6414(5)
H5_3 H 0.8476 0.3371 0.6300
C5_3 C 0.8484(3) 0.2105(6) 0.5781(6)
H6_3 H 0.8585 0.2277 0.5263
C6_3 C 0.8092(3) 0.3536(6) 0.9315(5)
H7_3 H 0.8111 0.3366 0.9891
C7_3 C 0.8229(3) 0.2948(6) 0.8712(5)
H8_3 H 0.8346 0.2377 0.8883
C8_3 C 0.8194(3) 0.3194(5) 0.7857(5)
C9_3 C 0.8036(3) 0.4035(6) 0.7630(5)
H9_3 H 0.8018 0.4221 0.7059
C10_3 C 0.7896(3) 0.4633(6) 0.8256(5)
H10_2 H 0.7783 0.5211 0.8105
C14_3 C 0.9523(4) 0.0196(9) 0.4180(9)
H13_3 H 0.9655 0.0645 0.3868
H14_3 H 0.8913 0.0083 0.3367
C16_3 C 0.8134(3) 0.1309(5) 0.2935(5)
C17_3 C 0.8114(3) 0.1705(6) 0.1281(5)
C18_3 C 0.7903(3) 0.3356(6) 0.1720(5)
C19_3 C 0.8801(4) 0.2954(6) 0.1348(6)
C20_3 C 0.8710(4) 0.3840(7) 0.2713(6)
C21_3 C 0.8021(3) 0.2902(5) 0.3373(5)
C22_3 C 0.8899(3) 0.2377(6) 0.3563(6)
C23_3 C 0.8927(3) 0.1433(6) 0.2209(6)
N3_3 N 0.8873(2) 0.9331(4) 0.4406(4)
O3_3 O 0.84314(19) 0.9104(4) 0.4182(4)
C11_3 C 0.9108(4) 0.8960(8) 0.5080(7)
H11_3 H 0.8978 0.8496 0.5377
C12_3 C 0.9536(4) 0.9248(8) 0.5346(7)
H12_3 H 0.9686 0.9030 0.5863
C13_3 C 0.9758(3) 0.9861(5) 0.4867(5)
C15_3 C 0.9067(4) 0.9894(8) 0.3892(8)
N24_2 N 0.7973(2) 0.8719(5) 0.5706(5)
W1_4 W 0.15674(2) 0.24868(2) 0.26149(2)
N4_4 N 0.2012(2) 0.0687(4) 0.1718(4)
N7_4 N 0.1011(3) 0.3204(6) 0.4189(6)
N8_4 N 0.1138(4) 0.4533(8) 0.2120(7)
N9_4 N 0.2184(3) 0.3064(4) 0.1055(4)
N10_4 N 0.0846(4) 0.2371(6) 0.0832(6)
N11_4 N 0.0816(3) 0.0836(6) 0.2864(5)
O4_4 O 0.2508(2) 0.1299(4) 0.0439(4)
H1_4 H 0.2412 0.1756 0.0675
C14_4 C 0.0477(4) 0.0196(9) 0.0820(9)
H13_4 H 0.0345 0.0645 0.1132
H14_4 H 0.1087 0.0083 0.1633
C16_4 C 0.1866(3) 0.1309(5) 0.2065(5)
C17_4 C 0.1886(3) 0.1705(6) 0.3719(5)
C18_4 C 0.2097(3) 0.3356(6) 0.3280(5)
C19_4 C 0.1199(4) 0.2954(6) 0.3652(6)
C20_4 C 0.1290(4) 0.3840(7) 0.2287(6)
C21_4 C 0.1979(3) 0.2902(5) 0.1627(5)
C22_4 C 0.1101(3) 0.2377(6) 0.1437(6)
C23_4 C 0.1073(3) 0.1433(6) 0.2791(6)
N1_4 N 0.1611(2) 0.1229(5) 0.9066(4)
N2_4 N 0.2068(2) 0.4353(4) 0.5940(4)
O1_4 O 0.1593(2) 0.0612(4) 0.9693(4)
H2_4 H 0.2591 0.1459 0.9973
C1_4 C 0.1732(3) 0.0950(5) 0.8306(5)
H3_4 H 0.1774 0.0332 0.8204
C2_4 C 0.1793(3) 0.1584(6) 0.7680(6)
H4_4 H 0.1901 0.1394 0.7174
C3_4 C 0.1697(3) 0.2508(5) 0.7794(6)
C4_4 C 0.1572(3) 0.2757(6) 0.8586(5)
H5_4 H 0.1524 0.3371 0.8700
C5_4 C 0.1516(3) 0.2105(6) 0.9219(6)
H6_4 H 0.1415 0.2277 0.9737
C6_4 C 0.1908(3) 0.3536(6) 0.5685(5)
H7_4 H 0.1889 0.3366 0.5109
C7_4 C 0.1771(3) 0.2948(6) 0.6288(5)
H8_4 H 0.1654 0.2377 0.6117
C8_4 C 0.1806(3) 0.3194(5) 0.7143(5)
C9_4 C 0.1964(3) 0.4035(6) 0.7370(5)
H9_4 H 0.1982 0.4221 0.7941
C10_4 C 0.2104(3) 0.4633(6) 0.6744(5)
H10_3 H 0.2217 0.5211 0.6895
N3_4 N 0.1127(2) 0.9331(4) 0.0594(4)
O3_4 O 0.15686(19) 0.9104(4) 0.0818(4)
C13_4 C 0.0242(3) 0.9861(5) 0.0133(5)
C15_4 C 0.0933(4) 0.9894(8) 0.1108(8)
C11_4 C 0.0892(4) 0.8960(8) 0.9920(7)
H11_4 H 0.1022 0.8496 0.9623
C12_4 C 0.0464(4) 0.9248(8) 0.9654(7)
H12_4 H 0.0314 0.9030 0.9137
C24_4 C 0.9108(4) 0.1040(8) 0.0080(7)
H15_4 H 0.8978 0.1504 0.0377
C25_4 C 0.9536(4) 0.0752(8) 0.0346(7)
H16_4 H 0.9686 0.0970 0.0863
N12_4 N 0.8873(2) 0.0669(4) 0.9406(4)
O5_4 O 0.84314(19) 0.0896(4) 0.9182(4)
C26_4 C 0.9758(3) 0.0139(5) 0.9867(5)
C28_4 C 0.9067(4) 0.0106(8) 0.8892(8)
N13_4 N 0.8389(2) 0.8771(5) 0.0934(4)
N14_4 N 0.7932(2) 0.5647(4) 0.4060(4)
O6_4 O 0.8407(2) 0.9388(4) 0.0307(4)
H20_4 H 0.7409 0.8541 0.0027
C29_4 C 0.8268(3) 0.9050(5) 0.1694(5)
H21_4 H 0.8226 0.9668 0.1796
C30_4 C 0.8207(3) 0.8416(6) 0.2320(6)
H22_4 H 0.8099 0.8606 0.2826
C31_4 C 0.8303(3) 0.7492(5) 0.2206(6)
C32_4 C 0.8428(3) 0.7243(6) 0.1414(5)
H23_4 H 0.8476 0.6629 0.1300
C33_4 C 0.8484(3) 0.7895(6) 0.0781(6)
H24_4 H 0.8585 0.7723 0.0263
C34_4 C 0.8092(3) 0.6464(6) 0.4315(5)
H25_4 H 0.8111 0.6634 0.4891
C35_4 C 0.8229(3) 0.7052(6) 0.3712(5)
H26_4 H 0.8346 0.7623 0.3883
C36_4 C 0.8194(3) 0.6806(5) 0.2857(5)
C37_4 C 0.8036(3) 0.5965(6) 0.2630(5)
H27_4 H 0.8018 0.5779 0.2059
C38_4 C 0.7896(3) 0.5367(6) 0.3256(5)
H28_2 H 0.7783 0.4789 0.3105
C27_4 C 0.9523(4) 0.9804(9) 0.9180(9)
H17_4 H 0.9655 0.9355 0.8868
H18_4 H 0.8913 0.9917 0.8367
W2_4 W 0.84326(2) 0.75132(2) 0.73851(2)
N15_4 N 0.7988(2) 0.9313(4) 0.8282(4)
N18_4 N 0.8989(3) 0.6796(6) 0.5811(6)
N19_4 N 0.8862(4) 0.5467(8) 0.7880(7)
N20_4 N 0.7816(3) 0.6936(4) 0.8945(4)
N21_4 N 0.9154(4) 0.7629(6) 0.9168(6)
N22_4 N 0.9184(3) 0.9164(6) 0.7136(5)
O8_4 O 0.7492(2) 0.8701(4) 0.9561(4)
H19_4 H 0.7588 0.8244 0.9325
C39_4 C 0.8134(3) 0.8691(5) 0.7935(5)
C40_4 C 0.8114(3) 0.8295(6) 0.6281(5)
C41_4 C 0.7903(3) 0.6644(6) 0.6720(5)
C42_4 C 0.8801(4) 0.7046(6) 0.6348(6)
C43_4 C 0.8710(4) 0.6160(7) 0.7713(6)
C44_4 C 0.8021(3) 0.7098(5) 0.8373(5)
C45_4 C 0.8899(3) 0.7623(6) 0.8563(6)
C46_4 C 0.8927(3) 0.8567(6) 0.7209(6)
H28_3 H 0.7217 0.9789 0.1895
H10_4 H 0.7217 0.0211 0.6895
H28_4 H 0.2783 0.9789 0.3105
loop_
_geom_bond_atom_site_label_1
_geom_bond_atom_site_label_2
_geom_bond_site_symmetry_1
_geom_bond_site_symmetry_2
W1 C16 1_555 1_555
Er1 N4 1_555 1_555
N1 O1 1_555 1_555
N2 O2 1_555 1_555
N3 O3 1_555 1_555
N4 C16 1_555 1_555
N5 C17 1_555 1_555
N6 C18 1_555 1_555
N7 C19 1_555 1_555
N8 C20 1_555 1_555
N9 C21 1_555 1_555
N10 C22 1_555 1_555
N11 C23 1_555 1_555
O1 Er1 1_555 1_555
O3 Er1 1_555 1_555
O4 Er1 1_555 1_555
H1 O4 1_555 1_555
H2 O4 1_555 1_555
C1 N1 1_555 1_555
H3 C1 1_555 1_555
C2 C1 1_555 1_555
H4 C2 1_555 1_555
C3 C2 1_555 1_555
C4 C3 1_555 1_555
H5 C4 1_555 1_555
C5 N1 1_555 1_555
H6 C5 1_555 1_555
C6 N2 1_555 1_555
H7 C6 1_555 1_555
C7 C6 1_555 1_555
H8 C7 1_555 1_555
C8 C3 1_555 1_555
C9 C8 1_555 1_555
H9 C9 1_555 1_555
C10 N2 1_555 1_555
C11 N3 1_555 1_555
H11 C11 1_555 1_555
C12 C11 1_555 1_555
H12 C12 1_555 1_555
C13 C12 1_555 1_555
C14 C13 1_555 1_555
H13 C14 1_555 1_555
C15 N3 1_555 1_555
H14 C15 1_555 1_555
C17 W1 1_555 1_555
C18 W1 1_555 1_555
C19 W1 1_555 1_555
C20 W1 1_555 1_555
C21 W1 1_555 1_555
C22 W1 1_555 1_555
C23 W1 1_555 1_555
N12 O5 1_555 1_555
O5 Er2 1_555 1_555
C24 N12 1_555 1_555
H15 C24 1_555 1_555
C25 C24 1_555 1_555
H16 C25 1_555 1_555
C26 C13 1_555 1_555
C27 C26 1_555 1_555
H17 C27 1_555 1_555
C28 N12 1_555 1_555
H18 C28 1_555 1_555
W2 C39 1_555 1_555
Er2 N15 1_555 1_555
N13 O6 1_555 1_555
N14 O7 1_555 1_555
N15 C39 1_555 1_555
N16 C40 1_555 1_555
N17 C41 1_555 1_555
N18 C42 1_555 1_555
N19 C43 1_555 1_555
N20 C44 1_555 1_555
N21 C45 1_555 1_555
N22 C46 1_555 1_555
O6 Er2 1_555 1_555
O8 Er2 1_555 1_555
H19 O8 1_555 1_555
H20 O8 1_555 1_555
C29 N13 1_555 1_555
H21 C29 1_555 1_555
C30 C29 1_555 1_555
H22 C30 1_555 1_555
C31 C30 1_555 1_555
C32 C31 1_555 1_555
H23 C32 1_555 1_555
C33 N13 1_555 1_555
H24 C33 1_555 1_555
C34 N14 1_555 1_555
H25 C34 1_555 1_555
C35 C34 1_555 1_555
H26 C35 1_555 1_555
C36 C31 1_555 1_555
C37 C36 1_555 1_555
H27 C37 1_555 1_555
C38 N14 1_555 1_555
C40 W2 1_555 1_555
C41 W2 1_555 1_555
C42 W2 1_555 1_555
C43 W2 1_555 1_555
C44 W2 1_555 1_555
C45 W2 1_555 1_555
C46 W2 1_555 1_555
Er5 N6 1_555 1_555
Er8 N17 1_555 1_555
N23 Er2 1_555 1_555
N24 Er1 1_555 1_555
N25 Er1 1_555 1_555
N26 Er2 1_555 1_555
O9 Er1 1_555 1_555
O10 Er2 1_555 1_555
C4 C5 1_555 1_555
C7 C8 1_555 1_555
C9 C10 1_555 1_555
C14 C15 1_555 1_555
C25 C26 1_555 1_555
C27 C28 1_555 1_555
C32 C33 1_555 1_555
C35 C36 1_555 1_555
C37 C38 1_555 1_555
W1_2 C16_2 1_555 1_555
Er3 N4_2 1_555 1_555
N3_2 O3_2 1_555 1_555
N4_2 C16_2 1_555 1_555
N23 C17_2 1_555 1_555
N6_2 C18_2 1_555 1_555
N7_2 C19_2 1_555 1_555
N8_2 C20_2 1_555 1_555
N9_2 C21_2 1_555 1_555
N10_2 C22_2 1_555 1_555
N11_2 C23_2 1_555 1_555
O3_2 Er3 1_555 1_555
O4_2 Er3 1_555 1_555
H1_2 O4_2 1_555 1_555
C14_2 C13_2 1_555 1_555
H13_2 C14_2 1_555 1_555
C15_2 N3_2 1_555 1_555
H14_2 C15_2 1_555 1_555
C17_2 W1_2 1_555 1_555
C18_2 W1_2 1_555 1_555
C19_2 W1_2 1_555 1_555
C20_2 W1_2 1_555 1_555
C21_2 W1_2 1_555 1_555
C22_2 W1_2 1_555 1_555
C23_2 W1_2 1_555 1_555
H15_2 C24_2 1_555 1_555
C25_2 C24_2 1_555 1_555
H16_2 C25_2 1_555 1_555
N13_2 O6_2 1_555 1_555
N14_2 O7_2 1_555 1_555
O7_2 Er7 1_555 1_555
C29_2 N13_2 1_555 1_555
H21_2 C29_2 1_555 1_555
C30_2 C29_2 1_555 1_555
H22_2 C30_2 1_555 1_555
C31_2 C30_2 1_555 1_555
C32_2 C31_2 1_555 1_555
H23_2 C32_2 1_555 1_555
C33_2 N13_2 1_555 1_555
H24_2 C33_2 1_555 1_555
C34_2 N14_2 1_555 1_555
H25_2 C34_2 1_555 1_555
C35_2 C34_2 1_555 1_555
H26_2 C35_2 1_555 1_555
C36_2 C31_2 1_555 1_555
C37_2 C36_2 1_555 1_555
H27_2 C37_2 1_555 1_555
C38_2 N14_2 1_555 1_555
Er4 N6_2 1_555 1_555
N25_2 Er3 1_555 1_555
C14_2 C15_2 1_555 1_555
C32_2 C33_2 1_555 1_555
C35_2 C36_2 1_555 1_555
C37_2 C38_2 1_555 1_555
N1_2 O1_2 1_555 1_555
N2_2 O2_2 1_555 1_555
O2_2 Er4 1_555 1_555
C1_2 N1_2 1_555 1_555
H3_2 C1_2 1_555 1_555
C2_2 C1_2 1_555 1_555
H4_2 C2_2 1_555 1_555
C3_2 C2_2 1_555 1_555
C4_2 C3_2 1_555 1_555
H5_2 C4_2 1_555 1_555
C5_2 N1_2 1_555 1_555
H6_2 C5_2 1_555 1_555
C6_2 N2_2 1_555 1_555
H7_2 C6_2 1_555 1_555
C7_2 C6_2 1_555 1_555
H8_2 C7_2 1_555 1_555
C8_2 C3_2 1_555 1_555
C9_2 C8_2 1_555 1_555
H9_2 C9_2 1_555 1_555
C10_2 N2_2 1_555 1_555
H11_2 C11_2 1_555 1_555
C12_2 C11_2 1_555 1_555
H12_2 C12_2 1_555 1_555
N12_2 O5_2 1_555 1_555
O5_2 Er6 1_555 1_555
C27_2 C26_2 1_555 1_555
H17_2 C27_2 1_555 1_555
C28_2 N12_2 1_555 1_555
H18_2 C28_2 1_555 1_555
W2_2 C39_2 1_555 1_555
Er6 N15_2 1_555 1_555
N15_2 C39_2 1_555 1_555
N24 C40_2 1_555 1_555
N17_2 C41_2 1_555 1_555
N18_2 C42_2 1_555 1_555
N19_2 C43_2 1_555 1_555
N20_2 C44_2 1_555 1_555
N21_2 C45_2 1_555 1_555
N22_2 C46_2 1_555 1_555
O8_2 Er6 1_555 1_555
H19_2 O8_2 1_555 1_555
C40_2 W2_2 1_555 1_555
C41_2 W2_2 1_555 1_555
C42_2 W2_2 1_555 1_555
C43_2 W2_2 1_555 1_555
C44_2 W2_2 1_555 1_555
C45_2 W2_2 1_555 1_555
C46_2 W2_2 1_555 1_555
Er7 N17_2 1_555 1_555
N26_2 Er6 1_555 1_555
C4_2 C5_2 1_555 1_555
C7_2 C8_2 1_555 1_555
C9_2 C10_2 1_555 1_555
C27_2 C28_2 1_555 1_555
N12_3 O5_3 1_555 1_555
O5_3 Er7 1_555 1_555
C24_3 N12_3 1_555 1_555
H15_3 C24_3 1_555 1_555
C25_3 C24_3 1_555 1_555
H16_3 C25_3 1_555 1_555
C28_3 N12_3 1_555 1_555
N23_2 Er7 1_555 1_555
C25_3 C26_3 1_555 1_555
H17_3 C27_3 1_555 1_555
W2_3 C39_3 1_555 1_555
N13_3 O6_3 1_555 1_555
N14_3 O10_2 1_555 1_555
N15_3 C39_3 1_555 1_555
N16_2 C40_3 1_555 1_555
N26_2 C41_3 1_555 1_555
N18_3 C42_3 1_555 1_555
N19_3 C43_3 1_555 1_555
N20_3 C44_3 1_555 1_555
N21_3 C45_3 1_555 1_555
N22_3 C46_3 1_555 1_555
H19_3 O8_3 1_555 1_555
H20_3 O8_3 1_555 1_555
C29_3 N13_3 1_555 1_555
H21_3 C29_3 1_555 1_555
C30_3 C29_3 1_555 1_555
H22_3 C30_3 1_555 1_555
C31_3 C30_3 1_555 1_555
C32_3 C31_3 1_555 1_555
H23_3 C32_3 1_555 1_555
C33_3 N13_3 1_555 1_555
H24_3 C33_3 1_555 1_555
C34_3 N14_3 1_555 1_555
H25_3 C34_3 1_555 1_555
C35_3 C34_3 1_555 1_555
H26_3 C35_3 1_555 1_555
C36_3 C31_3 1_555 1_555
C37_3 C36_3 1_555 1_555
H27_3 C37_3 1_555 1_555
C38_3 N14_3 1_555 1_555
H28 C38_3 1_555 1_555
C40_3 W2_3 1_555 1_555
C41_3 W2_3 1_555 1_555
C42_3 W2_3 1_555 1_555
C43_3 W2_3 1_555 1_555
C44_3 W2_3 1_555 1_555
C45_3 W2_3 1_555 1_555
C46_3 W2_3 1_555 1_555
C32_3 C33_3 1_555 1_555
C35_3 C36_3 1_555 1_555
C37_3 C38_3 1_555 1_555
W1_3 C16_3 1_555 1_555
N1_3 O1_3 1_555 1_555
N2_3 O9_2 1_555 1_555
N4_3 C16_3 1_555 1_555
N5_2 C17_3 1_555 1_555
N25_2 C18_3 1_555 1_555
N7_3 C19_3 1_555 1_555
N8_3 C20_3 1_555 1_555
N9_3 C21_3 1_555 1_555
N10_3 C22_3 1_555 1_555
N11_3 C23_3 1_555 1_555
H1_3 O4_3 1_555 1_555
H2_3 O4_3 1_555 1_555
C1_3 N1_3 1_555 1_555
H3_3 C1_3 1_555 1_555
C2_3 C1_3 1_555 1_555
H4_3 C2_3 1_555 1_555
C3_3 C2_3 1_555 1_555
C4_3 C3_3 1_555 1_555
H5_3 C4_3 1_555 1_555
C5_3 N1_3 1_555 1_555
H6_3 C5_3 1_555 1_555
C6_3 N2_3 1_555 1_555
H7_3 C6_3 1_555 1_555
C7_3 C6_3 1_555 1_555
H8_3 C7_3 1_555 1_555
C8_3 C3_3 1_555 1_555
C9_3 C8_3 1_555 1_555
H9_3 C9_3 1_555 1_555
C10_3 N2_3 1_555 1_555
H10_2 C10_3 1_555 1_555
H13_3 C14_3 1_555 1_555
C17_3 W1_3 1_555 1_555
C18_3 W1_3 1_555 1_555
C19_3 W1_3 1_555 1_555
C20_3 W1_3 1_555 1_555
C21_3 W1_3 1_555 1_555
C22_3 W1_3 1_555 1_555
C23_3 W1_3 1_555 1_555
C4_3 C5_3 1_555 1_555
C7_3 C8_3 1_555 1_555
C9_3 C10_3 1_555 1_555
N3_3 O3_3 1_555 1_555
O3_3 Er4 1_555 1_555
C11_3 N3_3 1_555 1_555
H11_3 C11_3 1_555 1_555
C12_3 C11_3 1_555 1_555
H12_3 C12_3 1_555 1_555
C13_3 C12_3 1_555 1_555
C15_3 N3_3 1_555 1_555
N24_2 Er4 1_555 1_555
W1_4 C16_4 1_555 1_555
N4_4 C16_4 1_555 1_555
N23_2 C17_4 1_555 1_555
N25 C18_4 1_555 1_555
N7_4 C19_4 1_555 1_555
N8_4 C20_4 1_555 1_555
N9_4 C21_4 1_555 1_555
N10_4 C22_4 1_555 1_555
N11_4 C23_4 1_555 1_555
H1_4 O4_4 1_555 1_555
H13_4 C14_4 1_555 1_555
C17_4 W1_4 1_555 1_555
C18_4 W1_4 1_555 1_555
C19_4 W1_4 1_555 1_555
C20_4 W1_4 1_555 1_555
C21_4 W1_4 1_555 1_555
C22_4 W1_4 1_555 1_555
C23_4 W1_4 1_555 1_555
N1_4 O1_4 1_555 1_555
N2_4 O9 1_555 1_555
C1_4 N1_4 1_555 1_555
H3_4 C1_4 1_555 1_555
C2_4 C1_4 1_555 1_555
H4_4 C2_4 1_555 1_555
C3_4 C2_4 1_555 1_555
C4_4 C3_4 1_555 1_555
H5_4 C4_4 1_555 1_555
C5_4 N1_4 1_555 1_555
H6_4 C5_4 1_555 1_555
C6_4 N2_4 1_555 1_555
H7_4 C6_4 1_555 1_555
C7_4 C6_4 1_555 1_555
H8_4 C7_4 1_555 1_555
C8_4 C3_4 1_555 1_555
C9_4 C8_4 1_555 1_555
H9_4 C9_4 1_555 1_555
C10_4 N2_4 1_555 1_555
H10_3 C10_4 1_555 1_555
C4_4 C5_4 1_555 1_555
C7_4 C8_4 1_555 1_555
C9_4 C10_4 1_555 1_555
N3_4 O3_4 1_555 1_555
O3_4 Er5 1_555 1_555
C15_4 N3_4 1_555 1_555
H11_4 C11_4 1_555 1_555
C12_4 C11_4 1_555 1_555
H12_4 C12_4 1_555 1_555
H15_4 C24_4 1_555 1_555
C25_4 C24_4 1_555 1_555
H16_4 C25_4 1_555 1_555
N12_4 O5_4 1_555 1_555
O5_4 Er8 1_555 1_555
C28_4 N12_4 1_555 1_555
N13_4 O6_4 1_555 1_555
N14_4 O10 1_555 1_555
C29_4 N13_4 1_555 1_555
H21_4 C29_4 1_555 1_555
C30_4 C29_4 1_555 1_555
H22_4 C30_4 1_555 1_555
C31_4 C30_4 1_555 1_555
C32_4 C31_4 1_555 1_555
H23_4 C32_4 1_555 1_555
C33_4 N13_4 1_555 1_555
H24_4 C33_4 1_555 1_555
C34_4 N14_4 1_555 1_555
H25_4 C34_4 1_555 1_555
C35_4 C34_4 1_555 1_555
H26_4 C35_4 1_555 1_555
C36_4 C31_4 1_555 1_555
C37_4 C36_4 1_555 1_555
H27_4 C37_4 1_555 1_555
C38_4 N14_4 1_555 1_555
H28_2 C38_4 1_555 1_555
C32_4 C33_4 1_555 1_555
C35_4 C36_4 1_555 1_555
C37_4 C38_4 1_555 1_555
H17_4 C27_4 1_555 1_555
W2_4 C39_4 1_555 1_555
N15_4 C39_4 1_555 1_555
N24_2 C40_4 1_555 1_555
N26 C41_4 1_555 1_555
N18_4 C42_4 1_555 1_555
N19_4 C43_4 1_555 1_555
N20_4 C44_4 1_555 1_555
N21_4 C45_4 1_555 1_555
N22_4 C46_4 1_555 1_555
H19_4 O8_4 1_555 1_555
C40_4 W2_4 1_555 1_555
C41_4 W2_4 1_555 1_555
C42_4 W2_4 1_555 1_555
C43_4 W2_4 1_555 1_555
C44_4 W2_4 1_555 1_555
C45_4 W2_4 1_555 1_555
C46_4 W2_4 1_555 1_555

#END
