
###############################################################################
#
# This file contains modified crystal structure data generated from the
# MOF subset of the Cambridge Structural Database (CSD) v543 
# hosted by the Cambridge Crystallographic Data Centre (CCDC).
#
# This work is licensed under the Creative Commons
# Attribution-NonCommercial-ShareAlike 4.0 International License.
# To view a copy of this license, visit
# http://creativecommons.org/licenses/by-nc-sa/4.0/
# or send a letter to
# Creative Commons, PO Box 1866, Mountain View, CA 94042, USA.
#
# CIF created using the CSD Python API on 29 September 2022
# The structure has been converted into the P1 space group
# The structure has a 3D framework
# The original CSD entry ZEJWOD is in the monoclinic crystal system
# The framework has been calculated to contain at least 10.0% void space
# The void calculation uses a probe of radius 1.32A, grid spacing 0.4
#
###############################################################################

data_ZEJWOD
_chemical_formula_moiety         '(C184 H112 Gd8 N88 O32 W8)n'
_symmetry_cell_setting           triclinic
_symmetry_space_group_name_H-M   'P 1'
_symmetry_Int_Tables_number      1
_space_group_name_Hall           'P 1'
loop_
_symmetry_equiv_pos_site_id
_symmetry_equiv_pos_as_xyz
1 x,y,z
_cell_length_a                   29.3392(15)
_cell_length_b                   15.0250(8)
_cell_length_c                   15.9856(8)
_cell_angle_alpha                90
_cell_angle_beta                 97.9120(10)
_cell_angle_gamma                90
_cell_volume                     6979.71
loop_
_atom_site_label
_atom_site_type_symbol
_atom_site_fract_x
_atom_site_fract_y
_atom_site_fract_z
H10 H 0.7148 0.0125 0.1912
Gd6 Gd 0.72305(2) 0.51509(2) 0.03922(2)
Gd8 Gd 0.22305(2) 0.01509(2) 0.03922(2)
W1 W 0.66000(2) 0.74058(2) 0.75671(2)
Gd1 Gd 0.72305(2) 0.48491(2) 0.53922(2)
N1 N 0.66363(18) 0.6183(4) 0.3997(3)
N2 N 0.7031(2) 0.9304(5) 0.0947(5)
N3 N 0.61483(18) 0.4355(4) 0.5518(3)
N4 N 0.7050(2) 0.5671(4) 0.6690(3)
N5 N 0.7063(2) 0.6264(4) 0.9251(3)
N6 N 0.7382(2) 0.8729(4) 0.8643(4)
N7 N 0.6020(3) 0.8104(5) 0.9076(4)
N8 N 0.6170(3) 0.9404(5) 0.7072(6)
N9 N 0.7217(2) 0.8023(4) 0.6085(4)
N10 N 0.5881(2) 0.7262(5) 0.5786(4)
N11 N 0.5849(2) 0.5803(4) 0.7819(4)
O1 O 0.66279(16) 0.5575(3) 0.4607(3)
O2 O 0.7162(2) 0.9865(4) 0.0374(4)
O3 O 0.65880(15) 0.4117(3) 0.5709(3)
O4 O 0.75378(17) 0.6307(3) 0.5380(3)
H1 H 0.7441 0.6764 0.5615
H2 H 0.7621 0.6467 0.4914
C1 C 0.6736(2) 0.5920(4) 0.3242(4)
H3 H 0.6788 0.5322 0.3141
C2 C 0.6759(2) 0.6539(4) 0.2619(4)
H4 H 0.6824 0.6349 0.2095
C3 C 0.6689(2) 0.7446(4) 0.2747(4)
C4 C 0.6569(3) 0.7679(5) 0.3535(4)
H5 H 0.6503 0.8270 0.3645
C5 C 0.6547(2) 0.7042(5) 0.4157(4)
H6 H 0.6471 0.7206 0.4681
C6 C 0.6872(3) 0.8506(6) 0.0694(6)
H7 H 0.6849 0.8351 0.0127
C7 C 0.6743(3) 0.7908(5) 0.1267(5)
H8 H 0.6627 0.7355 0.1082
C8 C 0.6782(2) 0.8117(5) 0.2113(4)
C9 C 0.6931(3) 0.8960(5) 0.2356(5)
H9 H 0.6951 0.9132 0.2919
C10 C 0.7052(3) 0.9552(6) 0.1752(7)
C11 C 0.5902(3) 0.4016(6) 0.4846(4)
H11 H 0.6031 0.3598 0.4520
C12 C 0.5461(3) 0.4278(6) 0.4631(5)
H12 H 0.5298 0.4055 0.4135
C13 C 0.5239(2) 0.4862(4) 0.5110(4)
C14 C 0.5513(3) 0.5176(6) 0.5814(5)
H13 H 0.5389 0.5575 0.6166
C15 C 0.5963(3) 0.4919(6) 0.6013(5)
H14 H 0.6139 0.5141 0.6497
C16 C 0.6903(2) 0.6263(4) 0.7026(4)
C17 C 0.6917(2) 0.6668(4) 0.8654(4)
C18 C 0.7118(3) 0.8247(5) 0.8255(4)
C19 C 0.6221(3) 0.7863(5) 0.8550(4)
C20 C 0.6323(3) 0.8724(5) 0.7241(4)
C21 C 0.7013(2) 0.7841(4) 0.6619(4)
C22 C 0.6127(3) 0.7294(5) 0.6407(4)
C23 C 0.6112(2) 0.6371(5) 0.7730(4)
N12 N 0.38517(18) 0.5645(4) 0.4482(3)
O5 O 0.34120(15) 0.5883(3) 0.4291(3)
C24 C 0.4098(3) 0.5984(6) 0.5154(4)
H15 H 0.3969 0.6402 0.5480
C25 C 0.4539(3) 0.5722(6) 0.5369(5)
H16 H 0.4702 0.5945 0.5865
C26 C 0.4761(2) 0.5138(4) 0.4890(4)
C27 C 0.4487(3) 0.4824(6) 0.4186(5)
H17 H 0.4611 0.4425 0.3834
C28 C 0.4037(3) 0.5081(6) 0.3987(5)
H18 H 0.3861 0.4859 0.3503
W2 W 0.34000(2) 0.25942(2) 0.24329(2)
Gd2 Gd 0.27695(2) 0.51509(2) 0.46078(2)
N13 N 0.33637(18) 0.3817(4) 0.6003(3)
N14 N 0.2969(2) 0.0696(5) 0.9053(5)
N15 N 0.2950(2) 0.4329(4) 0.3310(3)
N16 N 0.2937(2) 0.3736(4) 0.0749(3)
N17 N 0.2618(2) 0.1271(4) 0.1357(4)
N18 N 0.3980(3) 0.1896(5) 0.0924(4)
N19 N 0.3830(3) 0.0596(5) 0.2928(6)
N20 N 0.2783(2) 0.1977(4) 0.3915(4)
N21 N 0.4119(2) 0.2738(5) 0.4214(4)
N22 N 0.4151(2) 0.4197(4) 0.2181(4)
O6 O 0.33721(16) 0.4425(3) 0.5393(3)
O7 O 0.2838(2) 0.0135(4) 0.9626(4)
O8 O 0.24622(17) 0.3693(3) 0.4620(3)
H19 H 0.2559 0.3236 0.4385
H20 H 0.2379 0.3533 0.5086
C29 C 0.3264(2) 0.4080(4) 0.6758(4)
H21 H 0.3212 0.4678 0.6859
C30 C 0.3241(2) 0.3461(4) 0.7381(4)
H22 H 0.3176 0.3651 0.7905
C31 C 0.3311(2) 0.2554(4) 0.7253(4)
C32 C 0.3431(3) 0.2321(5) 0.6465(4)
H23 H 0.3497 0.1730 0.6355
C33 C 0.3453(2) 0.2958(5) 0.5843(4)
H24 H 0.3529 0.2794 0.5319
C34 C 0.3128(3) 0.1494(6) 0.9306(6)
H25 H 0.3151 0.1649 0.9873
C35 C 0.3257(3) 0.2092(5) 0.8733(5)
H26 H 0.3373 0.2645 0.8918
C36 C 0.3218(2) 0.1883(5) 0.7887(4)
C37 C 0.3069(3) 0.1040(5) 0.7644(5)
H27 H 0.3049 0.0868 0.7081
C38 C 0.2948(3) 0.0448(6) 0.8248(7)
C39 C 0.3097(2) 0.3737(4) 0.2974(4)
C40 C 0.3083(2) 0.3332(4) 0.1346(4)
C41 C 0.2882(3) 0.1753(5) 0.1745(4)
C42 C 0.3779(3) 0.2137(5) 0.1450(4)
C43 C 0.3677(3) 0.1276(5) 0.2759(4)
C44 C 0.2987(2) 0.2159(4) 0.3381(4)
C45 C 0.3873(3) 0.2706(5) 0.3593(4)
C46 C 0.3888(2) 0.3629(5) 0.2270(4)
Gd5 Gd 0.77695(2) 0.98491(2) 0.96078(2)
N23 N 0.2937(2) 0.6264(4) 0.5749(3)
N24 N 0.7063(2) 0.3736(4) 0.4251(3)
N25 N 0.7618(2) 0.3729(4) 0.6357(4)
N26 N 0.2382(2) 0.6271(4) 0.3643(4)
O9 O 0.7838(2) 0.4865(4) 0.4626(4)
O10 O 0.2162(2) 0.5135(4) 0.5374(4)
Gd3 Gd 0.27695(2) 0.48491(2) 0.96078(2)
N1_2 N 0.33637(18) 0.6183(4) 0.1003(3)
N2_2 N 0.2969(2) 0.9304(5) 0.4053(5)
O1_2 O 0.33721(16) 0.5575(3) 0.0393(3)
O2_2 O 0.2838(2) 0.9865(4) 0.4626(4)
H2_2 H 0.2379 0.6467 0.0086
C1_2 C 0.3264(2) 0.5920(4) 0.1758(4)
H3_2 H 0.3212 0.5322 0.1859
C2_2 C 0.3241(2) 0.6539(4) 0.2381(4)
H4_2 H 0.3176 0.6349 0.2905
C3_2 C 0.3311(2) 0.7446(4) 0.2253(4)
C4_2 C 0.3431(3) 0.7679(5) 0.1465(4)
H5_2 H 0.3497 0.8270 0.1355
C5_2 C 0.3453(2) 0.7042(5) 0.0843(4)
H6_2 H 0.3529 0.7206 0.0319
C6_2 C 0.3128(3) 0.8506(6) 0.4306(6)
H7_2 H 0.3151 0.8351 0.4873
C7_2 C 0.3257(3) 0.7908(5) 0.3733(5)
H8_2 H 0.3373 0.7355 0.3918
C8_2 C 0.3218(2) 0.8117(5) 0.2887(4)
C9_2 C 0.3069(3) 0.8960(5) 0.2644(5)
H9_2 H 0.3049 0.9132 0.2081
C10_2 C 0.2948(3) 0.9552(6) 0.3248(7)
C11_2 C 0.4098(3) 0.4016(6) 0.0154(4)
H11_2 H 0.3969 0.3598 0.0480
C12_2 C 0.4539(3) 0.4278(6) 0.0369(5)
H12_2 H 0.4702 0.4055 0.0865
N12_2 N 0.61483(18) 0.5645(4) 0.0518(3)
O5_2 O 0.65880(15) 0.5883(3) 0.0709(3)
C26_2 C 0.5239(2) 0.5138(4) 0.0110(4)
C27_2 C 0.5513(3) 0.4824(6) 0.0814(5)
H17_2 H 0.5389 0.4425 0.1166
C28_2 C 0.5963(3) 0.5081(6) 0.1013(5)
H18_2 H 0.6139 0.4859 0.1497
W2_2 W 0.66000(2) 0.25942(2) 0.25671(2)
N15_2 N 0.7050(2) 0.4329(4) 0.1690(3)
N17_2 N 0.7382(2) 0.1271(4) 0.3643(4)
N18_2 N 0.6020(3) 0.1896(5) 0.4076(4)
N19_2 N 0.6170(3) 0.0596(5) 0.2072(6)
N20_2 N 0.7217(2) 0.1977(4) 0.1085(4)
N21_2 N 0.5881(2) 0.2738(5) 0.0786(4)
N22_2 N 0.5849(2) 0.4197(4) 0.2819(4)
O8_2 O 0.75378(17) 0.3693(3) 0.0380(3)
H19_2 H 0.7441 0.3236 0.0615
C39_2 C 0.6903(2) 0.3737(4) 0.2026(4)
C40_2 C 0.6917(2) 0.3332(4) 0.3654(4)
C41_2 C 0.7118(3) 0.1753(5) 0.3255(4)
C42_2 C 0.6221(3) 0.2137(5) 0.3550(4)
C43_2 C 0.6323(3) 0.1276(5) 0.2241(4)
C44_2 C 0.7013(2) 0.2159(4) 0.1619(4)
C45_2 C 0.6127(3) 0.2706(5) 0.1407(4)
C46_2 C 0.6112(2) 0.3629(5) 0.2730(4)
Gd4 Gd 0.22305(2) 0.98491(2) 0.53922(2)
Gd7 Gd 0.77695(2) 0.01509(2) 0.46078(2)
N26_2 N 0.7618(2) 0.6271(4) 0.1357(4)
O9_2 O 0.2162(2) 0.4865(4) 0.0374(4)
W1_2 W 0.34000(2) 0.74058(2) 0.74329(2)
N3_2 N 0.38517(18) 0.4355(4) 0.9482(3)
N4_2 N 0.2950(2) 0.5671(4) 0.8310(3)
N6_2 N 0.2618(2) 0.8729(4) 0.6357(4)
N7_2 N 0.3980(3) 0.8104(5) 0.5924(4)
N8_2 N 0.3830(3) 0.9404(5) 0.7928(6)
N9_2 N 0.2783(2) 0.8023(4) 0.8915(4)
N10_2 N 0.4119(2) 0.7262(5) 0.9214(4)
N11_2 N 0.4151(2) 0.5803(4) 0.7181(4)
O3_2 O 0.34120(15) 0.4117(3) 0.9291(3)
O4_2 O 0.24622(17) 0.6307(3) 0.9620(3)
H1_2 H 0.2559 0.6764 0.9385
C13_2 C 0.4761(2) 0.4862(4) 0.9890(4)
C14_2 C 0.4487(3) 0.5176(6) 0.9186(5)
H13_2 H 0.4611 0.5575 0.8834
C15_2 C 0.4037(3) 0.4919(6) 0.8987(5)
H14_2 H 0.3861 0.5141 0.8503
C16_2 C 0.3097(2) 0.6263(4) 0.7974(4)
C17_2 C 0.3083(2) 0.6668(4) 0.6346(4)
C18_2 C 0.2882(3) 0.8247(5) 0.6745(4)
C19_2 C 0.3779(3) 0.7863(5) 0.6450(4)
C20_2 C 0.3677(3) 0.8724(5) 0.7759(4)
C21_2 C 0.2987(2) 0.7841(4) 0.8381(4)
C22_2 C 0.3873(3) 0.7294(5) 0.8593(4)
C23_2 C 0.3888(2) 0.6371(5) 0.7270(4)
C24_2 C 0.5902(3) 0.5984(6) 0.9846(4)
H15_2 H 0.6031 0.6402 0.9520
C25_2 C 0.5461(3) 0.5722(6) 0.9631(5)
H16_2 H 0.5298 0.5945 0.9135
N13_2 N 0.66363(18) 0.3817(4) 0.8997(3)
N14_2 N 0.7031(2) 0.0696(5) 0.5947(5)
O6_2 O 0.66279(16) 0.4425(3) 0.9607(3)
O7_2 O 0.7162(2) 0.0135(4) 0.5374(4)
H20_2 H 0.7621 0.3533 0.9914
C29_2 C 0.6736(2) 0.4080(4) 0.8242(4)
H21_2 H 0.6788 0.4678 0.8141
C30_2 C 0.6759(2) 0.3461(4) 0.7619(4)
H22_2 H 0.6824 0.3651 0.7095
C31_2 C 0.6689(2) 0.2554(4) 0.7747(4)
C32_2 C 0.6569(3) 0.2321(5) 0.8535(4)
H23_2 H 0.6503 0.1730 0.8645
C33_2 C 0.6547(2) 0.2958(5) 0.9157(4)
H24_2 H 0.6471 0.2794 0.9681
C34_2 C 0.6872(3) 0.1494(6) 0.5694(6)
H25_2 H 0.6849 0.1649 0.5127
C35_2 C 0.6743(3) 0.2092(5) 0.6267(5)
H26_2 H 0.6627 0.2645 0.6082
C36_2 C 0.6782(2) 0.1883(5) 0.7113(4)
C37_2 C 0.6931(3) 0.1040(5) 0.7356(5)
H27_2 H 0.6951 0.0868 0.7919
C38_2 C 0.7052(3) 0.0448(6) 0.6752(7)
N25_2 N 0.2382(2) 0.3729(4) 0.8643(4)
O10_2 O 0.7838(2) 0.5135(4) 0.9626(4)
W1_3 W 0.16000(2) 0.24058(2) 0.75671(2)
N1_3 N 0.16363(18) 0.1183(4) 0.3997(3)
N2_3 N 0.2031(2) 0.4304(5) 0.0947(5)
N4_3 N 0.2050(2) 0.0671(4) 0.6690(3)
N5_2 N 0.2063(2) 0.1264(4) 0.9251(3)
N7_3 N 0.1020(3) 0.3104(5) 0.9076(4)
N8_3 N 0.1170(3) 0.4404(5) 0.7072(6)
N9_3 N 0.2217(2) 0.3023(4) 0.6085(4)
N10_3 N 0.0881(2) 0.2262(5) 0.5786(4)
N11_3 N 0.0849(2) 0.0803(4) 0.7819(4)
O1_3 O 0.16279(16) 0.0575(3) 0.4607(3)
O4_3 O 0.25378(17) 0.1307(3) 0.5380(3)
H1_3 H 0.2441 0.1764 0.5615
H2_3 H 0.2621 0.1467 0.4914
C1_3 C 0.1736(2) 0.0920(4) 0.3242(4)
H3_3 H 0.1788 0.0322 0.3141
C2_3 C 0.1759(2) 0.1539(4) 0.2619(4)
H4_3 H 0.1824 0.1349 0.2095
C3_3 C 0.1689(2) 0.2446(4) 0.2747(4)
C4_3 C 0.1569(3) 0.2679(5) 0.3535(4)
H5_3 H 0.1503 0.3270 0.3645
C5_3 C 0.1547(2) 0.2042(5) 0.4157(4)
H6_3 H 0.1471 0.2206 0.4681
C6_3 C 0.1872(3) 0.3506(6) 0.0694(6)
H7_3 H 0.1849 0.3351 0.0127
C7_3 C 0.1743(3) 0.2908(5) 0.1267(5)
H8_3 H 0.1627 0.2355 0.1082
C8_3 C 0.1782(2) 0.3117(5) 0.2113(4)
C9_3 C 0.1931(3) 0.3960(5) 0.2356(5)
H9_3 H 0.1951 0.4132 0.2919
C10_3 C 0.2052(3) 0.4552(6) 0.1752(7)
H10_2 H 0.2148 0.5125 0.1912
C14_3 C 0.0513(3) 0.0176(6) 0.5814(5)
H13_3 H 0.0389 0.0575 0.6166
H14_3 H 0.1139 0.0141 0.6497
C16_3 C 0.1903(2) 0.1263(4) 0.7026(4)
C17_3 C 0.1917(2) 0.1668(4) 0.8654(4)
C18_3 C 0.2118(3) 0.3247(5) 0.8255(4)
C19_3 C 0.1221(3) 0.2863(5) 0.8550(4)
C20_3 C 0.1323(3) 0.3724(5) 0.7241(4)
C21_3 C 0.2013(2) 0.2841(4) 0.6619(4)
C22_3 C 0.1127(3) 0.2294(5) 0.6407(4)
C23_3 C 0.1112(2) 0.1371(5) 0.7730(4)
N3_3 N 0.11483(18) 0.9355(4) 0.5518(3)
O3_3 O 0.15880(15) 0.9117(3) 0.5709(3)
C11_3 C 0.0902(3) 0.9016(6) 0.4846(4)
H11_3 H 0.1031 0.8598 0.4520
C12_3 C 0.0461(3) 0.9278(6) 0.4631(5)
H12_3 H 0.0298 0.9055 0.4135
C13_3 C 0.0239(2) 0.9862(4) 0.5110(4)
C15_3 C 0.0963(3) 0.9919(6) 0.6013(5)
N24_2 N 0.2063(2) 0.8736(4) 0.4251(3)
N12_3 N 0.88517(18) 0.0645(4) 0.4482(3)
O5_3 O 0.84120(15) 0.0883(3) 0.4291(3)
C24_3 C 0.9098(3) 0.0984(6) 0.5154(4)
H15_3 H 0.8969 0.1402 0.5480
C25_3 C 0.9539(3) 0.0722(6) 0.5369(5)
H16_3 H 0.9702 0.0945 0.5865
C26_3 C 0.9761(2) 0.0138(4) 0.4890(4)
C28_3 C 0.9037(3) 0.0081(6) 0.3987(5)
N23_2 N 0.7937(2) 0.1264(4) 0.5749(3)
C27_3 C 0.9487(3) 0.9824(6) 0.4186(5)
H17_3 H 0.9611 0.9425 0.3834
H18_3 H 0.8861 0.9859 0.3503
W2_3 W 0.84000(2) 0.75942(2) 0.24329(2)
N13_3 N 0.83637(18) 0.8817(4) 0.6003(3)
N14_3 N 0.7969(2) 0.5696(5) 0.9053(5)
N15_3 N 0.7950(2) 0.9329(4) 0.3310(3)
N16_2 N 0.7937(2) 0.8736(4) 0.0749(3)
N18_3 N 0.8980(3) 0.6896(5) 0.0924(4)
N19_3 N 0.8830(3) 0.5596(5) 0.2928(6)
N20_3 N 0.7783(2) 0.6977(4) 0.3915(4)
N21_3 N 0.9119(2) 0.7738(5) 0.4214(4)
N22_3 N 0.9151(2) 0.9197(4) 0.2181(4)
O6_3 O 0.83721(16) 0.9425(3) 0.5393(3)
O8_3 O 0.74622(17) 0.8693(3) 0.4620(3)
H19_3 H 0.7559 0.8236 0.4385
H20_3 H 0.7379 0.8533 0.5086
C29_3 C 0.8264(2) 0.9080(4) 0.6758(4)
H21_3 H 0.8212 0.9678 0.6859
C30_3 C 0.8241(2) 0.8461(4) 0.7381(4)
H22_3 H 0.8176 0.8651 0.7905
C31_3 C 0.8311(2) 0.7554(4) 0.7253(4)
C32_3 C 0.8431(3) 0.7321(5) 0.6465(4)
H23_3 H 0.8497 0.6730 0.6355
C33_3 C 0.8453(2) 0.7958(5) 0.5843(4)
H24_3 H 0.8529 0.7794 0.5319
C34_3 C 0.8128(3) 0.6494(6) 0.9306(6)
H25_3 H 0.8151 0.6649 0.9873
C35_3 C 0.8257(3) 0.7092(5) 0.8733(5)
H26_3 H 0.8373 0.7645 0.8918
C36_3 C 0.8218(2) 0.6883(5) 0.7887(4)
C37_3 C 0.8069(3) 0.6040(5) 0.7644(5)
H27_3 H 0.8049 0.5868 0.7081
C38_3 C 0.7948(3) 0.5448(6) 0.8248(7)
H28 H 0.7852 0.4875 0.8088
C39_3 C 0.8097(2) 0.8737(4) 0.2974(4)
C40_3 C 0.8083(2) 0.8332(4) 0.1346(4)
C41_3 C 0.7882(3) 0.6753(5) 0.1745(4)
C42_3 C 0.8779(3) 0.7137(5) 0.1450(4)
C43_3 C 0.8677(3) 0.6276(5) 0.2759(4)
C44_3 C 0.7987(2) 0.7159(4) 0.3381(4)
C45_3 C 0.8873(3) 0.7706(5) 0.3593(4)
C46_3 C 0.8888(2) 0.8629(5) 0.2270(4)
N12_4 N 0.11483(18) 0.0645(4) 0.0518(3)
O5_4 O 0.15880(15) 0.0883(3) 0.0709(3)
C26_4 C 0.0239(2) 0.0138(4) 0.0110(4)
C28_4 C 0.0963(3) 0.0081(6) 0.1013(5)
C24_4 C 0.0902(3) 0.0984(6) 0.9846(4)
H15_4 H 0.1031 0.1402 0.9520
C25_4 C 0.0461(3) 0.0722(6) 0.9631(5)
H16_4 H 0.0298 0.0945 0.9135
C27_4 C 0.0513(3) 0.9824(6) 0.0814(5)
H17_4 H 0.0389 0.9425 0.1166
H18_4 H 0.1139 0.9859 0.1497
W2_4 W 0.16000(2) 0.75942(2) 0.25671(2)
N15_4 N 0.2050(2) 0.9329(4) 0.1690(3)
N18_4 N 0.1020(3) 0.6896(5) 0.4076(4)
N19_4 N 0.1170(3) 0.5596(5) 0.2072(6)
N20_4 N 0.2217(2) 0.6977(4) 0.1085(4)
N21_4 N 0.0881(2) 0.7738(5) 0.0786(4)
N22_4 N 0.0849(2) 0.9197(4) 0.2819(4)
O8_4 O 0.25378(17) 0.8693(3) 0.0380(3)
H19_4 H 0.2441 0.8236 0.0615
C39_4 C 0.1903(2) 0.8737(4) 0.2026(4)
C40_4 C 0.1917(2) 0.8332(4) 0.3654(4)
C41_4 C 0.2118(3) 0.6753(5) 0.3255(4)
C42_4 C 0.1221(3) 0.7137(5) 0.3550(4)
C43_4 C 0.1323(3) 0.6276(5) 0.2241(4)
C44_4 C 0.2013(2) 0.7159(4) 0.1619(4)
C45_4 C 0.1127(3) 0.7706(5) 0.1407(4)
C46_4 C 0.1112(2) 0.8629(5) 0.2730(4)
N13_4 N 0.16363(18) 0.8817(4) 0.8997(3)
N14_4 N 0.2031(2) 0.5696(5) 0.5947(5)
O6_4 O 0.16279(16) 0.9425(3) 0.9607(3)
H20_4 H 0.2621 0.8533 0.9914
C29_4 C 0.1736(2) 0.9080(4) 0.8242(4)
H21_4 H 0.1788 0.9678 0.8141
C30_4 C 0.1759(2) 0.8461(4) 0.7619(4)
H22_4 H 0.1824 0.8651 0.7095
C31_4 C 0.1689(2) 0.7554(4) 0.7747(4)
C32_4 C 0.1569(3) 0.7321(5) 0.8535(4)
H23_4 H 0.1503 0.6730 0.8645
C33_4 C 0.1547(2) 0.7958(5) 0.9157(4)
H24_4 H 0.1471 0.7794 0.9681
C34_4 C 0.1872(3) 0.6494(6) 0.5694(6)
H25_4 H 0.1849 0.6649 0.5127
C35_4 C 0.1743(3) 0.7092(5) 0.6267(5)
H26_4 H 0.1627 0.7645 0.6082
C36_4 C 0.1782(2) 0.6883(5) 0.7113(4)
C37_4 C 0.1931(3) 0.6040(5) 0.7356(5)
H27_4 H 0.1951 0.5868 0.7919
C38_4 C 0.2052(3) 0.5448(6) 0.6752(7)
H28_2 H 0.2148 0.4875 0.6912
N1_4 N 0.83637(18) 0.1183(4) 0.1003(3)
N2_4 N 0.7969(2) 0.4304(5) 0.4053(5)
O1_4 O 0.83721(16) 0.0575(3) 0.0393(3)
H2_4 H 0.7379 0.1467 0.0086
C1_4 C 0.8264(2) 0.0920(4) 0.1758(4)
H3_4 H 0.8212 0.0322 0.1859
C2_4 C 0.8241(2) 0.1539(4) 0.2381(4)
H4_4 H 0.8176 0.1349 0.2905
C3_4 C 0.8311(2) 0.2446(4) 0.2253(4)
C4_4 C 0.8431(3) 0.2679(5) 0.1465(4)
H5_4 H 0.8497 0.3270 0.1355
C5_4 C 0.8453(2) 0.2042(5) 0.0843(4)
H6_4 H 0.8529 0.2206 0.0319
C6_4 C 0.8128(3) 0.3506(6) 0.4306(6)
H7_4 H 0.8151 0.3351 0.4873
C7_4 C 0.8257(3) 0.2908(5) 0.3733(5)
H8_4 H 0.8373 0.2355 0.3918
C8_4 C 0.8218(2) 0.3117(5) 0.2887(4)
C9_4 C 0.8069(3) 0.3960(5) 0.2644(5)
H9_4 H 0.8049 0.4132 0.2081
C10_4 C 0.7948(3) 0.4552(6) 0.3248(7)
H10_3 H 0.7852 0.5125 0.3088
W1_4 W 0.84000(2) 0.24058(2) 0.74329(2)
N4_4 N 0.7950(2) 0.0671(4) 0.8310(3)
N7_4 N 0.8980(3) 0.3104(5) 0.5924(4)
N8_4 N 0.8830(3) 0.4404(5) 0.7928(6)
N9_4 N 0.7783(2) 0.3023(4) 0.8915(4)
N10_4 N 0.9119(2) 0.2262(5) 0.9214(4)
N11_4 N 0.9151(2) 0.0803(4) 0.7181(4)
O4_4 O 0.74622(17) 0.1307(3) 0.9620(3)
H1_4 H 0.7559 0.1764 0.9385
C14_4 C 0.9487(3) 0.0176(6) 0.9186(5)
H13_4 H 0.9611 0.0575 0.8834
H14_4 H 0.8861 0.0141 0.8503
C16_4 C 0.8097(2) 0.1263(4) 0.7974(4)
C17_4 C 0.8083(2) 0.1668(4) 0.6346(4)
C18_4 C 0.7882(3) 0.3247(5) 0.6745(4)
C19_4 C 0.8779(3) 0.2863(5) 0.6450(4)
C20_4 C 0.8677(3) 0.3724(5) 0.7759(4)
C21_4 C 0.7987(2) 0.2841(4) 0.8381(4)
C22_4 C 0.8873(3) 0.2294(5) 0.8593(4)
C23_4 C 0.8888(2) 0.1371(5) 0.7270(4)
C11_4 C 0.9098(3) 0.9016(6) 0.0154(4)
H11_4 H 0.8969 0.8598 0.0480
C12_4 C 0.9539(3) 0.9278(6) 0.0369(5)
H12_4 H 0.9702 0.9055 0.0865
N3_4 N 0.88517(18) 0.9355(4) 0.9482(3)
O3_4 O 0.84120(15) 0.9117(3) 0.9291(3)
C13_4 C 0.9761(2) 0.9862(4) 0.9890(4)
C15_4 C 0.9037(3) 0.9919(6) 0.8987(5)
H28_3 H 0.2852 0.9875 0.8088
H10_4 H 0.2852 0.0125 0.3088
H28_4 H 0.7148 0.9875 0.6912
loop_
_geom_bond_atom_site_label_1
_geom_bond_atom_site_label_2
_geom_bond_site_symmetry_1
_geom_bond_site_symmetry_2
W1 C16 1_555 1_555
Gd1 N4 1_555 1_555
N1 O1 1_555 1_555
N2 O2 1_555 1_555
N3 O3 1_555 1_555
N4 C16 1_555 1_555
N5 C17 1_555 1_555
N6 C18 1_555 1_555
N7 C19 1_555 1_555
N8 C20 1_555 1_555
N9 C21 1_555 1_555
N10 C22 1_555 1_555
N11 C23 1_555 1_555
O1 Gd1 1_555 1_555
O3 Gd1 1_555 1_555
O4 Gd1 1_555 1_555
H1 O4 1_555 1_555
H2 O4 1_555 1_555
C1 N1 1_555 1_555
H3 C1 1_555 1_555
C2 C1 1_555 1_555
H4 C2 1_555 1_555
C3 C2 1_555 1_555
C4 C3 1_555 1_555
H5 C4 1_555 1_555
C5 N1 1_555 1_555
H6 C5 1_555 1_555
C6 N2 1_555 1_555
H7 C6 1_555 1_555
C7 C6 1_555 1_555
H8 C7 1_555 1_555
C8 C3 1_555 1_555
C9 C8 1_555 1_555
H9 C9 1_555 1_555
C10 N2 1_555 1_555
C11 N3 1_555 1_555
H11 C11 1_555 1_555
C12 C11 1_555 1_555
H12 C12 1_555 1_555
C13 C12 1_555 1_555
C14 C13 1_555 1_555
H13 C14 1_555 1_555
C15 N3 1_555 1_555
H14 C15 1_555 1_555
C17 W1 1_555 1_555
C18 W1 1_555 1_555
C19 W1 1_555 1_555
C20 W1 1_555 1_555
C21 W1 1_555 1_555
C22 W1 1_555 1_555
C23 W1 1_555 1_555
N12 O5 1_555 1_555
O5 Gd2 1_555 1_555
C24 N12 1_555 1_555
H15 C24 1_555 1_555
C25 C24 1_555 1_555
H16 C25 1_555 1_555
C26 C13 1_555 1_555
C27 C26 1_555 1_555
H17 C27 1_555 1_555
C28 N12 1_555 1_555
H18 C28 1_555 1_555
W2 C39 1_555 1_555
Gd2 N15 1_555 1_555
N13 O6 1_555 1_555
N14 O7 1_555 1_555
N15 C39 1_555 1_555
N16 C40 1_555 1_555
N17 C41 1_555 1_555
N18 C42 1_555 1_555
N19 C43 1_555 1_555
N20 C44 1_555 1_555
N21 C45 1_555 1_555
N22 C46 1_555 1_555
O6 Gd2 1_555 1_555
O8 Gd2 1_555 1_555
H19 O8 1_555 1_555
H20 O8 1_555 1_555
C29 N13 1_555 1_555
H21 C29 1_555 1_555
C30 C29 1_555 1_555
H22 C30 1_555 1_555
C31 C30 1_555 1_555
C32 C31 1_555 1_555
H23 C32 1_555 1_555
C33 N13 1_555 1_555
H24 C33 1_555 1_555
C34 N14 1_555 1_555
H25 C34 1_555 1_555
C35 C34 1_555 1_555
H26 C35 1_555 1_555
C36 C31 1_555 1_555
C37 C36 1_555 1_555
H27 C37 1_555 1_555
C38 N14 1_555 1_555
C40 W2 1_555 1_555
C41 W2 1_555 1_555
C42 W2 1_555 1_555
C43 W2 1_555 1_555
C44 W2 1_555 1_555
C45 W2 1_555 1_555
C46 W2 1_555 1_555
Gd5 N6 1_555 1_555
Gd8 N17 1_555 1_555
N23 Gd2 1_555 1_555
N24 Gd1 1_555 1_555
N25 Gd1 1_555 1_555
N26 Gd2 1_555 1_555
O9 Gd1 1_555 1_555
O10 Gd2 1_555 1_555
C4 C5 1_555 1_555
C7 C8 1_555 1_555
C9 C10 1_555 1_555
C14 C15 1_555 1_555
C25 C26 1_555 1_555
C27 C28 1_555 1_555
C32 C33 1_555 1_555
C35 C36 1_555 1_555
C37 C38 1_555 1_555
N1_2 O1_2 1_555 1_555
N2_2 O2_2 1_555 1_555
O2_2 Gd4 1_555 1_555
C1_2 N1_2 1_555 1_555
H3_2 C1_2 1_555 1_555
C2_2 C1_2 1_555 1_555
H4_2 C2_2 1_555 1_555
C3_2 C2_2 1_555 1_555
C4_2 C3_2 1_555 1_555
H5_2 C4_2 1_555 1_555
C5_2 N1_2 1_555 1_555
H6_2 C5_2 1_555 1_555
C6_2 N2_2 1_555 1_555
H7_2 C6_2 1_555 1_555
C7_2 C6_2 1_555 1_555
H8_2 C7_2 1_555 1_555
C8_2 C3_2 1_555 1_555
C9_2 C8_2 1_555 1_555
H9_2 C9_2 1_555 1_555
C10_2 N2_2 1_555 1_555
H11_2 C11_2 1_555 1_555
C12_2 C11_2 1_555 1_555
H12_2 C12_2 1_555 1_555
N12_2 O5_2 1_555 1_555
O5_2 Gd6 1_555 1_555
C27_2 C26_2 1_555 1_555
H17_2 C27_2 1_555 1_555
C28_2 N12_2 1_555 1_555
H18_2 C28_2 1_555 1_555
W2_2 C39_2 1_555 1_555
Gd6 N15_2 1_555 1_555
N15_2 C39_2 1_555 1_555
N24 C40_2 1_555 1_555
N17_2 C41_2 1_555 1_555
N18_2 C42_2 1_555 1_555
N19_2 C43_2 1_555 1_555
N20_2 C44_2 1_555 1_555
N21_2 C45_2 1_555 1_555
N22_2 C46_2 1_555 1_555
O8_2 Gd6 1_555 1_555
H19_2 O8_2 1_555 1_555
C40_2 W2_2 1_555 1_555
C41_2 W2_2 1_555 1_555
C42_2 W2_2 1_555 1_555
C43_2 W2_2 1_555 1_555
C44_2 W2_2 1_555 1_555
C45_2 W2_2 1_555 1_555
C46_2 W2_2 1_555 1_555
Gd7 N17_2 1_555 1_555
N26_2 Gd6 1_555 1_555
C4_2 C5_2 1_555 1_555
C7_2 C8_2 1_555 1_555
C9_2 C10_2 1_555 1_555
C27_2 C28_2 1_555 1_555
W1_2 C16_2 1_555 1_555
Gd3 N4_2 1_555 1_555
N3_2 O3_2 1_555 1_555
N4_2 C16_2 1_555 1_555
N23 C17_2 1_555 1_555
N6_2 C18_2 1_555 1_555
N7_2 C19_2 1_555 1_555
N8_2 C20_2 1_555 1_555
N9_2 C21_2 1_555 1_555
N10_2 C22_2 1_555 1_555
N11_2 C23_2 1_555 1_555
O3_2 Gd3 1_555 1_555
O4_2 Gd3 1_555 1_555
H1_2 O4_2 1_555 1_555
C14_2 C13_2 1_555 1_555
H13_2 C14_2 1_555 1_555
C15_2 N3_2 1_555 1_555
H14_2 C15_2 1_555 1_555
C17_2 W1_2 1_555 1_555
C18_2 W1_2 1_555 1_555
C19_2 W1_2 1_555 1_555
C20_2 W1_2 1_555 1_555
C21_2 W1_2 1_555 1_555
C22_2 W1_2 1_555 1_555
C23_2 W1_2 1_555 1_555
H15_2 C24_2 1_555 1_555
C25_2 C24_2 1_555 1_555
H16_2 C25_2 1_555 1_555
N13_2 O6_2 1_555 1_555
N14_2 O7_2 1_555 1_555
O7_2 Gd7 1_555 1_555
C29_2 N13_2 1_555 1_555
H21_2 C29_2 1_555 1_555
C30_2 C29_2 1_555 1_555
H22_2 C30_2 1_555 1_555
C31_2 C30_2 1_555 1_555
C32_2 C31_2 1_555 1_555
H23_2 C32_2 1_555 1_555
C33_2 N13_2 1_555 1_555
H24_2 C33_2 1_555 1_555
C34_2 N14_2 1_555 1_555
H25_2 C34_2 1_555 1_555
C35_2 C34_2 1_555 1_555
H26_2 C35_2 1_555 1_555
C36_2 C31_2 1_555 1_555
C37_2 C36_2 1_555 1_555
H27_2 C37_2 1_555 1_555
C38_2 N14_2 1_555 1_555
Gd4 N6_2 1_555 1_555
N25_2 Gd3 1_555 1_555
C14_2 C15_2 1_555 1_555
C32_2 C33_2 1_555 1_555
C35_2 C36_2 1_555 1_555
C37_2 C38_2 1_555 1_555
W1_3 C16_3 1_555 1_555
N1_3 O1_3 1_555 1_555
N2_3 O9_2 1_555 1_555
N4_3 C16_3 1_555 1_555
N5_2 C17_3 1_555 1_555
N25_2 C18_3 1_555 1_555
N7_3 C19_3 1_555 1_555
N8_3 C20_3 1_555 1_555
N9_3 C21_3 1_555 1_555
N10_3 C22_3 1_555 1_555
N11_3 C23_3 1_555 1_555
H1_3 O4_3 1_555 1_555
H2_3 O4_3 1_555 1_555
C1_3 N1_3 1_555 1_555
H3_3 C1_3 1_555 1_555
C2_3 C1_3 1_555 1_555
H4_3 C2_3 1_555 1_555
C3_3 C2_3 1_555 1_555
C4_3 C3_3 1_555 1_555
H5_3 C4_3 1_555 1_555
C5_3 N1_3 1_555 1_555
H6_3 C5_3 1_555 1_555
C6_3 N2_3 1_555 1_555
H7_3 C6_3 1_555 1_555
C7_3 C6_3 1_555 1_555
H8_3 C7_3 1_555 1_555
C8_3 C3_3 1_555 1_555
C9_3 C8_3 1_555 1_555
H9_3 C9_3 1_555 1_555
C10_3 N2_3 1_555 1_555
H10_2 C10_3 1_555 1_555
H13_3 C14_3 1_555 1_555
C17_3 W1_3 1_555 1_555
C18_3 W1_3 1_555 1_555
C19_3 W1_3 1_555 1_555
C20_3 W1_3 1_555 1_555
C21_3 W1_3 1_555 1_555
C22_3 W1_3 1_555 1_555
C23_3 W1_3 1_555 1_555
C4_3 C5_3 1_555 1_555
C7_3 C8_3 1_555 1_555
C9_3 C10_3 1_555 1_555
N3_3 O3_3 1_555 1_555
O3_3 Gd4 1_555 1_555
C11_3 N3_3 1_555 1_555
H11_3 C11_3 1_555 1_555
C12_3 C11_3 1_555 1_555
H12_3 C12_3 1_555 1_555
C13_3 C12_3 1_555 1_555
C15_3 N3_3 1_555 1_555
N24_2 Gd4 1_555 1_555
N12_3 O5_3 1_555 1_555
O5_3 Gd7 1_555 1_555
C24_3 N12_3 1_555 1_555
H15_3 C24_3 1_555 1_555
C25_3 C24_3 1_555 1_555
H16_3 C25_3 1_555 1_555
C28_3 N12_3 1_555 1_555
N23_2 Gd7 1_555 1_555
C25_3 C26_3 1_555 1_555
H17_3 C27_3 1_555 1_555
W2_3 C39_3 1_555 1_555
N13_3 O6_3 1_555 1_555
N14_3 O10_2 1_555 1_555
N15_3 C39_3 1_555 1_555
N16_2 C40_3 1_555 1_555
N26_2 C41_3 1_555 1_555
N18_3 C42_3 1_555 1_555
N19_3 C43_3 1_555 1_555
N20_3 C44_3 1_555 1_555
N21_3 C45_3 1_555 1_555
N22_3 C46_3 1_555 1_555
H19_3 O8_3 1_555 1_555
H20_3 O8_3 1_555 1_555
C29_3 N13_3 1_555 1_555
H21_3 C29_3 1_555 1_555
C30_3 C29_3 1_555 1_555
H22_3 C30_3 1_555 1_555
C31_3 C30_3 1_555 1_555
C32_3 C31_3 1_555 1_555
H23_3 C32_3 1_555 1_555
C33_3 N13_3 1_555 1_555
H24_3 C33_3 1_555 1_555
C34_3 N14_3 1_555 1_555
H25_3 C34_3 1_555 1_555
C35_3 C34_3 1_555 1_555
H26_3 C35_3 1_555 1_555
C36_3 C31_3 1_555 1_555
C37_3 C36_3 1_555 1_555
H27_3 C37_3 1_555 1_555
C38_3 N14_3 1_555 1_555
H28 C38_3 1_555 1_555
C40_3 W2_3 1_555 1_555
C41_3 W2_3 1_555 1_555
C42_3 W2_3 1_555 1_555
C43_3 W2_3 1_555 1_555
C44_3 W2_3 1_555 1_555
C45_3 W2_3 1_555 1_555
C46_3 W2_3 1_555 1_555
C32_3 C33_3 1_555 1_555
C35_3 C36_3 1_555 1_555
C37_3 C38_3 1_555 1_555
N12_4 O5_4 1_555 1_555
O5_4 Gd8 1_555 1_555
C28_4 N12_4 1_555 1_555
H15_4 C24_4 1_555 1_555
C25_4 C24_4 1_555 1_555
H16_4 C25_4 1_555 1_555
H17_4 C27_4 1_555 1_555
W2_4 C39_4 1_555 1_555
N15_4 C39_4 1_555 1_555
N24_2 C40_4 1_555 1_555
N26 C41_4 1_555 1_555
N18_4 C42_4 1_555 1_555
N19_4 C43_4 1_555 1_555
N20_4 C44_4 1_555 1_555
N21_4 C45_4 1_555 1_555
N22_4 C46_4 1_555 1_555
H19_4 O8_4 1_555 1_555
C40_4 W2_4 1_555 1_555
C41_4 W2_4 1_555 1_555
C42_4 W2_4 1_555 1_555
C43_4 W2_4 1_555 1_555
C44_4 W2_4 1_555 1_555
C45_4 W2_4 1_555 1_555
C46_4 W2_4 1_555 1_555
N13_4 O6_4 1_555 1_555
N14_4 O10 1_555 1_555
C29_4 N13_4 1_555 1_555
H21_4 C29_4 1_555 1_555
C30_4 C29_4 1_555 1_555
H22_4 C30_4 1_555 1_555
C31_4 C30_4 1_555 1_555
C32_4 C31_4 1_555 1_555
H23_4 C32_4 1_555 1_555
C33_4 N13_4 1_555 1_555
H24_4 C33_4 1_555 1_555
C34_4 N14_4 1_555 1_555
H25_4 C34_4 1_555 1_555
C35_4 C34_4 1_555 1_555
H26_4 C35_4 1_555 1_555
C36_4 C31_4 1_555 1_555
C37_4 C36_4 1_555 1_555
H27_4 C37_4 1_555 1_555
C38_4 N14_4 1_555 1_555
H28_2 C38_4 1_555 1_555
C32_4 C33_4 1_555 1_555
C35_4 C36_4 1_555 1_555
C37_4 C38_4 1_555 1_555
N1_4 O1_4 1_555 1_555
N2_4 O9 1_555 1_555
C1_4 N1_4 1_555 1_555
H3_4 C1_4 1_555 1_555
C2_4 C1_4 1_555 1_555
H4_4 C2_4 1_555 1_555
C3_4 C2_4 1_555 1_555
C4_4 C3_4 1_555 1_555
H5_4 C4_4 1_555 1_555
C5_4 N1_4 1_555 1_555
H6_4 C5_4 1_555 1_555
C6_4 N2_4 1_555 1_555
H7_4 C6_4 1_555 1_555
C7_4 C6_4 1_555 1_555
H8_4 C7_4 1_555 1_555
C8_4 C3_4 1_555 1_555
C9_4 C8_4 1_555 1_555
H9_4 C9_4 1_555 1_555
C10_4 N2_4 1_555 1_555
H10_3 C10_4 1_555 1_555
C4_4 C5_4 1_555 1_555
C7_4 C8_4 1_555 1_555
C9_4 C10_4 1_555 1_555
W1_4 C16_4 1_555 1_555
N4_4 C16_4 1_555 1_555
N23_2 C17_4 1_555 1_555
N25 C18_4 1_555 1_555
N7_4 C19_4 1_555 1_555
N8_4 C20_4 1_555 1_555
N9_4 C21_4 1_555 1_555
N10_4 C22_4 1_555 1_555
N11_4 C23_4 1_555 1_555
H1_4 O4_4 1_555 1_555
H13_4 C14_4 1_555 1_555
C17_4 W1_4 1_555 1_555
C18_4 W1_4 1_555 1_555
C19_4 W1_4 1_555 1_555
C20_4 W1_4 1_555 1_555
C21_4 W1_4 1_555 1_555
C22_4 W1_4 1_555 1_555
C23_4 W1_4 1_555 1_555
H11_4 C11_4 1_555 1_555
C12_4 C11_4 1_555 1_555
H12_4 C12_4 1_555 1_555
N3_4 O3_4 1_555 1_555
O3_4 Gd5 1_555 1_555
C15_4 N3_4 1_555 1_555

#END
