
###############################################################################
#
# This file contains modified crystal structure data generated from the
# MOF subset of the Cambridge Structural Database (CSD) v543 
# hosted by the Cambridge Crystallographic Data Centre (CCDC).
#
# This work is licensed under the Creative Commons
# Attribution-NonCommercial-ShareAlike 4.0 International License.
# To view a copy of this license, visit
# http://creativecommons.org/licenses/by-nc-sa/4.0/
# or send a letter to
# Creative Commons, PO Box 1866, Mountain View, CA 94042, USA.
#
# CIF created using the CSD Python API on 29 September 2022
# The structure has been converted into the P1 space group
# The structure has a 3D framework
# The original CSD entry ZEJWET is in the monoclinic crystal system
# The framework has been calculated to contain at least 10.0% void space
# The void calculation uses a probe of radius 1.32A, grid spacing 0.4
#
###############################################################################

data_ZEJWET
_chemical_formula_moiety         '(C184 H128 N88 O40 W8 Yb8)n'
_symmetry_cell_setting           triclinic
_symmetry_space_group_name_H-M   'P 1'
_symmetry_Int_Tables_number      1
_space_group_name_Hall           'P 1'
loop_
_symmetry_equiv_pos_site_id
_symmetry_equiv_pos_as_xyz
1 x,y,z
_cell_length_a                   30.081(5)
_cell_length_b                   14.714(3)
_cell_length_c                   15.725(3)
_cell_angle_alpha                90
_cell_angle_beta                 97.708(2)
_cell_angle_gamma                90
_cell_volume                     6897.18
loop_
_atom_site_label
_atom_site_type_symbol
_atom_site_fract_x
_atom_site_fract_y
_atom_site_fract_z
Yb3 Yb 0.21727(3) 0.01347(5) 0.04084(4)
C27 C 0.0495(7) 0.0253(14) 0.5731(13)
H19 H 0.0370 0.0709 0.6034
C28 C 0.0965(7) 0.0015(14) 0.5990(13)
H20 H 0.1132 0.0295 0.6458
W2 W 0.16144(2) 0.24700(4) 0.76060(4)
N13 N 0.1643(5) 0.1228(10) 0.4024(9)
N14 N 0.2092(6) 0.4338(10) 0.0899(10)
N15 N 0.2028(5) 0.0669(10) 0.6700(9)
N16 N 0.2026(5) 0.1301(12) 0.9332(11)
N17 N 0.2388(5) 0.3829(10) 0.8651(10)
N18 N 0.1067(7) 0.3238(14) 0.9164(13)
N19 N 0.1103(7) 0.4487(17) 0.7019(15)
N20 N 0.2211(5) 0.3064(11) 0.6066(9)
N21 N 0.0919(6) 0.2283(14) 0.5780(11)
N22 N 0.0891(7) 0.0845(14) 0.7861(12)
O7 O 0.1620(5) 0.0625(9) 0.4639(9)
O8 O 0.2204(5) 0.4875(9) 0.0366(9)
O9 O 0.2510(5) 0.1295(10) 0.5422(9)
H21 H 0.2413 0.1752 0.5658
H22 H 0.2593 0.1455 0.4956
O10 O 0.2927(4) 0.0186(13) 0.5925(14)
H23 H 0.3059 0.0123 0.5488
C29 C 0.1753(7) 0.0939(12) 0.3250(11)
H25 H 0.1802 0.0326 0.3155
C30 C 0.1791(6) 0.1566(14) 0.2617(12)
H26 H 0.1848 0.1367 0.2080
C31 C 0.1747(5) 0.2497(11) 0.2762(10)
C32 C 0.1600(6) 0.2734(13) 0.3552(12)
H27 H 0.1531 0.3336 0.3659
C33 C 0.1561(6) 0.2088(13) 0.4152(11)
H28 H 0.1472 0.2262 0.4673
C34 C 0.1947(7) 0.3513(15) 0.0660(13)
H29 H 0.1934 0.3333 0.0090
C35 C 0.1815(6) 0.2924(13) 0.1265(12)
H30 H 0.1715 0.2347 0.1090
C36 C 0.1824(6) 0.3150(12) 0.2093(11)
C37 C 0.1971(6) 0.4012(11) 0.2339(10)
H31 H 0.1989 0.4191 0.2910
C38 C 0.2094(6) 0.4616(12) 0.1721(11)
H32 H 0.2177 0.5209 0.1875
C39 C 0.1897(6) 0.1304(12) 0.7053(10)
C40 C 0.1912(6) 0.1726(11) 0.8709(12)
C41 C 0.2114(6) 0.3363(11) 0.8265(11)
C42 C 0.1260(6) 0.2966(12) 0.8619(11)
C43 C 0.1337(7) 0.3786(13) 0.7247(12)
C44 C 0.2010(6) 0.2913(12) 0.6610(11)
C45 C 0.1143(6) 0.2325(14) 0.6427(11)
C46 C 0.1124(7) 0.1414(13) 0.7773(12)
Yb8 Yb 0.28273(3) 0.48653(5) 0.95916(4)
N12 N 0.1144(6) 0.9395(12) 0.5544(11)
O6 O 0.1563(5) 0.9163(9) 0.5738(9)
C24 C 0.0886(7) 0.8987(14) 0.4887(13)
H17 H 0.1000 0.8517 0.4587
C25 C 0.0463(7) 0.9269(14) 0.4674(13)
H18 H 0.0303 0.9028 0.4179
C26 C 0.0251(7) 0.9879(14) 0.5124(13)
Yb2 Yb 0.21727(3) 0.98653(5) 0.54084(4)
H24 H 0.2963 0.9689 0.6201
N23 N 0.2026(5) 0.8699(12) 0.4332(11)
N26 N 0.2612(5) 0.8829(10) 0.6349(10)
O12 O 0.2796(5) 0.9875(9) 0.4634(9)
Yb1 Yb 0.78273(3) 0.01347(5) 0.45916(4)
N3 N 0.8856(6) 0.0605(12) 0.4456(11)
O3 O 0.8437(5) 0.0837(9) 0.4262(9)
H4 H 0.7037 0.0311 0.3799
C11 C 0.9114(7) 0.1013(14) 0.5113(13)
H13 H 0.9000 0.1483 0.5413
C12 C 0.9537(7) 0.0731(14) 0.5326(13)
H14 H 0.9697 0.0972 0.5821
C13 C 0.9749(7) 0.0121(14) 0.4876(13)
N24 N 0.7974(5) 0.1301(12) 0.5668(11)
N25 N 0.7388(5) 0.1171(10) 0.3651(10)
O11 O 0.7204(5) 0.0125(9) 0.5366(9)
Yb5 Yb 0.71727(3) 0.51347(5) 0.04084(4)
W1 W 0.83856(2) 0.75300(4) 0.23940(4)
N1 N 0.8357(5) 0.8772(10) 0.5976(9)
N2 N 0.7908(6) 0.5662(10) 0.9101(10)
N4 N 0.7972(5) 0.9331(10) 0.3300(9)
N5 N 0.7974(5) 0.8699(12) 0.0668(11)
N6 N 0.7612(5) 0.6171(10) 0.1349(10)
N7 N 0.8933(7) 0.6762(14) 0.0836(13)
N8 N 0.8897(7) 0.5513(17) 0.2981(15)
N9 N 0.7789(5) 0.6936(11) 0.3934(9)
N10 N 0.9081(6) 0.7717(14) 0.4220(11)
N11 N 0.9109(7) 0.9155(14) 0.2139(12)
O1 O 0.8380(5) 0.9375(9) 0.5361(9)
O2 O 0.7796(5) 0.5125(9) 0.9634(9)
O4 O 0.7490(5) 0.8705(10) 0.4578(9)
H1 H 0.7587 0.8248 0.4342
H2 H 0.7407 0.8545 0.5044
O5 O 0.7073(4) 0.9814(13) 0.4075(14)
H3 H 0.6941 0.9877 0.4512
C1 C 0.8247(7) 0.9061(12) 0.6750(11)
H5 H 0.8198 0.9674 0.6845
C2 C 0.8209(6) 0.8434(14) 0.7383(12)
H6 H 0.8152 0.8633 0.7920
C3 C 0.8253(5) 0.7503(11) 0.7238(10)
C4 C 0.8400(6) 0.7266(13) 0.6448(12)
H7 H 0.8469 0.6664 0.6341
C5 C 0.8439(6) 0.7912(13) 0.5848(11)
H8 H 0.8528 0.7738 0.5327
C6 C 0.8053(7) 0.6487(15) 0.9340(13)
H9 H 0.8066 0.6667 0.9910
C7 C 0.8185(6) 0.7076(13) 0.8735(12)
H10 H 0.8285 0.7653 0.8910
C8 C 0.8176(6) 0.6850(12) 0.7907(11)
C9 C 0.8029(6) 0.5988(11) 0.7661(10)
H11 H 0.8011 0.5809 0.7090
C10 C 0.7906(6) 0.5384(12) 0.8279(11)
H12 H 0.7823 0.4791 0.8125
C14 C 0.9505(7) 0.9747(14) 0.4269(13)
H15 H 0.9630 0.9291 0.3966
C15 C 0.9035(7) 0.9985(14) 0.4010(13)
H16 H 0.8868 0.9705 0.3542
C16 C 0.8103(6) 0.8696(12) 0.2947(10)
C17 C 0.8088(6) 0.8274(11) 0.1291(12)
C18 C 0.7886(6) 0.6637(11) 0.1735(11)
C19 C 0.8740(6) 0.7034(12) 0.1381(11)
C20 C 0.8663(7) 0.6214(13) 0.2753(12)
C21 C 0.7990(6) 0.7087(12) 0.3390(11)
C22 C 0.8857(6) 0.7675(14) 0.3573(11)
C23 C 0.8876(7) 0.8586(13) 0.2227(12)
Yb6 Yb 0.78273(3) 0.98653(5) 0.95916(4)
N3_2 N 0.1144(6) 0.0605(12) 0.0544(11)
O3_2 O 0.1563(5) 0.0837(9) 0.0738(9)
H4_2 H 0.2963 0.0311 0.1201
C13_2 C 0.0251(7) 0.0121(14) 0.0124(13)
N25_2 N 0.2612(5) 0.1171(10) 0.1349(10)
C11_2 C 0.0886(7) 0.1013(14) 0.9887(13)
H13_2 H 0.1000 0.1483 0.9587
C12_2 C 0.0463(7) 0.0731(14) 0.9674(13)
H14_2 H 0.0303 0.0972 0.9179
O11_2 O 0.2796(5) 0.0125(9) 0.9634(9)
W1_2 W 0.16144(2) 0.75300(4) 0.26060(4)
N4_2 N 0.2028(5) 0.9331(10) 0.1700(9)
N6_2 N 0.2388(5) 0.6171(10) 0.3651(10)
N7_2 N 0.1067(7) 0.6762(14) 0.4164(13)
N8_2 N 0.1103(7) 0.5513(17) 0.2019(15)
N9_2 N 0.2211(5) 0.6936(11) 0.1066(9)
N10_2 N 0.0919(6) 0.7717(14) 0.0780(11)
N11_2 N 0.0891(7) 0.9155(14) 0.2861(12)
O4_2 O 0.2510(5) 0.8705(10) 0.0422(9)
H1_2 H 0.2413 0.8248 0.0658
O5_2 O 0.2927(4) 0.9814(13) 0.0925(14)
H3_2 H 0.3059 0.9877 0.0488
C14_2 C 0.0495(7) 0.9747(14) 0.0731(13)
H15_2 H 0.0370 0.9291 0.1034
C15_2 C 0.0965(7) 0.9985(14) 0.0990(13)
H16_2 H 0.1132 0.9705 0.1458
C16_2 C 0.1897(6) 0.8696(12) 0.2053(10)
C17_2 C 0.1912(6) 0.8274(11) 0.3709(12)
C18_2 C 0.2114(6) 0.6637(11) 0.3265(11)
C19_2 C 0.1260(6) 0.7034(12) 0.3619(11)
C20_2 C 0.1337(7) 0.6214(13) 0.2247(12)
C21_2 C 0.2010(6) 0.7087(12) 0.1610(11)
C22_2 C 0.1143(6) 0.7675(14) 0.1427(11)
C23_2 C 0.1124(7) 0.8586(13) 0.2773(12)
Yb4 Yb 0.28273(3) 0.51347(5) 0.45916(4)
N1_2 N 0.1643(5) 0.8772(10) 0.9024(9)
N2_2 N 0.2092(6) 0.5662(10) 0.5899(10)
O1_2 O 0.1620(5) 0.9375(9) 0.9639(9)
O2_2 O 0.2204(5) 0.5125(9) 0.5366(9)
H2_2 H 0.2593 0.8545 0.9956
C1_2 C 0.1753(7) 0.9061(12) 0.8250(11)
H5_2 H 0.1802 0.9674 0.8155
C2_2 C 0.1791(6) 0.8434(14) 0.7617(12)
H6_2 H 0.1848 0.8633 0.7080
C3_2 C 0.1747(5) 0.7503(11) 0.7762(10)
C4_2 C 0.1600(6) 0.7266(13) 0.8552(12)
H7_2 H 0.1531 0.6664 0.8659
C5_2 C 0.1561(6) 0.7912(13) 0.9152(11)
H8_2 H 0.1472 0.7738 0.9673
C6_2 C 0.1947(7) 0.6487(15) 0.5660(13)
H9_2 H 0.1934 0.6667 0.5090
C7_2 C 0.1815(6) 0.7076(13) 0.6265(12)
H10_2 H 0.1715 0.7653 0.6090
C8_2 C 0.1824(6) 0.6850(12) 0.7093(11)
C9_2 C 0.1971(6) 0.5988(11) 0.7339(10)
H11_2 H 0.1989 0.5809 0.7910
C10_2 C 0.2094(6) 0.5384(12) 0.6721(11)
H12_2 H 0.2177 0.4791 0.6875
N13_2 N 0.8357(5) 0.1228(10) 0.0976(9)
N14_2 N 0.7908(6) 0.4338(10) 0.4101(10)
O7_2 O 0.8380(5) 0.0625(9) 0.0361(9)
O8_2 O 0.7796(5) 0.4875(9) 0.4634(9)
H22_2 H 0.7407 0.1455 0.0044
C29_2 C 0.8247(7) 0.0939(12) 0.1750(11)
H25_2 H 0.8198 0.0326 0.1845
C30_2 C 0.8209(6) 0.1566(14) 0.2383(12)
H26_2 H 0.8152 0.1367 0.2920
C31_2 C 0.8253(5) 0.2497(11) 0.2238(10)
C32_2 C 0.8400(6) 0.2734(13) 0.1448(12)
H27_2 H 0.8469 0.3336 0.1341
C33_2 C 0.8439(6) 0.2088(13) 0.0848(11)
H28_2 H 0.8528 0.2262 0.0327
C34_2 C 0.8053(7) 0.3513(15) 0.4340(13)
H29_2 H 0.8066 0.3333 0.4910
C35_2 C 0.8185(6) 0.2924(13) 0.3735(12)
H30_2 H 0.8285 0.2347 0.3910
C36_2 C 0.8176(6) 0.3150(12) 0.2907(11)
C37_2 C 0.8029(6) 0.4012(11) 0.2661(10)
H31_2 H 0.8011 0.4191 0.2090
C38_2 C 0.7906(6) 0.4616(12) 0.3279(11)
H32_2 H 0.7823 0.5209 0.3125
Yb7 Yb 0.71727(3) 0.48653(5) 0.54084(4)
C27_2 C 0.9505(7) 0.0253(14) 0.9269(13)
H19_2 H 0.9630 0.0709 0.8966
C28_2 C 0.9035(7) 0.0015(14) 0.9010(13)
H20_2 H 0.8868 0.0295 0.8542
W2_2 W 0.83856(2) 0.24700(4) 0.73940(4)
N15_2 N 0.7972(5) 0.0669(10) 0.8300(9)
N17_2 N 0.7612(5) 0.3829(10) 0.6349(10)
N18_2 N 0.8933(7) 0.3238(14) 0.5836(13)
N19_2 N 0.8897(7) 0.4487(17) 0.7981(15)
N20_2 N 0.7789(5) 0.3064(11) 0.8934(9)
N21_2 N 0.9081(6) 0.2283(14) 0.9220(11)
N22_2 N 0.9109(7) 0.0845(14) 0.7139(12)
O9_2 O 0.7490(5) 0.1295(10) 0.9578(9)
H21_2 H 0.7587 0.1752 0.9342
O10_2 O 0.7073(4) 0.0186(13) 0.9075(14)
H23_2 H 0.6941 0.0123 0.9512
C39_2 C 0.8103(6) 0.1304(12) 0.7947(10)
C40_2 C 0.8088(6) 0.1726(11) 0.6291(12)
C41_2 C 0.7886(6) 0.3363(11) 0.6735(11)
C42_2 C 0.8740(6) 0.2966(12) 0.6381(11)
C43_2 C 0.8663(7) 0.3786(13) 0.7753(12)
C44_2 C 0.7990(6) 0.2913(12) 0.8390(11)
C45_2 C 0.8857(6) 0.2325(14) 0.8573(11)
C46_2 C 0.8876(7) 0.1414(13) 0.7227(12)
C24_2 C 0.9114(7) 0.8987(14) 0.0113(13)
H17_2 H 0.9000 0.8517 0.0413
C25_2 C 0.9537(7) 0.9269(14) 0.0326(13)
H18_2 H 0.9697 0.9028 0.0821
O12_2 O 0.7204(5) 0.9875(9) 0.0366(9)
N12_2 N 0.8856(6) 0.9395(12) 0.9456(11)
O6_2 O 0.8437(5) 0.9163(9) 0.9262(9)
C26_2 C 0.9749(7) 0.9879(14) 0.9876(13)
H24_2 H 0.7037 0.9689 0.8799
N26_2 N 0.7388(5) 0.8829(10) 0.8651(10)
W1_3 W 0.33856(2) 0.25300(4) 0.23940(4)
N1_3 N 0.3357(5) 0.3772(10) 0.5976(9)
N2_3 N 0.2908(6) 0.0662(10) 0.9101(10)
N3_3 N 0.3856(6) 0.5605(12) 0.4456(11)
N4_3 N 0.2972(5) 0.4331(10) 0.3300(9)
N5_2 N 0.2974(5) 0.3699(12) 0.0668(11)
N7_3 N 0.3933(7) 0.1762(14) 0.0836(13)
N8_3 N 0.3897(7) 0.0513(17) 0.2981(15)
N9_3 N 0.2789(5) 0.1936(11) 0.3934(9)
N10_3 N 0.4081(6) 0.2717(14) 0.4220(11)
N11_3 N 0.4109(7) 0.4155(14) 0.2139(12)
O1_3 O 0.3380(5) 0.4375(9) 0.5361(9)
O3_3 O 0.3437(5) 0.5837(9) 0.4262(9)
O4_3 O 0.2490(5) 0.3705(10) 0.4578(9)
H1_3 H 0.2587 0.3248 0.4342
H2_3 H 0.2407 0.3545 0.5044
O5_3 O 0.2073(4) 0.4814(13) 0.4075(14)
H3_3 H 0.1941 0.4877 0.4512
H4_3 H 0.2037 0.5311 0.3799
C1_3 C 0.3247(7) 0.4061(12) 0.6750(11)
H5_3 H 0.3198 0.4674 0.6845
C2_3 C 0.3209(6) 0.3434(14) 0.7383(12)
H6_3 H 0.3152 0.3633 0.7920
C3_3 C 0.3253(5) 0.2503(11) 0.7238(10)
C4_3 C 0.3400(6) 0.2266(13) 0.6448(12)
H7_3 H 0.3469 0.1664 0.6341
C5_3 C 0.3439(6) 0.2912(13) 0.5848(11)
H8_3 H 0.3528 0.2738 0.5327
C6_3 C 0.3053(7) 0.1487(15) 0.9340(13)
H9_3 H 0.3066 0.1667 0.9910
C7_3 C 0.3185(6) 0.2076(13) 0.8735(12)
H10_3 H 0.3285 0.2653 0.8910
C8_3 C 0.3176(6) 0.1850(12) 0.7907(11)
C9_3 C 0.3029(6) 0.0988(11) 0.7661(10)
H11_3 H 0.3011 0.0809 0.7090
C10_3 C 0.2906(6) 0.0384(12) 0.8279(11)
C11_3 C 0.4114(7) 0.6013(14) 0.5113(13)
H13_3 H 0.4000 0.6483 0.5413
C12_3 C 0.4537(7) 0.5731(14) 0.5326(13)
H14_3 H 0.4697 0.5972 0.5821
C13_3 C 0.4749(7) 0.5121(14) 0.4876(13)
C14_3 C 0.4505(7) 0.4747(14) 0.4269(13)
H15_3 H 0.4630 0.4291 0.3966
C15_3 C 0.4035(7) 0.4985(14) 0.4010(13)
H16_3 H 0.3868 0.4705 0.3542
C16_3 C 0.3103(6) 0.3696(12) 0.2947(10)
C17_3 C 0.3088(6) 0.3274(11) 0.1291(12)
C18_3 C 0.2886(6) 0.1637(11) 0.1735(11)
C19_3 C 0.3740(6) 0.2034(12) 0.1381(11)
C20_3 C 0.3663(7) 0.1214(13) 0.2753(12)
C21_3 C 0.2990(6) 0.2087(12) 0.3390(11)
C22_3 C 0.3857(6) 0.2675(14) 0.3573(11)
C23_3 C 0.3876(7) 0.3586(13) 0.2227(12)
N12_3 N 0.6144(6) 0.4395(12) 0.5544(11)
O6_3 O 0.6563(5) 0.4163(9) 0.5738(9)
C24_3 C 0.5886(7) 0.3987(14) 0.4887(13)
H17_3 H 0.6000 0.3517 0.4587
C25_3 C 0.5463(7) 0.4269(14) 0.4674(13)
H18_3 H 0.5303 0.4028 0.4179
C26_3 C 0.5251(7) 0.4879(14) 0.5124(13)
C27_3 C 0.5495(7) 0.5253(14) 0.5731(13)
H19_3 H 0.5370 0.5709 0.6034
C28_3 C 0.5965(7) 0.5015(14) 0.5990(13)
H20_3 H 0.6132 0.5295 0.6458
W2_3 W 0.66144(2) 0.74700(4) 0.76060(4)
N13_3 N 0.6643(5) 0.6228(10) 0.4024(9)
N14_3 N 0.7092(6) 0.9338(10) 0.0899(10)
N15_3 N 0.7028(5) 0.5669(10) 0.6700(9)
N16_2 N 0.7026(5) 0.6301(12) 0.9332(11)
N18_3 N 0.6067(7) 0.8238(14) 0.9164(13)
N19_3 N 0.6103(7) 0.9487(17) 0.7019(15)
N20_3 N 0.7211(5) 0.8064(11) 0.6066(9)
N21_3 N 0.5919(6) 0.7283(14) 0.5780(11)
N22_3 N 0.5891(7) 0.5845(14) 0.7861(12)
O7_3 O 0.6620(5) 0.5625(9) 0.4639(9)
O9_3 O 0.7510(5) 0.6295(10) 0.5422(9)
H21_3 H 0.7413 0.6752 0.5658
H22_3 H 0.7593 0.6455 0.4956
O10_3 O 0.7927(4) 0.5186(13) 0.5925(14)
H23_3 H 0.8059 0.5123 0.5488
H24_3 H 0.7963 0.4689 0.6201
C29_3 C 0.6753(7) 0.5939(12) 0.3250(11)
H25_3 H 0.6802 0.5326 0.3155
C30_3 C 0.6791(6) 0.6566(14) 0.2617(12)
H26_3 H 0.6848 0.6367 0.2080
C31_3 C 0.6747(5) 0.7497(11) 0.2762(10)
C32_3 C 0.6600(6) 0.7734(13) 0.3552(12)
H27_3 H 0.6531 0.8336 0.3659
C33_3 C 0.6561(6) 0.7088(13) 0.4152(11)
H28_3 H 0.6472 0.7262 0.4673
C34_3 C 0.6947(7) 0.8513(15) 0.0660(13)
H29_3 H 0.6934 0.8333 0.0090
C35_3 C 0.6815(6) 0.7924(13) 0.1265(12)
H30_3 H 0.6715 0.7347 0.1090
C36_3 C 0.6824(6) 0.8150(12) 0.2093(11)
C37_3 C 0.6971(6) 0.9012(11) 0.2339(10)
H31_3 H 0.6989 0.9191 0.2910
C38_3 C 0.7094(6) 0.9616(12) 0.1721(11)
C39_3 C 0.6897(6) 0.6304(12) 0.7053(10)
C40_3 C 0.6912(6) 0.6726(11) 0.8709(12)
C41_3 C 0.7114(6) 0.8363(11) 0.8265(11)
C42_3 C 0.6260(6) 0.7966(12) 0.8619(11)
C43_3 C 0.6337(7) 0.8786(13) 0.7247(12)
C44_3 C 0.7010(6) 0.7913(12) 0.6610(11)
C45_3 C 0.6143(6) 0.7325(14) 0.6427(11)
C46_3 C 0.6124(7) 0.6414(13) 0.7773(12)
N23_2 N 0.7026(5) 0.3699(12) 0.4332(11)
N24_2 N 0.2974(5) 0.6301(12) 0.5668(11)
W1_4 W 0.66144(2) 0.25300(4) 0.26060(4)
N3_4 N 0.6144(6) 0.5605(12) 0.0544(11)
N4_4 N 0.7028(5) 0.4331(10) 0.1700(9)
N7_4 N 0.6067(7) 0.1762(14) 0.4164(13)
N8_4 N 0.6103(7) 0.0513(17) 0.2019(15)
N9_4 N 0.7211(5) 0.1936(11) 0.1066(9)
N10_4 N 0.5919(6) 0.2717(14) 0.0780(11)
N11_4 N 0.5891(7) 0.4155(14) 0.2861(12)
O3_4 O 0.6563(5) 0.5837(9) 0.0738(9)
O4_4 O 0.7510(5) 0.3705(10) 0.0422(9)
H1_4 H 0.7413 0.3248 0.0658
O5_4 O 0.7927(4) 0.4814(13) 0.0925(14)
H3_4 H 0.8059 0.4877 0.0488
H4_4 H 0.7963 0.5311 0.1201
C13_4 C 0.5251(7) 0.5121(14) 0.0124(13)
C14_4 C 0.5495(7) 0.4747(14) 0.0731(13)
H15_4 H 0.5370 0.4291 0.1034
C15_4 C 0.5965(7) 0.4985(14) 0.0990(13)
H16_4 H 0.6132 0.4705 0.1458
C16_4 C 0.6897(6) 0.3696(12) 0.2053(10)
C17_4 C 0.6912(6) 0.3274(11) 0.3709(12)
C18_4 C 0.7114(6) 0.1637(11) 0.3265(11)
C19_4 C 0.6260(6) 0.2034(12) 0.3619(11)
C20_4 C 0.6337(7) 0.1214(13) 0.2247(12)
C21_4 C 0.7010(6) 0.2087(12) 0.1610(11)
C22_4 C 0.6143(6) 0.2675(14) 0.1427(11)
C23_4 C 0.6124(7) 0.3586(13) 0.2773(12)
C24_4 C 0.4114(7) 0.3987(14) 0.0113(13)
H17_4 H 0.4000 0.3517 0.0413
C25_4 C 0.4537(7) 0.4269(14) 0.0326(13)
H18_4 H 0.4697 0.4028 0.0821
N13_4 N 0.3357(5) 0.6228(10) 0.0976(9)
N14_4 N 0.2908(6) 0.9338(10) 0.4101(10)
O7_4 O 0.3380(5) 0.5625(9) 0.0361(9)
H22_4 H 0.2407 0.6455 0.0044
C29_4 C 0.3247(7) 0.5939(12) 0.1750(11)
H25_4 H 0.3198 0.5326 0.1845
C30_4 C 0.3209(6) 0.6566(14) 0.2383(12)
H26_4 H 0.3152 0.6367 0.2920
C31_4 C 0.3253(5) 0.7497(11) 0.2238(10)
C32_4 C 0.3400(6) 0.7734(13) 0.1448(12)
H27_4 H 0.3469 0.8336 0.1341
C33_4 C 0.3439(6) 0.7088(13) 0.0848(11)
H28_4 H 0.3528 0.7262 0.0327
C34_4 C 0.3053(7) 0.8513(15) 0.4340(13)
H29_4 H 0.3066 0.8333 0.4910
C35_4 C 0.3185(6) 0.7924(13) 0.3735(12)
H30_4 H 0.3285 0.7347 0.3910
C36_4 C 0.3176(6) 0.8150(12) 0.2907(11)
C37_4 C 0.3029(6) 0.9012(11) 0.2661(10)
H31_4 H 0.3011 0.9191 0.2090
C38_4 C 0.2906(6) 0.9616(12) 0.3279(11)
N1_4 N 0.6643(5) 0.3772(10) 0.9024(9)
N2_4 N 0.7092(6) 0.0662(10) 0.5899(10)
O1_4 O 0.6620(5) 0.4375(9) 0.9639(9)
H2_4 H 0.7593 0.3545 0.9956
C1_4 C 0.6753(7) 0.4061(12) 0.8250(11)
H5_4 H 0.6802 0.4674 0.8155
C2_4 C 0.6791(6) 0.3434(14) 0.7617(12)
H6_4 H 0.6848 0.3633 0.7080
C3_4 C 0.6747(5) 0.2503(11) 0.7762(10)
C4_4 C 0.6600(6) 0.2266(13) 0.8552(12)
H7_4 H 0.6531 0.1664 0.8659
C5_4 C 0.6561(6) 0.2912(13) 0.9152(11)
H8_4 H 0.6472 0.2738 0.9673
C6_4 C 0.6947(7) 0.1487(15) 0.5660(13)
H9_4 H 0.6934 0.1667 0.5090
C7_4 C 0.6815(6) 0.2076(13) 0.6265(12)
H10_4 H 0.6715 0.2653 0.6090
C8_4 C 0.6824(6) 0.1850(12) 0.7093(11)
C9_4 C 0.6971(6) 0.0988(11) 0.7339(10)
H11_4 H 0.6989 0.0809 0.7910
C10_4 C 0.7094(6) 0.0384(12) 0.6721(11)
C11_4 C 0.5886(7) 0.6013(14) 0.9887(13)
H13_4 H 0.6000 0.6483 0.9587
C12_4 C 0.5463(7) 0.5731(14) 0.9674(13)
H14_4 H 0.5303 0.5972 0.9179
N12_4 N 0.3856(6) 0.4395(12) 0.9456(11)
O6_4 O 0.3437(5) 0.4163(9) 0.9262(9)
C26_4 C 0.4749(7) 0.4879(14) 0.9876(13)
C27_4 C 0.4505(7) 0.5253(14) 0.9269(13)
H19_4 H 0.4630 0.5709 0.8966
C28_4 C 0.4035(7) 0.5015(14) 0.9010(13)
H20_4 H 0.3868 0.5295 0.8542
W2_4 W 0.33856(2) 0.74700(4) 0.73940(4)
N15_4 N 0.2972(5) 0.5669(10) 0.8300(9)
N18_4 N 0.3933(7) 0.8238(14) 0.5836(13)
N19_4 N 0.3897(7) 0.9487(17) 0.7981(15)
N20_4 N 0.2789(5) 0.8064(11) 0.8934(9)
N21_4 N 0.4081(6) 0.7283(14) 0.9220(11)
N22_4 N 0.4109(7) 0.5845(14) 0.7139(12)
O9_4 O 0.2490(5) 0.6295(10) 0.9578(9)
H21_4 H 0.2587 0.6752 0.9342
O10_4 O 0.2073(4) 0.5186(13) 0.9075(14)
H23_4 H 0.1941 0.5123 0.9512
H24_4 H 0.2037 0.4689 0.8799
C39_4 C 0.3103(6) 0.6304(12) 0.7947(10)
C40_4 C 0.3088(6) 0.6726(11) 0.6291(12)
C41_4 C 0.2886(6) 0.8363(11) 0.6735(11)
C42_4 C 0.3740(6) 0.7966(12) 0.6381(11)
C43_4 C 0.3663(7) 0.8786(13) 0.7753(12)
C44_4 C 0.2990(6) 0.7913(12) 0.8390(11)
C45_4 C 0.3857(6) 0.7325(14) 0.8573(11)
C46_4 C 0.3876(7) 0.6414(13) 0.7227(12)
H32_3 H 0.7177 0.0209 0.1875
H12_3 H 0.2823 0.9791 0.8125
H32_4 H 0.2823 0.0209 0.3125
H12_4 H 0.7177 0.9791 0.6875
loop_
_geom_bond_atom_site_label_1
_geom_bond_atom_site_label_2
_geom_bond_site_symmetry_1
_geom_bond_site_symmetry_2
H19 C27 1_555 1_555
H20 C28 1_555 1_555
W2 C39 1_555 1_555
N13 O7 1_555 1_555
N14 O8 1_555 1_555
N15 C39 1_555 1_555
N16 C40 1_555 1_555
N17 C41 1_555 1_555
N18 C42 1_555 1_555
N19 C43 1_555 1_555
N20 C44 1_555 1_555
N21 C45 1_555 1_555
N22 C46 1_555 1_555
H21 O9 1_555 1_555
H22 O9 1_555 1_555
H23 O10 1_555 1_555
C29 N13 1_555 1_555
H25 C29 1_555 1_555
C30 C29 1_555 1_555
H26 C30 1_555 1_555
C31 C30 1_555 1_555
C32 C31 1_555 1_555
H27 C32 1_555 1_555
C33 N13 1_555 1_555
H28 C33 1_555 1_555
C34 N14 1_555 1_555
H29 C34 1_555 1_555
C35 C34 1_555 1_555
H30 C35 1_555 1_555
C36 C31 1_555 1_555
C37 C36 1_555 1_555
H31 C37 1_555 1_555
C38 N14 1_555 1_555
H32 C38 1_555 1_555
C40 W2 1_555 1_555
C41 W2 1_555 1_555
C42 W2 1_555 1_555
C43 W2 1_555 1_555
C44 W2 1_555 1_555
C45 W2 1_555 1_555
C46 W2 1_555 1_555
Yb8 N17 1_555 1_555
C27 C28 1_555 1_555
C32 C33 1_555 1_555
C35 C36 1_555 1_555
C37 C38 1_555 1_555
N12 O6 1_555 1_555
O6 Yb2 1_555 1_555
C24 N12 1_555 1_555
H17 C24 1_555 1_555
C25 C24 1_555 1_555
H18 C25 1_555 1_555
N23 Yb2 1_555 1_555
N26 Yb2 1_555 1_555
O12 Yb2 1_555 1_555
C25 C26 1_555 1_555
N3 O3 1_555 1_555
O3 Yb1 1_555 1_555
C11 N3 1_555 1_555
H13 C11 1_555 1_555
C12 C11 1_555 1_555
H14 C12 1_555 1_555
C13 C12 1_555 1_555
N24 Yb1 1_555 1_555
N25 Yb1 1_555 1_555
O11 Yb1 1_555 1_555
W1 C16 1_555 1_555
N1 O1 1_555 1_555
N2 O2 1_555 1_555
N4 C16 1_555 1_555
N5 C17 1_555 1_555
N6 C18 1_555 1_555
N7 C19 1_555 1_555
N8 C20 1_555 1_555
N9 C21 1_555 1_555
N10 C22 1_555 1_555
N11 C23 1_555 1_555
H1 O4 1_555 1_555
H2 O4 1_555 1_555
H3 O5 1_555 1_555
C1 N1 1_555 1_555
H5 C1 1_555 1_555
C2 C1 1_555 1_555
H6 C2 1_555 1_555
C3 C2 1_555 1_555
C4 C3 1_555 1_555
H7 C4 1_555 1_555
C5 N1 1_555 1_555
H8 C5 1_555 1_555
C6 N2 1_555 1_555
H9 C6 1_555 1_555
C7 C6 1_555 1_555
H10 C7 1_555 1_555
C8 C3 1_555 1_555
C9 C8 1_555 1_555
H11 C9 1_555 1_555
C10 N2 1_555 1_555
H12 C10 1_555 1_555
H15 C14 1_555 1_555
H16 C15 1_555 1_555
C17 W1 1_555 1_555
C18 W1 1_555 1_555
C19 W1 1_555 1_555
C20 W1 1_555 1_555
C21 W1 1_555 1_555
C22 W1 1_555 1_555
C23 W1 1_555 1_555
Yb5 N6 1_555 1_555
C4 C5 1_555 1_555
C7 C8 1_555 1_555
C9 C10 1_555 1_555
C14 C15 1_555 1_555
N3_2 O3_2 1_555 1_555
O3_2 Yb3 1_555 1_555
N25_2 Yb3 1_555 1_555
H13_2 C11_2 1_555 1_555
C12_2 C11_2 1_555 1_555
H14_2 C12_2 1_555 1_555
W1_2 C16_2 1_555 1_555
N4_2 C16_2 1_555 1_555
N23 C17_2 1_555 1_555
N6_2 C18_2 1_555 1_555
N7_2 C19_2 1_555 1_555
N8_2 C20_2 1_555 1_555
N9_2 C21_2 1_555 1_555
N10_2 C22_2 1_555 1_555
N11_2 C23_2 1_555 1_555
H1_2 O4_2 1_555 1_555
H3_2 O5_2 1_555 1_555
H15_2 C14_2 1_555 1_555
H16_2 C15_2 1_555 1_555
C17_2 W1_2 1_555 1_555
C18_2 W1_2 1_555 1_555
C19_2 W1_2 1_555 1_555
C20_2 W1_2 1_555 1_555
C21_2 W1_2 1_555 1_555
C22_2 W1_2 1_555 1_555
C23_2 W1_2 1_555 1_555
Yb4 N6_2 1_555 1_555
C14_2 C15_2 1_555 1_555
N1_2 O1_2 1_555 1_555
N2_2 O2_2 1_555 1_555
O2_2 Yb4 1_555 1_555
C1_2 N1_2 1_555 1_555
H5_2 C1_2 1_555 1_555
C2_2 C1_2 1_555 1_555
H6_2 C2_2 1_555 1_555
C3_2 C2_2 1_555 1_555
C4_2 C3_2 1_555 1_555
H7_2 C4_2 1_555 1_555
C5_2 N1_2 1_555 1_555
H8_2 C5_2 1_555 1_555
C6_2 N2_2 1_555 1_555
H9_2 C6_2 1_555 1_555
C7_2 C6_2 1_555 1_555
H10_2 C7_2 1_555 1_555
C8_2 C3_2 1_555 1_555
C9_2 C8_2 1_555 1_555
H11_2 C9_2 1_555 1_555
C10_2 N2_2 1_555 1_555
H12_2 C10_2 1_555 1_555
C4_2 C5_2 1_555 1_555
C7_2 C8_2 1_555 1_555
C9_2 C10_2 1_555 1_555
N13_2 O7_2 1_555 1_555
N14_2 O8_2 1_555 1_555
O8_2 Yb7 1_555 1_555
C29_2 N13_2 1_555 1_555
H25_2 C29_2 1_555 1_555
C30_2 C29_2 1_555 1_555
H26_2 C30_2 1_555 1_555
C31_2 C30_2 1_555 1_555
C32_2 C31_2 1_555 1_555
H27_2 C32_2 1_555 1_555
C33_2 N13_2 1_555 1_555
H28_2 C33_2 1_555 1_555
C34_2 N14_2 1_555 1_555
H29_2 C34_2 1_555 1_555
C35_2 C34_2 1_555 1_555
H30_2 C35_2 1_555 1_555
C36_2 C31_2 1_555 1_555
C37_2 C36_2 1_555 1_555
H31_2 C37_2 1_555 1_555
C38_2 N14_2 1_555 1_555
H32_2 C38_2 1_555 1_555
C32_2 C33_2 1_555 1_555
C35_2 C36_2 1_555 1_555
C37_2 C38_2 1_555 1_555
H19_2 C27_2 1_555 1_555
H20_2 C28_2 1_555 1_555
W2_2 C39_2 1_555 1_555
N15_2 C39_2 1_555 1_555
N24 C40_2 1_555 1_555
N17_2 C41_2 1_555 1_555
N18_2 C42_2 1_555 1_555
N19_2 C43_2 1_555 1_555
N20_2 C44_2 1_555 1_555
N21_2 C45_2 1_555 1_555
N22_2 C46_2 1_555 1_555
H21_2 O9_2 1_555 1_555
H23_2 O10_2 1_555 1_555
C40_2 W2_2 1_555 1_555
C41_2 W2_2 1_555 1_555
C42_2 W2_2 1_555 1_555
C43_2 W2_2 1_555 1_555
C44_2 W2_2 1_555 1_555
C45_2 W2_2 1_555 1_555
C46_2 W2_2 1_555 1_555
Yb7 N17_2 1_555 1_555
C27_2 C28_2 1_555 1_555
H17_2 C24_2 1_555 1_555
C25_2 C24_2 1_555 1_555
H18_2 C25_2 1_555 1_555
N12_2 O6_2 1_555 1_555
O6_2 Yb6 1_555 1_555
N26_2 Yb6 1_555 1_555
W1_3 C16_3 1_555 1_555
Yb4 N4_3 1_555 1_555
N1_3 O1_3 1_555 1_555
N2_3 O11_2 1_555 1_555
N3_3 O3_3 1_555 1_555
N4_3 C16_3 1_555 1_555
N5_2 C17_3 1_555 1_555
N25_2 C18_3 1_555 1_555
N7_3 C19_3 1_555 1_555
N8_3 C20_3 1_555 1_555
N9_3 C21_3 1_555 1_555
N10_3 C22_3 1_555 1_555
N11_3 C23_3 1_555 1_555
O1_3 Yb4 1_555 1_555
O3_3 Yb4 1_555 1_555
O4_3 Yb4 1_555 1_555
H1_3 O4_3 1_555 1_555
H2_3 O4_3 1_555 1_555
O5_3 Yb4 1_555 1_555
H3_3 O5_3 1_555 1_555
H4_3 O5_3 1_555 1_555
C1_3 N1_3 1_555 1_555
H5_3 C1_3 1_555 1_555
C2_3 C1_3 1_555 1_555
H6_3 C2_3 1_555 1_555
C3_3 C2_3 1_555 1_555
C4_3 C3_3 1_555 1_555
H7_3 C4_3 1_555 1_555
C5_3 N1_3 1_555 1_555
H8_3 C5_3 1_555 1_555
C6_3 N2_3 1_555 1_555
H9_3 C6_3 1_555 1_555
C7_3 C6_3 1_555 1_555
H10_3 C7_3 1_555 1_555
C8_3 C3_3 1_555 1_555
C9_3 C8_3 1_555 1_555
H11_3 C9_3 1_555 1_555
C10_3 N2_3 1_555 1_555
C11_3 N3_3 1_555 1_555
H13_3 C11_3 1_555 1_555
C12_3 C11_3 1_555 1_555
H14_3 C12_3 1_555 1_555
C13_3 C12_3 1_555 1_555
C14_3 C13_3 1_555 1_555
H15_3 C14_3 1_555 1_555
C15_3 N3_3 1_555 1_555
H16_3 C15_3 1_555 1_555
C17_3 W1_3 1_555 1_555
C18_3 W1_3 1_555 1_555
C19_3 W1_3 1_555 1_555
C20_3 W1_3 1_555 1_555
C21_3 W1_3 1_555 1_555
C22_3 W1_3 1_555 1_555
C23_3 W1_3 1_555 1_555
N12_3 O6_3 1_555 1_555
O6_3 Yb7 1_555 1_555
C24_3 N12_3 1_555 1_555
H17_3 C24_3 1_555 1_555
C25_3 C24_3 1_555 1_555
H18_3 C25_3 1_555 1_555
C26_3 C13_3 1_555 1_555
C27_3 C26_3 1_555 1_555
H19_3 C27_3 1_555 1_555
C28_3 N12_3 1_555 1_555
H20_3 C28_3 1_555 1_555
W2_3 C39_3 1_555 1_555
Yb7 N15_3 1_555 1_555
N13_3 O7_3 1_555 1_555
N14_3 O12_2 1_555 1_555
N15_3 C39_3 1_555 1_555
N16_2 C40_3 1_555 1_555
N26_2 C41_3 1_555 1_555
N18_3 C42_3 1_555 1_555
N19_3 C43_3 1_555 1_555
N20_3 C44_3 1_555 1_555
N21_3 C45_3 1_555 1_555
N22_3 C46_3 1_555 1_555
O7_3 Yb7 1_555 1_555
O9_3 Yb7 1_555 1_555
H21_3 O9_3 1_555 1_555
H22_3 O9_3 1_555 1_555
O10_3 Yb7 1_555 1_555
H23_3 O10_3 1_555 1_555
H24_3 O10_3 1_555 1_555
C29_3 N13_3 1_555 1_555
H25_3 C29_3 1_555 1_555
C30_3 C29_3 1_555 1_555
H26_3 C30_3 1_555 1_555
C31_3 C30_3 1_555 1_555
C32_3 C31_3 1_555 1_555
H27_3 C32_3 1_555 1_555
C33_3 N13_3 1_555 1_555
H28_3 C33_3 1_555 1_555
C34_3 N14_3 1_555 1_555
H29_3 C34_3 1_555 1_555
C35_3 C34_3 1_555 1_555
H30_3 C35_3 1_555 1_555
C36_3 C31_3 1_555 1_555
C37_3 C36_3 1_555 1_555
H31_3 C37_3 1_555 1_555
C38_3 N14_3 1_555 1_555
C40_3 W2_3 1_555 1_555
C41_3 W2_3 1_555 1_555
C42_3 W2_3 1_555 1_555
C43_3 W2_3 1_555 1_555
C44_3 W2_3 1_555 1_555
C45_3 W2_3 1_555 1_555
C46_3 W2_3 1_555 1_555
N23_2 Yb7 1_555 1_555
N24_2 Yb4 1_555 1_555
C4_3 C5_3 1_555 1_555
C7_3 C8_3 1_555 1_555
C9_3 C10_3 1_555 1_555
C14_3 C15_3 1_555 1_555
C25_3 C26_3 1_555 1_555
C27_3 C28_3 1_555 1_555
C32_3 C33_3 1_555 1_555
C35_3 C36_3 1_555 1_555
C37_3 C38_3 1_555 1_555
W1_4 C16_4 1_555 1_555
Yb5 N4_4 1_555 1_555
N3_4 O3_4 1_555 1_555
N4_4 C16_4 1_555 1_555
N23_2 C17_4 1_555 1_555
N25 C18_4 1_555 1_555
N7_4 C19_4 1_555 1_555
N8_4 C20_4 1_555 1_555
N9_4 C21_4 1_555 1_555
N10_4 C22_4 1_555 1_555
N11_4 C23_4 1_555 1_555
O3_4 Yb5 1_555 1_555
O4_4 Yb5 1_555 1_555
H1_4 O4_4 1_555 1_555
O5_4 Yb5 1_555 1_555
H3_4 O5_4 1_555 1_555
H4_4 O5_4 1_555 1_555
C14_4 C13_4 1_555 1_555
H15_4 C14_4 1_555 1_555
C15_4 N3_4 1_555 1_555
H16_4 C15_4 1_555 1_555
C17_4 W1_4 1_555 1_555
C18_4 W1_4 1_555 1_555
C19_4 W1_4 1_555 1_555
C20_4 W1_4 1_555 1_555
C21_4 W1_4 1_555 1_555
C22_4 W1_4 1_555 1_555
C23_4 W1_4 1_555 1_555
H17_4 C24_4 1_555 1_555
C25_4 C24_4 1_555 1_555
H18_4 C25_4 1_555 1_555
N13_4 O7_4 1_555 1_555
N14_4 O12 1_555 1_555
C29_4 N13_4 1_555 1_555
H25_4 C29_4 1_555 1_555
C30_4 C29_4 1_555 1_555
H26_4 C30_4 1_555 1_555
C31_4 C30_4 1_555 1_555
C32_4 C31_4 1_555 1_555
H27_4 C32_4 1_555 1_555
C33_4 N13_4 1_555 1_555
H28_4 C33_4 1_555 1_555
C34_4 N14_4 1_555 1_555
H29_4 C34_4 1_555 1_555
C35_4 C34_4 1_555 1_555
H30_4 C35_4 1_555 1_555
C36_4 C31_4 1_555 1_555
C37_4 C36_4 1_555 1_555
H31_4 C37_4 1_555 1_555
C38_4 N14_4 1_555 1_555
C14_4 C15_4 1_555 1_555
C32_4 C33_4 1_555 1_555
C35_4 C36_4 1_555 1_555
C37_4 C38_4 1_555 1_555
N1_4 O1_4 1_555 1_555
N2_4 O11 1_555 1_555
C1_4 N1_4 1_555 1_555
H5_4 C1_4 1_555 1_555
C2_4 C1_4 1_555 1_555
H6_4 C2_4 1_555 1_555
C3_4 C2_4 1_555 1_555
C4_4 C3_4 1_555 1_555
H7_4 C4_4 1_555 1_555
C5_4 N1_4 1_555 1_555
H8_4 C5_4 1_555 1_555
C6_4 N2_4 1_555 1_555
H9_4 C6_4 1_555 1_555
C7_4 C6_4 1_555 1_555
H10_4 C7_4 1_555 1_555
C8_4 C3_4 1_555 1_555
C9_4 C8_4 1_555 1_555
H11_4 C9_4 1_555 1_555
C10_4 N2_4 1_555 1_555
H13_4 C11_4 1_555 1_555
C12_4 C11_4 1_555 1_555
H14_4 C12_4 1_555 1_555
N12_4 O6_4 1_555 1_555
O6_4 Yb8 1_555 1_555
C27_4 C26_4 1_555 1_555
H19_4 C27_4 1_555 1_555
C28_4 N12_4 1_555 1_555
H20_4 C28_4 1_555 1_555
W2_4 C39_4 1_555 1_555
Yb8 N15_4 1_555 1_555
N15_4 C39_4 1_555 1_555
N24_2 C40_4 1_555 1_555
N26 C41_4 1_555 1_555
N18_4 C42_4 1_555 1_555
N19_4 C43_4 1_555 1_555
N20_4 C44_4 1_555 1_555
N21_4 C45_4 1_555 1_555
N22_4 C46_4 1_555 1_555
O9_4 Yb8 1_555 1_555
H21_4 O9_4 1_555 1_555
O10_4 Yb8 1_555 1_555
H23_4 O10_4 1_555 1_555
H24_4 O10_4 1_555 1_555
C40_4 W2_4 1_555 1_555
C41_4 W2_4 1_555 1_555
C42_4 W2_4 1_555 1_555
C43_4 W2_4 1_555 1_555
C44_4 W2_4 1_555 1_555
C45_4 W2_4 1_555 1_555
C46_4 W2_4 1_555 1_555
C4_4 C5_4 1_555 1_555
C7_4 C8_4 1_555 1_555
C9_4 C10_4 1_555 1_555
C27_4 C28_4 1_555 1_555

#END
