
###############################################################################
#
# This file contains modified crystal structure data generated from the
# MOF subset of the Cambridge Structural Database (CSD) v543 
# hosted by the Cambridge Crystallographic Data Centre (CCDC).
#
# This work is licensed under the Creative Commons
# Attribution-NonCommercial-ShareAlike 4.0 International License.
# To view a copy of this license, visit
# http://creativecommons.org/licenses/by-nc-sa/4.0/
# or send a letter to
# Creative Commons, PO Box 1866, Mountain View, CA 94042, USA.
#
# CIF created using the CSD Python API on 29 September 2022
# The structure has been converted into the P1 space group
# The structure has a 3D framework
# The original CSD entry ZEKKIM is in the triclinic crystal system
# The original CSD entry ZEKKIM is in a Sohncke space group
# The framework has been calculated to contain at least 10.0% void space
# The void calculation uses a probe of radius 1.32A, grid spacing 0.4
#
###############################################################################

data_ZEKKIM
_chemical_formula_moiety         '(C30 H29 Cd1 N5 O10)n'
_symmetry_cell_setting           triclinic
_symmetry_space_group_name_H-M   'P 1'
_symmetry_Int_Tables_number      1
_space_group_name_Hall           'P 1'
loop_
_symmetry_equiv_pos_site_id
_symmetry_equiv_pos_as_xyz
1 x,y,z
_cell_length_a                   10.169(5)
_cell_length_b                   10.827(5)
_cell_length_c                   12.703(5)
_cell_angle_alpha                66.237(5)
_cell_angle_beta                 77.645(5)
_cell_angle_gamma                63.601(5)
_cell_volume                     1145.51
loop_
_atom_site_label
_atom_site_type_symbol
_atom_site_fract_x
_atom_site_fract_y
_atom_site_fract_z
_atom_site_U_iso_or_equiv
_atom_site_thermal_displace_type
O11 O 0.0097(7) 0.0052(6) 0.2086(5) 0.0146 Uani
Cd7 Cd 0.10982(5) 0.98649(5) 0.03273(4) 0.0149 Uani
C2 C 0.1126(12) 0.5128(11) 0.3877(9) 0.0129 Uani
N3 N 0.0316(9) 0.6519(10) 0.3831(8) 0.0122 Uani
C5 C 0.3143(8) 0.1354(8) 0.2605(6) 0.0119 Uani
C6 C 0.0667(8) 0.1762(9) 0.2441(7) 0.0126 Uani
C9 C 0.0144(9) 0.3061(8) 0.2661(7) 0.0159 Uani
C10 C 0.4774(9) 0.0453(9) 0.2588(7) 0.0146 Uani
C11 C 0.1120(9) 0.3545(9) 0.2844(7) 0.0140 Uani
C12 C 0.0575(9) 0.7352(9) 0.4368(7) 0.0133 Uani
H4 H 0.140370 0.670652 0.486144 0.0160 Uiso
H5 H 0.081997 0.813517 0.377522 0.0160 Uiso
C13 C 0.2394(12) 0.4110(12) 0.4654(10) 0.0193 Uani
H6 H 0.325612 0.428324 0.428747 0.0290 Uiso
H7 H 0.257065 0.310731 0.480427 0.0290 Uiso
H8 H 0.216559 0.428912 0.536605 0.0290 Uiso
C14 C 0.0556(10) 0.4906(10) 0.3113(9) 0.0158 Uani
C15 C 0.2615(9) 0.2673(9) 0.2795(7) 0.0144 Uani
H9 H 0.328288 0.298511 0.289340 0.0170 Uiso
O8 O 0.5559(6) 0.1169(6) 0.2443(5) 0.0150 Uani
C17 C 0.2158(8) 0.0911(8) 0.2434(6) 0.0117 Uani
H10 H 0.250014 0.002518 0.231098 0.0140 Uiso
C27 C 0.0244(11) 0.6371(11) 0.7026(7) 0.0271 Uani
H18 H 0.043453 0.551142 0.686558 0.0400 Uiso
H20 H 0.114284 0.649744 0.693762 0.0400 Uiso
O12 O 0.7889(7) 0.0211(7) 0.0561(5) 0.0180 Uani
O13 O 0.3214(7) 0.0183(8) 0.0162(6) 0.0223 Uani
O14 O 0.8243(6) 0.1948(6) 0.2429(5) 0.0186 Uani
Cd1 Cd 0.78814(4) 0.97425(4) 0.25010(3) 0.0099 Uani
O6 O 0.5276(7) 0.9141(7) 0.2720(6) 0.0243 Uani
O10 O 0.2243(7) 0.7490(6) 0.1547(5) 0.0202 Uani
H21 H 0.292951 0.695620 0.117136 0.0300 Uiso
H22 H 0.161410 0.707624 0.186404 0.0300 Uiso
N6 N 0.9262(9) 0.7225(9) 0.3043(7) 0.0084 Uani
N7 N 0.8120(8) 0.9208(8) 0.4485(6) 0.0159 Uani
O15 O 0.3003(7) 0.9407(8) 0.8878(6) 0.0286 Uani
H1 H 0.575364 0.993134 0.016860 0.0180 Uiso
C1 C 0.8490(9) 0.9755(10) 0.9746(7) 0.0170 Uani
C3 C 0.7551(9) 0.9570(9) 0.9092(7) 0.0152 Uani
C4 C 0.7226(9) 0.9677(9) 0.5299(7) 0.0145 Uani
C7 C 0.6126(9) 0.9725(9) 0.9495(7) 0.0151 Uani
C8 C 0.8113(9) 0.9227(9) 0.8107(7) 0.0152 Uani
H2 H 0.907831 0.909851 0.785504 0.0180 Uiso
H3 H 0.913736 0.361627 0.268730 0.0190 Uiso
O7 O 0.9823(7) 0.9463(7) 0.9401(5) 0.0238 Uani
C16 C 0.9368(8) 0.6239(8) 0.2638(6) 0.0116 Uani
C18 C 0.7254(9) 0.9068(9) 0.7483(7) 0.0140 Uani
C19 C 0.5831(9) 0.9232(9) 0.7890(7) 0.0182 Uani
H11 H 0.524907 0.911711 0.749326 0.0220 Uiso
C20 C 0.5258(9) 0.9569(9) 0.8890(7) 0.0161 Uani
C21 C 0.8306(9) 0.6640(9) 0.1773(7) 0.0155 Uani
H12 H 0.771064 0.767838 0.153292 0.0230 Uiso
H13 H 0.768794 0.610647 0.211799 0.0230 Uiso
H14 H 0.884311 0.638947 0.111697 0.0230 Uiso
C22 C 0.3727(9) 0.9726(10) 0.9343(7) 0.0191 Uani
C23 C 0.9571(9) 0.1279(8) 0.2288(7) 0.0125 Uani
N4 N 0.9292(7) 0.7983(7) 0.5044(6) 0.0136 Uani
C24 C 0.7842(10) 0.8789(10) 0.6397(7) 0.0131 Uani
C26 C 0.9153(9) 0.7703(9) 0.6203(7) 0.0167 Uani
H19 H 0.985072 0.625457 0.780154 0.0400 Uiso
H27 H 0.873435 0.449432 0.029027 0.0480 Uiso
H28 H 0.703295 0.542575 0.026600 0.0480 Uiso
C25 C 0.5815(10) 0.0967(10) 0.5018(7) 0.0212 Uani
H15 H 0.589638 0.163963 0.425833 0.0320 Uiso
H16 H 0.557324 0.145069 0.556498 0.0320 Uiso
H17 H 0.505735 0.065273 0.504906 0.0320 Uiso
O9 O 0.9809(10) 0.2384(9) 0.9730(8) 0.0297 Uani
C28 C 0.8744(15) 0.3136(13) 0.9128(10) 0.0267 Uani
H23 H 0.858179 0.272744 0.867500 0.0330 Uiso
C29 C 0.6640(16) 0.5390(16) 0.8216(13) 0.0395 Uani
H24 H 0.654509 0.476971 0.789456 0.0590 Uiso
H25 H 0.690054 0.614115 0.761333 0.0590 Uiso
H26 H 0.572177 0.584036 0.858553 0.0590 Uiso
N5 N 0.7791(12) 0.4498(12) 0.9066(9) 0.0297 Uani
C30 C 0.7921(14) 0.5174(13) 0.9801(9) 0.0321 Uani
H29 H 0.808295 0.604968 0.933193 0.0480 Uiso
loop_
_atom_site_aniso_label
_atom_site_aniso_U_11
_atom_site_aniso_U_22
_atom_site_aniso_U_33
_atom_site_aniso_U_23
_atom_site_aniso_U_13
_atom_site_aniso_U_12
O11 0.018 0.014 0.019 -0.009 0 -0.01
Cd7 0.0104 0.0209 0.0173 -0.0112 0.0028 -0.0072
C2 0.016 0.01 0.016 -0.005 0 -0.008
N3 0.006 0.018 0.016 -0.011 -0.003 -0.002
C5 0.011 0.013 0.009 -0.004 0.003 -0.004
C6 0.011 0.014 0.018 -0.009 0.003 -0.008
C9 0.011 0.01 0.024 -0.007 -0.003 0
C10 0.011 0.019 0.011 -0.004 0 -0.005
C11 0.012 0.011 0.021 -0.007 -0.003 -0.004
C12 0.011 0.017 0.014 -0.009 -0.001 -0.004
C13 0.019 0.018 0.019 -0.005 -0.001 -0.007
C14 0.015 0.016 0.02 -0.007 0 -0.009
C15 0.018 0.014 0.016 -0.007 -0.003 -0.008
O8 0.009 0.019 0.018 -0.008 -0.003 -0.004
C17 0.014 0.009 0.011 -0.003 -0.003 -0.003
C27 0.024 0.033 0.015 -0.009 -0.003 -0.002
O12 0.019 0.024 0.015 -0.01 -0.001 -0.009
O13 0.012 0.036 0.027 -0.019 0.003 -0.011
O14 0.008 0.017 0.035 -0.014 0.001 -0.005
Cd1 0.0076 0.0111 0.0124 -0.0063 -0.0002 -0.003
O6 0.014 0.019 0.044 -0.02 -0.006 0
O10 0.019 0.016 0.023 -0.008 0.004 -0.006
N6 0.006 0.01 0.01 -0.004 0.001 -0.004
N7 0.014 0.02 0.013 -0.01 -0.004 -0.001
O15 0.016 0.054 0.033 -0.031 0.011 -0.02
C1 0.02 0.023 0.012 -0.004 -0.003 -0.013
C3 0.012 0.02 0.012 -0.005 -0.002 -0.005
C4 0.014 0.018 0.016 -0.011 0 -0.006
C7 0.015 0.02 0.011 -0.007 0.001 -0.007
C8 0.011 0.02 0.016 -0.008 0.002 -0.007
O7 0.018 0.039 0.025 -0.02 0.002 -0.014
C16 0.01 0.013 0.013 -0.005 -0.001 -0.005
C18 0.013 0.016 0.014 -0.01 -0.004 -0.001
C19 0.021 0.023 0.011 -0.005 -0.003 -0.009
C20 0.014 0.015 0.016 -0.007 0 -0.002
C21 0.015 0.013 0.02 -0.008 -0.003 -0.004
C22 0.015 0.022 0.017 -0.007 -0.002 -0.004
C23 0.012 0.007 0.016 -0.002 -0.004 -0.002
N4 0.006 0.017 0.015 -0.009 -0.001 0.001
C24 0.015 0.016 0.009 -0.007 0.005 -0.007
C26 0.015 0.02 0.012 -0.008 0.001 -0.003
C25 0.018 0.024 0.016 -0.011 -0.001 0
O9 0.026 0.023 0.037 -0.009 -0.005 -0.007
C28 0.04 0.016 0.022 -0.001 0 -0.015
C29 0.041 0.032 0.043 -0.007 -0.022 -0.009
N5 0.028 0.028 0.029 -0.009 0.002 -0.01
C30 0.04 0.034 0.022 -0.004 -0.003 -0.019
loop_
_geom_bond_atom_site_label_1
_geom_bond_atom_site_label_2
_geom_bond_site_symmetry_1
_geom_bond_site_symmetry_2
C2 N3 1_555 1_555
N3 C12 1_555 1_555
C5 C10 1_555 1_555
C6 C9 1_555 1_555
C10 O8 1_555 1_555
C11 C9 1_555 1_555
C12 H4 1_555 1_555
H5 C12 1_555 1_555
C13 C2 1_555 1_555
H6 C13 1_555 1_555
H7 C13 1_555 1_555
H8 C13 1_555 1_555
C14 C2 1_555 1_555
C15 C5 1_555 1_555
H9 C15 1_555 1_555
C17 C5 1_555 1_555
H10 C17 1_555 1_555
H18 C27 1_555 1_555
H20 C27 1_555 1_555
C6 C17 1_555 1_555
C11 C14 1_555 1_555
C11 C15 1_555 1_555
O10 Cd7 1_555 1_555
H21 O10 1_555 1_555
H22 O10 1_555 1_555
N6 Cd1 1_555 1_555
N7 Cd1 1_555 1_555
O14 C23 1_555 1_555
O15 C22 1_555 1_555
C1 C3 1_555 1_555
N7 C4 1_555 1_555
C3 C7 1_555 1_555
C4 C24 1_555 1_555
C8 C3 1_555 1_555
H2 C8 1_555 1_555
O7 C1 1_555 1_555
C16 N6 1_555 1_555
C18 C8 1_555 1_555
C19 C18 1_555 1_555
H11 C19 1_555 1_555
C20 C7 1_555 1_555
C21 C16 1_555 1_555
H12 C21 1_555 1_555
H13 C21 1_555 1_555
H14 C21 1_555 1_555
C22 C20 1_555 1_555
N4 N7 1_555 1_555
C24 C18 1_555 1_555
C26 N4 1_555 1_555
C19 C20 1_555 1_555
C24 C26 1_555 1_555
H15 C25 1_555 1_555
H16 C25 1_555 1_555
H17 C25 1_555 1_555
C28 O9 1_555 1_555
H23 C28 1_555 1_555
C29 H24 1_555 1_555
H25 C29 1_555 1_555
H26 C29 1_555 1_555
N5 C28 1_555 1_555
C30 N5 1_555 1_555
H29 C30 1_555 1_555
C29 N5 1_555 1_555

#END
