
###############################################################################
#
# This file contains modified crystal structure data generated from the
# MOF subset of the Cambridge Structural Database (CSD) v543 
# hosted by the Cambridge Crystallographic Data Centre (CCDC).
#
# This work is licensed under the Creative Commons
# Attribution-NonCommercial-ShareAlike 4.0 International License.
# To view a copy of this license, visit
# http://creativecommons.org/licenses/by-nc-sa/4.0/
# or send a letter to
# Creative Commons, PO Box 1866, Mountain View, CA 94042, USA.
#
# CIF created using the CSD Python API on 29 September 2022
# The structure has been converted into the P1 space group
# The structure has a 3D framework
# The original CSD entry ZELDIG is in the rhombohedral crystal system
# The framework has been calculated to contain at least 10.0% void space
# The void calculation uses a probe of radius 1.32A, grid spacing 0.4
#
###############################################################################

data_ZELDIG
_chemical_formula_moiety         '(C576 H360 Br72 Co42 O352)n'
_symmetry_cell_setting           triclinic
_symmetry_space_group_name_H-M   'P 1'
_symmetry_Int_Tables_number      1
_space_group_name_Hall           'P 1'
loop_
_symmetry_equiv_pos_site_id
_symmetry_equiv_pos_as_xyz
1 x,y,z
_cell_length_a                   28.5928(12)
_cell_length_b                   28.5928(12)
_cell_length_c                   44.145(2)
_cell_angle_alpha                90
_cell_angle_beta                 90
_cell_angle_gamma                120
_cell_volume                     31255.4
loop_
_atom_site_label
_atom_site_type_symbol
_atom_site_fract_x
_atom_site_fract_y
_atom_site_fract_z
Br2 Br 0.32279(4) 0.05774(4) 0.19157(3)
H9 H 0.3926 0.0181 0.2118
Co5 Co 0.51661(2) 0.00000(3) 0.2500
Co1 Co 0.18327(2) 0.84994(2) 0.0833
Co2 Co 0.25045(2) 0.77437(2) 0.095609(12)
O1 O 0.21592(14) 0.70234(12) 0.06979(7)
O2 O 0.16949(19) 0.71966(15) 0.03559(10)
O3 O 0.14232(18) 0.45785(14) 0.03823(10)
O4 O 0.19745(13) 0.51957(12) 0.07108(7)
O5 O 0.24443(13) 0.89064(14) 0.11383(8)
O6 O 0.28502(13) 0.84283(13) 0.12267(7)
O7 O 0.45422(15) 0.97970(13) 0.22051(10)
O8 O 0.40633(13) 0.89196(12) 0.21203(8)
O9 O 0.28232(18) 0.73919(18) 0.12585(10)
H1 H 0.2645 0.7306 0.1423
H2 H 0.3021 0.7288 0.1345
O10 O 0.22130(10) 0.81021(10) 0.06381(6)
H3 H 0.2002 0.7815 0.0542
H4 H 0.2523 0.8265 0.0556
C1 C 0.1843(2) 0.68987(18) 0.04797(11)
C2 C 0.1620(2) 0.63359(18) 0.03488(12)
C3 C 0.1279(3) 0.6187(2) 0.01008(14)
H5 H 0.1194 0.6431 0.0013
C5 C 0.1189(3) 0.5308(2) 0.01085(13)
H6 H 0.1042 0.4965 0.0025
C6 C 0.1525(2) 0.54473(18) 0.03542(12)
C7 C 0.17380(19) 0.59666(17) 0.04766(11)
H7 H 0.1961 0.6063 0.0646
C8 C 0.1651(2) 0.50420(17) 0.04943(12)
C9 C 0.27625(16) 0.88067(16) 0.12768(9)
C10 C 0.30840(17) 0.91954(17) 0.15262(10)
C11 C 0.3019(2) 0.9632(2) 0.15945(13)
H8 H 0.2769 0.9686 0.1489
C12 C 0.3327(2) 0.9984(2) 0.18180(15)
C13 C 0.3708(2) 0.9926(2) 0.19755(14)
C14 C 0.37625(17) 0.94802(18) 0.19180(10)
C15 C 0.34470(16) 0.91141(17) 0.16938(10)
H10 H 0.3481 0.8812 0.1656
C16 C 0.41586(16) 0.93940(17) 0.20976(9)
Co3 Co 0.22563(2) 0.47608(3) 0.095609(12)
O11 O 0.29766(12) 0.51358(18) 0.06979(7)
O12 O 0.28034(15) 0.44983(24) 0.03559(10)
O13 O 0.54215(14) 0.68447(23) 0.03823(10)
O14 O 0.48043(12) 0.67788(18) 0.07108(7)
O15 O 0.10936(14) 0.35379(19) 0.11383(8)
O16 O 0.15717(13) 0.44219(18) 0.12267(7)
O17 O 0.02030(13) 0.47452(20) 0.22051(10)
O18 O 0.10804(12) 0.51437(18) 0.21203(8)
O19 O 0.26081(18) 0.54313(25) 0.12585(10)
H11 H 0.2694 0.5339 0.1423
H12 H 0.2712 0.5733 0.1345
O20 O 0.18979(10) 0.41109(14) 0.06381(6)
H13 H 0.2185 0.4187 0.0542
H14 H 0.1735 0.4258 0.0556
C17 C 0.31013(18) 0.49443(27) 0.04797(11)
C18 C 0.36641(18) 0.52841(27) 0.03488(12)
C19 C 0.3813(2) 0.5092(4) 0.01008(14)
H15 H 0.3569 0.4763 0.0013
C21 C 0.4692(2) 0.5881(4) 0.01085(13)
H16 H 0.5035 0.6077 0.0025
C22 C 0.45527(18) 0.60777(27) 0.03542(12)
C23 C 0.40334(17) 0.57714(25) 0.04766(11)
H17 H 0.3937 0.5898 0.0646
C24 C 0.49580(17) 0.66090(26) 0.04943(12)
C25 C 0.11933(16) 0.39558(23) 0.12768(9)
C26 C 0.08046(17) 0.38886(24) 0.15262(10)
C27 C 0.0368(2) 0.3387(3) 0.15945(13)
H18 H 0.0314 0.3083 0.1489
C28 C 0.0016(2) 0.3343(3) 0.18180(15)
C29 C 0.0074(2) 0.3782(3) 0.19755(14)
C30 C 0.05198(18) 0.42823(25) 0.19180(10)
C31 C 0.08859(17) 0.43329(23) 0.16938(10)
H20 H 0.1188 0.4669 0.1656
C32 C 0.06060(17) 0.47646(23) 0.20976(9)
Co4 Co 0.15006(2) 0.33333(3) 0.0833
Co5_2 Co 0.51661(2) 1.00000(3) 0.2500
Co6 Co -0.00000(3) 0.51660(2) 0.2500
Co7 Co 0.52392(3) 0.74955(2) 0.095609(12)
Co8 Co 0.44104(2) 0.85725(3) 0.237724(12)
Co9 Co 0.14275(3) 0.58378(2) 0.237724(12)
O21 O 0.32212(18) 0.80255(13) 0.07108(7)
O22 O 0.22397(14) 0.91110(13) 0.05284(8)
O23 O 0.14119(20) 0.78755(15) 0.11282(10)
O24 O 0.12089(15) 0.80785(20) 0.05384(10)
O25 O 0.26034(13) 0.44137(12) 0.12130(8)
O26 O 0.18104(18) 0.73966(13) 0.12130(8)
O27 O 0.14354(10) 0.88797(10) 0.10286(6)
Br4 Br 0.94226(4) 0.26505(6) 0.19157(3)
H19 H 0.9819 0.3745 0.2118
Co6_2 Co 1.00000(3) 0.51660(2) 0.2500
Br4_2 Br 0.73495(6) 0.67721(7) 0.19157(3)
O11_2 O 0.48642(18) 0.78408(22) 0.06979(7)
O12_2 O 0.55017(24) 0.83051(28) 0.03559(10)
O13_2 O 0.31553(23) 0.85768(27) 0.03823(10)
O15_2 O 0.64621(19) 0.75557(24) 0.11383(8)
O16_2 O 0.55781(18) 0.71498(22) 0.12267(7)
O17_2 O 0.52548(20) 0.54578(24) 0.22051(10)
O18_2 O 0.48563(18) 0.59367(22) 0.21203(8)
O19_2 O 0.45687(25) 0.71768(31) 0.12585(10)
H11_2 H 0.4661 0.7355 0.1423
H12_2 H 0.4267 0.6979 0.1345
O20_2 O 0.58891(14) 0.77870(17) 0.06381(6)
H13_2 H 0.5813 0.7998 0.0542
H14_2 H 0.5742 0.7477 0.0556
C17_2 C 0.50557(27) 0.81570(32) 0.04797(11)
C18_2 C 0.47159(27) 0.83800(32) 0.03488(12)
C19_2 C 0.4908(4) 0.8721(4) 0.01008(14)
H15_2 H 0.5237 0.8806 0.0013
C21_2 C 0.4119(4) 0.8811(4) 0.01085(13)
H16_2 H 0.3923 0.8958 0.0025
C22_2 C 0.39223(27) 0.84750(32) 0.03542(12)
C23_2 C 0.42286(25) 0.82620(30) 0.04766(11)
H17_2 H 0.4102 0.8039 0.0646
C24_2 C 0.33910(26) 0.83490(31) 0.04943(12)
C25_2 C 0.60442(23) 0.72375(28) 0.12768(9)
C26_2 C 0.61114(24) 0.69160(29) 0.15262(10)
C27_2 C 0.6613(3) 0.6981(4) 0.15945(13)
H18_2 H 0.6917 0.7231 0.1489
C28_2 C 0.6657(3) 0.6673(4) 0.18180(15)
C29_2 C 0.6218(3) 0.6292(4) 0.19755(14)
H19_2 H 0.6255 0.6074 0.2118
C30_2 C 0.57177(25) 0.62375(31) 0.19180(10)
C31_2 C 0.56671(23) 0.65530(29) 0.16938(10)
H20_2 H 0.5331 0.6519 0.1656
C32_2 C 0.52354(23) 0.58414(29) 0.20976(9)
Co4_2 Co 0.66667(3) 0.81673(4) 0.0833
Co6_3 Co 0.48340(2) 0.48339(4) 0.2500
Co9_2 Co 0.41622(2) 0.55896(4) 0.237724(12)
O22_2 O 0.08890(13) 0.31288(19) 0.05284(8)
O23_2 O 0.21245(15) 0.35363(25) 0.11282(10)
O24_2 O 0.19215(20) 0.31303(25) 0.05384(10)
O25_2 O 0.55863(12) 0.81896(18) 0.12130(8)
O27_2 O 0.11203(10) 0.25558(14) 0.10286(6)
O22_3 O 0.68712(19) 0.77603(14) 0.05284(8)
O23_3 O 0.64637(25) 0.85881(20) 0.11282(10)
O24_3 O 0.68697(25) 0.87911(15) 0.05384(10)
O27_3 O 0.74442(14) 0.85646(10) 0.10286(6)
Br2_2 Br 0.05774(4) 0.32279(4) 0.30843(3)
H9_2 H 0.0181 0.3926 0.2882
Co1_2 Co 0.84994(2) 0.18327(2) 0.4167
Co2_2 Co 0.77437(2) 0.25045(2) 0.404391(12)
Br1 Br 0.54724(3) 0.06100(6) 0.53603(3)
O1_2 O 0.70234(12) 0.21592(14) 0.43021(7)
O2_2 O 0.71966(15) 0.16949(19) 0.46441(10)
O3_2 O 0.45785(14) 0.14232(18) 0.46177(10)
O4_2 O 0.51957(12) 0.19745(13) 0.42892(7)
O5_2 O 0.89064(14) 0.24443(13) 0.38617(8)
O6_2 O 0.84283(13) 0.28502(13) 0.37733(7)
O7_2 O 0.97970(13) 0.45422(15) 0.27949(10)
O8_2 O 0.89196(12) 0.40633(13) 0.28797(8)
O9_2 O 0.73919(18) 0.28232(18) 0.37415(10)
H1_2 H 0.7306 0.2645 0.3577
H2_2 H 0.7288 0.3021 0.3655
O10_2 O 0.81021(10) 0.22130(10) 0.43619(6)
H3_2 H 0.7815 0.2002 0.4458
H4_2 H 0.8265 0.2523 0.4444
C1_2 C 0.68987(18) 0.1843(2) 0.45203(11)
C2_2 C 0.63359(18) 0.1620(2) 0.46512(12)
C3_2 C 0.6187(2) 0.1279(3) 0.48992(14)
H5_2 H 0.6431 0.1194 0.4987
C4 C 0.5677(2) 0.1070(3) 0.50130(15)
C5_2 C 0.5308(2) 0.1189(3) 0.48915(13)
H6_2 H 0.4965 0.1042 0.4975
C6_2 C 0.54473(18) 0.1525(2) 0.46458(12)
C7_2 C 0.59666(17) 0.17380(19) 0.45234(11)
H7_2 H 0.6063 0.1961 0.4354
C8_2 C 0.50420(17) 0.1651(2) 0.45057(12)
C9_2 C 0.88067(16) 0.27625(16) 0.37232(9)
C10_2 C 0.91954(17) 0.30840(17) 0.34738(10)
C11_2 C 0.9632(2) 0.3019(2) 0.34055(13)
H8_2 H 0.9686 0.2769 0.3511
C12_2 C 0.9984(2) 0.3327(2) 0.31820(15)
C13_2 C 0.9926(2) 0.3708(2) 0.30245(14)
C14_2 C 0.94802(18) 0.37625(17) 0.30820(10)
C15_2 C 0.91141(17) 0.34470(16) 0.33062(10)
H10_2 H 0.8812 0.3481 0.3344
C16_2 C 0.93940(17) 0.41586(16) 0.29024(9)
Co3_2 Co 0.47608(3) 0.22563(2) 0.404391(12)
Br3 Br 0.51376(7) 0.45276(3) 0.53603(3)
O11_3 O 0.51358(18) 0.29766(12) 0.43021(7)
O12_3 O 0.44983(24) 0.28034(15) 0.46441(10)
O13_3 O 0.68447(23) 0.54215(14) 0.46177(10)
O14_2 O 0.67788(18) 0.48043(12) 0.42892(7)
O15_3 O 0.35379(19) 0.10936(14) 0.38617(8)
O16_3 O 0.44219(18) 0.15717(13) 0.37733(7)
O17_3 O 0.47452(20) 0.02030(13) 0.27949(10)
O18_3 O 0.51437(18) 0.10804(12) 0.28797(8)
O19_3 O 0.54313(25) 0.26081(18) 0.37415(10)
H11_3 H 0.5339 0.2694 0.3577
H12_3 H 0.5733 0.2712 0.3655
O20_3 O 0.41109(14) 0.18979(10) 0.43619(6)
H13_3 H 0.4187 0.2185 0.4458
H14_3 H 0.4258 0.1735 0.4444
C17_3 C 0.49443(27) 0.31013(18) 0.45203(11)
C18_3 C 0.52841(27) 0.36641(18) 0.46512(12)
C19_3 C 0.5092(4) 0.3813(2) 0.48992(14)
H15_3 H 0.4763 0.3569 0.4987
C20 C 0.5393(4) 0.4323(2) 0.50130(15)
C21_3 C 0.5881(4) 0.4692(2) 0.48915(13)
H16_3 H 0.6077 0.5035 0.4975
C22_3 C 0.60777(27) 0.45527(18) 0.46458(12)
C23_3 C 0.57714(25) 0.40334(17) 0.45234(11)
H17_3 H 0.5898 0.3937 0.4354
C24_3 C 0.66090(26) 0.49580(17) 0.45057(12)
C25_3 C 0.39558(23) 0.11933(16) 0.37232(9)
C26_3 C 0.38886(24) 0.08046(17) 0.34738(10)
C27_3 C 0.3387(3) 0.0368(2) 0.34055(13)
H18_3 H 0.3083 0.0314 0.3511
C28_3 C 0.3343(3) 0.0016(2) 0.31820(15)
C29_3 C 0.3782(3) 0.0074(2) 0.30245(14)
C30_3 C 0.42823(25) 0.05198(18) 0.30820(10)
C31_3 C 0.43329(23) 0.08859(17) 0.33062(10)
H20_3 H 0.4669 0.1188 0.3344
C32_3 C 0.47646(23) 0.06060(17) 0.29024(9)
Co4_3 Co 0.33333(3) 0.15006(2) 0.4167
Co7_2 Co 0.74955(2) 0.52392(3) 0.404391(12)
Co8_2 Co 0.85725(3) 0.44104(2) 0.262276(12)
Co9_3 Co 0.58378(2) 0.14275(3) 0.262276(12)
O21_2 O 0.80255(13) 0.32212(18) 0.42892(7)
O22_4 O 0.91110(13) 0.22397(14) 0.44716(8)
O23_4 O 0.78755(15) 0.14119(20) 0.38718(10)
O24_4 O 0.80785(20) 0.12089(15) 0.44616(10)
O25_3 O 0.44137(12) 0.26034(13) 0.37870(8)
O26_2 O 0.73966(13) 0.18104(18) 0.37870(8)
O27_4 O 0.88797(10) 0.14354(10) 0.39714(6)
Br4_3 Br 0.26505(6) 0.94226(4) 0.30843(3)
H19_3 H 0.3745 0.9819 0.2882
Br3_2 Br 0.93900(8) 0.48624(7) 0.53603(3)
Br4_4 Br 0.67721(7) 0.73495(6) 0.30843(3)
O11_4 O 0.78408(22) 0.48642(18) 0.43021(7)
O12_4 O 0.83051(28) 0.55017(24) 0.46441(10)
O13_4 O 0.85768(27) 0.31553(23) 0.46177(10)
O15_4 O 0.75557(24) 0.64621(19) 0.38617(8)
O16_4 O 0.71498(22) 0.55781(18) 0.37733(7)
O17_4 O 0.54578(24) 0.52548(20) 0.27949(10)
O18_4 O 0.59367(22) 0.48563(18) 0.28797(8)
O19_4 O 0.71768(31) 0.45687(25) 0.37415(10)
H11_4 H 0.7355 0.4661 0.3577
H12_4 H 0.6979 0.4267 0.3655
O20_4 O 0.77870(17) 0.58891(14) 0.43619(6)
H13_4 H 0.7998 0.5813 0.4458
H14_4 H 0.7477 0.5742 0.4444
C17_4 C 0.81570(32) 0.50557(27) 0.45203(11)
C18_4 C 0.83800(32) 0.47159(27) 0.46512(12)
C19_4 C 0.8721(4) 0.4908(4) 0.48992(14)
H15_4 H 0.8806 0.5237 0.4987
C20_2 C 0.8930(4) 0.4607(4) 0.50130(15)
C21_4 C 0.8811(4) 0.4119(4) 0.48915(13)
H16_4 H 0.8958 0.3923 0.4975
C22_4 C 0.84750(32) 0.39223(27) 0.46458(12)
C23_4 C 0.82620(30) 0.42286(25) 0.45234(11)
H17_4 H 0.8039 0.4102 0.4354
C24_4 C 0.83490(31) 0.33910(26) 0.45057(12)
C25_4 C 0.72375(28) 0.60442(23) 0.37232(9)
C26_4 C 0.69160(29) 0.61114(24) 0.34738(10)
C27_4 C 0.6981(4) 0.6613(3) 0.34055(13)
H18_4 H 0.7231 0.6917 0.3511
C28_4 C 0.6673(4) 0.6657(3) 0.31820(15)
C29_4 C 0.6292(4) 0.6218(3) 0.30245(14)
H19_4 H 0.6074 0.6255 0.2882
C30_4 C 0.62375(31) 0.57177(25) 0.30820(10)
C31_4 C 0.65530(29) 0.56671(23) 0.33062(10)
H20_4 H 0.6519 0.5331 0.3344
C32_4 C 0.58414(29) 0.52354(23) 0.29024(9)
Co4_4 Co 0.81673(4) 0.66667(3) 0.4167
Co9_4 Co 0.55896(4) 0.41622(2) 0.262276(12)
O22_5 O 0.31288(19) 0.08890(13) 0.44716(8)
O23_5 O 0.35363(25) 0.21245(15) 0.38718(10)
O24_5 O 0.31303(25) 0.19215(20) 0.44616(10)
O25_4 O 0.81896(18) 0.55863(12) 0.37870(8)
O27_5 O 0.25558(14) 0.11203(10) 0.39714(6)
O22_6 O 0.77603(14) 0.68712(19) 0.44716(8)
O23_6 O 0.85881(20) 0.64637(25) 0.38718(10)
O24_6 O 0.87911(15) 0.68697(25) 0.44616(10)
O27_6 O 0.85646(10) 0.74442(14) 0.39714(6)
O7_3 O 0.12089(15) 0.31303(13) 0.55384(10)
O8_3 O 0.07300(13) 0.22529(12) 0.54536(8)
C13_3 C 0.0375(2) 0.3259(2) 0.53088(14)
H9_3 H 0.0593 0.3514 0.5451
C14_3 C 0.04292(17) 0.28135(18) 0.52513(10)
C15_3 C 0.01137(16) 0.24474(17) 0.50271(10)
H10_3 H 0.0148 0.2145 0.4989
C16_3 C 0.08253(16) 0.27273(17) 0.54309(9)
O13_5 O 0.20882(14) 0.01780(23) 0.37156(10)
O14_3 O 0.14710(12) 0.01121(18) 0.40441(7)
Co5_3 Co 0.18327(2) 0.33334(3) 0.5834
Co7_3 Co 0.19059(3) 0.08288(2) 0.428942(12)
Co8_3 Co 0.10770(2) 0.19059(3) 0.571058(12)
Br3_3 Br 0.11943(3) 0.84709(7) 0.29730(3)
C18_5 C 0.03308(18) 0.86174(27) 0.36821(12)
C19_5 C 0.0480(2) 0.8425(4) 0.34341(14)
H15_5 H 0.0236 0.8096 0.3346
C20_3 C 0.0990(2) 0.8726(4) 0.33203(15)
C21_5 C 0.1359(2) 0.9214(4) 0.34418(13)
H16_5 H 0.1702 0.9410 0.3358
C22_5 C 0.12194(18) 0.94110(27) 0.36875(12)
C23_5 C 0.07001(17) 0.91047(25) 0.38099(11)
H17_5 H 0.0604 0.9231 0.3979
C24_5 C 0.16247(17) 0.99423(26) 0.38276(12)
Co2_3 Co 0.91712(2) 0.10770(2) 0.428942(12)
Br2_3 Br 0.98946(4) 0.39107(4) 0.52490(3)
O1_3 O 0.88259(14) 0.03567(12) 0.40312(7)
O2_3 O 0.83616(19) 0.05299(15) 0.36892(10)
O6_3 O 0.95169(13) 0.17616(13) 0.45600(7)
O9_3 O 0.94899(18) 0.07252(18) 0.45918(10)
H1_3 H 0.9312 0.0639 0.4756
H2_3 H 0.9688 0.0621 0.4678
H3_3 H 0.8669 0.1148 0.3875
H4_3 H 0.9190 0.1598 0.3889
C1_3 C 0.8510(2) 0.02320(18) 0.38130(11)
C9_3 C 0.94292(16) 0.21400(16) 0.46101(9)
C10_3 C 0.97507(17) 0.25287(17) 0.48595(10)
C11_3 C 0.9686(2) 0.2965(2) 0.49278(13)
H8_3 H 0.9436 0.3019 0.4822
C12_3 C 0.9994(2) 0.3317(2) 0.51513(15)
O21_3 O 0.98879(18) 0.13588(13) 0.40441(7)
O26_3 O 0.84770(18) 0.07300(13) 0.45464(8)
Br1_2 Br 0.72767(6) 0.88057(3) 0.29730(3)
O3_3 O 0.80899(18) 0.79118(14) 0.37156(10)
O4_3 O 0.86412(13) 0.85290(12) 0.40441(7)
C2_3 C 0.8287(2) 0.96692(18) 0.36821(12)
C3_3 C 0.7946(3) 0.9520(2) 0.34341(14)
H5_3 H 0.7861 0.9764 0.3346
C4_2 C 0.7737(3) 0.9010(2) 0.33203(15)
C5_3 C 0.7856(3) 0.8641(2) 0.34418(13)
H6_3 H 0.7709 0.8298 0.3358
C6_3 C 0.8192(2) 0.87806(18) 0.36875(12)
C7_3 C 0.84047(19) 0.92999(17) 0.38099(11)
H7_3 H 0.8628 0.9396 0.3979
C8_3 C 0.8318(2) 0.83753(17) 0.38276(12)
Co3_3 Co 0.89230(2) 0.80941(3) 0.428942(12)
Br4_5 Br 0.60893(4) 0.59838(6) 0.52490(3)
O11_5 O 0.96433(12) 0.84691(18) 0.40312(7)
O12_5 O 0.94701(15) 0.78316(24) 0.36892(10)
O16_5 O 0.82384(13) 0.77552(18) 0.45600(7)
O17_5 O 0.68697(13) 0.80785(20) 0.55384(10)
O18_5 O 0.77471(12) 0.84770(18) 0.54536(8)
O19_5 O 0.92748(18) 0.87646(25) 0.45918(10)
H11_5 H 0.9361 0.8672 0.4756
H12_5 H 0.9379 0.9066 0.4678
H13_5 H 0.8852 0.7520 0.3875
H14_5 H 0.8402 0.7591 0.3889
C17_5 C 0.97680(18) 0.82776(27) 0.38130(11)
C25_5 C 0.78600(16) 0.72891(23) 0.46101(9)
C26_5 C 0.74713(17) 0.72219(24) 0.48595(10)
C27_5 C 0.7035(2) 0.6720(3) 0.49278(13)
H18_5 H 0.6981 0.6416 0.4822
C28_5 C 0.6683(2) 0.6676(3) 0.51513(15)
C29_5 C 0.6741(2) 0.7115(3) 0.53088(14)
H19_5 H 0.6486 0.7078 0.5451
C30_5 C 0.71865(18) 0.76156(25) 0.52513(10)
C31_5 C 0.75526(17) 0.76662(23) 0.50271(10)
H20_5 H 0.7855 0.8002 0.4989
C32_5 C 0.72727(17) 0.80979(23) 0.54309(9)
Co6_4 Co 0.66666(3) 0.84994(2) 0.5834
Co9_5 Co 0.80941(3) 0.91712(2) 0.571058(12)
O25_5 O 0.92700(13) 0.77471(12) 0.45464(8)
Br3_4 Br 0.15291(7) 0.27233(8) 0.29730(3)
Br4_6 Br 0.40162(6) 0.01054(7) 0.52490(3)
O11_6 O 0.15309(18) 0.11741(22) 0.40312(7)
O12_6 O 0.21684(24) 0.16384(28) 0.36892(10)
O16_6 O 0.22448(18) 0.04831(22) 0.45600(7)
O19_6 O 0.12354(25) 0.05101(31) 0.45918(10)
H11_6 H 0.1328 0.0688 0.4756
H12_6 H 0.0934 0.0312 0.4678
H13_6 H 0.2480 0.1331 0.3875
H14_6 H 0.2409 0.0810 0.3889
C17_6 C 0.17224(27) 0.14903(32) 0.38130(11)
C18_6 C 0.13826(27) 0.17133(32) 0.36821(12)
C19_6 C 0.1575(4) 0.2054(4) 0.34341(14)
H15_6 H 0.1904 0.2139 0.3346
C20_4 C 0.1274(4) 0.2263(4) 0.33203(15)
C21_6 C 0.0786(4) 0.2144(4) 0.34418(13)
H16_6 H 0.0590 0.2291 0.3358
C22_6 C 0.05890(27) 0.18083(32) 0.36875(12)
C23_6 C 0.08953(25) 0.15953(30) 0.38099(11)
H17_6 H 0.0769 0.1372 0.3979
C24_6 C 0.00577(26) 0.16823(31) 0.38276(12)
C25_6 C 0.27109(23) 0.05708(28) 0.46101(9)
C26_6 C 0.27781(24) 0.02493(29) 0.48595(10)
C27_6 C 0.3280(3) 0.0314(4) 0.49278(13)
H18_6 H 0.3584 0.0564 0.4822
C28_6 C 0.3324(3) 0.0006(4) 0.51513(15)
O25_6 O 0.22529(12) 0.15230(18) 0.45464(8)
O17_6 O 0.19215(20) 0.87911(24) 0.55384(10)
O18_6 O 0.15230(18) 0.92700(22) 0.54536(8)
C29_6 C 0.2885(3) 0.9625(4) 0.53088(14)
H19_6 H 0.2922 0.9407 0.5451
C30_6 C 0.23844(25) 0.95708(31) 0.52513(10)
C31_6 C 0.23338(23) 0.98863(29) 0.50271(10)
H20_6 H 0.1998 0.9852 0.4989
C32_6 C 0.19021(23) 0.91747(29) 0.54309(9)
Co6_5 Co 0.15006(2) 0.81673(4) 0.5834
Co9_6 Co 0.08288(2) 0.89230(4) 0.571058(12)
O13_6 O 0.98220(23) 0.19101(27) 0.37156(10)
Co1_3 Co 0.51661(2) 0.51660(2) 0.7500
Co2_4 Co 0.44104(2) 0.58378(2) 0.737724(12)
Br1_3 Br 0.21391(3) 0.39433(6) 0.86936(3)
Br2_4 Br 0.72441(4) 0.65612(4) 0.64176(3)
O1_4 O 0.36901(12) 0.54925(14) 0.76354(7)
O2_4 O 0.38633(15) 0.50282(19) 0.79774(10)
O3_4 O 0.12452(14) 0.47565(18) 0.79510(10)
O4_4 O 0.18624(12) 0.53078(13) 0.76225(7)
O5_3 O 0.55731(14) 0.57776(13) 0.71950(8)
O6_4 O 0.50950(13) 0.61835(13) 0.71066(7)
O7_4 O 0.64637(13) 0.78755(15) 0.61282(10)
O8_4 O 0.55863(12) 0.73966(13) 0.62130(8)
O9_4 O 0.40586(18) 0.61565(18) 0.70748(10)
H1_4 H 0.3973 0.5978 0.6910
H2_4 H 0.3955 0.6354 0.6988
O10_3 O 0.47688(10) 0.55463(10) 0.76952(6)
H3_4 H 0.4482 0.5335 0.7791
H4_4 H 0.4932 0.5856 0.7777
C1_4 C 0.35654(18) 0.5176(2) 0.78536(11)
C2_4 C 0.30026(18) 0.4953(2) 0.79845(12)
C3_4 C 0.2854(2) 0.4612(3) 0.82325(14)
H5_4 H 0.3098 0.4527 0.8320
C4_3 C 0.2344(2) 0.4403(3) 0.83463(15)
C5_4 C 0.1975(2) 0.4522(3) 0.82248(13)
H6_4 H 0.1632 0.4375 0.8308
C6_4 C 0.21140(18) 0.4858(2) 0.79791(12)
C7_4 C 0.26333(17) 0.50713(19) 0.78567(11)
H7_4 H 0.2730 0.5294 0.7687
C8_4 C 0.17087(17) 0.4984(2) 0.78390(12)
C9_4 C 0.54734(16) 0.60958(16) 0.70565(9)
C10_4 C 0.58621(17) 0.64173(17) 0.68071(10)
C11_4 C 0.6299(2) 0.6352(2) 0.67388(13)
H8_4 H 0.6353 0.6102 0.6844
C12_4 C 0.6651(2) 0.6660(2) 0.65153(15)
C13_4 C 0.6593(2) 0.7041(2) 0.63578(14)
H9_4 H 0.6848 0.7259 0.6215
C14_4 C 0.61469(18) 0.70958(17) 0.64153(10)
C15_4 C 0.57808(17) 0.67803(16) 0.66395(10)
H10_4 H 0.5479 0.6814 0.6677
C16_4 C 0.60607(17) 0.74919(16) 0.62357(9)
Co3_4 Co 0.14275(3) 0.55896(2) 0.737724(12)
Br3_5 Br 0.18043(7) 0.78609(3) 0.86936(3)
O11_7 O 0.18025(18) 0.63099(12) 0.76354(7)
O12_7 O 0.11650(24) 0.61367(15) 0.79774(10)
O13_7 O 0.35114(23) 0.87548(14) 0.79510(10)
O14_4 O 0.34455(18) 0.81376(12) 0.76225(7)
O15_5 O 0.02046(19) 0.44269(14) 0.71950(8)
O16_7 O 0.10886(18) 0.49050(13) 0.71066(7)
O17_7 O 0.14119(20) 0.35363(13) 0.61282(10)
O18_7 O 0.18104(18) 0.44137(12) 0.62130(8)
O19_7 O 0.20980(25) 0.59414(18) 0.70748(10)
H11_7 H 0.2006 0.6027 0.6910
H12_7 H 0.2400 0.6045 0.6988
O20_5 O 0.07776(14) 0.52312(10) 0.76952(6)
H13_7 H 0.0854 0.5518 0.7791
H14_7 H 0.0925 0.5068 0.7777
C17_7 C 0.16110(27) 0.64346(18) 0.78536(11)
C18_7 C 0.19508(27) 0.69974(18) 0.79845(12)
C19_7 C 0.1759(4) 0.7146(2) 0.82325(14)
H15_7 H 0.1430 0.6902 0.8320
C20_5 C 0.2060(4) 0.7656(2) 0.83463(15)
C21_7 C 0.2548(4) 0.8025(2) 0.82248(13)
H16_7 H 0.2744 0.8368 0.8308
C22_7 C 0.27444(27) 0.78860(18) 0.79791(12)
C23_7 C 0.24381(25) 0.73667(17) 0.78567(11)
H17_7 H 0.2565 0.7270 0.7687
C24_7 C 0.32757(26) 0.82913(17) 0.78390(12)
C25_7 C 0.06225(23) 0.45266(16) 0.70565(9)
C26_7 C 0.05553(24) 0.41379(17) 0.68071(10)
C27_7 C 0.0054(3) 0.3701(2) 0.67388(13)
C28_7 C 0.0010(3) 0.3349(2) 0.65153(15)
C29_7 C 0.0449(3) 0.3407(2) 0.63578(14)
H19_7 H 0.0412 0.3152 0.6215
C30_7 C 0.09490(25) 0.38531(18) 0.64153(10)
C31_7 C 0.09996(23) 0.42192(17) 0.66395(10)
H20_7 H 0.1336 0.4521 0.6677
C32_7 C 0.14313(23) 0.39393(17) 0.62357(9)
Co4_5 Co -0.00000(3) 0.48339(2) 0.7500
Co7_4 Co 0.41622(2) 0.85725(3) 0.737724(12)
Co8_4 Co 0.52392(3) 0.77437(2) 0.595609(12)
Co9_7 Co 0.25045(2) 0.47608(3) 0.595609(12)
O21_4 O 0.46922(13) 0.65545(18) 0.76225(7)
O22_7 O 0.57776(13) 0.55731(14) 0.78050(8)
O23_7 O 0.45422(15) 0.47452(20) 0.72051(10)
O24_7 O 0.47452(20) 0.45422(15) 0.77949(10)
O25_7 O 0.10804(12) 0.59367(13) 0.71203(8)
O26_4 O 0.40633(13) 0.51437(18) 0.71203(8)
O27_7 O 0.55463(10) 0.47688(10) 0.73048(6)
Br4_7 Br 0.93172(6) 0.27559(4) 0.64176(3)
H18_7 H 0.9750 0.3647 0.6844
Co4_6 Co 1.00000(3) 0.48339(2) 0.7500
Br4_8 Br 0.34388(7) 0.06828(6) 0.64176(3)
H18_8 H 0.3898 0.0250 0.6844
Co4_7 Co 0.48340(4) 0.00000(3) 0.7500
Br3_6 Br 0.60567(8) 0.81957(7) 0.86936(3)
O11_8 O 0.45075(22) 0.81975(18) 0.76354(7)
O12_8 O 0.49718(28) 0.88350(24) 0.79774(10)
O13_8 O 0.52435(27) 0.64886(23) 0.79510(10)
O15_6 O 0.42224(24) 0.97954(19) 0.71950(8)
O16_8 O 0.38165(22) 0.89114(18) 0.71066(7)
O17_8 O 0.21245(24) 0.85881(20) 0.61282(10)
O18_8 O 0.26034(22) 0.81896(18) 0.62130(8)
O19_8 O 0.38435(31) 0.79020(25) 0.70748(10)
H11_8 H 0.4022 0.7994 0.6910
H12_8 H 0.3646 0.7600 0.6988
O20_6 O 0.44537(17) 0.92224(14) 0.76952(6)
H13_8 H 0.4665 0.9146 0.7791
H14_8 H 0.4144 0.9075 0.7777
C17_8 C 0.48237(32) 0.83890(27) 0.78536(11)
C18_8 C 0.50467(32) 0.80492(27) 0.79845(12)
C19_8 C 0.5388(4) 0.8241(4) 0.82325(14)
H15_8 H 0.5473 0.8570 0.8320
C20_6 C 0.5597(4) 0.7940(4) 0.83463(15)
C21_8 C 0.5478(4) 0.7452(4) 0.82248(13)
H16_8 H 0.5625 0.7256 0.8308
C22_8 C 0.51417(32) 0.72556(27) 0.79791(12)
C23_8 C 0.49287(30) 0.75619(25) 0.78567(11)
H17_8 H 0.4706 0.7435 0.7687
C24_8 C 0.50157(31) 0.67243(26) 0.78390(12)
C25_8 C 0.39042(28) 0.93775(23) 0.70565(9)
C26_8 C 0.35827(29) 0.94447(24) 0.68071(10)
C27_8 C 0.3648(4) 0.9946(3) 0.67388(13)
C28_8 C 0.3340(4) 0.9990(3) 0.65153(15)
C29_8 C 0.2959(4) 0.9551(3) 0.63578(14)
H19_8 H 0.2741 0.9588 0.6215
C30_8 C 0.29042(31) 0.90510(25) 0.64153(10)
C31_8 C 0.32197(29) 0.90004(23) 0.66395(10)
H20_8 H 0.3186 0.8664 0.6677
C32_8 C 0.25081(29) 0.85687(23) 0.62357(9)
Co4_8 Co 0.48340(4) 1.00000(3) 0.7500
Co9_8 Co 0.22563(4) 0.74955(2) 0.595609(12)
O23_8 O 0.02030(25) 0.54578(15) 0.72051(10)
O25_8 O 0.48563(18) 0.89196(12) 0.71203(8)
O22_8 O 0.97954(19) 0.42224(13) 0.78050(8)
O24_8 O 0.97970(25) 0.52548(20) 0.77949(10)
O27_8 O 0.92224(14) 0.44537(10) 0.73048(6)
O22_9 O 0.44269(14) 0.02046(19) 0.78050(8)
O24_9 O 0.54578(15) 0.02030(25) 0.77949(10)
O27_9 O 0.52312(10) 0.07776(14) 0.73048(6)
O23_9 O 0.52548(20) 0.97970(25) 0.72051(10)
Co2_5 Co 0.58378(2) 0.44104(2) 0.762276(12)
Br1_4 Br 0.39433(6) 0.21391(3) 0.63064(3)
Br2_5 Br 0.65612(4) 0.72441(4) 0.85824(3)
O1_5 O 0.54925(14) 0.36901(12) 0.73646(7)
O2_5 O 0.50282(19) 0.38633(15) 0.70226(10)
O3_5 O 0.47565(18) 0.12452(14) 0.70490(10)
O4_5 O 0.53078(13) 0.18624(12) 0.73775(7)
O6_5 O 0.61835(13) 0.50950(13) 0.78934(7)
O7_5 O 0.78755(15) 0.64637(13) 0.88718(10)
O8_5 O 0.73966(13) 0.55863(12) 0.87870(8)
O9_5 O 0.61565(18) 0.40586(18) 0.79252(10)
H1_5 H 0.5978 0.3973 0.8090
H2_5 H 0.6354 0.3955 0.8012
H3_5 H 0.5335 0.4482 0.7209
H4_5 H 0.5856 0.4932 0.7223
C1_5 C 0.5176(2) 0.35654(18) 0.71464(11)
C2_5 C 0.4953(2) 0.30026(18) 0.70155(12)
C3_5 C 0.4612(3) 0.2854(2) 0.67675(14)
H5_5 H 0.4527 0.3098 0.6680
C4_4 C 0.4403(3) 0.2344(2) 0.66537(15)
C5_5 C 0.4522(3) 0.1975(2) 0.67752(13)
H6_5 H 0.4375 0.1632 0.6692
C6_5 C 0.4858(2) 0.21140(18) 0.70209(12)
C7_5 C 0.50713(19) 0.26333(17) 0.71433(11)
H7_5 H 0.5294 0.2730 0.7313
C8_5 C 0.4984(2) 0.17087(17) 0.71610(12)
C9_5 C 0.60958(16) 0.54734(16) 0.79435(9)
C10_5 C 0.64173(17) 0.58621(17) 0.81929(10)
C11_5 C 0.6352(2) 0.6299(2) 0.82612(13)
H8_5 H 0.6102 0.6353 0.8156
C12_5 C 0.6660(2) 0.6651(2) 0.84847(15)
C13_5 C 0.7041(2) 0.6593(2) 0.86422(14)
H9_5 H 0.7259 0.6848 0.8785
C14_5 C 0.70958(17) 0.61469(18) 0.85847(10)
C15_5 C 0.67803(16) 0.57808(17) 0.83605(10)
H10_5 H 0.6814 0.5479 0.8323
C16_5 C 0.74919(16) 0.60607(17) 0.87643(9)
Co3_5 Co 0.55896(2) 0.14275(3) 0.762276(12)
Br3_7 Br 0.78609(3) 0.18043(7) 0.63064(3)
O11_9 O 0.63099(12) 0.18025(18) 0.73646(7)
O12_9 O 0.61367(15) 0.11650(24) 0.70226(10)
O13_9 O 0.87548(14) 0.35114(23) 0.70490(10)
O14_5 O 0.81376(12) 0.34455(18) 0.73775(7)
O16_9 O 0.49050(13) 0.10886(18) 0.78934(7)
O17_9 O 0.35363(13) 0.14119(20) 0.88718(10)
O18_9 O 0.44137(12) 0.18104(18) 0.87870(8)
O19_9 O 0.59414(18) 0.20980(25) 0.79252(10)
H11_9 H 0.6027 0.2006 0.8090
H12_9 H 0.6045 0.2400 0.8012
H13_9 H 0.5518 0.0854 0.7209
H14_9 H 0.5068 0.0925 0.7223
C17_9 C 0.64346(18) 0.16110(27) 0.71464(11)
C18_9 C 0.69974(18) 0.19508(27) 0.70155(12)
C19_9 C 0.7146(2) 0.1759(4) 0.67675(14)
H15_9 H 0.6902 0.1430 0.6680
C20_7 C 0.7656(2) 0.2060(4) 0.66537(15)
C21_9 C 0.8025(2) 0.2548(4) 0.67752(13)
H16_9 H 0.8368 0.2744 0.6692
C22_9 C 0.78860(18) 0.27444(27) 0.70209(12)
C23_9 C 0.73667(17) 0.24381(25) 0.71433(11)
H17_9 H 0.7270 0.2565 0.7313
C24_9 C 0.82913(17) 0.32757(26) 0.71610(12)
C25_9 C 0.45266(16) 0.06225(23) 0.79435(9)
C26_9 C 0.41379(17) 0.05553(24) 0.81929(10)
C27_9 C 0.3701(2) 0.0054(3) 0.82612(13)
C28_9 C 0.3349(2) 0.0010(3) 0.84847(15)
C29_9 C 0.3407(2) 0.0449(3) 0.86422(14)
H19_9 H 0.3152 0.0412 0.8785
C30_9 C 0.38531(18) 0.09490(25) 0.85847(10)
C31_9 C 0.42192(17) 0.09996(23) 0.83605(10)
H20_9 H 0.4521 0.1336 0.8323
C32_9 C 0.39393(17) 0.14313(23) 0.87643(9)
Co5_4 Co 0.84994(2) 0.66667(3) 0.9167
Co6_6 Co 0.33333(3) 0.18327(2) 0.9167
Co7_5 Co 0.85725(3) 0.41622(2) 0.762276(12)
Co8_5 Co 0.77437(2) 0.52392(3) 0.904391(12)
Co9_9 Co 0.47608(3) 0.25045(2) 0.904391(12)
O21_5 O 0.65545(18) 0.46922(13) 0.73775(7)
O25_9 O 0.59367(13) 0.10804(12) 0.78797(8)
O26_5 O 0.51437(18) 0.40633(13) 0.78797(8)
Br4_9 Br 0.27559(4) 0.93172(6) 0.85824(3)
H18_9 H 0.3647 0.9750 0.8156
Br4_10 Br 0.06828(6) 0.34388(7) 0.85824(3)
H18_10 H 0.0250 0.3898 0.8156
Br3_8 Br 0.81957(7) 0.60567(8) 0.63064(3)
O11_10 O 0.81975(18) 0.45075(22) 0.73646(7)
O12_10 O 0.88350(24) 0.49718(28) 0.70226(10)
O13_10 O 0.64886(23) 0.52435(27) 0.70490(10)
O16_10 O 0.89114(18) 0.38165(22) 0.78934(7)
O17_10 O 0.85881(20) 0.21245(24) 0.88718(10)
O18_10 O 0.81896(18) 0.26034(22) 0.87870(8)
O19_10 O 0.79020(25) 0.38435(31) 0.79252(10)
H11_10 H 0.7994 0.4022 0.8090
H12_10 H 0.7600 0.3646 0.8012
H13_10 H 0.9146 0.4665 0.7209
H14_10 H 0.9075 0.4144 0.7223
C17_10 C 0.83890(27) 0.48237(32) 0.71464(11)
C18_10 C 0.80492(27) 0.50467(32) 0.70155(12)
C19_10 C 0.8241(4) 0.5388(4) 0.67675(14)
H15_10 H 0.8570 0.5473 0.6680
C20_8 C 0.7940(4) 0.5597(4) 0.66537(15)
C21_10 C 0.7452(4) 0.5478(4) 0.67752(13)
H16_10 H 0.7256 0.5625 0.6692
C22_10 C 0.72556(27) 0.51417(32) 0.70209(12)
C23_10 C 0.75619(25) 0.49287(30) 0.71433(11)
H17_10 H 0.7435 0.4706 0.7313
C24_10 C 0.67243(26) 0.50157(31) 0.71610(12)
C25_10 C 0.93775(23) 0.39042(28) 0.79435(9)
C26_10 C 0.94447(24) 0.35827(29) 0.81929(10)
C27_10 C 0.9946(3) 0.3648(4) 0.82612(13)
C28_10 C 0.9990(3) 0.3340(4) 0.84847(15)
C29_10 C 0.9551(3) 0.2959(4) 0.86422(14)
H19_10 H 0.9588 0.2741 0.8785
C30_10 C 0.90510(25) 0.29042(31) 0.85847(10)
C31_10 C 0.90004(23) 0.32197(29) 0.83605(10)
H20_10 H 0.8664 0.3186 0.8323
C32_10 C 0.85687(23) 0.25081(29) 0.87643(9)
Co6_7 Co 0.81673(2) 0.15006(4) 0.9167
Co9_10 Co 0.74955(2) 0.22563(4) 0.904391(12)
O25_10 O 0.89196(12) 0.48563(18) 0.78797(8)
H10_6 H 0.2145 0.0148 0.0011
O13_11 O 0.01780(23) 0.20882(14) 0.12844(10)
O14_6 O 0.01121(18) 0.14710(12) 0.09559(7)
Co7_6 Co 0.08288(2) 0.19059(3) 0.071058(12)
O7_6 O 0.31303(13) 0.12089(15) 0.94616(10)
O8_6 O 0.22529(12) 0.07300(13) 0.95464(8)
C13_6 C 0.3259(2) 0.0375(2) 0.96912(14)
H9_6 H 0.3514 0.0593 0.9549
C14_6 C 0.28135(18) 0.04292(17) 0.97487(10)
C15_6 C 0.24474(17) 0.01137(16) 0.99729(10)
C16_6 C 0.27273(17) 0.08253(16) 0.95691(9)
Co8_6 Co 0.19059(3) 0.10770(2) 0.928942(12)
Co2_6 Co 0.10770(2) 0.91712(2) 0.071058(12)
O1_6 O 0.03567(12) 0.88259(14) 0.09688(7)
O2_6 O 0.05299(15) 0.83616(19) 0.13108(10)
O6_6 O 0.17616(13) 0.95169(13) 0.04400(7)
O9_6 O 0.07252(18) 0.94899(18) 0.04082(10)
H1_6 H 0.0639 0.9312 0.0244
H2_6 H 0.0621 0.9688 0.0322
H3_6 H 0.1148 0.8669 0.1125
H4_6 H 0.1598 0.9190 0.1111
C1_6 C 0.02320(18) 0.8510(2) 0.11870(11)
C9_6 C 0.21400(16) 0.94292(16) 0.03899(9)
C10_6 C 0.25287(17) 0.97507(17) 0.01405(10)
C11_6 C 0.2965(2) 0.9686(2) 0.00722(13)
H8_6 H 0.3019 0.9436 0.0178
O21_6 O 0.13588(13) 0.98879(18) 0.09559(7)
O26_6 O 0.07300(13) 0.84770(18) 0.04536(8)
Br1_5 Br 0.88057(3) 0.72767(6) 0.20270(3)
O3_6 O 0.79118(14) 0.80899(18) 0.12844(10)
O4_6 O 0.85290(12) 0.86412(13) 0.09559(7)
C2_6 C 0.96692(18) 0.8287(2) 0.13179(12)
C3_6 C 0.9520(2) 0.7946(3) 0.15659(14)
H5_6 H 0.9764 0.7861 0.1654
C4_5 C 0.9010(2) 0.7737(3) 0.16797(15)
C5_6 C 0.8641(2) 0.7856(3) 0.15582(13)
H6_6 H 0.8298 0.7709 0.1642
C6_6 C 0.87806(18) 0.8192(2) 0.13125(12)
C7_6 C 0.92999(17) 0.84047(19) 0.11901(11)
H7_6 H 0.9396 0.8628 0.1021
C8_6 C 0.83753(17) 0.8318(2) 0.11724(12)
Co3_6 Co 0.80941(3) 0.89230(2) 0.071058(12)
O11_11 O 0.84691(18) 0.96433(12) 0.09688(7)
O12_11 O 0.78316(24) 0.94701(15) 0.13108(10)
O16_11 O 0.77552(18) 0.82384(13) 0.04400(7)
O19_11 O 0.87646(25) 0.92748(18) 0.04082(10)
H11_11 H 0.8672 0.9361 0.0244
H12_11 H 0.9066 0.9379 0.0322
H13_11 H 0.7520 0.8852 0.1125
H14_11 H 0.7591 0.8402 0.1111
C17_11 C 0.82776(27) 0.97680(18) 0.11870(11)
C25_11 C 0.72891(23) 0.78600(16) 0.03899(9)
C26_11 C 0.72219(24) 0.74713(17) 0.01405(10)
C27_11 C 0.6720(3) 0.7035(2) 0.00722(13)
H18_11 H 0.6416 0.6981 0.0178
H20_11 H 0.8002 0.7855 0.0011
O25_11 O 0.77471(12) 0.92700(13) 0.04536(8)
Br4_11 Br 0.59838(6) 0.60893(4) 0.97510(3)
O17_11 O 0.80785(20) 0.68697(13) 0.94616(10)
O18_11 O 0.84770(18) 0.77471(12) 0.95464(8)
C28_11 C 0.6676(3) 0.6683(2) 0.98487(15)
C29_11 C 0.7115(3) 0.6741(2) 0.96912(14)
H19_11 H 0.7078 0.6486 0.9549
C30_11 C 0.76156(25) 0.71865(18) 0.97487(10)
C31_11 C 0.76662(23) 0.75526(17) 0.99729(10)
C32_11 C 0.80979(23) 0.72727(17) 0.95691(9)
Co9_11 Co 0.91712(2) 0.80941(3) 0.928942(12)
Br3_9 Br 0.27233(8) 0.15291(7) 0.20270(3)
O11_12 O 0.11741(22) 0.15309(18) 0.09688(7)
O12_12 O 0.16384(28) 0.21684(24) 0.13108(10)
O16_12 O 0.04831(22) 0.22448(18) 0.04400(7)
O19_12 O 0.05101(31) 0.12354(25) 0.04082(10)
H11_12 H 0.0688 0.1328 0.0244
H12_12 H 0.0312 0.0934 0.0322
H13_12 H 0.1331 0.2480 0.1125
H14_12 H 0.0810 0.2409 0.1111
C17_12 C 0.14903(32) 0.17224(27) 0.11870(11)
C18_11 C 0.17133(32) 0.13826(27) 0.13179(12)
C19_11 C 0.2054(4) 0.1575(4) 0.15659(14)
H15_11 H 0.2139 0.1904 0.1654
C20_9 C 0.2263(4) 0.1274(4) 0.16797(15)
C21_11 C 0.2144(4) 0.0786(4) 0.15582(13)
H16_11 H 0.2291 0.0590 0.1642
C22_11 C 0.18083(32) 0.05890(27) 0.13125(12)
C23_11 C 0.15953(30) 0.08953(25) 0.11901(11)
H17_11 H 0.1372 0.0769 0.1021
C24_11 C 0.16823(31) 0.00577(26) 0.11724(12)
C25_12 C 0.05708(28) 0.27109(23) 0.03899(9)
C26_12 C 0.02493(29) 0.27781(24) 0.01405(10)
C27_12 C 0.0314(4) 0.3280(3) 0.00722(13)
H18_12 H 0.0564 0.3584 0.0178
O25_12 O 0.15230(18) 0.22529(12) 0.04536(8)
Br4_12 Br 0.01054(7) 0.40162(6) 0.97510(3)
C28_12 C 0.0006(4) 0.3324(3) 0.98487(15)
O13_12 O 0.19101(27) 0.98220(23) 0.12844(10)
O17_12 O 0.87911(24) 0.19215(20) 0.94616(10)
O18_12 O 0.92700(22) 0.15230(18) 0.95464(8)
C29_12 C 0.9625(4) 0.2885(3) 0.96912(14)
H19_12 H 0.9407 0.2922 0.9549
C30_12 C 0.95708(31) 0.23844(25) 0.97487(10)
C31_12 C 0.98863(29) 0.23338(23) 0.99729(10)
C32_12 C 0.91747(29) 0.19021(23) 0.95691(9)
Co9_12 Co 0.89230(4) 0.08288(2) 0.928942(12)
Br4_13 Br 0.05774(4) 0.73495(6) 0.80843(3)
H19_13 H 0.0181 0.6255 0.7882
O1_7 O 0.78408(14) 0.29766(12) 0.93021(7)
O2_7 O 0.83051(19) 0.28034(15) 0.96441(10)
O3_7 O 0.85768(18) 0.54215(14) 0.96177(10)
O4_7 O 0.80255(13) 0.48043(12) 0.92892(7)
O5_4 O 0.75557(13) 0.10936(14) 0.88617(8)
O6_7 O 0.71498(13) 0.15717(13) 0.87733(7)
O9_7 O 0.71768(18) 0.26081(18) 0.87415(10)
H1_7 H 0.7355 0.2694 0.8577
H2_7 H 0.6979 0.2712 0.8655
O10_4 O 0.77870(10) 0.18979(10) 0.93619(6)
H3_7 H 0.7998 0.2185 0.9458
H4_7 H 0.7477 0.1735 0.9444
C1_7 C 0.8157(2) 0.31013(18) 0.95203(11)
C2_7 C 0.8380(2) 0.36641(18) 0.96512(12)
C3_7 C 0.8721(3) 0.3813(2) 0.98992(14)
H5_7 H 0.8806 0.3569 0.9987
C5_7 C 0.8811(3) 0.4692(2) 0.98915(13)
H6_7 H 0.8958 0.5035 0.9975
C6_7 C 0.8475(2) 0.45527(18) 0.96458(12)
C7_7 C 0.82620(19) 0.40334(17) 0.95234(11)
H7_7 H 0.8039 0.3937 0.9354
C8_7 C 0.8349(2) 0.49580(17) 0.95057(12)
C9_7 C 0.72375(16) 0.11933(16) 0.87232(9)
C10_7 C 0.69160(17) 0.08046(17) 0.84738(10)
C11_7 C 0.6981(2) 0.0368(2) 0.84055(13)
H8_7 H 0.7231 0.0314 0.8511
C12_6 C 0.6673(2) 0.0016(2) 0.81820(15)
C13_7 C 0.6292(2) 0.0074(2) 0.80245(14)
C14_7 C 0.62375(17) 0.05198(18) 0.80820(10)
C15_7 C 0.65530(16) 0.08859(17) 0.83062(10)
H10_7 H 0.6519 0.1188 0.8344
C16_7 C 0.58414(16) 0.06060(17) 0.79024(9)
O11_13 O 0.70234(12) 0.48642(18) 0.93021(7)
O12_13 O 0.71966(15) 0.55017(24) 0.96441(10)
O13_13 O 0.45785(14) 0.31553(23) 0.96177(10)
O14_7 O 0.51957(12) 0.32212(18) 0.92892(7)
O15_7 O 0.89064(14) 0.64621(19) 0.88617(8)
O16_13 O 0.84283(13) 0.55781(18) 0.87733(7)
O19_13 O 0.73919(18) 0.45687(25) 0.87415(10)
H11_13 H 0.7306 0.4661 0.8577
H12_13 H 0.7288 0.4267 0.8655
O20_7 O 0.81021(10) 0.58891(14) 0.93619(6)
H13_13 H 0.7815 0.5813 0.9458
H14_13 H 0.8265 0.5742 0.9444
C17_13 C 0.68987(18) 0.50557(27) 0.95203(11)
C18_12 C 0.63359(18) 0.47159(27) 0.96512(12)
C19_12 C 0.6187(2) 0.4908(4) 0.98992(14)
H15_12 H 0.6431 0.5237 0.9987
C21_12 C 0.5308(2) 0.4119(4) 0.98915(13)
H16_12 H 0.4965 0.3923 0.9975
C22_12 C 0.54473(18) 0.39223(27) 0.96458(12)
C23_12 C 0.59666(17) 0.42286(25) 0.95234(11)
H17_12 H 0.6063 0.4102 0.9354
C24_12 C 0.50420(17) 0.33910(26) 0.95057(12)
C25_13 C 0.88067(16) 0.60442(23) 0.87232(9)
C26_13 C 0.91954(17) 0.61114(24) 0.84738(10)
C27_13 C 0.9632(2) 0.6613(3) 0.84055(13)
H18_13 H 0.9686 0.6917 0.8511
C28_13 C 0.9984(2) 0.6657(3) 0.81820(15)
C29_13 C 0.9926(2) 0.6218(3) 0.80245(14)
C30_13 C 0.94802(18) 0.57177(25) 0.80820(10)
C31_13 C 0.91141(17) 0.56671(23) 0.83062(10)
H20_12 H 0.8812 0.5331 0.8344
C32_13 C 0.93940(17) 0.52354(23) 0.79024(9)
O21_7 O 0.67788(18) 0.19745(13) 0.92892(7)
O22_10 O 0.77603(14) 0.08890(13) 0.94716(8)
O27_10 O 0.85646(10) 0.11203(10) 0.89714(6)
Br2_6 Br 0.67721(4) 0.94226(4) 0.80843(3)
H9_7 H 0.6074 0.9819 0.7882
Br4_14 Br 0.26505(6) 0.32279(7) 0.80843(3)
O11_14 O 0.51358(18) 0.21592(22) 0.93021(7)
O12_14 O 0.44983(24) 0.16949(28) 0.96441(10)
O13_14 O 0.68447(23) 0.14232(27) 0.96177(10)
O15_8 O 0.35379(19) 0.24443(24) 0.88617(8)
O16_14 O 0.44219(18) 0.28502(22) 0.87733(7)
O19_14 O 0.54313(25) 0.28232(31) 0.87415(10)
H11_14 H 0.5339 0.2645 0.8577
H12_14 H 0.5733 0.3021 0.8655
O20_8 O 0.41109(14) 0.22130(17) 0.93619(6)
H13_14 H 0.4187 0.2002 0.9458
H14_14 H 0.4258 0.2523 0.9444
C17_14 C 0.49443(27) 0.18430(32) 0.95203(11)
C18_13 C 0.52841(27) 0.16200(32) 0.96512(12)
C19_13 C 0.5092(4) 0.1279(4) 0.98992(14)
H15_13 H 0.4763 0.1194 0.9987
C21_13 C 0.5881(4) 0.1189(4) 0.98915(13)
H16_13 H 0.6077 0.1042 0.9975
C22_13 C 0.60777(27) 0.15250(32) 0.96458(12)
C23_13 C 0.57714(25) 0.17380(30) 0.95234(11)
H17_13 H 0.5898 0.1961 0.9354
C24_13 C 0.66090(26) 0.16510(31) 0.95057(12)
C25_14 C 0.39558(23) 0.27625(28) 0.87232(9)
C26_14 C 0.38886(24) 0.30840(29) 0.84738(10)
C27_14 C 0.3387(3) 0.3019(4) 0.84055(13)
H18_14 H 0.3083 0.2769 0.8511
C28_14 C 0.3343(3) 0.3327(4) 0.81820(15)
C29_14 C 0.3782(3) 0.3708(4) 0.80245(14)
H19_14 H 0.3745 0.3926 0.7882
C30_14 C 0.42823(25) 0.37625(31) 0.80820(10)
C31_14 C 0.43329(23) 0.34470(29) 0.83062(10)
H20_13 H 0.4669 0.3481 0.8344
C32_14 C 0.47646(23) 0.41586(29) 0.79024(9)
O22_11 O 0.91110(13) 0.68712(19) 0.94716(8)
O27_11 O 0.88797(10) 0.74442(14) 0.89714(6)
O22_12 O 0.31288(19) 0.22397(14) 0.94716(8)
O27_12 O 0.25558(14) 0.14354(10) 0.89714(6)
Br4_15 Br 0.73495(6) 0.05774(4) 0.69157(3)
H19_15 H 0.6255 0.0181 0.7118
Br1_6 Br 0.45276(3) 0.93900(6) 0.46397(3)
O1_8 O 0.29766(12) 0.78408(14) 0.56979(7)
O2_8 O 0.28034(15) 0.83051(19) 0.53559(10)
O3_8 O 0.54215(14) 0.85768(18) 0.53823(10)
O4_8 O 0.48043(12) 0.80255(13) 0.57108(7)
O5_5 O 0.10936(14) 0.75557(13) 0.61383(8)
O6_8 O 0.15717(13) 0.71498(13) 0.62267(7)
O9_8 O 0.26081(18) 0.71768(18) 0.62585(10)
H1_8 H 0.2694 0.7355 0.6423
H2_8 H 0.2712 0.6979 0.6345
O10_5 O 0.18979(10) 0.77870(10) 0.56381(6)
H3_8 H 0.2185 0.7998 0.5542
H4_8 H 0.1735 0.7477 0.5556
C1_8 C 0.31013(18) 0.8157(2) 0.54797(11)
C2_8 C 0.36641(18) 0.8380(2) 0.53488(12)
C3_8 C 0.3813(2) 0.8721(3) 0.51008(14)
H5_8 H 0.3569 0.8806 0.5013
C4_6 C 0.4323(2) 0.8930(3) 0.49870(15)
C5_8 C 0.4692(2) 0.8811(3) 0.51085(13)
H6_8 H 0.5035 0.8958 0.5025
C6_8 C 0.45527(18) 0.8475(2) 0.53542(12)
C7_8 C 0.40334(17) 0.82620(19) 0.54766(11)
H7_8 H 0.3937 0.8039 0.5646
C8_8 C 0.49580(17) 0.8349(2) 0.54943(12)
C9_8 C 0.11933(16) 0.72375(16) 0.62768(9)
C10_8 C 0.08046(17) 0.69160(17) 0.65262(10)
C11_8 C 0.0368(2) 0.6981(2) 0.65945(13)
H8_8 H 0.0314 0.7231 0.6489
C12_7 C 0.0016(2) 0.6673(2) 0.68180(15)
C13_8 C 0.0074(2) 0.6292(2) 0.69755(14)
C14_8 C 0.05198(18) 0.62375(17) 0.69180(10)
C15_8 C 0.08859(17) 0.65530(16) 0.66938(10)
H10_8 H 0.1188 0.6519 0.6656
C16_8 C 0.06060(17) 0.58414(16) 0.70976(9)
Br3_10 Br 0.48624(7) 0.54724(3) 0.46397(3)
O11_15 O 0.48642(18) 0.70234(12) 0.56979(7)
O12_15 O 0.55017(24) 0.71966(15) 0.53559(10)
O13_15 O 0.31553(23) 0.45785(14) 0.53823(10)
O14_8 O 0.32212(18) 0.51957(12) 0.57108(7)
O15_9 O 0.64621(19) 0.89064(14) 0.61383(8)
O16_15 O 0.55781(18) 0.84283(13) 0.62267(7)
O19_15 O 0.45687(25) 0.73919(18) 0.62585(10)
H11_15 H 0.4661 0.7306 0.6423
H12_15 H 0.4267 0.7288 0.6345
O20_9 O 0.58891(14) 0.81021(10) 0.56381(6)
H13_15 H 0.5813 0.7815 0.5542
H14_15 H 0.5742 0.8265 0.5556
C17_15 C 0.50557(27) 0.68987(18) 0.54797(11)
C18_14 C 0.47159(27) 0.63359(18) 0.53488(12)
C19_14 C 0.4908(4) 0.6187(2) 0.51008(14)
H15_14 H 0.5237 0.6431 0.5013
C20_10 C 0.4607(4) 0.5677(2) 0.49870(15)
C21_14 C 0.4119(4) 0.5308(2) 0.51085(13)
H16_14 H 0.3923 0.4965 0.5025
C22_14 C 0.39223(27) 0.54473(18) 0.53542(12)
C23_14 C 0.42286(25) 0.59666(17) 0.54766(11)
H17_14 H 0.4102 0.6063 0.5646
C24_14 C 0.33910(26) 0.50420(17) 0.54943(12)
C25_15 C 0.60442(23) 0.88067(16) 0.62768(9)
C26_15 C 0.61114(24) 0.91954(17) 0.65262(10)
C27_15 C 0.6613(3) 0.9632(2) 0.65945(13)
H18_15 H 0.6917 0.9686 0.6489
C28_15 C 0.6657(3) 0.9984(2) 0.68180(15)
C29_15 C 0.6218(3) 0.9926(2) 0.69755(14)
C30_15 C 0.57177(25) 0.94802(18) 0.69180(10)
C31_15 C 0.56671(23) 0.91141(17) 0.66938(10)
H20_14 H 0.5331 0.8812 0.6656
C32_15 C 0.52354(23) 0.93940(17) 0.70976(9)
O21_8 O 0.19745(13) 0.67788(18) 0.57108(7)
O22_13 O 0.08890(13) 0.77603(14) 0.55284(8)
O27_13 O 0.11203(10) 0.85646(10) 0.60286(6)
Br2_7 Br 0.94226(4) 0.67721(4) 0.69157(3)
H9_8 H 0.9819 0.6074 0.7118
Br3_11 Br 0.06100(8) 0.51376(7) 0.46397(3)
Br4_16 Br 0.32279(7) 0.26505(6) 0.69157(3)
O11_16 O 0.21592(22) 0.51358(18) 0.56979(7)
O12_16 O 0.16949(28) 0.44983(24) 0.53559(10)
O13_16 O 0.14232(27) 0.68447(23) 0.53823(10)
O15_10 O 0.24443(24) 0.35379(19) 0.61383(8)
O16_16 O 0.28502(22) 0.44219(18) 0.62267(7)
O19_16 O 0.28232(31) 0.54313(25) 0.62585(10)
H11_16 H 0.2645 0.5339 0.6423
H12_16 H 0.3021 0.5733 0.6345
O20_10 O 0.22130(17) 0.41109(14) 0.56381(6)
H13_16 H 0.2002 0.4187 0.5542
H14_16 H 0.2523 0.4258 0.5556
C17_16 C 0.18430(32) 0.49443(27) 0.54797(11)
C18_15 C 0.16200(32) 0.52841(27) 0.53488(12)
C19_15 C 0.1279(4) 0.5092(4) 0.51008(14)
H15_15 H 0.1194 0.4763 0.5013
C20_11 C 0.1070(4) 0.5393(4) 0.49870(15)
C21_15 C 0.1189(4) 0.5881(4) 0.51085(13)
H16_15 H 0.1042 0.6077 0.5025
C22_15 C 0.15250(32) 0.60777(27) 0.53542(12)
C23_15 C 0.17380(30) 0.57714(25) 0.54766(11)
H17_15 H 0.1961 0.5898 0.5646
C24_15 C 0.16510(31) 0.66090(26) 0.54943(12)
C25_16 C 0.27625(28) 0.39558(23) 0.62768(9)
C26_16 C 0.30840(29) 0.38886(24) 0.65262(10)
C27_16 C 0.3019(4) 0.3387(3) 0.65945(13)
H18_16 H 0.2769 0.3083 0.6489
C28_16 C 0.3327(4) 0.3343(3) 0.68180(15)
C29_16 C 0.3708(4) 0.3782(3) 0.69755(14)
H19_16 H 0.3926 0.3745 0.7118
C30_16 C 0.37625(31) 0.42823(25) 0.69180(10)
C31_16 C 0.34470(29) 0.43329(23) 0.66938(10)
H20_15 H 0.3481 0.4669 0.6656
C32_16 C 0.41586(29) 0.47646(23) 0.70976(9)
O22_14 O 0.68712(19) 0.91110(13) 0.55284(8)
O27_14 O 0.74442(14) 0.88797(10) 0.60286(6)
O22_15 O 0.22397(14) 0.31288(19) 0.55284(8)
O27_15 O 0.14354(10) 0.25558(14) 0.60286(6)
Br1_7 Br 0.27233(6) 0.11943(3) 0.70270(3)
O3_9 O 0.19101(18) 0.20882(14) 0.62844(10)
O4_9 O 0.13588(13) 0.14710(12) 0.59559(7)
C2_9 C 0.1713(2) 0.03308(18) 0.63179(12)
C3_9 C 0.2054(3) 0.0480(2) 0.65659(14)
H5_9 H 0.2139 0.0236 0.6654
C4_7 C 0.2263(3) 0.0990(2) 0.66797(15)
C5_9 C 0.2144(3) 0.1359(2) 0.65582(13)
H6_9 H 0.2291 0.1702 0.6642
C6_9 C 0.1808(2) 0.12194(18) 0.63125(12)
C7_9 C 0.15953(19) 0.07001(17) 0.61901(11)
H7_9 H 0.1372 0.0604 0.6021
C8_9 C 0.1682(2) 0.16247(17) 0.61724(12)
Br4_17 Br 0.39107(4) 0.40162(6) 0.47510(3)
O11_17 O 0.03567(12) 0.15309(18) 0.59688(7)
O12_17 O 0.05299(15) 0.21684(24) 0.63108(10)
O16_17 O 0.17616(13) 0.22448(18) 0.54400(7)
O19_17 O 0.07252(18) 0.12354(25) 0.54082(10)
H11_17 H 0.0639 0.1328 0.5244
H12_17 H 0.0621 0.0934 0.5322
H13_17 H 0.1148 0.2480 0.6125
H14_17 H 0.1598 0.2409 0.6111
C17_17 C 0.02320(18) 0.17224(27) 0.61870(11)
C25_17 C 0.21400(16) 0.27109(23) 0.53899(9)
C26_17 C 0.25287(17) 0.27781(24) 0.51405(10)
C27_17 C 0.2965(2) 0.3280(3) 0.50722(13)
H18_17 H 0.3019 0.3584 0.5178
C28_17 C 0.3317(2) 0.3324(3) 0.48487(15)
C29_17 C 0.3259(2) 0.2885(3) 0.46912(14)
H19_17 H 0.3514 0.2922 0.4549
C30_17 C 0.28135(18) 0.23844(25) 0.47487(10)
C31_17 C 0.24474(17) 0.23338(23) 0.49729(10)
H20_16 H 0.2145 0.1998 0.5011
C32_17 C 0.27273(17) 0.19021(23) 0.45691(9)
Br2_8 Br 0.01054(4) 0.60893(4) 0.47510(3)
O1_9 O 0.11741(14) 0.96433(12) 0.59688(7)
O2_9 O 0.16384(19) 0.94701(15) 0.63108(10)
O6_9 O 0.04831(13) 0.82384(13) 0.54400(7)
O9_9 O 0.05101(18) 0.92748(18) 0.54082(10)
H1_9 H 0.0688 0.9361 0.5244
H2_9 H 0.0312 0.9379 0.5322
H3_9 H 0.1331 0.8852 0.6125
H4_9 H 0.0810 0.8402 0.6111
C1_9 C 0.1490(2) 0.97680(18) 0.61870(11)
C9_9 C 0.05708(16) 0.78600(16) 0.53899(9)
C10_9 C 0.02493(17) 0.74713(17) 0.51405(10)
C11_9 C 0.0314(2) 0.7035(2) 0.50722(13)
H8_9 H 0.0564 0.6981 0.5178
C12_8 C 0.0006(2) 0.6683(2) 0.48487(15)
O21_9 O 0.01121(18) 0.86412(13) 0.59559(7)
Br3_12 Br 0.88057(3) 0.15291(7) 0.70270(3)
C18_16 C 0.96692(18) 0.13826(27) 0.63179(12)
C19_16 C 0.9520(2) 0.1575(4) 0.65659(14)
H15_16 H 0.9764 0.1904 0.6654
C20_12 C 0.9010(2) 0.1274(4) 0.66797(15)
C21_16 C 0.8641(2) 0.0786(4) 0.65582(13)
H16_16 H 0.8298 0.0590 0.6642
C22_16 C 0.87806(18) 0.05890(27) 0.63125(12)
C23_16 C 0.92999(17) 0.08953(25) 0.61901(11)
H17_16 H 0.9396 0.0769 0.6021
C24_16 C 0.83753(17) 0.00577(26) 0.61724(12)
C13_9 C 0.9625(2) 0.6741(2) 0.46912(14)
H9_9 H 0.9407 0.6486 0.4549
C14_9 C 0.95708(17) 0.71865(18) 0.47487(10)
C15_9 C 0.98863(16) 0.75526(17) 0.49729(10)
H10_9 H 0.9852 0.7855 0.5011
C16_9 C 0.91747(16) 0.72727(17) 0.45691(9)
O13_17 O 0.79118(14) 0.98220(23) 0.62844(10)
O14_9 O 0.85290(12) 0.98879(18) 0.59559(7)
O13_18 O 0.01780(23) 0.80899(27) 0.62844(10)
C29_18 C 0.7115(3) 0.0375(4) 0.46912(14)
H19_18 H 0.7078 0.0593 0.4549
C30_18 C 0.76156(25) 0.04292(31) 0.47487(10)
C31_18 C 0.76662(23) 0.01137(29) 0.49729(10)
H20_17 H 0.8002 0.0148 0.5011
C32_18 C 0.80979(23) 0.08253(29) 0.45691(9)
Br3_13 Br 0.84709(7) 0.72767(8) 0.70270(3)
Br4_18 Br 0.59838(6) 0.98946(7) 0.47510(3)
O11_18 O 0.84691(18) 0.88259(22) 0.59688(7)
O12_18 O 0.78316(24) 0.83616(28) 0.63108(10)
O16_18 O 0.77552(18) 0.95169(22) 0.54400(7)
O19_18 O 0.87646(25) 0.94899(31) 0.54082(10)
H11_18 H 0.8672 0.9312 0.5244
H12_18 H 0.9066 0.9688 0.5322
H13_18 H 0.7520 0.8669 0.6125
H14_18 H 0.7591 0.9190 0.6111
C17_18 C 0.82776(27) 0.85097(32) 0.61870(11)
C18_17 C 0.86174(27) 0.82867(32) 0.63179(12)
C19_17 C 0.8425(4) 0.7946(4) 0.65659(14)
H15_17 H 0.8096 0.7861 0.6654
C20_13 C 0.8726(4) 0.7737(4) 0.66797(15)
C21_17 C 0.9214(4) 0.7856(4) 0.65582(13)
H16_17 H 0.9410 0.7709 0.6642
C22_17 C 0.94110(27) 0.81917(32) 0.63125(12)
C23_17 C 0.91047(25) 0.84047(30) 0.61901(11)
H17_17 H 0.9231 0.8628 0.6021
C24_17 C 0.99423(26) 0.83177(31) 0.61724(12)
C25_18 C 0.72891(23) 0.94292(28) 0.53899(9)
C26_18 C 0.72219(24) 0.97507(29) 0.51405(10)
C27_18 C 0.6720(3) 0.9686(4) 0.50722(13)
H18_18 H 0.6416 0.9436 0.5178
C28_18 C 0.6676(3) 0.9994(4) 0.48487(15)
Br4_19 Br 0.06828(6) 0.72441(4) 0.35824(3)
H18_19 H 0.0250 0.6353 0.3156
Br1_8 Br 0.78609(3) 0.60567(6) 0.13064(3)
Br2_9 Br 0.27559(4) 0.34388(4) 0.35824(3)
O1_10 O 0.63099(12) 0.45075(14) 0.23646(7)
O2_10 O 0.61367(15) 0.49718(19) 0.20226(10)
O3_10 O 0.87548(14) 0.52435(18) 0.20490(10)
O4_10 O 0.81376(12) 0.46922(13) 0.23775(7)
O5_6 O 0.44269(14) 0.42224(13) 0.28050(8)
O6_10 O 0.49050(13) 0.38165(13) 0.28934(7)
O9_10 O 0.59414(18) 0.38435(18) 0.29252(10)
H1_10 H 0.6027 0.4022 0.3090
H2_10 H 0.6045 0.3646 0.3012
O10_6 O 0.52312(10) 0.44537(10) 0.23048(6)
H3_10 H 0.5518 0.4665 0.2209
H4_10 H 0.5068 0.4144 0.2223
C1_10 C 0.64346(18) 0.4824(2) 0.21464(11)
C2_10 C 0.69974(18) 0.5047(2) 0.20155(12)
C3_10 C 0.7146(2) 0.5388(3) 0.17675(14)
H5_10 H 0.6902 0.5473 0.1680
C4_8 C 0.7656(2) 0.5597(3) 0.16537(15)
C5_10 C 0.8025(2) 0.5478(3) 0.17752(13)
H6_10 H 0.8368 0.5625 0.1692
C6_10 C 0.78860(18) 0.5142(2) 0.20209(12)
C7_10 C 0.73667(17) 0.49287(19) 0.21433(11)
H7_10 H 0.7270 0.4706 0.2313
C8_10 C 0.82913(17) 0.5016(2) 0.21610(12)
C9_10 C 0.45266(16) 0.39042(16) 0.29435(9)
C10_10 C 0.41379(17) 0.35827(17) 0.31929(10)
C11_10 C 0.3701(2) 0.3648(2) 0.32612(13)
H8_10 H 0.3647 0.3898 0.3156
C12_9 C 0.3349(2) 0.3340(2) 0.34847(15)
C13_10 C 0.3407(2) 0.2959(2) 0.36422(14)
H9_10 H 0.3152 0.2741 0.3785
C14_10 C 0.38531(18) 0.29042(17) 0.35847(10)
C15_10 C 0.42192(17) 0.32197(16) 0.33605(10)
H10_10 H 0.4521 0.3186 0.3323
C16_10 C 0.39393(17) 0.25081(16) 0.37643(9)
Br3_14 Br 0.81957(7) 0.21391(3) 0.13064(3)
O11_19 O 0.81975(18) 0.36901(12) 0.23646(7)
O12_19 O 0.88350(24) 0.38633(15) 0.20226(10)
O13_19 O 0.64886(23) 0.12452(14) 0.20490(10)
O14_10 O 0.65545(18) 0.18624(12) 0.23775(7)
O15_11 O 0.97954(19) 0.55731(14) 0.28050(8)
O16_19 O 0.89114(18) 0.50950(13) 0.28934(7)
O19_19 O 0.79020(25) 0.40586(18) 0.29252(10)
H11_19 H 0.7994 0.3973 0.3090
H12_19 H 0.7600 0.3955 0.3012
O20_11 O 0.92224(14) 0.47688(10) 0.23048(6)
H13_19 H 0.9146 0.4482 0.2209
H14_19 H 0.9075 0.4932 0.2223
C17_19 C 0.83890(27) 0.35654(18) 0.21464(11)
C18_18 C 0.80492(27) 0.30026(18) 0.20155(12)
C19_18 C 0.8241(4) 0.2854(2) 0.17675(14)
H15_18 H 0.8570 0.3098 0.1680
C20_14 C 0.7940(4) 0.2344(2) 0.16537(15)
C21_18 C 0.7452(4) 0.1975(2) 0.17752(13)
H16_18 H 0.7256 0.1632 0.1692
C22_18 C 0.72556(27) 0.21140(18) 0.20209(12)
C23_18 C 0.75619(25) 0.26333(17) 0.21433(11)
H17_18 H 0.7435 0.2730 0.2313
C24_18 C 0.67243(26) 0.17087(17) 0.21610(12)
C25_19 C 0.93775(23) 0.54734(16) 0.29435(9)
C26_19 C 0.94447(24) 0.58621(17) 0.31929(10)
C27_19 C 0.9946(3) 0.6299(2) 0.32612(13)
C28_19 C 0.9990(3) 0.6651(2) 0.34847(15)
C29_19 C 0.9551(3) 0.6593(2) 0.36422(14)
H19_19 H 0.9588 0.6848 0.3785
C30_19 C 0.90510(25) 0.61469(18) 0.35847(10)
C31_19 C 0.90004(23) 0.57808(17) 0.33605(10)
H20_18 H 0.8664 0.5479 0.3323
C32_19 C 0.85687(23) 0.60607(17) 0.37643(9)
O21_10 O 0.53078(13) 0.34455(18) 0.23775(7)
O22_16 O 0.42224(13) 0.44269(14) 0.21950(8)
O27_16 O 0.44537(10) 0.52312(10) 0.26952(6)
O22_17 O 0.02046(19) 0.57776(13) 0.21950(8)
O27_17 O 0.07776(14) 0.55463(10) 0.26952(6)
Br3_15 Br 0.39433(8) 0.18043(7) 0.13064(3)
O11_20 O 0.54925(22) 0.18025(18) 0.23646(7)
O12_20 O 0.50282(28) 0.11650(24) 0.20226(10)
O13_20 O 0.47565(27) 0.35114(23) 0.20490(10)
O15_12 O 0.57776(24) 0.02046(19) 0.28050(8)
O16_20 O 0.61835(22) 0.10886(18) 0.28934(7)
O19_20 O 0.61565(31) 0.20980(25) 0.29252(10)
H11_20 H 0.5978 0.2006 0.3090
H12_20 H 0.6354 0.2400 0.3012
O20_12 O 0.55463(17) 0.07776(14) 0.23048(6)
H13_20 H 0.5335 0.0854 0.2209
H14_20 H 0.5856 0.0925 0.2223
C17_20 C 0.51763(32) 0.16110(27) 0.21464(11)
C18_19 C 0.49533(32) 0.19508(27) 0.20155(12)
C19_19 C 0.4612(4) 0.1759(4) 0.17675(14)
H15_19 H 0.4527 0.1430 0.1680
C20_15 C 0.4403(4) 0.2060(4) 0.16537(15)
C21_19 C 0.4522(4) 0.2548(4) 0.17752(13)
H16_19 H 0.4375 0.2744 0.1692
C22_19 C 0.48583(32) 0.27444(27) 0.20209(12)
C23_19 C 0.50713(30) 0.24381(25) 0.21433(11)
H17_19 H 0.5294 0.2565 0.2313
C24_19 C 0.49843(31) 0.32757(26) 0.21610(12)
C25_20 C 0.60958(28) 0.06225(23) 0.29435(9)
C26_20 C 0.64173(29) 0.05553(24) 0.31929(10)
C27_20 C 0.6352(4) 0.0054(3) 0.32612(13)
C28_20 C 0.6660(4) 0.0010(3) 0.34847(15)
C29_20 C 0.7041(4) 0.0449(3) 0.36422(14)
H19_20 H 0.7259 0.0412 0.3785
C30_20 C 0.70958(31) 0.09490(25) 0.35847(10)
C31_20 C 0.67803(29) 0.09996(23) 0.33605(10)
H20_19 H 0.6814 0.1336 0.3323
C32_20 C 0.74919(29) 0.14313(23) 0.37643(9)
Br4_20 Br 0.65612(7) 0.93172(6) 0.35824(3)
H18_20 H 0.6102 0.9750 0.3156
O22_18 O 0.55731(14) 0.97954(19) 0.21950(8)
O27_18 O 0.47688(10) 0.92224(14) 0.26952(6)
Br4_21 Br 0.72441(4) 0.06828(6) 0.14176(3)
H18_21 H 0.6353 0.0250 0.1844
Br1_9 Br 0.60567(6) 0.78609(3) 0.36936(3)
Br2_10 Br 0.34388(4) 0.27559(4) 0.14176(3)
O1_11 O 0.45075(14) 0.63099(12) 0.26354(7)
O2_11 O 0.49718(19) 0.61367(15) 0.29774(10)
O3_11 O 0.52435(18) 0.87548(14) 0.29510(10)
O4_11 O 0.46922(13) 0.81376(12) 0.26225(7)
O6_11 O 0.38165(13) 0.49050(13) 0.21066(7)
O9_11 O 0.38435(18) 0.59414(18) 0.20748(10)
H1_11 H 0.4022 0.6027 0.1910
H2_11 H 0.3646 0.6045 0.1988
H3_11 H 0.4665 0.5518 0.2791
H4_11 H 0.4144 0.5068 0.2777
C1_11 C 0.4824(2) 0.64346(18) 0.28536(11)
C2_11 C 0.5047(2) 0.69974(18) 0.29845(12)
C3_11 C 0.5388(3) 0.7146(2) 0.32325(14)
H5_11 H 0.5473 0.6902 0.3320
C4_9 C 0.5597(3) 0.7656(2) 0.33463(15)
C5_11 C 0.5478(3) 0.8025(2) 0.32248(13)
H6_11 H 0.5625 0.8368 0.3308
C6_11 C 0.5142(2) 0.78860(18) 0.29791(12)
C7_11 C 0.49287(19) 0.73667(17) 0.28567(11)
H7_11 H 0.4706 0.7270 0.2687
C8_11 C 0.5016(2) 0.82913(17) 0.28390(12)
C9_11 C 0.39042(16) 0.45266(16) 0.20565(9)
C10_11 C 0.35827(17) 0.41379(17) 0.18071(10)
C11_11 C 0.3648(2) 0.3701(2) 0.17388(13)
H8_11 H 0.3898 0.3647 0.1844
C12_10 C 0.3340(2) 0.3349(2) 0.15153(15)
C13_11 C 0.2959(2) 0.3407(2) 0.13578(14)
H9_11 H 0.2741 0.3152 0.1215
C14_11 C 0.29042(17) 0.38531(18) 0.14153(10)
C15_11 C 0.32197(16) 0.42192(17) 0.16395(10)
H10_11 H 0.3186 0.4521 0.1677
C16_11 C 0.25081(16) 0.39393(17) 0.12357(9)
Br3_16 Br 0.21391(3) 0.81957(7) 0.36936(3)
O11_21 O 0.36901(12) 0.81975(18) 0.26354(7)
O12_21 O 0.38633(15) 0.88350(24) 0.29774(10)
O13_21 O 0.12452(14) 0.64886(23) 0.29510(10)
O14_11 O 0.18624(12) 0.65545(18) 0.26225(7)
O16_21 O 0.50950(13) 0.89114(18) 0.21066(7)
O19_21 O 0.40586(18) 0.79020(25) 0.20748(10)
H11_21 H 0.3973 0.7994 0.1910
H12_21 H 0.3955 0.7600 0.1988
H13_21 H 0.4482 0.9146 0.2791
H14_21 H 0.4932 0.9075 0.2777
C17_21 C 0.35654(18) 0.83890(27) 0.28536(11)
C18_20 C 0.30026(18) 0.80492(27) 0.29845(12)
C19_20 C 0.2854(2) 0.8241(4) 0.32325(14)
H15_20 H 0.3098 0.8570 0.3320
C20_16 C 0.2344(2) 0.7940(4) 0.33463(15)
C21_20 C 0.1975(2) 0.7452(4) 0.32248(13)
H16_20 H 0.1632 0.7256 0.3308
C22_20 C 0.21140(18) 0.72556(27) 0.29791(12)
C23_20 C 0.26333(17) 0.75619(25) 0.28567(11)
H17_20 H 0.2730 0.7435 0.2687
C24_20 C 0.17087(17) 0.67243(26) 0.28390(12)
C25_21 C 0.54734(16) 0.93775(23) 0.20565(9)
C26_21 C 0.58621(17) 0.94447(24) 0.18071(10)
C27_21 C 0.6299(2) 0.9946(3) 0.17388(13)
C28_21 C 0.6651(2) 0.9990(3) 0.15153(15)
C29_21 C 0.6593(2) 0.9551(3) 0.13578(14)
H19_21 H 0.6848 0.9588 0.1215
C30_21 C 0.61469(18) 0.90510(25) 0.14153(10)
C31_21 C 0.57808(17) 0.90004(23) 0.16395(10)
H20_20 H 0.5479 0.8664 0.1677
C32_21 C 0.60607(17) 0.85687(23) 0.12357(9)
O21_11 O 0.34455(18) 0.53078(13) 0.26225(7)
Br3_17 Br 0.18043(7) 0.39433(8) 0.36936(3)
O11_22 O 0.18025(18) 0.54925(22) 0.26354(7)
O12_22 O 0.11650(24) 0.50282(28) 0.29774(10)
O13_22 O 0.35114(23) 0.47565(27) 0.29510(10)
O16_22 O 0.10886(18) 0.61835(22) 0.21066(7)
O19_22 O 0.20980(25) 0.61565(31) 0.20748(10)
H11_22 H 0.2006 0.5978 0.1910
H12_22 H 0.2400 0.6354 0.1988
H13_22 H 0.0854 0.5335 0.2791
H14_22 H 0.0925 0.5856 0.2777
C17_22 C 0.16110(27) 0.51763(32) 0.28536(11)
C18_21 C 0.19508(27) 0.49533(32) 0.29845(12)
C19_21 C 0.1759(4) 0.4612(4) 0.32325(14)
H15_21 H 0.1430 0.4527 0.3320
C20_17 C 0.2060(4) 0.4403(4) 0.33463(15)
C21_21 C 0.2548(4) 0.4522(4) 0.32248(13)
H16_21 H 0.2744 0.4375 0.3308
C22_21 C 0.27444(27) 0.48583(32) 0.29791(12)
C23_21 C 0.24381(25) 0.50713(30) 0.28567(11)
H17_21 H 0.2565 0.5294 0.2687
C24_21 C 0.32757(26) 0.49843(31) 0.28390(12)
C25_22 C 0.06225(23) 0.60958(28) 0.20565(9)
C26_22 C 0.05553(24) 0.64173(29) 0.18071(10)
C27_22 C 0.0054(3) 0.6352(4) 0.17388(13)
C28_22 C 0.0010(3) 0.6660(4) 0.15153(15)
C29_22 C 0.0449(3) 0.7041(4) 0.13578(14)
H19_22 H 0.0412 0.7259 0.1215
C30_22 C 0.09490(25) 0.70958(31) 0.14153(10)
C31_22 C 0.09996(23) 0.67803(29) 0.16395(10)
H20_21 H 0.1336 0.6814 0.1677
C32_22 C 0.14313(23) 0.74919(29) 0.12357(9)
Br4_22 Br 0.93172(6) 0.65612(7) 0.14176(3)
H18_22 H 0.9750 0.6102 0.1844
Br4_23 Br 0.40162(6) 0.39107(4) 0.02490(3)
C28_23 C 0.3324(3) 0.3317(2) 0.01513(15)
C29_23 C 0.2885(3) 0.3259(2) 0.03088(14)
H19_23 H 0.2922 0.3514 0.0451
C30_23 C 0.23844(25) 0.28135(18) 0.02513(10)
C31_23 C 0.23338(23) 0.24474(17) 0.00271(10)
C32_23 C 0.19021(23) 0.27273(17) 0.04309(9)
Br1_10 Br 0.11943(3) 0.27233(6) 0.79730(3)
O3_12 O 0.20882(14) 0.19101(18) 0.87156(10)
O4_12 O 0.14710(12) 0.13588(13) 0.90441(7)
C2_12 C 0.03308(18) 0.1713(2) 0.86821(12)
C3_12 C 0.0480(2) 0.2054(3) 0.84341(14)
H5_12 H 0.0236 0.2139 0.8346
C4_10 C 0.0990(2) 0.2263(3) 0.83203(15)
C5_12 C 0.1359(2) 0.2144(3) 0.84418(13)
H6_12 H 0.1702 0.2291 0.8358
C6_12 C 0.12194(18) 0.1808(2) 0.86875(12)
C7_12 C 0.07001(17) 0.15953(19) 0.88099(11)
H7_12 H 0.0604 0.1372 0.8979
C8_12 C 0.16247(17) 0.1682(2) 0.88276(12)
O11_23 O 0.15309(18) 0.03567(12) 0.90312(7)
O12_23 O 0.21684(24) 0.05299(15) 0.86892(10)
O16_23 O 0.22448(18) 0.17616(13) 0.95600(7)
O19_23 O 0.12354(25) 0.07252(18) 0.95918(10)
H11_23 H 0.1328 0.0639 0.9756
H12_23 H 0.0934 0.0621 0.9678
H13_23 H 0.2480 0.1148 0.8875
H14_23 H 0.2409 0.1598 0.8889
C17_23 C 0.17224(27) 0.02320(18) 0.88130(11)
C25_23 C 0.27109(23) 0.21400(16) 0.96101(9)
C26_23 C 0.27781(24) 0.25287(17) 0.98595(10)
C27_23 C 0.3280(3) 0.2965(2) 0.99278(13)
H18_23 H 0.3584 0.3019 0.9822
H20_22 H 0.1998 0.2145 0.9989
O1_12 O 0.96433(12) 0.11741(14) 0.90312(7)
O2_12 O 0.94701(15) 0.16384(19) 0.86892(10)
O6_12 O 0.82384(13) 0.04831(13) 0.95600(7)
O9_12 O 0.92748(18) 0.05101(18) 0.95918(10)
H1_12 H 0.9361 0.0688 0.9756
H2_12 H 0.9379 0.0312 0.9678
H3_12 H 0.8852 0.1331 0.8875
H4_12 H 0.8402 0.0810 0.8889
C1_12 C 0.97680(18) 0.1490(2) 0.88130(11)
C9_12 C 0.78600(16) 0.05708(16) 0.96101(9)
C10_12 C 0.74713(17) 0.02493(17) 0.98595(10)
C11_12 C 0.7035(2) 0.0314(2) 0.99278(13)
H8_12 H 0.6981 0.0564 0.9822
O21_12 O 0.86412(13) 0.01121(18) 0.90441(7)
C13_12 C 0.6741(2) 0.9625(2) 0.03088(14)
H9_12 H 0.6486 0.9407 0.0451
C14_12 C 0.71865(18) 0.95708(17) 0.02513(10)
C15_12 C 0.75526(17) 0.98863(16) 0.00271(10)
C16_12 C 0.72727(17) 0.91747(16) 0.04309(9)
H10_12 H 0.7855 0.9852 0.9989
O13_23 O 0.98220(23) 0.79118(14) 0.87156(10)
O14_12 O 0.98879(18) 0.85290(12) 0.90441(7)
C29_24 C 0.0375(4) 0.7115(3) 0.03088(14)
H19_24 H 0.0593 0.7078 0.0451
C30_24 C 0.04292(31) 0.76156(25) 0.02513(10)
C31_24 C 0.01137(29) 0.76662(23) 0.00271(10)
C32_24 C 0.08253(29) 0.80979(23) 0.04309(9)
O13_24 O 0.80899(27) 0.01780(23) 0.87156(10)
Br4_24 Br 0.98946(7) 0.59838(6) 0.02490(3)
C28_24 C 0.9994(4) 0.6676(3) 0.01513(15)
Br3_18 Br 0.72767(8) 0.84709(7) 0.79730(3)
O11_24 O 0.88259(22) 0.84691(18) 0.90312(7)
O12_24 O 0.83616(28) 0.78316(24) 0.86892(10)
O16_24 O 0.95169(22) 0.77552(18) 0.95600(7)
O19_24 O 0.94899(31) 0.87646(25) 0.95918(10)
H11_24 H 0.9312 0.8672 0.9756
H12_24 H 0.9688 0.9066 0.9678
H13_24 H 0.8669 0.7520 0.8875
H14_24 H 0.9190 0.7591 0.8889
C17_24 C 0.85097(32) 0.82776(27) 0.88130(11)
C18_22 C 0.82867(32) 0.86174(27) 0.86821(12)
C19_22 C 0.7946(4) 0.8425(4) 0.84341(14)
H15_22 H 0.7861 0.8096 0.8346
C20_18 C 0.7737(4) 0.8726(4) 0.83203(15)
C21_22 C 0.7856(4) 0.9214(4) 0.84418(13)
H16_22 H 0.7709 0.9410 0.8358
C22_22 C 0.81917(32) 0.94110(27) 0.86875(12)
C23_22 C 0.84047(30) 0.91047(25) 0.88099(11)
H17_22 H 0.8628 0.9231 0.8979
C24_22 C 0.83177(31) 0.99423(26) 0.88276(12)
C25_24 C 0.94292(28) 0.72891(23) 0.96101(9)
C26_24 C 0.97507(29) 0.72219(24) 0.98595(10)
C27_24 C 0.9686(4) 0.6720(3) 0.99278(13)
H18_24 H 0.9436 0.6416 0.9822
Br1_11 Br 0.06100(6) 0.54724(3) 0.96397(3)
C4_11 C 0.1070(3) 0.5677(2) 0.99870(15)
Br3_19 Br 0.45276(3) 0.51376(7) 0.96397(3)
C20_19 C 0.4323(2) 0.5393(4) 0.99870(15)
Br3_20 Br 0.48624(7) 0.93900(8) 0.96397(3)
C20_20 C 0.4607(4) 0.8930(4) 0.99870(15)
Br2_11 Br 0.39107(4) 0.98946(4) 0.97510(3)
C12_11 C 0.3317(2) 0.9994(2) 0.98487(15)
Br3_21 Br 0.84709(7) 0.11943(3) 0.20270(3)
C18_23 C 0.86174(27) 0.03308(18) 0.13179(12)
C19_23 C 0.8425(4) 0.0480(2) 0.15659(14)
H15_23 H 0.8096 0.0236 0.1654
C20_21 C 0.8726(4) 0.0990(2) 0.16797(15)
C21_23 C 0.9214(4) 0.1359(2) 0.15582(13)
H16_23 H 0.9410 0.1702 0.1642
C22_23 C 0.94110(27) 0.12194(18) 0.13125(12)
C23_23 C 0.91047(25) 0.07001(17) 0.11901(11)
H17_23 H 0.9231 0.0604 0.1021
C24_23 C 0.99423(26) 0.16247(17) 0.11724(12)
H20_23 H 0.9852 0.1998 0.0011
Br1_12 Br 0.93900(6) 0.45276(3) 0.03603(3)
C4_12 C 0.8930(3) 0.4323(2) 0.00130(15)
Br3_22 Br 0.54724(3) 0.48624(7) 0.03603(3)
C20_22 C 0.5677(2) 0.4607(4) 0.00130(15)
Br3_23 Br 0.51376(7) 0.06100(8) 0.03603(3)
C20_23 C 0.5393(4) 0.1070(4) 0.00130(15)
Br3_24 Br 0.15291(7) 0.88057(3) 0.79730(3)
C18_24 C 0.13826(27) 0.96692(18) 0.86821(12)
C19_24 C 0.1575(4) 0.9520(2) 0.84341(14)
H15_24 H 0.1904 0.9764 0.8346
C20_24 C 0.1274(4) 0.9010(2) 0.83203(15)
C21_24 C 0.0786(4) 0.8641(2) 0.84418(13)
H16_24 H 0.0590 0.8298 0.8358
C22_24 C 0.05890(27) 0.87806(18) 0.86875(12)
C23_24 C 0.08953(25) 0.92999(17) 0.88099(11)
H17_24 H 0.0769 0.9396 0.8979
C24_24 C 0.00577(26) 0.83753(17) 0.88276(12)
H20_24 H 0.0148 0.8002 0.9989
Br2_12 Br 0.60893(4) 0.01054(4) 0.02490(3)
C12_12 C 0.6683(2) 0.0006(2) 0.01513(15)
loop_
_geom_bond_atom_site_label_1
_geom_bond_atom_site_label_2
_geom_bond_site_symmetry_1
_geom_bond_site_symmetry_2
Co1 O5 1_555 1_555
Co2 O1 1_555 1_555
O1 C1 1_555 1_555
O2 C1 1_555 1_555
O3 C8 1_555 1_555
O4 C8 1_555 1_555
O5 C9 1_555 1_555
O6 Co2 1_555 1_555
O7 C16 1_555 1_555
O8 C16 1_555 1_555
O9 Co2 1_555 1_555
H1 O9 1_555 1_555
H2 O9 1_555 1_555
O10 Co1 1_555 1_555
H3 O10 1_555 1_555
H4 O10 1_555 1_555
C1 C2 1_555 1_555
C2 C3 1_555 1_555
C3 H5 1_555 1_555
H6 C5 1_555 1_555
C6 C5 1_555 1_555
C7 C2 1_555 1_555
H7 C7 1_555 1_555
C8 C6 1_555 1_555
C9 O6 1_555 1_555
C10 C9 1_555 1_555
C11 C10 1_555 1_555
H8 C11 1_555 1_555
C12 C11 1_555 1_555
C13 C12 1_555 1_555
C14 C13 1_555 1_555
C15 C10 1_555 1_555
H10 C15 1_555 1_555
C16 C14 1_555 1_555
Co3 O4 1_555 1_555
O11 Co3 1_555 1_555
O12 C17 1_555 1_555
O13 C24 1_555 1_555
O14 C24 1_555 1_555
O15 C25 1_555 1_555
O16 Co3 1_555 1_555
O17 C32 1_555 1_555
O18 C32 1_555 1_555
O19 Co3 1_555 1_555
H11 O19 1_555 1_555
H12 O19 1_555 1_555
O20 Co3 1_555 1_555
H13 O20 1_555 1_555
H14 O20 1_555 1_555
C17 O11 1_555 1_555
C18 C17 1_555 1_555
C19 C18 1_555 1_555
H15 C19 1_555 1_555
H16 C21 1_555 1_555
C22 C21 1_555 1_555
C23 C18 1_555 1_555
H17 C23 1_555 1_555
C24 C22 1_555 1_555
C25 O16 1_555 1_555
C26 C25 1_555 1_555
C27 C26 1_555 1_555
H18 C27 1_555 1_555
C28 C27 1_555 1_555
C29 C28 1_555 1_555
C30 C29 1_555 1_555
C31 C26 1_555 1_555
H20 C31 1_555 1_555
C32 C30 1_555 1_555
Co4 O15 1_555 1_555
Co5_2 O7 1_555 1_555
Co6 O17 1_555 1_555
Co7 O14 1_555 1_555
Co8 O8 1_555 1_555
Co9 O18 1_555 1_555
O21 Co2 1_555 1_555
O22 Co1 1_555 1_555
O23 Co1 1_555 1_555
O24 Co1 1_555 1_555
O25 Co3 1_555 1_555
O26 Co2 1_555 1_555
O27 Co1 1_555 1_555
Co2 O10 1_555 1_555
C6 C7 1_555 1_555
C14 C15 1_555 1_555
O20 Co4 1_555 1_555
C22 C23 1_555 1_555
C30 C31 1_555 1_555
Br4_2 C28_2 1_555 1_555
O11_2 Co7 1_555 1_555
O12_2 C17_2 1_555 1_555
O13_2 C24_2 1_555 1_555
O21 C24_2 1_555 1_555
O15_2 C25_2 1_555 1_555
O16_2 Co7 1_555 1_555
O17_2 C32_2 1_555 1_555
O18_2 C32_2 1_555 1_555
O19_2 Co7 1_555 1_555
H11_2 O19_2 1_555 1_555
H12_2 O19_2 1_555 1_555
O20_2 Co7 1_555 1_555
H13_2 O20_2 1_555 1_555
H14_2 O20_2 1_555 1_555
C17_2 O11_2 1_555 1_555
C18_2 C17_2 1_555 1_555
C19_2 C18_2 1_555 1_555
H15_2 C19_2 1_555 1_555
H16_2 C21_2 1_555 1_555
C22_2 C21_2 1_555 1_555
C23_2 C18_2 1_555 1_555
H17_2 C23_2 1_555 1_555
C24_2 C22_2 1_555 1_555
C25_2 O16_2 1_555 1_555
C26_2 C25_2 1_555 1_555
C27_2 C26_2 1_555 1_555
H18_2 C27_2 1_555 1_555
C28_2 C27_2 1_555 1_555
C29_2 C28_2 1_555 1_555
H19_2 C29_2 1_555 1_555
C30_2 C29_2 1_555 1_555
C31_2 C26_2 1_555 1_555
H20_2 C31_2 1_555 1_555
C32_2 C30_2 1_555 1_555
Co4_2 O15_2 1_555 1_555
Co6_3 O17_2 1_555 1_555
Co9_2 O18_2 1_555 1_555
O22_2 Co4 1_555 1_555
O23_2 Co4 1_555 1_555
O24_2 Co4 1_555 1_555
O25_2 Co7 1_555 1_555
O27_2 Co4 1_555 1_555
O20_2 Co4_2 1_555 1_555
C22_2 C23_2 1_555 1_555
C30_2 C31_2 1_555 1_555
O22_3 Co4_2 1_555 1_555
O23_3 Co4_2 1_555 1_555
O24_3 Co4_2 1_555 1_555
O27_3 Co4_2 1_555 1_555
Co1_2 O5_2 1_555 1_555
Co2_2 O1_2 1_555 1_555
Br1 C4 1_555 1_555
O1_2 C1_2 1_555 1_555
O2_2 C1_2 1_555 1_555
O3_2 C8_2 1_555 1_555
O4_2 C8_2 1_555 1_555
O5_2 C9_2 1_555 1_555
O6_2 Co2_2 1_555 1_555
O7_2 C16_2 1_555 1_555
O8_2 C16_2 1_555 1_555
O9_2 Co2_2 1_555 1_555
H1_2 O9_2 1_555 1_555
H2_2 O9_2 1_555 1_555
O10_2 Co1_2 1_555 1_555
H3_2 O10_2 1_555 1_555
H4_2 O10_2 1_555 1_555
C1_2 C2_2 1_555 1_555
C2_2 C3_2 1_555 1_555
C3_2 H5_2 1_555 1_555
C4 C3_2 1_555 1_555
C5_2 C4 1_555 1_555
H6_2 C5_2 1_555 1_555
C6_2 C5_2 1_555 1_555
C7_2 C2_2 1_555 1_555
H7_2 C7_2 1_555 1_555
C8_2 C6_2 1_555 1_555
C9_2 O6_2 1_555 1_555
C10_2 C9_2 1_555 1_555
C11_2 C10_2 1_555 1_555
H8_2 C11_2 1_555 1_555
C12_2 C11_2 1_555 1_555
C13_2 C12_2 1_555 1_555
C14_2 C13_2 1_555 1_555
C15_2 C10_2 1_555 1_555
H10_2 C15_2 1_555 1_555
C16_2 C14_2 1_555 1_555
Co3_2 O4_2 1_555 1_555
Br3 C20 1_555 1_555
O11_3 Co3_2 1_555 1_555
O12_3 C17_3 1_555 1_555
O13_3 C24_3 1_555 1_555
O14_2 C24_3 1_555 1_555
O15_3 C25_3 1_555 1_555
O16_3 Co3_2 1_555 1_555
O17_3 C32_3 1_555 1_555
O18_3 C32_3 1_555 1_555
O19_3 Co3_2 1_555 1_555
H11_3 O19_3 1_555 1_555
H12_3 O19_3 1_555 1_555
O20_3 Co3_2 1_555 1_555
H13_3 O20_3 1_555 1_555
H14_3 O20_3 1_555 1_555
C17_3 O11_3 1_555 1_555
C18_3 C17_3 1_555 1_555
C19_3 C18_3 1_555 1_555
H15_3 C19_3 1_555 1_555
C20 C19_3 1_555 1_555
C21_3 C20 1_555 1_555
H16_3 C21_3 1_555 1_555
C22_3 C21_3 1_555 1_555
C23_3 C18_3 1_555 1_555
H17_3 C23_3 1_555 1_555
C24_3 C22_3 1_555 1_555
C25_3 O16_3 1_555 1_555
C26_3 C25_3 1_555 1_555
C27_3 C26_3 1_555 1_555
H18_3 C27_3 1_555 1_555
C28_3 C27_3 1_555 1_555
C29_3 C28_3 1_555 1_555
C30_3 C29_3 1_555 1_555
C31_3 C26_3 1_555 1_555
H20_3 C31_3 1_555 1_555
C32_3 C30_3 1_555 1_555
Co4_3 O15_3 1_555 1_555
Co6_2 O7_2 1_555 1_555
Co5 O17_3 1_555 1_555
Co7_2 O14_2 1_555 1_555
Co8_2 O8_2 1_555 1_555
Co9_3 O18_3 1_555 1_555
O21_2 Co2_2 1_555 1_555
O22_4 Co1_2 1_555 1_555
O23_4 Co1_2 1_555 1_555
O24_4 Co1_2 1_555 1_555
O25_3 Co3_2 1_555 1_555
O26_2 Co2_2 1_555 1_555
O27_4 Co1_2 1_555 1_555
Co2_2 O10_2 1_555 1_555
C6_2 C7_2 1_555 1_555
C14_2 C15_2 1_555 1_555
O20_3 Co4_3 1_555 1_555
C22_3 C23_3 1_555 1_555
C30_3 C31_3 1_555 1_555
Br3_2 C20_2 1_555 1_555
Br4_4 C28_4 1_555 1_555
O11_4 Co7_2 1_555 1_555
O12_4 C17_4 1_555 1_555
O13_4 C24_4 1_555 1_555
O21_2 C24_4 1_555 1_555
O15_4 C25_4 1_555 1_555
O16_4 Co7_2 1_555 1_555
O17_4 C32_4 1_555 1_555
O18_4 C32_4 1_555 1_555
O19_4 Co7_2 1_555 1_555
H11_4 O19_4 1_555 1_555
H12_4 O19_4 1_555 1_555
O20_4 Co7_2 1_555 1_555
H13_4 O20_4 1_555 1_555
H14_4 O20_4 1_555 1_555
C17_4 O11_4 1_555 1_555
C18_4 C17_4 1_555 1_555
C19_4 C18_4 1_555 1_555
H15_4 C19_4 1_555 1_555
C20_2 C19_4 1_555 1_555
C21_4 C20_2 1_555 1_555
H16_4 C21_4 1_555 1_555
C22_4 C21_4 1_555 1_555
C23_4 C18_4 1_555 1_555
H17_4 C23_4 1_555 1_555
C24_4 C22_4 1_555 1_555
C25_4 O16_4 1_555 1_555
C26_4 C25_4 1_555 1_555
C27_4 C26_4 1_555 1_555
H18_4 C27_4 1_555 1_555
C28_4 C27_4 1_555 1_555
C29_4 C28_4 1_555 1_555
H19_4 C29_4 1_555 1_555
C30_4 C29_4 1_555 1_555
C31_4 C26_4 1_555 1_555
H20_4 C31_4 1_555 1_555
C32_4 C30_4 1_555 1_555
Co4_4 O15_4 1_555 1_555
Co6_3 O17_4 1_555 1_555
Co9_4 O18_4 1_555 1_555
O22_5 Co4_3 1_555 1_555
O23_5 Co4_3 1_555 1_555
O24_5 Co4_3 1_555 1_555
O25_4 Co7_2 1_555 1_555
O27_5 Co4_3 1_555 1_555
O20_4 Co4_4 1_555 1_555
C22_4 C23_4 1_555 1_555
C30_4 C31_4 1_555 1_555
O22_6 Co4_4 1_555 1_555
O23_6 Co4_4 1_555 1_555
O24_6 Co4_4 1_555 1_555
O27_6 Co4_4 1_555 1_555
O7_3 C16_3 1_555 1_555
O8_3 C16_3 1_555 1_555
H9_3 C13_3 1_555 1_555
C14_3 C13_3 1_555 1_555
H10_3 C15_3 1_555 1_555
C16_3 C14_3 1_555 1_555
Co5_3 O7_3 1_555 1_555
Co7_3 O14_3 1_555 1_555
Co8_3 O8_3 1_555 1_555
C14_3 C15_3 1_555 1_555
Br3_3 C20_3 1_555 1_555
C19_5 C18_5 1_555 1_555
H15_5 C19_5 1_555 1_555
C20_3 C19_5 1_555 1_555
C21_5 C20_3 1_555 1_555
H16_5 C21_5 1_555 1_555
C22_5 C21_5 1_555 1_555
C23_5 C18_5 1_555 1_555
H17_5 C23_5 1_555 1_555
C24_5 C22_5 1_555 1_555
C22_5 C23_5 1_555 1_555
Co2_3 O1_3 1_555 1_555
Br2_3 C12_3 1_555 1_555
O1_3 C1_3 1_555 1_555
O2_3 C1_3 1_555 1_555
O22_4 C9_3 1_555 1_555
O6_3 Co2_3 1_555 1_555
O9_3 Co2_3 1_555 1_555
H1_3 O9_3 1_555 1_555
H2_3 O9_3 1_555 1_555
H3_3 O27_4 1_555 1_555
H4_3 O27_4 1_555 1_555
C9_3 O6_3 1_555 1_555
C10_3 C9_3 1_555 1_555
C11_3 C10_3 1_555 1_555
H8_3 C11_3 1_555 1_555
C12_3 C11_3 1_555 1_555
O21_3 Co2_3 1_555 1_555
O26_3 Co2_3 1_555 1_555
Co2_3 O27_4 1_555 1_555
Br1_2 C4_2 1_555 1_555
O3_3 C8_3 1_555 1_555
O4_3 C8_3 1_555 1_555
C2_3 C3_3 1_555 1_555
C3_3 H5_3 1_555 1_555
C4_2 C3_3 1_555 1_555
C5_3 C4_2 1_555 1_555
H6_3 C5_3 1_555 1_555
C6_3 C5_3 1_555 1_555
C7_3 C2_3 1_555 1_555
H7_3 C7_3 1_555 1_555
C8_3 C6_3 1_555 1_555
Co3_3 O4_3 1_555 1_555
Br4_5 C28_5 1_555 1_555
O11_5 Co3_3 1_555 1_555
O12_5 C17_5 1_555 1_555
O22_6 C25_5 1_555 1_555
O16_5 Co3_3 1_555 1_555
O17_5 C32_5 1_555 1_555
O18_5 C32_5 1_555 1_555
O19_5 Co3_3 1_555 1_555
H11_5 O19_5 1_555 1_555
H12_5 O19_5 1_555 1_555
O27_6 Co3_3 1_555 1_555
H13_5 O27_6 1_555 1_555
H14_5 O27_6 1_555 1_555
C17_5 O11_5 1_555 1_555
C25_5 O16_5 1_555 1_555
C26_5 C25_5 1_555 1_555
C27_5 C26_5 1_555 1_555
H18_5 C27_5 1_555 1_555
C28_5 C27_5 1_555 1_555
C29_5 C28_5 1_555 1_555
H19_5 C29_5 1_555 1_555
C30_5 C29_5 1_555 1_555
C31_5 C26_5 1_555 1_555
H20_5 C31_5 1_555 1_555
C32_5 C30_5 1_555 1_555
Co6_4 O17_5 1_555 1_555
Co9_5 O18_5 1_555 1_555
O25_5 Co3_3 1_555 1_555
C6_3 C7_3 1_555 1_555
C30_5 C31_5 1_555 1_555
Br3_4 C20_4 1_555 1_555
Br4_6 C28_6 1_555 1_555
O11_6 Co7_3 1_555 1_555
O12_6 C17_6 1_555 1_555
O22_5 C25_6 1_555 1_555
O16_6 Co7_3 1_555 1_555
O19_6 Co7_3 1_555 1_555
H11_6 O19_6 1_555 1_555
H12_6 O19_6 1_555 1_555
O27_5 Co7_3 1_555 1_555
H13_6 O27_5 1_555 1_555
H14_6 O27_5 1_555 1_555
C17_6 O11_6 1_555 1_555
C18_6 C17_6 1_555 1_555
C19_6 C18_6 1_555 1_555
H15_6 C19_6 1_555 1_555
C20_4 C19_6 1_555 1_555
C21_6 C20_4 1_555 1_555
H16_6 C21_6 1_555 1_555
C22_6 C21_6 1_555 1_555
C23_6 C18_6 1_555 1_555
H17_6 C23_6 1_555 1_555
C24_6 C22_6 1_555 1_555
C25_6 O16_6 1_555 1_555
C26_6 C25_6 1_555 1_555
C27_6 C26_6 1_555 1_555
H18_6 C27_6 1_555 1_555
C28_6 C27_6 1_555 1_555
O25_6 Co7_3 1_555 1_555
C22_6 C23_6 1_555 1_555
O17_6 C32_6 1_555 1_555
O18_6 C32_6 1_555 1_555
H19_6 C29_6 1_555 1_555
C30_6 C29_6 1_555 1_555
H20_6 C31_6 1_555 1_555
C32_6 C30_6 1_555 1_555
Co6_5 O17_6 1_555 1_555
Co9_6 O18_6 1_555 1_555
C30_6 C31_6 1_555 1_555
Co1_3 O5_3 1_555 1_555
Co2_4 O1_4 1_555 1_555
Br1_3 C4_3 1_555 1_555
Br2_4 C12_4 1_555 1_555
O1_4 C1_4 1_555 1_555
O2_4 C1_4 1_555 1_555
O3_4 C8_4 1_555 1_555
O4_4 C8_4 1_555 1_555
O5_3 C9_4 1_555 1_555
O6_4 Co2_4 1_555 1_555
O7_4 C16_4 1_555 1_555
O8_4 C16_4 1_555 1_555
O9_4 Co2_4 1_555 1_555
H1_4 O9_4 1_555 1_555
H2_4 O9_4 1_555 1_555
O10_3 Co1_3 1_555 1_555
H3_4 O10_3 1_555 1_555
H4_4 O10_3 1_555 1_555
C1_4 C2_4 1_555 1_555
C2_4 C3_4 1_555 1_555
C3_4 H5_4 1_555 1_555
C4_3 C3_4 1_555 1_555
C5_4 C4_3 1_555 1_555
H6_4 C5_4 1_555 1_555
C6_4 C5_4 1_555 1_555
C7_4 C2_4 1_555 1_555
H7_4 C7_4 1_555 1_555
C8_4 C6_4 1_555 1_555
C9_4 O6_4 1_555 1_555
C10_4 C9_4 1_555 1_555
C11_4 C10_4 1_555 1_555
H8_4 C11_4 1_555 1_555
C12_4 C11_4 1_555 1_555
C13_4 C12_4 1_555 1_555
H9_4 C13_4 1_555 1_555
C14_4 C13_4 1_555 1_555
C15_4 C10_4 1_555 1_555
H10_4 C15_4 1_555 1_555
C16_4 C14_4 1_555 1_555
Co3_4 O4_4 1_555 1_555
Br3_5 C20_5 1_555 1_555
O11_7 Co3_4 1_555 1_555
O12_7 C17_7 1_555 1_555
O13_7 C24_7 1_555 1_555
O14_4 C24_7 1_555 1_555
O15_5 C25_7 1_555 1_555
O16_7 Co3_4 1_555 1_555
O17_7 C32_7 1_555 1_555
O18_7 C32_7 1_555 1_555
O19_7 Co3_4 1_555 1_555
H11_7 O19_7 1_555 1_555
H12_7 O19_7 1_555 1_555
O20_5 Co3_4 1_555 1_555
H13_7 O20_5 1_555 1_555
H14_7 O20_5 1_555 1_555
C17_7 O11_7 1_555 1_555
C18_7 C17_7 1_555 1_555
C19_7 C18_7 1_555 1_555
H15_7 C19_7 1_555 1_555
C20_5 C19_7 1_555 1_555
C21_7 C20_5 1_555 1_555
H16_7 C21_7 1_555 1_555
C22_7 C21_7 1_555 1_555
C23_7 C18_7 1_555 1_555
H17_7 C23_7 1_555 1_555
C24_7 C22_7 1_555 1_555
C25_7 O16_7 1_555 1_555
C26_7 C25_7 1_555 1_555
C27_7 C26_7 1_555 1_555
C28_7 C27_7 1_555 1_555
C29_7 C28_7 1_555 1_555
H19_7 C29_7 1_555 1_555
C30_7 C29_7 1_555 1_555
C31_7 C26_7 1_555 1_555
H20_7 C31_7 1_555 1_555
C32_7 C30_7 1_555 1_555
Co4_5 O15_5 1_555 1_555
Co6_4 O7_4 1_555 1_555
Co5_3 O17_7 1_555 1_555
Co7_4 O14_4 1_555 1_555
Co8_4 O8_4 1_555 1_555
Co9_7 O18_7 1_555 1_555
O21_4 Co2_4 1_555 1_555
O22_7 Co1_3 1_555 1_555
O23_7 Co1_3 1_555 1_555
O24_7 Co1_3 1_555 1_555
O25_7 Co3_4 1_555 1_555
O26_4 Co2_4 1_555 1_555
O27_7 Co1_3 1_555 1_555
Co2_4 O10_3 1_555 1_555
C6_4 C7_4 1_555 1_555
C14_4 C15_4 1_555 1_555
O20_5 Co4_5 1_555 1_555
C22_7 C23_7 1_555 1_555
C30_7 C31_7 1_555 1_555
Br3_6 C20_6 1_555 1_555
O11_8 Co7_4 1_555 1_555
O12_8 C17_8 1_555 1_555
O13_8 C24_8 1_555 1_555
O21_4 C24_8 1_555 1_555
O15_6 C25_8 1_555 1_555
O16_8 Co7_4 1_555 1_555
O17_8 C32_8 1_555 1_555
O18_8 C32_8 1_555 1_555
O19_8 Co7_4 1_555 1_555
H11_8 O19_8 1_555 1_555
H12_8 O19_8 1_555 1_555
O20_6 Co7_4 1_555 1_555
H13_8 O20_6 1_555 1_555
H14_8 O20_6 1_555 1_555
C17_8 O11_8 1_555 1_555
C18_8 C17_8 1_555 1_555
C19_8 C18_8 1_555 1_555
H15_8 C19_8 1_555 1_555
C20_6 C19_8 1_555 1_555
C21_8 C20_6 1_555 1_555
H16_8 C21_8 1_555 1_555
C22_8 C21_8 1_555 1_555
C23_8 C18_8 1_555 1_555
H17_8 C23_8 1_555 1_555
C24_8 C22_8 1_555 1_555
C25_8 O16_8 1_555 1_555
C26_8 C25_8 1_555 1_555
C27_8 C26_8 1_555 1_555
C28_8 C27_8 1_555 1_555
C29_8 C28_8 1_555 1_555
H19_8 C29_8 1_555 1_555
C30_8 C29_8 1_555 1_555
C31_8 C26_8 1_555 1_555
H20_8 C31_8 1_555 1_555
C32_8 C30_8 1_555 1_555
Co4_8 O15_6 1_555 1_555
Co6_5 O17_8 1_555 1_555
Co9_8 O18_8 1_555 1_555
O23_8 Co4_5 1_555 1_555
O25_8 Co7_4 1_555 1_555
O20_6 Co4_8 1_555 1_555
C22_8 C23_8 1_555 1_555
C30_8 C31_8 1_555 1_555
O22_8 Co4_6 1_555 1_555
O24_8 Co4_6 1_555 1_555
O27_8 Co4_6 1_555 1_555
O22_9 Co4_7 1_555 1_555
O24_9 Co4_7 1_555 1_555
O27_9 Co4_7 1_555 1_555
O23_9 Co4_8 1_555 1_555
Co2_5 O1_5 1_555 1_555
Br1_4 C4_4 1_555 1_555
Br2_5 C12_5 1_555 1_555
O1_5 C1_5 1_555 1_555
O2_5 C1_5 1_555 1_555
O3_5 C8_5 1_555 1_555
O4_5 C8_5 1_555 1_555
O22_7 C9_5 1_555 1_555
O6_5 Co2_5 1_555 1_555
O7_5 C16_5 1_555 1_555
O8_5 C16_5 1_555 1_555
O9_5 Co2_5 1_555 1_555
H1_5 O9_5 1_555 1_555
H2_5 O9_5 1_555 1_555
H3_5 O27_7 1_555 1_555
H4_5 O27_7 1_555 1_555
C1_5 C2_5 1_555 1_555
C2_5 C3_5 1_555 1_555
C3_5 H5_5 1_555 1_555
C4_4 C3_5 1_555 1_555
C5_5 C4_4 1_555 1_555
H6_5 C5_5 1_555 1_555
C6_5 C5_5 1_555 1_555
C7_5 C2_5 1_555 1_555
H7_5 C7_5 1_555 1_555
C8_5 C6_5 1_555 1_555
C9_5 O6_5 1_555 1_555
C10_5 C9_5 1_555 1_555
C11_5 C10_5 1_555 1_555
H8_5 C11_5 1_555 1_555
C12_5 C11_5 1_555 1_555
C13_5 C12_5 1_555 1_555
H9_5 C13_5 1_555 1_555
C14_5 C13_5 1_555 1_555
C15_5 C10_5 1_555 1_555
H10_5 C15_5 1_555 1_555
C16_5 C14_5 1_555 1_555
Co3_5 O4_5 1_555 1_555
Br3_7 C20_7 1_555 1_555
O11_9 Co3_5 1_555 1_555
O12_9 C17_9 1_555 1_555
O13_9 C24_9 1_555 1_555
O14_5 C24_9 1_555 1_555
O22_9 C25_9 1_555 1_555
O16_9 Co3_5 1_555 1_555
O17_9 C32_9 1_555 1_555
O18_9 C32_9 1_555 1_555
O19_9 Co3_5 1_555 1_555
H11_9 O19_9 1_555 1_555
H12_9 O19_9 1_555 1_555
O27_9 Co3_5 1_555 1_555
H13_9 O27_9 1_555 1_555
H14_9 O27_9 1_555 1_555
C17_9 O11_9 1_555 1_555
C18_9 C17_9 1_555 1_555
C19_9 C18_9 1_555 1_555
H15_9 C19_9 1_555 1_555
C20_7 C19_9 1_555 1_555
C21_9 C20_7 1_555 1_555
H16_9 C21_9 1_555 1_555
C22_9 C21_9 1_555 1_555
C23_9 C18_9 1_555 1_555
H17_9 C23_9 1_555 1_555
C24_9 C22_9 1_555 1_555
C25_9 O16_9 1_555 1_555
C26_9 C25_9 1_555 1_555
C27_9 C26_9 1_555 1_555
C28_9 C27_9 1_555 1_555
C29_9 C28_9 1_555 1_555
H19_9 C29_9 1_555 1_555
C30_9 C29_9 1_555 1_555
C31_9 C26_9 1_555 1_555
H20_9 C31_9 1_555 1_555
C32_9 C30_9 1_555 1_555
Co5_4 O7_5 1_555 1_555
Co6_6 O17_9 1_555 1_555
Co7_5 O14_5 1_555 1_555
Co8_5 O8_5 1_555 1_555
Co9_9 O18_9 1_555 1_555
O21_5 Co2_5 1_555 1_555
O25_9 Co3_5 1_555 1_555
O26_5 Co2_5 1_555 1_555
Co2_5 O27_7 1_555 1_555
C6_5 C7_5 1_555 1_555
C14_5 C15_5 1_555 1_555
C22_9 C23_9 1_555 1_555
C30_9 C31_9 1_555 1_555
Br3_8 C20_8 1_555 1_555
O11_10 Co7_5 1_555 1_555
O12_10 C17_10 1_555 1_555
O13_10 C24_10 1_555 1_555
O21_5 C24_10 1_555 1_555
O22_8 C25_10 1_555 1_555
O16_10 Co7_5 1_555 1_555
O17_10 C32_10 1_555 1_555
O18_10 C32_10 1_555 1_555
O19_10 Co7_5 1_555 1_555
H11_10 O19_10 1_555 1_555
H12_10 O19_10 1_555 1_555
O27_8 Co7_5 1_555 1_555
H13_10 O27_8 1_555 1_555
H14_10 O27_8 1_555 1_555
C17_10 O11_10 1_555 1_555
C18_10 C17_10 1_555 1_555
C19_10 C18_10 1_555 1_555
H15_10 C19_10 1_555 1_555
C20_8 C19_10 1_555 1_555
C21_10 C20_8 1_555 1_555
H16_10 C21_10 1_555 1_555
C22_10 C21_10 1_555 1_555
C23_10 C18_10 1_555 1_555
H17_10 C23_10 1_555 1_555
C24_10 C22_10 1_555 1_555
C25_10 O16_10 1_555 1_555
C26_10 C25_10 1_555 1_555
C27_10 C26_10 1_555 1_555
C28_10 C27_10 1_555 1_555
C29_10 C28_10 1_555 1_555
H19_10 C29_10 1_555 1_555
C30_10 C29_10 1_555 1_555
C31_10 C26_10 1_555 1_555
H20_10 C31_10 1_555 1_555
C32_10 C30_10 1_555 1_555
Co6_7 O17_10 1_555 1_555
Co9_10 O18_10 1_555 1_555
O25_10 Co7_5 1_555 1_555
C22_10 C23_10 1_555 1_555
C30_10 C31_10 1_555 1_555
Co7_6 O14_6 1_555 1_555
O7_6 C16_6 1_555 1_555
O8_6 C16_6 1_555 1_555
H9_6 C13_6 1_555 1_555
C14_6 C13_6 1_555 1_555
C16_6 C14_6 1_555 1_555
Co6_6 O7_6 1_555 1_555
Co8_6 O8_6 1_555 1_555
C14_6 C15_6 1_555 1_555
Co2_6 O1_6 1_555 1_555
O1_6 C1_6 1_555 1_555
O2_6 C1_6 1_555 1_555
O22 C9_6 1_555 1_555
O6_6 Co2_6 1_555 1_555
O9_6 Co2_6 1_555 1_555
H1_6 O9_6 1_555 1_555
H2_6 O9_6 1_555 1_555
H3_6 O27 1_555 1_555
H4_6 O27 1_555 1_555
C9_6 O6_6 1_555 1_555
C10_6 C9_6 1_555 1_555
C11_6 C10_6 1_555 1_555
H8_6 C11_6 1_555 1_555
O21_6 Co2_6 1_555 1_555
O26_6 Co2_6 1_555 1_555
Co2_6 O27 1_555 1_555
Br1_5 C4_5 1_555 1_555
O3_6 C8_6 1_555 1_555
O4_6 C8_6 1_555 1_555
C2_6 C3_6 1_555 1_555
C3_6 H5_6 1_555 1_555
C4_5 C3_6 1_555 1_555
C5_6 C4_5 1_555 1_555
H6_6 C5_6 1_555 1_555
C6_6 C5_6 1_555 1_555
C7_6 C2_6 1_555 1_555
H7_6 C7_6 1_555 1_555
C8_6 C6_6 1_555 1_555
Co3_6 O4_6 1_555 1_555
O11_11 Co3_6 1_555 1_555
O12_11 C17_11 1_555 1_555
O22_3 C25_11 1_555 1_555
O16_11 Co3_6 1_555 1_555
O19_11 Co3_6 1_555 1_555
H11_11 O19_11 1_555 1_555
H12_11 O19_11 1_555 1_555
O27_3 Co3_6 1_555 1_555
H13_11 O27_3 1_555 1_555
H14_11 O27_3 1_555 1_555
C17_11 O11_11 1_555 1_555
C25_11 O16_11 1_555 1_555
C26_11 C25_11 1_555 1_555
C27_11 C26_11 1_555 1_555
H18_11 C27_11 1_555 1_555
O25_11 Co3_6 1_555 1_555
C6_6 C7_6 1_555 1_555
Br4_11 C28_11 1_555 1_555
O17_11 C32_11 1_555 1_555
O18_11 C32_11 1_555 1_555
C29_11 C28_11 1_555 1_555
H19_11 C29_11 1_555 1_555
C30_11 C29_11 1_555 1_555
C32_11 C30_11 1_555 1_555
Co5_4 O17_11 1_555 1_555
Co9_11 O18_11 1_555 1_555
C30_11 C31_11 1_555 1_555
Br3_9 C20_9 1_555 1_555
O11_12 Co7_6 1_555 1_555
O12_12 C17_12 1_555 1_555
O22_2 C25_12 1_555 1_555
O16_12 Co7_6 1_555 1_555
O19_12 Co7_6 1_555 1_555
H11_12 O19_12 1_555 1_555
H12_12 O19_12 1_555 1_555
O27_2 Co7_6 1_555 1_555
H13_12 O27_2 1_555 1_555
H14_12 O27_2 1_555 1_555
C17_12 O11_12 1_555 1_555
C18_11 C17_12 1_555 1_555
C19_11 C18_11 1_555 1_555
H15_11 C19_11 1_555 1_555
C20_9 C19_11 1_555 1_555
C21_11 C20_9 1_555 1_555
H16_11 C21_11 1_555 1_555
C22_11 C21_11 1_555 1_555
C23_11 C18_11 1_555 1_555
H17_11 C23_11 1_555 1_555
C24_11 C22_11 1_555 1_555
C25_12 O16_12 1_555 1_555
C26_12 C25_12 1_555 1_555
C27_12 C26_12 1_555 1_555
H18_12 C27_12 1_555 1_555
O25_12 Co7_6 1_555 1_555
C22_11 C23_11 1_555 1_555
Br4_12 C28_12 1_555 1_555
O17_12 C32_12 1_555 1_555
O18_12 C32_12 1_555 1_555
H19_12 C29_12 1_555 1_555
C30_12 C29_12 1_555 1_555
C32_12 C30_12 1_555 1_555
Co6_7 O17_12 1_555 1_555
Co9_12 O18_12 1_555 1_555
C30_12 C31_12 1_555 1_555
Co6_7 O5_4 1_555 1_555
Co9_10 O1_7 1_555 1_555
O1_7 C1_7 1_555 1_555
O2_7 C1_7 1_555 1_555
O3_7 C8_7 1_555 1_555
O4_7 C8_7 1_555 1_555
O5_4 C9_7 1_555 1_555
O6_7 Co9_10 1_555 1_555
O24_9 C16_7 1_555 1_555
O25_9 C16_7 1_555 1_555
O9_7 Co9_10 1_555 1_555
H1_7 O9_7 1_555 1_555
H2_7 O9_7 1_555 1_555
O10_4 Co6_7 1_555 1_555
H3_7 O10_4 1_555 1_555
H4_7 O10_4 1_555 1_555
C1_7 C2_7 1_555 1_555
C2_7 C3_7 1_555 1_555
C3_7 H5_7 1_555 1_555
H6_7 C5_7 1_555 1_555
C6_7 C5_7 1_555 1_555
C7_7 C2_7 1_555 1_555
H7_7 C7_7 1_555 1_555
C8_7 C6_7 1_555 1_555
C9_7 O6_7 1_555 1_555
C10_7 C9_7 1_555 1_555
C11_7 C10_7 1_555 1_555
H8_7 C11_7 1_555 1_555
C12_6 C11_7 1_555 1_555
C13_7 C12_6 1_555 1_555
C14_7 C13_7 1_555 1_555
C15_7 C10_7 1_555 1_555
H10_7 C15_7 1_555 1_555
C16_7 C14_7 1_555 1_555
Co8_5 O4_7 1_555 1_555
O11_13 Co8_5 1_555 1_555
O12_13 C17_13 1_555 1_555
O13_13 C24_12 1_555 1_555
O14_7 C24_12 1_555 1_555
O15_7 C25_13 1_555 1_555
O16_13 Co8_5 1_555 1_555
O24_8 C32_13 1_555 1_555
O25_10 C32_13 1_555 1_555
O19_13 Co8_5 1_555 1_555
H11_13 O19_13 1_555 1_555
H12_13 O19_13 1_555 1_555
O20_7 Co8_5 1_555 1_555
H13_13 O20_7 1_555 1_555
H14_13 O20_7 1_555 1_555
C17_13 O11_13 1_555 1_555
C18_12 C17_13 1_555 1_555
C19_12 C18_12 1_555 1_555
H15_12 C19_12 1_555 1_555
H16_12 C21_12 1_555 1_555
C22_12 C21_12 1_555 1_555
C23_12 C18_12 1_555 1_555
H17_12 C23_12 1_555 1_555
C24_12 C22_12 1_555 1_555
C25_13 O16_13 1_555 1_555
C26_13 C25_13 1_555 1_555
C27_13 C26_13 1_555 1_555
H18_13 C27_13 1_555 1_555
C28_13 C27_13 1_555 1_555
C29_13 C28_13 1_555 1_555
C30_13 C29_13 1_555 1_555
C31_13 C26_13 1_555 1_555
H20_12 C31_13 1_555 1_555
C32_13 C30_13 1_555 1_555
Co5_4 O15_7 1_555 1_555
Co9_9 O14_7 1_555 1_555
O21_7 Co9_10 1_555 1_555
O22_10 Co6_7 1_555 1_555
O27_10 Co6_7 1_555 1_555
Co9_10 O10_4 1_555 1_555
C6_7 C7_7 1_555 1_555
C14_7 C15_7 1_555 1_555
O20_7 Co5_4 1_555 1_555
C22_12 C23_12 1_555 1_555
C30_13 C31_13 1_555 1_555
Br4_14 C28_14 1_555 1_555
O11_14 Co9_9 1_555 1_555
O12_14 C17_14 1_555 1_555
O13_14 C24_13 1_555 1_555
O21_7 C24_13 1_555 1_555
O15_8 C25_14 1_555 1_555
O16_14 Co9_9 1_555 1_555
O24_7 C32_14 1_555 1_555
O26_5 C32_14 1_555 1_555
O19_14 Co9_9 1_555 1_555
H11_14 O19_14 1_555 1_555
H12_14 O19_14 1_555 1_555
O20_8 Co9_9 1_555 1_555
H13_14 O20_8 1_555 1_555
H14_14 O20_8 1_555 1_555
C17_14 O11_14 1_555 1_555
C18_13 C17_14 1_555 1_555
C19_13 C18_13 1_555 1_555
H15_13 C19_13 1_555 1_555
H16_13 C21_13 1_555 1_555
C22_13 C21_13 1_555 1_555
C23_13 C18_13 1_555 1_555
H17_13 C23_13 1_555 1_555
C24_13 C22_13 1_555 1_555
C25_14 O16_14 1_555 1_555
C26_14 C25_14 1_555 1_555
C27_14 C26_14 1_555 1_555
H18_14 C27_14 1_555 1_555
C28_14 C27_14 1_555 1_555
C29_14 C28_14 1_555 1_555
H19_14 C29_14 1_555 1_555
C30_14 C29_14 1_555 1_555
C31_14 C26_14 1_555 1_555
H20_13 C31_14 1_555 1_555
C32_14 C30_14 1_555 1_555
Co6_6 O15_8 1_555 1_555
O22_11 Co5_4 1_555 1_555
O27_11 Co5_4 1_555 1_555
O20_8 Co6_6 1_555 1_555
C22_13 C23_13 1_555 1_555
C30_14 C31_14 1_555 1_555
O22_12 Co6_6 1_555 1_555
O27_12 Co6_6 1_555 1_555
Co6_5 O5_5 1_555 1_555
Co9_8 O1_8 1_555 1_555
Br1_6 C4_6 1_555 1_555
O1_8 C1_8 1_555 1_555
O2_8 C1_8 1_555 1_555
O3_8 C8_8 1_555 1_555
O4_8 C8_8 1_555 1_555
O5_5 C9_8 1_555 1_555
O6_8 Co9_8 1_555 1_555
O23_8 C16_8 1_555 1_555
O25_7 C16_8 1_555 1_555
O9_8 Co9_8 1_555 1_555
H1_8 O9_8 1_555 1_555
H2_8 O9_8 1_555 1_555
O10_5 Co6_5 1_555 1_555
H3_8 O10_5 1_555 1_555
H4_8 O10_5 1_555 1_555
C1_8 C2_8 1_555 1_555
C2_8 C3_8 1_555 1_555
C3_8 H5_8 1_555 1_555
C4_6 C3_8 1_555 1_555
C5_8 C4_6 1_555 1_555
H6_8 C5_8 1_555 1_555
C6_8 C5_8 1_555 1_555
C7_8 C2_8 1_555 1_555
H7_8 C7_8 1_555 1_555
C8_8 C6_8 1_555 1_555
C9_8 O6_8 1_555 1_555
C10_8 C9_8 1_555 1_555
C11_8 C10_8 1_555 1_555
H8_8 C11_8 1_555 1_555
C12_7 C11_8 1_555 1_555
C13_8 C12_7 1_555 1_555
C14_8 C13_8 1_555 1_555
C15_8 C10_8 1_555 1_555
H10_8 C15_8 1_555 1_555
C16_8 C14_8 1_555 1_555
Co8_4 O4_8 1_555 1_555
Br3_10 C20_10 1_555 1_555
O11_15 Co8_4 1_555 1_555
O12_15 C17_15 1_555 1_555
O13_15 C24_14 1_555 1_555
O14_8 C24_14 1_555 1_555
O15_9 C25_15 1_555 1_555
O16_15 Co8_4 1_555 1_555
O23_9 C32_15 1_555 1_555
O25_8 C32_15 1_555 1_555
O19_15 Co8_4 1_555 1_555
H11_15 O19_15 1_555 1_555
H12_15 O19_15 1_555 1_555
O20_9 Co8_4 1_555 1_555
H13_15 O20_9 1_555 1_555
H14_15 O20_9 1_555 1_555
C17_15 O11_15 1_555 1_555
C18_14 C17_15 1_555 1_555
C19_14 C18_14 1_555 1_555
H15_14 C19_14 1_555 1_555
C20_10 C19_14 1_555 1_555
C21_14 C20_10 1_555 1_555
H16_14 C21_14 1_555 1_555
C22_14 C21_14 1_555 1_555
C23_14 C18_14 1_555 1_555
H17_14 C23_14 1_555 1_555
C24_14 C22_14 1_555 1_555
C25_15 O16_15 1_555 1_555
C26_15 C25_15 1_555 1_555
C27_15 C26_15 1_555 1_555
H18_15 C27_15 1_555 1_555
C28_15 C27_15 1_555 1_555
C29_15 C28_15 1_555 1_555
C30_15 C29_15 1_555 1_555
C31_15 C26_15 1_555 1_555
H20_14 C31_15 1_555 1_555
C32_15 C30_15 1_555 1_555
Co6_4 O15_9 1_555 1_555
Co9_7 O14_8 1_555 1_555
O21_8 Co9_8 1_555 1_555
O22_13 Co6_5 1_555 1_555
O27_13 Co6_5 1_555 1_555
Co9_8 O10_5 1_555 1_555
C6_8 C7_8 1_555 1_555
C14_8 C15_8 1_555 1_555
O20_9 Co6_4 1_555 1_555
C22_14 C23_14 1_555 1_555
C30_15 C31_15 1_555 1_555
Br3_11 C20_11 1_555 1_555
Br4_16 C28_16 1_555 1_555
O11_16 Co9_7 1_555 1_555
O12_16 C17_16 1_555 1_555
O13_16 C24_15 1_555 1_555
O21_8 C24_15 1_555 1_555
O15_10 C25_16 1_555 1_555
O16_16 Co9_7 1_555 1_555
O23_7 C32_16 1_555 1_555
O26_4 C32_16 1_555 1_555
O19_16 Co9_7 1_555 1_555
H11_16 O19_16 1_555 1_555
H12_16 O19_16 1_555 1_555
O20_10 Co9_7 1_555 1_555
H13_16 O20_10 1_555 1_555
H14_16 O20_10 1_555 1_555
C17_16 O11_16 1_555 1_555
C18_15 C17_16 1_555 1_555
C19_15 C18_15 1_555 1_555
H15_15 C19_15 1_555 1_555
C20_11 C19_15 1_555 1_555
C21_15 C20_11 1_555 1_555
H16_15 C21_15 1_555 1_555
C22_15 C21_15 1_555 1_555
C23_15 C18_15 1_555 1_555
H17_15 C23_15 1_555 1_555
C24_15 C22_15 1_555 1_555
C25_16 O16_16 1_555 1_555
C26_16 C25_16 1_555 1_555
C27_16 C26_16 1_555 1_555
H18_16 C27_16 1_555 1_555
C28_16 C27_16 1_555 1_555
C29_16 C28_16 1_555 1_555
H19_16 C29_16 1_555 1_555
C30_16 C29_16 1_555 1_555
C31_16 C26_16 1_555 1_555
H20_15 C31_16 1_555 1_555
C32_16 C30_16 1_555 1_555
Co5_3 O15_10 1_555 1_555
O22_14 Co6_4 1_555 1_555
O27_14 Co6_4 1_555 1_555
O20_10 Co5_3 1_555 1_555
C22_15 C23_15 1_555 1_555
C30_16 C31_16 1_555 1_555
O22_15 Co5_3 1_555 1_555
O27_15 Co5_3 1_555 1_555
Br1_7 C4_7 1_555 1_555
O3_9 C8_9 1_555 1_555
O4_9 C8_9 1_555 1_555
C2_9 C3_9 1_555 1_555
C3_9 H5_9 1_555 1_555
C4_7 C3_9 1_555 1_555
C5_9 C4_7 1_555 1_555
H6_9 C5_9 1_555 1_555
C6_9 C5_9 1_555 1_555
C7_9 C2_9 1_555 1_555
H7_9 C7_9 1_555 1_555
C8_9 C6_9 1_555 1_555
Co8_3 O4_9 1_555 1_555
Br4_17 C28_17 1_555 1_555
O11_17 Co8_3 1_555 1_555
O12_17 C17_17 1_555 1_555
O22_15 C25_17 1_555 1_555
O16_17 Co8_3 1_555 1_555
O24_5 C32_17 1_555 1_555
O25_6 C32_17 1_555 1_555
O19_17 Co8_3 1_555 1_555
H11_17 O19_17 1_555 1_555
H12_17 O19_17 1_555 1_555
O27_15 Co8_3 1_555 1_555
H13_17 O27_15 1_555 1_555
H14_17 O27_15 1_555 1_555
C17_17 O11_17 1_555 1_555
C25_17 O16_17 1_555 1_555
C26_17 C25_17 1_555 1_555
C27_17 C26_17 1_555 1_555
H18_17 C27_17 1_555 1_555
C28_17 C27_17 1_555 1_555
C29_17 C28_17 1_555 1_555
H19_17 C29_17 1_555 1_555
C30_17 C29_17 1_555 1_555
C31_17 C26_17 1_555 1_555
H20_16 C31_17 1_555 1_555
C32_17 C30_17 1_555 1_555
C6_9 C7_9 1_555 1_555
C30_17 C31_17 1_555 1_555
Co9_6 O1_9 1_555 1_555
Br2_8 C12_8 1_555 1_555
O1_9 C1_9 1_555 1_555
O2_9 C1_9 1_555 1_555
O22_13 C9_9 1_555 1_555
O6_9 Co9_6 1_555 1_555
O9_9 Co9_6 1_555 1_555
H1_9 O9_9 1_555 1_555
H2_9 O9_9 1_555 1_555
H3_9 O27_13 1_555 1_555
H4_9 O27_13 1_555 1_555
C9_9 O6_9 1_555 1_555
C10_9 C9_9 1_555 1_555
C11_9 C10_9 1_555 1_555
H8_9 C11_9 1_555 1_555
C12_8 C11_9 1_555 1_555
O21_9 Co9_6 1_555 1_555
Co9_6 O27_13 1_555 1_555
Br3_12 C20_12 1_555 1_555
C19_16 C18_16 1_555 1_555
H15_16 C19_16 1_555 1_555
C20_12 C19_16 1_555 1_555
C21_16 C20_12 1_555 1_555
H16_16 C21_16 1_555 1_555
C22_16 C21_16 1_555 1_555
C23_16 C18_16 1_555 1_555
H17_16 C23_16 1_555 1_555
C24_16 C22_16 1_555 1_555
C22_16 C23_16 1_555 1_555
O24_6 C16_9 1_555 1_555
O25_5 C16_9 1_555 1_555
H9_9 C13_9 1_555 1_555
C14_9 C13_9 1_555 1_555
H10_9 C15_9 1_555 1_555
C16_9 C14_9 1_555 1_555
Co9_5 O14_9 1_555 1_555
C14_9 C15_9 1_555 1_555
O24_4 C32_18 1_555 1_555
O26_3 C32_18 1_555 1_555
H19_18 C29_18 1_555 1_555
C30_18 C29_18 1_555 1_555
H20_17 C31_18 1_555 1_555
C32_18 C30_18 1_555 1_555
C30_18 C31_18 1_555 1_555
Br3_13 C20_13 1_555 1_555
Br4_18 C28_18 1_555 1_555
O11_18 Co9_5 1_555 1_555
O12_18 C17_18 1_555 1_555
O22_14 C25_18 1_555 1_555
O16_18 Co9_5 1_555 1_555
O19_18 Co9_5 1_555 1_555
H11_18 O19_18 1_555 1_555
H12_18 O19_18 1_555 1_555
O27_14 Co9_5 1_555 1_555
H13_18 O27_14 1_555 1_555
H14_18 O27_14 1_555 1_555
C17_18 O11_18 1_555 1_555
C18_17 C17_18 1_555 1_555
C19_17 C18_17 1_555 1_555
H15_17 C19_17 1_555 1_555
C20_13 C19_17 1_555 1_555
C21_17 C20_13 1_555 1_555
H16_17 C21_17 1_555 1_555
C22_17 C21_17 1_555 1_555
C23_17 C18_17 1_555 1_555
H17_17 C23_17 1_555 1_555
C24_17 C22_17 1_555 1_555
C25_18 O16_18 1_555 1_555
C26_18 C25_18 1_555 1_555
C27_18 C26_18 1_555 1_555
H18_18 C27_18 1_555 1_555
C28_18 C27_18 1_555 1_555
C22_17 C23_17 1_555 1_555
Co6_3 O5_6 1_555 1_555
Co9_4 O1_10 1_555 1_555
Br1_8 C4_8 1_555 1_555
Br2_9 C12_9 1_555 1_555
O1_10 C1_10 1_555 1_555
O2_10 C1_10 1_555 1_555
O3_10 C8_10 1_555 1_555
O4_10 C8_10 1_555 1_555
O5_6 C9_10 1_555 1_555
O6_10 Co9_4 1_555 1_555
O23_5 C16_10 1_555 1_555
O25_3 C16_10 1_555 1_555
O9_10 Co9_4 1_555 1_555
H1_10 O9_10 1_555 1_555
H2_10 O9_10 1_555 1_555
O10_6 Co6_3 1_555 1_555
H3_10 O10_6 1_555 1_555
H4_10 O10_6 1_555 1_555
C1_10 C2_10 1_555 1_555
C2_10 C3_10 1_555 1_555
C3_10 H5_10 1_555 1_555
C4_8 C3_10 1_555 1_555
C5_10 C4_8 1_555 1_555
H6_10 C5_10 1_555 1_555
C6_10 C5_10 1_555 1_555
C7_10 C2_10 1_555 1_555
H7_10 C7_10 1_555 1_555
C8_10 C6_10 1_555 1_555
C9_10 O6_10 1_555 1_555
C10_10 C9_10 1_555 1_555
C11_10 C10_10 1_555 1_555
H8_10 C11_10 1_555 1_555
C12_9 C11_10 1_555 1_555
C13_10 C12_9 1_555 1_555
H9_10 C13_10 1_555 1_555
C14_10 C13_10 1_555 1_555
C15_10 C10_10 1_555 1_555
H10_10 C15_10 1_555 1_555
C16_10 C14_10 1_555 1_555
Co8_2 O4_10 1_555 1_555
Br3_14 C20_14 1_555 1_555
O11_19 Co8_2 1_555 1_555
O12_19 C17_19 1_555 1_555
O13_19 C24_18 1_555 1_555
O14_10 C24_18 1_555 1_555
O15_11 C25_19 1_555 1_555
O16_19 Co8_2 1_555 1_555
O23_6 C32_19 1_555 1_555
O25_4 C32_19 1_555 1_555
O19_19 Co8_2 1_555 1_555
H11_19 O19_19 1_555 1_555
H12_19 O19_19 1_555 1_555
O20_11 Co8_2 1_555 1_555
H13_19 O20_11 1_555 1_555
H14_19 O20_11 1_555 1_555
C17_19 O11_19 1_555 1_555
C18_18 C17_19 1_555 1_555
C19_18 C18_18 1_555 1_555
H15_18 C19_18 1_555 1_555
C20_14 C19_18 1_555 1_555
C21_18 C20_14 1_555 1_555
H16_18 C21_18 1_555 1_555
C22_18 C21_18 1_555 1_555
C23_18 C18_18 1_555 1_555
H17_18 C23_18 1_555 1_555
C24_18 C22_18 1_555 1_555
C25_19 O16_19 1_555 1_555
C26_19 C25_19 1_555 1_555
C27_19 C26_19 1_555 1_555
C28_19 C27_19 1_555 1_555
C29_19 C28_19 1_555 1_555
H19_19 C29_19 1_555 1_555
C30_19 C29_19 1_555 1_555
C31_19 C26_19 1_555 1_555
H20_18 C31_19 1_555 1_555
C32_19 C30_19 1_555 1_555
Co6_2 O15_11 1_555 1_555
Co9_3 O14_10 1_555 1_555
O21_10 Co9_4 1_555 1_555
O22_16 Co6_3 1_555 1_555
O27_16 Co6_3 1_555 1_555
Co9_4 O10_6 1_555 1_555
C6_10 C7_10 1_555 1_555
C14_10 C15_10 1_555 1_555
O20_11 Co6_2 1_555 1_555
C22_18 C23_18 1_555 1_555
C30_19 C31_19 1_555 1_555
O22_17 Co6 1_555 1_555
O27_17 Co6 1_555 1_555
Br3_15 C20_15 1_555 1_555
O11_20 Co9_3 1_555 1_555
O12_20 C17_20 1_555 1_555
O13_20 C24_19 1_555 1_555
O21_10 C24_19 1_555 1_555
O15_12 C25_20 1_555 1_555
O16_20 Co9_3 1_555 1_555
O23_4 C32_20 1_555 1_555
O26_2 C32_20 1_555 1_555
O19_20 Co9_3 1_555 1_555
H11_20 O19_20 1_555 1_555
H12_20 O19_20 1_555 1_555
O20_12 Co9_3 1_555 1_555
H13_20 O20_12 1_555 1_555
H14_20 O20_12 1_555 1_555
C17_20 O11_20 1_555 1_555
C18_19 C17_20 1_555 1_555
C19_19 C18_19 1_555 1_555
H15_19 C19_19 1_555 1_555
C20_15 C19_19 1_555 1_555
C21_19 C20_15 1_555 1_555
H16_19 C21_19 1_555 1_555
C22_19 C21_19 1_555 1_555
C23_19 C18_19 1_555 1_555
H17_19 C23_19 1_555 1_555
C24_19 C22_19 1_555 1_555
C25_20 O16_20 1_555 1_555
C26_20 C25_20 1_555 1_555
C27_20 C26_20 1_555 1_555
C28_20 C27_20 1_555 1_555
C29_20 C28_20 1_555 1_555
H19_20 C29_20 1_555 1_555
C30_20 C29_20 1_555 1_555
C31_20 C26_20 1_555 1_555
H20_19 C31_20 1_555 1_555
C32_20 C30_20 1_555 1_555
Co5 O15_12 1_555 1_555
O20_12 Co5 1_555 1_555
C22_19 C23_19 1_555 1_555
C30_20 C31_20 1_555 1_555
O22_18 Co5_2 1_555 1_555
O27_18 Co5_2 1_555 1_555
Co9_2 O1_11 1_555 1_555
Br1_9 C4_9 1_555 1_555
Br2_10 C12_10 1_555 1_555
O1_11 C1_11 1_555 1_555
O2_11 C1_11 1_555 1_555
O3_11 C8_11 1_555 1_555
O4_11 C8_11 1_555 1_555
O22_16 C9_11 1_555 1_555
O6_11 Co9_2 1_555 1_555
O23_2 C16_11 1_555 1_555
O25 C16_11 1_555 1_555
O9_11 Co9_2 1_555 1_555
H1_11 O9_11 1_555 1_555
H2_11 O9_11 1_555 1_555
H3_11 O27_16 1_555 1_555
H4_11 O27_16 1_555 1_555
C1_11 C2_11 1_555 1_555
C2_11 C3_11 1_555 1_555
C3_11 H5_11 1_555 1_555
C4_9 C3_11 1_555 1_555
C5_11 C4_9 1_555 1_555
H6_11 C5_11 1_555 1_555
C6_11 C5_11 1_555 1_555
C7_11 C2_11 1_555 1_555
H7_11 C7_11 1_555 1_555
C8_11 C6_11 1_555 1_555
C9_11 O6_11 1_555 1_555
C10_11 C9_11 1_555 1_555
C11_11 C10_11 1_555 1_555
H8_11 C11_11 1_555 1_555
C12_10 C11_11 1_555 1_555
C13_11 C12_10 1_555 1_555
H9_11 C13_11 1_555 1_555
C14_11 C13_11 1_555 1_555
C15_11 C10_11 1_555 1_555
H10_11 C15_11 1_555 1_555
C16_11 C14_11 1_555 1_555
Co8 O4_11 1_555 1_555
Br3_16 C20_16 1_555 1_555
O11_21 Co8 1_555 1_555
O12_21 C17_21 1_555 1_555
O13_21 C24_20 1_555 1_555
O14_11 C24_20 1_555 1_555
O22_18 C25_21 1_555 1_555
O16_21 Co8 1_555 1_555
O23_3 C32_21 1_555 1_555
O25_2 C32_21 1_555 1_555
O19_21 Co8 1_555 1_555
H11_21 O19_21 1_555 1_555
H12_21 O19_21 1_555 1_555
O27_18 Co8 1_555 1_555
H13_21 O27_18 1_555 1_555
H14_21 O27_18 1_555 1_555
C17_21 O11_21 1_555 1_555
C18_20 C17_21 1_555 1_555
C19_20 C18_20 1_555 1_555
H15_20 C19_20 1_555 1_555
C20_16 C19_20 1_555 1_555
C21_20 C20_16 1_555 1_555
H16_20 C21_20 1_555 1_555
C22_20 C21_20 1_555 1_555
C23_20 C18_20 1_555 1_555
H17_20 C23_20 1_555 1_555
C24_20 C22_20 1_555 1_555
C25_21 O16_21 1_555 1_555
C26_21 C25_21 1_555 1_555
C27_21 C26_21 1_555 1_555
C28_21 C27_21 1_555 1_555
C29_21 C28_21 1_555 1_555
H19_21 C29_21 1_555 1_555
C30_21 C29_21 1_555 1_555
C31_21 C26_21 1_555 1_555
H20_20 C31_21 1_555 1_555
C32_21 C30_21 1_555 1_555
Co9 O14_11 1_555 1_555
O21_11 Co9_2 1_555 1_555
Co9_2 O27_16 1_555 1_555
C6_11 C7_11 1_555 1_555
C14_11 C15_11 1_555 1_555
C22_20 C23_20 1_555 1_555
C30_21 C31_21 1_555 1_555
Br3_17 C20_17 1_555 1_555
O11_22 Co9 1_555 1_555
O12_22 C17_22 1_555 1_555
O13_22 C24_21 1_555 1_555
O21_11 C24_21 1_555 1_555
O22_17 C25_22 1_555 1_555
O16_22 Co9 1_555 1_555
O23 C32_22 1_555 1_555
O26 C32_22 1_555 1_555
O19_22 Co9 1_555 1_555
H11_22 O19_22 1_555 1_555
H12_22 O19_22 1_555 1_555
O27_17 Co9 1_555 1_555
H13_22 O27_17 1_555 1_555
H14_22 O27_17 1_555 1_555
C17_22 O11_22 1_555 1_555
C18_21 C17_22 1_555 1_555
C19_21 C18_21 1_555 1_555
H15_21 C19_21 1_555 1_555
C20_17 C19_21 1_555 1_555
C21_21 C20_17 1_555 1_555
H16_21 C21_21 1_555 1_555
C22_21 C21_21 1_555 1_555
C23_21 C18_21 1_555 1_555
H17_21 C23_21 1_555 1_555
C24_21 C22_21 1_555 1_555
C25_22 O16_22 1_555 1_555
C26_22 C25_22 1_555 1_555
C27_22 C26_22 1_555 1_555
C28_22 C27_22 1_555 1_555
C29_22 C28_22 1_555 1_555
H19_22 C29_22 1_555 1_555
C30_22 C29_22 1_555 1_555
C31_22 C26_22 1_555 1_555
H20_21 C31_22 1_555 1_555
C32_22 C30_22 1_555 1_555
C22_21 C23_21 1_555 1_555
C30_22 C31_22 1_555 1_555
Br4_23 C28_23 1_555 1_555
O24_2 C32_23 1_555 1_555
O25_12 C32_23 1_555 1_555
C29_23 C28_23 1_555 1_555
H19_23 C29_23 1_555 1_555
C30_23 C29_23 1_555 1_555
C32_23 C30_23 1_555 1_555
C30_23 C31_23 1_555 1_555
Br1_10 C4_10 1_555 1_555
O3_12 C8_12 1_555 1_555
O4_12 C8_12 1_555 1_555
C2_12 C3_12 1_555 1_555
C3_12 H5_12 1_555 1_555
C4_10 C3_12 1_555 1_555
C5_12 C4_10 1_555 1_555
H6_12 C5_12 1_555 1_555
C6_12 C5_12 1_555 1_555
C7_12 C2_12 1_555 1_555
H7_12 C7_12 1_555 1_555
C8_12 C6_12 1_555 1_555
Co8_6 O4_12 1_555 1_555
O11_23 Co8_6 1_555 1_555
O12_23 C17_23 1_555 1_555
O22_12 C25_23 1_555 1_555
O16_23 Co8_6 1_555 1_555
O19_23 Co8_6 1_555 1_555
H11_23 O19_23 1_555 1_555
H12_23 O19_23 1_555 1_555
O27_12 Co8_6 1_555 1_555
H13_23 O27_12 1_555 1_555
H14_23 O27_12 1_555 1_555
C17_23 O11_23 1_555 1_555
C25_23 O16_23 1_555 1_555
C26_23 C25_23 1_555 1_555
C27_23 C26_23 1_555 1_555
H18_23 C27_23 1_555 1_555
C6_12 C7_12 1_555 1_555
Co9_12 O1_12 1_555 1_555
O1_12 C1_12 1_555 1_555
O2_12 C1_12 1_555 1_555
O22_10 C9_12 1_555 1_555
O6_12 Co9_12 1_555 1_555
O9_12 Co9_12 1_555 1_555
H1_12 O9_12 1_555 1_555
H2_12 O9_12 1_555 1_555
H3_12 O27_10 1_555 1_555
H4_12 O27_10 1_555 1_555
C9_12 O6_12 1_555 1_555
C10_12 C9_12 1_555 1_555
C11_12 C10_12 1_555 1_555
H8_12 C11_12 1_555 1_555
O21_12 Co9_12 1_555 1_555
Co9_12 O27_10 1_555 1_555
O24_3 C16_12 1_555 1_555
O25_11 C16_12 1_555 1_555
H9_12 C13_12 1_555 1_555
C14_12 C13_12 1_555 1_555
C16_12 C14_12 1_555 1_555
C14_12 C15_12 1_555 1_555
Co9_11 O14_12 1_555 1_555
O24 C32_24 1_555 1_555
O26_6 C32_24 1_555 1_555
H19_24 C29_24 1_555 1_555
C30_24 C29_24 1_555 1_555
C32_24 C30_24 1_555 1_555
C30_24 C31_24 1_555 1_555
Br4_24 C28_24 1_555 1_555
Br3_18 C20_18 1_555 1_555
O11_24 Co9_11 1_555 1_555
O12_24 C17_24 1_555 1_555
O22_11 C25_24 1_555 1_555
O16_24 Co9_11 1_555 1_555
O19_24 Co9_11 1_555 1_555
H11_24 O19_24 1_555 1_555
H12_24 O19_24 1_555 1_555
O27_11 Co9_11 1_555 1_555
H13_24 O27_11 1_555 1_555
H14_24 O27_11 1_555 1_555
C17_24 O11_24 1_555 1_555
C18_22 C17_24 1_555 1_555
C19_22 C18_22 1_555 1_555
H15_22 C19_22 1_555 1_555
C20_18 C19_22 1_555 1_555
C21_22 C20_18 1_555 1_555
H16_22 C21_22 1_555 1_555
C22_22 C21_22 1_555 1_555
C23_22 C18_22 1_555 1_555
H17_22 C23_22 1_555 1_555
C24_22 C22_22 1_555 1_555
C25_24 O16_24 1_555 1_555
C26_24 C25_24 1_555 1_555
C27_24 C26_24 1_555 1_555
H18_24 C27_24 1_555 1_555
C22_22 C23_22 1_555 1_555
Br1_11 C4_11 1_555 1_555
Br3_19 C20_19 1_555 1_555
Br3_20 C20_20 1_555 1_555
Br2_11 C12_11 1_555 1_555
Br3_21 C20_21 1_555 1_555
C19_23 C18_23 1_555 1_555
H15_23 C19_23 1_555 1_555
C20_21 C19_23 1_555 1_555
C21_23 C20_21 1_555 1_555
H16_23 C21_23 1_555 1_555
C22_23 C21_23 1_555 1_555
C23_23 C18_23 1_555 1_555
H17_23 C23_23 1_555 1_555
C24_23 C22_23 1_555 1_555
C22_23 C23_23 1_555 1_555
Br1_12 C4_12 1_555 1_555
Br3_22 C20_22 1_555 1_555
Br3_23 C20_23 1_555 1_555
Br3_24 C20_24 1_555 1_555
C19_24 C18_24 1_555 1_555
H15_24 C19_24 1_555 1_555
C20_24 C19_24 1_555 1_555
C21_24 C20_24 1_555 1_555
H16_24 C21_24 1_555 1_555
C22_24 C21_24 1_555 1_555
C23_24 C18_24 1_555 1_555
H17_24 C23_24 1_555 1_555
C24_24 C22_24 1_555 1_555
C22_24 C23_24 1_555 1_555
Br2_12 C12_12 1_555 1_555

#END
