
###############################################################################
#
# This file contains modified crystal structure data generated from the
# MOF subset of the Cambridge Structural Database (CSD) v543 
# hosted by the Cambridge Crystallographic Data Centre (CCDC).
#
# This work is licensed under the Creative Commons
# Attribution-NonCommercial-ShareAlike 4.0 International License.
# To view a copy of this license, visit
# http://creativecommons.org/licenses/by-nc-sa/4.0/
# or send a letter to
# Creative Commons, PO Box 1866, Mountain View, CA 94042, USA.
#
# CIF created using the CSD Python API on 29 September 2022
# The structure has been converted into the P1 space group
# The structure has a 3D framework
# The original CSD entry ZEQXUS is in the rhombohedral crystal system
# The framework has been calculated to contain at least 10.0% void space
# The void calculation uses a probe of radius 1.32A, grid spacing 0.4
#
###############################################################################

data_ZEQXUS
_chemical_formula_moiety         '(C108 H72 N108 O72 Zn16)n'
_symmetry_cell_setting           triclinic
_symmetry_space_group_name_H-M   'P 1'
_symmetry_Int_Tables_number      1
_space_group_name_Hall           'P 1'
loop_
_symmetry_equiv_pos_site_id
_symmetry_equiv_pos_as_xyz
1 x,y,z
_cell_length_a                   27.1631
_cell_length_b                   27.1631
_cell_length_c                   8.6334
_cell_angle_alpha                90
_cell_angle_beta                 90
_cell_angle_gamma                120
_cell_volume                     5516.6
loop_
_atom_site_label
_atom_site_type_symbol
_atom_site_fract_x
_atom_site_fract_y
_atom_site_fract_z
C3 C 0.60478 0.01274 0.28655
H2 H 0.60434 0.00868 0.41073
C4 C 0.63060 0.06382 0.21015
H3 H 0.65375 0.10554 0.26176
N4 N 0.62708 0.05353 0.05835
C10 C 0.40796 0.01274 0.28655
H7 H 0.40434 0.00868 0.41073
C11 C 0.43322 0.06382 0.21015
H8 H 0.45179 0.10554 0.26176
N11 N 0.42645 0.05353 0.05835
Zn4 Zn 0.66557 0.11322 0.86831
Zn5 Zn 0.44764 0.11322 0.86831
C1 C 0.56704 0.80923 0.01218
N1 N 0.54689 0.81611 0.14855
O1 O 0.49435 0.70614 0.44304
Zn1 Zn 0.55345 0.88569 0.20164
C2 C 0.53389 0.76695 0.22566
N2 N 0.50896 0.75448 0.37724
N3 N 0.58414 0.96868 0.18541
C5 C 0.59731 0.99544 0.04706
C6 C 0.43702 0.82334 0.05142
N6 N 0.46989 0.85488 0.16982
O4 O 0.41337 0.90876 0.46099
C7 C 0.43590 0.87181 0.24294
N7 N 0.45113 0.90227 0.38602
C8 C 0.56704 0.75781 0.01218
N8 N 0.54689 0.73078 0.14855
O5 O 0.49435 0.78821 0.44304
C9 C 0.38632 0.82334 0.05142
N9 N 0.38499 0.85488 0.16982
O6 O 0.49539 0.90876 0.46099
Zn2 Zn 0.33224 0.88569 0.20164
N10 N 0.38454 0.96868 0.18541
C12 C 0.39813 0.99544 0.04706
N13 N 0.26922 0.81611 0.14855
Zn3 Zn 0.55345 0.66776 0.20164
N14 N 0.61314 0.90688 0.39168
N15 N 0.29375 0.90688 0.39168
H1 H 0.58340 0.84060 0.92064
O2 O 0.59273 0.99140 0.77272
O3 O 0.55785 0.90974 0.90559
N5 N 0.58334 0.96496 0.90410
H4 H 0.45135 0.80615 0.96032
H5 H 0.58340 0.74280 0.92064
H6 H 0.35480 0.80615 0.96032
O7 O 0.39867 0.99140 0.77272
O8 O 0.35189 0.90974 0.90559
N12 N 0.38162 0.96496 0.90410
C1_2 C 0.19077 0.75781 0.01218
N1_2 N 0.18389 0.73078 0.14855
O1_2 O 0.29386 0.78821 0.44304
Zn1_2 Zn 0.11431 0.66776 0.20164
C2_2 C 0.23305 0.76694 0.22566
N2_2 N 0.24552 0.75448 0.37724
N3_2 N 0.03132 0.61546 0.18541
C5_2 C 0.00456 0.60187 0.04706
C6_2 C 0.17666 0.61368 0.05142
N6_2 N 0.14512 0.61501 0.16982
O4_2 O 0.09124 0.50461 0.46099
C7_2 C 0.12819 0.56409 0.24294
N7_2 N 0.09773 0.54886 0.38602
C8_2 C 0.24219 0.80923 0.01218
O5_2 O 0.21179 0.70614 0.44304
C9_2 C 0.17666 0.56298 0.05142
N9_2 N 0.14512 0.53011 0.16982
O6_2 O 0.09124 0.58663 0.46099
Zn2_2 Zn 0.11431 0.44655 0.20164
N10_2 N 0.03132 0.41586 0.18541
C12_2 C 0.00456 0.40269 0.04706
N13_2 N 0.18389 0.45311 0.14855
N14_2 N 0.09312 0.70625 0.39168
N15_2 N 0.09312 0.38686 0.39168
H1_2 H 0.15940 0.74280 0.92064
O2_2 O 0.00860 0.60133 0.77272
O3_2 O 0.09026 0.64811 0.90559
N5_2 N 0.03504 0.61838 0.90410
H4_2 H 0.19385 0.64520 0.96032
H5_2 H 0.25720 0.84060 0.92064
H6_2 H 0.19385 0.54865 0.96032
O7_2 O 0.00860 0.40727 0.77272
O8_2 O 0.09026 0.44215 0.90559
N12_2 N 0.03504 0.41666 0.90410
C3_2 C 0.98726 0.59204 0.28655
H2_2 H 0.99132 0.59566 0.41073
C4_2 C 0.93618 0.56678 0.21015
H3_2 H 0.89446 0.54821 0.26176
N4_2 N 0.94647 0.57355 0.05835
C10_2 C 0.98726 0.39522 0.28655
H7_2 H 0.99132 0.39566 0.41073
C11_2 C 0.93618 0.36940 0.21015
H8_2 H 0.89446 0.34625 0.26176
N11_2 N 0.94647 0.37292 0.05835
Zn4_2 Zn 0.88678 0.55236 0.86831
Zn5_2 Zn 0.88678 0.33443 0.86831
C1_3 C 0.24219 0.43296 0.01218
N1_3 N 0.26922 0.45311 0.14855
O1_3 O 0.21179 0.50565 0.44304
Zn1_3 Zn 0.33224 0.44655 0.20164
C2_3 C 0.23306 0.46611 0.22566
N2_3 N 0.24552 0.49104 0.37724
C3_3 C 0.40796 0.39522 0.28655
H2_3 H 0.40434 0.39566 0.41073
N3_3 N 0.38454 0.41586 0.18541
C4_3 C 0.43322 0.36940 0.21015
H3_3 H 0.45179 0.34625 0.26176
N4_3 N 0.42645 0.37292 0.05835
C5_3 C 0.39813 0.40269 0.04706
C6_3 C 0.38632 0.56298 0.05142
N6_3 N 0.38499 0.53011 0.16982
O4_3 O 0.49539 0.58663 0.46099
C7_3 C 0.43591 0.56410 0.24294
N7_3 N 0.45114 0.54887 0.38602
C8_3 C 0.19077 0.43296 0.01218
O5_3 O 0.29386 0.50565 0.44304
C9_3 C 0.43702 0.61368 0.05142
N9_3 N 0.46989 0.61501 0.16982
O6_3 O 0.41337 0.50461 0.46099
C10_3 C 0.60478 0.59204 0.28655
H7_3 H 0.60434 0.59566 0.41073
N10_3 N 0.58414 0.61546 0.18541
C11_3 C 0.63060 0.56678 0.21015
H8_3 H 0.65375 0.54821 0.26176
N11_3 N 0.62708 0.57355 0.05835
C12_3 C 0.59731 0.60187 0.04706
N14_3 N 0.29375 0.38686 0.39168
N15_3 N 0.61314 0.70625 0.39168
H1_3 H 0.25720 0.41660 0.92064
O2_3 O 0.39867 0.40727 0.77272
O3_3 O 0.35189 0.44215 0.90559
N5_3 N 0.38162 0.41666 0.90410
H4_3 H 0.35480 0.54865 0.96032
H5_3 H 0.15940 0.41660 0.92064
H6_3 H 0.45135 0.64520 0.96032
O7_3 O 0.59273 0.60133 0.77272
O8_3 O 0.55785 0.64811 0.90559
N12_3 N 0.58334 0.61838 0.90410
Zn4_3 Zn 0.44764 0.33443 0.86831
Zn5_3 Zn 0.66557 0.55236 0.86831
C1_4 C 0.23371 0.14256 0.34551
H1_4 H 0.25007 0.17393 0.25397
N1_4 N 0.21356 0.14944 0.48188
O1_4 O 0.16102 0.03947 0.77637
Zn1_4 Zn 0.22012 0.21902 0.53497
C2_4 C 0.20056 0.10028 0.55899
N2_4 N 0.17563 0.08781 0.71057
C3_4 C 0.27145 0.34607 0.61988
H2_4 H 0.27101 0.34201 0.74406
N3_4 N 0.25081 0.30201 0.51874
O2_4 O 0.25940 0.32473 0.10605
C4_4 C 0.29727 0.39715 0.54348
H3_4 H 0.32042 0.43887 0.59509
O3_4 O 0.22452 0.24307 0.23892
C5_4 C 0.26398 0.32877 0.38039
N5_4 N 0.25001 0.29829 0.23743
C6_4 C 0.10369 0.15667 0.38475
H4_4 H 0.11802 0.13948 0.29365
N6_4 N 0.13656 0.18821 0.50315
O4_4 O 0.08004 0.24209 0.79432
C7_4 C 0.10257 0.20514 0.57627
N7_4 N 0.11780 0.23560 0.71935
C8_4 C 0.23371 0.09114 0.34551
N8_2 N 0.21356 0.06411 0.48188
O5_4 O 0.16102 0.12154 0.77637
H5_4 H 0.25007 0.07613 0.25397
C9_4 C 0.05299 0.15667 0.38475
H6_4 H 0.02147 0.13948 0.29365
N9_4 N 0.05166 0.18821 0.50315
O6_4 O 0.16206 0.24209 0.79432
C10_4 C 0.07463 0.34607 0.61988
H7_4 H 0.07101 0.34201 0.74406
N10_4 N 0.05121 0.30201 0.51874
O7_4 O 0.06534 0.32473 0.10605
C11_4 C 0.09989 0.39715 0.54348
H8_4 H 0.11846 0.43887 0.59509
O8_4 O 0.01856 0.24307 0.23892
C12_4 C 0.06480 0.32877 0.38039
N12_4 N 0.04829 0.29829 0.23743
Zn3_2 Zn 0.22012 0.00109 0.53497
N14_4 N 0.27980 0.24022 0.72502
Zn2_3 Zn 0.99891 0.21902 0.53497
N13_3 N 0.93589 0.14944 0.48188
N15_4 N 0.96041 0.24022 0.72502
C1_5 C 0.85744 0.09114 0.34551
H1_5 H 0.82607 0.07613 0.25397
N1_5 N 0.85056 0.06411 0.48188
O1_5 O 0.96053 0.12154 0.77637
Zn1_5 Zn 0.78098 0.00109 0.53497
C2_5 C 0.89972 0.10027 0.55899
N2_5 N 0.91219 0.08781 0.71057
C8_5 C 0.90886 0.14256 0.34551
O5_5 O 0.87846 0.03947 0.77637
H5_5 H 0.92387 0.17393 0.25397
N14_5 N 0.75978 0.03959 0.72502
C3_5 C 0.65393 0.92537 0.61988
H2_5 H 0.65799 0.92899 0.74406
N3_5 N 0.69799 0.94879 0.51874
O2_5 O 0.67527 0.93466 0.10605
C4_5 C 0.60285 0.90011 0.54348
H3_5 H 0.56113 0.88154 0.59509
O3_5 O 0.75693 0.98144 0.23892
C5_5 C 0.67123 0.93520 0.38039
N5_5 N 0.70171 0.95171 0.23743
C6_5 C 0.84333 0.94701 0.38475
H4_5 H 0.86052 0.97853 0.29365
N6_5 N 0.81179 0.94834 0.50315
O4_5 O 0.75791 0.83794 0.79432
C7_5 C 0.79486 0.89742 0.57627
N7_5 N 0.76440 0.88219 0.71935
C9_5 C 0.84333 0.89631 0.38475
H6_5 H 0.86052 0.88198 0.29365
N9_5 N 0.81179 0.86344 0.50315
O6_5 O 0.75791 0.91996 0.79432
Zn2_4 Zn 0.78098 0.77988 0.53497
C10_5 C 0.65393 0.72855 0.61988
H7_5 H 0.65799 0.72899 0.74406
N10_5 N 0.69799 0.74919 0.51874
O7_5 O 0.67527 0.74060 0.10605
C11_5 C 0.60285 0.70273 0.54348
H8_5 H 0.56113 0.67958 0.59509
O8_5 O 0.75693 0.77548 0.23892
C12_5 C 0.67123 0.73602 0.38039
N12_5 N 0.70171 0.74999 0.23743
N13_4 N 0.85056 0.78644 0.48188
N15_5 N 0.75978 0.72020 0.72502
N15_6 N 0.27980 0.03959 0.72502
C3_6 C 0.07463 0.72855 0.61988
H2_6 H 0.07101 0.72899 0.74406
N3_6 N 0.05121 0.74919 0.51874
O2_6 O 0.06534 0.74060 0.10605
C4_6 C 0.09989 0.70273 0.54348
H3_6 H 0.11846 0.67958 0.59509
O3_6 O 0.01856 0.77548 0.23892
C5_6 C 0.06480 0.73602 0.38039
N5_6 N 0.04829 0.74999 0.23743
C6_6 C 0.05299 0.89631 0.38475
H4_6 H 0.02147 0.88198 0.29365
N6_6 N 0.05166 0.86344 0.50315
O4_6 O 0.16206 0.91996 0.79432
C7_6 C 0.10258 0.89743 0.57627
N7_6 N 0.11781 0.88220 0.71935
C9_6 C 0.10369 0.94701 0.38475
H6_6 H 0.11802 0.97853 0.29365
N9_6 N 0.13656 0.94834 0.50315
O6_6 O 0.08004 0.83794 0.79432
C10_6 C 0.27145 0.92537 0.61988
H7_6 H 0.27101 0.92899 0.74406
N10_6 N 0.25081 0.94879 0.51874
O7_6 O 0.25940 0.93466 0.10605
C11_6 C 0.29727 0.90011 0.54348
H8_6 H 0.32042 0.88154 0.59509
O8_6 O 0.22452 0.98144 0.23892
C12_6 C 0.26398 0.93520 0.38039
N12_6 N 0.25001 0.95171 0.23743
C1_6 C 0.90886 0.76629 0.34551
H1_6 H 0.92387 0.74993 0.25397
N1_6 N 0.93589 0.78644 0.48188
O1_6 O 0.87846 0.83898 0.77637
Zn1_6 Zn 0.99891 0.77988 0.53497
C2_6 C 0.89973 0.79944 0.55899
N2_6 N 0.91219 0.82437 0.71057
C8_6 C 0.85744 0.76629 0.34551
O5_6 O 0.96053 0.83898 0.77637
H5_6 H 0.82607 0.74993 0.25397
N14_6 N 0.96041 0.72020 0.72502
O1_7 O 0.82768 0.37281 0.10971
N2_7 N 0.84229 0.42115 0.04391
H2_7 H 0.93767 0.67535 0.07740
O4_7 O 0.74670 0.57543 0.12766
N7_7 N 0.78446 0.56894 0.05269
O5_7 O 0.82768 0.45488 0.10971
O6_7 O 0.82872 0.57543 0.12766
H7_7 H 0.73767 0.67535 0.07740
C1_7 C 0.90037 0.47590 0.67885
H1_7 H 0.91673 0.50727 0.58731
N1_7 N 0.88022 0.48278 0.81522
C2_7 C 0.86722 0.43362 0.89233
C3_7 C 0.93811 0.67941 0.95322
N3_7 N 0.91747 0.63535 0.85208
O2_7 O 0.92606 0.65807 0.43939
C4_7 C 0.96393 0.73049 0.87682
H3_7 H 0.98708 0.77221 0.92843
O3_7 O 0.89118 0.57641 0.57226
C5_7 C 0.93064 0.66211 0.71373
N5_7 N 0.91667 0.63163 0.57077
C6_7 C 0.77035 0.49001 0.71809
H4_7 H 0.78468 0.47282 0.62699
N6_7 N 0.80322 0.52155 0.83649
C7_7 C 0.76923 0.53848 0.90961
C8_7 C 0.90037 0.42448 0.67885
N8_3 N 0.88022 0.39745 0.81522
H5_7 H 0.91673 0.40947 0.58731
C9_7 C 0.71965 0.49001 0.71809
H6_7 H 0.68813 0.47282 0.62699
N9_7 N 0.71832 0.52155 0.83649
C10_7 C 0.74129 0.67941 0.95322
N10_7 N 0.71787 0.63535 0.85208
O7_7 O 0.73200 0.65807 0.43939
C11_7 C 0.76655 0.73049 0.87682
H8_7 H 0.78512 0.77221 0.92843
O8_7 O 0.68522 0.57641 0.57226
C12_7 C 0.73146 0.66211 0.71373
N12_7 N 0.71495 0.63163 0.57077
N13_5 N 0.60255 0.48278 0.81522
O1_8 O 0.62719 0.45488 0.10971
N2_8 N 0.57885 0.42115 0.04391
H2_8 H 0.32465 0.26233 0.07740
O4_8 O 0.42457 0.17128 0.12766
N7_8 N 0.43106 0.21553 0.05269
O5_8 O 0.54512 0.37281 0.10971
O6_8 O 0.42457 0.25330 0.12766
H7_8 H 0.32465 0.06233 0.07740
C1_8 C 0.52410 0.42448 0.67885
H1_8 H 0.49273 0.40947 0.58731
N1_8 N 0.51722 0.39745 0.81522
C2_8 C 0.56638 0.43361 0.89233
C3_8 C 0.32059 0.25871 0.95322
N3_8 N 0.36465 0.28213 0.85208
O2_8 O 0.34193 0.26800 0.43939
C4_8 C 0.26951 0.23345 0.87682
H3_8 H 0.22779 0.21488 0.92843
O3_8 O 0.42359 0.31478 0.57226
C5_8 C 0.33789 0.26854 0.71373
N5_8 N 0.36837 0.28505 0.57077
C6_8 C 0.50999 0.28035 0.71809
H4_8 H 0.52718 0.31187 0.62699
N6_8 N 0.47845 0.28168 0.83649
C7_8 C 0.46152 0.23076 0.90961
C8_8 C 0.57552 0.47590 0.67885
H5_8 H 0.59053 0.50727 0.58731
C9_8 C 0.50999 0.22965 0.71809
H6_8 H 0.52718 0.21532 0.62699
N9_8 N 0.47845 0.19678 0.83649
C10_8 C 0.32059 0.06189 0.95322
N10_8 N 0.36465 0.08253 0.85208
O7_8 O 0.34193 0.07394 0.43939
C11_8 C 0.26951 0.03607 0.87682
H8_8 H 0.22779 0.01292 0.92843
O8_8 O 0.42359 0.10882 0.57226
C12_8 C 0.33789 0.06936 0.71373
N12_8 N 0.36837 0.08333 0.57077
N13_6 N 0.51722 0.11978 0.81522
O1_9 O 0.54512 0.17232 0.10971
N2_9 N 0.57885 0.15771 0.04391
H2_9 H 0.73767 0.06233 0.07740
O4_9 O 0.82872 0.25330 0.12766
N7_9 N 0.78447 0.21554 0.05269
O5_9 O 0.62719 0.17232 0.10971
O6_9 O 0.74670 0.17128 0.12766
H7_9 H 0.93767 0.26233 0.07740
C1_9 C 0.57552 0.09963 0.67885
H1_9 H 0.59053 0.08327 0.58731
N1_9 N 0.60255 0.11978 0.81522
C2_9 C 0.56639 0.13278 0.89233
C3_9 C 0.74129 0.06189 0.95322
N3_9 N 0.71787 0.08253 0.85208
O2_9 O 0.73200 0.07394 0.43939
C4_9 C 0.76655 0.03607 0.87682
H3_9 H 0.78512 0.01292 0.92843
O3_9 O 0.68522 0.10882 0.57226
C5_9 C 0.73146 0.06936 0.71373
N5_9 N 0.71495 0.08333 0.57077
C6_9 C 0.71965 0.22965 0.71809
H4_9 H 0.68813 0.21532 0.62699
N6_9 N 0.71832 0.19678 0.83649
C7_9 C 0.76924 0.23077 0.90961
C8_9 C 0.52410 0.09963 0.67885
H5_9 H 0.49273 0.08327 0.58731
C9_9 C 0.77035 0.28035 0.71809
H6_9 H 0.78468 0.31187 0.62699
N9_9 N 0.80322 0.28168 0.83649
C10_9 C 0.93811 0.25871 0.95322
N10_9 N 0.91747 0.28213 0.85208
O7_9 O 0.92606 0.26800 0.43939
C11_9 C 0.96393 0.23345 0.87682
H8_9 H 0.98708 0.21488 0.92843
O8_9 O 0.89118 0.31478 0.57226
C12_9 C 0.93064 0.26854 0.71373
N12_9 N 0.91667 0.28505 0.57077
loop_
_geom_bond_atom_site_label_1
_geom_bond_atom_site_label_2
_geom_bond_site_symmetry_1
_geom_bond_site_symmetry_2
C3 H2 1_555 1_555
C4 C3 1_555 1_555
H3 C4 1_555 1_555
N4 C4 1_555 1_555
C10 H7 1_555 1_555
C11 C10 1_555 1_555
H8 C11 1_555 1_555
N11 C11 1_555 1_555
N1 C1 1_555 1_555
O1 N2 1_555 1_555
Zn1 N1 1_555 1_555
C2 N1 1_555 1_555
N2 C2 1_555 1_555
N3 Zn1 1_555 1_555
C5 N3 1_555 1_555
N6 Zn1 1_555 1_555
O4 N7 1_555 1_555
C7 N6 1_555 1_555
N7 C7 1_555 1_555
C8 C1 1_555 1_555
N8 C2 1_555 1_555
O5 N2 1_555 1_555
C9 C6 1_555 1_555
N9 C7 1_555 1_555
O6 N7 1_555 1_555
Zn2 N9 1_555 1_555
N10 Zn2 1_555 1_555
C12 N10 1_555 1_555
N13 Zn2 1_555 1_555
Zn3 N8 1_555 1_555
N14 Zn1 1_555 1_555
N15 Zn2 1_555 1_555
C6 N6 1_555 1_555
C8 N8 1_555 1_555
C9 N9 1_555 1_555
O2 N5 1_555 1_555
O3 N5 1_555 1_555
O7 N12 1_555 1_555
O8 N12 1_555 1_555
N1_2 C1_2 1_555 1_555
O1_2 N2_2 1_555 1_555
Zn1_2 N1_2 1_555 1_555
C2_2 N1_2 1_555 1_555
N2_2 C2_2 1_555 1_555
N3_2 Zn1_2 1_555 1_555
C5_2 N3_2 1_555 1_555
N6_2 Zn1_2 1_555 1_555
O4_2 N7_2 1_555 1_555
C7_2 N6_2 1_555 1_555
N7_2 C7_2 1_555 1_555
C8_2 C1_2 1_555 1_555
N13 C2_2 1_555 1_555
O5_2 N2_2 1_555 1_555
C9_2 C6_2 1_555 1_555
N9_2 C7_2 1_555 1_555
O6_2 N7_2 1_555 1_555
Zn2_2 N9_2 1_555 1_555
N10_2 Zn2_2 1_555 1_555
C12_2 N10_2 1_555 1_555
N13_2 Zn2_2 1_555 1_555
N14_2 Zn1_2 1_555 1_555
N15_2 Zn2_2 1_555 1_555
C6_2 N6_2 1_555 1_555
C8_2 N13 1_555 1_555
C9_2 N9_2 1_555 1_555
O2_2 N5_2 1_555 1_555
O3_2 N5_2 1_555 1_555
O7_2 N12_2 1_555 1_555
O8_2 N12_2 1_555 1_555
C3_2 H2_2 1_555 1_555
C4_2 C3_2 1_555 1_555
H3_2 C4_2 1_555 1_555
N4_2 C4_2 1_555 1_555
C10_2 H7_2 1_555 1_555
C11_2 C10_2 1_555 1_555
H8_2 C11_2 1_555 1_555
N11_2 C11_2 1_555 1_555
N1_3 C1_3 1_555 1_555
O1_3 N2_3 1_555 1_555
Zn1_3 N1_3 1_555 1_555
C2_3 N1_3 1_555 1_555
N2_3 C2_3 1_555 1_555
C3_3 H2_3 1_555 1_555
N3_3 Zn1_3 1_555 1_555
C4_3 C3_3 1_555 1_555
H3_3 C4_3 1_555 1_555
N4_3 C4_3 1_555 1_555
C5_3 N3_3 1_555 1_555
N6_3 Zn1_3 1_555 1_555
O4_3 N7_3 1_555 1_555
C7_3 N6_3 1_555 1_555
N7_3 C7_3 1_555 1_555
C8_3 C1_3 1_555 1_555
N13_2 C2_3 1_555 1_555
O5_3 N2_3 1_555 1_555
C9_3 C6_3 1_555 1_555
N9_3 C7_3 1_555 1_555
O6_3 N7_3 1_555 1_555
Zn3 N9_3 1_555 1_555
C10_3 H7_3 1_555 1_555
N10_3 Zn3 1_555 1_555
C11_3 C10_3 1_555 1_555
H8_3 C11_3 1_555 1_555
N11_3 C11_3 1_555 1_555
C12_3 N10_3 1_555 1_555
N14_3 Zn1_3 1_555 1_555
N15_3 Zn3 1_555 1_555
C3_3 N3_3 1_555 1_555
N4_3 C5_3 1_555 1_555
C6_3 N6_3 1_555 1_555
C8_3 N13_2 1_555 1_555
C9_3 N9_3 1_555 1_555
C10_3 N10_3 1_555 1_555
N11_3 C12_3 1_555 1_555
O2_3 N5_3 1_555 1_555
O3_3 N5_3 1_555 1_555
O7_3 N12_3 1_555 1_555
O8_3 N12_3 1_555 1_555
C1_4 H1_4 1_555 1_555
N1_4 C1_4 1_555 1_555
O1_4 N2_4 1_555 1_555
Zn1_4 N1_4 1_555 1_555
C2_4 N1_4 1_555 1_555
N2_4 C2_4 1_555 1_555
C3_4 H2_4 1_555 1_555
N3_4 Zn1_4 1_555 1_555
O2_4 N5_4 1_555 1_555
C4_4 C3_4 1_555 1_555
H3_4 C4_4 1_555 1_555
N14_3 C4_4 1_555 1_555
O3_4 N5_4 1_555 1_555
C5_4 N3_4 1_555 1_555
N5_4 C5_4 1_555 1_555
C6_4 H4_4 1_555 1_555
N6_4 Zn1_4 1_555 1_555
O4_4 N7_4 1_555 1_555
C7_4 N6_4 1_555 1_555
N7_4 C7_4 1_555 1_555
C8_4 C1_4 1_555 1_555
N8_2 C2_4 1_555 1_555
O5_4 N2_4 1_555 1_555
H5_4 C8_4 1_555 1_555
C9_4 C6_4 1_555 1_555
H6_4 C9_4 1_555 1_555
N9_4 C7_4 1_555 1_555
O6_4 N7_4 1_555 1_555
C10_4 H7_4 1_555 1_555
O7_4 N12_4 1_555 1_555
C11_4 C10_4 1_555 1_555
H8_4 C11_4 1_555 1_555
N15_2 C11_4 1_555 1_555
O8_4 N12_4 1_555 1_555
C12_4 N10_4 1_555 1_555
N12_4 C12_4 1_555 1_555
Zn3_2 N8_2 1_555 1_555
N14_4 Zn1_4 1_555 1_555
C3_4 N3_4 1_555 1_555
N14_3 C5_4 1_555 1_555
C6_4 N6_4 1_555 1_555
C8_4 N8_2 1_555 1_555
C9_4 N9_4 1_555 1_555
C10_4 N10_4 1_555 1_555
N15_2 C12_4 1_555 1_555
N13_3 Zn2_3 1_555 1_555
N15_4 Zn2_3 1_555 1_555
C1_5 H1_5 1_555 1_555
N1_5 C1_5 1_555 1_555
O1_5 N2_5 1_555 1_555
Zn1_5 N1_5 1_555 1_555
C2_5 N1_5 1_555 1_555
N2_5 C2_5 1_555 1_555
C8_5 C1_5 1_555 1_555
N13_3 C2_5 1_555 1_555
O5_5 N2_5 1_555 1_555
H5_5 C8_5 1_555 1_555
N14_5 Zn1_5 1_555 1_555
C8_5 N13_3 1_555 1_555
C3_5 H2_5 1_555 1_555
O2_5 N5_5 1_555 1_555
C4_5 C3_5 1_555 1_555
H3_5 C4_5 1_555 1_555
N14 C4_5 1_555 1_555
O3_5 N5_5 1_555 1_555
C5_5 N3_5 1_555 1_555
N5_5 C5_5 1_555 1_555
C6_5 H4_5 1_555 1_555
O4_5 N7_5 1_555 1_555
C7_5 N6_5 1_555 1_555
N7_5 C7_5 1_555 1_555
C9_5 C6_5 1_555 1_555
H6_5 C9_5 1_555 1_555
N9_5 C7_5 1_555 1_555
O6_5 N7_5 1_555 1_555
Zn2_4 N9_5 1_555 1_555
C10_5 H7_5 1_555 1_555
N10_5 Zn2_4 1_555 1_555
O7_5 N12_5 1_555 1_555
C11_5 C10_5 1_555 1_555
H8_5 C11_5 1_555 1_555
N15_3 C11_5 1_555 1_555
O8_5 N12_5 1_555 1_555
C12_5 N10_5 1_555 1_555
N12_5 C12_5 1_555 1_555
N13_4 Zn2_4 1_555 1_555
N15_5 Zn2_4 1_555 1_555
C3_5 N3_5 1_555 1_555
N14 C5_5 1_555 1_555
C6_5 N6_5 1_555 1_555
C9_5 N9_5 1_555 1_555
C10_5 N10_5 1_555 1_555
N15_3 C12_5 1_555 1_555
N15_6 Zn3_2 1_555 1_555
C3_6 H2_6 1_555 1_555
O2_6 N5_6 1_555 1_555
C4_6 C3_6 1_555 1_555
H3_6 C4_6 1_555 1_555
N14_2 C4_6 1_555 1_555
O3_6 N5_6 1_555 1_555
C5_6 N3_6 1_555 1_555
N5_6 C5_6 1_555 1_555
C6_6 H4_6 1_555 1_555
O4_6 N7_6 1_555 1_555
C7_6 N6_6 1_555 1_555
N7_6 C7_6 1_555 1_555
C9_6 C6_6 1_555 1_555
H6_6 C9_6 1_555 1_555
N9_6 C7_6 1_555 1_555
O6_6 N7_6 1_555 1_555
C10_6 H7_6 1_555 1_555
O7_6 N12_6 1_555 1_555
C11_6 C10_6 1_555 1_555
H8_6 C11_6 1_555 1_555
N15 C11_6 1_555 1_555
O8_6 N12_6 1_555 1_555
C12_6 N10_6 1_555 1_555
N12_6 C12_6 1_555 1_555
C3_6 N3_6 1_555 1_555
N14_2 C5_6 1_555 1_555
C6_6 N6_6 1_555 1_555
C9_6 N9_6 1_555 1_555
C10_6 N10_6 1_555 1_555
N15 C12_6 1_555 1_555
C1_6 H1_6 1_555 1_555
N1_6 C1_6 1_555 1_555
O1_6 N2_6 1_555 1_555
Zn1_6 N1_6 1_555 1_555
C2_6 N1_6 1_555 1_555
N2_6 C2_6 1_555 1_555
C8_6 C1_6 1_555 1_555
N13_4 C2_6 1_555 1_555
O5_6 N2_6 1_555 1_555
H5_6 C8_6 1_555 1_555
N14_6 Zn1_6 1_555 1_555
C8_6 N13_4 1_555 1_555
O1_7 N2_7 1_555 1_555
O4_7 N7_7 1_555 1_555
O5_7 N2_7 1_555 1_555
O6_7 N7_7 1_555 1_555
C1_7 H1_7 1_555 1_555
N1_7 C1_7 1_555 1_555
Zn4_2 N1_7 1_555 1_555
C2_7 N1_7 1_555 1_555
N3_7 Zn4_2 1_555 1_555
O2_7 N5_7 1_555 1_555
C4_7 C3_7 1_555 1_555
H3_7 C4_7 1_555 1_555
N14_6 C4_7 1_555 1_555
O3_7 N5_7 1_555 1_555
C5_7 N3_7 1_555 1_555
N5_7 C5_7 1_555 1_555
C6_7 H4_7 1_555 1_555
N6_7 Zn4_2 1_555 1_555
C7_7 N6_7 1_555 1_555
C8_7 C1_7 1_555 1_555
N8_3 C2_7 1_555 1_555
H5_7 C8_7 1_555 1_555
C9_7 C6_7 1_555 1_555
H6_7 C9_7 1_555 1_555
N9_7 C7_7 1_555 1_555
Zn5_3 N9_7 1_555 1_555
N10_7 Zn5_3 1_555 1_555
O7_7 N12_7 1_555 1_555
C11_7 C10_7 1_555 1_555
H8_7 C11_7 1_555 1_555
N15_5 C11_7 1_555 1_555
O8_7 N12_7 1_555 1_555
C12_7 N10_7 1_555 1_555
N12_7 C12_7 1_555 1_555
N13_5 Zn5_3 1_555 1_555
Zn5_2 N8_3 1_555 1_555
C3_7 N3_7 1_555 1_555
N14_6 C5_7 1_555 1_555
C6_7 N6_7 1_555 1_555
C8_7 N8_3 1_555 1_555
C9_7 N9_7 1_555 1_555
C10_7 N10_7 1_555 1_555
N15_5 C12_7 1_555 1_555
O1_8 N2_8 1_555 1_555
O4_8 N7_8 1_555 1_555
O5_8 N2_8 1_555 1_555
O6_8 N7_8 1_555 1_555
C1_8 H1_8 1_555 1_555
N1_8 C1_8 1_555 1_555
Zn4_3 N1_8 1_555 1_555
C2_8 N1_8 1_555 1_555
N3_8 Zn4_3 1_555 1_555
O2_8 N5_8 1_555 1_555
C4_8 C3_8 1_555 1_555
H3_8 C4_8 1_555 1_555
N14_4 C4_8 1_555 1_555
O3_8 N5_8 1_555 1_555
C5_8 N3_8 1_555 1_555
N5_8 C5_8 1_555 1_555
C6_8 H4_8 1_555 1_555
N6_8 Zn4_3 1_555 1_555
C7_8 N6_8 1_555 1_555
C8_8 C1_8 1_555 1_555
N13_5 C2_8 1_555 1_555
H5_8 C8_8 1_555 1_555
C9_8 C6_8 1_555 1_555
H6_8 C9_8 1_555 1_555
N9_8 C7_8 1_555 1_555
Zn5 N9_8 1_555 1_555
N10_8 Zn5 1_555 1_555
O7_8 N12_8 1_555 1_555
C11_8 C10_8 1_555 1_555
H8_8 C11_8 1_555 1_555
N15_6 C11_8 1_555 1_555
O8_8 N12_8 1_555 1_555
C12_8 N10_8 1_555 1_555
N12_8 C12_8 1_555 1_555
N13_6 Zn5 1_555 1_555
C3_8 N3_8 1_555 1_555
N14_4 C5_8 1_555 1_555
C6_8 N6_8 1_555 1_555
C8_8 N13_5 1_555 1_555
C9_8 N9_8 1_555 1_555
C10_8 N10_8 1_555 1_555
N15_6 C12_8 1_555 1_555
O1_9 N2_9 1_555 1_555
O4_9 N7_9 1_555 1_555
O5_9 N2_9 1_555 1_555
O6_9 N7_9 1_555 1_555
C1_9 H1_9 1_555 1_555
N1_9 C1_9 1_555 1_555
Zn4 N1_9 1_555 1_555
C2_9 N1_9 1_555 1_555
N3_9 Zn4 1_555 1_555
O2_9 N5_9 1_555 1_555
C4_9 C3_9 1_555 1_555
H3_9 C4_9 1_555 1_555
N14_5 C4_9 1_555 1_555
O3_9 N5_9 1_555 1_555
C5_9 N3_9 1_555 1_555
N5_9 C5_9 1_555 1_555
C6_9 H4_9 1_555 1_555
N6_9 Zn4 1_555 1_555
C7_9 N6_9 1_555 1_555
C8_9 C1_9 1_555 1_555
N13_6 C2_9 1_555 1_555
H5_9 C8_9 1_555 1_555
C9_9 C6_9 1_555 1_555
H6_9 C9_9 1_555 1_555
N9_9 C7_9 1_555 1_555
Zn5_2 N9_9 1_555 1_555
N10_9 Zn5_2 1_555 1_555
O7_9 N12_9 1_555 1_555
C11_9 C10_9 1_555 1_555
H8_9 C11_9 1_555 1_555
N15_4 C11_9 1_555 1_555
O8_9 N12_9 1_555 1_555
C12_9 N10_9 1_555 1_555
N12_9 C12_9 1_555 1_555
C3_9 N3_9 1_555 1_555
N14_5 C5_9 1_555 1_555
C6_9 N6_9 1_555 1_555
C8_9 N13_6 1_555 1_555
C9_9 N9_9 1_555 1_555
C10_9 N10_9 1_555 1_555
N15_4 C12_9 1_555 1_555

#END
