
###############################################################################
#
# This file contains modified crystal structure data generated from the
# MOF subset of the Cambridge Structural Database (CSD) v543 
# hosted by the Cambridge Crystallographic Data Centre (CCDC).
#
# This work is licensed under the Creative Commons
# Attribution-NonCommercial-ShareAlike 4.0 International License.
# To view a copy of this license, visit
# http://creativecommons.org/licenses/by-nc-sa/4.0/
# or send a letter to
# Creative Commons, PO Box 1866, Mountain View, CA 94042, USA.
#
# CIF created using the CSD Python API on 29 September 2022
# The structure has been converted into the P1 space group
# The structure has a 3D framework
# The original CSD entry ZERNUH is in the triclinic crystal system
# The framework has been calculated to contain at least 10.0% void space
# The void calculation uses a probe of radius 1.32A, grid spacing 0.4
#
###############################################################################

data_ZERNUH
_chemical_formula_moiety         '(C78 H54 Dy4 N6 O28)n'
_symmetry_cell_setting           triclinic
_symmetry_space_group_name_H-M   'P 1'
_symmetry_Int_Tables_number      1
_space_group_name_Hall           'P 1'
loop_
_symmetry_equiv_pos_site_id
_symmetry_equiv_pos_as_xyz
1 x,y,z
_cell_length_a                   12.825(9)
_cell_length_b                   13.672(10)
_cell_length_c                   14.227(10)
_cell_angle_alpha                66.182(6)
_cell_angle_beta                 66.800(6)
_cell_angle_gamma                77.064(6)
_cell_volume                     2091.37
loop_
_atom_site_label
_atom_site_type_symbol
_atom_site_fract_x
_atom_site_fract_y
_atom_site_fract_z
O7 O 0.3004(3) 0.3597(3) 0.3094(3)
O8 O 0.2784(3) 0.3601(4) 0.4725(3)
H14 H 0.0242 0.2635 0.2627
C22 C 0.0633(4) 0.3698(4) 0.3625(4)
H18 H 0.1085 0.3715 0.2922
C23 C 0.1135(4) 0.3680(4) 0.4347(4)
C24 C 0.0417(5) 0.3698(5) 0.5376(5)
H19 H 0.0743 0.3706 0.5852
C26 C 0.2397(4) 0.3620(4) 0.4038(4)
H22 H 0.0447 0.4590 0.8889
C31 C 0.0313(6) 0.3420(7) 0.8429(6)
H23 H 0.1083 0.3195 0.8218
Dy4 Dy 0.428614(19) 0.381494(19) 0.511490(19)
Dy7 Dy 0.43190(2) 0.32041(2) 0.16495(2)
O3 O 0.3789(4) 0.1372(3) 0.2650(4)
O4 O 0.2588(3) 0.2467(3) 0.1876(3)
N1 N 0.3146(5) 0.0677(4) 0.5678(5)
C5 C 0.2611(5) 0.0692(5) 0.5023(5)
H8 H 0.2206 0.1325 0.4738
C11 C 0.1356(5) 0.0688(5) 0.2481(5)
H13 H 0.1400 0.1230 0.1811
C12 C 0.2041(5) 0.0692(5) 0.3041(5)
C13 C 0.2854(5) 0.1557(5) 0.2495(5)
O10 O 0.6118(3) 0.3599(3) 0.0226(3)
Dy1 Dy 0.571386(19) 0.618506(19) 0.488510(19)
Dy2 Dy 0.56810(2) 0.67959(2) 0.83505(2)
O1 O 0.4744(3) 0.7138(3) 0.5965(3)
O2 O 0.4517(3) 0.7723(3) 0.7293(3)
O5 O 0.7438(3) 0.5617(3) 0.3650(4)
O6 O 0.6087(3) 0.4533(3) 0.4389(3)
O9 O 0.6438(3) 0.5327(3) 0.9495(3)
O11 O 0.5689(4) 0.4682(3) 0.6473(3)
O12 O 0.5076(3) 0.3237(3) 0.6518(3)
O13 O 0.6307(4) 0.7907(3) 0.3660(3)
H1 H 0.6476 0.8337 0.3866
H2 H 0.6342 0.8332 0.3617
O14 O 0.5024(3) 0.5308(3) 0.8292(3)
H3 H 0.5226 0.5119 0.7741
H4 H 0.4587 0.5118 0.8956
O15 O 0.5242(4) 0.7601(5) 0.9711(4)
H5 H 0.4799 0.7209 0.9732
H6 H 0.5515 0.8084 0.9551
N2 N 0.9289(4) 0.3705(4) 0.5714(4)
N3 N 0.6878(5) 0.1210(4) 0.8546(5)
C1 C 0.4389(4) 0.7826(4) 0.6427(4)
C2 C 0.3747(5) 0.8829(4) 0.5910(5)
C3 C 0.3216(5) 0.8869(5) 0.5213(5)
H7 H 0.3250 0.8265 0.5053
C4 C 0.2625(5) 0.9830(5) 0.4749(5)
C6 C 0.3691(5) 0.9751(5) 0.6115(5)
H9 H 0.4050 0.9724 0.6580
C7 C 0.1979(5) 0.9887(5) 0.4049(5)
C8 C 0.1228(6) 0.9093(5) 0.4460(6)
H10 H 0.1179 0.8545 0.5126
C9 C 0.0561(5) 0.9108(5) 0.3896(6)
H11 H 0.0062 0.8576 0.4191
C10 C 0.0624(5) 0.9906(5) 0.2894(6)
H12 H 0.0178 0.9910 0.2511
C14 C 0.7097(4) 0.4776(4) 0.3772(4)
C15 C 0.7845(4) 0.4040(4) 0.3180(4)
C16 C 0.8929(4) 0.3594(4) 0.3233(4)
C17 C 0.9530(5) 0.2957(5) 0.2595(5)
C18 C 0.9109(5) 0.2787(6) 0.1917(5)
H15 H 0.9540 0.2366 0.1499
C19 C 0.8052(5) 0.3242(5) 0.1861(5)
H16 H 0.7760 0.3127 0.1414
C20 C 0.7430(5) 0.3875(5) 0.2486(5)
H17 H 0.6723 0.4197 0.2441
C21 C 0.9451(4) 0.3688(4) 0.3961(4)
C25 C 0.8839(5) 0.3680(5) 0.5015(5)
H20 H 0.8055 0.3657 0.5257
C27 C 0.6754(5) 0.4349(5) 0.9629(4)
C28 C 0.7993(5) 0.4057(5) 0.9106(5)
C29 C 0.8787(5) 0.4565(5) 0.9165(5)
H21 H 0.8537 0.5127 0.9431
C30 C 0.9932(6) 0.4248(6) 0.8837(6)
C32 C 0.9540(5) 0.2927(6) 0.8336(5)
H24 H 0.9804 0.2384 0.8044
C33 C 0.8381(5) 0.3227(5) 0.8670(5)
C34 C 0.7605(5) 0.2751(5) 0.8443(5)
C35 C 0.7528(5) 0.1657(5) 0.8791(5)
H25 H 0.7952 0.1201 0.9224
C36 C 0.6277(5) 0.1871(5) 0.7907(5)
H26 H 0.5825 0.1574 0.7732
C37 C 0.6304(5) 0.2976(4) 0.7501(4)
C38 C 0.6979(4) 0.3418(5) 0.7769(4)
H27 H 0.7015 0.4157 0.7501
C39 C 0.5635(5) 0.3677(5) 0.6788(4)
O16 O 0.6211(4) 0.8628(3) 0.7350(4)
O17 O 0.7412(3) 0.7533(3) 0.8124(3)
O18 O 0.3913(3) 0.5467(3) 0.5611(3)
O19 O 0.6996(3) 0.6403(3) 0.6906(3)
O20 O 0.7216(3) 0.6399(4) 0.5275(3)
O21 O 0.3882(3) 0.6401(3) 0.9774(3)
O22 O 0.4924(3) 0.6763(3) 0.3482(3)
O1_2 O 0.5256(3) 0.2862(3) 0.4035(3)
O2_2 O 0.5483(3) 0.2277(3) 0.2707(3)
O5_2 O 0.2562(3) 0.4383(3) 0.6350(4)
O9_2 O 0.3562(3) 0.4673(3) 0.0505(3)
O11_2 O 0.4311(4) 0.5318(3) 0.3527(3)
O13_2 O 0.3693(4) 0.2093(3) 0.6340(3)
H1_2 H 0.3524 0.1663 0.6134
H2_2 H 0.3658 0.1668 0.6383
O14_2 O 0.4976(3) 0.4692(3) 0.1708(3)
H3_2 H 0.4774 0.4881 0.2259
H4_2 H 0.5413 0.4882 0.1044
O15_2 O 0.4758(4) 0.2399(5) 0.0289(4)
H5_2 H 0.5201 0.2791 0.0268
H6_2 H 0.4485 0.1916 0.0449
N2_2 N 0.0711(4) 0.6295(4) 0.4286(4)
N3_2 N 0.3122(5) 0.8790(4) 0.1454(5)
C1_2 C 0.5611(4) 0.2174(4) 0.3573(4)
C2_2 C 0.6253(5) 0.1171(4) 0.4090(5)
C3_2 C 0.6784(5) 0.1131(5) 0.4787(5)
H7_2 H 0.6750 0.1735 0.4947
C4_2 C 0.7375(5) 0.0170(5) 0.5251(5)
C6_2 C 0.6309(5) 0.0249(5) 0.3885(5)
H9_2 H 0.5950 0.0276 0.3420
C7_2 C 0.8021(5) 0.0113(5) 0.5951(5)
C8_2 C 0.8772(6) 0.0907(5) 0.5540(6)
H10_2 H 0.8821 0.1455 0.4874
C9_2 C 0.9439(5) 0.0892(5) 0.6104(6)
H11_2 H 0.9938 0.1424 0.5809
C10_2 C 0.9376(5) 0.0094(5) 0.7106(6)
H12_2 H 0.9822 0.0090 0.7489
C14_2 C 0.2903(4) 0.5224(4) 0.6228(4)
C15_2 C 0.2155(4) 0.5960(4) 0.6820(4)
C16_2 C 0.1071(4) 0.6406(4) 0.6767(4)
C17_2 C 0.0470(5) 0.7043(5) 0.7405(5)
C18_2 C 0.0891(5) 0.7213(6) 0.8083(5)
H15_2 H 0.0460 0.7634 0.8501
C19_2 C 0.1948(5) 0.6758(5) 0.8139(5)
H16_2 H 0.2240 0.6873 0.8586
C20_2 C 0.2570(5) 0.6125(5) 0.7514(5)
H17_2 H 0.3277 0.5803 0.7559
C21_2 C 0.0549(4) 0.6312(4) 0.6039(4)
C25_2 C 0.1161(5) 0.6320(5) 0.4985(5)
H20_2 H 0.1945 0.6343 0.4743
C27_2 C 0.3246(5) 0.5651(5) 0.0371(4)
C28_2 C 0.2007(5) 0.5943(5) 0.0894(5)
C29_2 C 0.1213(5) 0.5435(5) 0.0835(5)
H21_2 H 0.1463 0.4873 0.0569
C30_2 C 0.0068(6) 0.5752(6) 0.1163(6)
C32_2 C 0.0460(5) 0.7073(6) 0.1664(5)
H24_2 H 0.0196 0.7616 0.1956
C33_2 C 0.1619(5) 0.6773(5) 0.1330(5)
C34_2 C 0.2395(5) 0.7249(5) 0.1557(5)
C35_2 C 0.2472(5) 0.8343(5) 0.1209(5)
H25_2 H 0.2048 0.8799 0.0776
C36_2 C 0.3723(5) 0.8129(5) 0.2093(5)
H26_2 H 0.4175 0.8426 0.2268
C37_2 C 0.3696(5) 0.7024(4) 0.2499(4)
C38_2 C 0.3021(4) 0.6582(5) 0.2231(4)
H27_2 H 0.2985 0.5843 0.2499
C39_2 C 0.4365(5) 0.6323(5) 0.3212(4)
N1_2 N 0.6854(5) 0.9323(4) 0.4322(5)
C5_2 C 0.7389(5) 0.9308(5) 0.4977(5)
H8_2 H 0.7794 0.8675 0.5262
C11_2 C 0.8644(5) 0.9312(5) 0.7519(5)
H13_2 H 0.8600 0.8770 0.8189
C12_2 C 0.7959(5) 0.9308(5) 0.6959(5)
C13_2 C 0.7146(5) 0.8443(5) 0.7505(5)
H14_2 H 0.9758 0.7365 0.7373
C22_2 C 0.9367(4) 0.6302(4) 0.6375(4)
H18_2 H 0.8915 0.6285 0.7078
C23_2 C 0.8865(4) 0.6320(4) 0.5653(4)
C24_2 C 0.9583(5) 0.6302(5) 0.4624(5)
H19_2 H 0.9257 0.6294 0.4148
C26_2 C 0.7603(4) 0.6380(4) 0.5962(4)
H22_2 H 0.9553 0.5410 0.1111
C31_2 C 0.9687(6) 0.6580(7) 0.1571(6)
H23_2 H 0.8917 0.6805 0.1782
loop_
_geom_bond_atom_site_label_1
_geom_bond_atom_site_label_2
_geom_bond_site_symmetry_1
_geom_bond_site_symmetry_2
O7 C26 1_555 1_555
O8 C26 1_555 1_555
H18 C22 1_555 1_555
C23 C22 1_555 1_555
C24 C23 1_555 1_555
H19 C24 1_555 1_555
C26 C23 1_555 1_555
H23 C31 1_555 1_555
Dy4 O8 1_555 1_555
Dy7 O7 1_555 1_555
O3 C13 1_555 1_555
O4 C13 1_555 1_555
N1 C5 1_555 1_555
H8 C5 1_555 1_555
H13 C11 1_555 1_555
C13 C12 1_555 1_555
Dy7 O3 1_555 1_555
O4 Dy7 1_555 1_555
C11 C12 1_555 1_555
Dy7 O10 1_555 1_555
Dy1 O1 1_555 1_555
Dy2 O2 1_555 1_555
O1 C1 1_555 1_555
O2 C1 1_555 1_555
O5 Dy1 1_555 1_555
O6 Dy1 1_555 1_555
O9 Dy2 1_555 1_555
O11 Dy1 1_555 1_555
O12 C39 1_555 1_555
O13 Dy1 1_555 1_555
H1 O13 1_555 1_555
H2 O13 1_555 1_555
O14 Dy2 1_555 1_555
H3 O14 1_555 1_555
H4 O14 1_555 1_555
O15 Dy2 1_555 1_555
H5 O15 1_555 1_555
H6 O15 1_555 1_555
N3 C35 1_555 1_555
C1 C2 1_555 1_555
C2 C3 1_555 1_555
C3 H7 1_555 1_555
C4 C3 1_555 1_555
H9 C6 1_555 1_555
C7 C4 1_555 1_555
C8 C7 1_555 1_555
H10 C8 1_555 1_555
C9 C8 1_555 1_555
H11 C9 1_555 1_555
C10 C9 1_555 1_555
H12 C10 1_555 1_555
C14 O5 1_555 1_555
C15 C14 1_555 1_555
C16 C15 1_555 1_555
C17 C16 1_555 1_555
C18 C17 1_555 1_555
H15 C18 1_555 1_555
C19 C18 1_555 1_555
H16 C19 1_555 1_555
C20 C15 1_555 1_555
H17 C20 1_555 1_555
C21 C16 1_555 1_555
C25 N2 1_555 1_555
H20 C25 1_555 1_555
C27 O9 1_555 1_555
C28 C27 1_555 1_555
C29 C28 1_555 1_555
H21 C29 1_555 1_555
C30 C29 1_555 1_555
H24 C32 1_555 1_555
C33 C28 1_555 1_555
C34 C33 1_555 1_555
C35 C34 1_555 1_555
H25 C35 1_555 1_555
C36 N3 1_555 1_555
H26 C36 1_555 1_555
C37 C36 1_555 1_555
C38 C34 1_555 1_555
H27 C38 1_555 1_555
C39 O11 1_555 1_555
Dy4 O6 1_555 1_555
O16 Dy2 1_555 1_555
O17 Dy2 1_555 1_555
O18 Dy1 1_555 1_555
O19 Dy2 1_555 1_555
O20 Dy1 1_555 1_555
O21 Dy2 1_555 1_555
O22 Dy1 1_555 1_555
O6 C14 1_555 1_555
O12 Dy4 1_555 1_555
C2 C6 1_555 1_555
C19 C20 1_555 1_555
C21 C25 1_555 1_555
C32 C33 1_555 1_555
C37 C38 1_555 1_555
C37 C39 1_555 1_555
Dy4 O18 1_555 1_555
Dy4 O1_2 1_555 1_555
Dy7 O2_2 1_555 1_555
O1_2 C1_2 1_555 1_555
O2_2 C1_2 1_555 1_555
O5_2 Dy4 1_555 1_555
O9_2 Dy7 1_555 1_555
O11_2 Dy4 1_555 1_555
O22 C39_2 1_555 1_555
O13_2 Dy4 1_555 1_555
H1_2 O13_2 1_555 1_555
H2_2 O13_2 1_555 1_555
O14_2 Dy7 1_555 1_555
H3_2 O14_2 1_555 1_555
H4_2 O14_2 1_555 1_555
O15_2 Dy7 1_555 1_555
H5_2 O15_2 1_555 1_555
H6_2 O15_2 1_555 1_555
N3_2 C35_2 1_555 1_555
C1_2 C2_2 1_555 1_555
C2_2 C3_2 1_555 1_555
C3_2 H7_2 1_555 1_555
C4_2 C3_2 1_555 1_555
H9_2 C6_2 1_555 1_555
C7_2 C4_2 1_555 1_555
C8_2 C7_2 1_555 1_555
H10_2 C8_2 1_555 1_555
C9_2 C8_2 1_555 1_555
H11_2 C9_2 1_555 1_555
C10_2 C9_2 1_555 1_555
H12_2 C10_2 1_555 1_555
C14_2 O5_2 1_555 1_555
C15_2 C14_2 1_555 1_555
C16_2 C15_2 1_555 1_555
C17_2 C16_2 1_555 1_555
C18_2 C17_2 1_555 1_555
H15_2 C18_2 1_555 1_555
C19_2 C18_2 1_555 1_555
H16_2 C19_2 1_555 1_555
C20_2 C15_2 1_555 1_555
H17_2 C20_2 1_555 1_555
C21_2 C16_2 1_555 1_555
C25_2 N2_2 1_555 1_555
H20_2 C25_2 1_555 1_555
C27_2 O9_2 1_555 1_555
C28_2 C27_2 1_555 1_555
C29_2 C28_2 1_555 1_555
H21_2 C29_2 1_555 1_555
C30_2 C29_2 1_555 1_555
H24_2 C32_2 1_555 1_555
C33_2 C28_2 1_555 1_555
C34_2 C33_2 1_555 1_555
C35_2 C34_2 1_555 1_555
H25_2 C35_2 1_555 1_555
C36_2 N3_2 1_555 1_555
H26_2 C36_2 1_555 1_555
C37_2 C36_2 1_555 1_555
C38_2 C34_2 1_555 1_555
H27_2 C38_2 1_555 1_555
C39_2 O11_2 1_555 1_555
O18 C14_2 1_555 1_555
C2_2 C6_2 1_555 1_555
C19_2 C20_2 1_555 1_555
C21_2 C25_2 1_555 1_555
C32_2 C33_2 1_555 1_555
C37_2 C38_2 1_555 1_555
C37_2 C39_2 1_555 1_555
O16 C13_2 1_555 1_555
O17 C13_2 1_555 1_555
N1_2 C5_2 1_555 1_555
H8_2 C5_2 1_555 1_555
H13_2 C11_2 1_555 1_555
C13_2 C12_2 1_555 1_555
C11_2 C12_2 1_555 1_555
O19 C26_2 1_555 1_555
O20 C26_2 1_555 1_555
H18_2 C22_2 1_555 1_555
C23_2 C22_2 1_555 1_555
C24_2 C23_2 1_555 1_555
H19_2 C24_2 1_555 1_555
C26_2 C23_2 1_555 1_555
H23_2 C31_2 1_555 1_555

#END
