
###############################################################################
#
# This file contains modified crystal structure data generated from the
# MOF subset of the Cambridge Structural Database (CSD) v543 
# hosted by the Cambridge Crystallographic Data Centre (CCDC).
#
# This work is licensed under the Creative Commons
# Attribution-NonCommercial-ShareAlike 4.0 International License.
# To view a copy of this license, visit
# http://creativecommons.org/licenses/by-nc-sa/4.0/
# or send a letter to
# Creative Commons, PO Box 1866, Mountain View, CA 94042, USA.
#
# CIF created using the CSD Python API on 29 September 2022
# The structure has been converted into the P1 space group
# The structure has a 3D framework
# The original CSD entry ZERNIV is in the triclinic crystal system
# The framework has been calculated to contain at least 10.0% void space
# The void calculation uses a probe of radius 1.32A, grid spacing 0.4
#
###############################################################################

data_ZERNIV
_chemical_formula_moiety         '(C78 H54 N6 O28 Tb4)n'
_symmetry_cell_setting           triclinic
_symmetry_space_group_name_H-M   'P 1'
_symmetry_Int_Tables_number      1
_space_group_name_Hall           'P 1'
loop_
_symmetry_equiv_pos_site_id
_symmetry_equiv_pos_as_xyz
1 x,y,z
_cell_length_a                   12.788(2)
_cell_length_b                   13.670(2)
_cell_length_c                   14.211(2)
_cell_angle_alpha                66.1690(10)
_cell_angle_beta                 66.9470(10)
_cell_angle_gamma                77.0190(10)
_cell_volume                     2084.46
loop_
_atom_site_label
_atom_site_type_symbol
_atom_site_fract_x
_atom_site_fract_y
_atom_site_fract_z
H22 H 0.0455 0.9560 0.3896
C31 C 0.0306(5) 0.8415(6) 0.3419(5)
H23 H 0.1078 0.8194 0.3200
O6 O 0.3902(3) 0.0473(3) 0.0607(3)
C14 C 0.2896(4) 0.0231(4) 0.1227(4)
C15 C 0.2154(4) 0.0959(4) 0.1823(3)
C16 C 0.2567(4) 0.1121(4) 0.2512(4)
H14 H 0.3279 0.0805 0.2553
C17 C 0.1940(4) 0.1743(4) 0.3135(4)
H15 H 0.2228 0.1846 0.3593
C18 C 0.0897(4) 0.2206(4) 0.3076(4)
H16 H 0.0473 0.2634 0.3489
C19 C 0.0467(4) 0.2039(4) 0.2401(4)
C20 C 0.1069(4) 0.1413(4) 0.1768(4)
C21 C 0.0547(4) 0.1313(3) 0.1040(4)
O10 O 0.6445(3) 0.0316(3) 0.4492(3)
H4 H 0.5301 0.0087 0.6076
N2 N 0.0716(3) 0.1297(4) 0.9293(3)
C22 C 0.1162(4) 0.1311(4) 0.9994(4)
H18 H 0.1949 0.1320 0.9760
H21 H 0.8532 0.0119 0.4424
Tb6 Tb 0.571488(16) 0.118654(16) 0.988568(16)
Tb9 Tb 0.568285(17) 0.179783(17) 0.335156(16)
O22 O 0.4324(3) 0.0322(3) 0.8511(3)
Tb1 Tb 0.428512(16) 0.881346(16) 0.011432(16)
O3 O 0.7418(3) 0.2541(3) 0.3114(3)
O4 O 0.6215(3) 0.3633(3) 0.2345(3)
O5 O 0.2567(3) 0.9390(3) 0.1350(3)
O13 O 0.3684(3) 0.7080(3) 0.1345(3)
H1 H 0.3470 0.6746 0.1066
H2 H 0.4108 0.7435 0.1402
C4 C 0.7374(4) 0.5174(4) 0.0245(4)
H8 H 0.7771 0.3675 0.0278
C7 C 0.8024(4) 0.5122(4) 0.0946(4)
C8 C 0.8772(5) 0.5909(4) 0.0538(5)
C9 C 0.9438(5) 0.5899(4) 0.1098(5)
H11 H 0.9929 0.6437 0.0807
C10 C 0.9386(5) 0.5107(4) 0.2079(5)
H12 H 0.9841 0.5102 0.2456
C11 C 0.8652(4) 0.4313(4) 0.2507(4)
H13 H 0.8620 0.3768 0.3172
C12 C 0.7959(4) 0.4318(4) 0.1954(4)
C13 C 0.7149(4) 0.3451(4) 0.2495(4)
O23 O 0.5065(3) 0.8246(3) 0.1528(3)
Tb2 Tb 0.431715(17) 0.820217(17) 0.664844(16)
O1 O 0.5259(3) 0.7848(3) 0.9033(3)
O2 O 0.5486(3) 0.7274(2) 0.7705(3)
O9 O 0.6127(3) 0.8592(3) 0.5220(3)
O11 O 0.5676(3) 0.9678(3) 0.1489(3)
O14 O 0.4984(3) 0.9680(3) 0.6710(3)
H3 H 0.4856 0.9889 0.7235
O15 O 0.4755(4) 0.7398(4) 0.5294(3)
H5 H 0.4460 0.6943 0.5228
H6 H 0.5204 0.7788 0.5270
N1 N 0.6859(4) 0.4328(3) 0.9315(4)
N3 N 0.6876(4) 0.6213(3) 0.3546(4)
C1 C 0.5609(4) 0.7175(4) 0.8575(4)
C2 C 0.6256(4) 0.6168(4) 0.9089(4)
C3 C 0.6776(4) 0.6126(4) 0.9795(4)
H7 H 0.6728 0.6726 0.9969
C5 C 0.7379(4) 0.4314(4) 0.9978(4)
C6 C 0.6308(4) 0.5257(4) 0.8879(4)
H9 H 0.5945 0.5287 0.8414
H10 H 0.8822 0.6454 0.9869
C27 C 0.6762(4) 0.9338(4) 0.4625(3)
C28 C 0.8003(4) 0.9044(4) 0.4102(4)
C29 C 0.8783(4) 0.9555(5) 0.4162(4)
C30 C 0.9935(5) 0.9229(5) 0.3835(5)
C32 C 0.9543(4) 0.7924(5) 0.3325(4)
H24 H 0.9807 0.7384 0.3028
C33 C 0.8377(4) 0.8225(4) 0.3668(4)
C34 C 0.7606(4) 0.7754(4) 0.3432(4)
C35 C 0.7526(4) 0.6654(4) 0.3790(4)
H25 H 0.7951 0.6197 0.4226
C36 C 0.6280(4) 0.6864(4) 0.2909(4)
H26 H 0.5832 0.6565 0.2729
C37 C 0.6303(4) 0.7972(4) 0.2504(4)
C38 C 0.6977(4) 0.8418(4) 0.2766(3)
H27 H 0.7008 0.9158 0.2499
C39 C 0.5627(4) 0.8677(4) 0.1790(3)
O16 O 0.2582(3) 0.7459(3) 0.6886(3)
O17 O 0.3785(3) 0.6367(3) 0.7655(3)
O18 O 0.6098(3) 0.9527(3) 0.9393(3)
O19 O 0.2777(3) 0.8599(3) 0.9723(3)
O20 O 0.2994(3) 0.8596(3) 0.8103(3)
O21 O 0.3555(3) 0.9684(3) 0.5508(3)
O7 O 0.7223(3) 0.1401(3) 0.0277(3)
O8 O 0.7006(3) 0.1404(3) 0.1897(3)
H17 H 0.9751 0.2357 0.2372
C24 C 0.8870(4) 0.1322(4) 0.0653(4)
C25 C 0.9370(4) 0.1309(3) 0.1373(4)
H20 H 0.8917 0.1299 0.2072
C26 C 0.7607(4) 0.1373(3) 0.0969(3)
C23 C 0.9584(4) 0.1301(4) 0.9632(4)
H19 H 0.9256 0.1289 0.9158
C23_2 C 0.0416(4) 0.8699(4) 0.0368(4)
H19_2 H 0.0744 0.8711 0.0842
H17_2 H 0.0249 0.7643 0.7628
C24_2 C 0.1130(4) 0.8678(4) 0.9347(4)
C25_2 C 0.0630(4) 0.8691(3) 0.8627(4)
H20_2 H 0.1083 0.8701 0.7928
C26_2 C 0.2393(4) 0.8627(3) 0.9031(3)
O1_2 O 0.4741(3) 0.2152(3) 0.0967(3)
O2_2 O 0.4514(3) 0.2726(2) 0.2295(3)
O9_2 O 0.3873(3) 0.1408(3) 0.4780(3)
O12 O 0.4935(3) 0.1754(3) 0.8472(3)
O14_2 O 0.5016(3) 0.0320(3) 0.3290(3)
H3_2 H 0.5144 0.0111 0.2765
O15_2 O 0.5245(4) 0.2602(4) 0.4706(3)
H5_2 H 0.5540 0.3057 0.4772
H6_2 H 0.4796 0.2212 0.4730
N1_2 N 0.3141(4) 0.5672(3) 0.0685(4)
N3_2 N 0.3124(4) 0.3787(3) 0.6454(4)
C1_2 C 0.4391(4) 0.2825(4) 0.1425(4)
C2_2 C 0.3744(4) 0.3832(4) 0.0911(4)
C3_2 C 0.3224(4) 0.3874(4) 0.0205(4)
H7_2 H 0.3272 0.3274 0.0031
C5_2 C 0.2621(4) 0.5686(4) 0.0022(4)
C6_2 C 0.3692(4) 0.4743(4) 0.1121(4)
H9_2 H 0.4055 0.4713 0.1586
H10_2 H 0.1178 0.3546 0.0131
C27_2 C 0.3238(4) 0.0662(4) 0.5375(3)
C28_2 C 0.1997(4) 0.0956(4) 0.5898(4)
C29_2 C 0.1217(4) 0.0445(5) 0.5838(4)
C30_2 C 0.0065(5) 0.0771(5) 0.6165(5)
C32_2 C 0.0457(4) 0.2076(5) 0.6675(4)
H24_2 H 0.0193 0.2616 0.6972
C33_2 C 0.1623(4) 0.1775(4) 0.6332(4)
C34_2 C 0.2394(4) 0.2246(4) 0.6568(4)
C35_2 C 0.2474(4) 0.3346(4) 0.6210(4)
H25_2 H 0.2049 0.3803 0.5774
C36_2 C 0.3720(4) 0.3136(4) 0.7091(4)
H26_2 H 0.4168 0.3435 0.7271
C37_2 C 0.3697(4) 0.2028(4) 0.7496(4)
C38_2 C 0.3023(4) 0.1582(4) 0.7234(3)
H27_2 H 0.2992 0.0842 0.7501
C39_2 C 0.4373(4) 0.1323(4) 0.8210(3)
O5_2 O 0.7433(3) 0.0610(3) 0.8650(3)
O13_2 O 0.6316(3) 0.2920(3) 0.8655(3)
H1_2 H 0.6530 0.3254 0.8934
H2_2 H 0.5892 0.2565 0.8598
C4_2 C 0.2626(4) 0.4826(4) 0.9755(4)
H8_2 H 0.2229 0.6325 0.9722
C7_2 C 0.1976(4) 0.4878(4) 0.9054(4)
C8_2 C 0.1228(5) 0.4091(4) 0.9462(5)
C9_2 C 0.0562(5) 0.4101(4) 0.8902(5)
H11_2 H 0.0071 0.3563 0.9193
C10_2 C 0.0614(5) 0.4893(4) 0.7921(5)
H12_2 H 0.0159 0.4898 0.7544
C11_2 C 0.1348(4) 0.5687(4) 0.7493(4)
H13_2 H 0.1380 0.6232 0.6828
C12_2 C 0.2041(4) 0.5682(4) 0.8046(4)
C13_2 C 0.2851(4) 0.6549(4) 0.7505(4)
H4_2 H 0.4699 0.9913 0.3924
N2_2 N 0.9284(3) 0.8703(4) 0.0707(3)
C22_2 C 0.8838(4) 0.8689(4) 0.0006(4)
H18_2 H 0.8051 0.8680 0.0240
H21_2 H 0.1468 0.9881 0.5576
C14_2 C 0.7104(4) 0.9769(4) 0.8773(4)
C15_2 C 0.7846(4) 0.9041(4) 0.8177(3)
C16_2 C 0.7433(4) 0.8879(4) 0.7488(4)
H14_2 H 0.6721 0.9195 0.7447
C17_2 C 0.8060(4) 0.8257(4) 0.6865(4)
H15_2 H 0.7772 0.8154 0.6407
C18_2 C 0.9103(4) 0.7794(4) 0.6924(4)
H16_2 H 0.9527 0.7366 0.6511
C19_2 C 0.9533(4) 0.7961(4) 0.7599(4)
C20_2 C 0.8931(4) 0.8587(4) 0.8232(4)
C21_2 C 0.9453(4) 0.8687(3) 0.8960(4)
H22_2 H 0.9545 0.0440 0.6104
C31_2 C 0.9694(5) 0.1585(6) 0.6581(5)
H23_2 H 0.8922 0.1806 0.6800
loop_
_geom_bond_atom_site_label_1
_geom_bond_atom_site_label_2
_geom_bond_site_symmetry_1
_geom_bond_site_symmetry_2
H23 C31 1_555 1_555
C15 C14 1_555 1_555
C16 C15 1_555 1_555
H14 C16 1_555 1_555
C17 C16 1_555 1_555
H15 C17 1_555 1_555
C18 C17 1_555 1_555
H16 C18 1_555 1_555
C19 C18 1_555 1_555
C20 C15 1_555 1_555
C21 C20 1_555 1_555
O6 C14 1_555 1_555
C19 C20 1_555 1_555
N2 C22 1_555 1_555
H18 C22 1_555 1_555
Tb9 O10 1_555 1_555
O3 C13 1_555 1_555
O4 C13 1_555 1_555
O5 Tb1 1_555 1_555
O13 Tb1 1_555 1_555
H1 O13 1_555 1_555
H2 O13 1_555 1_555
C7 C4 1_555 1_555
C8 C7 1_555 1_555
C9 C8 1_555 1_555
H11 C9 1_555 1_555
C10 C9 1_555 1_555
H12 C10 1_555 1_555
C11 C10 1_555 1_555
H13 C11 1_555 1_555
C12 C7 1_555 1_555
C13 C12 1_555 1_555
Tb9 O3 1_555 1_555
O23 Tb1 1_555 1_555
O4 Tb9 1_555 1_555
C11 C12 1_555 1_555
Tb2 O2 1_555 1_555
O1 C1 1_555 1_555
O2 C1 1_555 1_555
O9 Tb2 1_555 1_555
O11 C39 1_555 1_555
O23 C39 1_555 1_555
O14 Tb2 1_555 1_555
H3 O14 1_555 1_555
O15 Tb2 1_555 1_555
H5 O15 1_555 1_555
H6 O15 1_555 1_555
N1 C5 1_555 1_555
N3 C35 1_555 1_555
C1 C2 1_555 1_555
C2 C3 1_555 1_555
C3 H7 1_555 1_555
C6 N1 1_555 1_555
H9 C6 1_555 1_555
C27 O9 1_555 1_555
C28 C27 1_555 1_555
C29 C28 1_555 1_555
C30 C29 1_555 1_555
H24 C32 1_555 1_555
C33 C28 1_555 1_555
C34 C33 1_555 1_555
C35 C34 1_555 1_555
H25 C35 1_555 1_555
C36 N3 1_555 1_555
H26 C36 1_555 1_555
C37 C36 1_555 1_555
C38 C34 1_555 1_555
H27 C38 1_555 1_555
C39 C37 1_555 1_555
O16 Tb2 1_555 1_555
O17 Tb2 1_555 1_555
O20 Tb2 1_555 1_555
O21 Tb2 1_555 1_555
C2 C6 1_555 1_555
C32 C33 1_555 1_555
C37 C38 1_555 1_555
O7 C26 1_555 1_555
O8 C26 1_555 1_555
H20 C25 1_555 1_555
C26 C24 1_555 1_555
Tb9 O8 1_555 1_555
C24 C25 1_555 1_555
H19 C23 1_555 1_555
H19_2 C23_2 1_555 1_555
O19 C26_2 1_555 1_555
O20 C26_2 1_555 1_555
H20_2 C25_2 1_555 1_555
C26_2 C24_2 1_555 1_555
C24_2 C25_2 1_555 1_555
Tb9 O2_2 1_555 1_555
O1_2 C1_2 1_555 1_555
O2_2 C1_2 1_555 1_555
O9_2 Tb9 1_555 1_555
O22 C39_2 1_555 1_555
O12 C39_2 1_555 1_555
O14_2 Tb9 1_555 1_555
H3_2 O14_2 1_555 1_555
O15_2 Tb9 1_555 1_555
H5_2 O15_2 1_555 1_555
H6_2 O15_2 1_555 1_555
N1_2 C5_2 1_555 1_555
N3_2 C35_2 1_555 1_555
C1_2 C2_2 1_555 1_555
C2_2 C3_2 1_555 1_555
C3_2 H7_2 1_555 1_555
C6_2 N1_2 1_555 1_555
H9_2 C6_2 1_555 1_555
C27_2 O9_2 1_555 1_555
C28_2 C27_2 1_555 1_555
C29_2 C28_2 1_555 1_555
C30_2 C29_2 1_555 1_555
H24_2 C32_2 1_555 1_555
C33_2 C28_2 1_555 1_555
C34_2 C33_2 1_555 1_555
C35_2 C34_2 1_555 1_555
H25_2 C35_2 1_555 1_555
C36_2 N3_2 1_555 1_555
H26_2 C36_2 1_555 1_555
C37_2 C36_2 1_555 1_555
C38_2 C34_2 1_555 1_555
H27_2 C38_2 1_555 1_555
C39_2 C37_2 1_555 1_555
Tb6 O12 1_555 1_555
C2_2 C6_2 1_555 1_555
C32_2 C33_2 1_555 1_555
C37_2 C38_2 1_555 1_555
O16 C13_2 1_555 1_555
O17 C13_2 1_555 1_555
O5_2 Tb6 1_555 1_555
O13_2 Tb6 1_555 1_555
H1_2 O13_2 1_555 1_555
H2_2 O13_2 1_555 1_555
C7_2 C4_2 1_555 1_555
C8_2 C7_2 1_555 1_555
C9_2 C8_2 1_555 1_555
H11_2 C9_2 1_555 1_555
C10_2 C9_2 1_555 1_555
H12_2 C10_2 1_555 1_555
C11_2 C10_2 1_555 1_555
H13_2 C11_2 1_555 1_555
C12_2 C7_2 1_555 1_555
C13_2 C12_2 1_555 1_555
C11_2 C12_2 1_555 1_555
N2_2 C22_2 1_555 1_555
H18_2 C22_2 1_555 1_555
C15_2 C14_2 1_555 1_555
C16_2 C15_2 1_555 1_555
H14_2 C16_2 1_555 1_555
C17_2 C16_2 1_555 1_555
H15_2 C17_2 1_555 1_555
C18_2 C17_2 1_555 1_555
H16_2 C18_2 1_555 1_555
C19_2 C18_2 1_555 1_555
C20_2 C15_2 1_555 1_555
C21_2 C20_2 1_555 1_555
O18 C14_2 1_555 1_555
C19_2 C20_2 1_555 1_555
H23_2 C31_2 1_555 1_555

#END
