
###############################################################################
#
# This file contains modified crystal structure data generated from the
# MOF subset of the Cambridge Structural Database (CSD) v543 
# hosted by the Cambridge Crystallographic Data Centre (CCDC).
#
# This work is licensed under the Creative Commons
# Attribution-NonCommercial-ShareAlike 4.0 International License.
# To view a copy of this license, visit
# http://creativecommons.org/licenses/by-nc-sa/4.0/
# or send a letter to
# Creative Commons, PO Box 1866, Mountain View, CA 94042, USA.
#
# CIF created using the CSD Python API on 29 September 2022
# The structure has been converted into the P1 space group
# The structure has a 3D framework
# The original CSD entry ZERNOB is in the triclinic crystal system
# The framework has been calculated to contain at least 10.0% void space
# The void calculation uses a probe of radius 1.32A, grid spacing 0.4
#
###############################################################################

data_ZERNOB
_chemical_formula_moiety         '(C78 H54 Ho4 N6 O28)n'
_symmetry_cell_setting           triclinic
_symmetry_space_group_name_H-M   'P 1'
_symmetry_Int_Tables_number      1
_space_group_name_Hall           'P 1'
loop_
_symmetry_equiv_pos_site_id
_symmetry_equiv_pos_as_xyz
1 x,y,z
_cell_length_a                   12.7551(18)
_cell_length_b                   13.617(2)
_cell_length_c                   14.137(2)
_cell_angle_alpha                66.2800(10)
_cell_angle_beta                 67.1400(10)
_cell_angle_gamma                77.1490(10)
_cell_volume                     2065.04
loop_
_atom_site_label
_atom_site_type_symbol
_atom_site_fract_x
_atom_site_fract_y
_atom_site_fract_z
H22 H 0.0463 0.9565 0.3908
C31 C 0.0307(4) 0.8424(5) 0.3430(5)
H23 H 0.1081 0.8206 0.3205
O5 O 0.3923(2) 0.0453(2) 0.0617(3)
C14 C 0.2913(3) 0.0216(3) 0.1231(3)
C15 C 0.2160(3) 0.0948(3) 0.1821(3)
C16 C 0.2575(4) 0.1107(4) 0.2512(3)
H14 H 0.3285 0.0783 0.2562
C17 C 0.1946(4) 0.1746(4) 0.3135(4)
H15 H 0.2237 0.1855 0.3591
C18 C 0.0897(4) 0.2212(4) 0.3075(4)
H16 H 0.0472 0.2638 0.3492
C19 C 0.0469(4) 0.2049(4) 0.2392(4)
C20 C 0.1079(3) 0.1408(3) 0.1757(3)
C21 C 0.0541(3) 0.1308(3) 0.1041(3)
O10 O 0.6428(3) 0.0335(2) 0.4496(3)
H3 H 0.5299 0.0139 0.6107
N2 N 0.0707(3) 0.1298(3) 0.9280(3)
C22 C 0.1161(4) 0.1304(4) 0.9990(4)
H18 H 0.1950 0.1306 0.9760
H21 H 0.8531 0.0132 0.4447
Ho6 Ho 0.571117(14) 0.118204(14) 0.988738(15)
Ho9 Ho 0.568010(15) 0.179199(15) 0.334864(15)
O22 O 0.4298(3) 0.0314(2) 0.8536(3)
Ho1 Ho 0.428883(14) 0.881796(14) 0.011262(15)
O3 O 0.6209(3) 0.3612(3) 0.2347(3)
O4 O 0.7414(3) 0.2520(2) 0.3130(3)
O6 O 0.2571(3) 0.9379(3) 0.1339(3)
O13 O 0.3698(3) 0.7095(2) 0.1335(3)
H1 H 0.3484 0.6760 0.1061
H2 H 0.4128 0.7450 0.1390
H8 H 0.7779 0.3670 0.0265
C5 C 0.7368(4) 0.5177(3) 0.0255(4)
C7 C 0.8019(4) 0.5116(4) 0.0956(4)
C8 C 0.8773(4) 0.5902(4) 0.0546(5)
C9 C 0.9441(4) 0.5890(4) 0.1115(5)
H11 H 0.9937 0.6427 0.0822
C10 C 0.9385(4) 0.5102(4) 0.2102(5)
H12 H 0.9835 0.5100 0.2486
C11 C 0.8641(4) 0.4297(4) 0.2529(4)
H13 H 0.8604 0.3753 0.3200
C12 C 0.7953(4) 0.4295(3) 0.1967(4)
C13 C 0.7155(4) 0.3437(4) 0.2503(4)
O23 O 0.5079(3) 0.8244(2) 0.1508(3)
Ho2 Ho 0.431990(15) 0.820801(15) 0.665136(15)
O1 O 0.5257(3) 0.7872(2) 0.9032(3)
O2 O 0.5474(2) 0.7293(2) 0.7706(2)
O9 O 0.6115(2) 0.8595(2) 0.5241(2)
O11 O 0.5702(3) 0.9686(2) 0.1464(3)
O14 O 0.4975(3) 0.9681(2) 0.6714(3)
H4 H 0.4738 0.9932 0.7233
O15 O 0.4773(4) 0.7398(4) 0.5293(3)
H5 H 0.4116 0.7419 0.5768
H6 H 0.5216 0.7793 0.5276
N1 N 0.6845(4) 0.4330(3) 0.9315(4)
N3 N 0.6879(4) 0.6203(3) 0.3557(4)
C1 C 0.5610(3) 0.7187(3) 0.8568(3)
C2 C 0.6251(4) 0.6176(3) 0.9091(4)
C3 C 0.6300(4) 0.5262(4) 0.8880(4)
H7 H 0.5936 0.5294 0.8411
C4 C 0.7378(4) 0.4309(4) 0.9975(4)
C6 C 0.6781(4) 0.6129(3) 0.9800(4)
H9 H 0.6744 0.6731 0.9970
H10 H 0.8826 0.6447 0.9873
C27 C 0.6743(4) 0.9351(4) 0.4642(3)
C28 C 0.7994(4) 0.9061(4) 0.4116(4)
C29 C 0.8778(4) 0.9568(4) 0.4181(4)
C30 C 0.9940(4) 0.9235(5) 0.3846(5)
C32 C 0.9541(4) 0.7927(5) 0.3340(4)
H24 H 0.9804 0.7380 0.3049
C33 C 0.8380(4) 0.8228(4) 0.3678(4)
C34 C 0.7605(4) 0.7749(4) 0.3442(4)
C35 C 0.7531(4) 0.6649(4) 0.3800(4)
H25 H 0.7960 0.6194 0.4234
C36 C 0.6286(4) 0.6868(4) 0.2906(4)
H26 H 0.5840 0.6570 0.2718
C37 C 0.6307(4) 0.7972(3) 0.2502(3)
C38 C 0.6985(3) 0.8418(3) 0.2765(3)
H27 H 0.7026 0.9159 0.2491
C39 C 0.5645(4) 0.8679(4) 0.1767(3)
O16 O 0.3791(3) 0.6388(3) 0.7653(3)
O17 O 0.2586(3) 0.7480(2) 0.6870(3)
O18 O 0.6077(2) 0.9547(2) 0.9383(3)
O19 O 0.3007(2) 0.8600(3) 0.8090(3)
O20 O 0.2801(2) 0.8586(3) 0.9722(3)
O21 O 0.3572(3) 0.9665(2) 0.5504(3)
O7 O 0.6993(2) 0.1400(3) 0.1910(3)
O8 O 0.7199(2) 0.1414(3) 0.0278(3)
H17 H 0.9757 0.2374 0.2355
C24 C 0.8862(3) 0.1326(3) 0.0651(3)
C25 C 0.9371(3) 0.1306(3) 0.1369(4)
H20 H 0.8921 0.1292 0.2072
C26 C 0.7592(3) 0.1374(3) 0.0975(3)
C23 C 0.9566(4) 0.1305(4) 0.9630(4)
H19 H 0.9230 0.1295 0.9156
C23_2 C 0.0434(4) 0.8695(4) 0.0370(4)
H19_2 H 0.0770 0.8705 0.0844
H17_2 H 0.0243 0.7626 0.7645
C24_2 C 0.1138(3) 0.8674(3) 0.9349(3)
C25_2 C 0.0629(3) 0.8694(3) 0.8631(4)
H20_2 H 0.1079 0.8708 0.7928
C26_2 C 0.2408(3) 0.8626(3) 0.9025(3)
O1_2 O 0.4743(3) 0.2128(2) 0.0968(3)
O2_2 O 0.4526(2) 0.2707(2) 0.2294(2)
O9_2 O 0.3885(2) 0.1405(2) 0.4759(2)
O12 O 0.4921(3) 0.1756(2) 0.8492(3)
O14_2 O 0.5025(3) 0.0319(2) 0.3286(3)
H4_2 H 0.5262 0.0068 0.2767
O15_2 O 0.5227(4) 0.2602(4) 0.4707(3)
H5_2 H 0.5884 0.2581 0.4232
H6_2 H 0.4784 0.2207 0.4724
N1_2 N 0.3155(4) 0.5670(3) 0.0685(4)
N3_2 N 0.3121(4) 0.3797(3) 0.6443(4)
C1_2 C 0.4390(3) 0.2813(3) 0.1432(3)
C2_2 C 0.3749(4) 0.3824(3) 0.0909(4)
C3_2 C 0.3700(4) 0.4738(4) 0.1120(4)
H7_2 H 0.4064 0.4706 0.1589
C4_2 C 0.2622(4) 0.5691(4) 0.0025(4)
C6_2 C 0.3219(4) 0.3871(3) 0.0200(4)
H9_2 H 0.3256 0.3269 0.0030
H10_2 H 0.1174 0.3553 0.0127
C27_2 C 0.3257(4) 0.0649(4) 0.5358(3)
C28_2 C 0.2006(4) 0.0939(4) 0.5884(4)
C29_2 C 0.1222(4) 0.0432(4) 0.5819(4)
C30_2 C 0.0060(4) 0.0765(5) 0.6154(5)
C32_2 C 0.0459(4) 0.2073(5) 0.6660(4)
H24_2 H 0.0196 0.2620 0.6951
C33_2 C 0.1620(4) 0.1772(4) 0.6322(4)
C34_2 C 0.2395(4) 0.2251(4) 0.6558(4)
C35_2 C 0.2469(4) 0.3351(4) 0.6200(4)
H25_2 H 0.2040 0.3806 0.5766
C36_2 C 0.3714(4) 0.3132(4) 0.7094(4)
H26_2 H 0.4160 0.3430 0.7282
C37_2 C 0.3693(4) 0.2028(3) 0.7498(3)
C38_2 C 0.3015(3) 0.1582(3) 0.7235(3)
H27_2 H 0.2974 0.0841 0.7509
C39_2 C 0.4355(4) 0.1321(4) 0.8233(3)
O6_2 O 0.7429(3) 0.0621(3) 0.8661(3)
O13_2 O 0.6302(3) 0.2905(2) 0.8665(3)
H1_2 H 0.6516 0.3240 0.8939
H2_2 H 0.5872 0.2550 0.8610
H8_2 H 0.2221 0.6330 0.9735
C5_2 C 0.2632(4) 0.4823(3) 0.9745(4)
C7_2 C 0.1981(4) 0.4884(4) 0.9044(4)
C8_2 C 0.1227(4) 0.4098(4) 0.9454(5)
C9_2 C 0.0559(4) 0.4110(4) 0.8885(5)
H11_2 H 0.0063 0.3573 0.9178
C10_2 C 0.0615(4) 0.4898(4) 0.7898(5)
H12_2 H 0.0165 0.4900 0.7514
C11_2 C 0.1359(4) 0.5703(4) 0.7471(4)
H13_2 H 0.1396 0.6247 0.6800
C12_2 C 0.2047(4) 0.5705(3) 0.8033(4)
C13_2 C 0.2845(4) 0.6563(4) 0.7497(4)
H3_2 H 0.4701 0.9861 0.3893
N2_2 N 0.9293(3) 0.8702(3) 0.0720(3)
C22_2 C 0.8839(4) 0.8696(4) 0.0010(4)
H18_2 H 0.8050 0.8694 0.0240
H21_2 H 0.1469 0.9868 0.5553
C14_2 C 0.7087(3) 0.9784(3) 0.8769(3)
C15_2 C 0.7840(3) 0.9052(3) 0.8179(3)
C16_2 C 0.7425(4) 0.8893(4) 0.7488(3)
H14_2 H 0.6715 0.9217 0.7438
C17_2 C 0.8054(4) 0.8254(4) 0.6865(4)
H15_2 H 0.7763 0.8145 0.6409
C18_2 C 0.9103(4) 0.7788(4) 0.6925(4)
H16_2 H 0.9528 0.7362 0.6508
C19_2 C 0.9531(4) 0.7951(4) 0.7608(4)
C20_2 C 0.8921(3) 0.8592(3) 0.8243(3)
C21_2 C 0.9459(3) 0.8692(3) 0.8959(3)
H22_2 H 0.9537 0.0435 0.6092
C31_2 C 0.9693(4) 0.1576(5) 0.6570(5)
H23_2 H 0.8919 0.1794 0.6795
loop_
_geom_bond_atom_site_label_1
_geom_bond_atom_site_label_2
_geom_bond_site_symmetry_1
_geom_bond_site_symmetry_2
H23 C31 1_555 1_555
C14 O5 1_555 1_555
C15 C14 1_555 1_555
C16 C15 1_555 1_555
H14 C16 1_555 1_555
C17 C16 1_555 1_555
H15 C17 1_555 1_555
C18 C17 1_555 1_555
H16 C18 1_555 1_555
C19 C18 1_555 1_555
C20 C15 1_555 1_555
C21 C20 1_555 1_555
C19 C20 1_555 1_555
N2 C22 1_555 1_555
H18 C22 1_555 1_555
Ho9 O10 1_555 1_555
O3 C13 1_555 1_555
O4 C13 1_555 1_555
O6 Ho1 1_555 1_555
O13 Ho1 1_555 1_555
H1 O13 1_555 1_555
H2 O13 1_555 1_555
C7 C5 1_555 1_555
C8 C7 1_555 1_555
C9 C8 1_555 1_555
H11 C9 1_555 1_555
C10 C9 1_555 1_555
H12 C10 1_555 1_555
C11 C10 1_555 1_555
H13 C11 1_555 1_555
C12 C7 1_555 1_555
C13 C12 1_555 1_555
Ho9 O3 1_555 1_555
O23 Ho1 1_555 1_555
O4 Ho9 1_555 1_555
C11 C12 1_555 1_555
Ho2 O2 1_555 1_555
O1 C1 1_555 1_555
O2 C1 1_555 1_555
O9 Ho2 1_555 1_555
O11 C39 1_555 1_555
O23 C39 1_555 1_555
O14 Ho2 1_555 1_555
H4 O14 1_555 1_555
O15 Ho2 1_555 1_555
H5 O15 1_555 1_555
H6 O15 1_555 1_555
N1 C3 1_555 1_555
N3 C35 1_555 1_555
C1 C2 1_555 1_555
C2 C3 1_555 1_555
C3 H7 1_555 1_555
C4 N1 1_555 1_555
C6 C2 1_555 1_555
H9 C6 1_555 1_555
C27 O9 1_555 1_555
C28 C27 1_555 1_555
C29 C28 1_555 1_555
C30 C29 1_555 1_555
H24 C32 1_555 1_555
C33 C28 1_555 1_555
C34 C33 1_555 1_555
C35 C34 1_555 1_555
H25 C35 1_555 1_555
C36 N3 1_555 1_555
H26 C36 1_555 1_555
C37 C36 1_555 1_555
C38 C34 1_555 1_555
H27 C38 1_555 1_555
C39 C37 1_555 1_555
O16 Ho2 1_555 1_555
O17 Ho2 1_555 1_555
O19 Ho2 1_555 1_555
O21 Ho2 1_555 1_555
C32 C33 1_555 1_555
C37 C38 1_555 1_555
O7 C26 1_555 1_555
O8 C26 1_555 1_555
H20 C25 1_555 1_555
C26 C24 1_555 1_555
Ho9 O7 1_555 1_555
C24 C25 1_555 1_555
H19 C23 1_555 1_555
H19_2 C23_2 1_555 1_555
O19 C26_2 1_555 1_555
O20 C26_2 1_555 1_555
H20_2 C25_2 1_555 1_555
C26_2 C24_2 1_555 1_555
C24_2 C25_2 1_555 1_555
Ho9 O2_2 1_555 1_555
O1_2 C1_2 1_555 1_555
O2_2 C1_2 1_555 1_555
O9_2 Ho9 1_555 1_555
O22 C39_2 1_555 1_555
O12 C39_2 1_555 1_555
O14_2 Ho9 1_555 1_555
H4_2 O14_2 1_555 1_555
O15_2 Ho9 1_555 1_555
H5_2 O15_2 1_555 1_555
H6_2 O15_2 1_555 1_555
N1_2 C3_2 1_555 1_555
N3_2 C35_2 1_555 1_555
C1_2 C2_2 1_555 1_555
C2_2 C3_2 1_555 1_555
C3_2 H7_2 1_555 1_555
C4_2 N1_2 1_555 1_555
C6_2 C2_2 1_555 1_555
H9_2 C6_2 1_555 1_555
C27_2 O9_2 1_555 1_555
C28_2 C27_2 1_555 1_555
C29_2 C28_2 1_555 1_555
C30_2 C29_2 1_555 1_555
H24_2 C32_2 1_555 1_555
C33_2 C28_2 1_555 1_555
C34_2 C33_2 1_555 1_555
C35_2 C34_2 1_555 1_555
H25_2 C35_2 1_555 1_555
C36_2 N3_2 1_555 1_555
H26_2 C36_2 1_555 1_555
C37_2 C36_2 1_555 1_555
C38_2 C34_2 1_555 1_555
H27_2 C38_2 1_555 1_555
C39_2 C37_2 1_555 1_555
Ho6 O12 1_555 1_555
C32_2 C33_2 1_555 1_555
C37_2 C38_2 1_555 1_555
O16 C13_2 1_555 1_555
O17 C13_2 1_555 1_555
O6_2 Ho6 1_555 1_555
O13_2 Ho6 1_555 1_555
H1_2 O13_2 1_555 1_555
H2_2 O13_2 1_555 1_555
C7_2 C5_2 1_555 1_555
C8_2 C7_2 1_555 1_555
C9_2 C8_2 1_555 1_555
H11_2 C9_2 1_555 1_555
C10_2 C9_2 1_555 1_555
H12_2 C10_2 1_555 1_555
C11_2 C10_2 1_555 1_555
H13_2 C11_2 1_555 1_555
C12_2 C7_2 1_555 1_555
C13_2 C12_2 1_555 1_555
C11_2 C12_2 1_555 1_555
N2_2 C22_2 1_555 1_555
H18_2 C22_2 1_555 1_555
C14_2 O18 1_555 1_555
C15_2 C14_2 1_555 1_555
C16_2 C15_2 1_555 1_555
H14_2 C16_2 1_555 1_555
C17_2 C16_2 1_555 1_555
H15_2 C17_2 1_555 1_555
C18_2 C17_2 1_555 1_555
H16_2 C18_2 1_555 1_555
C19_2 C18_2 1_555 1_555
C20_2 C15_2 1_555 1_555
C21_2 C20_2 1_555 1_555
C19_2 C20_2 1_555 1_555
H23_2 C31_2 1_555 1_555

#END
