
###############################################################################
#
# This file contains modified crystal structure data generated from the
# MOF subset of the Cambridge Structural Database (CSD) v543 
# hosted by the Cambridge Crystallographic Data Centre (CCDC).
#
# This work is licensed under the Creative Commons
# Attribution-NonCommercial-ShareAlike 4.0 International License.
# To view a copy of this license, visit
# http://creativecommons.org/licenses/by-nc-sa/4.0/
# or send a letter to
# Creative Commons, PO Box 1866, Mountain View, CA 94042, USA.
#
# CIF created using the CSD Python API on 29 September 2022
# The structure has been converted into the P1 space group
# The structure has a 3D framework
# The original CSD entry ZERNAN is in the triclinic crystal system
# The framework has been calculated to contain at least 10.0% void space
# The void calculation uses a probe of radius 1.32A, grid spacing 0.4
#
###############################################################################

data_ZERNAN
_chemical_formula_moiety         '(C78 H54 N6 O30 Y4)n'
_symmetry_cell_setting           triclinic
_symmetry_space_group_name_H-M   'P 1'
_symmetry_Int_Tables_number      1
_space_group_name_Hall           'P 1'
loop_
_symmetry_equiv_pos_site_id
_symmetry_equiv_pos_as_xyz
1 x,y,z
_cell_length_a                   12.725(19)
_cell_length_b                   13.57(2)
_cell_length_c                   14.12(2)
_cell_angle_alpha                66.224(14)
_cell_angle_beta                 67.182(15)
_cell_angle_gamma                77.113(14)
_cell_volume                     2050.23
loop_
_atom_site_label
_atom_site_type_symbol
_atom_site_fract_x
_atom_site_fract_y
_atom_site_fract_z
H6 H 0.0221 0.2782 0.0286
Y6 Y 0.07138(5) 0.61813(5) 0.48868(6)
O16 O 0.1081(4) 0.4539(4) 0.4388(4)
O19 O 0.0083(4) 0.3234(4) 0.6509(4)
O20 O 0.1118(4) 0.3603(4) 0.0232(4)
O21 O 0.0255(4) 0.2873(4) 0.4036(4)
O22 O 0.0466(4) 0.2288(4) 0.2705(4)
Y8 Y 0.06814(5) 0.67923(5) 0.83485(5)
Y1 Y 0.92862(5) 0.38187(5) 0.51132(6)
Y2 Y 0.93186(5) 0.32077(5) 0.16515(5)
O1 O 0.7795(4) 0.3591(4) 0.4720(4)
O2 O 0.8005(4) 0.3590(4) 0.3091(4)
O4 O 0.2424(4) 0.5634(4) 0.3652(4)
O5 O 0.9293(4) 0.5313(4) 0.3544(4)
O6 O 0.9917(4) 0.6766(4) 0.3491(4)
O7 O 0.8571(4) 0.4674(4) 0.0504(4)
O9 O 0.8790(4) 0.1394(4) 0.2648(4)
O10 O 0.7591(4) 0.2476(4) 0.1872(4)
O13 O 0.8690(4) 0.2112(4) 0.6325(4)
H1 H 0.9125 0.2462 0.6382
H2 H 0.8528 0.1673 0.6125
O14 O 0.9985(4) 0.4693(4) 0.1707(4)
H3 H 0.9778 0.4879 0.2265
H4 H 0.9575 0.4686 0.1358
O15 O 0.9777(5) 0.2380(5) 0.0314(5)
H5 H 0.9503 0.1897 0.0257
N1 N 0.4301(5) 0.3710(5) 0.5704(5)
N2 N 0.8123(6) 0.8809(5) 0.1437(6)
N3 N 0.8143(6) 0.0677(5) 0.5695(5)
C1 C 0.7415(6) 0.3622(5) 0.4022(6)
C2 C 0.6134(5) 0.3665(5) 0.4353(6)
C3 C 0.5431(5) 0.3702(6) 0.5370(6)
H7 H 0.5764 0.3723 0.5842
C4 C 0.3840(6) 0.3698(6) 0.5010(6)
H8 H 0.3049 0.3698 0.5247
C5 C 0.4452(5) 0.3687(6) 0.3958(6)
C6 C 0.5625(6) 0.3680(5) 0.3632(6)
H9 H 0.6077 0.3685 0.2931
C7 C 0.3922(5) 0.3581(5) 0.3248(6)
C8 C 0.4527(6) 0.2964(6) 0.2599(6)
H10 H 0.5251 0.2653 0.2619
C9 C 0.4096(6) 0.2791(7) 0.1923(6)
H11 H 0.4523 0.2362 0.1507
C10 C 0.3048(6) 0.3249(6) 0.1868(6)
H12 H 0.2751 0.3134 0.1418
C11 C 0.2428(6) 0.3885(6) 0.2482(6)
H13 H 0.1716 0.4206 0.2433
C12 C 0.2840(5) 0.4060(6) 0.3171(5)
C13 C 0.2100(6) 0.4769(6) 0.3772(6)
C14 C 0.9356(6) 0.6315(6) 0.3246(6)
C15 C 0.8689(6) 0.7032(6) 0.2497(6)
C16 C 0.8713(6) 0.8144(6) 0.2080(6)
H14 H 0.9167 0.8443 0.2259
C17 C 0.7483(6) 0.8348(7) 0.1198(7)
H15 H 0.7060 0.8804 0.0755
C18 C 0.7395(6) 0.7248(6) 0.1554(6)
C19 C 0.8021(5) 0.6571(6) 0.2229(6)
H16 H 0.7993 0.5826 0.2495
C20 C 0.6623(6) 0.6768(6) 0.1315(6)
C21 C 0.5466(6) 0.7076(8) 0.1665(6)
H17 H 0.5200 0.7617 0.1967
C22 C 0.4708(7) 0.6566(8) 0.1560(7)
H18 H 0.3932 0.6781 0.1782
C23 C 0.5073(7) 0.5763(9) 0.1139(7)
H19 H 0.4551 0.5445 0.1060
C24 C 0.6223(6) 0.5419(7) 0.0827(6)
H20 H 0.6474 0.4840 0.0579
C25 C 0.7001(6) 0.5949(6) 0.0890(6)
C26 C 0.8250(6) 0.5641(7) 0.0359(6)
C27 C 0.7841(6) 0.1569(6) 0.2501(6)
C28 C 0.7054(6) 0.0694(6) 0.3027(6)
C29 C 0.6372(6) 0.0690(6) 0.2460(6)
H21 H 0.6433 0.1225 0.1778
C35 C 0.7628(6) 0.0694(6) 0.5029(6)
H25 H 0.7233 0.1338 0.4731
O17 O 0.8919(4) 0.5461(4) 0.5612(4)
O18 O 0.7576(4) 0.4366(4) 0.6348(4)
O8 O 0.8882(4) 0.6397(4) 0.9768(4)
O11 O 0.9745(4) 0.7127(4) 0.5964(4)
O12 O 0.9534(4) 0.7712(4) 0.7295(4)
C30 C 0.5626(6) 0.9933(7) 0.2871(7)
H22 H 0.5157 0.9965 0.2490
C31 C 0.5564(7) 0.9098(7) 0.3878(8)
H23 H 0.5073 0.8557 0.4157
C32 C 0.6236(6) 0.9082(7) 0.4454(7)
H24 H 0.6195 0.8531 0.5123
C33 C 0.6984(6) 0.9898(6) 0.4032(6)
C34 C 0.7634(6) 0.9838(6) 0.4746(6)
C36 C 0.8701(6) 0.9750(6) 0.6108(7)
H26 H 0.9081 0.9722 0.6565
C37 C 0.8757(6) 0.8820(6) 0.5905(6)
C38 C 0.8218(6) 0.8877(6) 0.5199(6)
H27 H 0.8248 0.8275 0.5030
C39 C 0.9402(5) 0.7821(6) 0.6415(6)
C30_2 C 0.4374(6) 0.0067(7) 0.7129(7)
H22_2 H 0.4843 0.0035 0.7510
C31_2 C 0.4436(7) 0.0902(7) 0.6122(8)
H23_2 H 0.4927 0.1443 0.5843
C32_2 C 0.3764(6) 0.0918(7) 0.5546(7)
H24_2 H 0.3805 0.1469 0.4877
C33_2 C 0.3016(6) 0.0102(6) 0.5968(6)
C34_2 C 0.2366(6) 0.0162(6) 0.5254(6)
C36_2 C 0.1299(6) 0.0250(6) 0.3892(7)
H26_2 H 0.0919 0.0278 0.3435
C37_2 C 0.1243(6) 0.1180(6) 0.4095(6)
C38_2 C 0.1782(6) 0.1123(6) 0.4801(6)
H27_2 H 0.1752 0.1725 0.4970
C39_2 C 0.0598(5) 0.2179(6) 0.3585(6)
O1_2 O 0.2205(4) 0.6409(4) 0.5280(4)
O2_2 O 0.1995(4) 0.6410(4) 0.6909(4)
O5_2 O 0.0707(4) 0.4687(4) 0.6456(4)
O7_2 O 0.1429(4) 0.5326(4) 0.9496(4)
O9_2 O 0.1210(4) 0.8606(4) 0.7352(4)
O10_2 O 0.2409(4) 0.7524(4) 0.8128(4)
O13_2 O 0.1310(4) 0.7888(4) 0.3675(4)
H1_2 H 0.0875 0.7538 0.3618
H2_2 H 0.1472 0.8327 0.3875
O14_2 O 0.0015(4) 0.5307(4) 0.8293(4)
H3_2 H 0.0222 0.5121 0.7735
H4_2 H 0.0425 0.5314 0.8642
O15_2 O 0.0223(5) 0.7620(5) 0.9686(5)
H5_2 H 0.0497 0.8103 0.9743
N1_2 N 0.5699(5) 0.6290(5) 0.4296(5)
N2_2 N 0.1877(6) 0.1191(5) 0.8563(6)
N3_2 N 0.1857(6) 0.9323(5) 0.4305(5)
C1_2 C 0.2585(6) 0.6378(5) 0.5978(6)
C2_2 C 0.3866(5) 0.6335(5) 0.5647(6)
C3_2 C 0.4569(5) 0.6298(6) 0.4630(6)
H7_2 H 0.4236 0.6277 0.4158
C4_2 C 0.6160(6) 0.6302(6) 0.4990(6)
H8_2 H 0.6951 0.6302 0.4753
C5_2 C 0.5548(5) 0.6313(6) 0.6042(6)
C6_2 C 0.4375(6) 0.6320(5) 0.6368(6)
H9_2 H 0.3923 0.6315 0.7069
C7_2 C 0.6078(5) 0.6419(5) 0.6752(6)
C8_2 C 0.5473(6) 0.7036(6) 0.7401(6)
H10_2 H 0.4749 0.7347 0.7381
C9_2 C 0.5904(6) 0.7209(7) 0.8077(6)
H11_2 H 0.5477 0.7638 0.8493
C10_2 C 0.6952(6) 0.6751(6) 0.8132(6)
H12_2 H 0.7249 0.6866 0.8582
C11_2 C 0.7572(6) 0.6115(6) 0.7518(6)
H13_2 H 0.8284 0.5794 0.7567
C12_2 C 0.7160(5) 0.5940(6) 0.6829(5)
C13_2 C 0.7900(6) 0.5231(6) 0.6228(6)
C14_2 C 0.0644(6) 0.3685(6) 0.6754(6)
C15_2 C 0.1311(6) 0.2968(6) 0.7503(6)
C16_2 C 0.1287(6) 0.1856(6) 0.7920(6)
H14_2 H 0.0833 0.1557 0.7741
C17_2 C 0.2517(6) 0.1652(7) 0.8802(7)
H15_2 H 0.2940 0.1196 0.9245
C18_2 C 0.2605(6) 0.2752(6) 0.8446(6)
C19_2 C 0.1979(5) 0.3429(6) 0.7771(6)
H16_2 H 0.2007 0.4174 0.7505
C20_2 C 0.3377(6) 0.3232(6) 0.8685(6)
C21_2 C 0.4534(6) 0.2924(8) 0.8335(6)
H17_2 H 0.4800 0.2383 0.8033
C22_2 C 0.5292(7) 0.3434(8) 0.8440(7)
H18_2 H 0.6068 0.3219 0.8218
C23_2 C 0.4927(7) 0.4237(9) 0.8861(7)
H19_2 H 0.5449 0.4555 0.8940
C24_2 C 0.3777(6) 0.4581(7) 0.9173(6)
H20_2 H 0.3526 0.5160 0.9421
C25_2 C 0.2999(6) 0.4051(6) 0.9110(6)
C26_2 C 0.1750(6) 0.4359(7) 0.9641(6)
C27_2 C 0.2159(6) 0.8431(6) 0.7499(6)
C28_2 C 0.2946(6) 0.9306(6) 0.6973(6)
C29_2 C 0.3628(6) 0.9310(6) 0.7540(6)
H21_2 H 0.3567 0.8775 0.8222
C35_2 C 0.2372(6) 0.9306(6) 0.4971(6)
H25_2 H 0.2767 0.8662 0.5269
H6_2 H 0.9779 0.7218 0.9714
loop_
_geom_bond_atom_site_label_1
_geom_bond_atom_site_label_2
_geom_bond_site_symmetry_1
_geom_bond_site_symmetry_2
Y6 O16 1_555 1_555
Y1 O1 1_555 1_555
Y2 O2 1_555 1_555
O1 C1 1_555 1_555
O2 C1 1_555 1_555
O16 C13 1_555 1_555
O4 C13 1_555 1_555
O5 Y1 1_555 1_555
O6 C14 1_555 1_555
O7 Y2 1_555 1_555
O9 Y2 1_555 1_555
O10 Y2 1_555 1_555
O13 Y1 1_555 1_555
H1 O13 1_555 1_555
H2 O13 1_555 1_555
O14 Y2 1_555 1_555
H3 O14 1_555 1_555
H4 O14 1_555 1_555
O15 Y2 1_555 1_555
H5 O15 1_555 1_555
N1 C3 1_555 1_555
N2 C16 1_555 1_555
N3 C35 1_555 1_555
C1 C2 1_555 1_555
C2 C3 1_555 1_555
C3 H7 1_555 1_555
C4 N1 1_555 1_555
H8 C4 1_555 1_555
C5 C4 1_555 1_555
C6 C2 1_555 1_555
H9 C6 1_555 1_555
C7 C5 1_555 1_555
C8 C7 1_555 1_555
H10 C8 1_555 1_555
C9 C8 1_555 1_555
H11 C9 1_555 1_555
C10 C9 1_555 1_555
H12 C10 1_555 1_555
C11 C10 1_555 1_555
H13 C11 1_555 1_555
C12 C7 1_555 1_555
C13 C12 1_555 1_555
C14 O5 1_555 1_555
C15 C14 1_555 1_555
C16 C15 1_555 1_555
H14 C16 1_555 1_555
C17 N2 1_555 1_555
H15 C17 1_555 1_555
C18 C17 1_555 1_555
C19 C15 1_555 1_555
H16 C19 1_555 1_555
C20 C18 1_555 1_555
C21 C20 1_555 1_555
H17 C21 1_555 1_555
C22 C21 1_555 1_555
H18 C22 1_555 1_555
C23 C22 1_555 1_555
H19 C23 1_555 1_555
C24 C23 1_555 1_555
H20 C24 1_555 1_555
C25 C20 1_555 1_555
C26 O7 1_555 1_555
C27 O9 1_555 1_555
C28 C27 1_555 1_555
C29 C28 1_555 1_555
H21 C29 1_555 1_555
H25 C35 1_555 1_555
O17 Y1 1_555 1_555
O18 Y1 1_555 1_555
O4 Y6 1_555 1_555
O10 C27 1_555 1_555
C5 C6 1_555 1_555
C11 C12 1_555 1_555
C18 C19 1_555 1_555
C24 C25 1_555 1_555
C25 C26 1_555 1_555
O11 C39 1_555 1_555
O12 C39 1_555 1_555
H22 C30 1_555 1_555
C31 C30 1_555 1_555
H23 C31 1_555 1_555
C32 C31 1_555 1_555
H24 C32 1_555 1_555
C34 C33 1_555 1_555
H26 C36 1_555 1_555
C37 C36 1_555 1_555
C38 C34 1_555 1_555
H27 C38 1_555 1_555
C39 C37 1_555 1_555
C32 C33 1_555 1_555
C37 C38 1_555 1_555
O21 C39_2 1_555 1_555
O22 C39_2 1_555 1_555
H22_2 C30_2 1_555 1_555
C31_2 C30_2 1_555 1_555
H23_2 C31_2 1_555 1_555
C32_2 C31_2 1_555 1_555
H24_2 C32_2 1_555 1_555
C34_2 C33_2 1_555 1_555
H26_2 C36_2 1_555 1_555
C37_2 C36_2 1_555 1_555
C38_2 C34_2 1_555 1_555
H27_2 C38_2 1_555 1_555
C39_2 C37_2 1_555 1_555
C32_2 C33_2 1_555 1_555
C37_2 C38_2 1_555 1_555
Y6 O1_2 1_555 1_555
Y8 O2_2 1_555 1_555
O1_2 C1_2 1_555 1_555
O2_2 C1_2 1_555 1_555
O17 C13_2 1_555 1_555
O18 C13_2 1_555 1_555
O5_2 Y6 1_555 1_555
O19 C14_2 1_555 1_555
O7_2 Y8 1_555 1_555
O9_2 Y8 1_555 1_555
O10_2 Y8 1_555 1_555
O13_2 Y6 1_555 1_555
H1_2 O13_2 1_555 1_555
H2_2 O13_2 1_555 1_555
O14_2 Y8 1_555 1_555
H3_2 O14_2 1_555 1_555
H4_2 O14_2 1_555 1_555
O15_2 Y8 1_555 1_555
H5_2 O15_2 1_555 1_555
N1_2 C3_2 1_555 1_555
N2_2 C16_2 1_555 1_555
N3_2 C35_2 1_555 1_555
C1_2 C2_2 1_555 1_555
C2_2 C3_2 1_555 1_555
C3_2 H7_2 1_555 1_555
C4_2 N1_2 1_555 1_555
H8_2 C4_2 1_555 1_555
C5_2 C4_2 1_555 1_555
C6_2 C2_2 1_555 1_555
H9_2 C6_2 1_555 1_555
C7_2 C5_2 1_555 1_555
C8_2 C7_2 1_555 1_555
H10_2 C8_2 1_555 1_555
C9_2 C8_2 1_555 1_555
H11_2 C9_2 1_555 1_555
C10_2 C9_2 1_555 1_555
H12_2 C10_2 1_555 1_555
C11_2 C10_2 1_555 1_555
H13_2 C11_2 1_555 1_555
C12_2 C7_2 1_555 1_555
C13_2 C12_2 1_555 1_555
C14_2 O5_2 1_555 1_555
C15_2 C14_2 1_555 1_555
C16_2 C15_2 1_555 1_555
H14_2 C16_2 1_555 1_555
C17_2 N2_2 1_555 1_555
H15_2 C17_2 1_555 1_555
C18_2 C17_2 1_555 1_555
C19_2 C15_2 1_555 1_555
H16_2 C19_2 1_555 1_555
C20_2 C18_2 1_555 1_555
C21_2 C20_2 1_555 1_555
H17_2 C21_2 1_555 1_555
C22_2 C21_2 1_555 1_555
H18_2 C22_2 1_555 1_555
C23_2 C22_2 1_555 1_555
H19_2 C23_2 1_555 1_555
C24_2 C23_2 1_555 1_555
H20_2 C24_2 1_555 1_555
C25_2 C20_2 1_555 1_555
C26_2 O7_2 1_555 1_555
C27_2 O9_2 1_555 1_555
C28_2 C27_2 1_555 1_555
C29_2 C28_2 1_555 1_555
H21_2 C29_2 1_555 1_555
H25_2 C35_2 1_555 1_555
O10_2 C27_2 1_555 1_555
C5_2 C6_2 1_555 1_555
C11_2 C12_2 1_555 1_555
C18_2 C19_2 1_555 1_555
C24_2 C25_2 1_555 1_555
C25_2 C26_2 1_555 1_555

#END
