
###############################################################################
#
# This file contains modified crystal structure data generated from the
# MOF subset of the Cambridge Structural Database (CSD) v543 
# hosted by the Cambridge Crystallographic Data Centre (CCDC).
#
# This work is licensed under the Creative Commons
# Attribution-NonCommercial-ShareAlike 4.0 International License.
# To view a copy of this license, visit
# http://creativecommons.org/licenses/by-nc-sa/4.0/
# or send a letter to
# Creative Commons, PO Box 1866, Mountain View, CA 94042, USA.
#
# CIF created using the CSD Python API on 29 September 2022
# The structure has been converted into the P1 space group
# The structure has a 3D framework
# The original CSD entry ZERQOE is in the monoclinic crystal system
# The framework has been calculated to contain at least 10.0% void space
# The void calculation uses a probe of radius 1.32A, grid spacing 0.4
#
###############################################################################

data_ZERQOE
_chemical_formula_moiety         '(C56 H32 Ca4 O24 S4)n'
_symmetry_cell_setting           triclinic
_symmetry_space_group_name_H-M   'P 1'
_symmetry_Int_Tables_number      1
_space_group_name_Hall           'P 1'
loop_
_symmetry_equiv_pos_site_id
_symmetry_equiv_pos_as_xyz
1 x,y,z
_cell_length_a                   11.8831(8)
_cell_length_b                   5.5418(3)
_cell_length_c                   22.6515(15)
_cell_angle_alpha                90
_cell_angle_beta                 101.607(7)
_cell_angle_gamma                90
_cell_volume                     1461.18
loop_
_atom_site_label
_atom_site_type_symbol
_atom_site_fract_x
_atom_site_fract_y
_atom_site_fract_z
O7 O 0.36840(14) 0.5166(3) 0.02971(7)
Ca1 Ca 0.39773(4) 0.23474(7) 0.957906(19)
S1 S 0.10714(5) 0.02418(10) 0.89529(2)
O3 O 0.18986(13) 0.1828(3) 0.93214(7)
O4 O 0.11790(15) 0.4614(3) 0.61991(7)
O6 O 0.10649(15) 0.0664(3) 0.60091(7)
C1 C 0.10806(19) 0.2458(4) 0.63428(10)
C5 C 0.1459(2) 0.3159(4) 0.80425(10)
H3 H 0.1760 0.4270 0.8340
C6 C 0.10139(19) 0.0974(4) 0.81895(10)
C8 C 0.14434(19) 0.3646(4) 0.74366(10)
H5 H 0.1727 0.5108 0.7328
C9 C 0.10073(19) 0.1967(4) 0.69941(10)
H7 H 0.0166 0.4385 0.9410
Ca4 Ca 0.10227(4) 0.73474(7) 0.542094(19)
O9 O 0.59273(13) 0.0918(3) 0.97299(7)
O11 O 0.39351(15) 0.5664(3) 0.89909(7)
O10 O 0.40727(13) 0.9082(3) 0.02701(7)
O2 O 0.12064(14) 0.7673(3) 0.90184(7)
C4 C 0.0543(2) 0.9310(4) 0.77524(10)
H2 H 0.0224 0.7883 0.7859
C11 C 0.0554(2) 0.9808(4) 0.71518(10)
H6 H 0.0257 0.8690 0.6855
O8 O 0.38210(15) 0.9614(3) 0.88009(7)
Ca6 Ca 0.60227(4) 0.76526(7) 0.042094(19)
O1 O 0.63160(14) 0.4834(3) 0.97029(7)
C2 C 0.65591(19) 0.2671(4) 0.96417(10)
C10 C 0.76530(19) 0.2084(4) 0.94311(10)
C12 C 0.97128(19) 0.1018(4) 0.91066(10)
C13 C 0.9575(2) 0.3255(4) 0.93538(11)
C14 C 0.8533(2) 0.3778(4) 0.95159(10)
H8 H 0.8425 0.5273 0.9682
H5_2 H 0.3273 0.0108 0.7672
H8_2 H 0.6575 0.0273 0.5318
Ca6_2 Ca 0.89773(4) 0.26526(7) 0.457906(19)
O7_2 O 0.13160(14) 0.0166(3) 0.47029(7)
S1_2 S 0.39286(5) 0.52418(10) 0.60471(2)
O1_2 O 0.86840(14) 0.9834(3) 0.52971(7)
O2_2 O 0.37936(14) 0.2673(3) 0.59816(7)
O3_2 O 0.31014(13) 0.6828(3) 0.56786(7)
O5 O 0.90727(13) 0.5918(3) 0.52701(7)
C1_2 C 0.39194(19) 0.7458(4) 0.86572(10)
C2_2 C 0.84409(19) 0.7671(4) 0.53583(10)
C3 C 0.6172(2) 0.4339(4) 0.60049(11)
H1 H 0.6075 0.2877 0.6190
C4_2 C 0.4457(2) 0.4310(4) 0.72476(10)
H2_2 H 0.4776 0.2883 0.7141
C5_2 C 0.3541(2) 0.8159(4) 0.69575(10)
H3_2 H 0.3240 0.9270 0.6660
C6_2 C 0.39861(19) 0.5974(4) 0.68105(10)
C7 C 0.7202(2) 0.4881(4) 0.58361(11)
H4 H 0.7798 0.3764 0.5902
C8_2 C 0.35566(19) 0.8646(4) 0.75634(10)
C9_2 C 0.39927(19) 0.6967(4) 0.80059(10)
C10_2 C 0.73470(19) 0.7084(4) 0.55689(10)
C11_2 C 0.4446(2) 0.4808(4) 0.78482(10)
H6_2 H 0.4743 0.3690 0.8145
C12_2 C 0.52872(19) 0.6018(4) 0.58934(10)
C13_2 C 0.5425(2) 0.8255(4) 0.56462(11)
H7_2 H 0.4834 0.9385 0.5590
C14_2 C 0.6467(2) 0.8778(4) 0.54841(10)
O10_2 O 0.09273(13) 0.4082(3) 0.47299(7)
C2_3 C 0.34409(19) 0.7329(4) 0.03583(10)
C10_3 C 0.23470(19) 0.7916(4) 0.05689(10)
C12_3 C 0.02872(19) 0.8982(4) 0.08934(10)
C13_3 C 0.0425(2) 0.6745(4) 0.06462(11)
C14_3 C 0.1467(2) 0.6222(4) 0.04841(10)
H8_3 H 0.1575 0.4727 0.0318
O2_3 O 0.87936(14) 0.2327(3) 0.09816(7)
C4_3 C 0.9457(2) 0.0690(4) 0.22476(10)
H2_3 H 0.9776 0.2117 0.2141
C11_3 C 0.9446(2) 0.0192(4) 0.28482(10)
H6_3 H 0.9743 0.1310 0.3145
O8_2 O 0.61790(15) 0.0386(3) 0.11991(7)
S1_3 S 0.89286(5) 0.97582(10) 0.10471(2)
O3_3 O 0.81014(13) 0.8172(3) 0.06786(7)
O4_2 O 0.88210(15) 0.5386(3) 0.38009(7)
O6_2 O 0.89351(15) 0.9336(3) 0.39909(7)
C1_3 C 0.89194(19) 0.7542(4) 0.36572(10)
C5_3 C 0.8541(2) 0.6841(4) 0.19575(10)
H3_3 H 0.8240 0.5730 0.1660
C6_3 C 0.89861(19) 0.9026(4) 0.18105(10)
C8_3 C 0.85566(19) 0.6354(4) 0.25634(10)
H5_3 H 0.8273 0.4892 0.2672
C9_3 C 0.89927(19) 0.8033(4) 0.30059(10)
H7_3 H 0.9834 0.5615 0.0590
O11_2 O 0.60649(15) 0.4336(3) 0.10091(7)
S1_4 S 0.60714(5) 0.47582(10) 0.39529(2)
O2_4 O 0.62064(14) 0.7327(3) 0.40184(7)
O3_4 O 0.68986(13) 0.3172(3) 0.43214(7)
C1_4 C 0.60806(19) 0.2542(4) 0.13428(10)
C2_4 C 0.15591(19) 0.2329(4) 0.46417(10)
C3_2 C 0.3828(2) 0.5661(4) 0.39951(11)
H1_2 H 0.3925 0.7123 0.3810
C4_4 C 0.5543(2) 0.5690(4) 0.27524(10)
H2_4 H 0.5224 0.7117 0.2859
C5_4 C 0.6459(2) 0.1841(4) 0.30425(10)
H3_4 H 0.6760 0.0730 0.3340
C6_4 C 0.60139(19) 0.4026(4) 0.31895(10)
C7_2 C 0.2798(2) 0.5119(4) 0.41639(11)
H4_2 H 0.2202 0.6236 0.4098
C8_4 C 0.64434(19) 0.1354(4) 0.24366(10)
C9_4 C 0.60073(19) 0.3033(4) 0.19941(10)
C10_4 C 0.26530(19) 0.2916(4) 0.44311(10)
C11_4 C 0.5554(2) 0.5192(4) 0.21518(10)
H6_4 H 0.5257 0.6310 0.1855
C12_4 C 0.47128(19) 0.3982(4) 0.41066(10)
C13_4 C 0.4575(2) 0.1745(4) 0.43538(11)
H7_4 H 0.5166 0.0615 0.4410
C14_4 C 0.3533(2) 0.1222(4) 0.45159(10)
H5_4 H 0.6727 0.9892 0.2328
H8_4 H 0.3425 0.9727 0.4682
C3_3 C 0.8828(2) 0.9339(4) 0.89951(11)
H1_3 H 0.8925 0.7877 0.8810
C7_3 C 0.7798(2) 0.9881(4) 0.91639(11)
H4_3 H 0.7202 0.8764 0.9098
C3_4 C 0.1172(2) 0.0661(4) 0.10049(11)
H1_4 H 0.1075 0.2123 0.1190
C7_4 C 0.2202(2) 0.0119(4) 0.08361(11)
H4_4 H 0.2798 0.1236 0.0902
loop_
_geom_bond_atom_site_label_1
_geom_bond_atom_site_label_2
_geom_bond_site_symmetry_1
_geom_bond_site_symmetry_2
Ca1 O3 1_555 1_555
O3 S1 1_555 1_555
O4 C1 1_555 1_555
O6 C1 1_555 1_555
C1 C9 1_555 1_555
C5 H3 1_555 1_555
C6 S1 1_555 1_555
C8 C5 1_555 1_555
H5 C8 1_555 1_555
C9 C8 1_555 1_555
Ca4 O4 1_555 1_555
O9 Ca1 1_555 1_555
O11 Ca1 1_555 1_555
C5 C6 1_555 1_555
C4 H2 1_555 1_555
C11 C4 1_555 1_555
H6 C11 1_555 1_555
O1 C2 1_555 1_555
O9 C2 1_555 1_555
C2 C10 1_555 1_555
C13 C12 1_555 1_555
C14 C10 1_555 1_555
H8 C14 1_555 1_555
C13 C14 1_555 1_555
Ca4 O3_2 1_555 1_555
S1_2 O2_2 1_555 1_555
O1_2 C2_2 1_555 1_555
O3_2 S1_2 1_555 1_555
O8 C1_2 1_555 1_555
O5 C2_2 1_555 1_555
O11 C1_2 1_555 1_555
C1_2 C9_2 1_555 1_555
C2_2 C10_2 1_555 1_555
C3 H1 1_555 1_555
C4_2 H2_2 1_555 1_555
C5_2 H3_2 1_555 1_555
C6_2 S1_2 1_555 1_555
C7 C3 1_555 1_555
H4 C7 1_555 1_555
C8_2 C5_2 1_555 1_555
C9_2 C8_2 1_555 1_555
C10_2 C7 1_555 1_555
C11_2 C4_2 1_555 1_555
H6_2 C11_2 1_555 1_555
C12_2 S1_2 1_555 1_555
C13_2 C12_2 1_555 1_555
H7_2 C13_2 1_555 1_555
C14_2 C10_2 1_555 1_555
Ca6_2 O5 1_555 1_555
O10_2 Ca4 1_555 1_555
C3 C12_2 1_555 1_555
C4_2 C6_2 1_555 1_555
C5_2 C6_2 1_555 1_555
C9_2 C11_2 1_555 1_555
C13_2 C14_2 1_555 1_555
O7 C2_3 1_555 1_555
O10 C2_3 1_555 1_555
C2_3 C10_3 1_555 1_555
C13_3 C12_3 1_555 1_555
C14_3 C10_3 1_555 1_555
H8_3 C14_3 1_555 1_555
Ca6 O10 1_555 1_555
C13_3 C14_3 1_555 1_555
C4_3 H2_3 1_555 1_555
C11_3 C4_3 1_555 1_555
H6_3 C11_3 1_555 1_555
Ca6 O3_3 1_555 1_555
O3_3 S1_3 1_555 1_555
O4_2 C1_3 1_555 1_555
O6_2 C1_3 1_555 1_555
C1_3 C9_3 1_555 1_555
C5_3 H3_3 1_555 1_555
C6_3 S1_3 1_555 1_555
C8_3 C5_3 1_555 1_555
H5_3 C8_3 1_555 1_555
C9_3 C8_3 1_555 1_555
Ca6_2 O4_2 1_555 1_555
O11_2 Ca6 1_555 1_555
C5_3 C6_3 1_555 1_555
Ca6_2 O3_4 1_555 1_555
S1_4 O2_4 1_555 1_555
O7_2 C2_4 1_555 1_555
O3_4 S1_4 1_555 1_555
O8_2 C1_4 1_555 1_555
O10_2 C2_4 1_555 1_555
O11_2 C1_4 1_555 1_555
C1_4 C9_4 1_555 1_555
C2_4 C10_4 1_555 1_555
C3_2 H1_2 1_555 1_555
C4_4 H2_4 1_555 1_555
C5_4 H3_4 1_555 1_555
C6_4 S1_4 1_555 1_555
C7_2 C3_2 1_555 1_555
H4_2 C7_2 1_555 1_555
C8_4 C5_4 1_555 1_555
C9_4 C8_4 1_555 1_555
C10_4 C7_2 1_555 1_555
C11_4 C4_4 1_555 1_555
H6_4 C11_4 1_555 1_555
C12_4 S1_4 1_555 1_555
C13_4 C12_4 1_555 1_555
H7_4 C13_4 1_555 1_555
C14_4 C10_4 1_555 1_555
C3_2 C12_4 1_555 1_555
C4_4 C6_4 1_555 1_555
C5_4 C6_4 1_555 1_555
C9_4 C11_4 1_555 1_555
C13_4 C14_4 1_555 1_555
C3_3 H1_3 1_555 1_555
C7_3 C3_3 1_555 1_555
H4_3 C7_3 1_555 1_555
C3_4 H1_4 1_555 1_555
C7_4 C3_4 1_555 1_555
H4_4 C7_4 1_555 1_555

#END
