
###############################################################################
#
# This file contains modified crystal structure data generated from the
# MOF subset of the Cambridge Structural Database (CSD) v543 
# hosted by the Cambridge Crystallographic Data Centre (CCDC).
#
# This work is licensed under the Creative Commons
# Attribution-NonCommercial-ShareAlike 4.0 International License.
# To view a copy of this license, visit
# http://creativecommons.org/licenses/by-nc-sa/4.0/
# or send a letter to
# Creative Commons, PO Box 1866, Mountain View, CA 94042, USA.
#
# CIF created using the CSD Python API on 29 September 2022
# The structure has been converted into the P1 space group
# The structure has a 3D framework
# The original CSD entry ZESTIC is in the monoclinic crystal system
# The framework has been calculated to contain at least 10.0% void space
# The void calculation uses a probe of radius 1.32A, grid spacing 0.4
#
###############################################################################

data_ZESTIC
_chemical_formula_moiety         '(C144 H104 Cd4 N32)n'
_symmetry_cell_setting           triclinic
_symmetry_space_group_name_H-M   'P 1'
_symmetry_Int_Tables_number      1
_space_group_name_Hall           'P 1'
loop_
_symmetry_equiv_pos_site_id
_symmetry_equiv_pos_as_xyz
1 x,y,z
_cell_length_a                   24.6972(5)
_cell_length_b                   9.6072(2)
_cell_length_c                   18.2223(4)
_cell_angle_alpha                90
_cell_angle_beta                 107.7100(10)
_cell_angle_gamma                90
_cell_volume                     4118.72
loop_
_atom_site_label
_atom_site_type_symbol
_atom_site_fract_x
_atom_site_fract_y
_atom_site_fract_z
C1 C 0.53183(12) 0.4619(4) 0.25220(17)
H1 H 0.4978 0.5047 0.2509
C2 C 0.57528(18) 0.4300(4) 0.3207(2)
H2 H 0.5751 0.4471 0.3709
C3 C 0.61720(13) 0.3693(4) 0.29858(18)
H3 H 0.6515 0.3359 0.3309
C4 C 0.59894(10) 0.3661(3) 0.21604(15)
C5 C 0.62907(8) 0.3055(2) 0.17002(13)
C6 C 0.61000(10) 0.2849(2) 0.09032(14)
C7 C 0.64295(11) 0.2322(3) 0.04354(15)
H4 H 0.6810 0.2063 0.0610
C10 C 0.68811(9) 0.2546(3) 0.21118(13)
C11 C 0.70235(10) 0.1161(3) 0.20785(14)
H7 H 0.6754 0.0548 0.1781
C12 C 0.75531(11) 0.0673(3) 0.24749(15)
C13 C 0.79638(9) 0.1598(3) 0.28660(12)
C14 C 0.78431(10) 0.2989(3) 0.28788(14)
H9 H 0.8124 0.3613 0.3137
C15 C 0.73005(9) 0.3455(3) 0.25055(15)
H10 H 0.7217 0.4397 0.2520
C16 C 0.87967(10) 0.1400(3) 0.40339(13)
H11 H 0.8666 0.2020 0.4333
C18 C 0.88557(13) 0.0189(4) 0.30396(17)
C19 C 0.41212(9) 0.6823(2) 0.11894(13)
H14 H 0.4439 0.7392 0.1278
C20 C 0.35891(10) 0.7282(2) 0.12534(15)
H15 H 0.3496 0.8169 0.1381
C21 C 0.32401(9) 0.6125(2) 0.10858(12)
H16 H 0.2863 0.6080 0.1080
C22 C 0.35687(8) 0.5012(2) 0.09235(11)
C23 C 0.33789(8) 0.3623(2) 0.07682(11)
C24 C 0.36887(9) 0.2465(2) 0.06659(13)
C25 C 0.34592(10) 0.1103(2) 0.04517(14)
H17 H 0.3089 0.0812 0.0392
C26 C 0.38997(11) 0.0302(3) 0.03508(18)
C27 C 0.43773(10) 0.1212(2) 0.05190(15)
H19 H 0.4734 0.0943 0.0498
C28 C 0.27632(8) 0.3382(2) 0.06654(12)
C29 C 0.25965(9) 0.2640(2) 0.12161(12)
H20 H 0.2870 0.2310 0.1654
C30 C 0.20219(9) 0.2390(2) 0.11158(13)
H21 H 0.1912 0.1905 0.1489
C31 C 0.16138(8) 0.2869(2) 0.04547(12)
C33 C 0.23530(9) 0.3882(2) 0.00245(13)
C34 C 0.08238(9) 0.1401(2) 0.05464(15)
H24 H 0.1049 0.0654 0.0784
C35 C 0.01041(9) 0.2687(3) 0.00283(16)
C36 C 0.05721(9) 0.3431(3) 0.00008(16)
N1 N 0.54527(13) 0.4236(2) 0.18956(18)
N2 N 0.55553(7) 0.3101(2) 0.04205(11)
N3 N 0.85235(9) 0.1122(3) 0.32841(11)
N4 N 0.92701(12) 0.0684(2) 0.42853(16)
N5 N 0.41128(7) 0.54926(18) 0.09895(11)
N6 N 0.42599(7) 0.24817(19) 0.07082(10)
N7 N 0.10288(8) 0.2595(2) 0.03490(13)
N8 N 0.02621(7) 0.1424(2) 0.03602(11)
Cd1 Cd 0.482541(6) 0.435010(12) 0.066286(7)
N10 N 0.52621(7) 0.6424(2) 0.03602(11)
Cd3 Cd 0.982541(6) 0.064990(12) 0.566286(7)
Cd2 Cd 0.982541(6) 0.935010(12) 0.066286(7)
C1_2 C 0.53183(12) 0.5381(4) 0.75220(17)
H1_2 H 0.4978 0.4953 0.7509
C2_2 C 0.57528(18) 0.5700(4) 0.8207(2)
H2_2 H 0.5751 0.5529 0.8709
C3_2 C 0.61720(13) 0.6307(4) 0.79858(18)
H3_2 H 0.6515 0.6641 0.8309
C4_2 C 0.59894(10) 0.6339(3) 0.71604(15)
C5_2 C 0.62907(8) 0.6945(2) 0.67002(13)
C6_2 C 0.61000(10) 0.7151(2) 0.59032(14)
C7_2 C 0.64295(11) 0.7678(3) 0.54354(15)
H4_2 H 0.6810 0.7937 0.5610
C8 C 0.60962(12) 0.7732(4) 0.47096(15)
H5 H 0.6198 0.8038 0.4285
C9 C 0.55506(10) 0.7229(3) 0.47087(14)
H6 H 0.5237 0.7144 0.4272
C10_2 C 0.68811(9) 0.7454(3) 0.71118(13)
C11_2 C 0.70235(10) 0.8839(3) 0.70785(14)
H7_2 H 0.6754 0.9452 0.6781
C12_2 C 0.75531(11) 0.9327(3) 0.74749(15)
C13_2 C 0.79638(9) 0.8402(3) 0.78660(12)
C14_2 C 0.78431(10) 0.7011(3) 0.78788(14)
H9_2 H 0.8124 0.6387 0.8137
C15_2 C 0.73005(9) 0.6545(3) 0.75055(15)
H10_2 H 0.7217 0.5603 0.7520
C16_2 C 0.87967(10) 0.8600(3) 0.90339(13)
H11_2 H 0.8666 0.7980 0.9333
C18_2 C 0.88557(13) 0.9811(4) 0.80396(17)
C19_2 C 0.41212(9) 0.3177(2) 0.61894(13)
H14_2 H 0.4439 0.2608 0.6278
C20_2 C 0.35891(10) 0.2718(2) 0.62534(15)
H15_2 H 0.3496 0.1831 0.6381
C21_2 C 0.32401(9) 0.3875(2) 0.60858(12)
H16_2 H 0.2863 0.3920 0.6080
C22_2 C 0.35687(8) 0.4988(2) 0.59235(11)
C23_2 C 0.33789(8) 0.6377(2) 0.57682(11)
C24_2 C 0.36887(9) 0.7535(2) 0.56659(13)
C25_2 C 0.34592(10) 0.8897(2) 0.54517(14)
H17_2 H 0.3089 0.9188 0.5392
C26_2 C 0.38997(11) 0.9698(3) 0.53508(18)
C27_2 C 0.43773(10) 0.8788(2) 0.55190(15)
H19_2 H 0.4734 0.9057 0.5498
C28_2 C 0.27632(8) 0.6618(2) 0.56654(12)
C29_2 C 0.25965(9) 0.7360(2) 0.62161(12)
H20_2 H 0.2870 0.7690 0.6654
C30_2 C 0.20219(9) 0.7610(2) 0.61158(13)
H21_2 H 0.1912 0.8095 0.6489
C31_2 C 0.16138(8) 0.7131(2) 0.54547(12)
C32 C 0.17761(8) 0.6380(2) 0.49027(12)
H22 H 0.1505 0.6057 0.4461
C33_2 C 0.23530(9) 0.6118(2) 0.50245(13)
H23 H 0.2463 0.5595 0.4665
C34_2 C 0.08238(9) 0.8599(2) 0.55464(15)
H24_2 H 0.1049 0.9346 0.5784
C35_2 C 0.01041(9) 0.7313(3) 0.50283(16)
C36_2 C 0.05721(9) 0.6569(3) 0.50008(16)
H26 H 0.0578 0.5688 0.4792
N1_2 N 0.54527(13) 0.5764(2) 0.68956(18)
N2_2 N 0.55553(7) 0.6899(2) 0.54205(11)
N3_2 N 0.85235(9) 0.8878(3) 0.82841(11)
N4_2 N 0.92701(12) 0.9316(2) 0.92853(16)
N5_2 N 0.41128(7) 0.45074(18) 0.59895(11)
N6_2 N 0.42599(7) 0.75183(19) 0.57082(10)
N7_2 N 0.10288(8) 0.7405(2) 0.53490(13)
N8_2 N 0.02621(7) 0.8576(2) 0.53602(11)
Cd1_2 Cd 0.482541(6) 0.564990(12) 0.566286(7)
N9 N 0.42701(12) 0.5684(2) 0.42853(16)
N10_2 N 0.52621(7) 0.3576(2) 0.53602(11)
C1_3 C 0.03183(12) 0.9619(4) 0.25220(17)
C2_3 C 0.07528(18) 0.9300(4) 0.3207(2)
H2_3 H 0.0751 0.9471 0.3709
C3_3 C 0.11720(13) 0.8693(4) 0.29858(18)
H3_3 H 0.1515 0.8359 0.3309
C4_3 C 0.09894(10) 0.8661(3) 0.21604(15)
C5_3 C 0.12907(8) 0.8055(2) 0.17002(13)
C6_3 C 0.11000(10) 0.7849(2) 0.09032(14)
C7_3 C 0.14295(11) 0.7322(3) 0.04354(15)
H4_3 H 0.1810 0.7063 0.0610
C10_3 C 0.18811(9) 0.7546(3) 0.21118(13)
C11_3 C 0.20235(10) 0.6161(3) 0.20785(14)
H7_3 H 0.1754 0.5548 0.1781
C12_3 C 0.25531(11) 0.5673(3) 0.24749(15)
H8 H 0.2633 0.4727 0.2479
C13_3 C 0.29638(9) 0.6598(3) 0.28660(12)
C14_3 C 0.28431(10) 0.7989(3) 0.28788(14)
H9_3 H 0.3124 0.8613 0.3137
C15_3 C 0.23005(9) 0.8455(3) 0.25055(15)
H10_3 H 0.2217 0.9397 0.2520
C16_3 C 0.37967(10) 0.6400(3) 0.40339(13)
H11_3 H 0.3666 0.7020 0.4333
C17 C 0.43114(11) 0.4935(3) 0.36650(15)
H12 H 0.4609 0.4338 0.3671
C18_3 C 0.38557(13) 0.5189(4) 0.30396(17)
H13 H 0.3783 0.4813 0.2549
N1_3 N 0.04527(13) 0.9236(2) 0.18956(18)
N2_3 N 0.05553(7) 0.8101(2) 0.04205(11)
N3_3 N 0.35235(9) 0.6122(3) 0.32841(11)
C23_3 C 0.83789(8) 0.8623(2) 0.07682(11)
C24_3 C 0.86887(9) 0.7465(2) 0.06659(13)
C25_3 C 0.84592(10) 0.6103(2) 0.04517(14)
H17_3 H 0.8089 0.5812 0.0392
C26_3 C 0.88997(11) 0.5302(3) 0.03508(18)
H18 H 0.8886 0.4372 0.0205
C27_3 C 0.93773(10) 0.6212(2) 0.05190(15)
H19_3 H 0.9734 0.5943 0.0498
C28_3 C 0.77632(8) 0.8382(2) 0.06654(12)
C29_3 C 0.75965(9) 0.7640(2) 0.12161(12)
H20_3 H 0.7870 0.7310 0.1654
C30_3 C 0.70219(9) 0.7390(2) 0.11158(13)
H21_3 H 0.6912 0.6905 0.1489
C31_3 C 0.66138(8) 0.7869(2) 0.04547(12)
C33_3 C 0.73530(9) 0.8882(2) 0.00245(13)
C34_3 C 0.58238(9) 0.6401(2) 0.05464(15)
H24_3 H 0.6049 0.5654 0.0784
C35_3 C 0.51041(9) 0.7687(3) 0.00283(16)
C36_3 C 0.55721(9) 0.8431(3) 0.00008(16)
N6_3 N 0.92599(7) 0.74817(19) 0.07082(10)
N7_3 N 0.60288(8) 0.7595(2) 0.03490(13)
C32_2 C 0.67761(8) 0.8620(2) 0.99027(12)
H22_2 H 0.6505 0.8943 0.9461
H23_2 H 0.7463 0.9405 0.9665
H25 H 0.4731 0.8003 0.9845
H26_2 H 0.5578 0.9312 0.9792
C23_4 C 0.83789(8) 0.1377(2) 0.57682(11)
C24_4 C 0.86887(9) 0.2535(2) 0.56659(13)
C25_4 C 0.84592(10) 0.3897(2) 0.54517(14)
H17_4 H 0.8089 0.4188 0.5392
C26_4 C 0.88997(11) 0.4698(3) 0.53508(18)
H18_2 H 0.8886 0.5628 0.5205
C27_4 C 0.93773(10) 0.3788(2) 0.55190(15)
H19_4 H 0.9734 0.4057 0.5498
C28_4 C 0.77632(8) 0.1618(2) 0.56654(12)
C29_4 C 0.75965(9) 0.2360(2) 0.62161(12)
H20_4 H 0.7870 0.2690 0.6654
C30_4 C 0.70219(9) 0.2610(2) 0.61158(13)
H21_4 H 0.6912 0.3095 0.6489
C31_4 C 0.66138(8) 0.2131(2) 0.54547(12)
C32_3 C 0.67761(8) 0.1380(2) 0.49027(12)
H22_3 H 0.6505 0.1057 0.4461
C33_4 C 0.73530(9) 0.1118(2) 0.50245(13)
H23_3 H 0.7463 0.0595 0.4665
C34_4 C 0.58238(9) 0.3599(2) 0.55464(15)
H24_4 H 0.6049 0.4346 0.5784
C35_4 C 0.51041(9) 0.2313(3) 0.50283(16)
H25_2 H 0.4731 0.1997 0.4845
C36_4 C 0.55721(9) 0.1569(3) 0.50008(16)
H26_3 H 0.5578 0.0688 0.4792
N6_4 N 0.92599(7) 0.25183(19) 0.57082(10)
N7_4 N 0.60288(8) 0.2405(2) 0.53490(13)
C8_2 C 0.60962(12) 0.2268(4) 0.97096(15)
H5_2 H 0.6198 0.1962 0.9285
C9_2 C 0.55506(10) 0.2771(3) 0.97087(14)
H6_2 H 0.5237 0.2856 0.9272
C32_4 C 0.17761(8) 0.3620(2) 0.99027(12)
H22_4 H 0.1505 0.3943 0.9461
H23_4 H 0.2463 0.4405 0.9665
H26_4 H 0.0578 0.4312 0.9792
N9_2 N 0.42701(12) 0.4316(2) 0.92853(16)
C1_4 C 0.03183(12) 0.0381(4) 0.75220(17)
C2_4 C 0.07528(18) 0.0700(4) 0.8207(2)
H2_4 H 0.0751 0.0529 0.8709
C3_4 C 0.11720(13) 0.1307(4) 0.79858(18)
H3_4 H 0.1515 0.1641 0.8309
C4_4 C 0.09894(10) 0.1339(3) 0.71604(15)
C5_4 C 0.12907(8) 0.1945(2) 0.67002(13)
C6_4 C 0.11000(10) 0.2151(2) 0.59032(14)
C7_4 C 0.14295(11) 0.2678(3) 0.54354(15)
H4_4 H 0.1810 0.2937 0.5610
C8_3 C 0.10962(12) 0.2732(4) 0.47096(15)
H5_3 H 0.1198 0.3038 0.4285
C9_3 C 0.05506(10) 0.2229(3) 0.47087(14)
H6_3 H 0.0237 0.2144 0.4272
C10_4 C 0.18811(9) 0.2454(3) 0.71118(13)
C11_4 C 0.20235(10) 0.3839(3) 0.70785(14)
H7_4 H 0.1754 0.4452 0.6781
C12_4 C 0.25531(11) 0.4327(3) 0.74749(15)
H8_2 H 0.2633 0.5273 0.7479
C13_4 C 0.29638(9) 0.3402(3) 0.78660(12)
C14_4 C 0.28431(10) 0.2011(3) 0.78788(14)
H9_4 H 0.3124 0.1387 0.8137
C15_4 C 0.23005(9) 0.1545(3) 0.75055(15)
H10_4 H 0.2217 0.0603 0.7520
C16_4 C 0.37967(10) 0.3600(3) 0.90339(13)
H11_4 H 0.3666 0.2980 0.9333
C17_2 C 0.43114(11) 0.5065(3) 0.86650(15)
H12_2 H 0.4609 0.5662 0.8671
C18_4 C 0.38557(13) 0.4811(4) 0.80396(17)
H13_2 H 0.3783 0.5187 0.7549
N1_4 N 0.04527(13) 0.0764(2) 0.68956(18)
N2_4 N 0.05553(7) 0.1899(2) 0.54205(11)
N3_4 N 0.35235(9) 0.3878(3) 0.82841(11)
H8_3 H 0.7633 0.9727 0.2479
C17_3 C 0.93114(11) 0.9935(3) 0.36650(15)
H12_3 H 0.9609 0.9338 0.3671
H13_3 H 0.8783 0.9813 0.2549
H18_3 H 0.3886 0.9372 0.0205
H25_3 H 0.9731 0.3003 0.9845
H8_4 H 0.7633 0.0273 0.7479
C17_4 C 0.93114(11) 0.0065(3) 0.86650(15)
H12_4 H 0.9609 0.0662 0.8671
H13_4 H 0.8783 0.0187 0.7549
H18_4 H 0.3886 0.0628 0.5205
H25_4 H 0.9731 0.6997 0.4845
C8_4 C 0.10962(12) 0.7268(4) 0.97096(15)
H5_4 H 0.1198 0.6962 0.9285
C9_4 C 0.05506(10) 0.7771(3) 0.97087(14)
H6_4 H 0.0237 0.7856 0.9272
H1_3 H 0.9978 0.0047 0.2509
C19_3 C 0.91212(9) 0.1823(2) 0.11894(13)
H14_3 H 0.9439 0.2392 0.1278
C20_3 C 0.85891(10) 0.2282(2) 0.12534(15)
H15_3 H 0.8496 0.3169 0.1381
C21_3 C 0.82401(9) 0.1125(2) 0.10858(12)
H16_3 H 0.7863 0.1080 0.1080
C22_3 C 0.85687(8) 0.0012(2) 0.09235(11)
N5_3 N 0.91128(7) 0.04926(18) 0.09895(11)
H1_4 H 0.9978 0.9953 0.7509
C19_4 C 0.91212(9) 0.8177(2) 0.61894(13)
H14_4 H 0.9439 0.7608 0.6278
C20_4 C 0.85891(10) 0.7718(2) 0.62534(15)
H15_4 H 0.8496 0.6831 0.6381
C21_4 C 0.82401(9) 0.8875(2) 0.60858(12)
H16_4 H 0.7863 0.8920 0.6080
C22_4 C 0.85687(8) 0.9988(2) 0.59235(11)
N5_4 N 0.91128(7) 0.95074(18) 0.59895(11)
loop_
_geom_bond_atom_site_label_1
_geom_bond_atom_site_label_2
_geom_bond_site_symmetry_1
_geom_bond_site_symmetry_2
C1 H1 1_555 1_555
C2 C1 1_555 1_555
H2 C2 1_555 1_555
C3 C2 1_555 1_555
H3 C3 1_555 1_555
C4 C3 1_555 1_555
C5 C4 1_555 1_555
C6 C5 1_555 1_555
C7 C6 1_555 1_555
H4 C7 1_555 1_555
C10 C5 1_555 1_555
C11 C10 1_555 1_555
H7 C11 1_555 1_555
C12 C11 1_555 1_555
C13 C12 1_555 1_555
C14 C13 1_555 1_555
H9 C14 1_555 1_555
C15 C10 1_555 1_555
H10 C15 1_555 1_555
C16 H11 1_555 1_555
C19 H14 1_555 1_555
C20 C19 1_555 1_555
H15 C20 1_555 1_555
C21 C20 1_555 1_555
H16 C21 1_555 1_555
C22 C21 1_555 1_555
C23 C22 1_555 1_555
C24 C23 1_555 1_555
C25 C24 1_555 1_555
H17 C25 1_555 1_555
C26 C25 1_555 1_555
C27 C26 1_555 1_555
H19 C27 1_555 1_555
C28 C23 1_555 1_555
C29 C28 1_555 1_555
H20 C29 1_555 1_555
C30 C29 1_555 1_555
H21 C30 1_555 1_555
C31 C30 1_555 1_555
C33 C28 1_555 1_555
C34 H24 1_555 1_555
C36 C35 1_555 1_555
N1 C1 1_555 1_555
N2 C6 1_555 1_555
N3 C13 1_555 1_555
N4 C16 1_555 1_555
N5 C19 1_555 1_555
N6 C24 1_555 1_555
N7 C31 1_555 1_555
N8 C34 1_555 1_555
Cd1 N1 1_555 1_555
N10 Cd1 1_555 1_555
Cd3 N4 1_555 1_555
C4 N1 1_555 1_555
C14 C15 1_555 1_555
C16 N3 1_555 1_555
C18 N3 1_555 1_555
C22 N5 1_555 1_555
C27 N6 1_555 1_555
C34 N7 1_555 1_555
C35 N8 1_555 1_555
C36 N7 1_555 1_555
N2 Cd1 1_555 1_555
N5 Cd1 1_555 1_555
N6 Cd1 1_555 1_555
C1_2 H1_2 1_555 1_555
C2_2 C1_2 1_555 1_555
H2_2 C2_2 1_555 1_555
C3_2 C2_2 1_555 1_555
H3_2 C3_2 1_555 1_555
C4_2 C3_2 1_555 1_555
C5_2 C4_2 1_555 1_555
C6_2 C5_2 1_555 1_555
C7_2 C6_2 1_555 1_555
H4_2 C7_2 1_555 1_555
C8 C7_2 1_555 1_555
H5 C8 1_555 1_555
C9 C8 1_555 1_555
H6 C9 1_555 1_555
C10_2 C5_2 1_555 1_555
C11_2 C10_2 1_555 1_555
H7_2 C11_2 1_555 1_555
C12_2 C11_2 1_555 1_555
C13_2 C12_2 1_555 1_555
C14_2 C13_2 1_555 1_555
H9_2 C14_2 1_555 1_555
C15_2 C10_2 1_555 1_555
H10_2 C15_2 1_555 1_555
C16_2 H11_2 1_555 1_555
C19_2 H14_2 1_555 1_555
C20_2 C19_2 1_555 1_555
H15_2 C20_2 1_555 1_555
C21_2 C20_2 1_555 1_555
H16_2 C21_2 1_555 1_555
C22_2 C21_2 1_555 1_555
C23_2 C22_2 1_555 1_555
C24_2 C23_2 1_555 1_555
C25_2 C24_2 1_555 1_555
H17_2 C25_2 1_555 1_555
C26_2 C25_2 1_555 1_555
C27_2 C26_2 1_555 1_555
H19_2 C27_2 1_555 1_555
C28_2 C23_2 1_555 1_555
C29_2 C28_2 1_555 1_555
H20_2 C29_2 1_555 1_555
C30_2 C29_2 1_555 1_555
H21_2 C30_2 1_555 1_555
C31_2 C30_2 1_555 1_555
C32 C31_2 1_555 1_555
H22 C32 1_555 1_555
C33_2 C28_2 1_555 1_555
H23 C33_2 1_555 1_555
C34_2 H24_2 1_555 1_555
C36_2 C35_2 1_555 1_555
H26 C36_2 1_555 1_555
N1_2 C1_2 1_555 1_555
N2_2 C6_2 1_555 1_555
N3_2 C13_2 1_555 1_555
N4_2 C16_2 1_555 1_555
N5_2 C19_2 1_555 1_555
N6_2 C24_2 1_555 1_555
N7_2 C31_2 1_555 1_555
N8_2 C34_2 1_555 1_555
Cd1_2 N1_2 1_555 1_555
N9 Cd1_2 1_555 1_555
N10_2 Cd1_2 1_555 1_555
C4_2 N1_2 1_555 1_555
C9 N2_2 1_555 1_555
C14_2 C15_2 1_555 1_555
C16_2 N3_2 1_555 1_555
C18_2 N3_2 1_555 1_555
C22_2 N5_2 1_555 1_555
C27_2 N6_2 1_555 1_555
C32 C33_2 1_555 1_555
C34_2 N7_2 1_555 1_555
C35_2 N8_2 1_555 1_555
C36_2 N7_2 1_555 1_555
N2_2 Cd1_2 1_555 1_555
N5_2 Cd1_2 1_555 1_555
N6_2 Cd1_2 1_555 1_555
C2_3 C1_3 1_555 1_555
H2_3 C2_3 1_555 1_555
C3_3 C2_3 1_555 1_555
H3_3 C3_3 1_555 1_555
C4_3 C3_3 1_555 1_555
C5_3 C4_3 1_555 1_555
C6_3 C5_3 1_555 1_555
C7_3 C6_3 1_555 1_555
H4_3 C7_3 1_555 1_555
C10_3 C5_3 1_555 1_555
C11_3 C10_3 1_555 1_555
H7_3 C11_3 1_555 1_555
C12_3 C11_3 1_555 1_555
H8 C12_3 1_555 1_555
C13_3 C12_3 1_555 1_555
C14_3 C13_3 1_555 1_555
H9_3 C14_3 1_555 1_555
C15_3 C10_3 1_555 1_555
H10_3 C15_3 1_555 1_555
C16_3 H11_3 1_555 1_555
C17 H12 1_555 1_555
C18_3 C17 1_555 1_555
H13 C18_3 1_555 1_555
N1_3 C1_3 1_555 1_555
N2_3 C6_3 1_555 1_555
N3_3 C13_3 1_555 1_555
N9 C16_3 1_555 1_555
C4_3 N1_3 1_555 1_555
C14_3 C15_3 1_555 1_555
C16_3 N3_3 1_555 1_555
C17 N9 1_555 1_555
C18_3 N3_3 1_555 1_555
C24_3 C23_3 1_555 1_555
C25_3 C24_3 1_555 1_555
H17_3 C25_3 1_555 1_555
C26_3 C25_3 1_555 1_555
H18 C26_3 1_555 1_555
C27_3 C26_3 1_555 1_555
H19_3 C27_3 1_555 1_555
C28_3 C23_3 1_555 1_555
C29_3 C28_3 1_555 1_555
H20_3 C29_3 1_555 1_555
C30_3 C29_3 1_555 1_555
H21_3 C30_3 1_555 1_555
C31_3 C30_3 1_555 1_555
C33_3 C28_3 1_555 1_555
C34_3 H24_3 1_555 1_555
C36_3 C35_3 1_555 1_555
N6_3 C24_3 1_555 1_555
N7_3 C31_3 1_555 1_555
N10 C34_3 1_555 1_555
C27_3 N6_3 1_555 1_555
C34_3 N7_3 1_555 1_555
C35_3 N10 1_555 1_555
C36_3 N7_3 1_555 1_555
N6_3 Cd2 1_555 1_555
H22_2 C32_2 1_555 1_555
C24_4 C23_4 1_555 1_555
C25_4 C24_4 1_555 1_555
H17_4 C25_4 1_555 1_555
C26_4 C25_4 1_555 1_555
H18_2 C26_4 1_555 1_555
C27_4 C26_4 1_555 1_555
H19_4 C27_4 1_555 1_555
C28_4 C23_4 1_555 1_555
C29_4 C28_4 1_555 1_555
H20_4 C29_4 1_555 1_555
C30_4 C29_4 1_555 1_555
H21_4 C30_4 1_555 1_555
C31_4 C30_4 1_555 1_555
C32_3 C31_4 1_555 1_555
H22_3 C32_3 1_555 1_555
C33_4 C28_4 1_555 1_555
H23_3 C33_4 1_555 1_555
C34_4 H24_4 1_555 1_555
C35_4 H25_2 1_555 1_555
C36_4 C35_4 1_555 1_555
H26_3 C36_4 1_555 1_555
N6_4 C24_4 1_555 1_555
N7_4 C31_4 1_555 1_555
N10_2 C34_4 1_555 1_555
C27_4 N6_4 1_555 1_555
C32_3 C33_4 1_555 1_555
C34_4 N7_4 1_555 1_555
C35_4 N10_2 1_555 1_555
C36_4 N7_4 1_555 1_555
N6_4 Cd3 1_555 1_555
H5_2 C8_2 1_555 1_555
C9_2 C8_2 1_555 1_555
H6_2 C9_2 1_555 1_555
H22_4 C32_4 1_555 1_555
C2_4 C1_4 1_555 1_555
H2_4 C2_4 1_555 1_555
C3_4 C2_4 1_555 1_555
H3_4 C3_4 1_555 1_555
C4_4 C3_4 1_555 1_555
C5_4 C4_4 1_555 1_555
C6_4 C5_4 1_555 1_555
C7_4 C6_4 1_555 1_555
H4_4 C7_4 1_555 1_555
C8_3 C7_4 1_555 1_555
H5_3 C8_3 1_555 1_555
C9_3 C8_3 1_555 1_555
H6_3 C9_3 1_555 1_555
C10_4 C5_4 1_555 1_555
C11_4 C10_4 1_555 1_555
H7_4 C11_4 1_555 1_555
C12_4 C11_4 1_555 1_555
H8_2 C12_4 1_555 1_555
C13_4 C12_4 1_555 1_555
C14_4 C13_4 1_555 1_555
H9_4 C14_4 1_555 1_555
C15_4 C10_4 1_555 1_555
H10_4 C15_4 1_555 1_555
C16_4 H11_4 1_555 1_555
C17_2 H12_2 1_555 1_555
C18_4 C17_2 1_555 1_555
H13_2 C18_4 1_555 1_555
N1_4 C1_4 1_555 1_555
N2_4 C6_4 1_555 1_555
N3_4 C13_4 1_555 1_555
N9_2 C16_4 1_555 1_555
C4_4 N1_4 1_555 1_555
C9_3 N2_4 1_555 1_555
C14_4 C15_4 1_555 1_555
C16_4 N3_4 1_555 1_555
C17_2 N9_2 1_555 1_555
C18_4 N3_4 1_555 1_555
C17_3 H12_3 1_555 1_555
C17_4 H12_4 1_555 1_555
H5_4 C8_4 1_555 1_555
C9_4 C8_4 1_555 1_555
H6_4 C9_4 1_555 1_555
C19_3 H14_3 1_555 1_555
C20_3 C19_3 1_555 1_555
H15_3 C20_3 1_555 1_555
C21_3 C20_3 1_555 1_555
H16_3 C21_3 1_555 1_555
C22_3 C21_3 1_555 1_555
N5_3 C19_3 1_555 1_555
C22_3 N5_3 1_555 1_555
C19_4 H14_4 1_555 1_555
C20_4 C19_4 1_555 1_555
H15_4 C20_4 1_555 1_555
C21_4 C20_4 1_555 1_555
H16_4 C21_4 1_555 1_555
C22_4 C21_4 1_555 1_555
N5_4 C19_4 1_555 1_555
C22_4 N5_4 1_555 1_555

#END
