
###############################################################################
#
# This file contains modified crystal structure data generated from the
# MOF subset of the Cambridge Structural Database (CSD) v543 
# hosted by the Cambridge Crystallographic Data Centre (CCDC).
#
# This work is licensed under the Creative Commons
# Attribution-NonCommercial-ShareAlike 4.0 International License.
# To view a copy of this license, visit
# http://creativecommons.org/licenses/by-nc-sa/4.0/
# or send a letter to
# Creative Commons, PO Box 1866, Mountain View, CA 94042, USA.
#
# CIF created using the CSD Python API on 29 September 2022
# The structure has been converted into the P1 space group
# The structure has a 3D framework
# The original CSD entry ZESTIC01 is in the monoclinic crystal system
# The framework has been calculated to contain at least 10.0% void space
# The void calculation uses a probe of radius 1.32A, grid spacing 0.4
#
###############################################################################

data_ZESTIC01
_chemical_formula_moiety         '(C144 H104 Cd4 N32)n'
_symmetry_cell_setting           triclinic
_symmetry_space_group_name_H-M   'P 1'
_symmetry_Int_Tables_number      1
_space_group_name_Hall           'P 1'
loop_
_symmetry_equiv_pos_site_id
_symmetry_equiv_pos_as_xyz
1 x,y,z
_cell_length_a                   24.7115(5)
_cell_length_b                   9.6638(2)
_cell_length_c                   18.3643(4)
_cell_angle_alpha                90
_cell_angle_beta                 107.8560(10)
_cell_angle_gamma                90
_cell_volume                     4174.27
loop_
_atom_site_label
_atom_site_type_symbol
_atom_site_fract_x
_atom_site_fract_y
_atom_site_fract_z
Cd3 Cd 0.003501(9) 0.933510(14) 0.235690(9)
H18 H 0.5962 0.5598 0.0401
C34 C 0.90080(13) 0.8589(3) 0.07362(14)
H24 H 0.8875 0.7982 0.1035
N8 N 0.94856(15) 0.9309(2) 0.09896(17)
C1 C 0.45817(14) 0.8779(3) 0.72058(16)
H1 H 0.4937 0.9045 0.7182
C2 C 0.41041(16) 0.9681(3) 0.7046(2)
C3 C 0.36586(14) 0.8876(3) 0.71423(17)
H3 H 0.3287 0.9158 0.7079
C4 C 0.38961(12) 0.7520(3) 0.73599(15)
C5 C 0.35860(11) 0.6375(2) 0.74704(12)
C6 C 0.37823(11) 0.4990(3) 0.76203(13)
C7 C 0.34515(12) 0.3873(3) 0.77780(14)
H4 H 0.3075 0.3915 0.7774
C8 C 0.37999(14) 0.2728(3) 0.79360(17)
H5 H 0.3707 0.1845 0.8061
C9 C 0.43322(13) 0.3177(3) 0.78690(14)
H6 H 0.4648 0.2605 0.7947
C10 C 0.29743(11) 0.6609(3) 0.73720(13)
C11 C 0.28098(13) 0.7370(3) 0.79141(14)
H7 H 0.3084 0.7709 0.8346
C12 C 0.22378(12) 0.7621(3) 0.78114(15)
H8 H 0.2129 0.8109 0.8181
C13 C 0.18236(11) 0.7143(3) 0.71532(13)
C14 C 0.19856(12) 0.6385(3) 0.66081(14)
H9 H 0.1714 0.6066 0.6168
C15 C 0.25620(13) 0.6113(3) 0.67339(15)
H10 H 0.2671 0.5584 0.6379
C16 C 0.10371(15) 0.8618(3) 0.72398(18)
H11 H 0.1265 0.9352 0.7483
C17 C 0.03163(13) 0.7354(3) 0.67258(17)
C18 C 0.07788(13) 0.6594(3) 0.67074(18)
H13 H 0.0783 0.5706 0.6515
C19 C 0.57705(14) 0.7220(3) 0.64132(15)
H14 H 0.5456 0.7156 0.5979
C20 C 0.63223(15) 0.7672(4) 0.64107(16)
H15 H 0.6428 0.7951 0.5989
C21 C 0.66558(15) 0.7611(4) 0.71442(16)
H16 H 0.7038 0.7851 0.7320
C22 C 0.63218(13) 0.7110(3) 0.76128(15)
C23 C 0.65105(11) 0.6923(3) 0.84011(13)
C24 C 0.61991(13) 0.6341(3) 0.88506(16)
C25 C 0.63771(17) 0.6313(4) 0.96627(19)
H17 H 0.6724 0.6634 0.9980
C26 C 0.5962(2) 0.5746(4) 0.9901(2)
C27 C 0.55237(15) 0.5425(3) 0.92130(17)
H19 H 0.5181 0.5012 0.9200
C28 C 0.70946(12) 0.7412(3) 0.88077(13)
C29 C 0.75142(13) 0.6518(3) 0.92184(16)
H20 H 0.7433 0.5581 0.9237
C30 C 0.80495(12) 0.6995(3) 0.95995(14)
H21 H 0.8324 0.6380 0.9881
C31 C 0.81839(11) 0.8356(3) 0.95709(12)
C32 C 0.77774(14) 0.9277(3) 0.91604(14)
C33 C 0.72398(12) 0.8805(3) 0.87659(14)
H23 H 0.6971 0.9417 0.8469
C36 C 0.90732(16) 0.9779(4) 0.97432(18)
N1 N 0.44617(10) 0.7517(2) 0.73929(11)
N2 N 0.43253(11) 0.4522(2) 0.76794(12)
N3 N 0.12330(11) 0.7430(3) 0.70346(15)
N4 N 0.04755(10) 0.8601(2) 0.70490(12)
N5 N 0.57669(10) 0.6899(2) 0.71252(12)
N6 N 0.56597(16) 0.5784(3) 0.85852(19)
N7 N 0.87358(11) 0.8849(3) 0.99807(12)
Cd1 Cd 0.503501(9) 0.566490(14) 0.735690(9)
N9 N 0.54755(10) 0.3601(2) 0.70490(12)
N10 N 0.44856(15) 0.5691(2) 0.59896(17)
C1_2 C 0.45817(14) 0.1221(3) 0.22058(16)
H1_2 H 0.4937 0.0955 0.2182
C2_2 C 0.41041(16) 0.0319(3) 0.2046(2)
C3_2 C 0.36586(14) 0.1124(3) 0.21423(17)
H3_2 H 0.3287 0.0842 0.2079
C4_2 C 0.38961(12) 0.2480(3) 0.23599(15)
C5_2 C 0.35860(11) 0.3625(2) 0.24704(12)
C6_2 C 0.37823(11) 0.5010(3) 0.26203(13)
C7_2 C 0.34515(12) 0.6127(3) 0.27780(14)
H4_2 H 0.3075 0.6085 0.2774
C8_2 C 0.37999(14) 0.7272(3) 0.29360(17)
H5_2 H 0.3707 0.8155 0.3061
C9_2 C 0.43322(13) 0.6823(3) 0.28690(14)
H6_2 H 0.4648 0.7395 0.2947
C10_2 C 0.29743(11) 0.3391(3) 0.23720(13)
C11_2 C 0.28098(13) 0.2630(3) 0.29141(14)
H7_2 H 0.3084 0.2291 0.3346
C12_2 C 0.22378(12) 0.2379(3) 0.28114(15)
H8_2 H 0.2129 0.1891 0.3181
C13_2 C 0.18236(11) 0.2857(3) 0.21532(13)
C14_2 C 0.19856(12) 0.3615(3) 0.16081(14)
H9_2 H 0.1714 0.3934 0.1168
C15_2 C 0.25620(13) 0.3887(3) 0.17339(15)
H10_2 H 0.2671 0.4416 0.1379
C16_2 C 0.10371(15) 0.1382(3) 0.22398(18)
H11_2 H 0.1265 0.0648 0.2483
C17_2 C 0.03163(13) 0.2646(3) 0.17258(17)
C18_2 C 0.07788(13) 0.3406(3) 0.17074(18)
H13_2 H 0.0783 0.4294 0.1515
C19_2 C 0.57705(14) 0.2780(3) 0.14132(15)
H14_2 H 0.5456 0.2844 0.0979
C20_2 C 0.63223(15) 0.2328(4) 0.14107(16)
H15_2 H 0.6428 0.2049 0.0989
C21_2 C 0.66558(15) 0.2389(4) 0.21442(16)
H16_2 H 0.7038 0.2149 0.2320
C22_2 C 0.63218(13) 0.2890(3) 0.26128(15)
C23_2 C 0.65105(11) 0.3077(3) 0.34011(13)
C24_2 C 0.61991(13) 0.3659(3) 0.38506(16)
C25_2 C 0.63771(17) 0.3687(4) 0.46627(19)
H17_2 H 0.6724 0.3366 0.4980
C26_2 C 0.5962(2) 0.4254(4) 0.4901(2)
H18_2 H 0.5962 0.4402 0.5401
C27_2 C 0.55237(15) 0.4575(3) 0.42130(17)
H19_2 H 0.5181 0.4988 0.4200
C28_2 C 0.70946(12) 0.2588(3) 0.38077(13)
C29_2 C 0.75142(13) 0.3482(3) 0.42184(16)
H20_2 H 0.7433 0.4419 0.4237
C30_2 C 0.80495(12) 0.3005(3) 0.45995(14)
H21_2 H 0.8324 0.3620 0.4881
C31_2 C 0.81839(11) 0.1644(3) 0.45709(12)
C32_2 C 0.77774(14) 0.0723(3) 0.41604(14)
C33_2 C 0.72398(12) 0.1195(3) 0.37659(14)
H23_2 H 0.6971 0.0583 0.3469
C34_2 C 0.90080(13) 0.1411(3) 0.57362(14)
H24_2 H 0.8875 0.2018 0.6035
C36_2 C 0.90732(16) 0.0221(4) 0.47432(18)
N1_2 N 0.44617(10) 0.2483(2) 0.23929(11)
N2_2 N 0.43253(11) 0.5478(2) 0.26794(12)
N3_2 N 0.12330(11) 0.2570(3) 0.20346(15)
N4_2 N 0.04755(10) 0.1399(2) 0.20490(12)
N5_2 N 0.57669(10) 0.3101(2) 0.21252(12)
N6_2 N 0.56597(16) 0.4216(3) 0.35852(19)
N7_2 N 0.87358(11) 0.1151(3) 0.49807(12)
N8_2 N 0.94856(15) 0.0691(2) 0.59896(17)
Cd1_2 Cd 0.503501(9) 0.433510(14) 0.235690(9)
N9_2 N 0.54755(10) 0.6399(2) 0.20490(12)
N10_2 N 0.44856(15) 0.4309(2) 0.09896(17)
H2 H 0.4090 0.9392 0.1906
H22 H 0.7865 0.9789 0.4150
C35 C 0.95283(14) 0.9972(3) 0.53689(17)
H25 H 0.9829 0.9389 0.5374
H26 H 0.9003 0.9845 0.4257
H18_3 H 0.0962 0.0598 0.0401
C34_3 C 0.40080(13) 0.3589(3) 0.07362(14)
H24_3 H 0.3875 0.2982 0.1035
C35_2 C 0.45283(14) 0.5028(3) 0.03689(17)
H25_2 H 0.4829 0.5611 0.0374
C1_3 C 0.95817(14) 0.3779(3) 0.72058(16)
H1_3 H 0.9937 0.4045 0.7182
C2_3 C 0.91041(16) 0.4681(3) 0.7046(2)
H2_2 H 0.9090 0.5608 0.6906
C3_3 C 0.86586(14) 0.3876(3) 0.71423(17)
H3_3 H 0.8287 0.4158 0.7079
C4_3 C 0.88961(12) 0.2520(3) 0.73599(15)
C5_3 C 0.85860(11) 0.1375(2) 0.74704(12)
C10_3 C 0.79743(11) 0.1609(3) 0.73720(13)
C11_3 C 0.78098(13) 0.2370(3) 0.79141(14)
H7_3 H 0.8084 0.2709 0.8346
C12_3 C 0.72378(12) 0.2621(3) 0.78114(15)
H8_3 H 0.7129 0.3109 0.8181
C13_3 C 0.68236(11) 0.2143(3) 0.71532(13)
C14_3 C 0.69856(12) 0.1385(3) 0.66081(14)
H9_3 H 0.6714 0.1066 0.6168
C15_3 C 0.75620(13) 0.1113(3) 0.67339(15)
H10_3 H 0.7671 0.0584 0.6379
C16_3 C 0.60371(15) 0.3618(3) 0.72398(18)
H11_3 H 0.6265 0.4352 0.7483
C17_3 C 0.53163(13) 0.2354(3) 0.67258(17)
H12 H 0.4942 0.2051 0.6540
C18_3 C 0.57788(13) 0.1594(3) 0.67074(18)
H13_3 H 0.5783 0.0706 0.6515
N1_3 N 0.94617(10) 0.2517(2) 0.73929(11)
N3_3 N 0.62330(11) 0.2430(3) 0.70346(15)
C19_3 C 0.07705(14) 0.7780(3) 0.14132(15)
H14_3 H 0.0456 0.7844 0.0979
C20_3 C 0.13223(15) 0.7328(4) 0.14107(16)
H15_3 H 0.1428 0.7049 0.0989
C21_3 C 0.16558(15) 0.7389(4) 0.21442(16)
H16_3 H 0.2038 0.7149 0.2320
C22_3 C 0.13218(13) 0.7890(3) 0.26128(15)
C23_3 C 0.15105(11) 0.8077(3) 0.34011(13)
C24_3 C 0.11991(13) 0.8659(3) 0.38506(16)
C25_3 C 0.13771(17) 0.8687(4) 0.46627(19)
H17_3 H 0.1724 0.8366 0.4980
C26_3 C 0.0962(2) 0.9254(4) 0.4901(2)
H18_4 H 0.0962 0.9402 0.5401
C27_3 C 0.05237(15) 0.9575(3) 0.42130(17)
H19_3 H 0.0181 0.9988 0.4200
C28_3 C 0.20946(12) 0.7588(3) 0.38077(13)
C29_3 C 0.25142(13) 0.8482(3) 0.42184(16)
H20_3 H 0.2433 0.9419 0.4237
C30_3 C 0.30495(12) 0.8005(3) 0.45995(14)
H21_3 H 0.3324 0.8620 0.4881
C31_3 C 0.31839(11) 0.6644(3) 0.45709(12)
C32_3 C 0.27774(14) 0.5723(3) 0.41604(14)
H22_2 H 0.2865 0.4789 0.4150
C33_3 C 0.22398(12) 0.6195(3) 0.37659(14)
H23_3 H 0.1971 0.5583 0.3469
C34_4 C 0.40080(13) 0.6411(3) 0.57362(14)
H24_4 H 0.3875 0.7018 0.6035
C35_3 C 0.45283(14) 0.4972(3) 0.53689(17)
H25_3 H 0.4829 0.4389 0.5374
C36_3 C 0.40732(16) 0.5221(4) 0.47432(18)
H26_2 H 0.4003 0.4845 0.4257
N5_3 N 0.07669(10) 0.8101(2) 0.21252(12)
N6_3 N 0.06597(16) 0.9216(3) 0.35852(19)
N7_3 N 0.37358(11) 0.6151(3) 0.49807(12)
C1_4 C 0.95817(14) 0.6221(3) 0.22058(16)
H1_4 H 0.9937 0.5955 0.2182
C2_4 C 0.91041(16) 0.5319(3) 0.2046(2)
H2_3 H 0.9090 0.4392 0.1906
C3_4 C 0.86586(14) 0.6124(3) 0.21423(17)
H3_4 H 0.8287 0.5842 0.2079
C4_4 C 0.88961(12) 0.7480(3) 0.23599(15)
C5_4 C 0.85860(11) 0.8625(2) 0.24704(12)
C10_4 C 0.79743(11) 0.8391(3) 0.23720(13)
C11_4 C 0.78098(13) 0.7630(3) 0.29141(14)
H7_4 H 0.8084 0.7291 0.3346
C12_4 C 0.72378(12) 0.7379(3) 0.28114(15)
H8_4 H 0.7129 0.6891 0.3181
C13_4 C 0.68236(11) 0.7857(3) 0.21532(13)
C14_4 C 0.69856(12) 0.8615(3) 0.16081(14)
H9_4 H 0.6714 0.8934 0.1168
C15_4 C 0.75620(13) 0.8887(3) 0.17339(15)
H10_4 H 0.7671 0.9416 0.1379
C16_4 C 0.60371(15) 0.6382(3) 0.22398(18)
H11_4 H 0.6265 0.5648 0.2483
C17_4 C 0.53163(13) 0.7646(3) 0.17258(17)
H12_2 H 0.4942 0.7949 0.1540
C18_4 C 0.57788(13) 0.8406(3) 0.17074(18)
H13_4 H 0.5783 0.9294 0.1515
N1_4 N 0.94617(10) 0.7483(2) 0.23929(11)
N3_4 N 0.62330(11) 0.7570(3) 0.20346(15)
C35_4 C 0.95283(14) 0.0028(3) 0.03689(17)
H25_4 H 0.9829 0.0611 0.0374
H2_4 H 0.4090 0.0608 0.6906
H22_3 H 0.7865 0.0211 0.9150
H26_3 H 0.9003 0.0155 0.9257
Cd2 Cd 0.003501(9) 0.066490(14) 0.735690(9)
C19_4 C 0.07705(14) 0.2220(3) 0.64132(15)
H14_4 H 0.0456 0.2156 0.5979
C20_4 C 0.13223(15) 0.2672(4) 0.64107(16)
H15_4 H 0.1428 0.2951 0.5989
C21_4 C 0.16558(15) 0.2611(4) 0.71442(16)
H16_4 H 0.2038 0.2851 0.7320
C22_4 C 0.13218(13) 0.2110(3) 0.76128(15)
C23_4 C 0.15105(11) 0.1923(3) 0.84011(13)
C24_4 C 0.11991(13) 0.1341(3) 0.88506(16)
C25_4 C 0.13771(17) 0.1313(4) 0.96627(19)
H17_4 H 0.1724 0.1634 0.9980
C26_4 C 0.0962(2) 0.0746(4) 0.9901(2)
C27_4 C 0.05237(15) 0.0425(3) 0.92130(17)
H19_4 H 0.0181 0.0012 0.9200
C28_4 C 0.20946(12) 0.2412(3) 0.88077(13)
C29_4 C 0.25142(13) 0.1518(3) 0.92184(16)
H20_4 H 0.2433 0.0581 0.9237
C30_4 C 0.30495(12) 0.1995(3) 0.95995(14)
H21_4 H 0.3324 0.1380 0.9881
C31_4 C 0.31839(11) 0.3356(3) 0.95709(12)
C32_4 C 0.27774(14) 0.4277(3) 0.91604(14)
H22_4 H 0.2865 0.5211 0.9150
C33_4 C 0.22398(12) 0.3805(3) 0.87659(14)
H23_4 H 0.1971 0.4417 0.8469
C36_4 C 0.40732(16) 0.4779(4) 0.97432(18)
H26_4 H 0.4003 0.5155 0.9257
N5_4 N 0.07669(10) 0.1899(2) 0.71252(12)
N6_4 N 0.06597(16) 0.0784(3) 0.85852(19)
N7_4 N 0.37358(11) 0.3849(3) 0.99807(12)
H12_3 H 0.9942 0.7051 0.6540
H12_4 H 0.9942 0.2949 0.1540
C6_3 C 0.87823(11) 0.9990(3) 0.76203(13)
C7_3 C 0.84515(12) 0.8873(3) 0.77780(14)
H4_3 H 0.8075 0.8915 0.7774
C8_3 C 0.87999(14) 0.7728(3) 0.79360(17)
H5_3 H 0.8707 0.6845 0.8061
C9_3 C 0.93322(13) 0.8177(3) 0.78690(14)
H6_3 H 0.9648 0.7605 0.7947
N2_3 N 0.93253(11) 0.9522(2) 0.76794(12)
C6_4 C 0.87823(11) 0.0010(3) 0.26203(13)
C7_4 C 0.84515(12) 0.1127(3) 0.27780(14)
H4_4 H 0.8075 0.1085 0.2774
C8_4 C 0.87999(14) 0.2272(3) 0.29360(17)
H5_4 H 0.8707 0.3155 0.3061
C9_4 C 0.93322(13) 0.1823(3) 0.28690(14)
H6_4 H 0.9648 0.2395 0.2947
N2_4 N 0.93253(11) 0.0478(2) 0.26794(12)
loop_
_geom_bond_atom_site_label_1
_geom_bond_atom_site_label_2
_geom_bond_site_symmetry_1
_geom_bond_site_symmetry_2
C34 H24 1_555 1_555
N8 C34 1_555 1_555
C1 H1 1_555 1_555
C2 C1 1_555 1_555
C3 C2 1_555 1_555
H3 C3 1_555 1_555
C4 C3 1_555 1_555
C5 C4 1_555 1_555
C6 C5 1_555 1_555
C7 C6 1_555 1_555
H4 C7 1_555 1_555
C8 C7 1_555 1_555
H5 C8 1_555 1_555
C9 C8 1_555 1_555
H6 C9 1_555 1_555
C10 C5 1_555 1_555
C11 C10 1_555 1_555
H7 C11 1_555 1_555
C12 C11 1_555 1_555
H8 C12 1_555 1_555
C13 C12 1_555 1_555
C14 C13 1_555 1_555
H9 C14 1_555 1_555
C15 C10 1_555 1_555
H10 C15 1_555 1_555
C16 H11 1_555 1_555
C18 C17 1_555 1_555
H13 C18 1_555 1_555
C19 H14 1_555 1_555
C20 C19 1_555 1_555
H15 C20 1_555 1_555
C21 C20 1_555 1_555
H16 C21 1_555 1_555
C22 C21 1_555 1_555
C23 C22 1_555 1_555
C24 C23 1_555 1_555
C25 C24 1_555 1_555
H17 C25 1_555 1_555
C26 C25 1_555 1_555
C27 C26 1_555 1_555
H19 C27 1_555 1_555
C28 C23 1_555 1_555
C29 C28 1_555 1_555
H20 C29 1_555 1_555
C30 C29 1_555 1_555
H21 C30 1_555 1_555
C31 C30 1_555 1_555
C32 C31 1_555 1_555
C33 C28 1_555 1_555
H23 C33 1_555 1_555
N1 C1 1_555 1_555
N2 C6 1_555 1_555
N3 C13 1_555 1_555
N4 C16 1_555 1_555
N5 C19 1_555 1_555
N6 C24 1_555 1_555
N7 C31 1_555 1_555
Cd1 N1 1_555 1_555
N9 Cd1 1_555 1_555
N10 Cd1 1_555 1_555
C4 N1 1_555 1_555
C9 N2 1_555 1_555
C14 C15 1_555 1_555
C16 N3 1_555 1_555
C17 N4 1_555 1_555
C18 N3 1_555 1_555
C22 N5 1_555 1_555
C27 N6 1_555 1_555
C32 C33 1_555 1_555
C36 N7 1_555 1_555
N2 Cd1 1_555 1_555
N5 Cd1 1_555 1_555
N6 Cd1 1_555 1_555
C1_2 H1_2 1_555 1_555
C2_2 C1_2 1_555 1_555
C3_2 C2_2 1_555 1_555
H3_2 C3_2 1_555 1_555
C4_2 C3_2 1_555 1_555
C5_2 C4_2 1_555 1_555
C6_2 C5_2 1_555 1_555
C7_2 C6_2 1_555 1_555
H4_2 C7_2 1_555 1_555
C8_2 C7_2 1_555 1_555
H5_2 C8_2 1_555 1_555
C9_2 C8_2 1_555 1_555
H6_2 C9_2 1_555 1_555
C10_2 C5_2 1_555 1_555
C11_2 C10_2 1_555 1_555
H7_2 C11_2 1_555 1_555
C12_2 C11_2 1_555 1_555
H8_2 C12_2 1_555 1_555
C13_2 C12_2 1_555 1_555
C14_2 C13_2 1_555 1_555
H9_2 C14_2 1_555 1_555
C15_2 C10_2 1_555 1_555
H10_2 C15_2 1_555 1_555
C16_2 H11_2 1_555 1_555
C18_2 C17_2 1_555 1_555
H13_2 C18_2 1_555 1_555
C19_2 H14_2 1_555 1_555
C20_2 C19_2 1_555 1_555
H15_2 C20_2 1_555 1_555
C21_2 C20_2 1_555 1_555
H16_2 C21_2 1_555 1_555
C22_2 C21_2 1_555 1_555
C23_2 C22_2 1_555 1_555
C24_2 C23_2 1_555 1_555
C25_2 C24_2 1_555 1_555
H17_2 C25_2 1_555 1_555
C26_2 C25_2 1_555 1_555
H18_2 C26_2 1_555 1_555
C27_2 C26_2 1_555 1_555
H19_2 C27_2 1_555 1_555
C28_2 C23_2 1_555 1_555
C29_2 C28_2 1_555 1_555
H20_2 C29_2 1_555 1_555
C30_2 C29_2 1_555 1_555
H21_2 C30_2 1_555 1_555
C31_2 C30_2 1_555 1_555
C32_2 C31_2 1_555 1_555
C33_2 C28_2 1_555 1_555
H23_2 C33_2 1_555 1_555
C34_2 H24_2 1_555 1_555
N1_2 C1_2 1_555 1_555
N2_2 C6_2 1_555 1_555
N3_2 C13_2 1_555 1_555
N4_2 C16_2 1_555 1_555
N5_2 C19_2 1_555 1_555
N6_2 C24_2 1_555 1_555
N7_2 C31_2 1_555 1_555
N8_2 C34_2 1_555 1_555
Cd1_2 N1_2 1_555 1_555
N9_2 Cd1_2 1_555 1_555
N10_2 Cd1_2 1_555 1_555
C4_2 N1_2 1_555 1_555
C9_2 N2_2 1_555 1_555
C14_2 C15_2 1_555 1_555
C16_2 N3_2 1_555 1_555
C17_2 N4_2 1_555 1_555
C18_2 N3_2 1_555 1_555
C22_2 N5_2 1_555 1_555
C27_2 N6_2 1_555 1_555
C32_2 C33_2 1_555 1_555
C34_2 N7_2 1_555 1_555
C36_2 N7_2 1_555 1_555
N2_2 Cd1_2 1_555 1_555
N5_2 Cd1_2 1_555 1_555
N6_2 Cd1_2 1_555 1_555
C35 H25 1_555 1_555
C34_3 H24_3 1_555 1_555
C35_2 H25_2 1_555 1_555
N10_2 C34_3 1_555 1_555
C35_2 N10_2 1_555 1_555
C1_3 H1_3 1_555 1_555
C2_3 C1_3 1_555 1_555
H2_2 C2_3 1_555 1_555
C3_3 C2_3 1_555 1_555
H3_3 C3_3 1_555 1_555
C4_3 C3_3 1_555 1_555
C5_3 C4_3 1_555 1_555
C10_3 C5_3 1_555 1_555
C11_3 C10_3 1_555 1_555
H7_3 C11_3 1_555 1_555
C12_3 C11_3 1_555 1_555
H8_3 C12_3 1_555 1_555
C13_3 C12_3 1_555 1_555
C14_3 C13_3 1_555 1_555
H9_3 C14_3 1_555 1_555
C15_3 C10_3 1_555 1_555
H10_3 C15_3 1_555 1_555
C16_3 H11_3 1_555 1_555
C17_3 H12 1_555 1_555
C18_3 C17_3 1_555 1_555
H13_3 C18_3 1_555 1_555
N1_3 C1_3 1_555 1_555
N3_3 C13_3 1_555 1_555
N9 C16_3 1_555 1_555
C4_3 N1_3 1_555 1_555
C14_3 C15_3 1_555 1_555
C16_3 N3_3 1_555 1_555
C17_3 N9 1_555 1_555
C18_3 N3_3 1_555 1_555
C19_3 H14_3 1_555 1_555
C20_3 C19_3 1_555 1_555
H15_3 C20_3 1_555 1_555
C21_3 C20_3 1_555 1_555
H16_3 C21_3 1_555 1_555
C22_3 C21_3 1_555 1_555
C23_3 C22_3 1_555 1_555
C24_3 C23_3 1_555 1_555
C25_3 C24_3 1_555 1_555
H17_3 C25_3 1_555 1_555
C26_3 C25_3 1_555 1_555
H18_4 C26_3 1_555 1_555
C27_3 C26_3 1_555 1_555
H19_3 C27_3 1_555 1_555
C28_3 C23_3 1_555 1_555
C29_3 C28_3 1_555 1_555
H20_3 C29_3 1_555 1_555
C30_3 C29_3 1_555 1_555
H21_3 C30_3 1_555 1_555
C31_3 C30_3 1_555 1_555
C32_3 C31_3 1_555 1_555
H22_2 C32_3 1_555 1_555
C33_3 C28_3 1_555 1_555
H23_3 C33_3 1_555 1_555
C34_4 H24_4 1_555 1_555
C35_3 H25_3 1_555 1_555
C36_3 C35_3 1_555 1_555
H26_2 C36_3 1_555 1_555
N5_3 C19_3 1_555 1_555
N6_3 C24_3 1_555 1_555
N7_3 C31_3 1_555 1_555
N10 C34_4 1_555 1_555
C22_3 N5_3 1_555 1_555
C27_3 N6_3 1_555 1_555
C32_3 C33_3 1_555 1_555
C34_4 N7_3 1_555 1_555
C35_3 N10 1_555 1_555
C36_3 N7_3 1_555 1_555
N5_3 Cd3 1_555 1_555
N6_3 Cd3 1_555 1_555
C1_4 H1_4 1_555 1_555
C2_4 C1_4 1_555 1_555
H2_3 C2_4 1_555 1_555
C3_4 C2_4 1_555 1_555
H3_4 C3_4 1_555 1_555
C4_4 C3_4 1_555 1_555
C5_4 C4_4 1_555 1_555
C10_4 C5_4 1_555 1_555
C11_4 C10_4 1_555 1_555
H7_4 C11_4 1_555 1_555
C12_4 C11_4 1_555 1_555
H8_4 C12_4 1_555 1_555
C13_4 C12_4 1_555 1_555
C14_4 C13_4 1_555 1_555
H9_4 C14_4 1_555 1_555
C15_4 C10_4 1_555 1_555
H10_4 C15_4 1_555 1_555
C16_4 H11_4 1_555 1_555
C17_4 H12_2 1_555 1_555
C18_4 C17_4 1_555 1_555
H13_4 C18_4 1_555 1_555
N1_4 C1_4 1_555 1_555
N3_4 C13_4 1_555 1_555
N9_2 C16_4 1_555 1_555
C4_4 N1_4 1_555 1_555
C14_4 C15_4 1_555 1_555
C16_4 N3_4 1_555 1_555
C17_4 N9_2 1_555 1_555
C18_4 N3_4 1_555 1_555
C35_4 H25_4 1_555 1_555
C19_4 H14_4 1_555 1_555
C20_4 C19_4 1_555 1_555
H15_4 C20_4 1_555 1_555
C21_4 C20_4 1_555 1_555
H16_4 C21_4 1_555 1_555
C22_4 C21_4 1_555 1_555
C23_4 C22_4 1_555 1_555
C24_4 C23_4 1_555 1_555
C25_4 C24_4 1_555 1_555
H17_4 C25_4 1_555 1_555
C26_4 C25_4 1_555 1_555
C27_4 C26_4 1_555 1_555
H19_4 C27_4 1_555 1_555
C28_4 C23_4 1_555 1_555
C29_4 C28_4 1_555 1_555
H20_4 C29_4 1_555 1_555
C30_4 C29_4 1_555 1_555
H21_4 C30_4 1_555 1_555
C31_4 C30_4 1_555 1_555
C32_4 C31_4 1_555 1_555
H22_4 C32_4 1_555 1_555
C33_4 C28_4 1_555 1_555
H23_4 C33_4 1_555 1_555
H26_4 C36_4 1_555 1_555
N5_4 C19_4 1_555 1_555
N6_4 C24_4 1_555 1_555
N7_4 C31_4 1_555 1_555
C22_4 N5_4 1_555 1_555
C27_4 N6_4 1_555 1_555
C32_4 C33_4 1_555 1_555
C36_4 N7_4 1_555 1_555
N5_4 Cd2 1_555 1_555
N6_4 Cd2 1_555 1_555
C7_3 C6_3 1_555 1_555
H4_3 C7_3 1_555 1_555
C8_3 C7_3 1_555 1_555
H5_3 C8_3 1_555 1_555
C9_3 C8_3 1_555 1_555
H6_3 C9_3 1_555 1_555
N2_3 C6_3 1_555 1_555
C9_3 N2_3 1_555 1_555
C7_4 C6_4 1_555 1_555
H4_4 C7_4 1_555 1_555
C8_4 C7_4 1_555 1_555
H5_4 C8_4 1_555 1_555
C9_4 C8_4 1_555 1_555
H6_4 C9_4 1_555 1_555
N2_4 C6_4 1_555 1_555
C9_4 N2_4 1_555 1_555

#END
