
###############################################################################
#
# This file contains modified crystal structure data generated from the
# MOF subset of the Cambridge Structural Database (CSD) v543 
# hosted by the Cambridge Crystallographic Data Centre (CCDC).
#
# This work is licensed under the Creative Commons
# Attribution-NonCommercial-ShareAlike 4.0 International License.
# To view a copy of this license, visit
# http://creativecommons.org/licenses/by-nc-sa/4.0/
# or send a letter to
# Creative Commons, PO Box 1866, Mountain View, CA 94042, USA.
#
# CIF created using the CSD Python API on 29 September 2022
# The structure has been converted into the P1 space group
# The structure has a 3D framework
# The original CSD entry ZESZEE is in the tetragonal crystal system
# The framework has been calculated to contain at least 10.0% void space
# The void calculation uses a probe of radius 1.32A, grid spacing 0.4
#
###############################################################################

data_ZESZEE
_chemical_formula_moiety         '(C240 H144 Al19 O96)n'
_symmetry_cell_setting           triclinic
_symmetry_space_group_name_H-M   'P 1'
_symmetry_Int_Tables_number      1
_space_group_name_Hall           'P 1'
loop_
_symmetry_equiv_pos_site_id
_symmetry_equiv_pos_as_xyz
1 x,y,z
_cell_length_a                   13.0625(5)
_cell_length_b                   13.0625(5)
_cell_length_c                   52.565(2)
_cell_angle_alpha                90
_cell_angle_beta                 90
_cell_angle_gamma                90
_cell_volume                     8969.11
loop_
_atom_site_label
_atom_site_type_symbol
_atom_site_fract_x
_atom_site_fract_y
_atom_site_fract_z
Al1 Al 0.0000 0.5000 0.0000
Al2 Al -0.0000 0.2500 0.004640(12)
O7 O 0.06245(11) 0.12532(8) 0.004336(19)
H10 H 0.1345(6) 0.1182(13) 0.0065(3)
Al4 Al 0.0000 0.0000 0.0000
O15 O 0.09510(11) 0.29377(8) 0.029951(19)
O17 O 0.11429(11) 0.45814(8) 0.01991(2)
Al1_2 Al -0.0000 0.5000 1.0000
O2 O 0.06406(12) 0.45486(8) 0.969483(19)
O3 O 0.09148(11) 0.28976(8) 0.977767(19)
O4 O 0.04377(8) 0.65490(11) 0.779951(19)
O5 O 0.20814(8) 0.63571(11) 0.76991(2)
O6 O 0.1963(3) 0.20807(16) 0.85057(3)
C1 C 0.09022(17) 0.36475(13) 0.96306(3)
C2 C 0.12173(16) 0.34955(12) 0.93596(3)
C3 C 0.13511(17) 0.25323(14) 0.92691(3)
H2 H 0.1330 0.1984 0.9382
C4 C 0.15157(18) 0.23472(16) 0.90174(3)
H3 H 0.1610 0.1681 0.8960
C5 C 0.15417(19) 0.31600(16) 0.88471(3)
C6 C 0.1407(2) 0.41369(16) 0.89365(3)
H4 H 0.1424 0.4688 0.8824
C7 C 0.1247(2) 0.43012(15) 0.91912(4)
H5 H 0.1158 0.4966 0.9251
C8 C 0.1701(3) 0.2953(2) 0.85707(4)
C9 C 0.1585(2) 0.37912(19) 0.83832(3)
C10 C 0.2399(2) 0.4053(2) 0.82310(5)
H6 H 0.3009 0.3689 0.8244
C11 C 0.23260(18) 0.4834(2) 0.80616(4)
H7 H 0.2906 0.5039 0.7972
C12 C 0.13996(14) 0.53333(17) 0.80187(3)
C13 C 0.0555(2) 0.5011(2) 0.81642(4)
C14 C 0.0693(2) 0.4270(2) 0.83501(4)
H9 H 0.0146 0.4101 0.8455
C15 C 0.12947(12) 0.61421(16) 0.78238(3)
Al3 Al 0.2500 0.7500 0.7500
Al4_2 Al 0.0000 0.0000 1.0000
Al7 Al 0.0000 0.7500 0.754640(12)
O13 O 0.06245(11) 0.62532(8) 0.995664(19)
Al4_3 Al -0.0000 1.0000 0.0000
H17 H 0.0089 0.9708 0.8136
Al4_4 Al 0.0000 1.0000 1.0000
Al1_3 Al 1.0000 0.5000 0.0000
Al2_2 Al 1.0000 0.2500 0.004640(12)
O1 O 0.93755(11) 0.37468(8) 0.004336(19)
H1 H 0.8655(6) 0.3818(13) 0.0065(3)
Al4_5 Al 1.0000 0.0000 0.0000
O14 O 0.93594(12) 0.54514(8) 0.030517(19)
O16 O 0.90490(11) 0.20623(8) 0.029951(19)
Al1_4 Al 1.0000 0.5000 1.0000
H8 H 0.9911 0.5292 0.8136
O8 O 0.93594(12) 0.04514(8) 0.969483(19)
O9 O 0.90852(11) 0.21024(8) 0.977767(19)
O12 O 0.8037(3) 0.29193(16) 0.85057(3)
C16 C 0.90978(17) 0.13525(13) 0.96306(3)
C17 C 0.87827(16) 0.15045(12) 0.93596(3)
C18 C 0.86489(17) 0.24677(14) 0.92691(3)
H11 H 0.8670 0.3016 0.9382
C19 C 0.84843(18) 0.26528(16) 0.90174(3)
H12 H 0.8390 0.3319 0.8960
C20 C 0.84583(19) 0.18400(16) 0.88471(3)
C21 C 0.8593(2) 0.08631(16) 0.89365(3)
H13 H 0.8576 0.0312 0.8824
C22 C 0.8753(2) 0.06988(15) 0.91912(4)
H14 H 0.8842 0.0034 0.9251
C23 C 0.8299(3) 0.2047(2) 0.85707(4)
C24 C 0.8415(2) 0.12088(19) 0.83832(3)
C25 C 0.7601(2) 0.0947(2) 0.82310(5)
H15 H 0.6991 0.1311 0.8244
C26 C 0.76740(18) 0.0166(2) 0.80616(4)
C29 C 0.9307(2) 0.0730(2) 0.83501(4)
H18 H 0.9854 0.0899 0.8455
Al4_6 Al 1.0000 0.0000 1.0000
Al7_2 Al 1.0000 0.7500 0.754640(12)
O18 O 0.88571(11) 0.54186(8) 0.98009(2)
Al4_7 Al 1.0000 1.0000 0.0000
O10 O 0.95623(8) 0.84510(11) 0.779951(19)
O11 O 0.79186(8) 0.86429(11) 0.76991(2)
H16 H 0.7094 0.9961 0.7972
C27 C 0.86004(14) 0.96667(17) 0.80187(3)
C28 C 0.9445(2) 0.9989(2) 0.81642(4)
C30 C 0.87053(12) 0.88579(16) 0.78238(3)
Al4_8 Al 1.0000 1.0000 1.0000
Al5 Al 0.7500 0.7500 0.7500
O10_2 O 0.54377(8) 0.15490(11) 0.279951(19)
O11_2 O 0.70814(8) 0.13571(11) 0.26991(2)
H16_2 H 0.7906 0.0039 0.2972
C27_2 C 0.63996(14) 0.03333(17) 0.30187(3)
C28_2 C 0.5555(2) 0.0011(2) 0.31642(4)
H17_2 H 0.4911 0.0292 0.3136
C30_2 C 0.62947(12) 0.11421(16) 0.28238(3)
Al4_9 Al 0.5000 0.0000 0.5000
Al5_2 Al 0.7500 0.2500 0.2500
Al6 Al 0.5000 0.2500 0.254640(12)
Al1_5 Al 0.5000 0.5000 0.5000
Al2_3 Al 0.5000 0.7500 0.504640(12)
O1_2 O 0.56245(11) 0.62532(8) 0.504336(19)
H1_2 H 0.6345(6) 0.6182(13) 0.5065(3)
O2_2 O 0.43594(12) 0.54514(8) 0.469483(19)
O3_2 O 0.40852(11) 0.71024(8) 0.477767(19)
O4_2 O 0.45623(8) 0.34510(11) 0.279951(19)
O5_2 O 0.29186(8) 0.36429(11) 0.26991(2)
O6_2 O 0.3037(3) 0.79193(16) 0.35057(3)
C1_2 C 0.40978(17) 0.63525(13) 0.46306(3)
C2_2 C 0.37827(16) 0.65045(12) 0.43596(3)
C3_2 C 0.36489(17) 0.74677(14) 0.42691(3)
H2_2 H 0.3670 0.8016 0.4382
C4_2 C 0.34843(18) 0.76528(16) 0.40174(3)
H3_2 H 0.3390 0.8319 0.3960
C5_2 C 0.34583(19) 0.68400(16) 0.38471(3)
C6_2 C 0.3593(2) 0.58631(16) 0.39365(3)
H4_2 H 0.3576 0.5312 0.3824
C7_2 C 0.3753(2) 0.56988(15) 0.41912(4)
H5_2 H 0.3842 0.5034 0.4251
C8_2 C 0.3299(3) 0.7047(2) 0.35707(4)
C9_2 C 0.3415(2) 0.62088(19) 0.33832(3)
C10_2 C 0.2601(2) 0.5947(2) 0.32310(5)
H6_2 H 0.1991 0.6311 0.3244
C11_2 C 0.26740(18) 0.5166(2) 0.30616(4)
H7_2 H 0.2094 0.4961 0.2972
C12_2 C 0.36004(14) 0.46667(17) 0.30187(3)
C13_2 C 0.4445(2) 0.4989(2) 0.31642(4)
H8_2 H 0.5089 0.4708 0.3136
C14_2 C 0.4307(2) 0.5730(2) 0.33501(4)
H9_2 H 0.4854 0.5899 0.3455
C15_2 C 0.37053(12) 0.38579(16) 0.28238(3)
O7_2 O 0.43755(11) 0.87468(8) 0.504336(19)
H10_2 H 0.3655(6) 0.8818(13) 0.5065(3)
O8_2 O 0.56406(12) 0.95486(8) 0.469483(19)
O9_2 O 0.59148(11) 0.78976(8) 0.477767(19)
O12_2 O 0.6963(3) 0.70807(16) 0.35057(3)
C16_2 C 0.59022(17) 0.86475(13) 0.46306(3)
C17_2 C 0.62173(16) 0.84955(12) 0.43596(3)
C18_2 C 0.63511(17) 0.75323(14) 0.42691(3)
H11_2 H 0.6330 0.6984 0.4382
C19_2 C 0.65157(18) 0.73472(16) 0.40174(3)
H12_2 H 0.6610 0.6681 0.3960
C20_2 C 0.65417(19) 0.81600(16) 0.38471(3)
C21_2 C 0.6407(2) 0.91369(16) 0.39365(3)
H13_2 H 0.6424 0.9688 0.3824
C22_2 C 0.6247(2) 0.93012(15) 0.41912(4)
H14_2 H 0.6158 0.9966 0.4251
C23_2 C 0.6701(3) 0.7953(2) 0.35707(4)
C24_2 C 0.6585(2) 0.87912(19) 0.33832(3)
C25_2 C 0.7399(2) 0.9053(2) 0.32310(5)
H15_2 H 0.8009 0.8689 0.3244
C26_2 C 0.73260(18) 0.9834(2) 0.30616(4)
C29_2 C 0.5693(2) 0.9270(2) 0.33501(4)
H18_2 H 0.5146 0.9101 0.3455
Al3_2 Al 0.2500 0.2500 0.2500
Al4_10 Al 0.5000 1.0000 0.5000
O13_2 O 0.43755(11) 0.37468(8) 0.495664(19)
O14_2 O 0.56406(12) 0.45486(8) 0.530517(19)
O15_2 O 0.40490(11) 0.70623(8) 0.529951(19)
O16_2 O 0.59510(11) 0.79377(8) 0.529951(19)
O17_2 O 0.38571(11) 0.54186(8) 0.51991(2)
O18_2 O 0.61429(11) 0.45814(8) 0.48009(2)
O1_3 O 0.37532(8) 0.18755(11) 0.254336(19)
H1_3 H 0.3682(13) 0.1155(6) 0.2565(3)
O2_3 O 0.29514(8) 0.31406(12) 0.219483(19)
O3_3 O 0.46024(8) 0.34148(11) 0.227767(19)
O6_3 O 0.54193(16) 0.4463(3) 0.10057(3)
C1_3 C 0.38525(13) 0.34022(17) 0.21306(3)
C2_3 C 0.40045(12) 0.37173(16) 0.18596(3)
C3_3 C 0.49677(14) 0.38511(17) 0.17691(3)
H2_3 H 0.5516 0.3830 0.1882
C4_3 C 0.51528(16) 0.40157(18) 0.15174(3)
H3_3 H 0.5819 0.4110 0.1460
C5_3 C 0.43400(16) 0.40417(19) 0.13471(3)
C6_3 C 0.33631(16) 0.3907(2) 0.14365(3)
H4_3 H 0.2812 0.3924 0.1324
C7_3 C 0.31988(15) 0.3747(2) 0.16912(4)
H5_3 H 0.2534 0.3658 0.1751
C8_3 C 0.4547(2) 0.4201(3) 0.10707(4)
C9_3 C 0.37088(19) 0.4085(2) 0.08832(3)
C10_3 C 0.3447(2) 0.4899(2) 0.07310(5)
H6_3 H 0.3811 0.5509 0.0744
C11_3 C 0.2666(2) 0.48260(18) 0.05616(4)
H7_3 H 0.2461 0.5406 0.0472
C12_3 C 0.21667(17) 0.38996(14) 0.05187(3)
C13_3 C 0.2489(2) 0.3055(2) 0.06642(4)
H8_3 H 0.2208 0.2411 0.0636
C14_3 C 0.3230(2) 0.3193(2) 0.08501(4)
H9_3 H 0.3399 0.2646 0.0955
C15_3 C 0.13579(16) 0.37947(12) 0.03238(3)
O7_3 O 0.62468(8) 0.31245(11) 0.254336(19)
H10_3 H 0.6318(13) 0.3845(6) 0.2565(3)
O8_3 O 0.70486(8) 0.18594(12) 0.219483(19)
O9_3 O 0.53976(8) 0.15852(11) 0.227767(19)
O11_3 O 0.88571(11) 0.04186(8) 0.01991(2)
O12_3 O 0.45807(16) 0.0537(3) 0.10057(3)
C16_3 C 0.61475(13) 0.15978(17) 0.21306(3)
C17_3 C 0.59955(12) 0.12827(16) 0.18596(3)
C18_3 C 0.50323(14) 0.11489(17) 0.17691(3)
H11_3 H 0.4484 0.1170 0.1882
C19_3 C 0.48472(16) 0.09843(18) 0.15174(3)
H12_3 H 0.4181 0.0890 0.1460
C20_3 C 0.56600(16) 0.09583(19) 0.13471(3)
C21_3 C 0.66369(16) 0.1093(2) 0.14365(3)
H13_3 H 0.7188 0.1076 0.1324
C22_3 C 0.68012(15) 0.1253(2) 0.16912(4)
H14_3 H 0.7466 0.1342 0.1751
C23_3 C 0.5453(2) 0.0799(3) 0.10707(4)
C24_3 C 0.62912(19) 0.0915(2) 0.08832(3)
C25_3 C 0.6553(2) 0.0101(2) 0.07310(5)
C26_3 C 0.7334(2) 0.01740(18) 0.05616(4)
C27_3 C 0.78333(17) 0.11004(14) 0.05187(3)
C28_3 C 0.7511(2) 0.1945(2) 0.06642(4)
H17_3 H 0.7792 0.2589 0.0636
C29_3 C 0.6770(2) 0.1807(2) 0.08501(4)
H18_3 H 0.6601 0.2354 0.0955
C30_3 C 0.86421(16) 0.12053(12) 0.03238(3)
O13_3 O 0.12468(8) 0.31245(11) 0.245664(19)
O14_3 O 0.20486(8) 0.18594(12) 0.280517(19)
O18_3 O 0.20814(8) 0.13571(11) 0.23009(2)
H15_3 H 0.6189 0.9491 0.0744
H16_3 H 0.7539 0.9594 0.0472
O1_4 O 0.12468(8) 0.81245(11) 0.754336(19)
H1_4 H 0.1318(13) 0.8845(6) 0.7565(3)
O2_4 O 0.20486(8) 0.68594(12) 0.719483(19)
O3_4 O 0.03976(8) 0.65852(11) 0.727767(19)
C1_4 C 0.11475(13) 0.65978(17) 0.71306(3)
C2_4 C 0.09955(12) 0.62827(16) 0.68596(3)
C3_4 C 0.00323(14) 0.61489(17) 0.67691(3)
C5_4 C 0.06600(16) 0.59583(19) 0.63471(3)
C6_4 C 0.16369(16) 0.6093(2) 0.64365(3)
H4_4 H 0.2188 0.6076 0.6324
C7_4 C 0.18012(15) 0.6253(2) 0.66912(4)
H5_4 H 0.2466 0.6342 0.6751
C8_4 C 0.0453(2) 0.5799(3) 0.60707(4)
C9_4 C 0.12912(19) 0.5915(2) 0.58832(3)
C10_4 C 0.1553(2) 0.5101(2) 0.57310(5)
H6_4 H 0.1189 0.4491 0.5744
C11_4 C 0.2334(2) 0.51740(18) 0.55616(4)
H7_4 H 0.2539 0.4594 0.5472
C12_4 C 0.28333(17) 0.61004(14) 0.55187(3)
C13_4 C 0.2511(2) 0.6945(2) 0.56642(4)
H8_4 H 0.2792 0.7589 0.5636
C14_4 C 0.1770(2) 0.6807(2) 0.58501(4)
H9_4 H 0.1601 0.7354 0.5955
C15_4 C 0.36421(16) 0.62053(12) 0.53238(3)
O12_4 O 0.04193(16) 0.9463(3) 0.60057(3)
H11_4 H 0.0516 0.8830 0.6882
C19_4 C 0.01528(16) 0.90157(18) 0.65174(3)
H12_4 H 0.0819 0.9110 0.6460
O13_4 O 0.37532(8) 0.68755(11) 0.745664(19)
O14_4 O 0.29514(8) 0.81406(12) 0.780517(19)
O18_4 O 0.29186(8) 0.86429(11) 0.73009(2)
H15_4 H 0.8811 0.0509 0.5744
H16_4 H 0.7461 0.0406 0.5472
O6_4 O 0.95807(16) 0.5537(3) 0.60057(3)
H2_4 H 0.9484 0.6170 0.6882
C4_4 C 0.98472(16) 0.59843(18) 0.65174(3)
H3_4 H 0.9181 0.5890 0.6460
O7_4 O 0.87532(8) 0.68755(11) 0.754336(19)
H10_4 H 0.8682(13) 0.6155(6) 0.7565(3)
O8_4 O 0.79514(8) 0.81406(12) 0.719483(19)
O9_4 O 0.96024(8) 0.84148(11) 0.727767(19)
O11_4 O 0.61429(11) 0.95814(8) 0.51991(2)
C16_4 C 0.88525(13) 0.84022(17) 0.71306(3)
C17_4 C 0.90045(12) 0.87173(16) 0.68596(3)
C18_4 C 0.99677(14) 0.88511(17) 0.67691(3)
C20_4 C 0.93400(16) 0.90417(19) 0.63471(3)
C21_4 C 0.83631(16) 0.8907(2) 0.64365(3)
H13_4 H 0.7812 0.8924 0.6324
C22_4 C 0.81988(15) 0.8747(2) 0.66912(4)
H14_4 H 0.7534 0.8658 0.6751
C23_4 C 0.9547(2) 0.9201(3) 0.60707(4)
C24_4 C 0.87088(19) 0.9085(2) 0.58832(3)
C25_4 C 0.8447(2) 0.9899(2) 0.57310(5)
C26_4 C 0.7666(2) 0.98260(18) 0.55616(4)
C27_4 C 0.71667(17) 0.88996(14) 0.55187(3)
C28_4 C 0.7489(2) 0.8055(2) 0.56642(4)
H17_4 H 0.7208 0.7411 0.5636
C29_4 C 0.8230(2) 0.8193(2) 0.58501(4)
H18_4 H 0.8399 0.7646 0.5955
C30_4 C 0.63579(16) 0.87947(12) 0.53238(3)
O13_5 O 0.56245(11) 0.12532(8) 0.495664(19)
O14_5 O 0.43594(12) 0.04514(8) 0.530517(19)
O18_5 O 0.38571(11) 0.04186(8) 0.48009(2)
O14_6 O 0.06406(12) 0.95486(8) 0.030517(19)
O18_6 O 0.11429(11) 0.95814(8) 0.98009(2)
O13_6 O 0.93755(11) 0.87468(8) 0.995664(19)
O13_7 O 0.62468(8) 0.81245(11) 0.745664(19)
O14_7 O 0.70486(8) 0.68594(12) 0.780517(19)
O18_7 O 0.70814(8) 0.63571(11) 0.73009(2)
O13_8 O 0.87532(8) 0.18755(11) 0.245664(19)
O14_8 O 0.79514(8) 0.31406(12) 0.280517(19)
O18_8 O 0.79186(8) 0.36429(11) 0.23009(2)
O10_3 O 0.04377(8) 0.15490(11) 0.220049(19)
H16_5 H 0.2906 0.0039 0.2028
C27_5 C 0.13996(14) 0.03333(17) 0.19813(3)
C28_5 C 0.0555(2) 0.0011(2) 0.18358(4)
C30_5 C 0.12947(12) 0.11421(16) 0.21762(3)
Al6_2 Al 0.0000 0.2500 0.245360(12)
H8_5 H 0.0089 0.4708 0.1864
O9_5 O 0.09148(11) 0.78976(8) 0.022233(19)
O12_5 O 0.1963(3) 0.70807(16) 0.14943(3)
C16_5 C 0.09022(17) 0.86475(13) 0.03694(3)
C17_5 C 0.12173(16) 0.84955(12) 0.06404(3)
C18_5 C 0.13511(17) 0.75323(14) 0.07309(3)
H11_5 H 0.1330 0.6984 0.0618
C19_5 C 0.15157(18) 0.73472(16) 0.09826(3)
H12_5 H 0.1610 0.6681 0.1040
C20_5 C 0.15417(19) 0.81600(16) 0.11529(3)
C21_5 C 0.1407(2) 0.91369(16) 0.10635(3)
H13_5 H 0.1424 0.9688 0.1176
C22_5 C 0.1247(2) 0.93012(15) 0.08088(4)
H14_5 H 0.1158 0.9966 0.0749
C23_5 C 0.1701(3) 0.7953(2) 0.14293(4)
C24_5 C 0.1585(2) 0.87912(19) 0.16168(3)
C25_5 C 0.2399(2) 0.9053(2) 0.17690(5)
H15_5 H 0.3009 0.8689 0.1756
C26_5 C 0.23260(18) 0.9834(2) 0.19384(4)
C29_5 C 0.0693(2) 0.9270(2) 0.16499(4)
H18_5 H 0.0146 0.9101 0.1545
Al2_4 Al 0.0000 0.7500 0.995360(12)
H1_5 H 0.1345(6) 0.6182(13) 0.9935(3)
O16_3 O 0.09510(11) 0.79377(8) 0.970049(19)
H17_5 H 0.9911 0.0292 0.1864
Al6_3 Al 1.0000 0.2500 0.245360(12)
O3_5 O 0.90852(11) 0.71024(8) 0.022233(19)
O4_3 O 0.95623(8) 0.34510(11) 0.220049(19)
O6_5 O 0.8037(3) 0.79193(16) 0.14943(3)
C1_5 C 0.90978(17) 0.63525(13) 0.03694(3)
C2_5 C 0.87827(16) 0.65045(12) 0.06404(3)
C3_5 C 0.86489(17) 0.74677(14) 0.07309(3)
H2_5 H 0.8670 0.8016 0.0618
C4_5 C 0.84843(18) 0.76528(16) 0.09826(3)
H3_5 H 0.8390 0.8319 0.1040
C5_5 C 0.84583(19) 0.68400(16) 0.11529(3)
C6_5 C 0.8593(2) 0.58631(16) 0.10635(3)
H4_5 H 0.8576 0.5312 0.1176
C7_5 C 0.8753(2) 0.56988(15) 0.08088(4)
H5_5 H 0.8842 0.5034 0.0749
C8_5 C 0.8299(3) 0.7047(2) 0.14293(4)
C9_5 C 0.8415(2) 0.62088(19) 0.16168(3)
C10_5 C 0.7601(2) 0.5947(2) 0.17690(5)
H6_5 H 0.6991 0.6311 0.1756
C11_5 C 0.76740(18) 0.5166(2) 0.19384(4)
H7_5 H 0.7094 0.4961 0.2028
C12_5 C 0.86004(14) 0.46667(17) 0.19813(3)
C13_5 C 0.9445(2) 0.4989(2) 0.18358(4)
C14_5 C 0.9307(2) 0.5730(2) 0.16499(4)
H9_5 H 0.9854 0.5899 0.1545
C15_5 C 0.87053(12) 0.38579(16) 0.21762(3)
Al2_5 Al 1.0000 0.7500 0.995360(12)
H10_5 H 0.8655(6) 0.8818(13) 0.9935(3)
O15_3 O 0.90490(11) 0.70623(8) 0.970049(19)
Al2_6 Al 0.5000 0.2500 0.495360(12)
H1_6 H 0.3655(6) 0.3818(13) 0.4935(3)
O3_6 O 0.59148(11) 0.28976(8) 0.522233(19)
O4_4 O 0.54377(8) 0.65490(11) 0.720049(19)
O6_6 O 0.6963(3) 0.20807(16) 0.64943(3)
C1_6 C 0.59022(17) 0.36475(13) 0.53694(3)
C2_6 C 0.62173(16) 0.34955(12) 0.56404(3)
C3_6 C 0.63511(17) 0.25323(14) 0.57309(3)
H2_6 H 0.6330 0.1984 0.5618
C4_6 C 0.65157(18) 0.23472(16) 0.59826(3)
H3_6 H 0.6610 0.1681 0.6040
C5_6 C 0.65417(19) 0.31600(16) 0.61529(3)
C6_6 C 0.6407(2) 0.41369(16) 0.60635(3)
H4_6 H 0.6424 0.4688 0.6176
C7_6 C 0.6247(2) 0.43012(15) 0.58088(4)
H5_6 H 0.6158 0.4966 0.5749
C8_6 C 0.6701(3) 0.2953(2) 0.64293(4)
C9_6 C 0.6585(2) 0.37912(19) 0.66168(3)
C10_6 C 0.7399(2) 0.4053(2) 0.67690(5)
H6_6 H 0.8009 0.3689 0.6756
C11_6 C 0.73260(18) 0.4834(2) 0.69384(4)
H7_6 H 0.7906 0.5039 0.7028
C12_6 C 0.63996(14) 0.53333(17) 0.69813(3)
C13_6 C 0.5555(2) 0.5011(2) 0.68358(4)
H8_6 H 0.4911 0.5292 0.6864
C14_6 C 0.5693(2) 0.4270(2) 0.66499(4)
H9_6 H 0.5146 0.4101 0.6545
C15_6 C 0.62947(12) 0.61421(16) 0.71762(3)
H10_6 H 0.6345(6) 0.1182(13) 0.4935(3)
O9_6 O 0.40852(11) 0.21024(8) 0.522233(19)
O12_6 O 0.3037(3) 0.29193(16) 0.64943(3)
C16_6 C 0.40978(17) 0.13525(13) 0.53694(3)
C17_6 C 0.37827(16) 0.15045(12) 0.56404(3)
C18_6 C 0.36489(17) 0.24677(14) 0.57309(3)
H11_6 H 0.3670 0.3016 0.5618
C19_6 C 0.34843(18) 0.26528(16) 0.59826(3)
H12_6 H 0.3390 0.3319 0.6040
C20_6 C 0.34583(19) 0.18400(16) 0.61529(3)
C21_6 C 0.3593(2) 0.08631(16) 0.60635(3)
H13_6 H 0.3576 0.0312 0.6176
C22_6 C 0.3753(2) 0.06988(15) 0.58088(4)
H14_6 H 0.3842 0.0034 0.5749
C23_6 C 0.3299(3) 0.2047(2) 0.64293(4)
C24_6 C 0.3415(2) 0.12088(19) 0.66168(3)
C25_6 C 0.2601(2) 0.0947(2) 0.67690(5)
H15_6 H 0.1991 0.1311 0.6756
C26_6 C 0.26740(18) 0.0166(2) 0.69384(4)
C29_6 C 0.4307(2) 0.0730(2) 0.66499(4)
H18_6 H 0.4854 0.0899 0.6545
Al7_3 Al 0.5000 0.7500 0.745360(12)
O15_4 O 0.59510(11) 0.29377(8) 0.470049(19)
O16_4 O 0.40490(11) 0.20623(8) 0.470049(19)
O10_4 O 0.45623(8) 0.84510(11) 0.720049(19)
H16_6 H 0.2094 0.9961 0.7028
C27_6 C 0.36004(14) 0.96667(17) 0.69813(3)
C28_6 C 0.4445(2) 0.9989(2) 0.68358(4)
H17_6 H 0.5089 0.9708 0.6864
C30_6 C 0.37053(12) 0.88579(16) 0.71762(3)
H15_7 H 0.3811 0.0509 0.9256
H16_7 H 0.2461 0.0406 0.9528
H1_7 H 0.6318(13) 0.8845(6) 0.7435(3)
O3_7 O 0.53976(8) 0.65852(11) 0.772233(19)
O6_7 O 0.45807(16) 0.5537(3) 0.89943(3)
C1_7 C 0.61475(13) 0.65978(17) 0.78694(3)
C2_7 C 0.59955(12) 0.62827(16) 0.81404(3)
C3_7 C 0.50323(14) 0.61489(17) 0.82309(3)
H2_7 H 0.4484 0.6170 0.8118
C4_7 C 0.48472(16) 0.59843(18) 0.84826(3)
H3_7 H 0.4181 0.5890 0.8540
C5_7 C 0.56600(16) 0.59583(19) 0.86529(3)
C6_7 C 0.66369(16) 0.6093(2) 0.85635(3)
H4_7 H 0.7188 0.6076 0.8676
C7_7 C 0.68012(15) 0.6253(2) 0.83088(4)
H5_7 H 0.7466 0.6342 0.8249
C8_7 C 0.5453(2) 0.5799(3) 0.89293(4)
C9_7 C 0.62912(19) 0.5915(2) 0.91168(3)
C10_7 C 0.6553(2) 0.5101(2) 0.92690(5)
H6_7 H 0.6189 0.4491 0.9256
C11_7 C 0.7334(2) 0.51740(18) 0.94384(4)
H7_7 H 0.7539 0.4594 0.9528
C12_7 C 0.78333(17) 0.61004(14) 0.94813(3)
C13_7 C 0.7511(2) 0.6945(2) 0.93358(4)
H8_7 H 0.7792 0.7589 0.9364
C14_7 C 0.6770(2) 0.6807(2) 0.91499(4)
H9_7 H 0.6601 0.7354 0.9045
C15_7 C 0.86421(16) 0.62053(12) 0.96762(3)
H10_7 H 0.3682(13) 0.6155(6) 0.7435(3)
O9_7 O 0.46024(8) 0.84148(11) 0.772233(19)
O12_7 O 0.54193(16) 0.9463(3) 0.89943(3)
C16_7 C 0.38525(13) 0.84022(17) 0.78694(3)
C17_7 C 0.40045(12) 0.87173(16) 0.81404(3)
C18_7 C 0.49677(14) 0.88511(17) 0.82309(3)
H11_7 H 0.5516 0.8830 0.8118
C19_7 C 0.51528(16) 0.90157(18) 0.84826(3)
H12_7 H 0.5819 0.9110 0.8540
C20_7 C 0.43400(16) 0.90417(19) 0.86529(3)
C21_7 C 0.33631(16) 0.8907(2) 0.85635(3)
H13_7 H 0.2812 0.8924 0.8676
C22_7 C 0.31988(15) 0.8747(2) 0.83088(4)
H14_7 H 0.2534 0.8658 0.8249
C23_7 C 0.4547(2) 0.9201(3) 0.89293(4)
C24_7 C 0.37088(19) 0.9085(2) 0.91168(3)
C25_7 C 0.3447(2) 0.9899(2) 0.92690(5)
C26_7 C 0.2666(2) 0.98260(18) 0.94384(4)
C27_7 C 0.21667(17) 0.88996(14) 0.94813(3)
C28_7 C 0.2489(2) 0.8055(2) 0.93358(4)
H17_7 H 0.2208 0.7411 0.9364
C29_7 C 0.3230(2) 0.8193(2) 0.91499(4)
H18_7 H 0.3399 0.7646 0.9045
C30_7 C 0.13579(16) 0.87947(12) 0.96762(3)
O6_8 O 0.04193(16) 0.4463(3) 0.39943(3)
H2_8 H 0.0516 0.3830 0.3118
C4_8 C 0.01528(16) 0.40157(18) 0.34826(3)
H3_8 H 0.0819 0.4110 0.3540
H10_8 H 0.1318(13) 0.3845(6) 0.2435(3)
O9_8 O 0.03976(8) 0.15852(11) 0.272233(19)
C16_8 C 0.11475(13) 0.15978(17) 0.28694(3)
C17_8 C 0.09955(12) 0.12827(16) 0.31404(3)
C18_8 C 0.00323(14) 0.11489(17) 0.32309(3)
C20_8 C 0.06600(16) 0.09583(19) 0.36529(3)
C21_8 C 0.16369(16) 0.1093(2) 0.35635(3)
H13_8 H 0.2188 0.1076 0.3676
C22_8 C 0.18012(15) 0.1253(2) 0.33088(4)
H14_8 H 0.2466 0.1342 0.3249
C23_8 C 0.0453(2) 0.0799(3) 0.39293(4)
C24_8 C 0.12912(19) 0.0915(2) 0.41168(3)
C25_8 C 0.1553(2) 0.0101(2) 0.42690(5)
C26_8 C 0.2334(2) 0.01740(18) 0.44384(4)
C27_8 C 0.28333(17) 0.11004(14) 0.44813(3)
C28_8 C 0.2511(2) 0.1945(2) 0.43358(4)
H17_8 H 0.2792 0.2589 0.4364
C29_8 C 0.1770(2) 0.1807(2) 0.41499(4)
H18_8 H 0.1601 0.2354 0.4045
C30_8 C 0.36421(16) 0.12053(12) 0.46762(3)
H15_8 H 0.1189 0.9491 0.4256
H16_8 H 0.2539 0.9594 0.4528
H1_8 H 0.8682(13) 0.1155(6) 0.2435(3)
O3_8 O 0.96024(8) 0.34148(11) 0.272233(19)
C1_8 C 0.88525(13) 0.34022(17) 0.28694(3)
C2_8 C 0.90045(12) 0.37173(16) 0.31404(3)
C3_8 C 0.99677(14) 0.38511(17) 0.32309(3)
C5_8 C 0.93400(16) 0.40417(19) 0.36529(3)
C6_8 C 0.83631(16) 0.3907(2) 0.35635(3)
H4_8 H 0.7812 0.3924 0.3676
C7_8 C 0.81988(15) 0.3747(2) 0.33088(4)
H5_8 H 0.7534 0.3658 0.3249
C8_8 C 0.9547(2) 0.4201(3) 0.39293(4)
C9_8 C 0.87088(19) 0.4085(2) 0.41168(3)
C10_8 C 0.8447(2) 0.4899(2) 0.42690(5)
H6_8 H 0.8811 0.5509 0.4256
C11_8 C 0.7666(2) 0.48260(18) 0.44384(4)
H7_8 H 0.7461 0.5406 0.4528
C12_8 C 0.71667(17) 0.38996(14) 0.44813(3)
C13_8 C 0.7489(2) 0.3055(2) 0.43358(4)
H8_8 H 0.7208 0.2411 0.4364
C14_8 C 0.8230(2) 0.3193(2) 0.41499(4)
H9_8 H 0.8399 0.2646 0.4045
C15_8 C 0.63579(16) 0.37947(12) 0.46762(3)
O12_8 O 0.95807(16) 0.0537(3) 0.39943(3)
H11_8 H 0.9484 0.1170 0.3118
C19_8 C 0.98472(16) 0.09843(18) 0.34826(3)
H12_8 H 0.9181 0.0890 0.3540
loop_
_geom_bond_atom_site_label_1
_geom_bond_atom_site_label_2
_geom_bond_site_symmetry_1
_geom_bond_site_symmetry_2
O7 Al2 1_555 1_555
H10 O7 1_555 1_555
Al4 O7 1_555 1_555
O15 Al2 1_555 1_555
O17 Al1 1_555 1_555
O2 Al1_2 1_555 1_555
O4 C15 1_555 1_555
O5 C15 1_555 1_555
O6 C8 1_555 1_555
C1 O2 1_555 1_555
C2 C1 1_555 1_555
C3 C2 1_555 1_555
H2 C3 1_555 1_555
C4 C3 1_555 1_555
H3 C4 1_555 1_555
C5 C4 1_555 1_555
C6 C5 1_555 1_555
H4 C6 1_555 1_555
C7 C2 1_555 1_555
H5 C7 1_555 1_555
C8 C5 1_555 1_555
C9 C8 1_555 1_555
C10 C9 1_555 1_555
H6 C10 1_555 1_555
C11 C10 1_555 1_555
H7 C11 1_555 1_555
C12 C11 1_555 1_555
C13 C12 1_555 1_555
C14 C9 1_555 1_555
H9 C14 1_555 1_555
C15 C12 1_555 1_555
Al3 O5 1_555 1_555
Al7 O4 1_555 1_555
O13 Al1_2 1_555 1_555
O3 C1 1_555 1_555
C6 C7 1_555 1_555
C13 C14 1_555 1_555
Al1_3 O1 1_555 1_555
Al2_2 O1 1_555 1_555
O1 H1 1_555 1_555
O14 Al1_3 1_555 1_555
O16 Al2_2 1_555 1_555
O8 C16 1_555 1_555
O12 C23 1_555 1_555
C16 O9 1_555 1_555
C17 C16 1_555 1_555
C18 C17 1_555 1_555
H11 C18 1_555 1_555
C19 C18 1_555 1_555
H12 C19 1_555 1_555
C20 C19 1_555 1_555
C21 C20 1_555 1_555
H13 C21 1_555 1_555
C22 C17 1_555 1_555
H14 C22 1_555 1_555
C23 C20 1_555 1_555
C24 C23 1_555 1_555
C25 C24 1_555 1_555
H15 C25 1_555 1_555
C26 C25 1_555 1_555
C29 C24 1_555 1_555
H18 C29 1_555 1_555
O18 Al1_4 1_555 1_555
O8 Al4_6 1_555 1_555
C21 C22 1_555 1_555
O10 C30 1_555 1_555
O11 C30 1_555 1_555
C28 C27 1_555 1_555
C30 C27 1_555 1_555
Al5 O11 1_555 1_555
Al7_2 O10 1_555 1_555
O10_2 C30_2 1_555 1_555
O11_2 C30_2 1_555 1_555
C28_2 C27_2 1_555 1_555
H17_2 C28_2 1_555 1_555
C30_2 C27_2 1_555 1_555
Al5_2 O11_2 1_555 1_555
Al6 O10_2 1_555 1_555
Al1_5 O1_2 1_555 1_555
Al2_3 O1_2 1_555 1_555
O1_2 H1_2 1_555 1_555
O2_2 Al1_5 1_555 1_555
O3_2 Al2_3 1_555 1_555
O4_2 C15_2 1_555 1_555
O5_2 C15_2 1_555 1_555
O6_2 C8_2 1_555 1_555
C1_2 O2_2 1_555 1_555
C2_2 C1_2 1_555 1_555
C3_2 C2_2 1_555 1_555
H2_2 C3_2 1_555 1_555
C4_2 C3_2 1_555 1_555
H3_2 C4_2 1_555 1_555
C5_2 C4_2 1_555 1_555
C6_2 C5_2 1_555 1_555
H4_2 C6_2 1_555 1_555
C7_2 C2_2 1_555 1_555
H5_2 C7_2 1_555 1_555
C8_2 C5_2 1_555 1_555
C9_2 C8_2 1_555 1_555
C10_2 C9_2 1_555 1_555
H6_2 C10_2 1_555 1_555
C11_2 C10_2 1_555 1_555
H7_2 C11_2 1_555 1_555
C12_2 C11_2 1_555 1_555
C13_2 C12_2 1_555 1_555
H8_2 C13_2 1_555 1_555
C14_2 C9_2 1_555 1_555
H9_2 C14_2 1_555 1_555
C15_2 C12_2 1_555 1_555
O7_2 Al2_3 1_555 1_555
H10_2 O7_2 1_555 1_555
O8_2 C16_2 1_555 1_555
O9_2 Al2_3 1_555 1_555
O12_2 C23_2 1_555 1_555
C16_2 O9_2 1_555 1_555
C17_2 C16_2 1_555 1_555
C18_2 C17_2 1_555 1_555
H11_2 C18_2 1_555 1_555
C19_2 C18_2 1_555 1_555
H12_2 C19_2 1_555 1_555
C20_2 C19_2 1_555 1_555
C21_2 C20_2 1_555 1_555
H13_2 C21_2 1_555 1_555
C22_2 C17_2 1_555 1_555
H14_2 C22_2 1_555 1_555
C23_2 C20_2 1_555 1_555
C24_2 C23_2 1_555 1_555
C25_2 C24_2 1_555 1_555
H15_2 C25_2 1_555 1_555
C26_2 C25_2 1_555 1_555
C29_2 C24_2 1_555 1_555
H18_2 C29_2 1_555 1_555
Al3_2 O5_2 1_555 1_555
Al4_10 O7_2 1_555 1_555
Al6 O4_2 1_555 1_555
O13_2 Al1_5 1_555 1_555
O14_2 Al1_5 1_555 1_555
O15_2 Al2_3 1_555 1_555
O16_2 Al2_3 1_555 1_555
O17_2 Al1_5 1_555 1_555
O18_2 Al1_5 1_555 1_555
O3_2 C1_2 1_555 1_555
C6_2 C7_2 1_555 1_555
C13_2 C14_2 1_555 1_555
O8_2 Al4_10 1_555 1_555
C21_2 C22_2 1_555 1_555
Al3_2 O1_3 1_555 1_555
Al6 O1_3 1_555 1_555
O1_3 H1_3 1_555 1_555
O2_3 Al3_2 1_555 1_555
O3_3 Al6 1_555 1_555
O15 C15_3 1_555 1_555
O17 C15_3 1_555 1_555
O6_3 C8_3 1_555 1_555
C1_3 O2_3 1_555 1_555
C2_3 C1_3 1_555 1_555
C3_3 C2_3 1_555 1_555
H2_3 C3_3 1_555 1_555
C4_3 C3_3 1_555 1_555
H3_3 C4_3 1_555 1_555
C5_3 C4_3 1_555 1_555
C6_3 C5_3 1_555 1_555
H4_3 C6_3 1_555 1_555
C7_3 C2_3 1_555 1_555
H5_3 C7_3 1_555 1_555
C8_3 C5_3 1_555 1_555
C9_3 C8_3 1_555 1_555
C10_3 C9_3 1_555 1_555
H6_3 C10_3 1_555 1_555
C11_3 C10_3 1_555 1_555
H7_3 C11_3 1_555 1_555
C12_3 C11_3 1_555 1_555
C13_3 C12_3 1_555 1_555
H8_3 C13_3 1_555 1_555
C14_3 C9_3 1_555 1_555
H9_3 C14_3 1_555 1_555
C15_3 C12_3 1_555 1_555
O7_3 Al6 1_555 1_555
H10_3 O7_3 1_555 1_555
O8_3 C16_3 1_555 1_555
O9_3 Al6 1_555 1_555
O16 C30_3 1_555 1_555
O11_3 C30_3 1_555 1_555
O12_3 C23_3 1_555 1_555
C16_3 O9_3 1_555 1_555
C17_3 C16_3 1_555 1_555
C18_3 C17_3 1_555 1_555
H11_3 C18_3 1_555 1_555
C19_3 C18_3 1_555 1_555
H12_3 C19_3 1_555 1_555
C20_3 C19_3 1_555 1_555
C21_3 C20_3 1_555 1_555
H13_3 C21_3 1_555 1_555
C22_3 C17_3 1_555 1_555
H14_3 C22_3 1_555 1_555
C23_3 C20_3 1_555 1_555
C24_3 C23_3 1_555 1_555
C25_3 C24_3 1_555 1_555
C26_3 C25_3 1_555 1_555
C27_3 C26_3 1_555 1_555
C28_3 C27_3 1_555 1_555
H17_3 C28_3 1_555 1_555
C29_3 C24_3 1_555 1_555
H18_3 C29_3 1_555 1_555
C30_3 C27_3 1_555 1_555
Al5_2 O7_3 1_555 1_555
Al4_5 O11_3 1_555 1_555
O13_3 Al3_2 1_555 1_555
O14_3 Al3_2 1_555 1_555
O18_3 Al3_2 1_555 1_555
O3_3 C1_3 1_555 1_555
C6_3 C7_3 1_555 1_555
C13_3 C14_3 1_555 1_555
O8_3 Al5_2 1_555 1_555
C21_3 C22_3 1_555 1_555
C28_3 C29_3 1_555 1_555
Al3 O1_4 1_555 1_555
Al7 O1_4 1_555 1_555
O1_4 H1_4 1_555 1_555
O2_4 Al3 1_555 1_555
O3_4 Al7 1_555 1_555
O15_2 C15_4 1_555 1_555
O17_2 C15_4 1_555 1_555
C1_4 O2_4 1_555 1_555
C2_4 C1_4 1_555 1_555
C3_4 C2_4 1_555 1_555
C6_4 C5_4 1_555 1_555
H4_4 C6_4 1_555 1_555
C7_4 C2_4 1_555 1_555
H5_4 C7_4 1_555 1_555
C8_4 C5_4 1_555 1_555
C9_4 C8_4 1_555 1_555
C10_4 C9_4 1_555 1_555
H6_4 C10_4 1_555 1_555
C11_4 C10_4 1_555 1_555
H7_4 C11_4 1_555 1_555
C12_4 C11_4 1_555 1_555
C13_4 C12_4 1_555 1_555
H8_4 C13_4 1_555 1_555
C14_4 C9_4 1_555 1_555
H9_4 C14_4 1_555 1_555
C15_4 C12_4 1_555 1_555
H12_4 C19_4 1_555 1_555
O13_4 Al3 1_555 1_555
O14_4 Al3 1_555 1_555
O18_4 Al3 1_555 1_555
O3_4 C1_4 1_555 1_555
C6_4 C7_4 1_555 1_555
C13_4 C14_4 1_555 1_555
H3_4 C4_4 1_555 1_555
O7_4 Al7_2 1_555 1_555
H10_4 O7_4 1_555 1_555
O8_4 C16_4 1_555 1_555
O9_4 Al7_2 1_555 1_555
O16_2 C30_4 1_555 1_555
O11_4 C30_4 1_555 1_555
C16_4 O9_4 1_555 1_555
C17_4 C16_4 1_555 1_555
C18_4 C17_4 1_555 1_555
C21_4 C20_4 1_555 1_555
H13_4 C21_4 1_555 1_555
C22_4 C17_4 1_555 1_555
H14_4 C22_4 1_555 1_555
C23_4 C20_4 1_555 1_555
C24_4 C23_4 1_555 1_555
C25_4 C24_4 1_555 1_555
C26_4 C25_4 1_555 1_555
C27_4 C26_4 1_555 1_555
C28_4 C27_4 1_555 1_555
H17_4 C28_4 1_555 1_555
C29_4 C24_4 1_555 1_555
H18_4 C29_4 1_555 1_555
C30_4 C27_4 1_555 1_555
Al5 O7_4 1_555 1_555
Al4_10 O11_4 1_555 1_555
O8_4 Al5 1_555 1_555
C21_4 C22_4 1_555 1_555
C28_4 C29_4 1_555 1_555
O13_5 Al4_9 1_555 1_555
O14_5 Al4_9 1_555 1_555
O18_5 Al4_9 1_555 1_555
O14_6 Al4_3 1_555 1_555
O18_6 Al4_4 1_555 1_555
O13_6 Al4_8 1_555 1_555
O13_7 Al5 1_555 1_555
O14_7 Al5 1_555 1_555
O18_7 Al5 1_555 1_555
O13_8 Al5_2 1_555 1_555
O14_8 Al5_2 1_555 1_555
O18_8 Al5_2 1_555 1_555
O10_3 C30_5 1_555 1_555
O18_3 C30_5 1_555 1_555
C28_5 C27_5 1_555 1_555
C30_5 C27_5 1_555 1_555
Al6_2 O10_3 1_555 1_555
O14_6 C16_5 1_555 1_555
O12_5 C23_5 1_555 1_555
C16_5 O9_5 1_555 1_555
C17_5 C16_5 1_555 1_555
C18_5 C17_5 1_555 1_555
H11_5 C18_5 1_555 1_555
C19_5 C18_5 1_555 1_555
H12_5 C19_5 1_555 1_555
C20_5 C19_5 1_555 1_555
C21_5 C20_5 1_555 1_555
H13_5 C21_5 1_555 1_555
C22_5 C17_5 1_555 1_555
H14_5 C22_5 1_555 1_555
C23_5 C20_5 1_555 1_555
C24_5 C23_5 1_555 1_555
C25_5 C24_5 1_555 1_555
H15_5 C25_5 1_555 1_555
C26_5 C25_5 1_555 1_555
C29_5 C24_5 1_555 1_555
H18_5 C29_5 1_555 1_555
C21_5 C22_5 1_555 1_555
Al2_4 O13 1_555 1_555
O13 H1_5 1_555 1_555
O16_3 Al2_4 1_555 1_555
O4_3 C15_5 1_555 1_555
O18_8 C15_5 1_555 1_555
O6_5 C8_5 1_555 1_555
C1_5 O14 1_555 1_555
C2_5 C1_5 1_555 1_555
C3_5 C2_5 1_555 1_555
H2_5 C3_5 1_555 1_555
C4_5 C3_5 1_555 1_555
H3_5 C4_5 1_555 1_555
C5_5 C4_5 1_555 1_555
C6_5 C5_5 1_555 1_555
H4_5 C6_5 1_555 1_555
C7_5 C2_5 1_555 1_555
H5_5 C7_5 1_555 1_555
C8_5 C5_5 1_555 1_555
C9_5 C8_5 1_555 1_555
C10_5 C9_5 1_555 1_555
H6_5 C10_5 1_555 1_555
C11_5 C10_5 1_555 1_555
H7_5 C11_5 1_555 1_555
C12_5 C11_5 1_555 1_555
C13_5 C12_5 1_555 1_555
C14_5 C9_5 1_555 1_555
H9_5 C14_5 1_555 1_555
C15_5 C12_5 1_555 1_555
Al6_3 O4_3 1_555 1_555
O3_5 C1_5 1_555 1_555
C6_5 C7_5 1_555 1_555
C13_5 C14_5 1_555 1_555
O13_6 Al2_5 1_555 1_555
H10_5 O13_6 1_555 1_555
O15_3 Al2_5 1_555 1_555
Al2_6 O13_2 1_555 1_555
O13_2 H1_6 1_555 1_555
O3_6 Al2_6 1_555 1_555
O4_4 C15_6 1_555 1_555
O18_7 C15_6 1_555 1_555
O6_6 C8_6 1_555 1_555
C1_6 O14_2 1_555 1_555
C2_6 C1_6 1_555 1_555
C3_6 C2_6 1_555 1_555
H2_6 C3_6 1_555 1_555
C4_6 C3_6 1_555 1_555
H3_6 C4_6 1_555 1_555
C5_6 C4_6 1_555 1_555
C6_6 C5_6 1_555 1_555
H4_6 C6_6 1_555 1_555
C7_6 C2_6 1_555 1_555
H5_6 C7_6 1_555 1_555
C8_6 C5_6 1_555 1_555
C9_6 C8_6 1_555 1_555
C10_6 C9_6 1_555 1_555
H6_6 C10_6 1_555 1_555
C11_6 C10_6 1_555 1_555
H7_6 C11_6 1_555 1_555
C12_6 C11_6 1_555 1_555
C13_6 C12_6 1_555 1_555
H8_6 C13_6 1_555 1_555
C14_6 C9_6 1_555 1_555
H9_6 C14_6 1_555 1_555
C15_6 C12_6 1_555 1_555
O13_5 Al2_6 1_555 1_555
H10_6 O13_5 1_555 1_555
O14_5 C16_6 1_555 1_555
O9_6 Al2_6 1_555 1_555
O12_6 C23_6 1_555 1_555
C16_6 O9_6 1_555 1_555
C17_6 C16_6 1_555 1_555
C18_6 C17_6 1_555 1_555
H11_6 C18_6 1_555 1_555
C19_6 C18_6 1_555 1_555
H12_6 C19_6 1_555 1_555
C20_6 C19_6 1_555 1_555
C21_6 C20_6 1_555 1_555
H13_6 C21_6 1_555 1_555
C22_6 C17_6 1_555 1_555
H14_6 C22_6 1_555 1_555
C23_6 C20_6 1_555 1_555
C24_6 C23_6 1_555 1_555
C25_6 C24_6 1_555 1_555
H15_6 C25_6 1_555 1_555
C26_6 C25_6 1_555 1_555
C29_6 C24_6 1_555 1_555
H18_6 C29_6 1_555 1_555
Al7_3 O4_4 1_555 1_555
O15_4 Al2_6 1_555 1_555
O16_4 Al2_6 1_555 1_555
O3_6 C1_6 1_555 1_555
C6_6 C7_6 1_555 1_555
C13_6 C14_6 1_555 1_555
C21_6 C22_6 1_555 1_555
O10_4 C30_6 1_555 1_555
O18_4 C30_6 1_555 1_555
C28_6 C27_6 1_555 1_555
H17_6 C28_6 1_555 1_555
C30_6 C27_6 1_555 1_555
Al7_3 O10_4 1_555 1_555
Al7_3 O13_7 1_555 1_555
O13_7 H1_7 1_555 1_555
O3_7 Al7_3 1_555 1_555
O15_3 C15_7 1_555 1_555
O18 C15_7 1_555 1_555
O6_7 C8_7 1_555 1_555
C1_7 O14_7 1_555 1_555
C2_7 C1_7 1_555 1_555
C3_7 C2_7 1_555 1_555
H2_7 C3_7 1_555 1_555
C4_7 C3_7 1_555 1_555
H3_7 C4_7 1_555 1_555
C5_7 C4_7 1_555 1_555
C6_7 C5_7 1_555 1_555
H4_7 C6_7 1_555 1_555
C7_7 C2_7 1_555 1_555
H5_7 C7_7 1_555 1_555
C8_7 C5_7 1_555 1_555
C9_7 C8_7 1_555 1_555
C10_7 C9_7 1_555 1_555
H6_7 C10_7 1_555 1_555
C11_7 C10_7 1_555 1_555
H7_7 C11_7 1_555 1_555
C12_7 C11_7 1_555 1_555
C13_7 C12_7 1_555 1_555
H8_7 C13_7 1_555 1_555
C14_7 C9_7 1_555 1_555
H9_7 C14_7 1_555 1_555
C15_7 C12_7 1_555 1_555
O13_4 Al7_3 1_555 1_555
H10_7 O13_4 1_555 1_555
O14_4 C16_7 1_555 1_555
O9_7 Al7_3 1_555 1_555
O16_3 C30_7 1_555 1_555
O18_6 C30_7 1_555 1_555
O12_7 C23_7 1_555 1_555
C16_7 O9_7 1_555 1_555
C17_7 C16_7 1_555 1_555
C18_7 C17_7 1_555 1_555
H11_7 C18_7 1_555 1_555
C19_7 C18_7 1_555 1_555
H12_7 C19_7 1_555 1_555
C20_7 C19_7 1_555 1_555
C21_7 C20_7 1_555 1_555
H13_7 C21_7 1_555 1_555
C22_7 C17_7 1_555 1_555
H14_7 C22_7 1_555 1_555
C23_7 C20_7 1_555 1_555
C24_7 C23_7 1_555 1_555
C25_7 C24_7 1_555 1_555
C26_7 C25_7 1_555 1_555
C27_7 C26_7 1_555 1_555
C28_7 C27_7 1_555 1_555
H17_7 C28_7 1_555 1_555
C29_7 C24_7 1_555 1_555
H18_7 C29_7 1_555 1_555
C30_7 C27_7 1_555 1_555
O3_7 C1_7 1_555 1_555
C6_7 C7_7 1_555 1_555
C13_7 C14_7 1_555 1_555
C21_7 C22_7 1_555 1_555
C28_7 C29_7 1_555 1_555
H3_8 C4_8 1_555 1_555
O13_3 Al6_2 1_555 1_555
H10_8 O13_3 1_555 1_555
O14_3 C16_8 1_555 1_555
O9_8 Al6_2 1_555 1_555
O16_4 C30_8 1_555 1_555
O18_5 C30_8 1_555 1_555
C16_8 O9_8 1_555 1_555
C17_8 C16_8 1_555 1_555
C18_8 C17_8 1_555 1_555
C21_8 C20_8 1_555 1_555
H13_8 C21_8 1_555 1_555
C22_8 C17_8 1_555 1_555
H14_8 C22_8 1_555 1_555
C23_8 C20_8 1_555 1_555
C24_8 C23_8 1_555 1_555
C25_8 C24_8 1_555 1_555
C26_8 C25_8 1_555 1_555
C27_8 C26_8 1_555 1_555
C28_8 C27_8 1_555 1_555
H17_8 C28_8 1_555 1_555
C29_8 C24_8 1_555 1_555
H18_8 C29_8 1_555 1_555
C30_8 C27_8 1_555 1_555
C21_8 C22_8 1_555 1_555
C28_8 C29_8 1_555 1_555
Al6_3 O13_8 1_555 1_555
O13_8 H1_8 1_555 1_555
O3_8 Al6_3 1_555 1_555
O15_4 C15_8 1_555 1_555
O18_2 C15_8 1_555 1_555
C1_8 O14_8 1_555 1_555
C2_8 C1_8 1_555 1_555
C3_8 C2_8 1_555 1_555
C6_8 C5_8 1_555 1_555
H4_8 C6_8 1_555 1_555
C7_8 C2_8 1_555 1_555
H5_8 C7_8 1_555 1_555
C8_8 C5_8 1_555 1_555
C9_8 C8_8 1_555 1_555
C10_8 C9_8 1_555 1_555
H6_8 C10_8 1_555 1_555
C11_8 C10_8 1_555 1_555
H7_8 C11_8 1_555 1_555
C12_8 C11_8 1_555 1_555
C13_8 C12_8 1_555 1_555
H8_8 C13_8 1_555 1_555
C14_8 C9_8 1_555 1_555
H9_8 C14_8 1_555 1_555
C15_8 C12_8 1_555 1_555
H12_8 C19_8 1_555 1_555
O3_8 C1_8 1_555 1_555
C6_8 C7_8 1_555 1_555
C13_8 C14_8 1_555 1_555

#END
