
###############################################################################
#
# This file contains modified crystal structure data generated from the
# MOF subset of the Cambridge Structural Database (CSD) v543 
# hosted by the Cambridge Crystallographic Data Centre (CCDC).
#
# This work is licensed under the Creative Commons
# Attribution-NonCommercial-ShareAlike 4.0 International License.
# To view a copy of this license, visit
# http://creativecommons.org/licenses/by-nc-sa/4.0/
# or send a letter to
# Creative Commons, PO Box 1866, Mountain View, CA 94042, USA.
#
# CIF created using the CSD Python API on 29 September 2022
# The structure has been converted into the P1 space group
# The structure has a 3D framework
# The original CSD entry ZETKOA is in the monoclinic crystal system
# The framework has been calculated to contain at least 10.0% void space
# The void calculation uses a probe of radius 1.32A, grid spacing 0.4
#
###############################################################################

data_ZETKOA
_chemical_formula_moiety         '(C192 H128 N8 O38 Zn6)n'
_symmetry_cell_setting           triclinic
_symmetry_space_group_name_H-M   'P 1'
_symmetry_Int_Tables_number      1
_space_group_name_Hall           'P 1'
loop_
_symmetry_equiv_pos_site_id
_symmetry_equiv_pos_as_xyz
1 x,y,z
_cell_length_a                   13.8543(12)
_cell_length_b                   24.785(2)
_cell_length_c                   16.1825(15)
_cell_angle_alpha                90
_cell_angle_beta                 114.661(5)
_cell_angle_gamma                90
_cell_volume                     5049.91
loop_
_atom_site_label
_atom_site_type_symbol
_atom_site_fract_x
_atom_site_fract_y
_atom_site_fract_z
Zn1 Zn 0.31170(8) 0.33967(3) 0.29081(7)
Zn2 Zn 0.39761(7) 0.33562(3) 0.51458(6)
O1 O 0.4314(5) 0.3361(2) 0.2273(4)
O2 O 0.3669(4) 0.4096(2) 0.2595(4)
O3 O 0.6936(4) 0.51221(19) 0.1238(4)
O4 O 0.6384(4) 0.75837(19) 0.0191(4)
O5 O 0.6738(4) 0.7650(2) 0.1652(4)
O6 O 0.2176(4) 0.3774(2) 0.3387(4)
O7 O 0.2597(4) 0.3683(2) 0.4851(4)
N1 N 0.1886(5) 0.3157(3) 0.1688(4)
C1 C 0.2214(5) 0.2760(3) 0.1253(5)
H1 H 0.2930 0.2640 0.1512
C2 C 0.1493(7) 0.2540(3) 0.0440(5)
H2 H 0.1717 0.2269 0.0143
C3 C 0.0445(6) 0.2715(4) 0.0061(5)
C4 C 0.0117(5) 0.3112(4) 0.0495(6)
C5 C 0.0838(6) 0.3333(3) 0.1309(6)
H4 H 0.0614 0.3604 0.1605
C21 C 0.4271(6) 0.3861(4) 0.2302(5)
C22 C 0.4940(6) 0.4196(3) 0.1969(5)
C23 C 0.4843(7) 0.4750(3) 0.1953(6)
H17 H 0.4336 0.4912 0.2129
C24 C 0.5472(6) 0.5071(3) 0.1686(6)
H18 H 0.5376 0.5451 0.1646
C25 C 0.6231(6) 0.4838(3) 0.1480(5)
C26 C 0.6334(6) 0.4279(3) 0.1499(5)
H19 H 0.6860 0.4118 0.1346
C27 C 0.5694(6) 0.3967(3) 0.1732(5)
H20 H 0.5762 0.3586 0.1734
C28 C 0.6604(6) 0.7389(3) 0.0948(6)
C29 C 0.6721(5) 0.6787(3) 0.1045(5)
C30 C 0.6471(8) 0.6475(3) 0.0293(6)
C31 C 0.6514(8) 0.5909(3) 0.0372(7)
C32 C 0.6856(6) 0.5680(3) 0.1193(6)
C33 C 0.7137(7) 0.5986(3) 0.1957(6)
H23 H 0.7392 0.5821 0.2539
C34 C 0.7046(7) 0.6534(3) 0.1876(6)
H24 H 0.7212 0.6747 0.2406
C35 C 0.2001(6) 0.3831(3) 0.4065(7)
C36 C 0.0987(6) 0.4111(3) 0.3953(5)
C37 C 0.0337(6) 0.4348(3) 0.3148(6)
H25 H 0.0534 0.4343 0.2651
C41 C 0.0681(5) 0.4117(3) 0.4666(5)
H28 H 0.1116 0.3949 0.5226
Zn3 Zn 0.68830(8) 0.83967(3) 0.20919(7)
O11 O 0.3616(4) 0.25837(19) 0.4809(4)
O12 O 0.3262(4) 0.2650(2) 0.3348(4)
O13 O 0.4857(5) 0.4187(2) 0.5187(5)
O14 O 0.4830(5) 0.3465(2) 0.4426(4)
N3 N 0.4725(5) 0.3302(2) 0.6502(5)
O8 O 0.8187(4) 0.4866(2) 0.3630(4)
H3 H 0.9401 0.3232 0.0236
C38 C 0.9393(7) 0.4597(4) 0.3047(6)
H26 H 0.8948 0.4764 0.2489
C39 C 0.9125(6) 0.4597(3) 0.3754(6)
C40 C 0.9754(6) 0.4365(3) 0.4568(5)
H27 H 0.9550 0.4375 0.5061
C42 C 0.5192(6) 0.3929(3) 0.4693(5)
C43 C 0.6003(6) 0.4175(3) 0.4428(5)
C44 C 0.6189(5) 0.4728(3) 0.4503(5)
H29 H 0.5809 0.4954 0.4738
C45 C 0.6918(6) 0.4946(3) 0.4237(5)
H30 H 0.7021 0.5326 0.4263
C46 C 0.7502(5) 0.4623(3) 0.3935(5)
C47 C 0.7342(6) 0.4065(3) 0.3883(6)
H31 H 0.7756 0.3838 0.3685
C48 C 0.6591(6) 0.3849(3) 0.4118(5)
H32 H 0.6469 0.3470 0.4069
O8_2 O 0.1813(4) 0.9866(2) 0.1370(4)
O10 O 0.5170(5) 0.8465(2) 0.0574(4)
H3_2 H 0.0599 0.8232 0.4764
C6 C 0.0206(10) 0.7484(7) 0.5829(7)
C7 C 0.1194(11) 0.7613(7) 0.6370(8)
H6 H 0.1587 0.7824 0.6128
C8 C 0.1714(14) 0.7449(7) 0.7322(7)
C9 C 0.1521(13) 0.6991(6) 0.7678(8)
H7 H 0.0995 0.6745 0.7303
C10 C 0.2113(9) 0.6879(6) 0.8624(7)
H8 H 0.2002 0.6561 0.8899
C11 C 0.2880(9) 0.7274(6) 0.9129(6)
C12 C 0.3023(13) 0.7708(8) 0.8690(9)
H9 H 0.3564 0.7956 0.9034
C13 C 0.2508(12) 0.7806(9) 0.7882(9)
H10 H 0.2646 0.8128 0.7630
C38_2 C 0.0607(7) 0.9597(4) 0.1953(6)
H26_2 H 0.1052 0.9764 0.2511
C39_2 C 0.0875(6) 0.9597(3) 0.1246(6)
C40_2 C 0.0246(6) 0.9365(3) 0.0432(5)
C42_2 C 0.4808(6) 0.8929(3) 0.0307(5)
C43_2 C 0.3997(6) 0.9175(3) 0.0572(5)
C44_2 C 0.3811(5) 0.9728(3) 0.0497(5)
H29_2 H 0.4191 0.9954 0.0262
C45_2 C 0.3082(6) 0.9946(3) 0.0763(5)
C46_2 C 0.2498(5) 0.9623(3) 0.1065(5)
C47_2 C 0.2658(6) 0.9065(3) 0.1117(6)
H31_2 H 0.2244 0.8838 0.1315
C48_2 C 0.3409(6) 0.8849(3) 0.0882(5)
H32_2 H 0.3531 0.8470 0.0931
O3_2 O 0.3064(4) 0.01221(19) 0.3762(4)
C24_2 C 0.4528(6) 0.0071(3) 0.3314(6)
H18_2 H 0.4624 0.0451 0.3354
C28_2 C 0.3396(6) 0.2389(3) 0.4052(6)
C29_2 C 0.3279(5) 0.1787(3) 0.3955(5)
C30_2 C 0.3529(8) 0.1475(3) 0.4707(6)
H21 H 0.3732 0.1639 0.5286
C31_2 C 0.3486(8) 0.0909(3) 0.4628(7)
H22 H 0.3700 0.0690 0.5157
C32_2 C 0.3144(6) 0.0680(3) 0.3807(6)
C33_2 C 0.2863(7) 0.0986(3) 0.3043(6)
H23_2 H 0.2608 0.0821 0.2461
C34_2 C 0.2954(7) 0.1534(3) 0.3124(6)
H24_2 H 0.2788 0.1747 0.2594
O1_2 O 0.5686(5) 0.8361(2) 0.2727(4)
O2_2 O 0.6331(4) 0.9096(2) 0.2405(4)
O6_2 O 0.7824(4) 0.8774(2) 0.1613(4)
O7_2 O 0.7403(4) 0.8683(2) 0.0149(4)
N1_2 N 0.8114(5) 0.8157(3) 0.3312(4)
C1_2 C 0.7786(5) 0.7760(3) 0.3747(5)
H1_2 H 0.7070 0.7640 0.3488
C2_2 C 0.8507(7) 0.7540(3) 0.4560(5)
H2_2 H 0.8283 0.7269 0.4857
C3_2 C 0.9555(6) 0.7715(4) 0.4939(5)
C4_2 C 0.9883(5) 0.8112(4) 0.4505(6)
C5_2 C 0.9162(6) 0.8333(3) 0.3691(6)
H4_2 H 0.9386 0.8604 0.3395
H5 H 0.9884 0.7211 0.6041
C21_2 C 0.5729(6) 0.8861(4) 0.2698(5)
C22_2 C 0.5060(6) 0.9196(3) 0.3031(5)
C23_2 C 0.5157(7) 0.9750(3) 0.3047(6)
H17_2 H 0.5664 0.9912 0.2871
C25_2 C 0.3769(6) 0.9838(3) 0.3520(5)
C26_2 C 0.3666(6) 0.9279(3) 0.3501(5)
H19_2 H 0.3140 0.9118 0.3654
C27_2 C 0.4306(6) 0.8967(3) 0.3268(5)
H20_2 H 0.4238 0.8586 0.3266
C35_2 C 0.7999(6) 0.8831(3) 0.0935(7)
C36_2 C 0.9013(6) 0.9111(3) 0.1047(5)
C37_2 C 0.9663(6) 0.9348(3) 0.1852(6)
H25_2 H 0.9466 0.9343 0.2349
C41_2 C 0.9319(5) 0.9117(3) 0.0334(5)
C14 C 0.6476(8) 0.2794(6) 0.9898(6)
H11 H 0.6009 0.2504 0.9607
C15 C 0.6453(9) 0.3189(5) 0.9385(5)
H12 H 0.6855 0.3500 0.9669
C16 C 0.5212(7) 0.3724(4) 0.7050(6)
H13 H 0.5153 0.4069 0.6778
C17 C 0.5776(7) 0.3685(4) 0.7961(7)
H14 H 0.6117 0.3995 0.8301
C18 C 0.5861(7) 0.3203(5) 0.8399(5)
C19 C 0.5326(8) 0.2765(4) 0.7854(6)
H15 H 0.5322 0.2426 0.8128
C20 C 0.4813(7) 0.2821(4) 0.6935(6)
H16 H 0.4502 0.2510 0.6579
H5_2 H 0.0116 0.2211 0.8959
H21_2 H 0.6268 0.6639 0.9714
H22_2 H 0.6300 0.5690 0.9843
Zn5 Zn 0.60239(7) 0.83562(3) 0.98542(6)
O9 O 0.5143(5) 0.9187(2) 0.9813(5)
H27_2 H 0.0450 0.9375 0.9939
H28_2 H 0.8884 0.8949 0.9774
N3_2 N 0.5275(5) 0.8302(2) 0.8498(5)
C6_2 C 0.0206(10) 0.7516(7) 0.0829(7)
C7_2 C 0.1194(11) 0.7387(7) 0.1370(8)
H6_2 H 0.1587 0.7176 0.1128
C8_2 C 0.1714(14) 0.7551(7) 0.2322(7)
C9_2 C 0.1521(13) 0.8009(6) 0.2678(8)
H7_2 H 0.0995 0.8255 0.2303
C10_2 C 0.2113(9) 0.8121(6) 0.3624(7)
H8_2 H 0.2002 0.8439 0.3899
C11_2 C 0.2880(9) 0.7726(6) 0.4129(6)
C12_2 C 0.3023(13) 0.7292(8) 0.3690(9)
H9_2 H 0.3564 0.7044 0.4034
C13_2 C 0.2508(12) 0.7194(9) 0.2882(9)
H10_2 H 0.2646 0.6872 0.2630
C14_2 C 0.3524(8) 0.7794(6) 0.5102(6)
H11_2 H 0.3991 0.7504 0.5393
C15_2 C 0.3547(9) 0.8189(5) 0.5615(5)
H12_2 H 0.3145 0.8500 0.5331
C16_2 C 0.4788(7) 0.8724(4) 0.7950(6)
H13_2 H 0.4847 0.9069 0.8222
C17_2 C 0.4224(7) 0.8685(4) 0.7039(7)
H14_2 H 0.3883 0.8995 0.6699
C18_2 C 0.4139(7) 0.8203(5) 0.6601(5)
C19_2 C 0.4674(8) 0.7765(4) 0.7146(6)
H15_2 H 0.4678 0.7426 0.6872
C20_2 C 0.5187(7) 0.7821(4) 0.8065(6)
H16_2 H 0.5498 0.7510 0.8421
C6_3 C 0.9794(10) 0.2484(7) 0.9171(7)
C7_3 C 0.8806(11) 0.2613(7) 0.8630(8)
H6_3 H 0.8413 0.2824 0.8872
C8_3 C 0.8286(14) 0.2449(7) 0.7678(7)
C9_3 C 0.8479(13) 0.1991(6) 0.7322(8)
H7_3 H 0.9005 0.1745 0.7697
C10_3 C 0.7887(9) 0.1879(6) 0.6376(7)
H8_3 H 0.7998 0.1561 0.6101
C11_3 C 0.7120(9) 0.2274(6) 0.5871(6)
C12_3 C 0.6977(13) 0.2708(8) 0.6310(9)
H9_3 H 0.6436 0.2956 0.5966
C13_3 C 0.7492(12) 0.2806(9) 0.7118(9)
H10_3 H 0.7354 0.3128 0.7370
C14_3 C 0.6476(8) 0.2206(6) 0.4898(6)
H11_3 H 0.6009 0.2496 0.4607
C15_3 C 0.6453(9) 0.1811(5) 0.4385(5)
H12_3 H 0.6855 0.1500 0.4669
C16_3 C 0.5212(7) 0.1276(4) 0.2050(6)
H13_3 H 0.5153 0.0931 0.1778
C17_3 C 0.5776(7) 0.1315(4) 0.2961(7)
H14_3 H 0.6117 0.1005 0.3301
C18_3 C 0.5861(7) 0.1797(5) 0.3399(5)
C19_3 C 0.5326(8) 0.2235(4) 0.2854(6)
H15_3 H 0.5322 0.2574 0.3128
C20_3 C 0.4813(7) 0.2179(4) 0.1935(6)
H16_3 H 0.4502 0.2490 0.1579
N2 N 0.4725(5) 0.1698(2) 0.1502(5)
Zn6 Zn 0.39761(7) 0.16438(3) 0.01458(6)
H5_3 H 0.9884 0.7789 0.1041
H21_3 H 0.3732 0.3361 0.0286
H22_3 H 0.3700 0.4310 0.0157
H28_3 H 0.1116 0.1051 0.0226
O13_2 O 0.4857(5) 0.0813(2) 0.0187(5)
H27_3 H 0.9550 0.0625 0.0061
H30_2 H 0.2979 0.0326 0.0737
C14_4 C 0.3524(8) 0.7206(6) 0.0102(6)
H11_4 H 0.3991 0.7496 0.0393
C15_4 C 0.3547(9) 0.6811(5) 0.0615(5)
H12_4 H 0.3145 0.6500 0.0331
C16_4 C 0.4788(7) 0.6276(4) 0.2950(6)
H13_4 H 0.4847 0.5931 0.3222
C17_4 C 0.4224(7) 0.6315(4) 0.2039(7)
H14_4 H 0.3883 0.6005 0.1699
C18_4 C 0.4139(7) 0.6797(5) 0.1601(5)
C19_4 C 0.4674(8) 0.7235(4) 0.2146(6)
H15_4 H 0.4678 0.7574 0.1872
C20_4 C 0.5187(7) 0.7179(4) 0.3065(6)
H16_4 H 0.5498 0.7490 0.3421
N2_2 N 0.5275(5) 0.6698(2) 0.3498(5)
Zn6_2 Zn 0.60239(7) 0.66438(3) 0.48542(6)
O8_3 O 0.1813(4) 0.5134(2) 0.6370(4)
O9_2 O 0.5143(5) 0.5813(2) 0.4813(5)
O10_2 O 0.5170(5) 0.6535(2) 0.5574(4)
H3_3 H 0.0599 0.6768 0.9764
C38_3 C 0.0607(7) 0.5403(4) 0.6953(6)
H26_3 H 0.1052 0.5236 0.7511
C39_3 C 0.0875(6) 0.5403(3) 0.6246(6)
C40_3 C 0.0246(6) 0.5635(3) 0.5432(5)
H27_4 H 0.0450 0.5625 0.4939
C42_3 C 0.4808(6) 0.6071(3) 0.5307(5)
C43_3 C 0.3997(6) 0.5825(3) 0.5572(5)
C44_3 C 0.3811(5) 0.5272(3) 0.5497(5)
H29_3 H 0.4191 0.5046 0.5262
C45_3 C 0.3082(6) 0.5054(3) 0.5763(5)
H30_3 H 0.2979 0.4674 0.5737
C46_3 C 0.2498(5) 0.5377(3) 0.6065(5)
C47_3 C 0.2658(6) 0.5935(3) 0.6117(6)
H31_3 H 0.2244 0.6162 0.6315
C48_3 C 0.3409(6) 0.6151(3) 0.5882(5)
H32_3 H 0.3531 0.6530 0.5931
Zn1_2 Zn 0.68830(8) 0.66033(3) 0.70919(7)
O1_3 O 0.5686(5) 0.6639(2) 0.7727(4)
O2_3 O 0.6331(4) 0.5904(2) 0.7405(4)
O3_3 O 0.3064(4) 0.48779(19) 0.8762(4)
O4_2 O 0.3616(4) 0.24163(19) 0.9809(4)
O5_2 O 0.3262(4) 0.2350(2) 0.8348(4)
O6_3 O 0.7824(4) 0.6226(2) 0.6613(4)
O7_3 O 0.7403(4) 0.6317(2) 0.5149(4)
N1_3 N 0.8114(5) 0.6843(3) 0.8312(4)
C1_3 C 0.7786(5) 0.7240(3) 0.8747(5)
H1_3 H 0.7070 0.7360 0.8488
C2_3 C 0.8507(7) 0.7460(3) 0.9560(5)
H2_3 H 0.8283 0.7731 0.9857
C3_3 C 0.9555(6) 0.7285(4) 0.9939(5)
C4_3 C 0.9883(5) 0.6888(4) 0.9505(6)
C5_3 C 0.9162(6) 0.6667(3) 0.8691(6)
H4_3 H 0.9386 0.6396 0.8395
C21_3 C 0.5729(6) 0.6139(4) 0.7698(5)
C22_3 C 0.5060(6) 0.5804(3) 0.8031(5)
C23_3 C 0.5157(7) 0.5250(3) 0.8047(6)
H17_3 H 0.5664 0.5088 0.7871
C24_3 C 0.4528(6) 0.4929(3) 0.8314(6)
H18_3 H 0.4624 0.4549 0.8354
C25_3 C 0.3769(6) 0.5162(3) 0.8520(5)
C26_3 C 0.3666(6) 0.5721(3) 0.8501(5)
H19_3 H 0.3140 0.5882 0.8654
C27_3 C 0.4306(6) 0.6033(3) 0.8268(5)
H20_3 H 0.4238 0.6414 0.8266
C28_3 C 0.3396(6) 0.2611(3) 0.9052(6)
C29_3 C 0.3279(5) 0.3213(3) 0.8955(5)
C30_3 C 0.3529(8) 0.3525(3) 0.9707(6)
C31_3 C 0.3486(8) 0.4091(3) 0.9628(7)
C32_3 C 0.3144(6) 0.4320(3) 0.8807(6)
C33_3 C 0.2863(7) 0.4014(3) 0.8043(6)
H23_3 H 0.2608 0.4179 0.7461
C34_3 C 0.2954(7) 0.3466(3) 0.8124(6)
H24_3 H 0.2788 0.3253 0.7594
C35_3 C 0.7999(6) 0.6169(3) 0.5935(7)
C36_3 C 0.9013(6) 0.5889(3) 0.6047(5)
C37_3 C 0.9663(6) 0.5652(3) 0.6852(6)
H25_3 H 0.9466 0.5657 0.7349
C41_3 C 0.9319(5) 0.5883(3) 0.5334(5)
H28_4 H 0.8884 0.6051 0.4774
Zn3_2 Zn 0.31170(8) 0.16033(3) 0.79081(7)
O11_2 O 0.6384(4) 0.74163(19) 0.5191(4)
O12_2 O 0.6738(4) 0.7350(2) 0.6652(4)
O1_4 O 0.4314(5) 0.1639(2) 0.7273(4)
O2_4 O 0.3669(4) 0.0904(2) 0.7595(4)
O6_4 O 0.2176(4) 0.1226(2) 0.8387(4)
O7_4 O 0.2597(4) 0.1317(2) 0.9851(4)
N1_4 N 0.1886(5) 0.1843(3) 0.6688(4)
C1_4 C 0.2214(5) 0.2240(3) 0.6253(5)
H1_4 H 0.2930 0.2360 0.6512
C2_4 C 0.1493(7) 0.2460(3) 0.5440(5)
H2_4 H 0.1717 0.2731 0.5143
C3_4 C 0.0445(6) 0.2285(4) 0.5061(5)
C4_4 C 0.0117(5) 0.1888(4) 0.5495(6)
C5_4 C 0.0838(6) 0.1667(3) 0.6309(6)
H4_4 H 0.0614 0.1396 0.6605
H5_4 H 0.0116 0.2789 0.3959
C21_4 C 0.4271(6) 0.1139(4) 0.7302(5)
C22_4 C 0.4940(6) 0.0804(3) 0.6969(5)
C23_4 C 0.4843(7) 0.0250(3) 0.6953(6)
H17_4 H 0.4336 0.0088 0.7129
C25_4 C 0.6231(6) 0.0162(3) 0.6480(5)
C26_4 C 0.6334(6) 0.0721(3) 0.6499(5)
H19_4 H 0.6860 0.0882 0.6346
C27_4 C 0.5694(6) 0.1033(3) 0.6732(5)
H20_4 H 0.5762 0.1414 0.6734
C35_4 C 0.2001(6) 0.1169(3) 0.9065(7)
C36_4 C 0.0987(6) 0.0889(3) 0.8953(5)
C37_4 C 0.0337(6) 0.0652(3) 0.8148(6)
H25_4 H 0.0534 0.0657 0.7651
C41_4 C 0.0681(5) 0.0883(3) 0.9666(5)
O14_2 O 0.4830(5) 0.1535(2) 0.9426(4)
O3_4 O 0.6936(4) 0.98779(19) 0.6238(4)
C24_4 C 0.5472(6) 0.9929(3) 0.6686(6)
H18_4 H 0.5376 0.9549 0.6646
C28_4 C 0.6604(6) 0.7611(3) 0.5948(6)
C29_4 C 0.6721(5) 0.8213(3) 0.6045(5)
C30_4 C 0.6471(8) 0.8525(3) 0.5293(6)
H21_4 H 0.6268 0.8361 0.4714
C31_4 C 0.6514(8) 0.9091(3) 0.5372(7)
H22_4 H 0.6300 0.9310 0.4843
C32_4 C 0.6856(6) 0.9320(3) 0.6193(6)
C33_4 C 0.7137(7) 0.9014(3) 0.6957(6)
H23_4 H 0.7392 0.9179 0.7539
C34_4 C 0.7046(7) 0.8466(3) 0.6876(6)
H24_4 H 0.7212 0.8253 0.7406
O8_4 O 0.8187(4) 0.0134(2) 0.8630(4)
H3_4 H 0.9401 0.1768 0.5236
C6_4 C 0.9794(10) 0.2516(7) 0.4171(7)
C7_4 C 0.8806(11) 0.2387(7) 0.3630(8)
H6_4 H 0.8413 0.2176 0.3872
C8_4 C 0.8286(14) 0.2551(7) 0.2678(7)
C9_4 C 0.8479(13) 0.3009(6) 0.2322(8)
H7_4 H 0.9005 0.3255 0.2697
C10_4 C 0.7887(9) 0.3121(6) 0.1376(7)
H8_4 H 0.7998 0.3439 0.1101
C11_4 C 0.7120(9) 0.2726(6) 0.0871(6)
C12_4 C 0.6977(13) 0.2292(8) 0.1310(9)
H9_4 H 0.6436 0.2044 0.0966
C13_4 C 0.7492(12) 0.2194(9) 0.2118(9)
H10_4 H 0.7354 0.1872 0.2370
C38_4 C 0.9393(7) 0.0403(4) 0.8047(6)
H26_4 H 0.8948 0.0236 0.7489
C39_4 C 0.9125(6) 0.0403(3) 0.8754(6)
C40_4 C 0.9754(6) 0.0635(3) 0.9568(5)
C42_4 C 0.5192(6) 0.1071(3) 0.9693(5)
C43_4 C 0.6003(6) 0.0825(3) 0.9428(5)
C44_4 C 0.6189(5) 0.0272(3) 0.9503(5)
H29_4 H 0.5809 0.0046 0.9738
C45_4 C 0.6918(6) 0.0054(3) 0.9237(5)
C46_4 C 0.7502(5) 0.0377(3) 0.8935(5)
C47_4 C 0.7342(6) 0.0935(3) 0.8883(6)
H31_4 H 0.7756 0.1162 0.8685
C48_4 C 0.6591(6) 0.1151(3) 0.9118(5)
H32_4 H 0.6469 0.1530 0.9069
H30_4 H 0.7021 0.9674 0.9263
loop_
_geom_bond_atom_site_label_1
_geom_bond_atom_site_label_2
_geom_bond_site_symmetry_1
_geom_bond_site_symmetry_2
Zn1 O1 1_555 1_555
Zn2 O7 1_555 1_555
O1 C21 1_555 1_555
O2 Zn1 1_555 1_555
O3 C25 1_555 1_555
O4 C28 1_555 1_555
O5 C28 1_555 1_555
O6 Zn1 1_555 1_555
O7 C35 1_555 1_555
N1 Zn1 1_555 1_555
C1 N1 1_555 1_555
H1 C1 1_555 1_555
C2 C1 1_555 1_555
H2 C2 1_555 1_555
C3 C2 1_555 1_555
C4 C3 1_555 1_555
C5 N1 1_555 1_555
H4 C5 1_555 1_555
C21 O2 1_555 1_555
C22 C21 1_555 1_555
C23 C22 1_555 1_555
H17 C23 1_555 1_555
C24 C23 1_555 1_555
H18 C24 1_555 1_555
C25 C24 1_555 1_555
C26 C25 1_555 1_555
H19 C26 1_555 1_555
C27 C22 1_555 1_555
H20 C27 1_555 1_555
C28 C29 1_555 1_555
C29 C30 1_555 1_555
C31 C30 1_555 1_555
C32 O3 1_555 1_555
C33 C32 1_555 1_555
H23 C33 1_555 1_555
C34 C29 1_555 1_555
H24 C34 1_555 1_555
C35 O6 1_555 1_555
C36 C35 1_555 1_555
C37 C36 1_555 1_555
H25 C37 1_555 1_555
C41 C36 1_555 1_555
H28 C41 1_555 1_555
Zn3 O5 1_555 1_555
O11 Zn2 1_555 1_555
O12 Zn1 1_555 1_555
O13 Zn2 1_555 1_555
O14 Zn2 1_555 1_555
N3 Zn2 1_555 1_555
C4 C5 1_555 1_555
C26 C27 1_555 1_555
C31 C32 1_555 1_555
C33 C34 1_555 1_555
O8 C39 1_555 1_555
O13 C42 1_555 1_555
O14 C42 1_555 1_555
H26 C38 1_555 1_555
C39 C38 1_555 1_555
C40 C39 1_555 1_555
H27 C40 1_555 1_555
C42 C43 1_555 1_555
C43 C44 1_555 1_555
C44 H29 1_555 1_555
C45 C44 1_555 1_555
H30 C45 1_555 1_555
C46 O8 1_555 1_555
C47 C46 1_555 1_555
H31 C47 1_555 1_555
C48 C43 1_555 1_555
H32 C48 1_555 1_555
C45 C46 1_555 1_555
C47 C48 1_555 1_555
O8_2 C39_2 1_555 1_555
O10 C42_2 1_555 1_555
C7 C6 1_555 1_555
H6 C7 1_555 1_555
C8 C7 1_555 1_555
C9 C8 1_555 1_555
H7 C9 1_555 1_555
C10 C9 1_555 1_555
H8 C10 1_555 1_555
C11 C10 1_555 1_555
C12 C11 1_555 1_555
H9 C12 1_555 1_555
C13 C8 1_555 1_555
H10 C13 1_555 1_555
H26_2 C38_2 1_555 1_555
C39_2 C38_2 1_555 1_555
C40_2 C39_2 1_555 1_555
C42_2 C43_2 1_555 1_555
C43_2 C44_2 1_555 1_555
C44_2 H29_2 1_555 1_555
C45_2 C44_2 1_555 1_555
C46_2 O8_2 1_555 1_555
C47_2 C46_2 1_555 1_555
H31_2 C47_2 1_555 1_555
C48_2 C43_2 1_555 1_555
H32_2 C48_2 1_555 1_555
C12 C13 1_555 1_555
C45_2 C46_2 1_555 1_555
C47_2 C48_2 1_555 1_555
O11 C28_2 1_555 1_555
O12 C28_2 1_555 1_555
H18_2 C24_2 1_555 1_555
C28_2 C29_2 1_555 1_555
C29_2 C30_2 1_555 1_555
C30_2 H21 1_555 1_555
C31_2 C30_2 1_555 1_555
H22 C31_2 1_555 1_555
C32_2 O3_2 1_555 1_555
C33_2 C32_2 1_555 1_555
H23_2 C33_2 1_555 1_555
C34_2 C29_2 1_555 1_555
H24_2 C34_2 1_555 1_555
C31_2 C32_2 1_555 1_555
C33_2 C34_2 1_555 1_555
Zn3 O1_2 1_555 1_555
O1_2 C21_2 1_555 1_555
O2_2 Zn3 1_555 1_555
O6_2 Zn3 1_555 1_555
O7_2 C35_2 1_555 1_555
N1_2 Zn3 1_555 1_555
C1_2 N1_2 1_555 1_555
H1_2 C1_2 1_555 1_555
C2_2 C1_2 1_555 1_555
H2_2 C2_2 1_555 1_555
C3_2 C2_2 1_555 1_555
C4_2 C3_2 1_555 1_555
C5_2 N1_2 1_555 1_555
H4_2 C5_2 1_555 1_555
C21_2 O2_2 1_555 1_555
C22_2 C21_2 1_555 1_555
C23_2 C22_2 1_555 1_555
H17_2 C23_2 1_555 1_555
C26_2 C25_2 1_555 1_555
H19_2 C26_2 1_555 1_555
C27_2 C22_2 1_555 1_555
H20_2 C27_2 1_555 1_555
C35_2 O6_2 1_555 1_555
C36_2 C35_2 1_555 1_555
C37_2 C36_2 1_555 1_555
H25_2 C37_2 1_555 1_555
C41_2 C36_2 1_555 1_555
C4_2 C5_2 1_555 1_555
C26_2 C27_2 1_555 1_555
H11 C14 1_555 1_555
C15 C14 1_555 1_555
H12 C15 1_555 1_555
C16 H13 1_555 1_555
C17 C16 1_555 1_555
H14 C17 1_555 1_555
C18 C15 1_555 1_555
C19 C18 1_555 1_555
H15 C19 1_555 1_555
C20 C19 1_555 1_555
H16 C20 1_555 1_555
N3 C16 1_555 1_555
C17 C18 1_555 1_555
C20 N3 1_555 1_555
Zn5 O9 1_555 1_555
N3_2 Zn5 1_555 1_555
C7_2 C6_2 1_555 1_555
H6_2 C7_2 1_555 1_555
C8_2 C7_2 1_555 1_555
C9_2 C8_2 1_555 1_555
H7_2 C9_2 1_555 1_555
C10_2 C9_2 1_555 1_555
H8_2 C10_2 1_555 1_555
C11_2 C10_2 1_555 1_555
C12_2 C11_2 1_555 1_555
H9_2 C12_2 1_555 1_555
C13_2 C8_2 1_555 1_555
H10_2 C13_2 1_555 1_555
C14_2 C11_2 1_555 1_555
H11_2 C14_2 1_555 1_555
C15_2 C14_2 1_555 1_555
H12_2 C15_2 1_555 1_555
C16_2 H13_2 1_555 1_555
C17_2 C16_2 1_555 1_555
H14_2 C17_2 1_555 1_555
C18_2 C15_2 1_555 1_555
C19_2 C18_2 1_555 1_555
H15_2 C19_2 1_555 1_555
C20_2 C19_2 1_555 1_555
H16_2 C20_2 1_555 1_555
N3_2 C16_2 1_555 1_555
C12_2 C13_2 1_555 1_555
C17_2 C18_2 1_555 1_555
C20_2 N3_2 1_555 1_555
C7_3 C6_3 1_555 1_555
H6_3 C7_3 1_555 1_555
C8_3 C7_3 1_555 1_555
C9_3 C8_3 1_555 1_555
H7_3 C9_3 1_555 1_555
C10_3 C9_3 1_555 1_555
H8_3 C10_3 1_555 1_555
C11_3 C10_3 1_555 1_555
C12_3 C11_3 1_555 1_555
H9_3 C12_3 1_555 1_555
C13_3 C8_3 1_555 1_555
H10_3 C13_3 1_555 1_555
C14_3 C11_3 1_555 1_555
H11_3 C14_3 1_555 1_555
C15_3 C14_3 1_555 1_555
H12_3 C15_3 1_555 1_555
C16_3 H13_3 1_555 1_555
C17_3 C16_3 1_555 1_555
H14_3 C17_3 1_555 1_555
C18_3 C15_3 1_555 1_555
C19_3 C18_3 1_555 1_555
H15_3 C19_3 1_555 1_555
C20_3 C19_3 1_555 1_555
H16_3 C20_3 1_555 1_555
N2 C16_3 1_555 1_555
Zn6 N2 1_555 1_555
C12_3 C13_3 1_555 1_555
C17_3 C18_3 1_555 1_555
C20_3 N2 1_555 1_555
O13_2 Zn6 1_555 1_555
H11_4 C14_4 1_555 1_555
C15_4 C14_4 1_555 1_555
H12_4 C15_4 1_555 1_555
C16_4 H13_4 1_555 1_555
C17_4 C16_4 1_555 1_555
H14_4 C17_4 1_555 1_555
C18_4 C15_4 1_555 1_555
C19_4 C18_4 1_555 1_555
H15_4 C19_4 1_555 1_555
C20_4 C19_4 1_555 1_555
H16_4 C20_4 1_555 1_555
N2_2 C16_4 1_555 1_555
Zn6_2 N2_2 1_555 1_555
C17_4 C18_4 1_555 1_555
C20_4 N2_2 1_555 1_555
O8_3 C39_3 1_555 1_555
O9_2 C42_3 1_555 1_555
O10_2 C42_3 1_555 1_555
H26_3 C38_3 1_555 1_555
C39_3 C38_3 1_555 1_555
C40_3 C39_3 1_555 1_555
H27_4 C40_3 1_555 1_555
C42_3 C43_3 1_555 1_555
C43_3 C44_3 1_555 1_555
C44_3 H29_3 1_555 1_555
C45_3 C44_3 1_555 1_555
H30_3 C45_3 1_555 1_555
C46_3 O8_3 1_555 1_555
C47_3 C46_3 1_555 1_555
H31_3 C47_3 1_555 1_555
C48_3 C43_3 1_555 1_555
H32_3 C48_3 1_555 1_555
Zn6_2 O9_2 1_555 1_555
O10_2 Zn6_2 1_555 1_555
C45_3 C46_3 1_555 1_555
C47_3 C48_3 1_555 1_555
Zn1_2 O1_3 1_555 1_555
Zn6_2 O7_3 1_555 1_555
O1_3 C21_3 1_555 1_555
O2_3 Zn1_2 1_555 1_555
O3_3 C25_3 1_555 1_555
O4_2 C28_3 1_555 1_555
O5_2 C28_3 1_555 1_555
O6_3 Zn1_2 1_555 1_555
O7_3 C35_3 1_555 1_555
N1_3 Zn1_2 1_555 1_555
C1_3 N1_3 1_555 1_555
H1_3 C1_3 1_555 1_555
C2_3 C1_3 1_555 1_555
H2_3 C2_3 1_555 1_555
C3_3 C2_3 1_555 1_555
C4_3 C3_3 1_555 1_555
C5_3 N1_3 1_555 1_555
H4_3 C5_3 1_555 1_555
C21_3 O2_3 1_555 1_555
C22_3 C21_3 1_555 1_555
C23_3 C22_3 1_555 1_555
H17_3 C23_3 1_555 1_555
C24_3 C23_3 1_555 1_555
H18_3 C24_3 1_555 1_555
C25_3 C24_3 1_555 1_555
C26_3 C25_3 1_555 1_555
H19_3 C26_3 1_555 1_555
C27_3 C22_3 1_555 1_555
H20_3 C27_3 1_555 1_555
C28_3 C29_3 1_555 1_555
C29_3 C30_3 1_555 1_555
C31_3 C30_3 1_555 1_555
C32_3 O3_3 1_555 1_555
C33_3 C32_3 1_555 1_555
H23_3 C33_3 1_555 1_555
C34_3 C29_3 1_555 1_555
H24_3 C34_3 1_555 1_555
C35_3 O6_3 1_555 1_555
C36_3 C35_3 1_555 1_555
C37_3 C36_3 1_555 1_555
H25_3 C37_3 1_555 1_555
C41_3 C36_3 1_555 1_555
H28_4 C41_3 1_555 1_555
Zn3_2 O5_2 1_555 1_555
O11_2 Zn6_2 1_555 1_555
O12_2 Zn1_2 1_555 1_555
C4_3 C5_3 1_555 1_555
C26_3 C27_3 1_555 1_555
C31_3 C32_3 1_555 1_555
C33_3 C34_3 1_555 1_555
Zn3_2 O1_4 1_555 1_555
O1_4 C21_4 1_555 1_555
O2_4 Zn3_2 1_555 1_555
O6_4 Zn3_2 1_555 1_555
O7_4 C35_4 1_555 1_555
N1_4 Zn3_2 1_555 1_555
C1_4 N1_4 1_555 1_555
H1_4 C1_4 1_555 1_555
C2_4 C1_4 1_555 1_555
H2_4 C2_4 1_555 1_555
C3_4 C2_4 1_555 1_555
C4_4 C3_4 1_555 1_555
C5_4 N1_4 1_555 1_555
H4_4 C5_4 1_555 1_555
C21_4 O2_4 1_555 1_555
C22_4 C21_4 1_555 1_555
C23_4 C22_4 1_555 1_555
H17_4 C23_4 1_555 1_555
C26_4 C25_4 1_555 1_555
H19_4 C26_4 1_555 1_555
C27_4 C22_4 1_555 1_555
H20_4 C27_4 1_555 1_555
C35_4 O6_4 1_555 1_555
C36_4 C35_4 1_555 1_555
C37_4 C36_4 1_555 1_555
H25_4 C37_4 1_555 1_555
C41_4 C36_4 1_555 1_555
C4_4 C5_4 1_555 1_555
C26_4 C27_4 1_555 1_555
O11_2 C28_4 1_555 1_555
O12_2 C28_4 1_555 1_555
H18_4 C24_4 1_555 1_555
C28_4 C29_4 1_555 1_555
C29_4 C30_4 1_555 1_555
C30_4 H21_4 1_555 1_555
C31_4 C30_4 1_555 1_555
H22_4 C31_4 1_555 1_555
C32_4 O3_4 1_555 1_555
C33_4 C32_4 1_555 1_555
H23_4 C33_4 1_555 1_555
C34_4 C29_4 1_555 1_555
H24_4 C34_4 1_555 1_555
C31_4 C32_4 1_555 1_555
C33_4 C34_4 1_555 1_555
O8_4 C39_4 1_555 1_555
O14_2 C42_4 1_555 1_555
C7_4 C6_4 1_555 1_555
H6_4 C7_4 1_555 1_555
C8_4 C7_4 1_555 1_555
C9_4 C8_4 1_555 1_555
H7_4 C9_4 1_555 1_555
C10_4 C9_4 1_555 1_555
H8_4 C10_4 1_555 1_555
C11_4 C10_4 1_555 1_555
C12_4 C11_4 1_555 1_555
H9_4 C12_4 1_555 1_555
C13_4 C8_4 1_555 1_555
H10_4 C13_4 1_555 1_555
H26_4 C38_4 1_555 1_555
C39_4 C38_4 1_555 1_555
C40_4 C39_4 1_555 1_555
C42_4 C43_4 1_555 1_555
C43_4 C44_4 1_555 1_555
C44_4 H29_4 1_555 1_555
C45_4 C44_4 1_555 1_555
C46_4 O8_4 1_555 1_555
C47_4 C46_4 1_555 1_555
H31_4 C47_4 1_555 1_555
C48_4 C43_4 1_555 1_555
H32_4 C48_4 1_555 1_555
C12_4 C13_4 1_555 1_555
C45_4 C46_4 1_555 1_555
C47_4 C48_4 1_555 1_555

#END
