
###############################################################################
#
# This file contains modified crystal structure data generated from the
# MOF subset of the Cambridge Structural Database (CSD) v543 
# hosted by the Cambridge Crystallographic Data Centre (CCDC).
#
# This work is licensed under the Creative Commons
# Attribution-NonCommercial-ShareAlike 4.0 International License.
# To view a copy of this license, visit
# http://creativecommons.org/licenses/by-nc-sa/4.0/
# or send a letter to
# Creative Commons, PO Box 1866, Mountain View, CA 94042, USA.
#
# CIF created using the CSD Python API on 29 September 2022
# The structure has been converted into the P1 space group
# The structure has a 3D framework
# The original CSD entry ZETLER is in the monoclinic crystal system
# The framework has been calculated to contain at least 10.0% void space
# The void calculation uses a probe of radius 1.32A, grid spacing 0.4
#
###############################################################################

data_ZETLER
_chemical_formula_moiety         '(C192 H128 N8 O40 Zn8)n'
_symmetry_cell_setting           triclinic
_symmetry_space_group_name_H-M   'P 1'
_symmetry_Int_Tables_number      1
_space_group_name_Hall           'P 1'
loop_
_symmetry_equiv_pos_site_id
_symmetry_equiv_pos_as_xyz
1 x,y,z
_cell_length_a                   15.1869(8)
_cell_length_b                   24.1587(12)
_cell_length_c                   15.8511(8)
_cell_angle_alpha                90
_cell_angle_beta                 111.141(3)
_cell_angle_gamma                90
_cell_volume                     5424.28
loop_
_atom_site_label
_atom_site_type_symbol
_atom_site_fract_x
_atom_site_fract_y
_atom_site_fract_z
N2 N 0.3420(3) 0.53218(19) 0.5112(3)
C25 C 0.3760(4) 0.5505(2) 0.4488(4)
H17 H 0.4412 0.5595 0.4682
C26 C 0.3228(4) 0.5572(2) 0.3591(4)
H18 H 0.3504 0.5712 0.3184
C27 C 0.2272(4) 0.5433(2) 0.3283(4)
C28 C 0.1911(5) 0.5264(3) 0.3927(4)
H19 H 0.1258 0.5181 0.3752
C29 C 0.2492(5) 0.5214(2) 0.4818(5)
H20 H 0.2224 0.5097 0.5246
C30 C 0.1727(4) 0.5434(3) 0.2312(4)
H21 H 0.1912 0.5684 0.1944
C31 C 0.0990(4) 0.5108(3) 0.1911(4)
H22 H 0.0773 0.4886 0.2290
C32 C 0.0484(4) 0.5062(2) 0.0935(4)
C34 C 0.0537(4) 0.5465(3) 0.0329(4)
H24 H 0.0905 0.5788 0.0552
Zn2 Zn 0.42642(5) 0.51266(3) 0.63821(4)
O6 O 0.3286(3) 0.43444(16) 0.6430(3)
O7 O 0.4726(3) 0.43578(15) 0.6423(2)
O8 O 0.4066(3) 0.17589(16) 0.6349(3)
O9 O 0.1300(3) 0.05354(17) 0.7885(3)
O10 O 0.0405(3) 0.05456(16) 0.6426(3)
C35 C 0.4005(4) 0.4095(2) 0.6430(4)
C36 C 0.4020(4) 0.3481(2) 0.6426(4)
C37 C 0.3283(4) 0.3193(2) 0.6530(4)
H25 H 0.2775 0.3387 0.6607
C38 C 0.3282(4) 0.2619(3) 0.6521(4)
H26 H 0.2783 0.2420 0.6609
C39 C 0.4007(4) 0.2340(3) 0.6384(4)
C40 C 0.4751(4) 0.2625(2) 0.6273(4)
H27 H 0.5251 0.2431 0.6180
C41 C 0.4753(4) 0.3194(2) 0.6302(4)
H28 H 0.5264 0.3393 0.6235
C42 C 0.1157(4) 0.0648(2) 0.7075(4)
C43 C 0.1936(4) 0.0927(2) 0.6888(4)
C44 C 0.2738(4) 0.1084(2) 0.7577(4)
H29 H 0.2804 0.1005 0.8183
C45 C 0.3457(4) 0.1359(2) 0.7406(4)
H30 H 0.4012 0.1469 0.7889
C46 C 0.3350(4) 0.1469(2) 0.6526(5)
C47 C 0.2580(4) 0.1304(3) 0.5829(4)
H31 H 0.2531 0.1373 0.5223
C48 C 0.1867(4) 0.1035(3) 0.6005(4)
H32 H 0.1319 0.0922 0.5516
Zn6 Zn 0.07358(5) 0.01266(3) 0.86179(4)
O12 O 0.3700(3) 0.55354(17) 0.7115(3)
O14 O 0.5405(3) 0.55456(16) 0.6426(3)
C33 C 0.9936(4) 0.4595(3) 0.0591(4)
H23 H 0.9887 0.4315 0.0993
Zn5 Zn 0.92642(5) 0.01266(3) 0.63821(4)
N2_2 N 0.6580(3) 0.53218(19) 0.9888(3)
H20_2 H 0.7776 0.5097 0.9754
Zn2_2 Zn 0.57358(5) 0.51266(3) 0.86179(4)
O6_2 O 0.6714(3) 0.43444(16) 0.8570(3)
O7_2 O 0.5274(3) 0.43578(15) 0.8577(2)
O8_2 O 0.5934(3) 0.17589(16) 0.8651(3)
O9_2 O 0.8700(3) 0.05354(17) 0.7115(3)
O10_2 O 0.9595(3) 0.05456(16) 0.8574(3)
C35_2 C 0.5995(4) 0.4095(2) 0.8570(4)
C36_2 C 0.5980(4) 0.3481(2) 0.8574(4)
C37_2 C 0.6717(4) 0.3193(2) 0.8470(4)
H25_2 H 0.7225 0.3387 0.8393
C38_2 C 0.6718(4) 0.2619(3) 0.8479(4)
H26_2 H 0.7217 0.2420 0.8391
C39_2 C 0.5993(4) 0.2340(3) 0.8616(4)
C40_2 C 0.5249(4) 0.2625(2) 0.8727(4)
H27_2 H 0.4749 0.2431 0.8820
C41_2 C 0.5247(4) 0.3194(2) 0.8698(4)
H28_2 H 0.4736 0.3393 0.8765
C42_2 C 0.8843(4) 0.0648(2) 0.7925(4)
C43_2 C 0.8064(4) 0.0927(2) 0.8112(4)
C44_2 C 0.7262(4) 0.1084(2) 0.7423(4)
H29_2 H 0.7196 0.1005 0.6817
C45_2 C 0.6543(4) 0.1359(2) 0.7594(4)
H30_2 H 0.5988 0.1469 0.7111
C46_2 C 0.6650(4) 0.1469(2) 0.8474(5)
C47_2 C 0.7420(4) 0.1304(3) 0.9171(4)
H31_2 H 0.7469 0.1373 0.9777
C48_2 C 0.8133(4) 0.1035(3) 0.8995(4)
H32_2 H 0.8681 0.0922 0.9484
O12_2 O 0.6300(3) 0.55354(17) 0.7885(3)
O14_2 O 0.4595(3) 0.55456(16) 0.8574(3)
N2_3 N 0.8420(3) 0.03218(19) 0.5112(3)
C25_2 C 0.8760(4) 0.0505(2) 0.4488(4)
H17_2 H 0.9412 0.0595 0.4682
C26_2 C 0.8228(4) 0.0572(2) 0.3591(4)
H18_2 H 0.8504 0.0712 0.3184
C27_2 C 0.7272(4) 0.0433(2) 0.3283(4)
C28_2 C 0.6911(5) 0.0264(3) 0.3927(4)
H19_2 H 0.6258 0.0181 0.3752
C29_2 C 0.7492(5) 0.0214(2) 0.4818(5)
H20_3 H 0.7224 0.0097 0.5246
C30_2 C 0.6727(4) 0.0434(3) 0.2312(4)
H21_2 H 0.6912 0.0684 0.1944
C31_2 C 0.5990(4) 0.0108(3) 0.1911(4)
C32_2 C 0.5484(4) 0.0062(2) 0.0935(4)
C34_2 C 0.5537(4) 0.0465(3) 0.0329(4)
H24_2 H 0.5905 0.0788 0.0552
H22_2 H 0.5773 0.9886 0.2290
C33_2 C 0.4936(4) 0.9595(3) 0.0591(4)
H23_2 H 0.4887 0.9315 0.0993
O6_3 O 0.8286(3) 0.93444(16) 0.6430(3)
O7_3 O 0.9726(3) 0.93578(15) 0.6423(2)
O8_3 O 0.9066(3) 0.67589(16) 0.6349(3)
C35_3 C 0.9005(4) 0.9095(2) 0.6430(4)
C36_3 C 0.9020(4) 0.8481(2) 0.6426(4)
C37_3 C 0.8283(4) 0.8193(2) 0.6530(4)
H25_3 H 0.7775 0.8387 0.6607
C38_3 C 0.8282(4) 0.7619(3) 0.6521(4)
H26_3 H 0.7783 0.7420 0.6609
C39_3 C 0.9007(4) 0.7340(3) 0.6384(4)
C40_3 C 0.9751(4) 0.7625(2) 0.6273(4)
C41_3 C 0.9753(4) 0.8194(2) 0.6302(4)
C42_3 C 0.6157(4) 0.5648(2) 0.7075(4)
C43_3 C 0.6936(4) 0.5927(2) 0.6888(4)
C44_3 C 0.7738(4) 0.6084(2) 0.7577(4)
H29_3 H 0.7804 0.6005 0.8183
C45_3 C 0.8457(4) 0.6359(2) 0.7406(4)
H30_3 H 0.9012 0.6469 0.7889
C46_3 C 0.8350(4) 0.6469(2) 0.6526(5)
C47_3 C 0.7580(4) 0.6304(3) 0.5829(4)
H31_3 H 0.7531 0.6373 0.5223
C48_3 C 0.6867(4) 0.6035(3) 0.6005(4)
H32_3 H 0.6319 0.5922 0.5516
N2_4 N 0.1580(3) 0.03218(19) 0.9888(3)
H20_4 H 0.2776 0.0097 0.9754
O6_4 O 0.1714(3) 0.93444(16) 0.8570(3)
O7_4 O 0.0274(3) 0.93578(15) 0.8577(2)
O8_4 O 0.0934(3) 0.67589(16) 0.8651(3)
C35_4 C 0.0995(4) 0.9095(2) 0.8570(4)
C36_4 C 0.0980(4) 0.8481(2) 0.8574(4)
C37_4 C 0.1717(4) 0.8193(2) 0.8470(4)
H25_4 H 0.2225 0.8387 0.8393
C38_4 C 0.1718(4) 0.7619(3) 0.8479(4)
H26_4 H 0.2217 0.7420 0.8391
C39_4 C 0.0993(4) 0.7340(3) 0.8616(4)
C40_4 C 0.0249(4) 0.7625(2) 0.8727(4)
C41_4 C 0.0247(4) 0.8194(2) 0.8698(4)
C42_4 C 0.3843(4) 0.5648(2) 0.7925(4)
C43_4 C 0.3064(4) 0.5927(2) 0.8112(4)
C44_4 C 0.2262(4) 0.6084(2) 0.7423(4)
H29_4 H 0.2196 0.6005 0.6817
C45_4 C 0.1543(4) 0.6359(2) 0.7594(4)
H30_4 H 0.0988 0.6469 0.7111
C46_4 C 0.1650(4) 0.6469(2) 0.8474(5)
C47_4 C 0.2420(4) 0.6304(3) 0.9171(4)
H31_4 H 0.2469 0.6373 0.9777
C48_4 C 0.3133(4) 0.6035(3) 0.8995(4)
H32_4 H 0.3681 0.5922 0.9484
C9 C 0.0064(4) 0.5405(3) 0.9409(4)
H7 H 0.0113 0.5685 0.9007
Zn3 Zn 0.07358(5) 0.98734(3) 0.36179(4)
Zn1 Zn 0.57358(5) 0.48734(3) 0.36179(4)
O1 O 0.6714(3) 0.56556(16) 0.3570(3)
O2 O 0.5274(3) 0.56422(15) 0.3577(2)
O3 O 0.5934(3) 0.82411(16) 0.3651(3)
O4 O 0.8700(3) 0.94646(17) 0.2115(3)
O5 O 0.9595(3) 0.94544(16) 0.3574(3)
N1 N 0.6580(3) 0.46782(19) 0.4888(3)
C1 C 0.6240(4) 0.4495(2) 0.5512(4)
H1 H 0.5588 0.4405 0.5318
C2 C 0.6772(4) 0.4428(2) 0.6409(4)
H2 H 0.6496 0.4288 0.6816
C3 C 0.7728(4) 0.4567(2) 0.6717(4)
C4 C 0.8089(5) 0.4736(3) 0.6073(4)
H3 H 0.8742 0.4819 0.6248
C5 C 0.7508(5) 0.4786(2) 0.5182(5)
H4 H 0.7776 0.4903 0.4754
C6 C 0.8273(4) 0.4566(3) 0.7688(4)
H5 H 0.8088 0.4316 0.8056
C7 C 0.9010(4) 0.4892(3) 0.8089(4)
H6 H 0.9227 0.5114 0.7710
C8 C 0.9516(4) 0.4938(2) 0.9065(4)
C10 C 0.9463(4) 0.4535(3) 0.9671(4)
H8 H 0.9095 0.4212 0.9448
C11 C 0.5995(4) 0.5905(2) 0.3570(4)
C12 C 0.5980(4) 0.6519(2) 0.3574(4)
C13 C 0.6717(4) 0.6807(2) 0.3470(4)
H9 H 0.7225 0.6613 0.3393
C14 C 0.6718(4) 0.7381(3) 0.3479(4)
H10 H 0.7217 0.7580 0.3391
C15 C 0.5993(4) 0.7660(3) 0.3616(4)
C16 C 0.5249(4) 0.7375(2) 0.3727(4)
H11 H 0.4749 0.7569 0.3820
C17 C 0.5247(4) 0.6806(2) 0.3698(4)
H12 H 0.4736 0.6607 0.3765
C18 C 0.8843(4) 0.9352(2) 0.2925(4)
C19 C 0.8064(4) 0.9073(2) 0.3112(4)
C20 C 0.7262(4) 0.8916(2) 0.2423(4)
H13 H 0.7196 0.8995 0.1817
C21 C 0.6543(4) 0.8641(2) 0.2594(4)
H14 H 0.5988 0.8531 0.2111
C22 C 0.6650(4) 0.8531(2) 0.3474(5)
C23 C 0.7420(4) 0.8696(3) 0.4171(4)
H15 H 0.7469 0.8627 0.4777
C24 C 0.8133(4) 0.8965(3) 0.3995(4)
H16 H 0.8681 0.9078 0.4484
Zn4 Zn 0.92642(5) 0.98734(3) 0.13821(4)
O11 O 0.6300(3) 0.44646(17) 0.2885(3)
O13 O 0.4595(3) 0.44544(16) 0.3574(3)
Zn1_2 Zn 0.42642(5) 0.48734(3) 0.13821(4)
O1_2 O 0.3286(3) 0.56556(16) 0.1430(3)
O2_2 O 0.4726(3) 0.56422(15) 0.1423(2)
O3_2 O 0.4066(3) 0.82411(16) 0.1349(3)
O4_2 O 0.1300(3) 0.94646(17) 0.2885(3)
O5_2 O 0.0405(3) 0.94544(16) 0.1426(3)
N1_2 N 0.3420(3) 0.46782(19) 0.0112(3)
H4_2 H 0.2224 0.4903 0.0246
C11_2 C 0.4005(4) 0.5905(2) 0.1430(4)
C12_2 C 0.4020(4) 0.6519(2) 0.1426(4)
C13_2 C 0.3283(4) 0.6807(2) 0.1530(4)
H9_2 H 0.2775 0.6613 0.1607
C14_2 C 0.3282(4) 0.7381(3) 0.1521(4)
H10_2 H 0.2783 0.7580 0.1609
C15_2 C 0.4007(4) 0.7660(3) 0.1384(4)
C16_2 C 0.4751(4) 0.7375(2) 0.1273(4)
H11_2 H 0.5251 0.7569 0.1180
C17_2 C 0.4753(4) 0.6806(2) 0.1302(4)
H12_2 H 0.5264 0.6607 0.1235
C18_2 C 0.1157(4) 0.9352(2) 0.2075(4)
C19_2 C 0.1936(4) 0.9073(2) 0.1888(4)
C20_2 C 0.2738(4) 0.8916(2) 0.2577(4)
H13_2 H 0.2804 0.8995 0.3183
C21_2 C 0.3457(4) 0.8641(2) 0.2406(4)
H14_2 H 0.4012 0.8531 0.2889
C22_2 C 0.3350(4) 0.8531(2) 0.1526(5)
C23_2 C 0.2580(4) 0.8696(3) 0.0829(4)
H15_2 H 0.2531 0.8627 0.0223
C24_2 C 0.1867(4) 0.8965(3) 0.1005(4)
H16_2 H 0.1319 0.9078 0.0516
O11_2 O 0.3700(3) 0.44646(17) 0.2115(3)
O13_2 O 0.5405(3) 0.44544(16) 0.1426(3)
O1_3 O 0.1714(3) 0.06556(16) 0.3570(3)
O2_3 O 0.0274(3) 0.06422(15) 0.3577(2)
O3_3 O 0.0934(3) 0.32411(16) 0.3651(3)
H6_2 H 0.4227 0.0114 0.7710
C9_2 C 0.5064(4) 0.0405(3) 0.9409(4)
H7_2 H 0.5113 0.0685 0.9007
C11_3 C 0.0995(4) 0.0905(2) 0.3570(4)
C12_3 C 0.0980(4) 0.1519(2) 0.3574(4)
C13_3 C 0.1717(4) 0.1807(2) 0.3470(4)
H9_3 H 0.2225 0.1613 0.3393
C14_3 C 0.1718(4) 0.2381(3) 0.3479(4)
H10_3 H 0.2217 0.2580 0.3391
C15_3 C 0.0993(4) 0.2660(3) 0.3616(4)
C16_3 C 0.0249(4) 0.2375(2) 0.3727(4)
C17_3 C 0.0247(4) 0.1806(2) 0.3698(4)
C18_3 C 0.3843(4) 0.4352(2) 0.2925(4)
C19_3 C 0.3064(4) 0.4073(2) 0.3112(4)
C20_3 C 0.2262(4) 0.3916(2) 0.2423(4)
H13_3 H 0.2196 0.3995 0.1817
C21_3 C 0.1543(4) 0.3641(2) 0.2594(4)
H14_3 H 0.0988 0.3531 0.2111
C22_3 C 0.1650(4) 0.3531(2) 0.3474(5)
C23_3 C 0.2420(4) 0.3696(3) 0.4171(4)
H15_3 H 0.2469 0.3627 0.4777
C24_3 C 0.3133(4) 0.3965(3) 0.3995(4)
H16_3 H 0.3681 0.4078 0.4484
N1_3 N 0.1580(3) 0.96782(19) 0.4888(3)
C1_2 C 0.1240(4) 0.9495(2) 0.5512(4)
H1_2 H 0.0588 0.9405 0.5318
C2_2 C 0.1772(4) 0.9428(2) 0.6409(4)
H2_2 H 0.1496 0.9288 0.6816
C3_2 C 0.2728(4) 0.9567(2) 0.6717(4)
C4_2 C 0.3089(5) 0.9736(3) 0.6073(4)
H3_2 H 0.3742 0.9819 0.6248
C5_2 C 0.2508(5) 0.9786(2) 0.5182(5)
H4_3 H 0.2776 0.9903 0.4754
C6_2 C 0.3273(4) 0.9566(3) 0.7688(4)
H5_2 H 0.3088 0.9316 0.8056
C7_2 C 0.4010(4) 0.9892(3) 0.8089(4)
C8_2 C 0.4516(4) 0.9938(2) 0.9065(4)
C10_2 C 0.4463(4) 0.9535(3) 0.9671(4)
H8_2 H 0.4095 0.9212 0.9448
O1_4 O 0.8286(3) 0.06556(16) 0.1430(3)
O2_4 O 0.9726(3) 0.06422(15) 0.1423(2)
O3_4 O 0.9066(3) 0.32411(16) 0.1349(3)
C11_4 C 0.9005(4) 0.0905(2) 0.1430(4)
C12_4 C 0.9020(4) 0.1519(2) 0.1426(4)
C13_4 C 0.8283(4) 0.1807(2) 0.1530(4)
H9_4 H 0.7775 0.1613 0.1607
C14_4 C 0.8282(4) 0.2381(3) 0.1521(4)
H10_4 H 0.7783 0.2580 0.1609
C15_4 C 0.9007(4) 0.2660(3) 0.1384(4)
C16_4 C 0.9751(4) 0.2375(2) 0.1273(4)
C17_4 C 0.9753(4) 0.1806(2) 0.1302(4)
C18_4 C 0.6157(4) 0.4352(2) 0.2075(4)
C19_4 C 0.6936(4) 0.4073(2) 0.1888(4)
C20_4 C 0.7738(4) 0.3916(2) 0.2577(4)
H13_4 H 0.7804 0.3995 0.3183
C21_4 C 0.8457(4) 0.3641(2) 0.2406(4)
H14_4 H 0.9012 0.3531 0.2889
C22_4 C 0.8350(4) 0.3531(2) 0.1526(5)
C23_4 C 0.7580(4) 0.3696(3) 0.0829(4)
H15_4 H 0.7531 0.3627 0.0223
C24_4 C 0.6867(4) 0.3965(3) 0.1005(4)
H16_4 H 0.6319 0.4078 0.0516
N1_4 N 0.8420(3) 0.96782(19) 0.0112(3)
H4_4 H 0.7224 0.9903 0.0246
C1_3 C 0.3760(4) 0.4495(2) 0.9488(4)
H1_3 H 0.4412 0.4405 0.9682
C2_3 C 0.3228(4) 0.4428(2) 0.8591(4)
H2_3 H 0.3504 0.4288 0.8184
C3_3 C 0.2272(4) 0.4567(2) 0.8283(4)
C4_3 C 0.1911(5) 0.4736(3) 0.8927(4)
H3_3 H 0.1258 0.4819 0.8752
C5_3 C 0.2492(5) 0.4786(2) 0.9818(5)
C6_3 C 0.1727(4) 0.4566(3) 0.7312(4)
H5_3 H 0.1912 0.4316 0.6944
C7_3 C 0.0990(4) 0.4892(3) 0.6911(4)
H6_3 H 0.0773 0.5114 0.7290
C8_3 C 0.0484(4) 0.4938(2) 0.5935(4)
C10_3 C 0.0537(4) 0.4535(3) 0.5329(4)
H8_3 H 0.0905 0.4212 0.5552
C33_3 C 0.0064(4) 0.4595(3) 0.4409(4)
H23_3 H 0.0113 0.4315 0.4007
C9_3 C 0.9936(4) 0.5405(3) 0.5591(4)
H7_3 H 0.9887 0.5685 0.5993
C25_3 C 0.6240(4) 0.5505(2) 0.0512(4)
H17_3 H 0.5588 0.5595 0.0318
C26_3 C 0.6772(4) 0.5572(2) 0.1409(4)
H18_3 H 0.6496 0.5712 0.1816
C27_3 C 0.7728(4) 0.5433(2) 0.1717(4)
C28_3 C 0.8089(5) 0.5264(3) 0.1073(4)
H19_3 H 0.8742 0.5181 0.1248
C29_3 C 0.7508(5) 0.5214(2) 0.0182(5)
C30_3 C 0.8273(4) 0.5434(3) 0.2688(4)
H21_3 H 0.8088 0.5684 0.3056
C31_3 C 0.9010(4) 0.5108(3) 0.3089(4)
H22_3 H 0.9227 0.4886 0.2710
C32_3 C 0.9516(4) 0.5062(2) 0.4065(4)
C34_3 C 0.9463(4) 0.5465(3) 0.4671(4)
H24_3 H 0.9095 0.5788 0.4448
H27_3 H 0.0251 0.7431 0.6180
H28_3 H 0.0264 0.8393 0.6235
H11_3 H 0.9749 0.2569 0.3820
H12_3 H 0.9736 0.1607 0.3765
H11_4 H 0.0251 0.2569 0.1180
H12_4 H 0.0264 0.1607 0.1235
H6_4 H 0.5773 0.0114 0.7290
C9_4 C 0.4936(4) 0.0405(3) 0.5591(4)
H7_4 H 0.4887 0.0685 0.5993
C25_4 C 0.1240(4) 0.0505(2) 0.0512(4)
H17_4 H 0.0588 0.0595 0.0318
C26_4 C 0.1772(4) 0.0572(2) 0.1409(4)
H18_4 H 0.1496 0.0712 0.1816
C27_4 C 0.2728(4) 0.0433(2) 0.1717(4)
C28_4 C 0.3089(5) 0.0264(3) 0.1073(4)
H19_4 H 0.3742 0.0181 0.1248
C29_4 C 0.2508(5) 0.0214(2) 0.0182(5)
C30_4 C 0.3273(4) 0.0434(3) 0.2688(4)
H21_4 H 0.3088 0.0684 0.3056
C31_4 C 0.4010(4) 0.0108(3) 0.3089(4)
C32_4 C 0.4516(4) 0.0062(2) 0.4065(4)
C34_4 C 0.4463(4) 0.0465(3) 0.4671(4)
H24_4 H 0.4095 0.0788 0.4448
C1_4 C 0.8760(4) 0.9495(2) 0.9488(4)
H1_4 H 0.9412 0.9405 0.9682
C2_4 C 0.8228(4) 0.9428(2) 0.8591(4)
H2_4 H 0.8504 0.9288 0.8184
C3_4 C 0.7272(4) 0.9567(2) 0.8283(4)
C4_4 C 0.6911(5) 0.9736(3) 0.8927(4)
H3_4 H 0.6258 0.9819 0.8752
C5_4 C 0.7492(5) 0.9786(2) 0.9818(5)
C6_4 C 0.6727(4) 0.9566(3) 0.7312(4)
H5_4 H 0.6912 0.9316 0.6944
C7_4 C 0.5990(4) 0.9892(3) 0.6911(4)
C8_4 C 0.5484(4) 0.9938(2) 0.5935(4)
C10_4 C 0.5537(4) 0.9535(3) 0.5329(4)
H8_4 H 0.5905 0.9212 0.5552
H22_4 H 0.4227 0.9886 0.2710
C33_4 C 0.5064(4) 0.9595(3) 0.4409(4)
H23_4 H 0.5113 0.9315 0.4007
H27_4 H 0.9749 0.7431 0.8820
H28_4 H 0.9736 0.8393 0.8765
loop_
_geom_bond_atom_site_label_1
_geom_bond_atom_site_label_2
_geom_bond_site_symmetry_1
_geom_bond_site_symmetry_2
N2 C25 1_555 1_555
C25 H17 1_555 1_555
C26 C25 1_555 1_555
H18 C26 1_555 1_555
C27 C26 1_555 1_555
C28 C27 1_555 1_555
H19 C28 1_555 1_555
C29 N2 1_555 1_555
H20 C29 1_555 1_555
C30 C27 1_555 1_555
H21 C30 1_555 1_555
C31 C30 1_555 1_555
H22 C31 1_555 1_555
C32 C31 1_555 1_555
H24 C34 1_555 1_555
Zn2 N2 1_555 1_555
O6 Zn2 1_555 1_555
O7 Zn2 1_555 1_555
O8 C39 1_555 1_555
O9 C42 1_555 1_555
O10 C42 1_555 1_555
C35 O6 1_555 1_555
C36 C35 1_555 1_555
C37 C36 1_555 1_555
H25 C37 1_555 1_555
C38 C37 1_555 1_555
H26 C38 1_555 1_555
C39 C38 1_555 1_555
C40 C39 1_555 1_555
H27 C40 1_555 1_555
C41 C36 1_555 1_555
H28 C41 1_555 1_555
C42 C43 1_555 1_555
C43 C44 1_555 1_555
C44 H29 1_555 1_555
C45 C44 1_555 1_555
H30 C45 1_555 1_555
C46 O8 1_555 1_555
C47 C46 1_555 1_555
H31 C47 1_555 1_555
C48 C43 1_555 1_555
H32 C48 1_555 1_555
Zn6 O9 1_555 1_555
O12 Zn2 1_555 1_555
O14 Zn2 1_555 1_555
C28 C29 1_555 1_555
C32 C34 1_555 1_555
O7 C35 1_555 1_555
C40 C41 1_555 1_555
C45 C46 1_555 1_555
C47 C48 1_555 1_555
H23 C33 1_555 1_555
Zn2_2 N2_2 1_555 1_555
O6_2 Zn2_2 1_555 1_555
O7_2 Zn2_2 1_555 1_555
O8_2 C39_2 1_555 1_555
O9_2 C42_2 1_555 1_555
O10_2 C42_2 1_555 1_555
C35_2 O6_2 1_555 1_555
C36_2 C35_2 1_555 1_555
C37_2 C36_2 1_555 1_555
H25_2 C37_2 1_555 1_555
C38_2 C37_2 1_555 1_555
H26_2 C38_2 1_555 1_555
C39_2 C38_2 1_555 1_555
C40_2 C39_2 1_555 1_555
H27_2 C40_2 1_555 1_555
C41_2 C36_2 1_555 1_555
H28_2 C41_2 1_555 1_555
C42_2 C43_2 1_555 1_555
C43_2 C44_2 1_555 1_555
C44_2 H29_2 1_555 1_555
C45_2 C44_2 1_555 1_555
H30_2 C45_2 1_555 1_555
C46_2 O8_2 1_555 1_555
C47_2 C46_2 1_555 1_555
H31_2 C47_2 1_555 1_555
C48_2 C43_2 1_555 1_555
H32_2 C48_2 1_555 1_555
Zn5 O9_2 1_555 1_555
O12_2 Zn2_2 1_555 1_555
O14_2 Zn2_2 1_555 1_555
O7_2 C35_2 1_555 1_555
C40_2 C41_2 1_555 1_555
C45_2 C46_2 1_555 1_555
C47_2 C48_2 1_555 1_555
N2_3 C25_2 1_555 1_555
C25_2 H17_2 1_555 1_555
C26_2 C25_2 1_555 1_555
H18_2 C26_2 1_555 1_555
C27_2 C26_2 1_555 1_555
C28_2 C27_2 1_555 1_555
H19_2 C28_2 1_555 1_555
C29_2 N2_3 1_555 1_555
H20_3 C29_2 1_555 1_555
C30_2 C27_2 1_555 1_555
H21_2 C30_2 1_555 1_555
C31_2 C30_2 1_555 1_555
C32_2 C31_2 1_555 1_555
H24_2 C34_2 1_555 1_555
Zn5 N2_3 1_555 1_555
C28_2 C29_2 1_555 1_555
C32_2 C34_2 1_555 1_555
H23_2 C33_2 1_555 1_555
O8_3 C39_3 1_555 1_555
O12_2 C42_3 1_555 1_555
O14 C42_3 1_555 1_555
C35_3 O6_3 1_555 1_555
C36_3 C35_3 1_555 1_555
C37_3 C36_3 1_555 1_555
H25_3 C37_3 1_555 1_555
C38_3 C37_3 1_555 1_555
H26_3 C38_3 1_555 1_555
C39_3 C38_3 1_555 1_555
C40_3 C39_3 1_555 1_555
C41_3 C36_3 1_555 1_555
C42_3 C43_3 1_555 1_555
C43_3 C44_3 1_555 1_555
C44_3 H29_3 1_555 1_555
C45_3 C44_3 1_555 1_555
H30_3 C45_3 1_555 1_555
C46_3 O8_3 1_555 1_555
C47_3 C46_3 1_555 1_555
H31_3 C47_3 1_555 1_555
C48_3 C43_3 1_555 1_555
H32_3 C48_3 1_555 1_555
O7_3 C35_3 1_555 1_555
C40_3 C41_3 1_555 1_555
C45_3 C46_3 1_555 1_555
C47_3 C48_3 1_555 1_555
Zn6 N2_4 1_555 1_555
O8_4 C39_4 1_555 1_555
O12 C42_4 1_555 1_555
O14_2 C42_4 1_555 1_555
C35_4 O6_4 1_555 1_555
C36_4 C35_4 1_555 1_555
C37_4 C36_4 1_555 1_555
H25_4 C37_4 1_555 1_555
C38_4 C37_4 1_555 1_555
H26_4 C38_4 1_555 1_555
C39_4 C38_4 1_555 1_555
C40_4 C39_4 1_555 1_555
C41_4 C36_4 1_555 1_555
C42_4 C43_4 1_555 1_555
C43_4 C44_4 1_555 1_555
C44_4 H29_4 1_555 1_555
C45_4 C44_4 1_555 1_555
H30_4 C45_4 1_555 1_555
C46_4 O8_4 1_555 1_555
C47_4 C46_4 1_555 1_555
H31_4 C47_4 1_555 1_555
C48_4 C43_4 1_555 1_555
H32_4 C48_4 1_555 1_555
O7_4 C35_4 1_555 1_555
C40_4 C41_4 1_555 1_555
C45_4 C46_4 1_555 1_555
C47_4 C48_4 1_555 1_555
H7 C9 1_555 1_555
Zn1 O1 1_555 1_555
O1 C11 1_555 1_555
O2 Zn1 1_555 1_555
O3 C15 1_555 1_555
O4 C18 1_555 1_555
O5 C18 1_555 1_555
N1 Zn1 1_555 1_555
C1 N1 1_555 1_555
H1 C1 1_555 1_555
C2 C1 1_555 1_555
H2 C2 1_555 1_555
C3 C2 1_555 1_555
C4 C3 1_555 1_555
H3 C4 1_555 1_555
C5 N1 1_555 1_555
H4 C5 1_555 1_555
C6 C3 1_555 1_555
H5 C6 1_555 1_555
C7 C6 1_555 1_555
H6 C7 1_555 1_555
C8 C7 1_555 1_555
C10 C8 1_555 1_555
H8 C10 1_555 1_555
C11 O2 1_555 1_555
C12 C11 1_555 1_555
C13 C12 1_555 1_555
H9 C13 1_555 1_555
C14 C13 1_555 1_555
H10 C14 1_555 1_555
C15 C14 1_555 1_555
C16 C15 1_555 1_555
H11 C16 1_555 1_555
C17 C12 1_555 1_555
H12 C17 1_555 1_555
C18 C19 1_555 1_555
C19 C20 1_555 1_555
C20 H13 1_555 1_555
C21 C20 1_555 1_555
H14 C21 1_555 1_555
C22 O3 1_555 1_555
C23 C22 1_555 1_555
H15 C23 1_555 1_555
C24 C19 1_555 1_555
H16 C24 1_555 1_555
Zn4 O4 1_555 1_555
O11 Zn1 1_555 1_555
O13 Zn1 1_555 1_555
C4 C5 1_555 1_555
C16 C17 1_555 1_555
C21 C22 1_555 1_555
C23 C24 1_555 1_555
Zn1_2 O1_2 1_555 1_555
O1_2 C11_2 1_555 1_555
O2_2 Zn1_2 1_555 1_555
O3_2 C15_2 1_555 1_555
O4_2 C18_2 1_555 1_555
O5_2 C18_2 1_555 1_555
N1_2 Zn1_2 1_555 1_555
C11_2 O2_2 1_555 1_555
C12_2 C11_2 1_555 1_555
C13_2 C12_2 1_555 1_555
H9_2 C13_2 1_555 1_555
C14_2 C13_2 1_555 1_555
H10_2 C14_2 1_555 1_555
C15_2 C14_2 1_555 1_555
C16_2 C15_2 1_555 1_555
H11_2 C16_2 1_555 1_555
C17_2 C12_2 1_555 1_555
H12_2 C17_2 1_555 1_555
C18_2 C19_2 1_555 1_555
C19_2 C20_2 1_555 1_555
C20_2 H13_2 1_555 1_555
C21_2 C20_2 1_555 1_555
H14_2 C21_2 1_555 1_555
C22_2 O3_2 1_555 1_555
C23_2 C22_2 1_555 1_555
H15_2 C23_2 1_555 1_555
C24_2 C19_2 1_555 1_555
H16_2 C24_2 1_555 1_555
Zn3 O4_2 1_555 1_555
O11_2 Zn1_2 1_555 1_555
O13_2 Zn1_2 1_555 1_555
C16_2 C17_2 1_555 1_555
C21_2 C22_2 1_555 1_555
C23_2 C24_2 1_555 1_555
O1_3 C11_3 1_555 1_555
O3_3 C15_3 1_555 1_555
O11_2 C18_3 1_555 1_555
O13 C18_3 1_555 1_555
H7_2 C9_2 1_555 1_555
C11_3 O2_3 1_555 1_555
C12_3 C11_3 1_555 1_555
C13_3 C12_3 1_555 1_555
H9_3 C13_3 1_555 1_555
C14_3 C13_3 1_555 1_555
H10_3 C14_3 1_555 1_555
C15_3 C14_3 1_555 1_555
C16_3 C15_3 1_555 1_555
C17_3 C12_3 1_555 1_555
C18_3 C19_3 1_555 1_555
C19_3 C20_3 1_555 1_555
C20_3 H13_3 1_555 1_555
C21_3 C20_3 1_555 1_555
H14_3 C21_3 1_555 1_555
C22_3 O3_3 1_555 1_555
C23_3 C22_3 1_555 1_555
H15_3 C23_3 1_555 1_555
C24_3 C19_3 1_555 1_555
H16_3 C24_3 1_555 1_555
C16_3 C17_3 1_555 1_555
C21_3 C22_3 1_555 1_555
C23_3 C24_3 1_555 1_555
N1_3 Zn3 1_555 1_555
C1_2 N1_3 1_555 1_555
H1_2 C1_2 1_555 1_555
C2_2 C1_2 1_555 1_555
H2_2 C2_2 1_555 1_555
C3_2 C2_2 1_555 1_555
C4_2 C3_2 1_555 1_555
H3_2 C4_2 1_555 1_555
C5_2 N1_3 1_555 1_555
H4_3 C5_2 1_555 1_555
C6_2 C3_2 1_555 1_555
H5_2 C6_2 1_555 1_555
C7_2 C6_2 1_555 1_555
C8_2 C7_2 1_555 1_555
C10_2 C8_2 1_555 1_555
H8_2 C10_2 1_555 1_555
C4_2 C5_2 1_555 1_555
O1_4 C11_4 1_555 1_555
O3_4 C15_4 1_555 1_555
O11 C18_4 1_555 1_555
O13_2 C18_4 1_555 1_555
C11_4 O2_4 1_555 1_555
C12_4 C11_4 1_555 1_555
C13_4 C12_4 1_555 1_555
H9_4 C13_4 1_555 1_555
C14_4 C13_4 1_555 1_555
H10_4 C14_4 1_555 1_555
C15_4 C14_4 1_555 1_555
C16_4 C15_4 1_555 1_555
C17_4 C12_4 1_555 1_555
C18_4 C19_4 1_555 1_555
C19_4 C20_4 1_555 1_555
C20_4 H13_4 1_555 1_555
C21_4 C20_4 1_555 1_555
H14_4 C21_4 1_555 1_555
C22_4 O3_4 1_555 1_555
C23_4 C22_4 1_555 1_555
H15_4 C23_4 1_555 1_555
C24_4 C19_4 1_555 1_555
H16_4 C24_4 1_555 1_555
C16_4 C17_4 1_555 1_555
C21_4 C22_4 1_555 1_555
C23_4 C24_4 1_555 1_555
N1_4 Zn4 1_555 1_555
H1_3 C1_3 1_555 1_555
C2_3 C1_3 1_555 1_555
H2_3 C2_3 1_555 1_555
C3_3 C2_3 1_555 1_555
C4_3 C3_3 1_555 1_555
H3_3 C4_3 1_555 1_555
C6_3 C3_3 1_555 1_555
H5_3 C6_3 1_555 1_555
C7_3 C6_3 1_555 1_555
H6_3 C7_3 1_555 1_555
C8_3 C7_3 1_555 1_555
C10_3 C8_3 1_555 1_555
H8_3 C10_3 1_555 1_555
C33_3 C10_3 1_555 1_555
H23_3 C33_3 1_555 1_555
C4_3 C5_3 1_555 1_555
H7_3 C9_3 1_555 1_555
C25_3 H17_3 1_555 1_555
C26_3 C25_3 1_555 1_555
H18_3 C26_3 1_555 1_555
C27_3 C26_3 1_555 1_555
C28_3 C27_3 1_555 1_555
H19_3 C28_3 1_555 1_555
C30_3 C27_3 1_555 1_555
H21_3 C30_3 1_555 1_555
C31_3 C30_3 1_555 1_555
H22_3 C31_3 1_555 1_555
C32_3 C31_3 1_555 1_555
C34_3 C9_3 1_555 1_555
H24_3 C34_3 1_555 1_555
C28_3 C29_3 1_555 1_555
C32_3 C34_3 1_555 1_555
H7_4 C9_4 1_555 1_555
C25_4 H17_4 1_555 1_555
C26_4 C25_4 1_555 1_555
H18_4 C26_4 1_555 1_555
C27_4 C26_4 1_555 1_555
C28_4 C27_4 1_555 1_555
H19_4 C28_4 1_555 1_555
C30_4 C27_4 1_555 1_555
H21_4 C30_4 1_555 1_555
C31_4 C30_4 1_555 1_555
C32_4 C31_4 1_555 1_555
C34_4 C9_4 1_555 1_555
H24_4 C34_4 1_555 1_555
C28_4 C29_4 1_555 1_555
C32_4 C34_4 1_555 1_555
H1_4 C1_4 1_555 1_555
C2_4 C1_4 1_555 1_555
H2_4 C2_4 1_555 1_555
C3_4 C2_4 1_555 1_555
C4_4 C3_4 1_555 1_555
H3_4 C4_4 1_555 1_555
C6_4 C3_4 1_555 1_555
H5_4 C6_4 1_555 1_555
C7_4 C6_4 1_555 1_555
C8_4 C7_4 1_555 1_555
C10_4 C8_4 1_555 1_555
H8_4 C10_4 1_555 1_555
C33_4 C10_4 1_555 1_555
H23_4 C33_4 1_555 1_555
C4_4 C5_4 1_555 1_555

#END
