
###############################################################################
#
# This file contains modified crystal structure data generated from the
# MOF subset of the Cambridge Structural Database (CSD) v543 
# hosted by the Cambridge Crystallographic Data Centre (CCDC).
#
# This work is licensed under the Creative Commons
# Attribution-NonCommercial-ShareAlike 4.0 International License.
# To view a copy of this license, visit
# http://creativecommons.org/licenses/by-nc-sa/4.0/
# or send a letter to
# Creative Commons, PO Box 1866, Mountain View, CA 94042, USA.
#
# CIF created using the CSD Python API on 29 September 2022
# The structure has been converted into the P1 space group
# The structure has a 3D framework
# The original CSD entry ZETLAN is in the monoclinic crystal system
# The framework has been calculated to contain at least 10.0% void space
# The void calculation uses a probe of radius 1.32A, grid spacing 0.4
#
###############################################################################

data_ZETLAN
_chemical_formula_moiety         '(C192 H128 N8 O38 Zn6)n'
_symmetry_cell_setting           triclinic
_symmetry_space_group_name_H-M   'P 1'
_symmetry_Int_Tables_number      1
_space_group_name_Hall           'P 1'
loop_
_symmetry_equiv_pos_site_id
_symmetry_equiv_pos_as_xyz
1 x,y,z
_cell_length_a                   13.878(3)
_cell_length_b                   24.509(5)
_cell_length_c                   16.593(3)
_cell_angle_alpha                90
_cell_angle_beta                 116.13(3)
_cell_angle_gamma                90
_cell_volume                     5067.05
loop_
_atom_site_label
_atom_site_type_symbol
_atom_site_fract_x
_atom_site_fract_y
_atom_site_fract_z
Zn1 Zn 0.31659(4) 0.338201(18) 0.29473(3)
Zn2 Zn 0.40778(4) 0.336635(18) 0.51676(3)
O1 O 0.4375(2) 0.33249(11) 0.2336(2)
O2 O 0.3722(2) 0.40683(11) 0.26347(19)
O3 O 0.6867(2) 0.50914(11) 0.1186(2)
O4 O 0.6286(2) 0.75820(11) 0.01321(19)
O5 O 0.6630(2) 0.76369(11) 0.15741(19)
O6 O 0.2202(2) 0.37641(12) 0.3378(2)
O7 O 0.2681(2) 0.37009(11) 0.4843(2)
N1 N 0.1935(3) 0.31197(15) 0.1732(2)
C1 C 0.2172(5) 0.2737(2) 0.1279(4)
H1 H 0.2885 0.2600 0.1548
C2 C 0.1514(5) 0.2526(3) 0.0490(4)
H2 H 0.1748 0.2248 0.0219
C3 C 0.0479(7) 0.2724(4) 0.0076(4)
C4 C 0.0182(5) 0.3104(3) 0.0517(4)
C5 C 0.0935(4) 0.3302(2) 0.1369(4)
H4 H 0.0719 0.3565 0.1678
C21 C 0.4327(3) 0.38314(16) 0.2347(3)
C22 C 0.4965(3) 0.41690(15) 0.2017(3)
C23 C 0.4826(3) 0.47291(16) 0.1939(3)
H17 H 0.4306 0.4895 0.2086
C24 C 0.5430(4) 0.50511(16) 0.1649(3)
H18 H 0.5316 0.5434 0.1585
C25 C 0.6201(3) 0.48080(16) 0.1455(3)
C26 C 0.6340(3) 0.42477(16) 0.1509(3)
H19 H 0.6858 0.4082 0.1358
C27 C 0.5719(3) 0.39332(16) 0.1785(3)
H20 H 0.5808 0.3548 0.1818
C28 C 0.6505(3) 0.73768(16) 0.0885(3)
C29 C 0.6635(3) 0.67748(16) 0.0979(3)
C30 C 0.6398(4) 0.64534(17) 0.0229(3)
C31 C 0.6478(4) 0.58877(17) 0.0317(3)
C32 C 0.6791(3) 0.56591(16) 0.1137(3)
C33 C 0.7066(4) 0.59713(17) 0.1896(3)
H23 H 0.7315 0.5804 0.2469
C34 C 0.6975(4) 0.65296(17) 0.1813(3)
H24 H 0.7147 0.6749 0.2331
C35 C 0.2049(3) 0.38364(16) 0.4054(3)
C36 C 0.1030(3) 0.41091(15) 0.3931(3)
C37 C 0.0363(4) 0.43469(19) 0.3124(3)
H25 H 0.0558 0.4344 0.2643
C41 C 0.0747(3) 0.41217(17) 0.4634(3)
H28 H 0.1209 0.3962 0.5195
Zn3 Zn 0.68341(4) 0.838201(18) 0.20527(3)
O11 O 0.3714(2) 0.25820(11) 0.48679(19)
O12 O 0.3370(2) 0.26369(11) 0.34259(19)
O13 O 0.4997(3) 0.42293(12) 0.5215(2)
O14 O 0.4923(2) 0.34793(11) 0.4479(2)
N3 N 0.4830(3) 0.33322(13) 0.6526(2)
O8 O 0.8202(2) 0.48598(12) 0.3579(2)
H3 H 0.9467 0.3239 0.0256
C38 C 0.9405(4) 0.45924(19) 0.3008(3)
H26 H 0.8946 0.4757 0.2452
C39 C 0.9137(3) 0.45921(17) 0.3706(3)
C40 C 0.9803(3) 0.43633(18) 0.4528(3)
H27 H 0.9612 0.4373 0.5011
C42 C 0.5288(3) 0.39603(17) 0.4732(3)
C43 C 0.6081(3) 0.41843(16) 0.4442(3)
C44 C 0.6247(3) 0.47449(16) 0.4472(3)
H29 H 0.5862 0.4980 0.4682
C45 C 0.6974(3) 0.49604(17) 0.4195(3)
H30 H 0.7083 0.5344 0.4206
C46 C 0.7538(3) 0.46146(17) 0.3902(3)
C47 C 0.7393(3) 0.40568(17) 0.3885(3)
H31 H 0.7798 0.3822 0.3695
C48 C 0.6659(3) 0.38448(16) 0.4145(3)
H32 H 0.6546 0.3462 0.4122
O8_2 O 0.1798(2) 0.98598(12) 0.1421(2)
O10 O 0.5077(2) 0.84793(11) 0.0521(2)
H3_2 H 0.0533 0.8239 0.4744
C6 C 0.0169(5) 0.7439(3) 0.5830(5)
C7 C 0.1073(6) 0.7681(4) 0.6368(5)
H6 H 0.1354 0.7977 0.6169
C8 C 0.1655(6) 0.7462(3) 0.7335(4)
C9 C 0.1484(5) 0.7003(3) 0.7712(3)
H7 H 0.0952 0.6751 0.7344
C10 C 0.2068(4) 0.6891(2) 0.8627(3)
H8 H 0.1925 0.6572 0.8881
C11 C 0.2863(4) 0.7256(2) 0.9158(3)
C12 C 0.3035(4) 0.7712(3) 0.8749(3)
H9 H 0.3589 0.7958 0.9105
C13 C 0.2459(5) 0.7825(3) 0.7874(4)
H10 H 0.2596 0.8148 0.7624
C38_2 C 0.0595(4) 0.95924(19) 0.1992(3)
H26_2 H 0.1054 0.9757 0.2548
C39_2 C 0.0863(3) 0.95921(17) 0.1294(3)
C40_2 C 0.0197(3) 0.93633(18) 0.0472(3)
C42_2 C 0.4712(3) 0.89603(17) 0.0268(3)
C43_2 C 0.3919(3) 0.91843(16) 0.0558(3)
C44_2 C 0.3753(3) 0.97449(16) 0.0528(3)
H29_2 H 0.4138 0.9980 0.0318
C45_2 C 0.3026(3) 0.99604(17) 0.0805(3)
C46_2 C 0.2462(3) 0.96146(17) 0.1098(3)
C47_2 C 0.2607(3) 0.90568(17) 0.1115(3)
H31_2 H 0.2202 0.8822 0.1305
C48_2 C 0.3341(3) 0.88448(16) 0.0855(3)
H32_2 H 0.3454 0.8462 0.0878
O3_2 O 0.3133(2) 0.00914(11) 0.3814(2)
C24_2 C 0.4570(4) 0.00511(16) 0.3351(3)
H18_2 H 0.4684 0.0434 0.3415
C28_2 C 0.3495(3) 0.23768(16) 0.4115(3)
C29_2 C 0.3365(3) 0.17748(16) 0.4021(3)
C30_2 C 0.3602(4) 0.14534(17) 0.4771(3)
H21 H 0.3817 0.1618 0.5343
C31_2 C 0.3522(4) 0.08877(17) 0.4683(3)
H22 H 0.3686 0.0664 0.5195
C32_2 C 0.3209(3) 0.06591(16) 0.3863(3)
C33_2 C 0.2934(4) 0.09713(17) 0.3104(3)
H23_2 H 0.2685 0.0804 0.2531
C34_2 C 0.3025(4) 0.15296(17) 0.3187(3)
H24_2 H 0.2853 0.1749 0.2669
O1_2 O 0.5625(2) 0.83249(11) 0.2664(2)
O2_2 O 0.6278(2) 0.90683(11) 0.23653(19)
O6_2 O 0.7798(2) 0.87641(12) 0.1622(2)
O7_2 O 0.7319(2) 0.87009(11) 0.0157(2)
N1_2 N 0.8065(3) 0.81197(15) 0.3268(2)
C1_2 C 0.7828(5) 0.7737(2) 0.3721(4)
H1_2 H 0.7115 0.7600 0.3452
C2_2 C 0.8486(5) 0.7526(3) 0.4510(4)
H2_2 H 0.8252 0.7248 0.4781
C3_2 C 0.9521(7) 0.7724(4) 0.4924(4)
C4_2 C 0.9818(5) 0.8104(3) 0.4483(4)
C5_2 C 0.9065(4) 0.8302(2) 0.3631(4)
H4_2 H 0.9281 0.8565 0.3322
H5 H 0.9932 0.7111 0.5991
C21_2 C 0.5673(3) 0.88314(16) 0.2653(3)
C22_2 C 0.5035(3) 0.91690(15) 0.2983(3)
C23_2 C 0.5174(3) 0.97291(16) 0.3061(3)
H17_2 H 0.5694 0.9895 0.2914
C25_2 C 0.3799(3) 0.98080(16) 0.3545(3)
C26_2 C 0.3660(3) 0.92477(16) 0.3491(3)
H19_2 H 0.3142 0.9082 0.3642
C27_2 C 0.4281(3) 0.89332(16) 0.3215(3)
H20_2 H 0.4192 0.8548 0.3182
C35_2 C 0.7951(3) 0.88364(16) 0.0946(3)
C36_2 C 0.8970(3) 0.91091(15) 0.1069(3)
C37_2 C 0.9637(4) 0.93469(19) 0.1876(3)
H25_2 H 0.9442 0.9344 0.2357
C41_2 C 0.9253(3) 0.91217(17) 0.0366(3)
C14 C 0.6498(4) 0.28075(18) 0.9874(3)
H11 H 0.6017 0.2519 0.9572
C15 C 0.6519(4) 0.32220(18) 0.9375(3)
H12 H 0.6963 0.3524 0.9675
C16 C 0.5301(4) 0.37676(17) 0.7039(3)
H13 H 0.5256 0.4109 0.6755
C17 C 0.5842(3) 0.37395(16) 0.7953(3)
H14 H 0.6172 0.4058 0.8287
C18 C 0.5913(3) 0.32566(17) 0.8392(3)
C19 C 0.5414(4) 0.28066(17) 0.7866(3)
H15 H 0.5428 0.2464 0.8139
C20 C 0.4904(3) 0.28587(17) 0.6954(3)
H16 H 0.4585 0.2543 0.6605
H5_2 H 0.0068 0.2111 0.9009
H21_2 H 0.6183 0.6618 0.9657
H22_2 H 0.6314 0.5664 0.9805
Zn5 Zn 0.59222(4) 0.836635(18) 0.98324(3)
O9 O 0.5003(3) 0.92293(12) 0.9785(2)
H27_2 H 0.0388 0.9373 0.9989
H28_2 H 0.8791 0.8962 0.9805
N3_2 N 0.5170(3) 0.83322(13) 0.8474(2)
C6_2 C 0.0169(5) 0.7561(3) 0.0830(5)
C7_2 C 0.1073(6) 0.7319(4) 0.1368(5)
H6_2 H 0.1354 0.7023 0.1169
C8_2 C 0.1655(6) 0.7538(3) 0.2335(4)
C9_2 C 0.1484(5) 0.7997(3) 0.2712(3)
H7_2 H 0.0952 0.8249 0.2344
C10_2 C 0.2068(4) 0.8109(2) 0.3627(3)
H8_2 H 0.1925 0.8428 0.3881
C11_2 C 0.2863(4) 0.7744(2) 0.4158(3)
C12_2 C 0.3035(4) 0.7288(3) 0.3749(3)
H9_2 H 0.3589 0.7042 0.4105
C13_2 C 0.2459(5) 0.7175(3) 0.2874(4)
H10_2 H 0.2596 0.6852 0.2624
C14_2 C 0.3502(4) 0.78075(18) 0.5126(3)
H11_2 H 0.3983 0.7519 0.5428
C15_2 C 0.3481(4) 0.82220(18) 0.5625(3)
H12_2 H 0.3037 0.8524 0.5325
C16_2 C 0.4699(4) 0.87676(17) 0.7961(3)
H13_2 H 0.4744 0.9109 0.8245
C17_2 C 0.4158(3) 0.87395(16) 0.7047(3)
H14_2 H 0.3828 0.9058 0.6713
C18_2 C 0.4087(3) 0.82566(17) 0.6608(3)
C19_2 C 0.4586(4) 0.78066(17) 0.7134(3)
H15_2 H 0.4572 0.7464 0.6861
C20_2 C 0.5096(3) 0.78587(17) 0.8046(3)
H16_2 H 0.5415 0.7543 0.8395
C6_3 C 0.9831(5) 0.2439(3) 0.9170(5)
C7_3 C 0.8927(6) 0.2681(4) 0.8632(5)
H6_3 H 0.8646 0.2977 0.8831
C8_3 C 0.8345(6) 0.2462(3) 0.7665(4)
C9_3 C 0.8516(5) 0.2003(3) 0.7288(3)
H7_3 H 0.9048 0.1751 0.7656
C10_3 C 0.7932(4) 0.1891(2) 0.6373(3)
H8_3 H 0.8075 0.1572 0.6119
C11_3 C 0.7137(4) 0.2256(2) 0.5842(3)
C12_3 C 0.6965(4) 0.2712(3) 0.6251(3)
H9_3 H 0.6411 0.2958 0.5895
C13_3 C 0.7541(5) 0.2825(3) 0.7126(4)
H10_3 H 0.7404 0.3148 0.7376
C14_3 C 0.6498(4) 0.21925(18) 0.4874(3)
H11_3 H 0.6017 0.2481 0.4572
C15_3 C 0.6519(4) 0.17780(18) 0.4375(3)
H12_3 H 0.6963 0.1476 0.4675
C16_3 C 0.5301(4) 0.12324(17) 0.2039(3)
H13_3 H 0.5256 0.0891 0.1755
C17_3 C 0.5842(3) 0.12605(16) 0.2953(3)
H14_3 H 0.6172 0.0942 0.3287
C18_3 C 0.5913(3) 0.17434(17) 0.3392(3)
C19_3 C 0.5414(4) 0.21934(17) 0.2866(3)
H15_3 H 0.5428 0.2536 0.3139
C20_3 C 0.4904(3) 0.21413(17) 0.1954(3)
H16_3 H 0.4585 0.2457 0.1605
N2 N 0.4830(3) 0.16678(13) 0.1526(2)
Zn6 Zn 0.40778(4) 0.163365(18) 0.01676(3)
H5_3 H 0.9932 0.7889 0.0991
H21_3 H 0.3817 0.3382 0.0343
H22_3 H 0.3686 0.4336 0.0195
H28_3 H 0.1209 0.1038 0.0195
O13_2 O 0.4997(3) 0.07707(12) 0.0215(2)
H27_3 H 0.9612 0.0627 0.0011
H30_2 H 0.2917 0.0344 0.0794
C14_4 C 0.3502(4) 0.71925(18) 0.0126(3)
H11_4 H 0.3983 0.7481 0.0428
C15_4 C 0.3481(4) 0.67780(18) 0.0625(3)
H12_4 H 0.3037 0.6476 0.0325
C16_4 C 0.4699(4) 0.62324(17) 0.2961(3)
H13_4 H 0.4744 0.5891 0.3245
C17_4 C 0.4158(3) 0.62605(16) 0.2047(3)
H14_4 H 0.3828 0.5942 0.1713
C18_4 C 0.4087(3) 0.67434(17) 0.1608(3)
C19_4 C 0.4586(4) 0.71934(17) 0.2134(3)
H15_4 H 0.4572 0.7536 0.1861
C20_4 C 0.5096(3) 0.71413(17) 0.3046(3)
H16_4 H 0.5415 0.7457 0.3395
N2_2 N 0.5170(3) 0.66678(13) 0.3474(2)
Zn6_2 Zn 0.59222(4) 0.663365(18) 0.48324(3)
O8_3 O 0.1798(2) 0.51402(12) 0.6421(2)
O9_2 O 0.5003(3) 0.57707(12) 0.4785(2)
O10_2 O 0.5077(2) 0.65207(11) 0.5521(2)
H3_3 H 0.0533 0.6761 0.9744
C38_3 C 0.0595(4) 0.54076(19) 0.6992(3)
H26_3 H 0.1054 0.5243 0.7548
C39_3 C 0.0863(3) 0.54079(17) 0.6294(3)
C40_3 C 0.0197(3) 0.56367(18) 0.5472(3)
H27_4 H 0.0388 0.5627 0.4989
C42_3 C 0.4712(3) 0.60397(17) 0.5268(3)
C43_3 C 0.3919(3) 0.58157(16) 0.5558(3)
C44_3 C 0.3753(3) 0.52551(16) 0.5528(3)
H29_3 H 0.4138 0.5020 0.5318
C45_3 C 0.3026(3) 0.50396(17) 0.5805(3)
H30_3 H 0.2917 0.4656 0.5794
C46_3 C 0.2462(3) 0.53854(17) 0.6098(3)
C47_3 C 0.2607(3) 0.59432(17) 0.6115(3)
H31_3 H 0.2202 0.6178 0.6305
C48_3 C 0.3341(3) 0.61552(16) 0.5855(3)
H32_3 H 0.3454 0.6538 0.5878
Zn1_2 Zn 0.68341(4) 0.661799(18) 0.70527(3)
O1_3 O 0.5625(2) 0.66751(11) 0.7664(2)
O2_3 O 0.6278(2) 0.59317(11) 0.73653(19)
O3_3 O 0.3133(2) 0.49086(11) 0.8814(2)
O4_2 O 0.3714(2) 0.24180(11) 0.98679(19)
O5_2 O 0.3370(2) 0.23631(11) 0.84259(19)
O6_3 O 0.7798(2) 0.62359(12) 0.6622(2)
O7_3 O 0.7319(2) 0.62991(11) 0.5157(2)
N1_3 N 0.8065(3) 0.68803(15) 0.8268(2)
C1_3 C 0.7828(5) 0.7263(2) 0.8721(4)
H1_3 H 0.7115 0.7400 0.8452
C2_3 C 0.8486(5) 0.7474(3) 0.9510(4)
H2_3 H 0.8252 0.7752 0.9781
C3_3 C 0.9521(7) 0.7276(4) 0.9924(4)
C4_3 C 0.9818(5) 0.6896(3) 0.9483(4)
C5_3 C 0.9065(4) 0.6698(2) 0.8631(4)
H4_3 H 0.9281 0.6435 0.8322
C21_3 C 0.5673(3) 0.61686(16) 0.7653(3)
C22_3 C 0.5035(3) 0.58310(15) 0.7983(3)
C23_3 C 0.5174(3) 0.52709(16) 0.8061(3)
H17_3 H 0.5694 0.5105 0.7914
C24_3 C 0.4570(4) 0.49489(16) 0.8351(3)
H18_3 H 0.4684 0.4566 0.8415
C25_3 C 0.3799(3) 0.51920(16) 0.8545(3)
C26_3 C 0.3660(3) 0.57523(16) 0.8491(3)
H19_3 H 0.3142 0.5918 0.8642
C27_3 C 0.4281(3) 0.60668(16) 0.8215(3)
H20_3 H 0.4192 0.6452 0.8182
C28_3 C 0.3495(3) 0.26232(16) 0.9115(3)
C29_3 C 0.3365(3) 0.32252(16) 0.9021(3)
C30_3 C 0.3602(4) 0.35466(17) 0.9771(3)
C31_3 C 0.3522(4) 0.41123(17) 0.9683(3)
C32_3 C 0.3209(3) 0.43409(16) 0.8863(3)
C33_3 C 0.2934(4) 0.40287(17) 0.8104(3)
H23_3 H 0.2685 0.4196 0.7531
C34_3 C 0.3025(4) 0.34704(17) 0.8187(3)
H24_3 H 0.2853 0.3251 0.7669
C35_3 C 0.7951(3) 0.61636(16) 0.5946(3)
C36_3 C 0.8970(3) 0.58909(15) 0.6069(3)
C37_3 C 0.9637(4) 0.56531(19) 0.6876(3)
H25_3 H 0.9442 0.5656 0.7357
C41_3 C 0.9253(3) 0.58783(17) 0.5366(3)
H28_4 H 0.8791 0.6038 0.4805
Zn3_2 Zn 0.31659(4) 0.161799(18) 0.79473(3)
O11_2 O 0.6286(2) 0.74180(11) 0.51321(19)
O12_2 O 0.6630(2) 0.73631(11) 0.65741(19)
O1_4 O 0.4375(2) 0.16751(11) 0.7336(2)
O2_4 O 0.3722(2) 0.09317(11) 0.76347(19)
O6_4 O 0.2202(2) 0.12359(12) 0.8378(2)
O7_4 O 0.2681(2) 0.12991(11) 0.9843(2)
N1_4 N 0.1935(3) 0.18803(15) 0.6732(2)
C1_4 C 0.2172(5) 0.2263(2) 0.6279(4)
H1_4 H 0.2885 0.2400 0.6548
C2_4 C 0.1514(5) 0.2474(3) 0.5490(4)
H2_4 H 0.1748 0.2752 0.5219
C3_4 C 0.0479(7) 0.2276(4) 0.5076(4)
C4_4 C 0.0182(5) 0.1896(3) 0.5517(4)
C5_4 C 0.0935(4) 0.1698(2) 0.6369(4)
H4_4 H 0.0719 0.1435 0.6678
H5_4 H 0.0068 0.2889 0.4009
C21_4 C 0.4327(3) 0.11686(16) 0.7347(3)
C22_4 C 0.4965(3) 0.08310(15) 0.7017(3)
C23_4 C 0.4826(3) 0.02709(16) 0.6939(3)
H17_4 H 0.4306 0.0105 0.7086
C25_4 C 0.6201(3) 0.01920(16) 0.6455(3)
C26_4 C 0.6340(3) 0.07523(16) 0.6509(3)
H19_4 H 0.6858 0.0918 0.6358
C27_4 C 0.5719(3) 0.10668(16) 0.6785(3)
H20_4 H 0.5808 0.1452 0.6818
C35_4 C 0.2049(3) 0.11636(16) 0.9054(3)
C36_4 C 0.1030(3) 0.08909(15) 0.8931(3)
C37_4 C 0.0363(4) 0.06531(19) 0.8124(3)
H25_4 H 0.0558 0.0656 0.7643
C41_4 C 0.0747(3) 0.08783(17) 0.9634(3)
O14_2 O 0.4923(2) 0.15207(11) 0.9479(2)
O3_4 O 0.6867(2) 0.99086(11) 0.6186(2)
C24_4 C 0.5430(4) 0.99489(16) 0.6649(3)
H18_4 H 0.5316 0.9566 0.6585
C28_4 C 0.6505(3) 0.76232(16) 0.5885(3)
C29_4 C 0.6635(3) 0.82252(16) 0.5979(3)
C30_4 C 0.6398(4) 0.85466(17) 0.5229(3)
H21_4 H 0.6183 0.8382 0.4657
C31_4 C 0.6478(4) 0.91123(17) 0.5317(3)
H22_4 H 0.6314 0.9336 0.4805
C32_4 C 0.6791(3) 0.93409(16) 0.6137(3)
C33_4 C 0.7066(4) 0.90287(17) 0.6896(3)
H23_4 H 0.7315 0.9196 0.7469
C34_4 C 0.6975(4) 0.84704(17) 0.6813(3)
H24_4 H 0.7147 0.8251 0.7331
O8_4 O 0.8202(2) 0.01402(12) 0.8579(2)
H3_4 H 0.9467 0.1761 0.5256
C6_4 C 0.9831(5) 0.2561(3) 0.4170(5)
C7_4 C 0.8927(6) 0.2319(4) 0.3632(5)
H6_4 H 0.8646 0.2023 0.3831
C8_4 C 0.8345(6) 0.2538(3) 0.2665(4)
C9_4 C 0.8516(5) 0.2997(3) 0.2288(3)
H7_4 H 0.9048 0.3249 0.2656
C10_4 C 0.7932(4) 0.3109(2) 0.1373(3)
H8_4 H 0.8075 0.3428 0.1119
C11_4 C 0.7137(4) 0.2744(2) 0.0842(3)
C12_4 C 0.6965(4) 0.2288(3) 0.1251(3)
H9_4 H 0.6411 0.2042 0.0895
C13_4 C 0.7541(5) 0.2175(3) 0.2126(4)
H10_4 H 0.7404 0.1852 0.2376
C38_4 C 0.9405(4) 0.04076(19) 0.8008(3)
H26_4 H 0.8946 0.0243 0.7452
C39_4 C 0.9137(3) 0.04079(17) 0.8706(3)
C40_4 C 0.9803(3) 0.06367(18) 0.9528(3)
C42_4 C 0.5288(3) 0.10397(17) 0.9732(3)
C43_4 C 0.6081(3) 0.08157(16) 0.9442(3)
C44_4 C 0.6247(3) 0.02551(16) 0.9472(3)
H29_4 H 0.5862 0.0020 0.9682
C45_4 C 0.6974(3) 0.00396(17) 0.9195(3)
C46_4 C 0.7538(3) 0.03854(17) 0.8902(3)
C47_4 C 0.7393(3) 0.09432(17) 0.8885(3)
H31_4 H 0.7798 0.1178 0.8695
C48_4 C 0.6659(3) 0.11552(16) 0.9145(3)
H32_4 H 0.6546 0.1538 0.9122
H30_4 H 0.7083 0.9656 0.9206
loop_
_geom_bond_atom_site_label_1
_geom_bond_atom_site_label_2
_geom_bond_site_symmetry_1
_geom_bond_site_symmetry_2
Zn1 O1 1_555 1_555
Zn2 O7 1_555 1_555
O1 C21 1_555 1_555
O2 Zn1 1_555 1_555
O3 C25 1_555 1_555
O4 C28 1_555 1_555
O5 C28 1_555 1_555
O6 Zn1 1_555 1_555
O7 C35 1_555 1_555
N1 Zn1 1_555 1_555
C1 N1 1_555 1_555
H1 C1 1_555 1_555
C2 C1 1_555 1_555
H2 C2 1_555 1_555
C3 C2 1_555 1_555
C4 C3 1_555 1_555
C5 N1 1_555 1_555
H4 C5 1_555 1_555
C21 O2 1_555 1_555
C22 C21 1_555 1_555
C23 C22 1_555 1_555
H17 C23 1_555 1_555
C24 C23 1_555 1_555
H18 C24 1_555 1_555
C25 C24 1_555 1_555
C26 C25 1_555 1_555
H19 C26 1_555 1_555
C27 C22 1_555 1_555
H20 C27 1_555 1_555
C28 C29 1_555 1_555
C29 C30 1_555 1_555
C31 C30 1_555 1_555
C32 O3 1_555 1_555
C33 C32 1_555 1_555
H23 C33 1_555 1_555
C34 C29 1_555 1_555
H24 C34 1_555 1_555
C35 O6 1_555 1_555
C36 C35 1_555 1_555
C37 C36 1_555 1_555
H25 C37 1_555 1_555
C41 C36 1_555 1_555
H28 C41 1_555 1_555
Zn3 O5 1_555 1_555
O11 Zn2 1_555 1_555
O12 Zn1 1_555 1_555
O13 Zn2 1_555 1_555
O14 Zn2 1_555 1_555
N3 Zn2 1_555 1_555
C4 C5 1_555 1_555
C26 C27 1_555 1_555
C31 C32 1_555 1_555
C33 C34 1_555 1_555
O8 C39 1_555 1_555
O13 C42 1_555 1_555
O14 C42 1_555 1_555
H26 C38 1_555 1_555
C39 C38 1_555 1_555
C40 C39 1_555 1_555
H27 C40 1_555 1_555
C42 C43 1_555 1_555
C43 C44 1_555 1_555
C44 H29 1_555 1_555
C45 C44 1_555 1_555
H30 C45 1_555 1_555
C46 O8 1_555 1_555
C47 C46 1_555 1_555
H31 C47 1_555 1_555
C48 C43 1_555 1_555
H32 C48 1_555 1_555
C45 C46 1_555 1_555
C47 C48 1_555 1_555
O8_2 C39_2 1_555 1_555
O10 C42_2 1_555 1_555
C7 C6 1_555 1_555
H6 C7 1_555 1_555
C8 C7 1_555 1_555
C9 C8 1_555 1_555
H7 C9 1_555 1_555
C10 C9 1_555 1_555
H8 C10 1_555 1_555
C11 C10 1_555 1_555
C12 C11 1_555 1_555
H9 C12 1_555 1_555
C13 C8 1_555 1_555
H10 C13 1_555 1_555
H26_2 C38_2 1_555 1_555
C39_2 C38_2 1_555 1_555
C40_2 C39_2 1_555 1_555
C42_2 C43_2 1_555 1_555
C43_2 C44_2 1_555 1_555
C44_2 H29_2 1_555 1_555
C45_2 C44_2 1_555 1_555
C46_2 O8_2 1_555 1_555
C47_2 C46_2 1_555 1_555
H31_2 C47_2 1_555 1_555
C48_2 C43_2 1_555 1_555
H32_2 C48_2 1_555 1_555
C12 C13 1_555 1_555
C45_2 C46_2 1_555 1_555
C47_2 C48_2 1_555 1_555
O11 C28_2 1_555 1_555
O12 C28_2 1_555 1_555
H18_2 C24_2 1_555 1_555
C28_2 C29_2 1_555 1_555
C29_2 C30_2 1_555 1_555
C30_2 H21 1_555 1_555
C31_2 C30_2 1_555 1_555
H22 C31_2 1_555 1_555
C32_2 O3_2 1_555 1_555
C33_2 C32_2 1_555 1_555
H23_2 C33_2 1_555 1_555
C34_2 C29_2 1_555 1_555
H24_2 C34_2 1_555 1_555
C31_2 C32_2 1_555 1_555
C33_2 C34_2 1_555 1_555
Zn3 O1_2 1_555 1_555
O1_2 C21_2 1_555 1_555
O2_2 Zn3 1_555 1_555
O6_2 Zn3 1_555 1_555
O7_2 C35_2 1_555 1_555
N1_2 Zn3 1_555 1_555
C1_2 N1_2 1_555 1_555
H1_2 C1_2 1_555 1_555
C2_2 C1_2 1_555 1_555
H2_2 C2_2 1_555 1_555
C3_2 C2_2 1_555 1_555
C4_2 C3_2 1_555 1_555
C5_2 N1_2 1_555 1_555
H4_2 C5_2 1_555 1_555
C21_2 O2_2 1_555 1_555
C22_2 C21_2 1_555 1_555
C23_2 C22_2 1_555 1_555
H17_2 C23_2 1_555 1_555
C26_2 C25_2 1_555 1_555
H19_2 C26_2 1_555 1_555
C27_2 C22_2 1_555 1_555
H20_2 C27_2 1_555 1_555
C35_2 O6_2 1_555 1_555
C36_2 C35_2 1_555 1_555
C37_2 C36_2 1_555 1_555
H25_2 C37_2 1_555 1_555
C41_2 C36_2 1_555 1_555
C4_2 C5_2 1_555 1_555
C26_2 C27_2 1_555 1_555
H11 C14 1_555 1_555
C15 C14 1_555 1_555
H12 C15 1_555 1_555
C16 H13 1_555 1_555
C17 C16 1_555 1_555
H14 C17 1_555 1_555
C18 C15 1_555 1_555
C19 C18 1_555 1_555
H15 C19 1_555 1_555
C20 C19 1_555 1_555
H16 C20 1_555 1_555
N3 C16 1_555 1_555
C17 C18 1_555 1_555
C20 N3 1_555 1_555
Zn5 O9 1_555 1_555
N3_2 Zn5 1_555 1_555
C7_2 C6_2 1_555 1_555
H6_2 C7_2 1_555 1_555
C8_2 C7_2 1_555 1_555
C9_2 C8_2 1_555 1_555
H7_2 C9_2 1_555 1_555
C10_2 C9_2 1_555 1_555
H8_2 C10_2 1_555 1_555
C11_2 C10_2 1_555 1_555
C12_2 C11_2 1_555 1_555
H9_2 C12_2 1_555 1_555
C13_2 C8_2 1_555 1_555
H10_2 C13_2 1_555 1_555
C14_2 C11_2 1_555 1_555
H11_2 C14_2 1_555 1_555
C15_2 C14_2 1_555 1_555
H12_2 C15_2 1_555 1_555
C16_2 H13_2 1_555 1_555
C17_2 C16_2 1_555 1_555
H14_2 C17_2 1_555 1_555
C18_2 C15_2 1_555 1_555
C19_2 C18_2 1_555 1_555
H15_2 C19_2 1_555 1_555
C20_2 C19_2 1_555 1_555
H16_2 C20_2 1_555 1_555
N3_2 C16_2 1_555 1_555
C12_2 C13_2 1_555 1_555
C17_2 C18_2 1_555 1_555
C20_2 N3_2 1_555 1_555
C7_3 C6_3 1_555 1_555
H6_3 C7_3 1_555 1_555
C8_3 C7_3 1_555 1_555
C9_3 C8_3 1_555 1_555
H7_3 C9_3 1_555 1_555
C10_3 C9_3 1_555 1_555
H8_3 C10_3 1_555 1_555
C11_3 C10_3 1_555 1_555
C12_3 C11_3 1_555 1_555
H9_3 C12_3 1_555 1_555
C13_3 C8_3 1_555 1_555
H10_3 C13_3 1_555 1_555
C14_3 C11_3 1_555 1_555
H11_3 C14_3 1_555 1_555
C15_3 C14_3 1_555 1_555
H12_3 C15_3 1_555 1_555
C16_3 H13_3 1_555 1_555
C17_3 C16_3 1_555 1_555
H14_3 C17_3 1_555 1_555
C18_3 C15_3 1_555 1_555
C19_3 C18_3 1_555 1_555
H15_3 C19_3 1_555 1_555
C20_3 C19_3 1_555 1_555
H16_3 C20_3 1_555 1_555
N2 C16_3 1_555 1_555
Zn6 N2 1_555 1_555
C12_3 C13_3 1_555 1_555
C17_3 C18_3 1_555 1_555
C20_3 N2 1_555 1_555
O13_2 Zn6 1_555 1_555
H11_4 C14_4 1_555 1_555
C15_4 C14_4 1_555 1_555
H12_4 C15_4 1_555 1_555
C16_4 H13_4 1_555 1_555
C17_4 C16_4 1_555 1_555
H14_4 C17_4 1_555 1_555
C18_4 C15_4 1_555 1_555
C19_4 C18_4 1_555 1_555
H15_4 C19_4 1_555 1_555
C20_4 C19_4 1_555 1_555
H16_4 C20_4 1_555 1_555
N2_2 C16_4 1_555 1_555
Zn6_2 N2_2 1_555 1_555
C17_4 C18_4 1_555 1_555
C20_4 N2_2 1_555 1_555
O8_3 C39_3 1_555 1_555
O9_2 C42_3 1_555 1_555
O10_2 C42_3 1_555 1_555
H26_3 C38_3 1_555 1_555
C39_3 C38_3 1_555 1_555
C40_3 C39_3 1_555 1_555
H27_4 C40_3 1_555 1_555
C42_3 C43_3 1_555 1_555
C43_3 C44_3 1_555 1_555
C44_3 H29_3 1_555 1_555
C45_3 C44_3 1_555 1_555
H30_3 C45_3 1_555 1_555
C46_3 O8_3 1_555 1_555
C47_3 C46_3 1_555 1_555
H31_3 C47_3 1_555 1_555
C48_3 C43_3 1_555 1_555
H32_3 C48_3 1_555 1_555
Zn6_2 O9_2 1_555 1_555
O10_2 Zn6_2 1_555 1_555
C45_3 C46_3 1_555 1_555
C47_3 C48_3 1_555 1_555
Zn1_2 O1_3 1_555 1_555
Zn6_2 O7_3 1_555 1_555
O1_3 C21_3 1_555 1_555
O2_3 Zn1_2 1_555 1_555
O3_3 C25_3 1_555 1_555
O4_2 C28_3 1_555 1_555
O5_2 C28_3 1_555 1_555
O6_3 Zn1_2 1_555 1_555
O7_3 C35_3 1_555 1_555
N1_3 Zn1_2 1_555 1_555
C1_3 N1_3 1_555 1_555
H1_3 C1_3 1_555 1_555
C2_3 C1_3 1_555 1_555
H2_3 C2_3 1_555 1_555
C3_3 C2_3 1_555 1_555
C4_3 C3_3 1_555 1_555
C5_3 N1_3 1_555 1_555
H4_3 C5_3 1_555 1_555
C21_3 O2_3 1_555 1_555
C22_3 C21_3 1_555 1_555
C23_3 C22_3 1_555 1_555
H17_3 C23_3 1_555 1_555
C24_3 C23_3 1_555 1_555
H18_3 C24_3 1_555 1_555
C25_3 C24_3 1_555 1_555
C26_3 C25_3 1_555 1_555
H19_3 C26_3 1_555 1_555
C27_3 C22_3 1_555 1_555
H20_3 C27_3 1_555 1_555
C28_3 C29_3 1_555 1_555
C29_3 C30_3 1_555 1_555
C31_3 C30_3 1_555 1_555
C32_3 O3_3 1_555 1_555
C33_3 C32_3 1_555 1_555
H23_3 C33_3 1_555 1_555
C34_3 C29_3 1_555 1_555
H24_3 C34_3 1_555 1_555
C35_3 O6_3 1_555 1_555
C36_3 C35_3 1_555 1_555
C37_3 C36_3 1_555 1_555
H25_3 C37_3 1_555 1_555
C41_3 C36_3 1_555 1_555
H28_4 C41_3 1_555 1_555
Zn3_2 O5_2 1_555 1_555
O11_2 Zn6_2 1_555 1_555
O12_2 Zn1_2 1_555 1_555
C4_3 C5_3 1_555 1_555
C26_3 C27_3 1_555 1_555
C31_3 C32_3 1_555 1_555
C33_3 C34_3 1_555 1_555
Zn3_2 O1_4 1_555 1_555
O1_4 C21_4 1_555 1_555
O2_4 Zn3_2 1_555 1_555
O6_4 Zn3_2 1_555 1_555
O7_4 C35_4 1_555 1_555
N1_4 Zn3_2 1_555 1_555
C1_4 N1_4 1_555 1_555
H1_4 C1_4 1_555 1_555
C2_4 C1_4 1_555 1_555
H2_4 C2_4 1_555 1_555
C3_4 C2_4 1_555 1_555
C4_4 C3_4 1_555 1_555
C5_4 N1_4 1_555 1_555
H4_4 C5_4 1_555 1_555
C21_4 O2_4 1_555 1_555
C22_4 C21_4 1_555 1_555
C23_4 C22_4 1_555 1_555
H17_4 C23_4 1_555 1_555
C26_4 C25_4 1_555 1_555
H19_4 C26_4 1_555 1_555
C27_4 C22_4 1_555 1_555
H20_4 C27_4 1_555 1_555
C35_4 O6_4 1_555 1_555
C36_4 C35_4 1_555 1_555
C37_4 C36_4 1_555 1_555
H25_4 C37_4 1_555 1_555
C41_4 C36_4 1_555 1_555
C4_4 C5_4 1_555 1_555
C26_4 C27_4 1_555 1_555
O11_2 C28_4 1_555 1_555
O12_2 C28_4 1_555 1_555
H18_4 C24_4 1_555 1_555
C28_4 C29_4 1_555 1_555
C29_4 C30_4 1_555 1_555
C30_4 H21_4 1_555 1_555
C31_4 C30_4 1_555 1_555
H22_4 C31_4 1_555 1_555
C32_4 O3_4 1_555 1_555
C33_4 C32_4 1_555 1_555
H23_4 C33_4 1_555 1_555
C34_4 C29_4 1_555 1_555
H24_4 C34_4 1_555 1_555
C31_4 C32_4 1_555 1_555
C33_4 C34_4 1_555 1_555
O8_4 C39_4 1_555 1_555
O14_2 C42_4 1_555 1_555
C7_4 C6_4 1_555 1_555
H6_4 C7_4 1_555 1_555
C8_4 C7_4 1_555 1_555
C9_4 C8_4 1_555 1_555
H7_4 C9_4 1_555 1_555
C10_4 C9_4 1_555 1_555
H8_4 C10_4 1_555 1_555
C11_4 C10_4 1_555 1_555
C12_4 C11_4 1_555 1_555
H9_4 C12_4 1_555 1_555
C13_4 C8_4 1_555 1_555
H10_4 C13_4 1_555 1_555
H26_4 C38_4 1_555 1_555
C39_4 C38_4 1_555 1_555
C40_4 C39_4 1_555 1_555
C42_4 C43_4 1_555 1_555
C43_4 C44_4 1_555 1_555
C44_4 H29_4 1_555 1_555
C45_4 C44_4 1_555 1_555
C46_4 O8_4 1_555 1_555
C47_4 C46_4 1_555 1_555
H31_4 C47_4 1_555 1_555
C48_4 C43_4 1_555 1_555
H32_4 C48_4 1_555 1_555
C12_4 C13_4 1_555 1_555
C45_4 C46_4 1_555 1_555
C47_4 C48_4 1_555 1_555

#END
