
###############################################################################
#
# This file contains modified crystal structure data generated from the
# MOF subset of the Cambridge Structural Database (CSD) v543 
# hosted by the Cambridge Crystallographic Data Centre (CCDC).
#
# This work is licensed under the Creative Commons
# Attribution-NonCommercial-ShareAlike 4.0 International License.
# To view a copy of this license, visit
# http://creativecommons.org/licenses/by-nc-sa/4.0/
# or send a letter to
# Creative Commons, PO Box 1866, Mountain View, CA 94042, USA.
#
# CIF created using the CSD Python API on 29 September 2022
# The structure has been converted into the P1 space group
# The structure has a 3D framework
# The original CSD entry ZETPUL is in the tetragonal crystal system
# The framework has been calculated to contain at least 10.0% void space
# The void calculation uses a probe of radius 1.32A, grid spacing 0.4
#
###############################################################################

data_ZETPUL
_chemical_formula_moiety         '(C192 H240 Dy32 N48 O176)n'
_symmetry_cell_setting           triclinic
_symmetry_space_group_name_H-M   'P 1'
_symmetry_Int_Tables_number      1
_space_group_name_Hall           'P 1'
loop_
_symmetry_equiv_pos_site_id
_symmetry_equiv_pos_as_xyz
1 x,y,z
_cell_length_a                   25.803(3)
_cell_length_b                   25.803(3)
_cell_length_c                   11.9679(15)
_cell_angle_alpha                90
_cell_angle_beta                 90
_cell_angle_gamma                90
_cell_volume                     7968.17
loop_
_atom_site_label
_atom_site_type_symbol
_atom_site_fract_x
_atom_site_fract_y
_atom_site_fract_z
C1 C 0.1813(5) 0.7033(5) 0.0973(10)
C2 C 0.1495(5) 0.6832(5) 0.0012(10)
H1 H 0.1145 0.6760 0.0265
C5 C 0.3441(5) 0.6327(5) 0.0347(11)
C6 C 0.3900(6) 0.6657(6) 0.0704(14)
H5 H 0.4171 0.6428 0.0972
H6 H 0.4033 0.6836 0.0051
C7 C 0.4188(6) 0.7052(7) 0.2441(16)
H7 H 0.4201 0.7393 0.2779
H8 H 0.4523 0.6983 0.2104
C8 C 0.4081(7) 0.6652(9) 0.3331(18)
C9 C 0.2502(4) 0.5764(4) 0.3699(9)
C10 C 0.2778(6) 0.6005(5) 0.4676(11)
H9 H 0.2606 0.5906 0.5363
H10 H 0.3132 0.5878 0.4705
C11 C 0.2324(7) 0.6802(6) 0.5103(12)
H11 H 0.2400 0.6877 0.5880
H12 H 0.2043 0.6552 0.5085
C12 C 0.2153(6) 0.7287(5) 0.4542(11)
Dy1 Dy 0.21809(2) 0.58081(2) 0.10043(5)
Dy2 Dy 0.29179(2) 0.68653(2) 0.25673(5)
N2 N 0.3790(4) 0.7045(5) 0.1578(11)
H14 H 0.3775 0.7364 0.1255
N3 N 0.2783(5) 0.6571(4) 0.4582(9)
H15 H 0.3062 0.6684 0.4977
O1 O 0.2160(3) 0.6746(3) 0.1370(7)
O2 O 0.1695(3) 0.7470(3) 0.1351(7)
O5 O 0.3056(3) 0.6301(3) 0.0999(7)
O7 O 0.3653(4) 0.6432(4) 0.3275(9)
O8 O 0.4402(6) 0.6640(9) 0.4132(17)
O9 O 0.2483(3) 0.6041(3) 0.2802(7)
O10 O 0.2302(3) 0.5330(3) 0.3791(7)
O11 O 0.2232(3) 0.7331(3) 0.3472(7)
O12 O 0.1942(4) 0.7635(3) 0.5086(6)
Dy3 Dy 0.16919(2) 0.46809(2) 0.35043(5)
Dy5 Dy 0.20821(2) 0.81347(2) 0.24327(5)
O13 O 0.3305(3) 0.7530(3) 0.3649(7)
O14 O 0.1807(3) 0.5005(3) 0.1717(7)
O15 O 0.1497(4) 0.5235(3) 0.0092(8)
O16 O 0.1409(3) 0.5999(3) 0.1944(7)
O17 O 0.2830(3) 0.5198(3) 0.1291(7)
O18 O 0.2768(3) 0.7669(3) 0.1528(7)
H2 H 0.1477 0.7093 0.9431
C3 C 0.2083(5) 0.6472(5) 0.8615(11)
H3 H 0.2280 0.6782 0.8789
H4 H 0.1884 0.6538 0.7942
C4 C 0.2449(4) 0.6026(4) 0.8418(10)
N1 N 0.1728(4) 0.6351(4) 0.9550(8)
H13 H 0.1465 0.6157 0.9267
O3 O 0.2505(3) 0.5693(3) 0.9217(7)
O4 O 0.2735(3) 0.6003(4) 0.7592(8)
O6 O 0.3499(3) 0.6091(3) 0.9444(7)
Dy4 Dy 0.33081(2) 0.53191(2) 0.85043(5)
C1_2 C 0.3187(5) 0.2967(5) 0.5973(10)
C2_2 C 0.3505(5) 0.3168(5) 0.5012(10)
H1_2 H 0.3855 0.3240 0.5265
H2_2 H 0.3523 0.2907 0.4431
C3_2 C 0.2917(5) 0.3528(5) 0.3615(11)
H3_2 H 0.2720 0.3218 0.3789
H4_2 H 0.3116 0.3462 0.2942
C4_2 C 0.2551(4) 0.3974(4) 0.3418(10)
C5_2 C 0.1559(5) 0.3673(5) 0.5347(11)
C6_2 C 0.1100(6) 0.3343(6) 0.5704(14)
H5_2 H 0.0829 0.3572 0.5972
H6_2 H 0.0967 0.3164 0.5051
C7_2 C 0.0812(6) 0.2948(7) 0.7441(16)
H7_2 H 0.0799 0.2607 0.7779
H8_2 H 0.0477 0.3017 0.7104
C8_2 C 0.0919(7) 0.3348(9) 0.8331(18)
C9_2 C 0.2498(4) 0.4236(4) 0.8699(9)
C10_2 C 0.2222(6) 0.3995(5) 0.9676(11)
H10_2 H 0.1868 0.4122 0.9705
C12_2 C 0.2847(6) 0.2713(5) 0.9542(11)
Dy1_2 Dy 0.28191(2) 0.41919(2) 0.60043(5)
Dy2_2 Dy 0.20821(2) 0.31347(2) 0.75673(5)
N1_2 N 0.3272(4) 0.3649(4) 0.4550(8)
H13_2 H 0.3535 0.3843 0.4267
N2_2 N 0.1210(4) 0.2955(5) 0.6578(11)
H14_2 H 0.1225 0.2636 0.6255
N3_2 N 0.2217(5) 0.3429(4) 0.9582(9)
H15_2 H 0.1938 0.3316 0.9977
O1_2 O 0.2840(3) 0.3254(3) 0.6370(7)
O2_2 O 0.3305(3) 0.2530(3) 0.6351(7)
O3_2 O 0.2495(3) 0.4307(3) 0.4217(7)
O4_2 O 0.2265(3) 0.3997(4) 0.2592(8)
O5_2 O 0.1944(3) 0.3699(3) 0.5999(7)
O6_2 O 0.1501(3) 0.3909(3) 0.4444(7)
O7_2 O 0.1347(4) 0.3568(4) 0.8275(9)
O8_2 O 0.0598(6) 0.3360(9) 0.9132(17)
O9_2 O 0.2517(3) 0.3959(3) 0.7802(7)
O10_2 O 0.2698(3) 0.4670(3) 0.8791(7)
O11_2 O 0.2768(3) 0.2669(3) 0.8472(7)
Dy5_2 Dy 0.29179(2) 0.18653(2) 0.74327(5)
O13_2 O 0.1695(3) 0.2470(3) 0.8649(7)
O14_2 O 0.3193(3) 0.4995(3) 0.6717(7)
O15_2 O 0.3503(4) 0.4765(3) 0.5092(8)
O16_2 O 0.3591(3) 0.4001(3) 0.6944(7)
O17_2 O 0.2170(3) 0.4802(3) 0.6291(7)
O18_2 O 0.2232(3) 0.2331(3) 0.6528(7)
C1_3 C 0.0467(5) 0.4313(5) 0.3473(10)
C2_3 C 0.0668(5) 0.3995(5) 0.2512(10)
H1_3 H 0.0740 0.3645 0.2765
H2_3 H 0.0407 0.3977 0.1931
C3_3 C 0.1028(5) 0.4583(5) 0.1115(11)
H3_3 H 0.0718 0.4780 0.1289
H4_3 H 0.0962 0.4384 0.0442
C4_3 C 0.1474(4) 0.4949(4) 0.0918(10)
C5_3 C 0.1173(5) 0.5941(5) 0.2847(11)
C6_3 C 0.0843(6) 0.6400(6) 0.3204(14)
H5_3 H 0.1072 0.6671 0.3472
H6_3 H 0.0664 0.6533 0.2551
C7_3 C 0.0448(7) 0.6688(6) 0.4941(16)
H7_3 H 0.0107 0.6701 0.5279
H8_3 H 0.0517 0.7023 0.4604
C8_3 C 0.0848(9) 0.6581(7) 0.5831(18)
C9_3 C 0.1736(4) 0.5002(4) 0.6199(9)
C10_3 C 0.1495(5) 0.5278(6) 0.7176(11)
H9_2 H 0.1594 0.5106 0.7863
H10_3 H 0.1622 0.5632 0.7205
C11_2 C 0.0698(6) 0.4824(7) 0.7603(12)
H11_2 H 0.0623 0.4900 0.8380
H12_2 H 0.0948 0.4543 0.7585
C12_3 C 0.0213(5) 0.4653(6) 0.7042(11)
Dy2_3 Dy 0.06347(2) 0.54179(2) 0.50673(5)
N1_3 N 0.1149(4) 0.4228(4) 0.2050(8)
H13_3 H 0.1343 0.3965 0.1767
N2_3 N 0.0455(5) 0.6290(4) 0.4078(11)
H14_3 H 0.0136 0.6275 0.3755
N3_3 N 0.0929(4) 0.5283(5) 0.7082(9)
H15_3 H 0.0816 0.5562 0.7477
O1_3 O 0.0754(3) 0.4660(3) 0.3870(7)
O2_3 O 0.0030(3) 0.4195(3) 0.3851(7)
O5_3 O 0.1199(3) 0.5556(3) 0.3499(7)
O7_3 O 0.1068(4) 0.6153(4) 0.5775(9)
O8_3 O 0.0860(9) 0.6902(6) 0.6632(17)
O9_3 O 0.1459(3) 0.4983(3) 0.5302(7)
O11_3 O 0.0169(3) 0.4732(3) 0.5972(7)
O12_2 O 0.9865(3) 0.4442(4) 0.7586(6)
Dy5_3 Dy 0.93653(2) 0.45821(2) 0.49327(5)
O13_3 O 0.9970(3) 0.5805(3) 0.6149(7)
O18_3 O 0.9831(3) 0.5268(3) 0.4028(7)
H7_4 H 0.4893 0.3299 0.0279
C8_4 C 0.4152(9) 0.3419(7) 0.0831(18)
C9_4 C 0.3264(4) 0.4998(4) 0.1199(9)
C10_4 C 0.3505(5) 0.4722(6) 0.2176(11)
H9_3 H 0.3406 0.4894 0.2863
H10_4 H 0.3378 0.4368 0.2205
C11_3 C 0.4302(6) 0.5176(7) 0.2603(12)
H11_3 H 0.4377 0.5100 0.3380
H12_3 H 0.4052 0.5457 0.2585
C12_4 C 0.4787(5) 0.5347(6) 0.2042(11)
Dy2_4 Dy 0.43653(2) 0.45821(2) 0.00673(5)
N3_4 N 0.4071(4) 0.4717(5) 0.2082(9)
H15_4 H 0.4184 0.4438 0.2477
O7_4 O 0.3932(4) 0.3847(4) 0.0775(9)
O8_4 O 0.4140(9) 0.3098(6) 0.1632(17)
O9_4 O 0.3541(3) 0.5017(3) 0.0302(7)
O11_4 O 0.4831(3) 0.5268(3) 0.0972(7)
O12_3 O 0.5135(3) 0.5558(4) 0.2586(6)
O13_4 O 0.5030(3) 0.4195(3) 0.1149(7)
C1_4 C 0.4533(5) 0.5687(5) 0.8473(10)
C2_4 C 0.4332(5) 0.6005(5) 0.7512(10)
H1_4 H 0.4260 0.6355 0.7765
H2_4 H 0.4593 0.6023 0.6931
C3_4 C 0.3972(5) 0.5417(5) 0.6115(11)
H3_4 H 0.4282 0.5220 0.6289
H4_4 H 0.4038 0.5616 0.5442
C4_4 C 0.3526(4) 0.5051(4) 0.5918(10)
C5_4 C 0.3827(5) 0.4059(5) 0.7847(11)
C6_4 C 0.4157(6) 0.3600(6) 0.8204(14)
H5_4 H 0.3928 0.3329 0.8472
H6_4 H 0.4336 0.3467 0.7551
C7_4 C 0.4552(7) 0.3312(6) 0.9941(16)
H8_4 H 0.4483 0.2977 0.9604
N1_4 N 0.3851(4) 0.5772(4) 0.7050(8)
H13_4 H 0.3657 0.6035 0.6767
N2_4 N 0.4545(5) 0.3710(4) 0.9078(11)
H14_4 H 0.4864 0.3725 0.8755
O1_4 O 0.4246(3) 0.5340(3) 0.8870(7)
O2_4 O 0.4970(3) 0.5805(3) 0.8851(7)
O5_4 O 0.3801(3) 0.4444(3) 0.8499(7)
Dy5_4 Dy 0.56347(2) 0.54179(2) 0.99327(5)
O18_4 O 0.5169(3) 0.4732(3) 0.9028(7)
C1_5 C 0.6813(5) 0.2033(5) 0.5973(10)
C2_5 C 0.6495(5) 0.1832(5) 0.5012(10)
H1_5 H 0.6145 0.1760 0.5265
H2_5 H 0.6477 0.2093 0.4431
C3_5 C 0.7083(5) 0.1472(5) 0.3615(11)
H3_5 H 0.7280 0.1782 0.3789
H4_5 H 0.6884 0.1538 0.2942
C4_5 C 0.7449(4) 0.1026(4) 0.3418(10)
C5_5 C 0.8441(5) 0.1327(5) 0.5347(11)
C6_5 C 0.8900(6) 0.1657(6) 0.5704(14)
H5_5 H 0.9171 0.1428 0.5972
H6_5 H 0.9033 0.1836 0.5051
C7_5 C 0.9188(6) 0.2052(7) 0.7441(16)
H7_5 H 0.9201 0.2393 0.7779
H8_5 H 0.9523 0.1983 0.7104
C8_5 C 0.9081(7) 0.1652(9) 0.8331(18)
C9_5 C 0.7502(4) 0.0764(4) 0.8699(9)
C10_5 C 0.7778(6) 0.1005(5) 0.9676(11)
H10_5 H 0.8132 0.0878 0.9705
C12_5 C 0.7153(6) 0.2287(5) 0.9542(11)
Dy1_3 Dy 0.71809(2) 0.08081(2) 0.60043(5)
Dy2_5 Dy 0.79179(2) 0.18653(2) 0.75673(5)
N1_5 N 0.6728(4) 0.1351(4) 0.4550(8)
H13_5 H 0.6465 0.1157 0.4267
N2_5 N 0.8790(4) 0.2045(5) 0.6578(11)
H14_5 H 0.8775 0.2364 0.6255
N3_5 N 0.7783(5) 0.1571(4) 0.9582(9)
H15_5 H 0.8062 0.1684 0.9977
O1_5 O 0.7160(3) 0.1746(3) 0.6370(7)
O2_5 O 0.6695(3) 0.2470(3) 0.6351(7)
O3_3 O 0.7505(3) 0.0693(3) 0.4217(7)
O4_3 O 0.7735(3) 0.1003(4) 0.2592(8)
O5_5 O 0.8056(3) 0.1301(3) 0.5999(7)
O6_3 O 0.8499(3) 0.1091(3) 0.4444(7)
O7_5 O 0.8653(4) 0.1432(4) 0.8275(9)
O8_5 O 0.9402(6) 0.1640(9) 0.9132(17)
O9_5 O 0.7483(3) 0.1041(3) 0.7802(7)
O10_3 O 0.7302(3) 0.0330(3) 0.8791(7)
O11_5 O 0.7232(3) 0.2331(3) 0.8472(7)
Dy4_2 Dy 0.83081(2) 0.03191(2) 0.35043(5)
Dy5_5 Dy 0.70821(2) 0.31347(2) 0.74327(5)
O13_5 O 0.8305(3) 0.2530(3) 0.8649(7)
O14_3 O 0.6807(3) 0.0005(3) 0.6717(7)
O15_3 O 0.6497(4) 0.0235(3) 0.5092(8)
O16_3 O 0.6409(3) 0.0999(3) 0.6944(7)
O17_3 O 0.7830(3) 0.0198(3) 0.6291(7)
O18_5 O 0.7768(3) 0.2669(3) 0.6528(7)
C1_6 C 0.8187(5) 0.7967(5) 0.0973(10)
C2_6 C 0.8505(5) 0.8168(5) 0.0012(10)
H1_6 H 0.8855 0.8240 0.0265
C5_6 C 0.6559(5) 0.8673(5) 0.0347(11)
C6_6 C 0.6100(6) 0.8343(6) 0.0704(14)
H5_6 H 0.5829 0.8572 0.0972
H6_6 H 0.5967 0.8164 0.0051
C7_6 C 0.5812(6) 0.7948(7) 0.2441(16)
H7_6 H 0.5799 0.7607 0.2779
H8_6 H 0.5477 0.8017 0.2104
C8_6 C 0.5919(7) 0.8348(9) 0.3331(18)
C9_6 C 0.7498(4) 0.9236(4) 0.3699(9)
C10_6 C 0.7222(6) 0.8995(5) 0.4676(11)
H9_4 H 0.7394 0.9094 0.5363
H10_6 H 0.6868 0.9122 0.4705
C11_4 C 0.7676(7) 0.8198(6) 0.5103(12)
H11_4 H 0.7600 0.8123 0.5880
H12_4 H 0.7957 0.8448 0.5085
C12_6 C 0.7847(6) 0.7713(5) 0.4542(11)
Dy1_4 Dy 0.78191(2) 0.91919(2) 0.10043(5)
Dy2_6 Dy 0.70821(2) 0.81347(2) 0.25673(5)
N2_6 N 0.6210(4) 0.7955(5) 0.1578(11)
H14_6 H 0.6225 0.7636 0.1255
N3_6 N 0.7217(5) 0.8429(4) 0.4582(9)
H15_6 H 0.6938 0.8316 0.4977
O1_6 O 0.7840(3) 0.8254(3) 0.1370(7)
O2_6 O 0.8305(3) 0.7530(3) 0.1351(7)
O5_6 O 0.6944(3) 0.8699(3) 0.0999(7)
O7_6 O 0.6347(4) 0.8568(4) 0.3275(9)
O8_6 O 0.5598(6) 0.8360(9) 0.4132(17)
O9_6 O 0.7517(3) 0.8959(3) 0.2802(7)
O10_4 O 0.7698(3) 0.9670(3) 0.3791(7)
O11_6 O 0.7768(3) 0.7669(3) 0.3472(7)
O12_4 O 0.8058(4) 0.7365(3) 0.5086(6)
Dy5_6 Dy 0.79179(2) 0.68653(2) 0.24327(5)
O13_6 O 0.6695(3) 0.7470(3) 0.3649(7)
O14_4 O 0.8193(3) 0.9995(3) 0.1717(7)
O15_4 O 0.8503(4) 0.9765(3) 0.0092(8)
O16_4 O 0.8591(3) 0.9001(3) 0.1944(7)
O17_4 O 0.7170(3) 0.9802(3) 0.1291(7)
O18_6 O 0.7232(3) 0.7331(3) 0.1528(7)
C5_7 C 0.6173(5) 0.0941(5) 0.7847(11)
C6_7 C 0.5843(6) 0.1400(6) 0.8204(14)
H5_7 H 0.6072 0.1671 0.8472
H6_7 H 0.5664 0.1533 0.7551
C7_7 C 0.5448(7) 0.1688(6) 0.9941(16)
H8_7 H 0.5517 0.2023 0.9604
N2_7 N 0.5455(5) 0.1290(4) 0.9078(11)
H14_7 H 0.5136 0.1275 0.8755
O5_7 O 0.6199(3) 0.0556(3) 0.8499(7)
O18_7 O 0.4831(3) 0.0268(3) 0.9028(7)
C11_5 C 0.5698(6) 0.9824(7) 0.2603(12)
H11_5 H 0.5623 0.9900 0.3380
H12_5 H 0.5948 0.9543 0.2585
C12_7 C 0.5213(5) 0.9653(6) 0.2042(11)
O9_7 O 0.6459(3) 0.9983(3) 0.0302(7)
O11_7 O 0.5169(3) 0.9732(3) 0.0972(7)
O12_5 O 0.4865(3) 0.9442(4) 0.2586(6)
O12_6 O 0.0135(3) 0.0558(4) 0.7586(6)
Dy5_7 Dy 0.06347(2) 0.04179(2) 0.49327(5)
O13_7 O 0.0030(3) 0.9195(3) 0.6149(7)
O18_8 O 0.0169(3) 0.9732(3) 0.4028(7)
C1_7 C 0.9533(5) 0.0687(5) 0.3473(10)
C2_7 C 0.9332(5) 0.1005(5) 0.2512(10)
H1_7 H 0.9260 0.1355 0.2765
H2_6 H 0.9593 0.1023 0.1931
C3_6 C 0.8972(5) 0.0417(5) 0.1115(11)
H3_6 H 0.9282 0.0220 0.1289
H4_6 H 0.9038 0.0616 0.0442
C4_6 C 0.8526(4) 0.0051(4) 0.0918(10)
C11_6 C 0.9302(6) 0.0176(7) 0.7603(12)
H11_6 H 0.9377 0.0100 0.8380
H12_6 H 0.9052 0.0457 0.7585
C12_8 C 0.9787(5) 0.0347(6) 0.7042(11)
N1_6 N 0.8851(4) 0.0772(4) 0.2050(8)
H13_6 H 0.8657 0.1035 0.1767
O1_7 O 0.9246(3) 0.0340(3) 0.3870(7)
O2_7 O 0.9970(3) 0.0805(3) 0.3851(7)
O9_8 O 0.8541(3) 0.0017(3) 0.5302(7)
O11_8 O 0.9831(3) 0.0268(3) 0.5972(7)
C5_8 C 0.8827(5) 0.9059(5) 0.2847(11)
C6_8 C 0.9157(6) 0.8600(6) 0.3204(14)
H5_8 H 0.8928 0.8329 0.3472
H6_8 H 0.9336 0.8467 0.2551
C7_8 C 0.9552(7) 0.8312(6) 0.4941(16)
H7_7 H 0.9893 0.8299 0.5279
H8_8 H 0.9483 0.7977 0.4604
C8_7 C 0.9152(9) 0.8419(7) 0.5831(18)
C9_7 C 0.8264(4) 0.9998(4) 0.6199(9)
C10_7 C 0.8505(5) 0.9722(6) 0.7176(11)
H9_5 H 0.8406 0.9894 0.7863
H10_7 H 0.8378 0.9368 0.7205
Dy2_7 Dy 0.93653(2) 0.95821(2) 0.50673(5)
N2_8 N 0.9545(5) 0.8710(4) 0.4078(11)
H14_8 H 0.9864 0.8725 0.3755
N3_7 N 0.9071(4) 0.9717(5) 0.7082(9)
H15_7 H 0.9184 0.9438 0.7477
O5_8 O 0.8801(3) 0.9444(3) 0.3499(7)
O7_7 O 0.8932(4) 0.8847(4) 0.5775(9)
O8_7 O 0.9140(9) 0.8098(6) 0.6632(17)
H2_7 H 0.8523 0.2907 0.0569
C3_7 C 0.7917(5) 0.3528(5) 0.1385(11)
H3_7 H 0.7720 0.3218 0.1211
H4_7 H 0.8116 0.3462 0.2058
C4_7 C 0.7551(4) 0.3974(4) 0.1582(10)
N1_7 N 0.8272(4) 0.3649(4) 0.0450(8)
H13_7 H 0.8535 0.3843 0.0733
O3_4 O 0.7495(3) 0.4307(3) 0.0783(7)
O4_4 O 0.7265(3) 0.3997(4) 0.2408(8)
O6_4 O 0.6501(3) 0.3909(3) 0.0556(7)
Dy4_3 Dy 0.66919(2) 0.46809(2) 0.14957(5)
C1_8 C 0.8187(5) 0.2967(5) 0.9027(10)
C2_8 C 0.8505(5) 0.3168(5) 0.9988(10)
H1_8 H 0.8855 0.3240 0.9735
C5_9 C 0.6559(5) 0.3673(5) 0.9653(11)
C6_9 C 0.6100(6) 0.3343(6) 0.9296(14)
H5_9 H 0.5829 0.3572 0.9028
H6_9 H 0.5967 0.3164 0.9949
C7_9 C 0.5812(6) 0.2948(7) 0.7559(16)
H7_8 H 0.5799 0.2607 0.7221
H8_9 H 0.5477 0.3017 0.7896
C8_8 C 0.5919(7) 0.3348(9) 0.6669(18)
C9_8 C 0.7498(4) 0.4236(4) 0.6301(9)
C10_8 C 0.7222(6) 0.3995(5) 0.5324(11)
H9_6 H 0.7394 0.4094 0.4637
H10_8 H 0.6868 0.4122 0.5295
C11_7 C 0.7676(7) 0.3198(6) 0.4897(12)
H11_7 H 0.7600 0.3123 0.4120
H12_7 H 0.7957 0.3448 0.4915
C12_9 C 0.7847(6) 0.2713(5) 0.5458(11)
Dy1_5 Dy 0.78191(2) 0.41919(2) 0.89957(5)
N2_9 N 0.6210(4) 0.2955(5) 0.8422(11)
H14_9 H 0.6225 0.2636 0.8745
N3_8 N 0.7217(5) 0.3429(4) 0.5418(9)
H15_8 H 0.6938 0.3316 0.5023
O1_8 O 0.7840(3) 0.3254(3) 0.8630(7)
O5_9 O 0.6944(3) 0.3699(3) 0.9001(7)
O7_8 O 0.6347(4) 0.3568(4) 0.6725(9)
O8_8 O 0.5598(6) 0.3360(9) 0.5868(17)
O9_9 O 0.7517(3) 0.3959(3) 0.7198(7)
O10_5 O 0.7698(3) 0.4670(3) 0.6209(7)
O12_7 O 0.8058(4) 0.2365(3) 0.4914(6)
Dy3_2 Dy 0.83081(2) 0.53191(2) 0.64957(5)
O14_5 O 0.8193(3) 0.4995(3) 0.8283(7)
O15_5 O 0.8503(4) 0.4765(3) 0.9908(8)
O16_5 O 0.8591(3) 0.4001(3) 0.8056(7)
O17_5 O 0.7170(3) 0.4802(3) 0.8709(7)
C1_9 C 0.6813(5) 0.7033(5) 0.4027(10)
C2_9 C 0.6495(5) 0.6832(5) 0.4988(10)
H1_9 H 0.6145 0.6760 0.4735
H2_8 H 0.6477 0.7093 0.5569
C3_8 C 0.7083(5) 0.6472(5) 0.6385(11)
H3_8 H 0.7280 0.6782 0.6211
H4_8 H 0.6884 0.6538 0.7058
C4_8 C 0.7449(4) 0.6026(4) 0.6582(10)
C5_10 C 0.8441(5) 0.6327(5) 0.4653(11)
C6_10 C 0.8900(6) 0.6657(6) 0.4296(14)
H5_10 H 0.9171 0.6428 0.4028
H6_10 H 0.9033 0.6836 0.4949
C7_10 C 0.9188(6) 0.7052(7) 0.2559(16)
H7_9 H 0.9201 0.7393 0.2221
H8_10 H 0.9523 0.6983 0.2896
C8_9 C 0.9081(7) 0.6652(9) 0.1669(18)
C9_9 C 0.7502(4) 0.5764(4) 0.1301(9)
C10_9 C 0.7778(6) 0.6005(5) 0.0324(11)
H10_9 H 0.8132 0.5878 0.0295
C12_10 C 0.7153(6) 0.7287(5) 0.0458(11)
Dy1_6 Dy 0.71809(2) 0.58081(2) 0.39957(5)
N1_8 N 0.6728(4) 0.6351(4) 0.5450(8)
H13_8 H 0.6465 0.6157 0.5733
N2_10 N 0.8790(4) 0.7045(5) 0.3422(11)
H14_10 H 0.8775 0.7364 0.3745
N3_9 N 0.7783(5) 0.6571(4) 0.0418(9)
H15_9 H 0.8062 0.6684 0.0023
O1_9 O 0.7160(3) 0.6746(3) 0.3630(7)
O3_5 O 0.7505(3) 0.5693(3) 0.5783(7)
O4_5 O 0.7735(3) 0.6003(4) 0.7408(8)
O5_10 O 0.8056(3) 0.6301(3) 0.4001(7)
O6_5 O 0.8499(3) 0.6091(3) 0.5556(7)
O7_9 O 0.8653(4) 0.6432(4) 0.1725(9)
O8_9 O 0.9402(6) 0.6640(9) 0.0868(17)
O9_10 O 0.7483(3) 0.6041(3) 0.2198(7)
O10_6 O 0.7302(3) 0.5330(3) 0.1209(7)
O14_6 O 0.6807(3) 0.5005(3) 0.3283(7)
O15_6 O 0.6497(4) 0.5235(3) 0.4908(8)
O16_6 O 0.6409(3) 0.5999(3) 0.3056(7)
O17_6 O 0.7830(3) 0.5198(3) 0.3709(7)
O12_8 O 0.0135(3) 0.5558(4) 0.2414(6)
C1_10 C 0.9533(5) 0.5687(5) 0.6527(10)
C2_10 C 0.9332(5) 0.6005(5) 0.7488(10)
H1_10 H 0.9260 0.6355 0.7235
H2_9 H 0.9593 0.6023 0.8069
C3_9 C 0.8972(5) 0.5417(5) 0.8885(11)
H3_9 H 0.9282 0.5220 0.8711
H4_9 H 0.9038 0.5616 0.9558
C4_9 C 0.8526(4) 0.5051(4) 0.9082(10)
C5_11 C 0.8827(5) 0.4059(5) 0.7153(11)
C6_11 C 0.9157(6) 0.3600(6) 0.6796(14)
H5_11 H 0.8928 0.3329 0.6528
H6_11 H 0.9336 0.3467 0.7449
C7_11 C 0.9552(7) 0.3312(6) 0.5059(16)
H7_10 H 0.9893 0.3299 0.4721
H8_11 H 0.9483 0.2977 0.5396
C8_10 C 0.9152(9) 0.3419(7) 0.4169(18)
C9_10 C 0.8264(4) 0.4998(4) 0.3801(9)
C10_10 C 0.8505(5) 0.4722(6) 0.2824(11)
H9_7 H 0.8406 0.4894 0.2137
H10_10 H 0.8378 0.4368 0.2795
C11_8 C 0.9302(6) 0.5176(7) 0.2397(12)
H11_8 H 0.9377 0.5100 0.1620
H12_8 H 0.9052 0.5457 0.2415
C12_11 C 0.9787(5) 0.5347(6) 0.2958(11)
N1_9 N 0.8851(4) 0.5772(4) 0.7950(8)
H13_9 H 0.8657 0.6035 0.8233
N2_11 N 0.9545(5) 0.3710(4) 0.5922(11)
H14_11 H 0.9864 0.3725 0.6245
N3_10 N 0.9071(4) 0.4717(5) 0.2918(9)
H15_10 H 0.9184 0.4438 0.2523
O1_10 O 0.9246(3) 0.5340(3) 0.6130(7)
O5_11 O 0.8801(3) 0.4444(3) 0.6501(7)
O7_10 O 0.8932(4) 0.3847(4) 0.4225(9)
O8_10 O 0.9140(9) 0.3098(6) 0.3368(17)
O9_11 O 0.8541(3) 0.5017(3) 0.4698(7)
C1_11 C 0.5467(5) 0.4313(5) 0.1527(10)
C2_11 C 0.5668(5) 0.3995(5) 0.2488(10)
H1_11 H 0.5740 0.3645 0.2235
H2_10 H 0.5407 0.3977 0.3069
C3_10 C 0.6028(5) 0.4583(5) 0.3885(11)
H3_10 H 0.5718 0.4780 0.3711
H4_10 H 0.5962 0.4384 0.4558
C4_10 C 0.6474(4) 0.4949(4) 0.4082(10)
C5_12 C 0.6173(5) 0.5941(5) 0.2153(11)
C6_12 C 0.5843(6) 0.6400(6) 0.1796(14)
H5_12 H 0.6072 0.6671 0.1528
H6_12 H 0.5664 0.6533 0.2449
C7_12 C 0.5448(7) 0.6688(6) 0.0059(16)
H8_12 H 0.5517 0.7023 0.0396
N1_10 N 0.6149(4) 0.4228(4) 0.2950(8)
H13_10 H 0.6343 0.3965 0.3233
N2_12 N 0.5455(5) 0.6290(4) 0.0922(11)
H14_12 H 0.5136 0.6275 0.1245
O1_11 O 0.5754(3) 0.4660(3) 0.1130(7)
O5_12 O 0.6199(3) 0.5556(3) 0.1501(7)
H7_11 H 0.5107 0.6701 0.9721
C8_11 C 0.5848(9) 0.6581(7) 0.9169(18)
C9_11 C 0.6736(4) 0.5002(4) 0.8801(9)
C10_11 C 0.6495(5) 0.5278(6) 0.7824(11)
H9_8 H 0.6594 0.5106 0.7137
H10_11 H 0.6622 0.5632 0.7795
C11_9 C 0.5698(6) 0.4824(7) 0.7397(12)
H11_9 H 0.5623 0.4900 0.6620
H12_9 H 0.5948 0.4543 0.7415
C12_12 C 0.5213(5) 0.4653(6) 0.7958(11)
N3_11 N 0.5929(4) 0.5283(5) 0.7918(9)
H15_11 H 0.5816 0.5562 0.7523
O7_11 O 0.6068(4) 0.6153(4) 0.9225(9)
O8_11 O 0.5860(9) 0.6902(6) 0.8368(17)
O9_12 O 0.6459(3) 0.4983(3) 0.9698(7)
O12_9 O 0.4865(3) 0.4442(4) 0.7414(6)
C1_12 C 0.3187(5) 0.7967(5) 0.4027(10)
C2_12 C 0.3505(5) 0.8168(5) 0.4988(10)
H1_12 H 0.3855 0.8240 0.4735
H2_11 H 0.3523 0.7907 0.5569
C3_11 C 0.2917(5) 0.8528(5) 0.6385(11)
H3_11 H 0.2720 0.8218 0.6211
H4_11 H 0.3116 0.8462 0.7058
C4_11 C 0.2551(4) 0.8974(4) 0.6582(10)
C5_13 C 0.1559(5) 0.8673(5) 0.4653(11)
C6_13 C 0.1100(6) 0.8343(6) 0.4296(14)
H5_13 H 0.0829 0.8572 0.4028
H6_13 H 0.0967 0.8164 0.4949
C7_13 C 0.0812(6) 0.7948(7) 0.2559(16)
H7_12 H 0.0799 0.7607 0.2221
H8_13 H 0.0477 0.8017 0.2896
C8_12 C 0.0919(7) 0.8348(9) 0.1669(18)
C9_12 C 0.2498(4) 0.9236(4) 0.1301(9)
C10_12 C 0.2222(6) 0.8995(5) 0.0324(11)
H10_12 H 0.1868 0.9122 0.0295
C12_13 C 0.2847(6) 0.7713(5) 0.0458(11)
Dy1_7 Dy 0.28191(2) 0.91919(2) 0.39957(5)
N1_11 N 0.3272(4) 0.8649(4) 0.5450(8)
H13_11 H 0.3535 0.8843 0.5733
N2_13 N 0.1210(4) 0.7955(5) 0.3422(11)
H14_13 H 0.1225 0.7636 0.3745
N3_12 N 0.2217(5) 0.8429(4) 0.0418(9)
H15_12 H 0.1938 0.8316 0.0023
O1_12 O 0.2840(3) 0.8254(3) 0.3630(7)
O3_6 O 0.2495(3) 0.9307(3) 0.5783(7)
O4_6 O 0.2265(3) 0.8997(4) 0.7408(8)
O5_13 O 0.1944(3) 0.8699(3) 0.4001(7)
O6_6 O 0.1501(3) 0.8909(3) 0.5556(7)
O7_12 O 0.1347(4) 0.8568(4) 0.1725(9)
O8_12 O 0.0598(6) 0.8360(9) 0.0868(17)
O9_13 O 0.2517(3) 0.8959(3) 0.2198(7)
O10_7 O 0.2698(3) 0.9670(3) 0.1209(7)
Dy4_4 Dy 0.16919(2) 0.96809(2) 0.64957(5)
O14_7 O 0.3193(3) 0.9995(3) 0.3283(7)
O15_7 O 0.3503(4) 0.9765(3) 0.4908(8)
O16_7 O 0.3591(3) 0.9001(3) 0.3056(7)
O17_7 O 0.2170(3) 0.9802(3) 0.3709(7)
C1_13 C 0.1813(5) 0.2033(5) 0.9027(10)
C2_13 C 0.1495(5) 0.1832(5) 0.9988(10)
H1_13 H 0.1145 0.1760 0.9735
C5_14 C 0.3441(5) 0.1327(5) 0.9653(11)
C6_14 C 0.3900(6) 0.1657(6) 0.9296(14)
H5_14 H 0.4171 0.1428 0.9028
H6_14 H 0.4033 0.1836 0.9949
C7_14 C 0.4188(6) 0.2052(7) 0.7559(16)
H7_13 H 0.4201 0.2393 0.7221
H8_14 H 0.4523 0.1983 0.7896
C8_13 C 0.4081(7) 0.1652(9) 0.6669(18)
C9_13 C 0.2502(4) 0.0764(4) 0.6301(9)
C10_13 C 0.2778(6) 0.1005(5) 0.5324(11)
H9_9 H 0.2606 0.0906 0.4637
H10_13 H 0.3132 0.0878 0.5295
C11_10 C 0.2324(7) 0.1802(6) 0.4897(12)
H11_10 H 0.2400 0.1877 0.4120
H12_10 H 0.2043 0.1552 0.4915
C12_14 C 0.2153(6) 0.2287(5) 0.5458(11)
Dy1_8 Dy 0.21809(2) 0.08081(2) 0.89957(5)
N2_14 N 0.3790(4) 0.2045(5) 0.8422(11)
H14_14 H 0.3775 0.2364 0.8745
N3_13 N 0.2783(5) 0.1571(4) 0.5418(9)
H15_13 H 0.3062 0.1684 0.5023
O1_13 O 0.2160(3) 0.1746(3) 0.8630(7)
O5_14 O 0.3056(3) 0.1301(3) 0.9001(7)
O7_13 O 0.3653(4) 0.1432(4) 0.6725(9)
O8_13 O 0.4402(6) 0.1640(9) 0.5868(17)
O9_14 O 0.2483(3) 0.1041(3) 0.7198(7)
O10_8 O 0.2302(3) 0.0330(3) 0.6209(7)
O12_10 O 0.1942(4) 0.2635(3) 0.4914(6)
O14_8 O 0.1807(3) 0.0005(3) 0.8283(7)
O15_8 O 0.1497(4) 0.0235(3) 0.9908(8)
O16_8 O 0.1409(3) 0.0999(3) 0.8056(7)
O17_8 O 0.2830(3) 0.0198(3) 0.8709(7)
C11_11 C 0.4302(6) 0.0176(7) 0.7397(12)
H11_11 H 0.4377 0.0100 0.6620
H12_11 H 0.4052 0.0457 0.7415
C12_15 C 0.4787(5) 0.0347(6) 0.7958(11)
O9_15 O 0.3541(3) 0.0017(3) 0.9698(7)
O12_11 O 0.5135(3) 0.0558(4) 0.7414(6)
C5_15 C 0.3827(5) 0.9059(5) 0.2153(11)
C6_15 C 0.4157(6) 0.8600(6) 0.1796(14)
H5_15 H 0.3928 0.8329 0.1528
H6_15 H 0.4336 0.8467 0.2449
C7_15 C 0.4552(7) 0.8312(6) 0.0059(16)
H8_15 H 0.4483 0.7977 0.0396
N2_15 N 0.4545(5) 0.8710(4) 0.0922(11)
H14_15 H 0.4864 0.8725 0.1245
O5_15 O 0.3801(3) 0.9444(3) 0.1501(7)
C5_16 C 0.1173(5) 0.0941(5) 0.7153(11)
C6_16 C 0.0843(6) 0.1400(6) 0.6796(14)
H5_16 H 0.1072 0.1671 0.6528
H6_16 H 0.0664 0.1533 0.7449
C7_16 C 0.0448(7) 0.1688(6) 0.5059(16)
H7_14 H 0.0107 0.1701 0.4721
H8_16 H 0.0517 0.2023 0.5396
C8_14 C 0.0848(9) 0.1581(7) 0.4169(18)
C9_14 C 0.1736(4) 0.0002(4) 0.3801(9)
C10_14 C 0.1495(5) 0.0278(6) 0.2824(11)
H9_10 H 0.1594 0.0106 0.2137
H10_14 H 0.1622 0.0632 0.2795
N2_16 N 0.0455(5) 0.1290(4) 0.5922(11)
H14_16 H 0.0136 0.1275 0.6245
N3_14 N 0.0929(4) 0.0283(5) 0.2918(9)
H15_14 H 0.0816 0.0562 0.2523
O5_16 O 0.1199(3) 0.0556(3) 0.6501(7)
O7_14 O 0.1068(4) 0.1153(4) 0.4225(9)
O8_14 O 0.0860(9) 0.1902(6) 0.3368(17)
C1_14 C 0.0467(5) 0.9313(5) 0.6527(10)
C2_14 C 0.0668(5) 0.8995(5) 0.7488(10)
H1_14 H 0.0740 0.8645 0.7235
H2_12 H 0.0407 0.8977 0.8069
C3_12 C 0.1028(5) 0.9583(5) 0.8885(11)
H3_12 H 0.0718 0.9780 0.8711
H4_12 H 0.0962 0.9384 0.9558
C4_12 C 0.1474(4) 0.9949(4) 0.9082(10)
C11_12 C 0.0698(6) 0.9824(7) 0.2397(12)
H11_12 H 0.0623 0.9900 0.1620
H12_12 H 0.0948 0.9543 0.2415
C12_16 C 0.0213(5) 0.9653(6) 0.2958(11)
N1_12 N 0.1149(4) 0.9228(4) 0.7950(8)
H13_12 H 0.1343 0.8965 0.8233
O1_14 O 0.0754(3) 0.9660(3) 0.6130(7)
O9_16 O 0.1459(3) 0.9983(3) 0.4698(7)
O12_12 O 0.9865(3) 0.9442(4) 0.2414(6)
H9_11 H 0.2394 0.4094 0.0363
C11_13 C 0.2676(7) 0.3198(6) 0.0103(12)
H11_13 H 0.2600 0.3123 0.0880
H12_13 H 0.2957 0.3448 0.0085
O12_13 O 0.3058(4) 0.2365(3) 0.0086(6)
H9_12 H 0.7606 0.0906 0.0363
C11_14 C 0.7324(7) 0.1802(6) 0.0103(12)
H11_14 H 0.7400 0.1877 0.0880
H12_14 H 0.7043 0.1552 0.0085
O12_14 O 0.6942(4) 0.2635(3) 0.0086(6)
Dy3_3 Dy 0.66919(2) 0.96809(2) 0.85043(5)
H2_13 H 0.8523 0.7907 0.9431
C3_13 C 0.7917(5) 0.8528(5) 0.8615(11)
H3_13 H 0.7720 0.8218 0.8789
H4_13 H 0.8116 0.8462 0.7942
C4_13 C 0.7551(4) 0.8974(4) 0.8418(10)
N1_13 N 0.8272(4) 0.8649(4) 0.9550(8)
H13_13 H 0.8535 0.8843 0.9267
O3_7 O 0.7495(3) 0.9307(3) 0.9217(7)
O4_7 O 0.7265(3) 0.8997(4) 0.7592(8)
O6_7 O 0.6501(3) 0.8909(3) 0.9444(7)
C1_15 C 0.5467(5) 0.9313(5) 0.8473(10)
C2_15 C 0.5668(5) 0.8995(5) 0.7512(10)
H1_15 H 0.5740 0.8645 0.7765
H2_14 H 0.5407 0.8977 0.6931
C3_14 C 0.6028(5) 0.9583(5) 0.6115(11)
H3_14 H 0.5718 0.9780 0.6289
H4_14 H 0.5962 0.9384 0.5442
C4_14 C 0.6474(4) 0.9949(4) 0.5918(10)
N1_14 N 0.6149(4) 0.9228(4) 0.7050(8)
H13_14 H 0.6343 0.8965 0.6767
O1_15 O 0.5754(3) 0.9660(3) 0.8870(7)
O2_8 O 0.5030(3) 0.9195(3) 0.8851(7)
Dy5_8 Dy 0.43653(2) 0.95821(2) 0.99327(5)
H7_15 H 0.4893 0.8299 0.9721
C8_15 C 0.4152(9) 0.8419(7) 0.9169(18)
C9_15 C 0.3264(4) 0.9998(4) 0.8801(9)
C10_15 C 0.3505(5) 0.9722(6) 0.7824(11)
H9_13 H 0.3406 0.9894 0.7137
H10_15 H 0.3378 0.9368 0.7795
N3_15 N 0.4071(4) 0.9717(5) 0.7918(9)
H15_15 H 0.4184 0.9438 0.7523
O7_15 O 0.3932(4) 0.8847(4) 0.9225(9)
O8_15 O 0.4140(9) 0.8098(6) 0.8368(17)
H7_16 H 0.5107 0.1701 0.0279
C8_16 C 0.5848(9) 0.1581(7) 0.0831(18)
C9_16 C 0.6736(4) 0.0002(4) 0.1199(9)
C10_16 C 0.6495(5) 0.0278(6) 0.2176(11)
H9_14 H 0.6594 0.0106 0.2863
H10_16 H 0.6622 0.0632 0.2205
Dy2_8 Dy 0.56347(2) 0.04179(2) 0.00673(5)
N3_16 N 0.5929(4) 0.0283(5) 0.2082(9)
H15_16 H 0.5816 0.0562 0.2477
O7_16 O 0.6068(4) 0.1153(4) 0.0775(9)
O8_16 O 0.5860(9) 0.1902(6) 0.1632(17)
O13_8 O 0.4970(3) 0.0805(3) 0.1149(7)
Dy3_4 Dy 0.33081(2) 0.03191(2) 0.14957(5)
H2_15 H 0.1477 0.2093 0.0569
C3_15 C 0.2083(5) 0.1472(5) 0.1385(11)
H3_15 H 0.2280 0.1782 0.1211
H4_15 H 0.1884 0.1538 0.2058
C4_15 C 0.2449(4) 0.1026(4) 0.1582(10)
N1_15 N 0.1728(4) 0.1351(4) 0.0450(8)
H13_15 H 0.1465 0.1157 0.0733
O3_8 O 0.2505(3) 0.0693(3) 0.0783(7)
O4_8 O 0.2735(3) 0.1003(4) 0.2408(8)
O6_8 O 0.3499(3) 0.1091(3) 0.0556(7)
C1_16 C 0.4533(5) 0.0687(5) 0.1527(10)
C2_16 C 0.4332(5) 0.1005(5) 0.2488(10)
H1_16 H 0.4260 0.1355 0.2235
H2_16 H 0.4593 0.1023 0.3069
C3_16 C 0.3972(5) 0.0417(5) 0.3885(11)
H3_16 H 0.4282 0.0220 0.3711
H4_16 H 0.4038 0.0616 0.4558
C4_16 C 0.3526(4) 0.0051(4) 0.4082(10)
N1_16 N 0.3851(4) 0.0772(4) 0.2950(8)
H13_16 H 0.3657 0.1035 0.3233
O1_16 O 0.4246(3) 0.0340(3) 0.1130(7)
H9_15 H 0.7606 0.5906 0.9637
C11_15 C 0.7324(7) 0.6802(6) 0.9897(12)
H11_15 H 0.7400 0.6877 0.9120
H12_15 H 0.7043 0.6552 0.9915
O12_15 O 0.6942(4) 0.7635(3) 0.9914(6)
H9_16 H 0.2394 0.9094 0.9637
C11_16 C 0.2676(7) 0.8198(6) 0.9897(12)
H11_16 H 0.2600 0.8123 0.9120
H12_16 H 0.2957 0.8448 0.9915
O12_16 O 0.3058(4) 0.7365(3) 0.9914(6)
loop_
_geom_bond_atom_site_label_1
_geom_bond_atom_site_label_2
_geom_bond_site_symmetry_1
_geom_bond_site_symmetry_2
C1 C2 1_555 1_555
C2 H1 1_555 1_555
C5 C6 1_555 1_555
C6 H5 1_555 1_555
H6 C6 1_555 1_555
C7 H7 1_555 1_555
H8 C7 1_555 1_555
C8 C7 1_555 1_555
C9 C10 1_555 1_555
C10 H9 1_555 1_555
H10 C10 1_555 1_555
C11 H11 1_555 1_555
H12 C11 1_555 1_555
C12 C11 1_555 1_555
Dy2 N2 1_555 1_555
N2 C6 1_555 1_555
H14 N2 1_555 1_555
N3 C10 1_555 1_555
H15 N3 1_555 1_555
O1 C1 1_555 1_555
O2 C1 1_555 1_555
O5 C5 1_555 1_555
O7 C8 1_555 1_555
O8 C8 1_555 1_555
O9 C9 1_555 1_555
O10 C9 1_555 1_555
O11 C12 1_555 1_555
O12 C12 1_555 1_555
Dy3 O10 1_555 1_555
Dy5 O2 1_555 1_555
O13 Dy2 1_555 1_555
O14 Dy1 1_555 1_555
O15 Dy1 1_555 1_555
O16 Dy1 1_555 1_555
O17 Dy1 1_555 1_555
O18 Dy2 1_555 1_555
C7 N2 1_555 1_555
C11 N3 1_555 1_555
Dy1 O1 1_555 1_555
Dy1 O5 1_555 1_555
Dy1 O9 1_555 1_555
Dy2 N3 1_555 1_555
Dy2 O1 1_555 1_555
Dy2 O5 1_555 1_555
Dy2 O7 1_555 1_555
Dy2 O9 1_555 1_555
Dy2 O11 1_555 1_555
O11 Dy5 1_555 1_555
Dy3 O14 1_555 1_555
Dy5 O18 1_555 1_555
C3 H3 1_555 1_555
H4 C3 1_555 1_555
C4 C3 1_555 1_555
H13 N1 1_555 1_555
O3 C4 1_555 1_555
O4 C4 1_555 1_555
Dy4 O3 1_555 1_555
C3 N1 1_555 1_555
O4 Dy4 1_555 1_555
O6 Dy4 1_555 1_555
C1_2 C2_2 1_555 1_555
C2_2 H1_2 1_555 1_555
H2_2 C2_2 1_555 1_555
C3_2 H3_2 1_555 1_555
H4_2 C3_2 1_555 1_555
C4_2 C3_2 1_555 1_555
C5_2 C6_2 1_555 1_555
C6_2 H5_2 1_555 1_555
H6_2 C6_2 1_555 1_555
C7_2 H7_2 1_555 1_555
H8_2 C7_2 1_555 1_555
C8_2 C7_2 1_555 1_555
C9_2 C10_2 1_555 1_555
H10_2 C10_2 1_555 1_555
Dy1_2 N1_2 1_555 1_555
Dy2_2 N2_2 1_555 1_555
N1_2 C2_2 1_555 1_555
H13_2 N1_2 1_555 1_555
N2_2 C6_2 1_555 1_555
H14_2 N2_2 1_555 1_555
N3_2 C10_2 1_555 1_555
H15_2 N3_2 1_555 1_555
O1_2 C1_2 1_555 1_555
O2_2 C1_2 1_555 1_555
O3_2 C4_2 1_555 1_555
O4_2 C4_2 1_555 1_555
O5_2 C5_2 1_555 1_555
O6_2 C5_2 1_555 1_555
O7_2 C8_2 1_555 1_555
O8_2 C8_2 1_555 1_555
O9_2 C9_2 1_555 1_555
O10_2 C9_2 1_555 1_555
O11_2 C12_2 1_555 1_555
Dy4 O10_2 1_555 1_555
Dy3 O3_2 1_555 1_555
Dy5_2 O2_2 1_555 1_555
O13_2 Dy2_2 1_555 1_555
O14_2 Dy1_2 1_555 1_555
O15_2 Dy1_2 1_555 1_555
O16_2 Dy1_2 1_555 1_555
O17_2 Dy1_2 1_555 1_555
O18_2 Dy2_2 1_555 1_555
C3_2 N1_2 1_555 1_555
C7_2 N2_2 1_555 1_555
Dy1_2 O1_2 1_555 1_555
Dy1_2 O3_2 1_555 1_555
Dy1_2 O5_2 1_555 1_555
Dy1_2 O9_2 1_555 1_555
Dy2_2 N3_2 1_555 1_555
Dy2_2 O1_2 1_555 1_555
Dy2_2 O5_2 1_555 1_555
Dy2_2 O7_2 1_555 1_555
Dy2_2 O9_2 1_555 1_555
Dy2_2 O11_2 1_555 1_555
O4_2 Dy3 1_555 1_555
O6_2 Dy3 1_555 1_555
O11_2 Dy5_2 1_555 1_555
Dy4 O14_2 1_555 1_555
Dy5_2 O18_2 1_555 1_555
C1_3 C2_3 1_555 1_555
C2_3 H1_3 1_555 1_555
H2_3 C2_3 1_555 1_555
C3_3 H3_3 1_555 1_555
H4_3 C3_3 1_555 1_555
C4_3 C3_3 1_555 1_555
C5_3 C6_3 1_555 1_555
C6_3 H5_3 1_555 1_555
H6_3 C6_3 1_555 1_555
C7_3 H7_3 1_555 1_555
H8_3 C7_3 1_555 1_555
C8_3 C7_3 1_555 1_555
C9_3 C10_3 1_555 1_555
C10_3 H9_2 1_555 1_555
H10_3 C10_3 1_555 1_555
C11_2 H11_2 1_555 1_555
H12_2 C11_2 1_555 1_555
C12_3 C11_2 1_555 1_555
Dy3 N1_3 1_555 1_555
Dy2_3 N2_3 1_555 1_555
N1_3 C2_3 1_555 1_555
H13_3 N1_3 1_555 1_555
N2_3 C6_3 1_555 1_555
H14_3 N2_3 1_555 1_555
N3_3 C10_3 1_555 1_555
H15_3 N3_3 1_555 1_555
O1_3 C1_3 1_555 1_555
O2_3 C1_3 1_555 1_555
O14 C4_3 1_555 1_555
O15 C4_3 1_555 1_555
O5_3 C5_3 1_555 1_555
O16 C5_3 1_555 1_555
O7_3 C8_3 1_555 1_555
O8_3 C8_3 1_555 1_555
O9_3 C9_3 1_555 1_555
O17_2 C9_3 1_555 1_555
O11_3 C12_3 1_555 1_555
C3_3 N1_3 1_555 1_555
C7_3 N2_3 1_555 1_555
C11_2 N3_3 1_555 1_555
Dy3 O1_3 1_555 1_555
Dy3 O5_3 1_555 1_555
Dy3 O9_3 1_555 1_555
Dy2_3 N3_3 1_555 1_555
Dy2_3 O1_3 1_555 1_555
Dy2_3 O5_3 1_555 1_555
Dy2_3 O7_3 1_555 1_555
Dy2_3 O9_3 1_555 1_555
Dy2_3 O11_3 1_555 1_555
Dy5_3 O18_3 1_555 1_555
C9_4 C10_4 1_555 1_555
C10_4 H9_3 1_555 1_555
H10_4 C10_4 1_555 1_555
C11_3 H11_3 1_555 1_555
H12_3 C11_3 1_555 1_555
C12_4 C11_3 1_555 1_555
N3_4 C10_4 1_555 1_555
H15_4 N3_4 1_555 1_555
O7_4 C8_4 1_555 1_555
O8_4 C8_4 1_555 1_555
O9_4 C9_4 1_555 1_555
O17 C9_4 1_555 1_555
O11_4 C12_4 1_555 1_555
O12_3 C12_4 1_555 1_555
O13_4 Dy2_4 1_555 1_555
C11_3 N3_4 1_555 1_555
Dy2_4 N3_4 1_555 1_555
Dy2_4 O7_4 1_555 1_555
Dy2_4 O9_4 1_555 1_555
Dy2_4 O11_4 1_555 1_555
C1_4 C2_4 1_555 1_555
C2_4 H1_4 1_555 1_555
H2_4 C2_4 1_555 1_555
C3_4 H3_4 1_555 1_555
H4_4 C3_4 1_555 1_555
C4_4 C3_4 1_555 1_555
C5_4 C6_4 1_555 1_555
C6_4 H5_4 1_555 1_555
H6_4 C6_4 1_555 1_555
H8_4 C7_4 1_555 1_555
Dy4 N1_4 1_555 1_555
N1_4 C2_4 1_555 1_555
H13_4 N1_4 1_555 1_555
N2_4 C6_4 1_555 1_555
H14_4 N2_4 1_555 1_555
O1_4 C1_4 1_555 1_555
O2_4 C1_4 1_555 1_555
O14_2 C4_4 1_555 1_555
O15_2 C4_4 1_555 1_555
O5_4 C5_4 1_555 1_555
O16_2 C5_4 1_555 1_555
Dy5_4 O2_4 1_555 1_555
C3_4 N1_4 1_555 1_555
C7_4 N2_4 1_555 1_555
Dy4 O1_4 1_555 1_555
Dy4 O5_4 1_555 1_555
Dy5_4 O18_4 1_555 1_555
C1_5 C2_5 1_555 1_555
C2_5 H1_5 1_555 1_555
H2_5 C2_5 1_555 1_555
C3_5 H3_5 1_555 1_555
H4_5 C3_5 1_555 1_555
C4_5 C3_5 1_555 1_555
C5_5 C6_5 1_555 1_555
C6_5 H5_5 1_555 1_555
H6_5 C6_5 1_555 1_555
C7_5 H7_5 1_555 1_555
H8_5 C7_5 1_555 1_555
C8_5 C7_5 1_555 1_555
C9_5 C10_5 1_555 1_555
H10_5 C10_5 1_555 1_555
Dy1_3 N1_5 1_555 1_555
Dy2_5 N2_5 1_555 1_555
N1_5 C2_5 1_555 1_555
H13_5 N1_5 1_555 1_555
N2_5 C6_5 1_555 1_555
H14_5 N2_5 1_555 1_555
N3_5 C10_5 1_555 1_555
H15_5 N3_5 1_555 1_555
O1_5 C1_5 1_555 1_555
O2_5 C1_5 1_555 1_555
O3_3 C4_5 1_555 1_555
O4_3 C4_5 1_555 1_555
O5_5 C5_5 1_555 1_555
O6_3 C5_5 1_555 1_555
O7_5 C8_5 1_555 1_555
O8_5 C8_5 1_555 1_555
O9_5 C9_5 1_555 1_555
O10_3 C9_5 1_555 1_555
O11_5 C12_5 1_555 1_555
Dy4_2 O3_3 1_555 1_555
Dy5_5 O2_5 1_555 1_555
O13_5 Dy2_5 1_555 1_555
O14_3 Dy1_3 1_555 1_555
O15_3 Dy1_3 1_555 1_555
O16_3 Dy1_3 1_555 1_555
O17_3 Dy1_3 1_555 1_555
O18_5 Dy2_5 1_555 1_555
C3_5 N1_5 1_555 1_555
C7_5 N2_5 1_555 1_555
Dy1_3 O1_5 1_555 1_555
Dy1_3 O3_3 1_555 1_555
Dy1_3 O5_5 1_555 1_555
Dy1_3 O9_5 1_555 1_555
Dy2_5 N3_5 1_555 1_555
Dy2_5 O1_5 1_555 1_555
Dy2_5 O5_5 1_555 1_555
Dy2_5 O7_5 1_555 1_555
Dy2_5 O9_5 1_555 1_555
Dy2_5 O11_5 1_555 1_555
O4_3 Dy4_2 1_555 1_555
O6_3 Dy4_2 1_555 1_555
O11_5 Dy5_5 1_555 1_555
Dy5_5 O18_5 1_555 1_555
C1_6 C2_6 1_555 1_555
C2_6 H1_6 1_555 1_555
C5_6 C6_6 1_555 1_555
C6_6 H5_6 1_555 1_555
H6_6 C6_6 1_555 1_555
C7_6 H7_6 1_555 1_555
H8_6 C7_6 1_555 1_555
C8_6 C7_6 1_555 1_555
C9_6 C10_6 1_555 1_555
C10_6 H9_4 1_555 1_555
H10_6 C10_6 1_555 1_555
C11_4 H11_4 1_555 1_555
H12_4 C11_4 1_555 1_555
C12_6 C11_4 1_555 1_555
Dy2_6 N2_6 1_555 1_555
N2_6 C6_6 1_555 1_555
H14_6 N2_6 1_555 1_555
N3_6 C10_6 1_555 1_555
H15_6 N3_6 1_555 1_555
O1_6 C1_6 1_555 1_555
O2_6 C1_6 1_555 1_555
O5_6 C5_6 1_555 1_555
O7_6 C8_6 1_555 1_555
O8_6 C8_6 1_555 1_555
O9_6 C9_6 1_555 1_555
O10_4 C9_6 1_555 1_555
O11_6 C12_6 1_555 1_555
O12_4 C12_6 1_555 1_555
Dy5_6 O2_6 1_555 1_555
O13_6 Dy2_6 1_555 1_555
O14_4 Dy1_4 1_555 1_555
O15_4 Dy1_4 1_555 1_555
O16_4 Dy1_4 1_555 1_555
O17_4 Dy1_4 1_555 1_555
O18_6 Dy2_6 1_555 1_555
C7_6 N2_6 1_555 1_555
C11_4 N3_6 1_555 1_555
Dy1_4 O1_6 1_555 1_555
Dy1_4 O5_6 1_555 1_555
Dy1_4 O9_6 1_555 1_555
Dy2_6 N3_6 1_555 1_555
Dy2_6 O1_6 1_555 1_555
Dy2_6 O5_6 1_555 1_555
Dy2_6 O7_6 1_555 1_555
Dy2_6 O9_6 1_555 1_555
Dy2_6 O11_6 1_555 1_555
O11_6 Dy5_6 1_555 1_555
Dy5_6 O18_6 1_555 1_555
C5_7 C6_7 1_555 1_555
C6_7 H5_7 1_555 1_555
H6_7 C6_7 1_555 1_555
H8_7 C7_7 1_555 1_555
N2_7 C6_7 1_555 1_555
H14_7 N2_7 1_555 1_555
O5_7 C5_7 1_555 1_555
O16_3 C5_7 1_555 1_555
C7_7 N2_7 1_555 1_555
C11_5 H11_5 1_555 1_555
H12_5 C11_5 1_555 1_555
C12_7 C11_5 1_555 1_555
O11_7 C12_7 1_555 1_555
O12_5 C12_7 1_555 1_555
C1_7 C2_7 1_555 1_555
C2_7 H1_7 1_555 1_555
H2_6 C2_7 1_555 1_555
C3_6 H3_6 1_555 1_555
H4_6 C3_6 1_555 1_555
C4_6 C3_6 1_555 1_555
C11_6 H11_6 1_555 1_555
H12_6 C11_6 1_555 1_555
C12_8 C11_6 1_555 1_555
Dy4_2 N1_6 1_555 1_555
N1_6 C2_7 1_555 1_555
H13_6 N1_6 1_555 1_555
O1_7 C1_7 1_555 1_555
O2_7 C1_7 1_555 1_555
O11_8 C12_8 1_555 1_555
C3_6 N1_6 1_555 1_555
Dy4_2 O1_7 1_555 1_555
Dy4_2 O9_8 1_555 1_555
C5_8 C6_8 1_555 1_555
C6_8 H5_8 1_555 1_555
H6_8 C6_8 1_555 1_555
C7_8 H7_7 1_555 1_555
H8_8 C7_8 1_555 1_555
C8_7 C7_8 1_555 1_555
C9_7 C10_7 1_555 1_555
C10_7 H9_5 1_555 1_555
H10_7 C10_7 1_555 1_555
Dy2_7 N2_8 1_555 1_555
N2_8 C6_8 1_555 1_555
H14_8 N2_8 1_555 1_555
N3_7 C10_7 1_555 1_555
H15_7 N3_7 1_555 1_555
O5_8 C5_8 1_555 1_555
O16_4 C5_8 1_555 1_555
O7_7 C8_7 1_555 1_555
O8_7 C8_7 1_555 1_555
C7_8 N2_8 1_555 1_555
Dy2_7 N3_7 1_555 1_555
Dy2_7 O5_8 1_555 1_555
Dy2_7 O7_7 1_555 1_555
C3_7 H3_7 1_555 1_555
H4_7 C3_7 1_555 1_555
C4_7 C3_7 1_555 1_555
H13_7 N1_7 1_555 1_555
O3_4 C4_7 1_555 1_555
O4_4 C4_7 1_555 1_555
Dy4_3 O3_4 1_555 1_555
C3_7 N1_7 1_555 1_555
O4_4 Dy4_3 1_555 1_555
O6_4 Dy4_3 1_555 1_555
C1_8 C2_8 1_555 1_555
C2_8 H1_8 1_555 1_555
C5_9 C6_9 1_555 1_555
C6_9 H5_9 1_555 1_555
H6_9 C6_9 1_555 1_555
C7_9 H7_8 1_555 1_555
H8_9 C7_9 1_555 1_555
C8_8 C7_9 1_555 1_555
C9_8 C10_8 1_555 1_555
C10_8 H9_6 1_555 1_555
H10_8 C10_8 1_555 1_555
C11_7 H11_7 1_555 1_555
H12_7 C11_7 1_555 1_555
C12_9 C11_7 1_555 1_555
Dy5_5 N2_9 1_555 1_555
N2_9 C6_9 1_555 1_555
H14_9 N2_9 1_555 1_555
N3_8 C10_8 1_555 1_555
H15_8 N3_8 1_555 1_555
O1_8 C1_8 1_555 1_555
O13_5 C1_8 1_555 1_555
O5_9 C5_9 1_555 1_555
O7_8 C8_8 1_555 1_555
O8_8 C8_8 1_555 1_555
O9_9 C9_8 1_555 1_555
O10_5 C9_8 1_555 1_555
O18_5 C12_9 1_555 1_555
O12_7 C12_9 1_555 1_555
Dy3_2 O10_5 1_555 1_555
O14_5 Dy1_5 1_555 1_555
O15_5 Dy1_5 1_555 1_555
O16_5 Dy1_5 1_555 1_555
O17_5 Dy1_5 1_555 1_555
C7_9 N2_9 1_555 1_555
C11_7 N3_8 1_555 1_555
Dy1_5 O1_8 1_555 1_555
Dy1_5 O5_9 1_555 1_555
Dy1_5 O9_9 1_555 1_555
Dy5_5 N3_8 1_555 1_555
Dy5_5 O1_8 1_555 1_555
Dy5_5 O5_9 1_555 1_555
Dy5_5 O7_8 1_555 1_555
Dy5_5 O9_9 1_555 1_555
Dy3_2 O14_5 1_555 1_555
C1_9 C2_9 1_555 1_555
C2_9 H1_9 1_555 1_555
H2_8 C2_9 1_555 1_555
C3_8 H3_8 1_555 1_555
H4_8 C3_8 1_555 1_555
C4_8 C3_8 1_555 1_555
C5_10 C6_10 1_555 1_555
C6_10 H5_10 1_555 1_555
H6_10 C6_10 1_555 1_555
C7_10 H7_9 1_555 1_555
H8_10 C7_10 1_555 1_555
C8_9 C7_10 1_555 1_555
C9_9 C10_9 1_555 1_555
H10_9 C10_9 1_555 1_555
Dy1_6 N1_8 1_555 1_555
Dy5_6 N2_10 1_555 1_555
N1_8 C2_9 1_555 1_555
H13_8 N1_8 1_555 1_555
N2_10 C6_10 1_555 1_555
H14_10 N2_10 1_555 1_555
N3_9 C10_9 1_555 1_555
H15_9 N3_9 1_555 1_555
O1_9 C1_9 1_555 1_555
O13_6 C1_9 1_555 1_555
O3_5 C4_8 1_555 1_555
O4_5 C4_8 1_555 1_555
O5_10 C5_10 1_555 1_555
O6_5 C5_10 1_555 1_555
O7_9 C8_9 1_555 1_555
O8_9 C8_9 1_555 1_555
O9_10 C9_9 1_555 1_555
O10_6 C9_9 1_555 1_555
O18_6 C12_10 1_555 1_555
Dy4_3 O10_6 1_555 1_555
Dy3_2 O3_5 1_555 1_555
O14_6 Dy1_6 1_555 1_555
O15_6 Dy1_6 1_555 1_555
O16_6 Dy1_6 1_555 1_555
O17_6 Dy1_6 1_555 1_555
C3_8 N1_8 1_555 1_555
C7_10 N2_10 1_555 1_555
Dy1_6 O1_9 1_555 1_555
Dy1_6 O3_5 1_555 1_555
Dy1_6 O5_10 1_555 1_555
Dy1_6 O9_10 1_555 1_555
Dy5_6 N3_9 1_555 1_555
Dy5_6 O1_9 1_555 1_555
Dy5_6 O5_10 1_555 1_555
Dy5_6 O7_9 1_555 1_555
Dy5_6 O9_10 1_555 1_555
O4_5 Dy3_2 1_555 1_555
O6_5 Dy3_2 1_555 1_555
Dy4_3 O14_6 1_555 1_555
C1_10 C2_10 1_555 1_555
C2_10 H1_10 1_555 1_555
H2_9 C2_10 1_555 1_555
C3_9 H3_9 1_555 1_555
H4_9 C3_9 1_555 1_555
C4_9 C3_9 1_555 1_555
C5_11 C6_11 1_555 1_555
C6_11 H5_11 1_555 1_555
H6_11 C6_11 1_555 1_555
C7_11 H7_10 1_555 1_555
H8_11 C7_11 1_555 1_555
C8_10 C7_11 1_555 1_555
C9_10 C10_10 1_555 1_555
C10_10 H9_7 1_555 1_555
H10_10 C10_10 1_555 1_555
C11_8 H11_8 1_555 1_555
H12_8 C11_8 1_555 1_555
C12_11 C11_8 1_555 1_555
Dy3_2 N1_9 1_555 1_555
Dy5_3 N2_11 1_555 1_555
N1_9 C2_10 1_555 1_555
H13_9 N1_9 1_555 1_555
N2_11 C6_11 1_555 1_555
H14_11 N2_11 1_555 1_555
N3_10 C10_10 1_555 1_555
H15_10 N3_10 1_555 1_555
O1_10 C1_10 1_555 1_555
O13_3 C1_10 1_555 1_555
O14_5 C4_9 1_555 1_555
O15_5 C4_9 1_555 1_555
O5_11 C5_11 1_555 1_555
O16_5 C5_11 1_555 1_555
O7_10 C8_10 1_555 1_555
O8_10 C8_10 1_555 1_555
O9_11 C9_10 1_555 1_555
O17_6 C9_10 1_555 1_555
O18_3 C12_11 1_555 1_555
C3_9 N1_9 1_555 1_555
C7_11 N2_11 1_555 1_555
C11_8 N3_10 1_555 1_555
Dy3_2 O1_10 1_555 1_555
Dy3_2 O5_11 1_555 1_555
Dy3_2 O9_11 1_555 1_555
Dy5_3 N3_10 1_555 1_555
Dy5_3 O1_10 1_555 1_555
Dy5_3 O5_11 1_555 1_555
Dy5_3 O7_10 1_555 1_555
Dy5_3 O9_11 1_555 1_555
C1_11 C2_11 1_555 1_555
C2_11 H1_11 1_555 1_555
H2_10 C2_11 1_555 1_555
C3_10 H3_10 1_555 1_555
H4_10 C3_10 1_555 1_555
C4_10 C3_10 1_555 1_555
C5_12 C6_12 1_555 1_555
C6_12 H5_12 1_555 1_555
H6_12 C6_12 1_555 1_555
H8_12 C7_12 1_555 1_555
Dy4_3 N1_10 1_555 1_555
N1_10 C2_11 1_555 1_555
H13_10 N1_10 1_555 1_555
N2_12 C6_12 1_555 1_555
H14_12 N2_12 1_555 1_555
O1_11 C1_11 1_555 1_555
O13_4 C1_11 1_555 1_555
O14_6 C4_10 1_555 1_555
O15_6 C4_10 1_555 1_555
O5_12 C5_12 1_555 1_555
O16_6 C5_12 1_555 1_555
C3_10 N1_10 1_555 1_555
C7_12 N2_12 1_555 1_555
Dy4_3 O1_11 1_555 1_555
Dy4_3 O5_12 1_555 1_555
C9_11 C10_11 1_555 1_555
C10_11 H9_8 1_555 1_555
H10_11 C10_11 1_555 1_555
C11_9 H11_9 1_555 1_555
H12_9 C11_9 1_555 1_555
C12_12 C11_9 1_555 1_555
N3_11 C10_11 1_555 1_555
H15_11 N3_11 1_555 1_555
O7_11 C8_11 1_555 1_555
O8_11 C8_11 1_555 1_555
O9_12 C9_11 1_555 1_555
O17_5 C9_11 1_555 1_555
O18_4 C12_12 1_555 1_555
O12_9 C12_12 1_555 1_555
C11_9 N3_11 1_555 1_555
Dy5_4 N3_11 1_555 1_555
Dy5_4 O7_11 1_555 1_555
Dy5_4 O9_12 1_555 1_555
C1_12 C2_12 1_555 1_555
C2_12 H1_12 1_555 1_555
H2_11 C2_12 1_555 1_555
C3_11 H3_11 1_555 1_555
H4_11 C3_11 1_555 1_555
C4_11 C3_11 1_555 1_555
C5_13 C6_13 1_555 1_555
C6_13 H5_13 1_555 1_555
H6_13 C6_13 1_555 1_555
C7_13 H7_12 1_555 1_555
H8_13 C7_13 1_555 1_555
C8_12 C7_13 1_555 1_555
C9_12 C10_12 1_555 1_555
H10_12 C10_12 1_555 1_555
Dy1_7 N1_11 1_555 1_555
Dy5 N2_13 1_555 1_555
N1_11 C2_12 1_555 1_555
H13_11 N1_11 1_555 1_555
N2_13 C6_13 1_555 1_555
H14_13 N2_13 1_555 1_555
N3_12 C10_12 1_555 1_555
H15_12 N3_12 1_555 1_555
O1_12 C1_12 1_555 1_555
O13 C1_12 1_555 1_555
O3_6 C4_11 1_555 1_555
O4_6 C4_11 1_555 1_555
O5_13 C5_13 1_555 1_555
O6_6 C5_13 1_555 1_555
O7_12 C8_12 1_555 1_555
O8_12 C8_12 1_555 1_555
O9_13 C9_12 1_555 1_555
O10_7 C9_12 1_555 1_555
O18 C12_13 1_555 1_555
Dy4_4 O3_6 1_555 1_555
O14_7 Dy1_7 1_555 1_555
O15_7 Dy1_7 1_555 1_555
O16_7 Dy1_7 1_555 1_555
O17_7 Dy1_7 1_555 1_555
C3_11 N1_11 1_555 1_555
C7_13 N2_13 1_555 1_555
Dy1_7 O1_12 1_555 1_555
Dy1_7 O3_6 1_555 1_555
Dy1_7 O5_13 1_555 1_555
Dy1_7 O9_13 1_555 1_555
Dy5 N3_12 1_555 1_555
Dy5 O1_12 1_555 1_555
Dy5 O5_13 1_555 1_555
Dy5 O7_12 1_555 1_555
Dy5 O9_13 1_555 1_555
O4_6 Dy4_4 1_555 1_555
O6_6 Dy4_4 1_555 1_555
C1_13 C2_13 1_555 1_555
C2_13 H1_13 1_555 1_555
C5_14 C6_14 1_555 1_555
C6_14 H5_14 1_555 1_555
H6_14 C6_14 1_555 1_555
C7_14 H7_13 1_555 1_555
H8_14 C7_14 1_555 1_555
C8_13 C7_14 1_555 1_555
C9_13 C10_13 1_555 1_555
C10_13 H9_9 1_555 1_555
H10_13 C10_13 1_555 1_555
C11_10 H11_10 1_555 1_555
H12_10 C11_10 1_555 1_555
C12_14 C11_10 1_555 1_555
Dy5_2 N2_14 1_555 1_555
N2_14 C6_14 1_555 1_555
H14_14 N2_14 1_555 1_555
N3_13 C10_13 1_555 1_555
H15_13 N3_13 1_555 1_555
O1_13 C1_13 1_555 1_555
O13_2 C1_13 1_555 1_555
O5_14 C5_14 1_555 1_555
O7_13 C8_13 1_555 1_555
O8_13 C8_13 1_555 1_555
O9_14 C9_13 1_555 1_555
O10_8 C9_13 1_555 1_555
O18_2 C12_14 1_555 1_555
O12_10 C12_14 1_555 1_555
O14_8 Dy1_8 1_555 1_555
O15_8 Dy1_8 1_555 1_555
O16_8 Dy1_8 1_555 1_555
O17_8 Dy1_8 1_555 1_555
C7_14 N2_14 1_555 1_555
C11_10 N3_13 1_555 1_555
Dy1_8 O1_13 1_555 1_555
Dy1_8 O5_14 1_555 1_555
Dy1_8 O9_14 1_555 1_555
Dy5_2 N3_13 1_555 1_555
Dy5_2 O1_13 1_555 1_555
Dy5_2 O5_14 1_555 1_555
Dy5_2 O7_13 1_555 1_555
Dy5_2 O9_14 1_555 1_555
C11_11 H11_11 1_555 1_555
H12_11 C11_11 1_555 1_555
C12_15 C11_11 1_555 1_555
O18_7 C12_15 1_555 1_555
O12_11 C12_15 1_555 1_555
C5_15 C6_15 1_555 1_555
C6_15 H5_15 1_555 1_555
H6_15 C6_15 1_555 1_555
H8_15 C7_15 1_555 1_555
N2_15 C6_15 1_555 1_555
H14_15 N2_15 1_555 1_555
O5_15 C5_15 1_555 1_555
O16_7 C5_15 1_555 1_555
C7_15 N2_15 1_555 1_555
C5_16 C6_16 1_555 1_555
C6_16 H5_16 1_555 1_555
H6_16 C6_16 1_555 1_555
C7_16 H7_14 1_555 1_555
H8_16 C7_16 1_555 1_555
C8_14 C7_16 1_555 1_555
C9_14 C10_14 1_555 1_555
C10_14 H9_10 1_555 1_555
H10_14 C10_14 1_555 1_555
Dy5_7 N2_16 1_555 1_555
N2_16 C6_16 1_555 1_555
H14_16 N2_16 1_555 1_555
N3_14 C10_14 1_555 1_555
H15_14 N3_14 1_555 1_555
O5_16 C5_16 1_555 1_555
O16_8 C5_16 1_555 1_555
O7_14 C8_14 1_555 1_555
O8_14 C8_14 1_555 1_555
C7_16 N2_16 1_555 1_555
Dy5_7 N3_14 1_555 1_555
Dy5_7 O5_16 1_555 1_555
Dy5_7 O7_14 1_555 1_555
C1_14 C2_14 1_555 1_555
C2_14 H1_14 1_555 1_555
H2_12 C2_14 1_555 1_555
C3_12 H3_12 1_555 1_555
H4_12 C3_12 1_555 1_555
C4_12 C3_12 1_555 1_555
C11_12 H11_12 1_555 1_555
H12_12 C11_12 1_555 1_555
C12_16 C11_12 1_555 1_555
Dy4_4 N1_12 1_555 1_555
N1_12 C2_14 1_555 1_555
H13_12 N1_12 1_555 1_555
O1_14 C1_14 1_555 1_555
O13_7 C1_14 1_555 1_555
O18_8 C12_16 1_555 1_555
C3_12 N1_12 1_555 1_555
Dy4_4 O1_14 1_555 1_555
Dy4_4 O9_16 1_555 1_555
C11_13 H11_13 1_555 1_555
H12_13 C11_13 1_555 1_555
C11_14 H11_14 1_555 1_555
H12_14 C11_14 1_555 1_555
C3_13 H3_13 1_555 1_555
H4_13 C3_13 1_555 1_555
C4_13 C3_13 1_555 1_555
H13_13 N1_13 1_555 1_555
O3_7 C4_13 1_555 1_555
O4_7 C4_13 1_555 1_555
Dy3_3 O3_7 1_555 1_555
C3_13 N1_13 1_555 1_555
O4_7 Dy3_3 1_555 1_555
O6_7 Dy3_3 1_555 1_555
C1_15 C2_15 1_555 1_555
C2_15 H1_15 1_555 1_555
H2_14 C2_15 1_555 1_555
C3_14 H3_14 1_555 1_555
H4_14 C3_14 1_555 1_555
C4_14 C3_14 1_555 1_555
Dy3_3 N1_14 1_555 1_555
N1_14 C2_15 1_555 1_555
H13_14 N1_14 1_555 1_555
O1_15 C1_15 1_555 1_555
O2_8 C1_15 1_555 1_555
Dy5_8 O2_8 1_555 1_555
C3_14 N1_14 1_555 1_555
Dy3_3 O1_15 1_555 1_555
C9_15 C10_15 1_555 1_555
C10_15 H9_13 1_555 1_555
H10_15 C10_15 1_555 1_555
N3_15 C10_15 1_555 1_555
H15_15 N3_15 1_555 1_555
O7_15 C8_15 1_555 1_555
O8_15 C8_15 1_555 1_555
Dy5_8 N3_15 1_555 1_555
Dy5_8 O7_15 1_555 1_555
C9_16 C10_16 1_555 1_555
C10_16 H9_14 1_555 1_555
H10_16 C10_16 1_555 1_555
N3_16 C10_16 1_555 1_555
H15_16 N3_16 1_555 1_555
O7_16 C8_16 1_555 1_555
O8_16 C8_16 1_555 1_555
O13_8 Dy2_8 1_555 1_555
Dy2_8 N3_16 1_555 1_555
Dy2_8 O7_16 1_555 1_555
C3_15 H3_15 1_555 1_555
H4_15 C3_15 1_555 1_555
C4_15 C3_15 1_555 1_555
H13_15 N1_15 1_555 1_555
O3_8 C4_15 1_555 1_555
O4_8 C4_15 1_555 1_555
Dy3_4 O3_8 1_555 1_555
C3_15 N1_15 1_555 1_555
O4_8 Dy3_4 1_555 1_555
O6_8 Dy3_4 1_555 1_555
C1_16 C2_16 1_555 1_555
C2_16 H1_16 1_555 1_555
H2_16 C2_16 1_555 1_555
C3_16 H3_16 1_555 1_555
H4_16 C3_16 1_555 1_555
C4_16 C3_16 1_555 1_555
Dy3_4 N1_16 1_555 1_555
N1_16 C2_16 1_555 1_555
H13_16 N1_16 1_555 1_555
O1_16 C1_16 1_555 1_555
O13_8 C1_16 1_555 1_555
C3_16 N1_16 1_555 1_555
Dy3_4 O1_16 1_555 1_555
C11_15 H11_15 1_555 1_555
H12_15 C11_15 1_555 1_555
C11_16 H11_16 1_555 1_555
H12_16 C11_16 1_555 1_555

#END
