
###############################################################################
#
# This file contains modified crystal structure data generated from the
# MOF subset of the Cambridge Structural Database (CSD) v543 
# hosted by the Cambridge Crystallographic Data Centre (CCDC).
#
# This work is licensed under the Creative Commons
# Attribution-NonCommercial-ShareAlike 4.0 International License.
# To view a copy of this license, visit
# http://creativecommons.org/licenses/by-nc-sa/4.0/
# or send a letter to
# Creative Commons, PO Box 1866, Mountain View, CA 94042, USA.
#
# CIF created using the CSD Python API on 29 September 2022
# The structure has been converted into the P1 space group
# The structure has a 3D framework
# The original CSD entry ZETQAS is in the tetragonal crystal system
# The framework has been calculated to contain at least 10.0% void space
# The void calculation uses a probe of radius 1.32A, grid spacing 0.4
#
###############################################################################

data_ZETQAS
_chemical_formula_moiety         '(C192 H240 N48 O180 Tb32)n'
_symmetry_cell_setting           triclinic
_symmetry_space_group_name_H-M   'P 1'
_symmetry_Int_Tables_number      1
_space_group_name_Hall           'P 1'
loop_
_symmetry_equiv_pos_site_id
_symmetry_equiv_pos_as_xyz
1 x,y,z
_cell_length_a                   25.824(5)
_cell_length_b                   25.824(5)
_cell_length_c                   11.966(3)
_cell_angle_alpha                90
_cell_angle_beta                 90
_cell_angle_gamma                90
_cell_volume                     7979.87
loop_
_atom_site_label
_atom_site_type_symbol
_atom_site_fract_x
_atom_site_fract_y
_atom_site_fract_z
C1 C 0.18098(18) 0.70320(18) 0.0975(4)
C2 C 0.14943(19) 0.68297(19) 0.0009(4)
H1 H 0.1147 0.6751 0.0264
C5 C 0.34456(19) 0.63267(19) 0.0331(4)
C6 C 0.3905(2) 0.6652(2) 0.0711(6)
H5 H 0.4173 0.6420 0.0985
H6 H 0.4045 0.6832 0.0066
C7 C 0.4201(2) 0.7049(3) 0.2458(6)
H7 H 0.4220 0.7393 0.2780
H8 H 0.4534 0.6968 0.2129
C8 C 0.4078(3) 0.6665(4) 0.3349(8)
C9 C 0.24923(18) 0.57672(19) 0.3697(4)
C10 C 0.2771(2) 0.6002(2) 0.4681(5)
H9 H 0.2602 0.5897 0.5369
H10 H 0.3126 0.5878 0.4700
C11 C 0.2315(3) 0.6800(2) 0.5105(5)
H11 H 0.2390 0.6874 0.5883
H12 H 0.2034 0.6551 0.5085
C12 C 0.2143(2) 0.7289(2) 0.4539(5)
N2 N 0.37944(17) 0.70364(19) 0.1584(4)
H14 H 0.3780 0.7354 0.1258
N3 N 0.27676(17) 0.65716(15) 0.4594(4)
H15 H 0.3045 0.6686 0.4995
O1 O 0.21624(12) 0.67430(12) 0.1358(3)
O2 O 0.16950(13) 0.74733(13) 0.1340(3)
O5 O 0.30581(13) 0.62995(13) 0.0981(3)
O7 O 0.4398(3) 0.6636(4) 0.4152(7)
O8 O 0.36581(17) 0.64291(17) 0.3282(4)
O9 O 0.24859(13) 0.60372(13) 0.2805(3)
O10 O 0.23059(13) 0.53321(13) 0.3786(3)
O11 O 0.1926(2) 0.7626(2) 0.5082(4)
O12 O 0.22279(11) 0.73287(10) 0.3482(2)
Tb1 Tb 0.218038(8) 0.580817(8) 0.099506(19)
Tb2 Tb 0.291909(9) 0.686610(9) 0.25685(2)
O13 O 0.33050(13) 0.75267(13) 0.3660(3)
O14 O 0.18050(12) 0.50018(12) 0.1697(3)
O15 O 0.14946(15) 0.52349(14) 0.0079(3)
O16 O 0.14052(13) 0.60027(13) 0.1933(3)
O17 O 0.28321(13) 0.51941(13) 0.1286(3)
O18 O 0.27721(11) 0.76713(10) 0.1518(2)
Tb3 Tb 0.169183(8) 0.468038(8) 0.349506(19)
Tb5 Tb 0.208091(9) 0.813390(9) 0.24315(2)
H2 H 0.1469 0.7095 0.9438
C3 C 0.2092(2) 0.6475(2) 0.8612(4)
H3 H 0.2285 0.6786 0.8793
H4 H 0.1898 0.6541 0.7932
C4 C 0.24618(18) 0.60358(19) 0.8419(4)
N1 N 0.17293(15) 0.63593(15) 0.9524(3)
H13 H 0.1468 0.6166 0.9231
O3 O 0.25018(12) 0.56950(12) 0.9197(3)
O4 O 0.27349(14) 0.60054(15) 0.7579(3)
O6 O 0.35027(13) 0.60948(13) 0.9433(3)
Tb4 Tb 0.330817(8) 0.531962(8) 0.849506(19)
C1_2 C 0.31902(18) 0.29680(18) 0.5975(4)
C2_2 C 0.35057(19) 0.31703(19) 0.5009(4)
H1_2 H 0.3853 0.3249 0.5264
H2_2 H 0.3531 0.2905 0.4438
C3_2 C 0.2908(2) 0.3525(2) 0.3612(4)
H3_2 H 0.2715 0.3214 0.3793
H4_2 H 0.3102 0.3459 0.2932
C4_2 C 0.25382(18) 0.39642(19) 0.3419(4)
C5_2 C 0.15544(19) 0.36733(19) 0.5331(4)
C6_2 C 0.1095(2) 0.3348(2) 0.5711(6)
H5_2 H 0.0827 0.3580 0.5985
H6_2 H 0.0955 0.3168 0.5066
C7_2 C 0.0799(2) 0.2951(3) 0.7458(6)
H7_2 H 0.0780 0.2607 0.7780
H8_2 H 0.0466 0.3032 0.7129
C8_2 C 0.0922(3) 0.3335(4) 0.8349(8)
C9_2 C 0.25077(18) 0.42328(19) 0.8697(4)
C10_2 C 0.2229(2) 0.3998(2) 0.9681(5)
H10_2 H 0.1874 0.4122 0.9700
C12_2 C 0.2857(2) 0.2711(2) 0.9539(5)
N1_2 N 0.32707(15) 0.36407(15) 0.4524(3)
H13_2 H 0.3532 0.3834 0.4231
N2_2 N 0.12056(17) 0.29636(19) 0.6584(4)
H14_2 H 0.1220 0.2646 0.6258
N3_2 N 0.22324(17) 0.34284(15) 0.9594(4)
H15_2 H 0.1955 0.3314 0.9995
O1_2 O 0.28376(12) 0.32570(12) 0.6358(3)
O2_2 O 0.33050(13) 0.25267(13) 0.6340(3)
O3_2 O 0.24982(12) 0.43050(12) 0.4197(3)
O4_2 O 0.22651(14) 0.39946(15) 0.2579(3)
O5_2 O 0.19419(13) 0.37005(13) 0.5981(3)
O6_2 O 0.14973(13) 0.39052(13) 0.4433(3)
O7_2 O 0.0602(3) 0.3364(4) 0.9152(7)
O8_2 O 0.13419(17) 0.35709(17) 0.8282(4)
O9_2 O 0.25141(13) 0.39628(13) 0.7805(3)
O10_2 O 0.26941(13) 0.46679(13) 0.8786(3)
O12_2 O 0.27721(11) 0.26713(10) 0.8482(2)
Tb1_2 Tb 0.281962(8) 0.419183(8) 0.599506(19)
Tb2_2 Tb 0.208091(9) 0.313390(9) 0.75685(2)
O13_2 O 0.16950(13) 0.24733(13) 0.8660(3)
O14_2 O 0.31950(12) 0.49982(12) 0.6697(3)
O15_2 O 0.35054(15) 0.47651(14) 0.5079(3)
O16_2 O 0.35948(13) 0.39973(13) 0.6933(3)
O17_2 O 0.21679(13) 0.48059(13) 0.6286(3)
O18_2 O 0.22279(11) 0.23287(10) 0.6518(2)
Tb5_2 Tb 0.291909(9) 0.186610(9) 0.74315(2)
C1_3 C 0.04680(18) 0.43098(18) 0.3475(4)
C2_3 C 0.06703(19) 0.39943(19) 0.2509(4)
H1_3 H 0.0749 0.3647 0.2764
H2_3 H 0.0405 0.3969 0.1938
C3_3 C 0.1025(2) 0.4592(2) 0.1112(4)
H3_3 H 0.0714 0.4785 0.1293
H4_3 H 0.0959 0.4398 0.0432
C4_3 C 0.14642(19) 0.49618(18) 0.0919(4)
C5_3 C 0.11733(19) 0.59456(19) 0.2831(4)
C6_3 C 0.0848(2) 0.6405(2) 0.3211(6)
H5_3 H 0.1080 0.6673 0.3485
H6_3 H 0.0668 0.6545 0.2566
C7_3 C 0.0451(3) 0.6701(2) 0.4958(6)
H7_3 H 0.0107 0.6720 0.5280
H8_3 H 0.0532 0.7034 0.4629
C8_3 C 0.0835(4) 0.6578(3) 0.5849(8)
C9_3 C 0.17328(19) 0.49923(18) 0.6197(4)
C10_3 C 0.1498(2) 0.5271(2) 0.7181(5)
H9_2 H 0.1603 0.5102 0.7869
H10_3 H 0.1622 0.5626 0.7200
C11_2 C 0.0700(2) 0.4815(3) 0.7605(5)
H11_2 H 0.0626 0.4890 0.8383
H12_2 H 0.0949 0.4534 0.7585
C12_3 C 0.0211(2) 0.4643(2) 0.7039(5)
N1_3 N 0.11407(15) 0.42293(15) 0.2024(3)
H13_3 H 0.1334 0.3968 0.1731
N2_3 N 0.04636(19) 0.62944(17) 0.4084(4)
H14_3 H 0.0146 0.6280 0.3758
N3_3 N 0.09284(15) 0.52676(17) 0.7094(4)
H15_3 H 0.0814 0.5545 0.7495
O1_3 O 0.07570(12) 0.46624(12) 0.3858(3)
O2_3 O 0.00267(13) 0.41950(13) 0.3840(3)
O5_3 O 0.12005(13) 0.55581(13) 0.3481(3)
O7_3 O 0.0864(4) 0.6898(3) 0.6652(7)
O8_3 O 0.10709(17) 0.61581(17) 0.5782(4)
O9_3 O 0.14628(13) 0.49859(13) 0.5305(3)
O12_3 O 0.01713(10) 0.47279(11) 0.5982(2)
Tb2_3 Tb 0.063390(9) 0.541909(9) 0.50685(2)
O11_2 O 0.9874(2) 0.4426(2) 0.7582(4)
O13_3 O 0.99733(13) 0.58050(13) 0.6160(3)
O18_3 O 0.98287(10) 0.52721(11) 0.4018(2)
Tb5_3 Tb 0.936610(9) 0.458091(9) 0.49315(2)
H7_4 H 0.4893 0.3280 0.0280
C8_4 C 0.4165(4) 0.3422(3) 0.0849(8)
C9_4 C 0.32672(19) 0.50077(18) 0.1197(4)
C10_4 C 0.3502(2) 0.4729(2) 0.2181(5)
H9_3 H 0.3397 0.4898 0.2869
H10_4 H 0.3378 0.4374 0.2200
C11_3 C 0.4300(2) 0.5185(3) 0.2605(5)
H11_3 H 0.4374 0.5110 0.3383
H12_3 H 0.4051 0.5466 0.2585
C12_4 C 0.4789(2) 0.5357(2) 0.2039(5)
N3_4 N 0.40716(15) 0.47324(17) 0.2094(4)
H15_4 H 0.4186 0.4455 0.2495
O7_4 O 0.4136(4) 0.3102(3) 0.1652(7)
O8_4 O 0.39291(17) 0.38419(17) 0.0782(4)
O9_4 O 0.35372(13) 0.50141(13) 0.0305(3)
O11_3 O 0.5126(2) 0.5574(2) 0.2582(4)
O12_4 O 0.48287(10) 0.52721(11) 0.0982(2)
Tb2_4 Tb 0.436610(9) 0.458091(9) 0.00685(2)
O13_4 O 0.50267(13) 0.41950(13) 0.1160(3)
C1_4 C 0.45320(18) 0.56902(18) 0.8475(4)
C2_4 C 0.43297(19) 0.60057(19) 0.7509(4)
H1_4 H 0.4251 0.6353 0.7764
H2_4 H 0.4595 0.6031 0.6938
C3_4 C 0.3975(2) 0.5408(2) 0.6112(4)
H3_4 H 0.4286 0.5215 0.6293
H4_4 H 0.4041 0.5602 0.5432
C4_4 C 0.35358(19) 0.50382(18) 0.5919(4)
C5_4 C 0.38267(19) 0.40544(19) 0.7831(4)
C6_4 C 0.4152(2) 0.3595(2) 0.8211(6)
H5_4 H 0.3920 0.3327 0.8485
H6_4 H 0.4332 0.3455 0.7566
C7_4 C 0.4549(3) 0.3299(2) 0.9958(6)
H8_4 H 0.4468 0.2966 0.9629
N1_4 N 0.38593(15) 0.57707(15) 0.7024(3)
H13_4 H 0.3666 0.6032 0.6731
N2_4 N 0.45364(19) 0.37056(17) 0.9084(4)
H14_4 H 0.4854 0.3720 0.8758
O1_4 O 0.42430(12) 0.53376(12) 0.8858(3)
O2_4 O 0.49733(13) 0.58050(13) 0.8840(3)
O5_4 O 0.37995(13) 0.44419(13) 0.8481(3)
O18_4 O 0.51713(10) 0.47279(11) 0.9018(2)
Tb5_4 Tb 0.563390(9) 0.541909(9) 0.99315(2)
C1_5 C 0.68098(18) 0.20320(18) 0.5975(4)
C2_5 C 0.64943(19) 0.18297(19) 0.5009(4)
H1_5 H 0.6147 0.1751 0.5264
H2_5 H 0.6469 0.2095 0.4438
C3_5 C 0.7092(2) 0.1475(2) 0.3612(4)
H3_5 H 0.7285 0.1786 0.3793
H4_5 H 0.6898 0.1541 0.2932
C4_5 C 0.74618(18) 0.10358(19) 0.3419(4)
C5_5 C 0.84456(19) 0.13267(19) 0.5331(4)
C6_5 C 0.8905(2) 0.1652(2) 0.5711(6)
H5_5 H 0.9173 0.1420 0.5985
H6_5 H 0.9045 0.1832 0.5066
C7_5 C 0.9201(2) 0.2049(3) 0.7458(6)
H7_5 H 0.9220 0.2393 0.7780
H8_5 H 0.9534 0.1968 0.7129
C8_5 C 0.9078(3) 0.1665(4) 0.8349(8)
C9_5 C 0.74923(18) 0.07672(19) 0.8697(4)
C10_5 C 0.7771(2) 0.1002(2) 0.9681(5)
H10_5 H 0.8126 0.0878 0.9700
C12_5 C 0.7143(2) 0.2289(2) 0.9539(5)
N1_5 N 0.67293(15) 0.13593(15) 0.4524(3)
H13_5 H 0.6468 0.1166 0.4231
N2_5 N 0.87944(17) 0.20364(19) 0.6584(4)
H14_5 H 0.8780 0.2354 0.6258
N3_5 N 0.77676(17) 0.15716(15) 0.9594(4)
H15_5 H 0.8045 0.1686 0.9995
O1_5 O 0.71624(12) 0.17430(12) 0.6358(3)
O2_5 O 0.66950(13) 0.24733(13) 0.6340(3)
O3_3 O 0.75018(12) 0.06950(12) 0.4197(3)
O4_3 O 0.77349(14) 0.10054(15) 0.2579(3)
O5_5 O 0.80581(13) 0.12995(13) 0.5981(3)
O6_3 O 0.85027(13) 0.10948(13) 0.4433(3)
O7_5 O 0.9398(3) 0.1636(4) 0.9152(7)
O8_5 O 0.86581(17) 0.14291(17) 0.8282(4)
O9_5 O 0.74859(13) 0.10372(13) 0.7805(3)
O10_3 O 0.73059(13) 0.03321(13) 0.8786(3)
O12_5 O 0.72279(11) 0.23287(10) 0.8482(2)
Tb1_3 Tb 0.718038(8) 0.080817(8) 0.599506(19)
Tb2_5 Tb 0.791909(9) 0.186610(9) 0.75685(2)
O13_5 O 0.83050(13) 0.25267(13) 0.8660(3)
O14_3 O 0.68050(12) 0.00018(12) 0.6697(3)
O15_3 O 0.64946(15) 0.02349(14) 0.5079(3)
O16_3 O 0.64052(13) 0.10027(13) 0.6933(3)
O17_3 O 0.78321(13) 0.01941(13) 0.6286(3)
O18_5 O 0.77721(11) 0.26713(10) 0.6518(2)
Tb4_2 Tb 0.830817(8) 0.031962(8) 0.349506(19)
Tb5_5 Tb 0.708091(9) 0.313390(9) 0.74315(2)
C1_6 C 0.81902(18) 0.79680(18) 0.0975(4)
C2_6 C 0.85057(19) 0.81703(19) 0.0009(4)
H1_6 H 0.8853 0.8249 0.0264
C5_6 C 0.65544(19) 0.86733(19) 0.0331(4)
C6_6 C 0.6095(2) 0.8348(2) 0.0711(6)
H5_6 H 0.5827 0.8580 0.0985
H6_6 H 0.5955 0.8168 0.0066
C7_6 C 0.5799(2) 0.7951(3) 0.2458(6)
H7_6 H 0.5780 0.7607 0.2780
H8_6 H 0.5466 0.8032 0.2129
C8_6 C 0.5922(3) 0.8335(4) 0.3349(8)
C9_6 C 0.75077(18) 0.92328(19) 0.3697(4)
C10_6 C 0.7229(2) 0.8998(2) 0.4681(5)
H9_4 H 0.7398 0.9103 0.5369
H10_6 H 0.6874 0.9122 0.4700
C11_4 C 0.7685(3) 0.8200(2) 0.5105(5)
H11_4 H 0.7610 0.8126 0.5883
H12_4 H 0.7966 0.8449 0.5085
C12_6 C 0.7857(2) 0.7711(2) 0.4539(5)
N2_6 N 0.62056(17) 0.79636(19) 0.1584(4)
H14_6 H 0.6220 0.7646 0.1258
N3_6 N 0.72324(17) 0.84284(15) 0.4594(4)
H15_6 H 0.6955 0.8314 0.4995
O1_6 O 0.78376(12) 0.82570(12) 0.1358(3)
O2_6 O 0.83050(13) 0.75267(13) 0.1340(3)
O5_6 O 0.69419(13) 0.87005(13) 0.0981(3)
O7_6 O 0.5602(3) 0.8364(4) 0.4152(7)
O8_6 O 0.63419(17) 0.85709(17) 0.3282(4)
O9_6 O 0.75141(13) 0.89628(13) 0.2805(3)
O10_4 O 0.76941(13) 0.96679(13) 0.3786(3)
O11_4 O 0.8074(2) 0.7374(2) 0.5082(4)
O12_6 O 0.77721(11) 0.76713(10) 0.3482(2)
Tb1_4 Tb 0.781962(8) 0.919183(8) 0.099506(19)
Tb2_6 Tb 0.708091(9) 0.813390(9) 0.25685(2)
O13_6 O 0.66950(13) 0.74733(13) 0.3660(3)
O14_4 O 0.81950(12) 0.99982(12) 0.1697(3)
O15_4 O 0.85054(15) 0.97651(14) 0.0079(3)
O16_4 O 0.85948(13) 0.89973(13) 0.1933(3)
O17_4 O 0.71679(13) 0.98059(13) 0.1286(3)
O18_6 O 0.72279(11) 0.73287(10) 0.1518(2)
Tb5_6 Tb 0.791909(9) 0.686610(9) 0.24315(2)
C5_7 C 0.61733(19) 0.09456(19) 0.7831(4)
C6_7 C 0.5848(2) 0.1405(2) 0.8211(6)
H5_7 H 0.6080 0.1673 0.8485
H6_7 H 0.5668 0.1545 0.7566
C7_7 C 0.5451(3) 0.1701(2) 0.9958(6)
H8_7 H 0.5532 0.2034 0.9629
N2_7 N 0.54636(19) 0.12944(17) 0.9084(4)
H14_7 H 0.5146 0.1280 0.8758
O5_7 O 0.62005(13) 0.05581(13) 0.8481(3)
O18_7 O 0.48287(10) 0.02721(11) 0.9018(2)
C9_7 C 0.67328(19) 0.99923(18) 0.1197(4)
C11_5 C 0.5700(2) 0.9815(3) 0.2605(5)
H11_5 H 0.5626 0.9890 0.3383
H12_5 H 0.5949 0.9534 0.2585
C12_7 C 0.5211(2) 0.9643(2) 0.2039(5)
O9_7 O 0.64628(13) 0.99859(13) 0.0305(3)
O11_5 O 0.4874(2) 0.9426(2) 0.2582(4)
O12_7 O 0.51713(10) 0.97279(11) 0.0982(2)
O11_6 O 0.0126(2) 0.0574(2) 0.7582(4)
Tb5_7 Tb 0.063390(9) 0.041909(9) 0.49315(2)
O13_7 O 0.00267(13) 0.91950(13) 0.6160(3)
O18_8 O 0.01713(10) 0.97279(11) 0.4018(2)
C1_7 C 0.95320(18) 0.06902(18) 0.3475(4)
C2_7 C 0.93297(19) 0.10057(19) 0.2509(4)
H1_7 H 0.9251 0.1353 0.2764
H2_6 H 0.9595 0.1031 0.1938
C3_6 C 0.8975(2) 0.0408(2) 0.1112(4)
H3_6 H 0.9286 0.0215 0.1293
H4_6 H 0.9041 0.0602 0.0432
C4_6 C 0.85358(19) 0.00382(18) 0.0919(4)
C9_8 C 0.82672(19) 0.00077(18) 0.6197(4)
C11_6 C 0.9300(2) 0.0185(3) 0.7605(5)
H11_6 H 0.9374 0.0110 0.8383
H12_6 H 0.9051 0.0466 0.7585
C12_8 C 0.9789(2) 0.0357(2) 0.7039(5)
N1_6 N 0.88593(15) 0.07707(15) 0.2024(3)
H13_6 H 0.8666 0.1032 0.1731
O1_7 O 0.92430(12) 0.03376(12) 0.3858(3)
O2_7 O 0.99733(13) 0.08050(13) 0.3840(3)
O9_8 O 0.85372(13) 0.00141(13) 0.5305(3)
O12_8 O 0.98287(10) 0.02721(11) 0.5982(2)
C5_8 C 0.88267(19) 0.90544(19) 0.2831(4)
C6_8 C 0.9152(2) 0.8595(2) 0.3211(6)
H5_8 H 0.8920 0.8327 0.3485
H6_8 H 0.9332 0.8455 0.2566
C7_8 C 0.9549(3) 0.8299(2) 0.4958(6)
H7_7 H 0.9893 0.8280 0.5280
H8_8 H 0.9468 0.7966 0.4629
C8_7 C 0.9165(4) 0.8422(3) 0.5849(8)
C10_7 C 0.8502(2) 0.9729(2) 0.7181(5)
H9_5 H 0.8397 0.9898 0.7869
H10_7 H 0.8378 0.9374 0.7200
N2_8 N 0.95364(19) 0.87056(17) 0.4084(4)
H14_8 H 0.9854 0.8720 0.3758
N3_7 N 0.90716(15) 0.97324(17) 0.7094(4)
H15_7 H 0.9186 0.9455 0.7495
O5_8 O 0.87995(13) 0.94419(13) 0.3481(3)
O7_7 O 0.9136(4) 0.8102(3) 0.6652(7)
O8_7 O 0.89291(17) 0.88419(17) 0.5782(4)
Tb2_7 Tb 0.936610(9) 0.958091(9) 0.50685(2)
H2_7 H 0.8531 0.2905 0.0562
C3_7 C 0.7908(2) 0.3525(2) 0.1388(4)
H3_7 H 0.7715 0.3214 0.1207
H4_7 H 0.8102 0.3459 0.2068
C4_7 C 0.75382(18) 0.39642(19) 0.1581(4)
N1_7 N 0.82707(15) 0.36407(15) 0.0476(3)
H13_7 H 0.8532 0.3834 0.0769
O3_4 O 0.74982(12) 0.43050(12) 0.0803(3)
O4_4 O 0.72651(14) 0.39946(15) 0.2421(3)
O6_4 O 0.64973(13) 0.39052(13) 0.0567(3)
Tb4_3 Tb 0.669183(8) 0.468038(8) 0.150494(19)
C1_8 C 0.81902(18) 0.29680(18) 0.9025(4)
C2_8 C 0.85057(19) 0.31703(19) 0.9991(4)
H1_8 H 0.8853 0.3249 0.9736
C5_9 C 0.65544(19) 0.36733(19) 0.9669(4)
C6_9 C 0.6095(2) 0.3348(2) 0.9289(6)
H5_9 H 0.5827 0.3580 0.9015
H6_9 H 0.5955 0.3168 0.9934
C7_9 C 0.5799(2) 0.2951(3) 0.7542(6)
H7_8 H 0.5780 0.2607 0.7220
H8_9 H 0.5466 0.3032 0.7871
C8_8 C 0.5922(3) 0.3335(4) 0.6651(8)
C9_9 C 0.75077(18) 0.42328(19) 0.6303(4)
C10_8 C 0.7229(2) 0.3998(2) 0.5319(5)
H9_6 H 0.7398 0.4103 0.4631
H10_8 H 0.6874 0.4122 0.5300
C11_7 C 0.7685(3) 0.3200(2) 0.4895(5)
H11_7 H 0.7610 0.3126 0.4117
H12_7 H 0.7966 0.3449 0.4915
C12_9 C 0.7857(2) 0.2711(2) 0.5461(5)
N2_9 N 0.62056(17) 0.29636(19) 0.8416(4)
H14_9 H 0.6220 0.2646 0.8742
N3_8 N 0.72324(17) 0.34284(15) 0.5406(4)
H15_8 H 0.6955 0.3314 0.5005
O1_8 O 0.78376(12) 0.32570(12) 0.8642(3)
O5_9 O 0.69419(13) 0.37005(13) 0.9019(3)
O7_8 O 0.5602(3) 0.3364(4) 0.5848(7)
O8_8 O 0.63419(17) 0.35709(17) 0.6718(4)
O9_9 O 0.75141(13) 0.39628(13) 0.7195(3)
O10_5 O 0.76941(13) 0.46679(13) 0.6214(3)
O11_7 O 0.8074(2) 0.2374(2) 0.4918(4)
Tb1_5 Tb 0.781962(8) 0.419183(8) 0.900494(19)
O14_5 O 0.81950(12) 0.49982(12) 0.8303(3)
O15_5 O 0.85054(15) 0.47651(14) 0.9921(3)
O16_5 O 0.85948(13) 0.39973(13) 0.8067(3)
O17_5 O 0.71679(13) 0.48059(13) 0.8714(3)
Tb3_2 Tb 0.830817(8) 0.531962(8) 0.650494(19)
C1_9 C 0.68098(18) 0.70320(18) 0.4025(4)
C2_9 C 0.64943(19) 0.68297(19) 0.4991(4)
H1_9 H 0.6147 0.6751 0.4736
H2_8 H 0.6469 0.7095 0.5562
C3_8 C 0.7092(2) 0.6475(2) 0.6388(4)
H3_8 H 0.7285 0.6786 0.6207
H4_8 H 0.6898 0.6541 0.7068
C4_8 C 0.74618(18) 0.60358(19) 0.6581(4)
C5_10 C 0.84456(19) 0.63267(19) 0.4669(4)
C6_10 C 0.8905(2) 0.6652(2) 0.4289(6)
H5_10 H 0.9173 0.6420 0.4015
H6_10 H 0.9045 0.6832 0.4934
C7_10 C 0.9201(2) 0.7049(3) 0.2542(6)
H7_9 H 0.9220 0.7393 0.2220
H8_10 H 0.9534 0.6968 0.2871
C8_9 C 0.9078(3) 0.6665(4) 0.1651(8)
C9_10 C 0.74923(18) 0.57672(19) 0.1303(4)
C10_9 C 0.7771(2) 0.6002(2) 0.0319(5)
H10_9 H 0.8126 0.5878 0.0300
C12_10 C 0.7143(2) 0.7289(2) 0.0461(5)
N1_8 N 0.67293(15) 0.63593(15) 0.5476(3)
H13_8 H 0.6468 0.6166 0.5769
N2_10 N 0.87944(17) 0.70364(19) 0.3416(4)
H14_10 H 0.8780 0.7354 0.3742
N3_9 N 0.77676(17) 0.65716(15) 0.0406(4)
H15_9 H 0.8045 0.6686 0.0005
O1_9 O 0.71624(12) 0.67430(12) 0.3642(3)
O3_5 O 0.75018(12) 0.56950(12) 0.5803(3)
O4_5 O 0.77349(14) 0.60054(15) 0.7421(3)
O5_10 O 0.80581(13) 0.62995(13) 0.4019(3)
O6_5 O 0.85027(13) 0.60948(13) 0.5567(3)
O7_9 O 0.9398(3) 0.6636(4) 0.0848(7)
O8_9 O 0.86581(17) 0.64291(17) 0.1718(4)
O9_10 O 0.74859(13) 0.60372(13) 0.2195(3)
O10_6 O 0.73059(13) 0.53321(13) 0.1214(3)
Tb1_6 Tb 0.718038(8) 0.580817(8) 0.400494(19)
O14_6 O 0.68050(12) 0.50018(12) 0.3303(3)
O15_6 O 0.64946(15) 0.52349(14) 0.4921(3)
O16_6 O 0.64052(13) 0.60027(13) 0.3067(3)
O17_6 O 0.78321(13) 0.51941(13) 0.3714(3)
O11_8 O 0.0126(2) 0.5574(2) 0.2418(4)
C1_10 C 0.95320(18) 0.56902(18) 0.6525(4)
C2_10 C 0.93297(19) 0.60057(19) 0.7491(4)
H1_10 H 0.9251 0.6353 0.7236
H2_9 H 0.9595 0.6031 0.8062
C3_9 C 0.8975(2) 0.5408(2) 0.8888(4)
H3_9 H 0.9286 0.5215 0.8707
H4_9 H 0.9041 0.5602 0.9568
C4_9 C 0.85358(19) 0.50382(18) 0.9081(4)
C5_11 C 0.88267(19) 0.40544(19) 0.7169(4)
C6_11 C 0.9152(2) 0.3595(2) 0.6789(6)
H5_11 H 0.8920 0.3327 0.6515
H6_11 H 0.9332 0.3455 0.7434
C7_11 C 0.9549(3) 0.3299(2) 0.5042(6)
H7_10 H 0.9893 0.3280 0.4720
H8_11 H 0.9468 0.2966 0.5371
C8_10 C 0.9165(4) 0.3422(3) 0.4151(8)
C9_11 C 0.82672(19) 0.50077(18) 0.3803(4)
C10_10 C 0.8502(2) 0.4729(2) 0.2819(5)
H9_7 H 0.8397 0.4898 0.2131
H10_10 H 0.8378 0.4374 0.2800
C11_8 C 0.9300(2) 0.5185(3) 0.2395(5)
H11_8 H 0.9374 0.5110 0.1617
H12_8 H 0.9051 0.5466 0.2415
C12_11 C 0.9789(2) 0.5357(2) 0.2961(5)
N1_9 N 0.88593(15) 0.57707(15) 0.7976(3)
H13_9 H 0.8666 0.6032 0.8269
N2_11 N 0.95364(19) 0.37056(17) 0.5916(4)
H14_11 H 0.9854 0.3720 0.6242
N3_10 N 0.90716(15) 0.47324(17) 0.2906(4)
H15_10 H 0.9186 0.4455 0.2505
O1_10 O 0.92430(12) 0.53376(12) 0.6142(3)
O5_11 O 0.87995(13) 0.44419(13) 0.6519(3)
O7_10 O 0.9136(4) 0.3102(3) 0.3348(7)
O8_10 O 0.89291(17) 0.38419(17) 0.4218(4)
O9_11 O 0.85372(13) 0.50141(13) 0.4695(3)
C1_11 C 0.54680(18) 0.43098(18) 0.1525(4)
C2_11 C 0.56703(19) 0.39943(19) 0.2491(4)
H1_11 H 0.5749 0.3647 0.2236
H2_10 H 0.5405 0.3969 0.3062
C3_10 C 0.6025(2) 0.4592(2) 0.3888(4)
H3_10 H 0.5714 0.4785 0.3707
H4_10 H 0.5959 0.4398 0.4568
C4_10 C 0.64642(19) 0.49618(18) 0.4081(4)
C5_12 C 0.61733(19) 0.59456(19) 0.2169(4)
C6_12 C 0.5848(2) 0.6405(2) 0.1789(6)
H5_12 H 0.6080 0.6673 0.1515
H6_12 H 0.5668 0.6545 0.2434
C7_12 C 0.5451(3) 0.6701(2) 0.0042(6)
H8_12 H 0.5532 0.7034 0.0371
N1_10 N 0.61407(15) 0.42293(15) 0.2976(3)
H13_10 H 0.6334 0.3968 0.3269
N2_12 N 0.54636(19) 0.62944(17) 0.0916(4)
H14_12 H 0.5146 0.6280 0.1242
O1_11 O 0.57570(12) 0.46624(12) 0.1142(3)
O5_12 O 0.62005(13) 0.55581(13) 0.1519(3)
H7_11 H 0.5107 0.6720 0.9720
C8_11 C 0.5835(4) 0.6578(3) 0.9151(8)
C9_12 C 0.67328(19) 0.49923(18) 0.8803(4)
C10_11 C 0.6498(2) 0.5271(2) 0.7819(5)
H9_8 H 0.6603 0.5102 0.7131
H10_11 H 0.6622 0.5626 0.7800
C11_9 C 0.5700(2) 0.4815(3) 0.7395(5)
H11_9 H 0.5626 0.4890 0.6617
H12_9 H 0.5949 0.4534 0.7415
C12_12 C 0.5211(2) 0.4643(2) 0.7961(5)
N3_11 N 0.59284(15) 0.52676(17) 0.7906(4)
H15_11 H 0.5814 0.5545 0.7505
O7_11 O 0.5864(4) 0.6898(3) 0.8348(7)
O8_11 O 0.60709(17) 0.61581(17) 0.9218(4)
O9_12 O 0.64628(13) 0.49859(13) 0.9695(3)
O11_9 O 0.4874(2) 0.4426(2) 0.7418(4)
C1_12 C 0.31902(18) 0.79680(18) 0.4025(4)
C2_12 C 0.35057(19) 0.81703(19) 0.4991(4)
H1_12 H 0.3853 0.8249 0.4736
H2_11 H 0.3531 0.7905 0.5562
C3_11 C 0.2908(2) 0.8525(2) 0.6388(4)
H3_11 H 0.2715 0.8214 0.6207
H4_11 H 0.3102 0.8459 0.7068
C4_11 C 0.25382(18) 0.89642(19) 0.6581(4)
C5_13 C 0.15544(19) 0.86733(19) 0.4669(4)
C6_13 C 0.1095(2) 0.8348(2) 0.4289(6)
H5_13 H 0.0827 0.8580 0.4015
H6_13 H 0.0955 0.8168 0.4934
C7_13 C 0.0799(2) 0.7951(3) 0.2542(6)
H7_12 H 0.0780 0.7607 0.2220
H8_13 H 0.0466 0.8032 0.2871
C8_12 C 0.0922(3) 0.8335(4) 0.1651(8)
C9_13 C 0.25077(18) 0.92328(19) 0.1303(4)
C10_12 C 0.2229(2) 0.8998(2) 0.0319(5)
H10_12 H 0.1874 0.9122 0.0300
C12_13 C 0.2857(2) 0.7711(2) 0.0461(5)
N1_11 N 0.32707(15) 0.86407(15) 0.5476(3)
H13_11 H 0.3532 0.8834 0.5769
N2_13 N 0.12056(17) 0.79636(19) 0.3416(4)
H14_13 H 0.1220 0.7646 0.3742
N3_12 N 0.22324(17) 0.84284(15) 0.0406(4)
H15_12 H 0.1955 0.8314 0.0005
O1_12 O 0.28376(12) 0.82570(12) 0.3642(3)
O3_6 O 0.24982(12) 0.93050(12) 0.5803(3)
O4_6 O 0.22651(14) 0.89946(15) 0.7421(3)
O5_13 O 0.19419(13) 0.87005(13) 0.4019(3)
O6_6 O 0.14973(13) 0.89052(13) 0.5567(3)
O7_12 O 0.0602(3) 0.8364(4) 0.0848(7)
O8_12 O 0.13419(17) 0.85709(17) 0.1718(4)
O9_13 O 0.25141(13) 0.89628(13) 0.2195(3)
O10_7 O 0.26941(13) 0.96679(13) 0.1214(3)
Tb1_7 Tb 0.281962(8) 0.919183(8) 0.400494(19)
O14_7 O 0.31950(12) 0.99982(12) 0.3303(3)
O15_7 O 0.35054(15) 0.97651(14) 0.4921(3)
O16_7 O 0.35948(13) 0.89973(13) 0.3067(3)
O17_7 O 0.21679(13) 0.98059(13) 0.3714(3)
Tb4_4 Tb 0.169183(8) 0.968038(8) 0.650494(19)
C1_13 C 0.18098(18) 0.20320(18) 0.9025(4)
C2_13 C 0.14943(19) 0.18297(19) 0.9991(4)
H1_13 H 0.1147 0.1751 0.9736
C5_14 C 0.34456(19) 0.13267(19) 0.9669(4)
C6_14 C 0.3905(2) 0.1652(2) 0.9289(6)
H5_14 H 0.4173 0.1420 0.9015
H6_14 H 0.4045 0.1832 0.9934
C7_14 C 0.4201(2) 0.2049(3) 0.7542(6)
H7_13 H 0.4220 0.2393 0.7220
H8_14 H 0.4534 0.1968 0.7871
C8_13 C 0.4078(3) 0.1665(4) 0.6651(8)
C9_14 C 0.24923(18) 0.07672(19) 0.6303(4)
C10_13 C 0.2771(2) 0.1002(2) 0.5319(5)
H9_9 H 0.2602 0.0897 0.4631
H10_13 H 0.3126 0.0878 0.5300
C11_10 C 0.2315(3) 0.1800(2) 0.4895(5)
H11_10 H 0.2390 0.1874 0.4117
H12_10 H 0.2034 0.1551 0.4915
C12_14 C 0.2143(2) 0.2289(2) 0.5461(5)
N2_14 N 0.37944(17) 0.20364(19) 0.8416(4)
H14_14 H 0.3780 0.2354 0.8742
N3_13 N 0.27676(17) 0.15716(15) 0.5406(4)
H15_13 H 0.3045 0.1686 0.5005
O1_13 O 0.21624(12) 0.17430(12) 0.8642(3)
O5_14 O 0.30581(13) 0.12995(13) 0.9019(3)
O7_13 O 0.4398(3) 0.1636(4) 0.5848(7)
O8_13 O 0.36581(17) 0.14291(17) 0.6718(4)
O9_14 O 0.24859(13) 0.10372(13) 0.7195(3)
O10_8 O 0.23059(13) 0.03321(13) 0.6214(3)
O11_10 O 0.1926(2) 0.2626(2) 0.4918(4)
Tb1_8 Tb 0.218038(8) 0.080817(8) 0.900494(19)
O14_8 O 0.18050(12) 0.00018(12) 0.8303(3)
O15_8 O 0.14946(15) 0.02349(14) 0.9921(3)
O16_8 O 0.14052(13) 0.10027(13) 0.8067(3)
O17_8 O 0.28321(13) 0.01941(13) 0.8714(3)
C9_15 C 0.32672(19) 0.00077(18) 0.8803(4)
C11_11 C 0.4300(2) 0.0185(3) 0.7395(5)
H11_11 H 0.4374 0.0110 0.6617
H12_11 H 0.4051 0.0466 0.7415
C12_15 C 0.4789(2) 0.0357(2) 0.7961(5)
O9_15 O 0.35372(13) 0.00141(13) 0.9695(3)
O11_11 O 0.5126(2) 0.0574(2) 0.7418(4)
C5_15 C 0.38267(19) 0.90544(19) 0.2169(4)
C6_15 C 0.4152(2) 0.8595(2) 0.1789(6)
H5_15 H 0.3920 0.8327 0.1515
H6_15 H 0.4332 0.8455 0.2434
C7_15 C 0.4549(3) 0.8299(2) 0.0042(6)
H8_15 H 0.4468 0.7966 0.0371
N2_15 N 0.45364(19) 0.87056(17) 0.0916(4)
H14_15 H 0.4854 0.8720 0.1242
O5_15 O 0.37995(13) 0.94419(13) 0.1519(3)
C5_16 C 0.11733(19) 0.09456(19) 0.7169(4)
C6_16 C 0.0848(2) 0.1405(2) 0.6789(6)
H5_16 H 0.1080 0.1673 0.6515
H6_16 H 0.0668 0.1545 0.7434
C7_16 C 0.0451(3) 0.1701(2) 0.5042(6)
H7_14 H 0.0107 0.1720 0.4720
H8_16 H 0.0532 0.2034 0.5371
C8_14 C 0.0835(4) 0.1578(3) 0.4151(8)
C10_14 C 0.1498(2) 0.0271(2) 0.2819(5)
H9_10 H 0.1603 0.0102 0.2131
H10_14 H 0.1622 0.0626 0.2800
N2_16 N 0.04636(19) 0.12944(17) 0.5916(4)
H14_16 H 0.0146 0.1280 0.6242
N3_14 N 0.09284(15) 0.02676(17) 0.2906(4)
H15_14 H 0.0814 0.0545 0.2505
O5_16 O 0.12005(13) 0.05581(13) 0.6519(3)
O7_14 O 0.0864(4) 0.1898(3) 0.3348(7)
O8_14 O 0.10709(17) 0.11581(17) 0.4218(4)
C1_14 C 0.04680(18) 0.93098(18) 0.6525(4)
C2_14 C 0.06703(19) 0.89943(19) 0.7491(4)
H1_14 H 0.0749 0.8647 0.7236
H2_12 H 0.0405 0.8969 0.8062
C3_12 C 0.1025(2) 0.9592(2) 0.8888(4)
H3_12 H 0.0714 0.9785 0.8707
H4_12 H 0.0959 0.9398 0.9568
C4_12 C 0.14642(19) 0.99618(18) 0.9081(4)
C9_16 C 0.17328(19) 0.99923(18) 0.3803(4)
C11_12 C 0.0700(2) 0.9815(3) 0.2395(5)
H11_12 H 0.0626 0.9890 0.1617
H12_12 H 0.0949 0.9534 0.2415
C12_16 C 0.0211(2) 0.9643(2) 0.2961(5)
N1_12 N 0.11407(15) 0.92293(15) 0.7976(3)
H13_12 H 0.1334 0.8968 0.8269
O1_14 O 0.07570(12) 0.96624(12) 0.6142(3)
O9_16 O 0.14628(13) 0.99859(13) 0.4695(3)
O11_12 O 0.9874(2) 0.9426(2) 0.2418(4)
H9_11 H 0.2398 0.4103 0.0369
C11_13 C 0.2685(3) 0.3200(2) 0.0105(5)
H11_13 H 0.2610 0.3126 0.0883
H12_13 H 0.2966 0.3449 0.0085
O11_13 O 0.3074(2) 0.2374(2) 0.0082(4)
H9_12 H 0.7602 0.0897 0.0369
C11_14 C 0.7315(3) 0.1800(2) 0.0105(5)
H11_14 H 0.7390 0.1874 0.0883
H12_14 H 0.7034 0.1551 0.0085
O11_14 O 0.6926(2) 0.2626(2) 0.0082(4)
Tb3_3 Tb 0.669183(8) 0.968038(8) 0.849506(19)
H2_13 H 0.8531 0.7905 0.9438
C3_13 C 0.7908(2) 0.8525(2) 0.8612(4)
H3_13 H 0.7715 0.8214 0.8793
H4_13 H 0.8102 0.8459 0.7932
C4_13 C 0.75382(18) 0.89642(19) 0.8419(4)
N1_13 N 0.82707(15) 0.86407(15) 0.9524(3)
H13_13 H 0.8532 0.8834 0.9231
O3_7 O 0.74982(12) 0.93050(12) 0.9197(3)
O4_7 O 0.72651(14) 0.89946(15) 0.7579(3)
O6_7 O 0.64973(13) 0.89052(13) 0.9433(3)
C1_15 C 0.54680(18) 0.93098(18) 0.8475(4)
C2_15 C 0.56703(19) 0.89943(19) 0.7509(4)
H1_15 H 0.5749 0.8647 0.7764
H2_14 H 0.5405 0.8969 0.6938
C3_14 C 0.6025(2) 0.9592(2) 0.6112(4)
H3_14 H 0.5714 0.9785 0.6293
H4_14 H 0.5959 0.9398 0.5432
C4_14 C 0.64642(19) 0.99618(18) 0.5919(4)
N1_14 N 0.61407(15) 0.92293(15) 0.7024(3)
H13_14 H 0.6334 0.8968 0.6731
O1_15 O 0.57570(12) 0.96624(12) 0.8858(3)
O2_8 O 0.50267(13) 0.91950(13) 0.8840(3)
Tb5_8 Tb 0.436610(9) 0.958091(9) 0.99315(2)
H7_15 H 0.4893 0.8280 0.9720
C8_15 C 0.4165(4) 0.8422(3) 0.9151(8)
C10_15 C 0.3502(2) 0.9729(2) 0.7819(5)
H9_13 H 0.3397 0.9898 0.7131
H10_15 H 0.3378 0.9374 0.7800
N3_15 N 0.40716(15) 0.97324(17) 0.7906(4)
H15_15 H 0.4186 0.9455 0.7505
O7_15 O 0.4136(4) 0.8102(3) 0.8348(7)
O8_15 O 0.39291(17) 0.88419(17) 0.9218(4)
H7_16 H 0.5107 0.1720 0.0280
C8_16 C 0.5835(4) 0.1578(3) 0.0849(8)
C10_16 C 0.6498(2) 0.0271(2) 0.2181(5)
H9_14 H 0.6603 0.0102 0.2869
H10_16 H 0.6622 0.0626 0.2200
N3_16 N 0.59284(15) 0.02676(17) 0.2094(4)
H15_16 H 0.5814 0.0545 0.2495
O7_16 O 0.5864(4) 0.1898(3) 0.1652(7)
O8_16 O 0.60709(17) 0.11581(17) 0.0782(4)
Tb2_8 Tb 0.563390(9) 0.041909(9) 0.00685(2)
O13_8 O 0.49733(13) 0.08050(13) 0.1160(3)
Tb3_4 Tb 0.330817(8) 0.031962(8) 0.150494(19)
H2_15 H 0.1469 0.2095 0.0562
C3_15 C 0.2092(2) 0.1475(2) 0.1388(4)
H3_15 H 0.2285 0.1786 0.1207
H4_15 H 0.1898 0.1541 0.2068
C4_15 C 0.24618(18) 0.10358(19) 0.1581(4)
N1_15 N 0.17293(15) 0.13593(15) 0.0476(3)
H13_15 H 0.1468 0.1166 0.0769
O3_8 O 0.25018(12) 0.06950(12) 0.0803(3)
O4_8 O 0.27349(14) 0.10054(15) 0.2421(3)
O6_8 O 0.35027(13) 0.10948(13) 0.0567(3)
C1_16 C 0.45320(18) 0.06902(18) 0.1525(4)
C2_16 C 0.43297(19) 0.10057(19) 0.2491(4)
H1_16 H 0.4251 0.1353 0.2236
H2_16 H 0.4595 0.1031 0.3062
C3_16 C 0.3975(2) 0.0408(2) 0.3888(4)
H3_16 H 0.4286 0.0215 0.3707
H4_16 H 0.4041 0.0602 0.4568
C4_16 C 0.35358(19) 0.00382(18) 0.4081(4)
N1_16 N 0.38593(15) 0.07707(15) 0.2976(3)
H13_16 H 0.3666 0.1032 0.3269
O1_16 O 0.42430(12) 0.03376(12) 0.1142(3)
H9_15 H 0.7602 0.5897 0.9631
C11_15 C 0.7315(3) 0.6800(2) 0.9895(5)
H11_15 H 0.7390 0.6874 0.9117
H12_15 H 0.7034 0.6551 0.9915
O11_15 O 0.6926(2) 0.7626(2) 0.9918(4)
H9_16 H 0.2398 0.9103 0.9631
C11_16 C 0.2685(3) 0.8200(2) 0.9895(5)
H11_16 H 0.2610 0.8126 0.9117
H12_16 H 0.2966 0.8449 0.9915
O11_16 O 0.3074(2) 0.7374(2) 0.9918(4)
loop_
_geom_bond_atom_site_label_1
_geom_bond_atom_site_label_2
_geom_bond_site_symmetry_1
_geom_bond_site_symmetry_2
C1 C2 1_555 1_555
C2 H1 1_555 1_555
C5 C6 1_555 1_555
C6 H5 1_555 1_555
H6 C6 1_555 1_555
C7 H7 1_555 1_555
H8 C7 1_555 1_555
C8 C7 1_555 1_555
C9 C10 1_555 1_555
C10 H9 1_555 1_555
H10 C10 1_555 1_555
C11 H11 1_555 1_555
H12 C11 1_555 1_555
C12 C11 1_555 1_555
N2 C6 1_555 1_555
H14 N2 1_555 1_555
N3 C10 1_555 1_555
H15 N3 1_555 1_555
O1 C1 1_555 1_555
O2 C1 1_555 1_555
O5 C5 1_555 1_555
O7 C8 1_555 1_555
O8 C8 1_555 1_555
O9 C9 1_555 1_555
O10 C9 1_555 1_555
O11 C12 1_555 1_555
O12 C12 1_555 1_555
Tb2 N2 1_555 1_555
O13 Tb2 1_555 1_555
O14 Tb1 1_555 1_555
O15 Tb1 1_555 1_555
O16 Tb1 1_555 1_555
O17 Tb1 1_555 1_555
O18 Tb2 1_555 1_555
Tb3 O10 1_555 1_555
Tb5 O2 1_555 1_555
C7 N2 1_555 1_555
C11 N3 1_555 1_555
N3 Tb2 1_555 1_555
O1 Tb1 1_555 1_555
O1 Tb2 1_555 1_555
O5 Tb1 1_555 1_555
O5 Tb2 1_555 1_555
O8 Tb2 1_555 1_555
O9 Tb1 1_555 1_555
O9 Tb2 1_555 1_555
O12 Tb2 1_555 1_555
O12 Tb5 1_555 1_555
O14 Tb3 1_555 1_555
O18 Tb5 1_555 1_555
C3 H3 1_555 1_555
H4 C3 1_555 1_555
C4 C3 1_555 1_555
H13 N1 1_555 1_555
O3 C4 1_555 1_555
O4 C4 1_555 1_555
Tb4 O3 1_555 1_555
C3 N1 1_555 1_555
O4 Tb4 1_555 1_555
O6 Tb4 1_555 1_555
C1_2 C2_2 1_555 1_555
C2_2 H1_2 1_555 1_555
H2_2 C2_2 1_555 1_555
C3_2 H3_2 1_555 1_555
H4_2 C3_2 1_555 1_555
C4_2 C3_2 1_555 1_555
C5_2 C6_2 1_555 1_555
C6_2 H5_2 1_555 1_555
H6_2 C6_2 1_555 1_555
C7_2 H7_2 1_555 1_555
H8_2 C7_2 1_555 1_555
C8_2 C7_2 1_555 1_555
C9_2 C10_2 1_555 1_555
H10_2 C10_2 1_555 1_555
N1_2 C2_2 1_555 1_555
H13_2 N1_2 1_555 1_555
N2_2 C6_2 1_555 1_555
H14_2 N2_2 1_555 1_555
N3_2 C10_2 1_555 1_555
H15_2 N3_2 1_555 1_555
O1_2 C1_2 1_555 1_555
O2_2 C1_2 1_555 1_555
O3_2 C4_2 1_555 1_555
O4_2 C4_2 1_555 1_555
O5_2 C5_2 1_555 1_555
O6_2 C5_2 1_555 1_555
O7_2 C8_2 1_555 1_555
O8_2 C8_2 1_555 1_555
O9_2 C9_2 1_555 1_555
O10_2 C9_2 1_555 1_555
O12_2 C12_2 1_555 1_555
Tb1_2 N1_2 1_555 1_555
Tb2_2 N2_2 1_555 1_555
O13_2 Tb2_2 1_555 1_555
O14_2 Tb1_2 1_555 1_555
O15_2 Tb1_2 1_555 1_555
O16_2 Tb1_2 1_555 1_555
O17_2 Tb1_2 1_555 1_555
O18_2 Tb2_2 1_555 1_555
Tb4 O10_2 1_555 1_555
Tb3 O3_2 1_555 1_555
Tb5_2 O2_2 1_555 1_555
C3_2 N1_2 1_555 1_555
C7_2 N2_2 1_555 1_555
N3_2 Tb2_2 1_555 1_555
O1_2 Tb1_2 1_555 1_555
O1_2 Tb2_2 1_555 1_555
O3_2 Tb1_2 1_555 1_555
O4_2 Tb3 1_555 1_555
O5_2 Tb1_2 1_555 1_555
O5_2 Tb2_2 1_555 1_555
O6_2 Tb3 1_555 1_555
O8_2 Tb2_2 1_555 1_555
O9_2 Tb1_2 1_555 1_555
O9_2 Tb2_2 1_555 1_555
O12_2 Tb2_2 1_555 1_555
O12_2 Tb5_2 1_555 1_555
O14_2 Tb4 1_555 1_555
O18_2 Tb5_2 1_555 1_555
C1_3 C2_3 1_555 1_555
C2_3 H1_3 1_555 1_555
H2_3 C2_3 1_555 1_555
C3_3 H3_3 1_555 1_555
H4_3 C3_3 1_555 1_555
C4_3 C3_3 1_555 1_555
C5_3 C6_3 1_555 1_555
C6_3 H5_3 1_555 1_555
H6_3 C6_3 1_555 1_555
C7_3 H7_3 1_555 1_555
H8_3 C7_3 1_555 1_555
C8_3 C7_3 1_555 1_555
C9_3 C10_3 1_555 1_555
C10_3 H9_2 1_555 1_555
H10_3 C10_3 1_555 1_555
C11_2 H11_2 1_555 1_555
H12_2 C11_2 1_555 1_555
C12_3 C11_2 1_555 1_555
N1_3 C2_3 1_555 1_555
H13_3 N1_3 1_555 1_555
N2_3 C6_3 1_555 1_555
H14_3 N2_3 1_555 1_555
N3_3 C10_3 1_555 1_555
H15_3 N3_3 1_555 1_555
O1_3 C1_3 1_555 1_555
O2_3 C1_3 1_555 1_555
O14 C4_3 1_555 1_555
O15 C4_3 1_555 1_555
O5_3 C5_3 1_555 1_555
O16 C5_3 1_555 1_555
O7_3 C8_3 1_555 1_555
O8_3 C8_3 1_555 1_555
O9_3 C9_3 1_555 1_555
O17_2 C9_3 1_555 1_555
O12_3 C12_3 1_555 1_555
Tb3 N1_3 1_555 1_555
Tb2_3 N2_3 1_555 1_555
C3_3 N1_3 1_555 1_555
C7_3 N2_3 1_555 1_555
C11_2 N3_3 1_555 1_555
N3_3 Tb2_3 1_555 1_555
O1_3 Tb3 1_555 1_555
O1_3 Tb2_3 1_555 1_555
O5_3 Tb3 1_555 1_555
O5_3 Tb2_3 1_555 1_555
O8_3 Tb2_3 1_555 1_555
O9_3 Tb3 1_555 1_555
O9_3 Tb2_3 1_555 1_555
O12_3 Tb2_3 1_555 1_555
O18_3 Tb5_3 1_555 1_555
C9_4 C10_4 1_555 1_555
C10_4 H9_3 1_555 1_555
H10_4 C10_4 1_555 1_555
C11_3 H11_3 1_555 1_555
H12_3 C11_3 1_555 1_555
C12_4 C11_3 1_555 1_555
N3_4 C10_4 1_555 1_555
H15_4 N3_4 1_555 1_555
O7_4 C8_4 1_555 1_555
O8_4 C8_4 1_555 1_555
O9_4 C9_4 1_555 1_555
O17 C9_4 1_555 1_555
O11_3 C12_4 1_555 1_555
O12_4 C12_4 1_555 1_555
O13_4 Tb2_4 1_555 1_555
C11_3 N3_4 1_555 1_555
N3_4 Tb2_4 1_555 1_555
O8_4 Tb2_4 1_555 1_555
O9_4 Tb2_4 1_555 1_555
O12_4 Tb2_4 1_555 1_555
C1_4 C2_4 1_555 1_555
C2_4 H1_4 1_555 1_555
H2_4 C2_4 1_555 1_555
C3_4 H3_4 1_555 1_555
H4_4 C3_4 1_555 1_555
C4_4 C3_4 1_555 1_555
C5_4 C6_4 1_555 1_555
C6_4 H5_4 1_555 1_555
H6_4 C6_4 1_555 1_555
H8_4 C7_4 1_555 1_555
N1_4 C2_4 1_555 1_555
H13_4 N1_4 1_555 1_555
N2_4 C6_4 1_555 1_555
H14_4 N2_4 1_555 1_555
O1_4 C1_4 1_555 1_555
O2_4 C1_4 1_555 1_555
O14_2 C4_4 1_555 1_555
O15_2 C4_4 1_555 1_555
O5_4 C5_4 1_555 1_555
O16_2 C5_4 1_555 1_555
Tb4 N1_4 1_555 1_555
Tb5_4 O2_4 1_555 1_555
C3_4 N1_4 1_555 1_555
C7_4 N2_4 1_555 1_555
O1_4 Tb4 1_555 1_555
O5_4 Tb4 1_555 1_555
O18_4 Tb5_4 1_555 1_555
C1_5 C2_5 1_555 1_555
C2_5 H1_5 1_555 1_555
H2_5 C2_5 1_555 1_555
C3_5 H3_5 1_555 1_555
H4_5 C3_5 1_555 1_555
C4_5 C3_5 1_555 1_555
C5_5 C6_5 1_555 1_555
C6_5 H5_5 1_555 1_555
H6_5 C6_5 1_555 1_555
C7_5 H7_5 1_555 1_555
H8_5 C7_5 1_555 1_555
C8_5 C7_5 1_555 1_555
C9_5 C10_5 1_555 1_555
H10_5 C10_5 1_555 1_555
N1_5 C2_5 1_555 1_555
H13_5 N1_5 1_555 1_555
N2_5 C6_5 1_555 1_555
H14_5 N2_5 1_555 1_555
N3_5 C10_5 1_555 1_555
H15_5 N3_5 1_555 1_555
O1_5 C1_5 1_555 1_555
O2_5 C1_5 1_555 1_555
O3_3 C4_5 1_555 1_555
O4_3 C4_5 1_555 1_555
O5_5 C5_5 1_555 1_555
O6_3 C5_5 1_555 1_555
O7_5 C8_5 1_555 1_555
O8_5 C8_5 1_555 1_555
O9_5 C9_5 1_555 1_555
O10_3 C9_5 1_555 1_555
O12_5 C12_5 1_555 1_555
Tb1_3 N1_5 1_555 1_555
Tb2_5 N2_5 1_555 1_555
O13_5 Tb2_5 1_555 1_555
O14_3 Tb1_3 1_555 1_555
O15_3 Tb1_3 1_555 1_555
O16_3 Tb1_3 1_555 1_555
O17_3 Tb1_3 1_555 1_555
O18_5 Tb2_5 1_555 1_555
Tb4_2 O3_3 1_555 1_555
Tb5_5 O2_5 1_555 1_555
C3_5 N1_5 1_555 1_555
C7_5 N2_5 1_555 1_555
N3_5 Tb2_5 1_555 1_555
O1_5 Tb1_3 1_555 1_555
O1_5 Tb2_5 1_555 1_555
O3_3 Tb1_3 1_555 1_555
O4_3 Tb4_2 1_555 1_555
O5_5 Tb1_3 1_555 1_555
O5_5 Tb2_5 1_555 1_555
O6_3 Tb4_2 1_555 1_555
O8_5 Tb2_5 1_555 1_555
O9_5 Tb1_3 1_555 1_555
O9_5 Tb2_5 1_555 1_555
O12_5 Tb2_5 1_555 1_555
O12_5 Tb5_5 1_555 1_555
O18_5 Tb5_5 1_555 1_555
C1_6 C2_6 1_555 1_555
C2_6 H1_6 1_555 1_555
C5_6 C6_6 1_555 1_555
C6_6 H5_6 1_555 1_555
H6_6 C6_6 1_555 1_555
C7_6 H7_6 1_555 1_555
H8_6 C7_6 1_555 1_555
C8_6 C7_6 1_555 1_555
C9_6 C10_6 1_555 1_555
C10_6 H9_4 1_555 1_555
H10_6 C10_6 1_555 1_555
C11_4 H11_4 1_555 1_555
H12_4 C11_4 1_555 1_555
C12_6 C11_4 1_555 1_555
N2_6 C6_6 1_555 1_555
H14_6 N2_6 1_555 1_555
N3_6 C10_6 1_555 1_555
H15_6 N3_6 1_555 1_555
O1_6 C1_6 1_555 1_555
O2_6 C1_6 1_555 1_555
O5_6 C5_6 1_555 1_555
O7_6 C8_6 1_555 1_555
O8_6 C8_6 1_555 1_555
O9_6 C9_6 1_555 1_555
O10_4 C9_6 1_555 1_555
O11_4 C12_6 1_555 1_555
O12_6 C12_6 1_555 1_555
Tb2_6 N2_6 1_555 1_555
O13_6 Tb2_6 1_555 1_555
O14_4 Tb1_4 1_555 1_555
O15_4 Tb1_4 1_555 1_555
O16_4 Tb1_4 1_555 1_555
O17_4 Tb1_4 1_555 1_555
O18_6 Tb2_6 1_555 1_555
Tb5_6 O2_6 1_555 1_555
C7_6 N2_6 1_555 1_555
C11_4 N3_6 1_555 1_555
N3_6 Tb2_6 1_555 1_555
O1_6 Tb1_4 1_555 1_555
O1_6 Tb2_6 1_555 1_555
O5_6 Tb1_4 1_555 1_555
O5_6 Tb2_6 1_555 1_555
O8_6 Tb2_6 1_555 1_555
O9_6 Tb1_4 1_555 1_555
O9_6 Tb2_6 1_555 1_555
O12_6 Tb2_6 1_555 1_555
O12_6 Tb5_6 1_555 1_555
O18_6 Tb5_6 1_555 1_555
C5_7 C6_7 1_555 1_555
C6_7 H5_7 1_555 1_555
H6_7 C6_7 1_555 1_555
H8_7 C7_7 1_555 1_555
N2_7 C6_7 1_555 1_555
H14_7 N2_7 1_555 1_555
O5_7 C5_7 1_555 1_555
O16_3 C5_7 1_555 1_555
C7_7 N2_7 1_555 1_555
C11_5 H11_5 1_555 1_555
H12_5 C11_5 1_555 1_555
C12_7 C11_5 1_555 1_555
O9_7 C9_7 1_555 1_555
O17_4 C9_7 1_555 1_555
O11_5 C12_7 1_555 1_555
O12_7 C12_7 1_555 1_555
C1_7 C2_7 1_555 1_555
C2_7 H1_7 1_555 1_555
H2_6 C2_7 1_555 1_555
C3_6 H3_6 1_555 1_555
H4_6 C3_6 1_555 1_555
C4_6 C3_6 1_555 1_555
C11_6 H11_6 1_555 1_555
H12_6 C11_6 1_555 1_555
C12_8 C11_6 1_555 1_555
N1_6 C2_7 1_555 1_555
H13_6 N1_6 1_555 1_555
O1_7 C1_7 1_555 1_555
O2_7 C1_7 1_555 1_555
O9_8 C9_8 1_555 1_555
O17_3 C9_8 1_555 1_555
O12_8 C12_8 1_555 1_555
Tb4_2 N1_6 1_555 1_555
C3_6 N1_6 1_555 1_555
O1_7 Tb4_2 1_555 1_555
O9_8 Tb4_2 1_555 1_555
C5_8 C6_8 1_555 1_555
C6_8 H5_8 1_555 1_555
H6_8 C6_8 1_555 1_555
C7_8 H7_7 1_555 1_555
H8_8 C7_8 1_555 1_555
C8_7 C7_8 1_555 1_555
C10_7 H9_5 1_555 1_555
H10_7 C10_7 1_555 1_555
N2_8 C6_8 1_555 1_555
H14_8 N2_8 1_555 1_555
N3_7 C10_7 1_555 1_555
H15_7 N3_7 1_555 1_555
O5_8 C5_8 1_555 1_555
O16_4 C5_8 1_555 1_555
O7_7 C8_7 1_555 1_555
O8_7 C8_7 1_555 1_555
Tb2_7 N2_8 1_555 1_555
C7_8 N2_8 1_555 1_555
N3_7 Tb2_7 1_555 1_555
O5_8 Tb2_7 1_555 1_555
O8_7 Tb2_7 1_555 1_555
C3_7 H3_7 1_555 1_555
H4_7 C3_7 1_555 1_555
C4_7 C3_7 1_555 1_555
H13_7 N1_7 1_555 1_555
O3_4 C4_7 1_555 1_555
O4_4 C4_7 1_555 1_555
Tb4_3 O3_4 1_555 1_555
C3_7 N1_7 1_555 1_555
O4_4 Tb4_3 1_555 1_555
O6_4 Tb4_3 1_555 1_555
C1_8 C2_8 1_555 1_555
C2_8 H1_8 1_555 1_555
C5_9 C6_9 1_555 1_555
C6_9 H5_9 1_555 1_555
H6_9 C6_9 1_555 1_555
C7_9 H7_8 1_555 1_555
H8_9 C7_9 1_555 1_555
C8_8 C7_9 1_555 1_555
C9_9 C10_8 1_555 1_555
C10_8 H9_6 1_555 1_555
H10_8 C10_8 1_555 1_555
C11_7 H11_7 1_555 1_555
H12_7 C11_7 1_555 1_555
C12_9 C11_7 1_555 1_555
N2_9 C6_9 1_555 1_555
H14_9 N2_9 1_555 1_555
N3_8 C10_8 1_555 1_555
H15_8 N3_8 1_555 1_555
O1_8 C1_8 1_555 1_555
O13_5 C1_8 1_555 1_555
O5_9 C5_9 1_555 1_555
O7_8 C8_8 1_555 1_555
O8_8 C8_8 1_555 1_555
O9_9 C9_9 1_555 1_555
O10_5 C9_9 1_555 1_555
O11_7 C12_9 1_555 1_555
O18_5 C12_9 1_555 1_555
Tb5_5 N2_9 1_555 1_555
O14_5 Tb1_5 1_555 1_555
O15_5 Tb1_5 1_555 1_555
O16_5 Tb1_5 1_555 1_555
O17_5 Tb1_5 1_555 1_555
Tb3_2 O10_5 1_555 1_555
C7_9 N2_9 1_555 1_555
C11_7 N3_8 1_555 1_555
N3_8 Tb5_5 1_555 1_555
O1_8 Tb1_5 1_555 1_555
O1_8 Tb5_5 1_555 1_555
O5_9 Tb1_5 1_555 1_555
O5_9 Tb5_5 1_555 1_555
O8_8 Tb5_5 1_555 1_555
O9_9 Tb1_5 1_555 1_555
O9_9 Tb5_5 1_555 1_555
O14_5 Tb3_2 1_555 1_555
C1_9 C2_9 1_555 1_555
C2_9 H1_9 1_555 1_555
H2_8 C2_9 1_555 1_555
C3_8 H3_8 1_555 1_555
H4_8 C3_8 1_555 1_555
C4_8 C3_8 1_555 1_555
C5_10 C6_10 1_555 1_555
C6_10 H5_10 1_555 1_555
H6_10 C6_10 1_555 1_555
C7_10 H7_9 1_555 1_555
H8_10 C7_10 1_555 1_555
C8_9 C7_10 1_555 1_555
C9_10 C10_9 1_555 1_555
H10_9 C10_9 1_555 1_555
N1_8 C2_9 1_555 1_555
H13_8 N1_8 1_555 1_555
N2_10 C6_10 1_555 1_555
H14_10 N2_10 1_555 1_555
N3_9 C10_9 1_555 1_555
H15_9 N3_9 1_555 1_555
O1_9 C1_9 1_555 1_555
O13_6 C1_9 1_555 1_555
O3_5 C4_8 1_555 1_555
O4_5 C4_8 1_555 1_555
O5_10 C5_10 1_555 1_555
O6_5 C5_10 1_555 1_555
O7_9 C8_9 1_555 1_555
O8_9 C8_9 1_555 1_555
O9_10 C9_10 1_555 1_555
O10_6 C9_10 1_555 1_555
O18_6 C12_10 1_555 1_555
Tb1_6 N1_8 1_555 1_555
Tb5_6 N2_10 1_555 1_555
O14_6 Tb1_6 1_555 1_555
O15_6 Tb1_6 1_555 1_555
O16_6 Tb1_6 1_555 1_555
O17_6 Tb1_6 1_555 1_555
Tb4_3 O10_6 1_555 1_555
Tb3_2 O3_5 1_555 1_555
C3_8 N1_8 1_555 1_555
C7_10 N2_10 1_555 1_555
N3_9 Tb5_6 1_555 1_555
O1_9 Tb1_6 1_555 1_555
O1_9 Tb5_6 1_555 1_555
O3_5 Tb1_6 1_555 1_555
O4_5 Tb3_2 1_555 1_555
O5_10 Tb1_6 1_555 1_555
O5_10 Tb5_6 1_555 1_555
O6_5 Tb3_2 1_555 1_555
O8_9 Tb5_6 1_555 1_555
O9_10 Tb1_6 1_555 1_555
O9_10 Tb5_6 1_555 1_555
O14_6 Tb4_3 1_555 1_555
C1_10 C2_10 1_555 1_555
C2_10 H1_10 1_555 1_555
H2_9 C2_10 1_555 1_555
C3_9 H3_9 1_555 1_555
H4_9 C3_9 1_555 1_555
C4_9 C3_9 1_555 1_555
C5_11 C6_11 1_555 1_555
C6_11 H5_11 1_555 1_555
H6_11 C6_11 1_555 1_555
C7_11 H7_10 1_555 1_555
H8_11 C7_11 1_555 1_555
C8_10 C7_11 1_555 1_555
C9_11 C10_10 1_555 1_555
C10_10 H9_7 1_555 1_555
H10_10 C10_10 1_555 1_555
C11_8 H11_8 1_555 1_555
H12_8 C11_8 1_555 1_555
C12_11 C11_8 1_555 1_555
N1_9 C2_10 1_555 1_555
H13_9 N1_9 1_555 1_555
N2_11 C6_11 1_555 1_555
H14_11 N2_11 1_555 1_555
N3_10 C10_10 1_555 1_555
H15_10 N3_10 1_555 1_555
O1_10 C1_10 1_555 1_555
O13_3 C1_10 1_555 1_555
O14_5 C4_9 1_555 1_555
O15_5 C4_9 1_555 1_555
O5_11 C5_11 1_555 1_555
O16_5 C5_11 1_555 1_555
O7_10 C8_10 1_555 1_555
O8_10 C8_10 1_555 1_555
O9_11 C9_11 1_555 1_555
O17_6 C9_11 1_555 1_555
O18_3 C12_11 1_555 1_555
Tb3_2 N1_9 1_555 1_555
Tb5_3 N2_11 1_555 1_555
C3_9 N1_9 1_555 1_555
C7_11 N2_11 1_555 1_555
C11_8 N3_10 1_555 1_555
N3_10 Tb5_3 1_555 1_555
O1_10 Tb3_2 1_555 1_555
O1_10 Tb5_3 1_555 1_555
O5_11 Tb3_2 1_555 1_555
O5_11 Tb5_3 1_555 1_555
O8_10 Tb5_3 1_555 1_555
O9_11 Tb3_2 1_555 1_555
O9_11 Tb5_3 1_555 1_555
C1_11 C2_11 1_555 1_555
C2_11 H1_11 1_555 1_555
H2_10 C2_11 1_555 1_555
C3_10 H3_10 1_555 1_555
H4_10 C3_10 1_555 1_555
C4_10 C3_10 1_555 1_555
C5_12 C6_12 1_555 1_555
C6_12 H5_12 1_555 1_555
H6_12 C6_12 1_555 1_555
H8_12 C7_12 1_555 1_555
N1_10 C2_11 1_555 1_555
H13_10 N1_10 1_555 1_555
N2_12 C6_12 1_555 1_555
H14_12 N2_12 1_555 1_555
O1_11 C1_11 1_555 1_555
O13_4 C1_11 1_555 1_555
O14_6 C4_10 1_555 1_555
O15_6 C4_10 1_555 1_555
O5_12 C5_12 1_555 1_555
O16_6 C5_12 1_555 1_555
Tb4_3 N1_10 1_555 1_555
C3_10 N1_10 1_555 1_555
C7_12 N2_12 1_555 1_555
O1_11 Tb4_3 1_555 1_555
O5_12 Tb4_3 1_555 1_555
C9_12 C10_11 1_555 1_555
C10_11 H9_8 1_555 1_555
H10_11 C10_11 1_555 1_555
C11_9 H11_9 1_555 1_555
H12_9 C11_9 1_555 1_555
C12_12 C11_9 1_555 1_555
N3_11 C10_11 1_555 1_555
H15_11 N3_11 1_555 1_555
O7_11 C8_11 1_555 1_555
O8_11 C8_11 1_555 1_555
O9_12 C9_12 1_555 1_555
O17_5 C9_12 1_555 1_555
O11_9 C12_12 1_555 1_555
O18_4 C12_12 1_555 1_555
C11_9 N3_11 1_555 1_555
N3_11 Tb5_4 1_555 1_555
O8_11 Tb5_4 1_555 1_555
O9_12 Tb5_4 1_555 1_555
C1_12 C2_12 1_555 1_555
C2_12 H1_12 1_555 1_555
H2_11 C2_12 1_555 1_555
C3_11 H3_11 1_555 1_555
H4_11 C3_11 1_555 1_555
C4_11 C3_11 1_555 1_555
C5_13 C6_13 1_555 1_555
C6_13 H5_13 1_555 1_555
H6_13 C6_13 1_555 1_555
C7_13 H7_12 1_555 1_555
H8_13 C7_13 1_555 1_555
C8_12 C7_13 1_555 1_555
C9_13 C10_12 1_555 1_555
H10_12 C10_12 1_555 1_555
N1_11 C2_12 1_555 1_555
H13_11 N1_11 1_555 1_555
N2_13 C6_13 1_555 1_555
H14_13 N2_13 1_555 1_555
N3_12 C10_12 1_555 1_555
H15_12 N3_12 1_555 1_555
O1_12 C1_12 1_555 1_555
O13 C1_12 1_555 1_555
O3_6 C4_11 1_555 1_555
O4_6 C4_11 1_555 1_555
O5_13 C5_13 1_555 1_555
O6_6 C5_13 1_555 1_555
O7_12 C8_12 1_555 1_555
O8_12 C8_12 1_555 1_555
O9_13 C9_13 1_555 1_555
O10_7 C9_13 1_555 1_555
O18 C12_13 1_555 1_555
Tb1_7 N1_11 1_555 1_555
Tb5 N2_13 1_555 1_555
O14_7 Tb1_7 1_555 1_555
O15_7 Tb1_7 1_555 1_555
O16_7 Tb1_7 1_555 1_555
O17_7 Tb1_7 1_555 1_555
Tb4_4 O3_6 1_555 1_555
C3_11 N1_11 1_555 1_555
C7_13 N2_13 1_555 1_555
N3_12 Tb5 1_555 1_555
O1_12 Tb1_7 1_555 1_555
O1_12 Tb5 1_555 1_555
O3_6 Tb1_7 1_555 1_555
O4_6 Tb4_4 1_555 1_555
O5_13 Tb1_7 1_555 1_555
O5_13 Tb5 1_555 1_555
O6_6 Tb4_4 1_555 1_555
O8_12 Tb5 1_555 1_555
O9_13 Tb1_7 1_555 1_555
O9_13 Tb5 1_555 1_555
C1_13 C2_13 1_555 1_555
C2_13 H1_13 1_555 1_555
C5_14 C6_14 1_555 1_555
C6_14 H5_14 1_555 1_555
H6_14 C6_14 1_555 1_555
C7_14 H7_13 1_555 1_555
H8_14 C7_14 1_555 1_555
C8_13 C7_14 1_555 1_555
C9_14 C10_13 1_555 1_555
C10_13 H9_9 1_555 1_555
H10_13 C10_13 1_555 1_555
C11_10 H11_10 1_555 1_555
H12_10 C11_10 1_555 1_555
C12_14 C11_10 1_555 1_555
N2_14 C6_14 1_555 1_555
H14_14 N2_14 1_555 1_555
N3_13 C10_13 1_555 1_555
H15_13 N3_13 1_555 1_555
O1_13 C1_13 1_555 1_555
O13_2 C1_13 1_555 1_555
O5_14 C5_14 1_555 1_555
O7_13 C8_13 1_555 1_555
O8_13 C8_13 1_555 1_555
O9_14 C9_14 1_555 1_555
O10_8 C9_14 1_555 1_555
O11_10 C12_14 1_555 1_555
O18_2 C12_14 1_555 1_555
Tb5_2 N2_14 1_555 1_555
O14_8 Tb1_8 1_555 1_555
O15_8 Tb1_8 1_555 1_555
O16_8 Tb1_8 1_555 1_555
O17_8 Tb1_8 1_555 1_555
C7_14 N2_14 1_555 1_555
C11_10 N3_13 1_555 1_555
N3_13 Tb5_2 1_555 1_555
O1_13 Tb1_8 1_555 1_555
O1_13 Tb5_2 1_555 1_555
O5_14 Tb1_8 1_555 1_555
O5_14 Tb5_2 1_555 1_555
O8_13 Tb5_2 1_555 1_555
O9_14 Tb1_8 1_555 1_555
O9_14 Tb5_2 1_555 1_555
C11_11 H11_11 1_555 1_555
H12_11 C11_11 1_555 1_555
C12_15 C11_11 1_555 1_555
O9_15 C9_15 1_555 1_555
O17_8 C9_15 1_555 1_555
O11_11 C12_15 1_555 1_555
O18_7 C12_15 1_555 1_555
C5_15 C6_15 1_555 1_555
C6_15 H5_15 1_555 1_555
H6_15 C6_15 1_555 1_555
H8_15 C7_15 1_555 1_555
N2_15 C6_15 1_555 1_555
H14_15 N2_15 1_555 1_555
O5_15 C5_15 1_555 1_555
O16_7 C5_15 1_555 1_555
C7_15 N2_15 1_555 1_555
C5_16 C6_16 1_555 1_555
C6_16 H5_16 1_555 1_555
H6_16 C6_16 1_555 1_555
C7_16 H7_14 1_555 1_555
H8_16 C7_16 1_555 1_555
C8_14 C7_16 1_555 1_555
C10_14 H9_10 1_555 1_555
H10_14 C10_14 1_555 1_555
N2_16 C6_16 1_555 1_555
H14_16 N2_16 1_555 1_555
N3_14 C10_14 1_555 1_555
H15_14 N3_14 1_555 1_555
O5_16 C5_16 1_555 1_555
O16_8 C5_16 1_555 1_555
O7_14 C8_14 1_555 1_555
O8_14 C8_14 1_555 1_555
Tb5_7 N2_16 1_555 1_555
C7_16 N2_16 1_555 1_555
N3_14 Tb5_7 1_555 1_555
O5_16 Tb5_7 1_555 1_555
O8_14 Tb5_7 1_555 1_555
C1_14 C2_14 1_555 1_555
C2_14 H1_14 1_555 1_555
H2_12 C2_14 1_555 1_555
C3_12 H3_12 1_555 1_555
H4_12 C3_12 1_555 1_555
C4_12 C3_12 1_555 1_555
C11_12 H11_12 1_555 1_555
H12_12 C11_12 1_555 1_555
C12_16 C11_12 1_555 1_555
N1_12 C2_14 1_555 1_555
H13_12 N1_12 1_555 1_555
O1_14 C1_14 1_555 1_555
O13_7 C1_14 1_555 1_555
O9_16 C9_16 1_555 1_555
O17_7 C9_16 1_555 1_555
O18_8 C12_16 1_555 1_555
Tb4_4 N1_12 1_555 1_555
C3_12 N1_12 1_555 1_555
O1_14 Tb4_4 1_555 1_555
O9_16 Tb4_4 1_555 1_555
C11_13 H11_13 1_555 1_555
H12_13 C11_13 1_555 1_555
C11_14 H11_14 1_555 1_555
H12_14 C11_14 1_555 1_555
C3_13 H3_13 1_555 1_555
H4_13 C3_13 1_555 1_555
C4_13 C3_13 1_555 1_555
H13_13 N1_13 1_555 1_555
O3_7 C4_13 1_555 1_555
O4_7 C4_13 1_555 1_555
Tb3_3 O3_7 1_555 1_555
C3_13 N1_13 1_555 1_555
O4_7 Tb3_3 1_555 1_555
O6_7 Tb3_3 1_555 1_555
C1_15 C2_15 1_555 1_555
C2_15 H1_15 1_555 1_555
H2_14 C2_15 1_555 1_555
C3_14 H3_14 1_555 1_555
H4_14 C3_14 1_555 1_555
C4_14 C3_14 1_555 1_555
N1_14 C2_15 1_555 1_555
H13_14 N1_14 1_555 1_555
O1_15 C1_15 1_555 1_555
O2_8 C1_15 1_555 1_555
Tb3_3 N1_14 1_555 1_555
Tb5_8 O2_8 1_555 1_555
C3_14 N1_14 1_555 1_555
O1_15 Tb3_3 1_555 1_555
C10_15 H9_13 1_555 1_555
H10_15 C10_15 1_555 1_555
N3_15 C10_15 1_555 1_555
H15_15 N3_15 1_555 1_555
O7_15 C8_15 1_555 1_555
O8_15 C8_15 1_555 1_555
N3_15 Tb5_8 1_555 1_555
O8_15 Tb5_8 1_555 1_555
C10_16 H9_14 1_555 1_555
H10_16 C10_16 1_555 1_555
N3_16 C10_16 1_555 1_555
H15_16 N3_16 1_555 1_555
O7_16 C8_16 1_555 1_555
O8_16 C8_16 1_555 1_555
O13_8 Tb2_8 1_555 1_555
N3_16 Tb2_8 1_555 1_555
O8_16 Tb2_8 1_555 1_555
C3_15 H3_15 1_555 1_555
H4_15 C3_15 1_555 1_555
C4_15 C3_15 1_555 1_555
H13_15 N1_15 1_555 1_555
O3_8 C4_15 1_555 1_555
O4_8 C4_15 1_555 1_555
Tb3_4 O3_8 1_555 1_555
C3_15 N1_15 1_555 1_555
O4_8 Tb3_4 1_555 1_555
O6_8 Tb3_4 1_555 1_555
C1_16 C2_16 1_555 1_555
C2_16 H1_16 1_555 1_555
H2_16 C2_16 1_555 1_555
C3_16 H3_16 1_555 1_555
H4_16 C3_16 1_555 1_555
C4_16 C3_16 1_555 1_555
N1_16 C2_16 1_555 1_555
H13_16 N1_16 1_555 1_555
O1_16 C1_16 1_555 1_555
O13_8 C1_16 1_555 1_555
Tb3_4 N1_16 1_555 1_555
C3_16 N1_16 1_555 1_555
O1_16 Tb3_4 1_555 1_555
C11_15 H11_15 1_555 1_555
H12_15 C11_15 1_555 1_555
C11_16 H11_16 1_555 1_555
H12_16 C11_16 1_555 1_555

#END
