
###############################################################################
#
# This file contains modified crystal structure data generated from the
# MOF subset of the Cambridge Structural Database (CSD) v543 
# hosted by the Cambridge Crystallographic Data Centre (CCDC).
#
# This work is licensed under the Creative Commons
# Attribution-NonCommercial-ShareAlike 4.0 International License.
# To view a copy of this license, visit
# http://creativecommons.org/licenses/by-nc-sa/4.0/
# or send a letter to
# Creative Commons, PO Box 1866, Mountain View, CA 94042, USA.
#
# CIF created using the CSD Python API on 29 September 2022
# The structure has been converted into the P1 space group
# The structure has a 3D framework
# The original CSD entry ZETQIA is in the tetragonal crystal system
# The framework has been calculated to contain at least 10.0% void space
# The void calculation uses a probe of radius 1.32A, grid spacing 0.4
#
###############################################################################

data_ZETQIA
_chemical_formula_moiety         '(C192 H240 N48 Nd32 O184)n'
_symmetry_cell_setting           triclinic
_symmetry_space_group_name_H-M   'P 1'
_symmetry_Int_Tables_number      1
_space_group_name_Hall           'P 1'
loop_
_symmetry_equiv_pos_site_id
_symmetry_equiv_pos_as_xyz
1 x,y,z
_cell_length_a                   26.2339(16)
_cell_length_b                   26.2339(16)
_cell_length_c                   12.0733(14)
_cell_angle_alpha                90
_cell_angle_beta                 90
_cell_angle_gamma                90
_cell_volume                     8309.06
loop_
_atom_site_label
_atom_site_type_symbol
_atom_site_fract_x
_atom_site_fract_y
_atom_site_fract_z
C1 C 0.68136(18) 0.20315(18) 0.0922(4)
H1 H 0.6164 0.1767 0.0177
C5 C 0.84546(19) 0.13249(18) 0.0307(4)
C6 C 0.8916(2) 0.1625(3) 0.0704(6)
H5 H 0.9164 0.1386 0.0999
H6 H 0.9070 0.1791 0.0070
C7 C 0.9203(2) 0.2035(3) 0.2417(6)
H7 H 0.9222 0.2379 0.2710
H8 H 0.9532 0.1951 0.2098
C8 C 0.9086(3) 0.1670(4) 0.3343(8)
C9 C 0.74913(18) 0.07734(18) 0.3677(4)
C10 C 0.7756(2) 0.1004(2) 0.4663(5)
H9 H 0.7587 0.0893 0.5335
H10 H 0.8106 0.0883 0.4688
C11 C 0.7311(3) 0.1797(3) 0.5124(5)
H11 H 0.7391 0.1879 0.5888
H12 H 0.7035 0.1551 0.5129
C12 C 0.7131(2) 0.2274(2) 0.4547(5)
N2 N 0.88116(17) 0.20133(19) 0.1554(4)
H14 H 0.8801 0.2323 0.1214
N3 N 0.77545(18) 0.15641(16) 0.4616(4)
H15 H 0.8028 0.1669 0.5021
Nd1 Nd 0.717479(9) 0.080480(9) 0.09318(2)
Nd2 Nd 0.792648(10) 0.186813(9) 0.25562(2)
O1 O 0.71630(13) 0.17501(12) 0.1299(3)
O2 O 0.66950(14) 0.24578(13) 0.1312(3)
O5 O 0.80689(13) 0.12947(13) 0.0939(3)
O7 O 0.86724(18) 0.14339(17) 0.3305(4)
O8 O 0.9395(3) 0.1665(4) 0.4156(6)
O9 O 0.74814(14) 0.10431(13) 0.2795(3)
O10 O 0.73134(14) 0.03368(13) 0.3736(3)
O11 O 0.72207(13) 0.23153(13) 0.3498(3)
O12 O 0.69001(15) 0.25999(13) 0.5076(3)
Nd5 Nd 0.707352(10) 0.313187(9) 0.24438(2)
O13 O 0.83050(14) 0.25422(13) 0.3688(3)
O15 O 0.64547(15) 0.02404(15) 0.0016(3)
O16 O 0.63931(13) 0.10047(14) 0.1899(3)
O17 O 0.78368(13) 0.01866(14) 0.1236(3)
O18 O 0.77793(13) 0.26847(13) 0.1502(3)
Nd3 Nd 0.669520(9) 0.967479(9) 0.34318(2)
O14 O 0.67917(12) 0.99846(12) 0.1579(3)
C1_2 C 0.81864(18) 0.79685(18) 0.5922(4)
C2 C 0.8491(2) 0.8155(2) 0.4941(4)
H1_2 H 0.8836 0.8233 0.5177
H2 H 0.8510 0.7887 0.4388
C3 C 0.7897(2) 0.8501(2) 0.3554(5)
H3 H 0.7702 0.8201 0.3753
H4 H 0.8084 0.8426 0.2881
C4 C 0.75352(19) 0.89409(19) 0.3340(4)
C5_2 C 0.65454(19) 0.86751(18) 0.5307(4)
C6_2 C 0.6084(2) 0.8375(3) 0.5704(6)
H5_2 H 0.5836 0.8614 0.5999
H6_2 H 0.5930 0.8209 0.5070
C7_2 C 0.5797(2) 0.7965(3) 0.7417(6)
H7_2 H 0.5778 0.7621 0.7710
H8_2 H 0.5468 0.8049 0.7098
C8_2 C 0.5914(3) 0.8330(4) 0.8343(8)
C9_2 C 0.75087(18) 0.92266(18) 0.8677(4)
C10_2 C 0.7244(2) 0.8996(2) 0.9663(5)
H10_2 H 0.6894 0.9117 0.9688
C12_2 C 0.7869(2) 0.7726(2) 0.9547(5)
N1 N 0.82575(15) 0.86165(15) 0.4442(3)
H13 H 0.8515 0.8801 0.4135
N2_2 N 0.61884(17) 0.79867(19) 0.6554(4)
H14_2 H 0.6199 0.7677 0.6214
N3_2 N 0.72455(18) 0.84359(16) 0.9616(4)
Nd1_2 Nd 0.782521(9) 0.919520(9) 0.59318(2)
Nd2_2 Nd 0.707352(10) 0.813187(9) 0.75562(2)
O1_2 O 0.78370(13) 0.82499(12) 0.6299(3)
O2_2 O 0.83050(14) 0.75422(13) 0.6312(3)
O3 O 0.75154(12) 0.92917(12) 0.4079(3)
O4 O 0.72596(15) 0.89547(15) 0.2516(3)
O5_2 O 0.69311(13) 0.87053(13) 0.5939(3)
O6 O 0.64953(14) 0.88931(13) 0.4399(3)
O7_2 O 0.63276(18) 0.85661(17) 0.8305(4)
O8_2 O 0.5605(3) 0.8335(4) 0.9156(6)
O9_2 O 0.75186(14) 0.89569(13) 0.7795(3)
O10_2 O 0.76866(14) 0.96632(13) 0.8736(3)
O11_2 O 0.77793(13) 0.76847(13) 0.8498(3)
Nd5_2 Nd 0.792648(10) 0.686813(9) 0.74438(2)
O13_2 O 0.66950(14) 0.74578(13) 0.8688(3)
O15_2 O 0.85453(15) 0.97596(15) 0.5016(3)
O16_2 O 0.86069(13) 0.89953(14) 0.6899(3)
O17_2 O 0.71632(13) 0.98134(14) 0.6236(3)
O18_2 O 0.72207(13) 0.73153(13) 0.6502(3)
C5_3 C 0.61751(18) 0.09546(19) 0.2807(4)
C6_3 C 0.5875(3) 0.1416(2) 0.3204(6)
H5_3 H 0.6114 0.1664 0.3499
H6_3 H 0.5709 0.1570 0.2570
C7_3 C 0.5465(3) 0.1703(2) 0.4917(6)
H7_3 H 0.5121 0.1722 0.5210
H8_3 H 0.5549 0.2032 0.4598
C8_3 C 0.5830(4) 0.1586(3) 0.5843(8)
C10_3 C 0.6496(2) 0.0256(2) 0.7163(5)
H9_2 H 0.6607 0.0087 0.7835
H10_3 H 0.6617 0.0606 0.7188
N2_3 N 0.54867(19) 0.13116(17) 0.4054(4)
H14_3 H 0.5177 0.1301 0.3714
N3_3 N 0.59359(16) 0.02545(18) 0.7116(4)
H15_2 H 0.5831 0.0528 0.7521
Nd2_3 Nd 0.563187(9) 0.042648(10) 0.50562(2)
O5_3 O 0.62053(13) 0.05689(13) 0.3439(3)
O7_3 O 0.60661(17) 0.11724(18) 0.5805(4)
O8_3 O 0.5835(4) 0.1895(3) 0.6656(6)
O13_3 O 0.49578(13) 0.08050(14) 0.6188(3)
O18_3 O 0.48153(13) 0.02793(13) 0.4002(3)
C1_3 C 0.54685(18) 0.93136(18) 0.3422(4)
C2_2 C 0.5655(2) 0.9009(2) 0.2441(4)
H1_3 H 0.5733 0.8664 0.2677
H2_2 H 0.5387 0.8990 0.1888
C3_2 C 0.6001(2) 0.9603(2) 0.1054(5)
H3_2 H 0.5701 0.9798 0.1253
H4_2 H 0.5926 0.9416 0.0381
C4_2 C 0.64409(19) 0.99648(19) 0.0840(4)
C9_3 C 0.67266(18) 0.99913(18) 0.6177(4)
C11_2 C 0.5703(3) 0.9811(3) 0.7624(5)
H11_2 H 0.5621 0.9891 0.8388
H12_2 H 0.5949 0.9535 0.7629
C12_3 C 0.5226(2) 0.9631(2) 0.7047(5)
N1_2 N 0.61165(15) 0.92425(15) 0.1942(3)
H13_2 H 0.6301 0.8985 0.1635
O1_3 O 0.57499(12) 0.96630(13) 0.3799(3)
O2_3 O 0.50422(13) 0.91950(14) 0.3812(3)
O9_3 O 0.64569(13) 0.99814(14) 0.5295(3)
O11_3 O 0.51847(13) 0.97207(13) 0.5998(3)
O12_2 O 0.49001(13) 0.94001(15) 0.7576(3)
Nd5_3 Nd 0.436813(9) 0.957352(10) 0.49438(2)
O18_4 O 0.01847(13) 0.97207(13) 0.9002(3)
C9_4 C 0.82734(18) 0.00087(18) 0.1177(4)
C11_3 C 0.9297(3) 0.0189(3) 0.2624(5)
H11_3 H 0.9379 0.0109 0.3388
H12_3 H 0.9051 0.0465 0.2629
C12_4 C 0.9774(2) 0.0369(2) 0.2047(5)
O9_4 O 0.85431(13) 0.00186(14) 0.0295(3)
O11_4 O 0.98153(13) 0.02793(13) 0.0998(3)
C5_4 C 0.88249(18) 0.90454(19) 0.7807(4)
C6_4 C 0.9125(3) 0.8584(2) 0.8204(6)
H5_4 H 0.8886 0.8336 0.8499
H6_4 H 0.9291 0.8430 0.7570
C7_4 C 0.9535(3) 0.8297(2) 0.9917(6)
H8_4 H 0.9451 0.7968 0.9598
N2_4 N 0.95133(19) 0.86884(17) 0.9054(4)
H14_4 H 0.9823 0.8699 0.8714
O5_4 O 0.87947(13) 0.94311(13) 0.8439(3)
C1_4 C 0.18136(18) 0.70315(18) 0.5922(4)
C2_3 C 0.1509(2) 0.6845(2) 0.4941(4)
H1_4 H 0.1164 0.6767 0.5177
H2_3 H 0.1490 0.7113 0.4388
C3_3 C 0.2103(2) 0.6499(2) 0.3554(5)
H3_3 H 0.2298 0.6799 0.3753
H4_3 H 0.1916 0.6574 0.2881
C4_3 C 0.24648(19) 0.60591(19) 0.3340(4)
C5_5 C 0.34546(19) 0.63249(18) 0.5307(4)
C6_5 C 0.3916(2) 0.6625(3) 0.5704(6)
H5_5 H 0.4164 0.6386 0.5999
H6_5 H 0.4070 0.6791 0.5070
C7_5 C 0.4203(2) 0.7035(3) 0.7417(6)
H7_4 H 0.4222 0.7379 0.7710
H8_5 H 0.4532 0.6951 0.7098
C8_4 C 0.4086(3) 0.6670(4) 0.8343(8)
C9_5 C 0.24913(18) 0.57734(18) 0.8677(4)
C10_4 C 0.2756(2) 0.6004(2) 0.9663(5)
H10_4 H 0.3106 0.5883 0.9688
C12_5 C 0.2131(2) 0.7274(2) 0.9547(5)
N1_3 N 0.17425(15) 0.63835(15) 0.4442(3)
H13_3 H 0.1485 0.6199 0.4135
N2_5 N 0.38116(17) 0.70133(19) 0.6554(4)
H14_5 H 0.3801 0.7323 0.6214
N3_4 N 0.27545(18) 0.65641(16) 0.9616(4)
Nd1_3 Nd 0.217479(9) 0.580480(9) 0.59318(2)
Nd2_4 Nd 0.292648(10) 0.686813(9) 0.75562(2)
O1_4 O 0.21630(13) 0.67501(12) 0.6299(3)
O2_4 O 0.16950(14) 0.74578(13) 0.6312(3)
O3_2 O 0.24846(12) 0.57083(12) 0.4079(3)
O4_2 O 0.27404(15) 0.60453(15) 0.2516(3)
O5_5 O 0.30689(13) 0.62947(13) 0.5939(3)
O6_2 O 0.35047(14) 0.61069(13) 0.4399(3)
O7_4 O 0.36724(18) 0.64339(17) 0.8305(4)
O8_4 O 0.4395(3) 0.6665(4) 0.9156(6)
O9_5 O 0.24814(14) 0.60431(13) 0.7795(3)
O10_3 O 0.23134(14) 0.53368(13) 0.8736(3)
O11_5 O 0.22207(13) 0.73153(13) 0.8498(3)
Nd3_2 Nd 0.169520(9) 0.467479(9) 0.84318(2)
Nd4 Nd 0.330480(9) 0.532521(9) 0.34318(2)
Nd5_4 Nd 0.207352(10) 0.813187(9) 0.74438(2)
O13_4 O 0.33050(14) 0.75422(13) 0.8688(3)
O14_2 O 0.17917(12) 0.49846(12) 0.6579(3)
O15_3 O 0.14547(15) 0.52404(15) 0.5016(3)
O16_3 O 0.13931(13) 0.60047(14) 0.6899(3)
O17_3 O 0.28368(13) 0.51866(14) 0.6236(3)
O18_5 O 0.27793(13) 0.76847(13) 0.6502(3)
C1_5 C 0.31864(18) 0.29685(18) 0.0922(4)
H1_5 H 0.3836 0.3233 0.0177
C5_6 C 0.15454(19) 0.36751(18) 0.0307(4)
C6_6 C 0.1084(2) 0.3375(3) 0.0704(6)
H5_6 H 0.0836 0.3614 0.0999
H6_6 H 0.0930 0.3209 0.0070
C7_6 C 0.0797(2) 0.2965(3) 0.2417(6)
H7_5 H 0.0778 0.2621 0.2710
H8_6 H 0.0468 0.3049 0.2098
C8_5 C 0.0914(3) 0.3330(4) 0.3343(8)
C9_6 C 0.25087(18) 0.42266(18) 0.3677(4)
C10_5 C 0.2244(2) 0.3996(2) 0.4663(5)
H9_3 H 0.2413 0.4107 0.5335
H10_5 H 0.1894 0.4117 0.4688
C11_4 C 0.2689(3) 0.3203(3) 0.5124(5)
H11_4 H 0.2609 0.3121 0.5888
H12_4 H 0.2965 0.3449 0.5129
C12_6 C 0.2869(2) 0.2726(2) 0.4547(5)
N2_6 N 0.11884(17) 0.29867(19) 0.1554(4)
H14_6 H 0.1199 0.2677 0.1214
N3_5 N 0.22455(18) 0.34359(16) 0.4616(4)
H15_3 H 0.1972 0.3331 0.5021
Nd1_4 Nd 0.282521(9) 0.419520(9) 0.09318(2)
Nd2_5 Nd 0.207352(10) 0.313187(9) 0.25562(2)
O1_5 O 0.28370(13) 0.32499(12) 0.1299(3)
O2_5 O 0.33050(14) 0.25422(13) 0.1312(3)
O5_6 O 0.19311(13) 0.37053(13) 0.0939(3)
O7_5 O 0.13276(18) 0.35661(17) 0.3305(4)
O8_5 O 0.0605(3) 0.3335(4) 0.4156(6)
O9_6 O 0.25186(14) 0.39569(13) 0.2795(3)
O10_4 O 0.26866(14) 0.46632(13) 0.3736(3)
O11_6 O 0.27793(13) 0.26847(13) 0.3498(3)
O12_3 O 0.30999(15) 0.24001(13) 0.5076(3)
Nd5_5 Nd 0.292648(10) 0.186813(9) 0.24438(2)
O13_5 O 0.16950(14) 0.24578(13) 0.3688(3)
O14_3 O 0.32083(12) 0.50154(12) 0.1579(3)
O15_4 O 0.35453(15) 0.47596(15) 0.0016(3)
O16_4 O 0.36069(13) 0.39953(14) 0.1899(3)
O17_4 O 0.21632(13) 0.48134(14) 0.1236(3)
O18_6 O 0.22207(13) 0.23153(13) 0.1502(3)
C2_4 C 0.3491(2) 0.3155(2) 0.9941(4)
H2_4 H 0.3510 0.2887 0.9388
C3_4 C 0.2897(2) 0.3501(2) 0.8554(5)
H3_4 H 0.2702 0.3201 0.8753
H4_4 H 0.3084 0.3426 0.7881
C4_4 C 0.25352(19) 0.39409(19) 0.8340(4)
N1_4 N 0.32575(15) 0.36165(15) 0.9442(3)
H13_4 H 0.3515 0.3801 0.9135
O3_3 O 0.25154(12) 0.42917(12) 0.9079(3)
O4_3 O 0.22596(15) 0.39547(15) 0.7516(3)
O6_3 O 0.14953(14) 0.38931(13) 0.9399(3)
H7_6 H 0.0121 0.6722 0.0210
C8_6 C 0.0830(4) 0.6586(3) 0.0843(8)
C9_7 C 0.17266(18) 0.49913(18) 0.1177(4)
C10_6 C 0.1496(2) 0.5256(2) 0.2163(5)
H9_4 H 0.1607 0.5087 0.2835
H10_6 H 0.1617 0.5606 0.2188
C11_5 C 0.0703(3) 0.4811(3) 0.2624(5)
H11_5 H 0.0621 0.4891 0.3388
H12_5 H 0.0949 0.4535 0.2629
C12_7 C 0.0226(2) 0.4631(2) 0.2047(5)
N3_6 N 0.09359(16) 0.52545(18) 0.2116(4)
H15_4 H 0.0831 0.5528 0.2521
Nd2_6 Nd 0.063187(9) 0.542648(10) 0.00562(2)
O7_6 O 0.10661(17) 0.61724(18) 0.0805(4)
O8_6 O 0.0835(4) 0.6895(3) 0.1656(6)
O9_7 O 0.14569(13) 0.49814(14) 0.0295(3)
O11_7 O 0.01847(13) 0.47207(13) 0.0998(3)
C1_6 C 0.04685(18) 0.43136(18) 0.8422(4)
C2_5 C 0.0655(2) 0.4009(2) 0.7441(4)
H1_6 H 0.0733 0.3664 0.7677
H2_5 H 0.0387 0.3990 0.6888
C3_5 C 0.1001(2) 0.4603(2) 0.6054(5)
H3_5 H 0.0701 0.4798 0.6253
H4_5 H 0.0926 0.4416 0.5381
C4_5 C 0.14409(19) 0.49648(19) 0.5840(4)
C5_7 C 0.11751(18) 0.59546(19) 0.7807(4)
C6_7 C 0.0875(3) 0.6416(2) 0.8204(6)
H5_7 H 0.1114 0.6664 0.8499
H6_7 H 0.0709 0.6570 0.7570
C7_7 C 0.0465(3) 0.6703(2) 0.9917(6)
H8_7 H 0.0549 0.7032 0.9598
N1_5 N 0.11165(15) 0.42425(15) 0.6942(3)
H13_5 H 0.1301 0.3985 0.6635
N2_7 N 0.04867(19) 0.63116(17) 0.9054(4)
H14_7 H 0.0177 0.6301 0.8714
O1_6 O 0.07499(12) 0.46630(13) 0.8799(3)
O2_6 O 0.00422(13) 0.41950(14) 0.8812(3)
O5_7 O 0.12053(13) 0.55689(13) 0.8439(3)
O12_4 O 0.99001(13) 0.44001(15) 0.2576(3)
O13_6 O 0.99578(13) 0.58050(14) 0.1188(3)
Nd5_6 Nd 0.936813(9) 0.457352(10) 0.99438(2)
O18_7 O 0.98153(13) 0.52793(13) 0.9002(3)
C1_7 C 0.45315(18) 0.56864(18) 0.3422(4)
C2_6 C 0.4345(2) 0.5991(2) 0.2441(4)
H1_7 H 0.4267 0.6336 0.2677
H2_6 H 0.4613 0.6010 0.1888
C3_6 C 0.3999(2) 0.5397(2) 0.1054(5)
H3_6 H 0.4299 0.5202 0.1253
H4_6 H 0.4074 0.5584 0.0381
C4_6 C 0.35591(19) 0.50352(19) 0.0840(4)
C5_8 C 0.38249(18) 0.40454(19) 0.2807(4)
C6_8 C 0.4125(3) 0.3584(2) 0.3204(6)
H5_8 H 0.3886 0.3336 0.3499
H6_8 H 0.4291 0.3430 0.2570
C7_8 C 0.4535(3) 0.3297(2) 0.4917(6)
H7_7 H 0.4879 0.3278 0.5210
H8_8 H 0.4451 0.2968 0.4598
C8_7 C 0.4170(4) 0.3414(3) 0.5843(8)
C9_8 C 0.32734(18) 0.50087(18) 0.6177(4)
C10_7 C 0.3504(2) 0.4744(2) 0.7163(5)
H9_5 H 0.3393 0.4913 0.7835
H10_7 H 0.3383 0.4394 0.7188
C11_6 C 0.4297(3) 0.5189(3) 0.7624(5)
H11_6 H 0.4379 0.5109 0.8388
H12_6 H 0.4051 0.5465 0.7629
C12_8 C 0.4774(2) 0.5369(2) 0.7047(5)
N1_6 N 0.38835(15) 0.57575(15) 0.1942(3)
H13_6 H 0.3699 0.6015 0.1635
N2_8 N 0.45133(19) 0.36884(17) 0.4054(4)
H14_8 H 0.4823 0.3699 0.3714
N3_7 N 0.40641(16) 0.47455(18) 0.7116(4)
H15_5 H 0.4169 0.4472 0.7521
Nd2_7 Nd 0.436813(9) 0.457352(10) 0.50562(2)
O1_7 O 0.42501(12) 0.53370(13) 0.3799(3)
O2_7 O 0.49578(13) 0.58050(14) 0.3812(3)
O5_8 O 0.37947(13) 0.44311(13) 0.3439(3)
O7_7 O 0.39339(17) 0.38276(18) 0.5805(4)
O8_7 O 0.4165(4) 0.3105(3) 0.6656(6)
O9_8 O 0.35431(13) 0.50186(14) 0.5295(3)
O11_8 O 0.48153(13) 0.52793(13) 0.5998(3)
O12_5 O 0.50999(13) 0.55999(15) 0.7576(3)
Nd5_7 Nd 0.563187(9) 0.542648(10) 0.49438(2)
O13_7 O 0.50422(13) 0.41950(14) 0.6188(3)
O18_8 O 0.51847(13) 0.47207(13) 0.4002(3)
Nd3_3 Nd 0.330480(9) 0.032521(9) 0.65682(2)
O14_4 O 0.32083(12) 0.00154(12) 0.8421(3)
C1_8 C 0.31864(18) 0.79685(18) 0.9078(4)
H1_8 H 0.3836 0.8233 0.9823
C5_9 C 0.15454(19) 0.86751(18) 0.9693(4)
C6_9 C 0.1084(2) 0.8375(3) 0.9296(6)
H5_9 H 0.0836 0.8614 0.9001
H6_9 H 0.0930 0.8209 0.9930
C7_9 C 0.0797(2) 0.7965(3) 0.7583(6)
H7_8 H 0.0778 0.7621 0.7290
H8_9 H 0.0468 0.8049 0.7902
C8_8 C 0.0914(3) 0.8330(4) 0.6657(8)
C9_9 C 0.25087(18) 0.92266(18) 0.6323(4)
C10_8 C 0.2244(2) 0.8996(2) 0.5337(5)
H9_6 H 0.2413 0.9107 0.4665
H10_8 H 0.1894 0.9117 0.5312
C11_7 C 0.2689(3) 0.8203(3) 0.4876(5)
H11_7 H 0.2609 0.8121 0.4112
H12_7 H 0.2965 0.8449 0.4871
C12_9 C 0.2869(2) 0.7726(2) 0.5453(5)
N2_9 N 0.11884(17) 0.79867(19) 0.8446(4)
H14_9 H 0.1199 0.7677 0.8786
N3_8 N 0.22455(18) 0.84359(16) 0.5384(4)
H15_6 H 0.1972 0.8331 0.4979
Nd1_5 Nd 0.282521(9) 0.919520(9) 0.90682(2)
O1_8 O 0.28370(13) 0.82499(12) 0.8701(3)
O5_9 O 0.19311(13) 0.87053(13) 0.9061(3)
O7_8 O 0.13276(18) 0.85661(17) 0.6695(4)
O8_8 O 0.0605(3) 0.8335(4) 0.5844(6)
O9_9 O 0.25186(14) 0.89569(13) 0.7205(3)
O10_5 O 0.26866(14) 0.96632(13) 0.6264(3)
O12_6 O 0.30999(15) 0.74001(13) 0.4924(3)
O15_5 O 0.35453(15) 0.97596(15) 0.9984(3)
O16_5 O 0.36069(13) 0.89953(14) 0.8101(3)
O17_5 O 0.21632(13) 0.98134(14) 0.8764(3)
C1_9 C 0.18136(18) 0.20315(18) 0.4078(4)
C2_7 C 0.1509(2) 0.1845(2) 0.5059(4)
H1_9 H 0.1164 0.1767 0.4823
H2_7 H 0.1490 0.2113 0.5612
C3_7 C 0.2103(2) 0.1499(2) 0.6446(5)
H3_7 H 0.2298 0.1799 0.6247
H4_7 H 0.1916 0.1574 0.7119
C4_7 C 0.24648(19) 0.10591(19) 0.6660(4)
C5_10 C 0.34546(19) 0.13249(18) 0.4693(4)
C6_10 C 0.3916(2) 0.1625(3) 0.4296(6)
H5_10 H 0.4164 0.1386 0.4001
H6_10 H 0.4070 0.1791 0.4930
C7_10 C 0.4203(2) 0.2035(3) 0.2583(6)
H7_9 H 0.4222 0.2379 0.2290
H8_10 H 0.4532 0.1951 0.2902
C8_9 C 0.4086(3) 0.1670(4) 0.1657(8)
C9_10 C 0.24913(18) 0.07734(18) 0.1323(4)
C10_9 C 0.2756(2) 0.1004(2) 0.0337(5)
H10_9 H 0.3106 0.0883 0.0312
C12_10 C 0.2131(2) 0.2274(2) 0.0453(5)
N1_7 N 0.17425(15) 0.13835(15) 0.5558(3)
H13_7 H 0.1485 0.1199 0.5865
N2_10 N 0.38116(17) 0.20133(19) 0.3446(4)
H14_10 H 0.3801 0.2323 0.3786
N3_9 N 0.27545(18) 0.15641(16) 0.0384(4)
Nd1_6 Nd 0.217479(9) 0.080480(9) 0.40682(2)
O1_9 O 0.21630(13) 0.17501(12) 0.3701(3)
O3_4 O 0.24846(12) 0.07083(12) 0.5921(3)
O4_4 O 0.27404(15) 0.10453(15) 0.7484(3)
O5_10 O 0.30689(13) 0.12947(13) 0.4061(3)
O6_4 O 0.35047(14) 0.11069(13) 0.5601(3)
O7_9 O 0.36724(18) 0.14339(17) 0.1695(4)
O8_9 O 0.4395(3) 0.1665(4) 0.0844(6)
O9_10 O 0.24814(14) 0.10431(13) 0.2205(3)
O10_6 O 0.23134(14) 0.03368(13) 0.1264(3)
O15_6 O 0.14547(15) 0.02404(15) 0.4984(3)
O16_6 O 0.13931(13) 0.10047(14) 0.3101(3)
O17_6 O 0.28368(13) 0.01866(14) 0.3764(3)
C1_10 C 0.45315(18) 0.06864(18) 0.6578(4)
C2_8 C 0.4345(2) 0.0991(2) 0.7559(4)
H1_10 H 0.4267 0.1336 0.7323
H2_8 H 0.4613 0.1010 0.8112
C3_8 C 0.3999(2) 0.0397(2) 0.8946(5)
H3_8 H 0.4299 0.0202 0.8747
H4_8 H 0.4074 0.0584 0.9619
C4_8 C 0.35591(19) 0.00352(19) 0.9160(4)
C9_11 C 0.32734(18) 0.00087(18) 0.3823(4)
C11_8 C 0.4297(3) 0.0189(3) 0.2376(5)
H11_8 H 0.4379 0.0109 0.1612
H12_8 H 0.4051 0.0465 0.2371
C12_11 C 0.4774(2) 0.0369(2) 0.2953(5)
N1_8 N 0.38835(15) 0.07575(15) 0.8058(3)
H13_8 H 0.3699 0.1015 0.8365
O1_10 O 0.42501(12) 0.03370(13) 0.6201(3)
O9_11 O 0.35431(13) 0.00186(14) 0.4705(3)
O12_7 O 0.50999(13) 0.05999(15) 0.2424(3)
C5_11 C 0.38249(18) 0.90454(19) 0.7193(4)
C6_11 C 0.4125(3) 0.8584(2) 0.6796(6)
H5_11 H 0.3886 0.8336 0.6501
H6_11 H 0.4291 0.8430 0.7430
C7_11 C 0.4535(3) 0.8297(2) 0.5083(6)
H7_10 H 0.4879 0.8278 0.4790
H8_11 H 0.4451 0.7968 0.5402
C8_10 C 0.4170(4) 0.8414(3) 0.4157(8)
C10_10 C 0.3504(2) 0.9744(2) 0.2837(5)
H9_7 H 0.3393 0.9913 0.2165
H10_10 H 0.3383 0.9394 0.2812
N2_11 N 0.45133(19) 0.86884(17) 0.5946(4)
H14_11 H 0.4823 0.8699 0.6286
N3_10 N 0.40641(16) 0.97455(18) 0.2884(4)
H15_7 H 0.4169 0.9472 0.2479
O5_11 O 0.37947(13) 0.94311(13) 0.6561(3)
O7_10 O 0.39339(17) 0.88276(18) 0.4195(4)
O8_10 O 0.4165(4) 0.8105(3) 0.3344(6)
C5_12 C 0.11751(18) 0.09546(19) 0.2193(4)
C6_12 C 0.0875(3) 0.1416(2) 0.1796(6)
H5_12 H 0.1114 0.1664 0.1501
H6_12 H 0.0709 0.1570 0.2430
C7_12 C 0.0465(3) 0.1703(2) 0.0083(6)
H8_12 H 0.0549 0.2032 0.0402
N2_12 N 0.04867(19) 0.13116(17) 0.0946(4)
H14_12 H 0.0177 0.1301 0.1286
O5_12 O 0.12053(13) 0.05689(13) 0.1561(3)
C9_12 C 0.17266(18) 0.99913(18) 0.8823(4)
C11_9 C 0.0703(3) 0.9811(3) 0.7376(5)
H11_9 H 0.0621 0.9891 0.6612
H12_9 H 0.0949 0.9535 0.7371
C12_12 C 0.0226(2) 0.9631(2) 0.7953(5)
O9_12 O 0.14569(13) 0.99814(14) 0.9705(3)
C1_11 C 0.81864(18) 0.29685(18) 0.4078(4)
C2_9 C 0.8491(2) 0.3155(2) 0.5059(4)
H1_11 H 0.8836 0.3233 0.4823
H2_9 H 0.8510 0.2887 0.5612
C3_9 C 0.7897(2) 0.3501(2) 0.6446(5)
H3_9 H 0.7702 0.3201 0.6247
H4_9 H 0.8084 0.3426 0.7119
C4_9 C 0.75352(19) 0.39409(19) 0.6660(4)
C5_13 C 0.65454(19) 0.36751(18) 0.4693(4)
C6_13 C 0.6084(2) 0.3375(3) 0.4296(6)
H5_13 H 0.5836 0.3614 0.4001
H6_13 H 0.5930 0.3209 0.4930
C7_13 C 0.5797(2) 0.2965(3) 0.2583(6)
H7_11 H 0.5778 0.2621 0.2290
H8_13 H 0.5468 0.3049 0.2902
C8_11 C 0.5914(3) 0.3330(4) 0.1657(8)
C9_13 C 0.75087(18) 0.42266(18) 0.1323(4)
C10_11 C 0.7244(2) 0.3996(2) 0.0337(5)
H10_11 H 0.6894 0.4117 0.0312
C12_13 C 0.7869(2) 0.2726(2) 0.0453(5)
N1_9 N 0.82575(15) 0.36165(15) 0.5558(3)
H13_9 H 0.8515 0.3801 0.5865
N2_13 N 0.61884(17) 0.29867(19) 0.3446(4)
H14_13 H 0.6199 0.2677 0.3786
N3_11 N 0.72455(18) 0.34359(16) 0.0384(4)
Nd1_7 Nd 0.782521(9) 0.419520(9) 0.40682(2)
O1_11 O 0.78370(13) 0.32499(12) 0.3701(3)
O3_5 O 0.75154(12) 0.42917(12) 0.5921(3)
O4_5 O 0.72596(15) 0.39547(15) 0.7484(3)
O5_13 O 0.69311(13) 0.37053(13) 0.4061(3)
O6_5 O 0.64953(14) 0.38931(13) 0.5601(3)
O7_11 O 0.63276(18) 0.35661(17) 0.1695(4)
O8_11 O 0.5605(3) 0.3335(4) 0.0844(6)
O9_13 O 0.75186(14) 0.39569(13) 0.2205(3)
O10_7 O 0.76866(14) 0.46632(13) 0.1264(3)
Nd3_4 Nd 0.830480(9) 0.532521(9) 0.15682(2)
Nd4_2 Nd 0.669520(9) 0.467479(9) 0.65682(2)
O14_5 O 0.82083(12) 0.50154(12) 0.3421(3)
O15_7 O 0.85453(15) 0.47596(15) 0.4984(3)
O16_7 O 0.86069(13) 0.39953(14) 0.3101(3)
O17_7 O 0.71632(13) 0.48134(14) 0.3764(3)
C2_10 C 0.6509(2) 0.6845(2) 0.0059(4)
H2_10 H 0.6490 0.7113 0.0612
C3_10 C 0.7103(2) 0.6499(2) 0.1446(5)
H3_10 H 0.7298 0.6799 0.1247
H4_10 H 0.6916 0.6574 0.2119
C4_10 C 0.74648(19) 0.60591(19) 0.1660(4)
N1_10 N 0.67425(15) 0.63835(15) 0.0558(3)
H13_10 H 0.6485 0.6199 0.0865
O3_6 O 0.74846(12) 0.57083(12) 0.0921(3)
O4_6 O 0.77404(15) 0.60453(15) 0.2484(3)
O6_6 O 0.85047(14) 0.61069(13) 0.0601(3)
C1_12 C 0.68136(18) 0.70315(18) 0.9078(4)
H1_12 H 0.6164 0.6767 0.9823
C5_14 C 0.84546(19) 0.63249(18) 0.9693(4)
C6_14 C 0.8916(2) 0.6625(3) 0.9296(6)
H5_14 H 0.9164 0.6386 0.9001
H6_14 H 0.9070 0.6791 0.9930
C7_14 C 0.9203(2) 0.7035(3) 0.7583(6)
H7_12 H 0.9222 0.7379 0.7290
H8_14 H 0.9532 0.6951 0.7902
C8_12 C 0.9086(3) 0.6670(4) 0.6657(8)
C9_14 C 0.74913(18) 0.57734(18) 0.6323(4)
C10_12 C 0.7756(2) 0.6004(2) 0.5337(5)
H9_8 H 0.7587 0.5893 0.4665
H10_12 H 0.8106 0.5883 0.5312
C11_10 C 0.7311(3) 0.6797(3) 0.4876(5)
H11_10 H 0.7391 0.6879 0.4112
H12_10 H 0.7035 0.6551 0.4871
C12_14 C 0.7131(2) 0.7274(2) 0.5453(5)
N2_14 N 0.88116(17) 0.70133(19) 0.8446(4)
H14_14 H 0.8801 0.7323 0.8786
N3_12 N 0.77545(18) 0.65641(16) 0.5384(4)
H15_8 H 0.8028 0.6669 0.4979
Nd1_8 Nd 0.717479(9) 0.580480(9) 0.90682(2)
O1_12 O 0.71630(13) 0.67501(12) 0.8701(3)
O5_14 O 0.80689(13) 0.62947(13) 0.9061(3)
O7_12 O 0.86724(18) 0.64339(17) 0.6695(4)
O8_12 O 0.9395(3) 0.6665(4) 0.5844(6)
O9_14 O 0.74814(14) 0.60431(13) 0.7205(3)
O10_8 O 0.73134(14) 0.53368(13) 0.6264(3)
O12_8 O 0.69001(15) 0.75999(13) 0.4924(3)
O14_6 O 0.67917(12) 0.49846(12) 0.8421(3)
O15_8 O 0.64547(15) 0.52404(15) 0.9984(3)
O16_8 O 0.63931(13) 0.60047(14) 0.8101(3)
O17_8 O 0.78368(13) 0.51866(14) 0.8764(3)
O12_9 O 0.00999(13) 0.55999(15) 0.7424(3)
C1_13 C 0.95315(18) 0.56864(18) 0.1578(4)
C2_11 C 0.9345(2) 0.5991(2) 0.2559(4)
H1_13 H 0.9267 0.6336 0.2323
H2_11 H 0.9613 0.6010 0.3112
C3_11 C 0.8999(2) 0.5397(2) 0.3946(5)
H3_11 H 0.9299 0.5202 0.3747
H4_11 H 0.9074 0.5584 0.4619
C4_11 C 0.85591(19) 0.50352(19) 0.4160(4)
C5_15 C 0.88249(18) 0.40454(19) 0.2193(4)
C6_15 C 0.9125(3) 0.3584(2) 0.1796(6)
H5_15 H 0.8886 0.3336 0.1501
H6_15 H 0.9291 0.3430 0.2430
C7_15 C 0.9535(3) 0.3297(2) 0.0083(6)
H8_15 H 0.9451 0.2968 0.0402
N1_11 N 0.88835(15) 0.57575(15) 0.3058(3)
H13_11 H 0.8699 0.6015 0.3365
N2_15 N 0.95133(19) 0.36884(17) 0.0946(4)
H14_15 H 0.9823 0.3699 0.1286
O1_13 O 0.92501(12) 0.53370(13) 0.1201(3)
O5_15 O 0.87947(13) 0.44311(13) 0.1561(3)
H7_13 H 0.9879 0.3278 0.9790
C8_13 C 0.9170(4) 0.3414(3) 0.9157(8)
C9_15 C 0.82734(18) 0.50087(18) 0.8823(4)
C10_13 C 0.8504(2) 0.4744(2) 0.7837(5)
H9_9 H 0.8393 0.4913 0.7165
H10_13 H 0.8383 0.4394 0.7812
C11_11 C 0.9297(3) 0.5189(3) 0.7376(5)
H11_11 H 0.9379 0.5109 0.6612
H12_11 H 0.9051 0.5465 0.7371
C12_15 C 0.9774(2) 0.5369(2) 0.7953(5)
N3_13 N 0.90641(16) 0.47455(18) 0.7884(4)
H15_9 H 0.9169 0.4472 0.7479
O7_13 O 0.89339(17) 0.38276(18) 0.9195(4)
O8_13 O 0.9165(4) 0.3105(3) 0.8344(6)
O9_15 O 0.85431(13) 0.50186(14) 0.9705(3)
C1_14 C 0.54685(18) 0.43136(18) 0.6578(4)
C2_12 C 0.5655(2) 0.4009(2) 0.7559(4)
H1_14 H 0.5733 0.3664 0.7323
H2_12 H 0.5387 0.3990 0.8112
C3_12 C 0.6001(2) 0.4603(2) 0.8946(5)
H3_12 H 0.5701 0.4798 0.8747
H4_12 H 0.5926 0.4416 0.9619
C4_12 C 0.64409(19) 0.49648(19) 0.9160(4)
C5_16 C 0.61751(18) 0.59546(19) 0.7193(4)
C6_16 C 0.5875(3) 0.6416(2) 0.6796(6)
H5_16 H 0.6114 0.6664 0.6501
H6_16 H 0.5709 0.6570 0.7430
C7_16 C 0.5465(3) 0.6703(2) 0.5083(6)
H7_14 H 0.5121 0.6722 0.4790
H8_16 H 0.5549 0.7032 0.5402
C8_14 C 0.5830(4) 0.6586(3) 0.4157(8)
C9_16 C 0.67266(18) 0.49913(18) 0.3823(4)
C10_14 C 0.6496(2) 0.5256(2) 0.2837(5)
H9_10 H 0.6607 0.5087 0.2165
H10_14 H 0.6617 0.5606 0.2812
C11_12 C 0.5703(3) 0.4811(3) 0.2376(5)
H11_12 H 0.5621 0.4891 0.1612
H12_12 H 0.5949 0.4535 0.2371
C12_16 C 0.5226(2) 0.4631(2) 0.2953(5)
N1_12 N 0.61165(15) 0.42425(15) 0.8058(3)
H13_12 H 0.6301 0.3985 0.8365
N2_16 N 0.54867(19) 0.63116(17) 0.5946(4)
H14_16 H 0.5177 0.6301 0.6286
N3_14 N 0.59359(16) 0.52545(18) 0.2884(4)
H15_10 H 0.5831 0.5528 0.2479
O1_14 O 0.57499(12) 0.46630(13) 0.6201(3)
O5_16 O 0.62053(13) 0.55689(13) 0.6561(3)
O7_14 O 0.60661(17) 0.61724(18) 0.4195(4)
O8_14 O 0.5835(4) 0.6895(3) 0.3344(6)
O9_16 O 0.64569(13) 0.49814(14) 0.4705(3)
O12_10 O 0.49001(13) 0.44001(15) 0.2424(3)
C2_13 C 0.6509(2) 0.1845(2) 0.9941(4)
H2_13 H 0.6490 0.2113 0.9388
C3_13 C 0.7103(2) 0.1499(2) 0.8554(5)
H3_13 H 0.7298 0.1799 0.8753
H4_13 H 0.6916 0.1574 0.7881
C4_13 C 0.74648(19) 0.10591(19) 0.8340(4)
N1_13 N 0.67425(15) 0.13835(15) 0.9442(3)
H13_13 H 0.6485 0.1199 0.9135
O3_7 O 0.74846(12) 0.07083(12) 0.9079(3)
O4_7 O 0.77404(15) 0.10453(15) 0.7516(3)
O6_7 O 0.85047(14) 0.11069(13) 0.9399(3)
Nd4_3 Nd 0.830480(9) 0.032521(9) 0.84318(2)
O14_7 O 0.82083(12) 0.00154(12) 0.6579(3)
C1_15 C 0.95315(18) 0.06864(18) 0.8422(4)
C2_14 C 0.9345(2) 0.0991(2) 0.7441(4)
H1_15 H 0.9267 0.1336 0.7677
H2_14 H 0.9613 0.1010 0.6888
C3_14 C 0.8999(2) 0.0397(2) 0.6054(5)
H3_14 H 0.9299 0.0202 0.6253
H4_14 H 0.9074 0.0584 0.5381
C4_14 C 0.85591(19) 0.00352(19) 0.5840(4)
N1_14 N 0.88835(15) 0.07575(15) 0.6942(3)
H13_14 H 0.8699 0.1015 0.6635
O1_15 O 0.92501(12) 0.03370(13) 0.8799(3)
O2_8 O 0.99578(13) 0.08050(14) 0.8812(3)
H9_11 H 0.7413 0.9107 0.0335
C11_13 C 0.7689(3) 0.8203(3) 0.0124(5)
H11_13 H 0.7609 0.8121 0.0888
H12_13 H 0.7965 0.8449 0.0129
H15_11 H 0.6972 0.8331 0.0021
O12_11 O 0.80999(15) 0.74001(13) 0.0076(3)
O12_12 O 0.00999(13) 0.05999(15) 0.2576(3)
Nd5_8 Nd 0.063187(9) 0.042648(10) 0.99438(2)
H7_15 H 0.0121 0.1722 0.9790
C8_15 C 0.0830(4) 0.1586(3) 0.9157(8)
C10_15 C 0.1496(2) 0.0256(2) 0.7837(5)
H9_12 H 0.1607 0.0087 0.7165
H10_15 H 0.1617 0.0606 0.7812
N3_15 N 0.09359(16) 0.02545(18) 0.7884(4)
H15_12 H 0.0831 0.0528 0.7479
O7_15 O 0.10661(17) 0.11724(18) 0.9195(4)
O8_15 O 0.0835(4) 0.1895(3) 0.8344(6)
O13_8 O 0.00422(13) 0.91950(14) 0.1188(3)
C2_15 C 0.3491(2) 0.8155(2) 0.0059(4)
H2_15 H 0.3510 0.7887 0.0612
C3_15 C 0.2897(2) 0.8501(2) 0.1446(5)
H3_15 H 0.2702 0.8201 0.1247
H4_15 H 0.3084 0.8426 0.2119
C4_15 C 0.25352(19) 0.89409(19) 0.1660(4)
N1_15 N 0.32575(15) 0.86165(15) 0.0558(3)
H13_15 H 0.3515 0.8801 0.0865
O3_8 O 0.25154(12) 0.92917(12) 0.0921(3)
O4_8 O 0.22596(15) 0.89547(15) 0.2484(3)
O6_8 O 0.14953(14) 0.88931(13) 0.0601(3)
Nd4_4 Nd 0.169520(9) 0.967479(9) 0.15682(2)
O14_8 O 0.17917(12) 0.99846(12) 0.3421(3)
C1_16 C 0.04685(18) 0.93136(18) 0.1578(4)
C2_16 C 0.0655(2) 0.9009(2) 0.2559(4)
H1_16 H 0.0733 0.8664 0.2323
H2_16 H 0.0387 0.8990 0.3112
C3_16 C 0.1001(2) 0.9603(2) 0.3946(5)
H3_16 H 0.0701 0.9798 0.3747
H4_16 H 0.0926 0.9416 0.4619
C4_16 C 0.14409(19) 0.99648(19) 0.4160(4)
N1_16 N 0.11165(15) 0.92425(15) 0.3058(3)
H13_16 H 0.1301 0.8985 0.3365
O1_16 O 0.07499(12) 0.96630(13) 0.1201(3)
H7_16 H 0.9879 0.8278 0.0210
C8_16 C 0.9170(4) 0.8414(3) 0.0843(8)
C10_16 C 0.8504(2) 0.9744(2) 0.2163(5)
H9_13 H 0.8393 0.9913 0.2835
H10_16 H 0.8383 0.9394 0.2188
N3_16 N 0.90641(16) 0.97455(18) 0.2116(4)
H15_13 H 0.9169 0.9472 0.2521
Nd2_8 Nd 0.936813(9) 0.957352(10) 0.00562(2)
O7_16 O 0.89339(17) 0.88276(18) 0.0805(4)
O8_16 O 0.9165(4) 0.8105(3) 0.1656(6)
H9_14 H 0.2587 0.5893 0.0335
C11_14 C 0.2311(3) 0.6797(3) 0.0124(5)
H11_14 H 0.2391 0.6879 0.0888
H12_14 H 0.2035 0.6551 0.0129
H15_14 H 0.3028 0.6669 0.0021
O12_13 O 0.19001(15) 0.75999(13) 0.0076(3)
H9_15 H 0.2587 0.0893 0.9665
C11_15 C 0.2311(3) 0.1797(3) 0.9876(5)
H11_15 H 0.2391 0.1879 0.9112
H12_15 H 0.2035 0.1551 0.9871
H15_15 H 0.3028 0.1669 0.9979
O12_14 O 0.19001(15) 0.25999(13) 0.9924(3)
O12_15 O 0.99001(13) 0.94001(15) 0.7424(3)
H9_16 H 0.7413 0.4107 0.9665
C11_16 C 0.7689(3) 0.3203(3) 0.9876(5)
H11_16 H 0.7609 0.3121 0.9112
H12_16 H 0.7965 0.3449 0.9871
H15_16 H 0.6972 0.3331 0.9979
O12_16 O 0.80999(15) 0.24001(13) 0.9924(3)
loop_
_geom_bond_atom_site_label_1
_geom_bond_atom_site_label_2
_geom_bond_site_symmetry_1
_geom_bond_site_symmetry_2
C5 C6 1_555 1_555
C6 H5 1_555 1_555
H6 C6 1_555 1_555
C7 H7 1_555 1_555
H8 C7 1_555 1_555
C8 C7 1_555 1_555
C9 C10 1_555 1_555
C10 H9 1_555 1_555
H10 C10 1_555 1_555
C11 H11 1_555 1_555
H12 C11 1_555 1_555
C12 C11 1_555 1_555
N2 C6 1_555 1_555
H14 N2 1_555 1_555
N3 C10 1_555 1_555
H15 N3 1_555 1_555
Nd2 N2 1_555 1_555
O1 C1 1_555 1_555
O2 C1 1_555 1_555
O5 C5 1_555 1_555
O7 C8 1_555 1_555
O8 C8 1_555 1_555
O9 C9 1_555 1_555
O10 C9 1_555 1_555
O11 C12 1_555 1_555
O12 C12 1_555 1_555
Nd5 O2 1_555 1_555
O13 Nd2 1_555 1_555
O15 Nd1 1_555 1_555
O16 Nd1 1_555 1_555
O17 Nd1 1_555 1_555
O18 Nd2 1_555 1_555
C7 N2 1_555 1_555
C11 N3 1_555 1_555
N3 Nd2 1_555 1_555
Nd1 O1 1_555 1_555
Nd1 O5 1_555 1_555
Nd1 O9 1_555 1_555
Nd2 O1 1_555 1_555
Nd2 O5 1_555 1_555
Nd2 O7 1_555 1_555
Nd2 O9 1_555 1_555
Nd2 O11 1_555 1_555
O11 Nd5 1_555 1_555
Nd5 O18 1_555 1_555
Nd3 O14 1_555 1_555
C1_2 C2 1_555 1_555
C2 H1_2 1_555 1_555
H2 C2 1_555 1_555
C3 H3 1_555 1_555
H4 C3 1_555 1_555
C4 C3 1_555 1_555
C5_2 C6_2 1_555 1_555
C6_2 H5_2 1_555 1_555
H6_2 C6_2 1_555 1_555
C7_2 H7_2 1_555 1_555
H8_2 C7_2 1_555 1_555
C8_2 C7_2 1_555 1_555
C9_2 C10_2 1_555 1_555
H10_2 C10_2 1_555 1_555
N1 C2 1_555 1_555
H13 N1 1_555 1_555
N2_2 C6_2 1_555 1_555
H14_2 N2_2 1_555 1_555
N3_2 C10_2 1_555 1_555
Nd1_2 N1 1_555 1_555
Nd2_2 N2_2 1_555 1_555
O1_2 C1_2 1_555 1_555
O2_2 C1_2 1_555 1_555
O3 C4 1_555 1_555
O4 C4 1_555 1_555
O5_2 C5_2 1_555 1_555
O6 C5_2 1_555 1_555
O7_2 C8_2 1_555 1_555
O8_2 C8_2 1_555 1_555
O9_2 C9_2 1_555 1_555
O10_2 C9_2 1_555 1_555
O11_2 C12_2 1_555 1_555
Nd3 O3 1_555 1_555
Nd5_2 O2_2 1_555 1_555
O13_2 Nd2_2 1_555 1_555
O15_2 Nd1_2 1_555 1_555
O16_2 Nd1_2 1_555 1_555
O17_2 Nd1_2 1_555 1_555
O18_2 Nd2_2 1_555 1_555
C3 N1 1_555 1_555
C7_2 N2_2 1_555 1_555
N3_2 Nd2_2 1_555 1_555
Nd1_2 O1_2 1_555 1_555
Nd1_2 O3 1_555 1_555
Nd1_2 O5_2 1_555 1_555
Nd1_2 O9_2 1_555 1_555
Nd2_2 O1_2 1_555 1_555
Nd2_2 O5_2 1_555 1_555
Nd2_2 O7_2 1_555 1_555
Nd2_2 O9_2 1_555 1_555
Nd2_2 O11_2 1_555 1_555
O4 Nd3 1_555 1_555
O6 Nd3 1_555 1_555
O11_2 Nd5_2 1_555 1_555
Nd5_2 O18_2 1_555 1_555
C5_3 C6_3 1_555 1_555
C6_3 H5_3 1_555 1_555
H6_3 C6_3 1_555 1_555
C7_3 H7_3 1_555 1_555
H8_3 C7_3 1_555 1_555
C8_3 C7_3 1_555 1_555
C10_3 H9_2 1_555 1_555
H10_3 C10_3 1_555 1_555
N2_3 C6_3 1_555 1_555
H14_3 N2_3 1_555 1_555
N3_3 C10_3 1_555 1_555
H15_2 N3_3 1_555 1_555
Nd2_3 N2_3 1_555 1_555
O5_3 C5_3 1_555 1_555
O16 C5_3 1_555 1_555
O7_3 C8_3 1_555 1_555
O8_3 C8_3 1_555 1_555
O13_3 Nd2_3 1_555 1_555
O18_3 Nd2_3 1_555 1_555
C7_3 N2_3 1_555 1_555
N3_3 Nd2_3 1_555 1_555
Nd2_3 O5_3 1_555 1_555
Nd2_3 O7_3 1_555 1_555
C1_3 C2_2 1_555 1_555
C2_2 H1_3 1_555 1_555
H2_2 C2_2 1_555 1_555
C3_2 H3_2 1_555 1_555
H4_2 C3_2 1_555 1_555
C4_2 C3_2 1_555 1_555
C11_2 H11_2 1_555 1_555
H12_2 C11_2 1_555 1_555
C12_3 C11_2 1_555 1_555
N1_2 C2_2 1_555 1_555
H13_2 N1_2 1_555 1_555
Nd3 N1_2 1_555 1_555
O1_3 C1_3 1_555 1_555
O2_3 C1_3 1_555 1_555
O14 C4_2 1_555 1_555
O9_3 C9_3 1_555 1_555
O17_2 C9_3 1_555 1_555
O11_3 C12_3 1_555 1_555
O12_2 C12_3 1_555 1_555
Nd5_3 O2_3 1_555 1_555
C3_2 N1_2 1_555 1_555
Nd3 O1_3 1_555 1_555
Nd3 O9_3 1_555 1_555
O11_3 Nd5_3 1_555 1_555
C11_3 H11_3 1_555 1_555
H12_3 C11_3 1_555 1_555
C12_4 C11_3 1_555 1_555
O9_4 C9_4 1_555 1_555
O17 C9_4 1_555 1_555
O11_4 C12_4 1_555 1_555
C5_4 C6_4 1_555 1_555
C6_4 H5_4 1_555 1_555
H6_4 C6_4 1_555 1_555
H8_4 C7_4 1_555 1_555
N2_4 C6_4 1_555 1_555
H14_4 N2_4 1_555 1_555
O5_4 C5_4 1_555 1_555
O16_2 C5_4 1_555 1_555
C7_4 N2_4 1_555 1_555
C1_4 C2_3 1_555 1_555
C2_3 H1_4 1_555 1_555
H2_3 C2_3 1_555 1_555
C3_3 H3_3 1_555 1_555
H4_3 C3_3 1_555 1_555
C4_3 C3_3 1_555 1_555
C5_5 C6_5 1_555 1_555
C6_5 H5_5 1_555 1_555
H6_5 C6_5 1_555 1_555
C7_5 H7_4 1_555 1_555
H8_5 C7_5 1_555 1_555
C8_4 C7_5 1_555 1_555
C9_5 C10_4 1_555 1_555
H10_4 C10_4 1_555 1_555
N1_3 C2_3 1_555 1_555
H13_3 N1_3 1_555 1_555
N2_5 C6_5 1_555 1_555
H14_5 N2_5 1_555 1_555
N3_4 C10_4 1_555 1_555
Nd1_3 N1_3 1_555 1_555
Nd2_4 N2_5 1_555 1_555
O1_4 C1_4 1_555 1_555
O2_4 C1_4 1_555 1_555
O3_2 C4_3 1_555 1_555
O4_2 C4_3 1_555 1_555
O5_5 C5_5 1_555 1_555
O6_2 C5_5 1_555 1_555
O7_4 C8_4 1_555 1_555
O8_4 C8_4 1_555 1_555
O9_5 C9_5 1_555 1_555
O10_3 C9_5 1_555 1_555
O11_5 C12_5 1_555 1_555
Nd3_2 O10_3 1_555 1_555
Nd4 O3_2 1_555 1_555
Nd5_4 O2_4 1_555 1_555
O13_4 Nd2_4 1_555 1_555
O14_2 Nd1_3 1_555 1_555
O15_3 Nd1_3 1_555 1_555
O16_3 Nd1_3 1_555 1_555
O17_3 Nd1_3 1_555 1_555
O18_5 Nd2_4 1_555 1_555
C3_3 N1_3 1_555 1_555
C7_5 N2_5 1_555 1_555
N3_4 Nd2_4 1_555 1_555
Nd1_3 O1_4 1_555 1_555
Nd1_3 O3_2 1_555 1_555
Nd1_3 O5_5 1_555 1_555
Nd1_3 O9_5 1_555 1_555
Nd2_4 O1_4 1_555 1_555
Nd2_4 O5_5 1_555 1_555
Nd2_4 O7_4 1_555 1_555
Nd2_4 O9_5 1_555 1_555
Nd2_4 O11_5 1_555 1_555
O4_2 Nd4 1_555 1_555
O6_2 Nd4 1_555 1_555
O11_5 Nd5_4 1_555 1_555
Nd3_2 O14_2 1_555 1_555
Nd5_4 O18_5 1_555 1_555
C5_6 C6_6 1_555 1_555
C6_6 H5_6 1_555 1_555
H6_6 C6_6 1_555 1_555
C7_6 H7_5 1_555 1_555
H8_6 C7_6 1_555 1_555
C8_5 C7_6 1_555 1_555
C9_6 C10_5 1_555 1_555
C10_5 H9_3 1_555 1_555
H10_5 C10_5 1_555 1_555
C11_4 H11_4 1_555 1_555
H12_4 C11_4 1_555 1_555
C12_6 C11_4 1_555 1_555
N2_6 C6_6 1_555 1_555
H14_6 N2_6 1_555 1_555
N3_5 C10_5 1_555 1_555
H15_3 N3_5 1_555 1_555
Nd2_5 N2_6 1_555 1_555
O1_5 C1_5 1_555 1_555
O2_5 C1_5 1_555 1_555
O5_6 C5_6 1_555 1_555
O7_5 C8_5 1_555 1_555
O8_5 C8_5 1_555 1_555
O9_6 C9_6 1_555 1_555
O10_4 C9_6 1_555 1_555
O11_6 C12_6 1_555 1_555
O12_3 C12_6 1_555 1_555
Nd4 O10_4 1_555 1_555
Nd5_5 O2_5 1_555 1_555
O13_5 Nd2_5 1_555 1_555
O14_3 Nd1_4 1_555 1_555
O15_4 Nd1_4 1_555 1_555
O16_4 Nd1_4 1_555 1_555
O17_4 Nd1_4 1_555 1_555
O18_6 Nd2_5 1_555 1_555
C7_6 N2_6 1_555 1_555
C11_4 N3_5 1_555 1_555
N3_5 Nd2_5 1_555 1_555
Nd1_4 O1_5 1_555 1_555
Nd1_4 O5_6 1_555 1_555
Nd1_4 O9_6 1_555 1_555
Nd2_5 O1_5 1_555 1_555
Nd2_5 O5_6 1_555 1_555
Nd2_5 O7_5 1_555 1_555
Nd2_5 O9_6 1_555 1_555
Nd2_5 O11_6 1_555 1_555
O11_6 Nd5_5 1_555 1_555
Nd4 O14_3 1_555 1_555
Nd5_5 O18_6 1_555 1_555
H2_4 C2_4 1_555 1_555
C3_4 H3_4 1_555 1_555
H4_4 C3_4 1_555 1_555
C4_4 C3_4 1_555 1_555
N1_4 C2_4 1_555 1_555
H13_4 N1_4 1_555 1_555
O3_3 C4_4 1_555 1_555
O4_3 C4_4 1_555 1_555
Nd3_2 O3_3 1_555 1_555
C3_4 N1_4 1_555 1_555
O4_3 Nd3_2 1_555 1_555
O6_3 Nd3_2 1_555 1_555
C9_7 C10_6 1_555 1_555
C10_6 H9_4 1_555 1_555
H10_6 C10_6 1_555 1_555
C11_5 H11_5 1_555 1_555
H12_5 C11_5 1_555 1_555
C12_7 C11_5 1_555 1_555
N3_6 C10_6 1_555 1_555
H15_4 N3_6 1_555 1_555
O7_6 C8_6 1_555 1_555
O8_6 C8_6 1_555 1_555
O9_7 C9_7 1_555 1_555
O17_4 C9_7 1_555 1_555
O11_7 C12_7 1_555 1_555
C11_5 N3_6 1_555 1_555
N3_6 Nd2_6 1_555 1_555
Nd2_6 O7_6 1_555 1_555
Nd2_6 O9_7 1_555 1_555
Nd2_6 O11_7 1_555 1_555
C1_6 C2_5 1_555 1_555
C2_5 H1_6 1_555 1_555
H2_5 C2_5 1_555 1_555
C3_5 H3_5 1_555 1_555
H4_5 C3_5 1_555 1_555
C4_5 C3_5 1_555 1_555
C5_7 C6_7 1_555 1_555
C6_7 H5_7 1_555 1_555
H6_7 C6_7 1_555 1_555
H8_7 C7_7 1_555 1_555
N1_5 C2_5 1_555 1_555
H13_5 N1_5 1_555 1_555
N2_7 C6_7 1_555 1_555
H14_7 N2_7 1_555 1_555
Nd3_2 N1_5 1_555 1_555
O1_6 C1_6 1_555 1_555
O2_6 C1_6 1_555 1_555
O14_2 C4_5 1_555 1_555
O15_3 C4_5 1_555 1_555
O5_7 C5_7 1_555 1_555
O16_3 C5_7 1_555 1_555
C3_5 N1_5 1_555 1_555
C7_7 N2_7 1_555 1_555
Nd3_2 O1_6 1_555 1_555
Nd3_2 O5_7 1_555 1_555
Nd5_6 O18_7 1_555 1_555
C1_7 C2_6 1_555 1_555
C2_6 H1_7 1_555 1_555
H2_6 C2_6 1_555 1_555
C3_6 H3_6 1_555 1_555
H4_6 C3_6 1_555 1_555
C4_6 C3_6 1_555 1_555
C5_8 C6_8 1_555 1_555
C6_8 H5_8 1_555 1_555
H6_8 C6_8 1_555 1_555
C7_8 H7_7 1_555 1_555
H8_8 C7_8 1_555 1_555
C8_7 C7_8 1_555 1_555
C9_8 C10_7 1_555 1_555
C10_7 H9_5 1_555 1_555
H10_7 C10_7 1_555 1_555
C11_6 H11_6 1_555 1_555
H12_6 C11_6 1_555 1_555
C12_8 C11_6 1_555 1_555
N1_6 C2_6 1_555 1_555
H13_6 N1_6 1_555 1_555
N2_8 C6_8 1_555 1_555
H14_8 N2_8 1_555 1_555
N3_7 C10_7 1_555 1_555
H15_5 N3_7 1_555 1_555
Nd4 N1_6 1_555 1_555
Nd2_7 N2_8 1_555 1_555
O1_7 C1_7 1_555 1_555
O2_7 C1_7 1_555 1_555
O14_3 C4_6 1_555 1_555
O15_4 C4_6 1_555 1_555
O5_8 C5_8 1_555 1_555
O16_4 C5_8 1_555 1_555
O7_7 C8_7 1_555 1_555
O8_7 C8_7 1_555 1_555
O9_8 C9_8 1_555 1_555
O17_3 C9_8 1_555 1_555
O11_8 C12_8 1_555 1_555
O12_5 C12_8 1_555 1_555
Nd5_7 O2_7 1_555 1_555
O13_7 Nd2_7 1_555 1_555
O18_8 Nd2_7 1_555 1_555
C3_6 N1_6 1_555 1_555
C7_8 N2_8 1_555 1_555
C11_6 N3_7 1_555 1_555
N3_7 Nd2_7 1_555 1_555
Nd4 O1_7 1_555 1_555
Nd4 O5_8 1_555 1_555
Nd4 O9_8 1_555 1_555
Nd2_7 O1_7 1_555 1_555
Nd2_7 O5_8 1_555 1_555
Nd2_7 O7_7 1_555 1_555
Nd2_7 O9_8 1_555 1_555
Nd2_7 O11_8 1_555 1_555
O11_8 Nd5_7 1_555 1_555
Nd5_7 O18_8 1_555 1_555
Nd3_3 O14_4 1_555 1_555
C5_9 C6_9 1_555 1_555
C6_9 H5_9 1_555 1_555
H6_9 C6_9 1_555 1_555
C7_9 H7_8 1_555 1_555
H8_9 C7_9 1_555 1_555
C8_8 C7_9 1_555 1_555
C9_9 C10_8 1_555 1_555
C10_8 H9_6 1_555 1_555
H10_8 C10_8 1_555 1_555
C11_7 H11_7 1_555 1_555
H12_7 C11_7 1_555 1_555
C12_9 C11_7 1_555 1_555
N2_9 C6_9 1_555 1_555
H14_9 N2_9 1_555 1_555
N3_8 C10_8 1_555 1_555
H15_6 N3_8 1_555 1_555
Nd5_4 N2_9 1_555 1_555
O1_8 C1_8 1_555 1_555
O13_4 C1_8 1_555 1_555
O5_9 C5_9 1_555 1_555
O7_8 C8_8 1_555 1_555
O8_8 C8_8 1_555 1_555
O9_9 C9_9 1_555 1_555
O10_5 C9_9 1_555 1_555
O18_5 C12_9 1_555 1_555
O12_6 C12_9 1_555 1_555
O15_5 Nd1_5 1_555 1_555
O16_5 Nd1_5 1_555 1_555
O17_5 Nd1_5 1_555 1_555
C7_9 N2_9 1_555 1_555
C11_7 N3_8 1_555 1_555
N3_8 Nd5_4 1_555 1_555
Nd1_5 O1_8 1_555 1_555
Nd1_5 O5_9 1_555 1_555
Nd1_5 O9_9 1_555 1_555
Nd5_4 O1_8 1_555 1_555
Nd5_4 O5_9 1_555 1_555
Nd5_4 O7_8 1_555 1_555
Nd5_4 O9_9 1_555 1_555
C1_9 C2_7 1_555 1_555
C2_7 H1_9 1_555 1_555
H2_7 C2_7 1_555 1_555
C3_7 H3_7 1_555 1_555
H4_7 C3_7 1_555 1_555
C4_7 C3_7 1_555 1_555
C5_10 C6_10 1_555 1_555
C6_10 H5_10 1_555 1_555
H6_10 C6_10 1_555 1_555
C7_10 H7_9 1_555 1_555
H8_10 C7_10 1_555 1_555
C8_9 C7_10 1_555 1_555
C9_10 C10_9 1_555 1_555
H10_9 C10_9 1_555 1_555
N1_7 C2_7 1_555 1_555
H13_7 N1_7 1_555 1_555
N2_10 C6_10 1_555 1_555
H14_10 N2_10 1_555 1_555
N3_9 C10_9 1_555 1_555
Nd1_6 N1_7 1_555 1_555
Nd5_5 N2_10 1_555 1_555
O1_9 C1_9 1_555 1_555
O13_5 C1_9 1_555 1_555
O3_4 C4_7 1_555 1_555
O4_4 C4_7 1_555 1_555
O5_10 C5_10 1_555 1_555
O6_4 C5_10 1_555 1_555
O7_9 C8_9 1_555 1_555
O8_9 C8_9 1_555 1_555
O9_10 C9_10 1_555 1_555
O10_6 C9_10 1_555 1_555
O18_6 C12_10 1_555 1_555
Nd3_3 O3_4 1_555 1_555
O15_6 Nd1_6 1_555 1_555
O16_6 Nd1_6 1_555 1_555
O17_6 Nd1_6 1_555 1_555
C3_7 N1_7 1_555 1_555
C7_10 N2_10 1_555 1_555
N3_9 Nd5_5 1_555 1_555
Nd1_6 O1_9 1_555 1_555
Nd1_6 O3_4 1_555 1_555
Nd1_6 O5_10 1_555 1_555
Nd1_6 O9_10 1_555 1_555
Nd5_5 O1_9 1_555 1_555
Nd5_5 O5_10 1_555 1_555
Nd5_5 O7_9 1_555 1_555
Nd5_5 O9_10 1_555 1_555
O4_4 Nd3_3 1_555 1_555
O6_4 Nd3_3 1_555 1_555
C1_10 C2_8 1_555 1_555
C2_8 H1_10 1_555 1_555
H2_8 C2_8 1_555 1_555
C3_8 H3_8 1_555 1_555
H4_8 C3_8 1_555 1_555
C4_8 C3_8 1_555 1_555
C11_8 H11_8 1_555 1_555
H12_8 C11_8 1_555 1_555
C12_11 C11_8 1_555 1_555
N1_8 C2_8 1_555 1_555
H13_8 N1_8 1_555 1_555
Nd3_3 N1_8 1_555 1_555
O1_10 C1_10 1_555 1_555
O13_3 C1_10 1_555 1_555
O14_4 C4_8 1_555 1_555
O9_11 C9_11 1_555 1_555
O17_6 C9_11 1_555 1_555
O18_3 C12_11 1_555 1_555
O12_7 C12_11 1_555 1_555
C3_8 N1_8 1_555 1_555
Nd3_3 O1_10 1_555 1_555
Nd3_3 O9_11 1_555 1_555
C5_11 C6_11 1_555 1_555
C6_11 H5_11 1_555 1_555
H6_11 C6_11 1_555 1_555
C7_11 H7_10 1_555 1_555
H8_11 C7_11 1_555 1_555
C8_10 C7_11 1_555 1_555
C10_10 H9_7 1_555 1_555
H10_10 C10_10 1_555 1_555
N2_11 C6_11 1_555 1_555
H14_11 N2_11 1_555 1_555
N3_10 C10_10 1_555 1_555
H15_7 N3_10 1_555 1_555
Nd5_3 N2_11 1_555 1_555
O5_11 C5_11 1_555 1_555
O16_5 C5_11 1_555 1_555
O7_10 C8_10 1_555 1_555
O8_10 C8_10 1_555 1_555
C7_11 N2_11 1_555 1_555
N3_10 Nd5_3 1_555 1_555
Nd5_3 O5_11 1_555 1_555
Nd5_3 O7_10 1_555 1_555
C5_12 C6_12 1_555 1_555
C6_12 H5_12 1_555 1_555
H6_12 C6_12 1_555 1_555
H8_12 C7_12 1_555 1_555
N2_12 C6_12 1_555 1_555
H14_12 N2_12 1_555 1_555
O5_12 C5_12 1_555 1_555
O16_6 C5_12 1_555 1_555
C7_12 N2_12 1_555 1_555
C11_9 H11_9 1_555 1_555
H12_9 C11_9 1_555 1_555
C12_12 C11_9 1_555 1_555
O9_12 C9_12 1_555 1_555
O17_5 C9_12 1_555 1_555
O18_4 C12_12 1_555 1_555
C1_11 C2_9 1_555 1_555
C2_9 H1_11 1_555 1_555
H2_9 C2_9 1_555 1_555
C3_9 H3_9 1_555 1_555
H4_9 C3_9 1_555 1_555
C4_9 C3_9 1_555 1_555
C5_13 C6_13 1_555 1_555
C6_13 H5_13 1_555 1_555
H6_13 C6_13 1_555 1_555
C7_13 H7_11 1_555 1_555
H8_13 C7_13 1_555 1_555
C8_11 C7_13 1_555 1_555
C9_13 C10_11 1_555 1_555
H10_11 C10_11 1_555 1_555
N1_9 C2_9 1_555 1_555
H13_9 N1_9 1_555 1_555
N2_13 C6_13 1_555 1_555
H14_13 N2_13 1_555 1_555
N3_11 C10_11 1_555 1_555
Nd1_7 N1_9 1_555 1_555
Nd5 N2_13 1_555 1_555
O1_11 C1_11 1_555 1_555
O13 C1_11 1_555 1_555
O3_5 C4_9 1_555 1_555
O4_5 C4_9 1_555 1_555
O5_13 C5_13 1_555 1_555
O6_5 C5_13 1_555 1_555
O7_11 C8_11 1_555 1_555
O8_11 C8_11 1_555 1_555
O9_13 C9_13 1_555 1_555
O10_7 C9_13 1_555 1_555
O18 C12_13 1_555 1_555
Nd3_4 O10_7 1_555 1_555
Nd4_2 O3_5 1_555 1_555
O14_5 Nd1_7 1_555 1_555
O15_7 Nd1_7 1_555 1_555
O16_7 Nd1_7 1_555 1_555
O17_7 Nd1_7 1_555 1_555
C3_9 N1_9 1_555 1_555
C7_13 N2_13 1_555 1_555
N3_11 Nd5 1_555 1_555
Nd1_7 O1_11 1_555 1_555
Nd1_7 O3_5 1_555 1_555
Nd1_7 O5_13 1_555 1_555
Nd1_7 O9_13 1_555 1_555
Nd5 O1_11 1_555 1_555
Nd5 O5_13 1_555 1_555
Nd5 O7_11 1_555 1_555
Nd5 O9_13 1_555 1_555
O4_5 Nd4_2 1_555 1_555
O6_5 Nd4_2 1_555 1_555
Nd3_4 O14_5 1_555 1_555
H2_10 C2_10 1_555 1_555
C3_10 H3_10 1_555 1_555
H4_10 C3_10 1_555 1_555
C4_10 C3_10 1_555 1_555
N1_10 C2_10 1_555 1_555
H13_10 N1_10 1_555 1_555
O3_6 C4_10 1_555 1_555
O4_6 C4_10 1_555 1_555
Nd3_4 O3_6 1_555 1_555
C3_10 N1_10 1_555 1_555
O4_6 Nd3_4 1_555 1_555
O6_6 Nd3_4 1_555 1_555
C5_14 C6_14 1_555 1_555
C6_14 H5_14 1_555 1_555
H6_14 C6_14 1_555 1_555
C7_14 H7_12 1_555 1_555
H8_14 C7_14 1_555 1_555
C8_12 C7_14 1_555 1_555
C9_14 C10_12 1_555 1_555
C10_12 H9_8 1_555 1_555
H10_12 C10_12 1_555 1_555
C11_10 H11_10 1_555 1_555
H12_10 C11_10 1_555 1_555
C12_14 C11_10 1_555 1_555
N2_14 C6_14 1_555 1_555
H14_14 N2_14 1_555 1_555
N3_12 C10_12 1_555 1_555
H15_8 N3_12 1_555 1_555
Nd5_2 N2_14 1_555 1_555
O1_12 C1_12 1_555 1_555
O13_2 C1_12 1_555 1_555
O5_14 C5_14 1_555 1_555
O7_12 C8_12 1_555 1_555
O8_12 C8_12 1_555 1_555
O9_14 C9_14 1_555 1_555
O10_8 C9_14 1_555 1_555
O18_2 C12_14 1_555 1_555
O12_8 C12_14 1_555 1_555
Nd4_2 O10_8 1_555 1_555
O14_6 Nd1_8 1_555 1_555
O15_8 Nd1_8 1_555 1_555
O16_8 Nd1_8 1_555 1_555
O17_8 Nd1_8 1_555 1_555
C7_14 N2_14 1_555 1_555
C11_10 N3_12 1_555 1_555
N3_12 Nd5_2 1_555 1_555
Nd1_8 O1_12 1_555 1_555
Nd1_8 O5_14 1_555 1_555
Nd1_8 O9_14 1_555 1_555
Nd5_2 O1_12 1_555 1_555
Nd5_2 O5_14 1_555 1_555
Nd5_2 O7_12 1_555 1_555
Nd5_2 O9_14 1_555 1_555
Nd4_2 O14_6 1_555 1_555
C1_13 C2_11 1_555 1_555
C2_11 H1_13 1_555 1_555
H2_11 C2_11 1_555 1_555
C3_11 H3_11 1_555 1_555
H4_11 C3_11 1_555 1_555
C4_11 C3_11 1_555 1_555
C5_15 C6_15 1_555 1_555
C6_15 H5_15 1_555 1_555
H6_15 C6_15 1_555 1_555
H8_15 C7_15 1_555 1_555
N1_11 C2_11 1_555 1_555
H13_11 N1_11 1_555 1_555
N2_15 C6_15 1_555 1_555
H14_15 N2_15 1_555 1_555
Nd3_4 N1_11 1_555 1_555
O1_13 C1_13 1_555 1_555
O13_6 C1_13 1_555 1_555
O14_5 C4_11 1_555 1_555
O15_7 C4_11 1_555 1_555
O5_15 C5_15 1_555 1_555
O16_7 C5_15 1_555 1_555
C3_11 N1_11 1_555 1_555
C7_15 N2_15 1_555 1_555
Nd3_4 O1_13 1_555 1_555
Nd3_4 O5_15 1_555 1_555
C9_15 C10_13 1_555 1_555
C10_13 H9_9 1_555 1_555
H10_13 C10_13 1_555 1_555
C11_11 H11_11 1_555 1_555
H12_11 C11_11 1_555 1_555
C12_15 C11_11 1_555 1_555
N3_13 C10_13 1_555 1_555
H15_9 N3_13 1_555 1_555
O7_13 C8_13 1_555 1_555
O8_13 C8_13 1_555 1_555
O9_15 C9_15 1_555 1_555
O17_8 C9_15 1_555 1_555
O18_7 C12_15 1_555 1_555
C11_11 N3_13 1_555 1_555
N3_13 Nd5_6 1_555 1_555
Nd5_6 O7_13 1_555 1_555
Nd5_6 O9_15 1_555 1_555
C1_14 C2_12 1_555 1_555
C2_12 H1_14 1_555 1_555
H2_12 C2_12 1_555 1_555
C3_12 H3_12 1_555 1_555
H4_12 C3_12 1_555 1_555
C4_12 C3_12 1_555 1_555
C5_16 C6_16 1_555 1_555
C6_16 H5_16 1_555 1_555
H6_16 C6_16 1_555 1_555
C7_16 H7_14 1_555 1_555
H8_16 C7_16 1_555 1_555
C8_14 C7_16 1_555 1_555
C9_16 C10_14 1_555 1_555
C10_14 H9_10 1_555 1_555
H10_14 C10_14 1_555 1_555
C11_12 H11_12 1_555 1_555
H12_12 C11_12 1_555 1_555
C12_16 C11_12 1_555 1_555
N1_12 C2_12 1_555 1_555
H13_12 N1_12 1_555 1_555
N2_16 C6_16 1_555 1_555
H14_16 N2_16 1_555 1_555
N3_14 C10_14 1_555 1_555
H15_10 N3_14 1_555 1_555
Nd4_2 N1_12 1_555 1_555
Nd5_7 N2_16 1_555 1_555
O1_14 C1_14 1_555 1_555
O13_7 C1_14 1_555 1_555
O14_6 C4_12 1_555 1_555
O15_8 C4_12 1_555 1_555
O5_16 C5_16 1_555 1_555
O16_8 C5_16 1_555 1_555
O7_14 C8_14 1_555 1_555
O8_14 C8_14 1_555 1_555
O9_16 C9_16 1_555 1_555
O17_7 C9_16 1_555 1_555
O18_8 C12_16 1_555 1_555
O12_10 C12_16 1_555 1_555
C3_12 N1_12 1_555 1_555
C7_16 N2_16 1_555 1_555
C11_12 N3_14 1_555 1_555
N3_14 Nd5_7 1_555 1_555
Nd4_2 O1_14 1_555 1_555
Nd4_2 O5_16 1_555 1_555
Nd4_2 O9_16 1_555 1_555
Nd5_7 O1_14 1_555 1_555
Nd5_7 O5_16 1_555 1_555
Nd5_7 O7_14 1_555 1_555
Nd5_7 O9_16 1_555 1_555
H2_13 C2_13 1_555 1_555
C3_13 H3_13 1_555 1_555
H4_13 C3_13 1_555 1_555
C4_13 C3_13 1_555 1_555
N1_13 C2_13 1_555 1_555
H13_13 N1_13 1_555 1_555
O3_7 C4_13 1_555 1_555
O4_7 C4_13 1_555 1_555
Nd4_3 O3_7 1_555 1_555
C3_13 N1_13 1_555 1_555
O4_7 Nd4_3 1_555 1_555
O6_7 Nd4_3 1_555 1_555
Nd4_3 O14_7 1_555 1_555
C1_15 C2_14 1_555 1_555
C2_14 H1_15 1_555 1_555
H2_14 C2_14 1_555 1_555
C3_14 H3_14 1_555 1_555
H4_14 C3_14 1_555 1_555
C4_14 C3_14 1_555 1_555
N1_14 C2_14 1_555 1_555
H13_14 N1_14 1_555 1_555
Nd4_3 N1_14 1_555 1_555
O1_15 C1_15 1_555 1_555
O2_8 C1_15 1_555 1_555
O14_7 C4_14 1_555 1_555
C3_14 N1_14 1_555 1_555
Nd4_3 O1_15 1_555 1_555
C11_13 H11_13 1_555 1_555
H12_13 C11_13 1_555 1_555
C10_15 H9_12 1_555 1_555
H10_15 C10_15 1_555 1_555
N3_15 C10_15 1_555 1_555
H15_12 N3_15 1_555 1_555
O7_15 C8_15 1_555 1_555
O8_15 C8_15 1_555 1_555
N3_15 Nd5_8 1_555 1_555
Nd5_8 O7_15 1_555 1_555
H2_15 C2_15 1_555 1_555
C3_15 H3_15 1_555 1_555
H4_15 C3_15 1_555 1_555
C4_15 C3_15 1_555 1_555
N1_15 C2_15 1_555 1_555
H13_15 N1_15 1_555 1_555
O3_8 C4_15 1_555 1_555
O4_8 C4_15 1_555 1_555
Nd4_4 O3_8 1_555 1_555
C3_15 N1_15 1_555 1_555
O4_8 Nd4_4 1_555 1_555
O6_8 Nd4_4 1_555 1_555
Nd4_4 O14_8 1_555 1_555
C1_16 C2_16 1_555 1_555
C2_16 H1_16 1_555 1_555
H2_16 C2_16 1_555 1_555
C3_16 H3_16 1_555 1_555
H4_16 C3_16 1_555 1_555
C4_16 C3_16 1_555 1_555
N1_16 C2_16 1_555 1_555
H13_16 N1_16 1_555 1_555
Nd4_4 N1_16 1_555 1_555
O1_16 C1_16 1_555 1_555
O13_8 C1_16 1_555 1_555
O14_8 C4_16 1_555 1_555
C3_16 N1_16 1_555 1_555
Nd4_4 O1_16 1_555 1_555
C10_16 H9_13 1_555 1_555
H10_16 C10_16 1_555 1_555
N3_16 C10_16 1_555 1_555
H15_13 N3_16 1_555 1_555
O7_16 C8_16 1_555 1_555
O8_16 C8_16 1_555 1_555
N3_16 Nd2_8 1_555 1_555
Nd2_8 O7_16 1_555 1_555
C11_14 H11_14 1_555 1_555
H12_14 C11_14 1_555 1_555
C11_15 H11_15 1_555 1_555
H12_15 C11_15 1_555 1_555
C11_16 H11_16 1_555 1_555
H12_16 C11_16 1_555 1_555

#END
