
###############################################################################
#
# This file contains modified crystal structure data generated from the
# MOF subset of the Cambridge Structural Database (CSD) v543 
# hosted by the Cambridge Crystallographic Data Centre (CCDC).
#
# This work is licensed under the Creative Commons
# Attribution-NonCommercial-ShareAlike 4.0 International License.
# To view a copy of this license, visit
# http://creativecommons.org/licenses/by-nc-sa/4.0/
# or send a letter to
# Creative Commons, PO Box 1866, Mountain View, CA 94042, USA.
#
# CIF created using the CSD Python API on 29 September 2022
# The structure has been converted into the P1 space group
# The structure has a 3D framework
# The original CSD entry ZETQEW is in the tetragonal crystal system
# The framework has been calculated to contain at least 10.0% void space
# The void calculation uses a probe of radius 1.32A, grid spacing 0.4
#
###############################################################################

data_ZETQEW
_chemical_formula_moiety         '(C192 H240 Eu32 N48 O184)n'
_symmetry_cell_setting           triclinic
_symmetry_space_group_name_H-M   'P 1'
_symmetry_Int_Tables_number      1
_space_group_name_Hall           'P 1'
loop_
_symmetry_equiv_pos_site_id
_symmetry_equiv_pos_as_xyz
1 x,y,z
_cell_length_a                   26.019(3)
_cell_length_b                   26.019(3)
_cell_length_c                   12.0188(12)
_cell_angle_alpha                90
_cell_angle_beta                 90
_cell_angle_gamma                90
_cell_volume                     8136.59
loop_
_atom_site_label
_atom_site_type_symbol
_atom_site_fract_x
_atom_site_fract_y
_atom_site_fract_z
C1 C 0.1812(2) 0.7032(2) 0.0957(5)
H1 H 0.1157 0.6753 0.0226
C5 C 0.3452(2) 0.6322(2) 0.0326(6)
C6 C 0.3902(3) 0.6639(3) 0.0703(7)
H5 H 0.4165 0.6407 0.0976
H6 H 0.4042 0.6814 0.0059
C7 C 0.4198(3) 0.7040(4) 0.2435(8)
H7 H 0.4221 0.7384 0.2741
H8 H 0.4529 0.6954 0.2111
C8 C 0.4073(4) 0.6666(4) 0.3348(9)
C9 C 0.2492(3) 0.5770(3) 0.3691(5)
C10 C 0.2764(3) 0.6003(2) 0.4672(6)
H9 H 0.2592 0.5899 0.5353
H10 H 0.3114 0.5876 0.4700
C11 C 0.2317(3) 0.6798(3) 0.5112(6)
H11 H 0.2395 0.6876 0.5883
H12 H 0.2039 0.6549 0.5105
C12 C 0.2137(3) 0.7285(3) 0.4538(6)
Eu1 Eu 0.217899(12) 0.580691(12) 0.09717(3)
Eu2 Eu 0.292192(12) 0.686679(12) 0.25634(3)
N2 N 0.3800(2) 0.7026(2) 0.1573(5)
H14 H 0.3788 0.7340 0.1242
N3 N 0.2767(2) 0.65695(19) 0.4596(5)
H15 H 0.3043 0.6678 0.4997
O1 O 0.21629(16) 0.67430(15) 0.1337(4)
O2 O 0.16951(16) 0.74675(16) 0.1325(4)
O5 O 0.30584(16) 0.62972(16) 0.0967(4)
O7 O 0.3658(2) 0.6429(2) 0.3301(5)
O8 O 0.4396(3) 0.6647(4) 0.4132(8)
O9 O 0.24857(17) 0.60396(17) 0.2799(4)
O10 O 0.23091(17) 0.53351(16) 0.3763(4)
O11 O 0.22249(16) 0.73233(16) 0.3486(4)
O12 O 0.19163(16) 0.76108(14) 0.5086(3)
Eu3 Eu 0.169309(12) 0.467899(12) 0.34717(3)
Eu5 Eu 0.207808(12) 0.813321(12) 0.24366(3)
O13 O 0.33049(16) 0.75325(16) 0.3675(4)
O14 O 0.18012(15) 0.49945(16) 0.1654(3)
O15 O 0.14804(18) 0.52367(17) 0.0053(4)
O16 O 0.14020(17) 0.60023(17) 0.1925(4)
O17 O 0.28351(16) 0.51909(17) 0.1263(4)
O18 O 0.27751(16) 0.76767(16) 0.1514(4)
C2 C 0.1503(2) 0.6832(2) 0.9981(5)
H2 H 0.1481 0.7097 0.9416
C3 C 0.2101(3) 0.6484(3) 0.8583(6)
H3 H 0.2296 0.6789 0.8770
H4 H 0.1910 0.6553 0.7906
C4 C 0.2465(2) 0.6038(3) 0.8390(6)
N1 N 0.17377(19) 0.63670(19) 0.9493(4)
H13 H 0.1478 0.6177 0.9195
O3 O 0.24945(16) 0.56988(15) 0.9154(3)
O4 O 0.27367(17) 0.60196(18) 0.7553(4)
O6 O 0.35023(17) 0.60980(17) 0.9425(4)
Eu4 Eu 0.330691(12) 0.532101(12) 0.84717(3)
C1_2 C 0.3188(2) 0.2968(2) 0.5957(5)
C2_2 C 0.3497(2) 0.3168(2) 0.4981(5)
H1_2 H 0.3843 0.3247 0.5226
H2_2 H 0.3519 0.2903 0.4416
C3_2 C 0.2899(3) 0.3516(3) 0.3583(6)
H3_2 H 0.2704 0.3211 0.3770
H4_2 H 0.3090 0.3447 0.2906
C4_2 C 0.2535(2) 0.3962(3) 0.3390(6)
C5_2 C 0.1548(2) 0.3678(2) 0.5326(6)
C6_2 C 0.1098(3) 0.3361(3) 0.5703(7)
H5_2 H 0.0835 0.3593 0.5976
H6_2 H 0.0958 0.3186 0.5059
C7_2 C 0.0802(3) 0.2960(4) 0.7435(8)
H7_2 H 0.0779 0.2616 0.7741
H8_2 H 0.0471 0.3046 0.7111
C8_2 C 0.0927(4) 0.3334(4) 0.8348(9)
C9_2 C 0.2508(3) 0.4230(3) 0.8691(5)
C10_2 C 0.2236(3) 0.3997(2) 0.9672(6)
H10_2 H 0.1886 0.4124 0.9700
C12_2 C 0.2863(3) 0.2715(3) 0.9538(6)
Eu1_2 Eu 0.282101(12) 0.419309(12) 0.59717(3)
Eu2_2 Eu 0.207808(12) 0.313321(12) 0.75634(3)
N1_2 N 0.32623(19) 0.36330(19) 0.4493(4)
H13_2 H 0.3522 0.3823 0.4195
N2_2 N 0.1200(2) 0.2974(2) 0.6573(5)
H14_2 H 0.1212 0.2660 0.6242
N3_2 N 0.2233(2) 0.34305(19) 0.9596(5)
H15_2 H 0.1957 0.3322 0.9997
O1_2 O 0.28371(16) 0.32570(15) 0.6337(4)
O2_2 O 0.33049(16) 0.25325(16) 0.6325(4)
O3_2 O 0.25055(16) 0.43012(15) 0.4154(3)
O4_2 O 0.22633(17) 0.39804(18) 0.2553(4)
O5_2 O 0.19416(16) 0.37028(16) 0.5967(4)
O6_2 O 0.14977(17) 0.39020(17) 0.4425(4)
O7_2 O 0.1342(2) 0.3571(2) 0.8301(5)
O8_2 O 0.0604(3) 0.3353(4) 0.9132(8)
O9_2 O 0.25143(17) 0.39604(17) 0.7799(4)
O10_2 O 0.26909(17) 0.46649(16) 0.8763(4)
O11_2 O 0.27751(16) 0.26767(16) 0.8486(4)
Eu5_2 Eu 0.292192(12) 0.186679(12) 0.74366(3)
O13_2 O 0.16951(16) 0.24675(16) 0.8675(4)
O14_2 O 0.31988(15) 0.50055(16) 0.6654(3)
O15_2 O 0.35196(18) 0.47633(17) 0.5053(4)
O16_2 O 0.35980(17) 0.39977(17) 0.6925(4)
O17_2 O 0.21649(16) 0.48091(17) 0.6263(4)
O18_2 O 0.22249(16) 0.23233(16) 0.6514(4)
C1_3 C 0.0468(2) 0.4312(2) 0.3457(5)
C2_3 C 0.0668(2) 0.4003(2) 0.2481(5)
H1_3 H 0.0747 0.3657 0.2726
H2_3 H 0.0403 0.3981 0.1916
C3_3 C 0.1016(3) 0.4601(3) 0.1083(6)
H3_3 H 0.0711 0.4796 0.1270
H4_3 H 0.0947 0.4410 0.0406
C4_3 C 0.1462(3) 0.4965(2) 0.0890(6)
C5_3 C 0.1178(2) 0.5952(2) 0.2826(6)
C6_3 C 0.0861(3) 0.6402(3) 0.3203(7)
H5_3 H 0.1093 0.6665 0.3476
H6_3 H 0.0686 0.6542 0.2559
C7_3 C 0.0460(4) 0.6698(3) 0.4935(8)
H7_3 H 0.0116 0.6721 0.5241
H8_3 H 0.0546 0.7029 0.4611
C8_3 C 0.0834(4) 0.6573(4) 0.5848(9)
C9_3 C 0.1730(3) 0.4992(3) 0.6191(5)
C10_3 C 0.1497(2) 0.5264(3) 0.7172(6)
H9_2 H 0.1601 0.5092 0.7853
H10_3 H 0.1624 0.5614 0.7200
C11_2 C 0.0702(3) 0.4817(3) 0.7612(6)
H11_2 H 0.0624 0.4895 0.8383
H12_2 H 0.0951 0.4539 0.7605
C12_3 C 0.0215(3) 0.4637(3) 0.7038(6)
Eu2_3 Eu 0.063321(12) 0.542192(12) 0.50634(3)
N1_3 N 0.11330(19) 0.42377(19) 0.1993(4)
H13_3 H 0.1323 0.3978 0.1695
N2_3 N 0.0474(2) 0.6300(2) 0.4073(5)
H14_3 H 0.0160 0.6288 0.3742
N3_3 N 0.09305(19) 0.5267(2) 0.7096(5)
H15_3 H 0.0822 0.5543 0.7497
O1_3 O 0.07570(15) 0.46629(16) 0.3837(4)
O2_3 O 0.00325(16) 0.41951(16) 0.3825(4)
O5_3 O 0.12028(16) 0.55584(16) 0.3467(4)
O7_3 O 0.1071(2) 0.6158(2) 0.5801(5)
O8_3 O 0.0853(4) 0.6896(3) 0.6632(8)
O9_3 O 0.14604(17) 0.49857(17) 0.5299(4)
O11_3 O 0.01767(16) 0.47249(16) 0.5986(4)
O12_2 O 0.98892(14) 0.44163(16) 0.7586(3)
Eu5_3 Eu 0.936679(12) 0.457808(12) 0.49366(3)
O13_3 O 0.99675(16) 0.58049(16) 0.6175(4)
O18_3 O 0.98233(16) 0.52751(16) 0.4014(4)
H7_4 H 0.4884 0.3279 0.0241
C8_4 C 0.4166(4) 0.3427(4) 0.0848(9)
C9_4 C 0.3270(3) 0.5008(3) 0.1191(5)
C10_4 C 0.3503(2) 0.4736(3) 0.2172(6)
H9_3 H 0.3399 0.4908 0.2853
H10_4 H 0.3376 0.4386 0.2200
C11_3 C 0.4298(3) 0.5183(3) 0.2612(6)
H11_3 H 0.4376 0.5105 0.3383
H12_3 H 0.4049 0.5461 0.2605
C12_4 C 0.4785(3) 0.5363(3) 0.2038(6)
Eu2_4 Eu 0.436679(12) 0.457808(12) 0.00634(3)
N3_4 N 0.40695(19) 0.4733(2) 0.2096(5)
H15_4 H 0.4178 0.4457 0.2497
O7_4 O 0.3929(2) 0.3842(2) 0.0801(5)
O8_4 O 0.4147(4) 0.3104(3) 0.1632(8)
O9_4 O 0.35396(17) 0.50143(17) 0.0299(4)
O11_4 O 0.48233(16) 0.52751(16) 0.0986(4)
O12_3 O 0.51108(14) 0.55837(16) 0.2586(3)
O13_4 O 0.50325(16) 0.41951(16) 0.1175(4)
C1_4 C 0.4532(2) 0.5688(2) 0.8457(5)
C2_4 C 0.4332(2) 0.5997(2) 0.7481(5)
H1_4 H 0.4253 0.6343 0.7726
H2_4 H 0.4597 0.6019 0.6916
C3_4 C 0.3984(3) 0.5399(3) 0.6083(6)
H3_4 H 0.4289 0.5204 0.6270
H4_4 H 0.4053 0.5590 0.5406
C4_4 C 0.3538(3) 0.5035(2) 0.5890(6)
C5_4 C 0.3822(2) 0.4048(2) 0.7826(6)
C6_4 C 0.4139(3) 0.3598(3) 0.8203(7)
H5_4 H 0.3907 0.3335 0.8476
H6_4 H 0.4314 0.3458 0.7559
C7_4 C 0.4540(4) 0.3302(3) 0.9935(8)
H8_4 H 0.4454 0.2971 0.9611
N1_4 N 0.38670(19) 0.57623(19) 0.6993(4)
H13_4 H 0.3677 0.6022 0.6695
N2_4 N 0.4526(2) 0.3700(2) 0.9073(5)
H14_4 H 0.4840 0.3712 0.8742
O1_4 O 0.42430(15) 0.53371(16) 0.8837(4)
O2_4 O 0.49675(16) 0.58049(16) 0.8825(4)
O5_4 O 0.37972(16) 0.44416(16) 0.8467(4)
Eu5_4 Eu 0.563321(12) 0.542192(12) 0.99366(3)
O18_4 O 0.51767(16) 0.47249(16) 0.9014(4)
C1_5 C 0.6812(2) 0.2032(2) 0.5957(5)
C2_5 C 0.6503(2) 0.1832(2) 0.4981(5)
H1_5 H 0.6157 0.1753 0.5226
H2_5 H 0.6481 0.2097 0.4416
C3_5 C 0.7101(3) 0.1484(3) 0.3583(6)
H3_5 H 0.7296 0.1789 0.3770
H4_5 H 0.6910 0.1553 0.2906
C4_5 C 0.7465(2) 0.1038(3) 0.3390(6)
C5_5 C 0.8452(2) 0.1322(2) 0.5326(6)
C6_5 C 0.8902(3) 0.1639(3) 0.5703(7)
H5_5 H 0.9165 0.1407 0.5976
H6_5 H 0.9042 0.1814 0.5059
C7_5 C 0.9198(3) 0.2040(4) 0.7435(8)
H7_5 H 0.9221 0.2384 0.7741
H8_5 H 0.9529 0.1954 0.7111
C8_5 C 0.9073(4) 0.1666(4) 0.8348(9)
C9_5 C 0.7492(3) 0.0770(3) 0.8691(5)
C10_5 C 0.7764(3) 0.1003(2) 0.9672(6)
H10_5 H 0.8114 0.0876 0.9700
C12_5 C 0.7137(3) 0.2285(3) 0.9538(6)
Eu1_3 Eu 0.717899(12) 0.080691(12) 0.59717(3)
Eu2_5 Eu 0.792192(12) 0.186679(12) 0.75634(3)
N1_5 N 0.67377(19) 0.13670(19) 0.4493(4)
H13_5 H 0.6478 0.1177 0.4195
N2_5 N 0.8800(2) 0.2026(2) 0.6573(5)
H14_5 H 0.8788 0.2340 0.6242
N3_5 N 0.7767(2) 0.15695(19) 0.9596(5)
H15_5 H 0.8043 0.1678 0.9997
O1_5 O 0.71629(16) 0.17430(15) 0.6337(4)
O2_5 O 0.66951(16) 0.24675(16) 0.6325(4)
O3_3 O 0.74945(16) 0.06988(15) 0.4154(3)
O4_3 O 0.77367(17) 0.10196(18) 0.2553(4)
O5_5 O 0.80584(16) 0.12972(16) 0.5967(4)
O6_3 O 0.85023(17) 0.10980(17) 0.4425(4)
O7_5 O 0.8658(2) 0.1429(2) 0.8301(5)
O8_5 O 0.9396(3) 0.1647(4) 0.9132(8)
O9_5 O 0.74857(17) 0.10396(17) 0.7799(4)
O10_3 O 0.73091(17) 0.03351(16) 0.8763(4)
O11_5 O 0.72249(16) 0.23233(16) 0.8486(4)
Eu4_2 Eu 0.830691(12) 0.032101(12) 0.34717(3)
Eu5_5 Eu 0.707808(12) 0.313321(12) 0.74366(3)
O13_5 O 0.83049(16) 0.25325(16) 0.8675(4)
O15_3 O 0.64804(18) 0.02367(17) 0.5053(4)
O16_3 O 0.64020(17) 0.10023(17) 0.6925(4)
O17_3 O 0.78351(16) 0.01909(17) 0.6263(4)
O18_5 O 0.77751(16) 0.26767(16) 0.6514(4)
O14_3 O 0.81988(15) 0.00055(16) 0.1654(3)
C1_6 C 0.8188(2) 0.7968(2) 0.0957(5)
H1_6 H 0.8843 0.8247 0.0226
C5_6 C 0.6548(2) 0.8678(2) 0.0326(6)
C6_6 C 0.6098(3) 0.8361(3) 0.0703(7)
H5_6 H 0.5835 0.8593 0.0976
H6_6 H 0.5958 0.8186 0.0059
C7_6 C 0.5802(3) 0.7960(4) 0.2435(8)
H7_6 H 0.5779 0.7616 0.2741
H8_6 H 0.5471 0.8046 0.2111
C8_6 C 0.5927(4) 0.8334(4) 0.3348(9)
C9_6 C 0.7508(3) 0.9230(3) 0.3691(5)
C10_6 C 0.7236(3) 0.8997(2) 0.4672(6)
H9_4 H 0.7408 0.9101 0.5353
H10_6 H 0.6886 0.9124 0.4700
C11_4 C 0.7683(3) 0.8202(3) 0.5112(6)
H11_4 H 0.7605 0.8124 0.5883
H12_4 H 0.7961 0.8451 0.5105
C12_6 C 0.7863(3) 0.7715(3) 0.4538(6)
Eu1_4 Eu 0.782101(12) 0.919309(12) 0.09717(3)
Eu2_6 Eu 0.707808(12) 0.813321(12) 0.25634(3)
N2_6 N 0.6200(2) 0.7974(2) 0.1573(5)
H14_6 H 0.6212 0.7660 0.1242
N3_6 N 0.7233(2) 0.84305(19) 0.4596(5)
H15_6 H 0.6957 0.8322 0.4997
O1_6 O 0.78371(16) 0.82570(15) 0.1337(4)
O2_6 O 0.83049(16) 0.75325(16) 0.1325(4)
O5_6 O 0.69416(16) 0.87028(16) 0.0967(4)
O7_6 O 0.6342(2) 0.8571(2) 0.3301(5)
O8_6 O 0.5604(3) 0.8353(4) 0.4132(8)
O9_6 O 0.75143(17) 0.89604(17) 0.2799(4)
O10_4 O 0.76909(17) 0.96649(16) 0.3763(4)
O11_6 O 0.77751(16) 0.76767(16) 0.3486(4)
O12_4 O 0.80837(16) 0.73892(14) 0.5086(3)
Eu5_6 Eu 0.792192(12) 0.686679(12) 0.24366(3)
O13_6 O 0.66951(16) 0.74675(16) 0.3675(4)
O15_4 O 0.85196(18) 0.97633(17) 0.0053(4)
O16_4 O 0.85980(17) 0.89977(17) 0.1925(4)
O17_4 O 0.71649(16) 0.98091(17) 0.1263(4)
O18_6 O 0.72249(16) 0.73233(16) 0.1514(4)
C5_7 C 0.6178(2) 0.0952(2) 0.7826(6)
C6_7 C 0.5861(3) 0.1402(3) 0.8203(7)
H5_7 H 0.6093 0.1665 0.8476
H6_7 H 0.5686 0.1542 0.7559
C7_7 C 0.5460(4) 0.1698(3) 0.9935(8)
H8_7 H 0.5546 0.2029 0.9611
N2_7 N 0.5474(2) 0.1300(2) 0.9073(5)
H14_7 H 0.5160 0.1288 0.8742
O5_7 O 0.62028(16) 0.05584(16) 0.8467(4)
O18_7 O 0.48233(16) 0.02751(16) 0.9014(4)
C9_7 C 0.6730(3) 0.9992(3) 0.1191(5)
C11_5 C 0.5702(3) 0.9817(3) 0.2612(6)
H11_5 H 0.5624 0.9895 0.3383
H12_5 H 0.5951 0.9539 0.2605
C12_7 C 0.5215(3) 0.9637(3) 0.2038(6)
O9_7 O 0.64604(17) 0.99857(17) 0.0299(4)
O11_7 O 0.51767(16) 0.97249(16) 0.0986(4)
O12_5 O 0.48892(14) 0.94163(16) 0.2586(3)
O12_6 O 0.01108(14) 0.05837(16) 0.7586(3)
Eu5_7 Eu 0.063321(12) 0.042192(12) 0.49366(3)
O13_7 O 0.00325(16) 0.91951(16) 0.6175(4)
O18_8 O 0.01767(16) 0.97249(16) 0.4014(4)
C1_7 C 0.9532(2) 0.0688(2) 0.3457(5)
C2_6 C 0.9332(2) 0.0997(2) 0.2481(5)
H1_7 H 0.9253 0.1343 0.2726
H2_6 H 0.9597 0.1019 0.1916
C3_6 C 0.8984(3) 0.0399(3) 0.1083(6)
H3_6 H 0.9289 0.0204 0.1270
H4_6 H 0.9053 0.0590 0.0406
C4_6 C 0.8538(3) 0.0035(2) 0.0890(6)
C9_8 C 0.8270(3) 0.0008(3) 0.6191(5)
C11_6 C 0.9298(3) 0.0183(3) 0.7612(6)
H11_6 H 0.9376 0.0105 0.8383
H12_6 H 0.9049 0.0461 0.7605
C12_8 C 0.9785(3) 0.0363(3) 0.7038(6)
N1_6 N 0.88670(19) 0.07623(19) 0.1993(4)
H13_6 H 0.8677 0.1022 0.1695
O1_7 O 0.92430(15) 0.03371(16) 0.3837(4)
O2_7 O 0.99675(16) 0.08049(16) 0.3825(4)
O9_8 O 0.85396(17) 0.00143(17) 0.5299(4)
O11_8 O 0.98233(16) 0.02751(16) 0.5986(4)
C5_8 C 0.8822(2) 0.9048(2) 0.2826(6)
C6_8 C 0.9139(3) 0.8598(3) 0.3203(7)
H5_8 H 0.8907 0.8335 0.3476
H6_8 H 0.9314 0.8458 0.2559
C7_8 C 0.9540(4) 0.8302(3) 0.4935(8)
H7_7 H 0.9884 0.8279 0.5241
H8_8 H 0.9454 0.7971 0.4611
C8_7 C 0.9166(4) 0.8427(4) 0.5848(9)
C10_7 C 0.8503(2) 0.9736(3) 0.7172(6)
H9_5 H 0.8399 0.9908 0.7853
H10_7 H 0.8376 0.9386 0.7200
Eu2_7 Eu 0.936679(12) 0.957808(12) 0.50634(3)
N2_8 N 0.9526(2) 0.8700(2) 0.4073(5)
H14_8 H 0.9840 0.8712 0.3742
N3_7 N 0.90695(19) 0.9733(2) 0.7096(5)
H15_7 H 0.9178 0.9457 0.7497
O5_8 O 0.87972(16) 0.94416(16) 0.3467(4)
O7_7 O 0.8929(2) 0.8842(2) 0.5801(5)
O8_7 O 0.9147(4) 0.8104(3) 0.6632(8)
C2_7 C 0.8497(2) 0.3168(2) 0.0019(5)
H2_7 H 0.8519 0.2903 0.0584
C3_7 C 0.7899(3) 0.3516(3) 0.1417(6)
H3_7 H 0.7704 0.3211 0.1230
H4_7 H 0.8090 0.3447 0.2094
C4_7 C 0.7535(2) 0.3962(3) 0.1610(6)
N1_7 N 0.82623(19) 0.36330(19) 0.0507(4)
H13_7 H 0.8522 0.3823 0.0805
O3_4 O 0.75055(16) 0.43012(15) 0.0846(3)
O4_4 O 0.72633(17) 0.39804(18) 0.2447(4)
O6_4 O 0.64977(17) 0.39020(17) 0.0575(4)
Eu4_3 Eu 0.669309(12) 0.467899(12) 0.15283(3)
C1_8 C 0.8188(2) 0.2968(2) 0.9043(5)
H1_8 H 0.8843 0.3247 0.9774
C5_9 C 0.6548(2) 0.3678(2) 0.9674(6)
C6_9 C 0.6098(3) 0.3361(3) 0.9297(7)
H5_9 H 0.5835 0.3593 0.9024
H6_9 H 0.5958 0.3186 0.9941
C7_9 C 0.5802(3) 0.2960(4) 0.7565(8)
H7_8 H 0.5779 0.2616 0.7259
H8_9 H 0.5471 0.3046 0.7889
C8_8 C 0.5927(4) 0.3334(4) 0.6652(9)
C9_9 C 0.7508(3) 0.4230(3) 0.6309(5)
C10_8 C 0.7236(3) 0.3997(2) 0.5328(6)
H9_6 H 0.7408 0.4101 0.4647
H10_8 H 0.6886 0.4124 0.5300
C11_7 C 0.7683(3) 0.3202(3) 0.4888(6)
H11_7 H 0.7605 0.3124 0.4117
H12_7 H 0.7961 0.3451 0.4895
C12_9 C 0.7863(3) 0.2715(3) 0.5462(6)
Eu1_5 Eu 0.782101(12) 0.419309(12) 0.90283(3)
N2_9 N 0.6200(2) 0.2974(2) 0.8427(5)
H14_9 H 0.6212 0.2660 0.8758
N3_8 N 0.7233(2) 0.34305(19) 0.5404(5)
H15_8 H 0.6957 0.3322 0.5003
O1_8 O 0.78371(16) 0.32570(15) 0.8663(4)
O5_9 O 0.69416(16) 0.37028(16) 0.9033(4)
O7_8 O 0.6342(2) 0.3571(2) 0.6699(5)
O8_8 O 0.5604(3) 0.3353(4) 0.5868(8)
O9_9 O 0.75143(17) 0.39604(17) 0.7201(4)
O10_5 O 0.76909(17) 0.46649(16) 0.6237(4)
O12_7 O 0.80837(16) 0.23892(14) 0.4914(3)
Eu3_2 Eu 0.830691(12) 0.532101(12) 0.65283(3)
O14_4 O 0.81988(15) 0.50055(16) 0.8346(3)
O15_5 O 0.85196(18) 0.47633(17) 0.9947(4)
O16_5 O 0.85980(17) 0.39977(17) 0.8075(4)
O17_5 O 0.71649(16) 0.48091(17) 0.8737(4)
C1_9 C 0.6812(2) 0.7032(2) 0.4043(5)
C2_8 C 0.6503(2) 0.6832(2) 0.5019(5)
H1_9 H 0.6157 0.6753 0.4774
H2_8 H 0.6481 0.7097 0.5584
C3_8 C 0.7101(3) 0.6484(3) 0.6417(6)
H3_8 H 0.7296 0.6789 0.6230
H4_8 H 0.6910 0.6553 0.7094
C4_8 C 0.7465(2) 0.6038(3) 0.6610(6)
C5_10 C 0.8452(2) 0.6322(2) 0.4674(6)
C6_10 C 0.8902(3) 0.6639(3) 0.4297(7)
H5_10 H 0.9165 0.6407 0.4024
H6_10 H 0.9042 0.6814 0.4941
C7_10 C 0.9198(3) 0.7040(4) 0.2565(8)
H7_9 H 0.9221 0.7384 0.2259
H8_10 H 0.9529 0.6954 0.2889
C8_9 C 0.9073(4) 0.6666(4) 0.1652(9)
C9_10 C 0.7492(3) 0.5770(3) 0.1309(5)
C10_9 C 0.7764(3) 0.6003(2) 0.0328(6)
H10_9 H 0.8114 0.5876 0.0300
C12_10 C 0.7137(3) 0.7285(3) 0.0462(6)
Eu1_6 Eu 0.717899(12) 0.580691(12) 0.40283(3)
N1_8 N 0.67377(19) 0.63670(19) 0.5507(4)
H13_8 H 0.6478 0.6177 0.5805
N2_10 N 0.8800(2) 0.7026(2) 0.3427(5)
H14_10 H 0.8788 0.7340 0.3758
N3_9 N 0.7767(2) 0.65695(19) 0.0404(5)
H15_9 H 0.8043 0.6678 0.0003
O1_9 O 0.71629(16) 0.67430(15) 0.3663(4)
O3_5 O 0.74945(16) 0.56988(15) 0.5846(3)
O4_5 O 0.77367(17) 0.60196(18) 0.7447(4)
O5_10 O 0.80584(16) 0.62972(16) 0.4033(4)
O6_5 O 0.85023(17) 0.60980(17) 0.5575(4)
O7_9 O 0.8658(2) 0.6429(2) 0.1699(5)
O8_9 O 0.9396(3) 0.6647(4) 0.0868(8)
O9_10 O 0.74857(17) 0.60396(17) 0.2201(4)
O10_6 O 0.73091(17) 0.53351(16) 0.1237(4)
O14_5 O 0.68012(15) 0.49945(16) 0.3346(3)
O15_6 O 0.64804(18) 0.52367(17) 0.4947(4)
O16_6 O 0.64020(17) 0.60023(17) 0.3075(4)
O17_6 O 0.78351(16) 0.51909(17) 0.3737(4)
O12_8 O 0.01108(14) 0.55837(16) 0.2414(3)
C1_10 C 0.9532(2) 0.5688(2) 0.6543(5)
C2_9 C 0.9332(2) 0.5997(2) 0.7519(5)
H1_10 H 0.9253 0.6343 0.7274
H2_9 H 0.9597 0.6019 0.8084
C3_9 C 0.8984(3) 0.5399(3) 0.8917(6)
H3_9 H 0.9289 0.5204 0.8730
H4_9 H 0.9053 0.5590 0.9594
C4_9 C 0.8538(3) 0.5035(2) 0.9110(6)
C5_11 C 0.8822(2) 0.4048(2) 0.7174(6)
C6_11 C 0.9139(3) 0.3598(3) 0.6797(7)
H5_11 H 0.8907 0.3335 0.6524
H6_11 H 0.9314 0.3458 0.7441
C7_11 C 0.9540(4) 0.3302(3) 0.5065(8)
H7_10 H 0.9884 0.3279 0.4759
H8_11 H 0.9454 0.2971 0.5389
C8_10 C 0.9166(4) 0.3427(4) 0.4152(9)
C9_11 C 0.8270(3) 0.5008(3) 0.3809(5)
C10_10 C 0.8503(2) 0.4736(3) 0.2828(6)
H9_7 H 0.8399 0.4908 0.2147
H10_10 H 0.8376 0.4386 0.2800
C11_8 C 0.9298(3) 0.5183(3) 0.2388(6)
H11_8 H 0.9376 0.5105 0.1617
H12_8 H 0.9049 0.5461 0.2395
C12_11 C 0.9785(3) 0.5363(3) 0.2962(6)
N1_9 N 0.88670(19) 0.57623(19) 0.8007(4)
H13_9 H 0.8677 0.6022 0.8305
N2_11 N 0.9526(2) 0.3700(2) 0.5927(5)
H14_11 H 0.9840 0.3712 0.6258
N3_10 N 0.90695(19) 0.4733(2) 0.2904(5)
H15_10 H 0.9178 0.4457 0.2503
O1_10 O 0.92430(15) 0.53371(16) 0.6163(4)
O5_11 O 0.87972(16) 0.44416(16) 0.6533(4)
O7_10 O 0.8929(2) 0.3842(2) 0.4199(5)
O8_10 O 0.9147(4) 0.3104(3) 0.3368(8)
O9_11 O 0.85396(17) 0.50143(17) 0.4701(4)
C1_11 C 0.5468(2) 0.4312(2) 0.1543(5)
C2_10 C 0.5668(2) 0.4003(2) 0.2519(5)
H1_11 H 0.5747 0.3657 0.2274
H2_10 H 0.5403 0.3981 0.3084
C3_10 C 0.6016(3) 0.4601(3) 0.3917(6)
H3_10 H 0.5711 0.4796 0.3730
H4_10 H 0.5947 0.4410 0.4594
C4_10 C 0.6462(3) 0.4965(2) 0.4110(6)
C5_12 C 0.6178(2) 0.5952(2) 0.2174(6)
C6_12 C 0.5861(3) 0.6402(3) 0.1797(7)
H5_12 H 0.6093 0.6665 0.1524
H6_12 H 0.5686 0.6542 0.2441
C7_12 C 0.5460(4) 0.6698(3) 0.0065(8)
H8_12 H 0.5546 0.7029 0.0389
N1_10 N 0.61330(19) 0.42377(19) 0.3007(4)
H13_10 H 0.6323 0.3978 0.3305
N2_12 N 0.5474(2) 0.6300(2) 0.0927(5)
H14_12 H 0.5160 0.6288 0.1258
O1_11 O 0.57570(15) 0.46629(16) 0.1163(4)
O5_12 O 0.62028(16) 0.55584(16) 0.1533(4)
H7_11 H 0.5116 0.6721 0.9759
C8_11 C 0.5834(4) 0.6573(4) 0.9152(9)
C9_12 C 0.6730(3) 0.4992(3) 0.8809(5)
C10_11 C 0.6497(2) 0.5264(3) 0.7828(6)
H9_8 H 0.6601 0.5092 0.7147
H10_11 H 0.6624 0.5614 0.7800
C11_9 C 0.5702(3) 0.4817(3) 0.7388(6)
H11_9 H 0.5624 0.4895 0.6617
H12_9 H 0.5951 0.4539 0.7395
C12_12 C 0.5215(3) 0.4637(3) 0.7962(6)
N3_11 N 0.59305(19) 0.5267(2) 0.7904(5)
H15_11 H 0.5822 0.5543 0.7503
O7_11 O 0.6071(2) 0.6158(2) 0.9199(5)
O8_11 O 0.5853(4) 0.6896(3) 0.8368(8)
O9_12 O 0.64604(17) 0.49857(17) 0.9701(4)
O12_9 O 0.48892(14) 0.44163(16) 0.7414(3)
C1_12 C 0.3188(2) 0.7968(2) 0.4043(5)
C2_11 C 0.3497(2) 0.8168(2) 0.5019(5)
H1_12 H 0.3843 0.8247 0.4774
H2_11 H 0.3519 0.7903 0.5584
C3_11 C 0.2899(3) 0.8516(3) 0.6417(6)
H3_11 H 0.2704 0.8211 0.6230
H4_11 H 0.3090 0.8447 0.7094
C4_11 C 0.2535(2) 0.8962(3) 0.6610(6)
C5_13 C 0.1548(2) 0.8678(2) 0.4674(6)
C6_13 C 0.1098(3) 0.8361(3) 0.4297(7)
H5_13 H 0.0835 0.8593 0.4024
H6_13 H 0.0958 0.8186 0.4941
C7_13 C 0.0802(3) 0.7960(4) 0.2565(8)
H7_12 H 0.0779 0.7616 0.2259
H8_13 H 0.0471 0.8046 0.2889
C8_12 C 0.0927(4) 0.8334(4) 0.1652(9)
C9_13 C 0.2508(3) 0.9230(3) 0.1309(5)
C10_12 C 0.2236(3) 0.8997(2) 0.0328(6)
H10_12 H 0.1886 0.9124 0.0300
C12_13 C 0.2863(3) 0.7715(3) 0.0462(6)
Eu1_7 Eu 0.282101(12) 0.919309(12) 0.40283(3)
N1_11 N 0.32623(19) 0.86330(19) 0.5507(4)
H13_11 H 0.3522 0.8823 0.5805
N2_13 N 0.1200(2) 0.7974(2) 0.3427(5)
H14_13 H 0.1212 0.7660 0.3758
N3_12 N 0.2233(2) 0.84305(19) 0.0404(5)
H15_12 H 0.1957 0.8322 0.0003
O1_12 O 0.28371(16) 0.82570(15) 0.3663(4)
O3_6 O 0.25055(16) 0.93012(15) 0.5846(3)
O4_6 O 0.22633(17) 0.89804(18) 0.7447(4)
O5_13 O 0.19416(16) 0.87028(16) 0.4033(4)
O6_6 O 0.14977(17) 0.89020(17) 0.5575(4)
O7_12 O 0.1342(2) 0.8571(2) 0.1699(5)
O8_12 O 0.0604(3) 0.8353(4) 0.0868(8)
O9_13 O 0.25143(17) 0.89604(17) 0.2201(4)
O10_7 O 0.26909(17) 0.96649(16) 0.1237(4)
Eu4_4 Eu 0.169309(12) 0.967899(12) 0.65283(3)
O15_7 O 0.35196(18) 0.97633(17) 0.4947(4)
O16_7 O 0.35980(17) 0.89977(17) 0.3075(4)
O17_7 O 0.21649(16) 0.98091(17) 0.3737(4)
C1_13 C 0.1812(2) 0.2032(2) 0.9043(5)
H1_13 H 0.1157 0.1753 0.9774
C5_14 C 0.3452(2) 0.1322(2) 0.9674(6)
C6_14 C 0.3902(3) 0.1639(3) 0.9297(7)
H5_14 H 0.4165 0.1407 0.9024
H6_14 H 0.4042 0.1814 0.9941
C7_14 C 0.4198(3) 0.2040(4) 0.7565(8)
H7_13 H 0.4221 0.2384 0.7259
H8_14 H 0.4529 0.1954 0.7889
C8_13 C 0.4073(4) 0.1666(4) 0.6652(9)
C9_14 C 0.2492(3) 0.0770(3) 0.6309(5)
C10_13 C 0.2764(3) 0.1003(2) 0.5328(6)
H9_9 H 0.2592 0.0899 0.4647
H10_13 H 0.3114 0.0876 0.5300
C11_10 C 0.2317(3) 0.1798(3) 0.4888(6)
H11_10 H 0.2395 0.1876 0.4117
H12_10 H 0.2039 0.1549 0.4895
C12_14 C 0.2137(3) 0.2285(3) 0.5462(6)
Eu1_8 Eu 0.217899(12) 0.080691(12) 0.90283(3)
N2_14 N 0.3800(2) 0.2026(2) 0.8427(5)
H14_14 H 0.3788 0.2340 0.8758
N3_13 N 0.2767(2) 0.15695(19) 0.5404(5)
H15_13 H 0.3043 0.1678 0.5003
O1_13 O 0.21629(16) 0.17430(15) 0.8663(4)
O5_14 O 0.30584(16) 0.12972(16) 0.9033(4)
O7_13 O 0.3658(2) 0.1429(2) 0.6699(5)
O8_13 O 0.4396(3) 0.1647(4) 0.5868(8)
O9_14 O 0.24857(17) 0.10396(17) 0.7201(4)
O10_8 O 0.23091(17) 0.03351(16) 0.6237(4)
O12_10 O 0.19163(16) 0.26108(14) 0.4914(3)
O15_8 O 0.14804(18) 0.02367(17) 0.9947(4)
O16_8 O 0.14020(17) 0.10023(17) 0.8075(4)
O17_8 O 0.28351(16) 0.01909(17) 0.8737(4)
O14_6 O 0.18012(15) 0.99945(16) 0.8346(3)
C9_15 C 0.3270(3) 0.0008(3) 0.8809(5)
C11_11 C 0.4298(3) 0.0183(3) 0.7388(6)
H11_11 H 0.4376 0.0105 0.6617
H12_11 H 0.4049 0.0461 0.7395
C12_15 C 0.4785(3) 0.0363(3) 0.7962(6)
O9_15 O 0.35396(17) 0.00143(17) 0.9701(4)
O12_11 O 0.51108(14) 0.05837(16) 0.7414(3)
C5_15 C 0.3822(2) 0.9048(2) 0.2174(6)
C6_15 C 0.4139(3) 0.8598(3) 0.1797(7)
H5_15 H 0.3907 0.8335 0.1524
H6_15 H 0.4314 0.8458 0.2441
C7_15 C 0.4540(4) 0.8302(3) 0.0065(8)
H8_15 H 0.4454 0.7971 0.0389
N2_15 N 0.4526(2) 0.8700(2) 0.0927(5)
H14_15 H 0.4840 0.8712 0.1258
O5_15 O 0.37972(16) 0.94416(16) 0.1533(4)
C5_16 C 0.1178(2) 0.0952(2) 0.7174(6)
C6_16 C 0.0861(3) 0.1402(3) 0.6797(7)
H5_16 H 0.1093 0.1665 0.6524
H6_16 H 0.0686 0.1542 0.7441
C7_16 C 0.0460(4) 0.1698(3) 0.5065(8)
H7_14 H 0.0116 0.1721 0.4759
H8_16 H 0.0546 0.2029 0.5389
C8_14 C 0.0834(4) 0.1573(4) 0.4152(9)
C10_14 C 0.1497(2) 0.0264(3) 0.2828(6)
H9_10 H 0.1601 0.0092 0.2147
H10_14 H 0.1624 0.0614 0.2800
N2_16 N 0.0474(2) 0.1300(2) 0.5927(5)
H14_16 H 0.0160 0.1288 0.6258
N3_14 N 0.09305(19) 0.0267(2) 0.2904(5)
H15_14 H 0.0822 0.0543 0.2503
O5_16 O 0.12028(16) 0.05584(16) 0.6533(4)
O7_14 O 0.1071(2) 0.1158(2) 0.4199(5)
O8_14 O 0.0853(4) 0.1896(3) 0.3368(8)
C1_14 C 0.0468(2) 0.9312(2) 0.6543(5)
C2_12 C 0.0668(2) 0.9003(2) 0.7519(5)
H1_14 H 0.0747 0.8657 0.7274
H2_12 H 0.0403 0.8981 0.8084
C3_12 C 0.1016(3) 0.9601(3) 0.8917(6)
H3_12 H 0.0711 0.9796 0.8730
H4_12 H 0.0947 0.9410 0.9594
C4_12 C 0.1462(3) 0.9965(2) 0.9110(6)
C9_16 C 0.1730(3) 0.9992(3) 0.3809(5)
C11_12 C 0.0702(3) 0.9817(3) 0.2388(6)
H11_12 H 0.0624 0.9895 0.1617
H12_12 H 0.0951 0.9539 0.2395
C12_16 C 0.0215(3) 0.9637(3) 0.2962(6)
N1_12 N 0.11330(19) 0.92377(19) 0.8007(4)
H13_12 H 0.1323 0.8978 0.8305
O1_14 O 0.07570(15) 0.96629(16) 0.6163(4)
O9_16 O 0.14604(17) 0.99857(17) 0.4701(4)
O12_12 O 0.98892(14) 0.94163(16) 0.2414(3)
H9_11 H 0.2408 0.4101 0.0353
C11_13 C 0.2683(3) 0.3202(3) 0.0112(6)
H11_13 H 0.2605 0.3124 0.0883
H12_13 H 0.2961 0.3451 0.0105
O12_13 O 0.30837(16) 0.23892(14) 0.0086(3)
H9_12 H 0.7592 0.0899 0.0353
C11_14 C 0.7317(3) 0.1798(3) 0.0112(6)
H11_14 H 0.7395 0.1876 0.0883
H12_14 H 0.7039 0.1549 0.0105
O12_14 O 0.69163(16) 0.26108(14) 0.0086(3)
Eu3_3 Eu 0.669309(12) 0.967899(12) 0.84717(3)
O14_7 O 0.68012(15) 0.99945(16) 0.6654(3)
C2_13 C 0.8497(2) 0.8168(2) 0.9981(5)
H2_13 H 0.8519 0.7903 0.9416
C3_13 C 0.7899(3) 0.8516(3) 0.8583(6)
H3_13 H 0.7704 0.8211 0.8770
H4_13 H 0.8090 0.8447 0.7906
C4_13 C 0.7535(2) 0.8962(3) 0.8390(6)
N1_13 N 0.82623(19) 0.86330(19) 0.9493(4)
H13_13 H 0.8522 0.8823 0.9195
O3_7 O 0.75055(16) 0.93012(15) 0.9154(3)
O4_7 O 0.72633(17) 0.89804(18) 0.7553(4)
O6_7 O 0.64977(17) 0.89020(17) 0.9425(4)
C1_15 C 0.5468(2) 0.9312(2) 0.8457(5)
C2_14 C 0.5668(2) 0.9003(2) 0.7481(5)
H1_15 H 0.5747 0.8657 0.7726
H2_14 H 0.5403 0.8981 0.6916
C3_14 C 0.6016(3) 0.9601(3) 0.6083(6)
H3_14 H 0.5711 0.9796 0.6270
H4_14 H 0.5947 0.9410 0.5406
C4_14 C 0.6462(3) 0.9965(2) 0.5890(6)
N1_14 N 0.61330(19) 0.92377(19) 0.6993(4)
H13_14 H 0.6323 0.8978 0.6695
O1_15 O 0.57570(15) 0.96629(16) 0.8837(4)
O2_8 O 0.50325(16) 0.91951(16) 0.8825(4)
Eu5_8 Eu 0.436679(12) 0.957808(12) 0.99366(3)
H7_15 H 0.4884 0.8279 0.9759
C8_15 C 0.4166(4) 0.8427(4) 0.9152(9)
C10_15 C 0.3503(2) 0.9736(3) 0.7828(6)
H9_13 H 0.3399 0.9908 0.7147
H10_15 H 0.3376 0.9386 0.7800
N3_15 N 0.40695(19) 0.9733(2) 0.7904(5)
H15_15 H 0.4178 0.9457 0.7503
O7_15 O 0.3929(2) 0.8842(2) 0.9199(5)
O8_15 O 0.4147(4) 0.8104(3) 0.8368(8)
H7_16 H 0.5116 0.1721 0.0241
C8_16 C 0.5834(4) 0.1573(4) 0.0848(9)
C10_16 C 0.6497(2) 0.0264(3) 0.2172(6)
H9_14 H 0.6601 0.0092 0.2853
H10_16 H 0.6624 0.0614 0.2200
Eu2_8 Eu 0.563321(12) 0.042192(12) 0.00634(3)
N3_16 N 0.59305(19) 0.0267(2) 0.2096(5)
H15_16 H 0.5822 0.0543 0.2497
O7_16 O 0.6071(2) 0.1158(2) 0.0801(5)
O8_16 O 0.5853(4) 0.1896(3) 0.1632(8)
O13_8 O 0.49675(16) 0.08049(16) 0.1175(4)
Eu3_4 Eu 0.330691(12) 0.032101(12) 0.15283(3)
O14_8 O 0.31988(15) 0.00055(16) 0.3346(3)
C2_15 C 0.1503(2) 0.1832(2) 0.0019(5)
H2_15 H 0.1481 0.2097 0.0584
C3_15 C 0.2101(3) 0.1484(3) 0.1417(6)
H3_15 H 0.2296 0.1789 0.1230
H4_15 H 0.1910 0.1553 0.2094
C4_15 C 0.2465(2) 0.1038(3) 0.1610(6)
N1_15 N 0.17377(19) 0.13670(19) 0.0507(4)
H13_15 H 0.1478 0.1177 0.0805
O3_8 O 0.24945(16) 0.06988(15) 0.0846(3)
O4_8 O 0.27367(17) 0.10196(18) 0.2447(4)
O6_8 O 0.35023(17) 0.10980(17) 0.0575(4)
C1_16 C 0.4532(2) 0.0688(2) 0.1543(5)
C2_16 C 0.4332(2) 0.0997(2) 0.2519(5)
H1_16 H 0.4253 0.1343 0.2274
H2_16 H 0.4597 0.1019 0.3084
C3_16 C 0.3984(3) 0.0399(3) 0.3917(6)
H3_16 H 0.4289 0.0204 0.3730
H4_16 H 0.4053 0.0590 0.4594
C4_16 C 0.3538(3) 0.0035(2) 0.4110(6)
N1_16 N 0.38670(19) 0.07623(19) 0.3007(4)
H13_16 H 0.3677 0.1022 0.3305
O1_16 O 0.42430(15) 0.03371(16) 0.1163(4)
H9_15 H 0.7592 0.5899 0.9647
C11_15 C 0.7317(3) 0.6798(3) 0.9888(6)
H11_15 H 0.7395 0.6876 0.9117
H12_15 H 0.7039 0.6549 0.9895
O12_15 O 0.69163(16) 0.76108(14) 0.9914(3)
H9_16 H 0.2408 0.9101 0.9647
C11_16 C 0.2683(3) 0.8202(3) 0.9888(6)
H11_16 H 0.2605 0.8124 0.9117
H12_16 H 0.2961 0.8451 0.9895
O12_16 O 0.30837(16) 0.73892(14) 0.9914(3)
loop_
_geom_bond_atom_site_label_1
_geom_bond_atom_site_label_2
_geom_bond_site_symmetry_1
_geom_bond_site_symmetry_2
C5 C6 1_555 1_555
C6 H5 1_555 1_555
H6 C6 1_555 1_555
C7 H7 1_555 1_555
H8 C7 1_555 1_555
C8 C7 1_555 1_555
C9 C10 1_555 1_555
C10 H9 1_555 1_555
H10 C10 1_555 1_555
C11 H11 1_555 1_555
H12 C11 1_555 1_555
C12 C11 1_555 1_555
Eu2 N2 1_555 1_555
N2 C6 1_555 1_555
H14 N2 1_555 1_555
N3 C10 1_555 1_555
H15 N3 1_555 1_555
O1 C1 1_555 1_555
O2 C1 1_555 1_555
O5 C5 1_555 1_555
O7 C8 1_555 1_555
O8 C8 1_555 1_555
O9 C9 1_555 1_555
O10 C9 1_555 1_555
O11 C12 1_555 1_555
O12 C12 1_555 1_555
Eu3 O10 1_555 1_555
Eu5 O2 1_555 1_555
O13 Eu2 1_555 1_555
O14 Eu1 1_555 1_555
O15 Eu1 1_555 1_555
O16 Eu1 1_555 1_555
O17 Eu1 1_555 1_555
O18 Eu2 1_555 1_555
C7 N2 1_555 1_555
C11 N3 1_555 1_555
Eu1 O1 1_555 1_555
Eu1 O5 1_555 1_555
Eu1 O9 1_555 1_555
Eu2 N3 1_555 1_555
Eu2 O1 1_555 1_555
Eu2 O5 1_555 1_555
Eu2 O7 1_555 1_555
Eu2 O9 1_555 1_555
Eu2 O11 1_555 1_555
O11 Eu5 1_555 1_555
Eu3 O14 1_555 1_555
Eu5 O18 1_555 1_555
H2 C2 1_555 1_555
C3 H3 1_555 1_555
H4 C3 1_555 1_555
C4 C3 1_555 1_555
N1 C2 1_555 1_555
H13 N1 1_555 1_555
O3 C4 1_555 1_555
O4 C4 1_555 1_555
Eu4 O3 1_555 1_555
C3 N1 1_555 1_555
O4 Eu4 1_555 1_555
O6 Eu4 1_555 1_555
C1_2 C2_2 1_555 1_555
C2_2 H1_2 1_555 1_555
H2_2 C2_2 1_555 1_555
C3_2 H3_2 1_555 1_555
H4_2 C3_2 1_555 1_555
C4_2 C3_2 1_555 1_555
C5_2 C6_2 1_555 1_555
C6_2 H5_2 1_555 1_555
H6_2 C6_2 1_555 1_555
C7_2 H7_2 1_555 1_555
H8_2 C7_2 1_555 1_555
C8_2 C7_2 1_555 1_555
C9_2 C10_2 1_555 1_555
H10_2 C10_2 1_555 1_555
Eu1_2 N1_2 1_555 1_555
Eu2_2 N2_2 1_555 1_555
N1_2 C2_2 1_555 1_555
H13_2 N1_2 1_555 1_555
N2_2 C6_2 1_555 1_555
H14_2 N2_2 1_555 1_555
N3_2 C10_2 1_555 1_555
H15_2 N3_2 1_555 1_555
O1_2 C1_2 1_555 1_555
O2_2 C1_2 1_555 1_555
O3_2 C4_2 1_555 1_555
O4_2 C4_2 1_555 1_555
O5_2 C5_2 1_555 1_555
O6_2 C5_2 1_555 1_555
O7_2 C8_2 1_555 1_555
O8_2 C8_2 1_555 1_555
O9_2 C9_2 1_555 1_555
O10_2 C9_2 1_555 1_555
O11_2 C12_2 1_555 1_555
Eu4 O10_2 1_555 1_555
Eu3 O3_2 1_555 1_555
Eu5_2 O2_2 1_555 1_555
O13_2 Eu2_2 1_555 1_555
O14_2 Eu1_2 1_555 1_555
O15_2 Eu1_2 1_555 1_555
O16_2 Eu1_2 1_555 1_555
O17_2 Eu1_2 1_555 1_555
O18_2 Eu2_2 1_555 1_555
C3_2 N1_2 1_555 1_555
C7_2 N2_2 1_555 1_555
Eu1_2 O1_2 1_555 1_555
Eu1_2 O3_2 1_555 1_555
Eu1_2 O5_2 1_555 1_555
Eu1_2 O9_2 1_555 1_555
Eu2_2 N3_2 1_555 1_555
Eu2_2 O1_2 1_555 1_555
Eu2_2 O5_2 1_555 1_555
Eu2_2 O7_2 1_555 1_555
Eu2_2 O9_2 1_555 1_555
Eu2_2 O11_2 1_555 1_555
O4_2 Eu3 1_555 1_555
O6_2 Eu3 1_555 1_555
O11_2 Eu5_2 1_555 1_555
Eu4 O14_2 1_555 1_555
Eu5_2 O18_2 1_555 1_555
C1_3 C2_3 1_555 1_555
C2_3 H1_3 1_555 1_555
H2_3 C2_3 1_555 1_555
C3_3 H3_3 1_555 1_555
H4_3 C3_3 1_555 1_555
C4_3 C3_3 1_555 1_555
C5_3 C6_3 1_555 1_555
C6_3 H5_3 1_555 1_555
H6_3 C6_3 1_555 1_555
C7_3 H7_3 1_555 1_555
H8_3 C7_3 1_555 1_555
C8_3 C7_3 1_555 1_555
C9_3 C10_3 1_555 1_555
C10_3 H9_2 1_555 1_555
H10_3 C10_3 1_555 1_555
C11_2 H11_2 1_555 1_555
H12_2 C11_2 1_555 1_555
C12_3 C11_2 1_555 1_555
Eu3 N1_3 1_555 1_555
Eu2_3 N2_3 1_555 1_555
N1_3 C2_3 1_555 1_555
H13_3 N1_3 1_555 1_555
N2_3 C6_3 1_555 1_555
H14_3 N2_3 1_555 1_555
N3_3 C10_3 1_555 1_555
H15_3 N3_3 1_555 1_555
O1_3 C1_3 1_555 1_555
O2_3 C1_3 1_555 1_555
O14 C4_3 1_555 1_555
O15 C4_3 1_555 1_555
O5_3 C5_3 1_555 1_555
O16 C5_3 1_555 1_555
O7_3 C8_3 1_555 1_555
O8_3 C8_3 1_555 1_555
O9_3 C9_3 1_555 1_555
O17_2 C9_3 1_555 1_555
O11_3 C12_3 1_555 1_555
C3_3 N1_3 1_555 1_555
C7_3 N2_3 1_555 1_555
C11_2 N3_3 1_555 1_555
Eu3 O1_3 1_555 1_555
Eu3 O5_3 1_555 1_555
Eu3 O9_3 1_555 1_555
Eu2_3 N3_3 1_555 1_555
Eu2_3 O1_3 1_555 1_555
Eu2_3 O5_3 1_555 1_555
Eu2_3 O7_3 1_555 1_555
Eu2_3 O9_3 1_555 1_555
Eu2_3 O11_3 1_555 1_555
Eu5_3 O18_3 1_555 1_555
C9_4 C10_4 1_555 1_555
C10_4 H9_3 1_555 1_555
H10_4 C10_4 1_555 1_555
C11_3 H11_3 1_555 1_555
H12_3 C11_3 1_555 1_555
C12_4 C11_3 1_555 1_555
N3_4 C10_4 1_555 1_555
H15_4 N3_4 1_555 1_555
O7_4 C8_4 1_555 1_555
O8_4 C8_4 1_555 1_555
O9_4 C9_4 1_555 1_555
O17 C9_4 1_555 1_555
O11_4 C12_4 1_555 1_555
O12_3 C12_4 1_555 1_555
O13_4 Eu2_4 1_555 1_555
C11_3 N3_4 1_555 1_555
Eu2_4 N3_4 1_555 1_555
Eu2_4 O7_4 1_555 1_555
Eu2_4 O9_4 1_555 1_555
Eu2_4 O11_4 1_555 1_555
C1_4 C2_4 1_555 1_555
C2_4 H1_4 1_555 1_555
H2_4 C2_4 1_555 1_555
C3_4 H3_4 1_555 1_555
H4_4 C3_4 1_555 1_555
C4_4 C3_4 1_555 1_555
C5_4 C6_4 1_555 1_555
C6_4 H5_4 1_555 1_555
H6_4 C6_4 1_555 1_555
H8_4 C7_4 1_555 1_555
Eu4 N1_4 1_555 1_555
N1_4 C2_4 1_555 1_555
H13_4 N1_4 1_555 1_555
N2_4 C6_4 1_555 1_555
H14_4 N2_4 1_555 1_555
O1_4 C1_4 1_555 1_555
O2_4 C1_4 1_555 1_555
O14_2 C4_4 1_555 1_555
O15_2 C4_4 1_555 1_555
O5_4 C5_4 1_555 1_555
O16_2 C5_4 1_555 1_555
Eu5_4 O2_4 1_555 1_555
C3_4 N1_4 1_555 1_555
C7_4 N2_4 1_555 1_555
Eu4 O1_4 1_555 1_555
Eu4 O5_4 1_555 1_555
Eu5_4 O18_4 1_555 1_555
C1_5 C2_5 1_555 1_555
C2_5 H1_5 1_555 1_555
H2_5 C2_5 1_555 1_555
C3_5 H3_5 1_555 1_555
H4_5 C3_5 1_555 1_555
C4_5 C3_5 1_555 1_555
C5_5 C6_5 1_555 1_555
C6_5 H5_5 1_555 1_555
H6_5 C6_5 1_555 1_555
C7_5 H7_5 1_555 1_555
H8_5 C7_5 1_555 1_555
C8_5 C7_5 1_555 1_555
C9_5 C10_5 1_555 1_555
H10_5 C10_5 1_555 1_555
Eu1_3 N1_5 1_555 1_555
Eu2_5 N2_5 1_555 1_555
N1_5 C2_5 1_555 1_555
H13_5 N1_5 1_555 1_555
N2_5 C6_5 1_555 1_555
H14_5 N2_5 1_555 1_555
N3_5 C10_5 1_555 1_555
H15_5 N3_5 1_555 1_555
O1_5 C1_5 1_555 1_555
O2_5 C1_5 1_555 1_555
O3_3 C4_5 1_555 1_555
O4_3 C4_5 1_555 1_555
O5_5 C5_5 1_555 1_555
O6_3 C5_5 1_555 1_555
O7_5 C8_5 1_555 1_555
O8_5 C8_5 1_555 1_555
O9_5 C9_5 1_555 1_555
O10_3 C9_5 1_555 1_555
O11_5 C12_5 1_555 1_555
Eu4_2 O3_3 1_555 1_555
Eu5_5 O2_5 1_555 1_555
O13_5 Eu2_5 1_555 1_555
O15_3 Eu1_3 1_555 1_555
O16_3 Eu1_3 1_555 1_555
O17_3 Eu1_3 1_555 1_555
O18_5 Eu2_5 1_555 1_555
C3_5 N1_5 1_555 1_555
C7_5 N2_5 1_555 1_555
Eu1_3 O1_5 1_555 1_555
Eu1_3 O3_3 1_555 1_555
Eu1_3 O5_5 1_555 1_555
Eu1_3 O9_5 1_555 1_555
Eu2_5 N3_5 1_555 1_555
Eu2_5 O1_5 1_555 1_555
Eu2_5 O5_5 1_555 1_555
Eu2_5 O7_5 1_555 1_555
Eu2_5 O9_5 1_555 1_555
Eu2_5 O11_5 1_555 1_555
O4_3 Eu4_2 1_555 1_555
O6_3 Eu4_2 1_555 1_555
O11_5 Eu5_5 1_555 1_555
Eu5_5 O18_5 1_555 1_555
Eu4_2 O14_3 1_555 1_555
C5_6 C6_6 1_555 1_555
C6_6 H5_6 1_555 1_555
H6_6 C6_6 1_555 1_555
C7_6 H7_6 1_555 1_555
H8_6 C7_6 1_555 1_555
C8_6 C7_6 1_555 1_555
C9_6 C10_6 1_555 1_555
C10_6 H9_4 1_555 1_555
H10_6 C10_6 1_555 1_555
C11_4 H11_4 1_555 1_555
H12_4 C11_4 1_555 1_555
C12_6 C11_4 1_555 1_555
Eu2_6 N2_6 1_555 1_555
N2_6 C6_6 1_555 1_555
H14_6 N2_6 1_555 1_555
N3_6 C10_6 1_555 1_555
H15_6 N3_6 1_555 1_555
O1_6 C1_6 1_555 1_555
O2_6 C1_6 1_555 1_555
O5_6 C5_6 1_555 1_555
O7_6 C8_6 1_555 1_555
O8_6 C8_6 1_555 1_555
O9_6 C9_6 1_555 1_555
O10_4 C9_6 1_555 1_555
O11_6 C12_6 1_555 1_555
O12_4 C12_6 1_555 1_555
Eu5_6 O2_6 1_555 1_555
O13_6 Eu2_6 1_555 1_555
O15_4 Eu1_4 1_555 1_555
O16_4 Eu1_4 1_555 1_555
O17_4 Eu1_4 1_555 1_555
O18_6 Eu2_6 1_555 1_555
C7_6 N2_6 1_555 1_555
C11_4 N3_6 1_555 1_555
Eu1_4 O1_6 1_555 1_555
Eu1_4 O5_6 1_555 1_555
Eu1_4 O9_6 1_555 1_555
Eu2_6 N3_6 1_555 1_555
Eu2_6 O1_6 1_555 1_555
Eu2_6 O5_6 1_555 1_555
Eu2_6 O7_6 1_555 1_555
Eu2_6 O9_6 1_555 1_555
Eu2_6 O11_6 1_555 1_555
O11_6 Eu5_6 1_555 1_555
Eu5_6 O18_6 1_555 1_555
C5_7 C6_7 1_555 1_555
C6_7 H5_7 1_555 1_555
H6_7 C6_7 1_555 1_555
H8_7 C7_7 1_555 1_555
N2_7 C6_7 1_555 1_555
H14_7 N2_7 1_555 1_555
O5_7 C5_7 1_555 1_555
O16_3 C5_7 1_555 1_555
C7_7 N2_7 1_555 1_555
C11_5 H11_5 1_555 1_555
H12_5 C11_5 1_555 1_555
C12_7 C11_5 1_555 1_555
O9_7 C9_7 1_555 1_555
O17_4 C9_7 1_555 1_555
O11_7 C12_7 1_555 1_555
O12_5 C12_7 1_555 1_555
C1_7 C2_6 1_555 1_555
C2_6 H1_7 1_555 1_555
H2_6 C2_6 1_555 1_555
C3_6 H3_6 1_555 1_555
H4_6 C3_6 1_555 1_555
C4_6 C3_6 1_555 1_555
C11_6 H11_6 1_555 1_555
H12_6 C11_6 1_555 1_555
C12_8 C11_6 1_555 1_555
Eu4_2 N1_6 1_555 1_555
N1_6 C2_6 1_555 1_555
H13_6 N1_6 1_555 1_555
O1_7 C1_7 1_555 1_555
O2_7 C1_7 1_555 1_555
O14_3 C4_6 1_555 1_555
O9_8 C9_8 1_555 1_555
O17_3 C9_8 1_555 1_555
O11_8 C12_8 1_555 1_555
C3_6 N1_6 1_555 1_555
Eu4_2 O1_7 1_555 1_555
Eu4_2 O9_8 1_555 1_555
C5_8 C6_8 1_555 1_555
C6_8 H5_8 1_555 1_555
H6_8 C6_8 1_555 1_555
C7_8 H7_7 1_555 1_555
H8_8 C7_8 1_555 1_555
C8_7 C7_8 1_555 1_555
C10_7 H9_5 1_555 1_555
H10_7 C10_7 1_555 1_555
Eu2_7 N2_8 1_555 1_555
N2_8 C6_8 1_555 1_555
H14_8 N2_8 1_555 1_555
N3_7 C10_7 1_555 1_555
H15_7 N3_7 1_555 1_555
O5_8 C5_8 1_555 1_555
O16_4 C5_8 1_555 1_555
O7_7 C8_7 1_555 1_555
O8_7 C8_7 1_555 1_555
C7_8 N2_8 1_555 1_555
Eu2_7 N3_7 1_555 1_555
Eu2_7 O5_8 1_555 1_555
Eu2_7 O7_7 1_555 1_555
H2_7 C2_7 1_555 1_555
C3_7 H3_7 1_555 1_555
H4_7 C3_7 1_555 1_555
C4_7 C3_7 1_555 1_555
N1_7 C2_7 1_555 1_555
H13_7 N1_7 1_555 1_555
O3_4 C4_7 1_555 1_555
O4_4 C4_7 1_555 1_555
Eu4_3 O3_4 1_555 1_555
C3_7 N1_7 1_555 1_555
O4_4 Eu4_3 1_555 1_555
O6_4 Eu4_3 1_555 1_555
C5_9 C6_9 1_555 1_555
C6_9 H5_9 1_555 1_555
H6_9 C6_9 1_555 1_555
C7_9 H7_8 1_555 1_555
H8_9 C7_9 1_555 1_555
C8_8 C7_9 1_555 1_555
C9_9 C10_8 1_555 1_555
C10_8 H9_6 1_555 1_555
H10_8 C10_8 1_555 1_555
C11_7 H11_7 1_555 1_555
H12_7 C11_7 1_555 1_555
C12_9 C11_7 1_555 1_555
Eu5_5 N2_9 1_555 1_555
N2_9 C6_9 1_555 1_555
H14_9 N2_9 1_555 1_555
N3_8 C10_8 1_555 1_555
H15_8 N3_8 1_555 1_555
O1_8 C1_8 1_555 1_555
O13_5 C1_8 1_555 1_555
O5_9 C5_9 1_555 1_555
O7_8 C8_8 1_555 1_555
O8_8 C8_8 1_555 1_555
O9_9 C9_9 1_555 1_555
O10_5 C9_9 1_555 1_555
O18_5 C12_9 1_555 1_555
O12_7 C12_9 1_555 1_555
Eu3_2 O10_5 1_555 1_555
O14_4 Eu1_5 1_555 1_555
O15_5 Eu1_5 1_555 1_555
O16_5 Eu1_5 1_555 1_555
O17_5 Eu1_5 1_555 1_555
C7_9 N2_9 1_555 1_555
C11_7 N3_8 1_555 1_555
Eu1_5 O1_8 1_555 1_555
Eu1_5 O5_9 1_555 1_555
Eu1_5 O9_9 1_555 1_555
Eu5_5 N3_8 1_555 1_555
Eu5_5 O1_8 1_555 1_555
Eu5_5 O5_9 1_555 1_555
Eu5_5 O7_8 1_555 1_555
Eu5_5 O9_9 1_555 1_555
Eu3_2 O14_4 1_555 1_555
C1_9 C2_8 1_555 1_555
C2_8 H1_9 1_555 1_555
H2_8 C2_8 1_555 1_555
C3_8 H3_8 1_555 1_555
H4_8 C3_8 1_555 1_555
C4_8 C3_8 1_555 1_555
C5_10 C6_10 1_555 1_555
C6_10 H5_10 1_555 1_555
H6_10 C6_10 1_555 1_555
C7_10 H7_9 1_555 1_555
H8_10 C7_10 1_555 1_555
C8_9 C7_10 1_555 1_555
C9_10 C10_9 1_555 1_555
H10_9 C10_9 1_555 1_555
Eu1_6 N1_8 1_555 1_555
Eu5_6 N2_10 1_555 1_555
N1_8 C2_8 1_555 1_555
H13_8 N1_8 1_555 1_555
N2_10 C6_10 1_555 1_555
H14_10 N2_10 1_555 1_555
N3_9 C10_9 1_555 1_555
H15_9 N3_9 1_555 1_555
O1_9 C1_9 1_555 1_555
O13_6 C1_9 1_555 1_555
O3_5 C4_8 1_555 1_555
O4_5 C4_8 1_555 1_555
O5_10 C5_10 1_555 1_555
O6_5 C5_10 1_555 1_555
O7_9 C8_9 1_555 1_555
O8_9 C8_9 1_555 1_555
O9_10 C9_10 1_555 1_555
O10_6 C9_10 1_555 1_555
O18_6 C12_10 1_555 1_555
Eu4_3 O10_6 1_555 1_555
Eu3_2 O3_5 1_555 1_555
O14_5 Eu1_6 1_555 1_555
O15_6 Eu1_6 1_555 1_555
O16_6 Eu1_6 1_555 1_555
O17_6 Eu1_6 1_555 1_555
C3_8 N1_8 1_555 1_555
C7_10 N2_10 1_555 1_555
Eu1_6 O1_9 1_555 1_555
Eu1_6 O3_5 1_555 1_555
Eu1_6 O5_10 1_555 1_555
Eu1_6 O9_10 1_555 1_555
Eu5_6 N3_9 1_555 1_555
Eu5_6 O1_9 1_555 1_555
Eu5_6 O5_10 1_555 1_555
Eu5_6 O7_9 1_555 1_555
Eu5_6 O9_10 1_555 1_555
O4_5 Eu3_2 1_555 1_555
O6_5 Eu3_2 1_555 1_555
Eu4_3 O14_5 1_555 1_555
C1_10 C2_9 1_555 1_555
C2_9 H1_10 1_555 1_555
H2_9 C2_9 1_555 1_555
C3_9 H3_9 1_555 1_555
H4_9 C3_9 1_555 1_555
C4_9 C3_9 1_555 1_555
C5_11 C6_11 1_555 1_555
C6_11 H5_11 1_555 1_555
H6_11 C6_11 1_555 1_555
C7_11 H7_10 1_555 1_555
H8_11 C7_11 1_555 1_555
C8_10 C7_11 1_555 1_555
C9_11 C10_10 1_555 1_555
C10_10 H9_7 1_555 1_555
H10_10 C10_10 1_555 1_555
C11_8 H11_8 1_555 1_555
H12_8 C11_8 1_555 1_555
C12_11 C11_8 1_555 1_555
Eu3_2 N1_9 1_555 1_555
Eu5_3 N2_11 1_555 1_555
N1_9 C2_9 1_555 1_555
H13_9 N1_9 1_555 1_555
N2_11 C6_11 1_555 1_555
H14_11 N2_11 1_555 1_555
N3_10 C10_10 1_555 1_555
H15_10 N3_10 1_555 1_555
O1_10 C1_10 1_555 1_555
O13_3 C1_10 1_555 1_555
O14_4 C4_9 1_555 1_555
O15_5 C4_9 1_555 1_555
O5_11 C5_11 1_555 1_555
O16_5 C5_11 1_555 1_555
O7_10 C8_10 1_555 1_555
O8_10 C8_10 1_555 1_555
O9_11 C9_11 1_555 1_555
O17_6 C9_11 1_555 1_555
O18_3 C12_11 1_555 1_555
C3_9 N1_9 1_555 1_555
C7_11 N2_11 1_555 1_555
C11_8 N3_10 1_555 1_555
Eu3_2 O1_10 1_555 1_555
Eu3_2 O5_11 1_555 1_555
Eu3_2 O9_11 1_555 1_555
Eu5_3 N3_10 1_555 1_555
Eu5_3 O1_10 1_555 1_555
Eu5_3 O5_11 1_555 1_555
Eu5_3 O7_10 1_555 1_555
Eu5_3 O9_11 1_555 1_555
C1_11 C2_10 1_555 1_555
C2_10 H1_11 1_555 1_555
H2_10 C2_10 1_555 1_555
C3_10 H3_10 1_555 1_555
H4_10 C3_10 1_555 1_555
C4_10 C3_10 1_555 1_555
C5_12 C6_12 1_555 1_555
C6_12 H5_12 1_555 1_555
H6_12 C6_12 1_555 1_555
H8_12 C7_12 1_555 1_555
Eu4_3 N1_10 1_555 1_555
N1_10 C2_10 1_555 1_555
H13_10 N1_10 1_555 1_555
N2_12 C6_12 1_555 1_555
H14_12 N2_12 1_555 1_555
O1_11 C1_11 1_555 1_555
O13_4 C1_11 1_555 1_555
O14_5 C4_10 1_555 1_555
O15_6 C4_10 1_555 1_555
O5_12 C5_12 1_555 1_555
O16_6 C5_12 1_555 1_555
C3_10 N1_10 1_555 1_555
C7_12 N2_12 1_555 1_555
Eu4_3 O1_11 1_555 1_555
Eu4_3 O5_12 1_555 1_555
C9_12 C10_11 1_555 1_555
C10_11 H9_8 1_555 1_555
H10_11 C10_11 1_555 1_555
C11_9 H11_9 1_555 1_555
H12_9 C11_9 1_555 1_555
C12_12 C11_9 1_555 1_555
N3_11 C10_11 1_555 1_555
H15_11 N3_11 1_555 1_555
O7_11 C8_11 1_555 1_555
O8_11 C8_11 1_555 1_555
O9_12 C9_12 1_555 1_555
O17_5 C9_12 1_555 1_555
O18_4 C12_12 1_555 1_555
O12_9 C12_12 1_555 1_555
C11_9 N3_11 1_555 1_555
Eu5_4 N3_11 1_555 1_555
Eu5_4 O7_11 1_555 1_555
Eu5_4 O9_12 1_555 1_555
C1_12 C2_11 1_555 1_555
C2_11 H1_12 1_555 1_555
H2_11 C2_11 1_555 1_555
C3_11 H3_11 1_555 1_555
H4_11 C3_11 1_555 1_555
C4_11 C3_11 1_555 1_555
C5_13 C6_13 1_555 1_555
C6_13 H5_13 1_555 1_555
H6_13 C6_13 1_555 1_555
C7_13 H7_12 1_555 1_555
H8_13 C7_13 1_555 1_555
C8_12 C7_13 1_555 1_555
C9_13 C10_12 1_555 1_555
H10_12 C10_12 1_555 1_555
Eu1_7 N1_11 1_555 1_555
Eu5 N2_13 1_555 1_555
N1_11 C2_11 1_555 1_555
H13_11 N1_11 1_555 1_555
N2_13 C6_13 1_555 1_555
H14_13 N2_13 1_555 1_555
N3_12 C10_12 1_555 1_555
H15_12 N3_12 1_555 1_555
O1_12 C1_12 1_555 1_555
O13 C1_12 1_555 1_555
O3_6 C4_11 1_555 1_555
O4_6 C4_11 1_555 1_555
O5_13 C5_13 1_555 1_555
O6_6 C5_13 1_555 1_555
O7_12 C8_12 1_555 1_555
O8_12 C8_12 1_555 1_555
O9_13 C9_13 1_555 1_555
O10_7 C9_13 1_555 1_555
O18 C12_13 1_555 1_555
Eu4_4 O3_6 1_555 1_555
O15_7 Eu1_7 1_555 1_555
O16_7 Eu1_7 1_555 1_555
O17_7 Eu1_7 1_555 1_555
C3_11 N1_11 1_555 1_555
C7_13 N2_13 1_555 1_555
Eu1_7 O1_12 1_555 1_555
Eu1_7 O3_6 1_555 1_555
Eu1_7 O5_13 1_555 1_555
Eu1_7 O9_13 1_555 1_555
Eu5 N3_12 1_555 1_555
Eu5 O1_12 1_555 1_555
Eu5 O5_13 1_555 1_555
Eu5 O7_12 1_555 1_555
Eu5 O9_13 1_555 1_555
O4_6 Eu4_4 1_555 1_555
O6_6 Eu4_4 1_555 1_555
C5_14 C6_14 1_555 1_555
C6_14 H5_14 1_555 1_555
H6_14 C6_14 1_555 1_555
C7_14 H7_13 1_555 1_555
H8_14 C7_14 1_555 1_555
C8_13 C7_14 1_555 1_555
C9_14 C10_13 1_555 1_555
C10_13 H9_9 1_555 1_555
H10_13 C10_13 1_555 1_555
C11_10 H11_10 1_555 1_555
H12_10 C11_10 1_555 1_555
C12_14 C11_10 1_555 1_555
Eu5_2 N2_14 1_555 1_555
N2_14 C6_14 1_555 1_555
H14_14 N2_14 1_555 1_555
N3_13 C10_13 1_555 1_555
H15_13 N3_13 1_555 1_555
O1_13 C1_13 1_555 1_555
O13_2 C1_13 1_555 1_555
O5_14 C5_14 1_555 1_555
O7_13 C8_13 1_555 1_555
O8_13 C8_13 1_555 1_555
O9_14 C9_14 1_555 1_555
O10_8 C9_14 1_555 1_555
O18_2 C12_14 1_555 1_555
O12_10 C12_14 1_555 1_555
O15_8 Eu1_8 1_555 1_555
O16_8 Eu1_8 1_555 1_555
O17_8 Eu1_8 1_555 1_555
C7_14 N2_14 1_555 1_555
C11_10 N3_13 1_555 1_555
Eu1_8 O1_13 1_555 1_555
Eu1_8 O5_14 1_555 1_555
Eu1_8 O9_14 1_555 1_555
Eu5_2 N3_13 1_555 1_555
Eu5_2 O1_13 1_555 1_555
Eu5_2 O5_14 1_555 1_555
Eu5_2 O7_13 1_555 1_555
Eu5_2 O9_14 1_555 1_555
Eu4_4 O14_6 1_555 1_555
C11_11 H11_11 1_555 1_555
H12_11 C11_11 1_555 1_555
C12_15 C11_11 1_555 1_555
O9_15 C9_15 1_555 1_555
O17_8 C9_15 1_555 1_555
O18_7 C12_15 1_555 1_555
O12_11 C12_15 1_555 1_555
C5_15 C6_15 1_555 1_555
C6_15 H5_15 1_555 1_555
H6_15 C6_15 1_555 1_555
H8_15 C7_15 1_555 1_555
N2_15 C6_15 1_555 1_555
H14_15 N2_15 1_555 1_555
O5_15 C5_15 1_555 1_555
O16_7 C5_15 1_555 1_555
C7_15 N2_15 1_555 1_555
C5_16 C6_16 1_555 1_555
C6_16 H5_16 1_555 1_555
H6_16 C6_16 1_555 1_555
C7_16 H7_14 1_555 1_555
H8_16 C7_16 1_555 1_555
C8_14 C7_16 1_555 1_555
C10_14 H9_10 1_555 1_555
H10_14 C10_14 1_555 1_555
Eu5_7 N2_16 1_555 1_555
N2_16 C6_16 1_555 1_555
H14_16 N2_16 1_555 1_555
N3_14 C10_14 1_555 1_555
H15_14 N3_14 1_555 1_555
O5_16 C5_16 1_555 1_555
O16_8 C5_16 1_555 1_555
O7_14 C8_14 1_555 1_555
O8_14 C8_14 1_555 1_555
C7_16 N2_16 1_555 1_555
Eu5_7 N3_14 1_555 1_555
Eu5_7 O5_16 1_555 1_555
Eu5_7 O7_14 1_555 1_555
C1_14 C2_12 1_555 1_555
C2_12 H1_14 1_555 1_555
H2_12 C2_12 1_555 1_555
C3_12 H3_12 1_555 1_555
H4_12 C3_12 1_555 1_555
C4_12 C3_12 1_555 1_555
C11_12 H11_12 1_555 1_555
H12_12 C11_12 1_555 1_555
C12_16 C11_12 1_555 1_555
Eu4_4 N1_12 1_555 1_555
N1_12 C2_12 1_555 1_555
H13_12 N1_12 1_555 1_555
O1_14 C1_14 1_555 1_555
O13_7 C1_14 1_555 1_555
O14_6 C4_12 1_555 1_555
O9_16 C9_16 1_555 1_555
O17_7 C9_16 1_555 1_555
O18_8 C12_16 1_555 1_555
C3_12 N1_12 1_555 1_555
Eu4_4 O1_14 1_555 1_555
Eu4_4 O9_16 1_555 1_555
C11_13 H11_13 1_555 1_555
H12_13 C11_13 1_555 1_555
C11_14 H11_14 1_555 1_555
H12_14 C11_14 1_555 1_555
Eu3_3 O14_7 1_555 1_555
H2_13 C2_13 1_555 1_555
C3_13 H3_13 1_555 1_555
H4_13 C3_13 1_555 1_555
C4_13 C3_13 1_555 1_555
N1_13 C2_13 1_555 1_555
H13_13 N1_13 1_555 1_555
O3_7 C4_13 1_555 1_555
O4_7 C4_13 1_555 1_555
Eu3_3 O3_7 1_555 1_555
C3_13 N1_13 1_555 1_555
O4_7 Eu3_3 1_555 1_555
O6_7 Eu3_3 1_555 1_555
C1_15 C2_14 1_555 1_555
C2_14 H1_15 1_555 1_555
H2_14 C2_14 1_555 1_555
C3_14 H3_14 1_555 1_555
H4_14 C3_14 1_555 1_555
C4_14 C3_14 1_555 1_555
Eu3_3 N1_14 1_555 1_555
N1_14 C2_14 1_555 1_555
H13_14 N1_14 1_555 1_555
O1_15 C1_15 1_555 1_555
O2_8 C1_15 1_555 1_555
O14_7 C4_14 1_555 1_555
Eu5_8 O2_8 1_555 1_555
C3_14 N1_14 1_555 1_555
Eu3_3 O1_15 1_555 1_555
C10_15 H9_13 1_555 1_555
H10_15 C10_15 1_555 1_555
N3_15 C10_15 1_555 1_555
H15_15 N3_15 1_555 1_555
O7_15 C8_15 1_555 1_555
O8_15 C8_15 1_555 1_555
Eu5_8 N3_15 1_555 1_555
Eu5_8 O7_15 1_555 1_555
C10_16 H9_14 1_555 1_555
H10_16 C10_16 1_555 1_555
N3_16 C10_16 1_555 1_555
H15_16 N3_16 1_555 1_555
O7_16 C8_16 1_555 1_555
O8_16 C8_16 1_555 1_555
O13_8 Eu2_8 1_555 1_555
Eu2_8 N3_16 1_555 1_555
Eu2_8 O7_16 1_555 1_555
Eu3_4 O14_8 1_555 1_555
H2_15 C2_15 1_555 1_555
C3_15 H3_15 1_555 1_555
H4_15 C3_15 1_555 1_555
C4_15 C3_15 1_555 1_555
N1_15 C2_15 1_555 1_555
H13_15 N1_15 1_555 1_555
O3_8 C4_15 1_555 1_555
O4_8 C4_15 1_555 1_555
Eu3_4 O3_8 1_555 1_555
C3_15 N1_15 1_555 1_555
O4_8 Eu3_4 1_555 1_555
O6_8 Eu3_4 1_555 1_555
C1_16 C2_16 1_555 1_555
C2_16 H1_16 1_555 1_555
H2_16 C2_16 1_555 1_555
C3_16 H3_16 1_555 1_555
H4_16 C3_16 1_555 1_555
C4_16 C3_16 1_555 1_555
Eu3_4 N1_16 1_555 1_555
N1_16 C2_16 1_555 1_555
H13_16 N1_16 1_555 1_555
O1_16 C1_16 1_555 1_555
O13_8 C1_16 1_555 1_555
O14_8 C4_16 1_555 1_555
C3_16 N1_16 1_555 1_555
Eu3_4 O1_16 1_555 1_555
C11_15 H11_15 1_555 1_555
H12_15 C11_15 1_555 1_555
C11_16 H11_16 1_555 1_555
H12_16 C11_16 1_555 1_555

#END
