
###############################################################################
#
# This file contains modified crystal structure data generated from the
# MOF subset of the Cambridge Structural Database (CSD) v543 
# hosted by the Cambridge Crystallographic Data Centre (CCDC).
#
# This work is licensed under the Creative Commons
# Attribution-NonCommercial-ShareAlike 4.0 International License.
# To view a copy of this license, visit
# http://creativecommons.org/licenses/by-nc-sa/4.0/
# or send a letter to
# Creative Commons, PO Box 1866, Mountain View, CA 94042, USA.
#
# CIF created using the CSD Python API on 29 September 2022
# The structure has been converted into the P1 space group
# The structure has a 3D framework
# The original CSD entry ZEVQEZ is in the monoclinic crystal system
# The framework has been calculated to contain at least 10.0% void space
# The void calculation uses a probe of radius 1.32A, grid spacing 0.4
# The framework is charged, counterions have been retained in the structure
#
###############################################################################

data_ZEVQEZ
_chemical_formula_moiety         '(C60 H40 Eu6 O52 S8 5-)n'
_symmetry_cell_setting           triclinic
_symmetry_space_group_name_H-M   'P 1'
_symmetry_Int_Tables_number      1
_space_group_name_Hall           'P 1'
loop_
_symmetry_equiv_pos_site_id
_symmetry_equiv_pos_as_xyz
1 x,y,z
_cell_length_a                   19.6761(6)
_cell_length_b                   16.3241(5)
_cell_length_c                   9.2356(3)
_cell_angle_alpha                90
_cell_angle_beta                 99.061(3)
_cell_angle_gamma                90
_cell_volume                     2929.41
loop_
_atom_site_label
_atom_site_type_symbol
_atom_site_fract_x
_atom_site_fract_y
_atom_site_fract_z
Eu2 Eu 0.0000 0.01621(2) 0.7500
O4 O 0.02896(15) 0.13998(19) 0.8963(3)
H3 H 0.0615 0.1659 0.8654
H4 H 0.0420 0.1269 0.9852
O30 O 0.11249(14) 0.06476(19) 0.6982(3)
Eu7 Eu 0.0000 0.98379(2) 0.2500
O29 O 0.06441(14) 0.97240(17) 0.9767(3)
O32 O 0.06705(13) 0.89594(17) 0.6984(3)
Eu2_2 Eu 1.0000 0.01621(2) 0.7500
O26 O 0.97104(15) 0.13998(19) 0.6037(3)
H19 H 0.9385 0.1659 0.6346
H20 H 0.9580 0.1269 0.5148
O31 O 0.88751(14) 0.06476(19) 0.8018(3)
O3 O 0.55016(15) 0.64424(19) 0.1362(3)
H7 H 0.5268 0.7904 0.0096
C7 C 0.55061(18) 0.6331(2) 0.0021(4)
H12 H 0.5973 0.4244 0.0004
O22 O 0.11249(14) 0.93524(19) 0.1982(3)
C27 C 0.17978(18) 0.9247(2) 0.0073(4)
C28 C 0.2408(2) 0.9565(3) 0.0850(4)
H17 H 0.2399 0.9836 0.1733
C29 C 0.30274(19) 0.9483(2) 0.0322(4)
H18 H 0.3426 0.9714 0.0835
C30 C 0.11436(19) 0.9441(2) 0.0637(4)
Eu4 Eu 0.5000 0.52958(2) 0.2500
Eu1 Eu 0.5000 0.47042(2) 0.7500
S1 S 0.66014(5) 0.59189(5) 0.79168(10)
S2 S 0.89113(5) 0.83179(6) 0.72104(11)
O1 O 0.52848(15) 0.56935(16) 0.9375(3)
O2 O 0.40385(14) 0.40679(16) 0.5865(3)
H1 H 0.4084 0.3549 0.5858
H2 H 0.4027 0.4244 0.4996
O5 O 0.60774(14) 0.53837(15) 0.7083(3)
O6 O 0.68305(15) 0.56206(18) 0.9390(3)
O7 O 0.71500(14) 0.60803(18) 0.7086(3)
O8 O 0.58696(16) 0.95797(19) 0.6286(4)
O9 O 0.93559(14) 0.97240(17) 0.5233(3)
O10 O 0.88751(14) 0.93524(19) 0.3018(3)
O11 O 0.93295(13) 0.89594(17) 0.8016(3)
O12 O 0.92481(15) 0.7921(2) 0.6120(4)
O13 O 0.86541(15) 0.7764(2) 0.8227(4)
C1 C 0.57684(18) 0.7013(2) 0.9179(4)
C2 C 0.62002(17) 0.6889(2) 0.8125(4)
C3 C 0.63790(17) 0.7538(2) 0.7299(4)
H5 H 0.6667 0.7448 0.6607
C4 C 0.61330(17) 0.8322(2) 0.7493(4)
C5 C 0.57242(18) 0.8450(2) 0.8569(4)
H6 H 0.5571 0.8975 0.8737
C6 C 0.55455(19) 0.7807(2) 0.9386(4)
C8 C 0.62797(18) 0.9023(2) 0.6551(4)
C9 C 0.69473(17) 0.9058(2) 0.5965(4)
C10 C 0.75439(18) 0.8709(2) 0.6718(4)
H8 H 0.7524 0.8402 0.7559
C11 C 0.81730(17) 0.8814(2) 0.6224(4)
C12 C 0.82022(18) 0.9247(2) 0.4927(4)
C13 C 0.7592(2) 0.9565(3) 0.4150(4)
H9 H 0.7601 0.9836 0.3267
C14 C 0.69726(19) 0.9483(2) 0.4678(4)
H10 H 0.6574 0.9714 0.4165
C15 C 0.88564(19) 0.9441(2) 0.4363(4)
S3 S 0.33986(5) 0.59189(5) 0.70832(10)
S4 S 0.10887(5) 0.83179(6) 0.77896(11)
O14 O 0.47152(15) 0.56935(16) 0.5625(3)
O15 O 0.59615(14) 0.40679(16) 0.9135(3)
H11 H 0.5916 0.3549 0.9142
O16 O 0.44984(15) 0.64424(19) 0.3638(3)
O17 O 0.39226(14) 0.53837(15) 0.7917(3)
O18 O 0.31695(15) 0.56206(18) 0.5610(3)
O19 O 0.28500(14) 0.60803(18) 0.7914(3)
O20 O 0.41304(16) 0.95797(19) 0.8714(4)
O24 O 0.07519(15) 0.7921(2) 0.8880(4)
O25 O 0.13459(15) 0.7764(2) 0.6773(4)
C16 C 0.42316(18) 0.7013(2) 0.5821(4)
C17 C 0.37998(17) 0.6889(2) 0.6875(4)
C18 C 0.36210(17) 0.7538(2) 0.7701(4)
H13 H 0.3333 0.7448 0.8393
C19 C 0.38670(17) 0.8322(2) 0.7507(4)
C20 C 0.42758(18) 0.8450(2) 0.6431(4)
H14 H 0.4429 0.8975 0.6263
C21 C 0.44545(19) 0.7807(2) 0.5614(4)
H15 H 0.4732 0.7904 0.4904
C22 C 0.44939(18) 0.6331(2) 0.4979(4)
C23 C 0.37203(18) 0.9023(2) 0.8449(4)
C24 C 0.30527(17) 0.9058(2) 0.9035(4)
C25 C 0.24561(18) 0.8709(2) 0.8282(4)
H16 H 0.2476 0.8402 0.7441
C26 C 0.18270(17) 0.8814(2) 0.8776(4)
Eu7_2 Eu 1.0000 0.98379(2) 0.2500
O27 O 0.44984(15) 0.35576(19) 0.8638(3)
O28 O 0.55016(15) 0.35576(19) 0.6362(3)
S1_2 S 0.33986(5) 0.40811(5) 0.20832(10)
S2_2 S 0.10887(5) 0.16821(6) 0.27896(11)
O1_2 O 0.47152(15) 0.43065(16) 0.0625(3)
O2_2 O 0.59615(14) 0.59321(16) 0.4135(3)
H1_2 H 0.5916 0.6451 0.4142
H2_2 H 0.5973 0.5756 0.5004
O5_2 O 0.39226(14) 0.46163(15) 0.2917(3)
O6_2 O 0.31695(15) 0.43794(18) 0.0610(3)
O7_2 O 0.28500(14) 0.39197(18) 0.2914(3)
O8_2 O 0.41304(16) 0.04203(19) 0.3714(4)
O9_2 O 0.06441(14) 0.02760(17) 0.4767(3)
O11_2 O 0.06705(13) 0.10406(17) 0.1984(3)
O12_2 O 0.07519(15) 0.2079(2) 0.3880(4)
O13_2 O 0.13459(15) 0.2236(2) 0.1773(4)
C1_2 C 0.42316(18) 0.2987(2) 0.0821(4)
C2_2 C 0.37998(17) 0.3111(2) 0.1875(4)
C3_2 C 0.36210(17) 0.2462(2) 0.2701(4)
H5_2 H 0.3333 0.2552 0.3393
C4_2 C 0.38670(17) 0.1678(2) 0.2507(4)
C5_2 C 0.42758(18) 0.1550(2) 0.1431(4)
H6_2 H 0.4429 0.1025 0.1263
C6_2 C 0.44545(19) 0.2193(2) 0.0614(4)
C8_2 C 0.37203(18) 0.0977(2) 0.3449(4)
C9_2 C 0.30527(17) 0.0942(2) 0.4035(4)
C10_2 C 0.24561(18) 0.1291(2) 0.3282(4)
H8_2 H 0.2476 0.1598 0.2441
C11_2 C 0.18270(17) 0.1186(2) 0.3776(4)
C12_2 C 0.17978(18) 0.0753(2) 0.5073(4)
C13_2 C 0.2408(2) 0.0435(3) 0.5850(4)
H9_2 H 0.2399 0.0164 0.6733
C14_2 C 0.30274(19) 0.0517(2) 0.5322(4)
H10_2 H 0.3426 0.0286 0.5835
C15_2 C 0.11436(19) 0.0559(2) 0.5637(4)
S3_2 S 0.66014(5) 0.40811(5) 0.29168(10)
S4_2 S 0.89113(5) 0.16821(6) 0.22104(11)
O14_2 O 0.52848(15) 0.43065(16) 0.4375(3)
O15_2 O 0.40385(14) 0.59321(16) 0.0865(3)
H11_2 H 0.4084 0.6451 0.0858
O17_2 O 0.60774(14) 0.46163(15) 0.2083(3)
O18_2 O 0.68305(15) 0.43794(18) 0.4390(3)
O19_2 O 0.71500(14) 0.39197(18) 0.2086(3)
O20_2 O 0.58696(16) 0.04203(19) 0.1286(4)
O21 O 0.93559(14) 0.02760(17) 0.0233(3)
O23 O 0.93295(13) 0.10406(17) 0.3016(3)
O24_2 O 0.92481(15) 0.2079(2) 0.1120(4)
O25_2 O 0.86541(15) 0.2236(2) 0.3227(4)
C16_2 C 0.57684(18) 0.2987(2) 0.4179(4)
C17_2 C 0.62002(17) 0.3111(2) 0.3125(4)
C18_2 C 0.63790(17) 0.2462(2) 0.2299(4)
H13_2 H 0.6667 0.2552 0.1607
C19_2 C 0.61330(17) 0.1678(2) 0.2493(4)
C20_2 C 0.57242(18) 0.1550(2) 0.3569(4)
H14_2 H 0.5571 0.1025 0.3737
C21_2 C 0.55455(19) 0.2193(2) 0.4386(4)
H15_2 H 0.5268 0.2096 0.5096
C22_2 C 0.55061(18) 0.3669(2) 0.5021(4)
C23_2 C 0.62797(18) 0.0977(2) 0.1551(4)
C24_2 C 0.69473(17) 0.0942(2) 0.0965(4)
C25_2 C 0.75439(18) 0.1291(2) 0.1718(4)
H16_2 H 0.7524 0.1598 0.2559
C26_2 C 0.81730(17) 0.1186(2) 0.1224(4)
H7_2 H 0.4732 0.2096 0.9904
C7_2 C 0.44939(18) 0.3669(2) 0.9979(4)
H12_2 H 0.4027 0.5756 0.9996
C27_2 C 0.82022(18) 0.0753(2) 0.9927(4)
C28_2 C 0.7592(2) 0.0435(3) 0.9150(4)
H17_2 H 0.7601 0.0164 0.8267
C29_2 C 0.69726(19) 0.0517(2) 0.9678(4)
H18_2 H 0.6574 0.0286 0.9165
C30_2 C 0.88564(19) 0.0559(2) 0.9363(4)
O26_2 O 0.02896(15) 0.86002(19) 0.3963(3)
H19_2 H 0.0615 0.8341 0.3654
H20_2 H 0.0420 0.8731 0.4852
O4_2 O 0.97104(15) 0.86002(19) 0.1037(3)
H3_2 H 0.9385 0.8341 0.1346
H4_2 H 0.9580 0.8731 0.0148
loop_
_geom_bond_atom_site_label_1
_geom_bond_atom_site_label_2
_geom_bond_site_symmetry_1
_geom_bond_site_symmetry_2
Eu2 O4 1_555 1_555
O4 H3 1_555 1_555
H4 O4 1_555 1_555
O30 Eu2 1_555 1_555
O26 Eu2_2 1_555 1_555
H19 O26 1_555 1_555
H20 O26 1_555 1_555
O31 Eu2_2 1_555 1_555
O3 C7 1_555 1_555
O22 C30 1_555 1_555
C28 C27 1_555 1_555
H17 C28 1_555 1_555
H18 C29 1_555 1_555
C30 C27 1_555 1_555
Eu4 O3 1_555 1_555
Eu7 O22 1_555 1_555
C28 C29 1_555 1_555
Eu1 O1 1_555 1_555
S1 O5 1_555 1_555
S2 O11 1_555 1_555
O2 Eu1 1_555 1_555
H1 O2 1_555 1_555
H2 O2 1_555 1_555
O5 Eu1 1_555 1_555
O6 S1 1_555 1_555
O7 S1 1_555 1_555
O8 C8 1_555 1_555
O10 C15 1_555 1_555
O12 S2 1_555 1_555
O13 S2 1_555 1_555
C1 C2 1_555 1_555
C2 S1 1_555 1_555
C3 C2 1_555 1_555
H5 C3 1_555 1_555
C4 C3 1_555 1_555
C5 C4 1_555 1_555
H6 C5 1_555 1_555
C6 C1 1_555 1_555
C8 C4 1_555 1_555
C9 C8 1_555 1_555
C10 C9 1_555 1_555
H8 C10 1_555 1_555
C11 S2 1_555 1_555
C12 C11 1_555 1_555
C13 C12 1_555 1_555
H9 C13 1_555 1_555
C14 C9 1_555 1_555
H10 C14 1_555 1_555
C15 O9 1_555 1_555
S3 O17 1_555 1_555
S4 O32 1_555 1_555
O14 Eu1 1_555 1_555
O15 Eu1 1_555 1_555
H11 O15 1_555 1_555
O16 C22 1_555 1_555
O17 Eu1 1_555 1_555
O18 S3 1_555 1_555
O19 S3 1_555 1_555
O20 C23 1_555 1_555
O24 S4 1_555 1_555
O25 S4 1_555 1_555
C16 C17 1_555 1_555
C17 S3 1_555 1_555
C18 C17 1_555 1_555
H13 C18 1_555 1_555
C19 C18 1_555 1_555
C20 C19 1_555 1_555
H14 C20 1_555 1_555
C21 C16 1_555 1_555
H15 C21 1_555 1_555
C22 O14 1_555 1_555
C23 C19 1_555 1_555
C24 C23 1_555 1_555
C25 C24 1_555 1_555
H16 C25 1_555 1_555
C26 S4 1_555 1_555
Eu4 O16 1_555 1_555
Eu7_2 O10 1_555 1_555
O27 Eu1 1_555 1_555
O28 Eu1 1_555 1_555
C5 C6 1_555 1_555
C10 C11 1_555 1_555
C12 C15 1_555 1_555
C13 C14 1_555 1_555
C16 C22 1_555 1_555
C20 C21 1_555 1_555
C25 C26 1_555 1_555
Eu4 O1_2 1_555 1_555
S1_2 O5_2 1_555 1_555
S2_2 O11_2 1_555 1_555
O2_2 Eu4 1_555 1_555
H1_2 O2_2 1_555 1_555
H2_2 O2_2 1_555 1_555
O5_2 Eu4 1_555 1_555
O6_2 S1_2 1_555 1_555
O7_2 S1_2 1_555 1_555
O8_2 C8_2 1_555 1_555
O30 C15_2 1_555 1_555
O12_2 S2_2 1_555 1_555
O13_2 S2_2 1_555 1_555
C1_2 C2_2 1_555 1_555
C2_2 S1_2 1_555 1_555
C3_2 C2_2 1_555 1_555
H5_2 C3_2 1_555 1_555
C4_2 C3_2 1_555 1_555
C5_2 C4_2 1_555 1_555
H6_2 C5_2 1_555 1_555
C6_2 C1_2 1_555 1_555
C8_2 C4_2 1_555 1_555
C9_2 C8_2 1_555 1_555
C10_2 C9_2 1_555 1_555
H8_2 C10_2 1_555 1_555
C11_2 S2_2 1_555 1_555
C12_2 C11_2 1_555 1_555
C13_2 C12_2 1_555 1_555
H9_2 C13_2 1_555 1_555
C14_2 C9_2 1_555 1_555
H10_2 C14_2 1_555 1_555
C15_2 O9_2 1_555 1_555
S3_2 O17_2 1_555 1_555
S4_2 O23 1_555 1_555
O14_2 Eu4 1_555 1_555
O15_2 Eu4 1_555 1_555
H11_2 O15_2 1_555 1_555
O28 C22_2 1_555 1_555
O17_2 Eu4 1_555 1_555
O18_2 S3_2 1_555 1_555
O19_2 S3_2 1_555 1_555
O20_2 C23_2 1_555 1_555
O24_2 S4_2 1_555 1_555
O25_2 S4_2 1_555 1_555
C16_2 C17_2 1_555 1_555
C17_2 S3_2 1_555 1_555
C18_2 C17_2 1_555 1_555
H13_2 C18_2 1_555 1_555
C19_2 C18_2 1_555 1_555
C20_2 C19_2 1_555 1_555
H14_2 C20_2 1_555 1_555
C21_2 C16_2 1_555 1_555
H15_2 C21_2 1_555 1_555
C22_2 O14_2 1_555 1_555
C23_2 C19_2 1_555 1_555
C24_2 C23_2 1_555 1_555
C25_2 C24_2 1_555 1_555
H16_2 C25_2 1_555 1_555
C26_2 S4_2 1_555 1_555
C5_2 C6_2 1_555 1_555
C10_2 C11_2 1_555 1_555
C12_2 C15_2 1_555 1_555
C13_2 C14_2 1_555 1_555
C16_2 C22_2 1_555 1_555
C20_2 C21_2 1_555 1_555
C25_2 C26_2 1_555 1_555
O27 C7_2 1_555 1_555
O31 C30_2 1_555 1_555
C28_2 C27_2 1_555 1_555
H17_2 C28_2 1_555 1_555
H18_2 C29_2 1_555 1_555
C30_2 C27_2 1_555 1_555
C28_2 C29_2 1_555 1_555
O26_2 Eu7 1_555 1_555
H19_2 O26_2 1_555 1_555
H20_2 O26_2 1_555 1_555
Eu7_2 O4_2 1_555 1_555
O4_2 H3_2 1_555 1_555
H4_2 O4_2 1_555 1_555

#END
