
###############################################################################
#
# This file contains modified crystal structure data generated from the
# MOF subset of the Cambridge Structural Database (CSD) v543 
# hosted by the Cambridge Crystallographic Data Centre (CCDC).
#
# This work is licensed under the Creative Commons
# Attribution-NonCommercial-ShareAlike 4.0 International License.
# To view a copy of this license, visit
# http://creativecommons.org/licenses/by-nc-sa/4.0/
# or send a letter to
# Creative Commons, PO Box 1866, Mountain View, CA 94042, USA.
#
# CIF created using the CSD Python API on 29 September 2022
# The structure has been converted into the P1 space group
# The structure has a 3D framework
# The original CSD entry ZEVQID is in the monoclinic crystal system
# The framework has been calculated to contain at least 10.0% void space
# The void calculation uses a probe of radius 1.32A, grid spacing 0.4
# The framework is charged, counterions have been retained in the structure
#
###############################################################################

data_ZEVQID
_chemical_formula_moiety         '(C60 H40 Gd6 O52 S8 5-)n'
_symmetry_cell_setting           triclinic
_symmetry_space_group_name_H-M   'P 1'
_symmetry_Int_Tables_number      1
_space_group_name_Hall           'P 1'
loop_
_symmetry_equiv_pos_site_id
_symmetry_equiv_pos_as_xyz
1 x,y,z
_cell_length_a                   19.6583(11)
_cell_length_b                   16.3010(8)
_cell_length_c                   9.2484(5)
_cell_angle_alpha                90
_cell_angle_beta                 98.577(5)
_cell_angle_gamma                90
_cell_volume                     2930.5
loop_
_atom_site_label
_atom_site_type_symbol
_atom_site_fract_x
_atom_site_fract_y
_atom_site_fract_z
Gd2 Gd -0.0000 0.01634(3) 0.7500
O4 O 0.0288(3) 0.1386(4) 0.8977(6)
H3 H 0.0613 0.1645 0.8669
H4 H 0.0419 0.1256 0.9866
O30 O 0.1111(3) 0.0643(4) 0.6948(5)
Gd7 Gd 0.0000 0.98366(3) 0.2500
O29 O 0.0638(2) 0.9726(3) 0.9730(6)
O32 O 0.0666(2) 0.8964(3) 0.6969(5)
Gd2_2 Gd 1.0000 0.01634(3) 0.7500
O26 O 0.9712(3) 0.1386(4) 0.6023(6)
H19 H 0.9387 0.1645 0.6331
H20 H 0.9581 0.1256 0.5134
O31 O 0.8889(3) 0.0643(4) 0.8052(5)
O3 O 0.5510(3) 0.6425(4) 0.1339(6)
H7 H 0.5262 0.7891 0.0105
C7 C 0.5509(4) 0.6315(4) 0.0014(8)
O22 O 0.1111(3) 0.9357(4) 0.1948(5)
C27 C 0.1798(3) 0.9258(4) 0.0050(7)
C28 C 0.2390(4) 0.9565(5) 0.0817(8)
H17 H 0.2375 0.9833 0.1699
C29 C 0.3020(4) 0.9481(5) 0.0298(8)
H18 H 0.3417 0.9709 0.0816
C30 C 0.1131(3) 0.9442(5) 0.0598(8)
Gd4 Gd 0.5000 0.52982(3) 0.2500
Gd1 Gd 0.5000 0.47018(3) 0.7500
S1 S 0.65979(9) 0.59143(10) 0.7886(2)
S2 S 0.89118(9) 0.83259(11) 0.7244(2)
O1 O 0.5282(3) 0.5682(3) 0.9359(7)
O2 O 0.4043(3) 0.4069(3) 0.5882(6)
H1 H 0.4089 0.3550 0.5875
H2 H 0.4032 0.4245 0.5013
O5 O 0.6076(3) 0.5375(3) 0.7070(6)
O6 O 0.6831(3) 0.5615(3) 0.9351(6)
O7 O 0.7145(3) 0.6074(3) 0.7042(7)
O8 O 0.5863(3) 0.9579(4) 0.6299(8)
O9 O 0.9362(2) 0.9726(3) 0.5270(6)
O10 O 0.8889(3) 0.9357(4) 0.3052(5)
O11 O 0.9334(2) 0.8964(3) 0.8031(5)
O12 O 0.9250(3) 0.7918(4) 0.6167(7)
O13 O 0.8653(3) 0.7782(4) 0.8287(7)
C1 C 0.5771(4) 0.7001(4) 0.9183(7)
C2 C 0.6209(3) 0.6879(4) 0.8142(7)
C3 C 0.6378(3) 0.7530(4) 0.7306(8)
H5 H 0.6661 0.7441 0.6601
C4 C 0.6131(3) 0.8320(4) 0.7502(8)
C5 C 0.5722(3) 0.8440(4) 0.8581(8)
H6 H 0.5568 0.8966 0.8754
C6 C 0.5542(4) 0.7797(4) 0.9395(8)
C8 C 0.6282(3) 0.9024(4) 0.6566(8)
C9 C 0.6950(3) 0.9059(4) 0.5986(7)
C10 C 0.7540(3) 0.8715(4) 0.6730(7)
H8 H 0.7514 0.8406 0.7565
C11 C 0.8177(3) 0.8821(4) 0.6252(7)
C12 C 0.8202(3) 0.9258(4) 0.4950(7)
C13 C 0.7610(4) 0.9565(5) 0.4183(8)
H9 H 0.7625 0.9833 0.3301
C14 C 0.6980(4) 0.9481(5) 0.4702(8)
H10 H 0.6583 0.9709 0.4184
C15 C 0.8869(3) 0.9442(5) 0.4402(8)
S3 S 0.34021(9) 0.59143(10) 0.7114(2)
S4 S 0.10882(9) 0.83259(11) 0.7756(2)
O14 O 0.4718(3) 0.5682(3) 0.5641(7)
O15 O 0.5957(3) 0.4069(3) 0.9118(6)
H11 H 0.5911 0.3550 0.9125
H12 H 0.5968 0.4245 0.9987
O16 O 0.4490(3) 0.6425(4) 0.3661(6)
O17 O 0.3924(3) 0.5375(3) 0.7930(6)
O18 O 0.3169(3) 0.5615(3) 0.5649(6)
O19 O 0.2855(3) 0.6074(3) 0.7958(7)
O20 O 0.4137(3) 0.9579(4) 0.8701(8)
O24 O 0.0750(3) 0.7918(4) 0.8833(7)
O25 O 0.1347(3) 0.7782(4) 0.6713(7)
C16 C 0.4229(4) 0.7001(4) 0.5817(7)
C17 C 0.3791(3) 0.6879(4) 0.6858(7)
C18 C 0.3622(3) 0.7530(4) 0.7694(8)
H13 H 0.3339 0.7441 0.8399
C19 C 0.3869(3) 0.8320(4) 0.7498(8)
C20 C 0.4278(3) 0.8440(4) 0.6419(8)
H14 H 0.4432 0.8966 0.6246
C21 C 0.4458(4) 0.7797(4) 0.5605(8)
H15 H 0.4738 0.7891 0.4895
C22 C 0.4491(4) 0.6315(4) 0.4986(8)
C23 C 0.3718(3) 0.9024(4) 0.8434(8)
C24 C 0.3050(3) 0.9059(4) 0.9014(7)
C25 C 0.2460(3) 0.8715(4) 0.8270(7)
H16 H 0.2486 0.8406 0.7435
C26 C 0.1823(3) 0.8821(4) 0.8748(7)
Gd7_2 Gd 1.0000 0.98366(3) 0.2500
O27 O 0.4490(3) 0.3575(4) 0.8661(6)
O28 O 0.5510(3) 0.3575(4) 0.6339(6)
S1_2 S 0.34021(9) 0.40857(10) 0.2114(2)
S2_2 S 0.10882(9) 0.16741(11) 0.2756(2)
O1_2 O 0.4718(3) 0.4318(3) 0.0641(7)
O2_2 O 0.5957(3) 0.5931(3) 0.4118(6)
H1_2 H 0.5911 0.6450 0.4125
H2_2 H 0.5968 0.5755 0.4987
O5_2 O 0.3924(3) 0.4625(3) 0.2930(6)
O6_2 O 0.3169(3) 0.4385(3) 0.0649(6)
O7_2 O 0.2855(3) 0.3926(3) 0.2958(7)
O8_2 O 0.4137(3) 0.0421(4) 0.3701(8)
O9_2 O 0.0638(2) 0.0274(3) 0.4730(6)
O11_2 O 0.0666(2) 0.1036(3) 0.1969(5)
O12_2 O 0.0750(3) 0.2082(4) 0.3833(7)
O13_2 O 0.1347(3) 0.2218(4) 0.1713(7)
C1_2 C 0.4229(4) 0.2999(4) 0.0817(7)
C2_2 C 0.3791(3) 0.3121(4) 0.1858(7)
C3_2 C 0.3622(3) 0.2470(4) 0.2694(8)
H5_2 H 0.3339 0.2559 0.3399
C4_2 C 0.3869(3) 0.1680(4) 0.2498(8)
C5_2 C 0.4278(3) 0.1560(4) 0.1419(8)
H6_2 H 0.4432 0.1034 0.1246
C6_2 C 0.4458(4) 0.2203(4) 0.0605(8)
C8_2 C 0.3718(3) 0.0976(4) 0.3434(8)
C9_2 C 0.3050(3) 0.0941(4) 0.4014(7)
C10_2 C 0.2460(3) 0.1285(4) 0.3270(7)
H8_2 H 0.2486 0.1594 0.2435
C11_2 C 0.1823(3) 0.1179(4) 0.3748(7)
C12_2 C 0.1798(3) 0.0742(4) 0.5050(7)
C13_2 C 0.2390(4) 0.0435(5) 0.5817(8)
H9_2 H 0.2375 0.0167 0.6699
C14_2 C 0.3020(4) 0.0519(5) 0.5298(8)
H10_2 H 0.3417 0.0291 0.5816
C15_2 C 0.1131(3) 0.0558(5) 0.5598(8)
S3_2 S 0.65979(9) 0.40857(10) 0.2886(2)
S4_2 S 0.89118(9) 0.16741(11) 0.2244(2)
O14_2 O 0.5282(3) 0.4318(3) 0.4359(7)
O15_2 O 0.4043(3) 0.5931(3) 0.0882(6)
H11_2 H 0.4089 0.6450 0.0875
H12_2 H 0.4032 0.5755 0.0013
O17_2 O 0.6076(3) 0.4625(3) 0.2070(6)
O18_2 O 0.6831(3) 0.4385(3) 0.4351(6)
O19_2 O 0.7145(3) 0.3926(3) 0.2042(7)
O20_2 O 0.5863(3) 0.0421(4) 0.1299(8)
O21 O 0.9362(2) 0.0274(3) 0.0270(6)
O23 O 0.9334(2) 0.1036(3) 0.3031(5)
O24_2 O 0.9250(3) 0.2082(4) 0.1167(7)
O25_2 O 0.8653(3) 0.2218(4) 0.3287(7)
C16_2 C 0.5771(4) 0.2999(4) 0.4183(7)
C17_2 C 0.6209(3) 0.3121(4) 0.3142(7)
C18_2 C 0.6378(3) 0.2470(4) 0.2306(8)
H13_2 H 0.6661 0.2559 0.1601
C19_2 C 0.6131(3) 0.1680(4) 0.2502(8)
C20_2 C 0.5722(3) 0.1560(4) 0.3581(8)
H14_2 H 0.5568 0.1034 0.3754
C21_2 C 0.5542(4) 0.2203(4) 0.4395(8)
H15_2 H 0.5262 0.2109 0.5105
C22_2 C 0.5509(4) 0.3685(4) 0.5014(8)
C23_2 C 0.6282(3) 0.0976(4) 0.1566(8)
C24_2 C 0.6950(3) 0.0941(4) 0.0986(7)
C25_2 C 0.7540(3) 0.1285(4) 0.1730(7)
H16_2 H 0.7514 0.1594 0.2565
C26_2 C 0.8177(3) 0.1179(4) 0.1252(7)
H7_2 H 0.4738 0.2109 0.9895
C7_2 C 0.4491(4) 0.3685(4) 0.9986(8)
C27_2 C 0.8202(3) 0.0742(4) 0.9950(7)
C28_2 C 0.7610(4) 0.0435(5) 0.9183(8)
H17_2 H 0.7625 0.0167 0.8301
C29_2 C 0.6980(4) 0.0519(5) 0.9702(8)
H18_2 H 0.6583 0.0291 0.9184
C30_2 C 0.8869(3) 0.0558(5) 0.9402(8)
O26_2 O 0.0288(3) 0.8614(4) 0.3977(6)
H19_2 H 0.0613 0.8355 0.3669
H20_2 H 0.0419 0.8744 0.4866
O4_2 O 0.9712(3) 0.8614(4) 0.1023(6)
H3_2 H 0.9387 0.8355 0.1331
H4_2 H 0.9581 0.8744 0.0134
loop_
_geom_bond_atom_site_label_1
_geom_bond_atom_site_label_2
_geom_bond_site_symmetry_1
_geom_bond_site_symmetry_2
Gd2 O4 1_555 1_555
O4 H3 1_555 1_555
H4 O4 1_555 1_555
O30 Gd2 1_555 1_555
O26 Gd2_2 1_555 1_555
H19 O26 1_555 1_555
H20 O26 1_555 1_555
O31 Gd2_2 1_555 1_555
O3 C7 1_555 1_555
O22 C30 1_555 1_555
C28 C27 1_555 1_555
H17 C28 1_555 1_555
H18 C29 1_555 1_555
C30 C27 1_555 1_555
Gd4 O3 1_555 1_555
Gd7 O22 1_555 1_555
C28 C29 1_555 1_555
Gd1 O1 1_555 1_555
S1 O5 1_555 1_555
S2 O11 1_555 1_555
O2 Gd1 1_555 1_555
H1 O2 1_555 1_555
H2 O2 1_555 1_555
O5 Gd1 1_555 1_555
O6 S1 1_555 1_555
O7 S1 1_555 1_555
O8 C8 1_555 1_555
O10 C15 1_555 1_555
O12 S2 1_555 1_555
O13 S2 1_555 1_555
C1 C2 1_555 1_555
C2 S1 1_555 1_555
C3 C2 1_555 1_555
H5 C3 1_555 1_555
C4 C3 1_555 1_555
C5 C4 1_555 1_555
H6 C5 1_555 1_555
C6 C1 1_555 1_555
C8 C4 1_555 1_555
C9 C8 1_555 1_555
C10 C9 1_555 1_555
H8 C10 1_555 1_555
C11 S2 1_555 1_555
C12 C11 1_555 1_555
C13 C12 1_555 1_555
H9 C13 1_555 1_555
C14 C9 1_555 1_555
H10 C14 1_555 1_555
C15 O9 1_555 1_555
S3 O17 1_555 1_555
S4 O32 1_555 1_555
O14 Gd1 1_555 1_555
O15 Gd1 1_555 1_555
H11 O15 1_555 1_555
H12 O15 1_555 1_555
O16 C22 1_555 1_555
O17 Gd1 1_555 1_555
O18 S3 1_555 1_555
O19 S3 1_555 1_555
O20 C23 1_555 1_555
O24 S4 1_555 1_555
O25 S4 1_555 1_555
C16 C17 1_555 1_555
C17 S3 1_555 1_555
C18 C17 1_555 1_555
H13 C18 1_555 1_555
C19 C18 1_555 1_555
C20 C19 1_555 1_555
H14 C20 1_555 1_555
C21 C16 1_555 1_555
H15 C21 1_555 1_555
C22 O14 1_555 1_555
C23 C19 1_555 1_555
C24 C23 1_555 1_555
C25 C24 1_555 1_555
H16 C25 1_555 1_555
C26 S4 1_555 1_555
Gd4 O16 1_555 1_555
Gd7_2 O10 1_555 1_555
O27 Gd1 1_555 1_555
O28 Gd1 1_555 1_555
C5 C6 1_555 1_555
C10 C11 1_555 1_555
C12 C15 1_555 1_555
C13 C14 1_555 1_555
C16 C22 1_555 1_555
C20 C21 1_555 1_555
C25 C26 1_555 1_555
Gd4 O1_2 1_555 1_555
S1_2 O5_2 1_555 1_555
S2_2 O11_2 1_555 1_555
O2_2 Gd4 1_555 1_555
H1_2 O2_2 1_555 1_555
H2_2 O2_2 1_555 1_555
O5_2 Gd4 1_555 1_555
O6_2 S1_2 1_555 1_555
O7_2 S1_2 1_555 1_555
O8_2 C8_2 1_555 1_555
O30 C15_2 1_555 1_555
O12_2 S2_2 1_555 1_555
O13_2 S2_2 1_555 1_555
C1_2 C2_2 1_555 1_555
C2_2 S1_2 1_555 1_555
C3_2 C2_2 1_555 1_555
H5_2 C3_2 1_555 1_555
C4_2 C3_2 1_555 1_555
C5_2 C4_2 1_555 1_555
H6_2 C5_2 1_555 1_555
C6_2 C1_2 1_555 1_555
C8_2 C4_2 1_555 1_555
C9_2 C8_2 1_555 1_555
C10_2 C9_2 1_555 1_555
H8_2 C10_2 1_555 1_555
C11_2 S2_2 1_555 1_555
C12_2 C11_2 1_555 1_555
C13_2 C12_2 1_555 1_555
H9_2 C13_2 1_555 1_555
C14_2 C9_2 1_555 1_555
H10_2 C14_2 1_555 1_555
C15_2 O9_2 1_555 1_555
S3_2 O17_2 1_555 1_555
S4_2 O23 1_555 1_555
O14_2 Gd4 1_555 1_555
O15_2 Gd4 1_555 1_555
H11_2 O15_2 1_555 1_555
H12_2 O15_2 1_555 1_555
O28 C22_2 1_555 1_555
O17_2 Gd4 1_555 1_555
O18_2 S3_2 1_555 1_555
O19_2 S3_2 1_555 1_555
O20_2 C23_2 1_555 1_555
O24_2 S4_2 1_555 1_555
O25_2 S4_2 1_555 1_555
C16_2 C17_2 1_555 1_555
C17_2 S3_2 1_555 1_555
C18_2 C17_2 1_555 1_555
H13_2 C18_2 1_555 1_555
C19_2 C18_2 1_555 1_555
C20_2 C19_2 1_555 1_555
H14_2 C20_2 1_555 1_555
C21_2 C16_2 1_555 1_555
H15_2 C21_2 1_555 1_555
C22_2 O14_2 1_555 1_555
C23_2 C19_2 1_555 1_555
C24_2 C23_2 1_555 1_555
C25_2 C24_2 1_555 1_555
H16_2 C25_2 1_555 1_555
C26_2 S4_2 1_555 1_555
C5_2 C6_2 1_555 1_555
C10_2 C11_2 1_555 1_555
C12_2 C15_2 1_555 1_555
C13_2 C14_2 1_555 1_555
C16_2 C22_2 1_555 1_555
C20_2 C21_2 1_555 1_555
C25_2 C26_2 1_555 1_555
O27 C7_2 1_555 1_555
O31 C30_2 1_555 1_555
C28_2 C27_2 1_555 1_555
H17_2 C28_2 1_555 1_555
H18_2 C29_2 1_555 1_555
C30_2 C27_2 1_555 1_555
C28_2 C29_2 1_555 1_555
O26_2 Gd7 1_555 1_555
H19_2 O26_2 1_555 1_555
H20_2 O26_2 1_555 1_555
Gd7_2 O4_2 1_555 1_555
O4_2 H3_2 1_555 1_555
H4_2 O4_2 1_555 1_555

#END
