
###############################################################################
#
# This file contains modified crystal structure data generated from the
# MOF subset of the Cambridge Structural Database (CSD) v543 
# hosted by the Cambridge Crystallographic Data Centre (CCDC).
#
# This work is licensed under the Creative Commons
# Attribution-NonCommercial-ShareAlike 4.0 International License.
# To view a copy of this license, visit
# http://creativecommons.org/licenses/by-nc-sa/4.0/
# or send a letter to
# Creative Commons, PO Box 1866, Mountain View, CA 94042, USA.
#
# CIF created using the CSD Python API on 29 September 2022
# The structure has been converted into the P1 space group
# The structure has a 3D framework
# The original CSD entry ZEVQAV is in the monoclinic crystal system
# The framework has been calculated to contain at least 10.0% void space
# The void calculation uses a probe of radius 1.32A, grid spacing 0.4
# The framework is charged, counterions have been retained in the structure
#
###############################################################################

data_ZEVQAV
_chemical_formula_moiety         '(C60 H40 O50 S8 Tb6 5-)n'
_symmetry_cell_setting           triclinic
_symmetry_space_group_name_H-M   'P 1'
_symmetry_Int_Tables_number      1
_space_group_name_Hall           'P 1'
loop_
_symmetry_equiv_pos_site_id
_symmetry_equiv_pos_as_xyz
1 x,y,z
_cell_length_a                   19.6142(6)
_cell_length_b                   16.2865(5)
_cell_length_c                   9.2476(3)
_cell_angle_alpha                90
_cell_angle_beta                 98.754(3)
_cell_angle_gamma                90
_cell_volume                     2919.7
loop_
_atom_site_label
_atom_site_type_symbol
_atom_site_fract_x
_atom_site_fract_y
_atom_site_fract_z
Tb2 Tb -0.0000 0.01611(2) 0.7500
O4 O 0.02921(12) 0.13762(14) 0.8948(2)
H3 H 0.0617 0.1635 0.8639
H4 H 0.0423 0.1246 0.9837
O30 O 0.11032(10) 0.06341(14) 0.6923(2)
Tb7 Tb -0.0000 0.98389(2) 0.2500
O29 O 0.06395(10) 0.97231(13) 0.9702(2)
O32 O 0.06623(10) 0.89693(13) 0.6954(2)
Tb2_2 Tb 1.0000 0.01611(2) 0.7500
O26 O 0.97079(12) 0.13762(14) 0.6052(2)
H19 H 0.9383 0.1635 0.6361
H20 H 0.9577 0.1246 0.5163
O31 O 0.88968(10) 0.06341(14) 0.8077(2)
O3 O 0.54945(12) 0.64097(14) 0.1341(2)
H7 H 0.5268 0.7881 0.0120
O22 O 0.11032(10) 0.93659(14) 0.1923(2)
C27 C 0.17910(14) 0.92490(18) 0.0032(3)
C28 C 0.23966(16) 0.9552(2) 0.0819(3)
H17 H 0.2384 0.9811 0.1710
C29 C 0.30242(15) 0.94767(19) 0.0301(3)
H18 H 0.3421 0.9708 0.0819
C30 C 0.11297(14) 0.94469(19) 0.0588(3)
Tb4 Tb 0.5000 0.52920(2) 0.2500
Tb1 Tb 0.5000 0.47080(2) 0.7500
S1 S 0.65951(4) 0.59130(4) 0.78767(8)
S2 S 0.89124(4) 0.83285(5) 0.72617(8)
O1 O 0.52815(11) 0.56824(13) 0.9325(2)
O2 O 0.40498(11) 0.40804(12) 0.5892(2)
H1 H 0.4096 0.3562 0.5884
H2 H 0.4039 0.4256 0.5023
O5 O 0.60702(11) 0.53794(12) 0.7055(2)
O6 O 0.68313(11) 0.56121(14) 0.9338(2)
O7 O 0.71409(11) 0.60811(14) 0.7030(2)
O8 O 0.58669(12) 0.95777(14) 0.6307(3)
O9 O 0.93605(10) 0.97231(13) 0.5298(2)
O10 O 0.88968(10) 0.93659(14) 0.3077(2)
O11 O 0.93377(10) 0.89693(13) 0.8046(2)
O12 O 0.92482(12) 0.79175(15) 0.6178(3)
O13 O 0.86509(12) 0.77851(15) 0.8281(2)
C1 C 0.57649(14) 0.70016(17) 0.9161(3)
C2 C 0.61957(14) 0.68803(17) 0.8099(3)
C3 C 0.63736(13) 0.75382(17) 0.7288(3)
H5 H 0.6660 0.7454 0.6587
C4 C 0.61323(13) 0.83194(18) 0.7504(3)
C5 C 0.57193(15) 0.84446(18) 0.8590(3)
H6 H 0.5564 0.8970 0.8765
C6 C 0.55424(15) 0.77911(17) 0.9399(3)
C7 C 0.55031(14) 0.63129(18) 0.9996(3)
C8 C 0.62780(14) 0.90243(18) 0.6576(3)
C9 C 0.69461(14) 0.90562(17) 0.5988(3)
C10 C 0.75465(14) 0.87179(17) 0.6755(3)
H8 H 0.7526 0.8419 0.7604
C11 C 0.81746(14) 0.88224(17) 0.6264(3)
C12 C 0.82090(14) 0.92490(18) 0.4968(3)
C13 C 0.76034(16) 0.9552(2) 0.4181(3)
H9 H 0.7616 0.9811 0.3290
C14 C 0.69758(15) 0.94767(19) 0.4699(3)
H10 H 0.6579 0.9708 0.4181
C15 C 0.88703(14) 0.94469(19) 0.4412(3)
S3 S 0.34049(4) 0.59130(4) 0.71233(8)
S4 S 0.10876(4) 0.83285(5) 0.77383(8)
O14 O 0.47185(11) 0.56824(13) 0.5675(2)
O15 O 0.59502(11) 0.40804(12) 0.9108(2)
H11 H 0.5904 0.3562 0.9116
H12 H 0.5961 0.4256 0.9977
O16 O 0.45055(12) 0.64097(14) 0.3659(2)
O17 O 0.39298(11) 0.53794(12) 0.7945(2)
O18 O 0.31687(11) 0.56121(14) 0.5662(2)
O19 O 0.28591(11) 0.60811(14) 0.7970(2)
O20 O 0.41331(12) 0.95777(14) 0.8693(3)
O24 O 0.07518(12) 0.79175(15) 0.8822(3)
O25 O 0.13491(12) 0.77851(15) 0.6719(2)
C16 C 0.42351(14) 0.70016(17) 0.5839(3)
C17 C 0.38043(14) 0.68803(17) 0.6901(3)
C18 C 0.36264(13) 0.75382(17) 0.7712(3)
H13 H 0.3340 0.7454 0.8413
C19 C 0.38677(13) 0.83194(18) 0.7496(3)
C20 C 0.42807(15) 0.84446(18) 0.6410(3)
H14 H 0.4436 0.8970 0.6235
C21 C 0.44576(15) 0.77911(17) 0.5601(3)
H15 H 0.4732 0.7881 0.4880
C22 C 0.44969(14) 0.63129(18) 0.5004(3)
C23 C 0.37220(14) 0.90243(18) 0.8424(3)
C24 C 0.30539(14) 0.90562(17) 0.9012(3)
C25 C 0.24535(14) 0.87179(17) 0.8245(3)
H16 H 0.2474 0.8419 0.7396
C26 C 0.18254(14) 0.88224(17) 0.8736(3)
Tb7_2 Tb 1.0000 0.98389(2) 0.2500
O27 O 0.45055(12) 0.35903(14) 0.8659(2)
O28 O 0.54945(12) 0.35903(14) 0.6341(2)
S1_2 S 0.34049(4) 0.40870(4) 0.21233(8)
S2_2 S 0.10876(4) 0.16715(5) 0.27383(8)
O1_2 O 0.47185(11) 0.43176(13) 0.0675(2)
O2_2 O 0.59502(11) 0.59196(12) 0.4108(2)
H1_2 H 0.5904 0.6438 0.4116
H2_2 H 0.5961 0.5744 0.4977
O5_2 O 0.39298(11) 0.46206(12) 0.2945(2)
O6_2 O 0.31687(11) 0.43879(14) 0.0662(2)
O7_2 O 0.28591(11) 0.39189(14) 0.2970(2)
O8_2 O 0.41331(12) 0.04223(14) 0.3693(3)
O9_2 O 0.06395(10) 0.02769(13) 0.4702(2)
O11_2 O 0.06623(10) 0.10307(13) 0.1954(2)
O12_2 O 0.07518(12) 0.20825(15) 0.3822(3)
O13_2 O 0.13491(12) 0.22149(15) 0.1719(2)
C1_2 C 0.42351(14) 0.29984(17) 0.0839(3)
C2_2 C 0.38043(14) 0.31197(17) 0.1901(3)
C3_2 C 0.36264(13) 0.24618(17) 0.2712(3)
H5_2 H 0.3340 0.2546 0.3413
C4_2 C 0.38677(13) 0.16806(18) 0.2496(3)
C5_2 C 0.42807(15) 0.15554(18) 0.1410(3)
H6_2 H 0.4436 0.1030 0.1235
C6_2 C 0.44576(15) 0.22089(17) 0.0601(3)
C7_2 C 0.44969(14) 0.36871(18) 0.0004(3)
C8_2 C 0.37220(14) 0.09757(18) 0.3424(3)
C9_2 C 0.30539(14) 0.09438(17) 0.4012(3)
C10_2 C 0.24535(14) 0.12821(17) 0.3245(3)
H8_2 H 0.2474 0.1581 0.2396
C11_2 C 0.18254(14) 0.11776(17) 0.3736(3)
C12_2 C 0.17910(14) 0.07510(18) 0.5032(3)
C13_2 C 0.23966(16) 0.0448(2) 0.5819(3)
H9_2 H 0.2384 0.0189 0.6710
C14_2 C 0.30242(15) 0.05233(19) 0.5301(3)
H10_2 H 0.3421 0.0292 0.5819
C15_2 C 0.11297(14) 0.05531(19) 0.5588(3)
S3_2 S 0.65951(4) 0.40870(4) 0.28767(8)
S4_2 S 0.89124(4) 0.16715(5) 0.22617(8)
O14_2 O 0.52815(11) 0.43176(13) 0.4325(2)
O15_2 O 0.40498(11) 0.59196(12) 0.0892(2)
H11_2 H 0.4096 0.6438 0.0884
H12_2 H 0.4039 0.5744 0.0023
O17_2 O 0.60702(11) 0.46206(12) 0.2055(2)
O18_2 O 0.68313(11) 0.43879(14) 0.4338(2)
O19_2 O 0.71409(11) 0.39189(14) 0.2030(2)
O20_2 O 0.58669(12) 0.04223(14) 0.1307(3)
O21 O 0.93605(10) 0.02769(13) 0.0298(2)
O23 O 0.93377(10) 0.10307(13) 0.3046(2)
O24_2 O 0.92482(12) 0.20825(15) 0.1178(3)
O25_2 O 0.86509(12) 0.22149(15) 0.3281(2)
C16_2 C 0.57649(14) 0.29984(17) 0.4161(3)
C17_2 C 0.61957(14) 0.31197(17) 0.3099(3)
C18_2 C 0.63736(13) 0.24618(17) 0.2288(3)
H13_2 H 0.6660 0.2546 0.1587
C19_2 C 0.61323(13) 0.16806(18) 0.2504(3)
C20_2 C 0.57193(15) 0.15554(18) 0.3590(3)
H14_2 H 0.5564 0.1030 0.3765
C21_2 C 0.55424(15) 0.22089(17) 0.4399(3)
H15_2 H 0.5268 0.2119 0.5120
C22_2 C 0.55031(14) 0.36871(18) 0.4996(3)
C23_2 C 0.62780(14) 0.09757(18) 0.1576(3)
C24_2 C 0.69461(14) 0.09438(17) 0.0988(3)
C25_2 C 0.75465(14) 0.12821(17) 0.1755(3)
H16_2 H 0.7526 0.1581 0.2604
C26_2 C 0.81746(14) 0.11776(17) 0.1264(3)
H7_2 H 0.4732 0.2119 0.9880
C27_2 C 0.82090(14) 0.07510(18) 0.9968(3)
C28_2 C 0.76034(16) 0.0448(2) 0.9181(3)
H17_2 H 0.7616 0.0189 0.8290
C29_2 C 0.69758(15) 0.05233(19) 0.9699(3)
H18_2 H 0.6579 0.0292 0.9181
C30_2 C 0.88703(14) 0.05531(19) 0.9412(3)
O26_2 O 0.02921(12) 0.86238(14) 0.3948(2)
H19_2 H 0.0617 0.8365 0.3639
H20_2 H 0.0423 0.8754 0.4837
O4_2 O 0.97079(12) 0.86238(14) 0.1052(2)
H3_2 H 0.9383 0.8365 0.1361
H4_2 H 0.9577 0.8754 0.0163
loop_
_geom_bond_atom_site_label_1
_geom_bond_atom_site_label_2
_geom_bond_site_symmetry_1
_geom_bond_site_symmetry_2
Tb2 O4 1_555 1_555
O4 H3 1_555 1_555
H4 O4 1_555 1_555
O30 Tb2 1_555 1_555
O26 Tb2_2 1_555 1_555
H19 O26 1_555 1_555
H20 O26 1_555 1_555
O31 Tb2_2 1_555 1_555
O22 C30 1_555 1_555
C28 C27 1_555 1_555
H17 C28 1_555 1_555
H18 C29 1_555 1_555
C30 C27 1_555 1_555
Tb4 O3 1_555 1_555
Tb7 O22 1_555 1_555
C28 C29 1_555 1_555
Tb1 O1 1_555 1_555
S1 O5 1_555 1_555
S2 O11 1_555 1_555
O1 C7 1_555 1_555
O2 Tb1 1_555 1_555
H1 O2 1_555 1_555
H2 O2 1_555 1_555
O5 Tb1 1_555 1_555
O6 S1 1_555 1_555
O7 S1 1_555 1_555
O8 C8 1_555 1_555
O10 C15 1_555 1_555
O12 S2 1_555 1_555
O13 S2 1_555 1_555
C1 C2 1_555 1_555
C2 S1 1_555 1_555
C3 C2 1_555 1_555
H5 C3 1_555 1_555
C4 C3 1_555 1_555
C5 C4 1_555 1_555
H6 C5 1_555 1_555
C6 C1 1_555 1_555
C7 C1 1_555 1_555
C8 C4 1_555 1_555
C9 C8 1_555 1_555
C10 C9 1_555 1_555
H8 C10 1_555 1_555
C11 S2 1_555 1_555
C12 C11 1_555 1_555
C13 C12 1_555 1_555
H9 C13 1_555 1_555
C14 C9 1_555 1_555
H10 C14 1_555 1_555
C15 O9 1_555 1_555
S3 O17 1_555 1_555
S4 O32 1_555 1_555
O14 Tb1 1_555 1_555
O15 Tb1 1_555 1_555
H11 O15 1_555 1_555
H12 O15 1_555 1_555
O16 C22 1_555 1_555
O17 Tb1 1_555 1_555
O18 S3 1_555 1_555
O19 S3 1_555 1_555
O20 C23 1_555 1_555
O24 S4 1_555 1_555
O25 S4 1_555 1_555
C16 C17 1_555 1_555
C17 S3 1_555 1_555
C18 C17 1_555 1_555
H13 C18 1_555 1_555
C19 C18 1_555 1_555
C20 C19 1_555 1_555
H14 C20 1_555 1_555
C21 C16 1_555 1_555
H15 C21 1_555 1_555
C22 O14 1_555 1_555
C23 C19 1_555 1_555
C24 C23 1_555 1_555
C25 C24 1_555 1_555
H16 C25 1_555 1_555
C26 S4 1_555 1_555
Tb4 O16 1_555 1_555
Tb7_2 O10 1_555 1_555
O27 Tb1 1_555 1_555
O28 Tb1 1_555 1_555
C5 C6 1_555 1_555
C10 C11 1_555 1_555
C12 C15 1_555 1_555
C13 C14 1_555 1_555
C16 C22 1_555 1_555
C20 C21 1_555 1_555
C25 C26 1_555 1_555
Tb4 O1_2 1_555 1_555
S1_2 O5_2 1_555 1_555
S2_2 O11_2 1_555 1_555
O1_2 C7_2 1_555 1_555
O2_2 Tb4 1_555 1_555
H1_2 O2_2 1_555 1_555
H2_2 O2_2 1_555 1_555
O5_2 Tb4 1_555 1_555
O6_2 S1_2 1_555 1_555
O7_2 S1_2 1_555 1_555
O8_2 C8_2 1_555 1_555
O30 C15_2 1_555 1_555
O12_2 S2_2 1_555 1_555
O13_2 S2_2 1_555 1_555
C1_2 C2_2 1_555 1_555
C2_2 S1_2 1_555 1_555
C3_2 C2_2 1_555 1_555
H5_2 C3_2 1_555 1_555
C4_2 C3_2 1_555 1_555
C5_2 C4_2 1_555 1_555
H6_2 C5_2 1_555 1_555
C6_2 C1_2 1_555 1_555
C7_2 C1_2 1_555 1_555
C8_2 C4_2 1_555 1_555
C9_2 C8_2 1_555 1_555
C10_2 C9_2 1_555 1_555
H8_2 C10_2 1_555 1_555
C11_2 S2_2 1_555 1_555
C12_2 C11_2 1_555 1_555
C13_2 C12_2 1_555 1_555
H9_2 C13_2 1_555 1_555
C14_2 C9_2 1_555 1_555
H10_2 C14_2 1_555 1_555
C15_2 O9_2 1_555 1_555
S3_2 O17_2 1_555 1_555
S4_2 O23 1_555 1_555
O14_2 Tb4 1_555 1_555
O15_2 Tb4 1_555 1_555
H11_2 O15_2 1_555 1_555
H12_2 O15_2 1_555 1_555
O28 C22_2 1_555 1_555
O17_2 Tb4 1_555 1_555
O18_2 S3_2 1_555 1_555
O19_2 S3_2 1_555 1_555
O20_2 C23_2 1_555 1_555
O24_2 S4_2 1_555 1_555
O25_2 S4_2 1_555 1_555
C16_2 C17_2 1_555 1_555
C17_2 S3_2 1_555 1_555
C18_2 C17_2 1_555 1_555
H13_2 C18_2 1_555 1_555
C19_2 C18_2 1_555 1_555
C20_2 C19_2 1_555 1_555
H14_2 C20_2 1_555 1_555
C21_2 C16_2 1_555 1_555
H15_2 C21_2 1_555 1_555
C22_2 O14_2 1_555 1_555
C23_2 C19_2 1_555 1_555
C24_2 C23_2 1_555 1_555
C25_2 C24_2 1_555 1_555
H16_2 C25_2 1_555 1_555
C26_2 S4_2 1_555 1_555
C5_2 C6_2 1_555 1_555
C10_2 C11_2 1_555 1_555
C12_2 C15_2 1_555 1_555
C13_2 C14_2 1_555 1_555
C16_2 C22_2 1_555 1_555
C20_2 C21_2 1_555 1_555
C25_2 C26_2 1_555 1_555
O31 C30_2 1_555 1_555
C28_2 C27_2 1_555 1_555
H17_2 C28_2 1_555 1_555
H18_2 C29_2 1_555 1_555
C30_2 C27_2 1_555 1_555
C28_2 C29_2 1_555 1_555
O26_2 Tb7 1_555 1_555
H19_2 O26_2 1_555 1_555
H20_2 O26_2 1_555 1_555
Tb7_2 O4_2 1_555 1_555
O4_2 H3_2 1_555 1_555
H4_2 O4_2 1_555 1_555

#END
