
###############################################################################
#
# This file contains modified crystal structure data generated from the
# MOF subset of the Cambridge Structural Database (CSD) v543 
# hosted by the Cambridge Crystallographic Data Centre (CCDC).
#
# This work is licensed under the Creative Commons
# Attribution-NonCommercial-ShareAlike 4.0 International License.
# To view a copy of this license, visit
# http://creativecommons.org/licenses/by-nc-sa/4.0/
# or send a letter to
# Creative Commons, PO Box 1866, Mountain View, CA 94042, USA.
#
# CIF created using the CSD Python API on 29 September 2022
# The structure has been converted into the P1 space group
# The structure has a 3D framework
# The original CSD entry ZEVWUU is in the orthorhombic crystal system
# The framework has been calculated to contain at least 10.0% void space
# The void calculation uses a probe of radius 1.32A, grid spacing 0.4
# The framework is charged, counterions have been retained in the structure
#
###############################################################################

data_ZEVWUU
_chemical_formula_moiety         '(C768 H384 Cu12 N92 12+)n'
_symmetry_cell_setting           triclinic
_symmetry_space_group_name_H-M   'P 1'
_symmetry_Int_Tables_number      1
_space_group_name_Hall           'P 1'
loop_
_symmetry_equiv_pos_site_id
_symmetry_equiv_pos_as_xyz
1 x,y,z
_cell_length_a                   23.653(5)
_cell_length_b                   23.737(4)
_cell_length_c                   51.930(10)
_cell_angle_alpha                90
_cell_angle_beta                 90
_cell_angle_gamma                90
_cell_volume                     29156.2
loop_
_atom_site_label
_atom_site_type_symbol
_atom_site_fract_x
_atom_site_fract_y
_atom_site_fract_z
C1 C 0.1782(3) 0.2860(3) 0.22305(11)
C2 C 0.2228(3) 0.2387(3) 0.22524(12)
C3 C 0.2259(3) 0.2787(3) 0.20617(13)
C4 C 0.1365(3) 0.3127(3) 0.23291(11)
C5 C 0.2442(2) 0.1971(3) 0.23803(11)
C6 C 0.2503(3) 0.2995(3) 0.18352(10)
C7 C 0.10554(7) 0.35416(8) 0.21633(3)
C8 C 0.08173(8) 0.40323(8) 0.22611(3)
H1 H 0.0831 0.4106 0.2441
C9 C 0.05593(8) 0.44149(7) 0.20961(3)
H2 H 0.0397 0.4750 0.2163
C10 C 0.05394(7) 0.43068(7) 0.18332(3)
C11 C 0.07775(6) 0.38161(7) 0.17353(3)
H3 H 0.0764 0.3742 0.1556
C12 C 0.10355(6) 0.34335(7) 0.19004(3)
H4 H 0.1198 0.3098 0.1834
C13 C 0.02687(7) 0.46882(7) 0.16697(3)
C14 C 0.11795(8) 0.30218(9) 0.26009(3)
C15 C 0.06102(8) 0.30386(9) 0.26668(3)
H5 H 0.0337 0.3124 0.2539
C16 C 0.0436(3) 0.2932(3) 0.29169(12)
H6 H 0.0050 0.2971 0.2965
C17 C 0.0859(3) 0.2759(3) 0.31030(11)
C18 C 0.1422(3) 0.2795(3) 0.30399(11)
H7 H 0.1700 0.2757 0.3171
C19 C 0.1590(2) 0.2888(3) 0.27863(11)
H8 H 0.1977 0.2860 0.2739
C20 C 0.0683(3) 0.2669(3) 0.33597(14)
N2 N 0.0538(2) 0.2559(3) 0.35754(11)
C21 C 0.2099(3) 0.1728(3) 0.25969(14)
C22 C 0.1517(3) 0.1708(3) 0.25802(13)
H9 H 0.1326 0.1863 0.2436
C23 C 0.1207(3) 0.1447(3) 0.27878(12)
H10 H 0.0816 0.1367 0.2770
C24 C 0.1502(3) 0.1311(3) 0.30227(12)
C25 C 0.2041(3) 0.1341(3) 0.30189(13)
H11 H 0.2227 0.1222 0.3171
C26 C 0.2378(3) 0.1520(3) 0.28286(11)
H12 H 0.2778 0.1511 0.2844
C27 C 0.1173(3) 0.1138(3) 0.32279(13)
N3 N 0.08673(12) 0.09719(12) 0.34053(5)
C28 C 0.29894(10) 0.17121(13) 0.23158(4)
C29 C 0.30553(13) 0.11303(13) 0.23174(4)
H13 H 0.2743 0.0896 0.2359
C30 C 0.3562(3) 0.0896(3) 0.22595(12)
H14 H 0.3601 0.0498 0.2255
C31 C 0.4022(3) 0.1234(3) 0.22077(13)
C32 C 0.3986(3) 0.1834(3) 0.21906(15)
H15 H 0.4297 0.2062 0.2140
C33 C 0.3455(3) 0.2065(3) 0.22546(11)
H16 H 0.3408 0.2462 0.2257
C34 C 0.4567(3) 0.1037(3) 0.21348(13)
N4 N 0.5002(3) 0.0787(3) 0.20841(13)
C35 C 0.2973(3) 0.2629(3) 0.17127(13)
C36 C 0.2885(3) 0.2067(3) 0.16972(11)
H17 H 0.2533 0.1928 0.1757
C37 C 0.3255(4) 0.1693(4) 0.16045(16)
H18 H 0.3179 0.1305 0.1575
C38 C 0.3862(3) 0.2009(3) 0.15494(11)
C39 C 0.3922(3) 0.2542(3) 0.15561(12)
H19 H 0.4279 0.2700 0.1513
C40 C 0.3469(3) 0.2913(3) 0.16259(12)
H20 H 0.3497 0.3311 0.1615
C41 C 0.4315(3) 0.1664(3) 0.14679(11)
N5 N 0.4633(2) 0.1284(2) 0.14177(9)
C42 C 0.2361(2) 0.3602(3) 0.17156(10)
C43 C 0.2345(3) 0.3634(3) 0.14640(12)
H21 H 0.2465 0.3326 0.1361
C44 C 0.2142(3) 0.4150(3) 0.13459(10)
H22 H 0.2132 0.4197 0.1164
C45 C 0.1960(3) 0.4578(3) 0.15163(12)
C46 C 0.2004(3) 0.4504(3) 0.17734(12)
H23 H 0.1893 0.4798 0.1887
C47 C 0.2217(3) 0.3987(3) 0.18772(12)
H24 H 0.2250 0.3931 0.2058
C48 C 0.1721(3) 0.5088(3) 0.14231(12)
N6 N 0.14615(9) 0.54182(10) 0.13318(4)
Cu3 Cu 0.02551(3) 0.07303(3) 0.363199(13)
Cu4 Cu 0.52551(3) 0.07303(3) 0.136801(13)
Cu7 Cu 0.03582(4) 0.25523(4) 0.393492(15)
N15 N 0.0367(2) 0.6284(2) 0.14177(9)
Cu2 Cu 0.03582(4) 0.24477(4) 0.893492(15)
N13 N 0.0538(2) 0.2441(3) 0.85754(11)
N16 N 0.0015(3) 0.1693(3) 0.89953(12)
N17 N 0.10192(14) 0.26408(10) 0.91737(6)
Cu1 Cu 0.97449(3) 0.57303(3) 0.136801(13)
N1 N 0.99958(8) 0.50317(7) 0.15187(3)
C55 C 0.87068(7) 0.51721(8) 0.00716(3)
C56 C 0.83329(7) 0.52234(8) 0.02768(3)
H25 H 0.7940 0.5159 0.0251
C57 C 0.85332(8) 0.53683(8) 0.05195(3)
H26 H 0.8278 0.5403 0.0660
C58 C 0.91073(8) 0.54619(8) 0.05571(3)
C59 C 0.94813(7) 0.54106(9) 0.03520(4)
H27 H 0.9874 0.5475 0.0378
C60 C 0.92810(7) 0.52657(9) 0.01092(3)
C61 C 0.93061(9) 0.55528(9) 0.08144(3)
N7 N 0.94863(10) 0.56369(11) 0.10113(4)
C90 C 0.7765(3) 0.6452(3) 0.00740(12)
C91 C 0.7459(5) 0.6643(5) 0.0309(2)
H45 H 0.7066 0.6584 0.0335
C92 C 0.7817(3) 0.6924(3) 0.04919(13)
H46 H 0.7642 0.7091 0.0638
C93 C 0.8436(3) 0.6972(3) 0.04687(14)
C94 C 0.8716(3) 0.6736(3) 0.02419(11)
H47 H 0.9116 0.6735 0.0230
C95 C 0.8387(3) 0.6512(3) 0.00416(15)
C96 C 0.8747(3) 0.7199(4) 0.06719(16)
N12 N 0.89808(14) 0.73592(10) 0.08263(6)
Cu5 Cu 0.96418(4) 0.75523(4) 0.106508(15)
N14 N 0.91327(12) 0.59719(12) 0.15947(5)
C49 C 0.80305(10) 0.52763(10) 0.97291(3)
C50 C 0.75795(11) 0.53319(11) 0.95414(4)
C51 C 0.76091(10) 0.57139(11) 0.97530(4)
C52 C 0.84773(10) 0.50052(10) 0.98292(3)
C53 C 0.72367(12) 0.50482(12) 0.93643(4)
C54 C 0.74565(10) 0.61586(11) 0.98665(4)
H28 H 0.9537 0.5231 0.9969
C62 C 0.87793(9) 0.45521(10) 0.96610(4)
C63 C 0.90533(10) 0.41065(10) 0.97818(4)
H29 H 0.9054 0.4092 0.9965
C64 C 0.9329(2) 0.3678(3) 0.96448(11)
H30 H 0.9531 0.3387 0.9730
C65 C 0.9288(3) 0.3706(3) 0.93618(11)
C66 C 0.8978(3) 0.4138(3) 0.92513(13)
H31 H 0.8903 0.4111 0.9072
C67 C 0.8764(3) 0.4615(3) 0.93821(12)
H32 H 0.8625 0.4941 0.9297
C68 C 0.9560(3) 0.3285(3) 0.92277(14)
N8 N 0.9796(2) 0.2966(3) 0.90988(11)
C69 C 0.7356(3) 0.4484(3) 0.92784(12)
C70 C 0.7544(3) 0.4092(3) 0.94582(11)
H33 H 0.7608 0.4205 0.9631
C71 C 0.7640(3) 0.3518(4) 0.93838(15)
H34 H 0.7746 0.3242 0.9507
C72 C 0.7578(3) 0.3386(3) 0.91364(13)
C73 C 0.7377(3) 0.3740(3) 0.89525(13)
H35 H 0.7312 0.3603 0.8783
C74 C 0.7259(3) 0.4338(3) 0.90136(12)
H36 H 0.7130 0.4602 0.8889
C75 C 0.7659(3) 0.2843(3) 0.90530(12)
N9 N 0.7749(2) 0.23037(14) 0.90214(8)
C76 C 0.67429(13) 0.53949(15) 0.92563(5)
C77 C 0.62140(13) 0.51488(17) 0.92258(6)
H37 H 0.6171 0.4755 0.9253
C78 C 0.5747(3) 0.5470(3) 0.91560(12)
H38 H 0.5378 0.5312 0.9155
C79 C 0.5844(3) 0.6073(3) 0.90817(11)
C80 C 0.6383(3) 0.6335(3) 0.91165(15)
H39 H 0.6448 0.6724 0.9084
C81 C 0.6813(3) 0.5965(3) 0.92031(13)
H40 H 0.7180 0.6119 0.9227
C82 C 0.5421(3) 0.6375(3) 0.90226(12)
N10 N 0.4985(3) 0.6693(3) 0.89953(12)
C83 C 0.6852(3) 0.6416(4) 0.98468(14)
C84 C 0.6421(3) 0.6035(3) 0.98016(13)
H41 H 0.6474 0.5638 0.9802
C85 C 0.5871(3) 0.6307(3) 0.97520(12)
H42 H 0.5543 0.6076 0.9744
C86 C 0.5813(3) 0.6829(4) 0.97200(15)
C87 C 0.6265(4) 0.7321(4) 0.97558(17)
H43 H 0.6189 0.7713 0.9769
C88 C 0.6840(4) 0.7041(4) 0.97654(17)
H44 H 0.7176 0.7240 0.9723
C89 C 0.5199(5) 0.7096(4) 0.97044(17)
N11 N 0.4801(3) 0.7288(4) 0.96856(13)
H48 H 0.8562 0.6398 0.9885
Cu6 Cu 0.46418(4) 0.74477(4) 0.893492(15)
N10_2 N 0.0015(3) 0.3307(3) 0.39953(12)
N11_2 N 0.0199(3) 0.2712(4) 0.46856(13)
Cu1_2 Cu 0.52551(3) 0.42697(3) 0.636801(13)
C1_2 C 0.3218(3) 0.7140(3) 0.72305(11)
Cu2_2 Cu 0.46418(4) 0.75523(4) 0.393492(15)
C2_2 C 0.2772(3) 0.7613(3) 0.72524(12)
C3_2 C 0.2741(3) 0.7213(3) 0.70617(13)
C4_2 C 0.3635(3) 0.6873(3) 0.73291(11)
C5_2 C 0.2558(2) 0.8029(3) 0.73803(11)
C6_2 C 0.2497(3) 0.7005(3) 0.68352(10)
C7_2 C 0.39446(7) 0.64584(8) 0.71633(3)
C8_2 C 0.41827(8) 0.59677(8) 0.72611(3)
H1_2 H 0.4169 0.5894 0.7441
C9_2 C 0.44407(8) 0.55851(7) 0.70961(3)
H2_2 H 0.4603 0.5250 0.7163
C10_2 C 0.44606(7) 0.56932(7) 0.68332(3)
C11_2 C 0.42225(6) 0.61839(7) 0.67353(3)
H3_2 H 0.4236 0.6258 0.6556
C12_2 C 0.39645(6) 0.65665(7) 0.69004(3)
H4_2 H 0.3802 0.6902 0.6834
C13_2 C 0.47313(7) 0.53118(7) 0.66697(3)
N1_2 N 0.50042(8) 0.49683(7) 0.65187(3)
C14_2 C 0.38205(8) 0.69782(9) 0.76009(3)
C15_2 C 0.43898(8) 0.69614(9) 0.76668(3)
H5_2 H 0.4663 0.6876 0.7539
C16_2 C 0.4564(3) 0.7068(3) 0.79169(12)
H6_2 H 0.4950 0.7029 0.7965
C17_2 C 0.4141(3) 0.7241(3) 0.81030(11)
C18_2 C 0.3578(3) 0.7205(3) 0.80399(11)
H7_2 H 0.3300 0.7243 0.8171
C19_2 C 0.3410(2) 0.7112(3) 0.77863(11)
H8_2 H 0.3023 0.7140 0.7739
C20_2 C 0.4317(3) 0.7331(3) 0.83597(14)
N2_2 N 0.4462(2) 0.7441(3) 0.85754(11)
C21_2 C 0.2901(3) 0.8272(3) 0.75969(14)
C22_2 C 0.3483(3) 0.8292(3) 0.75802(13)
H9_2 H 0.3674 0.8137 0.7436
C23_2 C 0.3793(3) 0.8553(3) 0.77878(12)
H10_2 H 0.4184 0.8633 0.7770
C24_2 C 0.3498(3) 0.8689(3) 0.80227(12)
C25_2 C 0.2959(3) 0.8659(3) 0.80189(13)
H11_2 H 0.2773 0.8778 0.8171
C26_2 C 0.2622(3) 0.8480(3) 0.78286(11)
H12_2 H 0.2222 0.8489 0.7844
C27_2 C 0.3827(3) 0.8862(3) 0.82279(13)
N3_2 N 0.41327(12) 0.90281(12) 0.84053(5)
C28_2 C 0.20106(10) 0.82879(13) 0.73158(4)
C29_2 C 0.19447(13) 0.88697(13) 0.73174(4)
H13_2 H 0.2257 0.9104 0.7359
C30_2 C 0.1438(3) 0.9104(3) 0.72595(12)
H14_2 H 0.1399 0.9502 0.7255
C31_2 C 0.0978(3) 0.8766(3) 0.72077(13)
C32_2 C 0.1014(3) 0.8166(3) 0.71906(15)
H15_2 H 0.0703 0.7938 0.7140
C33_2 C 0.1545(3) 0.7935(3) 0.72546(11)
H16_2 H 0.1592 0.7538 0.7257
C34_2 C 0.0433(3) 0.8963(3) 0.71348(13)
C35_2 C 0.2027(3) 0.7371(3) 0.67127(13)
C36_2 C 0.2115(3) 0.7933(3) 0.66972(11)
H17_2 H 0.2467 0.8072 0.6757
C37_2 C 0.1745(4) 0.8307(4) 0.66045(16)
H18_2 H 0.1821 0.8695 0.6575
C38_2 C 0.1138(3) 0.7991(3) 0.65494(11)
C39_2 C 0.1078(3) 0.7458(3) 0.65561(12)
H19_2 H 0.0721 0.7300 0.6513
C40_2 C 0.1531(3) 0.7087(3) 0.66259(12)
H20_2 H 0.1503 0.6689 0.6615
C41_2 C 0.0685(3) 0.8336(3) 0.64679(11)
N5_2 N 0.0367(2) 0.8716(2) 0.64177(9)
C42_2 C 0.2639(2) 0.6398(3) 0.67156(10)
C43_2 C 0.2655(3) 0.6366(3) 0.64640(12)
H21_2 H 0.2535 0.6674 0.6361
C44_2 C 0.2858(3) 0.5850(3) 0.63459(10)
H22_2 H 0.2868 0.5803 0.6164
C45_2 C 0.3040(3) 0.5422(3) 0.65163(12)
C46_2 C 0.2996(3) 0.5496(3) 0.67734(12)
H23_2 H 0.3107 0.5202 0.6887
C47_2 C 0.2783(3) 0.6013(3) 0.68772(12)
H24_2 H 0.2750 0.6069 0.7058
C48_2 C 0.3279(3) 0.4912(3) 0.64231(12)
N6_2 N 0.35385(9) 0.45818(10) 0.63318(4)
C49_2 C 0.69695(10) 0.47237(10) 0.47291(3)
C50_2 C 0.74205(11) 0.46681(11) 0.45414(4)
C51_2 C 0.73909(10) 0.42861(11) 0.47530(4)
C52_2 C 0.65227(10) 0.49948(10) 0.48292(3)
C53_2 C 0.77633(12) 0.49518(12) 0.43643(4)
C54_2 C 0.75435(10) 0.38414(11) 0.48665(4)
C55_2 C 0.62932(7) 0.48279(8) 0.50716(3)
C56_2 C 0.66671(7) 0.47766(8) 0.52768(3)
H25_2 H 0.7060 0.4841 0.5251
C57_2 C 0.64668(8) 0.46317(8) 0.55195(3)
H26_2 H 0.6722 0.4597 0.5660
C58_2 C 0.58927(8) 0.45381(8) 0.55571(3)
C59_2 C 0.55187(7) 0.45894(9) 0.53520(4)
H27_2 H 0.5126 0.4525 0.5378
C60_2 C 0.57190(7) 0.47343(9) 0.51092(3)
H28_2 H 0.5463 0.4769 0.4969
C61_2 C 0.56939(9) 0.44472(9) 0.58144(3)
N7_2 N 0.55137(10) 0.43631(11) 0.60113(4)
C62_2 C 0.62207(9) 0.54479(10) 0.46610(4)
C63_2 C 0.59467(10) 0.58935(10) 0.47818(4)
H29_2 H 0.5946 0.5908 0.4965
C64_2 C 0.5671(2) 0.6322(3) 0.46448(11)
H30_2 H 0.5469 0.6613 0.4730
C65_2 C 0.5712(3) 0.6294(3) 0.43618(11)
C66_2 C 0.6022(3) 0.5862(3) 0.42513(13)
H31_2 H 0.6097 0.5889 0.4072
C67_2 C 0.6236(3) 0.5385(3) 0.43821(12)
H32_2 H 0.6375 0.5059 0.4297
C68_2 C 0.5440(3) 0.6715(3) 0.42277(14)
N8_2 N 0.5204(2) 0.7034(3) 0.40988(11)
C69_2 C 0.7644(3) 0.5516(3) 0.42784(12)
C70_2 C 0.7456(3) 0.5908(3) 0.44582(11)
H33_2 H 0.7392 0.5795 0.4631
C71_2 C 0.7360(3) 0.6482(4) 0.43838(15)
H34_2 H 0.7254 0.6758 0.4507
C72_2 C 0.7422(3) 0.6614(3) 0.41364(13)
C73_2 C 0.7623(3) 0.6260(3) 0.39525(13)
H35_2 H 0.7688 0.6397 0.3783
C74_2 C 0.7741(3) 0.5662(3) 0.40136(12)
H36_2 H 0.7870 0.5398 0.3889
C75_2 C 0.7341(3) 0.7157(3) 0.40530(12)
N9_2 N 0.7251(2) 0.76963(14) 0.40214(8)
C76_2 C 0.82571(13) 0.46051(15) 0.42563(5)
C77_2 C 0.87860(13) 0.48512(17) 0.42258(6)
H37_2 H 0.8829 0.5245 0.4253
C78_2 C 0.9253(3) 0.4530(3) 0.41560(12)
H38_2 H 0.9622 0.4688 0.4155
C79_2 C 0.9156(3) 0.3927(3) 0.40817(11)
C80_2 C 0.8617(3) 0.3665(3) 0.41165(15)
H39_2 H 0.8552 0.3276 0.4084
C81_2 C 0.8187(3) 0.4035(3) 0.42031(13)
H40_2 H 0.7820 0.3881 0.4227
C82_2 C 0.9579(3) 0.3625(3) 0.40226(12)
C83_2 C 0.8148(3) 0.3584(4) 0.48468(14)
C84_2 C 0.8579(3) 0.3965(3) 0.48016(13)
H41_2 H 0.8526 0.4362 0.4802
C85_2 C 0.9129(3) 0.3693(3) 0.47520(12)
H42_2 H 0.9457 0.3924 0.4744
C86_2 C 0.9187(3) 0.3171(4) 0.47200(15)
C87_2 C 0.8735(4) 0.2679(4) 0.47558(17)
H43_2 H 0.8811 0.2287 0.4769
C88_2 C 0.8160(4) 0.2959(4) 0.47654(17)
H44_2 H 0.7824 0.2760 0.4723
C89_2 C 0.9801(5) 0.2904(4) 0.47044(17)
C90_2 C 0.7235(3) 0.3548(3) 0.50740(12)
C91_2 C 0.7541(5) 0.3357(5) 0.5309(2)
H45_2 H 0.7934 0.3416 0.5335
C92_2 C 0.7183(3) 0.3076(3) 0.54919(13)
H46_2 H 0.7358 0.2909 0.5638
C93_2 C 0.6564(3) 0.3028(3) 0.54687(14)
C94_2 C 0.6284(3) 0.3264(3) 0.52419(11)
H47_2 H 0.5884 0.3265 0.5230
C95_2 C 0.6613(3) 0.3488(3) 0.50416(15)
H48_2 H 0.6438 0.3602 0.4885
C96_2 C 0.6253(3) 0.2801(4) 0.56719(16)
N12_2 N 0.60192(14) 0.26408(10) 0.58263(6)
Cu3_2 Cu 0.47449(3) 0.92697(3) 0.863199(13)
Cu5_2 Cu 0.53582(4) 0.24477(4) 0.606508(15)
N13_2 N 0.4462(2) 0.7559(3) 0.35754(11)
N14_2 N 0.58673(12) 0.40281(12) 0.65947(5)
N15_2 N 0.4633(2) 0.3716(2) 0.64177(9)
N16_2 N 0.4985(3) 0.8307(3) 0.39953(12)
N17_2 N 0.39808(14) 0.73592(10) 0.41737(6)
N4_2 N 0.9998(3) 0.9213(3) 0.70841(13)
Cu4_2 Cu 0.97449(3) 0.92697(3) 0.636801(13)
N4_3 N 0.0002(3) 0.4213(3) 0.79159(13)
Cu4_3 Cu 0.02551(3) 0.42697(3) 0.863199(13)
Cu2_3 Cu 0.53582(4) 0.25523(4) 0.106508(15)
C62_3 C 0.37793(9) 0.04479(10) 0.03390(4)
C63_3 C 0.40533(10) 0.08935(10) 0.02182(4)
H29_3 H 0.4054 0.0908 0.0035
C64_3 C 0.4329(2) 0.1322(3) 0.03552(11)
H30_3 H 0.4531 0.1613 0.0270
C65_3 C 0.4288(3) 0.1294(3) 0.06382(11)
C66_3 C 0.3978(3) 0.0862(3) 0.07487(13)
H31_3 H 0.3903 0.0889 0.0928
C67_3 C 0.3764(3) 0.0385(3) 0.06179(12)
H32_3 H 0.3625 0.0059 0.0703
C68_3 C 0.4560(3) 0.1715(3) 0.07723(14)
N8_3 N 0.4796(2) 0.2034(3) 0.09012(11)
C69_3 C 0.2356(3) 0.0516(3) 0.07216(12)
C70_3 C 0.2544(3) 0.0908(3) 0.05418(11)
H33_3 H 0.2608 0.0795 0.0369
C71_3 C 0.2640(3) 0.1482(4) 0.06162(15)
H34_3 H 0.2746 0.1758 0.0493
C72_3 C 0.2578(3) 0.1614(3) 0.08636(13)
C73_3 C 0.2377(3) 0.1260(3) 0.10475(13)
H35_3 H 0.2312 0.1397 0.1217
C74_3 C 0.2259(3) 0.0662(3) 0.09864(12)
H36_3 H 0.2130 0.0398 0.1111
C75_3 C 0.2659(3) 0.2157(3) 0.09470(12)
N9_3 N 0.2749(2) 0.26963(14) 0.09786(8)
H37_3 H 0.1171 0.0245 0.0747
N13_3 N 0.5538(2) 0.2559(3) 0.14246(11)
N16_3 N 0.5015(3) 0.3307(3) 0.10047(12)
N17_3 N 0.60192(14) 0.23592(10) 0.08263(6)
C1_3 C 0.6782(3) 0.2140(3) 0.77695(11)
C2_3 C 0.7228(3) 0.2613(3) 0.77476(12)
C3_3 C 0.7259(3) 0.2213(3) 0.79383(13)
C4_3 C 0.6365(3) 0.1873(3) 0.76709(11)
C5_3 C 0.7442(2) 0.3029(3) 0.76197(11)
C6_3 C 0.7503(3) 0.2005(3) 0.81648(10)
C7_3 C 0.60554(7) 0.14584(8) 0.78367(3)
C8_3 C 0.58173(8) 0.09677(8) 0.77389(3)
H1_3 H 0.5831 0.0894 0.7559
C9_3 C 0.55593(8) 0.05851(7) 0.79039(3)
H2_3 H 0.5397 0.0250 0.7837
C10_3 C 0.55394(7) 0.06932(7) 0.81668(3)
C11_3 C 0.57775(6) 0.11839(7) 0.82647(3)
H3_3 H 0.5764 0.1258 0.8444
C12_3 C 0.60355(6) 0.15665(7) 0.80996(3)
H4_3 H 0.6198 0.1902 0.8166
C13_3 C 0.52687(7) 0.03118(7) 0.83303(3)
C14_3 C 0.61795(8) 0.19782(9) 0.73991(3)
C15_3 C 0.56102(8) 0.19614(9) 0.73332(3)
H5_3 H 0.5337 0.1876 0.7461
C16_3 C 0.5436(3) 0.2068(3) 0.70831(12)
H6_3 H 0.5050 0.2029 0.7035
C17_3 C 0.5859(3) 0.2241(3) 0.68970(11)
C18_3 C 0.6422(3) 0.2205(3) 0.69601(11)
H7_3 H 0.6700 0.2243 0.6829
C19_3 C 0.6590(2) 0.2112(3) 0.72137(11)
H8_3 H 0.6977 0.2140 0.7261
C20_3 C 0.5683(3) 0.2331(3) 0.66403(14)
N2_3 N 0.5538(2) 0.2441(3) 0.64246(11)
C21_3 C 0.7099(3) 0.3272(3) 0.74031(14)
C22_3 C 0.6517(3) 0.3292(3) 0.74198(13)
H9_3 H 0.6326 0.3137 0.7564
C23_3 C 0.6207(3) 0.3553(3) 0.72122(12)
H10_3 H 0.5816 0.3633 0.7230
C24_3 C 0.6502(3) 0.3689(3) 0.69773(12)
C25_3 C 0.7041(3) 0.3659(3) 0.69811(13)
H11_3 H 0.7227 0.3778 0.6829
C26_3 C 0.7378(3) 0.3480(3) 0.71714(11)
H12_3 H 0.7778 0.3489 0.7156
C27_3 C 0.6173(3) 0.3862(3) 0.67721(13)
C28_3 C 0.79894(10) 0.32879(13) 0.76842(4)
C29_3 C 0.80553(13) 0.38697(13) 0.76826(4)
H13_3 H 0.7743 0.4104 0.7641
C30_3 C 0.8562(3) 0.4104(3) 0.77405(12)
H14_3 H 0.8601 0.4502 0.7745
C31_3 C 0.9022(3) 0.3766(3) 0.77923(13)
C32_3 C 0.8986(3) 0.3166(3) 0.78094(15)
H15_3 H 0.9297 0.2938 0.7860
C33_3 C 0.8455(3) 0.2935(3) 0.77454(11)
H16_3 H 0.8408 0.2538 0.7743
C34_3 C 0.9567(3) 0.3963(3) 0.78652(13)
C35_3 C 0.7973(3) 0.2371(3) 0.82873(13)
C36_3 C 0.7885(3) 0.2933(3) 0.83028(11)
H17_3 H 0.7533 0.3072 0.8243
C37_3 C 0.8255(4) 0.3307(4) 0.83955(16)
H18_3 H 0.8179 0.3695 0.8425
C38_3 C 0.8862(3) 0.2991(3) 0.84506(11)
C39_3 C 0.8922(3) 0.2458(3) 0.84439(12)
H19_3 H 0.9279 0.2300 0.8487
C40_3 C 0.8469(3) 0.2087(3) 0.83741(12)
H20_3 H 0.8497 0.1689 0.8385
C41_3 C 0.9315(3) 0.3336(3) 0.85321(11)
N5_3 N 0.9633(2) 0.3716(2) 0.85823(9)
C42_3 C 0.7361(2) 0.1398(3) 0.82844(10)
C43_3 C 0.7345(3) 0.1366(3) 0.85360(12)
H21_3 H 0.7465 0.1674 0.8639
C44_3 C 0.7142(3) 0.0850(3) 0.86541(10)
H22_3 H 0.7132 0.0803 0.8836
C45_3 C 0.6960(3) 0.0422(3) 0.84837(12)
C46_3 C 0.7004(3) 0.0496(3) 0.82266(12)
H23_3 H 0.6893 0.0202 0.8113
C47_3 C 0.7217(3) 0.1013(3) 0.81228(12)
H24_3 H 0.7250 0.1069 0.7942
N1_3 N 0.49958(8) 0.99683(7) 0.84813(3)
C48_3 C 0.6721(3) 0.9912(3) 0.85769(12)
N6_3 N 0.64615(9) 0.95818(10) 0.86682(4)
C55_3 C 0.37068(7) 0.98279(8) 0.99284(3)
C56_3 C 0.33329(7) 0.97766(8) 0.97232(3)
H25_3 H 0.2940 0.9841 0.9749
C57_3 C 0.35332(8) 0.96317(8) 0.94805(3)
H26_3 H 0.3278 0.9597 0.9340
C58_3 C 0.41073(8) 0.95381(8) 0.94429(3)
C59_3 C 0.44813(7) 0.95894(9) 0.96480(4)
H27_3 H 0.4874 0.9525 0.9622
C60_3 C 0.42810(7) 0.97343(9) 0.98908(3)
C61_3 C 0.43061(9) 0.94472(9) 0.91856(3)
N7_3 N 0.44863(10) 0.93631(11) 0.89887(4)
C90_3 C 0.2765(3) 0.8548(3) 0.99260(12)
C91_3 C 0.2459(5) 0.8357(5) 0.9691(2)
H45_3 H 0.2066 0.8416 0.9665
C92_3 C 0.2817(3) 0.8076(3) 0.95081(13)
H46_3 H 0.2642 0.7909 0.9362
C93_3 C 0.3436(3) 0.8028(3) 0.95313(14)
C94_3 C 0.3716(3) 0.8264(3) 0.97581(11)
H47_3 H 0.4116 0.8265 0.9770
C95_3 C 0.3387(3) 0.8488(3) 0.99584(15)
C96_3 C 0.3747(3) 0.7801(4) 0.93281(16)
N12_3 N 0.39808(14) 0.76408(10) 0.91737(6)
N15_3 N 0.5367(2) 0.8716(2) 0.85823(9)
N10_3 N 0.9985(3) 0.8307(3) 0.10047(12)
N11_3 N 0.9801(3) 0.7712(4) 0.03144(13)
N1_4 N 0.00042(8) 0.00317(7) 0.34813(3)
C49_3 C 0.19695(10) 0.02763(10) 0.52709(3)
C50_3 C 0.24205(11) 0.03319(11) 0.54586(4)
C51_3 C 0.23909(10) 0.07139(11) 0.52470(4)
C52_3 C 0.15227(10) 0.00052(10) 0.51708(3)
C53_3 C 0.27633(12) 0.00482(12) 0.56357(4)
C54_3 C 0.25435(10) 0.11586(11) 0.51335(4)
C55_4 C 0.12932(7) 0.01721(8) 0.49284(3)
C56_4 C 0.16671(7) 0.02234(8) 0.47232(3)
H25_4 H 0.2060 0.0159 0.4749
C57_4 C 0.14668(8) 0.03683(8) 0.44805(3)
H26_4 H 0.1722 0.0403 0.4340
C58_4 C 0.08927(8) 0.04619(8) 0.44429(3)
C59_4 C 0.05187(7) 0.04106(9) 0.46480(4)
H27_4 H 0.0126 0.0475 0.4622
C60_4 C 0.07190(7) 0.02657(9) 0.48908(3)
H28_3 H 0.0463 0.0231 0.5031
C61_4 C 0.06939(9) 0.05528(9) 0.41856(3)
N7_4 N 0.05137(10) 0.06369(11) 0.39887(4)
C76_3 C 0.32571(13) 0.03949(15) 0.57437(5)
C77_3 C 0.37860(13) 0.01488(17) 0.57742(6)
C78_3 C 0.4253(3) 0.0470(3) 0.58440(12)
H38_3 H 0.4622 0.0312 0.5845
C79_3 C 0.4156(3) 0.1073(3) 0.59183(11)
C80_3 C 0.3617(3) 0.1335(3) 0.58835(15)
H39_3 H 0.3552 0.1724 0.5916
C81_3 C 0.3187(3) 0.0965(3) 0.57969(13)
H40_3 H 0.2820 0.1119 0.5773
C82_3 C 0.4579(3) 0.1375(3) 0.59774(12)
N10_4 N 0.5015(3) 0.1693(3) 0.60047(12)
C83_3 C 0.3148(3) 0.1416(4) 0.51532(14)
C84_3 C 0.3579(3) 0.1035(3) 0.51984(13)
H41_3 H 0.3526 0.0638 0.5198
C85_3 C 0.4129(3) 0.1307(3) 0.52480(12)
H42_3 H 0.4457 0.1076 0.5256
C86_3 C 0.4187(3) 0.1829(4) 0.52800(15)
C87_3 C 0.3735(4) 0.2321(4) 0.52442(17)
H43_3 H 0.3811 0.2713 0.5231
C88_3 C 0.3160(4) 0.2041(4) 0.52346(17)
H44_3 H 0.2824 0.2240 0.5277
C89_3 C 0.4801(5) 0.2096(4) 0.52956(17)
N11_4 N 0.5199(3) 0.2288(4) 0.53144(13)
C90_4 C 0.2235(3) 0.1452(3) 0.49260(12)
C91_4 C 0.2541(5) 0.1643(5) 0.4691(2)
H45_4 H 0.2934 0.1584 0.4665
C92_4 C 0.2183(3) 0.1924(3) 0.45081(13)
H46_4 H 0.2358 0.2091 0.4362
C93_4 C 0.1564(3) 0.1972(3) 0.45313(14)
C94_4 C 0.1284(3) 0.1736(3) 0.47581(11)
H47_4 H 0.0884 0.1735 0.4770
C95_4 C 0.1613(3) 0.1512(3) 0.49584(15)
H48_3 H 0.1438 0.1398 0.5115
C96_4 C 0.1253(3) 0.2199(4) 0.43281(16)
N12_4 N 0.10192(14) 0.23592(10) 0.41737(6)
C48_4 C 0.8279(3) 0.0088(3) 0.35769(12)
N6_4 N 0.85385(9) 0.04182(10) 0.36682(4)
N15_4 N 0.9633(2) 0.1284(2) 0.35823(9)
C1_4 C 0.8218(3) 0.7860(3) 0.27695(11)
Cu2_4 Cu 0.96418(4) 0.74477(4) 0.606508(15)
C2_4 C 0.7772(3) 0.7387(3) 0.27476(12)
C3_4 C 0.7741(3) 0.7787(3) 0.29383(13)
C4_4 C 0.8635(3) 0.8127(3) 0.26709(11)
C5_4 C 0.7558(2) 0.6971(3) 0.26197(11)
C6_4 C 0.7497(3) 0.7995(3) 0.31648(10)
C7_4 C 0.89446(7) 0.85416(8) 0.28367(3)
C8_4 C 0.91827(8) 0.90323(8) 0.27389(3)
H1_4 H 0.9169 0.9106 0.2559
C9_4 C 0.94407(8) 0.94149(7) 0.29039(3)
H2_4 H 0.9603 0.9750 0.2837
C10_4 C 0.94606(7) 0.93068(7) 0.31668(3)
C11_4 C 0.92225(6) 0.88161(7) 0.32647(3)
H3_4 H 0.9236 0.8742 0.3444
C12_4 C 0.89645(6) 0.84335(7) 0.30996(3)
H4_4 H 0.8802 0.8098 0.3166
C13_4 C 0.97313(7) 0.96882(7) 0.33303(3)
C14_4 C 0.88205(8) 0.80218(9) 0.23991(3)
C15_4 C 0.93898(8) 0.80386(9) 0.23332(3)
H5_4 H 0.9663 0.8124 0.2461
C16_4 C 0.9564(3) 0.7932(3) 0.20831(12)
H6_4 H 0.9950 0.7971 0.2035
C17_4 C 0.9141(3) 0.7759(3) 0.18970(11)
C18_4 C 0.8578(3) 0.7795(3) 0.19601(11)
H7_4 H 0.8300 0.7757 0.1829
C19_4 C 0.8410(2) 0.7888(3) 0.22137(11)
H8_4 H 0.8023 0.7860 0.2261
C20_4 C 0.9317(3) 0.7669(3) 0.16403(14)
N2_4 N 0.9462(2) 0.7559(3) 0.14246(11)
C21_4 C 0.7901(3) 0.6728(3) 0.24031(14)
C22_4 C 0.8483(3) 0.6708(3) 0.24198(13)
H9_4 H 0.8674 0.6863 0.2564
C23_4 C 0.8793(3) 0.6447(3) 0.22122(12)
H10_4 H 0.9184 0.6367 0.2230
C24_4 C 0.8498(3) 0.6311(3) 0.19773(12)
C25_4 C 0.7959(3) 0.6341(3) 0.19811(13)
H11_4 H 0.7773 0.6222 0.1829
C26_4 C 0.7622(3) 0.6520(3) 0.21714(11)
H12_4 H 0.7222 0.6511 0.2156
C27_4 C 0.8827(3) 0.6138(3) 0.17721(13)
C28_4 C 0.70106(10) 0.67121(13) 0.26842(4)
C29_4 C 0.69447(13) 0.61303(13) 0.26826(4)
H13_4 H 0.7257 0.5896 0.2641
C30_4 C 0.6438(3) 0.5896(3) 0.27405(12)
H14_4 H 0.6399 0.5498 0.2745
C31_4 C 0.5978(3) 0.6234(3) 0.27923(13)
C32_4 C 0.6014(3) 0.6834(3) 0.28094(15)
H15_4 H 0.5703 0.7062 0.2860
C33_4 C 0.6545(3) 0.7065(3) 0.27454(11)
H16_4 H 0.6592 0.7462 0.2743
C34_4 C 0.5433(3) 0.6037(3) 0.28652(13)
N4_4 N 0.4998(3) 0.5787(3) 0.29159(13)
C35_4 C 0.7027(3) 0.7629(3) 0.32873(13)
C36_4 C 0.7115(3) 0.7067(3) 0.33028(11)
H17_4 H 0.7467 0.6928 0.3243
C37_4 C 0.6745(4) 0.6693(4) 0.33955(16)
H18_4 H 0.6821 0.6305 0.3425
C38_4 C 0.6138(3) 0.7009(3) 0.34506(11)
C39_4 C 0.6078(3) 0.7542(3) 0.34439(12)
H19_4 H 0.5721 0.7700 0.3487
C40_4 C 0.6531(3) 0.7913(3) 0.33741(12)
H20_4 H 0.6503 0.8311 0.3385
C41_4 C 0.5685(3) 0.6664(3) 0.35321(11)
N5_4 N 0.5367(2) 0.6284(2) 0.35823(9)
C42_4 C 0.7639(2) 0.8602(3) 0.32844(10)
C43_4 C 0.7655(3) 0.8634(3) 0.35360(12)
H21_4 H 0.7535 0.8326 0.3639
C44_4 C 0.7858(3) 0.9150(3) 0.36541(10)
H22_4 H 0.7868 0.9197 0.3836
C45_4 C 0.8040(3) 0.9578(3) 0.34837(12)
C46_4 C 0.7996(3) 0.9504(3) 0.32266(12)
H23_4 H 0.8107 0.9798 0.3113
C47_4 C 0.7783(3) 0.8987(3) 0.31228(12)
H24_4 H 0.7750 0.8931 0.2942
Cu4_4 Cu 0.47449(3) 0.57303(3) 0.363199(13)
N13_4 N 0.9462(2) 0.7441(3) 0.64246(11)
N16_4 N 0.9985(3) 0.6693(3) 0.60047(12)
N17_4 N 0.89808(14) 0.76408(10) 0.58263(6)
C49_4 C 0.19695(10) 0.47237(10) 0.02709(3)
C50_4 C 0.24205(11) 0.46681(11) 0.04586(4)
C51_4 C 0.23909(10) 0.42861(11) 0.02470(4)
C52_4 C 0.15227(10) 0.49948(10) 0.01708(3)
C53_4 C 0.27633(12) 0.49518(12) 0.06357(4)
C54_4 C 0.25435(10) 0.38414(11) 0.01335(4)
H28_4 H 0.0463 0.4769 0.0031
C62_4 C 0.12207(9) 0.54479(10) 0.03390(4)
C63_4 C 0.09467(10) 0.58935(10) 0.02182(4)
H29_4 H 0.0946 0.5908 0.0035
C64_4 C 0.0671(2) 0.6322(3) 0.03552(11)
H30_4 H 0.0469 0.6613 0.0270
C65_4 C 0.0712(3) 0.6294(3) 0.06382(11)
C66_4 C 0.1022(3) 0.5862(3) 0.07487(13)
H31_4 H 0.1097 0.5889 0.0928
C67_4 C 0.1236(3) 0.5385(3) 0.06179(12)
H32_4 H 0.1375 0.5059 0.0703
C68_4 C 0.0440(3) 0.6715(3) 0.07723(14)
N8_4 N 0.0204(2) 0.7034(3) 0.09012(11)
C69_4 C 0.2644(3) 0.5516(3) 0.07216(12)
C70_4 C 0.2456(3) 0.5908(3) 0.05418(11)
H33_4 H 0.2392 0.5795 0.0369
C71_4 C 0.2360(3) 0.6482(4) 0.06162(15)
H34_4 H 0.2254 0.6758 0.0493
C72_4 C 0.2422(3) 0.6614(3) 0.08636(13)
C73_4 C 0.2623(3) 0.6260(3) 0.10475(13)
H35_4 H 0.2688 0.6397 0.1217
C74_4 C 0.2741(3) 0.5662(3) 0.09864(12)
H36_4 H 0.2870 0.5398 0.1111
C75_4 C 0.2341(3) 0.7157(3) 0.09470(12)
N9_4 N 0.2251(2) 0.76963(14) 0.09786(8)
C76_4 C 0.32571(13) 0.46051(15) 0.07437(5)
C77_4 C 0.37860(13) 0.48512(17) 0.07742(6)
H37_4 H 0.3829 0.5245 0.0747
C78_4 C 0.4253(3) 0.4530(3) 0.08440(12)
H38_4 H 0.4622 0.4688 0.0845
C79_4 C 0.4156(3) 0.3927(3) 0.09183(11)
C80_4 C 0.3617(3) 0.3665(3) 0.08835(15)
H39_4 H 0.3552 0.3276 0.0916
C81_4 C 0.3187(3) 0.4035(3) 0.07969(13)
H40_4 H 0.2820 0.3881 0.0773
C82_4 C 0.4579(3) 0.3625(3) 0.09774(12)
C83_4 C 0.3148(3) 0.3584(4) 0.01532(14)
C84_4 C 0.3579(3) 0.3965(3) 0.01984(13)
H41_4 H 0.3526 0.4362 0.0198
C85_4 C 0.4129(3) 0.3693(3) 0.02480(12)
H42_4 H 0.4457 0.3924 0.0256
C86_4 C 0.4187(3) 0.3171(4) 0.02800(15)
C87_4 C 0.3735(4) 0.2679(4) 0.02442(17)
H43_4 H 0.3811 0.2287 0.0231
C88_4 C 0.3160(4) 0.2959(4) 0.02346(17)
H44_4 H 0.2824 0.2760 0.0277
C89_4 C 0.4801(5) 0.2904(4) 0.02956(17)
N11_5 N 0.5199(3) 0.2712(4) 0.03144(13)
H48_4 H 0.1438 0.3602 0.0115
N1_5 N 0.00042(8) 0.49683(7) 0.84813(3)
C55_5 C 0.12932(7) 0.48279(8) 0.99284(3)
C56_5 C 0.16671(7) 0.47766(8) 0.97232(3)
H25_5 H 0.2060 0.4841 0.9749
C57_5 C 0.14668(8) 0.46317(8) 0.94805(3)
H26_5 H 0.1722 0.4597 0.9340
C58_5 C 0.08927(8) 0.45381(8) 0.94429(3)
C59_5 C 0.05187(7) 0.45894(9) 0.96480(4)
H27_5 H 0.0126 0.4525 0.9622
C60_5 C 0.07190(7) 0.47343(9) 0.98908(3)
C61_5 C 0.06939(9) 0.44472(9) 0.91856(3)
N7_5 N 0.05137(10) 0.43631(11) 0.89887(4)
C90_5 C 0.2235(3) 0.3548(3) 0.99260(12)
C91_5 C 0.2541(5) 0.3357(5) 0.9691(2)
H45_5 H 0.2934 0.3416 0.9665
C92_5 C 0.2183(3) 0.3076(3) 0.95081(13)
H46_5 H 0.2358 0.2909 0.9362
C93_5 C 0.1564(3) 0.3028(3) 0.95313(14)
C94_5 C 0.1284(3) 0.3264(3) 0.97581(11)
H47_5 H 0.0884 0.3265 0.9770
C95_5 C 0.1613(3) 0.3488(3) 0.99584(15)
C96_5 C 0.1253(3) 0.2801(4) 0.93281(16)
N14_3 N 0.08673(12) 0.40281(12) 0.84053(5)
C1_5 C 0.8218(3) 0.7140(3) 0.77695(11)
C2_5 C 0.7772(3) 0.7613(3) 0.77476(12)
C3_5 C 0.7741(3) 0.7213(3) 0.79383(13)
C4_5 C 0.8635(3) 0.6873(3) 0.76709(11)
C5_5 C 0.7558(2) 0.8029(3) 0.76197(11)
C6_5 C 0.7497(3) 0.7005(3) 0.81648(10)
C7_5 C 0.89446(7) 0.64584(8) 0.78367(3)
C8_5 C 0.91827(8) 0.59677(8) 0.77389(3)
H1_5 H 0.9169 0.5894 0.7559
C9_5 C 0.94407(8) 0.55851(7) 0.79039(3)
H2_5 H 0.9603 0.5250 0.7837
C10_5 C 0.94606(7) 0.56932(7) 0.81668(3)
C11_5 C 0.92225(6) 0.61839(7) 0.82647(3)
H3_5 H 0.9236 0.6258 0.8444
C12_5 C 0.89645(6) 0.65665(7) 0.80996(3)
H4_5 H 0.8802 0.6902 0.8166
C13_5 C 0.97313(7) 0.53118(7) 0.83303(3)
C14_5 C 0.88205(8) 0.69782(9) 0.73991(3)
C15_5 C 0.93898(8) 0.69614(9) 0.73332(3)
H5_5 H 0.9663 0.6876 0.7461
C16_5 C 0.9564(3) 0.7068(3) 0.70831(12)
H6_5 H 0.9950 0.7029 0.7035
C17_5 C 0.9141(3) 0.7241(3) 0.68970(11)
C18_5 C 0.8578(3) 0.7205(3) 0.69601(11)
H7_5 H 0.8300 0.7243 0.6829
C19_5 C 0.8410(2) 0.7112(3) 0.72137(11)
H8_5 H 0.8023 0.7140 0.7261
C20_5 C 0.9317(3) 0.7331(3) 0.66403(14)
C21_5 C 0.7901(3) 0.8272(3) 0.74031(14)
C22_5 C 0.8483(3) 0.8292(3) 0.74198(13)
H9_5 H 0.8674 0.8137 0.7564
C23_5 C 0.8793(3) 0.8553(3) 0.72122(12)
H10_5 H 0.9184 0.8633 0.7230
C24_5 C 0.8498(3) 0.8689(3) 0.69773(12)
C25_5 C 0.7959(3) 0.8659(3) 0.69811(13)
H11_5 H 0.7773 0.8778 0.6829
C26_5 C 0.7622(3) 0.8480(3) 0.71714(11)
H12_5 H 0.7222 0.8489 0.7156
C27_5 C 0.8827(3) 0.8862(3) 0.67721(13)
N3_3 N 0.91327(12) 0.90281(12) 0.65947(5)
C28_5 C 0.70106(10) 0.82879(13) 0.76842(4)
C29_5 C 0.69447(13) 0.88697(13) 0.76826(4)
H13_5 H 0.7257 0.9104 0.7641
C30_5 C 0.6438(3) 0.9104(3) 0.77405(12)
H14_5 H 0.6399 0.9502 0.7745
C31_5 C 0.5978(3) 0.8766(3) 0.77923(13)
C32_5 C 0.6014(3) 0.8166(3) 0.78094(15)
H15_5 H 0.5703 0.7938 0.7860
C33_5 C 0.6545(3) 0.7935(3) 0.77454(11)
H16_5 H 0.6592 0.7538 0.7743
C34_5 C 0.5433(3) 0.8963(3) 0.78652(13)
N4_5 N 0.4998(3) 0.9213(3) 0.79159(13)
C35_5 C 0.7027(3) 0.7371(3) 0.82873(13)
C36_5 C 0.7115(3) 0.7933(3) 0.83028(11)
H17_5 H 0.7467 0.8072 0.8243
C37_5 C 0.6745(4) 0.8307(4) 0.83955(16)
H18_5 H 0.6821 0.8695 0.8425
C38_5 C 0.6138(3) 0.7991(3) 0.84506(11)
C39_5 C 0.6078(3) 0.7458(3) 0.84439(12)
H19_5 H 0.5721 0.7300 0.8487
C40_5 C 0.6531(3) 0.7087(3) 0.83741(12)
H20_5 H 0.6503 0.6689 0.8385
C41_5 C 0.5685(3) 0.8336(3) 0.85321(11)
C42_5 C 0.7639(2) 0.6398(3) 0.82844(10)
C43_5 C 0.7655(3) 0.6366(3) 0.85360(12)
H21_5 H 0.7535 0.6674 0.8639
C44_5 C 0.7858(3) 0.5850(3) 0.86541(10)
H22_5 H 0.7868 0.5803 0.8836
C45_5 C 0.8040(3) 0.5422(3) 0.84837(12)
C46_5 C 0.7996(3) 0.5496(3) 0.82266(12)
H23_5 H 0.8107 0.5202 0.8113
C47_5 C 0.7783(3) 0.6013(3) 0.81228(12)
H24_5 H 0.7750 0.6069 0.7942
C48_5 C 0.8279(3) 0.4912(3) 0.85769(12)
N6_5 N 0.85385(9) 0.45818(10) 0.86682(4)
N4_6 N 0.0002(3) 0.0787(3) 0.29159(13)
C1_6 C 0.6782(3) 0.2860(3) 0.27695(11)
C2_6 C 0.7228(3) 0.2387(3) 0.27476(12)
C3_6 C 0.7259(3) 0.2787(3) 0.29383(13)
C4_6 C 0.6365(3) 0.3127(3) 0.26709(11)
C5_6 C 0.7442(2) 0.1971(3) 0.26197(11)
C6_6 C 0.7503(3) 0.2995(3) 0.31648(10)
C7_6 C 0.60554(7) 0.35416(8) 0.28367(3)
C8_6 C 0.58173(8) 0.40323(8) 0.27389(3)
H1_6 H 0.5831 0.4106 0.2559
C9_6 C 0.55593(8) 0.44149(7) 0.29039(3)
H2_6 H 0.5397 0.4750 0.2837
C10_6 C 0.55394(7) 0.43068(7) 0.31668(3)
C11_6 C 0.57775(6) 0.38161(7) 0.32647(3)
H3_6 H 0.5764 0.3742 0.3444
C12_6 C 0.60355(6) 0.34335(7) 0.30996(3)
H4_6 H 0.6198 0.3098 0.3166
C13_6 C 0.52687(7) 0.46882(7) 0.33303(3)
N1_6 N 0.49958(8) 0.50317(7) 0.34813(3)
C14_6 C 0.61795(8) 0.30218(9) 0.23991(3)
C15_6 C 0.56102(8) 0.30386(9) 0.23332(3)
H5_6 H 0.5337 0.3124 0.2461
C16_6 C 0.5436(3) 0.2932(3) 0.20831(12)
H6_6 H 0.5050 0.2971 0.2035
C17_6 C 0.5859(3) 0.2759(3) 0.18970(11)
C18_6 C 0.6422(3) 0.2795(3) 0.19601(11)
H7_6 H 0.6700 0.2757 0.1829
C19_6 C 0.6590(2) 0.2888(3) 0.22137(11)
H8_6 H 0.6977 0.2860 0.2261
C20_6 C 0.5683(3) 0.2669(3) 0.16403(14)
C21_6 C 0.7099(3) 0.1728(3) 0.24031(14)
C22_6 C 0.6517(3) 0.1708(3) 0.24198(13)
H9_6 H 0.6326 0.1863 0.2564
C23_6 C 0.6207(3) 0.1447(3) 0.22122(12)
H10_6 H 0.5816 0.1367 0.2230
C24_6 C 0.6502(3) 0.1311(3) 0.19773(12)
C25_6 C 0.7041(3) 0.1341(3) 0.19811(13)
H11_6 H 0.7227 0.1222 0.1829
C26_6 C 0.7378(3) 0.1520(3) 0.21714(11)
H12_6 H 0.7778 0.1511 0.2156
C27_6 C 0.6173(3) 0.1138(3) 0.17721(13)
N3_4 N 0.58673(12) 0.09719(12) 0.15947(5)
C28_6 C 0.79894(10) 0.17121(13) 0.26842(4)
C29_6 C 0.80553(13) 0.11303(13) 0.26826(4)
H13_6 H 0.7743 0.0896 0.2641
C30_6 C 0.8562(3) 0.0896(3) 0.27405(12)
H14_6 H 0.8601 0.0498 0.2745
C31_6 C 0.9022(3) 0.1234(3) 0.27923(13)
C32_6 C 0.8986(3) 0.1834(3) 0.28094(15)
H15_6 H 0.9297 0.2062 0.2860
C33_6 C 0.8455(3) 0.2065(3) 0.27454(11)
H16_6 H 0.8408 0.2462 0.2743
C34_6 C 0.9567(3) 0.1037(3) 0.28652(13)
C35_6 C 0.7973(3) 0.2629(3) 0.32873(13)
C36_6 C 0.7885(3) 0.2067(3) 0.33028(11)
H17_6 H 0.7533 0.1928 0.3243
C37_6 C 0.8255(4) 0.1693(4) 0.33955(16)
H18_6 H 0.8179 0.1305 0.3425
C38_6 C 0.8862(3) 0.2009(3) 0.34506(11)
C39_6 C 0.8922(3) 0.2542(3) 0.34439(12)
H19_6 H 0.9279 0.2700 0.3487
C40_6 C 0.8469(3) 0.2913(3) 0.33741(12)
H20_6 H 0.8497 0.3311 0.3385
C41_6 C 0.9315(3) 0.1664(3) 0.35321(11)
C42_6 C 0.7361(2) 0.3602(3) 0.32844(10)
C43_6 C 0.7345(3) 0.3634(3) 0.35360(12)
H21_6 H 0.7465 0.3326 0.3639
C44_6 C 0.7142(3) 0.4150(3) 0.36541(10)
H22_6 H 0.7132 0.4197 0.3836
C45_6 C 0.6960(3) 0.4578(3) 0.34837(12)
C46_6 C 0.7004(3) 0.4504(3) 0.32266(12)
H23_6 H 0.6893 0.4798 0.3113
C47_6 C 0.7217(3) 0.3987(3) 0.31228(12)
H24_6 H 0.7250 0.3931 0.2942
C48_6 C 0.6721(3) 0.5088(3) 0.35769(12)
N6_6 N 0.64615(9) 0.54182(10) 0.36682(4)
C49_5 C 0.30305(10) 0.52763(10) 0.52709(3)
C50_5 C 0.25795(11) 0.53319(11) 0.54586(4)
C51_5 C 0.26091(10) 0.57139(11) 0.52470(4)
C52_5 C 0.34773(10) 0.50052(10) 0.51708(3)
C53_5 C 0.22367(12) 0.50482(12) 0.56357(4)
C54_5 C 0.24565(10) 0.61586(11) 0.51335(4)
C55_6 C 0.37068(7) 0.51721(8) 0.49284(3)
C56_6 C 0.33329(7) 0.52234(8) 0.47232(3)
H25_6 H 0.2940 0.5159 0.4749
C57_6 C 0.35332(8) 0.53683(8) 0.44805(3)
H26_6 H 0.3278 0.5403 0.4340
C58_6 C 0.41073(8) 0.54619(8) 0.44429(3)
C59_6 C 0.44813(7) 0.54106(9) 0.46480(4)
H27_6 H 0.4874 0.5475 0.4622
C60_6 C 0.42810(7) 0.52657(9) 0.48908(3)
H28_5 H 0.4537 0.5231 0.5031
C61_6 C 0.43061(9) 0.55528(9) 0.41856(3)
N7_6 N 0.44863(10) 0.56369(11) 0.39887(4)
C62_5 C 0.37793(9) 0.45521(10) 0.53390(4)
C63_5 C 0.40533(10) 0.41065(10) 0.52182(4)
H29_5 H 0.4054 0.4092 0.5035
C64_5 C 0.4329(2) 0.3678(3) 0.53552(11)
H30_5 H 0.4531 0.3387 0.5270
C65_5 C 0.4288(3) 0.3706(3) 0.56382(11)
C66_5 C 0.3978(3) 0.4138(3) 0.57487(13)
H31_5 H 0.3903 0.4111 0.5928
C67_5 C 0.3764(3) 0.4615(3) 0.56179(12)
H32_5 H 0.3625 0.4941 0.5703
C68_5 C 0.4560(3) 0.3285(3) 0.57723(14)
N8_5 N 0.4796(2) 0.2966(3) 0.59012(11)
C69_5 C 0.2356(3) 0.4484(3) 0.57216(12)
C70_5 C 0.2544(3) 0.4092(3) 0.55418(11)
H33_5 H 0.2608 0.4205 0.5369
C71_5 C 0.2640(3) 0.3518(4) 0.56162(15)
H34_5 H 0.2746 0.3242 0.5493
C72_5 C 0.2578(3) 0.3386(3) 0.58636(13)
C73_5 C 0.2377(3) 0.3740(3) 0.60475(13)
H35_5 H 0.2312 0.3603 0.6217
C74_5 C 0.2259(3) 0.4338(3) 0.59864(12)
H36_5 H 0.2130 0.4602 0.6111
C75_5 C 0.2659(3) 0.2843(3) 0.59470(12)
N9_5 N 0.2749(2) 0.23037(14) 0.59786(8)
C76_5 C 0.17429(13) 0.53949(15) 0.57437(5)
C77_5 C 0.12140(13) 0.51488(17) 0.57742(6)
H37_5 H 0.1171 0.4755 0.5747
C78_5 C 0.0747(3) 0.5470(3) 0.58440(12)
H38_5 H 0.0378 0.5312 0.5845
C79_5 C 0.0844(3) 0.6073(3) 0.59183(11)
C80_5 C 0.1383(3) 0.6335(3) 0.58835(15)
H39_5 H 0.1448 0.6724 0.5916
C81_5 C 0.1813(3) 0.5965(3) 0.57969(13)
H40_5 H 0.2180 0.6119 0.5773
C82_5 C 0.0421(3) 0.6375(3) 0.59774(12)
C83_5 C 0.1852(3) 0.6416(4) 0.51532(14)
C84_5 C 0.1421(3) 0.6035(3) 0.51984(13)
H41_5 H 0.1474 0.5638 0.5198
C85_5 C 0.0871(3) 0.6307(3) 0.52480(12)
H42_5 H 0.0543 0.6076 0.5256
C86_5 C 0.0813(3) 0.6829(4) 0.52800(15)
C87_5 C 0.1265(4) 0.7321(4) 0.52442(17)
H43_5 H 0.1189 0.7713 0.5231
C88_5 C 0.1840(4) 0.7041(4) 0.52346(17)
H44_5 H 0.2176 0.7240 0.5277
C89_5 C 0.0199(5) 0.7096(4) 0.52956(17)
C90_6 C 0.2765(3) 0.6452(3) 0.49260(12)
C91_6 C 0.2459(5) 0.6643(5) 0.4691(2)
H45_6 H 0.2066 0.6584 0.4665
C92_6 C 0.2817(3) 0.6924(3) 0.45081(13)
H46_6 H 0.2642 0.7091 0.4362
C93_6 C 0.3436(3) 0.6972(3) 0.45313(14)
C94_6 C 0.3716(3) 0.6736(3) 0.47581(11)
H47_6 H 0.4116 0.6735 0.4770
C95_6 C 0.3387(3) 0.6512(3) 0.49584(15)
H48_5 H 0.3562 0.6398 0.5115
C96_6 C 0.3747(3) 0.7199(4) 0.43281(16)
N14_4 N 0.41327(12) 0.59719(12) 0.34053(5)
N11_6 N 0.9801(3) 0.7288(4) 0.53144(13)
N11_7 N 0.0199(3) 0.2288(4) 0.96856(13)
N1_7 N 0.50042(8) 0.00317(7) 0.15187(3)
C48_7 C 0.3279(3) 0.0088(3) 0.14231(12)
N6_7 N 0.35385(9) 0.04182(10) 0.13318(4)
C55_7 C 0.62932(7) 0.01721(8) 0.00716(3)
C56_7 C 0.66671(7) 0.02234(8) 0.02768(3)
H25_7 H 0.7060 0.0159 0.0251
C57_7 C 0.64668(8) 0.03683(8) 0.05195(3)
H26_7 H 0.6722 0.0403 0.0660
C58_7 C 0.58927(8) 0.04619(8) 0.05571(3)
C59_7 C 0.55187(7) 0.04106(9) 0.03520(4)
H27_7 H 0.5126 0.0475 0.0378
C60_7 C 0.57190(7) 0.02657(9) 0.01092(3)
C61_7 C 0.56939(9) 0.05528(9) 0.08144(3)
N7_7 N 0.55137(10) 0.06369(11) 0.10113(4)
C90_7 C 0.7235(3) 0.1452(3) 0.00740(12)
C91_7 C 0.7541(5) 0.1643(5) 0.0309(2)
H45_7 H 0.7934 0.1584 0.0335
C92_7 C 0.7183(3) 0.1924(3) 0.04919(13)
H46_7 H 0.7358 0.2091 0.0638
C93_7 C 0.6564(3) 0.1972(3) 0.04687(14)
C94_7 C 0.6284(3) 0.1736(3) 0.02419(11)
H47_7 H 0.5884 0.1735 0.0230
C95_7 C 0.6613(3) 0.1512(3) 0.00416(15)
C96_7 C 0.6253(3) 0.2199(4) 0.06719(16)
C1_7 C 0.3218(3) 0.7860(3) 0.22305(11)
C2_7 C 0.2772(3) 0.7387(3) 0.22524(12)
C3_7 C 0.2741(3) 0.7787(3) 0.20617(13)
C4_7 C 0.3635(3) 0.8127(3) 0.23291(11)
C5_7 C 0.2558(2) 0.6971(3) 0.23803(11)
C6_7 C 0.2497(3) 0.7995(3) 0.18352(10)
C7_7 C 0.39446(7) 0.85416(8) 0.21633(3)
C8_7 C 0.41827(8) 0.90323(8) 0.22611(3)
H1_7 H 0.4169 0.9106 0.2441
C9_7 C 0.44407(8) 0.94149(7) 0.20961(3)
H2_7 H 0.4603 0.9750 0.2163
C10_7 C 0.44606(7) 0.93068(7) 0.18332(3)
C11_7 C 0.42225(6) 0.88161(7) 0.17353(3)
H3_7 H 0.4236 0.8742 0.1556
C12_7 C 0.39645(6) 0.84335(7) 0.19004(3)
H4_7 H 0.3802 0.8098 0.1834
C13_7 C 0.47313(7) 0.96882(7) 0.16697(3)
C14_7 C 0.38205(8) 0.80218(9) 0.26009(3)
C15_7 C 0.43898(8) 0.80386(9) 0.26668(3)
H5_7 H 0.4663 0.8124 0.2539
C16_7 C 0.4564(3) 0.7932(3) 0.29169(12)
H6_7 H 0.4950 0.7971 0.2965
C17_7 C 0.4141(3) 0.7759(3) 0.31030(11)
C18_7 C 0.3578(3) 0.7795(3) 0.30399(11)
H7_7 H 0.3300 0.7757 0.3171
C19_7 C 0.3410(2) 0.7888(3) 0.27863(11)
H8_7 H 0.3023 0.7860 0.2739
C20_7 C 0.4317(3) 0.7669(3) 0.33597(14)
C21_7 C 0.2901(3) 0.6728(3) 0.25969(14)
C22_7 C 0.3483(3) 0.6708(3) 0.25802(13)
H9_7 H 0.3674 0.6863 0.2436
C23_7 C 0.3793(3) 0.6447(3) 0.27878(12)
H10_7 H 0.4184 0.6367 0.2770
C24_7 C 0.3498(3) 0.6311(3) 0.30227(12)
C25_7 C 0.2959(3) 0.6341(3) 0.30189(13)
H11_7 H 0.2773 0.6222 0.3171
C26_7 C 0.2622(3) 0.6520(3) 0.28286(11)
H12_7 H 0.2222 0.6511 0.2844
C27_7 C 0.3827(3) 0.6138(3) 0.32279(13)
C28_7 C 0.20106(10) 0.67121(13) 0.23158(4)
C29_7 C 0.19447(13) 0.61303(13) 0.23174(4)
H13_7 H 0.2257 0.5896 0.2359
C30_7 C 0.1438(3) 0.5896(3) 0.22595(12)
H14_7 H 0.1399 0.5498 0.2255
C31_7 C 0.0978(3) 0.6234(3) 0.22077(13)
C32_7 C 0.1014(3) 0.6834(3) 0.21906(15)
H15_7 H 0.0703 0.7062 0.2140
C33_7 C 0.1545(3) 0.7065(3) 0.22546(11)
H16_7 H 0.1592 0.7462 0.2257
C34_7 C 0.0433(3) 0.6037(3) 0.21348(13)
C35_7 C 0.2027(3) 0.7629(3) 0.17127(13)
C36_7 C 0.2115(3) 0.7067(3) 0.16972(11)
H17_7 H 0.2467 0.6928 0.1757
C37_7 C 0.1745(4) 0.6693(4) 0.16045(16)
H18_7 H 0.1821 0.6305 0.1575
C38_7 C 0.1138(3) 0.7009(3) 0.15494(11)
C39_7 C 0.1078(3) 0.7542(3) 0.15561(12)
H19_7 H 0.0721 0.7700 0.1513
C40_7 C 0.1531(3) 0.7913(3) 0.16259(12)
H20_7 H 0.1503 0.8311 0.1615
C41_7 C 0.0685(3) 0.6664(3) 0.14679(11)
C42_7 C 0.2639(2) 0.8602(3) 0.17156(10)
C43_7 C 0.2655(3) 0.8634(3) 0.14640(12)
H21_7 H 0.2535 0.8326 0.1361
C44_7 C 0.2858(3) 0.9150(3) 0.13459(10)
H22_7 H 0.2868 0.9197 0.1164
C45_7 C 0.3040(3) 0.9578(3) 0.15163(12)
C46_7 C 0.2996(3) 0.9504(3) 0.17734(12)
H23_7 H 0.3107 0.9798 0.1887
C47_7 C 0.2783(3) 0.8987(3) 0.18772(12)
H24_7 H 0.2750 0.8931 0.2058
C62_6 C 0.62207(9) 0.95521(10) 0.96610(4)
C63_6 C 0.59467(10) 0.91065(10) 0.97818(4)
H29_6 H 0.5946 0.9092 0.9965
C64_6 C 0.5671(2) 0.8678(3) 0.96448(11)
H30_6 H 0.5469 0.8387 0.9730
C65_6 C 0.5712(3) 0.8706(3) 0.93618(11)
C66_6 C 0.6022(3) 0.9138(3) 0.92513(13)
H31_6 H 0.6097 0.9111 0.9072
C67_6 C 0.6236(3) 0.9615(3) 0.93821(12)
H32_6 H 0.6375 0.9941 0.9297
C68_6 C 0.5440(3) 0.8285(3) 0.92277(14)
N8_6 N 0.5204(2) 0.7966(3) 0.90988(11)
C69_6 C 0.7644(3) 0.9484(3) 0.92784(12)
C70_6 C 0.7456(3) 0.9092(3) 0.94582(11)
H33_6 H 0.7392 0.9205 0.9631
C71_6 C 0.7360(3) 0.8518(4) 0.93838(15)
H34_6 H 0.7254 0.8242 0.9507
C72_6 C 0.7422(3) 0.8386(3) 0.91364(13)
C73_6 C 0.7623(3) 0.8740(3) 0.89525(13)
H35_6 H 0.7688 0.8603 0.8783
C74_6 C 0.7741(3) 0.9338(3) 0.90136(12)
H36_6 H 0.7870 0.9602 0.8889
C75_6 C 0.7341(3) 0.7843(3) 0.90530(12)
N9_6 N 0.7251(2) 0.73037(14) 0.90214(8)
H37_6 H 0.8829 0.9755 0.9253
N4_7 N 0.9998(3) 0.5787(3) 0.20841(13)
C1_8 C 0.1782(3) 0.2140(3) 0.72305(11)
C2_8 C 0.2228(3) 0.2613(3) 0.72524(12)
C3_8 C 0.2259(3) 0.2213(3) 0.70617(13)
C4_8 C 0.1365(3) 0.1873(3) 0.73291(11)
C5_8 C 0.2442(2) 0.3029(3) 0.73803(11)
C6_8 C 0.2503(3) 0.2005(3) 0.68352(10)
C7_8 C 0.10554(7) 0.14584(8) 0.71633(3)
C8_8 C 0.08173(8) 0.09677(8) 0.72611(3)
H1_8 H 0.0831 0.0894 0.7441
C9_8 C 0.05593(8) 0.05851(7) 0.70961(3)
H2_8 H 0.0397 0.0250 0.7163
C10_8 C 0.05394(7) 0.06932(7) 0.68332(3)
C11_8 C 0.07775(6) 0.11839(7) 0.67353(3)
H3_8 H 0.0764 0.1258 0.6556
C12_8 C 0.10355(6) 0.15665(7) 0.69004(3)
H4_8 H 0.1198 0.1902 0.6834
C13_8 C 0.02687(7) 0.03118(7) 0.66697(3)
C14_8 C 0.11795(8) 0.19782(9) 0.76009(3)
C15_8 C 0.06102(8) 0.19614(9) 0.76668(3)
H5_8 H 0.0337 0.1876 0.7539
C16_8 C 0.0436(3) 0.2068(3) 0.79169(12)
H6_8 H 0.0050 0.2029 0.7965
C17_8 C 0.0859(3) 0.2241(3) 0.81030(11)
C18_8 C 0.1422(3) 0.2205(3) 0.80399(11)
H7_8 H 0.1700 0.2243 0.8171
C19_8 C 0.1590(2) 0.2112(3) 0.77863(11)
H8_8 H 0.1977 0.2140 0.7739
C20_8 C 0.0683(3) 0.2331(3) 0.83597(14)
C21_8 C 0.2099(3) 0.3272(3) 0.75969(14)
C22_8 C 0.1517(3) 0.3292(3) 0.75802(13)
H9_8 H 0.1326 0.3137 0.7436
C23_8 C 0.1207(3) 0.3553(3) 0.77878(12)
H10_8 H 0.0816 0.3633 0.7770
C24_8 C 0.1502(3) 0.3689(3) 0.80227(12)
C25_8 C 0.2041(3) 0.3659(3) 0.80189(13)
H11_8 H 0.2227 0.3778 0.8171
C26_8 C 0.2378(3) 0.3480(3) 0.78286(11)
H12_8 H 0.2778 0.3489 0.7844
C27_8 C 0.1173(3) 0.3862(3) 0.82279(13)
C28_8 C 0.29894(10) 0.32879(13) 0.73158(4)
C29_8 C 0.30553(13) 0.38697(13) 0.73174(4)
H13_8 H 0.2743 0.4104 0.7359
C30_8 C 0.3562(3) 0.4104(3) 0.72595(12)
H14_8 H 0.3601 0.4502 0.7255
C31_8 C 0.4022(3) 0.3766(3) 0.72077(13)
C32_8 C 0.3986(3) 0.3166(3) 0.71906(15)
H15_8 H 0.4297 0.2938 0.7140
C33_8 C 0.3455(3) 0.2935(3) 0.72546(11)
H16_8 H 0.3408 0.2538 0.7257
C34_8 C 0.4567(3) 0.3963(3) 0.71348(13)
N4_8 N 0.5002(3) 0.4213(3) 0.70841(13)
C35_8 C 0.2973(3) 0.2371(3) 0.67127(13)
C36_8 C 0.2885(3) 0.2933(3) 0.66972(11)
H17_8 H 0.2533 0.3072 0.6757
C37_8 C 0.3255(4) 0.3307(4) 0.66045(16)
H18_8 H 0.3179 0.3695 0.6575
C38_8 C 0.3862(3) 0.2991(3) 0.65494(11)
C39_8 C 0.3922(3) 0.2458(3) 0.65561(12)
H19_8 H 0.4279 0.2300 0.6513
C40_8 C 0.3469(3) 0.2087(3) 0.66259(12)
H20_8 H 0.3497 0.1689 0.6615
C41_8 C 0.4315(3) 0.3336(3) 0.64679(11)
C42_8 C 0.2361(2) 0.1398(3) 0.67156(10)
C43_8 C 0.2345(3) 0.1366(3) 0.64640(12)
H21_8 H 0.2465 0.1674 0.6361
C44_8 C 0.2142(3) 0.0850(3) 0.63459(10)
H22_8 H 0.2132 0.0803 0.6164
C45_8 C 0.1960(3) 0.0422(3) 0.65163(12)
C46_8 C 0.2004(3) 0.0496(3) 0.67734(12)
H23_8 H 0.1893 0.0202 0.6887
C47_8 C 0.2217(3) 0.1013(3) 0.68772(12)
H24_8 H 0.2250 0.1069 0.7058
C48_8 C 0.1721(3) 0.9912(3) 0.64231(12)
N6_8 N 0.14615(9) 0.95818(10) 0.63318(4)
N1_8 N 0.99958(8) 0.99683(7) 0.65187(3)
C49_6 C 0.80305(10) 0.97237(10) 0.47291(3)
C50_6 C 0.75795(11) 0.96681(11) 0.45414(4)
C51_6 C 0.76091(10) 0.92861(11) 0.47530(4)
C52_6 C 0.84773(10) 0.99948(10) 0.48292(3)
C53_6 C 0.72367(12) 0.99518(12) 0.43643(4)
C54_6 C 0.74565(10) 0.88414(11) 0.48665(4)
C55_8 C 0.87068(7) 0.98279(8) 0.50716(3)
C56_8 C 0.83329(7) 0.97766(8) 0.52768(3)
H25_8 H 0.7940 0.9841 0.5251
C57_8 C 0.85332(8) 0.96317(8) 0.55195(3)
H26_8 H 0.8278 0.9597 0.5660
C58_8 C 0.91073(8) 0.95381(8) 0.55571(3)
C59_8 C 0.94813(7) 0.95894(9) 0.53520(4)
H27_8 H 0.9874 0.9525 0.5378
C60_8 C 0.92810(7) 0.97343(9) 0.51092(3)
H28_6 H 0.9537 0.9769 0.4969
C61_8 C 0.93061(9) 0.94472(9) 0.58144(3)
N7_8 N 0.94863(10) 0.93631(11) 0.60113(4)
C76_6 C 0.67429(13) 0.96051(15) 0.42563(5)
C77_6 C 0.62140(13) 0.98512(17) 0.42258(6)
C78_6 C 0.5747(3) 0.9530(3) 0.41560(12)
H38_6 H 0.5378 0.9688 0.4155
C79_6 C 0.5844(3) 0.8927(3) 0.40817(11)
C80_6 C 0.6383(3) 0.8665(3) 0.41165(15)
H39_6 H 0.6448 0.8276 0.4084
C81_6 C 0.6813(3) 0.9035(3) 0.42031(13)
H40_6 H 0.7180 0.8881 0.4227
C82_6 C 0.5421(3) 0.8625(3) 0.40226(12)
C83_6 C 0.6852(3) 0.8584(4) 0.48468(14)
C84_6 C 0.6421(3) 0.8965(3) 0.48016(13)
H41_6 H 0.6474 0.9362 0.4802
C85_6 C 0.5871(3) 0.8693(3) 0.47520(12)
H42_6 H 0.5543 0.8924 0.4744
C86_6 C 0.5813(3) 0.8171(4) 0.47200(15)
C87_6 C 0.6265(4) 0.7679(4) 0.47558(17)
H43_6 H 0.6189 0.7287 0.4769
C88_6 C 0.6840(4) 0.7959(4) 0.47654(17)
H44_6 H 0.7176 0.7760 0.4723
C89_6 C 0.5199(5) 0.7904(4) 0.47044(17)
N11_8 N 0.4801(3) 0.7712(4) 0.46856(13)
C90_8 C 0.7765(3) 0.8548(3) 0.50740(12)
C91_8 C 0.7459(5) 0.8357(5) 0.5309(2)
H45_8 H 0.7066 0.8416 0.5335
C92_8 C 0.7817(3) 0.8076(3) 0.54919(13)
H46_8 H 0.7642 0.7909 0.5638
C93_8 C 0.8436(3) 0.8028(3) 0.54687(14)
C94_8 C 0.8716(3) 0.8264(3) 0.52419(11)
H47_8 H 0.9116 0.8265 0.5230
C95_8 C 0.8387(3) 0.8488(3) 0.50416(15)
H48_6 H 0.8562 0.8602 0.4885
C96_8 C 0.8747(3) 0.7801(4) 0.56719(16)
C49_7 C 0.30305(10) 0.97237(10) 0.02709(3)
C50_7 C 0.25795(11) 0.96681(11) 0.04586(4)
C51_7 C 0.26091(10) 0.92861(11) 0.02470(4)
C52_7 C 0.34773(10) 0.99948(10) 0.01708(3)
C53_7 C 0.22367(12) 0.99518(12) 0.06357(4)
C54_7 C 0.24565(10) 0.88414(11) 0.01335(4)
H28_7 H 0.4537 0.9769 0.0031
C76_7 C 0.17429(13) 0.96051(15) 0.07437(5)
C77_7 C 0.12140(13) 0.98512(17) 0.07742(6)
C78_7 C 0.0747(3) 0.9530(3) 0.08440(12)
H38_7 H 0.0378 0.9688 0.0845
C79_7 C 0.0844(3) 0.8927(3) 0.09183(11)
C80_7 C 0.1383(3) 0.8665(3) 0.08835(15)
H39_7 H 0.1448 0.8276 0.0916
C81_7 C 0.1813(3) 0.9035(3) 0.07969(13)
H40_7 H 0.2180 0.8881 0.0773
C82_7 C 0.0421(3) 0.8625(3) 0.09774(12)
C83_7 C 0.1852(3) 0.8584(4) 0.01532(14)
C84_7 C 0.1421(3) 0.8965(3) 0.01984(13)
H41_7 H 0.1474 0.9362 0.0198
C85_7 C 0.0871(3) 0.8693(3) 0.02480(12)
H42_7 H 0.0543 0.8924 0.0256
C86_7 C 0.0813(3) 0.8171(4) 0.02800(15)
C87_7 C 0.1265(4) 0.7679(4) 0.02442(17)
H43_7 H 0.1189 0.7287 0.0231
C88_7 C 0.1840(4) 0.7959(4) 0.02346(17)
H44_7 H 0.2176 0.7760 0.0277
C89_7 C 0.0199(5) 0.7904(4) 0.02956(17)
H48_7 H 0.3562 0.8602 0.0115
C62_7 C 0.12207(9) 0.95521(10) 0.53390(4)
C63_7 C 0.09467(10) 0.91065(10) 0.52182(4)
H29_7 H 0.0946 0.9092 0.5035
C64_7 C 0.0671(2) 0.8678(3) 0.53552(11)
H30_7 H 0.0469 0.8387 0.5270
C65_7 C 0.0712(3) 0.8706(3) 0.56382(11)
C66_7 C 0.1022(3) 0.9138(3) 0.57487(13)
H31_7 H 0.1097 0.9111 0.5928
C67_7 C 0.1236(3) 0.9615(3) 0.56179(12)
H32_7 H 0.1375 0.9941 0.5703
C68_7 C 0.0440(3) 0.8285(3) 0.57723(14)
N8_7 N 0.0204(2) 0.7966(3) 0.59012(11)
C69_7 C 0.2644(3) 0.9484(3) 0.57216(12)
C70_7 C 0.2456(3) 0.9092(3) 0.55418(11)
H33_7 H 0.2392 0.9205 0.5369
C71_7 C 0.2360(3) 0.8518(4) 0.56162(15)
H34_7 H 0.2254 0.8242 0.5493
C72_7 C 0.2422(3) 0.8386(3) 0.58636(13)
C73_7 C 0.2623(3) 0.8740(3) 0.60475(13)
H35_7 H 0.2688 0.8603 0.6217
C74_7 C 0.2741(3) 0.9338(3) 0.59864(12)
H36_7 H 0.2870 0.9602 0.6111
C75_7 C 0.2341(3) 0.7843(3) 0.59470(12)
N9_7 N 0.2251(2) 0.73037(14) 0.59786(8)
H37_7 H 0.3829 0.9755 0.5747
C49_8 C 0.69695(10) 0.02763(10) 0.97291(3)
C50_8 C 0.74205(11) 0.03319(11) 0.95414(4)
C51_8 C 0.73909(10) 0.07139(11) 0.97530(4)
C52_8 C 0.65227(10) 0.00052(10) 0.98292(3)
C53_8 C 0.77633(12) 0.00482(12) 0.93643(4)
C54_8 C 0.75435(10) 0.11586(11) 0.98665(4)
H28_8 H 0.5463 0.0231 0.9969
C76_8 C 0.82571(13) 0.03949(15) 0.92563(5)
C77_8 C 0.87860(13) 0.01488(17) 0.92258(6)
C78_8 C 0.9253(3) 0.0470(3) 0.91560(12)
H38_8 H 0.9622 0.0312 0.9155
C79_8 C 0.9156(3) 0.1073(3) 0.90817(11)
C80_8 C 0.8617(3) 0.1335(3) 0.91165(15)
H39_8 H 0.8552 0.1724 0.9084
C81_8 C 0.8187(3) 0.0965(3) 0.92031(13)
H40_8 H 0.7820 0.1119 0.9227
C82_8 C 0.9579(3) 0.1375(3) 0.90226(12)
C83_8 C 0.8148(3) 0.1416(4) 0.98468(14)
C84_8 C 0.8579(3) 0.1035(3) 0.98016(13)
H41_8 H 0.8526 0.0638 0.9802
C85_8 C 0.9129(3) 0.1307(3) 0.97520(12)
H42_8 H 0.9457 0.1076 0.9744
C86_8 C 0.9187(3) 0.1829(4) 0.97200(15)
C87_8 C 0.8735(4) 0.2321(4) 0.97558(17)
H43_8 H 0.8811 0.2713 0.9769
C88_8 C 0.8160(4) 0.2041(4) 0.97654(17)
H44_8 H 0.7824 0.2240 0.9723
C89_8 C 0.9801(5) 0.2096(4) 0.97044(17)
H48_8 H 0.6438 0.1398 0.9885
C62_8 C 0.87793(9) 0.04479(10) 0.46610(4)
C63_8 C 0.90533(10) 0.08935(10) 0.47818(4)
H29_8 H 0.9054 0.0908 0.4965
C64_8 C 0.9329(2) 0.1322(3) 0.46448(11)
H30_8 H 0.9531 0.1613 0.4730
C65_8 C 0.9288(3) 0.1294(3) 0.43618(11)
C66_8 C 0.8978(3) 0.0862(3) 0.42513(13)
H31_8 H 0.8903 0.0889 0.4072
C67_8 C 0.8764(3) 0.0385(3) 0.43821(12)
H32_8 H 0.8625 0.0059 0.4297
C68_8 C 0.9560(3) 0.1715(3) 0.42277(14)
N8_8 N 0.9796(2) 0.2034(3) 0.40988(11)
C69_8 C 0.7356(3) 0.0516(3) 0.42784(12)
C70_8 C 0.7544(3) 0.0908(3) 0.44582(11)
H33_8 H 0.7608 0.0795 0.4631
C71_8 C 0.7640(3) 0.1482(4) 0.43838(15)
H34_8 H 0.7746 0.1758 0.4507
C72_8 C 0.7578(3) 0.1614(3) 0.41364(13)
C73_8 C 0.7377(3) 0.1260(3) 0.39525(13)
H35_8 H 0.7312 0.1397 0.3783
C74_8 C 0.7259(3) 0.0662(3) 0.40136(12)
H36_8 H 0.7130 0.0398 0.3889
C75_8 C 0.7659(3) 0.2157(3) 0.40530(12)
N9_8 N 0.7749(2) 0.26963(14) 0.40214(8)
H37_8 H 0.6171 0.0245 0.4253
loop_
_geom_bond_atom_site_label_1
_geom_bond_atom_site_label_2
_geom_bond_site_symmetry_1
_geom_bond_site_symmetry_2
C1 C2 1_555 1_555
C2 C3 1_555 1_555
C3 C1 1_555 1_555
C4 C1 1_555 1_555
C5 C2 1_555 1_555
C6 C3 1_555 1_555
C7 C4 1_555 1_555
C8 C7 1_555 1_555
H1 C8 1_555 1_555
C9 C8 1_555 1_555
H2 C9 1_555 1_555
C10 C9 1_555 1_555
C11 C10 1_555 1_555
H3 C11 1_555 1_555
C12 C7 1_555 1_555
H4 C12 1_555 1_555
C13 C10 1_555 1_555
C14 C4 1_555 1_555
C15 C14 1_555 1_555
H5 C15 1_555 1_555
C16 C15 1_555 1_555
H6 C16 1_555 1_555
C17 C16 1_555 1_555
C18 C17 1_555 1_555
H7 C18 1_555 1_555
C19 C14 1_555 1_555
H8 C19 1_555 1_555
C20 C17 1_555 1_555
N2 C20 1_555 1_555
C21 C5 1_555 1_555
C22 C21 1_555 1_555
H9 C22 1_555 1_555
C23 C22 1_555 1_555
H10 C23 1_555 1_555
C24 C23 1_555 1_555
C25 C24 1_555 1_555
H11 C25 1_555 1_555
C26 C21 1_555 1_555
H12 C26 1_555 1_555
C27 C24 1_555 1_555
N3 C27 1_555 1_555
C28 C5 1_555 1_555
C29 C28 1_555 1_555
H13 C29 1_555 1_555
C30 C29 1_555 1_555
H14 C30 1_555 1_555
C31 C30 1_555 1_555
C32 C31 1_555 1_555
H15 C32 1_555 1_555
C33 C28 1_555 1_555
H16 C33 1_555 1_555
C34 C31 1_555 1_555
N4 C34 1_555 1_555
C35 C6 1_555 1_555
C36 C35 1_555 1_555
H17 C36 1_555 1_555
C37 C36 1_555 1_555
H18 C37 1_555 1_555
C38 C37 1_555 1_555
C39 C38 1_555 1_555
H19 C39 1_555 1_555
C40 C35 1_555 1_555
H20 C40 1_555 1_555
C41 C38 1_555 1_555
N5 C41 1_555 1_555
C42 C6 1_555 1_555
C43 C42 1_555 1_555
H21 C43 1_555 1_555
C44 C43 1_555 1_555
H22 C44 1_555 1_555
C45 C44 1_555 1_555
C46 C45 1_555 1_555
H23 C46 1_555 1_555
C47 C42 1_555 1_555
H24 C47 1_555 1_555
C48 C45 1_555 1_555
N6 C48 1_555 1_555
Cu3 N3 1_555 1_555
Cu4 N5 1_555 1_555
Cu7 N2 1_555 1_555
C11 C12 1_555 1_555
C18 C19 1_555 1_555
C25 C26 1_555 1_555
C32 C33 1_555 1_555
C39 C40 1_555 1_555
C46 C47 1_555 1_555
N13 Cu2 1_555 1_555
N16 Cu2 1_555 1_555
N17 Cu2 1_555 1_555
Cu1 N1 1_555 1_555
C56 C55 1_555 1_555
H25 C56 1_555 1_555
C57 C56 1_555 1_555
H26 C57 1_555 1_555
C58 C57 1_555 1_555
C59 C58 1_555 1_555
H27 C59 1_555 1_555
C60 C55 1_555 1_555
C61 C58 1_555 1_555
N7 Cu1 1_555 1_555
C91 C90 1_555 1_555
H45 C91 1_555 1_555
C92 C91 1_555 1_555
H46 C92 1_555 1_555
C93 C92 1_555 1_555
C94 C93 1_555 1_555
H47 C94 1_555 1_555
C95 C90 1_555 1_555
C96 C93 1_555 1_555
N12 C96 1_555 1_555
Cu5 N12 1_555 1_555
N14 Cu1 1_555 1_555
C59 C60 1_555 1_555
C61 N7 1_555 1_555
C94 C95 1_555 1_555
C49 C50 1_555 1_555
C50 C51 1_555 1_555
C51 C49 1_555 1_555
C52 C49 1_555 1_555
C53 C50 1_555 1_555
C54 C51 1_555 1_555
C62 C52 1_555 1_555
C63 C62 1_555 1_555
H29 C63 1_555 1_555
C64 C63 1_555 1_555
H30 C64 1_555 1_555
C65 C64 1_555 1_555
C66 C65 1_555 1_555
H31 C66 1_555 1_555
C67 C62 1_555 1_555
H32 C67 1_555 1_555
C68 C65 1_555 1_555
N8 C68 1_555 1_555
C69 C53 1_555 1_555
C70 C69 1_555 1_555
H33 C70 1_555 1_555
C71 C70 1_555 1_555
H34 C71 1_555 1_555
C72 C71 1_555 1_555
C73 C72 1_555 1_555
H35 C73 1_555 1_555
C74 C69 1_555 1_555
H36 C74 1_555 1_555
C75 C72 1_555 1_555
N9 C75 1_555 1_555
C76 C53 1_555 1_555
C77 C76 1_555 1_555
H37 C77 1_555 1_555
C78 C77 1_555 1_555
H38 C78 1_555 1_555
C79 C78 1_555 1_555
C80 C79 1_555 1_555
H39 C80 1_555 1_555
C81 C76 1_555 1_555
H40 C81 1_555 1_555
C82 C79 1_555 1_555
N10 C82 1_555 1_555
C83 C54 1_555 1_555
C84 C83 1_555 1_555
H41 C84 1_555 1_555
C85 C84 1_555 1_555
H42 C85 1_555 1_555
C86 C85 1_555 1_555
C87 C86 1_555 1_555
H43 C87 1_555 1_555
C88 C83 1_555 1_555
H44 C88 1_555 1_555
C89 C86 1_555 1_555
N11 C89 1_555 1_555
Cu6 N10 1_555 1_555
C66 C67 1_555 1_555
C73 C74 1_555 1_555
C80 C81 1_555 1_555
C87 C88 1_555 1_555
Cu7 N10_2 1_555 1_555
Cu1_2 N1_2 1_555 1_555
C1_2 C2_2 1_555 1_555
Cu2_2 N8_2 1_555 1_555
C2_2 C3_2 1_555 1_555
C3_2 C1_2 1_555 1_555
C4_2 C1_2 1_555 1_555
C5_2 C2_2 1_555 1_555
C6_2 C3_2 1_555 1_555
C7_2 C4_2 1_555 1_555
C8_2 C7_2 1_555 1_555
H1_2 C8_2 1_555 1_555
C9_2 C8_2 1_555 1_555
H2_2 C9_2 1_555 1_555
C10_2 C9_2 1_555 1_555
C11_2 C10_2 1_555 1_555
H3_2 C11_2 1_555 1_555
C12_2 C7_2 1_555 1_555
H4_2 C12_2 1_555 1_555
C13_2 C10_2 1_555 1_555
N1_2 C13_2 1_555 1_555
C14_2 C4_2 1_555 1_555
C15_2 C14_2 1_555 1_555
H5_2 C15_2 1_555 1_555
C16_2 C15_2 1_555 1_555
H6_2 C16_2 1_555 1_555
C17_2 C16_2 1_555 1_555
C18_2 C17_2 1_555 1_555
H7_2 C18_2 1_555 1_555
C19_2 C14_2 1_555 1_555
H8_2 C19_2 1_555 1_555
C20_2 C17_2 1_555 1_555
N2_2 C20_2 1_555 1_555
C21_2 C5_2 1_555 1_555
C22_2 C21_2 1_555 1_555
H9_2 C22_2 1_555 1_555
C23_2 C22_2 1_555 1_555
H10_2 C23_2 1_555 1_555
C24_2 C23_2 1_555 1_555
C25_2 C24_2 1_555 1_555
H11_2 C25_2 1_555 1_555
C26_2 C21_2 1_555 1_555
H12_2 C26_2 1_555 1_555
C27_2 C24_2 1_555 1_555
N3_2 C27_2 1_555 1_555
C28_2 C5_2 1_555 1_555
C29_2 C28_2 1_555 1_555
H13_2 C29_2 1_555 1_555
C30_2 C29_2 1_555 1_555
H14_2 C30_2 1_555 1_555
C31_2 C30_2 1_555 1_555
C32_2 C31_2 1_555 1_555
H15_2 C32_2 1_555 1_555
C33_2 C28_2 1_555 1_555
H16_2 C33_2 1_555 1_555
C34_2 C31_2 1_555 1_555
C35_2 C6_2 1_555 1_555
C36_2 C35_2 1_555 1_555
H17_2 C36_2 1_555 1_555
C37_2 C36_2 1_555 1_555
H18_2 C37_2 1_555 1_555
C38_2 C37_2 1_555 1_555
C39_2 C38_2 1_555 1_555
H19_2 C39_2 1_555 1_555
C40_2 C35_2 1_555 1_555
H20_2 C40_2 1_555 1_555
C41_2 C38_2 1_555 1_555
N5_2 C41_2 1_555 1_555
C42_2 C6_2 1_555 1_555
C43_2 C42_2 1_555 1_555
H21_2 C43_2 1_555 1_555
C44_2 C43_2 1_555 1_555
H22_2 C44_2 1_555 1_555
C45_2 C44_2 1_555 1_555
C46_2 C45_2 1_555 1_555
H23_2 C46_2 1_555 1_555
C47_2 C42_2 1_555 1_555
H24_2 C47_2 1_555 1_555
C48_2 C45_2 1_555 1_555
N6_2 C48_2 1_555 1_555
C49_2 C50_2 1_555 1_555
C50_2 C51_2 1_555 1_555
C51_2 C49_2 1_555 1_555
C52_2 C49_2 1_555 1_555
C53_2 C50_2 1_555 1_555
C54_2 C51_2 1_555 1_555
C55_2 C52_2 1_555 1_555
C56_2 C55_2 1_555 1_555
H25_2 C56_2 1_555 1_555
C57_2 C56_2 1_555 1_555
H26_2 C57_2 1_555 1_555
C58_2 C57_2 1_555 1_555
C59_2 C58_2 1_555 1_555
H27_2 C59_2 1_555 1_555
C60_2 C55_2 1_555 1_555
H28_2 C60_2 1_555 1_555
C61_2 C58_2 1_555 1_555
N7_2 Cu1_2 1_555 1_555
C62_2 C52_2 1_555 1_555
C63_2 C62_2 1_555 1_555
H29_2 C63_2 1_555 1_555
C64_2 C63_2 1_555 1_555
H30_2 C64_2 1_555 1_555
C65_2 C64_2 1_555 1_555
C66_2 C65_2 1_555 1_555
H31_2 C66_2 1_555 1_555
C67_2 C62_2 1_555 1_555
H32_2 C67_2 1_555 1_555
C68_2 C65_2 1_555 1_555
N8_2 C68_2 1_555 1_555
C69_2 C53_2 1_555 1_555
C70_2 C69_2 1_555 1_555
H33_2 C70_2 1_555 1_555
C71_2 C70_2 1_555 1_555
H34_2 C71_2 1_555 1_555
C72_2 C71_2 1_555 1_555
C73_2 C72_2 1_555 1_555
H35_2 C73_2 1_555 1_555
C74_2 C69_2 1_555 1_555
H36_2 C74_2 1_555 1_555
C75_2 C72_2 1_555 1_555
N9_2 C75_2 1_555 1_555
C76_2 C53_2 1_555 1_555
C77_2 C76_2 1_555 1_555
H37_2 C77_2 1_555 1_555
C78_2 C77_2 1_555 1_555
H38_2 C78_2 1_555 1_555
C79_2 C78_2 1_555 1_555
C80_2 C79_2 1_555 1_555
H39_2 C80_2 1_555 1_555
C81_2 C76_2 1_555 1_555
H40_2 C81_2 1_555 1_555
C82_2 C79_2 1_555 1_555
C83_2 C54_2 1_555 1_555
C84_2 C83_2 1_555 1_555
H41_2 C84_2 1_555 1_555
C85_2 C84_2 1_555 1_555
H42_2 C85_2 1_555 1_555
C86_2 C85_2 1_555 1_555
C87_2 C86_2 1_555 1_555
H43_2 C87_2 1_555 1_555
C88_2 C83_2 1_555 1_555
H44_2 C88_2 1_555 1_555
C89_2 C86_2 1_555 1_555
C90_2 C54_2 1_555 1_555
C91_2 C90_2 1_555 1_555
H45_2 C91_2 1_555 1_555
C92_2 C91_2 1_555 1_555
H46_2 C92_2 1_555 1_555
C93_2 C92_2 1_555 1_555
C94_2 C93_2 1_555 1_555
H47_2 C94_2 1_555 1_555
C95_2 C90_2 1_555 1_555
H48_2 C95_2 1_555 1_555
C96_2 C93_2 1_555 1_555
N12_2 C96_2 1_555 1_555
Cu3_2 N3_2 1_555 1_555
Cu5_2 N12_2 1_555 1_555
Cu6 N2_2 1_555 1_555
N13_2 Cu2_2 1_555 1_555
N14_2 Cu1_2 1_555 1_555
N15_2 Cu1_2 1_555 1_555
N16_2 Cu2_2 1_555 1_555
N17_2 Cu2_2 1_555 1_555
C11_2 C12_2 1_555 1_555
C18_2 C19_2 1_555 1_555
C25_2 C26_2 1_555 1_555
C32_2 C33_2 1_555 1_555
C39_2 C40_2 1_555 1_555
C46_2 C47_2 1_555 1_555
C59_2 C60_2 1_555 1_555
C61_2 N7_2 1_555 1_555
C66_2 C67_2 1_555 1_555
C73_2 C74_2 1_555 1_555
C80_2 C81_2 1_555 1_555
C87_2 C88_2 1_555 1_555
C94_2 C95_2 1_555 1_555
Cu2_3 N8_3 1_555 1_555
C63_3 C62_3 1_555 1_555
H29_3 C63_3 1_555 1_555
C64_3 C63_3 1_555 1_555
H30_3 C64_3 1_555 1_555
C65_3 C64_3 1_555 1_555
C66_3 C65_3 1_555 1_555
H31_3 C66_3 1_555 1_555
C67_3 C62_3 1_555 1_555
H32_3 C67_3 1_555 1_555
C68_3 C65_3 1_555 1_555
N8_3 C68_3 1_555 1_555
C70_3 C69_3 1_555 1_555
H33_3 C70_3 1_555 1_555
C71_3 C70_3 1_555 1_555
H34_3 C71_3 1_555 1_555
C72_3 C71_3 1_555 1_555
C73_3 C72_3 1_555 1_555
H35_3 C73_3 1_555 1_555
C74_3 C69_3 1_555 1_555
H36_3 C74_3 1_555 1_555
C75_3 C72_3 1_555 1_555
N9_3 C75_3 1_555 1_555
N13_3 Cu2_3 1_555 1_555
N16_3 Cu2_3 1_555 1_555
N17_3 Cu2_3 1_555 1_555
C66_3 C67_3 1_555 1_555
C73_3 C74_3 1_555 1_555
C1_3 C2_3 1_555 1_555
C2_3 C3_3 1_555 1_555
C3_3 C1_3 1_555 1_555
C4_3 C1_3 1_555 1_555
C5_3 C2_3 1_555 1_555
C6_3 C3_3 1_555 1_555
C7_3 C4_3 1_555 1_555
C8_3 C7_3 1_555 1_555
H1_3 C8_3 1_555 1_555
C9_3 C8_3 1_555 1_555
H2_3 C9_3 1_555 1_555
C10_3 C9_3 1_555 1_555
C11_3 C10_3 1_555 1_555
H3_3 C11_3 1_555 1_555
C12_3 C7_3 1_555 1_555
H4_3 C12_3 1_555 1_555
C13_3 C10_3 1_555 1_555
C14_3 C4_3 1_555 1_555
C15_3 C14_3 1_555 1_555
H5_3 C15_3 1_555 1_555
C16_3 C15_3 1_555 1_555
H6_3 C16_3 1_555 1_555
C17_3 C16_3 1_555 1_555
C18_3 C17_3 1_555 1_555
H7_3 C18_3 1_555 1_555
C19_3 C14_3 1_555 1_555
H8_3 C19_3 1_555 1_555
C20_3 C17_3 1_555 1_555
N2_3 C20_3 1_555 1_555
C21_3 C5_3 1_555 1_555
C22_3 C21_3 1_555 1_555
H9_3 C22_3 1_555 1_555
C23_3 C22_3 1_555 1_555
H10_3 C23_3 1_555 1_555
C24_3 C23_3 1_555 1_555
C25_3 C24_3 1_555 1_555
H11_3 C25_3 1_555 1_555
C26_3 C21_3 1_555 1_555
H12_3 C26_3 1_555 1_555
C27_3 C24_3 1_555 1_555
N14_2 C27_3 1_555 1_555
C28_3 C5_3 1_555 1_555
C29_3 C28_3 1_555 1_555
H13_3 C29_3 1_555 1_555
C30_3 C29_3 1_555 1_555
H14_3 C30_3 1_555 1_555
C31_3 C30_3 1_555 1_555
C32_3 C31_3 1_555 1_555
H15_3 C32_3 1_555 1_555
C33_3 C28_3 1_555 1_555
H16_3 C33_3 1_555 1_555
C34_3 C31_3 1_555 1_555
C35_3 C6_3 1_555 1_555
C36_3 C35_3 1_555 1_555
H17_3 C36_3 1_555 1_555
C37_3 C36_3 1_555 1_555
H18_3 C37_3 1_555 1_555
C38_3 C37_3 1_555 1_555
C39_3 C38_3 1_555 1_555
H19_3 C39_3 1_555 1_555
C40_3 C35_3 1_555 1_555
H20_3 C40_3 1_555 1_555
C41_3 C38_3 1_555 1_555
N5_3 C41_3 1_555 1_555
C42_3 C6_3 1_555 1_555
C43_3 C42_3 1_555 1_555
H21_3 C43_3 1_555 1_555
C44_3 C43_3 1_555 1_555
H22_3 C44_3 1_555 1_555
C45_3 C44_3 1_555 1_555
C46_3 C45_3 1_555 1_555
H23_3 C46_3 1_555 1_555
C47_3 C42_3 1_555 1_555
H24_3 C47_3 1_555 1_555
Cu5_2 N2_3 1_555 1_555
C11_3 C12_3 1_555 1_555
C18_3 C19_3 1_555 1_555
C25_3 C26_3 1_555 1_555
C32_3 C33_3 1_555 1_555
C39_3 C40_3 1_555 1_555
C46_3 C47_3 1_555 1_555
Cu3_2 N1_3 1_555 1_555
N6_3 C48_3 1_555 1_555
C56_3 C55_3 1_555 1_555
H25_3 C56_3 1_555 1_555
C57_3 C56_3 1_555 1_555
H26_3 C57_3 1_555 1_555
C58_3 C57_3 1_555 1_555
C59_3 C58_3 1_555 1_555
H27_3 C59_3 1_555 1_555
C60_3 C55_3 1_555 1_555
C61_3 C58_3 1_555 1_555
N7_3 Cu3_2 1_555 1_555
C91_3 C90_3 1_555 1_555
H45_3 C91_3 1_555 1_555
C92_3 C91_3 1_555 1_555
H46_3 C92_3 1_555 1_555
C93_3 C92_3 1_555 1_555
C94_3 C93_3 1_555 1_555
H47_3 C94_3 1_555 1_555
C95_3 C90_3 1_555 1_555
C96_3 C93_3 1_555 1_555
N12_3 C96_3 1_555 1_555
Cu6 N12_3 1_555 1_555
N15_3 Cu3_2 1_555 1_555
C59_3 C60_3 1_555 1_555
C61_3 N7_3 1_555 1_555
C94_3 C95_3 1_555 1_555
Cu5 N10_3 1_555 1_555
Cu3 N1_4 1_555 1_555
C49_3 C50_3 1_555 1_555
C50_3 C51_3 1_555 1_555
C51_3 C49_3 1_555 1_555
C52_3 C49_3 1_555 1_555
C53_3 C50_3 1_555 1_555
C54_3 C51_3 1_555 1_555
C55_4 C52_3 1_555 1_555
C56_4 C55_4 1_555 1_555
H25_4 C56_4 1_555 1_555
C57_4 C56_4 1_555 1_555
H26_4 C57_4 1_555 1_555
C58_4 C57_4 1_555 1_555
C59_4 C58_4 1_555 1_555
H27_4 C59_4 1_555 1_555
C60_4 C55_4 1_555 1_555
H28_3 C60_4 1_555 1_555
C61_4 C58_4 1_555 1_555
N7_4 Cu3 1_555 1_555
C76_3 C53_3 1_555 1_555
C77_3 C76_3 1_555 1_555
C78_3 C77_3 1_555 1_555
H38_3 C78_3 1_555 1_555
C79_3 C78_3 1_555 1_555
C80_3 C79_3 1_555 1_555
H39_3 C80_3 1_555 1_555
C81_3 C76_3 1_555 1_555
H40_3 C81_3 1_555 1_555
C82_3 C79_3 1_555 1_555
N10_4 C82_3 1_555 1_555
C83_3 C54_3 1_555 1_555
C84_3 C83_3 1_555 1_555
H41_3 C84_3 1_555 1_555
C85_3 C84_3 1_555 1_555
H42_3 C85_3 1_555 1_555
C86_3 C85_3 1_555 1_555
C87_3 C86_3 1_555 1_555
H43_3 C87_3 1_555 1_555
C88_3 C83_3 1_555 1_555
H44_3 C88_3 1_555 1_555
C89_3 C86_3 1_555 1_555
N11_4 C89_3 1_555 1_555
C90_4 C54_3 1_555 1_555
C91_4 C90_4 1_555 1_555
H45_4 C91_4 1_555 1_555
C92_4 C91_4 1_555 1_555
H46_4 C92_4 1_555 1_555
C93_4 C92_4 1_555 1_555
C94_4 C93_4 1_555 1_555
H47_4 C94_4 1_555 1_555
C95_4 C90_4 1_555 1_555
H48_3 C95_4 1_555 1_555
C96_4 C93_4 1_555 1_555
N12_4 C96_4 1_555 1_555
Cu7 N12_4 1_555 1_555
Cu5_2 N10_4 1_555 1_555
C59_4 C60_4 1_555 1_555
C61_4 N7_4 1_555 1_555
C80_3 C81_3 1_555 1_555
C87_3 C88_3 1_555 1_555
C94_4 C95_4 1_555 1_555
N6_4 C48_4 1_555 1_555
C1_4 C2_4 1_555 1_555
C2_4 C3_4 1_555 1_555
C3_4 C1_4 1_555 1_555
C4_4 C1_4 1_555 1_555
C5_4 C2_4 1_555 1_555
C6_4 C3_4 1_555 1_555
C7_4 C4_4 1_555 1_555
C8_4 C7_4 1_555 1_555
H1_4 C8_4 1_555 1_555
C9_4 C8_4 1_555 1_555
H2_4 C9_4 1_555 1_555
C10_4 C9_4 1_555 1_555
C11_4 C10_4 1_555 1_555
H3_4 C11_4 1_555 1_555
C12_4 C7_4 1_555 1_555
H4_4 C12_4 1_555 1_555
C13_4 C10_4 1_555 1_555
C14_4 C4_4 1_555 1_555
C15_4 C14_4 1_555 1_555
H5_4 C15_4 1_555 1_555
C16_4 C15_4 1_555 1_555
H6_4 C16_4 1_555 1_555
C17_4 C16_4 1_555 1_555
C18_4 C17_4 1_555 1_555
H7_4 C18_4 1_555 1_555
C19_4 C14_4 1_555 1_555
H8_4 C19_4 1_555 1_555
C20_4 C17_4 1_555 1_555
N2_4 C20_4 1_555 1_555
C21_4 C5_4 1_555 1_555
C22_4 C21_4 1_555 1_555
H9_4 C22_4 1_555 1_555
C23_4 C22_4 1_555 1_555
H10_4 C23_4 1_555 1_555
C24_4 C23_4 1_555 1_555
C25_4 C24_4 1_555 1_555
H11_4 C25_4 1_555 1_555
C26_4 C21_4 1_555 1_555
H12_4 C26_4 1_555 1_555
C27_4 C24_4 1_555 1_555
N14 C27_4 1_555 1_555
C28_4 C5_4 1_555 1_555
C29_4 C28_4 1_555 1_555
H13_4 C29_4 1_555 1_555
C30_4 C29_4 1_555 1_555
H14_4 C30_4 1_555 1_555
C31_4 C30_4 1_555 1_555
C32_4 C31_4 1_555 1_555
H15_4 C32_4 1_555 1_555
C33_4 C28_4 1_555 1_555
H16_4 C33_4 1_555 1_555
C34_4 C31_4 1_555 1_555
N4_4 C34_4 1_555 1_555
C35_4 C6_4 1_555 1_555
C36_4 C35_4 1_555 1_555
H17_4 C36_4 1_555 1_555
C37_4 C36_4 1_555 1_555
H18_4 C37_4 1_555 1_555
C38_4 C37_4 1_555 1_555
C39_4 C38_4 1_555 1_555
H19_4 C39_4 1_555 1_555
C40_4 C35_4 1_555 1_555
H20_4 C40_4 1_555 1_555
C41_4 C38_4 1_555 1_555
N5_4 C41_4 1_555 1_555
C42_4 C6_4 1_555 1_555
C43_4 C42_4 1_555 1_555
H21_4 C43_4 1_555 1_555
C44_4 C43_4 1_555 1_555
H22_4 C44_4 1_555 1_555
C45_4 C44_4 1_555 1_555
C46_4 C45_4 1_555 1_555
H23_4 C46_4 1_555 1_555
C47_4 C42_4 1_555 1_555
H24_4 C47_4 1_555 1_555
Cu4_4 N5_4 1_555 1_555
Cu5 N2_4 1_555 1_555
N13_4 Cu2_4 1_555 1_555
N16_4 Cu2_4 1_555 1_555
N17_4 Cu2_4 1_555 1_555
C11_4 C12_4 1_555 1_555
C18_4 C19_4 1_555 1_555
C25_4 C26_4 1_555 1_555
C32_4 C33_4 1_555 1_555
C39_4 C40_4 1_555 1_555
C46_4 C47_4 1_555 1_555
C49_4 C50_4 1_555 1_555
C50_4 C51_4 1_555 1_555
C51_4 C49_4 1_555 1_555
C52_4 C49_4 1_555 1_555
C53_4 C50_4 1_555 1_555
C54_4 C51_4 1_555 1_555
C62_4 C52_4 1_555 1_555
C63_4 C62_4 1_555 1_555
H29_4 C63_4 1_555 1_555
C64_4 C63_4 1_555 1_555
H30_4 C64_4 1_555 1_555
C65_4 C64_4 1_555 1_555
C66_4 C65_4 1_555 1_555
H31_4 C66_4 1_555 1_555
C67_4 C62_4 1_555 1_555
H32_4 C67_4 1_555 1_555
C68_4 C65_4 1_555 1_555
N8_4 C68_4 1_555 1_555
C69_4 C53_4 1_555 1_555
C70_4 C69_4 1_555 1_555
H33_4 C70_4 1_555 1_555
C71_4 C70_4 1_555 1_555
H34_4 C71_4 1_555 1_555
C72_4 C71_4 1_555 1_555
C73_4 C72_4 1_555 1_555
H35_4 C73_4 1_555 1_555
C74_4 C69_4 1_555 1_555
H36_4 C74_4 1_555 1_555
C75_4 C72_4 1_555 1_555
N9_4 C75_4 1_555 1_555
C76_4 C53_4 1_555 1_555
C77_4 C76_4 1_555 1_555
H37_4 C77_4 1_555 1_555
C78_4 C77_4 1_555 1_555
H38_4 C78_4 1_555 1_555
C79_4 C78_4 1_555 1_555
C80_4 C79_4 1_555 1_555
H39_4 C80_4 1_555 1_555
C81_4 C76_4 1_555 1_555
H40_4 C81_4 1_555 1_555
C82_4 C79_4 1_555 1_555
N16_3 C82_4 1_555 1_555
C83_4 C54_4 1_555 1_555
C84_4 C83_4 1_555 1_555
H41_4 C84_4 1_555 1_555
C85_4 C84_4 1_555 1_555
H42_4 C85_4 1_555 1_555
C86_4 C85_4 1_555 1_555
C87_4 C86_4 1_555 1_555
H43_4 C87_4 1_555 1_555
C88_4 C83_4 1_555 1_555
H44_4 C88_4 1_555 1_555
C89_4 C86_4 1_555 1_555
N11_5 C89_4 1_555 1_555
C66_4 C67_4 1_555 1_555
C73_4 C74_4 1_555 1_555
C80_4 C81_4 1_555 1_555
C87_4 C88_4 1_555 1_555
Cu4_3 N1_5 1_555 1_555
C56_5 C55_5 1_555 1_555
H25_5 C56_5 1_555 1_555
C57_5 C56_5 1_555 1_555
H26_5 C57_5 1_555 1_555
C58_5 C57_5 1_555 1_555
C59_5 C58_5 1_555 1_555
H27_5 C59_5 1_555 1_555
C60_5 C55_5 1_555 1_555
C61_5 C58_5 1_555 1_555
N7_5 Cu4_3 1_555 1_555
C91_5 C90_5 1_555 1_555
H45_5 C91_5 1_555 1_555
C92_5 C91_5 1_555 1_555
H46_5 C92_5 1_555 1_555
C93_5 C92_5 1_555 1_555
C94_5 C93_5 1_555 1_555
H47_5 C94_5 1_555 1_555
C95_5 C90_5 1_555 1_555
C96_5 C93_5 1_555 1_555
N17 C96_5 1_555 1_555
N14_3 Cu4_3 1_555 1_555
C59_5 C60_5 1_555 1_555
C61_5 N7_5 1_555 1_555
C94_5 C95_5 1_555 1_555
C1_5 C2_5 1_555 1_555
C2_5 C3_5 1_555 1_555
C3_5 C1_5 1_555 1_555
C4_5 C1_5 1_555 1_555
C5_5 C2_5 1_555 1_555
C6_5 C3_5 1_555 1_555
C7_5 C4_5 1_555 1_555
C8_5 C7_5 1_555 1_555
H1_5 C8_5 1_555 1_555
C9_5 C8_5 1_555 1_555
H2_5 C9_5 1_555 1_555
C10_5 C9_5 1_555 1_555
C11_5 C10_5 1_555 1_555
H3_5 C11_5 1_555 1_555
C12_5 C7_5 1_555 1_555
H4_5 C12_5 1_555 1_555
C13_5 C10_5 1_555 1_555
C14_5 C4_5 1_555 1_555
C15_5 C14_5 1_555 1_555
H5_5 C15_5 1_555 1_555
C16_5 C15_5 1_555 1_555
H6_5 C16_5 1_555 1_555
C17_5 C16_5 1_555 1_555
C18_5 C17_5 1_555 1_555
H7_5 C18_5 1_555 1_555
C19_5 C14_5 1_555 1_555
H8_5 C19_5 1_555 1_555
C20_5 C17_5 1_555 1_555
N13_4 C20_5 1_555 1_555
C21_5 C5_5 1_555 1_555
C22_5 C21_5 1_555 1_555
H9_5 C22_5 1_555 1_555
C23_5 C22_5 1_555 1_555
H10_5 C23_5 1_555 1_555
C24_5 C23_5 1_555 1_555
C25_5 C24_5 1_555 1_555
H11_5 C25_5 1_555 1_555
C26_5 C21_5 1_555 1_555
H12_5 C26_5 1_555 1_555
C27_5 C24_5 1_555 1_555
N3_3 C27_5 1_555 1_555
C28_5 C5_5 1_555 1_555
C29_5 C28_5 1_555 1_555
H13_5 C29_5 1_555 1_555
C30_5 C29_5 1_555 1_555
H14_5 C30_5 1_555 1_555
C31_5 C30_5 1_555 1_555
C32_5 C31_5 1_555 1_555
H15_5 C32_5 1_555 1_555
C33_5 C28_5 1_555 1_555
H16_5 C33_5 1_555 1_555
C34_5 C31_5 1_555 1_555
N4_5 C34_5 1_555 1_555
C35_5 C6_5 1_555 1_555
C36_5 C35_5 1_555 1_555
H17_5 C36_5 1_555 1_555
C37_5 C36_5 1_555 1_555
H18_5 C37_5 1_555 1_555
C38_5 C37_5 1_555 1_555
C39_5 C38_5 1_555 1_555
H19_5 C39_5 1_555 1_555
C40_5 C35_5 1_555 1_555
H20_5 C40_5 1_555 1_555
C41_5 C38_5 1_555 1_555
N15_3 C41_5 1_555 1_555
C42_5 C6_5 1_555 1_555
C43_5 C42_5 1_555 1_555
H21_5 C43_5 1_555 1_555
C44_5 C43_5 1_555 1_555
H22_5 C44_5 1_555 1_555
C45_5 C44_5 1_555 1_555
C46_5 C45_5 1_555 1_555
H23_5 C46_5 1_555 1_555
C47_5 C42_5 1_555 1_555
H24_5 C47_5 1_555 1_555
C48_5 C45_5 1_555 1_555
N6_5 C48_5 1_555 1_555
Cu4_2 N3_3 1_555 1_555
C11_5 C12_5 1_555 1_555
C18_5 C19_5 1_555 1_555
C25_5 C26_5 1_555 1_555
C32_5 C33_5 1_555 1_555
C39_5 C40_5 1_555 1_555
C46_5 C47_5 1_555 1_555
Cu4_4 N1_6 1_555 1_555
C1_6 C2_6 1_555 1_555
Cu5_2 N8_5 1_555 1_555
C2_6 C3_6 1_555 1_555
C3_6 C1_6 1_555 1_555
C4_6 C1_6 1_555 1_555
C5_6 C2_6 1_555 1_555
C6_6 C3_6 1_555 1_555
C7_6 C4_6 1_555 1_555
C8_6 C7_6 1_555 1_555
H1_6 C8_6 1_555 1_555
C9_6 C8_6 1_555 1_555
H2_6 C9_6 1_555 1_555
C10_6 C9_6 1_555 1_555
C11_6 C10_6 1_555 1_555
H3_6 C11_6 1_555 1_555
C12_6 C7_6 1_555 1_555
H4_6 C12_6 1_555 1_555
C13_6 C10_6 1_555 1_555
N1_6 C13_6 1_555 1_555
C14_6 C4_6 1_555 1_555
C15_6 C14_6 1_555 1_555
H5_6 C15_6 1_555 1_555
C16_6 C15_6 1_555 1_555
H6_6 C16_6 1_555 1_555
C17_6 C16_6 1_555 1_555
C18_6 C17_6 1_555 1_555
H7_6 C18_6 1_555 1_555
C19_6 C14_6 1_555 1_555
H8_6 C19_6 1_555 1_555
C20_6 C17_6 1_555 1_555
N13_3 C20_6 1_555 1_555
C21_6 C5_6 1_555 1_555
C22_6 C21_6 1_555 1_555
H9_6 C22_6 1_555 1_555
C23_6 C22_6 1_555 1_555
H10_6 C23_6 1_555 1_555
C24_6 C23_6 1_555 1_555
C25_6 C24_6 1_555 1_555
H11_6 C25_6 1_555 1_555
C26_6 C21_6 1_555 1_555
H12_6 C26_6 1_555 1_555
C27_6 C24_6 1_555 1_555
N3_4 C27_6 1_555 1_555
C28_6 C5_6 1_555 1_555
C29_6 C28_6 1_555 1_555
H13_6 C29_6 1_555 1_555
C30_6 C29_6 1_555 1_555
H14_6 C30_6 1_555 1_555
C31_6 C30_6 1_555 1_555
C32_6 C31_6 1_555 1_555
H15_6 C32_6 1_555 1_555
C33_6 C28_6 1_555 1_555
H16_6 C33_6 1_555 1_555
C34_6 C31_6 1_555 1_555
C35_6 C6_6 1_555 1_555
C36_6 C35_6 1_555 1_555
H17_6 C36_6 1_555 1_555
C37_6 C36_6 1_555 1_555
H18_6 C37_6 1_555 1_555
C38_6 C37_6 1_555 1_555
C39_6 C38_6 1_555 1_555
H19_6 C39_6 1_555 1_555
C40_6 C35_6 1_555 1_555
H20_6 C40_6 1_555 1_555
C41_6 C38_6 1_555 1_555
N15_4 C41_6 1_555 1_555
C42_6 C6_6 1_555 1_555
C43_6 C42_6 1_555 1_555
H21_6 C43_6 1_555 1_555
C44_6 C43_6 1_555 1_555
H22_6 C44_6 1_555 1_555
C45_6 C44_6 1_555 1_555
C46_6 C45_6 1_555 1_555
H23_6 C46_6 1_555 1_555
C47_6 C42_6 1_555 1_555
H24_6 C47_6 1_555 1_555
C48_6 C45_6 1_555 1_555
N6_6 C48_6 1_555 1_555
C49_5 C50_5 1_555 1_555
C50_5 C51_5 1_555 1_555
C51_5 C49_5 1_555 1_555
C52_5 C49_5 1_555 1_555
C53_5 C50_5 1_555 1_555
C54_5 C51_5 1_555 1_555
C55_6 C52_5 1_555 1_555
C56_6 C55_6 1_555 1_555
H25_6 C56_6 1_555 1_555
C57_6 C56_6 1_555 1_555
H26_6 C57_6 1_555 1_555
C58_6 C57_6 1_555 1_555
C59_6 C58_6 1_555 1_555
H27_6 C59_6 1_555 1_555
C60_6 C55_6 1_555 1_555
H28_5 C60_6 1_555 1_555
C61_6 C58_6 1_555 1_555
N7_6 Cu4_4 1_555 1_555
C62_5 C52_5 1_555 1_555
C63_5 C62_5 1_555 1_555
H29_5 C63_5 1_555 1_555
C64_5 C63_5 1_555 1_555
H30_5 C64_5 1_555 1_555
C65_5 C64_5 1_555 1_555
C66_5 C65_5 1_555 1_555
H31_5 C66_5 1_555 1_555
C67_5 C62_5 1_555 1_555
H32_5 C67_5 1_555 1_555
C68_5 C65_5 1_555 1_555
N8_5 C68_5 1_555 1_555
C69_5 C53_5 1_555 1_555
C70_5 C69_5 1_555 1_555
H33_5 C70_5 1_555 1_555
C71_5 C70_5 1_555 1_555
H34_5 C71_5 1_555 1_555
C72_5 C71_5 1_555 1_555
C73_5 C72_5 1_555 1_555
H35_5 C73_5 1_555 1_555
C74_5 C69_5 1_555 1_555
H36_5 C74_5 1_555 1_555
C75_5 C72_5 1_555 1_555
N9_5 C75_5 1_555 1_555
C76_5 C53_5 1_555 1_555
C77_5 C76_5 1_555 1_555
H37_5 C77_5 1_555 1_555
C78_5 C77_5 1_555 1_555
H38_5 C78_5 1_555 1_555
C79_5 C78_5 1_555 1_555
C80_5 C79_5 1_555 1_555
H39_5 C80_5 1_555 1_555
C81_5 C76_5 1_555 1_555
H40_5 C81_5 1_555 1_555
C82_5 C79_5 1_555 1_555
C83_5 C54_5 1_555 1_555
C84_5 C83_5 1_555 1_555
H41_5 C84_5 1_555 1_555
C85_5 C84_5 1_555 1_555
H42_5 C85_5 1_555 1_555
C86_5 C85_5 1_555 1_555
C87_5 C86_5 1_555 1_555
H43_5 C87_5 1_555 1_555
C88_5 C83_5 1_555 1_555
H44_5 C88_5 1_555 1_555
C89_5 C86_5 1_555 1_555
C90_6 C54_5 1_555 1_555
C91_6 C90_6 1_555 1_555
H45_6 C91_6 1_555 1_555
C92_6 C91_6 1_555 1_555
H46_6 C92_6 1_555 1_555
C93_6 C92_6 1_555 1_555
C94_6 C93_6 1_555 1_555
H47_6 C94_6 1_555 1_555
C95_6 C90_6 1_555 1_555
H48_5 C95_6 1_555 1_555
C96_6 C93_6 1_555 1_555
N17_2 C96_6 1_555 1_555
Cu4 N3_4 1_555 1_555
N14_4 Cu4_4 1_555 1_555
C11_6 C12_6 1_555 1_555
C18_6 C19_6 1_555 1_555
C25_6 C26_6 1_555 1_555
C32_6 C33_6 1_555 1_555
C39_6 C40_6 1_555 1_555
C46_6 C47_6 1_555 1_555
C59_6 C60_6 1_555 1_555
C61_6 N7_6 1_555 1_555
C66_5 C67_5 1_555 1_555
C73_5 C74_5 1_555 1_555
C80_5 C81_5 1_555 1_555
C87_5 C88_5 1_555 1_555
C94_6 C95_6 1_555 1_555
Cu4 N1_7 1_555 1_555
N6_7 C48_7 1_555 1_555
C56_7 C55_7 1_555 1_555
H25_7 C56_7 1_555 1_555
C57_7 C56_7 1_555 1_555
H26_7 C57_7 1_555 1_555
C58_7 C57_7 1_555 1_555
C59_7 C58_7 1_555 1_555
H27_7 C59_7 1_555 1_555
C60_7 C55_7 1_555 1_555
C61_7 C58_7 1_555 1_555
N7_7 Cu4 1_555 1_555
C91_7 C90_7 1_555 1_555
H45_7 C91_7 1_555 1_555
C92_7 C91_7 1_555 1_555
H46_7 C92_7 1_555 1_555
C93_7 C92_7 1_555 1_555
C94_7 C93_7 1_555 1_555
H47_7 C94_7 1_555 1_555
C95_7 C90_7 1_555 1_555
C96_7 C93_7 1_555 1_555
N17_3 C96_7 1_555 1_555
C59_7 C60_7 1_555 1_555
C61_7 N7_7 1_555 1_555
C94_7 C95_7 1_555 1_555
C1_7 C2_7 1_555 1_555
C2_7 C3_7 1_555 1_555
C3_7 C1_7 1_555 1_555
C4_7 C1_7 1_555 1_555
C5_7 C2_7 1_555 1_555
C6_7 C3_7 1_555 1_555
C7_7 C4_7 1_555 1_555
C8_7 C7_7 1_555 1_555
H1_7 C8_7 1_555 1_555
C9_7 C8_7 1_555 1_555
H2_7 C9_7 1_555 1_555
C10_7 C9_7 1_555 1_555
C11_7 C10_7 1_555 1_555
H3_7 C11_7 1_555 1_555
C12_7 C7_7 1_555 1_555
H4_7 C12_7 1_555 1_555
C13_7 C10_7 1_555 1_555
C14_7 C4_7 1_555 1_555
C15_7 C14_7 1_555 1_555
H5_7 C15_7 1_555 1_555
C16_7 C15_7 1_555 1_555
H6_7 C16_7 1_555 1_555
C17_7 C16_7 1_555 1_555
C18_7 C17_7 1_555 1_555
H7_7 C18_7 1_555 1_555
C19_7 C14_7 1_555 1_555
H8_7 C19_7 1_555 1_555
C20_7 C17_7 1_555 1_555
N13_2 C20_7 1_555 1_555
C21_7 C5_7 1_555 1_555
C22_7 C21_7 1_555 1_555
H9_7 C22_7 1_555 1_555
C23_7 C22_7 1_555 1_555
H10_7 C23_7 1_555 1_555
C24_7 C23_7 1_555 1_555
C25_7 C24_7 1_555 1_555
H11_7 C25_7 1_555 1_555
C26_7 C21_7 1_555 1_555
H12_7 C26_7 1_555 1_555
C27_7 C24_7 1_555 1_555
N14_4 C27_7 1_555 1_555
C28_7 C5_7 1_555 1_555
C29_7 C28_7 1_555 1_555
H13_7 C29_7 1_555 1_555
C30_7 C29_7 1_555 1_555
H14_7 C30_7 1_555 1_555
C31_7 C30_7 1_555 1_555
C32_7 C31_7 1_555 1_555
H15_7 C32_7 1_555 1_555
C33_7 C28_7 1_555 1_555
H16_7 C33_7 1_555 1_555
C34_7 C31_7 1_555 1_555
C35_7 C6_7 1_555 1_555
C36_7 C35_7 1_555 1_555
H17_7 C36_7 1_555 1_555
C37_7 C36_7 1_555 1_555
H18_7 C37_7 1_555 1_555
C38_7 C37_7 1_555 1_555
C39_7 C38_7 1_555 1_555
H19_7 C39_7 1_555 1_555
C40_7 C35_7 1_555 1_555
H20_7 C40_7 1_555 1_555
C41_7 C38_7 1_555 1_555
N15 C41_7 1_555 1_555
C42_7 C6_7 1_555 1_555
C43_7 C42_7 1_555 1_555
H21_7 C43_7 1_555 1_555
C44_7 C43_7 1_555 1_555
H22_7 C44_7 1_555 1_555
C45_7 C44_7 1_555 1_555
C46_7 C45_7 1_555 1_555
H23_7 C46_7 1_555 1_555
C47_7 C42_7 1_555 1_555
H24_7 C47_7 1_555 1_555
C11_7 C12_7 1_555 1_555
C18_7 C19_7 1_555 1_555
C25_7 C26_7 1_555 1_555
C32_7 C33_7 1_555 1_555
C39_7 C40_7 1_555 1_555
C46_7 C47_7 1_555 1_555
Cu6 N8_6 1_555 1_555
C63_6 C62_6 1_555 1_555
H29_6 C63_6 1_555 1_555
C64_6 C63_6 1_555 1_555
H30_6 C64_6 1_555 1_555
C65_6 C64_6 1_555 1_555
C66_6 C65_6 1_555 1_555
H31_6 C66_6 1_555 1_555
C67_6 C62_6 1_555 1_555
H32_6 C67_6 1_555 1_555
C68_6 C65_6 1_555 1_555
N8_6 C68_6 1_555 1_555
C70_6 C69_6 1_555 1_555
H33_6 C70_6 1_555 1_555
C71_6 C70_6 1_555 1_555
H34_6 C71_6 1_555 1_555
C72_6 C71_6 1_555 1_555
C73_6 C72_6 1_555 1_555
H35_6 C73_6 1_555 1_555
C74_6 C69_6 1_555 1_555
H36_6 C74_6 1_555 1_555
C75_6 C72_6 1_555 1_555
N9_6 C75_6 1_555 1_555
C66_6 C67_6 1_555 1_555
C73_6 C74_6 1_555 1_555
C1_8 C2_8 1_555 1_555
C2_8 C3_8 1_555 1_555
C3_8 C1_8 1_555 1_555
C4_8 C1_8 1_555 1_555
C5_8 C2_8 1_555 1_555
C6_8 C3_8 1_555 1_555
C7_8 C4_8 1_555 1_555
C8_8 C7_8 1_555 1_555
H1_8 C8_8 1_555 1_555
C9_8 C8_8 1_555 1_555
H2_8 C9_8 1_555 1_555
C10_8 C9_8 1_555 1_555
C11_8 C10_8 1_555 1_555
H3_8 C11_8 1_555 1_555
C12_8 C7_8 1_555 1_555
H4_8 C12_8 1_555 1_555
C13_8 C10_8 1_555 1_555
C14_8 C4_8 1_555 1_555
C15_8 C14_8 1_555 1_555
H5_8 C15_8 1_555 1_555
C16_8 C15_8 1_555 1_555
H6_8 C16_8 1_555 1_555
C17_8 C16_8 1_555 1_555
C18_8 C17_8 1_555 1_555
H7_8 C18_8 1_555 1_555
C19_8 C14_8 1_555 1_555
H8_8 C19_8 1_555 1_555
C20_8 C17_8 1_555 1_555
N13 C20_8 1_555 1_555
C21_8 C5_8 1_555 1_555
C22_8 C21_8 1_555 1_555
H9_8 C22_8 1_555 1_555
C23_8 C22_8 1_555 1_555
H10_8 C23_8 1_555 1_555
C24_8 C23_8 1_555 1_555
C25_8 C24_8 1_555 1_555
H11_8 C25_8 1_555 1_555
C26_8 C21_8 1_555 1_555
H12_8 C26_8 1_555 1_555
C27_8 C24_8 1_555 1_555
N14_3 C27_8 1_555 1_555
C28_8 C5_8 1_555 1_555
C29_8 C28_8 1_555 1_555
H13_8 C29_8 1_555 1_555
C30_8 C29_8 1_555 1_555
H14_8 C30_8 1_555 1_555
C31_8 C30_8 1_555 1_555
C32_8 C31_8 1_555 1_555
H15_8 C32_8 1_555 1_555
C33_8 C28_8 1_555 1_555
H16_8 C33_8 1_555 1_555
C34_8 C31_8 1_555 1_555
N4_8 C34_8 1_555 1_555
C35_8 C6_8 1_555 1_555
C36_8 C35_8 1_555 1_555
H17_8 C36_8 1_555 1_555
C37_8 C36_8 1_555 1_555
H18_8 C37_8 1_555 1_555
C38_8 C37_8 1_555 1_555
C39_8 C38_8 1_555 1_555
H19_8 C39_8 1_555 1_555
C40_8 C35_8 1_555 1_555
H20_8 C40_8 1_555 1_555
C41_8 C38_8 1_555 1_555
N15_2 C41_8 1_555 1_555
C42_8 C6_8 1_555 1_555
C43_8 C42_8 1_555 1_555
H21_8 C43_8 1_555 1_555
C44_8 C43_8 1_555 1_555
H22_8 C44_8 1_555 1_555
C45_8 C44_8 1_555 1_555
C46_8 C45_8 1_555 1_555
H23_8 C46_8 1_555 1_555
C47_8 C42_8 1_555 1_555
H24_8 C47_8 1_555 1_555
C11_8 C12_8 1_555 1_555
C18_8 C19_8 1_555 1_555
C25_8 C26_8 1_555 1_555
C32_8 C33_8 1_555 1_555
C39_8 C40_8 1_555 1_555
C46_8 C47_8 1_555 1_555
N6_8 C48_8 1_555 1_555
Cu4_2 N1_8 1_555 1_555
C49_6 C50_6 1_555 1_555
C50_6 C51_6 1_555 1_555
C51_6 C49_6 1_555 1_555
C52_6 C49_6 1_555 1_555
C53_6 C50_6 1_555 1_555
C54_6 C51_6 1_555 1_555
C55_8 C52_6 1_555 1_555
C56_8 C55_8 1_555 1_555
H25_8 C56_8 1_555 1_555
C57_8 C56_8 1_555 1_555
H26_8 C57_8 1_555 1_555
C58_8 C57_8 1_555 1_555
C59_8 C58_8 1_555 1_555
H27_8 C59_8 1_555 1_555
C60_8 C55_8 1_555 1_555
H28_6 C60_8 1_555 1_555
C61_8 C58_8 1_555 1_555
N7_8 Cu4_2 1_555 1_555
C76_6 C53_6 1_555 1_555
C77_6 C76_6 1_555 1_555
C78_6 C77_6 1_555 1_555
H38_6 C78_6 1_555 1_555
C79_6 C78_6 1_555 1_555
C80_6 C79_6 1_555 1_555
H39_6 C80_6 1_555 1_555
C81_6 C76_6 1_555 1_555
H40_6 C81_6 1_555 1_555
C82_6 C79_6 1_555 1_555
N16_2 C82_6 1_555 1_555
C83_6 C54_6 1_555 1_555
C84_6 C83_6 1_555 1_555
H41_6 C84_6 1_555 1_555
C85_6 C84_6 1_555 1_555
H42_6 C85_6 1_555 1_555
C86_6 C85_6 1_555 1_555
C87_6 C86_6 1_555 1_555
H43_6 C87_6 1_555 1_555
C88_6 C83_6 1_555 1_555
H44_6 C88_6 1_555 1_555
C89_6 C86_6 1_555 1_555
N11_8 C89_6 1_555 1_555
C90_8 C54_6 1_555 1_555
C91_8 C90_8 1_555 1_555
H45_8 C91_8 1_555 1_555
C92_8 C91_8 1_555 1_555
H46_8 C92_8 1_555 1_555
C93_8 C92_8 1_555 1_555
C94_8 C93_8 1_555 1_555
H47_8 C94_8 1_555 1_555
C95_8 C90_8 1_555 1_555
H48_6 C95_8 1_555 1_555
C96_8 C93_8 1_555 1_555
N17_4 C96_8 1_555 1_555
C59_8 C60_8 1_555 1_555
C61_8 N7_8 1_555 1_555
C80_6 C81_6 1_555 1_555
C87_6 C88_6 1_555 1_555
C94_8 C95_8 1_555 1_555
C49_7 C50_7 1_555 1_555
C50_7 C51_7 1_555 1_555
C51_7 C49_7 1_555 1_555
C52_7 C49_7 1_555 1_555
C53_7 C50_7 1_555 1_555
C54_7 C51_7 1_555 1_555
C76_7 C53_7 1_555 1_555
C77_7 C76_7 1_555 1_555
C78_7 C77_7 1_555 1_555
H38_7 C78_7 1_555 1_555
C79_7 C78_7 1_555 1_555
C80_7 C79_7 1_555 1_555
H39_7 C80_7 1_555 1_555
C81_7 C76_7 1_555 1_555
H40_7 C81_7 1_555 1_555
C82_7 C79_7 1_555 1_555
C83_7 C54_7 1_555 1_555
C84_7 C83_7 1_555 1_555
H41_7 C84_7 1_555 1_555
C85_7 C84_7 1_555 1_555
H42_7 C85_7 1_555 1_555
C86_7 C85_7 1_555 1_555
C87_7 C86_7 1_555 1_555
H43_7 C87_7 1_555 1_555
C88_7 C83_7 1_555 1_555
H44_7 C88_7 1_555 1_555
C89_7 C86_7 1_555 1_555
C80_7 C81_7 1_555 1_555
C87_7 C88_7 1_555 1_555
C63_7 C62_7 1_555 1_555
H29_7 C63_7 1_555 1_555
C64_7 C63_7 1_555 1_555
H30_7 C64_7 1_555 1_555
C65_7 C64_7 1_555 1_555
C66_7 C65_7 1_555 1_555
H31_7 C66_7 1_555 1_555
C67_7 C62_7 1_555 1_555
H32_7 C67_7 1_555 1_555
C68_7 C65_7 1_555 1_555
N8_7 C68_7 1_555 1_555
C70_7 C69_7 1_555 1_555
H33_7 C70_7 1_555 1_555
C71_7 C70_7 1_555 1_555
H34_7 C71_7 1_555 1_555
C72_7 C71_7 1_555 1_555
C73_7 C72_7 1_555 1_555
H35_7 C73_7 1_555 1_555
C74_7 C69_7 1_555 1_555
H36_7 C74_7 1_555 1_555
C75_7 C72_7 1_555 1_555
N9_7 C75_7 1_555 1_555
C66_7 C67_7 1_555 1_555
C73_7 C74_7 1_555 1_555
C49_8 C50_8 1_555 1_555
C50_8 C51_8 1_555 1_555
C51_8 C49_8 1_555 1_555
C52_8 C49_8 1_555 1_555
C53_8 C50_8 1_555 1_555
C54_8 C51_8 1_555 1_555
C76_8 C53_8 1_555 1_555
C77_8 C76_8 1_555 1_555
C78_8 C77_8 1_555 1_555
H38_8 C78_8 1_555 1_555
C79_8 C78_8 1_555 1_555
C80_8 C79_8 1_555 1_555
H39_8 C80_8 1_555 1_555
C81_8 C76_8 1_555 1_555
H40_8 C81_8 1_555 1_555
C82_8 C79_8 1_555 1_555
C83_8 C54_8 1_555 1_555
C84_8 C83_8 1_555 1_555
H41_8 C84_8 1_555 1_555
C85_8 C84_8 1_555 1_555
H42_8 C85_8 1_555 1_555
C86_8 C85_8 1_555 1_555
C87_8 C86_8 1_555 1_555
H43_8 C87_8 1_555 1_555
C88_8 C83_8 1_555 1_555
H44_8 C88_8 1_555 1_555
C89_8 C86_8 1_555 1_555
C80_8 C81_8 1_555 1_555
C87_8 C88_8 1_555 1_555
C63_8 C62_8 1_555 1_555
H29_8 C63_8 1_555 1_555
C64_8 C63_8 1_555 1_555
H30_8 C64_8 1_555 1_555
C65_8 C64_8 1_555 1_555
C66_8 C65_8 1_555 1_555
H31_8 C66_8 1_555 1_555
C67_8 C62_8 1_555 1_555
H32_8 C67_8 1_555 1_555
C68_8 C65_8 1_555 1_555
N8_8 C68_8 1_555 1_555
C70_8 C69_8 1_555 1_555
H33_8 C70_8 1_555 1_555
C71_8 C70_8 1_555 1_555
H34_8 C71_8 1_555 1_555
C72_8 C71_8 1_555 1_555
C73_8 C72_8 1_555 1_555
H35_8 C73_8 1_555 1_555
C74_8 C69_8 1_555 1_555
H36_8 C74_8 1_555 1_555
C75_8 C72_8 1_555 1_555
N9_8 C75_8 1_555 1_555
C66_8 C67_8 1_555 1_555
C73_8 C74_8 1_555 1_555

#END
