
###############################################################################
#
# This file contains modified crystal structure data generated from the
# MOF subset of the Cambridge Structural Database (CSD) v543 
# hosted by the Cambridge Crystallographic Data Centre (CCDC).
#
# This work is licensed under the Creative Commons
# Attribution-NonCommercial-ShareAlike 4.0 International License.
# To view a copy of this license, visit
# http://creativecommons.org/licenses/by-nc-sa/4.0/
# or send a letter to
# Creative Commons, PO Box 1866, Mountain View, CA 94042, USA.
#
# CIF created using the CSD Python API on 29 September 2022
# The structure has been converted into the P1 space group
# The structure has a 3D framework
# The original CSD entry ZEVXAB is in the orthorhombic crystal system
# The framework has been calculated to contain at least 10.0% void space
# The void calculation uses a probe of radius 1.32A, grid spacing 0.4
# The framework is charged, counterions have been retained in the structure
#
###############################################################################

data_ZEVXAB
_chemical_formula_moiety         '(C768 H384 B24 Cu16 F96 N92 8-)n'
_symmetry_cell_setting           triclinic
_symmetry_space_group_name_H-M   'P 1'
_symmetry_Int_Tables_number      1
_space_group_name_Hall           'P 1'
loop_
_symmetry_equiv_pos_site_id
_symmetry_equiv_pos_as_xyz
1 x,y,z
_cell_length_a                   23.470(5)
_cell_length_b                   22.051(4)
_cell_length_c                   52.645(10)
_cell_angle_alpha                90
_cell_angle_beta                 90
_cell_angle_gamma                90
_cell_volume                     27245.7
loop_
_atom_site_label
_atom_site_type_symbol
_atom_site_fract_x
_atom_site_fract_y
_atom_site_fract_z
B1 B 0.5250(2) 0.1570(3) 0.03363(9)
F1 F 0.5132(4) 0.1948(2) 0.01446(9)
F2 F 0.49612(14) 0.10274(15) 0.03035(6)
F3 F 0.58373(16) 0.1407(3) 0.03563(9)
F4 F 0.51194(13) 0.18227(14) 0.05717(5)
F2_2 F 0.00388(14) 0.89726(15) 0.53035(6)
B1_2 B 0.9750(2) 0.8430(3) 0.53363(9)
F1_2 F 0.9868(4) 0.8052(2) 0.51446(9)
F3_2 F 0.91627(16) 0.8593(3) 0.53563(9)
F4_2 F 0.98806(13) 0.81773(14) 0.55717(5)
B1_3 B 0.0250(2) 0.3430(3) 0.96637(9)
F1_3 F 0.0132(4) 0.3052(2) 0.98554(9)
F3_3 F 0.08373(16) 0.3593(3) 0.96437(9)
F4_3 F 0.01194(13) 0.31773(14) 0.94283(5)
F2_3 F 0.99612(14) 0.39726(15) 0.96965(6)
B1_4 B 0.4750(2) 0.6570(3) 0.46637(9)
F1_4 F 0.4868(4) 0.6948(2) 0.48554(9)
F2_4 F 0.50388(14) 0.60274(15) 0.46965(6)
F3_4 F 0.41627(16) 0.6407(3) 0.46437(9)
F4_4 F 0.48806(13) 0.68227(14) 0.44283(5)
B1_5 B 0.4750(2) 0.8430(3) 0.96637(9)
F1_5 F 0.4868(4) 0.8052(2) 0.98554(9)
F2_5 F 0.50388(14) 0.89726(15) 0.96965(6)
F3_5 F 0.41627(16) 0.8593(3) 0.96437(9)
F4_5 F 0.48806(13) 0.81773(14) 0.94283(5)
B1_6 B 0.0250(2) 0.1570(3) 0.46637(9)
F1_6 F 0.0132(4) 0.1948(2) 0.48554(9)
F3_6 F 0.08373(16) 0.1407(3) 0.46437(9)
F4_6 F 0.01194(13) 0.18227(14) 0.44283(5)
F2_6 F 0.99612(14) 0.10274(15) 0.46965(6)
F2_7 F 0.00388(14) 0.60274(15) 0.03035(6)
B1_7 B 0.9750(2) 0.6570(3) 0.03363(9)
F1_7 F 0.9868(4) 0.6948(2) 0.01446(9)
F3_7 F 0.91627(16) 0.6407(3) 0.03563(9)
F4_7 F 0.98806(13) 0.68227(14) 0.05717(5)
B1_8 B 0.5250(2) 0.3430(3) 0.53363(9)
F1_8 F 0.5132(4) 0.3052(2) 0.51446(9)
F2_8 F 0.49612(14) 0.39726(15) 0.53035(6)
F3_8 F 0.58373(16) 0.3593(3) 0.53563(9)
F4_8 F 0.51194(13) 0.31773(14) 0.55717(5)
B2 B 0.3819(4) 0.3668(3) 0.16342(16)
F5 F 0.3859(3) 0.4016(5) 0.18422(16)
F6 F 0.3802(3) 0.3076(3) 0.17086(14)
F7 F 0.3302(2) 0.3807(4) 0.15026(12)
F8 F 0.4289(2) 0.3731(3) 0.14622(12)
B2_2 B 0.1181(4) 0.6332(3) 0.66342(16)
F5_2 F 0.1141(3) 0.5984(5) 0.68422(16)
F6_2 F 0.1198(3) 0.6924(3) 0.67086(14)
F7_2 F 0.1698(2) 0.6193(4) 0.65026(12)
F8_2 F 0.0711(2) 0.6269(3) 0.64622(12)
B2_3 B 0.8819(4) 0.1332(3) 0.83658(16)
F5_3 F 0.8859(3) 0.0984(5) 0.81578(16)
F6_3 F 0.8802(3) 0.1924(3) 0.82914(14)
F7_3 F 0.8302(2) 0.1193(4) 0.84974(12)
F8_3 F 0.9289(2) 0.1269(3) 0.85378(12)
B2_4 B 0.6181(4) 0.8668(3) 0.33658(16)
F5_4 F 0.6141(3) 0.9016(5) 0.31578(16)
F6_4 F 0.6198(3) 0.8076(3) 0.32914(14)
F7_4 F 0.6698(2) 0.8807(4) 0.34974(12)
F8_4 F 0.5711(2) 0.8731(3) 0.35378(12)
B2_5 B 0.6181(4) 0.6332(3) 0.83658(16)
F5_5 F 0.6141(3) 0.5984(5) 0.81578(16)
F6_5 F 0.6198(3) 0.6924(3) 0.82914(14)
F7_5 F 0.6698(2) 0.6193(4) 0.84974(12)
F8_5 F 0.5711(2) 0.6269(3) 0.85378(12)
B2_6 B 0.8819(4) 0.3668(3) 0.33658(16)
F5_6 F 0.8859(3) 0.4016(5) 0.31578(16)
F6_6 F 0.8802(3) 0.3076(3) 0.32914(14)
F7_6 F 0.8302(2) 0.3807(4) 0.34974(12)
F8_6 F 0.9289(2) 0.3731(3) 0.35378(12)
B2_7 B 0.1181(4) 0.8668(3) 0.16342(16)
F5_7 F 0.1141(3) 0.9016(5) 0.18422(16)
F6_7 F 0.1198(3) 0.8076(3) 0.17086(14)
F7_7 F 0.1698(2) 0.8807(4) 0.15026(12)
F8_7 F 0.0711(2) 0.8731(3) 0.14622(12)
B2_8 B 0.3819(4) 0.1332(3) 0.66342(16)
F5_8 F 0.3859(3) 0.0984(5) 0.68422(16)
F6_8 F 0.3802(3) 0.1924(3) 0.67086(14)
F7_8 F 0.3302(2) 0.1193(4) 0.65026(12)
F8_8 F 0.4289(2) 0.1269(3) 0.64622(12)
B3 B 0.5185(4) 0.5485(3) 0.16210(16)
F9 F 0.5098(8) 0.6043(6) 0.1622(3)
F10 F 0.4677(9) 0.5304(14) 0.1510(3)
F11 F 0.5281(8) 0.5180(8) 0.1841(2)
F12 F 0.5636(6) 0.5401(11) 0.1466(2)
F10_2 F 0.0323(9) 0.4696(14) 0.6510(3)
B3_2 B 0.9815(4) 0.4515(3) 0.66210(16)
F9_2 F 0.9902(8) 0.3957(6) 0.6622(3)
F11_2 F 0.9719(8) 0.4820(8) 0.6841(2)
F12_2 F 0.9364(6) 0.4599(11) 0.6466(2)
B3_3 B 0.0185(4) 0.9515(3) 0.83790(16)
F9_3 F 0.0098(8) 0.8957(6) 0.8378(3)
F11_3 F 0.0281(8) 0.9820(8) 0.8159(2)
F12_3 F 0.0636(6) 0.9599(11) 0.8534(2)
F10_3 F 0.9677(9) 0.9696(14) 0.8490(3)
B3_4 B 0.4815(4) 0.0485(3) 0.33790(16)
F9_4 F 0.4902(8) 0.1043(6) 0.3378(3)
F10_4 F 0.5323(9) 0.0304(14) 0.3490(3)
F11_4 F 0.4719(8) 0.0180(8) 0.3159(2)
F12_4 F 0.4364(6) 0.0401(11) 0.3534(2)
B3_5 B 0.4815(4) 0.4515(3) 0.83790(16)
F9_5 F 0.4902(8) 0.3957(6) 0.8378(3)
F10_5 F 0.5323(9) 0.4696(14) 0.8490(3)
F11_5 F 0.4719(8) 0.4820(8) 0.8159(2)
F12_5 F 0.4364(6) 0.4599(11) 0.8534(2)
B3_6 B 0.0185(4) 0.5485(3) 0.33790(16)
F9_6 F 0.0098(8) 0.6043(6) 0.3378(3)
F11_6 F 0.0281(8) 0.5180(8) 0.3159(2)
F12_6 F 0.0636(6) 0.5401(11) 0.3534(2)
F10_6 F 0.9677(9) 0.5304(14) 0.3490(3)
F10_7 F 0.0323(9) 0.0304(14) 0.1510(3)
B3_7 B 0.9815(4) 0.0485(3) 0.16210(16)
F9_7 F 0.9902(8) 0.1043(6) 0.1622(3)
F11_7 F 0.9719(8) 0.0180(8) 0.1841(2)
F12_7 F 0.9364(6) 0.0401(11) 0.1466(2)
B3_8 B 0.5185(4) 0.9515(3) 0.66210(16)
F9_8 F 0.5098(8) 0.8957(6) 0.6622(3)
F10_8 F 0.4677(9) 0.9696(14) 0.6510(3)
F11_8 F 0.5281(8) 0.9820(8) 0.6841(2)
F12_8 F 0.5636(6) 0.9599(11) 0.6466(2)
N11 N 0.01930(17) 0.41701(19) 0.21240(10)
Cu4 Cu 0.035838(16) 0.424843(19) 0.136440(7)
H8 H 0.2891 0.0076 0.0270
C49 C 0.69690(13) 0.19829(15) 0.22908(5)
C50 C 0.74135(14) 0.20172(14) 0.21057(6)
C51 C 0.74226(14) 0.24051(16) 0.23245(6)
C52 C 0.64615(13) 0.17359(15) 0.23708(6)
C53 C 0.76541(13) 0.18213(14) 0.18881(6)
C54 C 0.76461(14) 0.28726(15) 0.24565(6)
C55 C 0.62805(13) 0.18304(14) 0.26336(6)
C56 C 0.66903(14) 0.18767(16) 0.28264(6)
H25 H 0.7081 0.1828 0.2785
C57 C 0.65393(14) 0.19924(18) 0.30764(6)
H26 H 0.6824 0.2028 0.3204
C58 C 0.59689(14) 0.20554(16) 0.31390(6)
C59 C 0.57954(14) 0.21739(15) 0.33950(6)
N7 N 0.56733(12) 0.22588(13) 0.36023(5)
C60 C 0.55428(13) 0.19889(17) 0.29506(6)
H27 H 0.5151 0.2018 0.2995
C61 C 0.57036(13) 0.18803(15) 0.27014(6)
H28 H 0.5419 0.1839 0.2574
C62 C 0.61136(13) 0.13897(15) 0.21915(6)
C63 C 0.58183(15) 0.08675(15) 0.22663(6)
H29 H 0.5830 0.0743 0.2439
C64 C 0.55102(15) 0.05316(16) 0.20934(6)
H30 H 0.5309 0.0181 0.2148
C65 C 0.54949(14) 0.07079(15) 0.18376(6)
C66 C 0.51981(14) 0.03306(17) 0.16593(6)
C67 C 0.57677(14) 0.12384(16) 0.17614(6)
H31 H 0.5740 0.1371 0.1590
C68 C 0.60787(14) 0.15718(16) 0.19351(6)
H32 H 0.6271 0.1928 0.1881
C69 C 0.74295(13) 0.12767(15) 0.17609(6)
C70 C 0.72050(15) 0.07923(14) 0.19032(6)
H33 H 0.7231 0.0801 0.2083
C71 C 0.69494(14) 0.03080(15) 0.17854(6)
C72 C 0.69167(14) 0.02957(15) 0.15220(6)
C74 C 0.71616(17) 0.07634(18) 0.13756(6)
H35 H 0.7146 0.0747 0.1195
C75 C 0.74208(16) 0.12389(17) 0.14930(6)
H36 H 0.7597 0.1547 0.1394
C76 C 0.81209(14) 0.21786(14) 0.17731(6)
C77 C 0.86074(15) 0.19108(16) 0.16746(6)
H37 H 0.8640 0.1481 0.1673
C78 C 0.90485(15) 0.22637(15) 0.15787(6)
H38 H 0.9389 0.2080 0.1518
C79 C 0.89832(14) 0.28955(16) 0.15726(6)
C80 C 0.94403(14) 0.32746(16) 0.14860(6)
N10 N 0.97872(12) 0.36053(14) 0.14212(5)
C81 C 0.84829(15) 0.31668(16) 0.16632(6)
H39 H 0.8434 0.3594 0.1654
C82 C 0.80635(16) 0.28071(15) 0.17662(6)
H40 H 0.7730 0.2990 0.1834
C83 C 0.82023(14) 0.31441(16) 0.23878(6)
C84 C 0.86591(15) 0.27664(16) 0.23157(6)
H41 H 0.8611 0.2339 0.2313
C85 C 0.91789(14) 0.30182(17) 0.22483(7)
H42 H 0.9488 0.2765 0.2200
C86 C 0.92429(15) 0.36378(18) 0.22525(7)
C87 C 0.97717(18) 0.3918(2) 0.21844(10)
C88 C 0.87948(17) 0.40235(19) 0.23234(8)
H43 H 0.8843 0.4451 0.2322
C89 C 0.82776(16) 0.37668(17) 0.23962(7)
H44 H 0.7975 0.4020 0.2452
C90 C 0.73118(14) 0.31538(16) 0.26645(6)
C91 C 0.75721(14) 0.33350(16) 0.28884(6)
H45 H 0.7974 0.3298 0.2906
C92 C 0.72530(15) 0.35691(17) 0.30874(7)
H46 H 0.7434 0.3691 0.3241
C93 C 0.66628(15) 0.36229(16) 0.30598(7)
C94 C 0.63103(16) 0.38414(16) 0.32638(7)
N12 N 0.60146(13) 0.40126(14) 0.34196(6)
C95 C 0.63896(16) 0.34484(18) 0.28324(8)
H47 H 0.5989 0.3490 0.2813
C96 C 0.67205(15) 0.32143(18) 0.26381(7)
H48 H 0.6543 0.3093 0.2484
Cu3 Cu 0.535838(16) 0.424843(19) 0.363560(7)
Cu6 Cu 0.552412(16) 0.226078(18) 0.396582(7)
C4 C 0.34357(12) 0.01577(13) 0.98336(5)
C6 C 0.21457(12) 0.01816(14) 0.93971(6)
C7 C 0.44274(12) 0.14267(13) 0.96544(6)
H1 H 0.4677 0.1707 0.9734
C8 C 0.37615(11) 0.05928(12) 0.96820(5)
C9 C 0.37165(13) 0.05914(13) 0.94153(5)
H2 H 0.3483 0.0298 0.9334
C10 C 0.40110(13) 0.10149(15) 0.92701(6)
H3 H 0.3968 0.1021 0.9091
C11 C 0.43675(12) 0.14269(13) 0.93883(5)
C12 C 0.46719(13) 0.18589(15) 0.92367(6)
N1 N 0.49238(12) 0.21941(13) 0.91170(5)
C13 C 0.41241(12) 0.10217(13) 0.97975(5)
H4 H 0.4158 0.1029 0.9977
H19 H 0.0305 0.0096 0.9133
C41 C 0.11352(14) 0.01917(15) 0.92394(7)
H20 H 0.1131 0.0622 0.9251
C42 C 0.23280(13) 0.07678(14) 0.92944(6)
C43 C 0.23088(15) 0.08954(15) 0.90308(6)
H21 H 0.2159 0.0602 0.8917
C44 C 0.25039(16) 0.14387(16) 0.89392(6)
H22 H 0.2498 0.1516 0.8762
C45 C 0.27115(14) 0.18774(15) 0.91055(6)
C46 C 0.29061(17) 0.24462(18) 0.90109(7)
N6 N 0.30602(17) 0.29120(16) 0.89356(7)
C47 C 0.27221(13) 0.17683(14) 0.93666(6)
H23 H 0.2858 0.2071 0.9480
C48 C 0.25336(13) 0.12170(14) 0.94587(6)
H24 H 0.2543 0.1141 0.9636
Cu7 Cu 0.552412(16) 0.273922(18) 0.896582(7)
Cu1 Cu 0.464162(16) 0.924843(19) 0.136440(7)
Cu2 Cu 0.447588(16) 0.726078(18) 0.103418(7)
C14 C 0.36506(12) 0.99649(12) 0.00871(5)
C15 C 0.42198(12) 0.97982(13) 0.01241(5)
C16 C 0.44173(13) 0.96343(14) 0.03625(6)
H6 H 0.4805 0.9526 0.0386
C17 C 0.40422(12) 0.96310(13) 0.05652(6)
C18 C 0.42395(13) 0.94792(14) 0.08120(6)
N2 N 0.44053(12) 0.93639(13) 0.10127(5)
C19 C 0.34628(12) 0.97968(14) 0.05322(6)
H7 H 0.3207 0.9794 0.0672
C20 C 0.32776(12) 0.99623(14) 0.02938(6)
C21 C 0.25898(13) 0.87016(14) 0.01168(6)
C22 C 0.31803(12) 0.85992(13) 0.00778(6)
C23 C 0.34987(13) 0.82920(13) 0.02602(6)
H10 H 0.3893 0.8219 0.0234
C24 C 0.32331(13) 0.80924(14) 0.04811(6)
C25 C 0.35675(15) 0.77639(15) 0.06699(6)
N3 N 0.38328(12) 0.75218(13) 0.08169(5)
C26 C 0.26491(15) 0.81720(17) 0.05163(7)
H11 H 0.2467 0.8010 0.0662
C27 C 0.23425(14) 0.84837(16) 0.03402(6)
H12 H 0.1949 0.8555 0.0370
N8 N 0.49766(12) 0.99936(13) 0.15248(5)
H34 H 0.6796 0.9984 0.1883
C73 C 0.66221(15) 0.98063(17) 0.13963(6)
N9 N 0.63745(16) 0.94262(16) 0.12952(6)
N13 N 0.50762(12) 0.78059(13) 0.08830(5)
N14 N 0.47990(13) 0.64350(14) 0.09577(6)
N15 N 0.43267(12) 0.72588(13) 0.13977(5)
N16 N 0.52128(12) 0.86053(14) 0.14212(5)
N17 N 0.39854(13) 0.90126(14) 0.15804(6)
C32 C 0.99864(17) 0.8198(2) 0.97325(8)
N4 N 0.95335(16) 0.8030(2) 0.96951(8)
N5 N 0.97990(13) 0.85650(14) 0.90423(6)
Cu5 Cu 0.947588(16) 0.773922(18) 0.896582(7)
Cu1_2 Cu 0.035838(16) 0.075157(19) 0.636440(7)
C1 C 0.20736(12) 0.00669(13) 0.47558(5)
Cu2_2 Cu 0.052412(16) 0.273922(18) 0.603418(7)
C2 C 0.25250(13) 0.05062(14) 0.47937(6)
C3 C 0.25597(12) 0.00738(13) 0.45925(6)
C5 C 0.27401(13) 0.09795(14) 0.49231(6)
C14_2 C 0.13494(12) 0.00351(12) 0.50871(5)
C15_2 C 0.07802(12) 0.02018(13) 0.51241(5)
H5 H 0.0526 0.0203 0.4984
C16_2 C 0.05827(13) 0.03657(14) 0.53625(6)
H6_2 H 0.0195 0.0474 0.5386
C17_2 C 0.09578(12) 0.03690(13) 0.55652(6)
C18_2 C 0.07605(13) 0.05208(14) 0.58120(6)
N2_2 N 0.05947(12) 0.06361(13) 0.60127(5)
C19_2 C 0.15372(12) 0.02032(14) 0.55322(6)
H7_2 H 0.1793 0.0206 0.5672
C20_2 C 0.17224(12) 0.00377(14) 0.52938(6)
C21_2 C 0.24102(13) 0.12984(14) 0.51168(6)
C22_2 C 0.18197(12) 0.14008(13) 0.50778(6)
H9 H 0.1641 0.1260 0.4927
C23_2 C 0.15013(13) 0.17080(13) 0.52602(6)
H10_2 H 0.1107 0.1781 0.5234
C24_2 C 0.17669(13) 0.19076(14) 0.54811(6)
C25_2 C 0.14325(15) 0.22361(15) 0.56699(6)
N3_2 N 0.11672(12) 0.24782(13) 0.58169(5)
C26_2 C 0.23509(15) 0.18280(17) 0.55163(7)
H11_2 H 0.2533 0.1990 0.5662
C27_2 C 0.26575(14) 0.15163(16) 0.53402(6)
H12_2 H 0.3051 0.1445 0.5370
C28 C 0.33275(13) 0.11827(14) 0.48705(6)
C29 C 0.34580(15) 0.18074(16) 0.48624(8)
H13 H 0.3166 0.2097 0.4892
C30 C 0.40110(16) 0.20034(18) 0.48120(9)
H14 H 0.4094 0.2425 0.4804
C31 C 0.44440(15) 0.1575(2) 0.47736(8)
C32_2 C 0.50136(17) 0.1802(2) 0.47325(8)
N4_2 N 0.54665(16) 0.1970(2) 0.46951(8)
C33 C 0.43175(15) 0.09646(18) 0.47869(7)
H15 H 0.4613 0.0677 0.4762
C34 C 0.37751(14) 0.07640(16) 0.48349(7)
H16 H 0.3700 0.0341 0.4844
C35 C 0.33633(13) 0.01345(14) 0.42964(6)
C36 C 0.33507(14) 0.07557(15) 0.42650(6)
H17 H 0.3006 0.0969 0.4296
C37 C 0.38300(15) 0.10749(15) 0.41893(7)
H18 H 0.3816 0.1503 0.4170
C38 C 0.43383(14) 0.07548(15) 0.41409(6)
C39 C 0.48310(15) 0.11003(15) 0.40826(7)
N5_2 N 0.52010(13) 0.14350(14) 0.40423(6)
C40 C 0.43527(15) 0.01196(16) 0.41662(7)
N8_2 N 0.00234(12) 0.00064(13) 0.65248(5)
N14_2 N 0.02010(13) 0.35650(14) 0.59577(6)
N15_2 N 0.06733(12) 0.27412(13) 0.63977(5)
N17_2 N 0.10146(13) 0.09874(14) 0.65804(6)
C4_2 C 0.15643(12) 0.98423(13) 0.48336(5)
C6_2 C 0.28543(12) 0.98184(14) 0.43971(6)
C7_2 C 0.05726(12) 0.85733(13) 0.46544(6)
H1_2 H 0.0323 0.8293 0.4734
C8_2 C 0.12385(11) 0.94072(12) 0.46820(5)
C9_2 C 0.12835(13) 0.94086(13) 0.44153(5)
H2_2 H 0.1517 0.9702 0.4334
C10_2 C 0.09890(13) 0.89851(15) 0.42701(6)
H3_2 H 0.1032 0.8979 0.4091
C11_2 C 0.06325(12) 0.85731(13) 0.43883(5)
C12_2 C 0.03281(13) 0.81411(15) 0.42367(6)
N1_2 N 0.00762(12) 0.78059(13) 0.41170(5)
C13_2 C 0.08759(12) 0.89783(13) 0.47975(5)
H4_2 H 0.0842 0.8971 0.4977
H8_2 H 0.2109 0.9924 0.5270
H19_2 H 0.4695 0.9904 0.4133
C41_2 C 0.38648(14) 0.98083(15) 0.42394(7)
H20_2 H 0.3869 0.9378 0.4251
C42_2 C 0.26720(13) 0.92322(14) 0.42944(6)
C43_2 C 0.26912(15) 0.91046(15) 0.40308(6)
H21_2 H 0.2841 0.9398 0.3917
C44_2 C 0.24961(16) 0.85613(16) 0.39392(6)
H22_2 H 0.2502 0.8484 0.3762
C45_2 C 0.22885(14) 0.81226(15) 0.41055(6)
C46_2 C 0.20939(17) 0.75538(18) 0.40109(7)
N6_2 N 0.19398(17) 0.70880(16) 0.39356(7)
C47_2 C 0.22779(13) 0.82317(14) 0.43666(6)
H23_2 H 0.2142 0.7929 0.4480
C48_2 C 0.24664(13) 0.87830(14) 0.44587(6)
H24_2 H 0.2457 0.8859 0.4636
H34_2 H 0.8204 0.0016 0.6883
C73_2 C 0.83779(15) 0.01937(17) 0.63963(6)
N9_2 N 0.86255(16) 0.05738(16) 0.62952(6)
N13_2 N 0.99238(12) 0.21941(13) 0.58830(5)
N16_2 N 0.97872(12) 0.13947(14) 0.64212(5)
C49_2 C 0.80310(13) 0.80171(15) 0.72908(5)
C50_2 C 0.75865(14) 0.79828(14) 0.71057(6)
C51_2 C 0.75774(14) 0.75949(16) 0.73245(6)
C52_2 C 0.85385(13) 0.82641(15) 0.73708(6)
C53_2 C 0.73459(13) 0.81787(14) 0.68881(6)
C54_2 C 0.73539(14) 0.71274(15) 0.74565(6)
C55_2 C 0.87195(13) 0.81696(14) 0.76336(6)
C56_2 C 0.83097(14) 0.81233(16) 0.78264(6)
H25_2 H 0.7919 0.8172 0.7785
C57_2 C 0.84607(14) 0.80076(18) 0.80764(6)
H26_2 H 0.8176 0.7972 0.8204
C58_2 C 0.90311(14) 0.79446(16) 0.81390(6)
C59_2 C 0.92046(14) 0.78261(15) 0.83950(6)
N7_2 N 0.93267(12) 0.77412(13) 0.86023(5)
C60_2 C 0.94572(13) 0.80111(17) 0.79506(6)
H27_2 H 0.9849 0.7982 0.7995
C61_2 C 0.92964(13) 0.81197(15) 0.77014(6)
H28_2 H 0.9581 0.8161 0.7574
C62_2 C 0.88864(13) 0.86103(15) 0.71915(6)
C63_2 C 0.91817(15) 0.91325(15) 0.72663(6)
H29_2 H 0.9170 0.9257 0.7439
C64_2 C 0.94898(15) 0.94684(16) 0.70934(6)
H30_2 H 0.9691 0.9819 0.7148
C65_2 C 0.95051(14) 0.92921(15) 0.68376(6)
C66_2 C 0.98019(14) 0.96694(17) 0.66593(6)
C67_2 C 0.92323(14) 0.87616(16) 0.67614(6)
H31_2 H 0.9260 0.8629 0.6590
C68_2 C 0.89213(14) 0.84282(16) 0.69351(6)
H32_2 H 0.8729 0.8072 0.6881
C69_2 C 0.75705(13) 0.87233(15) 0.67609(6)
C70_2 C 0.77950(15) 0.92077(14) 0.69032(6)
H33_2 H 0.7769 0.9199 0.7083
C71_2 C 0.80506(14) 0.96920(15) 0.67854(6)
C72_2 C 0.80833(14) 0.97043(15) 0.65220(6)
C74_2 C 0.78384(17) 0.92366(18) 0.63756(6)
H35_2 H 0.7854 0.9253 0.6195
C75_2 C 0.75792(16) 0.87611(17) 0.64930(6)
H36_2 H 0.7403 0.8453 0.6394
C76_2 C 0.68791(14) 0.78214(14) 0.67731(6)
C77_2 C 0.63926(15) 0.80892(16) 0.66746(6)
H37_2 H 0.6360 0.8519 0.6673
C78_2 C 0.59515(15) 0.77363(15) 0.65787(6)
H38_2 H 0.5611 0.7920 0.6518
C79_2 C 0.60168(14) 0.71045(16) 0.65726(6)
C80_2 C 0.55597(14) 0.67254(16) 0.64860(6)
N10_2 N 0.52128(12) 0.63947(14) 0.64212(5)
C81_2 C 0.65171(15) 0.68332(16) 0.66632(6)
H39_2 H 0.6566 0.6406 0.6654
C82_2 C 0.69365(16) 0.71929(15) 0.67662(6)
H40_2 H 0.7270 0.7010 0.6834
C83_2 C 0.67977(14) 0.68559(16) 0.73878(6)
C84_2 C 0.63409(15) 0.72336(16) 0.73157(6)
H41_2 H 0.6389 0.7661 0.7313
C85_2 C 0.58211(14) 0.69818(17) 0.72483(7)
H42_2 H 0.5512 0.7235 0.7200
C86_2 C 0.57571(15) 0.63622(18) 0.72525(7)
C87_2 C 0.52283(18) 0.6082(2) 0.71844(10)
N11_2 N 0.48070(17) 0.58299(19) 0.71240(10)
C88_2 C 0.62052(17) 0.59765(19) 0.73234(8)
H43_2 H 0.6157 0.5549 0.7322
C89_2 C 0.67224(16) 0.62332(17) 0.73962(7)
H44_2 H 0.7025 0.5980 0.7452
C90_2 C 0.76882(14) 0.68462(16) 0.76645(6)
C91_2 C 0.74279(14) 0.66650(16) 0.78884(6)
H45_2 H 0.7026 0.6702 0.7906
C92_2 C 0.77470(15) 0.64309(17) 0.80874(7)
H46_2 H 0.7566 0.6309 0.8241
C93_2 C 0.83372(15) 0.63771(16) 0.80598(7)
C94_2 C 0.86897(16) 0.61586(16) 0.82638(7)
N12_2 N 0.89854(13) 0.59874(14) 0.84196(6)
C95_2 C 0.86104(16) 0.65516(18) 0.78324(8)
H47_2 H 0.9011 0.6510 0.7813
C96_2 C 0.82795(15) 0.67857(18) 0.76381(7)
H48_2 H 0.8457 0.6907 0.7484
Cu3_2 Cu 0.964162(16) 0.575157(19) 0.863560(7)
Cu4_2 Cu 0.464162(16) 0.575157(19) 0.636440(7)
Cu7_2 Cu 0.947588(16) 0.726078(18) 0.396582(7)
Cu7_3 Cu 0.052412(16) 0.226078(18) 0.103418(7)
C49_3 C 0.19690(13) 0.30171(15) 0.77092(5)
C50_3 C 0.24135(14) 0.29828(14) 0.78943(6)
C51_3 C 0.24226(14) 0.25949(16) 0.76755(6)
C52_3 C 0.14615(13) 0.32641(15) 0.76292(6)
C53_3 C 0.26541(13) 0.31787(14) 0.81119(6)
C54_3 C 0.26461(14) 0.21274(15) 0.75435(6)
C55_3 C 0.12805(13) 0.31696(14) 0.73664(6)
C56_3 C 0.16903(14) 0.31233(16) 0.71736(6)
H25_3 H 0.2081 0.3172 0.7215
C57_3 C 0.15393(14) 0.30076(18) 0.69236(6)
H26_3 H 0.1824 0.2972 0.6796
C58_3 C 0.09689(14) 0.29446(16) 0.68610(6)
C59_3 C 0.07954(14) 0.28261(15) 0.66050(6)
C60_3 C 0.05428(13) 0.30111(17) 0.70494(6)
H27_3 H 0.0151 0.2982 0.7005
C61_3 C 0.07036(13) 0.31197(15) 0.72986(6)
H28_3 H 0.0419 0.3161 0.7426
C62_3 C 0.11136(13) 0.36103(15) 0.78085(6)
C63_3 C 0.08183(15) 0.41325(15) 0.77337(6)
H29_3 H 0.0830 0.4257 0.7561
C64_3 C 0.05102(15) 0.44684(16) 0.79066(6)
H30_3 H 0.0309 0.4819 0.7852
C65_3 C 0.04949(14) 0.42921(15) 0.81624(6)
C66_3 C 0.01981(14) 0.46694(17) 0.83407(6)
C67_3 C 0.07677(14) 0.37616(16) 0.82386(6)
H31_3 H 0.0740 0.3629 0.8410
C68_3 C 0.10787(14) 0.34282(16) 0.80649(6)
H32_3 H 0.1271 0.3072 0.8119
C69_3 C 0.24295(13) 0.37233(15) 0.82391(6)
C70_3 C 0.22050(15) 0.42077(14) 0.80968(6)
H33_3 H 0.2231 0.4199 0.7917
C71_3 C 0.19494(14) 0.46920(15) 0.82146(6)
H34_3 H 0.1796 0.5016 0.8117
C72_3 C 0.19167(14) 0.47043(15) 0.84780(6)
C73_3 C 0.16221(15) 0.51937(17) 0.86037(6)
N9_3 N 0.13745(16) 0.55738(16) 0.87048(6)
C74_3 C 0.21616(17) 0.42366(18) 0.86244(6)
H35_3 H 0.2146 0.4253 0.8805
C75_3 C 0.24208(16) 0.37611(17) 0.85070(6)
H36_3 H 0.2597 0.3453 0.8606
C76_3 C 0.31209(14) 0.28214(14) 0.82269(6)
C77_3 C 0.36074(15) 0.30892(16) 0.83254(6)
H37_3 H 0.3640 0.3519 0.8327
C78_3 C 0.40485(15) 0.27363(15) 0.84213(6)
H38_3 H 0.4389 0.2920 0.8482
C79_3 C 0.39832(14) 0.21045(16) 0.84274(6)
C80_3 C 0.44403(14) 0.17254(16) 0.85140(6)
N10_3 N 0.47872(12) 0.13947(14) 0.85788(5)
C81_3 C 0.34829(15) 0.18332(16) 0.83368(6)
H39_3 H 0.3434 0.1406 0.8346
C82_3 C 0.30635(16) 0.21929(15) 0.82338(6)
H40_3 H 0.2730 0.2010 0.8166
C83_3 C 0.32023(14) 0.18559(16) 0.76122(6)
C84_3 C 0.36591(15) 0.22336(16) 0.76843(6)
H41_3 H 0.3611 0.2661 0.7687
C85_3 C 0.41789(14) 0.19818(17) 0.77517(7)
H42_3 H 0.4488 0.2235 0.7800
C86_3 C 0.42429(15) 0.13622(18) 0.77475(7)
C87_3 C 0.47717(18) 0.1082(2) 0.78156(10)
N11_3 N 0.51930(17) 0.08299(19) 0.78760(10)
C88_3 C 0.37948(17) 0.09765(19) 0.76766(8)
H43_3 H 0.3843 0.0549 0.7678
C89_3 C 0.32776(16) 0.12332(17) 0.76038(7)
H44_3 H 0.2975 0.0980 0.7548
C90_3 C 0.23118(14) 0.18462(16) 0.73355(6)
C91_3 C 0.25721(14) 0.16650(16) 0.71116(6)
H45_3 H 0.2974 0.1702 0.7094
C92_3 C 0.22530(15) 0.14309(17) 0.69126(7)
H46_3 H 0.2434 0.1309 0.6759
C93_3 C 0.16628(15) 0.13771(16) 0.69402(7)
C94_3 C 0.13103(16) 0.11586(16) 0.67362(7)
C95_3 C 0.13896(16) 0.15516(18) 0.71676(8)
H47_3 H 0.0989 0.1510 0.7187
C96_3 C 0.17205(15) 0.17857(18) 0.73619(7)
H48_3 H 0.1543 0.1907 0.7516
Cu4_3 Cu 0.535838(16) 0.075157(19) 0.863560(7)
N13_3 N 0.00762(12) 0.71941(13) 0.91170(5)
N16_3 N 0.02128(12) 0.63947(14) 0.85788(5)
C1_2 C 0.79264(12) 0.50669(13) 0.02442(5)
C2_2 C 0.74750(13) 0.55062(14) 0.02063(6)
C3_2 C 0.74403(12) 0.50738(13) 0.04075(6)
C4_3 C 0.84357(12) 0.48423(13) 0.01664(5)
C5_2 C 0.72599(13) 0.59795(14) 0.00769(6)
C6_3 C 0.71457(12) 0.48184(14) 0.06029(6)
C7_3 C 0.94274(12) 0.35733(13) 0.03456(6)
H1_3 H 0.9677 0.3293 0.0266
C8_3 C 0.87615(11) 0.44072(12) 0.03180(5)
C9_3 C 0.87165(13) 0.44086(13) 0.05847(5)
H2_3 H 0.8483 0.4702 0.0666
C10_3 C 0.90110(13) 0.39851(15) 0.07299(6)
H3_3 H 0.8968 0.3979 0.0909
C11_3 C 0.93675(12) 0.35731(13) 0.06117(5)
C12_3 C 0.96719(13) 0.31411(15) 0.07633(6)
N1_3 N 0.99238(12) 0.28059(13) 0.08830(5)
C13_3 C 0.91241(12) 0.39783(13) 0.02025(5)
H4_3 H 0.9158 0.3971 0.0023
H5_2 H 0.9474 0.5203 0.0016
H9_2 H 0.8359 0.6260 0.0073
C28_2 C 0.66725(13) 0.61827(14) 0.01295(6)
C29_2 C 0.65420(15) 0.68074(16) 0.01376(8)
H13_2 H 0.6834 0.7097 0.0108
C30_2 C 0.59890(16) 0.70034(18) 0.01880(9)
H14_2 H 0.5906 0.7425 0.0196
C31_2 C 0.55560(15) 0.6575(2) 0.02264(8)
C32_3 C 0.49864(17) 0.6802(2) 0.02675(8)
N4_3 N 0.45335(16) 0.6970(2) 0.03049(8)
C33_2 C 0.56825(15) 0.59646(18) 0.02131(7)
H15_2 H 0.5387 0.5677 0.0238
C34_2 C 0.62249(14) 0.57640(16) 0.01651(7)
H16_2 H 0.6300 0.5341 0.0156
C35_2 C 0.66367(13) 0.51345(14) 0.07036(6)
C36_2 C 0.66493(14) 0.57557(15) 0.07350(6)
H17_2 H 0.6994 0.5969 0.0704
C37_2 C 0.61700(15) 0.60749(15) 0.08107(7)
H18_2 H 0.6184 0.6503 0.0830
C38_2 C 0.56617(14) 0.57548(15) 0.08591(6)
C39_2 C 0.51690(15) 0.61003(15) 0.09174(7)
C40_2 C 0.56473(15) 0.51196(16) 0.08338(7)
H19_3 H 0.5305 0.4904 0.0867
C41_3 C 0.61352(14) 0.48083(15) 0.07606(7)
H20_3 H 0.6131 0.4378 0.0749
C42_3 C 0.73280(13) 0.42322(14) 0.07056(6)
C43_3 C 0.73088(15) 0.41046(15) 0.09692(6)
H21_3 H 0.7159 0.4398 0.1083
C44_3 C 0.75039(16) 0.35613(16) 0.10608(6)
H22_3 H 0.7498 0.3484 0.1238
C45_3 C 0.77115(14) 0.31226(15) 0.08945(6)
C46_3 C 0.79061(17) 0.25538(18) 0.09891(7)
N6_3 N 0.80602(17) 0.20880(16) 0.10644(7)
C47_3 C 0.77221(13) 0.32317(14) 0.06334(6)
H23_3 H 0.7858 0.2929 0.0520
C48_3 C 0.75336(13) 0.37830(14) 0.05413(6)
H24_3 H 0.7543 0.3859 0.0364
C14_3 C 0.86506(12) 0.50351(12) 0.99129(5)
C15_3 C 0.92198(12) 0.52018(13) 0.98759(5)
C16_3 C 0.94173(13) 0.53657(14) 0.96375(6)
H6_3 H 0.9805 0.5474 0.9614
C17_3 C 0.90422(12) 0.53690(13) 0.94348(6)
C18_3 C 0.92395(13) 0.55208(14) 0.91880(6)
N2_3 N 0.94053(12) 0.56361(13) 0.89873(5)
C19_3 C 0.84628(12) 0.52032(14) 0.94678(6)
H7_3 H 0.8207 0.5206 0.9328
C20_3 C 0.82776(12) 0.50377(14) 0.97062(6)
H8_3 H 0.7891 0.4924 0.9730
C21_3 C 0.75898(13) 0.62984(14) 0.98832(6)
C22_3 C 0.81803(12) 0.64008(13) 0.99222(6)
C23_3 C 0.84987(13) 0.67080(13) 0.97398(6)
H10_3 H 0.8893 0.6781 0.9766
C24_3 C 0.82331(13) 0.69076(14) 0.95189(6)
C25_3 C 0.85675(15) 0.72361(15) 0.93301(6)
N3_3 N 0.88328(12) 0.74782(13) 0.91831(5)
C26_3 C 0.76491(15) 0.68280(17) 0.94837(7)
H11_3 H 0.7467 0.6990 0.9338
C27_3 C 0.73425(14) 0.65163(16) 0.96598(6)
H12_3 H 0.6949 0.6445 0.9630
N8_3 N 0.99766(12) 0.50064(13) 0.84752(5)
C32_4 C 0.00136(17) 0.3198(2) 0.52675(8)
N4_4 N 0.04665(16) 0.3030(2) 0.53049(8)
C1_3 C 0.70736(12) 0.49331(13) 0.52442(5)
C2_3 C 0.75250(13) 0.44938(14) 0.52063(6)
C3_3 C 0.75597(12) 0.49262(13) 0.54075(6)
C4_4 C 0.65643(12) 0.51577(13) 0.51664(5)
C5_3 C 0.77401(13) 0.40205(14) 0.50769(6)
C6_4 C 0.78543(12) 0.51816(14) 0.56029(6)
C7_4 C 0.55726(12) 0.64267(13) 0.53456(6)
H1_4 H 0.5323 0.6707 0.5266
C8_4 C 0.62385(11) 0.55928(12) 0.53180(5)
C9_4 C 0.62835(13) 0.55914(13) 0.55847(5)
H2_4 H 0.6517 0.5298 0.5666
C10_4 C 0.59890(13) 0.60149(15) 0.57299(6)
H3_4 H 0.6032 0.6021 0.5909
C11_4 C 0.56325(12) 0.64269(13) 0.56117(5)
C12_4 C 0.53281(13) 0.68589(15) 0.57633(6)
N1_4 N 0.50762(12) 0.71941(13) 0.58830(5)
C13_4 C 0.58759(12) 0.60217(13) 0.52025(5)
H4_4 H 0.5842 0.6029 0.5023
C14_4 C 0.63494(12) 0.49649(12) 0.49129(5)
C15_4 C 0.57802(12) 0.47982(13) 0.48759(5)
H5_3 H 0.5526 0.4797 0.5016
C16_4 C 0.55827(13) 0.46343(14) 0.46375(6)
H6_4 H 0.5195 0.4526 0.4614
C17_4 C 0.59578(12) 0.46310(13) 0.44348(6)
C18_4 C 0.57605(13) 0.44792(14) 0.41880(6)
N2_4 N 0.55947(12) 0.43639(13) 0.39873(5)
C19_4 C 0.65372(12) 0.47968(14) 0.44678(6)
H7_4 H 0.6793 0.4794 0.4328
C20_4 C 0.67224(12) 0.49623(14) 0.47062(6)
H8_4 H 0.7109 0.5076 0.4730
C21_4 C 0.74102(13) 0.37016(14) 0.48832(6)
C22_4 C 0.68197(12) 0.35992(13) 0.49222(6)
H9_3 H 0.6641 0.3740 0.5073
C23_4 C 0.65013(13) 0.32920(13) 0.47398(6)
H10_4 H 0.6107 0.3219 0.4766
C24_4 C 0.67669(13) 0.30924(14) 0.45189(6)
C25_4 C 0.64325(15) 0.27639(15) 0.43301(6)
N3_4 N 0.61672(12) 0.25218(13) 0.41831(5)
C26_4 C 0.73509(15) 0.31720(17) 0.44837(7)
H11_4 H 0.7533 0.3010 0.4338
C27_4 C 0.76575(14) 0.34837(16) 0.46598(6)
H12_4 H 0.8051 0.3555 0.4630
C28_3 C 0.83275(13) 0.38173(14) 0.51295(6)
C29_3 C 0.84580(15) 0.31926(16) 0.51376(8)
H13_3 H 0.8166 0.2903 0.5108
C30_3 C 0.90110(16) 0.29966(18) 0.51880(9)
H14_3 H 0.9094 0.2575 0.5196
C31_3 C 0.94440(15) 0.3425(2) 0.52264(8)
C33_3 C 0.93175(15) 0.40354(18) 0.52131(7)
H15_3 H 0.9613 0.4323 0.5238
C34_3 C 0.87751(14) 0.42360(16) 0.51651(7)
H16_3 H 0.8700 0.4659 0.5156
C35_3 C 0.83633(13) 0.48655(14) 0.57036(6)
C36_3 C 0.83507(14) 0.42443(15) 0.57350(6)
H17_3 H 0.8006 0.4031 0.5704
C37_3 C 0.88300(15) 0.39251(15) 0.58107(7)
H18_3 H 0.8816 0.3497 0.5830
C38_3 C 0.93383(14) 0.42452(15) 0.58591(6)
C39_3 C 0.98310(15) 0.38997(15) 0.59174(7)
C40_3 C 0.93527(15) 0.48804(16) 0.58338(7)
H19_4 H 0.9695 0.5096 0.5867
C41_4 C 0.88648(14) 0.51917(15) 0.57606(7)
H20_4 H 0.8869 0.5622 0.5749
C42_4 C 0.76720(13) 0.57678(14) 0.57056(6)
C43_4 C 0.76912(15) 0.58954(15) 0.59692(6)
H21_4 H 0.7841 0.5602 0.6083
C44_4 C 0.74961(16) 0.64387(16) 0.60608(6)
H22_4 H 0.7502 0.6516 0.6238
C45_4 C 0.72885(14) 0.68774(15) 0.58945(6)
C46_4 C 0.70939(17) 0.74462(18) 0.59891(7)
N6_4 N 0.69398(17) 0.79120(16) 0.60644(7)
C47_4 C 0.72779(13) 0.67683(14) 0.56334(6)
H23_4 H 0.7142 0.7071 0.5520
C48_4 C 0.74664(13) 0.62170(14) 0.55413(6)
H24_4 H 0.7457 0.6141 0.5364
C49_4 C 0.30310(13) 0.69829(15) 0.27092(5)
C50_4 C 0.25865(14) 0.70172(14) 0.28943(6)
C51_4 C 0.25774(14) 0.74051(16) 0.26755(6)
C52_4 C 0.35385(13) 0.67359(15) 0.26292(6)
C53_4 C 0.23459(13) 0.68213(14) 0.31119(6)
C54_4 C 0.23539(14) 0.78726(15) 0.25435(6)
C55_4 C 0.37195(13) 0.68304(14) 0.23664(6)
C56_4 C 0.33097(14) 0.68767(16) 0.21736(6)
H25_4 H 0.2919 0.6828 0.2215
C57_4 C 0.34607(14) 0.69924(18) 0.19236(6)
H26_4 H 0.3176 0.7028 0.1796
C58_4 C 0.40311(14) 0.70554(16) 0.18610(6)
C59_4 C 0.42046(14) 0.71739(15) 0.16050(6)
C60_4 C 0.44572(13) 0.69889(17) 0.20494(6)
H27_4 H 0.4849 0.7018 0.2005
C61_4 C 0.42964(13) 0.68803(15) 0.22986(6)
H28_4 H 0.4581 0.6839 0.2426
C62_4 C 0.38864(13) 0.63897(15) 0.28085(6)
C63_4 C 0.41817(15) 0.58675(15) 0.27337(6)
H29_4 H 0.4170 0.5743 0.2561
C64_4 C 0.44898(15) 0.55316(16) 0.29066(6)
H30_4 H 0.4691 0.5181 0.2852
C65_4 C 0.45051(14) 0.57079(15) 0.31624(6)
C66_4 C 0.48019(14) 0.53306(17) 0.33407(6)
N8_4 N 0.50234(12) 0.49936(13) 0.34752(5)
C67_4 C 0.42323(14) 0.62384(16) 0.32386(6)
H31_4 H 0.4260 0.6371 0.3410
C68_4 C 0.39213(14) 0.65718(16) 0.30649(6)
H32_4 H 0.3729 0.6928 0.3119
C69_4 C 0.25705(13) 0.62767(15) 0.32391(6)
C70_4 C 0.27950(15) 0.57923(14) 0.30968(6)
H33_4 H 0.2769 0.5801 0.2917
C71_4 C 0.30506(14) 0.53080(15) 0.32146(6)
H34_4 H 0.3204 0.4984 0.3117
C72_4 C 0.30833(14) 0.52957(15) 0.34780(6)
C73_4 C 0.33779(15) 0.48063(17) 0.36037(6)
N9_4 N 0.36255(16) 0.44262(16) 0.37048(6)
C74_4 C 0.28384(17) 0.57634(18) 0.36244(6)
H35_4 H 0.2854 0.5747 0.3805
C75_4 C 0.25792(16) 0.62389(17) 0.35070(6)
H36_4 H 0.2403 0.6547 0.3606
C76_4 C 0.18791(14) 0.71786(14) 0.32269(6)
C77_4 C 0.13926(15) 0.69108(16) 0.33254(6)
H37_4 H 0.1360 0.6481 0.3327
C78_4 C 0.09515(15) 0.72637(15) 0.34213(6)
H38_4 H 0.0611 0.7080 0.3482
C79_4 C 0.10168(14) 0.78955(16) 0.34274(6)
C80_4 C 0.05597(14) 0.82746(16) 0.35140(6)
N10_4 N 0.02128(12) 0.86053(14) 0.35788(5)
C81_4 C 0.15171(15) 0.81668(16) 0.33368(6)
H39_4 H 0.1566 0.8594 0.3346
C82_4 C 0.19365(16) 0.78071(15) 0.32338(6)
H40_4 H 0.2270 0.7990 0.3166
C83_4 C 0.17977(14) 0.81441(16) 0.26122(6)
C84_4 C 0.13409(15) 0.77664(16) 0.26843(6)
H41_4 H 0.1389 0.7339 0.2687
C85_4 C 0.08211(14) 0.80182(17) 0.27517(7)
H42_4 H 0.0512 0.7765 0.2800
C86_4 C 0.07571(15) 0.86378(18) 0.27475(7)
C87_4 C 0.02283(18) 0.8918(2) 0.28156(10)
C88_4 C 0.12052(17) 0.90235(19) 0.26766(8)
H43_4 H 0.1157 0.9451 0.2678
C89_4 C 0.17224(16) 0.87668(17) 0.26038(7)
H44_4 H 0.2025 0.9020 0.2548
C90_4 C 0.26882(14) 0.81538(16) 0.23355(6)
C91_4 C 0.24279(14) 0.83350(16) 0.21116(6)
H45_4 H 0.2026 0.8298 0.2094
C92_4 C 0.27470(15) 0.85691(17) 0.19126(7)
H46_4 H 0.2566 0.8691 0.1759
C93_4 C 0.33372(15) 0.86229(16) 0.19402(7)
C94_4 C 0.36897(16) 0.88414(16) 0.17362(7)
C95_4 C 0.36104(16) 0.84484(18) 0.21676(8)
H47_4 H 0.4011 0.8490 0.2187
C96_4 C 0.32795(15) 0.82143(18) 0.23619(7)
H48_4 H 0.3457 0.8093 0.2516
Cu7_4 Cu 0.447588(16) 0.773922(18) 0.603418(7)
N13_4 N 0.49238(12) 0.28059(13) 0.41170(5)
N16_4 N 0.47872(12) 0.36053(14) 0.35788(5)
N11_4 N 0.98070(17) 0.91701(19) 0.28760(10)
Cu4_4 Cu 0.964162(16) 0.924843(19) 0.363560(7)
C32_5 C 0.00136(17) 0.1802(2) 0.02675(8)
N4_5 N 0.04665(16) 0.1970(2) 0.03049(8)
N5_3 N 0.02010(13) 0.14350(14) 0.09577(6)
C14_5 C 0.63494(12) 0.00351(12) 0.99129(5)
C15_5 C 0.57802(12) 0.02018(13) 0.98759(5)
C16_5 C 0.55827(13) 0.03657(14) 0.96375(6)
H6_5 H 0.5195 0.0474 0.9614
C17_5 C 0.59578(12) 0.03690(13) 0.94348(6)
C18_5 C 0.57605(13) 0.05208(14) 0.91880(6)
N2_5 N 0.55947(12) 0.06361(13) 0.89873(5)
C19_5 C 0.65372(12) 0.02032(14) 0.94678(6)
H7_5 H 0.6793 0.0206 0.9328
C20_5 C 0.67224(12) 0.00377(14) 0.97062(6)
C21_5 C 0.74102(13) 0.12984(14) 0.98832(6)
C22_5 C 0.68197(12) 0.14008(13) 0.99222(6)
C23_5 C 0.65013(13) 0.17080(13) 0.97398(6)
H10_5 H 0.6107 0.1781 0.9766
C24_5 C 0.67669(13) 0.19076(14) 0.95189(6)
C25_5 C 0.64325(15) 0.22361(15) 0.93301(6)
N3_5 N 0.61672(12) 0.24782(13) 0.91831(5)
C26_5 C 0.73509(15) 0.18280(17) 0.94837(7)
H11_5 H 0.7533 0.1990 0.9338
C27_5 C 0.76575(14) 0.15163(16) 0.96598(6)
H12_5 H 0.8051 0.1445 0.9630
N8_5 N 0.50234(12) 0.00064(13) 0.84752(5)
H34_5 H 0.3204 0.0016 0.8117
C73_5 C 0.33779(15) 0.01937(17) 0.86037(6)
N9_5 N 0.36255(16) 0.05738(16) 0.87048(6)
N14_3 N 0.52010(13) 0.35650(14) 0.90423(6)
N15_3 N 0.56733(12) 0.27412(13) 0.86023(5)
N17_3 N 0.60146(13) 0.09874(14) 0.84196(6)
C4_5 C 0.65643(12) 0.98423(13) 0.01664(5)
C6_5 C 0.78543(12) 0.98184(14) 0.06029(6)
C7_5 C 0.55726(12) 0.85733(13) 0.03456(6)
H1_5 H 0.5323 0.8293 0.0266
C8_5 C 0.62385(11) 0.94072(12) 0.03180(5)
C9_5 C 0.62835(13) 0.94086(13) 0.05847(5)
H2_5 H 0.6517 0.9702 0.0666
C10_5 C 0.59890(13) 0.89851(15) 0.07299(6)
H3_5 H 0.6032 0.8979 0.0909
C11_5 C 0.56325(12) 0.85731(13) 0.06117(5)
C12_5 C 0.53281(13) 0.81411(15) 0.07633(6)
C13_5 C 0.58759(12) 0.89783(13) 0.02025(5)
H4_5 H 0.5842 0.8971 0.0023
H19_5 H 0.9695 0.9904 0.0867
C41_5 C 0.88648(14) 0.98083(15) 0.07606(7)
H20_5 H 0.8869 0.9378 0.0749
C42_5 C 0.76720(13) 0.92322(14) 0.07056(6)
C43_5 C 0.76912(15) 0.91046(15) 0.09692(6)
H21_5 H 0.7841 0.9398 0.1083
C44_5 C 0.74961(16) 0.85613(16) 0.10608(6)
H22_5 H 0.7502 0.8484 0.1238
C45_5 C 0.72885(14) 0.81226(15) 0.08945(6)
C46_5 C 0.70939(17) 0.75538(18) 0.09891(7)
N6_5 N 0.69398(17) 0.70880(16) 0.10644(7)
C47_5 C 0.72779(13) 0.82317(14) 0.06334(6)
H23_5 H 0.7142 0.7929 0.0520
C48_5 C 0.74664(13) 0.87830(14) 0.05413(6)
H24_5 H 0.7457 0.8859 0.0364
H8_5 H 0.7109 0.9924 0.9730
C49_5 C 0.30310(13) 0.80171(15) 0.77092(5)
C50_5 C 0.25865(14) 0.79828(14) 0.78943(6)
C51_5 C 0.25774(14) 0.75949(16) 0.76755(6)
C52_5 C 0.35385(13) 0.82641(15) 0.76292(6)
C53_5 C 0.23459(13) 0.81787(14) 0.81119(6)
C54_5 C 0.23539(14) 0.71274(15) 0.75435(6)
C55_5 C 0.37195(13) 0.81696(14) 0.73664(6)
C56_5 C 0.33097(14) 0.81233(16) 0.71736(6)
H25_5 H 0.2919 0.8172 0.7215
C57_5 C 0.34607(14) 0.80076(18) 0.69236(6)
H26_5 H 0.3176 0.7972 0.6796
C58_5 C 0.40311(14) 0.79446(16) 0.68610(6)
C59_5 C 0.42046(14) 0.78261(15) 0.66050(6)
N7_3 N 0.43267(12) 0.77412(13) 0.63977(5)
C60_5 C 0.44572(13) 0.80111(17) 0.70494(6)
H27_5 H 0.4849 0.7982 0.7005
C61_5 C 0.42964(13) 0.81197(15) 0.72986(6)
H28_5 H 0.4581 0.8161 0.7426
C62_5 C 0.38864(13) 0.86103(15) 0.78085(6)
C63_5 C 0.41817(15) 0.91325(15) 0.77337(6)
H29_5 H 0.4170 0.9257 0.7561
C64_5 C 0.44898(15) 0.94684(16) 0.79066(6)
H30_5 H 0.4691 0.9819 0.7852
C65_5 C 0.45051(14) 0.92921(15) 0.81624(6)
C66_5 C 0.48019(14) 0.96694(17) 0.83407(6)
C67_5 C 0.42323(14) 0.87616(16) 0.82386(6)
H31_5 H 0.4260 0.8629 0.8410
C68_5 C 0.39213(14) 0.84282(16) 0.80649(6)
H32_5 H 0.3729 0.8072 0.8119
C69_5 C 0.25705(13) 0.87233(15) 0.82391(6)
C70_5 C 0.27950(15) 0.92077(14) 0.80968(6)
H33_5 H 0.2769 0.9199 0.7917
C71_5 C 0.30506(14) 0.96920(15) 0.82146(6)
C72_5 C 0.30833(14) 0.97043(15) 0.84780(6)
C74_5 C 0.28384(17) 0.92366(18) 0.86244(6)
H35_5 H 0.2854 0.9253 0.8805
C75_5 C 0.25792(16) 0.87611(17) 0.85070(6)
H36_5 H 0.2403 0.8453 0.8606
C76_5 C 0.18791(14) 0.78214(14) 0.82269(6)
C77_5 C 0.13926(15) 0.80892(16) 0.83254(6)
H37_5 H 0.1360 0.8519 0.8327
C78_5 C 0.09515(15) 0.77363(15) 0.84213(6)
H38_5 H 0.0611 0.7920 0.8482
C79_5 C 0.10168(14) 0.71045(16) 0.84274(6)
C80_5 C 0.05597(14) 0.67254(16) 0.85140(6)
C81_5 C 0.15171(15) 0.68332(16) 0.83368(6)
H39_5 H 0.1566 0.6406 0.8346
C82_5 C 0.19365(16) 0.71929(15) 0.82338(6)
H40_5 H 0.2270 0.7010 0.8166
C83_5 C 0.17977(14) 0.68559(16) 0.76122(6)
C84_5 C 0.13409(15) 0.72336(16) 0.76843(6)
H41_5 H 0.1389 0.7661 0.7687
C85_5 C 0.08211(14) 0.69818(17) 0.77517(7)
H42_5 H 0.0512 0.7235 0.7800
C86_5 C 0.07571(15) 0.63622(18) 0.77475(7)
C87_5 C 0.02283(18) 0.6082(2) 0.78156(10)
C88_5 C 0.12052(17) 0.59765(19) 0.76766(8)
H43_5 H 0.1157 0.5549 0.7678
C89_5 C 0.17224(16) 0.62332(17) 0.76038(7)
H44_5 H 0.2025 0.5980 0.7548
C90_5 C 0.26882(14) 0.68462(16) 0.73355(6)
C91_5 C 0.24279(14) 0.66650(16) 0.71116(6)
H45_5 H 0.2026 0.6702 0.7094
C92_5 C 0.27470(15) 0.64309(17) 0.69126(7)
H46_5 H 0.2566 0.6309 0.6759
C93_5 C 0.33372(15) 0.63771(16) 0.69402(7)
C94_5 C 0.36897(16) 0.61586(16) 0.67362(7)
N12_3 N 0.39854(13) 0.59874(14) 0.65804(6)
C95_5 C 0.36104(16) 0.65516(18) 0.71676(8)
H47_5 H 0.4011 0.6510 0.7187
C96_5 C 0.32795(15) 0.67857(18) 0.73619(7)
H48_5 H 0.3457 0.6907 0.7516
N11_5 N 0.98070(17) 0.58299(19) 0.78760(10)
C49_6 C 0.19690(13) 0.19829(15) 0.27092(5)
C50_6 C 0.24135(14) 0.20172(14) 0.28943(6)
C51_6 C 0.24226(14) 0.24051(16) 0.26755(6)
C52_6 C 0.14615(13) 0.17359(15) 0.26292(6)
C53_6 C 0.26541(13) 0.18213(14) 0.31119(6)
C54_6 C 0.26461(14) 0.28726(15) 0.25435(6)
C55_6 C 0.12805(13) 0.18304(14) 0.23664(6)
C56_6 C 0.16903(14) 0.18767(16) 0.21736(6)
H25_6 H 0.2081 0.1828 0.2215
C57_6 C 0.15393(14) 0.19924(18) 0.19236(6)
H26_6 H 0.1824 0.2028 0.1796
C58_6 C 0.09689(14) 0.20554(16) 0.18610(6)
C59_6 C 0.07954(14) 0.21739(15) 0.16050(6)
N7_4 N 0.06733(12) 0.22588(13) 0.13977(5)
C60_6 C 0.05428(13) 0.19889(17) 0.20494(6)
H27_6 H 0.0151 0.2018 0.2005
C61_6 C 0.07036(13) 0.18803(15) 0.22986(6)
H28_6 H 0.0419 0.1839 0.2426
C62_6 C 0.11136(13) 0.13897(15) 0.28085(6)
C63_6 C 0.08183(15) 0.08675(15) 0.27337(6)
H29_6 H 0.0830 0.0743 0.2561
C64_6 C 0.05102(15) 0.05316(16) 0.29066(6)
H30_6 H 0.0309 0.0181 0.2852
C65_6 C 0.04949(14) 0.07079(15) 0.31624(6)
C66_6 C 0.01981(14) 0.03306(17) 0.33407(6)
C67_6 C 0.07677(14) 0.12384(16) 0.32386(6)
H31_6 H 0.0740 0.1371 0.3410
C68_6 C 0.10787(14) 0.15718(16) 0.30649(6)
H32_6 H 0.1271 0.1928 0.3119
C69_6 C 0.24295(13) 0.12767(15) 0.32391(6)
C70_6 C 0.22050(15) 0.07923(14) 0.30968(6)
H33_6 H 0.2231 0.0801 0.2917
C71_6 C 0.19494(14) 0.03080(15) 0.32146(6)
C72_6 C 0.19167(14) 0.02957(15) 0.34780(6)
C74_6 C 0.21616(17) 0.07634(18) 0.36244(6)
H35_6 H 0.2146 0.0747 0.3805
C75_6 C 0.24208(16) 0.12389(17) 0.35070(6)
H36_6 H 0.2597 0.1547 0.3606
C76_6 C 0.31209(14) 0.21786(14) 0.32269(6)
C77_6 C 0.36074(15) 0.19108(16) 0.33254(6)
H37_6 H 0.3640 0.1481 0.3327
C78_6 C 0.40485(15) 0.22637(15) 0.34213(6)
H38_6 H 0.4389 0.2080 0.3482
C79_6 C 0.39832(14) 0.28955(16) 0.34274(6)
C80_6 C 0.44403(14) 0.32746(16) 0.35140(6)
C81_6 C 0.34829(15) 0.31668(16) 0.33368(6)
H39_6 H 0.3434 0.3594 0.3346
C82_6 C 0.30635(16) 0.28071(15) 0.32338(6)
H40_6 H 0.2730 0.2990 0.3166
C83_6 C 0.32023(14) 0.31441(16) 0.26122(6)
C84_6 C 0.36591(15) 0.27664(16) 0.26843(6)
H41_6 H 0.3611 0.2339 0.2687
C85_6 C 0.41789(14) 0.30182(17) 0.27517(7)
H42_6 H 0.4488 0.2765 0.2800
C86_6 C 0.42429(15) 0.36378(18) 0.27475(7)
C87_6 C 0.47717(18) 0.3918(2) 0.28156(10)
N11_6 N 0.51930(17) 0.41701(19) 0.28760(10)
C88_6 C 0.37948(17) 0.40235(19) 0.26766(8)
H43_6 H 0.3843 0.4451 0.2678
C89_6 C 0.32776(16) 0.37668(17) 0.26038(7)
H44_6 H 0.2975 0.4020 0.2548
C90_6 C 0.23118(14) 0.31538(16) 0.23355(6)
C91_6 C 0.25721(14) 0.33350(16) 0.21116(6)
H45_6 H 0.2974 0.3298 0.2094
C92_6 C 0.22530(15) 0.35691(17) 0.19126(7)
H46_6 H 0.2434 0.3691 0.1759
C93_6 C 0.16628(15) 0.36229(16) 0.19402(7)
C94_6 C 0.13103(16) 0.38414(16) 0.17362(7)
N12_4 N 0.10146(13) 0.40126(14) 0.15804(6)
C95_6 C 0.13896(16) 0.34484(18) 0.21676(8)
H47_6 H 0.0989 0.3490 0.2187
C96_6 C 0.17205(15) 0.32143(18) 0.23619(7)
H48_6 H 0.1543 0.3093 0.2516
H34_6 H 0.1796 0.9984 0.3117
C73_6 C 0.16221(15) 0.98063(17) 0.36037(6)
N9_6 N 0.13745(16) 0.94262(16) 0.37048(6)
C4_6 C 0.84357(12) 0.01577(13) 0.51664(5)
C6_6 C 0.71457(12) 0.01816(14) 0.56029(6)
C7_6 C 0.94274(12) 0.14267(13) 0.53456(6)
H1_6 H 0.9677 0.1707 0.5266
C8_6 C 0.87615(11) 0.05928(12) 0.53180(5)
C9_6 C 0.87165(13) 0.05914(13) 0.55847(5)
H2_6 H 0.8483 0.0298 0.5666
C10_6 C 0.90110(13) 0.10149(15) 0.57299(6)
H3_6 H 0.8968 0.1021 0.5909
C11_6 C 0.93675(12) 0.14269(13) 0.56117(5)
C12_6 C 0.96719(13) 0.18589(15) 0.57633(6)
C13_6 C 0.91241(12) 0.10217(13) 0.52025(5)
H4_6 H 0.9158 0.1029 0.5023
H8_6 H 0.7891 0.0076 0.4730
H19_6 H 0.5305 0.0096 0.5867
C41_6 C 0.61352(14) 0.01917(15) 0.57606(7)
H20_6 H 0.6131 0.0622 0.5749
C42_6 C 0.73280(13) 0.07678(14) 0.57056(6)
C43_6 C 0.73088(15) 0.08954(15) 0.59692(6)
H21_6 H 0.7159 0.0602 0.6083
C44_6 C 0.75039(16) 0.14387(16) 0.60608(6)
H22_6 H 0.7498 0.1516 0.6238
C45_6 C 0.77115(14) 0.18774(15) 0.58945(6)
C46_6 C 0.79061(17) 0.24462(18) 0.59891(7)
N6_6 N 0.80602(17) 0.29120(16) 0.60644(7)
C47_6 C 0.77221(13) 0.17683(14) 0.56334(6)
H23_6 H 0.7858 0.2071 0.5520
C48_6 C 0.75336(13) 0.12170(14) 0.55413(6)
H24_6 H 0.7543 0.1141 0.5364
C1_4 C 0.79264(12) 0.99331(13) 0.52442(5)
C2_4 C 0.74750(13) 0.94938(14) 0.52063(6)
C3_4 C 0.74403(12) 0.99262(13) 0.54075(6)
C5_4 C 0.72599(13) 0.90205(14) 0.50769(6)
C14_6 C 0.86506(12) 0.99649(12) 0.49129(5)
C15_6 C 0.92198(12) 0.97982(13) 0.48759(5)
H5_4 H 0.9474 0.9797 0.5016
C16_6 C 0.94173(13) 0.96343(14) 0.46375(6)
H6_6 H 0.9805 0.9526 0.4614
C17_6 C 0.90422(12) 0.96310(13) 0.44348(6)
C18_6 C 0.92395(13) 0.94792(14) 0.41880(6)
N2_6 N 0.94053(12) 0.93639(13) 0.39873(5)
C19_6 C 0.84628(12) 0.97968(14) 0.44678(6)
H7_6 H 0.8207 0.9794 0.4328
C20_6 C 0.82776(12) 0.99623(14) 0.47062(6)
C21_6 C 0.75898(13) 0.87016(14) 0.48832(6)
C22_6 C 0.81803(12) 0.85992(13) 0.49222(6)
H9_4 H 0.8359 0.8740 0.5073
C23_6 C 0.84987(13) 0.82920(13) 0.47398(6)
H10_6 H 0.8893 0.8219 0.4766
C24_6 C 0.82331(13) 0.80924(14) 0.45189(6)
C25_6 C 0.85675(15) 0.77639(15) 0.43301(6)
N3_6 N 0.88328(12) 0.75218(13) 0.41831(5)
C26_6 C 0.76491(15) 0.81720(17) 0.44837(7)
H11_6 H 0.7467 0.8010 0.4338
C27_6 C 0.73425(14) 0.84837(16) 0.46598(6)
H12_6 H 0.6949 0.8555 0.4630
C28_4 C 0.66725(13) 0.88173(14) 0.51295(6)
C29_4 C 0.65420(15) 0.81926(16) 0.51376(8)
H13_4 H 0.6834 0.7903 0.5108
C30_4 C 0.59890(16) 0.79966(18) 0.51880(9)
H14_4 H 0.5906 0.7575 0.5196
C31_4 C 0.55560(15) 0.8425(2) 0.52264(8)
C32_6 C 0.49864(17) 0.8198(2) 0.52675(8)
N4_6 N 0.45335(16) 0.8030(2) 0.53049(8)
C33_4 C 0.56825(15) 0.90354(18) 0.52131(7)
H15_4 H 0.5387 0.9323 0.5238
C34_4 C 0.62249(14) 0.92360(16) 0.51651(7)
H16_4 H 0.6300 0.9659 0.5156
C35_4 C 0.66367(13) 0.98655(14) 0.57036(6)
C36_4 C 0.66493(14) 0.92443(15) 0.57350(6)
H17_4 H 0.6994 0.9031 0.5704
C37_4 C 0.61700(15) 0.89251(15) 0.58107(7)
H18_4 H 0.6184 0.8497 0.5830
C38_4 C 0.56617(14) 0.92452(15) 0.58591(6)
C39_4 C 0.51690(15) 0.88997(15) 0.59174(7)
N5_4 N 0.47990(13) 0.85650(14) 0.59577(6)
C40_4 C 0.56473(15) 0.98804(16) 0.58338(7)
N8_6 N 0.99766(12) 0.99936(13) 0.34752(5)
N14_4 N 0.97990(13) 0.64350(14) 0.40423(6)
N15_4 N 0.93267(12) 0.72588(13) 0.36023(5)
N17_4 N 0.89854(13) 0.90126(14) 0.34196(6)
C14_7 C 0.13494(12) 0.49649(12) 0.00871(5)
C15_7 C 0.07802(12) 0.47982(13) 0.01241(5)
C16_7 C 0.05827(13) 0.46343(14) 0.03625(6)
H6_7 H 0.0195 0.4526 0.0386
C17_7 C 0.09578(12) 0.46310(13) 0.05652(6)
C18_7 C 0.07605(13) 0.44792(14) 0.08120(6)
N2_7 N 0.05947(12) 0.43639(13) 0.10127(5)
C19_7 C 0.15372(12) 0.47968(14) 0.05322(6)
H7_7 H 0.1793 0.4794 0.0672
C20_7 C 0.17224(12) 0.49623(14) 0.02938(6)
H8_7 H 0.2109 0.5076 0.0270
C21_7 C 0.24102(13) 0.37016(14) 0.01168(6)
C22_7 C 0.18197(12) 0.35992(13) 0.00778(6)
C23_7 C 0.15013(13) 0.32920(13) 0.02602(6)
H10_7 H 0.1107 0.3219 0.0234
C24_7 C 0.17669(13) 0.30924(14) 0.04811(6)
C25_7 C 0.14325(15) 0.27639(15) 0.06699(6)
N3_7 N 0.11672(12) 0.25218(13) 0.08169(5)
C26_7 C 0.23509(15) 0.31720(17) 0.05163(7)
H11_7 H 0.2533 0.3010 0.0662
C27_7 C 0.26575(14) 0.34837(16) 0.03402(6)
H12_7 H 0.3051 0.3555 0.0370
N8_7 N 0.00234(12) 0.49936(13) 0.15248(5)
C1_5 C 0.20736(12) 0.49331(13) 0.97558(5)
C2_5 C 0.25250(13) 0.44938(14) 0.97937(6)
C3_5 C 0.25597(12) 0.49262(13) 0.95925(6)
C4_7 C 0.15643(12) 0.51577(13) 0.98336(5)
C5_5 C 0.27401(13) 0.40205(14) 0.99231(6)
C6_7 C 0.28543(12) 0.51816(14) 0.93971(6)
C7_7 C 0.05726(12) 0.64267(13) 0.96544(6)
H1_7 H 0.0323 0.6707 0.9734
C8_7 C 0.12385(11) 0.55928(12) 0.96820(5)
C9_7 C 0.12835(13) 0.55914(13) 0.94153(5)
H2_7 H 0.1517 0.5298 0.9334
C10_7 C 0.09890(13) 0.60149(15) 0.92701(6)
H3_7 H 0.1032 0.6021 0.9091
C11_7 C 0.06325(12) 0.64269(13) 0.93883(5)
C12_7 C 0.03281(13) 0.68589(15) 0.92367(6)
C13_7 C 0.08759(12) 0.60217(13) 0.97975(5)
H4_7 H 0.0842 0.6029 0.9977
H5_5 H 0.0526 0.4797 0.9984
H9_5 H 0.1641 0.3740 0.9927
C28_5 C 0.33275(13) 0.38173(14) 0.98705(6)
C29_5 C 0.34580(15) 0.31926(16) 0.98624(8)
H13_5 H 0.3166 0.2903 0.9892
C30_5 C 0.40110(16) 0.29966(18) 0.98120(9)
H14_5 H 0.4094 0.2575 0.9804
C31_5 C 0.44440(15) 0.3425(2) 0.97736(8)
C32_7 C 0.50136(17) 0.3198(2) 0.97325(8)
N4_7 N 0.54665(16) 0.3030(2) 0.96951(8)
C33_5 C 0.43175(15) 0.40354(18) 0.97869(7)
H15_5 H 0.4613 0.4323 0.9762
C34_5 C 0.37751(14) 0.42360(16) 0.98349(7)
H16_5 H 0.3700 0.4659 0.9844
C35_5 C 0.33633(13) 0.48655(14) 0.92964(6)
C36_5 C 0.33507(14) 0.42443(15) 0.92650(6)
H17_5 H 0.3006 0.4031 0.9296
C37_5 C 0.38300(15) 0.39251(15) 0.91893(7)
H18_5 H 0.3816 0.3497 0.9170
C38_5 C 0.43383(14) 0.42452(15) 0.91409(6)
C39_5 C 0.48310(15) 0.38997(15) 0.90826(7)
C40_5 C 0.43527(15) 0.48804(16) 0.91662(7)
H19_7 H 0.4695 0.5096 0.9133
C41_7 C 0.38648(14) 0.51917(15) 0.92394(7)
H20_7 H 0.3869 0.5622 0.9251
C42_7 C 0.26720(13) 0.57678(14) 0.92944(6)
C43_7 C 0.26912(15) 0.58954(15) 0.90308(6)
H21_7 H 0.2841 0.5602 0.8917
C44_7 C 0.24961(16) 0.64387(16) 0.89392(6)
H22_7 H 0.2502 0.6516 0.8762
C45_7 C 0.22885(14) 0.68774(15) 0.91055(6)
C46_7 C 0.20939(17) 0.74462(18) 0.90109(7)
N6_7 N 0.19398(17) 0.79120(16) 0.89356(7)
C47_7 C 0.22779(13) 0.67683(14) 0.93666(6)
H23_7 H 0.2142 0.7071 0.9480
C48_7 C 0.24664(13) 0.62170(14) 0.94587(6)
H24_7 H 0.2457 0.6141 0.9636
C49_7 C 0.80310(13) 0.69829(15) 0.22908(5)
C50_7 C 0.75865(14) 0.70172(14) 0.21057(6)
C51_7 C 0.75774(14) 0.74051(16) 0.23245(6)
C52_7 C 0.85385(13) 0.67359(15) 0.23708(6)
C53_7 C 0.73459(13) 0.68213(14) 0.18881(6)
C54_7 C 0.73539(14) 0.78726(15) 0.24565(6)
C55_7 C 0.87195(13) 0.68304(14) 0.26336(6)
C56_7 C 0.83097(14) 0.68767(16) 0.28264(6)
H25_7 H 0.7919 0.6828 0.2785
C57_7 C 0.84607(14) 0.69924(18) 0.30764(6)
H26_7 H 0.8176 0.7028 0.3204
C58_7 C 0.90311(14) 0.70554(16) 0.31390(6)
C59_7 C 0.92046(14) 0.71739(15) 0.33950(6)
C60_7 C 0.94572(13) 0.69889(17) 0.29506(6)
H27_7 H 0.9849 0.7018 0.2995
C61_7 C 0.92964(13) 0.68803(15) 0.27014(6)
H28_7 H 0.9581 0.6839 0.2574
C62_7 C 0.88864(13) 0.63897(15) 0.21915(6)
C63_7 C 0.91817(15) 0.58675(15) 0.22663(6)
H29_7 H 0.9170 0.5743 0.2439
C64_7 C 0.94898(15) 0.55316(16) 0.20934(6)
H30_7 H 0.9691 0.5181 0.2148
C65_7 C 0.95051(14) 0.57079(15) 0.18376(6)
C66_7 C 0.98019(14) 0.53306(17) 0.16593(6)
C67_7 C 0.92323(14) 0.62384(16) 0.17614(6)
H31_7 H 0.9260 0.6371 0.1590
C68_7 C 0.89213(14) 0.65718(16) 0.19351(6)
H32_7 H 0.8729 0.6928 0.1881
C69_7 C 0.75705(13) 0.62767(15) 0.17609(6)
C70_7 C 0.77950(15) 0.57923(14) 0.19032(6)
H33_7 H 0.7769 0.5801 0.2083
C71_7 C 0.80506(14) 0.53080(15) 0.17854(6)
H34_7 H 0.8204 0.4984 0.1883
C72_7 C 0.80833(14) 0.52957(15) 0.15220(6)
C73_7 C 0.83779(15) 0.48063(17) 0.13963(6)
N9_7 N 0.86255(16) 0.44262(16) 0.12952(6)
C74_7 C 0.78384(17) 0.57634(18) 0.13756(6)
H35_7 H 0.7854 0.5747 0.1195
C75_7 C 0.75792(16) 0.62389(17) 0.14930(6)
H36_7 H 0.7403 0.6547 0.1394
C76_7 C 0.68791(14) 0.71786(14) 0.17731(6)
C77_7 C 0.63926(15) 0.69108(16) 0.16746(6)
H37_7 H 0.6360 0.6481 0.1673
C78_7 C 0.59515(15) 0.72637(15) 0.15787(6)
H38_7 H 0.5611 0.7080 0.1518
C79_7 C 0.60168(14) 0.78955(16) 0.15726(6)
C80_7 C 0.55597(14) 0.82746(16) 0.14860(6)
C81_7 C 0.65171(15) 0.81668(16) 0.16632(6)
H39_7 H 0.6566 0.8594 0.1654
C82_7 C 0.69365(16) 0.78071(15) 0.17662(6)
H40_7 H 0.7270 0.7990 0.1834
C83_7 C 0.67977(14) 0.81441(16) 0.23878(6)
C84_7 C 0.63409(15) 0.77664(16) 0.23157(6)
H41_7 H 0.6389 0.7339 0.2313
C85_7 C 0.58211(14) 0.80182(17) 0.22483(7)
H42_7 H 0.5512 0.7765 0.2200
C86_7 C 0.57571(15) 0.86378(18) 0.22525(7)
C87_7 C 0.52283(18) 0.8918(2) 0.21844(10)
N11_7 N 0.48070(17) 0.91701(19) 0.21240(10)
C88_7 C 0.62052(17) 0.90235(19) 0.23234(8)
H43_7 H 0.6157 0.9451 0.2322
C89_7 C 0.67224(16) 0.87668(17) 0.23962(7)
H44_7 H 0.7025 0.9020 0.2452
C90_7 C 0.76882(14) 0.81538(16) 0.26645(6)
C91_7 C 0.74279(14) 0.83350(16) 0.28884(6)
H45_7 H 0.7026 0.8298 0.2906
C92_7 C 0.77470(15) 0.85691(17) 0.30874(7)
H46_7 H 0.7566 0.8691 0.3241
C93_7 C 0.83372(15) 0.86229(16) 0.30598(7)
C94_7 C 0.86897(16) 0.88414(16) 0.32638(7)
C95_7 C 0.86104(16) 0.84484(18) 0.28324(8)
H47_7 H 0.9011 0.8490 0.2813
C96_7 C 0.82795(15) 0.82143(18) 0.26381(7)
H48_7 H 0.8457 0.8093 0.2484
N11_8 N 0.01930(17) 0.08299(19) 0.71240(10)
C1_6 C 0.29264(12) 0.50669(13) 0.47558(5)
C2_6 C 0.24750(13) 0.55062(14) 0.47937(6)
C3_6 C 0.24403(12) 0.50738(13) 0.45925(6)
C4_8 C 0.34357(12) 0.48423(13) 0.48336(5)
C5_6 C 0.22599(13) 0.59795(14) 0.49231(6)
C6_8 C 0.21457(12) 0.48184(14) 0.43971(6)
C7_8 C 0.44274(12) 0.35733(13) 0.46544(6)
H1_8 H 0.4677 0.3293 0.4734
C8_8 C 0.37615(11) 0.44072(12) 0.46820(5)
C9_8 C 0.37165(13) 0.44086(13) 0.44153(5)
H2_8 H 0.3483 0.4702 0.4334
C10_8 C 0.40110(13) 0.39851(15) 0.42701(6)
H3_8 H 0.3968 0.3979 0.4091
C11_8 C 0.43675(12) 0.35731(13) 0.43883(5)
C12_8 C 0.46719(13) 0.31411(15) 0.42367(6)
C13_8 C 0.41241(12) 0.39783(13) 0.47975(5)
H4_8 H 0.4158 0.3971 0.4977
C14_8 C 0.36506(12) 0.50351(12) 0.50871(5)
C15_8 C 0.42198(12) 0.52018(13) 0.51241(5)
H5_6 H 0.4474 0.5203 0.4984
C16_8 C 0.44173(13) 0.53657(14) 0.53625(6)
H6_8 H 0.4805 0.5474 0.5386
C17_8 C 0.40422(12) 0.53690(13) 0.55652(6)
C18_8 C 0.42395(13) 0.55208(14) 0.58120(6)
N2_8 N 0.44053(12) 0.56361(13) 0.60127(5)
C19_8 C 0.34628(12) 0.52032(14) 0.55322(6)
H7_8 H 0.3207 0.5206 0.5672
C20_8 C 0.32776(12) 0.50377(14) 0.52938(6)
H8_8 H 0.2891 0.4924 0.5270
C21_8 C 0.25898(13) 0.62984(14) 0.51168(6)
C22_8 C 0.31803(12) 0.64008(13) 0.50778(6)
H9_6 H 0.3359 0.6260 0.4927
C23_8 C 0.34987(13) 0.67080(13) 0.52602(6)
H10_8 H 0.3893 0.6781 0.5234
C24_8 C 0.32331(13) 0.69076(14) 0.54811(6)
C25_8 C 0.35675(15) 0.72361(15) 0.56699(6)
N3_8 N 0.38328(12) 0.74782(13) 0.58169(5)
C26_8 C 0.26491(15) 0.68280(17) 0.55163(7)
H11_8 H 0.2467 0.6990 0.5662
C27_8 C 0.23425(14) 0.65163(16) 0.53402(6)
H12_8 H 0.1949 0.6445 0.5370
C28_6 C 0.16725(13) 0.61827(14) 0.48705(6)
C29_6 C 0.15420(15) 0.68074(16) 0.48624(8)
H13_6 H 0.1834 0.7097 0.4892
C30_6 C 0.09890(16) 0.70034(18) 0.48120(9)
H14_6 H 0.0906 0.7425 0.4804
C31_6 C 0.05560(15) 0.6575(2) 0.47736(8)
C33_6 C 0.06825(15) 0.59646(18) 0.47869(7)
H15_6 H 0.0387 0.5677 0.4762
C34_6 C 0.12249(14) 0.57640(16) 0.48349(7)
H16_6 H 0.1300 0.5341 0.4844
C35_6 C 0.16367(13) 0.51345(14) 0.42964(6)
C36_6 C 0.16493(14) 0.57557(15) 0.42650(6)
H17_6 H 0.1994 0.5969 0.4296
C37_6 C 0.11700(15) 0.60749(15) 0.41893(7)
H18_6 H 0.1184 0.6503 0.4170
C38_6 C 0.06617(14) 0.57548(15) 0.41409(6)
C39_6 C 0.01690(15) 0.61003(15) 0.40826(7)
C40_6 C 0.06473(15) 0.51196(16) 0.41662(7)
H19_8 H 0.0305 0.4904 0.4133
C41_8 C 0.11352(14) 0.48083(15) 0.42394(7)
H20_8 H 0.1131 0.4378 0.4251
C42_8 C 0.23280(13) 0.42322(14) 0.42944(6)
C43_8 C 0.23088(15) 0.41046(15) 0.40308(6)
H21_8 H 0.2159 0.4398 0.3917
C44_8 C 0.25039(16) 0.35613(16) 0.39392(6)
H22_8 H 0.2498 0.3484 0.3762
C45_8 C 0.27115(14) 0.31226(15) 0.41055(6)
C46_8 C 0.29061(17) 0.25538(18) 0.40109(7)
N6_8 N 0.30602(17) 0.20880(16) 0.39356(7)
C47_8 C 0.27221(13) 0.32317(14) 0.43666(6)
H23_8 H 0.2858 0.2929 0.4480
C48_8 C 0.25336(13) 0.37830(14) 0.44587(6)
H24_8 H 0.2543 0.3859 0.4636
C49_8 C 0.69690(13) 0.30171(15) 0.72908(5)
C50_8 C 0.74135(14) 0.29828(14) 0.71057(6)
C51_8 C 0.74226(14) 0.25949(16) 0.73245(6)
C52_8 C 0.64615(13) 0.32641(15) 0.73708(6)
C53_8 C 0.76541(13) 0.31787(14) 0.68881(6)
C54_8 C 0.76461(14) 0.21274(15) 0.74565(6)
C55_8 C 0.62805(13) 0.31696(14) 0.76336(6)
C56_8 C 0.66903(14) 0.31233(16) 0.78264(6)
H25_8 H 0.7081 0.3172 0.7785
C57_8 C 0.65393(14) 0.30076(18) 0.80764(6)
H26_8 H 0.6824 0.2972 0.8204
C58_8 C 0.59689(14) 0.29446(16) 0.81390(6)
C59_8 C 0.57954(14) 0.28261(15) 0.83950(6)
C60_8 C 0.55428(13) 0.30111(17) 0.79506(6)
H27_8 H 0.5151 0.2982 0.7995
C61_8 C 0.57036(13) 0.31197(15) 0.77014(6)
H28_8 H 0.5419 0.3161 0.7574
C62_8 C 0.61136(13) 0.36103(15) 0.71915(6)
C63_8 C 0.58183(15) 0.41325(15) 0.72663(6)
H29_8 H 0.5830 0.4257 0.7439
C64_8 C 0.55102(15) 0.44684(16) 0.70934(6)
H30_8 H 0.5309 0.4819 0.7148
C65_8 C 0.54949(14) 0.42921(15) 0.68376(6)
C66_8 C 0.51981(14) 0.46694(17) 0.66593(6)
N8_8 N 0.49766(12) 0.50064(13) 0.65248(5)
C67_8 C 0.57677(14) 0.37616(16) 0.67614(6)
H31_8 H 0.5740 0.3629 0.6590
C68_8 C 0.60787(14) 0.34282(16) 0.69351(6)
H32_8 H 0.6271 0.3072 0.6881
C69_8 C 0.74295(13) 0.37233(15) 0.67609(6)
C70_8 C 0.72050(15) 0.42077(14) 0.69032(6)
H33_8 H 0.7231 0.4199 0.7083
C71_8 C 0.69494(14) 0.46920(15) 0.67854(6)
H34_8 H 0.6796 0.5016 0.6883
C72_8 C 0.69167(14) 0.47043(15) 0.65220(6)
C73_8 C 0.66221(15) 0.51937(17) 0.63963(6)
N9_8 N 0.63745(16) 0.55738(16) 0.62952(6)
C74_8 C 0.71616(17) 0.42366(18) 0.63756(6)
H35_8 H 0.7146 0.4253 0.6195
C75_8 C 0.74208(16) 0.37611(17) 0.64930(6)
H36_8 H 0.7597 0.3453 0.6394
C76_8 C 0.81209(14) 0.28214(14) 0.67731(6)
C77_8 C 0.86074(15) 0.30892(16) 0.66746(6)
H37_8 H 0.8640 0.3519 0.6673
C78_8 C 0.90485(15) 0.27363(15) 0.65787(6)
H38_8 H 0.9389 0.2920 0.6518
C79_8 C 0.89832(14) 0.21045(16) 0.65726(6)
C80_8 C 0.94403(14) 0.17254(16) 0.64860(6)
C81_8 C 0.84829(15) 0.18332(16) 0.66632(6)
H39_8 H 0.8434 0.1406 0.6654
C82_8 C 0.80635(16) 0.21929(15) 0.67662(6)
H40_8 H 0.7730 0.2010 0.6834
C83_8 C 0.82023(14) 0.18559(16) 0.73878(6)
C84_8 C 0.86591(15) 0.22336(16) 0.73157(6)
H41_8 H 0.8611 0.2661 0.7313
C85_8 C 0.91789(14) 0.19818(17) 0.72483(7)
H42_8 H 0.9488 0.2235 0.7200
C86_8 C 0.92429(15) 0.13622(18) 0.72525(7)
C87_8 C 0.97717(18) 0.1082(2) 0.71844(10)
C88_8 C 0.87948(17) 0.09765(19) 0.73234(8)
H43_8 H 0.8843 0.0549 0.7322
C89_8 C 0.82776(16) 0.12332(17) 0.73962(7)
H44_8 H 0.7975 0.0980 0.7452
C90_8 C 0.73118(14) 0.18462(16) 0.76645(6)
C91_8 C 0.75721(14) 0.16650(16) 0.78884(6)
H45_8 H 0.7974 0.1702 0.7906
C92_8 C 0.72530(15) 0.14309(17) 0.80874(7)
H46_8 H 0.7434 0.1309 0.8241
C93_8 C 0.66628(15) 0.13771(16) 0.80598(7)
C94_8 C 0.63103(16) 0.11586(16) 0.82638(7)
C95_8 C 0.63896(16) 0.15516(18) 0.78324(8)
H47_8 H 0.5989 0.1510 0.7813
C96_8 C 0.67205(15) 0.17857(18) 0.76381(7)
H48_8 H 0.6543 0.1907 0.7484
C32_8 C 0.99864(17) 0.6802(2) 0.47325(8)
N4_8 N 0.95335(16) 0.6970(2) 0.46951(8)
C1_7 C 0.29264(12) 0.99331(13) 0.97558(5)
C2_7 C 0.24750(13) 0.94938(14) 0.97937(6)
C3_7 C 0.24403(12) 0.99262(13) 0.95925(6)
C5_7 C 0.22599(13) 0.90205(14) 0.99231(6)
H5_7 H 0.4474 0.9797 0.9984
H9_7 H 0.3359 0.8740 0.9927
C28_7 C 0.16725(13) 0.88173(14) 0.98705(6)
C29_7 C 0.15420(15) 0.81926(16) 0.98624(8)
H13_7 H 0.1834 0.7903 0.9892
C30_7 C 0.09890(16) 0.79966(18) 0.98120(9)
H14_7 H 0.0906 0.7575 0.9804
C31_7 C 0.05560(15) 0.8425(2) 0.97736(8)
C33_7 C 0.06825(15) 0.90354(18) 0.97869(7)
H15_7 H 0.0387 0.9323 0.9762
C34_7 C 0.12249(14) 0.92360(16) 0.98349(7)
H16_7 H 0.1300 0.9659 0.9844
C35_7 C 0.16367(13) 0.98655(14) 0.92964(6)
C36_7 C 0.16493(14) 0.92443(15) 0.92650(6)
H17_7 H 0.1994 0.9031 0.9296
C37_7 C 0.11700(15) 0.89251(15) 0.91893(7)
H18_7 H 0.1184 0.8497 0.9170
C38_7 C 0.06617(14) 0.92452(15) 0.91409(6)
C39_7 C 0.01690(15) 0.88997(15) 0.90826(7)
C40_7 C 0.06473(15) 0.98804(16) 0.91662(7)
C1_8 C 0.70736(12) 0.00669(13) 0.02442(5)
C2_8 C 0.75250(13) 0.05062(14) 0.02063(6)
C3_8 C 0.75597(12) 0.00738(13) 0.04075(6)
C5_8 C 0.77401(13) 0.09795(14) 0.00769(6)
H5_8 H 0.5526 0.0203 0.0016
H9_8 H 0.6641 0.1260 0.0073
C28_8 C 0.83275(13) 0.11827(14) 0.01295(6)
C29_8 C 0.84580(15) 0.18074(16) 0.01376(8)
H13_8 H 0.8166 0.2097 0.0108
C30_8 C 0.90110(16) 0.20034(18) 0.01880(9)
H14_8 H 0.9094 0.2425 0.0196
C31_8 C 0.94440(15) 0.1575(2) 0.02264(8)
C33_8 C 0.93175(15) 0.09646(18) 0.02131(7)
H15_8 H 0.9613 0.0677 0.0238
C34_8 C 0.87751(14) 0.07640(16) 0.01651(7)
H16_8 H 0.8700 0.0341 0.0156
C35_8 C 0.83633(13) 0.01345(14) 0.07036(6)
C36_8 C 0.83507(14) 0.07557(15) 0.07350(6)
H17_8 H 0.8006 0.0969 0.0704
C37_8 C 0.88300(15) 0.10749(15) 0.08107(7)
H18_8 H 0.8816 0.1503 0.0830
C38_8 C 0.93383(14) 0.07548(15) 0.08591(6)
C39_8 C 0.98310(15) 0.11003(15) 0.09174(7)
C40_8 C 0.93527(15) 0.01196(16) 0.08338(7)
loop_
_geom_bond_atom_site_label_1
_geom_bond_atom_site_label_2
_geom_bond_site_symmetry_1
_geom_bond_site_symmetry_2
B1 F1 1_555 1_555
F2 B1 1_555 1_555
F3 B1 1_555 1_555
F4 B1 1_555 1_555
B1_2 F1_2 1_555 1_555
F3_2 B1_2 1_555 1_555
F4_2 B1_2 1_555 1_555
B1_3 F1_3 1_555 1_555
F3_3 B1_3 1_555 1_555
F4_3 B1_3 1_555 1_555
B1_4 F1_4 1_555 1_555
F2_4 B1_4 1_555 1_555
F3_4 B1_4 1_555 1_555
F4_4 B1_4 1_555 1_555
B1_5 F1_5 1_555 1_555
F2_5 B1_5 1_555 1_555
F3_5 B1_5 1_555 1_555
F4_5 B1_5 1_555 1_555
B1_6 F1_6 1_555 1_555
F3_6 B1_6 1_555 1_555
F4_6 B1_6 1_555 1_555
B1_7 F1_7 1_555 1_555
F3_7 B1_7 1_555 1_555
F4_7 B1_7 1_555 1_555
B1_8 F1_8 1_555 1_555
F2_8 B1_8 1_555 1_555
F3_8 B1_8 1_555 1_555
F4_8 B1_8 1_555 1_555
B2 F5 1_555 1_555
F6 B2 1_555 1_555
F7 B2 1_555 1_555
F8 B2 1_555 1_555
B2_2 F5_2 1_555 1_555
F6_2 B2_2 1_555 1_555
F7_2 B2_2 1_555 1_555
F8_2 B2_2 1_555 1_555
B2_3 F5_3 1_555 1_555
F6_3 B2_3 1_555 1_555
F7_3 B2_3 1_555 1_555
F8_3 B2_3 1_555 1_555
B2_4 F5_4 1_555 1_555
F6_4 B2_4 1_555 1_555
F7_4 B2_4 1_555 1_555
F8_4 B2_4 1_555 1_555
B2_5 F5_5 1_555 1_555
F6_5 B2_5 1_555 1_555
F7_5 B2_5 1_555 1_555
F8_5 B2_5 1_555 1_555
B2_6 F5_6 1_555 1_555
F6_6 B2_6 1_555 1_555
F7_6 B2_6 1_555 1_555
F8_6 B2_6 1_555 1_555
B2_7 F5_7 1_555 1_555
F6_7 B2_7 1_555 1_555
F7_7 B2_7 1_555 1_555
F8_7 B2_7 1_555 1_555
B2_8 F5_8 1_555 1_555
F6_8 B2_8 1_555 1_555
F7_8 B2_8 1_555 1_555
F8_8 B2_8 1_555 1_555
B3 F9 1_555 1_555
F10 B3 1_555 1_555
F11 B3 1_555 1_555
F12 B3 1_555 1_555
B3_2 F9_2 1_555 1_555
F11_2 B3_2 1_555 1_555
F12_2 B3_2 1_555 1_555
B3_3 F9_3 1_555 1_555
F11_3 B3_3 1_555 1_555
F12_3 B3_3 1_555 1_555
B3_4 F9_4 1_555 1_555
F10_4 B3_4 1_555 1_555
F11_4 B3_4 1_555 1_555
F12_4 B3_4 1_555 1_555
B3_5 F9_5 1_555 1_555
F10_5 B3_5 1_555 1_555
F11_5 B3_5 1_555 1_555
F12_5 B3_5 1_555 1_555
B3_6 F9_6 1_555 1_555
F11_6 B3_6 1_555 1_555
F12_6 B3_6 1_555 1_555
B3_7 F9_7 1_555 1_555
F11_7 B3_7 1_555 1_555
F12_7 B3_7 1_555 1_555
B3_8 F9_8 1_555 1_555
F10_8 B3_8 1_555 1_555
F11_8 B3_8 1_555 1_555
F12_8 B3_8 1_555 1_555
C49 C50 1_555 1_555
C50 C51 1_555 1_555
C51 C49 1_555 1_555
C52 C49 1_555 1_555
C53 C50 1_555 1_555
C54 C51 1_555 1_555
C55 C52 1_555 1_555
C56 C55 1_555 1_555
H25 C56 1_555 1_555
C57 C56 1_555 1_555
H26 C57 1_555 1_555
C58 C57 1_555 1_555
C59 C58 1_555 1_555
N7 C59 1_555 1_555
C60 C58 1_555 1_555
H27 C60 1_555 1_555
C61 C55 1_555 1_555
H28 C61 1_555 1_555
C62 C52 1_555 1_555
C63 C62 1_555 1_555
H29 C63 1_555 1_555
C64 C63 1_555 1_555
H30 C64 1_555 1_555
C65 C64 1_555 1_555
C66 C65 1_555 1_555
C67 C65 1_555 1_555
H31 C67 1_555 1_555
C68 C62 1_555 1_555
H32 C68 1_555 1_555
C69 C53 1_555 1_555
C70 C69 1_555 1_555
H33 C70 1_555 1_555
C71 C70 1_555 1_555
C72 C71 1_555 1_555
C74 C72 1_555 1_555
H35 C74 1_555 1_555
C75 C69 1_555 1_555
H36 C75 1_555 1_555
C76 C53 1_555 1_555
C77 C76 1_555 1_555
H37 C77 1_555 1_555
C78 C77 1_555 1_555
H38 C78 1_555 1_555
C79 C78 1_555 1_555
C80 C79 1_555 1_555
N10 C80 1_555 1_555
C81 C79 1_555 1_555
H39 C81 1_555 1_555
C82 C76 1_555 1_555
H40 C82 1_555 1_555
C83 C54 1_555 1_555
C84 C83 1_555 1_555
H41 C84 1_555 1_555
C85 C84 1_555 1_555
H42 C85 1_555 1_555
C86 C85 1_555 1_555
C87 C86 1_555 1_555
C88 C86 1_555 1_555
H43 C88 1_555 1_555
C89 C83 1_555 1_555
H44 C89 1_555 1_555
C90 C54 1_555 1_555
C91 C90 1_555 1_555
H45 C91 1_555 1_555
C92 C91 1_555 1_555
H46 C92 1_555 1_555
C93 C92 1_555 1_555
C94 C93 1_555 1_555
N12 C94 1_555 1_555
C95 C93 1_555 1_555
H47 C95 1_555 1_555
C96 C90 1_555 1_555
H48 C96 1_555 1_555
Cu3 N12 1_555 1_555
Cu6 N7 1_555 1_555
C60 C61 1_555 1_555
C67 C68 1_555 1_555
C74 C75 1_555 1_555
C81 C82 1_555 1_555
C88 C89 1_555 1_555
C95 C96 1_555 1_555
C7 H1 1_555 1_555
C8 C4 1_555 1_555
C9 C8 1_555 1_555
H2 C9 1_555 1_555
C10 C9 1_555 1_555
H3 C10 1_555 1_555
C11 C7 1_555 1_555
C12 C11 1_555 1_555
N1 C12 1_555 1_555
C13 C7 1_555 1_555
H4 C13 1_555 1_555
H20 C41 1_555 1_555
C42 C6 1_555 1_555
C43 C42 1_555 1_555
H21 C43 1_555 1_555
C44 C43 1_555 1_555
H22 C44 1_555 1_555
C45 C44 1_555 1_555
C46 C45 1_555 1_555
N6 C46 1_555 1_555
C47 C45 1_555 1_555
H23 C47 1_555 1_555
C48 C42 1_555 1_555
H24 C48 1_555 1_555
Cu7 N1 1_555 1_555
C8 C13 1_555 1_555
C10 C11 1_555 1_555
C47 C48 1_555 1_555
Cu1 N2 1_555 1_555
Cu2 N3 1_555 1_555
C15 C14 1_555 1_555
C16 C15 1_555 1_555
H6 C16 1_555 1_555
C17 C16 1_555 1_555
C18 C17 1_555 1_555
N2 C18 1_555 1_555
C19 C17 1_555 1_555
H7 C19 1_555 1_555
C20 C14 1_555 1_555
C22 C21 1_555 1_555
C23 C22 1_555 1_555
H10 C23 1_555 1_555
C24 C23 1_555 1_555
C25 C24 1_555 1_555
N3 C25 1_555 1_555
C26 C24 1_555 1_555
H11 C26 1_555 1_555
C27 C21 1_555 1_555
H12 C27 1_555 1_555
N8 Cu1 1_555 1_555
N9 C73 1_555 1_555
N13 Cu2 1_555 1_555
N14 Cu2 1_555 1_555
N15 Cu2 1_555 1_555
N16 Cu1 1_555 1_555
N17 Cu1 1_555 1_555
C19 C20 1_555 1_555
C26 C27 1_555 1_555
N4 C32 1_555 1_555
Cu5 N5 1_555 1_555
Cu1_2 N2_2 1_555 1_555
C1 C2 1_555 1_555
Cu2_2 N3_2 1_555 1_555
C2 C3 1_555 1_555
C3 C1 1_555 1_555
C5 C2 1_555 1_555
C15_2 C14_2 1_555 1_555
H5 C15_2 1_555 1_555
C16_2 C15_2 1_555 1_555
H6_2 C16_2 1_555 1_555
C17_2 C16_2 1_555 1_555
C18_2 C17_2 1_555 1_555
N2_2 C18_2 1_555 1_555
C19_2 C17_2 1_555 1_555
H7_2 C19_2 1_555 1_555
C20_2 C14_2 1_555 1_555
C21_2 C5 1_555 1_555
C22_2 C21_2 1_555 1_555
H9 C22_2 1_555 1_555
C23_2 C22_2 1_555 1_555
H10_2 C23_2 1_555 1_555
C24_2 C23_2 1_555 1_555
C25_2 C24_2 1_555 1_555
N3_2 C25_2 1_555 1_555
C26_2 C24_2 1_555 1_555
H11_2 C26_2 1_555 1_555
C27_2 C21_2 1_555 1_555
H12_2 C27_2 1_555 1_555
C28 C5 1_555 1_555
C29 C28 1_555 1_555
H13 C29 1_555 1_555
C30 C29 1_555 1_555
H14 C30 1_555 1_555
C31 C30 1_555 1_555
C32_2 C31 1_555 1_555
N4_2 C32_2 1_555 1_555
C33 C31 1_555 1_555
H15 C33 1_555 1_555
C34 C28 1_555 1_555
H16 C34 1_555 1_555
C36 C35 1_555 1_555
H17 C36 1_555 1_555
C37 C36 1_555 1_555
H18 C37 1_555 1_555
C38 C37 1_555 1_555
C39 C38 1_555 1_555
N5_2 C39 1_555 1_555
C40 C38 1_555 1_555
N8_2 Cu1_2 1_555 1_555
Cu6 N5_2 1_555 1_555
N14_2 Cu2_2 1_555 1_555
N15_2 Cu2_2 1_555 1_555
N17_2 Cu1_2 1_555 1_555
C19_2 C20_2 1_555 1_555
C26_2 C27_2 1_555 1_555
C33 C34 1_555 1_555
C7_2 H1_2 1_555 1_555
C8_2 C4_2 1_555 1_555
C9_2 C8_2 1_555 1_555
H2_2 C9_2 1_555 1_555
C10_2 C9_2 1_555 1_555
H3_2 C10_2 1_555 1_555
C11_2 C7_2 1_555 1_555
C12_2 C11_2 1_555 1_555
N1_2 C12_2 1_555 1_555
C13_2 C7_2 1_555 1_555
H4_2 C13_2 1_555 1_555
H20_2 C41_2 1_555 1_555
C42_2 C6_2 1_555 1_555
C43_2 C42_2 1_555 1_555
H21_2 C43_2 1_555 1_555
C44_2 C43_2 1_555 1_555
H22_2 C44_2 1_555 1_555
C45_2 C44_2 1_555 1_555
C46_2 C45_2 1_555 1_555
N6_2 C46_2 1_555 1_555
C47_2 C45_2 1_555 1_555
H23_2 C47_2 1_555 1_555
C48_2 C42_2 1_555 1_555
H24_2 C48_2 1_555 1_555
C8_2 C13_2 1_555 1_555
C10_2 C11_2 1_555 1_555
C47_2 C48_2 1_555 1_555
N9_2 C73_2 1_555 1_555
C49_2 C50_2 1_555 1_555
C50_2 C51_2 1_555 1_555
C51_2 C49_2 1_555 1_555
C52_2 C49_2 1_555 1_555
C53_2 C50_2 1_555 1_555
C54_2 C51_2 1_555 1_555
C55_2 C52_2 1_555 1_555
C56_2 C55_2 1_555 1_555
H25_2 C56_2 1_555 1_555
C57_2 C56_2 1_555 1_555
H26_2 C57_2 1_555 1_555
C58_2 C57_2 1_555 1_555
C59_2 C58_2 1_555 1_555
N7_2 C59_2 1_555 1_555
C60_2 C58_2 1_555 1_555
H27_2 C60_2 1_555 1_555
C61_2 C55_2 1_555 1_555
H28_2 C61_2 1_555 1_555
C62_2 C52_2 1_555 1_555
C63_2 C62_2 1_555 1_555
H29_2 C63_2 1_555 1_555
C64_2 C63_2 1_555 1_555
H30_2 C64_2 1_555 1_555
C65_2 C64_2 1_555 1_555
C66_2 C65_2 1_555 1_555
C67_2 C65_2 1_555 1_555
H31_2 C67_2 1_555 1_555
C68_2 C62_2 1_555 1_555
H32_2 C68_2 1_555 1_555
C69_2 C53_2 1_555 1_555
C70_2 C69_2 1_555 1_555
H33_2 C70_2 1_555 1_555
C71_2 C70_2 1_555 1_555
C72_2 C71_2 1_555 1_555
C74_2 C72_2 1_555 1_555
H35_2 C74_2 1_555 1_555
C75_2 C69_2 1_555 1_555
H36_2 C75_2 1_555 1_555
C76_2 C53_2 1_555 1_555
C77_2 C76_2 1_555 1_555
H37_2 C77_2 1_555 1_555
C78_2 C77_2 1_555 1_555
H38_2 C78_2 1_555 1_555
C79_2 C78_2 1_555 1_555
C80_2 C79_2 1_555 1_555
N10_2 C80_2 1_555 1_555
C81_2 C79_2 1_555 1_555
H39_2 C81_2 1_555 1_555
C82_2 C76_2 1_555 1_555
H40_2 C82_2 1_555 1_555
C83_2 C54_2 1_555 1_555
C84_2 C83_2 1_555 1_555
H41_2 C84_2 1_555 1_555
C85_2 C84_2 1_555 1_555
H42_2 C85_2 1_555 1_555
C86_2 C85_2 1_555 1_555
C87_2 C86_2 1_555 1_555
N11_2 C87_2 1_555 1_555
C88_2 C86_2 1_555 1_555
H43_2 C88_2 1_555 1_555
C89_2 C83_2 1_555 1_555
H44_2 C89_2 1_555 1_555
C90_2 C54_2 1_555 1_555
C91_2 C90_2 1_555 1_555
H45_2 C91_2 1_555 1_555
C92_2 C91_2 1_555 1_555
H46_2 C92_2 1_555 1_555
C93_2 C92_2 1_555 1_555
C94_2 C93_2 1_555 1_555
N12_2 C94_2 1_555 1_555
C95_2 C93_2 1_555 1_555
H47_2 C95_2 1_555 1_555
C96_2 C90_2 1_555 1_555
H48_2 C96_2 1_555 1_555
Cu3_2 N12_2 1_555 1_555
Cu4_2 N10_2 1_555 1_555
Cu5 N7_2 1_555 1_555
C60_2 C61_2 1_555 1_555
C67_2 C68_2 1_555 1_555
C74_2 C75_2 1_555 1_555
C81_2 C82_2 1_555 1_555
C88_2 C89_2 1_555 1_555
C95_2 C96_2 1_555 1_555
C49_3 C50_3 1_555 1_555
C50_3 C51_3 1_555 1_555
C51_3 C49_3 1_555 1_555
C52_3 C49_3 1_555 1_555
C53_3 C50_3 1_555 1_555
C54_3 C51_3 1_555 1_555
C55_3 C52_3 1_555 1_555
C56_3 C55_3 1_555 1_555
H25_3 C56_3 1_555 1_555
C57_3 C56_3 1_555 1_555
H26_3 C57_3 1_555 1_555
C58_3 C57_3 1_555 1_555
C59_3 C58_3 1_555 1_555
N15_2 C59_3 1_555 1_555
C60_3 C58_3 1_555 1_555
H27_3 C60_3 1_555 1_555
C61_3 C55_3 1_555 1_555
H28_3 C61_3 1_555 1_555
C62_3 C52_3 1_555 1_555
C63_3 C62_3 1_555 1_555
H29_3 C63_3 1_555 1_555
C64_3 C63_3 1_555 1_555
H30_3 C64_3 1_555 1_555
C65_3 C64_3 1_555 1_555
C66_3 C65_3 1_555 1_555
C67_3 C65_3 1_555 1_555
H31_3 C67_3 1_555 1_555
C68_3 C62_3 1_555 1_555
H32_3 C68_3 1_555 1_555
C69_3 C53_3 1_555 1_555
C70_3 C69_3 1_555 1_555
H33_3 C70_3 1_555 1_555
C71_3 C70_3 1_555 1_555
H34_3 C71_3 1_555 1_555
C72_3 C71_3 1_555 1_555
C73_3 C72_3 1_555 1_555
N9_3 C73_3 1_555 1_555
C74_3 C72_3 1_555 1_555
H35_3 C74_3 1_555 1_555
C75_3 C69_3 1_555 1_555
H36_3 C75_3 1_555 1_555
C76_3 C53_3 1_555 1_555
C77_3 C76_3 1_555 1_555
H37_3 C77_3 1_555 1_555
C78_3 C77_3 1_555 1_555
H38_3 C78_3 1_555 1_555
C79_3 C78_3 1_555 1_555
C80_3 C79_3 1_555 1_555
N10_3 C80_3 1_555 1_555
C81_3 C79_3 1_555 1_555
H39_3 C81_3 1_555 1_555
C82_3 C76_3 1_555 1_555
H40_3 C82_3 1_555 1_555
C83_3 C54_3 1_555 1_555
C84_3 C83_3 1_555 1_555
H41_3 C84_3 1_555 1_555
C85_3 C84_3 1_555 1_555
H42_3 C85_3 1_555 1_555
C86_3 C85_3 1_555 1_555
C87_3 C86_3 1_555 1_555
N11_3 C87_3 1_555 1_555
C88_3 C86_3 1_555 1_555
H43_3 C88_3 1_555 1_555
C89_3 C83_3 1_555 1_555
H44_3 C89_3 1_555 1_555
C90_3 C54_3 1_555 1_555
C91_3 C90_3 1_555 1_555
H45_3 C91_3 1_555 1_555
C92_3 C91_3 1_555 1_555
H46_3 C92_3 1_555 1_555
C93_3 C92_3 1_555 1_555
C94_3 C93_3 1_555 1_555
N17_2 C94_3 1_555 1_555
C95_3 C93_3 1_555 1_555
H47_3 C95_3 1_555 1_555
C96_3 C90_3 1_555 1_555
H48_3 C96_3 1_555 1_555
Cu4_3 N10_3 1_555 1_555
C60_3 C61_3 1_555 1_555
C67_3 C68_3 1_555 1_555
C74_3 C75_3 1_555 1_555
C81_3 C82_3 1_555 1_555
C88_3 C89_3 1_555 1_555
C95_3 C96_3 1_555 1_555
C1_2 C2_2 1_555 1_555
C2_2 C3_2 1_555 1_555
C3_2 C1_2 1_555 1_555
C4_3 C1_2 1_555 1_555
C5_2 C2_2 1_555 1_555
C6_3 C3_2 1_555 1_555
C7_3 H1_3 1_555 1_555
C8_3 C4_3 1_555 1_555
C9_3 C8_3 1_555 1_555
H2_3 C9_3 1_555 1_555
C10_3 C9_3 1_555 1_555
H3_3 C10_3 1_555 1_555
C11_3 C7_3 1_555 1_555
C12_3 C11_3 1_555 1_555
N1_3 C12_3 1_555 1_555
C13_3 C7_3 1_555 1_555
H4_3 C13_3 1_555 1_555
C28_2 C5_2 1_555 1_555
C29_2 C28_2 1_555 1_555
H13_2 C29_2 1_555 1_555
C30_2 C29_2 1_555 1_555
H14_2 C30_2 1_555 1_555
C31_2 C30_2 1_555 1_555
C32_3 C31_2 1_555 1_555
N4_3 C32_3 1_555 1_555
C33_2 C31_2 1_555 1_555
H15_2 C33_2 1_555 1_555
C34_2 C28_2 1_555 1_555
H16_2 C34_2 1_555 1_555
C35_2 C6_3 1_555 1_555
C36_2 C35_2 1_555 1_555
H17_2 C36_2 1_555 1_555
C37_2 C36_2 1_555 1_555
H18_2 C37_2 1_555 1_555
C38_2 C37_2 1_555 1_555
C39_2 C38_2 1_555 1_555
N14 C39_2 1_555 1_555
C40_2 C38_2 1_555 1_555
H19_3 C40_2 1_555 1_555
C41_3 C35_2 1_555 1_555
H20_3 C41_3 1_555 1_555
C42_3 C6_3 1_555 1_555
C43_3 C42_3 1_555 1_555
H21_3 C43_3 1_555 1_555
C44_3 C43_3 1_555 1_555
H22_3 C44_3 1_555 1_555
C45_3 C44_3 1_555 1_555
C46_3 C45_3 1_555 1_555
N6_3 C46_3 1_555 1_555
C47_3 C45_3 1_555 1_555
H23_3 C47_3 1_555 1_555
C48_3 C42_3 1_555 1_555
H24_3 C48_3 1_555 1_555
C8_3 C13_3 1_555 1_555
C10_3 C11_3 1_555 1_555
C33_2 C34_2 1_555 1_555
C40_2 C41_3 1_555 1_555
C47_3 C48_3 1_555 1_555
Cu3_2 N2_3 1_555 1_555
Cu5 N3_3 1_555 1_555
C15_3 C14_3 1_555 1_555
C16_3 C15_3 1_555 1_555
H6_3 C16_3 1_555 1_555
C17_3 C16_3 1_555 1_555
C18_3 C17_3 1_555 1_555
N2_3 C18_3 1_555 1_555
C19_3 C17_3 1_555 1_555
H7_3 C19_3 1_555 1_555
C20_3 C14_3 1_555 1_555
H8_3 C20_3 1_555 1_555
C22_3 C21_3 1_555 1_555
C23_3 C22_3 1_555 1_555
H10_3 C23_3 1_555 1_555
C24_3 C23_3 1_555 1_555
C25_3 C24_3 1_555 1_555
N3_3 C25_3 1_555 1_555
C26_3 C24_3 1_555 1_555
H11_3 C26_3 1_555 1_555
C27_3 C21_3 1_555 1_555
H12_3 C27_3 1_555 1_555
N8_3 Cu3_2 1_555 1_555
C19_3 C20_3 1_555 1_555
C26_3 C27_3 1_555 1_555
N4_4 C32_4 1_555 1_555
Cu3 N2_4 1_555 1_555
C1_3 C2_3 1_555 1_555
Cu6 N3_4 1_555 1_555
C2_3 C3_3 1_555 1_555
C3_3 C1_3 1_555 1_555
C4_4 C1_3 1_555 1_555
C5_3 C2_3 1_555 1_555
C6_4 C3_3 1_555 1_555
C7_4 H1_4 1_555 1_555
C8_4 C4_4 1_555 1_555
C9_4 C8_4 1_555 1_555
H2_4 C9_4 1_555 1_555
C10_4 C9_4 1_555 1_555
H3_4 C10_4 1_555 1_555
C11_4 C7_4 1_555 1_555
C12_4 C11_4 1_555 1_555
N1_4 C12_4 1_555 1_555
C13_4 C7_4 1_555 1_555
H4_4 C13_4 1_555 1_555
C14_4 C4_4 1_555 1_555
C15_4 C14_4 1_555 1_555
H5_3 C15_4 1_555 1_555
C16_4 C15_4 1_555 1_555
H6_4 C16_4 1_555 1_555
C17_4 C16_4 1_555 1_555
C18_4 C17_4 1_555 1_555
N2_4 C18_4 1_555 1_555
C19_4 C17_4 1_555 1_555
H7_4 C19_4 1_555 1_555
C20_4 C14_4 1_555 1_555
H8_4 C20_4 1_555 1_555
C21_4 C5_3 1_555 1_555
C22_4 C21_4 1_555 1_555
H9_3 C22_4 1_555 1_555
C23_4 C22_4 1_555 1_555
H10_4 C23_4 1_555 1_555
C24_4 C23_4 1_555 1_555
C25_4 C24_4 1_555 1_555
N3_4 C25_4 1_555 1_555
C26_4 C24_4 1_555 1_555
H11_4 C26_4 1_555 1_555
C27_4 C21_4 1_555 1_555
H12_4 C27_4 1_555 1_555
C28_3 C5_3 1_555 1_555
C29_3 C28_3 1_555 1_555
H13_3 C29_3 1_555 1_555
C30_3 C29_3 1_555 1_555
H14_3 C30_3 1_555 1_555
C31_3 C30_3 1_555 1_555
C33_3 C31_3 1_555 1_555
H15_3 C33_3 1_555 1_555
C34_3 C28_3 1_555 1_555
H16_3 C34_3 1_555 1_555
C35_3 C6_4 1_555 1_555
C36_3 C35_3 1_555 1_555
H17_3 C36_3 1_555 1_555
C37_3 C36_3 1_555 1_555
H18_3 C37_3 1_555 1_555
C38_3 C37_3 1_555 1_555
C39_3 C38_3 1_555 1_555
C40_3 C38_3 1_555 1_555
H19_4 C40_3 1_555 1_555
C41_4 C35_3 1_555 1_555
H20_4 C41_4 1_555 1_555
C42_4 C6_4 1_555 1_555
C43_4 C42_4 1_555 1_555
H21_4 C43_4 1_555 1_555
C44_4 C43_4 1_555 1_555
H22_4 C44_4 1_555 1_555
C45_4 C44_4 1_555 1_555
C46_4 C45_4 1_555 1_555
N6_4 C46_4 1_555 1_555
C47_4 C45_4 1_555 1_555
H23_4 C47_4 1_555 1_555
C48_4 C42_4 1_555 1_555
H24_4 C48_4 1_555 1_555
C49_4 C50_4 1_555 1_555
C50_4 C51_4 1_555 1_555
C51_4 C49_4 1_555 1_555
C52_4 C49_4 1_555 1_555
C53_4 C50_4 1_555 1_555
C54_4 C51_4 1_555 1_555
C55_4 C52_4 1_555 1_555
C56_4 C55_4 1_555 1_555
H25_4 C56_4 1_555 1_555
C57_4 C56_4 1_555 1_555
H26_4 C57_4 1_555 1_555
C58_4 C57_4 1_555 1_555
C59_4 C58_4 1_555 1_555
N15 C59_4 1_555 1_555
C60_4 C58_4 1_555 1_555
H27_4 C60_4 1_555 1_555
C61_4 C55_4 1_555 1_555
H28_4 C61_4 1_555 1_555
C62_4 C52_4 1_555 1_555
C63_4 C62_4 1_555 1_555
H29_4 C63_4 1_555 1_555
C64_4 C63_4 1_555 1_555
H30_4 C64_4 1_555 1_555
C65_4 C64_4 1_555 1_555
C66_4 C65_4 1_555 1_555
N8_4 Cu3 1_555 1_555
C67_4 C65_4 1_555 1_555
H31_4 C67_4 1_555 1_555
C68_4 C62_4 1_555 1_555
H32_4 C68_4 1_555 1_555
C69_4 C53_4 1_555 1_555
C70_4 C69_4 1_555 1_555
H33_4 C70_4 1_555 1_555
C71_4 C70_4 1_555 1_555
H34_4 C71_4 1_555 1_555
C72_4 C71_4 1_555 1_555
C73_4 C72_4 1_555 1_555
N9_4 C73_4 1_555 1_555
C74_4 C72_4 1_555 1_555
H35_4 C74_4 1_555 1_555
C75_4 C69_4 1_555 1_555
H36_4 C75_4 1_555 1_555
C76_4 C53_4 1_555 1_555
C77_4 C76_4 1_555 1_555
H37_4 C77_4 1_555 1_555
C78_4 C77_4 1_555 1_555
H38_4 C78_4 1_555 1_555
C79_4 C78_4 1_555 1_555
C80_4 C79_4 1_555 1_555
N10_4 C80_4 1_555 1_555
C81_4 C79_4 1_555 1_555
H39_4 C81_4 1_555 1_555
C82_4 C76_4 1_555 1_555
H40_4 C82_4 1_555 1_555
C83_4 C54_4 1_555 1_555
C84_4 C83_4 1_555 1_555
H41_4 C84_4 1_555 1_555
C85_4 C84_4 1_555 1_555
H42_4 C85_4 1_555 1_555
C86_4 C85_4 1_555 1_555
C87_4 C86_4 1_555 1_555
C88_4 C86_4 1_555 1_555
H43_4 C88_4 1_555 1_555
C89_4 C83_4 1_555 1_555
H44_4 C89_4 1_555 1_555
C90_4 C54_4 1_555 1_555
C91_4 C90_4 1_555 1_555
H45_4 C91_4 1_555 1_555
C92_4 C91_4 1_555 1_555
H46_4 C92_4 1_555 1_555
C93_4 C92_4 1_555 1_555
C94_4 C93_4 1_555 1_555
N17 C94_4 1_555 1_555
C95_4 C93_4 1_555 1_555
H47_4 C95_4 1_555 1_555
C96_4 C90_4 1_555 1_555
H48_4 C96_4 1_555 1_555
Cu7_4 N1_4 1_555 1_555
N13_4 Cu6 1_555 1_555
N16_4 Cu3 1_555 1_555
C8_4 C13_4 1_555 1_555
C10_4 C11_4 1_555 1_555
C19_4 C20_4 1_555 1_555
C26_4 C27_4 1_555 1_555
C33_3 C34_3 1_555 1_555
C40_3 C41_4 1_555 1_555
C47_4 C48_4 1_555 1_555
C60_4 C61_4 1_555 1_555
C66_4 N8_4 1_555 1_555
C67_4 C68_4 1_555 1_555
C74_4 C75_4 1_555 1_555
C81_4 C82_4 1_555 1_555
C88_4 C89_4 1_555 1_555
C95_4 C96_4 1_555 1_555
N4_5 C32_5 1_555 1_555
Cu7_3 N5_3 1_555 1_555
Cu4_3 N2_5 1_555 1_555
Cu7 N3_5 1_555 1_555
C15_5 C14_5 1_555 1_555
C16_5 C15_5 1_555 1_555
H6_5 C16_5 1_555 1_555
C17_5 C16_5 1_555 1_555
C18_5 C17_5 1_555 1_555
N2_5 C18_5 1_555 1_555
C19_5 C17_5 1_555 1_555
H7_5 C19_5 1_555 1_555
C20_5 C14_5 1_555 1_555
C22_5 C21_5 1_555 1_555
C23_5 C22_5 1_555 1_555
H10_5 C23_5 1_555 1_555
C24_5 C23_5 1_555 1_555
C25_5 C24_5 1_555 1_555
N3_5 C25_5 1_555 1_555
C26_5 C24_5 1_555 1_555
H11_5 C26_5 1_555 1_555
C27_5 C21_5 1_555 1_555
H12_5 C27_5 1_555 1_555
N8_5 Cu4_3 1_555 1_555
N9_5 C73_5 1_555 1_555
N14_3 Cu7 1_555 1_555
N15_3 Cu7 1_555 1_555
N17_3 Cu4_3 1_555 1_555
C19_5 C20_5 1_555 1_555
C26_5 C27_5 1_555 1_555
C7_5 H1_5 1_555 1_555
C8_5 C4_5 1_555 1_555
C9_5 C8_5 1_555 1_555
H2_5 C9_5 1_555 1_555
C10_5 C9_5 1_555 1_555
H3_5 C10_5 1_555 1_555
C11_5 C7_5 1_555 1_555
C12_5 C11_5 1_555 1_555
N13 C12_5 1_555 1_555
C13_5 C7_5 1_555 1_555
H4_5 C13_5 1_555 1_555
H20_5 C41_5 1_555 1_555
C42_5 C6_5 1_555 1_555
C43_5 C42_5 1_555 1_555
H21_5 C43_5 1_555 1_555
C44_5 C43_5 1_555 1_555
H22_5 C44_5 1_555 1_555
C45_5 C44_5 1_555 1_555
C46_5 C45_5 1_555 1_555
N6_5 C46_5 1_555 1_555
C47_5 C45_5 1_555 1_555
H23_5 C47_5 1_555 1_555
C48_5 C42_5 1_555 1_555
H24_5 C48_5 1_555 1_555
C8_5 C13_5 1_555 1_555
C10_5 C11_5 1_555 1_555
C47_5 C48_5 1_555 1_555
C49_5 C50_5 1_555 1_555
C50_5 C51_5 1_555 1_555
C51_5 C49_5 1_555 1_555
C52_5 C49_5 1_555 1_555
C53_5 C50_5 1_555 1_555
C54_5 C51_5 1_555 1_555
C55_5 C52_5 1_555 1_555
C56_5 C55_5 1_555 1_555
H25_5 C56_5 1_555 1_555
C57_5 C56_5 1_555 1_555
H26_5 C57_5 1_555 1_555
C58_5 C57_5 1_555 1_555
C59_5 C58_5 1_555 1_555
N7_3 C59_5 1_555 1_555
C60_5 C58_5 1_555 1_555
H27_5 C60_5 1_555 1_555
C61_5 C55_5 1_555 1_555
H28_5 C61_5 1_555 1_555
C62_5 C52_5 1_555 1_555
C63_5 C62_5 1_555 1_555
H29_5 C63_5 1_555 1_555
C64_5 C63_5 1_555 1_555
H30_5 C64_5 1_555 1_555
C65_5 C64_5 1_555 1_555
C66_5 C65_5 1_555 1_555
C67_5 C65_5 1_555 1_555
H31_5 C67_5 1_555 1_555
C68_5 C62_5 1_555 1_555
H32_5 C68_5 1_555 1_555
C69_5 C53_5 1_555 1_555
C70_5 C69_5 1_555 1_555
H33_5 C70_5 1_555 1_555
C71_5 C70_5 1_555 1_555
C72_5 C71_5 1_555 1_555
C74_5 C72_5 1_555 1_555
H35_5 C74_5 1_555 1_555
C75_5 C69_5 1_555 1_555
H36_5 C75_5 1_555 1_555
C76_5 C53_5 1_555 1_555
C77_5 C76_5 1_555 1_555
H37_5 C77_5 1_555 1_555
C78_5 C77_5 1_555 1_555
H38_5 C78_5 1_555 1_555
C79_5 C78_5 1_555 1_555
C80_5 C79_5 1_555 1_555
N16_3 C80_5 1_555 1_555
C81_5 C79_5 1_555 1_555
H39_5 C81_5 1_555 1_555
C82_5 C76_5 1_555 1_555
H40_5 C82_5 1_555 1_555
C83_5 C54_5 1_555 1_555
C84_5 C83_5 1_555 1_555
H41_5 C84_5 1_555 1_555
C85_5 C84_5 1_555 1_555
H42_5 C85_5 1_555 1_555
C86_5 C85_5 1_555 1_555
C87_5 C86_5 1_555 1_555
C88_5 C86_5 1_555 1_555
H43_5 C88_5 1_555 1_555
C89_5 C83_5 1_555 1_555
H44_5 C89_5 1_555 1_555
C90_5 C54_5 1_555 1_555
C91_5 C90_5 1_555 1_555
H45_5 C91_5 1_555 1_555
C92_5 C91_5 1_555 1_555
H46_5 C92_5 1_555 1_555
C93_5 C92_5 1_555 1_555
C94_5 C93_5 1_555 1_555
N12_3 C94_5 1_555 1_555
C95_5 C93_5 1_555 1_555
H47_5 C95_5 1_555 1_555
C96_5 C90_5 1_555 1_555
H48_5 C96_5 1_555 1_555
Cu4_2 N12_3 1_555 1_555
Cu7_4 N7_3 1_555 1_555
C60_5 C61_5 1_555 1_555
C67_5 C68_5 1_555 1_555
C74_5 C75_5 1_555 1_555
C81_5 C82_5 1_555 1_555
C88_5 C89_5 1_555 1_555
C95_5 C96_5 1_555 1_555
C49_6 C50_6 1_555 1_555
C50_6 C51_6 1_555 1_555
C51_6 C49_6 1_555 1_555
C52_6 C49_6 1_555 1_555
C53_6 C50_6 1_555 1_555
C54_6 C51_6 1_555 1_555
C55_6 C52_6 1_555 1_555
C56_6 C55_6 1_555 1_555
H25_6 C56_6 1_555 1_555
C57_6 C56_6 1_555 1_555
H26_6 C57_6 1_555 1_555
C58_6 C57_6 1_555 1_555
C59_6 C58_6 1_555 1_555
N7_4 C59_6 1_555 1_555
C60_6 C58_6 1_555 1_555
H27_6 C60_6 1_555 1_555
C61_6 C55_6 1_555 1_555
H28_6 C61_6 1_555 1_555
C62_6 C52_6 1_555 1_555
C63_6 C62_6 1_555 1_555
H29_6 C63_6 1_555 1_555
C64_6 C63_6 1_555 1_555
H30_6 C64_6 1_555 1_555
C65_6 C64_6 1_555 1_555
C66_6 C65_6 1_555 1_555
C67_6 C65_6 1_555 1_555
H31_6 C67_6 1_555 1_555
C68_6 C62_6 1_555 1_555
H32_6 C68_6 1_555 1_555
C69_6 C53_6 1_555 1_555
C70_6 C69_6 1_555 1_555
H33_6 C70_6 1_555 1_555
C71_6 C70_6 1_555 1_555
C72_6 C71_6 1_555 1_555
C74_6 C72_6 1_555 1_555
H35_6 C74_6 1_555 1_555
C75_6 C69_6 1_555 1_555
H36_6 C75_6 1_555 1_555
C76_6 C53_6 1_555 1_555
C77_6 C76_6 1_555 1_555
H37_6 C77_6 1_555 1_555
C78_6 C77_6 1_555 1_555
H38_6 C78_6 1_555 1_555
C79_6 C78_6 1_555 1_555
C80_6 C79_6 1_555 1_555
N16_4 C80_6 1_555 1_555
C81_6 C79_6 1_555 1_555
H39_6 C81_6 1_555 1_555
C82_6 C76_6 1_555 1_555
H40_6 C82_6 1_555 1_555
C83_6 C54_6 1_555 1_555
C84_6 C83_6 1_555 1_555
H41_6 C84_6 1_555 1_555
C85_6 C84_6 1_555 1_555
H42_6 C85_6 1_555 1_555
C86_6 C85_6 1_555 1_555
C87_6 C86_6 1_555 1_555
N11_6 C87_6 1_555 1_555
C88_6 C86_6 1_555 1_555
H43_6 C88_6 1_555 1_555
C89_6 C83_6 1_555 1_555
H44_6 C89_6 1_555 1_555
C90_6 C54_6 1_555 1_555
C91_6 C90_6 1_555 1_555
H45_6 C91_6 1_555 1_555
C92_6 C91_6 1_555 1_555
H46_6 C92_6 1_555 1_555
C93_6 C92_6 1_555 1_555
C94_6 C93_6 1_555 1_555
N12_4 C94_6 1_555 1_555
C95_6 C93_6 1_555 1_555
H47_6 C95_6 1_555 1_555
C96_6 C90_6 1_555 1_555
H48_6 C96_6 1_555 1_555
Cu4 N12_4 1_555 1_555
Cu7_3 N7_4 1_555 1_555
C60_6 C61_6 1_555 1_555
C67_6 C68_6 1_555 1_555
C74_6 C75_6 1_555 1_555
C81_6 C82_6 1_555 1_555
C88_6 C89_6 1_555 1_555
C95_6 C96_6 1_555 1_555
N9_6 C73_6 1_555 1_555
C7_6 H1_6 1_555 1_555
C8_6 C4_6 1_555 1_555
C9_6 C8_6 1_555 1_555
H2_6 C9_6 1_555 1_555
C10_6 C9_6 1_555 1_555
H3_6 C10_6 1_555 1_555
C11_6 C7_6 1_555 1_555
C12_6 C11_6 1_555 1_555
N13_2 C12_6 1_555 1_555
C13_6 C7_6 1_555 1_555
H4_6 C13_6 1_555 1_555
H20_6 C41_6 1_555 1_555
C42_6 C6_6 1_555 1_555
C43_6 C42_6 1_555 1_555
H21_6 C43_6 1_555 1_555
C44_6 C43_6 1_555 1_555
H22_6 C44_6 1_555 1_555
C45_6 C44_6 1_555 1_555
C46_6 C45_6 1_555 1_555
N6_6 C46_6 1_555 1_555
C47_6 C45_6 1_555 1_555
H23_6 C47_6 1_555 1_555
C48_6 C42_6 1_555 1_555
H24_6 C48_6 1_555 1_555
C8_6 C13_6 1_555 1_555
C10_6 C11_6 1_555 1_555
C47_6 C48_6 1_555 1_555
Cu4_4 N2_6 1_555 1_555
C1_4 C2_4 1_555 1_555
Cu7_2 N3_6 1_555 1_555
C2_4 C3_4 1_555 1_555
C3_4 C1_4 1_555 1_555
C5_4 C2_4 1_555 1_555
C15_6 C14_6 1_555 1_555
H5_4 C15_6 1_555 1_555
C16_6 C15_6 1_555 1_555
H6_6 C16_6 1_555 1_555
C17_6 C16_6 1_555 1_555
C18_6 C17_6 1_555 1_555
N2_6 C18_6 1_555 1_555
C19_6 C17_6 1_555 1_555
H7_6 C19_6 1_555 1_555
C20_6 C14_6 1_555 1_555
C21_6 C5_4 1_555 1_555
C22_6 C21_6 1_555 1_555
H9_4 C22_6 1_555 1_555
C23_6 C22_6 1_555 1_555
H10_6 C23_6 1_555 1_555
C24_6 C23_6 1_555 1_555
C25_6 C24_6 1_555 1_555
N3_6 C25_6 1_555 1_555
C26_6 C24_6 1_555 1_555
H11_6 C26_6 1_555 1_555
C27_6 C21_6 1_555 1_555
H12_6 C27_6 1_555 1_555
C28_4 C5_4 1_555 1_555
C29_4 C28_4 1_555 1_555
H13_4 C29_4 1_555 1_555
C30_4 C29_4 1_555 1_555
H14_4 C30_4 1_555 1_555
C31_4 C30_4 1_555 1_555
C32_6 C31_4 1_555 1_555
N4_6 C32_6 1_555 1_555
C33_4 C31_4 1_555 1_555
H15_4 C33_4 1_555 1_555
C34_4 C28_4 1_555 1_555
H16_4 C34_4 1_555 1_555
C36_4 C35_4 1_555 1_555
H17_4 C36_4 1_555 1_555
C37_4 C36_4 1_555 1_555
H18_4 C37_4 1_555 1_555
C38_4 C37_4 1_555 1_555
C39_4 C38_4 1_555 1_555
N5_4 C39_4 1_555 1_555
C40_4 C38_4 1_555 1_555
N8_6 Cu4_4 1_555 1_555
Cu7_4 N5_4 1_555 1_555
N14_4 Cu7_2 1_555 1_555
N15_4 Cu7_2 1_555 1_555
N17_4 Cu4_4 1_555 1_555
C19_6 C20_6 1_555 1_555
C26_6 C27_6 1_555 1_555
C33_4 C34_4 1_555 1_555
Cu4 N2_7 1_555 1_555
Cu7_3 N3_7 1_555 1_555
C15_7 C14_7 1_555 1_555
C16_7 C15_7 1_555 1_555
H6_7 C16_7 1_555 1_555
C17_7 C16_7 1_555 1_555
C18_7 C17_7 1_555 1_555
N2_7 C18_7 1_555 1_555
C19_7 C17_7 1_555 1_555
H7_7 C19_7 1_555 1_555
C20_7 C14_7 1_555 1_555
H8_7 C20_7 1_555 1_555
C22_7 C21_7 1_555 1_555
C23_7 C22_7 1_555 1_555
H10_7 C23_7 1_555 1_555
C24_7 C23_7 1_555 1_555
C25_7 C24_7 1_555 1_555
N3_7 C25_7 1_555 1_555
C26_7 C24_7 1_555 1_555
H11_7 C26_7 1_555 1_555
C27_7 C21_7 1_555 1_555
H12_7 C27_7 1_555 1_555
N8_7 Cu4 1_555 1_555
C19_7 C20_7 1_555 1_555
C26_7 C27_7 1_555 1_555
C1_5 C2_5 1_555 1_555
C2_5 C3_5 1_555 1_555
C3_5 C1_5 1_555 1_555
C4_7 C1_5 1_555 1_555
C5_5 C2_5 1_555 1_555
C6_7 C3_5 1_555 1_555
C7_7 H1_7 1_555 1_555
C8_7 C4_7 1_555 1_555
C9_7 C8_7 1_555 1_555
H2_7 C9_7 1_555 1_555
C10_7 C9_7 1_555 1_555
H3_7 C10_7 1_555 1_555
C11_7 C7_7 1_555 1_555
C12_7 C11_7 1_555 1_555
N13_3 C12_7 1_555 1_555
C13_7 C7_7 1_555 1_555
H4_7 C13_7 1_555 1_555
C28_5 C5_5 1_555 1_555
C29_5 C28_5 1_555 1_555
H13_5 C29_5 1_555 1_555
C30_5 C29_5 1_555 1_555
H14_5 C30_5 1_555 1_555
C31_5 C30_5 1_555 1_555
C32_7 C31_5 1_555 1_555
N4_7 C32_7 1_555 1_555
C33_5 C31_5 1_555 1_555
H15_5 C33_5 1_555 1_555
C34_5 C28_5 1_555 1_555
H16_5 C34_5 1_555 1_555
C35_5 C6_7 1_555 1_555
C36_5 C35_5 1_555 1_555
H17_5 C36_5 1_555 1_555
C37_5 C36_5 1_555 1_555
H18_5 C37_5 1_555 1_555
C38_5 C37_5 1_555 1_555
C39_5 C38_5 1_555 1_555
N14_3 C39_5 1_555 1_555
C40_5 C38_5 1_555 1_555
H19_7 C40_5 1_555 1_555
C41_7 C35_5 1_555 1_555
H20_7 C41_7 1_555 1_555
C42_7 C6_7 1_555 1_555
C43_7 C42_7 1_555 1_555
H21_7 C43_7 1_555 1_555
C44_7 C43_7 1_555 1_555
H22_7 C44_7 1_555 1_555
C45_7 C44_7 1_555 1_555
C46_7 C45_7 1_555 1_555
N6_7 C46_7 1_555 1_555
C47_7 C45_7 1_555 1_555
H23_7 C47_7 1_555 1_555
C48_7 C42_7 1_555 1_555
H24_7 C48_7 1_555 1_555
C8_7 C13_7 1_555 1_555
C10_7 C11_7 1_555 1_555
C33_5 C34_5 1_555 1_555
C40_5 C41_7 1_555 1_555
C47_7 C48_7 1_555 1_555
C49_7 C50_7 1_555 1_555
C50_7 C51_7 1_555 1_555
C51_7 C49_7 1_555 1_555
C52_7 C49_7 1_555 1_555
C53_7 C50_7 1_555 1_555
C54_7 C51_7 1_555 1_555
C55_7 C52_7 1_555 1_555
C56_7 C55_7 1_555 1_555
H25_7 C56_7 1_555 1_555
C57_7 C56_7 1_555 1_555
H26_7 C57_7 1_555 1_555
C58_7 C57_7 1_555 1_555
C59_7 C58_7 1_555 1_555
N15_4 C59_7 1_555 1_555
C60_7 C58_7 1_555 1_555
H27_7 C60_7 1_555 1_555
C61_7 C55_7 1_555 1_555
H28_7 C61_7 1_555 1_555
C62_7 C52_7 1_555 1_555
C63_7 C62_7 1_555 1_555
H29_7 C63_7 1_555 1_555
C64_7 C63_7 1_555 1_555
H30_7 C64_7 1_555 1_555
C65_7 C64_7 1_555 1_555
C66_7 C65_7 1_555 1_555
C67_7 C65_7 1_555 1_555
H31_7 C67_7 1_555 1_555
C68_7 C62_7 1_555 1_555
H32_7 C68_7 1_555 1_555
C69_7 C53_7 1_555 1_555
C70_7 C69_7 1_555 1_555
H33_7 C70_7 1_555 1_555
C71_7 C70_7 1_555 1_555
H34_7 C71_7 1_555 1_555
C72_7 C71_7 1_555 1_555
C73_7 C72_7 1_555 1_555
N9_7 C73_7 1_555 1_555
C74_7 C72_7 1_555 1_555
H35_7 C74_7 1_555 1_555
C75_7 C69_7 1_555 1_555
H36_7 C75_7 1_555 1_555
C76_7 C53_7 1_555 1_555
C77_7 C76_7 1_555 1_555
H37_7 C77_7 1_555 1_555
C78_7 C77_7 1_555 1_555
H38_7 C78_7 1_555 1_555
C79_7 C78_7 1_555 1_555
C80_7 C79_7 1_555 1_555
N16 C80_7 1_555 1_555
C81_7 C79_7 1_555 1_555
H39_7 C81_7 1_555 1_555
C82_7 C76_7 1_555 1_555
H40_7 C82_7 1_555 1_555
C83_7 C54_7 1_555 1_555
C84_7 C83_7 1_555 1_555
H41_7 C84_7 1_555 1_555
C85_7 C84_7 1_555 1_555
H42_7 C85_7 1_555 1_555
C86_7 C85_7 1_555 1_555
C87_7 C86_7 1_555 1_555
N11_7 C87_7 1_555 1_555
C88_7 C86_7 1_555 1_555
H43_7 C88_7 1_555 1_555
C89_7 C83_7 1_555 1_555
H44_7 C89_7 1_555 1_555
C90_7 C54_7 1_555 1_555
C91_7 C90_7 1_555 1_555
H45_7 C91_7 1_555 1_555
C92_7 C91_7 1_555 1_555
H46_7 C92_7 1_555 1_555
C93_7 C92_7 1_555 1_555
C94_7 C93_7 1_555 1_555
N17_4 C94_7 1_555 1_555
C95_7 C93_7 1_555 1_555
H47_7 C95_7 1_555 1_555
C96_7 C90_7 1_555 1_555
H48_7 C96_7 1_555 1_555
C60_7 C61_7 1_555 1_555
C67_7 C68_7 1_555 1_555
C74_7 C75_7 1_555 1_555
C81_7 C82_7 1_555 1_555
C88_7 C89_7 1_555 1_555
C95_7 C96_7 1_555 1_555
Cu4_2 N2_8 1_555 1_555
C1_6 C2_6 1_555 1_555
Cu7_4 N3_8 1_555 1_555
C2_6 C3_6 1_555 1_555
C3_6 C1_6 1_555 1_555
C4_8 C1_6 1_555 1_555
C5_6 C2_6 1_555 1_555
C6_8 C3_6 1_555 1_555
C7_8 H1_8 1_555 1_555
C8_8 C4_8 1_555 1_555
C9_8 C8_8 1_555 1_555
H2_8 C9_8 1_555 1_555
C10_8 C9_8 1_555 1_555
H3_8 C10_8 1_555 1_555
C11_8 C7_8 1_555 1_555
C12_8 C11_8 1_555 1_555
N13_4 C12_8 1_555 1_555
C13_8 C7_8 1_555 1_555
H4_8 C13_8 1_555 1_555
C14_8 C4_8 1_555 1_555
C15_8 C14_8 1_555 1_555
H5_6 C15_8 1_555 1_555
C16_8 C15_8 1_555 1_555
H6_8 C16_8 1_555 1_555
C17_8 C16_8 1_555 1_555
C18_8 C17_8 1_555 1_555
N2_8 C18_8 1_555 1_555
C19_8 C17_8 1_555 1_555
H7_8 C19_8 1_555 1_555
C20_8 C14_8 1_555 1_555
H8_8 C20_8 1_555 1_555
C21_8 C5_6 1_555 1_555
C22_8 C21_8 1_555 1_555
H9_6 C22_8 1_555 1_555
C23_8 C22_8 1_555 1_555
H10_8 C23_8 1_555 1_555
C24_8 C23_8 1_555 1_555
C25_8 C24_8 1_555 1_555
N3_8 C25_8 1_555 1_555
C26_8 C24_8 1_555 1_555
H11_8 C26_8 1_555 1_555
C27_8 C21_8 1_555 1_555
H12_8 C27_8 1_555 1_555
C28_6 C5_6 1_555 1_555
C29_6 C28_6 1_555 1_555
H13_6 C29_6 1_555 1_555
C30_6 C29_6 1_555 1_555
H14_6 C30_6 1_555 1_555
C31_6 C30_6 1_555 1_555
C33_6 C31_6 1_555 1_555
H15_6 C33_6 1_555 1_555
C34_6 C28_6 1_555 1_555
H16_6 C34_6 1_555 1_555
C35_6 C6_8 1_555 1_555
C36_6 C35_6 1_555 1_555
H17_6 C36_6 1_555 1_555
C37_6 C36_6 1_555 1_555
H18_6 C37_6 1_555 1_555
C38_6 C37_6 1_555 1_555
C39_6 C38_6 1_555 1_555
C40_6 C38_6 1_555 1_555
H19_8 C40_6 1_555 1_555
C41_8 C35_6 1_555 1_555
H20_8 C41_8 1_555 1_555
C42_8 C6_8 1_555 1_555
C43_8 C42_8 1_555 1_555
H21_8 C43_8 1_555 1_555
C44_8 C43_8 1_555 1_555
H22_8 C44_8 1_555 1_555
C45_8 C44_8 1_555 1_555
C46_8 C45_8 1_555 1_555
N6_8 C46_8 1_555 1_555
C47_8 C45_8 1_555 1_555
H23_8 C47_8 1_555 1_555
C48_8 C42_8 1_555 1_555
H24_8 C48_8 1_555 1_555
C49_8 C50_8 1_555 1_555
C50_8 C51_8 1_555 1_555
C51_8 C49_8 1_555 1_555
C52_8 C49_8 1_555 1_555
C53_8 C50_8 1_555 1_555
C54_8 C51_8 1_555 1_555
C55_8 C52_8 1_555 1_555
C56_8 C55_8 1_555 1_555
H25_8 C56_8 1_555 1_555
C57_8 C56_8 1_555 1_555
H26_8 C57_8 1_555 1_555
C58_8 C57_8 1_555 1_555
C59_8 C58_8 1_555 1_555
N15_3 C59_8 1_555 1_555
C60_8 C58_8 1_555 1_555
H27_8 C60_8 1_555 1_555
C61_8 C55_8 1_555 1_555
H28_8 C61_8 1_555 1_555
C62_8 C52_8 1_555 1_555
C63_8 C62_8 1_555 1_555
H29_8 C63_8 1_555 1_555
C64_8 C63_8 1_555 1_555
H30_8 C64_8 1_555 1_555
C65_8 C64_8 1_555 1_555
C66_8 C65_8 1_555 1_555
N8_8 Cu4_2 1_555 1_555
C67_8 C65_8 1_555 1_555
H31_8 C67_8 1_555 1_555
C68_8 C62_8 1_555 1_555
H32_8 C68_8 1_555 1_555
C69_8 C53_8 1_555 1_555
C70_8 C69_8 1_555 1_555
H33_8 C70_8 1_555 1_555
C71_8 C70_8 1_555 1_555
H34_8 C71_8 1_555 1_555
C72_8 C71_8 1_555 1_555
C73_8 C72_8 1_555 1_555
N9_8 C73_8 1_555 1_555
C74_8 C72_8 1_555 1_555
H35_8 C74_8 1_555 1_555
C75_8 C69_8 1_555 1_555
H36_8 C75_8 1_555 1_555
C76_8 C53_8 1_555 1_555
C77_8 C76_8 1_555 1_555
H37_8 C77_8 1_555 1_555
C78_8 C77_8 1_555 1_555
H38_8 C78_8 1_555 1_555
C79_8 C78_8 1_555 1_555
C80_8 C79_8 1_555 1_555
N16_2 C80_8 1_555 1_555
C81_8 C79_8 1_555 1_555
H39_8 C81_8 1_555 1_555
C82_8 C76_8 1_555 1_555
H40_8 C82_8 1_555 1_555
C83_8 C54_8 1_555 1_555
C84_8 C83_8 1_555 1_555
H41_8 C84_8 1_555 1_555
C85_8 C84_8 1_555 1_555
H42_8 C85_8 1_555 1_555
C86_8 C85_8 1_555 1_555
C87_8 C86_8 1_555 1_555
C88_8 C86_8 1_555 1_555
H43_8 C88_8 1_555 1_555
C89_8 C83_8 1_555 1_555
H44_8 C89_8 1_555 1_555
C90_8 C54_8 1_555 1_555
C91_8 C90_8 1_555 1_555
H45_8 C91_8 1_555 1_555
C92_8 C91_8 1_555 1_555
H46_8 C92_8 1_555 1_555
C93_8 C92_8 1_555 1_555
C94_8 C93_8 1_555 1_555
N17_3 C94_8 1_555 1_555
C95_8 C93_8 1_555 1_555
H47_8 C95_8 1_555 1_555
C96_8 C90_8 1_555 1_555
H48_8 C96_8 1_555 1_555
C8_8 C13_8 1_555 1_555
C10_8 C11_8 1_555 1_555
C19_8 C20_8 1_555 1_555
C26_8 C27_8 1_555 1_555
C33_6 C34_6 1_555 1_555
C40_6 C41_8 1_555 1_555
C47_8 C48_8 1_555 1_555
C60_8 C61_8 1_555 1_555
C66_8 N8_8 1_555 1_555
C67_8 C68_8 1_555 1_555
C74_8 C75_8 1_555 1_555
C81_8 C82_8 1_555 1_555
C88_8 C89_8 1_555 1_555
C95_8 C96_8 1_555 1_555
N4_8 C32_8 1_555 1_555
C1_7 C2_7 1_555 1_555
C2_7 C3_7 1_555 1_555
C3_7 C1_7 1_555 1_555
C5_7 C2_7 1_555 1_555
C28_7 C5_7 1_555 1_555
C29_7 C28_7 1_555 1_555
H13_7 C29_7 1_555 1_555
C30_7 C29_7 1_555 1_555
H14_7 C30_7 1_555 1_555
C31_7 C30_7 1_555 1_555
C33_7 C31_7 1_555 1_555
H15_7 C33_7 1_555 1_555
C34_7 C28_7 1_555 1_555
H16_7 C34_7 1_555 1_555
C36_7 C35_7 1_555 1_555
H17_7 C36_7 1_555 1_555
C37_7 C36_7 1_555 1_555
H18_7 C37_7 1_555 1_555
C38_7 C37_7 1_555 1_555
C39_7 C38_7 1_555 1_555
C40_7 C38_7 1_555 1_555
C33_7 C34_7 1_555 1_555
C1_8 C2_8 1_555 1_555
C2_8 C3_8 1_555 1_555
C3_8 C1_8 1_555 1_555
C5_8 C2_8 1_555 1_555
C28_8 C5_8 1_555 1_555
C29_8 C28_8 1_555 1_555
H13_8 C29_8 1_555 1_555
C30_8 C29_8 1_555 1_555
H14_8 C30_8 1_555 1_555
C31_8 C30_8 1_555 1_555
C33_8 C31_8 1_555 1_555
H15_8 C33_8 1_555 1_555
C34_8 C28_8 1_555 1_555
H16_8 C34_8 1_555 1_555
C36_8 C35_8 1_555 1_555
H17_8 C36_8 1_555 1_555
C37_8 C36_8 1_555 1_555
H18_8 C37_8 1_555 1_555
C38_8 C37_8 1_555 1_555
C39_8 C38_8 1_555 1_555
C40_8 C38_8 1_555 1_555
C33_8 C34_8 1_555 1_555

#END
