
###############################################################################
#
# This file contains modified crystal structure data generated from the
# MOF subset of the Cambridge Structural Database (CSD) v543 
# hosted by the Cambridge Crystallographic Data Centre (CCDC).
#
# This work is licensed under the Creative Commons
# Attribution-NonCommercial-ShareAlike 4.0 International License.
# To view a copy of this license, visit
# http://creativecommons.org/licenses/by-nc-sa/4.0/
# or send a letter to
# Creative Commons, PO Box 1866, Mountain View, CA 94042, USA.
#
# CIF created using the CSD Python API on 29 September 2022
# The structure has been converted into the P1 space group
# The structure has a 3D framework
# The original CSD entry ZEVXEF is in the orthorhombic crystal system
# The framework has been calculated to contain at least 10.0% void space
# The void calculation uses a probe of radius 1.32A, grid spacing 0.4
# The framework is charged, counterions have been retained in the structure
#
###############################################################################

data_ZEVXEF
_chemical_formula_moiety         '(C384 H192 Ag24 N44 24+)n'
_symmetry_cell_setting           triclinic
_symmetry_space_group_name_H-M   'P 1'
_symmetry_Int_Tables_number      1
_space_group_name_Hall           'P 1'
loop_
_symmetry_equiv_pos_site_id
_symmetry_equiv_pos_as_xyz
1 x,y,z
_cell_length_a                   28.799(6)
_cell_length_b                   30.905(6)
_cell_length_c                   15.631(3)
_cell_angle_alpha                90
_cell_angle_beta                 90
_cell_angle_gamma                90
_cell_volume                     13912.1
loop_
_atom_site_label
_atom_site_type_symbol
_atom_site_fract_x
_atom_site_fract_y
_atom_site_fract_z
Ag2 Ag 0.00762(5) 0.2500 0.2500
C42 C 0.0009(2) 0.01162(17) 0.1990(4)
C45 C 0.0066(2) 0.10087(19) 0.2155(6)
C46 C 0.0221(2) 0.0810(2) 0.1401(5)
H23 H 0.0347 0.0980 0.0951
C47 C 0.0190(2) 0.03668(17) 0.1311(5)
H24 H 0.0289 0.0231 0.0797
C48 C 0.0105(3) 0.1457(2) 0.2214(6)
N6 N 0.0128(3) 0.1831(2) 0.2332(6)
C77 C 0.02156(18) 0.65203(17) 0.2501(4)
H37 H 0.0246 0.6268 0.2158
C78 C 0.06103(19) 0.6755(2) 0.2741(4)
H38 H 0.0910 0.6668 0.2554
C79 C 0.0556(2) 0.71064(16) 0.3242(4)
C80 C 0.0126(2) 0.72363(18) 0.3516(4)
H39 H 0.0099 0.7480 0.3883
C82 C 0.0956(3) 0.7356(2) 0.3509(5)
N10 N 0.1264(2) 0.7559(2) 0.3711(5)
C83 C 0.0284(2) 0.56178(17) 0.3629(5)
C84 C 0.0749(3) 0.5548(2) 0.3590(6)
H41 H 0.0867 0.5320 0.3244
C85 C 0.1047(3) 0.5803(3) 0.4043(8)
H42 H 0.1371 0.5749 0.4017
C86 C 0.0886(3) 0.6129(3) 0.4525(6)
C87 C 0.0430(3) 0.6209(2) 0.4616(4)
H43 H 0.0328 0.6437 0.4976
C88 C 0.0096(3) 0.59435(19) 0.4160(4)
C89 C 0.1181(4) 0.6442(3) 0.4961(7)
N11 N 0.1409(4) 0.6700(3) 0.5297(6)
C90 C 0.0009(2) 0.48838(17) 0.3010(4)
C93 C 0.0066(2) 0.39913(19) 0.2845(6)
C94 C 0.0221(2) 0.4190(2) 0.3599(5)
H47 H 0.0347 0.4020 0.4049
C95 C 0.0190(2) 0.46332(17) 0.3689(5)
H48 H 0.0289 0.4769 0.4203
C96 C 0.0105(3) 0.3543(2) 0.2786(6)
N12 N 0.0128(3) 0.3169(2) 0.2668(6)
Ag7 Ag 0.16948(4) 0.80403(3) 0.42501(7)
Ag9 Ag 0.19171(4) 0.71216(4) 0.57178(7)
Ag5 Ag 0.66948(4) 0.69597(3) 0.92501(7)
N8 N 0.7182(3) 0.6539(3) 0.9900(7)
N13 N 0.6264(2) 0.7441(2) 0.8711(5)
C1 C 0.4160(2) 0.94327(15) 0.7274(4)
C2 C 0.45966(19) 0.94369(16) 0.7727(4)
C3 C 0.43677(17) 0.90305(18) 0.7533(4)
C4 C 0.37996(18) 0.96563(15) 0.6902(4)
C5 C 0.49483(18) 0.96411(15) 0.8106(4)
C6 C 0.43665(16) 0.86013(17) 0.7493(4)
C14 C 0.3454(2) 0.94282(17) 0.6429(5)
C15 C 0.3581(2) 0.90763(18) 0.5894(4)
H5 H 0.3900 0.9002 0.5829
C16 C 0.3243(2) 0.88395(19) 0.5465(5)
H6 H 0.3328 0.8613 0.5085
C17 C 0.2785(3) 0.8938(2) 0.5597(6)
C18 C 0.2651(3) 0.9291(2) 0.6112(6)
H7 H 0.2332 0.9360 0.6180
C19 C 0.2983(2) 0.9534(2) 0.6511(6)
H8 H 0.2894 0.9776 0.6847
C20 C 0.2434(3) 0.8682(2) 0.5186(8)
N2 N 0.2182(3) 0.8461(3) 0.4900(7)
C21 C 0.39362(18) 0.83619(15) 0.7265(4)
C22 C 0.3953(2) 0.80080(16) 0.6708(4)
H9 H 0.4243 0.7911 0.6491
C23 C 0.3553(2) 0.78029(16) 0.6476(4)
H10 H 0.3563 0.7560 0.6103
C24 C 0.3143(2) 0.79472(18) 0.6781(5)
C25 C 0.3111(2) 0.8292(2) 0.7340(4)
H11 H 0.2817 0.8381 0.7552
C26 C 0.35026(19) 0.85038(19) 0.7584(5)
H12 H 0.3486 0.8743 0.7964
C27 C 0.2720(2) 0.7720(2) 0.6517(6)
N3 N 0.2380(3) 0.7547(2) 0.6327(5)
C28 C 0.47819(19) 0.83437(16) 0.7766(4)
C29 C 0.52156(18) 0.84797(17) 0.7501(4)
H13 H 0.5246 0.8732 0.7158
C30 C 0.56103(19) 0.8245(2) 0.7741(4)
H14 H 0.5910 0.8332 0.7554
C31 C 0.5556(2) 0.78936(16) 0.8242(4)
C32 C 0.5126(2) 0.77637(18) 0.8516(4)
H15 H 0.5099 0.7520 0.8883
C33 C 0.4733(2) 0.79835(14) 0.8264(4)
H16 H 0.4434 0.7886 0.8434
C34 C 0.5956(3) 0.7644(2) 0.8509(5)
C35 C 0.5284(2) 0.93822(17) 0.8629(5)
C36 C 0.5749(3) 0.9452(2) 0.8590(6)
H17 H 0.5867 0.9680 0.8244
C37 C 0.6047(3) 0.9197(3) 0.9043(8)
H18 H 0.6371 0.9251 0.9017
C38 C 0.5886(3) 0.8871(3) 0.9525(6)
C39 C 0.5430(3) 0.8791(2) 0.9616(4)
H19 H 0.5328 0.8563 0.9976
C40 C 0.5096(3) 0.90565(19) 0.9160(4)
H20 H 0.4771 0.9014 0.9215
C41 C 0.6181(4) 0.8558(3) 0.9961(7)
C29_2 C 0.02156(18) 0.84797(17) 0.2499(4)
H13_2 H 0.0246 0.8732 0.2842
C30_2 C 0.06103(19) 0.8245(2) 0.2259(4)
H14_2 H 0.0910 0.8332 0.2446
C31_2 C 0.0556(2) 0.78936(16) 0.1758(4)
C32_2 C 0.0126(2) 0.77637(18) 0.1484(4)
H15_2 H 0.0099 0.7520 0.1117
C34_2 C 0.0956(3) 0.7644(2) 0.1491(5)
N4 N 0.1264(2) 0.7441(2) 0.1289(5)
C35_2 C 0.0284(2) 0.93822(17) 0.1371(5)
C36_2 C 0.0749(3) 0.9452(2) 0.1410(6)
H17_2 H 0.0867 0.9680 0.1756
C37_2 C 0.1047(3) 0.9197(3) 0.0957(8)
H18_2 H 0.1371 0.9251 0.0983
C38_2 C 0.0886(3) 0.8871(3) 0.0475(6)
C39_2 C 0.0430(3) 0.8791(2) 0.0384(4)
H19_2 H 0.0328 0.8563 0.0024
C40_2 C 0.0096(3) 0.90565(19) 0.0840(4)
C41_2 C 0.1181(4) 0.8558(3) 0.0039(7)
Ag8 Ag 0.16948(4) 0.69597(3) 0.07499(7)
N8_2 N 0.2182(3) 0.6539(3) 0.0100(7)
N5 N 0.1409(4) 0.8300(3) 0.9703(6)
Ag10 Ag 0.19171(4) 0.78784(4) 0.92822(7)
C1_2 C 0.9160(2) 0.94327(15) 0.2726(4)
C2_2 C 0.95966(19) 0.94369(16) 0.2273(4)
Ag3 Ag 0.66948(4) 0.80403(3) 0.57499(7)
C3_2 C 0.93677(17) 0.90305(18) 0.2467(4)
Ag4 Ag 0.69171(4) 0.71216(4) 0.42822(7)
C4_2 C 0.87996(18) 0.96563(15) 0.3098(4)
C5_2 C 0.99483(18) 0.96411(15) 0.1894(4)
C6_2 C 0.93665(16) 0.86013(17) 0.2507(4)
C14_2 C 0.8454(2) 0.94282(17) 0.3571(5)
C15_2 C 0.8581(2) 0.90763(18) 0.4106(4)
H5_2 H 0.8900 0.9002 0.4171
C16_2 C 0.8243(2) 0.88395(19) 0.4535(5)
H6_2 H 0.8328 0.8613 0.4915
C17_2 C 0.7785(3) 0.8938(2) 0.4403(6)
C18_2 C 0.7651(3) 0.9291(2) 0.3888(6)
H7_2 H 0.7332 0.9360 0.3820
C19_2 C 0.7983(2) 0.9534(2) 0.3489(6)
H8_2 H 0.7894 0.9776 0.3153
C20_2 C 0.7434(3) 0.8682(2) 0.4814(8)
N2_2 N 0.7182(3) 0.8461(3) 0.5100(7)
C21_2 C 0.89362(18) 0.83619(15) 0.2735(4)
C22_2 C 0.8953(2) 0.80080(16) 0.3292(4)
H9_2 H 0.9243 0.7911 0.3509
C23_2 C 0.8553(2) 0.78029(16) 0.3524(4)
H10_2 H 0.8563 0.7560 0.3897
C24_2 C 0.8143(2) 0.79472(18) 0.3219(5)
C25_2 C 0.8111(2) 0.8292(2) 0.2660(4)
H11_2 H 0.7817 0.8381 0.2448
C26_2 C 0.85026(19) 0.85038(19) 0.2416(5)
H12_2 H 0.8486 0.8743 0.2036
C27_2 C 0.7720(2) 0.7720(2) 0.3483(6)
N3_2 N 0.7380(3) 0.7547(2) 0.3673(5)
C28_2 C 0.97819(19) 0.83437(16) 0.2234(4)
C33_2 C 0.9733(2) 0.79835(14) 0.1736(4)
H16_2 H 0.9434 0.7886 0.1566
H20_2 H 0.9771 0.9014 0.0785
N14 N 0.6264(2) 0.7559(2) 0.6289(5)
N16 N 0.6409(4) 0.6700(3) 0.4703(6)
Ag1 Ag 0.35739(5) 0.2500 0.7500
Ag2_2 Ag 0.50762(5) 0.2500 0.7500
C7 C 0.37580(18) 0.01302(16) 0.7012(5)
C8 C 0.3672(2) 0.03991(19) 0.6349(5)
H1 H 0.3640 0.0284 0.5789
C9 C 0.3629(2) 0.08357(19) 0.6473(5)
H2 H 0.3576 0.1023 0.6002
C10 C 0.3665(3) 0.09984(19) 0.7285(7)
C11 C 0.3765(3) 0.0753(2) 0.7939(6)
H3 H 0.3802 0.0879 0.8489
C12 C 0.3819(3) 0.0311(2) 0.7839(6)
H4 H 0.3895 0.0132 0.8314
C13 C 0.3573(3) 0.1472(2) 0.7419(6)
N1 N 0.3513(3) 0.1804(2) 0.7519(6)
C42_2 C 0.5009(2) 0.01162(17) 0.8010(4)
C43 C 0.4865(2) 0.03119(18) 0.7258(4)
H21 H 0.4740 0.0144 0.6805
C44 C 0.4908(2) 0.0768(2) 0.7176(5)
H22 H 0.4825 0.0906 0.6654
C45_2 C 0.5066(2) 0.10087(19) 0.7845(6)
C46_2 C 0.5221(2) 0.0810(2) 0.8599(5)
H23_2 H 0.5347 0.0980 0.9049
C47_2 C 0.5190(2) 0.03668(17) 0.8689(5)
H24_2 H 0.5289 0.0231 0.9203
C48_2 C 0.5105(3) 0.1457(2) 0.7786(6)
N6_2 N 0.5128(3) 0.1831(2) 0.7668(6)
C49 C 0.4160(2) 0.55673(15) 0.7726(4)
C50 C 0.45966(19) 0.55631(16) 0.7273(4)
C51 C 0.43677(17) 0.59695(18) 0.7467(4)
C52 C 0.37996(18) 0.53437(15) 0.8098(4)
C53 C 0.49483(18) 0.53589(15) 0.6894(4)
C54 C 0.43665(16) 0.63987(17) 0.7507(4)
C55 C 0.37580(18) 0.48698(16) 0.7988(5)
C56 C 0.3672(2) 0.46009(19) 0.8651(5)
H25 H 0.3640 0.4716 0.9211
C57 C 0.3629(2) 0.41643(19) 0.8527(5)
H26 H 0.3576 0.3977 0.8998
C58 C 0.3665(3) 0.40016(19) 0.7715(7)
C59 C 0.3765(3) 0.4247(2) 0.7061(6)
H27 H 0.3802 0.4121 0.6511
C60 C 0.3819(3) 0.4689(2) 0.7161(6)
H28 H 0.3895 0.4868 0.6686
C61 C 0.3573(3) 0.3528(2) 0.7581(6)
N7 N 0.3513(3) 0.3196(2) 0.7481(6)
C62 C 0.3454(2) 0.55718(17) 0.8571(5)
C63 C 0.3581(2) 0.59237(18) 0.9106(4)
H29 H 0.3900 0.5998 0.9171
C64 C 0.3243(2) 0.61605(19) 0.9535(5)
H30 H 0.3328 0.6387 0.9915
C65 C 0.2785(3) 0.6062(2) 0.9403(6)
C66 C 0.2651(3) 0.5709(2) 0.8888(6)
H31 H 0.2332 0.5640 0.8820
C67 C 0.2983(2) 0.5466(2) 0.8489(6)
H32 H 0.2894 0.5224 0.8153
C68 C 0.2434(3) 0.6318(2) 0.9814(8)
C69 C 0.39362(18) 0.66381(15) 0.7735(4)
C70 C 0.3953(2) 0.69920(16) 0.8292(4)
H33 H 0.4243 0.7089 0.8509
C71 C 0.3553(2) 0.71971(16) 0.8524(4)
H34 H 0.3563 0.7440 0.8897
C72 C 0.3143(2) 0.70528(18) 0.8219(5)
C73 C 0.3111(2) 0.6708(2) 0.7660(4)
H35 H 0.2817 0.6619 0.7448
C74 C 0.35026(19) 0.64962(19) 0.7416(5)
H36 H 0.3486 0.6257 0.7036
C75 C 0.2720(2) 0.7280(2) 0.8483(6)
N9 N 0.2380(3) 0.7453(2) 0.8673(5)
C76 C 0.47819(19) 0.66563(16) 0.7234(4)
C77_2 C 0.52156(18) 0.65203(17) 0.7499(4)
H37_2 H 0.5246 0.6268 0.7842
C78_2 C 0.56103(19) 0.6755(2) 0.7259(4)
H38_2 H 0.5910 0.6668 0.7446
C79_2 C 0.5556(2) 0.71064(16) 0.6758(4)
C80_2 C 0.5126(2) 0.72363(18) 0.6484(4)
H39_2 H 0.5099 0.7480 0.6117
C81 C 0.4733(2) 0.70165(14) 0.6736(4)
H40 H 0.4434 0.7114 0.6566
C82_2 C 0.5956(3) 0.7356(2) 0.6491(5)
C83_2 C 0.5284(2) 0.56178(17) 0.6371(5)
C84_2 C 0.5749(3) 0.5548(2) 0.6410(6)
H41_2 H 0.5867 0.5320 0.6756
C85_2 C 0.6047(3) 0.5803(3) 0.5957(8)
H42_2 H 0.6371 0.5749 0.5983
C86_2 C 0.5886(3) 0.6129(3) 0.5475(6)
C87_2 C 0.5430(3) 0.6209(2) 0.5384(4)
H43_2 H 0.5328 0.6437 0.5024
C88_2 C 0.5096(3) 0.59435(19) 0.5840(4)
H44 H 0.4771 0.5986 0.5785
C89_2 C 0.6181(4) 0.6442(3) 0.5039(7)
C90_2 C 0.5009(2) 0.48838(17) 0.6990(4)
C91 C 0.4865(2) 0.46881(18) 0.7742(4)
H45 H 0.4740 0.4856 0.8195
C92 C 0.4908(2) 0.4232(2) 0.7824(5)
H46 H 0.4825 0.4094 0.8346
C93_2 C 0.5066(2) 0.39913(19) 0.7155(6)
C94_2 C 0.5221(2) 0.4190(2) 0.6401(5)
H47_2 H 0.5347 0.4020 0.5951
C95_2 C 0.5190(2) 0.46332(17) 0.6311(5)
H48_2 H 0.5289 0.4769 0.5797
C96_2 C 0.5105(3) 0.3543(2) 0.7214(6)
N12_2 N 0.5128(3) 0.3169(2) 0.7332(6)
Ag1_2 Ag 0.85739(5) 0.2500 0.2500
C7_2 C 0.87580(18) 0.01302(16) 0.2988(5)
C8_2 C 0.8672(2) 0.03991(19) 0.3651(5)
H1_2 H 0.8640 0.0284 0.4211
C9_2 C 0.8629(2) 0.08357(19) 0.3527(5)
H2_2 H 0.8576 0.1023 0.3998
C10_2 C 0.8665(3) 0.09984(19) 0.2715(7)
C11_2 C 0.8765(3) 0.0753(2) 0.2061(6)
H3_2 H 0.8802 0.0879 0.1511
C12_2 C 0.8819(3) 0.0311(2) 0.2161(6)
H4_2 H 0.8895 0.0132 0.1686
C13_2 C 0.8573(3) 0.1472(2) 0.2581(6)
N1_2 N 0.8513(3) 0.1804(2) 0.2481(6)
C43_2 C 0.9865(2) 0.03119(18) 0.2742(4)
H21_2 H 0.9740 0.0144 0.3195
C44_2 C 0.9908(2) 0.0768(2) 0.2824(5)
H22_2 H 0.9825 0.0906 0.3346
C49_2 C 0.9160(2) 0.55673(15) 0.2274(4)
C50_2 C 0.95966(19) 0.55631(16) 0.2727(4)
C51_2 C 0.93677(17) 0.59695(18) 0.2533(4)
Ag6 Ag 0.69171(4) 0.78784(4) 0.07178(7)
C52_2 C 0.87996(18) 0.53437(15) 0.1902(4)
C53_2 C 0.99483(18) 0.53589(15) 0.3106(4)
C54_2 C 0.93665(16) 0.63987(17) 0.2493(4)
C55_2 C 0.87580(18) 0.48698(16) 0.2012(5)
C56_2 C 0.8672(2) 0.46009(19) 0.1349(5)
H25_2 H 0.8640 0.4716 0.0789
C57_2 C 0.8629(2) 0.41643(19) 0.1473(5)
H26_2 H 0.8576 0.3977 0.1002
C58_2 C 0.8665(3) 0.40016(19) 0.2285(7)
C59_2 C 0.8765(3) 0.4247(2) 0.2939(6)
H27_2 H 0.8802 0.4121 0.3489
C60_2 C 0.8819(3) 0.4689(2) 0.2839(6)
H28_2 H 0.8895 0.4868 0.3314
C61_2 C 0.8573(3) 0.3528(2) 0.2419(6)
N7_2 N 0.8513(3) 0.3196(2) 0.2519(6)
C62_2 C 0.8454(2) 0.55718(17) 0.1429(5)
C63_2 C 0.8581(2) 0.59237(18) 0.0894(4)
H29_2 H 0.8900 0.5998 0.0829
C64_2 C 0.8243(2) 0.61605(19) 0.0465(5)
H30_2 H 0.8328 0.6387 0.0085
C65_2 C 0.7785(3) 0.6062(2) 0.0597(6)
C66_2 C 0.7651(3) 0.5709(2) 0.1112(6)
H31_2 H 0.7332 0.5640 0.1180
C67_2 C 0.7983(2) 0.5466(2) 0.1511(6)
H32_2 H 0.7894 0.5224 0.1847
C68_2 C 0.7434(3) 0.6318(2) 0.0186(8)
C69_2 C 0.89362(18) 0.66381(15) 0.2265(4)
C70_2 C 0.8953(2) 0.69920(16) 0.1708(4)
H33_2 H 0.9243 0.7089 0.1491
C71_2 C 0.8553(2) 0.71971(16) 0.1476(4)
H34_2 H 0.8563 0.7440 0.1103
C72_2 C 0.8143(2) 0.70528(18) 0.1781(5)
C73_2 C 0.8111(2) 0.6708(2) 0.2340(4)
H35_2 H 0.7817 0.6619 0.2552
C74_2 C 0.85026(19) 0.64962(19) 0.2584(5)
H36_2 H 0.8486 0.6257 0.2964
C75_2 C 0.7720(2) 0.7280(2) 0.1517(6)
N9_2 N 0.7380(3) 0.7453(2) 0.1327(5)
C76_2 C 0.97819(19) 0.66563(16) 0.2766(4)
C81_2 C 0.9733(2) 0.70165(14) 0.3264(4)
H40_2 H 0.9434 0.7114 0.3434
H44_2 H 0.9771 0.5986 0.4215
C91_2 C 0.9865(2) 0.46881(18) 0.2258(4)
H45_2 H 0.9740 0.4856 0.1805
C92_2 C 0.9908(2) 0.4232(2) 0.2176(5)
H46_2 H 0.9825 0.4094 0.1654
N15 N 0.6409(4) 0.8300(3) 0.0297(6)
C1_3 C 0.5840(2) 0.05673(15) 0.2726(4)
C2_3 C 0.54034(19) 0.05631(16) 0.2273(4)
Ag3_2 Ag 0.83052(4) 0.19597(3) 0.57499(7)
C3_3 C 0.56323(17) 0.09695(18) 0.2467(4)
Ag4_2 Ag 0.80829(4) 0.28784(4) 0.42822(7)
C4_3 C 0.62004(18) 0.03437(15) 0.3098(4)
C5_3 C 0.50517(18) 0.03589(15) 0.1894(4)
C6_3 C 0.56335(16) 0.13987(17) 0.2507(4)
C14_3 C 0.6546(2) 0.05718(17) 0.3571(5)
C15_3 C 0.6419(2) 0.09237(18) 0.4106(4)
H5_3 H 0.6100 0.0998 0.4171
C16_3 C 0.6757(2) 0.11605(19) 0.4535(5)
H6_3 H 0.6672 0.1387 0.4915
C17_3 C 0.7215(3) 0.1062(2) 0.4403(6)
C18_3 C 0.7349(3) 0.0709(2) 0.3888(6)
H7_3 H 0.7668 0.0640 0.3820
C19_3 C 0.7017(2) 0.0466(2) 0.3489(6)
H8_3 H 0.7106 0.0224 0.3153
C20_3 C 0.7566(3) 0.1318(2) 0.4814(8)
N2_3 N 0.7818(3) 0.1539(3) 0.5100(7)
C21_3 C 0.60638(18) 0.16381(15) 0.2735(4)
C22_3 C 0.6047(2) 0.19920(16) 0.3292(4)
H9_3 H 0.5757 0.2089 0.3509
C23_3 C 0.6447(2) 0.21971(16) 0.3524(4)
H10_3 H 0.6437 0.2440 0.3897
C24_3 C 0.6857(2) 0.20528(18) 0.3219(5)
C25_3 C 0.6889(2) 0.1708(2) 0.2660(4)
H11_3 H 0.7183 0.1619 0.2448
C26_3 C 0.64974(19) 0.14962(19) 0.2416(5)
H12_3 H 0.6514 0.1257 0.2036
C27_3 C 0.7280(2) 0.2280(2) 0.3483(6)
N3_3 N 0.7620(3) 0.2453(2) 0.3673(5)
C28_3 C 0.52181(19) 0.16563(16) 0.2234(4)
C29_3 C 0.47844(18) 0.15203(17) 0.2499(4)
H13_3 H 0.4754 0.1268 0.2842
C30_3 C 0.43897(19) 0.1755(2) 0.2259(4)
H14_3 H 0.4090 0.1668 0.2446
C31_3 C 0.4444(2) 0.21064(16) 0.1758(4)
C32_3 C 0.4874(2) 0.22363(18) 0.1484(4)
H15_3 H 0.4901 0.2480 0.1117
C33_3 C 0.5267(2) 0.20165(14) 0.1736(4)
H16_3 H 0.5566 0.2114 0.1566
C34_3 C 0.4044(3) 0.2356(2) 0.1491(5)
N4_2 N 0.3736(2) 0.2559(2) 0.1289(5)
C35_3 C 0.4716(2) 0.06178(17) 0.1371(5)
C36_3 C 0.4251(3) 0.0548(2) 0.1410(6)
H17_3 H 0.4133 0.0320 0.1756
C37_3 C 0.3953(3) 0.0803(3) 0.0957(8)
H18_3 H 0.3629 0.0749 0.0983
C38_3 C 0.4114(3) 0.1129(3) 0.0475(6)
C39_3 C 0.4570(3) 0.1209(2) 0.0384(4)
H19_3 H 0.4672 0.1437 0.0024
C40_3 C 0.4904(3) 0.09435(19) 0.0840(4)
H20_3 H 0.5229 0.0986 0.0785
C41_3 C 0.3819(4) 0.1442(3) 0.0039(7)
Ag8_2 Ag 0.33052(4) 0.30403(3) 0.07499(7)
N14_2 N 0.8736(2) 0.2441(2) 0.6289(5)
N16_2 N 0.8591(4) 0.3300(3) 0.4703(6)
N8_3 N 0.2818(3) 0.3461(3) 0.0100(7)
Ag2_3 Ag 0.99238(5) 0.7500 0.7500
C42_3 C 0.9991(2) 0.98838(17) 0.8010(4)
C45_3 C 0.9934(2) 0.89913(19) 0.7845(6)
C46_3 C 0.9779(2) 0.9190(2) 0.8599(5)
H23_3 H 0.9653 0.9020 0.9049
C47_3 C 0.9810(2) 0.96332(17) 0.8689(5)
H24_3 H 0.9711 0.9769 0.9203
C48_3 C 0.9895(3) 0.8543(2) 0.7786(6)
N6_3 N 0.9872(3) 0.8169(2) 0.7668(6)
C77_3 C 0.97844(18) 0.34797(17) 0.7499(4)
H37_3 H 0.9754 0.3732 0.7842
C78_3 C 0.93897(19) 0.3245(2) 0.7259(4)
H38_3 H 0.9090 0.3332 0.7446
C79_3 C 0.9444(2) 0.28936(16) 0.6758(4)
C80_3 C 0.9874(2) 0.27637(18) 0.6484(4)
H39_3 H 0.9901 0.2520 0.6117
C82_3 C 0.9044(3) 0.2644(2) 0.6491(5)
C83_3 C 0.9716(2) 0.43822(17) 0.6371(5)
C84_3 C 0.9251(3) 0.4452(2) 0.6410(6)
H41_3 H 0.9133 0.4680 0.6756
C85_3 C 0.8953(3) 0.4197(3) 0.5957(8)
H42_3 H 0.8629 0.4251 0.5983
C86_3 C 0.9114(3) 0.3871(3) 0.5475(6)
C87_3 C 0.9570(3) 0.3791(2) 0.5384(4)
H43_3 H 0.9672 0.3563 0.5024
C88_3 C 0.9904(3) 0.40565(19) 0.5840(4)
C89_3 C 0.8819(4) 0.3558(3) 0.5039(7)
C90_3 C 0.9991(2) 0.51162(17) 0.6990(4)
C93_3 C 0.9934(2) 0.60087(19) 0.7155(6)
C94_3 C 0.9779(2) 0.5810(2) 0.6401(5)
H47_3 H 0.9653 0.5980 0.5951
C95_3 C 0.9810(2) 0.53668(17) 0.6311(5)
H48_3 H 0.9711 0.5231 0.5797
C96_3 C 0.9895(3) 0.6457(2) 0.7214(6)
N12_3 N 0.9872(3) 0.6831(2) 0.7332(6)
N5_2 N 0.3591(4) 0.1700(3) 0.9703(6)
Ag10_2 Ag 0.30829(4) 0.21216(4) 0.92822(7)
Ag1_3 Ag 0.14261(5) 0.7500 0.7500
C7_3 C 0.12420(18) 0.98698(16) 0.7012(5)
C8_3 C 0.1328(2) 0.96009(19) 0.6349(5)
H1_3 H 0.1360 0.9716 0.5789
C9_3 C 0.1371(2) 0.91643(19) 0.6473(5)
H2_3 H 0.1424 0.8977 0.6002
C10_3 C 0.1335(3) 0.90016(19) 0.7285(7)
C11_3 C 0.1235(3) 0.9247(2) 0.7939(6)
H3_3 H 0.1198 0.9121 0.8489
C12_3 C 0.1181(3) 0.9689(2) 0.7839(6)
H4_3 H 0.1105 0.9868 0.8314
C13_3 C 0.1427(3) 0.8528(2) 0.7419(6)
N1_3 N 0.1487(3) 0.8196(2) 0.7519(6)
C43_3 C 0.0135(2) 0.96881(18) 0.7258(4)
H21_3 H 0.0260 0.9856 0.6805
C44_3 C 0.0092(2) 0.9232(2) 0.7176(5)
H22_3 H 0.0175 0.9094 0.6654
C49_3 C 0.0840(2) 0.44327(15) 0.7726(4)
C50_3 C 0.04034(19) 0.44369(16) 0.7273(4)
C51_3 C 0.06323(17) 0.40305(18) 0.7467(4)
C52_3 C 0.12004(18) 0.46563(15) 0.8098(4)
C53_3 C 0.00517(18) 0.46411(15) 0.6894(4)
C54_3 C 0.06335(16) 0.36013(17) 0.7507(4)
C55_3 C 0.12420(18) 0.51302(16) 0.7988(5)
C56_3 C 0.1328(2) 0.53991(19) 0.8651(5)
H25_3 H 0.1360 0.5284 0.9211
C57_3 C 0.1371(2) 0.58357(19) 0.8527(5)
H26_3 H 0.1424 0.6023 0.8998
C58_3 C 0.1335(3) 0.59984(19) 0.7715(7)
C59_3 C 0.1235(3) 0.5753(2) 0.7061(6)
H27_3 H 0.1198 0.5879 0.6511
C60_3 C 0.1181(3) 0.5311(2) 0.7161(6)
H28_3 H 0.1105 0.5132 0.6686
C61_3 C 0.1427(3) 0.6472(2) 0.7581(6)
N7_3 N 0.1487(3) 0.6804(2) 0.7481(6)
C62_3 C 0.1546(2) 0.44282(17) 0.8571(5)
C63_3 C 0.1419(2) 0.40763(18) 0.9106(4)
H29_3 H 0.1100 0.4002 0.9171
C64_3 C 0.1757(2) 0.38395(19) 0.9535(5)
H30_3 H 0.1672 0.3613 0.9915
C65_3 C 0.2215(3) 0.3938(2) 0.9403(6)
C66_3 C 0.2349(3) 0.4291(2) 0.8888(6)
H31_3 H 0.2668 0.4360 0.8820
C67_3 C 0.2017(2) 0.4534(2) 0.8489(6)
H32_3 H 0.2106 0.4776 0.8153
C68_3 C 0.2566(3) 0.3682(2) 0.9814(8)
C69_3 C 0.10638(18) 0.33619(15) 0.7735(4)
C70_3 C 0.1047(2) 0.30080(16) 0.8292(4)
H33_3 H 0.0757 0.2911 0.8509
C71_3 C 0.1447(2) 0.28029(16) 0.8524(4)
H34_3 H 0.1437 0.2560 0.8897
C72_3 C 0.1857(2) 0.29472(18) 0.8219(5)
C73_3 C 0.1889(2) 0.3292(2) 0.7660(4)
H35_3 H 0.2183 0.3381 0.7448
C74_3 C 0.14974(19) 0.35038(19) 0.7416(5)
H36_3 H 0.1514 0.3743 0.7036
C75_3 C 0.2280(2) 0.2720(2) 0.8483(6)
N9_3 N 0.2620(3) 0.2547(2) 0.8673(5)
C76_3 C 0.02181(19) 0.33437(16) 0.7234(4)
C81_3 C 0.0267(2) 0.29835(14) 0.6736(4)
H40_3 H 0.0566 0.2886 0.6566
H44_3 H 0.0229 0.4014 0.5785
C91_3 C 0.0135(2) 0.53119(18) 0.7742(4)
H45_3 H 0.0260 0.5144 0.8195
C92_3 C 0.0092(2) 0.5768(2) 0.7824(5)
H46_3 H 0.0175 0.5906 0.8346
Ag1_4 Ag 0.64261(5) 0.7500 0.2500
Ag2_4 Ag 0.49238(5) 0.7500 0.2500
C7_4 C 0.62420(18) 0.98698(16) 0.2988(5)
C8_4 C 0.6328(2) 0.96009(19) 0.3651(5)
H1_4 H 0.6360 0.9716 0.4211
C9_4 C 0.6371(2) 0.91643(19) 0.3527(5)
H2_4 H 0.6424 0.8977 0.3998
C10_4 C 0.6335(3) 0.90016(19) 0.2715(7)
C11_4 C 0.6235(3) 0.9247(2) 0.2061(6)
H3_4 H 0.6198 0.9121 0.1511
C12_4 C 0.6181(3) 0.9689(2) 0.2161(6)
H4_4 H 0.6105 0.9868 0.1686
C13_4 C 0.6427(3) 0.8528(2) 0.2581(6)
N1_4 N 0.6487(3) 0.8196(2) 0.2481(6)
C42_4 C 0.4991(2) 0.98838(17) 0.1990(4)
C43_4 C 0.5135(2) 0.96881(18) 0.2742(4)
H21_4 H 0.5260 0.9856 0.3195
C44_4 C 0.5092(2) 0.9232(2) 0.2824(5)
H22_4 H 0.5175 0.9094 0.3346
C45_4 C 0.4934(2) 0.89913(19) 0.2155(6)
C46_4 C 0.4779(2) 0.9190(2) 0.1401(5)
H23_4 H 0.4653 0.9020 0.0951
C47_4 C 0.4810(2) 0.96332(17) 0.1311(5)
H24_4 H 0.4711 0.9769 0.0797
C48_4 C 0.4895(3) 0.8543(2) 0.2214(6)
N6_4 N 0.4872(3) 0.8169(2) 0.2332(6)
C49_4 C 0.5840(2) 0.44327(15) 0.2274(4)
C50_4 C 0.54034(19) 0.44369(16) 0.2727(4)
C51_4 C 0.56323(17) 0.40305(18) 0.2533(4)
Ag6_2 Ag 0.80829(4) 0.21216(4) 0.07178(7)
C52_4 C 0.62004(18) 0.46563(15) 0.1902(4)
C53_4 C 0.50517(18) 0.46411(15) 0.3106(4)
C54_4 C 0.56335(16) 0.36013(17) 0.2493(4)
C55_4 C 0.62420(18) 0.51302(16) 0.2012(5)
C56_4 C 0.6328(2) 0.53991(19) 0.1349(5)
H25_4 H 0.6360 0.5284 0.0789
C57_4 C 0.6371(2) 0.58357(19) 0.1473(5)
H26_4 H 0.6424 0.6023 0.1002
C58_4 C 0.6335(3) 0.59984(19) 0.2285(7)
C59_4 C 0.6235(3) 0.5753(2) 0.2939(6)
H27_4 H 0.6198 0.5879 0.3489
C60_4 C 0.6181(3) 0.5311(2) 0.2839(6)
H28_4 H 0.6105 0.5132 0.3314
C61_4 C 0.6427(3) 0.6472(2) 0.2419(6)
N7_4 N 0.6487(3) 0.6804(2) 0.2519(6)
C62_4 C 0.6546(2) 0.44282(17) 0.1429(5)
C63_4 C 0.6419(2) 0.40763(18) 0.0894(4)
H29_4 H 0.6100 0.4002 0.0829
C64_4 C 0.6757(2) 0.38395(19) 0.0465(5)
H30_4 H 0.6672 0.3613 0.0085
C65_4 C 0.7215(3) 0.3938(2) 0.0597(6)
C66_4 C 0.7349(3) 0.4291(2) 0.1112(6)
H31_4 H 0.7668 0.4360 0.1180
C67_4 C 0.7017(2) 0.4534(2) 0.1511(6)
H32_4 H 0.7106 0.4776 0.1847
C68_4 C 0.7566(3) 0.3682(2) 0.0186(8)
C69_4 C 0.60638(18) 0.33619(15) 0.2265(4)
C70_4 C 0.6047(2) 0.30080(16) 0.1708(4)
H33_4 H 0.5757 0.2911 0.1491
C71_4 C 0.6447(2) 0.28029(16) 0.1476(4)
H34_4 H 0.6437 0.2560 0.1103
C72_4 C 0.6857(2) 0.29472(18) 0.1781(5)
C73_4 C 0.6889(2) 0.3292(2) 0.2340(4)
H35_4 H 0.7183 0.3381 0.2552
C74_4 C 0.64974(19) 0.35038(19) 0.2584(5)
H36_4 H 0.6514 0.3743 0.2964
C75_4 C 0.7280(2) 0.2720(2) 0.1517(6)
N9_4 N 0.7620(3) 0.2547(2) 0.1327(5)
C76_4 C 0.52181(19) 0.33437(16) 0.2766(4)
C77_4 C 0.47844(18) 0.34797(17) 0.2501(4)
H37_4 H 0.4754 0.3732 0.2158
C78_4 C 0.43897(19) 0.3245(2) 0.2741(4)
H38_4 H 0.4090 0.3332 0.2554
C79_4 C 0.4444(2) 0.28936(16) 0.3242(4)
C80_4 C 0.4874(2) 0.27637(18) 0.3516(4)
H39_4 H 0.4901 0.2520 0.3883
C81_4 C 0.5267(2) 0.29835(14) 0.3264(4)
H40_4 H 0.5566 0.2886 0.3434
C82_4 C 0.4044(3) 0.2644(2) 0.3509(5)
N10_2 N 0.3736(2) 0.2441(2) 0.3711(5)
C83_4 C 0.4716(2) 0.43822(17) 0.3629(5)
C84_4 C 0.4251(3) 0.4452(2) 0.3590(6)
H41_4 H 0.4133 0.4680 0.3244
C85_4 C 0.3953(3) 0.4197(3) 0.4043(8)
H42_4 H 0.3629 0.4251 0.4017
C86_4 C 0.4114(3) 0.3871(3) 0.4525(6)
C87_4 C 0.4570(3) 0.3791(2) 0.4616(4)
H43_4 H 0.4672 0.3563 0.4976
C88_4 C 0.4904(3) 0.40565(19) 0.4160(4)
H44_4 H 0.5229 0.4014 0.4215
C89_4 C 0.3819(4) 0.3558(3) 0.4961(7)
N11_2 N 0.3591(4) 0.3300(3) 0.5297(6)
C90_4 C 0.4991(2) 0.51162(17) 0.3010(4)
C91_4 C 0.5135(2) 0.53119(18) 0.2258(4)
H45_4 H 0.5260 0.5144 0.1805
C92_4 C 0.5092(2) 0.5768(2) 0.2176(5)
H46_4 H 0.5175 0.5906 0.1654
C93_4 C 0.4934(2) 0.60087(19) 0.2845(6)
C94_4 C 0.4779(2) 0.5810(2) 0.3599(5)
H47_4 H 0.4653 0.5980 0.4049
C95_4 C 0.4810(2) 0.53668(17) 0.3689(5)
H48_4 H 0.4711 0.5231 0.4203
C96_4 C 0.4895(3) 0.6457(2) 0.2786(6)
N12_4 N 0.4872(3) 0.6831(2) 0.2668(6)
Ag7_2 Ag 0.33052(4) 0.19597(3) 0.42501(7)
Ag9_2 Ag 0.30829(4) 0.28784(4) 0.57178(7)
N15_2 N 0.8591(4) 0.1700(3) 0.0297(6)
C1_4 C 0.0840(2) 0.05673(15) 0.7274(4)
C2_4 C 0.04034(19) 0.05631(16) 0.7727(4)
C3_4 C 0.06323(17) 0.09695(18) 0.7533(4)
C4_4 C 0.12004(18) 0.03437(15) 0.6902(4)
C5_4 C 0.00517(18) 0.03589(15) 0.8106(4)
C6_4 C 0.06335(16) 0.13987(17) 0.7493(4)
C14_4 C 0.1546(2) 0.05718(17) 0.6429(5)
C15_4 C 0.1419(2) 0.09237(18) 0.5894(4)
H5_4 H 0.1100 0.0998 0.5829
C16_4 C 0.1757(2) 0.11605(19) 0.5465(5)
H6_4 H 0.1672 0.1387 0.5085
C17_4 C 0.2215(3) 0.1062(2) 0.5597(6)
C18_4 C 0.2349(3) 0.0709(2) 0.6112(6)
H7_4 H 0.2668 0.0640 0.6180
C19_4 C 0.2017(2) 0.0466(2) 0.6511(6)
H8_4 H 0.2106 0.0224 0.6847
C20_4 C 0.2566(3) 0.1318(2) 0.5186(8)
N2_4 N 0.2818(3) 0.1539(3) 0.4900(7)
C21_4 C 0.10638(18) 0.16381(15) 0.7265(4)
C22_4 C 0.1047(2) 0.19920(16) 0.6708(4)
H9_4 H 0.0757 0.2089 0.6491
C23_4 C 0.1447(2) 0.21971(16) 0.6476(4)
H10_4 H 0.1437 0.2440 0.6103
C24_4 C 0.1857(2) 0.20528(18) 0.6781(5)
C25_4 C 0.1889(2) 0.1708(2) 0.7340(4)
H11_4 H 0.2183 0.1619 0.7552
C26_4 C 0.14974(19) 0.14962(19) 0.7584(5)
H12_4 H 0.1514 0.1257 0.7964
C27_4 C 0.2280(2) 0.2280(2) 0.6517(6)
N3_4 N 0.2620(3) 0.2453(2) 0.6327(5)
C28_4 C 0.02181(19) 0.16563(16) 0.7766(4)
C33_4 C 0.0267(2) 0.20165(14) 0.8264(4)
H16_4 H 0.0566 0.2114 0.8434
H20_4 H 0.0229 0.0986 0.9215
Ag5_2 Ag 0.83052(4) 0.30403(3) 0.92501(7)
N8_4 N 0.7818(3) 0.3461(3) 0.9900(7)
N13_2 N 0.8736(2) 0.2559(2) 0.8711(5)
C29_4 C 0.97844(18) 0.15203(17) 0.7501(4)
H13_4 H 0.9754 0.1268 0.7158
C30_4 C 0.93897(19) 0.1755(2) 0.7741(4)
H14_4 H 0.9090 0.1668 0.7554
C31_4 C 0.9444(2) 0.21064(16) 0.8242(4)
C32_4 C 0.9874(2) 0.22363(18) 0.8516(4)
H15_4 H 0.9901 0.2480 0.8883
C34_4 C 0.9044(3) 0.2356(2) 0.8509(5)
C35_4 C 0.9716(2) 0.06178(17) 0.8629(5)
C36_4 C 0.9251(3) 0.0548(2) 0.8590(6)
H17_4 H 0.9133 0.0320 0.8244
C37_4 C 0.8953(3) 0.0803(3) 0.9043(8)
H18_4 H 0.8629 0.0749 0.9017
C38_4 C 0.9114(3) 0.1129(3) 0.9525(6)
C39_4 C 0.9570(3) 0.1209(2) 0.9616(4)
H19_4 H 0.9672 0.1437 0.9976
C40_4 C 0.9904(3) 0.09435(19) 0.9160(4)
C41_4 C 0.8819(4) 0.1442(3) 0.9961(7)
loop_
_geom_bond_atom_site_label_1
_geom_bond_atom_site_label_2
_geom_bond_site_symmetry_1
_geom_bond_site_symmetry_2
Ag2 N6 1_555 1_555
C46 C45 1_555 1_555
H23 C46 1_555 1_555
C47 C42 1_555 1_555
H24 C47 1_555 1_555
C48 C45 1_555 1_555
N6 C48 1_555 1_555
H37 C77 1_555 1_555
C78 C77 1_555 1_555
H38 C78 1_555 1_555
C79 C78 1_555 1_555
C80 C79 1_555 1_555
H39 C80 1_555 1_555
C82 C79 1_555 1_555
N10 C82 1_555 1_555
C84 C83 1_555 1_555
H41 C84 1_555 1_555
C85 C84 1_555 1_555
H42 C85 1_555 1_555
C86 C85 1_555 1_555
C87 C86 1_555 1_555
H43 C87 1_555 1_555
C88 C83 1_555 1_555
C89 C86 1_555 1_555
N11 C89 1_555 1_555
C94 C93 1_555 1_555
H47 C94 1_555 1_555
C95 C90 1_555 1_555
H48 C95 1_555 1_555
C96 C93 1_555 1_555
N12 Ag2 1_555 1_555
Ag7 N10 1_555 1_555
Ag9 N11 1_555 1_555
C46 C47 1_555 1_555
C87 C88 1_555 1_555
C94 C95 1_555 1_555
C96 N12 1_555 1_555
Ag5 N8 1_555 1_555
N13 Ag5 1_555 1_555
C1 C2 1_555 1_555
C2 C3 1_555 1_555
Ag7 N2 1_555 1_555
C3 C1 1_555 1_555
Ag9 N3 1_555 1_555
C4 C1 1_555 1_555
C5 C2 1_555 1_555
C6 C3 1_555 1_555
C14 C4 1_555 1_555
C15 C14 1_555 1_555
H5 C15 1_555 1_555
C16 C15 1_555 1_555
H6 C16 1_555 1_555
C17 C16 1_555 1_555
C18 C17 1_555 1_555
H7 C18 1_555 1_555
C19 C14 1_555 1_555
H8 C19 1_555 1_555
C20 C17 1_555 1_555
N2 C20 1_555 1_555
C21 C6 1_555 1_555
C22 C21 1_555 1_555
H9 C22 1_555 1_555
C23 C22 1_555 1_555
H10 C23 1_555 1_555
C24 C23 1_555 1_555
C25 C24 1_555 1_555
H11 C25 1_555 1_555
C26 C21 1_555 1_555
H12 C26 1_555 1_555
C27 C24 1_555 1_555
N3 C27 1_555 1_555
C28 C6 1_555 1_555
C29 C28 1_555 1_555
H13 C29 1_555 1_555
C30 C29 1_555 1_555
H14 C30 1_555 1_555
C31 C30 1_555 1_555
C32 C31 1_555 1_555
H15 C32 1_555 1_555
C33 C28 1_555 1_555
H16 C33 1_555 1_555
C34 C31 1_555 1_555
N13 C34 1_555 1_555
C35 C5 1_555 1_555
C36 C35 1_555 1_555
H17 C36 1_555 1_555
C37 C36 1_555 1_555
H18 C37 1_555 1_555
C38 C37 1_555 1_555
C39 C38 1_555 1_555
H19 C39 1_555 1_555
C40 C35 1_555 1_555
H20 C40 1_555 1_555
C41 C38 1_555 1_555
C18 C19 1_555 1_555
C25 C26 1_555 1_555
C32 C33 1_555 1_555
C39 C40 1_555 1_555
H13_2 C29_2 1_555 1_555
C30_2 C29_2 1_555 1_555
H14_2 C30_2 1_555 1_555
C31_2 C30_2 1_555 1_555
C32_2 C31_2 1_555 1_555
H15_2 C32_2 1_555 1_555
C34_2 C31_2 1_555 1_555
N4 C34_2 1_555 1_555
C36_2 C35_2 1_555 1_555
H17_2 C36_2 1_555 1_555
C37_2 C36_2 1_555 1_555
H18_2 C37_2 1_555 1_555
C38_2 C37_2 1_555 1_555
C39_2 C38_2 1_555 1_555
H19_2 C39_2 1_555 1_555
C40_2 C35_2 1_555 1_555
C41_2 C38_2 1_555 1_555
Ag8 N4 1_555 1_555
C39_2 C40_2 1_555 1_555
Ag8 N8_2 1_555 1_555
Ag10 N5 1_555 1_555
C1_2 C2_2 1_555 1_555
C2_2 C3_2 1_555 1_555
Ag3 N2_2 1_555 1_555
C3_2 C1_2 1_555 1_555
Ag4 N3_2 1_555 1_555
C4_2 C1_2 1_555 1_555
C5_2 C2_2 1_555 1_555
C6_2 C3_2 1_555 1_555
C14_2 C4_2 1_555 1_555
C15_2 C14_2 1_555 1_555
H5_2 C15_2 1_555 1_555
C16_2 C15_2 1_555 1_555
H6_2 C16_2 1_555 1_555
C17_2 C16_2 1_555 1_555
C18_2 C17_2 1_555 1_555
H7_2 C18_2 1_555 1_555
C19_2 C14_2 1_555 1_555
H8_2 C19_2 1_555 1_555
C20_2 C17_2 1_555 1_555
N2_2 C20_2 1_555 1_555
C21_2 C6_2 1_555 1_555
C22_2 C21_2 1_555 1_555
H9_2 C22_2 1_555 1_555
C23_2 C22_2 1_555 1_555
H10_2 C23_2 1_555 1_555
C24_2 C23_2 1_555 1_555
C25_2 C24_2 1_555 1_555
H11_2 C25_2 1_555 1_555
C26_2 C21_2 1_555 1_555
H12_2 C26_2 1_555 1_555
C27_2 C24_2 1_555 1_555
N3_2 C27_2 1_555 1_555
C28_2 C6_2 1_555 1_555
C33_2 C28_2 1_555 1_555
H16_2 C33_2 1_555 1_555
N14 Ag3 1_555 1_555
N16 Ag4 1_555 1_555
C18_2 C19_2 1_555 1_555
C25_2 C26_2 1_555 1_555
Ag1 N1 1_555 1_555
Ag2_2 N6_2 1_555 1_555
C8 C7 1_555 1_555
H1 C8 1_555 1_555
C9 C8 1_555 1_555
H2 C9 1_555 1_555
C10 C9 1_555 1_555
C11 C10 1_555 1_555
H3 C11 1_555 1_555
C12 C7 1_555 1_555
H4 C12 1_555 1_555
C13 C10 1_555 1_555
N1 C13 1_555 1_555
C43 C42_2 1_555 1_555
H21 C43 1_555 1_555
C44 C43 1_555 1_555
H22 C44 1_555 1_555
C45_2 C44 1_555 1_555
C46_2 C45_2 1_555 1_555
H23_2 C46_2 1_555 1_555
C47_2 C42_2 1_555 1_555
H24_2 C47_2 1_555 1_555
C48_2 C45_2 1_555 1_555
N6_2 C48_2 1_555 1_555
C49 C50 1_555 1_555
C50 C51 1_555 1_555
C51 C49 1_555 1_555
Ag10 N9 1_555 1_555
C52 C49 1_555 1_555
C53 C50 1_555 1_555
C54 C51 1_555 1_555
C55 C52 1_555 1_555
C56 C55 1_555 1_555
H25 C56 1_555 1_555
C57 C56 1_555 1_555
H26 C57 1_555 1_555
C58 C57 1_555 1_555
C59 C58 1_555 1_555
H27 C59 1_555 1_555
C60 C55 1_555 1_555
H28 C60 1_555 1_555
C61 C58 1_555 1_555
N7 Ag1 1_555 1_555
C62 C52 1_555 1_555
C63 C62 1_555 1_555
H29 C63 1_555 1_555
C64 C63 1_555 1_555
H30 C64 1_555 1_555
C65 C64 1_555 1_555
C66 C65 1_555 1_555
H31 C66 1_555 1_555
C67 C62 1_555 1_555
H32 C67 1_555 1_555
C68 C65 1_555 1_555
C69 C54 1_555 1_555
C70 C69 1_555 1_555
H33 C70 1_555 1_555
C71 C70 1_555 1_555
H34 C71 1_555 1_555
C72 C71 1_555 1_555
C73 C72 1_555 1_555
H35 C73 1_555 1_555
C74 C69 1_555 1_555
H36 C74 1_555 1_555
C75 C72 1_555 1_555
N9 C75 1_555 1_555
C76 C54 1_555 1_555
C77_2 C76 1_555 1_555
H37_2 C77_2 1_555 1_555
C78_2 C77_2 1_555 1_555
H38_2 C78_2 1_555 1_555
C79_2 C78_2 1_555 1_555
C80_2 C79_2 1_555 1_555
H39_2 C80_2 1_555 1_555
C81 C76 1_555 1_555
H40 C81 1_555 1_555
C82_2 C79_2 1_555 1_555
N14 C82_2 1_555 1_555
C83_2 C53 1_555 1_555
C84_2 C83_2 1_555 1_555
H41_2 C84_2 1_555 1_555
C85_2 C84_2 1_555 1_555
H42_2 C85_2 1_555 1_555
C86_2 C85_2 1_555 1_555
C87_2 C86_2 1_555 1_555
H43_2 C87_2 1_555 1_555
C88_2 C83_2 1_555 1_555
H44 C88_2 1_555 1_555
C89_2 C86_2 1_555 1_555
N16 C89_2 1_555 1_555
C90_2 C53 1_555 1_555
C91 C90_2 1_555 1_555
H45 C91 1_555 1_555
C92 C91 1_555 1_555
H46 C92 1_555 1_555
C93_2 C92 1_555 1_555
C94_2 C93_2 1_555 1_555
H47_2 C94_2 1_555 1_555
C95_2 C90_2 1_555 1_555
H48_2 C95_2 1_555 1_555
C96_2 C93_2 1_555 1_555
N12_2 Ag2_2 1_555 1_555
C11 C12 1_555 1_555
C46_2 C47_2 1_555 1_555
C59 C60 1_555 1_555
C61 N7 1_555 1_555
C66 C67 1_555 1_555
C73 C74 1_555 1_555
C80_2 C81 1_555 1_555
C87_2 C88_2 1_555 1_555
C94_2 C95_2 1_555 1_555
C96_2 N12_2 1_555 1_555
Ag1_2 N1_2 1_555 1_555
C8_2 C7_2 1_555 1_555
H1_2 C8_2 1_555 1_555
C9_2 C8_2 1_555 1_555
H2_2 C9_2 1_555 1_555
C10_2 C9_2 1_555 1_555
C11_2 C10_2 1_555 1_555
H3_2 C11_2 1_555 1_555
C12_2 C7_2 1_555 1_555
H4_2 C12_2 1_555 1_555
C13_2 C10_2 1_555 1_555
N1_2 C13_2 1_555 1_555
H21_2 C43_2 1_555 1_555
C44_2 C43_2 1_555 1_555
H22_2 C44_2 1_555 1_555
C49_2 C50_2 1_555 1_555
C50_2 C51_2 1_555 1_555
C51_2 C49_2 1_555 1_555
Ag6 N9_2 1_555 1_555
C52_2 C49_2 1_555 1_555
C53_2 C50_2 1_555 1_555
C54_2 C51_2 1_555 1_555
C55_2 C52_2 1_555 1_555
C56_2 C55_2 1_555 1_555
H25_2 C56_2 1_555 1_555
C57_2 C56_2 1_555 1_555
H26_2 C57_2 1_555 1_555
C58_2 C57_2 1_555 1_555
C59_2 C58_2 1_555 1_555
H27_2 C59_2 1_555 1_555
C60_2 C55_2 1_555 1_555
H28_2 C60_2 1_555 1_555
C61_2 C58_2 1_555 1_555
N7_2 Ag1_2 1_555 1_555
C62_2 C52_2 1_555 1_555
C63_2 C62_2 1_555 1_555
H29_2 C63_2 1_555 1_555
C64_2 C63_2 1_555 1_555
H30_2 C64_2 1_555 1_555
C65_2 C64_2 1_555 1_555
C66_2 C65_2 1_555 1_555
H31_2 C66_2 1_555 1_555
C67_2 C62_2 1_555 1_555
H32_2 C67_2 1_555 1_555
C68_2 C65_2 1_555 1_555
C69_2 C54_2 1_555 1_555
C70_2 C69_2 1_555 1_555
H33_2 C70_2 1_555 1_555
C71_2 C70_2 1_555 1_555
H34_2 C71_2 1_555 1_555
C72_2 C71_2 1_555 1_555
C73_2 C72_2 1_555 1_555
H35_2 C73_2 1_555 1_555
C74_2 C69_2 1_555 1_555
H36_2 C74_2 1_555 1_555
C75_2 C72_2 1_555 1_555
N9_2 C75_2 1_555 1_555
C76_2 C54_2 1_555 1_555
C81_2 C76_2 1_555 1_555
H40_2 C81_2 1_555 1_555
H45_2 C91_2 1_555 1_555
C92_2 C91_2 1_555 1_555
H46_2 C92_2 1_555 1_555
N15 Ag6 1_555 1_555
C11_2 C12_2 1_555 1_555
C59_2 C60_2 1_555 1_555
C61_2 N7_2 1_555 1_555
C66_2 C67_2 1_555 1_555
C73_2 C74_2 1_555 1_555
C1_3 C2_3 1_555 1_555
C2_3 C3_3 1_555 1_555
Ag3_2 N2_3 1_555 1_555
C3_3 C1_3 1_555 1_555
Ag4_2 N3_3 1_555 1_555
C4_3 C1_3 1_555 1_555
C5_3 C2_3 1_555 1_555
C6_3 C3_3 1_555 1_555
C14_3 C4_3 1_555 1_555
C15_3 C14_3 1_555 1_555
H5_3 C15_3 1_555 1_555
C16_3 C15_3 1_555 1_555
H6_3 C16_3 1_555 1_555
C17_3 C16_3 1_555 1_555
C18_3 C17_3 1_555 1_555
H7_3 C18_3 1_555 1_555
C19_3 C14_3 1_555 1_555
H8_3 C19_3 1_555 1_555
C20_3 C17_3 1_555 1_555
N2_3 C20_3 1_555 1_555
C21_3 C6_3 1_555 1_555
C22_3 C21_3 1_555 1_555
H9_3 C22_3 1_555 1_555
C23_3 C22_3 1_555 1_555
H10_3 C23_3 1_555 1_555
C24_3 C23_3 1_555 1_555
C25_3 C24_3 1_555 1_555
H11_3 C25_3 1_555 1_555
C26_3 C21_3 1_555 1_555
H12_3 C26_3 1_555 1_555
C27_3 C24_3 1_555 1_555
N3_3 C27_3 1_555 1_555
C28_3 C6_3 1_555 1_555
C29_3 C28_3 1_555 1_555
H13_3 C29_3 1_555 1_555
C30_3 C29_3 1_555 1_555
H14_3 C30_3 1_555 1_555
C31_3 C30_3 1_555 1_555
C32_3 C31_3 1_555 1_555
H15_3 C32_3 1_555 1_555
C33_3 C28_3 1_555 1_555
H16_3 C33_3 1_555 1_555
C34_3 C31_3 1_555 1_555
N4_2 C34_3 1_555 1_555
C35_3 C5_3 1_555 1_555
C36_3 C35_3 1_555 1_555
H17_3 C36_3 1_555 1_555
C37_3 C36_3 1_555 1_555
H18_3 C37_3 1_555 1_555
C38_3 C37_3 1_555 1_555
C39_3 C38_3 1_555 1_555
H19_3 C39_3 1_555 1_555
C40_3 C35_3 1_555 1_555
H20_3 C40_3 1_555 1_555
C41_3 C38_3 1_555 1_555
Ag8_2 N4_2 1_555 1_555
N14_2 Ag3_2 1_555 1_555
N16_2 Ag4_2 1_555 1_555
C18_3 C19_3 1_555 1_555
C25_3 C26_3 1_555 1_555
C32_3 C33_3 1_555 1_555
C39_3 C40_3 1_555 1_555
Ag8_2 N8_3 1_555 1_555
Ag2_3 N6_3 1_555 1_555
C46_3 C45_3 1_555 1_555
H23_3 C46_3 1_555 1_555
C47_3 C42_3 1_555 1_555
H24_3 C47_3 1_555 1_555
C48_3 C45_3 1_555 1_555
N6_3 C48_3 1_555 1_555
H37_3 C77_3 1_555 1_555
C78_3 C77_3 1_555 1_555
H38_3 C78_3 1_555 1_555
C79_3 C78_3 1_555 1_555
C80_3 C79_3 1_555 1_555
H39_3 C80_3 1_555 1_555
C82_3 C79_3 1_555 1_555
N14_2 C82_3 1_555 1_555
C84_3 C83_3 1_555 1_555
H41_3 C84_3 1_555 1_555
C85_3 C84_3 1_555 1_555
H42_3 C85_3 1_555 1_555
C86_3 C85_3 1_555 1_555
C87_3 C86_3 1_555 1_555
H43_3 C87_3 1_555 1_555
C88_3 C83_3 1_555 1_555
C89_3 C86_3 1_555 1_555
N16_2 C89_3 1_555 1_555
C94_3 C93_3 1_555 1_555
H47_3 C94_3 1_555 1_555
C95_3 C90_3 1_555 1_555
H48_3 C95_3 1_555 1_555
C96_3 C93_3 1_555 1_555
N12_3 Ag2_3 1_555 1_555
C46_3 C47_3 1_555 1_555
C87_3 C88_3 1_555 1_555
C94_3 C95_3 1_555 1_555
C96_3 N12_3 1_555 1_555
Ag10_2 N5_2 1_555 1_555
Ag1_3 N1_3 1_555 1_555
C8_3 C7_3 1_555 1_555
H1_3 C8_3 1_555 1_555
C9_3 C8_3 1_555 1_555
H2_3 C9_3 1_555 1_555
C10_3 C9_3 1_555 1_555
C11_3 C10_3 1_555 1_555
H3_3 C11_3 1_555 1_555
C12_3 C7_3 1_555 1_555
H4_3 C12_3 1_555 1_555
C13_3 C10_3 1_555 1_555
N1_3 C13_3 1_555 1_555
H21_3 C43_3 1_555 1_555
C44_3 C43_3 1_555 1_555
H22_3 C44_3 1_555 1_555
C49_3 C50_3 1_555 1_555
C50_3 C51_3 1_555 1_555
C51_3 C49_3 1_555 1_555
Ag10_2 N9_3 1_555 1_555
C52_3 C49_3 1_555 1_555
C53_3 C50_3 1_555 1_555
C54_3 C51_3 1_555 1_555
C55_3 C52_3 1_555 1_555
C56_3 C55_3 1_555 1_555
H25_3 C56_3 1_555 1_555
C57_3 C56_3 1_555 1_555
H26_3 C57_3 1_555 1_555
C58_3 C57_3 1_555 1_555
C59_3 C58_3 1_555 1_555
H27_3 C59_3 1_555 1_555
C60_3 C55_3 1_555 1_555
H28_3 C60_3 1_555 1_555
C61_3 C58_3 1_555 1_555
N7_3 Ag1_3 1_555 1_555
C62_3 C52_3 1_555 1_555
C63_3 C62_3 1_555 1_555
H29_3 C63_3 1_555 1_555
C64_3 C63_3 1_555 1_555
H30_3 C64_3 1_555 1_555
C65_3 C64_3 1_555 1_555
C66_3 C65_3 1_555 1_555
H31_3 C66_3 1_555 1_555
C67_3 C62_3 1_555 1_555
H32_3 C67_3 1_555 1_555
C68_3 C65_3 1_555 1_555
C69_3 C54_3 1_555 1_555
C70_3 C69_3 1_555 1_555
H33_3 C70_3 1_555 1_555
C71_3 C70_3 1_555 1_555
H34_3 C71_3 1_555 1_555
C72_3 C71_3 1_555 1_555
C73_3 C72_3 1_555 1_555
H35_3 C73_3 1_555 1_555
C74_3 C69_3 1_555 1_555
H36_3 C74_3 1_555 1_555
C75_3 C72_3 1_555 1_555
N9_3 C75_3 1_555 1_555
C76_3 C54_3 1_555 1_555
C81_3 C76_3 1_555 1_555
H40_3 C81_3 1_555 1_555
H45_3 C91_3 1_555 1_555
C92_3 C91_3 1_555 1_555
H46_3 C92_3 1_555 1_555
C11_3 C12_3 1_555 1_555
C59_3 C60_3 1_555 1_555
C61_3 N7_3 1_555 1_555
C66_3 C67_3 1_555 1_555
C73_3 C74_3 1_555 1_555
Ag1_4 N1_4 1_555 1_555
Ag2_4 N6_4 1_555 1_555
C8_4 C7_4 1_555 1_555
H1_4 C8_4 1_555 1_555
C9_4 C8_4 1_555 1_555
H2_4 C9_4 1_555 1_555
C10_4 C9_4 1_555 1_555
C11_4 C10_4 1_555 1_555
H3_4 C11_4 1_555 1_555
C12_4 C7_4 1_555 1_555
H4_4 C12_4 1_555 1_555
C13_4 C10_4 1_555 1_555
N1_4 C13_4 1_555 1_555
C43_4 C42_4 1_555 1_555
H21_4 C43_4 1_555 1_555
C44_4 C43_4 1_555 1_555
H22_4 C44_4 1_555 1_555
C45_4 C44_4 1_555 1_555
C46_4 C45_4 1_555 1_555
H23_4 C46_4 1_555 1_555
C47_4 C42_4 1_555 1_555
H24_4 C47_4 1_555 1_555
C48_4 C45_4 1_555 1_555
N6_4 C48_4 1_555 1_555
C49_4 C50_4 1_555 1_555
C50_4 C51_4 1_555 1_555
C51_4 C49_4 1_555 1_555
Ag6_2 N9_4 1_555 1_555
C52_4 C49_4 1_555 1_555
C53_4 C50_4 1_555 1_555
C54_4 C51_4 1_555 1_555
C55_4 C52_4 1_555 1_555
C56_4 C55_4 1_555 1_555
H25_4 C56_4 1_555 1_555
C57_4 C56_4 1_555 1_555
H26_4 C57_4 1_555 1_555
C58_4 C57_4 1_555 1_555
C59_4 C58_4 1_555 1_555
H27_4 C59_4 1_555 1_555
C60_4 C55_4 1_555 1_555
H28_4 C60_4 1_555 1_555
C61_4 C58_4 1_555 1_555
N7_4 Ag1_4 1_555 1_555
C62_4 C52_4 1_555 1_555
C63_4 C62_4 1_555 1_555
H29_4 C63_4 1_555 1_555
C64_4 C63_4 1_555 1_555
H30_4 C64_4 1_555 1_555
C65_4 C64_4 1_555 1_555
C66_4 C65_4 1_555 1_555
H31_4 C66_4 1_555 1_555
C67_4 C62_4 1_555 1_555
H32_4 C67_4 1_555 1_555
C68_4 C65_4 1_555 1_555
C69_4 C54_4 1_555 1_555
C70_4 C69_4 1_555 1_555
H33_4 C70_4 1_555 1_555
C71_4 C70_4 1_555 1_555
H34_4 C71_4 1_555 1_555
C72_4 C71_4 1_555 1_555
C73_4 C72_4 1_555 1_555
H35_4 C73_4 1_555 1_555
C74_4 C69_4 1_555 1_555
H36_4 C74_4 1_555 1_555
C75_4 C72_4 1_555 1_555
N9_4 C75_4 1_555 1_555
C76_4 C54_4 1_555 1_555
C77_4 C76_4 1_555 1_555
H37_4 C77_4 1_555 1_555
C78_4 C77_4 1_555 1_555
H38_4 C78_4 1_555 1_555
C79_4 C78_4 1_555 1_555
C80_4 C79_4 1_555 1_555
H39_4 C80_4 1_555 1_555
C81_4 C76_4 1_555 1_555
H40_4 C81_4 1_555 1_555
C82_4 C79_4 1_555 1_555
N10_2 C82_4 1_555 1_555
C83_4 C53_4 1_555 1_555
C84_4 C83_4 1_555 1_555
H41_4 C84_4 1_555 1_555
C85_4 C84_4 1_555 1_555
H42_4 C85_4 1_555 1_555
C86_4 C85_4 1_555 1_555
C87_4 C86_4 1_555 1_555
H43_4 C87_4 1_555 1_555
C88_4 C83_4 1_555 1_555
H44_4 C88_4 1_555 1_555
C89_4 C86_4 1_555 1_555
N11_2 C89_4 1_555 1_555
C90_4 C53_4 1_555 1_555
C91_4 C90_4 1_555 1_555
H45_4 C91_4 1_555 1_555
C92_4 C91_4 1_555 1_555
H46_4 C92_4 1_555 1_555
C93_4 C92_4 1_555 1_555
C94_4 C93_4 1_555 1_555
H47_4 C94_4 1_555 1_555
C95_4 C90_4 1_555 1_555
H48_4 C95_4 1_555 1_555
C96_4 C93_4 1_555 1_555
N12_4 Ag2_4 1_555 1_555
Ag7_2 N10_2 1_555 1_555
Ag9_2 N11_2 1_555 1_555
N15_2 Ag6_2 1_555 1_555
C11_4 C12_4 1_555 1_555
C46_4 C47_4 1_555 1_555
C59_4 C60_4 1_555 1_555
C61_4 N7_4 1_555 1_555
C66_4 C67_4 1_555 1_555
C73_4 C74_4 1_555 1_555
C80_4 C81_4 1_555 1_555
C87_4 C88_4 1_555 1_555
C94_4 C95_4 1_555 1_555
C96_4 N12_4 1_555 1_555
C1_4 C2_4 1_555 1_555
C2_4 C3_4 1_555 1_555
Ag7_2 N2_4 1_555 1_555
C3_4 C1_4 1_555 1_555
Ag9_2 N3_4 1_555 1_555
C4_4 C1_4 1_555 1_555
C5_4 C2_4 1_555 1_555
C6_4 C3_4 1_555 1_555
C14_4 C4_4 1_555 1_555
C15_4 C14_4 1_555 1_555
H5_4 C15_4 1_555 1_555
C16_4 C15_4 1_555 1_555
H6_4 C16_4 1_555 1_555
C17_4 C16_4 1_555 1_555
C18_4 C17_4 1_555 1_555
H7_4 C18_4 1_555 1_555
C19_4 C14_4 1_555 1_555
H8_4 C19_4 1_555 1_555
C20_4 C17_4 1_555 1_555
N2_4 C20_4 1_555 1_555
C21_4 C6_4 1_555 1_555
C22_4 C21_4 1_555 1_555
H9_4 C22_4 1_555 1_555
C23_4 C22_4 1_555 1_555
H10_4 C23_4 1_555 1_555
C24_4 C23_4 1_555 1_555
C25_4 C24_4 1_555 1_555
H11_4 C25_4 1_555 1_555
C26_4 C21_4 1_555 1_555
H12_4 C26_4 1_555 1_555
C27_4 C24_4 1_555 1_555
N3_4 C27_4 1_555 1_555
C28_4 C6_4 1_555 1_555
C33_4 C28_4 1_555 1_555
H16_4 C33_4 1_555 1_555
C18_4 C19_4 1_555 1_555
C25_4 C26_4 1_555 1_555
Ag5_2 N8_4 1_555 1_555
N13_2 Ag5_2 1_555 1_555
H13_4 C29_4 1_555 1_555
C30_4 C29_4 1_555 1_555
H14_4 C30_4 1_555 1_555
C31_4 C30_4 1_555 1_555
C32_4 C31_4 1_555 1_555
H15_4 C32_4 1_555 1_555
C34_4 C31_4 1_555 1_555
N13_2 C34_4 1_555 1_555
C36_4 C35_4 1_555 1_555
H17_4 C36_4 1_555 1_555
C37_4 C36_4 1_555 1_555
H18_4 C37_4 1_555 1_555
C38_4 C37_4 1_555 1_555
C39_4 C38_4 1_555 1_555
H19_4 C39_4 1_555 1_555
C40_4 C35_4 1_555 1_555
C41_4 C38_4 1_555 1_555
C39_4 C40_4 1_555 1_555

#END
