
###############################################################################
#
# This file contains modified crystal structure data generated from the
# MOF subset of the Cambridge Structural Database (CSD) v543 
# hosted by the Cambridge Crystallographic Data Centre (CCDC).
#
# This work is licensed under the Creative Commons
# Attribution-NonCommercial-ShareAlike 4.0 International License.
# To view a copy of this license, visit
# http://creativecommons.org/licenses/by-nc-sa/4.0/
# or send a letter to
# Creative Commons, PO Box 1866, Mountain View, CA 94042, USA.
#
# CIF created using the CSD Python API on 29 September 2022
# The structure has been converted into the P1 space group
# The structure has a 3D framework
# The original CSD entry ZEVYOR is in the monoclinic crystal system
# The framework has been calculated to contain at least 10.0% void space
# The void calculation uses a probe of radius 1.32A, grid spacing 0.4
# H atom positions have been added when not included in the experimental data
#
###############################################################################

data_ZEVYOR
_chemical_formula_moiety         '(C140 H92 Fe12 N4 O56)n'
_symmetry_cell_setting           triclinic
_symmetry_space_group_name_H-M   'P 1'
_symmetry_Int_Tables_number      1
_space_group_name_Hall           'P 1'
loop_
_symmetry_equiv_pos_site_id
_symmetry_equiv_pos_as_xyz
1 x,y,z
_cell_length_a                   12.6797(3)
_cell_length_b                   13.5123(4)
_cell_length_c                   23.9480(7)
_cell_angle_alpha                90
_cell_angle_beta                 90
_cell_angle_gamma                90
_cell_volume                     4103.06
loop_
_atom_site_label
_atom_site_type_symbol
_atom_site_fract_x
_atom_site_fract_y
_atom_site_fract_z
Fe5 Fe 0.22818(15) 0.10732(12) 0.71259(9)
C1 C 0.1377(12) 0.8957(10) 0.5415(6)
H1 H 0.1934 0.8981 0.5150
O2 O 0.1822(8) 0.9452(6) 0.7135(5)
C2 C 0.0178(15) 0.8726(11) 0.4646(7)
H2 H 0.0757 0.8730 0.4395
O3 O 0.0348(12) 0.8605(10) 0.7279(5)
C4 C 0.1563(13) 0.9063(10) 0.5983(6)
H3 H 0.2259 0.9186 0.6112
C5 C 0.0705(12) 0.8988(10) 0.6383(6)
C6 C 0.0361(11) 0.8817(9) 0.5256(6)
C18 C 0.0982(12) 0.9032(9) 0.6973(6)
C20 C 0.0620(12) 0.8640(11) 0.0441(7)
C25 C 0.1098(14) 0.8541(12) 0.0928(7)
H11 H 0.1839 0.8443 0.0945
C27 C 0.0533(14) 0.8579(12) 0.1392(7)
H13 H 0.0885 0.8466 0.1736
O17 O 0.0348(12) 0.6395(10) 0.2279(5)
Fe9 Fe 0.23213(15) 0.91070(12) 0.79448(9)
Fe10 Fe 0.00025(15) 0.23787(13) 0.20854(7)
O19 O 0.0876(7) 0.6280(6) 0.3399(4)
O20 O 0.1338(8) 0.8194(7) 0.2812(4)
C16 C 0.0735(11) 0.8727(10) 0.9413(6)
C21 C 0.1227(14) 0.8626(10) 0.9886(7)
H8 H 0.1971 0.8541 0.9888
C24 C 0.1311(13) 0.8756(10) 0.8864(6)
O4 O 0.0876(7) 0.8720(6) 0.8399(4)
O12 O 0.2289(8) 0.8921(7) 0.8872(4)
O15 O 0.8178(8) 0.0548(6) 0.2865(5)
Fe7 Fe 0.76787(15) 0.08930(12) 0.20552(9)
Fe1 Fe 0.77182(15) 0.89268(12) 0.28741(9)
O1 O 0.9662(10) 0.8299(8) 0.3557(5)
C3 C 0.9488(11) 0.8815(11) 0.5600(8)
Fe2 Fe 0.23213(15) 0.58930(12) 0.29448(9)
Fe3 Fe 0.99975(15) 0.73787(13) 0.29146(7)
C7 C 0.9145(11) 0.8632(10) 0.4441(6)
C8 C 0.8874(13) 0.8555(11) 0.3856(7)
C9 C 0.7679(8) 0.4910(9) 0.2515(6)
H4 H 0.8428 0.4916 0.2510
C10 C 0.7138(10) 0.4046(9) 0.2378(5)
C11 C 0.7709(9) 0.3121(8) 0.2230(5)
C12 C 0.6016(11) 0.4067(11) 0.2327(6)
H5 H 0.5648 0.3512 0.2181
C13 C 0.7703(9) 0.6695(8) 0.2782(6)
C14 C 0.8416(13) 0.8774(11) 0.5400(7)
H6 H 0.7829 0.8822 0.5645
C15 C 0.9411(12) 0.8782(11) 0.1409(6)
C17 C 0.9524(11) 0.8776(9) 0.0359(6)
C19 C 0.9692(13) 0.8908(10) 0.6194(7)
H7 H 0.9122 0.8913 0.6451
C26 C 0.8879(13) 0.8836(9) 0.0893(7)
H12 H 0.8134 0.8909 0.0879
C28 C 0.8878(11) 0.8849(10) 0.1957(7)
C29 C 0.8299(15) 0.8662(11) 0.4848(6)
H14 H 0.7599 0.8597 0.4710
O5 O 0.7980(11) 0.8740(7) 0.3700(5)
C30 C 0.7125(9) 0.5769(8) 0.2659(6)
C31 C 0.6019(9) 0.5770(9) 0.2637(6)
H15 H 0.5639 0.6358 0.2719
O6 O 0.8662(8) 0.3194(7) 0.2188(4)
C32 C 0.4303(8) 0.4930(9) 0.2506(7)
C33 C 0.5473(9) 0.4900(10) 0.2493(6)
O7 O 0.3825(6) 0.4322(6) 0.2177(4)
O8 O 0.3855(6) 0.5515(6) 0.2813(4)
O9 O 0.7187(7) 0.2341(6) 0.2195(4)
O10 O 0.8634(7) 0.6599(6) 0.2980(4)
O11 O 0.7213(7) 0.7483(6) 0.2728(4)
O13 O 0.9219(8) 0.8461(8) 0.2384(5)
O14 O 0.7981(8) 0.9259(7) 0.1957(4)
Fe4 Fe 0.22818(15) 0.39268(12) 0.21259(9)
O16 O 0.1822(8) 0.5548(6) 0.2135(5)
Fe12 Fe 0.99975(15) 0.76213(13) 0.79146(7)
O21 O 0.6175(6) 0.9322(6) 0.2823(4)
O22 O 0.2813(7) 0.7341(6) 0.2805(4)
O23 O 0.2289(8) 0.6079(7) 0.3872(4)
O24 O 0.2019(8) 0.4259(7) 0.3043(4)
C22 C 0.9627(14) 0.8800(11) 0.9396(9)
H9 H 0.9289 0.8818 0.9042
C23 C 0.9010(10) 0.8844(9) 0.9870(7)
H10 H 0.8266 0.8919 0.9851
O1_2 O 0.0338(10) 0.3299(8) 0.1443(5)
C7_2 C 0.0855(11) 0.3632(10) 0.0559(6)
C8_2 C 0.1126(13) 0.3555(11) 0.1144(7)
C13_2 C 0.2297(9) 0.1695(8) 0.2218(6)
C15_2 C 0.0589(12) 0.3782(11) 0.3591(6)
C17_2 C 0.0476(11) 0.3776(9) 0.4641(6)
C22_2 C 0.0373(14) 0.3800(11) 0.5604(9)
H9_2 H 0.0711 0.3818 0.5958
C23_2 C 0.0990(10) 0.3844(9) 0.5130(7)
H10_2 H 0.1734 0.3919 0.5149
C26_2 C 0.1121(13) 0.3836(9) 0.4107(7)
H12_2 H 0.1866 0.3909 0.4121
C28_2 C 0.1122(11) 0.3849(10) 0.3043(7)
C29_2 C 0.1701(15) 0.3662(11) 0.0152(6)
H14_2 H 0.2401 0.3597 0.0290
O5_2 O 0.2020(11) 0.3740(7) 0.1300(5)
C30_2 C 0.2875(9) 0.0769(8) 0.2341(6)
C31_2 C 0.3981(9) 0.0770(9) 0.2363(6)
H15_2 H 0.4361 0.1358 0.2281
O8_2 O 0.6145(6) 0.0515(6) 0.2187(4)
O10_2 O 0.1366(7) 0.1599(6) 0.2020(4)
O11_2 O 0.2787(7) 0.2483(6) 0.2272(4)
O13_2 O 0.0781(8) 0.3461(8) 0.2616(5)
Fe11 Fe 0.00025(15) 0.26213(13) 0.70854(7)
O18 O 0.9124(7) 0.1280(6) 0.1601(4)
O23_2 O 0.7711(8) 0.1079(7) 0.1128(4)
C3_2 C 0.0512(11) 0.3815(11) 0.9400(8)
C14_2 C 0.1584(13) 0.3774(11) 0.9600(7)
H6_2 H 0.2171 0.3822 0.9355
C19_2 C 0.0308(13) 0.3908(10) 0.8806(7)
H7_2 H 0.0878 0.3913 0.8549
C9_2 C 0.2321(8) 0.9910(9) 0.2485(6)
H4_2 H 0.1572 0.9916 0.2490
C10_2 C 0.2862(10) 0.9046(9) 0.2622(5)
C11_2 C 0.2291(9) 0.8121(8) 0.2770(5)
C12_2 C 0.3984(11) 0.9067(11) 0.2673(6)
H5_2 H 0.4352 0.8512 0.2819
C32_2 C 0.5697(8) 0.9930(9) 0.2494(7)
C33_2 C 0.4527(9) 0.9900(10) 0.2507(6)
C2_2 C 0.9822(15) 0.3726(11) 0.0354(7)
H2_2 H 0.9243 0.3730 0.0605
C16_2 C 0.9265(11) 0.3727(10) 0.5587(6)
C20_2 C 0.9380(12) 0.3640(11) 0.4559(7)
C21_2 C 0.8773(14) 0.3626(10) 0.5114(7)
H8_2 H 0.8029 0.3541 0.5112
C24_2 C 0.8689(13) 0.3756(10) 0.6136(6)
C25_2 C 0.8902(14) 0.3541(12) 0.4072(7)
H11_2 H 0.8161 0.3443 0.4055
C27_2 C 0.9467(14) 0.3579(12) 0.3608(7)
H13_2 H 0.9115 0.3466 0.3264
O4_2 O 0.9124(7) 0.3720(6) 0.6601(4)
O12_2 O 0.7711(8) 0.3921(7) 0.6128(4)
O17_2 O 0.9652(12) 0.1395(10) 0.2721(5)
Fe8 Fe 0.76787(15) 0.41070(12) 0.70552(9)
C1_2 C 0.8623(12) 0.3957(10) 0.9585(6)
H1_2 H 0.8066 0.3981 0.9850
O2_2 O 0.8178(8) 0.4452(6) 0.7865(5)
O3_2 O 0.9652(12) 0.3605(10) 0.7721(5)
C4_2 C 0.8437(13) 0.4063(10) 0.9017(6)
H3_2 H 0.7741 0.4186 0.8888
C5_2 C 0.9295(12) 0.3988(10) 0.8617(6)
C6_2 C 0.9639(11) 0.3817(9) 0.9744(6)
C18_2 C 0.9018(12) 0.4032(9) 0.8027(6)
Fe5_2 Fe 0.77182(15) 0.60732(12) 0.78741(9)
C22_3 C 0.0373(14) 0.1200(11) 0.0604(9)
H9_3 H 0.0711 0.1182 0.0958
C23_3 C 0.0990(10) 0.1156(9) 0.0130(7)
H10_3 H 0.1734 0.1081 0.0149
O1_3 O 0.0338(10) 0.1701(8) 0.6443(5)
C3_3 C 0.0512(11) 0.1185(11) 0.4400(8)
C7_3 C 0.0855(11) 0.1368(10) 0.5559(6)
C8_3 C 0.1126(13) 0.1445(11) 0.6144(7)
C9_3 C 0.2321(8) 0.5090(9) 0.7485(6)
H4_3 H 0.1572 0.5084 0.7490
C10_3 C 0.2862(10) 0.5954(9) 0.7622(5)
C11_3 C 0.2291(9) 0.6879(8) 0.7770(5)
C12_3 C 0.3984(11) 0.5933(11) 0.7673(6)
H5_3 H 0.4352 0.6488 0.7819
C13_3 C 0.2297(9) 0.3305(8) 0.7218(6)
C14_3 C 0.1584(13) 0.1226(11) 0.4600(7)
H6_3 H 0.2171 0.1178 0.4355
C15_3 C 0.0589(12) 0.1218(11) 0.8591(6)
C17_3 C 0.0476(11) 0.1224(9) 0.9641(6)
C19_3 C 0.0308(13) 0.1092(10) 0.3806(7)
H7_3 H 0.0878 0.1087 0.3549
C26_3 C 0.1121(13) 0.1164(9) 0.9107(7)
H12_3 H 0.1866 0.1091 0.9121
C28_3 C 0.1122(11) 0.1151(10) 0.8043(7)
C29_3 C 0.1701(15) 0.1338(11) 0.5152(6)
H14_3 H 0.2401 0.1403 0.5290
O5_3 O 0.2020(11) 0.1260(7) 0.6300(5)
C30_3 C 0.2875(9) 0.4231(8) 0.7341(6)
C31_3 C 0.3981(9) 0.4230(9) 0.7363(6)
H15_3 H 0.4361 0.3642 0.7281
O6_2 O 0.1338(8) 0.6806(7) 0.7812(4)
C32_3 C 0.5697(8) 0.5070(9) 0.7494(7)
C33_3 C 0.4527(9) 0.5100(10) 0.7507(6)
O7_2 O 0.6175(6) 0.5678(6) 0.7823(4)
O8_3 O 0.6145(6) 0.4485(6) 0.7187(4)
O9_2 O 0.2813(7) 0.7659(6) 0.7805(4)
O10_3 O 0.1366(7) 0.3401(6) 0.7020(4)
O11_3 O 0.2787(7) 0.2517(6) 0.7272(4)
O13_3 O 0.0781(8) 0.1539(8) 0.7616(5)
O14_2 O 0.2019(8) 0.0741(7) 0.8043(4)
O21_2 O 0.3825(6) 0.0678(6) 0.7177(4)
O22_2 O 0.7187(7) 0.2659(6) 0.7195(4)
O24_2 O 0.7981(8) 0.5741(7) 0.6957(4)
C16_3 C 0.9265(11) 0.1273(10) 0.0587(6)
C21_3 C 0.8773(14) 0.1374(10) 0.0114(7)
H8_3 H 0.8029 0.1459 0.0112
C24_3 C 0.8689(13) 0.1244(10) 0.1136(6)
C1_3 C 0.8623(12) 0.1043(10) 0.4585(6)
H1_3 H 0.8066 0.1019 0.4850
C2_3 C 0.9822(15) 0.1274(11) 0.5354(7)
H2_3 H 0.9243 0.1270 0.5605
C4_3 C 0.8437(13) 0.0937(10) 0.4017(6)
H3_3 H 0.7741 0.0814 0.3888
C5_3 C 0.9295(12) 0.1012(10) 0.3617(6)
C6_3 C 0.9639(11) 0.1183(9) 0.4744(6)
C18_3 C 0.9018(12) 0.0968(9) 0.3027(6)
C20_3 C 0.9380(12) 0.1360(11) 0.9559(7)
C25_3 C 0.8902(14) 0.1459(12) 0.9072(7)
H11_3 H 0.8161 0.1557 0.9055
C27_3 C 0.9467(14) 0.1421(12) 0.8608(7)
H13_3 H 0.9115 0.1534 0.8264
O20_2 O 0.8662(8) 0.1806(7) 0.7188(4)
C1_4 C 0.1377(12) 0.6043(10) 0.0415(6)
H1_4 H 0.1934 0.6019 0.0150
C4_4 C 0.1563(13) 0.5937(10) 0.0983(6)
H3_4 H 0.2259 0.5814 0.1112
C5_4 C 0.0705(12) 0.6012(10) 0.1383(6)
C6_4 C 0.0361(11) 0.6183(9) 0.0256(6)
C18_4 C 0.0982(12) 0.5968(9) 0.1973(6)
C2_4 C 0.0178(15) 0.6274(11) 0.9646(7)
H2_4 H 0.0757 0.6270 0.9395
C16_4 C 0.0735(11) 0.6273(10) 0.4413(6)
C20_4 C 0.0620(12) 0.6360(11) 0.5441(7)
C21_4 C 0.1227(14) 0.6374(10) 0.4886(7)
H8_4 H 0.1971 0.6459 0.4888
C24_4 C 0.1311(13) 0.6244(10) 0.3864(6)
C25_4 C 0.1098(14) 0.6459(12) 0.5928(7)
H11_4 H 0.1839 0.6557 0.5945
C27_4 C 0.0533(14) 0.6421(12) 0.6392(7)
H13_4 H 0.0885 0.6534 0.6736
C9_4 C 0.7679(8) 0.0090(9) 0.7515(6)
H4_4 H 0.8428 0.0084 0.7510
C10_4 C 0.7138(10) 0.0954(9) 0.7378(5)
C11_4 C 0.7709(9) 0.1879(8) 0.7230(5)
C12_4 C 0.6016(11) 0.0933(11) 0.7327(6)
H5_4 H 0.5648 0.1488 0.7181
C32_4 C 0.4303(8) 0.0070(9) 0.7506(7)
C33_4 C 0.5473(9) 0.0100(10) 0.7493(6)
C3_4 C 0.9488(11) 0.6185(11) 0.0600(8)
C14_4 C 0.8416(13) 0.6226(11) 0.0400(7)
H6_4 H 0.7829 0.6178 0.0645
C19_4 C 0.9692(13) 0.6092(10) 0.1194(7)
H7_4 H 0.9122 0.6087 0.1451
O1_4 O 0.9662(10) 0.6701(8) 0.8557(5)
C7_4 C 0.9145(11) 0.6368(10) 0.9441(6)
C8_4 C 0.8874(13) 0.6445(11) 0.8856(7)
C13_4 C 0.7703(9) 0.8305(8) 0.7782(6)
C15_4 C 0.9411(12) 0.6218(11) 0.6409(6)
C17_4 C 0.9524(11) 0.6224(9) 0.5359(6)
C22_4 C 0.9627(14) 0.6200(11) 0.4396(9)
H9_4 H 0.9289 0.6182 0.4042
C23_4 C 0.9010(10) 0.6156(9) 0.4870(7)
H10_4 H 0.8266 0.6081 0.4851
C26_4 C 0.8879(13) 0.6164(9) 0.5893(7)
H12_4 H 0.8134 0.6091 0.5879
C28_4 C 0.8878(11) 0.6151(10) 0.6957(7)
C29_4 C 0.8299(15) 0.6338(11) 0.9848(6)
H14_4 H 0.7599 0.6403 0.9710
O5_4 O 0.7980(11) 0.6260(7) 0.8700(5)
C30_4 C 0.7125(9) 0.9231(8) 0.7659(6)
C31_4 C 0.6019(9) 0.9230(9) 0.7637(6)
H15_4 H 0.5639 0.8642 0.7719
O8_4 O 0.3855(6) 0.9485(6) 0.7813(4)
O10_4 O 0.8634(7) 0.8401(6) 0.7980(4)
O11_4 O 0.7213(7) 0.7517(6) 0.7728(4)
O13_4 O 0.9219(8) 0.6539(8) 0.7384(5)
N1 N 0.509(2) 0.746(3) 0.1210(10)
C34 C 0.5934(15) 0.777(2) 0.1547(12)
H16 H 0.6414 0.8183 0.1326
H17 H 0.6314 0.7190 0.1687
H18 H 0.5662 0.8156 0.1863
C35 C 0.416(2) 0.703(2) 0.1535(14)
H19 H 0.4209 0.6303 0.1535
H20 H 0.3497 0.7229 0.1358
H21 H 0.4176 0.7271 0.1920
H22 H 0.535955 0.693366 0.0943408
H23 H 0.482879 0.805178 0.0988604
N1_2 N 0.491(2) 0.246(3) 0.3790(10)
C34_2 C 0.4066(15) 0.277(2) 0.3453(12)
H16_2 H 0.3586 0.3183 0.3674
H17_2 H 0.3686 0.2190 0.3313
H18_2 H 0.4338 0.3156 0.3137
C35_2 C 0.584(2) 0.203(2) 0.3465(14)
H19_2 H 0.5791 0.1303 0.3465
H20_2 H 0.6503 0.2229 0.3642
H21_2 H 0.5824 0.2271 0.3080
H22_2 H 0.464045 0.193366 0.405659
H23_2 H 0.517121 0.305178 0.40114
N1_3 N 0.491(2) 0.254(3) 0.8790(10)
C34_3 C 0.4066(15) 0.223(2) 0.8453(12)
H16_3 H 0.3586 0.1817 0.8674
H17_3 H 0.3686 0.2810 0.8313
H18_3 H 0.4338 0.1844 0.8137
C35_3 C 0.584(2) 0.297(2) 0.8465(14)
H19_3 H 0.5791 0.3697 0.8465
H20_3 H 0.6503 0.2771 0.8642
H21_3 H 0.5824 0.2729 0.8080
H22_3 H 0.464045 0.306634 0.905659
H23_3 H 0.517121 0.194822 0.90114
N1_4 N 0.509(2) 0.754(3) 0.6210(10)
C34_4 C 0.5934(15) 0.723(2) 0.6547(12)
H16_4 H 0.6414 0.6817 0.6326
H17_4 H 0.6314 0.7810 0.6687
H18_4 H 0.5662 0.6844 0.6863
C35_4 C 0.416(2) 0.797(2) 0.6535(14)
H19_4 H 0.4209 0.8697 0.6535
H20_4 H 0.3497 0.7771 0.6358
H21_4 H 0.4176 0.7729 0.6920
H22_4 H 0.535955 0.806634 0.594341
H23_4 H 0.482879 0.694822 0.59886
loop_
_geom_bond_atom_site_label_1
_geom_bond_atom_site_label_2
_geom_bond_site_symmetry_1
_geom_bond_site_symmetry_2
C1 H1 1_555 1_555
O2 C18 1_555 1_555
C2 H2 1_555 1_555
O3 C18 1_555 1_555
C4 C1 1_555 1_555
H3 C4 1_555 1_555
C5 C4 1_555 1_555
C6 C1 1_555 1_555
C18 C5 1_555 1_555
C25 C20 1_555 1_555
H11 C25 1_555 1_555
H13 C27 1_555 1_555
Fe9 O2 1_555 1_555
C2 C6 1_555 1_555
C25 C27 1_555 1_555
C16 C21 1_555 1_555
C21 H8 1_555 1_555
C24 C16 1_555 1_555
O4 C24 1_555 1_555
O12 C24 1_555 1_555
Fe9 O4 1_555 1_555
O12 Fe9 1_555 1_555
O15 Fe7 1_555 1_555
Fe1 O5 1_555 1_555
O1 Fe3 1_555 1_555
Fe2 O8 1_555 1_555
Fe3 O10 1_555 1_555
C8 O1 1_555 1_555
C9 H4 1_555 1_555
C10 C9 1_555 1_555
C11 C10 1_555 1_555
C12 C10 1_555 1_555
H5 C12 1_555 1_555
C13 C30 1_555 1_555
C14 C3 1_555 1_555
H6 C14 1_555 1_555
C15 C26 1_555 1_555
C19 C3 1_555 1_555
H7 C19 1_555 1_555
C26 C17 1_555 1_555
H12 C26 1_555 1_555
C28 C15 1_555 1_555
C29 C7 1_555 1_555
H14 C29 1_555 1_555
O5 C8 1_555 1_555
C30 C9 1_555 1_555
C31 C30 1_555 1_555
H15 C31 1_555 1_555
O6 C11 1_555 1_555
C32 C33 1_555 1_555
C33 C12 1_555 1_555
O7 C32 1_555 1_555
O8 C32 1_555 1_555
O9 C11 1_555 1_555
O10 C13 1_555 1_555
O11 Fe1 1_555 1_555
O13 Fe1 1_555 1_555
O14 Fe1 1_555 1_555
Fe4 O7 1_555 1_555
O16 Fe2 1_555 1_555
Fe7 O9 1_555 1_555
O19 Fe2 1_555 1_555
O21 Fe1 1_555 1_555
O22 Fe2 1_555 1_555
O23 Fe2 1_555 1_555
O24 Fe2 1_555 1_555
Fe3 O13 1_555 1_555
C7 C8 1_555 1_555
C13 O11 1_555 1_555
C14 C29 1_555 1_555
C28 O13 1_555 1_555
C28 O14 1_555 1_555
C31 C33 1_555 1_555
Fe4 O16 1_555 1_555
Fe4 O24 1_555 1_555
H9 C22 1_555 1_555
H10 C23 1_555 1_555
C22 C23 1_555 1_555
Fe4 O5_2 1_555 1_555
O1_2 Fe10 1_555 1_555
Fe7 O8_2 1_555 1_555
Fe10 O10_2 1_555 1_555
C8_2 O1_2 1_555 1_555
C13_2 C30_2 1_555 1_555
C15_2 C26_2 1_555 1_555
H9_2 C22_2 1_555 1_555
C23_2 C17_2 1_555 1_555
H10_2 C23_2 1_555 1_555
C26_2 C17_2 1_555 1_555
H12_2 C26_2 1_555 1_555
C28_2 C15_2 1_555 1_555
C29_2 C7_2 1_555 1_555
H14_2 C29_2 1_555 1_555
O5_2 C8_2 1_555 1_555
C31_2 C30_2 1_555 1_555
H15_2 C31_2 1_555 1_555
O10_2 C13_2 1_555 1_555
O11_2 Fe4 1_555 1_555
O13_2 Fe4 1_555 1_555
O18 Fe7 1_555 1_555
O23_2 Fe7 1_555 1_555
Fe10 O13_2 1_555 1_555
C7_2 C8_2 1_555 1_555
C13_2 O11_2 1_555 1_555
C22_2 C23_2 1_555 1_555
C28_2 O13_2 1_555 1_555
C28_2 O24 1_555 1_555
C14_2 C3_2 1_555 1_555
H6_2 C14_2 1_555 1_555
C19_2 C3_2 1_555 1_555
H7_2 C19_2 1_555 1_555
C9_2 H4_2 1_555 1_555
C10_2 C9_2 1_555 1_555
C11_2 C10_2 1_555 1_555
C12_2 C10_2 1_555 1_555
H5_2 C12_2 1_555 1_555
O20 C11_2 1_555 1_555
C32_2 C33_2 1_555 1_555
C33_2 C12_2 1_555 1_555
O21 C32_2 1_555 1_555
O22 C11_2 1_555 1_555
C2_2 H2_2 1_555 1_555
C16_2 C21_2 1_555 1_555
C20_2 C21_2 1_555 1_555
C21_2 H8_2 1_555 1_555
C24_2 C16_2 1_555 1_555
C25_2 C20_2 1_555 1_555
H11_2 C25_2 1_555 1_555
H13_2 C27_2 1_555 1_555
O4_2 C24_2 1_555 1_555
O12_2 C24_2 1_555 1_555
Fe8 O4_2 1_555 1_555
C25_2 C27_2 1_555 1_555
O12_2 Fe8 1_555 1_555
C1_2 H1_2 1_555 1_555
O2_2 C18_2 1_555 1_555
O3_2 C18_2 1_555 1_555
C4_2 C1_2 1_555 1_555
H3_2 C4_2 1_555 1_555
C5_2 C4_2 1_555 1_555
C6_2 C1_2 1_555 1_555
C18_2 C5_2 1_555 1_555
Fe5_2 O2_2 1_555 1_555
Fe8 O2_2 1_555 1_555
H9_3 C22_3 1_555 1_555
H10_3 C23_3 1_555 1_555
C22_3 C23_3 1_555 1_555
Fe5 O5_3 1_555 1_555
O1_3 Fe11 1_555 1_555
Fe8 O8_3 1_555 1_555
Fe11 O10_3 1_555 1_555
C8_3 O1_3 1_555 1_555
C9_3 H4_3 1_555 1_555
C10_3 C9_3 1_555 1_555
C11_3 C10_3 1_555 1_555
C12_3 C10_3 1_555 1_555
H5_3 C12_3 1_555 1_555
C13_3 C30_3 1_555 1_555
C14_3 C3_3 1_555 1_555
H6_3 C14_3 1_555 1_555
C15_3 C26_3 1_555 1_555
C19_3 C3_3 1_555 1_555
H7_3 C19_3 1_555 1_555
C26_3 C17_3 1_555 1_555
H12_3 C26_3 1_555 1_555
C28_3 C15_3 1_555 1_555
C29_3 C7_3 1_555 1_555
H14_3 C29_3 1_555 1_555
O5_3 C8_3 1_555 1_555
C30_3 C9_3 1_555 1_555
C31_3 C30_3 1_555 1_555
H15_3 C31_3 1_555 1_555
O6_2 C11_3 1_555 1_555
C32_3 C33_3 1_555 1_555
C33_3 C12_3 1_555 1_555
O7_2 C32_3 1_555 1_555
O8_3 C32_3 1_555 1_555
O9_2 C11_3 1_555 1_555
O10_3 C13_3 1_555 1_555
O11_3 Fe5 1_555 1_555
O13_3 Fe5 1_555 1_555
O14_2 Fe5 1_555 1_555
Fe5_2 O7_2 1_555 1_555
Fe9 O9_2 1_555 1_555
O21_2 Fe5 1_555 1_555
O22_2 Fe8 1_555 1_555
O24_2 Fe8 1_555 1_555
Fe11 O13_3 1_555 1_555
C7_3 C8_3 1_555 1_555
C13_3 O11_3 1_555 1_555
C14_3 C29_3 1_555 1_555
C28_3 O13_3 1_555 1_555
C28_3 O14_2 1_555 1_555
C31_3 C33_3 1_555 1_555
Fe5_2 O24_2 1_555 1_555
C16_3 C21_3 1_555 1_555
C21_3 H8_3 1_555 1_555
C24_3 C16_3 1_555 1_555
O18 C24_3 1_555 1_555
O23_2 C24_3 1_555 1_555
C1_3 H1_3 1_555 1_555
O15 C18_3 1_555 1_555
C2_3 H2_3 1_555 1_555
O17_2 C18_3 1_555 1_555
C4_3 C1_3 1_555 1_555
H3_3 C4_3 1_555 1_555
C5_3 C4_3 1_555 1_555
C6_3 C1_3 1_555 1_555
C18_3 C5_3 1_555 1_555
C25_3 C20_3 1_555 1_555
H11_3 C25_3 1_555 1_555
H13_3 C27_3 1_555 1_555
C2_3 C6_3 1_555 1_555
C25_3 C27_3 1_555 1_555
C1_4 H1_4 1_555 1_555
O16 C18_4 1_555 1_555
O17 C18_4 1_555 1_555
C4_4 C1_4 1_555 1_555
H3_4 C4_4 1_555 1_555
C5_4 C4_4 1_555 1_555
C6_4 C1_4 1_555 1_555
C18_4 C5_4 1_555 1_555
C2_4 H2_4 1_555 1_555
C16_4 C21_4 1_555 1_555
C20_4 C21_4 1_555 1_555
C21_4 H8_4 1_555 1_555
C24_4 C16_4 1_555 1_555
C25_4 C20_4 1_555 1_555
H11_4 C25_4 1_555 1_555
H13_4 C27_4 1_555 1_555
O19 C24_4 1_555 1_555
O23 C24_4 1_555 1_555
C25_4 C27_4 1_555 1_555
C9_4 H4_4 1_555 1_555
C10_4 C9_4 1_555 1_555
C11_4 C10_4 1_555 1_555
C12_4 C10_4 1_555 1_555
H5_4 C12_4 1_555 1_555
O20_2 C11_4 1_555 1_555
C32_4 C33_4 1_555 1_555
C33_4 C12_4 1_555 1_555
O21_2 C32_4 1_555 1_555
O22_2 C11_4 1_555 1_555
C14_4 C3_4 1_555 1_555
H6_4 C14_4 1_555 1_555
C19_4 C3_4 1_555 1_555
H7_4 C19_4 1_555 1_555
Fe5_2 O5_4 1_555 1_555
O1_4 Fe12 1_555 1_555
Fe9 O8_4 1_555 1_555
Fe12 O10_4 1_555 1_555
C8_4 O1_4 1_555 1_555
C13_4 C30_4 1_555 1_555
C15_4 C26_4 1_555 1_555
H9_4 C22_4 1_555 1_555
C23_4 C17_4 1_555 1_555
H10_4 C23_4 1_555 1_555
C26_4 C17_4 1_555 1_555
H12_4 C26_4 1_555 1_555
C28_4 C15_4 1_555 1_555
C29_4 C7_4 1_555 1_555
H14_4 C29_4 1_555 1_555
O5_4 C8_4 1_555 1_555
C31_4 C30_4 1_555 1_555
H15_4 C31_4 1_555 1_555
O10_4 C13_4 1_555 1_555
O11_4 Fe5_2 1_555 1_555
O13_4 Fe5_2 1_555 1_555
Fe12 O13_4 1_555 1_555
C7_4 C8_4 1_555 1_555
C13_4 O11_4 1_555 1_555
C22_4 C23_4 1_555 1_555
C28_4 O13_4 1_555 1_555
C28_4 O24_2 1_555 1_555
N1 C34 1_555 1_555
C34 H16 1_555 1_555
H17 C34 1_555 1_555
H18 C34 1_555 1_555
C35 N1 1_555 1_555
H19 C35 1_555 1_555
H20 C35 1_555 1_555
H21 C35 1_555 1_555
N1 H22 1_555 1_555
N1 H23 1_555 1_555
N1_2 C34_2 1_555 1_555
C34_2 H16_2 1_555 1_555
H17_2 C34_2 1_555 1_555
H18_2 C34_2 1_555 1_555
C35_2 N1_2 1_555 1_555
H19_2 C35_2 1_555 1_555
H20_2 C35_2 1_555 1_555
H21_2 C35_2 1_555 1_555
N1_2 H22_2 1_555 1_555
N1_2 H23_2 1_555 1_555
N1_3 C34_3 1_555 1_555
C34_3 H16_3 1_555 1_555
H17_3 C34_3 1_555 1_555
H18_3 C34_3 1_555 1_555
C35_3 N1_3 1_555 1_555
H19_3 C35_3 1_555 1_555
H20_3 C35_3 1_555 1_555
H21_3 C35_3 1_555 1_555
N1_3 H22_3 1_555 1_555
N1_3 H23_3 1_555 1_555
N1_4 C34_4 1_555 1_555
C34_4 H16_4 1_555 1_555
H17_4 C34_4 1_555 1_555
H18_4 C34_4 1_555 1_555
C35_4 N1_4 1_555 1_555
H19_4 C35_4 1_555 1_555
H20_4 C35_4 1_555 1_555
H21_4 C35_4 1_555 1_555
N1_4 H22_4 1_555 1_555
N1_4 H23_4 1_555 1_555

#END
