
###############################################################################
#
# This file contains modified crystal structure data generated from the
# MOF subset of the Cambridge Structural Database (CSD) v543 
# hosted by the Cambridge Crystallographic Data Centre (CCDC).
#
# This work is licensed under the Creative Commons
# Attribution-NonCommercial-ShareAlike 4.0 International License.
# To view a copy of this license, visit
# http://creativecommons.org/licenses/by-nc-sa/4.0/
# or send a letter to
# Creative Commons, PO Box 1866, Mountain View, CA 94042, USA.
#
# CIF created using the CSD Python API on 29 September 2022
# The structure has been converted into the P1 space group
# The structure has a 3D framework
# The original CSD entry ZEWPOJ is in the orthorhombic crystal system
# The framework has been calculated to contain at least 10.0% void space
# The void calculation uses a probe of radius 1.32A, grid spacing 0.4
# H atom positions have been added when not included in the experimental data
#
###############################################################################

data_ZEWPOJ
_chemical_formula_moiety         '(C528 H268 Cs4 O128 U16)n'
_symmetry_cell_setting           triclinic
_symmetry_space_group_name_H-M   'P 1'
_symmetry_Int_Tables_number      1
_space_group_name_Hall           'P 1'
loop_
_symmetry_equiv_pos_site_id
_symmetry_equiv_pos_as_xyz
1 x,y,z
_cell_length_a                   39.501(3)
_cell_length_b                   17.7609(13)
_cell_length_c                   28.789(2)
_cell_angle_alpha                90
_cell_angle_beta                 90
_cell_angle_gamma                90
_cell_volume                     20197.6
loop_
_atom_site_label
_atom_site_type_symbol
_atom_site_fract_x
_atom_site_fract_y
_atom_site_fract_z
U2 U 0.65260(2) 0.28676(3) 0.33306(2)
O1 O 0.6484(4) 0.1536(6) 0.3483(4)
C2 C 0.6375(5) 0.1589(9) 0.3888(5)
O5 O 0.6381(4) 0.2245(7) 0.4069(4)
O6 O 0.6962(3) 0.2767(6) 0.3370(4)
O13 O 0.6079(3) 0.2973(5) 0.3294(5)
C29 C 0.6247(5) 0.0941(9) 0.4117(6)
C62 C 0.6043(6) 0.1063(11) 0.4545(7)
H29 H 0.6017 0.1532 0.4683
C63 C 0.6313(5) 0.0232(11) 0.3963(8)
H30 H 0.6469 0.0152 0.3726
C66 C 0.5885(7) 0.0366(14) 0.4731(8)
H32 H 0.5754 0.0391 0.5000
O17 O 0.3516(4) 0.1536(6) 0.3483(4)
C68 C 0.3625(5) 0.1589(9) 0.3888(5)
O18 O 0.3619(4) 0.2245(7) 0.4069(4)
C72 C 0.3753(5) 0.0941(9) 0.4117(6)
C85 C 0.3957(6) 0.1063(11) 0.4545(7)
H40 H 0.3983 0.1532 0.4683
C86 C 0.3687(5) 0.0232(11) 0.3963(8)
H41 H 0.3531 0.0152 0.3726
C88 C 0.4115(7) 0.0366(14) 0.4731(8)
H42 H 0.4246 0.0391 0.5000
U4 U 0.34740(2) 0.28676(3) 0.33306(2)
O24 O 0.3038(3) 0.2767(6) 0.3370(4)
O29 O 0.3921(3) 0.2973(5) 0.3294(5)
Cs6 Cs 0.62969(4) 0.33773(8) 0.49516(4)
Cs8 Cs 0.37031(4) 0.33773(8) 0.49516(4)
O35 O 0.3389(4) 0.3321(7) 0.2520(3)
O36 O 0.6611(4) 0.3321(7) 0.2520(3)
O39 O 0.6533(3) 0.4276(5) 0.3331(4)
O40 O 0.3467(3) 0.4276(5) 0.3331(4)
O45 O 0.3490(4) 0.2122(7) 0.2621(4)
O46 O 0.6510(4) 0.2122(7) 0.2621(4)
O51 O 0.6581(3) 0.3740(6) 0.3988(3)
O52 O 0.3419(3) 0.3740(6) 0.3988(3)
H65 H 0.530975 0.0122322 0.428355
H66 H 0.469025 0.0122322 0.428355
U1 U 0.69643(2) 0.44456(3) 0.60638(2)
C1 C 0.6118(5) 0.5934(11) 0.5139(5)
H1 H 0.6195 0.5550 0.4946
O2 O 0.8014(3) 0.0020(7) 0.1841(4)
C3 C 0.7133(5) 0.2616(9) 0.4729(5)
H2 H 0.7062 0.3044 0.4571
C4 C 0.7256(5) 0.2673(9) 0.5200(6)
C6 C 0.5704(5) 0.7806(10) 0.5045(7)
C12 C 0.7365(5) 0.1351(9) 0.5212(5)
H4 H 0.7459 0.0946 0.5371
C14 C 0.7264(5) 0.0491(9) 0.4054(5)
H5 H 0.7335 0.0931 0.3907
H6 H 0.6994 0.0262 0.5412
C18 C 0.7184(5) 0.0541(8) 0.4527(5)
C19 C 0.7214(5) 0.1268(9) 0.4749(5)
C20 C 0.7359(6) 0.2102(11) 0.5405(6)
H7 H 0.7439 0.2162 0.5707
C22 C 0.7121(5) 0.1919(8) 0.4515(5)
H9 H 0.7049 0.1886 0.4208
C23 C 0.5362(5) 0.7803(10) 0.5033(8)
O8 O 0.6484(3) 0.5254(7) 0.6227(4)
O9 O 0.6500(4) 0.4721(7) 0.5550(4)
O11 O 0.7372(3) 0.3497(6) 0.5810(4)
O12 O 0.6728(3) 0.3678(6) 0.6273(4)
O14 O 0.7008(3) 0.3862(6) 0.5312(3)
O15 O 0.7585(3) 0.0743(6) 0.1673(3)
O16 O 0.7199(4) 0.5228(6) 0.5871(4)
C24 C 0.7728(5) 0.0314(8) 0.1931(5)
C26 C 0.6176(5) 0.5891(9) 0.5646(6)
C30 C 0.5875(5) 0.7105(11) 0.5234(7)
C33 C 0.5956(5) 0.6529(10) 0.4958(6)
H11 H 0.5900 0.6539 0.4644
C37 C 0.5936(5) 0.7105(9) 0.5730(6)
H15 H 0.5872 0.7509 0.5916
C39 C 0.6090(5) 0.6492(10) 0.5911(7)
H17 H 0.6138 0.6483 0.6227
C40 C 0.7582(5) 0.0162(8) 0.2402(5)
C43 C 0.5358(5) 0.9082(9) 0.4707(6)
C44 C 0.5884(5) 0.8416(9) 0.4875(6)
H19 H 0.6120 0.8404 0.4876
C46 C 0.5173(4) 0.8431(11) 0.4885(7)
C47 C 0.5717(5) 0.9047(10) 0.4701(7)
C50 C 0.5926(5) 0.9724(11) 0.4523(7)
C52 C 0.5176(5) 0.7157(10) 0.5208(7)
H23 H 0.5292 0.6741 0.5321
C53 C 0.7219(5) 0.3395(9) 0.5444(5)
C54 C 0.7190(5) 0.0451(9) 0.3012(5)
H24 H 0.7006 0.0725 0.3121
C56 C 0.5172(5) 0.9679(10) 0.4464(8)
C58 C 0.6134(6) 0.9597(11) 0.4174(7)
H27 H 0.6168 0.9111 0.4064
C60 C 0.7311(6) 0.0583(9) 0.2568(6)
H28 H 0.7212 0.0951 0.2382
C65 C 0.6382(6) 0.5255(11) 0.5801(7)
C67 C 0.3882(5) 0.5934(11) 0.5139(5)
H33 H 0.3805 0.5550 0.4946
C69 C 0.4296(5) 0.7806(10) 0.5045(7)
C70 C 0.4638(5) 0.7803(10) 0.5033(8)
O19 O 0.3516(3) 0.5254(7) 0.6227(4)
O20 O 0.3500(4) 0.4721(7) 0.5550(4)
C71 C 0.3824(5) 0.5891(9) 0.5646(6)
C73 C 0.4125(5) 0.7105(11) 0.5234(7)
C74 C 0.4044(5) 0.6529(10) 0.4958(6)
H34 H 0.4100 0.6539 0.4644
C75 C 0.4064(5) 0.7105(9) 0.5730(6)
H35 H 0.4128 0.7509 0.5916
C76 C 0.3910(5) 0.6492(10) 0.5911(7)
H36 H 0.3862 0.6483 0.6227
C77 C 0.4642(5) 0.9082(9) 0.4707(6)
C78 C 0.4116(5) 0.8416(9) 0.4875(6)
H37 H 0.3880 0.8404 0.4876
C79 C 0.4827(4) 0.8431(11) 0.4885(7)
C80 C 0.4283(5) 0.9047(10) 0.4701(7)
C81 C 0.4074(5) 0.9724(11) 0.4523(7)
C82 C 0.4824(5) 0.7157(10) 0.5208(7)
H38 H 0.4708 0.6741 0.5321
C83 C 0.4828(5) 0.9679(10) 0.4464(8)
C84 C 0.3866(6) 0.9597(11) 0.4174(7)
H39 H 0.3832 0.9111 0.4064
C87 C 0.3618(6) 0.5255(11) 0.5801(7)
U3 U 0.30357(2) 0.44456(3) 0.60638(2)
O21 O 0.1986(3) 0.0020(7) 0.1841(4)
C89 C 0.2867(5) 0.2616(9) 0.4729(5)
H43 H 0.2938 0.3044 0.4571
C90 C 0.2744(5) 0.2673(9) 0.5200(6)
C97 C 0.2635(5) 0.1351(9) 0.5212(5)
H45 H 0.2541 0.0946 0.5371
C99 C 0.2736(5) 0.0491(9) 0.4054(5)
H46 H 0.2665 0.0931 0.3907
H47 H 0.3006 0.0262 0.5412
C103 C 0.2816(5) 0.0541(8) 0.4527(5)
C104 C 0.2786(5) 0.1268(9) 0.4749(5)
C105 C 0.2641(6) 0.2102(11) 0.5405(6)
H48 H 0.2561 0.2162 0.5707
C107 C 0.2879(5) 0.1919(8) 0.4515(5)
H50 H 0.2951 0.1886 0.4208
O27 O 0.2628(3) 0.3497(6) 0.5810(4)
O28 O 0.3272(3) 0.3678(6) 0.6273(4)
O30 O 0.2992(3) 0.3862(6) 0.5312(3)
O31 O 0.2415(3) 0.0743(6) 0.1673(3)
O32 O 0.2801(4) 0.5228(6) 0.5871(4)
C108 C 0.2272(5) 0.0314(8) 0.1931(5)
C118 C 0.2418(5) 0.0162(8) 0.2402(5)
C125 C 0.2781(5) 0.3395(9) 0.5444(5)
C126 C 0.2810(5) 0.0451(9) 0.3012(5)
H60 H 0.2994 0.0725 0.3121
C130 C 0.2689(6) 0.0583(9) 0.2568(6)
H63 H 0.2788 0.0951 0.2382
U5 U 0.80357(2) 0.05544(3) 0.10638(2)
U6 U 0.19643(2) 0.05544(3) 0.10638(2)
Cs11 Cs 0.62886(5) 0.51749(9) 0.72959(5)
Cs13 Cs 0.37114(5) 0.51749(9) 0.72959(5)
O33 O 0.6986(3) 0.4980(7) 0.6841(4)
O34 O 0.3014(3) 0.4980(7) 0.6841(4)
O55 O 0.7415(3) 0.4257(6) 0.6673(3)
O56 O 0.2585(3) 0.4257(6) 0.6673(3)
Cs2 Cs 0.87114(5) 0.98251(9) 0.22959(5)
O3 O 0.6611(4) 0.6679(7) 0.7520(3)
C5 C 0.6810(5) 0.7823(9) 0.5401(5)
C7 C 0.6783(4) 0.7165(8) 0.5128(5)
H3 H 0.6731 0.6712 0.5274
C8 C 0.6933(4) 0.7802(9) 0.4438(5)
C9 C 0.6832(5) 0.7169(9) 0.4648(5)
C10 C 0.6881(4) 0.8485(7) 0.5200(5)
C11 C 0.6576(5) 0.7337(10) 0.7363(6)
C13 C 0.7069(4) 0.9174(8) 0.4492(5)
C15 C 0.6997(5) 0.9821(9) 0.5238(5)
C16 C 0.6963(5) 0.8502(8) 0.4714(5)
C17 C 0.7087(5) 0.9855(8) 0.4740(5)
C21 C 0.6922(5) 0.9183(9) 0.5436(5)
H8 H 0.6893 0.9184 0.5757
O7 O 0.6510(4) 0.7878(7) 0.7621(4)
C25 C 0.7339(4) 0.9921(7) 0.3294(6)
C27 C 0.7138(5) 0.9203(9) 0.3993(5)
C28 C 0.7247(4) 0.9858(9) 0.3790(5)
C31 C 0.6651(5) 0.7461(9) 0.6861(5)
C32 C 0.7019(5) 0.7847(9) 0.3956(5)
H10 H 0.7006 0.7415 0.3775
C34 C 0.6509(6) 0.8114(10) 0.6655(6)
H12 H 0.6399 0.8476 0.6833
C35 C 0.7735(5) 0.9630(8) 0.2697(5)
H13 H 0.7920 0.9354 0.2590
C36 C 0.6882(4) 0.7066(8) 0.6126(6)
H14 H 0.7012 0.6722 0.5960
C38 C 0.6543(5) 0.8190(9) 0.6177(5)
H16 H 0.6427 0.8578 0.6030
C41 C 0.6747(5) 0.7696(9) 0.5902(5)
C42 C 0.7622(5) 0.9514(8) 0.3125(5)
H18 H 0.7728 0.9164 0.3316
C45 C 0.6897(4) 0.5777(9) 0.4579(5)
H20 H 0.7031 0.5797 0.4845
C48 C 0.6820(5) 0.6952(10) 0.6606(5)
H21 H 0.6899 0.6515 0.6748
C49 C 0.6784(5) 0.6427(9) 0.4407(5)
C51 C 0.7119(5) 0.8500(8) 0.3755(5)
H22 H 0.7179 0.8490 0.3443
C55 C 0.6527(6) 0.5723(9) 0.3800(6)
H25 H 0.6389 0.5717 0.3538
C57 C 0.6593(5) 0.6357(11) 0.3994(5)
H26 H 0.6511 0.6793 0.3856
C59 C 0.6650(5) 0.5066(10) 0.3961(5)
C61 C 0.6586(5) 0.4294(9) 0.3748(5)
C64 C 0.6831(5) 0.5080(10) 0.4393(5)
H31 H 0.6900 0.4639 0.4540
Cs4 Cs 0.12886(5) 0.98251(9) 0.22959(5)
O22 O 0.3389(4) 0.6679(7) 0.7520(3)
C91 C 0.3190(5) 0.7823(9) 0.5401(5)
C92 C 0.3217(4) 0.7165(8) 0.5128(5)
H44 H 0.3269 0.6712 0.5274
C93 C 0.3067(4) 0.7802(9) 0.4438(5)
C94 C 0.3168(5) 0.7169(9) 0.4648(5)
C95 C 0.3119(4) 0.8485(7) 0.5200(5)
C96 C 0.3424(5) 0.7337(10) 0.7363(6)
C98 C 0.2931(4) 0.9174(8) 0.4492(5)
C100 C 0.3003(5) 0.9821(9) 0.5238(5)
C101 C 0.3037(5) 0.8502(8) 0.4714(5)
C102 C 0.2913(5) 0.9855(8) 0.4740(5)
C106 C 0.3078(5) 0.9183(9) 0.5436(5)
H49 H 0.3107 0.9184 0.5757
O25 O 0.3490(4) 0.7878(7) 0.7621(4)
C109 C 0.2661(4) 0.9921(7) 0.3294(6)
C110 C 0.2862(5) 0.9203(9) 0.3993(5)
C111 C 0.2753(4) 0.9858(9) 0.3790(5)
C112 C 0.3349(5) 0.7461(9) 0.6861(5)
C113 C 0.2981(5) 0.7847(9) 0.3956(5)
H51 H 0.2994 0.7415 0.3775
C114 C 0.3491(6) 0.8114(10) 0.6655(6)
H52 H 0.3601 0.8476 0.6833
C115 C 0.2265(5) 0.9630(8) 0.2697(5)
H53 H 0.2080 0.9354 0.2590
C116 C 0.3118(4) 0.7066(8) 0.6126(6)
H54 H 0.2988 0.6722 0.5960
C117 C 0.3457(5) 0.8190(9) 0.6177(5)
H55 H 0.3573 0.8578 0.6030
C119 C 0.3253(5) 0.7696(9) 0.5902(5)
C120 C 0.2378(5) 0.9514(8) 0.3125(5)
H56 H 0.2272 0.9164 0.3316
C121 C 0.3103(4) 0.5777(9) 0.4579(5)
H57 H 0.2969 0.5797 0.4845
C122 C 0.3180(5) 0.6952(10) 0.6606(5)
H58 H 0.3101 0.6515 0.6748
C123 C 0.3216(5) 0.6427(9) 0.4407(5)
C124 C 0.2881(5) 0.8500(8) 0.3755(5)
H59 H 0.2821 0.8490 0.3443
C127 C 0.3473(6) 0.5723(9) 0.3800(6)
H61 H 0.3611 0.5717 0.3538
C128 C 0.3407(5) 0.6357(11) 0.3994(5)
H62 H 0.3489 0.6793 0.3856
C129 C 0.3350(5) 0.5066(10) 0.3961(5)
C131 C 0.3414(5) 0.4294(9) 0.3748(5)
C132 C 0.3169(5) 0.5080(10) 0.4393(5)
H64 H 0.3100 0.4639 0.4540
U8 U 0.34740(2) 0.71324(3) 0.83306(2)
U9 U 0.65260(2) 0.71324(3) 0.83306(2)
Cs9 Cs 0.37114(5) 0.48251(9) 0.22959(5)
Cs14 Cs 0.62886(5) 0.48251(9) 0.22959(5)
O37 O 0.8389(4) 0.8321(7) 0.2520(3)
O38 O 0.1611(4) 0.8321(7) 0.2520(3)
O41 O 0.1533(3) 0.9276(5) 0.3331(4)
O42 O 0.8467(3) 0.9276(5) 0.3331(4)
O47 O 0.8516(3) 0.9746(7) 0.1227(4)
O48 O 0.1484(3) 0.9746(7) 0.1227(4)
C5_2 C 0.3190(5) 0.2177(9) 0.0401(5)
C7_2 C 0.3217(4) 0.2835(8) 0.0128(5)
H3_2 H 0.3269 0.3288 0.0274
C10_2 C 0.3119(4) 0.1515(7) 0.0200(5)
C11_2 C 0.3424(5) 0.2663(10) 0.2363(6)
C15_2 C 0.3003(5) 0.0179(9) 0.0238(5)
C21_2 C 0.3078(5) 0.0817(9) 0.0436(5)
H8_2 H 0.3107 0.0816 0.0757
C31_2 C 0.3349(5) 0.2539(9) 0.1861(5)
C34_2 C 0.3491(6) 0.1886(10) 0.1655(6)
H12_2 H 0.3601 0.1524 0.1833
C36_2 C 0.3118(4) 0.2934(8) 0.1126(6)
H14_2 H 0.2988 0.3278 0.0960
C38_2 C 0.3457(5) 0.1810(9) 0.1177(5)
H16_2 H 0.3573 0.1422 0.1030
C41_2 C 0.3253(5) 0.2304(9) 0.0902(5)
C48_2 C 0.3180(5) 0.3048(10) 0.1606(5)
H21_2 H 0.3101 0.3485 0.1748
C91_2 C 0.6810(5) 0.2177(9) 0.0401(5)
C92_2 C 0.6783(4) 0.2835(8) 0.0128(5)
H44_2 H 0.6731 0.3288 0.0274
C95_2 C 0.6881(4) 0.1515(7) 0.0200(5)
C96_2 C 0.6576(5) 0.2663(10) 0.2363(6)
C100_2 C 0.6997(5) 0.0179(9) 0.0238(5)
C106_2 C 0.6922(5) 0.0817(9) 0.0436(5)
H49_2 H 0.6893 0.0816 0.0757
C112_2 C 0.6651(5) 0.2539(9) 0.1861(5)
C114_2 C 0.6509(6) 0.1886(10) 0.1655(6)
H52_2 H 0.6399 0.1524 0.1833
C116_2 C 0.6882(4) 0.2934(8) 0.1126(6)
H54_2 H 0.7012 0.3278 0.0960
C117_2 C 0.6543(5) 0.1810(9) 0.1177(5)
H55_2 H 0.6427 0.1422 0.1030
C119_2 C 0.6747(5) 0.2304(9) 0.0902(5)
C122_2 C 0.6820(5) 0.3048(10) 0.1606(5)
H58_2 H 0.6899 0.3485 0.1748
O49 O 0.3500(4) 0.5279(7) 0.0550(4)
O50 O 0.6500(4) 0.5279(7) 0.0550(4)
O53 O 0.2992(3) 0.6138(6) 0.0312(3)
O54 O 0.7008(3) 0.6138(6) 0.0312(3)
Cs1 Cs 0.37031(4) 0.66227(8) 0.99516(4)
Cs2_2 Cs 0.12886(5) 0.01749(9) 0.72959(5)
C8_2 C 0.3067(4) 0.2198(9) 0.9438(5)
C9_2 C 0.3168(5) 0.2831(9) 0.9648(5)
C13_2 C 0.2931(4) 0.0826(8) 0.9492(5)
C16_2 C 0.3037(5) 0.1498(8) 0.9714(5)
C17_2 C 0.2913(5) 0.0145(8) 0.9740(5)
O4 O 0.3467(3) 0.5724(5) 0.8331(4)
O10 O 0.3419(3) 0.6260(6) 0.8988(3)
C25_2 C 0.2661(4) 0.0079(7) 0.8294(6)
C27_2 C 0.2862(5) 0.0797(9) 0.8993(5)
C28_2 C 0.2753(4) 0.0142(9) 0.8790(5)
C32_2 C 0.2981(5) 0.2153(9) 0.8956(5)
H10_2 H 0.2994 0.2585 0.8775
C35_2 C 0.2265(5) 0.0370(8) 0.7697(5)
H13_2 H 0.2080 0.0646 0.7590
C42_2 C 0.2378(5) 0.0486(8) 0.8125(5)
H18_2 H 0.2272 0.0836 0.8316
C45_2 C 0.3103(4) 0.4223(9) 0.9579(5)
H20_2 H 0.2969 0.4203 0.9845
C49_2 C 0.3216(5) 0.3573(9) 0.9407(5)
C51_2 C 0.2881(5) 0.1500(8) 0.8755(5)
H22_2 H 0.2821 0.1510 0.8443
C55_2 C 0.3473(6) 0.4277(9) 0.8800(6)
H25_2 H 0.3611 0.4283 0.8538
C57_2 C 0.3407(5) 0.3643(11) 0.8994(5)
H26_2 H 0.3489 0.3207 0.8856
C59_2 C 0.3350(5) 0.4934(10) 0.8961(5)
C61_2 C 0.3414(5) 0.5706(9) 0.8748(5)
C64_2 C 0.3169(5) 0.4920(10) 0.9393(5)
H31_2 H 0.3100 0.5361 0.9540
Cs3 Cs 0.62969(4) 0.66227(8) 0.99516(4)
Cs4_2 Cs 0.87114(5) 0.01749(9) 0.72959(5)
C93_2 C 0.6933(4) 0.2198(9) 0.9438(5)
C94_2 C 0.6832(5) 0.2831(9) 0.9648(5)
C98_2 C 0.7069(4) 0.0826(8) 0.9492(5)
C101_2 C 0.6963(5) 0.1498(8) 0.9714(5)
C102_2 C 0.7087(5) 0.0145(8) 0.9740(5)
O23 O 0.6533(3) 0.5724(5) 0.8331(4)
O26 O 0.6581(3) 0.6260(6) 0.8988(3)
C109_2 C 0.7339(4) 0.0079(7) 0.8294(6)
C110_2 C 0.7138(5) 0.0797(9) 0.8993(5)
C111_2 C 0.7247(4) 0.0142(9) 0.8790(5)
C113_2 C 0.7019(5) 0.2153(9) 0.8956(5)
H51_2 H 0.7006 0.2585 0.8775
C115_2 C 0.7735(5) 0.0370(8) 0.7697(5)
H53_2 H 0.7920 0.0646 0.7590
C120_2 C 0.7622(5) 0.0486(8) 0.8125(5)
H56_2 H 0.7728 0.0836 0.8316
C121_2 C 0.6897(4) 0.4223(9) 0.9579(5)
H57_2 H 0.7031 0.4203 0.9845
C123_2 C 0.6784(5) 0.3573(9) 0.9407(5)
C124_2 C 0.7119(5) 0.1500(8) 0.8755(5)
H59_2 H 0.7179 0.1510 0.8443
C127_2 C 0.6527(6) 0.4277(9) 0.8800(6)
H61_2 H 0.6389 0.4283 0.8538
C128_2 C 0.6593(5) 0.3643(11) 0.8994(5)
H62_2 H 0.6511 0.3207 0.8856
C129_2 C 0.6650(5) 0.4934(10) 0.8961(5)
C131_2 C 0.6586(5) 0.5706(9) 0.8748(5)
C132_2 C 0.6831(5) 0.4920(10) 0.9393(5)
H64_2 H 0.6900 0.5361 0.9540
C133 C 0.2867(5) 0.7384(9) 0.9729(5)
C134 C 0.7133(5) 0.7384(9) 0.9729(5)
O37_2 O 0.1611(4) 0.1679(7) 0.7520(3)
O38_2 O 0.8389(4) 0.1679(7) 0.7520(3)
O41_2 O 0.8467(3) 0.0724(5) 0.8331(4)
O42_2 O 0.1533(3) 0.0724(5) 0.8331(4)
O43 O 0.3619(4) 0.7755(7) 0.9069(4)
O44 O 0.6381(4) 0.7755(7) 0.9069(4)
O47_2 O 0.1484(3) 0.0254(7) 0.6227(4)
O48_2 O 0.8516(3) 0.0254(7) 0.6227(4)
U1_2 U 0.30357(2) 0.55544(3) 0.10638(2)
C1_2 C 0.3882(5) 0.4066(11) 0.0139(5)
C4_2 C 0.2744(5) 0.7327(9) 0.0200(6)
C6_2 C 0.4296(5) 0.2194(10) 0.0045(7)
C12_2 C 0.2635(5) 0.8649(9) 0.0212(5)
H4_2 H 0.2541 0.9054 0.0371
H6_2 H 0.3006 0.9738 0.0412
C20_2 C 0.2641(6) 0.7898(11) 0.0405(6)
H7_2 H 0.2561 0.7838 0.0707
C23_2 C 0.4638(5) 0.2197(10) 0.0033(8)
O8_2 O 0.3516(3) 0.4746(7) 0.1227(4)
O11_2 O 0.2628(3) 0.6503(6) 0.0810(4)
O12_2 O 0.3272(3) 0.6322(6) 0.1273(4)
O16_2 O 0.2801(4) 0.4772(6) 0.0871(4)
C26_2 C 0.3824(5) 0.4109(9) 0.0646(6)
C30_2 C 0.4125(5) 0.2895(11) 0.0234(7)
C37_2 C 0.4064(5) 0.2895(9) 0.0730(6)
H15_2 H 0.4128 0.2491 0.0916
C39_2 C 0.3910(5) 0.3508(10) 0.0911(7)
H17_2 H 0.3862 0.3517 0.1227
C52_2 C 0.4824(5) 0.2843(10) 0.0208(7)
H23_2 H 0.4708 0.3259 0.0321
C53_2 C 0.2781(5) 0.6605(9) 0.0444(5)
C65_2 C 0.3618(6) 0.4745(11) 0.0801(7)
C67_2 C 0.6118(5) 0.4066(11) 0.0139(5)
C69_2 C 0.5704(5) 0.2194(10) 0.0045(7)
C70_2 C 0.5362(5) 0.2197(10) 0.0033(8)
O19_2 O 0.6484(3) 0.4746(7) 0.1227(4)
C71_2 C 0.6176(5) 0.4109(9) 0.0646(6)
C73_2 C 0.5875(5) 0.2895(11) 0.0234(7)
C75_2 C 0.5936(5) 0.2895(9) 0.0730(6)
H35_2 H 0.5872 0.2491 0.0916
C76_2 C 0.6090(5) 0.3508(10) 0.0911(7)
H36_2 H 0.6138 0.3517 0.1227
C82_2 C 0.5176(5) 0.2843(10) 0.0208(7)
H38_2 H 0.5292 0.3259 0.0321
C87_2 C 0.6382(6) 0.4745(11) 0.0801(7)
U3_2 U 0.69643(2) 0.55544(3) 0.10638(2)
C90_2 C 0.7256(5) 0.7327(9) 0.0200(6)
C97_2 C 0.7365(5) 0.8649(9) 0.0212(5)
H45_2 H 0.7459 0.9054 0.0371
H47_2 H 0.6994 0.9738 0.0412
C105_2 C 0.7359(6) 0.7898(11) 0.0405(6)
H48_2 H 0.7439 0.7838 0.0707
O27_2 O 0.7372(3) 0.6503(6) 0.0810(4)
O28_2 O 0.6728(3) 0.6322(6) 0.1273(4)
O32_2 O 0.7199(4) 0.4772(6) 0.0871(4)
C125_2 C 0.7219(5) 0.6605(9) 0.0444(5)
O33_2 O 0.3014(3) 0.5020(7) 0.1841(4)
O34_2 O 0.6986(3) 0.5020(7) 0.1841(4)
O55_2 O 0.2585(3) 0.5743(6) 0.1673(3)
O56_2 O 0.7415(3) 0.5743(6) 0.1673(3)
H1_2 H 0.3805 0.4450 0.9946
O2_2 O 0.1986(3) 0.9980(7) 0.6841(4)
H2_2 H 0.2938 0.6956 0.9571
C14_2 C 0.2736(5) 0.9509(9) 0.9054(5)
H5_2 H 0.2665 0.9069 0.8907
C18_2 C 0.2816(5) 0.9459(8) 0.9527(5)
C19_2 C 0.2786(5) 0.8732(9) 0.9749(5)
C22_2 C 0.2879(5) 0.8081(8) 0.9515(5)
H9_2 H 0.2951 0.8114 0.9208
O15_2 O 0.2415(3) 0.9257(6) 0.6673(3)
C24_2 C 0.2272(5) 0.9686(8) 0.6931(5)
C33_2 C 0.4044(5) 0.3471(10) 0.9958(6)
H11_2 H 0.4100 0.3461 0.9644
C40_2 C 0.2418(5) 0.9838(8) 0.7402(5)
C43_2 C 0.4642(5) 0.0918(9) 0.9707(6)
C44_2 C 0.4116(5) 0.1584(9) 0.9875(6)
H19_2 H 0.3880 0.1596 0.9876
C46_2 C 0.4827(4) 0.1569(11) 0.9885(7)
C47_2 C 0.4283(5) 0.0953(10) 0.9701(7)
C50_2 C 0.4074(5) 0.0276(11) 0.9523(7)
C54_2 C 0.2810(5) 0.9549(9) 0.8012(5)
H24_2 H 0.2994 0.9275 0.8121
C56_2 C 0.4828(5) 0.0321(10) 0.9464(8)
C58_2 C 0.3866(6) 0.0403(11) 0.9174(7)
H27_2 H 0.3832 0.0889 0.9064
C60_2 C 0.2689(6) 0.9417(9) 0.7568(6)
H28_2 H 0.2788 0.9049 0.7382
H33_2 H 0.6195 0.4450 0.9946
C74_2 C 0.5956(5) 0.3471(10) 0.9958(6)
H34_2 H 0.5900 0.3461 0.9644
C77_2 C 0.5358(5) 0.0918(9) 0.9707(6)
C78_2 C 0.5884(5) 0.1584(9) 0.9875(6)
H37_2 H 0.6120 0.1596 0.9876
C79_2 C 0.5173(4) 0.1569(11) 0.9885(7)
C80_2 C 0.5717(5) 0.0953(10) 0.9701(7)
C81_2 C 0.5926(5) 0.0276(11) 0.9523(7)
C83_2 C 0.5172(5) 0.0321(10) 0.9464(8)
C84_2 C 0.6134(6) 0.0403(11) 0.9174(7)
H39_2 H 0.6168 0.0889 0.9064
O21_2 O 0.8014(3) 0.9980(7) 0.6841(4)
H43_2 H 0.7062 0.6956 0.9571
C99_2 C 0.7264(5) 0.9509(9) 0.9054(5)
H46_2 H 0.7335 0.9069 0.8907
C103_2 C 0.7184(5) 0.9459(8) 0.9527(5)
C104_2 C 0.7214(5) 0.8732(9) 0.9749(5)
C107_2 C 0.7121(5) 0.8081(8) 0.9515(5)
H50_2 H 0.7049 0.8114 0.9208
O31_2 O 0.7585(3) 0.9257(6) 0.6673(3)
C108_2 C 0.7728(5) 0.9686(8) 0.6931(5)
C118_2 C 0.7582(5) 0.9838(8) 0.7402(5)
C126_2 C 0.7190(5) 0.9549(9) 0.8012(5)
H60_2 H 0.7006 0.9275 0.8121
C130_2 C 0.7311(6) 0.9417(9) 0.7568(6)
H63_2 H 0.7212 0.9049 0.7382
U5_2 U 0.19643(2) 0.94456(3) 0.60638(2)
U6_2 U 0.80357(2) 0.94456(3) 0.60638(2)
O1_2 O 0.3516(4) 0.8464(6) 0.8483(4)
C2_2 C 0.3625(5) 0.8411(9) 0.8888(5)
O6_2 O 0.3038(3) 0.7233(6) 0.8370(4)
O13_2 O 0.3921(3) 0.7027(5) 0.8294(5)
C29_2 C 0.3753(5) 0.9059(9) 0.9117(6)
C62_2 C 0.3957(6) 0.8937(11) 0.9545(7)
H29_2 H 0.3983 0.8468 0.9683
C63_2 C 0.3687(5) 0.9768(11) 0.8963(8)
H30_2 H 0.3531 0.9848 0.8726
C66_2 C 0.4115(7) 0.9634(14) 0.9731(8)
H32_2 H 0.4246 0.9609 1.0000
O17_2 O 0.6484(4) 0.8464(6) 0.8483(4)
C68_2 C 0.6375(5) 0.8411(9) 0.8888(5)
C72_2 C 0.6247(5) 0.9059(9) 0.9117(6)
C85_2 C 0.6043(6) 0.8937(11) 0.9545(7)
H40_2 H 0.6017 0.8468 0.9683
C86_2 C 0.6313(5) 0.9768(11) 0.8963(8)
H41_2 H 0.6469 0.9848 0.8726
C88_2 C 0.5885(7) 0.9634(14) 0.9731(8)
H42_2 H 0.5754 0.9609 1.0000
O24_2 O 0.6962(3) 0.7233(6) 0.8370(4)
O29_2 O 0.6079(3) 0.7027(5) 0.8294(5)
H65_2 H 0.469025 0.987768 0.928355
H66_2 H 0.530975 0.987768 0.928355
U2_2 U 0.15260(2) 0.78676(3) 0.33306(2)
O1_3 O 0.1484(4) 0.6536(6) 0.3483(4)
C1_3 C 0.1118(5) 0.0934(11) 0.5139(5)
H1_3 H 0.1195 0.0550 0.4946
C2_3 C 0.1375(5) 0.6589(9) 0.3888(5)
C6_3 C 0.0704(5) 0.2806(10) 0.5045(7)
C23_3 C 0.0362(5) 0.2803(10) 0.5033(8)
O5_2 O 0.1381(4) 0.7245(7) 0.4069(4)
O6_3 O 0.1962(3) 0.7767(6) 0.3370(4)
O13_3 O 0.1079(3) 0.7973(5) 0.3294(5)
O16_3 O 0.2199(4) 0.0228(6) 0.5871(4)
C26_3 C 0.1176(5) 0.0891(9) 0.5646(6)
C29_3 C 0.1247(5) 0.5941(9) 0.4117(6)
C30_3 C 0.0875(5) 0.2105(11) 0.5234(7)
C33_3 C 0.0956(5) 0.1529(10) 0.4958(6)
H11_3 H 0.0900 0.1539 0.4644
C37_3 C 0.0936(5) 0.2105(9) 0.5730(6)
H15_3 H 0.0872 0.2509 0.5916
C39_3 C 0.1090(5) 0.1492(10) 0.5911(7)
H17_3 H 0.1138 0.1483 0.6227
C43_3 C 0.0358(5) 0.4082(9) 0.4707(6)
C44_3 C 0.0884(5) 0.3416(9) 0.4875(6)
H19_3 H 0.1120 0.3404 0.4876
C46_3 C 0.0173(4) 0.3431(11) 0.4885(7)
C47_3 C 0.0717(5) 0.4047(10) 0.4701(7)
C50_3 C 0.0926(5) 0.4724(11) 0.4523(7)
C52_3 C 0.0176(5) 0.2157(10) 0.5208(7)
H23_3 H 0.0292 0.1741 0.5321
C56_3 C 0.0172(5) 0.4679(10) 0.4464(8)
C58_3 C 0.1134(6) 0.4597(11) 0.4174(7)
H27_3 H 0.1168 0.4111 0.4064
C62_3 C 0.1043(6) 0.6063(11) 0.4545(7)
H29_3 H 0.1017 0.6532 0.4683
C63_3 C 0.1313(5) 0.5232(11) 0.3963(8)
H30_3 H 0.1469 0.5152 0.3726
C65_3 C 0.1382(6) 0.0255(11) 0.5801(7)
C66_3 C 0.0885(7) 0.5366(14) 0.4731(8)
H32_3 H 0.0754 0.5391 0.5000
Cs6_2 Cs 0.12969(4) 0.83773(8) 0.49516(4)
O46_2 O 0.1510(4) 0.7122(7) 0.2621(4)
O51_2 O 0.1581(3) 0.8740(6) 0.3988(3)
H65_3 H 0.0309753 0.512232 0.428355
C3_2 C 0.2133(5) 0.7616(9) 0.4729(5)
H2_3 H 0.2062 0.8044 0.4571
C4_3 C 0.2256(5) 0.7673(9) 0.5200(6)
C5_3 C 0.1810(5) 0.2823(9) 0.5401(5)
C7_3 C 0.1783(4) 0.2165(8) 0.5128(5)
H3_3 H 0.1731 0.1712 0.5274
C8_3 C 0.1933(4) 0.2802(9) 0.4438(5)
C9_3 C 0.1832(5) 0.2169(9) 0.4648(5)
C10_3 C 0.1881(4) 0.3485(7) 0.5200(5)
C11_3 C 0.1576(5) 0.2337(10) 0.7363(6)
C12_3 C 0.2365(5) 0.6351(9) 0.5212(5)
H4_3 H 0.2459 0.5946 0.5371
C13_3 C 0.2069(4) 0.4174(8) 0.4492(5)
C14_3 C 0.2264(5) 0.5491(9) 0.4054(5)
H5_3 H 0.2335 0.5931 0.3907
C15_3 C 0.1997(5) 0.4821(9) 0.5238(5)
H6_3 H 0.1994 0.5262 0.5412
C16_3 C 0.1963(5) 0.3502(8) 0.4714(5)
C17_3 C 0.2087(5) 0.4855(8) 0.4740(5)
C18_3 C 0.2184(5) 0.5541(8) 0.4527(5)
C19_3 C 0.2214(5) 0.6268(9) 0.4749(5)
C20_3 C 0.2359(6) 0.7102(11) 0.5405(6)
H7_3 H 0.2439 0.7162 0.5707
C21_3 C 0.1922(5) 0.4183(9) 0.5436(5)
H8_3 H 0.1893 0.4184 0.5757
C22_3 C 0.2121(5) 0.6919(8) 0.4515(5)
H9_3 H 0.2049 0.6886 0.4208
O7_2 O 0.1510(4) 0.2878(7) 0.7621(4)
O9_2 O 0.1500(4) 0.9721(7) 0.5550(4)
O11_3 O 0.2372(3) 0.8497(6) 0.5810(4)
O12_3 O 0.1728(3) 0.8678(6) 0.6273(4)
O14_2 O 0.2008(3) 0.8862(6) 0.5312(3)
C24_3 C 0.2728(5) 0.5314(8) 0.1931(5)
C25_3 C 0.2339(4) 0.4921(7) 0.3294(6)
C27_3 C 0.2138(5) 0.4203(9) 0.3993(5)
C28_3 C 0.2247(4) 0.4858(9) 0.3790(5)
C31_3 C 0.1651(5) 0.2461(9) 0.6861(5)
C32_3 C 0.2019(5) 0.2847(9) 0.3956(5)
H10_3 H 0.2006 0.2415 0.3775
C34_3 C 0.1509(6) 0.3114(10) 0.6655(6)
H12_3 H 0.1399 0.3476 0.6833
C35_3 C 0.2735(5) 0.4630(8) 0.2697(5)
H13_3 H 0.2920 0.4354 0.2590
C36_3 C 0.1882(4) 0.2066(8) 0.6126(6)
H14_3 H 0.2012 0.1722 0.5960
C38_3 C 0.1543(5) 0.3190(9) 0.6177(5)
H16_3 H 0.1427 0.3578 0.6030
C40_3 C 0.2582(5) 0.5162(8) 0.2402(5)
C41_3 C 0.1747(5) 0.2696(9) 0.5902(5)
C42_3 C 0.2622(5) 0.4514(8) 0.3125(5)
H18_3 H 0.2728 0.4164 0.3316
C45_3 C 0.1897(4) 0.0777(9) 0.4579(5)
H20_3 H 0.2031 0.0797 0.4845
C48_3 C 0.1820(5) 0.1952(10) 0.6606(5)
H21_3 H 0.1899 0.1515 0.6748
C49_3 C 0.1784(5) 0.1427(9) 0.4407(5)
C51_3 C 0.2119(5) 0.3500(8) 0.3755(5)
H22_3 H 0.2179 0.3490 0.3443
C53_3 C 0.2219(5) 0.8395(9) 0.5444(5)
C54_3 C 0.2190(5) 0.5451(9) 0.3012(5)
H24_3 H 0.2006 0.5725 0.3121
C55_3 C 0.1527(6) 0.0723(9) 0.3800(6)
H25_3 H 0.1389 0.0717 0.3538
C57_3 C 0.1593(5) 0.1357(11) 0.3994(5)
H26_3 H 0.1511 0.1793 0.3856
C59_3 C 0.1650(5) 0.0066(10) 0.3961(5)
C60_3 C 0.2311(6) 0.5583(9) 0.2568(6)
H28_3 H 0.2212 0.5951 0.2382
C64_3 C 0.1831(5) 0.0080(10) 0.4393(5)
U9_2 U 0.15260(2) 0.21324(3) 0.83306(2)
C61_3 C 0.1586(5) 0.9294(9) 0.3748(5)
H31_3 H 0.1900 0.9639 0.4540
O17_3 O 0.8516(4) 0.6536(6) 0.3483(4)
C67_3 C 0.8882(5) 0.0934(11) 0.5139(5)
H33_3 H 0.8805 0.0550 0.4946
C68_3 C 0.8625(5) 0.6589(9) 0.3888(5)
C69_3 C 0.9296(5) 0.2806(10) 0.5045(7)
C70_3 C 0.9638(5) 0.2803(10) 0.5033(8)
O18_2 O 0.8619(4) 0.7245(7) 0.4069(4)
C71_3 C 0.8824(5) 0.0891(9) 0.5646(6)
C72_3 C 0.8753(5) 0.5941(9) 0.4117(6)
C73_3 C 0.9125(5) 0.2105(11) 0.5234(7)
C74_3 C 0.9044(5) 0.1529(10) 0.4958(6)
H34_3 H 0.9100 0.1539 0.4644
C75_3 C 0.9064(5) 0.2105(9) 0.5730(6)
H35_3 H 0.9128 0.2509 0.5916
C76_3 C 0.8910(5) 0.1492(10) 0.5911(7)
H36_3 H 0.8862 0.1483 0.6227
C77_3 C 0.9642(5) 0.4082(9) 0.4707(6)
C78_3 C 0.9116(5) 0.3416(9) 0.4875(6)
H37_3 H 0.8880 0.3404 0.4876
C79_3 C 0.9827(4) 0.3431(11) 0.4885(7)
C80_3 C 0.9283(5) 0.4047(10) 0.4701(7)
C81_3 C 0.9074(5) 0.4724(11) 0.4523(7)
C82_3 C 0.9824(5) 0.2157(10) 0.5208(7)
H38_3 H 0.9708 0.1741 0.5321
C83_3 C 0.9828(5) 0.4679(10) 0.4464(8)
C84_3 C 0.8866(6) 0.4597(11) 0.4174(7)
H39_3 H 0.8832 0.4111 0.4064
C85_3 C 0.8957(6) 0.6063(11) 0.4545(7)
H40_3 H 0.8983 0.6532 0.4683
C86_3 C 0.8687(5) 0.5232(11) 0.3963(8)
H41_3 H 0.8531 0.5152 0.3726
C87_3 C 0.8618(6) 0.0255(11) 0.5801(7)
C88_3 C 0.9115(7) 0.5366(14) 0.4731(8)
H42_3 H 0.9246 0.5391 0.5000
U4_2 U 0.84740(2) 0.78676(3) 0.33306(2)
O24_3 O 0.8038(3) 0.7767(6) 0.3370(4)
O29_3 O 0.8921(3) 0.7973(5) 0.3294(5)
O32_3 O 0.7801(4) 0.0228(6) 0.5871(4)
Cs8_2 Cs 0.87031(4) 0.83773(8) 0.49516(4)
O45_2 O 0.8490(4) 0.7122(7) 0.2621(4)
O52_2 O 0.8419(3) 0.8740(6) 0.3988(3)
H66_3 H 0.969025 0.512232 0.428355
O20_2 O 0.8500(4) 0.9721(7) 0.5550(4)
C89_2 C 0.7867(5) 0.7616(9) 0.4729(5)
H43_3 H 0.7938 0.8044 0.4571
C90_3 C 0.7744(5) 0.7673(9) 0.5200(6)
C91_3 C 0.8190(5) 0.2823(9) 0.5401(5)
C92_3 C 0.8217(4) 0.2165(8) 0.5128(5)
H44_3 H 0.8269 0.1712 0.5274
C93_3 C 0.8067(4) 0.2802(9) 0.4438(5)
C94_3 C 0.8168(5) 0.2169(9) 0.4648(5)
C95_3 C 0.8119(4) 0.3485(7) 0.5200(5)
C96_3 C 0.8424(5) 0.2337(10) 0.7363(6)
C97_3 C 0.7635(5) 0.6351(9) 0.5212(5)
H45_3 H 0.7541 0.5946 0.5371
C98_3 C 0.7931(4) 0.4174(8) 0.4492(5)
C99_3 C 0.7736(5) 0.5491(9) 0.4054(5)
H46_3 H 0.7665 0.5931 0.3907
C100_3 C 0.8003(5) 0.4821(9) 0.5238(5)
H47_3 H 0.8006 0.5262 0.5412
C101_3 C 0.8037(5) 0.3502(8) 0.4714(5)
C102_3 C 0.7913(5) 0.4855(8) 0.4740(5)
C103_3 C 0.7816(5) 0.5541(8) 0.4527(5)
C104_3 C 0.7786(5) 0.6268(9) 0.4749(5)
C105_3 C 0.7641(6) 0.7102(11) 0.5405(6)
H48_3 H 0.7561 0.7162 0.5707
C106_3 C 0.8078(5) 0.4183(9) 0.5436(5)
H49_3 H 0.8107 0.4184 0.5757
C107_3 C 0.7879(5) 0.6919(8) 0.4515(5)
H50_3 H 0.7951 0.6886 0.4208
O25_2 O 0.8490(4) 0.2878(7) 0.7621(4)
O27_3 O 0.7628(3) 0.8497(6) 0.5810(4)
O28_3 O 0.8272(3) 0.8678(6) 0.6273(4)
O30_2 O 0.7992(3) 0.8862(6) 0.5312(3)
C108_3 C 0.7272(5) 0.5314(8) 0.1931(5)
C109_3 C 0.7661(4) 0.4921(7) 0.3294(6)
C110_3 C 0.7862(5) 0.4203(9) 0.3993(5)
C111_3 C 0.7753(4) 0.4858(9) 0.3790(5)
C112_3 C 0.8349(5) 0.2461(9) 0.6861(5)
C113_3 C 0.7981(5) 0.2847(9) 0.3956(5)
H51_3 H 0.7994 0.2415 0.3775
C114_3 C 0.8491(6) 0.3114(10) 0.6655(6)
H52_3 H 0.8601 0.3476 0.6833
C115_3 C 0.7265(5) 0.4630(8) 0.2697(5)
H53_3 H 0.7080 0.4354 0.2590
C116_3 C 0.8118(4) 0.2066(8) 0.6126(6)
H54_3 H 0.7988 0.1722 0.5960
C117_3 C 0.8457(5) 0.3190(9) 0.6177(5)
H55_3 H 0.8573 0.3578 0.6030
C118_3 C 0.7418(5) 0.5162(8) 0.2402(5)
C119_3 C 0.8253(5) 0.2696(9) 0.5902(5)
C120_3 C 0.7378(5) 0.4514(8) 0.3125(5)
H56_3 H 0.7272 0.4164 0.3316
C121_3 C 0.8103(4) 0.0777(9) 0.4579(5)
H57_3 H 0.7969 0.0797 0.4845
C122_3 C 0.8180(5) 0.1952(10) 0.6606(5)
H58_3 H 0.8101 0.1515 0.6748
C123_3 C 0.8216(5) 0.1427(9) 0.4407(5)
C124_3 C 0.7881(5) 0.3500(8) 0.3755(5)
H59_3 H 0.7821 0.3490 0.3443
C125_3 C 0.7781(5) 0.8395(9) 0.5444(5)
C126_3 C 0.7810(5) 0.5451(9) 0.3012(5)
H60_3 H 0.7994 0.5725 0.3121
C127_3 C 0.8473(6) 0.0723(9) 0.3800(6)
H61_3 H 0.8611 0.0717 0.3538
C128_3 C 0.8407(5) 0.1357(11) 0.3994(5)
H62_3 H 0.8489 0.1793 0.3856
C129_3 C 0.8350(5) 0.0066(10) 0.3961(5)
C130_3 C 0.7689(6) 0.5583(9) 0.2568(6)
H63_3 H 0.7788 0.5951 0.2382
C132_3 C 0.8169(5) 0.0080(10) 0.4393(5)
U8_2 U 0.84740(2) 0.21324(3) 0.83306(2)
C131_3 C 0.8414(5) 0.9294(9) 0.3748(5)
H64_3 H 0.8100 0.9639 0.4540
O50_2 O 0.1500(4) 0.0279(7) 0.0550(4)
O54_2 O 0.2008(3) 0.1138(6) 0.0312(3)
Cs3_2 Cs 0.12969(4) 0.16227(8) 0.99516(4)
O26_2 O 0.1581(3) 0.1260(6) 0.8988(3)
C131_4 C 0.1586(5) 0.0706(9) 0.8748(5)
H64_4 H 0.1900 0.0361 0.9540
C134_2 C 0.2133(5) 0.2384(9) 0.9729(5)
O44_2 O 0.1381(4) 0.2755(7) 0.9069(4)
C90_4 C 0.2256(5) 0.2327(9) 0.0200(6)
C91_4 C 0.1810(5) 0.7177(9) 0.0401(5)
C92_4 C 0.1783(4) 0.7835(8) 0.0128(5)
H44_4 H 0.1731 0.8288 0.0274
C95_4 C 0.1881(4) 0.6515(7) 0.0200(5)
C96_4 C 0.1576(5) 0.7663(10) 0.2363(6)
C97_4 C 0.2365(5) 0.3649(9) 0.0212(5)
H45_4 H 0.2459 0.4054 0.0371
C100_4 C 0.1997(5) 0.5179(9) 0.0238(5)
H47_4 H 0.1994 0.4738 0.0412
C105_4 C 0.2359(6) 0.2898(11) 0.0405(6)
H48_4 H 0.2439 0.2838 0.0707
C106_4 C 0.1922(5) 0.5817(9) 0.0436(5)
H49_4 H 0.1893 0.5816 0.0757
O27_4 O 0.2372(3) 0.1503(6) 0.0810(4)
O28_4 O 0.1728(3) 0.1322(6) 0.1273(4)
C112_4 C 0.1651(5) 0.7539(9) 0.1861(5)
C114_4 C 0.1509(6) 0.6886(10) 0.1655(6)
H52_4 H 0.1399 0.6524 0.1833
C116_4 C 0.1882(4) 0.7934(8) 0.1126(6)
H54_4 H 0.2012 0.8278 0.0960
C117_4 C 0.1543(5) 0.6810(9) 0.1177(5)
H55_4 H 0.1427 0.6422 0.1030
C119_4 C 0.1747(5) 0.7304(9) 0.0902(5)
C122_4 C 0.1820(5) 0.8048(10) 0.1606(5)
H58_4 H 0.1899 0.8485 0.1748
C125_4 C 0.2219(5) 0.1605(9) 0.0444(5)
H43_4 H 0.2062 0.1956 0.9571
C93_4 C 0.1933(4) 0.7198(9) 0.9438(5)
C94_4 C 0.1832(5) 0.7831(9) 0.9648(5)
C98_4 C 0.2069(4) 0.5826(8) 0.9492(5)
C99_4 C 0.2264(5) 0.4509(9) 0.9054(5)
H46_4 H 0.2335 0.4069 0.8907
C101_4 C 0.1963(5) 0.6498(8) 0.9714(5)
C102_4 C 0.2087(5) 0.5145(8) 0.9740(5)
C103_4 C 0.2184(5) 0.4459(8) 0.9527(5)
C104_4 C 0.2214(5) 0.3732(9) 0.9749(5)
C107_4 C 0.2121(5) 0.3081(8) 0.9515(5)
H50_4 H 0.2049 0.3114 0.9208
C108_4 C 0.2728(5) 0.4686(8) 0.6931(5)
C109_4 C 0.2339(4) 0.5079(7) 0.8294(6)
C110_4 C 0.2138(5) 0.5797(9) 0.8993(5)
C111_4 C 0.2247(4) 0.5142(9) 0.8790(5)
C113_4 C 0.2019(5) 0.7153(9) 0.8956(5)
H51_4 H 0.2006 0.7585 0.8775
C115_4 C 0.2735(5) 0.5370(8) 0.7697(5)
H53_4 H 0.2920 0.5646 0.7590
C118_4 C 0.2582(5) 0.4838(8) 0.7402(5)
C120_4 C 0.2622(5) 0.5486(8) 0.8125(5)
H56_4 H 0.2728 0.5836 0.8316
C121_4 C 0.1897(4) 0.9223(9) 0.9579(5)
H57_4 H 0.2031 0.9203 0.9845
C123_4 C 0.1784(5) 0.8573(9) 0.9407(5)
C124_4 C 0.2119(5) 0.6500(8) 0.8755(5)
H59_4 H 0.2179 0.6510 0.8443
C126_4 C 0.2190(5) 0.4549(9) 0.8012(5)
H60_4 H 0.2006 0.4275 0.8121
C127_4 C 0.1527(6) 0.9277(9) 0.8800(6)
H61_4 H 0.1389 0.9283 0.8538
C128_4 C 0.1593(5) 0.8643(11) 0.8994(5)
H62_4 H 0.1511 0.8207 0.8856
C129_4 C 0.1650(5) 0.9934(10) 0.8961(5)
C130_4 C 0.2311(6) 0.4417(9) 0.7568(6)
H63_4 H 0.2212 0.4049 0.7382
C132_4 C 0.1831(5) 0.9920(10) 0.9393(5)
C67_4 C 0.1118(5) 0.9066(11) 0.0139(5)
C69_4 C 0.0704(5) 0.7194(10) 0.0045(7)
C70_4 C 0.0362(5) 0.7197(10) 0.0033(8)
C71_4 C 0.1176(5) 0.9109(9) 0.0646(6)
C73_4 C 0.0875(5) 0.7895(11) 0.0234(7)
C75_4 C 0.0936(5) 0.7895(9) 0.0730(6)
H35_4 H 0.0872 0.7491 0.0916
C76_4 C 0.1090(5) 0.8508(10) 0.0911(7)
H36_4 H 0.1138 0.8517 0.1227
C82_4 C 0.0176(5) 0.7843(10) 0.0208(7)
H38_4 H 0.0292 0.8259 0.0321
C87_4 C 0.1382(6) 0.9745(11) 0.0801(7)
H42_4 H 0.0754 0.4609 -0.0000
O32_4 O 0.2199(4) 0.9772(6) 0.0871(4)
O17_4 O 0.1484(4) 0.3464(6) 0.8483(4)
H33_4 H 0.1195 0.9450 0.9946
C68_4 C 0.1375(5) 0.3411(9) 0.8888(5)
C72_4 C 0.1247(5) 0.4059(9) 0.9117(6)
C74_4 C 0.0956(5) 0.8471(10) 0.9958(6)
H34_4 H 0.0900 0.8461 0.9644
C77_4 C 0.0358(5) 0.5918(9) 0.9707(6)
C78_4 C 0.0884(5) 0.6584(9) 0.9875(6)
H37_4 H 0.1120 0.6596 0.9876
C79_4 C 0.0173(4) 0.6569(11) 0.9885(7)
C80_4 C 0.0717(5) 0.5953(10) 0.9701(7)
C81_4 C 0.0926(5) 0.5276(11) 0.9523(7)
C83_4 C 0.0172(5) 0.5321(10) 0.9464(8)
C84_4 C 0.1134(6) 0.5403(11) 0.9174(7)
H39_4 H 0.1168 0.5889 0.9064
C85_4 C 0.1043(6) 0.3937(11) 0.9545(7)
H40_4 H 0.1017 0.3468 0.9683
C86_4 C 0.1313(5) 0.4768(11) 0.8963(8)
H41_4 H 0.1469 0.4848 0.8726
C88_4 C 0.0885(7) 0.4634(14) 0.9731(8)
H42_5 H 0.0754 0.4609 1.0000
O24_4 O 0.1962(3) 0.2233(6) 0.8370(4)
O29_4 O 0.1079(3) 0.2027(5) 0.8294(5)
H66_4 H 0.0309753 0.487768 0.928355
O49_2 O 0.8500(4) 0.0279(7) 0.0550(4)
O53_2 O 0.7992(3) 0.1138(6) 0.0312(3)
Cs1_2 Cs 0.87031(4) 0.16227(8) 0.99516(4)
O10_2 O 0.8419(3) 0.1260(6) 0.8988(3)
C61_4 C 0.8414(5) 0.0706(9) 0.8748(5)
H31_4 H 0.8100 0.0361 0.9540
C133_2 C 0.7867(5) 0.2384(9) 0.9729(5)
O43_2 O 0.8619(4) 0.2755(7) 0.9069(4)
C4_4 C 0.7744(5) 0.2327(9) 0.0200(6)
C5_4 C 0.8190(5) 0.7177(9) 0.0401(5)
C7_4 C 0.8217(4) 0.7835(8) 0.0128(5)
H3_4 H 0.8269 0.8288 0.0274
C10_4 C 0.8119(4) 0.6515(7) 0.0200(5)
C11_4 C 0.8424(5) 0.7663(10) 0.2363(6)
C12_4 C 0.7635(5) 0.3649(9) 0.0212(5)
H4_4 H 0.7541 0.4054 0.0371
C15_4 C 0.8003(5) 0.5179(9) 0.0238(5)
H6_4 H 0.8006 0.4738 0.0412
C20_4 C 0.7641(6) 0.2898(11) 0.0405(6)
H7_4 H 0.7561 0.2838 0.0707
C21_4 C 0.8078(5) 0.5817(9) 0.0436(5)
H8_4 H 0.8107 0.5816 0.0757
O11_4 O 0.7628(3) 0.1503(6) 0.0810(4)
O12_4 O 0.8272(3) 0.1322(6) 0.1273(4)
C31_4 C 0.8349(5) 0.7539(9) 0.1861(5)
C34_4 C 0.8491(6) 0.6886(10) 0.1655(6)
H12_4 H 0.8601 0.6524 0.1833
C36_4 C 0.8118(4) 0.7934(8) 0.1126(6)
H14_4 H 0.7988 0.8278 0.0960
C38_4 C 0.8457(5) 0.6810(9) 0.1177(5)
H16_4 H 0.8573 0.6422 0.1030
C41_4 C 0.8253(5) 0.7304(9) 0.0902(5)
C48_4 C 0.8180(5) 0.8048(10) 0.1606(5)
H21_4 H 0.8101 0.8485 0.1748
C53_4 C 0.7781(5) 0.1605(9) 0.0444(5)
H2_4 H 0.7938 0.1956 0.9571
C8_4 C 0.8067(4) 0.7198(9) 0.9438(5)
C9_4 C 0.8168(5) 0.7831(9) 0.9648(5)
C13_4 C 0.7931(4) 0.5826(8) 0.9492(5)
C14_4 C 0.7736(5) 0.4509(9) 0.9054(5)
H5_4 H 0.7665 0.4069 0.8907
C16_4 C 0.8037(5) 0.6498(8) 0.9714(5)
C17_4 C 0.7913(5) 0.5145(8) 0.9740(5)
C18_4 C 0.7816(5) 0.4459(8) 0.9527(5)
C19_4 C 0.7786(5) 0.3732(9) 0.9749(5)
C22_4 C 0.7879(5) 0.3081(8) 0.9515(5)
H9_4 H 0.7951 0.3114 0.9208
C24_4 C 0.7272(5) 0.4686(8) 0.6931(5)
C25_4 C 0.7661(4) 0.5079(7) 0.8294(6)
C27_4 C 0.7862(5) 0.5797(9) 0.8993(5)
C28_4 C 0.7753(4) 0.5142(9) 0.8790(5)
C32_4 C 0.7981(5) 0.7153(9) 0.8956(5)
H10_4 H 0.7994 0.7585 0.8775
C35_4 C 0.7265(5) 0.5370(8) 0.7697(5)
H13_4 H 0.7080 0.5646 0.7590
C40_4 C 0.7418(5) 0.4838(8) 0.7402(5)
C42_4 C 0.7378(5) 0.5486(8) 0.8125(5)
H18_4 H 0.7272 0.5836 0.8316
C45_4 C 0.8103(4) 0.9223(9) 0.9579(5)
H20_4 H 0.7969 0.9203 0.9845
C49_4 C 0.8216(5) 0.8573(9) 0.9407(5)
C51_4 C 0.7881(5) 0.6500(8) 0.8755(5)
H22_4 H 0.7821 0.6510 0.8443
C54_4 C 0.7810(5) 0.4549(9) 0.8012(5)
H24_4 H 0.7994 0.4275 0.8121
C55_4 C 0.8473(6) 0.9277(9) 0.8800(6)
H25_4 H 0.8611 0.9283 0.8538
C57_4 C 0.8407(5) 0.8643(11) 0.8994(5)
H26_4 H 0.8489 0.8207 0.8856
C59_4 C 0.8350(5) 0.9934(10) 0.8961(5)
C60_4 C 0.7689(6) 0.4417(9) 0.7568(6)
H28_4 H 0.7788 0.4049 0.7382
C64_4 C 0.8169(5) 0.9920(10) 0.9393(5)
C1_4 C 0.8882(5) 0.9066(11) 0.0139(5)
C6_4 C 0.9296(5) 0.7194(10) 0.0045(7)
C23_4 C 0.9638(5) 0.7197(10) 0.0033(8)
O16_4 O 0.7801(4) 0.9772(6) 0.0871(4)
C26_4 C 0.8824(5) 0.9109(9) 0.0646(6)
C30_4 C 0.9125(5) 0.7895(11) 0.0234(7)
C37_4 C 0.9064(5) 0.7895(9) 0.0730(6)
H15_4 H 0.9128 0.7491 0.0916
C39_4 C 0.8910(5) 0.8508(10) 0.0911(7)
H17_4 H 0.8862 0.8517 0.1227
C52_4 C 0.9824(5) 0.7843(10) 0.0208(7)
H23_4 H 0.9708 0.8259 0.0321
C65_4 C 0.8618(6) 0.9745(11) 0.0801(7)
H32_4 H 0.9246 0.4609 -0.0000
O1_4 O 0.8516(4) 0.3464(6) 0.8483(4)
H1_4 H 0.8805 0.9450 0.9946
C2_4 C 0.8625(5) 0.3411(9) 0.8888(5)
O6_4 O 0.8038(3) 0.2233(6) 0.8370(4)
O13_4 O 0.8921(3) 0.2027(5) 0.8294(5)
C29_4 C 0.8753(5) 0.4059(9) 0.9117(6)
C33_4 C 0.9044(5) 0.8471(10) 0.9958(6)
H11_4 H 0.9100 0.8461 0.9644
C43_4 C 0.9642(5) 0.5918(9) 0.9707(6)
C44_4 C 0.9116(5) 0.6584(9) 0.9875(6)
H19_4 H 0.8880 0.6596 0.9876
C46_4 C 0.9827(4) 0.6569(11) 0.9885(7)
C47_4 C 0.9283(5) 0.5953(10) 0.9701(7)
C50_4 C 0.9074(5) 0.5276(11) 0.9523(7)
C56_4 C 0.9828(5) 0.5321(10) 0.9464(8)
C58_4 C 0.8866(6) 0.5403(11) 0.9174(7)
H27_4 H 0.8832 0.5889 0.9064
C62_4 C 0.8957(6) 0.3937(11) 0.9545(7)
H29_4 H 0.8983 0.3468 0.9683
C63_4 C 0.8687(5) 0.4768(11) 0.8963(8)
H30_4 H 0.8531 0.4848 0.8726
C66_4 C 0.9115(7) 0.4634(14) 0.9731(8)
H32_5 H 0.9246 0.4609 1.0000
H65_4 H 0.969025 0.487768 0.928355
H32_6 H 0.4246 0.9609 -0.0000
H42_6 H 0.5754 0.9609 -0.0000
loop_
_geom_bond_atom_site_label_1
_geom_bond_atom_site_label_2
_geom_bond_site_symmetry_1
_geom_bond_site_symmetry_2
U2 O1 1_555 1_555
O1 C2 1_555 1_555
C2 O5 1_555 1_555
O5 U2 1_555 1_555
O6 U2 1_555 1_555
O13 U2 1_555 1_555
C29 C2 1_555 1_555
C62 C29 1_555 1_555
H29 C62 1_555 1_555
C63 C29 1_555 1_555
H30 C63 1_555 1_555
H32 C66 1_555 1_555
O17 C68 1_555 1_555
C68 O18 1_555 1_555
O18 U4 1_555 1_555
C72 C68 1_555 1_555
C85 C72 1_555 1_555
H40 C85 1_555 1_555
C86 C72 1_555 1_555
H41 C86 1_555 1_555
H42 C88 1_555 1_555
U4 O17 1_555 1_555
O24 U4 1_555 1_555
O29 U4 1_555 1_555
Cs6 O5 1_555 1_555
Cs8 O18 1_555 1_555
O35 U4 1_555 1_555
O36 U2 1_555 1_555
O39 U2 1_555 1_555
O40 U4 1_555 1_555
O45 U4 1_555 1_555
O46 U2 1_555 1_555
O51 U2 1_555 1_555
O52 U4 1_555 1_555
C62 C66 1_555 1_555
C85 C88 1_555 1_555
Cs6 O51 1_555 1_555
Cs8 O52 1_555 1_555
U1 O8 1_555 1_555
C1 H1 1_555 1_555
O2 C24 1_555 1_555
C3 H2 1_555 1_555
C4 C3 1_555 1_555
C6 C23 1_555 1_555
C12 H4 1_555 1_555
C14 H5 1_555 1_555
C18 C14 1_555 1_555
C19 C12 1_555 1_555
C20 C4 1_555 1_555
H7 C20 1_555 1_555
C22 C3 1_555 1_555
H9 C22 1_555 1_555
C23 C46 1_555 1_555
O8 C65 1_555 1_555
O9 U1 1_555 1_555
O11 U1 1_555 1_555
O12 U1 1_555 1_555
O14 U1 1_555 1_555
O15 C24 1_555 1_555
O16 U1 1_555 1_555
C24 C40 1_555 1_555
C26 C1 1_555 1_555
C30 C6 1_555 1_555
C33 C1 1_555 1_555
H11 C33 1_555 1_555
C37 C30 1_555 1_555
H15 C37 1_555 1_555
C39 C26 1_555 1_555
H17 C39 1_555 1_555
C43 C46 1_555 1_555
C44 C6 1_555 1_555
H19 C44 1_555 1_555
C46 C79 1_555 1_555
C47 C43 1_555 1_555
C50 C47 1_555 1_555
C52 C23 1_555 1_555
H23 C52 1_555 1_555
C53 C4 1_555 1_555
H24 C54 1_555 1_555
C56 C43 1_555 1_555
C58 C50 1_555 1_555
H27 C58 1_555 1_555
C60 C40 1_555 1_555
H28 C60 1_555 1_555
C65 O9 1_555 1_555
C67 H33 1_555 1_555
C69 C70 1_555 1_555
C70 C79 1_555 1_555
O19 C87 1_555 1_555
O20 C87 1_555 1_555
C71 C67 1_555 1_555
C73 C69 1_555 1_555
C74 C67 1_555 1_555
H34 C74 1_555 1_555
C75 C73 1_555 1_555
H35 C75 1_555 1_555
C76 C71 1_555 1_555
H36 C76 1_555 1_555
C77 C79 1_555 1_555
C78 C69 1_555 1_555
H37 C78 1_555 1_555
C80 C77 1_555 1_555
C81 C80 1_555 1_555
C82 C52 1_555 1_555
H38 C82 1_555 1_555
C83 C56 1_555 1_555
C84 C81 1_555 1_555
H39 C84 1_555 1_555
C87 C71 1_555 1_555
U3 O19 1_555 1_555
O21 C108 1_555 1_555
C89 H43 1_555 1_555
C90 C89 1_555 1_555
C97 H45 1_555 1_555
C99 H46 1_555 1_555
C103 C99 1_555 1_555
C104 C97 1_555 1_555
C105 C90 1_555 1_555
H48 C105 1_555 1_555
C107 C89 1_555 1_555
H50 C107 1_555 1_555
O27 U3 1_555 1_555
O28 U3 1_555 1_555
O30 U3 1_555 1_555
O31 C108 1_555 1_555
O32 U3 1_555 1_555
C108 C118 1_555 1_555
C125 C90 1_555 1_555
H60 C126 1_555 1_555
C130 C118 1_555 1_555
H63 C130 1_555 1_555
U5 O2 1_555 1_555
U6 O21 1_555 1_555
Cs6 C3 1_555 1_555
Cs8 O20 1_555 1_555
Cs11 O8 1_555 1_555
Cs13 O19 1_555 1_555
O33 U1 1_555 1_555
O34 U3 1_555 1_555
O55 U1 1_555 1_555
O56 U3 1_555 1_555
C12 C20 1_555 1_555
C18 C19 1_555 1_555
C19 C22 1_555 1_555
O9 Cs6 1_555 1_555
O11 C53 1_555 1_555
O14 C53 1_555 1_555
O14 Cs6 1_555 1_555
O15 U5 1_555 1_555
C26 C65 1_555 1_555
C30 C33 1_555 1_555
C37 C39 1_555 1_555
C44 C47 1_555 1_555
C54 C60 1_555 1_555
C70 C82 1_555 1_555
O20 U3 1_555 1_555
C73 C74 1_555 1_555
C75 C76 1_555 1_555
C77 C83 1_555 1_555
C78 C80 1_555 1_555
C89 Cs8 1_555 1_555
C97 C105 1_555 1_555
C103 C104 1_555 1_555
C104 C107 1_555 1_555
O27 C125 1_555 1_555
O30 C125 1_555 1_555
O30 Cs8 1_555 1_555
O31 U6 1_555 1_555
C126 C130 1_555 1_555
Cs11 O33 1_555 1_555
Cs13 O34 1_555 1_555
O3 C11 1_555 1_555
C5 C7 1_555 1_555
C7 H3 1_555 1_555
C8 C9 1_555 1_555
C9 C7 1_555 1_555
C10 C5 1_555 1_555
C11 O7 1_555 1_555
C13 C16 1_555 1_555
C16 C8 1_555 1_555
C17 C13 1_555 1_555
C21 C10 1_555 1_555
H8 C21 1_555 1_555
O39 C61 1_555 1_555
O7 U9 1_555 1_555
O51 C61 1_555 1_555
C25 C28 1_555 1_555
C27 C13 1_555 1_555
C31 C11 1_555 1_555
C32 C8 1_555 1_555
H10 C32 1_555 1_555
C34 C31 1_555 1_555
H12 C34 1_555 1_555
C35 H13 1_555 1_555
C36 H14 1_555 1_555
C38 C34 1_555 1_555
H16 C38 1_555 1_555
C41 C5 1_555 1_555
C42 C25 1_555 1_555
H18 C42 1_555 1_555
C45 H20 1_555 1_555
C48 C31 1_555 1_555
H21 C48 1_555 1_555
C49 C9 1_555 1_555
C51 C27 1_555 1_555
H22 C51 1_555 1_555
C55 H25 1_555 1_555
C57 C49 1_555 1_555
H26 C57 1_555 1_555
C59 C55 1_555 1_555
C61 C59 1_555 1_555
C64 C45 1_555 1_555
H31 C64 1_555 1_555
O22 C96 1_555 1_555
C91 C92 1_555 1_555
C92 H44 1_555 1_555
C93 C94 1_555 1_555
C94 C92 1_555 1_555
C95 C91 1_555 1_555
C96 O25 1_555 1_555
C98 C101 1_555 1_555
C101 C93 1_555 1_555
C102 C98 1_555 1_555
C106 C95 1_555 1_555
H49 C106 1_555 1_555
O40 C131 1_555 1_555
O25 U8 1_555 1_555
O52 C131 1_555 1_555
C109 C111 1_555 1_555
C110 C98 1_555 1_555
C112 C96 1_555 1_555
C113 C93 1_555 1_555
H51 C113 1_555 1_555
C114 C112 1_555 1_555
H52 C114 1_555 1_555
C115 H53 1_555 1_555
C116 H54 1_555 1_555
C117 C114 1_555 1_555
H55 C117 1_555 1_555
C119 C91 1_555 1_555
C120 C109 1_555 1_555
H56 C120 1_555 1_555
C121 H57 1_555 1_555
C122 C112 1_555 1_555
H58 C122 1_555 1_555
C123 C94 1_555 1_555
C124 C110 1_555 1_555
H59 C124 1_555 1_555
C127 H61 1_555 1_555
C128 C123 1_555 1_555
H62 C128 1_555 1_555
C129 C127 1_555 1_555
C131 C129 1_555 1_555
C132 C121 1_555 1_555
H64 C132 1_555 1_555
U8 O22 1_555 1_555
U9 O3 1_555 1_555
Cs9 O40 1_555 1_555
Cs11 O3 1_555 1_555
Cs13 O22 1_555 1_555
Cs14 O39 1_555 1_555
O37 Cs2 1_555 1_555
O38 Cs4 1_555 1_555
O41 Cs4 1_555 1_555
O42 Cs2 1_555 1_555
O47 Cs2 1_555 1_555
O48 Cs4 1_555 1_555
C10 C16 1_555 1_555
C15 C17 1_555 1_555
C15 C21 1_555 1_555
C27 C28 1_555 1_555
C32 C51 1_555 1_555
C35 C42 1_555 1_555
C36 C41 1_555 1_555
C36 C48 1_555 1_555
C38 C41 1_555 1_555
C45 C49 1_555 1_555
C55 C57 1_555 1_555
C59 C64 1_555 1_555
C95 C101 1_555 1_555
C100 C102 1_555 1_555
C100 C106 1_555 1_555
C110 C111 1_555 1_555
C113 C124 1_555 1_555
C115 C120 1_555 1_555
C116 C119 1_555 1_555
C116 C122 1_555 1_555
C117 C119 1_555 1_555
C121 C123 1_555 1_555
C127 C128 1_555 1_555
C129 C132 1_555 1_555
O35 C11_2 1_555 1_555
C5_2 C7_2 1_555 1_555
C7_2 H3_2 1_555 1_555
C10_2 C5_2 1_555 1_555
C11_2 O45 1_555 1_555
C21_2 C10_2 1_555 1_555
H8_2 C21_2 1_555 1_555
C31_2 C11_2 1_555 1_555
C34_2 C31_2 1_555 1_555
H12_2 C34_2 1_555 1_555
C36_2 H14_2 1_555 1_555
C38_2 C34_2 1_555 1_555
H16_2 C38_2 1_555 1_555
C41_2 C5_2 1_555 1_555
C48_2 C31_2 1_555 1_555
H21_2 C48_2 1_555 1_555
O36 C96_2 1_555 1_555
C91_2 C92_2 1_555 1_555
C92_2 H44_2 1_555 1_555
C95_2 C91_2 1_555 1_555
C96_2 O46 1_555 1_555
C106_2 C95_2 1_555 1_555
H49_2 C106_2 1_555 1_555
C112_2 C96_2 1_555 1_555
C114_2 C112_2 1_555 1_555
H52_2 C114_2 1_555 1_555
C116_2 H54_2 1_555 1_555
C117_2 C114_2 1_555 1_555
H55_2 C117_2 1_555 1_555
C119_2 C91_2 1_555 1_555
C122_2 C112_2 1_555 1_555
H58_2 C122_2 1_555 1_555
Cs9 O35 1_555 1_555
Cs14 O36 1_555 1_555
C15_2 C21_2 1_555 1_555
C36_2 C41_2 1_555 1_555
C36_2 C48_2 1_555 1_555
C38_2 C41_2 1_555 1_555
C100_2 C106_2 1_555 1_555
C116_2 C119_2 1_555 1_555
C116_2 C122_2 1_555 1_555
C117_2 C119_2 1_555 1_555
Cs1 O10 1_555 1_555
C8_2 C9_2 1_555 1_555
C13_2 C16_2 1_555 1_555
C16_2 C8_2 1_555 1_555
C17_2 C13_2 1_555 1_555
O4 C61_2 1_555 1_555
O10 C61_2 1_555 1_555
C25_2 C28_2 1_555 1_555
C27_2 C13_2 1_555 1_555
C32_2 C8_2 1_555 1_555
H10_2 C32_2 1_555 1_555
C35_2 H13_2 1_555 1_555
C42_2 C25_2 1_555 1_555
H18_2 C42_2 1_555 1_555
C45_2 H20_2 1_555 1_555
C49_2 C9_2 1_555 1_555
C51_2 C27_2 1_555 1_555
H22_2 C51_2 1_555 1_555
C55_2 H25_2 1_555 1_555
C57_2 C49_2 1_555 1_555
H26_2 C57_2 1_555 1_555
C59_2 C55_2 1_555 1_555
C61_2 C59_2 1_555 1_555
C64_2 C45_2 1_555 1_555
H31_2 C64_2 1_555 1_555
Cs3 O26 1_555 1_555
C93_2 C94_2 1_555 1_555
C98_2 C101_2 1_555 1_555
C101_2 C93_2 1_555 1_555
C102_2 C98_2 1_555 1_555
O23 C131_2 1_555 1_555
O26 C131_2 1_555 1_555
C109_2 C111_2 1_555 1_555
C110_2 C98_2 1_555 1_555
C113_2 C93_2 1_555 1_555
H51_2 C113_2 1_555 1_555
C115_2 H53_2 1_555 1_555
C120_2 C109_2 1_555 1_555
H56_2 C120_2 1_555 1_555
C121_2 H57_2 1_555 1_555
C123_2 C94_2 1_555 1_555
C124_2 C110_2 1_555 1_555
H59_2 C124_2 1_555 1_555
C127_2 H61_2 1_555 1_555
C128_2 C123_2 1_555 1_555
H62_2 C128_2 1_555 1_555
C129_2 C127_2 1_555 1_555
C131_2 C129_2 1_555 1_555
C132_2 C121_2 1_555 1_555
H64_2 C132_2 1_555 1_555
U8 O4 1_555 1_555
U9 O23 1_555 1_555
Cs11 O23 1_555 1_555
Cs13 O4 1_555 1_555
C133 Cs1 1_555 1_555
C134 Cs3 1_555 1_555
O37_2 Cs2_2 1_555 1_555
O38_2 Cs4_2 1_555 1_555
O41_2 Cs4_2 1_555 1_555
O42_2 Cs2_2 1_555 1_555
O43 Cs1 1_555 1_555
O44 Cs3 1_555 1_555
O47_2 Cs2_2 1_555 1_555
O48_2 Cs4_2 1_555 1_555
O10 U8 1_555 1_555
C27_2 C28_2 1_555 1_555
C32_2 C51_2 1_555 1_555
C35_2 C42_2 1_555 1_555
C45_2 C49_2 1_555 1_555
C55_2 C57_2 1_555 1_555
C59_2 C64_2 1_555 1_555
O26 U9 1_555 1_555
C110_2 C111_2 1_555 1_555
C113_2 C124_2 1_555 1_555
C115_2 C120_2 1_555 1_555
C121_2 C123_2 1_555 1_555
C127_2 C128_2 1_555 1_555
C129_2 C132_2 1_555 1_555
U8 O43 1_555 1_555
U9 O44 1_555 1_555
U1_2 O8_2 1_555 1_555
C6_2 C23_2 1_555 1_555
C12_2 H4_2 1_555 1_555
C20_2 C4_2 1_555 1_555
H7_2 C20_2 1_555 1_555
O8_2 C65_2 1_555 1_555
O49 U1_2 1_555 1_555
O11_2 U1_2 1_555 1_555
O12_2 U1_2 1_555 1_555
O53 U1_2 1_555 1_555
O16_2 U1_2 1_555 1_555
C26_2 C1_2 1_555 1_555
C30_2 C6_2 1_555 1_555
C37_2 C30_2 1_555 1_555
H15_2 C37_2 1_555 1_555
C39_2 C26_2 1_555 1_555
H17_2 C39_2 1_555 1_555
C52_2 C23_2 1_555 1_555
H23_2 C52_2 1_555 1_555
C53_2 C4_2 1_555 1_555
C65_2 O49 1_555 1_555
C69_2 C70_2 1_555 1_555
O19_2 C87_2 1_555 1_555
O50 C87_2 1_555 1_555
C71_2 C67_2 1_555 1_555
C73_2 C69_2 1_555 1_555
C75_2 C73_2 1_555 1_555
H35_2 C75_2 1_555 1_555
C76_2 C71_2 1_555 1_555
H36_2 C76_2 1_555 1_555
C82_2 C52_2 1_555 1_555
H38_2 C82_2 1_555 1_555
C87_2 C71_2 1_555 1_555
U3_2 O19_2 1_555 1_555
C97_2 H45_2 1_555 1_555
C105_2 C90_2 1_555 1_555
H48_2 C105_2 1_555 1_555
O27_2 U3_2 1_555 1_555
O28_2 U3_2 1_555 1_555
O54 U3_2 1_555 1_555
O32_2 U3_2 1_555 1_555
C125_2 C90_2 1_555 1_555
Cs9 O8_2 1_555 1_555
Cs14 O19_2 1_555 1_555
O33_2 U1_2 1_555 1_555
O34_2 U3_2 1_555 1_555
O55_2 U1_2 1_555 1_555
O56_2 U3_2 1_555 1_555
C12_2 C20_2 1_555 1_555
O11_2 C53_2 1_555 1_555
O53 C53_2 1_555 1_555
C26_2 C65_2 1_555 1_555
C37_2 C39_2 1_555 1_555
C70_2 C82_2 1_555 1_555
O50 U3_2 1_555 1_555
C75_2 C76_2 1_555 1_555
C97_2 C105_2 1_555 1_555
O27_2 C125_2 1_555 1_555
O54 C125_2 1_555 1_555
Cs9 O33_2 1_555 1_555
Cs14 O34_2 1_555 1_555
O2_2 C24_2 1_555 1_555
C133 H2_2 1_555 1_555
C14_2 H5_2 1_555 1_555
C18_2 C14_2 1_555 1_555
C22_2 C133 1_555 1_555
H9_2 C22_2 1_555 1_555
O15_2 C24_2 1_555 1_555
C24_2 C40_2 1_555 1_555
H11_2 C33_2 1_555 1_555
C43_2 C46_2 1_555 1_555
H19_2 C44_2 1_555 1_555
C46_2 C79_2 1_555 1_555
C47_2 C43_2 1_555 1_555
C50_2 C47_2 1_555 1_555
H24_2 C54_2 1_555 1_555
C56_2 C43_2 1_555 1_555
C58_2 C50_2 1_555 1_555
H27_2 C58_2 1_555 1_555
C60_2 C40_2 1_555 1_555
H28_2 C60_2 1_555 1_555
H34_2 C74_2 1_555 1_555
C77_2 C79_2 1_555 1_555
H37_2 C78_2 1_555 1_555
C80_2 C77_2 1_555 1_555
C81_2 C80_2 1_555 1_555
C83_2 C56_2 1_555 1_555
C84_2 C81_2 1_555 1_555
H39_2 C84_2 1_555 1_555
O21_2 C108_2 1_555 1_555
C134 H43_2 1_555 1_555
C99_2 H46_2 1_555 1_555
C103_2 C99_2 1_555 1_555
C107_2 C134 1_555 1_555
H50_2 C107_2 1_555 1_555
O31_2 C108_2 1_555 1_555
C108_2 C118_2 1_555 1_555
H60_2 C126_2 1_555 1_555
C130_2 C118_2 1_555 1_555
H63_2 C130_2 1_555 1_555
U5_2 O2_2 1_555 1_555
U6_2 O21_2 1_555 1_555
C18_2 C19_2 1_555 1_555
C19_2 C22_2 1_555 1_555
O15_2 U5_2 1_555 1_555
C44_2 C47_2 1_555 1_555
C54_2 C60_2 1_555 1_555
C77_2 C83_2 1_555 1_555
C78_2 C80_2 1_555 1_555
C103_2 C104_2 1_555 1_555
C104_2 C107_2 1_555 1_555
O31_2 U6_2 1_555 1_555
C126_2 C130_2 1_555 1_555
U8 O1_2 1_555 1_555
O1_2 C2_2 1_555 1_555
C2_2 O43 1_555 1_555
O6_2 U8 1_555 1_555
O13_2 U8 1_555 1_555
C29_2 C2_2 1_555 1_555
C62_2 C29_2 1_555 1_555
H29_2 C62_2 1_555 1_555
C63_2 C29_2 1_555 1_555
H30_2 C63_2 1_555 1_555
H32_2 C66_2 1_555 1_555
O17_2 C68_2 1_555 1_555
C68_2 O44 1_555 1_555
C72_2 C68_2 1_555 1_555
C85_2 C72_2 1_555 1_555
H40_2 C85_2 1_555 1_555
C86_2 C72_2 1_555 1_555
H41_2 C86_2 1_555 1_555
H42_2 C88_2 1_555 1_555
U9 O17_2 1_555 1_555
O24_2 U9 1_555 1_555
O29_2 U9 1_555 1_555
C62_2 C66_2 1_555 1_555
C85_2 C88_2 1_555 1_555
U2_2 O1_3 1_555 1_555
O1_3 C2_3 1_555 1_555
C1_3 H1_3 1_555 1_555
C2_3 O5_2 1_555 1_555
C6_3 C23_3 1_555 1_555
C23_3 C46_3 1_555 1_555
O5_2 U2_2 1_555 1_555
O6_3 U2_2 1_555 1_555
O47_2 C65_3 1_555 1_555
O13_3 U2_2 1_555 1_555
C26_3 C1_3 1_555 1_555
C29_3 C2_3 1_555 1_555
C30_3 C6_3 1_555 1_555
C33_3 C1_3 1_555 1_555
H11_3 C33_3 1_555 1_555
C37_3 C30_3 1_555 1_555
H15_3 C37_3 1_555 1_555
C39_3 C26_3 1_555 1_555
H17_3 C39_3 1_555 1_555
C43_3 C46_3 1_555 1_555
C44_3 C6_3 1_555 1_555
H19_3 C44_3 1_555 1_555
C47_3 C43_3 1_555 1_555
C50_3 C47_3 1_555 1_555
C52_3 C23_3 1_555 1_555
H23_3 C52_3 1_555 1_555
C56_3 C43_3 1_555 1_555
C58_3 C50_3 1_555 1_555
H27_3 C58_3 1_555 1_555
C62_3 C29_3 1_555 1_555
H29_3 C62_3 1_555 1_555
C63_3 C29_3 1_555 1_555
H30_3 C63_3 1_555 1_555
C66_3 C50_3 1_555 1_555
H32_3 C66_3 1_555 1_555
Cs6_2 O5_2 1_555 1_555
O38 U2_2 1_555 1_555
O41 U2_2 1_555 1_555
O46_2 U2_2 1_555 1_555
O51_2 U2_2 1_555 1_555
C26_3 C65_3 1_555 1_555
C30_3 C33_3 1_555 1_555
C37_3 C39_3 1_555 1_555
C44_3 C47_3 1_555 1_555
C58_3 C63_3 1_555 1_555
C62_3 C66_3 1_555 1_555
Cs6_2 O51_2 1_555 1_555
C56_3 H65_3 1_555 1_555
O33_2 C24_3 1_555 1_555
C3_2 H2_3 1_555 1_555
C4_3 C3_2 1_555 1_555
O37_2 C11_3 1_555 1_555
C5_3 C7_3 1_555 1_555
C7_3 H3_3 1_555 1_555
C8_3 C9_3 1_555 1_555
C9_3 C7_3 1_555 1_555
C10_3 C5_3 1_555 1_555
C11_3 O7_2 1_555 1_555
C12_3 H4_3 1_555 1_555
C13_3 C16_3 1_555 1_555
C14_3 H5_3 1_555 1_555
C15_3 H6_3 1_555 1_555
C16_3 C8_3 1_555 1_555
C17_3 C13_3 1_555 1_555
C18_3 C14_3 1_555 1_555
C19_3 C12_3 1_555 1_555
C20_3 C4_3 1_555 1_555
H7_3 C20_3 1_555 1_555
C21_3 C10_3 1_555 1_555
H8_3 C21_3 1_555 1_555
C22_3 C3_2 1_555 1_555
H9_3 C22_3 1_555 1_555
O7_2 U9_2 1_555 1_555
O9_2 U5_2 1_555 1_555
O11_3 U5_2 1_555 1_555
O12_3 U5_2 1_555 1_555
O14_2 U5_2 1_555 1_555
O55_2 C24_3 1_555 1_555
C24_3 C40_3 1_555 1_555
C25_3 C28_3 1_555 1_555
C27_3 C13_3 1_555 1_555
C28_3 C14_3 1_555 1_555
C31_3 C11_3 1_555 1_555
C32_3 C8_3 1_555 1_555
H10_3 C32_3 1_555 1_555
C34_3 C31_3 1_555 1_555
H12_3 C34_3 1_555 1_555
C35_3 H13_3 1_555 1_555
C36_3 H14_3 1_555 1_555
C38_3 C34_3 1_555 1_555
H16_3 C38_3 1_555 1_555
C40_3 C35_3 1_555 1_555
C41_3 C5_3 1_555 1_555
C42_3 C25_3 1_555 1_555
H18_3 C42_3 1_555 1_555
C45_3 H20_3 1_555 1_555
C48_3 C31_3 1_555 1_555
H21_3 C48_3 1_555 1_555
C49_3 C9_3 1_555 1_555
C51_3 C27_3 1_555 1_555
H22_3 C51_3 1_555 1_555
C53_3 C4_3 1_555 1_555
C54_3 C25_3 1_555 1_555
H24_3 C54_3 1_555 1_555
C55_3 H25_3 1_555 1_555
C57_3 C49_3 1_555 1_555
H26_3 C57_3 1_555 1_555
C59_3 C55_3 1_555 1_555
C60_3 C40_3 1_555 1_555
H28_3 C60_3 1_555 1_555
C64_3 C45_3 1_555 1_555
U9_2 O37_2 1_555 1_555
Cs6_2 C3_2 1_555 1_555
C10_3 C16_3 1_555 1_555
C12_3 C20_3 1_555 1_555
C15_3 C17_3 1_555 1_555
C15_3 C21_3 1_555 1_555
C17_3 C18_3 1_555 1_555
C18_3 C19_3 1_555 1_555
C19_3 C22_3 1_555 1_555
O9_2 Cs6_2 1_555 1_555
O11_3 C53_3 1_555 1_555
O14_2 C53_3 1_555 1_555
O14_2 Cs6_2 1_555 1_555
C27_3 C28_3 1_555 1_555
C32_3 C51_3 1_555 1_555
C35_3 C42_3 1_555 1_555
C36_3 C41_3 1_555 1_555
C36_3 C48_3 1_555 1_555
C38_3 C41_3 1_555 1_555
C45_3 C49_3 1_555 1_555
C54_3 C60_3 1_555 1_555
C55_3 C57_3 1_555 1_555
C59_3 C64_3 1_555 1_555
O41 C61_3 1_555 1_555
O51_2 C61_3 1_555 1_555
O17_3 C68_3 1_555 1_555
C67_3 H33_3 1_555 1_555
C68_3 O18_2 1_555 1_555
C69_3 C70_3 1_555 1_555
C70_3 C79_3 1_555 1_555
O18_2 U4_2 1_555 1_555
O48_2 C87_3 1_555 1_555
C71_3 C67_3 1_555 1_555
C72_3 C68_3 1_555 1_555
C73_3 C69_3 1_555 1_555
C74_3 C67_3 1_555 1_555
H34_3 C74_3 1_555 1_555
C75_3 C73_3 1_555 1_555
H35_3 C75_3 1_555 1_555
C76_3 C71_3 1_555 1_555
H36_3 C76_3 1_555 1_555
C77_3 C79_3 1_555 1_555
C78_3 C69_3 1_555 1_555
H37_3 C78_3 1_555 1_555
C80_3 C77_3 1_555 1_555
C81_3 C80_3 1_555 1_555
H38_3 C82_3 1_555 1_555
C84_3 C81_3 1_555 1_555
H39_3 C84_3 1_555 1_555
C85_3 C72_3 1_555 1_555
H40_3 C85_3 1_555 1_555
C86_3 C72_3 1_555 1_555
H41_3 C86_3 1_555 1_555
C87_3 C71_3 1_555 1_555
C88_3 C81_3 1_555 1_555
H42_3 C88_3 1_555 1_555
U4_2 O17_3 1_555 1_555
O24_3 U4_2 1_555 1_555
O29_3 U4_2 1_555 1_555
Cs8_2 O18_2 1_555 1_555
O37 U4_2 1_555 1_555
O42 U4_2 1_555 1_555
O45_2 U4_2 1_555 1_555
O52_2 U4_2 1_555 1_555
C70_3 C82_3 1_555 1_555
C73_3 C74_3 1_555 1_555
C75_3 C76_3 1_555 1_555
C77_3 C83_3 1_555 1_555
C78_3 C80_3 1_555 1_555
C84_3 C86_3 1_555 1_555
C85_3 C88_3 1_555 1_555
Cs8_2 O52_2 1_555 1_555
C83_3 H66_3 1_555 1_555
O34_2 C108_3 1_555 1_555
C89_2 H43_3 1_555 1_555
C90_3 C89_2 1_555 1_555
O38_2 C96_3 1_555 1_555
C91_3 C92_3 1_555 1_555
C92_3 H44_3 1_555 1_555
C93_3 C94_3 1_555 1_555
C94_3 C92_3 1_555 1_555
C95_3 C91_3 1_555 1_555
C96_3 O25_2 1_555 1_555
C97_3 H45_3 1_555 1_555
C98_3 C101_3 1_555 1_555
C99_3 H46_3 1_555 1_555
C100_3 H47_3 1_555 1_555
C101_3 C93_3 1_555 1_555
C102_3 C98_3 1_555 1_555
C103_3 C99_3 1_555 1_555
C104_3 C97_3 1_555 1_555
C105_3 C90_3 1_555 1_555
H48_3 C105_3 1_555 1_555
C106_3 C95_3 1_555 1_555
H49_3 C106_3 1_555 1_555
C107_3 C89_2 1_555 1_555
H50_3 C107_3 1_555 1_555
O25_2 U8_2 1_555 1_555
O27_3 U6_2 1_555 1_555
O28_3 U6_2 1_555 1_555
O30_2 U6_2 1_555 1_555
O56_2 C108_3 1_555 1_555
C108_3 C118_3 1_555 1_555
C109_3 C111_3 1_555 1_555
C110_3 C98_3 1_555 1_555
C111_3 C99_3 1_555 1_555
C112_3 C96_3 1_555 1_555
C113_3 C93_3 1_555 1_555
H51_3 C113_3 1_555 1_555
C114_3 C112_3 1_555 1_555
H52_3 C114_3 1_555 1_555
C115_3 H53_3 1_555 1_555
C116_3 H54_3 1_555 1_555
C117_3 C114_3 1_555 1_555
H55_3 C117_3 1_555 1_555
C118_3 C115_3 1_555 1_555
C119_3 C91_3 1_555 1_555
C120_3 C109_3 1_555 1_555
H56_3 C120_3 1_555 1_555
C121_3 H57_3 1_555 1_555
C122_3 C112_3 1_555 1_555
H58_3 C122_3 1_555 1_555
C123_3 C94_3 1_555 1_555
C124_3 C110_3 1_555 1_555
H59_3 C124_3 1_555 1_555
C125_3 C90_3 1_555 1_555
C126_3 C109_3 1_555 1_555
H60_3 C126_3 1_555 1_555
C127_3 H61_3 1_555 1_555
C128_3 C123_3 1_555 1_555
H62_3 C128_3 1_555 1_555
C129_3 C127_3 1_555 1_555
C130_3 C118_3 1_555 1_555
H63_3 C130_3 1_555 1_555
C132_3 C121_3 1_555 1_555
U8_2 O38_2 1_555 1_555
Cs8_2 O20_2 1_555 1_555
O20_2 U6_2 1_555 1_555
C89_2 Cs8_2 1_555 1_555
C95_3 C101_3 1_555 1_555
C97_3 C105_3 1_555 1_555
C100_3 C102_3 1_555 1_555
C100_3 C106_3 1_555 1_555
C102_3 C103_3 1_555 1_555
C103_3 C104_3 1_555 1_555
C104_3 C107_3 1_555 1_555
O27_3 C125_3 1_555 1_555
O30_2 C125_3 1_555 1_555
O30_2 Cs8_2 1_555 1_555
C110_3 C111_3 1_555 1_555
C113_3 C124_3 1_555 1_555
C115_3 C120_3 1_555 1_555
C116_3 C119_3 1_555 1_555
C116_3 C122_3 1_555 1_555
C117_3 C119_3 1_555 1_555
C121_3 C123_3 1_555 1_555
C126_3 C130_3 1_555 1_555
C127_3 C128_3 1_555 1_555
C129_3 C132_3 1_555 1_555
O42 C131_3 1_555 1_555
O52_2 C131_3 1_555 1_555
Cs3_2 O26_2 1_555 1_555
O42_2 C131_4 1_555 1_555
O26_2 C131_4 1_555 1_555
U9_2 O42_2 1_555 1_555
C134_2 Cs3_2 1_555 1_555
O44_2 Cs3_2 1_555 1_555
O26_2 U9_2 1_555 1_555
U9_2 O44_2 1_555 1_555
O38 C96_4 1_555 1_555
C91_4 C92_4 1_555 1_555
C92_4 H44_4 1_555 1_555
C95_4 C91_4 1_555 1_555
C96_4 O46_2 1_555 1_555
C97_4 H45_4 1_555 1_555
C100_4 H47_4 1_555 1_555
C105_4 C90_4 1_555 1_555
H48_4 C105_4 1_555 1_555
C106_4 C95_4 1_555 1_555
H49_4 C106_4 1_555 1_555
O27_4 U6 1_555 1_555
O28_4 U6 1_555 1_555
O54_2 U6 1_555 1_555
C112_4 C96_4 1_555 1_555
C114_4 C112_4 1_555 1_555
H52_4 C114_4 1_555 1_555
C116_4 H54_4 1_555 1_555
C117_4 C114_4 1_555 1_555
H55_4 C117_4 1_555 1_555
C119_4 C91_4 1_555 1_555
C122_4 C112_4 1_555 1_555
H58_4 C122_4 1_555 1_555
C125_4 C90_4 1_555 1_555
O50_2 U6 1_555 1_555
C97_4 C105_4 1_555 1_555
C100_4 C106_4 1_555 1_555
O27_4 C125_4 1_555 1_555
O54_2 C125_4 1_555 1_555
C116_4 C119_4 1_555 1_555
C116_4 C122_4 1_555 1_555
C117_4 C119_4 1_555 1_555
O34 C108_4 1_555 1_555
C134_2 H43_4 1_555 1_555
C93_4 C94_4 1_555 1_555
C98_4 C101_4 1_555 1_555
C99_4 H46_4 1_555 1_555
C101_4 C93_4 1_555 1_555
C102_4 C98_4 1_555 1_555
C103_4 C99_4 1_555 1_555
C107_4 C134_2 1_555 1_555
H50_4 C107_4 1_555 1_555
O56 C108_4 1_555 1_555
C108_4 C118_4 1_555 1_555
C109_4 C111_4 1_555 1_555
C110_4 C98_4 1_555 1_555
C111_4 C99_4 1_555 1_555
C113_4 C93_4 1_555 1_555
H51_4 C113_4 1_555 1_555
C115_4 H53_4 1_555 1_555
C118_4 C115_4 1_555 1_555
C120_4 C109_4 1_555 1_555
H56_4 C120_4 1_555 1_555
C121_4 H57_4 1_555 1_555
C123_4 C94_4 1_555 1_555
C124_4 C110_4 1_555 1_555
H59_4 C124_4 1_555 1_555
C126_4 C109_4 1_555 1_555
H60_4 C126_4 1_555 1_555
C127_4 H61_4 1_555 1_555
C128_4 C123_4 1_555 1_555
H62_4 C128_4 1_555 1_555
C129_4 C127_4 1_555 1_555
C130_4 C118_4 1_555 1_555
H63_4 C130_4 1_555 1_555
C132_4 C121_4 1_555 1_555
C102_4 C103_4 1_555 1_555
C103_4 C104_4 1_555 1_555
C104_4 C107_4 1_555 1_555
C110_4 C111_4 1_555 1_555
C113_4 C124_4 1_555 1_555
C115_4 C120_4 1_555 1_555
C121_4 C123_4 1_555 1_555
C126_4 C130_4 1_555 1_555
C127_4 C128_4 1_555 1_555
C129_4 C132_4 1_555 1_555
C69_4 C70_4 1_555 1_555
O48 C87_4 1_555 1_555
C71_4 C67_4 1_555 1_555
C73_4 C69_4 1_555 1_555
C75_4 C73_4 1_555 1_555
H35_4 C75_4 1_555 1_555
C76_4 C71_4 1_555 1_555
H36_4 C76_4 1_555 1_555
H38_4 C82_4 1_555 1_555
C87_4 C71_4 1_555 1_555
C70_4 C82_4 1_555 1_555
C75_4 C76_4 1_555 1_555
O17_4 C68_4 1_555 1_555
C68_4 O44_2 1_555 1_555
C72_4 C68_4 1_555 1_555
H34_4 C74_4 1_555 1_555
C77_4 C79_4 1_555 1_555
H37_4 C78_4 1_555 1_555
C80_4 C77_4 1_555 1_555
C81_4 C80_4 1_555 1_555
C84_4 C81_4 1_555 1_555
H39_4 C84_4 1_555 1_555
C85_4 C72_4 1_555 1_555
H40_4 C85_4 1_555 1_555
C86_4 C72_4 1_555 1_555
H41_4 C86_4 1_555 1_555
C88_4 C81_4 1_555 1_555
H42_5 C88_4 1_555 1_555
U9_2 O17_4 1_555 1_555
O24_4 U9_2 1_555 1_555
O29_4 U9_2 1_555 1_555
C77_4 C83_4 1_555 1_555
C78_4 C80_4 1_555 1_555
C84_4 C86_4 1_555 1_555
C85_4 C88_4 1_555 1_555
C83_4 H66_4 1_555 1_555
Cs1_2 O10_2 1_555 1_555
O41_2 C61_4 1_555 1_555
O10_2 C61_4 1_555 1_555
U8_2 O41_2 1_555 1_555
C133_2 Cs1_2 1_555 1_555
O43_2 Cs1_2 1_555 1_555
O10_2 U8_2 1_555 1_555
U8_2 O43_2 1_555 1_555
O37 C11_4 1_555 1_555
C5_4 C7_4 1_555 1_555
C7_4 H3_4 1_555 1_555
C10_4 C5_4 1_555 1_555
C11_4 O45_2 1_555 1_555
C12_4 H4_4 1_555 1_555
C15_4 H6_4 1_555 1_555
C20_4 C4_4 1_555 1_555
H7_4 C20_4 1_555 1_555
C21_4 C10_4 1_555 1_555
H8_4 C21_4 1_555 1_555
O49_2 U5 1_555 1_555
O11_4 U5 1_555 1_555
O12_4 U5 1_555 1_555
O53_2 U5 1_555 1_555
C31_4 C11_4 1_555 1_555
C34_4 C31_4 1_555 1_555
H12_4 C34_4 1_555 1_555
C36_4 H14_4 1_555 1_555
C38_4 C34_4 1_555 1_555
H16_4 C38_4 1_555 1_555
C41_4 C5_4 1_555 1_555
C48_4 C31_4 1_555 1_555
H21_4 C48_4 1_555 1_555
C53_4 C4_4 1_555 1_555
C12_4 C20_4 1_555 1_555
C15_4 C21_4 1_555 1_555
O11_4 C53_4 1_555 1_555
O53_2 C53_4 1_555 1_555
C36_4 C41_4 1_555 1_555
C36_4 C48_4 1_555 1_555
C38_4 C41_4 1_555 1_555
O33 C24_4 1_555 1_555
C133_2 H2_4 1_555 1_555
C8_4 C9_4 1_555 1_555
C13_4 C16_4 1_555 1_555
C14_4 H5_4 1_555 1_555
C16_4 C8_4 1_555 1_555
C17_4 C13_4 1_555 1_555
C18_4 C14_4 1_555 1_555
C22_4 C133_2 1_555 1_555
H9_4 C22_4 1_555 1_555
O55 C24_4 1_555 1_555
C24_4 C40_4 1_555 1_555
C25_4 C28_4 1_555 1_555
C27_4 C13_4 1_555 1_555
C28_4 C14_4 1_555 1_555
C32_4 C8_4 1_555 1_555
H10_4 C32_4 1_555 1_555
C35_4 H13_4 1_555 1_555
C40_4 C35_4 1_555 1_555
C42_4 C25_4 1_555 1_555
H18_4 C42_4 1_555 1_555
C45_4 H20_4 1_555 1_555
C49_4 C9_4 1_555 1_555
C51_4 C27_4 1_555 1_555
H22_4 C51_4 1_555 1_555
C54_4 C25_4 1_555 1_555
H24_4 C54_4 1_555 1_555
C55_4 H25_4 1_555 1_555
C57_4 C49_4 1_555 1_555
H26_4 C57_4 1_555 1_555
C59_4 C55_4 1_555 1_555
C60_4 C40_4 1_555 1_555
H28_4 C60_4 1_555 1_555
C64_4 C45_4 1_555 1_555
C17_4 C18_4 1_555 1_555
C18_4 C19_4 1_555 1_555
C19_4 C22_4 1_555 1_555
C27_4 C28_4 1_555 1_555
C32_4 C51_4 1_555 1_555
C35_4 C42_4 1_555 1_555
C45_4 C49_4 1_555 1_555
C54_4 C60_4 1_555 1_555
C55_4 C57_4 1_555 1_555
C59_4 C64_4 1_555 1_555
C6_4 C23_4 1_555 1_555
O47 C65_4 1_555 1_555
C26_4 C1_4 1_555 1_555
C30_4 C6_4 1_555 1_555
C37_4 C30_4 1_555 1_555
H15_4 C37_4 1_555 1_555
C39_4 C26_4 1_555 1_555
H17_4 C39_4 1_555 1_555
C52_4 C23_4 1_555 1_555
H23_4 C52_4 1_555 1_555
C26_4 C65_4 1_555 1_555
C37_4 C39_4 1_555 1_555
U8_2 O1_4 1_555 1_555
O1_4 C2_4 1_555 1_555
C2_4 O43_2 1_555 1_555
O6_4 U8_2 1_555 1_555
O13_4 U8_2 1_555 1_555
C29_4 C2_4 1_555 1_555
H11_4 C33_4 1_555 1_555
C43_4 C46_4 1_555 1_555
H19_4 C44_4 1_555 1_555
C47_4 C43_4 1_555 1_555
C50_4 C47_4 1_555 1_555
C56_4 C43_4 1_555 1_555
C58_4 C50_4 1_555 1_555
H27_4 C58_4 1_555 1_555
C62_4 C29_4 1_555 1_555
H29_4 C62_4 1_555 1_555
C63_4 C29_4 1_555 1_555
H30_4 C63_4 1_555 1_555
C66_4 C50_4 1_555 1_555
H32_5 C66_4 1_555 1_555
C44_4 C47_4 1_555 1_555
C58_4 C63_4 1_555 1_555
C62_4 C66_4 1_555 1_555
C56_4 H65_4 1_555 1_555

#END
