
###############################################################################
#
# This file contains modified crystal structure data generated from the
# MOF subset of the Cambridge Structural Database (CSD) v543 
# hosted by the Cambridge Crystallographic Data Centre (CCDC).
#
# This work is licensed under the Creative Commons
# Attribution-NonCommercial-ShareAlike 4.0 International License.
# To view a copy of this license, visit
# http://creativecommons.org/licenses/by-nc-sa/4.0/
# or send a letter to
# Creative Commons, PO Box 1866, Mountain View, CA 94042, USA.
#
# CIF created using the CSD Python API on 29 September 2022
# The structure has been converted into the P1 space group
# The structure has a 3D framework
# The original CSD entry ZEXSOM is in the orthorhombic crystal system
# The framework has been calculated to contain at least 10.0% void space
# The void calculation uses a probe of radius 1.32A, grid spacing 0.4
# H atom positions have been added when not included in the experimental data
# Generated hydrogen atom positions removed from atoms on special positions
#
###############################################################################

data_ZEXSOM
_chemical_formula_moiety         '(C336 H320 Er24 O124 Si22)n'
_symmetry_cell_setting           triclinic
_symmetry_space_group_name_H-M   'P 1'
_symmetry_Int_Tables_number      1
_space_group_name_Hall           'P 1'
loop_
_symmetry_equiv_pos_site_id
_symmetry_equiv_pos_as_xyz
1 x,y,z
_cell_length_a                   19.455(4)
_cell_length_b                   30.389(6)
_cell_length_c                   24.230(5)
_cell_angle_alpha                90
_cell_angle_beta                 90
_cell_angle_gamma                90
_cell_volume                     14325.2
loop_
_atom_site_label
_atom_site_type_symbol
_atom_site_fract_x
_atom_site_fract_y
_atom_site_fract_z
Er1 Er 0.181055(12) 0.194480(6) 0.5000
Er2 Er 0.274432(14) 0.043996(8) 0.5000
Si1 Si 0.0000 0.38354(5) 0.2500
Si2 Si 0.0000 0.0000 0.2500
O1 O 0.15812(17) 0.24943(9) 0.43896(13)
O2 O 0.22740(16) 0.30680(11) 0.44150(15)
O3 O 0.1425(4) 0.5359(3) 0.0692(4)
O4 O 0.2258(3) 0.48866(17) 0.0712(2)
O5 O 0.21972(16) 0.08901(10) 0.44044(13)
O6 O 0.14401(17) 0.14389(9) 0.43598(13)
O7 O 0.0589(3) 0.19982(16) 0.5000
O8 O 0.3581(4) 0.0965(3) 0.5000
O9 O 0.1655(4) 0.0060(3) 0.5000
C1 C 0.05694(19) 0.34999(12) 0.29673(15)
C2 C 0.1146(2) 0.37032(13) 0.32025(18)
H1 H 0.1264 0.3986 0.3092
C3 C 0.0385(2) 0.30898(13) 0.31623(19)
C4 C 0.0783(2) 0.28755(14) 0.35697(19)
H3 H 0.0656 0.2598 0.3695
C5 C 0.1542(2) 0.34940(14) 0.35934(18)
H4 H 0.1932 0.3632 0.3731
C6 C 0.1364(2) 0.30799(12) 0.37837(17)
C7 C 0.1769(2) 0.28661(13) 0.42273(16)
C8 C 0.0532(2) 0.41904(13) 0.20319(16)
C9 C 0.0271(4) 0.4613(2) 0.1822(4)
C10 C 0.1227(5) 0.4104(3) 0.1888(4)
C11 C 0.0621(6) 0.4855(3) 0.1424(4)
C12 C 0.1591(5) 0.4366(4) 0.1512(5)
C13 C 0.1281(3) 0.46974(16) 0.1257(2)
C14 C 0.1648(3) 0.49592(18) 0.0857(2)
C15 C 0.0548(2) 0.03510(11) 0.29658(15)
C16 C 0.1172(2) 0.02053(13) 0.31525(18)
C17 C 0.0292(2) 0.07473(12) 0.31763(18)
C18 C 0.0662(2) 0.09810(12) 0.35804(18)
H7 H 0.0484 0.1242 0.3720
C19 C 0.1553(2) 0.04452(14) 0.35506(19)
H8 H 0.1982 0.0346 0.3664
C20 C 0.1280(2) 0.08294(11) 0.37698(15)
C21 C 0.1674(2) 0.10720(13) 0.42111(17)
H10 H 0.0005 0.2953 0.1976
H18 H 0.0125 0.0857 0.1951
H21 H 0.1350 0.0057 0.1985
Er8 Er 0.318945(12) 0.305520(6) 0.5000
Er15 Er 0.225568(14) 0.543996(8) 0.0000
O32 O 0.15812(17) 0.24943(9) 0.56104(13)
O34 O 0.27260(16) 0.19320(11) 0.44150(15)
O35 O 0.27260(16) 0.19320(11) 0.55850(15)
O37 O 0.3575(4) 0.0359(3) 0.4308(4)
O40 O 0.3575(4) 0.0359(3) 0.5692(4)
O46 O 0.21972(16) 0.08901(10) 0.55956(13)
O48 O 0.14401(17) 0.14389(9) 0.56402(13)
H40 H 0.0400885 0.515264 0.124676
H41 H 0.148624 0.382422 0.207654
H42 H 0.21305 0.429717 0.142892
H46 H 0.021194 0.47404 0.301643
Er15_2 Er 0.225568(14) 0.543996(8) 1.0000
Si2_2 Si -0.0000 1.0000 0.2500
H5 H 0.1350 0.9943 0.3015
H14 H 0.0125 0.9143 0.3049
O18 O 0.21972(16) 0.91099(10) 0.05956(13)
O19 O 0.14401(17) 0.85611(9) 0.06402(13)
C50 C 0.0548(2) 0.96490(11) 0.20342(15)
C51 C 0.1172(2) 0.97947(13) 0.18475(18)
C52 C 0.0292(2) 0.92527(12) 0.18237(18)
C53 C 0.0662(2) 0.90190(12) 0.14196(18)
H23 H 0.0484 0.8758 0.1280
C54 C 0.1553(2) 0.95548(14) 0.14494(19)
H24 H 0.1982 0.9654 0.1336
C55 C 0.1280(2) 0.91706(11) 0.12302(15)
C56 C 0.1674(2) 0.89280(13) 0.07889(17)
Si3 Si -0.0000 0.61646(5) 0.2500
H26 H 0.0005 0.7047 0.3024
O27 O 0.15812(17) 0.75057(9) 0.06104(13)
O28 O 0.22740(16) 0.69320(11) 0.05850(15)
O29 O 0.1425(4) 0.4641(3) 0.4308(4)
O30 O 0.2258(3) 0.51134(17) 0.4288(2)
C71 C 0.05694(19) 0.65001(12) 0.20327(15)
C72 C 0.1146(2) 0.62968(13) 0.17975(18)
H29 H 0.1264 0.6014 0.1908
C73 C 0.0385(2) 0.69102(13) 0.18377(19)
C74 C 0.0783(2) 0.71245(14) 0.14303(19)
H31 H 0.0656 0.7402 0.1305
C75 C 0.1542(2) 0.65060(14) 0.14066(18)
H32 H 0.1932 0.6368 0.1269
C76 C 0.1364(2) 0.69201(12) 0.12163(17)
C77 C 0.1769(2) 0.71339(13) 0.07727(16)
C78 C 0.0532(2) 0.58096(13) 0.29681(16)
C79 C 0.0271(4) 0.5387(2) 0.3178(4)
C80 C 0.1227(5) 0.5896(3) 0.3112(4)
C81 C 0.0621(6) 0.5145(3) 0.3576(4)
C82 C 0.1591(5) 0.5634(4) 0.3488(5)
C83 C 0.1281(3) 0.53026(16) 0.3743(2)
C84 C 0.1648(3) 0.50408(18) 0.4143(2)
Er6 Er 0.181055(12) 0.805520(6) 0.0000
Er9 Er 0.318945(12) 0.694480(6) 0.0000
Er12 Er 0.274432(14) 0.956004(8) 0.0000
Er14 Er 0.225568(14) 0.456004(8) 0.5000
O41 O 0.2742(3) 0.98866(17) 0.4288(2)
O44 O 0.2742(3) 0.98866(17) 0.5712(2)
H37 H 0.154619 0.996019 0.461967
H38 H 0.168157 0.980112 0.524916
H50 H 0.021194 0.52596 0.198357
H57 H 0.21305 0.570283 0.357108
H58 H 0.148624 0.617578 0.292346
H59 H 0.0400885 0.484736 0.375324
Er6_2 Er 0.181055(12) 0.805520(6) 1.0000
Er9_2 Er 0.318945(12) 0.694480(6) 1.0000
Er12_2 Er 0.274432(14) 0.956004(8) 1.0000
Si1_2 Si 1.0000 0.38354(5) 0.2500
Si2_3 Si 1.0000 0.0000 0.2500
H2 H 0.9995 0.2953 0.3024
H6 H 0.9875 0.0857 0.3049
O10 O 0.84188(17) 0.24943(9) 0.06104(13)
O11 O 0.77260(16) 0.30680(11) 0.05850(15)
O12 O 0.8575(4) 0.5359(3) 0.4308(4)
O13 O 0.7742(3) 0.48866(17) 0.4288(2)
C22 C 0.94306(19) 0.34999(12) 0.20327(15)
C23 C 0.8854(2) 0.37032(13) 0.17975(18)
H9 H 0.8736 0.3986 0.1908
C24 C 0.9615(2) 0.30898(13) 0.18377(19)
C25 C 0.9217(2) 0.28755(14) 0.14303(19)
H11 H 0.9344 0.2598 0.1305
C26 C 0.8458(2) 0.34940(14) 0.14066(18)
H12 H 0.8068 0.3632 0.1269
C27 C 0.8636(2) 0.30799(12) 0.12163(17)
C28 C 0.8231(2) 0.28661(13) 0.07727(16)
C29 C 0.9468(2) 0.41904(13) 0.29681(16)
C30 C 0.9729(4) 0.4613(2) 0.3178(4)
C31 C 0.8773(5) 0.4104(3) 0.3112(4)
C32 C 0.9379(6) 0.4855(3) 0.3576(4)
C33 C 0.8409(5) 0.4366(4) 0.3488(5)
C34 C 0.8719(3) 0.46974(16) 0.3743(2)
C35 C 0.8352(3) 0.49592(18) 0.4143(2)
H13 H 0.8650 0.0057 0.3015
O16 O 0.78028(16) 0.08901(10) 0.05956(13)
O17 O 0.85599(17) 0.14389(9) 0.06402(13)
C43 C 0.9452(2) 0.03510(11) 0.20342(15)
C44 C 0.8828(2) 0.02053(13) 0.18475(18)
C45 C 0.9708(2) 0.07473(12) 0.18237(18)
C46 C 0.9338(2) 0.09810(12) 0.14196(18)
H19 H 0.9516 0.1242 0.1280
C47 C 0.8447(2) 0.04452(14) 0.14494(19)
H20 H 0.8018 0.0346 0.1336
C48 C 0.8720(2) 0.08294(11) 0.12302(15)
C49 C 0.8326(2) 0.10720(13) 0.07889(17)
Er5 Er 0.818945(12) 0.194480(6) 0.0000
Er10 Er 0.681055(12) 0.305520(6) 0.0000
Er11 Er 0.725568(14) 0.043996(8) 0.0000
Er13 Er 0.774432(14) 0.543996(8) 0.5000
O42 O 0.7258(3) 0.01134(17) 0.4288(2)
O43 O 0.7258(3) 0.01134(17) 0.5712(2)
H39 H 0.978806 0.47404 0.198357
H43 H 0.959912 0.515264 0.375324
H44 H 0.851376 0.382422 0.292346
H45 H 0.78695 0.429717 0.357108
H52 H 0.845381 0.00398073 0.461967
H53 H 0.831843 0.0198878 0.524916
Er5_2 Er 0.818945(12) 0.194480(6) 1.0000
Er10_2 Er 0.681055(12) 0.305520(6) 1.0000
Er11_2 Er 0.725568(14) 0.043996(8) 1.0000
Si2_4 Si 1.0000 1.0000 0.2500
O14 O 0.78028(16) 0.91099(10) 0.44044(13)
O15 O 0.85599(17) 0.85611(9) 0.43598(13)
C36 C 0.9452(2) 0.96490(11) 0.29658(15)
C37 C 0.8828(2) 0.97947(13) 0.31525(18)
C38 C 0.9708(2) 0.92527(12) 0.31763(18)
C39 C 0.9338(2) 0.90190(12) 0.35804(18)
H15 H 0.9516 0.8758 0.3720
C40 C 0.8447(2) 0.95548(14) 0.35506(19)
H16 H 0.8018 0.9654 0.3664
C41 C 0.8720(2) 0.91706(11) 0.37698(15)
C42 C 0.8326(2) 0.89280(13) 0.42111(17)
H17 H 0.8650 0.9943 0.1985
H22 H 0.9875 0.9143 0.1951
Er3 Er 0.818945(12) 0.805520(6) 0.5000
Er4 Er 0.725568(14) 0.956004(8) 0.5000
Si3_2 Si 1.0000 0.61646(5) 0.2500
O20 O 0.84188(17) 0.75057(9) 0.43896(13)
O21 O 0.77260(16) 0.69320(11) 0.44150(15)
O22 O 0.8575(4) 0.4641(3) 0.0692(4)
O23 O 0.7742(3) 0.51134(17) 0.0712(2)
O24 O 0.9411(3) 0.80018(16) 0.5000
O25 O 0.6419(4) 0.9035(3) 0.5000
O26 O 0.8345(4) 0.9940(3) 0.5000
C57 C 0.94306(19) 0.65001(12) 0.29673(15)
C58 C 0.8854(2) 0.62968(13) 0.32025(18)
H25 H 0.8736 0.6014 0.3092
C59 C 0.9615(2) 0.69102(13) 0.31623(19)
C60 C 0.9217(2) 0.71245(14) 0.35697(19)
H27 H 0.9344 0.7402 0.3695
C61 C 0.8458(2) 0.65060(14) 0.35934(18)
H28 H 0.8068 0.6368 0.3731
C62 C 0.8636(2) 0.69201(12) 0.37837(17)
C63 C 0.8231(2) 0.71339(13) 0.42273(16)
C64 C 0.9468(2) 0.58096(13) 0.20319(16)
C65 C 0.9729(4) 0.5387(2) 0.1822(4)
C66 C 0.8773(5) 0.5896(3) 0.1888(4)
C67 C 0.9379(6) 0.5145(3) 0.1424(4)
C68 C 0.8409(5) 0.5634(4) 0.1512(5)
C69 C 0.8719(3) 0.53026(16) 0.1257(2)
C70 C 0.8352(3) 0.50408(18) 0.0857(2)
H30 H 0.9995 0.7047 0.1976
Er7 Er 0.681055(12) 0.694480(6) 0.5000
Er16 Er 0.774432(14) 0.456004(8) 0.0000
O31 O 0.84188(17) 0.75057(9) 0.56104(13)
O33 O 0.72740(16) 0.80680(11) 0.44150(15)
O36 O 0.72740(16) 0.80680(11) 0.55850(15)
O38 O 0.6425(4) 0.9641(3) 0.4308(4)
O39 O 0.6425(4) 0.9641(3) 0.5692(4)
O45 O 0.78028(16) 0.91099(10) 0.55956(13)
O47 O 0.85599(17) 0.85611(9) 0.56402(13)
H49 H 0.78695 0.570283 0.142892
H51 H 0.959912 0.484736 0.124676
H56 H 0.851376 0.617578 0.207654
H60 H 0.978806 0.52596 0.301643
Er16_2 Er 0.774432(14) 0.456004(8) 1.0000
O42_2 O 0.2742(3) 0.01134(17) 0.0712(2)
H52_2 H 0.154619 0.00398073 0.0380332
O43_2 O 0.2742(3) 0.01134(17) 0.9288(2)
H53_2 H 0.168157 0.0198878 0.975084
O24_2 O 0.0589(3) 0.80018(16) -0.0000
O25_2 O 0.3581(4) 0.9035(3) -0.0000
O26_2 O 0.1655(4) 0.9940(3) -0.0000
O33_2 O 0.27260(16) 0.80680(11) 0.05850(15)
O38_2 O 0.3575(4) 0.9641(3) 0.0692(4)
O24_3 O 0.0589(3) 0.80018(16) 1.0000
O25_3 O 0.3581(4) 0.9035(3) 1.0000
O26_3 O 0.1655(4) 0.9940(3) 1.0000
O31_2 O 0.15812(17) 0.75057(9) 0.93896(13)
O36_2 O 0.27260(16) 0.80680(11) 0.94150(15)
O39_2 O 0.3575(4) 0.9641(3) 0.9308(4)
O45_2 O 0.21972(16) 0.91099(10) 0.94044(13)
O47_2 O 0.14401(17) 0.85611(9) 0.93598(13)
H54 H 0.338603 0.875206 0.986763
H55 H 0.396068 0.912738 0.975182
O7_2 O 0.9411(3) 0.19982(16) -0.0000
O8_2 O 0.6419(4) 0.0965(3) -0.0000
O9_2 O 0.8345(4) 0.0060(3) -0.0000
O34_2 O 0.72740(16) 0.19320(11) 0.05850(15)
O37_2 O 0.6425(4) 0.0359(3) 0.0692(4)
O7_3 O 0.9411(3) 0.19982(16) 1.0000
O8_3 O 0.6419(4) 0.0965(3) 1.0000
O9_3 O 0.8345(4) 0.0060(3) 1.0000
O32_2 O 0.84188(17) 0.24943(9) 0.93896(13)
O35_2 O 0.72740(16) 0.19320(11) 0.94150(15)
O40_2 O 0.6425(4) 0.0359(3) 0.9308(4)
O46_2 O 0.78028(16) 0.08901(10) 0.94044(13)
O48_2 O 0.85599(17) 0.14389(9) 0.93598(13)
H35 H 0.661397 0.124794 0.986763
H36 H 0.603932 0.0872623 0.975182
O41_2 O 0.7258(3) 0.98866(17) 0.0712(2)
H37_2 H 0.845381 0.996019 0.0380332
O44_2 O 0.7258(3) 0.98866(17) 0.9288(2)
H38_2 H 0.831843 0.980112 0.975084
H40_2 H 0.540088 0.015264 0.124676
H43_2 H 0.459912 0.015264 0.375324
Si1_3 Si 0.5000 0.88354(5) 0.2500
Si2_5 Si 0.5000 0.5000 0.2500
O1_2 O 0.65812(17) 0.74943(9) 0.43896(13)
O5_2 O 0.71972(16) 0.58901(10) 0.44044(13)
O6_2 O 0.64401(17) 0.64389(9) 0.43598(13)
O7_4 O 0.5589(3) 0.69982(16) 0.5000
O8_4 O 0.8581(4) 0.5965(3) 0.5000
O9_4 O 0.6655(4) 0.5060(3) 0.5000
C1_2 C 0.55694(19) 0.84999(12) 0.29673(15)
C2_2 C 0.6146(2) 0.87032(13) 0.32025(18)
H1_2 H 0.6264 0.8986 0.3092
C3_2 C 0.5385(2) 0.80898(13) 0.31623(19)
H2_2 H 0.4995 0.7953 0.3024
C4_2 C 0.5783(2) 0.78755(14) 0.35697(19)
H3_2 H 0.5656 0.7598 0.3695
C5_2 C 0.6542(2) 0.84940(14) 0.35934(18)
H4_2 H 0.6932 0.8632 0.3731
C6_2 C 0.6364(2) 0.80799(12) 0.37837(17)
C7_2 C 0.6769(2) 0.78661(13) 0.42273(16)
C8_2 C 0.5532(2) 0.91904(13) 0.20319(16)
C9_2 C 0.5271(4) 0.9613(2) 0.1822(4)
C10_2 C 0.6227(5) 0.9104(3) 0.1888(4)
C11_2 C 0.5621(6) 0.9855(3) 0.1424(4)
C12_2 C 0.6591(5) 0.9366(4) 0.1512(5)
C13_2 C 0.6281(3) 0.96974(16) 0.1257(2)
C14_2 C 0.6648(3) 0.99592(18) 0.0857(2)
C15_2 C 0.5548(2) 0.53510(11) 0.29658(15)
C16_2 C 0.6172(2) 0.52053(13) 0.31525(18)
H5_2 H 0.6350 0.4943 0.3015
C17_2 C 0.5292(2) 0.57473(12) 0.31763(18)
H6_2 H 0.4875 0.5857 0.3049
C18_2 C 0.5662(2) 0.59810(12) 0.35804(18)
H7_2 H 0.5484 0.6242 0.3720
C19_2 C 0.6553(2) 0.54452(14) 0.35506(19)
H8_2 H 0.6982 0.5346 0.3664
C20_2 C 0.6280(2) 0.58294(11) 0.37698(15)
C21_2 C 0.6674(2) 0.60720(13) 0.42111(17)
O10_2 O 0.34188(17) 0.74943(9) 0.06104(13)
C22_2 C 0.44306(19) 0.84999(12) 0.20327(15)
C23_2 C 0.3854(2) 0.87032(13) 0.17975(18)
H9_2 H 0.3736 0.8986 0.1908
C24_2 C 0.4615(2) 0.80898(13) 0.18377(19)
H10_2 H 0.5005 0.7953 0.1976
C25_2 C 0.4217(2) 0.78755(14) 0.14303(19)
H11_2 H 0.4344 0.7598 0.1305
C26_2 C 0.3458(2) 0.84940(14) 0.14066(18)
H12_2 H 0.3068 0.8632 0.1269
C27_2 C 0.3636(2) 0.80799(12) 0.12163(17)
C28_2 C 0.3231(2) 0.78661(13) 0.07727(16)
C29_2 C 0.4468(2) 0.91904(13) 0.29681(16)
C30_2 C 0.4729(4) 0.9613(2) 0.3178(4)
C31_2 C 0.3773(5) 0.9104(3) 0.3112(4)
C32_2 C 0.4379(6) 0.9855(3) 0.3576(4)
C33_2 C 0.3409(5) 0.9366(4) 0.3488(5)
C34_2 C 0.3719(3) 0.96974(16) 0.3743(2)
C35_2 C 0.3352(3) 0.99592(18) 0.4143(2)
O14_2 O 0.28028(16) 0.41099(10) 0.44044(13)
O15_2 O 0.35599(17) 0.35611(9) 0.43598(13)
C36_2 C 0.4452(2) 0.46490(11) 0.29658(15)
C37_2 C 0.3828(2) 0.47947(13) 0.31525(18)
H13_2 H 0.3650 0.5057 0.3015
C38_2 C 0.4708(2) 0.42527(12) 0.31763(18)
H14_2 H 0.5125 0.4143 0.3049
C39_2 C 0.4338(2) 0.40190(12) 0.35804(18)
H15_2 H 0.4516 0.3758 0.3720
C40_2 C 0.3447(2) 0.45548(14) 0.35506(19)
H16_2 H 0.3018 0.4654 0.3664
C41_2 C 0.3720(2) 0.41706(11) 0.37698(15)
C42_2 C 0.3326(2) 0.39280(13) 0.42111(17)
O16_2 O 0.28028(16) 0.58901(10) 0.05956(13)
O17_2 O 0.35599(17) 0.64389(9) 0.06402(13)
C43_2 C 0.4452(2) 0.53510(11) 0.20342(15)
C44_2 C 0.3828(2) 0.52053(13) 0.18475(18)
H17_2 H 0.3650 0.4943 0.1985
C45_2 C 0.4708(2) 0.57473(12) 0.18237(18)
H18_2 H 0.5125 0.5857 0.1951
C46_2 C 0.4338(2) 0.59810(12) 0.14196(18)
H19_2 H 0.4516 0.6242 0.1280
C47_2 C 0.3447(2) 0.54452(14) 0.14494(19)
H20_2 H 0.3018 0.5346 0.1336
C48_2 C 0.3720(2) 0.58294(11) 0.12302(15)
C49_2 C 0.3326(2) 0.60720(13) 0.07889(17)
O18_2 O 0.71972(16) 0.41099(10) 0.05956(13)
O19_2 O 0.64401(17) 0.35611(9) 0.06402(13)
C50_2 C 0.5548(2) 0.46490(11) 0.20342(15)
C51_2 C 0.6172(2) 0.47947(13) 0.18475(18)
H21_2 H 0.6350 0.5057 0.1985
C52_2 C 0.5292(2) 0.42527(12) 0.18237(18)
H22_2 H 0.4875 0.4143 0.1951
C53_2 C 0.5662(2) 0.40190(12) 0.14196(18)
H23_2 H 0.5484 0.3758 0.1280
C54_2 C 0.6553(2) 0.45548(14) 0.14494(19)
H24_2 H 0.6982 0.4654 0.1336
C55_2 C 0.6280(2) 0.41706(11) 0.12302(15)
C56_2 C 0.6674(2) 0.39280(13) 0.07889(17)
Si3_3 Si 0.5000 0.11646(5) 0.2500
O20_2 O 0.34188(17) 0.25057(9) 0.43896(13)
O24_4 O 0.4411(3) 0.30018(16) 0.5000
O25_4 O 0.1419(4) 0.4035(3) 0.5000
O26_4 O 0.3345(4) 0.4940(3) 0.5000
C57_2 C 0.44306(19) 0.15001(12) 0.29673(15)
C58_2 C 0.3854(2) 0.12968(13) 0.32025(18)
H25_2 H 0.3736 0.1014 0.3092
C59_2 C 0.4615(2) 0.19102(13) 0.31623(19)
H26_2 H 0.5005 0.2047 0.3024
C60_2 C 0.4217(2) 0.21245(14) 0.35697(19)
H27_2 H 0.4344 0.2402 0.3695
C61_2 C 0.3458(2) 0.15060(14) 0.35934(18)
H28_2 H 0.3068 0.1368 0.3731
C62_2 C 0.3636(2) 0.19201(12) 0.37837(17)
C63_2 C 0.3231(2) 0.21339(13) 0.42273(16)
C64_2 C 0.4468(2) 0.08096(13) 0.20319(16)
C65_2 C 0.4729(4) 0.0387(2) 0.1822(4)
C66_2 C 0.3773(5) 0.0896(3) 0.1888(4)
C67_2 C 0.4379(6) 0.0145(3) 0.1424(4)
C68_2 C 0.3409(5) 0.0634(4) 0.1512(5)
C69_2 C 0.3719(3) 0.03026(16) 0.1257(2)
C70_2 C 0.3352(3) 0.00408(18) 0.0857(2)
O27_2 O 0.65812(17) 0.25057(9) 0.06104(13)
C71_2 C 0.55694(19) 0.15001(12) 0.20327(15)
C72_2 C 0.6146(2) 0.12968(13) 0.17975(18)
H29_2 H 0.6264 0.1014 0.1908
C73_2 C 0.5385(2) 0.19102(13) 0.18377(19)
H30_2 H 0.4995 0.2047 0.1976
C74_2 C 0.5783(2) 0.21245(14) 0.14303(19)
H31_2 H 0.5656 0.2402 0.1305
C75_2 C 0.6542(2) 0.15060(14) 0.14066(18)
H32_2 H 0.6932 0.1368 0.1269
C76_2 C 0.6364(2) 0.19201(12) 0.12163(17)
C77_2 C 0.6769(2) 0.21339(13) 0.07727(16)
C78_2 C 0.5532(2) 0.08096(13) 0.29681(16)
C79_2 C 0.5271(4) 0.0387(2) 0.3178(4)
C80_2 C 0.6227(5) 0.0896(3) 0.3112(4)
C81_2 C 0.5621(6) 0.0145(3) 0.3576(4)
C82_2 C 0.6591(5) 0.0634(4) 0.3488(5)
C83_2 C 0.6281(3) 0.03026(16) 0.3743(2)
C84_2 C 0.6648(3) 0.00408(18) 0.4143(2)
O31_3 O 0.34188(17) 0.25057(9) 0.56104(13)
O32_3 O 0.65812(17) 0.74943(9) 0.56104(13)
O35_3 O 0.77260(16) 0.69320(11) 0.55850(15)
O36_3 O 0.22740(16) 0.30680(11) 0.55850(15)
O39_3 O 0.1425(4) 0.4641(3) 0.5692(4)
O40_3 O 0.8575(4) 0.5359(3) 0.5692(4)
O43_3 O 0.2258(3) 0.51134(17) 0.5712(2)
O44_3 O 0.7742(3) 0.48866(17) 0.5712(2)
O45_3 O 0.28028(16) 0.41099(10) 0.55956(13)
O46_3 O 0.71972(16) 0.58901(10) 0.55956(13)
O47_3 O 0.35599(17) 0.35611(9) 0.56402(13)
O48_3 O 0.64401(17) 0.64389(9) 0.56402(13)
H39_2 H 0.478806 0.97404 0.198357
H41_2 H 0.648624 0.882422 0.207654
H42_2 H 0.71305 0.929717 0.142892
H44_2 H 0.351376 0.882422 0.292346
H45_2 H 0.28695 0.929717 0.357108
H46_2 H 0.521194 0.97404 0.301643
H49_2 H 0.28695 0.0702827 0.142892
H50_2 H 0.521194 0.0259604 0.198357
H56_2 H 0.351376 0.117578 0.207654
H57_2 H 0.71305 0.0702827 0.357108
H58_2 H 0.648624 0.117578 0.292346
H60_2 H 0.478806 0.0259604 0.301643
H51_2 H 0.459912 0.984736 0.124676
H59_2 H 0.540088 0.984736 0.375324
O7_5 O 0.4411(3) 0.69982(16) -0.0000
O8_5 O 0.1419(4) 0.5965(3) -0.0000
O9_5 O 0.3345(4) 0.5060(3) -0.0000
O24_5 O 0.5589(3) 0.30018(16) -0.0000
O25_5 O 0.8581(4) 0.4035(3) -0.0000
O26_5 O 0.6655(4) 0.4940(3) -0.0000
H37_3 H 0.345381 0.496019 0.0380332
H52_3 H 0.654619 0.503981 0.0380332
O7_6 O 0.4411(3) 0.69982(16) 1.0000
O8_6 O 0.1419(4) 0.5965(3) 1.0000
O9_6 O 0.3345(4) 0.5060(3) 1.0000
O24_6 O 0.5589(3) 0.30018(16) 1.0000
O25_6 O 0.8581(4) 0.4035(3) 1.0000
O26_6 O 0.6655(4) 0.4940(3) 1.0000
O31_4 O 0.65812(17) 0.25057(9) 0.93896(13)
O32_4 O 0.34188(17) 0.74943(9) 0.93896(13)
O35_4 O 0.22740(16) 0.69320(11) 0.94150(15)
O36_4 O 0.77260(16) 0.30680(11) 0.94150(15)
O39_4 O 0.8575(4) 0.4641(3) 0.9308(4)
O40_4 O 0.1425(4) 0.5359(3) 0.9308(4)
O43_4 O 0.7742(3) 0.51134(17) 0.9288(2)
O44_4 O 0.2258(3) 0.48866(17) 0.9288(2)
O45_4 O 0.71972(16) 0.41099(10) 0.94044(13)
O46_4 O 0.28028(16) 0.58901(10) 0.94044(13)
O47_4 O 0.64401(17) 0.35611(9) 0.93598(13)
O48_4 O 0.35599(17) 0.64389(9) 0.93598(13)
H35_2 H 0.161397 0.624794 0.986763
H36_2 H 0.103932 0.587262 0.975182
H38_3 H 0.331843 0.480112 0.975084
H53_3 H 0.668157 0.519888 0.975084
H54_2 H 0.838603 0.375206 0.986763
H55_2 H 0.896068 0.412738 0.975182
Si2_6 Si 0.0000 0.0000 0.7500
C36_3 C 0.0548(2) 0.03510(11) 0.70342(15)
C37_3 C 0.1172(2) 0.02053(13) 0.68475(18)
C38_3 C 0.0292(2) 0.07473(12) 0.68237(18)
C39_3 C 0.0662(2) 0.09810(12) 0.64196(18)
H15_3 H 0.0484 0.1242 0.6280
C40_3 C 0.1553(2) 0.04452(14) 0.64494(19)
H16_3 H 0.1982 0.0346 0.6336
C41_3 C 0.1280(2) 0.08294(11) 0.62302(15)
C42_3 C 0.1674(2) 0.10720(13) 0.57889(17)
H17_3 H 0.1350 0.0057 0.8015
H22_3 H 0.0125 0.0857 0.8049
Si3_4 Si 0.0000 0.38354(5) 0.7500
C57_3 C 0.05694(19) 0.34999(12) 0.70327(15)
C58_3 C 0.1146(2) 0.37032(13) 0.67975(18)
H25_3 H 0.1264 0.3986 0.6908
C59_3 C 0.0385(2) 0.30898(13) 0.68377(19)
C60_3 C 0.0783(2) 0.28755(14) 0.64303(19)
H27_3 H 0.0656 0.2598 0.6305
C61_3 C 0.1542(2) 0.34940(14) 0.64066(18)
H28_3 H 0.1932 0.3632 0.6269
C62_3 C 0.1364(2) 0.30799(12) 0.62163(17)
C63_3 C 0.1769(2) 0.28661(13) 0.57727(16)
C64_3 C 0.0532(2) 0.41904(13) 0.79681(16)
C65_3 C 0.0271(4) 0.4613(2) 0.8178(4)
C66_3 C 0.1227(5) 0.4104(3) 0.8112(4)
C67_3 C 0.0621(6) 0.4855(3) 0.8576(4)
C68_3 C 0.1591(5) 0.4366(4) 0.8488(5)
C69_3 C 0.1281(3) 0.46974(16) 0.8743(2)
C70_3 C 0.1648(3) 0.49592(18) 0.9143(2)
H30_3 H 0.0005 0.2953 0.8024
H49_3 H 0.21305 0.429717 0.857108
H51_3 H 0.0400885 0.515264 0.875324
H56_3 H 0.148624 0.382422 0.792346
H60_3 H 0.021194 0.47404 0.698357
Si1_4 Si 0.0000 0.61646(5) 0.7500
Si2_7 Si 0.0000 1.0000 0.7500
H2_3 H 0.0005 0.7047 0.6976
H6_3 H 0.0125 0.9143 0.6951
C22_3 C 0.05694(19) 0.65001(12) 0.79673(15)
C23_3 C 0.1146(2) 0.62968(13) 0.82025(18)
H9_3 H 0.1264 0.6014 0.8092
C24_3 C 0.0385(2) 0.69102(13) 0.81623(19)
C25_3 C 0.0783(2) 0.71245(14) 0.85697(19)
H11_3 H 0.0656 0.7402 0.8695
C26_3 C 0.1542(2) 0.65060(14) 0.85934(18)
H12_3 H 0.1932 0.6368 0.8731
C27_3 C 0.1364(2) 0.69201(12) 0.87837(17)
C28_3 C 0.1769(2) 0.71339(13) 0.92273(16)
C29_3 C 0.0532(2) 0.58096(13) 0.70319(16)
C30_3 C 0.0271(4) 0.5387(2) 0.6822(4)
C31_3 C 0.1227(5) 0.5896(3) 0.6888(4)
C32_3 C 0.0621(6) 0.5145(3) 0.6424(4)
C33_3 C 0.1591(5) 0.5634(4) 0.6512(5)
C34_3 C 0.1281(3) 0.53026(16) 0.6257(2)
C35_3 C 0.1648(3) 0.50408(18) 0.5857(2)
H13_3 H 0.1350 0.9943 0.6985
C43_3 C 0.0548(2) 0.96490(11) 0.79658(15)
C44_3 C 0.1172(2) 0.97947(13) 0.81525(18)
C45_3 C 0.0292(2) 0.92527(12) 0.81763(18)
C46_3 C 0.0662(2) 0.90190(12) 0.85804(18)
H19_3 H 0.0484 0.8758 0.8720
C47_3 C 0.1553(2) 0.95548(14) 0.85506(19)
H20_3 H 0.1982 0.9654 0.8664
C48_3 C 0.1280(2) 0.91706(11) 0.87698(15)
C49_3 C 0.1674(2) 0.89280(13) 0.92111(17)
H39_3 H 0.021194 0.52596 0.801643
H43_3 H 0.0400885 0.484736 0.624676
H44_3 H 0.148624 0.617578 0.707654
H45_3 H 0.21305 0.570283 0.642892
H52_4 H 0.154619 0.996019 0.538033
H53_4 H 0.168157 0.980112 0.475084
Si2_8 Si 1.0000 0.0000 0.7500
H5_3 H 0.8650 0.0057 0.6985
H14_3 H 0.9875 0.0857 0.6951
C50_3 C 0.9452(2) 0.03510(11) 0.79658(15)
C51_3 C 0.8828(2) 0.02053(13) 0.81525(18)
C52_3 C 0.9708(2) 0.07473(12) 0.81763(18)
C53_3 C 0.9338(2) 0.09810(12) 0.85804(18)
H23_3 H 0.9516 0.1242 0.8720
C54_3 C 0.8447(2) 0.04452(14) 0.85506(19)
H24_3 H 0.8018 0.0346 0.8664
C55_3 C 0.8720(2) 0.08294(11) 0.87698(15)
C56_3 C 0.8326(2) 0.10720(13) 0.92111(17)
Si3_5 Si 1.0000 0.38354(5) 0.7500
H26_3 H 0.9995 0.2953 0.6976
C71_3 C 0.94306(19) 0.34999(12) 0.79673(15)
C72_3 C 0.8854(2) 0.37032(13) 0.82025(18)
H29_3 H 0.8736 0.3986 0.8092
C73_3 C 0.9615(2) 0.30898(13) 0.81623(19)
C74_3 C 0.9217(2) 0.28755(14) 0.85697(19)
H31_3 H 0.9344 0.2598 0.8695
C75_3 C 0.8458(2) 0.34940(14) 0.85934(18)
H32_3 H 0.8068 0.3632 0.8731
C76_3 C 0.8636(2) 0.30799(12) 0.87837(17)
C77_3 C 0.8231(2) 0.28661(13) 0.92273(16)
C78_3 C 0.9468(2) 0.41904(13) 0.70319(16)
C79_3 C 0.9729(4) 0.4613(2) 0.6822(4)
C80_3 C 0.8773(5) 0.4104(3) 0.6888(4)
C81_3 C 0.9379(6) 0.4855(3) 0.6424(4)
C82_3 C 0.8409(5) 0.4366(4) 0.6512(5)
C83_3 C 0.8719(3) 0.46974(16) 0.6257(2)
C84_3 C 0.8352(3) 0.49592(18) 0.5857(2)
H37_4 H 0.845381 0.00398073 0.538033
H38_4 H 0.831843 0.0198878 0.475084
H50_3 H 0.978806 0.47404 0.801643
H57_3 H 0.78695 0.429717 0.642892
H58_3 H 0.851376 0.382422 0.707654
H59_3 H 0.959912 0.515264 0.624676
Si1_5 Si 1.0000 0.61646(5) 0.7500
Si2_9 Si 1.0000 1.0000 0.7500
C1_3 C 0.94306(19) 0.65001(12) 0.70327(15)
C2_3 C 0.8854(2) 0.62968(13) 0.67975(18)
H1_3 H 0.8736 0.6014 0.6908
C3_3 C 0.9615(2) 0.69102(13) 0.68377(19)
C4_3 C 0.9217(2) 0.71245(14) 0.64303(19)
H3_3 H 0.9344 0.7402 0.6305
C5_3 C 0.8458(2) 0.65060(14) 0.64066(18)
H4_3 H 0.8068 0.6368 0.6269
C6_3 C 0.8636(2) 0.69201(12) 0.62163(17)
C7_3 C 0.8231(2) 0.71339(13) 0.57727(16)
C8_3 C 0.9468(2) 0.58096(13) 0.79681(16)
C9_3 C 0.9729(4) 0.5387(2) 0.8178(4)
C10_3 C 0.8773(5) 0.5896(3) 0.8112(4)
C11_3 C 0.9379(6) 0.5145(3) 0.8576(4)
C12_3 C 0.8409(5) 0.5634(4) 0.8488(5)
C13_3 C 0.8719(3) 0.53026(16) 0.8743(2)
C14_3 C 0.8352(3) 0.50408(18) 0.9143(2)
C15_3 C 0.9452(2) 0.96490(11) 0.70342(15)
C16_3 C 0.8828(2) 0.97947(13) 0.68475(18)
C17_3 C 0.9708(2) 0.92527(12) 0.68237(18)
C18_3 C 0.9338(2) 0.90190(12) 0.64196(18)
H7_3 H 0.9516 0.8758 0.6280
C19_3 C 0.8447(2) 0.95548(14) 0.64494(19)
H8_3 H 0.8018 0.9654 0.6336
C20_3 C 0.8720(2) 0.91706(11) 0.62302(15)
C21_3 C 0.8326(2) 0.89280(13) 0.57889(17)
H10_3 H 0.9995 0.7047 0.8024
H18_3 H 0.9875 0.9143 0.8049
H21_3 H 0.8650 0.9943 0.8015
H40_3 H 0.959912 0.484736 0.875324
H41_3 H 0.851376 0.617578 0.792346
H42_3 H 0.78695 0.570283 0.857108
H46_3 H 0.978806 0.52596 0.698357
H38_5 H 0.168157 0.0198878 0.0249161
H37_5 H 0.154619 0.00398073 0.961967
H35_3 H 0.338603 0.875206 0.0132372
H36_3 H 0.396068 0.912738 0.0248183
H54_3 H 0.661397 0.124794 0.0132372
H55_3 H 0.603932 0.0872623 0.0248183
H53_5 H 0.831843 0.980112 0.0249161
H52_5 H 0.845381 0.996019 0.961967
H51_4 H 0.540088 0.015264 0.875324
H59_4 H 0.459912 0.015264 0.624676
Si1_6 Si 0.5000 0.11646(5) 0.7500
Si2_10 Si 0.5000 0.5000 0.7500
C1_4 C 0.44306(19) 0.15001(12) 0.70327(15)
C2_4 C 0.3854(2) 0.12968(13) 0.67975(18)
H1_4 H 0.3736 0.1014 0.6908
C3_4 C 0.4615(2) 0.19102(13) 0.68377(19)
H2_4 H 0.5005 0.2047 0.6976
C4_4 C 0.4217(2) 0.21245(14) 0.64303(19)
H3_4 H 0.4344 0.2402 0.6305
C5_4 C 0.3458(2) 0.15060(14) 0.64066(18)
H4_4 H 0.3068 0.1368 0.6269
C6_4 C 0.3636(2) 0.19201(12) 0.62163(17)
C7_4 C 0.3231(2) 0.21339(13) 0.57727(16)
C8_4 C 0.4468(2) 0.08096(13) 0.79681(16)
C9_4 C 0.4729(4) 0.0387(2) 0.8178(4)
C10_4 C 0.3773(5) 0.0896(3) 0.8112(4)
C11_4 C 0.4379(6) 0.0145(3) 0.8576(4)
C12_4 C 0.3409(5) 0.0634(4) 0.8488(5)
C13_4 C 0.3719(3) 0.03026(16) 0.8743(2)
C14_4 C 0.3352(3) 0.00408(18) 0.9143(2)
C15_4 C 0.4452(2) 0.46490(11) 0.70342(15)
C16_4 C 0.3828(2) 0.47947(13) 0.68475(18)
H5_4 H 0.3650 0.5057 0.6985
C17_4 C 0.4708(2) 0.42527(12) 0.68237(18)
H6_4 H 0.5125 0.4143 0.6951
C18_4 C 0.4338(2) 0.40190(12) 0.64196(18)
H7_4 H 0.4516 0.3758 0.6280
C19_4 C 0.3447(2) 0.45548(14) 0.64494(19)
H8_4 H 0.3018 0.4654 0.6336
C20_4 C 0.3720(2) 0.41706(11) 0.62302(15)
C21_4 C 0.3326(2) 0.39280(13) 0.57889(17)
C22_4 C 0.55694(19) 0.15001(12) 0.79673(15)
C23_4 C 0.6146(2) 0.12968(13) 0.82025(18)
H9_4 H 0.6264 0.1014 0.8092
C24_4 C 0.5385(2) 0.19102(13) 0.81623(19)
H10_4 H 0.4995 0.2047 0.8024
C25_4 C 0.5783(2) 0.21245(14) 0.85697(19)
H11_4 H 0.5656 0.2402 0.8695
C26_4 C 0.6542(2) 0.15060(14) 0.85934(18)
H12_4 H 0.6932 0.1368 0.8731
C27_4 C 0.6364(2) 0.19201(12) 0.87837(17)
C28_4 C 0.6769(2) 0.21339(13) 0.92273(16)
C29_4 C 0.5532(2) 0.08096(13) 0.70319(16)
C30_4 C 0.5271(4) 0.0387(2) 0.6822(4)
C31_4 C 0.6227(5) 0.0896(3) 0.6888(4)
C32_4 C 0.5621(6) 0.0145(3) 0.6424(4)
C33_4 C 0.6591(5) 0.0634(4) 0.6512(5)
C34_4 C 0.6281(3) 0.03026(16) 0.6257(2)
C35_4 C 0.6648(3) 0.00408(18) 0.5857(2)
C36_4 C 0.5548(2) 0.53510(11) 0.70342(15)
C37_4 C 0.6172(2) 0.52053(13) 0.68475(18)
H13_4 H 0.6350 0.4943 0.6985
C38_4 C 0.5292(2) 0.57473(12) 0.68237(18)
H14_4 H 0.4875 0.5857 0.6951
C39_4 C 0.5662(2) 0.59810(12) 0.64196(18)
H15_4 H 0.5484 0.6242 0.6280
C40_4 C 0.6553(2) 0.54452(14) 0.64494(19)
H16_4 H 0.6982 0.5346 0.6336
C41_4 C 0.6280(2) 0.58294(11) 0.62302(15)
C42_4 C 0.6674(2) 0.60720(13) 0.57889(17)
C43_4 C 0.5548(2) 0.46490(11) 0.79658(15)
C44_4 C 0.6172(2) 0.47947(13) 0.81525(18)
H17_4 H 0.6350 0.5057 0.8015
C45_4 C 0.5292(2) 0.42527(12) 0.81763(18)
H18_4 H 0.4875 0.4143 0.8049
C46_4 C 0.5662(2) 0.40190(12) 0.85804(18)
H19_4 H 0.5484 0.3758 0.8720
C47_4 C 0.6553(2) 0.45548(14) 0.85506(19)
H20_4 H 0.6982 0.4654 0.8664
C48_4 C 0.6280(2) 0.41706(11) 0.87698(15)
C49_4 C 0.6674(2) 0.39280(13) 0.92111(17)
C50_4 C 0.4452(2) 0.53510(11) 0.79658(15)
C51_4 C 0.3828(2) 0.52053(13) 0.81525(18)
H21_4 H 0.3650 0.4943 0.8015
C52_4 C 0.4708(2) 0.57473(12) 0.81763(18)
H22_4 H 0.5125 0.5857 0.8049
C53_4 C 0.4338(2) 0.59810(12) 0.85804(18)
H23_4 H 0.4516 0.6242 0.8720
C54_4 C 0.3447(2) 0.54452(14) 0.85506(19)
H24_4 H 0.3018 0.5346 0.8664
C55_4 C 0.3720(2) 0.58294(11) 0.87698(15)
C56_4 C 0.3326(2) 0.60720(13) 0.92111(17)
Si3_6 Si 0.5000 0.88354(5) 0.7500
C57_4 C 0.55694(19) 0.84999(12) 0.70327(15)
C58_4 C 0.6146(2) 0.87032(13) 0.67975(18)
H25_4 H 0.6264 0.8986 0.6908
C59_4 C 0.5385(2) 0.80898(13) 0.68377(19)
H26_4 H 0.4995 0.7953 0.6976
C60_4 C 0.5783(2) 0.78755(14) 0.64303(19)
H27_4 H 0.5656 0.7598 0.6305
C61_4 C 0.6542(2) 0.84940(14) 0.64066(18)
H28_4 H 0.6932 0.8632 0.6269
C62_4 C 0.6364(2) 0.80799(12) 0.62163(17)
C63_4 C 0.6769(2) 0.78661(13) 0.57727(16)
C64_4 C 0.5532(2) 0.91904(13) 0.79681(16)
C65_4 C 0.5271(4) 0.9613(2) 0.8178(4)
C66_4 C 0.6227(5) 0.9104(3) 0.8112(4)
C67_4 C 0.5621(6) 0.9855(3) 0.8576(4)
C68_4 C 0.6591(5) 0.9366(4) 0.8488(5)
C69_4 C 0.6281(3) 0.96974(16) 0.8743(2)
C70_4 C 0.6648(3) 0.99592(18) 0.9143(2)
C71_4 C 0.44306(19) 0.84999(12) 0.79673(15)
C72_4 C 0.3854(2) 0.87032(13) 0.82025(18)
H29_4 H 0.3736 0.8986 0.8092
C73_4 C 0.4615(2) 0.80898(13) 0.81623(19)
H30_4 H 0.5005 0.7953 0.8024
C74_4 C 0.4217(2) 0.78755(14) 0.85697(19)
H31_4 H 0.4344 0.7598 0.8695
C75_4 C 0.3458(2) 0.84940(14) 0.85934(18)
H32_4 H 0.3068 0.8632 0.8731
C76_4 C 0.3636(2) 0.80799(12) 0.87837(17)
C77_4 C 0.3231(2) 0.78661(13) 0.92273(16)
C78_4 C 0.4468(2) 0.91904(13) 0.70319(16)
C79_4 C 0.4729(4) 0.9613(2) 0.6822(4)
C80_4 C 0.3773(5) 0.9104(3) 0.6888(4)
C81_4 C 0.4379(6) 0.9855(3) 0.6424(4)
C82_4 C 0.3409(5) 0.9366(4) 0.6512(5)
C83_4 C 0.3719(3) 0.96974(16) 0.6257(2)
C84_4 C 0.3352(3) 0.99592(18) 0.5857(2)
H39_4 H 0.521194 0.0259604 0.801643
H41_4 H 0.351376 0.117578 0.792346
H42_4 H 0.28695 0.0702827 0.857108
H44_4 H 0.648624 0.117578 0.707654
H45_4 H 0.71305 0.0702827 0.642892
H46_4 H 0.478806 0.0259604 0.698357
H49_4 H 0.71305 0.929717 0.857108
H50_4 H 0.478806 0.97404 0.801643
H56_4 H 0.648624 0.882422 0.792346
H57_4 H 0.28695 0.929717 0.642892
H58_4 H 0.351376 0.882422 0.707654
H60_4 H 0.521194 0.97404 0.698357
H40_4 H 0.459912 0.984736 0.875324
H43_4 H 0.540088 0.984736 0.624676
H35_4 H 0.838603 0.375206 0.0132372
H36_4 H 0.896068 0.412738 0.0248183
H38_6 H 0.668157 0.519888 0.0249161
H53_6 H 0.331843 0.480112 0.0249161
H54_4 H 0.161397 0.624794 0.0132372
H55_4 H 0.103932 0.587262 0.0248183
H37_6 H 0.654619 0.503981 0.961967
H52_6 H 0.345381 0.496019 0.961967
loop_
_geom_bond_atom_site_label_1
_geom_bond_atom_site_label_2
_geom_bond_site_symmetry_1
_geom_bond_site_symmetry_2
Er1 O1 1_555 1_555
Er2 O5 1_555 1_555
Si1 C1 1_555 1_555
Si2 C15 1_555 1_555
O1 C7 1_555 1_555
O2 C7 1_555 1_555
O3 C14 1_555 1_555
O4 C14 1_555 1_555
O5 C21 1_555 1_555
O6 Er1 1_555 1_555
O7 Er1 1_555 1_555
O8 Er2 1_555 1_555
O9 Er2 1_555 1_555
C1 C2 1_555 1_555
C2 H1 1_555 1_555
C3 C1 1_555 1_555
C4 C3 1_555 1_555
H3 C4 1_555 1_555
C5 C2 1_555 1_555
H4 C5 1_555 1_555
C6 C4 1_555 1_555
C7 C6 1_555 1_555
C8 Si1 1_555 1_555
C9 C8 1_555 1_555
C10 C8 1_555 1_555
C11 C9 1_555 1_555
C12 C10 1_555 1_555
C13 C11 1_555 1_555
C14 C13 1_555 1_555
C15 C16 1_555 1_555
C17 C15 1_555 1_555
C18 C17 1_555 1_555
H7 C18 1_555 1_555
C19 C16 1_555 1_555
H8 C19 1_555 1_555
C20 C18 1_555 1_555
C21 O6 1_555 1_555
Er8 O2 1_555 1_555
Er15 O3 1_555 1_555
O32 Er1 1_555 1_555
O34 Er1 1_555 1_555
O35 Er1 1_555 1_555
O37 Er2 1_555 1_555
O40 Er2 1_555 1_555
O46 Er2 1_555 1_555
O48 Er1 1_555 1_555
O4 Er15 1_555 1_555
C5 C6 1_555 1_555
C12 C13 1_555 1_555
C19 C20 1_555 1_555
C20 C21 1_555 1_555
C11 H40 1_555 1_555
C10 H41 1_555 1_555
C12 H42 1_555 1_555
O18 C56 1_555 1_555
O19 C56 1_555 1_555
C50 Si2_2 1_555 1_555
C51 C50 1_555 1_555
C52 C50 1_555 1_555
C53 C52 1_555 1_555
H23 C53 1_555 1_555
C54 C51 1_555 1_555
H24 C54 1_555 1_555
C55 C53 1_555 1_555
C56 C55 1_555 1_555
O27 C77 1_555 1_555
O28 C77 1_555 1_555
O29 C84 1_555 1_555
O30 C84 1_555 1_555
C71 Si3 1_555 1_555
C72 C71 1_555 1_555
H29 C72 1_555 1_555
C73 C71 1_555 1_555
C74 C73 1_555 1_555
H31 C74 1_555 1_555
C75 C72 1_555 1_555
H32 C75 1_555 1_555
C76 C74 1_555 1_555
C77 C76 1_555 1_555
C78 Si3 1_555 1_555
C79 C78 1_555 1_555
C80 C78 1_555 1_555
C81 C79 1_555 1_555
C82 C80 1_555 1_555
C83 C81 1_555 1_555
C84 C83 1_555 1_555
Er6 O19 1_555 1_555
Er9 O28 1_555 1_555
Er12 O18 1_555 1_555
Er14 O29 1_555 1_555
C54 C55 1_555 1_555
O27 Er6 1_555 1_555
O30 Er14 1_555 1_555
C75 C76 1_555 1_555
C82 C83 1_555 1_555
C82 H57 1_555 1_555
C80 H58 1_555 1_555
C81 H59 1_555 1_555
O10 C28 1_555 1_555
O11 C28 1_555 1_555
O12 C35 1_555 1_555
O13 C35 1_555 1_555
C22 Si1_2 1_555 1_555
C23 C22 1_555 1_555
H9 C23 1_555 1_555
C24 C22 1_555 1_555
C25 C24 1_555 1_555
H11 C25 1_555 1_555
C26 C23 1_555 1_555
H12 C26 1_555 1_555
C27 C25 1_555 1_555
C28 C27 1_555 1_555
C29 Si1_2 1_555 1_555
C30 C29 1_555 1_555
C31 C29 1_555 1_555
C32 C30 1_555 1_555
C33 C31 1_555 1_555
C34 C32 1_555 1_555
C35 C34 1_555 1_555
O16 C49 1_555 1_555
O17 C49 1_555 1_555
C43 Si2_3 1_555 1_555
C44 C43 1_555 1_555
C45 C43 1_555 1_555
C46 C45 1_555 1_555
H19 C46 1_555 1_555
C47 C44 1_555 1_555
H20 C47 1_555 1_555
C48 C46 1_555 1_555
C49 C48 1_555 1_555
Er5 O10 1_555 1_555
Er10 O11 1_555 1_555
Er11 O16 1_555 1_555
Er13 O12 1_555 1_555
O13 Er13 1_555 1_555
C26 C27 1_555 1_555
C33 C34 1_555 1_555
O17 Er5 1_555 1_555
C47 C48 1_555 1_555
C32 H43 1_555 1_555
C31 H44 1_555 1_555
C33 H45 1_555 1_555
O14 C42 1_555 1_555
O15 C42 1_555 1_555
C36 Si2_4 1_555 1_555
C37 C36 1_555 1_555
C38 C36 1_555 1_555
C39 C38 1_555 1_555
H15 C39 1_555 1_555
C40 C37 1_555 1_555
H16 C40 1_555 1_555
C41 C39 1_555 1_555
C42 C41 1_555 1_555
Er3 O15 1_555 1_555
Er4 O14 1_555 1_555
Si3_2 C57 1_555 1_555
O20 Er3 1_555 1_555
O21 C63 1_555 1_555
O22 C70 1_555 1_555
O23 C70 1_555 1_555
O24 Er3 1_555 1_555
O25 Er4 1_555 1_555
O26 Er4 1_555 1_555
C57 C58 1_555 1_555
C58 H25 1_555 1_555
C59 C57 1_555 1_555
C60 C59 1_555 1_555
H27 C60 1_555 1_555
C61 C58 1_555 1_555
H28 C61 1_555 1_555
C62 C60 1_555 1_555
C63 O20 1_555 1_555
C64 Si3_2 1_555 1_555
C65 C64 1_555 1_555
C66 C64 1_555 1_555
C67 C65 1_555 1_555
C68 C66 1_555 1_555
C69 C67 1_555 1_555
C70 C69 1_555 1_555
Er7 O21 1_555 1_555
Er16 O22 1_555 1_555
O31 Er3 1_555 1_555
O33 Er3 1_555 1_555
O36 Er3 1_555 1_555
O38 Er4 1_555 1_555
O39 Er4 1_555 1_555
O45 Er4 1_555 1_555
O47 Er3 1_555 1_555
C40 C41 1_555 1_555
O23 Er16 1_555 1_555
C61 C62 1_555 1_555
C62 C63 1_555 1_555
C68 C69 1_555 1_555
C68 H49 1_555 1_555
C67 H51 1_555 1_555
C66 H56 1_555 1_555
O24_2 Er6 1_555 1_555
O25_2 Er12 1_555 1_555
O26_2 Er12 1_555 1_555
O33_2 Er6 1_555 1_555
O38_2 Er12 1_555 1_555
O24_3 Er6_2 1_555 1_555
O25_3 Er12_2 1_555 1_555
O26_3 Er12_2 1_555 1_555
O31_2 Er6_2 1_555 1_555
O36_2 Er6_2 1_555 1_555
O39_2 Er12_2 1_555 1_555
O45_2 Er12_2 1_555 1_555
O47_2 Er6_2 1_555 1_555
O25_3 H54 1_555 1_555
O25_3 H55 1_555 1_555
O7_2 Er5 1_555 1_555
O8_2 Er11 1_555 1_555
O9_2 Er11 1_555 1_555
O34_2 Er5 1_555 1_555
O37_2 Er11 1_555 1_555
O7_3 Er5_2 1_555 1_555
O8_3 Er11_2 1_555 1_555
O9_3 Er11_2 1_555 1_555
O32_2 Er5_2 1_555 1_555
O35_2 Er5_2 1_555 1_555
O40_2 Er11_2 1_555 1_555
O46_2 Er11_2 1_555 1_555
O48_2 Er5_2 1_555 1_555
O8_3 H35 1_555 1_555
O8_3 H36 1_555 1_555
Er7 O1_2 1_555 1_555
Er13 O5_2 1_555 1_555
Si1_3 C1_2 1_555 1_555
Si2_5 C15_2 1_555 1_555
O1_2 C7_2 1_555 1_555
O33 C7_2 1_555 1_555
O41_2 C14_2 1_555 1_555
O5_2 C21_2 1_555 1_555
O6_2 Er7 1_555 1_555
O7_4 Er7 1_555 1_555
O8_4 Er13 1_555 1_555
O9_4 Er13 1_555 1_555
C1_2 C2_2 1_555 1_555
C2_2 H1_2 1_555 1_555
C3_2 C1_2 1_555 1_555
H2_2 C3_2 1_555 1_555
C4_2 C3_2 1_555 1_555
H3_2 C4_2 1_555 1_555
C5_2 C2_2 1_555 1_555
H4_2 C5_2 1_555 1_555
C6_2 C4_2 1_555 1_555
C7_2 C6_2 1_555 1_555
C8_2 Si1_3 1_555 1_555
C9_2 C8_2 1_555 1_555
C10_2 C8_2 1_555 1_555
C11_2 C9_2 1_555 1_555
C12_2 C10_2 1_555 1_555
C13_2 C11_2 1_555 1_555
C14_2 C13_2 1_555 1_555
C15_2 C16_2 1_555 1_555
C16_2 H5_2 1_555 1_555
C17_2 C15_2 1_555 1_555
H6_2 C17_2 1_555 1_555
C18_2 C17_2 1_555 1_555
H7_2 C18_2 1_555 1_555
C19_2 C16_2 1_555 1_555
H8_2 C19_2 1_555 1_555
C20_2 C18_2 1_555 1_555
C21_2 O6_2 1_555 1_555
O10_2 C28_2 1_555 1_555
O33_2 C28_2 1_555 1_555
O41 C35_2 1_555 1_555
C22_2 Si1_3 1_555 1_555
C23_2 C22_2 1_555 1_555
H9_2 C23_2 1_555 1_555
C24_2 C22_2 1_555 1_555
H10_2 C24_2 1_555 1_555
C25_2 C24_2 1_555 1_555
H11_2 C25_2 1_555 1_555
C26_2 C23_2 1_555 1_555
H12_2 C26_2 1_555 1_555
C27_2 C25_2 1_555 1_555
C28_2 C27_2 1_555 1_555
C29_2 Si1_3 1_555 1_555
C30_2 C29_2 1_555 1_555
C31_2 C29_2 1_555 1_555
C32_2 C30_2 1_555 1_555
C33_2 C31_2 1_555 1_555
C34_2 C32_2 1_555 1_555
C35_2 C34_2 1_555 1_555
O14_2 C42_2 1_555 1_555
O15_2 C42_2 1_555 1_555
C36_2 Si2_5 1_555 1_555
C37_2 C36_2 1_555 1_555
H13_2 C37_2 1_555 1_555
C38_2 C36_2 1_555 1_555
H14_2 C38_2 1_555 1_555
C39_2 C38_2 1_555 1_555
H15_2 C39_2 1_555 1_555
C40_2 C37_2 1_555 1_555
H16_2 C40_2 1_555 1_555
C41_2 C39_2 1_555 1_555
C42_2 C41_2 1_555 1_555
O16_2 C49_2 1_555 1_555
O17_2 C49_2 1_555 1_555
C43_2 Si2_5 1_555 1_555
C44_2 C43_2 1_555 1_555
H17_2 C44_2 1_555 1_555
C45_2 C43_2 1_555 1_555
H18_2 C45_2 1_555 1_555
C46_2 C45_2 1_555 1_555
H19_2 C46_2 1_555 1_555
C47_2 C44_2 1_555 1_555
H20_2 C47_2 1_555 1_555
C48_2 C46_2 1_555 1_555
C49_2 C48_2 1_555 1_555
O18_2 C56_2 1_555 1_555
O19_2 C56_2 1_555 1_555
C50_2 Si2_5 1_555 1_555
C51_2 C50_2 1_555 1_555
H21_2 C51_2 1_555 1_555
C52_2 C50_2 1_555 1_555
H22_2 C52_2 1_555 1_555
C53_2 C52_2 1_555 1_555
H23_2 C53_2 1_555 1_555
C54_2 C51_2 1_555 1_555
H24_2 C54_2 1_555 1_555
C55_2 C53_2 1_555 1_555
C56_2 C55_2 1_555 1_555
Er8 O15_2 1_555 1_555
Er14 O14_2 1_555 1_555
Si3_3 C57_2 1_555 1_555
O20_2 Er8 1_555 1_555
O34 C63_2 1_555 1_555
O42_2 C70_2 1_555 1_555
O24_4 Er8 1_555 1_555
O25_4 Er14 1_555 1_555
O26_4 Er14 1_555 1_555
C57_2 C58_2 1_555 1_555
C58_2 H25_2 1_555 1_555
C59_2 C57_2 1_555 1_555
H26_2 C59_2 1_555 1_555
C60_2 C59_2 1_555 1_555
H27_2 C60_2 1_555 1_555
C61_2 C58_2 1_555 1_555
H28_2 C61_2 1_555 1_555
C62_2 C60_2 1_555 1_555
C63_2 O20_2 1_555 1_555
C64_2 Si3_3 1_555 1_555
C65_2 C64_2 1_555 1_555
C66_2 C64_2 1_555 1_555
C67_2 C65_2 1_555 1_555
C68_2 C66_2 1_555 1_555
C69_2 C67_2 1_555 1_555
C70_2 C69_2 1_555 1_555
O27_2 C77_2 1_555 1_555
O34_2 C77_2 1_555 1_555
O42 C84_2 1_555 1_555
C71_2 Si3_3 1_555 1_555
C72_2 C71_2 1_555 1_555
H29_2 C72_2 1_555 1_555
C73_2 C71_2 1_555 1_555
H30_2 C73_2 1_555 1_555
C74_2 C73_2 1_555 1_555
H31_2 C74_2 1_555 1_555
C75_2 C72_2 1_555 1_555
H32_2 C75_2 1_555 1_555
C76_2 C74_2 1_555 1_555
C77_2 C76_2 1_555 1_555
C78_2 Si3_3 1_555 1_555
C79_2 C78_2 1_555 1_555
C80_2 C78_2 1_555 1_555
C81_2 C79_2 1_555 1_555
C82_2 C80_2 1_555 1_555
C83_2 C81_2 1_555 1_555
C84_2 C83_2 1_555 1_555
Er9 O10_2 1_555 1_555
Er10 O19_2 1_555 1_555
Er15 O16_2 1_555 1_555
Er16 O18_2 1_555 1_555
O31_3 Er8 1_555 1_555
O32_3 Er7 1_555 1_555
O35_3 Er7 1_555 1_555
O36_3 Er8 1_555 1_555
O39_3 Er14 1_555 1_555
O40_3 Er13 1_555 1_555
O43_3 Er14 1_555 1_555
O44_3 Er13 1_555 1_555
O45_3 Er14 1_555 1_555
O46_3 Er13 1_555 1_555
O47_3 Er8 1_555 1_555
O48_3 Er7 1_555 1_555
C5_2 C6_2 1_555 1_555
C12_2 C13_2 1_555 1_555
C19_2 C20_2 1_555 1_555
C20_2 C21_2 1_555 1_555
C26_2 C27_2 1_555 1_555
C33_2 C34_2 1_555 1_555
C40_2 C41_2 1_555 1_555
O17_2 Er9 1_555 1_555
C47_2 C48_2 1_555 1_555
C54_2 C55_2 1_555 1_555
C61_2 C62_2 1_555 1_555
C62_2 C63_2 1_555 1_555
C68_2 C69_2 1_555 1_555
O27_2 Er10 1_555 1_555
C75_2 C76_2 1_555 1_555
C82_2 C83_2 1_555 1_555
C9_2 H39_2 1_555 1_555
C10_2 H41_2 1_555 1_555
C12_2 H42_2 1_555 1_555
C31_2 H44_2 1_555 1_555
C33_2 H45_2 1_555 1_555
C30_2 H46_2 1_555 1_555
C68_2 H49_2 1_555 1_555
C65_2 H50_2 1_555 1_555
C66_2 H56_2 1_555 1_555
C82_2 H57_2 1_555 1_555
C80_2 H58_2 1_555 1_555
C79_2 H60_2 1_555 1_555
O7_5 Er9 1_555 1_555
O8_5 Er15 1_555 1_555
O9_5 Er15 1_555 1_555
O24_5 Er10 1_555 1_555
O25_5 Er16 1_555 1_555
O26_5 Er16 1_555 1_555
O9_5 H37_3 1_555 1_555
O26_5 H52_3 1_555 1_555
O7_6 Er9_2 1_555 1_555
O8_6 Er15_2 1_555 1_555
O9_6 Er15_2 1_555 1_555
O24_6 Er10_2 1_555 1_555
O25_6 Er16_2 1_555 1_555
O26_6 Er16_2 1_555 1_555
O31_4 Er10_2 1_555 1_555
O32_4 Er9_2 1_555 1_555
O35_4 Er9_2 1_555 1_555
O36_4 Er10_2 1_555 1_555
O39_4 Er16_2 1_555 1_555
O40_4 Er15_2 1_555 1_555
O43_4 Er16_2 1_555 1_555
O44_4 Er15_2 1_555 1_555
O45_4 Er16_2 1_555 1_555
O46_4 Er15_2 1_555 1_555
O47_4 Er10_2 1_555 1_555
O48_4 Er9_2 1_555 1_555
O8_6 H35_2 1_555 1_555
O8_6 H36_2 1_555 1_555
O9_6 H38_3 1_555 1_555
O26_6 H53_3 1_555 1_555
O25_6 H54_2 1_555 1_555
O25_6 H55_2 1_555 1_555
O46 C42_3 1_555 1_555
O48 C42_3 1_555 1_555
C36_3 Si2_6 1_555 1_555
C37_3 C36_3 1_555 1_555
C38_3 C36_3 1_555 1_555
C39_3 C38_3 1_555 1_555
H15_3 C39_3 1_555 1_555
C40_3 C37_3 1_555 1_555
H16_3 C40_3 1_555 1_555
C41_3 C39_3 1_555 1_555
C42_3 C41_3 1_555 1_555
Si3_4 C57_3 1_555 1_555
O36_3 C63_3 1_555 1_555
O40_4 C70_3 1_555 1_555
O44_4 C70_3 1_555 1_555
C57_3 C58_3 1_555 1_555
C58_3 H25_3 1_555 1_555
C59_3 C57_3 1_555 1_555
C60_3 C59_3 1_555 1_555
H27_3 C60_3 1_555 1_555
C61_3 C58_3 1_555 1_555
H28_3 C61_3 1_555 1_555
C62_3 C60_3 1_555 1_555
C63_3 O32 1_555 1_555
C64_3 Si3_4 1_555 1_555
C65_3 C64_3 1_555 1_555
C66_3 C64_3 1_555 1_555
C67_3 C65_3 1_555 1_555
C68_3 C66_3 1_555 1_555
C69_3 C67_3 1_555 1_555
C70_3 C69_3 1_555 1_555
C40_3 C41_3 1_555 1_555
C61_3 C62_3 1_555 1_555
C62_3 C63_3 1_555 1_555
C68_3 C69_3 1_555 1_555
C68_3 H49_3 1_555 1_555
C67_3 H51_3 1_555 1_555
C66_3 H56_3 1_555 1_555
O31_2 C28_3 1_555 1_555
O35_4 C28_3 1_555 1_555
O39_3 C35_3 1_555 1_555
O43_3 C35_3 1_555 1_555
C22_3 Si1_4 1_555 1_555
C23_3 C22_3 1_555 1_555
H9_3 C23_3 1_555 1_555
C24_3 C22_3 1_555 1_555
C25_3 C24_3 1_555 1_555
H11_3 C25_3 1_555 1_555
C26_3 C23_3 1_555 1_555
H12_3 C26_3 1_555 1_555
C27_3 C25_3 1_555 1_555
C28_3 C27_3 1_555 1_555
C29_3 Si1_4 1_555 1_555
C30_3 C29_3 1_555 1_555
C31_3 C29_3 1_555 1_555
C32_3 C30_3 1_555 1_555
C33_3 C31_3 1_555 1_555
C34_3 C32_3 1_555 1_555
C35_3 C34_3 1_555 1_555
O45_2 C49_3 1_555 1_555
O47_2 C49_3 1_555 1_555
C43_3 Si2_7 1_555 1_555
C44_3 C43_3 1_555 1_555
C45_3 C43_3 1_555 1_555
C46_3 C45_3 1_555 1_555
H19_3 C46_3 1_555 1_555
C47_3 C44_3 1_555 1_555
H20_3 C47_3 1_555 1_555
C48_3 C46_3 1_555 1_555
C49_3 C48_3 1_555 1_555
C26_3 C27_3 1_555 1_555
C33_3 C34_3 1_555 1_555
C47_3 C48_3 1_555 1_555
C32_3 H43_3 1_555 1_555
C31_3 H44_3 1_555 1_555
C33_3 H45_3 1_555 1_555
O46_2 C56_3 1_555 1_555
O48_2 C56_3 1_555 1_555
C50_3 Si2_8 1_555 1_555
C51_3 C50_3 1_555 1_555
C52_3 C50_3 1_555 1_555
C53_3 C52_3 1_555 1_555
H23_3 C53_3 1_555 1_555
C54_3 C51_3 1_555 1_555
H24_3 C54_3 1_555 1_555
C55_3 C53_3 1_555 1_555
C56_3 C55_3 1_555 1_555
O32_2 C77_3 1_555 1_555
O36_4 C77_3 1_555 1_555
O40_3 C84_3 1_555 1_555
O44_3 C84_3 1_555 1_555
C71_3 Si3_5 1_555 1_555
C72_3 C71_3 1_555 1_555
H29_3 C72_3 1_555 1_555
C73_3 C71_3 1_555 1_555
C74_3 C73_3 1_555 1_555
H31_3 C74_3 1_555 1_555
C75_3 C72_3 1_555 1_555
H32_3 C75_3 1_555 1_555
C76_3 C74_3 1_555 1_555
C77_3 C76_3 1_555 1_555
C78_3 Si3_5 1_555 1_555
C79_3 C78_3 1_555 1_555
C80_3 C78_3 1_555 1_555
C81_3 C79_3 1_555 1_555
C82_3 C80_3 1_555 1_555
C83_3 C81_3 1_555 1_555
C84_3 C83_3 1_555 1_555
C54_3 C55_3 1_555 1_555
C75_3 C76_3 1_555 1_555
C82_3 C83_3 1_555 1_555
C82_3 H57_3 1_555 1_555
C80_3 H58_3 1_555 1_555
C81_3 H59_3 1_555 1_555
Si1_5 C1_3 1_555 1_555
Si2_9 C15_3 1_555 1_555
O31 C7_3 1_555 1_555
O35_3 C7_3 1_555 1_555
O39_4 C14_3 1_555 1_555
O43_4 C14_3 1_555 1_555
O45 C21_3 1_555 1_555
C1_3 C2_3 1_555 1_555
C2_3 H1_3 1_555 1_555
C3_3 C1_3 1_555 1_555
C4_3 C3_3 1_555 1_555
H3_3 C4_3 1_555 1_555
C5_3 C2_3 1_555 1_555
H4_3 C5_3 1_555 1_555
C6_3 C4_3 1_555 1_555
C7_3 C6_3 1_555 1_555
C8_3 Si1_5 1_555 1_555
C9_3 C8_3 1_555 1_555
C10_3 C8_3 1_555 1_555
C11_3 C9_3 1_555 1_555
C12_3 C10_3 1_555 1_555
C13_3 C11_3 1_555 1_555
C14_3 C13_3 1_555 1_555
C15_3 C16_3 1_555 1_555
C17_3 C15_3 1_555 1_555
C18_3 C17_3 1_555 1_555
H7_3 C18_3 1_555 1_555
C19_3 C16_3 1_555 1_555
H8_3 C19_3 1_555 1_555
C20_3 C18_3 1_555 1_555
C21_3 O47 1_555 1_555
C5_3 C6_3 1_555 1_555
C12_3 C13_3 1_555 1_555
C19_3 C20_3 1_555 1_555
C20_3 C21_3 1_555 1_555
C11_3 H40_3 1_555 1_555
C10_3 H41_3 1_555 1_555
C12_3 H42_3 1_555 1_555
O25_2 H35_3 1_555 1_555
O25_2 H36_3 1_555 1_555
O8_2 H54_3 1_555 1_555
O8_2 H55_3 1_555 1_555
Si1_6 C1_4 1_555 1_555
Si2_10 C15_4 1_555 1_555
O31_3 C7_4 1_555 1_555
O35 C7_4 1_555 1_555
O43_2 C14_4 1_555 1_555
O45_3 C21_4 1_555 1_555
C1_4 C2_4 1_555 1_555
C2_4 H1_4 1_555 1_555
C3_4 C1_4 1_555 1_555
H2_4 C3_4 1_555 1_555
C4_4 C3_4 1_555 1_555
H3_4 C4_4 1_555 1_555
C5_4 C2_4 1_555 1_555
H4_4 C5_4 1_555 1_555
C6_4 C4_4 1_555 1_555
C7_4 C6_4 1_555 1_555
C8_4 Si1_6 1_555 1_555
C9_4 C8_4 1_555 1_555
C10_4 C8_4 1_555 1_555
C11_4 C9_4 1_555 1_555
C12_4 C10_4 1_555 1_555
C13_4 C11_4 1_555 1_555
C14_4 C13_4 1_555 1_555
C15_4 C16_4 1_555 1_555
C16_4 H5_4 1_555 1_555
C17_4 C15_4 1_555 1_555
H6_4 C17_4 1_555 1_555
C18_4 C17_4 1_555 1_555
H7_4 C18_4 1_555 1_555
C19_4 C16_4 1_555 1_555
H8_4 C19_4 1_555 1_555
C20_4 C18_4 1_555 1_555
C21_4 O47_3 1_555 1_555
O31_4 C28_4 1_555 1_555
O35_2 C28_4 1_555 1_555
O43 C35_4 1_555 1_555
C22_4 Si1_6 1_555 1_555
C23_4 C22_4 1_555 1_555
H9_4 C23_4 1_555 1_555
C24_4 C22_4 1_555 1_555
H10_4 C24_4 1_555 1_555
C25_4 C24_4 1_555 1_555
H11_4 C25_4 1_555 1_555
C26_4 C23_4 1_555 1_555
H12_4 C26_4 1_555 1_555
C27_4 C25_4 1_555 1_555
C28_4 C27_4 1_555 1_555
C29_4 Si1_6 1_555 1_555
C30_4 C29_4 1_555 1_555
C31_4 C29_4 1_555 1_555
C32_4 C30_4 1_555 1_555
C33_4 C31_4 1_555 1_555
C34_4 C32_4 1_555 1_555
C35_4 C34_4 1_555 1_555
O46_3 C42_4 1_555 1_555
O48_3 C42_4 1_555 1_555
C36_4 Si2_10 1_555 1_555
C37_4 C36_4 1_555 1_555
H13_4 C37_4 1_555 1_555
C38_4 C36_4 1_555 1_555
H14_4 C38_4 1_555 1_555
C39_4 C38_4 1_555 1_555
H15_4 C39_4 1_555 1_555
C40_4 C37_4 1_555 1_555
H16_4 C40_4 1_555 1_555
C41_4 C39_4 1_555 1_555
C42_4 C41_4 1_555 1_555
O45_4 C49_4 1_555 1_555
O47_4 C49_4 1_555 1_555
C43_4 Si2_10 1_555 1_555
C44_4 C43_4 1_555 1_555
H17_4 C44_4 1_555 1_555
C45_4 C43_4 1_555 1_555
H18_4 C45_4 1_555 1_555
C46_4 C45_4 1_555 1_555
H19_4 C46_4 1_555 1_555
C47_4 C44_4 1_555 1_555
H20_4 C47_4 1_555 1_555
C48_4 C46_4 1_555 1_555
C49_4 C48_4 1_555 1_555
O46_4 C56_4 1_555 1_555
O48_4 C56_4 1_555 1_555
C50_4 Si2_10 1_555 1_555
C51_4 C50_4 1_555 1_555
H21_4 C51_4 1_555 1_555
C52_4 C50_4 1_555 1_555
H22_4 C52_4 1_555 1_555
C53_4 C52_4 1_555 1_555
H23_4 C53_4 1_555 1_555
C54_4 C51_4 1_555 1_555
H24_4 C54_4 1_555 1_555
C55_4 C53_4 1_555 1_555
C56_4 C55_4 1_555 1_555
Si3_6 C57_4 1_555 1_555
O36 C63_4 1_555 1_555
O44_2 C70_4 1_555 1_555
C57_4 C58_4 1_555 1_555
C58_4 H25_4 1_555 1_555
C59_4 C57_4 1_555 1_555
H26_4 C59_4 1_555 1_555
C60_4 C59_4 1_555 1_555
H27_4 C60_4 1_555 1_555
C61_4 C58_4 1_555 1_555
H28_4 C61_4 1_555 1_555
C62_4 C60_4 1_555 1_555
C63_4 O32_3 1_555 1_555
C64_4 Si3_6 1_555 1_555
C65_4 C64_4 1_555 1_555
C66_4 C64_4 1_555 1_555
C67_4 C65_4 1_555 1_555
C68_4 C66_4 1_555 1_555
C69_4 C67_4 1_555 1_555
C70_4 C69_4 1_555 1_555
O32_4 C77_4 1_555 1_555
O36_2 C77_4 1_555 1_555
O44 C84_4 1_555 1_555
C71_4 Si3_6 1_555 1_555
C72_4 C71_4 1_555 1_555
H29_4 C72_4 1_555 1_555
C73_4 C71_4 1_555 1_555
H30_4 C73_4 1_555 1_555
C74_4 C73_4 1_555 1_555
H31_4 C74_4 1_555 1_555
C75_4 C72_4 1_555 1_555
H32_4 C75_4 1_555 1_555
C76_4 C74_4 1_555 1_555
C77_4 C76_4 1_555 1_555
C78_4 Si3_6 1_555 1_555
C79_4 C78_4 1_555 1_555
C80_4 C78_4 1_555 1_555
C81_4 C79_4 1_555 1_555
C82_4 C80_4 1_555 1_555
C83_4 C81_4 1_555 1_555
C84_4 C83_4 1_555 1_555
C5_4 C6_4 1_555 1_555
C12_4 C13_4 1_555 1_555
C19_4 C20_4 1_555 1_555
C20_4 C21_4 1_555 1_555
C26_4 C27_4 1_555 1_555
C33_4 C34_4 1_555 1_555
C40_4 C41_4 1_555 1_555
C47_4 C48_4 1_555 1_555
C54_4 C55_4 1_555 1_555
C61_4 C62_4 1_555 1_555
C62_4 C63_4 1_555 1_555
C68_4 C69_4 1_555 1_555
C75_4 C76_4 1_555 1_555
C82_4 C83_4 1_555 1_555
C9_4 H39_4 1_555 1_555
C10_4 H41_4 1_555 1_555
C12_4 H42_4 1_555 1_555
C31_4 H44_4 1_555 1_555
C33_4 H45_4 1_555 1_555
C30_4 H46_4 1_555 1_555
C68_4 H49_4 1_555 1_555
C65_4 H50_4 1_555 1_555
C66_4 H56_4 1_555 1_555
C82_4 H57_4 1_555 1_555
C80_4 H58_4 1_555 1_555
C79_4 H60_4 1_555 1_555
O25_5 H35_4 1_555 1_555
O25_5 H36_4 1_555 1_555
O26_5 H38_6 1_555 1_555
O9_5 H53_6 1_555 1_555
O8_5 H54_4 1_555 1_555
O8_5 H55_4 1_555 1_555
O26_6 H37_6 1_555 1_555
O9_6 H52_6 1_555 1_555

#END
