
###############################################################################
#
# This file contains modified crystal structure data generated from the
# MOF subset of the Cambridge Structural Database (CSD) v543 
# hosted by the Cambridge Crystallographic Data Centre (CCDC).
#
# This work is licensed under the Creative Commons
# Attribution-NonCommercial-ShareAlike 4.0 International License.
# To view a copy of this license, visit
# http://creativecommons.org/licenses/by-nc-sa/4.0/
# or send a letter to
# Creative Commons, PO Box 1866, Mountain View, CA 94042, USA.
#
# CIF created using the CSD Python API on 29 September 2022
# The structure has been converted into the P1 space group
# The structure has a 3D framework
# The original CSD entry ZEXWOR01 is in the tetragonal crystal system
# The framework has been calculated to contain at least 10.0% void space
# The void calculation uses a probe of radius 1.32A, grid spacing 0.4
# The framework is charged, counterions have been retained in the structure
#
###############################################################################

data_ZEXWOR01
_chemical_formula_moiety         '(C368 H384 B32 Fe16 N128)n'
_symmetry_cell_setting           triclinic
_symmetry_space_group_name_H-M   'P 1'
_symmetry_Int_Tables_number      1
_space_group_name_Hall           'P 1'
loop_
_symmetry_equiv_pos_site_id
_symmetry_equiv_pos_as_xyz
1 x,y,z
_cell_length_a                   21.983(3)
_cell_length_b                   21.983(3)
_cell_length_c                   28.972(6)
_cell_angle_alpha                90
_cell_angle_beta                 90
_cell_angle_gamma                90
_cell_volume                     14000.8
loop_
_atom_site_label
_atom_site_type_symbol
_atom_site_fract_x
_atom_site_fract_y
_atom_site_fract_z
Fe1 Fe 0.00023(4) 0.25420(3) 0.12387(2)
N1 N 0.0196(3) 0.2429(3) 0.04931(17)
C2 C 0.0304(3) 0.1892(3) 0.0315(2)
H2 H 0.0277 0.1554 0.0507
C3 C 0.0254(4) 0.2913(3) 0.0202(2)
H3 H 0.0182 0.3300 0.0318
B2 B 0.1310(11) 0.0814(13) 0.1303(9)
H22 H 0.1414 0.0809 0.0981
H23 H 0.1129 0.0432 0.1386
H24 H 0.1672 0.0877 0.1483
N8 N 0.0566(3) 0.1778(3) 0.13826(19)
C23 C 0.0850(5) 0.1340(4) 0.1398(3)
N10 N 0.0794(2) 0.3173(3) 0.13074(18)
N2 N 0.0704(2) 0.2194(2) 0.91050(15)
N3 N 0.1940(3) 0.0779(3) 0.88332(18)
N4 N 0.1827(3) 0.4206(2) 0.86926(18)
N5 N 0.0685(3) 0.2728(2) 0.83817(15)
N6 N 0.0214(3) 0.2626(3) 0.69829(16)
C1 C 0.0455(3) 0.1799(3) 0.9863(2)
H1 H 0.0509 0.1406 0.9754
C4 C 0.0415(3) 0.2854(3) 0.9744(2)
H4 H 0.0446 0.3196 0.9556
C5 C 0.0527(3) 0.2285(3) 0.95688(19)
C6 C 0.1099(3) 0.1722(3) 0.89995(19)
C7 C 0.1051(3) 0.1344(3) 0.8618(2)
H5 H 0.0741 0.1410 0.8406
C8 C 0.1443(3) 0.0886(3) 0.8549(2)
H6 H 0.1379 0.0627 0.8300
C9 C 0.2001(3) 0.1164(3) 0.9182(2)
H7 H 0.2334 0.1111 0.9376
C10 C 0.1617(3) 0.1629(3) 0.9279(2)
H8 H 0.1694 0.1885 0.9528
C11 C 0.0315(3) 0.2450(3) 0.8739(2)
H9 H 0.0068 0.2130 0.8605
H10 H 0.0045 0.2753 0.8870
C12 C 0.1647(4) 0.3147(4) 0.8667(4)
H11 H 0.1801 0.2756 0.8707
C13 C 0.1998(4) 0.3648(3) 0.8768(4)
H12 H 0.2380 0.3583 0.8898
C14 C 0.1269(4) 0.4288(4) 0.8545(4)
H13 H 0.1126 0.4682 0.8505
C15 C 0.0885(4) 0.3803(4) 0.8448(4)
H14 H 0.0494 0.3878 0.8340
C16 C 0.1071(3) 0.3229(3) 0.85076(19)
C17 C 0.0515(3) 0.2698(3) 0.79155(17)
C18 C 0.0881(3) 0.2914(4) 0.7577(2)
H15 H 0.1250 0.3095 0.7654
C19 C 0.0716(4) 0.2870(4) 0.7127(2)
H16 H 0.0981 0.3026 0.6906
Fe4 Fe 0.24580(3) 0.49977(4) 0.87613(2)
Fe2 Fe 0.25420(3) 0.99977(4) 0.87613(2)
B1 B 0.8708(13) 0.4308(12) 0.1071(9)
H19 H 0.8413 0.4251 0.1311
H20 H 0.8503 0.4363 0.0781
H21 H 0.8948 0.4662 0.1138
N7 N 0.9436(3) 0.3299(3) 0.10813(18)
C22 C 0.9149(4) 0.3714(4) 0.1042(3)
N9 N 0.9221(3) 0.1940(3) 0.11668(18)
N11 N 0.9786(3) 0.2626(3) 0.19829(16)
C20 C 0.9849(4) 0.2411(4) 0.7309(2)
H17 H 0.9489 0.2225 0.7216
C21 C 0.9965(3) 0.2443(4) 0.7773(2)
H18 H 0.9686 0.2298 0.7987
Fe3 Fe 0.99977(4) 0.25420(3) 0.62387(2)
B1_2 B 0.1292(13) 0.5692(12) 0.1071(9)
H19_2 H 0.1587 0.5749 0.1311
H20_2 H 0.1497 0.5637 0.0781
H21_2 H 0.1052 0.5338 0.1138
N7_2 N 0.0564(3) 0.6701(3) 0.10813(18)
C22_2 C 0.0851(4) 0.6286(4) 0.1042(3)
N9_2 N 0.0779(3) 0.8060(3) 0.11668(18)
N11_2 N 0.0214(3) 0.7374(3) 0.19829(16)
C20_2 C 0.0151(4) 0.7589(4) 0.7309(2)
H17_2 H 0.0511 0.7775 0.7216
C21_2 C 0.0035(3) 0.7557(4) 0.7773(2)
H18_2 H 0.0314 0.7702 0.7987
Fe3_2 Fe 0.00023(4) 0.74580(3) 0.62387(2)
Fe2_2 Fe 0.74580(3) 0.00023(4) 0.87613(2)
Fe1_2 Fe 0.99977(4) 0.74580(3) 0.12387(2)
N1_2 N 0.9804(3) 0.7571(3) 0.04931(17)
C2_2 C 0.9696(3) 0.8108(3) 0.0315(2)
H2_2 H 0.9723 0.8446 0.0507
C3_2 C 0.9746(4) 0.7087(3) 0.0202(2)
H3_2 H 0.9818 0.6700 0.0318
B2_2 B 0.8690(11) 0.9186(13) 0.1303(9)
H22_2 H 0.8586 0.9191 0.0981
H23_2 H 0.8871 0.9568 0.1386
H24_2 H 0.8328 0.9123 0.1483
N8_2 N 0.9434(3) 0.8222(3) 0.13826(19)
C23_2 C 0.9150(5) 0.8660(4) 0.1398(3)
N10_2 N 0.9206(2) 0.6827(3) 0.13074(18)
N2_2 N 0.9296(2) 0.7806(2) 0.91050(15)
N3_2 N 0.8060(3) 0.9221(3) 0.88332(18)
N4_2 N 0.8173(3) 0.5794(2) 0.86926(18)
N5_2 N 0.9315(3) 0.7272(2) 0.83817(15)
N6_2 N 0.9786(3) 0.7374(3) 0.69829(16)
C1_2 C 0.9545(3) 0.8201(3) 0.9863(2)
H1_2 H 0.9491 0.8594 0.9754
C4_2 C 0.9585(3) 0.7146(3) 0.9744(2)
H4_2 H 0.9554 0.6804 0.9556
C5_2 C 0.9473(3) 0.7715(3) 0.95688(19)
C6_2 C 0.8901(3) 0.8278(3) 0.89995(19)
C7_2 C 0.8949(3) 0.8656(3) 0.8618(2)
H5_2 H 0.9259 0.8590 0.8406
C8_2 C 0.8557(3) 0.9114(3) 0.8549(2)
H6_2 H 0.8621 0.9373 0.8300
C9_2 C 0.7999(3) 0.8836(3) 0.9182(2)
H7_2 H 0.7666 0.8889 0.9376
C10_2 C 0.8383(3) 0.8371(3) 0.9279(2)
H8_2 H 0.8306 0.8115 0.9528
C11_2 C 0.9685(3) 0.7550(3) 0.8739(2)
H9_2 H 0.9932 0.7870 0.8605
H10_2 H 0.9955 0.7247 0.8870
C12_2 C 0.8353(4) 0.6853(4) 0.8667(4)
H11_2 H 0.8199 0.7244 0.8707
C13_2 C 0.8002(4) 0.6352(3) 0.8768(4)
H12_2 H 0.7620 0.6417 0.8898
C14_2 C 0.8731(4) 0.5712(4) 0.8545(4)
H13_2 H 0.8874 0.5318 0.8505
C15_2 C 0.9115(4) 0.6197(4) 0.8448(4)
H14_2 H 0.9506 0.6122 0.8340
C16_2 C 0.8929(3) 0.6771(3) 0.85076(19)
C17_2 C 0.9485(3) 0.7302(3) 0.79155(17)
C18_2 C 0.9119(3) 0.7086(4) 0.7577(2)
H15_2 H 0.8750 0.6905 0.7654
C19_2 C 0.9284(4) 0.7130(4) 0.7127(2)
H16_2 H 0.9019 0.6974 0.6906
Fe4_2 Fe 0.75420(3) 0.50023(4) 0.87613(2)
C20_3 C 0.2411(4) 0.0151(4) 0.2691(2)
H17_3 H 0.2225 0.0511 0.2784
C21_3 C 0.2443(4) 0.0035(3) 0.2227(2)
H18_3 H 0.2298 0.0314 0.2013
Fe3_3 Fe 0.25420(3) 0.00023(4) 0.37613(2)
B1_3 B 0.4308(12) 0.1292(13) 0.8929(9)
H19_3 H 0.4251 0.1587 0.8689
H20_3 H 0.4363 0.1497 0.9219
H21_3 H 0.4662 0.1052 0.8862
N7_3 N 0.3299(3) 0.0564(3) 0.89187(18)
C22_3 C 0.3714(4) 0.0851(4) 0.8958(3)
N11_3 N 0.2626(3) 0.0214(3) 0.80171(16)
N2_3 N 0.2194(2) 0.9296(2) 0.08950(15)
N4_3 N 0.4206(2) 0.8173(3) 0.13074(18)
N5_3 N 0.2728(2) 0.9315(3) 0.16183(15)
N6_3 N 0.2626(3) 0.9786(3) 0.30171(16)
C1_3 C 0.1799(3) 0.9545(3) 0.0137(2)
H1_3 H 0.1406 0.9491 0.0246
C4_3 C 0.2854(3) 0.9585(3) 0.0256(2)
H4_3 H 0.3196 0.9554 0.0444
C5_3 C 0.2285(3) 0.9473(3) 0.04312(19)
C6_3 C 0.1722(3) 0.8901(3) 0.10005(19)
C7_3 C 0.1344(3) 0.8949(3) 0.1382(2)
H5_3 H 0.1410 0.9259 0.1594
C8_3 C 0.0886(3) 0.8557(3) 0.1451(2)
H6_3 H 0.0627 0.8621 0.1700
C9_3 C 0.1164(3) 0.7999(3) 0.0818(2)
H7_3 H 0.1111 0.7666 0.0624
C10_3 C 0.1629(3) 0.8383(3) 0.0721(2)
H8_3 H 0.1885 0.8306 0.0472
C11_3 C 0.2450(3) 0.9685(3) 0.1261(2)
H9_3 H 0.2130 0.9932 0.1395
H10_3 H 0.2753 0.9955 0.1130
C12_3 C 0.3147(4) 0.8353(4) 0.1333(4)
H11_3 H 0.2756 0.8199 0.1293
C13_3 C 0.3648(3) 0.8002(4) 0.1232(4)
H12_3 H 0.3583 0.7620 0.1102
C14_3 C 0.4288(4) 0.8731(4) 0.1455(4)
H13_3 H 0.4682 0.8874 0.1495
C15_3 C 0.3803(4) 0.9115(4) 0.1552(4)
H14_3 H 0.3878 0.9506 0.1660
C16_3 C 0.3229(3) 0.8929(3) 0.14924(19)
C17_3 C 0.2698(3) 0.9485(3) 0.20845(17)
C18_3 C 0.2914(4) 0.9119(3) 0.2423(2)
H15_3 H 0.3095 0.8750 0.2346
C19_3 C 0.2870(4) 0.9284(4) 0.2873(2)
H16_3 H 0.3026 0.9019 0.3094
Fe4_3 Fe 0.49977(4) 0.75420(3) 0.12387(2)
N1_3 N 0.2429(3) 0.9804(3) 0.95069(17)
C2_3 C 0.1892(3) 0.9696(3) 0.9685(2)
H2_3 H 0.1554 0.9723 0.9493
C3_3 C 0.2913(3) 0.9746(4) 0.9798(2)
H3_3 H 0.3300 0.9818 0.9682
B2_3 B 0.0814(13) 0.8690(11) 0.8697(9)
H22_3 H 0.0809 0.8586 0.9019
H23_3 H 0.0432 0.8871 0.8614
H24_3 H 0.0877 0.8328 0.8517
N8_3 N 0.1778(3) 0.9434(3) 0.86174(19)
C23_3 C 0.1340(4) 0.9150(5) 0.8602(3)
N10_3 N 0.3173(3) 0.9206(2) 0.86926(18)
N2_4 N 0.7806(2) 0.0704(2) 0.08950(15)
N4_4 N 0.5794(2) 0.1827(3) 0.13074(18)
N5_4 N 0.7272(2) 0.0685(3) 0.16183(15)
N6_4 N 0.7374(3) 0.0214(3) 0.30171(16)
C1_4 C 0.8201(3) 0.0455(3) 0.0137(2)
H1_4 H 0.8594 0.0509 0.0246
C4_4 C 0.7146(3) 0.0415(3) 0.0256(2)
H4_4 H 0.6804 0.0446 0.0444
C5_4 C 0.7715(3) 0.0527(3) 0.04312(19)
C6_4 C 0.8278(3) 0.1099(3) 0.10005(19)
C7_4 C 0.8656(3) 0.1051(3) 0.1382(2)
H5_4 H 0.8590 0.0741 0.1594
C8_4 C 0.9114(3) 0.1443(3) 0.1451(2)
H6_4 H 0.9373 0.1379 0.1700
C9_4 C 0.8836(3) 0.2001(3) 0.0818(2)
H7_4 H 0.8889 0.2334 0.0624
C10_4 C 0.8371(3) 0.1617(3) 0.0721(2)
H8_4 H 0.8115 0.1694 0.0472
C11_4 C 0.7550(3) 0.0315(3) 0.1261(2)
H9_4 H 0.7870 0.0068 0.1395
H10_4 H 0.7247 0.0045 0.1130
C12_4 C 0.6853(4) 0.1647(4) 0.1333(4)
H11_4 H 0.7244 0.1801 0.1293
C13_4 C 0.6352(3) 0.1998(4) 0.1232(4)
H12_4 H 0.6417 0.2380 0.1102
C14_4 C 0.5712(4) 0.1269(4) 0.1455(4)
H13_4 H 0.5318 0.1126 0.1495
C15_4 C 0.6197(4) 0.0885(4) 0.1552(4)
H14_4 H 0.6122 0.0494 0.1660
C16_4 C 0.6771(3) 0.1071(3) 0.14924(19)
C17_4 C 0.7302(3) 0.0515(3) 0.20845(17)
C18_4 C 0.7086(4) 0.0881(3) 0.2423(2)
H15_4 H 0.6905 0.1250 0.2346
C19_4 C 0.7130(4) 0.0716(4) 0.2873(2)
H16_4 H 0.6974 0.0981 0.3094
Fe4_4 Fe 0.50023(4) 0.24580(3) 0.12387(2)
N1_4 N 0.7571(3) 0.0196(3) 0.95069(17)
C2_4 C 0.8108(3) 0.0304(3) 0.9685(2)
H2_4 H 0.8446 0.0277 0.9493
C3_4 C 0.7087(3) 0.0254(4) 0.9798(2)
H3_4 H 0.6700 0.0182 0.9682
B2_4 B 0.9186(13) 0.1310(11) 0.8697(9)
H22_4 H 0.9191 0.1414 0.9019
H23_4 H 0.9568 0.1129 0.8614
H24_4 H 0.9123 0.1672 0.8517
N8_4 N 0.8222(3) 0.0566(3) 0.86174(19)
C23_4 C 0.8660(4) 0.0850(5) 0.8602(3)
N10_4 N 0.6827(3) 0.0794(2) 0.86926(18)
C20_4 C 0.7589(4) 0.9849(4) 0.2691(2)
H17_4 H 0.7775 0.9489 0.2784
C21_4 C 0.7557(4) 0.9965(3) 0.2227(2)
H18_4 H 0.7702 0.9686 0.2013
Fe3_4 Fe 0.74580(3) 0.99977(4) 0.37613(2)
B1_4 B 0.5692(12) 0.8708(13) 0.8929(9)
H19_4 H 0.5749 0.8413 0.8689
H20_4 H 0.5637 0.8503 0.9219
H21_4 H 0.5338 0.8948 0.8862
N7_4 N 0.6701(3) 0.9436(3) 0.89187(18)
C22_4 C 0.6286(4) 0.9149(4) 0.8958(3)
N11_4 N 0.7374(3) 0.9786(3) 0.80171(16)
N1_5 N 0.0196(3) 0.7571(3) 0.54931(17)
N2_5 N 0.0704(2) 0.7806(2) 0.41050(15)
N3_3 N 0.1940(3) 0.9221(3) 0.38332(18)
N4_5 N 0.1827(3) 0.5794(2) 0.36926(18)
N5_5 N 0.0685(3) 0.7272(2) 0.33817(15)
C1_5 C 0.0455(3) 0.8201(3) 0.4863(2)
H1_5 H 0.0509 0.8594 0.4754
C2_5 C 0.0304(3) 0.8108(3) 0.5315(2)
H2_5 H 0.0277 0.8446 0.5507
C3_5 C 0.0254(4) 0.7087(3) 0.5202(2)
H3_5 H 0.0182 0.6700 0.5318
C4_5 C 0.0415(3) 0.7146(3) 0.4744(2)
H4_5 H 0.0446 0.6804 0.4556
C5_5 C 0.0527(3) 0.7715(3) 0.45688(19)
C6_5 C 0.1099(3) 0.8278(3) 0.39995(19)
C7_5 C 0.1051(3) 0.8656(3) 0.3618(2)
H5_5 H 0.0741 0.8590 0.3406
C8_5 C 0.1443(3) 0.9114(3) 0.3549(2)
H6_5 H 0.1379 0.9373 0.3300
C9_5 C 0.2001(3) 0.8836(3) 0.4182(2)
H7_5 H 0.2334 0.8889 0.4376
C10_5 C 0.1617(3) 0.8371(3) 0.4279(2)
H8_5 H 0.1694 0.8115 0.4528
C11_5 C 0.0315(3) 0.7550(3) 0.3739(2)
H9_5 H 0.0068 0.7870 0.3605
H10_5 H 0.0045 0.7247 0.3870
C12_5 C 0.1647(4) 0.6853(4) 0.3667(4)
H11_5 H 0.1801 0.7244 0.3707
C13_5 C 0.1998(4) 0.6352(3) 0.3768(4)
H12_5 H 0.2380 0.6417 0.3898
C14_5 C 0.1269(4) 0.5712(4) 0.3545(4)
H13_5 H 0.1126 0.5318 0.3505
C15_5 C 0.0885(4) 0.6197(4) 0.3448(4)
H14_5 H 0.0494 0.6122 0.3340
C16_5 C 0.1071(3) 0.6771(3) 0.35076(19)
C17_5 C 0.0515(3) 0.7302(3) 0.29155(17)
C18_5 C 0.0881(3) 0.7086(4) 0.2577(2)
H15_5 H 0.1250 0.6905 0.2654
C19_5 C 0.0716(4) 0.7130(4) 0.2127(2)
H16_5 H 0.0981 0.6974 0.1906
B2_5 B 0.1310(11) 0.9186(13) 0.6303(9)
H22_5 H 0.1414 0.9191 0.5981
H23_5 H 0.1129 0.9568 0.6386
H24_5 H 0.1672 0.9123 0.6483
N8_5 N 0.0566(3) 0.8222(3) 0.63826(19)
C23_5 C 0.0850(5) 0.8660(4) 0.6398(3)
Fe4_5 Fe 0.24580(3) 0.50023(4) 0.37613(2)
N10_5 N 0.0794(2) 0.6827(3) 0.63074(18)
C20_5 C 0.9849(4) 0.7589(4) 0.2309(2)
H17_5 H 0.9489 0.7775 0.2216
C21_5 C 0.9965(3) 0.7557(4) 0.2773(2)
H18_5 H 0.9686 0.7702 0.2987
B1_5 B 0.8708(13) 0.5692(12) 0.6071(9)
H19_5 H 0.8413 0.5749 0.6311
H20_5 H 0.8503 0.5637 0.5781
H21_5 H 0.8948 0.5338 0.6138
N7_5 N 0.9436(3) 0.6701(3) 0.60813(18)
C22_5 C 0.9149(4) 0.6286(4) 0.6042(3)
N9_3 N 0.9221(3) 0.8060(3) 0.61668(18)
C20_6 C 0.0151(4) 0.2411(4) 0.2309(2)
H17_6 H 0.0511 0.2225 0.2216
C21_6 C 0.0035(3) 0.2443(4) 0.2773(2)
H18_6 H 0.0314 0.2298 0.2987
B1_6 B 0.1292(13) 0.4308(12) 0.6071(9)
H19_6 H 0.1587 0.4251 0.6311
H20_6 H 0.1497 0.4363 0.5781
H21_6 H 0.1052 0.4662 0.6138
N7_6 N 0.0564(3) 0.3299(3) 0.60813(18)
C22_6 C 0.0851(4) 0.3714(4) 0.6042(3)
N9_4 N 0.0779(3) 0.1940(3) 0.61668(18)
N1_6 N 0.9804(3) 0.2429(3) 0.54931(17)
N2_6 N 0.9296(2) 0.2194(2) 0.41050(15)
N3_4 N 0.8060(3) 0.0779(3) 0.38332(18)
N4_6 N 0.8173(3) 0.4206(2) 0.36926(18)
N5_6 N 0.9315(3) 0.2728(2) 0.33817(15)
C1_6 C 0.9545(3) 0.1799(3) 0.4863(2)
H1_6 H 0.9491 0.1406 0.4754
C2_6 C 0.9696(3) 0.1892(3) 0.5315(2)
H2_6 H 0.9723 0.1554 0.5507
C3_6 C 0.9746(4) 0.2913(3) 0.5202(2)
H3_6 H 0.9818 0.3300 0.5318
C4_6 C 0.9585(3) 0.2854(3) 0.4744(2)
H4_6 H 0.9554 0.3196 0.4556
C5_6 C 0.9473(3) 0.2285(3) 0.45688(19)
C6_6 C 0.8901(3) 0.1722(3) 0.39995(19)
C7_6 C 0.8949(3) 0.1344(3) 0.3618(2)
H5_6 H 0.9259 0.1410 0.3406
C8_6 C 0.8557(3) 0.0886(3) 0.3549(2)
H6_6 H 0.8621 0.0627 0.3300
C9_6 C 0.7999(3) 0.1164(3) 0.4182(2)
H7_6 H 0.7666 0.1111 0.4376
C10_6 C 0.8383(3) 0.1629(3) 0.4279(2)
H8_6 H 0.8306 0.1885 0.4528
C11_6 C 0.9685(3) 0.2450(3) 0.3739(2)
H9_6 H 0.9932 0.2130 0.3605
H10_6 H 0.9955 0.2753 0.3870
C12_6 C 0.8353(4) 0.3147(4) 0.3667(4)
H11_6 H 0.8199 0.2756 0.3707
C13_6 C 0.8002(4) 0.3648(3) 0.3768(4)
H12_6 H 0.7620 0.3583 0.3898
C14_6 C 0.8731(4) 0.4288(4) 0.3545(4)
H13_6 H 0.8874 0.4682 0.3505
C15_6 C 0.9115(4) 0.3803(4) 0.3448(4)
H14_6 H 0.9506 0.3878 0.3340
C16_6 C 0.8929(3) 0.3229(3) 0.35076(19)
C17_6 C 0.9485(3) 0.2698(3) 0.29155(17)
C18_6 C 0.9119(3) 0.2914(4) 0.2577(2)
H15_6 H 0.8750 0.3095 0.2654
C19_6 C 0.9284(4) 0.2870(4) 0.2127(2)
H16_6 H 0.9019 0.3026 0.1906
B2_6 B 0.8690(11) 0.0814(13) 0.6303(9)
H22_6 H 0.8586 0.0809 0.5981
H23_6 H 0.8871 0.0432 0.6386
H24_6 H 0.8328 0.0877 0.6483
N8_6 N 0.9434(3) 0.1778(3) 0.63826(19)
C23_6 C 0.9150(5) 0.1340(4) 0.6398(3)
Fe4_6 Fe 0.75420(3) 0.49977(4) 0.37613(2)
N10_6 N 0.9206(2) 0.3173(3) 0.63074(18)
N1_7 N 0.2429(3) 0.0196(3) 0.45069(17)
N2_7 N 0.2194(2) 0.0704(2) 0.58950(15)
N4_7 N 0.4206(2) 0.1827(3) 0.63074(18)
N5_7 N 0.2728(2) 0.0685(3) 0.66183(15)
C1_7 C 0.1799(3) 0.0455(3) 0.5137(2)
H1_7 H 0.1406 0.0509 0.5246
C2_7 C 0.1892(3) 0.0304(3) 0.4685(2)
H2_7 H 0.1554 0.0277 0.4493
C3_7 C 0.2913(3) 0.0254(4) 0.4798(2)
H3_7 H 0.3300 0.0182 0.4682
C4_7 C 0.2854(3) 0.0415(3) 0.5256(2)
H4_7 H 0.3196 0.0446 0.5444
C5_7 C 0.2285(3) 0.0527(3) 0.54312(19)
C6_7 C 0.1722(3) 0.1099(3) 0.60005(19)
C7_7 C 0.1344(3) 0.1051(3) 0.6382(2)
H5_7 H 0.1410 0.0741 0.6594
C8_7 C 0.0886(3) 0.1443(3) 0.6451(2)
H6_7 H 0.0627 0.1379 0.6700
C9_7 C 0.1164(3) 0.2001(3) 0.5818(2)
H7_7 H 0.1111 0.2334 0.5624
C10_7 C 0.1629(3) 0.1617(3) 0.5721(2)
H8_7 H 0.1885 0.1694 0.5472
C11_7 C 0.2450(3) 0.0315(3) 0.6261(2)
H9_7 H 0.2130 0.0068 0.6395
H10_7 H 0.2753 0.0045 0.6130
C12_7 C 0.3147(4) 0.1647(4) 0.6333(4)
H11_7 H 0.2756 0.1801 0.6293
C13_7 C 0.3648(3) 0.1998(4) 0.6232(4)
H12_7 H 0.3583 0.2380 0.6102
C14_7 C 0.4288(4) 0.1269(4) 0.6455(4)
H13_7 H 0.4682 0.1126 0.6495
C15_7 C 0.3803(4) 0.0885(4) 0.6552(4)
H14_7 H 0.3878 0.0494 0.6660
C16_7 C 0.3229(3) 0.1071(3) 0.64924(19)
C17_7 C 0.2698(3) 0.0515(3) 0.70845(17)
C18_7 C 0.2914(4) 0.0881(3) 0.7423(2)
H15_7 H 0.3095 0.1250 0.7346
C19_7 C 0.2870(4) 0.0716(4) 0.7873(2)
H16_7 H 0.3026 0.0981 0.8094
B2_7 B 0.0814(13) 0.1310(11) 0.3697(9)
H22_7 H 0.0809 0.1414 0.4019
H23_7 H 0.0432 0.1129 0.3614
H24_7 H 0.0877 0.1672 0.3517
N8_7 N 0.1778(3) 0.0566(3) 0.36174(19)
C23_7 C 0.1340(4) 0.0850(5) 0.3602(3)
Fe4_7 Fe 0.49977(4) 0.24580(3) 0.62387(2)
N10_7 N 0.3173(3) 0.0794(2) 0.36926(18)
C20_7 C 0.2411(4) 0.9849(4) 0.7691(2)
H17_7 H 0.2225 0.9489 0.7784
C21_7 C 0.2443(4) 0.9965(3) 0.7227(2)
H18_7 H 0.2298 0.9686 0.7013
B1_7 B 0.4308(12) 0.8708(13) 0.3929(9)
H19_7 H 0.4251 0.8413 0.3689
H20_7 H 0.4363 0.8503 0.4219
H21_7 H 0.4662 0.8948 0.3862
N7_7 N 0.3299(3) 0.9436(3) 0.39187(18)
C22_7 C 0.3714(4) 0.9149(4) 0.3958(3)
C20_8 C 0.7589(4) 0.0151(4) 0.7691(2)
H17_8 H 0.7775 0.0511 0.7784
C21_8 C 0.7557(4) 0.0035(3) 0.7227(2)
H18_8 H 0.7702 0.0314 0.7013
B1_8 B 0.5692(12) 0.1292(13) 0.3929(9)
H19_8 H 0.5749 0.1587 0.3689
H20_8 H 0.5637 0.1497 0.4219
H21_8 H 0.5338 0.1052 0.3862
N7_8 N 0.6701(3) 0.0564(3) 0.39187(18)
C22_8 C 0.6286(4) 0.0851(4) 0.3958(3)
N1_8 N 0.7571(3) 0.9804(3) 0.45069(17)
N2_8 N 0.7806(2) 0.9296(2) 0.58950(15)
N4_8 N 0.5794(2) 0.8173(3) 0.63074(18)
N5_8 N 0.7272(2) 0.9315(3) 0.66183(15)
C1_8 C 0.8201(3) 0.9545(3) 0.5137(2)
H1_8 H 0.8594 0.9491 0.5246
C2_8 C 0.8108(3) 0.9696(3) 0.4685(2)
H2_8 H 0.8446 0.9723 0.4493
C3_8 C 0.7087(3) 0.9746(4) 0.4798(2)
H3_8 H 0.6700 0.9818 0.4682
C4_8 C 0.7146(3) 0.9585(3) 0.5256(2)
H4_8 H 0.6804 0.9554 0.5444
C5_8 C 0.7715(3) 0.9473(3) 0.54312(19)
C6_8 C 0.8278(3) 0.8901(3) 0.60005(19)
C7_8 C 0.8656(3) 0.8949(3) 0.6382(2)
H5_8 H 0.8590 0.9259 0.6594
C8_8 C 0.9114(3) 0.8557(3) 0.6451(2)
H6_8 H 0.9373 0.8621 0.6700
C9_8 C 0.8836(3) 0.7999(3) 0.5818(2)
H7_8 H 0.8889 0.7666 0.5624
C10_8 C 0.8371(3) 0.8383(3) 0.5721(2)
H8_8 H 0.8115 0.8306 0.5472
C11_8 C 0.7550(3) 0.9685(3) 0.6261(2)
H9_8 H 0.7870 0.9932 0.6395
H10_8 H 0.7247 0.9955 0.6130
C12_8 C 0.6853(4) 0.8353(4) 0.6333(4)
H11_8 H 0.7244 0.8199 0.6293
C13_8 C 0.6352(3) 0.8002(4) 0.6232(4)
H12_8 H 0.6417 0.7620 0.6102
C14_8 C 0.5712(4) 0.8731(4) 0.6455(4)
H13_8 H 0.5318 0.8874 0.6495
C15_8 C 0.6197(4) 0.9115(4) 0.6552(4)
H14_8 H 0.6122 0.9506 0.6660
C16_8 C 0.6771(3) 0.8929(3) 0.64924(19)
C17_8 C 0.7302(3) 0.9485(3) 0.70845(17)
C18_8 C 0.7086(4) 0.9119(3) 0.7423(2)
H15_8 H 0.6905 0.8750 0.7346
C19_8 C 0.7130(4) 0.9284(4) 0.7873(2)
H16_8 H 0.6974 0.9019 0.8094
B2_8 B 0.9186(13) 0.8690(11) 0.3697(9)
H22_8 H 0.9191 0.8586 0.4019
H23_8 H 0.9568 0.8871 0.3614
H24_8 H 0.9123 0.8328 0.3517
N8_8 N 0.8222(3) 0.9434(3) 0.36174(19)
C23_8 C 0.8660(4) 0.9150(5) 0.3602(3)
Fe4_8 Fe 0.50023(4) 0.75420(3) 0.62387(2)
N10_8 N 0.6827(3) 0.9206(2) 0.36926(18)
N1_9 N 0.5196(3) 0.7429(3) 0.54931(17)
N2_9 N 0.5704(2) 0.7194(2) 0.41050(15)
N3_5 N 0.6940(3) 0.5779(3) 0.38332(18)
N5_9 N 0.5685(3) 0.7728(2) 0.33817(15)
N6_5 N 0.5214(3) 0.7626(3) 0.19829(16)
C1_9 C 0.5455(3) 0.6799(3) 0.4863(2)
H1_9 H 0.5509 0.6406 0.4754
C2_9 C 0.5304(3) 0.6892(3) 0.5315(2)
H2_9 H 0.5277 0.6554 0.5507
C3_9 C 0.5254(4) 0.7913(3) 0.5202(2)
H3_9 H 0.5182 0.8300 0.5318
C4_9 C 0.5415(3) 0.7854(3) 0.4744(2)
H4_9 H 0.5446 0.8196 0.4556
C5_9 C 0.5527(3) 0.7285(3) 0.45688(19)
C6_9 C 0.6099(3) 0.6722(3) 0.39995(19)
C7_9 C 0.6051(3) 0.6344(3) 0.3618(2)
H5_9 H 0.5741 0.6410 0.3406
C8_9 C 0.6443(3) 0.5886(3) 0.3549(2)
H6_9 H 0.6379 0.5627 0.3300
C9_9 C 0.7001(3) 0.6164(3) 0.4182(2)
H7_9 H 0.7334 0.6111 0.4376
C10_9 C 0.6617(3) 0.6629(3) 0.4279(2)
H8_9 H 0.6694 0.6885 0.4528
C11_9 C 0.5315(3) 0.7450(3) 0.3739(2)
H9_9 H 0.5068 0.7130 0.3605
H10_9 H 0.5045 0.7753 0.3870
C12_9 C 0.6647(4) 0.8147(4) 0.3667(4)
H11_9 H 0.6801 0.7756 0.3707
C13_9 C 0.6998(4) 0.8648(3) 0.3768(4)
H12_9 H 0.7380 0.8583 0.3898
C14_9 C 0.6269(4) 0.9288(4) 0.3545(4)
H13_9 H 0.6126 0.9682 0.3505
C15_9 C 0.5885(4) 0.8803(4) 0.3448(4)
H14_9 H 0.5494 0.8878 0.3340
C16_9 C 0.6071(3) 0.8229(3) 0.35076(19)
C17_9 C 0.5515(3) 0.7698(3) 0.29155(17)
C18_9 C 0.5881(3) 0.7914(4) 0.2577(2)
H15_9 H 0.6250 0.8095 0.2654
C19_9 C 0.5716(4) 0.7870(4) 0.2127(2)
H16_9 H 0.5981 0.8026 0.1906
C20_9 C 0.4849(4) 0.7411(4) 0.2309(2)
H17_9 H 0.4489 0.7225 0.2216
C21_9 C 0.4965(3) 0.7443(4) 0.2773(2)
H18_9 H 0.4686 0.7298 0.2987
B1_9 B 0.3708(13) 0.9308(12) 0.6071(9)
H19_9 H 0.3413 0.9251 0.6311
H20_9 H 0.3503 0.9363 0.5781
H21_9 H 0.3948 0.9662 0.6138
B2_9 B 0.6310(11) 0.5814(13) 0.6303(9)
H22_9 H 0.6414 0.5809 0.5981
H23_9 H 0.6129 0.5432 0.6386
H24_9 H 0.6672 0.5877 0.6483
N7_9 N 0.4436(3) 0.8299(3) 0.60813(18)
N8_9 N 0.5566(3) 0.6778(3) 0.63826(19)
C22_9 C 0.4149(4) 0.8714(4) 0.6042(3)
C23_9 C 0.5850(5) 0.6340(4) 0.6398(3)
N9_5 N 0.4221(3) 0.6940(3) 0.61668(18)
N11_5 N 0.4786(3) 0.7626(3) 0.69829(16)
N1_10 N 0.4804(3) 0.2571(3) 0.54931(17)
N2_10 N 0.4296(2) 0.2806(2) 0.41050(15)
N3_6 N 0.3060(3) 0.4221(3) 0.38332(18)
N5_10 N 0.4315(3) 0.2272(2) 0.33817(15)
N6_6 N 0.4786(3) 0.2374(3) 0.19829(16)
C1_10 C 0.4545(3) 0.3201(3) 0.4863(2)
H1_10 H 0.4491 0.3594 0.4754
C2_10 C 0.4696(3) 0.3108(3) 0.5315(2)
H2_10 H 0.4723 0.3446 0.5507
C3_10 C 0.4746(4) 0.2087(3) 0.5202(2)
H3_10 H 0.4818 0.1700 0.5318
C4_10 C 0.4585(3) 0.2146(3) 0.4744(2)
H4_10 H 0.4554 0.1804 0.4556
C5_10 C 0.4473(3) 0.2715(3) 0.45688(19)
C6_10 C 0.3901(3) 0.3278(3) 0.39995(19)
C7_10 C 0.3949(3) 0.3656(3) 0.3618(2)
H5_10 H 0.4259 0.3590 0.3406
C8_10 C 0.3557(3) 0.4114(3) 0.3549(2)
H6_10 H 0.3621 0.4373 0.3300
C9_10 C 0.2999(3) 0.3836(3) 0.4182(2)
H7_10 H 0.2666 0.3889 0.4376
C10_10 C 0.3383(3) 0.3371(3) 0.4279(2)
H8_10 H 0.3306 0.3115 0.4528
C11_10 C 0.4685(3) 0.2550(3) 0.3739(2)
H9_10 H 0.4932 0.2870 0.3605
H10_10 H 0.4955 0.2247 0.3870
C12_10 C 0.3353(4) 0.1853(4) 0.3667(4)
H11_10 H 0.3199 0.2244 0.3707
C13_10 C 0.3002(4) 0.1352(3) 0.3768(4)
H12_10 H 0.2620 0.1417 0.3898
C14_10 C 0.3731(4) 0.0712(4) 0.3545(4)
H13_10 H 0.3874 0.0318 0.3505
C15_10 C 0.4115(4) 0.1197(4) 0.3448(4)
H14_10 H 0.4506 0.1122 0.3340
C16_10 C 0.3929(3) 0.1771(3) 0.35076(19)
C17_10 C 0.4485(3) 0.2302(3) 0.29155(17)
C18_10 C 0.4119(3) 0.2086(4) 0.2577(2)
H15_10 H 0.3750 0.1905 0.2654
C19_10 C 0.4284(4) 0.2130(4) 0.2127(2)
H16_10 H 0.4019 0.1974 0.1906
C20_10 C 0.5151(4) 0.2589(4) 0.2309(2)
H17_10 H 0.5511 0.2775 0.2216
C21_10 C 0.5035(3) 0.2557(4) 0.2773(2)
H18_10 H 0.5314 0.2702 0.2987
B1_10 B 0.6292(13) 0.0692(12) 0.6071(9)
H19_10 H 0.6587 0.0749 0.6311
H20_10 H 0.6497 0.0637 0.5781
H21_10 H 0.6052 0.0338 0.6138
B2_10 B 0.3690(11) 0.4186(13) 0.6303(9)
H22_10 H 0.3586 0.4191 0.5981
H23_10 H 0.3871 0.4568 0.6386
H24_10 H 0.3328 0.4123 0.6483
N7_10 N 0.5564(3) 0.1701(3) 0.60813(18)
N8_10 N 0.4434(3) 0.3222(3) 0.63826(19)
C22_10 C 0.5851(4) 0.1286(4) 0.6042(3)
C23_10 C 0.4150(5) 0.3660(4) 0.6398(3)
N9_6 N 0.5779(3) 0.3060(3) 0.61668(18)
N11_6 N 0.5214(3) 0.2374(3) 0.69829(16)
N1_11 N 0.7429(3) 0.4804(3) 0.45069(17)
N2_11 N 0.7194(2) 0.4296(2) 0.58950(15)
N5_11 N 0.7728(2) 0.4315(3) 0.66183(15)
N6_7 N 0.7626(3) 0.4786(3) 0.80171(16)
C1_11 C 0.6799(3) 0.4545(3) 0.5137(2)
H1_11 H 0.6406 0.4491 0.5246
C2_11 C 0.6892(3) 0.4696(3) 0.4685(2)
H2_11 H 0.6554 0.4723 0.4493
C3_11 C 0.7913(3) 0.4746(4) 0.4798(2)
H3_11 H 0.8300 0.4818 0.4682
C4_11 C 0.7854(3) 0.4585(3) 0.5256(2)
H4_11 H 0.8196 0.4554 0.5444
C5_11 C 0.7285(3) 0.4473(3) 0.54312(19)
C6_11 C 0.6722(3) 0.3901(3) 0.60005(19)
C7_11 C 0.6344(3) 0.3949(3) 0.6382(2)
H5_11 H 0.6410 0.4259 0.6594
C8_11 C 0.5886(3) 0.3557(3) 0.6451(2)
H6_11 H 0.5627 0.3621 0.6700
C9_11 C 0.6164(3) 0.2999(3) 0.5818(2)
H7_11 H 0.6111 0.2666 0.5624
C10_11 C 0.6629(3) 0.3383(3) 0.5721(2)
H8_11 H 0.6885 0.3306 0.5472
C11_11 C 0.7450(3) 0.4685(3) 0.6261(2)
H9_11 H 0.7130 0.4932 0.6395
H10_11 H 0.7753 0.4955 0.6130
C12_11 C 0.8147(4) 0.3353(4) 0.6333(4)
H11_11 H 0.7756 0.3199 0.6293
C13_11 C 0.8648(3) 0.3002(4) 0.6232(4)
H12_11 H 0.8583 0.2620 0.6102
C14_11 C 0.9288(4) 0.3731(4) 0.6455(4)
H13_11 H 0.9682 0.3874 0.6495
C15_11 C 0.8803(4) 0.4115(4) 0.6552(4)
H14_11 H 0.8878 0.4506 0.6660
C16_11 C 0.8229(3) 0.3929(3) 0.64924(19)
C17_11 C 0.7698(3) 0.4485(3) 0.70845(17)
C18_11 C 0.7914(4) 0.4119(3) 0.7423(2)
H15_11 H 0.8095 0.3750 0.7346
C19_11 C 0.7870(4) 0.4284(4) 0.7873(2)
H16_11 H 0.8026 0.4019 0.8094
C20_11 C 0.7411(4) 0.5151(4) 0.7691(2)
H17_11 H 0.7225 0.5511 0.7784
C21_11 C 0.7443(4) 0.5035(3) 0.7227(2)
H18_11 H 0.7298 0.5314 0.7013
B1_11 B 0.9308(12) 0.6292(13) 0.3929(9)
H19_11 H 0.9251 0.6587 0.3689
H20_11 H 0.9363 0.6497 0.4219
H21_11 H 0.9662 0.6052 0.3862
B2_11 B 0.5814(13) 0.3690(11) 0.3697(9)
H22_11 H 0.5809 0.3586 0.4019
H23_11 H 0.5432 0.3871 0.3614
H24_11 H 0.5877 0.3328 0.3517
N7_11 N 0.8299(3) 0.5564(3) 0.39187(18)
N8_11 N 0.6778(3) 0.4434(3) 0.36174(19)
C22_11 C 0.8714(4) 0.5851(4) 0.3958(3)
C23_11 C 0.6340(4) 0.4150(5) 0.3602(3)
N11_7 N 0.7626(3) 0.5214(3) 0.30171(16)
N1_12 N 0.2571(3) 0.5196(3) 0.45069(17)
N2_12 N 0.2806(2) 0.5704(2) 0.58950(15)
N5_12 N 0.2272(2) 0.5685(3) 0.66183(15)
N6_8 N 0.2374(3) 0.5214(3) 0.80171(16)
C1_12 C 0.3201(3) 0.5455(3) 0.5137(2)
H1_12 H 0.3594 0.5509 0.5246
C2_12 C 0.3108(3) 0.5304(3) 0.4685(2)
H2_12 H 0.3446 0.5277 0.4493
C3_12 C 0.2087(3) 0.5254(4) 0.4798(2)
H3_12 H 0.1700 0.5182 0.4682
C4_12 C 0.2146(3) 0.5415(3) 0.5256(2)
H4_12 H 0.1804 0.5446 0.5444
C5_12 C 0.2715(3) 0.5527(3) 0.54312(19)
C6_12 C 0.3278(3) 0.6099(3) 0.60005(19)
C7_12 C 0.3656(3) 0.6051(3) 0.6382(2)
H5_12 H 0.3590 0.5741 0.6594
C8_12 C 0.4114(3) 0.6443(3) 0.6451(2)
H6_12 H 0.4373 0.6379 0.6700
C9_12 C 0.3836(3) 0.7001(3) 0.5818(2)
H7_12 H 0.3889 0.7334 0.5624
C10_12 C 0.3371(3) 0.6617(3) 0.5721(2)
H8_12 H 0.3115 0.6694 0.5472
C11_12 C 0.2550(3) 0.5315(3) 0.6261(2)
H9_12 H 0.2870 0.5068 0.6395
H10_12 H 0.2247 0.5045 0.6130
C12_12 C 0.1853(4) 0.6647(4) 0.6333(4)
H11_12 H 0.2244 0.6801 0.6293
C13_12 C 0.1352(3) 0.6998(4) 0.6232(4)
H12_12 H 0.1417 0.7380 0.6102
C14_12 C 0.0712(4) 0.6269(4) 0.6455(4)
H13_12 H 0.0318 0.6126 0.6495
C15_12 C 0.1197(4) 0.5885(4) 0.6552(4)
H14_12 H 0.1122 0.5494 0.6660
C16_12 C 0.1771(3) 0.6071(3) 0.64924(19)
C17_12 C 0.2302(3) 0.5515(3) 0.70845(17)
C18_12 C 0.2086(4) 0.5881(3) 0.7423(2)
H15_12 H 0.1905 0.6250 0.7346
C19_12 C 0.2130(4) 0.5716(4) 0.7873(2)
H16_12 H 0.1974 0.5981 0.8094
C20_12 C 0.2589(4) 0.4849(4) 0.7691(2)
H17_12 H 0.2775 0.4489 0.7784
C21_12 C 0.2557(4) 0.4965(3) 0.7227(2)
H18_12 H 0.2702 0.4686 0.7013
B1_12 B 0.0692(12) 0.3708(13) 0.3929(9)
H19_12 H 0.0749 0.3413 0.3689
H20_12 H 0.0637 0.3503 0.4219
H21_12 H 0.0338 0.3948 0.3862
B2_12 B 0.4186(13) 0.6310(11) 0.3697(9)
H22_12 H 0.4191 0.6414 0.4019
H23_12 H 0.4568 0.6129 0.3614
H24_12 H 0.4123 0.6672 0.3517
N7_12 N 0.1701(3) 0.4436(3) 0.39187(18)
N8_12 N 0.3222(3) 0.5566(3) 0.36174(19)
C22_12 C 0.1286(4) 0.4149(4) 0.3958(3)
C23_12 C 0.3660(4) 0.5850(5) 0.3602(3)
N11_8 N 0.2374(3) 0.4786(3) 0.30171(16)
N1_13 N 0.5196(3) 0.2571(3) 0.04931(17)
C2_13 C 0.5304(3) 0.3108(3) 0.0315(2)
H2_13 H 0.5277 0.3446 0.0507
C3_13 C 0.5254(4) 0.2087(3) 0.0202(2)
H3_13 H 0.5182 0.1700 0.0318
B1_13 B 0.3708(13) 0.0692(12) 0.1071(9)
H19_13 H 0.3413 0.0749 0.1311
H20_13 H 0.3503 0.0637 0.0781
H21_13 H 0.3948 0.0338 0.1138
B2_13 B 0.6310(11) 0.4186(13) 0.1303(9)
H22_13 H 0.6414 0.4191 0.0981
H23_13 H 0.6129 0.4568 0.1386
H24_13 H 0.6672 0.4123 0.1483
N7_13 N 0.4436(3) 0.1701(3) 0.10813(18)
N8_13 N 0.5566(3) 0.3222(3) 0.13826(19)
C22_13 C 0.4149(4) 0.1286(4) 0.1042(3)
C23_13 C 0.5850(5) 0.3660(4) 0.1398(3)
N9_7 N 0.4221(3) 0.3060(3) 0.11668(18)
N2_13 N 0.5704(2) 0.2806(2) 0.91050(15)
N3_7 N 0.6940(3) 0.4221(3) 0.88332(18)
N5_13 N 0.5685(3) 0.2272(2) 0.83817(15)
C1_13 C 0.5455(3) 0.3201(3) 0.9863(2)
H1_13 H 0.5509 0.3594 0.9754
C4_13 C 0.5415(3) 0.2146(3) 0.9744(2)
H4_13 H 0.5446 0.1804 0.9556
C5_13 C 0.5527(3) 0.2715(3) 0.95688(19)
C6_13 C 0.6099(3) 0.3278(3) 0.89995(19)
C7_13 C 0.6051(3) 0.3656(3) 0.8618(2)
H5_13 H 0.5741 0.3590 0.8406
C8_13 C 0.6443(3) 0.4114(3) 0.8549(2)
H6_13 H 0.6379 0.4373 0.8300
C9_13 C 0.7001(3) 0.3836(3) 0.9182(2)
H7_13 H 0.7334 0.3889 0.9376
C10_13 C 0.6617(3) 0.3371(3) 0.9279(2)
H8_13 H 0.6694 0.3115 0.9528
C11_13 C 0.5315(3) 0.2550(3) 0.8739(2)
H9_13 H 0.5068 0.2870 0.8605
H10_13 H 0.5045 0.2247 0.8870
C12_13 C 0.6647(4) 0.1853(4) 0.8667(4)
H11_13 H 0.6801 0.2244 0.8707
C13_13 C 0.6998(4) 0.1352(3) 0.8768(4)
H12_13 H 0.7380 0.1417 0.8898
C14_13 C 0.6269(4) 0.0712(4) 0.8545(4)
H13_13 H 0.6126 0.0318 0.8505
C15_13 C 0.5885(4) 0.1197(4) 0.8448(4)
H14_13 H 0.5494 0.1122 0.8340
C16_13 C 0.6071(3) 0.1771(3) 0.85076(19)
C17_13 C 0.5515(3) 0.2302(3) 0.79155(17)
C18_13 C 0.5881(3) 0.2086(4) 0.7577(2)
H15_13 H 0.6250 0.1905 0.7654
C19_13 C 0.5716(4) 0.2130(4) 0.7127(2)
H16_13 H 0.5981 0.1974 0.6906
C20_13 C 0.4849(4) 0.2589(4) 0.7309(2)
H17_13 H 0.4489 0.2775 0.7216
C21_13 C 0.4965(3) 0.2557(4) 0.7773(2)
H18_13 H 0.4686 0.2702 0.7987
N1_14 N 0.4804(3) 0.7429(3) 0.04931(17)
C2_14 C 0.4696(3) 0.6892(3) 0.0315(2)
H2_14 H 0.4723 0.6554 0.0507
C3_14 C 0.4746(4) 0.7913(3) 0.0202(2)
H3_14 H 0.4818 0.8300 0.0318
B1_14 B 0.6292(13) 0.9308(12) 0.1071(9)
H19_14 H 0.6587 0.9251 0.1311
H20_14 H 0.6497 0.9363 0.0781
H21_14 H 0.6052 0.9662 0.1138
B2_14 B 0.3690(11) 0.5814(13) 0.1303(9)
H22_14 H 0.3586 0.5809 0.0981
H23_14 H 0.3871 0.5432 0.1386
H24_14 H 0.3328 0.5877 0.1483
N7_14 N 0.5564(3) 0.8299(3) 0.10813(18)
N8_14 N 0.4434(3) 0.6778(3) 0.13826(19)
C22_14 C 0.5851(4) 0.8714(4) 0.1042(3)
C23_14 C 0.4150(5) 0.6340(4) 0.1398(3)
N9_8 N 0.5779(3) 0.6940(3) 0.11668(18)
N2_14 N 0.4296(2) 0.7194(2) 0.91050(15)
N3_8 N 0.3060(3) 0.5779(3) 0.88332(18)
N5_14 N 0.4315(3) 0.7728(2) 0.83817(15)
C1_14 C 0.4545(3) 0.6799(3) 0.9863(2)
H1_14 H 0.4491 0.6406 0.9754
C4_14 C 0.4585(3) 0.7854(3) 0.9744(2)
H4_14 H 0.4554 0.8196 0.9556
C5_14 C 0.4473(3) 0.7285(3) 0.95688(19)
C6_14 C 0.3901(3) 0.6722(3) 0.89995(19)
C7_14 C 0.3949(3) 0.6344(3) 0.8618(2)
H5_14 H 0.4259 0.6410 0.8406
C8_14 C 0.3557(3) 0.5886(3) 0.8549(2)
H6_14 H 0.3621 0.5627 0.8300
C9_14 C 0.2999(3) 0.6164(3) 0.9182(2)
H7_14 H 0.2666 0.6111 0.9376
C10_14 C 0.3383(3) 0.6629(3) 0.9279(2)
H8_14 H 0.3306 0.6885 0.9528
C11_14 C 0.4685(3) 0.7450(3) 0.8739(2)
H9_14 H 0.4932 0.7130 0.8605
H10_14 H 0.4955 0.7753 0.8870
C12_14 C 0.3353(4) 0.8147(4) 0.8667(4)
H11_14 H 0.3199 0.7756 0.8707
C13_14 C 0.3002(4) 0.8648(3) 0.8768(4)
H12_14 H 0.2620 0.8583 0.8898
C14_14 C 0.3731(4) 0.9288(4) 0.8545(4)
H13_14 H 0.3874 0.9682 0.8505
C15_14 C 0.4115(4) 0.8803(4) 0.8448(4)
H14_14 H 0.4506 0.8878 0.8340
C16_14 C 0.3929(3) 0.8229(3) 0.85076(19)
C17_14 C 0.4485(3) 0.7698(3) 0.79155(17)
C18_14 C 0.4119(3) 0.7914(4) 0.7577(2)
H15_14 H 0.3750 0.8095 0.7654
C19_14 C 0.4284(4) 0.7870(4) 0.7127(2)
H16_14 H 0.4019 0.8026 0.6906
C20_14 C 0.5151(4) 0.7411(4) 0.7309(2)
H17_14 H 0.5511 0.7225 0.7216
C21_14 C 0.5035(3) 0.7443(4) 0.7773(2)
H18_14 H 0.5314 0.7298 0.7987
N2_15 N 0.7194(2) 0.5704(2) 0.08950(15)
N5_15 N 0.7728(2) 0.5685(3) 0.16183(15)
C1_15 C 0.6799(3) 0.5455(3) 0.0137(2)
H1_15 H 0.6406 0.5509 0.0246
C4_15 C 0.7854(3) 0.5415(3) 0.0256(2)
H4_15 H 0.8196 0.5446 0.0444
C5_15 C 0.7285(3) 0.5527(3) 0.04312(19)
C6_15 C 0.6722(3) 0.6099(3) 0.10005(19)
C7_15 C 0.6344(3) 0.6051(3) 0.1382(2)
H5_15 H 0.6410 0.5741 0.1594
C8_15 C 0.5886(3) 0.6443(3) 0.1451(2)
H6_15 H 0.5627 0.6379 0.1700
C9_15 C 0.6164(3) 0.7001(3) 0.0818(2)
H7_15 H 0.6111 0.7334 0.0624
C10_15 C 0.6629(3) 0.6617(3) 0.0721(2)
H8_15 H 0.6885 0.6694 0.0472
C11_15 C 0.7450(3) 0.5315(3) 0.1261(2)
H9_15 H 0.7130 0.5068 0.1395
H10_15 H 0.7753 0.5045 0.1130
C12_15 C 0.8147(4) 0.6647(4) 0.1333(4)
H11_15 H 0.7756 0.6801 0.1293
C13_15 C 0.8648(3) 0.6998(4) 0.1232(4)
H12_15 H 0.8583 0.7380 0.1102
C14_15 C 0.9288(4) 0.6269(4) 0.1455(4)
H13_15 H 0.9682 0.6126 0.1495
C15_15 C 0.8803(4) 0.5885(4) 0.1552(4)
H14_15 H 0.8878 0.5494 0.1660
C16_15 C 0.8229(3) 0.6071(3) 0.14924(19)
C17_15 C 0.7698(3) 0.5515(3) 0.20845(17)
C18_15 C 0.7914(4) 0.5881(3) 0.2423(2)
H15_15 H 0.8095 0.6250 0.2346
C19_15 C 0.7870(4) 0.5716(4) 0.2873(2)
H16_15 H 0.8026 0.5981 0.3094
C20_15 C 0.7411(4) 0.4849(4) 0.2691(2)
H17_15 H 0.7225 0.4489 0.2784
C21_15 C 0.7443(4) 0.4965(3) 0.2227(2)
H18_15 H 0.7298 0.4686 0.2013
N1_15 N 0.7429(3) 0.5196(3) 0.95069(17)
C2_15 C 0.6892(3) 0.5304(3) 0.9685(2)
H2_15 H 0.6554 0.5277 0.9493
C3_15 C 0.7913(3) 0.5254(4) 0.9798(2)
H3_15 H 0.8300 0.5182 0.9682
B1_15 B 0.9308(12) 0.3708(13) 0.8929(9)
H19_15 H 0.9251 0.3413 0.8689
H20_15 H 0.9363 0.3503 0.9219
H21_15 H 0.9662 0.3948 0.8862
B2_15 B 0.5814(13) 0.6310(11) 0.8697(9)
H22_15 H 0.5809 0.6414 0.9019
H23_15 H 0.5432 0.6129 0.8614
H24_15 H 0.5877 0.6672 0.8517
N7_15 N 0.8299(3) 0.4436(3) 0.89187(18)
N8_15 N 0.6778(3) 0.5566(3) 0.86174(19)
C22_15 C 0.8714(4) 0.4149(4) 0.8958(3)
C23_15 C 0.6340(4) 0.5850(5) 0.8602(3)
N2_16 N 0.2806(2) 0.4296(2) 0.08950(15)
N5_16 N 0.2272(2) 0.4315(3) 0.16183(15)
C1_16 C 0.3201(3) 0.4545(3) 0.0137(2)
H1_16 H 0.3594 0.4491 0.0246
C4_16 C 0.2146(3) 0.4585(3) 0.0256(2)
H4_16 H 0.1804 0.4554 0.0444
C5_16 C 0.2715(3) 0.4473(3) 0.04312(19)
C6_16 C 0.3278(3) 0.3901(3) 0.10005(19)
C7_16 C 0.3656(3) 0.3949(3) 0.1382(2)
H5_16 H 0.3590 0.4259 0.1594
C8_16 C 0.4114(3) 0.3557(3) 0.1451(2)
H6_16 H 0.4373 0.3621 0.1700
C9_16 C 0.3836(3) 0.2999(3) 0.0818(2)
H7_16 H 0.3889 0.2666 0.0624
C10_16 C 0.3371(3) 0.3383(3) 0.0721(2)
H8_16 H 0.3115 0.3306 0.0472
C11_16 C 0.2550(3) 0.4685(3) 0.1261(2)
H9_16 H 0.2870 0.4932 0.1395
H10_16 H 0.2247 0.4955 0.1130
C12_16 C 0.1853(4) 0.3353(4) 0.1333(4)
H11_16 H 0.2244 0.3199 0.1293
C13_16 C 0.1352(3) 0.3002(4) 0.1232(4)
H12_16 H 0.1417 0.2620 0.1102
C14_16 C 0.0712(4) 0.3731(4) 0.1455(4)
H13_16 H 0.0318 0.3874 0.1495
C15_16 C 0.1197(4) 0.4115(4) 0.1552(4)
H14_16 H 0.1122 0.4506 0.1660
C16_16 C 0.1771(3) 0.3929(3) 0.14924(19)
C17_16 C 0.2302(3) 0.4485(3) 0.20845(17)
C18_16 C 0.2086(4) 0.4119(3) 0.2423(2)
H15_16 H 0.1905 0.3750 0.2346
C19_16 C 0.2130(4) 0.4284(4) 0.2873(2)
H16_16 H 0.1974 0.4019 0.3094
C20_16 C 0.2589(4) 0.5151(4) 0.2691(2)
H17_16 H 0.2775 0.5511 0.2784
C21_16 C 0.2557(4) 0.5035(3) 0.2227(2)
H18_16 H 0.2702 0.5314 0.2013
N1_16 N 0.2571(3) 0.4804(3) 0.95069(17)
C2_16 C 0.3108(3) 0.4696(3) 0.9685(2)
H2_16 H 0.3446 0.4723 0.9493
C3_16 C 0.2087(3) 0.4746(4) 0.9798(2)
H3_16 H 0.1700 0.4818 0.9682
B1_16 B 0.0692(12) 0.6292(13) 0.8929(9)
H19_16 H 0.0749 0.6587 0.8689
H20_16 H 0.0637 0.6497 0.9219
H21_16 H 0.0338 0.6052 0.8862
B2_16 B 0.4186(13) 0.3690(11) 0.8697(9)
H22_16 H 0.4191 0.3586 0.9019
H23_16 H 0.4568 0.3871 0.8614
H24_16 H 0.4123 0.3328 0.8517
N7_16 N 0.1701(3) 0.5564(3) 0.89187(18)
N8_16 N 0.3222(3) 0.4434(3) 0.86174(19)
C22_16 C 0.1286(4) 0.5851(4) 0.8958(3)
C23_16 C 0.3660(4) 0.4150(5) 0.8602(3)
loop_
_geom_bond_atom_site_label_1
_geom_bond_atom_site_label_2
_geom_bond_site_symmetry_1
_geom_bond_site_symmetry_2
Fe1 N1 1_555 1_555
N1 C2 1_555 1_555
H2 C2 1_555 1_555
C3 N1 1_555 1_555
H3 C3 1_555 1_555
B2 H22 1_555 1_555
H23 B2 1_555 1_555
H24 B2 1_555 1_555
N8 Fe1 1_555 1_555
C23 B2 1_555 1_555
N10 Fe1 1_555 1_555
N8 C23 1_555 1_555
N2 C5 1_555 1_555
N3 C8 1_555 1_555
N4 C13 1_555 1_555
N5 C11 1_555 1_555
N6 C19 1_555 1_555
C1 H1 1_555 1_555
H4 C4 1_555 1_555
C5 C1 1_555 1_555
C6 N2 1_555 1_555
C7 C6 1_555 1_555
H5 C7 1_555 1_555
C8 C7 1_555 1_555
H6 C8 1_555 1_555
C9 N3 1_555 1_555
H7 C9 1_555 1_555
C10 C6 1_555 1_555
H8 C10 1_555 1_555
C11 N2 1_555 1_555
H9 C11 1_555 1_555
H10 C11 1_555 1_555
C12 H11 1_555 1_555
C13 C12 1_555 1_555
H12 C13 1_555 1_555
C14 N4 1_555 1_555
H13 C14 1_555 1_555
C15 C14 1_555 1_555
H14 C15 1_555 1_555
C16 N5 1_555 1_555
C17 N5 1_555 1_555
C18 C17 1_555 1_555
H15 C18 1_555 1_555
C19 C18 1_555 1_555
H16 C19 1_555 1_555
Fe4 N4 1_555 1_555
C4 C5 1_555 1_555
C9 C10 1_555 1_555
C12 C16 1_555 1_555
C15 C16 1_555 1_555
B1 H19 1_555 1_555
H20 B1 1_555 1_555
H21 B1 1_555 1_555
C22 B1 1_555 1_555
N7 C22 1_555 1_555
H17 C20 1_555 1_555
H18 C21 1_555 1_555
C20 C21 1_555 1_555
B1_2 H19_2 1_555 1_555
H20_2 B1_2 1_555 1_555
H21_2 B1_2 1_555 1_555
C22_2 B1_2 1_555 1_555
N7_2 C22_2 1_555 1_555
H17_2 C20_2 1_555 1_555
H18_2 C21_2 1_555 1_555
C20_2 C21_2 1_555 1_555
Fe1_2 N1_2 1_555 1_555
N1_2 C2_2 1_555 1_555
H2_2 C2_2 1_555 1_555
C3_2 N1_2 1_555 1_555
H3_2 C3_2 1_555 1_555
B2_2 H22_2 1_555 1_555
H23_2 B2_2 1_555 1_555
H24_2 B2_2 1_555 1_555
N8_2 Fe1_2 1_555 1_555
C23_2 B2_2 1_555 1_555
N10_2 Fe1_2 1_555 1_555
N8_2 C23_2 1_555 1_555
N2_2 C5_2 1_555 1_555
N3_2 C8_2 1_555 1_555
N4_2 C13_2 1_555 1_555
N5_2 C11_2 1_555 1_555
N6_2 C19_2 1_555 1_555
C1_2 H1_2 1_555 1_555
H4_2 C4_2 1_555 1_555
C5_2 C1_2 1_555 1_555
C6_2 N2_2 1_555 1_555
C7_2 C6_2 1_555 1_555
H5_2 C7_2 1_555 1_555
C8_2 C7_2 1_555 1_555
H6_2 C8_2 1_555 1_555
C9_2 N3_2 1_555 1_555
H7_2 C9_2 1_555 1_555
C10_2 C6_2 1_555 1_555
H8_2 C10_2 1_555 1_555
C11_2 N2_2 1_555 1_555
H9_2 C11_2 1_555 1_555
H10_2 C11_2 1_555 1_555
C12_2 H11_2 1_555 1_555
C13_2 C12_2 1_555 1_555
H12_2 C13_2 1_555 1_555
C14_2 N4_2 1_555 1_555
H13_2 C14_2 1_555 1_555
C15_2 C14_2 1_555 1_555
H14_2 C15_2 1_555 1_555
C16_2 N5_2 1_555 1_555
C17_2 N5_2 1_555 1_555
C18_2 C17_2 1_555 1_555
H15_2 C18_2 1_555 1_555
C19_2 C18_2 1_555 1_555
H16_2 C19_2 1_555 1_555
Fe4_2 N4_2 1_555 1_555
C4_2 C5_2 1_555 1_555
C9_2 C10_2 1_555 1_555
C12_2 C16_2 1_555 1_555
C15_2 C16_2 1_555 1_555
H17_3 C20_3 1_555 1_555
H18_3 C21_3 1_555 1_555
C20_3 C21_3 1_555 1_555
B1_3 H19_3 1_555 1_555
H20_3 B1_3 1_555 1_555
H21_3 B1_3 1_555 1_555
C22_3 B1_3 1_555 1_555
N7_3 C22_3 1_555 1_555
N2_3 C5_3 1_555 1_555
N9_2 C8_3 1_555 1_555
N4_3 C13_3 1_555 1_555
N5_3 C11_3 1_555 1_555
N6_3 C19_3 1_555 1_555
C1_3 H1_3 1_555 1_555
H4_3 C4_3 1_555 1_555
C5_3 C1_3 1_555 1_555
C6_3 N2_3 1_555 1_555
C7_3 C6_3 1_555 1_555
H5_3 C7_3 1_555 1_555
C8_3 C7_3 1_555 1_555
H6_3 C8_3 1_555 1_555
C9_3 N9_2 1_555 1_555
H7_3 C9_3 1_555 1_555
C10_3 C6_3 1_555 1_555
H8_3 C10_3 1_555 1_555
C11_3 N2_3 1_555 1_555
H9_3 C11_3 1_555 1_555
H10_3 C11_3 1_555 1_555
C12_3 H11_3 1_555 1_555
C13_3 C12_3 1_555 1_555
H12_3 C13_3 1_555 1_555
C14_3 N4_3 1_555 1_555
H13_3 C14_3 1_555 1_555
C15_3 C14_3 1_555 1_555
H14_3 C15_3 1_555 1_555
C16_3 N5_3 1_555 1_555
C17_3 N5_3 1_555 1_555
C18_3 C17_3 1_555 1_555
H15_3 C18_3 1_555 1_555
C19_3 C18_3 1_555 1_555
H16_3 C19_3 1_555 1_555
Fe4_3 N4_3 1_555 1_555
C4_3 C5_3 1_555 1_555
C9_3 C10_3 1_555 1_555
C12_3 C16_3 1_555 1_555
C15_3 C16_3 1_555 1_555
Fe2 N1_3 1_555 1_555
N1_3 C2_3 1_555 1_555
H2_3 C2_3 1_555 1_555
C3_3 N1_3 1_555 1_555
H3_3 C3_3 1_555 1_555
B2_3 H22_3 1_555 1_555
H23_3 B2_3 1_555 1_555
H24_3 B2_3 1_555 1_555
N8_3 Fe2 1_555 1_555
C23_3 B2_3 1_555 1_555
N10_3 Fe2 1_555 1_555
N8_3 C23_3 1_555 1_555
N2_4 C5_4 1_555 1_555
N9 C8_4 1_555 1_555
N4_4 C13_4 1_555 1_555
N5_4 C11_4 1_555 1_555
N6_4 C19_4 1_555 1_555
C1_4 H1_4 1_555 1_555
H4_4 C4_4 1_555 1_555
C5_4 C1_4 1_555 1_555
C6_4 N2_4 1_555 1_555
C7_4 C6_4 1_555 1_555
H5_4 C7_4 1_555 1_555
C8_4 C7_4 1_555 1_555
H6_4 C8_4 1_555 1_555
C9_4 N9 1_555 1_555
H7_4 C9_4 1_555 1_555
C10_4 C6_4 1_555 1_555
H8_4 C10_4 1_555 1_555
C11_4 N2_4 1_555 1_555
H9_4 C11_4 1_555 1_555
H10_4 C11_4 1_555 1_555
C12_4 H11_4 1_555 1_555
C13_4 C12_4 1_555 1_555
H12_4 C13_4 1_555 1_555
C14_4 N4_4 1_555 1_555
H13_4 C14_4 1_555 1_555
C15_4 C14_4 1_555 1_555
H14_4 C15_4 1_555 1_555
C16_4 N5_4 1_555 1_555
C17_4 N5_4 1_555 1_555
C18_4 C17_4 1_555 1_555
H15_4 C18_4 1_555 1_555
C19_4 C18_4 1_555 1_555
H16_4 C19_4 1_555 1_555
Fe4_4 N4_4 1_555 1_555
C4_4 C5_4 1_555 1_555
C9_4 C10_4 1_555 1_555
C12_4 C16_4 1_555 1_555
C15_4 C16_4 1_555 1_555
Fe2_2 N1_4 1_555 1_555
N1_4 C2_4 1_555 1_555
H2_4 C2_4 1_555 1_555
C3_4 N1_4 1_555 1_555
H3_4 C3_4 1_555 1_555
B2_4 H22_4 1_555 1_555
H23_4 B2_4 1_555 1_555
H24_4 B2_4 1_555 1_555
N8_4 Fe2_2 1_555 1_555
C23_4 B2_4 1_555 1_555
N10_4 Fe2_2 1_555 1_555
N8_4 C23_4 1_555 1_555
H17_4 C20_4 1_555 1_555
H18_4 C21_4 1_555 1_555
C20_4 C21_4 1_555 1_555
B1_4 H19_4 1_555 1_555
H20_4 B1_4 1_555 1_555
H21_4 B1_4 1_555 1_555
C22_4 B1_4 1_555 1_555
N7_4 C22_4 1_555 1_555
Fe3_2 N1_5 1_555 1_555
N1_5 C2_5 1_555 1_555
N2_5 C5_5 1_555 1_555
N3_3 C8_5 1_555 1_555
N4_5 C13_5 1_555 1_555
N5_5 C11_5 1_555 1_555
N11_2 C19_5 1_555 1_555
C1_5 H1_5 1_555 1_555
C2_5 C1_5 1_555 1_555
H2_5 C2_5 1_555 1_555
C3_5 N1_5 1_555 1_555
H3_5 C3_5 1_555 1_555
C4_5 C3_5 1_555 1_555
H4_5 C4_5 1_555 1_555
C5_5 C1_5 1_555 1_555
C6_5 N2_5 1_555 1_555
C7_5 C6_5 1_555 1_555
H5_5 C7_5 1_555 1_555
C8_5 C7_5 1_555 1_555
H6_5 C8_5 1_555 1_555
C9_5 N3_3 1_555 1_555
H7_5 C9_5 1_555 1_555
C10_5 C6_5 1_555 1_555
H8_5 C10_5 1_555 1_555
C11_5 N2_5 1_555 1_555
H9_5 C11_5 1_555 1_555
H10_5 C11_5 1_555 1_555
C12_5 H11_5 1_555 1_555
C13_5 C12_5 1_555 1_555
H12_5 C13_5 1_555 1_555
C14_5 N4_5 1_555 1_555
H13_5 C14_5 1_555 1_555
C15_5 C14_5 1_555 1_555
H14_5 C15_5 1_555 1_555
C16_5 N5_5 1_555 1_555
C17_5 N5_5 1_555 1_555
C18_5 C17_5 1_555 1_555
H15_5 C18_5 1_555 1_555
C19_5 C18_5 1_555 1_555
H16_5 C19_5 1_555 1_555
B2_5 H22_5 1_555 1_555
H23_5 B2_5 1_555 1_555
H24_5 B2_5 1_555 1_555
N8_5 Fe3_2 1_555 1_555
C23_5 B2_5 1_555 1_555
Fe4_5 N4_5 1_555 1_555
N10_5 Fe3_2 1_555 1_555
C4_5 C5_5 1_555 1_555
C9_5 C10_5 1_555 1_555
C12_5 C16_5 1_555 1_555
C15_5 C16_5 1_555 1_555
N8_5 C23_5 1_555 1_555
H17_5 C20_5 1_555 1_555
H18_5 C21_5 1_555 1_555
B1_5 H19_5 1_555 1_555
H20_5 B1_5 1_555 1_555
H21_5 B1_5 1_555 1_555
C22_5 B1_5 1_555 1_555
C20_5 C21_5 1_555 1_555
N7_5 C22_5 1_555 1_555
H17_6 C20_6 1_555 1_555
H18_6 C21_6 1_555 1_555
B1_6 H19_6 1_555 1_555
H20_6 B1_6 1_555 1_555
H21_6 B1_6 1_555 1_555
C22_6 B1_6 1_555 1_555
C20_6 C21_6 1_555 1_555
N7_6 C22_6 1_555 1_555
Fe3 N1_6 1_555 1_555
N1_6 C2_6 1_555 1_555
N2_6 C5_6 1_555 1_555
N3_4 C8_6 1_555 1_555
N4_6 C13_6 1_555 1_555
N5_6 C11_6 1_555 1_555
N11 C19_6 1_555 1_555
C1_6 H1_6 1_555 1_555
C2_6 C1_6 1_555 1_555
H2_6 C2_6 1_555 1_555
C3_6 N1_6 1_555 1_555
H3_6 C3_6 1_555 1_555
C4_6 C3_6 1_555 1_555
H4_6 C4_6 1_555 1_555
C5_6 C1_6 1_555 1_555
C6_6 N2_6 1_555 1_555
C7_6 C6_6 1_555 1_555
H5_6 C7_6 1_555 1_555
C8_6 C7_6 1_555 1_555
H6_6 C8_6 1_555 1_555
C9_6 N3_4 1_555 1_555
H7_6 C9_6 1_555 1_555
C10_6 C6_6 1_555 1_555
H8_6 C10_6 1_555 1_555
C11_6 N2_6 1_555 1_555
H9_6 C11_6 1_555 1_555
H10_6 C11_6 1_555 1_555
C12_6 H11_6 1_555 1_555
C13_6 C12_6 1_555 1_555
H12_6 C13_6 1_555 1_555
C14_6 N4_6 1_555 1_555
H13_6 C14_6 1_555 1_555
C15_6 C14_6 1_555 1_555
H14_6 C15_6 1_555 1_555
C16_6 N5_6 1_555 1_555
C17_6 N5_6 1_555 1_555
C18_6 C17_6 1_555 1_555
H15_6 C18_6 1_555 1_555
C19_6 C18_6 1_555 1_555
H16_6 C19_6 1_555 1_555
B2_6 H22_6 1_555 1_555
H23_6 B2_6 1_555 1_555
H24_6 B2_6 1_555 1_555
N8_6 Fe3 1_555 1_555
C23_6 B2_6 1_555 1_555
Fe4_6 N4_6 1_555 1_555
N10_6 Fe3 1_555 1_555
C4_6 C5_6 1_555 1_555
C9_6 C10_6 1_555 1_555
C12_6 C16_6 1_555 1_555
C15_6 C16_6 1_555 1_555
N8_6 C23_6 1_555 1_555
Fe3_3 N1_7 1_555 1_555
N1_7 C2_7 1_555 1_555
N2_7 C5_7 1_555 1_555
N9_4 C8_7 1_555 1_555
N4_7 C13_7 1_555 1_555
N5_7 C11_7 1_555 1_555
N11_3 C19_7 1_555 1_555
C1_7 H1_7 1_555 1_555
C2_7 C1_7 1_555 1_555
H2_7 C2_7 1_555 1_555
C3_7 N1_7 1_555 1_555
H3_7 C3_7 1_555 1_555
C4_7 C3_7 1_555 1_555
H4_7 C4_7 1_555 1_555
C5_7 C1_7 1_555 1_555
C6_7 N2_7 1_555 1_555
C7_7 C6_7 1_555 1_555
H5_7 C7_7 1_555 1_555
C8_7 C7_7 1_555 1_555
H6_7 C8_7 1_555 1_555
C9_7 N9_4 1_555 1_555
H7_7 C9_7 1_555 1_555
C10_7 C6_7 1_555 1_555
H8_7 C10_7 1_555 1_555
C11_7 N2_7 1_555 1_555
H9_7 C11_7 1_555 1_555
H10_7 C11_7 1_555 1_555
C12_7 H11_7 1_555 1_555
C13_7 C12_7 1_555 1_555
H12_7 C13_7 1_555 1_555
C14_7 N4_7 1_555 1_555
H13_7 C14_7 1_555 1_555
C15_7 C14_7 1_555 1_555
H14_7 C15_7 1_555 1_555
C16_7 N5_7 1_555 1_555
C17_7 N5_7 1_555 1_555
C18_7 C17_7 1_555 1_555
H15_7 C18_7 1_555 1_555
C19_7 C18_7 1_555 1_555
H16_7 C19_7 1_555 1_555
B2_7 H22_7 1_555 1_555
H23_7 B2_7 1_555 1_555
H24_7 B2_7 1_555 1_555
N8_7 Fe3_3 1_555 1_555
C23_7 B2_7 1_555 1_555
Fe4_7 N4_7 1_555 1_555
N10_7 Fe3_3 1_555 1_555
C4_7 C5_7 1_555 1_555
C9_7 C10_7 1_555 1_555
C12_7 C16_7 1_555 1_555
C15_7 C16_7 1_555 1_555
N8_7 C23_7 1_555 1_555
H17_7 C20_7 1_555 1_555
H18_7 C21_7 1_555 1_555
B1_7 H19_7 1_555 1_555
H20_7 B1_7 1_555 1_555
H21_7 B1_7 1_555 1_555
C22_7 B1_7 1_555 1_555
C20_7 C21_7 1_555 1_555
N7_7 C22_7 1_555 1_555
H17_8 C20_8 1_555 1_555
H18_8 C21_8 1_555 1_555
B1_8 H19_8 1_555 1_555
H20_8 B1_8 1_555 1_555
H21_8 B1_8 1_555 1_555
C22_8 B1_8 1_555 1_555
C20_8 C21_8 1_555 1_555
N7_8 C22_8 1_555 1_555
Fe3_4 N1_8 1_555 1_555
N1_8 C2_8 1_555 1_555
N2_8 C5_8 1_555 1_555
N9_3 C8_8 1_555 1_555
N4_8 C13_8 1_555 1_555
N5_8 C11_8 1_555 1_555
N11_4 C19_8 1_555 1_555
C1_8 H1_8 1_555 1_555
C2_8 C1_8 1_555 1_555
H2_8 C2_8 1_555 1_555
C3_8 N1_8 1_555 1_555
H3_8 C3_8 1_555 1_555
C4_8 C3_8 1_555 1_555
H4_8 C4_8 1_555 1_555
C5_8 C1_8 1_555 1_555
C6_8 N2_8 1_555 1_555
C7_8 C6_8 1_555 1_555
H5_8 C7_8 1_555 1_555
C8_8 C7_8 1_555 1_555
H6_8 C8_8 1_555 1_555
C9_8 N9_3 1_555 1_555
H7_8 C9_8 1_555 1_555
C10_8 C6_8 1_555 1_555
H8_8 C10_8 1_555 1_555
C11_8 N2_8 1_555 1_555
H9_8 C11_8 1_555 1_555
H10_8 C11_8 1_555 1_555
C12_8 H11_8 1_555 1_555
C13_8 C12_8 1_555 1_555
H12_8 C13_8 1_555 1_555
C14_8 N4_8 1_555 1_555
H13_8 C14_8 1_555 1_555
C15_8 C14_8 1_555 1_555
H14_8 C15_8 1_555 1_555
C16_8 N5_8 1_555 1_555
C17_8 N5_8 1_555 1_555
C18_8 C17_8 1_555 1_555
H15_8 C18_8 1_555 1_555
C19_8 C18_8 1_555 1_555
H16_8 C19_8 1_555 1_555
B2_8 H22_8 1_555 1_555
H23_8 B2_8 1_555 1_555
H24_8 B2_8 1_555 1_555
N8_8 Fe3_4 1_555 1_555
C23_8 B2_8 1_555 1_555
Fe4_8 N4_8 1_555 1_555
N10_8 Fe3_4 1_555 1_555
C4_8 C5_8 1_555 1_555
C9_8 C10_8 1_555 1_555
C12_8 C16_8 1_555 1_555
C15_8 C16_8 1_555 1_555
N8_8 C23_8 1_555 1_555
Fe4_8 N1_9 1_555 1_555
N1_9 C2_9 1_555 1_555
N2_9 C5_9 1_555 1_555
N3_5 C8_9 1_555 1_555
N10_8 C13_9 1_555 1_555
N5_9 C11_9 1_555 1_555
N6_5 C19_9 1_555 1_555
C1_9 H1_9 1_555 1_555
C2_9 C1_9 1_555 1_555
H2_9 C2_9 1_555 1_555
C3_9 N1_9 1_555 1_555
H3_9 C3_9 1_555 1_555
C4_9 C3_9 1_555 1_555
H4_9 C4_9 1_555 1_555
C5_9 C1_9 1_555 1_555
C6_9 N2_9 1_555 1_555
C7_9 C6_9 1_555 1_555
H5_9 C7_9 1_555 1_555
C8_9 C7_9 1_555 1_555
H6_9 C8_9 1_555 1_555
C9_9 N3_5 1_555 1_555
H7_9 C9_9 1_555 1_555
C10_9 C6_9 1_555 1_555
H8_9 C10_9 1_555 1_555
C11_9 N2_9 1_555 1_555
H9_9 C11_9 1_555 1_555
H10_9 C11_9 1_555 1_555
C12_9 H11_9 1_555 1_555
C13_9 C12_9 1_555 1_555
H12_9 C13_9 1_555 1_555
C14_9 N10_8 1_555 1_555
H13_9 C14_9 1_555 1_555
C15_9 C14_9 1_555 1_555
H14_9 C15_9 1_555 1_555
C16_9 N5_9 1_555 1_555
C17_9 N5_9 1_555 1_555
C18_9 C17_9 1_555 1_555
H15_9 C18_9 1_555 1_555
C19_9 C18_9 1_555 1_555
H16_9 C19_9 1_555 1_555
C20_9 N6_5 1_555 1_555
H17_9 C20_9 1_555 1_555
C21_9 C17_9 1_555 1_555
H18_9 C21_9 1_555 1_555
B1_9 H19_9 1_555 1_555
H20_9 B1_9 1_555 1_555
H21_9 B1_9 1_555 1_555
B2_9 H22_9 1_555 1_555
H23_9 B2_9 1_555 1_555
H24_9 B2_9 1_555 1_555
N7_9 Fe4_8 1_555 1_555
N8_9 Fe4_8 1_555 1_555
C22_9 B1_9 1_555 1_555
C23_9 B2_9 1_555 1_555
Fe4_6 N3_5 1_555 1_555
Fe4_3 N6_5 1_555 1_555
N9_5 Fe4_8 1_555 1_555
N11_5 Fe4_8 1_555 1_555
C4_9 C5_9 1_555 1_555
C9_9 C10_9 1_555 1_555
C12_9 C16_9 1_555 1_555
C15_9 C16_9 1_555 1_555
C20_9 C21_9 1_555 1_555
N7_9 C22_9 1_555 1_555
N8_9 C23_9 1_555 1_555
Fe4_7 N1_10 1_555 1_555
N1_10 C2_10 1_555 1_555
N2_10 C5_10 1_555 1_555
N3_6 C8_10 1_555 1_555
N10_7 C13_10 1_555 1_555
N5_10 C11_10 1_555 1_555
N6_6 C19_10 1_555 1_555
C1_10 H1_10 1_555 1_555
C2_10 C1_10 1_555 1_555
H2_10 C2_10 1_555 1_555
C3_10 N1_10 1_555 1_555
H3_10 C3_10 1_555 1_555
C4_10 C3_10 1_555 1_555
H4_10 C4_10 1_555 1_555
C5_10 C1_10 1_555 1_555
C6_10 N2_10 1_555 1_555
C7_10 C6_10 1_555 1_555
H5_10 C7_10 1_555 1_555
C8_10 C7_10 1_555 1_555
H6_10 C8_10 1_555 1_555
C9_10 N3_6 1_555 1_555
H7_10 C9_10 1_555 1_555
C10_10 C6_10 1_555 1_555
H8_10 C10_10 1_555 1_555
C11_10 N2_10 1_555 1_555
H9_10 C11_10 1_555 1_555
H10_10 C11_10 1_555 1_555
C12_10 H11_10 1_555 1_555
C13_10 C12_10 1_555 1_555
H12_10 C13_10 1_555 1_555
C14_10 N10_7 1_555 1_555
H13_10 C14_10 1_555 1_555
C15_10 C14_10 1_555 1_555
H14_10 C15_10 1_555 1_555
C16_10 N5_10 1_555 1_555
C17_10 N5_10 1_555 1_555
C18_10 C17_10 1_555 1_555
H15_10 C18_10 1_555 1_555
C19_10 C18_10 1_555 1_555
H16_10 C19_10 1_555 1_555
C20_10 N6_6 1_555 1_555
H17_10 C20_10 1_555 1_555
C21_10 C17_10 1_555 1_555
H18_10 C21_10 1_555 1_555
B1_10 H19_10 1_555 1_555
H20_10 B1_10 1_555 1_555
H21_10 B1_10 1_555 1_555
B2_10 H22_10 1_555 1_555
H23_10 B2_10 1_555 1_555
H24_10 B2_10 1_555 1_555
N7_10 Fe4_7 1_555 1_555
N8_10 Fe4_7 1_555 1_555
C22_10 B1_10 1_555 1_555
C23_10 B2_10 1_555 1_555
Fe4_5 N3_6 1_555 1_555
Fe4_4 N6_6 1_555 1_555
N9_6 Fe4_7 1_555 1_555
N11_6 Fe4_7 1_555 1_555
C4_10 C5_10 1_555 1_555
C9_10 C10_10 1_555 1_555
C12_10 C16_10 1_555 1_555
C15_10 C16_10 1_555 1_555
C20_10 C21_10 1_555 1_555
N7_10 C22_10 1_555 1_555
N8_10 C23_10 1_555 1_555
Fe4_6 N1_11 1_555 1_555
N1_11 C2_11 1_555 1_555
N2_11 C5_11 1_555 1_555
N9_6 C8_11 1_555 1_555
N10_6 C13_11 1_555 1_555
N5_11 C11_11 1_555 1_555
N6_7 C19_11 1_555 1_555
C1_11 H1_11 1_555 1_555
C2_11 C1_11 1_555 1_555
H2_11 C2_11 1_555 1_555
C3_11 N1_11 1_555 1_555
H3_11 C3_11 1_555 1_555
C4_11 C3_11 1_555 1_555
H4_11 C4_11 1_555 1_555
C5_11 C1_11 1_555 1_555
C6_11 N2_11 1_555 1_555
C7_11 C6_11 1_555 1_555
H5_11 C7_11 1_555 1_555
C8_11 C7_11 1_555 1_555
H6_11 C8_11 1_555 1_555
C9_11 N9_6 1_555 1_555
H7_11 C9_11 1_555 1_555
C10_11 C6_11 1_555 1_555
H8_11 C10_11 1_555 1_555
C11_11 N2_11 1_555 1_555
H9_11 C11_11 1_555 1_555
H10_11 C11_11 1_555 1_555
C12_11 H11_11 1_555 1_555
C13_11 C12_11 1_555 1_555
H12_11 C13_11 1_555 1_555
C14_11 N10_6 1_555 1_555
H13_11 C14_11 1_555 1_555
C15_11 C14_11 1_555 1_555
H14_11 C15_11 1_555 1_555
C16_11 N5_11 1_555 1_555
C17_11 N5_11 1_555 1_555
C18_11 C17_11 1_555 1_555
H15_11 C18_11 1_555 1_555
C19_11 C18_11 1_555 1_555
H16_11 C19_11 1_555 1_555
C20_11 N6_7 1_555 1_555
H17_11 C20_11 1_555 1_555
C21_11 C17_11 1_555 1_555
H18_11 C21_11 1_555 1_555
B1_11 H19_11 1_555 1_555
H20_11 B1_11 1_555 1_555
H21_11 B1_11 1_555 1_555
B2_11 H22_11 1_555 1_555
H23_11 B2_11 1_555 1_555
H24_11 B2_11 1_555 1_555
N7_11 Fe4_6 1_555 1_555
N8_11 Fe4_6 1_555 1_555
C22_11 B1_11 1_555 1_555
C23_11 B2_11 1_555 1_555
Fe4_2 N6_7 1_555 1_555
N11_7 Fe4_6 1_555 1_555
C4_11 C5_11 1_555 1_555
C9_11 C10_11 1_555 1_555
C12_11 C16_11 1_555 1_555
C15_11 C16_11 1_555 1_555
C20_11 C21_11 1_555 1_555
N7_11 C22_11 1_555 1_555
N8_11 C23_11 1_555 1_555
Fe4_5 N1_12 1_555 1_555
N1_12 C2_12 1_555 1_555
N2_12 C5_12 1_555 1_555
N9_5 C8_12 1_555 1_555
N10_5 C13_12 1_555 1_555
N5_12 C11_12 1_555 1_555
N6_8 C19_12 1_555 1_555
C1_12 H1_12 1_555 1_555
C2_12 C1_12 1_555 1_555
H2_12 C2_12 1_555 1_555
C3_12 N1_12 1_555 1_555
H3_12 C3_12 1_555 1_555
C4_12 C3_12 1_555 1_555
H4_12 C4_12 1_555 1_555
C5_12 C1_12 1_555 1_555
C6_12 N2_12 1_555 1_555
C7_12 C6_12 1_555 1_555
H5_12 C7_12 1_555 1_555
C8_12 C7_12 1_555 1_555
H6_12 C8_12 1_555 1_555
C9_12 N9_5 1_555 1_555
H7_12 C9_12 1_555 1_555
C10_12 C6_12 1_555 1_555
H8_12 C10_12 1_555 1_555
C11_12 N2_12 1_555 1_555
H9_12 C11_12 1_555 1_555
H10_12 C11_12 1_555 1_555
C12_12 H11_12 1_555 1_555
C13_12 C12_12 1_555 1_555
H12_12 C13_12 1_555 1_555
C14_12 N10_5 1_555 1_555
H13_12 C14_12 1_555 1_555
C15_12 C14_12 1_555 1_555
H14_12 C15_12 1_555 1_555
C16_12 N5_12 1_555 1_555
C17_12 N5_12 1_555 1_555
C18_12 C17_12 1_555 1_555
H15_12 C18_12 1_555 1_555
C19_12 C18_12 1_555 1_555
H16_12 C19_12 1_555 1_555
C20_12 N6_8 1_555 1_555
H17_12 C20_12 1_555 1_555
C21_12 C17_12 1_555 1_555
H18_12 C21_12 1_555 1_555
B1_12 H19_12 1_555 1_555
H20_12 B1_12 1_555 1_555
H21_12 B1_12 1_555 1_555
B2_12 H22_12 1_555 1_555
H23_12 B2_12 1_555 1_555
H24_12 B2_12 1_555 1_555
N7_12 Fe4_5 1_555 1_555
N8_12 Fe4_5 1_555 1_555
C22_12 B1_12 1_555 1_555
C23_12 B2_12 1_555 1_555
Fe4 N6_8 1_555 1_555
N11_8 Fe4_5 1_555 1_555
C4_12 C5_12 1_555 1_555
C9_12 C10_12 1_555 1_555
C12_12 C16_12 1_555 1_555
C15_12 C16_12 1_555 1_555
C20_12 C21_12 1_555 1_555
N7_12 C22_12 1_555 1_555
N8_12 C23_12 1_555 1_555
Fe4_4 N1_13 1_555 1_555
N1_13 C2_13 1_555 1_555
H2_13 C2_13 1_555 1_555
C3_13 N1_13 1_555 1_555
H3_13 C3_13 1_555 1_555
B1_13 H19_13 1_555 1_555
H20_13 B1_13 1_555 1_555
H21_13 B1_13 1_555 1_555
B2_13 H22_13 1_555 1_555
H23_13 B2_13 1_555 1_555
H24_13 B2_13 1_555 1_555
N7_13 Fe4_4 1_555 1_555
N8_13 Fe4_4 1_555 1_555
C22_13 B1_13 1_555 1_555
C23_13 B2_13 1_555 1_555
N9_7 Fe4_4 1_555 1_555
N7_13 C22_13 1_555 1_555
N8_13 C23_13 1_555 1_555
N2_13 C5_13 1_555 1_555
N3_7 C8_13 1_555 1_555
N10_4 C13_13 1_555 1_555
N5_13 C11_13 1_555 1_555
N11_6 C19_13 1_555 1_555
C1_13 H1_13 1_555 1_555
H4_13 C4_13 1_555 1_555
C5_13 C1_13 1_555 1_555
C6_13 N2_13 1_555 1_555
C7_13 C6_13 1_555 1_555
H5_13 C7_13 1_555 1_555
C8_13 C7_13 1_555 1_555
H6_13 C8_13 1_555 1_555
C9_13 N3_7 1_555 1_555
H7_13 C9_13 1_555 1_555
C10_13 C6_13 1_555 1_555
H8_13 C10_13 1_555 1_555
C11_13 N2_13 1_555 1_555
H9_13 C11_13 1_555 1_555
H10_13 C11_13 1_555 1_555
C12_13 H11_13 1_555 1_555
C13_13 C12_13 1_555 1_555
H12_13 C13_13 1_555 1_555
C14_13 N10_4 1_555 1_555
H13_13 C14_13 1_555 1_555
C15_13 C14_13 1_555 1_555
H14_13 C15_13 1_555 1_555
C16_13 N5_13 1_555 1_555
C17_13 N5_13 1_555 1_555
C18_13 C17_13 1_555 1_555
H15_13 C18_13 1_555 1_555
C19_13 C18_13 1_555 1_555
H16_13 C19_13 1_555 1_555
C20_13 N11_6 1_555 1_555
H17_13 C20_13 1_555 1_555
C21_13 C17_13 1_555 1_555
H18_13 C21_13 1_555 1_555
Fe4_2 N3_7 1_555 1_555
C4_13 C5_13 1_555 1_555
C9_13 C10_13 1_555 1_555
C12_13 C16_13 1_555 1_555
C15_13 C16_13 1_555 1_555
C20_13 C21_13 1_555 1_555
Fe4_3 N1_14 1_555 1_555
N1_14 C2_14 1_555 1_555
H2_14 C2_14 1_555 1_555
C3_14 N1_14 1_555 1_555
H3_14 C3_14 1_555 1_555
B1_14 H19_14 1_555 1_555
H20_14 B1_14 1_555 1_555
H21_14 B1_14 1_555 1_555
B2_14 H22_14 1_555 1_555
H23_14 B2_14 1_555 1_555
H24_14 B2_14 1_555 1_555
N7_14 Fe4_3 1_555 1_555
N8_14 Fe4_3 1_555 1_555
C22_14 B1_14 1_555 1_555
C23_14 B2_14 1_555 1_555
N9_8 Fe4_3 1_555 1_555
N7_14 C22_14 1_555 1_555
N8_14 C23_14 1_555 1_555
N2_14 C5_14 1_555 1_555
N3_8 C8_14 1_555 1_555
N10_3 C13_14 1_555 1_555
N5_14 C11_14 1_555 1_555
N11_5 C19_14 1_555 1_555
C1_14 H1_14 1_555 1_555
H4_14 C4_14 1_555 1_555
C5_14 C1_14 1_555 1_555
C6_14 N2_14 1_555 1_555
C7_14 C6_14 1_555 1_555
H5_14 C7_14 1_555 1_555
C8_14 C7_14 1_555 1_555
H6_14 C8_14 1_555 1_555
C9_14 N3_8 1_555 1_555
H7_14 C9_14 1_555 1_555
C10_14 C6_14 1_555 1_555
H8_14 C10_14 1_555 1_555
C11_14 N2_14 1_555 1_555
H9_14 C11_14 1_555 1_555
H10_14 C11_14 1_555 1_555
C12_14 H11_14 1_555 1_555
C13_14 C12_14 1_555 1_555
H12_14 C13_14 1_555 1_555
C14_14 N10_3 1_555 1_555
H13_14 C14_14 1_555 1_555
C15_14 C14_14 1_555 1_555
H14_14 C15_14 1_555 1_555
C16_14 N5_14 1_555 1_555
C17_14 N5_14 1_555 1_555
C18_14 C17_14 1_555 1_555
H15_14 C18_14 1_555 1_555
C19_14 C18_14 1_555 1_555
H16_14 C19_14 1_555 1_555
C20_14 N11_5 1_555 1_555
H17_14 C20_14 1_555 1_555
C21_14 C17_14 1_555 1_555
H18_14 C21_14 1_555 1_555
Fe4 N3_8 1_555 1_555
C4_14 C5_14 1_555 1_555
C9_14 C10_14 1_555 1_555
C12_14 C16_14 1_555 1_555
C15_14 C16_14 1_555 1_555
C20_14 C21_14 1_555 1_555
N2_15 C5_15 1_555 1_555
N9_8 C8_15 1_555 1_555
N10_2 C13_15 1_555 1_555
N5_15 C11_15 1_555 1_555
N11_7 C19_15 1_555 1_555
C1_15 H1_15 1_555 1_555
H4_15 C4_15 1_555 1_555
C5_15 C1_15 1_555 1_555
C6_15 N2_15 1_555 1_555
C7_15 C6_15 1_555 1_555
H5_15 C7_15 1_555 1_555
C8_15 C7_15 1_555 1_555
H6_15 C8_15 1_555 1_555
C9_15 N9_8 1_555 1_555
H7_15 C9_15 1_555 1_555
C10_15 C6_15 1_555 1_555
H8_15 C10_15 1_555 1_555
C11_15 N2_15 1_555 1_555
H9_15 C11_15 1_555 1_555
H10_15 C11_15 1_555 1_555
C12_15 H11_15 1_555 1_555
C13_15 C12_15 1_555 1_555
H12_15 C13_15 1_555 1_555
C14_15 N10_2 1_555 1_555
H13_15 C14_15 1_555 1_555
C15_15 C14_15 1_555 1_555
H14_15 C15_15 1_555 1_555
C16_15 N5_15 1_555 1_555
C17_15 N5_15 1_555 1_555
C18_15 C17_15 1_555 1_555
H15_15 C18_15 1_555 1_555
C19_15 C18_15 1_555 1_555
H16_15 C19_15 1_555 1_555
C20_15 N11_7 1_555 1_555
H17_15 C20_15 1_555 1_555
C21_15 C17_15 1_555 1_555
H18_15 C21_15 1_555 1_555
C4_15 C5_15 1_555 1_555
C9_15 C10_15 1_555 1_555
C12_15 C16_15 1_555 1_555
C15_15 C16_15 1_555 1_555
C20_15 C21_15 1_555 1_555
Fe4_2 N1_15 1_555 1_555
N1_15 C2_15 1_555 1_555
H2_15 C2_15 1_555 1_555
C3_15 N1_15 1_555 1_555
H3_15 C3_15 1_555 1_555
B1_15 H19_15 1_555 1_555
H20_15 B1_15 1_555 1_555
H21_15 B1_15 1_555 1_555
B2_15 H22_15 1_555 1_555
H23_15 B2_15 1_555 1_555
H24_15 B2_15 1_555 1_555
N7_15 Fe4_2 1_555 1_555
N8_15 Fe4_2 1_555 1_555
C22_15 B1_15 1_555 1_555
C23_15 B2_15 1_555 1_555
N7_15 C22_15 1_555 1_555
N8_15 C23_15 1_555 1_555
N2_16 C5_16 1_555 1_555
N9_7 C8_16 1_555 1_555
N10 C13_16 1_555 1_555
N5_16 C11_16 1_555 1_555
N11_8 C19_16 1_555 1_555
C1_16 H1_16 1_555 1_555
H4_16 C4_16 1_555 1_555
C5_16 C1_16 1_555 1_555
C6_16 N2_16 1_555 1_555
C7_16 C6_16 1_555 1_555
H5_16 C7_16 1_555 1_555
C8_16 C7_16 1_555 1_555
H6_16 C8_16 1_555 1_555
C9_16 N9_7 1_555 1_555
H7_16 C9_16 1_555 1_555
C10_16 C6_16 1_555 1_555
H8_16 C10_16 1_555 1_555
C11_16 N2_16 1_555 1_555
H9_16 C11_16 1_555 1_555
H10_16 C11_16 1_555 1_555
C12_16 H11_16 1_555 1_555
C13_16 C12_16 1_555 1_555
H12_16 C13_16 1_555 1_555
C14_16 N10 1_555 1_555
H13_16 C14_16 1_555 1_555
C15_16 C14_16 1_555 1_555
H14_16 C15_16 1_555 1_555
C16_16 N5_16 1_555 1_555
C17_16 N5_16 1_555 1_555
C18_16 C17_16 1_555 1_555
H15_16 C18_16 1_555 1_555
C19_16 C18_16 1_555 1_555
H16_16 C19_16 1_555 1_555
C20_16 N11_8 1_555 1_555
H17_16 C20_16 1_555 1_555
C21_16 C17_16 1_555 1_555
H18_16 C21_16 1_555 1_555
C4_16 C5_16 1_555 1_555
C9_16 C10_16 1_555 1_555
C12_16 C16_16 1_555 1_555
C15_16 C16_16 1_555 1_555
C20_16 C21_16 1_555 1_555
Fe4 N1_16 1_555 1_555
N1_16 C2_16 1_555 1_555
H2_16 C2_16 1_555 1_555
C3_16 N1_16 1_555 1_555
H3_16 C3_16 1_555 1_555
B1_16 H19_16 1_555 1_555
H20_16 B1_16 1_555 1_555
H21_16 B1_16 1_555 1_555
B2_16 H22_16 1_555 1_555
H23_16 B2_16 1_555 1_555
H24_16 B2_16 1_555 1_555
N7_16 Fe4 1_555 1_555
N8_16 Fe4 1_555 1_555
C22_16 B1_16 1_555 1_555
C23_16 B2_16 1_555 1_555
N7_16 C22_16 1_555 1_555
N8_16 C23_16 1_555 1_555

#END
