
###############################################################################
#
# This file contains modified crystal structure data generated from the
# MOF subset of the Cambridge Structural Database (CSD) v543 
# hosted by the Cambridge Crystallographic Data Centre (CCDC).
#
# This work is licensed under the Creative Commons
# Attribution-NonCommercial-ShareAlike 4.0 International License.
# To view a copy of this license, visit
# http://creativecommons.org/licenses/by-nc-sa/4.0/
# or send a letter to
# Creative Commons, PO Box 1866, Mountain View, CA 94042, USA.
#
# CIF created using the CSD Python API on 29 September 2022
# The structure has been converted into the P1 space group
# The structure has a 3D framework
# The original CSD entry ZEXWOR is in the tetragonal crystal system
# The framework has been calculated to contain at least 10.0% void space
# The void calculation uses a probe of radius 1.32A, grid spacing 0.4
# The framework is charged, counterions have been retained in the structure
#
###############################################################################

data_ZEXWOR
_chemical_formula_moiety         '(C368 H384 B32 Fe16 N128)n'
_symmetry_cell_setting           triclinic
_symmetry_space_group_name_H-M   'P 1'
_symmetry_Int_Tables_number      1
_space_group_name_Hall           'P 1'
loop_
_symmetry_equiv_pos_site_id
_symmetry_equiv_pos_as_xyz
1 x,y,z
_cell_length_a                   21.432(3)
_cell_length_b                   21.432(3)
_cell_length_c                   28.249(6)
_cell_angle_alpha                90
_cell_angle_beta                 90
_cell_angle_gamma                90
_cell_volume                     12975.6
loop_
_atom_site_label
_atom_site_type_symbol
_atom_site_fract_x
_atom_site_fract_y
_atom_site_fract_z
Fe1 Fe 0.00033(2) 0.25380(2) 0.12424(2)
N1 N 0.02086(12) 0.24457(11) 0.05498(8)
C2 C 0.02818(14) 0.18695(13) 0.03592(9)
H2 H 0.0219 0.1516 0.0557
C3 C 0.02823(13) 0.29351(13) 0.02587(9)
H3 H 0.0224 0.3342 0.0384
B2 B 0.1351(4) 0.0856(4) 0.1400(4)
H22 H 0.1433 0.0735 0.1071
H23 H 0.1183 0.0497 0.1574
H24 H 0.1741 0.0993 0.1549
N8 N 0.05378(12) 0.18289(12) 0.13787(8)
C23 C 0.0857(2) 0.14127(19) 0.14100(13)
N10 N 0.07230(11) 0.31187(11) 0.13254(7)
N2 N 0.07052(11) 0.21913(11) 0.91171(7)
N3 N 0.19615(11) 0.07236(11) 0.88395(7)
N4 N 0.18813(11) 0.42770(11) 0.86746(7)
N5 N 0.07005(11) 0.27455(11) 0.83768(7)
N6 N 0.02067(12) 0.26163(12) 0.69333(8)
C1 C 0.04418(14) 0.17728(13) 0.98937(9)
H1 H 0.0490 0.1360 0.9776
C4 C 0.04407(14) 0.28785(13) 0.97810(9)
H4 H 0.0484 0.3238 0.9588
C5 C 0.05343(12) 0.22839(13) 0.95931(9)
C6 C 0.11141(13) 0.17010(12) 0.90129(8)
C7 C 0.10580(13) 0.13247(14) 0.86107(9)
H5 H 0.0735 0.1397 0.8387
C8 C 0.14820(13) 0.08440(14) 0.85451(9)
H6 H 0.1431 0.0583 0.8276
C9 C 0.20286(13) 0.11101(13) 0.92140(9)
H7 H 0.2373 0.1047 0.9420
C10 C 0.16227(13) 0.15905(13) 0.93112(9)
H8 H 0.1688 0.1847 0.9581
C11 C 0.03185(12) 0.24639(12) 0.87460(10)
H9 H 0.0052 0.2136 0.8605
H10 H 0.0043 0.2785 0.8886
C12 C 0.16442(14) 0.31841(13) 0.87476(10)
H11 H 0.1763 0.2784 0.8861
C13 C 0.20205(14) 0.36963(14) 0.88282(10)
H12 H 0.2397 0.3637 0.9000
C14 C 0.13351(14) 0.43471(14) 0.84451(10)
H13 H 0.1220 0.4753 0.8341
C15 C 0.09366(14) 0.38594(14) 0.83539(10)
H14 H 0.0556 0.3932 0.8191
C16 C 0.10924(13) 0.32598(13) 0.85004(9)
C17 C 0.05152(13) 0.27059(12) 0.79033(8)
C18 C 0.09448(15) 0.28560(16) 0.75478(10)
H15 H 0.1352 0.2994 0.7629
C19 C 0.07749(14) 0.28029(15) 0.70792(9)
H16 H 0.1077 0.2904 0.6845
Fe4 Fe 0.24620(2) 0.49967(2) 0.87576(2)
Fe2 Fe 0.25380(2) 0.99967(2) 0.87576(2)
B1 B 0.8715(4) 0.4259(4) 0.1007(4)
H19 H 0.8300 0.4144 0.1125
H20 H 0.8684 0.4387 0.0675
H21 H 0.8879 0.4606 0.1196
N7 N 0.94758(11) 0.32480(12) 0.11004(8)
C22 C 0.91671(18) 0.36801(18) 0.10500(13)
N9 N 0.92764(11) 0.19615(11) 0.11605(7)
N11 N 0.97933(12) 0.26163(12) 0.19333(8)
C20 C 0.97938(14) 0.24748(13) 0.72767(9)
H17 H 0.9388 0.2343 0.7185
C21 C 0.99272(14) 0.25107(13) 0.77574(9)
H18 H 0.9619 0.2403 0.7985
Fe3 Fe 0.99967(2) 0.25380(2) 0.62424(2)
B1_2 B 0.1285(4) 0.5741(4) 0.1007(4)
H19_2 H 0.1700 0.5856 0.1125
H20_2 H 0.1316 0.5613 0.0675
H21_2 H 0.1121 0.5394 0.1196
N7_2 N 0.05242(11) 0.67520(12) 0.11004(8)
C22_2 C 0.08329(18) 0.63199(18) 0.10500(13)
N9_2 N 0.07236(11) 0.80385(11) 0.11605(7)
N11_2 N 0.02067(12) 0.73837(12) 0.19333(8)
C20_2 C 0.02062(14) 0.75252(13) 0.72767(9)
H17_2 H 0.0612 0.7657 0.7185
C21_2 C 0.00728(14) 0.74893(13) 0.77574(9)
H18_2 H 0.0381 0.7597 0.7985
Fe3_2 Fe 0.00033(2) 0.74620(2) 0.62424(2)
Fe2_2 Fe 0.74620(2) 0.00033(2) 0.87576(2)
Fe1_2 Fe 0.99967(2) 0.74620(2) 0.12424(2)
N1_2 N 0.97914(12) 0.75543(11) 0.05498(8)
C2_2 C 0.97182(14) 0.81305(13) 0.03592(9)
H2_2 H 0.9781 0.8484 0.0557
C3_2 C 0.97177(13) 0.70649(13) 0.02587(9)
H3_2 H 0.9776 0.6658 0.0384
B2_2 B 0.8649(4) 0.9144(4) 0.1400(4)
H22_2 H 0.8567 0.9265 0.1071
H23_2 H 0.8817 0.9503 0.1574
H24_2 H 0.8259 0.9007 0.1549
N8_2 N 0.94622(12) 0.81711(12) 0.13787(8)
C23_2 C 0.9143(2) 0.85873(19) 0.14100(13)
N10_2 N 0.92770(11) 0.68813(11) 0.13254(7)
N2_2 N 0.92948(11) 0.78087(11) 0.91171(7)
N3_2 N 0.80385(11) 0.92764(11) 0.88395(7)
N4_2 N 0.81187(11) 0.57230(11) 0.86746(7)
N5_2 N 0.92995(11) 0.72545(11) 0.83768(7)
N6_2 N 0.97933(12) 0.73837(12) 0.69333(8)
C1_2 C 0.95582(14) 0.82272(13) 0.98937(9)
H1_2 H 0.9510 0.8640 0.9776
C4_2 C 0.95593(14) 0.71215(13) 0.97810(9)
H4_2 H 0.9516 0.6762 0.9588
C5_2 C 0.94657(12) 0.77161(13) 0.95931(9)
C6_2 C 0.88859(13) 0.82990(12) 0.90129(8)
C7_2 C 0.89420(13) 0.86753(14) 0.86107(9)
H5_2 H 0.9265 0.8603 0.8387
C8_2 C 0.85180(13) 0.91560(14) 0.85451(9)
H6_2 H 0.8569 0.9417 0.8276
C9_2 C 0.79714(13) 0.88899(13) 0.92140(9)
H7_2 H 0.7627 0.8953 0.9420
C10_2 C 0.83773(13) 0.84095(13) 0.93112(9)
H8_2 H 0.8312 0.8153 0.9581
C11_2 C 0.96815(12) 0.75361(12) 0.87460(10)
H9_2 H 0.9948 0.7864 0.8605
H10_2 H 0.9957 0.7215 0.8886
C12_2 C 0.83558(14) 0.68159(13) 0.87476(10)
H11_2 H 0.8237 0.7216 0.8861
C13_2 C 0.79795(14) 0.63037(14) 0.88282(10)
H12_2 H 0.7603 0.6363 0.9000
C14_2 C 0.86649(14) 0.56529(14) 0.84451(10)
H13_2 H 0.8780 0.5247 0.8341
C15_2 C 0.90634(14) 0.61406(14) 0.83539(10)
H14_2 H 0.9444 0.6068 0.8191
C16_2 C 0.89076(13) 0.67402(13) 0.85004(9)
C17_2 C 0.94848(13) 0.72941(12) 0.79033(8)
C18_2 C 0.90552(15) 0.71440(16) 0.75478(10)
H15_2 H 0.8648 0.7006 0.7629
C19_2 C 0.92251(14) 0.71971(15) 0.70792(9)
H16_2 H 0.8923 0.7096 0.6845
Fe4_2 Fe 0.75380(2) 0.50033(2) 0.87576(2)
C20_3 C 0.24748(13) 0.02062(14) 0.27233(9)
H17_3 H 0.2343 0.0612 0.2815
C21_3 C 0.25107(13) 0.00728(14) 0.22426(9)
H18_3 H 0.2403 0.0381 0.2015
Fe3_3 Fe 0.25380(2) 0.00033(2) 0.37576(2)
B1_3 B 0.4259(4) 0.1285(4) 0.8993(4)
H19_3 H 0.4144 0.1700 0.8875
H20_3 H 0.4387 0.1316 0.9325
H21_3 H 0.4606 0.1121 0.8804
N7_3 N 0.32480(12) 0.05242(11) 0.88996(8)
C22_3 C 0.36801(18) 0.08329(18) 0.89500(13)
N11_3 N 0.26163(12) 0.02067(12) 0.80667(8)
N2_3 N 0.21913(11) 0.92948(11) 0.08829(7)
N4_3 N 0.42770(11) 0.81187(11) 0.13254(7)
N5_3 N 0.27455(11) 0.92995(11) 0.16232(7)
N6_3 N 0.26163(12) 0.97933(12) 0.30667(8)
C1_3 C 0.17728(13) 0.95582(14) 0.01063(9)
H1_3 H 0.1360 0.9510 0.0224
C4_3 C 0.28785(13) 0.95593(14) 0.02190(9)
H4_3 H 0.3238 0.9516 0.0412
C5_3 C 0.22839(13) 0.94657(12) 0.04069(9)
C6_3 C 0.17010(12) 0.88859(13) 0.09871(8)
C7_3 C 0.13247(14) 0.89420(13) 0.13893(9)
H5_3 H 0.1397 0.9265 0.1613
C8_3 C 0.08440(14) 0.85180(13) 0.14549(9)
H6_3 H 0.0583 0.8569 0.1724
C9_3 C 0.11101(13) 0.79714(13) 0.07860(9)
H7_3 H 0.1047 0.7627 0.0580
C10_3 C 0.15905(13) 0.83773(13) 0.06888(9)
H8_3 H 0.1847 0.8312 0.0419
C11_3 C 0.24639(12) 0.96815(12) 0.12540(10)
H9_3 H 0.2136 0.9948 0.1395
H10_3 H 0.2785 0.9957 0.1114
C12_3 C 0.31841(13) 0.83558(14) 0.12524(10)
H11_3 H 0.2784 0.8237 0.1139
C13_3 C 0.36963(14) 0.79795(14) 0.11718(10)
H12_3 H 0.3637 0.7603 0.1000
C14_3 C 0.43471(14) 0.86649(14) 0.15549(10)
H13_3 H 0.4753 0.8780 0.1659
C15_3 C 0.38594(14) 0.90634(14) 0.16461(10)
H14_3 H 0.3932 0.9444 0.1809
C16_3 C 0.32598(13) 0.89076(13) 0.14996(9)
C17_3 C 0.27059(12) 0.94848(13) 0.20967(8)
C18_3 C 0.28560(16) 0.90552(15) 0.24522(10)
H15_3 H 0.2994 0.8648 0.2371
C19_3 C 0.28029(15) 0.92251(14) 0.29208(9)
H16_3 H 0.2904 0.8923 0.3155
Fe4_3 Fe 0.49967(2) 0.75380(2) 0.12424(2)
N1_3 N 0.24457(11) 0.97914(12) 0.94502(8)
C2_3 C 0.18695(13) 0.97182(14) 0.96408(9)
H2_3 H 0.1516 0.9781 0.9443
C3_3 C 0.29351(13) 0.97177(13) 0.97413(9)
H3_3 H 0.3342 0.9776 0.9616
B2_3 B 0.0856(4) 0.8649(4) 0.8600(4)
H22_3 H 0.0735 0.8567 0.8929
H23_3 H 0.0497 0.8817 0.8426
H24_3 H 0.0993 0.8259 0.8451
N8_3 N 0.18289(12) 0.94622(12) 0.86213(8)
C23_3 C 0.14127(19) 0.9143(2) 0.85900(13)
N10_3 N 0.31187(11) 0.92770(11) 0.86746(7)
N2_4 N 0.78087(11) 0.07052(11) 0.08829(7)
N4_4 N 0.57230(11) 0.18813(11) 0.13254(7)
N5_4 N 0.72545(11) 0.07005(11) 0.16232(7)
N6_4 N 0.73837(12) 0.02067(12) 0.30667(8)
C1_4 C 0.82272(13) 0.04418(14) 0.01063(9)
H1_4 H 0.8640 0.0490 0.0224
C4_4 C 0.71215(13) 0.04407(14) 0.02190(9)
H4_4 H 0.6762 0.0484 0.0412
C5_4 C 0.77161(13) 0.05343(12) 0.04069(9)
C6_4 C 0.82990(12) 0.11141(13) 0.09871(8)
C7_4 C 0.86753(14) 0.10580(13) 0.13893(9)
H5_4 H 0.8603 0.0735 0.1613
C8_4 C 0.91560(14) 0.14820(13) 0.14549(9)
H6_4 H 0.9417 0.1431 0.1724
C9_4 C 0.88899(13) 0.20286(13) 0.07860(9)
H7_4 H 0.8953 0.2373 0.0580
C10_4 C 0.84095(13) 0.16227(13) 0.06888(9)
H8_4 H 0.8153 0.1688 0.0419
C11_4 C 0.75361(12) 0.03185(12) 0.12540(10)
H9_4 H 0.7864 0.0052 0.1395
H10_4 H 0.7215 0.0043 0.1114
C12_4 C 0.68159(13) 0.16442(14) 0.12524(10)
H11_4 H 0.7216 0.1763 0.1139
C13_4 C 0.63037(14) 0.20205(14) 0.11718(10)
H12_4 H 0.6363 0.2397 0.1000
C14_4 C 0.56529(14) 0.13351(14) 0.15549(10)
H13_4 H 0.5247 0.1220 0.1659
C15_4 C 0.61406(14) 0.09366(14) 0.16461(10)
H14_4 H 0.6068 0.0556 0.1809
C16_4 C 0.67402(13) 0.10924(13) 0.14996(9)
C17_4 C 0.72941(12) 0.05152(13) 0.20967(8)
C18_4 C 0.71440(16) 0.09448(15) 0.24522(10)
H15_4 H 0.7006 0.1352 0.2371
C19_4 C 0.71971(15) 0.07749(14) 0.29208(9)
H16_4 H 0.7096 0.1077 0.3155
Fe4_4 Fe 0.50033(2) 0.24620(2) 0.12424(2)
N1_4 N 0.75543(11) 0.02086(12) 0.94502(8)
C2_4 C 0.81305(13) 0.02818(14) 0.96408(9)
H2_4 H 0.8484 0.0219 0.9443
C3_4 C 0.70649(13) 0.02823(13) 0.97413(9)
H3_4 H 0.6658 0.0224 0.9616
B2_4 B 0.9144(4) 0.1351(4) 0.8600(4)
H22_4 H 0.9265 0.1433 0.8929
H23_4 H 0.9503 0.1183 0.8426
H24_4 H 0.9007 0.1741 0.8451
N8_4 N 0.81711(12) 0.05378(12) 0.86213(8)
C23_4 C 0.85873(19) 0.0857(2) 0.85900(13)
N10_4 N 0.68813(11) 0.07230(11) 0.86746(7)
C20_4 C 0.75252(13) 0.97938(14) 0.27233(9)
H17_4 H 0.7657 0.9388 0.2815
C21_4 C 0.74893(13) 0.99272(14) 0.22426(9)
H18_4 H 0.7597 0.9619 0.2015
Fe3_4 Fe 0.74620(2) 0.99967(2) 0.37576(2)
B1_4 B 0.5741(4) 0.8715(4) 0.8993(4)
H19_4 H 0.5856 0.8300 0.8875
H20_4 H 0.5613 0.8684 0.9325
H21_4 H 0.5394 0.8879 0.8804
N7_4 N 0.67520(12) 0.94758(11) 0.88996(8)
C22_4 C 0.63199(18) 0.91671(18) 0.89500(13)
N11_4 N 0.73837(12) 0.97933(12) 0.80667(8)
N1_5 N 0.02086(12) 0.75543(11) 0.55498(8)
N2_5 N 0.07052(11) 0.78087(11) 0.41171(7)
N3_3 N 0.19615(11) 0.92764(11) 0.38395(7)
N4_5 N 0.18813(11) 0.57230(11) 0.36746(7)
N5_5 N 0.07005(11) 0.72545(11) 0.33768(7)
C1_5 C 0.04418(14) 0.82272(13) 0.48937(9)
H1_5 H 0.0490 0.8640 0.4776
C2_5 C 0.02818(14) 0.81305(13) 0.53592(9)
H2_5 H 0.0219 0.8484 0.5557
C3_5 C 0.02823(13) 0.70649(13) 0.52587(9)
H3_5 H 0.0224 0.6658 0.5384
C4_5 C 0.04407(14) 0.71215(13) 0.47810(9)
H4_5 H 0.0484 0.6762 0.4588
C5_5 C 0.05343(12) 0.77161(13) 0.45931(9)
C6_5 C 0.11141(13) 0.82990(12) 0.40129(8)
C7_5 C 0.10580(13) 0.86753(14) 0.36107(9)
H5_5 H 0.0735 0.8603 0.3387
C8_5 C 0.14820(13) 0.91560(14) 0.35451(9)
H6_5 H 0.1431 0.9417 0.3276
C9_5 C 0.20286(13) 0.88899(13) 0.42140(9)
H7_5 H 0.2373 0.8953 0.4420
C10_5 C 0.16227(13) 0.84095(13) 0.43112(9)
H8_5 H 0.1688 0.8153 0.4581
C11_5 C 0.03185(12) 0.75361(12) 0.37460(10)
H9_5 H 0.0052 0.7864 0.3605
H10_5 H 0.0043 0.7215 0.3886
C12_5 C 0.16442(14) 0.68159(13) 0.37476(10)
H11_5 H 0.1763 0.7216 0.3861
C13_5 C 0.20205(14) 0.63037(14) 0.38282(10)
H12_5 H 0.2397 0.6363 0.4000
C14_5 C 0.13351(14) 0.56529(14) 0.34451(10)
H13_5 H 0.1220 0.5247 0.3341
C15_5 C 0.09366(14) 0.61406(14) 0.33539(10)
H14_5 H 0.0556 0.6068 0.3191
C16_5 C 0.10924(13) 0.67402(13) 0.35004(9)
C17_5 C 0.05152(13) 0.72941(12) 0.29033(8)
C18_5 C 0.09448(15) 0.71440(16) 0.25478(10)
H15_5 H 0.1352 0.7006 0.2629
C19_5 C 0.07749(14) 0.71971(15) 0.20792(9)
H16_5 H 0.1077 0.7096 0.1845
B2_5 B 0.1351(4) 0.9144(4) 0.6400(4)
H22_5 H 0.1433 0.9265 0.6071
H23_5 H 0.1183 0.9503 0.6574
H24_5 H 0.1741 0.9007 0.6549
N8_5 N 0.05378(12) 0.81711(12) 0.63787(8)
C23_5 C 0.0857(2) 0.85873(19) 0.64100(13)
Fe4_5 Fe 0.24620(2) 0.50033(2) 0.37576(2)
N10_5 N 0.07230(11) 0.68813(11) 0.63254(7)
C20_5 C 0.97938(14) 0.75252(13) 0.22767(9)
H17_5 H 0.9388 0.7657 0.2185
C21_5 C 0.99272(14) 0.74893(13) 0.27574(9)
H18_5 H 0.9619 0.7597 0.2985
B1_5 B 0.8715(4) 0.5741(4) 0.6007(4)
H19_5 H 0.8300 0.5856 0.6125
H20_5 H 0.8684 0.5613 0.5675
H21_5 H 0.8879 0.5394 0.6196
N7_5 N 0.94758(11) 0.67520(12) 0.61004(8)
C22_5 C 0.91671(18) 0.63199(18) 0.60500(13)
N9_3 N 0.92764(11) 0.80385(11) 0.61605(7)
C20_6 C 0.02062(14) 0.24748(13) 0.22767(9)
H17_6 H 0.0612 0.2343 0.2185
C21_6 C 0.00728(14) 0.25107(13) 0.27574(9)
H18_6 H 0.0381 0.2403 0.2985
B1_6 B 0.1285(4) 0.4259(4) 0.6007(4)
H19_6 H 0.1700 0.4144 0.6125
H20_6 H 0.1316 0.4387 0.5675
H21_6 H 0.1121 0.4606 0.6196
N7_6 N 0.05242(11) 0.32480(12) 0.61004(8)
C22_6 C 0.08329(18) 0.36801(18) 0.60500(13)
N9_4 N 0.07236(11) 0.19615(11) 0.61605(7)
N1_6 N 0.97914(12) 0.24457(11) 0.55498(8)
N2_6 N 0.92948(11) 0.21913(11) 0.41171(7)
N3_4 N 0.80385(11) 0.07236(11) 0.38395(7)
N4_6 N 0.81187(11) 0.42770(11) 0.36746(7)
N5_6 N 0.92995(11) 0.27455(11) 0.33768(7)
C1_6 C 0.95582(14) 0.17728(13) 0.48937(9)
H1_6 H 0.9510 0.1360 0.4776
C2_6 C 0.97182(14) 0.18695(13) 0.53592(9)
H2_6 H 0.9781 0.1516 0.5557
C3_6 C 0.97177(13) 0.29351(13) 0.52587(9)
H3_6 H 0.9776 0.3342 0.5384
C4_6 C 0.95593(14) 0.28785(13) 0.47810(9)
H4_6 H 0.9516 0.3238 0.4588
C5_6 C 0.94657(12) 0.22839(13) 0.45931(9)
C6_6 C 0.88859(13) 0.17010(12) 0.40129(8)
C7_6 C 0.89420(13) 0.13247(14) 0.36107(9)
H5_6 H 0.9265 0.1397 0.3387
C8_6 C 0.85180(13) 0.08440(14) 0.35451(9)
H6_6 H 0.8569 0.0583 0.3276
C9_6 C 0.79714(13) 0.11101(13) 0.42140(9)
H7_6 H 0.7627 0.1047 0.4420
C10_6 C 0.83773(13) 0.15905(13) 0.43112(9)
H8_6 H 0.8312 0.1847 0.4581
C11_6 C 0.96815(12) 0.24639(12) 0.37460(10)
H9_6 H 0.9948 0.2136 0.3605
H10_6 H 0.9957 0.2785 0.3886
C12_6 C 0.83558(14) 0.31841(13) 0.37476(10)
H11_6 H 0.8237 0.2784 0.3861
C13_6 C 0.79795(14) 0.36963(14) 0.38282(10)
H12_6 H 0.7603 0.3637 0.4000
C14_6 C 0.86649(14) 0.43471(14) 0.34451(10)
H13_6 H 0.8780 0.4753 0.3341
C15_6 C 0.90634(14) 0.38594(14) 0.33539(10)
H14_6 H 0.9444 0.3932 0.3191
C16_6 C 0.89076(13) 0.32598(13) 0.35004(9)
C17_6 C 0.94848(13) 0.27059(12) 0.29033(8)
C18_6 C 0.90552(15) 0.28560(16) 0.25478(10)
H15_6 H 0.8648 0.2994 0.2629
C19_6 C 0.92251(14) 0.28029(15) 0.20792(9)
H16_6 H 0.8923 0.2904 0.1845
B2_6 B 0.8649(4) 0.0856(4) 0.6400(4)
H22_6 H 0.8567 0.0735 0.6071
H23_6 H 0.8817 0.0497 0.6574
H24_6 H 0.8259 0.0993 0.6549
N8_6 N 0.94622(12) 0.18289(12) 0.63787(8)
C23_6 C 0.9143(2) 0.14127(19) 0.64100(13)
Fe4_6 Fe 0.75380(2) 0.49967(2) 0.37576(2)
N10_6 N 0.92770(11) 0.31187(11) 0.63254(7)
N1_7 N 0.24457(11) 0.02086(12) 0.44502(8)
N2_7 N 0.21913(11) 0.07052(11) 0.58829(7)
N4_7 N 0.42770(11) 0.18813(11) 0.63254(7)
N5_7 N 0.27455(11) 0.07005(11) 0.66232(7)
C1_7 C 0.17728(13) 0.04418(14) 0.51063(9)
H1_7 H 0.1360 0.0490 0.5224
C2_7 C 0.18695(13) 0.02818(14) 0.46408(9)
H2_7 H 0.1516 0.0219 0.4443
C3_7 C 0.29351(13) 0.02823(13) 0.47413(9)
H3_7 H 0.3342 0.0224 0.4616
C4_7 C 0.28785(13) 0.04407(14) 0.52190(9)
H4_7 H 0.3238 0.0484 0.5412
C5_7 C 0.22839(13) 0.05343(12) 0.54069(9)
C6_7 C 0.17010(12) 0.11141(13) 0.59871(8)
C7_7 C 0.13247(14) 0.10580(13) 0.63893(9)
H5_7 H 0.1397 0.0735 0.6613
C8_7 C 0.08440(14) 0.14820(13) 0.64549(9)
H6_7 H 0.0583 0.1431 0.6724
C9_7 C 0.11101(13) 0.20286(13) 0.57860(9)
H7_7 H 0.1047 0.2373 0.5580
C10_7 C 0.15905(13) 0.16227(13) 0.56888(9)
H8_7 H 0.1847 0.1688 0.5419
C11_7 C 0.24639(12) 0.03185(12) 0.62540(10)
H9_7 H 0.2136 0.0052 0.6395
H10_7 H 0.2785 0.0043 0.6114
C12_7 C 0.31841(13) 0.16442(14) 0.62524(10)
H11_7 H 0.2784 0.1763 0.6139
C13_7 C 0.36963(14) 0.20205(14) 0.61718(10)
H12_7 H 0.3637 0.2397 0.6000
C14_7 C 0.43471(14) 0.13351(14) 0.65549(10)
H13_7 H 0.4753 0.1220 0.6659
C15_7 C 0.38594(14) 0.09366(14) 0.66461(10)
H14_7 H 0.3932 0.0556 0.6809
C16_7 C 0.32598(13) 0.10924(13) 0.64996(9)
C17_7 C 0.27059(12) 0.05152(13) 0.70967(8)
C18_7 C 0.28560(16) 0.09448(15) 0.74522(10)
H15_7 H 0.2994 0.1352 0.7371
C19_7 C 0.28029(15) 0.07749(14) 0.79208(9)
H16_7 H 0.2904 0.1077 0.8155
B2_7 B 0.0856(4) 0.1351(4) 0.3600(4)
H22_7 H 0.0735 0.1433 0.3929
H23_7 H 0.0497 0.1183 0.3426
H24_7 H 0.0993 0.1741 0.3451
N8_7 N 0.18289(12) 0.05378(12) 0.36213(8)
C23_7 C 0.14127(19) 0.0857(2) 0.35900(13)
Fe4_7 Fe 0.49967(2) 0.24620(2) 0.62424(2)
N10_7 N 0.31187(11) 0.07230(11) 0.36746(7)
C20_7 C 0.24748(13) 0.97938(14) 0.77233(9)
H17_7 H 0.2343 0.9388 0.7815
C21_7 C 0.25107(13) 0.99272(14) 0.72426(9)
H18_7 H 0.2403 0.9619 0.7015
B1_7 B 0.4259(4) 0.8715(4) 0.3993(4)
H19_7 H 0.4144 0.8300 0.3875
H20_7 H 0.4387 0.8684 0.4325
H21_7 H 0.4606 0.8879 0.3804
N7_7 N 0.32480(12) 0.94758(11) 0.38996(8)
C22_7 C 0.36801(18) 0.91671(18) 0.39500(13)
C20_8 C 0.75252(13) 0.02062(14) 0.77233(9)
H17_8 H 0.7657 0.0612 0.7815
C21_8 C 0.74893(13) 0.00728(14) 0.72426(9)
H18_8 H 0.7597 0.0381 0.7015
B1_8 B 0.5741(4) 0.1285(4) 0.3993(4)
H19_8 H 0.5856 0.1700 0.3875
H20_8 H 0.5613 0.1316 0.4325
H21_8 H 0.5394 0.1121 0.3804
N7_8 N 0.67520(12) 0.05242(11) 0.38996(8)
C22_8 C 0.63199(18) 0.08329(18) 0.39500(13)
N1_8 N 0.75543(11) 0.97914(12) 0.44502(8)
N2_8 N 0.78087(11) 0.92948(11) 0.58829(7)
N4_8 N 0.57230(11) 0.81187(11) 0.63254(7)
N5_8 N 0.72545(11) 0.92995(11) 0.66232(7)
C1_8 C 0.82272(13) 0.95582(14) 0.51063(9)
H1_8 H 0.8640 0.9510 0.5224
C2_8 C 0.81305(13) 0.97182(14) 0.46408(9)
H2_8 H 0.8484 0.9781 0.4443
C3_8 C 0.70649(13) 0.97177(13) 0.47413(9)
H3_8 H 0.6658 0.9776 0.4616
C4_8 C 0.71215(13) 0.95593(14) 0.52190(9)
H4_8 H 0.6762 0.9516 0.5412
C5_8 C 0.77161(13) 0.94657(12) 0.54069(9)
C6_8 C 0.82990(12) 0.88859(13) 0.59871(8)
C7_8 C 0.86753(14) 0.89420(13) 0.63893(9)
H5_8 H 0.8603 0.9265 0.6613
C8_8 C 0.91560(14) 0.85180(13) 0.64549(9)
H6_8 H 0.9417 0.8569 0.6724
C9_8 C 0.88899(13) 0.79714(13) 0.57860(9)
H7_8 H 0.8953 0.7627 0.5580
C10_8 C 0.84095(13) 0.83773(13) 0.56888(9)
H8_8 H 0.8153 0.8312 0.5419
C11_8 C 0.75361(12) 0.96815(12) 0.62540(10)
H9_8 H 0.7864 0.9948 0.6395
H10_8 H 0.7215 0.9957 0.6114
C12_8 C 0.68159(13) 0.83558(14) 0.62524(10)
H11_8 H 0.7216 0.8237 0.6139
C13_8 C 0.63037(14) 0.79795(14) 0.61718(10)
H12_8 H 0.6363 0.7603 0.6000
C14_8 C 0.56529(14) 0.86649(14) 0.65549(10)
H13_8 H 0.5247 0.8780 0.6659
C15_8 C 0.61406(14) 0.90634(14) 0.66461(10)
H14_8 H 0.6068 0.9444 0.6809
C16_8 C 0.67402(13) 0.89076(13) 0.64996(9)
C17_8 C 0.72941(12) 0.94848(13) 0.70967(8)
C18_8 C 0.71440(16) 0.90552(15) 0.74522(10)
H15_8 H 0.7006 0.8648 0.7371
C19_8 C 0.71971(15) 0.92251(14) 0.79208(9)
H16_8 H 0.7096 0.8923 0.8155
B2_8 B 0.9144(4) 0.8649(4) 0.3600(4)
H22_8 H 0.9265 0.8567 0.3929
H23_8 H 0.9503 0.8817 0.3426
H24_8 H 0.9007 0.8259 0.3451
N8_8 N 0.81711(12) 0.94622(12) 0.36213(8)
C23_8 C 0.85873(19) 0.9143(2) 0.35900(13)
Fe4_8 Fe 0.50033(2) 0.75380(2) 0.62424(2)
N10_8 N 0.68813(11) 0.92770(11) 0.36746(7)
N1_9 N 0.52086(12) 0.74457(11) 0.55498(8)
N2_9 N 0.57052(11) 0.71913(11) 0.41171(7)
N3_5 N 0.69615(11) 0.57236(11) 0.38395(7)
N5_9 N 0.57005(11) 0.77455(11) 0.33768(7)
N6_5 N 0.52067(12) 0.76163(12) 0.19333(8)
C1_9 C 0.54418(14) 0.67728(13) 0.48937(9)
H1_9 H 0.5490 0.6360 0.4776
C2_9 C 0.52818(14) 0.68695(13) 0.53592(9)
H2_9 H 0.5219 0.6516 0.5557
C3_9 C 0.52823(13) 0.79351(13) 0.52587(9)
H3_9 H 0.5224 0.8342 0.5384
C4_9 C 0.54407(14) 0.78785(13) 0.47810(9)
H4_9 H 0.5484 0.8238 0.4588
C5_9 C 0.55343(12) 0.72839(13) 0.45931(9)
C6_9 C 0.61141(13) 0.67010(12) 0.40129(8)
C7_9 C 0.60580(13) 0.63247(14) 0.36107(9)
H5_9 H 0.5735 0.6397 0.3387
C8_9 C 0.64820(13) 0.58440(14) 0.35451(9)
H6_9 H 0.6431 0.5583 0.3276
C9_9 C 0.70286(13) 0.61101(13) 0.42140(9)
H7_9 H 0.7373 0.6047 0.4420
C10_9 C 0.66227(13) 0.65905(13) 0.43112(9)
H8_9 H 0.6688 0.6847 0.4581
C11_9 C 0.53185(12) 0.74639(12) 0.37460(10)
H9_9 H 0.5052 0.7136 0.3605
H10_9 H 0.5043 0.7785 0.3886
C12_9 C 0.66442(14) 0.81841(13) 0.37476(10)
H11_9 H 0.6763 0.7784 0.3861
C13_9 C 0.70205(14) 0.86963(14) 0.38282(10)
H12_9 H 0.7397 0.8637 0.4000
C14_9 C 0.63351(14) 0.93471(14) 0.34451(10)
H13_9 H 0.6220 0.9753 0.3341
C15_9 C 0.59366(14) 0.88594(14) 0.33539(10)
H14_9 H 0.5556 0.8932 0.3191
C16_9 C 0.60924(13) 0.82598(13) 0.35004(9)
C17_9 C 0.55152(13) 0.77059(12) 0.29033(8)
C18_9 C 0.59448(15) 0.78560(16) 0.25478(10)
H15_9 H 0.6352 0.7994 0.2629
C19_9 C 0.57749(14) 0.78029(15) 0.20792(9)
H16_9 H 0.6077 0.7904 0.1845
C20_9 C 0.47938(14) 0.74748(13) 0.22767(9)
H17_9 H 0.4388 0.7343 0.2185
C21_9 C 0.49272(14) 0.75107(13) 0.27574(9)
H18_9 H 0.4619 0.7403 0.2985
B1_9 B 0.3715(4) 0.9259(4) 0.6007(4)
H19_9 H 0.3300 0.9144 0.6125
H20_9 H 0.3684 0.9387 0.5675
H21_9 H 0.3879 0.9606 0.6196
B2_9 B 0.6351(4) 0.5856(4) 0.6400(4)
H22_9 H 0.6433 0.5735 0.6071
H23_9 H 0.6183 0.5497 0.6574
H24_9 H 0.6741 0.5993 0.6549
N7_9 N 0.44758(11) 0.82480(12) 0.61004(8)
N8_9 N 0.55378(12) 0.68289(12) 0.63787(8)
C22_9 C 0.41671(18) 0.86801(18) 0.60500(13)
C23_9 C 0.5857(2) 0.64127(19) 0.64100(13)
N9_5 N 0.42764(11) 0.69615(11) 0.61605(7)
N11_5 N 0.47933(12) 0.76163(12) 0.69333(8)
N1_10 N 0.47914(12) 0.25543(11) 0.55498(8)
N2_10 N 0.42948(11) 0.28087(11) 0.41171(7)
N3_6 N 0.30385(11) 0.42764(11) 0.38395(7)
N5_10 N 0.42995(11) 0.22545(11) 0.33768(7)
N6_6 N 0.47933(12) 0.23837(12) 0.19333(8)
C1_10 C 0.45582(14) 0.32272(13) 0.48937(9)
H1_10 H 0.4510 0.3640 0.4776
C2_10 C 0.47182(14) 0.31305(13) 0.53592(9)
H2_10 H 0.4781 0.3484 0.5557
C3_10 C 0.47177(13) 0.20649(13) 0.52587(9)
H3_10 H 0.4776 0.1658 0.5384
C4_10 C 0.45593(14) 0.21215(13) 0.47810(9)
H4_10 H 0.4516 0.1762 0.4588
C5_10 C 0.44657(12) 0.27161(13) 0.45931(9)
C6_10 C 0.38859(13) 0.32990(12) 0.40129(8)
C7_10 C 0.39420(13) 0.36753(14) 0.36107(9)
H5_10 H 0.4265 0.3603 0.3387
C8_10 C 0.35180(13) 0.41560(14) 0.35451(9)
H6_10 H 0.3569 0.4417 0.3276
C9_10 C 0.29714(13) 0.38899(13) 0.42140(9)
H7_10 H 0.2627 0.3953 0.4420
C10_10 C 0.33773(13) 0.34095(13) 0.43112(9)
H8_10 H 0.3312 0.3153 0.4581
C11_10 C 0.46815(12) 0.25361(12) 0.37460(10)
H9_10 H 0.4948 0.2864 0.3605
H10_10 H 0.4957 0.2215 0.3886
C12_10 C 0.33558(14) 0.18159(13) 0.37476(10)
H11_10 H 0.3237 0.2216 0.3861
C13_10 C 0.29795(14) 0.13037(14) 0.38282(10)
H12_10 H 0.2603 0.1363 0.4000
C14_10 C 0.36649(14) 0.06529(14) 0.34451(10)
H13_10 H 0.3780 0.0247 0.3341
C15_10 C 0.40634(14) 0.11406(14) 0.33539(10)
H14_10 H 0.4444 0.1068 0.3191
C16_10 C 0.39076(13) 0.17402(13) 0.35004(9)
C17_10 C 0.44848(13) 0.22941(12) 0.29033(8)
C18_10 C 0.40552(15) 0.21440(16) 0.25478(10)
H15_10 H 0.3648 0.2006 0.2629
C19_10 C 0.42251(14) 0.21971(15) 0.20792(9)
H16_10 H 0.3923 0.2096 0.1845
C20_10 C 0.52062(14) 0.25252(13) 0.22767(9)
H17_10 H 0.5612 0.2657 0.2185
C21_10 C 0.50728(14) 0.24893(13) 0.27574(9)
H18_10 H 0.5381 0.2597 0.2985
B1_10 B 0.6285(4) 0.0741(4) 0.6007(4)
H19_10 H 0.6700 0.0856 0.6125
H20_10 H 0.6316 0.0613 0.5675
H21_10 H 0.6121 0.0394 0.6196
B2_10 B 0.3649(4) 0.4144(4) 0.6400(4)
H22_10 H 0.3567 0.4265 0.6071
H23_10 H 0.3817 0.4503 0.6574
H24_10 H 0.3259 0.4007 0.6549
N7_10 N 0.55242(11) 0.17520(12) 0.61004(8)
N8_10 N 0.44622(12) 0.31711(12) 0.63787(8)
C22_10 C 0.58329(18) 0.13199(18) 0.60500(13)
C23_10 C 0.4143(2) 0.35873(19) 0.64100(13)
N9_6 N 0.57236(11) 0.30385(11) 0.61605(7)
N11_6 N 0.52067(12) 0.23837(12) 0.69333(8)
N1_11 N 0.74457(11) 0.47914(12) 0.44502(8)
N2_11 N 0.71913(11) 0.42948(11) 0.58829(7)
N5_11 N 0.77455(11) 0.42995(11) 0.66232(7)
N6_7 N 0.76163(12) 0.47933(12) 0.80667(8)
C1_11 C 0.67728(13) 0.45582(14) 0.51063(9)
H1_11 H 0.6360 0.4510 0.5224
C2_11 C 0.68695(13) 0.47182(14) 0.46408(9)
H2_11 H 0.6516 0.4781 0.4443
C3_11 C 0.79351(13) 0.47177(13) 0.47413(9)
H3_11 H 0.8342 0.4776 0.4616
C4_11 C 0.78785(13) 0.45593(14) 0.52190(9)
H4_11 H 0.8238 0.4516 0.5412
C5_11 C 0.72839(13) 0.44657(12) 0.54069(9)
C6_11 C 0.67010(12) 0.38859(13) 0.59871(8)
C7_11 C 0.63247(14) 0.39420(13) 0.63893(9)
H5_11 H 0.6397 0.4265 0.6613
C8_11 C 0.58440(14) 0.35180(13) 0.64549(9)
H6_11 H 0.5583 0.3569 0.6724
C9_11 C 0.61101(13) 0.29714(13) 0.57860(9)
H7_11 H 0.6047 0.2627 0.5580
C10_11 C 0.65905(13) 0.33773(13) 0.56888(9)
H8_11 H 0.6847 0.3312 0.5419
C11_11 C 0.74639(12) 0.46815(12) 0.62540(10)
H9_11 H 0.7136 0.4948 0.6395
H10_11 H 0.7785 0.4957 0.6114
C12_11 C 0.81841(13) 0.33558(14) 0.62524(10)
H11_11 H 0.7784 0.3237 0.6139
C13_11 C 0.86963(14) 0.29795(14) 0.61718(10)
H12_11 H 0.8637 0.2603 0.6000
C14_11 C 0.93471(14) 0.36649(14) 0.65549(10)
H13_11 H 0.9753 0.3780 0.6659
C15_11 C 0.88594(14) 0.40634(14) 0.66461(10)
H14_11 H 0.8932 0.4444 0.6809
C16_11 C 0.82598(13) 0.39076(13) 0.64996(9)
C17_11 C 0.77059(12) 0.44848(13) 0.70967(8)
C18_11 C 0.78560(16) 0.40552(15) 0.74522(10)
H15_11 H 0.7994 0.3648 0.7371
C19_11 C 0.78029(15) 0.42251(14) 0.79208(9)
H16_11 H 0.7904 0.3923 0.8155
C20_11 C 0.74748(13) 0.52062(14) 0.77233(9)
H17_11 H 0.7343 0.5612 0.7815
C21_11 C 0.75107(13) 0.50728(14) 0.72426(9)
H18_11 H 0.7403 0.5381 0.7015
B1_11 B 0.9259(4) 0.6285(4) 0.3993(4)
H19_11 H 0.9144 0.6700 0.3875
H20_11 H 0.9387 0.6316 0.4325
H21_11 H 0.9606 0.6121 0.3804
B2_11 B 0.5856(4) 0.3649(4) 0.3600(4)
H22_11 H 0.5735 0.3567 0.3929
H23_11 H 0.5497 0.3817 0.3426
H24_11 H 0.5993 0.3259 0.3451
N7_11 N 0.82480(12) 0.55242(11) 0.38996(8)
N8_11 N 0.68289(12) 0.44622(12) 0.36213(8)
C22_11 C 0.86801(18) 0.58329(18) 0.39500(13)
C23_11 C 0.64127(19) 0.4143(2) 0.35900(13)
N11_7 N 0.76163(12) 0.52067(12) 0.30667(8)
N1_12 N 0.25543(11) 0.52086(12) 0.44502(8)
N2_12 N 0.28087(11) 0.57052(11) 0.58829(7)
N5_12 N 0.22545(11) 0.57005(11) 0.66232(7)
N6_8 N 0.23837(12) 0.52067(12) 0.80667(8)
C1_12 C 0.32272(13) 0.54418(14) 0.51063(9)
H1_12 H 0.3640 0.5490 0.5224
C2_12 C 0.31305(13) 0.52818(14) 0.46408(9)
H2_12 H 0.3484 0.5219 0.4443
C3_12 C 0.20649(13) 0.52823(13) 0.47413(9)
H3_12 H 0.1658 0.5224 0.4616
C4_12 C 0.21215(13) 0.54407(14) 0.52190(9)
H4_12 H 0.1762 0.5484 0.5412
C5_12 C 0.27161(13) 0.55343(12) 0.54069(9)
C6_12 C 0.32990(12) 0.61141(13) 0.59871(8)
C7_12 C 0.36753(14) 0.60580(13) 0.63893(9)
H5_12 H 0.3603 0.5735 0.6613
C8_12 C 0.41560(14) 0.64820(13) 0.64549(9)
H6_12 H 0.4417 0.6431 0.6724
C9_12 C 0.38899(13) 0.70286(13) 0.57860(9)
H7_12 H 0.3953 0.7373 0.5580
C10_12 C 0.34095(13) 0.66227(13) 0.56888(9)
H8_12 H 0.3153 0.6688 0.5419
C11_12 C 0.25361(12) 0.53185(12) 0.62540(10)
H9_12 H 0.2864 0.5052 0.6395
H10_12 H 0.2215 0.5043 0.6114
C12_12 C 0.18159(13) 0.66442(14) 0.62524(10)
H11_12 H 0.2216 0.6763 0.6139
C13_12 C 0.13037(14) 0.70205(14) 0.61718(10)
H12_12 H 0.1363 0.7397 0.6000
C14_12 C 0.06529(14) 0.63351(14) 0.65549(10)
H13_12 H 0.0247 0.6220 0.6659
C15_12 C 0.11406(14) 0.59366(14) 0.66461(10)
H14_12 H 0.1068 0.5556 0.6809
C16_12 C 0.17402(13) 0.60924(13) 0.64996(9)
C17_12 C 0.22941(12) 0.55152(13) 0.70967(8)
C18_12 C 0.21440(16) 0.59448(15) 0.74522(10)
H15_12 H 0.2006 0.6352 0.7371
C19_12 C 0.21971(15) 0.57749(14) 0.79208(9)
H16_12 H 0.2096 0.6077 0.8155
C20_12 C 0.25252(13) 0.47938(14) 0.77233(9)
H17_12 H 0.2657 0.4388 0.7815
C21_12 C 0.24893(13) 0.49272(14) 0.72426(9)
H18_12 H 0.2597 0.4619 0.7015
B1_12 B 0.0741(4) 0.3715(4) 0.3993(4)
H19_12 H 0.0856 0.3300 0.3875
H20_12 H 0.0613 0.3684 0.4325
H21_12 H 0.0394 0.3879 0.3804
B2_12 B 0.4144(4) 0.6351(4) 0.3600(4)
H22_12 H 0.4265 0.6433 0.3929
H23_12 H 0.4503 0.6183 0.3426
H24_12 H 0.4007 0.6741 0.3451
N7_12 N 0.17520(12) 0.44758(11) 0.38996(8)
N8_12 N 0.31711(12) 0.55378(12) 0.36213(8)
C22_12 C 0.13199(18) 0.41671(18) 0.39500(13)
C23_12 C 0.35873(19) 0.5857(2) 0.35900(13)
N11_8 N 0.23837(12) 0.47933(12) 0.30667(8)
N1_13 N 0.52086(12) 0.25543(11) 0.05498(8)
C2_13 C 0.52818(14) 0.31305(13) 0.03592(9)
H2_13 H 0.5219 0.3484 0.0557
C3_13 C 0.52823(13) 0.20649(13) 0.02587(9)
H3_13 H 0.5224 0.1658 0.0384
B1_13 B 0.3715(4) 0.0741(4) 0.1007(4)
H19_13 H 0.3300 0.0856 0.1125
H20_13 H 0.3684 0.0613 0.0675
H21_13 H 0.3879 0.0394 0.1196
B2_13 B 0.6351(4) 0.4144(4) 0.1400(4)
H22_13 H 0.6433 0.4265 0.1071
H23_13 H 0.6183 0.4503 0.1574
H24_13 H 0.6741 0.4007 0.1549
N7_13 N 0.44758(11) 0.17520(12) 0.11004(8)
N8_13 N 0.55378(12) 0.31711(12) 0.13787(8)
C22_13 C 0.41671(18) 0.13199(18) 0.10500(13)
C23_13 C 0.5857(2) 0.35873(19) 0.14100(13)
N9_7 N 0.42764(11) 0.30385(11) 0.11605(7)
N2_13 N 0.57052(11) 0.28087(11) 0.91171(7)
N3_7 N 0.69615(11) 0.42764(11) 0.88395(7)
N5_13 N 0.57005(11) 0.22545(11) 0.83768(7)
C1_13 C 0.54418(14) 0.32272(13) 0.98937(9)
H1_13 H 0.5490 0.3640 0.9776
C4_13 C 0.54407(14) 0.21215(13) 0.97810(9)
H4_13 H 0.5484 0.1762 0.9588
C5_13 C 0.55343(12) 0.27161(13) 0.95931(9)
C6_13 C 0.61141(13) 0.32990(12) 0.90129(8)
C7_13 C 0.60580(13) 0.36753(14) 0.86107(9)
H5_13 H 0.5735 0.3603 0.8387
C8_13 C 0.64820(13) 0.41560(14) 0.85451(9)
H6_13 H 0.6431 0.4417 0.8276
C9_13 C 0.70286(13) 0.38899(13) 0.92140(9)
H7_13 H 0.7373 0.3953 0.9420
C10_13 C 0.66227(13) 0.34095(13) 0.93112(9)
H8_13 H 0.6688 0.3153 0.9581
C11_13 C 0.53185(12) 0.25361(12) 0.87460(10)
H9_13 H 0.5052 0.2864 0.8605
H10_13 H 0.5043 0.2215 0.8886
C12_13 C 0.66442(14) 0.18159(13) 0.87476(10)
H11_13 H 0.6763 0.2216 0.8861
C13_13 C 0.70205(14) 0.13037(14) 0.88282(10)
H12_13 H 0.7397 0.1363 0.9000
C14_13 C 0.63351(14) 0.06529(14) 0.84451(10)
H13_13 H 0.6220 0.0247 0.8341
C15_13 C 0.59366(14) 0.11406(14) 0.83539(10)
H14_13 H 0.5556 0.1068 0.8191
C16_13 C 0.60924(13) 0.17402(13) 0.85004(9)
C17_13 C 0.55152(13) 0.22941(12) 0.79033(8)
C18_13 C 0.59448(15) 0.21440(16) 0.75478(10)
H15_13 H 0.6352 0.2006 0.7629
C19_13 C 0.57749(14) 0.21971(15) 0.70792(9)
H16_13 H 0.6077 0.2096 0.6845
C20_13 C 0.47938(14) 0.25252(13) 0.72767(9)
H17_13 H 0.4388 0.2657 0.7185
C21_13 C 0.49272(14) 0.24893(13) 0.77574(9)
H18_13 H 0.4619 0.2597 0.7985
N1_14 N 0.47914(12) 0.74457(11) 0.05498(8)
C2_14 C 0.47182(14) 0.68695(13) 0.03592(9)
H2_14 H 0.4781 0.6516 0.0557
C3_14 C 0.47177(13) 0.79351(13) 0.02587(9)
H3_14 H 0.4776 0.8342 0.0384
B1_14 B 0.6285(4) 0.9259(4) 0.1007(4)
H19_14 H 0.6700 0.9144 0.1125
H20_14 H 0.6316 0.9387 0.0675
H21_14 H 0.6121 0.9606 0.1196
B2_14 B 0.3649(4) 0.5856(4) 0.1400(4)
H22_14 H 0.3567 0.5735 0.1071
H23_14 H 0.3817 0.5497 0.1574
H24_14 H 0.3259 0.5993 0.1549
N7_14 N 0.55242(11) 0.82480(12) 0.11004(8)
N8_14 N 0.44622(12) 0.68289(12) 0.13787(8)
C22_14 C 0.58329(18) 0.86801(18) 0.10500(13)
C23_14 C 0.4143(2) 0.64127(19) 0.14100(13)
N9_8 N 0.57236(11) 0.69615(11) 0.11605(7)
N2_14 N 0.42948(11) 0.71913(11) 0.91171(7)
N3_8 N 0.30385(11) 0.57236(11) 0.88395(7)
N5_14 N 0.42995(11) 0.77455(11) 0.83768(7)
C1_14 C 0.45582(14) 0.67728(13) 0.98937(9)
H1_14 H 0.4510 0.6360 0.9776
C4_14 C 0.45593(14) 0.78785(13) 0.97810(9)
H4_14 H 0.4516 0.8238 0.9588
C5_14 C 0.44657(12) 0.72839(13) 0.95931(9)
C6_14 C 0.38859(13) 0.67010(12) 0.90129(8)
C7_14 C 0.39420(13) 0.63247(14) 0.86107(9)
H5_14 H 0.4265 0.6397 0.8387
C8_14 C 0.35180(13) 0.58440(14) 0.85451(9)
H6_14 H 0.3569 0.5583 0.8276
C9_14 C 0.29714(13) 0.61101(13) 0.92140(9)
H7_14 H 0.2627 0.6047 0.9420
C10_14 C 0.33773(13) 0.65905(13) 0.93112(9)
H8_14 H 0.3312 0.6847 0.9581
C11_14 C 0.46815(12) 0.74639(12) 0.87460(10)
H9_14 H 0.4948 0.7136 0.8605
H10_14 H 0.4957 0.7785 0.8886
C12_14 C 0.33558(14) 0.81841(13) 0.87476(10)
H11_14 H 0.3237 0.7784 0.8861
C13_14 C 0.29795(14) 0.86963(14) 0.88282(10)
H12_14 H 0.2603 0.8637 0.9000
C14_14 C 0.36649(14) 0.93471(14) 0.84451(10)
H13_14 H 0.3780 0.9753 0.8341
C15_14 C 0.40634(14) 0.88594(14) 0.83539(10)
H14_14 H 0.4444 0.8932 0.8191
C16_14 C 0.39076(13) 0.82598(13) 0.85004(9)
C17_14 C 0.44848(13) 0.77059(12) 0.79033(8)
C18_14 C 0.40552(15) 0.78560(16) 0.75478(10)
H15_14 H 0.3648 0.7994 0.7629
C19_14 C 0.42251(14) 0.78029(15) 0.70792(9)
H16_14 H 0.3923 0.7904 0.6845
C20_14 C 0.52062(14) 0.74748(13) 0.72767(9)
H17_14 H 0.5612 0.7343 0.7185
C21_14 C 0.50728(14) 0.75107(13) 0.77574(9)
H18_14 H 0.5381 0.7403 0.7985
N2_15 N 0.71913(11) 0.57052(11) 0.08829(7)
N5_15 N 0.77455(11) 0.57005(11) 0.16232(7)
C1_15 C 0.67728(13) 0.54418(14) 0.01063(9)
H1_15 H 0.6360 0.5490 0.0224
C4_15 C 0.78785(13) 0.54407(14) 0.02190(9)
H4_15 H 0.8238 0.5484 0.0412
C5_15 C 0.72839(13) 0.55343(12) 0.04069(9)
C6_15 C 0.67010(12) 0.61141(13) 0.09871(8)
C7_15 C 0.63247(14) 0.60580(13) 0.13893(9)
H5_15 H 0.6397 0.5735 0.1613
C8_15 C 0.58440(14) 0.64820(13) 0.14549(9)
H6_15 H 0.5583 0.6431 0.1724
C9_15 C 0.61101(13) 0.70286(13) 0.07860(9)
H7_15 H 0.6047 0.7373 0.0580
C10_15 C 0.65905(13) 0.66227(13) 0.06888(9)
H8_15 H 0.6847 0.6688 0.0419
C11_15 C 0.74639(12) 0.53185(12) 0.12540(10)
H9_15 H 0.7136 0.5052 0.1395
H10_15 H 0.7785 0.5043 0.1114
C12_15 C 0.81841(13) 0.66442(14) 0.12524(10)
H11_15 H 0.7784 0.6763 0.1139
C13_15 C 0.86963(14) 0.70205(14) 0.11718(10)
H12_15 H 0.8637 0.7397 0.1000
C14_15 C 0.93471(14) 0.63351(14) 0.15549(10)
H13_15 H 0.9753 0.6220 0.1659
C15_15 C 0.88594(14) 0.59366(14) 0.16461(10)
H14_15 H 0.8932 0.5556 0.1809
C16_15 C 0.82598(13) 0.60924(13) 0.14996(9)
C17_15 C 0.77059(12) 0.55152(13) 0.20967(8)
C18_15 C 0.78560(16) 0.59448(15) 0.24522(10)
H15_15 H 0.7994 0.6352 0.2371
C19_15 C 0.78029(15) 0.57749(14) 0.29208(9)
H16_15 H 0.7904 0.6077 0.3155
C20_15 C 0.74748(13) 0.47938(14) 0.27233(9)
H17_15 H 0.7343 0.4388 0.2815
C21_15 C 0.75107(13) 0.49272(14) 0.22426(9)
H18_15 H 0.7403 0.4619 0.2015
N1_15 N 0.74457(11) 0.52086(12) 0.94502(8)
C2_15 C 0.68695(13) 0.52818(14) 0.96408(9)
H2_15 H 0.6516 0.5219 0.9443
C3_15 C 0.79351(13) 0.52823(13) 0.97413(9)
H3_15 H 0.8342 0.5224 0.9616
B1_15 B 0.9259(4) 0.3715(4) 0.8993(4)
H19_15 H 0.9144 0.3300 0.8875
H20_15 H 0.9387 0.3684 0.9325
H21_15 H 0.9606 0.3879 0.8804
B2_15 B 0.5856(4) 0.6351(4) 0.8600(4)
H22_15 H 0.5735 0.6433 0.8929
H23_15 H 0.5497 0.6183 0.8426
H24_15 H 0.5993 0.6741 0.8451
N7_15 N 0.82480(12) 0.44758(11) 0.88996(8)
N8_15 N 0.68289(12) 0.55378(12) 0.86213(8)
C22_15 C 0.86801(18) 0.41671(18) 0.89500(13)
C23_15 C 0.64127(19) 0.5857(2) 0.85900(13)
N2_16 N 0.28087(11) 0.42948(11) 0.08829(7)
N5_16 N 0.22545(11) 0.42995(11) 0.16232(7)
C1_16 C 0.32272(13) 0.45582(14) 0.01063(9)
H1_16 H 0.3640 0.4510 0.0224
C4_16 C 0.21215(13) 0.45593(14) 0.02190(9)
H4_16 H 0.1762 0.4516 0.0412
C5_16 C 0.27161(13) 0.44657(12) 0.04069(9)
C6_16 C 0.32990(12) 0.38859(13) 0.09871(8)
C7_16 C 0.36753(14) 0.39420(13) 0.13893(9)
H5_16 H 0.3603 0.4265 0.1613
C8_16 C 0.41560(14) 0.35180(13) 0.14549(9)
H6_16 H 0.4417 0.3569 0.1724
C9_16 C 0.38899(13) 0.29714(13) 0.07860(9)
H7_16 H 0.3953 0.2627 0.0580
C10_16 C 0.34095(13) 0.33773(13) 0.06888(9)
H8_16 H 0.3153 0.3312 0.0419
C11_16 C 0.25361(12) 0.46815(12) 0.12540(10)
H9_16 H 0.2864 0.4948 0.1395
H10_16 H 0.2215 0.4957 0.1114
C12_16 C 0.18159(13) 0.33558(14) 0.12524(10)
H11_16 H 0.2216 0.3237 0.1139
C13_16 C 0.13037(14) 0.29795(14) 0.11718(10)
H12_16 H 0.1363 0.2603 0.1000
C14_16 C 0.06529(14) 0.36649(14) 0.15549(10)
H13_16 H 0.0247 0.3780 0.1659
C15_16 C 0.11406(14) 0.40634(14) 0.16461(10)
H14_16 H 0.1068 0.4444 0.1809
C16_16 C 0.17402(13) 0.39076(13) 0.14996(9)
C17_16 C 0.22941(12) 0.44848(13) 0.20967(8)
C18_16 C 0.21440(16) 0.40552(15) 0.24522(10)
H15_16 H 0.2006 0.3648 0.2371
C19_16 C 0.21971(15) 0.42251(14) 0.29208(9)
H16_16 H 0.2096 0.3923 0.3155
C20_16 C 0.25252(13) 0.52062(14) 0.27233(9)
H17_16 H 0.2657 0.5612 0.2815
C21_16 C 0.24893(13) 0.50728(14) 0.22426(9)
H18_16 H 0.2597 0.5381 0.2015
N1_16 N 0.25543(11) 0.47914(12) 0.94502(8)
C2_16 C 0.31305(13) 0.47182(14) 0.96408(9)
H2_16 H 0.3484 0.4781 0.9443
C3_16 C 0.20649(13) 0.47177(13) 0.97413(9)
H3_16 H 0.1658 0.4776 0.9616
B1_16 B 0.0741(4) 0.6285(4) 0.8993(4)
H19_16 H 0.0856 0.6700 0.8875
H20_16 H 0.0613 0.6316 0.9325
H21_16 H 0.0394 0.6121 0.8804
B2_16 B 0.4144(4) 0.3649(4) 0.8600(4)
H22_16 H 0.4265 0.3567 0.8929
H23_16 H 0.4503 0.3817 0.8426
H24_16 H 0.4007 0.3259 0.8451
N7_16 N 0.17520(12) 0.55242(11) 0.88996(8)
N8_16 N 0.31711(12) 0.44622(12) 0.86213(8)
C22_16 C 0.13199(18) 0.58329(18) 0.89500(13)
C23_16 C 0.35873(19) 0.4143(2) 0.85900(13)
loop_
_geom_bond_atom_site_label_1
_geom_bond_atom_site_label_2
_geom_bond_site_symmetry_1
_geom_bond_site_symmetry_2
Fe1 N1 1_555 1_555
N1 C2 1_555 1_555
H2 C2 1_555 1_555
C3 N1 1_555 1_555
H3 C3 1_555 1_555
B2 H22 1_555 1_555
H23 B2 1_555 1_555
H24 B2 1_555 1_555
N8 Fe1 1_555 1_555
C23 B2 1_555 1_555
N10 Fe1 1_555 1_555
N8 C23 1_555 1_555
N2 C5 1_555 1_555
N3 C8 1_555 1_555
N4 C13 1_555 1_555
N5 C11 1_555 1_555
N6 C19 1_555 1_555
C1 H1 1_555 1_555
H4 C4 1_555 1_555
C5 C1 1_555 1_555
C6 N2 1_555 1_555
C7 C6 1_555 1_555
H5 C7 1_555 1_555
C8 C7 1_555 1_555
H6 C8 1_555 1_555
C9 N3 1_555 1_555
H7 C9 1_555 1_555
C10 C6 1_555 1_555
H8 C10 1_555 1_555
C11 N2 1_555 1_555
H9 C11 1_555 1_555
H10 C11 1_555 1_555
C12 H11 1_555 1_555
C13 C12 1_555 1_555
H12 C13 1_555 1_555
C14 N4 1_555 1_555
H13 C14 1_555 1_555
C15 C14 1_555 1_555
H14 C15 1_555 1_555
C16 N5 1_555 1_555
C17 N5 1_555 1_555
C18 C17 1_555 1_555
H15 C18 1_555 1_555
C19 C18 1_555 1_555
H16 C19 1_555 1_555
Fe4 N4 1_555 1_555
C4 C5 1_555 1_555
C9 C10 1_555 1_555
C12 C16 1_555 1_555
C15 C16 1_555 1_555
B1 H19 1_555 1_555
H20 B1 1_555 1_555
H21 B1 1_555 1_555
C22 B1 1_555 1_555
N7 C22 1_555 1_555
H17 C20 1_555 1_555
H18 C21 1_555 1_555
C20 C21 1_555 1_555
B1_2 H19_2 1_555 1_555
H20_2 B1_2 1_555 1_555
H21_2 B1_2 1_555 1_555
C22_2 B1_2 1_555 1_555
N7_2 C22_2 1_555 1_555
H17_2 C20_2 1_555 1_555
H18_2 C21_2 1_555 1_555
C20_2 C21_2 1_555 1_555
Fe1_2 N1_2 1_555 1_555
N1_2 C2_2 1_555 1_555
H2_2 C2_2 1_555 1_555
C3_2 N1_2 1_555 1_555
H3_2 C3_2 1_555 1_555
B2_2 H22_2 1_555 1_555
H23_2 B2_2 1_555 1_555
H24_2 B2_2 1_555 1_555
N8_2 Fe1_2 1_555 1_555
C23_2 B2_2 1_555 1_555
N10_2 Fe1_2 1_555 1_555
N8_2 C23_2 1_555 1_555
N2_2 C5_2 1_555 1_555
N3_2 C8_2 1_555 1_555
N4_2 C13_2 1_555 1_555
N5_2 C11_2 1_555 1_555
N6_2 C19_2 1_555 1_555
C1_2 H1_2 1_555 1_555
H4_2 C4_2 1_555 1_555
C5_2 C1_2 1_555 1_555
C6_2 N2_2 1_555 1_555
C7_2 C6_2 1_555 1_555
H5_2 C7_2 1_555 1_555
C8_2 C7_2 1_555 1_555
H6_2 C8_2 1_555 1_555
C9_2 N3_2 1_555 1_555
H7_2 C9_2 1_555 1_555
C10_2 C6_2 1_555 1_555
H8_2 C10_2 1_555 1_555
C11_2 N2_2 1_555 1_555
H9_2 C11_2 1_555 1_555
H10_2 C11_2 1_555 1_555
C12_2 H11_2 1_555 1_555
C13_2 C12_2 1_555 1_555
H12_2 C13_2 1_555 1_555
C14_2 N4_2 1_555 1_555
H13_2 C14_2 1_555 1_555
C15_2 C14_2 1_555 1_555
H14_2 C15_2 1_555 1_555
C16_2 N5_2 1_555 1_555
C17_2 N5_2 1_555 1_555
C18_2 C17_2 1_555 1_555
H15_2 C18_2 1_555 1_555
C19_2 C18_2 1_555 1_555
H16_2 C19_2 1_555 1_555
Fe4_2 N4_2 1_555 1_555
C4_2 C5_2 1_555 1_555
C9_2 C10_2 1_555 1_555
C12_2 C16_2 1_555 1_555
C15_2 C16_2 1_555 1_555
H17_3 C20_3 1_555 1_555
H18_3 C21_3 1_555 1_555
C20_3 C21_3 1_555 1_555
B1_3 H19_3 1_555 1_555
H20_3 B1_3 1_555 1_555
H21_3 B1_3 1_555 1_555
C22_3 B1_3 1_555 1_555
N7_3 C22_3 1_555 1_555
N2_3 C5_3 1_555 1_555
N9_2 C8_3 1_555 1_555
N4_3 C13_3 1_555 1_555
N5_3 C11_3 1_555 1_555
N6_3 C19_3 1_555 1_555
C1_3 H1_3 1_555 1_555
H4_3 C4_3 1_555 1_555
C5_3 C1_3 1_555 1_555
C6_3 N2_3 1_555 1_555
C7_3 C6_3 1_555 1_555
H5_3 C7_3 1_555 1_555
C8_3 C7_3 1_555 1_555
H6_3 C8_3 1_555 1_555
C9_3 N9_2 1_555 1_555
H7_3 C9_3 1_555 1_555
C10_3 C6_3 1_555 1_555
H8_3 C10_3 1_555 1_555
C11_3 N2_3 1_555 1_555
H9_3 C11_3 1_555 1_555
H10_3 C11_3 1_555 1_555
C12_3 H11_3 1_555 1_555
C13_3 C12_3 1_555 1_555
H12_3 C13_3 1_555 1_555
C14_3 N4_3 1_555 1_555
H13_3 C14_3 1_555 1_555
C15_3 C14_3 1_555 1_555
H14_3 C15_3 1_555 1_555
C16_3 N5_3 1_555 1_555
C17_3 N5_3 1_555 1_555
C18_3 C17_3 1_555 1_555
H15_3 C18_3 1_555 1_555
C19_3 C18_3 1_555 1_555
H16_3 C19_3 1_555 1_555
Fe4_3 N4_3 1_555 1_555
C4_3 C5_3 1_555 1_555
C9_3 C10_3 1_555 1_555
C12_3 C16_3 1_555 1_555
C15_3 C16_3 1_555 1_555
Fe2 N1_3 1_555 1_555
N1_3 C2_3 1_555 1_555
H2_3 C2_3 1_555 1_555
C3_3 N1_3 1_555 1_555
H3_3 C3_3 1_555 1_555
B2_3 H22_3 1_555 1_555
H23_3 B2_3 1_555 1_555
H24_3 B2_3 1_555 1_555
N8_3 Fe2 1_555 1_555
C23_3 B2_3 1_555 1_555
N10_3 Fe2 1_555 1_555
N8_3 C23_3 1_555 1_555
N2_4 C5_4 1_555 1_555
N9 C8_4 1_555 1_555
N4_4 C13_4 1_555 1_555
N5_4 C11_4 1_555 1_555
N6_4 C19_4 1_555 1_555
C1_4 H1_4 1_555 1_555
H4_4 C4_4 1_555 1_555
C5_4 C1_4 1_555 1_555
C6_4 N2_4 1_555 1_555
C7_4 C6_4 1_555 1_555
H5_4 C7_4 1_555 1_555
C8_4 C7_4 1_555 1_555
H6_4 C8_4 1_555 1_555
C9_4 N9 1_555 1_555
H7_4 C9_4 1_555 1_555
C10_4 C6_4 1_555 1_555
H8_4 C10_4 1_555 1_555
C11_4 N2_4 1_555 1_555
H9_4 C11_4 1_555 1_555
H10_4 C11_4 1_555 1_555
C12_4 H11_4 1_555 1_555
C13_4 C12_4 1_555 1_555
H12_4 C13_4 1_555 1_555
C14_4 N4_4 1_555 1_555
H13_4 C14_4 1_555 1_555
C15_4 C14_4 1_555 1_555
H14_4 C15_4 1_555 1_555
C16_4 N5_4 1_555 1_555
C17_4 N5_4 1_555 1_555
C18_4 C17_4 1_555 1_555
H15_4 C18_4 1_555 1_555
C19_4 C18_4 1_555 1_555
H16_4 C19_4 1_555 1_555
Fe4_4 N4_4 1_555 1_555
C4_4 C5_4 1_555 1_555
C9_4 C10_4 1_555 1_555
C12_4 C16_4 1_555 1_555
C15_4 C16_4 1_555 1_555
Fe2_2 N1_4 1_555 1_555
N1_4 C2_4 1_555 1_555
H2_4 C2_4 1_555 1_555
C3_4 N1_4 1_555 1_555
H3_4 C3_4 1_555 1_555
B2_4 H22_4 1_555 1_555
H23_4 B2_4 1_555 1_555
H24_4 B2_4 1_555 1_555
N8_4 Fe2_2 1_555 1_555
C23_4 B2_4 1_555 1_555
N10_4 Fe2_2 1_555 1_555
N8_4 C23_4 1_555 1_555
H17_4 C20_4 1_555 1_555
H18_4 C21_4 1_555 1_555
C20_4 C21_4 1_555 1_555
B1_4 H19_4 1_555 1_555
H20_4 B1_4 1_555 1_555
H21_4 B1_4 1_555 1_555
C22_4 B1_4 1_555 1_555
N7_4 C22_4 1_555 1_555
Fe3_2 N1_5 1_555 1_555
N1_5 C2_5 1_555 1_555
N2_5 C5_5 1_555 1_555
N3_3 C8_5 1_555 1_555
N4_5 C13_5 1_555 1_555
N5_5 C11_5 1_555 1_555
N11_2 C19_5 1_555 1_555
C1_5 H1_5 1_555 1_555
C2_5 C1_5 1_555 1_555
H2_5 C2_5 1_555 1_555
C3_5 N1_5 1_555 1_555
H3_5 C3_5 1_555 1_555
C4_5 C3_5 1_555 1_555
H4_5 C4_5 1_555 1_555
C5_5 C1_5 1_555 1_555
C6_5 N2_5 1_555 1_555
C7_5 C6_5 1_555 1_555
H5_5 C7_5 1_555 1_555
C8_5 C7_5 1_555 1_555
H6_5 C8_5 1_555 1_555
C9_5 N3_3 1_555 1_555
H7_5 C9_5 1_555 1_555
C10_5 C6_5 1_555 1_555
H8_5 C10_5 1_555 1_555
C11_5 N2_5 1_555 1_555
H9_5 C11_5 1_555 1_555
H10_5 C11_5 1_555 1_555
C12_5 H11_5 1_555 1_555
C13_5 C12_5 1_555 1_555
H12_5 C13_5 1_555 1_555
C14_5 N4_5 1_555 1_555
H13_5 C14_5 1_555 1_555
C15_5 C14_5 1_555 1_555
H14_5 C15_5 1_555 1_555
C16_5 N5_5 1_555 1_555
C17_5 N5_5 1_555 1_555
C18_5 C17_5 1_555 1_555
H15_5 C18_5 1_555 1_555
C19_5 C18_5 1_555 1_555
H16_5 C19_5 1_555 1_555
B2_5 H22_5 1_555 1_555
H23_5 B2_5 1_555 1_555
H24_5 B2_5 1_555 1_555
N8_5 Fe3_2 1_555 1_555
C23_5 B2_5 1_555 1_555
Fe4_5 N4_5 1_555 1_555
N10_5 Fe3_2 1_555 1_555
C4_5 C5_5 1_555 1_555
C9_5 C10_5 1_555 1_555
C12_5 C16_5 1_555 1_555
C15_5 C16_5 1_555 1_555
N8_5 C23_5 1_555 1_555
H17_5 C20_5 1_555 1_555
H18_5 C21_5 1_555 1_555
B1_5 H19_5 1_555 1_555
H20_5 B1_5 1_555 1_555
H21_5 B1_5 1_555 1_555
C22_5 B1_5 1_555 1_555
C20_5 C21_5 1_555 1_555
N7_5 C22_5 1_555 1_555
H17_6 C20_6 1_555 1_555
H18_6 C21_6 1_555 1_555
B1_6 H19_6 1_555 1_555
H20_6 B1_6 1_555 1_555
H21_6 B1_6 1_555 1_555
C22_6 B1_6 1_555 1_555
C20_6 C21_6 1_555 1_555
N7_6 C22_6 1_555 1_555
Fe3 N1_6 1_555 1_555
N1_6 C2_6 1_555 1_555
N2_6 C5_6 1_555 1_555
N3_4 C8_6 1_555 1_555
N4_6 C13_6 1_555 1_555
N5_6 C11_6 1_555 1_555
N11 C19_6 1_555 1_555
C1_6 H1_6 1_555 1_555
C2_6 C1_6 1_555 1_555
H2_6 C2_6 1_555 1_555
C3_6 N1_6 1_555 1_555
H3_6 C3_6 1_555 1_555
C4_6 C3_6 1_555 1_555
H4_6 C4_6 1_555 1_555
C5_6 C1_6 1_555 1_555
C6_6 N2_6 1_555 1_555
C7_6 C6_6 1_555 1_555
H5_6 C7_6 1_555 1_555
C8_6 C7_6 1_555 1_555
H6_6 C8_6 1_555 1_555
C9_6 N3_4 1_555 1_555
H7_6 C9_6 1_555 1_555
C10_6 C6_6 1_555 1_555
H8_6 C10_6 1_555 1_555
C11_6 N2_6 1_555 1_555
H9_6 C11_6 1_555 1_555
H10_6 C11_6 1_555 1_555
C12_6 H11_6 1_555 1_555
C13_6 C12_6 1_555 1_555
H12_6 C13_6 1_555 1_555
C14_6 N4_6 1_555 1_555
H13_6 C14_6 1_555 1_555
C15_6 C14_6 1_555 1_555
H14_6 C15_6 1_555 1_555
C16_6 N5_6 1_555 1_555
C17_6 N5_6 1_555 1_555
C18_6 C17_6 1_555 1_555
H15_6 C18_6 1_555 1_555
C19_6 C18_6 1_555 1_555
H16_6 C19_6 1_555 1_555
B2_6 H22_6 1_555 1_555
H23_6 B2_6 1_555 1_555
H24_6 B2_6 1_555 1_555
N8_6 Fe3 1_555 1_555
C23_6 B2_6 1_555 1_555
Fe4_6 N4_6 1_555 1_555
N10_6 Fe3 1_555 1_555
C4_6 C5_6 1_555 1_555
C9_6 C10_6 1_555 1_555
C12_6 C16_6 1_555 1_555
C15_6 C16_6 1_555 1_555
N8_6 C23_6 1_555 1_555
Fe3_3 N1_7 1_555 1_555
N1_7 C2_7 1_555 1_555
N2_7 C5_7 1_555 1_555
N9_4 C8_7 1_555 1_555
N4_7 C13_7 1_555 1_555
N5_7 C11_7 1_555 1_555
N11_3 C19_7 1_555 1_555
C1_7 H1_7 1_555 1_555
C2_7 C1_7 1_555 1_555
H2_7 C2_7 1_555 1_555
C3_7 N1_7 1_555 1_555
H3_7 C3_7 1_555 1_555
C4_7 C3_7 1_555 1_555
H4_7 C4_7 1_555 1_555
C5_7 C1_7 1_555 1_555
C6_7 N2_7 1_555 1_555
C7_7 C6_7 1_555 1_555
H5_7 C7_7 1_555 1_555
C8_7 C7_7 1_555 1_555
H6_7 C8_7 1_555 1_555
C9_7 N9_4 1_555 1_555
H7_7 C9_7 1_555 1_555
C10_7 C6_7 1_555 1_555
H8_7 C10_7 1_555 1_555
C11_7 N2_7 1_555 1_555
H9_7 C11_7 1_555 1_555
H10_7 C11_7 1_555 1_555
C12_7 H11_7 1_555 1_555
C13_7 C12_7 1_555 1_555
H12_7 C13_7 1_555 1_555
C14_7 N4_7 1_555 1_555
H13_7 C14_7 1_555 1_555
C15_7 C14_7 1_555 1_555
H14_7 C15_7 1_555 1_555
C16_7 N5_7 1_555 1_555
C17_7 N5_7 1_555 1_555
C18_7 C17_7 1_555 1_555
H15_7 C18_7 1_555 1_555
C19_7 C18_7 1_555 1_555
H16_7 C19_7 1_555 1_555
B2_7 H22_7 1_555 1_555
H23_7 B2_7 1_555 1_555
H24_7 B2_7 1_555 1_555
N8_7 Fe3_3 1_555 1_555
C23_7 B2_7 1_555 1_555
Fe4_7 N4_7 1_555 1_555
N10_7 Fe3_3 1_555 1_555
C4_7 C5_7 1_555 1_555
C9_7 C10_7 1_555 1_555
C12_7 C16_7 1_555 1_555
C15_7 C16_7 1_555 1_555
N8_7 C23_7 1_555 1_555
H17_7 C20_7 1_555 1_555
H18_7 C21_7 1_555 1_555
B1_7 H19_7 1_555 1_555
H20_7 B1_7 1_555 1_555
H21_7 B1_7 1_555 1_555
C22_7 B1_7 1_555 1_555
C20_7 C21_7 1_555 1_555
N7_7 C22_7 1_555 1_555
H17_8 C20_8 1_555 1_555
H18_8 C21_8 1_555 1_555
B1_8 H19_8 1_555 1_555
H20_8 B1_8 1_555 1_555
H21_8 B1_8 1_555 1_555
C22_8 B1_8 1_555 1_555
C20_8 C21_8 1_555 1_555
N7_8 C22_8 1_555 1_555
Fe3_4 N1_8 1_555 1_555
N1_8 C2_8 1_555 1_555
N2_8 C5_8 1_555 1_555
N9_3 C8_8 1_555 1_555
N4_8 C13_8 1_555 1_555
N5_8 C11_8 1_555 1_555
N11_4 C19_8 1_555 1_555
C1_8 H1_8 1_555 1_555
C2_8 C1_8 1_555 1_555
H2_8 C2_8 1_555 1_555
C3_8 N1_8 1_555 1_555
H3_8 C3_8 1_555 1_555
C4_8 C3_8 1_555 1_555
H4_8 C4_8 1_555 1_555
C5_8 C1_8 1_555 1_555
C6_8 N2_8 1_555 1_555
C7_8 C6_8 1_555 1_555
H5_8 C7_8 1_555 1_555
C8_8 C7_8 1_555 1_555
H6_8 C8_8 1_555 1_555
C9_8 N9_3 1_555 1_555
H7_8 C9_8 1_555 1_555
C10_8 C6_8 1_555 1_555
H8_8 C10_8 1_555 1_555
C11_8 N2_8 1_555 1_555
H9_8 C11_8 1_555 1_555
H10_8 C11_8 1_555 1_555
C12_8 H11_8 1_555 1_555
C13_8 C12_8 1_555 1_555
H12_8 C13_8 1_555 1_555
C14_8 N4_8 1_555 1_555
H13_8 C14_8 1_555 1_555
C15_8 C14_8 1_555 1_555
H14_8 C15_8 1_555 1_555
C16_8 N5_8 1_555 1_555
C17_8 N5_8 1_555 1_555
C18_8 C17_8 1_555 1_555
H15_8 C18_8 1_555 1_555
C19_8 C18_8 1_555 1_555
H16_8 C19_8 1_555 1_555
B2_8 H22_8 1_555 1_555
H23_8 B2_8 1_555 1_555
H24_8 B2_8 1_555 1_555
N8_8 Fe3_4 1_555 1_555
C23_8 B2_8 1_555 1_555
Fe4_8 N4_8 1_555 1_555
N10_8 Fe3_4 1_555 1_555
C4_8 C5_8 1_555 1_555
C9_8 C10_8 1_555 1_555
C12_8 C16_8 1_555 1_555
C15_8 C16_8 1_555 1_555
N8_8 C23_8 1_555 1_555
Fe4_8 N1_9 1_555 1_555
N1_9 C2_9 1_555 1_555
N2_9 C5_9 1_555 1_555
N3_5 C8_9 1_555 1_555
N10_8 C13_9 1_555 1_555
N5_9 C11_9 1_555 1_555
N6_5 C19_9 1_555 1_555
C1_9 H1_9 1_555 1_555
C2_9 C1_9 1_555 1_555
H2_9 C2_9 1_555 1_555
C3_9 N1_9 1_555 1_555
H3_9 C3_9 1_555 1_555
C4_9 C3_9 1_555 1_555
H4_9 C4_9 1_555 1_555
C5_9 C1_9 1_555 1_555
C6_9 N2_9 1_555 1_555
C7_9 C6_9 1_555 1_555
H5_9 C7_9 1_555 1_555
C8_9 C7_9 1_555 1_555
H6_9 C8_9 1_555 1_555
C9_9 N3_5 1_555 1_555
H7_9 C9_9 1_555 1_555
C10_9 C6_9 1_555 1_555
H8_9 C10_9 1_555 1_555
C11_9 N2_9 1_555 1_555
H9_9 C11_9 1_555 1_555
H10_9 C11_9 1_555 1_555
C12_9 H11_9 1_555 1_555
C13_9 C12_9 1_555 1_555
H12_9 C13_9 1_555 1_555
C14_9 N10_8 1_555 1_555
H13_9 C14_9 1_555 1_555
C15_9 C14_9 1_555 1_555
H14_9 C15_9 1_555 1_555
C16_9 N5_9 1_555 1_555
C17_9 N5_9 1_555 1_555
C18_9 C17_9 1_555 1_555
H15_9 C18_9 1_555 1_555
C19_9 C18_9 1_555 1_555
H16_9 C19_9 1_555 1_555
C20_9 N6_5 1_555 1_555
H17_9 C20_9 1_555 1_555
C21_9 C17_9 1_555 1_555
H18_9 C21_9 1_555 1_555
B1_9 H19_9 1_555 1_555
H20_9 B1_9 1_555 1_555
H21_9 B1_9 1_555 1_555
B2_9 H22_9 1_555 1_555
H23_9 B2_9 1_555 1_555
H24_9 B2_9 1_555 1_555
N7_9 Fe4_8 1_555 1_555
N8_9 Fe4_8 1_555 1_555
C22_9 B1_9 1_555 1_555
C23_9 B2_9 1_555 1_555
Fe4_6 N3_5 1_555 1_555
Fe4_3 N6_5 1_555 1_555
N9_5 Fe4_8 1_555 1_555
N11_5 Fe4_8 1_555 1_555
C4_9 C5_9 1_555 1_555
C9_9 C10_9 1_555 1_555
C12_9 C16_9 1_555 1_555
C15_9 C16_9 1_555 1_555
C20_9 C21_9 1_555 1_555
N7_9 C22_9 1_555 1_555
N8_9 C23_9 1_555 1_555
Fe4_7 N1_10 1_555 1_555
N1_10 C2_10 1_555 1_555
N2_10 C5_10 1_555 1_555
N3_6 C8_10 1_555 1_555
N10_7 C13_10 1_555 1_555
N5_10 C11_10 1_555 1_555
N6_6 C19_10 1_555 1_555
C1_10 H1_10 1_555 1_555
C2_10 C1_10 1_555 1_555
H2_10 C2_10 1_555 1_555
C3_10 N1_10 1_555 1_555
H3_10 C3_10 1_555 1_555
C4_10 C3_10 1_555 1_555
H4_10 C4_10 1_555 1_555
C5_10 C1_10 1_555 1_555
C6_10 N2_10 1_555 1_555
C7_10 C6_10 1_555 1_555
H5_10 C7_10 1_555 1_555
C8_10 C7_10 1_555 1_555
H6_10 C8_10 1_555 1_555
C9_10 N3_6 1_555 1_555
H7_10 C9_10 1_555 1_555
C10_10 C6_10 1_555 1_555
H8_10 C10_10 1_555 1_555
C11_10 N2_10 1_555 1_555
H9_10 C11_10 1_555 1_555
H10_10 C11_10 1_555 1_555
C12_10 H11_10 1_555 1_555
C13_10 C12_10 1_555 1_555
H12_10 C13_10 1_555 1_555
C14_10 N10_7 1_555 1_555
H13_10 C14_10 1_555 1_555
C15_10 C14_10 1_555 1_555
H14_10 C15_10 1_555 1_555
C16_10 N5_10 1_555 1_555
C17_10 N5_10 1_555 1_555
C18_10 C17_10 1_555 1_555
H15_10 C18_10 1_555 1_555
C19_10 C18_10 1_555 1_555
H16_10 C19_10 1_555 1_555
C20_10 N6_6 1_555 1_555
H17_10 C20_10 1_555 1_555
C21_10 C17_10 1_555 1_555
H18_10 C21_10 1_555 1_555
B1_10 H19_10 1_555 1_555
H20_10 B1_10 1_555 1_555
H21_10 B1_10 1_555 1_555
B2_10 H22_10 1_555 1_555
H23_10 B2_10 1_555 1_555
H24_10 B2_10 1_555 1_555
N7_10 Fe4_7 1_555 1_555
N8_10 Fe4_7 1_555 1_555
C22_10 B1_10 1_555 1_555
C23_10 B2_10 1_555 1_555
Fe4_5 N3_6 1_555 1_555
Fe4_4 N6_6 1_555 1_555
N9_6 Fe4_7 1_555 1_555
N11_6 Fe4_7 1_555 1_555
C4_10 C5_10 1_555 1_555
C9_10 C10_10 1_555 1_555
C12_10 C16_10 1_555 1_555
C15_10 C16_10 1_555 1_555
C20_10 C21_10 1_555 1_555
N7_10 C22_10 1_555 1_555
N8_10 C23_10 1_555 1_555
Fe4_6 N1_11 1_555 1_555
N1_11 C2_11 1_555 1_555
N2_11 C5_11 1_555 1_555
N9_6 C8_11 1_555 1_555
N10_6 C13_11 1_555 1_555
N5_11 C11_11 1_555 1_555
N6_7 C19_11 1_555 1_555
C1_11 H1_11 1_555 1_555
C2_11 C1_11 1_555 1_555
H2_11 C2_11 1_555 1_555
C3_11 N1_11 1_555 1_555
H3_11 C3_11 1_555 1_555
C4_11 C3_11 1_555 1_555
H4_11 C4_11 1_555 1_555
C5_11 C1_11 1_555 1_555
C6_11 N2_11 1_555 1_555
C7_11 C6_11 1_555 1_555
H5_11 C7_11 1_555 1_555
C8_11 C7_11 1_555 1_555
H6_11 C8_11 1_555 1_555
C9_11 N9_6 1_555 1_555
H7_11 C9_11 1_555 1_555
C10_11 C6_11 1_555 1_555
H8_11 C10_11 1_555 1_555
C11_11 N2_11 1_555 1_555
H9_11 C11_11 1_555 1_555
H10_11 C11_11 1_555 1_555
C12_11 H11_11 1_555 1_555
C13_11 C12_11 1_555 1_555
H12_11 C13_11 1_555 1_555
C14_11 N10_6 1_555 1_555
H13_11 C14_11 1_555 1_555
C15_11 C14_11 1_555 1_555
H14_11 C15_11 1_555 1_555
C16_11 N5_11 1_555 1_555
C17_11 N5_11 1_555 1_555
C18_11 C17_11 1_555 1_555
H15_11 C18_11 1_555 1_555
C19_11 C18_11 1_555 1_555
H16_11 C19_11 1_555 1_555
C20_11 N6_7 1_555 1_555
H17_11 C20_11 1_555 1_555
C21_11 C17_11 1_555 1_555
H18_11 C21_11 1_555 1_555
B1_11 H19_11 1_555 1_555
H20_11 B1_11 1_555 1_555
H21_11 B1_11 1_555 1_555
B2_11 H22_11 1_555 1_555
H23_11 B2_11 1_555 1_555
H24_11 B2_11 1_555 1_555
N7_11 Fe4_6 1_555 1_555
N8_11 Fe4_6 1_555 1_555
C22_11 B1_11 1_555 1_555
C23_11 B2_11 1_555 1_555
Fe4_2 N6_7 1_555 1_555
N11_7 Fe4_6 1_555 1_555
C4_11 C5_11 1_555 1_555
C9_11 C10_11 1_555 1_555
C12_11 C16_11 1_555 1_555
C15_11 C16_11 1_555 1_555
C20_11 C21_11 1_555 1_555
N7_11 C22_11 1_555 1_555
N8_11 C23_11 1_555 1_555
Fe4_5 N1_12 1_555 1_555
N1_12 C2_12 1_555 1_555
N2_12 C5_12 1_555 1_555
N9_5 C8_12 1_555 1_555
N10_5 C13_12 1_555 1_555
N5_12 C11_12 1_555 1_555
N6_8 C19_12 1_555 1_555
C1_12 H1_12 1_555 1_555
C2_12 C1_12 1_555 1_555
H2_12 C2_12 1_555 1_555
C3_12 N1_12 1_555 1_555
H3_12 C3_12 1_555 1_555
C4_12 C3_12 1_555 1_555
H4_12 C4_12 1_555 1_555
C5_12 C1_12 1_555 1_555
C6_12 N2_12 1_555 1_555
C7_12 C6_12 1_555 1_555
H5_12 C7_12 1_555 1_555
C8_12 C7_12 1_555 1_555
H6_12 C8_12 1_555 1_555
C9_12 N9_5 1_555 1_555
H7_12 C9_12 1_555 1_555
C10_12 C6_12 1_555 1_555
H8_12 C10_12 1_555 1_555
C11_12 N2_12 1_555 1_555
H9_12 C11_12 1_555 1_555
H10_12 C11_12 1_555 1_555
C12_12 H11_12 1_555 1_555
C13_12 C12_12 1_555 1_555
H12_12 C13_12 1_555 1_555
C14_12 N10_5 1_555 1_555
H13_12 C14_12 1_555 1_555
C15_12 C14_12 1_555 1_555
H14_12 C15_12 1_555 1_555
C16_12 N5_12 1_555 1_555
C17_12 N5_12 1_555 1_555
C18_12 C17_12 1_555 1_555
H15_12 C18_12 1_555 1_555
C19_12 C18_12 1_555 1_555
H16_12 C19_12 1_555 1_555
C20_12 N6_8 1_555 1_555
H17_12 C20_12 1_555 1_555
C21_12 C17_12 1_555 1_555
H18_12 C21_12 1_555 1_555
B1_12 H19_12 1_555 1_555
H20_12 B1_12 1_555 1_555
H21_12 B1_12 1_555 1_555
B2_12 H22_12 1_555 1_555
H23_12 B2_12 1_555 1_555
H24_12 B2_12 1_555 1_555
N7_12 Fe4_5 1_555 1_555
N8_12 Fe4_5 1_555 1_555
C22_12 B1_12 1_555 1_555
C23_12 B2_12 1_555 1_555
Fe4 N6_8 1_555 1_555
N11_8 Fe4_5 1_555 1_555
C4_12 C5_12 1_555 1_555
C9_12 C10_12 1_555 1_555
C12_12 C16_12 1_555 1_555
C15_12 C16_12 1_555 1_555
C20_12 C21_12 1_555 1_555
N7_12 C22_12 1_555 1_555
N8_12 C23_12 1_555 1_555
Fe4_4 N1_13 1_555 1_555
N1_13 C2_13 1_555 1_555
H2_13 C2_13 1_555 1_555
C3_13 N1_13 1_555 1_555
H3_13 C3_13 1_555 1_555
B1_13 H19_13 1_555 1_555
H20_13 B1_13 1_555 1_555
H21_13 B1_13 1_555 1_555
B2_13 H22_13 1_555 1_555
H23_13 B2_13 1_555 1_555
H24_13 B2_13 1_555 1_555
N7_13 Fe4_4 1_555 1_555
N8_13 Fe4_4 1_555 1_555
C22_13 B1_13 1_555 1_555
C23_13 B2_13 1_555 1_555
N9_7 Fe4_4 1_555 1_555
N7_13 C22_13 1_555 1_555
N8_13 C23_13 1_555 1_555
N2_13 C5_13 1_555 1_555
N3_7 C8_13 1_555 1_555
N10_4 C13_13 1_555 1_555
N5_13 C11_13 1_555 1_555
N11_6 C19_13 1_555 1_555
C1_13 H1_13 1_555 1_555
H4_13 C4_13 1_555 1_555
C5_13 C1_13 1_555 1_555
C6_13 N2_13 1_555 1_555
C7_13 C6_13 1_555 1_555
H5_13 C7_13 1_555 1_555
C8_13 C7_13 1_555 1_555
H6_13 C8_13 1_555 1_555
C9_13 N3_7 1_555 1_555
H7_13 C9_13 1_555 1_555
C10_13 C6_13 1_555 1_555
H8_13 C10_13 1_555 1_555
C11_13 N2_13 1_555 1_555
H9_13 C11_13 1_555 1_555
H10_13 C11_13 1_555 1_555
C12_13 H11_13 1_555 1_555
C13_13 C12_13 1_555 1_555
H12_13 C13_13 1_555 1_555
C14_13 N10_4 1_555 1_555
H13_13 C14_13 1_555 1_555
C15_13 C14_13 1_555 1_555
H14_13 C15_13 1_555 1_555
C16_13 N5_13 1_555 1_555
C17_13 N5_13 1_555 1_555
C18_13 C17_13 1_555 1_555
H15_13 C18_13 1_555 1_555
C19_13 C18_13 1_555 1_555
H16_13 C19_13 1_555 1_555
C20_13 N11_6 1_555 1_555
H17_13 C20_13 1_555 1_555
C21_13 C17_13 1_555 1_555
H18_13 C21_13 1_555 1_555
Fe4_2 N3_7 1_555 1_555
C4_13 C5_13 1_555 1_555
C9_13 C10_13 1_555 1_555
C12_13 C16_13 1_555 1_555
C15_13 C16_13 1_555 1_555
C20_13 C21_13 1_555 1_555
Fe4_3 N1_14 1_555 1_555
N1_14 C2_14 1_555 1_555
H2_14 C2_14 1_555 1_555
C3_14 N1_14 1_555 1_555
H3_14 C3_14 1_555 1_555
B1_14 H19_14 1_555 1_555
H20_14 B1_14 1_555 1_555
H21_14 B1_14 1_555 1_555
B2_14 H22_14 1_555 1_555
H23_14 B2_14 1_555 1_555
H24_14 B2_14 1_555 1_555
N7_14 Fe4_3 1_555 1_555
N8_14 Fe4_3 1_555 1_555
C22_14 B1_14 1_555 1_555
C23_14 B2_14 1_555 1_555
N9_8 Fe4_3 1_555 1_555
N7_14 C22_14 1_555 1_555
N8_14 C23_14 1_555 1_555
N2_14 C5_14 1_555 1_555
N3_8 C8_14 1_555 1_555
N10_3 C13_14 1_555 1_555
N5_14 C11_14 1_555 1_555
N11_5 C19_14 1_555 1_555
C1_14 H1_14 1_555 1_555
H4_14 C4_14 1_555 1_555
C5_14 C1_14 1_555 1_555
C6_14 N2_14 1_555 1_555
C7_14 C6_14 1_555 1_555
H5_14 C7_14 1_555 1_555
C8_14 C7_14 1_555 1_555
H6_14 C8_14 1_555 1_555
C9_14 N3_8 1_555 1_555
H7_14 C9_14 1_555 1_555
C10_14 C6_14 1_555 1_555
H8_14 C10_14 1_555 1_555
C11_14 N2_14 1_555 1_555
H9_14 C11_14 1_555 1_555
H10_14 C11_14 1_555 1_555
C12_14 H11_14 1_555 1_555
C13_14 C12_14 1_555 1_555
H12_14 C13_14 1_555 1_555
C14_14 N10_3 1_555 1_555
H13_14 C14_14 1_555 1_555
C15_14 C14_14 1_555 1_555
H14_14 C15_14 1_555 1_555
C16_14 N5_14 1_555 1_555
C17_14 N5_14 1_555 1_555
C18_14 C17_14 1_555 1_555
H15_14 C18_14 1_555 1_555
C19_14 C18_14 1_555 1_555
H16_14 C19_14 1_555 1_555
C20_14 N11_5 1_555 1_555
H17_14 C20_14 1_555 1_555
C21_14 C17_14 1_555 1_555
H18_14 C21_14 1_555 1_555
Fe4 N3_8 1_555 1_555
C4_14 C5_14 1_555 1_555
C9_14 C10_14 1_555 1_555
C12_14 C16_14 1_555 1_555
C15_14 C16_14 1_555 1_555
C20_14 C21_14 1_555 1_555
N2_15 C5_15 1_555 1_555
N9_8 C8_15 1_555 1_555
N10_2 C13_15 1_555 1_555
N5_15 C11_15 1_555 1_555
N11_7 C19_15 1_555 1_555
C1_15 H1_15 1_555 1_555
H4_15 C4_15 1_555 1_555
C5_15 C1_15 1_555 1_555
C6_15 N2_15 1_555 1_555
C7_15 C6_15 1_555 1_555
H5_15 C7_15 1_555 1_555
C8_15 C7_15 1_555 1_555
H6_15 C8_15 1_555 1_555
C9_15 N9_8 1_555 1_555
H7_15 C9_15 1_555 1_555
C10_15 C6_15 1_555 1_555
H8_15 C10_15 1_555 1_555
C11_15 N2_15 1_555 1_555
H9_15 C11_15 1_555 1_555
H10_15 C11_15 1_555 1_555
C12_15 H11_15 1_555 1_555
C13_15 C12_15 1_555 1_555
H12_15 C13_15 1_555 1_555
C14_15 N10_2 1_555 1_555
H13_15 C14_15 1_555 1_555
C15_15 C14_15 1_555 1_555
H14_15 C15_15 1_555 1_555
C16_15 N5_15 1_555 1_555
C17_15 N5_15 1_555 1_555
C18_15 C17_15 1_555 1_555
H15_15 C18_15 1_555 1_555
C19_15 C18_15 1_555 1_555
H16_15 C19_15 1_555 1_555
C20_15 N11_7 1_555 1_555
H17_15 C20_15 1_555 1_555
C21_15 C17_15 1_555 1_555
H18_15 C21_15 1_555 1_555
C4_15 C5_15 1_555 1_555
C9_15 C10_15 1_555 1_555
C12_15 C16_15 1_555 1_555
C15_15 C16_15 1_555 1_555
C20_15 C21_15 1_555 1_555
Fe4_2 N1_15 1_555 1_555
N1_15 C2_15 1_555 1_555
H2_15 C2_15 1_555 1_555
C3_15 N1_15 1_555 1_555
H3_15 C3_15 1_555 1_555
B1_15 H19_15 1_555 1_555
H20_15 B1_15 1_555 1_555
H21_15 B1_15 1_555 1_555
B2_15 H22_15 1_555 1_555
H23_15 B2_15 1_555 1_555
H24_15 B2_15 1_555 1_555
N7_15 Fe4_2 1_555 1_555
N8_15 Fe4_2 1_555 1_555
C22_15 B1_15 1_555 1_555
C23_15 B2_15 1_555 1_555
N7_15 C22_15 1_555 1_555
N8_15 C23_15 1_555 1_555
N2_16 C5_16 1_555 1_555
N9_7 C8_16 1_555 1_555
N10 C13_16 1_555 1_555
N5_16 C11_16 1_555 1_555
N11_8 C19_16 1_555 1_555
C1_16 H1_16 1_555 1_555
H4_16 C4_16 1_555 1_555
C5_16 C1_16 1_555 1_555
C6_16 N2_16 1_555 1_555
C7_16 C6_16 1_555 1_555
H5_16 C7_16 1_555 1_555
C8_16 C7_16 1_555 1_555
H6_16 C8_16 1_555 1_555
C9_16 N9_7 1_555 1_555
H7_16 C9_16 1_555 1_555
C10_16 C6_16 1_555 1_555
H8_16 C10_16 1_555 1_555
C11_16 N2_16 1_555 1_555
H9_16 C11_16 1_555 1_555
H10_16 C11_16 1_555 1_555
C12_16 H11_16 1_555 1_555
C13_16 C12_16 1_555 1_555
H12_16 C13_16 1_555 1_555
C14_16 N10 1_555 1_555
H13_16 C14_16 1_555 1_555
C15_16 C14_16 1_555 1_555
H14_16 C15_16 1_555 1_555
C16_16 N5_16 1_555 1_555
C17_16 N5_16 1_555 1_555
C18_16 C17_16 1_555 1_555
H15_16 C18_16 1_555 1_555
C19_16 C18_16 1_555 1_555
H16_16 C19_16 1_555 1_555
C20_16 N11_8 1_555 1_555
H17_16 C20_16 1_555 1_555
C21_16 C17_16 1_555 1_555
H18_16 C21_16 1_555 1_555
C4_16 C5_16 1_555 1_555
C9_16 C10_16 1_555 1_555
C12_16 C16_16 1_555 1_555
C15_16 C16_16 1_555 1_555
C20_16 C21_16 1_555 1_555
Fe4 N1_16 1_555 1_555
N1_16 C2_16 1_555 1_555
H2_16 C2_16 1_555 1_555
C3_16 N1_16 1_555 1_555
H3_16 C3_16 1_555 1_555
B1_16 H19_16 1_555 1_555
H20_16 B1_16 1_555 1_555
H21_16 B1_16 1_555 1_555
B2_16 H22_16 1_555 1_555
H23_16 B2_16 1_555 1_555
H24_16 B2_16 1_555 1_555
N7_16 Fe4 1_555 1_555
N8_16 Fe4 1_555 1_555
C22_16 B1_16 1_555 1_555
C23_16 B2_16 1_555 1_555
N7_16 C22_16 1_555 1_555
N8_16 C23_16 1_555 1_555

#END
