
###############################################################################
#
# This file contains modified crystal structure data generated from the
# MOF subset of the Cambridge Structural Database (CSD) v543 
# hosted by the Cambridge Crystallographic Data Centre (CCDC).
#
# This work is licensed under the Creative Commons
# Attribution-NonCommercial-ShareAlike 4.0 International License.
# To view a copy of this license, visit
# http://creativecommons.org/licenses/by-nc-sa/4.0/
# or send a letter to
# Creative Commons, PO Box 1866, Mountain View, CA 94042, USA.
#
# CIF created using the CSD Python API on 29 September 2022
# The structure has been converted into the P1 space group
# The structure has a 3D framework
# The original CSD entry ZEXXEI01 is in the tetragonal crystal system
# The framework has been calculated to contain at least 10.0% void space
# The void calculation uses a probe of radius 1.32A, grid spacing 0.4
# The framework is charged, counterions have been retained in the structure
#
###############################################################################

data_ZEXXEI01
_chemical_formula_moiety         '(C368 H384 B32 Fe16 N128)n'
_symmetry_cell_setting           triclinic
_symmetry_space_group_name_H-M   'P 1'
_symmetry_Int_Tables_number      1
_space_group_name_Hall           'P 1'
loop_
_symmetry_equiv_pos_site_id
_symmetry_equiv_pos_as_xyz
1 x,y,z
_cell_length_a                   22.005(3)
_cell_length_b                   22.005(3)
_cell_length_c                   28.943(6)
_cell_angle_alpha                90
_cell_angle_beta                 90
_cell_angle_gamma                90
_cell_volume                     14014.8
loop_
_atom_site_label
_atom_site_type_symbol
_atom_site_fract_x
_atom_site_fract_y
_atom_site_fract_z
Fe1 Fe 0.00010(2) 0.25424(2) 0.12392(2)
N1 N 0.02082(16) 0.24468(13) 0.04963(9)
C2 C 0.0318(2) 0.18907(16) 0.03196(11)
H2 H 0.0285 0.1555 0.0513
C3 C 0.02560(19) 0.29163(16) 0.02041(11)
H3 H 0.0179 0.3303 0.0319
B2 B 0.1176(13) 0.0729(13) 0.1430(11)
H22 H 0.1149 0.0521 0.1139
H23 H 0.1000 0.0482 0.1668
H24 H 0.1595 0.0806 0.1501
N8 N 0.05640(16) 0.17788(16) 0.13748(11)
C23 C 0.0821(3) 0.1355(3) 0.1399(2)
N10 N 0.07852(14) 0.31680(15) 0.13074(10)
N2 N 0.07062(14) 0.21990(13) 0.91016(8)
N3 N 0.19339(14) 0.07792(14) 0.88260(10)
N4 N 0.18320(15) 0.42148(14) 0.86926(10)
N5 N 0.06820(14) 0.27403(14) 0.83804(9)
N6 N 0.01981(15) 0.26362(16) 0.69739(9)
C1 C 0.0476(2) 0.17973(15) 0.98650(11)
H1 H 0.0542 0.1405 0.9757
C4 C 0.04123(19) 0.28631(16) 0.97435(11)
H4 H 0.0433 0.3205 0.9555
C5 C 0.05375(15) 0.22908(15) 0.95671(10)
C6 C 0.11121(15) 0.17308(15) 0.89954(10)
C7 C 0.10533(17) 0.13571(18) 0.86093(12)
H5 H 0.0741 0.1423 0.8398
C8 C 0.14608(19) 0.08884(18) 0.85414(12)
H6 H 0.1406 0.0636 0.8287
C9 C 0.19981(18) 0.11557(18) 0.91874(13)
H7 H 0.2328 0.1096 0.9384
C10 C 0.16076(19) 0.16212(18) 0.92837(12)
H8 H 0.1672 0.1865 0.9541
C11 C 0.03187(15) 0.24568(16) 0.87435(11)
H9 H 0.0051 0.2758 0.8879
H10 H 0.0069 0.2139 0.8610
C12 C 0.1654(2) 0.3145(2) 0.8653(3)
H11 H 0.1809 0.2754 0.8689
C13 C 0.2014(2) 0.3652(2) 0.8744(3)
H12 H 0.2409 0.3586 0.8847
C14 C 0.1257(2) 0.4288(2) 0.8572(3)
H13 H 0.1105 0.4682 0.8560
C15 C 0.0869(2) 0.3817(2) 0.8464(3)
H14 H 0.0477 0.3897 0.8362
C16 C 0.10676(16) 0.32344(16) 0.85091(10)
C17 C 0.05100(15) 0.27074(15) 0.79212(9)
C18 C 0.0877(2) 0.2955(3) 0.75770(13)
H15 H 0.1235 0.3155 0.7654
C19 C 0.0704(2) 0.2900(3) 0.71188(12)
H16 H 0.0963 0.3060 0.6896
Fe4 Fe 0.24576(2) 0.49990(2) 0.87608(2)
Fe2 Fe 0.25424(2) 0.99990(2) 0.87608(2)
B1 B 0.8867(14) 0.4359(12) 0.1002(11)
H19 H 0.8629 0.4389 0.0725
H20 H 0.9182 0.4660 0.0996
H21 H 0.8610 0.4426 0.1265
N7 N 0.94340(16) 0.32907(15) 0.10744(11)
C22 C 0.9159(3) 0.3708(3) 0.1034(2)
N9 N 0.92208(14) 0.19339(14) 0.11740(10)
N11 N 0.98019(15) 0.26362(16) 0.19739(9)
C20 C 0.9845(2) 0.2408(2) 0.73028(13)
H17 H 0.9487 0.2219 0.7212
C21 C 0.9973(2) 0.2431(3) 0.77695(13)
H18 H 0.9704 0.2264 0.7982
Fe3 Fe 0.99990(2) 0.25424(2) 0.62392(2)
B1_2 B 0.1133(14) 0.5641(12) 0.1002(11)
H19_2 H 0.1371 0.5611 0.0725
H20_2 H 0.0818 0.5340 0.0996
H21_2 H 0.1390 0.5574 0.1265
N7_2 N 0.05660(16) 0.67093(15) 0.10744(11)
C22_2 C 0.0841(3) 0.6292(3) 0.1034(2)
N9_2 N 0.07792(14) 0.80661(14) 0.11740(10)
N11_2 N 0.01981(15) 0.73638(16) 0.19739(9)
C20_2 C 0.0155(2) 0.7592(2) 0.73028(13)
H17_2 H 0.0513 0.7781 0.7212
C21_2 C 0.0027(2) 0.7569(3) 0.77695(13)
H18_2 H 0.0296 0.7736 0.7982
Fe3_2 Fe 0.00010(2) 0.74576(2) 0.62392(2)
Fe2_2 Fe 0.74576(2) 0.00010(2) 0.87608(2)
Fe1_2 Fe 0.99990(2) 0.74576(2) 0.12392(2)
N1_2 N 0.97918(16) 0.75532(13) 0.04963(9)
C2_2 C 0.9682(2) 0.81093(16) 0.03196(11)
H2_2 H 0.9715 0.8445 0.0513
C3_2 C 0.97440(19) 0.70837(16) 0.02041(11)
H3_2 H 0.9821 0.6697 0.0319
B2_2 B 0.8824(13) 0.9271(13) 0.1430(11)
H22_2 H 0.8851 0.9479 0.1139
H23_2 H 0.9000 0.9518 0.1668
H24_2 H 0.8405 0.9194 0.1501
N8_2 N 0.94360(16) 0.82212(16) 0.13748(11)
C23_2 C 0.9179(3) 0.8645(3) 0.1399(2)
N10_2 N 0.92148(14) 0.68320(15) 0.13074(10)
N2_2 N 0.92938(14) 0.78010(13) 0.91016(8)
N3_2 N 0.80661(14) 0.92208(14) 0.88260(10)
N4_2 N 0.81680(15) 0.57852(14) 0.86926(10)
N5_2 N 0.93180(14) 0.72597(14) 0.83804(9)
N6_2 N 0.98019(15) 0.73638(16) 0.69739(9)
C1_2 C 0.9524(2) 0.82027(15) 0.98650(11)
H1_2 H 0.9458 0.8595 0.9757
C4_2 C 0.95877(19) 0.71369(16) 0.97435(11)
H4_2 H 0.9567 0.6795 0.9555
C5_2 C 0.94625(15) 0.77092(15) 0.95671(10)
C6_2 C 0.88879(15) 0.82692(15) 0.89954(10)
C7_2 C 0.89467(17) 0.86429(18) 0.86093(12)
H5_2 H 0.9259 0.8577 0.8398
C8_2 C 0.85392(19) 0.91116(18) 0.85414(12)
H6_2 H 0.8594 0.9364 0.8287
C9_2 C 0.80019(18) 0.88443(18) 0.91874(13)
H7_2 H 0.7672 0.8904 0.9384
C10_2 C 0.83924(19) 0.83788(18) 0.92837(12)
H8_2 H 0.8328 0.8135 0.9541
C11_2 C 0.96813(15) 0.75432(16) 0.87435(11)
H9_2 H 0.9949 0.7242 0.8879
H10_2 H 0.9931 0.7861 0.8610
C12_2 C 0.8346(2) 0.6855(2) 0.8653(3)
H11_2 H 0.8191 0.7246 0.8689
C13_2 C 0.7986(2) 0.6348(2) 0.8744(3)
H12_2 H 0.7591 0.6414 0.8847
C14_2 C 0.8743(2) 0.5712(2) 0.8572(3)
H13_2 H 0.8895 0.5318 0.8560
C15_2 C 0.9131(2) 0.6183(2) 0.8464(3)
H14_2 H 0.9523 0.6103 0.8362
C16_2 C 0.89324(16) 0.67656(16) 0.85091(10)
C17_2 C 0.94900(15) 0.72926(15) 0.79212(9)
C18_2 C 0.9123(2) 0.7045(3) 0.75770(13)
H15_2 H 0.8765 0.6845 0.7654
C19_2 C 0.9296(2) 0.7100(3) 0.71188(12)
H16_2 H 0.9037 0.6940 0.6896
Fe4_2 Fe 0.75424(2) 0.50010(2) 0.87608(2)
C20_3 C 0.2408(2) 0.0155(2) 0.26972(13)
H17_3 H 0.2219 0.0513 0.2788
C21_3 C 0.2431(3) 0.0027(2) 0.22305(13)
H18_3 H 0.2264 0.0296 0.2018
Fe3_3 Fe 0.25424(2) 0.00010(2) 0.37608(2)
B1_3 B 0.4359(12) 0.1133(14) 0.8998(11)
H19_3 H 0.4389 0.1371 0.9275
H20_3 H 0.4660 0.0818 0.9004
H21_3 H 0.4426 0.1390 0.8735
N7_3 N 0.32907(15) 0.05660(16) 0.89256(11)
C22_3 C 0.3708(3) 0.0841(3) 0.8966(2)
N11_3 N 0.26362(16) 0.01981(15) 0.80261(9)
N2_3 N 0.21990(13) 0.92938(14) 0.08984(8)
N4_3 N 0.42148(14) 0.81680(15) 0.13074(10)
N5_3 N 0.27403(14) 0.93180(14) 0.16196(9)
N6_3 N 0.26362(16) 0.98019(15) 0.30261(9)
C1_3 C 0.17973(15) 0.9524(2) 0.01350(11)
H1_3 H 0.1405 0.9458 0.0243
C4_3 C 0.28631(16) 0.95877(19) 0.02565(11)
H4_3 H 0.3205 0.9567 0.0445
C5_3 C 0.22908(15) 0.94625(15) 0.04329(10)
C6_3 C 0.17308(15) 0.88879(15) 0.10046(10)
C7_3 C 0.13571(18) 0.89467(17) 0.13907(12)
H5_3 H 0.1423 0.9259 0.1602
C8_3 C 0.08884(18) 0.85392(19) 0.14586(12)
H6_3 H 0.0636 0.8594 0.1713
C9_3 C 0.11557(18) 0.80019(18) 0.08126(13)
H7_3 H 0.1096 0.7672 0.0616
C10_3 C 0.16212(18) 0.83924(19) 0.07163(12)
H8_3 H 0.1865 0.8328 0.0459
C11_3 C 0.24568(16) 0.96813(15) 0.12565(11)
H9_3 H 0.2758 0.9949 0.1121
H10_3 H 0.2139 0.9931 0.1390
C12_3 C 0.3145(2) 0.8346(2) 0.1347(3)
H11_3 H 0.2754 0.8191 0.1311
C13_3 C 0.3652(2) 0.7986(2) 0.1256(3)
H12_3 H 0.3586 0.7591 0.1153
C14_3 C 0.4288(2) 0.8743(2) 0.1428(3)
H13_3 H 0.4682 0.8895 0.1440
C15_3 C 0.3817(2) 0.9131(2) 0.1536(3)
H14_3 H 0.3897 0.9523 0.1638
C16_3 C 0.32344(16) 0.89324(16) 0.14909(10)
C17_3 C 0.27074(15) 0.94900(15) 0.20788(9)
C18_3 C 0.2955(3) 0.9123(2) 0.24230(13)
H15_3 H 0.3155 0.8765 0.2346
C19_3 C 0.2900(3) 0.9296(2) 0.28812(12)
H16_3 H 0.3060 0.9037 0.3104
Fe4_3 Fe 0.49990(2) 0.75424(2) 0.12392(2)
N1_3 N 0.24468(13) 0.97918(16) 0.95037(9)
C2_3 C 0.18907(16) 0.9682(2) 0.96804(11)
H2_3 H 0.1555 0.9715 0.9487
C3_3 C 0.29163(16) 0.97440(19) 0.97959(11)
H3_3 H 0.3303 0.9821 0.9681
B2_3 B 0.0729(13) 0.8824(13) 0.8570(11)
H22_3 H 0.0521 0.8851 0.8861
H23_3 H 0.0482 0.9000 0.8332
H24_3 H 0.0806 0.8405 0.8499
N8_3 N 0.17788(16) 0.94360(16) 0.86252(11)
C23_3 C 0.1355(3) 0.9179(3) 0.8601(2)
N10_3 N 0.31680(15) 0.92148(14) 0.86926(10)
N2_4 N 0.78010(13) 0.07062(14) 0.08984(8)
N4_4 N 0.57852(14) 0.18320(15) 0.13074(10)
N5_4 N 0.72597(14) 0.06820(14) 0.16196(9)
N6_4 N 0.73638(16) 0.01981(15) 0.30261(9)
C1_4 C 0.82027(15) 0.0476(2) 0.01350(11)
H1_4 H 0.8595 0.0542 0.0243
C4_4 C 0.71369(16) 0.04123(19) 0.02565(11)
H4_4 H 0.6795 0.0433 0.0445
C5_4 C 0.77092(15) 0.05375(15) 0.04329(10)
C6_4 C 0.82692(15) 0.11121(15) 0.10046(10)
C7_4 C 0.86429(18) 0.10533(17) 0.13907(12)
H5_4 H 0.8577 0.0741 0.1602
C8_4 C 0.91116(18) 0.14608(19) 0.14586(12)
H6_4 H 0.9364 0.1406 0.1713
C9_4 C 0.88443(18) 0.19981(18) 0.08126(13)
H7_4 H 0.8904 0.2328 0.0616
C10_4 C 0.83788(18) 0.16076(19) 0.07163(12)
H8_4 H 0.8135 0.1672 0.0459
C11_4 C 0.75432(16) 0.03187(15) 0.12565(11)
H9_4 H 0.7242 0.0051 0.1121
H10_4 H 0.7861 0.0069 0.1390
C12_4 C 0.6855(2) 0.1654(2) 0.1347(3)
H11_4 H 0.7246 0.1809 0.1311
C13_4 C 0.6348(2) 0.2014(2) 0.1256(3)
H12_4 H 0.6414 0.2409 0.1153
C14_4 C 0.5712(2) 0.1257(2) 0.1428(3)
H13_4 H 0.5318 0.1105 0.1440
C15_4 C 0.6183(2) 0.0869(2) 0.1536(3)
H14_4 H 0.6103 0.0477 0.1638
C16_4 C 0.67656(16) 0.10676(16) 0.14909(10)
C17_4 C 0.72926(15) 0.05100(15) 0.20788(9)
C18_4 C 0.7045(3) 0.0877(2) 0.24230(13)
H15_4 H 0.6845 0.1235 0.2346
C19_4 C 0.7100(3) 0.0704(2) 0.28812(12)
H16_4 H 0.6940 0.0963 0.3104
Fe4_4 Fe 0.50010(2) 0.24576(2) 0.12392(2)
N1_4 N 0.75532(13) 0.02082(16) 0.95037(9)
C2_4 C 0.81093(16) 0.0318(2) 0.96804(11)
H2_4 H 0.8445 0.0285 0.9487
C3_4 C 0.70837(16) 0.02560(19) 0.97959(11)
H3_4 H 0.6697 0.0179 0.9681
B2_4 B 0.9271(13) 0.1176(13) 0.8570(11)
H22_4 H 0.9479 0.1149 0.8861
H23_4 H 0.9518 0.1000 0.8332
H24_4 H 0.9194 0.1595 0.8499
N8_4 N 0.82212(16) 0.05640(16) 0.86252(11)
C23_4 C 0.8645(3) 0.0821(3) 0.8601(2)
N10_4 N 0.68320(15) 0.07852(14) 0.86926(10)
C20_4 C 0.7592(2) 0.9845(2) 0.26972(13)
H17_4 H 0.7781 0.9487 0.2788
C21_4 C 0.7569(3) 0.9973(2) 0.22305(13)
H18_4 H 0.7736 0.9704 0.2018
Fe3_4 Fe 0.74576(2) 0.99990(2) 0.37608(2)
B1_4 B 0.5641(12) 0.8867(14) 0.8998(11)
H19_4 H 0.5611 0.8629 0.9275
H20_4 H 0.5340 0.9182 0.9004
H21_4 H 0.5574 0.8610 0.8735
N7_4 N 0.67093(15) 0.94340(16) 0.89256(11)
C22_4 C 0.6292(3) 0.9159(3) 0.8966(2)
N11_4 N 0.73638(16) 0.98019(15) 0.80261(9)
N1_5 N 0.02082(16) 0.75532(13) 0.54963(9)
N2_5 N 0.07062(14) 0.78010(13) 0.41016(8)
N3_3 N 0.19339(14) 0.92208(14) 0.38260(10)
N4_5 N 0.18320(15) 0.57852(14) 0.36926(10)
N5_5 N 0.06820(14) 0.72597(14) 0.33804(9)
C1_5 C 0.0476(2) 0.82027(15) 0.48650(11)
H1_5 H 0.0542 0.8595 0.4757
C2_5 C 0.0318(2) 0.81093(16) 0.53196(11)
H2_5 H 0.0285 0.8445 0.5513
C3_5 C 0.02560(19) 0.70837(16) 0.52041(11)
H3_5 H 0.0179 0.6697 0.5319
C4_5 C 0.04123(19) 0.71369(16) 0.47435(11)
H4_5 H 0.0433 0.6795 0.4555
C5_5 C 0.05375(15) 0.77092(15) 0.45671(10)
C6_5 C 0.11121(15) 0.82692(15) 0.39954(10)
C7_5 C 0.10533(17) 0.86429(18) 0.36093(12)
H5_5 H 0.0741 0.8577 0.3398
C8_5 C 0.14608(19) 0.91116(18) 0.35414(12)
H6_5 H 0.1406 0.9364 0.3287
C9_5 C 0.19981(18) 0.88443(18) 0.41874(13)
H7_5 H 0.2328 0.8904 0.4384
C10_5 C 0.16076(19) 0.83788(18) 0.42837(12)
H8_5 H 0.1672 0.8135 0.4541
C11_5 C 0.03187(15) 0.75432(16) 0.37435(11)
H9_5 H 0.0051 0.7242 0.3879
H10_5 H 0.0069 0.7861 0.3610
C12_5 C 0.1654(2) 0.6855(2) 0.3653(3)
H11_5 H 0.1809 0.7246 0.3689
C13_5 C 0.2014(2) 0.6348(2) 0.3744(3)
H12_5 H 0.2409 0.6414 0.3847
C14_5 C 0.1257(2) 0.5712(2) 0.3572(3)
H13_5 H 0.1105 0.5318 0.3560
C15_5 C 0.0869(2) 0.6183(2) 0.3464(3)
H14_5 H 0.0477 0.6103 0.3362
C16_5 C 0.10676(16) 0.67656(16) 0.35091(10)
C17_5 C 0.05100(15) 0.72926(15) 0.29212(9)
C18_5 C 0.0877(2) 0.7045(3) 0.25770(13)
H15_5 H 0.1235 0.6845 0.2654
C19_5 C 0.0704(2) 0.7100(3) 0.21188(12)
H16_5 H 0.0963 0.6940 0.1896
B2_5 B 0.1176(13) 0.9271(13) 0.6430(11)
H22_5 H 0.1149 0.9479 0.6139
H23_5 H 0.1000 0.9518 0.6668
H24_5 H 0.1595 0.9194 0.6501
N8_5 N 0.05640(16) 0.82212(16) 0.63748(11)
C23_5 C 0.0821(3) 0.8645(3) 0.6399(2)
Fe4_5 Fe 0.24576(2) 0.50010(2) 0.37608(2)
N10_5 N 0.07852(14) 0.68320(15) 0.63074(10)
C20_5 C 0.9845(2) 0.7592(2) 0.23028(13)
H17_5 H 0.9487 0.7781 0.2212
C21_5 C 0.9973(2) 0.7569(3) 0.27695(13)
H18_5 H 0.9704 0.7736 0.2982
B1_5 B 0.8867(14) 0.5641(12) 0.6002(11)
H19_5 H 0.8629 0.5611 0.5725
H20_5 H 0.9182 0.5340 0.5996
H21_5 H 0.8610 0.5574 0.6265
N7_5 N 0.94340(16) 0.67093(15) 0.60744(11)
C22_5 C 0.9159(3) 0.6292(3) 0.6034(2)
N9_3 N 0.92208(14) 0.80661(14) 0.61740(10)
C20_6 C 0.0155(2) 0.2408(2) 0.23028(13)
H17_6 H 0.0513 0.2219 0.2212
C21_6 C 0.0027(2) 0.2431(3) 0.27695(13)
H18_6 H 0.0296 0.2264 0.2982
B1_6 B 0.1133(14) 0.4359(12) 0.6002(11)
H19_6 H 0.1371 0.4389 0.5725
H20_6 H 0.0818 0.4660 0.5996
H21_6 H 0.1390 0.4426 0.6265
N7_6 N 0.05660(16) 0.32907(15) 0.60744(11)
C22_6 C 0.0841(3) 0.3708(3) 0.6034(2)
N9_4 N 0.07792(14) 0.19339(14) 0.61740(10)
N1_6 N 0.97918(16) 0.24468(13) 0.54963(9)
N2_6 N 0.92938(14) 0.21990(13) 0.41016(8)
N3_4 N 0.80661(14) 0.07792(14) 0.38260(10)
N4_6 N 0.81680(15) 0.42148(14) 0.36926(10)
N5_6 N 0.93180(14) 0.27403(14) 0.33804(9)
C1_6 C 0.9524(2) 0.17973(15) 0.48650(11)
H1_6 H 0.9458 0.1405 0.4757
C2_6 C 0.9682(2) 0.18907(16) 0.53196(11)
H2_6 H 0.9715 0.1555 0.5513
C3_6 C 0.97440(19) 0.29163(16) 0.52041(11)
H3_6 H 0.9821 0.3303 0.5319
C4_6 C 0.95877(19) 0.28631(16) 0.47435(11)
H4_6 H 0.9567 0.3205 0.4555
C5_6 C 0.94625(15) 0.22908(15) 0.45671(10)
C6_6 C 0.88879(15) 0.17308(15) 0.39954(10)
C7_6 C 0.89467(17) 0.13571(18) 0.36093(12)
H5_6 H 0.9259 0.1423 0.3398
C8_6 C 0.85392(19) 0.08884(18) 0.35414(12)
H6_6 H 0.8594 0.0636 0.3287
C9_6 C 0.80019(18) 0.11557(18) 0.41874(13)
H7_6 H 0.7672 0.1096 0.4384
C10_6 C 0.83924(19) 0.16212(18) 0.42837(12)
H8_6 H 0.8328 0.1865 0.4541
C11_6 C 0.96813(15) 0.24568(16) 0.37435(11)
H9_6 H 0.9949 0.2758 0.3879
H10_6 H 0.9931 0.2139 0.3610
C12_6 C 0.8346(2) 0.3145(2) 0.3653(3)
H11_6 H 0.8191 0.2754 0.3689
C13_6 C 0.7986(2) 0.3652(2) 0.3744(3)
H12_6 H 0.7591 0.3586 0.3847
C14_6 C 0.8743(2) 0.4288(2) 0.3572(3)
H13_6 H 0.8895 0.4682 0.3560
C15_6 C 0.9131(2) 0.3817(2) 0.3464(3)
H14_6 H 0.9523 0.3897 0.3362
C16_6 C 0.89324(16) 0.32344(16) 0.35091(10)
C17_6 C 0.94900(15) 0.27074(15) 0.29212(9)
C18_6 C 0.9123(2) 0.2955(3) 0.25770(13)
H15_6 H 0.8765 0.3155 0.2654
C19_6 C 0.9296(2) 0.2900(3) 0.21188(12)
H16_6 H 0.9037 0.3060 0.1896
B2_6 B 0.8824(13) 0.0729(13) 0.6430(11)
H22_6 H 0.8851 0.0521 0.6139
H23_6 H 0.9000 0.0482 0.6668
H24_6 H 0.8405 0.0806 0.6501
N8_6 N 0.94360(16) 0.17788(16) 0.63748(11)
C23_6 C 0.9179(3) 0.1355(3) 0.6399(2)
Fe4_6 Fe 0.75424(2) 0.49990(2) 0.37608(2)
N10_6 N 0.92148(14) 0.31680(15) 0.63074(10)
N1_7 N 0.24468(13) 0.02082(16) 0.45037(9)
N2_7 N 0.21990(13) 0.07062(14) 0.58984(8)
N4_7 N 0.42148(14) 0.18320(15) 0.63074(10)
N5_7 N 0.27403(14) 0.06820(14) 0.66196(9)
C1_7 C 0.17973(15) 0.0476(2) 0.51350(11)
H1_7 H 0.1405 0.0542 0.5243
C2_7 C 0.18907(16) 0.0318(2) 0.46804(11)
H2_7 H 0.1555 0.0285 0.4487
C3_7 C 0.29163(16) 0.02560(19) 0.47959(11)
H3_7 H 0.3303 0.0179 0.4681
C4_7 C 0.28631(16) 0.04123(19) 0.52565(11)
H4_7 H 0.3205 0.0433 0.5445
C5_7 C 0.22908(15) 0.05375(15) 0.54329(10)
C6_7 C 0.17308(15) 0.11121(15) 0.60046(10)
C7_7 C 0.13571(18) 0.10533(17) 0.63907(12)
H5_7 H 0.1423 0.0741 0.6602
C8_7 C 0.08884(18) 0.14608(19) 0.64586(12)
H6_7 H 0.0636 0.1406 0.6713
C9_7 C 0.11557(18) 0.19981(18) 0.58126(13)
H7_7 H 0.1096 0.2328 0.5616
C10_7 C 0.16212(18) 0.16076(19) 0.57163(12)
H8_7 H 0.1865 0.1672 0.5459
C11_7 C 0.24568(16) 0.03187(15) 0.62565(11)
H9_7 H 0.2758 0.0051 0.6121
H10_7 H 0.2139 0.0069 0.6390
C12_7 C 0.3145(2) 0.1654(2) 0.6347(3)
H11_7 H 0.2754 0.1809 0.6311
C13_7 C 0.3652(2) 0.2014(2) 0.6256(3)
H12_7 H 0.3586 0.2409 0.6153
C14_7 C 0.4288(2) 0.1257(2) 0.6428(3)
H13_7 H 0.4682 0.1105 0.6440
C15_7 C 0.3817(2) 0.0869(2) 0.6536(3)
H14_7 H 0.3897 0.0477 0.6638
C16_7 C 0.32344(16) 0.10676(16) 0.64909(10)
C17_7 C 0.27074(15) 0.05100(15) 0.70788(9)
C18_7 C 0.2955(3) 0.0877(2) 0.74230(13)
H15_7 H 0.3155 0.1235 0.7346
C19_7 C 0.2900(3) 0.0704(2) 0.78812(12)
H16_7 H 0.3060 0.0963 0.8104
B2_7 B 0.0729(13) 0.1176(13) 0.3570(11)
H22_7 H 0.0521 0.1149 0.3861
H23_7 H 0.0482 0.1000 0.3332
H24_7 H 0.0806 0.1595 0.3499
N8_7 N 0.17788(16) 0.05640(16) 0.36252(11)
C23_7 C 0.1355(3) 0.0821(3) 0.3601(2)
Fe4_7 Fe 0.49990(2) 0.24576(2) 0.62392(2)
N10_7 N 0.31680(15) 0.07852(14) 0.36926(10)
C20_7 C 0.2408(2) 0.9845(2) 0.76972(13)
H17_7 H 0.2219 0.9487 0.7788
C21_7 C 0.2431(3) 0.9973(2) 0.72305(13)
H18_7 H 0.2264 0.9704 0.7018
B1_7 B 0.4359(12) 0.8867(14) 0.3998(11)
H19_7 H 0.4389 0.8629 0.4275
H20_7 H 0.4660 0.9182 0.4004
H21_7 H 0.4426 0.8610 0.3735
N7_7 N 0.32907(15) 0.94340(16) 0.39256(11)
C22_7 C 0.3708(3) 0.9159(3) 0.3966(2)
C20_8 C 0.7592(2) 0.0155(2) 0.76972(13)
H17_8 H 0.7781 0.0513 0.7788
C21_8 C 0.7569(3) 0.0027(2) 0.72305(13)
H18_8 H 0.7736 0.0296 0.7018
B1_8 B 0.5641(12) 0.1133(14) 0.3998(11)
H19_8 H 0.5611 0.1371 0.4275
H20_8 H 0.5340 0.0818 0.4004
H21_8 H 0.5574 0.1390 0.3735
N7_8 N 0.67093(15) 0.05660(16) 0.39256(11)
C22_8 C 0.6292(3) 0.0841(3) 0.3966(2)
N1_8 N 0.75532(13) 0.97918(16) 0.45037(9)
N2_8 N 0.78010(13) 0.92938(14) 0.58984(8)
N4_8 N 0.57852(14) 0.81680(15) 0.63074(10)
N5_8 N 0.72597(14) 0.93180(14) 0.66196(9)
C1_8 C 0.82027(15) 0.9524(2) 0.51350(11)
H1_8 H 0.8595 0.9458 0.5243
C2_8 C 0.81093(16) 0.9682(2) 0.46804(11)
H2_8 H 0.8445 0.9715 0.4487
C3_8 C 0.70837(16) 0.97440(19) 0.47959(11)
H3_8 H 0.6697 0.9821 0.4681
C4_8 C 0.71369(16) 0.95877(19) 0.52565(11)
H4_8 H 0.6795 0.9567 0.5445
C5_8 C 0.77092(15) 0.94625(15) 0.54329(10)
C6_8 C 0.82692(15) 0.88879(15) 0.60046(10)
C7_8 C 0.86429(18) 0.89467(17) 0.63907(12)
H5_8 H 0.8577 0.9259 0.6602
C8_8 C 0.91116(18) 0.85392(19) 0.64586(12)
H6_8 H 0.9364 0.8594 0.6713
C9_8 C 0.88443(18) 0.80019(18) 0.58126(13)
H7_8 H 0.8904 0.7672 0.5616
C10_8 C 0.83788(18) 0.83924(19) 0.57163(12)
H8_8 H 0.8135 0.8328 0.5459
C11_8 C 0.75432(16) 0.96813(15) 0.62565(11)
H9_8 H 0.7242 0.9949 0.6121
H10_8 H 0.7861 0.9931 0.6390
C12_8 C 0.6855(2) 0.8346(2) 0.6347(3)
H11_8 H 0.7246 0.8191 0.6311
C13_8 C 0.6348(2) 0.7986(2) 0.6256(3)
H12_8 H 0.6414 0.7591 0.6153
C14_8 C 0.5712(2) 0.8743(2) 0.6428(3)
H13_8 H 0.5318 0.8895 0.6440
C15_8 C 0.6183(2) 0.9131(2) 0.6536(3)
H14_8 H 0.6103 0.9523 0.6638
C16_8 C 0.67656(16) 0.89324(16) 0.64909(10)
C17_8 C 0.72926(15) 0.94900(15) 0.70788(9)
C18_8 C 0.7045(3) 0.9123(2) 0.74230(13)
H15_8 H 0.6845 0.8765 0.7346
C19_8 C 0.7100(3) 0.9296(2) 0.78812(12)
H16_8 H 0.6940 0.9037 0.8104
B2_8 B 0.9271(13) 0.8824(13) 0.3570(11)
H22_8 H 0.9479 0.8851 0.3861
H23_8 H 0.9518 0.9000 0.3332
H24_8 H 0.9194 0.8405 0.3499
N8_8 N 0.82212(16) 0.94360(16) 0.36252(11)
C23_8 C 0.8645(3) 0.9179(3) 0.3601(2)
Fe4_8 Fe 0.50010(2) 0.75424(2) 0.62392(2)
N10_8 N 0.68320(15) 0.92148(14) 0.36926(10)
N1_9 N 0.52082(16) 0.74468(13) 0.54963(9)
N2_9 N 0.57062(14) 0.71990(13) 0.41016(8)
N3_5 N 0.69339(14) 0.57792(14) 0.38260(10)
N5_9 N 0.56820(14) 0.77403(14) 0.33804(9)
N6_5 N 0.51981(15) 0.76362(16) 0.19739(9)
C1_9 C 0.5476(2) 0.67973(15) 0.48650(11)
H1_9 H 0.5542 0.6405 0.4757
C2_9 C 0.5318(2) 0.68907(16) 0.53196(11)
H2_9 H 0.5285 0.6555 0.5513
C3_9 C 0.52560(19) 0.79163(16) 0.52041(11)
H3_9 H 0.5179 0.8303 0.5319
C4_9 C 0.54123(19) 0.78631(16) 0.47435(11)
H4_9 H 0.5433 0.8205 0.4555
C5_9 C 0.55375(15) 0.72908(15) 0.45671(10)
C6_9 C 0.61121(15) 0.67308(15) 0.39954(10)
C7_9 C 0.60533(17) 0.63571(18) 0.36093(12)
H5_9 H 0.5741 0.6423 0.3398
C8_9 C 0.64608(19) 0.58884(18) 0.35414(12)
H6_9 H 0.6406 0.5636 0.3287
C9_9 C 0.69981(18) 0.61557(18) 0.41874(13)
H7_9 H 0.7328 0.6096 0.4384
C10_9 C 0.66076(19) 0.66212(18) 0.42837(12)
H8_9 H 0.6672 0.6865 0.4541
C11_9 C 0.53187(15) 0.74568(16) 0.37435(11)
H9_9 H 0.5051 0.7758 0.3879
H10_9 H 0.5069 0.7139 0.3610
C12_9 C 0.6654(2) 0.8145(2) 0.3653(3)
H11_9 H 0.6809 0.7754 0.3689
C13_9 C 0.7014(2) 0.8652(2) 0.3744(3)
H12_9 H 0.7409 0.8586 0.3847
C14_9 C 0.6257(2) 0.9288(2) 0.3572(3)
H13_9 H 0.6105 0.9682 0.3560
C15_9 C 0.5869(2) 0.8817(2) 0.3464(3)
H14_9 H 0.5477 0.8897 0.3362
C16_9 C 0.60676(16) 0.82344(16) 0.35091(10)
C17_9 C 0.55100(15) 0.77074(15) 0.29212(9)
C18_9 C 0.5877(2) 0.7955(3) 0.25770(13)
H15_9 H 0.6235 0.8155 0.2654
C19_9 C 0.5704(2) 0.7900(3) 0.21188(12)
H16_9 H 0.5963 0.8060 0.1896
C20_9 C 0.4845(2) 0.7408(2) 0.23028(13)
H17_9 H 0.4487 0.7219 0.2212
C21_9 C 0.4973(2) 0.7431(3) 0.27695(13)
H18_9 H 0.4704 0.7264 0.2982
B1_9 B 0.3867(14) 0.9359(12) 0.6002(11)
H19_9 H 0.3629 0.9389 0.5725
H20_9 H 0.4182 0.9660 0.5996
H21_9 H 0.3610 0.9426 0.6265
B2_9 B 0.6176(13) 0.5729(13) 0.6430(11)
H22_9 H 0.6149 0.5521 0.6139
H23_9 H 0.6000 0.5482 0.6668
H24_9 H 0.6595 0.5806 0.6501
N7_9 N 0.44340(16) 0.82907(15) 0.60744(11)
N8_9 N 0.55640(16) 0.67788(16) 0.63748(11)
C22_9 C 0.4159(3) 0.8708(3) 0.6034(2)
C23_9 C 0.5821(3) 0.6355(3) 0.6399(2)
N9_5 N 0.42208(14) 0.69339(14) 0.61740(10)
N11_5 N 0.48019(15) 0.76362(16) 0.69739(9)
N1_10 N 0.47918(16) 0.25532(13) 0.54963(9)
N2_10 N 0.42938(14) 0.28010(13) 0.41016(8)
N3_6 N 0.30661(14) 0.42208(14) 0.38260(10)
N5_10 N 0.43180(14) 0.22597(14) 0.33804(9)
N6_6 N 0.48019(15) 0.23638(16) 0.19739(9)
C1_10 C 0.4524(2) 0.32027(15) 0.48650(11)
H1_10 H 0.4458 0.3595 0.4757
C2_10 C 0.4682(2) 0.31093(16) 0.53196(11)
H2_10 H 0.4715 0.3445 0.5513
C3_10 C 0.47440(19) 0.20837(16) 0.52041(11)
H3_10 H 0.4821 0.1697 0.5319
C4_10 C 0.45877(19) 0.21369(16) 0.47435(11)
H4_10 H 0.4567 0.1795 0.4555
C5_10 C 0.44625(15) 0.27092(15) 0.45671(10)
C6_10 C 0.38879(15) 0.32692(15) 0.39954(10)
C7_10 C 0.39467(17) 0.36429(18) 0.36093(12)
H5_10 H 0.4259 0.3577 0.3398
C8_10 C 0.35392(19) 0.41116(18) 0.35414(12)
H6_10 H 0.3594 0.4364 0.3287
C9_10 C 0.30019(18) 0.38443(18) 0.41874(13)
H7_10 H 0.2672 0.3904 0.4384
C10_10 C 0.33924(19) 0.33788(18) 0.42837(12)
H8_10 H 0.3328 0.3135 0.4541
C11_10 C 0.46813(15) 0.25432(16) 0.37435(11)
H9_10 H 0.4949 0.2242 0.3879
H10_10 H 0.4931 0.2861 0.3610
C12_10 C 0.3346(2) 0.1855(2) 0.3653(3)
H11_10 H 0.3191 0.2246 0.3689
C13_10 C 0.2986(2) 0.1348(2) 0.3744(3)
H12_10 H 0.2591 0.1414 0.3847
C14_10 C 0.3743(2) 0.0712(2) 0.3572(3)
H13_10 H 0.3895 0.0318 0.3560
C15_10 C 0.4131(2) 0.1183(2) 0.3464(3)
H14_10 H 0.4523 0.1103 0.3362
C16_10 C 0.39324(16) 0.17656(16) 0.35091(10)
C17_10 C 0.44900(15) 0.22926(15) 0.29212(9)
C18_10 C 0.4123(2) 0.2045(3) 0.25770(13)
H15_10 H 0.3765 0.1845 0.2654
C19_10 C 0.4296(2) 0.2100(3) 0.21188(12)
H16_10 H 0.4037 0.1940 0.1896
C20_10 C 0.5155(2) 0.2592(2) 0.23028(13)
H17_10 H 0.5513 0.2781 0.2212
C21_10 C 0.5027(2) 0.2569(3) 0.27695(13)
H18_10 H 0.5296 0.2736 0.2982
B1_10 B 0.6133(14) 0.0641(12) 0.6002(11)
H19_10 H 0.6371 0.0611 0.5725
H20_10 H 0.5818 0.0340 0.5996
H21_10 H 0.6390 0.0574 0.6265
B2_10 B 0.3824(13) 0.4271(13) 0.6430(11)
H22_10 H 0.3851 0.4479 0.6139
H23_10 H 0.4000 0.4518 0.6668
H24_10 H 0.3405 0.4194 0.6501
N7_10 N 0.55660(16) 0.17093(15) 0.60744(11)
N8_10 N 0.44360(16) 0.32212(16) 0.63748(11)
C22_10 C 0.5841(3) 0.1292(3) 0.6034(2)
C23_10 C 0.4179(3) 0.3645(3) 0.6399(2)
N9_6 N 0.57792(14) 0.30661(14) 0.61740(10)
N11_6 N 0.51981(15) 0.23638(16) 0.69739(9)
N1_11 N 0.74468(13) 0.47918(16) 0.45037(9)
N2_11 N 0.71990(13) 0.42938(14) 0.58984(8)
N5_11 N 0.77403(14) 0.43180(14) 0.66196(9)
N6_7 N 0.76362(16) 0.48019(15) 0.80261(9)
C1_11 C 0.67973(15) 0.4524(2) 0.51350(11)
H1_11 H 0.6405 0.4458 0.5243
C2_11 C 0.68907(16) 0.4682(2) 0.46804(11)
H2_11 H 0.6555 0.4715 0.4487
C3_11 C 0.79163(16) 0.47440(19) 0.47959(11)
H3_11 H 0.8303 0.4821 0.4681
C4_11 C 0.78631(16) 0.45877(19) 0.52565(11)
H4_11 H 0.8205 0.4567 0.5445
C5_11 C 0.72908(15) 0.44625(15) 0.54329(10)
C6_11 C 0.67308(15) 0.38879(15) 0.60046(10)
C7_11 C 0.63571(18) 0.39467(17) 0.63907(12)
H5_11 H 0.6423 0.4259 0.6602
C8_11 C 0.58884(18) 0.35392(19) 0.64586(12)
H6_11 H 0.5636 0.3594 0.6713
C9_11 C 0.61557(18) 0.30019(18) 0.58126(13)
H7_11 H 0.6096 0.2672 0.5616
C10_11 C 0.66212(18) 0.33924(19) 0.57163(12)
H8_11 H 0.6865 0.3328 0.5459
C11_11 C 0.74568(16) 0.46813(15) 0.62565(11)
H9_11 H 0.7758 0.4949 0.6121
H10_11 H 0.7139 0.4931 0.6390
C12_11 C 0.8145(2) 0.3346(2) 0.6347(3)
H11_11 H 0.7754 0.3191 0.6311
C13_11 C 0.8652(2) 0.2986(2) 0.6256(3)
H12_11 H 0.8586 0.2591 0.6153
C14_11 C 0.9288(2) 0.3743(2) 0.6428(3)
H13_11 H 0.9682 0.3895 0.6440
C15_11 C 0.8817(2) 0.4131(2) 0.6536(3)
H14_11 H 0.8897 0.4523 0.6638
C16_11 C 0.82344(16) 0.39324(16) 0.64909(10)
C17_11 C 0.77074(15) 0.44900(15) 0.70788(9)
C18_11 C 0.7955(3) 0.4123(2) 0.74230(13)
H15_11 H 0.8155 0.3765 0.7346
C19_11 C 0.7900(3) 0.4296(2) 0.78812(12)
H16_11 H 0.8060 0.4037 0.8104
C20_11 C 0.7408(2) 0.5155(2) 0.76972(13)
H17_11 H 0.7219 0.5513 0.7788
C21_11 C 0.7431(3) 0.5027(2) 0.72305(13)
H18_11 H 0.7264 0.5296 0.7018
B1_11 B 0.9359(12) 0.6133(14) 0.3998(11)
H19_11 H 0.9389 0.6371 0.4275
H20_11 H 0.9660 0.5818 0.4004
H21_11 H 0.9426 0.6390 0.3735
B2_11 B 0.5729(13) 0.3824(13) 0.3570(11)
H22_11 H 0.5521 0.3851 0.3861
H23_11 H 0.5482 0.4000 0.3332
H24_11 H 0.5806 0.3405 0.3499
N7_11 N 0.82907(15) 0.55660(16) 0.39256(11)
N8_11 N 0.67788(16) 0.44360(16) 0.36252(11)
C22_11 C 0.8708(3) 0.5841(3) 0.3966(2)
C23_11 C 0.6355(3) 0.4179(3) 0.3601(2)
N11_7 N 0.76362(16) 0.51981(15) 0.30261(9)
N1_12 N 0.25532(13) 0.52082(16) 0.45037(9)
N2_12 N 0.28010(13) 0.57062(14) 0.58984(8)
N5_12 N 0.22597(14) 0.56820(14) 0.66196(9)
N6_8 N 0.23638(16) 0.51981(15) 0.80261(9)
C1_12 C 0.32027(15) 0.5476(2) 0.51350(11)
H1_12 H 0.3595 0.5542 0.5243
C2_12 C 0.31093(16) 0.5318(2) 0.46804(11)
H2_12 H 0.3445 0.5285 0.4487
C3_12 C 0.20837(16) 0.52560(19) 0.47959(11)
H3_12 H 0.1697 0.5179 0.4681
C4_12 C 0.21369(16) 0.54123(19) 0.52565(11)
H4_12 H 0.1795 0.5433 0.5445
C5_12 C 0.27092(15) 0.55375(15) 0.54329(10)
C6_12 C 0.32692(15) 0.61121(15) 0.60046(10)
C7_12 C 0.36429(18) 0.60533(17) 0.63907(12)
H5_12 H 0.3577 0.5741 0.6602
C8_12 C 0.41116(18) 0.64608(19) 0.64586(12)
H6_12 H 0.4364 0.6406 0.6713
C9_12 C 0.38443(18) 0.69981(18) 0.58126(13)
H7_12 H 0.3904 0.7328 0.5616
C10_12 C 0.33788(18) 0.66076(19) 0.57163(12)
H8_12 H 0.3135 0.6672 0.5459
C11_12 C 0.25432(16) 0.53187(15) 0.62565(11)
H9_12 H 0.2242 0.5051 0.6121
H10_12 H 0.2861 0.5069 0.6390
C12_12 C 0.1855(2) 0.6654(2) 0.6347(3)
H11_12 H 0.2246 0.6809 0.6311
C13_12 C 0.1348(2) 0.7014(2) 0.6256(3)
H12_12 H 0.1414 0.7409 0.6153
C14_12 C 0.0712(2) 0.6257(2) 0.6428(3)
H13_12 H 0.0318 0.6105 0.6440
C15_12 C 0.1183(2) 0.5869(2) 0.6536(3)
H14_12 H 0.1103 0.5477 0.6638
C16_12 C 0.17656(16) 0.60676(16) 0.64909(10)
C17_12 C 0.22926(15) 0.55100(15) 0.70788(9)
C18_12 C 0.2045(3) 0.5877(2) 0.74230(13)
H15_12 H 0.1845 0.6235 0.7346
C19_12 C 0.2100(3) 0.5704(2) 0.78812(12)
H16_12 H 0.1940 0.5963 0.8104
C20_12 C 0.2592(2) 0.4845(2) 0.76972(13)
H17_12 H 0.2781 0.4487 0.7788
C21_12 C 0.2569(3) 0.4973(2) 0.72305(13)
H18_12 H 0.2736 0.4704 0.7018
B1_12 B 0.0641(12) 0.3867(14) 0.3998(11)
H19_12 H 0.0611 0.3629 0.4275
H20_12 H 0.0340 0.4182 0.4004
H21_12 H 0.0574 0.3610 0.3735
B2_12 B 0.4271(13) 0.6176(13) 0.3570(11)
H22_12 H 0.4479 0.6149 0.3861
H23_12 H 0.4518 0.6000 0.3332
H24_12 H 0.4194 0.6595 0.3499
N7_12 N 0.17093(15) 0.44340(16) 0.39256(11)
N8_12 N 0.32212(16) 0.55640(16) 0.36252(11)
C22_12 C 0.1292(3) 0.4159(3) 0.3966(2)
C23_12 C 0.3645(3) 0.5821(3) 0.3601(2)
N11_8 N 0.23638(16) 0.48019(15) 0.30261(9)
N1_13 N 0.52082(16) 0.25532(13) 0.04963(9)
C2_13 C 0.5318(2) 0.31093(16) 0.03196(11)
H2_13 H 0.5285 0.3445 0.0513
C3_13 C 0.52560(19) 0.20837(16) 0.02041(11)
H3_13 H 0.5179 0.1697 0.0319
B1_13 B 0.3867(14) 0.0641(12) 0.1002(11)
H19_13 H 0.3629 0.0611 0.0725
H20_13 H 0.4182 0.0340 0.0996
H21_13 H 0.3610 0.0574 0.1265
B2_13 B 0.6176(13) 0.4271(13) 0.1430(11)
H22_13 H 0.6149 0.4479 0.1139
H23_13 H 0.6000 0.4518 0.1668
H24_13 H 0.6595 0.4194 0.1501
N7_13 N 0.44340(16) 0.17093(15) 0.10744(11)
N8_13 N 0.55640(16) 0.32212(16) 0.13748(11)
C22_13 C 0.4159(3) 0.1292(3) 0.1034(2)
C23_13 C 0.5821(3) 0.3645(3) 0.1399(2)
N9_7 N 0.42208(14) 0.30661(14) 0.11740(10)
N2_13 N 0.57062(14) 0.28010(13) 0.91016(8)
N3_7 N 0.69339(14) 0.42208(14) 0.88260(10)
N5_13 N 0.56820(14) 0.22597(14) 0.83804(9)
C1_13 C 0.5476(2) 0.32027(15) 0.98650(11)
H1_13 H 0.5542 0.3595 0.9757
C4_13 C 0.54123(19) 0.21369(16) 0.97435(11)
H4_13 H 0.5433 0.1795 0.9555
C5_13 C 0.55375(15) 0.27092(15) 0.95671(10)
C6_13 C 0.61121(15) 0.32692(15) 0.89954(10)
C7_13 C 0.60533(17) 0.36429(18) 0.86093(12)
H5_13 H 0.5741 0.3577 0.8398
C8_13 C 0.64608(19) 0.41116(18) 0.85414(12)
H6_13 H 0.6406 0.4364 0.8287
C9_13 C 0.69981(18) 0.38443(18) 0.91874(13)
H7_13 H 0.7328 0.3904 0.9384
C10_13 C 0.66076(19) 0.33788(18) 0.92837(12)
H8_13 H 0.6672 0.3135 0.9541
C11_13 C 0.53187(15) 0.25432(16) 0.87435(11)
H9_13 H 0.5051 0.2242 0.8879
H10_13 H 0.5069 0.2861 0.8610
C12_13 C 0.6654(2) 0.1855(2) 0.8653(3)
H11_13 H 0.6809 0.2246 0.8689
C13_13 C 0.7014(2) 0.1348(2) 0.8744(3)
H12_13 H 0.7409 0.1414 0.8847
C14_13 C 0.6257(2) 0.0712(2) 0.8572(3)
H13_13 H 0.6105 0.0318 0.8560
C15_13 C 0.5869(2) 0.1183(2) 0.8464(3)
H14_13 H 0.5477 0.1103 0.8362
C16_13 C 0.60676(16) 0.17656(16) 0.85091(10)
C17_13 C 0.55100(15) 0.22926(15) 0.79212(9)
C18_13 C 0.5877(2) 0.2045(3) 0.75770(13)
H15_13 H 0.6235 0.1845 0.7654
C19_13 C 0.5704(2) 0.2100(3) 0.71188(12)
H16_13 H 0.5963 0.1940 0.6896
C20_13 C 0.4845(2) 0.2592(2) 0.73028(13)
H17_13 H 0.4487 0.2781 0.7212
C21_13 C 0.4973(2) 0.2569(3) 0.77695(13)
H18_13 H 0.4704 0.2736 0.7982
N1_14 N 0.47918(16) 0.74468(13) 0.04963(9)
C2_14 C 0.4682(2) 0.68907(16) 0.03196(11)
H2_14 H 0.4715 0.6555 0.0513
C3_14 C 0.47440(19) 0.79163(16) 0.02041(11)
H3_14 H 0.4821 0.8303 0.0319
B1_14 B 0.6133(14) 0.9359(12) 0.1002(11)
H19_14 H 0.6371 0.9389 0.0725
H20_14 H 0.5818 0.9660 0.0996
H21_14 H 0.6390 0.9426 0.1265
B2_14 B 0.3824(13) 0.5729(13) 0.1430(11)
H22_14 H 0.3851 0.5521 0.1139
H23_14 H 0.4000 0.5482 0.1668
H24_14 H 0.3405 0.5806 0.1501
N7_14 N 0.55660(16) 0.82907(15) 0.10744(11)
N8_14 N 0.44360(16) 0.67788(16) 0.13748(11)
C22_14 C 0.5841(3) 0.8708(3) 0.1034(2)
C23_14 C 0.4179(3) 0.6355(3) 0.1399(2)
N9_8 N 0.57792(14) 0.69339(14) 0.11740(10)
N2_14 N 0.42938(14) 0.71990(13) 0.91016(8)
N3_8 N 0.30661(14) 0.57792(14) 0.88260(10)
N5_14 N 0.43180(14) 0.77403(14) 0.83804(9)
C1_14 C 0.4524(2) 0.67973(15) 0.98650(11)
H1_14 H 0.4458 0.6405 0.9757
C4_14 C 0.45877(19) 0.78631(16) 0.97435(11)
H4_14 H 0.4567 0.8205 0.9555
C5_14 C 0.44625(15) 0.72908(15) 0.95671(10)
C6_14 C 0.38879(15) 0.67308(15) 0.89954(10)
C7_14 C 0.39467(17) 0.63571(18) 0.86093(12)
H5_14 H 0.4259 0.6423 0.8398
C8_14 C 0.35392(19) 0.58884(18) 0.85414(12)
H6_14 H 0.3594 0.5636 0.8287
C9_14 C 0.30019(18) 0.61557(18) 0.91874(13)
H7_14 H 0.2672 0.6096 0.9384
C10_14 C 0.33924(19) 0.66212(18) 0.92837(12)
H8_14 H 0.3328 0.6865 0.9541
C11_14 C 0.46813(15) 0.74568(16) 0.87435(11)
H9_14 H 0.4949 0.7758 0.8879
H10_14 H 0.4931 0.7139 0.8610
C12_14 C 0.3346(2) 0.8145(2) 0.8653(3)
H11_14 H 0.3191 0.7754 0.8689
C13_14 C 0.2986(2) 0.8652(2) 0.8744(3)
H12_14 H 0.2591 0.8586 0.8847
C14_14 C 0.3743(2) 0.9288(2) 0.8572(3)
H13_14 H 0.3895 0.9682 0.8560
C15_14 C 0.4131(2) 0.8817(2) 0.8464(3)
H14_14 H 0.4523 0.8897 0.8362
C16_14 C 0.39324(16) 0.82344(16) 0.85091(10)
C17_14 C 0.44900(15) 0.77074(15) 0.79212(9)
C18_14 C 0.4123(2) 0.7955(3) 0.75770(13)
H15_14 H 0.3765 0.8155 0.7654
C19_14 C 0.4296(2) 0.7900(3) 0.71188(12)
H16_14 H 0.4037 0.8060 0.6896
C20_14 C 0.5155(2) 0.7408(2) 0.73028(13)
H17_14 H 0.5513 0.7219 0.7212
C21_14 C 0.5027(2) 0.7431(3) 0.77695(13)
H18_14 H 0.5296 0.7264 0.7982
N2_15 N 0.71990(13) 0.57062(14) 0.08984(8)
N5_15 N 0.77403(14) 0.56820(14) 0.16196(9)
C1_15 C 0.67973(15) 0.5476(2) 0.01350(11)
H1_15 H 0.6405 0.5542 0.0243
C4_15 C 0.78631(16) 0.54123(19) 0.02565(11)
H4_15 H 0.8205 0.5433 0.0445
C5_15 C 0.72908(15) 0.55375(15) 0.04329(10)
C6_15 C 0.67308(15) 0.61121(15) 0.10046(10)
C7_15 C 0.63571(18) 0.60533(17) 0.13907(12)
H5_15 H 0.6423 0.5741 0.1602
C8_15 C 0.58884(18) 0.64608(19) 0.14586(12)
H6_15 H 0.5636 0.6406 0.1713
C9_15 C 0.61557(18) 0.69981(18) 0.08126(13)
H7_15 H 0.6096 0.7328 0.0616
C10_15 C 0.66212(18) 0.66076(19) 0.07163(12)
H8_15 H 0.6865 0.6672 0.0459
C11_15 C 0.74568(16) 0.53187(15) 0.12565(11)
H9_15 H 0.7758 0.5051 0.1121
H10_15 H 0.7139 0.5069 0.1390
C12_15 C 0.8145(2) 0.6654(2) 0.1347(3)
H11_15 H 0.7754 0.6809 0.1311
C13_15 C 0.8652(2) 0.7014(2) 0.1256(3)
H12_15 H 0.8586 0.7409 0.1153
C14_15 C 0.9288(2) 0.6257(2) 0.1428(3)
H13_15 H 0.9682 0.6105 0.1440
C15_15 C 0.8817(2) 0.5869(2) 0.1536(3)
H14_15 H 0.8897 0.5477 0.1638
C16_15 C 0.82344(16) 0.60676(16) 0.14909(10)
C17_15 C 0.77074(15) 0.55100(15) 0.20788(9)
C18_15 C 0.7955(3) 0.5877(2) 0.24230(13)
H15_15 H 0.8155 0.6235 0.2346
C19_15 C 0.7900(3) 0.5704(2) 0.28812(12)
H16_15 H 0.8060 0.5963 0.3104
C20_15 C 0.7408(2) 0.4845(2) 0.26972(13)
H17_15 H 0.7219 0.4487 0.2788
C21_15 C 0.7431(3) 0.4973(2) 0.22305(13)
H18_15 H 0.7264 0.4704 0.2018
N1_15 N 0.74468(13) 0.52082(16) 0.95037(9)
C2_15 C 0.68907(16) 0.5318(2) 0.96804(11)
H2_15 H 0.6555 0.5285 0.9487
C3_15 C 0.79163(16) 0.52560(19) 0.97959(11)
H3_15 H 0.8303 0.5179 0.9681
B1_15 B 0.9359(12) 0.3867(14) 0.8998(11)
H19_15 H 0.9389 0.3629 0.9275
H20_15 H 0.9660 0.4182 0.9004
H21_15 H 0.9426 0.3610 0.8735
B2_15 B 0.5729(13) 0.6176(13) 0.8570(11)
H22_15 H 0.5521 0.6149 0.8861
H23_15 H 0.5482 0.6000 0.8332
H24_15 H 0.5806 0.6595 0.8499
N7_15 N 0.82907(15) 0.44340(16) 0.89256(11)
N8_15 N 0.67788(16) 0.55640(16) 0.86252(11)
C22_15 C 0.8708(3) 0.4159(3) 0.8966(2)
C23_15 C 0.6355(3) 0.5821(3) 0.8601(2)
N2_16 N 0.28010(13) 0.42938(14) 0.08984(8)
N5_16 N 0.22597(14) 0.43180(14) 0.16196(9)
C1_16 C 0.32027(15) 0.4524(2) 0.01350(11)
H1_16 H 0.3595 0.4458 0.0243
C4_16 C 0.21369(16) 0.45877(19) 0.02565(11)
H4_16 H 0.1795 0.4567 0.0445
C5_16 C 0.27092(15) 0.44625(15) 0.04329(10)
C6_16 C 0.32692(15) 0.38879(15) 0.10046(10)
C7_16 C 0.36429(18) 0.39467(17) 0.13907(12)
H5_16 H 0.3577 0.4259 0.1602
C8_16 C 0.41116(18) 0.35392(19) 0.14586(12)
H6_16 H 0.4364 0.3594 0.1713
C9_16 C 0.38443(18) 0.30019(18) 0.08126(13)
H7_16 H 0.3904 0.2672 0.0616
C10_16 C 0.33788(18) 0.33924(19) 0.07163(12)
H8_16 H 0.3135 0.3328 0.0459
C11_16 C 0.25432(16) 0.46813(15) 0.12565(11)
H9_16 H 0.2242 0.4949 0.1121
H10_16 H 0.2861 0.4931 0.1390
C12_16 C 0.1855(2) 0.3346(2) 0.1347(3)
H11_16 H 0.2246 0.3191 0.1311
C13_16 C 0.1348(2) 0.2986(2) 0.1256(3)
H12_16 H 0.1414 0.2591 0.1153
C14_16 C 0.0712(2) 0.3743(2) 0.1428(3)
H13_16 H 0.0318 0.3895 0.1440
C15_16 C 0.1183(2) 0.4131(2) 0.1536(3)
H14_16 H 0.1103 0.4523 0.1638
C16_16 C 0.17656(16) 0.39324(16) 0.14909(10)
C17_16 C 0.22926(15) 0.44900(15) 0.20788(9)
C18_16 C 0.2045(3) 0.4123(2) 0.24230(13)
H15_16 H 0.1845 0.3765 0.2346
C19_16 C 0.2100(3) 0.4296(2) 0.28812(12)
H16_16 H 0.1940 0.4037 0.3104
C20_16 C 0.2592(2) 0.5155(2) 0.26972(13)
H17_16 H 0.2781 0.5513 0.2788
C21_16 C 0.2569(3) 0.5027(2) 0.22305(13)
H18_16 H 0.2736 0.5296 0.2018
N1_16 N 0.25532(13) 0.47918(16) 0.95037(9)
C2_16 C 0.31093(16) 0.4682(2) 0.96804(11)
H2_16 H 0.3445 0.4715 0.9487
C3_16 C 0.20837(16) 0.47440(19) 0.97959(11)
H3_16 H 0.1697 0.4821 0.9681
B1_16 B 0.0641(12) 0.6133(14) 0.8998(11)
H19_16 H 0.0611 0.6371 0.9275
H20_16 H 0.0340 0.5818 0.9004
H21_16 H 0.0574 0.6390 0.8735
B2_16 B 0.4271(13) 0.3824(13) 0.8570(11)
H22_16 H 0.4479 0.3851 0.8861
H23_16 H 0.4518 0.4000 0.8332
H24_16 H 0.4194 0.3405 0.8499
N7_16 N 0.17093(15) 0.55660(16) 0.89256(11)
N8_16 N 0.32212(16) 0.44360(16) 0.86252(11)
C22_16 C 0.1292(3) 0.5841(3) 0.8966(2)
C23_16 C 0.3645(3) 0.4179(3) 0.8601(2)
loop_
_geom_bond_atom_site_label_1
_geom_bond_atom_site_label_2
_geom_bond_site_symmetry_1
_geom_bond_site_symmetry_2
Fe1 N1 1_555 1_555
N1 C2 1_555 1_555
H2 C2 1_555 1_555
C3 N1 1_555 1_555
H3 C3 1_555 1_555
B2 H22 1_555 1_555
H23 B2 1_555 1_555
H24 B2 1_555 1_555
N8 Fe1 1_555 1_555
C23 B2 1_555 1_555
N10 Fe1 1_555 1_555
N8 C23 1_555 1_555
N2 C5 1_555 1_555
N3 C8 1_555 1_555
N4 C13 1_555 1_555
N5 C11 1_555 1_555
N6 C19 1_555 1_555
C1 H1 1_555 1_555
H4 C4 1_555 1_555
C5 C1 1_555 1_555
C6 N2 1_555 1_555
C7 C6 1_555 1_555
H5 C7 1_555 1_555
C8 C7 1_555 1_555
H6 C8 1_555 1_555
C9 N3 1_555 1_555
H7 C9 1_555 1_555
C10 C6 1_555 1_555
H8 C10 1_555 1_555
C11 N2 1_555 1_555
H9 C11 1_555 1_555
H10 C11 1_555 1_555
C12 H11 1_555 1_555
C13 C12 1_555 1_555
H12 C13 1_555 1_555
C14 N4 1_555 1_555
H13 C14 1_555 1_555
C15 C14 1_555 1_555
H14 C15 1_555 1_555
C16 N5 1_555 1_555
C17 N5 1_555 1_555
C18 C17 1_555 1_555
H15 C18 1_555 1_555
C19 C18 1_555 1_555
H16 C19 1_555 1_555
Fe4 N4 1_555 1_555
C4 C5 1_555 1_555
C9 C10 1_555 1_555
C12 C16 1_555 1_555
C15 C16 1_555 1_555
B1 H19 1_555 1_555
H20 B1 1_555 1_555
H21 B1 1_555 1_555
C22 B1 1_555 1_555
N7 C22 1_555 1_555
H17 C20 1_555 1_555
H18 C21 1_555 1_555
C20 C21 1_555 1_555
B1_2 H19_2 1_555 1_555
H20_2 B1_2 1_555 1_555
H21_2 B1_2 1_555 1_555
C22_2 B1_2 1_555 1_555
N7_2 C22_2 1_555 1_555
H17_2 C20_2 1_555 1_555
H18_2 C21_2 1_555 1_555
C20_2 C21_2 1_555 1_555
Fe1_2 N1_2 1_555 1_555
N1_2 C2_2 1_555 1_555
H2_2 C2_2 1_555 1_555
C3_2 N1_2 1_555 1_555
H3_2 C3_2 1_555 1_555
B2_2 H22_2 1_555 1_555
H23_2 B2_2 1_555 1_555
H24_2 B2_2 1_555 1_555
N8_2 Fe1_2 1_555 1_555
C23_2 B2_2 1_555 1_555
N10_2 Fe1_2 1_555 1_555
N8_2 C23_2 1_555 1_555
N2_2 C5_2 1_555 1_555
N3_2 C8_2 1_555 1_555
N4_2 C13_2 1_555 1_555
N5_2 C11_2 1_555 1_555
N6_2 C19_2 1_555 1_555
C1_2 H1_2 1_555 1_555
H4_2 C4_2 1_555 1_555
C5_2 C1_2 1_555 1_555
C6_2 N2_2 1_555 1_555
C7_2 C6_2 1_555 1_555
H5_2 C7_2 1_555 1_555
C8_2 C7_2 1_555 1_555
H6_2 C8_2 1_555 1_555
C9_2 N3_2 1_555 1_555
H7_2 C9_2 1_555 1_555
C10_2 C6_2 1_555 1_555
H8_2 C10_2 1_555 1_555
C11_2 N2_2 1_555 1_555
H9_2 C11_2 1_555 1_555
H10_2 C11_2 1_555 1_555
C12_2 H11_2 1_555 1_555
C13_2 C12_2 1_555 1_555
H12_2 C13_2 1_555 1_555
C14_2 N4_2 1_555 1_555
H13_2 C14_2 1_555 1_555
C15_2 C14_2 1_555 1_555
H14_2 C15_2 1_555 1_555
C16_2 N5_2 1_555 1_555
C17_2 N5_2 1_555 1_555
C18_2 C17_2 1_555 1_555
H15_2 C18_2 1_555 1_555
C19_2 C18_2 1_555 1_555
H16_2 C19_2 1_555 1_555
Fe4_2 N4_2 1_555 1_555
C4_2 C5_2 1_555 1_555
C9_2 C10_2 1_555 1_555
C12_2 C16_2 1_555 1_555
C15_2 C16_2 1_555 1_555
H17_3 C20_3 1_555 1_555
H18_3 C21_3 1_555 1_555
C20_3 C21_3 1_555 1_555
B1_3 H19_3 1_555 1_555
H20_3 B1_3 1_555 1_555
H21_3 B1_3 1_555 1_555
C22_3 B1_3 1_555 1_555
N7_3 C22_3 1_555 1_555
N2_3 C5_3 1_555 1_555
N9_2 C8_3 1_555 1_555
N4_3 C13_3 1_555 1_555
N5_3 C11_3 1_555 1_555
N6_3 C19_3 1_555 1_555
C1_3 H1_3 1_555 1_555
H4_3 C4_3 1_555 1_555
C5_3 C1_3 1_555 1_555
C6_3 N2_3 1_555 1_555
C7_3 C6_3 1_555 1_555
H5_3 C7_3 1_555 1_555
C8_3 C7_3 1_555 1_555
H6_3 C8_3 1_555 1_555
C9_3 N9_2 1_555 1_555
H7_3 C9_3 1_555 1_555
C10_3 C6_3 1_555 1_555
H8_3 C10_3 1_555 1_555
C11_3 N2_3 1_555 1_555
H9_3 C11_3 1_555 1_555
H10_3 C11_3 1_555 1_555
C12_3 H11_3 1_555 1_555
C13_3 C12_3 1_555 1_555
H12_3 C13_3 1_555 1_555
C14_3 N4_3 1_555 1_555
H13_3 C14_3 1_555 1_555
C15_3 C14_3 1_555 1_555
H14_3 C15_3 1_555 1_555
C16_3 N5_3 1_555 1_555
C17_3 N5_3 1_555 1_555
C18_3 C17_3 1_555 1_555
H15_3 C18_3 1_555 1_555
C19_3 C18_3 1_555 1_555
H16_3 C19_3 1_555 1_555
Fe4_3 N4_3 1_555 1_555
C4_3 C5_3 1_555 1_555
C9_3 C10_3 1_555 1_555
C12_3 C16_3 1_555 1_555
C15_3 C16_3 1_555 1_555
Fe2 N1_3 1_555 1_555
N1_3 C2_3 1_555 1_555
H2_3 C2_3 1_555 1_555
C3_3 N1_3 1_555 1_555
H3_3 C3_3 1_555 1_555
B2_3 H22_3 1_555 1_555
H23_3 B2_3 1_555 1_555
H24_3 B2_3 1_555 1_555
N8_3 Fe2 1_555 1_555
C23_3 B2_3 1_555 1_555
N10_3 Fe2 1_555 1_555
N8_3 C23_3 1_555 1_555
N2_4 C5_4 1_555 1_555
N9 C8_4 1_555 1_555
N4_4 C13_4 1_555 1_555
N5_4 C11_4 1_555 1_555
N6_4 C19_4 1_555 1_555
C1_4 H1_4 1_555 1_555
H4_4 C4_4 1_555 1_555
C5_4 C1_4 1_555 1_555
C6_4 N2_4 1_555 1_555
C7_4 C6_4 1_555 1_555
H5_4 C7_4 1_555 1_555
C8_4 C7_4 1_555 1_555
H6_4 C8_4 1_555 1_555
C9_4 N9 1_555 1_555
H7_4 C9_4 1_555 1_555
C10_4 C6_4 1_555 1_555
H8_4 C10_4 1_555 1_555
C11_4 N2_4 1_555 1_555
H9_4 C11_4 1_555 1_555
H10_4 C11_4 1_555 1_555
C12_4 H11_4 1_555 1_555
C13_4 C12_4 1_555 1_555
H12_4 C13_4 1_555 1_555
C14_4 N4_4 1_555 1_555
H13_4 C14_4 1_555 1_555
C15_4 C14_4 1_555 1_555
H14_4 C15_4 1_555 1_555
C16_4 N5_4 1_555 1_555
C17_4 N5_4 1_555 1_555
C18_4 C17_4 1_555 1_555
H15_4 C18_4 1_555 1_555
C19_4 C18_4 1_555 1_555
H16_4 C19_4 1_555 1_555
Fe4_4 N4_4 1_555 1_555
C4_4 C5_4 1_555 1_555
C9_4 C10_4 1_555 1_555
C12_4 C16_4 1_555 1_555
C15_4 C16_4 1_555 1_555
Fe2_2 N1_4 1_555 1_555
N1_4 C2_4 1_555 1_555
H2_4 C2_4 1_555 1_555
C3_4 N1_4 1_555 1_555
H3_4 C3_4 1_555 1_555
B2_4 H22_4 1_555 1_555
H23_4 B2_4 1_555 1_555
H24_4 B2_4 1_555 1_555
N8_4 Fe2_2 1_555 1_555
C23_4 B2_4 1_555 1_555
N10_4 Fe2_2 1_555 1_555
N8_4 C23_4 1_555 1_555
H17_4 C20_4 1_555 1_555
H18_4 C21_4 1_555 1_555
C20_4 C21_4 1_555 1_555
B1_4 H19_4 1_555 1_555
H20_4 B1_4 1_555 1_555
H21_4 B1_4 1_555 1_555
C22_4 B1_4 1_555 1_555
N7_4 C22_4 1_555 1_555
Fe3_2 N1_5 1_555 1_555
N1_5 C2_5 1_555 1_555
N2_5 C5_5 1_555 1_555
N3_3 C8_5 1_555 1_555
N4_5 C13_5 1_555 1_555
N5_5 C11_5 1_555 1_555
N11_2 C19_5 1_555 1_555
C1_5 H1_5 1_555 1_555
C2_5 C1_5 1_555 1_555
H2_5 C2_5 1_555 1_555
C3_5 N1_5 1_555 1_555
H3_5 C3_5 1_555 1_555
C4_5 C3_5 1_555 1_555
H4_5 C4_5 1_555 1_555
C5_5 C1_5 1_555 1_555
C6_5 N2_5 1_555 1_555
C7_5 C6_5 1_555 1_555
H5_5 C7_5 1_555 1_555
C8_5 C7_5 1_555 1_555
H6_5 C8_5 1_555 1_555
C9_5 N3_3 1_555 1_555
H7_5 C9_5 1_555 1_555
C10_5 C6_5 1_555 1_555
H8_5 C10_5 1_555 1_555
C11_5 N2_5 1_555 1_555
H9_5 C11_5 1_555 1_555
H10_5 C11_5 1_555 1_555
C12_5 H11_5 1_555 1_555
C13_5 C12_5 1_555 1_555
H12_5 C13_5 1_555 1_555
C14_5 N4_5 1_555 1_555
H13_5 C14_5 1_555 1_555
C15_5 C14_5 1_555 1_555
H14_5 C15_5 1_555 1_555
C16_5 N5_5 1_555 1_555
C17_5 N5_5 1_555 1_555
C18_5 C17_5 1_555 1_555
H15_5 C18_5 1_555 1_555
C19_5 C18_5 1_555 1_555
H16_5 C19_5 1_555 1_555
B2_5 H22_5 1_555 1_555
H23_5 B2_5 1_555 1_555
H24_5 B2_5 1_555 1_555
N8_5 Fe3_2 1_555 1_555
C23_5 B2_5 1_555 1_555
Fe4_5 N4_5 1_555 1_555
N10_5 Fe3_2 1_555 1_555
C4_5 C5_5 1_555 1_555
C9_5 C10_5 1_555 1_555
C12_5 C16_5 1_555 1_555
C15_5 C16_5 1_555 1_555
N8_5 C23_5 1_555 1_555
H17_5 C20_5 1_555 1_555
H18_5 C21_5 1_555 1_555
B1_5 H19_5 1_555 1_555
H20_5 B1_5 1_555 1_555
H21_5 B1_5 1_555 1_555
C22_5 B1_5 1_555 1_555
C20_5 C21_5 1_555 1_555
N7_5 C22_5 1_555 1_555
H17_6 C20_6 1_555 1_555
H18_6 C21_6 1_555 1_555
B1_6 H19_6 1_555 1_555
H20_6 B1_6 1_555 1_555
H21_6 B1_6 1_555 1_555
C22_6 B1_6 1_555 1_555
C20_6 C21_6 1_555 1_555
N7_6 C22_6 1_555 1_555
Fe3 N1_6 1_555 1_555
N1_6 C2_6 1_555 1_555
N2_6 C5_6 1_555 1_555
N3_4 C8_6 1_555 1_555
N4_6 C13_6 1_555 1_555
N5_6 C11_6 1_555 1_555
N11 C19_6 1_555 1_555
C1_6 H1_6 1_555 1_555
C2_6 C1_6 1_555 1_555
H2_6 C2_6 1_555 1_555
C3_6 N1_6 1_555 1_555
H3_6 C3_6 1_555 1_555
C4_6 C3_6 1_555 1_555
H4_6 C4_6 1_555 1_555
C5_6 C1_6 1_555 1_555
C6_6 N2_6 1_555 1_555
C7_6 C6_6 1_555 1_555
H5_6 C7_6 1_555 1_555
C8_6 C7_6 1_555 1_555
H6_6 C8_6 1_555 1_555
C9_6 N3_4 1_555 1_555
H7_6 C9_6 1_555 1_555
C10_6 C6_6 1_555 1_555
H8_6 C10_6 1_555 1_555
C11_6 N2_6 1_555 1_555
H9_6 C11_6 1_555 1_555
H10_6 C11_6 1_555 1_555
C12_6 H11_6 1_555 1_555
C13_6 C12_6 1_555 1_555
H12_6 C13_6 1_555 1_555
C14_6 N4_6 1_555 1_555
H13_6 C14_6 1_555 1_555
C15_6 C14_6 1_555 1_555
H14_6 C15_6 1_555 1_555
C16_6 N5_6 1_555 1_555
C17_6 N5_6 1_555 1_555
C18_6 C17_6 1_555 1_555
H15_6 C18_6 1_555 1_555
C19_6 C18_6 1_555 1_555
H16_6 C19_6 1_555 1_555
B2_6 H22_6 1_555 1_555
H23_6 B2_6 1_555 1_555
H24_6 B2_6 1_555 1_555
N8_6 Fe3 1_555 1_555
C23_6 B2_6 1_555 1_555
Fe4_6 N4_6 1_555 1_555
N10_6 Fe3 1_555 1_555
C4_6 C5_6 1_555 1_555
C9_6 C10_6 1_555 1_555
C12_6 C16_6 1_555 1_555
C15_6 C16_6 1_555 1_555
N8_6 C23_6 1_555 1_555
Fe3_3 N1_7 1_555 1_555
N1_7 C2_7 1_555 1_555
N2_7 C5_7 1_555 1_555
N9_4 C8_7 1_555 1_555
N4_7 C13_7 1_555 1_555
N5_7 C11_7 1_555 1_555
N11_3 C19_7 1_555 1_555
C1_7 H1_7 1_555 1_555
C2_7 C1_7 1_555 1_555
H2_7 C2_7 1_555 1_555
C3_7 N1_7 1_555 1_555
H3_7 C3_7 1_555 1_555
C4_7 C3_7 1_555 1_555
H4_7 C4_7 1_555 1_555
C5_7 C1_7 1_555 1_555
C6_7 N2_7 1_555 1_555
C7_7 C6_7 1_555 1_555
H5_7 C7_7 1_555 1_555
C8_7 C7_7 1_555 1_555
H6_7 C8_7 1_555 1_555
C9_7 N9_4 1_555 1_555
H7_7 C9_7 1_555 1_555
C10_7 C6_7 1_555 1_555
H8_7 C10_7 1_555 1_555
C11_7 N2_7 1_555 1_555
H9_7 C11_7 1_555 1_555
H10_7 C11_7 1_555 1_555
C12_7 H11_7 1_555 1_555
C13_7 C12_7 1_555 1_555
H12_7 C13_7 1_555 1_555
C14_7 N4_7 1_555 1_555
H13_7 C14_7 1_555 1_555
C15_7 C14_7 1_555 1_555
H14_7 C15_7 1_555 1_555
C16_7 N5_7 1_555 1_555
C17_7 N5_7 1_555 1_555
C18_7 C17_7 1_555 1_555
H15_7 C18_7 1_555 1_555
C19_7 C18_7 1_555 1_555
H16_7 C19_7 1_555 1_555
B2_7 H22_7 1_555 1_555
H23_7 B2_7 1_555 1_555
H24_7 B2_7 1_555 1_555
N8_7 Fe3_3 1_555 1_555
C23_7 B2_7 1_555 1_555
Fe4_7 N4_7 1_555 1_555
N10_7 Fe3_3 1_555 1_555
C4_7 C5_7 1_555 1_555
C9_7 C10_7 1_555 1_555
C12_7 C16_7 1_555 1_555
C15_7 C16_7 1_555 1_555
N8_7 C23_7 1_555 1_555
H17_7 C20_7 1_555 1_555
H18_7 C21_7 1_555 1_555
B1_7 H19_7 1_555 1_555
H20_7 B1_7 1_555 1_555
H21_7 B1_7 1_555 1_555
C22_7 B1_7 1_555 1_555
C20_7 C21_7 1_555 1_555
N7_7 C22_7 1_555 1_555
H17_8 C20_8 1_555 1_555
H18_8 C21_8 1_555 1_555
B1_8 H19_8 1_555 1_555
H20_8 B1_8 1_555 1_555
H21_8 B1_8 1_555 1_555
C22_8 B1_8 1_555 1_555
C20_8 C21_8 1_555 1_555
N7_8 C22_8 1_555 1_555
Fe3_4 N1_8 1_555 1_555
N1_8 C2_8 1_555 1_555
N2_8 C5_8 1_555 1_555
N9_3 C8_8 1_555 1_555
N4_8 C13_8 1_555 1_555
N5_8 C11_8 1_555 1_555
N11_4 C19_8 1_555 1_555
C1_8 H1_8 1_555 1_555
C2_8 C1_8 1_555 1_555
H2_8 C2_8 1_555 1_555
C3_8 N1_8 1_555 1_555
H3_8 C3_8 1_555 1_555
C4_8 C3_8 1_555 1_555
H4_8 C4_8 1_555 1_555
C5_8 C1_8 1_555 1_555
C6_8 N2_8 1_555 1_555
C7_8 C6_8 1_555 1_555
H5_8 C7_8 1_555 1_555
C8_8 C7_8 1_555 1_555
H6_8 C8_8 1_555 1_555
C9_8 N9_3 1_555 1_555
H7_8 C9_8 1_555 1_555
C10_8 C6_8 1_555 1_555
H8_8 C10_8 1_555 1_555
C11_8 N2_8 1_555 1_555
H9_8 C11_8 1_555 1_555
H10_8 C11_8 1_555 1_555
C12_8 H11_8 1_555 1_555
C13_8 C12_8 1_555 1_555
H12_8 C13_8 1_555 1_555
C14_8 N4_8 1_555 1_555
H13_8 C14_8 1_555 1_555
C15_8 C14_8 1_555 1_555
H14_8 C15_8 1_555 1_555
C16_8 N5_8 1_555 1_555
C17_8 N5_8 1_555 1_555
C18_8 C17_8 1_555 1_555
H15_8 C18_8 1_555 1_555
C19_8 C18_8 1_555 1_555
H16_8 C19_8 1_555 1_555
B2_8 H22_8 1_555 1_555
H23_8 B2_8 1_555 1_555
H24_8 B2_8 1_555 1_555
N8_8 Fe3_4 1_555 1_555
C23_8 B2_8 1_555 1_555
Fe4_8 N4_8 1_555 1_555
N10_8 Fe3_4 1_555 1_555
C4_8 C5_8 1_555 1_555
C9_8 C10_8 1_555 1_555
C12_8 C16_8 1_555 1_555
C15_8 C16_8 1_555 1_555
N8_8 C23_8 1_555 1_555
Fe4_8 N1_9 1_555 1_555
N1_9 C2_9 1_555 1_555
N2_9 C5_9 1_555 1_555
N3_5 C8_9 1_555 1_555
N10_8 C13_9 1_555 1_555
N5_9 C11_9 1_555 1_555
N6_5 C19_9 1_555 1_555
C1_9 H1_9 1_555 1_555
C2_9 C1_9 1_555 1_555
H2_9 C2_9 1_555 1_555
C3_9 N1_9 1_555 1_555
H3_9 C3_9 1_555 1_555
C4_9 C3_9 1_555 1_555
H4_9 C4_9 1_555 1_555
C5_9 C1_9 1_555 1_555
C6_9 N2_9 1_555 1_555
C7_9 C6_9 1_555 1_555
H5_9 C7_9 1_555 1_555
C8_9 C7_9 1_555 1_555
H6_9 C8_9 1_555 1_555
C9_9 N3_5 1_555 1_555
H7_9 C9_9 1_555 1_555
C10_9 C6_9 1_555 1_555
H8_9 C10_9 1_555 1_555
C11_9 N2_9 1_555 1_555
H9_9 C11_9 1_555 1_555
H10_9 C11_9 1_555 1_555
C12_9 H11_9 1_555 1_555
C13_9 C12_9 1_555 1_555
H12_9 C13_9 1_555 1_555
C14_9 N10_8 1_555 1_555
H13_9 C14_9 1_555 1_555
C15_9 C14_9 1_555 1_555
H14_9 C15_9 1_555 1_555
C16_9 N5_9 1_555 1_555
C17_9 N5_9 1_555 1_555
C18_9 C17_9 1_555 1_555
H15_9 C18_9 1_555 1_555
C19_9 C18_9 1_555 1_555
H16_9 C19_9 1_555 1_555
C20_9 N6_5 1_555 1_555
H17_9 C20_9 1_555 1_555
C21_9 C17_9 1_555 1_555
H18_9 C21_9 1_555 1_555
B1_9 H19_9 1_555 1_555
H20_9 B1_9 1_555 1_555
H21_9 B1_9 1_555 1_555
B2_9 H22_9 1_555 1_555
H23_9 B2_9 1_555 1_555
H24_9 B2_9 1_555 1_555
N7_9 Fe4_8 1_555 1_555
N8_9 Fe4_8 1_555 1_555
C22_9 B1_9 1_555 1_555
C23_9 B2_9 1_555 1_555
Fe4_6 N3_5 1_555 1_555
Fe4_3 N6_5 1_555 1_555
N9_5 Fe4_8 1_555 1_555
N11_5 Fe4_8 1_555 1_555
C4_9 C5_9 1_555 1_555
C9_9 C10_9 1_555 1_555
C12_9 C16_9 1_555 1_555
C15_9 C16_9 1_555 1_555
C20_9 C21_9 1_555 1_555
N7_9 C22_9 1_555 1_555
N8_9 C23_9 1_555 1_555
Fe4_7 N1_10 1_555 1_555
N1_10 C2_10 1_555 1_555
N2_10 C5_10 1_555 1_555
N3_6 C8_10 1_555 1_555
N10_7 C13_10 1_555 1_555
N5_10 C11_10 1_555 1_555
N6_6 C19_10 1_555 1_555
C1_10 H1_10 1_555 1_555
C2_10 C1_10 1_555 1_555
H2_10 C2_10 1_555 1_555
C3_10 N1_10 1_555 1_555
H3_10 C3_10 1_555 1_555
C4_10 C3_10 1_555 1_555
H4_10 C4_10 1_555 1_555
C5_10 C1_10 1_555 1_555
C6_10 N2_10 1_555 1_555
C7_10 C6_10 1_555 1_555
H5_10 C7_10 1_555 1_555
C8_10 C7_10 1_555 1_555
H6_10 C8_10 1_555 1_555
C9_10 N3_6 1_555 1_555
H7_10 C9_10 1_555 1_555
C10_10 C6_10 1_555 1_555
H8_10 C10_10 1_555 1_555
C11_10 N2_10 1_555 1_555
H9_10 C11_10 1_555 1_555
H10_10 C11_10 1_555 1_555
C12_10 H11_10 1_555 1_555
C13_10 C12_10 1_555 1_555
H12_10 C13_10 1_555 1_555
C14_10 N10_7 1_555 1_555
H13_10 C14_10 1_555 1_555
C15_10 C14_10 1_555 1_555
H14_10 C15_10 1_555 1_555
C16_10 N5_10 1_555 1_555
C17_10 N5_10 1_555 1_555
C18_10 C17_10 1_555 1_555
H15_10 C18_10 1_555 1_555
C19_10 C18_10 1_555 1_555
H16_10 C19_10 1_555 1_555
C20_10 N6_6 1_555 1_555
H17_10 C20_10 1_555 1_555
C21_10 C17_10 1_555 1_555
H18_10 C21_10 1_555 1_555
B1_10 H19_10 1_555 1_555
H20_10 B1_10 1_555 1_555
H21_10 B1_10 1_555 1_555
B2_10 H22_10 1_555 1_555
H23_10 B2_10 1_555 1_555
H24_10 B2_10 1_555 1_555
N7_10 Fe4_7 1_555 1_555
N8_10 Fe4_7 1_555 1_555
C22_10 B1_10 1_555 1_555
C23_10 B2_10 1_555 1_555
Fe4_5 N3_6 1_555 1_555
Fe4_4 N6_6 1_555 1_555
N9_6 Fe4_7 1_555 1_555
N11_6 Fe4_7 1_555 1_555
C4_10 C5_10 1_555 1_555
C9_10 C10_10 1_555 1_555
C12_10 C16_10 1_555 1_555
C15_10 C16_10 1_555 1_555
C20_10 C21_10 1_555 1_555
N7_10 C22_10 1_555 1_555
N8_10 C23_10 1_555 1_555
Fe4_6 N1_11 1_555 1_555
N1_11 C2_11 1_555 1_555
N2_11 C5_11 1_555 1_555
N9_6 C8_11 1_555 1_555
N10_6 C13_11 1_555 1_555
N5_11 C11_11 1_555 1_555
N6_7 C19_11 1_555 1_555
C1_11 H1_11 1_555 1_555
C2_11 C1_11 1_555 1_555
H2_11 C2_11 1_555 1_555
C3_11 N1_11 1_555 1_555
H3_11 C3_11 1_555 1_555
C4_11 C3_11 1_555 1_555
H4_11 C4_11 1_555 1_555
C5_11 C1_11 1_555 1_555
C6_11 N2_11 1_555 1_555
C7_11 C6_11 1_555 1_555
H5_11 C7_11 1_555 1_555
C8_11 C7_11 1_555 1_555
H6_11 C8_11 1_555 1_555
C9_11 N9_6 1_555 1_555
H7_11 C9_11 1_555 1_555
C10_11 C6_11 1_555 1_555
H8_11 C10_11 1_555 1_555
C11_11 N2_11 1_555 1_555
H9_11 C11_11 1_555 1_555
H10_11 C11_11 1_555 1_555
C12_11 H11_11 1_555 1_555
C13_11 C12_11 1_555 1_555
H12_11 C13_11 1_555 1_555
C14_11 N10_6 1_555 1_555
H13_11 C14_11 1_555 1_555
C15_11 C14_11 1_555 1_555
H14_11 C15_11 1_555 1_555
C16_11 N5_11 1_555 1_555
C17_11 N5_11 1_555 1_555
C18_11 C17_11 1_555 1_555
H15_11 C18_11 1_555 1_555
C19_11 C18_11 1_555 1_555
H16_11 C19_11 1_555 1_555
C20_11 N6_7 1_555 1_555
H17_11 C20_11 1_555 1_555
C21_11 C17_11 1_555 1_555
H18_11 C21_11 1_555 1_555
B1_11 H19_11 1_555 1_555
H20_11 B1_11 1_555 1_555
H21_11 B1_11 1_555 1_555
B2_11 H22_11 1_555 1_555
H23_11 B2_11 1_555 1_555
H24_11 B2_11 1_555 1_555
N7_11 Fe4_6 1_555 1_555
N8_11 Fe4_6 1_555 1_555
C22_11 B1_11 1_555 1_555
C23_11 B2_11 1_555 1_555
Fe4_2 N6_7 1_555 1_555
N11_7 Fe4_6 1_555 1_555
C4_11 C5_11 1_555 1_555
C9_11 C10_11 1_555 1_555
C12_11 C16_11 1_555 1_555
C15_11 C16_11 1_555 1_555
C20_11 C21_11 1_555 1_555
N7_11 C22_11 1_555 1_555
N8_11 C23_11 1_555 1_555
Fe4_5 N1_12 1_555 1_555
N1_12 C2_12 1_555 1_555
N2_12 C5_12 1_555 1_555
N9_5 C8_12 1_555 1_555
N10_5 C13_12 1_555 1_555
N5_12 C11_12 1_555 1_555
N6_8 C19_12 1_555 1_555
C1_12 H1_12 1_555 1_555
C2_12 C1_12 1_555 1_555
H2_12 C2_12 1_555 1_555
C3_12 N1_12 1_555 1_555
H3_12 C3_12 1_555 1_555
C4_12 C3_12 1_555 1_555
H4_12 C4_12 1_555 1_555
C5_12 C1_12 1_555 1_555
C6_12 N2_12 1_555 1_555
C7_12 C6_12 1_555 1_555
H5_12 C7_12 1_555 1_555
C8_12 C7_12 1_555 1_555
H6_12 C8_12 1_555 1_555
C9_12 N9_5 1_555 1_555
H7_12 C9_12 1_555 1_555
C10_12 C6_12 1_555 1_555
H8_12 C10_12 1_555 1_555
C11_12 N2_12 1_555 1_555
H9_12 C11_12 1_555 1_555
H10_12 C11_12 1_555 1_555
C12_12 H11_12 1_555 1_555
C13_12 C12_12 1_555 1_555
H12_12 C13_12 1_555 1_555
C14_12 N10_5 1_555 1_555
H13_12 C14_12 1_555 1_555
C15_12 C14_12 1_555 1_555
H14_12 C15_12 1_555 1_555
C16_12 N5_12 1_555 1_555
C17_12 N5_12 1_555 1_555
C18_12 C17_12 1_555 1_555
H15_12 C18_12 1_555 1_555
C19_12 C18_12 1_555 1_555
H16_12 C19_12 1_555 1_555
C20_12 N6_8 1_555 1_555
H17_12 C20_12 1_555 1_555
C21_12 C17_12 1_555 1_555
H18_12 C21_12 1_555 1_555
B1_12 H19_12 1_555 1_555
H20_12 B1_12 1_555 1_555
H21_12 B1_12 1_555 1_555
B2_12 H22_12 1_555 1_555
H23_12 B2_12 1_555 1_555
H24_12 B2_12 1_555 1_555
N7_12 Fe4_5 1_555 1_555
N8_12 Fe4_5 1_555 1_555
C22_12 B1_12 1_555 1_555
C23_12 B2_12 1_555 1_555
Fe4 N6_8 1_555 1_555
N11_8 Fe4_5 1_555 1_555
C4_12 C5_12 1_555 1_555
C9_12 C10_12 1_555 1_555
C12_12 C16_12 1_555 1_555
C15_12 C16_12 1_555 1_555
C20_12 C21_12 1_555 1_555
N7_12 C22_12 1_555 1_555
N8_12 C23_12 1_555 1_555
Fe4_4 N1_13 1_555 1_555
N1_13 C2_13 1_555 1_555
H2_13 C2_13 1_555 1_555
C3_13 N1_13 1_555 1_555
H3_13 C3_13 1_555 1_555
B1_13 H19_13 1_555 1_555
H20_13 B1_13 1_555 1_555
H21_13 B1_13 1_555 1_555
B2_13 H22_13 1_555 1_555
H23_13 B2_13 1_555 1_555
H24_13 B2_13 1_555 1_555
N7_13 Fe4_4 1_555 1_555
N8_13 Fe4_4 1_555 1_555
C22_13 B1_13 1_555 1_555
C23_13 B2_13 1_555 1_555
N9_7 Fe4_4 1_555 1_555
N7_13 C22_13 1_555 1_555
N8_13 C23_13 1_555 1_555
N2_13 C5_13 1_555 1_555
N3_7 C8_13 1_555 1_555
N10_4 C13_13 1_555 1_555
N5_13 C11_13 1_555 1_555
N11_6 C19_13 1_555 1_555
C1_13 H1_13 1_555 1_555
H4_13 C4_13 1_555 1_555
C5_13 C1_13 1_555 1_555
C6_13 N2_13 1_555 1_555
C7_13 C6_13 1_555 1_555
H5_13 C7_13 1_555 1_555
C8_13 C7_13 1_555 1_555
H6_13 C8_13 1_555 1_555
C9_13 N3_7 1_555 1_555
H7_13 C9_13 1_555 1_555
C10_13 C6_13 1_555 1_555
H8_13 C10_13 1_555 1_555
C11_13 N2_13 1_555 1_555
H9_13 C11_13 1_555 1_555
H10_13 C11_13 1_555 1_555
C12_13 H11_13 1_555 1_555
C13_13 C12_13 1_555 1_555
H12_13 C13_13 1_555 1_555
C14_13 N10_4 1_555 1_555
H13_13 C14_13 1_555 1_555
C15_13 C14_13 1_555 1_555
H14_13 C15_13 1_555 1_555
C16_13 N5_13 1_555 1_555
C17_13 N5_13 1_555 1_555
C18_13 C17_13 1_555 1_555
H15_13 C18_13 1_555 1_555
C19_13 C18_13 1_555 1_555
H16_13 C19_13 1_555 1_555
C20_13 N11_6 1_555 1_555
H17_13 C20_13 1_555 1_555
C21_13 C17_13 1_555 1_555
H18_13 C21_13 1_555 1_555
Fe4_2 N3_7 1_555 1_555
C4_13 C5_13 1_555 1_555
C9_13 C10_13 1_555 1_555
C12_13 C16_13 1_555 1_555
C15_13 C16_13 1_555 1_555
C20_13 C21_13 1_555 1_555
Fe4_3 N1_14 1_555 1_555
N1_14 C2_14 1_555 1_555
H2_14 C2_14 1_555 1_555
C3_14 N1_14 1_555 1_555
H3_14 C3_14 1_555 1_555
B1_14 H19_14 1_555 1_555
H20_14 B1_14 1_555 1_555
H21_14 B1_14 1_555 1_555
B2_14 H22_14 1_555 1_555
H23_14 B2_14 1_555 1_555
H24_14 B2_14 1_555 1_555
N7_14 Fe4_3 1_555 1_555
N8_14 Fe4_3 1_555 1_555
C22_14 B1_14 1_555 1_555
C23_14 B2_14 1_555 1_555
N9_8 Fe4_3 1_555 1_555
N7_14 C22_14 1_555 1_555
N8_14 C23_14 1_555 1_555
N2_14 C5_14 1_555 1_555
N3_8 C8_14 1_555 1_555
N10_3 C13_14 1_555 1_555
N5_14 C11_14 1_555 1_555
N11_5 C19_14 1_555 1_555
C1_14 H1_14 1_555 1_555
H4_14 C4_14 1_555 1_555
C5_14 C1_14 1_555 1_555
C6_14 N2_14 1_555 1_555
C7_14 C6_14 1_555 1_555
H5_14 C7_14 1_555 1_555
C8_14 C7_14 1_555 1_555
H6_14 C8_14 1_555 1_555
C9_14 N3_8 1_555 1_555
H7_14 C9_14 1_555 1_555
C10_14 C6_14 1_555 1_555
H8_14 C10_14 1_555 1_555
C11_14 N2_14 1_555 1_555
H9_14 C11_14 1_555 1_555
H10_14 C11_14 1_555 1_555
C12_14 H11_14 1_555 1_555
C13_14 C12_14 1_555 1_555
H12_14 C13_14 1_555 1_555
C14_14 N10_3 1_555 1_555
H13_14 C14_14 1_555 1_555
C15_14 C14_14 1_555 1_555
H14_14 C15_14 1_555 1_555
C16_14 N5_14 1_555 1_555
C17_14 N5_14 1_555 1_555
C18_14 C17_14 1_555 1_555
H15_14 C18_14 1_555 1_555
C19_14 C18_14 1_555 1_555
H16_14 C19_14 1_555 1_555
C20_14 N11_5 1_555 1_555
H17_14 C20_14 1_555 1_555
C21_14 C17_14 1_555 1_555
H18_14 C21_14 1_555 1_555
Fe4 N3_8 1_555 1_555
C4_14 C5_14 1_555 1_555
C9_14 C10_14 1_555 1_555
C12_14 C16_14 1_555 1_555
C15_14 C16_14 1_555 1_555
C20_14 C21_14 1_555 1_555
N2_15 C5_15 1_555 1_555
N9_8 C8_15 1_555 1_555
N10_2 C13_15 1_555 1_555
N5_15 C11_15 1_555 1_555
N11_7 C19_15 1_555 1_555
C1_15 H1_15 1_555 1_555
H4_15 C4_15 1_555 1_555
C5_15 C1_15 1_555 1_555
C6_15 N2_15 1_555 1_555
C7_15 C6_15 1_555 1_555
H5_15 C7_15 1_555 1_555
C8_15 C7_15 1_555 1_555
H6_15 C8_15 1_555 1_555
C9_15 N9_8 1_555 1_555
H7_15 C9_15 1_555 1_555
C10_15 C6_15 1_555 1_555
H8_15 C10_15 1_555 1_555
C11_15 N2_15 1_555 1_555
H9_15 C11_15 1_555 1_555
H10_15 C11_15 1_555 1_555
C12_15 H11_15 1_555 1_555
C13_15 C12_15 1_555 1_555
H12_15 C13_15 1_555 1_555
C14_15 N10_2 1_555 1_555
H13_15 C14_15 1_555 1_555
C15_15 C14_15 1_555 1_555
H14_15 C15_15 1_555 1_555
C16_15 N5_15 1_555 1_555
C17_15 N5_15 1_555 1_555
C18_15 C17_15 1_555 1_555
H15_15 C18_15 1_555 1_555
C19_15 C18_15 1_555 1_555
H16_15 C19_15 1_555 1_555
C20_15 N11_7 1_555 1_555
H17_15 C20_15 1_555 1_555
C21_15 C17_15 1_555 1_555
H18_15 C21_15 1_555 1_555
C4_15 C5_15 1_555 1_555
C9_15 C10_15 1_555 1_555
C12_15 C16_15 1_555 1_555
C15_15 C16_15 1_555 1_555
C20_15 C21_15 1_555 1_555
Fe4_2 N1_15 1_555 1_555
N1_15 C2_15 1_555 1_555
H2_15 C2_15 1_555 1_555
C3_15 N1_15 1_555 1_555
H3_15 C3_15 1_555 1_555
B1_15 H19_15 1_555 1_555
H20_15 B1_15 1_555 1_555
H21_15 B1_15 1_555 1_555
B2_15 H22_15 1_555 1_555
H23_15 B2_15 1_555 1_555
H24_15 B2_15 1_555 1_555
N7_15 Fe4_2 1_555 1_555
N8_15 Fe4_2 1_555 1_555
C22_15 B1_15 1_555 1_555
C23_15 B2_15 1_555 1_555
N7_15 C22_15 1_555 1_555
N8_15 C23_15 1_555 1_555
N2_16 C5_16 1_555 1_555
N9_7 C8_16 1_555 1_555
N10 C13_16 1_555 1_555
N5_16 C11_16 1_555 1_555
N11_8 C19_16 1_555 1_555
C1_16 H1_16 1_555 1_555
H4_16 C4_16 1_555 1_555
C5_16 C1_16 1_555 1_555
C6_16 N2_16 1_555 1_555
C7_16 C6_16 1_555 1_555
H5_16 C7_16 1_555 1_555
C8_16 C7_16 1_555 1_555
H6_16 C8_16 1_555 1_555
C9_16 N9_7 1_555 1_555
H7_16 C9_16 1_555 1_555
C10_16 C6_16 1_555 1_555
H8_16 C10_16 1_555 1_555
C11_16 N2_16 1_555 1_555
H9_16 C11_16 1_555 1_555
H10_16 C11_16 1_555 1_555
C12_16 H11_16 1_555 1_555
C13_16 C12_16 1_555 1_555
H12_16 C13_16 1_555 1_555
C14_16 N10 1_555 1_555
H13_16 C14_16 1_555 1_555
C15_16 C14_16 1_555 1_555
H14_16 C15_16 1_555 1_555
C16_16 N5_16 1_555 1_555
C17_16 N5_16 1_555 1_555
C18_16 C17_16 1_555 1_555
H15_16 C18_16 1_555 1_555
C19_16 C18_16 1_555 1_555
H16_16 C19_16 1_555 1_555
C20_16 N11_8 1_555 1_555
H17_16 C20_16 1_555 1_555
C21_16 C17_16 1_555 1_555
H18_16 C21_16 1_555 1_555
C4_16 C5_16 1_555 1_555
C9_16 C10_16 1_555 1_555
C12_16 C16_16 1_555 1_555
C15_16 C16_16 1_555 1_555
C20_16 C21_16 1_555 1_555
Fe4 N1_16 1_555 1_555
N1_16 C2_16 1_555 1_555
H2_16 C2_16 1_555 1_555
C3_16 N1_16 1_555 1_555
H3_16 C3_16 1_555 1_555
B1_16 H19_16 1_555 1_555
H20_16 B1_16 1_555 1_555
H21_16 B1_16 1_555 1_555
B2_16 H22_16 1_555 1_555
H23_16 B2_16 1_555 1_555
H24_16 B2_16 1_555 1_555
N7_16 Fe4 1_555 1_555
N8_16 Fe4 1_555 1_555
C22_16 B1_16 1_555 1_555
C23_16 B2_16 1_555 1_555
N7_16 C22_16 1_555 1_555
N8_16 C23_16 1_555 1_555

#END
