
###############################################################################
#
# This file contains modified crystal structure data generated from the
# MOF subset of the Cambridge Structural Database (CSD) v543 
# hosted by the Cambridge Crystallographic Data Centre (CCDC).
#
# This work is licensed under the Creative Commons
# Attribution-NonCommercial-ShareAlike 4.0 International License.
# To view a copy of this license, visit
# http://creativecommons.org/licenses/by-nc-sa/4.0/
# or send a letter to
# Creative Commons, PO Box 1866, Mountain View, CA 94042, USA.
#
# CIF created using the CSD Python API on 29 September 2022
# The structure has been converted into the P1 space group
# The structure has a 3D framework
# The original CSD entry ZEXXAE is in the tetragonal crystal system
# The framework has been calculated to contain at least 10.0% void space
# The void calculation uses a probe of radius 1.32A, grid spacing 0.4
# The framework is charged, counterions have been retained in the structure
#
###############################################################################

data_ZEXXAE
_chemical_formula_moiety         '(C368 H384 B32 Fe16 N128)n'
_symmetry_cell_setting           triclinic
_symmetry_space_group_name_H-M   'P 1'
_symmetry_Int_Tables_number      1
_space_group_name_Hall           'P 1'
loop_
_symmetry_equiv_pos_site_id
_symmetry_equiv_pos_as_xyz
1 x,y,z
_cell_length_a                   22.018(3)
_cell_length_b                   22.018(3)
_cell_length_c                   29.028(6)
_cell_angle_alpha                90
_cell_angle_beta                 90
_cell_angle_gamma                90
_cell_volume                     14072.6
loop_
_atom_site_label
_atom_site_type_symbol
_atom_site_fract_x
_atom_site_fract_y
_atom_site_fract_z
Fe1 Fe 0.00058(2) 0.25399(2) 0.12397(2)
N1 N 0.02045(14) 0.24377(12) 0.04918(8)
C2 C 0.03201(18) 0.18857(14) 0.03164(9)
H2 H 0.0291 0.1551 0.0511
C3 C 0.02373(17) 0.29036(15) 0.02008(10)
H3 H 0.0154 0.3289 0.0315
B2 B 0.1322(11) 0.0838(12) 0.1375(9)
H22 H 0.1400 0.0735 0.1059
H23 H 0.1169 0.0489 0.1535
H24 H 0.1692 0.0972 0.1518
N8 N 0.05707(14) 0.17757(13) 0.13750(10)
C23 C 0.0842(3) 0.1358(2) 0.1396(2)
N10 N 0.07972(12) 0.31715(13) 0.13033(9)
N2 N 0.06972(12) 0.21956(11) 0.91000(7)
N3 N 0.19250(12) 0.07812(12) 0.88255(8)
N4 N 0.18285(13) 0.42028(12) 0.86967(9)
N5 N 0.06772(12) 0.27320(12) 0.83805(7)
N6 N 0.01932(13) 0.26336(14) 0.69780(8)
C1 C 0.04795(18) 0.17874(14) 0.98635(10)
H1 H 0.0554 0.1396 0.9758
C4 C 0.03881(17) 0.28536(14) 0.97376(9)
H4 H 0.0395 0.3194 0.9548
C5 C 0.05281(13) 0.22835(13) 0.95638(8)
C6 C 0.11013(13) 0.17270(12) 0.89945(8)
C7 C 0.10355(15) 0.13425(16) 0.86176(10)
H5 H 0.0717 0.1399 0.8412
C8 C 0.14436(17) 0.08781(16) 0.85506(11)
H6 H 0.1383 0.0618 0.8302
C9 C 0.20004(16) 0.11640(15) 0.91774(11)
H7 H 0.2336 0.1111 0.9368
C10 C 0.16066(16) 0.16327(16) 0.92716(11)
H8 H 0.1679 0.1887 0.9521
C11 C 0.03112(13) 0.24525(13) 0.87425(9)
H9 H 0.0045 0.2755 0.8877
H10 H 0.0060 0.2135 0.8610
C12 C 0.1658(2) 0.31357(18) 0.8635(2)
H11 H 0.1814 0.2745 0.8663
C13 C 0.20224(19) 0.36387(18) 0.8722(2)
H12 H 0.2426 0.3572 0.8803
C14 C 0.1251(2) 0.4279(2) 0.8591(3)
H13 H 0.1098 0.4672 0.8587
C15 C 0.08646(19) 0.3811(2) 0.8488(2)
H14 H 0.0466 0.3894 0.8403
C16 C 0.10640(14) 0.32233(13) 0.85091(8)
C17 C 0.05047(13) 0.27006(13) 0.79217(8)
C18 C 0.08678(18) 0.2951(2) 0.75827(10)
H15 H 0.1225 0.3152 0.7662
C19 C 0.06963(18) 0.2902(2) 0.71239(10)
H16 H 0.0953 0.3070 0.6903
Fe4 Fe 0.24601(2) 0.49942(2) 0.87603(2)
Fe2 Fe 0.25399(2) 0.99942(2) 0.87603(2)
B1 B 0.8720(12) 0.4293(13) 0.1009(9)
H19 H 0.8307 0.4177 0.1071
H20 H 0.8746 0.4462 0.0705
H21 H 0.8847 0.4591 0.1231
N7 N 0.94372(13) 0.32904(13) 0.10760(9)
C22 C 0.9156(2) 0.3701(2) 0.10447(19)
N9 N 0.92188(12) 0.19250(12) 0.11745(8)
N11 N 0.98068(13) 0.26336(14) 0.19780(8)
C20 C 0.98425(18) 0.2399(2) 0.73071(10)
H17 H 0.9487 0.2205 0.7217
C21 C 0.99704(17) 0.2425(2) 0.77698(10)
H18 H 0.9701 0.2259 0.7982
Fe3 Fe 0.99942(2) 0.25399(2) 0.62397(2)
B1_2 B 0.1280(12) 0.5707(13) 0.1009(9)
H19_2 H 0.1693 0.5823 0.1071
H20_2 H 0.1254 0.5538 0.0705
H21_2 H 0.1153 0.5409 0.1231
N7_2 N 0.05628(13) 0.67096(13) 0.10760(9)
C22_2 C 0.0844(2) 0.6299(2) 0.10447(19)
N9_2 N 0.07812(12) 0.80750(12) 0.11745(8)
N11_2 N 0.01932(13) 0.73664(14) 0.19780(8)
C20_2 C 0.01575(18) 0.7601(2) 0.73071(10)
H17_2 H 0.0513 0.7795 0.7217
C21_2 C 0.00296(17) 0.7575(2) 0.77698(10)
H18_2 H 0.0299 0.7741 0.7982
Fe3_2 Fe 0.00058(2) 0.74601(2) 0.62397(2)
Fe2_2 Fe 0.74601(2) 0.00058(2) 0.87603(2)
Fe1_2 Fe 0.99942(2) 0.74601(2) 0.12397(2)
N1_2 N 0.97955(14) 0.75623(12) 0.04918(8)
C2_2 C 0.96799(18) 0.81143(14) 0.03164(9)
H2_2 H 0.9709 0.8449 0.0511
C3_2 C 0.97627(17) 0.70964(15) 0.02008(10)
H3_2 H 0.9846 0.6711 0.0315
B2_2 B 0.8678(11) 0.9162(12) 0.1375(9)
H22_2 H 0.8600 0.9265 0.1059
H23_2 H 0.8831 0.9511 0.1535
H24_2 H 0.8308 0.9028 0.1518
N8_2 N 0.94293(14) 0.82243(13) 0.13750(10)
C23_2 C 0.9158(3) 0.8642(2) 0.1396(2)
N10_2 N 0.92028(12) 0.68285(13) 0.13033(9)
N2_2 N 0.93028(12) 0.78044(11) 0.91000(7)
N3_2 N 0.80750(12) 0.92188(12) 0.88255(8)
N4_2 N 0.81715(13) 0.57972(12) 0.86967(9)
N5_2 N 0.93228(12) 0.72680(12) 0.83805(7)
N6_2 N 0.98068(13) 0.73664(14) 0.69780(8)
C1_2 C 0.95205(18) 0.82126(14) 0.98635(10)
H1_2 H 0.9446 0.8604 0.9758
C4_2 C 0.96119(17) 0.71464(14) 0.97376(9)
H4_2 H 0.9605 0.6806 0.9548
C5_2 C 0.94719(13) 0.77165(13) 0.95638(8)
C6_2 C 0.88987(13) 0.82730(12) 0.89945(8)
C7_2 C 0.89645(15) 0.86575(16) 0.86176(10)
H5_2 H 0.9283 0.8601 0.8412
C8_2 C 0.85564(17) 0.91219(16) 0.85506(11)
H6_2 H 0.8617 0.9382 0.8302
C9_2 C 0.79996(16) 0.88360(15) 0.91774(11)
H7_2 H 0.7664 0.8889 0.9368
C10_2 C 0.83934(16) 0.83673(16) 0.92716(11)
H8_2 H 0.8321 0.8113 0.9521
C11_2 C 0.96888(13) 0.75475(13) 0.87425(9)
H9_2 H 0.9955 0.7245 0.8877
H10_2 H 0.9940 0.7865 0.8610
C12_2 C 0.8342(2) 0.68643(18) 0.8635(2)
H11_2 H 0.8186 0.7255 0.8663
C13_2 C 0.79776(19) 0.63613(18) 0.8722(2)
H12_2 H 0.7574 0.6428 0.8803
C14_2 C 0.8749(2) 0.5721(2) 0.8591(3)
H13_2 H 0.8902 0.5328 0.8587
C15_2 C 0.91354(19) 0.6189(2) 0.8488(2)
H14_2 H 0.9534 0.6106 0.8403
C16_2 C 0.89360(14) 0.67767(13) 0.85091(8)
C17_2 C 0.94953(13) 0.72994(13) 0.79217(8)
C18_2 C 0.91322(18) 0.7049(2) 0.75827(10)
H15_2 H 0.8775 0.6848 0.7662
C19_2 C 0.93037(18) 0.7098(2) 0.71239(10)
H16_2 H 0.9047 0.6930 0.6903
Fe4_2 Fe 0.75399(2) 0.50058(2) 0.87603(2)
C20_3 C 0.2399(2) 0.01575(18) 0.26929(10)
H17_3 H 0.2205 0.0513 0.2783
C21_3 C 0.2425(2) 0.00296(17) 0.22302(10)
H18_3 H 0.2259 0.0299 0.2018
Fe3_3 Fe 0.25399(2) 0.00058(2) 0.37603(2)
B1_3 B 0.4293(13) 0.1280(12) 0.8991(9)
H19_3 H 0.4177 0.1693 0.8929
H20_3 H 0.4462 0.1254 0.9295
H21_3 H 0.4591 0.1153 0.8769
N7_3 N 0.32904(13) 0.05628(13) 0.89240(9)
C22_3 C 0.3701(2) 0.0844(2) 0.89553(19)
N11_3 N 0.26336(14) 0.01932(13) 0.80220(8)
N2_3 N 0.21956(11) 0.93028(12) 0.09000(7)
N4_3 N 0.42028(12) 0.81715(13) 0.13033(9)
N5_3 N 0.27320(12) 0.93228(12) 0.16195(7)
N6_3 N 0.26336(14) 0.98068(13) 0.30220(8)
C1_3 C 0.17874(14) 0.95205(18) 0.01365(10)
H1_3 H 0.1396 0.9446 0.0242
C4_3 C 0.28536(14) 0.96119(17) 0.02624(9)
H4_3 H 0.3194 0.9605 0.0452
C5_3 C 0.22835(13) 0.94719(13) 0.04362(8)
C6_3 C 0.17270(12) 0.88987(13) 0.10055(8)
C7_3 C 0.13425(16) 0.89645(15) 0.13824(10)
H5_3 H 0.1399 0.9283 0.1588
C8_3 C 0.08781(16) 0.85564(17) 0.14494(11)
H6_3 H 0.0618 0.8617 0.1698
C9_3 C 0.11640(15) 0.79996(16) 0.08226(11)
H7_3 H 0.1111 0.7664 0.0632
C10_3 C 0.16327(16) 0.83934(16) 0.07284(11)
H8_3 H 0.1887 0.8321 0.0479
C11_3 C 0.24525(13) 0.96888(13) 0.12575(9)
H9_3 H 0.2755 0.9955 0.1123
H10_3 H 0.2135 0.9940 0.1390
C12_3 C 0.31357(18) 0.8342(2) 0.1365(2)
H11_3 H 0.2745 0.8186 0.1337
C13_3 C 0.36387(18) 0.79776(19) 0.1278(2)
H12_3 H 0.3572 0.7574 0.1197
C14_3 C 0.4279(2) 0.8749(2) 0.1409(3)
H13_3 H 0.4672 0.8902 0.1413
C15_3 C 0.3811(2) 0.91354(19) 0.1512(2)
H14_3 H 0.3894 0.9534 0.1597
C16_3 C 0.32233(13) 0.89360(14) 0.14909(8)
C17_3 C 0.27006(13) 0.94953(13) 0.20783(8)
C18_3 C 0.2951(2) 0.91322(18) 0.24173(10)
H15_3 H 0.3152 0.8775 0.2338
C19_3 C 0.2902(2) 0.93037(18) 0.28761(10)
H16_3 H 0.3070 0.9047 0.3097
Fe4_3 Fe 0.49942(2) 0.75399(2) 0.12397(2)
N1_3 N 0.24377(12) 0.97955(14) 0.95082(8)
C2_3 C 0.18857(14) 0.96799(18) 0.96836(9)
H2_3 H 0.1551 0.9709 0.9489
C3_3 C 0.29036(15) 0.97627(17) 0.97992(10)
H3_3 H 0.3289 0.9846 0.9685
B2_3 B 0.0838(12) 0.8678(11) 0.8625(9)
H22_3 H 0.0735 0.8600 0.8941
H23_3 H 0.0489 0.8831 0.8465
H24_3 H 0.0972 0.8308 0.8482
N8_3 N 0.17757(13) 0.94293(14) 0.86250(10)
C23_3 C 0.1358(2) 0.9158(3) 0.8604(2)
N10_3 N 0.31715(13) 0.92028(12) 0.86967(9)
N2_4 N 0.78044(11) 0.06972(12) 0.09000(7)
N4_4 N 0.57972(12) 0.18285(13) 0.13033(9)
N5_4 N 0.72680(12) 0.06772(12) 0.16195(7)
N6_4 N 0.73664(14) 0.01932(13) 0.30220(8)
C1_4 C 0.82126(14) 0.04795(18) 0.01365(10)
H1_4 H 0.8604 0.0554 0.0242
C4_4 C 0.71464(14) 0.03881(17) 0.02624(9)
H4_4 H 0.6806 0.0395 0.0452
C5_4 C 0.77165(13) 0.05281(13) 0.04362(8)
C6_4 C 0.82730(12) 0.11013(13) 0.10055(8)
C7_4 C 0.86575(16) 0.10355(15) 0.13824(10)
H5_4 H 0.8601 0.0717 0.1588
C8_4 C 0.91219(16) 0.14436(17) 0.14494(11)
H6_4 H 0.9382 0.1383 0.1698
C9_4 C 0.88360(15) 0.20004(16) 0.08226(11)
H7_4 H 0.8889 0.2336 0.0632
C10_4 C 0.83673(16) 0.16066(16) 0.07284(11)
H8_4 H 0.8113 0.1679 0.0479
C11_4 C 0.75475(13) 0.03112(13) 0.12575(9)
H9_4 H 0.7245 0.0045 0.1123
H10_4 H 0.7865 0.0060 0.1390
C12_4 C 0.68643(18) 0.1658(2) 0.1365(2)
H11_4 H 0.7255 0.1814 0.1337
C13_4 C 0.63613(18) 0.20224(19) 0.1278(2)
H12_4 H 0.6428 0.2426 0.1197
C14_4 C 0.5721(2) 0.1251(2) 0.1409(3)
H13_4 H 0.5328 0.1098 0.1413
C15_4 C 0.6189(2) 0.08646(19) 0.1512(2)
H14_4 H 0.6106 0.0466 0.1597
C16_4 C 0.67767(13) 0.10640(14) 0.14909(8)
C17_4 C 0.72994(13) 0.05047(13) 0.20783(8)
C18_4 C 0.7049(2) 0.08678(18) 0.24173(10)
H15_4 H 0.6848 0.1225 0.2338
C19_4 C 0.7098(2) 0.06963(18) 0.28761(10)
H16_4 H 0.6930 0.0953 0.3097
Fe4_4 Fe 0.50058(2) 0.24601(2) 0.12397(2)
N1_4 N 0.75623(12) 0.02045(14) 0.95082(8)
C2_4 C 0.81143(14) 0.03201(18) 0.96836(9)
H2_4 H 0.8449 0.0291 0.9489
C3_4 C 0.70964(15) 0.02373(17) 0.97992(10)
H3_4 H 0.6711 0.0154 0.9685
B2_4 B 0.9162(12) 0.1322(11) 0.8625(9)
H22_4 H 0.9265 0.1400 0.8941
H23_4 H 0.9511 0.1169 0.8465
H24_4 H 0.9028 0.1692 0.8482
N8_4 N 0.82243(13) 0.05707(14) 0.86250(10)
C23_4 C 0.8642(2) 0.0842(3) 0.8604(2)
N10_4 N 0.68285(13) 0.07972(12) 0.86967(9)
C20_4 C 0.7601(2) 0.98425(18) 0.26929(10)
H17_4 H 0.7795 0.9487 0.2783
C21_4 C 0.7575(2) 0.99704(17) 0.22302(10)
H18_4 H 0.7741 0.9701 0.2018
Fe3_4 Fe 0.74601(2) 0.99942(2) 0.37603(2)
B1_4 B 0.5707(13) 0.8720(12) 0.8991(9)
H19_4 H 0.5823 0.8307 0.8929
H20_4 H 0.5538 0.8746 0.9295
H21_4 H 0.5409 0.8847 0.8769
N7_4 N 0.67096(13) 0.94372(13) 0.89240(9)
C22_4 C 0.6299(2) 0.9156(2) 0.89553(19)
N11_4 N 0.73664(14) 0.98068(13) 0.80220(8)
N1_5 N 0.02045(14) 0.75623(12) 0.54918(8)
N2_5 N 0.06972(12) 0.78044(11) 0.41000(7)
N3_3 N 0.19250(12) 0.92188(12) 0.38255(8)
N4_5 N 0.18285(13) 0.57972(12) 0.36967(9)
N5_5 N 0.06772(12) 0.72680(12) 0.33805(7)
C1_5 C 0.04795(18) 0.82126(14) 0.48635(10)
H1_5 H 0.0554 0.8604 0.4758
C2_5 C 0.03201(18) 0.81143(14) 0.53164(9)
H2_5 H 0.0291 0.8449 0.5511
C3_5 C 0.02373(17) 0.70964(15) 0.52008(10)
H3_5 H 0.0154 0.6711 0.5315
C4_5 C 0.03881(17) 0.71464(14) 0.47376(9)
H4_5 H 0.0395 0.6806 0.4548
C5_5 C 0.05281(13) 0.77165(13) 0.45638(8)
C6_5 C 0.11013(13) 0.82730(12) 0.39945(8)
C7_5 C 0.10355(15) 0.86575(16) 0.36176(10)
H5_5 H 0.0717 0.8601 0.3412
C8_5 C 0.14436(17) 0.91219(16) 0.35506(11)
H6_5 H 0.1383 0.9382 0.3302
C9_5 C 0.20004(16) 0.88360(15) 0.41774(11)
H7_5 H 0.2336 0.8889 0.4368
C10_5 C 0.16066(16) 0.83673(16) 0.42716(11)
H8_5 H 0.1679 0.8113 0.4521
C11_5 C 0.03112(13) 0.75475(13) 0.37425(9)
H9_5 H 0.0045 0.7245 0.3877
H10_5 H 0.0060 0.7865 0.3610
C12_5 C 0.1658(2) 0.68643(18) 0.3635(2)
H11_5 H 0.1814 0.7255 0.3663
C13_5 C 0.20224(19) 0.63613(18) 0.3722(2)
H12_5 H 0.2426 0.6428 0.3803
C14_5 C 0.1251(2) 0.5721(2) 0.3591(3)
H13_5 H 0.1098 0.5328 0.3587
C15_5 C 0.08646(19) 0.6189(2) 0.3488(2)
H14_5 H 0.0466 0.6106 0.3403
C16_5 C 0.10640(14) 0.67767(13) 0.35091(8)
C17_5 C 0.05047(13) 0.72994(13) 0.29217(8)
C18_5 C 0.08678(18) 0.7049(2) 0.25827(10)
H15_5 H 0.1225 0.6848 0.2662
C19_5 C 0.06963(18) 0.7098(2) 0.21239(10)
H16_5 H 0.0953 0.6930 0.1903
B2_5 B 0.1322(11) 0.9162(12) 0.6375(9)
H22_5 H 0.1400 0.9265 0.6059
H23_5 H 0.1169 0.9511 0.6535
H24_5 H 0.1692 0.9028 0.6518
N8_5 N 0.05707(14) 0.82243(13) 0.63750(10)
C23_5 C 0.0842(3) 0.8642(2) 0.6396(2)
Fe4_5 Fe 0.24601(2) 0.50058(2) 0.37603(2)
N10_5 N 0.07972(12) 0.68285(13) 0.63033(9)
C20_5 C 0.98425(18) 0.7601(2) 0.23071(10)
H17_5 H 0.9487 0.7795 0.2217
C21_5 C 0.99704(17) 0.7575(2) 0.27698(10)
H18_5 H 0.9701 0.7741 0.2982
B1_5 B 0.8720(12) 0.5707(13) 0.6009(9)
H19_5 H 0.8307 0.5823 0.6071
H20_5 H 0.8746 0.5538 0.5705
H21_5 H 0.8847 0.5409 0.6231
N7_5 N 0.94372(13) 0.67096(13) 0.60760(9)
C22_5 C 0.9156(2) 0.6299(2) 0.60447(19)
N9_3 N 0.92188(12) 0.80750(12) 0.61745(8)
C20_6 C 0.01575(18) 0.2399(2) 0.23071(10)
H17_6 H 0.0513 0.2205 0.2217
C21_6 C 0.00296(17) 0.2425(2) 0.27698(10)
H18_6 H 0.0299 0.2259 0.2982
B1_6 B 0.1280(12) 0.4293(13) 0.6009(9)
H19_6 H 0.1693 0.4177 0.6071
H20_6 H 0.1254 0.4462 0.5705
H21_6 H 0.1153 0.4591 0.6231
N7_6 N 0.05628(13) 0.32904(13) 0.60760(9)
C22_6 C 0.0844(2) 0.3701(2) 0.60447(19)
N9_4 N 0.07812(12) 0.19250(12) 0.61745(8)
N1_6 N 0.97955(14) 0.24377(12) 0.54918(8)
N2_6 N 0.93028(12) 0.21956(11) 0.41000(7)
N3_4 N 0.80750(12) 0.07812(12) 0.38255(8)
N4_6 N 0.81715(13) 0.42028(12) 0.36967(9)
N5_6 N 0.93228(12) 0.27320(12) 0.33805(7)
C1_6 C 0.95205(18) 0.17874(14) 0.48635(10)
H1_6 H 0.9446 0.1396 0.4758
C2_6 C 0.96799(18) 0.18857(14) 0.53164(9)
H2_6 H 0.9709 0.1551 0.5511
C3_6 C 0.97627(17) 0.29036(15) 0.52008(10)
H3_6 H 0.9846 0.3289 0.5315
C4_6 C 0.96119(17) 0.28536(14) 0.47376(9)
H4_6 H 0.9605 0.3194 0.4548
C5_6 C 0.94719(13) 0.22835(13) 0.45638(8)
C6_6 C 0.88987(13) 0.17270(12) 0.39945(8)
C7_6 C 0.89645(15) 0.13425(16) 0.36176(10)
H5_6 H 0.9283 0.1399 0.3412
C8_6 C 0.85564(17) 0.08781(16) 0.35506(11)
H6_6 H 0.8617 0.0618 0.3302
C9_6 C 0.79996(16) 0.11640(15) 0.41774(11)
H7_6 H 0.7664 0.1111 0.4368
C10_6 C 0.83934(16) 0.16327(16) 0.42716(11)
H8_6 H 0.8321 0.1887 0.4521
C11_6 C 0.96888(13) 0.24525(13) 0.37425(9)
H9_6 H 0.9955 0.2755 0.3877
H10_6 H 0.9940 0.2135 0.3610
C12_6 C 0.8342(2) 0.31357(18) 0.3635(2)
H11_6 H 0.8186 0.2745 0.3663
C13_6 C 0.79776(19) 0.36387(18) 0.3722(2)
H12_6 H 0.7574 0.3572 0.3803
C14_6 C 0.8749(2) 0.4279(2) 0.3591(3)
H13_6 H 0.8902 0.4672 0.3587
C15_6 C 0.91354(19) 0.3811(2) 0.3488(2)
H14_6 H 0.9534 0.3894 0.3403
C16_6 C 0.89360(14) 0.32233(13) 0.35091(8)
C17_6 C 0.94953(13) 0.27006(13) 0.29217(8)
C18_6 C 0.91322(18) 0.2951(2) 0.25827(10)
H15_6 H 0.8775 0.3152 0.2662
C19_6 C 0.93037(18) 0.2902(2) 0.21239(10)
H16_6 H 0.9047 0.3070 0.1903
B2_6 B 0.8678(11) 0.0838(12) 0.6375(9)
H22_6 H 0.8600 0.0735 0.6059
H23_6 H 0.8831 0.0489 0.6535
H24_6 H 0.8308 0.0972 0.6518
N8_6 N 0.94293(14) 0.17757(13) 0.63750(10)
C23_6 C 0.9158(3) 0.1358(2) 0.6396(2)
Fe4_6 Fe 0.75399(2) 0.49942(2) 0.37603(2)
N10_6 N 0.92028(12) 0.31715(13) 0.63033(9)
N1_7 N 0.24377(12) 0.02045(14) 0.45082(8)
N2_7 N 0.21956(11) 0.06972(12) 0.59000(7)
N4_7 N 0.42028(12) 0.18285(13) 0.63033(9)
N5_7 N 0.27320(12) 0.06772(12) 0.66195(7)
C1_7 C 0.17874(14) 0.04795(18) 0.51365(10)
H1_7 H 0.1396 0.0554 0.5242
C2_7 C 0.18857(14) 0.03201(18) 0.46836(9)
H2_7 H 0.1551 0.0291 0.4489
C3_7 C 0.29036(15) 0.02373(17) 0.47992(10)
H3_7 H 0.3289 0.0154 0.4685
C4_7 C 0.28536(14) 0.03881(17) 0.52624(9)
H4_7 H 0.3194 0.0395 0.5452
C5_7 C 0.22835(13) 0.05281(13) 0.54362(8)
C6_7 C 0.17270(12) 0.11013(13) 0.60055(8)
C7_7 C 0.13425(16) 0.10355(15) 0.63824(10)
H5_7 H 0.1399 0.0717 0.6588
C8_7 C 0.08781(16) 0.14436(17) 0.64494(11)
H6_7 H 0.0618 0.1383 0.6698
C9_7 C 0.11640(15) 0.20004(16) 0.58226(11)
H7_7 H 0.1111 0.2336 0.5632
C10_7 C 0.16327(16) 0.16066(16) 0.57284(11)
H8_7 H 0.1887 0.1679 0.5479
C11_7 C 0.24525(13) 0.03112(13) 0.62575(9)
H9_7 H 0.2755 0.0045 0.6123
H10_7 H 0.2135 0.0060 0.6390
C12_7 C 0.31357(18) 0.1658(2) 0.6365(2)
H11_7 H 0.2745 0.1814 0.6337
C13_7 C 0.36387(18) 0.20224(19) 0.6278(2)
H12_7 H 0.3572 0.2426 0.6197
C14_7 C 0.4279(2) 0.1251(2) 0.6409(3)
H13_7 H 0.4672 0.1098 0.6413
C15_7 C 0.3811(2) 0.08646(19) 0.6512(2)
H14_7 H 0.3894 0.0466 0.6597
C16_7 C 0.32233(13) 0.10640(14) 0.64909(8)
C17_7 C 0.27006(13) 0.05047(13) 0.70783(8)
C18_7 C 0.2951(2) 0.08678(18) 0.74173(10)
H15_7 H 0.3152 0.1225 0.7338
C19_7 C 0.2902(2) 0.06963(18) 0.78761(10)
H16_7 H 0.3070 0.0953 0.8097
B2_7 B 0.0838(12) 0.1322(11) 0.3625(9)
H22_7 H 0.0735 0.1400 0.3941
H23_7 H 0.0489 0.1169 0.3465
H24_7 H 0.0972 0.1692 0.3482
N8_7 N 0.17757(13) 0.05707(14) 0.36250(10)
C23_7 C 0.1358(2) 0.0842(3) 0.3604(2)
Fe4_7 Fe 0.49942(2) 0.24601(2) 0.62397(2)
N10_7 N 0.31715(13) 0.07972(12) 0.36967(9)
C20_7 C 0.2399(2) 0.98425(18) 0.76929(10)
H17_7 H 0.2205 0.9487 0.7783
C21_7 C 0.2425(2) 0.99704(17) 0.72302(10)
H18_7 H 0.2259 0.9701 0.7018
B1_7 B 0.4293(13) 0.8720(12) 0.3991(9)
H19_7 H 0.4177 0.8307 0.3929
H20_7 H 0.4462 0.8746 0.4295
H21_7 H 0.4591 0.8847 0.3769
N7_7 N 0.32904(13) 0.94372(13) 0.39240(9)
C22_7 C 0.3701(2) 0.9156(2) 0.39553(19)
C20_8 C 0.7601(2) 0.01575(18) 0.76929(10)
H17_8 H 0.7795 0.0513 0.7783
C21_8 C 0.7575(2) 0.00296(17) 0.72302(10)
H18_8 H 0.7741 0.0299 0.7018
B1_8 B 0.5707(13) 0.1280(12) 0.3991(9)
H19_8 H 0.5823 0.1693 0.3929
H20_8 H 0.5538 0.1254 0.4295
H21_8 H 0.5409 0.1153 0.3769
N7_8 N 0.67096(13) 0.05628(13) 0.39240(9)
C22_8 C 0.6299(2) 0.0844(2) 0.39553(19)
N1_8 N 0.75623(12) 0.97955(14) 0.45082(8)
N2_8 N 0.78044(11) 0.93028(12) 0.59000(7)
N4_8 N 0.57972(12) 0.81715(13) 0.63033(9)
N5_8 N 0.72680(12) 0.93228(12) 0.66195(7)
C1_8 C 0.82126(14) 0.95205(18) 0.51365(10)
H1_8 H 0.8604 0.9446 0.5242
C2_8 C 0.81143(14) 0.96799(18) 0.46836(9)
H2_8 H 0.8449 0.9709 0.4489
C3_8 C 0.70964(15) 0.97627(17) 0.47992(10)
H3_8 H 0.6711 0.9846 0.4685
C4_8 C 0.71464(14) 0.96119(17) 0.52624(9)
H4_8 H 0.6806 0.9605 0.5452
C5_8 C 0.77165(13) 0.94719(13) 0.54362(8)
C6_8 C 0.82730(12) 0.88987(13) 0.60055(8)
C7_8 C 0.86575(16) 0.89645(15) 0.63824(10)
H5_8 H 0.8601 0.9283 0.6588
C8_8 C 0.91219(16) 0.85564(17) 0.64494(11)
H6_8 H 0.9382 0.8617 0.6698
C9_8 C 0.88360(15) 0.79996(16) 0.58226(11)
H7_8 H 0.8889 0.7664 0.5632
C10_8 C 0.83673(16) 0.83934(16) 0.57284(11)
H8_8 H 0.8113 0.8321 0.5479
C11_8 C 0.75475(13) 0.96888(13) 0.62575(9)
H9_8 H 0.7245 0.9955 0.6123
H10_8 H 0.7865 0.9940 0.6390
C12_8 C 0.68643(18) 0.8342(2) 0.6365(2)
H11_8 H 0.7255 0.8186 0.6337
C13_8 C 0.63613(18) 0.79776(19) 0.6278(2)
H12_8 H 0.6428 0.7574 0.6197
C14_8 C 0.5721(2) 0.8749(2) 0.6409(3)
H13_8 H 0.5328 0.8902 0.6413
C15_8 C 0.6189(2) 0.91354(19) 0.6512(2)
H14_8 H 0.6106 0.9534 0.6597
C16_8 C 0.67767(13) 0.89360(14) 0.64909(8)
C17_8 C 0.72994(13) 0.94953(13) 0.70783(8)
C18_8 C 0.7049(2) 0.91322(18) 0.74173(10)
H15_8 H 0.6848 0.8775 0.7338
C19_8 C 0.7098(2) 0.93037(18) 0.78761(10)
H16_8 H 0.6930 0.9047 0.8097
B2_8 B 0.9162(12) 0.8678(11) 0.3625(9)
H22_8 H 0.9265 0.8600 0.3941
H23_8 H 0.9511 0.8831 0.3465
H24_8 H 0.9028 0.8308 0.3482
N8_8 N 0.82243(13) 0.94293(14) 0.36250(10)
C23_8 C 0.8642(2) 0.9158(3) 0.3604(2)
Fe4_8 Fe 0.50058(2) 0.75399(2) 0.62397(2)
N10_8 N 0.68285(13) 0.92028(12) 0.36967(9)
N1_9 N 0.52045(14) 0.74377(12) 0.54918(8)
N2_9 N 0.56972(12) 0.71956(11) 0.41000(7)
N3_5 N 0.69250(12) 0.57812(12) 0.38255(8)
N5_9 N 0.56772(12) 0.77320(12) 0.33805(7)
N6_5 N 0.51932(13) 0.76336(14) 0.19780(8)
C1_9 C 0.54795(18) 0.67874(14) 0.48635(10)
H1_9 H 0.5554 0.6396 0.4758
C2_9 C 0.53201(18) 0.68857(14) 0.53164(9)
H2_9 H 0.5291 0.6551 0.5511
C3_9 C 0.52373(17) 0.79036(15) 0.52008(10)
H3_9 H 0.5154 0.8289 0.5315
C4_9 C 0.53881(17) 0.78536(14) 0.47376(9)
H4_9 H 0.5395 0.8194 0.4548
C5_9 C 0.55281(13) 0.72835(13) 0.45638(8)
C6_9 C 0.61013(13) 0.67270(12) 0.39945(8)
C7_9 C 0.60355(15) 0.63425(16) 0.36176(10)
H5_9 H 0.5717 0.6399 0.3412
C8_9 C 0.64436(17) 0.58781(16) 0.35506(11)
H6_9 H 0.6383 0.5618 0.3302
C9_9 C 0.70004(16) 0.61640(15) 0.41774(11)
H7_9 H 0.7336 0.6111 0.4368
C10_9 C 0.66066(16) 0.66327(16) 0.42716(11)
H8_9 H 0.6679 0.6887 0.4521
C11_9 C 0.53112(13) 0.74525(13) 0.37425(9)
H9_9 H 0.5045 0.7755 0.3877
H10_9 H 0.5060 0.7135 0.3610
C12_9 C 0.6658(2) 0.81357(18) 0.3635(2)
H11_9 H 0.6814 0.7745 0.3663
C13_9 C 0.70224(19) 0.86387(18) 0.3722(2)
H12_9 H 0.7426 0.8572 0.3803
C14_9 C 0.6251(2) 0.9279(2) 0.3591(3)
H13_9 H 0.6098 0.9672 0.3587
C15_9 C 0.58646(19) 0.8811(2) 0.3488(2)
H14_9 H 0.5466 0.8894 0.3403
C16_9 C 0.60640(14) 0.82233(13) 0.35091(8)
C17_9 C 0.55047(13) 0.77006(13) 0.29217(8)
C18_9 C 0.58678(18) 0.7951(2) 0.25827(10)
H15_9 H 0.6225 0.8152 0.2662
C19_9 C 0.56963(18) 0.7902(2) 0.21239(10)
H16_9 H 0.5953 0.8070 0.1903
C20_9 C 0.48425(18) 0.7399(2) 0.23071(10)
H17_9 H 0.4487 0.7205 0.2217
C21_9 C 0.49704(17) 0.7425(2) 0.27698(10)
H18_9 H 0.4701 0.7259 0.2982
B1_9 B 0.3720(12) 0.9293(13) 0.6009(9)
H19_9 H 0.3307 0.9177 0.6071
H20_9 H 0.3746 0.9462 0.5705
H21_9 H 0.3847 0.9591 0.6231
B2_9 B 0.6322(11) 0.5838(12) 0.6375(9)
H22_9 H 0.6400 0.5735 0.6059
H23_9 H 0.6169 0.5489 0.6535
H24_9 H 0.6692 0.5972 0.6518
N7_9 N 0.44372(13) 0.82904(13) 0.60760(9)
N8_9 N 0.55707(14) 0.67757(13) 0.63750(10)
C22_9 C 0.4156(2) 0.8701(2) 0.60447(19)
C23_9 C 0.5842(3) 0.6358(2) 0.6396(2)
N9_5 N 0.42188(12) 0.69250(12) 0.61745(8)
N11_5 N 0.48068(13) 0.76336(14) 0.69780(8)
N1_10 N 0.47955(14) 0.25623(12) 0.54918(8)
N2_10 N 0.43028(12) 0.28044(11) 0.41000(7)
N3_6 N 0.30750(12) 0.42188(12) 0.38255(8)
N5_10 N 0.43228(12) 0.22680(12) 0.33805(7)
N6_6 N 0.48068(13) 0.23664(14) 0.19780(8)
C1_10 C 0.45205(18) 0.32126(14) 0.48635(10)
H1_10 H 0.4446 0.3604 0.4758
C2_10 C 0.46799(18) 0.31143(14) 0.53164(9)
H2_10 H 0.4709 0.3449 0.5511
C3_10 C 0.47627(17) 0.20964(15) 0.52008(10)
H3_10 H 0.4846 0.1711 0.5315
C4_10 C 0.46119(17) 0.21464(14) 0.47376(9)
H4_10 H 0.4605 0.1806 0.4548
C5_10 C 0.44719(13) 0.27165(13) 0.45638(8)
C6_10 C 0.38987(13) 0.32730(12) 0.39945(8)
C7_10 C 0.39645(15) 0.36575(16) 0.36176(10)
H5_10 H 0.4283 0.3601 0.3412
C8_10 C 0.35564(17) 0.41219(16) 0.35506(11)
H6_10 H 0.3617 0.4382 0.3302
C9_10 C 0.29996(16) 0.38360(15) 0.41774(11)
H7_10 H 0.2664 0.3889 0.4368
C10_10 C 0.33934(16) 0.33673(16) 0.42716(11)
H8_10 H 0.3321 0.3113 0.4521
C11_10 C 0.46888(13) 0.25475(13) 0.37425(9)
H9_10 H 0.4955 0.2245 0.3877
H10_10 H 0.4940 0.2865 0.3610
C12_10 C 0.3342(2) 0.18643(18) 0.3635(2)
H11_10 H 0.3186 0.2255 0.3663
C13_10 C 0.29776(19) 0.13613(18) 0.3722(2)
H12_10 H 0.2574 0.1428 0.3803
C14_10 C 0.3749(2) 0.0721(2) 0.3591(3)
H13_10 H 0.3902 0.0328 0.3587
C15_10 C 0.41354(19) 0.1189(2) 0.3488(2)
H14_10 H 0.4534 0.1106 0.3403
C16_10 C 0.39360(14) 0.17767(13) 0.35091(8)
C17_10 C 0.44953(13) 0.22994(13) 0.29217(8)
C18_10 C 0.41322(18) 0.2049(2) 0.25827(10)
H15_10 H 0.3775 0.1848 0.2662
C19_10 C 0.43037(18) 0.2098(2) 0.21239(10)
H16_10 H 0.4047 0.1930 0.1903
C20_10 C 0.51575(18) 0.2601(2) 0.23071(10)
H17_10 H 0.5513 0.2795 0.2217
C21_10 C 0.50296(17) 0.2575(2) 0.27698(10)
H18_10 H 0.5299 0.2741 0.2982
B1_10 B 0.6280(12) 0.0707(13) 0.6009(9)
H19_10 H 0.6693 0.0823 0.6071
H20_10 H 0.6254 0.0538 0.5705
H21_10 H 0.6153 0.0409 0.6231
B2_10 B 0.3678(11) 0.4162(12) 0.6375(9)
H22_10 H 0.3600 0.4265 0.6059
H23_10 H 0.3831 0.4511 0.6535
H24_10 H 0.3308 0.4028 0.6518
N7_10 N 0.55628(13) 0.17096(13) 0.60760(9)
N8_10 N 0.44293(14) 0.32243(13) 0.63750(10)
C22_10 C 0.5844(2) 0.1299(2) 0.60447(19)
C23_10 C 0.4158(3) 0.3642(2) 0.6396(2)
N9_6 N 0.57812(12) 0.30750(12) 0.61745(8)
N11_6 N 0.51932(13) 0.23664(14) 0.69780(8)
N1_11 N 0.74377(12) 0.47955(14) 0.45082(8)
N2_11 N 0.71956(11) 0.43028(12) 0.59000(7)
N5_11 N 0.77320(12) 0.43228(12) 0.66195(7)
N6_7 N 0.76336(14) 0.48068(13) 0.80220(8)
C1_11 C 0.67874(14) 0.45205(18) 0.51365(10)
H1_11 H 0.6396 0.4446 0.5242
C2_11 C 0.68857(14) 0.46799(18) 0.46836(9)
H2_11 H 0.6551 0.4709 0.4489
C3_11 C 0.79036(15) 0.47627(17) 0.47992(10)
H3_11 H 0.8289 0.4846 0.4685
C4_11 C 0.78536(14) 0.46119(17) 0.52624(9)
H4_11 H 0.8194 0.4605 0.5452
C5_11 C 0.72835(13) 0.44719(13) 0.54362(8)
C6_11 C 0.67270(12) 0.38987(13) 0.60055(8)
C7_11 C 0.63425(16) 0.39645(15) 0.63824(10)
H5_11 H 0.6399 0.4283 0.6588
C8_11 C 0.58781(16) 0.35564(17) 0.64494(11)
H6_11 H 0.5618 0.3617 0.6698
C9_11 C 0.61640(15) 0.29996(16) 0.58226(11)
H7_11 H 0.6111 0.2664 0.5632
C10_11 C 0.66327(16) 0.33934(16) 0.57284(11)
H8_11 H 0.6887 0.3321 0.5479
C11_11 C 0.74525(13) 0.46888(13) 0.62575(9)
H9_11 H 0.7755 0.4955 0.6123
H10_11 H 0.7135 0.4940 0.6390
C12_11 C 0.81357(18) 0.3342(2) 0.6365(2)
H11_11 H 0.7745 0.3186 0.6337
C13_11 C 0.86387(18) 0.29776(19) 0.6278(2)
H12_11 H 0.8572 0.2574 0.6197
C14_11 C 0.9279(2) 0.3749(2) 0.6409(3)
H13_11 H 0.9672 0.3902 0.6413
C15_11 C 0.8811(2) 0.41354(19) 0.6512(2)
H14_11 H 0.8894 0.4534 0.6597
C16_11 C 0.82233(13) 0.39360(14) 0.64909(8)
C17_11 C 0.77006(13) 0.44953(13) 0.70783(8)
C18_11 C 0.7951(2) 0.41322(18) 0.74173(10)
H15_11 H 0.8152 0.3775 0.7338
C19_11 C 0.7902(2) 0.43037(18) 0.78761(10)
H16_11 H 0.8070 0.4047 0.8097
C20_11 C 0.7399(2) 0.51575(18) 0.76929(10)
H17_11 H 0.7205 0.5513 0.7783
C21_11 C 0.7425(2) 0.50296(17) 0.72302(10)
H18_11 H 0.7259 0.5299 0.7018
B1_11 B 0.9293(13) 0.6280(12) 0.3991(9)
H19_11 H 0.9177 0.6693 0.3929
H20_11 H 0.9462 0.6254 0.4295
H21_11 H 0.9591 0.6153 0.3769
B2_11 B 0.5838(12) 0.3678(11) 0.3625(9)
H22_11 H 0.5735 0.3600 0.3941
H23_11 H 0.5489 0.3831 0.3465
H24_11 H 0.5972 0.3308 0.3482
N7_11 N 0.82904(13) 0.55628(13) 0.39240(9)
N8_11 N 0.67757(13) 0.44293(14) 0.36250(10)
C22_11 C 0.8701(2) 0.5844(2) 0.39553(19)
C23_11 C 0.6358(2) 0.4158(3) 0.3604(2)
N11_7 N 0.76336(14) 0.51932(13) 0.30220(8)
N1_12 N 0.25623(12) 0.52045(14) 0.45082(8)
N2_12 N 0.28044(11) 0.56972(12) 0.59000(7)
N5_12 N 0.22680(12) 0.56772(12) 0.66195(7)
N6_8 N 0.23664(14) 0.51932(13) 0.80220(8)
C1_12 C 0.32126(14) 0.54795(18) 0.51365(10)
H1_12 H 0.3604 0.5554 0.5242
C2_12 C 0.31143(14) 0.53201(18) 0.46836(9)
H2_12 H 0.3449 0.5291 0.4489
C3_12 C 0.20964(15) 0.52373(17) 0.47992(10)
H3_12 H 0.1711 0.5154 0.4685
C4_12 C 0.21464(14) 0.53881(17) 0.52624(9)
H4_12 H 0.1806 0.5395 0.5452
C5_12 C 0.27165(13) 0.55281(13) 0.54362(8)
C6_12 C 0.32730(12) 0.61013(13) 0.60055(8)
C7_12 C 0.36575(16) 0.60355(15) 0.63824(10)
H5_12 H 0.3601 0.5717 0.6588
C8_12 C 0.41219(16) 0.64436(17) 0.64494(11)
H6_12 H 0.4382 0.6383 0.6698
C9_12 C 0.38360(15) 0.70004(16) 0.58226(11)
H7_12 H 0.3889 0.7336 0.5632
C10_12 C 0.33673(16) 0.66066(16) 0.57284(11)
H8_12 H 0.3113 0.6679 0.5479
C11_12 C 0.25475(13) 0.53112(13) 0.62575(9)
H9_12 H 0.2245 0.5045 0.6123
H10_12 H 0.2865 0.5060 0.6390
C12_12 C 0.18643(18) 0.6658(2) 0.6365(2)
H11_12 H 0.2255 0.6814 0.6337
C13_12 C 0.13613(18) 0.70224(19) 0.6278(2)
H12_12 H 0.1428 0.7426 0.6197
C14_12 C 0.0721(2) 0.6251(2) 0.6409(3)
H13_12 H 0.0328 0.6098 0.6413
C15_12 C 0.1189(2) 0.58646(19) 0.6512(2)
H14_12 H 0.1106 0.5466 0.6597
C16_12 C 0.17767(13) 0.60640(14) 0.64909(8)
C17_12 C 0.22994(13) 0.55047(13) 0.70783(8)
C18_12 C 0.2049(2) 0.58678(18) 0.74173(10)
H15_12 H 0.1848 0.6225 0.7338
C19_12 C 0.2098(2) 0.56963(18) 0.78761(10)
H16_12 H 0.1930 0.5953 0.8097
C20_12 C 0.2601(2) 0.48425(18) 0.76929(10)
H17_12 H 0.2795 0.4487 0.7783
C21_12 C 0.2575(2) 0.49704(17) 0.72302(10)
H18_12 H 0.2741 0.4701 0.7018
B1_12 B 0.0707(13) 0.3720(12) 0.3991(9)
H19_12 H 0.0823 0.3307 0.3929
H20_12 H 0.0538 0.3746 0.4295
H21_12 H 0.0409 0.3847 0.3769
B2_12 B 0.4162(12) 0.6322(11) 0.3625(9)
H22_12 H 0.4265 0.6400 0.3941
H23_12 H 0.4511 0.6169 0.3465
H24_12 H 0.4028 0.6692 0.3482
N7_12 N 0.17096(13) 0.44372(13) 0.39240(9)
N8_12 N 0.32243(13) 0.55707(14) 0.36250(10)
C22_12 C 0.1299(2) 0.4156(2) 0.39553(19)
C23_12 C 0.3642(2) 0.5842(3) 0.3604(2)
N11_8 N 0.23664(14) 0.48068(13) 0.30220(8)
N1_13 N 0.52045(14) 0.25623(12) 0.04918(8)
C2_13 C 0.53201(18) 0.31143(14) 0.03164(9)
H2_13 H 0.5291 0.3449 0.0511
C3_13 C 0.52373(17) 0.20964(15) 0.02008(10)
H3_13 H 0.5154 0.1711 0.0315
B1_13 B 0.3720(12) 0.0707(13) 0.1009(9)
H19_13 H 0.3307 0.0823 0.1071
H20_13 H 0.3746 0.0538 0.0705
H21_13 H 0.3847 0.0409 0.1231
B2_13 B 0.6322(11) 0.4162(12) 0.1375(9)
H22_13 H 0.6400 0.4265 0.1059
H23_13 H 0.6169 0.4511 0.1535
H24_13 H 0.6692 0.4028 0.1518
N7_13 N 0.44372(13) 0.17096(13) 0.10760(9)
N8_13 N 0.55707(14) 0.32243(13) 0.13750(10)
C22_13 C 0.4156(2) 0.1299(2) 0.10447(19)
C23_13 C 0.5842(3) 0.3642(2) 0.1396(2)
N9_7 N 0.42188(12) 0.30750(12) 0.11745(8)
N2_13 N 0.56972(12) 0.28044(11) 0.91000(7)
N3_7 N 0.69250(12) 0.42188(12) 0.88255(8)
N5_13 N 0.56772(12) 0.22680(12) 0.83805(7)
C1_13 C 0.54795(18) 0.32126(14) 0.98635(10)
H1_13 H 0.5554 0.3604 0.9758
C4_13 C 0.53881(17) 0.21464(14) 0.97376(9)
H4_13 H 0.5395 0.1806 0.9548
C5_13 C 0.55281(13) 0.27165(13) 0.95638(8)
C6_13 C 0.61013(13) 0.32730(12) 0.89945(8)
C7_13 C 0.60355(15) 0.36575(16) 0.86176(10)
H5_13 H 0.5717 0.3601 0.8412
C8_13 C 0.64436(17) 0.41219(16) 0.85506(11)
H6_13 H 0.6383 0.4382 0.8302
C9_13 C 0.70004(16) 0.38360(15) 0.91774(11)
H7_13 H 0.7336 0.3889 0.9368
C10_13 C 0.66066(16) 0.33673(16) 0.92716(11)
H8_13 H 0.6679 0.3113 0.9521
C11_13 C 0.53112(13) 0.25475(13) 0.87425(9)
H9_13 H 0.5045 0.2245 0.8877
H10_13 H 0.5060 0.2865 0.8610
C12_13 C 0.6658(2) 0.18643(18) 0.8635(2)
H11_13 H 0.6814 0.2255 0.8663
C13_13 C 0.70224(19) 0.13613(18) 0.8722(2)
H12_13 H 0.7426 0.1428 0.8803
C14_13 C 0.6251(2) 0.0721(2) 0.8591(3)
H13_13 H 0.6098 0.0328 0.8587
C15_13 C 0.58646(19) 0.1189(2) 0.8488(2)
H14_13 H 0.5466 0.1106 0.8403
C16_13 C 0.60640(14) 0.17767(13) 0.85091(8)
C17_13 C 0.55047(13) 0.22994(13) 0.79217(8)
C18_13 C 0.58678(18) 0.2049(2) 0.75827(10)
H15_13 H 0.6225 0.1848 0.7662
C19_13 C 0.56963(18) 0.2098(2) 0.71239(10)
H16_13 H 0.5953 0.1930 0.6903
C20_13 C 0.48425(18) 0.2601(2) 0.73071(10)
H17_13 H 0.4487 0.2795 0.7217
C21_13 C 0.49704(17) 0.2575(2) 0.77698(10)
H18_13 H 0.4701 0.2741 0.7982
N1_14 N 0.47955(14) 0.74377(12) 0.04918(8)
C2_14 C 0.46799(18) 0.68857(14) 0.03164(9)
H2_14 H 0.4709 0.6551 0.0511
C3_14 C 0.47627(17) 0.79036(15) 0.02008(10)
H3_14 H 0.4846 0.8289 0.0315
B1_14 B 0.6280(12) 0.9293(13) 0.1009(9)
H19_14 H 0.6693 0.9177 0.1071
H20_14 H 0.6254 0.9462 0.0705
H21_14 H 0.6153 0.9591 0.1231
B2_14 B 0.3678(11) 0.5838(12) 0.1375(9)
H22_14 H 0.3600 0.5735 0.1059
H23_14 H 0.3831 0.5489 0.1535
H24_14 H 0.3308 0.5972 0.1518
N7_14 N 0.55628(13) 0.82904(13) 0.10760(9)
N8_14 N 0.44293(14) 0.67757(13) 0.13750(10)
C22_14 C 0.5844(2) 0.8701(2) 0.10447(19)
C23_14 C 0.4158(3) 0.6358(2) 0.1396(2)
N9_8 N 0.57812(12) 0.69250(12) 0.11745(8)
N2_14 N 0.43028(12) 0.71956(11) 0.91000(7)
N3_8 N 0.30750(12) 0.57812(12) 0.88255(8)
N5_14 N 0.43228(12) 0.77320(12) 0.83805(7)
C1_14 C 0.45205(18) 0.67874(14) 0.98635(10)
H1_14 H 0.4446 0.6396 0.9758
C4_14 C 0.46119(17) 0.78536(14) 0.97376(9)
H4_14 H 0.4605 0.8194 0.9548
C5_14 C 0.44719(13) 0.72835(13) 0.95638(8)
C6_14 C 0.38987(13) 0.67270(12) 0.89945(8)
C7_14 C 0.39645(15) 0.63425(16) 0.86176(10)
H5_14 H 0.4283 0.6399 0.8412
C8_14 C 0.35564(17) 0.58781(16) 0.85506(11)
H6_14 H 0.3617 0.5618 0.8302
C9_14 C 0.29996(16) 0.61640(15) 0.91774(11)
H7_14 H 0.2664 0.6111 0.9368
C10_14 C 0.33934(16) 0.66327(16) 0.92716(11)
H8_14 H 0.3321 0.6887 0.9521
C11_14 C 0.46888(13) 0.74525(13) 0.87425(9)
H9_14 H 0.4955 0.7755 0.8877
H10_14 H 0.4940 0.7135 0.8610
C12_14 C 0.3342(2) 0.81357(18) 0.8635(2)
H11_14 H 0.3186 0.7745 0.8663
C13_14 C 0.29776(19) 0.86387(18) 0.8722(2)
H12_14 H 0.2574 0.8572 0.8803
C14_14 C 0.3749(2) 0.9279(2) 0.8591(3)
H13_14 H 0.3902 0.9672 0.8587
C15_14 C 0.41354(19) 0.8811(2) 0.8488(2)
H14_14 H 0.4534 0.8894 0.8403
C16_14 C 0.39360(14) 0.82233(13) 0.85091(8)
C17_14 C 0.44953(13) 0.77006(13) 0.79217(8)
C18_14 C 0.41322(18) 0.7951(2) 0.75827(10)
H15_14 H 0.3775 0.8152 0.7662
C19_14 C 0.43037(18) 0.7902(2) 0.71239(10)
H16_14 H 0.4047 0.8070 0.6903
C20_14 C 0.51575(18) 0.7399(2) 0.73071(10)
H17_14 H 0.5513 0.7205 0.7217
C21_14 C 0.50296(17) 0.7425(2) 0.77698(10)
H18_14 H 0.5299 0.7259 0.7982
N2_15 N 0.71956(11) 0.56972(12) 0.09000(7)
N5_15 N 0.77320(12) 0.56772(12) 0.16195(7)
C1_15 C 0.67874(14) 0.54795(18) 0.01365(10)
H1_15 H 0.6396 0.5554 0.0242
C4_15 C 0.78536(14) 0.53881(17) 0.02624(9)
H4_15 H 0.8194 0.5395 0.0452
C5_15 C 0.72835(13) 0.55281(13) 0.04362(8)
C6_15 C 0.67270(12) 0.61013(13) 0.10055(8)
C7_15 C 0.63425(16) 0.60355(15) 0.13824(10)
H5_15 H 0.6399 0.5717 0.1588
C8_15 C 0.58781(16) 0.64436(17) 0.14494(11)
H6_15 H 0.5618 0.6383 0.1698
C9_15 C 0.61640(15) 0.70004(16) 0.08226(11)
H7_15 H 0.6111 0.7336 0.0632
C10_15 C 0.66327(16) 0.66066(16) 0.07284(11)
H8_15 H 0.6887 0.6679 0.0479
C11_15 C 0.74525(13) 0.53112(13) 0.12575(9)
H9_15 H 0.7755 0.5045 0.1123
H10_15 H 0.7135 0.5060 0.1390
C12_15 C 0.81357(18) 0.6658(2) 0.1365(2)
H11_15 H 0.7745 0.6814 0.1337
C13_15 C 0.86387(18) 0.70224(19) 0.1278(2)
H12_15 H 0.8572 0.7426 0.1197
C14_15 C 0.9279(2) 0.6251(2) 0.1409(3)
H13_15 H 0.9672 0.6098 0.1413
C15_15 C 0.8811(2) 0.58646(19) 0.1512(2)
H14_15 H 0.8894 0.5466 0.1597
C16_15 C 0.82233(13) 0.60640(14) 0.14909(8)
C17_15 C 0.77006(13) 0.55047(13) 0.20783(8)
C18_15 C 0.7951(2) 0.58678(18) 0.24173(10)
H15_15 H 0.8152 0.6225 0.2338
C19_15 C 0.7902(2) 0.56963(18) 0.28761(10)
H16_15 H 0.8070 0.5953 0.3097
C20_15 C 0.7399(2) 0.48425(18) 0.26929(10)
H17_15 H 0.7205 0.4487 0.2783
C21_15 C 0.7425(2) 0.49704(17) 0.22302(10)
H18_15 H 0.7259 0.4701 0.2018
N1_15 N 0.74377(12) 0.52045(14) 0.95082(8)
C2_15 C 0.68857(14) 0.53201(18) 0.96836(9)
H2_15 H 0.6551 0.5291 0.9489
C3_15 C 0.79036(15) 0.52373(17) 0.97992(10)
H3_15 H 0.8289 0.5154 0.9685
B1_15 B 0.9293(13) 0.3720(12) 0.8991(9)
H19_15 H 0.9177 0.3307 0.8929
H20_15 H 0.9462 0.3746 0.9295
H21_15 H 0.9591 0.3847 0.8769
B2_15 B 0.5838(12) 0.6322(11) 0.8625(9)
H22_15 H 0.5735 0.6400 0.8941
H23_15 H 0.5489 0.6169 0.8465
H24_15 H 0.5972 0.6692 0.8482
N7_15 N 0.82904(13) 0.44372(13) 0.89240(9)
N8_15 N 0.67757(13) 0.55707(14) 0.86250(10)
C22_15 C 0.8701(2) 0.4156(2) 0.89553(19)
C23_15 C 0.6358(2) 0.5842(3) 0.8604(2)
N2_16 N 0.28044(11) 0.43028(12) 0.09000(7)
N5_16 N 0.22680(12) 0.43228(12) 0.16195(7)
C1_16 C 0.32126(14) 0.45205(18) 0.01365(10)
H1_16 H 0.3604 0.4446 0.0242
C4_16 C 0.21464(14) 0.46119(17) 0.02624(9)
H4_16 H 0.1806 0.4605 0.0452
C5_16 C 0.27165(13) 0.44719(13) 0.04362(8)
C6_16 C 0.32730(12) 0.38987(13) 0.10055(8)
C7_16 C 0.36575(16) 0.39645(15) 0.13824(10)
H5_16 H 0.3601 0.4283 0.1588
C8_16 C 0.41219(16) 0.35564(17) 0.14494(11)
H6_16 H 0.4382 0.3617 0.1698
C9_16 C 0.38360(15) 0.29996(16) 0.08226(11)
H7_16 H 0.3889 0.2664 0.0632
C10_16 C 0.33673(16) 0.33934(16) 0.07284(11)
H8_16 H 0.3113 0.3321 0.0479
C11_16 C 0.25475(13) 0.46888(13) 0.12575(9)
H9_16 H 0.2245 0.4955 0.1123
H10_16 H 0.2865 0.4940 0.1390
C12_16 C 0.18643(18) 0.3342(2) 0.1365(2)
H11_16 H 0.2255 0.3186 0.1337
C13_16 C 0.13613(18) 0.29776(19) 0.1278(2)
H12_16 H 0.1428 0.2574 0.1197
C14_16 C 0.0721(2) 0.3749(2) 0.1409(3)
H13_16 H 0.0328 0.3902 0.1413
C15_16 C 0.1189(2) 0.41354(19) 0.1512(2)
H14_16 H 0.1106 0.4534 0.1597
C16_16 C 0.17767(13) 0.39360(14) 0.14909(8)
C17_16 C 0.22994(13) 0.44953(13) 0.20783(8)
C18_16 C 0.2049(2) 0.41322(18) 0.24173(10)
H15_16 H 0.1848 0.3775 0.2338
C19_16 C 0.2098(2) 0.43037(18) 0.28761(10)
H16_16 H 0.1930 0.4047 0.3097
C20_16 C 0.2601(2) 0.51575(18) 0.26929(10)
H17_16 H 0.2795 0.5513 0.2783
C21_16 C 0.2575(2) 0.50296(17) 0.22302(10)
H18_16 H 0.2741 0.5299 0.2018
N1_16 N 0.25623(12) 0.47955(14) 0.95082(8)
C2_16 C 0.31143(14) 0.46799(18) 0.96836(9)
H2_16 H 0.3449 0.4709 0.9489
C3_16 C 0.20964(15) 0.47627(17) 0.97992(10)
H3_16 H 0.1711 0.4846 0.9685
B1_16 B 0.0707(13) 0.6280(12) 0.8991(9)
H19_16 H 0.0823 0.6693 0.8929
H20_16 H 0.0538 0.6254 0.9295
H21_16 H 0.0409 0.6153 0.8769
B2_16 B 0.4162(12) 0.3678(11) 0.8625(9)
H22_16 H 0.4265 0.3600 0.8941
H23_16 H 0.4511 0.3831 0.8465
H24_16 H 0.4028 0.3308 0.8482
N7_16 N 0.17096(13) 0.55628(13) 0.89240(9)
N8_16 N 0.32243(13) 0.44293(14) 0.86250(10)
C22_16 C 0.1299(2) 0.5844(2) 0.89553(19)
C23_16 C 0.3642(2) 0.4158(3) 0.8604(2)
loop_
_geom_bond_atom_site_label_1
_geom_bond_atom_site_label_2
_geom_bond_site_symmetry_1
_geom_bond_site_symmetry_2
Fe1 N1 1_555 1_555
N1 C2 1_555 1_555
H2 C2 1_555 1_555
C3 N1 1_555 1_555
H3 C3 1_555 1_555
B2 H22 1_555 1_555
H23 B2 1_555 1_555
H24 B2 1_555 1_555
N8 Fe1 1_555 1_555
C23 B2 1_555 1_555
N10 Fe1 1_555 1_555
N8 C23 1_555 1_555
N2 C5 1_555 1_555
N3 C8 1_555 1_555
N4 C13 1_555 1_555
N5 C11 1_555 1_555
N6 C19 1_555 1_555
C1 H1 1_555 1_555
H4 C4 1_555 1_555
C5 C1 1_555 1_555
C6 N2 1_555 1_555
C7 C6 1_555 1_555
H5 C7 1_555 1_555
C8 C7 1_555 1_555
H6 C8 1_555 1_555
C9 N3 1_555 1_555
H7 C9 1_555 1_555
C10 C6 1_555 1_555
H8 C10 1_555 1_555
C11 N2 1_555 1_555
H9 C11 1_555 1_555
H10 C11 1_555 1_555
C12 H11 1_555 1_555
C13 C12 1_555 1_555
H12 C13 1_555 1_555
C14 N4 1_555 1_555
H13 C14 1_555 1_555
C15 C14 1_555 1_555
H14 C15 1_555 1_555
C16 N5 1_555 1_555
C17 N5 1_555 1_555
C18 C17 1_555 1_555
H15 C18 1_555 1_555
C19 C18 1_555 1_555
H16 C19 1_555 1_555
Fe4 N4 1_555 1_555
C4 C5 1_555 1_555
C9 C10 1_555 1_555
C12 C16 1_555 1_555
C15 C16 1_555 1_555
B1 H19 1_555 1_555
H20 B1 1_555 1_555
H21 B1 1_555 1_555
C22 B1 1_555 1_555
N7 C22 1_555 1_555
H17 C20 1_555 1_555
H18 C21 1_555 1_555
C20 C21 1_555 1_555
B1_2 H19_2 1_555 1_555
H20_2 B1_2 1_555 1_555
H21_2 B1_2 1_555 1_555
C22_2 B1_2 1_555 1_555
N7_2 C22_2 1_555 1_555
H17_2 C20_2 1_555 1_555
H18_2 C21_2 1_555 1_555
C20_2 C21_2 1_555 1_555
Fe1_2 N1_2 1_555 1_555
N1_2 C2_2 1_555 1_555
H2_2 C2_2 1_555 1_555
C3_2 N1_2 1_555 1_555
H3_2 C3_2 1_555 1_555
B2_2 H22_2 1_555 1_555
H23_2 B2_2 1_555 1_555
H24_2 B2_2 1_555 1_555
N8_2 Fe1_2 1_555 1_555
C23_2 B2_2 1_555 1_555
N10_2 Fe1_2 1_555 1_555
N8_2 C23_2 1_555 1_555
N2_2 C5_2 1_555 1_555
N3_2 C8_2 1_555 1_555
N4_2 C13_2 1_555 1_555
N5_2 C11_2 1_555 1_555
N6_2 C19_2 1_555 1_555
C1_2 H1_2 1_555 1_555
H4_2 C4_2 1_555 1_555
C5_2 C1_2 1_555 1_555
C6_2 N2_2 1_555 1_555
C7_2 C6_2 1_555 1_555
H5_2 C7_2 1_555 1_555
C8_2 C7_2 1_555 1_555
H6_2 C8_2 1_555 1_555
C9_2 N3_2 1_555 1_555
H7_2 C9_2 1_555 1_555
C10_2 C6_2 1_555 1_555
H8_2 C10_2 1_555 1_555
C11_2 N2_2 1_555 1_555
H9_2 C11_2 1_555 1_555
H10_2 C11_2 1_555 1_555
C12_2 H11_2 1_555 1_555
C13_2 C12_2 1_555 1_555
H12_2 C13_2 1_555 1_555
C14_2 N4_2 1_555 1_555
H13_2 C14_2 1_555 1_555
C15_2 C14_2 1_555 1_555
H14_2 C15_2 1_555 1_555
C16_2 N5_2 1_555 1_555
C17_2 N5_2 1_555 1_555
C18_2 C17_2 1_555 1_555
H15_2 C18_2 1_555 1_555
C19_2 C18_2 1_555 1_555
H16_2 C19_2 1_555 1_555
Fe4_2 N4_2 1_555 1_555
C4_2 C5_2 1_555 1_555
C9_2 C10_2 1_555 1_555
C12_2 C16_2 1_555 1_555
C15_2 C16_2 1_555 1_555
H17_3 C20_3 1_555 1_555
H18_3 C21_3 1_555 1_555
C20_3 C21_3 1_555 1_555
B1_3 H19_3 1_555 1_555
H20_3 B1_3 1_555 1_555
H21_3 B1_3 1_555 1_555
C22_3 B1_3 1_555 1_555
N7_3 C22_3 1_555 1_555
N2_3 C5_3 1_555 1_555
N9_2 C8_3 1_555 1_555
N4_3 C13_3 1_555 1_555
N5_3 C11_3 1_555 1_555
N6_3 C19_3 1_555 1_555
C1_3 H1_3 1_555 1_555
H4_3 C4_3 1_555 1_555
C5_3 C1_3 1_555 1_555
C6_3 N2_3 1_555 1_555
C7_3 C6_3 1_555 1_555
H5_3 C7_3 1_555 1_555
C8_3 C7_3 1_555 1_555
H6_3 C8_3 1_555 1_555
C9_3 N9_2 1_555 1_555
H7_3 C9_3 1_555 1_555
C10_3 C6_3 1_555 1_555
H8_3 C10_3 1_555 1_555
C11_3 N2_3 1_555 1_555
H9_3 C11_3 1_555 1_555
H10_3 C11_3 1_555 1_555
C12_3 H11_3 1_555 1_555
C13_3 C12_3 1_555 1_555
H12_3 C13_3 1_555 1_555
C14_3 N4_3 1_555 1_555
H13_3 C14_3 1_555 1_555
C15_3 C14_3 1_555 1_555
H14_3 C15_3 1_555 1_555
C16_3 N5_3 1_555 1_555
C17_3 N5_3 1_555 1_555
C18_3 C17_3 1_555 1_555
H15_3 C18_3 1_555 1_555
C19_3 C18_3 1_555 1_555
H16_3 C19_3 1_555 1_555
Fe4_3 N4_3 1_555 1_555
C4_3 C5_3 1_555 1_555
C9_3 C10_3 1_555 1_555
C12_3 C16_3 1_555 1_555
C15_3 C16_3 1_555 1_555
Fe2 N1_3 1_555 1_555
N1_3 C2_3 1_555 1_555
H2_3 C2_3 1_555 1_555
C3_3 N1_3 1_555 1_555
H3_3 C3_3 1_555 1_555
B2_3 H22_3 1_555 1_555
H23_3 B2_3 1_555 1_555
H24_3 B2_3 1_555 1_555
N8_3 Fe2 1_555 1_555
C23_3 B2_3 1_555 1_555
N10_3 Fe2 1_555 1_555
N8_3 C23_3 1_555 1_555
N2_4 C5_4 1_555 1_555
N9 C8_4 1_555 1_555
N4_4 C13_4 1_555 1_555
N5_4 C11_4 1_555 1_555
N6_4 C19_4 1_555 1_555
C1_4 H1_4 1_555 1_555
H4_4 C4_4 1_555 1_555
C5_4 C1_4 1_555 1_555
C6_4 N2_4 1_555 1_555
C7_4 C6_4 1_555 1_555
H5_4 C7_4 1_555 1_555
C8_4 C7_4 1_555 1_555
H6_4 C8_4 1_555 1_555
C9_4 N9 1_555 1_555
H7_4 C9_4 1_555 1_555
C10_4 C6_4 1_555 1_555
H8_4 C10_4 1_555 1_555
C11_4 N2_4 1_555 1_555
H9_4 C11_4 1_555 1_555
H10_4 C11_4 1_555 1_555
C12_4 H11_4 1_555 1_555
C13_4 C12_4 1_555 1_555
H12_4 C13_4 1_555 1_555
C14_4 N4_4 1_555 1_555
H13_4 C14_4 1_555 1_555
C15_4 C14_4 1_555 1_555
H14_4 C15_4 1_555 1_555
C16_4 N5_4 1_555 1_555
C17_4 N5_4 1_555 1_555
C18_4 C17_4 1_555 1_555
H15_4 C18_4 1_555 1_555
C19_4 C18_4 1_555 1_555
H16_4 C19_4 1_555 1_555
Fe4_4 N4_4 1_555 1_555
C4_4 C5_4 1_555 1_555
C9_4 C10_4 1_555 1_555
C12_4 C16_4 1_555 1_555
C15_4 C16_4 1_555 1_555
Fe2_2 N1_4 1_555 1_555
N1_4 C2_4 1_555 1_555
H2_4 C2_4 1_555 1_555
C3_4 N1_4 1_555 1_555
H3_4 C3_4 1_555 1_555
B2_4 H22_4 1_555 1_555
H23_4 B2_4 1_555 1_555
H24_4 B2_4 1_555 1_555
N8_4 Fe2_2 1_555 1_555
C23_4 B2_4 1_555 1_555
N10_4 Fe2_2 1_555 1_555
N8_4 C23_4 1_555 1_555
H17_4 C20_4 1_555 1_555
H18_4 C21_4 1_555 1_555
C20_4 C21_4 1_555 1_555
B1_4 H19_4 1_555 1_555
H20_4 B1_4 1_555 1_555
H21_4 B1_4 1_555 1_555
C22_4 B1_4 1_555 1_555
N7_4 C22_4 1_555 1_555
Fe3_2 N1_5 1_555 1_555
N1_5 C2_5 1_555 1_555
N2_5 C5_5 1_555 1_555
N3_3 C8_5 1_555 1_555
N4_5 C13_5 1_555 1_555
N5_5 C11_5 1_555 1_555
N11_2 C19_5 1_555 1_555
C1_5 H1_5 1_555 1_555
C2_5 C1_5 1_555 1_555
H2_5 C2_5 1_555 1_555
C3_5 N1_5 1_555 1_555
H3_5 C3_5 1_555 1_555
C4_5 C3_5 1_555 1_555
H4_5 C4_5 1_555 1_555
C5_5 C1_5 1_555 1_555
C6_5 N2_5 1_555 1_555
C7_5 C6_5 1_555 1_555
H5_5 C7_5 1_555 1_555
C8_5 C7_5 1_555 1_555
H6_5 C8_5 1_555 1_555
C9_5 N3_3 1_555 1_555
H7_5 C9_5 1_555 1_555
C10_5 C6_5 1_555 1_555
H8_5 C10_5 1_555 1_555
C11_5 N2_5 1_555 1_555
H9_5 C11_5 1_555 1_555
H10_5 C11_5 1_555 1_555
C12_5 H11_5 1_555 1_555
C13_5 C12_5 1_555 1_555
H12_5 C13_5 1_555 1_555
C14_5 N4_5 1_555 1_555
H13_5 C14_5 1_555 1_555
C15_5 C14_5 1_555 1_555
H14_5 C15_5 1_555 1_555
C16_5 N5_5 1_555 1_555
C17_5 N5_5 1_555 1_555
C18_5 C17_5 1_555 1_555
H15_5 C18_5 1_555 1_555
C19_5 C18_5 1_555 1_555
H16_5 C19_5 1_555 1_555
B2_5 H22_5 1_555 1_555
H23_5 B2_5 1_555 1_555
H24_5 B2_5 1_555 1_555
N8_5 Fe3_2 1_555 1_555
C23_5 B2_5 1_555 1_555
Fe4_5 N4_5 1_555 1_555
N10_5 Fe3_2 1_555 1_555
C4_5 C5_5 1_555 1_555
C9_5 C10_5 1_555 1_555
C12_5 C16_5 1_555 1_555
C15_5 C16_5 1_555 1_555
N8_5 C23_5 1_555 1_555
H17_5 C20_5 1_555 1_555
H18_5 C21_5 1_555 1_555
B1_5 H19_5 1_555 1_555
H20_5 B1_5 1_555 1_555
H21_5 B1_5 1_555 1_555
C22_5 B1_5 1_555 1_555
C20_5 C21_5 1_555 1_555
N7_5 C22_5 1_555 1_555
H17_6 C20_6 1_555 1_555
H18_6 C21_6 1_555 1_555
B1_6 H19_6 1_555 1_555
H20_6 B1_6 1_555 1_555
H21_6 B1_6 1_555 1_555
C22_6 B1_6 1_555 1_555
C20_6 C21_6 1_555 1_555
N7_6 C22_6 1_555 1_555
Fe3 N1_6 1_555 1_555
N1_6 C2_6 1_555 1_555
N2_6 C5_6 1_555 1_555
N3_4 C8_6 1_555 1_555
N4_6 C13_6 1_555 1_555
N5_6 C11_6 1_555 1_555
N11 C19_6 1_555 1_555
C1_6 H1_6 1_555 1_555
C2_6 C1_6 1_555 1_555
H2_6 C2_6 1_555 1_555
C3_6 N1_6 1_555 1_555
H3_6 C3_6 1_555 1_555
C4_6 C3_6 1_555 1_555
H4_6 C4_6 1_555 1_555
C5_6 C1_6 1_555 1_555
C6_6 N2_6 1_555 1_555
C7_6 C6_6 1_555 1_555
H5_6 C7_6 1_555 1_555
C8_6 C7_6 1_555 1_555
H6_6 C8_6 1_555 1_555
C9_6 N3_4 1_555 1_555
H7_6 C9_6 1_555 1_555
C10_6 C6_6 1_555 1_555
H8_6 C10_6 1_555 1_555
C11_6 N2_6 1_555 1_555
H9_6 C11_6 1_555 1_555
H10_6 C11_6 1_555 1_555
C12_6 H11_6 1_555 1_555
C13_6 C12_6 1_555 1_555
H12_6 C13_6 1_555 1_555
C14_6 N4_6 1_555 1_555
H13_6 C14_6 1_555 1_555
C15_6 C14_6 1_555 1_555
H14_6 C15_6 1_555 1_555
C16_6 N5_6 1_555 1_555
C17_6 N5_6 1_555 1_555
C18_6 C17_6 1_555 1_555
H15_6 C18_6 1_555 1_555
C19_6 C18_6 1_555 1_555
H16_6 C19_6 1_555 1_555
B2_6 H22_6 1_555 1_555
H23_6 B2_6 1_555 1_555
H24_6 B2_6 1_555 1_555
N8_6 Fe3 1_555 1_555
C23_6 B2_6 1_555 1_555
Fe4_6 N4_6 1_555 1_555
N10_6 Fe3 1_555 1_555
C4_6 C5_6 1_555 1_555
C9_6 C10_6 1_555 1_555
C12_6 C16_6 1_555 1_555
C15_6 C16_6 1_555 1_555
N8_6 C23_6 1_555 1_555
Fe3_3 N1_7 1_555 1_555
N1_7 C2_7 1_555 1_555
N2_7 C5_7 1_555 1_555
N9_4 C8_7 1_555 1_555
N4_7 C13_7 1_555 1_555
N5_7 C11_7 1_555 1_555
N11_3 C19_7 1_555 1_555
C1_7 H1_7 1_555 1_555
C2_7 C1_7 1_555 1_555
H2_7 C2_7 1_555 1_555
C3_7 N1_7 1_555 1_555
H3_7 C3_7 1_555 1_555
C4_7 C3_7 1_555 1_555
H4_7 C4_7 1_555 1_555
C5_7 C1_7 1_555 1_555
C6_7 N2_7 1_555 1_555
C7_7 C6_7 1_555 1_555
H5_7 C7_7 1_555 1_555
C8_7 C7_7 1_555 1_555
H6_7 C8_7 1_555 1_555
C9_7 N9_4 1_555 1_555
H7_7 C9_7 1_555 1_555
C10_7 C6_7 1_555 1_555
H8_7 C10_7 1_555 1_555
C11_7 N2_7 1_555 1_555
H9_7 C11_7 1_555 1_555
H10_7 C11_7 1_555 1_555
C12_7 H11_7 1_555 1_555
C13_7 C12_7 1_555 1_555
H12_7 C13_7 1_555 1_555
C14_7 N4_7 1_555 1_555
H13_7 C14_7 1_555 1_555
C15_7 C14_7 1_555 1_555
H14_7 C15_7 1_555 1_555
C16_7 N5_7 1_555 1_555
C17_7 N5_7 1_555 1_555
C18_7 C17_7 1_555 1_555
H15_7 C18_7 1_555 1_555
C19_7 C18_7 1_555 1_555
H16_7 C19_7 1_555 1_555
B2_7 H22_7 1_555 1_555
H23_7 B2_7 1_555 1_555
H24_7 B2_7 1_555 1_555
N8_7 Fe3_3 1_555 1_555
C23_7 B2_7 1_555 1_555
Fe4_7 N4_7 1_555 1_555
N10_7 Fe3_3 1_555 1_555
C4_7 C5_7 1_555 1_555
C9_7 C10_7 1_555 1_555
C12_7 C16_7 1_555 1_555
C15_7 C16_7 1_555 1_555
N8_7 C23_7 1_555 1_555
H17_7 C20_7 1_555 1_555
H18_7 C21_7 1_555 1_555
B1_7 H19_7 1_555 1_555
H20_7 B1_7 1_555 1_555
H21_7 B1_7 1_555 1_555
C22_7 B1_7 1_555 1_555
C20_7 C21_7 1_555 1_555
N7_7 C22_7 1_555 1_555
H17_8 C20_8 1_555 1_555
H18_8 C21_8 1_555 1_555
B1_8 H19_8 1_555 1_555
H20_8 B1_8 1_555 1_555
H21_8 B1_8 1_555 1_555
C22_8 B1_8 1_555 1_555
C20_8 C21_8 1_555 1_555
N7_8 C22_8 1_555 1_555
Fe3_4 N1_8 1_555 1_555
N1_8 C2_8 1_555 1_555
N2_8 C5_8 1_555 1_555
N9_3 C8_8 1_555 1_555
N4_8 C13_8 1_555 1_555
N5_8 C11_8 1_555 1_555
N11_4 C19_8 1_555 1_555
C1_8 H1_8 1_555 1_555
C2_8 C1_8 1_555 1_555
H2_8 C2_8 1_555 1_555
C3_8 N1_8 1_555 1_555
H3_8 C3_8 1_555 1_555
C4_8 C3_8 1_555 1_555
H4_8 C4_8 1_555 1_555
C5_8 C1_8 1_555 1_555
C6_8 N2_8 1_555 1_555
C7_8 C6_8 1_555 1_555
H5_8 C7_8 1_555 1_555
C8_8 C7_8 1_555 1_555
H6_8 C8_8 1_555 1_555
C9_8 N9_3 1_555 1_555
H7_8 C9_8 1_555 1_555
C10_8 C6_8 1_555 1_555
H8_8 C10_8 1_555 1_555
C11_8 N2_8 1_555 1_555
H9_8 C11_8 1_555 1_555
H10_8 C11_8 1_555 1_555
C12_8 H11_8 1_555 1_555
C13_8 C12_8 1_555 1_555
H12_8 C13_8 1_555 1_555
C14_8 N4_8 1_555 1_555
H13_8 C14_8 1_555 1_555
C15_8 C14_8 1_555 1_555
H14_8 C15_8 1_555 1_555
C16_8 N5_8 1_555 1_555
C17_8 N5_8 1_555 1_555
C18_8 C17_8 1_555 1_555
H15_8 C18_8 1_555 1_555
C19_8 C18_8 1_555 1_555
H16_8 C19_8 1_555 1_555
B2_8 H22_8 1_555 1_555
H23_8 B2_8 1_555 1_555
H24_8 B2_8 1_555 1_555
N8_8 Fe3_4 1_555 1_555
C23_8 B2_8 1_555 1_555
Fe4_8 N4_8 1_555 1_555
N10_8 Fe3_4 1_555 1_555
C4_8 C5_8 1_555 1_555
C9_8 C10_8 1_555 1_555
C12_8 C16_8 1_555 1_555
C15_8 C16_8 1_555 1_555
N8_8 C23_8 1_555 1_555
Fe4_8 N1_9 1_555 1_555
N1_9 C2_9 1_555 1_555
N2_9 C5_9 1_555 1_555
N3_5 C8_9 1_555 1_555
N10_8 C13_9 1_555 1_555
N5_9 C11_9 1_555 1_555
N6_5 C19_9 1_555 1_555
C1_9 H1_9 1_555 1_555
C2_9 C1_9 1_555 1_555
H2_9 C2_9 1_555 1_555
C3_9 N1_9 1_555 1_555
H3_9 C3_9 1_555 1_555
C4_9 C3_9 1_555 1_555
H4_9 C4_9 1_555 1_555
C5_9 C1_9 1_555 1_555
C6_9 N2_9 1_555 1_555
C7_9 C6_9 1_555 1_555
H5_9 C7_9 1_555 1_555
C8_9 C7_9 1_555 1_555
H6_9 C8_9 1_555 1_555
C9_9 N3_5 1_555 1_555
H7_9 C9_9 1_555 1_555
C10_9 C6_9 1_555 1_555
H8_9 C10_9 1_555 1_555
C11_9 N2_9 1_555 1_555
H9_9 C11_9 1_555 1_555
H10_9 C11_9 1_555 1_555
C12_9 H11_9 1_555 1_555
C13_9 C12_9 1_555 1_555
H12_9 C13_9 1_555 1_555
C14_9 N10_8 1_555 1_555
H13_9 C14_9 1_555 1_555
C15_9 C14_9 1_555 1_555
H14_9 C15_9 1_555 1_555
C16_9 N5_9 1_555 1_555
C17_9 N5_9 1_555 1_555
C18_9 C17_9 1_555 1_555
H15_9 C18_9 1_555 1_555
C19_9 C18_9 1_555 1_555
H16_9 C19_9 1_555 1_555
C20_9 N6_5 1_555 1_555
H17_9 C20_9 1_555 1_555
C21_9 C17_9 1_555 1_555
H18_9 C21_9 1_555 1_555
B1_9 H19_9 1_555 1_555
H20_9 B1_9 1_555 1_555
H21_9 B1_9 1_555 1_555
B2_9 H22_9 1_555 1_555
H23_9 B2_9 1_555 1_555
H24_9 B2_9 1_555 1_555
N7_9 Fe4_8 1_555 1_555
N8_9 Fe4_8 1_555 1_555
C22_9 B1_9 1_555 1_555
C23_9 B2_9 1_555 1_555
Fe4_6 N3_5 1_555 1_555
Fe4_3 N6_5 1_555 1_555
N9_5 Fe4_8 1_555 1_555
N11_5 Fe4_8 1_555 1_555
C4_9 C5_9 1_555 1_555
C9_9 C10_9 1_555 1_555
C12_9 C16_9 1_555 1_555
C15_9 C16_9 1_555 1_555
C20_9 C21_9 1_555 1_555
N7_9 C22_9 1_555 1_555
N8_9 C23_9 1_555 1_555
Fe4_7 N1_10 1_555 1_555
N1_10 C2_10 1_555 1_555
N2_10 C5_10 1_555 1_555
N3_6 C8_10 1_555 1_555
N10_7 C13_10 1_555 1_555
N5_10 C11_10 1_555 1_555
N6_6 C19_10 1_555 1_555
C1_10 H1_10 1_555 1_555
C2_10 C1_10 1_555 1_555
H2_10 C2_10 1_555 1_555
C3_10 N1_10 1_555 1_555
H3_10 C3_10 1_555 1_555
C4_10 C3_10 1_555 1_555
H4_10 C4_10 1_555 1_555
C5_10 C1_10 1_555 1_555
C6_10 N2_10 1_555 1_555
C7_10 C6_10 1_555 1_555
H5_10 C7_10 1_555 1_555
C8_10 C7_10 1_555 1_555
H6_10 C8_10 1_555 1_555
C9_10 N3_6 1_555 1_555
H7_10 C9_10 1_555 1_555
C10_10 C6_10 1_555 1_555
H8_10 C10_10 1_555 1_555
C11_10 N2_10 1_555 1_555
H9_10 C11_10 1_555 1_555
H10_10 C11_10 1_555 1_555
C12_10 H11_10 1_555 1_555
C13_10 C12_10 1_555 1_555
H12_10 C13_10 1_555 1_555
C14_10 N10_7 1_555 1_555
H13_10 C14_10 1_555 1_555
C15_10 C14_10 1_555 1_555
H14_10 C15_10 1_555 1_555
C16_10 N5_10 1_555 1_555
C17_10 N5_10 1_555 1_555
C18_10 C17_10 1_555 1_555
H15_10 C18_10 1_555 1_555
C19_10 C18_10 1_555 1_555
H16_10 C19_10 1_555 1_555
C20_10 N6_6 1_555 1_555
H17_10 C20_10 1_555 1_555
C21_10 C17_10 1_555 1_555
H18_10 C21_10 1_555 1_555
B1_10 H19_10 1_555 1_555
H20_10 B1_10 1_555 1_555
H21_10 B1_10 1_555 1_555
B2_10 H22_10 1_555 1_555
H23_10 B2_10 1_555 1_555
H24_10 B2_10 1_555 1_555
N7_10 Fe4_7 1_555 1_555
N8_10 Fe4_7 1_555 1_555
C22_10 B1_10 1_555 1_555
C23_10 B2_10 1_555 1_555
Fe4_5 N3_6 1_555 1_555
Fe4_4 N6_6 1_555 1_555
N9_6 Fe4_7 1_555 1_555
N11_6 Fe4_7 1_555 1_555
C4_10 C5_10 1_555 1_555
C9_10 C10_10 1_555 1_555
C12_10 C16_10 1_555 1_555
C15_10 C16_10 1_555 1_555
C20_10 C21_10 1_555 1_555
N7_10 C22_10 1_555 1_555
N8_10 C23_10 1_555 1_555
Fe4_6 N1_11 1_555 1_555
N1_11 C2_11 1_555 1_555
N2_11 C5_11 1_555 1_555
N9_6 C8_11 1_555 1_555
N10_6 C13_11 1_555 1_555
N5_11 C11_11 1_555 1_555
N6_7 C19_11 1_555 1_555
C1_11 H1_11 1_555 1_555
C2_11 C1_11 1_555 1_555
H2_11 C2_11 1_555 1_555
C3_11 N1_11 1_555 1_555
H3_11 C3_11 1_555 1_555
C4_11 C3_11 1_555 1_555
H4_11 C4_11 1_555 1_555
C5_11 C1_11 1_555 1_555
C6_11 N2_11 1_555 1_555
C7_11 C6_11 1_555 1_555
H5_11 C7_11 1_555 1_555
C8_11 C7_11 1_555 1_555
H6_11 C8_11 1_555 1_555
C9_11 N9_6 1_555 1_555
H7_11 C9_11 1_555 1_555
C10_11 C6_11 1_555 1_555
H8_11 C10_11 1_555 1_555
C11_11 N2_11 1_555 1_555
H9_11 C11_11 1_555 1_555
H10_11 C11_11 1_555 1_555
C12_11 H11_11 1_555 1_555
C13_11 C12_11 1_555 1_555
H12_11 C13_11 1_555 1_555
C14_11 N10_6 1_555 1_555
H13_11 C14_11 1_555 1_555
C15_11 C14_11 1_555 1_555
H14_11 C15_11 1_555 1_555
C16_11 N5_11 1_555 1_555
C17_11 N5_11 1_555 1_555
C18_11 C17_11 1_555 1_555
H15_11 C18_11 1_555 1_555
C19_11 C18_11 1_555 1_555
H16_11 C19_11 1_555 1_555
C20_11 N6_7 1_555 1_555
H17_11 C20_11 1_555 1_555
C21_11 C17_11 1_555 1_555
H18_11 C21_11 1_555 1_555
B1_11 H19_11 1_555 1_555
H20_11 B1_11 1_555 1_555
H21_11 B1_11 1_555 1_555
B2_11 H22_11 1_555 1_555
H23_11 B2_11 1_555 1_555
H24_11 B2_11 1_555 1_555
N7_11 Fe4_6 1_555 1_555
N8_11 Fe4_6 1_555 1_555
C22_11 B1_11 1_555 1_555
C23_11 B2_11 1_555 1_555
Fe4_2 N6_7 1_555 1_555
N11_7 Fe4_6 1_555 1_555
C4_11 C5_11 1_555 1_555
C9_11 C10_11 1_555 1_555
C12_11 C16_11 1_555 1_555
C15_11 C16_11 1_555 1_555
C20_11 C21_11 1_555 1_555
N7_11 C22_11 1_555 1_555
N8_11 C23_11 1_555 1_555
Fe4_5 N1_12 1_555 1_555
N1_12 C2_12 1_555 1_555
N2_12 C5_12 1_555 1_555
N9_5 C8_12 1_555 1_555
N10_5 C13_12 1_555 1_555
N5_12 C11_12 1_555 1_555
N6_8 C19_12 1_555 1_555
C1_12 H1_12 1_555 1_555
C2_12 C1_12 1_555 1_555
H2_12 C2_12 1_555 1_555
C3_12 N1_12 1_555 1_555
H3_12 C3_12 1_555 1_555
C4_12 C3_12 1_555 1_555
H4_12 C4_12 1_555 1_555
C5_12 C1_12 1_555 1_555
C6_12 N2_12 1_555 1_555
C7_12 C6_12 1_555 1_555
H5_12 C7_12 1_555 1_555
C8_12 C7_12 1_555 1_555
H6_12 C8_12 1_555 1_555
C9_12 N9_5 1_555 1_555
H7_12 C9_12 1_555 1_555
C10_12 C6_12 1_555 1_555
H8_12 C10_12 1_555 1_555
C11_12 N2_12 1_555 1_555
H9_12 C11_12 1_555 1_555
H10_12 C11_12 1_555 1_555
C12_12 H11_12 1_555 1_555
C13_12 C12_12 1_555 1_555
H12_12 C13_12 1_555 1_555
C14_12 N10_5 1_555 1_555
H13_12 C14_12 1_555 1_555
C15_12 C14_12 1_555 1_555
H14_12 C15_12 1_555 1_555
C16_12 N5_12 1_555 1_555
C17_12 N5_12 1_555 1_555
C18_12 C17_12 1_555 1_555
H15_12 C18_12 1_555 1_555
C19_12 C18_12 1_555 1_555
H16_12 C19_12 1_555 1_555
C20_12 N6_8 1_555 1_555
H17_12 C20_12 1_555 1_555
C21_12 C17_12 1_555 1_555
H18_12 C21_12 1_555 1_555
B1_12 H19_12 1_555 1_555
H20_12 B1_12 1_555 1_555
H21_12 B1_12 1_555 1_555
B2_12 H22_12 1_555 1_555
H23_12 B2_12 1_555 1_555
H24_12 B2_12 1_555 1_555
N7_12 Fe4_5 1_555 1_555
N8_12 Fe4_5 1_555 1_555
C22_12 B1_12 1_555 1_555
C23_12 B2_12 1_555 1_555
Fe4 N6_8 1_555 1_555
N11_8 Fe4_5 1_555 1_555
C4_12 C5_12 1_555 1_555
C9_12 C10_12 1_555 1_555
C12_12 C16_12 1_555 1_555
C15_12 C16_12 1_555 1_555
C20_12 C21_12 1_555 1_555
N7_12 C22_12 1_555 1_555
N8_12 C23_12 1_555 1_555
Fe4_4 N1_13 1_555 1_555
N1_13 C2_13 1_555 1_555
H2_13 C2_13 1_555 1_555
C3_13 N1_13 1_555 1_555
H3_13 C3_13 1_555 1_555
B1_13 H19_13 1_555 1_555
H20_13 B1_13 1_555 1_555
H21_13 B1_13 1_555 1_555
B2_13 H22_13 1_555 1_555
H23_13 B2_13 1_555 1_555
H24_13 B2_13 1_555 1_555
N7_13 Fe4_4 1_555 1_555
N8_13 Fe4_4 1_555 1_555
C22_13 B1_13 1_555 1_555
C23_13 B2_13 1_555 1_555
N9_7 Fe4_4 1_555 1_555
N7_13 C22_13 1_555 1_555
N8_13 C23_13 1_555 1_555
N2_13 C5_13 1_555 1_555
N3_7 C8_13 1_555 1_555
N10_4 C13_13 1_555 1_555
N5_13 C11_13 1_555 1_555
N11_6 C19_13 1_555 1_555
C1_13 H1_13 1_555 1_555
H4_13 C4_13 1_555 1_555
C5_13 C1_13 1_555 1_555
C6_13 N2_13 1_555 1_555
C7_13 C6_13 1_555 1_555
H5_13 C7_13 1_555 1_555
C8_13 C7_13 1_555 1_555
H6_13 C8_13 1_555 1_555
C9_13 N3_7 1_555 1_555
H7_13 C9_13 1_555 1_555
C10_13 C6_13 1_555 1_555
H8_13 C10_13 1_555 1_555
C11_13 N2_13 1_555 1_555
H9_13 C11_13 1_555 1_555
H10_13 C11_13 1_555 1_555
C12_13 H11_13 1_555 1_555
C13_13 C12_13 1_555 1_555
H12_13 C13_13 1_555 1_555
C14_13 N10_4 1_555 1_555
H13_13 C14_13 1_555 1_555
C15_13 C14_13 1_555 1_555
H14_13 C15_13 1_555 1_555
C16_13 N5_13 1_555 1_555
C17_13 N5_13 1_555 1_555
C18_13 C17_13 1_555 1_555
H15_13 C18_13 1_555 1_555
C19_13 C18_13 1_555 1_555
H16_13 C19_13 1_555 1_555
C20_13 N11_6 1_555 1_555
H17_13 C20_13 1_555 1_555
C21_13 C17_13 1_555 1_555
H18_13 C21_13 1_555 1_555
Fe4_2 N3_7 1_555 1_555
C4_13 C5_13 1_555 1_555
C9_13 C10_13 1_555 1_555
C12_13 C16_13 1_555 1_555
C15_13 C16_13 1_555 1_555
C20_13 C21_13 1_555 1_555
Fe4_3 N1_14 1_555 1_555
N1_14 C2_14 1_555 1_555
H2_14 C2_14 1_555 1_555
C3_14 N1_14 1_555 1_555
H3_14 C3_14 1_555 1_555
B1_14 H19_14 1_555 1_555
H20_14 B1_14 1_555 1_555
H21_14 B1_14 1_555 1_555
B2_14 H22_14 1_555 1_555
H23_14 B2_14 1_555 1_555
H24_14 B2_14 1_555 1_555
N7_14 Fe4_3 1_555 1_555
N8_14 Fe4_3 1_555 1_555
C22_14 B1_14 1_555 1_555
C23_14 B2_14 1_555 1_555
N9_8 Fe4_3 1_555 1_555
N7_14 C22_14 1_555 1_555
N8_14 C23_14 1_555 1_555
N2_14 C5_14 1_555 1_555
N3_8 C8_14 1_555 1_555
N10_3 C13_14 1_555 1_555
N5_14 C11_14 1_555 1_555
N11_5 C19_14 1_555 1_555
C1_14 H1_14 1_555 1_555
H4_14 C4_14 1_555 1_555
C5_14 C1_14 1_555 1_555
C6_14 N2_14 1_555 1_555
C7_14 C6_14 1_555 1_555
H5_14 C7_14 1_555 1_555
C8_14 C7_14 1_555 1_555
H6_14 C8_14 1_555 1_555
C9_14 N3_8 1_555 1_555
H7_14 C9_14 1_555 1_555
C10_14 C6_14 1_555 1_555
H8_14 C10_14 1_555 1_555
C11_14 N2_14 1_555 1_555
H9_14 C11_14 1_555 1_555
H10_14 C11_14 1_555 1_555
C12_14 H11_14 1_555 1_555
C13_14 C12_14 1_555 1_555
H12_14 C13_14 1_555 1_555
C14_14 N10_3 1_555 1_555
H13_14 C14_14 1_555 1_555
C15_14 C14_14 1_555 1_555
H14_14 C15_14 1_555 1_555
C16_14 N5_14 1_555 1_555
C17_14 N5_14 1_555 1_555
C18_14 C17_14 1_555 1_555
H15_14 C18_14 1_555 1_555
C19_14 C18_14 1_555 1_555
H16_14 C19_14 1_555 1_555
C20_14 N11_5 1_555 1_555
H17_14 C20_14 1_555 1_555
C21_14 C17_14 1_555 1_555
H18_14 C21_14 1_555 1_555
Fe4 N3_8 1_555 1_555
C4_14 C5_14 1_555 1_555
C9_14 C10_14 1_555 1_555
C12_14 C16_14 1_555 1_555
C15_14 C16_14 1_555 1_555
C20_14 C21_14 1_555 1_555
N2_15 C5_15 1_555 1_555
N9_8 C8_15 1_555 1_555
N10_2 C13_15 1_555 1_555
N5_15 C11_15 1_555 1_555
N11_7 C19_15 1_555 1_555
C1_15 H1_15 1_555 1_555
H4_15 C4_15 1_555 1_555
C5_15 C1_15 1_555 1_555
C6_15 N2_15 1_555 1_555
C7_15 C6_15 1_555 1_555
H5_15 C7_15 1_555 1_555
C8_15 C7_15 1_555 1_555
H6_15 C8_15 1_555 1_555
C9_15 N9_8 1_555 1_555
H7_15 C9_15 1_555 1_555
C10_15 C6_15 1_555 1_555
H8_15 C10_15 1_555 1_555
C11_15 N2_15 1_555 1_555
H9_15 C11_15 1_555 1_555
H10_15 C11_15 1_555 1_555
C12_15 H11_15 1_555 1_555
C13_15 C12_15 1_555 1_555
H12_15 C13_15 1_555 1_555
C14_15 N10_2 1_555 1_555
H13_15 C14_15 1_555 1_555
C15_15 C14_15 1_555 1_555
H14_15 C15_15 1_555 1_555
C16_15 N5_15 1_555 1_555
C17_15 N5_15 1_555 1_555
C18_15 C17_15 1_555 1_555
H15_15 C18_15 1_555 1_555
C19_15 C18_15 1_555 1_555
H16_15 C19_15 1_555 1_555
C20_15 N11_7 1_555 1_555
H17_15 C20_15 1_555 1_555
C21_15 C17_15 1_555 1_555
H18_15 C21_15 1_555 1_555
C4_15 C5_15 1_555 1_555
C9_15 C10_15 1_555 1_555
C12_15 C16_15 1_555 1_555
C15_15 C16_15 1_555 1_555
C20_15 C21_15 1_555 1_555
Fe4_2 N1_15 1_555 1_555
N1_15 C2_15 1_555 1_555
H2_15 C2_15 1_555 1_555
C3_15 N1_15 1_555 1_555
H3_15 C3_15 1_555 1_555
B1_15 H19_15 1_555 1_555
H20_15 B1_15 1_555 1_555
H21_15 B1_15 1_555 1_555
B2_15 H22_15 1_555 1_555
H23_15 B2_15 1_555 1_555
H24_15 B2_15 1_555 1_555
N7_15 Fe4_2 1_555 1_555
N8_15 Fe4_2 1_555 1_555
C22_15 B1_15 1_555 1_555
C23_15 B2_15 1_555 1_555
N7_15 C22_15 1_555 1_555
N8_15 C23_15 1_555 1_555
N2_16 C5_16 1_555 1_555
N9_7 C8_16 1_555 1_555
N10 C13_16 1_555 1_555
N5_16 C11_16 1_555 1_555
N11_8 C19_16 1_555 1_555
C1_16 H1_16 1_555 1_555
H4_16 C4_16 1_555 1_555
C5_16 C1_16 1_555 1_555
C6_16 N2_16 1_555 1_555
C7_16 C6_16 1_555 1_555
H5_16 C7_16 1_555 1_555
C8_16 C7_16 1_555 1_555
H6_16 C8_16 1_555 1_555
C9_16 N9_7 1_555 1_555
H7_16 C9_16 1_555 1_555
C10_16 C6_16 1_555 1_555
H8_16 C10_16 1_555 1_555
C11_16 N2_16 1_555 1_555
H9_16 C11_16 1_555 1_555
H10_16 C11_16 1_555 1_555
C12_16 H11_16 1_555 1_555
C13_16 C12_16 1_555 1_555
H12_16 C13_16 1_555 1_555
C14_16 N10 1_555 1_555
H13_16 C14_16 1_555 1_555
C15_16 C14_16 1_555 1_555
H14_16 C15_16 1_555 1_555
C16_16 N5_16 1_555 1_555
C17_16 N5_16 1_555 1_555
C18_16 C17_16 1_555 1_555
H15_16 C18_16 1_555 1_555
C19_16 C18_16 1_555 1_555
H16_16 C19_16 1_555 1_555
C20_16 N11_8 1_555 1_555
H17_16 C20_16 1_555 1_555
C21_16 C17_16 1_555 1_555
H18_16 C21_16 1_555 1_555
C4_16 C5_16 1_555 1_555
C9_16 C10_16 1_555 1_555
C12_16 C16_16 1_555 1_555
C15_16 C16_16 1_555 1_555
C20_16 C21_16 1_555 1_555
Fe4 N1_16 1_555 1_555
N1_16 C2_16 1_555 1_555
H2_16 C2_16 1_555 1_555
C3_16 N1_16 1_555 1_555
H3_16 C3_16 1_555 1_555
B1_16 H19_16 1_555 1_555
H20_16 B1_16 1_555 1_555
H21_16 B1_16 1_555 1_555
B2_16 H22_16 1_555 1_555
H23_16 B2_16 1_555 1_555
H24_16 B2_16 1_555 1_555
N7_16 Fe4 1_555 1_555
N8_16 Fe4 1_555 1_555
C22_16 B1_16 1_555 1_555
C23_16 B2_16 1_555 1_555
N7_16 C22_16 1_555 1_555
N8_16 C23_16 1_555 1_555

#END
