
###############################################################################
#
# This file contains modified crystal structure data generated from the
# MOF subset of the Cambridge Structural Database (CSD) v543 
# hosted by the Cambridge Crystallographic Data Centre (CCDC).
#
# This work is licensed under the Creative Commons
# Attribution-NonCommercial-ShareAlike 4.0 International License.
# To view a copy of this license, visit
# http://creativecommons.org/licenses/by-nc-sa/4.0/
# or send a letter to
# Creative Commons, PO Box 1866, Mountain View, CA 94042, USA.
#
# CIF created using the CSD Python API on 29 September 2022
# The structure has been converted into the P1 space group
# The structure has a 3D framework
# The original CSD entry ZEXXEI is in the tetragonal crystal system
# The framework has been calculated to contain at least 10.0% void space
# The void calculation uses a probe of radius 1.32A, grid spacing 0.4
# The framework is charged, counterions have been retained in the structure
#
###############################################################################

data_ZEXXEI
_chemical_formula_moiety         '(C368 H384 B32 Fe16 N128)n'
_symmetry_cell_setting           triclinic
_symmetry_space_group_name_H-M   'P 1'
_symmetry_Int_Tables_number      1
_space_group_name_Hall           'P 1'
loop_
_symmetry_equiv_pos_site_id
_symmetry_equiv_pos_as_xyz
1 x,y,z
_cell_length_a                   22.012(3)
_cell_length_b                   22.012(3)
_cell_length_c                   28.983(6)
_cell_angle_alpha                90
_cell_angle_beta                 90
_cell_angle_gamma                90
_cell_volume                     14043.1
loop_
_atom_site_label
_atom_site_type_symbol
_atom_site_fract_x
_atom_site_fract_y
_atom_site_fract_z
Fe1 Fe 0.00030(2) 0.25415(2) 0.12386(2)
N1 N 0.02077(15) 0.24442(12) 0.04937(9)
C2 C 0.03161(19) 0.18887(15) 0.03163(10)
H2 H 0.0282 0.1553 0.0510
C3 C 0.02528(18) 0.29111(16) 0.02025(10)
H3 H 0.0177 0.3298 0.0318
B2 B 0.1157(11) 0.0700(11) 0.1406(8)
H22 H 0.0983 0.0453 0.1644
H23 H 0.1582 0.0756 0.1465
H24 H 0.1105 0.0503 0.1113
N8 N 0.05666(15) 0.17754(15) 0.13742(10)
C23 C 0.0824(3) 0.1351(3) 0.1397(2)
N10 N 0.07917(13) 0.31699(14) 0.13046(10)
N2 N 0.07031(13) 0.21985(12) 0.91008(8)
N3 N 0.19311(14) 0.07804(13) 0.88259(9)
N4 N 0.18301(14) 0.42083(13) 0.86954(10)
N5 N 0.06787(14) 0.27382(13) 0.83802(8)
N6 N 0.01935(14) 0.26373(15) 0.69755(8)
C1 C 0.0475(2) 0.17935(15) 0.98621(11)
H1 H 0.0543 0.1401 0.9755
C4 C 0.04053(18) 0.28594(15) 0.97405(10)
H4 H 0.0421 0.3201 0.9552
C5 C 0.05352(14) 0.22868(14) 0.95648(9)
C6 C 0.11094(14) 0.17325(14) 0.89934(9)
C7 C 0.10490(16) 0.13543(17) 0.86107(11)
H5 H 0.0736 0.1418 0.8401
C8 C 0.14540(18) 0.08854(17) 0.85430(11)
H6 H 0.1397 0.0630 0.8291
C9 C 0.19984(17) 0.11588(17) 0.91847(12)
H7 H 0.2329 0.1102 0.9379
C10 C 0.16047(18) 0.16262(17) 0.92801(12)
H8 H 0.1669 0.1872 0.9537
C11 C 0.03145(14) 0.24551(15) 0.87438(10)
H9 H 0.0047 0.2756 0.8879
H10 H 0.0065 0.2137 0.8611
C12 C 0.1655(2) 0.3143(2) 0.8644(2)
H11 H 0.1812 0.2752 0.8674
C13 C 0.2016(2) 0.3647(2) 0.8734(2)
H12 H 0.2414 0.3581 0.8829
C14 C 0.1256(2) 0.4286(2) 0.8587(3)
H13 H 0.1103 0.4679 0.8584
C15 C 0.0865(2) 0.3812(2) 0.8475(3)
H14 H 0.0471 0.3894 0.8378
C16 C 0.10643(15) 0.32310(15) 0.85082(9)
C17 C 0.05059(14) 0.27048(14) 0.79208(9)
C18 C 0.0872(2) 0.2957(2) 0.75783(11)
H15 H 0.1229 0.3158 0.7656
C19 C 0.0698(2) 0.2905(2) 0.71223(11)
H16 H 0.0954 0.3071 0.6900
Fe4 Fe 0.24585(2) 0.49970(2) 0.87614(2)
Fe2 Fe 0.25415(2) 0.99970(2) 0.87614(2)
B1 B 0.8861(12) 0.4323(9) 0.0960(9)
H19 H 0.8794 0.4391 0.0637
H20 H 0.9119 0.4636 0.1080
H21 H 0.8479 0.4329 0.1119
N7 N 0.94343(15) 0.32913(14) 0.10728(10)
C22 C 0.9162(3) 0.3710(2) 0.1028(2)
N9 N 0.92196(13) 0.19311(14) 0.11741(9)
N11 N 0.98065(14) 0.26373(15) 0.19755(8)
C20 C 0.9846(2) 0.2401(2) 0.73028(12)
H17 H 0.9490 0.2206 0.7212
C21 C 0.99744(19) 0.2424(2) 0.77687(12)
H18 H 0.9707 0.2252 0.7981
Fe3 Fe 0.99970(2) 0.25415(2) 0.62386(2)
B1_2 B 0.1139(12) 0.5677(9) 0.0960(9)
H19_2 H 0.1206 0.5609 0.0637
H20_2 H 0.0881 0.5364 0.1080
H21_2 H 0.1521 0.5671 0.1119
N7_2 N 0.05657(15) 0.67087(14) 0.10728(10)
C22_2 C 0.0838(3) 0.6290(2) 0.1028(2)
N9_2 N 0.07804(13) 0.80689(14) 0.11741(9)
N11_2 N 0.01935(14) 0.73627(15) 0.19755(8)
C20_2 C 0.0154(2) 0.7599(2) 0.73028(12)
H17_2 H 0.0510 0.7794 0.7212
C21_2 C 0.00256(19) 0.7576(2) 0.77687(12)
H18_2 H 0.0293 0.7748 0.7981
Fe3_2 Fe 0.00030(2) 0.74585(2) 0.62386(2)
Fe2_2 Fe 0.74585(2) 0.00030(2) 0.87614(2)
Fe1_2 Fe 0.99970(2) 0.74585(2) 0.12386(2)
N1_2 N 0.97923(15) 0.75558(12) 0.04937(9)
C2_2 C 0.96839(19) 0.81113(15) 0.03163(10)
H2_2 H 0.9718 0.8447 0.0510
C3_2 C 0.97472(18) 0.70889(16) 0.02025(10)
H3_2 H 0.9823 0.6702 0.0318
B2_2 B 0.8843(11) 0.9300(11) 0.1406(8)
H22_2 H 0.9017 0.9547 0.1644
H23_2 H 0.8418 0.9244 0.1465
H24_2 H 0.8895 0.9497 0.1113
N8_2 N 0.94334(15) 0.82246(15) 0.13742(10)
C23_2 C 0.9176(3) 0.8649(3) 0.1397(2)
N10_2 N 0.92083(13) 0.68301(14) 0.13046(10)
N2_2 N 0.92969(13) 0.78015(12) 0.91008(8)
N3_2 N 0.80689(14) 0.92196(13) 0.88259(9)
N4_2 N 0.81699(14) 0.57917(13) 0.86954(10)
N5_2 N 0.93213(14) 0.72618(13) 0.83802(8)
N6_2 N 0.98065(14) 0.73627(15) 0.69755(8)
C1_2 C 0.9525(2) 0.82065(15) 0.98621(11)
H1_2 H 0.9457 0.8599 0.9755
C4_2 C 0.95947(18) 0.71406(15) 0.97405(10)
H4_2 H 0.9579 0.6799 0.9552
C5_2 C 0.94648(14) 0.77132(14) 0.95648(9)
C6_2 C 0.88906(14) 0.82675(14) 0.89934(9)
C7_2 C 0.89510(16) 0.86457(17) 0.86107(11)
H5_2 H 0.9264 0.8582 0.8401
C8_2 C 0.85460(18) 0.91146(17) 0.85430(11)
H6_2 H 0.8603 0.9370 0.8291
C9_2 C 0.80016(17) 0.88412(17) 0.91847(12)
H7_2 H 0.7671 0.8898 0.9379
C10_2 C 0.83953(18) 0.83738(17) 0.92801(12)
H8_2 H 0.8331 0.8128 0.9537
C11_2 C 0.96855(14) 0.75449(15) 0.87438(10)
H9_2 H 0.9953 0.7244 0.8879
H10_2 H 0.9935 0.7863 0.8611
C12_2 C 0.8345(2) 0.6857(2) 0.8644(2)
H11_2 H 0.8188 0.7248 0.8674
C13_2 C 0.7984(2) 0.6353(2) 0.8734(2)
H12_2 H 0.7586 0.6419 0.8829
C14_2 C 0.8744(2) 0.5714(2) 0.8587(3)
H13_2 H 0.8897 0.5321 0.8584
C15_2 C 0.9135(2) 0.6188(2) 0.8475(3)
H14_2 H 0.9529 0.6106 0.8378
C16_2 C 0.89357(15) 0.67690(15) 0.85082(9)
C17_2 C 0.94941(14) 0.72952(14) 0.79208(9)
C18_2 C 0.9128(2) 0.7043(2) 0.75783(11)
H15_2 H 0.8771 0.6842 0.7656
C19_2 C 0.9302(2) 0.7095(2) 0.71223(11)
H16_2 H 0.9046 0.6929 0.6900
Fe4_2 Fe 0.75415(2) 0.50030(2) 0.87614(2)
C20_3 C 0.2401(2) 0.0154(2) 0.26972(12)
H17_3 H 0.2206 0.0510 0.2788
C21_3 C 0.2424(2) 0.00256(19) 0.22313(12)
H18_3 H 0.2252 0.0293 0.2019
Fe3_3 Fe 0.25415(2) 0.00030(2) 0.37614(2)
B1_3 B 0.4323(9) 0.1139(12) 0.9040(9)
H19_3 H 0.4391 0.1206 0.9363
H20_3 H 0.4636 0.0881 0.8920
H21_3 H 0.4329 0.1521 0.8881
N7_3 N 0.32913(14) 0.05657(15) 0.89272(10)
C22_3 C 0.3710(2) 0.0838(3) 0.8972(2)
N11_3 N 0.26373(15) 0.01935(14) 0.80245(8)
N2_3 N 0.21985(12) 0.92969(13) 0.08992(8)
N4_3 N 0.42083(13) 0.81699(14) 0.13046(10)
N5_3 N 0.27382(13) 0.93213(14) 0.16198(8)
N6_3 N 0.26373(15) 0.98065(14) 0.30245(8)
C1_3 C 0.17935(15) 0.9525(2) 0.01379(11)
H1_3 H 0.1401 0.9457 0.0245
C4_3 C 0.28594(15) 0.95947(18) 0.02595(10)
H4_3 H 0.3201 0.9579 0.0448
C5_3 C 0.22868(14) 0.94648(14) 0.04352(9)
C6_3 C 0.17325(14) 0.88906(14) 0.10066(9)
C7_3 C 0.13543(17) 0.89510(16) 0.13893(11)
H5_3 H 0.1418 0.9264 0.1599
C8_3 C 0.08854(17) 0.85460(18) 0.14570(11)
H6_3 H 0.0630 0.8603 0.1709
C9_3 C 0.11588(17) 0.80016(17) 0.08153(12)
H7_3 H 0.1102 0.7671 0.0621
C10_3 C 0.16262(17) 0.83953(18) 0.07199(12)
H8_3 H 0.1872 0.8331 0.0463
C11_3 C 0.24551(15) 0.96855(14) 0.12562(10)
H9_3 H 0.2756 0.9953 0.1121
H10_3 H 0.2137 0.9935 0.1389
C12_3 C 0.3143(2) 0.8345(2) 0.1356(2)
H11_3 H 0.2752 0.8188 0.1326
C13_3 C 0.3647(2) 0.7984(2) 0.1266(2)
H12_3 H 0.3581 0.7586 0.1171
C14_3 C 0.4286(2) 0.8744(2) 0.1413(3)
H13_3 H 0.4679 0.8897 0.1416
C15_3 C 0.3812(2) 0.9135(2) 0.1525(3)
H14_3 H 0.3894 0.9529 0.1622
C16_3 C 0.32310(15) 0.89357(15) 0.14918(9)
C17_3 C 0.27048(14) 0.94941(14) 0.20792(9)
C18_3 C 0.2957(2) 0.9128(2) 0.24217(11)
H15_3 H 0.3158 0.8771 0.2344
C19_3 C 0.2905(2) 0.9302(2) 0.28777(11)
H16_3 H 0.3071 0.9046 0.3100
Fe4_3 Fe 0.49970(2) 0.75415(2) 0.12386(2)
N1_3 N 0.24442(12) 0.97923(15) 0.95063(9)
C2_3 C 0.18887(15) 0.96839(19) 0.96837(10)
H2_3 H 0.1553 0.9718 0.9490
C3_3 C 0.29111(16) 0.97472(18) 0.97975(10)
H3_3 H 0.3298 0.9823 0.9682
B2_3 B 0.0700(11) 0.8843(11) 0.8594(8)
H22_3 H 0.0453 0.9017 0.8356
H23_3 H 0.0756 0.8418 0.8535
H24_3 H 0.0503 0.8895 0.8887
N8_3 N 0.17754(15) 0.94334(15) 0.86258(10)
C23_3 C 0.1351(3) 0.9176(3) 0.8603(2)
N10_3 N 0.31699(14) 0.92083(13) 0.86954(10)
N2_4 N 0.78015(12) 0.07031(13) 0.08992(8)
N4_4 N 0.57917(13) 0.18301(14) 0.13046(10)
N5_4 N 0.72618(13) 0.06787(14) 0.16198(8)
N6_4 N 0.73627(15) 0.01935(14) 0.30245(8)
C1_4 C 0.82065(15) 0.0475(2) 0.01379(11)
H1_4 H 0.8599 0.0543 0.0245
C4_4 C 0.71406(15) 0.04053(18) 0.02595(10)
H4_4 H 0.6799 0.0421 0.0448
C5_4 C 0.77132(14) 0.05352(14) 0.04352(9)
C6_4 C 0.82675(14) 0.11094(14) 0.10066(9)
C7_4 C 0.86457(17) 0.10490(16) 0.13893(11)
H5_4 H 0.8582 0.0736 0.1599
C8_4 C 0.91146(17) 0.14540(18) 0.14570(11)
H6_4 H 0.9370 0.1397 0.1709
C9_4 C 0.88412(17) 0.19984(17) 0.08153(12)
H7_4 H 0.8898 0.2329 0.0621
C10_4 C 0.83738(17) 0.16047(18) 0.07199(12)
H8_4 H 0.8128 0.1669 0.0463
C11_4 C 0.75449(15) 0.03145(14) 0.12562(10)
H9_4 H 0.7244 0.0047 0.1121
H10_4 H 0.7863 0.0065 0.1389
C12_4 C 0.6857(2) 0.1655(2) 0.1356(2)
H11_4 H 0.7248 0.1812 0.1326
C13_4 C 0.6353(2) 0.2016(2) 0.1266(2)
H12_4 H 0.6419 0.2414 0.1171
C14_4 C 0.5714(2) 0.1256(2) 0.1413(3)
H13_4 H 0.5321 0.1103 0.1416
C15_4 C 0.6188(2) 0.0865(2) 0.1525(3)
H14_4 H 0.6106 0.0471 0.1622
C16_4 C 0.67690(15) 0.10643(15) 0.14918(9)
C17_4 C 0.72952(14) 0.05059(14) 0.20792(9)
C18_4 C 0.7043(2) 0.0872(2) 0.24217(11)
H15_4 H 0.6842 0.1229 0.2344
C19_4 C 0.7095(2) 0.0698(2) 0.28777(11)
H16_4 H 0.6929 0.0954 0.3100
Fe4_4 Fe 0.50030(2) 0.24585(2) 0.12386(2)
N1_4 N 0.75558(12) 0.02077(15) 0.95063(9)
C2_4 C 0.81113(15) 0.03161(19) 0.96837(10)
H2_4 H 0.8447 0.0282 0.9490
C3_4 C 0.70889(16) 0.02528(18) 0.97975(10)
H3_4 H 0.6702 0.0177 0.9682
B2_4 B 0.9300(11) 0.1157(11) 0.8594(8)
H22_4 H 0.9547 0.0983 0.8356
H23_4 H 0.9244 0.1582 0.8535
H24_4 H 0.9497 0.1105 0.8887
N8_4 N 0.82246(15) 0.05666(15) 0.86258(10)
C23_4 C 0.8649(3) 0.0824(3) 0.8603(2)
N10_4 N 0.68301(14) 0.07917(13) 0.86954(10)
C20_4 C 0.7599(2) 0.9846(2) 0.26972(12)
H17_4 H 0.7794 0.9490 0.2788
C21_4 C 0.7576(2) 0.99744(19) 0.22313(12)
H18_4 H 0.7748 0.9707 0.2019
Fe3_4 Fe 0.74585(2) 0.99970(2) 0.37614(2)
B1_4 B 0.5677(9) 0.8861(12) 0.9040(9)
H19_4 H 0.5609 0.8794 0.9363
H20_4 H 0.5364 0.9119 0.8920
H21_4 H 0.5671 0.8479 0.8881
N7_4 N 0.67087(14) 0.94343(15) 0.89272(10)
C22_4 C 0.6290(2) 0.9162(3) 0.8972(2)
N11_4 N 0.73627(15) 0.98065(14) 0.80245(8)
N1_5 N 0.02077(15) 0.75558(12) 0.54937(9)
N2_5 N 0.07031(13) 0.78015(12) 0.41008(8)
N3_3 N 0.19311(14) 0.92196(13) 0.38259(9)
N4_5 N 0.18301(14) 0.57917(13) 0.36954(10)
N5_5 N 0.06787(14) 0.72618(13) 0.33802(8)
C1_5 C 0.0475(2) 0.82065(15) 0.48621(11)
H1_5 H 0.0543 0.8599 0.4755
C2_5 C 0.03161(19) 0.81113(15) 0.53163(10)
H2_5 H 0.0282 0.8447 0.5510
C3_5 C 0.02528(18) 0.70889(16) 0.52025(10)
H3_5 H 0.0177 0.6702 0.5318
C4_5 C 0.04053(18) 0.71406(15) 0.47405(10)
H4_5 H 0.0421 0.6799 0.4552
C5_5 C 0.05352(14) 0.77132(14) 0.45648(9)
C6_5 C 0.11094(14) 0.82675(14) 0.39934(9)
C7_5 C 0.10490(16) 0.86457(17) 0.36107(11)
H5_5 H 0.0736 0.8582 0.3401
C8_5 C 0.14540(18) 0.91146(17) 0.35430(11)
H6_5 H 0.1397 0.9370 0.3291
C9_5 C 0.19984(17) 0.88412(17) 0.41847(12)
H7_5 H 0.2329 0.8898 0.4379
C10_5 C 0.16047(18) 0.83738(17) 0.42801(12)
H8_5 H 0.1669 0.8128 0.4537
C11_5 C 0.03145(14) 0.75449(15) 0.37438(10)
H9_5 H 0.0047 0.7244 0.3879
H10_5 H 0.0065 0.7863 0.3611
C12_5 C 0.1655(2) 0.6857(2) 0.3644(2)
H11_5 H 0.1812 0.7248 0.3674
C13_5 C 0.2016(2) 0.6353(2) 0.3734(2)
H12_5 H 0.2414 0.6419 0.3829
C14_5 C 0.1256(2) 0.5714(2) 0.3587(3)
H13_5 H 0.1103 0.5321 0.3584
C15_5 C 0.0865(2) 0.6188(2) 0.3475(3)
H14_5 H 0.0471 0.6106 0.3378
C16_5 C 0.10643(15) 0.67690(15) 0.35082(9)
C17_5 C 0.05059(14) 0.72952(14) 0.29208(9)
C18_5 C 0.0872(2) 0.7043(2) 0.25783(11)
H15_5 H 0.1229 0.6842 0.2656
C19_5 C 0.0698(2) 0.7095(2) 0.21223(11)
H16_5 H 0.0954 0.6929 0.1900
B2_5 B 0.1157(11) 0.9300(11) 0.6406(8)
H22_5 H 0.0983 0.9547 0.6644
H23_5 H 0.1582 0.9244 0.6465
H24_5 H 0.1105 0.9497 0.6113
N8_5 N 0.05666(15) 0.82246(15) 0.63742(10)
C23_5 C 0.0824(3) 0.8649(3) 0.6397(2)
Fe4_5 Fe 0.24585(2) 0.50030(2) 0.37614(2)
N10_5 N 0.07917(13) 0.68301(14) 0.63046(10)
C20_5 C 0.9846(2) 0.7599(2) 0.23028(12)
H17_5 H 0.9490 0.7794 0.2212
C21_5 C 0.99744(19) 0.7576(2) 0.27687(12)
H18_5 H 0.9707 0.7748 0.2981
B1_5 B 0.8861(12) 0.5677(9) 0.5960(9)
H19_5 H 0.8794 0.5609 0.5637
H20_5 H 0.9119 0.5364 0.6080
H21_5 H 0.8479 0.5671 0.6119
N7_5 N 0.94343(15) 0.67087(14) 0.60728(10)
C22_5 C 0.9162(3) 0.6290(2) 0.6028(2)
N9_3 N 0.92196(13) 0.80689(14) 0.61741(9)
C20_6 C 0.0154(2) 0.2401(2) 0.23028(12)
H17_6 H 0.0510 0.2206 0.2212
C21_6 C 0.00256(19) 0.2424(2) 0.27687(12)
H18_6 H 0.0293 0.2252 0.2981
B1_6 B 0.1139(12) 0.4323(9) 0.5960(9)
H19_6 H 0.1206 0.4391 0.5637
H20_6 H 0.0881 0.4636 0.6080
H21_6 H 0.1521 0.4329 0.6119
N7_6 N 0.05657(15) 0.32913(14) 0.60728(10)
C22_6 C 0.0838(3) 0.3710(2) 0.6028(2)
N9_4 N 0.07804(13) 0.19311(14) 0.61741(9)
N1_6 N 0.97923(15) 0.24442(12) 0.54937(9)
N2_6 N 0.92969(13) 0.21985(12) 0.41008(8)
N3_4 N 0.80689(14) 0.07804(13) 0.38259(9)
N4_6 N 0.81699(14) 0.42083(13) 0.36954(10)
N5_6 N 0.93213(14) 0.27382(13) 0.33802(8)
C1_6 C 0.9525(2) 0.17935(15) 0.48621(11)
H1_6 H 0.9457 0.1401 0.4755
C2_6 C 0.96839(19) 0.18887(15) 0.53163(10)
H2_6 H 0.9718 0.1553 0.5510
C3_6 C 0.97472(18) 0.29111(16) 0.52025(10)
H3_6 H 0.9823 0.3298 0.5318
C4_6 C 0.95947(18) 0.28594(15) 0.47405(10)
H4_6 H 0.9579 0.3201 0.4552
C5_6 C 0.94648(14) 0.22868(14) 0.45648(9)
C6_6 C 0.88906(14) 0.17325(14) 0.39934(9)
C7_6 C 0.89510(16) 0.13543(17) 0.36107(11)
H5_6 H 0.9264 0.1418 0.3401
C8_6 C 0.85460(18) 0.08854(17) 0.35430(11)
H6_6 H 0.8603 0.0630 0.3291
C9_6 C 0.80016(17) 0.11588(17) 0.41847(12)
H7_6 H 0.7671 0.1102 0.4379
C10_6 C 0.83953(18) 0.16262(17) 0.42801(12)
H8_6 H 0.8331 0.1872 0.4537
C11_6 C 0.96855(14) 0.24551(15) 0.37438(10)
H9_6 H 0.9953 0.2756 0.3879
H10_6 H 0.9935 0.2137 0.3611
C12_6 C 0.8345(2) 0.3143(2) 0.3644(2)
H11_6 H 0.8188 0.2752 0.3674
C13_6 C 0.7984(2) 0.3647(2) 0.3734(2)
H12_6 H 0.7586 0.3581 0.3829
C14_6 C 0.8744(2) 0.4286(2) 0.3587(3)
H13_6 H 0.8897 0.4679 0.3584
C15_6 C 0.9135(2) 0.3812(2) 0.3475(3)
H14_6 H 0.9529 0.3894 0.3378
C16_6 C 0.89357(15) 0.32310(15) 0.35082(9)
C17_6 C 0.94941(14) 0.27048(14) 0.29208(9)
C18_6 C 0.9128(2) 0.2957(2) 0.25783(11)
H15_6 H 0.8771 0.3158 0.2656
C19_6 C 0.9302(2) 0.2905(2) 0.21223(11)
H16_6 H 0.9046 0.3071 0.1900
B2_6 B 0.8843(11) 0.0700(11) 0.6406(8)
H22_6 H 0.9017 0.0453 0.6644
H23_6 H 0.8418 0.0756 0.6465
H24_6 H 0.8895 0.0503 0.6113
N8_6 N 0.94334(15) 0.17754(15) 0.63742(10)
C23_6 C 0.9176(3) 0.1351(3) 0.6397(2)
Fe4_6 Fe 0.75415(2) 0.49970(2) 0.37614(2)
N10_6 N 0.92083(13) 0.31699(14) 0.63046(10)
N1_7 N 0.24442(12) 0.02077(15) 0.45063(9)
N2_7 N 0.21985(12) 0.07031(13) 0.58992(8)
N4_7 N 0.42083(13) 0.18301(14) 0.63046(10)
N5_7 N 0.27382(13) 0.06787(14) 0.66198(8)
C1_7 C 0.17935(15) 0.0475(2) 0.51379(11)
H1_7 H 0.1401 0.0543 0.5245
C2_7 C 0.18887(15) 0.03161(19) 0.46837(10)
H2_7 H 0.1553 0.0282 0.4490
C3_7 C 0.29111(16) 0.02528(18) 0.47975(10)
H3_7 H 0.3298 0.0177 0.4682
C4_7 C 0.28594(15) 0.04053(18) 0.52595(10)
H4_7 H 0.3201 0.0421 0.5448
C5_7 C 0.22868(14) 0.05352(14) 0.54352(9)
C6_7 C 0.17325(14) 0.11094(14) 0.60066(9)
C7_7 C 0.13543(17) 0.10490(16) 0.63893(11)
H5_7 H 0.1418 0.0736 0.6599
C8_7 C 0.08854(17) 0.14540(18) 0.64570(11)
H6_7 H 0.0630 0.1397 0.6709
C9_7 C 0.11588(17) 0.19984(17) 0.58153(12)
H7_7 H 0.1102 0.2329 0.5621
C10_7 C 0.16262(17) 0.16047(18) 0.57199(12)
H8_7 H 0.1872 0.1669 0.5463
C11_7 C 0.24551(15) 0.03145(14) 0.62562(10)
H9_7 H 0.2756 0.0047 0.6121
H10_7 H 0.2137 0.0065 0.6389
C12_7 C 0.3143(2) 0.1655(2) 0.6356(2)
H11_7 H 0.2752 0.1812 0.6326
C13_7 C 0.3647(2) 0.2016(2) 0.6266(2)
H12_7 H 0.3581 0.2414 0.6171
C14_7 C 0.4286(2) 0.1256(2) 0.6413(3)
H13_7 H 0.4679 0.1103 0.6416
C15_7 C 0.3812(2) 0.0865(2) 0.6525(3)
H14_7 H 0.3894 0.0471 0.6622
C16_7 C 0.32310(15) 0.10643(15) 0.64918(9)
C17_7 C 0.27048(14) 0.05059(14) 0.70792(9)
C18_7 C 0.2957(2) 0.0872(2) 0.74217(11)
H15_7 H 0.3158 0.1229 0.7344
C19_7 C 0.2905(2) 0.0698(2) 0.78777(11)
H16_7 H 0.3071 0.0954 0.8100
B2_7 B 0.0700(11) 0.1157(11) 0.3594(8)
H22_7 H 0.0453 0.0983 0.3356
H23_7 H 0.0756 0.1582 0.3535
H24_7 H 0.0503 0.1105 0.3887
N8_7 N 0.17754(15) 0.05666(15) 0.36258(10)
C23_7 C 0.1351(3) 0.0824(3) 0.3603(2)
Fe4_7 Fe 0.49970(2) 0.24585(2) 0.62386(2)
N10_7 N 0.31699(14) 0.07917(13) 0.36954(10)
C20_7 C 0.2401(2) 0.9846(2) 0.76972(12)
H17_7 H 0.2206 0.9490 0.7788
C21_7 C 0.2424(2) 0.99744(19) 0.72313(12)
H18_7 H 0.2252 0.9707 0.7019
B1_7 B 0.4323(9) 0.8861(12) 0.4040(9)
H19_7 H 0.4391 0.8794 0.4363
H20_7 H 0.4636 0.9119 0.3920
H21_7 H 0.4329 0.8479 0.3881
N7_7 N 0.32913(14) 0.94343(15) 0.39272(10)
C22_7 C 0.3710(2) 0.9162(3) 0.3972(2)
C20_8 C 0.7599(2) 0.0154(2) 0.76972(12)
H17_8 H 0.7794 0.0510 0.7788
C21_8 C 0.7576(2) 0.00256(19) 0.72313(12)
H18_8 H 0.7748 0.0293 0.7019
B1_8 B 0.5677(9) 0.1139(12) 0.4040(9)
H19_8 H 0.5609 0.1206 0.4363
H20_8 H 0.5364 0.0881 0.3920
H21_8 H 0.5671 0.1521 0.3881
N7_8 N 0.67087(14) 0.05657(15) 0.39272(10)
C22_8 C 0.6290(2) 0.0838(3) 0.3972(2)
N1_8 N 0.75558(12) 0.97923(15) 0.45063(9)
N2_8 N 0.78015(12) 0.92969(13) 0.58992(8)
N4_8 N 0.57917(13) 0.81699(14) 0.63046(10)
N5_8 N 0.72618(13) 0.93213(14) 0.66198(8)
C1_8 C 0.82065(15) 0.9525(2) 0.51379(11)
H1_8 H 0.8599 0.9457 0.5245
C2_8 C 0.81113(15) 0.96839(19) 0.46837(10)
H2_8 H 0.8447 0.9718 0.4490
C3_8 C 0.70889(16) 0.97472(18) 0.47975(10)
H3_8 H 0.6702 0.9823 0.4682
C4_8 C 0.71406(15) 0.95947(18) 0.52595(10)
H4_8 H 0.6799 0.9579 0.5448
C5_8 C 0.77132(14) 0.94648(14) 0.54352(9)
C6_8 C 0.82675(14) 0.88906(14) 0.60066(9)
C7_8 C 0.86457(17) 0.89510(16) 0.63893(11)
H5_8 H 0.8582 0.9264 0.6599
C8_8 C 0.91146(17) 0.85460(18) 0.64570(11)
H6_8 H 0.9370 0.8603 0.6709
C9_8 C 0.88412(17) 0.80016(17) 0.58153(12)
H7_8 H 0.8898 0.7671 0.5621
C10_8 C 0.83738(17) 0.83953(18) 0.57199(12)
H8_8 H 0.8128 0.8331 0.5463
C11_8 C 0.75449(15) 0.96855(14) 0.62562(10)
H9_8 H 0.7244 0.9953 0.6121
H10_8 H 0.7863 0.9935 0.6389
C12_8 C 0.6857(2) 0.8345(2) 0.6356(2)
H11_8 H 0.7248 0.8188 0.6326
C13_8 C 0.6353(2) 0.7984(2) 0.6266(2)
H12_8 H 0.6419 0.7586 0.6171
C14_8 C 0.5714(2) 0.8744(2) 0.6413(3)
H13_8 H 0.5321 0.8897 0.6416
C15_8 C 0.6188(2) 0.9135(2) 0.6525(3)
H14_8 H 0.6106 0.9529 0.6622
C16_8 C 0.67690(15) 0.89357(15) 0.64918(9)
C17_8 C 0.72952(14) 0.94941(14) 0.70792(9)
C18_8 C 0.7043(2) 0.9128(2) 0.74217(11)
H15_8 H 0.6842 0.8771 0.7344
C19_8 C 0.7095(2) 0.9302(2) 0.78777(11)
H16_8 H 0.6929 0.9046 0.8100
B2_8 B 0.9300(11) 0.8843(11) 0.3594(8)
H22_8 H 0.9547 0.9017 0.3356
H23_8 H 0.9244 0.8418 0.3535
H24_8 H 0.9497 0.8895 0.3887
N8_8 N 0.82246(15) 0.94334(15) 0.36258(10)
C23_8 C 0.8649(3) 0.9176(3) 0.3603(2)
Fe4_8 Fe 0.50030(2) 0.75415(2) 0.62386(2)
N10_8 N 0.68301(14) 0.92083(13) 0.36954(10)
N1_9 N 0.52077(15) 0.74442(12) 0.54937(9)
N2_9 N 0.57031(13) 0.71985(12) 0.41008(8)
N3_5 N 0.69311(14) 0.57804(13) 0.38259(9)
N5_9 N 0.56787(14) 0.77382(13) 0.33802(8)
N6_5 N 0.51935(14) 0.76373(15) 0.19755(8)
C1_9 C 0.5475(2) 0.67935(15) 0.48621(11)
H1_9 H 0.5543 0.6401 0.4755
C2_9 C 0.53161(19) 0.68887(15) 0.53163(10)
H2_9 H 0.5282 0.6553 0.5510
C3_9 C 0.52528(18) 0.79111(16) 0.52025(10)
H3_9 H 0.5177 0.8298 0.5318
C4_9 C 0.54053(18) 0.78594(15) 0.47405(10)
H4_9 H 0.5421 0.8201 0.4552
C5_9 C 0.55352(14) 0.72868(14) 0.45648(9)
C6_9 C 0.61094(14) 0.67325(14) 0.39934(9)
C7_9 C 0.60490(16) 0.63543(17) 0.36107(11)
H5_9 H 0.5736 0.6418 0.3401
C8_9 C 0.64540(18) 0.58854(17) 0.35430(11)
H6_9 H 0.6397 0.5630 0.3291
C9_9 C 0.69984(17) 0.61588(17) 0.41847(12)
H7_9 H 0.7329 0.6102 0.4379
C10_9 C 0.66047(18) 0.66262(17) 0.42801(12)
H8_9 H 0.6669 0.6872 0.4537
C11_9 C 0.53145(14) 0.74551(15) 0.37438(10)
H9_9 H 0.5047 0.7756 0.3879
H10_9 H 0.5065 0.7137 0.3611
C12_9 C 0.6655(2) 0.8143(2) 0.3644(2)
H11_9 H 0.6812 0.7752 0.3674
C13_9 C 0.7016(2) 0.8647(2) 0.3734(2)
H12_9 H 0.7414 0.8581 0.3829
C14_9 C 0.6256(2) 0.9286(2) 0.3587(3)
H13_9 H 0.6103 0.9679 0.3584
C15_9 C 0.5865(2) 0.8812(2) 0.3475(3)
H14_9 H 0.5471 0.8894 0.3378
C16_9 C 0.60643(15) 0.82310(15) 0.35082(9)
C17_9 C 0.55059(14) 0.77048(14) 0.29208(9)
C18_9 C 0.5872(2) 0.7957(2) 0.25783(11)
H15_9 H 0.6229 0.8158 0.2656
C19_9 C 0.5698(2) 0.7905(2) 0.21223(11)
H16_9 H 0.5954 0.8071 0.1900
C20_9 C 0.4846(2) 0.7401(2) 0.23028(12)
H17_9 H 0.4490 0.7206 0.2212
C21_9 C 0.49744(19) 0.7424(2) 0.27687(12)
H18_9 H 0.4707 0.7252 0.2981
B1_9 B 0.3861(12) 0.9323(9) 0.5960(9)
H19_9 H 0.3794 0.9391 0.5637
H20_9 H 0.4119 0.9636 0.6080
H21_9 H 0.3479 0.9329 0.6119
B2_9 B 0.6157(11) 0.5700(11) 0.6406(8)
H22_9 H 0.5983 0.5453 0.6644
H23_9 H 0.6582 0.5756 0.6465
H24_9 H 0.6105 0.5503 0.6113
N7_9 N 0.44343(15) 0.82913(14) 0.60728(10)
N8_9 N 0.55666(15) 0.67754(15) 0.63742(10)
C22_9 C 0.4162(3) 0.8710(2) 0.6028(2)
C23_9 C 0.5824(3) 0.6351(3) 0.6397(2)
N9_5 N 0.42196(13) 0.69311(14) 0.61741(9)
N11_5 N 0.48065(14) 0.76373(15) 0.69755(8)
N1_10 N 0.47923(15) 0.25558(12) 0.54937(9)
N2_10 N 0.42969(13) 0.28015(12) 0.41008(8)
N3_6 N 0.30689(14) 0.42196(13) 0.38259(9)
N5_10 N 0.43213(14) 0.22618(13) 0.33802(8)
N6_6 N 0.48065(14) 0.23627(15) 0.19755(8)
C1_10 C 0.4525(2) 0.32065(15) 0.48621(11)
H1_10 H 0.4457 0.3599 0.4755
C2_10 C 0.46839(19) 0.31113(15) 0.53163(10)
H2_10 H 0.4718 0.3447 0.5510
C3_10 C 0.47472(18) 0.20889(16) 0.52025(10)
H3_10 H 0.4823 0.1702 0.5318
C4_10 C 0.45947(18) 0.21406(15) 0.47405(10)
H4_10 H 0.4579 0.1799 0.4552
C5_10 C 0.44648(14) 0.27132(14) 0.45648(9)
C6_10 C 0.38906(14) 0.32675(14) 0.39934(9)
C7_10 C 0.39510(16) 0.36457(17) 0.36107(11)
H5_10 H 0.4264 0.3582 0.3401
C8_10 C 0.35460(18) 0.41146(17) 0.35430(11)
H6_10 H 0.3603 0.4370 0.3291
C9_10 C 0.30016(17) 0.38412(17) 0.41847(12)
H7_10 H 0.2671 0.3898 0.4379
C10_10 C 0.33953(18) 0.33738(17) 0.42801(12)
H8_10 H 0.3331 0.3128 0.4537
C11_10 C 0.46855(14) 0.25449(15) 0.37438(10)
H9_10 H 0.4953 0.2244 0.3879
H10_10 H 0.4935 0.2863 0.3611
C12_10 C 0.3345(2) 0.1857(2) 0.3644(2)
H11_10 H 0.3188 0.2248 0.3674
C13_10 C 0.2984(2) 0.1353(2) 0.3734(2)
H12_10 H 0.2586 0.1419 0.3829
C14_10 C 0.3744(2) 0.0714(2) 0.3587(3)
H13_10 H 0.3897 0.0321 0.3584
C15_10 C 0.4135(2) 0.1188(2) 0.3475(3)
H14_10 H 0.4529 0.1106 0.3378
C16_10 C 0.39357(15) 0.17690(15) 0.35082(9)
C17_10 C 0.44941(14) 0.22952(14) 0.29208(9)
C18_10 C 0.4128(2) 0.2043(2) 0.25783(11)
H15_10 H 0.3771 0.1842 0.2656
C19_10 C 0.4302(2) 0.2095(2) 0.21223(11)
H16_10 H 0.4046 0.1929 0.1900
C20_10 C 0.5154(2) 0.2599(2) 0.23028(12)
H17_10 H 0.5510 0.2794 0.2212
C21_10 C 0.50256(19) 0.2576(2) 0.27687(12)
H18_10 H 0.5293 0.2748 0.2981
B1_10 B 0.6139(12) 0.0677(9) 0.5960(9)
H19_10 H 0.6206 0.0609 0.5637
H20_10 H 0.5881 0.0364 0.6080
H21_10 H 0.6521 0.0671 0.6119
B2_10 B 0.3843(11) 0.4300(11) 0.6406(8)
H22_10 H 0.4017 0.4547 0.6644
H23_10 H 0.3418 0.4244 0.6465
H24_10 H 0.3895 0.4497 0.6113
N7_10 N 0.55657(15) 0.17087(14) 0.60728(10)
N8_10 N 0.44334(15) 0.32246(15) 0.63742(10)
C22_10 C 0.5838(3) 0.1290(2) 0.6028(2)
C23_10 C 0.4176(3) 0.3649(3) 0.6397(2)
N9_6 N 0.57804(13) 0.30689(14) 0.61741(9)
N11_6 N 0.51935(14) 0.23627(15) 0.69755(8)
N1_11 N 0.74442(12) 0.47923(15) 0.45063(9)
N2_11 N 0.71985(12) 0.42969(13) 0.58992(8)
N5_11 N 0.77382(13) 0.43213(14) 0.66198(8)
N6_7 N 0.76373(15) 0.48065(14) 0.80245(8)
C1_11 C 0.67935(15) 0.4525(2) 0.51379(11)
H1_11 H 0.6401 0.4457 0.5245
C2_11 C 0.68887(15) 0.46839(19) 0.46837(10)
H2_11 H 0.6553 0.4718 0.4490
C3_11 C 0.79111(16) 0.47472(18) 0.47975(10)
H3_11 H 0.8298 0.4823 0.4682
C4_11 C 0.78594(15) 0.45947(18) 0.52595(10)
H4_11 H 0.8201 0.4579 0.5448
C5_11 C 0.72868(14) 0.44648(14) 0.54352(9)
C6_11 C 0.67325(14) 0.38906(14) 0.60066(9)
C7_11 C 0.63543(17) 0.39510(16) 0.63893(11)
H5_11 H 0.6418 0.4264 0.6599
C8_11 C 0.58854(17) 0.35460(18) 0.64570(11)
H6_11 H 0.5630 0.3603 0.6709
C9_11 C 0.61588(17) 0.30016(17) 0.58153(12)
H7_11 H 0.6102 0.2671 0.5621
C10_11 C 0.66262(17) 0.33953(18) 0.57199(12)
H8_11 H 0.6872 0.3331 0.5463
C11_11 C 0.74551(15) 0.46855(14) 0.62562(10)
H9_11 H 0.7756 0.4953 0.6121
H10_11 H 0.7137 0.4935 0.6389
C12_11 C 0.8143(2) 0.3345(2) 0.6356(2)
H11_11 H 0.7752 0.3188 0.6326
C13_11 C 0.8647(2) 0.2984(2) 0.6266(2)
H12_11 H 0.8581 0.2586 0.6171
C14_11 C 0.9286(2) 0.3744(2) 0.6413(3)
H13_11 H 0.9679 0.3897 0.6416
C15_11 C 0.8812(2) 0.4135(2) 0.6525(3)
H14_11 H 0.8894 0.4529 0.6622
C16_11 C 0.82310(15) 0.39357(15) 0.64918(9)
C17_11 C 0.77048(14) 0.44941(14) 0.70792(9)
C18_11 C 0.7957(2) 0.4128(2) 0.74217(11)
H15_11 H 0.8158 0.3771 0.7344
C19_11 C 0.7905(2) 0.4302(2) 0.78777(11)
H16_11 H 0.8071 0.4046 0.8100
C20_11 C 0.7401(2) 0.5154(2) 0.76972(12)
H17_11 H 0.7206 0.5510 0.7788
C21_11 C 0.7424(2) 0.50256(19) 0.72313(12)
H18_11 H 0.7252 0.5293 0.7019
B1_11 B 0.9323(9) 0.6139(12) 0.4040(9)
H19_11 H 0.9391 0.6206 0.4363
H20_11 H 0.9636 0.5881 0.3920
H21_11 H 0.9329 0.6521 0.3881
B2_11 B 0.5700(11) 0.3843(11) 0.3594(8)
H22_11 H 0.5453 0.4017 0.3356
H23_11 H 0.5756 0.3418 0.3535
H24_11 H 0.5503 0.3895 0.3887
N7_11 N 0.82913(14) 0.55657(15) 0.39272(10)
N8_11 N 0.67754(15) 0.44334(15) 0.36258(10)
C22_11 C 0.8710(2) 0.5838(3) 0.3972(2)
C23_11 C 0.6351(3) 0.4176(3) 0.3603(2)
N11_7 N 0.76373(15) 0.51935(14) 0.30245(8)
N1_12 N 0.25558(12) 0.52077(15) 0.45063(9)
N2_12 N 0.28015(12) 0.57031(13) 0.58992(8)
N5_12 N 0.22618(13) 0.56787(14) 0.66198(8)
N6_8 N 0.23627(15) 0.51935(14) 0.80245(8)
C1_12 C 0.32065(15) 0.5475(2) 0.51379(11)
H1_12 H 0.3599 0.5543 0.5245
C2_12 C 0.31113(15) 0.53161(19) 0.46837(10)
H2_12 H 0.3447 0.5282 0.4490
C3_12 C 0.20889(16) 0.52528(18) 0.47975(10)
H3_12 H 0.1702 0.5177 0.4682
C4_12 C 0.21406(15) 0.54053(18) 0.52595(10)
H4_12 H 0.1799 0.5421 0.5448
C5_12 C 0.27132(14) 0.55352(14) 0.54352(9)
C6_12 C 0.32675(14) 0.61094(14) 0.60066(9)
C7_12 C 0.36457(17) 0.60490(16) 0.63893(11)
H5_12 H 0.3582 0.5736 0.6599
C8_12 C 0.41146(17) 0.64540(18) 0.64570(11)
H6_12 H 0.4370 0.6397 0.6709
C9_12 C 0.38412(17) 0.69984(17) 0.58153(12)
H7_12 H 0.3898 0.7329 0.5621
C10_12 C 0.33738(17) 0.66047(18) 0.57199(12)
H8_12 H 0.3128 0.6669 0.5463
C11_12 C 0.25449(15) 0.53145(14) 0.62562(10)
H9_12 H 0.2244 0.5047 0.6121
H10_12 H 0.2863 0.5065 0.6389
C12_12 C 0.1857(2) 0.6655(2) 0.6356(2)
H11_12 H 0.2248 0.6812 0.6326
C13_12 C 0.1353(2) 0.7016(2) 0.6266(2)
H12_12 H 0.1419 0.7414 0.6171
C14_12 C 0.0714(2) 0.6256(2) 0.6413(3)
H13_12 H 0.0321 0.6103 0.6416
C15_12 C 0.1188(2) 0.5865(2) 0.6525(3)
H14_12 H 0.1106 0.5471 0.6622
C16_12 C 0.17690(15) 0.60643(15) 0.64918(9)
C17_12 C 0.22952(14) 0.55059(14) 0.70792(9)
C18_12 C 0.2043(2) 0.5872(2) 0.74217(11)
H15_12 H 0.1842 0.6229 0.7344
C19_12 C 0.2095(2) 0.5698(2) 0.78777(11)
H16_12 H 0.1929 0.5954 0.8100
C20_12 C 0.2599(2) 0.4846(2) 0.76972(12)
H17_12 H 0.2794 0.4490 0.7788
C21_12 C 0.2576(2) 0.49744(19) 0.72313(12)
H18_12 H 0.2748 0.4707 0.7019
B1_12 B 0.0677(9) 0.3861(12) 0.4040(9)
H19_12 H 0.0609 0.3794 0.4363
H20_12 H 0.0364 0.4119 0.3920
H21_12 H 0.0671 0.3479 0.3881
B2_12 B 0.4300(11) 0.6157(11) 0.3594(8)
H22_12 H 0.4547 0.5983 0.3356
H23_12 H 0.4244 0.6582 0.3535
H24_12 H 0.4497 0.6105 0.3887
N7_12 N 0.17087(14) 0.44343(15) 0.39272(10)
N8_12 N 0.32246(15) 0.55666(15) 0.36258(10)
C22_12 C 0.1290(2) 0.4162(3) 0.3972(2)
C23_12 C 0.3649(3) 0.5824(3) 0.3603(2)
N11_8 N 0.23627(15) 0.48065(14) 0.30245(8)
N1_13 N 0.52077(15) 0.25558(12) 0.04937(9)
C2_13 C 0.53161(19) 0.31113(15) 0.03163(10)
H2_13 H 0.5282 0.3447 0.0510
C3_13 C 0.52528(18) 0.20889(16) 0.02025(10)
H3_13 H 0.5177 0.1702 0.0318
B1_13 B 0.3861(12) 0.0677(9) 0.0960(9)
H19_13 H 0.3794 0.0609 0.0637
H20_13 H 0.4119 0.0364 0.1080
H21_13 H 0.3479 0.0671 0.1119
B2_13 B 0.6157(11) 0.4300(11) 0.1406(8)
H22_13 H 0.5983 0.4547 0.1644
H23_13 H 0.6582 0.4244 0.1465
H24_13 H 0.6105 0.4497 0.1113
N7_13 N 0.44343(15) 0.17087(14) 0.10728(10)
N8_13 N 0.55666(15) 0.32246(15) 0.13742(10)
C22_13 C 0.4162(3) 0.1290(2) 0.1028(2)
C23_13 C 0.5824(3) 0.3649(3) 0.1397(2)
N9_7 N 0.42196(13) 0.30689(14) 0.11741(9)
N2_13 N 0.57031(13) 0.28015(12) 0.91008(8)
N3_7 N 0.69311(14) 0.42196(13) 0.88259(9)
N5_13 N 0.56787(14) 0.22618(13) 0.83802(8)
C1_13 C 0.5475(2) 0.32065(15) 0.98621(11)
H1_13 H 0.5543 0.3599 0.9755
C4_13 C 0.54053(18) 0.21406(15) 0.97405(10)
H4_13 H 0.5421 0.1799 0.9552
C5_13 C 0.55352(14) 0.27132(14) 0.95648(9)
C6_13 C 0.61094(14) 0.32675(14) 0.89934(9)
C7_13 C 0.60490(16) 0.36457(17) 0.86107(11)
H5_13 H 0.5736 0.3582 0.8401
C8_13 C 0.64540(18) 0.41146(17) 0.85430(11)
H6_13 H 0.6397 0.4370 0.8291
C9_13 C 0.69984(17) 0.38412(17) 0.91847(12)
H7_13 H 0.7329 0.3898 0.9379
C10_13 C 0.66047(18) 0.33738(17) 0.92801(12)
H8_13 H 0.6669 0.3128 0.9537
C11_13 C 0.53145(14) 0.25449(15) 0.87438(10)
H9_13 H 0.5047 0.2244 0.8879
H10_13 H 0.5065 0.2863 0.8611
C12_13 C 0.6655(2) 0.1857(2) 0.8644(2)
H11_13 H 0.6812 0.2248 0.8674
C13_13 C 0.7016(2) 0.1353(2) 0.8734(2)
H12_13 H 0.7414 0.1419 0.8829
C14_13 C 0.6256(2) 0.0714(2) 0.8587(3)
H13_13 H 0.6103 0.0321 0.8584
C15_13 C 0.5865(2) 0.1188(2) 0.8475(3)
H14_13 H 0.5471 0.1106 0.8378
C16_13 C 0.60643(15) 0.17690(15) 0.85082(9)
C17_13 C 0.55059(14) 0.22952(14) 0.79208(9)
C18_13 C 0.5872(2) 0.2043(2) 0.75783(11)
H15_13 H 0.6229 0.1842 0.7656
C19_13 C 0.5698(2) 0.2095(2) 0.71223(11)
H16_13 H 0.5954 0.1929 0.6900
C20_13 C 0.4846(2) 0.2599(2) 0.73028(12)
H17_13 H 0.4490 0.2794 0.7212
C21_13 C 0.49744(19) 0.2576(2) 0.77687(12)
H18_13 H 0.4707 0.2748 0.7981
N1_14 N 0.47923(15) 0.74442(12) 0.04937(9)
C2_14 C 0.46839(19) 0.68887(15) 0.03163(10)
H2_14 H 0.4718 0.6553 0.0510
C3_14 C 0.47472(18) 0.79111(16) 0.02025(10)
H3_14 H 0.4823 0.8298 0.0318
B1_14 B 0.6139(12) 0.9323(9) 0.0960(9)
H19_14 H 0.6206 0.9391 0.0637
H20_14 H 0.5881 0.9636 0.1080
H21_14 H 0.6521 0.9329 0.1119
B2_14 B 0.3843(11) 0.5700(11) 0.1406(8)
H22_14 H 0.4017 0.5453 0.1644
H23_14 H 0.3418 0.5756 0.1465
H24_14 H 0.3895 0.5503 0.1113
N7_14 N 0.55657(15) 0.82913(14) 0.10728(10)
N8_14 N 0.44334(15) 0.67754(15) 0.13742(10)
C22_14 C 0.5838(3) 0.8710(2) 0.1028(2)
C23_14 C 0.4176(3) 0.6351(3) 0.1397(2)
N9_8 N 0.57804(13) 0.69311(14) 0.11741(9)
N2_14 N 0.42969(13) 0.71985(12) 0.91008(8)
N3_8 N 0.30689(14) 0.57804(13) 0.88259(9)
N5_14 N 0.43213(14) 0.77382(13) 0.83802(8)
C1_14 C 0.4525(2) 0.67935(15) 0.98621(11)
H1_14 H 0.4457 0.6401 0.9755
C4_14 C 0.45947(18) 0.78594(15) 0.97405(10)
H4_14 H 0.4579 0.8201 0.9552
C5_14 C 0.44648(14) 0.72868(14) 0.95648(9)
C6_14 C 0.38906(14) 0.67325(14) 0.89934(9)
C7_14 C 0.39510(16) 0.63543(17) 0.86107(11)
H5_14 H 0.4264 0.6418 0.8401
C8_14 C 0.35460(18) 0.58854(17) 0.85430(11)
H6_14 H 0.3603 0.5630 0.8291
C9_14 C 0.30016(17) 0.61588(17) 0.91847(12)
H7_14 H 0.2671 0.6102 0.9379
C10_14 C 0.33953(18) 0.66262(17) 0.92801(12)
H8_14 H 0.3331 0.6872 0.9537
C11_14 C 0.46855(14) 0.74551(15) 0.87438(10)
H9_14 H 0.4953 0.7756 0.8879
H10_14 H 0.4935 0.7137 0.8611
C12_14 C 0.3345(2) 0.8143(2) 0.8644(2)
H11_14 H 0.3188 0.7752 0.8674
C13_14 C 0.2984(2) 0.8647(2) 0.8734(2)
H12_14 H 0.2586 0.8581 0.8829
C14_14 C 0.3744(2) 0.9286(2) 0.8587(3)
H13_14 H 0.3897 0.9679 0.8584
C15_14 C 0.4135(2) 0.8812(2) 0.8475(3)
H14_14 H 0.4529 0.8894 0.8378
C16_14 C 0.39357(15) 0.82310(15) 0.85082(9)
C17_14 C 0.44941(14) 0.77048(14) 0.79208(9)
C18_14 C 0.4128(2) 0.7957(2) 0.75783(11)
H15_14 H 0.3771 0.8158 0.7656
C19_14 C 0.4302(2) 0.7905(2) 0.71223(11)
H16_14 H 0.4046 0.8071 0.6900
C20_14 C 0.5154(2) 0.7401(2) 0.73028(12)
H17_14 H 0.5510 0.7206 0.7212
C21_14 C 0.50256(19) 0.7424(2) 0.77687(12)
H18_14 H 0.5293 0.7252 0.7981
N2_15 N 0.71985(12) 0.57031(13) 0.08992(8)
N5_15 N 0.77382(13) 0.56787(14) 0.16198(8)
C1_15 C 0.67935(15) 0.5475(2) 0.01379(11)
H1_15 H 0.6401 0.5543 0.0245
C4_15 C 0.78594(15) 0.54053(18) 0.02595(10)
H4_15 H 0.8201 0.5421 0.0448
C5_15 C 0.72868(14) 0.55352(14) 0.04352(9)
C6_15 C 0.67325(14) 0.61094(14) 0.10066(9)
C7_15 C 0.63543(17) 0.60490(16) 0.13893(11)
H5_15 H 0.6418 0.5736 0.1599
C8_15 C 0.58854(17) 0.64540(18) 0.14570(11)
H6_15 H 0.5630 0.6397 0.1709
C9_15 C 0.61588(17) 0.69984(17) 0.08153(12)
H7_15 H 0.6102 0.7329 0.0621
C10_15 C 0.66262(17) 0.66047(18) 0.07199(12)
H8_15 H 0.6872 0.6669 0.0463
C11_15 C 0.74551(15) 0.53145(14) 0.12562(10)
H9_15 H 0.7756 0.5047 0.1121
H10_15 H 0.7137 0.5065 0.1389
C12_15 C 0.8143(2) 0.6655(2) 0.1356(2)
H11_15 H 0.7752 0.6812 0.1326
C13_15 C 0.8647(2) 0.7016(2) 0.1266(2)
H12_15 H 0.8581 0.7414 0.1171
C14_15 C 0.9286(2) 0.6256(2) 0.1413(3)
H13_15 H 0.9679 0.6103 0.1416
C15_15 C 0.8812(2) 0.5865(2) 0.1525(3)
H14_15 H 0.8894 0.5471 0.1622
C16_15 C 0.82310(15) 0.60643(15) 0.14918(9)
C17_15 C 0.77048(14) 0.55059(14) 0.20792(9)
C18_15 C 0.7957(2) 0.5872(2) 0.24217(11)
H15_15 H 0.8158 0.6229 0.2344
C19_15 C 0.7905(2) 0.5698(2) 0.28777(11)
H16_15 H 0.8071 0.5954 0.3100
C20_15 C 0.7401(2) 0.4846(2) 0.26972(12)
H17_15 H 0.7206 0.4490 0.2788
C21_15 C 0.7424(2) 0.49744(19) 0.22313(12)
H18_15 H 0.7252 0.4707 0.2019
N1_15 N 0.74442(12) 0.52077(15) 0.95063(9)
C2_15 C 0.68887(15) 0.53161(19) 0.96837(10)
H2_15 H 0.6553 0.5282 0.9490
C3_15 C 0.79111(16) 0.52528(18) 0.97975(10)
H3_15 H 0.8298 0.5177 0.9682
B1_15 B 0.9323(9) 0.3861(12) 0.9040(9)
H19_15 H 0.9391 0.3794 0.9363
H20_15 H 0.9636 0.4119 0.8920
H21_15 H 0.9329 0.3479 0.8881
B2_15 B 0.5700(11) 0.6157(11) 0.8594(8)
H22_15 H 0.5453 0.5983 0.8356
H23_15 H 0.5756 0.6582 0.8535
H24_15 H 0.5503 0.6105 0.8887
N7_15 N 0.82913(14) 0.44343(15) 0.89272(10)
N8_15 N 0.67754(15) 0.55666(15) 0.86258(10)
C22_15 C 0.8710(2) 0.4162(3) 0.8972(2)
C23_15 C 0.6351(3) 0.5824(3) 0.8603(2)
N2_16 N 0.28015(12) 0.42969(13) 0.08992(8)
N5_16 N 0.22618(13) 0.43213(14) 0.16198(8)
C1_16 C 0.32065(15) 0.4525(2) 0.01379(11)
H1_16 H 0.3599 0.4457 0.0245
C4_16 C 0.21406(15) 0.45947(18) 0.02595(10)
H4_16 H 0.1799 0.4579 0.0448
C5_16 C 0.27132(14) 0.44648(14) 0.04352(9)
C6_16 C 0.32675(14) 0.38906(14) 0.10066(9)
C7_16 C 0.36457(17) 0.39510(16) 0.13893(11)
H5_16 H 0.3582 0.4264 0.1599
C8_16 C 0.41146(17) 0.35460(18) 0.14570(11)
H6_16 H 0.4370 0.3603 0.1709
C9_16 C 0.38412(17) 0.30016(17) 0.08153(12)
H7_16 H 0.3898 0.2671 0.0621
C10_16 C 0.33738(17) 0.33953(18) 0.07199(12)
H8_16 H 0.3128 0.3331 0.0463
C11_16 C 0.25449(15) 0.46855(14) 0.12562(10)
H9_16 H 0.2244 0.4953 0.1121
H10_16 H 0.2863 0.4935 0.1389
C12_16 C 0.1857(2) 0.3345(2) 0.1356(2)
H11_16 H 0.2248 0.3188 0.1326
C13_16 C 0.1353(2) 0.2984(2) 0.1266(2)
H12_16 H 0.1419 0.2586 0.1171
C14_16 C 0.0714(2) 0.3744(2) 0.1413(3)
H13_16 H 0.0321 0.3897 0.1416
C15_16 C 0.1188(2) 0.4135(2) 0.1525(3)
H14_16 H 0.1106 0.4529 0.1622
C16_16 C 0.17690(15) 0.39357(15) 0.14918(9)
C17_16 C 0.22952(14) 0.44941(14) 0.20792(9)
C18_16 C 0.2043(2) 0.4128(2) 0.24217(11)
H15_16 H 0.1842 0.3771 0.2344
C19_16 C 0.2095(2) 0.4302(2) 0.28777(11)
H16_16 H 0.1929 0.4046 0.3100
C20_16 C 0.2599(2) 0.5154(2) 0.26972(12)
H17_16 H 0.2794 0.5510 0.2788
C21_16 C 0.2576(2) 0.50256(19) 0.22313(12)
H18_16 H 0.2748 0.5293 0.2019
N1_16 N 0.25558(12) 0.47923(15) 0.95063(9)
C2_16 C 0.31113(15) 0.46839(19) 0.96837(10)
H2_16 H 0.3447 0.4718 0.9490
C3_16 C 0.20889(16) 0.47472(18) 0.97975(10)
H3_16 H 0.1702 0.4823 0.9682
B1_16 B 0.0677(9) 0.6139(12) 0.9040(9)
H19_16 H 0.0609 0.6206 0.9363
H20_16 H 0.0364 0.5881 0.8920
H21_16 H 0.0671 0.6521 0.8881
B2_16 B 0.4300(11) 0.3843(11) 0.8594(8)
H22_16 H 0.4547 0.4017 0.8356
H23_16 H 0.4244 0.3418 0.8535
H24_16 H 0.4497 0.3895 0.8887
N7_16 N 0.17087(14) 0.55657(15) 0.89272(10)
N8_16 N 0.32246(15) 0.44334(15) 0.86258(10)
C22_16 C 0.1290(2) 0.5838(3) 0.8972(2)
C23_16 C 0.3649(3) 0.4176(3) 0.8603(2)
loop_
_geom_bond_atom_site_label_1
_geom_bond_atom_site_label_2
_geom_bond_site_symmetry_1
_geom_bond_site_symmetry_2
Fe1 N1 1_555 1_555
N1 C2 1_555 1_555
H2 C2 1_555 1_555
C3 N1 1_555 1_555
H3 C3 1_555 1_555
B2 H22 1_555 1_555
H23 B2 1_555 1_555
H24 B2 1_555 1_555
N8 Fe1 1_555 1_555
C23 B2 1_555 1_555
N10 Fe1 1_555 1_555
N8 C23 1_555 1_555
N2 C5 1_555 1_555
N3 C8 1_555 1_555
N4 C13 1_555 1_555
N5 C11 1_555 1_555
N6 C19 1_555 1_555
C1 H1 1_555 1_555
H4 C4 1_555 1_555
C5 C1 1_555 1_555
C6 N2 1_555 1_555
C7 C6 1_555 1_555
H5 C7 1_555 1_555
C8 C7 1_555 1_555
H6 C8 1_555 1_555
C9 N3 1_555 1_555
H7 C9 1_555 1_555
C10 C6 1_555 1_555
H8 C10 1_555 1_555
C11 N2 1_555 1_555
H9 C11 1_555 1_555
H10 C11 1_555 1_555
C12 H11 1_555 1_555
C13 C12 1_555 1_555
H12 C13 1_555 1_555
C14 N4 1_555 1_555
H13 C14 1_555 1_555
C15 C14 1_555 1_555
H14 C15 1_555 1_555
C16 N5 1_555 1_555
C17 N5 1_555 1_555
C18 C17 1_555 1_555
H15 C18 1_555 1_555
C19 C18 1_555 1_555
H16 C19 1_555 1_555
Fe4 N4 1_555 1_555
C4 C5 1_555 1_555
C9 C10 1_555 1_555
C12 C16 1_555 1_555
C15 C16 1_555 1_555
B1 H19 1_555 1_555
H20 B1 1_555 1_555
H21 B1 1_555 1_555
C22 B1 1_555 1_555
N7 C22 1_555 1_555
H17 C20 1_555 1_555
H18 C21 1_555 1_555
C20 C21 1_555 1_555
B1_2 H19_2 1_555 1_555
H20_2 B1_2 1_555 1_555
H21_2 B1_2 1_555 1_555
C22_2 B1_2 1_555 1_555
N7_2 C22_2 1_555 1_555
H17_2 C20_2 1_555 1_555
H18_2 C21_2 1_555 1_555
C20_2 C21_2 1_555 1_555
Fe1_2 N1_2 1_555 1_555
N1_2 C2_2 1_555 1_555
H2_2 C2_2 1_555 1_555
C3_2 N1_2 1_555 1_555
H3_2 C3_2 1_555 1_555
B2_2 H22_2 1_555 1_555
H23_2 B2_2 1_555 1_555
H24_2 B2_2 1_555 1_555
N8_2 Fe1_2 1_555 1_555
C23_2 B2_2 1_555 1_555
N10_2 Fe1_2 1_555 1_555
N8_2 C23_2 1_555 1_555
N2_2 C5_2 1_555 1_555
N3_2 C8_2 1_555 1_555
N4_2 C13_2 1_555 1_555
N5_2 C11_2 1_555 1_555
N6_2 C19_2 1_555 1_555
C1_2 H1_2 1_555 1_555
H4_2 C4_2 1_555 1_555
C5_2 C1_2 1_555 1_555
C6_2 N2_2 1_555 1_555
C7_2 C6_2 1_555 1_555
H5_2 C7_2 1_555 1_555
C8_2 C7_2 1_555 1_555
H6_2 C8_2 1_555 1_555
C9_2 N3_2 1_555 1_555
H7_2 C9_2 1_555 1_555
C10_2 C6_2 1_555 1_555
H8_2 C10_2 1_555 1_555
C11_2 N2_2 1_555 1_555
H9_2 C11_2 1_555 1_555
H10_2 C11_2 1_555 1_555
C12_2 H11_2 1_555 1_555
C13_2 C12_2 1_555 1_555
H12_2 C13_2 1_555 1_555
C14_2 N4_2 1_555 1_555
H13_2 C14_2 1_555 1_555
C15_2 C14_2 1_555 1_555
H14_2 C15_2 1_555 1_555
C16_2 N5_2 1_555 1_555
C17_2 N5_2 1_555 1_555
C18_2 C17_2 1_555 1_555
H15_2 C18_2 1_555 1_555
C19_2 C18_2 1_555 1_555
H16_2 C19_2 1_555 1_555
Fe4_2 N4_2 1_555 1_555
C4_2 C5_2 1_555 1_555
C9_2 C10_2 1_555 1_555
C12_2 C16_2 1_555 1_555
C15_2 C16_2 1_555 1_555
H17_3 C20_3 1_555 1_555
H18_3 C21_3 1_555 1_555
C20_3 C21_3 1_555 1_555
B1_3 H19_3 1_555 1_555
H20_3 B1_3 1_555 1_555
H21_3 B1_3 1_555 1_555
C22_3 B1_3 1_555 1_555
N7_3 C22_3 1_555 1_555
N2_3 C5_3 1_555 1_555
N9_2 C8_3 1_555 1_555
N4_3 C13_3 1_555 1_555
N5_3 C11_3 1_555 1_555
N6_3 C19_3 1_555 1_555
C1_3 H1_3 1_555 1_555
H4_3 C4_3 1_555 1_555
C5_3 C1_3 1_555 1_555
C6_3 N2_3 1_555 1_555
C7_3 C6_3 1_555 1_555
H5_3 C7_3 1_555 1_555
C8_3 C7_3 1_555 1_555
H6_3 C8_3 1_555 1_555
C9_3 N9_2 1_555 1_555
H7_3 C9_3 1_555 1_555
C10_3 C6_3 1_555 1_555
H8_3 C10_3 1_555 1_555
C11_3 N2_3 1_555 1_555
H9_3 C11_3 1_555 1_555
H10_3 C11_3 1_555 1_555
C12_3 H11_3 1_555 1_555
C13_3 C12_3 1_555 1_555
H12_3 C13_3 1_555 1_555
C14_3 N4_3 1_555 1_555
H13_3 C14_3 1_555 1_555
C15_3 C14_3 1_555 1_555
H14_3 C15_3 1_555 1_555
C16_3 N5_3 1_555 1_555
C17_3 N5_3 1_555 1_555
C18_3 C17_3 1_555 1_555
H15_3 C18_3 1_555 1_555
C19_3 C18_3 1_555 1_555
H16_3 C19_3 1_555 1_555
Fe4_3 N4_3 1_555 1_555
C4_3 C5_3 1_555 1_555
C9_3 C10_3 1_555 1_555
C12_3 C16_3 1_555 1_555
C15_3 C16_3 1_555 1_555
Fe2 N1_3 1_555 1_555
N1_3 C2_3 1_555 1_555
H2_3 C2_3 1_555 1_555
C3_3 N1_3 1_555 1_555
H3_3 C3_3 1_555 1_555
B2_3 H22_3 1_555 1_555
H23_3 B2_3 1_555 1_555
H24_3 B2_3 1_555 1_555
N8_3 Fe2 1_555 1_555
C23_3 B2_3 1_555 1_555
N10_3 Fe2 1_555 1_555
N8_3 C23_3 1_555 1_555
N2_4 C5_4 1_555 1_555
N9 C8_4 1_555 1_555
N4_4 C13_4 1_555 1_555
N5_4 C11_4 1_555 1_555
N6_4 C19_4 1_555 1_555
C1_4 H1_4 1_555 1_555
H4_4 C4_4 1_555 1_555
C5_4 C1_4 1_555 1_555
C6_4 N2_4 1_555 1_555
C7_4 C6_4 1_555 1_555
H5_4 C7_4 1_555 1_555
C8_4 C7_4 1_555 1_555
H6_4 C8_4 1_555 1_555
C9_4 N9 1_555 1_555
H7_4 C9_4 1_555 1_555
C10_4 C6_4 1_555 1_555
H8_4 C10_4 1_555 1_555
C11_4 N2_4 1_555 1_555
H9_4 C11_4 1_555 1_555
H10_4 C11_4 1_555 1_555
C12_4 H11_4 1_555 1_555
C13_4 C12_4 1_555 1_555
H12_4 C13_4 1_555 1_555
C14_4 N4_4 1_555 1_555
H13_4 C14_4 1_555 1_555
C15_4 C14_4 1_555 1_555
H14_4 C15_4 1_555 1_555
C16_4 N5_4 1_555 1_555
C17_4 N5_4 1_555 1_555
C18_4 C17_4 1_555 1_555
H15_4 C18_4 1_555 1_555
C19_4 C18_4 1_555 1_555
H16_4 C19_4 1_555 1_555
Fe4_4 N4_4 1_555 1_555
C4_4 C5_4 1_555 1_555
C9_4 C10_4 1_555 1_555
C12_4 C16_4 1_555 1_555
C15_4 C16_4 1_555 1_555
Fe2_2 N1_4 1_555 1_555
N1_4 C2_4 1_555 1_555
H2_4 C2_4 1_555 1_555
C3_4 N1_4 1_555 1_555
H3_4 C3_4 1_555 1_555
B2_4 H22_4 1_555 1_555
H23_4 B2_4 1_555 1_555
H24_4 B2_4 1_555 1_555
N8_4 Fe2_2 1_555 1_555
C23_4 B2_4 1_555 1_555
N10_4 Fe2_2 1_555 1_555
N8_4 C23_4 1_555 1_555
H17_4 C20_4 1_555 1_555
H18_4 C21_4 1_555 1_555
C20_4 C21_4 1_555 1_555
B1_4 H19_4 1_555 1_555
H20_4 B1_4 1_555 1_555
H21_4 B1_4 1_555 1_555
C22_4 B1_4 1_555 1_555
N7_4 C22_4 1_555 1_555
Fe3_2 N1_5 1_555 1_555
N1_5 C2_5 1_555 1_555
N2_5 C5_5 1_555 1_555
N3_3 C8_5 1_555 1_555
N4_5 C13_5 1_555 1_555
N5_5 C11_5 1_555 1_555
N11_2 C19_5 1_555 1_555
C1_5 H1_5 1_555 1_555
C2_5 C1_5 1_555 1_555
H2_5 C2_5 1_555 1_555
C3_5 N1_5 1_555 1_555
H3_5 C3_5 1_555 1_555
C4_5 C3_5 1_555 1_555
H4_5 C4_5 1_555 1_555
C5_5 C1_5 1_555 1_555
C6_5 N2_5 1_555 1_555
C7_5 C6_5 1_555 1_555
H5_5 C7_5 1_555 1_555
C8_5 C7_5 1_555 1_555
H6_5 C8_5 1_555 1_555
C9_5 N3_3 1_555 1_555
H7_5 C9_5 1_555 1_555
C10_5 C6_5 1_555 1_555
H8_5 C10_5 1_555 1_555
C11_5 N2_5 1_555 1_555
H9_5 C11_5 1_555 1_555
H10_5 C11_5 1_555 1_555
C12_5 H11_5 1_555 1_555
C13_5 C12_5 1_555 1_555
H12_5 C13_5 1_555 1_555
C14_5 N4_5 1_555 1_555
H13_5 C14_5 1_555 1_555
C15_5 C14_5 1_555 1_555
H14_5 C15_5 1_555 1_555
C16_5 N5_5 1_555 1_555
C17_5 N5_5 1_555 1_555
C18_5 C17_5 1_555 1_555
H15_5 C18_5 1_555 1_555
C19_5 C18_5 1_555 1_555
H16_5 C19_5 1_555 1_555
B2_5 H22_5 1_555 1_555
H23_5 B2_5 1_555 1_555
H24_5 B2_5 1_555 1_555
N8_5 Fe3_2 1_555 1_555
C23_5 B2_5 1_555 1_555
Fe4_5 N4_5 1_555 1_555
N10_5 Fe3_2 1_555 1_555
C4_5 C5_5 1_555 1_555
C9_5 C10_5 1_555 1_555
C12_5 C16_5 1_555 1_555
C15_5 C16_5 1_555 1_555
N8_5 C23_5 1_555 1_555
H17_5 C20_5 1_555 1_555
H18_5 C21_5 1_555 1_555
B1_5 H19_5 1_555 1_555
H20_5 B1_5 1_555 1_555
H21_5 B1_5 1_555 1_555
C22_5 B1_5 1_555 1_555
C20_5 C21_5 1_555 1_555
N7_5 C22_5 1_555 1_555
H17_6 C20_6 1_555 1_555
H18_6 C21_6 1_555 1_555
B1_6 H19_6 1_555 1_555
H20_6 B1_6 1_555 1_555
H21_6 B1_6 1_555 1_555
C22_6 B1_6 1_555 1_555
C20_6 C21_6 1_555 1_555
N7_6 C22_6 1_555 1_555
Fe3 N1_6 1_555 1_555
N1_6 C2_6 1_555 1_555
N2_6 C5_6 1_555 1_555
N3_4 C8_6 1_555 1_555
N4_6 C13_6 1_555 1_555
N5_6 C11_6 1_555 1_555
N11 C19_6 1_555 1_555
C1_6 H1_6 1_555 1_555
C2_6 C1_6 1_555 1_555
H2_6 C2_6 1_555 1_555
C3_6 N1_6 1_555 1_555
H3_6 C3_6 1_555 1_555
C4_6 C3_6 1_555 1_555
H4_6 C4_6 1_555 1_555
C5_6 C1_6 1_555 1_555
C6_6 N2_6 1_555 1_555
C7_6 C6_6 1_555 1_555
H5_6 C7_6 1_555 1_555
C8_6 C7_6 1_555 1_555
H6_6 C8_6 1_555 1_555
C9_6 N3_4 1_555 1_555
H7_6 C9_6 1_555 1_555
C10_6 C6_6 1_555 1_555
H8_6 C10_6 1_555 1_555
C11_6 N2_6 1_555 1_555
H9_6 C11_6 1_555 1_555
H10_6 C11_6 1_555 1_555
C12_6 H11_6 1_555 1_555
C13_6 C12_6 1_555 1_555
H12_6 C13_6 1_555 1_555
C14_6 N4_6 1_555 1_555
H13_6 C14_6 1_555 1_555
C15_6 C14_6 1_555 1_555
H14_6 C15_6 1_555 1_555
C16_6 N5_6 1_555 1_555
C17_6 N5_6 1_555 1_555
C18_6 C17_6 1_555 1_555
H15_6 C18_6 1_555 1_555
C19_6 C18_6 1_555 1_555
H16_6 C19_6 1_555 1_555
B2_6 H22_6 1_555 1_555
H23_6 B2_6 1_555 1_555
H24_6 B2_6 1_555 1_555
N8_6 Fe3 1_555 1_555
C23_6 B2_6 1_555 1_555
Fe4_6 N4_6 1_555 1_555
N10_6 Fe3 1_555 1_555
C4_6 C5_6 1_555 1_555
C9_6 C10_6 1_555 1_555
C12_6 C16_6 1_555 1_555
C15_6 C16_6 1_555 1_555
N8_6 C23_6 1_555 1_555
Fe3_3 N1_7 1_555 1_555
N1_7 C2_7 1_555 1_555
N2_7 C5_7 1_555 1_555
N9_4 C8_7 1_555 1_555
N4_7 C13_7 1_555 1_555
N5_7 C11_7 1_555 1_555
N11_3 C19_7 1_555 1_555
C1_7 H1_7 1_555 1_555
C2_7 C1_7 1_555 1_555
H2_7 C2_7 1_555 1_555
C3_7 N1_7 1_555 1_555
H3_7 C3_7 1_555 1_555
C4_7 C3_7 1_555 1_555
H4_7 C4_7 1_555 1_555
C5_7 C1_7 1_555 1_555
C6_7 N2_7 1_555 1_555
C7_7 C6_7 1_555 1_555
H5_7 C7_7 1_555 1_555
C8_7 C7_7 1_555 1_555
H6_7 C8_7 1_555 1_555
C9_7 N9_4 1_555 1_555
H7_7 C9_7 1_555 1_555
C10_7 C6_7 1_555 1_555
H8_7 C10_7 1_555 1_555
C11_7 N2_7 1_555 1_555
H9_7 C11_7 1_555 1_555
H10_7 C11_7 1_555 1_555
C12_7 H11_7 1_555 1_555
C13_7 C12_7 1_555 1_555
H12_7 C13_7 1_555 1_555
C14_7 N4_7 1_555 1_555
H13_7 C14_7 1_555 1_555
C15_7 C14_7 1_555 1_555
H14_7 C15_7 1_555 1_555
C16_7 N5_7 1_555 1_555
C17_7 N5_7 1_555 1_555
C18_7 C17_7 1_555 1_555
H15_7 C18_7 1_555 1_555
C19_7 C18_7 1_555 1_555
H16_7 C19_7 1_555 1_555
B2_7 H22_7 1_555 1_555
H23_7 B2_7 1_555 1_555
H24_7 B2_7 1_555 1_555
N8_7 Fe3_3 1_555 1_555
C23_7 B2_7 1_555 1_555
Fe4_7 N4_7 1_555 1_555
N10_7 Fe3_3 1_555 1_555
C4_7 C5_7 1_555 1_555
C9_7 C10_7 1_555 1_555
C12_7 C16_7 1_555 1_555
C15_7 C16_7 1_555 1_555
N8_7 C23_7 1_555 1_555
H17_7 C20_7 1_555 1_555
H18_7 C21_7 1_555 1_555
B1_7 H19_7 1_555 1_555
H20_7 B1_7 1_555 1_555
H21_7 B1_7 1_555 1_555
C22_7 B1_7 1_555 1_555
C20_7 C21_7 1_555 1_555
N7_7 C22_7 1_555 1_555
H17_8 C20_8 1_555 1_555
H18_8 C21_8 1_555 1_555
B1_8 H19_8 1_555 1_555
H20_8 B1_8 1_555 1_555
H21_8 B1_8 1_555 1_555
C22_8 B1_8 1_555 1_555
C20_8 C21_8 1_555 1_555
N7_8 C22_8 1_555 1_555
Fe3_4 N1_8 1_555 1_555
N1_8 C2_8 1_555 1_555
N2_8 C5_8 1_555 1_555
N9_3 C8_8 1_555 1_555
N4_8 C13_8 1_555 1_555
N5_8 C11_8 1_555 1_555
N11_4 C19_8 1_555 1_555
C1_8 H1_8 1_555 1_555
C2_8 C1_8 1_555 1_555
H2_8 C2_8 1_555 1_555
C3_8 N1_8 1_555 1_555
H3_8 C3_8 1_555 1_555
C4_8 C3_8 1_555 1_555
H4_8 C4_8 1_555 1_555
C5_8 C1_8 1_555 1_555
C6_8 N2_8 1_555 1_555
C7_8 C6_8 1_555 1_555
H5_8 C7_8 1_555 1_555
C8_8 C7_8 1_555 1_555
H6_8 C8_8 1_555 1_555
C9_8 N9_3 1_555 1_555
H7_8 C9_8 1_555 1_555
C10_8 C6_8 1_555 1_555
H8_8 C10_8 1_555 1_555
C11_8 N2_8 1_555 1_555
H9_8 C11_8 1_555 1_555
H10_8 C11_8 1_555 1_555
C12_8 H11_8 1_555 1_555
C13_8 C12_8 1_555 1_555
H12_8 C13_8 1_555 1_555
C14_8 N4_8 1_555 1_555
H13_8 C14_8 1_555 1_555
C15_8 C14_8 1_555 1_555
H14_8 C15_8 1_555 1_555
C16_8 N5_8 1_555 1_555
C17_8 N5_8 1_555 1_555
C18_8 C17_8 1_555 1_555
H15_8 C18_8 1_555 1_555
C19_8 C18_8 1_555 1_555
H16_8 C19_8 1_555 1_555
B2_8 H22_8 1_555 1_555
H23_8 B2_8 1_555 1_555
H24_8 B2_8 1_555 1_555
N8_8 Fe3_4 1_555 1_555
C23_8 B2_8 1_555 1_555
Fe4_8 N4_8 1_555 1_555
N10_8 Fe3_4 1_555 1_555
C4_8 C5_8 1_555 1_555
C9_8 C10_8 1_555 1_555
C12_8 C16_8 1_555 1_555
C15_8 C16_8 1_555 1_555
N8_8 C23_8 1_555 1_555
Fe4_8 N1_9 1_555 1_555
N1_9 C2_9 1_555 1_555
N2_9 C5_9 1_555 1_555
N3_5 C8_9 1_555 1_555
N10_8 C13_9 1_555 1_555
N5_9 C11_9 1_555 1_555
N6_5 C19_9 1_555 1_555
C1_9 H1_9 1_555 1_555
C2_9 C1_9 1_555 1_555
H2_9 C2_9 1_555 1_555
C3_9 N1_9 1_555 1_555
H3_9 C3_9 1_555 1_555
C4_9 C3_9 1_555 1_555
H4_9 C4_9 1_555 1_555
C5_9 C1_9 1_555 1_555
C6_9 N2_9 1_555 1_555
C7_9 C6_9 1_555 1_555
H5_9 C7_9 1_555 1_555
C8_9 C7_9 1_555 1_555
H6_9 C8_9 1_555 1_555
C9_9 N3_5 1_555 1_555
H7_9 C9_9 1_555 1_555
C10_9 C6_9 1_555 1_555
H8_9 C10_9 1_555 1_555
C11_9 N2_9 1_555 1_555
H9_9 C11_9 1_555 1_555
H10_9 C11_9 1_555 1_555
C12_9 H11_9 1_555 1_555
C13_9 C12_9 1_555 1_555
H12_9 C13_9 1_555 1_555
C14_9 N10_8 1_555 1_555
H13_9 C14_9 1_555 1_555
C15_9 C14_9 1_555 1_555
H14_9 C15_9 1_555 1_555
C16_9 N5_9 1_555 1_555
C17_9 N5_9 1_555 1_555
C18_9 C17_9 1_555 1_555
H15_9 C18_9 1_555 1_555
C19_9 C18_9 1_555 1_555
H16_9 C19_9 1_555 1_555
C20_9 N6_5 1_555 1_555
H17_9 C20_9 1_555 1_555
C21_9 C17_9 1_555 1_555
H18_9 C21_9 1_555 1_555
B1_9 H19_9 1_555 1_555
H20_9 B1_9 1_555 1_555
H21_9 B1_9 1_555 1_555
B2_9 H22_9 1_555 1_555
H23_9 B2_9 1_555 1_555
H24_9 B2_9 1_555 1_555
N7_9 Fe4_8 1_555 1_555
N8_9 Fe4_8 1_555 1_555
C22_9 B1_9 1_555 1_555
C23_9 B2_9 1_555 1_555
Fe4_6 N3_5 1_555 1_555
Fe4_3 N6_5 1_555 1_555
N9_5 Fe4_8 1_555 1_555
N11_5 Fe4_8 1_555 1_555
C4_9 C5_9 1_555 1_555
C9_9 C10_9 1_555 1_555
C12_9 C16_9 1_555 1_555
C15_9 C16_9 1_555 1_555
C20_9 C21_9 1_555 1_555
N7_9 C22_9 1_555 1_555
N8_9 C23_9 1_555 1_555
Fe4_7 N1_10 1_555 1_555
N1_10 C2_10 1_555 1_555
N2_10 C5_10 1_555 1_555
N3_6 C8_10 1_555 1_555
N10_7 C13_10 1_555 1_555
N5_10 C11_10 1_555 1_555
N6_6 C19_10 1_555 1_555
C1_10 H1_10 1_555 1_555
C2_10 C1_10 1_555 1_555
H2_10 C2_10 1_555 1_555
C3_10 N1_10 1_555 1_555
H3_10 C3_10 1_555 1_555
C4_10 C3_10 1_555 1_555
H4_10 C4_10 1_555 1_555
C5_10 C1_10 1_555 1_555
C6_10 N2_10 1_555 1_555
C7_10 C6_10 1_555 1_555
H5_10 C7_10 1_555 1_555
C8_10 C7_10 1_555 1_555
H6_10 C8_10 1_555 1_555
C9_10 N3_6 1_555 1_555
H7_10 C9_10 1_555 1_555
C10_10 C6_10 1_555 1_555
H8_10 C10_10 1_555 1_555
C11_10 N2_10 1_555 1_555
H9_10 C11_10 1_555 1_555
H10_10 C11_10 1_555 1_555
C12_10 H11_10 1_555 1_555
C13_10 C12_10 1_555 1_555
H12_10 C13_10 1_555 1_555
C14_10 N10_7 1_555 1_555
H13_10 C14_10 1_555 1_555
C15_10 C14_10 1_555 1_555
H14_10 C15_10 1_555 1_555
C16_10 N5_10 1_555 1_555
C17_10 N5_10 1_555 1_555
C18_10 C17_10 1_555 1_555
H15_10 C18_10 1_555 1_555
C19_10 C18_10 1_555 1_555
H16_10 C19_10 1_555 1_555
C20_10 N6_6 1_555 1_555
H17_10 C20_10 1_555 1_555
C21_10 C17_10 1_555 1_555
H18_10 C21_10 1_555 1_555
B1_10 H19_10 1_555 1_555
H20_10 B1_10 1_555 1_555
H21_10 B1_10 1_555 1_555
B2_10 H22_10 1_555 1_555
H23_10 B2_10 1_555 1_555
H24_10 B2_10 1_555 1_555
N7_10 Fe4_7 1_555 1_555
N8_10 Fe4_7 1_555 1_555
C22_10 B1_10 1_555 1_555
C23_10 B2_10 1_555 1_555
Fe4_5 N3_6 1_555 1_555
Fe4_4 N6_6 1_555 1_555
N9_6 Fe4_7 1_555 1_555
N11_6 Fe4_7 1_555 1_555
C4_10 C5_10 1_555 1_555
C9_10 C10_10 1_555 1_555
C12_10 C16_10 1_555 1_555
C15_10 C16_10 1_555 1_555
C20_10 C21_10 1_555 1_555
N7_10 C22_10 1_555 1_555
N8_10 C23_10 1_555 1_555
Fe4_6 N1_11 1_555 1_555
N1_11 C2_11 1_555 1_555
N2_11 C5_11 1_555 1_555
N9_6 C8_11 1_555 1_555
N10_6 C13_11 1_555 1_555
N5_11 C11_11 1_555 1_555
N6_7 C19_11 1_555 1_555
C1_11 H1_11 1_555 1_555
C2_11 C1_11 1_555 1_555
H2_11 C2_11 1_555 1_555
C3_11 N1_11 1_555 1_555
H3_11 C3_11 1_555 1_555
C4_11 C3_11 1_555 1_555
H4_11 C4_11 1_555 1_555
C5_11 C1_11 1_555 1_555
C6_11 N2_11 1_555 1_555
C7_11 C6_11 1_555 1_555
H5_11 C7_11 1_555 1_555
C8_11 C7_11 1_555 1_555
H6_11 C8_11 1_555 1_555
C9_11 N9_6 1_555 1_555
H7_11 C9_11 1_555 1_555
C10_11 C6_11 1_555 1_555
H8_11 C10_11 1_555 1_555
C11_11 N2_11 1_555 1_555
H9_11 C11_11 1_555 1_555
H10_11 C11_11 1_555 1_555
C12_11 H11_11 1_555 1_555
C13_11 C12_11 1_555 1_555
H12_11 C13_11 1_555 1_555
C14_11 N10_6 1_555 1_555
H13_11 C14_11 1_555 1_555
C15_11 C14_11 1_555 1_555
H14_11 C15_11 1_555 1_555
C16_11 N5_11 1_555 1_555
C17_11 N5_11 1_555 1_555
C18_11 C17_11 1_555 1_555
H15_11 C18_11 1_555 1_555
C19_11 C18_11 1_555 1_555
H16_11 C19_11 1_555 1_555
C20_11 N6_7 1_555 1_555
H17_11 C20_11 1_555 1_555
C21_11 C17_11 1_555 1_555
H18_11 C21_11 1_555 1_555
B1_11 H19_11 1_555 1_555
H20_11 B1_11 1_555 1_555
H21_11 B1_11 1_555 1_555
B2_11 H22_11 1_555 1_555
H23_11 B2_11 1_555 1_555
H24_11 B2_11 1_555 1_555
N7_11 Fe4_6 1_555 1_555
N8_11 Fe4_6 1_555 1_555
C22_11 B1_11 1_555 1_555
C23_11 B2_11 1_555 1_555
Fe4_2 N6_7 1_555 1_555
N11_7 Fe4_6 1_555 1_555
C4_11 C5_11 1_555 1_555
C9_11 C10_11 1_555 1_555
C12_11 C16_11 1_555 1_555
C15_11 C16_11 1_555 1_555
C20_11 C21_11 1_555 1_555
N7_11 C22_11 1_555 1_555
N8_11 C23_11 1_555 1_555
Fe4_5 N1_12 1_555 1_555
N1_12 C2_12 1_555 1_555
N2_12 C5_12 1_555 1_555
N9_5 C8_12 1_555 1_555
N10_5 C13_12 1_555 1_555
N5_12 C11_12 1_555 1_555
N6_8 C19_12 1_555 1_555
C1_12 H1_12 1_555 1_555
C2_12 C1_12 1_555 1_555
H2_12 C2_12 1_555 1_555
C3_12 N1_12 1_555 1_555
H3_12 C3_12 1_555 1_555
C4_12 C3_12 1_555 1_555
H4_12 C4_12 1_555 1_555
C5_12 C1_12 1_555 1_555
C6_12 N2_12 1_555 1_555
C7_12 C6_12 1_555 1_555
H5_12 C7_12 1_555 1_555
C8_12 C7_12 1_555 1_555
H6_12 C8_12 1_555 1_555
C9_12 N9_5 1_555 1_555
H7_12 C9_12 1_555 1_555
C10_12 C6_12 1_555 1_555
H8_12 C10_12 1_555 1_555
C11_12 N2_12 1_555 1_555
H9_12 C11_12 1_555 1_555
H10_12 C11_12 1_555 1_555
C12_12 H11_12 1_555 1_555
C13_12 C12_12 1_555 1_555
H12_12 C13_12 1_555 1_555
C14_12 N10_5 1_555 1_555
H13_12 C14_12 1_555 1_555
C15_12 C14_12 1_555 1_555
H14_12 C15_12 1_555 1_555
C16_12 N5_12 1_555 1_555
C17_12 N5_12 1_555 1_555
C18_12 C17_12 1_555 1_555
H15_12 C18_12 1_555 1_555
C19_12 C18_12 1_555 1_555
H16_12 C19_12 1_555 1_555
C20_12 N6_8 1_555 1_555
H17_12 C20_12 1_555 1_555
C21_12 C17_12 1_555 1_555
H18_12 C21_12 1_555 1_555
B1_12 H19_12 1_555 1_555
H20_12 B1_12 1_555 1_555
H21_12 B1_12 1_555 1_555
B2_12 H22_12 1_555 1_555
H23_12 B2_12 1_555 1_555
H24_12 B2_12 1_555 1_555
N7_12 Fe4_5 1_555 1_555
N8_12 Fe4_5 1_555 1_555
C22_12 B1_12 1_555 1_555
C23_12 B2_12 1_555 1_555
Fe4 N6_8 1_555 1_555
N11_8 Fe4_5 1_555 1_555
C4_12 C5_12 1_555 1_555
C9_12 C10_12 1_555 1_555
C12_12 C16_12 1_555 1_555
C15_12 C16_12 1_555 1_555
C20_12 C21_12 1_555 1_555
N7_12 C22_12 1_555 1_555
N8_12 C23_12 1_555 1_555
Fe4_4 N1_13 1_555 1_555
N1_13 C2_13 1_555 1_555
H2_13 C2_13 1_555 1_555
C3_13 N1_13 1_555 1_555
H3_13 C3_13 1_555 1_555
B1_13 H19_13 1_555 1_555
H20_13 B1_13 1_555 1_555
H21_13 B1_13 1_555 1_555
B2_13 H22_13 1_555 1_555
H23_13 B2_13 1_555 1_555
H24_13 B2_13 1_555 1_555
N7_13 Fe4_4 1_555 1_555
N8_13 Fe4_4 1_555 1_555
C22_13 B1_13 1_555 1_555
C23_13 B2_13 1_555 1_555
N9_7 Fe4_4 1_555 1_555
N7_13 C22_13 1_555 1_555
N8_13 C23_13 1_555 1_555
N2_13 C5_13 1_555 1_555
N3_7 C8_13 1_555 1_555
N10_4 C13_13 1_555 1_555
N5_13 C11_13 1_555 1_555
N11_6 C19_13 1_555 1_555
C1_13 H1_13 1_555 1_555
H4_13 C4_13 1_555 1_555
C5_13 C1_13 1_555 1_555
C6_13 N2_13 1_555 1_555
C7_13 C6_13 1_555 1_555
H5_13 C7_13 1_555 1_555
C8_13 C7_13 1_555 1_555
H6_13 C8_13 1_555 1_555
C9_13 N3_7 1_555 1_555
H7_13 C9_13 1_555 1_555
C10_13 C6_13 1_555 1_555
H8_13 C10_13 1_555 1_555
C11_13 N2_13 1_555 1_555
H9_13 C11_13 1_555 1_555
H10_13 C11_13 1_555 1_555
C12_13 H11_13 1_555 1_555
C13_13 C12_13 1_555 1_555
H12_13 C13_13 1_555 1_555
C14_13 N10_4 1_555 1_555
H13_13 C14_13 1_555 1_555
C15_13 C14_13 1_555 1_555
H14_13 C15_13 1_555 1_555
C16_13 N5_13 1_555 1_555
C17_13 N5_13 1_555 1_555
C18_13 C17_13 1_555 1_555
H15_13 C18_13 1_555 1_555
C19_13 C18_13 1_555 1_555
H16_13 C19_13 1_555 1_555
C20_13 N11_6 1_555 1_555
H17_13 C20_13 1_555 1_555
C21_13 C17_13 1_555 1_555
H18_13 C21_13 1_555 1_555
Fe4_2 N3_7 1_555 1_555
C4_13 C5_13 1_555 1_555
C9_13 C10_13 1_555 1_555
C12_13 C16_13 1_555 1_555
C15_13 C16_13 1_555 1_555
C20_13 C21_13 1_555 1_555
Fe4_3 N1_14 1_555 1_555
N1_14 C2_14 1_555 1_555
H2_14 C2_14 1_555 1_555
C3_14 N1_14 1_555 1_555
H3_14 C3_14 1_555 1_555
B1_14 H19_14 1_555 1_555
H20_14 B1_14 1_555 1_555
H21_14 B1_14 1_555 1_555
B2_14 H22_14 1_555 1_555
H23_14 B2_14 1_555 1_555
H24_14 B2_14 1_555 1_555
N7_14 Fe4_3 1_555 1_555
N8_14 Fe4_3 1_555 1_555
C22_14 B1_14 1_555 1_555
C23_14 B2_14 1_555 1_555
N9_8 Fe4_3 1_555 1_555
N7_14 C22_14 1_555 1_555
N8_14 C23_14 1_555 1_555
N2_14 C5_14 1_555 1_555
N3_8 C8_14 1_555 1_555
N10_3 C13_14 1_555 1_555
N5_14 C11_14 1_555 1_555
N11_5 C19_14 1_555 1_555
C1_14 H1_14 1_555 1_555
H4_14 C4_14 1_555 1_555
C5_14 C1_14 1_555 1_555
C6_14 N2_14 1_555 1_555
C7_14 C6_14 1_555 1_555
H5_14 C7_14 1_555 1_555
C8_14 C7_14 1_555 1_555
H6_14 C8_14 1_555 1_555
C9_14 N3_8 1_555 1_555
H7_14 C9_14 1_555 1_555
C10_14 C6_14 1_555 1_555
H8_14 C10_14 1_555 1_555
C11_14 N2_14 1_555 1_555
H9_14 C11_14 1_555 1_555
H10_14 C11_14 1_555 1_555
C12_14 H11_14 1_555 1_555
C13_14 C12_14 1_555 1_555
H12_14 C13_14 1_555 1_555
C14_14 N10_3 1_555 1_555
H13_14 C14_14 1_555 1_555
C15_14 C14_14 1_555 1_555
H14_14 C15_14 1_555 1_555
C16_14 N5_14 1_555 1_555
C17_14 N5_14 1_555 1_555
C18_14 C17_14 1_555 1_555
H15_14 C18_14 1_555 1_555
C19_14 C18_14 1_555 1_555
H16_14 C19_14 1_555 1_555
C20_14 N11_5 1_555 1_555
H17_14 C20_14 1_555 1_555
C21_14 C17_14 1_555 1_555
H18_14 C21_14 1_555 1_555
Fe4 N3_8 1_555 1_555
C4_14 C5_14 1_555 1_555
C9_14 C10_14 1_555 1_555
C12_14 C16_14 1_555 1_555
C15_14 C16_14 1_555 1_555
C20_14 C21_14 1_555 1_555
N2_15 C5_15 1_555 1_555
N9_8 C8_15 1_555 1_555
N10_2 C13_15 1_555 1_555
N5_15 C11_15 1_555 1_555
N11_7 C19_15 1_555 1_555
C1_15 H1_15 1_555 1_555
H4_15 C4_15 1_555 1_555
C5_15 C1_15 1_555 1_555
C6_15 N2_15 1_555 1_555
C7_15 C6_15 1_555 1_555
H5_15 C7_15 1_555 1_555
C8_15 C7_15 1_555 1_555
H6_15 C8_15 1_555 1_555
C9_15 N9_8 1_555 1_555
H7_15 C9_15 1_555 1_555
C10_15 C6_15 1_555 1_555
H8_15 C10_15 1_555 1_555
C11_15 N2_15 1_555 1_555
H9_15 C11_15 1_555 1_555
H10_15 C11_15 1_555 1_555
C12_15 H11_15 1_555 1_555
C13_15 C12_15 1_555 1_555
H12_15 C13_15 1_555 1_555
C14_15 N10_2 1_555 1_555
H13_15 C14_15 1_555 1_555
C15_15 C14_15 1_555 1_555
H14_15 C15_15 1_555 1_555
C16_15 N5_15 1_555 1_555
C17_15 N5_15 1_555 1_555
C18_15 C17_15 1_555 1_555
H15_15 C18_15 1_555 1_555
C19_15 C18_15 1_555 1_555
H16_15 C19_15 1_555 1_555
C20_15 N11_7 1_555 1_555
H17_15 C20_15 1_555 1_555
C21_15 C17_15 1_555 1_555
H18_15 C21_15 1_555 1_555
C4_15 C5_15 1_555 1_555
C9_15 C10_15 1_555 1_555
C12_15 C16_15 1_555 1_555
C15_15 C16_15 1_555 1_555
C20_15 C21_15 1_555 1_555
Fe4_2 N1_15 1_555 1_555
N1_15 C2_15 1_555 1_555
H2_15 C2_15 1_555 1_555
C3_15 N1_15 1_555 1_555
H3_15 C3_15 1_555 1_555
B1_15 H19_15 1_555 1_555
H20_15 B1_15 1_555 1_555
H21_15 B1_15 1_555 1_555
B2_15 H22_15 1_555 1_555
H23_15 B2_15 1_555 1_555
H24_15 B2_15 1_555 1_555
N7_15 Fe4_2 1_555 1_555
N8_15 Fe4_2 1_555 1_555
C22_15 B1_15 1_555 1_555
C23_15 B2_15 1_555 1_555
N7_15 C22_15 1_555 1_555
N8_15 C23_15 1_555 1_555
N2_16 C5_16 1_555 1_555
N9_7 C8_16 1_555 1_555
N10 C13_16 1_555 1_555
N5_16 C11_16 1_555 1_555
N11_8 C19_16 1_555 1_555
C1_16 H1_16 1_555 1_555
H4_16 C4_16 1_555 1_555
C5_16 C1_16 1_555 1_555
C6_16 N2_16 1_555 1_555
C7_16 C6_16 1_555 1_555
H5_16 C7_16 1_555 1_555
C8_16 C7_16 1_555 1_555
H6_16 C8_16 1_555 1_555
C9_16 N9_7 1_555 1_555
H7_16 C9_16 1_555 1_555
C10_16 C6_16 1_555 1_555
H8_16 C10_16 1_555 1_555
C11_16 N2_16 1_555 1_555
H9_16 C11_16 1_555 1_555
H10_16 C11_16 1_555 1_555
C12_16 H11_16 1_555 1_555
C13_16 C12_16 1_555 1_555
H12_16 C13_16 1_555 1_555
C14_16 N10 1_555 1_555
H13_16 C14_16 1_555 1_555
C15_16 C14_16 1_555 1_555
H14_16 C15_16 1_555 1_555
C16_16 N5_16 1_555 1_555
C17_16 N5_16 1_555 1_555
C18_16 C17_16 1_555 1_555
H15_16 C18_16 1_555 1_555
C19_16 C18_16 1_555 1_555
H16_16 C19_16 1_555 1_555
C20_16 N11_8 1_555 1_555
H17_16 C20_16 1_555 1_555
C21_16 C17_16 1_555 1_555
H18_16 C21_16 1_555 1_555
C4_16 C5_16 1_555 1_555
C9_16 C10_16 1_555 1_555
C12_16 C16_16 1_555 1_555
C15_16 C16_16 1_555 1_555
C20_16 C21_16 1_555 1_555
Fe4 N1_16 1_555 1_555
N1_16 C2_16 1_555 1_555
H2_16 C2_16 1_555 1_555
C3_16 N1_16 1_555 1_555
H3_16 C3_16 1_555 1_555
B1_16 H19_16 1_555 1_555
H20_16 B1_16 1_555 1_555
H21_16 B1_16 1_555 1_555
B2_16 H22_16 1_555 1_555
H23_16 B2_16 1_555 1_555
H24_16 B2_16 1_555 1_555
N7_16 Fe4 1_555 1_555
N8_16 Fe4 1_555 1_555
C22_16 B1_16 1_555 1_555
C23_16 B2_16 1_555 1_555
N7_16 C22_16 1_555 1_555
N8_16 C23_16 1_555 1_555

#END
