
###############################################################################
#
# This file contains modified crystal structure data generated from the
# MOF subset of the Cambridge Structural Database (CSD) v543 
# hosted by the Cambridge Crystallographic Data Centre (CCDC).
#
# This work is licensed under the Creative Commons
# Attribution-NonCommercial-ShareAlike 4.0 International License.
# To view a copy of this license, visit
# http://creativecommons.org/licenses/by-nc-sa/4.0/
# or send a letter to
# Creative Commons, PO Box 1866, Mountain View, CA 94042, USA.
#
# CIF created using the CSD Python API on 29 September 2022
# The structure has been converted into the P1 space group
# The structure has a 3D framework
# The original CSD entry ZEXXOS is in the tetragonal crystal system
# The framework has been calculated to contain at least 10.0% void space
# The void calculation uses a probe of radius 1.32A, grid spacing 0.4
# The framework is charged, counterions have been retained in the structure
#
###############################################################################

data_ZEXXOS
_chemical_formula_moiety         '(C368 H384 B32 Fe16 N128)n'
_symmetry_cell_setting           triclinic
_symmetry_space_group_name_H-M   'P 1'
_symmetry_Int_Tables_number      1
_space_group_name_Hall           'P 1'
loop_
_symmetry_equiv_pos_site_id
_symmetry_equiv_pos_as_xyz
1 x,y,z
_cell_length_a                   22.056(3)
_cell_length_b                   22.056(3)
_cell_length_c                   29.005(6)
_cell_angle_alpha                90
_cell_angle_beta                 90
_cell_angle_gamma                90
_cell_volume                     14110
loop_
_atom_site_label
_atom_site_type_symbol
_atom_site_fract_x
_atom_site_fract_y
_atom_site_fract_z
Fe1 Fe 0.00059(9) 0.25338(7) 0.12456(5)
N1 N 0.0217(5) 0.2444(4) 0.0503(3)
C2 C 0.0347(7) 0.1900(6) 0.0324(4)
H2 H 0.0337 0.1562 0.0528
C3 C 0.0255(6) 0.2920(7) 0.0213(4)
H3 H 0.0180 0.3316 0.0328
B2 B 0.131(2) 0.072(2) 0.1376(17)
H22 H 0.1217 0.0479 0.1103
H23 H 0.1270 0.0470 0.1653
H24 H 0.1722 0.0880 0.1355
N8 N 0.0571(5) 0.1754(6) 0.1389(3)
C23 C 0.0808(8) 0.1315(7) 0.1409(5)
N10 N 0.0789(4) 0.3147(4) 0.1322(3)
N2 N 0.0697(4) 0.2217(4) 0.9110(3)
N3 N 0.1923(5) 0.0780(4) 0.8829(3)
N4 N 0.1853(4) 0.4211(4) 0.8678(3)
N5 N 0.0689(5) 0.2745(5) 0.8385(3)
N6 N 0.0207(6) 0.2633(5) 0.6993(4)
C1 C 0.0490(6) 0.1790(6) 0.9879(4)
H1 H 0.0564 0.1388 0.9775
C4 C 0.0404(6) 0.2843(6) 0.9738(4)
H4 H 0.0416 0.3188 0.9542
C5 C 0.0526(6) 0.2301(5) 0.9566(4)
C6 C 0.1106(6) 0.1724(5) 0.8992(4)
C7 C 0.1045(6) 0.1363(6) 0.8625(4)
H5 H 0.0724 0.1429 0.8412
C8 C 0.1452(6) 0.0892(6) 0.8556(5)
H6 H 0.1390 0.0634 0.8298
C9 C 0.2016(6) 0.1165(6) 0.9174(5)
H7 H 0.2374 0.1119 0.9352
C10 C 0.1622(6) 0.1632(6) 0.9291(4)
H8 H 0.1688 0.1879 0.9555
C11 C 0.0325(5) 0.2452(5) 0.8771(5)
H9 H 0.0051 0.2758 0.8909
H10 H 0.0072 0.2123 0.8641
C12 C 0.1677(7) 0.3156(7) 0.8614(7)
H11 H 0.1845 0.2759 0.8617
C13 C 0.2029(7) 0.3646(7) 0.8714(8)
H12 H 0.2431 0.3572 0.8817
C14 C 0.1281(9) 0.4278(8) 0.8563(7)
H13 H 0.1134 0.4678 0.8519
C15 C 0.0883(7) 0.3806(8) 0.8502(9)
H14 H 0.0464 0.3885 0.8456
C16 C 0.1086(5) 0.3239(6) 0.8509(4)
C17 C 0.0528(5) 0.2701(6) 0.7920(4)
C18 C 0.0870(6) 0.2936(7) 0.7591(5)
H15 H 0.1232 0.3143 0.7673
C19 C 0.0710(6) 0.2886(7) 0.7124(4)
H16 H 0.0978 0.3042 0.6897
Fe4 Fe 0.24662(7) 0.49941(9) 0.87544(5)
Fe2 Fe 0.25338(7) 0.99941(9) 0.87544(5)
B1 B 0.8574(17) 0.4188(18) 0.1227(16)
H19 H 0.8395 0.4064 0.1522
H20 H 0.8261 0.4187 0.0987
H21 H 0.8744 0.4597 0.1257
N7 N 0.9444(5) 0.3283(5) 0.1087(4)
C22 C 0.9123(7) 0.3705(8) 0.1083(6)
N9 N 0.9220(4) 0.1923(5) 0.1171(3)
N11 N 0.9793(6) 0.2633(5) 0.1993(4)
C20 C 0.9867(7) 0.2391(7) 0.7314(5)
H17 H 0.9511 0.2185 0.7217
C21 C 0.9982(7) 0.2411(8) 0.7783(5)
H18 H 0.9710 0.2241 0.8001
Fe3 Fe 0.99941(9) 0.25338(7) 0.62456(5)
B1_2 B 0.1426(17) 0.5812(18) 0.1227(16)
H19_2 H 0.1605 0.5936 0.1522
H20_2 H 0.1739 0.5813 0.0987
H21_2 H 0.1256 0.5403 0.1257
N7_2 N 0.0556(5) 0.6717(5) 0.1087(4)
C22_2 C 0.0877(7) 0.6295(8) 0.1083(6)
N9_2 N 0.0780(4) 0.8077(5) 0.1171(3)
N11_2 N 0.0207(6) 0.7367(5) 0.1993(4)
C20_2 C 0.0133(7) 0.7609(7) 0.7314(5)
H17_2 H 0.0489 0.7815 0.7217
C21_2 C 0.0018(7) 0.7589(8) 0.7783(5)
H18_2 H 0.0290 0.7759 0.8001
Fe3_2 Fe 0.00059(9) 0.74662(7) 0.62456(5)
Fe2_2 Fe 0.74662(7) 0.00059(9) 0.87544(5)
Fe1_2 Fe 0.99941(9) 0.74662(7) 0.12456(5)
N1_2 N 0.9783(5) 0.7556(4) 0.0503(3)
C2_2 C 0.9653(7) 0.8100(6) 0.0324(4)
H2_2 H 0.9663 0.8438 0.0528
C3_2 C 0.9745(6) 0.7080(7) 0.0213(4)
H3_2 H 0.9820 0.6684 0.0328
B2_2 B 0.869(2) 0.928(2) 0.1376(17)
H22_2 H 0.8783 0.9521 0.1103
H23_2 H 0.8730 0.9530 0.1653
H24_2 H 0.8278 0.9120 0.1355
N8_2 N 0.9429(5) 0.8246(6) 0.1389(3)
C23_2 C 0.9192(8) 0.8685(7) 0.1409(5)
N10_2 N 0.9211(4) 0.6853(4) 0.1322(3)
N2_2 N 0.9303(4) 0.7783(4) 0.9110(3)
N3_2 N 0.8077(5) 0.9220(4) 0.8829(3)
N4_2 N 0.8147(4) 0.5789(4) 0.8678(3)
N5_2 N 0.9311(5) 0.7255(5) 0.8385(3)
N6_2 N 0.9793(6) 0.7367(5) 0.6993(4)
C1_2 C 0.9510(6) 0.8210(6) 0.9879(4)
H1_2 H 0.9436 0.8612 0.9775
C4_2 C 0.9596(6) 0.7157(6) 0.9738(4)
H4_2 H 0.9584 0.6812 0.9542
C5_2 C 0.9474(6) 0.7699(5) 0.9566(4)
C6_2 C 0.8894(6) 0.8276(5) 0.8992(4)
C7_2 C 0.8955(6) 0.8637(6) 0.8625(4)
H5_2 H 0.9276 0.8571 0.8412
C8_2 C 0.8548(6) 0.9108(6) 0.8556(5)
H6_2 H 0.8610 0.9366 0.8298
C9_2 C 0.7984(6) 0.8835(6) 0.9174(5)
H7_2 H 0.7626 0.8881 0.9352
C10_2 C 0.8378(6) 0.8368(6) 0.9291(4)
H8_2 H 0.8312 0.8121 0.9555
C11_2 C 0.9675(5) 0.7548(5) 0.8771(5)
H9_2 H 0.9949 0.7242 0.8909
H10_2 H 0.9928 0.7877 0.8641
C12_2 C 0.8323(7) 0.6844(7) 0.8614(7)
H11_2 H 0.8155 0.7241 0.8617
C13_2 C 0.7971(7) 0.6354(7) 0.8714(8)
H12_2 H 0.7569 0.6428 0.8817
C14_2 C 0.8719(9) 0.5722(8) 0.8563(7)
H13_2 H 0.8866 0.5322 0.8519
C15_2 C 0.9117(7) 0.6194(8) 0.8502(9)
H14_2 H 0.9536 0.6115 0.8456
C16_2 C 0.8914(5) 0.6761(6) 0.8509(4)
C17_2 C 0.9472(5) 0.7299(6) 0.7920(4)
C18_2 C 0.9130(6) 0.7064(7) 0.7591(5)
H15_2 H 0.8768 0.6857 0.7673
C19_2 C 0.9290(6) 0.7114(7) 0.7124(4)
H16_2 H 0.9022 0.6958 0.6897
Fe4_2 Fe 0.75338(7) 0.50059(9) 0.87544(5)
C20_3 C 0.2391(7) 0.0133(7) 0.2686(5)
H17_3 H 0.2185 0.0489 0.2783
C21_3 C 0.2411(8) 0.0018(7) 0.2217(5)
H18_3 H 0.2241 0.0290 0.1999
Fe3_3 Fe 0.25338(7) 0.00059(9) 0.37544(5)
B1_3 B 0.4188(18) 0.1426(17) 0.8773(16)
H19_3 H 0.4064 0.1605 0.8478
H20_3 H 0.4187 0.1739 0.9013
H21_3 H 0.4597 0.1256 0.8743
N7_3 N 0.3283(5) 0.0556(5) 0.8913(4)
C22_3 C 0.3705(8) 0.0877(7) 0.8917(6)
N11_3 N 0.2633(5) 0.0207(6) 0.8007(4)
N2_3 N 0.2217(4) 0.9303(4) 0.0890(3)
N4_3 N 0.4211(4) 0.8147(4) 0.1322(3)
N5_3 N 0.2745(5) 0.9311(5) 0.1615(3)
N6_3 N 0.2633(5) 0.9793(6) 0.3007(4)
C1_3 C 0.1790(6) 0.9510(6) 0.0121(4)
H1_3 H 0.1388 0.9436 0.0225
C4_3 C 0.2843(6) 0.9596(6) 0.0262(4)
H4_3 H 0.3188 0.9584 0.0458
C5_3 C 0.2301(5) 0.9474(6) 0.0434(4)
C6_3 C 0.1724(5) 0.8894(6) 0.1008(4)
C7_3 C 0.1363(6) 0.8955(6) 0.1375(4)
H5_3 H 0.1429 0.9276 0.1588
C8_3 C 0.0892(6) 0.8548(6) 0.1444(5)
H6_3 H 0.0634 0.8610 0.1702
C9_3 C 0.1165(6) 0.7984(6) 0.0826(5)
H7_3 H 0.1119 0.7626 0.0648
C10_3 C 0.1632(6) 0.8378(6) 0.0709(4)
H8_3 H 0.1879 0.8312 0.0445
C11_3 C 0.2452(5) 0.9675(5) 0.1229(5)
H9_3 H 0.2758 0.9949 0.1091
H10_3 H 0.2123 0.9928 0.1359
C12_3 C 0.3156(7) 0.8323(7) 0.1386(7)
H11_3 H 0.2759 0.8155 0.1383
C13_3 C 0.3646(7) 0.7971(7) 0.1286(8)
H12_3 H 0.3572 0.7569 0.1183
C14_3 C 0.4278(8) 0.8719(9) 0.1437(7)
H13_3 H 0.4678 0.8866 0.1481
C15_3 C 0.3806(8) 0.9117(7) 0.1498(9)
H14_3 H 0.3885 0.9536 0.1544
C16_3 C 0.3239(6) 0.8914(5) 0.1491(4)
C17_3 C 0.2701(6) 0.9472(5) 0.2080(4)
C18_3 C 0.2936(7) 0.9130(6) 0.2409(5)
H15_3 H 0.3143 0.8768 0.2327
C19_3 C 0.2886(7) 0.9290(6) 0.2876(4)
H16_3 H 0.3042 0.9022 0.3103
Fe4_3 Fe 0.49941(9) 0.75338(7) 0.12456(5)
N1_3 N 0.2444(4) 0.9783(5) 0.9497(3)
C2_3 C 0.1900(6) 0.9653(7) 0.9676(4)
H2_3 H 0.1562 0.9663 0.9472
C3_3 C 0.2920(7) 0.9745(6) 0.9787(4)
H3_3 H 0.3316 0.9820 0.9672
B2_3 B 0.072(2) 0.869(2) 0.8624(17)
H22_3 H 0.0479 0.8783 0.8897
H23_3 H 0.0470 0.8730 0.8347
H24_3 H 0.0880 0.8278 0.8645
N8_3 N 0.1754(6) 0.9429(5) 0.8611(3)
C23_3 C 0.1315(7) 0.9192(8) 0.8591(5)
N10_3 N 0.3147(4) 0.9211(4) 0.8678(3)
N2_4 N 0.7783(4) 0.0697(4) 0.0890(3)
N4_4 N 0.5789(4) 0.1853(4) 0.1322(3)
N5_4 N 0.7255(5) 0.0689(5) 0.1615(3)
N6_4 N 0.7367(5) 0.0207(6) 0.3007(4)
C1_4 C 0.8210(6) 0.0490(6) 0.0121(4)
H1_4 H 0.8612 0.0564 0.0225
C4_4 C 0.7157(6) 0.0404(6) 0.0262(4)
H4_4 H 0.6812 0.0416 0.0458
C5_4 C 0.7699(5) 0.0526(6) 0.0434(4)
C6_4 C 0.8276(5) 0.1106(6) 0.1008(4)
C7_4 C 0.8637(6) 0.1045(6) 0.1375(4)
H5_4 H 0.8571 0.0724 0.1588
C8_4 C 0.9108(6) 0.1452(6) 0.1444(5)
H6_4 H 0.9366 0.1390 0.1702
C9_4 C 0.8835(6) 0.2016(6) 0.0826(5)
H7_4 H 0.8881 0.2374 0.0648
C10_4 C 0.8368(6) 0.1622(6) 0.0709(4)
H8_4 H 0.8121 0.1688 0.0445
C11_4 C 0.7548(5) 0.0325(5) 0.1229(5)
H9_4 H 0.7242 0.0051 0.1091
H10_4 H 0.7877 0.0072 0.1359
C12_4 C 0.6844(7) 0.1677(7) 0.1386(7)
H11_4 H 0.7241 0.1845 0.1383
C13_4 C 0.6354(7) 0.2029(7) 0.1286(8)
H12_4 H 0.6428 0.2431 0.1183
C14_4 C 0.5722(8) 0.1281(9) 0.1437(7)
H13_4 H 0.5322 0.1134 0.1481
C15_4 C 0.6194(8) 0.0883(7) 0.1498(9)
H14_4 H 0.6115 0.0464 0.1544
C16_4 C 0.6761(6) 0.1086(5) 0.1491(4)
C17_4 C 0.7299(6) 0.0528(5) 0.2080(4)
C18_4 C 0.7064(7) 0.0870(6) 0.2409(5)
H15_4 H 0.6857 0.1232 0.2327
C19_4 C 0.7114(7) 0.0710(6) 0.2876(4)
H16_4 H 0.6958 0.0978 0.3103
Fe4_4 Fe 0.50059(9) 0.24662(7) 0.12456(5)
N1_4 N 0.7556(4) 0.0217(5) 0.9497(3)
C2_4 C 0.8100(6) 0.0347(7) 0.9676(4)
H2_4 H 0.8438 0.0337 0.9472
C3_4 C 0.7080(7) 0.0255(6) 0.9787(4)
H3_4 H 0.6684 0.0180 0.9672
B2_4 B 0.928(2) 0.131(2) 0.8624(17)
H22_4 H 0.9521 0.1217 0.8897
H23_4 H 0.9530 0.1270 0.8347
H24_4 H 0.9120 0.1722 0.8645
N8_4 N 0.8246(6) 0.0571(5) 0.8611(3)
C23_4 C 0.8685(7) 0.0808(8) 0.8591(5)
N10_4 N 0.6853(4) 0.0789(4) 0.8678(3)
C20_4 C 0.7609(7) 0.9867(7) 0.2686(5)
H17_4 H 0.7815 0.9511 0.2783
C21_4 C 0.7589(8) 0.9982(7) 0.2217(5)
H18_4 H 0.7759 0.9710 0.1999
Fe3_4 Fe 0.74662(7) 0.99941(9) 0.37544(5)
B1_4 B 0.5812(18) 0.8574(17) 0.8773(16)
H19_4 H 0.5936 0.8395 0.8478
H20_4 H 0.5813 0.8261 0.9013
H21_4 H 0.5403 0.8744 0.8743
N7_4 N 0.6717(5) 0.9444(5) 0.8913(4)
C22_4 C 0.6295(8) 0.9123(7) 0.8917(6)
N11_4 N 0.7367(5) 0.9793(6) 0.8007(4)
N1_5 N 0.0217(5) 0.7556(4) 0.5503(3)
N2_5 N 0.0697(4) 0.7783(4) 0.4110(3)
N3_3 N 0.1923(5) 0.9220(4) 0.3829(3)
N4_5 N 0.1853(4) 0.5789(4) 0.3678(3)
N5_5 N 0.0689(5) 0.7255(5) 0.3385(3)
C1_5 C 0.0490(6) 0.8210(6) 0.4879(4)
H1_5 H 0.0564 0.8612 0.4775
C2_5 C 0.0347(7) 0.8100(6) 0.5324(4)
H2_5 H 0.0337 0.8438 0.5528
C3_5 C 0.0255(6) 0.7080(7) 0.5213(4)
H3_5 H 0.0180 0.6684 0.5328
C4_5 C 0.0404(6) 0.7157(6) 0.4738(4)
H4_5 H 0.0416 0.6812 0.4542
C5_5 C 0.0526(6) 0.7699(5) 0.4566(4)
C6_5 C 0.1106(6) 0.8276(5) 0.3992(4)
C7_5 C 0.1045(6) 0.8637(6) 0.3625(4)
H5_5 H 0.0724 0.8571 0.3412
C8_5 C 0.1452(6) 0.9108(6) 0.3556(5)
H6_5 H 0.1390 0.9366 0.3298
C9_5 C 0.2016(6) 0.8835(6) 0.4174(5)
H7_5 H 0.2374 0.8881 0.4352
C10_5 C 0.1622(6) 0.8368(6) 0.4291(4)
H8_5 H 0.1688 0.8121 0.4555
C11_5 C 0.0325(5) 0.7548(5) 0.3771(5)
H9_5 H 0.0051 0.7242 0.3909
H10_5 H 0.0072 0.7877 0.3641
C12_5 C 0.1677(7) 0.6844(7) 0.3614(7)
H11_5 H 0.1845 0.7241 0.3617
C13_5 C 0.2029(7) 0.6354(7) 0.3714(8)
H12_5 H 0.2431 0.6428 0.3817
C14_5 C 0.1281(9) 0.5722(8) 0.3563(7)
H13_5 H 0.1134 0.5322 0.3519
C15_5 C 0.0883(7) 0.6194(8) 0.3502(9)
H14_5 H 0.0464 0.6115 0.3456
C16_5 C 0.1086(5) 0.6761(6) 0.3509(4)
C17_5 C 0.0528(5) 0.7299(6) 0.2920(4)
C18_5 C 0.0870(6) 0.7064(7) 0.2591(5)
H15_5 H 0.1232 0.6857 0.2673
C19_5 C 0.0710(6) 0.7114(7) 0.2124(4)
H16_5 H 0.0978 0.6958 0.1897
B2_5 B 0.131(2) 0.928(2) 0.6376(17)
H22_5 H 0.1217 0.9521 0.6103
H23_5 H 0.1270 0.9530 0.6653
H24_5 H 0.1722 0.9120 0.6355
N8_5 N 0.0571(5) 0.8246(6) 0.6389(3)
C23_5 C 0.0808(8) 0.8685(7) 0.6409(5)
Fe4_5 Fe 0.24662(7) 0.50059(9) 0.37544(5)
N10_5 N 0.0789(4) 0.6853(4) 0.6322(3)
C20_5 C 0.9867(7) 0.7609(7) 0.2314(5)
H17_5 H 0.9511 0.7815 0.2217
C21_5 C 0.9982(7) 0.7589(8) 0.2783(5)
H18_5 H 0.9710 0.7759 0.3001
B1_5 B 0.8574(17) 0.5812(18) 0.6227(16)
H19_5 H 0.8395 0.5936 0.6522
H20_5 H 0.8261 0.5813 0.5987
H21_5 H 0.8744 0.5403 0.6257
N7_5 N 0.9444(5) 0.6717(5) 0.6087(4)
C22_5 C 0.9123(7) 0.6295(8) 0.6083(6)
N9_3 N 0.9220(4) 0.8077(5) 0.6171(3)
C20_6 C 0.0133(7) 0.2391(7) 0.2314(5)
H17_6 H 0.0489 0.2185 0.2217
C21_6 C 0.0018(7) 0.2411(8) 0.2783(5)
H18_6 H 0.0290 0.2241 0.3001
B1_6 B 0.1426(17) 0.4188(18) 0.6227(16)
H19_6 H 0.1605 0.4064 0.6522
H20_6 H 0.1739 0.4187 0.5987
H21_6 H 0.1256 0.4597 0.6257
N7_6 N 0.0556(5) 0.3283(5) 0.6087(4)
C22_6 C 0.0877(7) 0.3705(8) 0.6083(6)
N9_4 N 0.0780(4) 0.1923(5) 0.6171(3)
N1_6 N 0.9783(5) 0.2444(4) 0.5503(3)
N2_6 N 0.9303(4) 0.2217(4) 0.4110(3)
N3_4 N 0.8077(5) 0.0780(4) 0.3829(3)
N4_6 N 0.8147(4) 0.4211(4) 0.3678(3)
N5_6 N 0.9311(5) 0.2745(5) 0.3385(3)
C1_6 C 0.9510(6) 0.1790(6) 0.4879(4)
H1_6 H 0.9436 0.1388 0.4775
C2_6 C 0.9653(7) 0.1900(6) 0.5324(4)
H2_6 H 0.9663 0.1562 0.5528
C3_6 C 0.9745(6) 0.2920(7) 0.5213(4)
H3_6 H 0.9820 0.3316 0.5328
C4_6 C 0.9596(6) 0.2843(6) 0.4738(4)
H4_6 H 0.9584 0.3188 0.4542
C5_6 C 0.9474(6) 0.2301(5) 0.4566(4)
C6_6 C 0.8894(6) 0.1724(5) 0.3992(4)
C7_6 C 0.8955(6) 0.1363(6) 0.3625(4)
H5_6 H 0.9276 0.1429 0.3412
C8_6 C 0.8548(6) 0.0892(6) 0.3556(5)
H6_6 H 0.8610 0.0634 0.3298
C9_6 C 0.7984(6) 0.1165(6) 0.4174(5)
H7_6 H 0.7626 0.1119 0.4352
C10_6 C 0.8378(6) 0.1632(6) 0.4291(4)
H8_6 H 0.8312 0.1879 0.4555
C11_6 C 0.9675(5) 0.2452(5) 0.3771(5)
H9_6 H 0.9949 0.2758 0.3909
H10_6 H 0.9928 0.2123 0.3641
C12_6 C 0.8323(7) 0.3156(7) 0.3614(7)
H11_6 H 0.8155 0.2759 0.3617
C13_6 C 0.7971(7) 0.3646(7) 0.3714(8)
H12_6 H 0.7569 0.3572 0.3817
C14_6 C 0.8719(9) 0.4278(8) 0.3563(7)
H13_6 H 0.8866 0.4678 0.3519
C15_6 C 0.9117(7) 0.3806(8) 0.3502(9)
H14_6 H 0.9536 0.3885 0.3456
C16_6 C 0.8914(5) 0.3239(6) 0.3509(4)
C17_6 C 0.9472(5) 0.2701(6) 0.2920(4)
C18_6 C 0.9130(6) 0.2936(7) 0.2591(5)
H15_6 H 0.8768 0.3143 0.2673
C19_6 C 0.9290(6) 0.2886(7) 0.2124(4)
H16_6 H 0.9022 0.3042 0.1897
B2_6 B 0.869(2) 0.072(2) 0.6376(17)
H22_6 H 0.8783 0.0479 0.6103
H23_6 H 0.8730 0.0470 0.6653
H24_6 H 0.8278 0.0880 0.6355
N8_6 N 0.9429(5) 0.1754(6) 0.6389(3)
C23_6 C 0.9192(8) 0.1315(7) 0.6409(5)
Fe4_6 Fe 0.75338(7) 0.49941(9) 0.37544(5)
N10_6 N 0.9211(4) 0.3147(4) 0.6322(3)
N1_7 N 0.2444(4) 0.0217(5) 0.4497(3)
N2_7 N 0.2217(4) 0.0697(4) 0.5890(3)
N4_7 N 0.4211(4) 0.1853(4) 0.6322(3)
N5_7 N 0.2745(5) 0.0689(5) 0.6615(3)
C1_7 C 0.1790(6) 0.0490(6) 0.5121(4)
H1_7 H 0.1388 0.0564 0.5225
C2_7 C 0.1900(6) 0.0347(7) 0.4676(4)
H2_7 H 0.1562 0.0337 0.4472
C3_7 C 0.2920(7) 0.0255(6) 0.4787(4)
H3_7 H 0.3316 0.0180 0.4672
C4_7 C 0.2843(6) 0.0404(6) 0.5262(4)
H4_7 H 0.3188 0.0416 0.5458
C5_7 C 0.2301(5) 0.0526(6) 0.5434(4)
C6_7 C 0.1724(5) 0.1106(6) 0.6008(4)
C7_7 C 0.1363(6) 0.1045(6) 0.6375(4)
H5_7 H 0.1429 0.0724 0.6588
C8_7 C 0.0892(6) 0.1452(6) 0.6444(5)
H6_7 H 0.0634 0.1390 0.6702
C9_7 C 0.1165(6) 0.2016(6) 0.5826(5)
H7_7 H 0.1119 0.2374 0.5648
C10_7 C 0.1632(6) 0.1622(6) 0.5709(4)
H8_7 H 0.1879 0.1688 0.5445
C11_7 C 0.2452(5) 0.0325(5) 0.6229(5)
H9_7 H 0.2758 0.0051 0.6091
H10_7 H 0.2123 0.0072 0.6359
C12_7 C 0.3156(7) 0.1677(7) 0.6386(7)
H11_7 H 0.2759 0.1845 0.6383
C13_7 C 0.3646(7) 0.2029(7) 0.6286(8)
H12_7 H 0.3572 0.2431 0.6183
C14_7 C 0.4278(8) 0.1281(9) 0.6437(7)
H13_7 H 0.4678 0.1134 0.6481
C15_7 C 0.3806(8) 0.0883(7) 0.6498(9)
H14_7 H 0.3885 0.0464 0.6544
C16_7 C 0.3239(6) 0.1086(5) 0.6491(4)
C17_7 C 0.2701(6) 0.0528(5) 0.7080(4)
C18_7 C 0.2936(7) 0.0870(6) 0.7409(5)
H15_7 H 0.3143 0.1232 0.7327
C19_7 C 0.2886(7) 0.0710(6) 0.7876(4)
H16_7 H 0.3042 0.0978 0.8103
B2_7 B 0.072(2) 0.131(2) 0.3624(17)
H22_7 H 0.0479 0.1217 0.3897
H23_7 H 0.0470 0.1270 0.3347
H24_7 H 0.0880 0.1722 0.3645
N8_7 N 0.1754(6) 0.0571(5) 0.3611(3)
C23_7 C 0.1315(7) 0.0808(8) 0.3591(5)
Fe4_7 Fe 0.49941(9) 0.24662(7) 0.62456(5)
N10_7 N 0.3147(4) 0.0789(4) 0.3678(3)
C20_7 C 0.2391(7) 0.9867(7) 0.7686(5)
H17_7 H 0.2185 0.9511 0.7783
C21_7 C 0.2411(8) 0.9982(7) 0.7217(5)
H18_7 H 0.2241 0.9710 0.6999
B1_7 B 0.4188(18) 0.8574(17) 0.3773(16)
H19_7 H 0.4064 0.8395 0.3478
H20_7 H 0.4187 0.8261 0.4013
H21_7 H 0.4597 0.8744 0.3743
N7_7 N 0.3283(5) 0.9444(5) 0.3913(4)
C22_7 C 0.3705(8) 0.9123(7) 0.3917(6)
C20_8 C 0.7609(7) 0.0133(7) 0.7686(5)
H17_8 H 0.7815 0.0489 0.7783
C21_8 C 0.7589(8) 0.0018(7) 0.7217(5)
H18_8 H 0.7759 0.0290 0.6999
B1_8 B 0.5812(18) 0.1426(17) 0.3773(16)
H19_8 H 0.5936 0.1605 0.3478
H20_8 H 0.5813 0.1739 0.4013
H21_8 H 0.5403 0.1256 0.3743
N7_8 N 0.6717(5) 0.0556(5) 0.3913(4)
C22_8 C 0.6295(8) 0.0877(7) 0.3917(6)
N1_8 N 0.7556(4) 0.9783(5) 0.4497(3)
N2_8 N 0.7783(4) 0.9303(4) 0.5890(3)
N4_8 N 0.5789(4) 0.8147(4) 0.6322(3)
N5_8 N 0.7255(5) 0.9311(5) 0.6615(3)
C1_8 C 0.8210(6) 0.9510(6) 0.5121(4)
H1_8 H 0.8612 0.9436 0.5225
C2_8 C 0.8100(6) 0.9653(7) 0.4676(4)
H2_8 H 0.8438 0.9663 0.4472
C3_8 C 0.7080(7) 0.9745(6) 0.4787(4)
H3_8 H 0.6684 0.9820 0.4672
C4_8 C 0.7157(6) 0.9596(6) 0.5262(4)
H4_8 H 0.6812 0.9584 0.5458
C5_8 C 0.7699(5) 0.9474(6) 0.5434(4)
C6_8 C 0.8276(5) 0.8894(6) 0.6008(4)
C7_8 C 0.8637(6) 0.8955(6) 0.6375(4)
H5_8 H 0.8571 0.9276 0.6588
C8_8 C 0.9108(6) 0.8548(6) 0.6444(5)
H6_8 H 0.9366 0.8610 0.6702
C9_8 C 0.8835(6) 0.7984(6) 0.5826(5)
H7_8 H 0.8881 0.7626 0.5648
C10_8 C 0.8368(6) 0.8378(6) 0.5709(4)
H8_8 H 0.8121 0.8312 0.5445
C11_8 C 0.7548(5) 0.9675(5) 0.6229(5)
H9_8 H 0.7242 0.9949 0.6091
H10_8 H 0.7877 0.9928 0.6359
C12_8 C 0.6844(7) 0.8323(7) 0.6386(7)
H11_8 H 0.7241 0.8155 0.6383
C13_8 C 0.6354(7) 0.7971(7) 0.6286(8)
H12_8 H 0.6428 0.7569 0.6183
C14_8 C 0.5722(8) 0.8719(9) 0.6437(7)
H13_8 H 0.5322 0.8866 0.6481
C15_8 C 0.6194(8) 0.9117(7) 0.6498(9)
H14_8 H 0.6115 0.9536 0.6544
C16_8 C 0.6761(6) 0.8914(5) 0.6491(4)
C17_8 C 0.7299(6) 0.9472(5) 0.7080(4)
C18_8 C 0.7064(7) 0.9130(6) 0.7409(5)
H15_8 H 0.6857 0.8768 0.7327
C19_8 C 0.7114(7) 0.9290(6) 0.7876(4)
H16_8 H 0.6958 0.9022 0.8103
B2_8 B 0.928(2) 0.869(2) 0.3624(17)
H22_8 H 0.9521 0.8783 0.3897
H23_8 H 0.9530 0.8730 0.3347
H24_8 H 0.9120 0.8278 0.3645
N8_8 N 0.8246(6) 0.9429(5) 0.3611(3)
C23_8 C 0.8685(7) 0.9192(8) 0.3591(5)
Fe4_8 Fe 0.50059(9) 0.75338(7) 0.62456(5)
N10_8 N 0.6853(4) 0.9211(4) 0.3678(3)
N1_9 N 0.5217(5) 0.7444(4) 0.5503(3)
N2_9 N 0.5697(4) 0.7217(4) 0.4110(3)
N3_5 N 0.6923(5) 0.5780(4) 0.3829(3)
N5_9 N 0.5689(5) 0.7745(5) 0.3385(3)
N6_5 N 0.5207(6) 0.7633(5) 0.1993(4)
C1_9 C 0.5490(6) 0.6790(6) 0.4879(4)
H1_9 H 0.5564 0.6388 0.4775
C2_9 C 0.5347(7) 0.6900(6) 0.5324(4)
H2_9 H 0.5337 0.6562 0.5528
C3_9 C 0.5255(6) 0.7920(7) 0.5213(4)
H3_9 H 0.5180 0.8316 0.5328
C4_9 C 0.5404(6) 0.7843(6) 0.4738(4)
H4_9 H 0.5416 0.8188 0.4542
C5_9 C 0.5526(6) 0.7301(5) 0.4566(4)
C6_9 C 0.6106(6) 0.6724(5) 0.3992(4)
C7_9 C 0.6045(6) 0.6363(6) 0.3625(4)
H5_9 H 0.5724 0.6429 0.3412
C8_9 C 0.6452(6) 0.5892(6) 0.3556(5)
H6_9 H 0.6390 0.5634 0.3298
C9_9 C 0.7016(6) 0.6165(6) 0.4174(5)
H7_9 H 0.7374 0.6119 0.4352
C10_9 C 0.6622(6) 0.6632(6) 0.4291(4)
H8_9 H 0.6688 0.6879 0.4555
C11_9 C 0.5325(5) 0.7452(5) 0.3771(5)
H9_9 H 0.5051 0.7758 0.3909
H10_9 H 0.5072 0.7123 0.3641
C12_9 C 0.6677(7) 0.8156(7) 0.3614(7)
H11_9 H 0.6845 0.7759 0.3617
C13_9 C 0.7029(7) 0.8646(7) 0.3714(8)
H12_9 H 0.7431 0.8572 0.3817
C14_9 C 0.6281(9) 0.9278(8) 0.3563(7)
H13_9 H 0.6134 0.9678 0.3519
C15_9 C 0.5883(7) 0.8806(8) 0.3502(9)
H14_9 H 0.5464 0.8885 0.3456
C16_9 C 0.6086(5) 0.8239(6) 0.3509(4)
C17_9 C 0.5528(5) 0.7701(6) 0.2920(4)
C18_9 C 0.5870(6) 0.7936(7) 0.2591(5)
H15_9 H 0.6232 0.8143 0.2673
C19_9 C 0.5710(6) 0.7886(7) 0.2124(4)
H16_9 H 0.5978 0.8042 0.1897
C20_9 C 0.4867(7) 0.7391(7) 0.2314(5)
H17_9 H 0.4511 0.7185 0.2217
C21_9 C 0.4982(7) 0.7411(8) 0.2783(5)
H18_9 H 0.4710 0.7241 0.3001
B1_9 B 0.3574(17) 0.9188(18) 0.6227(16)
H19_9 H 0.3395 0.9064 0.6522
H20_9 H 0.3261 0.9187 0.5987
H21_9 H 0.3744 0.9597 0.6257
B2_9 B 0.631(2) 0.572(2) 0.6376(17)
H22_9 H 0.6217 0.5479 0.6103
H23_9 H 0.6270 0.5470 0.6653
H24_9 H 0.6722 0.5880 0.6355
N7_9 N 0.4444(5) 0.8283(5) 0.6087(4)
N8_9 N 0.5571(5) 0.6754(6) 0.6389(3)
C22_9 C 0.4123(7) 0.8705(8) 0.6083(6)
C23_9 C 0.5808(8) 0.6315(7) 0.6409(5)
N9_5 N 0.4220(4) 0.6923(5) 0.6171(3)
N11_5 N 0.4793(6) 0.7633(5) 0.6993(4)
N1_10 N 0.4783(5) 0.2556(4) 0.5503(3)
N2_10 N 0.4303(4) 0.2783(4) 0.4110(3)
N3_6 N 0.3077(5) 0.4220(4) 0.3829(3)
N5_10 N 0.4311(5) 0.2255(5) 0.3385(3)
N6_6 N 0.4793(6) 0.2367(5) 0.1993(4)
C1_10 C 0.4510(6) 0.3210(6) 0.4879(4)
H1_10 H 0.4436 0.3612 0.4775
C2_10 C 0.4653(7) 0.3100(6) 0.5324(4)
H2_10 H 0.4663 0.3438 0.5528
C3_10 C 0.4745(6) 0.2080(7) 0.5213(4)
H3_10 H 0.4820 0.1684 0.5328
C4_10 C 0.4596(6) 0.2157(6) 0.4738(4)
H4_10 H 0.4584 0.1812 0.4542
C5_10 C 0.4474(6) 0.2699(5) 0.4566(4)
C6_10 C 0.3894(6) 0.3276(5) 0.3992(4)
C7_10 C 0.3955(6) 0.3637(6) 0.3625(4)
H5_10 H 0.4276 0.3571 0.3412
C8_10 C 0.3548(6) 0.4108(6) 0.3556(5)
H6_10 H 0.3610 0.4366 0.3298
C9_10 C 0.2984(6) 0.3835(6) 0.4174(5)
H7_10 H 0.2626 0.3881 0.4352
C10_10 C 0.3378(6) 0.3368(6) 0.4291(4)
H8_10 H 0.3312 0.3121 0.4555
C11_10 C 0.4675(5) 0.2548(5) 0.3771(5)
H9_10 H 0.4949 0.2242 0.3909
H10_10 H 0.4928 0.2877 0.3641
C12_10 C 0.3323(7) 0.1844(7) 0.3614(7)
H11_10 H 0.3155 0.2241 0.3617
C13_10 C 0.2971(7) 0.1354(7) 0.3714(8)
H12_10 H 0.2569 0.1428 0.3817
C14_10 C 0.3719(9) 0.0722(8) 0.3563(7)
H13_10 H 0.3866 0.0322 0.3519
C15_10 C 0.4117(7) 0.1194(8) 0.3502(9)
H14_10 H 0.4536 0.1115 0.3456
C16_10 C 0.3914(5) 0.1761(6) 0.3509(4)
C17_10 C 0.4472(5) 0.2299(6) 0.2920(4)
C18_10 C 0.4130(6) 0.2064(7) 0.2591(5)
H15_10 H 0.3768 0.1857 0.2673
C19_10 C 0.4290(6) 0.2114(7) 0.2124(4)
H16_10 H 0.4022 0.1958 0.1897
C20_10 C 0.5133(7) 0.2609(7) 0.2314(5)
H17_10 H 0.5489 0.2815 0.2217
C21_10 C 0.5018(7) 0.2589(8) 0.2783(5)
H18_10 H 0.5290 0.2759 0.3001
B1_10 B 0.6426(17) 0.0812(18) 0.6227(16)
H19_10 H 0.6605 0.0936 0.6522
H20_10 H 0.6739 0.0813 0.5987
H21_10 H 0.6256 0.0403 0.6257
B2_10 B 0.369(2) 0.428(2) 0.6376(17)
H22_10 H 0.3783 0.4521 0.6103
H23_10 H 0.3730 0.4530 0.6653
H24_10 H 0.3278 0.4120 0.6355
N7_10 N 0.5556(5) 0.1717(5) 0.6087(4)
N8_10 N 0.4429(5) 0.3246(6) 0.6389(3)
C22_10 C 0.5877(7) 0.1295(8) 0.6083(6)
C23_10 C 0.4192(8) 0.3685(7) 0.6409(5)
N9_6 N 0.5780(4) 0.3077(5) 0.6171(3)
N11_6 N 0.5207(6) 0.2367(5) 0.6993(4)
N1_11 N 0.7444(4) 0.4783(5) 0.4497(3)
N2_11 N 0.7217(4) 0.4303(4) 0.5890(3)
N5_11 N 0.7745(5) 0.4311(5) 0.6615(3)
N6_7 N 0.7633(5) 0.4793(6) 0.8007(4)
C1_11 C 0.6790(6) 0.4510(6) 0.5121(4)
H1_11 H 0.6388 0.4436 0.5225
C2_11 C 0.6900(6) 0.4653(7) 0.4676(4)
H2_11 H 0.6562 0.4663 0.4472
C3_11 C 0.7920(7) 0.4745(6) 0.4787(4)
H3_11 H 0.8316 0.4820 0.4672
C4_11 C 0.7843(6) 0.4596(6) 0.5262(4)
H4_11 H 0.8188 0.4584 0.5458
C5_11 C 0.7301(5) 0.4474(6) 0.5434(4)
C6_11 C 0.6724(5) 0.3894(6) 0.6008(4)
C7_11 C 0.6363(6) 0.3955(6) 0.6375(4)
H5_11 H 0.6429 0.4276 0.6588
C8_11 C 0.5892(6) 0.3548(6) 0.6444(5)
H6_11 H 0.5634 0.3610 0.6702
C9_11 C 0.6165(6) 0.2984(6) 0.5826(5)
H7_11 H 0.6119 0.2626 0.5648
C10_11 C 0.6632(6) 0.3378(6) 0.5709(4)
H8_11 H 0.6879 0.3312 0.5445
C11_11 C 0.7452(5) 0.4675(5) 0.6229(5)
H9_11 H 0.7758 0.4949 0.6091
H10_11 H 0.7123 0.4928 0.6359
C12_11 C 0.8156(7) 0.3323(7) 0.6386(7)
H11_11 H 0.7759 0.3155 0.6383
C13_11 C 0.8646(7) 0.2971(7) 0.6286(8)
H12_11 H 0.8572 0.2569 0.6183
C14_11 C 0.9278(8) 0.3719(9) 0.6437(7)
H13_11 H 0.9678 0.3866 0.6481
C15_11 C 0.8806(8) 0.4117(7) 0.6498(9)
H14_11 H 0.8885 0.4536 0.6544
C16_11 C 0.8239(6) 0.3914(5) 0.6491(4)
C17_11 C 0.7701(6) 0.4472(5) 0.7080(4)
C18_11 C 0.7936(7) 0.4130(6) 0.7409(5)
H15_11 H 0.8143 0.3768 0.7327
C19_11 C 0.7886(7) 0.4290(6) 0.7876(4)
H16_11 H 0.8042 0.4022 0.8103
C20_11 C 0.7391(7) 0.5133(7) 0.7686(5)
H17_11 H 0.7185 0.5489 0.7783
C21_11 C 0.7411(8) 0.5018(7) 0.7217(5)
H18_11 H 0.7241 0.5290 0.6999
B1_11 B 0.9188(18) 0.6426(17) 0.3773(16)
H19_11 H 0.9064 0.6605 0.3478
H20_11 H 0.9187 0.6739 0.4013
H21_11 H 0.9597 0.6256 0.3743
B2_11 B 0.572(2) 0.369(2) 0.3624(17)
H22_11 H 0.5479 0.3783 0.3897
H23_11 H 0.5470 0.3730 0.3347
H24_11 H 0.5880 0.3278 0.3645
N7_11 N 0.8283(5) 0.5556(5) 0.3913(4)
N8_11 N 0.6754(6) 0.4429(5) 0.3611(3)
C22_11 C 0.8705(8) 0.5877(7) 0.3917(6)
C23_11 C 0.6315(7) 0.4192(8) 0.3591(5)
N11_7 N 0.7633(5) 0.5207(6) 0.3007(4)
N1_12 N 0.2556(4) 0.5217(5) 0.4497(3)
N2_12 N 0.2783(4) 0.5697(4) 0.5890(3)
N5_12 N 0.2255(5) 0.5689(5) 0.6615(3)
N6_8 N 0.2367(5) 0.5207(6) 0.8007(4)
C1_12 C 0.3210(6) 0.5490(6) 0.5121(4)
H1_12 H 0.3612 0.5564 0.5225
C2_12 C 0.3100(6) 0.5347(7) 0.4676(4)
H2_12 H 0.3438 0.5337 0.4472
C3_12 C 0.2080(7) 0.5255(6) 0.4787(4)
H3_12 H 0.1684 0.5180 0.4672
C4_12 C 0.2157(6) 0.5404(6) 0.5262(4)
H4_12 H 0.1812 0.5416 0.5458
C5_12 C 0.2699(5) 0.5526(6) 0.5434(4)
C6_12 C 0.3276(5) 0.6106(6) 0.6008(4)
C7_12 C 0.3637(6) 0.6045(6) 0.6375(4)
H5_12 H 0.3571 0.5724 0.6588
C8_12 C 0.4108(6) 0.6452(6) 0.6444(5)
H6_12 H 0.4366 0.6390 0.6702
C9_12 C 0.3835(6) 0.7016(6) 0.5826(5)
H7_12 H 0.3881 0.7374 0.5648
C10_12 C 0.3368(6) 0.6622(6) 0.5709(4)
H8_12 H 0.3121 0.6688 0.5445
C11_12 C 0.2548(5) 0.5325(5) 0.6229(5)
H9_12 H 0.2242 0.5051 0.6091
H10_12 H 0.2877 0.5072 0.6359
C12_12 C 0.1844(7) 0.6677(7) 0.6386(7)
H11_12 H 0.2241 0.6845 0.6383
C13_12 C 0.1354(7) 0.7029(7) 0.6286(8)
H12_12 H 0.1428 0.7431 0.6183
C14_12 C 0.0722(8) 0.6281(9) 0.6437(7)
H13_12 H 0.0322 0.6134 0.6481
C15_12 C 0.1194(8) 0.5883(7) 0.6498(9)
H14_12 H 0.1115 0.5464 0.6544
C16_12 C 0.1761(6) 0.6086(5) 0.6491(4)
C17_12 C 0.2299(6) 0.5528(5) 0.7080(4)
C18_12 C 0.2064(7) 0.5870(6) 0.7409(5)
H15_12 H 0.1857 0.6232 0.7327
C19_12 C 0.2114(7) 0.5710(6) 0.7876(4)
H16_12 H 0.1958 0.5978 0.8103
C20_12 C 0.2609(7) 0.4867(7) 0.7686(5)
H17_12 H 0.2815 0.4511 0.7783
C21_12 C 0.2589(8) 0.4982(7) 0.7217(5)
H18_12 H 0.2759 0.4710 0.6999
B1_12 B 0.0812(18) 0.3574(17) 0.3773(16)
H19_12 H 0.0936 0.3395 0.3478
H20_12 H 0.0813 0.3261 0.4013
H21_12 H 0.0403 0.3744 0.3743
B2_12 B 0.428(2) 0.631(2) 0.3624(17)
H22_12 H 0.4521 0.6217 0.3897
H23_12 H 0.4530 0.6270 0.3347
H24_12 H 0.4120 0.6722 0.3645
N7_12 N 0.1717(5) 0.4444(5) 0.3913(4)
N8_12 N 0.3246(6) 0.5571(5) 0.3611(3)
C22_12 C 0.1295(8) 0.4123(7) 0.3917(6)
C23_12 C 0.3685(7) 0.5808(8) 0.3591(5)
N11_8 N 0.2367(5) 0.4793(6) 0.3007(4)
N1_13 N 0.5217(5) 0.2556(4) 0.0503(3)
C2_13 C 0.5347(7) 0.3100(6) 0.0324(4)
H2_13 H 0.5337 0.3438 0.0528
C3_13 C 0.5255(6) 0.2080(7) 0.0213(4)
H3_13 H 0.5180 0.1684 0.0328
B1_13 B 0.3574(17) 0.0812(18) 0.1227(16)
H19_13 H 0.3395 0.0936 0.1522
H20_13 H 0.3261 0.0813 0.0987
H21_13 H 0.3744 0.0403 0.1257
B2_13 B 0.631(2) 0.428(2) 0.1376(17)
H22_13 H 0.6217 0.4521 0.1103
H23_13 H 0.6270 0.4530 0.1653
H24_13 H 0.6722 0.4120 0.1355
N7_13 N 0.4444(5) 0.1717(5) 0.1087(4)
N8_13 N 0.5571(5) 0.3246(6) 0.1389(3)
C22_13 C 0.4123(7) 0.1295(8) 0.1083(6)
C23_13 C 0.5808(8) 0.3685(7) 0.1409(5)
N9_7 N 0.4220(4) 0.3077(5) 0.1171(3)
N2_13 N 0.5697(4) 0.2783(4) 0.9110(3)
N3_7 N 0.6923(5) 0.4220(4) 0.8829(3)
N5_13 N 0.5689(5) 0.2255(5) 0.8385(3)
C1_13 C 0.5490(6) 0.3210(6) 0.9879(4)
H1_13 H 0.5564 0.3612 0.9775
C4_13 C 0.5404(6) 0.2157(6) 0.9738(4)
H4_13 H 0.5416 0.1812 0.9542
C5_13 C 0.5526(6) 0.2699(5) 0.9566(4)
C6_13 C 0.6106(6) 0.3276(5) 0.8992(4)
C7_13 C 0.6045(6) 0.3637(6) 0.8625(4)
H5_13 H 0.5724 0.3571 0.8412
C8_13 C 0.6452(6) 0.4108(6) 0.8556(5)
H6_13 H 0.6390 0.4366 0.8298
C9_13 C 0.7016(6) 0.3835(6) 0.9174(5)
H7_13 H 0.7374 0.3881 0.9352
C10_13 C 0.6622(6) 0.3368(6) 0.9291(4)
H8_13 H 0.6688 0.3121 0.9555
C11_13 C 0.5325(5) 0.2548(5) 0.8771(5)
H9_13 H 0.5051 0.2242 0.8909
H10_13 H 0.5072 0.2877 0.8641
C12_13 C 0.6677(7) 0.1844(7) 0.8614(7)
H11_13 H 0.6845 0.2241 0.8617
C13_13 C 0.7029(7) 0.1354(7) 0.8714(8)
H12_13 H 0.7431 0.1428 0.8817
C14_13 C 0.6281(9) 0.0722(8) 0.8563(7)
H13_13 H 0.6134 0.0322 0.8519
C15_13 C 0.5883(7) 0.1194(8) 0.8502(9)
H14_13 H 0.5464 0.1115 0.8456
C16_13 C 0.6086(5) 0.1761(6) 0.8509(4)
C17_13 C 0.5528(5) 0.2299(6) 0.7920(4)
C18_13 C 0.5870(6) 0.2064(7) 0.7591(5)
H15_13 H 0.6232 0.1857 0.7673
C19_13 C 0.5710(6) 0.2114(7) 0.7124(4)
H16_13 H 0.5978 0.1958 0.6897
C20_13 C 0.4867(7) 0.2609(7) 0.7314(5)
H17_13 H 0.4511 0.2815 0.7217
C21_13 C 0.4982(7) 0.2589(8) 0.7783(5)
H18_13 H 0.4710 0.2759 0.8001
N1_14 N 0.4783(5) 0.7444(4) 0.0503(3)
C2_14 C 0.4653(7) 0.6900(6) 0.0324(4)
H2_14 H 0.4663 0.6562 0.0528
C3_14 C 0.4745(6) 0.7920(7) 0.0213(4)
H3_14 H 0.4820 0.8316 0.0328
B1_14 B 0.6426(17) 0.9188(18) 0.1227(16)
H19_14 H 0.6605 0.9064 0.1522
H20_14 H 0.6739 0.9187 0.0987
H21_14 H 0.6256 0.9597 0.1257
B2_14 B 0.369(2) 0.572(2) 0.1376(17)
H22_14 H 0.3783 0.5479 0.1103
H23_14 H 0.3730 0.5470 0.1653
H24_14 H 0.3278 0.5880 0.1355
N7_14 N 0.5556(5) 0.8283(5) 0.1087(4)
N8_14 N 0.4429(5) 0.6754(6) 0.1389(3)
C22_14 C 0.5877(7) 0.8705(8) 0.1083(6)
C23_14 C 0.4192(8) 0.6315(7) 0.1409(5)
N9_8 N 0.5780(4) 0.6923(5) 0.1171(3)
N2_14 N 0.4303(4) 0.7217(4) 0.9110(3)
N3_8 N 0.3077(5) 0.5780(4) 0.8829(3)
N5_14 N 0.4311(5) 0.7745(5) 0.8385(3)
C1_14 C 0.4510(6) 0.6790(6) 0.9879(4)
H1_14 H 0.4436 0.6388 0.9775
C4_14 C 0.4596(6) 0.7843(6) 0.9738(4)
H4_14 H 0.4584 0.8188 0.9542
C5_14 C 0.4474(6) 0.7301(5) 0.9566(4)
C6_14 C 0.3894(6) 0.6724(5) 0.8992(4)
C7_14 C 0.3955(6) 0.6363(6) 0.8625(4)
H5_14 H 0.4276 0.6429 0.8412
C8_14 C 0.3548(6) 0.5892(6) 0.8556(5)
H6_14 H 0.3610 0.5634 0.8298
C9_14 C 0.2984(6) 0.6165(6) 0.9174(5)
H7_14 H 0.2626 0.6119 0.9352
C10_14 C 0.3378(6) 0.6632(6) 0.9291(4)
H8_14 H 0.3312 0.6879 0.9555
C11_14 C 0.4675(5) 0.7452(5) 0.8771(5)
H9_14 H 0.4949 0.7758 0.8909
H10_14 H 0.4928 0.7123 0.8641
C12_14 C 0.3323(7) 0.8156(7) 0.8614(7)
H11_14 H 0.3155 0.7759 0.8617
C13_14 C 0.2971(7) 0.8646(7) 0.8714(8)
H12_14 H 0.2569 0.8572 0.8817
C14_14 C 0.3719(9) 0.9278(8) 0.8563(7)
H13_14 H 0.3866 0.9678 0.8519
C15_14 C 0.4117(7) 0.8806(8) 0.8502(9)
H14_14 H 0.4536 0.8885 0.8456
C16_14 C 0.3914(5) 0.8239(6) 0.8509(4)
C17_14 C 0.4472(5) 0.7701(6) 0.7920(4)
C18_14 C 0.4130(6) 0.7936(7) 0.7591(5)
H15_14 H 0.3768 0.8143 0.7673
C19_14 C 0.4290(6) 0.7886(7) 0.7124(4)
H16_14 H 0.4022 0.8042 0.6897
C20_14 C 0.5133(7) 0.7391(7) 0.7314(5)
H17_14 H 0.5489 0.7185 0.7217
C21_14 C 0.5018(7) 0.7411(8) 0.7783(5)
H18_14 H 0.5290 0.7241 0.8001
N2_15 N 0.7217(4) 0.5697(4) 0.0890(3)
N5_15 N 0.7745(5) 0.5689(5) 0.1615(3)
C1_15 C 0.6790(6) 0.5490(6) 0.0121(4)
H1_15 H 0.6388 0.5564 0.0225
C4_15 C 0.7843(6) 0.5404(6) 0.0262(4)
H4_15 H 0.8188 0.5416 0.0458
C5_15 C 0.7301(5) 0.5526(6) 0.0434(4)
C6_15 C 0.6724(5) 0.6106(6) 0.1008(4)
C7_15 C 0.6363(6) 0.6045(6) 0.1375(4)
H5_15 H 0.6429 0.5724 0.1588
C8_15 C 0.5892(6) 0.6452(6) 0.1444(5)
H6_15 H 0.5634 0.6390 0.1702
C9_15 C 0.6165(6) 0.7016(6) 0.0826(5)
H7_15 H 0.6119 0.7374 0.0648
C10_15 C 0.6632(6) 0.6622(6) 0.0709(4)
H8_15 H 0.6879 0.6688 0.0445
C11_15 C 0.7452(5) 0.5325(5) 0.1229(5)
H9_15 H 0.7758 0.5051 0.1091
H10_15 H 0.7123 0.5072 0.1359
C12_15 C 0.8156(7) 0.6677(7) 0.1386(7)
H11_15 H 0.7759 0.6845 0.1383
C13_15 C 0.8646(7) 0.7029(7) 0.1286(8)
H12_15 H 0.8572 0.7431 0.1183
C14_15 C 0.9278(8) 0.6281(9) 0.1437(7)
H13_15 H 0.9678 0.6134 0.1481
C15_15 C 0.8806(8) 0.5883(7) 0.1498(9)
H14_15 H 0.8885 0.5464 0.1544
C16_15 C 0.8239(6) 0.6086(5) 0.1491(4)
C17_15 C 0.7701(6) 0.5528(5) 0.2080(4)
C18_15 C 0.7936(7) 0.5870(6) 0.2409(5)
H15_15 H 0.8143 0.6232 0.2327
C19_15 C 0.7886(7) 0.5710(6) 0.2876(4)
H16_15 H 0.8042 0.5978 0.3103
C20_15 C 0.7391(7) 0.4867(7) 0.2686(5)
H17_15 H 0.7185 0.4511 0.2783
C21_15 C 0.7411(8) 0.4982(7) 0.2217(5)
H18_15 H 0.7241 0.4710 0.1999
N1_15 N 0.7444(4) 0.5217(5) 0.9497(3)
C2_15 C 0.6900(6) 0.5347(7) 0.9676(4)
H2_15 H 0.6562 0.5337 0.9472
C3_15 C 0.7920(7) 0.5255(6) 0.9787(4)
H3_15 H 0.8316 0.5180 0.9672
B1_15 B 0.9188(18) 0.3574(17) 0.8773(16)
H19_15 H 0.9064 0.3395 0.8478
H20_15 H 0.9187 0.3261 0.9013
H21_15 H 0.9597 0.3744 0.8743
B2_15 B 0.572(2) 0.631(2) 0.8624(17)
H22_15 H 0.5479 0.6217 0.8897
H23_15 H 0.5470 0.6270 0.8347
H24_15 H 0.5880 0.6722 0.8645
N7_15 N 0.8283(5) 0.4444(5) 0.8913(4)
N8_15 N 0.6754(6) 0.5571(5) 0.8611(3)
C22_15 C 0.8705(8) 0.4123(7) 0.8917(6)
C23_15 C 0.6315(7) 0.5808(8) 0.8591(5)
N2_16 N 0.2783(4) 0.4303(4) 0.0890(3)
N5_16 N 0.2255(5) 0.4311(5) 0.1615(3)
C1_16 C 0.3210(6) 0.4510(6) 0.0121(4)
H1_16 H 0.3612 0.4436 0.0225
C4_16 C 0.2157(6) 0.4596(6) 0.0262(4)
H4_16 H 0.1812 0.4584 0.0458
C5_16 C 0.2699(5) 0.4474(6) 0.0434(4)
C6_16 C 0.3276(5) 0.3894(6) 0.1008(4)
C7_16 C 0.3637(6) 0.3955(6) 0.1375(4)
H5_16 H 0.3571 0.4276 0.1588
C8_16 C 0.4108(6) 0.3548(6) 0.1444(5)
H6_16 H 0.4366 0.3610 0.1702
C9_16 C 0.3835(6) 0.2984(6) 0.0826(5)
H7_16 H 0.3881 0.2626 0.0648
C10_16 C 0.3368(6) 0.3378(6) 0.0709(4)
H8_16 H 0.3121 0.3312 0.0445
C11_16 C 0.2548(5) 0.4675(5) 0.1229(5)
H9_16 H 0.2242 0.4949 0.1091
H10_16 H 0.2877 0.4928 0.1359
C12_16 C 0.1844(7) 0.3323(7) 0.1386(7)
H11_16 H 0.2241 0.3155 0.1383
C13_16 C 0.1354(7) 0.2971(7) 0.1286(8)
H12_16 H 0.1428 0.2569 0.1183
C14_16 C 0.0722(8) 0.3719(9) 0.1437(7)
H13_16 H 0.0322 0.3866 0.1481
C15_16 C 0.1194(8) 0.4117(7) 0.1498(9)
H14_16 H 0.1115 0.4536 0.1544
C16_16 C 0.1761(6) 0.3914(5) 0.1491(4)
C17_16 C 0.2299(6) 0.4472(5) 0.2080(4)
C18_16 C 0.2064(7) 0.4130(6) 0.2409(5)
H15_16 H 0.1857 0.3768 0.2327
C19_16 C 0.2114(7) 0.4290(6) 0.2876(4)
H16_16 H 0.1958 0.4022 0.3103
C20_16 C 0.2609(7) 0.5133(7) 0.2686(5)
H17_16 H 0.2815 0.5489 0.2783
C21_16 C 0.2589(8) 0.5018(7) 0.2217(5)
H18_16 H 0.2759 0.5290 0.1999
N1_16 N 0.2556(4) 0.4783(5) 0.9497(3)
C2_16 C 0.3100(6) 0.4653(7) 0.9676(4)
H2_16 H 0.3438 0.4663 0.9472
C3_16 C 0.2080(7) 0.4745(6) 0.9787(4)
H3_16 H 0.1684 0.4820 0.9672
B1_16 B 0.0812(18) 0.6426(17) 0.8773(16)
H19_16 H 0.0936 0.6605 0.8478
H20_16 H 0.0813 0.6739 0.9013
H21_16 H 0.0403 0.6256 0.8743
B2_16 B 0.428(2) 0.369(2) 0.8624(17)
H22_16 H 0.4521 0.3783 0.8897
H23_16 H 0.4530 0.3730 0.8347
H24_16 H 0.4120 0.3278 0.8645
N7_16 N 0.1717(5) 0.5556(5) 0.8913(4)
N8_16 N 0.3246(6) 0.4429(5) 0.8611(3)
C22_16 C 0.1295(8) 0.5877(7) 0.8917(6)
C23_16 C 0.3685(7) 0.4192(8) 0.8591(5)
loop_
_geom_bond_atom_site_label_1
_geom_bond_atom_site_label_2
_geom_bond_site_symmetry_1
_geom_bond_site_symmetry_2
Fe1 N1 1_555 1_555
N1 C2 1_555 1_555
H2 C2 1_555 1_555
C3 N1 1_555 1_555
H3 C3 1_555 1_555
B2 H22 1_555 1_555
H23 B2 1_555 1_555
H24 B2 1_555 1_555
N8 Fe1 1_555 1_555
C23 B2 1_555 1_555
N10 Fe1 1_555 1_555
N8 C23 1_555 1_555
N2 C5 1_555 1_555
N3 C8 1_555 1_555
N4 C13 1_555 1_555
N5 C11 1_555 1_555
N6 C19 1_555 1_555
C1 H1 1_555 1_555
H4 C4 1_555 1_555
C5 C1 1_555 1_555
C6 N2 1_555 1_555
C7 C6 1_555 1_555
H5 C7 1_555 1_555
C8 C7 1_555 1_555
H6 C8 1_555 1_555
C9 N3 1_555 1_555
H7 C9 1_555 1_555
C10 C6 1_555 1_555
H8 C10 1_555 1_555
C11 N2 1_555 1_555
H9 C11 1_555 1_555
H10 C11 1_555 1_555
C12 H11 1_555 1_555
C13 C12 1_555 1_555
H12 C13 1_555 1_555
C14 N4 1_555 1_555
H13 C14 1_555 1_555
C15 C14 1_555 1_555
H14 C15 1_555 1_555
C16 N5 1_555 1_555
C17 N5 1_555 1_555
C18 C17 1_555 1_555
H15 C18 1_555 1_555
C19 C18 1_555 1_555
H16 C19 1_555 1_555
Fe4 N4 1_555 1_555
C4 C5 1_555 1_555
C9 C10 1_555 1_555
C12 C16 1_555 1_555
C15 C16 1_555 1_555
B1 H19 1_555 1_555
H20 B1 1_555 1_555
H21 B1 1_555 1_555
C22 B1 1_555 1_555
N7 C22 1_555 1_555
H17 C20 1_555 1_555
H18 C21 1_555 1_555
C20 C21 1_555 1_555
B1_2 H19_2 1_555 1_555
H20_2 B1_2 1_555 1_555
H21_2 B1_2 1_555 1_555
C22_2 B1_2 1_555 1_555
N7_2 C22_2 1_555 1_555
H17_2 C20_2 1_555 1_555
H18_2 C21_2 1_555 1_555
C20_2 C21_2 1_555 1_555
Fe1_2 N1_2 1_555 1_555
N1_2 C2_2 1_555 1_555
H2_2 C2_2 1_555 1_555
C3_2 N1_2 1_555 1_555
H3_2 C3_2 1_555 1_555
B2_2 H22_2 1_555 1_555
H23_2 B2_2 1_555 1_555
H24_2 B2_2 1_555 1_555
N8_2 Fe1_2 1_555 1_555
C23_2 B2_2 1_555 1_555
N10_2 Fe1_2 1_555 1_555
N8_2 C23_2 1_555 1_555
N2_2 C5_2 1_555 1_555
N3_2 C8_2 1_555 1_555
N4_2 C13_2 1_555 1_555
N5_2 C11_2 1_555 1_555
N6_2 C19_2 1_555 1_555
C1_2 H1_2 1_555 1_555
H4_2 C4_2 1_555 1_555
C5_2 C1_2 1_555 1_555
C6_2 N2_2 1_555 1_555
C7_2 C6_2 1_555 1_555
H5_2 C7_2 1_555 1_555
C8_2 C7_2 1_555 1_555
H6_2 C8_2 1_555 1_555
C9_2 N3_2 1_555 1_555
H7_2 C9_2 1_555 1_555
C10_2 C6_2 1_555 1_555
H8_2 C10_2 1_555 1_555
C11_2 N2_2 1_555 1_555
H9_2 C11_2 1_555 1_555
H10_2 C11_2 1_555 1_555
C12_2 H11_2 1_555 1_555
C13_2 C12_2 1_555 1_555
H12_2 C13_2 1_555 1_555
C14_2 N4_2 1_555 1_555
H13_2 C14_2 1_555 1_555
C15_2 C14_2 1_555 1_555
H14_2 C15_2 1_555 1_555
C16_2 N5_2 1_555 1_555
C17_2 N5_2 1_555 1_555
C18_2 C17_2 1_555 1_555
H15_2 C18_2 1_555 1_555
C19_2 C18_2 1_555 1_555
H16_2 C19_2 1_555 1_555
Fe4_2 N4_2 1_555 1_555
C4_2 C5_2 1_555 1_555
C9_2 C10_2 1_555 1_555
C12_2 C16_2 1_555 1_555
C15_2 C16_2 1_555 1_555
H17_3 C20_3 1_555 1_555
H18_3 C21_3 1_555 1_555
C20_3 C21_3 1_555 1_555
B1_3 H19_3 1_555 1_555
H20_3 B1_3 1_555 1_555
H21_3 B1_3 1_555 1_555
C22_3 B1_3 1_555 1_555
N7_3 C22_3 1_555 1_555
N2_3 C5_3 1_555 1_555
N9_2 C8_3 1_555 1_555
N4_3 C13_3 1_555 1_555
N5_3 C11_3 1_555 1_555
N6_3 C19_3 1_555 1_555
C1_3 H1_3 1_555 1_555
H4_3 C4_3 1_555 1_555
C5_3 C1_3 1_555 1_555
C6_3 N2_3 1_555 1_555
C7_3 C6_3 1_555 1_555
H5_3 C7_3 1_555 1_555
C8_3 C7_3 1_555 1_555
H6_3 C8_3 1_555 1_555
C9_3 N9_2 1_555 1_555
H7_3 C9_3 1_555 1_555
C10_3 C6_3 1_555 1_555
H8_3 C10_3 1_555 1_555
C11_3 N2_3 1_555 1_555
H9_3 C11_3 1_555 1_555
H10_3 C11_3 1_555 1_555
C12_3 H11_3 1_555 1_555
C13_3 C12_3 1_555 1_555
H12_3 C13_3 1_555 1_555
C14_3 N4_3 1_555 1_555
H13_3 C14_3 1_555 1_555
C15_3 C14_3 1_555 1_555
H14_3 C15_3 1_555 1_555
C16_3 N5_3 1_555 1_555
C17_3 N5_3 1_555 1_555
C18_3 C17_3 1_555 1_555
H15_3 C18_3 1_555 1_555
C19_3 C18_3 1_555 1_555
H16_3 C19_3 1_555 1_555
Fe4_3 N4_3 1_555 1_555
C4_3 C5_3 1_555 1_555
C9_3 C10_3 1_555 1_555
C12_3 C16_3 1_555 1_555
C15_3 C16_3 1_555 1_555
Fe2 N1_3 1_555 1_555
N1_3 C2_3 1_555 1_555
H2_3 C2_3 1_555 1_555
C3_3 N1_3 1_555 1_555
H3_3 C3_3 1_555 1_555
B2_3 H22_3 1_555 1_555
H23_3 B2_3 1_555 1_555
H24_3 B2_3 1_555 1_555
N8_3 Fe2 1_555 1_555
C23_3 B2_3 1_555 1_555
N10_3 Fe2 1_555 1_555
N8_3 C23_3 1_555 1_555
N2_4 C5_4 1_555 1_555
N9 C8_4 1_555 1_555
N4_4 C13_4 1_555 1_555
N5_4 C11_4 1_555 1_555
N6_4 C19_4 1_555 1_555
C1_4 H1_4 1_555 1_555
H4_4 C4_4 1_555 1_555
C5_4 C1_4 1_555 1_555
C6_4 N2_4 1_555 1_555
C7_4 C6_4 1_555 1_555
H5_4 C7_4 1_555 1_555
C8_4 C7_4 1_555 1_555
H6_4 C8_4 1_555 1_555
C9_4 N9 1_555 1_555
H7_4 C9_4 1_555 1_555
C10_4 C6_4 1_555 1_555
H8_4 C10_4 1_555 1_555
C11_4 N2_4 1_555 1_555
H9_4 C11_4 1_555 1_555
H10_4 C11_4 1_555 1_555
C12_4 H11_4 1_555 1_555
C13_4 C12_4 1_555 1_555
H12_4 C13_4 1_555 1_555
C14_4 N4_4 1_555 1_555
H13_4 C14_4 1_555 1_555
C15_4 C14_4 1_555 1_555
H14_4 C15_4 1_555 1_555
C16_4 N5_4 1_555 1_555
C17_4 N5_4 1_555 1_555
C18_4 C17_4 1_555 1_555
H15_4 C18_4 1_555 1_555
C19_4 C18_4 1_555 1_555
H16_4 C19_4 1_555 1_555
Fe4_4 N4_4 1_555 1_555
C4_4 C5_4 1_555 1_555
C9_4 C10_4 1_555 1_555
C12_4 C16_4 1_555 1_555
C15_4 C16_4 1_555 1_555
Fe2_2 N1_4 1_555 1_555
N1_4 C2_4 1_555 1_555
H2_4 C2_4 1_555 1_555
C3_4 N1_4 1_555 1_555
H3_4 C3_4 1_555 1_555
B2_4 H22_4 1_555 1_555
H23_4 B2_4 1_555 1_555
H24_4 B2_4 1_555 1_555
N8_4 Fe2_2 1_555 1_555
C23_4 B2_4 1_555 1_555
N10_4 Fe2_2 1_555 1_555
N8_4 C23_4 1_555 1_555
H17_4 C20_4 1_555 1_555
H18_4 C21_4 1_555 1_555
C20_4 C21_4 1_555 1_555
B1_4 H19_4 1_555 1_555
H20_4 B1_4 1_555 1_555
H21_4 B1_4 1_555 1_555
C22_4 B1_4 1_555 1_555
N7_4 C22_4 1_555 1_555
Fe3_2 N1_5 1_555 1_555
N1_5 C2_5 1_555 1_555
N2_5 C5_5 1_555 1_555
N3_3 C8_5 1_555 1_555
N4_5 C13_5 1_555 1_555
N5_5 C11_5 1_555 1_555
N11_2 C19_5 1_555 1_555
C1_5 H1_5 1_555 1_555
C2_5 C1_5 1_555 1_555
H2_5 C2_5 1_555 1_555
C3_5 N1_5 1_555 1_555
H3_5 C3_5 1_555 1_555
C4_5 C3_5 1_555 1_555
H4_5 C4_5 1_555 1_555
C5_5 C1_5 1_555 1_555
C6_5 N2_5 1_555 1_555
C7_5 C6_5 1_555 1_555
H5_5 C7_5 1_555 1_555
C8_5 C7_5 1_555 1_555
H6_5 C8_5 1_555 1_555
C9_5 N3_3 1_555 1_555
H7_5 C9_5 1_555 1_555
C10_5 C6_5 1_555 1_555
H8_5 C10_5 1_555 1_555
C11_5 N2_5 1_555 1_555
H9_5 C11_5 1_555 1_555
H10_5 C11_5 1_555 1_555
C12_5 H11_5 1_555 1_555
C13_5 C12_5 1_555 1_555
H12_5 C13_5 1_555 1_555
C14_5 N4_5 1_555 1_555
H13_5 C14_5 1_555 1_555
C15_5 C14_5 1_555 1_555
H14_5 C15_5 1_555 1_555
C16_5 N5_5 1_555 1_555
C17_5 N5_5 1_555 1_555
C18_5 C17_5 1_555 1_555
H15_5 C18_5 1_555 1_555
C19_5 C18_5 1_555 1_555
H16_5 C19_5 1_555 1_555
B2_5 H22_5 1_555 1_555
H23_5 B2_5 1_555 1_555
H24_5 B2_5 1_555 1_555
N8_5 Fe3_2 1_555 1_555
C23_5 B2_5 1_555 1_555
Fe4_5 N4_5 1_555 1_555
N10_5 Fe3_2 1_555 1_555
C4_5 C5_5 1_555 1_555
C9_5 C10_5 1_555 1_555
C12_5 C16_5 1_555 1_555
C15_5 C16_5 1_555 1_555
N8_5 C23_5 1_555 1_555
H17_5 C20_5 1_555 1_555
H18_5 C21_5 1_555 1_555
B1_5 H19_5 1_555 1_555
H20_5 B1_5 1_555 1_555
H21_5 B1_5 1_555 1_555
C22_5 B1_5 1_555 1_555
C20_5 C21_5 1_555 1_555
N7_5 C22_5 1_555 1_555
H17_6 C20_6 1_555 1_555
H18_6 C21_6 1_555 1_555
B1_6 H19_6 1_555 1_555
H20_6 B1_6 1_555 1_555
H21_6 B1_6 1_555 1_555
C22_6 B1_6 1_555 1_555
C20_6 C21_6 1_555 1_555
N7_6 C22_6 1_555 1_555
Fe3 N1_6 1_555 1_555
N1_6 C2_6 1_555 1_555
N2_6 C5_6 1_555 1_555
N3_4 C8_6 1_555 1_555
N4_6 C13_6 1_555 1_555
N5_6 C11_6 1_555 1_555
N11 C19_6 1_555 1_555
C1_6 H1_6 1_555 1_555
C2_6 C1_6 1_555 1_555
H2_6 C2_6 1_555 1_555
C3_6 N1_6 1_555 1_555
H3_6 C3_6 1_555 1_555
C4_6 C3_6 1_555 1_555
H4_6 C4_6 1_555 1_555
C5_6 C1_6 1_555 1_555
C6_6 N2_6 1_555 1_555
C7_6 C6_6 1_555 1_555
H5_6 C7_6 1_555 1_555
C8_6 C7_6 1_555 1_555
H6_6 C8_6 1_555 1_555
C9_6 N3_4 1_555 1_555
H7_6 C9_6 1_555 1_555
C10_6 C6_6 1_555 1_555
H8_6 C10_6 1_555 1_555
C11_6 N2_6 1_555 1_555
H9_6 C11_6 1_555 1_555
H10_6 C11_6 1_555 1_555
C12_6 H11_6 1_555 1_555
C13_6 C12_6 1_555 1_555
H12_6 C13_6 1_555 1_555
C14_6 N4_6 1_555 1_555
H13_6 C14_6 1_555 1_555
C15_6 C14_6 1_555 1_555
H14_6 C15_6 1_555 1_555
C16_6 N5_6 1_555 1_555
C17_6 N5_6 1_555 1_555
C18_6 C17_6 1_555 1_555
H15_6 C18_6 1_555 1_555
C19_6 C18_6 1_555 1_555
H16_6 C19_6 1_555 1_555
B2_6 H22_6 1_555 1_555
H23_6 B2_6 1_555 1_555
H24_6 B2_6 1_555 1_555
N8_6 Fe3 1_555 1_555
C23_6 B2_6 1_555 1_555
Fe4_6 N4_6 1_555 1_555
N10_6 Fe3 1_555 1_555
C4_6 C5_6 1_555 1_555
C9_6 C10_6 1_555 1_555
C12_6 C16_6 1_555 1_555
C15_6 C16_6 1_555 1_555
N8_6 C23_6 1_555 1_555
Fe3_3 N1_7 1_555 1_555
N1_7 C2_7 1_555 1_555
N2_7 C5_7 1_555 1_555
N9_4 C8_7 1_555 1_555
N4_7 C13_7 1_555 1_555
N5_7 C11_7 1_555 1_555
N11_3 C19_7 1_555 1_555
C1_7 H1_7 1_555 1_555
C2_7 C1_7 1_555 1_555
H2_7 C2_7 1_555 1_555
C3_7 N1_7 1_555 1_555
H3_7 C3_7 1_555 1_555
C4_7 C3_7 1_555 1_555
H4_7 C4_7 1_555 1_555
C5_7 C1_7 1_555 1_555
C6_7 N2_7 1_555 1_555
C7_7 C6_7 1_555 1_555
H5_7 C7_7 1_555 1_555
C8_7 C7_7 1_555 1_555
H6_7 C8_7 1_555 1_555
C9_7 N9_4 1_555 1_555
H7_7 C9_7 1_555 1_555
C10_7 C6_7 1_555 1_555
H8_7 C10_7 1_555 1_555
C11_7 N2_7 1_555 1_555
H9_7 C11_7 1_555 1_555
H10_7 C11_7 1_555 1_555
C12_7 H11_7 1_555 1_555
C13_7 C12_7 1_555 1_555
H12_7 C13_7 1_555 1_555
C14_7 N4_7 1_555 1_555
H13_7 C14_7 1_555 1_555
C15_7 C14_7 1_555 1_555
H14_7 C15_7 1_555 1_555
C16_7 N5_7 1_555 1_555
C17_7 N5_7 1_555 1_555
C18_7 C17_7 1_555 1_555
H15_7 C18_7 1_555 1_555
C19_7 C18_7 1_555 1_555
H16_7 C19_7 1_555 1_555
B2_7 H22_7 1_555 1_555
H23_7 B2_7 1_555 1_555
H24_7 B2_7 1_555 1_555
N8_7 Fe3_3 1_555 1_555
C23_7 B2_7 1_555 1_555
Fe4_7 N4_7 1_555 1_555
N10_7 Fe3_3 1_555 1_555
C4_7 C5_7 1_555 1_555
C9_7 C10_7 1_555 1_555
C12_7 C16_7 1_555 1_555
C15_7 C16_7 1_555 1_555
N8_7 C23_7 1_555 1_555
H17_7 C20_7 1_555 1_555
H18_7 C21_7 1_555 1_555
B1_7 H19_7 1_555 1_555
H20_7 B1_7 1_555 1_555
H21_7 B1_7 1_555 1_555
C22_7 B1_7 1_555 1_555
C20_7 C21_7 1_555 1_555
N7_7 C22_7 1_555 1_555
H17_8 C20_8 1_555 1_555
H18_8 C21_8 1_555 1_555
B1_8 H19_8 1_555 1_555
H20_8 B1_8 1_555 1_555
H21_8 B1_8 1_555 1_555
C22_8 B1_8 1_555 1_555
C20_8 C21_8 1_555 1_555
N7_8 C22_8 1_555 1_555
Fe3_4 N1_8 1_555 1_555
N1_8 C2_8 1_555 1_555
N2_8 C5_8 1_555 1_555
N9_3 C8_8 1_555 1_555
N4_8 C13_8 1_555 1_555
N5_8 C11_8 1_555 1_555
N11_4 C19_8 1_555 1_555
C1_8 H1_8 1_555 1_555
C2_8 C1_8 1_555 1_555
H2_8 C2_8 1_555 1_555
C3_8 N1_8 1_555 1_555
H3_8 C3_8 1_555 1_555
C4_8 C3_8 1_555 1_555
H4_8 C4_8 1_555 1_555
C5_8 C1_8 1_555 1_555
C6_8 N2_8 1_555 1_555
C7_8 C6_8 1_555 1_555
H5_8 C7_8 1_555 1_555
C8_8 C7_8 1_555 1_555
H6_8 C8_8 1_555 1_555
C9_8 N9_3 1_555 1_555
H7_8 C9_8 1_555 1_555
C10_8 C6_8 1_555 1_555
H8_8 C10_8 1_555 1_555
C11_8 N2_8 1_555 1_555
H9_8 C11_8 1_555 1_555
H10_8 C11_8 1_555 1_555
C12_8 H11_8 1_555 1_555
C13_8 C12_8 1_555 1_555
H12_8 C13_8 1_555 1_555
C14_8 N4_8 1_555 1_555
H13_8 C14_8 1_555 1_555
C15_8 C14_8 1_555 1_555
H14_8 C15_8 1_555 1_555
C16_8 N5_8 1_555 1_555
C17_8 N5_8 1_555 1_555
C18_8 C17_8 1_555 1_555
H15_8 C18_8 1_555 1_555
C19_8 C18_8 1_555 1_555
H16_8 C19_8 1_555 1_555
B2_8 H22_8 1_555 1_555
H23_8 B2_8 1_555 1_555
H24_8 B2_8 1_555 1_555
N8_8 Fe3_4 1_555 1_555
C23_8 B2_8 1_555 1_555
Fe4_8 N4_8 1_555 1_555
N10_8 Fe3_4 1_555 1_555
C4_8 C5_8 1_555 1_555
C9_8 C10_8 1_555 1_555
C12_8 C16_8 1_555 1_555
C15_8 C16_8 1_555 1_555
N8_8 C23_8 1_555 1_555
Fe4_8 N1_9 1_555 1_555
N1_9 C2_9 1_555 1_555
N2_9 C5_9 1_555 1_555
N3_5 C8_9 1_555 1_555
N10_8 C13_9 1_555 1_555
N5_9 C11_9 1_555 1_555
N6_5 C19_9 1_555 1_555
C1_9 H1_9 1_555 1_555
C2_9 C1_9 1_555 1_555
H2_9 C2_9 1_555 1_555
C3_9 N1_9 1_555 1_555
H3_9 C3_9 1_555 1_555
C4_9 C3_9 1_555 1_555
H4_9 C4_9 1_555 1_555
C5_9 C1_9 1_555 1_555
C6_9 N2_9 1_555 1_555
C7_9 C6_9 1_555 1_555
H5_9 C7_9 1_555 1_555
C8_9 C7_9 1_555 1_555
H6_9 C8_9 1_555 1_555
C9_9 N3_5 1_555 1_555
H7_9 C9_9 1_555 1_555
C10_9 C6_9 1_555 1_555
H8_9 C10_9 1_555 1_555
C11_9 N2_9 1_555 1_555
H9_9 C11_9 1_555 1_555
H10_9 C11_9 1_555 1_555
C12_9 H11_9 1_555 1_555
C13_9 C12_9 1_555 1_555
H12_9 C13_9 1_555 1_555
C14_9 N10_8 1_555 1_555
H13_9 C14_9 1_555 1_555
C15_9 C14_9 1_555 1_555
H14_9 C15_9 1_555 1_555
C16_9 N5_9 1_555 1_555
C17_9 N5_9 1_555 1_555
C18_9 C17_9 1_555 1_555
H15_9 C18_9 1_555 1_555
C19_9 C18_9 1_555 1_555
H16_9 C19_9 1_555 1_555
C20_9 N6_5 1_555 1_555
H17_9 C20_9 1_555 1_555
C21_9 C17_9 1_555 1_555
H18_9 C21_9 1_555 1_555
B1_9 H19_9 1_555 1_555
H20_9 B1_9 1_555 1_555
H21_9 B1_9 1_555 1_555
B2_9 H22_9 1_555 1_555
H23_9 B2_9 1_555 1_555
H24_9 B2_9 1_555 1_555
N7_9 Fe4_8 1_555 1_555
N8_9 Fe4_8 1_555 1_555
C22_9 B1_9 1_555 1_555
C23_9 B2_9 1_555 1_555
Fe4_6 N3_5 1_555 1_555
Fe4_3 N6_5 1_555 1_555
N9_5 Fe4_8 1_555 1_555
N11_5 Fe4_8 1_555 1_555
C4_9 C5_9 1_555 1_555
C9_9 C10_9 1_555 1_555
C12_9 C16_9 1_555 1_555
C15_9 C16_9 1_555 1_555
C20_9 C21_9 1_555 1_555
N7_9 C22_9 1_555 1_555
N8_9 C23_9 1_555 1_555
Fe4_7 N1_10 1_555 1_555
N1_10 C2_10 1_555 1_555
N2_10 C5_10 1_555 1_555
N3_6 C8_10 1_555 1_555
N10_7 C13_10 1_555 1_555
N5_10 C11_10 1_555 1_555
N6_6 C19_10 1_555 1_555
C1_10 H1_10 1_555 1_555
C2_10 C1_10 1_555 1_555
H2_10 C2_10 1_555 1_555
C3_10 N1_10 1_555 1_555
H3_10 C3_10 1_555 1_555
C4_10 C3_10 1_555 1_555
H4_10 C4_10 1_555 1_555
C5_10 C1_10 1_555 1_555
C6_10 N2_10 1_555 1_555
C7_10 C6_10 1_555 1_555
H5_10 C7_10 1_555 1_555
C8_10 C7_10 1_555 1_555
H6_10 C8_10 1_555 1_555
C9_10 N3_6 1_555 1_555
H7_10 C9_10 1_555 1_555
C10_10 C6_10 1_555 1_555
H8_10 C10_10 1_555 1_555
C11_10 N2_10 1_555 1_555
H9_10 C11_10 1_555 1_555
H10_10 C11_10 1_555 1_555
C12_10 H11_10 1_555 1_555
C13_10 C12_10 1_555 1_555
H12_10 C13_10 1_555 1_555
C14_10 N10_7 1_555 1_555
H13_10 C14_10 1_555 1_555
C15_10 C14_10 1_555 1_555
H14_10 C15_10 1_555 1_555
C16_10 N5_10 1_555 1_555
C17_10 N5_10 1_555 1_555
C18_10 C17_10 1_555 1_555
H15_10 C18_10 1_555 1_555
C19_10 C18_10 1_555 1_555
H16_10 C19_10 1_555 1_555
C20_10 N6_6 1_555 1_555
H17_10 C20_10 1_555 1_555
C21_10 C17_10 1_555 1_555
H18_10 C21_10 1_555 1_555
B1_10 H19_10 1_555 1_555
H20_10 B1_10 1_555 1_555
H21_10 B1_10 1_555 1_555
B2_10 H22_10 1_555 1_555
H23_10 B2_10 1_555 1_555
H24_10 B2_10 1_555 1_555
N7_10 Fe4_7 1_555 1_555
N8_10 Fe4_7 1_555 1_555
C22_10 B1_10 1_555 1_555
C23_10 B2_10 1_555 1_555
Fe4_5 N3_6 1_555 1_555
Fe4_4 N6_6 1_555 1_555
N9_6 Fe4_7 1_555 1_555
N11_6 Fe4_7 1_555 1_555
C4_10 C5_10 1_555 1_555
C9_10 C10_10 1_555 1_555
C12_10 C16_10 1_555 1_555
C15_10 C16_10 1_555 1_555
C20_10 C21_10 1_555 1_555
N7_10 C22_10 1_555 1_555
N8_10 C23_10 1_555 1_555
Fe4_6 N1_11 1_555 1_555
N1_11 C2_11 1_555 1_555
N2_11 C5_11 1_555 1_555
N9_6 C8_11 1_555 1_555
N10_6 C13_11 1_555 1_555
N5_11 C11_11 1_555 1_555
N6_7 C19_11 1_555 1_555
C1_11 H1_11 1_555 1_555
C2_11 C1_11 1_555 1_555
H2_11 C2_11 1_555 1_555
C3_11 N1_11 1_555 1_555
H3_11 C3_11 1_555 1_555
C4_11 C3_11 1_555 1_555
H4_11 C4_11 1_555 1_555
C5_11 C1_11 1_555 1_555
C6_11 N2_11 1_555 1_555
C7_11 C6_11 1_555 1_555
H5_11 C7_11 1_555 1_555
C8_11 C7_11 1_555 1_555
H6_11 C8_11 1_555 1_555
C9_11 N9_6 1_555 1_555
H7_11 C9_11 1_555 1_555
C10_11 C6_11 1_555 1_555
H8_11 C10_11 1_555 1_555
C11_11 N2_11 1_555 1_555
H9_11 C11_11 1_555 1_555
H10_11 C11_11 1_555 1_555
C12_11 H11_11 1_555 1_555
C13_11 C12_11 1_555 1_555
H12_11 C13_11 1_555 1_555
C14_11 N10_6 1_555 1_555
H13_11 C14_11 1_555 1_555
C15_11 C14_11 1_555 1_555
H14_11 C15_11 1_555 1_555
C16_11 N5_11 1_555 1_555
C17_11 N5_11 1_555 1_555
C18_11 C17_11 1_555 1_555
H15_11 C18_11 1_555 1_555
C19_11 C18_11 1_555 1_555
H16_11 C19_11 1_555 1_555
C20_11 N6_7 1_555 1_555
H17_11 C20_11 1_555 1_555
C21_11 C17_11 1_555 1_555
H18_11 C21_11 1_555 1_555
B1_11 H19_11 1_555 1_555
H20_11 B1_11 1_555 1_555
H21_11 B1_11 1_555 1_555
B2_11 H22_11 1_555 1_555
H23_11 B2_11 1_555 1_555
H24_11 B2_11 1_555 1_555
N7_11 Fe4_6 1_555 1_555
N8_11 Fe4_6 1_555 1_555
C22_11 B1_11 1_555 1_555
C23_11 B2_11 1_555 1_555
Fe4_2 N6_7 1_555 1_555
N11_7 Fe4_6 1_555 1_555
C4_11 C5_11 1_555 1_555
C9_11 C10_11 1_555 1_555
C12_11 C16_11 1_555 1_555
C15_11 C16_11 1_555 1_555
C20_11 C21_11 1_555 1_555
N7_11 C22_11 1_555 1_555
N8_11 C23_11 1_555 1_555
Fe4_5 N1_12 1_555 1_555
N1_12 C2_12 1_555 1_555
N2_12 C5_12 1_555 1_555
N9_5 C8_12 1_555 1_555
N10_5 C13_12 1_555 1_555
N5_12 C11_12 1_555 1_555
N6_8 C19_12 1_555 1_555
C1_12 H1_12 1_555 1_555
C2_12 C1_12 1_555 1_555
H2_12 C2_12 1_555 1_555
C3_12 N1_12 1_555 1_555
H3_12 C3_12 1_555 1_555
C4_12 C3_12 1_555 1_555
H4_12 C4_12 1_555 1_555
C5_12 C1_12 1_555 1_555
C6_12 N2_12 1_555 1_555
C7_12 C6_12 1_555 1_555
H5_12 C7_12 1_555 1_555
C8_12 C7_12 1_555 1_555
H6_12 C8_12 1_555 1_555
C9_12 N9_5 1_555 1_555
H7_12 C9_12 1_555 1_555
C10_12 C6_12 1_555 1_555
H8_12 C10_12 1_555 1_555
C11_12 N2_12 1_555 1_555
H9_12 C11_12 1_555 1_555
H10_12 C11_12 1_555 1_555
C12_12 H11_12 1_555 1_555
C13_12 C12_12 1_555 1_555
H12_12 C13_12 1_555 1_555
C14_12 N10_5 1_555 1_555
H13_12 C14_12 1_555 1_555
C15_12 C14_12 1_555 1_555
H14_12 C15_12 1_555 1_555
C16_12 N5_12 1_555 1_555
C17_12 N5_12 1_555 1_555
C18_12 C17_12 1_555 1_555
H15_12 C18_12 1_555 1_555
C19_12 C18_12 1_555 1_555
H16_12 C19_12 1_555 1_555
C20_12 N6_8 1_555 1_555
H17_12 C20_12 1_555 1_555
C21_12 C17_12 1_555 1_555
H18_12 C21_12 1_555 1_555
B1_12 H19_12 1_555 1_555
H20_12 B1_12 1_555 1_555
H21_12 B1_12 1_555 1_555
B2_12 H22_12 1_555 1_555
H23_12 B2_12 1_555 1_555
H24_12 B2_12 1_555 1_555
N7_12 Fe4_5 1_555 1_555
N8_12 Fe4_5 1_555 1_555
C22_12 B1_12 1_555 1_555
C23_12 B2_12 1_555 1_555
Fe4 N6_8 1_555 1_555
N11_8 Fe4_5 1_555 1_555
C4_12 C5_12 1_555 1_555
C9_12 C10_12 1_555 1_555
C12_12 C16_12 1_555 1_555
C15_12 C16_12 1_555 1_555
C20_12 C21_12 1_555 1_555
N7_12 C22_12 1_555 1_555
N8_12 C23_12 1_555 1_555
Fe4_4 N1_13 1_555 1_555
N1_13 C2_13 1_555 1_555
H2_13 C2_13 1_555 1_555
C3_13 N1_13 1_555 1_555
H3_13 C3_13 1_555 1_555
B1_13 H19_13 1_555 1_555
H20_13 B1_13 1_555 1_555
H21_13 B1_13 1_555 1_555
B2_13 H22_13 1_555 1_555
H23_13 B2_13 1_555 1_555
H24_13 B2_13 1_555 1_555
N7_13 Fe4_4 1_555 1_555
N8_13 Fe4_4 1_555 1_555
C22_13 B1_13 1_555 1_555
C23_13 B2_13 1_555 1_555
N9_7 Fe4_4 1_555 1_555
N7_13 C22_13 1_555 1_555
N8_13 C23_13 1_555 1_555
N2_13 C5_13 1_555 1_555
N3_7 C8_13 1_555 1_555
N10_4 C13_13 1_555 1_555
N5_13 C11_13 1_555 1_555
N11_6 C19_13 1_555 1_555
C1_13 H1_13 1_555 1_555
H4_13 C4_13 1_555 1_555
C5_13 C1_13 1_555 1_555
C6_13 N2_13 1_555 1_555
C7_13 C6_13 1_555 1_555
H5_13 C7_13 1_555 1_555
C8_13 C7_13 1_555 1_555
H6_13 C8_13 1_555 1_555
C9_13 N3_7 1_555 1_555
H7_13 C9_13 1_555 1_555
C10_13 C6_13 1_555 1_555
H8_13 C10_13 1_555 1_555
C11_13 N2_13 1_555 1_555
H9_13 C11_13 1_555 1_555
H10_13 C11_13 1_555 1_555
C12_13 H11_13 1_555 1_555
C13_13 C12_13 1_555 1_555
H12_13 C13_13 1_555 1_555
C14_13 N10_4 1_555 1_555
H13_13 C14_13 1_555 1_555
C15_13 C14_13 1_555 1_555
H14_13 C15_13 1_555 1_555
C16_13 N5_13 1_555 1_555
C17_13 N5_13 1_555 1_555
C18_13 C17_13 1_555 1_555
H15_13 C18_13 1_555 1_555
C19_13 C18_13 1_555 1_555
H16_13 C19_13 1_555 1_555
C20_13 N11_6 1_555 1_555
H17_13 C20_13 1_555 1_555
C21_13 C17_13 1_555 1_555
H18_13 C21_13 1_555 1_555
Fe4_2 N3_7 1_555 1_555
C4_13 C5_13 1_555 1_555
C9_13 C10_13 1_555 1_555
C12_13 C16_13 1_555 1_555
C15_13 C16_13 1_555 1_555
C20_13 C21_13 1_555 1_555
Fe4_3 N1_14 1_555 1_555
N1_14 C2_14 1_555 1_555
H2_14 C2_14 1_555 1_555
C3_14 N1_14 1_555 1_555
H3_14 C3_14 1_555 1_555
B1_14 H19_14 1_555 1_555
H20_14 B1_14 1_555 1_555
H21_14 B1_14 1_555 1_555
B2_14 H22_14 1_555 1_555
H23_14 B2_14 1_555 1_555
H24_14 B2_14 1_555 1_555
N7_14 Fe4_3 1_555 1_555
N8_14 Fe4_3 1_555 1_555
C22_14 B1_14 1_555 1_555
C23_14 B2_14 1_555 1_555
N9_8 Fe4_3 1_555 1_555
N7_14 C22_14 1_555 1_555
N8_14 C23_14 1_555 1_555
N2_14 C5_14 1_555 1_555
N3_8 C8_14 1_555 1_555
N10_3 C13_14 1_555 1_555
N5_14 C11_14 1_555 1_555
N11_5 C19_14 1_555 1_555
C1_14 H1_14 1_555 1_555
H4_14 C4_14 1_555 1_555
C5_14 C1_14 1_555 1_555
C6_14 N2_14 1_555 1_555
C7_14 C6_14 1_555 1_555
H5_14 C7_14 1_555 1_555
C8_14 C7_14 1_555 1_555
H6_14 C8_14 1_555 1_555
C9_14 N3_8 1_555 1_555
H7_14 C9_14 1_555 1_555
C10_14 C6_14 1_555 1_555
H8_14 C10_14 1_555 1_555
C11_14 N2_14 1_555 1_555
H9_14 C11_14 1_555 1_555
H10_14 C11_14 1_555 1_555
C12_14 H11_14 1_555 1_555
C13_14 C12_14 1_555 1_555
H12_14 C13_14 1_555 1_555
C14_14 N10_3 1_555 1_555
H13_14 C14_14 1_555 1_555
C15_14 C14_14 1_555 1_555
H14_14 C15_14 1_555 1_555
C16_14 N5_14 1_555 1_555
C17_14 N5_14 1_555 1_555
C18_14 C17_14 1_555 1_555
H15_14 C18_14 1_555 1_555
C19_14 C18_14 1_555 1_555
H16_14 C19_14 1_555 1_555
C20_14 N11_5 1_555 1_555
H17_14 C20_14 1_555 1_555
C21_14 C17_14 1_555 1_555
H18_14 C21_14 1_555 1_555
Fe4 N3_8 1_555 1_555
C4_14 C5_14 1_555 1_555
C9_14 C10_14 1_555 1_555
C12_14 C16_14 1_555 1_555
C15_14 C16_14 1_555 1_555
C20_14 C21_14 1_555 1_555
N2_15 C5_15 1_555 1_555
N9_8 C8_15 1_555 1_555
N10_2 C13_15 1_555 1_555
N5_15 C11_15 1_555 1_555
N11_7 C19_15 1_555 1_555
C1_15 H1_15 1_555 1_555
H4_15 C4_15 1_555 1_555
C5_15 C1_15 1_555 1_555
C6_15 N2_15 1_555 1_555
C7_15 C6_15 1_555 1_555
H5_15 C7_15 1_555 1_555
C8_15 C7_15 1_555 1_555
H6_15 C8_15 1_555 1_555
C9_15 N9_8 1_555 1_555
H7_15 C9_15 1_555 1_555
C10_15 C6_15 1_555 1_555
H8_15 C10_15 1_555 1_555
C11_15 N2_15 1_555 1_555
H9_15 C11_15 1_555 1_555
H10_15 C11_15 1_555 1_555
C12_15 H11_15 1_555 1_555
C13_15 C12_15 1_555 1_555
H12_15 C13_15 1_555 1_555
C14_15 N10_2 1_555 1_555
H13_15 C14_15 1_555 1_555
C15_15 C14_15 1_555 1_555
H14_15 C15_15 1_555 1_555
C16_15 N5_15 1_555 1_555
C17_15 N5_15 1_555 1_555
C18_15 C17_15 1_555 1_555
H15_15 C18_15 1_555 1_555
C19_15 C18_15 1_555 1_555
H16_15 C19_15 1_555 1_555
C20_15 N11_7 1_555 1_555
H17_15 C20_15 1_555 1_555
C21_15 C17_15 1_555 1_555
H18_15 C21_15 1_555 1_555
C4_15 C5_15 1_555 1_555
C9_15 C10_15 1_555 1_555
C12_15 C16_15 1_555 1_555
C15_15 C16_15 1_555 1_555
C20_15 C21_15 1_555 1_555
Fe4_2 N1_15 1_555 1_555
N1_15 C2_15 1_555 1_555
H2_15 C2_15 1_555 1_555
C3_15 N1_15 1_555 1_555
H3_15 C3_15 1_555 1_555
B1_15 H19_15 1_555 1_555
H20_15 B1_15 1_555 1_555
H21_15 B1_15 1_555 1_555
B2_15 H22_15 1_555 1_555
H23_15 B2_15 1_555 1_555
H24_15 B2_15 1_555 1_555
N7_15 Fe4_2 1_555 1_555
N8_15 Fe4_2 1_555 1_555
C22_15 B1_15 1_555 1_555
C23_15 B2_15 1_555 1_555
N7_15 C22_15 1_555 1_555
N8_15 C23_15 1_555 1_555
N2_16 C5_16 1_555 1_555
N9_7 C8_16 1_555 1_555
N10 C13_16 1_555 1_555
N5_16 C11_16 1_555 1_555
N11_8 C19_16 1_555 1_555
C1_16 H1_16 1_555 1_555
H4_16 C4_16 1_555 1_555
C5_16 C1_16 1_555 1_555
C6_16 N2_16 1_555 1_555
C7_16 C6_16 1_555 1_555
H5_16 C7_16 1_555 1_555
C8_16 C7_16 1_555 1_555
H6_16 C8_16 1_555 1_555
C9_16 N9_7 1_555 1_555
H7_16 C9_16 1_555 1_555
C10_16 C6_16 1_555 1_555
H8_16 C10_16 1_555 1_555
C11_16 N2_16 1_555 1_555
H9_16 C11_16 1_555 1_555
H10_16 C11_16 1_555 1_555
C12_16 H11_16 1_555 1_555
C13_16 C12_16 1_555 1_555
H12_16 C13_16 1_555 1_555
C14_16 N10 1_555 1_555
H13_16 C14_16 1_555 1_555
C15_16 C14_16 1_555 1_555
H14_16 C15_16 1_555 1_555
C16_16 N5_16 1_555 1_555
C17_16 N5_16 1_555 1_555
C18_16 C17_16 1_555 1_555
H15_16 C18_16 1_555 1_555
C19_16 C18_16 1_555 1_555
H16_16 C19_16 1_555 1_555
C20_16 N11_8 1_555 1_555
H17_16 C20_16 1_555 1_555
C21_16 C17_16 1_555 1_555
H18_16 C21_16 1_555 1_555
C4_16 C5_16 1_555 1_555
C9_16 C10_16 1_555 1_555
C12_16 C16_16 1_555 1_555
C15_16 C16_16 1_555 1_555
C20_16 C21_16 1_555 1_555
Fe4 N1_16 1_555 1_555
N1_16 C2_16 1_555 1_555
H2_16 C2_16 1_555 1_555
C3_16 N1_16 1_555 1_555
H3_16 C3_16 1_555 1_555
B1_16 H19_16 1_555 1_555
H20_16 B1_16 1_555 1_555
H21_16 B1_16 1_555 1_555
B2_16 H22_16 1_555 1_555
H23_16 B2_16 1_555 1_555
H24_16 B2_16 1_555 1_555
N7_16 Fe4 1_555 1_555
N8_16 Fe4 1_555 1_555
C22_16 B1_16 1_555 1_555
C23_16 B2_16 1_555 1_555
N7_16 C22_16 1_555 1_555
N8_16 C23_16 1_555 1_555

#END
