
###############################################################################
#
# This file contains modified crystal structure data generated from the
# MOF subset of the Cambridge Structural Database (CSD) v543 
# hosted by the Cambridge Crystallographic Data Centre (CCDC).
#
# This work is licensed under the Creative Commons
# Attribution-NonCommercial-ShareAlike 4.0 International License.
# To view a copy of this license, visit
# http://creativecommons.org/licenses/by-nc-sa/4.0/
# or send a letter to
# Creative Commons, PO Box 1866, Mountain View, CA 94042, USA.
#
# CIF created using the CSD Python API on 29 September 2022
# The structure has been converted into the P1 space group
# The structure has a 3D framework
# The original CSD entry ZEYRIH is in the orthorhombic crystal system
# The original CSD entry ZEYRIH is in a Sohncke space group
# The framework has been calculated to contain at least 10.0% void space
# The void calculation uses a probe of radius 1.32A, grid spacing 0.4
# H atom positions have been added when not included in the experimental data
# Generated hydrogen atom positions removed from atoms on special positions
#
###############################################################################

data_ZEYRIH
_chemical_formula_moiety         '(C776 H672 Cd22 O264)n'
_symmetry_cell_setting           triclinic
_symmetry_space_group_name_H-M   'P 1'
_symmetry_Int_Tables_number      1
_space_group_name_Hall           'P 1'
loop_
_symmetry_equiv_pos_site_id
_symmetry_equiv_pos_as_xyz
1 x,y,z
_cell_length_a                   27.4001(12)
_cell_length_b                   36.948(2)
_cell_length_c                   26.1250(12)
_cell_angle_alpha                90
_cell_angle_beta                 90
_cell_angle_gamma                90
_cell_volume                     26448.4
loop_
_atom_site_label
_atom_site_type_symbol
_atom_site_fract_x
_atom_site_fract_y
_atom_site_fract_z
O17 O 0.3642(6) 0.2505(7) 0.0782(9)
Cd1 Cd 0.250000 0.250000 0.00829(5)
Cd2 Cd 0.500000 0.21116(3) 0.000000
Cd3 Cd 0.39903(10) 0.26085(11) 0.01893(10)
O36 O 0.5394(4) 0.2487(3) 0.0511(4)
O38 O 0.4656(4) 0.2715(3) 0.0745(4)
O40 O 0.4784(5) 0.1678(3) 0.0618(4)
O43 O 0.4215(5) 0.1979(3) 0.0247(4)
O46 O 0.2871(6) 0.2882(4) 0.0558(5)
O47 O 0.2129(6) 0.2118(4) 0.0558(5)
Cd10 Cd 0.000000 0.71116(3) 0.000000
C1 C 0.4883(6) 0.2698(5) 0.9259(6)
C2 C 0.4615(6) 0.2959(6) 0.8871(9)
H1 H 0.469297 0.320823 0.895325
H2 H 0.472735 0.291027 0.852602
C3 C 0.3839(5) 0.3129(4) 0.8629(6)
C4 C 0.3329(5) 0.3088(3) 0.8708(6)
H3 H 0.321481 0.291529 0.893755
C5 C 0.3000(6) 0.3306(4) 0.8445(6)
H4 H 0.266632 0.326607 0.847777
C6 C 0.3175(4) 0.3590(3) 0.8125(5)
C7 C 0.3683(5) 0.3624(4) 0.8049(6)
H5 H 0.379947 0.380306 0.783139
C8 C 0.4012(5) 0.3395(5) 0.8292(7)
H6 H 0.434538 0.341897 0.823234
C9 C 0.250000 0.3630(4) 0.750000
H7 H 0.250002 0.337795 0.749999
C10 C 0.2822(4) 0.3804(3) 0.7811(5)
C11 C 0.2813(6) 0.4194(4) 0.7821(6)
C12 C 0.250000 0.4382(5) 0.750000
C13 C 0.3459(6) 0.4606(4) 0.8011(6)
H8 H 0.352023 0.464527 0.766495
H9 H 0.364534 0.472376 0.825709
C14 C 0.250000 0.4790(4) 0.750000
C15 C 0.2193(5) 0.4965(4) 0.7841(5)
C16 C 0.2023(6) 0.4784(4) 0.8678(5)
H10 H 0.185441 0.497904 0.884429
H11 H 0.236863 0.482130 0.870487
H12 H 0.193736 0.455924 0.883950
C17 C 0.2171(6) 0.5345(3) 0.7829(5)
C18 C 0.250000 0.5533(5) 0.750000
H13 H 0.250000 0.578484 0.749999
C19 C 0.1825(8) 0.5569(3) 0.8146(5)
C20 C 0.1368(6) 0.5491(4) 0.8200(5)
H14 H 0.125662 0.527401 0.806138
C21 C 0.1028(7) 0.5711(4) 0.8453(6)
H15 H 0.069743 0.565461 0.846823
C22 C 0.1226(7) 0.6030(5) 0.8686(7)
C23 C 0.1730(8) 0.6106(4) 0.8623(7)
H16 H 0.186149 0.631400 0.876999
C24 C 0.1992(7) 0.5905(5) 0.8382(7)
H17 H 0.231875 0.596816 0.834482
C25 C 0.1037(8) 0.6550(5) 0.9182(9)
H18 H 0.128265 0.646794 0.942296
H19 H 0.119473 0.671575 0.894591
C26 C 0.0663(6) 0.6745(4) 0.9460(5)
C27 C 0.3162(6) 0.2154(4) 0.9484(5)
C28 C 0.3566(5) 0.1988(3) 0.9189(5)
H20 H 0.370973 0.216581 0.896091
H21 H 0.381780 0.190266 0.942062
C29 C 0.3712(5) 0.1473(4) 0.8658(6)
C30 C 0.4213(5) 0.1531(5) 0.8693(6)
H22 H 0.433492 0.172107 0.888730
C31 C 0.4535(5) 0.1298(3) 0.8430(6)
H23 H 0.486800 0.134608 0.843833
C32 C 0.4370(5) 0.1005(4) 0.8166(6)
C33 C 0.3856(5) 0.0933(4) 0.8159(5)
H24 H 0.373825 0.072865 0.799186
C34 C 0.3529(5) 0.1171(3) 0.8406(5)
H25 H 0.319463 0.112605 0.839924
C35 C 0.4687(6) 0.0779(4) 0.7845(5)
C36 C 0.5000(7) 0.0950(4) 0.7539(7)
H26 H 0.499216 0.120129 0.753159
C37 C 0.5355(7) 0.0762(4) 0.7214(6)
C38 C 0.5308(9) 0.0369(5) 0.7220(7)
C39 C 0.5024(6) 0.0205(3) 0.7544(5)
C40 C 0.4692(6) 0.0399(4) 0.7855(5)
C41 C 0.4429(7) 0.0253(4) 0.8730(7)
H27 H 0.436537 0.002765 0.890110
H28 H 0.419078 0.042886 0.883347
H29 H 0.474915 0.033689 0.881876
C42 C 0.5456(9) 0.0137(5) 0.6352(7)
H31 H 0.557551 0.033265 0.614535
H32 H 0.510531 0.013683 0.634582
C43 C 0.5683(4) 0.0979(3) 0.6893(6)
C44 C 0.5505(5) 0.1259(4) 0.6595(6)
H33 H 0.517062 0.129332 0.656452
C45 C 0.5825(5) 0.1487(4) 0.6344(7)
H34 H 0.570534 0.167491 0.614413
C46 C 0.6322(6) 0.1435(5) 0.6390(8)
C47 C 0.6500(5) 0.1155(5) 0.6687(9)
H35 H 0.683489 0.112063 0.671820
C48 C 0.6180(4) 0.0927(5) 0.6938(7)
H36 H 0.630017 0.073903 0.713857
C49 C 0.7136(10) 0.1618(9) 0.6157(12)
H37 H 0.721785 0.138890 0.599831
H38 H 0.722551 0.160517 0.651557
C50 C 0.7439(13) 0.1937(9) 0.5885(12)
O1 O 0.4606(4) 0.2487(3) 0.9489(4)
O2 O 0.5344(4) 0.2715(3) 0.9255(4)
O3 O 0.4127(3) 0.2910(3) 0.8896(4)
O4 O 0.3099(4) 0.4375(3) 0.8155(4)
O5 O 0.1888(4) 0.4772(3) 0.8156(4)
O6 O 0.0860(5) 0.6236(3) 0.8891(5)
O7 O 0.0216(5) 0.6678(3) 0.9382(4)
O8 O 0.0785(5) 0.6979(3) 0.9753(4)
O9 O 0.3230(4) 0.2440(3) 0.9727(4)
O10 O 0.2723(4) 0.2028(3) 0.9460(4)
O11 O 0.3369(3) 0.1686(2) 0.8894(4)
O12 O 0.4399(4) 0.0198(2) 0.8170(4)
O13 O 0.5629(6) 0.0184(4) 0.6891(5)
O14 O 0.6630(7) 0.1679(4) 0.6114(7)
O15 O 0.7129(6) 0.2118(4) 0.5558(5)
O16 O 0.7858(7) 0.1919(5) 0.5841(8)
Cd2_2 Cd 0.500000 0.21116(3) 1.000000
C51 C 0.0117(6) 0.2698(5) 0.5741(6)
C52 C 0.0385(6) 0.2959(6) 0.6129(9)
H39 H 0.030703 0.320823 0.604675
H40 H 0.027265 0.291027 0.647398
C53 C 0.1161(5) 0.3129(4) 0.6371(6)
C54 C 0.1671(5) 0.3088(3) 0.6292(6)
H41 H 0.178519 0.291529 0.606245
C55 C 0.2000(6) 0.3306(4) 0.6555(6)
H42 H 0.233368 0.326607 0.652223
C56 C 0.1825(4) 0.3590(3) 0.6875(5)
C57 C 0.1317(5) 0.3624(4) 0.6951(6)
H43 H 0.120053 0.380306 0.716861
C58 C 0.0988(5) 0.3395(5) 0.6708(7)
H44 H 0.065462 0.341897 0.676766
C59 C 0.2178(4) 0.3804(3) 0.7189(5)
C60 C 0.2187(6) 0.4194(4) 0.7179(6)
C61 C 0.1541(6) 0.4606(4) 0.6989(6)
H45 H 0.147977 0.464527 0.733505
H46 H 0.135466 0.472376 0.674291
C62 C 0.2807(5) 0.4965(4) 0.7159(5)
C63 C 0.2977(6) 0.4784(4) 0.6322(5)
H47 H 0.314559 0.497904 0.615571
H48 H 0.263137 0.482130 0.629513
H49 H 0.306264 0.455924 0.616050
C64 C 0.2829(6) 0.5345(3) 0.7171(5)
C65 C 0.3175(8) 0.5569(3) 0.6854(5)
C66 C 0.3632(6) 0.5491(4) 0.6800(5)
H50 H 0.374338 0.527401 0.693862
C67 C 0.3972(7) 0.5711(4) 0.6547(6)
H51 H 0.430257 0.565461 0.653177
C68 C 0.3774(7) 0.6030(5) 0.6314(7)
C69 C 0.3270(8) 0.6106(4) 0.6377(7)
H52 H 0.313851 0.631400 0.623001
C70 C 0.3008(7) 0.5905(5) 0.6618(7)
H53 H 0.268125 0.596816 0.665518
C71 C 0.3963(8) 0.6550(5) 0.5818(9)
H54 H 0.371735 0.646794 0.557704
H55 H 0.380527 0.671575 0.605409
C72 C 0.4337(6) 0.6745(4) 0.5540(5)
O18 O 0.0394(4) 0.2487(3) 0.5511(4)
O20 O 0.0873(3) 0.2910(3) 0.6104(4)
O21 O 0.1901(4) 0.4375(3) 0.6845(4)
O22 O 0.3112(4) 0.4772(3) 0.6844(4)
O23 O 0.4140(5) 0.6236(3) 0.6109(5)
O24 O 0.4784(5) 0.6678(3) 0.5618(4)
O25 O 0.4215(5) 0.6979(3) 0.5247(4)
H66 H 0.442512 0.008842 0.621914
O39 O 0.5216(5) 0.1678(3) 0.9382(4)
O41 O 0.5785(5) 0.1979(3) 0.9753(4)
O44 O 0.1770(4) 0.2560(3) 0.9727(4)
O45 O 0.2277(4) 0.2972(3) 0.9460(4)
Cd7 Cd 0.750000 0.250000 0.50829(5)
Cd8 Cd 0.500000 0.71116(3) 0.500000
Cd9 Cd 0.000000 0.21116(3) 0.500000
Cd10_2 Cd 0.000000 0.71116(3) 1.000000
Cd11 Cd 0.60097(10) 0.26085(11) 0.98107(10)
Cd12 Cd 0.39903(10) 0.76085(11) 0.51893(10)
Cd14 Cd 0.10097(10) 0.26085(11) 0.48107(10)
Cd15 Cd 0.10097(10) 0.76085(11) 0.98107(10)
H75 H 0.319973 0.482939 0.801203
H78 H 0.180027 0.482939 0.698797
O34 O 0.6358(6) 0.7495(7) 0.0782(9)
Cd4 Cd 0.60097(10) 0.73915(11) 0.01893(10)
O37 O 0.5344(4) 0.7285(3) 0.0745(4)
O42 O 0.5785(5) 0.8021(3) 0.0247(4)
Cd5 Cd 0.750000 0.750000 0.00829(5)
H30 H 0.557488 0.991158 0.621914
C73 C 0.6838(6) 0.7846(4) 0.9484(5)
C74 C 0.6434(5) 0.8012(3) 0.9189(5)
H56 H 0.629027 0.783419 0.896091
H57 H 0.618220 0.809734 0.942062
C75 C 0.6288(5) 0.8527(4) 0.8658(6)
C76 C 0.5787(5) 0.8469(5) 0.8693(6)
H58 H 0.566508 0.827893 0.888730
C77 C 0.5465(5) 0.8702(3) 0.8430(6)
H59 H 0.513200 0.865392 0.843833
C78 C 0.5630(5) 0.8995(4) 0.8166(6)
C79 C 0.6144(5) 0.9067(4) 0.8159(5)
H60 H 0.626175 0.927135 0.799186
C80 C 0.6471(5) 0.8829(3) 0.8406(5)
H61 H 0.680537 0.887395 0.839924
C81 C 0.5313(6) 0.9221(4) 0.7845(5)
C82 C 0.5000(7) 0.9050(4) 0.7539(7)
H62 H 0.500784 0.879871 0.753159
C83 C 0.4645(7) 0.9238(4) 0.7214(6)
C84 C 0.4692(9) 0.9631(5) 0.7220(7)
C85 C 0.4976(6) 0.9795(3) 0.7544(5)
C86 C 0.5308(6) 0.9601(4) 0.7855(5)
C87 C 0.5571(7) 0.9747(4) 0.8730(7)
H63 H 0.563463 0.997235 0.890110
H64 H 0.580922 0.957114 0.883347
H65 H 0.525085 0.966311 0.881876
C88 C 0.4544(9) 0.9863(5) 0.6352(7)
H67 H 0.442449 0.966735 0.614535
H68 H 0.489469 0.986317 0.634582
C89 C 0.4317(4) 0.9021(3) 0.6893(6)
C90 C 0.4495(5) 0.8741(4) 0.6595(6)
H69 H 0.482938 0.870668 0.656452
C91 C 0.4175(5) 0.8513(4) 0.6344(7)
H70 H 0.429466 0.832509 0.614413
C92 C 0.3678(6) 0.8565(5) 0.6390(8)
C93 C 0.3500(5) 0.8845(5) 0.6687(9)
H71 H 0.316511 0.887937 0.671820
C94 C 0.3820(4) 0.9073(5) 0.6938(7)
H72 H 0.369983 0.926097 0.713857
C95 C 0.2864(10) 0.8382(9) 0.6157(12)
H73 H 0.278215 0.861110 0.599831
H74 H 0.277449 0.839483 0.651557
C96 C 0.2561(13) 0.8063(9) 0.5885(12)
O26 O 0.6770(4) 0.7560(3) 0.9727(4)
O27 O 0.7277(4) 0.7972(3) 0.9460(4)
O28 O 0.6631(3) 0.8314(2) 0.8894(4)
O29 O 0.5601(4) 0.9802(2) 0.8170(4)
O30 O 0.4371(6) 0.9816(4) 0.6891(5)
O31 O 0.3370(7) 0.8321(4) 0.6114(7)
O32 O 0.2871(6) 0.7882(4) 0.5558(5)
O33 O 0.2142(7) 0.8081(5) 0.5841(8)
O35 O 0.5394(4) 0.7513(3) 0.9489(4)
Cd6 Cd 0.250000 0.750000 0.50829(5)
Cd10_3 Cd 1.000000 0.71116(3) 0.000000
O19 O 0.9656(4) 0.2715(3) 0.5745(4)
Cd9_2 Cd 1.000000 0.21116(3) 0.500000
Cd10_4 Cd 1.000000 0.71116(3) 1.000000
Cd13 Cd 0.89903(10) 0.26085(11) 0.51893(10)
Cd10_5 Cd 0.000000 0.28884(3) 0.000000
O19_2 O 0.0344(4) 0.7285(3) 0.5745(4)
Cd9_3 Cd 0.000000 0.78884(3) 0.500000
Cd10_6 Cd 0.000000 0.28884(3) 1.000000
Cd13_2 Cd 0.10097(10) 0.73915(11) 0.51893(10)
Cd2_3 Cd 0.500000 0.78884(3) 0.000000
O36_2 O 0.4606(4) 0.7513(3) 0.0511(4)
O40_2 O 0.5216(5) 0.8322(3) 0.0618(4)
O46_2 O 0.7129(6) 0.7118(4) 0.0558(5)
O47_2 O 0.7871(6) 0.7882(4) 0.0558(5)
Cd10_7 Cd 1.000000 0.28884(3) 0.000000
C1_2 C 0.5117(6) 0.7302(5) 0.9259(6)
C2_2 C 0.5385(6) 0.7041(6) 0.8871(9)
H1_2 H 0.530703 0.679177 0.895325
H2_2 H 0.527265 0.708973 0.852602
C3_2 C 0.6161(5) 0.6871(4) 0.8629(6)
C4_2 C 0.6671(5) 0.6912(3) 0.8708(6)
H3_2 H 0.678519 0.708471 0.893755
C5_2 C 0.7000(6) 0.6694(4) 0.8445(6)
H4_2 H 0.733368 0.673393 0.847777
C6_2 C 0.6825(4) 0.6410(3) 0.8125(5)
C7_2 C 0.6317(5) 0.6376(4) 0.8049(6)
H5_2 H 0.620053 0.619694 0.783139
C8_2 C 0.5988(5) 0.6605(5) 0.8292(7)
H6_2 H 0.565462 0.658103 0.823234
C9_2 C 0.750000 0.6370(4) 0.750000
H7_2 H 0.749998 0.662205 0.749999
C10_2 C 0.7178(4) 0.6196(3) 0.7811(5)
C11_2 C 0.7187(6) 0.5806(4) 0.7821(6)
C12_2 C 0.750000 0.5618(5) 0.750000
C13_2 C 0.6541(6) 0.5394(4) 0.8011(6)
H8_2 H 0.647977 0.535473 0.766495
H9_2 H 0.635466 0.527624 0.825709
C14_2 C 0.750000 0.5210(4) 0.750000
C15_2 C 0.7807(5) 0.5035(4) 0.7841(5)
C16_2 C 0.7977(6) 0.5216(4) 0.8678(5)
H10_2 H 0.814559 0.502096 0.884429
H11_2 H 0.763137 0.517870 0.870487
H12_2 H 0.806264 0.544076 0.883950
C17_2 C 0.7829(6) 0.4655(3) 0.7829(5)
C18_2 C 0.750000 0.4467(5) 0.750000
H13_2 H 0.750000 0.421516 0.749999
C19_2 C 0.8175(8) 0.4431(3) 0.8146(5)
C20_2 C 0.8632(6) 0.4509(4) 0.8200(5)
H14_2 H 0.874338 0.472599 0.806138
C21_2 C 0.8972(7) 0.4289(4) 0.8453(6)
H15_2 H 0.930257 0.434539 0.846823
C22_2 C 0.8774(7) 0.3970(5) 0.8686(7)
C23_2 C 0.8270(8) 0.3894(4) 0.8623(7)
H16_2 H 0.813851 0.368600 0.876999
C24_2 C 0.8008(7) 0.4095(5) 0.8382(7)
H17_2 H 0.768125 0.403184 0.834482
C25_2 C 0.8963(8) 0.3450(5) 0.9182(9)
H18_2 H 0.871735 0.353206 0.942296
H19_2 H 0.880527 0.328425 0.894591
C26_2 C 0.9337(6) 0.3255(4) 0.9460(5)
O2_2 O 0.4656(4) 0.7285(3) 0.9255(4)
O3_2 O 0.5873(3) 0.7090(3) 0.8896(4)
O4_2 O 0.6901(4) 0.5625(3) 0.8155(4)
O5_2 O 0.8112(4) 0.5228(3) 0.8156(4)
O6_2 O 0.9140(5) 0.3764(3) 0.8891(5)
O7_2 O 0.9784(5) 0.3322(3) 0.9382(4)
O8_2 O 0.9215(5) 0.3021(3) 0.9753(4)
Cd2_4 Cd 0.500000 0.78884(3) 1.000000
C51_2 C 0.9883(6) 0.7302(5) 0.5741(6)
C52_2 C 0.9615(6) 0.7041(6) 0.6129(9)
H39_2 H 0.969297 0.679177 0.604675
H40_2 H 0.972735 0.708973 0.647398
C53_2 C 0.8839(5) 0.6871(4) 0.6371(6)
C54_2 C 0.8329(5) 0.6912(3) 0.6292(6)
H41_2 H 0.821481 0.708471 0.606245
C55_2 C 0.8000(6) 0.6694(4) 0.6555(6)
H42_2 H 0.766632 0.673393 0.652223
C56_2 C 0.8175(4) 0.6410(3) 0.6875(5)
C57_2 C 0.8683(5) 0.6376(4) 0.6951(6)
H43_2 H 0.879947 0.619694 0.716861
C58_2 C 0.9012(5) 0.6605(5) 0.6708(7)
H44_2 H 0.934538 0.658103 0.676766
C59_2 C 0.7822(4) 0.6196(3) 0.7189(5)
C60_2 C 0.7813(6) 0.5806(4) 0.7179(6)
C61_2 C 0.8459(6) 0.5394(4) 0.6989(6)
H45_2 H 0.852023 0.535473 0.733505
H46_2 H 0.864534 0.527624 0.674291
C62_2 C 0.7193(5) 0.5035(4) 0.7159(5)
C63_2 C 0.7023(6) 0.5216(4) 0.6322(5)
H47_2 H 0.685441 0.502096 0.615571
H48_2 H 0.736863 0.517870 0.629513
H49_2 H 0.693736 0.544076 0.616050
C64_2 C 0.7171(6) 0.4655(3) 0.7171(5)
C65_2 C 0.6825(8) 0.4431(3) 0.6854(5)
C66_2 C 0.6368(6) 0.4509(4) 0.6800(5)
H50_2 H 0.625662 0.472599 0.693862
C67_2 C 0.6028(7) 0.4289(4) 0.6547(6)
H51_2 H 0.569743 0.434539 0.653177
C68_2 C 0.6226(7) 0.3970(5) 0.6314(7)
C69_2 C 0.6730(8) 0.3894(4) 0.6377(7)
H52_2 H 0.686149 0.368600 0.623001
C70_2 C 0.6992(7) 0.4095(5) 0.6618(7)
H53_2 H 0.731875 0.403184 0.665518
C71_2 C 0.6037(8) 0.3450(5) 0.5818(9)
H54_2 H 0.628265 0.353206 0.557704
H55_2 H 0.619473 0.328425 0.605409
C72_2 C 0.5663(6) 0.3255(4) 0.5540(5)
O18_2 O 0.9606(4) 0.7513(3) 0.5511(4)
O20_2 O 0.9127(3) 0.7090(3) 0.6104(4)
O21_2 O 0.8099(4) 0.5625(3) 0.6845(4)
O22_2 O 0.6888(4) 0.5228(3) 0.6844(4)
O23_2 O 0.5860(5) 0.3764(3) 0.6109(5)
O24_2 O 0.5216(5) 0.3322(3) 0.5618(4)
O25_2 O 0.5785(5) 0.3021(3) 0.5247(4)
O39_2 O 0.4784(5) 0.8322(3) 0.9382(4)
O41_2 O 0.4215(5) 0.8021(3) 0.9753(4)
O44_2 O 0.8230(4) 0.7440(3) 0.9727(4)
O45_2 O 0.7723(4) 0.7028(3) 0.9460(4)
Cd8_2 Cd 0.500000 0.28884(3) 0.500000
Cd9_4 Cd 1.000000 0.78884(3) 0.500000
Cd10_8 Cd 1.000000 0.28884(3) 1.000000
Cd11_2 Cd 0.39903(10) 0.73915(11) 0.98107(10)
Cd12_2 Cd 0.60097(10) 0.23915(11) 0.51893(10)
Cd14_2 Cd 0.89903(10) 0.73915(11) 0.48107(10)
Cd15_2 Cd 0.89903(10) 0.23915(11) 0.98107(10)
H75_2 H 0.680027 0.517061 0.801203
H78_2 H 0.819973 0.517061 0.698797
H30_2 H 0.557488 0.008842 0.378086
C73_2 C 0.6838(6) 0.2154(4) 0.0516(5)
C74_2 C 0.6434(5) 0.1988(3) 0.0811(5)
H56_2 H 0.629027 0.216581 0.103909
H57_2 H 0.618220 0.190266 0.057938
C75_2 C 0.6288(5) 0.1473(4) 0.1342(6)
C76_2 C 0.5787(5) 0.1531(5) 0.1307(6)
H58_2 H 0.566508 0.172107 0.111270
C77_2 C 0.5465(5) 0.1298(3) 0.1570(6)
H59_2 H 0.513200 0.134608 0.156167
C78_2 C 0.5630(5) 0.1005(4) 0.1834(6)
C79_2 C 0.6144(5) 0.0933(4) 0.1841(5)
H60_2 H 0.626175 0.072865 0.200814
C80_2 C 0.6471(5) 0.1171(3) 0.1594(5)
H61_2 H 0.680537 0.112605 0.160076
C81_2 C 0.5313(6) 0.0779(4) 0.2155(5)
C82_2 C 0.5000(7) 0.0950(4) 0.2461(7)
H62_2 H 0.500784 0.120129 0.246841
C83_2 C 0.4645(7) 0.0762(4) 0.2786(6)
C84_2 C 0.4692(9) 0.0369(5) 0.2780(7)
C85_2 C 0.4976(6) 0.0205(3) 0.2456(5)
C86_2 C 0.5308(6) 0.0399(4) 0.2145(5)
C87_2 C 0.5571(7) 0.0253(4) 0.1270(7)
H63_2 H 0.563463 0.002765 0.109890
H64_2 H 0.580922 0.042886 0.116653
H65_2 H 0.525085 0.033689 0.118124
C88_2 C 0.4544(9) 0.0137(5) 0.3648(7)
H67_2 H 0.442449 0.033265 0.385465
H68_2 H 0.489469 0.013683 0.365418
C89_2 C 0.4317(4) 0.0979(3) 0.3107(6)
C90_2 C 0.4495(5) 0.1259(4) 0.3405(6)
H69_2 H 0.482938 0.129332 0.343548
C91_2 C 0.4175(5) 0.1487(4) 0.3656(7)
H70_2 H 0.429466 0.167491 0.385587
C92_2 C 0.3678(6) 0.1435(5) 0.3610(8)
C93_2 C 0.3500(5) 0.1155(5) 0.3313(9)
H71_2 H 0.316511 0.112063 0.328180
C94_2 C 0.3820(4) 0.0927(5) 0.3062(7)
H72_2 H 0.369983 0.073903 0.286143
C95_2 C 0.2864(10) 0.1618(9) 0.3843(12)
H73_2 H 0.278215 0.138890 0.400169
H74_2 H 0.277449 0.160517 0.348443
C96_2 C 0.2561(13) 0.1937(9) 0.4115(12)
O26_2 O 0.6770(4) 0.2440(3) 0.0273(4)
O27_2 O 0.7277(4) 0.2028(3) 0.0540(4)
O28_2 O 0.6631(3) 0.1686(2) 0.1106(4)
O29_2 O 0.5601(4) 0.0198(2) 0.1830(4)
O30_2 O 0.4371(6) 0.0184(4) 0.3109(5)
O31_2 O 0.3370(7) 0.1679(4) 0.3886(7)
O32_2 O 0.2871(6) 0.2118(4) 0.4442(5)
O33_2 O 0.2142(7) 0.1919(5) 0.4159(8)
Cd6_2 Cd 0.250000 0.250000 0.49171(5)
O34_2 O 0.6358(6) 0.2505(7) 0.9218(9)
Cd5_2 Cd 0.750000 0.250000 0.99171(5)
C1_3 C 0.4883(6) 0.7302(5) 0.0741(6)
C2_3 C 0.4615(6) 0.7041(6) 0.1129(9)
H1_3 H 0.469297 0.679177 0.104675
H2_3 H 0.472735 0.708973 0.147398
C3_3 C 0.3839(5) 0.6871(4) 0.1371(6)
C4_3 C 0.3329(5) 0.6912(3) 0.1292(6)
H3_3 H 0.321481 0.708471 0.106245
C5_3 C 0.3000(6) 0.6694(4) 0.1555(6)
H4_3 H 0.266632 0.673393 0.152223
C6_3 C 0.3175(4) 0.6410(3) 0.1875(5)
C7_3 C 0.3683(5) 0.6376(4) 0.1951(6)
H5_3 H 0.379947 0.619694 0.216861
C8_3 C 0.4012(5) 0.6605(5) 0.1708(7)
H6_3 H 0.434538 0.658103 0.176766
C9_3 C 0.250000 0.6370(4) 0.250000
H7_3 H 0.250002 0.662205 0.250001
C10_3 C 0.2822(4) 0.6196(3) 0.2189(5)
C11_3 C 0.2813(6) 0.5806(4) 0.2179(6)
C12_3 C 0.250000 0.5618(5) 0.250000
C13_3 C 0.3459(6) 0.5394(4) 0.1989(6)
H8_3 H 0.352023 0.535473 0.233505
H9_3 H 0.364534 0.527624 0.174291
C14_3 C 0.250000 0.5210(4) 0.250000
C15_3 C 0.2193(5) 0.5035(4) 0.2159(5)
C16_3 C 0.2023(6) 0.5216(4) 0.1322(5)
H10_3 H 0.185441 0.502096 0.115571
H11_3 H 0.236863 0.517870 0.129513
H12_3 H 0.193736 0.544076 0.116050
C17_3 C 0.2171(6) 0.4655(3) 0.2171(5)
C18_3 C 0.250000 0.4467(5) 0.250000
H13_3 H 0.250000 0.421516 0.250001
C19_3 C 0.1825(8) 0.4431(3) 0.1854(5)
C20_3 C 0.1368(6) 0.4509(4) 0.1800(5)
H14_3 H 0.125662 0.472599 0.193862
C21_3 C 0.1028(7) 0.4289(4) 0.1547(6)
H15_3 H 0.069743 0.434539 0.153177
C22_3 C 0.1226(7) 0.3970(5) 0.1314(7)
C23_3 C 0.1730(8) 0.3894(4) 0.1377(7)
H16_3 H 0.186149 0.368600 0.123001
C24_3 C 0.1992(7) 0.4095(5) 0.1618(7)
H17_3 H 0.231875 0.403184 0.165518
C25_3 C 0.1037(8) 0.3450(5) 0.0818(9)
H18_3 H 0.128265 0.353206 0.057704
H19_3 H 0.119473 0.328425 0.105409
C26_3 C 0.0663(6) 0.3255(4) 0.0540(5)
C27_2 C 0.3162(6) 0.7846(4) 0.0516(5)
C28_2 C 0.3566(5) 0.8012(3) 0.0811(5)
H20_2 H 0.370973 0.783419 0.103909
H21_2 H 0.381780 0.809734 0.057938
C29_2 C 0.3712(5) 0.8527(4) 0.1342(6)
C30_2 C 0.4213(5) 0.8469(5) 0.1307(6)
H22_2 H 0.433492 0.827893 0.111270
C31_2 C 0.4535(5) 0.8702(3) 0.1570(6)
H23_2 H 0.486800 0.865392 0.156167
C32_2 C 0.4370(5) 0.8995(4) 0.1834(6)
C33_2 C 0.3856(5) 0.9067(4) 0.1841(5)
H24_2 H 0.373825 0.927135 0.200814
C34_2 C 0.3529(5) 0.8829(3) 0.1594(5)
H25_2 H 0.319463 0.887395 0.160076
C35_2 C 0.4687(6) 0.9221(4) 0.2155(5)
C36_2 C 0.5000(7) 0.9050(4) 0.2461(7)
H26_2 H 0.499216 0.879871 0.246841
C37_2 C 0.5355(7) 0.9238(4) 0.2786(6)
C38_2 C 0.5308(9) 0.9631(5) 0.2780(7)
C39_2 C 0.5024(6) 0.9795(3) 0.2456(5)
C40_2 C 0.4692(6) 0.9601(4) 0.2145(5)
C41_2 C 0.4429(7) 0.9747(4) 0.1270(7)
H27_2 H 0.436537 0.997235 0.109890
H28_2 H 0.419078 0.957114 0.116653
H29_2 H 0.474915 0.966311 0.118124
C42_2 C 0.5456(9) 0.9863(5) 0.3648(7)
H31_2 H 0.557551 0.966735 0.385465
H32_2 H 0.510531 0.986317 0.365418
C43_2 C 0.5683(4) 0.9021(3) 0.3107(6)
C44_2 C 0.5505(5) 0.8741(4) 0.3405(6)
H33_2 H 0.517062 0.870668 0.343548
C45_2 C 0.5825(5) 0.8513(4) 0.3656(7)
H34_2 H 0.570534 0.832509 0.385587
C46_2 C 0.6322(6) 0.8565(5) 0.3610(8)
C47_2 C 0.6500(5) 0.8845(5) 0.3313(9)
H35_2 H 0.683489 0.887937 0.328180
C48_2 C 0.6180(4) 0.9073(5) 0.3062(7)
H36_2 H 0.630017 0.926097 0.286143
C49_2 C 0.7136(10) 0.8382(9) 0.3843(12)
H37_2 H 0.721785 0.861110 0.400169
H38_2 H 0.722551 0.839483 0.348443
C50_2 C 0.7439(13) 0.8063(9) 0.4115(12)
O3_3 O 0.4127(3) 0.7090(3) 0.1104(4)
O4_3 O 0.3099(4) 0.5625(3) 0.1845(4)
O5_3 O 0.1888(4) 0.5228(3) 0.1844(4)
O6_3 O 0.0860(5) 0.3764(3) 0.1109(5)
O7_3 O 0.0216(5) 0.3322(3) 0.0618(4)
O8_3 O 0.0785(5) 0.3021(3) 0.0247(4)
O9_2 O 0.3230(4) 0.7560(3) 0.0273(4)
O10_2 O 0.2723(4) 0.7972(3) 0.0540(4)
O11_2 O 0.3369(3) 0.8314(2) 0.1106(4)
O12_2 O 0.4399(4) 0.9802(2) 0.1830(4)
O13_2 O 0.5629(6) 0.9816(4) 0.3109(5)
O14_2 O 0.6630(7) 0.8321(4) 0.3886(7)
O15_2 O 0.7129(6) 0.7882(4) 0.4442(5)
O16_2 O 0.7858(7) 0.8081(5) 0.4159(8)
C51_3 C 0.0117(6) 0.7302(5) 0.4259(6)
C52_3 C 0.0385(6) 0.7041(6) 0.3871(9)
H39_3 H 0.030703 0.679177 0.395325
H40_3 H 0.027265 0.708973 0.352602
C53_3 C 0.1161(5) 0.6871(4) 0.3629(6)
C54_3 C 0.1671(5) 0.6912(3) 0.3708(6)
H41_3 H 0.178519 0.708471 0.393755
C55_3 C 0.2000(6) 0.6694(4) 0.3445(6)
H42_3 H 0.233368 0.673393 0.347777
C56_3 C 0.1825(4) 0.6410(3) 0.3125(5)
C57_3 C 0.1317(5) 0.6376(4) 0.3049(6)
H43_3 H 0.120053 0.619694 0.283139
C58_3 C 0.0988(5) 0.6605(5) 0.3292(7)
H44_3 H 0.065462 0.658103 0.323234
C59_3 C 0.2178(4) 0.6196(3) 0.2811(5)
C60_3 C 0.2187(6) 0.5806(4) 0.2821(6)
C61_3 C 0.1541(6) 0.5394(4) 0.3011(6)
H45_3 H 0.147977 0.535473 0.266495
H46_3 H 0.135466 0.527624 0.325709
C62_3 C 0.2807(5) 0.5035(4) 0.2841(5)
C63_3 C 0.2977(6) 0.5216(4) 0.3678(5)
H47_3 H 0.314559 0.502096 0.384429
H48_3 H 0.263137 0.517870 0.370487
H49_3 H 0.306264 0.544076 0.383950
C64_3 C 0.2829(6) 0.4655(3) 0.2829(5)
C65_3 C 0.3175(8) 0.4431(3) 0.3146(5)
C66_3 C 0.3632(6) 0.4509(4) 0.3200(5)
H50_3 H 0.374338 0.472599 0.306138
C67_3 C 0.3972(7) 0.4289(4) 0.3453(6)
H51_3 H 0.430257 0.434539 0.346823
C68_3 C 0.3774(7) 0.3970(5) 0.3686(7)
C69_3 C 0.3270(8) 0.3894(4) 0.3623(7)
H52_3 H 0.313851 0.368600 0.376999
C70_3 C 0.3008(7) 0.4095(5) 0.3382(7)
H53_3 H 0.268125 0.403184 0.334482
C71_3 C 0.3963(8) 0.3450(5) 0.4182(9)
H54_3 H 0.371735 0.353206 0.442296
H55_3 H 0.380527 0.328425 0.394591
C72_3 C 0.4337(6) 0.3255(4) 0.4460(5)
O18_3 O 0.0394(4) 0.7513(3) 0.4489(4)
O20_3 O 0.0873(3) 0.7090(3) 0.3896(4)
O21_3 O 0.1901(4) 0.5625(3) 0.3155(4)
O22_3 O 0.3112(4) 0.5228(3) 0.3156(4)
O23_3 O 0.4140(5) 0.3764(3) 0.3891(5)
O24_3 O 0.4784(5) 0.3322(3) 0.4382(4)
O25_3 O 0.4215(5) 0.3021(3) 0.4753(4)
H66_2 H 0.442512 0.991158 0.378086
O44_3 O 0.1770(4) 0.7440(3) 0.0273(4)
O45_3 O 0.2277(4) 0.7028(3) 0.0540(4)
Cd7_2 Cd 0.750000 0.750000 0.49171(5)
Cd12_3 Cd 0.39903(10) 0.23915(11) 0.48107(10)
Cd15_3 Cd 0.10097(10) 0.23915(11) 0.01893(10)
H75_3 H 0.319973 0.517061 0.198797
H78_3 H 0.180027 0.517061 0.301203
O17_2 O 0.3642(6) 0.7495(7) 0.9218(9)
Cd1_2 Cd 0.250000 0.750000 0.99171(5)
O46_3 O 0.2871(6) 0.7118(4) 0.9442(5)
O47_3 O 0.2129(6) 0.7882(4) 0.9442(5)
O19_3 O 0.9656(4) 0.7285(3) 0.4255(4)
O19_4 O 0.0344(4) 0.2715(3) 0.4255(4)
C1_4 C 0.5117(6) 0.2698(5) 0.0741(6)
C2_4 C 0.5385(6) 0.2959(6) 0.1129(9)
H1_4 H 0.530703 0.320823 0.104675
H2_4 H 0.527265 0.291027 0.147398
C3_4 C 0.6161(5) 0.3129(4) 0.1371(6)
C4_4 C 0.6671(5) 0.3088(3) 0.1292(6)
H3_4 H 0.678519 0.291529 0.106245
C5_4 C 0.7000(6) 0.3306(4) 0.1555(6)
H4_4 H 0.733368 0.326607 0.152223
C6_4 C 0.6825(4) 0.3590(3) 0.1875(5)
C7_4 C 0.6317(5) 0.3624(4) 0.1951(6)
H5_4 H 0.620053 0.380306 0.216861
C8_4 C 0.5988(5) 0.3395(5) 0.1708(7)
H6_4 H 0.565462 0.341897 0.176766
C9_4 C 0.750000 0.3630(4) 0.250000
H7_4 H 0.749998 0.337795 0.250001
C10_4 C 0.7178(4) 0.3804(3) 0.2189(5)
C11_4 C 0.7187(6) 0.4194(4) 0.2179(6)
C12_4 C 0.750000 0.4382(5) 0.250000
C13_4 C 0.6541(6) 0.4606(4) 0.1989(6)
H8_4 H 0.647977 0.464527 0.233505
H9_4 H 0.635466 0.472376 0.174291
C14_4 C 0.750000 0.4790(4) 0.250000
C15_4 C 0.7807(5) 0.4965(4) 0.2159(5)
C16_4 C 0.7977(6) 0.4784(4) 0.1322(5)
H10_4 H 0.814559 0.497904 0.115571
H11_4 H 0.763137 0.482130 0.129513
H12_4 H 0.806264 0.455924 0.116050
C17_4 C 0.7829(6) 0.5345(3) 0.2171(5)
C18_4 C 0.750000 0.5533(5) 0.250000
H13_4 H 0.750000 0.578484 0.250001
C19_4 C 0.8175(8) 0.5569(3) 0.1854(5)
C20_4 C 0.8632(6) 0.5491(4) 0.1800(5)
H14_4 H 0.874338 0.527401 0.193862
C21_4 C 0.8972(7) 0.5711(4) 0.1547(6)
H15_4 H 0.930257 0.565461 0.153177
C22_4 C 0.8774(7) 0.6030(5) 0.1314(7)
C23_4 C 0.8270(8) 0.6106(4) 0.1377(7)
H16_4 H 0.813851 0.631400 0.123001
C24_4 C 0.8008(7) 0.5905(5) 0.1618(7)
H17_4 H 0.768125 0.596816 0.165518
C25_4 C 0.8963(8) 0.6550(5) 0.0818(9)
H18_4 H 0.871735 0.646794 0.057704
H19_4 H 0.880527 0.671575 0.105409
C26_4 C 0.9337(6) 0.6745(4) 0.0540(5)
O3_4 O 0.5873(3) 0.2910(3) 0.1104(4)
O4_4 O 0.6901(4) 0.4375(3) 0.1845(4)
O5_4 O 0.8112(4) 0.4772(3) 0.1844(4)
O6_4 O 0.9140(5) 0.6236(3) 0.1109(5)
O7_4 O 0.9784(5) 0.6678(3) 0.0618(4)
O8_4 O 0.9215(5) 0.6979(3) 0.0247(4)
C51_4 C 0.9883(6) 0.2698(5) 0.4259(6)
C52_4 C 0.9615(6) 0.2959(6) 0.3871(9)
H39_4 H 0.969297 0.320823 0.395325
H40_4 H 0.972735 0.291027 0.352602
C53_4 C 0.8839(5) 0.3129(4) 0.3629(6)
C54_4 C 0.8329(5) 0.3088(3) 0.3708(6)
H41_4 H 0.821481 0.291529 0.393755
C55_4 C 0.8000(6) 0.3306(4) 0.3445(6)
H42_4 H 0.766632 0.326607 0.347777
C56_4 C 0.8175(4) 0.3590(3) 0.3125(5)
C57_4 C 0.8683(5) 0.3624(4) 0.3049(6)
H43_4 H 0.879947 0.380306 0.283139
C58_4 C 0.9012(5) 0.3395(5) 0.3292(7)
H44_4 H 0.934538 0.341897 0.323234
C59_4 C 0.7822(4) 0.3804(3) 0.2811(5)
C60_4 C 0.7813(6) 0.4194(4) 0.2821(6)
C61_4 C 0.8459(6) 0.4606(4) 0.3011(6)
H45_4 H 0.852023 0.464527 0.266495
H46_4 H 0.864534 0.472376 0.325709
C62_4 C 0.7193(5) 0.4965(4) 0.2841(5)
C63_4 C 0.7023(6) 0.4784(4) 0.3678(5)
H47_4 H 0.685441 0.497904 0.384429
H48_4 H 0.736863 0.482130 0.370487
H49_4 H 0.693736 0.455924 0.383950
C64_4 C 0.7171(6) 0.5345(3) 0.2829(5)
C65_4 C 0.6825(8) 0.5569(3) 0.3146(5)
C66_4 C 0.6368(6) 0.5491(4) 0.3200(5)
H50_4 H 0.625662 0.527401 0.306138
C67_4 C 0.6028(7) 0.5711(4) 0.3453(6)
H51_4 H 0.569743 0.565461 0.346823
C68_4 C 0.6226(7) 0.6030(5) 0.3686(7)
C69_4 C 0.6730(8) 0.6106(4) 0.3623(7)
H52_4 H 0.686149 0.631400 0.376999
C70_4 C 0.6992(7) 0.5905(5) 0.3382(7)
H53_4 H 0.731875 0.596816 0.334482
C71_4 C 0.6037(8) 0.6550(5) 0.4182(9)
H54_4 H 0.628265 0.646794 0.442296
H55_4 H 0.619473 0.671575 0.394591
C72_4 C 0.5663(6) 0.6745(4) 0.4460(5)
O18_4 O 0.9606(4) 0.2487(3) 0.4489(4)
O20_4 O 0.9127(3) 0.2910(3) 0.3896(4)
O21_4 O 0.8099(4) 0.4375(3) 0.3155(4)
O22_4 O 0.6888(4) 0.4772(3) 0.3156(4)
O23_4 O 0.5860(5) 0.6236(3) 0.3891(5)
O24_4 O 0.5216(5) 0.6678(3) 0.4382(4)
O25_4 O 0.5785(5) 0.6979(3) 0.4753(4)
O44_4 O 0.8230(4) 0.2560(3) 0.0273(4)
O45_4 O 0.7723(4) 0.2972(3) 0.0540(4)
Cd12_4 Cd 0.60097(10) 0.76085(11) 0.48107(10)
Cd15_4 Cd 0.89903(10) 0.76085(11) 0.01893(10)
H75_4 H 0.680027 0.482939 0.198797
H78_4 H 0.819973 0.482939 0.301203
O46_4 O 0.7129(6) 0.2882(4) 0.9442(5)
O47_4 O 0.7871(6) 0.2118(4) 0.9442(5)
C17_5 C 0.2171(6) 0.0345(3) 0.2829(5)
C18_5 C 0.250000 0.0533(5) 0.250000
H13_5 H 0.250000 0.078484 0.249999
C19_5 C 0.1825(8) 0.0569(3) 0.3146(5)
C20_5 C 0.1368(6) 0.0491(4) 0.3200(5)
H14_5 H 0.125662 0.027401 0.306138
C21_5 C 0.1028(7) 0.0711(4) 0.3453(6)
H15_5 H 0.069743 0.065461 0.346823
C22_5 C 0.1226(7) 0.1030(5) 0.3686(7)
C23_5 C 0.1730(8) 0.1106(4) 0.3623(7)
H16_5 H 0.186149 0.131400 0.376999
C24_5 C 0.1992(7) 0.0905(5) 0.3382(7)
H17_5 H 0.231875 0.096816 0.334482
C25_5 C 0.1037(8) 0.1550(5) 0.4182(9)
H18_5 H 0.128265 0.146794 0.442296
H19_5 H 0.119473 0.171575 0.394591
C26_5 C 0.0663(6) 0.1745(4) 0.4460(5)
O6_5 O 0.0860(5) 0.1236(3) 0.3891(5)
O7_5 O 0.0216(5) 0.1678(3) 0.4382(4)
O8_5 O 0.0785(5) 0.1979(3) 0.4753(4)
C64_5 C 0.2829(6) 0.0345(3) 0.2171(5)
C65_5 C 0.3175(8) 0.0569(3) 0.1854(5)
C66_5 C 0.3632(6) 0.0491(4) 0.1800(5)
H50_5 H 0.374338 0.027401 0.193862
C67_5 C 0.3972(7) 0.0711(4) 0.1547(6)
H51_5 H 0.430257 0.065461 0.153177
C68_5 C 0.3774(7) 0.1030(5) 0.1314(7)
C69_5 C 0.3270(8) 0.1106(4) 0.1377(7)
H52_5 H 0.313851 0.131400 0.123001
C70_5 C 0.3008(7) 0.0905(5) 0.1618(7)
H53_5 H 0.268125 0.096816 0.165518
C71_5 C 0.3963(8) 0.1550(5) 0.0818(9)
H54_5 H 0.371735 0.146794 0.057704
H55_5 H 0.380527 0.171575 0.105409
C72_5 C 0.4337(6) 0.1745(4) 0.0540(5)
O23_5 O 0.4140(5) 0.1236(3) 0.1109(5)
C1_5 C 0.4883(6) 0.7698(5) 0.4259(6)
C2_5 C 0.4615(6) 0.7959(6) 0.3871(9)
H1_5 H 0.469297 0.820823 0.395325
H2_5 H 0.472735 0.791027 0.352602
C3_5 C 0.3839(5) 0.8129(4) 0.3629(6)
C4_5 C 0.3329(5) 0.8088(3) 0.3708(6)
H3_5 H 0.321481 0.791529 0.393755
C5_5 C 0.3000(6) 0.8306(4) 0.3445(6)
H4_5 H 0.266632 0.826607 0.347777
C6_5 C 0.3175(4) 0.8590(3) 0.3125(5)
C7_5 C 0.3683(5) 0.8624(4) 0.3049(6)
H5_5 H 0.379947 0.880306 0.283139
C8_5 C 0.4012(5) 0.8395(5) 0.3292(7)
H6_5 H 0.434538 0.841897 0.323234
C9_5 C 0.250000 0.8630(4) 0.250000
H7_5 H 0.250002 0.837795 0.249999
C10_5 C 0.2822(4) 0.8804(3) 0.2811(5)
C11_5 C 0.2813(6) 0.9194(4) 0.2821(6)
C12_5 C 0.250000 0.9382(5) 0.250000
C13_5 C 0.3459(6) 0.9606(4) 0.3011(6)
H8_5 H 0.352023 0.964527 0.266495
H9_5 H 0.364534 0.972376 0.325709
C14_5 C 0.250000 0.9790(4) 0.250000
C15_5 C 0.2193(5) 0.9965(4) 0.2841(5)
C16_5 C 0.2023(6) 0.9784(4) 0.3678(5)
H10_5 H 0.185441 0.997904 0.384429
H11_5 H 0.236863 0.982130 0.370487
H12_5 H 0.193736 0.955924 0.383950
C27_3 C 0.3162(6) 0.7154(4) 0.4484(5)
C28_3 C 0.3566(5) 0.6988(3) 0.4189(5)
H20_3 H 0.370973 0.716581 0.396091
H21_3 H 0.381780 0.690266 0.442062
C29_3 C 0.3712(5) 0.6473(4) 0.3658(6)
C30_3 C 0.4213(5) 0.6531(5) 0.3693(6)
H22_3 H 0.433492 0.672107 0.388730
C31_3 C 0.4535(5) 0.6298(3) 0.3430(6)
H23_3 H 0.486800 0.634608 0.343833
C32_3 C 0.4370(5) 0.6005(4) 0.3166(6)
C33_3 C 0.3856(5) 0.5933(4) 0.3159(5)
H24_3 H 0.373825 0.572865 0.299186
C34_3 C 0.3529(5) 0.6171(3) 0.3406(5)
H25_3 H 0.319463 0.612605 0.339924
C35_3 C 0.4687(6) 0.5779(4) 0.2845(5)
C36_3 C 0.5000(7) 0.5950(4) 0.2539(7)
H26_3 H 0.499216 0.620129 0.253159
C37_3 C 0.5355(7) 0.5762(4) 0.2214(6)
C38_3 C 0.5308(9) 0.5369(5) 0.2220(7)
C39_3 C 0.5024(6) 0.5205(3) 0.2544(5)
C40_3 C 0.4692(6) 0.5399(4) 0.2855(5)
C41_3 C 0.4429(7) 0.5253(4) 0.3730(7)
H27_3 H 0.436537 0.502765 0.390110
H28_3 H 0.419078 0.542886 0.383347
H29_3 H 0.474915 0.533689 0.381876
C42_3 C 0.5456(9) 0.5137(5) 0.1352(7)
H30_3 H 0.557488 0.491158 0.121914
H31_3 H 0.557551 0.533265 0.114535
H32_3 H 0.510531 0.513683 0.134582
C43_3 C 0.5683(4) 0.5979(3) 0.1893(6)
C44_3 C 0.5505(5) 0.6259(4) 0.1595(6)
H33_3 H 0.517062 0.629332 0.156452
C45_3 C 0.5825(5) 0.6487(4) 0.1344(7)
H34_3 H 0.570534 0.667491 0.114413
C46_3 C 0.6322(6) 0.6435(5) 0.1390(8)
C47_3 C 0.6500(5) 0.6155(5) 0.1687(9)
H35_3 H 0.683489 0.612063 0.171820
C48_3 C 0.6180(4) 0.5927(5) 0.1938(7)
H36_3 H 0.630017 0.573903 0.213857
C49_3 C 0.7136(10) 0.6618(9) 0.1157(12)
H37_3 H 0.721785 0.638890 0.099831
H38_3 H 0.722551 0.660517 0.151557
C50_3 C 0.7439(13) 0.6937(9) 0.0885(12)
O1_2 O 0.4606(4) 0.7487(3) 0.4489(4)
O2_3 O 0.5344(4) 0.7715(3) 0.4255(4)
O3_5 O 0.4127(3) 0.7910(3) 0.3896(4)
O4_5 O 0.3099(4) 0.9375(3) 0.3155(4)
O5_5 O 0.1888(4) 0.9772(3) 0.3156(4)
O9_3 O 0.3230(4) 0.7440(3) 0.4727(4)
O10_3 O 0.2723(4) 0.7028(3) 0.4460(4)
O11_3 O 0.3369(3) 0.6686(2) 0.3894(4)
O12_3 O 0.4399(4) 0.5198(2) 0.3170(4)
O13_3 O 0.5629(6) 0.5184(4) 0.1891(5)
O14_3 O 0.6630(7) 0.6679(4) 0.1114(7)
O16_3 O 0.7858(7) 0.6919(5) 0.0841(8)
O17_3 O 0.3642(6) 0.7505(7) 0.5782(9)
C51_5 C 0.0117(6) 0.7698(5) 0.0741(6)
C52_5 C 0.0385(6) 0.7959(6) 0.1129(9)
H39_5 H 0.030703 0.820823 0.104675
H40_5 H 0.027265 0.791027 0.147398
C53_5 C 0.1161(5) 0.8129(4) 0.1371(6)
C54_5 C 0.1671(5) 0.8088(3) 0.1292(6)
H41_5 H 0.178519 0.791529 0.106245
C55_5 C 0.2000(6) 0.8306(4) 0.1555(6)
H42_5 H 0.233368 0.826607 0.152223
C56_5 C 0.1825(4) 0.8590(3) 0.1875(5)
C57_5 C 0.1317(5) 0.8624(4) 0.1951(6)
H43_5 H 0.120053 0.880306 0.216861
C58_5 C 0.0988(5) 0.8395(5) 0.1708(7)
H44_5 H 0.065462 0.841897 0.176766
C59_5 C 0.2178(4) 0.8804(3) 0.2189(5)
C60_5 C 0.2187(6) 0.9194(4) 0.2179(6)
C61_5 C 0.1541(6) 0.9606(4) 0.1989(6)
H45_5 H 0.147977 0.964527 0.233505
H46_5 H 0.135466 0.972376 0.174291
C62_5 C 0.2807(5) 0.9965(4) 0.2159(5)
C63_5 C 0.2977(6) 0.9784(4) 0.1322(5)
H47_5 H 0.314559 0.997904 0.115571
H48_5 H 0.263137 0.982130 0.129513
H49_5 H 0.306264 0.955924 0.116050
O18_5 O 0.0394(4) 0.7487(3) 0.0511(4)
O20_5 O 0.0873(3) 0.7910(3) 0.1104(4)
O21_5 O 0.1901(4) 0.9375(3) 0.1845(4)
O22_5 O 0.3112(4) 0.9772(3) 0.1844(4)
C73_3 C 0.6838(6) 0.2846(4) 0.4484(5)
C74_3 C 0.6434(5) 0.3012(3) 0.4189(5)
H56_3 H 0.629027 0.283419 0.396091
H57_3 H 0.618220 0.309734 0.442062
C75_3 C 0.6288(5) 0.3527(4) 0.3658(6)
C76_3 C 0.5787(5) 0.3469(5) 0.3693(6)
H58_3 H 0.566508 0.327893 0.388730
C77_3 C 0.5465(5) 0.3702(3) 0.3430(6)
H59_3 H 0.513200 0.365392 0.343833
C78_3 C 0.5630(5) 0.3995(4) 0.3166(6)
C79_3 C 0.6144(5) 0.4067(4) 0.3159(5)
H60_3 H 0.626175 0.427135 0.299186
C80_3 C 0.6471(5) 0.3829(3) 0.3406(5)
H61_3 H 0.680537 0.387395 0.339924
C81_3 C 0.5313(6) 0.4221(4) 0.2845(5)
C82_3 C 0.5000(7) 0.4050(4) 0.2539(7)
H62_3 H 0.500784 0.379871 0.253159
C83_3 C 0.4645(7) 0.4238(4) 0.2214(6)
C84_3 C 0.4692(9) 0.4631(5) 0.2220(7)
C85_3 C 0.4976(6) 0.4795(3) 0.2544(5)
C86_3 C 0.5308(6) 0.4601(4) 0.2855(5)
C87_3 C 0.5571(7) 0.4747(4) 0.3730(7)
H63_3 H 0.563463 0.497235 0.390110
H64_3 H 0.580922 0.457114 0.383347
H65_3 H 0.525085 0.466311 0.381876
C88_3 C 0.4544(9) 0.4863(5) 0.1352(7)
H66_3 H 0.442512 0.508842 0.121914
H67_3 H 0.442449 0.466735 0.114535
H68_3 H 0.489469 0.486317 0.134582
C89_3 C 0.4317(4) 0.4021(3) 0.1893(6)
C90_3 C 0.4495(5) 0.3741(4) 0.1595(6)
H69_3 H 0.482938 0.370668 0.156452
C91_3 C 0.4175(5) 0.3513(4) 0.1344(7)
H70_3 H 0.429466 0.332509 0.114413
C92_3 C 0.3678(6) 0.3565(5) 0.1390(8)
C93_3 C 0.3500(5) 0.3845(5) 0.1687(9)
H71_3 H 0.316511 0.387937 0.171820
C94_3 C 0.3820(4) 0.4073(5) 0.1938(7)
H72_3 H 0.369983 0.426097 0.213857
C95_3 C 0.2864(10) 0.3382(9) 0.1157(12)
H73_3 H 0.278215 0.361110 0.099831
H74_3 H 0.277449 0.339483 0.151557
C96_3 C 0.2561(13) 0.3063(9) 0.0885(12)
O26_3 O 0.6770(4) 0.2560(3) 0.4727(4)
O27_3 O 0.7277(4) 0.2972(3) 0.4460(4)
O28_3 O 0.6631(3) 0.3314(2) 0.3894(4)
O29_3 O 0.5601(4) 0.4802(2) 0.3170(4)
O30_3 O 0.4371(6) 0.4816(4) 0.1891(5)
O31_3 O 0.3370(7) 0.3321(4) 0.1114(7)
O33_3 O 0.2142(7) 0.3081(5) 0.0841(8)
O34_3 O 0.6358(6) 0.2495(7) 0.5782(9)
O35_2 O 0.5394(4) 0.2513(3) 0.4489(4)
O36_3 O 0.5394(4) 0.7487(3) 0.5511(4)
O37_2 O 0.5344(4) 0.2285(3) 0.5745(4)
O38_2 O 0.4656(4) 0.7715(3) 0.5745(4)
O44_5 O 0.1770(4) 0.7560(3) 0.4727(4)
O45_5 O 0.2277(4) 0.7972(3) 0.4460(4)
O47_5 O 0.2129(6) 0.7118(4) 0.5558(5)
H75_5 H 0.319973 0.982939 0.301203
H78_5 H 0.180027 0.982939 0.198797
O19_5 O 0.9656(4) 0.7715(3) 0.0745(4)
O19_6 O 0.0344(4) 0.2285(3) 0.0745(4)
C1_6 C 0.5117(6) 0.2302(5) 0.4259(6)
C2_6 C 0.5385(6) 0.2041(6) 0.3871(9)
H1_6 H 0.530703 0.179177 0.395325
H2_6 H 0.527265 0.208973 0.352602
C3_6 C 0.6161(5) 0.1871(4) 0.3629(6)
C4_6 C 0.6671(5) 0.1912(3) 0.3708(6)
H3_6 H 0.678519 0.208471 0.393755
C5_6 C 0.7000(6) 0.1694(4) 0.3445(6)
H4_6 H 0.733368 0.173393 0.347777
C6_6 C 0.6825(4) 0.1410(3) 0.3125(5)
C7_6 C 0.6317(5) 0.1376(4) 0.3049(6)
H5_6 H 0.620053 0.119694 0.283139
C8_6 C 0.5988(5) 0.1605(5) 0.3292(7)
H6_6 H 0.565462 0.158103 0.323234
C9_6 C 0.750000 0.1370(4) 0.250000
H7_6 H 0.749998 0.162205 0.249999
C10_6 C 0.7178(4) 0.1196(3) 0.2811(5)
C11_6 C 0.7187(6) 0.0806(4) 0.2821(6)
C12_6 C 0.750000 0.0618(5) 0.250000
C13_6 C 0.6541(6) 0.0394(4) 0.3011(6)
H8_6 H 0.647977 0.035473 0.266495
H9_6 H 0.635466 0.027624 0.325709
C14_6 C 0.750000 0.0210(4) 0.250000
C15_6 C 0.7807(5) 0.0035(4) 0.2841(5)
C16_6 C 0.7977(6) 0.0216(4) 0.3678(5)
H10_6 H 0.814559 0.002096 0.384429
H11_6 H 0.763137 0.017870 0.370487
H12_6 H 0.806264 0.044076 0.383950
O2_4 O 0.4656(4) 0.2285(3) 0.4255(4)
O3_6 O 0.5873(3) 0.2090(3) 0.3896(4)
O4_6 O 0.6901(4) 0.0625(3) 0.3155(4)
O5_6 O 0.8112(4) 0.0228(3) 0.3156(4)
C51_6 C 0.9883(6) 0.2302(5) 0.0741(6)
C52_6 C 0.9615(6) 0.2041(6) 0.1129(9)
H39_6 H 0.969297 0.179177 0.104675
H40_6 H 0.972735 0.208973 0.147398
C53_6 C 0.8839(5) 0.1871(4) 0.1371(6)
C54_6 C 0.8329(5) 0.1912(3) 0.1292(6)
H41_6 H 0.821481 0.208471 0.106245
C55_6 C 0.8000(6) 0.1694(4) 0.1555(6)
H42_6 H 0.766632 0.173393 0.152223
C56_6 C 0.8175(4) 0.1410(3) 0.1875(5)
C57_6 C 0.8683(5) 0.1376(4) 0.1951(6)
H43_6 H 0.879947 0.119694 0.216861
C58_6 C 0.9012(5) 0.1605(5) 0.1708(7)
H44_6 H 0.934538 0.158103 0.176766
C59_6 C 0.7822(4) 0.1196(3) 0.2189(5)
C60_6 C 0.7813(6) 0.0806(4) 0.2179(6)
C61_6 C 0.8459(6) 0.0394(4) 0.1989(6)
H45_6 H 0.852023 0.035473 0.233505
H46_6 H 0.864534 0.027624 0.174291
C62_6 C 0.7193(5) 0.0035(4) 0.2159(5)
C63_6 C 0.7023(6) 0.0216(4) 0.1322(5)
H47_6 H 0.685441 0.002096 0.115571
H48_6 H 0.736863 0.017870 0.129513
H49_6 H 0.693736 0.044076 0.116050
O18_6 O 0.9606(4) 0.2513(3) 0.0511(4)
O20_6 O 0.9127(3) 0.2090(3) 0.1104(4)
O21_6 O 0.8099(4) 0.0625(3) 0.1845(4)
O22_6 O 0.6888(4) 0.0228(3) 0.1844(4)
O36_4 O 0.4606(4) 0.2513(3) 0.5511(4)
O44_6 O 0.8230(4) 0.2440(3) 0.4727(4)
O45_6 O 0.7723(4) 0.2028(3) 0.4460(4)
O47_6 O 0.7871(6) 0.2882(4) 0.5558(5)
H75_6 H 0.680027 0.017061 0.301203
H78_6 H 0.819973 0.017061 0.198797
C17_6 C 0.7829(6) 0.9655(3) 0.2829(5)
C18_6 C 0.750000 0.9467(5) 0.250000
H13_6 H 0.750000 0.921516 0.249999
C19_6 C 0.8175(8) 0.9431(3) 0.3146(5)
C20_6 C 0.8632(6) 0.9509(4) 0.3200(5)
H14_6 H 0.874338 0.972599 0.306138
C21_6 C 0.8972(7) 0.9289(4) 0.3453(6)
H15_6 H 0.930257 0.934539 0.346823
C22_6 C 0.8774(7) 0.8970(5) 0.3686(7)
C23_6 C 0.8270(8) 0.8894(4) 0.3623(7)
H16_6 H 0.813851 0.868600 0.376999
C24_6 C 0.8008(7) 0.9095(5) 0.3382(7)
H17_6 H 0.768125 0.903184 0.334482
C25_6 C 0.8963(8) 0.8450(5) 0.4182(9)
H18_6 H 0.871735 0.853206 0.442296
H19_6 H 0.880527 0.828425 0.394591
C26_6 C 0.9337(6) 0.8255(4) 0.4460(5)
O6_6 O 0.9140(5) 0.8764(3) 0.3891(5)
O7_6 O 0.9784(5) 0.8322(3) 0.4382(4)
O8_6 O 0.9215(5) 0.8021(3) 0.4753(4)
C64_6 C 0.7171(6) 0.9655(3) 0.2171(5)
C65_6 C 0.6825(8) 0.9431(3) 0.1854(5)
C66_6 C 0.6368(6) 0.9509(4) 0.1800(5)
H50_6 H 0.625662 0.972599 0.193862
C67_6 C 0.6028(7) 0.9289(4) 0.1547(6)
H51_6 H 0.569743 0.934539 0.153177
C68_6 C 0.6226(7) 0.8970(5) 0.1314(7)
C69_6 C 0.6730(8) 0.8894(4) 0.1377(7)
H52_6 H 0.686149 0.868600 0.123001
C70_6 C 0.6992(7) 0.9095(5) 0.1618(7)
H53_6 H 0.731875 0.903184 0.165518
C71_6 C 0.6037(8) 0.8450(5) 0.0818(9)
H54_6 H 0.628265 0.853206 0.057704
H55_6 H 0.619473 0.828425 0.105409
C72_6 C 0.5663(6) 0.8255(4) 0.0540(5)
O23_6 O 0.5860(5) 0.8764(3) 0.1109(5)
C1_7 C 0.4883(6) 0.2302(5) 0.5741(6)
C2_7 C 0.4615(6) 0.2041(6) 0.6129(9)
H1_7 H 0.469297 0.179177 0.604675
H2_7 H 0.472735 0.208973 0.647398
C3_7 C 0.3839(5) 0.1871(4) 0.6371(6)
C4_7 C 0.3329(5) 0.1912(3) 0.6292(6)
H3_7 H 0.321481 0.208471 0.606245
C5_7 C 0.3000(6) 0.1694(4) 0.6555(6)
H4_7 H 0.266632 0.173393 0.652223
C6_7 C 0.3175(4) 0.1410(3) 0.6875(5)
C7_7 C 0.3683(5) 0.1376(4) 0.6951(6)
H5_7 H 0.379947 0.119694 0.716861
C8_7 C 0.4012(5) 0.1605(5) 0.6708(7)
H6_7 H 0.434538 0.158103 0.676766
C9_7 C 0.250000 0.1370(4) 0.750000
H7_7 H 0.250002 0.162205 0.750001
C10_7 C 0.2822(4) 0.1196(3) 0.7189(5)
C11_7 C 0.2813(6) 0.0806(4) 0.7179(6)
C12_7 C 0.250000 0.0618(5) 0.750000
C13_7 C 0.3459(6) 0.0394(4) 0.6989(6)
H8_7 H 0.352023 0.035473 0.733505
H9_7 H 0.364534 0.027624 0.674291
C14_7 C 0.250000 0.0210(4) 0.750000
C15_7 C 0.2193(5) 0.0035(4) 0.7159(5)
C16_7 C 0.2023(6) 0.0216(4) 0.6322(5)
H10_7 H 0.185441 0.002096 0.615571
H11_7 H 0.236863 0.017870 0.629513
H12_7 H 0.193736 0.044076 0.616050
C27_4 C 0.3162(6) 0.2846(4) 0.5516(5)
C28_4 C 0.3566(5) 0.3012(3) 0.5811(5)
H20_4 H 0.370973 0.283419 0.603909
H21_4 H 0.381780 0.309734 0.557938
C29_4 C 0.3712(5) 0.3527(4) 0.6342(6)
C30_4 C 0.4213(5) 0.3469(5) 0.6307(6)
H22_4 H 0.433492 0.327893 0.611270
C31_4 C 0.4535(5) 0.3702(3) 0.6570(6)
H23_4 H 0.486800 0.365392 0.656167
C32_4 C 0.4370(5) 0.3995(4) 0.6834(6)
C33_4 C 0.3856(5) 0.4067(4) 0.6841(5)
H24_4 H 0.373825 0.427135 0.700814
C34_4 C 0.3529(5) 0.3829(3) 0.6594(5)
H25_4 H 0.319463 0.387395 0.660076
C35_4 C 0.4687(6) 0.4221(4) 0.7155(5)
C36_4 C 0.5000(7) 0.4050(4) 0.7461(7)
H26_4 H 0.499216 0.379871 0.746841
C37_4 C 0.5355(7) 0.4238(4) 0.7786(6)
C38_4 C 0.5308(9) 0.4631(5) 0.7780(7)
C39_4 C 0.5024(6) 0.4795(3) 0.7456(5)
C40_4 C 0.4692(6) 0.4601(4) 0.7145(5)
C41_4 C 0.4429(7) 0.4747(4) 0.6270(7)
H27_4 H 0.436537 0.497235 0.609890
H28_4 H 0.419078 0.457114 0.616653
H29_4 H 0.474915 0.466311 0.618124
C42_4 C 0.5456(9) 0.4863(5) 0.8648(7)
H30_4 H 0.557488 0.508842 0.878086
H31_4 H 0.557551 0.466735 0.885465
H32_4 H 0.510531 0.486317 0.865418
C43_4 C 0.5683(4) 0.4021(3) 0.8107(6)
C44_4 C 0.5505(5) 0.3741(4) 0.8405(6)
H33_4 H 0.517062 0.370668 0.843548
C45_4 C 0.5825(5) 0.3513(4) 0.8656(7)
H34_4 H 0.570534 0.332509 0.885587
C46_4 C 0.6322(6) 0.3565(5) 0.8610(8)
C47_4 C 0.6500(5) 0.3845(5) 0.8313(9)
H35_4 H 0.683489 0.387937 0.828180
C48_4 C 0.6180(4) 0.4073(5) 0.8062(7)
H36_4 H 0.630017 0.426097 0.786143
C49_4 C 0.7136(10) 0.3382(9) 0.8843(12)
H37_4 H 0.721785 0.361110 0.900169
H38_4 H 0.722551 0.339483 0.848443
C50_4 C 0.7439(13) 0.3063(9) 0.9115(12)
O3_7 O 0.4127(3) 0.2090(3) 0.6104(4)
O4_7 O 0.3099(4) 0.0625(3) 0.6845(4)
O5_7 O 0.1888(4) 0.0228(3) 0.6844(4)
O9_4 O 0.3230(4) 0.2560(3) 0.5273(4)
O10_4 O 0.2723(4) 0.2972(3) 0.5540(4)
O11_4 O 0.3369(3) 0.3314(2) 0.6106(4)
O12_4 O 0.4399(4) 0.4802(2) 0.6830(4)
O13_4 O 0.5629(6) 0.4816(4) 0.8109(5)
O14_4 O 0.6630(7) 0.3321(4) 0.8886(7)
O16_4 O 0.7858(7) 0.3081(5) 0.9159(8)
O17_4 O 0.3642(6) 0.2495(7) 0.4218(9)
C51_7 C 0.0117(6) 0.2302(5) 0.9259(6)
C52_7 C 0.0385(6) 0.2041(6) 0.8871(9)
H39_7 H 0.030703 0.179177 0.895325
H40_7 H 0.027265 0.208973 0.852602
C53_7 C 0.1161(5) 0.1871(4) 0.8629(6)
C54_7 C 0.1671(5) 0.1912(3) 0.8708(6)
H41_7 H 0.178519 0.208471 0.893755
C55_7 C 0.2000(6) 0.1694(4) 0.8445(6)
H42_7 H 0.233368 0.173393 0.847777
C56_7 C 0.1825(4) 0.1410(3) 0.8125(5)
C57_7 C 0.1317(5) 0.1376(4) 0.8049(6)
H43_7 H 0.120053 0.119694 0.783139
C58_7 C 0.0988(5) 0.1605(5) 0.8292(7)
H44_7 H 0.065462 0.158103 0.823234
C59_7 C 0.2178(4) 0.1196(3) 0.7811(5)
C60_7 C 0.2187(6) 0.0806(4) 0.7821(6)
C61_7 C 0.1541(6) 0.0394(4) 0.8011(6)
H45_7 H 0.147977 0.035473 0.766495
H46_7 H 0.135466 0.027624 0.825709
C62_7 C 0.2807(5) 0.0035(4) 0.7841(5)
C63_7 C 0.2977(6) 0.0216(4) 0.8678(5)
H47_7 H 0.314559 0.002096 0.884429
H48_7 H 0.263137 0.017870 0.870487
H49_7 H 0.306264 0.044076 0.883950
O18_7 O 0.0394(4) 0.2513(3) 0.9489(4)
O20_7 O 0.0873(3) 0.2090(3) 0.8896(4)
O21_7 O 0.1901(4) 0.0625(3) 0.8155(4)
O22_7 O 0.3112(4) 0.0228(3) 0.8156(4)
C73_4 C 0.6838(6) 0.7154(4) 0.5516(5)
C74_4 C 0.6434(5) 0.6988(3) 0.5811(5)
H56_4 H 0.629027 0.716581 0.603909
H57_4 H 0.618220 0.690266 0.557938
C75_4 C 0.6288(5) 0.6473(4) 0.6342(6)
C76_4 C 0.5787(5) 0.6531(5) 0.6307(6)
H58_4 H 0.566508 0.672107 0.611270
C77_4 C 0.5465(5) 0.6298(3) 0.6570(6)
H59_4 H 0.513200 0.634608 0.656167
C78_4 C 0.5630(5) 0.6005(4) 0.6834(6)
C79_4 C 0.6144(5) 0.5933(4) 0.6841(5)
H60_4 H 0.626175 0.572865 0.700814
C80_4 C 0.6471(5) 0.6171(3) 0.6594(5)
H61_4 H 0.680537 0.612605 0.660076
C81_4 C 0.5313(6) 0.5779(4) 0.7155(5)
C82_4 C 0.5000(7) 0.5950(4) 0.7461(7)
H62_4 H 0.500784 0.620129 0.746841
C83_4 C 0.4645(7) 0.5762(4) 0.7786(6)
C84_4 C 0.4692(9) 0.5369(5) 0.7780(7)
C85_4 C 0.4976(6) 0.5205(3) 0.7456(5)
C86_4 C 0.5308(6) 0.5399(4) 0.7145(5)
C87_4 C 0.5571(7) 0.5253(4) 0.6270(7)
H63_4 H 0.563463 0.502765 0.609890
H64_4 H 0.580922 0.542886 0.616653
H65_4 H 0.525085 0.533689 0.618124
C88_4 C 0.4544(9) 0.5137(5) 0.8648(7)
H66_4 H 0.442512 0.491158 0.878086
H67_4 H 0.442449 0.533265 0.885465
H68_4 H 0.489469 0.513683 0.865418
C89_4 C 0.4317(4) 0.5979(3) 0.8107(6)
C90_4 C 0.4495(5) 0.6259(4) 0.8405(6)
H69_4 H 0.482938 0.629332 0.843548
C91_4 C 0.4175(5) 0.6487(4) 0.8656(7)
H70_4 H 0.429466 0.667491 0.885587
C92_4 C 0.3678(6) 0.6435(5) 0.8610(8)
C93_4 C 0.3500(5) 0.6155(5) 0.8313(9)
H71_4 H 0.316511 0.612063 0.828180
C94_4 C 0.3820(4) 0.5927(5) 0.8062(7)
H72_4 H 0.369983 0.573903 0.786143
C95_4 C 0.2864(10) 0.6618(9) 0.8843(12)
H73_4 H 0.278215 0.638890 0.900169
H74_4 H 0.277449 0.660517 0.848443
C96_4 C 0.2561(13) 0.6937(9) 0.9115(12)
O26_4 O 0.6770(4) 0.7440(3) 0.5273(4)
O27_4 O 0.7277(4) 0.7028(3) 0.5540(4)
O28_4 O 0.6631(3) 0.6686(2) 0.6106(4)
O29_4 O 0.5601(4) 0.5198(2) 0.6830(4)
O30_4 O 0.4371(6) 0.5184(4) 0.8109(5)
O31_4 O 0.3370(7) 0.6679(4) 0.8886(7)
O33_4 O 0.2142(7) 0.6919(5) 0.9159(8)
O34_4 O 0.6358(6) 0.7505(7) 0.4218(9)
O44_7 O 0.1770(4) 0.2440(3) 0.5273(4)
O45_7 O 0.2277(4) 0.2028(3) 0.5540(4)
O47_7 O 0.2129(6) 0.2882(4) 0.4442(5)
H75_7 H 0.319973 0.017061 0.698797
H78_7 H 0.180027 0.017061 0.801203
C17_7 C 0.2171(6) 0.9655(3) 0.7171(5)
C18_7 C 0.250000 0.9467(5) 0.750000
H13_7 H 0.250000 0.921516 0.750001
C19_7 C 0.1825(8) 0.9431(3) 0.6854(5)
C20_7 C 0.1368(6) 0.9509(4) 0.6800(5)
H14_7 H 0.125662 0.972599 0.693862
C21_7 C 0.1028(7) 0.9289(4) 0.6547(6)
H15_7 H 0.069743 0.934539 0.653177
C22_7 C 0.1226(7) 0.8970(5) 0.6314(7)
C23_7 C 0.1730(8) 0.8894(4) 0.6377(7)
H16_7 H 0.186149 0.868600 0.623001
C24_7 C 0.1992(7) 0.9095(5) 0.6618(7)
H17_7 H 0.231875 0.903184 0.665518
C25_7 C 0.1037(8) 0.8450(5) 0.5818(9)
H18_7 H 0.128265 0.853206 0.557704
H19_7 H 0.119473 0.828425 0.605409
C26_7 C 0.0663(6) 0.8255(4) 0.5540(5)
O6_7 O 0.0860(5) 0.8764(3) 0.6109(5)
O7_7 O 0.0216(5) 0.8322(3) 0.5618(4)
O8_7 O 0.0785(5) 0.8021(3) 0.5247(4)
C64_7 C 0.2829(6) 0.9655(3) 0.7829(5)
C65_7 C 0.3175(8) 0.9431(3) 0.8146(5)
C66_7 C 0.3632(6) 0.9509(4) 0.8200(5)
H50_7 H 0.374338 0.972599 0.806138
C67_7 C 0.3972(7) 0.9289(4) 0.8453(6)
H51_7 H 0.430257 0.934539 0.846823
C68_7 C 0.3774(7) 0.8970(5) 0.8686(7)
C69_7 C 0.3270(8) 0.8894(4) 0.8623(7)
H52_7 H 0.313851 0.868600 0.876999
C70_7 C 0.3008(7) 0.9095(5) 0.8382(7)
H53_7 H 0.268125 0.903184 0.834482
C71_7 C 0.3963(8) 0.8450(5) 0.9182(9)
H54_7 H 0.371735 0.853206 0.942296
H55_7 H 0.380527 0.828425 0.894591
C72_7 C 0.4337(6) 0.8255(4) 0.9460(5)
O23_7 O 0.4140(5) 0.8764(3) 0.8891(5)
O19_7 O 0.9656(4) 0.2285(3) 0.9255(4)
O19_8 O 0.0344(4) 0.7715(3) 0.9255(4)
C17_8 C 0.7829(6) 0.0345(3) 0.7171(5)
C18_8 C 0.750000 0.0533(5) 0.750000
H13_8 H 0.750000 0.078484 0.750001
C19_8 C 0.8175(8) 0.0569(3) 0.6854(5)
C20_8 C 0.8632(6) 0.0491(4) 0.6800(5)
H14_8 H 0.874338 0.027401 0.693862
C21_8 C 0.8972(7) 0.0711(4) 0.6547(6)
H15_8 H 0.930257 0.065461 0.653177
C22_8 C 0.8774(7) 0.1030(5) 0.6314(7)
C23_8 C 0.8270(8) 0.1106(4) 0.6377(7)
H16_8 H 0.813851 0.131400 0.623001
C24_8 C 0.8008(7) 0.0905(5) 0.6618(7)
H17_8 H 0.768125 0.096816 0.665518
C25_8 C 0.8963(8) 0.1550(5) 0.5818(9)
H18_8 H 0.871735 0.146794 0.557704
H19_8 H 0.880527 0.171575 0.605409
C26_8 C 0.9337(6) 0.1745(4) 0.5540(5)
O6_8 O 0.9140(5) 0.1236(3) 0.6109(5)
O7_8 O 0.9784(5) 0.1678(3) 0.5618(4)
O8_8 O 0.9215(5) 0.1979(3) 0.5247(4)
C64_8 C 0.7171(6) 0.0345(3) 0.7829(5)
C65_8 C 0.6825(8) 0.0569(3) 0.8146(5)
C66_8 C 0.6368(6) 0.0491(4) 0.8200(5)
H50_8 H 0.625662 0.027401 0.806138
C67_8 C 0.6028(7) 0.0711(4) 0.8453(6)
H51_8 H 0.569743 0.065461 0.846823
C68_8 C 0.6226(7) 0.1030(5) 0.8686(7)
C69_8 C 0.6730(8) 0.1106(4) 0.8623(7)
H52_8 H 0.686149 0.131400 0.876999
C70_8 C 0.6992(7) 0.0905(5) 0.8382(7)
H53_8 H 0.731875 0.096816 0.834482
C71_8 C 0.6037(8) 0.1550(5) 0.9182(9)
H54_8 H 0.628265 0.146794 0.942296
H55_8 H 0.619473 0.171575 0.894591
C72_8 C 0.5663(6) 0.1745(4) 0.9460(5)
O23_8 O 0.5860(5) 0.1236(3) 0.8891(5)
C1_8 C 0.5117(6) 0.7698(5) 0.5741(6)
C2_8 C 0.5385(6) 0.7959(6) 0.6129(9)
H1_8 H 0.530703 0.820823 0.604675
H2_8 H 0.527265 0.791027 0.647398
C3_8 C 0.6161(5) 0.8129(4) 0.6371(6)
C4_8 C 0.6671(5) 0.8088(3) 0.6292(6)
H3_8 H 0.678519 0.791529 0.606245
C5_8 C 0.7000(6) 0.8306(4) 0.6555(6)
H4_8 H 0.733368 0.826607 0.652223
C6_8 C 0.6825(4) 0.8590(3) 0.6875(5)
C7_8 C 0.6317(5) 0.8624(4) 0.6951(6)
H5_8 H 0.620053 0.880306 0.716861
C8_8 C 0.5988(5) 0.8395(5) 0.6708(7)
H6_8 H 0.565462 0.841897 0.676766
C9_8 C 0.750000 0.8630(4) 0.750000
H7_8 H 0.749998 0.837795 0.750001
C10_8 C 0.7178(4) 0.8804(3) 0.7189(5)
C11_8 C 0.7187(6) 0.9194(4) 0.7179(6)
C12_8 C 0.750000 0.9382(5) 0.750000
C13_8 C 0.6541(6) 0.9606(4) 0.6989(6)
H8_8 H 0.647977 0.964527 0.733505
H9_8 H 0.635466 0.972376 0.674291
C14_8 C 0.750000 0.9790(4) 0.750000
C15_8 C 0.7807(5) 0.9965(4) 0.7159(5)
C16_8 C 0.7977(6) 0.9784(4) 0.6322(5)
H10_8 H 0.814559 0.997904 0.615571
H11_8 H 0.763137 0.982130 0.629513
H12_8 H 0.806264 0.955924 0.616050
O3_8 O 0.5873(3) 0.7910(3) 0.6104(4)
O4_8 O 0.6901(4) 0.9375(3) 0.6845(4)
O5_8 O 0.8112(4) 0.9772(3) 0.6844(4)
C51_8 C 0.9883(6) 0.7698(5) 0.9259(6)
C52_8 C 0.9615(6) 0.7959(6) 0.8871(9)
H39_8 H 0.969297 0.820823 0.895325
H40_8 H 0.972735 0.791027 0.852602
C53_8 C 0.8839(5) 0.8129(4) 0.8629(6)
C54_8 C 0.8329(5) 0.8088(3) 0.8708(6)
H41_8 H 0.821481 0.791529 0.893755
C55_8 C 0.8000(6) 0.8306(4) 0.8445(6)
H42_8 H 0.766632 0.826607 0.847777
C56_8 C 0.8175(4) 0.8590(3) 0.8125(5)
C57_8 C 0.8683(5) 0.8624(4) 0.8049(6)
H43_8 H 0.879947 0.880306 0.783139
C58_8 C 0.9012(5) 0.8395(5) 0.8292(7)
H44_8 H 0.934538 0.841897 0.823234
C59_8 C 0.7822(4) 0.8804(3) 0.7811(5)
C60_8 C 0.7813(6) 0.9194(4) 0.7821(6)
C61_8 C 0.8459(6) 0.9606(4) 0.8011(6)
H45_8 H 0.852023 0.964527 0.766495
H46_8 H 0.864534 0.972376 0.825709
C62_8 C 0.7193(5) 0.9965(4) 0.7841(5)
C63_8 C 0.7023(6) 0.9784(4) 0.8678(5)
H47_8 H 0.685441 0.997904 0.884429
H48_8 H 0.736863 0.982130 0.870487
H49_8 H 0.693736 0.955924 0.883950
O18_8 O 0.9606(4) 0.7487(3) 0.9489(4)
O20_8 O 0.9127(3) 0.7910(3) 0.8896(4)
O21_8 O 0.8099(4) 0.9375(3) 0.8155(4)
O22_8 O 0.6888(4) 0.9772(3) 0.8156(4)
O44_8 O 0.8230(4) 0.7560(3) 0.5273(4)
O45_8 O 0.7723(4) 0.7972(3) 0.5540(4)
O47_8 O 0.7871(6) 0.7118(4) 0.4442(5)
H75_8 H 0.680027 0.982939 0.698797
H78_8 H 0.819973 0.982939 0.801203
C36_5 C 0.0000(7) 0.0950(4) 0.2539(7)
C37_5 C 0.0355(7) 0.0762(4) 0.2214(6)
C38_5 C 0.0308(9) 0.0369(5) 0.2220(7)
C39_5 C 0.0024(6) 0.0205(3) 0.2544(5)
C42_5 C 0.0456(9) 0.0137(5) 0.1352(7)
H31_5 H 0.057551 0.033265 0.114535
H32_5 H 0.010531 0.013683 0.134582
C43_5 C 0.0683(4) 0.0979(3) 0.1893(6)
C44_5 C 0.0505(5) 0.1259(4) 0.1595(6)
H33_5 H 0.017062 0.129332 0.156452
C45_5 C 0.0825(5) 0.1487(4) 0.1344(7)
H34_5 H 0.070534 0.167491 0.114413
C46_5 C 0.1322(6) 0.1435(5) 0.1390(8)
C47_5 C 0.1500(5) 0.1155(5) 0.1687(9)
H35_5 H 0.183489 0.112063 0.171820
C48_5 C 0.1180(4) 0.0927(5) 0.1938(7)
H36_5 H 0.130017 0.073903 0.213857
C49_5 C 0.2136(10) 0.1618(9) 0.1157(12)
H37_5 H 0.221785 0.138890 0.099831
H38_5 H 0.222551 0.160517 0.151557
C50_5 C 0.2439(13) 0.1937(9) 0.0885(12)
O13_5 O 0.0629(6) 0.0184(4) 0.1891(5)
O14_5 O 0.1630(7) 0.1679(4) 0.1114(7)
O16_5 O 0.2858(7) 0.1919(5) 0.0841(8)
H30_5 H 0.057488 0.991158 0.121914
C73_5 C 0.1838(6) 0.7846(4) 0.4484(5)
C74_5 C 0.1434(5) 0.8012(3) 0.4189(5)
H56_5 H 0.129027 0.783419 0.396091
H57_5 H 0.118220 0.809734 0.442062
C75_5 C 0.1288(5) 0.8527(4) 0.3658(6)
C76_5 C 0.0787(5) 0.8469(5) 0.3693(6)
H58_5 H 0.066508 0.827893 0.388730
C77_5 C 0.0465(5) 0.8702(3) 0.3430(6)
H59_5 H 0.013200 0.865392 0.343833
C78_5 C 0.0630(5) 0.8995(4) 0.3166(6)
C79_5 C 0.1144(5) 0.9067(4) 0.3159(5)
H60_5 H 0.126175 0.927135 0.299186
C80_5 C 0.1471(5) 0.8829(3) 0.3406(5)
H61_5 H 0.180537 0.887395 0.339924
C81_5 C 0.0313(6) 0.9221(4) 0.2845(5)
C82_5 C 0.0000(7) 0.9050(4) 0.2539(7)
H62_5 H 0.000784 0.879871 0.253159
C86_5 C 0.0308(6) 0.9601(4) 0.2855(5)
C87_5 C 0.0571(7) 0.9747(4) 0.3730(7)
H63_5 H 0.063463 0.997235 0.390110
H64_5 H 0.080922 0.957114 0.383347
H65_5 H 0.025085 0.966311 0.381876
O28_5 O 0.1631(3) 0.8314(2) 0.3894(4)
O29_5 O 0.0601(4) 0.9802(2) 0.3170(4)
O34_5 O 0.1358(6) 0.7495(7) 0.5782(9)
C27_5 C 0.8162(6) 0.2154(4) 0.4484(5)
C28_5 C 0.8566(5) 0.1988(3) 0.4189(5)
H20_5 H 0.870973 0.216581 0.396091
H21_5 H 0.881780 0.190266 0.442062
C29_5 C 0.8712(5) 0.1473(4) 0.3658(6)
C30_5 C 0.9213(5) 0.1531(5) 0.3693(6)
H22_5 H 0.933492 0.172107 0.388730
C31_5 C 0.9535(5) 0.1298(3) 0.3430(6)
H23_5 H 0.986800 0.134608 0.343833
C32_5 C 0.9370(5) 0.1005(4) 0.3166(6)
C33_5 C 0.8856(5) 0.0933(4) 0.3159(5)
H24_5 H 0.873825 0.072865 0.299186
C34_5 C 0.8529(5) 0.1171(3) 0.3406(5)
H25_5 H 0.819463 0.112605 0.339924
C35_5 C 0.9687(6) 0.0779(4) 0.2845(5)
C36_6 C 1.0000(7) 0.0950(4) 0.2539(7)
H26_5 H 0.999216 0.120129 0.253159
C40_5 C 0.9692(6) 0.0399(4) 0.2855(5)
C41_5 C 0.9429(7) 0.0253(4) 0.3730(7)
H27_5 H 0.936537 0.002765 0.390110
H28_5 H 0.919078 0.042886 0.383347
H29_5 H 0.974915 0.033689 0.381876
O11_5 O 0.8369(3) 0.1686(2) 0.3894(4)
O12_5 O 0.9399(4) 0.0198(2) 0.3170(4)
O17_5 O 0.8642(6) 0.2505(7) 0.5782(9)
H66_5 H 0.942512 0.008842 0.121914
C82_6 C 1.0000(7) 0.9050(4) 0.2539(7)
C83_5 C 0.9645(7) 0.9238(4) 0.2214(6)
C84_5 C 0.9692(9) 0.9631(5) 0.2220(7)
C85_5 C 0.9976(6) 0.9795(3) 0.2544(5)
C88_5 C 0.9544(9) 0.9863(5) 0.1352(7)
H67_5 H 0.942449 0.966735 0.114535
H68_5 H 0.989469 0.986317 0.134582
C89_5 C 0.9317(4) 0.9021(3) 0.1893(6)
C90_5 C 0.9495(5) 0.8741(4) 0.1595(6)
H69_5 H 0.982938 0.870668 0.156452
C91_5 C 0.9175(5) 0.8513(4) 0.1344(7)
H70_5 H 0.929466 0.832509 0.114413
C92_5 C 0.8678(6) 0.8565(5) 0.1390(8)
C93_5 C 0.8500(5) 0.8845(5) 0.1687(9)
H71_5 H 0.816511 0.887937 0.171820
C94_5 C 0.8820(4) 0.9073(5) 0.1938(7)
H72_5 H 0.869983 0.926097 0.213857
C95_5 C 0.7864(10) 0.8382(9) 0.1157(12)
H73_5 H 0.778215 0.861110 0.099831
H74_5 H 0.777449 0.839483 0.151557
C96_5 C 0.7561(13) 0.8063(9) 0.0885(12)
O30_5 O 0.9371(6) 0.9816(4) 0.1891(5)
O31_5 O 0.8370(7) 0.8321(4) 0.1114(7)
O33_5 O 0.7142(7) 0.8081(5) 0.0841(8)
H30_6 H 0.057488 0.008842 0.878086
C73_6 C 0.1838(6) 0.2154(4) 0.5516(5)
C74_6 C 0.1434(5) 0.1988(3) 0.5811(5)
H56_6 H 0.129027 0.216581 0.603909
H57_6 H 0.118220 0.190266 0.557938
C75_6 C 0.1288(5) 0.1473(4) 0.6342(6)
C76_6 C 0.0787(5) 0.1531(5) 0.6307(6)
H58_6 H 0.066508 0.172107 0.611270
C77_6 C 0.0465(5) 0.1298(3) 0.6570(6)
H59_6 H 0.013200 0.134608 0.656167
C78_6 C 0.0630(5) 0.1005(4) 0.6834(6)
C79_6 C 0.1144(5) 0.0933(4) 0.6841(5)
H60_6 H 0.126175 0.072865 0.700814
C80_6 C 0.1471(5) 0.1171(3) 0.6594(5)
H61_6 H 0.180537 0.112605 0.660076
C81_6 C 0.0313(6) 0.0779(4) 0.7155(5)
C82_7 C 0.0000(7) 0.0950(4) 0.7461(7)
H62_6 H 0.000784 0.120129 0.746841
C86_6 C 0.0308(6) 0.0399(4) 0.7145(5)
C87_6 C 0.0571(7) 0.0253(4) 0.6270(7)
H63_6 H 0.063463 0.002765 0.609890
H64_6 H 0.080922 0.042886 0.616653
H65_6 H 0.025085 0.033689 0.618124
O28_6 O 0.1631(3) 0.1686(2) 0.6106(4)
O29_6 O 0.0601(4) 0.0198(2) 0.6830(4)
O34_6 O 0.1358(6) 0.2505(7) 0.4218(9)
C36_7 C 0.0000(7) 0.9050(4) 0.7461(7)
C37_6 C 0.0355(7) 0.9238(4) 0.7786(6)
C38_6 C 0.0308(9) 0.9631(5) 0.7780(7)
C39_6 C 0.0024(6) 0.9795(3) 0.7456(5)
C42_6 C 0.0456(9) 0.9863(5) 0.8648(7)
H31_6 H 0.057551 0.966735 0.885465
H32_6 H 0.010531 0.986317 0.865418
C43_6 C 0.0683(4) 0.9021(3) 0.8107(6)
C44_6 C 0.0505(5) 0.8741(4) 0.8405(6)
H33_6 H 0.017062 0.870668 0.843548
C45_6 C 0.0825(5) 0.8513(4) 0.8656(7)
H34_6 H 0.070534 0.832509 0.885587
C46_6 C 0.1322(6) 0.8565(5) 0.8610(8)
C47_6 C 0.1500(5) 0.8845(5) 0.8313(9)
H35_6 H 0.183489 0.887937 0.828180
C48_6 C 0.1180(4) 0.9073(5) 0.8062(7)
H36_6 H 0.130017 0.926097 0.786143
C49_6 C 0.2136(10) 0.8382(9) 0.8843(12)
H37_6 H 0.221785 0.861110 0.900169
H38_6 H 0.222551 0.839483 0.848443
C50_6 C 0.2439(13) 0.8063(9) 0.9115(12)
O13_6 O 0.0629(6) 0.9816(4) 0.8109(5)
O14_6 O 0.1630(7) 0.8321(4) 0.8886(7)
O16_6 O 0.2858(7) 0.8081(5) 0.9159(8)
C82_8 C 1.0000(7) 0.0950(4) 0.7461(7)
C83_6 C 0.9645(7) 0.0762(4) 0.7786(6)
C84_6 C 0.9692(9) 0.0369(5) 0.7780(7)
C85_6 C 0.9976(6) 0.0205(3) 0.7456(5)
C88_6 C 0.9544(9) 0.0137(5) 0.8648(7)
H67_6 H 0.942449 0.033265 0.885465
H68_6 H 0.989469 0.013683 0.865418
C89_6 C 0.9317(4) 0.0979(3) 0.8107(6)
C90_6 C 0.9495(5) 0.1259(4) 0.8405(6)
H69_6 H 0.982938 0.129332 0.843548
C91_6 C 0.9175(5) 0.1487(4) 0.8656(7)
H70_6 H 0.929466 0.167491 0.885587
C92_6 C 0.8678(6) 0.1435(5) 0.8610(8)
C93_6 C 0.8500(5) 0.1155(5) 0.8313(9)
H71_6 H 0.816511 0.112063 0.828180
C94_6 C 0.8820(4) 0.0927(5) 0.8062(7)
H72_6 H 0.869983 0.073903 0.786143
C95_6 C 0.7864(10) 0.1618(9) 0.8843(12)
H73_6 H 0.778215 0.138890 0.900169
H74_6 H 0.777449 0.160517 0.848443
C96_6 C 0.7561(13) 0.1937(9) 0.9115(12)
O30_6 O 0.9371(6) 0.0184(4) 0.8109(5)
O31_6 O 0.8370(7) 0.1679(4) 0.8886(7)
O33_6 O 0.7142(7) 0.1919(5) 0.9159(8)
C27_6 C 0.8162(6) 0.7846(4) 0.5516(5)
C28_6 C 0.8566(5) 0.8012(3) 0.5811(5)
H20_6 H 0.870973 0.783419 0.603909
H21_6 H 0.881780 0.809734 0.557938
C29_6 C 0.8712(5) 0.8527(4) 0.6342(6)
C30_6 C 0.9213(5) 0.8469(5) 0.6307(6)
H22_6 H 0.933492 0.827893 0.611270
C31_6 C 0.9535(5) 0.8702(3) 0.6570(6)
H23_6 H 0.986800 0.865392 0.656167
C32_6 C 0.9370(5) 0.8995(4) 0.6834(6)
C33_6 C 0.8856(5) 0.9067(4) 0.6841(5)
H24_6 H 0.873825 0.927135 0.700814
C34_6 C 0.8529(5) 0.8829(3) 0.6594(5)
H25_6 H 0.819463 0.887395 0.660076
C35_6 C 0.9687(6) 0.9221(4) 0.7155(5)
C36_8 C 1.0000(7) 0.9050(4) 0.7461(7)
H26_6 H 0.999216 0.879871 0.746841
C40_6 C 0.9692(6) 0.9601(4) 0.7145(5)
C41_6 C 0.9429(7) 0.9747(4) 0.6270(7)
H27_6 H 0.936537 0.997235 0.609890
H28_6 H 0.919078 0.957114 0.616653
H29_6 H 0.974915 0.966311 0.618124
O11_6 O 0.8369(3) 0.8314(2) 0.6106(4)
O12_6 O 0.9399(4) 0.9802(2) 0.6830(4)
O17_6 O 0.8642(6) 0.7495(7) 0.4218(9)
H66_6 H 0.942512 0.991158 0.878086
O34_7 O 0.1358(6) 0.2495(7) 0.0782(9)
C36_9 C 0.0000(7) 0.5950(4) 0.7539(7)
C37_7 C 0.0355(7) 0.5762(4) 0.7214(6)
C38_7 C 0.0308(9) 0.5369(5) 0.7220(7)
C39_7 C 0.0024(6) 0.5205(3) 0.7544(5)
C42_7 C 0.0456(9) 0.5137(5) 0.6352(7)
H30_7 H 0.057488 0.491158 0.621914
H31_7 H 0.057551 0.533265 0.614535
H32_7 H 0.010531 0.513683 0.634582
C43_7 C 0.0683(4) 0.5979(3) 0.6893(6)
C44_7 C 0.0505(5) 0.6259(4) 0.6595(6)
H33_7 H 0.017062 0.629332 0.656452
C45_7 C 0.0825(5) 0.6487(4) 0.6344(7)
H34_7 H 0.070534 0.667491 0.614413
C46_7 C 0.1322(6) 0.6435(5) 0.6390(8)
C47_7 C 0.1500(5) 0.6155(5) 0.6687(9)
H35_7 H 0.183489 0.612063 0.671820
C48_7 C 0.1180(4) 0.5927(5) 0.6938(7)
H36_7 H 0.130017 0.573903 0.713857
C49_7 C 0.2136(10) 0.6618(9) 0.6157(12)
H37_7 H 0.221785 0.638890 0.599831
H38_7 H 0.222551 0.660517 0.651557
C50_7 C 0.2439(13) 0.6937(9) 0.5885(12)
O13_7 O 0.0629(6) 0.5184(4) 0.6891(5)
O14_7 O 0.1630(7) 0.6679(4) 0.6114(7)
O16_7 O 0.2858(7) 0.6919(5) 0.5841(8)
C73_7 C 0.1838(6) 0.2846(4) 0.9484(5)
C74_7 C 0.1434(5) 0.3012(3) 0.9189(5)
H56_7 H 0.129027 0.283419 0.896091
H57_7 H 0.118220 0.309734 0.942062
C75_7 C 0.1288(5) 0.3527(4) 0.8658(6)
C76_7 C 0.0787(5) 0.3469(5) 0.8693(6)
H58_7 H 0.066508 0.327893 0.888730
C77_7 C 0.0465(5) 0.3702(3) 0.8430(6)
H59_7 H 0.013200 0.365392 0.843833
C78_7 C 0.0630(5) 0.3995(4) 0.8166(6)
C79_7 C 0.1144(5) 0.4067(4) 0.8159(5)
H60_7 H 0.126175 0.427135 0.799186
C80_7 C 0.1471(5) 0.3829(3) 0.8406(5)
H61_7 H 0.180537 0.387395 0.839924
C81_7 C 0.0313(6) 0.4221(4) 0.7845(5)
C82_9 C 0.0000(7) 0.4050(4) 0.7539(7)
H62_7 H 0.000784 0.379871 0.753159
C86_7 C 0.0308(6) 0.4601(4) 0.7855(5)
C87_7 C 0.0571(7) 0.4747(4) 0.8730(7)
H63_7 H 0.063463 0.497235 0.890110
H64_7 H 0.080922 0.457114 0.883347
H65_7 H 0.025085 0.466311 0.881876
O28_7 O 0.1631(3) 0.3314(2) 0.8894(4)
O29_7 O 0.0601(4) 0.4802(2) 0.8170(4)
O17_7 O 0.8642(6) 0.7505(7) 0.0782(9)
C27_7 C 0.8162(6) 0.7154(4) 0.9484(5)
C28_7 C 0.8566(5) 0.6988(3) 0.9189(5)
H20_7 H 0.870973 0.716581 0.896091
H21_7 H 0.881780 0.690266 0.942062
C29_7 C 0.8712(5) 0.6473(4) 0.8658(6)
C30_7 C 0.9213(5) 0.6531(5) 0.8693(6)
H22_7 H 0.933492 0.672107 0.888730
C31_7 C 0.9535(5) 0.6298(3) 0.8430(6)
H23_7 H 0.986800 0.634608 0.843833
C32_7 C 0.9370(5) 0.6005(4) 0.8166(6)
C33_7 C 0.8856(5) 0.5933(4) 0.8159(5)
H24_7 H 0.873825 0.572865 0.799186
C34_7 C 0.8529(5) 0.6171(3) 0.8406(5)
H25_7 H 0.819463 0.612605 0.839924
C35_7 C 0.9687(6) 0.5779(4) 0.7845(5)
C36_10 C 1.0000(7) 0.5950(4) 0.7539(7)
H26_7 H 0.999216 0.620129 0.753159
C40_7 C 0.9692(6) 0.5399(4) 0.7855(5)
C41_7 C 0.9429(7) 0.5253(4) 0.8730(7)
H27_7 H 0.936537 0.502765 0.890110
H28_7 H 0.919078 0.542886 0.883347
H29_7 H 0.974915 0.533689 0.881876
O11_7 O 0.8369(3) 0.6686(2) 0.8894(4)
O12_7 O 0.9399(4) 0.5198(2) 0.8170(4)
C82_10 C 1.0000(7) 0.4050(4) 0.7539(7)
C83_7 C 0.9645(7) 0.4238(4) 0.7214(6)
C84_7 C 0.9692(9) 0.4631(5) 0.7220(7)
C85_7 C 0.9976(6) 0.4795(3) 0.7544(5)
C88_7 C 0.9544(9) 0.4863(5) 0.6352(7)
H66_7 H 0.942512 0.508842 0.621914
H67_7 H 0.942449 0.466735 0.614535
H68_7 H 0.989469 0.486317 0.634582
C89_7 C 0.9317(4) 0.4021(3) 0.6893(6)
C90_7 C 0.9495(5) 0.3741(4) 0.6595(6)
H69_7 H 0.982938 0.370668 0.656452
C91_7 C 0.9175(5) 0.3513(4) 0.6344(7)
H70_7 H 0.929466 0.332509 0.614413
C92_7 C 0.8678(6) 0.3565(5) 0.6390(8)
C93_7 C 0.8500(5) 0.3845(5) 0.6687(9)
H71_7 H 0.816511 0.387937 0.671820
C94_7 C 0.8820(4) 0.4073(5) 0.6938(7)
H72_7 H 0.869983 0.426097 0.713857
C95_7 C 0.7864(10) 0.3382(9) 0.6157(12)
H73_7 H 0.778215 0.361110 0.599831
H74_7 H 0.777449 0.339483 0.651557
C96_7 C 0.7561(13) 0.3063(9) 0.5885(12)
O30_7 O 0.9371(6) 0.4816(4) 0.6891(5)
O31_7 O 0.8370(7) 0.3321(4) 0.6114(7)
O33_7 O 0.7142(7) 0.3081(5) 0.5841(8)
C36_11 C 0.0000(7) 0.4050(4) 0.2461(7)
C37_8 C 0.0355(7) 0.4238(4) 0.2786(6)
C38_8 C 0.0308(9) 0.4631(5) 0.2780(7)
C39_8 C 0.0024(6) 0.4795(3) 0.2456(5)
C42_8 C 0.0456(9) 0.4863(5) 0.3648(7)
H30_8 H 0.057488 0.508842 0.378086
H31_8 H 0.057551 0.466735 0.385465
H32_8 H 0.010531 0.486317 0.365418
C43_8 C 0.0683(4) 0.4021(3) 0.3107(6)
C44_8 C 0.0505(5) 0.3741(4) 0.3405(6)
H33_8 H 0.017062 0.370668 0.343548
C45_8 C 0.0825(5) 0.3513(4) 0.3656(7)
H34_8 H 0.070534 0.332509 0.385587
C46_8 C 0.1322(6) 0.3565(5) 0.3610(8)
C47_8 C 0.1500(5) 0.3845(5) 0.3313(9)
H35_8 H 0.183489 0.387937 0.328180
C48_8 C 0.1180(4) 0.4073(5) 0.3062(7)
H36_8 H 0.130017 0.426097 0.286143
C49_8 C 0.2136(10) 0.3382(9) 0.3843(12)
H37_8 H 0.221785 0.361110 0.400169
H38_8 H 0.222551 0.339483 0.348443
C50_8 C 0.2439(13) 0.3063(9) 0.4115(12)
O13_8 O 0.0629(6) 0.4816(4) 0.3109(5)
O14_8 O 0.1630(7) 0.3321(4) 0.3886(7)
O16_8 O 0.2858(7) 0.3081(5) 0.4159(8)
C73_8 C 0.1838(6) 0.7154(4) 0.0516(5)
C74_8 C 0.1434(5) 0.6988(3) 0.0811(5)
H56_8 H 0.129027 0.716581 0.103909
H57_8 H 0.118220 0.690266 0.057938
C75_8 C 0.1288(5) 0.6473(4) 0.1342(6)
C76_8 C 0.0787(5) 0.6531(5) 0.1307(6)
H58_8 H 0.066508 0.672107 0.111270
C77_8 C 0.0465(5) 0.6298(3) 0.1570(6)
H59_8 H 0.013200 0.634608 0.156167
C78_8 C 0.0630(5) 0.6005(4) 0.1834(6)
C79_8 C 0.1144(5) 0.5933(4) 0.1841(5)
H60_8 H 0.126175 0.572865 0.200814
C80_8 C 0.1471(5) 0.6171(3) 0.1594(5)
H61_8 H 0.180537 0.612605 0.160076
C81_8 C 0.0313(6) 0.5779(4) 0.2155(5)
C82_11 C 0.0000(7) 0.5950(4) 0.2461(7)
H62_8 H 0.000784 0.620129 0.246841
C86_8 C 0.0308(6) 0.5399(4) 0.2145(5)
C87_8 C 0.0571(7) 0.5253(4) 0.1270(7)
H63_8 H 0.063463 0.502765 0.109890
H64_8 H 0.080922 0.542886 0.116653
H65_8 H 0.025085 0.533689 0.118124
O28_8 O 0.1631(3) 0.6686(2) 0.1106(4)
O29_8 O 0.0601(4) 0.5198(2) 0.1830(4)
O34_8 O 0.1358(6) 0.7505(7) 0.9218(9)
C27_8 C 0.8162(6) 0.2846(4) 0.0516(5)
C28_8 C 0.8566(5) 0.3012(3) 0.0811(5)
H20_8 H 0.870973 0.283419 0.103909
H21_8 H 0.881780 0.309734 0.057938
C29_8 C 0.8712(5) 0.3527(4) 0.1342(6)
C30_8 C 0.9213(5) 0.3469(5) 0.1307(6)
H22_8 H 0.933492 0.327893 0.111270
C31_8 C 0.9535(5) 0.3702(3) 0.1570(6)
H23_8 H 0.986800 0.365392 0.156167
C32_8 C 0.9370(5) 0.3995(4) 0.1834(6)
C33_8 C 0.8856(5) 0.4067(4) 0.1841(5)
H24_8 H 0.873825 0.427135 0.200814
C34_8 C 0.8529(5) 0.3829(3) 0.1594(5)
H25_8 H 0.819463 0.387395 0.160076
C35_8 C 0.9687(6) 0.4221(4) 0.2155(5)
C36_12 C 1.0000(7) 0.4050(4) 0.2461(7)
H26_8 H 0.999216 0.379871 0.246841
C40_8 C 0.9692(6) 0.4601(4) 0.2145(5)
C41_8 C 0.9429(7) 0.4747(4) 0.1270(7)
H27_8 H 0.936537 0.497235 0.109890
H28_8 H 0.919078 0.457114 0.116653
H29_8 H 0.974915 0.466311 0.118124
O11_8 O 0.8369(3) 0.3314(2) 0.1106(4)
O12_8 O 0.9399(4) 0.4802(2) 0.1830(4)
C82_12 C 1.0000(7) 0.5950(4) 0.2461(7)
C83_8 C 0.9645(7) 0.5762(4) 0.2786(6)
C84_8 C 0.9692(9) 0.5369(5) 0.2780(7)
C85_8 C 0.9976(6) 0.5205(3) 0.2456(5)
C88_8 C 0.9544(9) 0.5137(5) 0.3648(7)
H66_8 H 0.942512 0.491158 0.378086
H67_8 H 0.942449 0.533265 0.385465
H68_8 H 0.989469 0.513683 0.365418
C89_8 C 0.9317(4) 0.5979(3) 0.3107(6)
C90_8 C 0.9495(5) 0.6259(4) 0.3405(6)
H69_8 H 0.982938 0.629332 0.343548
C91_8 C 0.9175(5) 0.6487(4) 0.3656(7)
H70_8 H 0.929466 0.667491 0.385587
C92_8 C 0.8678(6) 0.6435(5) 0.3610(8)
C93_8 C 0.8500(5) 0.6155(5) 0.3313(9)
H71_8 H 0.816511 0.612063 0.328180
C94_8 C 0.8820(4) 0.5927(5) 0.3062(7)
H72_8 H 0.869983 0.573903 0.286143
C95_8 C 0.7864(10) 0.6618(9) 0.3843(12)
H73_8 H 0.778215 0.638890 0.400169
H74_8 H 0.777449 0.660517 0.348443
C96_8 C 0.7561(13) 0.6937(9) 0.4115(12)
O30_8 O 0.9371(6) 0.5184(4) 0.3109(5)
O31_8 O 0.8370(7) 0.6679(4) 0.3886(7)
O33_8 O 0.7142(7) 0.6919(5) 0.4159(8)
O17_8 O 0.8642(6) 0.2495(7) 0.9218(9)
loop_
_geom_bond_atom_site_label_1
_geom_bond_atom_site_label_2
_geom_bond_site_symmetry_1
_geom_bond_site_symmetry_2
O17 Cd3 1_555 1_555
O36 Cd2 1_555 1_555
O38 Cd3 1_555 1_555
O40 Cd2 1_555 1_555
O43 Cd2 1_555 1_555
O46 Cd1 1_555 1_555
O47 Cd1 1_555 1_555
Cd3 O43 1_555 1_555
C1 C2 1_555 1_555
C2 H1 1_555 1_555
H2 C2 1_555 1_555
C3 C4 1_555 1_555
C4 H3 1_555 1_555
C5 C4 1_555 1_555
H4 C5 1_555 1_555
C6 C5 1_555 1_555
C7 C6 1_555 1_555
H5 C7 1_555 1_555
C8 C3 1_555 1_555
H6 C8 1_555 1_555
C9 H7 1_555 1_555
C10 C6 1_555 1_555
C11 C10 1_555 1_555
C12 C11 1_555 1_555
C13 H8 1_555 1_555
H9 C13 1_555 1_555
C14 C12 1_555 1_555
C15 C14 1_555 1_555
C16 H10 1_555 1_555
H11 C16 1_555 1_555
H12 C16 1_555 1_555
C17 C15 1_555 1_555
C18 C17 1_555 1_555
H13 C18 1_555 1_555
C19 C17 1_555 1_555
C20 C19 1_555 1_555
H14 C20 1_555 1_555
C21 C20 1_555 1_555
H15 C21 1_555 1_555
C22 C21 1_555 1_555
C23 C22 1_555 1_555
H16 C23 1_555 1_555
C24 C19 1_555 1_555
H17 C24 1_555 1_555
C25 H18 1_555 1_555
H19 C25 1_555 1_555
C26 C25 1_555 1_555
C27 C28 1_555 1_555
C28 H20 1_555 1_555
H21 C28 1_555 1_555
C29 C30 1_555 1_555
C30 H22 1_555 1_555
C31 C30 1_555 1_555
H23 C31 1_555 1_555
C32 C31 1_555 1_555
C33 C32 1_555 1_555
H24 C33 1_555 1_555
C34 C29 1_555 1_555
H25 C34 1_555 1_555
C35 C32 1_555 1_555
C36 C35 1_555 1_555
H26 C36 1_555 1_555
C37 C36 1_555 1_555
C38 C37 1_555 1_555
C39 C38 1_555 1_555
C40 C35 1_555 1_555
C41 H27 1_555 1_555
H28 C41 1_555 1_555
H29 C41 1_555 1_555
H31 C42 1_555 1_555
H32 C42 1_555 1_555
C43 C37 1_555 1_555
C44 C43 1_555 1_555
H33 C44 1_555 1_555
C45 C44 1_555 1_555
H34 C45 1_555 1_555
C46 C45 1_555 1_555
C47 C46 1_555 1_555
H35 C47 1_555 1_555
C48 C43 1_555 1_555
H36 C48 1_555 1_555
C49 H37 1_555 1_555
H38 C49 1_555 1_555
C50 C49 1_555 1_555
O1 C1 1_555 1_555
O2 C1 1_555 1_555
O3 C2 1_555 1_555
O4 C11 1_555 1_555
O5 C15 1_555 1_555
O6 C22 1_555 1_555
O7 C26 1_555 1_555
O8 C26 1_555 1_555
O9 C27 1_555 1_555
O10 C27 1_555 1_555
O11 C28 1_555 1_555
O12 C40 1_555 1_555
O13 C38 1_555 1_555
O14 C46 1_555 1_555
O15 C50 1_555 1_555
O16 C50 1_555 1_555
Cd2_2 O1 1_555 1_555
C51 C52 1_555 1_555
C52 H39 1_555 1_555
H40 C52 1_555 1_555
C53 C54 1_555 1_555
C54 H41 1_555 1_555
C55 C54 1_555 1_555
H42 C55 1_555 1_555
C56 C55 1_555 1_555
C57 C56 1_555 1_555
H43 C57 1_555 1_555
C58 C53 1_555 1_555
H44 C58 1_555 1_555
C59 C9 1_555 1_555
C60 C12 1_555 1_555
C61 H45 1_555 1_555
H46 C61 1_555 1_555
C62 C14 1_555 1_555
C63 H47 1_555 1_555
H48 C63 1_555 1_555
H49 C63 1_555 1_555
C64 C18 1_555 1_555
C65 C64 1_555 1_555
C66 C65 1_555 1_555
H50 C66 1_555 1_555
C67 C66 1_555 1_555
H51 C67 1_555 1_555
C68 C67 1_555 1_555
C69 C68 1_555 1_555
H52 C69 1_555 1_555
C70 C65 1_555 1_555
H53 C70 1_555 1_555
C71 H54 1_555 1_555
H55 C71 1_555 1_555
C72 C71 1_555 1_555
O18 C51 1_555 1_555
O20 C52 1_555 1_555
O21 C60 1_555 1_555
O22 C62 1_555 1_555
O23 C68 1_555 1_555
O24 C72 1_555 1_555
O25 C72 1_555 1_555
O39 Cd2_2 1_555 1_555
O41 Cd2_2 1_555 1_555
Cd7 O15 1_555 1_555
Cd8 O24 1_555 1_555
Cd9 O18 1_555 1_555
Cd10_2 O7 1_555 1_555
Cd11 O2 1_555 1_555
Cd12 O25 1_555 1_555
Cd14 O18 1_555 1_555
Cd15 O8 1_555 1_555
C3 O3 1_555 1_555
C7 C8 1_555 1_555
C9 C10 1_555 1_555
C13 O4 1_555 1_555
C16 O5 1_555 1_555
C23 C24 1_555 1_555
C25 O6 1_555 1_555
C29 O11 1_555 1_555
C33 C34 1_555 1_555
C39 C40 1_555 1_555
C41 O12 1_555 1_555
C42 O13 1_555 1_555
C47 C48 1_555 1_555
C49 O14 1_555 1_555
O8 Cd10_2 1_555 1_555
C53 O20 1_555 1_555
C56 C59 1_555 1_555
C57 C58 1_555 1_555
C59 C60 1_555 1_555
C61 O21 1_555 1_555
C62 C64 1_555 1_555
C63 O22 1_555 1_555
C69 C70 1_555 1_555
C71 O23 1_555 1_555
O25 Cd8 1_555 1_555
O41 Cd11 1_555 1_555
C13 H75 1_555 1_555
C61 H78 1_555 1_555
O34 Cd4 1_555 1_555
O37 Cd4 1_555 1_555
O42 Cd4 1_555 1_555
C73 C74 1_555 1_555
C74 H56 1_555 1_555
H57 C74 1_555 1_555
C75 C76 1_555 1_555
C76 H58 1_555 1_555
C77 C76 1_555 1_555
H59 C77 1_555 1_555
C78 C77 1_555 1_555
C79 C78 1_555 1_555
H60 C79 1_555 1_555
C80 C75 1_555 1_555
H61 C80 1_555 1_555
C81 C78 1_555 1_555
C82 C81 1_555 1_555
H62 C82 1_555 1_555
C83 C82 1_555 1_555
C84 C83 1_555 1_555
C86 C81 1_555 1_555
C87 H63 1_555 1_555
H64 C87 1_555 1_555
H65 C87 1_555 1_555
H67 C88 1_555 1_555
H68 C88 1_555 1_555
C89 C83 1_555 1_555
C90 C89 1_555 1_555
H69 C90 1_555 1_555
C91 C90 1_555 1_555
H70 C91 1_555 1_555
C92 C91 1_555 1_555
C93 C92 1_555 1_555
H71 C93 1_555 1_555
C94 C89 1_555 1_555
H72 C94 1_555 1_555
C95 H73 1_555 1_555
H74 C95 1_555 1_555
C96 C95 1_555 1_555
O26 C73 1_555 1_555
O27 C73 1_555 1_555
O28 C74 1_555 1_555
O29 C86 1_555 1_555
O30 C84 1_555 1_555
O31 C92 1_555 1_555
O32 C96 1_555 1_555
O33 C96 1_555 1_555
Cd6 O32 1_555 1_555
C75 O28 1_555 1_555
C79 C80 1_555 1_555
C84 C85 1_555 1_555
C85 C86 1_555 1_555
C87 O29 1_555 1_555
C88 O30 1_555 1_555
C93 C94 1_555 1_555
C95 O31 1_555 1_555
Cd13 O19 1_555 1_555
Cd13_2 O19_2 1_555 1_555
O36_2 Cd2_3 1_555 1_555
O40_2 Cd2_3 1_555 1_555
O42 Cd2_3 1_555 1_555
O46_2 Cd5 1_555 1_555
O47_2 Cd5 1_555 1_555
C1_2 C2_2 1_555 1_555
C2_2 H1_2 1_555 1_555
H2_2 C2_2 1_555 1_555
C3_2 C4_2 1_555 1_555
C4_2 H3_2 1_555 1_555
C5_2 C4_2 1_555 1_555
H4_2 C5_2 1_555 1_555
C6_2 C5_2 1_555 1_555
C7_2 C6_2 1_555 1_555
H5_2 C7_2 1_555 1_555
C8_2 C3_2 1_555 1_555
H6_2 C8_2 1_555 1_555
C9_2 H7_2 1_555 1_555
C10_2 C6_2 1_555 1_555
C11_2 C10_2 1_555 1_555
C12_2 C11_2 1_555 1_555
C13_2 H8_2 1_555 1_555
H9_2 C13_2 1_555 1_555
C14_2 C12_2 1_555 1_555
C15_2 C14_2 1_555 1_555
C16_2 H10_2 1_555 1_555
H11_2 C16_2 1_555 1_555
H12_2 C16_2 1_555 1_555
C17_2 C15_2 1_555 1_555
C18_2 C17_2 1_555 1_555
H13_2 C18_2 1_555 1_555
C19_2 C17_2 1_555 1_555
C20_2 C19_2 1_555 1_555
H14_2 C20_2 1_555 1_555
C21_2 C20_2 1_555 1_555
H15_2 C21_2 1_555 1_555
C22_2 C21_2 1_555 1_555
C23_2 C22_2 1_555 1_555
H16_2 C23_2 1_555 1_555
C24_2 C19_2 1_555 1_555
H17_2 C24_2 1_555 1_555
C25_2 H18_2 1_555 1_555
H19_2 C25_2 1_555 1_555
C26_2 C25_2 1_555 1_555
O35 C1_2 1_555 1_555
O2_2 C1_2 1_555 1_555
O3_2 C2_2 1_555 1_555
O4_2 C11_2 1_555 1_555
O5_2 C15_2 1_555 1_555
O6_2 C22_2 1_555 1_555
O7_2 C26_2 1_555 1_555
O8_2 C26_2 1_555 1_555
Cd2_4 O35 1_555 1_555
C51_2 C52_2 1_555 1_555
C52_2 H39_2 1_555 1_555
H40_2 C52_2 1_555 1_555
C53_2 C54_2 1_555 1_555
C54_2 H41_2 1_555 1_555
C55_2 C54_2 1_555 1_555
H42_2 C55_2 1_555 1_555
C56_2 C55_2 1_555 1_555
C57_2 C56_2 1_555 1_555
H43_2 C57_2 1_555 1_555
C58_2 C53_2 1_555 1_555
H44_2 C58_2 1_555 1_555
C59_2 C9_2 1_555 1_555
C60_2 C12_2 1_555 1_555
C61_2 H45_2 1_555 1_555
H46_2 C61_2 1_555 1_555
C62_2 C14_2 1_555 1_555
C63_2 H47_2 1_555 1_555
H48_2 C63_2 1_555 1_555
H49_2 C63_2 1_555 1_555
C64_2 C18_2 1_555 1_555
C65_2 C64_2 1_555 1_555
C66_2 C65_2 1_555 1_555
H50_2 C66_2 1_555 1_555
C67_2 C66_2 1_555 1_555
H51_2 C67_2 1_555 1_555
C68_2 C67_2 1_555 1_555
C69_2 C68_2 1_555 1_555
H52_2 C69_2 1_555 1_555
C70_2 C65_2 1_555 1_555
H53_2 C70_2 1_555 1_555
C71_2 H54_2 1_555 1_555
H55_2 C71_2 1_555 1_555
C72_2 C71_2 1_555 1_555
O18_2 C51_2 1_555 1_555
O20_2 C52_2 1_555 1_555
O21_2 C60_2 1_555 1_555
O22_2 C62_2 1_555 1_555
O23_2 C68_2 1_555 1_555
O24_2 C72_2 1_555 1_555
O25_2 C72_2 1_555 1_555
O39_2 Cd2_4 1_555 1_555
O41_2 Cd2_4 1_555 1_555
Cd8_2 O24_2 1_555 1_555
Cd9_4 O18_2 1_555 1_555
Cd10_8 O7_2 1_555 1_555
Cd11_2 O2_2 1_555 1_555
Cd12_2 O25_2 1_555 1_555
Cd14_2 O18_2 1_555 1_555
Cd15_2 O8_2 1_555 1_555
C3_2 O3_2 1_555 1_555
C7_2 C8_2 1_555 1_555
C9_2 C10_2 1_555 1_555
C13_2 O4_2 1_555 1_555
C16_2 O5_2 1_555 1_555
C23_2 C24_2 1_555 1_555
C25_2 O6_2 1_555 1_555
O8_2 Cd10_8 1_555 1_555
C53_2 O20_2 1_555 1_555
C56_2 C59_2 1_555 1_555
C57_2 C58_2 1_555 1_555
C59_2 C60_2 1_555 1_555
C61_2 O21_2 1_555 1_555
C62_2 C64_2 1_555 1_555
C63_2 O22_2 1_555 1_555
C69_2 C70_2 1_555 1_555
C71_2 O23_2 1_555 1_555
O25_2 Cd8_2 1_555 1_555
O41_2 Cd11_2 1_555 1_555
C13_2 H75_2 1_555 1_555
C61_2 H78_2 1_555 1_555
C73_2 C74_2 1_555 1_555
C74_2 H56_2 1_555 1_555
H57_2 C74_2 1_555 1_555
C75_2 C76_2 1_555 1_555
C76_2 H58_2 1_555 1_555
C77_2 C76_2 1_555 1_555
H59_2 C77_2 1_555 1_555
C78_2 C77_2 1_555 1_555
C79_2 C78_2 1_555 1_555
H60_2 C79_2 1_555 1_555
C80_2 C75_2 1_555 1_555
H61_2 C80_2 1_555 1_555
C81_2 C78_2 1_555 1_555
C82_2 C81_2 1_555 1_555
H62_2 C82_2 1_555 1_555
C83_2 C82_2 1_555 1_555
C84_2 C83_2 1_555 1_555
C86_2 C81_2 1_555 1_555
C87_2 H63_2 1_555 1_555
H64_2 C87_2 1_555 1_555
H65_2 C87_2 1_555 1_555
H67_2 C88_2 1_555 1_555
H68_2 C88_2 1_555 1_555
C89_2 C83_2 1_555 1_555
C90_2 C89_2 1_555 1_555
H69_2 C90_2 1_555 1_555
C91_2 C90_2 1_555 1_555
H70_2 C91_2 1_555 1_555
C92_2 C91_2 1_555 1_555
C93_2 C92_2 1_555 1_555
H71_2 C93_2 1_555 1_555
C94_2 C89_2 1_555 1_555
H72_2 C94_2 1_555 1_555
C95_2 H73_2 1_555 1_555
H74_2 C95_2 1_555 1_555
C96_2 C95_2 1_555 1_555
O26_2 C73_2 1_555 1_555
O27_2 C73_2 1_555 1_555
O28_2 C74_2 1_555 1_555
O29_2 C86_2 1_555 1_555
O30_2 C84_2 1_555 1_555
O31_2 C92_2 1_555 1_555
O32_2 C96_2 1_555 1_555
O33_2 C96_2 1_555 1_555
Cd6_2 O32_2 1_555 1_555
C75_2 O28_2 1_555 1_555
C79_2 C80_2 1_555 1_555
C84_2 C85_2 1_555 1_555
C85_2 C86_2 1_555 1_555
C87_2 O29_2 1_555 1_555
C88_2 O30_2 1_555 1_555
C93_2 C94_2 1_555 1_555
C95_2 O31_2 1_555 1_555
O34_2 Cd11 1_555 1_555
C1_3 C2_3 1_555 1_555
C2_3 H1_3 1_555 1_555
H2_3 C2_3 1_555 1_555
C3_3 C4_3 1_555 1_555
C4_3 H3_3 1_555 1_555
C5_3 C4_3 1_555 1_555
H4_3 C5_3 1_555 1_555
C6_3 C5_3 1_555 1_555
C7_3 C6_3 1_555 1_555
H5_3 C7_3 1_555 1_555
C8_3 C3_3 1_555 1_555
H6_3 C8_3 1_555 1_555
C9_3 H7_3 1_555 1_555
C10_3 C6_3 1_555 1_555
C11_3 C10_3 1_555 1_555
C12_3 C11_3 1_555 1_555
C13_3 H8_3 1_555 1_555
H9_3 C13_3 1_555 1_555
C14_3 C12_3 1_555 1_555
C15_3 C14_3 1_555 1_555
C16_3 H10_3 1_555 1_555
H11_3 C16_3 1_555 1_555
H12_3 C16_3 1_555 1_555
C17_3 C15_3 1_555 1_555
C18_3 C17_3 1_555 1_555
H13_3 C18_3 1_555 1_555
C19_3 C17_3 1_555 1_555
C20_3 C19_3 1_555 1_555
H14_3 C20_3 1_555 1_555
C21_3 C20_3 1_555 1_555
H15_3 C21_3 1_555 1_555
C22_3 C21_3 1_555 1_555
C23_3 C22_3 1_555 1_555
H16_3 C23_3 1_555 1_555
C24_3 C19_3 1_555 1_555
H17_3 C24_3 1_555 1_555
C25_3 H18_3 1_555 1_555
H19_3 C25_3 1_555 1_555
C26_3 C25_3 1_555 1_555
C27_2 C28_2 1_555 1_555
C28_2 H20_2 1_555 1_555
H21_2 C28_2 1_555 1_555
C29_2 C30_2 1_555 1_555
C30_2 H22_2 1_555 1_555
C31_2 C30_2 1_555 1_555
H23_2 C31_2 1_555 1_555
C32_2 C31_2 1_555 1_555
C33_2 C32_2 1_555 1_555
H24_2 C33_2 1_555 1_555
C34_2 C29_2 1_555 1_555
H25_2 C34_2 1_555 1_555
C35_2 C32_2 1_555 1_555
C36_2 C35_2 1_555 1_555
H26_2 C36_2 1_555 1_555
C37_2 C36_2 1_555 1_555
C38_2 C37_2 1_555 1_555
C39_2 C38_2 1_555 1_555
C40_2 C35_2 1_555 1_555
C41_2 H27_2 1_555 1_555
H28_2 C41_2 1_555 1_555
H29_2 C41_2 1_555 1_555
H31_2 C42_2 1_555 1_555
H32_2 C42_2 1_555 1_555
C43_2 C37_2 1_555 1_555
C44_2 C43_2 1_555 1_555
H33_2 C44_2 1_555 1_555
C45_2 C44_2 1_555 1_555
H34_2 C45_2 1_555 1_555
C46_2 C45_2 1_555 1_555
C47_2 C46_2 1_555 1_555
H35_2 C47_2 1_555 1_555
C48_2 C43_2 1_555 1_555
H36_2 C48_2 1_555 1_555
C49_2 H37_2 1_555 1_555
H38_2 C49_2 1_555 1_555
C50_2 C49_2 1_555 1_555
O36_2 C1_3 1_555 1_555
O37 C1_3 1_555 1_555
O3_3 C2_3 1_555 1_555
O4_3 C11_3 1_555 1_555
O5_3 C15_3 1_555 1_555
O6_3 C22_3 1_555 1_555
O7_3 C26_3 1_555 1_555
O8_3 C26_3 1_555 1_555
O9_2 C27_2 1_555 1_555
O10_2 C27_2 1_555 1_555
O11_2 C28_2 1_555 1_555
O12_2 C40_2 1_555 1_555
O13_2 C38_2 1_555 1_555
O14_2 C46_2 1_555 1_555
O15_2 C50_2 1_555 1_555
O16_2 C50_2 1_555 1_555
C51_3 C52_3 1_555 1_555
C52_3 H39_3 1_555 1_555
H40_3 C52_3 1_555 1_555
C53_3 C54_3 1_555 1_555
C54_3 H41_3 1_555 1_555
C55_3 C54_3 1_555 1_555
H42_3 C55_3 1_555 1_555
C56_3 C55_3 1_555 1_555
C57_3 C56_3 1_555 1_555
H43_3 C57_3 1_555 1_555
C58_3 C53_3 1_555 1_555
H44_3 C58_3 1_555 1_555
C59_3 C9_3 1_555 1_555
C60_3 C12_3 1_555 1_555
C61_3 H45_3 1_555 1_555
H46_3 C61_3 1_555 1_555
C62_3 C14_3 1_555 1_555
C63_3 H47_3 1_555 1_555
H48_3 C63_3 1_555 1_555
H49_3 C63_3 1_555 1_555
C64_3 C18_3 1_555 1_555
C65_3 C64_3 1_555 1_555
C66_3 C65_3 1_555 1_555
H50_3 C66_3 1_555 1_555
C67_3 C66_3 1_555 1_555
H51_3 C67_3 1_555 1_555
C68_3 C67_3 1_555 1_555
C69_3 C68_3 1_555 1_555
H52_3 C69_3 1_555 1_555
C70_3 C65_3 1_555 1_555
H53_3 C70_3 1_555 1_555
C71_3 H54_3 1_555 1_555
H55_3 C71_3 1_555 1_555
C72_3 C71_3 1_555 1_555
O18_3 C51_3 1_555 1_555
O20_3 C52_3 1_555 1_555
O21_3 C60_3 1_555 1_555
O22_3 C62_3 1_555 1_555
O23_3 C68_3 1_555 1_555
O24_3 C72_3 1_555 1_555
O25_3 C72_3 1_555 1_555
Cd7_2 O15_2 1_555 1_555
Cd8_2 O24_3 1_555 1_555
Cd9_3 O18_3 1_555 1_555
Cd10_5 O7_3 1_555 1_555
Cd12_3 O25_3 1_555 1_555
Cd13_2 O18_3 1_555 1_555
Cd15_3 O8_3 1_555 1_555
C3_3 O3_3 1_555 1_555
C7_3 C8_3 1_555 1_555
C9_3 C10_3 1_555 1_555
C13_3 O4_3 1_555 1_555
C16_3 O5_3 1_555 1_555
C23_3 C24_3 1_555 1_555
C25_3 O6_3 1_555 1_555
C29_2 O11_2 1_555 1_555
C33_2 C34_2 1_555 1_555
C39_2 C40_2 1_555 1_555
C41_2 O12_2 1_555 1_555
C42_2 O13_2 1_555 1_555
C47_2 C48_2 1_555 1_555
C49_2 O14_2 1_555 1_555
O8_3 Cd10_5 1_555 1_555
C53_3 O20_3 1_555 1_555
C56_3 C59_3 1_555 1_555
C57_3 C58_3 1_555 1_555
C59_3 C60_3 1_555 1_555
C61_3 O21_3 1_555 1_555
C62_3 C64_3 1_555 1_555
C63_3 O22_3 1_555 1_555
C69_3 C70_3 1_555 1_555
C71_3 O23_3 1_555 1_555
O25_3 Cd8_2 1_555 1_555
C13_3 H75_3 1_555 1_555
C61_3 H78_3 1_555 1_555
O17_2 Cd11_2 1_555 1_555
O46_3 Cd1_2 1_555 1_555
O47_3 Cd1_2 1_555 1_555
Cd14_2 O19_3 1_555 1_555
Cd14 O19_4 1_555 1_555
C1_4 C2_4 1_555 1_555
C2_4 H1_4 1_555 1_555
H2_4 C2_4 1_555 1_555
C3_4 C4_4 1_555 1_555
C4_4 H3_4 1_555 1_555
C5_4 C4_4 1_555 1_555
H4_4 C5_4 1_555 1_555
C6_4 C5_4 1_555 1_555
C7_4 C6_4 1_555 1_555
H5_4 C7_4 1_555 1_555
C8_4 C3_4 1_555 1_555
H6_4 C8_4 1_555 1_555
C9_4 H7_4 1_555 1_555
C10_4 C6_4 1_555 1_555
C11_4 C10_4 1_555 1_555
C12_4 C11_4 1_555 1_555
C13_4 H8_4 1_555 1_555
H9_4 C13_4 1_555 1_555
C14_4 C12_4 1_555 1_555
C15_4 C14_4 1_555 1_555
C16_4 H10_4 1_555 1_555
H11_4 C16_4 1_555 1_555
H12_4 C16_4 1_555 1_555
C17_4 C15_4 1_555 1_555
C18_4 C17_4 1_555 1_555
H13_4 C18_4 1_555 1_555
C19_4 C17_4 1_555 1_555
C20_4 C19_4 1_555 1_555
H14_4 C20_4 1_555 1_555
C21_4 C20_4 1_555 1_555
H15_4 C21_4 1_555 1_555
C22_4 C21_4 1_555 1_555
C23_4 C22_4 1_555 1_555
H16_4 C23_4 1_555 1_555
C24_4 C19_4 1_555 1_555
H17_4 C24_4 1_555 1_555
C25_4 H18_4 1_555 1_555
H19_4 C25_4 1_555 1_555
C26_4 C25_4 1_555 1_555
O36 C1_4 1_555 1_555
O38 C1_4 1_555 1_555
O3_4 C2_4 1_555 1_555
O4_4 C11_4 1_555 1_555
O5_4 C15_4 1_555 1_555
O6_4 C22_4 1_555 1_555
O7_4 C26_4 1_555 1_555
O8_4 C26_4 1_555 1_555
C51_4 C52_4 1_555 1_555
C52_4 H39_4 1_555 1_555
H40_4 C52_4 1_555 1_555
C53_4 C54_4 1_555 1_555
C54_4 H41_4 1_555 1_555
C55_4 C54_4 1_555 1_555
H42_4 C55_4 1_555 1_555
C56_4 C55_4 1_555 1_555
C57_4 C56_4 1_555 1_555
H43_4 C57_4 1_555 1_555
C58_4 C53_4 1_555 1_555
H44_4 C58_4 1_555 1_555
C59_4 C9_4 1_555 1_555
C60_4 C12_4 1_555 1_555
C61_4 H45_4 1_555 1_555
H46_4 C61_4 1_555 1_555
C62_4 C14_4 1_555 1_555
C63_4 H47_4 1_555 1_555
H48_4 C63_4 1_555 1_555
H49_4 C63_4 1_555 1_555
C64_4 C18_4 1_555 1_555
C65_4 C64_4 1_555 1_555
C66_4 C65_4 1_555 1_555
H50_4 C66_4 1_555 1_555
C67_4 C66_4 1_555 1_555
H51_4 C67_4 1_555 1_555
C68_4 C67_4 1_555 1_555
C69_4 C68_4 1_555 1_555
H52_4 C69_4 1_555 1_555
C70_4 C65_4 1_555 1_555
H53_4 C70_4 1_555 1_555
C71_4 H54_4 1_555 1_555
H55_4 C71_4 1_555 1_555
C72_4 C71_4 1_555 1_555
O18_4 C51_4 1_555 1_555
O20_4 C52_4 1_555 1_555
O21_4 C60_4 1_555 1_555
O22_4 C62_4 1_555 1_555
O23_4 C68_4 1_555 1_555
O24_4 C72_4 1_555 1_555
O25_4 C72_4 1_555 1_555
Cd8 O24_4 1_555 1_555
Cd9_2 O18_4 1_555 1_555
Cd10_3 O7_4 1_555 1_555
Cd12_4 O25_4 1_555 1_555
Cd13 O18_4 1_555 1_555
Cd15_4 O8_4 1_555 1_555
C3_4 O3_4 1_555 1_555
C7_4 C8_4 1_555 1_555
C9_4 C10_4 1_555 1_555
C13_4 O4_4 1_555 1_555
C16_4 O5_4 1_555 1_555
C23_4 C24_4 1_555 1_555
C25_4 O6_4 1_555 1_555
O8_4 Cd10_3 1_555 1_555
C53_4 O20_4 1_555 1_555
C56_4 C59_4 1_555 1_555
C57_4 C58_4 1_555 1_555
C59_4 C60_4 1_555 1_555
C61_4 O21_4 1_555 1_555
C62_4 C64_4 1_555 1_555
C63_4 O22_4 1_555 1_555
C69_4 C70_4 1_555 1_555
C71_4 O23_4 1_555 1_555
O25_4 Cd8 1_555 1_555
C13_4 H75_4 1_555 1_555
C61_4 H78_4 1_555 1_555
O46_4 Cd5_2 1_555 1_555
O47_4 Cd5_2 1_555 1_555
C18_5 C17_5 1_555 1_555
H13_5 C18_5 1_555 1_555
C19_5 C17_5 1_555 1_555
C20_5 C19_5 1_555 1_555
H14_5 C20_5 1_555 1_555
C21_5 C20_5 1_555 1_555
H15_5 C21_5 1_555 1_555
C22_5 C21_5 1_555 1_555
C23_5 C22_5 1_555 1_555
H16_5 C23_5 1_555 1_555
C24_5 C19_5 1_555 1_555
H17_5 C24_5 1_555 1_555
C25_5 H18_5 1_555 1_555
H19_5 C25_5 1_555 1_555
C26_5 C25_5 1_555 1_555
O6_5 C22_5 1_555 1_555
O7_5 C26_5 1_555 1_555
O8_5 C26_5 1_555 1_555
C64_5 C18_5 1_555 1_555
C65_5 C64_5 1_555 1_555
C66_5 C65_5 1_555 1_555
H50_5 C66_5 1_555 1_555
C67_5 C66_5 1_555 1_555
H51_5 C67_5 1_555 1_555
C68_5 C67_5 1_555 1_555
C69_5 C68_5 1_555 1_555
H52_5 C69_5 1_555 1_555
C70_5 C65_5 1_555 1_555
H53_5 C70_5 1_555 1_555
C71_5 H54_5 1_555 1_555
H55_5 C71_5 1_555 1_555
C72_5 C71_5 1_555 1_555
O23_5 C68_5 1_555 1_555
O40 C72_5 1_555 1_555
O43 C72_5 1_555 1_555
Cd9 O7_5 1_555 1_555
Cd14 O8_5 1_555 1_555
C23_5 C24_5 1_555 1_555
C25_5 O6_5 1_555 1_555
O8_5 Cd9 1_555 1_555
C69_5 C70_5 1_555 1_555
C71_5 O23_5 1_555 1_555
C1_5 C2_5 1_555 1_555
C2_5 H1_5 1_555 1_555
H2_5 C2_5 1_555 1_555
C3_5 C4_5 1_555 1_555
C4_5 H3_5 1_555 1_555
C5_5 C4_5 1_555 1_555
H4_5 C5_5 1_555 1_555
C6_5 C5_5 1_555 1_555
C7_5 C6_5 1_555 1_555
H5_5 C7_5 1_555 1_555
C8_5 C3_5 1_555 1_555
H6_5 C8_5 1_555 1_555
C9_5 H7_5 1_555 1_555
C10_5 C6_5 1_555 1_555
C11_5 C10_5 1_555 1_555
C12_5 C11_5 1_555 1_555
C13_5 H8_5 1_555 1_555
H9_5 C13_5 1_555 1_555
C14_5 C12_5 1_555 1_555
C15_5 C14_5 1_555 1_555
C16_5 H10_5 1_555 1_555
H11_5 C16_5 1_555 1_555
H12_5 C16_5 1_555 1_555
C27_3 C28_3 1_555 1_555
C28_3 H20_3 1_555 1_555
H21_3 C28_3 1_555 1_555
C29_3 C30_3 1_555 1_555
C30_3 H22_3 1_555 1_555
C31_3 C30_3 1_555 1_555
H23_3 C31_3 1_555 1_555
C32_3 C31_3 1_555 1_555
C33_3 C32_3 1_555 1_555
H24_3 C33_3 1_555 1_555
C34_3 C29_3 1_555 1_555
H25_3 C34_3 1_555 1_555
C35_3 C32_3 1_555 1_555
C36_3 C35_3 1_555 1_555
H26_3 C36_3 1_555 1_555
C37_3 C36_3 1_555 1_555
C38_3 C37_3 1_555 1_555
C39_3 C38_3 1_555 1_555
C40_3 C35_3 1_555 1_555
C41_3 H27_3 1_555 1_555
H28_3 C41_3 1_555 1_555
H29_3 C41_3 1_555 1_555
C42_3 H30_3 1_555 1_555
H31_3 C42_3 1_555 1_555
H32_3 C42_3 1_555 1_555
C43_3 C37_3 1_555 1_555
C44_3 C43_3 1_555 1_555
H33_3 C44_3 1_555 1_555
C45_3 C44_3 1_555 1_555
H34_3 C45_3 1_555 1_555
C46_3 C45_3 1_555 1_555
C47_3 C46_3 1_555 1_555
H35_3 C47_3 1_555 1_555
C48_3 C43_3 1_555 1_555
H36_3 C48_3 1_555 1_555
C49_3 H37_3 1_555 1_555
H38_3 C49_3 1_555 1_555
C50_3 C49_3 1_555 1_555
O1_2 C1_5 1_555 1_555
O2_3 C1_5 1_555 1_555
O3_5 C2_5 1_555 1_555
O4_5 C11_5 1_555 1_555
O5_5 C15_5 1_555 1_555
O9_3 C27_3 1_555 1_555
O10_3 C27_3 1_555 1_555
O11_3 C28_3 1_555 1_555
O12_3 C40_3 1_555 1_555
O13_3 C38_3 1_555 1_555
O14_3 C46_3 1_555 1_555
O46_2 C50_3 1_555 1_555
O16_3 C50_3 1_555 1_555
O17_3 Cd12 1_555 1_555
Cd6 O9_3 1_555 1_555
Cd8 O1_2 1_555 1_555
Cd12 O1_2 1_555 1_555
C51_5 C52_5 1_555 1_555
C52_5 H39_5 1_555 1_555
H40_5 C52_5 1_555 1_555
C53_5 C54_5 1_555 1_555
C54_5 H41_5 1_555 1_555
C55_5 C54_5 1_555 1_555
H42_5 C55_5 1_555 1_555
C56_5 C55_5 1_555 1_555
C57_5 C56_5 1_555 1_555
H43_5 C57_5 1_555 1_555
C58_5 C53_5 1_555 1_555
H44_5 C58_5 1_555 1_555
C59_5 C9_5 1_555 1_555
C60_5 C12_5 1_555 1_555
C61_5 H45_5 1_555 1_555
H46_5 C61_5 1_555 1_555
C62_5 C14_5 1_555 1_555
C63_5 H47_5 1_555 1_555
H48_5 C63_5 1_555 1_555
H49_5 C63_5 1_555 1_555
O18_5 C51_5 1_555 1_555
O20_5 C52_5 1_555 1_555
O21_5 C60_5 1_555 1_555
O22_5 C62_5 1_555 1_555
C73_3 C74_3 1_555 1_555
C74_3 H56_3 1_555 1_555
H57_3 C74_3 1_555 1_555
C75_3 C76_3 1_555 1_555
C76_3 H58_3 1_555 1_555
C77_3 C76_3 1_555 1_555
H59_3 C77_3 1_555 1_555
C78_3 C77_3 1_555 1_555
C79_3 C78_3 1_555 1_555
H60_3 C79_3 1_555 1_555
C80_3 C75_3 1_555 1_555
H61_3 C80_3 1_555 1_555
C81_3 C78_3 1_555 1_555
C82_3 C81_3 1_555 1_555
H62_3 C82_3 1_555 1_555
C83_3 C82_3 1_555 1_555
C84_3 C83_3 1_555 1_555
C85_3 C39_3 1_555 1_555
C86_3 C81_3 1_555 1_555
C87_3 H63_3 1_555 1_555
H64_3 C87_3 1_555 1_555
H65_3 C87_3 1_555 1_555
C88_3 H66_3 1_555 1_555
H67_3 C88_3 1_555 1_555
H68_3 C88_3 1_555 1_555
C89_3 C83_3 1_555 1_555
C90_3 C89_3 1_555 1_555
H69_3 C90_3 1_555 1_555
C91_3 C90_3 1_555 1_555
H70_3 C91_3 1_555 1_555
C92_3 C91_3 1_555 1_555
C93_3 C92_3 1_555 1_555
H71_3 C93_3 1_555 1_555
C94_3 C89_3 1_555 1_555
H72_3 C94_3 1_555 1_555
C95_3 H73_3 1_555 1_555
H74_3 C95_3 1_555 1_555
C96_3 C95_3 1_555 1_555
O26_3 C73_3 1_555 1_555
O27_3 C73_3 1_555 1_555
O28_3 C74_3 1_555 1_555
O29_3 C86_3 1_555 1_555
O30_3 C84_3 1_555 1_555
O31_3 C92_3 1_555 1_555
O46 C96_3 1_555 1_555
O33_3 C96_3 1_555 1_555
O34_3 Cd12_2 1_555 1_555
Cd12_2 O26_3 1_555 1_555
O35_2 Cd12_2 1_555 1_555
O36_3 Cd8 1_555 1_555
O37_2 Cd12_2 1_555 1_555
O38_2 Cd12 1_555 1_555
O44_5 Cd6 1_555 1_555
O45_5 Cd6 1_555 1_555
O47_5 Cd6 1_555 1_555
Cd7 O26_3 1_555 1_555
Cd10 O18_5 1_555 1_555
Cd12_4 O2_3 1_555 1_555
C3_5 O3_5 1_555 1_555
C7_5 C8_5 1_555 1_555
C9_5 C10_5 1_555 1_555
C13_5 O4_5 1_555 1_555
C16_5 O5_5 1_555 1_555
C29_3 O11_3 1_555 1_555
C33_3 C34_3 1_555 1_555
C39_3 C40_3 1_555 1_555
C41_3 O12_3 1_555 1_555
C42_3 O13_3 1_555 1_555
C47_3 C48_3 1_555 1_555
C49_3 O14_3 1_555 1_555
O9_3 Cd12 1_555 1_555
O10_3 Cd6 1_555 1_555
C53_5 O20_5 1_555 1_555
C56_5 C59_5 1_555 1_555
C57_5 C58_5 1_555 1_555
C59_5 C60_5 1_555 1_555
C61_5 O21_5 1_555 1_555
C63_5 O22_5 1_555 1_555
C75_3 O28_3 1_555 1_555
C79_3 C80_3 1_555 1_555
C84_3 C85_3 1_555 1_555
C85_3 C86_3 1_555 1_555
C87_3 O29_3 1_555 1_555
C88_3 O30_3 1_555 1_555
C93_3 C94_3 1_555 1_555
C95_3 O31_3 1_555 1_555
O27_3 Cd7 1_555 1_555
O36_3 Cd12_4 1_555 1_555
C13_5 H75_5 1_555 1_555
C61_5 H78_5 1_555 1_555
Cd15_4 O19_5 1_555 1_555
Cd15_3 O19_6 1_555 1_555
C1_6 C2_6 1_555 1_555
C2_6 H1_6 1_555 1_555
H2_6 C2_6 1_555 1_555
C3_6 C4_6 1_555 1_555
C4_6 H3_6 1_555 1_555
C5_6 C4_6 1_555 1_555
H4_6 C5_6 1_555 1_555
C6_6 C5_6 1_555 1_555
C7_6 C6_6 1_555 1_555
H5_6 C7_6 1_555 1_555
C8_6 C3_6 1_555 1_555
H6_6 C8_6 1_555 1_555
C9_6 H7_6 1_555 1_555
C10_6 C6_6 1_555 1_555
C11_6 C10_6 1_555 1_555
C12_6 C11_6 1_555 1_555
C13_6 H8_6 1_555 1_555
H9_6 C13_6 1_555 1_555
C14_6 C12_6 1_555 1_555
C15_6 C14_6 1_555 1_555
C16_6 H10_6 1_555 1_555
H11_6 C16_6 1_555 1_555
H12_6 C16_6 1_555 1_555
O35_2 C1_6 1_555 1_555
O2_4 C1_6 1_555 1_555
O3_6 C2_6 1_555 1_555
O4_6 C11_6 1_555 1_555
O5_6 C15_6 1_555 1_555
Cd8_2 O35_2 1_555 1_555
C51_6 C52_6 1_555 1_555
C52_6 H39_6 1_555 1_555
H40_6 C52_6 1_555 1_555
C53_6 C54_6 1_555 1_555
C54_6 H41_6 1_555 1_555
C55_6 C54_6 1_555 1_555
H42_6 C55_6 1_555 1_555
C56_6 C55_6 1_555 1_555
C57_6 C56_6 1_555 1_555
H43_6 C57_6 1_555 1_555
C58_6 C53_6 1_555 1_555
H44_6 C58_6 1_555 1_555
C59_6 C9_6 1_555 1_555
C60_6 C12_6 1_555 1_555
C61_6 H45_6 1_555 1_555
H46_6 C61_6 1_555 1_555
C62_6 C14_6 1_555 1_555
C63_6 H47_6 1_555 1_555
H48_6 C63_6 1_555 1_555
H49_6 C63_6 1_555 1_555
O18_6 C51_6 1_555 1_555
O20_6 C52_6 1_555 1_555
O21_6 C60_6 1_555 1_555
O22_6 C62_6 1_555 1_555
O36_4 Cd8_2 1_555 1_555
O44_6 Cd7 1_555 1_555
O45_6 Cd7 1_555 1_555
O47_6 Cd7 1_555 1_555
Cd10_7 O18_6 1_555 1_555
Cd12_3 O2_4 1_555 1_555
C3_6 O3_6 1_555 1_555
C7_6 C8_6 1_555 1_555
C9_6 C10_6 1_555 1_555
C13_6 O4_6 1_555 1_555
C16_6 O5_6 1_555 1_555
C53_6 O20_6 1_555 1_555
C56_6 C59_6 1_555 1_555
C57_6 C58_6 1_555 1_555
C59_6 C60_6 1_555 1_555
C61_6 O21_6 1_555 1_555
C63_6 O22_6 1_555 1_555
O36_4 Cd12_3 1_555 1_555
C13_6 H75_6 1_555 1_555
C61_6 H78_6 1_555 1_555
C18_6 C17_6 1_555 1_555
H13_6 C18_6 1_555 1_555
C19_6 C17_6 1_555 1_555
C20_6 C19_6 1_555 1_555
H14_6 C20_6 1_555 1_555
C21_6 C20_6 1_555 1_555
H15_6 C21_6 1_555 1_555
C22_6 C21_6 1_555 1_555
C23_6 C22_6 1_555 1_555
H16_6 C23_6 1_555 1_555
C24_6 C19_6 1_555 1_555
H17_6 C24_6 1_555 1_555
C25_6 H18_6 1_555 1_555
H19_6 C25_6 1_555 1_555
C26_6 C25_6 1_555 1_555
O6_6 C22_6 1_555 1_555
O7_6 C26_6 1_555 1_555
O8_6 C26_6 1_555 1_555
C64_6 C18_6 1_555 1_555
C65_6 C64_6 1_555 1_555
C66_6 C65_6 1_555 1_555
H50_6 C66_6 1_555 1_555
C67_6 C66_6 1_555 1_555
H51_6 C67_6 1_555 1_555
C68_6 C67_6 1_555 1_555
C69_6 C68_6 1_555 1_555
H52_6 C69_6 1_555 1_555
C70_6 C65_6 1_555 1_555
H53_6 C70_6 1_555 1_555
C71_6 H54_6 1_555 1_555
H55_6 C71_6 1_555 1_555
C72_6 C71_6 1_555 1_555
O23_6 C68_6 1_555 1_555
O40_2 C72_6 1_555 1_555
O42 C72_6 1_555 1_555
Cd9_4 O7_6 1_555 1_555
Cd14_2 O8_6 1_555 1_555
C23_6 C24_6 1_555 1_555
C25_6 O6_6 1_555 1_555
O8_6 Cd9_4 1_555 1_555
C69_6 C70_6 1_555 1_555
C71_6 O23_6 1_555 1_555
C1_7 C2_7 1_555 1_555
C2_7 H1_7 1_555 1_555
H2_7 C2_7 1_555 1_555
C3_7 C4_7 1_555 1_555
C4_7 H3_7 1_555 1_555
C5_7 C4_7 1_555 1_555
H4_7 C5_7 1_555 1_555
C6_7 C5_7 1_555 1_555
C7_7 C6_7 1_555 1_555
H5_7 C7_7 1_555 1_555
C8_7 C3_7 1_555 1_555
H6_7 C8_7 1_555 1_555
C9_7 H7_7 1_555 1_555
C10_7 C6_7 1_555 1_555
C11_7 C10_7 1_555 1_555
C12_7 C11_7 1_555 1_555
C13_7 H8_7 1_555 1_555
H9_7 C13_7 1_555 1_555
C14_7 C12_7 1_555 1_555
C15_7 C14_7 1_555 1_555
C16_7 H10_7 1_555 1_555
H11_7 C16_7 1_555 1_555
H12_7 C16_7 1_555 1_555
C27_4 C28_4 1_555 1_555
C28_4 H20_4 1_555 1_555
H21_4 C28_4 1_555 1_555
C29_4 C30_4 1_555 1_555
C30_4 H22_4 1_555 1_555
C31_4 C30_4 1_555 1_555
H23_4 C31_4 1_555 1_555
C32_4 C31_4 1_555 1_555
C33_4 C32_4 1_555 1_555
H24_4 C33_4 1_555 1_555
C34_4 C29_4 1_555 1_555
H25_4 C34_4 1_555 1_555
C35_4 C32_4 1_555 1_555
C36_4 C35_4 1_555 1_555
H26_4 C36_4 1_555 1_555
C37_4 C36_4 1_555 1_555
C38_4 C37_4 1_555 1_555
C39_4 C38_4 1_555 1_555
C40_4 C35_4 1_555 1_555
C41_4 H27_4 1_555 1_555
H28_4 C41_4 1_555 1_555
H29_4 C41_4 1_555 1_555
C42_4 H30_4 1_555 1_555
H31_4 C42_4 1_555 1_555
H32_4 C42_4 1_555 1_555
C43_4 C37_4 1_555 1_555
C44_4 C43_4 1_555 1_555
H33_4 C44_4 1_555 1_555
C45_4 C44_4 1_555 1_555
H34_4 C45_4 1_555 1_555
C46_4 C45_4 1_555 1_555
C47_4 C46_4 1_555 1_555
H35_4 C47_4 1_555 1_555
C48_4 C43_4 1_555 1_555
H36_4 C48_4 1_555 1_555
C49_4 H37_4 1_555 1_555
H38_4 C49_4 1_555 1_555
C50_4 C49_4 1_555 1_555
O36_4 C1_7 1_555 1_555
O37_2 C1_7 1_555 1_555
O3_7 C2_7 1_555 1_555
O4_7 C11_7 1_555 1_555
O5_7 C15_7 1_555 1_555
O9_4 C27_4 1_555 1_555
O10_4 C27_4 1_555 1_555
O11_4 C28_4 1_555 1_555
O12_4 C40_4 1_555 1_555
O13_4 C38_4 1_555 1_555
O14_4 C46_4 1_555 1_555
O46_4 C50_4 1_555 1_555
O16_4 C50_4 1_555 1_555
O17_4 Cd12_3 1_555 1_555
Cd6_2 O9_4 1_555 1_555
C51_7 C52_7 1_555 1_555
C52_7 H39_7 1_555 1_555
H40_7 C52_7 1_555 1_555
C53_7 C54_7 1_555 1_555
C54_7 H41_7 1_555 1_555
C55_7 C54_7 1_555 1_555
H42_7 C55_7 1_555 1_555
C56_7 C55_7 1_555 1_555
C57_7 C56_7 1_555 1_555
H43_7 C57_7 1_555 1_555
C58_7 C53_7 1_555 1_555
H44_7 C58_7 1_555 1_555
C59_7 C9_7 1_555 1_555
C60_7 C12_7 1_555 1_555
C61_7 H45_7 1_555 1_555
H46_7 C61_7 1_555 1_555
C62_7 C14_7 1_555 1_555
C63_7 H47_7 1_555 1_555
H48_7 C63_7 1_555 1_555
H49_7 C63_7 1_555 1_555
O18_7 C51_7 1_555 1_555
O20_7 C52_7 1_555 1_555
O21_7 C60_7 1_555 1_555
O22_7 C62_7 1_555 1_555
C73_4 C74_4 1_555 1_555
C74_4 H56_4 1_555 1_555
H57_4 C74_4 1_555 1_555
C75_4 C76_4 1_555 1_555
C76_4 H58_4 1_555 1_555
C77_4 C76_4 1_555 1_555
H59_4 C77_4 1_555 1_555
C78_4 C77_4 1_555 1_555
C79_4 C78_4 1_555 1_555
H60_4 C79_4 1_555 1_555
C80_4 C75_4 1_555 1_555
H61_4 C80_4 1_555 1_555
C81_4 C78_4 1_555 1_555
C82_4 C81_4 1_555 1_555
H62_4 C82_4 1_555 1_555
C83_4 C82_4 1_555 1_555
C84_4 C83_4 1_555 1_555
C85_4 C39_4 1_555 1_555
C86_4 C81_4 1_555 1_555
C87_4 H63_4 1_555 1_555
H64_4 C87_4 1_555 1_555
H65_4 C87_4 1_555 1_555
C88_4 H66_4 1_555 1_555
H67_4 C88_4 1_555 1_555
H68_4 C88_4 1_555 1_555
C89_4 C83_4 1_555 1_555
C90_4 C89_4 1_555 1_555
H69_4 C90_4 1_555 1_555
C91_4 C90_4 1_555 1_555
H70_4 C91_4 1_555 1_555
C92_4 C91_4 1_555 1_555
C93_4 C92_4 1_555 1_555
H71_4 C93_4 1_555 1_555
C94_4 C89_4 1_555 1_555
H72_4 C94_4 1_555 1_555
C95_4 H73_4 1_555 1_555
H74_4 C95_4 1_555 1_555
C96_4 C95_4 1_555 1_555
O26_4 C73_4 1_555 1_555
O27_4 C73_4 1_555 1_555
O28_4 C74_4 1_555 1_555
O29_4 C86_4 1_555 1_555
O30_4 C84_4 1_555 1_555
O31_4 C92_4 1_555 1_555
O46_3 C96_4 1_555 1_555
O33_4 C96_4 1_555 1_555
O34_4 Cd12_4 1_555 1_555
Cd12_4 O26_4 1_555 1_555
O44_7 Cd6_2 1_555 1_555
O45_7 Cd6_2 1_555 1_555
O47_7 Cd6_2 1_555 1_555
Cd7_2 O26_4 1_555 1_555
Cd10_6 O18_7 1_555 1_555
C3_7 O3_7 1_555 1_555
C7_7 C8_7 1_555 1_555
C9_7 C10_7 1_555 1_555
C13_7 O4_7 1_555 1_555
C16_7 O5_7 1_555 1_555
C29_4 O11_4 1_555 1_555
C33_4 C34_4 1_555 1_555
C39_4 C40_4 1_555 1_555
C41_4 O12_4 1_555 1_555
C42_4 O13_4 1_555 1_555
C47_4 C48_4 1_555 1_555
C49_4 O14_4 1_555 1_555
O9_4 Cd12_3 1_555 1_555
O10_4 Cd6_2 1_555 1_555
C53_7 O20_7 1_555 1_555
C56_7 C59_7 1_555 1_555
C57_7 C58_7 1_555 1_555
C59_7 C60_7 1_555 1_555
C61_7 O21_7 1_555 1_555
C63_7 O22_7 1_555 1_555
C75_4 O28_4 1_555 1_555
C79_4 C80_4 1_555 1_555
C84_4 C85_4 1_555 1_555
C85_4 C86_4 1_555 1_555
C87_4 O29_4 1_555 1_555
C88_4 O30_4 1_555 1_555
C93_4 C94_4 1_555 1_555
C95_4 O31_4 1_555 1_555
O27_4 Cd7_2 1_555 1_555
C13_7 H75_7 1_555 1_555
C61_7 H78_7 1_555 1_555
C18_7 C17_7 1_555 1_555
H13_7 C18_7 1_555 1_555
C19_7 C17_7 1_555 1_555
C20_7 C19_7 1_555 1_555
H14_7 C20_7 1_555 1_555
C21_7 C20_7 1_555 1_555
H15_7 C21_7 1_555 1_555
C22_7 C21_7 1_555 1_555
C23_7 C22_7 1_555 1_555
H16_7 C23_7 1_555 1_555
C24_7 C19_7 1_555 1_555
H17_7 C24_7 1_555 1_555
C25_7 H18_7 1_555 1_555
H19_7 C25_7 1_555 1_555
C26_7 C25_7 1_555 1_555
O6_7 C22_7 1_555 1_555
O7_7 C26_7 1_555 1_555
O8_7 C26_7 1_555 1_555
C64_7 C18_7 1_555 1_555
C65_7 C64_7 1_555 1_555
C66_7 C65_7 1_555 1_555
H50_7 C66_7 1_555 1_555
C67_7 C66_7 1_555 1_555
H51_7 C67_7 1_555 1_555
C68_7 C67_7 1_555 1_555
C69_7 C68_7 1_555 1_555
H52_7 C69_7 1_555 1_555
C70_7 C65_7 1_555 1_555
H53_7 C70_7 1_555 1_555
C71_7 H54_7 1_555 1_555
H55_7 C71_7 1_555 1_555
C72_7 C71_7 1_555 1_555
O23_7 C68_7 1_555 1_555
O39_2 C72_7 1_555 1_555
O41_2 C72_7 1_555 1_555
Cd9_3 O7_7 1_555 1_555
Cd13_2 O8_7 1_555 1_555
C23_7 C24_7 1_555 1_555
C25_7 O6_7 1_555 1_555
O8_7 Cd9_3 1_555 1_555
C69_7 C70_7 1_555 1_555
C71_7 O23_7 1_555 1_555
Cd15_2 O19_7 1_555 1_555
Cd15 O19_8 1_555 1_555
C18_8 C17_8 1_555 1_555
H13_8 C18_8 1_555 1_555
C19_8 C17_8 1_555 1_555
C20_8 C19_8 1_555 1_555
H14_8 C20_8 1_555 1_555
C21_8 C20_8 1_555 1_555
H15_8 C21_8 1_555 1_555
C22_8 C21_8 1_555 1_555
C23_8 C22_8 1_555 1_555
H16_8 C23_8 1_555 1_555
C24_8 C19_8 1_555 1_555
H17_8 C24_8 1_555 1_555
C25_8 H18_8 1_555 1_555
H19_8 C25_8 1_555 1_555
C26_8 C25_8 1_555 1_555
O6_8 C22_8 1_555 1_555
O7_8 C26_8 1_555 1_555
O8_8 C26_8 1_555 1_555
C64_8 C18_8 1_555 1_555
C65_8 C64_8 1_555 1_555
C66_8 C65_8 1_555 1_555
H50_8 C66_8 1_555 1_555
C67_8 C66_8 1_555 1_555
H51_8 C67_8 1_555 1_555
C68_8 C67_8 1_555 1_555
C69_8 C68_8 1_555 1_555
H52_8 C69_8 1_555 1_555
C70_8 C65_8 1_555 1_555
H53_8 C70_8 1_555 1_555
C71_8 H54_8 1_555 1_555
H55_8 C71_8 1_555 1_555
C72_8 C71_8 1_555 1_555
O23_8 C68_8 1_555 1_555
O39 C72_8 1_555 1_555
O41 C72_8 1_555 1_555
Cd9_2 O7_8 1_555 1_555
Cd13 O8_8 1_555 1_555
C23_8 C24_8 1_555 1_555
C25_8 O6_8 1_555 1_555
O8_8 Cd9_2 1_555 1_555
C69_8 C70_8 1_555 1_555
C71_8 O23_8 1_555 1_555
C1_8 C2_8 1_555 1_555
C2_8 H1_8 1_555 1_555
H2_8 C2_8 1_555 1_555
C3_8 C4_8 1_555 1_555
C4_8 H3_8 1_555 1_555
C5_8 C4_8 1_555 1_555
H4_8 C5_8 1_555 1_555
C6_8 C5_8 1_555 1_555
C7_8 C6_8 1_555 1_555
H5_8 C7_8 1_555 1_555
C8_8 C3_8 1_555 1_555
H6_8 C8_8 1_555 1_555
C9_8 H7_8 1_555 1_555
C10_8 C6_8 1_555 1_555
C11_8 C10_8 1_555 1_555
C12_8 C11_8 1_555 1_555
C13_8 H8_8 1_555 1_555
H9_8 C13_8 1_555 1_555
C14_8 C12_8 1_555 1_555
C15_8 C14_8 1_555 1_555
C16_8 H10_8 1_555 1_555
H11_8 C16_8 1_555 1_555
H12_8 C16_8 1_555 1_555
O36_3 C1_8 1_555 1_555
O38_2 C1_8 1_555 1_555
O3_8 C2_8 1_555 1_555
O4_8 C11_8 1_555 1_555
O5_8 C15_8 1_555 1_555
C51_8 C52_8 1_555 1_555
C52_8 H39_8 1_555 1_555
H40_8 C52_8 1_555 1_555
C53_8 C54_8 1_555 1_555
C54_8 H41_8 1_555 1_555
C55_8 C54_8 1_555 1_555
H42_8 C55_8 1_555 1_555
C56_8 C55_8 1_555 1_555
C57_8 C56_8 1_555 1_555
H43_8 C57_8 1_555 1_555
C58_8 C53_8 1_555 1_555
H44_8 C58_8 1_555 1_555
C59_8 C9_8 1_555 1_555
C60_8 C12_8 1_555 1_555
C61_8 H45_8 1_555 1_555
H46_8 C61_8 1_555 1_555
C62_8 C14_8 1_555 1_555
C63_8 H47_8 1_555 1_555
H48_8 C63_8 1_555 1_555
H49_8 C63_8 1_555 1_555
O18_8 C51_8 1_555 1_555
O20_8 C52_8 1_555 1_555
O21_8 C60_8 1_555 1_555
O22_8 C62_8 1_555 1_555
O44_8 Cd7_2 1_555 1_555
O45_8 Cd7_2 1_555 1_555
O47_8 Cd7_2 1_555 1_555
Cd10_4 O18_8 1_555 1_555
C3_8 O3_8 1_555 1_555
C7_8 C8_8 1_555 1_555
C9_8 C10_8 1_555 1_555
C13_8 O4_8 1_555 1_555
C16_8 O5_8 1_555 1_555
C53_8 O20_8 1_555 1_555
C56_8 C59_8 1_555 1_555
C57_8 C58_8 1_555 1_555
C59_8 C60_8 1_555 1_555
C61_8 O21_8 1_555 1_555
C63_8 O22_8 1_555 1_555
C13_8 H75_8 1_555 1_555
C61_8 H78_8 1_555 1_555
C37_5 C36_5 1_555 1_555
C38_5 C37_5 1_555 1_555
C39_5 C38_5 1_555 1_555
H31_5 C42_5 1_555 1_555
H32_5 C42_5 1_555 1_555
C43_5 C37_5 1_555 1_555
C44_5 C43_5 1_555 1_555
H33_5 C44_5 1_555 1_555
C45_5 C44_5 1_555 1_555
H34_5 C45_5 1_555 1_555
C46_5 C45_5 1_555 1_555
C47_5 C46_5 1_555 1_555
H35_5 C47_5 1_555 1_555
C48_5 C43_5 1_555 1_555
H36_5 C48_5 1_555 1_555
C49_5 H37_5 1_555 1_555
H38_5 C49_5 1_555 1_555
C50_5 C49_5 1_555 1_555
O13_5 C38_5 1_555 1_555
O14_5 C46_5 1_555 1_555
O47 C50_5 1_555 1_555
O16_5 C50_5 1_555 1_555
C42_5 O13_5 1_555 1_555
C47_5 C48_5 1_555 1_555
C49_5 O14_5 1_555 1_555
C73_5 C74_5 1_555 1_555
C74_5 H56_5 1_555 1_555
H57_5 C74_5 1_555 1_555
C75_5 C76_5 1_555 1_555
C76_5 H58_5 1_555 1_555
C77_5 C76_5 1_555 1_555
H59_5 C77_5 1_555 1_555
C78_5 C77_5 1_555 1_555
C79_5 C78_5 1_555 1_555
H60_5 C79_5 1_555 1_555
C80_5 C75_5 1_555 1_555
H61_5 C80_5 1_555 1_555
C81_5 C78_5 1_555 1_555
C82_5 C81_5 1_555 1_555
H62_5 C82_5 1_555 1_555
C86_5 C81_5 1_555 1_555
C87_5 H63_5 1_555 1_555
H64_5 C87_5 1_555 1_555
H65_5 C87_5 1_555 1_555
O44_5 C73_5 1_555 1_555
O45_5 C73_5 1_555 1_555
O28_5 C74_5 1_555 1_555
O29_5 C86_5 1_555 1_555
O34_5 Cd13_2 1_555 1_555
Cd13_2 O44_5 1_555 1_555
C75_5 O28_5 1_555 1_555
C79_5 C80_5 1_555 1_555
C87_5 O29_5 1_555 1_555
C27_5 C28_5 1_555 1_555
C28_5 H20_5 1_555 1_555
H21_5 C28_5 1_555 1_555
C29_5 C30_5 1_555 1_555
C30_5 H22_5 1_555 1_555
C31_5 C30_5 1_555 1_555
H23_5 C31_5 1_555 1_555
C32_5 C31_5 1_555 1_555
C33_5 C32_5 1_555 1_555
H24_5 C33_5 1_555 1_555
C34_5 C29_5 1_555 1_555
H25_5 C34_5 1_555 1_555
C35_5 C32_5 1_555 1_555
C36_6 C35_5 1_555 1_555
H26_5 C36_6 1_555 1_555
C40_5 C35_5 1_555 1_555
C41_5 H27_5 1_555 1_555
H28_5 C41_5 1_555 1_555
H29_5 C41_5 1_555 1_555
O44_6 C27_5 1_555 1_555
O45_6 C27_5 1_555 1_555
O11_5 C28_5 1_555 1_555
O12_5 C40_5 1_555 1_555
O17_5 Cd13 1_555 1_555
C29_5 O11_5 1_555 1_555
C33_5 C34_5 1_555 1_555
C41_5 O12_5 1_555 1_555
O44_6 Cd13 1_555 1_555
C83_5 C82_6 1_555 1_555
C84_5 C83_5 1_555 1_555
H67_5 C88_5 1_555 1_555
H68_5 C88_5 1_555 1_555
C89_5 C83_5 1_555 1_555
C90_5 C89_5 1_555 1_555
H69_5 C90_5 1_555 1_555
C91_5 C90_5 1_555 1_555
H70_5 C91_5 1_555 1_555
C92_5 C91_5 1_555 1_555
C93_5 C92_5 1_555 1_555
H71_5 C93_5 1_555 1_555
C94_5 C89_5 1_555 1_555
H72_5 C94_5 1_555 1_555
C95_5 H73_5 1_555 1_555
H74_5 C95_5 1_555 1_555
C96_5 C95_5 1_555 1_555
O30_5 C84_5 1_555 1_555
O31_5 C92_5 1_555 1_555
O47_2 C96_5 1_555 1_555
O33_5 C96_5 1_555 1_555
C84_5 C85_5 1_555 1_555
C88_5 O30_5 1_555 1_555
C93_5 C94_5 1_555 1_555
C95_5 O31_5 1_555 1_555
C73_6 C74_6 1_555 1_555
C74_6 H56_6 1_555 1_555
H57_6 C74_6 1_555 1_555
C75_6 C76_6 1_555 1_555
C76_6 H58_6 1_555 1_555
C77_6 C76_6 1_555 1_555
H59_6 C77_6 1_555 1_555
C78_6 C77_6 1_555 1_555
C79_6 C78_6 1_555 1_555
H60_6 C79_6 1_555 1_555
C80_6 C75_6 1_555 1_555
H61_6 C80_6 1_555 1_555
C81_6 C78_6 1_555 1_555
C82_7 C81_6 1_555 1_555
H62_6 C82_7 1_555 1_555
C86_6 C81_6 1_555 1_555
C87_6 H63_6 1_555 1_555
H64_6 C87_6 1_555 1_555
H65_6 C87_6 1_555 1_555
O44_7 C73_6 1_555 1_555
O45_7 C73_6 1_555 1_555
O28_6 C74_6 1_555 1_555
O29_6 C86_6 1_555 1_555
O34_6 Cd14 1_555 1_555
Cd14 O44_7 1_555 1_555
C75_6 O28_6 1_555 1_555
C79_6 C80_6 1_555 1_555
C87_6 O29_6 1_555 1_555
C37_6 C36_7 1_555 1_555
C38_6 C37_6 1_555 1_555
C39_6 C38_6 1_555 1_555
H31_6 C42_6 1_555 1_555
H32_6 C42_6 1_555 1_555
C43_6 C37_6 1_555 1_555
C44_6 C43_6 1_555 1_555
H33_6 C44_6 1_555 1_555
C45_6 C44_6 1_555 1_555
H34_6 C45_6 1_555 1_555
C46_6 C45_6 1_555 1_555
C47_6 C46_6 1_555 1_555
H35_6 C47_6 1_555 1_555
C48_6 C43_6 1_555 1_555
H36_6 C48_6 1_555 1_555
C49_6 H37_6 1_555 1_555
H38_6 C49_6 1_555 1_555
C50_6 C49_6 1_555 1_555
O13_6 C38_6 1_555 1_555
O14_6 C46_6 1_555 1_555
O47_3 C50_6 1_555 1_555
O16_6 C50_6 1_555 1_555
C42_6 O13_6 1_555 1_555
C47_6 C48_6 1_555 1_555
C49_6 O14_6 1_555 1_555
C83_6 C82_8 1_555 1_555
C84_6 C83_6 1_555 1_555
H67_6 C88_6 1_555 1_555
H68_6 C88_6 1_555 1_555
C89_6 C83_6 1_555 1_555
C90_6 C89_6 1_555 1_555
H69_6 C90_6 1_555 1_555
C91_6 C90_6 1_555 1_555
H70_6 C91_6 1_555 1_555
C92_6 C91_6 1_555 1_555
C93_6 C92_6 1_555 1_555
H71_6 C93_6 1_555 1_555
C94_6 C89_6 1_555 1_555
H72_6 C94_6 1_555 1_555
C95_6 H73_6 1_555 1_555
H74_6 C95_6 1_555 1_555
C96_6 C95_6 1_555 1_555
O30_6 C84_6 1_555 1_555
O31_6 C92_6 1_555 1_555
O47_4 C96_6 1_555 1_555
O33_6 C96_6 1_555 1_555
C84_6 C85_6 1_555 1_555
C88_6 O30_6 1_555 1_555
C93_6 C94_6 1_555 1_555
C95_6 O31_6 1_555 1_555
C27_6 C28_6 1_555 1_555
C28_6 H20_6 1_555 1_555
H21_6 C28_6 1_555 1_555
C29_6 C30_6 1_555 1_555
C30_6 H22_6 1_555 1_555
C31_6 C30_6 1_555 1_555
H23_6 C31_6 1_555 1_555
C32_6 C31_6 1_555 1_555
C33_6 C32_6 1_555 1_555
H24_6 C33_6 1_555 1_555
C34_6 C29_6 1_555 1_555
H25_6 C34_6 1_555 1_555
C35_6 C32_6 1_555 1_555
C36_8 C35_6 1_555 1_555
H26_6 C36_8 1_555 1_555
C40_6 C35_6 1_555 1_555
C41_6 H27_6 1_555 1_555
H28_6 C41_6 1_555 1_555
H29_6 C41_6 1_555 1_555
O44_8 C27_6 1_555 1_555
O45_8 C27_6 1_555 1_555
O11_6 C28_6 1_555 1_555
O12_6 C40_6 1_555 1_555
O17_6 Cd14_2 1_555 1_555
C29_6 O11_6 1_555 1_555
C33_6 C34_6 1_555 1_555
C41_6 O12_6 1_555 1_555
O44_8 Cd14_2 1_555 1_555
O34_7 Cd15_3 1_555 1_555
C37_7 C36_9 1_555 1_555
C38_7 C37_7 1_555 1_555
C39_7 C38_7 1_555 1_555
C42_7 H30_7 1_555 1_555
H31_7 C42_7 1_555 1_555
H32_7 C42_7 1_555 1_555
C43_7 C37_7 1_555 1_555
C44_7 C43_7 1_555 1_555
H33_7 C44_7 1_555 1_555
C45_7 C44_7 1_555 1_555
H34_7 C45_7 1_555 1_555
C46_7 C45_7 1_555 1_555
C47_7 C46_7 1_555 1_555
H35_7 C47_7 1_555 1_555
C48_7 C43_7 1_555 1_555
H36_7 C48_7 1_555 1_555
C49_7 H37_7 1_555 1_555
H38_7 C49_7 1_555 1_555
C50_7 C49_7 1_555 1_555
O13_7 C38_7 1_555 1_555
O14_7 C46_7 1_555 1_555
O47_5 C50_7 1_555 1_555
O16_7 C50_7 1_555 1_555
C73_7 C74_7 1_555 1_555
C74_7 H56_7 1_555 1_555
H57_7 C74_7 1_555 1_555
C75_7 C76_7 1_555 1_555
C76_7 H58_7 1_555 1_555
C77_7 C76_7 1_555 1_555
H59_7 C77_7 1_555 1_555
C78_7 C77_7 1_555 1_555
C79_7 C78_7 1_555 1_555
H60_7 C79_7 1_555 1_555
C80_7 C75_7 1_555 1_555
H61_7 C80_7 1_555 1_555
C81_7 C78_7 1_555 1_555
C82_9 C81_7 1_555 1_555
H62_7 C82_9 1_555 1_555
C86_7 C81_7 1_555 1_555
C87_7 H63_7 1_555 1_555
H64_7 C87_7 1_555 1_555
H65_7 C87_7 1_555 1_555
O44 C73_7 1_555 1_555
O45 C73_7 1_555 1_555
O28_7 C74_7 1_555 1_555
O29_7 C86_7 1_555 1_555
C42_7 O13_7 1_555 1_555
C47_7 C48_7 1_555 1_555
C49_7 O14_7 1_555 1_555
C75_7 O28_7 1_555 1_555
C79_7 C80_7 1_555 1_555
C87_7 O29_7 1_555 1_555
O17_7 Cd15_4 1_555 1_555
C27_7 C28_7 1_555 1_555
C28_7 H20_7 1_555 1_555
H21_7 C28_7 1_555 1_555
C29_7 C30_7 1_555 1_555
C30_7 H22_7 1_555 1_555
C31_7 C30_7 1_555 1_555
H23_7 C31_7 1_555 1_555
C32_7 C31_7 1_555 1_555
C33_7 C32_7 1_555 1_555
H24_7 C33_7 1_555 1_555
C34_7 C29_7 1_555 1_555
H25_7 C34_7 1_555 1_555
C35_7 C32_7 1_555 1_555
C36_10 C35_7 1_555 1_555
H26_7 C36_10 1_555 1_555
C40_7 C35_7 1_555 1_555
C41_7 H27_7 1_555 1_555
H28_7 C41_7 1_555 1_555
H29_7 C41_7 1_555 1_555
O44_2 C27_7 1_555 1_555
O45_2 C27_7 1_555 1_555
O11_7 C28_7 1_555 1_555
O12_7 C40_7 1_555 1_555
C83_7 C82_10 1_555 1_555
C84_7 C83_7 1_555 1_555
C88_7 H66_7 1_555 1_555
H67_7 C88_7 1_555 1_555
H68_7 C88_7 1_555 1_555
C89_7 C83_7 1_555 1_555
C90_7 C89_7 1_555 1_555
H69_7 C90_7 1_555 1_555
C91_7 C90_7 1_555 1_555
H70_7 C91_7 1_555 1_555
C92_7 C91_7 1_555 1_555
C93_7 C92_7 1_555 1_555
H71_7 C93_7 1_555 1_555
C94_7 C89_7 1_555 1_555
H72_7 C94_7 1_555 1_555
C95_7 H73_7 1_555 1_555
H74_7 C95_7 1_555 1_555
C96_7 C95_7 1_555 1_555
O30_7 C84_7 1_555 1_555
O31_7 C92_7 1_555 1_555
O47_6 C96_7 1_555 1_555
O33_7 C96_7 1_555 1_555
C29_7 O11_7 1_555 1_555
C33_7 C34_7 1_555 1_555
C41_7 O12_7 1_555 1_555
C84_7 C85_7 1_555 1_555
C88_7 O30_7 1_555 1_555
C93_7 C94_7 1_555 1_555
C95_7 O31_7 1_555 1_555
C37_8 C36_11 1_555 1_555
C38_8 C37_8 1_555 1_555
C39_8 C38_8 1_555 1_555
C42_8 H30_8 1_555 1_555
H31_8 C42_8 1_555 1_555
H32_8 C42_8 1_555 1_555
C43_8 C37_8 1_555 1_555
C44_8 C43_8 1_555 1_555
H33_8 C44_8 1_555 1_555
C45_8 C44_8 1_555 1_555
H34_8 C45_8 1_555 1_555
C46_8 C45_8 1_555 1_555
C47_8 C46_8 1_555 1_555
H35_8 C47_8 1_555 1_555
C48_8 C43_8 1_555 1_555
H36_8 C48_8 1_555 1_555
C49_8 H37_8 1_555 1_555
H38_8 C49_8 1_555 1_555
C50_8 C49_8 1_555 1_555
O13_8 C38_8 1_555 1_555
O14_8 C46_8 1_555 1_555
O47_7 C50_8 1_555 1_555
O16_8 C50_8 1_555 1_555
C73_8 C74_8 1_555 1_555
C74_8 H56_8 1_555 1_555
H57_8 C74_8 1_555 1_555
C75_8 C76_8 1_555 1_555
C76_8 H58_8 1_555 1_555
C77_8 C76_8 1_555 1_555
H59_8 C77_8 1_555 1_555
C78_8 C77_8 1_555 1_555
C79_8 C78_8 1_555 1_555
H60_8 C79_8 1_555 1_555
C80_8 C75_8 1_555 1_555
H61_8 C80_8 1_555 1_555
C81_8 C78_8 1_555 1_555
C82_11 C81_8 1_555 1_555
H62_8 C82_11 1_555 1_555
C86_8 C81_8 1_555 1_555
C87_8 H63_8 1_555 1_555
H64_8 C87_8 1_555 1_555
H65_8 C87_8 1_555 1_555
O44_3 C73_8 1_555 1_555
O45_3 C73_8 1_555 1_555
O28_8 C74_8 1_555 1_555
O29_8 C86_8 1_555 1_555
C42_8 O13_8 1_555 1_555
C47_8 C48_8 1_555 1_555
C49_8 O14_8 1_555 1_555
C75_8 O28_8 1_555 1_555
C79_8 C80_8 1_555 1_555
C87_8 O29_8 1_555 1_555
O34_8 Cd15 1_555 1_555
C27_8 C28_8 1_555 1_555
C28_8 H20_8 1_555 1_555
H21_8 C28_8 1_555 1_555
C29_8 C30_8 1_555 1_555
C30_8 H22_8 1_555 1_555
C31_8 C30_8 1_555 1_555
H23_8 C31_8 1_555 1_555
C32_8 C31_8 1_555 1_555
C33_8 C32_8 1_555 1_555
H24_8 C33_8 1_555 1_555
C34_8 C29_8 1_555 1_555
H25_8 C34_8 1_555 1_555
C35_8 C32_8 1_555 1_555
C36_12 C35_8 1_555 1_555
H26_8 C36_12 1_555 1_555
C40_8 C35_8 1_555 1_555
C41_8 H27_8 1_555 1_555
H28_8 C41_8 1_555 1_555
H29_8 C41_8 1_555 1_555
O44_4 C27_8 1_555 1_555
O45_4 C27_8 1_555 1_555
O11_8 C28_8 1_555 1_555
O12_8 C40_8 1_555 1_555
C83_8 C82_12 1_555 1_555
C84_8 C83_8 1_555 1_555
C88_8 H66_8 1_555 1_555
H67_8 C88_8 1_555 1_555
H68_8 C88_8 1_555 1_555
C89_8 C83_8 1_555 1_555
C90_8 C89_8 1_555 1_555
H69_8 C90_8 1_555 1_555
C91_8 C90_8 1_555 1_555
H70_8 C91_8 1_555 1_555
C92_8 C91_8 1_555 1_555
C93_8 C92_8 1_555 1_555
H71_8 C93_8 1_555 1_555
C94_8 C89_8 1_555 1_555
H72_8 C94_8 1_555 1_555
C95_8 H73_8 1_555 1_555
H74_8 C95_8 1_555 1_555
C96_8 C95_8 1_555 1_555
O30_8 C84_8 1_555 1_555
O31_8 C92_8 1_555 1_555
O47_8 C96_8 1_555 1_555
O33_8 C96_8 1_555 1_555
C29_8 O11_8 1_555 1_555
C33_8 C34_8 1_555 1_555
C41_8 O12_8 1_555 1_555
C84_8 C85_8 1_555 1_555
C88_8 O30_8 1_555 1_555
C93_8 C94_8 1_555 1_555
C95_8 O31_8 1_555 1_555
O17_8 Cd15_2 1_555 1_555

#END
