
###############################################################################
#
# This file contains modified crystal structure data generated from the
# MOF subset of the Cambridge Structural Database (CSD) v543 
# hosted by the Cambridge Crystallographic Data Centre (CCDC).
#
# This work is licensed under the Creative Commons
# Attribution-NonCommercial-ShareAlike 4.0 International License.
# To view a copy of this license, visit
# http://creativecommons.org/licenses/by-nc-sa/4.0/
# or send a letter to
# Creative Commons, PO Box 1866, Mountain View, CA 94042, USA.
#
# CIF created using the CSD Python API on 29 September 2022
# The structure has been converted into the P1 space group
# The structure has a 3D framework
# The original CSD entry ZEYRON is in the triclinic crystal system
# The framework has been calculated to contain at least 10.0% void space
# The void calculation uses a probe of radius 1.32A, grid spacing 0.4
# The framework is charged, counterions have been retained in the structure
# H atom positions have been added when not included in the experimental data
#
###############################################################################

data_ZEYRON
_chemical_formula_moiety         '(C104 H112 Mn6 N4 O32 1-)n'
_symmetry_cell_setting           triclinic
_symmetry_space_group_name_H-M   'P 1'
_symmetry_Int_Tables_number      1
_space_group_name_Hall           'P 1'
loop_
_symmetry_equiv_pos_site_id
_symmetry_equiv_pos_as_xyz
1 x,y,z
_cell_length_a                   14.1569(11)
_cell_length_b                   16.4929(12)
_cell_length_c                   16.5300(12)
_cell_angle_alpha                84.763(2)
_cell_angle_beta                 75.835(2)
_cell_angle_gamma                88.628(2)
_cell_volume                     3726.59
loop_
_atom_site_label
_atom_site_type_symbol
_atom_site_fract_x
_atom_site_fract_y
_atom_site_fract_z
O7 O 0.0495(3) 0.1095(2) 0.0338(2)
C47 C 0.0230(4) 0.2404(3) 0.0772(3)
H38 H 0.087688 0.255543 0.080391
C48 C 0.0336(3) 0.1814(3) 0.0098(3)
Mn10 Mn 0.000000 0.000000 0.000000
O8 O 0.0265(2) 0.2093(2) 0.9387(2)
Mn7 Mn 0.04667(5) 0.15884(4) 0.81839(4)
Mn10_2 Mn 0.000000 0.000000 1.000000
Mn10_3 Mn 0.000000 1.000000 0.000000
Mn10_4 Mn 0.000000 1.000000 1.000000
O36 O 0.0937(2) 0.0240(2) 0.8717(2)
O1 O 0.1269(2) 0.9451(2) 0.0366(2)
O2 O 0.0937(2) 0.8852(2) 0.1683(2)
O3 O 0.2826(2) 0.8894(2) 0.1741(2)
O9 O 0.9695(2) 0.3129(2) 0.0656(2)
O10 O 0.0477(3) 0.2769(2) 0.7638(2)
O11 O 0.0074(3) 0.3904(2) 0.6948(2)
O13 O 0.2631(3) 0.2938(2) 0.2840(2)
O14 O 0.3872(2) 0.5221(2) 0.0964(2)
O15 O 0.2745(2) 0.3160(2) 0.0786(2)
O16 O 0.5220(2) 0.3976(2) 0.2056(2)
C1 C 0.1491(4) 0.9182(3) 0.1024(3)
C2 C 0.2554(4) 0.9290(3) 0.1028(3)
H1 H 0.296020 0.908304 0.052731
H2 H 0.268672 0.986778 0.100078
C3 C 0.2813(3) 0.8058(3) 0.1819(3)
C4 C 0.2579(3) 0.7580(3) 0.1240(3)
H3 H 0.242730 0.782709 0.075840
C5 C 0.2575(3) 0.6739(3) 0.1382(3)
H4 H 0.242739 0.642445 0.099061
C6 C 0.2788(3) 0.6359(3) 0.2101(3)
C7 C 0.3016(3) 0.6847(3) 0.2673(3)
H5 H 0.315018 0.660310 0.316259
C8 C 0.3048(3) 0.7691(3) 0.2528(3)
H6 H 0.322564 0.800557 0.290528
C9 C 0.2738(3) 0.5458(3) 0.2282(3)
C10 C 0.3320(3) 0.4939(3) 0.1741(3)
C11 C 0.3278(3) 0.4100(3) 0.1946(3)
C12 C 0.2626(4) 0.3769(3) 0.2660(3)
C13 C 0.2013(4) 0.4281(3) 0.3199(3)
C14 C 0.2091(3) 0.5112(3) 0.3006(3)
H7 H 0.170200 0.545329 0.336823
C15 C 0.4749(4) 0.5642(3) 0.0954(3)
H8 H 0.510008 0.578022 0.038471
H9 H 0.514666 0.529787 0.123637
H10 H 0.458845 0.613020 0.123370
C16 C 0.1821(5) 0.2523(4) 0.2694(4)
H11 H 0.188421 0.194880 0.282722
H12 H 0.180800 0.262582 0.211591
H13 H 0.122777 0.271678 0.304117
C17 C 0.1271(4) 0.3949(3) 0.3956(3)
C18 C 0.1480(4) 0.3305(3) 0.4495(3)
H14 H 0.209872 0.307327 0.437638
C19 C 0.0793(4) 0.3000(3) 0.5199(3)
H15 H 0.095518 0.257785 0.555351
C22 C 0.0339(4) 0.4282(3) 0.4142(3)
H17 H 0.018502 0.471631 0.379786
C24 C 0.0043(4) 0.3153(3) 0.7125(3)
C25 C 0.3981(3) 0.3555(3) 0.1412(3)
C26 C 0.3692(3) 0.3082(3) 0.0864(3)
C27 C 0.4340(3) 0.2550(3) 0.0407(3)
C28 C 0.5309(3) 0.2540(3) 0.0483(3)
H20 H 0.575071 0.219331 0.016903
C29 C 0.5634(3) 0.3018(3) 0.0999(3)
C30 C 0.4945(3) 0.3515(3) 0.1492(3)
C31 C 0.5158(5) 0.3536(4) 0.2841(3)
H21 H 0.539088 0.386778 0.319911
H22 H 0.554794 0.305195 0.276541
H23 H 0.449158 0.338898 0.309319
C32 C 0.2669(4) 0.3711(3) 0.0089(3)
H24 H 0.200595 0.373231 0.004367
H26 H 0.287068 0.424360 0.016875
C34 C 0.3208(3) 0.1561(3) 0.0058(3)
H27 H 0.275642 0.165108 0.055393
C41 C 0.6692(3) 0.3032(3) 0.0984(3)
C42 C 0.7209(4) 0.2313(3) 0.1013(3)
H33 H 0.688163 0.181903 0.109467
C43 C 0.8210(3) 0.2318(3) 0.0921(3)
H34 H 0.854587 0.182875 0.095118
C44 C 0.8703(3) 0.3040(3) 0.0786(3)
C45 C 0.8186(4) 0.3774(3) 0.0767(3)
H35 H 0.851564 0.426777 0.068263
C46 C 0.7193(4) 0.3766(3) 0.0873(3)
H36 H 0.685207 0.425549 0.087132
H37 H 0.991507 0.211978 0.130633
Mn10_5 Mn 1.000000 0.000000 0.000000
O4 O 0.1974(2) 0.1211(2) 0.8082(2)
O6 O 0.3545(2) 0.0310(2) 0.8275(2)
H25 H 0.308037 0.352849 0.958604
C33 C 0.4064(3) 0.1998(3) 0.9844(3)
C35 C 0.2994(3) 0.0990(3) 0.9559(3)
H28 H 0.241430 0.069877 0.972117
C36 C 0.3672(3) 0.0864(3) 0.8807(3)
C37 C 0.4522(3) 0.1301(3) 0.8566(3)
H29 H 0.496360 0.122096 0.806164
C38 C 0.4724(3) 0.1864(3) 0.9077(3)
H30 H 0.530217 0.215741 0.891025
C40 C 0.1795(4) 0.0504(3) 0.8421(3)
O29 O 0.0867(2) 0.6921(2) 0.3954(2)
C68 C 0.0135(4) 0.6672(3) 0.4627(3)
C69 C 0.0366(4) 0.6029(3) 0.5161(3)
H54 H 0.099111 0.580924 0.504952
C71 C 0.0564(4) 0.7359(3) 0.3271(3)
H56 H 0.018782 0.783159 0.347142
H57 H 0.113624 0.755244 0.284774
O34 O 0.0775(3) 0.1017(2) 0.6923(2)
Mn10_6 Mn 1.000000 0.000000 1.000000
H94 H 0.0952182 0.0434723 0.700813
Mn10_7 Mn 1.000000 1.000000 0.000000
C39 C 0.2622(3) 0.9916(3) 0.8468(3)
H31 H 0.250159 0.964129 0.902789
H32 H 0.263740 0.950644 0.807957
Mn10_8 Mn 1.000000 1.000000 1.000000
C87 C 0.7378(3) 0.0084(3) 0.1532(3)
H69 H 0.749841 0.035871 0.097211
H70 H 0.736260 0.049356 0.192043
O35 O 0.8731(2) 0.0549(2) 0.9634(2)
Mn1 Mn 0.95333(5) 0.84116(4) 0.18161(4)
O12 O 0.9133(2) 0.3079(2) 0.6046(2)
C20 C 0.9865(4) 0.3328(3) 0.5373(3)
C21 C 0.9634(4) 0.3971(3) 0.4839(3)
H16 H 0.900889 0.419076 0.495048
C23 C 0.9436(4) 0.2641(3) 0.6729(3)
H18 H 0.981218 0.216841 0.652858
H19 H 0.886376 0.244756 0.715226
O17 O 0.9225(3) 0.8983(2) 0.3077(2)
O21 O 0.8026(2) 0.8789(2) 0.1918(2)
O22 O 0.9063(2) 0.9760(2) 0.1283(2)
O23 O 0.6455(2) 0.9690(2) 0.1725(2)
H63 H 0.691963 0.647151 0.041396
C81 C 0.5936(3) 0.8002(3) 0.0156(3)
C83 C 0.7006(3) 0.9010(3) 0.0441(3)
H66 H 0.758570 0.930123 0.027883
C84 C 0.6328(3) 0.9136(3) 0.1193(3)
C85 C 0.5478(3) 0.8699(3) 0.1434(3)
H67 H 0.503640 0.877904 0.193836
C86 C 0.5276(3) 0.8136(3) 0.0923(3)
H68 H 0.469783 0.784259 0.108975
C88 C 0.8205(4) 0.9496(3) 0.1579(3)
O40 O 0.9735(2) 0.7907(2) 0.0613(2)
O42 O 0.9523(3) 0.7231(2) 0.2362(2)
H93 H 0.93583 0.957666 0.29733
O19 O 0.9063(2) 0.1148(2) 0.8317(2)
O20 O 0.7174(2) 0.1106(2) 0.8259(2)
O26 O 0.0305(2) 0.6871(2) 0.9344(2)
O28 O 0.9926(3) 0.6096(2) 0.3052(2)
O30 O 0.7369(3) 0.7062(2) 0.7160(2)
O31 O 0.6128(2) 0.4779(2) 0.9036(2)
O32 O 0.7255(2) 0.6840(2) 0.9214(2)
O33 O 0.4780(2) 0.6024(2) 0.7944(2)
C49 C 0.8509(4) 0.0818(3) 0.8976(3)
C50 C 0.7446(4) 0.0710(3) 0.8972(3)
H39 H 0.703980 0.091696 0.947269
H40 H 0.731328 0.013222 0.899922
C51 C 0.7187(3) 0.1942(3) 0.8181(3)
C52 C 0.7421(3) 0.2420(3) 0.8760(3)
H41 H 0.757270 0.217291 0.924160
C53 C 0.7425(3) 0.3261(3) 0.8618(3)
H42 H 0.757261 0.357555 0.900939
C54 C 0.7212(3) 0.3641(3) 0.7899(3)
C55 C 0.6984(3) 0.3153(3) 0.7327(3)
H43 H 0.684982 0.339690 0.683741
C56 C 0.6952(3) 0.2309(3) 0.7472(3)
H44 H 0.677436 0.199443 0.709472
C57 C 0.7262(3) 0.4542(3) 0.7718(3)
C58 C 0.6680(3) 0.5061(3) 0.8259(3)
C59 C 0.6722(3) 0.5900(3) 0.8054(3)
C60 C 0.7374(4) 0.6231(3) 0.7340(3)
C61 C 0.7987(4) 0.5719(3) 0.6801(3)
C62 C 0.7909(3) 0.4888(3) 0.6994(3)
H45 H 0.829800 0.454671 0.663177
C63 C 0.5251(4) 0.4358(3) 0.9046(3)
H46 H 0.489992 0.421978 0.961529
H47 H 0.485334 0.470213 0.876363
H48 H 0.541155 0.386980 0.876630
C64 C 0.8179(5) 0.7477(4) 0.7306(4)
H49 H 0.811579 0.805120 0.717278
H50 H 0.819200 0.737418 0.788409
H51 H 0.877223 0.728322 0.695883
C65 C 0.8729(4) 0.6051(3) 0.6044(3)
C66 C 0.8520(4) 0.6695(3) 0.5505(3)
H52 H 0.790128 0.692673 0.562362
C67 C 0.9207(4) 0.7000(3) 0.4801(3)
H53 H 0.904482 0.742215 0.444649
C70 C 0.9661(4) 0.5718(3) 0.5858(3)
H55 H 0.981498 0.528369 0.620214
C72 C 0.9957(4) 0.6847(3) 0.2875(3)
C73 C 0.6019(3) 0.6445(3) 0.8588(3)
C74 C 0.6308(3) 0.6918(3) 0.9136(3)
C75 C 0.5660(3) 0.7450(3) 0.9593(3)
C76 C 0.4691(3) 0.7460(3) 0.9517(3)
H58 H 0.424929 0.780669 0.983097
C77 C 0.4366(3) 0.6982(3) 0.9001(3)
C78 C 0.5055(3) 0.6485(3) 0.8508(3)
C79 C 0.4842(5) 0.6464(4) 0.7159(3)
H59 H 0.460912 0.613222 0.680089
H60 H 0.445206 0.694805 0.723459
H61 H 0.550842 0.661102 0.690681
C80 C 0.7331(4) 0.6289(3) 0.9911(3)
H62 H 0.799405 0.626769 0.995633
H64 H 0.712932 0.575640 0.983125
C82 C 0.6792(3) 0.8439(3) 0.9942(3)
H65 H 0.724358 0.834892 0.944607
C89 C 0.3308(3) 0.6968(3) 0.9016(3)
C90 C 0.2791(4) 0.7687(3) 0.8987(3)
H71 H 0.311837 0.818097 0.890533
C91 C 0.1790(3) 0.7682(3) 0.9079(3)
H72 H 0.145413 0.817125 0.904882
C92 C 0.1297(3) 0.6960(3) 0.9214(3)
C93 C 0.1814(4) 0.6226(3) 0.9233(3)
H73 H 0.148436 0.573223 0.931737
C94 C 0.2807(4) 0.6234(3) 0.9127(3)
H74 H 0.314793 0.574451 0.912868
H75 H 0.008493 0.788022 0.869367
O38 O 0.9505(3) 0.8905(2) 0.9662(2)
C95 C 0.9770(4) 0.7596(3) 0.9228(3)
H76 H 0.912312 0.744457 0.919609
C96 C 0.9664(3) 0.8186(3) 0.9902(3)
H93_2 H 0.0641699 0.0423338 0.70267
H94_2 H 0.904782 0.956528 0.299187
N1 N 0.0376(4) 0.4731(3) 0.8158(3)
H77 H 0.034413 0.445003 0.773088
H78 H 0.099632 0.486593 0.809606
C97 C 0.0055(5) 0.4213(4) 0.8935(4)
H79 H 0.045814 0.373562 0.891732
H81 H 0.010569 0.450646 0.939839
H82 H 0.001431 0.577782 0.758425
H80 H 0.938998 0.405623 0.900185
C98 C 0.9795(5) 0.5482(4) 0.8124(4)
H83 H 0.987309 0.581313 0.855109
H84 H 0.912075 0.534331 0.821282
H80_2 H 0.061002 0.594377 0.099815
C98_2 C 0.0205(5) 0.4518(4) 0.1876(4)
H83_2 H 0.012691 0.418687 0.144891
H84_2 H 0.087925 0.465669 0.178718
N1_2 N 0.9624(4) 0.5269(3) 0.1842(3)
H77_2 H 0.965587 0.554997 0.226912
H78_2 H 0.900368 0.513407 0.190394
C97_2 C 0.9945(5) 0.5787(4) 0.1065(4)
H79_2 H 0.954186 0.626438 0.108268
H81_2 H 0.989431 0.549354 0.060161
H82_2 H 0.998569 0.422218 0.241575
N2 N 0.7057(9) 0.4792(8) 0.4401(7)
H85 H 0.668758 0.472341 0.404701
H86 H 0.739778 0.433810 0.445475
C99 C 0.7684(11) 0.5461(9) 0.4106(9)
H87 H 0.801017 0.541747 0.352986
H88 H 0.815832 0.546497 0.443366
H89 H 0.731260 0.595608 0.415477
C100 C 0.6593(11) 0.4937(9) 0.5025(9)
H90 H 0.614896 0.449711 0.525514
H91 H 0.700243 0.501047 0.539800
H92 H 0.623264 0.542810 0.495605
N2_2 N 0.2943(9) 0.5208(8) 0.5599(7)
H85_2 H 0.331242 0.527659 0.595299
H86_2 H 0.260222 0.566190 0.554525
C99_2 C 0.2316(11) 0.4539(9) 0.5894(9)
H87_2 H 0.198983 0.458253 0.647014
H88_2 H 0.184168 0.453503 0.556634
H89_2 H 0.268740 0.404392 0.584523
C100_2 C 0.3407(11) 0.5063(9) 0.4975(9)
H90_2 H 0.385104 0.550289 0.474486
H91_2 H 0.299757 0.498953 0.460200
H92_2 H 0.376736 0.457190 0.504395
loop_
_geom_bond_atom_site_label_1
_geom_bond_atom_site_label_2
_geom_bond_site_symmetry_1
_geom_bond_site_symmetry_2
O7 C48 1_555 1_555
H38 C47 1_555 1_555
C48 C47 1_555 1_555
Mn10 O7 1_555 1_555
Mn7 O8 1_555 1_555
O36 Mn10_2 1_555 1_555
Mn10_3 O1 1_555 1_555
O1 C1 1_555 1_555
O2 C1 1_555 1_555
O3 C2 1_555 1_555
O9 C44 1_555 1_555
O10 C24 1_555 1_555
O11 C24 1_555 1_555
O13 C12 1_555 1_555
O14 C10 1_555 1_555
O15 C26 1_555 1_555
O16 C30 1_555 1_555
C1 C2 1_555 1_555
C2 H1 1_555 1_555
H2 C2 1_555 1_555
C3 O3 1_555 1_555
C4 C3 1_555 1_555
H3 C4 1_555 1_555
C5 C4 1_555 1_555
H4 C5 1_555 1_555
C6 C5 1_555 1_555
C7 C6 1_555 1_555
H5 C7 1_555 1_555
C8 C3 1_555 1_555
H6 C8 1_555 1_555
C9 C6 1_555 1_555
C10 C9 1_555 1_555
C11 C10 1_555 1_555
C12 C11 1_555 1_555
C13 C12 1_555 1_555
C14 C9 1_555 1_555
H7 C14 1_555 1_555
C15 O14 1_555 1_555
H8 C15 1_555 1_555
H9 C15 1_555 1_555
H10 C15 1_555 1_555
C16 O13 1_555 1_555
H11 C16 1_555 1_555
H12 C16 1_555 1_555
H13 C16 1_555 1_555
C17 C13 1_555 1_555
C18 C17 1_555 1_555
H14 C18 1_555 1_555
C19 C18 1_555 1_555
H15 C19 1_555 1_555
C22 C17 1_555 1_555
H17 C22 1_555 1_555
C25 C11 1_555 1_555
C26 C25 1_555 1_555
C27 C26 1_555 1_555
C28 C27 1_555 1_555
H20 C28 1_555 1_555
C29 C28 1_555 1_555
C30 C25 1_555 1_555
C31 O16 1_555 1_555
H21 C31 1_555 1_555
H22 C31 1_555 1_555
H23 C31 1_555 1_555
C32 O15 1_555 1_555
H24 C32 1_555 1_555
H26 C32 1_555 1_555
H27 C34 1_555 1_555
C41 C29 1_555 1_555
C42 C41 1_555 1_555
H33 C42 1_555 1_555
C43 C42 1_555 1_555
H34 C43 1_555 1_555
C44 C43 1_555 1_555
C45 C44 1_555 1_555
H35 C45 1_555 1_555
C46 C41 1_555 1_555
H36 C46 1_555 1_555
Mn7 O10 1_555 1_555
C7 C8 1_555 1_555
C13 C14 1_555 1_555
C29 C30 1_555 1_555
C45 C46 1_555 1_555
O4 C40 1_555 1_555
O36 C40 1_555 1_555
O6 C36 1_555 1_555
H28 C35 1_555 1_555
C36 C35 1_555 1_555
C37 C36 1_555 1_555
H29 C37 1_555 1_555
C38 C33 1_555 1_555
H30 C38 1_555 1_555
Mn7 O4 1_555 1_555
O29 C68 1_555 1_555
C69 C68 1_555 1_555
H54 C69 1_555 1_555
C71 O29 1_555 1_555
H56 C71 1_555 1_555
H57 C71 1_555 1_555
O34 Mn7 1_555 1_555
O36 Mn7 1_555 1_555
C37 C38 1_555 1_555
O34 H94 1_555 1_555
H31 C39 1_555 1_555
H32 C39 1_555 1_555
H69 C87 1_555 1_555
H70 C87 1_555 1_555
O35 Mn10_6 1_555 1_555
O12 C20 1_555 1_555
C21 C20 1_555 1_555
H16 C21 1_555 1_555
C23 O12 1_555 1_555
H18 C23 1_555 1_555
H19 C23 1_555 1_555
O17 Mn1 1_555 1_555
O21 Mn1 1_555 1_555
O22 Mn1 1_555 1_555
O23 C84 1_555 1_555
H66 C83 1_555 1_555
C84 C83 1_555 1_555
C85 C84 1_555 1_555
H67 C85 1_555 1_555
C86 C81 1_555 1_555
H68 C86 1_555 1_555
C88 O21 1_555 1_555
O40 Mn1 1_555 1_555
O42 Mn1 1_555 1_555
Mn10_7 O22 1_555 1_555
O22 C88 1_555 1_555
C85 C86 1_555 1_555
O17 H93 1_555 1_555
O35 C49 1_555 1_555
O20 C50 1_555 1_555
O26 C92 1_555 1_555
O42 C72 1_555 1_555
O28 C72 1_555 1_555
O30 C60 1_555 1_555
O31 C58 1_555 1_555
O32 C74 1_555 1_555
O33 C78 1_555 1_555
C49 O19 1_555 1_555
C50 C49 1_555 1_555
H39 C50 1_555 1_555
H40 C50 1_555 1_555
C51 O20 1_555 1_555
C52 C51 1_555 1_555
H41 C52 1_555 1_555
C53 C52 1_555 1_555
H42 C53 1_555 1_555
C54 C53 1_555 1_555
C55 C54 1_555 1_555
H43 C55 1_555 1_555
C56 C51 1_555 1_555
H44 C56 1_555 1_555
C57 C54 1_555 1_555
C58 C57 1_555 1_555
C59 C58 1_555 1_555
C60 C59 1_555 1_555
C61 C60 1_555 1_555
C62 C57 1_555 1_555
H45 C62 1_555 1_555
C63 O31 1_555 1_555
H46 C63 1_555 1_555
H47 C63 1_555 1_555
H48 C63 1_555 1_555
C64 O30 1_555 1_555
H49 C64 1_555 1_555
H50 C64 1_555 1_555
H51 C64 1_555 1_555
C65 C61 1_555 1_555
C66 C65 1_555 1_555
H52 C66 1_555 1_555
C67 C66 1_555 1_555
H53 C67 1_555 1_555
C70 C65 1_555 1_555
H55 C70 1_555 1_555
C73 C59 1_555 1_555
C74 C73 1_555 1_555
C75 C74 1_555 1_555
C76 C75 1_555 1_555
H58 C76 1_555 1_555
C77 C76 1_555 1_555
C78 C73 1_555 1_555
C79 O33 1_555 1_555
H59 C79 1_555 1_555
H60 C79 1_555 1_555
H61 C79 1_555 1_555
C80 O32 1_555 1_555
H62 C80 1_555 1_555
H64 C80 1_555 1_555
H65 C82 1_555 1_555
C89 C77 1_555 1_555
C90 C89 1_555 1_555
H71 C90 1_555 1_555
C91 C90 1_555 1_555
H72 C91 1_555 1_555
C92 C91 1_555 1_555
C93 C92 1_555 1_555
H73 C93 1_555 1_555
C94 C89 1_555 1_555
H74 C94 1_555 1_555
O38 Mn10_8 1_555 1_555
C55 C56 1_555 1_555
C61 C62 1_555 1_555
C77 C78 1_555 1_555
C93 C94 1_555 1_555
O38 C96 1_555 1_555
H76 C95 1_555 1_555
C96 C95 1_555 1_555
O34 H93_2 1_555 1_555
O17 H94_2 1_555 1_555
N1 H77 1_555 1_555
H78 N1 1_555 1_555
C97 N1 1_555 1_555
H79 C97 1_555 1_555
H81 C97 1_555 1_555
H83 C98 1_555 1_555
H84 C98 1_555 1_555
H83_2 C98_2 1_555 1_555
H84_2 C98_2 1_555 1_555
N1_2 H77_2 1_555 1_555
H78_2 N1_2 1_555 1_555
C97_2 N1_2 1_555 1_555
H79_2 C97_2 1_555 1_555
H81_2 C97_2 1_555 1_555
N2 H85 1_555 1_555
H86 N2 1_555 1_555
C99 N2 1_555 1_555
H87 C99 1_555 1_555
H88 C99 1_555 1_555
H89 C99 1_555 1_555
C100 N2 1_555 1_555
H90 C100 1_555 1_555
H91 C100 1_555 1_555
H92 C100 1_555 1_555
N2_2 H85_2 1_555 1_555
H86_2 N2_2 1_555 1_555
C99_2 N2_2 1_555 1_555
H87_2 C99_2 1_555 1_555
H88_2 C99_2 1_555 1_555
H89_2 C99_2 1_555 1_555
C100_2 N2_2 1_555 1_555
H90_2 C100_2 1_555 1_555
H91_2 C100_2 1_555 1_555
H92_2 C100_2 1_555 1_555

#END
