
###############################################################################
#
# This file contains modified crystal structure data generated from the
# MOF subset of the Cambridge Structural Database (CSD) v543 
# hosted by the Cambridge Crystallographic Data Centre (CCDC).
#
# This work is licensed under the Creative Commons
# Attribution-NonCommercial-ShareAlike 4.0 International License.
# To view a copy of this license, visit
# http://creativecommons.org/licenses/by-nc-sa/4.0/
# or send a letter to
# Creative Commons, PO Box 1866, Mountain View, CA 94042, USA.
#
# CIF created using the CSD Python API on 29 September 2022
# The structure has been converted into the P1 space group
# The structure has a 3D framework
# The original CSD entry ZEZFIV is in the tetragonal crystal system
# The original CSD entry ZEZFIV is in a Sohncke space group
# The framework has been calculated to contain at least 10.0% void space
# The void calculation uses a probe of radius 1.32A, grid spacing 0.4
# The framework is charged, counterions have been retained in the structure
# H atom positions have been added when not included in the experimental data
#
###############################################################################

data_ZEZFIV
_chemical_formula_moiety         '(C216 H128 N48 Na16 O128 Zn8 16-)n'
_symmetry_cell_setting           triclinic
_symmetry_space_group_name_H-M   'P 1'
_symmetry_Int_Tables_number      1
_space_group_name_Hall           'P 1'
loop_
_symmetry_equiv_pos_site_id
_symmetry_equiv_pos_as_xyz
1 x,y,z
_cell_length_a                   22.839(5)
_cell_length_b                   22.839(5)
_cell_length_c                   33.078(5)
_cell_angle_alpha                90
_cell_angle_beta                 90
_cell_angle_gamma                90
_cell_volume                     17254.1
loop_
_atom_site_label
_atom_site_type_symbol
_atom_site_fract_x
_atom_site_fract_y
_atom_site_fract_z
Zn3 Zn 0.04100(2) 0.423609(19) 0.392645(12)
Na5 Na 0.03961(9) 0.39118(9) 0.29280(5)
Zn1 Zn 0.423609(19) 0.04100(2) 0.607355(12)
C1 C 0.8064(3) 0.2693(3) 0.34576(13)
C2 C 0.7740(3) 0.2720(3) 0.38337(13)
H1 H 0.7387 0.2524 0.3866
C3 C 0.7983(3) 0.3055(3) 0.41451(16)
C4 C 0.8515(2) 0.3338(3) 0.40965(14)
H2 H 0.8667 0.3562 0.4307
C5 C 0.8827(2) 0.3291(2) 0.37340(12)
C6 C 0.8589(2) 0.2987(3) 0.34205(14)
H3 H 0.8786 0.2978 0.3175
C7 C 0.51093(18) 0.08855(18) 0.50124(11)
C8 C 0.5529(2) 0.1309(2) 0.49456(12)
H4 H 0.5641 0.1558 0.5154
C9 C 0.5782(2) 0.1364(2) 0.45720(13)
C10 C 0.5609(2) 0.0965(2) 0.42599(12)
H5 H 0.5789 0.0984 0.4008
C11 C 0.51774(18) 0.05533(18) 0.43282(11)
C12 C 0.49352(16) 0.05167(17) 0.47017(11)
H6 H 0.4646 0.0239 0.4750
C13 C 0.50164(18) 0.01575(19) 0.39858(11)
C14 C 0.48526(18) 0.0851(2) 0.54400(12)
C15 C 0.93992(19) 0.3619(2) 0.36769(11)
C16 C 0.7790(4) 0.2365(4) 0.31096(16)
C17 C 0.7259(3) 0.2811(3) 0.46992(16)
C18 C 0.6556(3) 0.2133(2) 0.46964(14)
C19 C 0.6772(3) 0.2613(3) 0.52704(16)
C20 C 0.8303(2) 0.3905(2) 0.61522(15)
C21 C 0.7683(2) 0.3654(3) 0.61989(14)
C22 C 0.7328(3) 0.3825(3) 0.65429(17)
H7 H 0.7491 0.4053 0.6747
C23 C 0.6783(3) 0.3661(4) 0.6567(2)
C24 C 0.7434(2) 0.3315(3) 0.59094(15)
H8 H 0.7657 0.3228 0.5682
C25 C 0.6551(3) 0.3318(3) 0.6236(2)
H9 H 0.6150 0.3249 0.6233
C26 C 0.6873(3) 0.3088(3) 0.59284(15)
C27 C 0.6346(4) 0.3845(4) 0.6884(2)
N1 N 0.7729(2) 0.3102(3) 0.45320(12)
H10 H 0.7894 0.3352 0.4689
N2 N 0.7180(2) 0.2934(2) 0.50997(13)
N3 N 0.6984(2) 0.2404(2) 0.44836(11)
N4 N 0.6211(2) 0.1795(2) 0.44574(11)
H11 H 0.6255 0.1845 0.4202
N5 N 0.64059(18) 0.2236(2) 0.50750(12)
N6 N 0.6629(2) 0.2713(2) 0.56602(11)
H12 H 0.6341 0.2508 0.5751
O1 O 0.52638(14) 0.02240(14) 0.36580(8)
O5 O 0.49266(16) 0.12199(15) 0.56900(9)
O7 O 0.45387(12) 0.03953(12) 0.55013(7)
O9 O 0.96894(15) 0.35395(16) 0.33573(9)
O10 O 0.95904(12) 0.38938(12) 0.39758(8)
O11 O 0.85295(14) 0.41121(14) 0.64639(10)
O12 O 0.85262(15) 0.39018(17) 0.58153(10)
O13 O 0.7370(3) 0.2086(3) 0.31607(12)
O14 O 0.8082(2) 0.2390(3) 0.28002(10)
O15 O 0.5875(3) 0.3614(4) 0.69406(18)
O16 O 0.6619(3) 0.4141(3) 0.7178(2)
Zn2 Zn 0.923609(19) 0.45900(2) 0.642645(12)
Na3 Na 0.93363(8) 0.46916(9) 0.44284(5)
Na6 Na 0.89118(9) 0.46039(9) 0.54280(5)
O18 O 0.47558(10) 0.03481(11) 0.65521(7)
O21 O 0.35295(14) 0.08879(14) 0.60361(10)
Na1 Na 0.46916(9) 0.93363(8) 0.55716(5)
Na2 Na 0.46039(9) 0.89118(9) 0.45720(5)
O2 O 0.53830(18) 0.91672(17) 0.50575(10)
O3 O 0.46519(11) 0.97558(10) 0.40521(7)
O4 O 0.4947(4) 0.8414(3) 0.5882(2)
H13 H 0.4883 0.8146 0.5722
O6 O 0.39180(16) 0.93392(17) 0.50197(9)
O8 O 0.4403(3) 0.7985(5) 0.5060(3)
H14 H 0.4062 0.7991 0.5136
Zn4 Zn 0.45900(2) 0.923609(19) 0.357355(12)
Na4 Na 0.56637(8) 0.96916(9) 0.30716(5)
O17 O 0.52240(14) 0.97362(14) 0.61580(8)
O19 O 0.53106(15) 0.85395(16) 0.41427(9)
O20 O 0.38938(12) 0.95904(12) 0.60242(8)
O22 O 0.39018(17) 0.85262(15) 0.41847(10)
H15 H 0.470762 0.835614 0.61294
H16 H 0.466711 0.800554 0.529804
Na1_2 Na 0.53084(9) 0.06637(8) 0.05716(5)
O2_2 O 0.46170(18) 0.08328(17) 0.00575(10)
O4_2 O 0.5053(4) 0.1586(3) 0.0882(2)
H13_2 H 0.5117 0.1854 0.0722
O6_2 O 0.60820(16) 0.06608(17) 0.00197(9)
O8_2 O 0.5597(3) 0.2015(5) 0.0060(3)
H14_2 H 0.5938 0.2009 0.0136
O17_2 O 0.47760(14) 0.02638(14) 0.11580(8)
O20_2 O 0.61062(12) 0.04096(12) 0.10242(8)
H15_2 H 0.529238 0.164386 0.11294
H16_2 H 0.533289 0.199446 0.0298045
Na2_2 Na 0.53961(9) 0.10882(9) 0.95720(5)
O3_2 O 0.53481(11) 0.02442(10) 0.90521(7)
Zn4_2 Zn 0.54100(2) 0.076391(19) 0.857355(12)
Na4_2 Na 0.43363(8) 0.03084(9) 0.80716(5)
O19_2 O 0.46894(15) 0.14605(16) 0.91427(9)
O22_2 O 0.60982(17) 0.14738(15) 0.91847(10)
Zn1_2 Zn 0.576391(19) 0.95900(2) 0.107355(12)
C7_2 C 0.48907(18) 0.91145(18) 0.00124(11)
H4_2 H 0.4359 0.8442 0.0154
C14_2 C 0.51474(18) 0.9149(2) 0.04400(12)
C19_2 C 0.3228(3) 0.7387(3) 0.02704(16)
C20_2 C 0.1697(2) 0.6095(2) 0.11522(15)
C21_2 C 0.2317(2) 0.6346(3) 0.11989(14)
C22_2 C 0.2672(3) 0.6175(3) 0.15429(17)
H7_2 H 0.2509 0.5947 0.1747
C23_2 C 0.3217(3) 0.6339(4) 0.1567(2)
C24_2 C 0.2566(2) 0.6685(3) 0.09094(15)
H8_2 H 0.2343 0.6772 0.0682
C25_2 C 0.3449(3) 0.6682(3) 0.1236(2)
H9_2 H 0.3850 0.6751 0.1233
C26_2 C 0.3127(3) 0.6912(3) 0.09284(15)
C27_2 C 0.3654(4) 0.6155(4) 0.1884(2)
N2_2 N 0.2820(2) 0.7066(2) 0.00997(13)
N5_2 N 0.35941(18) 0.7764(2) 0.00750(12)
N6_2 N 0.3371(2) 0.7287(2) 0.06602(11)
H12_2 H 0.3659 0.7492 0.0751
O5_2 O 0.50734(16) 0.87801(15) 0.06900(9)
O7_2 O 0.54613(12) 0.96047(12) 0.05013(7)
O11_2 O 0.14705(14) 0.58879(14) 0.14639(10)
O12_2 O 0.14738(15) 0.60982(17) 0.08153(10)
O15_2 O 0.4125(3) 0.6386(4) 0.19406(18)
O16_2 O 0.3381(3) 0.5859(3) 0.2178(2)
Zn2_2 Zn 0.076391(19) 0.54100(2) 0.142645(12)
Na6_2 Na 0.10882(9) 0.53961(9) 0.04280(5)
O18_2 O 0.52442(10) 0.96519(11) 0.15521(7)
O21_2 O 0.64705(14) 0.91121(14) 0.10361(10)
C1_2 C 0.1936(3) 0.7307(3) 0.84576(13)
C2_2 C 0.2260(3) 0.7280(3) 0.88337(13)
H1_2 H 0.2613 0.7476 0.8866
C3_2 C 0.2017(3) 0.6945(3) 0.91451(16)
C4_2 C 0.1485(2) 0.6662(3) 0.90965(14)
H2_2 H 0.1333 0.6438 0.9307
C5_2 C 0.1173(2) 0.6709(2) 0.87340(12)
C6_2 C 0.1411(2) 0.7013(3) 0.84205(14)
H3_2 H 0.1214 0.7022 0.8175
C8_2 C 0.4471(2) 0.8691(2) 0.99456(12)
C9_2 C 0.4218(2) 0.8636(2) 0.95720(13)
C10_2 C 0.4391(2) 0.9035(2) 0.92599(12)
H5_2 H 0.4211 0.9016 0.9008
C11_2 C 0.48226(18) 0.94467(18) 0.93282(11)
C12_2 C 0.50648(16) 0.94833(17) 0.97017(11)
H6_2 H 0.5354 0.9761 0.9750
C13_2 C 0.49836(18) 0.98425(19) 0.89858(11)
C15_2 C 0.06008(19) 0.6381(2) 0.86769(11)
C16_2 C 0.2210(4) 0.7635(4) 0.81096(16)
C17_2 C 0.2741(3) 0.7189(3) 0.96992(16)
C18_2 C 0.3444(3) 0.7867(2) 0.96964(14)
N1_2 N 0.2271(2) 0.6898(3) 0.95320(12)
H10_2 H 0.2106 0.6648 0.9689
N3_2 N 0.3016(2) 0.7596(2) 0.94836(11)
N4_2 N 0.3789(2) 0.8205(2) 0.94574(11)
H11_2 H 0.3745 0.8155 0.9202
O1_2 O 0.47362(14) 0.97760(14) 0.86580(8)
O9_2 O 0.03106(15) 0.64605(16) 0.83573(9)
O10_2 O 0.04096(12) 0.61062(12) 0.89758(8)
O13_2 O 0.2630(3) 0.7914(3) 0.81607(12)
O14_2 O 0.1918(2) 0.7610(3) 0.78002(10)
Na3_2 Na 0.06637(8) 0.53084(9) 0.94284(5)
Zn3_2 Zn 0.95900(2) 0.576391(19) 0.892645(12)
Na5_2 Na 0.96039(9) 0.60882(9) 0.79280(5)
C1_3 C 0.3064(3) 0.2307(3) 0.90424(13)
C2_3 C 0.2740(3) 0.2280(3) 0.86663(13)
H1_3 H 0.2387 0.2476 0.8634
C3_3 C 0.2983(3) 0.1945(3) 0.83549(16)
C4_3 C 0.3515(2) 0.1662(3) 0.84035(14)
H2_3 H 0.3667 0.1438 0.8193
C5_3 C 0.3827(2) 0.1709(2) 0.87660(12)
C6_3 C 0.3589(2) 0.2013(3) 0.90795(14)
H3_3 H 0.3786 0.2022 0.9325
C7_3 C 0.01093(18) 0.41145(18) 0.74876(11)
C8_3 C 0.0529(2) 0.3691(2) 0.75544(12)
H4_3 H 0.0641 0.3442 0.7346
C9_3 C 0.0782(2) 0.3636(2) 0.79280(13)
C10_3 C 0.0609(2) 0.4035(2) 0.82401(12)
H5_3 H 0.0789 0.4016 0.8492
C11_3 C 0.01774(18) 0.44467(18) 0.81718(11)
C13_3 C 0.00164(18) 0.48425(19) 0.85142(11)
C15_3 C 0.43992(19) 0.1381(2) 0.88231(11)
C16_3 C 0.2790(4) 0.2635(4) 0.93904(16)
C17_3 C 0.2259(3) 0.2189(3) 0.78008(16)
C18_3 C 0.1556(3) 0.2867(2) 0.78036(14)
C19_3 C 0.1772(3) 0.2387(3) 0.72296(16)
C20_3 C 0.3303(2) 0.1095(2) 0.63478(15)
C21_3 C 0.2683(2) 0.1346(3) 0.63011(14)
C22_3 C 0.2328(3) 0.1175(3) 0.59571(17)
H7_3 H 0.2491 0.0947 0.5753
C23_3 C 0.1783(3) 0.1339(4) 0.5933(2)
C24_3 C 0.2434(2) 0.1685(3) 0.65906(15)
H8_3 H 0.2657 0.1772 0.6818
C25_3 C 0.1551(3) 0.1682(3) 0.6264(2)
H9_3 H 0.1150 0.1751 0.6267
C26_3 C 0.1873(3) 0.1912(3) 0.65716(15)
C27_3 C 0.1346(4) 0.1155(4) 0.5616(2)
N1_3 N 0.2729(2) 0.1898(3) 0.79680(12)
H10_3 H 0.2894 0.1648 0.7811
N2_3 N 0.2180(2) 0.2066(2) 0.74003(13)
N3_3 N 0.1984(2) 0.2596(2) 0.80164(11)
N4_3 N 0.1211(2) 0.3205(2) 0.80426(11)
H11_3 H 0.1255 0.3155 0.8298
N5_3 N 0.14059(18) 0.2764(2) 0.74250(12)
N6_3 N 0.1629(2) 0.2287(2) 0.68398(11)
H12_3 H 0.1341 0.2492 0.6749
O1_3 O 0.02638(14) 0.47760(14) 0.88420(8)
O2_3 O 0.03830(18) 0.58328(17) 0.74425(10)
O10_3 O 0.45904(12) 0.11062(12) 0.85242(8)
O12_3 O 0.35262(15) 0.10982(17) 0.66847(10)
O13_3 O 0.2370(3) 0.2914(3) 0.93393(12)
O14_3 O 0.3082(2) 0.2610(3) 0.96998(10)
O15_3 O 0.0875(3) 0.1386(4) 0.55594(18)
O16_3 O 0.1619(3) 0.0859(3) 0.5322(2)
Na6_3 Na 0.39118(9) 0.03961(9) 0.70720(5)
O17_3 O 0.02240(14) 0.52638(14) 0.63420(8)
Na1_3 Na 0.96916(9) 0.56637(8) 0.69284(5)
C12_3 C 0.99352(16) 0.44833(17) 0.77983(11)
H6_3 H 0.9646 0.4761 0.7750
C14_3 C 0.98526(18) 0.4149(2) 0.70600(12)
O3_3 O 0.96519(11) 0.52442(10) 0.84479(7)
O4_3 O 0.9947(4) 0.6586(3) 0.6618(2)
H13_3 H 0.9883 0.6854 0.6778
O5_3 O 0.99266(16) 0.37801(15) 0.68100(9)
O6_3 O 0.89180(16) 0.56608(17) 0.74803(9)
O7_3 O 0.95387(12) 0.46047(12) 0.69987(7)
O8_3 O 0.9403(3) 0.7015(5) 0.7440(3)
H14_3 H 0.9062 0.7009 0.7364
O18_3 O 0.97558(10) 0.46519(11) 0.59479(7)
O20_3 O 0.88938(12) 0.54096(12) 0.64758(8)
O22_3 O 0.89018(17) 0.64738(15) 0.83153(10)
H15_3 H 0.970762 0.664386 0.63706
H16_3 H 0.966711 0.699446 0.720196
Na1_4 Na 0.03084(9) 0.43363(8) 0.19284(5)
C12_4 C 0.00648(16) 0.55167(17) 0.27983(11)
H6_4 H 0.0354 0.5239 0.2750
C14_4 C 0.01474(18) 0.5851(2) 0.20600(12)
O3_4 O 0.03481(11) 0.47558(10) 0.34479(7)
O4_4 O 0.0053(4) 0.3414(3) 0.1618(2)
H13_4 H 0.0117 0.3146 0.1778
O5_4 O 0.00734(16) 0.62199(15) 0.18100(9)
O6_4 O 0.10820(16) 0.43392(17) 0.24803(9)
O7_4 O 0.04613(12) 0.53953(12) 0.19987(7)
O8_4 O 0.0597(3) 0.2985(5) 0.2440(3)
H14_4 H 0.0938 0.2991 0.2364
O18_4 O 0.02442(10) 0.53481(11) 0.09479(7)
O20_4 O 0.11062(12) 0.45904(12) 0.14758(8)
O22_4 O 0.10982(17) 0.35262(15) 0.33153(10)
H15_4 H 0.0292384 0.335614 0.13706
H16_4 H 0.0332893 0.300554 0.220196
C1_4 C 0.6936(3) 0.7693(3) 0.40424(13)
C2_4 C 0.7260(3) 0.7720(3) 0.36663(13)
H1_4 H 0.7613 0.7524 0.3634
C3_4 C 0.7017(3) 0.8055(3) 0.33549(16)
C4_4 C 0.6485(2) 0.8338(3) 0.34035(14)
H2_4 H 0.6333 0.8562 0.3193
C5_4 C 0.6173(2) 0.8291(2) 0.37660(12)
C6_4 C 0.6411(2) 0.7987(3) 0.40795(14)
H3_4 H 0.6214 0.7978 0.4325
C7_4 C 0.98907(18) 0.58855(18) 0.24876(11)
C8_4 C 0.9471(2) 0.6309(2) 0.25544(12)
H4_4 H 0.9359 0.6558 0.2346
C9_4 C 0.9218(2) 0.6364(2) 0.29280(13)
C10_4 C 0.9391(2) 0.5965(2) 0.32401(12)
H5_4 H 0.9211 0.5984 0.3492
C11_4 C 0.98226(18) 0.55533(18) 0.31718(11)
C13_4 C 0.99836(18) 0.51575(19) 0.35142(11)
C15_4 C 0.56008(19) 0.8619(2) 0.38231(11)
C16_4 C 0.7210(4) 0.7365(4) 0.43904(16)
C17_4 C 0.7741(3) 0.7811(3) 0.28008(16)
C18_4 C 0.8444(3) 0.7133(2) 0.28036(14)
C19_4 C 0.8228(3) 0.7613(3) 0.22296(16)
C20_4 C 0.6697(2) 0.8905(2) 0.13478(15)
C21_4 C 0.7317(2) 0.8654(3) 0.13011(14)
C22_4 C 0.7672(3) 0.8825(3) 0.09571(17)
H7_4 H 0.7509 0.9053 0.0753
C23_4 C 0.8217(3) 0.8661(4) 0.0933(2)
C24_4 C 0.7566(2) 0.8315(3) 0.15906(15)
H8_4 H 0.7343 0.8228 0.1818
C25_4 C 0.8449(3) 0.8318(3) 0.1264(2)
H9_4 H 0.8850 0.8249 0.1267
C26_4 C 0.8127(3) 0.8088(3) 0.15716(15)
C27_4 C 0.8654(4) 0.8845(4) 0.0616(2)
N1_4 N 0.7271(2) 0.8102(3) 0.29680(12)
H10_4 H 0.7106 0.8352 0.2811
N2_4 N 0.7820(2) 0.7934(2) 0.24003(13)
N3_4 N 0.8016(2) 0.7404(2) 0.30164(11)
N4_4 N 0.8789(2) 0.6795(2) 0.30426(11)
H11_4 H 0.8745 0.6845 0.3298
N5_4 N 0.85941(18) 0.7236(2) 0.24250(12)
N6_4 N 0.8371(2) 0.7713(2) 0.18398(11)
H12_4 H 0.8659 0.7508 0.1749
O1_4 O 0.97362(14) 0.52240(14) 0.38420(8)
O2_4 O 0.96170(18) 0.41672(17) 0.24425(10)
O10_4 O 0.54096(12) 0.88938(12) 0.35242(8)
O12_4 O 0.64738(15) 0.89018(17) 0.16847(10)
O13_4 O 0.7630(3) 0.7086(3) 0.43393(12)
O14_4 O 0.6918(2) 0.7390(3) 0.46998(10)
O15_4 O 0.9125(3) 0.8614(4) 0.05594(18)
O16_4 O 0.8381(3) 0.9141(3) 0.0322(2)
Na6_4 Na 0.60882(9) 0.96039(9) 0.20720(5)
O17_4 O 0.97760(14) 0.47362(14) 0.13420(8)
O19_3 O 0.14605(16) 0.46894(15) 0.08573(9)
O2_5 O 0.08328(17) 0.46170(18) 0.99425(10)
O4_5 O 0.1586(3) 0.5053(4) 0.9118(2)
H13_5 H 0.1854 0.5117 0.9278
O6_5 O 0.06608(17) 0.60820(16) 0.99803(9)
O8_5 O 0.2015(5) 0.5597(3) 0.9940(3)
H14_5 H 0.2009 0.5938 0.9864
H15_5 H 0.164386 0.529238 0.88706
H16_5 H 0.199446 0.533289 0.970196
C1_5 C 0.7307(3) 0.1936(3) 0.15424(13)
C2_5 C 0.7280(3) 0.2260(3) 0.11663(13)
H1_5 H 0.7476 0.2613 0.1134
C3_5 C 0.6945(3) 0.2017(3) 0.08549(16)
C4_5 C 0.6662(3) 0.1485(2) 0.09035(14)
H2_5 H 0.6438 0.1333 0.0693
C5_5 C 0.6709(2) 0.1173(2) 0.12660(12)
C6_5 C 0.7013(3) 0.1411(2) 0.15795(14)
H3_5 H 0.7022 0.1214 0.1825
C8_5 C 0.8691(2) 0.4471(2) 0.00544(12)
C9_5 C 0.8636(2) 0.4218(2) 0.04280(13)
C10_5 C 0.9035(2) 0.4391(2) 0.07401(12)
H5_5 H 0.9016 0.4211 0.0992
C11_5 C 0.94467(18) 0.48226(18) 0.06718(11)
C12_5 C 0.94833(17) 0.50648(16) 0.02983(11)
H6_5 H 0.9761 0.5354 0.0250
C13_5 C 0.98425(19) 0.49836(18) 0.10142(11)
C15_5 C 0.6381(2) 0.06008(19) 0.13231(11)
C16_5 C 0.7635(4) 0.2210(4) 0.18904(16)
C17_5 C 0.7189(3) 0.2741(3) 0.03008(16)
C18_5 C 0.7867(2) 0.3444(3) 0.03036(14)
N1_5 N 0.6898(3) 0.2271(2) 0.04680(12)
H10_5 H 0.6648 0.2106 0.0311
N3_5 N 0.7596(2) 0.3016(2) 0.05164(11)
N4_5 N 0.8205(2) 0.3789(2) 0.05426(11)
H11_5 H 0.8155 0.3745 0.0798
O9_3 O 0.64605(16) 0.03106(15) 0.16427(9)
O13_5 O 0.7914(3) 0.2630(3) 0.18393(12)
O14_5 O 0.7610(3) 0.1918(2) 0.21998(10)
C7_5 C 0.91145(18) 0.48907(18) 0.99876(11)
H4_5 H 0.8442 0.4359 0.9846
C14_5 C 0.9149(2) 0.51474(18) 0.95600(12)
C19_5 C 0.7387(3) 0.3228(3) 0.97296(16)
C20_5 C 0.6095(2) 0.1697(2) 0.88478(15)
C21_5 C 0.6346(3) 0.2317(2) 0.88011(14)
C22_5 C 0.6175(3) 0.2672(3) 0.84571(17)
H7_5 H 0.5947 0.2509 0.8253
C23_5 C 0.6339(4) 0.3217(3) 0.8433(2)
C24_5 C 0.6685(3) 0.2566(2) 0.90906(15)
H8_5 H 0.6772 0.2343 0.9318
C25_5 C 0.6682(3) 0.3449(3) 0.8764(2)
H9_5 H 0.6751 0.3850 0.8767
C26_5 C 0.6912(3) 0.3127(3) 0.90716(15)
C27_5 C 0.6155(4) 0.3654(4) 0.8116(2)
N2_5 N 0.7066(2) 0.2820(2) 0.99003(13)
N5_5 N 0.7764(2) 0.35941(18) 0.99250(12)
N6_5 N 0.7287(2) 0.3371(2) 0.93398(11)
H12_5 H 0.7492 0.3659 0.9249
O5_5 O 0.87801(15) 0.50734(16) 0.93100(9)
O7_5 O 0.96047(12) 0.54613(12) 0.94987(7)
O11_3 O 0.58879(14) 0.14705(14) 0.85361(10)
O15_5 O 0.6386(4) 0.4125(3) 0.80594(18)
O16_5 O 0.5859(3) 0.3381(3) 0.7822(2)
O21_3 O 0.91121(14) 0.64705(14) 0.89639(10)
C1_6 C 0.2693(3) 0.8064(3) 0.65424(13)
C2_6 C 0.2720(3) 0.7740(3) 0.61663(13)
H1_6 H 0.2524 0.7387 0.6134
C3_6 C 0.3055(3) 0.7983(3) 0.58549(16)
C4_6 C 0.3338(3) 0.8515(2) 0.59035(14)
H2_6 H 0.3562 0.8667 0.5693
C5_6 C 0.3291(2) 0.8827(2) 0.62660(12)
C6_6 C 0.2987(3) 0.8589(2) 0.65795(14)
H3_6 H 0.2978 0.8786 0.6825
C7_6 C 0.08855(18) 0.51093(18) 0.49876(11)
C8_6 C 0.1309(2) 0.5529(2) 0.50544(12)
H4_6 H 0.1558 0.5641 0.4846
C9_6 C 0.1364(2) 0.5782(2) 0.54280(13)
C10_6 C 0.0965(2) 0.5609(2) 0.57401(12)
H5_6 H 0.0984 0.5789 0.5992
C11_6 C 0.05533(18) 0.51774(18) 0.56718(11)
C12_6 C 0.05167(17) 0.49352(16) 0.52983(11)
H6_6 H 0.0239 0.4646 0.5250
C13_6 C 0.01575(19) 0.50164(18) 0.60142(11)
C14_6 C 0.0851(2) 0.48526(18) 0.45600(12)
C15_6 C 0.3619(2) 0.93992(19) 0.63231(11)
C16_6 C 0.2365(4) 0.7790(4) 0.68904(16)
C17_6 C 0.2811(3) 0.7259(3) 0.53008(16)
C18_6 C 0.2133(2) 0.6556(3) 0.53036(14)
C19_6 C 0.2613(3) 0.6772(3) 0.47296(16)
C20_6 C 0.3905(2) 0.8303(2) 0.38478(15)
C21_6 C 0.3654(3) 0.7683(2) 0.38011(14)
C22_6 C 0.3825(3) 0.7328(3) 0.34571(17)
H7_6 H 0.4053 0.7491 0.3253
C23_6 C 0.3661(4) 0.6783(3) 0.3433(2)
C24_6 C 0.3315(3) 0.7434(2) 0.40906(15)
H8_6 H 0.3228 0.7657 0.4318
C25_6 C 0.3318(3) 0.6551(3) 0.3764(2)
H9_6 H 0.3249 0.6150 0.3767
C26_6 C 0.3088(3) 0.6873(3) 0.40716(15)
C27_6 C 0.3845(4) 0.6346(4) 0.3116(2)
N1_6 N 0.3102(3) 0.7729(2) 0.54680(12)
H10_6 H 0.3352 0.7894 0.5311
N2_6 N 0.2934(2) 0.7180(2) 0.49003(13)
N3_6 N 0.2404(2) 0.6984(2) 0.55164(11)
N4_6 N 0.1795(2) 0.6211(2) 0.55426(11)
H11_6 H 0.1845 0.6255 0.5798
N5_6 N 0.2236(2) 0.64059(18) 0.49250(12)
N6_6 N 0.2713(2) 0.6629(2) 0.43398(11)
H12_6 H 0.2508 0.6341 0.4249
O5_6 O 0.12199(15) 0.49266(16) 0.43100(9)
O7_6 O 0.03953(12) 0.45387(12) 0.44987(7)
O9_4 O 0.35395(16) 0.96894(15) 0.66427(9)
O11_4 O 0.41121(14) 0.85295(14) 0.35361(10)
O13_6 O 0.2086(3) 0.7370(3) 0.68393(12)
O14_6 O 0.2390(3) 0.8082(2) 0.71998(10)
O15_6 O 0.3614(4) 0.5875(3) 0.30594(18)
O16_6 O 0.4141(3) 0.6619(3) 0.2822(2)
O21_4 O 0.08879(14) 0.35295(14) 0.39639(10)
O2_6 O 0.91672(17) 0.53830(18) 0.49425(10)
O4_6 O 0.8414(3) 0.4947(4) 0.4118(2)
H13_6 H 0.8146 0.4883 0.4278
O6_6 O 0.93392(17) 0.39180(16) 0.49803(9)
O8_6 O 0.7985(5) 0.4403(3) 0.4940(3)
H14_6 H 0.7991 0.4062 0.4864
O19_4 O 0.85395(16) 0.53106(15) 0.58573(9)
H15_6 H 0.835614 0.470762 0.38706
H16_6 H 0.800554 0.466711 0.470196
C12_7 C 0.55167(17) 0.00648(16) 0.72017(11)
H6_7 H 0.5239 0.0354 0.7250
C14_7 C 0.5851(2) 0.01474(18) 0.79400(12)
O4_7 O 0.3414(3) 0.0053(4) 0.8382(2)
H13_7 H 0.3146 0.0117 0.8222
O5_7 O 0.62199(15) 0.00734(16) 0.81900(9)
O6_7 O 0.43392(17) 0.10820(16) 0.75197(9)
O7_7 O 0.53953(12) 0.04613(12) 0.80013(7)
O8_7 O 0.2985(5) 0.0597(3) 0.7560(3)
H14_7 H 0.2991 0.0938 0.7636
H15_7 H 0.335614 0.0292384 0.86294
H16_7 H 0.300554 0.0332893 0.779804
C1_7 C 0.7693(3) 0.6936(3) 0.59576(13)
C2_7 C 0.7720(3) 0.7260(3) 0.63337(13)
H1_7 H 0.7524 0.7613 0.6366
C3_7 C 0.8055(3) 0.7017(3) 0.66451(16)
C4_7 C 0.8338(3) 0.6485(2) 0.65965(14)
H2_7 H 0.8562 0.6333 0.6807
C5_7 C 0.8291(2) 0.6173(2) 0.62340(12)
C6_7 C 0.7987(3) 0.6411(2) 0.59205(14)
H3_7 H 0.7978 0.6214 0.5675
C7_7 C 0.58855(18) 0.98907(18) 0.75124(11)
C8_7 C 0.6309(2) 0.9471(2) 0.74456(12)
H4_7 H 0.6558 0.9359 0.7654
C9_7 C 0.6364(2) 0.9218(2) 0.70720(13)
C10_7 C 0.5965(2) 0.9391(2) 0.67599(12)
H5_7 H 0.5984 0.9211 0.6508
C11_7 C 0.55533(18) 0.98226(18) 0.68282(11)
C13_7 C 0.51575(19) 0.99836(18) 0.64858(11)
C15_7 C 0.8619(2) 0.56008(19) 0.61769(11)
C16_7 C 0.7365(4) 0.7210(4) 0.56096(16)
C17_7 C 0.7811(3) 0.7741(3) 0.71992(16)
C18_7 C 0.7133(2) 0.8444(3) 0.71964(14)
C19_7 C 0.7613(3) 0.8228(3) 0.77704(16)
C20_7 C 0.8905(2) 0.6697(2) 0.86522(15)
C21_7 C 0.8654(3) 0.7317(2) 0.86989(14)
C22_7 C 0.8825(3) 0.7672(3) 0.90429(17)
H7_7 H 0.9053 0.7509 0.9247
C23_7 C 0.8661(4) 0.8217(3) 0.9067(2)
C24_7 C 0.8315(3) 0.7566(2) 0.84094(15)
H8_7 H 0.8228 0.7343 0.8182
C25_7 C 0.8318(3) 0.8449(3) 0.8736(2)
H9_7 H 0.8249 0.8850 0.8733
C26_7 C 0.8088(3) 0.8127(3) 0.84284(15)
C27_7 C 0.8845(4) 0.8654(4) 0.9384(2)
N1_7 N 0.8102(3) 0.7271(2) 0.70320(12)
H10_7 H 0.8352 0.7106 0.7189
N2_7 N 0.7934(2) 0.7820(2) 0.75997(13)
N3_7 N 0.7404(2) 0.8016(2) 0.69836(11)
N4_7 N 0.6795(2) 0.8789(2) 0.69574(11)
H11_7 H 0.6845 0.8745 0.6702
N5_7 N 0.7236(2) 0.85941(18) 0.75750(12)
N6_7 N 0.7713(2) 0.8371(2) 0.81602(11)
H12_7 H 0.7508 0.8659 0.8251
O2_7 O 0.41672(17) 0.96170(18) 0.75575(10)
O13_7 O 0.7086(3) 0.7630(3) 0.56607(12)
O14_7 O 0.7390(3) 0.6918(2) 0.53002(10)
O15_7 O 0.8614(4) 0.9125(3) 0.94406(18)
O16_7 O 0.9141(3) 0.8381(3) 0.9678(2)
C1_8 C 0.2307(3) 0.3064(3) 0.09576(13)
C2_8 C 0.2280(3) 0.2740(3) 0.13337(13)
H1_8 H 0.2476 0.2387 0.1366
C3_8 C 0.1945(3) 0.2983(3) 0.16451(16)
C4_8 C 0.1662(3) 0.3515(2) 0.15965(14)
H2_8 H 0.1438 0.3667 0.1807
C5_8 C 0.1709(2) 0.3827(2) 0.12340(12)
C6_8 C 0.2013(3) 0.3589(2) 0.09205(14)
H3_8 H 0.2022 0.3786 0.0675
C7_8 C 0.41145(18) 0.01093(18) 0.25124(11)
C8_8 C 0.3691(2) 0.0529(2) 0.24456(12)
H4_8 H 0.3442 0.0641 0.2654
C9_8 C 0.3636(2) 0.0782(2) 0.20720(13)
C10_8 C 0.4035(2) 0.0609(2) 0.17599(12)
H5_8 H 0.4016 0.0789 0.1508
C11_8 C 0.44467(18) 0.01774(18) 0.18282(11)
C13_8 C 0.48425(19) 0.00164(18) 0.14858(11)
C15_8 C 0.1381(2) 0.43992(19) 0.11769(11)
C16_8 C 0.2635(4) 0.2790(4) 0.06096(16)
C17_8 C 0.2189(3) 0.2259(3) 0.21992(16)
C18_8 C 0.2867(2) 0.1556(3) 0.21964(14)
C19_8 C 0.2387(3) 0.1772(3) 0.27704(16)
C20_8 C 0.1095(2) 0.3303(2) 0.36522(15)
C21_8 C 0.1346(3) 0.2683(2) 0.36989(14)
C22_8 C 0.1175(3) 0.2328(3) 0.40429(17)
H7_8 H 0.0947 0.2491 0.4247
C23_8 C 0.1339(4) 0.1783(3) 0.4067(2)
C24_8 C 0.1685(3) 0.2434(2) 0.34094(15)
H8_8 H 0.1772 0.2657 0.3182
C25_8 C 0.1682(3) 0.1551(3) 0.3736(2)
H9_8 H 0.1751 0.1150 0.3733
C26_8 C 0.1912(3) 0.1873(3) 0.34284(15)
C27_8 C 0.1155(4) 0.1346(4) 0.4384(2)
N1_8 N 0.1898(3) 0.2729(2) 0.20320(12)
H10_8 H 0.1648 0.2894 0.2189
N2_8 N 0.2066(2) 0.2180(2) 0.25997(13)
N3_8 N 0.2596(2) 0.1984(2) 0.19836(11)
N4_8 N 0.3205(2) 0.1211(2) 0.19574(11)
H11_8 H 0.3155 0.1255 0.1702
N5_8 N 0.2764(2) 0.14059(18) 0.25750(12)
N6_8 N 0.2287(2) 0.1629(2) 0.31602(11)
H12_8 H 0.2492 0.1341 0.3251
O2_8 O 0.58328(17) 0.03830(18) 0.25575(10)
O13_8 O 0.2914(3) 0.2370(3) 0.06607(12)
O14_8 O 0.2610(3) 0.3082(2) 0.03002(10)
O15_8 O 0.1386(4) 0.0875(3) 0.44406(18)
O16_8 O 0.0859(3) 0.1619(3) 0.4678(2)
C12_8 C 0.44833(17) 0.99352(16) 0.22017(11)
H6_8 H 0.4761 0.9646 0.2250
C14_8 C 0.4149(2) 0.98526(18) 0.29400(12)
O4_8 O 0.6586(3) 0.9947(4) 0.3382(2)
H13_8 H 0.6854 0.9883 0.3222
O5_8 O 0.37801(15) 0.99266(16) 0.31900(9)
O6_8 O 0.56608(17) 0.89180(16) 0.25197(9)
O7_8 O 0.46047(12) 0.95387(12) 0.30013(7)
O8_8 O 0.7015(5) 0.9403(3) 0.2560(3)
H14_8 H 0.7009 0.9062 0.2636
H15_8 H 0.664386 0.970762 0.36294
H16_8 H 0.699446 0.966711 0.279804
loop_
_geom_bond_atom_site_label_1
_geom_bond_atom_site_label_2
_geom_bond_site_symmetry_1
_geom_bond_site_symmetry_2
Zn1 O7 1_555 1_555
C1 C2 1_555 1_555
C2 H1 1_555 1_555
C3 C2 1_555 1_555
C4 C3 1_555 1_555
H2 C4 1_555 1_555
C5 C4 1_555 1_555
C6 C1 1_555 1_555
H3 C6 1_555 1_555
C7 C8 1_555 1_555
C8 H4 1_555 1_555
C9 C8 1_555 1_555
C10 C9 1_555 1_555
H5 C10 1_555 1_555
C11 C10 1_555 1_555
C12 C7 1_555 1_555
H6 C12 1_555 1_555
C13 C11 1_555 1_555
C14 C7 1_555 1_555
C15 C5 1_555 1_555
C16 C1 1_555 1_555
C17 N1 1_555 1_555
C18 N3 1_555 1_555
C19 N2 1_555 1_555
C20 C21 1_555 1_555
C21 C22 1_555 1_555
C22 H7 1_555 1_555
C23 C22 1_555 1_555
C24 C21 1_555 1_555
H8 C24 1_555 1_555
C25 C23 1_555 1_555
H9 C25 1_555 1_555
C26 C24 1_555 1_555
C27 C23 1_555 1_555
N1 C3 1_555 1_555
H10 N1 1_555 1_555
N2 C17 1_555 1_555
N3 C17 1_555 1_555
N4 C9 1_555 1_555
H11 N4 1_555 1_555
N5 C18 1_555 1_555
N6 C19 1_555 1_555
H12 N6 1_555 1_555
O1 C13 1_555 1_555
O5 C14 1_555 1_555
O9 C15 1_555 1_555
O10 C15 1_555 1_555
O11 C20 1_555 1_555
O12 C20 1_555 1_555
O13 C16 1_555 1_555
O14 C16 1_555 1_555
O15 C27 1_555 1_555
O16 C27 1_555 1_555
Zn2 O11 1_555 1_555
Na3 O10 1_555 1_555
Na6 O12 1_555 1_555
O18 Zn1 1_555 1_555
O21 Zn1 1_555 1_555
C5 C6 1_555 1_555
C11 C12 1_555 1_555
C14 O7 1_555 1_555
C18 N4 1_555 1_555
C19 N5 1_555 1_555
C25 C26 1_555 1_555
C26 N6 1_555 1_555
Na1 O2 1_555 1_555
Na2 O2 1_555 1_555
O3 Na2 1_555 1_555
O4 Na1 1_555 1_555
H13 O4 1_555 1_555
O6 Na1 1_555 1_555
O8 Na2 1_555 1_555
H14 O8 1_555 1_555
Zn4 O3 1_555 1_555
O17 Na1 1_555 1_555
O19 Na2 1_555 1_555
O22 Na2 1_555 1_555
Na1 O20 1_555 1_555
Na2 O6 1_555 1_555
O4 H15 1_555 1_555
O8 H16 1_555 1_555
Na1_2 O2_2 1_555 1_555
O4_2 Na1_2 1_555 1_555
H13_2 O4_2 1_555 1_555
O6_2 Na1_2 1_555 1_555
H14_2 O8_2 1_555 1_555
O17_2 Na1_2 1_555 1_555
Na1_2 O20_2 1_555 1_555
O4_2 H15_2 1_555 1_555
O8_2 H16_2 1_555 1_555
O3_2 Na2_2 1_555 1_555
Zn4_2 O3_2 1_555 1_555
O19_2 Na2_2 1_555 1_555
O22_2 Na2_2 1_555 1_555
Zn1_2 O7_2 1_555 1_555
C14_2 C7_2 1_555 1_555
C19_2 N2_2 1_555 1_555
C20_2 C21_2 1_555 1_555
C21_2 C22_2 1_555 1_555
C22_2 H7_2 1_555 1_555
C23_2 C22_2 1_555 1_555
C24_2 C21_2 1_555 1_555
H8_2 C24_2 1_555 1_555
C25_2 C23_2 1_555 1_555
H9_2 C25_2 1_555 1_555
C26_2 C24_2 1_555 1_555
C27_2 C23_2 1_555 1_555
N6_2 C19_2 1_555 1_555
H12_2 N6_2 1_555 1_555
O5_2 C14_2 1_555 1_555
O11_2 C20_2 1_555 1_555
O12_2 C20_2 1_555 1_555
O15_2 C27_2 1_555 1_555
O16_2 C27_2 1_555 1_555
Zn2_2 O11_2 1_555 1_555
Na6_2 O12_2 1_555 1_555
O18_2 Zn1_2 1_555 1_555
O21_2 Zn1_2 1_555 1_555
C14_2 O7_2 1_555 1_555
C19_2 N5_2 1_555 1_555
C25_2 C26_2 1_555 1_555
C26_2 N6_2 1_555 1_555
C1_2 C2_2 1_555 1_555
C2_2 H1_2 1_555 1_555
C3_2 C2_2 1_555 1_555
C4_2 C3_2 1_555 1_555
H2_2 C4_2 1_555 1_555
C5_2 C4_2 1_555 1_555
C6_2 C1_2 1_555 1_555
H3_2 C6_2 1_555 1_555
C9_2 C8_2 1_555 1_555
C10_2 C9_2 1_555 1_555
H5_2 C10_2 1_555 1_555
C11_2 C10_2 1_555 1_555
H6_2 C12_2 1_555 1_555
C13_2 C11_2 1_555 1_555
C15_2 C5_2 1_555 1_555
C16_2 C1_2 1_555 1_555
C17_2 N1_2 1_555 1_555
C18_2 N3_2 1_555 1_555
N1_2 C3_2 1_555 1_555
H10_2 N1_2 1_555 1_555
N3_2 C17_2 1_555 1_555
N4_2 C9_2 1_555 1_555
H11_2 N4_2 1_555 1_555
O1_2 C13_2 1_555 1_555
O9_2 C15_2 1_555 1_555
O10_2 C15_2 1_555 1_555
O13_2 C16_2 1_555 1_555
O14_2 C16_2 1_555 1_555
Na3_2 O10_2 1_555 1_555
C5_2 C6_2 1_555 1_555
C11_2 C12_2 1_555 1_555
C18_2 N4_2 1_555 1_555
C1_3 C2_3 1_555 1_555
C2_3 H1_3 1_555 1_555
C3_3 C2_3 1_555 1_555
C4_3 C3_3 1_555 1_555
H2_3 C4_3 1_555 1_555
C5_3 C4_3 1_555 1_555
C6_3 C1_3 1_555 1_555
H3_3 C6_3 1_555 1_555
C7_3 C8_3 1_555 1_555
C8_3 H4_3 1_555 1_555
C9_3 C8_3 1_555 1_555
C10_3 C9_3 1_555 1_555
H5_3 C10_3 1_555 1_555
C11_3 C10_3 1_555 1_555
C13_3 C11_3 1_555 1_555
C15_3 C5_3 1_555 1_555
C16_3 C1_3 1_555 1_555
C17_3 N1_3 1_555 1_555
C18_3 N3_3 1_555 1_555
C19_3 N2_3 1_555 1_555
C20_3 C21_3 1_555 1_555
C21_3 C22_3 1_555 1_555
C22_3 H7_3 1_555 1_555
C23_3 C22_3 1_555 1_555
C24_3 C21_3 1_555 1_555
H8_3 C24_3 1_555 1_555
C25_3 C23_3 1_555 1_555
H9_3 C25_3 1_555 1_555
C26_3 C24_3 1_555 1_555
C27_3 C23_3 1_555 1_555
N1_3 C3_3 1_555 1_555
H10_3 N1_3 1_555 1_555
N2_3 C17_3 1_555 1_555
N3_3 C17_3 1_555 1_555
N4_3 C9_3 1_555 1_555
H11_3 N4_3 1_555 1_555
N5_3 C18_3 1_555 1_555
N6_3 C19_3 1_555 1_555
H12_3 N6_3 1_555 1_555
O1_3 C13_3 1_555 1_555
O19_2 C15_3 1_555 1_555
O10_3 C15_3 1_555 1_555
O21 C20_3 1_555 1_555
O12_3 C20_3 1_555 1_555
O13_3 C16_3 1_555 1_555
O14_3 C16_3 1_555 1_555
O15_3 C27_3 1_555 1_555
O16_3 C27_3 1_555 1_555
Zn4_2 O10_3 1_555 1_555
Na4_2 O10_3 1_555 1_555
Na3_2 O1_3 1_555 1_555
Na6_3 O12_3 1_555 1_555
C5_3 C6_3 1_555 1_555
C18_3 N4_3 1_555 1_555
C19_3 N5_3 1_555 1_555
C25_3 C26_3 1_555 1_555
C26_3 N6_3 1_555 1_555
Zn2 O7_3 1_555 1_555
H6_3 C12_3 1_555 1_555
O3_3 Na5_2 1_555 1_555
O4_3 Na1_3 1_555 1_555
H13_3 O4_3 1_555 1_555
O5_3 C14_3 1_555 1_555
O6_3 Na1_3 1_555 1_555
O7_3 Na1_3 1_555 1_555
O8_3 Na5_2 1_555 1_555
H14_3 O8_3 1_555 1_555
Zn3_2 O3_3 1_555 1_555
O18_3 Zn2 1_555 1_555
O20_3 Zn2 1_555 1_555
O22_3 Na5_2 1_555 1_555
Na1_3 O20_3 1_555 1_555
Na5_2 O6_3 1_555 1_555
C14_3 O7_3 1_555 1_555
O4_3 H15_3 1_555 1_555
O8_3 H16_3 1_555 1_555
Zn2_2 O7_4 1_555 1_555
H6_4 C12_4 1_555 1_555
O3_4 Na5 1_555 1_555
O4_4 Na1_4 1_555 1_555
H13_4 O4_4 1_555 1_555
O5_4 C14_4 1_555 1_555
O6_4 Na1_4 1_555 1_555
O7_4 Na1_4 1_555 1_555
O8_4 Na5 1_555 1_555
H14_4 O8_4 1_555 1_555
Zn3 O3_4 1_555 1_555
O18_4 Zn2_2 1_555 1_555
O20_4 Zn2_2 1_555 1_555
O22_4 Na5 1_555 1_555
Na1_4 O20_4 1_555 1_555
Na5 O6_4 1_555 1_555
C14_4 O7_4 1_555 1_555
O4_4 H15_4 1_555 1_555
O8_4 H16_4 1_555 1_555
C1_4 C2_4 1_555 1_555
C2_4 H1_4 1_555 1_555
C3_4 C2_4 1_555 1_555
C4_4 C3_4 1_555 1_555
H2_4 C4_4 1_555 1_555
C5_4 C4_4 1_555 1_555
C6_4 C1_4 1_555 1_555
H3_4 C6_4 1_555 1_555
C7_4 C8_4 1_555 1_555
C8_4 H4_4 1_555 1_555
C9_4 C8_4 1_555 1_555
C10_4 C9_4 1_555 1_555
H5_4 C10_4 1_555 1_555
C11_4 C10_4 1_555 1_555
C13_4 C11_4 1_555 1_555
C15_4 C5_4 1_555 1_555
C16_4 C1_4 1_555 1_555
C17_4 N1_4 1_555 1_555
C18_4 N3_4 1_555 1_555
C19_4 N2_4 1_555 1_555
C20_4 C21_4 1_555 1_555
C21_4 C22_4 1_555 1_555
C22_4 H7_4 1_555 1_555
C23_4 C22_4 1_555 1_555
C24_4 C21_4 1_555 1_555
H8_4 C24_4 1_555 1_555
C25_4 C23_4 1_555 1_555
H9_4 C25_4 1_555 1_555
C26_4 C24_4 1_555 1_555
C27_4 C23_4 1_555 1_555
N1_4 C3_4 1_555 1_555
H10_4 N1_4 1_555 1_555
N2_4 C17_4 1_555 1_555
N3_4 C17_4 1_555 1_555
N4_4 C9_4 1_555 1_555
H11_4 N4_4 1_555 1_555
N5_4 C18_4 1_555 1_555
N6_4 C19_4 1_555 1_555
H12_4 N6_4 1_555 1_555
O1_4 C13_4 1_555 1_555
O19 C15_4 1_555 1_555
O10_4 C15_4 1_555 1_555
O21_2 C20_4 1_555 1_555
O12_4 C20_4 1_555 1_555
O13_4 C16_4 1_555 1_555
O14_4 C16_4 1_555 1_555
O15_4 C27_4 1_555 1_555
O16_4 C27_4 1_555 1_555
Zn4 O10_4 1_555 1_555
Na4 O10_4 1_555 1_555
Na3 O1_4 1_555 1_555
Na6_4 O12_4 1_555 1_555
C5_4 C6_4 1_555 1_555
C18_4 N4_4 1_555 1_555
C19_4 N5_4 1_555 1_555
C25_4 C26_4 1_555 1_555
C26_4 N6_4 1_555 1_555
O18_4 Na6_2 1_555 1_555
O19_3 Na6_2 1_555 1_555
Na3_2 O2_5 1_555 1_555
O4_5 Na3_2 1_555 1_555
H13_5 O4_5 1_555 1_555
O6_5 Na3_2 1_555 1_555
H14_5 O8_5 1_555 1_555
O4_5 H15_5 1_555 1_555
O8_5 H16_5 1_555 1_555
C1_5 C2_5 1_555 1_555
C2_5 H1_5 1_555 1_555
C3_5 C2_5 1_555 1_555
C4_5 C3_5 1_555 1_555
H2_5 C4_5 1_555 1_555
C5_5 C4_5 1_555 1_555
C6_5 C1_5 1_555 1_555
H3_5 C6_5 1_555 1_555
C9_5 C8_5 1_555 1_555
C10_5 C9_5 1_555 1_555
H5_5 C10_5 1_555 1_555
C11_5 C10_5 1_555 1_555
H6_5 C12_5 1_555 1_555
C13_5 C11_5 1_555 1_555
C15_5 C5_5 1_555 1_555
C16_5 C1_5 1_555 1_555
C17_5 N1_5 1_555 1_555
C18_5 N3_5 1_555 1_555
N1_5 C3_5 1_555 1_555
H10_5 N1_5 1_555 1_555
N3_5 C17_5 1_555 1_555
N4_5 C9_5 1_555 1_555
H11_5 N4_5 1_555 1_555
O17_4 C13_5 1_555 1_555
O9_3 C15_5 1_555 1_555
O20_2 C15_5 1_555 1_555
O13_5 C16_5 1_555 1_555
O14_5 C16_5 1_555 1_555
C5_5 C6_5 1_555 1_555
C11_5 C12_5 1_555 1_555
C18_5 N4_5 1_555 1_555
Zn3_2 O7_5 1_555 1_555
C14_5 C7_5 1_555 1_555
C19_5 N2_5 1_555 1_555
C20_5 C21_5 1_555 1_555
C21_5 C22_5 1_555 1_555
C22_5 H7_5 1_555 1_555
C23_5 C22_5 1_555 1_555
C24_5 C21_5 1_555 1_555
H8_5 C24_5 1_555 1_555
C25_5 C23_5 1_555 1_555
H9_5 C25_5 1_555 1_555
C26_5 C24_5 1_555 1_555
C27_5 C23_5 1_555 1_555
N6_5 C19_5 1_555 1_555
H12_5 N6_5 1_555 1_555
O5_5 C14_5 1_555 1_555
O11_3 C20_5 1_555 1_555
O22_2 C20_5 1_555 1_555
O15_5 C27_5 1_555 1_555
O16_5 C27_5 1_555 1_555
Zn4_2 O11_3 1_555 1_555
O21_3 Zn3_2 1_555 1_555
C14_5 O7_5 1_555 1_555
C19_5 N5_5 1_555 1_555
C25_5 C26_5 1_555 1_555
C26_5 N6_5 1_555 1_555
Zn3 O7_6 1_555 1_555
C1_6 C2_6 1_555 1_555
C2_6 H1_6 1_555 1_555
C3_6 C2_6 1_555 1_555
C4_6 C3_6 1_555 1_555
H2_6 C4_6 1_555 1_555
C5_6 C4_6 1_555 1_555
C6_6 C1_6 1_555 1_555
H3_6 C6_6 1_555 1_555
C7_6 C8_6 1_555 1_555
C8_6 H4_6 1_555 1_555
C9_6 C8_6 1_555 1_555
C10_6 C9_6 1_555 1_555
H5_6 C10_6 1_555 1_555
C11_6 C10_6 1_555 1_555
C12_6 C7_6 1_555 1_555
H6_6 C12_6 1_555 1_555
C13_6 C11_6 1_555 1_555
C14_6 C7_6 1_555 1_555
C15_6 C5_6 1_555 1_555
C16_6 C1_6 1_555 1_555
C17_6 N1_6 1_555 1_555
C18_6 N3_6 1_555 1_555
C19_6 N2_6 1_555 1_555
C20_6 C21_6 1_555 1_555
C21_6 C22_6 1_555 1_555
C22_6 H7_6 1_555 1_555
C23_6 C22_6 1_555 1_555
C24_6 C21_6 1_555 1_555
H8_6 C24_6 1_555 1_555
C25_6 C23_6 1_555 1_555
H9_6 C25_6 1_555 1_555
C26_6 C24_6 1_555 1_555
C27_6 C23_6 1_555 1_555
N1_6 C3_6 1_555 1_555
H10_6 N1_6 1_555 1_555
N2_6 C17_6 1_555 1_555
N3_6 C17_6 1_555 1_555
N4_6 C9_6 1_555 1_555
H11_6 N4_6 1_555 1_555
N5_6 C18_6 1_555 1_555
N6_6 C19_6 1_555 1_555
H12_6 N6_6 1_555 1_555
O17_3 C13_6 1_555 1_555
O5_6 C14_6 1_555 1_555
O9_4 C15_6 1_555 1_555
O20 C15_6 1_555 1_555
O11_4 C20_6 1_555 1_555
O22 C20_6 1_555 1_555
O13_6 C16_6 1_555 1_555
O14_6 C16_6 1_555 1_555
O15_6 C27_6 1_555 1_555
O16_6 C27_6 1_555 1_555
Zn4 O11_4 1_555 1_555
O21_4 Zn3 1_555 1_555
C5_6 C6_6 1_555 1_555
C11_6 C12_6 1_555 1_555
C14_6 O7_6 1_555 1_555
C18_6 N4_6 1_555 1_555
C19_6 N5_6 1_555 1_555
C25_6 C26_6 1_555 1_555
C26_6 N6_6 1_555 1_555
Na3 O2_6 1_555 1_555
Na6 O2_6 1_555 1_555
O18_3 Na6 1_555 1_555
O4_6 Na3 1_555 1_555
H13_6 O4_6 1_555 1_555
O6_6 Na3 1_555 1_555
O8_6 Na6 1_555 1_555
H14_6 O8_6 1_555 1_555
O19_4 Na6 1_555 1_555
Na6 O6_6 1_555 1_555
O4_6 H15_6 1_555 1_555
O8_6 H16_6 1_555 1_555
Zn4_2 O7_7 1_555 1_555
H6_7 C12_7 1_555 1_555
O18 Na6_3 1_555 1_555
O4_7 Na4_2 1_555 1_555
H13_7 O4_7 1_555 1_555
O5_7 C14_7 1_555 1_555
O6_7 Na4_2 1_555 1_555
O7_7 Na4_2 1_555 1_555
O8_7 Na6_3 1_555 1_555
H14_7 O8_7 1_555 1_555
Na6_3 O6_7 1_555 1_555
C14_7 O7_7 1_555 1_555
O4_7 H15_7 1_555 1_555
O8_7 H16_7 1_555 1_555
C1_7 C2_7 1_555 1_555
C2_7 H1_7 1_555 1_555
C3_7 C2_7 1_555 1_555
C4_7 C3_7 1_555 1_555
H2_7 C4_7 1_555 1_555
C5_7 C4_7 1_555 1_555
C6_7 C1_7 1_555 1_555
H3_7 C6_7 1_555 1_555
C7_7 C8_7 1_555 1_555
C8_7 H4_7 1_555 1_555
C9_7 C8_7 1_555 1_555
C10_7 C9_7 1_555 1_555
H5_7 C10_7 1_555 1_555
C11_7 C10_7 1_555 1_555
C13_7 C11_7 1_555 1_555
C15_7 C5_7 1_555 1_555
C16_7 C1_7 1_555 1_555
C17_7 N1_7 1_555 1_555
C18_7 N3_7 1_555 1_555
C19_7 N2_7 1_555 1_555
C20_7 C21_7 1_555 1_555
C21_7 C22_7 1_555 1_555
C22_7 H7_7 1_555 1_555
C23_7 C22_7 1_555 1_555
C24_7 C21_7 1_555 1_555
H8_7 C24_7 1_555 1_555
C25_7 C23_7 1_555 1_555
H9_7 C25_7 1_555 1_555
C26_7 C24_7 1_555 1_555
C27_7 C23_7 1_555 1_555
N1_7 C3_7 1_555 1_555
H10_7 N1_7 1_555 1_555
N2_7 C17_7 1_555 1_555
N3_7 C17_7 1_555 1_555
N4_7 C9_7 1_555 1_555
H11_7 N4_7 1_555 1_555
N5_7 C18_7 1_555 1_555
N6_7 C19_7 1_555 1_555
H12_7 N6_7 1_555 1_555
O17 C13_7 1_555 1_555
O19_4 C15_7 1_555 1_555
O20_3 C15_7 1_555 1_555
O21_3 C20_7 1_555 1_555
O22_3 C20_7 1_555 1_555
O13_7 C16_7 1_555 1_555
O14_7 C16_7 1_555 1_555
O15_7 C27_7 1_555 1_555
O16_7 C27_7 1_555 1_555
C5_7 C6_7 1_555 1_555
C18_7 N4_7 1_555 1_555
C19_7 N5_7 1_555 1_555
C25_7 C26_7 1_555 1_555
C26_7 N6_7 1_555 1_555
C1_8 C2_8 1_555 1_555
C2_8 H1_8 1_555 1_555
C3_8 C2_8 1_555 1_555
C4_8 C3_8 1_555 1_555
H2_8 C4_8 1_555 1_555
C5_8 C4_8 1_555 1_555
C6_8 C1_8 1_555 1_555
H3_8 C6_8 1_555 1_555
C7_8 C8_8 1_555 1_555
C8_8 H4_8 1_555 1_555
C9_8 C8_8 1_555 1_555
C10_8 C9_8 1_555 1_555
H5_8 C10_8 1_555 1_555
C11_8 C10_8 1_555 1_555
C13_8 C11_8 1_555 1_555
C15_8 C5_8 1_555 1_555
C16_8 C1_8 1_555 1_555
C17_8 N1_8 1_555 1_555
C18_8 N3_8 1_555 1_555
C19_8 N2_8 1_555 1_555
C20_8 C21_8 1_555 1_555
C21_8 C22_8 1_555 1_555
C22_8 H7_8 1_555 1_555
C23_8 C22_8 1_555 1_555
C24_8 C21_8 1_555 1_555
H8_8 C24_8 1_555 1_555
C25_8 C23_8 1_555 1_555
H9_8 C25_8 1_555 1_555
C26_8 C24_8 1_555 1_555
C27_8 C23_8 1_555 1_555
N1_8 C3_8 1_555 1_555
H10_8 N1_8 1_555 1_555
N2_8 C17_8 1_555 1_555
N3_8 C17_8 1_555 1_555
N4_8 C9_8 1_555 1_555
H11_8 N4_8 1_555 1_555
N5_8 C18_8 1_555 1_555
N6_8 C19_8 1_555 1_555
H12_8 N6_8 1_555 1_555
O17_2 C13_8 1_555 1_555
O19_3 C15_8 1_555 1_555
O20_4 C15_8 1_555 1_555
O21_4 C20_8 1_555 1_555
O22_4 C20_8 1_555 1_555
O13_8 C16_8 1_555 1_555
O14_8 C16_8 1_555 1_555
O15_8 C27_8 1_555 1_555
O16_8 C27_8 1_555 1_555
C5_8 C6_8 1_555 1_555
C18_8 N4_8 1_555 1_555
C19_8 N5_8 1_555 1_555
C25_8 C26_8 1_555 1_555
C26_8 N6_8 1_555 1_555
Zn4 O7_8 1_555 1_555
H6_8 C12_8 1_555 1_555
O18_2 Na6_4 1_555 1_555
O4_8 Na4 1_555 1_555
H13_8 O4_8 1_555 1_555
O5_8 C14_8 1_555 1_555
O6_8 Na4 1_555 1_555
O7_8 Na4 1_555 1_555
O8_8 Na6_4 1_555 1_555
H14_8 O8_8 1_555 1_555
Na6_4 O6_8 1_555 1_555
C14_8 O7_8 1_555 1_555
O4_8 H15_8 1_555 1_555
O8_8 H16_8 1_555 1_555

#END
