
###############################################################################
#
# This file contains modified crystal structure data generated from the
# MOF subset of the Cambridge Structural Database (CSD) v543 
# hosted by the Cambridge Crystallographic Data Centre (CCDC).
#
# This work is licensed under the Creative Commons
# Attribution-NonCommercial-ShareAlike 4.0 International License.
# To view a copy of this license, visit
# http://creativecommons.org/licenses/by-nc-sa/4.0/
# or send a letter to
# Creative Commons, PO Box 1866, Mountain View, CA 94042, USA.
#
# CIF created using the CSD Python API on 29 September 2022
# The structure has been converted into the P1 space group
# The structure has a 3D framework
# The original CSD entry ZEZPUR is in the triclinic crystal system
# The framework has been calculated to contain at least 10.0% void space
# The void calculation uses a probe of radius 1.32A, grid spacing 0.4
#
###############################################################################

data_ZEZPUR
_chemical_formula_moiety         '(C42 H40 Dy2 N8 O16)n'
_symmetry_cell_setting           triclinic
_symmetry_space_group_name_H-M   'P 1'
_symmetry_Int_Tables_number      1
_space_group_name_Hall           'P 1'
loop_
_symmetry_equiv_pos_site_id
_symmetry_equiv_pos_as_xyz
1 x,y,z
_cell_length_a                   9.8856(16)
_cell_length_b                   11.6827(19)
_cell_length_c                   13.441(2)
_cell_angle_alpha                66.863(4)
_cell_angle_beta                 86.995(4)
_cell_angle_gamma                76.582(4)
_cell_volume                     1387.18
loop_
_atom_site_label
_atom_site_type_symbol
_atom_site_fract_x
_atom_site_fract_y
_atom_site_fract_z
_atom_site_U_iso_or_equiv
_atom_site_thermal_displace_type
Dy1 Dy 0.23669(6) 0.02614(5) 0.00426(4) 0.0130 Uani
C19 C 0.273(2) 0.2083(19) 0.1366(17) 0.0538 Uani
H10 H 0.2272 0.1529 0.1891 0.0650 Uiso
C20 C 0.373(4) 0.388(3) 0.081(3) 0.1164 Uani
H11 H 0.4662 0.3762 0.1059 0.1750 Uiso
H12 H 0.3204 0.4722 0.0720 0.1750 Uiso
H13 H 0.3737 0.3783 0.0137 0.1750 Uiso
C21 C 0.290(4) 0.297(4) 0.268(3) 0.1360 Uani
H14 H 0.2384 0.3806 0.2617 0.2010 Uiso
H15 H 0.3801 0.2798 0.3025 0.2010 Uiso
H16 H 0.2412 0.2342 0.3116 0.2010 Uiso
N4 N 0.308(2) 0.2939(18) 0.1606(16) 0.0673 Uani
O9 O 0.2929(11) 0.1919(10) 0.0521(9) 0.0358 Uani
O24 O 0.1040(10) 0.0270(10) 0.1556(8) 0.0284 Uani
C14 C 0.229(2) 0.067(2) 0.5777(16) 0.0600 Uani
H7 H 0.3122 0.0919 0.5565 0.0720 Uiso
C15 C 0.1903(18) 0.0503(18) 0.6816(14) 0.0447 Uani
H8 H 0.2445 0.0653 0.7277 0.0540 Uiso
C16 C 0.0664(15) 0.0106(14) 0.7152(11) 0.0288 Uani
C18 C 0.0392(15) 0.0120(15) 0.5400(11) 0.0303 Uani
N3 N 0.1599(16) 0.0495(16) 0.5061(12) 0.0508 Uani
O6 O 0.0905(10) 0.0037(9) 0.8917(7) 0.0281 Uani
O7 O 0.0534(11) 0.2154(10) 0.9374(8) 0.0353 Uani
H18 H 0.0241 0.2061 0.8833 0.0420 Uiso
C26 C 0.0101(15) 0.0075(14) 0.3586(11) 0.0308 Uani
H23 H 0.0937 0.0325 0.3398 0.0370 Uiso
O21 O 0.3452(10) 0.1459(10) 0.8501(8) 0.0329 Uani
C1 C 0.2900(15) 0.7087(13) 0.1585(11) 0.0300 Uani
C2 C 0.099(2) 0.6010(18) 0.4172(16) 0.0552 Uani
H1 H 0.0128 0.6250 0.4432 0.0660 Uiso
C3 C 0.1210(15) 0.6695(14) 0.3121(12) 0.0325 Uani
H2 H 0.0519 0.7369 0.2678 0.0390 Uiso
C4 C 0.2510(15) 0.6350(13) 0.2730(11) 0.0277 Uani
C5 C 0.3495(15) 0.5341(14) 0.3425(12) 0.0309 Uani
H3 H 0.4376 0.5099 0.3191 0.0370 Uiso
C6 C 0.3146(15) 0.4699(14) 0.4476(12) 0.0328 Uani
C7 C 0.4197(14) 0.3579(14) 0.5267(11) 0.0273 Uani
C8 C 0.3878(15) 0.2993(13) 0.6336(11) 0.0270 Uani
H4 H 0.3012 0.3253 0.6582 0.0320 Uiso
C9 C 0.4885(14) 0.2011(13) 0.7022(11) 0.0260 Uani
C10 C 0.6141(16) 0.1648(15) 0.6618(13) 0.0361 Uani
H5 H 0.6837 0.0988 0.7068 0.0440 Uiso
C11 C 0.6359(18) 0.2280(17) 0.5527(14) 0.0467 Uani
H6 H 0.7216 0.2040 0.5258 0.0560 Uiso
C12 C 0.4660(14) 0.1326(12) 0.8197(10) 0.0224 Uani
N1 N 0.1904(15) 0.5030(15) 0.4858(12) 0.0496 Uani
N2 N 0.5373(14) 0.3228(13) 0.4845(10) 0.0422 Uani
O1 O 0.3963(12) 0.6638(11) 0.1235(9) 0.0459 Uani
O2 O 0.2028(10) 0.8158(9) 0.1073(8) 0.0288 Uani
O3 O 0.5692(10) 0.0585(10) 0.8788(8) 0.0357 Uani
O20 O 0.4308(10) 0.9415(10) 0.1212(8) 0.0357 Uani
Dy8 Dy 0.76331(6) 0.97386(5) 0.99574(4) 0.0130 Uani
C28 C 0.7100(15) 0.2913(13) 0.8415(11) 0.0300 Uani
C29 C 0.901(2) 0.3990(18) 0.5828(16) 0.0552 Uani
H24 H 0.9872 0.3750 0.5568 0.0660 Uiso
C30 C 0.8790(15) 0.3305(14) 0.6879(12) 0.0325 Uani
H25 H 0.9481 0.2631 0.7322 0.0390 Uiso
C31 C 0.7490(15) 0.3650(13) 0.7270(11) 0.0277 Uani
C32 C 0.6505(15) 0.4659(14) 0.6575(12) 0.0309 Uani
H26 H 0.5624 0.4901 0.6809 0.0370 Uiso
C33 C 0.6854(15) 0.5301(14) 0.5524(12) 0.0328 Uani
C34 C 0.5803(14) 0.6421(14) 0.4733(11) 0.0273 Uani
C35 C 0.6122(15) 0.7007(13) 0.3664(11) 0.0270 Uani
H27 H 0.6988 0.6747 0.3418 0.0320 Uiso
C36 C 0.5115(14) 0.7989(13) 0.2978(11) 0.0260 Uani
C37 C 0.3859(16) 0.8352(15) 0.3382(13) 0.0361 Uani
H28 H 0.3163 0.9012 0.2932 0.0440 Uiso
C38 C 0.3641(18) 0.7720(17) 0.4473(14) 0.0467 Uani
H29 H 0.2784 0.7960 0.4742 0.0560 Uiso
C39 C 0.5340(14) 0.8674(12) 0.1803(10) 0.0224 Uani
N6 N 0.8096(15) 0.4970(15) 0.5142(12) 0.0496 Uani
N7 N 0.4627(14) 0.6772(13) 0.5155(10) 0.0422 Uani
O12 O 0.6037(12) 0.3362(11) 0.8765(9) 0.0459 Uani
O13 O 0.7972(10) 0.1842(9) 0.8927(8) 0.0288 Uani
O15 O 0.6548(10) 0.8541(10) 0.1499(8) 0.0329 Uani
C17 C 0.9899(15) 0.9925(14) 0.6414(11) 0.0308 Uani
H9 H 0.9063 0.9675 0.6602 0.0370 Uiso
O5 O 0.8960(10) 0.9730(10) 0.8444(8) 0.0284 Uani
C23 C 0.771(2) 0.933(2) 0.4223(16) 0.0600 Uani
H21 H 0.6878 0.9081 0.4435 0.0720 Uiso
C24 C 0.8097(18) 0.9497(18) 0.3184(14) 0.0447 Uani
H22 H 0.7555 0.9347 0.2723 0.0540 Uiso
C25 C 0.9336(15) 0.9894(14) 0.2848(11) 0.0288 Uani
C27 C 0.9608(15) 0.9880(15) 0.4600(11) 0.0303 Uani
N5 N 0.8401(16) 0.9505(16) 0.4939(12) 0.0508 Uani
O11 O 0.9095(10) 0.9963(9) 0.1083(7) 0.0281 Uani
O16 O 0.9466(11) 0.7846(10) 0.0626(8) 0.0353 Uani
H38 H 0.9759 0.7939 0.1167 0.0420 Uiso
C40 C 0.727(2) 0.7917(19) 0.8634(17) 0.0538 Uani
H30 H 0.7728 0.8471 0.8109 0.0650 Uiso
C41 C 0.627(4) 0.612(3) 0.919(3) 0.1164 Uani
H31 H 0.5338 0.6238 0.8941 0.1750 Uiso
H32 H 0.6796 0.5278 0.9280 0.1750 Uiso
H33 H 0.6263 0.6217 0.9863 0.1750 Uiso
C42 C 0.710(4) 0.703(4) 0.732(3) 0.1360 Uani
H34 H 0.7616 0.6194 0.7383 0.2010 Uiso
H35 H 0.6199 0.7202 0.6975 0.2010 Uiso
H36 H 0.7588 0.7658 0.6884 0.2010 Uiso
N8 N 0.692(2) 0.7061(18) 0.8394(16) 0.0673 Uani
O18 O 0.7071(11) 0.8081(10) 0.9479(9) 0.0358 Uani
C13 C 0.0146(14) 0.9942(13) 0.8266(10) 0.0217 Uani
O8 O 0.3925(11) 0.8763(10) 0.9389(8) 0.0335 Uani
H19 H 0.4795 0.8451 0.9408 0.0400 Uiso
H20 H 0.3529 0.8143 0.9673 0.0400 Uiso
H37 H 0.0167 0.7686 0.0268 0.0420 Uiso
H17 H 0.9833 0.2314 0.9732 0.0420 Uiso
C22 C 0.9854(14) 0.0058(13) 0.1734(10) 0.0217 Uani
O17 O 0.6075(11) 0.1237(10) 0.0611(8) 0.0335 Uani
H39 H 0.5205 0.1549 0.0592 0.0400 Uiso
H40 H 0.6471 0.1857 0.0327 0.0400 Uiso
loop_
_atom_site_aniso_label
_atom_site_aniso_U_11
_atom_site_aniso_U_22
_atom_site_aniso_U_33
_atom_site_aniso_U_23
_atom_site_aniso_U_13
_atom_site_aniso_U_12
Dy1 0.0133 0.0172 0.0067 -0.0015 0.0006 -0.0059
C19 0.061 0.054 0.054 -0.026 0.009 -0.02
C20 0.15 0.102 0.124 -0.062 0.003 -0.047
C21 0.17 0.15 0.124 -0.084 0.006 -0.05
N4 0.08 0.068 0.073 -0.04 0.005 -0.031
O9 0.034 0.042 0.042 -0.026 0.003 -0.012
O24 0.029 0.039 0.022 -0.014 0.01 -0.015
C14 0.06 0.079 0.051 -0.027 0.007 -0.033
C15 0.04 0.064 0.038 -0.024 0.009 -0.021
C16 0.031 0.035 0.019 -0.009 0.001 -0.008
C18 0.03 0.042 0.023 -0.015 0.006 -0.013
N3 0.048 0.079 0.033 -0.022 0.011 -0.031
O6 0.029 0.037 0.022 -0.014 -0.004 -0.009
O7 0.037 0.042 0.027 -0.018 0 -0.001
C26 0.031 0.04 0.024 -0.015 0.008 -0.01
O21 0.033 0.032 0.026 0 0.012 -0.016
C1 0.032 0.026 0.024 0 -0.001 -0.009
C2 0.044 0.052 0.05 -0.005 0.011 -0.003
C3 0.027 0.036 0.023 0 0.003 -0.007
C4 0.03 0.025 0.025 -0.005 0.001 -0.009
C5 0.029 0.03 0.028 -0.006 0.002 -0.006
C6 0.029 0.032 0.031 -0.004 0.002 -0.01
C7 0.027 0.031 0.019 -0.006 0.004 -0.005
C8 0.027 0.032 0.02 -0.008 0.005 -0.008
C9 0.03 0.027 0.019 -0.006 0 -0.008
C10 0.033 0.034 0.032 -0.005 -0.005 -0.003
C11 0.037 0.054 0.034 -0.008 0.007 0
C12 0.029 0.019 0.019 -0.006 0.006 -0.009
N1 0.041 0.052 0.035 0 0.009 -0.004
N2 0.04 0.043 0.026 -0.001 0.006 0
O1 0.051 0.035 0.031 -0.001 0.014 0.005
O2 0.029 0.028 0.023 -0.003 0 -0.007
O3 0.031 0.041 0.025 0.001 -0.01 -0.012
O20 0.031 0.041 0.025 0.001 -0.01 -0.012
Dy8 0.0133 0.0172 0.0067 -0.0015 0.0006 -0.0059
C28 0.032 0.026 0.024 0 -0.001 -0.009
C29 0.044 0.052 0.05 -0.005 0.011 -0.003
C30 0.027 0.036 0.023 0 0.003 -0.007
C31 0.03 0.025 0.025 -0.005 0.001 -0.009
C32 0.029 0.03 0.028 -0.006 0.002 -0.006
C33 0.029 0.032 0.031 -0.004 0.002 -0.01
C34 0.027 0.031 0.019 -0.006 0.004 -0.005
C35 0.027 0.032 0.02 -0.008 0.005 -0.008
C36 0.03 0.027 0.019 -0.006 0 -0.008
C37 0.033 0.034 0.032 -0.005 -0.005 -0.003
C38 0.037 0.054 0.034 -0.008 0.007 0
C39 0.029 0.019 0.019 -0.006 0.006 -0.009
N6 0.041 0.052 0.035 0 0.009 -0.004
N7 0.04 0.043 0.026 -0.001 0.006 0
O12 0.051 0.035 0.031 -0.001 0.014 0.005
O13 0.029 0.028 0.023 -0.003 0 -0.007
O15 0.033 0.032 0.026 0 0.012 -0.016
C17 0.031 0.04 0.024 -0.015 0.008 -0.01
O5 0.029 0.039 0.022 -0.014 0.01 -0.015
C23 0.06 0.079 0.051 -0.027 0.007 -0.033
C24 0.04 0.064 0.038 -0.024 0.009 -0.021
C25 0.031 0.035 0.019 -0.009 0.001 -0.008
C27 0.03 0.042 0.023 -0.015 0.006 -0.013
N5 0.048 0.079 0.033 -0.022 0.011 -0.031
O11 0.029 0.037 0.022 -0.014 -0.004 -0.009
O16 0.037 0.042 0.027 -0.018 0 -0.001
C40 0.061 0.054 0.054 -0.026 0.009 -0.02
C41 0.15 0.102 0.124 -0.062 0.003 -0.047
C42 0.17 0.15 0.124 -0.084 0.006 -0.05
N8 0.08 0.068 0.073 -0.04 0.005 -0.031
O18 0.034 0.042 0.042 -0.026 0.003 -0.012
C13 0.024 0.028 0.017 -0.013 0.006 -0.007
O8 0.033 0.031 0.035 -0.008 0.004 -0.014
C22 0.024 0.028 0.017 -0.013 0.006 -0.007
O17 0.033 0.031 0.035 -0.008 0.004 -0.014
loop_
_geom_bond_atom_site_label_1
_geom_bond_atom_site_label_2
_geom_bond_site_symmetry_1
_geom_bond_site_symmetry_2
C19 H10 1_555 1_555
C20 H11 1_555 1_555
H12 C20 1_555 1_555
H13 C20 1_555 1_555
C21 H14 1_555 1_555
H15 C21 1_555 1_555
H16 C21 1_555 1_555
N4 C19 1_555 1_555
O9 Dy1 1_555 1_555
O24 Dy1 1_555 1_555
C19 O9 1_555 1_555
C20 N4 1_555 1_555
C21 N4 1_555 1_555
C14 H7 1_555 1_555
C15 C14 1_555 1_555
H8 C15 1_555 1_555
C16 C15 1_555 1_555
N3 C14 1_555 1_555
H18 O7 1_555 1_555
H23 C26 1_555 1_555
C18 N3 1_555 1_555
C1 C4 1_555 1_555
C2 H1 1_555 1_555
C3 C2 1_555 1_555
H2 C3 1_555 1_555
C4 C3 1_555 1_555
C5 C4 1_555 1_555
H3 C5 1_555 1_555
C6 C5 1_555 1_555
C7 C6 1_555 1_555
C8 C7 1_555 1_555
H4 C8 1_555 1_555
C9 C8 1_555 1_555
C10 C9 1_555 1_555
H5 C10 1_555 1_555
C11 C10 1_555 1_555
H6 C11 1_555 1_555
C12 C9 1_555 1_555
N1 C2 1_555 1_555
N2 C7 1_555 1_555
O1 C1 1_555 1_555
O2 C1 1_555 1_555
O3 C12 1_555 1_555
O21 C12 1_555 1_555
C6 N1 1_555 1_555
C11 N2 1_555 1_555
C28 C31 1_555 1_555
C29 H24 1_555 1_555
C30 C29 1_555 1_555
H25 C30 1_555 1_555
C31 C30 1_555 1_555
C32 C31 1_555 1_555
H26 C32 1_555 1_555
C33 C32 1_555 1_555
C34 C33 1_555 1_555
C35 C34 1_555 1_555
H27 C35 1_555 1_555
C36 C35 1_555 1_555
C37 C36 1_555 1_555
H28 C37 1_555 1_555
C38 C37 1_555 1_555
H29 C38 1_555 1_555
C39 C36 1_555 1_555
N6 C29 1_555 1_555
N7 C34 1_555 1_555
O12 C28 1_555 1_555
O20 C39 1_555 1_555
O15 C39 1_555 1_555
C28 O13 1_555 1_555
C33 N6 1_555 1_555
C38 N7 1_555 1_555
H9 C17 1_555 1_555
C23 H21 1_555 1_555
C24 C23 1_555 1_555
H22 C24 1_555 1_555
C25 C24 1_555 1_555
N5 C23 1_555 1_555
H38 O16 1_555 1_555
Dy8 O5 1_555 1_555
C27 N5 1_555 1_555
C40 H30 1_555 1_555
C41 H31 1_555 1_555
H32 C41 1_555 1_555
H33 C41 1_555 1_555
C42 H34 1_555 1_555
H35 C42 1_555 1_555
H36 C42 1_555 1_555
N8 C40 1_555 1_555
O18 Dy8 1_555 1_555
C40 O18 1_555 1_555
C41 N8 1_555 1_555
C42 N8 1_555 1_555
H19 O8 1_555 1_555
H20 O8 1_555 1_555
H39 O17 1_555 1_555
H40 O17 1_555 1_555

#END
