
###############################################################################
#
# This file contains modified crystal structure data generated from the
# MOF subset of the Cambridge Structural Database (CSD) v543 
# hosted by the Cambridge Crystallographic Data Centre (CCDC).
#
# This work is licensed under the Creative Commons
# Attribution-NonCommercial-ShareAlike 4.0 International License.
# To view a copy of this license, visit
# http://creativecommons.org/licenses/by-nc-sa/4.0/
# or send a letter to
# Creative Commons, PO Box 1866, Mountain View, CA 94042, USA.
#
# CIF created using the CSD Python API on 29 September 2022
# The structure has been converted into the P1 space group
# The structure has a 3D framework
# The original CSD entry ZEZQEC is in the triclinic crystal system
# The framework has been calculated to contain at least 10.0% void space
# The void calculation uses a probe of radius 1.32A, grid spacing 0.4
#
###############################################################################

data_ZEZQEC
_chemical_formula_moiety         '(C42 H40 Gd2 N8 O16)n'
_symmetry_cell_setting           triclinic
_symmetry_space_group_name_H-M   'P 1'
_symmetry_Int_Tables_number      1
_space_group_name_Hall           'P 1'
loop_
_symmetry_equiv_pos_site_id
_symmetry_equiv_pos_as_xyz
1 x,y,z
_cell_length_a                   9.9008(13)
_cell_length_b                   11.6556(16)
_cell_length_c                   13.4354(18)
_cell_angle_alpha                66.832(3)
_cell_angle_beta                 87.019(3)
_cell_angle_gamma                76.377(3)
_cell_volume                     1383.87
loop_
_atom_site_label
_atom_site_type_symbol
_atom_site_fract_x
_atom_site_fract_y
_atom_site_fract_z
_atom_site_U_iso_or_equiv
_atom_site_thermal_displace_type
Gd5 Gd 0.23628(5) 0.02631(5) 0.00484(4) 0.0215 Uani
C19 C 0.362(3) 0.395(2) 0.0824(18) 0.1143 Uani
H10 H 0.4549 0.3888 0.1044 0.1720 Uiso
H11 H 0.3039 0.4766 0.0763 0.1720 Uiso
H12 H 0.3622 0.3883 0.0135 0.1720 Uiso
C20 C 0.304(3) 0.286(3) 0.274(2) 0.1767 Uani
H13 H 0.2642 0.3701 0.2741 0.2610 Uiso
H14 H 0.3962 0.2557 0.3068 0.2610 Uiso
H15 H 0.2474 0.2285 0.3156 0.2610 Uiso
C21 C 0.2733(17) 0.2113(16) 0.1359(12) 0.0602 Uani
H16 H 0.2268 0.1563 0.1880 0.0720 Uiso
N4 N 0.3083(16) 0.2938(14) 0.1614(12) 0.0718 Uani
O9 O 0.2920(9) 0.1946(8) 0.0541(6) 0.0419 Uani
O24 O 0.1056(8) 0.0277(8) 0.1580(5) 0.0305 Uani
C1 C 0.2899(12) 0.7104(11) 0.1585(9) 0.0325 Uani
C2 C 0.0998(15) 0.6011(14) 0.4171(11) 0.0578 Uani
H1 H 0.0145 0.6274 0.4434 0.0690 Uiso
C3 C 0.1244(13) 0.6673(13) 0.3115(9) 0.0414 Uani
H2 H 0.0548 0.7334 0.2660 0.0500 Uiso
C4 C 0.2507(12) 0.6357(11) 0.2737(8) 0.0312 Uani
C5 C 0.3503(11) 0.5325(10) 0.3437(8) 0.0296 Uani
H3 H 0.4376 0.5066 0.3198 0.0350 Uiso
C6 C 0.3174(12) 0.4713(11) 0.4464(9) 0.0323 Uani
C7 C 0.4198(12) 0.3593(11) 0.5248(8) 0.0319 Uani
C8 C 0.3908(12) 0.2994(11) 0.6322(8) 0.0296 Uani
H4 H 0.3044 0.3259 0.6568 0.0350 Uiso
C9 C 0.4893(11) 0.2014(11) 0.7019(8) 0.0249 Uani
C10 C 0.6140(13) 0.1651(12) 0.6608(9) 0.0371 Uani
H5 H 0.6844 0.0995 0.7057 0.0440 Uiso
C11 C 0.6338(14) 0.2264(13) 0.5527(9) 0.0452 Uani
H6 H 0.7187 0.1998 0.5259 0.0540 Uiso
C12 C 0.4649(11) 0.1327(10) 0.8208(8) 0.0239 Uani
C13 C 0.2278(16) 0.0703(16) 0.5767(11) 0.0608 Uani
H7 H 0.3118 0.0936 0.5563 0.0730 Uiso
C14 C 0.1859(14) 0.0562(14) 0.6786(10) 0.0477 Uani
H8 H 0.2374 0.0745 0.7240 0.0570 Uiso
C15 C 0.0646(12) 0.0139(11) 0.7132(8) 0.0297 Uani
C17 C 0.0397(13) 0.0122(13) 0.5379(9) 0.0411 Uani
N1 N 0.5385(11) 0.3216(10) 0.4840(7) 0.0429 Uani
N2 N 0.1920(12) 0.5009(11) 0.4842(8) 0.0538 Uani
N3 N 0.1566(13) 0.0530(12) 0.5049(8) 0.0520 Uani
O1 O 0.3962(10) 0.6650(8) 0.1219(6) 0.0470 Uani
O2 O 0.2050(8) 0.8139(7) 0.1074(5) 0.0286 Uani
O3 O 0.5672(8) 0.0590(8) 0.8787(6) 0.0337 Uani
O4 O 0.3425(7) 0.1497(7) 0.8498(5) 0.0280 Uani
O5 O 0.0478(8) 0.2166(8) 0.9392(6) 0.0353 Uani
H18 H 0.0173 0.2044 0.8871 0.0530 Uiso
O8 O 0.0898(8) 0.0064(8) 0.8889(6) 0.0321 Uani
C25 C 0.0094(12) 0.0053(11) 0.3584(8) 0.0301 Uani
H23 H 0.0928 0.0301 0.3389 0.0360 Uiso
O22 O 0.4328(8) 0.9410(8) 0.1213(6) 0.0337 Uani
C18 C 0.0116(11) 0.9967(10) 0.8226(8) 0.0234 Uani
O6 O 0.3956(8) 0.8744(7) 0.9393(5) 0.0310 Uani
H19 H 0.4622 0.8434 0.9877 0.0470 Uiso
H20 H 0.3498 0.8148 0.9560 0.0470 Uiso
H37 H 0.0217 0.7491 0.0339 0.0530 Uiso
Gd8 Gd 0.76372(5) 0.97369(5) 0.99516(4) 0.0215 Uani
H17 H 0.9783 0.2509 0.9661 0.0530 Uiso
C27 C 0.9884(11) 0.0033(10) 0.1774(8) 0.0234 Uani
O17 O 0.6044(8) 0.1256(7) 0.0607(5) 0.0310 Uani
H39 H 0.5378 0.1566 0.0123 0.0470 Uiso
H40 H 0.6502 0.1852 0.0440 0.0470 Uiso
O20 O 0.7950(8) 0.1861(7) 0.8926(5) 0.0286 Uani
C16 C 0.9906(12) 0.9947(11) 0.6416(8) 0.0301 Uani
H9 H 0.9072 0.9699 0.6611 0.0360 Uiso
O7 O 0.8944(8) 0.9723(8) 0.8420(5) 0.0305 Uani
C22 C 0.7722(16) 0.9297(16) 0.4233(11) 0.0608 Uani
H21 H 0.6882 0.9064 0.4437 0.0730 Uiso
C23 C 0.8141(14) 0.9438(14) 0.3214(10) 0.0477 Uani
H22 H 0.7626 0.9255 0.2760 0.0570 Uiso
C24 C 0.9354(12) 0.9861(11) 0.2868(8) 0.0297 Uani
C26 C 0.9603(13) 0.9878(13) 0.4621(9) 0.0411 Uani
N5 N 0.8434(13) 0.9470(12) 0.4951(8) 0.0520 Uani
O11 O 0.9102(8) 0.9936(8) 0.1111(6) 0.0321 Uani
C28 C 0.7101(12) 0.2896(11) 0.8415(9) 0.0325 Uani
C29 C 0.9002(15) 0.3989(14) 0.5829(11) 0.0578 Uani
H24 H 0.9855 0.3726 0.5566 0.0690 Uiso
C30 C 0.8756(13) 0.3327(13) 0.6885(9) 0.0414 Uani
H25 H 0.9452 0.2666 0.7340 0.0500 Uiso
C31 C 0.7493(12) 0.3643(11) 0.7263(8) 0.0312 Uani
C32 C 0.6497(11) 0.4675(10) 0.6563(8) 0.0296 Uani
H26 H 0.5624 0.4934 0.6802 0.0350 Uiso
C33 C 0.6826(12) 0.5287(11) 0.5536(9) 0.0323 Uani
C34 C 0.5802(12) 0.6407(11) 0.4752(8) 0.0319 Uani
C35 C 0.6092(12) 0.7006(11) 0.3678(8) 0.0296 Uani
H27 H 0.6956 0.6741 0.3432 0.0350 Uiso
C36 C 0.5107(11) 0.7986(11) 0.2981(8) 0.0249 Uani
C37 C 0.3860(13) 0.8349(12) 0.3392(9) 0.0371 Uani
H28 H 0.3156 0.9005 0.2943 0.0440 Uiso
C38 C 0.3662(14) 0.7736(13) 0.4473(9) 0.0452 Uani
H29 H 0.2813 0.8002 0.4741 0.0540 Uiso
C39 C 0.5351(11) 0.8673(10) 0.1792(8) 0.0239 Uani
N6 N 0.4615(11) 0.6784(10) 0.5160(7) 0.0429 Uani
N7 N 0.8080(12) 0.4991(11) 0.5158(8) 0.0538 Uani
O12 O 0.6038(10) 0.3350(8) 0.8781(6) 0.0470 Uani
O15 O 0.6575(7) 0.8503(7) 0.1502(5) 0.0280 Uani
O16 O 0.9522(8) 0.7834(8) 0.0608(6) 0.0353 Uani
H38 H 0.9827 0.7956 0.1129 0.0530 Uiso
C40 C 0.638(3) 0.605(2) 0.9176(18) 0.1143 Uani
H30 H 0.5451 0.6112 0.8956 0.1720 Uiso
H31 H 0.6961 0.5234 0.9237 0.1720 Uiso
H32 H 0.6378 0.6117 0.9865 0.1720 Uiso
C41 C 0.696(3) 0.714(3) 0.726(2) 0.1767 Uani
H33 H 0.7358 0.6299 0.7259 0.2610 Uiso
H34 H 0.6038 0.7443 0.6932 0.2610 Uiso
H35 H 0.7526 0.7715 0.6844 0.2610 Uiso
C42 C 0.7267(17) 0.7887(16) 0.8641(12) 0.0602 Uani
H36 H 0.7732 0.8437 0.8120 0.0720 Uiso
N8 N 0.6917(16) 0.7062(14) 0.8386(12) 0.0718 Uani
O18 O 0.7080(9) 0.8054(8) 0.9459(6) 0.0419 Uani
loop_
_atom_site_aniso_label
_atom_site_aniso_U_11
_atom_site_aniso_U_22
_atom_site_aniso_U_33
_atom_site_aniso_U_23
_atom_site_aniso_U_13
_atom_site_aniso_U_12
Gd5 0.017 0.0284 0.0154 -0.0059 0.00026 -0.0029
C19 0.136 0.11 0.116 -0.051 0.008 -0.053
C20 0.21 0.2 0.171 -0.126 -0.001 -0.046
C21 0.068 0.072 0.063 -0.041 0.002 -0.032
N4 0.088 0.073 0.076 -0.046 0.022 -0.033
O9 0.037 0.047 0.042 -0.018 -0.001 -0.009
O24 0.028 0.05 0.02 -0.017 0.004 -0.016
C1 0.028 0.032 0.033 -0.005 -0.001 -0.012
C2 0.042 0.055 0.047 0.003 0.011 0
C3 0.026 0.047 0.035 0 0.005 -0.008
C4 0.034 0.027 0.028 -0.005 -0.003 -0.008
C5 0.019 0.029 0.031 -0.006 0.001 0.002
C6 0.023 0.029 0.03 0.002 -0.003 -0.002
C7 0.029 0.032 0.026 -0.003 0.001 -0.006
C8 0.026 0.031 0.03 -0.009 0.004 -0.009
C9 0.023 0.033 0.019 -0.009 -0.001 -0.009
C10 0.034 0.036 0.026 -0.003 0.001 0.004
C11 0.039 0.049 0.033 -0.011 0.013 0.005
C12 0.025 0.02 0.02 -0.001 -0.005 -0.004
C13 0.054 0.092 0.052 -0.036 0.016 -0.035
C14 0.047 0.068 0.037 -0.024 -0.002 -0.023
C15 0.028 0.035 0.026 -0.01 0.003 -0.011
C17 0.04 0.06 0.027 -0.019 0.005 -0.016
N1 0.035 0.046 0.026 -0.002 0.011 0.007
N2 0.038 0.056 0.036 0.008 0.002 0.001
N3 0.053 0.084 0.036 -0.033 0.008 -0.032
O1 0.046 0.039 0.037 -0.004 0.014 0.003
O2 0.024 0.03 0.025 -0.003 -0.001 -0.007
O3 0.021 0.045 0.027 -0.006 -0.005 -0.006
O4 0.015 0.035 0.026 -0.006 0.006 -0.003
O5 0.026 0.039 0.037 -0.016 -0.006 0.003
O8 0.025 0.05 0.026 -0.022 -0.003 -0.004
C25 0.022 0.046 0.023 -0.016 0.005 -0.006
O22 0.021 0.045 0.027 -0.006 -0.005 -0.006
C18 0.02 0.028 0.023 -0.013 0.006 -0.003
O6 0.032 0.037 0.026 -0.013 0.002 -0.011
Gd8 0.017 0.0284 0.0154 -0.0059 0.00026 -0.0029
C27 0.02 0.028 0.023 -0.013 0.006 -0.003
O17 0.032 0.037 0.026 -0.013 0.002 -0.011
O20 0.024 0.03 0.025 -0.003 -0.001 -0.007
C16 0.022 0.046 0.023 -0.016 0.005 -0.006
O7 0.028 0.05 0.02 -0.017 0.004 -0.016
C22 0.054 0.092 0.052 -0.036 0.016 -0.035
C23 0.047 0.068 0.037 -0.024 -0.002 -0.023
C24 0.028 0.035 0.026 -0.01 0.003 -0.011
C26 0.04 0.06 0.027 -0.019 0.005 -0.016
N5 0.053 0.084 0.036 -0.033 0.008 -0.032
O11 0.025 0.05 0.026 -0.022 -0.003 -0.004
C28 0.028 0.032 0.033 -0.005 -0.001 -0.012
C29 0.042 0.055 0.047 0.003 0.011 0
C30 0.026 0.047 0.035 0 0.005 -0.008
C31 0.034 0.027 0.028 -0.005 -0.003 -0.008
C32 0.019 0.029 0.031 -0.006 0.001 0.002
C33 0.023 0.029 0.03 0.002 -0.003 -0.002
C34 0.029 0.032 0.026 -0.003 0.001 -0.006
C35 0.026 0.031 0.03 -0.009 0.004 -0.009
C36 0.023 0.033 0.019 -0.009 -0.001 -0.009
C37 0.034 0.036 0.026 -0.003 0.001 0.004
C38 0.039 0.049 0.033 -0.011 0.013 0.005
C39 0.025 0.02 0.02 -0.001 -0.005 -0.004
N6 0.035 0.046 0.026 -0.002 0.011 0.007
N7 0.038 0.056 0.036 0.008 0.002 0.001
O12 0.046 0.039 0.037 -0.004 0.014 0.003
O15 0.015 0.035 0.026 -0.006 0.006 -0.003
O16 0.026 0.039 0.037 -0.016 -0.006 0.003
C40 0.136 0.11 0.116 -0.051 0.008 -0.053
C41 0.21 0.2 0.171 -0.126 -0.001 -0.046
C42 0.068 0.072 0.063 -0.041 0.002 -0.032
N8 0.088 0.073 0.076 -0.046 0.022 -0.033
O18 0.037 0.047 0.042 -0.018 -0.001 -0.009
loop_
_geom_bond_atom_site_label_1
_geom_bond_atom_site_label_2
_geom_bond_site_symmetry_1
_geom_bond_site_symmetry_2
C19 H10 1_555 1_555
H11 C19 1_555 1_555
H12 C19 1_555 1_555
C20 H13 1_555 1_555
H14 C20 1_555 1_555
H15 C20 1_555 1_555
C21 H16 1_555 1_555
N4 C19 1_555 1_555
O9 Gd5 1_555 1_555
O24 Gd5 1_555 1_555
C20 N4 1_555 1_555
C21 N4 1_555 1_555
C21 O9 1_555 1_555
C1 C4 1_555 1_555
C2 H1 1_555 1_555
C3 C2 1_555 1_555
H2 C3 1_555 1_555
C4 C3 1_555 1_555
C5 C4 1_555 1_555
H3 C5 1_555 1_555
C6 C5 1_555 1_555
C7 C6 1_555 1_555
C8 C7 1_555 1_555
H4 C8 1_555 1_555
C9 C8 1_555 1_555
C10 C9 1_555 1_555
H5 C10 1_555 1_555
C11 C10 1_555 1_555
H6 C11 1_555 1_555
C12 C9 1_555 1_555
C13 H7 1_555 1_555
C14 C13 1_555 1_555
H8 C14 1_555 1_555
C15 C14 1_555 1_555
N1 C7 1_555 1_555
N2 C2 1_555 1_555
N3 C13 1_555 1_555
O1 C1 1_555 1_555
O2 C1 1_555 1_555
O3 C12 1_555 1_555
O4 C12 1_555 1_555
H18 O5 1_555 1_555
H23 C25 1_555 1_555
C6 N2 1_555 1_555
C11 N1 1_555 1_555
C17 N3 1_555 1_555
H19 O6 1_555 1_555
H20 O6 1_555 1_555
H39 O17 1_555 1_555
H40 O17 1_555 1_555
H9 C16 1_555 1_555
C22 H21 1_555 1_555
C23 C22 1_555 1_555
H22 C23 1_555 1_555
C24 C23 1_555 1_555
N5 C22 1_555 1_555
C28 C31 1_555 1_555
C29 H24 1_555 1_555
C30 C29 1_555 1_555
H25 C30 1_555 1_555
C31 C30 1_555 1_555
C32 C31 1_555 1_555
H26 C32 1_555 1_555
C33 C32 1_555 1_555
C34 C33 1_555 1_555
C35 C34 1_555 1_555
H27 C35 1_555 1_555
C36 C35 1_555 1_555
C37 C36 1_555 1_555
H28 C37 1_555 1_555
C38 C37 1_555 1_555
H29 C38 1_555 1_555
C39 C36 1_555 1_555
N6 C34 1_555 1_555
N7 C29 1_555 1_555
O12 C28 1_555 1_555
O20 C28 1_555 1_555
O22 C39 1_555 1_555
H38 O16 1_555 1_555
Gd8 O7 1_555 1_555
C26 N5 1_555 1_555
C33 N7 1_555 1_555
C38 N6 1_555 1_555
C39 O15 1_555 1_555
C40 H30 1_555 1_555
H31 C40 1_555 1_555
H32 C40 1_555 1_555
C41 H33 1_555 1_555
H34 C41 1_555 1_555
H35 C41 1_555 1_555
C42 H36 1_555 1_555
N8 C40 1_555 1_555
O18 Gd8 1_555 1_555
C41 N8 1_555 1_555
C42 N8 1_555 1_555
C42 O18 1_555 1_555

#END
