
###############################################################################
#
# This file contains modified crystal structure data generated from the
# MOF subset of the Cambridge Structural Database (CSD) v543 
# hosted by the Cambridge Crystallographic Data Centre (CCDC).
#
# This work is licensed under the Creative Commons
# Attribution-NonCommercial-ShareAlike 4.0 International License.
# To view a copy of this license, visit
# http://creativecommons.org/licenses/by-nc-sa/4.0/
# or send a letter to
# Creative Commons, PO Box 1866, Mountain View, CA 94042, USA.
#
# CIF created using the CSD Python API on 29 September 2022
# The structure has been converted into the P1 space group
# The structure has a 3D framework
# The original CSD entry ZEZQAY is in the triclinic crystal system
# The framework has been calculated to contain at least 10.0% void space
# The void calculation uses a probe of radius 1.32A, grid spacing 0.4
#
###############################################################################

data_ZEZQAY
_chemical_formula_moiety         '(C42 H40 N8 O16 Tb2)n'
_symmetry_cell_setting           triclinic
_symmetry_space_group_name_H-M   'P 1'
_symmetry_Int_Tables_number      1
_space_group_name_Hall           'P 1'
loop_
_symmetry_equiv_pos_site_id
_symmetry_equiv_pos_as_xyz
1 x,y,z
_cell_length_a                   9.964(19)
_cell_length_b                   11.57(3)
_cell_length_c                   13.32(2)
_cell_angle_alpha                67.70(8)
_cell_angle_beta                 87.18(4)
_cell_angle_gamma                76.68(7)
_cell_volume                     1381.26
loop_
_atom_site_label
_atom_site_type_symbol
_atom_site_fract_x
_atom_site_fract_y
_atom_site_fract_z
_atom_site_U_iso_or_equiv
_atom_site_thermal_displace_type
Tb1 Tb 0.23663(3) 0.52593(3) 0.00502(2) 0.0156 Uani
C6 C 0.6857(8) 0.0315(7) 0.5531(5) 0.0277 Uani
C7 C 0.5839(8) 0.1402(7) 0.4758(6) 0.0275 Uani
C8 C 0.6105(7) 0.2002(7) 0.3669(5) 0.0245 Uani
H4 H 0.6953 0.1737 0.3406 0.0290 Uiso
C9 C 0.5115(7) 0.2985(7) 0.2985(5) 0.0235 Uani
C10 C 0.3851(8) 0.3359(8) 0.3391(6) 0.0355 Uani
H5 H 0.3149 0.4004 0.2944 0.0430 Uiso
C11 C 0.3672(9) 0.2739(8) 0.4483(6) 0.0435 Uani
H6 H 0.2844 0.3010 0.4770 0.0520 Uiso
C12 C 0.5343(7) 0.3683(6) 0.1799(5) 0.0190 Uani
C13 C 0.2753(10) 0.7060(10) 0.1358(8) 0.0525 Uani
H7 H 0.2350 0.6469 0.1893 0.0630 Uiso
C14 C 0.309(2) 0.7834(19) 0.2754(15) 0.1710 Uani
H8 H 0.2164 0.8034 0.2969 0.2570 Uiso
H9 H 0.3591 0.8418 0.2829 0.2570 Uiso
H10 H 0.3538 0.6971 0.3206 0.2570 Uiso
C15 C 0.3652(18) 0.8906(12) 0.0809(12) 0.1068 Uani
H11 H 0.4599 0.8793 0.1013 0.1610 Uiso
H12 H 0.3142 0.9741 0.0755 0.1610 Uiso
H13 H 0.3605 0.8830 0.0119 0.1610 Uiso
N2 N 0.4631(7) 0.1764(7) 0.5157(5) 0.0381 Uani
N3 N 0.3081(10) 0.7957(9) 0.1601(8) 0.0660 Uani
O3 O 0.6560(5) 0.3523(5) 0.1495(4) 0.0246 Uani
O4 O 0.4307(5) 0.4419(5) 0.1211(3) 0.0256 Uani
O7 O 0.2922(5) 0.6938(5) 0.0527(4) 0.0312 Uani
O20 O 0.2042(5) 0.3146(5) 0.1066(4) 0.0264 Uani
O24 O 0.1048(5) 0.5257(5) 0.1570(3) 0.0233 Uani
C16 C 0.0136(7) 0.4969(6) 0.8242(5) 0.0174 Uani
C17 C 0.0392(8) 0.5101(8) 0.5407(5) 0.0320 Uani
C19 C 0.0655(8) 0.5141(7) 0.7139(5) 0.0255 Uani
C20 C 0.1855(9) 0.5542(9) 0.6808(6) 0.0437 Uani
H15 H 0.2379 0.5707 0.7275 0.0530 Uiso
C21 C 0.2273(10) 0.5696(11) 0.5761(7) 0.0590 Uani
H16 H 0.3100 0.5944 0.5552 0.0710 Uiso
N4 N 0.1567(8) 0.5514(8) 0.5055(5) 0.0492 Uani
O6 O 0.0901(5) 0.5055(5) 0.8904(4) 0.0256 Uani
O8 O 0.0517(5) 0.7164(5) 0.9384(4) 0.0309 Uani
H18 H 0.0055 0.7265 0.9911 0.0470 Uiso
O9 O 0.3933(5) 0.3749(5) 0.9397(4) 0.0282 Uani
H19 H 0.4638 0.4016 0.9407 0.0420 Uiso
H20 H 0.3903 0.3088 0.9952 0.0420 Uiso
C24 C 0.0083(7) 0.5063(7) 0.3587(5) 0.0254 Uani
H21 H 0.0911 0.5314 0.3393 0.0310 Uiso
H37 H 0.0040 0.2931 0.1031 0.0470 Uiso
Tb8 Tb 0.76337(3) 0.47407(3) 0.99498(2) 0.0156 Uani
O22 O 0.3440(5) 0.6477(5) 0.8505(4) 0.0246 Uani
C1 C 0.7119(8) 0.7904(7) 0.8411(6) 0.0256 Uani
C2 C 0.9018(9) 0.8996(9) 0.5827(7) 0.0520 Uani
H1 H 0.9878 0.8756 0.5568 0.0620 Uiso
C3 C 0.8760(8) 0.8315(8) 0.6891(6) 0.0368 Uani
H2 H 0.9439 0.7646 0.7343 0.0450 Uiso
C4 C 0.7477(8) 0.8648(7) 0.7268(5) 0.0247 Uani
C5 C 0.6504(8) 0.9668(7) 0.6566(5) 0.0256 Uani
H3 H 0.5625 0.9908 0.6797 0.0310 Uiso
N1 N 0.8088(7) 0.9984(7) 0.5150(5) 0.0446 Uani
O1 O 0.7958(5) 0.6854(5) 0.8934(4) 0.0264 Uani
O2 O 0.6035(6) 0.8357(5) 0.8767(4) 0.0418 Uani
C28 C 0.2881(8) 0.2096(7) 0.1589(6) 0.0256 Uani
C29 C 0.0982(9) 0.1004(9) 0.4173(7) 0.0520 Uani
H24 H 0.0122 0.1244 0.4432 0.0620 Uiso
C30 C 0.1240(8) 0.1685(8) 0.3109(6) 0.0368 Uani
H25 H 0.0561 0.2354 0.2657 0.0450 Uiso
C31 C 0.2523(8) 0.1352(7) 0.2732(5) 0.0247 Uani
C32 C 0.3496(8) 0.0332(7) 0.3434(5) 0.0256 Uani
H26 H 0.4375 0.0092 0.3203 0.0310 Uiso
N6 N 0.1912(7) 0.0016(7) 0.4850(5) 0.0446 Uani
O13 O 0.3965(6) 0.1643(5) 0.1233(4) 0.0418 Uani
C18 C 0.9917(7) 0.4937(7) 0.6413(5) 0.0254 Uani
H14 H 0.9089 0.4686 0.6607 0.0310 Uiso
O5 O 0.8952(5) 0.4743(5) 0.8430(3) 0.0233 Uani
H17 H 0.9960 0.7069 0.8969 0.0470 Uiso
C22 C 0.9864(7) 0.5031(6) 0.1758(5) 0.0174 Uani
C23 C 0.9608(8) 0.4899(8) 0.4593(5) 0.0320 Uani
C25 C 0.9345(8) 0.4859(7) 0.2861(5) 0.0255 Uani
C26 C 0.8145(9) 0.4458(9) 0.3192(6) 0.0437 Uani
H22 H 0.7621 0.4293 0.2725 0.0530 Uiso
C27 C 0.7727(10) 0.4304(11) 0.4239(7) 0.0590 Uani
H23 H 0.6900 0.4056 0.4448 0.0710 Uiso
N5 N 0.8433(8) 0.4486(8) 0.4945(5) 0.0492 Uani
O11 O 0.9099(5) 0.4945(5) 0.1096(4) 0.0256 Uani
O17 O 0.9483(5) 0.2836(5) 0.0616(4) 0.0309 Uani
H38 H 0.9945 0.2735 0.0089 0.0470 Uiso
O18 O 0.6067(5) 0.6251(5) 0.0603(4) 0.0282 Uani
H39 H 0.5362 0.5984 0.0593 0.0420 Uiso
H40 H 0.6097 0.6912 0.0048 0.0420 Uiso
C33 C 0.3143(8) 0.9685(7) 0.4469(5) 0.0277 Uani
C34 C 0.4161(8) 0.8598(7) 0.5242(6) 0.0275 Uani
C35 C 0.3895(7) 0.7998(7) 0.6331(5) 0.0245 Uani
H27 H 0.3047 0.8263 0.6594 0.0290 Uiso
C36 C 0.4885(7) 0.7015(7) 0.7015(5) 0.0235 Uani
C37 C 0.6149(8) 0.6641(8) 0.6609(6) 0.0355 Uani
H28 H 0.6851 0.5996 0.7056 0.0430 Uiso
C38 C 0.6328(9) 0.7261(8) 0.5517(6) 0.0435 Uani
H29 H 0.7156 0.6990 0.5230 0.0520 Uiso
C39 C 0.4657(7) 0.6317(6) 0.8201(5) 0.0190 Uani
C40 C 0.7247(10) 0.2940(10) 0.8642(8) 0.0525 Uani
H30 H 0.7650 0.3531 0.8107 0.0630 Uiso
C41 C 0.691(2) 0.2166(19) 0.7246(15) 0.1710 Uani
H31 H 0.7836 0.1966 0.7031 0.2570 Uiso
H32 H 0.6409 0.1582 0.7171 0.2570 Uiso
H33 H 0.6462 0.3029 0.6794 0.2570 Uiso
C42 C 0.6348(18) 0.1094(12) 0.9191(12) 0.1068 Uani
H34 H 0.5401 0.1207 0.8987 0.1610 Uiso
H35 H 0.6858 0.0259 0.9245 0.1610 Uiso
H36 H 0.6395 0.1170 0.9881 0.1610 Uiso
N7 N 0.5369(7) 0.8236(7) 0.4843(5) 0.0381 Uani
N8 N 0.6919(10) 0.2043(9) 0.8399(8) 0.0660 Uani
O15 O 0.5693(5) 0.5581(5) 0.8789(3) 0.0256 Uani
O16 O 0.7078(5) 0.3062(5) 0.9473(4) 0.0312 Uani
loop_
_atom_site_aniso_label
_atom_site_aniso_U_11
_atom_site_aniso_U_22
_atom_site_aniso_U_33
_atom_site_aniso_U_23
_atom_site_aniso_U_13
_atom_site_aniso_U_12
Tb1 0.01712 0.01941 0.00989 -0.00503 -0.00242 -0.00387
C6 0.03 0.025 0.02 0 -0.003 -0.005
C7 0.025 0.03 0.023 -0.006 -0.002 -0.004
C8 0.025 0.025 0.02 -0.004 0.002 -0.007
C9 0.025 0.024 0.017 -0.001 -0.002 -0.008
C10 0.034 0.034 0.023 0 0.001 0.003
C11 0.036 0.048 0.028 -0.003 0.004 0.005
C12 0.023 0.021 0.015 -0.008 0.003 -0.007
C13 0.059 0.062 0.057 -0.035 0.012 -0.033
C14 0.232 0.192 0.169 -0.142 0 -0.071
C15 0.16 0.067 0.125 -0.052 0.015 -0.061
N2 0.035 0.042 0.022 -0.002 0.005 0.002
N3 0.083 0.069 0.076 -0.051 0.02 -0.037
O3 0.025 0.027 0.017 -0.005 0.0026 -0.003
O4 0.024 0.035 0.011 -0.002 -0.0071 -0.004
O7 0.032 0.038 0.032 -0.023 0.002 -0.007
O20 0.023 0.02 0.027 -0.001 -0.005 0
O24 0.027 0.036 0.014 -0.013 0.0041 -0.015
C16 0.02 0.025 0.012 -0.013 0.002 -0.004
C17 0.034 0.053 0.019 -0.02 0.002 -0.018
C19 0.028 0.035 0.02 -0.017 -0.001 -0.008
C20 0.043 0.075 0.031 -0.029 0.007 -0.033
C21 0.054 0.102 0.046 -0.037 0.013 -0.052
N4 0.047 0.094 0.029 -0.033 0.011 -0.044
O6 0.03 0.032 0.019 -0.014 -0.003 -0.007
O8 0.031 0.028 0.029 -0.007 -0.009 -0.002
O9 0.032 0.03 0.026 -0.011 0.003 -0.013
C24 0.02 0.043 0.019 -0.016 0.002 -0.011
Tb8 0.01712 0.01941 0.00989 -0.00503 -0.00242 -0.00387
O22 0.025 0.027 0.017 -0.005 0.0026 -0.003
C1 0.028 0.021 0.023 -0.003 -0.007 -0.004
C2 0.03 0.059 0.04 0.004 0.005 0.001
C3 0.026 0.037 0.029 0.004 -0.003 0
C4 0.03 0.023 0.02 -0.007 -0.003 -0.005
C5 0.027 0.026 0.02 -0.005 -0.001 -0.005
N1 0.034 0.049 0.028 0.004 0.003 0.001
O1 0.023 0.02 0.027 -0.001 -0.005 0
O2 0.044 0.03 0.029 0.003 0.008 0.008
C28 0.028 0.021 0.023 -0.003 -0.007 -0.004
C29 0.03 0.059 0.04 0.004 0.005 0.001
C30 0.026 0.037 0.029 0.004 -0.003 0
C31 0.03 0.023 0.02 -0.007 -0.003 -0.005
C32 0.027 0.026 0.02 -0.005 -0.001 -0.005
N6 0.034 0.049 0.028 0.004 0.003 0.001
O13 0.044 0.03 0.029 0.003 0.008 0.008
C18 0.02 0.043 0.019 -0.016 0.002 -0.011
O5 0.027 0.036 0.014 -0.013 0.0041 -0.015
C22 0.02 0.025 0.012 -0.013 0.002 -0.004
C23 0.034 0.053 0.019 -0.02 0.002 -0.018
C25 0.028 0.035 0.02 -0.017 -0.001 -0.008
C26 0.043 0.075 0.031 -0.029 0.007 -0.033
C27 0.054 0.102 0.046 -0.037 0.013 -0.052
N5 0.047 0.094 0.029 -0.033 0.011 -0.044
O11 0.03 0.032 0.019 -0.014 -0.003 -0.007
O17 0.031 0.028 0.029 -0.007 -0.009 -0.002
O18 0.032 0.03 0.026 -0.011 0.003 -0.013
C33 0.03 0.025 0.02 0 -0.003 -0.005
C34 0.025 0.03 0.023 -0.006 -0.002 -0.004
C35 0.025 0.025 0.02 -0.004 0.002 -0.007
C36 0.025 0.024 0.017 -0.001 -0.002 -0.008
C37 0.034 0.034 0.023 0 0.001 0.003
C38 0.036 0.048 0.028 -0.003 0.004 0.005
C39 0.023 0.021 0.015 -0.008 0.003 -0.007
C40 0.059 0.062 0.057 -0.035 0.012 -0.033
C41 0.232 0.192 0.169 -0.142 0 -0.071
C42 0.16 0.067 0.125 -0.052 0.015 -0.061
N7 0.035 0.042 0.022 -0.002 0.005 0.002
N8 0.083 0.069 0.076 -0.051 0.02 -0.037
O15 0.024 0.035 0.011 -0.002 -0.0071 -0.004
O16 0.032 0.038 0.032 -0.023 0.002 -0.007
loop_
_geom_bond_atom_site_label_1
_geom_bond_atom_site_label_2
_geom_bond_site_symmetry_1
_geom_bond_site_symmetry_2
Tb1 O4 1_555 1_555
C7 C6 1_555 1_555
C8 C7 1_555 1_555
H4 C8 1_555 1_555
C9 C8 1_555 1_555
C10 C9 1_555 1_555
H5 C10 1_555 1_555
C11 C10 1_555 1_555
H6 C11 1_555 1_555
C12 C9 1_555 1_555
C13 H7 1_555 1_555
C14 H8 1_555 1_555
H9 C14 1_555 1_555
H10 C14 1_555 1_555
C15 H11 1_555 1_555
H12 C15 1_555 1_555
H13 C15 1_555 1_555
N2 C7 1_555 1_555
N3 C13 1_555 1_555
O3 C12 1_555 1_555
O4 C12 1_555 1_555
O7 Tb1 1_555 1_555
O20 Tb1 1_555 1_555
O24 Tb1 1_555 1_555
C11 N2 1_555 1_555
C13 O7 1_555 1_555
C14 N3 1_555 1_555
C15 N3 1_555 1_555
C16 C19 1_555 1_555
C20 C19 1_555 1_555
H15 C20 1_555 1_555
C21 C20 1_555 1_555
H16 C21 1_555 1_555
N4 C17 1_555 1_555
H18 O8 1_555 1_555
H19 O9 1_555 1_555
H20 O9 1_555 1_555
H21 C24 1_555 1_555
C16 O6 1_555 1_555
C21 N4 1_555 1_555
C1 C4 1_555 1_555
C2 H1 1_555 1_555
C3 C2 1_555 1_555
H2 C3 1_555 1_555
C4 C3 1_555 1_555
C5 C4 1_555 1_555
H3 C5 1_555 1_555
N1 C2 1_555 1_555
O1 C1 1_555 1_555
O2 C1 1_555 1_555
Tb8 O1 1_555 1_555
C28 C31 1_555 1_555
C29 H24 1_555 1_555
C30 C29 1_555 1_555
H25 C30 1_555 1_555
C31 C30 1_555 1_555
C32 C31 1_555 1_555
H26 C32 1_555 1_555
N6 C29 1_555 1_555
O20 C28 1_555 1_555
O13 C28 1_555 1_555
C18 H14 1_555 1_555
C22 C25 1_555 1_555
C26 C25 1_555 1_555
H22 C26 1_555 1_555
C27 C26 1_555 1_555
H23 C27 1_555 1_555
N5 C23 1_555 1_555
O11 C22 1_555 1_555
H38 O17 1_555 1_555
H39 O18 1_555 1_555
H40 O18 1_555 1_555
Tb8 O5 1_555 1_555
C27 N5 1_555 1_555
C34 C33 1_555 1_555
C35 C34 1_555 1_555
H27 C35 1_555 1_555
C36 C35 1_555 1_555
C37 C36 1_555 1_555
H28 C37 1_555 1_555
C38 C37 1_555 1_555
H29 C38 1_555 1_555
C39 C36 1_555 1_555
C40 H30 1_555 1_555
C41 H31 1_555 1_555
H32 C41 1_555 1_555
H33 C41 1_555 1_555
C42 H34 1_555 1_555
H35 C42 1_555 1_555
H36 C42 1_555 1_555
N7 C34 1_555 1_555
N8 C40 1_555 1_555
O22 C39 1_555 1_555
O15 Tb8 1_555 1_555
O16 Tb8 1_555 1_555
C38 N7 1_555 1_555
C39 O15 1_555 1_555
C40 O16 1_555 1_555
C41 N8 1_555 1_555
C42 N8 1_555 1_555

#END
