
###############################################################################
#
# This file contains modified crystal structure data generated from the
# MOF subset of the Cambridge Structural Database (CSD) v543 
# hosted by the Cambridge Crystallographic Data Centre (CCDC).
#
# This work is licensed under the Creative Commons
# Attribution-NonCommercial-ShareAlike 4.0 International License.
# To view a copy of this license, visit
# http://creativecommons.org/licenses/by-nc-sa/4.0/
# or send a letter to
# Creative Commons, PO Box 1866, Mountain View, CA 94042, USA.
#
# CIF created using the CSD Python API on 29 September 2022
# The structure has been converted into the P1 space group
# The structure has a 3D framework
# The original CSD entry ZEZQIG is in the triclinic crystal system
# The framework has been calculated to contain at least 10.0% void space
# The void calculation uses a probe of radius 1.32A, grid spacing 0.4
#
###############################################################################

data_ZEZQIG
_chemical_formula_moiety         '(C42 H40 Eu2 N8 O18)n'
_symmetry_cell_setting           triclinic
_symmetry_space_group_name_H-M   'P 1'
_symmetry_Int_Tables_number      1
_space_group_name_Hall           'P 1'
loop_
_symmetry_equiv_pos_site_id
_symmetry_equiv_pos_as_xyz
1 x,y,z
_cell_length_a                   9.9544(6)
_cell_length_b                   11.7155(7)
_cell_length_c                   13.5215(8)
_cell_angle_alpha                66.8970(10)
_cell_angle_beta                 87.033(2)
_cell_angle_gamma                76.402(2)
_cell_volume                     1408.32
loop_
_atom_site_label
_atom_site_type_symbol
_atom_site_fract_x
_atom_site_fract_y
_atom_site_fract_z
_atom_site_U_iso_or_equiv
_atom_site_thermal_displace_type
Eu7 Eu 0.73620(3) 0.02657(3) 0.00472(2) 0.0156 Uani
C13 C 0.4882(6) 0.0034(6) 0.1764(5) 0.0193 Uani
C17 C 0.5101(7) 0.0070(7) 0.3591(5) 0.0274 Uani
H9 H 0.5919 0.0336 0.3391 0.0330 Uiso
O6 O 0.6043(4) 0.0273(4) 0.1585(3) 0.0247 Uani
O9 O 0.1057(4) 0.1267(4) 0.0594(4) 0.0274 Uani
H19 H 0.0188 0.1572 0.0504 0.0420 Uiso
H20 H 0.1446 0.1891 0.0382 0.0420 Uiso
C23 C 0.7258(9) 0.0707(11) 0.5773(7) 0.0614 Uani
H21 H 0.8085 0.0955 0.5567 0.0740 Uiso
C24 C 0.6850(8) 0.0545(9) 0.6797(6) 0.0474 Uani
H22 H 0.7376 0.0700 0.7259 0.0570 Uiso
C25 C 0.5647(6) 0.0149(6) 0.7123(5) 0.0259 Uani
C27 C 0.5383(7) 0.0112(7) 0.5394(5) 0.0337 Uani
N5 N 0.6547(7) 0.0532(8) 0.5056(5) 0.0522 Uani
O11 O 0.5873(4) 0.0076(4) 0.8882(3) 0.0259 Uani
C40 C 0.797(2) 0.2924(19) 0.2737(15) 0.1669 Uani
H30 H 0.7141 0.2662 0.3042 0.2500 Uiso
H31 H 0.8760 0.2319 0.3161 0.2500 Uiso
H32 H 0.7940 0.3751 0.2729 0.2500 Uiso
C41 C 0.8629(18) 0.3937(13) 0.0831(13) 0.1171 Uani
H33 H 0.8554 0.3909 0.0136 0.1750 Uiso
H34 H 0.8141 0.4760 0.0806 0.1750 Uiso
H35 H 0.9587 0.3792 0.1027 0.1750 Uiso
C42 C 0.7728(9) 0.2097(9) 0.1369(8) 0.0529 Uani
H36 H 0.7307 0.1524 0.1899 0.0640 Uiso
N8 N 0.8051(10) 0.2983(9) 0.1601(7) 0.0698 Uani
O16 O 0.7920(5) 0.1944(5) 0.0533(4) 0.0351 Uani
C1 C 0.7890(6) 0.7090(6) 0.1588(5) 0.0255 Uani
C2 C 0.5999(8) 0.5979(9) 0.4153(7) 0.0536 Uani
H1 H 0.5130 0.6209 0.4402 0.0650 Uiso
C3 C 0.6239(7) 0.6674(7) 0.3090(6) 0.0391 Uani
H2 H 0.5552 0.7336 0.2638 0.0460 Uiso
C4 C 0.7532(7) 0.6348(6) 0.2728(5) 0.0249 Uani
C5 C 0.8507(6) 0.5330(6) 0.3430(5) 0.0243 Uani
H3 H 0.9385 0.5083 0.3202 0.0290 Uiso
C6 C 0.8158(6) 0.4689(6) 0.4466(5) 0.0281 Uani
C7 C 0.9180(7) 0.3595(6) 0.5243(5) 0.0276 Uani
C8 C 0.8896(6) 0.2994(6) 0.6324(5) 0.0241 Uani
H4 H 0.8040 0.3256 0.6576 0.0290 Uiso
C9 C 0.9890(6) 0.2016(6) 0.7011(5) 0.0213 Uani
C12 C 0.9651(6) 0.1331(6) 0.8179(5) 0.0194 Uani
N1 N 0.6921(6) 0.5008(7) 0.4845(5) 0.0466 Uani
O1 O 0.7050(4) 0.8136(4) 0.1069(4) 0.0264 Uani
O2 O 0.8982(5) 0.6640(5) 0.1234(4) 0.0419 Uani
O3 O 0.8434(4) 0.1503(4) 0.8485(3) 0.0260 Uani
O17 O 0.5480(4) 0.2179(4) 0.9395(4) 0.0300 Uani
H37 H 0.4624 0.2532 0.9257 0.0450 Uiso
H38 H 0.5867 0.2696 0.9505 0.0450 Uiso
C37 C 0.8844(7) 0.8339(7) 0.3398(6) 0.0340 Uani
H28 H 0.8134 0.8977 0.2952 0.0410 Uiso
C38 C 0.8664(8) 0.7726(8) 0.4477(6) 0.0453 Uani
H29 H 0.7828 0.7996 0.4749 0.0540 Uiso
N7 N 0.9599(6) 0.6781(6) 0.5151(5) 0.0401 Uani
O15 O 0.9320(4) 0.9413(4) 0.1216(3) 0.0278 Uani
C10 C 0.1156(7) 0.1661(7) 0.6602(6) 0.0340 Uani
H5 H 0.1866 0.1023 0.7048 0.0410 Uiso
C11 C 0.1336(8) 0.2274(8) 0.5523(6) 0.0453 Uani
H6 H 0.2172 0.2004 0.5251 0.0540 Uiso
N2 N 0.0401(6) 0.3219(6) 0.4849(5) 0.0401 Uani
O4 O 0.0680(4) 0.0587(4) 0.8784(3) 0.0278 Uani
O20 O 0.2950(4) 0.1864(4) 0.8931(4) 0.0264 Uani
C14 C 0.2742(9) 0.9293(11) 0.4227(7) 0.0614 Uani
H7 H 0.1915 0.9045 0.4433 0.0740 Uiso
C15 C 0.3150(8) 0.9455(9) 0.3203(6) 0.0474 Uani
H8 H 0.2624 0.9300 0.2741 0.0570 Uiso
C16 C 0.4353(6) 0.9851(6) 0.2877(5) 0.0259 Uani
C18 C 0.4617(7) 0.9888(7) 0.4606(5) 0.0337 Uani
N3 N 0.3453(7) 0.9468(8) 0.4944(5) 0.0522 Uani
O7 O 0.4127(4) 0.9924(4) 0.1118(3) 0.0259 Uani
O8 O 0.4520(4) 0.7821(4) 0.0605(4) 0.0300 Uani
H17 H 0.5376 0.7468 0.0743 0.0450 Uiso
H18 H 0.4133 0.7304 0.0495 0.0450 Uiso
C22 C 0.5118(6) 0.9966(6) 0.8236(5) 0.0193 Uani
C26 C 0.4899(7) 0.9930(7) 0.6409(5) 0.0274 Uani
H23 H 0.4081 0.9664 0.6609 0.0330 Uiso
O10 O 0.3957(4) 0.9727(4) 0.8415(3) 0.0247 Uani
C28 C 0.2110(6) 0.2910(6) 0.8412(5) 0.0255 Uani
C29 C 0.4001(8) 0.4021(9) 0.5847(7) 0.0536 Uani
H24 H 0.4870 0.3791 0.5598 0.0650 Uiso
C30 C 0.3761(7) 0.3326(7) 0.6910(6) 0.0391 Uani
H25 H 0.4448 0.2664 0.7362 0.0460 Uiso
C31 C 0.2468(7) 0.3652(6) 0.7272(5) 0.0249 Uani
C32 C 0.1493(6) 0.4670(6) 0.6570(5) 0.0243 Uani
H26 H 0.0615 0.4917 0.6798 0.0290 Uiso
C33 C 0.1842(6) 0.5311(6) 0.5534(5) 0.0281 Uani
C34 C 0.0820(7) 0.6405(6) 0.4757(5) 0.0276 Uani
C35 C 0.1104(6) 0.7006(6) 0.3676(5) 0.0241 Uani
H27 H 0.1960 0.6744 0.3424 0.0290 Uiso
C36 C 0.0110(6) 0.7984(6) 0.2989(5) 0.0213 Uani
C39 C 0.0349(6) 0.8669(6) 0.1821(5) 0.0194 Uani
N6 N 0.3079(6) 0.4992(7) 0.5155(5) 0.0466 Uani
O13 O 0.1018(5) 0.3360(5) 0.8766(4) 0.0419 Uani
O14 O 0.1566(4) 0.8497(4) 0.1515(3) 0.0260 Uani
Eu4 Eu 0.26380(3) 0.97343(3) 0.99528(2) 0.0156 Uani
C19 C 0.203(2) 0.7076(19) 0.7263(15) 0.1669 Uani
H10 H 0.2859 0.7338 0.6958 0.2500 Uiso
H11 H 0.1240 0.7681 0.6839 0.2500 Uiso
H12 H 0.2060 0.6249 0.7271 0.2500 Uiso
C20 C 0.1371(18) 0.6063(13) 0.9169(13) 0.1171 Uani
H13 H 0.1446 0.6091 0.9864 0.1750 Uiso
H14 H 0.1859 0.5240 0.9194 0.1750 Uiso
H15 H 0.0413 0.6208 0.8973 0.1750 Uiso
C21 C 0.2272(9) 0.7903(9) 0.8631(8) 0.0529 Uani
H16 H 0.2693 0.8476 0.8101 0.0640 Uiso
N4 N 0.1949(10) 0.7017(9) 0.8399(7) 0.0698 Uani
O5 O 0.2080(5) 0.8056(5) 0.9467(4) 0.0351 Uani
O18 O 0.8943(4) 0.8733(4) 0.9406(4) 0.0274 Uani
H39 H 0.9812 0.8428 0.9496 0.0420 Uiso
H40 H 0.8554 0.8109 0.9618 0.0420 Uiso
loop_
_atom_site_aniso_label
_atom_site_aniso_U_11
_atom_site_aniso_U_22
_atom_site_aniso_U_33
_atom_site_aniso_U_23
_atom_site_aniso_U_13
_atom_site_aniso_U_12
Eu7 0.01607 0.01931 0.01017 -0.00377 -0.00037 -0.00501
C13 0.019 0.024 0.015 -0.009 0.002 -0.003
C17 0.025 0.042 0.02 -0.014 0.005 -0.014
O6 0.027 0.039 0.014 -0.0125 0.006 -0.016
O9 0.025 0.027 0.029 -0.01 0.0062 -0.0064
C23 0.054 0.113 0.045 -0.041 0.02 -0.057
C24 0.044 0.083 0.036 -0.033 0.011 -0.038
C25 0.024 0.034 0.02 -0.01 0 -0.008
C27 0.031 0.05 0.025 -0.017 0.003 -0.015
N5 0.049 0.099 0.031 -0.035 0.016 -0.045
O11 0.03 0.039 0.014 -0.015 -0.0018 -0.009
C40 0.228 0.183 0.166 -0.139 0.002 -0.063
C41 0.165 0.084 0.131 -0.051 0.018 -0.069
C42 0.064 0.063 0.058 -0.041 0.017 -0.036
N8 0.093 0.078 0.077 -0.058 0.024 -0.047
O16 0.034 0.042 0.044 -0.028 0.006 -0.017
C1 0.026 0.023 0.023 -0.003 0 -0.008
C2 0.031 0.054 0.045 0.004 0.009 0.004
C3 0.027 0.036 0.031 0.007 -0.003 0.001
C4 0.028 0.023 0.022 -0.006 0.001 -0.008
C5 0.022 0.025 0.021 -0.005 -0.002 -0.003
C6 0.023 0.029 0.021 0.002 0 -0.006
C7 0.028 0.028 0.022 -0.004 0.002 -0.008
C8 0.021 0.028 0.021 -0.007 0.005 -0.007
C9 0.022 0.019 0.018 0 -0.001 -0.008
C12 0.022 0.02 0.017 -0.006 -0.003 -0.008
N1 0.03 0.051 0.03 0.008 0.004 0.001
O1 0.022 0.02 0.025 0.003 -0.0015 -0.0028
O2 0.043 0.031 0.031 0.002 0.01 0.003
O3 0.026 0.028 0.019 -0.0035 0.0071 -0.0087
O17 0.022 0.027 0.038 -0.011 -0.0058 -0.0015
C37 0.029 0.033 0.027 -0.003 0.003 0.001
C38 0.036 0.05 0.026 -0.002 0.008 0.01
N7 0.035 0.044 0.023 -0.001 0.007 0.002
O15 0.02 0.036 0.02 -0.002 -0.0067 -0.0069
C10 0.029 0.033 0.027 -0.003 0.003 0.001
C11 0.036 0.05 0.026 -0.002 0.008 0.01
N2 0.035 0.044 0.023 -0.001 0.007 0.002
O4 0.02 0.036 0.02 -0.002 -0.0067 -0.0069
O20 0.022 0.02 0.025 0.003 -0.0015 -0.0028
C14 0.054 0.113 0.045 -0.041 0.02 -0.057
C15 0.044 0.083 0.036 -0.033 0.011 -0.038
C16 0.024 0.034 0.02 -0.01 0 -0.008
C18 0.031 0.05 0.025 -0.017 0.003 -0.015
N3 0.049 0.099 0.031 -0.035 0.016 -0.045
O7 0.03 0.039 0.014 -0.015 -0.0018 -0.009
O8 0.022 0.027 0.038 -0.011 -0.0058 -0.0015
C22 0.019 0.024 0.015 -0.009 0.002 -0.003
C26 0.025 0.042 0.02 -0.014 0.005 -0.014
O10 0.027 0.039 0.014 -0.0125 0.006 -0.016
C28 0.026 0.023 0.023 -0.003 0 -0.008
C29 0.031 0.054 0.045 0.004 0.009 0.004
C30 0.027 0.036 0.031 0.007 -0.003 0.001
C31 0.028 0.023 0.022 -0.006 0.001 -0.008
C32 0.022 0.025 0.021 -0.005 -0.002 -0.003
C33 0.023 0.029 0.021 0.002 0 -0.006
C34 0.028 0.028 0.022 -0.004 0.002 -0.008
C35 0.021 0.028 0.021 -0.007 0.005 -0.007
C36 0.022 0.019 0.018 0 -0.001 -0.008
C39 0.022 0.02 0.017 -0.006 -0.003 -0.008
N6 0.03 0.051 0.03 0.008 0.004 0.001
O13 0.043 0.031 0.031 0.002 0.01 0.003
O14 0.026 0.028 0.019 -0.0035 0.0071 -0.0087
Eu4 0.01607 0.01931 0.01017 -0.00377 -0.00037 -0.00501
C19 0.228 0.183 0.166 -0.139 0.002 -0.063
C20 0.165 0.084 0.131 -0.051 0.018 -0.069
C21 0.064 0.063 0.058 -0.041 0.017 -0.036
N4 0.093 0.078 0.077 -0.058 0.024 -0.047
O5 0.034 0.042 0.044 -0.028 0.006 -0.017
O18 0.025 0.027 0.029 -0.01 0.0062 -0.0064
loop_
_geom_bond_atom_site_label_1
_geom_bond_atom_site_label_2
_geom_bond_site_symmetry_1
_geom_bond_site_symmetry_2
H9 C17 1_555 1_555
O6 C13 1_555 1_555
H19 O9 1_555 1_555
H20 O9 1_555 1_555
C23 H21 1_555 1_555
C24 C23 1_555 1_555
H22 C24 1_555 1_555
C25 C24 1_555 1_555
N5 C23 1_555 1_555
Eu7 O6 1_555 1_555
C27 N5 1_555 1_555
C40 H30 1_555 1_555
H31 C40 1_555 1_555
H32 C40 1_555 1_555
C41 H33 1_555 1_555
H34 C41 1_555 1_555
H35 C41 1_555 1_555
C42 H36 1_555 1_555
N8 C40 1_555 1_555
O16 Eu7 1_555 1_555
C41 N8 1_555 1_555
C42 N8 1_555 1_555
C42 O16 1_555 1_555
C1 C4 1_555 1_555
C2 H1 1_555 1_555
C3 C2 1_555 1_555
H2 C3 1_555 1_555
C4 C3 1_555 1_555
C5 C4 1_555 1_555
H3 C5 1_555 1_555
C6 C5 1_555 1_555
C7 C6 1_555 1_555
C8 C7 1_555 1_555
H4 C8 1_555 1_555
C9 C8 1_555 1_555
C12 C9 1_555 1_555
N1 C2 1_555 1_555
O1 C1 1_555 1_555
O2 C1 1_555 1_555
O3 C12 1_555 1_555
H37 O17 1_555 1_555
H38 O17 1_555 1_555
C6 N1 1_555 1_555
H28 C37 1_555 1_555
C38 C37 1_555 1_555
H29 C38 1_555 1_555
C38 N7 1_555 1_555
H5 C10 1_555 1_555
C11 C10 1_555 1_555
H6 C11 1_555 1_555
C11 N2 1_555 1_555
C14 H7 1_555 1_555
C15 C14 1_555 1_555
H8 C15 1_555 1_555
C16 C15 1_555 1_555
N3 C14 1_555 1_555
H17 O8 1_555 1_555
H18 O8 1_555 1_555
H23 C26 1_555 1_555
O10 C22 1_555 1_555
C28 C31 1_555 1_555
C29 H24 1_555 1_555
C30 C29 1_555 1_555
H25 C30 1_555 1_555
C31 C30 1_555 1_555
C32 C31 1_555 1_555
H26 C32 1_555 1_555
C33 C32 1_555 1_555
C34 C33 1_555 1_555
C35 C34 1_555 1_555
H27 C35 1_555 1_555
C36 C35 1_555 1_555
C39 C36 1_555 1_555
N6 C29 1_555 1_555
O20 C28 1_555 1_555
O13 C28 1_555 1_555
Eu4 O10 1_555 1_555
C18 N3 1_555 1_555
C33 N6 1_555 1_555
C39 O14 1_555 1_555
C19 H10 1_555 1_555
H11 C19 1_555 1_555
H12 C19 1_555 1_555
C20 H13 1_555 1_555
H14 C20 1_555 1_555
H15 C20 1_555 1_555
C21 H16 1_555 1_555
N4 C19 1_555 1_555
O5 Eu4 1_555 1_555
C20 N4 1_555 1_555
C21 N4 1_555 1_555
C21 O5 1_555 1_555
H39 O18 1_555 1_555
H40 O18 1_555 1_555

#END
