
###############################################################################
#
# This file contains modified crystal structure data generated from the
# MOF subset of the Cambridge Structural Database (CSD) v543 
# hosted by the Cambridge Crystallographic Data Centre (CCDC).
#
# This work is licensed under the Creative Commons
# Attribution-NonCommercial-ShareAlike 4.0 International License.
# To view a copy of this license, visit
# http://creativecommons.org/licenses/by-nc-sa/4.0/
# or send a letter to
# Creative Commons, PO Box 1866, Mountain View, CA 94042, USA.
#
# CIF created using the CSD Python API on 29 September 2022
# The structure has been converted into the P1 space group
# The structure has a 3D framework
# The original CSD entry ZIDBEV is in the monoclinic crystal system
# The framework has been calculated to contain at least 10.0% void space
# The void calculation uses a probe of radius 1.32A, grid spacing 0.4
# The framework is charged, counterions have been retained in the structure
#
###############################################################################

data_ZIDBEV
_chemical_formula_moiety         '(C36 H48 Cu16 N24 O4 12+)n'
_symmetry_cell_setting           triclinic
_symmetry_space_group_name_H-M   'P 1'
_symmetry_Int_Tables_number      1
_space_group_name_Hall           'P 1'
loop_
_symmetry_equiv_pos_site_id
_symmetry_equiv_pos_as_xyz
1 x,y,z
_cell_length_a                   12.774(5)
_cell_length_b                   19.299(5)
_cell_length_c                   11.056(5)
_cell_angle_alpha                90
_cell_angle_beta                 98.752(5)
_cell_angle_gamma                90
_cell_volume                     2693.85
loop_
_atom_site_label
_atom_site_type_symbol
_atom_site_fract_x
_atom_site_fract_y
_atom_site_fract_z
Cu4 Cu 0.5000 0.17711(16) -0.0000
N13 N 0.5510(9) 0.1676(7) 0.1676(10)
C1 C 0.0000(12) 0.3630(9) 0.2520(13)
C2 C 0.1466(11) 0.3212(7) 0.2290(12)
H2 H 0.2025 0.3007 0.1974
C3 C 0.2407(13) 0.3457(8) 0.4442(13)
H3 H 0.2385 0.3882 0.4906
H4 H 0.3066 0.3450 0.4107
C4 C 0.2363(12) 0.2834(7) 0.5286(12)
H5 H 0.2851 0.2908 0.6036
H6 H 0.1655 0.2797 0.5498
N1 N 0.0510(9) 0.3324(7) 0.1676(10)
N2 N 0.0569(11) 0.3715(7) 0.3579(12)
N3 N 0.1504(10) 0.3439(6) 0.3435(10)
Cu1 Cu 0.0000 0.32289(16) 0.0000
Cu2 Cu 0.0000 0.4101(4) 0.5000
O1 O 0.0000 0.5000 0.5000
C5 C 0.5000(12) 0.1370(9) 0.7480(13)
H7 H 0.5705 0.1232 0.7649
C6 C 0.3534(11) 0.1788(7) 0.7710(12)
H8 H 0.2975 0.1993 0.8026
C7 C 0.2593(13) 0.1543(8) 0.5558(13)
H9 H 0.2615 0.1118 0.5094
H10 H 0.1934 0.1550 0.5893
C8 C 0.2637(12) 0.2166(7) 0.4714(12)
H11 H 0.2149 0.2092 0.3964
H12 H 0.3345 0.2203 0.4502
N4 N 0.4490(9) 0.1676(7) 0.8324(10)
N5 N 0.4431(11) 0.1285(7) 0.6421(12)
N6 N 0.3496(10) 0.1561(6) 0.6565(10)
Cu3 Cu 0.0000 0.5899(4) 0.5000
Cu4_2 Cu 0.5000 0.17711(16) 1.0000
N16 N 0.0569(11) 0.6285(7) 0.3579(12)
Cu8 Cu 0.5000 0.0899(4) 0.5000
Cu1_2 Cu 0.0000 0.32289(16) 1.0000
C9 C 0.0000(12) 0.3630(9) 0.7480(13)
H13 H 0.0705 0.3768 0.7649
C1_2 C 1.0000(12) 0.3630(9) 0.2520(13)
H1 H 0.9295 0.3768 0.2351
Cu1_3 Cu 1.0000 0.32289(16) 0.0000
Cu2_2 Cu 1.0000 0.4101(4) 0.5000
O1_2 O 1.0000 0.5000 0.5000
Cu3_2 Cu 1.0000 0.5899(4) 0.5000
N14 N 0.9431(11) 0.3715(7) 0.6421(12)
N15 N 0.9431(11) 0.6285(7) 0.6421(12)
Cu1_4 Cu 1.0000 0.32289(16) 1.0000
C9_2 C 1.0000(12) 0.3630(9) 0.7480(13)
C10 C 0.8534(11) 0.3212(7) 0.7710(12)
H14 H 0.7975 0.3007 0.8026
C11 C 0.7593(13) 0.3457(8) 0.5558(13)
H15 H 0.7615 0.3882 0.5094
H16 H 0.6934 0.3450 0.5893
C12 C 0.7637(12) 0.2834(7) 0.4714(12)
H17 H 0.7149 0.2908 0.3964
H18 H 0.8345 0.2797 0.4502
N7 N 0.9490(9) 0.3324(7) 0.8324(10)
N9 N 0.8496(10) 0.3439(6) 0.6565(10)
C13 C 0.5000(12) 0.1370(9) 0.2520(13)
H19 H 0.4295 0.1232 0.2351
C14 C 0.6466(11) 0.1788(7) 0.2290(12)
H20 H 0.7025 0.1993 0.1974
C15 C 0.7407(13) 0.1543(8) 0.4442(13)
H21 H 0.7385 0.1118 0.4906
H22 H 0.8066 0.1550 0.4107
C16 C 0.7363(12) 0.2166(7) 0.5286(12)
H23 H 0.7851 0.2092 0.6036
H24 H 0.6655 0.2203 0.5498
N11 N 0.5569(11) 0.1285(7) 0.3579(12)
N12 N 0.6504(10) 0.1561(6) 0.3435(10)
Cu4_3 Cu 0.0000 0.67711(16) -0.0000
N13_2 N 0.0510(9) 0.6676(7) 0.1676(10)
C5_2 C 0.0000(12) 0.6370(9) 0.7480(13)
H7_2 H 0.0705 0.6232 0.7649
Cu4_4 Cu 0.0000 0.67711(16) 1.0000
O1_3 O 0.5000 -0.0000 0.5000
Cu4_5 Cu 1.0000 0.67711(16) -0.0000
C1_3 C 0.5000(12) 0.8630(9) 0.2520(13)
H1_2 H 0.4295 0.8768 0.2351
C2_2 C 0.6466(11) 0.8212(7) 0.2290(12)
H2_2 H 0.7025 0.8007 0.1974
C3_2 C 0.7407(13) 0.8457(8) 0.4442(13)
H3_2 H 0.7385 0.8882 0.4906
H4_2 H 0.8066 0.8450 0.4107
C4_2 C 0.7363(12) 0.7834(7) 0.5286(12)
H5_2 H 0.7851 0.7908 0.6036
H6_2 H 0.6655 0.7797 0.5498
N1_2 N 0.5510(9) 0.8324(7) 0.1676(10)
N2_2 N 0.5569(11) 0.8715(7) 0.3579(12)
N3_2 N 0.6504(10) 0.8439(6) 0.3435(10)
Cu1_5 Cu 0.5000 0.82289(16) 0.0000
Cu2_3 Cu 0.5000 0.9101(4) 0.5000
O1_4 O 0.5000 1.0000 0.5000
C5_3 C 1.0000(12) 0.6370(9) 0.7480(13)
C6_2 C 0.8534(11) 0.6788(7) 0.7710(12)
H8_2 H 0.7975 0.6993 0.8026
C7_2 C 0.7593(13) 0.6543(8) 0.5558(13)
H9_2 H 0.7615 0.6118 0.5094
H10_2 H 0.6934 0.6550 0.5893
C8_2 C 0.7637(12) 0.7166(7) 0.4714(12)
H11_2 H 0.7149 0.7092 0.3964
H12_2 H 0.8345 0.7203 0.4502
N4_2 N 0.9490(9) 0.6676(7) 0.8324(10)
N6_2 N 0.8496(10) 0.6561(6) 0.6565(10)
Cu4_6 Cu 1.0000 0.67711(16) 1.0000
N14_2 N 0.4431(11) 0.8715(7) 0.6421(12)
Cu1_6 Cu 0.5000 0.82289(16) 1.0000
C9_3 C 0.5000(12) 0.8630(9) 0.7480(13)
H13_2 H 0.5705 0.8768 0.7649
C10_2 C 0.3534(11) 0.8212(7) 0.7710(12)
H14_2 H 0.2975 0.8007 0.8026
C11_2 C 0.2593(13) 0.8457(8) 0.5558(13)
H15_2 H 0.2615 0.8882 0.5094
H16_2 H 0.1934 0.8450 0.5893
C12_2 C 0.2637(12) 0.7834(7) 0.4714(12)
H17_2 H 0.2149 0.7908 0.3964
H18_2 H 0.3345 0.7797 0.4502
N7_2 N 0.4490(9) 0.8324(7) 0.8324(10)
N9_2 N 0.3496(10) 0.8439(6) 0.6565(10)
C13_2 C 0.0000(12) 0.6370(9) 0.2520(13)
C14_2 C 0.1466(11) 0.6788(7) 0.2290(12)
H20_2 H 0.2025 0.6993 0.1974
C15_2 C 0.2407(13) 0.6543(8) 0.4442(13)
H21_2 H 0.2385 0.6118 0.4906
H22_2 H 0.3066 0.6550 0.4107
C16_2 C 0.2363(12) 0.7166(7) 0.5286(12)
H23_2 H 0.2851 0.7092 0.6036
H24_2 H 0.1655 0.7203 0.5498
N12_2 N 0.1504(10) 0.6561(6) 0.3435(10)
C13_3 C 1.0000(12) 0.6370(9) 0.2520(13)
H19_2 H 0.9295 0.6232 0.2351
loop_
_geom_bond_atom_site_label_1
_geom_bond_atom_site_label_2
_geom_bond_site_symmetry_1
_geom_bond_site_symmetry_2
N13 Cu4 1_555 1_555
C2 H2 1_555 1_555
C3 H3 1_555 1_555
H4 C3 1_555 1_555
C4 C3 1_555 1_555
H5 C4 1_555 1_555
H6 C4 1_555 1_555
N1 C1 1_555 1_555
N2 C1 1_555 1_555
N3 C2 1_555 1_555
Cu1 N1 1_555 1_555
Cu2 N2 1_555 1_555
O1 Cu2 1_555 1_555
C5 H7 1_555 1_555
C6 H8 1_555 1_555
C7 H9 1_555 1_555
H10 C7 1_555 1_555
C8 C4 1_555 1_555
H11 C8 1_555 1_555
H12 C8 1_555 1_555
N4 C5 1_555 1_555
N5 C5 1_555 1_555
N6 C6 1_555 1_555
Cu3 O1 1_555 1_555
Cu4_2 N4 1_555 1_555
N16 Cu3 1_555 1_555
Cu8 N5 1_555 1_555
C2 N1 1_555 1_555
C3 N3 1_555 1_555
N2 N3 1_555 1_555
C6 N4 1_555 1_555
C7 C8 1_555 1_555
C7 N6 1_555 1_555
N5 N6 1_555 1_555
C9 H13 1_555 1_555
C1_2 H1 1_555 1_555
O1_2 Cu2_2 1_555 1_555
Cu3_2 O1_2 1_555 1_555
N14 Cu2_2 1_555 1_555
N15 Cu3_2 1_555 1_555
C10 H14 1_555 1_555
C11 H15 1_555 1_555
H16 C11 1_555 1_555
C12 C11 1_555 1_555
H17 C12 1_555 1_555
H18 C12 1_555 1_555
N7 Cu1_4 1_555 1_555
N14 C9_2 1_555 1_555
N9 C10 1_555 1_555
C13 H19 1_555 1_555
C14 H20 1_555 1_555
C15 H21 1_555 1_555
H22 C15 1_555 1_555
C16 C12 1_555 1_555
H23 C16 1_555 1_555
H24 C16 1_555 1_555
N13 C13 1_555 1_555
N11 C13 1_555 1_555
N12 C14 1_555 1_555
Cu8 N11 1_555 1_555
C9_2 N7 1_555 1_555
C10 N7 1_555 1_555
C11 N9 1_555 1_555
N14 N9 1_555 1_555
C14 N13 1_555 1_555
C15 C16 1_555 1_555
C15 N12 1_555 1_555
N11 N12 1_555 1_555
N13_2 Cu4_3 1_555 1_555
C5_2 H7_2 1_555 1_555
Cu8 O1_3 1_555 1_555
C1_3 H1_2 1_555 1_555
C2_2 H2_2 1_555 1_555
C3_2 H3_2 1_555 1_555
H4_2 C3_2 1_555 1_555
C4_2 C3_2 1_555 1_555
H5_2 C4_2 1_555 1_555
H6_2 C4_2 1_555 1_555
N1_2 C1_3 1_555 1_555
N2_2 C1_3 1_555 1_555
N3_2 C2_2 1_555 1_555
Cu1_5 N1_2 1_555 1_555
Cu2_3 N2_2 1_555 1_555
O1_4 Cu2_3 1_555 1_555
C6_2 H8_2 1_555 1_555
C7_2 H9_2 1_555 1_555
H10_2 C7_2 1_555 1_555
C8_2 C4_2 1_555 1_555
H11_2 C8_2 1_555 1_555
H12_2 C8_2 1_555 1_555
N4_2 C5_3 1_555 1_555
N15 C5_3 1_555 1_555
N6_2 C6_2 1_555 1_555
Cu4_6 N4_2 1_555 1_555
N14_2 Cu2_3 1_555 1_555
C2_2 N1_2 1_555 1_555
C3_2 N3_2 1_555 1_555
N2_2 N3_2 1_555 1_555
C6_2 N4_2 1_555 1_555
C7_2 C8_2 1_555 1_555
C7_2 N6_2 1_555 1_555
N15 N6_2 1_555 1_555
C9_3 H13_2 1_555 1_555
C10_2 H14_2 1_555 1_555
C11_2 H15_2 1_555 1_555
H16_2 C11_2 1_555 1_555
C12_2 C11_2 1_555 1_555
H17_2 C12_2 1_555 1_555
H18_2 C12_2 1_555 1_555
N7_2 Cu1_6 1_555 1_555
N14_2 C9_3 1_555 1_555
N9_2 C10_2 1_555 1_555
C14_2 H20_2 1_555 1_555
C15_2 H21_2 1_555 1_555
H22_2 C15_2 1_555 1_555
C16_2 C12_2 1_555 1_555
H23_2 C16_2 1_555 1_555
H24_2 C16_2 1_555 1_555
N13_2 C13_2 1_555 1_555
N16 C13_2 1_555 1_555
N12_2 C14_2 1_555 1_555
C9_3 N7_2 1_555 1_555
C10_2 N7_2 1_555 1_555
C11_2 N9_2 1_555 1_555
N14_2 N9_2 1_555 1_555
C14_2 N13_2 1_555 1_555
C15_2 C16_2 1_555 1_555
C15_2 N12_2 1_555 1_555
N16 N12_2 1_555 1_555
C13_3 H19_2 1_555 1_555

#END
