
###############################################################################
#
# This file contains modified crystal structure data generated from the
# MOF subset of the Cambridge Structural Database (CSD) v543 
# hosted by the Cambridge Crystallographic Data Centre (CCDC).
#
# This work is licensed under the Creative Commons
# Attribution-NonCommercial-ShareAlike 4.0 International License.
# To view a copy of this license, visit
# http://creativecommons.org/licenses/by-nc-sa/4.0/
# or send a letter to
# Creative Commons, PO Box 1866, Mountain View, CA 94042, USA.
#
# CIF created using the CSD Python API on 29 September 2022
# The structure has been converted into the P1 space group
# The structure has a 3D framework
# The original CSD entry ZIDDIB is in the orthorhombic crystal system
# The framework has been calculated to contain at least 10.0% void space
# The void calculation uses a probe of radius 1.32A, grid spacing 0.4
# H atom positions have been added when not included in the experimental data
#
###############################################################################

data_ZIDDIB
_chemical_formula_moiety         '(C168 H88 In12 N24 O102)n'
_symmetry_cell_setting           triclinic
_symmetry_space_group_name_H-M   'P 1'
_symmetry_Int_Tables_number      1
_space_group_name_Hall           'P 1'
loop_
_symmetry_equiv_pos_site_id
_symmetry_equiv_pos_as_xyz
1 x,y,z
_cell_length_a                   16.0630(8)
_cell_length_b                   16.4850(9)
_cell_length_c                   19.0250(8)
_cell_angle_alpha                90
_cell_angle_beta                 90
_cell_angle_gamma                90
_cell_volume                     5037.79
loop_
_atom_site_label
_atom_site_type_symbol
_atom_site_fract_x
_atom_site_fract_y
_atom_site_fract_z
H5 H 0.0278 0.8750 0.2158
O7 O 0.0290(6) 0.7967(6) 0.1009(4)
In3 In 0.04413(5) 0.75746(5) 0.98740(4)
In2 In 0.72039(5) 0.06948(5) 0.18424(4)
C1 C 0.8076(7) 0.1220(7) 0.0533(6)
C2 C 0.7512(7) 0.0534(7) 0.0264(7)
C8 C 0.8477(8) 0.0619(8) 0.2977(6)
N1 N 0.6975(6) 0.0246(5) 0.0757(5)
O1 O 0.8000(5) 0.1455(5) 0.1166(4)
O2 O 0.8565(5) 0.1515(5) 0.0097(4)
O5 O 0.7885(5) 0.1068(5) 0.2745(4)
O6 O 0.8859(6) 0.0710(5) 0.3524(5)
In4 In 0.95587(5) 0.24254(5) 0.01260(4)
O17 O 0.6398(5) 0.1680(5) 0.2047(4)
C6 C 0.6468(7) 0.9640(7) 0.0564(5)
H3 H 0.6077 0.9453 0.0886
C9 C 0.8780(8) 0.9958(8) 0.2464(6)
C10 C 0.9486(8) 0.9527(8) 0.2609(6)
H4 H 0.9748 0.9562 0.3044
C11 C 0.9791(9) 0.9043(8) 0.2085(7)
C12 C 0.9384(8) 0.8984(7) 0.1449(5)
C13 C 0.8641(8) 0.9386(7) 0.1360(6)
H6 H 0.8346 0.9318 0.0943
C14 C 0.9728(8) 0.8487(7) 0.0848(6)
C15 C 0.6287(9) 0.9557(8) 0.2790(7)
C16 C 0.5660(7) 0.8896(7) 0.2910(6)
C17 C 0.5461(8) 0.8694(7) 0.3632(6)
H7 H 0.5707 0.8982 0.3997
C18 C 0.4547(7) 0.7712(6) 0.3239(6)
C19 C 0.4686(8) 0.7917(8) 0.2534(6)
H8 H 0.4395 0.7660 0.2175
C20 C 0.5266(8) 0.8510(8) 0.2388(6)
H9 H 0.5385 0.8642 0.1923
C21 C 0.3973(7) 0.7041(6) 0.3449(6)
N2 N 0.8326(6) 0.9882(6) 0.1869(4)
N3 N 0.4929(6) 0.8099(5) 0.3775(5)
O4 O 0.5347(5) 0.8419(5) 0.0133(4)
O8 O 0.9480(6) 0.8547(6) 0.0240(4)
O9 O 0.6338(5) 0.9794(5) 0.2149(4)
O10 O 0.6678(10) 0.9848(9) 0.3248(7)
O11 O 0.3602(5) 0.6680(5) 0.2953(4)
O12 O 0.3929(5) 0.6840(5) 0.4069(4)
O13 O 0.3581(5) 0.8111(5) 0.0467(4)
In5 In 0.45587(5) 0.75746(5) 0.48740(4)
In6 In 0.27961(5) 0.56948(5) 0.31576(4)
O15 O 0.4710(6) 0.7033(6) 0.1009(4)
O16 O 0.5520(6) 0.6453(6) 0.0240(4)
H10 H 0.349135 0.864722 0.0241573
H11 H 0.305236 0.779879 0.0462104
In1 In 0.45587(5) 0.74254(5) 0.98740(4)
C4 C 0.7079(7) 0.9562(8) 0.9440(6)
H2 H 0.7140 0.9327 0.8999
C5 C 0.6502(8) 0.9277(7) 0.9903(6)
C7 C 0.5925(9) 0.8586(8) 0.9712(7)
O3 O 0.6058(9) 0.8191(9) 0.9191(7)
N4 N 0.4929(6) 0.6901(5) 0.8775(5)
O14 O 0.3565(5) 0.6515(5) 0.9903(4)
O18 O 0.3929(5) 0.8160(5) 0.9069(4)
C18_2 C 0.0453(7) 0.7288(6) 0.3239(6)
C19_2 C 0.0314(8) 0.7083(8) 0.2534(6)
H8_2 H 0.0605 0.7340 0.2175
C21_2 C 0.1027(7) 0.7959(6) 0.3449(6)
N3_2 N 0.0071(6) 0.6901(5) 0.3775(5)
O11_2 O 0.1398(5) 0.8320(5) 0.2953(4)
O12_2 O 0.1071(5) 0.8160(5) 0.4069(4)
O13_2 O 0.1419(5) 0.6889(5) 0.0467(4)
In5_2 In 0.04413(5) 0.74254(5) 0.48740(4)
In6_2 In 0.22039(5) 0.93052(5) 0.31576(4)
H10_2 H 0.150865 0.635278 0.0241573
H11_2 H 0.194764 0.720121 0.0462104
N4_2 N 0.0071(6) 0.8099(5) 0.8775(5)
O14_2 O 0.1435(5) 0.8485(5) 0.9903(4)
O18_2 O 0.1071(5) 0.6840(5) 0.9069(4)
In2_2 In 0.77961(5) 0.43052(5) 0.18424(4)
C1_2 C 0.6924(7) 0.3780(7) 0.0533(6)
C2_2 C 0.7488(7) 0.4466(7) 0.0264(7)
C6_2 C 0.8532(7) 0.5360(7) 0.0564(5)
H3_2 H 0.8923 0.5547 0.0886
C8_2 C 0.6523(8) 0.4381(8) 0.2977(6)
C9_2 C 0.6220(8) 0.5042(8) 0.2464(6)
C10_2 C 0.5514(8) 0.5473(8) 0.2609(6)
H4_2 H 0.5252 0.5438 0.3044
C11_2 C 0.5209(9) 0.5957(8) 0.2085(7)
H5_2 H 0.4722 0.6250 0.2158
C12_2 C 0.5616(8) 0.6016(7) 0.1449(5)
C13_2 C 0.6359(8) 0.5614(7) 0.1360(6)
H6_2 H 0.6654 0.5682 0.0943
C14_2 C 0.5272(8) 0.6513(7) 0.0848(6)
C15_2 C 0.8713(9) 0.5443(8) 0.2790(7)
C16_2 C 0.9340(7) 0.6104(7) 0.2910(6)
C17_2 C 0.9539(8) 0.6306(7) 0.3632(6)
H7_2 H 0.9293 0.6018 0.3997
C20_2 C 0.9734(8) 0.6490(8) 0.2388(6)
H9_2 H 0.9615 0.6358 0.1923
N1_2 N 0.8025(6) 0.4754(5) 0.0757(5)
N2_2 N 0.6674(6) 0.5118(6) 0.1869(4)
O1_2 O 0.7000(5) 0.3545(5) 0.1166(4)
O2_2 O 0.6435(5) 0.3485(5) 0.0097(4)
O4_2 O 0.9653(5) 0.6581(5) 0.0133(4)
O5_2 O 0.7115(5) 0.3932(5) 0.2745(4)
O6_2 O 0.6141(6) 0.4290(5) 0.3524(5)
O9_2 O 0.8662(5) 0.5206(5) 0.2149(4)
O10_2 O 0.8322(10) 0.5152(9) 0.3248(7)
In4_2 In 0.54413(5) 0.25746(5) 0.01260(4)
O17_2 O 0.8602(5) 0.3320(5) 0.2047(4)
C3 C 0.7415(8) 0.4774(8) 0.9649(6)
H1 H 0.7026 0.4561 0.9337
C4_2 C 0.7921(7) 0.5438(8) 0.9440(6)
H2_2 H 0.7860 0.5673 0.8999
C5_2 C 0.8498(8) 0.5723(7) 0.9903(6)
C7_2 C 0.9075(9) 0.6414(8) 0.9712(7)
O3_2 O 0.8942(9) 0.6809(9) 0.9191(7)
C4_3 C 0.2079(7) 0.0438(8) 0.5560(6)
H2_3 H 0.2140 0.0673 0.6001
C5_3 C 0.1502(8) 0.0723(7) 0.5097(6)
C6_3 C 0.1468(7) 0.0360(7) 0.4436(5)
H3_3 H 0.1077 0.0547 0.4114
C7_3 C 0.0925(9) 0.1414(8) 0.5288(7)
C9_3 C 0.3780(8) 0.0042(8) 0.2536(6)
C10_3 C 0.4486(8) 0.0473(8) 0.2391(6)
H4_3 H 0.4748 0.0438 0.1956
C11_3 C 0.4791(9) 0.0957(8) 0.2915(7)
H5_3 H 0.5278 0.1250 0.2842
C12_3 C 0.4384(8) 0.1016(7) 0.3551(5)
C13_3 C 0.3641(8) 0.0614(7) 0.3640(6)
H6_3 H 0.3346 0.0682 0.4057
C14_3 C 0.4728(8) 0.1513(7) 0.4152(6)
C15_3 C 0.1287(9) 0.0443(8) 0.2210(7)
C16_3 C 0.0660(7) 0.1104(7) 0.2090(6)
C17_3 C 0.0461(8) 0.1306(7) 0.1368(6)
H7_3 H 0.0707 0.1018 0.1003
C20_3 C 0.0266(8) 0.1490(8) 0.2612(6)
H9_3 H 0.0385 0.1358 0.3077
N2_3 N 0.3326(6) 0.0118(6) 0.3131(4)
O3_3 O 0.1058(9) 0.1809(9) 0.5809(7)
O4_3 O 0.0347(5) 0.1581(5) 0.4867(4)
O7_2 O 0.5290(6) 0.2033(6) 0.3991(4)
O8_2 O 0.4480(6) 0.1453(6) 0.4760(4)
O9_3 O 0.1338(5) 0.0206(5) 0.2851(4)
O10_3 O 0.1678(10) 0.0152(9) 0.1752(7)
In3_2 In 0.54413(5) 0.24254(5) 0.51260(4)
O16_2 O 0.0520(6) 0.3547(6) 0.4760(4)
C1_3 C 0.3076(7) 0.8780(7) 0.4467(6)
C2_3 C 0.2512(7) 0.9466(7) 0.4736(7)
C3_2 C 0.2585(8) 0.9774(8) 0.5351(6)
H1_2 H 0.2974 0.9561 0.5663
C8_3 C 0.3477(8) 0.9381(8) 0.2023(6)
N1_3 N 0.1975(6) 0.9754(5) 0.4243(5)
O1_3 O 0.3000(5) 0.8545(5) 0.3834(4)
O2_3 O 0.3565(5) 0.8485(5) 0.4903(4)
O5_3 O 0.2885(5) 0.8932(5) 0.2255(4)
O6_3 O 0.3859(6) 0.9290(5) 0.1476(5)
In1_2 In 0.95587(5) 0.25746(5) 0.51260(4)
C18_3 C 0.9547(7) 0.2288(6) 0.1761(6)
C19_3 C 0.9686(8) 0.2083(8) 0.2466(6)
H8_3 H 0.9395 0.2340 0.2825
C21_3 C 0.8973(7) 0.2959(6) 0.1551(6)
N3_3 N 0.9929(6) 0.1901(5) 0.1225(5)
O12_3 O 0.8929(5) 0.3160(5) 0.0931(4)
O13_3 O 0.8581(5) 0.1889(5) 0.4533(4)
N4_3 N 0.9929(6) 0.3099(5) 0.6225(5)
O14_3 O 0.8565(5) 0.3485(5) 0.5097(4)
O15_2 O 0.9710(6) 0.2967(6) 0.3991(4)
O18_3 O 0.8929(5) 0.1840(5) 0.5931(4)
H10_3 H 0.849135 0.135278 0.475843
H11_3 H 0.805236 0.220121 0.45379
C1_4 C 0.1924(7) 0.6220(7) 0.4467(6)
C2_4 C 0.2488(7) 0.5534(7) 0.4736(7)
C3_3 C 0.2415(8) 0.5226(8) 0.5351(6)
H1_3 H 0.2026 0.5439 0.5663
C4_4 C 0.2921(7) 0.4562(8) 0.5560(6)
H2_4 H 0.2860 0.4327 0.6001
C5_4 C 0.3498(8) 0.4277(7) 0.5097(6)
C6_4 C 0.3532(7) 0.4640(7) 0.4436(5)
H3_4 H 0.3923 0.4453 0.4114
C7_4 C 0.4075(9) 0.3586(8) 0.5288(7)
C8_4 C 0.1523(8) 0.5619(8) 0.2023(6)
C9_4 C 0.1220(8) 0.4958(8) 0.2536(6)
C10_4 C 0.0514(8) 0.4527(8) 0.2391(6)
H4_4 H 0.0252 0.4562 0.1956
C11_4 C 0.0209(9) 0.4043(8) 0.2915(7)
C12_4 C 0.0616(8) 0.3984(7) 0.3551(5)
C13_4 C 0.1359(8) 0.4386(7) 0.3640(6)
H6_4 H 0.1654 0.4318 0.4057
C14_4 C 0.0272(8) 0.3487(7) 0.4152(6)
C15_4 C 0.3713(9) 0.4557(8) 0.2210(7)
C16_4 C 0.4340(7) 0.3896(7) 0.2090(6)
C17_4 C 0.4539(8) 0.3694(7) 0.1368(6)
H7_4 H 0.4293 0.3982 0.1003
C18_4 C 0.5453(7) 0.2712(6) 0.1761(6)
C19_4 C 0.5314(8) 0.2917(8) 0.2466(6)
H8_4 H 0.5605 0.2660 0.2825
C20_4 C 0.4734(8) 0.3510(8) 0.2612(6)
H9_4 H 0.4615 0.3642 0.3077
C21_4 C 0.6027(7) 0.2041(6) 0.1551(6)
N1_4 N 0.3025(6) 0.5246(5) 0.4243(5)
N2_4 N 0.1674(6) 0.4882(6) 0.3131(4)
N3_4 N 0.5071(6) 0.3099(5) 0.1225(5)
O1_4 O 0.2000(5) 0.6455(5) 0.3834(4)
O2_4 O 0.1435(5) 0.6515(5) 0.4903(4)
O3_4 O 0.3942(9) 0.3191(9) 0.5809(7)
O4_4 O 0.4653(5) 0.3419(5) 0.4867(4)
O5_4 O 0.2115(5) 0.6068(5) 0.2255(4)
O6_4 O 0.1141(6) 0.5710(5) 0.1476(5)
O9_4 O 0.3662(5) 0.4794(5) 0.2851(4)
O10_4 O 0.3322(10) 0.4848(9) 0.1752(7)
O12_4 O 0.6071(5) 0.1840(5) 0.0931(4)
O13_4 O 0.6419(5) 0.3111(5) 0.4533(4)
N4_4 N 0.5071(6) 0.1901(5) 0.6225(5)
O14_4 O 0.6435(5) 0.1515(5) 0.5097(4)
O18_4 O 0.6071(5) 0.3160(5) 0.5931(4)
H10_4 H 0.650865 0.364722 0.475843
H11_4 H 0.694764 0.279879 0.45379
H5_4 H 0.9722 0.3750 0.2842
C4_5 C 0.2921(7) 0.0438(8) 0.0560(6)
H2_5 H 0.2860 0.0673 0.1001
C5_5 C 0.3498(8) 0.0723(7) 0.0097(6)
C7_5 C 0.4075(9) 0.1414(8) 0.0288(7)
O3_5 O 0.3942(9) 0.1809(9) 0.0809(7)
C6_5 C 0.3532(7) 0.0360(7) 0.9436(5)
H3_5 H 0.3923 0.0547 0.9114
C9_5 C 0.1220(8) 0.0042(8) 0.7536(6)
C10_5 C 0.0514(8) 0.0473(8) 0.7391(6)
H4_5 H 0.0252 0.0438 0.6956
C11_5 C 0.0209(9) 0.0957(8) 0.7915(7)
C12_5 C 0.0616(8) 0.1016(7) 0.8551(5)
C13_5 C 0.1359(8) 0.0614(7) 0.8640(6)
H6_5 H 0.1654 0.0682 0.9057
C14_5 C 0.0272(8) 0.1513(7) 0.9152(6)
C15_5 C 0.3713(9) 0.0443(8) 0.7210(7)
C16_5 C 0.4340(7) 0.1104(7) 0.7090(6)
C17_5 C 0.4539(8) 0.1306(7) 0.6368(6)
H7_5 H 0.4293 0.1018 0.6003
C18_5 C 0.5453(7) 0.2288(6) 0.6761(6)
C19_5 C 0.5314(8) 0.2083(8) 0.7466(6)
H8_5 H 0.5605 0.2340 0.7825
C20_5 C 0.4734(8) 0.1490(8) 0.7612(6)
H9_5 H 0.4615 0.1358 0.8077
C21_5 C 0.6027(7) 0.2959(6) 0.6551(6)
N2_5 N 0.1674(6) 0.0118(6) 0.8131(4)
O4_5 O 0.4653(5) 0.1581(5) 0.9867(4)
O8_3 O 0.0520(6) 0.1453(6) 0.9760(4)
O9_5 O 0.3662(5) 0.0206(5) 0.7851(4)
O10_5 O 0.3322(10) 0.0152(9) 0.6752(7)
O11_3 O 0.6398(5) 0.3320(5) 0.7047(4)
O13_5 O 0.6419(5) 0.1889(5) 0.9533(4)
In6_3 In 0.72039(5) 0.43052(5) 0.68424(4)
O15_3 O 0.5290(6) 0.2967(6) 0.8991(4)
O16_3 O 0.4480(6) 0.3547(6) 0.9760(4)
H10_5 H 0.650865 0.135278 0.975843
H11_5 H 0.694764 0.220121 0.95379
In2_3 In 0.27961(5) 0.93052(5) 0.81576(4)
C1_5 C 0.1924(7) 0.8780(7) 0.9467(6)
C2_5 C 0.2488(7) 0.9466(7) 0.9736(7)
C8_5 C 0.1523(8) 0.9381(8) 0.7023(6)
N1_5 N 0.3025(6) 0.9754(5) 0.9243(5)
O1_5 O 0.2000(5) 0.8545(5) 0.8834(4)
O5_5 O 0.2115(5) 0.8932(5) 0.7255(4)
O6_5 O 0.1141(6) 0.9290(5) 0.6476(5)
O17_3 O 0.3602(5) 0.8320(5) 0.7953(4)
H5_5 H 0.9722 0.1250 0.7842
O7_3 O 0.9710(6) 0.2033(6) 0.8991(4)
C3_4 C 0.2585(8) 0.5226(8) 0.0351(6)
H1_4 H 0.2974 0.5439 0.0663
C4_6 C 0.2079(7) 0.4562(8) 0.0560(6)
H2_6 H 0.2140 0.4327 0.1001
C5_6 C 0.1502(8) 0.4277(7) 0.0097(6)
C7_6 C 0.0925(9) 0.3586(8) 0.0288(7)
O3_6 O 0.1058(9) 0.3191(9) 0.0809(7)
In2_4 In 0.22039(5) 0.56948(5) 0.81576(4)
C1_6 C 0.3076(7) 0.6220(7) 0.9467(6)
C2_6 C 0.2512(7) 0.5534(7) 0.9736(7)
C6_6 C 0.1468(7) 0.4640(7) 0.9436(5)
H3_6 H 0.1077 0.4453 0.9114
C8_6 C 0.3477(8) 0.5619(8) 0.7023(6)
C9_6 C 0.3780(8) 0.4958(8) 0.7536(6)
C10_6 C 0.4486(8) 0.4527(8) 0.7391(6)
H4_6 H 0.4748 0.4562 0.6956
C11_6 C 0.4791(9) 0.4043(8) 0.7915(7)
H5_6 H 0.5278 0.3750 0.7842
C12_6 C 0.4384(8) 0.3984(7) 0.8551(5)
C13_6 C 0.3641(8) 0.4386(7) 0.8640(6)
H6_6 H 0.3346 0.4318 0.9057
C14_6 C 0.4728(8) 0.3487(7) 0.9152(6)
C15_6 C 0.1287(9) 0.4557(8) 0.7210(7)
C16_6 C 0.0660(7) 0.3896(7) 0.7090(6)
C17_6 C 0.0461(8) 0.3694(7) 0.6368(6)
H7_6 H 0.0707 0.3982 0.6003
C20_6 C 0.0266(8) 0.3510(8) 0.7612(6)
H9_6 H 0.0385 0.3642 0.8077
N1_6 N 0.1975(6) 0.5246(5) 0.9243(5)
N2_6 N 0.3326(6) 0.4882(6) 0.8131(4)
O1_6 O 0.3000(5) 0.6455(5) 0.8834(4)
O4_6 O 0.0347(5) 0.3419(5) 0.9867(4)
O5_6 O 0.2885(5) 0.6068(5) 0.7255(4)
O6_6 O 0.3859(6) 0.5710(5) 0.6476(5)
O9_6 O 0.1338(5) 0.4794(5) 0.7851(4)
O10_6 O 0.1678(10) 0.4848(9) 0.6752(7)
O17_4 O 0.1398(5) 0.6680(5) 0.7953(4)
C18_6 C 0.9547(7) 0.2712(6) 0.6761(6)
C19_6 C 0.9686(8) 0.2917(8) 0.7466(6)
H8_6 H 0.9395 0.2660 0.7825
C21_6 C 0.8973(7) 0.2041(6) 0.6551(6)
O11_4 O 0.8602(5) 0.1680(5) 0.7047(4)
O13_6 O 0.8581(5) 0.3111(5) 0.9533(4)
In6_4 In 0.77961(5) 0.06948(5) 0.68424(4)
H10_6 H 0.849135 0.364722 0.975843
H11_6 H 0.805236 0.279879 0.95379
C18_7 C 0.0453(7) 0.7712(6) 0.8239(6)
C19_7 C 0.0314(8) 0.7917(8) 0.7534(6)
H8_7 H 0.0605 0.7660 0.7175
C21_7 C 0.1027(7) 0.7041(6) 0.8449(6)
O13_7 O 0.1419(5) 0.8111(5) 0.5467(4)
O15_4 O 0.0290(6) 0.7033(6) 0.6009(4)
H10_7 H 0.150865 0.864722 0.524157
H11_7 H 0.194764 0.779879 0.54621
C1_7 C 0.6924(7) 0.1220(7) 0.5533(6)
C2_7 C 0.7488(7) 0.0534(7) 0.5264(7)
C3_5 C 0.7415(8) 0.0226(8) 0.4649(6)
H1_5 H 0.7026 0.0439 0.4337
C8_7 C 0.6523(8) 0.0619(8) 0.7977(6)
N1_7 N 0.8025(6) 0.0246(5) 0.5757(5)
O1_7 O 0.7000(5) 0.1455(5) 0.6166(4)
O5_7 O 0.7115(5) 0.1068(5) 0.7745(4)
O6_7 O 0.6141(6) 0.0710(5) 0.8524(5)
C4_7 C 0.7921(7) 0.9562(8) 0.4440(6)
H2_7 H 0.7860 0.9327 0.3999
C5_7 C 0.8498(8) 0.9277(7) 0.4903(6)
C6_7 C 0.8532(7) 0.9640(7) 0.5564(5)
H3_7 H 0.8923 0.9453 0.5886
C7_7 C 0.9075(9) 0.8586(8) 0.4712(7)
C9_7 C 0.6220(8) 0.9958(8) 0.7464(6)
C10_7 C 0.5514(8) 0.9527(8) 0.7609(6)
H4_7 H 0.5252 0.9562 0.8044
C11_7 C 0.5209(9) 0.9043(8) 0.7085(7)
H5_7 H 0.4722 0.8750 0.7158
C12_7 C 0.5616(8) 0.8984(7) 0.6449(5)
C13_7 C 0.6359(8) 0.9386(7) 0.6360(6)
H6_7 H 0.6654 0.9318 0.5943
C14_7 C 0.5272(8) 0.8487(7) 0.5848(6)
C15_7 C 0.8713(9) 0.9557(8) 0.7790(7)
C16_7 C 0.9340(7) 0.8896(7) 0.7910(6)
C17_7 C 0.9539(8) 0.8694(7) 0.8632(6)
H7_7 H 0.9293 0.8982 0.8997
C20_7 C 0.9734(8) 0.8510(8) 0.7388(6)
H9_7 H 0.9615 0.8642 0.6923
N2_7 N 0.6674(6) 0.9882(6) 0.6869(4)
O3_7 O 0.8942(9) 0.8191(9) 0.4191(7)
O4_7 O 0.9653(5) 0.8419(5) 0.5133(4)
O7_4 O 0.4710(6) 0.7967(6) 0.6009(4)
O8_4 O 0.5520(6) 0.8547(6) 0.5240(4)
O9_7 O 0.8662(5) 0.9794(5) 0.7149(4)
O10_7 O 0.8322(10) 0.9848(9) 0.8248(7)
O16_4 O 0.9480(6) 0.6453(6) 0.5240(4)
H5_8 H 0.0278 0.6250 0.7158
C1_8 C 0.8076(7) 0.3780(7) 0.5533(6)
C2_8 C 0.7512(7) 0.4466(7) 0.5264(7)
C3_6 C 0.7585(8) 0.4774(8) 0.4649(6)
H1_6 H 0.7974 0.4561 0.4337
C4_8 C 0.7079(7) 0.5438(8) 0.4440(6)
H2_8 H 0.7140 0.5673 0.3999
C5_8 C 0.6502(8) 0.5723(7) 0.4903(6)
C6_8 C 0.6468(7) 0.5360(7) 0.5564(5)
H3_8 H 0.6077 0.5547 0.5886
C7_8 C 0.5925(9) 0.6414(8) 0.4712(7)
C8_8 C 0.8477(8) 0.4381(8) 0.7977(6)
C9_8 C 0.8780(8) 0.5042(8) 0.7464(6)
C10_8 C 0.9486(8) 0.5473(8) 0.7609(6)
H4_8 H 0.9748 0.5438 0.8044
C11_8 C 0.9791(9) 0.5957(8) 0.7085(7)
C12_8 C 0.9384(8) 0.6016(7) 0.6449(5)
C13_8 C 0.8641(8) 0.5614(7) 0.6360(6)
H6_8 H 0.8346 0.5682 0.5943
C14_8 C 0.9728(8) 0.6513(7) 0.5848(6)
C15_8 C 0.6287(9) 0.5443(8) 0.7790(7)
C16_8 C 0.5660(7) 0.6104(7) 0.7910(6)
C17_8 C 0.5461(8) 0.6306(7) 0.8632(6)
H7_8 H 0.5707 0.6018 0.8997
C18_8 C 0.4547(7) 0.7288(6) 0.8239(6)
C19_8 C 0.4686(8) 0.7083(8) 0.7534(6)
H8_8 H 0.4395 0.7340 0.7175
C20_8 C 0.5266(8) 0.6490(8) 0.7388(6)
H9_8 H 0.5385 0.6358 0.6923
C21_8 C 0.3973(7) 0.7959(6) 0.8449(6)
N1_8 N 0.6975(6) 0.4754(5) 0.5757(5)
N2_8 N 0.8326(6) 0.5118(6) 0.6869(4)
O1_8 O 0.8000(5) 0.3545(5) 0.6166(4)
O3_8 O 0.6058(9) 0.6809(9) 0.4191(7)
O4_8 O 0.5347(5) 0.6581(5) 0.5133(4)
O5_8 O 0.7885(5) 0.3932(5) 0.7745(4)
O6_8 O 0.8859(6) 0.4290(5) 0.8524(5)
O9_8 O 0.6338(5) 0.5206(5) 0.7149(4)
O10_8 O 0.6678(10) 0.5152(9) 0.8248(7)
O13_8 O 0.3581(5) 0.6889(5) 0.5467(4)
H10_8 H 0.349135 0.635278 0.524157
H11_8 H 0.305236 0.720121 0.54621
C3_7 C 0.7585(8) 0.0226(8) 0.9649(6)
H1_7 H 0.7974 0.0439 0.9337
C3_8 C 0.2415(8) 0.9774(8) 0.0351(6)
H1_8 H 0.2026 0.9561 0.0663
loop_
_geom_bond_atom_site_label_1
_geom_bond_atom_site_label_2
_geom_bond_site_symmetry_1
_geom_bond_site_symmetry_2
In2 N1 1_555 1_555
C1 C2 1_555 1_555
N1 C2 1_555 1_555
O1 In2 1_555 1_555
O2 C1 1_555 1_555
O5 In2 1_555 1_555
O6 C8 1_555 1_555
In4 O2 1_555 1_555
O17 In2 1_555 1_555
C1 O1 1_555 1_555
C8 O5 1_555 1_555
H3 C6 1_555 1_555
C9 C10 1_555 1_555
C10 H4 1_555 1_555
C11 C10 1_555 1_555
C12 C11 1_555 1_555
C13 C12 1_555 1_555
H6 C13 1_555 1_555
C14 C12 1_555 1_555
C15 C16 1_555 1_555
C16 C17 1_555 1_555
C17 H7 1_555 1_555
C18 C19 1_555 1_555
C19 H8 1_555 1_555
C20 C16 1_555 1_555
H9 C20 1_555 1_555
C21 C18 1_555 1_555
N3 C17 1_555 1_555
O8 C14 1_555 1_555
O10 C15 1_555 1_555
O11 C21 1_555 1_555
O12 C21 1_555 1_555
In5 N3 1_555 1_555
In6 O11 1_555 1_555
C9 N2 1_555 1_555
C13 N2 1_555 1_555
C15 O9 1_555 1_555
C18 N3 1_555 1_555
C19 C20 1_555 1_555
O12 In5 1_555 1_555
O13 H10 1_555 1_555
O13 H11 1_555 1_555
H2 C4 1_555 1_555
C5 C4 1_555 1_555
C7 C5 1_555 1_555
O3 C7 1_555 1_555
N4 In1 1_555 1_555
O14 In1 1_555 1_555
O18 In1 1_555 1_555
C18_2 C19_2 1_555 1_555
C19_2 H8_2 1_555 1_555
C21_2 C18_2 1_555 1_555
O11_2 C21_2 1_555 1_555
O12_2 C21_2 1_555 1_555
In5_2 N3_2 1_555 1_555
In6_2 O11_2 1_555 1_555
C18_2 N3_2 1_555 1_555
O12_2 In5_2 1_555 1_555
O13_2 H10_2 1_555 1_555
O13_2 H11_2 1_555 1_555
N4_2 In3 1_555 1_555
O14_2 In3 1_555 1_555
O18_2 In3 1_555 1_555
In2_2 N1_2 1_555 1_555
C1_2 C2_2 1_555 1_555
H3_2 C6_2 1_555 1_555
C8_2 C9_2 1_555 1_555
C9_2 C10_2 1_555 1_555
C10_2 H4_2 1_555 1_555
C11_2 C10_2 1_555 1_555
H5_2 C11_2 1_555 1_555
C12_2 C11_2 1_555 1_555
C13_2 C12_2 1_555 1_555
H6_2 C13_2 1_555 1_555
C14_2 C12_2 1_555 1_555
C15_2 C16_2 1_555 1_555
C16_2 C17_2 1_555 1_555
C17_2 H7_2 1_555 1_555
C20_2 C16_2 1_555 1_555
H9_2 C20_2 1_555 1_555
N1_2 C2_2 1_555 1_555
N2_2 In2_2 1_555 1_555
O1_2 In2_2 1_555 1_555
O2_2 C1_2 1_555 1_555
O5_2 In2_2 1_555 1_555
O6_2 C8_2 1_555 1_555
O15 C14_2 1_555 1_555
O16 C14_2 1_555 1_555
O9_2 In2_2 1_555 1_555
O10_2 C15_2 1_555 1_555
In4_2 O2_2 1_555 1_555
O17_2 In2_2 1_555 1_555
C1_2 O1_2 1_555 1_555
C6_2 N1_2 1_555 1_555
C8_2 O5_2 1_555 1_555
C9_2 N2_2 1_555 1_555
C13_2 N2_2 1_555 1_555
C15_2 O9_2 1_555 1_555
C3 H1 1_555 1_555
C4_2 C3 1_555 1_555
H2_2 C4_2 1_555 1_555
C5_2 C4_2 1_555 1_555
C7_2 C5_2 1_555 1_555
O3_2 C7_2 1_555 1_555
H2_3 C4_3 1_555 1_555
C5_3 C4_3 1_555 1_555
C6_3 C5_3 1_555 1_555
H3_3 C6_3 1_555 1_555
C7_3 C5_3 1_555 1_555
C9_3 C10_3 1_555 1_555
C10_3 H4_3 1_555 1_555
C11_3 C10_3 1_555 1_555
H5_3 C11_3 1_555 1_555
C12_3 C11_3 1_555 1_555
C13_3 C12_3 1_555 1_555
H6_3 C13_3 1_555 1_555
C14_3 C12_3 1_555 1_555
C15_3 C16_3 1_555 1_555
C16_3 C17_3 1_555 1_555
C17_3 H7_3 1_555 1_555
C20_3 C16_3 1_555 1_555
H9_3 C20_3 1_555 1_555
O3_3 C7_3 1_555 1_555
O4_3 C7_3 1_555 1_555
O7_2 C14_3 1_555 1_555
O8_2 C14_3 1_555 1_555
O10_3 C15_3 1_555 1_555
In3_2 O7_2 1_555 1_555
C9_3 N2_3 1_555 1_555
C13_3 N2_3 1_555 1_555
C15_3 O9_3 1_555 1_555
O8_2 In3_2 1_555 1_555
In6_2 N1_3 1_555 1_555
C1_3 C2_3 1_555 1_555
C2_3 C3_2 1_555 1_555
C3_2 H1_2 1_555 1_555
N1_3 C2_3 1_555 1_555
O1_3 In6_2 1_555 1_555
O2_3 C1_3 1_555 1_555
O5_3 In6_2 1_555 1_555
O6_3 C8_3 1_555 1_555
In5 O2_3 1_555 1_555
C1_3 O1_3 1_555 1_555
C8_3 O5_3 1_555 1_555
C18_3 C19_3 1_555 1_555
C19_3 H8_3 1_555 1_555
C21_3 C18_3 1_555 1_555
O17_2 C21_3 1_555 1_555
O12_3 C21_3 1_555 1_555
O13_3 In1_2 1_555 1_555
In4 N3_3 1_555 1_555
N4_3 In1_2 1_555 1_555
O14_3 In1_2 1_555 1_555
O15_2 In1_2 1_555 1_555
O18_3 In1_2 1_555 1_555
C18_3 N3_3 1_555 1_555
O12_3 In4 1_555 1_555
O13_3 H10_3 1_555 1_555
O13_3 H11_3 1_555 1_555
In3_2 O4_4 1_555 1_555
In6 N1_4 1_555 1_555
C1_4 C2_4 1_555 1_555
C2_4 C3_3 1_555 1_555
C3_3 H1_3 1_555 1_555
C4_4 C3_3 1_555 1_555
H2_4 C4_4 1_555 1_555
C5_4 C4_4 1_555 1_555
C6_4 C5_4 1_555 1_555
H3_4 C6_4 1_555 1_555
C7_4 C5_4 1_555 1_555
C8_4 C9_4 1_555 1_555
C9_4 C10_4 1_555 1_555
C10_4 H4_4 1_555 1_555
C11_4 C10_4 1_555 1_555
C12_4 C11_4 1_555 1_555
C13_4 C12_4 1_555 1_555
H6_4 C13_4 1_555 1_555
C14_4 C12_4 1_555 1_555
C15_4 C16_4 1_555 1_555
C16_4 C17_4 1_555 1_555
C17_4 H7_4 1_555 1_555
C18_4 C19_4 1_555 1_555
C19_4 H8_4 1_555 1_555
C20_4 C16_4 1_555 1_555
H9_4 C20_4 1_555 1_555
C21_4 C18_4 1_555 1_555
N1_4 C2_4 1_555 1_555
N2_4 In6 1_555 1_555
N3_4 C17_4 1_555 1_555
O1_4 In6 1_555 1_555
O2_4 C1_4 1_555 1_555
O3_4 C7_4 1_555 1_555
O4_4 C7_4 1_555 1_555
O5_4 In6 1_555 1_555
O6_4 C8_4 1_555 1_555
O16_2 C14_4 1_555 1_555
O9_4 In6 1_555 1_555
O10_4 C15_4 1_555 1_555
O17 C21_4 1_555 1_555
O12_4 C21_4 1_555 1_555
O13_4 In3_2 1_555 1_555
In5_2 O2_4 1_555 1_555
In4_2 N3_4 1_555 1_555
N4_4 In3_2 1_555 1_555
O14_4 In3_2 1_555 1_555
O18_4 In3_2 1_555 1_555
C1_4 O1_4 1_555 1_555
C6_4 N1_4 1_555 1_555
C8_4 O5_4 1_555 1_555
C9_4 N2_4 1_555 1_555
C13_4 N2_4 1_555 1_555
C15_4 O9_4 1_555 1_555
C18_4 N3_4 1_555 1_555
C19_4 C20_4 1_555 1_555
O12_4 In4_2 1_555 1_555
O13_4 H10_4 1_555 1_555
O13_4 H11_4 1_555 1_555
H2_5 C4_5 1_555 1_555
C5_5 C4_5 1_555 1_555
C7_5 C5_5 1_555 1_555
O3_5 C7_5 1_555 1_555
H3_5 C6_5 1_555 1_555
C9_5 C10_5 1_555 1_555
C10_5 H4_5 1_555 1_555
C11_5 C10_5 1_555 1_555
C12_5 C11_5 1_555 1_555
C13_5 C12_5 1_555 1_555
H6_5 C13_5 1_555 1_555
C14_5 C12_5 1_555 1_555
C15_5 C16_5 1_555 1_555
C16_5 C17_5 1_555 1_555
C17_5 H7_5 1_555 1_555
C18_5 C19_5 1_555 1_555
C19_5 H8_5 1_555 1_555
C20_5 C16_5 1_555 1_555
H9_5 C20_5 1_555 1_555
C21_5 C18_5 1_555 1_555
N4_4 C17_5 1_555 1_555
O8_3 C14_5 1_555 1_555
O10_5 C15_5 1_555 1_555
O11_3 C21_5 1_555 1_555
O18_4 C21_5 1_555 1_555
In6_3 O11_3 1_555 1_555
C9_5 N2_5 1_555 1_555
C13_5 N2_5 1_555 1_555
C15_5 O9_5 1_555 1_555
C18_5 N4_4 1_555 1_555
C19_5 C20_5 1_555 1_555
O13_5 H10_5 1_555 1_555
O13_5 H11_5 1_555 1_555
In2_3 N1_5 1_555 1_555
C1_5 C2_5 1_555 1_555
N1_5 C2_5 1_555 1_555
O1_5 In2_3 1_555 1_555
O14_2 C1_5 1_555 1_555
O5_5 In2_3 1_555 1_555
O6_5 C8_5 1_555 1_555
O17_3 In2_3 1_555 1_555
C1_5 O1_5 1_555 1_555
C8_5 O5_5 1_555 1_555
C3_4 H1_4 1_555 1_555
C4_6 C3_4 1_555 1_555
H2_6 C4_6 1_555 1_555
C5_6 C4_6 1_555 1_555
C7_6 C5_6 1_555 1_555
O3_6 C7_6 1_555 1_555
In2_4 N1_6 1_555 1_555
C1_6 C2_6 1_555 1_555
H3_6 C6_6 1_555 1_555
C8_6 C9_6 1_555 1_555
C9_6 C10_6 1_555 1_555
C10_6 H4_6 1_555 1_555
C11_6 C10_6 1_555 1_555
H5_6 C11_6 1_555 1_555
C12_6 C11_6 1_555 1_555
C13_6 C12_6 1_555 1_555
H6_6 C13_6 1_555 1_555
C14_6 C12_6 1_555 1_555
C15_6 C16_6 1_555 1_555
C16_6 C17_6 1_555 1_555
C17_6 H7_6 1_555 1_555
C20_6 C16_6 1_555 1_555
H9_6 C20_6 1_555 1_555
N1_6 C2_6 1_555 1_555
N2_6 In2_4 1_555 1_555
O1_6 In2_4 1_555 1_555
O14 C1_6 1_555 1_555
O5_6 In2_4 1_555 1_555
O6_6 C8_6 1_555 1_555
O15_3 C14_6 1_555 1_555
O16_3 C14_6 1_555 1_555
O9_6 In2_4 1_555 1_555
O10_6 C15_6 1_555 1_555
O17_4 In2_4 1_555 1_555
C1_6 O1_6 1_555 1_555
C6_6 N1_6 1_555 1_555
C8_6 O5_6 1_555 1_555
C9_6 N2_6 1_555 1_555
C13_6 N2_6 1_555 1_555
C15_6 O9_6 1_555 1_555
C18_6 C19_6 1_555 1_555
C19_6 H8_6 1_555 1_555
C21_6 C18_6 1_555 1_555
O11_4 C21_6 1_555 1_555
O18_3 C21_6 1_555 1_555
In6_4 O11_4 1_555 1_555
C18_6 N4_3 1_555 1_555
O13_6 H10_6 1_555 1_555
O13_6 H11_6 1_555 1_555
C18_7 C19_7 1_555 1_555
C19_7 H8_7 1_555 1_555
C21_7 C18_7 1_555 1_555
O17_4 C21_7 1_555 1_555
O18_2 C21_7 1_555 1_555
O13_7 In5_2 1_555 1_555
O15_4 In5_2 1_555 1_555
C18_7 N4_2 1_555 1_555
O13_7 H10_7 1_555 1_555
O13_7 H11_7 1_555 1_555
In6_4 N1_7 1_555 1_555
C1_7 C2_7 1_555 1_555
C2_7 C3_5 1_555 1_555
C3_5 H1_5 1_555 1_555
N1_7 C2_7 1_555 1_555
O1_7 In6_4 1_555 1_555
O14_4 C1_7 1_555 1_555
O5_7 In6_4 1_555 1_555
O6_7 C8_7 1_555 1_555
C1_7 O1_7 1_555 1_555
C8_7 O5_7 1_555 1_555
H2_7 C4_7 1_555 1_555
C5_7 C4_7 1_555 1_555
C6_7 C5_7 1_555 1_555
H3_7 C6_7 1_555 1_555
C7_7 C5_7 1_555 1_555
C9_7 C10_7 1_555 1_555
C10_7 H4_7 1_555 1_555
C11_7 C10_7 1_555 1_555
H5_7 C11_7 1_555 1_555
C12_7 C11_7 1_555 1_555
C13_7 C12_7 1_555 1_555
H6_7 C13_7 1_555 1_555
C14_7 C12_7 1_555 1_555
C15_7 C16_7 1_555 1_555
C16_7 C17_7 1_555 1_555
C17_7 H7_7 1_555 1_555
C20_7 C16_7 1_555 1_555
H9_7 C20_7 1_555 1_555
O3_7 C7_7 1_555 1_555
O4_7 C7_7 1_555 1_555
O7_4 C14_7 1_555 1_555
O8_4 C14_7 1_555 1_555
O10_7 C15_7 1_555 1_555
In5 O7_4 1_555 1_555
C9_7 N2_7 1_555 1_555
C13_7 N2_7 1_555 1_555
C15_7 O9_7 1_555 1_555
O8_4 In5 1_555 1_555
In5 O4_8 1_555 1_555
In6_3 N1_8 1_555 1_555
C1_8 C2_8 1_555 1_555
C2_8 C3_6 1_555 1_555
C3_6 H1_6 1_555 1_555
C4_8 C3_6 1_555 1_555
H2_8 C4_8 1_555 1_555
C5_8 C4_8 1_555 1_555
C6_8 C5_8 1_555 1_555
H3_8 C6_8 1_555 1_555
C7_8 C5_8 1_555 1_555
C8_8 C9_8 1_555 1_555
C9_8 C10_8 1_555 1_555
C10_8 H4_8 1_555 1_555
C11_8 C10_8 1_555 1_555
C12_8 C11_8 1_555 1_555
C13_8 C12_8 1_555 1_555
H6_8 C13_8 1_555 1_555
C14_8 C12_8 1_555 1_555
C15_8 C16_8 1_555 1_555
C16_8 C17_8 1_555 1_555
C17_8 H7_8 1_555 1_555
C18_8 C19_8 1_555 1_555
C19_8 H8_8 1_555 1_555
C20_8 C16_8 1_555 1_555
H9_8 C20_8 1_555 1_555
C21_8 C18_8 1_555 1_555
N1_8 C2_8 1_555 1_555
N2_8 In6_3 1_555 1_555
N4 C17_8 1_555 1_555
O1_8 In6_3 1_555 1_555
O14_3 C1_8 1_555 1_555
O3_8 C7_8 1_555 1_555
O4_8 C7_8 1_555 1_555
O5_8 In6_3 1_555 1_555
O6_8 C8_8 1_555 1_555
O16_4 C14_8 1_555 1_555
O9_8 In6_3 1_555 1_555
O10_8 C15_8 1_555 1_555
O17_3 C21_8 1_555 1_555
O18 C21_8 1_555 1_555
O13_8 In5 1_555 1_555
C1_8 O1_8 1_555 1_555
C6_8 N1_8 1_555 1_555
C8_8 O5_8 1_555 1_555
C9_8 N2_8 1_555 1_555
C13_8 N2_8 1_555 1_555
C15_8 O9_8 1_555 1_555
C18_8 N4 1_555 1_555
C19_8 C20_8 1_555 1_555
O13_8 H10_8 1_555 1_555
O13_8 H11_8 1_555 1_555
C3_7 H1_7 1_555 1_555
C3_8 H1_8 1_555 1_555

#END
