
###############################################################################
#
# This file contains modified crystal structure data generated from the
# MOF subset of the Cambridge Structural Database (CSD) v543 
# hosted by the Cambridge Crystallographic Data Centre (CCDC).
#
# This work is licensed under the Creative Commons
# Attribution-NonCommercial-ShareAlike 4.0 International License.
# To view a copy of this license, visit
# http://creativecommons.org/licenses/by-nc-sa/4.0/
# or send a letter to
# Creative Commons, PO Box 1866, Mountain View, CA 94042, USA.
#
# CIF created using the CSD Python API on 29 September 2022
# The structure has been converted into the P1 space group
# The structure has a 3D framework
# The original CSD entry ZIFGOM is in the monoclinic crystal system
# The framework has been calculated to contain at least 10.0% void space
# The void calculation uses a probe of radius 1.32A, grid spacing 0.4
# H atom positions have been added when not included in the experimental data
#
###############################################################################

data_ZIFGOM
_chemical_formula_moiety         '(C108 H64 N8 O38 Zn8)n'
_symmetry_cell_setting           triclinic
_symmetry_space_group_name_H-M   'P 1'
_symmetry_Int_Tables_number      1
_space_group_name_Hall           'P 1'
loop_
_symmetry_equiv_pos_site_id
_symmetry_equiv_pos_as_xyz
1 x,y,z
_cell_length_a                   11.0612(16)
_cell_length_b                   15.0262(17)
_cell_length_c                   16.7833(16)
_cell_angle_alpha                90
_cell_angle_beta                 95.4910(10)
_cell_angle_gamma                90
_cell_volume                     2776.72
loop_
_atom_site_label
_atom_site_type_symbol
_atom_site_fract_x
_atom_site_fract_y
_atom_site_fract_z
Zn2 Zn 0.11418(3) 0.36344(2) 0.135395(19)
O5 O 0.2274(2) 0.43080(14) 0.07266(12)
O6 O 0.25938(19) 0.33253(14) 0.22874(13)
H2 H 0.2468 0.2837 0.2481
N3 N 0.0486(2) 0.46951(14) 0.19523(13)
Zn4 Zn 0.27927(3) 0.616288(19) 0.034358(18)
O13 O 0.0125(2) 0.26172(14) 0.17523(17)
O14 O 0.1523(3) 0.20431(18) 0.10569(16)
H16 H 0.261638 0.378634 0.271245
Zn1 Zn 0.72073(3) 0.383712(19) 0.965642(18)
O7 O 0.87289(17) 0.33856(13) 0.93064(12)
C3 C 0.9728(2) 0.34954(17) 0.97162(16)
H6 H 0.9955 0.2157 0.8754
O12 O 0.58570(17) 0.40630(13) 0.88389(12)
N1 N 0.4514(2) 0.96951(14) 0.30477(13)
C1 C 0.5682(3) 0.9766(2) 0.2931(2)
H1 H 0.6227 0.9356 0.3176
Zn5 Zn 0.38582(3) 0.86344(2) 0.364605(19)
O2 O 0.91430(17) 0.90630(13) 0.61611(12)
C4 C 0.8992(2) 0.87952(17) 0.68651(18)
O8 O 0.8256(2) 0.82212(14) 0.70196(13)
O9 O 0.9875(2) 0.73828(14) 0.82477(17)
C13 C 0.9776(3) 0.89476(17) 0.83255(18)
C18 C 0.9728(3) 0.92695(17) 0.75427(17)
C27 C 0.9312(3) 0.8037(2) 0.8523(2)
O10 O 0.8477(3) 0.79569(18) 0.89431(16)
Zn3 Zn 0.77927(3) 0.883712(19) 0.534358(18)
Zn6 Zn 0.88582(3) 0.63656(2) 0.864605(19)
C17 C 0.1226(3) 0.5321(2) 0.2285(2)
H8 H 0.2040 0.5302 0.2188
H10 H 0.0789 0.7404 0.3707
C22 C 0.0856(3) 0.5992(2) 0.2762(2)
H11 H 0.1413 0.6411 0.2978
H15 H 0.0081 0.8391 0.4586
O1 O 0.24050(18) 0.00863(12) 0.53383(11)
Zn4_2 Zn 0.22073(3) 0.116288(19) 0.465642(18)
C1_2 C 0.9318(3) 0.4766(2) 0.2069(2)
H1_2 H 0.8773 0.4356 0.1824
C2 C 0.2735(2) 0.93932(17) 0.50174(16)
O3 O 0.51749(19) 0.88272(15) 0.46086(12)
N2 N 0.8417(2) 0.79433(14) 0.45647(14)
O4 O 0.2978(2) 0.64052(13) 0.77782(13)
O5_2 O 0.2726(2) 0.93080(14) 0.42734(12)
O6_2 O 0.24062(19) 0.83253(14) 0.27126(13)
H2_2 H 0.2532 0.7837 0.2519
O7_2 O 0.62711(17) 0.83856(13) 0.56936(12)
C3_2 C 0.5272(2) 0.84954(17) 0.52838(16)
C4_2 C 0.6008(2) 0.37952(17) 0.81349(18)
C5 C 0.9659(3) 0.60421(17) 0.29187(16)
C6 C 0.4162(2) 0.81859(16) 0.56684(15)
C7 C 0.3041(2) 0.86192(16) 0.55696(16)
C8 C 0.3350(3) 0.71564(17) 0.65979(16)
C9 C 0.4179(3) 0.55844(17) 0.69671(17)
O8_2 O 0.6744(2) 0.32212(14) 0.79804(13)
C10 C 0.9230(3) 0.67162(17) 0.34782(17)
C11 C 0.8050(3) 0.6711(2) 0.3685(2)
H3 H 0.7501 0.6290 0.3463
C12 C 0.2263(3) 0.76286(18) 0.65297(18)
H4 H 0.1636 0.7458 0.6828
O9_2 O 0.5125(2) 0.23828(14) 0.67523(17)
C13_2 C 0.5224(3) 0.39476(17) 0.66745(18)
C14 C 0.2114(2) 0.83490(18) 0.60198(17)
H5 H 0.1382 0.8659 0.5976
C15 C 0.4303(2) 0.74521(17) 0.61820(16)
H6_2 H 0.5045 0.7157 0.6246
C16 C 0.4199(3) 0.52823(18) 0.61917(17)
H7 H 0.3886 0.5635 0.5766
C18_2 C 0.5272(3) 0.42695(17) 0.74573(17)
C19 C 0.4733(3) 0.50717(18) 0.76000(17)
H9 H 0.4736 0.5277 0.8123
C20 C 0.3480(3) 0.63944(17) 0.71654(17)
C21 C 0.9988(3) 0.7366(2) 0.38288(19)
C23 C 0.8884(3) 0.5421(2) 0.25367(19)
H12 H 0.8057 0.5448 0.2597
C24 C 0.4681(3) 0.44593(19) 0.60471(18)
H13 H 0.4644 0.4244 0.5526
C25 C 0.7685(3) 0.7330(2) 0.4218(2)
H14 H 0.6883 0.7316 0.4341
C26 C 0.9555(3) 0.7958(2) 0.43592(19)
C27_2 C 0.5688(3) 0.3037(2) 0.6477(2)
O10_2 O 0.6523(3) 0.29569(18) 0.60569(16)
O11 O 0.75950(18) 0.99137(12) 0.46617(11)
Zn6_2 Zn 0.61418(3) 0.13656(2) 0.635395(19)
O13_2 O 0.4875(2) 0.76172(14) 0.32477(17)
O14_2 O 0.3477(3) 0.70431(18) 0.39431(16)
H16_2 H 0.238362 0.878634 0.228755
O2_2 O 0.08570(17) 0.09370(13) 0.38389(12)
C4_3 C 0.1008(2) 0.12048(17) 0.31349(18)
O8_3 O 0.1744(2) 0.17788(14) 0.29804(13)
C13_3 C 0.0224(3) 0.10524(17) 0.16745(18)
C18_3 C 0.0272(3) 0.07305(17) 0.24573(17)
C27_3 C 0.0688(3) 0.1963(2) 0.1477(2)
N1_2 N 0.5486(2) 0.03049(14) 0.69523(13)
C1_3 C 0.4318(3) 0.0234(2) 0.7069(2)
H1_3 H 0.3773 0.0644 0.6824
O7_3 O 0.12711(17) 0.66144(13) 0.06936(12)
C3_3 C 0.0272(2) 0.65046(17) 0.02838(16)
H6_3 H 0.0045 0.7843 0.1246
O12_2 O 0.41430(17) 0.59370(13) 0.11611(12)
O5_3 O 0.7726(2) 0.56920(14) 0.92734(12)
O6_3 O 0.74062(19) 0.66747(14) 0.77126(13)
H2_3 H 0.7532 0.7163 0.7519
N3_2 N 0.9514(2) 0.53049(14) 0.80477(13)
H16_3 H 0.738362 0.621366 0.728755
C1_4 C 0.0682(3) 0.5234(2) 0.7931(2)
H1_4 H 0.1227 0.5644 0.8176
C2_2 C 0.7265(2) 0.06068(17) 0.49826(16)
O3_2 O 0.48251(19) 0.11728(15) 0.53914(12)
N2_2 N 0.1583(2) 0.20567(14) 0.54353(14)
O4_2 O 0.7022(2) 0.35948(13) 0.22218(13)
O5_4 O 0.7274(2) 0.06920(14) 0.57266(12)
O6_4 O 0.75938(19) 0.16747(14) 0.72874(13)
H2_4 H 0.7468 0.2163 0.7481
O7_4 O 0.37289(17) 0.16144(13) 0.43064(12)
C3_4 C 0.4728(2) 0.15046(17) 0.47162(16)
C4_4 C 0.3992(2) 0.62048(17) 0.18651(18)
C5_2 C 0.0341(3) 0.39579(17) 0.70813(16)
C6_2 C 0.5838(2) 0.18141(16) 0.43316(15)
C7_2 C 0.6959(2) 0.13808(16) 0.44304(16)
C8_2 C 0.6650(3) 0.28436(17) 0.34021(16)
C9_2 C 0.5821(3) 0.44156(17) 0.30329(17)
O8_4 O 0.3256(2) 0.67788(14) 0.20196(13)
C10_2 C 0.0770(3) 0.32838(17) 0.65218(17)
C11_2 C 0.1950(3) 0.3289(2) 0.6315(2)
H3_2 H 0.2499 0.3710 0.6537
C12_2 C 0.7737(3) 0.23714(18) 0.34703(18)
H4_2 H 0.8364 0.2542 0.3172
C13_4 C 0.4776(3) 0.60524(17) 0.33255(18)
C14_2 C 0.7886(2) 0.16510(18) 0.39802(17)
H5_2 H 0.8618 0.1341 0.4024
C15_2 C 0.5697(2) 0.25479(17) 0.38180(16)
H6_4 H 0.4955 0.2843 0.3754
C16_2 C 0.5801(3) 0.47177(18) 0.38083(17)
H7_2 H 0.6114 0.4365 0.4234
C18_4 C 0.4728(3) 0.57305(17) 0.25427(17)
C19_2 C 0.5267(3) 0.49283(18) 0.24000(17)
H9_2 H 0.5264 0.4723 0.1877
C20_2 C 0.6520(3) 0.36056(17) 0.28346(17)
C21_2 C 0.0012(3) 0.2634(2) 0.61712(19)
C23_2 C 0.1116(3) 0.4579(2) 0.74633(19)
H12_2 H 0.1943 0.4552 0.7403
C24_2 C 0.5319(3) 0.55407(19) 0.39529(18)
H13_2 H 0.5356 0.5756 0.4474
C25_2 C 0.2315(3) 0.2670(2) 0.5782(2)
H14_2 H 0.3117 0.2684 0.5659
C26_2 C 0.0445(3) 0.2042(2) 0.56408(19)
C27_4 C 0.4312(3) 0.6963(2) 0.3523(2)
H16_4 H 0.761638 0.121366 0.771245
C17_2 C 0.8774(3) 0.4679(2) 0.7715(2)
H8_2 H 0.7960 0.4698 0.7812
H10_2 H 0.9211 0.2596 0.6293
C22_2 C 0.9144(3) 0.4008(2) 0.7238(2)
H11_2 H 0.8587 0.3589 0.7022
H15_2 H 0.9919 0.1609 0.5414
O1_2 O 0.25950(18) 0.50863(12) 0.96617(11)
C2_3 C 0.2265(2) 0.43932(17) 0.99826(16)
O4_3 O 0.2022(2) 0.14052(13) 0.72218(13)
C6_3 C 0.0838(2) 0.31859(16) 0.93316(15)
C7_3 C 0.1959(2) 0.36192(16) 0.94304(16)
C8_3 C 0.1650(3) 0.21564(17) 0.84021(16)
C9_3 C 0.0821(3) 0.05844(17) 0.80329(17)
C12_3 C 0.2737(3) 0.26286(18) 0.84703(18)
H4_3 H 0.3364 0.2458 0.8172
C14_3 C 0.2886(2) 0.33490(18) 0.89802(17)
H5_3 H 0.3618 0.3659 0.9024
C15_3 C 0.0697(2) 0.24521(17) 0.88180(16)
C16_3 C 0.0801(3) 0.02823(18) 0.88083(17)
H7_3 H 0.1114 0.0635 0.9234
C19_3 C 0.0267(3) 0.00717(18) 0.74000(17)
H9_3 H 0.0264 0.0277 0.6877
C20_3 C 0.1520(3) 0.13944(17) 0.78346(17)
O3_3 O 0.01749(19) 0.61728(15) 0.96086(12)
N2_3 N 0.3417(2) 0.70567(14) 0.95647(14)
C5_3 C 0.4659(3) 0.89579(17) 0.79187(16)
C10_3 C 0.4230(3) 0.82838(17) 0.84782(17)
C11_3 C 0.3050(3) 0.8289(2) 0.8685(2)
H3_3 H 0.2501 0.8710 0.8463
C17_3 C 0.6226(3) 0.9679(2) 0.7285(2)
H8_3 H 0.7040 0.9698 0.7188
C21_3 C 0.4988(3) 0.7634(2) 0.88288(19)
H10_3 H 0.5789 0.7596 0.8707
C22_3 C 0.5856(3) 0.9008(2) 0.7762(2)
H11_3 H 0.6413 0.8589 0.7978
C23_3 C 0.3884(3) 0.9579(2) 0.75367(19)
H12_3 H 0.3057 0.9552 0.7597
C25_3 C 0.2685(3) 0.7670(2) 0.9218(2)
H14_3 H 0.1883 0.7684 0.9341
C26_3 C 0.4555(3) 0.7042(2) 0.93592(19)
H15_3 H 0.5081 0.6609 0.9586
C24_3 C 0.0319(3) 0.94593(19) 0.89529(18)
H13_3 H 0.0356 0.9244 0.9474
O3_4 O 0.98251(19) 0.38272(15) 0.03914(12)
N2_4 N 0.6583(2) 0.29433(14) 0.04353(14)
C5_4 C 0.5341(3) 0.10421(17) 0.20813(16)
C10_4 C 0.5770(3) 0.17162(17) 0.15218(17)
C11_4 C 0.6950(3) 0.1711(2) 0.1315(2)
H3_4 H 0.7499 0.1290 0.1537
C17_4 C 0.3774(3) 0.0321(2) 0.2715(2)
H8_4 H 0.2960 0.0302 0.2812
C21_4 C 0.5012(3) 0.2366(2) 0.11712(19)
H10_4 H 0.4211 0.2404 0.1293
C22_4 C 0.4144(3) 0.0992(2) 0.2238(2)
H11_4 H 0.3587 0.1411 0.2022
C23_4 C 0.6116(3) 0.0421(2) 0.24633(19)
H12_4 H 0.6943 0.0448 0.2403
C25_4 C 0.7315(3) 0.2330(2) 0.0782(2)
H14_4 H 0.8117 0.2316 0.0659
C26_4 C 0.5445(3) 0.2958(2) 0.06408(19)
H15_4 H 0.4919 0.3391 0.0414
O11_2 O 0.74050(18) 0.49137(12) 0.03383(11)
C2_4 C 0.7735(2) 0.56068(17) 0.00174(16)
O4_4 O 0.7978(2) 0.85948(13) 0.27782(13)
C6_4 C 0.9162(2) 0.68141(16) 0.06684(15)
C7_4 C 0.8041(2) 0.63808(16) 0.05696(16)
C8_4 C 0.8350(3) 0.78436(17) 0.15979(16)
C9_4 C 0.9179(3) 0.94156(17) 0.19671(17)
C12_4 C 0.7263(3) 0.73714(18) 0.15297(18)
H4_4 H 0.6636 0.7542 0.1828
C14_4 C 0.7114(2) 0.66510(18) 0.10198(17)
H5_4 H 0.6382 0.6341 0.0976
C15_4 C 0.9303(2) 0.75479(17) 0.11820(16)
C16_4 C 0.9199(3) 0.97177(18) 0.11917(17)
H7_4 H 0.8886 0.9365 0.0766
C19_4 C 0.9733(3) 0.99283(18) 0.26000(17)
H9_4 H 0.9736 0.9723 0.3123
C20_4 C 0.8480(3) 0.86056(17) 0.21654(17)
C24_4 C 0.9681(3) 0.05407(19) 0.10471(18)
H13_4 H 0.9644 0.0756 0.0526
loop_
_geom_bond_atom_site_label_1
_geom_bond_atom_site_label_2
_geom_bond_site_symmetry_1
_geom_bond_site_symmetry_2
O5 Zn2 1_555 1_555
O6 Zn2 1_555 1_555
H2 O6 1_555 1_555
N3 Zn2 1_555 1_555
O13 Zn2 1_555 1_555
O14 Zn2 1_555 1_555
O6 H16 1_555 1_555
O7 Zn1 1_555 1_555
C3 O7 1_555 1_555
O12 Zn1 1_555 1_555
N1 C1 1_555 1_555
C1 H1 1_555 1_555
Zn5 N1 1_555 1_555
O2 C4 1_555 1_555
C4 O8 1_555 1_555
O9 C27 1_555 1_555
C13 C18 1_555 1_555
C18 C4 1_555 1_555
C27 C13 1_555 1_555
O10 C27 1_555 1_555
Zn3 O2 1_555 1_555
Zn6 O9 1_555 1_555
O10 Zn6 1_555 1_555
C17 N3 1_555 1_555
H8 C17 1_555 1_555
H11 C22 1_555 1_555
C17 C22 1_555 1_555
Zn4_2 O1 1_555 1_555
C1_2 H1_2 1_555 1_555
C2 O5_2 1_555 1_555
Zn3 N2 1_555 1_555
Zn5 O3 1_555 1_555
O12 C4_2 1_555 1_555
O3 C3_2 1_555 1_555
N2 C25 1_555 1_555
O4 C20 1_555 1_555
O5_2 Zn5 1_555 1_555
O6_2 Zn5 1_555 1_555
H2_2 O6_2 1_555 1_555
O7_2 Zn3 1_555 1_555
C3_2 O7_2 1_555 1_555
C4_2 O8_2 1_555 1_555
C5 C10 1_555 1_555
C6 C3_2 1_555 1_555
C7 C2 1_555 1_555
C8 C12 1_555 1_555
C9 C16 1_555 1_555
C10 C11 1_555 1_555
C11 H3 1_555 1_555
C12 H4 1_555 1_555
O9_2 C27_2 1_555 1_555
C13_2 C18_2 1_555 1_555
C14 C7 1_555 1_555
H5 C14 1_555 1_555
C15 C6 1_555 1_555
H6_2 C15 1_555 1_555
C16 H7 1_555 1_555
C18_2 C4_2 1_555 1_555
C19 C9 1_555 1_555
H9 C19 1_555 1_555
C20 C8 1_555 1_555
C21 C10 1_555 1_555
C23 C1_2 1_555 1_555
H12 C23 1_555 1_555
C24 C13_2 1_555 1_555
H13 C24 1_555 1_555
C25 C11 1_555 1_555
H14 C25 1_555 1_555
C26 N2 1_555 1_555
C27_2 C13_2 1_555 1_555
O10_2 C27_2 1_555 1_555
O11 Zn3 1_555 1_555
Zn6_2 O9_2 1_555 1_555
O13_2 Zn5 1_555 1_555
O14_2 Zn5 1_555 1_555
C5 C23 1_555 1_555
C6 C7 1_555 1_555
C8 C15 1_555 1_555
C9 C20 1_555 1_555
C12 C14 1_555 1_555
C16 C24 1_555 1_555
C18_2 C19 1_555 1_555
C21 C26 1_555 1_555
O10_2 Zn6_2 1_555 1_555
O6_2 H16_2 1_555 1_555
O2_2 C4_3 1_555 1_555
C4_3 O8_3 1_555 1_555
O13 C27_3 1_555 1_555
C13_3 C18_3 1_555 1_555
C18_3 C4_3 1_555 1_555
C27_3 C13_3 1_555 1_555
O14 C27_3 1_555 1_555
Zn4_2 O2_2 1_555 1_555
N1_2 C1_3 1_555 1_555
C1_3 H1_3 1_555 1_555
Zn6_2 N1_2 1_555 1_555
O7_3 Zn4 1_555 1_555
C3_3 O7_3 1_555 1_555
O12_2 Zn4 1_555 1_555
O5_3 Zn6 1_555 1_555
O6_3 Zn6 1_555 1_555
H2_3 O6_3 1_555 1_555
N3_2 Zn6 1_555 1_555
O6_3 H16_3 1_555 1_555
C1_4 H1_4 1_555 1_555
C2_2 O5_4 1_555 1_555
Zn4_2 N2_2 1_555 1_555
Zn6_2 O3_2 1_555 1_555
O12_2 C4_4 1_555 1_555
O3_2 C3_4 1_555 1_555
N2_2 C25_2 1_555 1_555
O4_2 C20_2 1_555 1_555
O5_4 Zn6_2 1_555 1_555
O6_4 Zn6_2 1_555 1_555
H2_4 O6_4 1_555 1_555
O7_4 Zn4_2 1_555 1_555
C3_4 O7_4 1_555 1_555
C4_4 O8_4 1_555 1_555
C5_2 C10_2 1_555 1_555
C6_2 C3_4 1_555 1_555
C7_2 C2_2 1_555 1_555
C8_2 C12_2 1_555 1_555
C9_2 C16_2 1_555 1_555
C10_2 C11_2 1_555 1_555
C11_2 H3_2 1_555 1_555
C12_2 H4_2 1_555 1_555
O13_2 C27_4 1_555 1_555
C13_4 C18_4 1_555 1_555
C14_2 C7_2 1_555 1_555
H5_2 C14_2 1_555 1_555
C15_2 C6_2 1_555 1_555
H6_4 C15_2 1_555 1_555
C16_2 H7_2 1_555 1_555
C18_4 C4_4 1_555 1_555
C19_2 C9_2 1_555 1_555
H9_2 C19_2 1_555 1_555
C20_2 C8_2 1_555 1_555
C21_2 C10_2 1_555 1_555
C23_2 C1_4 1_555 1_555
H12_2 C23_2 1_555 1_555
C24_2 C13_4 1_555 1_555
H13_2 C24_2 1_555 1_555
C25_2 C11_2 1_555 1_555
H14_2 C25_2 1_555 1_555
C26_2 N2_2 1_555 1_555
C27_4 C13_4 1_555 1_555
O14_2 C27_4 1_555 1_555
C5_2 C23_2 1_555 1_555
C6_2 C7_2 1_555 1_555
C8_2 C15_2 1_555 1_555
C9_2 C20_2 1_555 1_555
C12_2 C14_2 1_555 1_555
C16_2 C24_2 1_555 1_555
C18_4 C19_2 1_555 1_555
C21_2 C26_2 1_555 1_555
O6_4 H16_4 1_555 1_555
C17_2 N3_2 1_555 1_555
H8_2 C17_2 1_555 1_555
H11_2 C22_2 1_555 1_555
C17_2 C22_2 1_555 1_555
O1_2 C2_3 1_555 1_555
O4_3 C20_3 1_555 1_555
C7_3 C2_3 1_555 1_555
C8_3 C12_3 1_555 1_555
C9_3 C16_3 1_555 1_555
C12_3 H4_3 1_555 1_555
C14_3 C7_3 1_555 1_555
H5_3 C14_3 1_555 1_555
C15_3 C6_3 1_555 1_555
C16_3 H7_3 1_555 1_555
C19_3 C9_3 1_555 1_555
H9_3 C19_3 1_555 1_555
C20_3 C8_3 1_555 1_555
C6_3 C7_3 1_555 1_555
C8_3 C15_3 1_555 1_555
C9_3 C20_3 1_555 1_555
C12_3 C14_3 1_555 1_555
N2_3 C25_3 1_555 1_555
C5_3 C10_3 1_555 1_555
C10_3 C11_3 1_555 1_555
C11_3 H3_3 1_555 1_555
H8_3 C17_3 1_555 1_555
C21_3 C10_3 1_555 1_555
H10_3 C21_3 1_555 1_555
C22_3 C5_3 1_555 1_555
H11_3 C22_3 1_555 1_555
H12_3 C23_3 1_555 1_555
C25_3 C11_3 1_555 1_555
H14_3 C25_3 1_555 1_555
C26_3 N2_3 1_555 1_555
H15_3 C26_3 1_555 1_555
C5_3 C23_3 1_555 1_555
C17_3 C22_3 1_555 1_555
C21_3 C26_3 1_555 1_555
H13_3 C24_3 1_555 1_555
N2_4 C25_4 1_555 1_555
C5_4 C10_4 1_555 1_555
C10_4 C11_4 1_555 1_555
C11_4 H3_4 1_555 1_555
H8_4 C17_4 1_555 1_555
C21_4 C10_4 1_555 1_555
H10_4 C21_4 1_555 1_555
C22_4 C5_4 1_555 1_555
H11_4 C22_4 1_555 1_555
H12_4 C23_4 1_555 1_555
C25_4 C11_4 1_555 1_555
H14_4 C25_4 1_555 1_555
C26_4 N2_4 1_555 1_555
H15_4 C26_4 1_555 1_555
C5_4 C23_4 1_555 1_555
C17_4 C22_4 1_555 1_555
C21_4 C26_4 1_555 1_555
O11_2 C2_4 1_555 1_555
O4_4 C20_4 1_555 1_555
C7_4 C2_4 1_555 1_555
C8_4 C12_4 1_555 1_555
C9_4 C16_4 1_555 1_555
C12_4 H4_4 1_555 1_555
C14_4 C7_4 1_555 1_555
H5_4 C14_4 1_555 1_555
C15_4 C6_4 1_555 1_555
C16_4 H7_4 1_555 1_555
C19_4 C9_4 1_555 1_555
H9_4 C19_4 1_555 1_555
C20_4 C8_4 1_555 1_555
C6_4 C7_4 1_555 1_555
C8_4 C15_4 1_555 1_555
C9_4 C20_4 1_555 1_555
C12_4 C14_4 1_555 1_555
H13_4 C24_4 1_555 1_555

#END
