
###############################################################################
#
# This file contains modified crystal structure data generated from the
# MOF subset of the Cambridge Structural Database (CSD) v543 
# hosted by the Cambridge Crystallographic Data Centre (CCDC).
#
# This work is licensed under the Creative Commons
# Attribution-NonCommercial-ShareAlike 4.0 International License.
# To view a copy of this license, visit
# http://creativecommons.org/licenses/by-nc-sa/4.0/
# or send a letter to
# Creative Commons, PO Box 1866, Mountain View, CA 94042, USA.
#
# CIF created using the CSD Python API on 29 September 2022
# The structure has been converted into the P1 space group
# The structure has a 3D framework
# The original CSD entry ZIFZUM is in the triclinic crystal system
# The framework has been calculated to contain at least 10.0% void space
# The void calculation uses a probe of radius 1.32A, grid spacing 0.4
# The framework is charged, counterions have been retained in the structure
# H atom positions have been added when not included in the experimental data
#
###############################################################################

data_ZIFZUM
_chemical_formula_moiety         '(C84 H44 N4 O34 Tb4 4-)n'
_symmetry_cell_setting           triclinic
_symmetry_space_group_name_H-M   'P 1'
_symmetry_Int_Tables_number      1
_space_group_name_Hall           'P 1'
loop_
_symmetry_equiv_pos_site_id
_symmetry_equiv_pos_as_xyz
1 x,y,z
_cell_length_a                   9.7337(19)
_cell_length_b                   15.767(3)
_cell_length_c                   17.977(4)
_cell_angle_alpha                65.66(3)
_cell_angle_beta                 89.99(3)
_cell_angle_gamma                84.53(3)
_cell_volume                     2499.95
loop_
_atom_site_label
_atom_site_type_symbol
_atom_site_fract_x
_atom_site_fract_y
_atom_site_fract_z
Tb4 Tb 0.10322(5) 0.77655(3) 0.36798(3)
O11 O 0.5075(9) 0.2534(5) 0.0126(5)
O15 O 0.1739(8) 0.7351(5) 0.0651(6)
O16 O 0.3060(7) 0.6025(5) 0.1007(5)
C22 C 0.3726(11) 0.1283(8) 0.0857(6)
C23 C 0.3464(12) 0.0366(7) 0.1035(7)
H10 H 0.3995 0.0018 0.0808
C25 C 0.1610(12) 0.0496(7) 0.1878(7)
H11 H 0.0898 0.0232 0.2214
C26 C 0.1849(11) 0.1418(7) 0.1711(7)
C27 C 0.2919(11) 0.1792(7) 0.1198(7)
H12 H 0.3096 0.2402 0.1082
C28 C 0.0652(11) 0.5937(8) 0.1117(7)
C33 C 0.0779(11) 0.4962(8) 0.1417(7)
H15 H 0.1633 0.4649 0.1406
C34 C 0.0391(14) 0.1507(8) 0.2811(8)
H16 H 0.0535 0.0857 0.3054
C35 C 0.0990(11) 0.1958(7) 0.2074(7)
C36 C 0.0724(11) 0.2941(8) 0.1717(7)
H17 H 0.1096 0.3279 0.1218
C40 C 0.4805(11) 0.1738(8) 0.0256(7)
C42 C 0.1873(11) 0.6464(8) 0.0889(7)
Tb7 Tb 0.40476(5) 0.73169(3) 0.12335(3)
O12 O 0.5351(8) 0.1285(5) 0.9870(5)
Tb8 Tb 0.59524(5) 0.26831(3) 0.87665(3)
O1 O 0.2949(9) 0.6507(5) 0.2418(5)
O2 O 0.1394(9) 0.6543(5) 0.3299(5)
O3 O 0.0294(9) 0.2306(6) 0.5099(5)
O4 O 0.0359(11) 0.3471(6) 0.5468(6)
O9 O 0.2754(9) 0.8580(5) 0.1355(6)
O10 O 0.1244(9) 0.8637(5) 0.2262(5)
O17 O 0.2441(11) 0.6676(9) 0.4857(7)
O18 O 0.5166(10) 0.7574(8) 0.2324(6)
C1 C 0.2281(12) 0.3145(7) 0.3883(7)
H1 H 0.2285 0.2501 0.4066
C2 C 0.3100(12) 0.3626(8) 0.3240(7)
C3 C 0.3040(12) 0.4591(8) 0.2965(7)
H2 H 0.3600 0.4918 0.2545
C4 C 0.2170(12) 0.5083(8) 0.3296(7)
C5 C 0.1413(14) 0.4586(8) 0.3962(8)
H3 H 0.0873 0.4901 0.4214
C6 C 0.1462(14) 0.3612(8) 0.4254(8)
C7 C 0.5501(12) 0.0727(8) 0.3058(7)
C8 C 0.4415(12) 0.0164(8) 0.3279(7)
H4 H 0.3531 0.0423 0.3313
C12 C 0.6829(12) 0.0315(7) 0.3056(7)
H6 H 0.7555 0.0687 0.2912
C13 C 0.5908(14) 0.2350(9) 0.2115(8)
H7 H 0.6530 0.2078 0.1863
C14 C 0.5234(12) 0.1764(8) 0.2787(7)
C15 C 0.4311(13) 0.2167(8) 0.3149(8)
H8 H 0.3834 0.1790 0.3592
C16 C 0.4072(12) 0.3154(8) 0.2854(7)
C17 C 0.4795(16) 0.3654(9) 0.2182(9)
H9 H 0.4639 0.4304 0.1965
C18 C 0.2169(12) 0.6127(7) 0.2971(7)
C19 C 0.0663(14) 0.3095(8) 0.4984(8)
C24 C 0.2415(10) 0.9967(7) 0.1551(6)
C39 C 0.2107(12) 0.8983(7) 0.1742(7)
N1 N 0.5707(16) 0.3275(8) 0.1817(8)
O23 O 0.2377(8) 0.8862(6) 0.3890(6)
O24 O 0.3562(8) 0.7942(6) 0.3424(6)
O26 O 0.4649(8) 0.8715(5) 0.0130(5)
O27 O 0.5797(8) 0.5946(5) 0.1661(5)
O28 O 0.6737(8) 0.7263(5) 0.1200(6)
H19 H 0.556269 0.696384 0.275223
H20 H 0.591535 0.798267 0.209786
H21 H 0.335637 0.651601 0.467732
H22 H 0.256742 0.696729 0.524456
O25 O 0.4925(9) 0.7466(5) 0.9874(5)
O5 O 0.8654(8) 0.8189(6) 0.3143(5)
O6 O 0.9527(8) 0.9296(5) 0.3369(5)
C9 C 0.4656(11) 0.9208(8) 0.3449(7)
C10 C 0.5978(11) 0.8814(8) 0.3440(7)
H5 H 0.6133 0.8181 0.3553
C11 C 0.7096(11) 0.9362(8) 0.3261(7)
C20 C 0.8514(11) 0.8934(7) 0.3251(7)
C21 C 0.3463(11) 0.8635(8) 0.3612(8)
C29 C 0.9326(11) 0.6391(7) 0.1106(7)
H13 H 0.9197 0.7042 0.0881
C30 C 0.8219(11) 0.5890(8) 0.1423(7)
C31 C 0.8416(12) 0.4903(8) 0.1739(8)
H14 H 0.7676 0.4559 0.1955
C32 C 0.9681(11) 0.4447(8) 0.1731(7)
C37 C 0.9933(11) 0.3414(7) 0.2084(8)
C38 C 0.9388(14) 0.2871(8) 0.2841(9)
H18 H 0.8845 0.3174 0.3101
C41 C 0.6840(11) 0.6389(7) 0.1428(7)
N2 N 0.9626(13) 0.1920(7) 0.3205(8)
Tb5 Tb 0.89678(5) 0.22345(3) 0.63202(3)
O19 O 0.9706(9) 0.7694(6) 0.4901(5)
O20 O 0.9641(11) 0.6529(6) 0.4532(6)
O21 O 0.1346(8) 0.1811(6) 0.6857(5)
O22 O 0.0473(8) 0.0704(5) 0.6631(5)
O13 O 0.4203(8) 0.4054(5) 0.8339(5)
O14 O 0.3263(8) 0.2737(5) 0.8800(6)
C29_2 C 0.0674(11) 0.3609(7) 0.8894(7)
H13_2 H 0.0803 0.2958 0.9119
C30_2 C 0.1781(11) 0.4110(8) 0.8577(7)
C31_2 C 0.1584(12) 0.5097(8) 0.8261(8)
H14_2 H 0.2324 0.5441 0.8045
C32_2 C 0.0319(11) 0.5553(8) 0.8269(7)
C37_2 C 0.0067(11) 0.6586(7) 0.7916(8)
C38_2 C 0.0612(14) 0.7129(8) 0.7159(9)
H18_2 H 0.1155 0.6826 0.6899
C41_2 C 0.3160(11) 0.3611(7) 0.8572(7)
N2_2 N 0.0374(13) 0.8080(7) 0.6795(8)
O7 O 0.7623(8) 0.1138(6) 0.6110(6)
O8 O 0.6438(8) 0.2058(6) 0.6576(6)
C9_2 C 0.5344(11) 0.0792(8) 0.6551(7)
C10_2 C 0.4022(11) 0.1186(8) 0.6560(7)
H5_2 H 0.3867 0.1819 0.6447
C11_2 C 0.2904(11) 0.0638(8) 0.6739(7)
C20_2 C 0.1486(11) 0.1066(7) 0.6749(7)
C21_2 C 0.6537(11) 0.1365(8) 0.6388(8)
O1_2 O 0.7051(9) 0.3493(5) 0.7582(5)
O2_2 O 0.8606(9) 0.3457(5) 0.6701(5)
O9_2 O 0.7246(9) 0.1420(5) 0.8645(6)
O10_2 O 0.8756(9) 0.1363(5) 0.7738(5)
O17_2 O 0.7559(11) 0.3324(9) 0.5143(7)
O18_2 O 0.4834(10) 0.2426(8) 0.7676(6)
C1_2 C 0.7719(12) 0.6855(7) 0.6117(7)
H1_2 H 0.7715 0.7499 0.5934
C2_2 C 0.6900(12) 0.6374(8) 0.6760(7)
C3_2 C 0.6960(12) 0.5409(8) 0.7035(7)
H2_2 H 0.6400 0.5082 0.7455
C4_2 C 0.7830(12) 0.4917(8) 0.6704(7)
C5_2 C 0.8587(14) 0.5414(8) 0.6038(8)
H3_2 H 0.9127 0.5099 0.5786
C6_2 C 0.8538(14) 0.6388(8) 0.5746(8)
C7_2 C 0.4499(12) 0.9273(8) 0.6942(7)
C8_2 C 0.5585(12) 0.9836(8) 0.6721(7)
H4_2 H 0.6469 0.9577 0.6687
C12_2 C 0.3171(12) 0.9685(7) 0.6944(7)
H6_2 H 0.2445 0.9313 0.7088
C13_2 C 0.4092(14) 0.7650(9) 0.7885(8)
H7_2 H 0.3470 0.7922 0.8137
C14_2 C 0.4766(12) 0.8236(8) 0.7213(7)
C15_2 C 0.5689(13) 0.7833(8) 0.6851(8)
H8_2 H 0.6166 0.8210 0.6408
C16_2 C 0.5928(12) 0.6846(8) 0.7146(7)
C17_2 C 0.5205(16) 0.6346(9) 0.7818(9)
H9_2 H 0.5361 0.5696 0.8035
C18_2 C 0.7831(12) 0.3873(7) 0.7029(7)
C19_2 C 0.9337(14) 0.6905(8) 0.5016(8)
C24_2 C 0.7585(10) 0.0033(7) 0.8449(6)
C39_2 C 0.7893(12) 0.1017(7) 0.8258(7)
N1_2 N 0.4293(16) 0.6725(8) 0.8183(8)
O29 O 0.8261(8) 0.2649(5) 0.9349(6)
O30 O 0.6940(7) 0.3975(5) 0.8993(5)
H19_2 H 0.443731 0.303616 0.724777
H20_2 H 0.408465 0.201733 0.790214
H21_2 H 0.664363 0.348399 0.532268
H22_2 H 0.743258 0.303271 0.475544
C22_2 C 0.6274(11) 0.8717(8) 0.9143(6)
C23_2 C 0.6536(12) 0.9634(7) 0.8965(7)
H10_2 H 0.6005 0.9982 0.9192
C25_2 C 0.8390(12) 0.9504(7) 0.8122(7)
H11_2 H 0.9102 0.9768 0.7786
C26_2 C 0.8151(11) 0.8582(7) 0.8289(7)
C27_2 C 0.7081(11) 0.8208(7) 0.8802(7)
H12_2 H 0.6904 0.7598 0.8918
C28_2 C 0.9348(11) 0.4063(8) 0.8883(7)
C33_2 C 0.9221(11) 0.5038(8) 0.8583(7)
H15_2 H 0.8367 0.5351 0.8594
C34_2 C 0.9609(14) 0.8493(8) 0.7189(8)
H16_2 H 0.9465 0.9143 0.6946
C35_2 C 0.9010(11) 0.8042(7) 0.7926(7)
C36_2 C 0.9276(11) 0.7059(8) 0.8283(7)
H17_2 H 0.8904 0.6721 0.8782
C40_2 C 0.5195(11) 0.8262(8) 0.9744(7)
C42_2 C 0.8127(11) 0.3536(8) 0.9111(7)
loop_
_geom_bond_atom_site_label_1
_geom_bond_atom_site_label_2
_geom_bond_site_symmetry_1
_geom_bond_site_symmetry_2
O11 C40 1_555 1_555
O15 C42 1_555 1_555
O16 C42 1_555 1_555
C22 C23 1_555 1_555
C23 H10 1_555 1_555
H11 C25 1_555 1_555
C26 C25 1_555 1_555
C27 C22 1_555 1_555
H12 C27 1_555 1_555
C33 C28 1_555 1_555
H15 C33 1_555 1_555
C34 H16 1_555 1_555
C35 C26 1_555 1_555
C36 C35 1_555 1_555
H17 C36 1_555 1_555
C40 C22 1_555 1_555
C42 C28 1_555 1_555
Tb7 O15 1_555 1_555
O16 Tb7 1_555 1_555
C26 C27 1_555 1_555
C34 C35 1_555 1_555
O12 Tb8 1_555 1_555
Tb4 O2 1_555 1_555
Tb7 O1 1_555 1_555
O1 C18 1_555 1_555
O2 C18 1_555 1_555
O3 C19 1_555 1_555
O4 C19 1_555 1_555
O9 Tb7 1_555 1_555
O10 Tb4 1_555 1_555
O17 Tb4 1_555 1_555
O18 Tb7 1_555 1_555
C1 H1 1_555 1_555
C2 C1 1_555 1_555
C3 C2 1_555 1_555
H2 C3 1_555 1_555
C4 C3 1_555 1_555
C5 C4 1_555 1_555
H3 C5 1_555 1_555
C6 C1 1_555 1_555
C7 C8 1_555 1_555
C8 H4 1_555 1_555
C12 C7 1_555 1_555
H6 C12 1_555 1_555
C13 H7 1_555 1_555
C14 C7 1_555 1_555
C15 C14 1_555 1_555
H8 C15 1_555 1_555
C16 C2 1_555 1_555
C17 C16 1_555 1_555
H9 C17 1_555 1_555
C18 C4 1_555 1_555
C19 C6 1_555 1_555
C39 O9 1_555 1_555
N1 C13 1_555 1_555
O23 Tb4 1_555 1_555
O24 Tb4 1_555 1_555
O26 Tb7 1_555 1_555
O27 Tb7 1_555 1_555
O28 Tb7 1_555 1_555
O10 C39 1_555 1_555
C5 C6 1_555 1_555
C13 C14 1_555 1_555
C15 C16 1_555 1_555
C17 N1 1_555 1_555
C24 C39 1_555 1_555
O18 H19 1_555 1_555
O18 H20 1_555 1_555
O17 H21 1_555 1_555
O17 H22 1_555 1_555
O5 C20 1_555 1_555
O6 C20 1_555 1_555
O23 C21 1_555 1_555
O24 C21 1_555 1_555
C10 C9 1_555 1_555
H5 C10 1_555 1_555
C11 C10 1_555 1_555
C20 C11 1_555 1_555
C21 C9 1_555 1_555
O27 C41 1_555 1_555
O28 C41 1_555 1_555
C29 H13 1_555 1_555
C30 C29 1_555 1_555
C31 C30 1_555 1_555
H14 C31 1_555 1_555
C32 C31 1_555 1_555
C37 C32 1_555 1_555
C38 C37 1_555 1_555
H18 C38 1_555 1_555
C41 C30 1_555 1_555
C38 N2 1_555 1_555
O13 C41_2 1_555 1_555
O14 C41_2 1_555 1_555
C29_2 H13_2 1_555 1_555
C30_2 C29_2 1_555 1_555
C31_2 C30_2 1_555 1_555
H14_2 C31_2 1_555 1_555
C32_2 C31_2 1_555 1_555
C37_2 C32_2 1_555 1_555
C38_2 C37_2 1_555 1_555
H18_2 C38_2 1_555 1_555
C41_2 C30_2 1_555 1_555
Tb8 O13 1_555 1_555
O14 Tb8 1_555 1_555
C38_2 N2_2 1_555 1_555
O21 C20_2 1_555 1_555
O22 C20_2 1_555 1_555
O7 C21_2 1_555 1_555
O8 C21_2 1_555 1_555
C10_2 C9_2 1_555 1_555
H5_2 C10_2 1_555 1_555
C11_2 C10_2 1_555 1_555
C20_2 C11_2 1_555 1_555
C21_2 C9_2 1_555 1_555
Tb5 O7 1_555 1_555
O8 Tb5 1_555 1_555
Tb5 O2_2 1_555 1_555
Tb8 O1_2 1_555 1_555
O1_2 C18_2 1_555 1_555
O2_2 C18_2 1_555 1_555
O19 C19_2 1_555 1_555
O20 C19_2 1_555 1_555
O9_2 Tb8 1_555 1_555
O10_2 Tb5 1_555 1_555
O17_2 Tb5 1_555 1_555
O18_2 Tb8 1_555 1_555
C1_2 H1_2 1_555 1_555
C2_2 C1_2 1_555 1_555
C3_2 C2_2 1_555 1_555
H2_2 C3_2 1_555 1_555
C4_2 C3_2 1_555 1_555
C5_2 C4_2 1_555 1_555
H3_2 C5_2 1_555 1_555
C6_2 C1_2 1_555 1_555
C7_2 C8_2 1_555 1_555
C8_2 H4_2 1_555 1_555
C12_2 C7_2 1_555 1_555
H6_2 C12_2 1_555 1_555
C13_2 H7_2 1_555 1_555
C14_2 C7_2 1_555 1_555
C15_2 C14_2 1_555 1_555
H8_2 C15_2 1_555 1_555
C16_2 C2_2 1_555 1_555
C17_2 C16_2 1_555 1_555
H9_2 C17_2 1_555 1_555
C18_2 C4_2 1_555 1_555
C19_2 C6_2 1_555 1_555
C39_2 O9_2 1_555 1_555
N1_2 C13_2 1_555 1_555
O29 Tb8 1_555 1_555
O30 Tb8 1_555 1_555
O10_2 C39_2 1_555 1_555
C5_2 C6_2 1_555 1_555
C13_2 C14_2 1_555 1_555
C15_2 C16_2 1_555 1_555
C17_2 N1_2 1_555 1_555
C24_2 C39_2 1_555 1_555
O18_2 H19_2 1_555 1_555
O18_2 H20_2 1_555 1_555
O17_2 H21_2 1_555 1_555
O17_2 H22_2 1_555 1_555
O25 C40_2 1_555 1_555
O29 C42_2 1_555 1_555
O30 C42_2 1_555 1_555
C22_2 C23_2 1_555 1_555
C23_2 H10_2 1_555 1_555
H11_2 C25_2 1_555 1_555
C26_2 C25_2 1_555 1_555
C27_2 C22_2 1_555 1_555
H12_2 C27_2 1_555 1_555
C33_2 C28_2 1_555 1_555
H15_2 C33_2 1_555 1_555
C34_2 H16_2 1_555 1_555
C35_2 C26_2 1_555 1_555
C36_2 C35_2 1_555 1_555
H17_2 C36_2 1_555 1_555
C40_2 C22_2 1_555 1_555
C42_2 C28_2 1_555 1_555
C26_2 C27_2 1_555 1_555
C34_2 C35_2 1_555 1_555

#END
