
###############################################################################
#
# This file contains modified crystal structure data generated from the
# MOF subset of the Cambridge Structural Database (CSD) v543 
# hosted by the Cambridge Crystallographic Data Centre (CCDC).
#
# This work is licensed under the Creative Commons
# Attribution-NonCommercial-ShareAlike 4.0 International License.
# To view a copy of this license, visit
# http://creativecommons.org/licenses/by-nc-sa/4.0/
# or send a letter to
# Creative Commons, PO Box 1866, Mountain View, CA 94042, USA.
#
# CIF created using the CSD Python API on 29 September 2022
# The structure has been converted into the P1 space group
# The structure has a 3D framework
# The original CSD entry ZIGLOT is in the rhombohedral crystal system
# The framework has been calculated to contain at least 10.0% void space
# The void calculation uses a probe of radius 1.32A, grid spacing 0.4
# The framework is charged, counterions have been retained in the structure
#
###############################################################################

data_ZIGLOT
_chemical_formula_moiety         '(C22 H30 Ni9 O32 3-)n'
_symmetry_cell_setting           triclinic
_symmetry_space_group_name_H-M   'P 1'
_symmetry_Int_Tables_number      1
_space_group_name_Hall           'P 1'
loop_
_symmetry_equiv_pos_site_id
_symmetry_equiv_pos_as_xyz
1 x,y,z
_cell_length_a                   8.0794(7)
_cell_length_b                   8.0794(7)
_cell_length_c                   21.859(3)
_cell_angle_alpha                90
_cell_angle_beta                 90
_cell_angle_gamma                120
_cell_volume                     1235.72
loop_
_atom_site_label
_atom_site_type_symbol
_atom_site_fract_x
_atom_site_fract_y
_atom_site_fract_z
Ni1 Ni 0.0000 0.0000 0.0000
C2 C 0.2060(5) 0.3334(7) 0.0833
H2 H 0.071(5) 0.333(7) 0.0833
O3 O 0.2153(2) 0.2070(3) 0.05333(9)
O4 O 0.3416(2) 0.4597(3) 0.11334(9)
Ni4 Ni 0.3333 0.6667 0.1667
Ni1_2 Ni -0.0000 -0.0000 1.0000
O7 O 0.0083(2) 0.2153(2) 0.94667(9)
Ni1_3 Ni -0.0000 1.0000 0.0000
C1 C 0.1274(5) 0.7940(5) 0.0833
H1 H 0.262(5) 0.929(5) 0.0833
O2 O 0.1180(2) 0.6584(2) 0.11334(9)
Ni1_4 Ni 0.0000 1.0000 1.0000
O9 O 0.2070(3) 0.9917(2) 0.94667(9)
Ni1_5 Ni 1.0000 0.0000 0.0000
O5 O 0.7930(3) 0.0083(2) 0.05333(9)
Ni1_6 Ni 1.0000 -0.0000 1.0000
Ni1_7 Ni 1.0000 1.0000 0.0000
O1 O 0.9917(2) 0.7847(2) 0.05333(9)
C3 C 0.6666(7) 0.8726(5) 0.0833
H3 H 0.667(7) 0.738(5) 0.0833
O6 O 0.5403(3) 0.8820(2) 0.11334(9)
Ni1_8 Ni 1.0000 1.0000 1.0000
O8 O 0.7847(2) 0.7930(3) 0.94667(9)
Ni1_9 Ni -0.0000 -0.0000 0.5000
C1_2 C 0.3334(7) 0.2060(5) 0.4167
H1_2 H 0.333(7) 0.071(5) 0.4167
O1_2 O 0.2070(3) 0.2153(2) 0.44667(9)
O2_2 O 0.4597(3) 0.3416(2) 0.38666(9)
Ni3 Ni 0.6667 0.3333 0.3333
O9_2 O 0.2153(4) 0.0083(2) 0.55333(9)
Ni1_10 Ni -0.0000 1.0000 0.5000
O3_2 O 0.0083(4) 0.7930(3) 0.44667(9)
Ni1_11 Ni 1.0000 -0.0000 0.5000
C3_2 C 0.7940(9) 0.1274(5) 0.4167
H3_2 H 0.929(9) 0.262(5) 0.4167
O6_2 O 0.6584(4) 0.1180(2) 0.38666(9)
O8_2 O 0.9917(4) 0.2070(3) 0.55333(9)
Ni1_12 Ni 1.0000 1.0000 0.5000
C2_2 C 0.8726(9) 0.6666(7) 0.4167
H2_2 H 0.738(9) 0.667(7) 0.4167
O4_2 O 0.8820(4) 0.5403(3) 0.38666(9)
O5_2 O 0.7847(4) 0.9917(2) 0.44667(9)
O7_2 O 0.7930(3) 0.7847(2) 0.55333(9)
H2_3 H 0.738(5) 0.666(7) 0.4166
H3_3 H 0.334(7) 0.071(5) 0.4166
O7_3 O 0.6750(2) 0.5486(2) 0.28000(9)
O8_3 O 0.4514(2) 0.1263(3) 0.28000(9)
O9_3 O 0.8737(3) 0.3250(2) 0.28000(9)
C1_3 C 0.0001(7) 0.5393(5) 0.7500
O2_3 O 0.1263(3) 0.6750(2) 0.72000(9)
Ni3_2 Ni 0.3333 0.6667 0.6667
Ni1_13 Ni 0.6667 0.3333 0.8333
C1_4 C 1.0001(7) 0.5393(5) 0.7500
H1_3 H 1.000(7) 0.404(5) 0.7500
O1_3 O 0.8737(3) 0.5486(2) 0.78000(9)
C2_3 C 0.5393(9) -0.0001(7) 0.7500
H2_4 H 0.405(9) 0.000(7) 0.7500
O3_3 O 0.6750(4) 0.1263(3) 0.78000(9)
C3_3 C 0.4607(9) 0.4607(5) 0.7500
H3_4 H 0.596(9) 0.595(5) 0.7500
O5_3 O 0.4514(4) 0.3250(2) 0.78000(9)
O6_3 O 0.3250(4) 0.4514(2) 0.72000(9)
O7_4 O 0.4597(3) 0.1180(2) 0.88666(9)
O8_4 O 0.6584(4) 0.5403(3) 0.88666(9)
O9_4 O 0.8820(4) 0.3416(2) 0.88666(9)
C2_4 C 0.5393(9) 0.9999(7) 0.7500
O4_3 O 0.5486(4) 0.8737(3) 0.72000(9)
H2_5 H 0.404(5) 1.000(7) 0.7500
H3_5 H 0.000(7) 0.405(5) 0.7500
O7_5 O 0.3416(2) 0.8820(2) 0.61334(9)
O8_5 O 0.1180(2) 0.4597(3) 0.61334(9)
O9_5 O 0.5403(3) 0.6584(2) 0.61334(9)
H1_4 H 0.666(7) 0.738(5) 0.0834
H2_6 H 0.071(9) 0.334(7) 0.0834
O7_6 O 0.1263(3) 0.4514(2) 0.22000(9)
O8_6 O 0.3250(4) 0.8737(3) 0.22000(9)
O9_6 O 0.5486(4) 0.6750(2) 0.22000(9)
C3_4 C 0.3334(7) 0.1274(5) 0.9167
H3_6 H 0.333(7) 0.262(5) 0.9167
C1_5 C 0.8726(5) 0.2060(5) 0.9167
H1_5 H 0.738(5) 0.071(5) 0.9167
C2_5 C 0.7940(5) 0.6666(7) 0.9167
H2_7 H 0.929(5) 0.667(7) 0.9167
C2_6 C 0.1274(9) 0.3334(7) 0.5833
H2_8 H 0.262(9) 0.333(7) 0.5833
C3_5 C 0.2060(9) 0.8726(5) 0.5833
H3_7 H 0.071(9) 0.738(5) 0.5833
C1_6 C 0.6666(7) 0.7940(5) 0.5833
H1_6 H 0.667(7) 0.929(5) 0.5833
H2_9 H 0.262(5) 0.334(7) 0.5834
H3_8 H 0.666(7) 0.929(5) 0.5834
C2_7 C 0.4607(9) 0.0001(7) 0.2500
C1_7 C -0.0001(7) 0.4607(5) 0.2500
H1_7 H 0.000(7) 0.596(5) 0.2500
C2_8 C 0.4607(9) 1.0001(7) 0.2500
H2_10 H 0.595(9) 1.000(7) 0.2500
C3_6 C 0.5393(9) 0.5393(5) 0.2500
H3_9 H 0.404(9) 0.405(5) 0.2500
C1_8 C 0.9999(7) 0.4607(5) 0.2500
H2_11 H 0.596(5) 0.000(7) 0.2500
H3_10 H 1.000(7) 0.595(5) 0.2500
H1_8 H 0.334(7) 0.262(5) 0.9166
H2_12 H 0.929(9) 0.666(7) 0.9166
loop_
_geom_bond_atom_site_label_1
_geom_bond_atom_site_label_2
_geom_bond_site_symmetry_1
_geom_bond_site_symmetry_2
C2 H2 1_555 1_555
O3 Ni1 1_555 1_555
O4 C2 1_555 1_555
Ni4 O4 1_555 1_555
C2 O3 1_555 1_555
O7 Ni1_2 1_555 1_555
C1 H1 1_555 1_555
O2 C1 1_555 1_555
Ni4 O2 1_555 1_555
O9 Ni1_4 1_555 1_555
O5 Ni1_5 1_555 1_555
Ni1_7 O1 1_555 1_555
C3 H3 1_555 1_555
O6 C3 1_555 1_555
Ni4 O6 1_555 1_555
O8 Ni1_8 1_555 1_555
Ni1_9 O1_2 1_555 1_555
C1_2 H1_2 1_555 1_555
O1_2 C1_2 1_555 1_555
O2_2 C1_2 1_555 1_555
Ni3 O2_2 1_555 1_555
O9_2 Ni1_9 1_555 1_555
O3_2 Ni1_10 1_555 1_555
C3_2 H3_2 1_555 1_555
O6_2 C3_2 1_555 1_555
Ni3 O6_2 1_555 1_555
O8_2 Ni1_11 1_555 1_555
C2_2 H2_2 1_555 1_555
O4_2 C2_2 1_555 1_555
O5_2 Ni1_12 1_555 1_555
Ni3 O4_2 1_555 1_555
O7_2 Ni1_12 1_555 1_555
C2_2 H2_3 1_555 1_555
C1_2 H3_3 1_555 1_555
O7_3 Ni3 1_555 1_555
O8_3 Ni3 1_555 1_555
O9_3 Ni3 1_555 1_555
O2_3 C1_3 1_555 1_555
Ni3_2 O2_3 1_555 1_555
Ni1_13 O1_3 1_555 1_555
C1_4 H1_3 1_555 1_555
O1_3 C1_4 1_555 1_555
C2_3 H2_4 1_555 1_555
O3_3 Ni1_13 1_555 1_555
C3_3 H3_4 1_555 1_555
O5_3 Ni1_13 1_555 1_555
O6_3 C3_3 1_555 1_555
Ni3_2 O6_3 1_555 1_555
O7_4 Ni1_13 1_555 1_555
O8_4 Ni1_13 1_555 1_555
O9_4 Ni1_13 1_555 1_555
C2_3 O3_3 1_555 1_555
C3_3 O5_3 1_555 1_555
O4_3 C2_4 1_555 1_555
Ni3_2 O4_3 1_555 1_555
C2_4 H2_5 1_555 1_555
C1_3 H3_5 1_555 1_555
O7_5 Ni3_2 1_555 1_555
O8_5 Ni3_2 1_555 1_555
O9_5 Ni3_2 1_555 1_555
C3 H1_4 1_555 1_555
C2 H2_6 1_555 1_555
O7_6 Ni4 1_555 1_555
O8_6 Ni4 1_555 1_555
O9_6 Ni4 1_555 1_555
C3_4 H3_6 1_555 1_555
O7_4 C3_4 1_555 1_555
C1_5 H1_5 1_555 1_555
O9_4 C1_5 1_555 1_555
C2_5 H2_7 1_555 1_555
O8_4 C2_5 1_555 1_555
C2_5 O8 1_555 1_555
C2_6 H2_8 1_555 1_555
O8_5 C2_6 1_555 1_555
C3_5 H3_7 1_555 1_555
O7_5 C3_5 1_555 1_555
C1_6 H1_6 1_555 1_555
O7_2 C1_6 1_555 1_555
O9_5 C1_6 1_555 1_555
C2_6 H2_9 1_555 1_555
C1_6 H3_8 1_555 1_555
O8_3 C2_7 1_555 1_555
C1_7 H1_7 1_555 1_555
O7_6 C1_7 1_555 1_555
C2_8 H2_10 1_555 1_555
C3_6 H3_9 1_555 1_555
O7_3 C3_6 1_555 1_555
C2_8 O8_6 1_555 1_555
C3_6 O9_6 1_555 1_555
O9_3 C1_8 1_555 1_555
C2_7 H2_11 1_555 1_555
C1_8 H3_10 1_555 1_555
C3_4 H1_8 1_555 1_555
C2_5 H2_12 1_555 1_555

#END
