
###############################################################################
#
# This file contains modified crystal structure data generated from the
# MOF subset of the Cambridge Structural Database (CSD) v543 
# hosted by the Cambridge Crystallographic Data Centre (CCDC).
#
# This work is licensed under the Creative Commons
# Attribution-NonCommercial-ShareAlike 4.0 International License.
# To view a copy of this license, visit
# http://creativecommons.org/licenses/by-nc-sa/4.0/
# or send a letter to
# Creative Commons, PO Box 1866, Mountain View, CA 94042, USA.
#
# CIF created using the CSD Python API on 29 September 2022
# The structure has been converted into the P1 space group
# The structure has a 3D framework
# The original CSD entry ZIGQIS is in the monoclinic crystal system
# The framework has been calculated to contain at least 10.0% void space
# The void calculation uses a probe of radius 1.32A, grid spacing 0.4
# The framework is charged, counterions have been retained in the structure
# H atom positions have been added when not included in the experimental data
#
###############################################################################

data_ZIGQIS
_chemical_formula_moiety         '(C86 H50 Eu4 O32 P4 2-)n'
_symmetry_cell_setting           triclinic
_symmetry_space_group_name_H-M   'P 1'
_symmetry_Int_Tables_number      1
_space_group_name_Hall           'P 1'
loop_
_symmetry_equiv_pos_site_id
_symmetry_equiv_pos_as_xyz
1 x,y,z
_cell_length_a                   14.5800(14)
_cell_length_b                   10.5622(10)
_cell_length_c                   23.675(2)
_cell_angle_alpha                90
_cell_angle_beta                 107.93
_cell_angle_gamma                90
_cell_volume                     3468.81
loop_
_atom_site_label
_atom_site_type_symbol
_atom_site_fract_x
_atom_site_fract_y
_atom_site_fract_z
Eu6 Eu 0.07424(4) 0.43531(5) 0.22756(2)
O2 O 0.4214(7) 0.1997(8) 0.2642(4)
O3 O 0.5339(7) 0.2784(8) 0.3429(4)
C3 C 0.5942(12) 0.0183(14) 0.3801(7)
H2 H 0.6250 0.0847 0.4044
C4 C 0.5190(10) 0.0447(12) 0.3268(6)
C7 C 0.4905(10) 0.1803(13) 0.3110(6)
O11 O 0.0786(7) 0.1997(8) 0.2358(4)
C29 C 0.0095(10) 0.1803(13) 0.1890(6)
Eu4 Eu 0.42576(4) 0.43531(5) 0.27244(2)
P1 P 0.6079(2) 0.6412(3) 0.37908(12)
O1 O 0.5263(6) 0.5569(8) 0.3530(3)
O4 O 0.6753(7) 0.6167(11) 0.6733(4)
O5 O 0.8291(7) 0.6013(10) 0.6741(4)
O6 O 0.9440(6) 0.3873(9) 0.2720(4)
O7 O 0.9905(7) 0.5869(8) 0.2788(4)
O8 O 0.3289(7) 0.6253(9) 0.2567(4)
C1 C 0.5775(9) 0.8027(12) 0.3605(5)
C2 C 0.6207(11) 0.9002(12) 0.3956(7)
H1 H 0.6695 0.8843 0.4308
C5 C 0.4849(15) 0.9496(12) 0.2886(6)
H3 H 0.4419 0.9669 0.2513
C6 C 0.5123(12) 0.8297(14) 0.3036(6)
H4 H 0.4886 0.7644 0.2767
C8 C 0.6512(8) 0.6311(11) 0.4570(5)
C9 C 0.5818(10) 0.6332(17) 0.4878(5)
H5 H 0.5168 0.6414 0.4668
C10 C 0.6094(11) 0.6234(17) 0.5473(6)
H6 H 0.5633 0.6197 0.5670
C11 C 0.7079(9) 0.6187(12) 0.5797(5)
C12 C 0.7751(11) 0.627(2) 0.5504(5)
H7 H 0.8402 0.6315 0.5719
C13 C 0.7466(11) 0.6280(18) 0.4872(5)
H8 H 0.7923 0.6267 0.4672
C14 C 0.7409(9) 0.6107(11) 0.6483(5)
C15 C 0.7093(9) 0.6065(12) 0.3532(5)
C16 C 0.7678(10) 0.6963(12) 0.3395(6)
C17 C 0.8366(11) 0.6670(13) 0.3190(6)
C18 C 0.8588(9) 0.5424(14) 0.3128(5)
C19 C 0.8025(11) 0.4478(14) 0.3258(6)
H9 H 0.8150 0.3629 0.3207
C20 C 0.7274(9) 0.4830(12) 0.3465(5)
H10 H 0.6891 0.4212 0.3559
C21 C 0.9335(9) 0.5054(15) 0.2869(5)
C22 C 0.2500 0.677(2) 0.2500
H11 H 0.2500 0.7650 0.2500
O9 O 0.1711(7) 0.6253(9) 0.2433(4)
C27 C 0.0151(15) 0.9496(12) 0.2114(6)
H14 H 0.0581 0.9669 0.2487
H15 H 0.0114 0.7644 0.2233
Eu8 Eu 0.57424(4) 0.56469(5) 0.72756(2)
Eu10 Eu 0.92576(4) 0.56469(5) 0.77244(2)
O21 O 0.3247(7) 0.3833(11) 0.3267(4)
O22 O 0.1753(7) 0.3833(11) 0.1733(4)
O23 O 0.1709(7) 0.3987(10) 0.3259(4)
O24 O 0.3291(7) 0.3987(10) 0.1741(4)
O26 O 0.5560(6) 0.3873(9) 0.2280(4)
O28 O 0.5095(7) 0.5869(8) 0.2212(4)
H22 H 0.754953 0.795844 0.346388
H23 H 0.87798 0.741591 0.306338
O12 O 0.9661(7) 0.2784(8) 0.1571(4)
C25 C 0.9058(12) 0.0183(14) 0.1199(7)
H13 H 0.8750 0.0847 0.0956
C26 C 0.9810(10) 0.0447(12) 0.1732(6)
P2 P 0.8921(2) 0.6412(3) 0.12092(12)
O10 O 0.9737(6) 0.5569(8) 0.1470(3)
C23 C 0.9225(9) 0.8027(12) 0.1395(5)
C24 C 0.8793(11) 0.9002(12) 0.1044(7)
H12 H 0.8305 0.8843 0.0692
C28 C 0.9877(12) 0.8297(14) 0.1964(6)
C30 C 0.8488(8) 0.6311(11) 0.0430(5)
C31 C 0.9182(10) 0.6332(17) 0.0122(5)
H16 H 0.9832 0.6414 0.0332
C35 C 0.7534(11) 0.6280(18) 0.0128(5)
H19 H 0.7077 0.6267 0.0328
C37 C 0.7907(9) 0.6065(12) 0.1468(5)
C38 C 0.7322(10) 0.6963(12) 0.1605(6)
C39 C 0.6634(11) 0.6670(13) 0.1810(6)
C40 C 0.6412(9) 0.5424(14) 0.1872(5)
C41 C 0.6975(11) 0.4478(14) 0.1742(6)
H20 H 0.6850 0.3629 0.1793
C42 C 0.7726(9) 0.4830(12) 0.1535(5)
H21 H 0.8109 0.4212 0.1441
C43 C 0.5665(9) 0.5054(15) 0.2131(5)
H24 H 0.62202 0.741591 0.193662
H25 H 0.745047 0.795844 0.153612
O13 O 0.8247(7) 0.6167(11) 0.8267(4)
O14 O 0.6709(7) 0.6013(10) 0.8259(4)
C32 C 0.8906(11) 0.6234(17) 0.9527(6)
H17 H 0.9367 0.6197 0.9330
C33 C 0.7921(9) 0.6187(12) 0.9203(5)
C34 C 0.7249(11) 0.627(2) 0.9496(5)
H18 H 0.6598 0.6315 0.9281
C36 C 0.7591(9) 0.6107(11) 0.8517(5)
C32_2 C 0.1094(11) 0.3766(17) 0.0473(6)
H17_2 H 0.0633 0.3803 0.0670
C33_2 C 0.2079(9) 0.3813(12) 0.0797(5)
C34_2 C 0.2751(11) 0.373(2) 0.0504(5)
H18_2 H 0.3402 0.3685 0.0719
C36_2 C 0.2409(9) 0.3893(11) 0.1483(5)
P2_2 P 0.1079(2) 0.3588(3) 0.87908(12)
O10_2 O 0.0263(6) 0.4431(8) 0.8530(3)
O15 O 0.4440(6) 0.6127(9) 0.7720(4)
O16 O 0.4905(7) 0.4131(8) 0.7788(4)
C23_2 C 0.0775(9) 0.1973(12) 0.8605(5)
C24_2 C 0.1207(11) 0.0998(12) 0.8956(7)
H12_2 H 0.1695 0.1157 0.9308
C28_2 C 0.0123(12) 0.1703(14) 0.8036(6)
C30_2 C 0.1512(8) 0.3689(11) 0.9570(5)
C31_2 C 0.0818(10) 0.3668(17) 0.9878(5)
H16_2 H 0.0168 0.3586 0.9668
C35_2 C 0.2466(11) 0.3720(18) 0.9872(5)
H19_2 H 0.2923 0.3733 0.9672
C37_2 C 0.2093(9) 0.3935(12) 0.8532(5)
C38_2 C 0.2678(10) 0.3037(12) 0.8395(6)
C39_2 C 0.3366(11) 0.3330(13) 0.8190(6)
C40_2 C 0.3588(9) 0.4576(14) 0.8128(5)
C41_2 C 0.3025(11) 0.5522(14) 0.8258(6)
H20_2 H 0.3150 0.6371 0.8207
C42_2 C 0.2274(9) 0.5170(12) 0.8465(5)
H21_2 H 0.1891 0.5788 0.8559
C43_2 C 0.4335(9) 0.4946(15) 0.7869(5)
O20 O 0.0339(7) 0.7216(8) 0.8429(4)
O25 O 0.0560(6) 0.6127(9) 0.7280(4)
O27 O 0.0095(7) 0.4131(8) 0.7212(4)
H24_2 H 0.37798 0.258409 0.806338
H25_2 H 0.254953 0.204156 0.846388
C25_2 C 0.0942(12) 0.9817(14) 0.8801(7)
H13_2 H 0.1250 0.9153 0.9044
C26_2 C 0.0190(10) 0.9553(12) 0.8268(6)
P1_2 P 0.3921(2) 0.3588(3) 0.62092(12)
O1_2 O 0.4737(6) 0.4431(8) 0.6470(3)
O8_2 O 0.6711(7) 0.3747(9) 0.7433(4)
C1_2 C 0.4225(9) 0.1973(12) 0.6395(5)
C2_2 C 0.3793(11) 0.0998(12) 0.6044(7)
H1_2 H 0.3305 0.1157 0.5692
C5_2 C 0.5151(15) 0.0504(12) 0.7114(6)
H3_2 H 0.5581 0.0331 0.7487
C6_2 C 0.4877(12) 0.1703(14) 0.6964(6)
H4_2 H 0.5114 0.2356 0.7233
C8_2 C 0.3488(8) 0.3689(11) 0.5430(5)
C9_2 C 0.4182(10) 0.3668(17) 0.5122(5)
H5_2 H 0.4832 0.3586 0.5332
C10_2 C 0.3906(11) 0.3766(17) 0.4527(6)
H6_2 H 0.4367 0.3803 0.4330
C11_2 C 0.2921(9) 0.3813(12) 0.4203(5)
C12_2 C 0.2249(11) 0.373(2) 0.4496(5)
H7_2 H 0.1598 0.3685 0.4281
C13_2 C 0.2534(11) 0.3720(18) 0.5128(5)
H8_2 H 0.2077 0.3733 0.5328
C14_2 C 0.2591(9) 0.3893(11) 0.3517(5)
C15_2 C 0.2907(9) 0.3935(12) 0.6468(5)
C16_2 C 0.2322(10) 0.3037(12) 0.6605(6)
C17_2 C 0.1634(11) 0.3330(13) 0.6810(6)
C18_2 C 0.1412(9) 0.4576(14) 0.6872(5)
C19_2 C 0.1975(11) 0.5522(14) 0.6742(6)
H9_2 H 0.1850 0.6371 0.6793
C20_2 C 0.2726(9) 0.5170(12) 0.6535(5)
H10_2 H 0.3109 0.5788 0.6441
C21_2 C 0.0665(9) 0.4946(15) 0.7131(5)
C22_2 C 0.7500 0.323(2) 0.7500
H11_2 H 0.7500 0.2350 0.7500
O9_2 O 0.8289(7) 0.3747(9) 0.7567(4)
C27_2 C 0.9849(15) 0.0504(12) 0.7886(6)
H14_2 H 0.9419 0.0331 0.7513
H15_2 H 0.9886 0.2356 0.7767
O17 O 0.5786(7) 0.8003(8) 0.7358(4)
O18 O 0.9214(7) 0.8003(8) 0.7642(4)
O19 O 0.4661(7) 0.7216(8) 0.6571(4)
H22_2 H 0.245047 0.204156 0.653612
H23_2 H 0.12202 0.258409 0.693662
C3_2 C 0.4058(12) 0.9817(14) 0.6199(7)
H2_2 H 0.3750 0.9153 0.5956
C4_2 C 0.4810(10) 0.9553(12) 0.6732(6)
C7_2 C 0.5095(10) 0.8197(13) 0.6890(6)
C29_2 C 0.9905(10) 0.8197(13) 0.8110(6)
loop_
_geom_bond_atom_site_label_1
_geom_bond_atom_site_label_2
_geom_bond_site_symmetry_1
_geom_bond_site_symmetry_2
O2 C7 1_555 1_555
O3 C7 1_555 1_555
H2 C3 1_555 1_555
C4 C3 1_555 1_555
C7 C4 1_555 1_555
O11 C29 1_555 1_555
Eu4 O2 1_555 1_555
Eu6 O11 1_555 1_555
O3 Eu4 1_555 1_555
Eu4 O1 1_555 1_555
P1 O1 1_555 1_555
O4 C14 1_555 1_555
O5 C14 1_555 1_555
O6 C21 1_555 1_555
O7 C21 1_555 1_555
O8 Eu4 1_555 1_555
C1 P1 1_555 1_555
C2 C1 1_555 1_555
H1 C2 1_555 1_555
H3 C5 1_555 1_555
C6 C1 1_555 1_555
H4 C6 1_555 1_555
C8 P1 1_555 1_555
C9 C8 1_555 1_555
H5 C9 1_555 1_555
C10 C9 1_555 1_555
H6 C10 1_555 1_555
C11 C10 1_555 1_555
C12 C11 1_555 1_555
H7 C12 1_555 1_555
C13 C8 1_555 1_555
H8 C13 1_555 1_555
C14 C11 1_555 1_555
C15 P1 1_555 1_555
C16 C15 1_555 1_555
C17 C16 1_555 1_555
C18 C17 1_555 1_555
C19 C18 1_555 1_555
H9 C19 1_555 1_555
C20 C15 1_555 1_555
H10 C20 1_555 1_555
C21 C18 1_555 1_555
C22 O8 1_555 1_555
H11 C22 1_555 1_555
O9 C22 1_555 1_555
Eu6 O9 1_555 1_555
H14 C27 1_555 1_555
Eu8 O4 1_555 1_555
Eu10 O5 1_555 1_555
O21 Eu4 1_555 1_555
O22 Eu6 1_555 1_555
O23 Eu6 1_555 1_555
O24 Eu4 1_555 1_555
O26 Eu4 1_555 1_555
O28 Eu4 1_555 1_555
C5 C6 1_555 1_555
C12 C13 1_555 1_555
C19 C20 1_555 1_555
C16 H22 1_555 1_555
C17 H23 1_555 1_555
H13 C25 1_555 1_555
C26 C25 1_555 1_555
P2 O10 1_555 1_555
O26 C43 1_555 1_555
O28 C43 1_555 1_555
C23 P2 1_555 1_555
C24 C23 1_555 1_555
H12 C24 1_555 1_555
C28 C23 1_555 1_555
C30 P2 1_555 1_555
C31 C30 1_555 1_555
H16 C31 1_555 1_555
C35 C30 1_555 1_555
H19 C35 1_555 1_555
C37 P2 1_555 1_555
C38 C37 1_555 1_555
C39 C38 1_555 1_555
C40 C39 1_555 1_555
C41 C40 1_555 1_555
H20 C41 1_555 1_555
C42 C37 1_555 1_555
H21 C42 1_555 1_555
C43 C40 1_555 1_555
C41 C42 1_555 1_555
C39 H24 1_555 1_555
C38 H25 1_555 1_555
O13 C36 1_555 1_555
O14 C36 1_555 1_555
H17 C32 1_555 1_555
C33 C32 1_555 1_555
C34 C33 1_555 1_555
H18 C34 1_555 1_555
C36 C33 1_555 1_555
Eu8 O14 1_555 1_555
Eu10 O13 1_555 1_555
O22 C36_2 1_555 1_555
O24 C36_2 1_555 1_555
H17_2 C32_2 1_555 1_555
C33_2 C32_2 1_555 1_555
C34_2 C33_2 1_555 1_555
H18_2 C34_2 1_555 1_555
C36_2 C33_2 1_555 1_555
P2_2 O10_2 1_555 1_555
O15 C43_2 1_555 1_555
O16 C43_2 1_555 1_555
C23_2 P2_2 1_555 1_555
C24_2 C23_2 1_555 1_555
H12_2 C24_2 1_555 1_555
C28_2 C23_2 1_555 1_555
C30_2 P2_2 1_555 1_555
C31_2 C30_2 1_555 1_555
H16_2 C31_2 1_555 1_555
C35_2 C30_2 1_555 1_555
H19_2 C35_2 1_555 1_555
C37_2 P2_2 1_555 1_555
C38_2 C37_2 1_555 1_555
C39_2 C38_2 1_555 1_555
C40_2 C39_2 1_555 1_555
C41_2 C40_2 1_555 1_555
H20_2 C41_2 1_555 1_555
C42_2 C37_2 1_555 1_555
H21_2 C42_2 1_555 1_555
C43_2 C40_2 1_555 1_555
Eu8 O15 1_555 1_555
O16 Eu8 1_555 1_555
C41_2 C42_2 1_555 1_555
C39_2 H24_2 1_555 1_555
C38_2 H25_2 1_555 1_555
H13_2 C25_2 1_555 1_555
C26_2 C25_2 1_555 1_555
Eu8 O1_2 1_555 1_555
P1_2 O1_2 1_555 1_555
O21 C14_2 1_555 1_555
O23 C14_2 1_555 1_555
O25 C21_2 1_555 1_555
O27 C21_2 1_555 1_555
O8_2 Eu8 1_555 1_555
C1_2 P1_2 1_555 1_555
C2_2 C1_2 1_555 1_555
H1_2 C2_2 1_555 1_555
H3_2 C5_2 1_555 1_555
C6_2 C1_2 1_555 1_555
H4_2 C6_2 1_555 1_555
C8_2 P1_2 1_555 1_555
C9_2 C8_2 1_555 1_555
H5_2 C9_2 1_555 1_555
C10_2 C9_2 1_555 1_555
H6_2 C10_2 1_555 1_555
C11_2 C10_2 1_555 1_555
C12_2 C11_2 1_555 1_555
H7_2 C12_2 1_555 1_555
C13_2 C8_2 1_555 1_555
H8_2 C13_2 1_555 1_555
C14_2 C11_2 1_555 1_555
C15_2 P1_2 1_555 1_555
C16_2 C15_2 1_555 1_555
C17_2 C16_2 1_555 1_555
C18_2 C17_2 1_555 1_555
C19_2 C18_2 1_555 1_555
H9_2 C19_2 1_555 1_555
C20_2 C15_2 1_555 1_555
H10_2 C20_2 1_555 1_555
C21_2 C18_2 1_555 1_555
C22_2 O8_2 1_555 1_555
H11_2 C22_2 1_555 1_555
O9_2 C22_2 1_555 1_555
Eu10 O9_2 1_555 1_555
H14_2 C27_2 1_555 1_555
O17 Eu8 1_555 1_555
O18 Eu10 1_555 1_555
O19 Eu8 1_555 1_555
C5_2 C6_2 1_555 1_555
C12_2 C13_2 1_555 1_555
C19_2 C20_2 1_555 1_555
C16_2 H22_2 1_555 1_555
C17_2 H23_2 1_555 1_555
O17 C7_2 1_555 1_555
O19 C7_2 1_555 1_555
H2_2 C3_2 1_555 1_555
C4_2 C3_2 1_555 1_555
C7_2 C4_2 1_555 1_555
O18 C29_2 1_555 1_555

#END
