
###############################################################################
#
# This file contains modified crystal structure data generated from the
# MOF subset of the Cambridge Structural Database (CSD) v543 
# hosted by the Cambridge Crystallographic Data Centre (CCDC).
#
# This work is licensed under the Creative Commons
# Attribution-NonCommercial-ShareAlike 4.0 International License.
# To view a copy of this license, visit
# http://creativecommons.org/licenses/by-nc-sa/4.0/
# or send a letter to
# Creative Commons, PO Box 1866, Mountain View, CA 94042, USA.
#
# CIF created using the CSD Python API on 29 September 2022
# The structure has been converted into the P1 space group
# The structure has a 3D framework
# The original CSD entry ZIJGUU01 is in the orthorhombic crystal system
# The framework has been calculated to contain at least 10.0% void space
# The void calculation uses a probe of radius 1.32A, grid spacing 0.4
# The framework is charged, counterions have been retained in the structure
#
###############################################################################

data_ZIJGUU01
_chemical_formula_moiety         '(C160 H128 Ag4 N32 4+)n'
_symmetry_cell_setting           triclinic
_symmetry_space_group_name_H-M   'P 1'
_symmetry_Int_Tables_number      1
_space_group_name_Hall           'P 1'
loop_
_symmetry_equiv_pos_site_id
_symmetry_equiv_pos_as_xyz
1 x,y,z
_cell_length_a                   9.914(2)
_cell_length_b                   34.488(7)
_cell_length_c                   12.963(3)
_cell_angle_alpha                90
_cell_angle_beta                 90
_cell_angle_gamma                90
_cell_volume                     4432.23
loop_
_atom_site_label
_atom_site_type_symbol
_atom_site_fract_x
_atom_site_fract_y
_atom_site_fract_z
Ag1 Ag 0.1250 0.1250 0.0102(1)
C1 C 0.0240(4) 0.2091(1) 0.0169(3)
H1 H 0.1192 0.2144 0.0210
Ag2 Ag 0.1250 0.1250 0.2398(1)
N2 N 0.2660(4) 0.0775(1) 0.0193(3)
C1_2 C 0.2260(4) 0.0409(1) 0.0169(3)
C2 C 0.3127(4) 0.0097(1) 0.0113(4)
C3 C 0.4509(4) 0.0163(1) 0.0049(3)
C4 C 0.4929(4) 0.0545(1) 0.0083(3)
C5 C 0.3992(5) 0.0841(1) 0.0164(4)
H1_2 H 0.1308 0.0356 0.0210
H3 H 0.5877 0.0603 0.0060
H4 H 0.4311 0.1105 0.0201
C6 C 0.5491(4) 0.9837(1) 0.9951(3)
C7 C 0.6873(4) 0.9903(1) 0.9887(4)
C8 C 0.5071(4) 0.9455(1) 0.9917(3)
C9 C 0.7740(4) 0.9591(1) 0.9831(3)
C10 C 0.6008(5) 0.9159(1) 0.9836(4)
H6 H 0.4123 0.9397 0.9940
N3 N 0.7340(4) 0.9225(1) 0.9807(3)
H7 H 0.8692 0.9644 0.9790
H8 H 0.5689 0.8895 0.9799
Ag3 Ag 0.8750 0.8750 0.9898(1)
C1_3 C 0.0240(4) 0.0409(1) 0.2331(3)
H1_3 H 0.1192 0.0356 0.2290
N2_2 N 0.2660(4) 0.1725(1) 0.2307(3)
C1_4 C 0.2260(4) 0.2091(1) 0.2331(3)
C2_2 C 0.3127(4) 0.2403(1) 0.2387(4)
C3_2 C 0.4509(4) 0.2337(1) 0.2451(3)
C4_2 C 0.4929(4) 0.1955(1) 0.2417(3)
C5_2 C 0.3992(5) 0.1659(1) 0.2336(4)
H1_4 H 0.1308 0.2144 0.2290
H2 H 0.2781 0.2664 0.2388
H3_2 H 0.5877 0.1897 0.2440
H4_2 H 0.4311 0.1395 0.2299
C6_2 C 0.5491(4) 0.2663(1) 0.2549(3)
C7_2 C 0.6873(4) 0.2597(1) 0.2613(4)
C8_2 C 0.5071(4) 0.3045(1) 0.2583(3)
C9_2 C 0.7740(4) 0.2909(1) 0.2669(3)
H5 H 0.7219 0.2336 0.2612
C10_2 C 0.6008(5) 0.3341(1) 0.2664(4)
H6_2 H 0.4123 0.3103 0.2560
N3_2 N 0.7340(4) 0.3275(1) 0.2693(3)
H7_2 H 0.8692 0.2856 0.2710
H8_2 H 0.5689 0.3605 0.2701
Ag3_2 Ag 0.8750 0.3750 0.2602(1)
Ag1_2 Ag 0.1250 0.6250 0.5102(1)
C1_5 C 0.0240(4) 0.7091(1) 0.5169(3)
H1_5 H 0.1192 0.7144 0.5210
Ag2_2 Ag 0.1250 0.6250 0.7398(1)
N2_3 N 0.2660(4) 0.5775(1) 0.5193(3)
C1_6 C 0.2260(4) 0.5409(1) 0.5169(3)
C2_3 C 0.3127(4) 0.5097(1) 0.5113(4)
C3_3 C 0.4509(4) 0.5163(1) 0.5049(3)
C4_3 C 0.4929(4) 0.5545(1) 0.5083(3)
C5_3 C 0.3992(5) 0.5841(1) 0.5164(4)
H1_6 H 0.1308 0.5356 0.5210
H2_2 H 0.2781 0.4836 0.5112
H3_3 H 0.5877 0.5603 0.5060
H4_3 H 0.4311 0.6105 0.5201
C6_3 C 0.5491(4) 0.4837(1) 0.4951(3)
C7_3 C 0.6873(4) 0.4903(1) 0.4887(4)
C8_3 C 0.5071(4) 0.4455(1) 0.4917(3)
C9_3 C 0.7740(4) 0.4591(1) 0.4831(3)
H5_2 H 0.7219 0.5164 0.4888
C10_3 C 0.6008(5) 0.4159(1) 0.4836(4)
H6_3 H 0.4123 0.4397 0.4940
N3_3 N 0.7340(4) 0.4225(1) 0.4807(3)
H7_3 H 0.8692 0.4644 0.4790
H8_3 H 0.5689 0.3895 0.4799
Ag3_3 Ag 0.8750 0.3750 0.4898(1)
C1_7 C 0.0240(4) 0.5409(1) 0.7331(3)
H1_7 H 0.1192 0.5356 0.7290
N2_4 N 0.2660(4) 0.6725(1) 0.7307(3)
C1_8 C 0.2260(4) 0.7091(1) 0.7331(3)
C2_4 C 0.3127(4) 0.7403(1) 0.7387(4)
C3_4 C 0.4509(4) 0.7337(1) 0.7451(3)
C4_4 C 0.4929(4) 0.6955(1) 0.7417(3)
C5_4 C 0.3992(5) 0.6659(1) 0.7336(4)
H1_8 H 0.1308 0.7144 0.7290
H2_3 H 0.2781 0.7664 0.7388
H3_4 H 0.5877 0.6897 0.7440
H4_4 H 0.4311 0.6395 0.7299
C6_4 C 0.5491(4) 0.7663(1) 0.7549(3)
C7_4 C 0.6873(4) 0.7597(1) 0.7613(4)
C8_4 C 0.5071(4) 0.8045(1) 0.7583(3)
C9_4 C 0.7740(4) 0.7909(1) 0.7669(3)
H5_3 H 0.7219 0.7336 0.7612
C10_4 C 0.6008(5) 0.8341(1) 0.7664(4)
H6_4 H 0.4123 0.8103 0.7560
N3_4 N 0.7340(4) 0.8275(1) 0.7693(3)
H7_4 H 0.8692 0.7856 0.7710
H8_4 H 0.5689 0.8605 0.7701
Ag3_4 Ag 0.8750 0.8750 0.7602(1)
C9_5 C 0.9760(4) 0.2909(1) 0.4831(3)
H7_5 H 0.8808 0.2856 0.4790
C9_6 C 0.9760(4) 0.9591(1) 0.7669(3)
H7_6 H 0.8808 0.9644 0.7710
C9_7 C 0.9760(4) 0.7909(1) 0.9831(3)
H7_7 H 0.8808 0.7856 0.9790
C9_8 C 0.9760(4) 0.4591(1) 0.2669(3)
H7_8 H 0.8808 0.4644 0.2710
N1 N 0.9840(4) 0.1725(1) 0.0193(3)
C2_5 C 0.9373(4) 0.2403(1) 0.0113(4)
C3_5 C 0.7991(4) 0.2337(1) 0.0049(3)
C4_5 C 0.7571(4) 0.1955(1) 0.0083(3)
C5_5 C 0.8508(5) 0.1659(1) 0.0164(4)
H2_4 H 0.9719 0.2664 0.0112
H3_5 H 0.6623 0.1897 0.0060
H4_5 H 0.8189 0.1395 0.0201
C6_5 C 0.7009(4) 0.2663(1) 0.9951(3)
C7_5 C 0.5627(4) 0.2597(1) 0.9887(4)
C8_5 C 0.7429(4) 0.3045(1) 0.9917(3)
C9_9 C 0.4760(4) 0.2909(1) 0.9831(3)
H5_4 H 0.5281 0.2336 0.9888
C10_5 C 0.6492(5) 0.3341(1) 0.9836(4)
H6_5 H 0.8377 0.3103 0.9940
N3_5 N 0.5160(4) 0.3275(1) 0.9807(3)
H7_9 H 0.3808 0.2856 0.9790
H8_5 H 0.6811 0.3605 0.9799
Ag3_5 Ag 0.3750 0.3750 0.9898(1)
N1_2 N 0.9840(4) 0.5775(1) 0.7307(3)
C2_6 C 0.9373(4) 0.5097(1) 0.7387(4)
C3_6 C 0.7991(4) 0.5163(1) 0.7451(3)
C4_6 C 0.7571(4) 0.5545(1) 0.7417(3)
C5_6 C 0.8508(5) 0.5841(1) 0.7336(4)
H2_5 H 0.9719 0.4836 0.7388
H3_6 H 0.6623 0.5603 0.7440
H4_6 H 0.8189 0.6105 0.7299
C6_6 C 0.7009(4) 0.4837(1) 0.7549(3)
C7_6 C 0.5627(4) 0.4903(1) 0.7613(4)
C8_6 C 0.7429(4) 0.4455(1) 0.7583(3)
C9_10 C 0.4760(4) 0.4591(1) 0.7669(3)
H5_5 H 0.5281 0.5164 0.7612
C10_6 C 0.6492(5) 0.4159(1) 0.7664(4)
H6_6 H 0.8377 0.4397 0.7560
N3_6 N 0.5160(4) 0.4225(1) 0.7693(3)
H7_10 H 0.3808 0.4644 0.7710
H8_6 H 0.6811 0.3895 0.7701
Ag3_6 Ag 0.3750 0.3750 0.7602(1)
H3_7 H 0.0877 0.1897 0.7440
C6_7 C 0.0491(4) 0.2663(1) 0.7549(3)
C7_7 C 0.1873(4) 0.2597(1) 0.7613(4)
C8_7 C 0.0071(4) 0.3045(1) 0.7583(3)
C9_11 C 0.2740(4) 0.2909(1) 0.7669(3)
H5_6 H 0.2219 0.2336 0.7612
C10_7 C 0.1008(5) 0.3341(1) 0.7664(4)
N3_7 N 0.2340(4) 0.3275(1) 0.7693(3)
H7_11 H 0.3692 0.2856 0.7710
H8_7 H 0.0689 0.3605 0.7701
C6_8 C 0.0491(4) 0.4837(1) 0.9951(3)
C7_8 C 0.1873(4) 0.4903(1) 0.9887(4)
C8_8 C 0.0071(4) 0.4455(1) 0.9917(3)
C9_12 C 0.2740(4) 0.4591(1) 0.9831(3)
H5_7 H 0.2219 0.5164 0.9888
C10_8 C 0.1008(5) 0.4159(1) 0.9836(4)
N3_8 N 0.2340(4) 0.4225(1) 0.9807(3)
H7_12 H 0.3692 0.4644 0.9790
H8_8 H 0.0689 0.3895 0.9799
H5_8 H 0.7219 0.0164 0.9888
H2_6 H 0.2781 0.9836 0.0112
N1_3 N 0.9840(4) 0.0775(1) 0.2307(3)
C2_7 C 0.9373(4) 0.0097(1) 0.2387(4)
C3_7 C 0.7991(4) 0.0163(1) 0.2451(3)
C4_7 C 0.7571(4) 0.0545(1) 0.2417(3)
C5_7 C 0.8508(5) 0.0841(1) 0.2336(4)
H3_8 H 0.6623 0.0603 0.2440
H4_7 H 0.8189 0.1105 0.2299
H5_9 H 0.5281 0.0164 0.2612
H2_7 H 0.9719 0.9836 0.2388
C6_9 C 0.7009(4) 0.9837(1) 0.2549(3)
C7_9 C 0.5627(4) 0.9903(1) 0.2613(4)
C8_9 C 0.7429(4) 0.9455(1) 0.2583(3)
C9_13 C 0.4760(4) 0.9591(1) 0.2669(3)
C10_9 C 0.6492(5) 0.9159(1) 0.2664(4)
H6_7 H 0.8377 0.9397 0.2560
N3_9 N 0.5160(4) 0.9225(1) 0.2693(3)
H7_13 H 0.3808 0.9644 0.2710
H8_9 H 0.6811 0.8895 0.2701
Ag3_7 Ag 0.3750 0.8750 0.2602(1)
N1_4 N 0.9840(4) 0.6725(1) 0.5193(3)
C2_8 C 0.9373(4) 0.7403(1) 0.5113(4)
C3_8 C 0.7991(4) 0.7337(1) 0.5049(3)
C4_8 C 0.7571(4) 0.6955(1) 0.5083(3)
C5_8 C 0.8508(5) 0.6659(1) 0.5164(4)
H2_8 H 0.9719 0.7664 0.5112
H3_9 H 0.6623 0.6897 0.5060
H4_8 H 0.8189 0.6395 0.5201
C6_10 C 0.7009(4) 0.7663(1) 0.4951(3)
C7_10 C 0.5627(4) 0.7597(1) 0.4887(4)
C8_10 C 0.7429(4) 0.8045(1) 0.4917(3)
C9_14 C 0.4760(4) 0.7909(1) 0.4831(3)
H5_10 H 0.5281 0.7336 0.4888
C10_10 C 0.6492(5) 0.8341(1) 0.4836(4)
H6_8 H 0.8377 0.8103 0.4940
N3_10 N 0.5160(4) 0.8275(1) 0.4807(3)
H7_14 H 0.3808 0.7856 0.4790
H8_10 H 0.6811 0.8605 0.4799
Ag3_8 Ag 0.3750 0.8750 0.4898(1)
C6_11 C 0.0491(4) 0.9837(1) 0.4951(3)
C7_11 C 0.1873(4) 0.9903(1) 0.4887(4)
C8_11 C 0.0071(4) 0.9455(1) 0.4917(3)
C9_15 C 0.2740(4) 0.9591(1) 0.4831(3)
C10_11 C 0.1008(5) 0.9159(1) 0.4836(4)
N3_11 N 0.2340(4) 0.9225(1) 0.4807(3)
H7_15 H 0.3692 0.9644 0.4790
H8_11 H 0.0689 0.8895 0.4799
H3_10 H 0.0877 0.6897 0.2440
C6_12 C 0.0491(4) 0.7663(1) 0.2549(3)
C7_12 C 0.1873(4) 0.7597(1) 0.2613(4)
C8_12 C 0.0071(4) 0.8045(1) 0.2583(3)
C9_16 C 0.2740(4) 0.7909(1) 0.2669(3)
H5_11 H 0.2219 0.7336 0.2612
C10_12 C 0.1008(5) 0.8341(1) 0.2664(4)
N3_12 N 0.2340(4) 0.8275(1) 0.2693(3)
H7_16 H 0.3692 0.7856 0.2710
H8_12 H 0.0689 0.8605 0.2701
Ag1_3 Ag 0.6250 0.1250 0.5102(1)
N1_5 N 0.4840(4) 0.1725(1) 0.5193(3)
C1_9 C 0.5240(4) 0.2091(1) 0.5169(3)
C2_9 C 0.4373(4) 0.2403(1) 0.5113(4)
C3_9 C 0.2991(4) 0.2337(1) 0.5049(3)
C4_9 C 0.2571(4) 0.1955(1) 0.5083(3)
C5_9 C 0.3508(5) 0.1659(1) 0.5164(4)
H1_9 H 0.6192 0.2144 0.5210
H2_9 H 0.4719 0.2664 0.5112
H3_11 H 0.1623 0.1897 0.5060
H4_9 H 0.3189 0.1395 0.5201
Ag2_3 Ag 0.6250 0.1250 0.7398(1)
N2_5 N 0.7660(4) 0.0775(1) 0.5193(3)
C6_13 C 0.2009(4) 0.2663(1) 0.4951(3)
C7_13 C 0.0627(4) 0.2597(1) 0.4887(4)
C8_13 C 0.2429(4) 0.3045(1) 0.4917(3)
H5_12 H 0.0281 0.2336 0.4888
C10_13 C 0.1492(5) 0.3341(1) 0.4836(4)
H6_9 H 0.3377 0.3103 0.4940
N3_13 N 0.0160(4) 0.3275(1) 0.4807(3)
H8_13 H 0.1811 0.3605 0.4799
C1_10 C 0.7260(4) 0.0409(1) 0.5169(3)
C2_10 C 0.8127(4) 0.0097(1) 0.5113(4)
C3_10 C 0.9509(4) 0.0163(1) 0.5049(3)
C4_10 C 0.9929(4) 0.0545(1) 0.5083(3)
C5_10 C 0.8992(5) 0.0841(1) 0.5164(4)
H1_10 H 0.6308 0.0356 0.5210
H4_10 H 0.9311 0.1105 0.5201
N1_6 N 0.4840(4) 0.0775(1) 0.7307(3)
C1_11 C 0.5240(4) 0.0409(1) 0.7331(3)
C2_11 C 0.4373(4) 0.0097(1) 0.7387(4)
C3_11 C 0.2991(4) 0.0163(1) 0.7451(3)
C4_11 C 0.2571(4) 0.0545(1) 0.7417(3)
C5_11 C 0.3508(5) 0.0841(1) 0.7336(4)
H1_11 H 0.6192 0.0356 0.7290
H3_12 H 0.1623 0.0603 0.7440
H4_11 H 0.3189 0.1105 0.7299
N2_6 N 0.7660(4) 0.1725(1) 0.7307(3)
H5_13 H 0.0281 0.0164 0.7612
C1_12 C 0.7260(4) 0.2091(1) 0.7331(3)
C2_12 C 0.8127(4) 0.2403(1) 0.7387(4)
C3_12 C 0.9509(4) 0.2337(1) 0.7451(3)
C4_12 C 0.9929(4) 0.1955(1) 0.7417(3)
C5_12 C 0.8992(5) 0.1659(1) 0.7336(4)
H1_12 H 0.6308 0.2144 0.7290
H2_10 H 0.7781 0.2664 0.7388
H4_12 H 0.9311 0.1395 0.7299
H6_10 H 0.9123 0.3103 0.7560
H3_13 H 0.0877 0.0603 0.5060
H5_14 H 0.2219 0.0164 0.4888
H2_11 H 0.7781 0.9836 0.5112
H6_11 H 0.9123 0.9397 0.4940
H2_12 H 0.4719 0.9836 0.7388
C6_14 C 0.2009(4) 0.9837(1) 0.7549(3)
C7_14 C 0.0627(4) 0.9903(1) 0.7613(4)
C8_14 C 0.2429(4) 0.9455(1) 0.7583(3)
C10_14 C 0.1492(5) 0.9159(1) 0.7664(4)
H6_12 H 0.3377 0.9397 0.7560
N3_14 N 0.0160(4) 0.9225(1) 0.7693(3)
H8_14 H 0.1811 0.8895 0.7701
Ag1_4 Ag 0.6250 0.6250 0.0102(1)
N1_7 N 0.4840(4) 0.6725(1) 0.0193(3)
C1_13 C 0.5240(4) 0.7091(1) 0.0169(3)
C2_13 C 0.4373(4) 0.7403(1) 0.0113(4)
C3_13 C 0.2991(4) 0.7337(1) 0.0049(3)
C4_13 C 0.2571(4) 0.6955(1) 0.0083(3)
C5_13 C 0.3508(5) 0.6659(1) 0.0164(4)
H1_13 H 0.6192 0.7144 0.0210
H2_13 H 0.4719 0.7664 0.0112
H3_14 H 0.1623 0.6897 0.0060
H4_13 H 0.3189 0.6395 0.0201
Ag2_4 Ag 0.6250 0.6250 0.2398(1)
N2_7 N 0.7660(4) 0.5775(1) 0.0193(3)
C1_14 C 0.7260(4) 0.5409(1) 0.0169(3)
C2_14 C 0.8127(4) 0.5097(1) 0.0113(4)
C3_14 C 0.9509(4) 0.5163(1) 0.0049(3)
C4_14 C 0.9929(4) 0.5545(1) 0.0083(3)
C5_14 C 0.8992(5) 0.5841(1) 0.0164(4)
H1_14 H 0.6308 0.5356 0.0210
H2_14 H 0.7781 0.4836 0.0112
H4_14 H 0.9311 0.6105 0.0201
N1_8 N 0.4840(4) 0.5775(1) 0.2307(3)
C1_15 C 0.5240(4) 0.5409(1) 0.2331(3)
C2_15 C 0.4373(4) 0.5097(1) 0.2387(4)
C3_15 C 0.2991(4) 0.5163(1) 0.2451(3)
C4_15 C 0.2571(4) 0.5545(1) 0.2417(3)
C5_15 C 0.3508(5) 0.5841(1) 0.2336(4)
H1_15 H 0.6192 0.5356 0.2290
H2_15 H 0.4719 0.4836 0.2388
H3_15 H 0.1623 0.5603 0.2440
H4_15 H 0.3189 0.6105 0.2299
N2_8 N 0.7660(4) 0.6725(1) 0.2307(3)
C6_15 C 0.2009(4) 0.4837(1) 0.2549(3)
C7_15 C 0.0627(4) 0.4903(1) 0.2613(4)
C8_15 C 0.2429(4) 0.4455(1) 0.2583(3)
H5_15 H 0.0281 0.5164 0.2612
C10_15 C 0.1492(5) 0.4159(1) 0.2664(4)
H6_13 H 0.3377 0.4397 0.2560
N3_15 N 0.0160(4) 0.4225(1) 0.2693(3)
H8_15 H 0.1811 0.3895 0.2701
C1_16 C 0.7260(4) 0.7091(1) 0.2331(3)
C2_16 C 0.8127(4) 0.7403(1) 0.2387(4)
C3_16 C 0.9509(4) 0.7337(1) 0.2451(3)
C4_16 C 0.9929(4) 0.6955(1) 0.2417(3)
C5_16 C 0.8992(5) 0.6659(1) 0.2336(4)
H1_16 H 0.6308 0.7144 0.2290
H2_16 H 0.7781 0.7664 0.2388
H4_16 H 0.9311 0.6395 0.2299
H6_14 H 0.9123 0.8103 0.2560
C6_16 C 0.2009(4) 0.7663(1) 0.9951(3)
C7_16 C 0.0627(4) 0.7597(1) 0.9887(4)
C8_16 C 0.2429(4) 0.8045(1) 0.9917(3)
H5_16 H 0.0281 0.7336 0.9888
C10_16 C 0.1492(5) 0.8341(1) 0.9836(4)
H6_15 H 0.3377 0.8103 0.9940
N3_16 N 0.0160(4) 0.8275(1) 0.9807(3)
H8_16 H 0.1811 0.8605 0.9799
H3_16 H 0.0877 0.5603 0.0060
H6_16 H 0.9123 0.4397 0.9940
loop_
_geom_bond_atom_site_label_1
_geom_bond_atom_site_label_2
_geom_bond_site_symmetry_1
_geom_bond_site_symmetry_2
H1 C1 1_555 1_555
Ag2 Ag1 1_555 1_555
N2 Ag1 1_555 1_555
N2 C1_2 1_555 1_555
C1_2 C2 1_555 1_555
C2 C3 1_555 1_555
C3 C4 1_555 1_555
C4 C5 1_555 1_555
C5 N2 1_555 1_555
H1_2 C1_2 1_555 1_555
H3 C4 1_555 1_555
H4 C5 1_555 1_555
C7 C6 1_555 1_555
C8 C6 1_555 1_555
C9 C7 1_555 1_555
C10 C8 1_555 1_555
H6 C8 1_555 1_555
N3 C9 1_555 1_555
H7 C9 1_555 1_555
H8 C10 1_555 1_555
Ag3 N3 1_555 1_555
C10 N3 1_555 1_555
H1_3 C1_3 1_555 1_555
N2_2 Ag2 1_555 1_555
N2_2 C1_4 1_555 1_555
C1_4 C2_2 1_555 1_555
C2_2 C3_2 1_555 1_555
C3_2 C4_2 1_555 1_555
C4_2 C5_2 1_555 1_555
C5_2 N2_2 1_555 1_555
H1_4 C1_4 1_555 1_555
H2 C2_2 1_555 1_555
H3_2 C4_2 1_555 1_555
H4_2 C5_2 1_555 1_555
C6_2 C3_2 1_555 1_555
C7_2 C6_2 1_555 1_555
C8_2 C6_2 1_555 1_555
C9_2 C7_2 1_555 1_555
H5 C7_2 1_555 1_555
C10_2 C8_2 1_555 1_555
H6_2 C8_2 1_555 1_555
N3_2 C9_2 1_555 1_555
H7_2 C9_2 1_555 1_555
H8_2 C10_2 1_555 1_555
Ag3_2 N3_2 1_555 1_555
C10_2 N3_2 1_555 1_555
H1_5 C1_5 1_555 1_555
Ag2_2 Ag1_2 1_555 1_555
N2_3 Ag1_2 1_555 1_555
N2_3 C1_6 1_555 1_555
C1_6 C2_3 1_555 1_555
C2_3 C3_3 1_555 1_555
C3_3 C4_3 1_555 1_555
C4_3 C5_3 1_555 1_555
C5_3 N2_3 1_555 1_555
H1_6 C1_6 1_555 1_555
H2_2 C2_3 1_555 1_555
H3_3 C4_3 1_555 1_555
H4_3 C5_3 1_555 1_555
C6_3 C3_3 1_555 1_555
C7_3 C6_3 1_555 1_555
C8_3 C6_3 1_555 1_555
C9_3 C7_3 1_555 1_555
H5_2 C7_3 1_555 1_555
C10_3 C8_3 1_555 1_555
H6_3 C8_3 1_555 1_555
N3_3 C9_3 1_555 1_555
H7_3 C9_3 1_555 1_555
H8_3 C10_3 1_555 1_555
Ag3_3 N3_3 1_555 1_555
C10_3 N3_3 1_555 1_555
H1_7 C1_7 1_555 1_555
N2_4 Ag2_2 1_555 1_555
N2_4 C1_8 1_555 1_555
C1_8 C2_4 1_555 1_555
C2_4 C3_4 1_555 1_555
C3_4 C4_4 1_555 1_555
C4_4 C5_4 1_555 1_555
C5_4 N2_4 1_555 1_555
H1_8 C1_8 1_555 1_555
H2_3 C2_4 1_555 1_555
H3_4 C4_4 1_555 1_555
H4_4 C5_4 1_555 1_555
C6_4 C3_4 1_555 1_555
C7_4 C6_4 1_555 1_555
C8_4 C6_4 1_555 1_555
C9_4 C7_4 1_555 1_555
H5_3 C7_4 1_555 1_555
C10_4 C8_4 1_555 1_555
H6_4 C8_4 1_555 1_555
N3_4 C9_4 1_555 1_555
H7_4 C9_4 1_555 1_555
H8_4 C10_4 1_555 1_555
Ag3_4 N3_4 1_555 1_555
C10_4 N3_4 1_555 1_555
H7_5 C9_5 1_555 1_555
H7_6 C9_6 1_555 1_555
H7_7 C9_7 1_555 1_555
H7_8 C9_8 1_555 1_555
Ag3_4 Ag3 1_555 1_555
Ag3_2 Ag3_3 1_555 1_555
C2_5 C3_5 1_555 1_555
C3_5 C4_5 1_555 1_555
C4_5 C5_5 1_555 1_555
C5_5 N1 1_555 1_555
H2_4 C2_5 1_555 1_555
H3_5 C4_5 1_555 1_555
H4_5 C5_5 1_555 1_555
C7_5 C6_5 1_555 1_555
C8_5 C6_5 1_555 1_555
C9_9 C7_5 1_555 1_555
H5_4 C7_5 1_555 1_555
C10_5 C8_5 1_555 1_555
H6_5 C8_5 1_555 1_555
N3_5 C9_9 1_555 1_555
H7_9 C9_9 1_555 1_555
H8_5 C10_5 1_555 1_555
Ag3_5 N3_5 1_555 1_555
C10_5 N3_5 1_555 1_555
C2_6 C3_6 1_555 1_555
C3_6 C4_6 1_555 1_555
C4_6 C5_6 1_555 1_555
C5_6 N1_2 1_555 1_555
H2_5 C2_6 1_555 1_555
H3_6 C4_6 1_555 1_555
H4_6 C5_6 1_555 1_555
C6_6 C3_6 1_555 1_555
C7_6 C6_6 1_555 1_555
C8_6 C6_6 1_555 1_555
C9_10 C7_6 1_555 1_555
H5_5 C7_6 1_555 1_555
C10_6 C8_6 1_555 1_555
H6_6 C8_6 1_555 1_555
N3_6 C9_10 1_555 1_555
H7_10 C9_10 1_555 1_555
H8_6 C10_6 1_555 1_555
Ag3_6 N3_6 1_555 1_555
C10_6 N3_6 1_555 1_555
C7_7 C6_7 1_555 1_555
C8_7 C6_7 1_555 1_555
C9_11 C7_7 1_555 1_555
H5_6 C7_7 1_555 1_555
C10_7 C8_7 1_555 1_555
N3_7 C9_11 1_555 1_555
H7_11 C9_11 1_555 1_555
H8_7 C10_7 1_555 1_555
Ag3_6 N3_7 1_555 1_555
C10_7 N3_7 1_555 1_555
C7_8 C6_8 1_555 1_555
C8_8 C6_8 1_555 1_555
C9_12 C7_8 1_555 1_555
H5_7 C7_8 1_555 1_555
C10_8 C8_8 1_555 1_555
N3_8 C9_12 1_555 1_555
H7_12 C9_12 1_555 1_555
H8_8 C10_8 1_555 1_555
Ag3_5 N3_8 1_555 1_555
C10_8 N3_8 1_555 1_555
Ag3_6 Ag3_5 1_555 1_555
C2_7 C3_7 1_555 1_555
C3_7 C4_7 1_555 1_555
C4_7 C5_7 1_555 1_555
C5_7 N1_3 1_555 1_555
H3_8 C4_7 1_555 1_555
H4_7 C5_7 1_555 1_555
C7_9 C6_9 1_555 1_555
C8_9 C6_9 1_555 1_555
C9_13 C7_9 1_555 1_555
C10_9 C8_9 1_555 1_555
H6_7 C8_9 1_555 1_555
N3_9 C9_13 1_555 1_555
H7_13 C9_13 1_555 1_555
H8_9 C10_9 1_555 1_555
Ag3_7 N3_9 1_555 1_555
C10_9 N3_9 1_555 1_555
C2_8 C3_8 1_555 1_555
C3_8 C4_8 1_555 1_555
C4_8 C5_8 1_555 1_555
C5_8 N1_4 1_555 1_555
H2_8 C2_8 1_555 1_555
H3_9 C4_8 1_555 1_555
H4_8 C5_8 1_555 1_555
C6_10 C3_8 1_555 1_555
C7_10 C6_10 1_555 1_555
C8_10 C6_10 1_555 1_555
C9_14 C7_10 1_555 1_555
H5_10 C7_10 1_555 1_555
C10_10 C8_10 1_555 1_555
H6_8 C8_10 1_555 1_555
N3_10 C9_14 1_555 1_555
H7_14 C9_14 1_555 1_555
H8_10 C10_10 1_555 1_555
Ag3_8 N3_10 1_555 1_555
C10_10 N3_10 1_555 1_555
C7_11 C6_11 1_555 1_555
C8_11 C6_11 1_555 1_555
C9_15 C7_11 1_555 1_555
C10_11 C8_11 1_555 1_555
N3_11 C9_15 1_555 1_555
H7_15 C9_15 1_555 1_555
H8_11 C10_11 1_555 1_555
Ag3_8 N3_11 1_555 1_555
C10_11 N3_11 1_555 1_555
C7_12 C6_12 1_555 1_555
C8_12 C6_12 1_555 1_555
C9_16 C7_12 1_555 1_555
H5_11 C7_12 1_555 1_555
C10_12 C8_12 1_555 1_555
N3_12 C9_16 1_555 1_555
H7_16 C9_16 1_555 1_555
H8_12 C10_12 1_555 1_555
Ag3_7 N3_12 1_555 1_555
C10_12 N3_12 1_555 1_555
Ag3_7 Ag3_8 1_555 1_555
Ag1_3 N1_5 1_555 1_555
N1_5 C1_9 1_555 1_555
C1_9 C2_9 1_555 1_555
C2_9 C3_9 1_555 1_555
C3_9 C4_9 1_555 1_555
C4_9 C5_9 1_555 1_555
C5_9 N1_5 1_555 1_555
H1_9 C1_9 1_555 1_555
H2_9 C2_9 1_555 1_555
H3_11 C4_9 1_555 1_555
H4_9 C5_9 1_555 1_555
Ag2_3 Ag1_3 1_555 1_555
N2_5 Ag1_3 1_555 1_555
C6_13 C3_9 1_555 1_555
C7_13 C6_13 1_555 1_555
C8_13 C6_13 1_555 1_555
H5_12 C7_13 1_555 1_555
C10_13 C8_13 1_555 1_555
H6_9 C8_13 1_555 1_555
H8_13 C10_13 1_555 1_555
C10_13 N3_13 1_555 1_555
N2_5 C1_10 1_555 1_555
C1_10 C2_10 1_555 1_555
C2_10 C3_10 1_555 1_555
C3_10 C4_10 1_555 1_555
C4_10 C5_10 1_555 1_555
C5_10 N2_5 1_555 1_555
H1_10 C1_10 1_555 1_555
H4_10 C5_10 1_555 1_555
Ag2_3 N1_6 1_555 1_555
N1_6 C1_11 1_555 1_555
C1_11 C2_11 1_555 1_555
C2_11 C3_11 1_555 1_555
C3_11 C4_11 1_555 1_555
C4_11 C5_11 1_555 1_555
C5_11 N1_6 1_555 1_555
H1_11 C1_11 1_555 1_555
H3_12 C4_11 1_555 1_555
H4_11 C5_11 1_555 1_555
N2_6 Ag2_3 1_555 1_555
N2_6 C1_12 1_555 1_555
C1_12 C2_12 1_555 1_555
C2_12 C3_12 1_555 1_555
C3_12 C4_12 1_555 1_555
C4_12 C5_12 1_555 1_555
C5_12 N2_6 1_555 1_555
H1_12 C1_12 1_555 1_555
H2_10 C2_12 1_555 1_555
H4_12 C5_12 1_555 1_555
C7_14 C6_14 1_555 1_555
C8_14 C6_14 1_555 1_555
C10_14 C8_14 1_555 1_555
H6_12 C8_14 1_555 1_555
H8_14 C10_14 1_555 1_555
C10_14 N3_14 1_555 1_555
Ag1_4 N1_7 1_555 1_555
N1_7 C1_13 1_555 1_555
C1_13 C2_13 1_555 1_555
C2_13 C3_13 1_555 1_555
C3_13 C4_13 1_555 1_555
C4_13 C5_13 1_555 1_555
C5_13 N1_7 1_555 1_555
H1_13 C1_13 1_555 1_555
H2_13 C2_13 1_555 1_555
H3_14 C4_13 1_555 1_555
H4_13 C5_13 1_555 1_555
Ag2_4 Ag1_4 1_555 1_555
N2_7 Ag1_4 1_555 1_555
N2_7 C1_14 1_555 1_555
C1_14 C2_14 1_555 1_555
C2_14 C3_14 1_555 1_555
C3_14 C4_14 1_555 1_555
C4_14 C5_14 1_555 1_555
C5_14 N2_7 1_555 1_555
H1_14 C1_14 1_555 1_555
H2_14 C2_14 1_555 1_555
H4_14 C5_14 1_555 1_555
Ag2_4 N1_8 1_555 1_555
N1_8 C1_15 1_555 1_555
C1_15 C2_15 1_555 1_555
C2_15 C3_15 1_555 1_555
C3_15 C4_15 1_555 1_555
C4_15 C5_15 1_555 1_555
C5_15 N1_8 1_555 1_555
H1_15 C1_15 1_555 1_555
H2_15 C2_15 1_555 1_555
H3_15 C4_15 1_555 1_555
H4_15 C5_15 1_555 1_555
N2_8 Ag2_4 1_555 1_555
C6_15 C3_15 1_555 1_555
C7_15 C6_15 1_555 1_555
C8_15 C6_15 1_555 1_555
H5_15 C7_15 1_555 1_555
C10_15 C8_15 1_555 1_555
H6_13 C8_15 1_555 1_555
H8_15 C10_15 1_555 1_555
C10_15 N3_15 1_555 1_555
N2_8 C1_16 1_555 1_555
C1_16 C2_16 1_555 1_555
C2_16 C3_16 1_555 1_555
C3_16 C4_16 1_555 1_555
C4_16 C5_16 1_555 1_555
C5_16 N2_8 1_555 1_555
H1_16 C1_16 1_555 1_555
H2_16 C2_16 1_555 1_555
H4_16 C5_16 1_555 1_555
C7_16 C6_16 1_555 1_555
C8_16 C6_16 1_555 1_555
H5_16 C7_16 1_555 1_555
C10_16 C8_16 1_555 1_555
H6_15 C8_16 1_555 1_555
H8_16 C10_16 1_555 1_555
C10_16 N3_16 1_555 1_555

#END
