
###############################################################################
#
# This file contains modified crystal structure data generated from the
# MOF subset of the Cambridge Structural Database (CSD) v543 
# hosted by the Cambridge Crystallographic Data Centre (CCDC).
#
# This work is licensed under the Creative Commons
# Attribution-NonCommercial-ShareAlike 4.0 International License.
# To view a copy of this license, visit
# http://creativecommons.org/licenses/by-nc-sa/4.0/
# or send a letter to
# Creative Commons, PO Box 1866, Mountain View, CA 94042, USA.
#
# CIF created using the CSD Python API on 29 September 2022
# The structure has been converted into the P1 space group
# The structure has a 3D framework
# The original CSD entry ZIJXOI is in the orthorhombic crystal system
# The original CSD entry ZIJXOI is in a Sohncke space group
# The framework has been calculated to contain at least 10.0% void space
# The void calculation uses a probe of radius 1.32A, grid spacing 0.4
# The framework is charged, counterions have been retained in the structure
# H atom positions have been added when not included in the experimental data
#
###############################################################################

data_ZIJXOI
_chemical_formula_moiety         '(C960 H576 Eu16 N192 O128 Ru16 32+)n'
_symmetry_cell_setting           triclinic
_symmetry_space_group_name_H-M   'P 1'
_symmetry_Int_Tables_number      1
_space_group_name_Hall           'P 1'
loop_
_symmetry_equiv_pos_site_id
_symmetry_equiv_pos_as_xyz
1 x,y,z
_cell_length_a                   37.086(7)
_cell_length_b                   41.378(8)
_cell_length_c                   41.990(8)
_cell_angle_alpha                90
_cell_angle_beta                 90
_cell_angle_gamma                90
_cell_volume                     64435.5
loop_
_atom_site_label
_atom_site_type_symbol
_atom_site_fract_x
_atom_site_fract_y
_atom_site_fract_z
O8 O 0.1820(5) 0.2777(5) 0.5100(4)
O9 O 0.1861(2) 0.2191(3) 0.5244(2)
C53 C 0.0254(7) 0.2025(7) 0.4607(4)
C54 C 0.0635(7) 0.2109(8) 0.4736(7)
C55 C 0.0748(8) 0.2408(7) 0.4777(7)
H27 H 0.0584 0.2574 0.4718
C56 C 0.1062(9) 0.2503(6) 0.4890(7)
H28 H 0.1092 0.2731 0.4891
C57 C 0.1357(7) 0.2334(7) 0.5009(7)
C58 C 0.1226(5) 0.2031(5) 0.4978(4)
H29 H 0.1390 0.1858 0.5013
C59 C 0.0890(6) 0.1954(6) 0.4903(5)
H30 H 0.0815 0.1751 0.4984
C60 C 0.1714(6) 0.2455(7) 0.5106(5)
N11 N 0.0175(5) 0.1703(5) 0.4470(4)
H63 H 0.0300 0.1522 0.4466
Eu5 Eu 0.24220(2) 0.24942(3) 0.53296(2)
Ru1 Ru 0.86661(4) 0.16440(9) 0.37464(5)
Ru2 Ru 0.62749(3) 0.10233(8) 0.63489(5)
O1 O 0.8020(3) 0.2955(3) 0.0839(2)
O3 O 0.7460(3) 0.2800(3) 0.0912(2)
O10 O 0.7019(3) 0.2346(3) 0.9234(2)
O11 O 0.7602(3) 0.2251(3) 0.9150(3)
O14 O 0.3254(4) 0.2101(3) 0.4807(4)
O15 O 0.3207(3) 0.1565(3) 0.4699(2)
C1 C 0.9198(6) 0.1820(6) 0.3232(5)
H1 H 0.9368 0.1690 0.3343
C2 C 0.9326(5) 0.1956(5) 0.2956(5)
H2 H 0.9572 0.1934 0.2896
C3 C 0.9090(7) 0.2122(6) 0.2772(5)
H3 H 0.9163 0.2247 0.2593
C4 C 0.8751(6) 0.2095(5) 0.2861(6)
C5 C 0.8660(6) 0.1994(5) 0.3152(5)
C6 C 0.8314(6) 0.2023(4) 0.3255(5)
C7 C 0.8058(5) 0.2165(4) 0.3073(5)
C8 C 0.7714(4) 0.2195(4) 0.3217(4)
H4 H 0.7529 0.2304 0.3104
C9 C 0.7639(4) 0.2075(4) 0.3509(4)
H5 H 0.7404 0.2084 0.3598
C10 C 0.7920(5) 0.1940(4) 0.3669(3)
H6 H 0.7876 0.1873 0.3882
C11 C 0.8501(7) 0.2213(5) 0.2664(5)
C12 C 0.8148(6) 0.2250(5) 0.2762(5)
C13 C 0.8159(5) 0.2422(5) 0.2260(5)
C14 C 0.8060(6) 0.2559(5) 0.1981(5)
C15 C 0.7728(5) 0.2585(4) 0.1865(5)
H7 H 0.7539 0.2539 0.2011
C16 C 0.7621(5) 0.2667(4) 0.1566(5)
H8 H 0.7370 0.2684 0.1521
C17 C 0.7864(6) 0.2726(5) 0.1327(5)
C18 C 0.8204(5) 0.2738(5) 0.1441(5)
H9 H 0.8391 0.2816 0.1307
C19 C 0.8288(4) 0.2640(4) 0.1747(6)
H10 H 0.8537 0.2630 0.1797
C20 C 0.7790(6) 0.2808(5) 0.1008(4)
C21 C 0.8555(4) 0.1159(5) 0.3275(8)
H11 H 0.8683 0.1280 0.3119
C22 C 0.8461(6) 0.0888(7) 0.3129(4)
H12 H 0.8497 0.0865 0.2906
C23 C 0.8310(5) 0.0639(5) 0.3299(7)
H13 H 0.8253 0.0430 0.3220
C24 C 0.8256(6) 0.0747(9) 0.3607(6)
C25 C 0.8377(6) 0.1044(9) 0.3673(8)
C26 C 0.8279(5) 0.1113(7) 0.3994(8)
C27 C 0.8140(6) 0.0909(9) 0.4217(6)
C28 C 0.8040(5) 0.1006(6) 0.4512(6)
H14 H 0.7929 0.0861 0.4657
C29 C 0.8103(5) 0.1307(6) 0.4589(5)
H15 H 0.8026 0.1390 0.4788
C30 C 0.8292(4) 0.1508(5) 0.4367(6)
H16 H 0.8352 0.1724 0.4420
C31 C 0.8131(7) 0.0511(7) 0.3818(9)
C32 C 0.8059(8) 0.0644(9) 0.4121(9)
C33 C 0.7910(5) 0.0053(7) 0.4104(8)
C41 C 0.9295(7) 0.1116(6) 0.3822(5)
H21 H 0.9169 0.0979 0.3678
C42 C 0.9615(5) 0.1011(5) 0.3957(4)
H22 H 0.9721 0.0803 0.3935
C43 C 0.9744(5) 0.1259(7) 0.4122(5)
H23 H 0.9952 0.1201 0.4241
C44 C 0.9657(9) 0.1567(7) 0.4163(7)
C45 C 0.9325(7) 0.1633(7) 0.4060(5)
C46 C 0.9179(6) 0.1906(7) 0.4113(6)
C47 C 0.9365(8) 0.2132(7) 0.4274(6)
C48 C 0.9264(5) 0.2448(6) 0.4338(4)
H24 H 0.9419 0.2604 0.4431
C49 C 0.8906(5) 0.2513(6) 0.4251(4)
H25 H 0.8773 0.2703 0.4299
C50 C 0.8788(4) 0.2259(5) 0.4089(4)
H26 H 0.8564 0.2333 0.4009
C51 C 0.9843(5) 0.1784(8) 0.4350(4)
C52 C 0.9725(7) 0.2090(7) 0.4394(4)
C61 C 0.5752(7) 0.1154(6) 0.6867(5)
H31 H 0.5604 0.1001 0.6761
C62 C 0.5624(5) 0.1293(6) 0.7147(6)
H32 H 0.5375 0.1263 0.7191
C63 C 0.5820(6) 0.1472(6) 0.7369(5)
H33 H 0.5724 0.1573 0.7554
C64 C 0.6219(5) 0.1479(5) 0.7264(6)
C65 C 0.6272(6) 0.1358(5) 0.6940(6)
C66 C 0.6655(5) 0.1373(5) 0.6819(5)
C67 C 0.6912(5) 0.1529(5) 0.6993(6)
C68 C 0.7242(5) 0.1570(4) 0.6860(4)
H34 H 0.7430 0.1669 0.6980
C69 C 0.7306(4) 0.1473(4) 0.6563(5)
H35 H 0.7533 0.1509 0.6464
C70 C 0.7047(6) 0.1329(4) 0.6418(4)
H36 H 0.7094 0.1271 0.6203
C71 C 0.6508(7) 0.1620(5) 0.7415(5)
C72 C 0.6851(6) 0.1611(4) 0.7326(5)
C73 C 0.6840(6) 0.1789(5) 0.7787(5)
C74 C 0.6937(5) 0.1949(5) 0.8108(5)
C75 C 0.7326(6) 0.1936(5) 0.8208(5)
H37 H 0.7510 0.1857 0.8071
C76 C 0.7401(5) 0.2050(4) 0.8519(5)
H38 H 0.7648 0.2057 0.8577
C77 C 0.7151(5) 0.2155(5) 0.8759(5)
C78 C 0.6794(6) 0.2120(5) 0.8651(4)
H39 H 0.6611 0.2187 0.8795
C79 C 0.6670(4) 0.1998(4) 0.8356(5)
H40 H 0.6423 0.1951 0.8321
C80 C 0.7295(7) 0.2268(6) 0.9066(5)
C81 C 0.6381(4) 0.0492(6) 0.6825(6)
H41 H 0.6296 0.0616 0.6999
C82 C 0.6440(5) 0.0196(6) 0.6947(4)
H42 H 0.6387 0.0139 0.7161
C84 C 0.6645(5) 0.0086(8) 0.6422(5)
C85 C 0.6564(5) 0.0391(7) 0.6365(7)
C86 C 0.6635(5) 0.0484(7) 0.6051(7)
C87 C 0.6794(5) 0.0294(8) 0.5819(5)
C88 C 0.6892(4) 0.0430(6) 0.5539(6)
H44 H 0.7018 0.0307 0.5384
C89 C 0.6812(5) 0.0736(6) 0.5485(4)
H45 H 0.6881 0.0822 0.5283
C90 C 0.6639(4) 0.0944(5) 0.5691(6)
H46 H 0.6580 0.1164 0.5650
C101 C 0.6197(4) 0.1665(5) 0.6000(4)
H51 H 0.6420 0.1741 0.6082
C102 C 0.6070(5) 0.1903(5) 0.5816(4)
H52 H 0.6218 0.2085 0.5775
C103 C 0.5735(5) 0.1892(6) 0.5685(4)
H53 H 0.5611 0.2053 0.5566
C104 C 0.5620(5) 0.1582(7) 0.5772(5)
C105 C 0.5757(6) 0.1335(6) 0.5927(5)
C106 C 0.5633(7) 0.1060(7) 0.6001(5)
C107 C 0.5305(8) 0.0997(6) 0.5892(6)
C108 C 0.5154(5) 0.0722(7) 0.5946(6)
H54 H 0.4919 0.0687 0.5863
C109 C 0.5314(7) 0.0478(6) 0.6116(6)
H55 H 0.5194 0.0276 0.6134
C110 C 0.5643(6) 0.0518(7) 0.6262(5)
H56 H 0.5767 0.0367 0.6392
C111 C 0.5247(6) 0.1458(6) 0.5650(5)
C112 C 0.5127(6) 0.1163(6) 0.5696(6)
C113 C 0.4699(7) 0.1410(7) 0.5422(5)
C114 C 0.4393(7) 0.1493(8) 0.5269(6)
C115 C 0.4153(5) 0.1297(5) 0.5153(4)
H57 H 0.4207 0.1074 0.5176
C116 C 0.3804(4) 0.1370(6) 0.4988(4)
H58 H 0.3646 0.1204 0.4916
C117 C 0.3731(6) 0.1677(7) 0.4951(5)
C118 C 0.3954(7) 0.1925(6) 0.5063(5)
H59 H 0.3896 0.2148 0.5040
C119 C 0.4273(5) 0.1815(6) 0.5213(5)
H60 H 0.4430 0.1980 0.5288
C120 C 0.3317(5) 0.1842(5) 0.4810(5)
N1 N 0.8876(4) 0.1839(5) 0.3372(4)
N2 N 0.8254(3) 0.1890(4) 0.3555(3)
N3 N 0.8502(4) 0.2356(4) 0.2366(4)
H61 H 0.8699 0.2401 0.2258
N4 N 0.7955(3) 0.2415(4) 0.2523(4)
N5 N 0.8559(4) 0.1368(6) 0.3567(4)
N6 N 0.8384(4) 0.1383(6) 0.4075(4)
N7 N 0.7987(4) 0.0214(5) 0.3791(3)
H62 H 0.7942 0.0122 0.3606
N8 N 0.7932(3) 0.0336(8) 0.4279(3)
N9 N 0.9163(4) 0.1404(5) 0.3890(4)
N10 N 0.8807(4) 0.1951(5) 0.3972(4)
N12 N 0.9993(6) 0.2266(5) 0.4565(4)
N13 N 0.6042(4) 0.1218(5) 0.6753(4)
N14 N 0.6687(3) 0.1241(4) 0.6536(4)
N15 N 0.6494(4) 0.1724(4) 0.7733(4)
H64 H 0.6307 0.1741 0.7861
N16 N 0.7060(3) 0.1771(4) 0.7549(4)
N17 N 0.6383(4) 0.0730(5) 0.6539(3)
N18 N 0.6561(4) 0.0768(6) 0.5985(4)
N21 N 0.6144(4) 0.1320(5) 0.6139(4)
N22 N 0.5755(4) 0.0828(7) 0.6178(4)
N23 N 0.4992(6) 0.1613(5) 0.5483(4)
N24 N 0.4771(6) 0.1154(5) 0.5568(5)
H66 H 0.4621 0.0991 0.5588
Eu3 Eu 0.26279(2) 0.18859(3) 0.45993(2)
Eu4 Eu 0.76279(2) 0.31141(3) 0.04007(2)
Eu6 Eu 0.74220(2) 0.25058(3) 0.96704(2)
Eu1 Eu 0.73721(2) 0.81141(3) 0.45993(2)
Eu2 Eu 0.75780(2) 0.75058(3) 0.53296(2)
O2 O 0.7367(3) 0.6933(3) 0.5177(2)
O4 O 0.8043(2) 0.8111(3) 0.4629(3)
O5 O 0.7471(3) 0.8534(3) 0.4209(3)
O6 O 0.69094(17) 0.7554(2) 0.53144(18)
O7 O 0.7600(2) 0.8683(3) 0.4717(2)
O12 O 0.7478(2) 0.7964(3) 0.5693(2)
O13 O 0.7388(2) 0.8130(3) 0.5191(2)
O16 O 0.74648(16) 0.7615(2) 0.47848(13)
C34 C 0.7833(6) 0.9750(7) 0.4122(6)
C35 C 0.7866(4) 0.9669(6) 0.4439(6)
H17 H 0.7945 0.9820 0.4593
C36 C 0.7778(4) 0.9358(7) 0.4519(4)
H18 H 0.7773 0.9323 0.4742
C37 C 0.7694(4) 0.9085(7) 0.4345(6)
C38 C 0.7631(5) 0.9172(6) 0.4034(5)
H19 H 0.7538 0.9025 0.3881
C39 C 0.7710(5) 0.9477(7) 0.3964(4)
H20 H 0.7671 0.9520 0.3744
C40 C 0.7580(4) 0.8778(6) 0.4332(5)
C83 C 0.6583(4) 0.9987(5) 0.6733(6)
H43 H 0.6641 0.9772 0.6796
C91 C 0.6770(6) 0.9863(7) 0.6208(8)
C92 C 0.6830(6) 0.9988(8) 0.5903(7)
C93 C 0.6985(5) 0.9429(7) 0.5870(7)
C94 C 0.7070(5) 0.9115(7) 0.5809(7)
C95 C 0.7055(4) 0.9067(5) 0.5479(5)
H47 H 0.6978 0.9221 0.5326
C96 C 0.7165(5) 0.8779(7) 0.5421(5)
H48 H 0.7189 0.8752 0.5197
C97 C 0.7271(4) 0.8459(7) 0.5589(5)
C98 C 0.7261(5) 0.8608(6) 0.5917(5)
H49 H 0.7312 0.8460 0.6083
C99 C 0.7195(5) 0.8899(7) 0.6014(4)
H50 H 0.7236 0.8957 0.6230
C100 C 0.7390(4) 0.8183(6) 0.5491(5)
N19 N 0.6851(4) 0.9556(6) 0.6157(5)
H65 H 0.6818 0.9420 0.6315
N20 N 0.6962(4) 0.9733(8) 0.5742(4)
O17 O 0.6980(3) 0.7955(3) 0.4161(2)
O18 O 0.7540(3) 0.7800(3) 0.4088(2)
O19 O 0.8180(5) 0.7223(5) 0.5100(4)
O20 O 0.8139(2) 0.7809(3) 0.5244(2)
O21 O 0.7981(3) 0.7346(3) 0.5766(2)
O22 O 0.7398(3) 0.7251(3) 0.5850(3)
O23 O 0.6746(4) 0.7899(3) 0.4807(4)
O24 O 0.6793(3) 0.8435(3) 0.4699(2)
H67 H 0.812981 0.832762 0.469592
H68 H 0.812249 0.794671 0.478643
H69 H 0.680168 0.740278 0.547146
H70 H 0.683845 0.777891 0.536804
H71 H 0.722956 0.694232 0.497426
H72 H 0.758015 0.67904 0.514986
O2_2 O 0.2633(3) 0.3067(3) 0.5177(2)
O4_2 O 0.1957(2) 0.1889(3) 0.4629(3)
O5_2 O 0.2529(3) 0.1466(3) 0.4209(3)
O6_2 O 0.30906(17) 0.2446(2) 0.53144(18)
O7_2 O 0.2400(2) 0.1317(3) 0.4717(2)
O12_2 O 0.2522(2) 0.2036(3) 0.5693(2)
O13_2 O 0.2612(2) 0.1870(3) 0.5191(2)
O16_2 O 0.25352(16) 0.2385(2) 0.47848(13)
C34_2 C 0.2167(6) 0.0250(7) 0.4122(6)
C35_2 C 0.2134(4) 0.0331(6) 0.4439(6)
H17_2 H 0.2055 0.0180 0.4593
C36_2 C 0.2222(4) 0.0642(7) 0.4519(4)
H18_2 H 0.2227 0.0677 0.4742
C37_2 C 0.2306(4) 0.0915(7) 0.4345(6)
C38_2 C 0.2369(5) 0.0828(6) 0.4034(5)
H19_2 H 0.2462 0.0975 0.3881
C39_2 C 0.2290(5) 0.0523(7) 0.3964(4)
H20_2 H 0.2329 0.0480 0.3744
C40_2 C 0.2420(4) 0.1222(6) 0.4332(5)
C83_2 C 0.3417(4) 0.0013(5) 0.6733(6)
H43_2 H 0.3359 0.0228 0.6796
C91_2 C 0.3230(6) 0.0137(7) 0.6208(8)
C92_2 C 0.3170(6) 0.0012(8) 0.5903(7)
C93_2 C 0.3015(5) 0.0571(7) 0.5870(7)
C94_2 C 0.2930(5) 0.0885(7) 0.5809(7)
C95_2 C 0.2945(4) 0.0933(5) 0.5479(5)
H47_2 H 0.3022 0.0779 0.5326
C96_2 C 0.2835(5) 0.1221(7) 0.5421(5)
H48_2 H 0.2811 0.1248 0.5197
C97_2 C 0.2729(4) 0.1541(7) 0.5589(5)
C98_2 C 0.2739(5) 0.1392(6) 0.5917(5)
H49_2 H 0.2688 0.1540 0.6083
C99_2 C 0.2805(5) 0.1101(7) 0.6014(4)
H50_2 H 0.2764 0.1043 0.6230
C100_2 C 0.2610(4) 0.1817(6) 0.5491(5)
N19_2 N 0.3149(4) 0.0444(6) 0.6157(5)
H65_2 H 0.3182 0.0580 0.6315
N20_2 N 0.3038(4) 0.0267(8) 0.5742(4)
O17_2 O 0.3020(3) 0.2045(3) 0.4161(2)
O18_2 O 0.2460(3) 0.2200(3) 0.4088(2)
O21_2 O 0.2019(3) 0.2654(3) 0.5766(2)
O22_2 O 0.2602(3) 0.2749(3) 0.5850(3)
H67_2 H 0.187019 0.167238 0.469592
H68_2 H 0.187751 0.205329 0.478643
H69_2 H 0.319832 0.259722 0.547146
H70_2 H 0.316155 0.222109 0.536804
H71_2 H 0.277044 0.305768 0.497426
H72_2 H 0.241985 0.32096 0.514986
Ru1_2 Ru 0.13339(4) 0.83560(9) 0.37464(5)
Ru2_2 Ru 0.37251(3) 0.89767(8) 0.63489(5)
O1_2 O 0.1980(3) 0.7045(3) 0.0839(2)
O3_2 O 0.2540(3) 0.7200(3) 0.0912(2)
O10_2 O 0.2981(3) 0.7654(3) 0.9234(2)
O11_2 O 0.2398(3) 0.7749(3) 0.9150(3)
C1_2 C 0.0802(6) 0.8180(6) 0.3232(5)
H1_2 H 0.0632 0.8310 0.3343
C2_2 C 0.0674(5) 0.8044(5) 0.2956(5)
H2_2 H 0.0428 0.8066 0.2896
C3_2 C 0.0910(7) 0.7878(6) 0.2772(5)
H3_2 H 0.0837 0.7753 0.2593
C4_2 C 0.1249(6) 0.7905(5) 0.2861(6)
C5_2 C 0.1340(6) 0.8006(5) 0.3152(5)
C6_2 C 0.1686(6) 0.7977(4) 0.3255(5)
C7_2 C 0.1942(5) 0.7835(4) 0.3073(5)
C8_2 C 0.2286(4) 0.7805(4) 0.3217(4)
H4_2 H 0.2471 0.7696 0.3104
C9_2 C 0.2361(4) 0.7925(4) 0.3509(4)
H5_2 H 0.2596 0.7916 0.3598
C10_2 C 0.2080(5) 0.8060(4) 0.3669(3)
H6_2 H 0.2124 0.8127 0.3882
C11_2 C 0.1499(7) 0.7787(5) 0.2664(5)
C12_2 C 0.1852(6) 0.7750(5) 0.2762(5)
C13_2 C 0.1841(5) 0.7578(5) 0.2260(5)
C14_2 C 0.1940(6) 0.7441(5) 0.1981(5)
C15_2 C 0.2272(5) 0.7415(4) 0.1865(5)
H7_2 H 0.2461 0.7461 0.2011
C16_2 C 0.2379(5) 0.7333(4) 0.1566(5)
H8_2 H 0.2630 0.7316 0.1521
C17_2 C 0.2136(6) 0.7274(5) 0.1327(5)
C18_2 C 0.1796(5) 0.7262(5) 0.1441(5)
H9_2 H 0.1609 0.7184 0.1307
C19_2 C 0.1712(4) 0.7360(4) 0.1747(6)
H10_2 H 0.1463 0.7370 0.1797
C20_2 C 0.2210(6) 0.7192(5) 0.1008(4)
C21_2 C 0.1445(4) 0.8841(5) 0.3275(8)
H11_2 H 0.1317 0.8720 0.3119
C22_2 C 0.1539(6) 0.9112(7) 0.3129(4)
H12_2 H 0.1503 0.9135 0.2906
C23_2 C 0.1690(5) 0.9361(5) 0.3299(7)
H13_2 H 0.1747 0.9570 0.3220
C24_2 C 0.1744(6) 0.9253(9) 0.3607(6)
C25_2 C 0.1623(6) 0.8956(9) 0.3673(8)
C26_2 C 0.1721(5) 0.8887(7) 0.3994(8)
C27_2 C 0.1860(6) 0.9091(9) 0.4217(6)
C28_2 C 0.1960(5) 0.8994(6) 0.4512(6)
H14_2 H 0.2071 0.9139 0.4657
C29_2 C 0.1897(5) 0.8693(6) 0.4589(5)
H15_2 H 0.1974 0.8610 0.4788
C30_2 C 0.1708(4) 0.8492(5) 0.4367(6)
H16_2 H 0.1648 0.8276 0.4420
C31_2 C 0.1869(7) 0.9489(7) 0.3818(9)
C32_2 C 0.1941(8) 0.9356(9) 0.4121(9)
C33_2 C 0.2090(5) 0.9947(7) 0.4104(8)
C41_2 C 0.0705(7) 0.8884(6) 0.3822(5)
H21_2 H 0.0831 0.9021 0.3678
C42_2 C 0.0385(5) 0.8989(5) 0.3957(4)
H22_2 H 0.0279 0.9197 0.3935
C43_2 C 0.0256(5) 0.8741(7) 0.4122(5)
H23_2 H 0.0048 0.8799 0.4241
C44_2 C 0.0343(9) 0.8433(7) 0.4163(7)
C45_2 C 0.0675(7) 0.8367(7) 0.4060(5)
C46_2 C 0.0821(6) 0.8094(7) 0.4113(6)
C47_2 C 0.0635(8) 0.7868(7) 0.4274(6)
C48_2 C 0.0736(5) 0.7552(6) 0.4338(4)
H24_2 H 0.0581 0.7396 0.4431
C49_2 C 0.1094(5) 0.7487(6) 0.4251(4)
H25_2 H 0.1227 0.7297 0.4299
C50_2 C 0.1212(4) 0.7741(5) 0.4089(4)
H26_2 H 0.1436 0.7667 0.4009
C51_2 C 0.0157(5) 0.8216(8) 0.4350(4)
C52_2 C 0.0275(7) 0.7910(7) 0.4394(4)
C61_2 C 0.4248(7) 0.8846(6) 0.6867(5)
H31_2 H 0.4396 0.8999 0.6761
C62_2 C 0.4376(5) 0.8707(6) 0.7147(6)
H32_2 H 0.4625 0.8737 0.7191
C63_2 C 0.4180(6) 0.8528(6) 0.7369(5)
H33_2 H 0.4276 0.8427 0.7554
C64_2 C 0.3781(5) 0.8521(5) 0.7264(6)
C65_2 C 0.3728(6) 0.8642(5) 0.6940(6)
C66_2 C 0.3345(5) 0.8627(5) 0.6819(5)
C67_2 C 0.3088(5) 0.8471(5) 0.6993(6)
C68_2 C 0.2758(5) 0.8430(4) 0.6860(4)
H34_2 H 0.2570 0.8331 0.6980
C69_2 C 0.2694(4) 0.8527(4) 0.6563(5)
H35_2 H 0.2467 0.8491 0.6464
C70_2 C 0.2953(6) 0.8671(4) 0.6418(4)
H36_2 H 0.2906 0.8729 0.6203
C71_2 C 0.3492(7) 0.8380(5) 0.7415(5)
C72_2 C 0.3149(6) 0.8389(4) 0.7326(5)
C73_2 C 0.3160(6) 0.8211(5) 0.7787(5)
C74_2 C 0.3063(5) 0.8051(5) 0.8108(5)
C75_2 C 0.2674(6) 0.8064(5) 0.8208(5)
H37_2 H 0.2490 0.8143 0.8071
C76_2 C 0.2599(5) 0.7950(4) 0.8519(5)
H38_2 H 0.2352 0.7943 0.8577
C77_2 C 0.2849(5) 0.7845(5) 0.8759(5)
C78_2 C 0.3206(6) 0.7880(5) 0.8651(4)
H39_2 H 0.3389 0.7813 0.8795
C79_2 C 0.3330(4) 0.8002(4) 0.8356(5)
H40_2 H 0.3577 0.8049 0.8321
C80_2 C 0.2705(7) 0.7732(6) 0.9066(5)
C81_2 C 0.3619(4) 0.9508(6) 0.6825(6)
H41_2 H 0.3704 0.9384 0.6999
C82_2 C 0.3560(5) 0.9804(6) 0.6947(4)
H42_2 H 0.3613 0.9861 0.7161
C84_2 C 0.3355(5) 0.9914(8) 0.6422(5)
C85_2 C 0.3436(5) 0.9609(7) 0.6365(7)
C86_2 C 0.3365(5) 0.9516(7) 0.6051(7)
C87_2 C 0.3206(5) 0.9706(8) 0.5819(5)
C88_2 C 0.3108(4) 0.9570(6) 0.5539(6)
H44_2 H 0.2982 0.9693 0.5384
C89_2 C 0.3188(5) 0.9264(6) 0.5485(4)
H45_2 H 0.3119 0.9178 0.5283
C90_2 C 0.3361(4) 0.9056(5) 0.5691(6)
H46_2 H 0.3420 0.8836 0.5650
C101_2 C 0.3803(4) 0.8335(5) 0.6000(4)
H51_2 H 0.3580 0.8259 0.6082
C102_2 C 0.3930(5) 0.8097(5) 0.5816(4)
H52_2 H 0.3782 0.7915 0.5775
C103_2 C 0.4265(5) 0.8108(6) 0.5685(4)
H53_2 H 0.4389 0.7947 0.5566
C104_2 C 0.4380(5) 0.8418(7) 0.5772(5)
C105_2 C 0.4243(6) 0.8665(6) 0.5927(5)
C106_2 C 0.4367(7) 0.8940(7) 0.6001(5)
C107_2 C 0.4695(8) 0.9003(6) 0.5892(6)
C108_2 C 0.4846(5) 0.9278(7) 0.5946(6)
H54_2 H 0.5081 0.9313 0.5863
C109_2 C 0.4686(7) 0.9522(6) 0.6116(6)
H55_2 H 0.4806 0.9724 0.6134
C110_2 C 0.4357(6) 0.9482(7) 0.6262(5)
H56_2 H 0.4233 0.9633 0.6392
C111_2 C 0.4753(6) 0.8542(6) 0.5650(5)
C112_2 C 0.4873(6) 0.8837(6) 0.5696(6)
C113_2 C 0.5301(7) 0.8590(7) 0.5422(5)
C114_2 C 0.5607(7) 0.8507(8) 0.5269(6)
C115_2 C 0.5847(5) 0.8703(5) 0.5153(4)
H57_2 H 0.5793 0.8926 0.5176
C116_2 C 0.6196(4) 0.8630(6) 0.4988(4)
H58_2 H 0.6354 0.8796 0.4916
C117_2 C 0.6269(6) 0.8323(7) 0.4951(5)
C118_2 C 0.6046(7) 0.8075(6) 0.5063(5)
H59_2 H 0.6104 0.7852 0.5040
C119_2 C 0.5727(5) 0.8185(6) 0.5213(5)
H60_2 H 0.5570 0.8020 0.5288
C120_2 C 0.6683(5) 0.8158(5) 0.4810(5)
N1_2 N 0.1124(4) 0.8161(5) 0.3372(4)
N2_2 N 0.1746(3) 0.8110(4) 0.3555(3)
N3_2 N 0.1498(4) 0.7644(4) 0.2366(4)
H61_2 H 0.1301 0.7599 0.2258
N4_2 N 0.2045(3) 0.7585(4) 0.2523(4)
N5_2 N 0.1441(4) 0.8632(6) 0.3567(4)
N6_2 N 0.1616(4) 0.8617(6) 0.4075(4)
N7_2 N 0.2013(4) 0.9786(5) 0.3791(3)
H62_2 H 0.2058 0.9878 0.3606
N8_2 N 0.2068(3) 0.9664(8) 0.4279(3)
N9_2 N 0.0837(4) 0.8596(5) 0.3890(4)
N10_2 N 0.1193(4) 0.8049(5) 0.3972(4)
N12_2 N 0.0007(6) 0.7734(5) 0.4565(4)
N13_2 N 0.3958(4) 0.8782(5) 0.6753(4)
N14_2 N 0.3313(3) 0.8759(4) 0.6536(4)
N15_2 N 0.3506(4) 0.8276(4) 0.7733(4)
H64_2 H 0.3693 0.8259 0.7861
N16_2 N 0.2940(3) 0.8229(4) 0.7549(4)
N17_2 N 0.3617(4) 0.9270(5) 0.6539(3)
N18_2 N 0.3439(4) 0.9232(6) 0.5985(4)
N21_2 N 0.3856(4) 0.8680(5) 0.6139(4)
N22_2 N 0.4245(4) 0.9172(7) 0.6178(4)
N23_2 N 0.5008(6) 0.8387(5) 0.5483(4)
N24_2 N 0.5229(6) 0.8846(5) 0.5568(5)
H66_2 H 0.5379 0.9009 0.5588
Eu4_2 Eu 0.23721(2) 0.68859(3) 0.04007(2)
Eu6_2 Eu 0.25780(2) 0.74942(3) 0.96704(2)
C53_2 C 0.9746(7) 0.7975(7) 0.4607(4)
C54_2 C 0.9365(7) 0.7891(8) 0.4736(7)
C55_2 C 0.9252(8) 0.7592(7) 0.4777(7)
H27_2 H 0.9416 0.7426 0.4718
C56_2 C 0.8938(9) 0.7497(6) 0.4890(7)
H28_2 H 0.8908 0.7269 0.4891
C57_2 C 0.8643(7) 0.7666(7) 0.5009(7)
C58_2 C 0.8774(5) 0.7969(5) 0.4978(4)
H29_2 H 0.8610 0.8142 0.5013
C59_2 C 0.9110(6) 0.8046(6) 0.4903(5)
H30_2 H 0.9185 0.8249 0.4984
C60_2 C 0.8286(6) 0.7545(7) 0.5106(5)
N11_2 N 0.9825(5) 0.8297(5) 0.4470(4)
H63_2 H 0.9700 0.8478 0.4466
O14_2 O 0.1746(4) 0.7101(3) 0.0193(4)
O15_2 O 0.1793(3) 0.6565(3) 0.0301(2)
C116_3 C 0.1196(4) 0.6370(6) 0.0012(4)
H58_3 H 0.1354 0.6204 0.0084
C117_3 C 0.1269(6) 0.6677(7) 0.0049(5)
C120_3 C 0.1683(5) 0.6842(5) 0.0190(5)
Ru1_3 Ru 0.63339(4) 0.66440(9) 0.12536(5)
O4_3 O 0.6957(2) 0.3111(3) 0.0371(3)
O5_3 O 0.7529(3) 0.3534(3) 0.0791(3)
O7_3 O 0.7400(2) 0.3683(3) 0.0283(2)
O16_3 O 0.75352(16) 0.2615(2) 0.02152(13)
C1_3 C 0.5802(6) 0.6820(6) 0.1768(5)
H1_3 H 0.5632 0.6690 0.1657
C2_3 C 0.5674(5) 0.6956(5) 0.2044(5)
H2_3 H 0.5428 0.6934 0.2104
C3_3 C 0.5910(7) 0.7122(6) 0.2228(5)
H3_3 H 0.5837 0.7247 0.2407
C4_3 C 0.6249(6) 0.7095(5) 0.2139(6)
C5_3 C 0.6340(6) 0.6994(5) 0.1848(5)
C6_3 C 0.6686(6) 0.7023(4) 0.1745(5)
C7_3 C 0.6942(5) 0.7165(4) 0.1927(5)
C8_3 C 0.7286(4) 0.7195(4) 0.1783(4)
H4_3 H 0.7471 0.7304 0.1896
C9_3 C 0.7361(4) 0.7075(4) 0.1491(4)
H5_3 H 0.7596 0.7084 0.1402
C10_3 C 0.7080(5) 0.6940(4) 0.1331(3)
H6_3 H 0.7124 0.6873 0.1118
C11_3 C 0.6499(7) 0.7213(5) 0.2336(5)
C12_3 C 0.6852(6) 0.7250(5) 0.2238(5)
C13_3 C 0.6841(5) 0.7422(5) 0.2740(5)
C14_3 C 0.6940(6) 0.7559(5) 0.3019(5)
C15_3 C 0.7272(5) 0.7585(4) 0.3135(5)
H7_3 H 0.7461 0.7539 0.2989
C16_3 C 0.7379(5) 0.7667(4) 0.3434(5)
H8_3 H 0.7630 0.7684 0.3479
C17_3 C 0.7136(6) 0.7726(5) 0.3673(5)
C18_3 C 0.6796(5) 0.7738(5) 0.3559(5)
H9_3 H 0.6609 0.7816 0.3693
C19_3 C 0.6712(4) 0.7640(4) 0.3253(6)
H10_3 H 0.6463 0.7630 0.3203
C20_3 C 0.7210(6) 0.7808(5) 0.3992(4)
C21_3 C 0.6445(4) 0.6159(5) 0.1725(8)
H11_3 H 0.6317 0.6280 0.1881
C22_3 C 0.6539(6) 0.5888(7) 0.1871(4)
H12_3 H 0.6503 0.5865 0.2094
C23_3 C 0.6690(5) 0.5639(5) 0.1701(7)
H13_3 H 0.6747 0.5430 0.1780
C24_3 C 0.6744(6) 0.5747(9) 0.1393(6)
C25_3 C 0.6623(6) 0.6044(9) 0.1327(8)
C26_3 C 0.6721(5) 0.6113(7) 0.1006(8)
C27_3 C 0.6860(6) 0.5909(9) 0.0783(6)
C28_3 C 0.6960(5) 0.6006(6) 0.0488(6)
H14_3 H 0.7071 0.5861 0.0343
C29_3 C 0.6897(5) 0.6307(6) 0.0411(5)
H15_3 H 0.6974 0.6390 0.0212
C30_3 C 0.6708(4) 0.6508(5) 0.0633(6)
H16_3 H 0.6648 0.6724 0.0580
C31_3 C 0.6869(7) 0.5511(7) 0.1182(9)
C32_3 C 0.6941(8) 0.5644(9) 0.0879(9)
C33_3 C 0.7090(5) 0.5053(7) 0.0896(8)
C34_3 C 0.7167(6) 0.4750(7) 0.0878(6)
C35_3 C 0.7134(4) 0.4669(6) 0.0561(6)
H17_3 H 0.7055 0.4820 0.0407
C36_3 C 0.7222(4) 0.4358(7) 0.0481(4)
H18_3 H 0.7227 0.4323 0.0258
C37_3 C 0.7306(4) 0.4085(7) 0.0655(6)
C38_3 C 0.7369(5) 0.4172(6) 0.0966(5)
H19_3 H 0.7462 0.4025 0.1119
C39_3 C 0.7290(5) 0.4477(7) 0.1036(4)
H20_3 H 0.7329 0.4520 0.1256
C40_3 C 0.7420(4) 0.3778(6) 0.0668(5)
C41_3 C 0.5705(7) 0.6116(6) 0.1178(5)
H21_3 H 0.5831 0.5979 0.1322
C42_3 C 0.5385(5) 0.6011(5) 0.1043(4)
H22_3 H 0.5279 0.5803 0.1065
C43_3 C 0.5256(5) 0.6259(7) 0.0878(5)
H23_3 H 0.5048 0.6201 0.0759
C44_3 C 0.5343(9) 0.6567(7) 0.0837(7)
C45_3 C 0.5675(7) 0.6633(7) 0.0940(5)
C46_3 C 0.5821(6) 0.6906(7) 0.0887(6)
C47_3 C 0.5635(8) 0.7132(7) 0.0726(6)
C48_3 C 0.5736(5) 0.7448(6) 0.0662(4)
H24_3 H 0.5581 0.7604 0.0569
C49_3 C 0.6094(5) 0.7513(6) 0.0749(4)
H25_3 H 0.6227 0.7703 0.0701
C50_3 C 0.6212(4) 0.7259(5) 0.0911(4)
H26_3 H 0.6436 0.7333 0.0991
C51_3 C 0.5157(5) 0.6784(8) 0.0650(4)
C52_3 C 0.5275(7) 0.7090(7) 0.0606(4)
C53_3 C 0.4746(7) 0.7025(7) 0.0393(4)
C54_3 C 0.4365(7) 0.7109(8) 0.0264(7)
C55_3 C 0.4252(8) 0.7408(7) 0.0223(7)
H27_3 H 0.4416 0.7574 0.0282
C56_3 C 0.3938(9) 0.7503(6) 0.0110(7)
H28_3 H 0.3908 0.7731 0.0109
C58_3 C 0.3774(5) 0.7031(5) 0.0022(4)
C59_3 C 0.4110(6) 0.6954(6) 0.0097(5)
H30_3 H 0.4185 0.6751 0.0016
N1_3 N 0.6124(4) 0.6839(5) 0.1628(4)
N2_3 N 0.6746(3) 0.6890(4) 0.1445(3)
N3_3 N 0.6498(4) 0.7356(4) 0.2634(4)
H61_3 H 0.6301 0.7401 0.2742
N4_3 N 0.7045(3) 0.7415(4) 0.2477(4)
N5_3 N 0.6441(4) 0.6368(6) 0.1433(4)
N6_3 N 0.6616(4) 0.6383(6) 0.0925(4)
N7_3 N 0.7013(4) 0.5214(5) 0.1209(3)
H62_3 H 0.7058 0.5122 0.1394
N8_3 N 0.7068(3) 0.5336(8) 0.0721(3)
N9_3 N 0.5837(4) 0.6404(5) 0.1110(4)
N10_3 N 0.6193(4) 0.6951(5) 0.1028(4)
N11_3 N 0.4825(5) 0.6703(5) 0.0530(4)
H63_3 H 0.4700 0.6522 0.0534
N12_3 N 0.5007(6) 0.7266(5) 0.0435(4)
O23_2 O 0.8254(4) 0.2899(3) 0.0193(4)
O24_2 O 0.8207(3) 0.3435(3) 0.0301(2)
H67_3 H 0.687019 0.332762 0.0304078
H68_3 H 0.687751 0.294671 0.0213568
H71_3 H 0.777044 0.194232 0.00257443
Ru2_3 Ru 0.87251(3) 0.60233(8) 0.86511(5)
O2_3 O 0.7633(3) 0.1933(3) 0.9823(2)
O6_3 O 0.80906(17) 0.2554(2) 0.96856(18)
O8_2 O 0.3180(5) 0.7777(5) 0.9900(4)
O9_2 O 0.3139(2) 0.7191(3) 0.9756(2)
O12_3 O 0.7522(2) 0.2964(3) 0.9307(2)
O13_3 O 0.7612(2) 0.3130(3) 0.9809(2)
C57_3 C 0.3643(7) 0.7334(7) 0.9991(7)
H29_3 H 0.3610 0.6858 0.9987
C60_3 C 0.3286(6) 0.7455(7) 0.9894(5)
C61_3 C 0.9248(7) 0.6154(6) 0.8133(5)
H31_3 H 0.9396 0.6001 0.8239
C62_3 C 0.9376(5) 0.6293(6) 0.7853(6)
H32_3 H 0.9625 0.6263 0.7809
C63_3 C 0.9180(6) 0.6472(6) 0.7631(5)
H33_3 H 0.9276 0.6573 0.7446
C64_3 C 0.8781(5) 0.6479(5) 0.7736(6)
C65_3 C 0.8728(6) 0.6358(5) 0.8060(6)
C66_3 C 0.8345(5) 0.6373(5) 0.8181(5)
C67_3 C 0.8088(5) 0.6529(5) 0.8007(6)
C68_3 C 0.7758(5) 0.6570(4) 0.8140(4)
H34_3 H 0.7570 0.6669 0.8020
C69_3 C 0.7694(4) 0.6473(4) 0.8437(5)
H35_3 H 0.7467 0.6509 0.8536
C70_3 C 0.7953(6) 0.6329(4) 0.8582(4)
H36_3 H 0.7906 0.6271 0.8797
C71_3 C 0.8492(7) 0.6620(5) 0.7585(5)
C72_3 C 0.8149(6) 0.6611(4) 0.7674(5)
C73_3 C 0.8160(6) 0.6789(5) 0.7213(5)
C74_3 C 0.8063(5) 0.6949(5) 0.6892(5)
C75_3 C 0.7674(6) 0.6936(5) 0.6792(5)
H37_3 H 0.7490 0.6857 0.6929
C76_3 C 0.7599(5) 0.7050(4) 0.6481(5)
H38_3 H 0.7352 0.7057 0.6423
C77_3 C 0.7849(5) 0.7155(5) 0.6241(5)
C78_3 C 0.8206(6) 0.7120(5) 0.6349(4)
H39_3 H 0.8389 0.7187 0.6205
C79_3 C 0.8330(4) 0.6998(4) 0.6644(5)
H40_3 H 0.8577 0.6951 0.6679
C80_3 C 0.7705(7) 0.7268(6) 0.5934(5)
C81_3 C 0.8619(4) 0.5492(6) 0.8175(6)
H41_3 H 0.8704 0.5616 0.8001
C82_3 C 0.8560(5) 0.5196(6) 0.8053(4)
H42_3 H 0.8613 0.5139 0.7839
C83_3 C 0.8417(4) 0.4987(5) 0.8267(6)
H43_3 H 0.8359 0.4772 0.8204
C84_3 C 0.8355(5) 0.5086(8) 0.8578(5)
C85_3 C 0.8436(5) 0.5391(7) 0.8635(7)
C86_3 C 0.8365(5) 0.5484(7) 0.8949(7)
C87_3 C 0.8206(5) 0.5294(8) 0.9181(5)
C88_3 C 0.8108(4) 0.5430(6) 0.9461(6)
H44_3 H 0.7982 0.5307 0.9616
C89_3 C 0.8188(5) 0.5736(6) 0.9515(4)
H45_3 H 0.8119 0.5822 0.9717
C90_3 C 0.8361(4) 0.5944(5) 0.9309(6)
H46_3 H 0.8420 0.6164 0.9350
C91_3 C 0.8230(6) 0.4863(7) 0.8792(8)
C92_3 C 0.8170(6) 0.4988(8) 0.9097(7)
C93_3 C 0.8015(5) 0.4429(7) 0.9130(7)
C94_3 C 0.7930(5) 0.4115(7) 0.9191(7)
C95_3 C 0.7945(4) 0.4067(5) 0.9521(5)
H47_3 H 0.8022 0.4221 0.9674
C96_3 C 0.7835(5) 0.3779(7) 0.9579(5)
H48_3 H 0.7811 0.3752 0.9803
C97_3 C 0.7729(4) 0.3459(7) 0.9411(5)
C98_3 C 0.7739(5) 0.3608(6) 0.9083(5)
H49_3 H 0.7688 0.3460 0.8917
C99_3 C 0.7805(5) 0.3899(7) 0.8986(4)
H50_3 H 0.7764 0.3957 0.8770
C100_3 C 0.7610(4) 0.3183(6) 0.9509(5)
C101_3 C 0.8803(4) 0.6665(5) 0.9000(4)
H51_3 H 0.8580 0.6741 0.8918
C102_3 C 0.8930(5) 0.6903(5) 0.9184(4)
H52_3 H 0.8782 0.7085 0.9225
C103_3 C 0.9265(5) 0.6892(6) 0.9315(4)
H53_3 H 0.9389 0.7053 0.9434
C104_3 C 0.9380(5) 0.6582(7) 0.9228(5)
C105_3 C 0.9243(6) 0.6335(6) 0.9073(5)
C106_3 C 0.9367(7) 0.6060(7) 0.8999(5)
C107_3 C 0.9695(8) 0.5997(6) 0.9108(6)
C108_3 C 0.9846(5) 0.5722(7) 0.9054(6)
C109_3 C 0.9686(7) 0.5478(6) 0.8884(6)
H55_3 H 0.9806 0.5276 0.8866
C110_3 C 0.9357(6) 0.5518(7) 0.8738(5)
H56_3 H 0.9233 0.5367 0.8608
C111_3 C 0.9753(6) 0.6458(6) 0.9350(5)
C112_3 C 0.9873(6) 0.6163(6) 0.9304(6)
N13_3 N 0.8958(4) 0.6218(5) 0.8247(4)
N14_3 N 0.8313(3) 0.6241(4) 0.8464(4)
N15_3 N 0.8506(4) 0.6724(4) 0.7267(4)
H64_3 H 0.8693 0.6741 0.7139
N16_3 N 0.7940(3) 0.6771(4) 0.7451(4)
N17_3 N 0.8617(4) 0.5730(5) 0.8461(3)
N18_3 N 0.8439(4) 0.5768(6) 0.9015(4)
N19_3 N 0.8149(4) 0.4556(6) 0.8843(5)
H65_3 H 0.8182 0.4420 0.8685
N20_3 N 0.8038(4) 0.4733(8) 0.9258(4)
N21_3 N 0.8856(4) 0.6320(5) 0.8861(4)
N22_3 N 0.9245(4) 0.5828(7) 0.8822(4)
O19_2 O 0.6820(5) 0.2223(5) 0.9900(4)
O20_2 O 0.6861(2) 0.2809(3) 0.9756(2)
H69_3 H 0.819832 0.240278 0.952854
H70_3 H 0.816155 0.277891 0.963196
H72_3 H 0.741985 0.17904 0.985014
Ru1_4 Ru 0.36661(4) 0.33560(9) 0.12536(5)
O4_4 O 0.3043(2) 0.6889(3) 0.0371(3)
O5_4 O 0.2471(3) 0.6466(3) 0.0791(3)
O7_4 O 0.2600(2) 0.6317(3) 0.0283(2)
O16_4 O 0.24648(16) 0.7385(2) 0.02152(13)
C1_4 C 0.4198(6) 0.3180(6) 0.1768(5)
H1_4 H 0.4368 0.3310 0.1657
C2_4 C 0.4326(5) 0.3044(5) 0.2044(5)
H2_4 H 0.4572 0.3066 0.2104
C3_4 C 0.4090(7) 0.2878(6) 0.2228(5)
H3_4 H 0.4163 0.2753 0.2407
C4_4 C 0.3751(6) 0.2905(5) 0.2139(6)
C5_4 C 0.3660(6) 0.3006(5) 0.1848(5)
C6_4 C 0.3314(6) 0.2977(4) 0.1745(5)
C7_4 C 0.3058(5) 0.2835(4) 0.1927(5)
C8_4 C 0.2714(4) 0.2805(4) 0.1783(4)
H4_4 H 0.2529 0.2696 0.1896
C9_4 C 0.2639(4) 0.2925(4) 0.1491(4)
H5_4 H 0.2404 0.2916 0.1402
C10_4 C 0.2920(5) 0.3060(4) 0.1331(3)
H6_4 H 0.2876 0.3127 0.1118
C11_4 C 0.3501(7) 0.2787(5) 0.2336(5)
C12_4 C 0.3148(6) 0.2750(5) 0.2238(5)
C13_4 C 0.3159(5) 0.2578(5) 0.2740(5)
C14_4 C 0.3060(6) 0.2441(5) 0.3019(5)
C15_4 C 0.2728(5) 0.2415(4) 0.3135(5)
H7_4 H 0.2539 0.2461 0.2989
C16_4 C 0.2621(5) 0.2333(4) 0.3434(5)
H8_4 H 0.2370 0.2316 0.3479
C17_4 C 0.2864(6) 0.2274(5) 0.3673(5)
C18_4 C 0.3204(5) 0.2262(5) 0.3559(5)
H9_4 H 0.3391 0.2184 0.3693
C19_4 C 0.3288(4) 0.2360(4) 0.3253(6)
H10_4 H 0.3537 0.2370 0.3203
C20_4 C 0.2790(6) 0.2192(5) 0.3992(4)
C21_4 C 0.3555(4) 0.3841(5) 0.1725(8)
H11_4 H 0.3683 0.3720 0.1881
C22_4 C 0.3461(6) 0.4112(7) 0.1871(4)
H12_4 H 0.3497 0.4135 0.2094
C23_4 C 0.3310(5) 0.4361(5) 0.1701(7)
H13_4 H 0.3253 0.4570 0.1780
C24_4 C 0.3256(6) 0.4253(9) 0.1393(6)
C25_4 C 0.3377(6) 0.3956(9) 0.1327(8)
C26_4 C 0.3279(5) 0.3887(7) 0.1006(8)
C27_4 C 0.3140(6) 0.4091(9) 0.0783(6)
C28_4 C 0.3040(5) 0.3994(6) 0.0488(6)
H14_4 H 0.2929 0.4139 0.0343
C29_4 C 0.3103(5) 0.3693(6) 0.0411(5)
H15_4 H 0.3026 0.3610 0.0212
C30_4 C 0.3292(4) 0.3492(5) 0.0633(6)
H16_4 H 0.3352 0.3276 0.0580
C31_4 C 0.3131(7) 0.4489(7) 0.1182(9)
C32_4 C 0.3059(8) 0.4356(9) 0.0879(9)
C33_4 C 0.2910(5) 0.4947(7) 0.0896(8)
C34_4 C 0.2833(6) 0.5250(7) 0.0878(6)
C35_4 C 0.2866(4) 0.5331(6) 0.0561(6)
H17_4 H 0.2945 0.5180 0.0407
C36_4 C 0.2778(4) 0.5642(7) 0.0481(4)
H18_4 H 0.2773 0.5677 0.0258
C37_4 C 0.2694(4) 0.5915(7) 0.0655(6)
C38_4 C 0.2631(5) 0.5828(6) 0.0966(5)
H19_4 H 0.2538 0.5975 0.1119
C39_4 C 0.2710(5) 0.5523(7) 0.1036(4)
H20_4 H 0.2671 0.5480 0.1256
C40_4 C 0.2580(4) 0.6222(6) 0.0668(5)
C41_4 C 0.4295(7) 0.3884(6) 0.1178(5)
H21_4 H 0.4169 0.4021 0.1322
C42_4 C 0.4615(5) 0.3989(5) 0.1043(4)
H22_4 H 0.4721 0.4197 0.1065
C43_4 C 0.4744(5) 0.3741(7) 0.0878(5)
H23_4 H 0.4952 0.3799 0.0759
C44_4 C 0.4657(9) 0.3433(7) 0.0837(7)
C45_4 C 0.4325(7) 0.3367(7) 0.0940(5)
C46_4 C 0.4179(6) 0.3094(7) 0.0887(6)
C47_4 C 0.4365(8) 0.2868(7) 0.0726(6)
C48_4 C 0.4264(5) 0.2552(6) 0.0662(4)
H24_4 H 0.4419 0.2396 0.0569
C49_4 C 0.3906(5) 0.2487(6) 0.0749(4)
H25_4 H 0.3773 0.2297 0.0701
C50_4 C 0.3788(4) 0.2741(5) 0.0911(4)
H26_4 H 0.3564 0.2667 0.0991
C51_4 C 0.4843(5) 0.3216(8) 0.0650(4)
C52_4 C 0.4725(7) 0.2910(7) 0.0606(4)
C53_4 C 0.5254(7) 0.2975(7) 0.0393(4)
C54_4 C 0.5635(7) 0.2891(8) 0.0264(7)
C55_4 C 0.5748(8) 0.2592(7) 0.0223(7)
H27_4 H 0.5584 0.2426 0.0282
C56_4 C 0.6062(9) 0.2497(6) 0.0110(7)
H28_4 H 0.6092 0.2269 0.0109
C58_4 C 0.6226(5) 0.2969(5) 0.0022(4)
C59_4 C 0.5890(6) 0.3046(6) 0.0097(5)
H30_4 H 0.5815 0.3249 0.0016
N1_4 N 0.3876(4) 0.3161(5) 0.1628(4)
N2_4 N 0.3254(3) 0.3110(4) 0.1445(3)
N3_4 N 0.3502(4) 0.2644(4) 0.2634(4)
H61_4 H 0.3699 0.2599 0.2742
N4_4 N 0.2955(3) 0.2585(4) 0.2477(4)
N5_4 N 0.3559(4) 0.3632(6) 0.1433(4)
N6_4 N 0.3384(4) 0.3617(6) 0.0925(4)
N7_4 N 0.2987(4) 0.4786(5) 0.1209(3)
H62_4 H 0.2942 0.4878 0.1394
N8_4 N 0.2932(3) 0.4664(8) 0.0721(3)
N9_4 N 0.4163(4) 0.3596(5) 0.1110(4)
N10_4 N 0.3807(4) 0.3049(5) 0.1028(4)
N11_4 N 0.5175(5) 0.3297(5) 0.0530(4)
H63_4 H 0.5300 0.3478 0.0534
N12_4 N 0.4993(6) 0.2734(5) 0.0435(4)
H67_4 H 0.312981 0.667238 0.0304078
H68_4 H 0.312249 0.705329 0.0213568
H71_4 H 0.222956 0.805768 0.00257443
Ru2_4 Ru 0.12749(3) 0.39767(8) 0.86511(5)
O2_4 O 0.2367(3) 0.8067(3) 0.9823(2)
O6_4 O 0.19094(17) 0.7446(2) 0.96856(18)
O12_4 O 0.2478(2) 0.7036(3) 0.9307(2)
O13_4 O 0.2388(2) 0.6870(3) 0.9809(2)
C57_4 C 0.6357(7) 0.2666(7) 0.9991(7)
H29_4 H 0.6390 0.3142 0.9987
C60_4 C 0.6714(6) 0.2545(7) 0.9894(5)
C61_4 C 0.0752(7) 0.3846(6) 0.8133(5)
H31_4 H 0.0604 0.3999 0.8239
C62_4 C 0.0624(5) 0.3707(6) 0.7853(6)
H32_4 H 0.0375 0.3737 0.7809
C63_4 C 0.0820(6) 0.3528(6) 0.7631(5)
H33_4 H 0.0724 0.3427 0.7446
C64_4 C 0.1219(5) 0.3521(5) 0.7736(6)
C65_4 C 0.1272(6) 0.3642(5) 0.8060(6)
C66_4 C 0.1655(5) 0.3627(5) 0.8181(5)
C67_4 C 0.1912(5) 0.3471(5) 0.8007(6)
C68_4 C 0.2242(5) 0.3430(4) 0.8140(4)
H34_4 H 0.2430 0.3331 0.8020
C69_4 C 0.2306(4) 0.3527(4) 0.8437(5)
H35_4 H 0.2533 0.3491 0.8536
C70_4 C 0.2047(6) 0.3671(4) 0.8582(4)
H36_4 H 0.2094 0.3729 0.8797
C71_4 C 0.1508(7) 0.3380(5) 0.7585(5)
C72_4 C 0.1851(6) 0.3389(4) 0.7674(5)
C73_4 C 0.1840(6) 0.3211(5) 0.7213(5)
C74_4 C 0.1937(5) 0.3051(5) 0.6892(5)
C75_4 C 0.2326(6) 0.3064(5) 0.6792(5)
H37_4 H 0.2510 0.3143 0.6929
C76_4 C 0.2401(5) 0.2950(4) 0.6481(5)
H38_4 H 0.2648 0.2943 0.6423
C77_4 C 0.2151(5) 0.2845(5) 0.6241(5)
C78_4 C 0.1794(6) 0.2880(5) 0.6349(4)
H39_4 H 0.1611 0.2813 0.6205
C79_4 C 0.1670(4) 0.3002(4) 0.6644(5)
H40_4 H 0.1423 0.3049 0.6679
C80_4 C 0.2295(7) 0.2732(6) 0.5934(5)
C81_4 C 0.1381(4) 0.4508(6) 0.8175(6)
H41_4 H 0.1296 0.4384 0.8001
C82_4 C 0.1440(5) 0.4804(6) 0.8053(4)
H42_4 H 0.1387 0.4861 0.7839
C83_4 C 0.1583(4) 0.5013(5) 0.8267(6)
H43_4 H 0.1641 0.5228 0.8204
C84_4 C 0.1645(5) 0.4914(8) 0.8578(5)
C85_4 C 0.1564(5) 0.4609(7) 0.8635(7)
C86_4 C 0.1635(5) 0.4516(7) 0.8949(7)
C87_4 C 0.1794(5) 0.4706(8) 0.9181(5)
C88_4 C 0.1892(4) 0.4570(6) 0.9461(6)
H44_4 H 0.2018 0.4693 0.9616
C89_4 C 0.1812(5) 0.4264(6) 0.9515(4)
H45_4 H 0.1881 0.4178 0.9717
C90_4 C 0.1639(4) 0.4056(5) 0.9309(6)
H46_4 H 0.1580 0.3836 0.9350
C91_4 C 0.1770(6) 0.5137(7) 0.8792(8)
C92_4 C 0.1830(6) 0.5012(8) 0.9097(7)
C93_4 C 0.1985(5) 0.5571(7) 0.9130(7)
C94_4 C 0.2070(5) 0.5885(7) 0.9191(7)
C95_4 C 0.2055(4) 0.5933(5) 0.9521(5)
H47_4 H 0.1978 0.5779 0.9674
C96_4 C 0.2165(5) 0.6221(7) 0.9579(5)
H48_4 H 0.2189 0.6248 0.9803
C97_4 C 0.2271(4) 0.6541(7) 0.9411(5)
C98_4 C 0.2261(5) 0.6392(6) 0.9083(5)
H49_4 H 0.2312 0.6540 0.8917
C99_4 C 0.2195(5) 0.6101(7) 0.8986(4)
H50_4 H 0.2236 0.6043 0.8770
C100_4 C 0.2390(4) 0.6817(6) 0.9509(5)
C101_4 C 0.1197(4) 0.3335(5) 0.9000(4)
H51_4 H 0.1420 0.3259 0.8918
C102_4 C 0.1070(5) 0.3097(5) 0.9184(4)
H52_4 H 0.1218 0.2915 0.9225
C103_4 C 0.0735(5) 0.3108(6) 0.9315(4)
H53_4 H 0.0611 0.2947 0.9434
C104_4 C 0.0620(5) 0.3418(7) 0.9228(5)
C105_4 C 0.0757(6) 0.3665(6) 0.9073(5)
C106_4 C 0.0633(7) 0.3940(7) 0.8999(5)
C107_4 C 0.0305(8) 0.4003(6) 0.9108(6)
C108_4 C 0.0154(5) 0.4278(7) 0.9054(6)
C109_4 C 0.0314(7) 0.4522(6) 0.8884(6)
H55_4 H 0.0194 0.4724 0.8866
C110_4 C 0.0643(6) 0.4482(7) 0.8738(5)
H56_4 H 0.0767 0.4633 0.8608
C111_4 C 0.0247(6) 0.3542(6) 0.9350(5)
C112_4 C 0.0127(6) 0.3837(6) 0.9304(6)
N13_4 N 0.1042(4) 0.3782(5) 0.8247(4)
N14_4 N 0.1687(3) 0.3759(4) 0.8464(4)
N15_4 N 0.1494(4) 0.3276(4) 0.7267(4)
H64_4 H 0.1307 0.3259 0.7139
N16_4 N 0.2060(3) 0.3229(4) 0.7451(4)
N17_4 N 0.1383(4) 0.4270(5) 0.8461(3)
N18_4 N 0.1561(4) 0.4232(6) 0.9015(4)
N19_4 N 0.1851(4) 0.5444(6) 0.8843(5)
H65_4 H 0.1818 0.5580 0.8685
N20_4 N 0.1962(4) 0.5267(8) 0.9258(4)
N21_4 N 0.1144(4) 0.3680(5) 0.8861(4)
N22_4 N 0.0755(4) 0.4172(7) 0.8822(4)
H69_4 H 0.180168 0.759722 0.952854
H70_4 H 0.183845 0.722109 0.963196
H72_4 H 0.258015 0.82096 0.985014
C116_4 C 0.8804(4) 0.3630(6) 0.0012(4)
H58_4 H 0.8646 0.3796 0.0084
C117_4 C 0.8731(6) 0.3323(7) 0.0049(5)
C120_4 C 0.8317(5) 0.3158(5) 0.0190(5)
Ru1_5 Ru 0.13339(4) 0.16440(9) 0.62536(5)
Ru2_5 Ru 0.37251(3) 0.10233(8) 0.36511(5)
O1_3 O 0.1980(3) 0.2955(3) 0.9161(2)
O3_3 O 0.2540(3) 0.2800(3) 0.9088(2)
O10_3 O 0.2981(3) 0.2346(3) 0.0766(2)
O11_3 O 0.2398(3) 0.2251(3) 0.0850(3)
O14_3 O 0.6746(4) 0.2101(3) 0.5193(4)
O15_3 O 0.6793(3) 0.1565(3) 0.5301(2)
C1_5 C 0.0802(6) 0.1820(6) 0.6768(5)
H1_5 H 0.0632 0.1690 0.6657
C2_5 C 0.0674(5) 0.1956(5) 0.7044(5)
H2_5 H 0.0428 0.1934 0.7104
C3_5 C 0.0910(7) 0.2122(6) 0.7228(5)
H3_5 H 0.0837 0.2247 0.7407
C4_5 C 0.1249(6) 0.2095(5) 0.7139(6)
C5_5 C 0.1340(6) 0.1994(5) 0.6848(5)
C6_5 C 0.1686(6) 0.2023(4) 0.6745(5)
C7_5 C 0.1942(5) 0.2165(4) 0.6927(5)
C8_5 C 0.2286(4) 0.2195(4) 0.6783(4)
H4_5 H 0.2471 0.2304 0.6896
C9_5 C 0.2361(4) 0.2075(4) 0.6491(4)
H5_5 H 0.2596 0.2084 0.6402
C10_5 C 0.2080(5) 0.1940(4) 0.6331(3)
H6_5 H 0.2124 0.1873 0.6118
C11_5 C 0.1499(7) 0.2213(5) 0.7336(5)
C12_5 C 0.1852(6) 0.2250(5) 0.7238(5)
C13_5 C 0.1841(5) 0.2422(5) 0.7740(5)
C14_5 C 0.1940(6) 0.2559(5) 0.8019(5)
C15_5 C 0.2272(5) 0.2585(4) 0.8135(5)
H7_5 H 0.2461 0.2539 0.7989
C16_5 C 0.2379(5) 0.2667(4) 0.8434(5)
H8_5 H 0.2630 0.2684 0.8479
C17_5 C 0.2136(6) 0.2726(5) 0.8673(5)
C18_5 C 0.1796(5) 0.2738(5) 0.8559(5)
H9_5 H 0.1609 0.2816 0.8693
C19_5 C 0.1712(4) 0.2640(4) 0.8253(6)
H10_5 H 0.1463 0.2630 0.8203
C20_5 C 0.2210(6) 0.2808(5) 0.8992(4)
C21_5 C 0.1445(4) 0.1159(5) 0.6725(8)
H11_5 H 0.1317 0.1280 0.6881
C22_5 C 0.1539(6) 0.0888(7) 0.6871(4)
H12_5 H 0.1503 0.0865 0.7094
C23_5 C 0.1690(5) 0.0639(5) 0.6701(7)
H13_5 H 0.1747 0.0430 0.6780
C24_5 C 0.1744(6) 0.0747(9) 0.6393(6)
C25_5 C 0.1623(6) 0.1044(9) 0.6327(8)
C26_5 C 0.1721(5) 0.1113(7) 0.6006(8)
C27_5 C 0.1860(6) 0.0909(9) 0.5783(6)
C28_5 C 0.1960(5) 0.1006(6) 0.5488(6)
H14_5 H 0.2071 0.0861 0.5343
C29_5 C 0.1897(5) 0.1307(6) 0.5411(5)
H15_5 H 0.1974 0.1390 0.5212
C30_5 C 0.1708(4) 0.1508(5) 0.5633(6)
H16_5 H 0.1648 0.1724 0.5580
C31_5 C 0.1869(7) 0.0511(7) 0.6182(9)
C32_5 C 0.1941(8) 0.0644(9) 0.5879(9)
C33_5 C 0.2090(5) 0.0053(7) 0.5896(8)
C41_5 C 0.0705(7) 0.1116(6) 0.6178(5)
H21_5 H 0.0831 0.0979 0.6322
C42_5 C 0.0385(5) 0.1011(5) 0.6043(4)
H22_5 H 0.0279 0.0803 0.6065
C43_5 C 0.0256(5) 0.1259(7) 0.5878(5)
H23_5 H 0.0048 0.1201 0.5759
C44_5 C 0.0343(9) 0.1567(7) 0.5837(7)
C45_5 C 0.0675(7) 0.1633(7) 0.5940(5)
C46_5 C 0.0821(6) 0.1906(7) 0.5887(6)
C47_5 C 0.0635(8) 0.2132(7) 0.5726(6)
C48_5 C 0.0736(5) 0.2448(6) 0.5662(4)
H24_5 H 0.0581 0.2604 0.5569
C49_5 C 0.1094(5) 0.2513(6) 0.5749(4)
H25_5 H 0.1227 0.2703 0.5701
C50_5 C 0.1212(4) 0.2259(5) 0.5911(4)
H26_5 H 0.1436 0.2333 0.5991
C51_5 C 0.0157(5) 0.1784(8) 0.5650(4)
C52_5 C 0.0275(7) 0.2090(7) 0.5606(4)
C61_5 C 0.4248(7) 0.1154(6) 0.3133(5)
H31_5 H 0.4396 0.1001 0.3239
C62_5 C 0.4376(5) 0.1293(6) 0.2853(6)
H32_5 H 0.4625 0.1263 0.2809
C63_5 C 0.4180(6) 0.1472(6) 0.2631(5)
H33_5 H 0.4276 0.1573 0.2446
C64_5 C 0.3781(5) 0.1479(5) 0.2736(6)
C65_5 C 0.3728(6) 0.1358(5) 0.3060(6)
C66_5 C 0.3345(5) 0.1373(5) 0.3181(5)
C67_5 C 0.3088(5) 0.1529(5) 0.3007(6)
C68_5 C 0.2758(5) 0.1570(4) 0.3140(4)
H34_5 H 0.2570 0.1669 0.3020
C69_5 C 0.2694(4) 0.1473(4) 0.3437(5)
H35_5 H 0.2467 0.1509 0.3536
C70_5 C 0.2953(6) 0.1329(4) 0.3582(4)
H36_5 H 0.2906 0.1271 0.3797
C71_5 C 0.3492(7) 0.1620(5) 0.2585(5)
C72_5 C 0.3149(6) 0.1611(4) 0.2674(5)
C73_5 C 0.3160(6) 0.1789(5) 0.2213(5)
C74_5 C 0.3063(5) 0.1949(5) 0.1892(5)
C75_5 C 0.2674(6) 0.1936(5) 0.1792(5)
H37_5 H 0.2490 0.1857 0.1929
C76_5 C 0.2599(5) 0.2050(4) 0.1481(5)
H38_5 H 0.2352 0.2057 0.1423
C77_5 C 0.2849(5) 0.2155(5) 0.1241(5)
C78_5 C 0.3206(6) 0.2120(5) 0.1349(4)
H39_5 H 0.3389 0.2187 0.1205
C79_5 C 0.3330(4) 0.1998(4) 0.1644(5)
H40_5 H 0.3577 0.1951 0.1679
C80_5 C 0.2705(7) 0.2268(6) 0.0934(5)
C81_5 C 0.3619(4) 0.0492(6) 0.3175(6)
H41_5 H 0.3704 0.0616 0.3001
C82_5 C 0.3560(5) 0.0196(6) 0.3053(4)
H42_5 H 0.3613 0.0139 0.2839
C84_5 C 0.3355(5) 0.0086(8) 0.3578(5)
C85_5 C 0.3436(5) 0.0391(7) 0.3635(7)
C86_5 C 0.3365(5) 0.0484(7) 0.3949(7)
C87_5 C 0.3206(5) 0.0294(8) 0.4181(5)
C88_5 C 0.3108(4) 0.0430(6) 0.4461(6)
H44_5 H 0.2982 0.0307 0.4616
C89_5 C 0.3188(5) 0.0736(6) 0.4515(4)
H45_5 H 0.3119 0.0822 0.4717
C90_5 C 0.3361(4) 0.0944(5) 0.4309(6)
H46_5 H 0.3420 0.1164 0.4350
C101_5 C 0.3803(4) 0.1665(5) 0.4000(4)
H51_5 H 0.3580 0.1741 0.3918
C102_5 C 0.3930(5) 0.1903(5) 0.4184(4)
H52_5 H 0.3782 0.2085 0.4225
C103_5 C 0.4265(5) 0.1892(6) 0.4315(4)
H53_5 H 0.4389 0.2053 0.4434
C104_5 C 0.4380(5) 0.1582(7) 0.4228(5)
C105_5 C 0.4243(6) 0.1335(6) 0.4073(5)
C106_5 C 0.4367(7) 0.1060(7) 0.3999(5)
C107_5 C 0.4695(8) 0.0997(6) 0.4108(6)
C108_5 C 0.4846(5) 0.0722(7) 0.4054(6)
H54_3 H 0.5081 0.0687 0.4137
C109_5 C 0.4686(7) 0.0478(6) 0.3884(6)
H55_5 H 0.4806 0.0276 0.3866
C110_5 C 0.4357(6) 0.0518(7) 0.3738(5)
H56_5 H 0.4233 0.0367 0.3608
C111_5 C 0.4753(6) 0.1458(6) 0.4350(5)
C112_5 C 0.4873(6) 0.1163(6) 0.4304(6)
C113_3 C 0.5301(7) 0.1410(7) 0.4578(5)
C114_3 C 0.5607(7) 0.1493(8) 0.4731(6)
C115_3 C 0.5847(5) 0.1297(5) 0.4847(4)
H57_3 H 0.5793 0.1074 0.4824
C116_5 C 0.6196(4) 0.1370(6) 0.5012(4)
H58_5 H 0.6354 0.1204 0.5084
C117_5 C 0.6269(6) 0.1677(7) 0.5049(5)
C118_3 C 0.6046(7) 0.1925(6) 0.4937(5)
H59_3 H 0.6104 0.2148 0.4960
C119_3 C 0.5727(5) 0.1815(6) 0.4787(5)
H60_3 H 0.5570 0.1980 0.4712
C120_5 C 0.6683(5) 0.1842(5) 0.5190(5)
N1_5 N 0.1124(4) 0.1839(5) 0.6628(4)
N2_5 N 0.1746(3) 0.1890(4) 0.6445(3)
N3_5 N 0.1498(4) 0.2356(4) 0.7634(4)
H61_5 H 0.1301 0.2401 0.7742
N4_5 N 0.2045(3) 0.2415(4) 0.7477(4)
N5_5 N 0.1441(4) 0.1368(6) 0.6433(4)
N6_5 N 0.1616(4) 0.1383(6) 0.5925(4)
N7_5 N 0.2013(4) 0.0214(5) 0.6209(3)
H62_5 H 0.2058 0.0122 0.6394
N8_5 N 0.2068(3) 0.0336(8) 0.5721(3)
N9_5 N 0.0837(4) 0.1404(5) 0.6110(4)
N10_5 N 0.1193(4) 0.1951(5) 0.6028(4)
N12_5 N 0.0007(6) 0.2266(5) 0.5435(4)
N13_5 N 0.3958(4) 0.1218(5) 0.3247(4)
N14_5 N 0.3313(3) 0.1241(4) 0.3464(4)
N15_5 N 0.3506(4) 0.1724(4) 0.2267(4)
H64_5 H 0.3693 0.1741 0.2139
N16_5 N 0.2940(3) 0.1771(4) 0.2451(4)
N17_5 N 0.3617(4) 0.0730(5) 0.3461(3)
N18_5 N 0.3439(4) 0.0768(6) 0.4015(4)
N21_5 N 0.3856(4) 0.1320(5) 0.3861(4)
N22_5 N 0.4245(4) 0.0828(7) 0.3822(4)
N23_3 N 0.5008(6) 0.1613(5) 0.4517(4)
N24_3 N 0.5229(6) 0.1154(5) 0.4432(5)
H66_3 H 0.5379 0.0991 0.4412
Eu3_2 Eu 0.73721(2) 0.18859(3) 0.54007(2)
Eu4_3 Eu 0.23721(2) 0.31141(3) 0.95993(2)
Eu6_3 Eu 0.25780(2) 0.25058(3) 0.03296(2)
Eu1_2 Eu 0.26279(2) 0.81141(3) 0.54007(2)
Eu2_2 Eu 0.24220(2) 0.75058(3) 0.46704(2)
O2_5 O 0.2633(3) 0.6933(3) 0.4823(2)
O4_5 O 0.1957(2) 0.8111(3) 0.5371(3)
O5_5 O 0.2529(3) 0.8534(3) 0.5791(3)
O6_5 O 0.30906(17) 0.7554(2) 0.46856(18)
O7_5 O 0.2400(2) 0.8683(3) 0.5283(2)
O12_5 O 0.2522(2) 0.7964(3) 0.4307(2)
O13_5 O 0.2612(2) 0.8130(3) 0.4809(2)
O16_5 O 0.25352(16) 0.7615(2) 0.52152(13)
C34_5 C 0.2167(6) 0.9750(7) 0.5878(6)
C35_5 C 0.2134(4) 0.9669(6) 0.5561(6)
H17_5 H 0.2055 0.9820 0.5407
C36_5 C 0.2222(4) 0.9358(7) 0.5481(4)
H18_5 H 0.2227 0.9323 0.5258
C37_5 C 0.2306(4) 0.9085(7) 0.5655(6)
C38_5 C 0.2369(5) 0.9172(6) 0.5966(5)
H19_5 H 0.2462 0.9025 0.6119
C39_5 C 0.2290(5) 0.9477(7) 0.6036(4)
H20_5 H 0.2329 0.9520 0.6256
C40_5 C 0.2420(4) 0.8778(6) 0.5668(5)
C83_5 C 0.3417(4) 0.9987(5) 0.3267(6)
H43_5 H 0.3359 0.9772 0.3204
C91_5 C 0.3230(6) 0.9863(7) 0.3792(8)
C92_5 C 0.3170(6) 0.9988(8) 0.4097(7)
C93_5 C 0.3015(5) 0.9429(7) 0.4130(7)
C94_5 C 0.2930(5) 0.9115(7) 0.4191(7)
C95_5 C 0.2945(4) 0.9067(5) 0.4521(5)
H47_5 H 0.3022 0.9221 0.4674
C96_5 C 0.2835(5) 0.8779(7) 0.4579(5)
H48_5 H 0.2811 0.8752 0.4803
C97_5 C 0.2729(4) 0.8459(7) 0.4411(5)
C98_5 C 0.2739(5) 0.8608(6) 0.4083(5)
H49_5 H 0.2688 0.8460 0.3917
C99_5 C 0.2805(5) 0.8899(7) 0.3986(4)
H50_5 H 0.2764 0.8957 0.3770
C100_5 C 0.2610(4) 0.8183(6) 0.4509(5)
N19_5 N 0.3149(4) 0.9556(6) 0.3843(5)
H65_5 H 0.3182 0.9420 0.3685
N20_5 N 0.3038(4) 0.9733(8) 0.4258(4)
O17_3 O 0.3020(3) 0.7955(3) 0.5839(2)
O18_3 O 0.2460(3) 0.7800(3) 0.5912(2)
O19_3 O 0.1820(5) 0.7223(5) 0.4900(4)
O20_3 O 0.1861(2) 0.7809(3) 0.4756(2)
O21_3 O 0.2019(3) 0.7346(3) 0.4234(2)
O22_3 O 0.2602(3) 0.7251(3) 0.4150(3)
O23_3 O 0.3254(4) 0.7899(3) 0.5193(4)
O24_3 O 0.3207(3) 0.8435(3) 0.5301(2)
H67_5 H 0.187019 0.832762 0.530408
H68_5 H 0.187751 0.794671 0.521357
H69_5 H 0.319832 0.740278 0.452854
H70_5 H 0.316155 0.777891 0.463196
H71_5 H 0.277044 0.694232 0.502574
H72_5 H 0.241985 0.67904 0.485014
O8_3 O 0.8180(5) 0.2777(5) 0.4900(4)
O9_3 O 0.8139(2) 0.2191(3) 0.4756(2)
C53_5 C 0.9746(7) 0.2025(7) 0.5393(4)
C54_5 C 0.9365(7) 0.2109(8) 0.5264(7)
C55_5 C 0.9252(8) 0.2408(7) 0.5223(7)
H27_5 H 0.9416 0.2574 0.5282
C56_5 C 0.8938(9) 0.2503(6) 0.5110(7)
H28_5 H 0.8908 0.2731 0.5109
C57_5 C 0.8643(7) 0.2334(7) 0.4991(7)
C58_5 C 0.8774(5) 0.2031(5) 0.5022(4)
H29_5 H 0.8610 0.1858 0.4987
C59_5 C 0.9110(6) 0.1954(6) 0.5097(5)
H30_5 H 0.9185 0.1751 0.5016
C60_5 C 0.8286(6) 0.2455(7) 0.4894(5)
N11_5 N 0.9825(5) 0.1703(5) 0.5530(4)
H63_5 H 0.9700 0.1522 0.5534
Eu5_2 Eu 0.75780(2) 0.24942(3) 0.46704(2)
C53_6 C 0.0254(7) 0.7975(7) 0.5393(4)
C54_6 C 0.0635(7) 0.7891(8) 0.5264(7)
C55_6 C 0.0748(8) 0.7592(7) 0.5223(7)
H27_6 H 0.0584 0.7426 0.5282
C56_6 C 0.1062(9) 0.7497(6) 0.5110(7)
H28_6 H 0.1092 0.7269 0.5109
C57_6 C 0.1357(7) 0.7666(7) 0.4991(7)
C58_6 C 0.1226(5) 0.7969(5) 0.5022(4)
H29_6 H 0.1390 0.8142 0.4987
C59_6 C 0.0890(6) 0.8046(6) 0.5097(5)
H30_6 H 0.0815 0.8249 0.5016
C60_6 C 0.1714(6) 0.7545(7) 0.4894(5)
N11_6 N 0.0175(5) 0.8297(5) 0.5530(4)
H63_6 H 0.0300 0.8478 0.5534
O2_6 O 0.7367(3) 0.3067(3) 0.4823(2)
O4_6 O 0.8043(2) 0.1889(3) 0.5371(3)
O5_6 O 0.7471(3) 0.1466(3) 0.5791(3)
O6_6 O 0.69094(17) 0.2446(2) 0.46856(18)
O7_6 O 0.7600(2) 0.1317(3) 0.5283(2)
O12_6 O 0.7478(2) 0.2036(3) 0.4307(2)
O13_6 O 0.7388(2) 0.1870(3) 0.4809(2)
O16_6 O 0.74648(16) 0.2385(2) 0.52152(13)
C34_6 C 0.7833(6) 0.0250(7) 0.5878(6)
C35_6 C 0.7866(4) 0.0331(6) 0.5561(6)
H17_6 H 0.7945 0.0180 0.5407
C36_6 C 0.7778(4) 0.0642(7) 0.5481(4)
H18_6 H 0.7773 0.0677 0.5258
C37_6 C 0.7694(4) 0.0915(7) 0.5655(6)
C38_6 C 0.7631(5) 0.0828(6) 0.5966(5)
H19_6 H 0.7538 0.0975 0.6119
C39_6 C 0.7710(5) 0.0523(7) 0.6036(4)
H20_6 H 0.7671 0.0480 0.6256
C40_6 C 0.7580(4) 0.1222(6) 0.5668(5)
C83_6 C 0.6583(4) 0.0013(5) 0.3267(6)
H43_6 H 0.6641 0.0228 0.3204
C91_6 C 0.6770(6) 0.0137(7) 0.3792(8)
C92_6 C 0.6830(6) 0.0012(8) 0.4097(7)
C93_6 C 0.6985(5) 0.0571(7) 0.4130(7)
C94_6 C 0.7070(5) 0.0885(7) 0.4191(7)
C95_6 C 0.7055(4) 0.0933(5) 0.4521(5)
H47_6 H 0.6978 0.0779 0.4674
C96_6 C 0.7165(5) 0.1221(7) 0.4579(5)
H48_6 H 0.7189 0.1248 0.4803
C97_6 C 0.7271(4) 0.1541(7) 0.4411(5)
C98_6 C 0.7261(5) 0.1392(6) 0.4083(5)
H49_6 H 0.7312 0.1540 0.3917
C99_6 C 0.7195(5) 0.1101(7) 0.3986(4)
H50_6 H 0.7236 0.1043 0.3770
C100_6 C 0.7390(4) 0.1817(6) 0.4509(5)
N19_6 N 0.6851(4) 0.0444(6) 0.3843(5)
H65_6 H 0.6818 0.0580 0.3685
N20_6 N 0.6962(4) 0.0267(8) 0.4258(4)
O17_4 O 0.6980(3) 0.2045(3) 0.5839(2)
O18_4 O 0.7540(3) 0.2200(3) 0.5912(2)
O21_4 O 0.7981(3) 0.2654(3) 0.4234(2)
O22_4 O 0.7398(3) 0.2749(3) 0.4150(3)
H67_6 H 0.812981 0.167238 0.530408
H68_6 H 0.812249 0.205329 0.521357
H69_6 H 0.680168 0.259722 0.452854
H70_6 H 0.683845 0.222109 0.463196
H71_6 H 0.722956 0.305768 0.502574
H72_6 H 0.758015 0.32096 0.485014
Ru1_6 Ru 0.86661(4) 0.83560(9) 0.62536(5)
Ru2_6 Ru 0.62749(3) 0.89767(8) 0.36511(5)
O1_4 O 0.8020(3) 0.7045(3) 0.9161(2)
O3_4 O 0.7460(3) 0.7200(3) 0.9088(2)
O10_4 O 0.7019(3) 0.7654(3) 0.0766(2)
O11_4 O 0.7602(3) 0.7749(3) 0.0850(3)
C1_6 C 0.9198(6) 0.8180(6) 0.6768(5)
H1_6 H 0.9368 0.8310 0.6657
C2_6 C 0.9326(5) 0.8044(5) 0.7044(5)
H2_6 H 0.9572 0.8066 0.7104
C3_6 C 0.9090(7) 0.7878(6) 0.7228(5)
H3_6 H 0.9163 0.7753 0.7407
C4_6 C 0.8751(6) 0.7905(5) 0.7139(6)
C5_6 C 0.8660(6) 0.8006(5) 0.6848(5)
C6_6 C 0.8314(6) 0.7977(4) 0.6745(5)
C7_6 C 0.8058(5) 0.7835(4) 0.6927(5)
C8_6 C 0.7714(4) 0.7805(4) 0.6783(4)
H4_6 H 0.7529 0.7696 0.6896
C9_6 C 0.7639(4) 0.7925(4) 0.6491(4)
H5_6 H 0.7404 0.7916 0.6402
C10_6 C 0.7920(5) 0.8060(4) 0.6331(3)
H6_6 H 0.7876 0.8127 0.6118
C11_6 C 0.8501(7) 0.7787(5) 0.7336(5)
C12_6 C 0.8148(6) 0.7750(5) 0.7238(5)
C13_6 C 0.8159(5) 0.7578(5) 0.7740(5)
C14_6 C 0.8060(6) 0.7441(5) 0.8019(5)
C15_6 C 0.7728(5) 0.7415(4) 0.8135(5)
H7_6 H 0.7539 0.7461 0.7989
C16_6 C 0.7621(5) 0.7333(4) 0.8434(5)
H8_6 H 0.7370 0.7316 0.8479
C17_6 C 0.7864(6) 0.7274(5) 0.8673(5)
C18_6 C 0.8204(5) 0.7262(5) 0.8559(5)
H9_6 H 0.8391 0.7184 0.8693
C19_6 C 0.8288(4) 0.7360(4) 0.8253(6)
H10_6 H 0.8537 0.7370 0.8203
C20_6 C 0.7790(6) 0.7192(5) 0.8992(4)
C21_6 C 0.8555(4) 0.8841(5) 0.6725(8)
H11_6 H 0.8683 0.8720 0.6881
C22_6 C 0.8461(6) 0.9112(7) 0.6871(4)
H12_6 H 0.8497 0.9135 0.7094
C23_6 C 0.8310(5) 0.9361(5) 0.6701(7)
H13_6 H 0.8253 0.9570 0.6780
C24_6 C 0.8256(6) 0.9253(9) 0.6393(6)
C25_6 C 0.8377(6) 0.8956(9) 0.6327(8)
C26_6 C 0.8279(5) 0.8887(7) 0.6006(8)
C27_6 C 0.8140(6) 0.9091(9) 0.5783(6)
C28_6 C 0.8040(5) 0.8994(6) 0.5488(6)
H14_6 H 0.7929 0.9139 0.5343
C29_6 C 0.8103(5) 0.8693(6) 0.5411(5)
H15_6 H 0.8026 0.8610 0.5212
C30_6 C 0.8292(4) 0.8492(5) 0.5633(6)
H16_6 H 0.8352 0.8276 0.5580
C31_6 C 0.8131(7) 0.9489(7) 0.6182(9)
C32_6 C 0.8059(8) 0.9356(9) 0.5879(9)
C33_6 C 0.7910(5) 0.9947(7) 0.5896(8)
C41_6 C 0.9295(7) 0.8884(6) 0.6178(5)
H21_6 H 0.9169 0.9021 0.6322
C42_6 C 0.9615(5) 0.8989(5) 0.6043(4)
H22_6 H 0.9721 0.9197 0.6065
C43_6 C 0.9744(5) 0.8741(7) 0.5878(5)
H23_6 H 0.9952 0.8799 0.5759
C44_6 C 0.9657(9) 0.8433(7) 0.5837(7)
C45_6 C 0.9325(7) 0.8367(7) 0.5940(5)
C46_6 C 0.9179(6) 0.8094(7) 0.5887(6)
C47_6 C 0.9365(8) 0.7868(7) 0.5726(6)
C48_6 C 0.9264(5) 0.7552(6) 0.5662(4)
H24_6 H 0.9419 0.7396 0.5569
C49_6 C 0.8906(5) 0.7487(6) 0.5749(4)
H25_6 H 0.8773 0.7297 0.5701
C50_6 C 0.8788(4) 0.7741(5) 0.5911(4)
H26_6 H 0.8564 0.7667 0.5991
C51_6 C 0.9843(5) 0.8216(8) 0.5650(4)
C52_6 C 0.9725(7) 0.7910(7) 0.5606(4)
C61_6 C 0.5752(7) 0.8846(6) 0.3133(5)
H31_6 H 0.5604 0.8999 0.3239
C62_6 C 0.5624(5) 0.8707(6) 0.2853(6)
H32_6 H 0.5375 0.8737 0.2809
C63_6 C 0.5820(6) 0.8528(6) 0.2631(5)
H33_6 H 0.5724 0.8427 0.2446
C64_6 C 0.6219(5) 0.8521(5) 0.2736(6)
C65_6 C 0.6272(6) 0.8642(5) 0.3060(6)
C66_6 C 0.6655(5) 0.8627(5) 0.3181(5)
C67_6 C 0.6912(5) 0.8471(5) 0.3007(6)
C68_6 C 0.7242(5) 0.8430(4) 0.3140(4)
H34_6 H 0.7430 0.8331 0.3020
C69_6 C 0.7306(4) 0.8527(4) 0.3437(5)
H35_6 H 0.7533 0.8491 0.3536
C70_6 C 0.7047(6) 0.8671(4) 0.3582(4)
H36_6 H 0.7094 0.8729 0.3797
C71_6 C 0.6508(7) 0.8380(5) 0.2585(5)
C72_6 C 0.6851(6) 0.8389(4) 0.2674(5)
C73_6 C 0.6840(6) 0.8211(5) 0.2213(5)
C74_6 C 0.6937(5) 0.8051(5) 0.1892(5)
C75_6 C 0.7326(6) 0.8064(5) 0.1792(5)
H37_6 H 0.7510 0.8143 0.1929
C76_6 C 0.7401(5) 0.7950(4) 0.1481(5)
H38_6 H 0.7648 0.7943 0.1423
C77_6 C 0.7151(5) 0.7845(5) 0.1241(5)
C78_6 C 0.6794(6) 0.7880(5) 0.1349(4)
H39_6 H 0.6611 0.7813 0.1205
C79_6 C 0.6670(4) 0.8002(4) 0.1644(5)
H40_6 H 0.6423 0.8049 0.1679
C80_6 C 0.7295(7) 0.7732(6) 0.0934(5)
C81_6 C 0.6381(4) 0.9508(6) 0.3175(6)
H41_6 H 0.6296 0.9384 0.3001
C82_6 C 0.6440(5) 0.9804(6) 0.3053(4)
H42_6 H 0.6387 0.9861 0.2839
C84_6 C 0.6645(5) 0.9914(8) 0.3578(5)
C85_6 C 0.6564(5) 0.9609(7) 0.3635(7)
C86_6 C 0.6635(5) 0.9516(7) 0.3949(7)
C87_6 C 0.6794(5) 0.9706(8) 0.4181(5)
C88_6 C 0.6892(4) 0.9570(6) 0.4461(6)
H44_6 H 0.7018 0.9693 0.4616
C89_6 C 0.6812(5) 0.9264(6) 0.4515(4)
H45_6 H 0.6881 0.9178 0.4717
C90_6 C 0.6639(4) 0.9056(5) 0.4309(6)
H46_6 H 0.6580 0.8836 0.4350
C101_6 C 0.6197(4) 0.8335(5) 0.4000(4)
H51_6 H 0.6420 0.8259 0.3918
C102_6 C 0.6070(5) 0.8097(5) 0.4184(4)
H52_6 H 0.6218 0.7915 0.4225
C103_6 C 0.5735(5) 0.8108(6) 0.4315(4)
H53_6 H 0.5611 0.7947 0.4434
C104_6 C 0.5620(5) 0.8418(7) 0.4228(5)
C105_6 C 0.5757(6) 0.8665(6) 0.4073(5)
C106_6 C 0.5633(7) 0.8940(7) 0.3999(5)
C107_6 C 0.5305(8) 0.9003(6) 0.4108(6)
C108_6 C 0.5154(5) 0.9278(7) 0.4054(6)
H54_4 H 0.4919 0.9313 0.4137
C109_6 C 0.5314(7) 0.9522(6) 0.3884(6)
H55_6 H 0.5194 0.9724 0.3866
C110_6 C 0.5643(6) 0.9482(7) 0.3738(5)
H56_6 H 0.5767 0.9633 0.3608
C111_6 C 0.5247(6) 0.8542(6) 0.4350(5)
C112_6 C 0.5127(6) 0.8837(6) 0.4304(6)
C113_4 C 0.4699(7) 0.8590(7) 0.4578(5)
C114_4 C 0.4393(7) 0.8507(8) 0.4731(6)
C115_4 C 0.4153(5) 0.8703(5) 0.4847(4)
H57_4 H 0.4207 0.8926 0.4824
C116_6 C 0.3804(4) 0.8630(6) 0.5012(4)
H58_6 H 0.3646 0.8796 0.5084
C117_6 C 0.3731(6) 0.8323(7) 0.5049(5)
C118_4 C 0.3954(7) 0.8075(6) 0.4937(5)
H59_4 H 0.3896 0.7852 0.4960
C119_4 C 0.4273(5) 0.8185(6) 0.4787(5)
H60_4 H 0.4430 0.8020 0.4712
C120_6 C 0.3317(5) 0.8158(5) 0.5190(5)
N1_6 N 0.8876(4) 0.8161(5) 0.6628(4)
N2_6 N 0.8254(3) 0.8110(4) 0.6445(3)
N3_6 N 0.8502(4) 0.7644(4) 0.7634(4)
H61_6 H 0.8699 0.7599 0.7742
N4_6 N 0.7955(3) 0.7585(4) 0.7477(4)
N5_6 N 0.8559(4) 0.8632(6) 0.6433(4)
N6_6 N 0.8384(4) 0.8617(6) 0.5925(4)
N7_6 N 0.7987(4) 0.9786(5) 0.6209(3)
H62_6 H 0.7942 0.9878 0.6394
N8_6 N 0.7932(3) 0.9664(8) 0.5721(3)
N9_6 N 0.9163(4) 0.8596(5) 0.6110(4)
N10_6 N 0.8807(4) 0.8049(5) 0.6028(4)
N12_6 N 0.9993(6) 0.7734(5) 0.5435(4)
N13_6 N 0.6042(4) 0.8782(5) 0.3247(4)
N14_6 N 0.6687(3) 0.8759(4) 0.3464(4)
N15_6 N 0.6494(4) 0.8276(4) 0.2267(4)
H64_6 H 0.6307 0.8259 0.2139
N16_6 N 0.7060(3) 0.8229(4) 0.2451(4)
N17_6 N 0.6383(4) 0.9270(5) 0.3461(3)
N18_6 N 0.6561(4) 0.9232(6) 0.4015(4)
N21_6 N 0.6144(4) 0.8680(5) 0.3861(4)
N22_6 N 0.5755(4) 0.9172(7) 0.3822(4)
N23_4 N 0.4992(6) 0.8387(5) 0.4517(4)
N24_4 N 0.4771(6) 0.8846(5) 0.4432(5)
H66_4 H 0.4621 0.9009 0.4412
Eu4_4 Eu 0.76279(2) 0.68859(3) 0.95993(2)
Eu6_4 Eu 0.74220(2) 0.74942(3) 0.03296(2)
Ru2_7 Ru 0.12749(3) 0.60233(8) 0.13489(5)
O2_7 O 0.2367(3) 0.1933(3) 0.0177(2)
O6_7 O 0.19094(17) 0.2554(2) 0.03144(18)
O8_4 O 0.6820(5) 0.7777(5) 0.0100(4)
O9_4 O 0.6861(2) 0.7191(3) 0.0244(2)
O12_7 O 0.2478(2) 0.2964(3) 0.0693(2)
O13_7 O 0.2388(2) 0.3130(3) 0.0191(2)
C57_7 C 0.6357(7) 0.7334(7) 0.0009(7)
H29_7 H 0.6390 0.6858 0.0013
C60_7 C 0.6714(6) 0.7455(7) 0.0106(5)
C61_7 C 0.0752(7) 0.6154(6) 0.1867(5)
H31_7 H 0.0604 0.6001 0.1761
C62_7 C 0.0624(5) 0.6293(6) 0.2147(6)
H32_7 H 0.0375 0.6263 0.2191
C63_7 C 0.0820(6) 0.6472(6) 0.2369(5)
H33_7 H 0.0724 0.6573 0.2554
C64_7 C 0.1219(5) 0.6479(5) 0.2264(6)
C65_7 C 0.1272(6) 0.6358(5) 0.1940(6)
C66_7 C 0.1655(5) 0.6373(5) 0.1819(5)
C67_7 C 0.1912(5) 0.6529(5) 0.1993(6)
C68_7 C 0.2242(5) 0.6570(4) 0.1860(4)
H34_7 H 0.2430 0.6669 0.1980
C69_7 C 0.2306(4) 0.6473(4) 0.1563(5)
H35_7 H 0.2533 0.6509 0.1464
C70_7 C 0.2047(6) 0.6329(4) 0.1418(4)
H36_7 H 0.2094 0.6271 0.1203
C71_7 C 0.1508(7) 0.6620(5) 0.2415(5)
C72_7 C 0.1851(6) 0.6611(4) 0.2326(5)
C73_7 C 0.1840(6) 0.6789(5) 0.2787(5)
C74_7 C 0.1937(5) 0.6949(5) 0.3108(5)
C75_7 C 0.2326(6) 0.6936(5) 0.3208(5)
H37_7 H 0.2510 0.6857 0.3071
C76_7 C 0.2401(5) 0.7050(4) 0.3519(5)
H38_7 H 0.2648 0.7057 0.3577
C77_7 C 0.2151(5) 0.7155(5) 0.3759(5)
C78_7 C 0.1794(6) 0.7120(5) 0.3651(4)
H39_7 H 0.1611 0.7187 0.3795
C79_7 C 0.1670(4) 0.6998(4) 0.3356(5)
H40_7 H 0.1423 0.6951 0.3321
C80_7 C 0.2295(7) 0.7268(6) 0.4066(5)
C81_7 C 0.1381(4) 0.5492(6) 0.1825(6)
H41_7 H 0.1296 0.5616 0.1999
C82_7 C 0.1440(5) 0.5196(6) 0.1947(4)
H42_7 H 0.1387 0.5139 0.2161
C83_7 C 0.1583(4) 0.4987(5) 0.1733(6)
H43_7 H 0.1641 0.4772 0.1796
C84_7 C 0.1645(5) 0.5086(8) 0.1422(5)
C85_7 C 0.1564(5) 0.5391(7) 0.1365(7)
C86_7 C 0.1635(5) 0.5484(7) 0.1051(7)
C87_7 C 0.1794(5) 0.5294(8) 0.0819(5)
C88_7 C 0.1892(4) 0.5430(6) 0.0539(6)
H44_7 H 0.2018 0.5307 0.0384
C89_7 C 0.1812(5) 0.5736(6) 0.0485(4)
H45_7 H 0.1881 0.5822 0.0283
C90_7 C 0.1639(4) 0.5944(5) 0.0691(6)
H46_7 H 0.1580 0.6164 0.0650
C91_7 C 0.1770(6) 0.4863(7) 0.1208(8)
C92_7 C 0.1830(6) 0.4988(8) 0.0903(7)
C93_7 C 0.1985(5) 0.4429(7) 0.0870(7)
C94_7 C 0.2070(5) 0.4115(7) 0.0809(7)
C95_7 C 0.2055(4) 0.4067(5) 0.0479(5)
H47_7 H 0.1978 0.4221 0.0326
C96_7 C 0.2165(5) 0.3779(7) 0.0421(5)
H48_7 H 0.2189 0.3752 0.0197
C97_7 C 0.2271(4) 0.3459(7) 0.0589(5)
C98_7 C 0.2261(5) 0.3608(6) 0.0917(5)
H49_7 H 0.2312 0.3460 0.1083
C99_7 C 0.2195(5) 0.3899(7) 0.1014(4)
H50_7 H 0.2236 0.3957 0.1230
C100_7 C 0.2390(4) 0.3183(6) 0.0491(5)
C101_7 C 0.1197(4) 0.6665(5) 0.1000(4)
H51_7 H 0.1420 0.6741 0.1082
C102_7 C 0.1070(5) 0.6903(5) 0.0816(4)
H52_7 H 0.1218 0.7085 0.0775
C103_7 C 0.0735(5) 0.6892(6) 0.0685(4)
H53_7 H 0.0611 0.7053 0.0566
C104_7 C 0.0620(5) 0.6582(7) 0.0772(5)
C105_7 C 0.0757(6) 0.6335(6) 0.0927(5)
C106_7 C 0.0633(7) 0.6060(7) 0.1001(5)
C107_7 C 0.0305(8) 0.5997(6) 0.0892(6)
C108_7 C 0.0154(5) 0.5722(7) 0.0946(6)
C109_7 C 0.0314(7) 0.5478(6) 0.1116(6)
H55_7 H 0.0194 0.5276 0.1134
C110_7 C 0.0643(6) 0.5518(7) 0.1262(5)
H56_7 H 0.0767 0.5367 0.1392
C111_7 C 0.0247(6) 0.6458(6) 0.0650(5)
C112_7 C 0.0127(6) 0.6163(6) 0.0696(6)
N13_7 N 0.1042(4) 0.6218(5) 0.1753(4)
N14_7 N 0.1687(3) 0.6241(4) 0.1536(4)
N15_7 N 0.1494(4) 0.6724(4) 0.2733(4)
H64_7 H 0.1307 0.6741 0.2861
N16_7 N 0.2060(3) 0.6771(4) 0.2549(4)
N17_7 N 0.1383(4) 0.5730(5) 0.1539(3)
N18_7 N 0.1561(4) 0.5768(6) 0.0985(4)
N19_7 N 0.1851(4) 0.4556(6) 0.1157(5)
H65_7 H 0.1818 0.4420 0.1315
N20_7 N 0.1962(4) 0.4733(8) 0.0742(4)
N21_7 N 0.1144(4) 0.6320(5) 0.1139(4)
N22_7 N 0.0755(4) 0.5828(7) 0.1178(4)
O19_4 O 0.3180(5) 0.2223(5) 0.0100(4)
O20_4 O 0.3139(2) 0.2809(3) 0.0244(2)
H69_7 H 0.180168 0.240278 0.047146
H70_7 H 0.183845 0.277891 0.0368036
H72_7 H 0.258015 0.17904 0.0149864
Ru1_7 Ru 0.36661(4) 0.66440(9) 0.87464(5)
O4_7 O 0.3043(2) 0.3111(3) 0.9629(3)
O5_7 O 0.2471(3) 0.3534(3) 0.9209(3)
O7_7 O 0.2600(2) 0.3683(3) 0.9717(2)
O16_7 O 0.24648(16) 0.2615(2) 0.97848(13)
C1_7 C 0.4198(6) 0.6820(6) 0.8232(5)
H1_7 H 0.4368 0.6690 0.8343
C2_7 C 0.4326(5) 0.6956(5) 0.7956(5)
H2_7 H 0.4572 0.6934 0.7896
C3_7 C 0.4090(7) 0.7122(6) 0.7772(5)
H3_7 H 0.4163 0.7247 0.7593
C4_7 C 0.3751(6) 0.7095(5) 0.7861(6)
C5_7 C 0.3660(6) 0.6994(5) 0.8152(5)
C6_7 C 0.3314(6) 0.7023(4) 0.8255(5)
C7_7 C 0.3058(5) 0.7165(4) 0.8073(5)
C8_7 C 0.2714(4) 0.7195(4) 0.8217(4)
H4_7 H 0.2529 0.7304 0.8104
C9_7 C 0.2639(4) 0.7075(4) 0.8509(4)
H5_7 H 0.2404 0.7084 0.8598
C10_7 C 0.2920(5) 0.6940(4) 0.8669(3)
H6_7 H 0.2876 0.6873 0.8882
C11_7 C 0.3501(7) 0.7213(5) 0.7664(5)
C12_7 C 0.3148(6) 0.7250(5) 0.7762(5)
C13_7 C 0.3159(5) 0.7422(5) 0.7260(5)
C14_7 C 0.3060(6) 0.7559(5) 0.6981(5)
C15_7 C 0.2728(5) 0.7585(4) 0.6865(5)
H7_7 H 0.2539 0.7539 0.7011
C16_7 C 0.2621(5) 0.7667(4) 0.6566(5)
H8_7 H 0.2370 0.7684 0.6521
C17_7 C 0.2864(6) 0.7726(5) 0.6327(5)
C18_7 C 0.3204(5) 0.7738(5) 0.6441(5)
H9_7 H 0.3391 0.7816 0.6307
C19_7 C 0.3288(4) 0.7640(4) 0.6747(6)
H10_7 H 0.3537 0.7630 0.6797
C20_7 C 0.2790(6) 0.7808(5) 0.6008(4)
C21_7 C 0.3555(4) 0.6159(5) 0.8275(8)
H11_7 H 0.3683 0.6280 0.8119
C22_7 C 0.3461(6) 0.5888(7) 0.8129(4)
H12_7 H 0.3497 0.5865 0.7906
C23_7 C 0.3310(5) 0.5639(5) 0.8299(7)
H13_7 H 0.3253 0.5430 0.8220
C24_7 C 0.3256(6) 0.5747(9) 0.8607(6)
C25_7 C 0.3377(6) 0.6044(9) 0.8673(8)
C26_7 C 0.3279(5) 0.6113(7) 0.8994(8)
C27_7 C 0.3140(6) 0.5909(9) 0.9217(6)
C28_7 C 0.3040(5) 0.6006(6) 0.9512(6)
H14_7 H 0.2929 0.5861 0.9657
C29_7 C 0.3103(5) 0.6307(6) 0.9589(5)
H15_7 H 0.3026 0.6390 0.9788
C30_7 C 0.3292(4) 0.6508(5) 0.9367(6)
H16_7 H 0.3352 0.6724 0.9420
C31_7 C 0.3131(7) 0.5511(7) 0.8818(9)
C32_7 C 0.3059(8) 0.5644(9) 0.9121(9)
C33_7 C 0.2910(5) 0.5053(7) 0.9104(8)
C34_7 C 0.2833(6) 0.4750(7) 0.9122(6)
C35_7 C 0.2866(4) 0.4669(6) 0.9439(6)
H17_7 H 0.2945 0.4820 0.9593
C36_7 C 0.2778(4) 0.4358(7) 0.9519(4)
H18_7 H 0.2773 0.4323 0.9742
C37_7 C 0.2694(4) 0.4085(7) 0.9345(6)
C38_7 C 0.2631(5) 0.4172(6) 0.9034(5)
H19_7 H 0.2538 0.4025 0.8881
C39_7 C 0.2710(5) 0.4477(7) 0.8964(4)
H20_7 H 0.2671 0.4520 0.8744
C40_7 C 0.2580(4) 0.3778(6) 0.9332(5)
C41_7 C 0.4295(7) 0.6116(6) 0.8822(5)
H21_7 H 0.4169 0.5979 0.8678
C42_7 C 0.4615(5) 0.6011(5) 0.8957(4)
H22_7 H 0.4721 0.5803 0.8935
C43_7 C 0.4744(5) 0.6259(7) 0.9122(5)
H23_7 H 0.4952 0.6201 0.9241
C44_7 C 0.4657(9) 0.6567(7) 0.9163(7)
C45_7 C 0.4325(7) 0.6633(7) 0.9060(5)
C46_7 C 0.4179(6) 0.6906(7) 0.9113(6)
C47_7 C 0.4365(8) 0.7132(7) 0.9274(6)
C48_7 C 0.4264(5) 0.7448(6) 0.9338(4)
H24_7 H 0.4419 0.7604 0.9431
C49_7 C 0.3906(5) 0.7513(6) 0.9251(4)
H25_7 H 0.3773 0.7703 0.9299
C50_7 C 0.3788(4) 0.7259(5) 0.9089(4)
H26_7 H 0.3564 0.7333 0.9009
C51_7 C 0.4843(5) 0.6784(8) 0.9350(4)
C52_7 C 0.4725(7) 0.7090(7) 0.9394(4)
C53_7 C 0.5254(7) 0.7025(7) 0.9607(4)
C54_7 C 0.5635(7) 0.7109(8) 0.9736(7)
C55_7 C 0.5748(8) 0.7408(7) 0.9777(7)
H27_7 H 0.5584 0.7574 0.9718
C56_7 C 0.6062(9) 0.7503(6) 0.9890(7)
H28_7 H 0.6092 0.7731 0.9891
C58_7 C 0.6226(5) 0.7031(5) 0.9978(4)
C59_7 C 0.5890(6) 0.6954(6) 0.9903(5)
H30_7 H 0.5815 0.6751 0.9984
N1_7 N 0.3876(4) 0.6839(5) 0.8372(4)
N2_7 N 0.3254(3) 0.6890(4) 0.8555(3)
N3_7 N 0.3502(4) 0.7356(4) 0.7366(4)
H61_7 H 0.3699 0.7401 0.7258
N4_7 N 0.2955(3) 0.7415(4) 0.7523(4)
N5_7 N 0.3559(4) 0.6368(6) 0.8567(4)
N6_7 N 0.3384(4) 0.6383(6) 0.9075(4)
N7_7 N 0.2987(4) 0.5214(5) 0.8791(3)
H62_7 H 0.2942 0.5122 0.8606
N8_7 N 0.2932(3) 0.5336(8) 0.9279(3)
N9_7 N 0.4163(4) 0.6404(5) 0.8890(4)
N10_7 N 0.3807(4) 0.6951(5) 0.8972(4)
N11_7 N 0.5175(5) 0.6703(5) 0.9470(4)
H63_7 H 0.5300 0.6522 0.9466
N12_7 N 0.4993(6) 0.7266(5) 0.9565(4)
O23_4 O 0.1746(4) 0.2899(3) 0.9807(4)
O24_4 O 0.1793(3) 0.3435(3) 0.9699(2)
H67_7 H 0.312981 0.332762 0.969592
H68_7 H 0.312249 0.294671 0.978643
H71_7 H 0.222956 0.194232 0.997426
O14_4 O 0.8254(4) 0.7101(3) 0.9807(4)
O15_4 O 0.8207(3) 0.6565(3) 0.9699(2)
C116_7 C 0.8804(4) 0.6370(6) 0.9988(4)
H58_7 H 0.8646 0.6204 0.9916
C117_7 C 0.8731(6) 0.6677(7) 0.9951(5)
C120_7 C 0.8317(5) 0.6842(5) 0.9810(5)
C116_8 C 0.1196(4) 0.3630(6) 0.9988(4)
H58_8 H 0.1354 0.3796 0.9916
C117_8 C 0.1269(6) 0.3323(7) 0.9951(5)
C120_8 C 0.1683(5) 0.3158(5) 0.9810(5)
Ru2_8 Ru 0.87251(3) 0.39767(8) 0.13489(5)
O2_8 O 0.7633(3) 0.8067(3) 0.0177(2)
O6_8 O 0.80906(17) 0.7446(2) 0.03144(18)
O12_8 O 0.7522(2) 0.7036(3) 0.0693(2)
O13_8 O 0.7612(2) 0.6870(3) 0.0191(2)
C57_8 C 0.3643(7) 0.2666(7) 0.0009(7)
H29_8 H 0.3610 0.3142 0.0013
C60_8 C 0.3286(6) 0.2545(7) 0.0106(5)
C61_8 C 0.9248(7) 0.3846(6) 0.1867(5)
H31_8 H 0.9396 0.3999 0.1761
C62_8 C 0.9376(5) 0.3707(6) 0.2147(6)
H32_8 H 0.9625 0.3737 0.2191
C63_8 C 0.9180(6) 0.3528(6) 0.2369(5)
H33_8 H 0.9276 0.3427 0.2554
C64_8 C 0.8781(5) 0.3521(5) 0.2264(6)
C65_8 C 0.8728(6) 0.3642(5) 0.1940(6)
C66_8 C 0.8345(5) 0.3627(5) 0.1819(5)
C67_8 C 0.8088(5) 0.3471(5) 0.1993(6)
C68_8 C 0.7758(5) 0.3430(4) 0.1860(4)
H34_8 H 0.7570 0.3331 0.1980
C69_8 C 0.7694(4) 0.3527(4) 0.1563(5)
H35_8 H 0.7467 0.3491 0.1464
C70_8 C 0.7953(6) 0.3671(4) 0.1418(4)
H36_8 H 0.7906 0.3729 0.1203
C71_8 C 0.8492(7) 0.3380(5) 0.2415(5)
C72_8 C 0.8149(6) 0.3389(4) 0.2326(5)
C73_8 C 0.8160(6) 0.3211(5) 0.2787(5)
C74_8 C 0.8063(5) 0.3051(5) 0.3108(5)
C75_8 C 0.7674(6) 0.3064(5) 0.3208(5)
H37_8 H 0.7490 0.3143 0.3071
C76_8 C 0.7599(5) 0.2950(4) 0.3519(5)
H38_8 H 0.7352 0.2943 0.3577
C77_8 C 0.7849(5) 0.2845(5) 0.3759(5)
C78_8 C 0.8206(6) 0.2880(5) 0.3651(4)
H39_8 H 0.8389 0.2813 0.3795
C79_8 C 0.8330(4) 0.3002(4) 0.3356(5)
H40_8 H 0.8577 0.3049 0.3321
C80_8 C 0.7705(7) 0.2732(6) 0.4066(5)
C81_8 C 0.8619(4) 0.4508(6) 0.1825(6)
H41_8 H 0.8704 0.4384 0.1999
C82_8 C 0.8560(5) 0.4804(6) 0.1947(4)
H42_8 H 0.8613 0.4861 0.2161
C83_8 C 0.8417(4) 0.5013(5) 0.1733(6)
H43_8 H 0.8359 0.5228 0.1796
C84_8 C 0.8355(5) 0.4914(8) 0.1422(5)
C85_8 C 0.8436(5) 0.4609(7) 0.1365(7)
C86_8 C 0.8365(5) 0.4516(7) 0.1051(7)
C87_8 C 0.8206(5) 0.4706(8) 0.0819(5)
C88_8 C 0.8108(4) 0.4570(6) 0.0539(6)
H44_8 H 0.7982 0.4693 0.0384
C89_8 C 0.8188(5) 0.4264(6) 0.0485(4)
H45_8 H 0.8119 0.4178 0.0283
C90_8 C 0.8361(4) 0.4056(5) 0.0691(6)
H46_8 H 0.8420 0.3836 0.0650
C91_8 C 0.8230(6) 0.5137(7) 0.1208(8)
C92_8 C 0.8170(6) 0.5012(8) 0.0903(7)
C93_8 C 0.8015(5) 0.5571(7) 0.0870(7)
C94_8 C 0.7930(5) 0.5885(7) 0.0809(7)
C95_8 C 0.7945(4) 0.5933(5) 0.0479(5)
H47_8 H 0.8022 0.5779 0.0326
C96_8 C 0.7835(5) 0.6221(7) 0.0421(5)
H48_8 H 0.7811 0.6248 0.0197
C97_8 C 0.7729(4) 0.6541(7) 0.0589(5)
C98_8 C 0.7739(5) 0.6392(6) 0.0917(5)
H49_8 H 0.7688 0.6540 0.1083
C99_8 C 0.7805(5) 0.6101(7) 0.1014(4)
H50_8 H 0.7764 0.6043 0.1230
C100_8 C 0.7610(4) 0.6817(6) 0.0491(5)
C101_8 C 0.8803(4) 0.3335(5) 0.1000(4)
H51_8 H 0.8580 0.3259 0.1082
C102_8 C 0.8930(5) 0.3097(5) 0.0816(4)
H52_8 H 0.8782 0.2915 0.0775
C103_8 C 0.9265(5) 0.3108(6) 0.0685(4)
H53_8 H 0.9389 0.2947 0.0566
C104_8 C 0.9380(5) 0.3418(7) 0.0772(5)
C105_8 C 0.9243(6) 0.3665(6) 0.0927(5)
C106_8 C 0.9367(7) 0.3940(7) 0.1001(5)
C107_8 C 0.9695(8) 0.4003(6) 0.0892(6)
C108_8 C 0.9846(5) 0.4278(7) 0.0946(6)
C109_8 C 0.9686(7) 0.4522(6) 0.1116(6)
H55_8 H 0.9806 0.4724 0.1134
C110_8 C 0.9357(6) 0.4482(7) 0.1262(5)
H56_8 H 0.9233 0.4633 0.1392
C111_8 C 0.9753(6) 0.3542(6) 0.0650(5)
C112_8 C 0.9873(6) 0.3837(6) 0.0696(6)
N13_8 N 0.8958(4) 0.3782(5) 0.1753(4)
N14_8 N 0.8313(3) 0.3759(4) 0.1536(4)
N15_8 N 0.8506(4) 0.3276(4) 0.2733(4)
H64_8 H 0.8693 0.3259 0.2861
N16_8 N 0.7940(3) 0.3229(4) 0.2549(4)
N17_8 N 0.8617(4) 0.4270(5) 0.1539(3)
N18_8 N 0.8439(4) 0.4232(6) 0.0985(4)
N19_8 N 0.8149(4) 0.5444(6) 0.1157(5)
H65_8 H 0.8182 0.5580 0.1315
N20_8 N 0.8038(4) 0.5267(8) 0.0742(4)
N21_8 N 0.8856(4) 0.3680(5) 0.1139(4)
N22_8 N 0.9245(4) 0.4172(7) 0.1178(4)
H69_8 H 0.819832 0.759722 0.047146
H70_8 H 0.816155 0.722109 0.0368036
H72_8 H 0.741985 0.82096 0.0149864
Ru1_8 Ru 0.63339(4) 0.33560(9) 0.87464(5)
O4_8 O 0.6957(2) 0.6889(3) 0.9629(3)
O5_8 O 0.7529(3) 0.6466(3) 0.9209(3)
O7_8 O 0.7400(2) 0.6317(3) 0.9717(2)
O16_8 O 0.75352(16) 0.7385(2) 0.97848(13)
C1_8 C 0.5802(6) 0.3180(6) 0.8232(5)
H1_8 H 0.5632 0.3310 0.8343
C2_8 C 0.5674(5) 0.3044(5) 0.7956(5)
H2_8 H 0.5428 0.3066 0.7896
C3_8 C 0.5910(7) 0.2878(6) 0.7772(5)
H3_8 H 0.5837 0.2753 0.7593
C4_8 C 0.6249(6) 0.2905(5) 0.7861(6)
C5_8 C 0.6340(6) 0.3006(5) 0.8152(5)
C6_8 C 0.6686(6) 0.2977(4) 0.8255(5)
C7_8 C 0.6942(5) 0.2835(4) 0.8073(5)
C8_8 C 0.7286(4) 0.2805(4) 0.8217(4)
H4_8 H 0.7471 0.2696 0.8104
C9_8 C 0.7361(4) 0.2925(4) 0.8509(4)
H5_8 H 0.7596 0.2916 0.8598
C10_8 C 0.7080(5) 0.3060(4) 0.8669(3)
H6_8 H 0.7124 0.3127 0.8882
C11_8 C 0.6499(7) 0.2787(5) 0.7664(5)
C12_8 C 0.6852(6) 0.2750(5) 0.7762(5)
C13_8 C 0.6841(5) 0.2578(5) 0.7260(5)
C14_8 C 0.6940(6) 0.2441(5) 0.6981(5)
C15_8 C 0.7272(5) 0.2415(4) 0.6865(5)
H7_8 H 0.7461 0.2461 0.7011
C16_8 C 0.7379(5) 0.2333(4) 0.6566(5)
H8_8 H 0.7630 0.2316 0.6521
C17_8 C 0.7136(6) 0.2274(5) 0.6327(5)
C18_8 C 0.6796(5) 0.2262(5) 0.6441(5)
H9_8 H 0.6609 0.2184 0.6307
C19_8 C 0.6712(4) 0.2360(4) 0.6747(6)
H10_8 H 0.6463 0.2370 0.6797
C20_8 C 0.7210(6) 0.2192(5) 0.6008(4)
C21_8 C 0.6445(4) 0.3841(5) 0.8275(8)
H11_8 H 0.6317 0.3720 0.8119
C22_8 C 0.6539(6) 0.4112(7) 0.8129(4)
H12_8 H 0.6503 0.4135 0.7906
C23_8 C 0.6690(5) 0.4361(5) 0.8299(7)
H13_8 H 0.6747 0.4570 0.8220
C24_8 C 0.6744(6) 0.4253(9) 0.8607(6)
C25_8 C 0.6623(6) 0.3956(9) 0.8673(8)
C26_8 C 0.6721(5) 0.3887(7) 0.8994(8)
C27_8 C 0.6860(6) 0.4091(9) 0.9217(6)
C28_8 C 0.6960(5) 0.3994(6) 0.9512(6)
H14_8 H 0.7071 0.4139 0.9657
C29_8 C 0.6897(5) 0.3693(6) 0.9589(5)
H15_8 H 0.6974 0.3610 0.9788
C30_8 C 0.6708(4) 0.3492(5) 0.9367(6)
H16_8 H 0.6648 0.3276 0.9420
C31_8 C 0.6869(7) 0.4489(7) 0.8818(9)
C32_8 C 0.6941(8) 0.4356(9) 0.9121(9)
C33_8 C 0.7090(5) 0.4947(7) 0.9104(8)
C34_8 C 0.7167(6) 0.5250(7) 0.9122(6)
C35_8 C 0.7134(4) 0.5331(6) 0.9439(6)
H17_8 H 0.7055 0.5180 0.9593
C36_8 C 0.7222(4) 0.5642(7) 0.9519(4)
H18_8 H 0.7227 0.5677 0.9742
C37_8 C 0.7306(4) 0.5915(7) 0.9345(6)
C38_8 C 0.7369(5) 0.5828(6) 0.9034(5)
H19_8 H 0.7462 0.5975 0.8881
C39_8 C 0.7290(5) 0.5523(7) 0.8964(4)
H20_8 H 0.7329 0.5480 0.8744
C40_8 C 0.7420(4) 0.6222(6) 0.9332(5)
C41_8 C 0.5705(7) 0.3884(6) 0.8822(5)
H21_8 H 0.5831 0.4021 0.8678
C42_8 C 0.5385(5) 0.3989(5) 0.8957(4)
H22_8 H 0.5279 0.4197 0.8935
C43_8 C 0.5256(5) 0.3741(7) 0.9122(5)
H23_8 H 0.5048 0.3799 0.9241
C44_8 C 0.5343(9) 0.3433(7) 0.9163(7)
C45_8 C 0.5675(7) 0.3367(7) 0.9060(5)
C46_8 C 0.5821(6) 0.3094(7) 0.9113(6)
C47_8 C 0.5635(8) 0.2868(7) 0.9274(6)
C48_8 C 0.5736(5) 0.2552(6) 0.9338(4)
H24_8 H 0.5581 0.2396 0.9431
C49_8 C 0.6094(5) 0.2487(6) 0.9251(4)
H25_8 H 0.6227 0.2297 0.9299
C50_8 C 0.6212(4) 0.2741(5) 0.9089(4)
H26_8 H 0.6436 0.2667 0.9009
C51_8 C 0.5157(5) 0.3216(8) 0.9350(4)
C52_8 C 0.5275(7) 0.2910(7) 0.9394(4)
C53_8 C 0.4746(7) 0.2975(7) 0.9607(4)
C54_8 C 0.4365(7) 0.2891(8) 0.9736(7)
C55_8 C 0.4252(8) 0.2592(7) 0.9777(7)
H27_8 H 0.4416 0.2426 0.9718
C56_8 C 0.3938(9) 0.2497(6) 0.9890(7)
H28_8 H 0.3908 0.2269 0.9891
C58_8 C 0.3774(5) 0.2969(5) 0.9978(4)
C59_8 C 0.4110(6) 0.3046(6) 0.9903(5)
H30_8 H 0.4185 0.3249 0.9984
N1_8 N 0.6124(4) 0.3161(5) 0.8372(4)
N2_8 N 0.6746(3) 0.3110(4) 0.8555(3)
N3_8 N 0.6498(4) 0.2644(4) 0.7366(4)
H61_8 H 0.6301 0.2599 0.7258
N4_8 N 0.7045(3) 0.2585(4) 0.7523(4)
N5_8 N 0.6441(4) 0.3632(6) 0.8567(4)
N6_8 N 0.6616(4) 0.3617(6) 0.9075(4)
N7_8 N 0.7013(4) 0.4786(5) 0.8791(3)
H62_8 H 0.7058 0.4878 0.8606
N8_8 N 0.7068(3) 0.4664(8) 0.9279(3)
N9_8 N 0.5837(4) 0.3596(5) 0.8890(4)
N10_8 N 0.6193(4) 0.3049(5) 0.8972(4)
N11_8 N 0.4825(5) 0.3297(5) 0.9470(4)
H63_8 H 0.4700 0.3478 0.9466
N12_8 N 0.5007(6) 0.2734(5) 0.9565(4)
H67_8 H 0.687019 0.667238 0.969592
H68_8 H 0.687751 0.705329 0.978643
H71_8 H 0.777044 0.805768 0.997426
H54_5 H 0.9919 0.5687 0.0863
C113_5 C 0.9699(7) 0.6410(7) 0.0422(5)
C114_5 C 0.9393(7) 0.6493(8) 0.0269(6)
C115_5 C 0.9153(5) 0.6297(5) 0.0153(4)
H57_5 H 0.9207 0.6074 0.0176
C118_5 C 0.8954(7) 0.6925(6) 0.0063(5)
H59_5 H 0.8896 0.7148 0.0040
C119_5 C 0.9273(5) 0.6815(6) 0.0213(5)
H60_5 H 0.9430 0.6980 0.0288
N23_5 N 0.9992(6) 0.6613(5) 0.0483(4)
N24_5 N 0.9771(6) 0.6154(5) 0.0568(5)
H66_5 H 0.9621 0.5991 0.0588
H54_6 H 0.0081 0.4313 0.0863
C113_6 C 0.0301(7) 0.3590(7) 0.0422(5)
C114_6 C 0.0607(7) 0.3507(8) 0.0269(6)
C115_6 C 0.0847(5) 0.3703(5) 0.0153(4)
H57_6 H 0.0793 0.3926 0.0176
C118_6 C 0.1046(7) 0.3075(6) 0.0063(5)
H59_6 H 0.1104 0.2852 0.0040
C119_6 C 0.0727(5) 0.3185(6) 0.0213(5)
H60_6 H 0.0570 0.3020 0.0288
N23_6 N 0.0008(6) 0.3387(5) 0.0483(4)
N24_6 N 0.0229(6) 0.3846(5) 0.0568(5)
H66_6 H 0.0379 0.4009 0.0588
H54_7 H 0.0081 0.5687 0.9137
C113_7 C 0.0301(7) 0.6410(7) 0.9578(5)
C114_7 C 0.0607(7) 0.6493(8) 0.9731(6)
C115_7 C 0.0847(5) 0.6297(5) 0.9847(4)
H57_7 H 0.0793 0.6074 0.9824
C118_7 C 0.1046(7) 0.6925(6) 0.9937(5)
H59_7 H 0.1104 0.7148 0.9960
C119_7 C 0.0727(5) 0.6815(6) 0.9787(5)
H60_7 H 0.0570 0.6980 0.9712
N23_7 N 0.0008(6) 0.6613(5) 0.9517(4)
N24_7 N 0.0229(6) 0.6154(5) 0.9432(5)
H66_7 H 0.0379 0.5991 0.9412
H54_8 H 0.9919 0.4313 0.9137
C113_8 C 0.9699(7) 0.3590(7) 0.9578(5)
C114_8 C 0.9393(7) 0.3507(8) 0.9731(6)
C115_8 C 0.9153(5) 0.3703(5) 0.9847(4)
H57_8 H 0.9207 0.3926 0.9824
C118_8 C 0.8954(7) 0.3075(6) 0.9937(5)
H59_8 H 0.8896 0.2852 0.9960
C119_8 C 0.9273(5) 0.3185(6) 0.9787(5)
H60_8 H 0.9430 0.3020 0.9712
N23_8 N 0.9992(6) 0.3387(5) 0.9517(4)
N24_8 N 0.9771(6) 0.3846(5) 0.9432(5)
H66_8 H 0.9621 0.4009 0.9412
loop_
_geom_bond_atom_site_label_1
_geom_bond_atom_site_label_2
_geom_bond_site_symmetry_1
_geom_bond_site_symmetry_2
O8 C60 1_555 1_555
O9 C60 1_555 1_555
C53 C54 1_555 1_555
C54 C55 1_555 1_555
C55 H27 1_555 1_555
C56 C55 1_555 1_555
H28 C56 1_555 1_555
C57 C56 1_555 1_555
C58 C57 1_555 1_555
H29 C58 1_555 1_555
C59 C54 1_555 1_555
H30 C59 1_555 1_555
C60 C57 1_555 1_555
H63 N11 1_555 1_555
Eu5 O8 1_555 1_555
O9 Eu5 1_555 1_555
C53 N11 1_555 1_555
C58 C59 1_555 1_555
Ru1 N1 1_555 1_555
Ru2 N13 1_555 1_555
O1 C20 1_555 1_555
O3 C20 1_555 1_555
O10 C80 1_555 1_555
O11 C80 1_555 1_555
O14 C120 1_555 1_555
O15 C120 1_555 1_555
C1 H1 1_555 1_555
C2 C1 1_555 1_555
H2 C2 1_555 1_555
C3 C2 1_555 1_555
H3 C3 1_555 1_555
C4 C3 1_555 1_555
C5 C4 1_555 1_555
C6 C5 1_555 1_555
C7 C6 1_555 1_555
C8 C7 1_555 1_555
H4 C8 1_555 1_555
C9 C8 1_555 1_555
H5 C9 1_555 1_555
C10 C9 1_555 1_555
H6 C10 1_555 1_555
C11 C4 1_555 1_555
C12 C7 1_555 1_555
C13 C14 1_555 1_555
C14 C15 1_555 1_555
C15 H7 1_555 1_555
C16 C15 1_555 1_555
H8 C16 1_555 1_555
C17 C16 1_555 1_555
C18 C17 1_555 1_555
H9 C18 1_555 1_555
C19 C14 1_555 1_555
H10 C19 1_555 1_555
C20 C17 1_555 1_555
C21 H11 1_555 1_555
C22 C21 1_555 1_555
H12 C22 1_555 1_555
C23 C22 1_555 1_555
H13 C23 1_555 1_555
C24 C23 1_555 1_555
C25 C24 1_555 1_555
C26 C25 1_555 1_555
C27 C26 1_555 1_555
C28 C27 1_555 1_555
H14 C28 1_555 1_555
C29 C28 1_555 1_555
H15 C29 1_555 1_555
C30 C29 1_555 1_555
H16 C30 1_555 1_555
C31 C24 1_555 1_555
C32 C27 1_555 1_555
C41 H21 1_555 1_555
C42 C41 1_555 1_555
H22 C42 1_555 1_555
C43 C42 1_555 1_555
H23 C43 1_555 1_555
C44 C43 1_555 1_555
C45 C44 1_555 1_555
C46 C45 1_555 1_555
C47 C46 1_555 1_555
C48 C47 1_555 1_555
H24 C48 1_555 1_555
C49 C48 1_555 1_555
H25 C49 1_555 1_555
C50 C49 1_555 1_555
H26 C50 1_555 1_555
C51 C44 1_555 1_555
C52 C47 1_555 1_555
C61 H31 1_555 1_555
C62 C61 1_555 1_555
H32 C62 1_555 1_555
C63 C62 1_555 1_555
H33 C63 1_555 1_555
C64 C63 1_555 1_555
C65 C64 1_555 1_555
C66 C65 1_555 1_555
C67 C66 1_555 1_555
C68 C67 1_555 1_555
H34 C68 1_555 1_555
C69 C68 1_555 1_555
H35 C69 1_555 1_555
C70 C69 1_555 1_555
H36 C70 1_555 1_555
C71 C64 1_555 1_555
C72 C67 1_555 1_555
C73 C74 1_555 1_555
C74 C75 1_555 1_555
C75 H37 1_555 1_555
C76 C75 1_555 1_555
H38 C76 1_555 1_555
C77 C76 1_555 1_555
C78 C77 1_555 1_555
H39 C78 1_555 1_555
C79 C74 1_555 1_555
H40 C79 1_555 1_555
C80 C77 1_555 1_555
C81 H41 1_555 1_555
C82 C81 1_555 1_555
H42 C82 1_555 1_555
C85 C84 1_555 1_555
C86 C85 1_555 1_555
C87 C86 1_555 1_555
C88 C87 1_555 1_555
H44 C88 1_555 1_555
C89 C88 1_555 1_555
H45 C89 1_555 1_555
C90 C89 1_555 1_555
H46 C90 1_555 1_555
C101 H51 1_555 1_555
C102 C101 1_555 1_555
H52 C102 1_555 1_555
C103 C102 1_555 1_555
H53 C103 1_555 1_555
C104 C103 1_555 1_555
C105 C104 1_555 1_555
C106 C105 1_555 1_555
C107 C106 1_555 1_555
C108 C107 1_555 1_555
H54 C108 1_555 1_555
C109 C108 1_555 1_555
H55 C109 1_555 1_555
C110 C109 1_555 1_555
H56 C110 1_555 1_555
C111 C104 1_555 1_555
C112 C107 1_555 1_555
C113 C114 1_555 1_555
C114 C115 1_555 1_555
C115 H57 1_555 1_555
C116 C115 1_555 1_555
H58 C116 1_555 1_555
C117 C116 1_555 1_555
C118 C117 1_555 1_555
H59 C118 1_555 1_555
C119 C114 1_555 1_555
H60 C119 1_555 1_555
C120 C117 1_555 1_555
N1 C1 1_555 1_555
N2 Ru1 1_555 1_555
N3 C11 1_555 1_555
H61 N3 1_555 1_555
N4 C12 1_555 1_555
N5 Ru1 1_555 1_555
N6 Ru1 1_555 1_555
N7 C31 1_555 1_555
H62 N7 1_555 1_555
N8 C32 1_555 1_555
N9 Ru1 1_555 1_555
N10 Ru1 1_555 1_555
N12 C52 1_555 1_555
N13 C61 1_555 1_555
N14 Ru2 1_555 1_555
N15 C71 1_555 1_555
H64 N15 1_555 1_555
N16 C72 1_555 1_555
N17 Ru2 1_555 1_555
N18 Ru2 1_555 1_555
N21 Ru2 1_555 1_555
N22 Ru2 1_555 1_555
N23 C111 1_555 1_555
N24 C112 1_555 1_555
H66 N24 1_555 1_555
Eu3 O14 1_555 1_555
Eu4 O1 1_555 1_555
Eu6 O10 1_555 1_555
O3 Eu4 1_555 1_555
O11 Eu6 1_555 1_555
O15 Eu3 1_555 1_555
C5 N1 1_555 1_555
C6 N2 1_555 1_555
C10 N2 1_555 1_555
C11 C12 1_555 1_555
C13 N3 1_555 1_555
C13 N4 1_555 1_555
C18 C19 1_555 1_555
C21 N5 1_555 1_555
C25 N5 1_555 1_555
C26 N6 1_555 1_555
C30 N6 1_555 1_555
C31 C32 1_555 1_555
C33 N7 1_555 1_555
C33 N8 1_555 1_555
C41 N9 1_555 1_555
C45 N9 1_555 1_555
C46 N10 1_555 1_555
C50 N10 1_555 1_555
C51 C52 1_555 1_555
C65 N13 1_555 1_555
C66 N14 1_555 1_555
C70 N14 1_555 1_555
C71 C72 1_555 1_555
C73 N15 1_555 1_555
C73 N16 1_555 1_555
C78 C79 1_555 1_555
C81 N17 1_555 1_555
C85 N17 1_555 1_555
C86 N18 1_555 1_555
C90 N18 1_555 1_555
C101 N21 1_555 1_555
C105 N21 1_555 1_555
C106 N22 1_555 1_555
C110 N22 1_555 1_555
C111 C112 1_555 1_555
C113 N23 1_555 1_555
C113 N24 1_555 1_555
C118 C119 1_555 1_555
Eu1 O4 1_555 1_555
Eu2 O2 1_555 1_555
O5 Eu1 1_555 1_555
O6 Eu2 1_555 1_555
O7 Eu1 1_555 1_555
O12 Eu2 1_555 1_555
O13 Eu1 1_555 1_555
O16 Eu1 1_555 1_555
C34 C35 1_555 1_555
C35 H17 1_555 1_555
C36 C35 1_555 1_555
H18 C36 1_555 1_555
C37 C36 1_555 1_555
C38 C37 1_555 1_555
H19 C38 1_555 1_555
C39 C34 1_555 1_555
H20 C39 1_555 1_555
C40 O5 1_555 1_555
H43 C83 1_555 1_555
C93 C94 1_555 1_555
C94 C95 1_555 1_555
C95 H47 1_555 1_555
C96 C95 1_555 1_555
H48 C96 1_555 1_555
C97 C96 1_555 1_555
C98 C97 1_555 1_555
H49 C98 1_555 1_555
C99 C94 1_555 1_555
H50 C99 1_555 1_555
C100 O12 1_555 1_555
N19 C91 1_555 1_555
H65 N19 1_555 1_555
N20 C92 1_555 1_555
O17 Eu1 1_555 1_555
O18 Eu1 1_555 1_555
O19 Eu2 1_555 1_555
O20 Eu2 1_555 1_555
O21 Eu2 1_555 1_555
O22 Eu2 1_555 1_555
O23 Eu1 1_555 1_555
O24 Eu1 1_555 1_555
Eu2 O13 1_555 1_555
Eu2 O16 1_555 1_555
O7 C40 1_555 1_555
O13 C100 1_555 1_555
C37 C40 1_555 1_555
C38 C39 1_555 1_555
C91 C92 1_555 1_555
C93 N19 1_555 1_555
C93 N20 1_555 1_555
C97 C100 1_555 1_555
C98 C99 1_555 1_555
O4 H67 1_555 1_555
O4 H68 1_555 1_555
O6 H69 1_555 1_555
O6 H70 1_555 1_555
O2 H71 1_555 1_555
O2 H72 1_555 1_555
Eu3 O4_2 1_555 1_555
Eu5 O2_2 1_555 1_555
O5_2 Eu3 1_555 1_555
O6_2 Eu5 1_555 1_555
O7_2 Eu3 1_555 1_555
O12_2 Eu5 1_555 1_555
O13_2 Eu3 1_555 1_555
O16_2 Eu3 1_555 1_555
C34_2 C35_2 1_555 1_555
C35_2 H17_2 1_555 1_555
C36_2 C35_2 1_555 1_555
H18_2 C36_2 1_555 1_555
C37_2 C36_2 1_555 1_555
C38_2 C37_2 1_555 1_555
H19_2 C38_2 1_555 1_555
C39_2 C34_2 1_555 1_555
H20_2 C39_2 1_555 1_555
C40_2 O5_2 1_555 1_555
H43_2 C83_2 1_555 1_555
C93_2 C94_2 1_555 1_555
C94_2 C95_2 1_555 1_555
C95_2 H47_2 1_555 1_555
C96_2 C95_2 1_555 1_555
H48_2 C96_2 1_555 1_555
C97_2 C96_2 1_555 1_555
C98_2 C97_2 1_555 1_555
H49_2 C98_2 1_555 1_555
C99_2 C94_2 1_555 1_555
H50_2 C99_2 1_555 1_555
C100_2 O12_2 1_555 1_555
N19_2 C91_2 1_555 1_555
H65_2 N19_2 1_555 1_555
N20_2 C92_2 1_555 1_555
O17_2 Eu3 1_555 1_555
O18_2 Eu3 1_555 1_555
O21_2 Eu5 1_555 1_555
O22_2 Eu5 1_555 1_555
Eu5 O13_2 1_555 1_555
Eu5 O16_2 1_555 1_555
O7_2 C40_2 1_555 1_555
O13_2 C100_2 1_555 1_555
C37_2 C40_2 1_555 1_555
C38_2 C39_2 1_555 1_555
C91_2 C92_2 1_555 1_555
C93_2 N19_2 1_555 1_555
C93_2 N20_2 1_555 1_555
C97_2 C100_2 1_555 1_555
C98_2 C99_2 1_555 1_555
O4_2 H67_2 1_555 1_555
O4_2 H68_2 1_555 1_555
O6_2 H69_2 1_555 1_555
O6_2 H70_2 1_555 1_555
O2_2 H71_2 1_555 1_555
O2_2 H72_2 1_555 1_555
Ru1_2 N1_2 1_555 1_555
Ru2_2 N13_2 1_555 1_555
O1_2 C20_2 1_555 1_555
O3_2 C20_2 1_555 1_555
O10_2 C80_2 1_555 1_555
O11_2 C80_2 1_555 1_555
O23 C120_2 1_555 1_555
O24 C120_2 1_555 1_555
C1_2 H1_2 1_555 1_555
C2_2 C1_2 1_555 1_555
H2_2 C2_2 1_555 1_555
C3_2 C2_2 1_555 1_555
H3_2 C3_2 1_555 1_555
C4_2 C3_2 1_555 1_555
C5_2 C4_2 1_555 1_555
C6_2 C5_2 1_555 1_555
C7_2 C6_2 1_555 1_555
C8_2 C7_2 1_555 1_555
H4_2 C8_2 1_555 1_555
C9_2 C8_2 1_555 1_555
H5_2 C9_2 1_555 1_555
C10_2 C9_2 1_555 1_555
H6_2 C10_2 1_555 1_555
C11_2 C4_2 1_555 1_555
C12_2 C7_2 1_555 1_555
C13_2 C14_2 1_555 1_555
C14_2 C15_2 1_555 1_555
C15_2 H7_2 1_555 1_555
C16_2 C15_2 1_555 1_555
H8_2 C16_2 1_555 1_555
C17_2 C16_2 1_555 1_555
C18_2 C17_2 1_555 1_555
H9_2 C18_2 1_555 1_555
C19_2 C14_2 1_555 1_555
H10_2 C19_2 1_555 1_555
C20_2 C17_2 1_555 1_555
C21_2 H11_2 1_555 1_555
C22_2 C21_2 1_555 1_555
H12_2 C22_2 1_555 1_555
C23_2 C22_2 1_555 1_555
H13_2 C23_2 1_555 1_555
C24_2 C23_2 1_555 1_555
C25_2 C24_2 1_555 1_555
C26_2 C25_2 1_555 1_555
C27_2 C26_2 1_555 1_555
C28_2 C27_2 1_555 1_555
H14_2 C28_2 1_555 1_555
C29_2 C28_2 1_555 1_555
H15_2 C29_2 1_555 1_555
C30_2 C29_2 1_555 1_555
H16_2 C30_2 1_555 1_555
C31_2 C24_2 1_555 1_555
C32_2 C27_2 1_555 1_555
C41_2 H21_2 1_555 1_555
C42_2 C41_2 1_555 1_555
H22_2 C42_2 1_555 1_555
C43_2 C42_2 1_555 1_555
H23_2 C43_2 1_555 1_555
C44_2 C43_2 1_555 1_555
C45_2 C44_2 1_555 1_555
C46_2 C45_2 1_555 1_555
C47_2 C46_2 1_555 1_555
C48_2 C47_2 1_555 1_555
H24_2 C48_2 1_555 1_555
C49_2 C48_2 1_555 1_555
H25_2 C49_2 1_555 1_555
C50_2 C49_2 1_555 1_555
H26_2 C50_2 1_555 1_555
C51_2 C44_2 1_555 1_555
C52_2 C47_2 1_555 1_555
C61_2 H31_2 1_555 1_555
C62_2 C61_2 1_555 1_555
H32_2 C62_2 1_555 1_555
C63_2 C62_2 1_555 1_555
H33_2 C63_2 1_555 1_555
C64_2 C63_2 1_555 1_555
C65_2 C64_2 1_555 1_555
C66_2 C65_2 1_555 1_555
C67_2 C66_2 1_555 1_555
C68_2 C67_2 1_555 1_555
H34_2 C68_2 1_555 1_555
C69_2 C68_2 1_555 1_555
H35_2 C69_2 1_555 1_555
C70_2 C69_2 1_555 1_555
H36_2 C70_2 1_555 1_555
C71_2 C64_2 1_555 1_555
C72_2 C67_2 1_555 1_555
C73_2 C74_2 1_555 1_555
C74_2 C75_2 1_555 1_555
C75_2 H37_2 1_555 1_555
C76_2 C75_2 1_555 1_555
H38_2 C76_2 1_555 1_555
C77_2 C76_2 1_555 1_555
C78_2 C77_2 1_555 1_555
H39_2 C78_2 1_555 1_555
C79_2 C74_2 1_555 1_555
H40_2 C79_2 1_555 1_555
C80_2 C77_2 1_555 1_555
C81_2 H41_2 1_555 1_555
C82_2 C81_2 1_555 1_555
H42_2 C82_2 1_555 1_555
C85_2 C84_2 1_555 1_555
C86_2 C85_2 1_555 1_555
C87_2 C86_2 1_555 1_555
C88_2 C87_2 1_555 1_555
H44_2 C88_2 1_555 1_555
C89_2 C88_2 1_555 1_555
H45_2 C89_2 1_555 1_555
C90_2 C89_2 1_555 1_555
H46_2 C90_2 1_555 1_555
C101_2 H51_2 1_555 1_555
C102_2 C101_2 1_555 1_555
H52_2 C102_2 1_555 1_555
C103_2 C102_2 1_555 1_555
H53_2 C103_2 1_555 1_555
C104_2 C103_2 1_555 1_555
C105_2 C104_2 1_555 1_555
C106_2 C105_2 1_555 1_555
C107_2 C106_2 1_555 1_555
C108_2 C107_2 1_555 1_555
H54_2 C108_2 1_555 1_555
C109_2 C108_2 1_555 1_555
H55_2 C109_2 1_555 1_555
C110_2 C109_2 1_555 1_555
H56_2 C110_2 1_555 1_555
C111_2 C104_2 1_555 1_555
C112_2 C107_2 1_555 1_555
C113_2 C114_2 1_555 1_555
C114_2 C115_2 1_555 1_555
C115_2 H57_2 1_555 1_555
C116_2 C115_2 1_555 1_555
H58_2 C116_2 1_555 1_555
C117_2 C116_2 1_555 1_555
C118_2 C117_2 1_555 1_555
H59_2 C118_2 1_555 1_555
C119_2 C114_2 1_555 1_555
H60_2 C119_2 1_555 1_555
C120_2 C117_2 1_555 1_555
N1_2 C1_2 1_555 1_555
N2_2 Ru1_2 1_555 1_555
N3_2 C11_2 1_555 1_555
H61_2 N3_2 1_555 1_555
N4_2 C12_2 1_555 1_555
N5_2 Ru1_2 1_555 1_555
N6_2 Ru1_2 1_555 1_555
N7_2 C31_2 1_555 1_555
H62_2 N7_2 1_555 1_555
N8_2 C32_2 1_555 1_555
N9_2 Ru1_2 1_555 1_555
N10_2 Ru1_2 1_555 1_555
N12_2 C52_2 1_555 1_555
N13_2 C61_2 1_555 1_555
N14_2 Ru2_2 1_555 1_555
N15_2 C71_2 1_555 1_555
H64_2 N15_2 1_555 1_555
N16_2 C72_2 1_555 1_555
N17_2 Ru2_2 1_555 1_555
N18_2 Ru2_2 1_555 1_555
N21_2 Ru2_2 1_555 1_555
N22_2 Ru2_2 1_555 1_555
N23_2 C111_2 1_555 1_555
N24_2 C112_2 1_555 1_555
H66_2 N24_2 1_555 1_555
Eu4_2 O1_2 1_555 1_555
Eu6_2 O10_2 1_555 1_555
O3_2 Eu4_2 1_555 1_555
O11_2 Eu6_2 1_555 1_555
C5_2 N1_2 1_555 1_555
C6_2 N2_2 1_555 1_555
C10_2 N2_2 1_555 1_555
C11_2 C12_2 1_555 1_555
C13_2 N3_2 1_555 1_555
C13_2 N4_2 1_555 1_555
C18_2 C19_2 1_555 1_555
C21_2 N5_2 1_555 1_555
C25_2 N5_2 1_555 1_555
C26_2 N6_2 1_555 1_555
C30_2 N6_2 1_555 1_555
C31_2 C32_2 1_555 1_555
C33_2 N7_2 1_555 1_555
C33_2 N8_2 1_555 1_555
C41_2 N9_2 1_555 1_555
C45_2 N9_2 1_555 1_555
C46_2 N10_2 1_555 1_555
C50_2 N10_2 1_555 1_555
C51_2 C52_2 1_555 1_555
C65_2 N13_2 1_555 1_555
C66_2 N14_2 1_555 1_555
C70_2 N14_2 1_555 1_555
C71_2 C72_2 1_555 1_555
C73_2 N15_2 1_555 1_555
C73_2 N16_2 1_555 1_555
C78_2 C79_2 1_555 1_555
C81_2 N17_2 1_555 1_555
C85_2 N17_2 1_555 1_555
C86_2 N18_2 1_555 1_555
C90_2 N18_2 1_555 1_555
C101_2 N21_2 1_555 1_555
C105_2 N21_2 1_555 1_555
C106_2 N22_2 1_555 1_555
C110_2 N22_2 1_555 1_555
C111_2 C112_2 1_555 1_555
C113_2 N23_2 1_555 1_555
C113_2 N24_2 1_555 1_555
C118_2 C119_2 1_555 1_555
O19 C60_2 1_555 1_555
O20 C60_2 1_555 1_555
C53_2 C54_2 1_555 1_555
C54_2 C55_2 1_555 1_555
C55_2 H27_2 1_555 1_555
C56_2 C55_2 1_555 1_555
H28_2 C56_2 1_555 1_555
C57_2 C56_2 1_555 1_555
C58_2 C57_2 1_555 1_555
H29_2 C58_2 1_555 1_555
C59_2 C54_2 1_555 1_555
H30_2 C59_2 1_555 1_555
C60_2 C57_2 1_555 1_555
H63_2 N11_2 1_555 1_555
C53_2 N11_2 1_555 1_555
C58_2 C59_2 1_555 1_555
O14_2 C120_3 1_555 1_555
O15_2 C120_3 1_555 1_555
H58_3 C116_3 1_555 1_555
C117_3 C116_3 1_555 1_555
C120_3 C117_3 1_555 1_555
Eu4_2 O14_2 1_555 1_555
O15_2 Eu4_2 1_555 1_555
Eu4 O4_3 1_555 1_555
Ru1_3 N1_3 1_555 1_555
O17 C20_3 1_555 1_555
O18 C20_3 1_555 1_555
O5_3 Eu4 1_555 1_555
O7_3 Eu4 1_555 1_555
O16_3 Eu4 1_555 1_555
C1_3 H1_3 1_555 1_555
C2_3 C1_3 1_555 1_555
H2_3 C2_3 1_555 1_555
C3_3 C2_3 1_555 1_555
H3_3 C3_3 1_555 1_555
C4_3 C3_3 1_555 1_555
C5_3 C4_3 1_555 1_555
C6_3 C5_3 1_555 1_555
C7_3 C6_3 1_555 1_555
C8_3 C7_3 1_555 1_555
H4_3 C8_3 1_555 1_555
C9_3 C8_3 1_555 1_555
H5_3 C9_3 1_555 1_555
C10_3 C9_3 1_555 1_555
H6_3 C10_3 1_555 1_555
C11_3 C4_3 1_555 1_555
C12_3 C7_3 1_555 1_555
C13_3 C14_3 1_555 1_555
C14_3 C15_3 1_555 1_555
C15_3 H7_3 1_555 1_555
C16_3 C15_3 1_555 1_555
H8_3 C16_3 1_555 1_555
C17_3 C16_3 1_555 1_555
C18_3 C17_3 1_555 1_555
H9_3 C18_3 1_555 1_555
C19_3 C14_3 1_555 1_555
H10_3 C19_3 1_555 1_555
C20_3 C17_3 1_555 1_555
C21_3 H11_3 1_555 1_555
C22_3 C21_3 1_555 1_555
H12_3 C22_3 1_555 1_555
C23_3 C22_3 1_555 1_555
H13_3 C23_3 1_555 1_555
C24_3 C23_3 1_555 1_555
C25_3 C24_3 1_555 1_555
C26_3 C25_3 1_555 1_555
C27_3 C26_3 1_555 1_555
C28_3 C27_3 1_555 1_555
H14_3 C28_3 1_555 1_555
C29_3 C28_3 1_555 1_555
H15_3 C29_3 1_555 1_555
C30_3 C29_3 1_555 1_555
H16_3 C30_3 1_555 1_555
C31_3 C24_3 1_555 1_555
C32_3 C27_3 1_555 1_555
C33_3 C34_3 1_555 1_555
C34_3 C35_3 1_555 1_555
C35_3 H17_3 1_555 1_555
C36_3 C35_3 1_555 1_555
H18_3 C36_3 1_555 1_555
C37_3 C36_3 1_555 1_555
C38_3 C37_3 1_555 1_555
H19_3 C38_3 1_555 1_555
C39_3 C34_3 1_555 1_555
H20_3 C39_3 1_555 1_555
C40_3 O5_3 1_555 1_555
C41_3 H21_3 1_555 1_555
C42_3 C41_3 1_555 1_555
H22_3 C42_3 1_555 1_555
C43_3 C42_3 1_555 1_555
H23_3 C43_3 1_555 1_555
C44_3 C43_3 1_555 1_555
C45_3 C44_3 1_555 1_555
C46_3 C45_3 1_555 1_555
C47_3 C46_3 1_555 1_555
C48_3 C47_3 1_555 1_555
H24_3 C48_3 1_555 1_555
C49_3 C48_3 1_555 1_555
H25_3 C49_3 1_555 1_555
C50_3 C49_3 1_555 1_555
H26_3 C50_3 1_555 1_555
C51_3 C44_3 1_555 1_555
C52_3 C47_3 1_555 1_555
C53_3 C54_3 1_555 1_555
C54_3 C55_3 1_555 1_555
C55_3 H27_3 1_555 1_555
C56_3 C55_3 1_555 1_555
H28_3 C56_3 1_555 1_555
C59_3 C54_3 1_555 1_555
H30_3 C59_3 1_555 1_555
N1_3 C1_3 1_555 1_555
N2_3 Ru1_3 1_555 1_555
N3_3 C11_3 1_555 1_555
H61_3 N3_3 1_555 1_555
N4_3 C12_3 1_555 1_555
N5_3 Ru1_3 1_555 1_555
N6_3 Ru1_3 1_555 1_555
N7_3 C31_3 1_555 1_555
H62_3 N7_3 1_555 1_555
N8_3 C32_3 1_555 1_555
N9_3 Ru1_3 1_555 1_555
N10_3 Ru1_3 1_555 1_555
N11_3 C51_3 1_555 1_555
H63_3 N11_3 1_555 1_555
N12_3 C52_3 1_555 1_555
O23_2 Eu4 1_555 1_555
O24_2 Eu4 1_555 1_555
O7_3 C40_3 1_555 1_555
C5_3 N1_3 1_555 1_555
C6_3 N2_3 1_555 1_555
C10_3 N2_3 1_555 1_555
C11_3 C12_3 1_555 1_555
C13_3 N3_3 1_555 1_555
C13_3 N4_3 1_555 1_555
C18_3 C19_3 1_555 1_555
C21_3 N5_3 1_555 1_555
C25_3 N5_3 1_555 1_555
C26_3 N6_3 1_555 1_555
C30_3 N6_3 1_555 1_555
C31_3 C32_3 1_555 1_555
C33_3 N7_3 1_555 1_555
C33_3 N8_3 1_555 1_555
C37_3 C40_3 1_555 1_555
C38_3 C39_3 1_555 1_555
C41_3 N9_3 1_555 1_555
C45_3 N9_3 1_555 1_555
C46_3 N10_3 1_555 1_555
C50_3 N10_3 1_555 1_555
C51_3 C52_3 1_555 1_555
C53_3 N11_3 1_555 1_555
C53_3 N12_3 1_555 1_555
C58_3 C59_3 1_555 1_555
O4_3 H67_3 1_555 1_555
O4_3 H68_3 1_555 1_555
Eu6 O2_3 1_555 1_555
Ru2_3 N13_3 1_555 1_555
O6_3 Eu6 1_555 1_555
O8_2 C60_3 1_555 1_555
O9_2 C60_3 1_555 1_555
O21 C80_3 1_555 1_555
O22 C80_3 1_555 1_555
O12_3 Eu6 1_555 1_555
C60_3 C57_3 1_555 1_555
C61_3 H31_3 1_555 1_555
C62_3 C61_3 1_555 1_555
H32_3 C62_3 1_555 1_555
C63_3 C62_3 1_555 1_555
H33_3 C63_3 1_555 1_555
C64_3 C63_3 1_555 1_555
C65_3 C64_3 1_555 1_555
C66_3 C65_3 1_555 1_555
C67_3 C66_3 1_555 1_555
C68_3 C67_3 1_555 1_555
H34_3 C68_3 1_555 1_555
C69_3 C68_3 1_555 1_555
H35_3 C69_3 1_555 1_555
C70_3 C69_3 1_555 1_555
H36_3 C70_3 1_555 1_555
C71_3 C64_3 1_555 1_555
C72_3 C67_3 1_555 1_555
C73_3 C74_3 1_555 1_555
C74_3 C75_3 1_555 1_555
C75_3 H37_3 1_555 1_555
C76_3 C75_3 1_555 1_555
H38_3 C76_3 1_555 1_555
C77_3 C76_3 1_555 1_555
C78_3 C77_3 1_555 1_555
H39_3 C78_3 1_555 1_555
C79_3 C74_3 1_555 1_555
H40_3 C79_3 1_555 1_555
C80_3 C77_3 1_555 1_555
C81_3 H41_3 1_555 1_555
C82_3 C81_3 1_555 1_555
H42_3 C82_3 1_555 1_555
C83_3 C82_3 1_555 1_555
H43_3 C83_3 1_555 1_555
C84_3 C83_3 1_555 1_555
C85_3 C84_3 1_555 1_555
C86_3 C85_3 1_555 1_555
C87_3 C86_3 1_555 1_555
C88_3 C87_3 1_555 1_555
H44_3 C88_3 1_555 1_555
C89_3 C88_3 1_555 1_555
H45_3 C89_3 1_555 1_555
C90_3 C89_3 1_555 1_555
H46_3 C90_3 1_555 1_555
C91_3 C84_3 1_555 1_555
C92_3 C87_3 1_555 1_555
C93_3 C94_3 1_555 1_555
C94_3 C95_3 1_555 1_555
C95_3 H47_3 1_555 1_555
C96_3 C95_3 1_555 1_555
H48_3 C96_3 1_555 1_555
C97_3 C96_3 1_555 1_555
C98_3 C97_3 1_555 1_555
H49_3 C98_3 1_555 1_555
C99_3 C94_3 1_555 1_555
H50_3 C99_3 1_555 1_555
C100_3 O12_3 1_555 1_555
C101_3 H51_3 1_555 1_555
C102_3 C101_3 1_555 1_555
H52_3 C102_3 1_555 1_555
C103_3 C102_3 1_555 1_555
H53_3 C103_3 1_555 1_555
C104_3 C103_3 1_555 1_555
C105_3 C104_3 1_555 1_555
C106_3 C105_3 1_555 1_555
C107_3 C106_3 1_555 1_555
C108_3 C107_3 1_555 1_555
C109_3 C108_3 1_555 1_555
H55_3 C109_3 1_555 1_555
C110_3 C109_3 1_555 1_555
H56_3 C110_3 1_555 1_555
C111_3 C104_3 1_555 1_555
C112_3 C107_3 1_555 1_555
N13_3 C61_3 1_555 1_555
N14_3 Ru2_3 1_555 1_555
N15_3 C71_3 1_555 1_555
H64_3 N15_3 1_555 1_555
N16_3 C72_3 1_555 1_555
N17_3 Ru2_3 1_555 1_555
N18_3 Ru2_3 1_555 1_555
N19_3 C91_3 1_555 1_555
H65_3 N19_3 1_555 1_555
N20_3 C92_3 1_555 1_555
N21_3 Ru2_3 1_555 1_555
N22_3 Ru2_3 1_555 1_555
Eu6_2 O8_2 1_555 1_555
O19_2 Eu6 1_555 1_555
O20_2 Eu6 1_555 1_555
Eu6 O13_3 1_555 1_555
O9_2 Eu6_2 1_555 1_555
O13_3 C100_3 1_555 1_555
C65_3 N13_3 1_555 1_555
C66_3 N14_3 1_555 1_555
C70_3 N14_3 1_555 1_555
C71_3 C72_3 1_555 1_555
C73_3 N15_3 1_555 1_555
C73_3 N16_3 1_555 1_555
C78_3 C79_3 1_555 1_555
C81_3 N17_3 1_555 1_555
C85_3 N17_3 1_555 1_555
C86_3 N18_3 1_555 1_555
C90_3 N18_3 1_555 1_555
C91_3 C92_3 1_555 1_555
C93_3 N19_3 1_555 1_555
C93_3 N20_3 1_555 1_555
C97_3 C100_3 1_555 1_555
C98_3 C99_3 1_555 1_555
C101_3 N21_3 1_555 1_555
C105_3 N21_3 1_555 1_555
C106_3 N22_3 1_555 1_555
C110_3 N22_3 1_555 1_555
C111_3 C112_3 1_555 1_555
O6_3 H69_3 1_555 1_555
O6_3 H70_3 1_555 1_555
O2_3 H72_3 1_555 1_555
Eu4_2 O4_4 1_555 1_555
Ru1_4 N1_4 1_555 1_555
O17_2 C20_4 1_555 1_555
O18_2 C20_4 1_555 1_555
O5_4 Eu4_2 1_555 1_555
O7_4 Eu4_2 1_555 1_555
O16_4 Eu4_2 1_555 1_555
C1_4 H1_4 1_555 1_555
C2_4 C1_4 1_555 1_555
H2_4 C2_4 1_555 1_555
C3_4 C2_4 1_555 1_555
H3_4 C3_4 1_555 1_555
C4_4 C3_4 1_555 1_555
C5_4 C4_4 1_555 1_555
C6_4 C5_4 1_555 1_555
C7_4 C6_4 1_555 1_555
C8_4 C7_4 1_555 1_555
H4_4 C8_4 1_555 1_555
C9_4 C8_4 1_555 1_555
H5_4 C9_4 1_555 1_555
C10_4 C9_4 1_555 1_555
H6_4 C10_4 1_555 1_555
C11_4 C4_4 1_555 1_555
C12_4 C7_4 1_555 1_555
C13_4 C14_4 1_555 1_555
C14_4 C15_4 1_555 1_555
C15_4 H7_4 1_555 1_555
C16_4 C15_4 1_555 1_555
H8_4 C16_4 1_555 1_555
C17_4 C16_4 1_555 1_555
C18_4 C17_4 1_555 1_555
H9_4 C18_4 1_555 1_555
C19_4 C14_4 1_555 1_555
H10_4 C19_4 1_555 1_555
C20_4 C17_4 1_555 1_555
C21_4 H11_4 1_555 1_555
C22_4 C21_4 1_555 1_555
H12_4 C22_4 1_555 1_555
C23_4 C22_4 1_555 1_555
H13_4 C23_4 1_555 1_555
C24_4 C23_4 1_555 1_555
C25_4 C24_4 1_555 1_555
C26_4 C25_4 1_555 1_555
C27_4 C26_4 1_555 1_555
C28_4 C27_4 1_555 1_555
H14_4 C28_4 1_555 1_555
C29_4 C28_4 1_555 1_555
H15_4 C29_4 1_555 1_555
C30_4 C29_4 1_555 1_555
H16_4 C30_4 1_555 1_555
C31_4 C24_4 1_555 1_555
C32_4 C27_4 1_555 1_555
C33_4 C34_4 1_555 1_555
C34_4 C35_4 1_555 1_555
C35_4 H17_4 1_555 1_555
C36_4 C35_4 1_555 1_555
H18_4 C36_4 1_555 1_555
C37_4 C36_4 1_555 1_555
C38_4 C37_4 1_555 1_555
H19_4 C38_4 1_555 1_555
C39_4 C34_4 1_555 1_555
H20_4 C39_4 1_555 1_555
C40_4 O5_4 1_555 1_555
C41_4 H21_4 1_555 1_555
C42_4 C41_4 1_555 1_555
H22_4 C42_4 1_555 1_555
C43_4 C42_4 1_555 1_555
H23_4 C43_4 1_555 1_555
C44_4 C43_4 1_555 1_555
C45_4 C44_4 1_555 1_555
C46_4 C45_4 1_555 1_555
C47_4 C46_4 1_555 1_555
C48_4 C47_4 1_555 1_555
H24_4 C48_4 1_555 1_555
C49_4 C48_4 1_555 1_555
H25_4 C49_4 1_555 1_555
C50_4 C49_4 1_555 1_555
H26_4 C50_4 1_555 1_555
C51_4 C44_4 1_555 1_555
C52_4 C47_4 1_555 1_555
C53_4 C54_4 1_555 1_555
C54_4 C55_4 1_555 1_555
C55_4 H27_4 1_555 1_555
C56_4 C55_4 1_555 1_555
H28_4 C56_4 1_555 1_555
C59_4 C54_4 1_555 1_555
H30_4 C59_4 1_555 1_555
N1_4 C1_4 1_555 1_555
N2_4 Ru1_4 1_555 1_555
N3_4 C11_4 1_555 1_555
H61_4 N3_4 1_555 1_555
N4_4 C12_4 1_555 1_555
N5_4 Ru1_4 1_555 1_555
N6_4 Ru1_4 1_555 1_555
N7_4 C31_4 1_555 1_555
H62_4 N7_4 1_555 1_555
N8_4 C32_4 1_555 1_555
N9_4 Ru1_4 1_555 1_555
N10_4 Ru1_4 1_555 1_555
N11_4 C51_4 1_555 1_555
H63_4 N11_4 1_555 1_555
N12_4 C52_4 1_555 1_555
O7_4 C40_4 1_555 1_555
C5_4 N1_4 1_555 1_555
C6_4 N2_4 1_555 1_555
C10_4 N2_4 1_555 1_555
C11_4 C12_4 1_555 1_555
C13_4 N3_4 1_555 1_555
C13_4 N4_4 1_555 1_555
C18_4 C19_4 1_555 1_555
C21_4 N5_4 1_555 1_555
C25_4 N5_4 1_555 1_555
C26_4 N6_4 1_555 1_555
C30_4 N6_4 1_555 1_555
C31_4 C32_4 1_555 1_555
C33_4 N7_4 1_555 1_555
C33_4 N8_4 1_555 1_555
C37_4 C40_4 1_555 1_555
C38_4 C39_4 1_555 1_555
C41_4 N9_4 1_555 1_555
C45_4 N9_4 1_555 1_555
C46_4 N10_4 1_555 1_555
C50_4 N10_4 1_555 1_555
C51_4 C52_4 1_555 1_555
C53_4 N11_4 1_555 1_555
C53_4 N12_4 1_555 1_555
C58_4 C59_4 1_555 1_555
O4_4 H67_4 1_555 1_555
O4_4 H68_4 1_555 1_555
Eu6_2 O2_4 1_555 1_555
Ru2_4 N13_4 1_555 1_555
O6_4 Eu6_2 1_555 1_555
O19_2 C60_4 1_555 1_555
O20_2 C60_4 1_555 1_555
O21_2 C80_4 1_555 1_555
O22_2 C80_4 1_555 1_555
O12_4 Eu6_2 1_555 1_555
C60_4 C57_4 1_555 1_555
C61_4 H31_4 1_555 1_555
C62_4 C61_4 1_555 1_555
H32_4 C62_4 1_555 1_555
C63_4 C62_4 1_555 1_555
H33_4 C63_4 1_555 1_555
C64_4 C63_4 1_555 1_555
C65_4 C64_4 1_555 1_555
C66_4 C65_4 1_555 1_555
C67_4 C66_4 1_555 1_555
C68_4 C67_4 1_555 1_555
H34_4 C68_4 1_555 1_555
C69_4 C68_4 1_555 1_555
H35_4 C69_4 1_555 1_555
C70_4 C69_4 1_555 1_555
H36_4 C70_4 1_555 1_555
C71_4 C64_4 1_555 1_555
C72_4 C67_4 1_555 1_555
C73_4 C74_4 1_555 1_555
C74_4 C75_4 1_555 1_555
C75_4 H37_4 1_555 1_555
C76_4 C75_4 1_555 1_555
H38_4 C76_4 1_555 1_555
C77_4 C76_4 1_555 1_555
C78_4 C77_4 1_555 1_555
H39_4 C78_4 1_555 1_555
C79_4 C74_4 1_555 1_555
H40_4 C79_4 1_555 1_555
C80_4 C77_4 1_555 1_555
C81_4 H41_4 1_555 1_555
C82_4 C81_4 1_555 1_555
H42_4 C82_4 1_555 1_555
C83_4 C82_4 1_555 1_555
H43_4 C83_4 1_555 1_555
C84_4 C83_4 1_555 1_555
C85_4 C84_4 1_555 1_555
C86_4 C85_4 1_555 1_555
C87_4 C86_4 1_555 1_555
C88_4 C87_4 1_555 1_555
H44_4 C88_4 1_555 1_555
C89_4 C88_4 1_555 1_555
H45_4 C89_4 1_555 1_555
C90_4 C89_4 1_555 1_555
H46_4 C90_4 1_555 1_555
C91_4 C84_4 1_555 1_555
C92_4 C87_4 1_555 1_555
C93_4 C94_4 1_555 1_555
C94_4 C95_4 1_555 1_555
C95_4 H47_4 1_555 1_555
C96_4 C95_4 1_555 1_555
H48_4 C96_4 1_555 1_555
C97_4 C96_4 1_555 1_555
C98_4 C97_4 1_555 1_555
H49_4 C98_4 1_555 1_555
C99_4 C94_4 1_555 1_555
H50_4 C99_4 1_555 1_555
C100_4 O12_4 1_555 1_555
C101_4 H51_4 1_555 1_555
C102_4 C101_4 1_555 1_555
H52_4 C102_4 1_555 1_555
C103_4 C102_4 1_555 1_555
H53_4 C103_4 1_555 1_555
C104_4 C103_4 1_555 1_555
C105_4 C104_4 1_555 1_555
C106_4 C105_4 1_555 1_555
C107_4 C106_4 1_555 1_555
C108_4 C107_4 1_555 1_555
C109_4 C108_4 1_555 1_555
H55_4 C109_4 1_555 1_555
C110_4 C109_4 1_555 1_555
H56_4 C110_4 1_555 1_555
C111_4 C104_4 1_555 1_555
C112_4 C107_4 1_555 1_555
N13_4 C61_4 1_555 1_555
N14_4 Ru2_4 1_555 1_555
N15_4 C71_4 1_555 1_555
H64_4 N15_4 1_555 1_555
N16_4 C72_4 1_555 1_555
N17_4 Ru2_4 1_555 1_555
N18_4 Ru2_4 1_555 1_555
N19_4 C91_4 1_555 1_555
H65_4 N19_4 1_555 1_555
N20_4 C92_4 1_555 1_555
N21_4 Ru2_4 1_555 1_555
N22_4 Ru2_4 1_555 1_555
Eu6_2 O13_4 1_555 1_555
O13_4 C100_4 1_555 1_555
C65_4 N13_4 1_555 1_555
C66_4 N14_4 1_555 1_555
C70_4 N14_4 1_555 1_555
C71_4 C72_4 1_555 1_555
C73_4 N15_4 1_555 1_555
C73_4 N16_4 1_555 1_555
C78_4 C79_4 1_555 1_555
C81_4 N17_4 1_555 1_555
C85_4 N17_4 1_555 1_555
C86_4 N18_4 1_555 1_555
C90_4 N18_4 1_555 1_555
C91_4 C92_4 1_555 1_555
C93_4 N19_4 1_555 1_555
C93_4 N20_4 1_555 1_555
C97_4 C100_4 1_555 1_555
C98_4 C99_4 1_555 1_555
C101_4 N21_4 1_555 1_555
C105_4 N21_4 1_555 1_555
C106_4 N22_4 1_555 1_555
C110_4 N22_4 1_555 1_555
C111_4 C112_4 1_555 1_555
O6_4 H69_4 1_555 1_555
O6_4 H70_4 1_555 1_555
O2_4 H72_4 1_555 1_555
O23_2 C120_4 1_555 1_555
O24_2 C120_4 1_555 1_555
H58_4 C116_4 1_555 1_555
C117_4 C116_4 1_555 1_555
C120_4 C117_4 1_555 1_555
Ru1_5 N1_5 1_555 1_555
Ru2_5 N13_5 1_555 1_555
O1_3 C20_5 1_555 1_555
O3_3 C20_5 1_555 1_555
O10_3 C80_5 1_555 1_555
O11_3 C80_5 1_555 1_555
O14_3 C120_5 1_555 1_555
O15_3 C120_5 1_555 1_555
C1_5 H1_5 1_555 1_555
C2_5 C1_5 1_555 1_555
H2_5 C2_5 1_555 1_555
C3_5 C2_5 1_555 1_555
H3_5 C3_5 1_555 1_555
C4_5 C3_5 1_555 1_555
C5_5 C4_5 1_555 1_555
C6_5 C5_5 1_555 1_555
C7_5 C6_5 1_555 1_555
C8_5 C7_5 1_555 1_555
H4_5 C8_5 1_555 1_555
C9_5 C8_5 1_555 1_555
H5_5 C9_5 1_555 1_555
C10_5 C9_5 1_555 1_555
H6_5 C10_5 1_555 1_555
C11_5 C4_5 1_555 1_555
C12_5 C7_5 1_555 1_555
C13_5 C14_5 1_555 1_555
C14_5 C15_5 1_555 1_555
C15_5 H7_5 1_555 1_555
C16_5 C15_5 1_555 1_555
H8_5 C16_5 1_555 1_555
C17_5 C16_5 1_555 1_555
C18_5 C17_5 1_555 1_555
H9_5 C18_5 1_555 1_555
C19_5 C14_5 1_555 1_555
H10_5 C19_5 1_555 1_555
C20_5 C17_5 1_555 1_555
C21_5 H11_5 1_555 1_555
C22_5 C21_5 1_555 1_555
H12_5 C22_5 1_555 1_555
C23_5 C22_5 1_555 1_555
H13_5 C23_5 1_555 1_555
C24_5 C23_5 1_555 1_555
C25_5 C24_5 1_555 1_555
C26_5 C25_5 1_555 1_555
C27_5 C26_5 1_555 1_555
C28_5 C27_5 1_555 1_555
H14_5 C28_5 1_555 1_555
C29_5 C28_5 1_555 1_555
H15_5 C29_5 1_555 1_555
C30_5 C29_5 1_555 1_555
H16_5 C30_5 1_555 1_555
C31_5 C24_5 1_555 1_555
C32_5 C27_5 1_555 1_555
C41_5 H21_5 1_555 1_555
C42_5 C41_5 1_555 1_555
H22_5 C42_5 1_555 1_555
C43_5 C42_5 1_555 1_555
H23_5 C43_5 1_555 1_555
C44_5 C43_5 1_555 1_555
C45_5 C44_5 1_555 1_555
C46_5 C45_5 1_555 1_555
C47_5 C46_5 1_555 1_555
C48_5 C47_5 1_555 1_555
H24_5 C48_5 1_555 1_555
C49_5 C48_5 1_555 1_555
H25_5 C49_5 1_555 1_555
C50_5 C49_5 1_555 1_555
H26_5 C50_5 1_555 1_555
C51_5 C44_5 1_555 1_555
C52_5 C47_5 1_555 1_555
C61_5 H31_5 1_555 1_555
C62_5 C61_5 1_555 1_555
H32_5 C62_5 1_555 1_555
C63_5 C62_5 1_555 1_555
H33_5 C63_5 1_555 1_555
C64_5 C63_5 1_555 1_555
C65_5 C64_5 1_555 1_555
C66_5 C65_5 1_555 1_555
C67_5 C66_5 1_555 1_555
C68_5 C67_5 1_555 1_555
H34_5 C68_5 1_555 1_555
C69_5 C68_5 1_555 1_555
H35_5 C69_5 1_555 1_555
C70_5 C69_5 1_555 1_555
H36_5 C70_5 1_555 1_555
C71_5 C64_5 1_555 1_555
C72_5 C67_5 1_555 1_555
C73_5 C74_5 1_555 1_555
C74_5 C75_5 1_555 1_555
C75_5 H37_5 1_555 1_555
C76_5 C75_5 1_555 1_555
H38_5 C76_5 1_555 1_555
C77_5 C76_5 1_555 1_555
C78_5 C77_5 1_555 1_555
H39_5 C78_5 1_555 1_555
C79_5 C74_5 1_555 1_555
H40_5 C79_5 1_555 1_555
C80_5 C77_5 1_555 1_555
C81_5 H41_5 1_555 1_555
C82_5 C81_5 1_555 1_555
H42_5 C82_5 1_555 1_555
C85_5 C84_5 1_555 1_555
C86_5 C85_5 1_555 1_555
C87_5 C86_5 1_555 1_555
C88_5 C87_5 1_555 1_555
H44_5 C88_5 1_555 1_555
C89_5 C88_5 1_555 1_555
H45_5 C89_5 1_555 1_555
C90_5 C89_5 1_555 1_555
H46_5 C90_5 1_555 1_555
C101_5 H51_5 1_555 1_555
C102_5 C101_5 1_555 1_555
H52_5 C102_5 1_555 1_555
C103_5 C102_5 1_555 1_555
H53_5 C103_5 1_555 1_555
C104_5 C103_5 1_555 1_555
C105_5 C104_5 1_555 1_555
C106_5 C105_5 1_555 1_555
C107_5 C106_5 1_555 1_555
C108_5 C107_5 1_555 1_555
H54_3 C108_5 1_555 1_555
C109_5 C108_5 1_555 1_555
H55_5 C109_5 1_555 1_555
C110_5 C109_5 1_555 1_555
H56_5 C110_5 1_555 1_555
C111_5 C104_5 1_555 1_555
C112_5 C107_5 1_555 1_555
C113_3 C114_3 1_555 1_555
C114_3 C115_3 1_555 1_555
C115_3 H57_3 1_555 1_555
C116_5 C115_3 1_555 1_555
H58_5 C116_5 1_555 1_555
C117_5 C116_5 1_555 1_555
C118_3 C117_5 1_555 1_555
H59_3 C118_3 1_555 1_555
C119_3 C114_3 1_555 1_555
H60_3 C119_3 1_555 1_555
C120_5 C117_5 1_555 1_555
N1_5 C1_5 1_555 1_555
N2_5 Ru1_5 1_555 1_555
N3_5 C11_5 1_555 1_555
H61_5 N3_5 1_555 1_555
N4_5 C12_5 1_555 1_555
N5_5 Ru1_5 1_555 1_555
N6_5 Ru1_5 1_555 1_555
N7_5 C31_5 1_555 1_555
H62_5 N7_5 1_555 1_555
N8_5 C32_5 1_555 1_555
N9_5 Ru1_5 1_555 1_555
N10_5 Ru1_5 1_555 1_555
N12_5 C52_5 1_555 1_555
N13_5 C61_5 1_555 1_555
N14_5 Ru2_5 1_555 1_555
N15_5 C71_5 1_555 1_555
H64_5 N15_5 1_555 1_555
N16_5 C72_5 1_555 1_555
N17_5 Ru2_5 1_555 1_555
N18_5 Ru2_5 1_555 1_555
N21_5 Ru2_5 1_555 1_555
N22_5 Ru2_5 1_555 1_555
N23_3 C111_5 1_555 1_555
N24_3 C112_5 1_555 1_555
H66_3 N24_3 1_555 1_555
Eu3_2 O14_3 1_555 1_555
Eu4_3 O1_3 1_555 1_555
Eu6_3 O10_3 1_555 1_555
O3_3 Eu4_3 1_555 1_555
O11_3 Eu6_3 1_555 1_555
O15_3 Eu3_2 1_555 1_555
C5_5 N1_5 1_555 1_555
C6_5 N2_5 1_555 1_555
C10_5 N2_5 1_555 1_555
C11_5 C12_5 1_555 1_555
C13_5 N3_5 1_555 1_555
C13_5 N4_5 1_555 1_555
C18_5 C19_5 1_555 1_555
C21_5 N5_5 1_555 1_555
C25_5 N5_5 1_555 1_555
C26_5 N6_5 1_555 1_555
C30_5 N6_5 1_555 1_555
C31_5 C32_5 1_555 1_555
C33_5 N7_5 1_555 1_555
C33_5 N8_5 1_555 1_555
C41_5 N9_5 1_555 1_555
C45_5 N9_5 1_555 1_555
C46_5 N10_5 1_555 1_555
C50_5 N10_5 1_555 1_555
C51_5 C52_5 1_555 1_555
C65_5 N13_5 1_555 1_555
C66_5 N14_5 1_555 1_555
C70_5 N14_5 1_555 1_555
C71_5 C72_5 1_555 1_555
C73_5 N15_5 1_555 1_555
C73_5 N16_5 1_555 1_555
C78_5 C79_5 1_555 1_555
C81_5 N17_5 1_555 1_555
C85_5 N17_5 1_555 1_555
C86_5 N18_5 1_555 1_555
C90_5 N18_5 1_555 1_555
C101_5 N21_5 1_555 1_555
C105_5 N21_5 1_555 1_555
C106_5 N22_5 1_555 1_555
C110_5 N22_5 1_555 1_555
C111_5 C112_5 1_555 1_555
C113_3 N23_3 1_555 1_555
C113_3 N24_3 1_555 1_555
C118_3 C119_3 1_555 1_555
Eu1_2 O4_5 1_555 1_555
Eu2_2 O2_5 1_555 1_555
O5_5 Eu1_2 1_555 1_555
O6_5 Eu2_2 1_555 1_555
O7_5 Eu1_2 1_555 1_555
O12_5 Eu2_2 1_555 1_555
O13_5 Eu1_2 1_555 1_555
O16_5 Eu1_2 1_555 1_555
C34_5 C35_5 1_555 1_555
C35_5 H17_5 1_555 1_555
C36_5 C35_5 1_555 1_555
H18_5 C36_5 1_555 1_555
C37_5 C36_5 1_555 1_555
C38_5 C37_5 1_555 1_555
H19_5 C38_5 1_555 1_555
C39_5 C34_5 1_555 1_555
H20_5 C39_5 1_555 1_555
C40_5 O5_5 1_555 1_555
H43_5 C83_5 1_555 1_555
C93_5 C94_5 1_555 1_555
C94_5 C95_5 1_555 1_555
C95_5 H47_5 1_555 1_555
C96_5 C95_5 1_555 1_555
H48_5 C96_5 1_555 1_555
C97_5 C96_5 1_555 1_555
C98_5 C97_5 1_555 1_555
H49_5 C98_5 1_555 1_555
C99_5 C94_5 1_555 1_555
H50_5 C99_5 1_555 1_555
C100_5 O12_5 1_555 1_555
N19_5 C91_5 1_555 1_555
H65_5 N19_5 1_555 1_555
N20_5 C92_5 1_555 1_555
O17_3 Eu1_2 1_555 1_555
O18_3 Eu1_2 1_555 1_555
O19_3 Eu2_2 1_555 1_555
O20_3 Eu2_2 1_555 1_555
O21_3 Eu2_2 1_555 1_555
O22_3 Eu2_2 1_555 1_555
O23_3 Eu1_2 1_555 1_555
O24_3 Eu1_2 1_555 1_555
Eu2_2 O13_5 1_555 1_555
Eu2_2 O16_5 1_555 1_555
O7_5 C40_5 1_555 1_555
O13_5 C100_5 1_555 1_555
C37_5 C40_5 1_555 1_555
C38_5 C39_5 1_555 1_555
C91_5 C92_5 1_555 1_555
C93_5 N19_5 1_555 1_555
C93_5 N20_5 1_555 1_555
C97_5 C100_5 1_555 1_555
C98_5 C99_5 1_555 1_555
O4_5 H67_5 1_555 1_555
O4_5 H68_5 1_555 1_555
O6_5 H69_5 1_555 1_555
O6_5 H70_5 1_555 1_555
O2_5 H71_5 1_555 1_555
O2_5 H72_5 1_555 1_555
O8_3 C60_5 1_555 1_555
O9_3 C60_5 1_555 1_555
C53_5 C54_5 1_555 1_555
C54_5 C55_5 1_555 1_555
C55_5 H27_5 1_555 1_555
C56_5 C55_5 1_555 1_555
H28_5 C56_5 1_555 1_555
C57_5 C56_5 1_555 1_555
C58_5 C57_5 1_555 1_555
H29_5 C58_5 1_555 1_555
C59_5 C54_5 1_555 1_555
H30_5 C59_5 1_555 1_555
C60_5 C57_5 1_555 1_555
H63_5 N11_5 1_555 1_555
Eu5_2 O8_3 1_555 1_555
O9_3 Eu5_2 1_555 1_555
C53_5 N11_5 1_555 1_555
C58_5 C59_5 1_555 1_555
O19_3 C60_6 1_555 1_555
O20_3 C60_6 1_555 1_555
C53_6 C54_6 1_555 1_555
C54_6 C55_6 1_555 1_555
C55_6 H27_6 1_555 1_555
C56_6 C55_6 1_555 1_555
H28_6 C56_6 1_555 1_555
C57_6 C56_6 1_555 1_555
C58_6 C57_6 1_555 1_555
H29_6 C58_6 1_555 1_555
C59_6 C54_6 1_555 1_555
H30_6 C59_6 1_555 1_555
C60_6 C57_6 1_555 1_555
H63_6 N11_6 1_555 1_555
C53_6 N11_6 1_555 1_555
C58_6 C59_6 1_555 1_555
Eu3_2 O4_6 1_555 1_555
Eu5_2 O2_6 1_555 1_555
O5_6 Eu3_2 1_555 1_555
O6_6 Eu5_2 1_555 1_555
O7_6 Eu3_2 1_555 1_555
O12_6 Eu5_2 1_555 1_555
O13_6 Eu3_2 1_555 1_555
O16_6 Eu3_2 1_555 1_555
C34_6 C35_6 1_555 1_555
C35_6 H17_6 1_555 1_555
C36_6 C35_6 1_555 1_555
H18_6 C36_6 1_555 1_555
C37_6 C36_6 1_555 1_555
C38_6 C37_6 1_555 1_555
H19_6 C38_6 1_555 1_555
C39_6 C34_6 1_555 1_555
H20_6 C39_6 1_555 1_555
C40_6 O5_6 1_555 1_555
H43_6 C83_6 1_555 1_555
C93_6 C94_6 1_555 1_555
C94_6 C95_6 1_555 1_555
C95_6 H47_6 1_555 1_555
C96_6 C95_6 1_555 1_555
H48_6 C96_6 1_555 1_555
C97_6 C96_6 1_555 1_555
C98_6 C97_6 1_555 1_555
H49_6 C98_6 1_555 1_555
C99_6 C94_6 1_555 1_555
H50_6 C99_6 1_555 1_555
C100_6 O12_6 1_555 1_555
N19_6 C91_6 1_555 1_555
H65_6 N19_6 1_555 1_555
N20_6 C92_6 1_555 1_555
O17_4 Eu3_2 1_555 1_555
O18_4 Eu3_2 1_555 1_555
O21_4 Eu5_2 1_555 1_555
O22_4 Eu5_2 1_555 1_555
Eu5_2 O13_6 1_555 1_555
Eu5_2 O16_6 1_555 1_555
O7_6 C40_6 1_555 1_555
O13_6 C100_6 1_555 1_555
C37_6 C40_6 1_555 1_555
C38_6 C39_6 1_555 1_555
C91_6 C92_6 1_555 1_555
C93_6 N19_6 1_555 1_555
C93_6 N20_6 1_555 1_555
C97_6 C100_6 1_555 1_555
C98_6 C99_6 1_555 1_555
O4_6 H67_6 1_555 1_555
O4_6 H68_6 1_555 1_555
O6_6 H69_6 1_555 1_555
O6_6 H70_6 1_555 1_555
O2_6 H71_6 1_555 1_555
O2_6 H72_6 1_555 1_555
Ru1_6 N1_6 1_555 1_555
Ru2_6 N13_6 1_555 1_555
O1_4 C20_6 1_555 1_555
O3_4 C20_6 1_555 1_555
O10_4 C80_6 1_555 1_555
O11_4 C80_6 1_555 1_555
O23_3 C120_6 1_555 1_555
O24_3 C120_6 1_555 1_555
C1_6 H1_6 1_555 1_555
C2_6 C1_6 1_555 1_555
H2_6 C2_6 1_555 1_555
C3_6 C2_6 1_555 1_555
H3_6 C3_6 1_555 1_555
C4_6 C3_6 1_555 1_555
C5_6 C4_6 1_555 1_555
C6_6 C5_6 1_555 1_555
C7_6 C6_6 1_555 1_555
C8_6 C7_6 1_555 1_555
H4_6 C8_6 1_555 1_555
C9_6 C8_6 1_555 1_555
H5_6 C9_6 1_555 1_555
C10_6 C9_6 1_555 1_555
H6_6 C10_6 1_555 1_555
C11_6 C4_6 1_555 1_555
C12_6 C7_6 1_555 1_555
C13_6 C14_6 1_555 1_555
C14_6 C15_6 1_555 1_555
C15_6 H7_6 1_555 1_555
C16_6 C15_6 1_555 1_555
H8_6 C16_6 1_555 1_555
C17_6 C16_6 1_555 1_555
C18_6 C17_6 1_555 1_555
H9_6 C18_6 1_555 1_555
C19_6 C14_6 1_555 1_555
H10_6 C19_6 1_555 1_555
C20_6 C17_6 1_555 1_555
C21_6 H11_6 1_555 1_555
C22_6 C21_6 1_555 1_555
H12_6 C22_6 1_555 1_555
C23_6 C22_6 1_555 1_555
H13_6 C23_6 1_555 1_555
C24_6 C23_6 1_555 1_555
C25_6 C24_6 1_555 1_555
C26_6 C25_6 1_555 1_555
C27_6 C26_6 1_555 1_555
C28_6 C27_6 1_555 1_555
H14_6 C28_6 1_555 1_555
C29_6 C28_6 1_555 1_555
H15_6 C29_6 1_555 1_555
C30_6 C29_6 1_555 1_555
H16_6 C30_6 1_555 1_555
C31_6 C24_6 1_555 1_555
C32_6 C27_6 1_555 1_555
C41_6 H21_6 1_555 1_555
C42_6 C41_6 1_555 1_555
H22_6 C42_6 1_555 1_555
C43_6 C42_6 1_555 1_555
H23_6 C43_6 1_555 1_555
C44_6 C43_6 1_555 1_555
C45_6 C44_6 1_555 1_555
C46_6 C45_6 1_555 1_555
C47_6 C46_6 1_555 1_555
C48_6 C47_6 1_555 1_555
H24_6 C48_6 1_555 1_555
C49_6 C48_6 1_555 1_555
H25_6 C49_6 1_555 1_555
C50_6 C49_6 1_555 1_555
H26_6 C50_6 1_555 1_555
C51_6 C44_6 1_555 1_555
C52_6 C47_6 1_555 1_555
C61_6 H31_6 1_555 1_555
C62_6 C61_6 1_555 1_555
H32_6 C62_6 1_555 1_555
C63_6 C62_6 1_555 1_555
H33_6 C63_6 1_555 1_555
C64_6 C63_6 1_555 1_555
C65_6 C64_6 1_555 1_555
C66_6 C65_6 1_555 1_555
C67_6 C66_6 1_555 1_555
C68_6 C67_6 1_555 1_555
H34_6 C68_6 1_555 1_555
C69_6 C68_6 1_555 1_555
H35_6 C69_6 1_555 1_555
C70_6 C69_6 1_555 1_555
H36_6 C70_6 1_555 1_555
C71_6 C64_6 1_555 1_555
C72_6 C67_6 1_555 1_555
C73_6 C74_6 1_555 1_555
C74_6 C75_6 1_555 1_555
C75_6 H37_6 1_555 1_555
C76_6 C75_6 1_555 1_555
H38_6 C76_6 1_555 1_555
C77_6 C76_6 1_555 1_555
C78_6 C77_6 1_555 1_555
H39_6 C78_6 1_555 1_555
C79_6 C74_6 1_555 1_555
H40_6 C79_6 1_555 1_555
C80_6 C77_6 1_555 1_555
C81_6 H41_6 1_555 1_555
C82_6 C81_6 1_555 1_555
H42_6 C82_6 1_555 1_555
C85_6 C84_6 1_555 1_555
C86_6 C85_6 1_555 1_555
C87_6 C86_6 1_555 1_555
C88_6 C87_6 1_555 1_555
H44_6 C88_6 1_555 1_555
C89_6 C88_6 1_555 1_555
H45_6 C89_6 1_555 1_555
C90_6 C89_6 1_555 1_555
H46_6 C90_6 1_555 1_555
C101_6 H51_6 1_555 1_555
C102_6 C101_6 1_555 1_555
H52_6 C102_6 1_555 1_555
C103_6 C102_6 1_555 1_555
H53_6 C103_6 1_555 1_555
C104_6 C103_6 1_555 1_555
C105_6 C104_6 1_555 1_555
C106_6 C105_6 1_555 1_555
C107_6 C106_6 1_555 1_555
C108_6 C107_6 1_555 1_555
H54_4 C108_6 1_555 1_555
C109_6 C108_6 1_555 1_555
H55_6 C109_6 1_555 1_555
C110_6 C109_6 1_555 1_555
H56_6 C110_6 1_555 1_555
C111_6 C104_6 1_555 1_555
C112_6 C107_6 1_555 1_555
C113_4 C114_4 1_555 1_555
C114_4 C115_4 1_555 1_555
C115_4 H57_4 1_555 1_555
C116_6 C115_4 1_555 1_555
H58_6 C116_6 1_555 1_555
C117_6 C116_6 1_555 1_555
C118_4 C117_6 1_555 1_555
H59_4 C118_4 1_555 1_555
C119_4 C114_4 1_555 1_555
H60_4 C119_4 1_555 1_555
C120_6 C117_6 1_555 1_555
N1_6 C1_6 1_555 1_555
N2_6 Ru1_6 1_555 1_555
N3_6 C11_6 1_555 1_555
H61_6 N3_6 1_555 1_555
N4_6 C12_6 1_555 1_555
N5_6 Ru1_6 1_555 1_555
N6_6 Ru1_6 1_555 1_555
N7_6 C31_6 1_555 1_555
H62_6 N7_6 1_555 1_555
N8_6 C32_6 1_555 1_555
N9_6 Ru1_6 1_555 1_555
N10_6 Ru1_6 1_555 1_555
N12_6 C52_6 1_555 1_555
N13_6 C61_6 1_555 1_555
N14_6 Ru2_6 1_555 1_555
N15_6 C71_6 1_555 1_555
H64_6 N15_6 1_555 1_555
N16_6 C72_6 1_555 1_555
N17_6 Ru2_6 1_555 1_555
N18_6 Ru2_6 1_555 1_555
N21_6 Ru2_6 1_555 1_555
N22_6 Ru2_6 1_555 1_555
N23_4 C111_6 1_555 1_555
N24_4 C112_6 1_555 1_555
H66_4 N24_4 1_555 1_555
Eu4_4 O1_4 1_555 1_555
Eu6_4 O10_4 1_555 1_555
O3_4 Eu4_4 1_555 1_555
O11_4 Eu6_4 1_555 1_555
C5_6 N1_6 1_555 1_555
C6_6 N2_6 1_555 1_555
C10_6 N2_6 1_555 1_555
C11_6 C12_6 1_555 1_555
C13_6 N3_6 1_555 1_555
C13_6 N4_6 1_555 1_555
C18_6 C19_6 1_555 1_555
C21_6 N5_6 1_555 1_555
C25_6 N5_6 1_555 1_555
C26_6 N6_6 1_555 1_555
C30_6 N6_6 1_555 1_555
C31_6 C32_6 1_555 1_555
C33_6 N7_6 1_555 1_555
C33_6 N8_6 1_555 1_555
C41_6 N9_6 1_555 1_555
C45_6 N9_6 1_555 1_555
C46_6 N10_6 1_555 1_555
C50_6 N10_6 1_555 1_555
C51_6 C52_6 1_555 1_555
C65_6 N13_6 1_555 1_555
C66_6 N14_6 1_555 1_555
C70_6 N14_6 1_555 1_555
C71_6 C72_6 1_555 1_555
C73_6 N15_6 1_555 1_555
C73_6 N16_6 1_555 1_555
C78_6 C79_6 1_555 1_555
C81_6 N17_6 1_555 1_555
C85_6 N17_6 1_555 1_555
C86_6 N18_6 1_555 1_555
C90_6 N18_6 1_555 1_555
C101_6 N21_6 1_555 1_555
C105_6 N21_6 1_555 1_555
C106_6 N22_6 1_555 1_555
C110_6 N22_6 1_555 1_555
C111_6 C112_6 1_555 1_555
C113_4 N23_4 1_555 1_555
C113_4 N24_4 1_555 1_555
C118_4 C119_4 1_555 1_555
Eu6_3 O2_7 1_555 1_555
Ru2_7 N13_7 1_555 1_555
O6_7 Eu6_3 1_555 1_555
O8_4 C60_7 1_555 1_555
O9_4 C60_7 1_555 1_555
O21_3 C80_7 1_555 1_555
O22_3 C80_7 1_555 1_555
O12_7 Eu6_3 1_555 1_555
C60_7 C57_7 1_555 1_555
C61_7 H31_7 1_555 1_555
C62_7 C61_7 1_555 1_555
H32_7 C62_7 1_555 1_555
C63_7 C62_7 1_555 1_555
H33_7 C63_7 1_555 1_555
C64_7 C63_7 1_555 1_555
C65_7 C64_7 1_555 1_555
C66_7 C65_7 1_555 1_555
C67_7 C66_7 1_555 1_555
C68_7 C67_7 1_555 1_555
H34_7 C68_7 1_555 1_555
C69_7 C68_7 1_555 1_555
H35_7 C69_7 1_555 1_555
C70_7 C69_7 1_555 1_555
H36_7 C70_7 1_555 1_555
C71_7 C64_7 1_555 1_555
C72_7 C67_7 1_555 1_555
C73_7 C74_7 1_555 1_555
C74_7 C75_7 1_555 1_555
C75_7 H37_7 1_555 1_555
C76_7 C75_7 1_555 1_555
H38_7 C76_7 1_555 1_555
C77_7 C76_7 1_555 1_555
C78_7 C77_7 1_555 1_555
H39_7 C78_7 1_555 1_555
C79_7 C74_7 1_555 1_555
H40_7 C79_7 1_555 1_555
C80_7 C77_7 1_555 1_555
C81_7 H41_7 1_555 1_555
C82_7 C81_7 1_555 1_555
H42_7 C82_7 1_555 1_555
C83_7 C82_7 1_555 1_555
H43_7 C83_7 1_555 1_555
C84_7 C83_7 1_555 1_555
C85_7 C84_7 1_555 1_555
C86_7 C85_7 1_555 1_555
C87_7 C86_7 1_555 1_555
C88_7 C87_7 1_555 1_555
H44_7 C88_7 1_555 1_555
C89_7 C88_7 1_555 1_555
H45_7 C89_7 1_555 1_555
C90_7 C89_7 1_555 1_555
H46_7 C90_7 1_555 1_555
C91_7 C84_7 1_555 1_555
C92_7 C87_7 1_555 1_555
C93_7 C94_7 1_555 1_555
C94_7 C95_7 1_555 1_555
C95_7 H47_7 1_555 1_555
C96_7 C95_7 1_555 1_555
H48_7 C96_7 1_555 1_555
C97_7 C96_7 1_555 1_555
C98_7 C97_7 1_555 1_555
H49_7 C98_7 1_555 1_555
C99_7 C94_7 1_555 1_555
H50_7 C99_7 1_555 1_555
C100_7 O12_7 1_555 1_555
C101_7 H51_7 1_555 1_555
C102_7 C101_7 1_555 1_555
H52_7 C102_7 1_555 1_555
C103_7 C102_7 1_555 1_555
H53_7 C103_7 1_555 1_555
C104_7 C103_7 1_555 1_555
C105_7 C104_7 1_555 1_555
C106_7 C105_7 1_555 1_555
C107_7 C106_7 1_555 1_555
C108_7 C107_7 1_555 1_555
C109_7 C108_7 1_555 1_555
H55_7 C109_7 1_555 1_555
C110_7 C109_7 1_555 1_555
H56_7 C110_7 1_555 1_555
C111_7 C104_7 1_555 1_555
C112_7 C107_7 1_555 1_555
N13_7 C61_7 1_555 1_555
N14_7 Ru2_7 1_555 1_555
N15_7 C71_7 1_555 1_555
H64_7 N15_7 1_555 1_555
N16_7 C72_7 1_555 1_555
N17_7 Ru2_7 1_555 1_555
N18_7 Ru2_7 1_555 1_555
N19_7 C91_7 1_555 1_555
H65_7 N19_7 1_555 1_555
N20_7 C92_7 1_555 1_555
N21_7 Ru2_7 1_555 1_555
N22_7 Ru2_7 1_555 1_555
Eu6_4 O8_4 1_555 1_555
O19_4 Eu6_3 1_555 1_555
O20_4 Eu6_3 1_555 1_555
Eu6_3 O13_7 1_555 1_555
O9_4 Eu6_4 1_555 1_555
O13_7 C100_7 1_555 1_555
C65_7 N13_7 1_555 1_555
C66_7 N14_7 1_555 1_555
C70_7 N14_7 1_555 1_555
C71_7 C72_7 1_555 1_555
C73_7 N15_7 1_555 1_555
C73_7 N16_7 1_555 1_555
C78_7 C79_7 1_555 1_555
C81_7 N17_7 1_555 1_555
C85_7 N17_7 1_555 1_555
C86_7 N18_7 1_555 1_555
C90_7 N18_7 1_555 1_555
C91_7 C92_7 1_555 1_555
C93_7 N19_7 1_555 1_555
C93_7 N20_7 1_555 1_555
C97_7 C100_7 1_555 1_555
C98_7 C99_7 1_555 1_555
C101_7 N21_7 1_555 1_555
C105_7 N21_7 1_555 1_555
C106_7 N22_7 1_555 1_555
C110_7 N22_7 1_555 1_555
C111_7 C112_7 1_555 1_555
O6_7 H69_7 1_555 1_555
O6_7 H70_7 1_555 1_555
O2_7 H72_7 1_555 1_555
Eu4_3 O4_7 1_555 1_555
Ru1_7 N1_7 1_555 1_555
O17_3 C20_7 1_555 1_555
O18_3 C20_7 1_555 1_555
O5_7 Eu4_3 1_555 1_555
O7_7 Eu4_3 1_555 1_555
O16_7 Eu4_3 1_555 1_555
C1_7 H1_7 1_555 1_555
C2_7 C1_7 1_555 1_555
H2_7 C2_7 1_555 1_555
C3_7 C2_7 1_555 1_555
H3_7 C3_7 1_555 1_555
C4_7 C3_7 1_555 1_555
C5_7 C4_7 1_555 1_555
C6_7 C5_7 1_555 1_555
C7_7 C6_7 1_555 1_555
C8_7 C7_7 1_555 1_555
H4_7 C8_7 1_555 1_555
C9_7 C8_7 1_555 1_555
H5_7 C9_7 1_555 1_555
C10_7 C9_7 1_555 1_555
H6_7 C10_7 1_555 1_555
C11_7 C4_7 1_555 1_555
C12_7 C7_7 1_555 1_555
C13_7 C14_7 1_555 1_555
C14_7 C15_7 1_555 1_555
C15_7 H7_7 1_555 1_555
C16_7 C15_7 1_555 1_555
H8_7 C16_7 1_555 1_555
C17_7 C16_7 1_555 1_555
C18_7 C17_7 1_555 1_555
H9_7 C18_7 1_555 1_555
C19_7 C14_7 1_555 1_555
H10_7 C19_7 1_555 1_555
C20_7 C17_7 1_555 1_555
C21_7 H11_7 1_555 1_555
C22_7 C21_7 1_555 1_555
H12_7 C22_7 1_555 1_555
C23_7 C22_7 1_555 1_555
H13_7 C23_7 1_555 1_555
C24_7 C23_7 1_555 1_555
C25_7 C24_7 1_555 1_555
C26_7 C25_7 1_555 1_555
C27_7 C26_7 1_555 1_555
C28_7 C27_7 1_555 1_555
H14_7 C28_7 1_555 1_555
C29_7 C28_7 1_555 1_555
H15_7 C29_7 1_555 1_555
C30_7 C29_7 1_555 1_555
H16_7 C30_7 1_555 1_555
C31_7 C24_7 1_555 1_555
C32_7 C27_7 1_555 1_555
C33_7 C34_7 1_555 1_555
C34_7 C35_7 1_555 1_555
C35_7 H17_7 1_555 1_555
C36_7 C35_7 1_555 1_555
H18_7 C36_7 1_555 1_555
C37_7 C36_7 1_555 1_555
C38_7 C37_7 1_555 1_555
H19_7 C38_7 1_555 1_555
C39_7 C34_7 1_555 1_555
H20_7 C39_7 1_555 1_555
C40_7 O5_7 1_555 1_555
C41_7 H21_7 1_555 1_555
C42_7 C41_7 1_555 1_555
H22_7 C42_7 1_555 1_555
C43_7 C42_7 1_555 1_555
H23_7 C43_7 1_555 1_555
C44_7 C43_7 1_555 1_555
C45_7 C44_7 1_555 1_555
C46_7 C45_7 1_555 1_555
C47_7 C46_7 1_555 1_555
C48_7 C47_7 1_555 1_555
H24_7 C48_7 1_555 1_555
C49_7 C48_7 1_555 1_555
H25_7 C49_7 1_555 1_555
C50_7 C49_7 1_555 1_555
H26_7 C50_7 1_555 1_555
C51_7 C44_7 1_555 1_555
C52_7 C47_7 1_555 1_555
C53_7 C54_7 1_555 1_555
C54_7 C55_7 1_555 1_555
C55_7 H27_7 1_555 1_555
C56_7 C55_7 1_555 1_555
H28_7 C56_7 1_555 1_555
C59_7 C54_7 1_555 1_555
H30_7 C59_7 1_555 1_555
N1_7 C1_7 1_555 1_555
N2_7 Ru1_7 1_555 1_555
N3_7 C11_7 1_555 1_555
H61_7 N3_7 1_555 1_555
N4_7 C12_7 1_555 1_555
N5_7 Ru1_7 1_555 1_555
N6_7 Ru1_7 1_555 1_555
N7_7 C31_7 1_555 1_555
H62_7 N7_7 1_555 1_555
N8_7 C32_7 1_555 1_555
N9_7 Ru1_7 1_555 1_555
N10_7 Ru1_7 1_555 1_555
N11_7 C51_7 1_555 1_555
H63_7 N11_7 1_555 1_555
N12_7 C52_7 1_555 1_555
O23_4 Eu4_3 1_555 1_555
O24_4 Eu4_3 1_555 1_555
O7_7 C40_7 1_555 1_555
C5_7 N1_7 1_555 1_555
C6_7 N2_7 1_555 1_555
C10_7 N2_7 1_555 1_555
C11_7 C12_7 1_555 1_555
C13_7 N3_7 1_555 1_555
C13_7 N4_7 1_555 1_555
C18_7 C19_7 1_555 1_555
C21_7 N5_7 1_555 1_555
C25_7 N5_7 1_555 1_555
C26_7 N6_7 1_555 1_555
C30_7 N6_7 1_555 1_555
C31_7 C32_7 1_555 1_555
C33_7 N7_7 1_555 1_555
C33_7 N8_7 1_555 1_555
C37_7 C40_7 1_555 1_555
C38_7 C39_7 1_555 1_555
C41_7 N9_7 1_555 1_555
C45_7 N9_7 1_555 1_555
C46_7 N10_7 1_555 1_555
C50_7 N10_7 1_555 1_555
C51_7 C52_7 1_555 1_555
C53_7 N11_7 1_555 1_555
C53_7 N12_7 1_555 1_555
C58_7 C59_7 1_555 1_555
O4_7 H67_7 1_555 1_555
O4_7 H68_7 1_555 1_555
O14_4 C120_7 1_555 1_555
O15_4 C120_7 1_555 1_555
H58_7 C116_7 1_555 1_555
C117_7 C116_7 1_555 1_555
C120_7 C117_7 1_555 1_555
Eu4_4 O14_4 1_555 1_555
O15_4 Eu4_4 1_555 1_555
O23_4 C120_8 1_555 1_555
O24_4 C120_8 1_555 1_555
H58_8 C116_8 1_555 1_555
C117_8 C116_8 1_555 1_555
C120_8 C117_8 1_555 1_555
Eu6_4 O2_8 1_555 1_555
Ru2_8 N13_8 1_555 1_555
O6_8 Eu6_4 1_555 1_555
O19_4 C60_8 1_555 1_555
O20_4 C60_8 1_555 1_555
O21_4 C80_8 1_555 1_555
O22_4 C80_8 1_555 1_555
O12_8 Eu6_4 1_555 1_555
C60_8 C57_8 1_555 1_555
C61_8 H31_8 1_555 1_555
C62_8 C61_8 1_555 1_555
H32_8 C62_8 1_555 1_555
C63_8 C62_8 1_555 1_555
H33_8 C63_8 1_555 1_555
C64_8 C63_8 1_555 1_555
C65_8 C64_8 1_555 1_555
C66_8 C65_8 1_555 1_555
C67_8 C66_8 1_555 1_555
C68_8 C67_8 1_555 1_555
H34_8 C68_8 1_555 1_555
C69_8 C68_8 1_555 1_555
H35_8 C69_8 1_555 1_555
C70_8 C69_8 1_555 1_555
H36_8 C70_8 1_555 1_555
C71_8 C64_8 1_555 1_555
C72_8 C67_8 1_555 1_555
C73_8 C74_8 1_555 1_555
C74_8 C75_8 1_555 1_555
C75_8 H37_8 1_555 1_555
C76_8 C75_8 1_555 1_555
H38_8 C76_8 1_555 1_555
C77_8 C76_8 1_555 1_555
C78_8 C77_8 1_555 1_555
H39_8 C78_8 1_555 1_555
C79_8 C74_8 1_555 1_555
H40_8 C79_8 1_555 1_555
C80_8 C77_8 1_555 1_555
C81_8 H41_8 1_555 1_555
C82_8 C81_8 1_555 1_555
H42_8 C82_8 1_555 1_555
C83_8 C82_8 1_555 1_555
H43_8 C83_8 1_555 1_555
C84_8 C83_8 1_555 1_555
C85_8 C84_8 1_555 1_555
C86_8 C85_8 1_555 1_555
C87_8 C86_8 1_555 1_555
C88_8 C87_8 1_555 1_555
H44_8 C88_8 1_555 1_555
C89_8 C88_8 1_555 1_555
H45_8 C89_8 1_555 1_555
C90_8 C89_8 1_555 1_555
H46_8 C90_8 1_555 1_555
C91_8 C84_8 1_555 1_555
C92_8 C87_8 1_555 1_555
C93_8 C94_8 1_555 1_555
C94_8 C95_8 1_555 1_555
C95_8 H47_8 1_555 1_555
C96_8 C95_8 1_555 1_555
H48_8 C96_8 1_555 1_555
C97_8 C96_8 1_555 1_555
C98_8 C97_8 1_555 1_555
H49_8 C98_8 1_555 1_555
C99_8 C94_8 1_555 1_555
H50_8 C99_8 1_555 1_555
C100_8 O12_8 1_555 1_555
C101_8 H51_8 1_555 1_555
C102_8 C101_8 1_555 1_555
H52_8 C102_8 1_555 1_555
C103_8 C102_8 1_555 1_555
H53_8 C103_8 1_555 1_555
C104_8 C103_8 1_555 1_555
C105_8 C104_8 1_555 1_555
C106_8 C105_8 1_555 1_555
C107_8 C106_8 1_555 1_555
C108_8 C107_8 1_555 1_555
C109_8 C108_8 1_555 1_555
H55_8 C109_8 1_555 1_555
C110_8 C109_8 1_555 1_555
H56_8 C110_8 1_555 1_555
C111_8 C104_8 1_555 1_555
C112_8 C107_8 1_555 1_555
N13_8 C61_8 1_555 1_555
N14_8 Ru2_8 1_555 1_555
N15_8 C71_8 1_555 1_555
H64_8 N15_8 1_555 1_555
N16_8 C72_8 1_555 1_555
N17_8 Ru2_8 1_555 1_555
N18_8 Ru2_8 1_555 1_555
N19_8 C91_8 1_555 1_555
H65_8 N19_8 1_555 1_555
N20_8 C92_8 1_555 1_555
N21_8 Ru2_8 1_555 1_555
N22_8 Ru2_8 1_555 1_555
Eu6_4 O13_8 1_555 1_555
O13_8 C100_8 1_555 1_555
C65_8 N13_8 1_555 1_555
C66_8 N14_8 1_555 1_555
C70_8 N14_8 1_555 1_555
C71_8 C72_8 1_555 1_555
C73_8 N15_8 1_555 1_555
C73_8 N16_8 1_555 1_555
C78_8 C79_8 1_555 1_555
C81_8 N17_8 1_555 1_555
C85_8 N17_8 1_555 1_555
C86_8 N18_8 1_555 1_555
C90_8 N18_8 1_555 1_555
C91_8 C92_8 1_555 1_555
C93_8 N19_8 1_555 1_555
C93_8 N20_8 1_555 1_555
C97_8 C100_8 1_555 1_555
C98_8 C99_8 1_555 1_555
C101_8 N21_8 1_555 1_555
C105_8 N21_8 1_555 1_555
C106_8 N22_8 1_555 1_555
C110_8 N22_8 1_555 1_555
C111_8 C112_8 1_555 1_555
O6_8 H69_8 1_555 1_555
O6_8 H70_8 1_555 1_555
O2_8 H72_8 1_555 1_555
Eu4_4 O4_8 1_555 1_555
Ru1_8 N1_8 1_555 1_555
O17_4 C20_8 1_555 1_555
O18_4 C20_8 1_555 1_555
O5_8 Eu4_4 1_555 1_555
O7_8 Eu4_4 1_555 1_555
O16_8 Eu4_4 1_555 1_555
C1_8 H1_8 1_555 1_555
C2_8 C1_8 1_555 1_555
H2_8 C2_8 1_555 1_555
C3_8 C2_8 1_555 1_555
H3_8 C3_8 1_555 1_555
C4_8 C3_8 1_555 1_555
C5_8 C4_8 1_555 1_555
C6_8 C5_8 1_555 1_555
C7_8 C6_8 1_555 1_555
C8_8 C7_8 1_555 1_555
H4_8 C8_8 1_555 1_555
C9_8 C8_8 1_555 1_555
H5_8 C9_8 1_555 1_555
C10_8 C9_8 1_555 1_555
H6_8 C10_8 1_555 1_555
C11_8 C4_8 1_555 1_555
C12_8 C7_8 1_555 1_555
C13_8 C14_8 1_555 1_555
C14_8 C15_8 1_555 1_555
C15_8 H7_8 1_555 1_555
C16_8 C15_8 1_555 1_555
H8_8 C16_8 1_555 1_555
C17_8 C16_8 1_555 1_555
C18_8 C17_8 1_555 1_555
H9_8 C18_8 1_555 1_555
C19_8 C14_8 1_555 1_555
H10_8 C19_8 1_555 1_555
C20_8 C17_8 1_555 1_555
C21_8 H11_8 1_555 1_555
C22_8 C21_8 1_555 1_555
H12_8 C22_8 1_555 1_555
C23_8 C22_8 1_555 1_555
H13_8 C23_8 1_555 1_555
C24_8 C23_8 1_555 1_555
C25_8 C24_8 1_555 1_555
C26_8 C25_8 1_555 1_555
C27_8 C26_8 1_555 1_555
C28_8 C27_8 1_555 1_555
H14_8 C28_8 1_555 1_555
C29_8 C28_8 1_555 1_555
H15_8 C29_8 1_555 1_555
C30_8 C29_8 1_555 1_555
H16_8 C30_8 1_555 1_555
C31_8 C24_8 1_555 1_555
C32_8 C27_8 1_555 1_555
C33_8 C34_8 1_555 1_555
C34_8 C35_8 1_555 1_555
C35_8 H17_8 1_555 1_555
C36_8 C35_8 1_555 1_555
H18_8 C36_8 1_555 1_555
C37_8 C36_8 1_555 1_555
C38_8 C37_8 1_555 1_555
H19_8 C38_8 1_555 1_555
C39_8 C34_8 1_555 1_555
H20_8 C39_8 1_555 1_555
C40_8 O5_8 1_555 1_555
C41_8 H21_8 1_555 1_555
C42_8 C41_8 1_555 1_555
H22_8 C42_8 1_555 1_555
C43_8 C42_8 1_555 1_555
H23_8 C43_8 1_555 1_555
C44_8 C43_8 1_555 1_555
C45_8 C44_8 1_555 1_555
C46_8 C45_8 1_555 1_555
C47_8 C46_8 1_555 1_555
C48_8 C47_8 1_555 1_555
H24_8 C48_8 1_555 1_555
C49_8 C48_8 1_555 1_555
H25_8 C49_8 1_555 1_555
C50_8 C49_8 1_555 1_555
H26_8 C50_8 1_555 1_555
C51_8 C44_8 1_555 1_555
C52_8 C47_8 1_555 1_555
C53_8 C54_8 1_555 1_555
C54_8 C55_8 1_555 1_555
C55_8 H27_8 1_555 1_555
C56_8 C55_8 1_555 1_555
H28_8 C56_8 1_555 1_555
C59_8 C54_8 1_555 1_555
H30_8 C59_8 1_555 1_555
N1_8 C1_8 1_555 1_555
N2_8 Ru1_8 1_555 1_555
N3_8 C11_8 1_555 1_555
H61_8 N3_8 1_555 1_555
N4_8 C12_8 1_555 1_555
N5_8 Ru1_8 1_555 1_555
N6_8 Ru1_8 1_555 1_555
N7_8 C31_8 1_555 1_555
H62_8 N7_8 1_555 1_555
N8_8 C32_8 1_555 1_555
N9_8 Ru1_8 1_555 1_555
N10_8 Ru1_8 1_555 1_555
N11_8 C51_8 1_555 1_555
H63_8 N11_8 1_555 1_555
N12_8 C52_8 1_555 1_555
O7_8 C40_8 1_555 1_555
C5_8 N1_8 1_555 1_555
C6_8 N2_8 1_555 1_555
C10_8 N2_8 1_555 1_555
C11_8 C12_8 1_555 1_555
C13_8 N3_8 1_555 1_555
C13_8 N4_8 1_555 1_555
C18_8 C19_8 1_555 1_555
C21_8 N5_8 1_555 1_555
C25_8 N5_8 1_555 1_555
C26_8 N6_8 1_555 1_555
C30_8 N6_8 1_555 1_555
C31_8 C32_8 1_555 1_555
C33_8 N7_8 1_555 1_555
C33_8 N8_8 1_555 1_555
C37_8 C40_8 1_555 1_555
C38_8 C39_8 1_555 1_555
C41_8 N9_8 1_555 1_555
C45_8 N9_8 1_555 1_555
C46_8 N10_8 1_555 1_555
C50_8 N10_8 1_555 1_555
C51_8 C52_8 1_555 1_555
C53_8 N11_8 1_555 1_555
C53_8 N12_8 1_555 1_555
C58_8 C59_8 1_555 1_555
O4_8 H67_8 1_555 1_555
O4_8 H68_8 1_555 1_555
C113_5 C114_5 1_555 1_555
C114_5 C115_5 1_555 1_555
C115_5 H57_5 1_555 1_555
H59_5 C118_5 1_555 1_555
C119_5 C114_5 1_555 1_555
H60_5 C119_5 1_555 1_555
H66_5 N24_5 1_555 1_555
C113_5 N23_5 1_555 1_555
C113_5 N24_5 1_555 1_555
C118_5 C119_5 1_555 1_555
C113_6 C114_6 1_555 1_555
C114_6 C115_6 1_555 1_555
C115_6 H57_6 1_555 1_555
H59_6 C118_6 1_555 1_555
C119_6 C114_6 1_555 1_555
H60_6 C119_6 1_555 1_555
H66_6 N24_6 1_555 1_555
C113_6 N23_6 1_555 1_555
C113_6 N24_6 1_555 1_555
C118_6 C119_6 1_555 1_555
C113_7 C114_7 1_555 1_555
C114_7 C115_7 1_555 1_555
C115_7 H57_7 1_555 1_555
H59_7 C118_7 1_555 1_555
C119_7 C114_7 1_555 1_555
H60_7 C119_7 1_555 1_555
H66_7 N24_7 1_555 1_555
C113_7 N23_7 1_555 1_555
C113_7 N24_7 1_555 1_555
C118_7 C119_7 1_555 1_555
C113_8 C114_8 1_555 1_555
C114_8 C115_8 1_555 1_555
C115_8 H57_8 1_555 1_555
H59_8 C118_8 1_555 1_555
C119_8 C114_8 1_555 1_555
H60_8 C119_8 1_555 1_555
H66_8 N24_8 1_555 1_555
C113_8 N23_8 1_555 1_555
C113_8 N24_8 1_555 1_555
C118_8 C119_8 1_555 1_555

#END
