
###############################################################################
#
# This file contains modified crystal structure data generated from the
# MOF subset of the Cambridge Structural Database (CSD) v543 
# hosted by the Cambridge Crystallographic Data Centre (CCDC).
#
# This work is licensed under the Creative Commons
# Attribution-NonCommercial-ShareAlike 4.0 International License.
# To view a copy of this license, visit
# http://creativecommons.org/licenses/by-nc-sa/4.0/
# or send a letter to
# Creative Commons, PO Box 1866, Mountain View, CA 94042, USA.
#
# CIF created using the CSD Python API on 29 September 2022
# The structure has been converted into the P1 space group
# The structure has a 3D framework
# The original CSD entry ZIJYUO is in the monoclinic crystal system
# The framework has been calculated to contain at least 10.0% void space
# The void calculation uses a probe of radius 1.32A, grid spacing 0.4
#
###############################################################################

data_ZIJYUO
_chemical_formula_moiety         '(C320 H224 Co14 N40 O56)n'
_symmetry_cell_setting           triclinic
_symmetry_space_group_name_H-M   'P 1'
_symmetry_Int_Tables_number      1
_space_group_name_Hall           'P 1'
loop_
_symmetry_equiv_pos_site_id
_symmetry_equiv_pos_as_xyz
1 x,y,z
_cell_length_a                   24.585(5)
_cell_length_b                   13.726(2)
_cell_length_c                   23.486(4)
_cell_angle_alpha                90
_cell_angle_beta                 95.409(7)
_cell_angle_gamma                90
_cell_volume                     7890.15
loop_
_atom_site_label
_atom_site_type_symbol
_atom_site_fract_x
_atom_site_fract_y
_atom_site_fract_z
O8 O 0.10973(11) 0.2135(2) 0.39521(13)
O9 O 0.08236(11) 0.2379(2) 0.47971(13)
C53 C 0.01381(16) 0.2338(3) 0.40108(17)
C54 C 0.00035(18) 0.2240(4) 0.3428(2)
H40 H 0.0277 0.2129 0.3188
C65 C 0.07220(16) 0.2274(3) 0.42678(18)
Co7 Co 0.168495(19) 0.22941(3) 0.478292(19)
N5 N 0.33000(13) 0.1127(2) 0.52757(13)
C38 C 0.32921(19) 0.0680(3) 0.57767(18)
H26 H 0.3290 0.1065 0.6102
C39 C 0.33021(18) 0.0545(3) 0.48221(17)
H27 H 0.3315 0.0832 0.4465
C79 C 0.66979(18) 0.0545(3) 0.01779(17)
H55 H 0.6685 0.0832 0.0535
Co4 Co 0.331505(19) 0.27059(3) 0.521708(19)
N10 N 0.67000(13) 0.1127(2) 0.97243(13)
C78 C 0.67079(19) 0.0680(3) 0.92233(18)
H54 H 0.6710 0.1065 0.8898
Co5 Co 0.668495(19) 0.27059(3) 0.978292(19)
N1 N 0.16903(13) 0.2242(3) 0.22006(13)
H1 H 0.1442 0.1950 0.2371
N2 N 0.50158(13) 0.1507(2) 0.18029(13)
N3 N 0.50581(13) 0.3696(2) 0.31593(13)
N4 N 0.32615(12) 0.4276(2) 0.51653(13)
Co2 Co 0.5000 0.25828(5) 0.2500
O3 O 0.23055(10) 0.2254(2) 0.42868(11)
O4 O 0.31843(10) 0.26369(18) 0.43537(10)
O5 O 0.36807(12) 0.2062(3) 0.17752(12)
O6 O 0.41544(10) 0.26125(19) 0.25585(11)
O7 O 0.18662(12) 0.2950(3) 0.13672(13)
C3 C 0.05354(18) 0.2305(4) 0.18022(19)
H3 H 0.0620 0.2235 0.2194
C4 C 0.09469(16) 0.2474(3) 0.14561(16)
C5 C 0.08078(17) 0.2590(3) 0.08744(17)
H4 H 0.1079 0.2725 0.0635
C6 C 0.02724(17) 0.2507(3) 0.06460(17)
H5 H 0.0189 0.2567 0.0253
C7 C 0.22137(14) 0.2320(3) 0.25084(15)
C8 C 0.22301(14) 0.2342(3) 0.31016(15)
H6 H 0.1908 0.2302 0.3278
C9 C 0.27292(14) 0.2423(2) 0.34321(14)
C10 C 0.32094(15) 0.2470(3) 0.31667(15)
H7 H 0.3542 0.2539 0.3387
C11 C 0.31977(15) 0.2414(3) 0.25696(15)
C12 C 0.26971(15) 0.2337(3) 0.22465(15)
H8 H 0.2685 0.2295 0.1850
C14 C 0.27373(14) 0.2445(2) 0.40719(14)
C15 C 0.37195(15) 0.2367(3) 0.22726(15)
C16 C 0.15413(16) 0.2578(3) 0.16679(16)
C17 C 0.47130(17) 0.0709(3) 0.17332(17)
H9 H 0.4513 0.0512 0.2030
C18 C 0.46801(18) 0.0155(3) 0.12394(17)
C19 C 0.49550(17) 0.0430(3) 0.07750(16)
C20 C 0.52867(17) 0.1249(3) 0.08570(17)
H11 H 0.5494 0.1458 0.0569
C21 C 0.53070(16) 0.1749(3) 0.13655(16)
H12 H 0.5536 0.2289 0.1411
C23 C 0.54275(17) 0.3599(3) 0.36105(18)
H14 H 0.5734 0.3219 0.3570
C24 C 0.53795(17) 0.4029(3) 0.41292(18)
H15 H 0.5649 0.3931 0.4429
C25 C 0.49323(17) 0.4609(3) 0.42090(17)
C26 C 0.45640(19) 0.4753(3) 0.37342(17)
H16 H 0.4265 0.5162 0.3757
C27 C 0.46402(19) 0.4291(3) 0.32276(17)
H17 H 0.4386 0.4400 0.2915
C28 C 0.48345(18) 0.5035(3) 0.47613(17)
H18 H 0.4513 0.5385 0.4779
C29 C 0.32155(17) 0.4818(3) 0.56281(17)
H19 H 0.3209 0.4503 0.5978
C30 C 0.31768(17) 0.5823(3) 0.56188(18)
H20 H 0.3152 0.6166 0.5957
C31 C 0.31744(16) 0.6319(3) 0.51037(17)
C32 C 0.32070(19) 0.5756(3) 0.46212(18)
H21 H 0.3196 0.6050 0.4264
C33 C 0.32563(18) 0.4757(3) 0.46686(17)
H22 H 0.3288 0.4398 0.4338
C34 C 0.31500(17) 0.7387(3) 0.50429(18)
H23 H 0.3038 0.7636 0.4682
C35 C 0.32740(18) 0.8021(3) 0.54590(18)
H24 H 0.3364 0.7782 0.5826
C36 C 0.32774(16) 0.9084(3) 0.53749(17)
C37 C 0.3287(2) 0.9688(3) 0.58452(18)
H25 H 0.3289 0.9421 0.6210
C40 C 0.32858(18) 0.9539(3) 0.48522(18)
H28 H 0.3280 0.9170 0.4520
N7 N 0.49419(13) 0.6304(2) 0.68407(13)
C47 C 0.45725(17) 0.6401(3) 0.63895(18)
H34 H 0.4266 0.6781 0.6430
C48 C 0.46205(17) 0.5971(3) 0.58708(18)
H35 H 0.4351 0.6069 0.5571
C49 C 0.50677(17) 0.5391(3) 0.57910(17)
C50 C 0.54360(19) 0.5247(3) 0.62658(17)
H36 H 0.5735 0.4838 0.6243
C51 C 0.53598(19) 0.5709(3) 0.67724(17)
H37 H 0.5614 0.5600 0.7085
C52 C 0.51655(18) 0.4965(3) 0.52387(17)
H38 H 0.5487 0.4615 0.5221
N8 N 0.83097(13) 0.2242(3) 0.27994(13)
H39 H 0.8558 0.1950 0.2629
O10 O 0.76945(10) 0.2254(2) 0.07132(11)
O11 O 0.68157(10) 0.26369(18) 0.06463(10)
O12 O 0.63193(12) 0.2062(3) 0.32248(12)
O13 O 0.58456(10) 0.26125(19) 0.24415(11)
O14 O 0.81338(12) 0.2950(3) 0.36328(13)
C55 C 0.94646(18) 0.2305(4) 0.31978(19)
H41 H 0.9380 0.2235 0.2806
C56 C 0.90531(16) 0.2474(3) 0.35439(16)
C57 C 0.91922(17) 0.2590(3) 0.41256(17)
H42 H 0.8921 0.2725 0.4365
C58 C 0.97276(17) 0.2507(3) 0.43540(17)
H43 H 0.9811 0.2567 0.4747
C59 C 0.77863(14) 0.2320(3) 0.24916(15)
C60 C 0.77699(14) 0.2342(3) 0.18984(15)
H44 H 0.8092 0.2302 0.1722
C61 C 0.72708(14) 0.2423(2) 0.15679(14)
C62 C 0.67906(15) 0.2470(3) 0.18333(15)
H45 H 0.6458 0.2539 0.1613
C63 C 0.68023(15) 0.2414(3) 0.24304(15)
C64 C 0.73029(15) 0.2337(3) 0.27535(15)
H46 H 0.7315 0.2295 0.3150
C66 C 0.72627(14) 0.2445(2) 0.09281(14)
C67 C 0.62805(15) 0.2367(3) 0.27274(15)
C68 C 0.84587(16) 0.2578(3) 0.33321(16)
C72 C 0.67930(19) 0.5756(3) 0.03788(18)
H49 H 0.6804 0.6050 0.0736
C73 C 0.67437(18) 0.4757(3) 0.03314(17)
H50 H 0.6712 0.4398 0.0662
H51 H 0.6962 0.7636 0.0318
C80 C 0.67142(18) 0.9539(3) 0.01478(18)
H56 H 0.6720 0.9170 0.0480
N11 N 0.49842(13) 0.1507(2) 0.31971(13)
N12 N 0.49419(13) 0.3696(2) 0.18407(13)
Co9 Co 0.831505(19) 0.22941(3) 0.021708(19)
Co11 Co 0.5000 0.74172(5) 0.7500
O16 O 0.39027(11) 0.2865(2) 0.60479(13)
O18 O 0.41764(11) 0.2621(2) 0.52029(13)
O19 O 0.26945(10) 0.2746(2) 0.57132(11)
H30 H 0.5529 0.0410 0.8782
C46 C 0.51181(17) 0.0104(3) 0.97637(16)
H33 H 0.5351 0.0640 0.9778
N9 N 0.67385(12) 0.4276(2) 0.98347(13)
C69 C 0.67845(17) 0.4818(3) 0.93719(17)
H47 H 0.6791 0.4503 0.9022
C70 C 0.68232(17) 0.5823(3) 0.93812(18)
H48 H 0.6848 0.6166 0.9043
C71 C 0.68256(16) 0.6319(3) 0.98963(17)
C74 C 0.68500(17) 0.7387(3) 0.99571(18)
C75 C 0.67260(18) 0.8021(3) 0.95410(18)
H52 H 0.6636 0.7782 0.9174
C76 C 0.67226(16) 0.9084(3) 0.96251(17)
C77 C 0.6713(2) 0.9688(3) 0.91548(18)
H53 H 0.6711 0.9421 0.8790
O15 O 0.60973(11) 0.2865(2) 0.89521(13)
O17 O 0.58236(11) 0.2621(2) 0.97971(13)
O20 O 0.73055(10) 0.2746(2) 0.92868(11)
H10 H 0.4471 0.9590 0.1218
C22 C 0.48819(17) 0.9896(3) 0.02363(16)
H13 H 0.4649 0.9360 0.0222
N6 N 0.49842(13) 0.8493(2) 0.81971(13)
C41 C 0.52870(17) 0.9291(3) 0.82668(17)
H29 H 0.5487 0.9488 0.7970
C42 C 0.53199(18) 0.9845(3) 0.87606(17)
C43 C 0.50450(17) 0.9570(3) 0.92250(16)
C44 C 0.47133(17) 0.8751(3) 0.91430(17)
H31 H 0.4506 0.8542 0.9431
C45 C 0.46930(16) 0.8251(3) 0.86345(16)
H32 H 0.4464 0.7711 0.8589
O1 O 0.89027(11) 0.2135(2) 0.10479(13)
O2 O 0.91764(11) 0.2379(2) 0.02029(13)
C1 C 0.98619(16) 0.2338(3) 0.09892(17)
C2 C 0.99965(18) 0.2240(4) 0.1572(2)
H2 H 0.9723 0.2129 0.1812
C13 C 0.92780(16) 0.2274(3) 0.07322(18)
C17_2 C 0.52870(17) 0.0709(3) 0.32668(17)
H9_2 H 0.5487 0.0512 0.2970
C18_2 C 0.53199(18) 0.0155(3) 0.37606(17)
C19_2 C 0.50450(17) 0.0430(3) 0.42250(16)
C20_2 C 0.47133(17) 0.1249(3) 0.41430(17)
H11_2 H 0.4506 0.1458 0.4431
C21_2 C 0.46930(16) 0.1749(3) 0.36345(16)
H12_2 H 0.4464 0.2289 0.3589
C23_2 C 0.45725(17) 0.3599(3) 0.13895(18)
H14_2 H 0.4266 0.3219 0.1430
C24_2 C 0.46205(17) 0.4029(3) 0.08708(18)
H15_2 H 0.4351 0.3931 0.0571
C25_2 C 0.50677(17) 0.4609(3) 0.07910(17)
C26_2 C 0.54360(19) 0.4753(3) 0.12658(17)
H16_2 H 0.5735 0.5162 0.1243
C27_2 C 0.53598(19) 0.4291(3) 0.17724(17)
H17_2 H 0.5614 0.4400 0.2085
C28_2 C 0.51655(18) 0.5035(3) 0.02387(17)
H18_2 H 0.5487 0.5385 0.0221
H30_2 H 0.4471 0.0410 0.6218
C46_2 C 0.48819(17) 0.0104(3) 0.52363(16)
H33_2 H 0.4649 0.0640 0.5222
N7_2 N 0.50581(13) 0.6304(2) 0.81593(13)
C47_2 C 0.54275(17) 0.6401(3) 0.86105(18)
H34_2 H 0.5734 0.6781 0.8570
C48_2 C 0.53795(17) 0.5971(3) 0.91292(18)
H35_2 H 0.5649 0.6069 0.9429
C49_2 C 0.49323(17) 0.5391(3) 0.92090(17)
C50_2 C 0.45640(19) 0.5247(3) 0.87342(17)
H36_2 H 0.4265 0.4838 0.8757
C51_2 C 0.46402(19) 0.5709(3) 0.82276(17)
H37_2 H 0.4386 0.5600 0.7915
C52_2 C 0.48345(18) 0.4965(3) 0.97613(17)
H38_2 H 0.4513 0.4615 0.9779
H10_2 H 0.5529 0.9590 0.3782
C22_2 C 0.51181(17) 0.9896(3) 0.47637(16)
H13_2 H 0.5351 0.9360 0.4778
N6_2 N 0.50158(13) 0.8493(2) 0.68029(13)
C41_2 C 0.47130(17) 0.9291(3) 0.67332(17)
H29_2 H 0.4513 0.9488 0.7030
C42_2 C 0.46801(18) 0.9845(3) 0.62394(17)
C43_2 C 0.49550(17) 0.9570(3) 0.57750(16)
C44_2 C 0.52867(17) 0.8751(3) 0.58570(17)
H31_2 H 0.5494 0.8542 0.5569
C45_2 C 0.53070(16) 0.8251(3) 0.63655(16)
H32_2 H 0.5536 0.7711 0.6411
C49_3 C 0.00677(17) 0.0391(3) 0.57910(17)
C50_3 C 0.04360(19) 0.0247(3) 0.62658(17)
C51_3 C 0.03598(19) 0.0709(3) 0.67724(17)
H37_3 H 0.0614 0.0600 0.7085
C72_2 C 0.17930(19) 0.0756(3) 0.03788(18)
H49_2 H 0.1804 0.1050 0.0736
H51_2 H 0.1962 0.2636 0.0318
C79_2 C 0.16979(18) 0.5545(3) 0.01779(17)
H55_2 H 0.1685 0.5832 0.0535
C80_2 C 0.17142(18) 0.4539(3) 0.01478(18)
H56_2 H 0.1720 0.4170 0.0480
Co11_2 Co -0.0000 0.24172(5) 0.7500
N10_2 N 0.17000(13) 0.6127(2) 0.97243(13)
C70_2 C 0.18232(17) 0.0823(3) 0.93812(18)
H48_2 H 0.1848 0.1166 0.9043
C71_2 C 0.18256(16) 0.1319(3) 0.98963(17)
C74_2 C 0.18500(17) 0.2387(3) 0.99571(18)
C75_2 C 0.17260(18) 0.3021(3) 0.95410(18)
H52_2 H 0.1636 0.2782 0.9174
C76_2 C 0.17226(16) 0.4084(3) 0.96251(17)
C77_2 C 0.1713(2) 0.4688(3) 0.91548(18)
H53_2 H 0.1711 0.4421 0.8790
C78_2 C 0.17079(19) 0.5680(3) 0.92233(18)
H54_2 H 0.1710 0.6065 0.8898
Co5_2 Co 0.168495(19) 0.77059(3) 0.978292(19)
N2_2 N 0.00158(13) 0.6507(2) 0.18029(13)
N3_2 N 0.00581(13) 0.8696(2) 0.31593(13)
Co2_2 Co -0.0000 0.75828(5) 0.2500
C20_3 C 0.02867(17) 0.6249(3) 0.08570(17)
H11_3 H 0.0494 0.6458 0.0569
C21_3 C 0.03070(16) 0.6749(3) 0.13655(16)
H12_3 H 0.0536 0.7289 0.1411
C23_3 C 0.04275(17) 0.8599(3) 0.36105(18)
H14_3 H 0.0734 0.8219 0.3570
C24_3 C 0.03795(17) 0.9029(3) 0.41292(18)
H15_3 H 0.0649 0.8931 0.4429
H36_3 H 0.0735 0.9838 0.6243
C52_3 C 0.01655(18) 0.9965(3) 0.52387(17)
H38_3 H 0.0487 0.9615 0.5221
N8_2 N 0.33097(13) 0.7242(3) 0.27994(13)
H39_2 H 0.3558 0.6950 0.2629
O8_2 O 0.60973(11) 0.7135(2) 0.39521(13)
O9_2 O 0.58236(11) 0.7379(2) 0.47971(13)
O10_2 O 0.26945(10) 0.7254(2) 0.07132(11)
O11_2 O 0.18157(10) 0.76369(18) 0.06463(10)
O12_2 O 0.13193(12) 0.7062(3) 0.32248(12)
O13_2 O 0.08456(10) 0.76125(19) 0.24415(11)
O14_2 O 0.31338(12) 0.7950(3) 0.36328(13)
C53_2 C 0.51381(16) 0.7338(3) 0.40108(17)
C54_2 C 0.50035(18) 0.7240(4) 0.3428(2)
H40_2 H 0.5277 0.7129 0.3188
C55_2 C 0.44646(18) 0.7305(4) 0.31978(19)
H41_2 H 0.4380 0.7235 0.2806
C56_2 C 0.40531(16) 0.7474(3) 0.35439(16)
C57_2 C 0.41922(17) 0.7590(3) 0.41256(17)
H42_2 H 0.3921 0.7725 0.4365
C58_2 C 0.47276(17) 0.7507(3) 0.43540(17)
H43_2 H 0.4811 0.7567 0.4747
C59_2 C 0.27863(14) 0.7320(3) 0.24916(15)
C60_2 C 0.27699(14) 0.7342(3) 0.18984(15)
H44_2 H 0.3092 0.7302 0.1722
C61_2 C 0.22708(14) 0.7423(2) 0.15679(14)
C62_2 C 0.17906(15) 0.7470(3) 0.18333(15)
H45_2 H 0.1458 0.7539 0.1613
C63_2 C 0.18023(15) 0.7414(3) 0.24304(15)
C64_2 C 0.23029(15) 0.7337(3) 0.27535(15)
H46_2 H 0.2315 0.7295 0.3150
C65_2 C 0.57220(16) 0.7274(3) 0.42678(18)
C66_2 C 0.22627(14) 0.7445(2) 0.09281(14)
C67_2 C 0.12805(15) 0.7367(3) 0.27274(15)
C68_2 C 0.34587(16) 0.7578(3) 0.33321(16)
C73_2 C 0.17437(18) 0.9757(3) 0.03314(17)
H50_2 H 0.1712 0.9398 0.0662
Co7_2 Co 0.668495(19) 0.72941(3) 0.478292(19)
Co9_2 Co 0.331505(19) 0.72941(3) 0.021708(19)
C41_3 C 0.02870(17) 0.4291(3) 0.82668(17)
H29_3 H 0.0487 0.4488 0.7970
C42_3 C 0.03199(18) 0.4845(3) 0.87606(17)
H30_3 H 0.0529 0.5410 0.8782
C43_3 C 0.00450(17) 0.4570(3) 0.92250(16)
C46_3 C 0.01181(17) 0.5104(3) 0.97637(16)
H33_3 H 0.0351 0.5640 0.9778
N9_2 N 0.17385(12) 0.9276(2) 0.98347(13)
C69_2 C 0.17845(17) 0.9818(3) 0.93719(17)
H47_2 H 0.1791 0.9503 0.9022
O15_2 O 0.10973(11) 0.7865(2) 0.89521(13)
O17_2 O 0.08236(11) 0.7621(2) 0.97971(13)
O20_2 O 0.23055(10) 0.7746(2) 0.92868(11)
N5_2 N 0.83000(13) 0.6127(2) 0.52757(13)
H16_3 H 0.9265 0.0162 0.3757
C28_3 C 0.98345(18) 0.0035(3) 0.47613(17)
H18_3 H 0.9513 0.0385 0.4779
C30_2 C 0.81768(17) 0.0823(3) 0.56188(18)
H20_2 H 0.8152 0.1166 0.5957
C31_2 C 0.81744(16) 0.1319(3) 0.51037(17)
C32_2 C 0.82070(19) 0.0756(3) 0.46212(18)
H21_2 H 0.8196 0.1050 0.4264
C34_2 C 0.81500(17) 0.2387(3) 0.50429(18)
H23_2 H 0.8038 0.2636 0.4682
C35_2 C 0.82740(18) 0.3021(3) 0.54590(18)
H24_2 H 0.8364 0.2782 0.5826
C36_2 C 0.82774(16) 0.4084(3) 0.53749(17)
C37_2 C 0.8287(2) 0.4688(3) 0.58452(18)
H25_2 H 0.8289 0.4421 0.6210
C38_2 C 0.82921(19) 0.5680(3) 0.57767(18)
H26_2 H 0.8290 0.6065 0.6102
C39_2 C 0.83021(18) 0.5545(3) 0.48221(17)
H27_2 H 0.8315 0.5832 0.4465
C40_2 C 0.82858(18) 0.4539(3) 0.48522(18)
H28_2 H 0.8280 0.4170 0.4520
N7_3 N 0.99419(13) 0.1304(2) 0.68407(13)
C47_3 C 0.95725(17) 0.1401(3) 0.63895(18)
H34_3 H 0.9266 0.1781 0.6430
C48_3 C 0.96205(17) 0.0971(3) 0.58708(18)
H35_3 H 0.9351 0.1069 0.5571
Co4_2 Co 0.831505(19) 0.77059(3) 0.521708(19)
Co11_3 Co 1.0000 0.24172(5) 0.7500
N1_2 N 0.66903(13) 0.7242(3) 0.22006(13)
H1_2 H 0.6442 0.6950 0.2371
N4_2 N 0.82615(12) 0.9276(2) 0.51653(13)
Co2_3 Co 1.0000 0.75828(5) 0.2500
O1_2 O 0.39027(11) 0.7135(2) 0.10479(13)
O2_2 O 0.41764(11) 0.7379(2) 0.02029(13)
O3_2 O 0.73055(10) 0.7254(2) 0.42868(11)
O4_2 O 0.81843(10) 0.76369(18) 0.43537(10)
O5_2 O 0.86807(12) 0.7062(3) 0.17752(12)
O6_2 O 0.91544(10) 0.76125(19) 0.25585(11)
O7_2 O 0.68662(12) 0.7950(3) 0.13672(13)
C1_2 C 0.48619(16) 0.7338(3) 0.09892(17)
C2_2 C 0.49965(18) 0.7240(4) 0.1572(2)
H2_2 H 0.4723 0.7129 0.1812
C3_2 C 0.55354(18) 0.7305(4) 0.18022(19)
H3_2 H 0.5620 0.7235 0.2194
C4_2 C 0.59469(16) 0.7474(3) 0.14561(16)
C5_2 C 0.58078(17) 0.7590(3) 0.08744(17)
H4_2 H 0.6079 0.7725 0.0635
C6_2 C 0.52724(17) 0.7507(3) 0.06460(17)
H5_2 H 0.5189 0.7567 0.0253
C7_2 C 0.72137(14) 0.7320(3) 0.25084(15)
C8_2 C 0.72301(14) 0.7342(3) 0.31016(15)
H6_2 H 0.6908 0.7302 0.3278
C9_2 C 0.77292(14) 0.7423(2) 0.34321(14)
C10_2 C 0.82094(15) 0.7470(3) 0.31667(15)
H7_2 H 0.8542 0.7539 0.3387
C11_2 C 0.81977(15) 0.7414(3) 0.25696(15)
C12_2 C 0.76971(15) 0.7337(3) 0.22465(15)
H8_2 H 0.7685 0.7295 0.1850
C13_2 C 0.42780(16) 0.7274(3) 0.07322(18)
C14_2 C 0.77373(14) 0.7445(2) 0.40719(14)
C15_2 C 0.87195(15) 0.7367(3) 0.22726(15)
C16_2 C 0.65413(16) 0.7578(3) 0.16679(16)
C17_3 C 0.97130(17) 0.5709(3) 0.17332(17)
H9_3 H 0.9513 0.5512 0.2030
C18_3 C 0.96801(18) 0.5155(3) 0.12394(17)
H10_3 H 0.9471 0.4590 0.1218
C19_3 C 0.99550(17) 0.5430(3) 0.07750(16)
C22_3 C 0.98819(17) 0.4896(3) 0.02363(16)
H13_3 H 0.9649 0.4360 0.0222
C25_3 C 0.99323(17) 0.9609(3) 0.42090(17)
C26_3 C 0.95640(19) 0.9753(3) 0.37342(17)
C27_3 C 0.96402(19) 0.9291(3) 0.32276(17)
H17_3 H 0.9386 0.9400 0.2915
C29_2 C 0.82155(17) 0.9818(3) 0.56281(17)
H19_2 H 0.8209 0.9503 0.5978
C33_2 C 0.82563(18) 0.9757(3) 0.46686(17)
H22_2 H 0.8288 0.9398 0.4338
N11_2 N 0.99842(13) 0.6507(2) 0.31971(13)
N12_2 N 0.99419(13) 0.8696(2) 0.18407(13)
O16_2 O 0.89027(11) 0.7865(2) 0.60479(13)
O18_2 O 0.91764(11) 0.7621(2) 0.52029(13)
O19_2 O 0.76945(10) 0.7746(2) 0.57132(11)
N6_3 N 0.99842(13) 0.3493(2) 0.81971(13)
C44_3 C 0.97133(17) 0.3751(3) 0.91430(17)
H31_3 H 0.9506 0.3542 0.9431
C45_3 C 0.96930(16) 0.3251(3) 0.86345(16)
H32_3 H 0.9464 0.2711 0.8589
H16_4 H 0.0735 0.0162 0.1243
C28_4 C 0.01655(18) 0.0035(3) 0.02387(17)
H18_4 H 0.0487 0.0385 0.0221
N7_4 N 0.00581(13) 0.1304(2) 0.81593(13)
C47_4 C 0.04275(17) 0.1401(3) 0.86105(18)
H34_4 H 0.0734 0.1781 0.8570
C48_4 C 0.03795(17) 0.0971(3) 0.91292(18)
H35_4 H 0.0649 0.1069 0.9429
C17_4 C 0.02870(17) 0.5709(3) 0.32668(17)
H9_4 H 0.0487 0.5512 0.2970
C18_4 C 0.03199(18) 0.5155(3) 0.37606(17)
H10_4 H 0.0529 0.4590 0.3782
C19_4 C 0.00450(17) 0.5430(3) 0.42250(16)
C22_4 C 0.01181(17) 0.4896(3) 0.47637(16)
H13_4 H 0.0351 0.4360 0.4778
C25_4 C 0.00677(17) 0.9609(3) 0.07910(17)
C26_4 C 0.04360(19) 0.9753(3) 0.12658(17)
C27_4 C 0.03598(19) 0.9291(3) 0.17724(17)
H17_4 H 0.0614 0.9400 0.2085
N6_4 N 0.00158(13) 0.3493(2) 0.68029(13)
C44_4 C 0.02867(17) 0.3751(3) 0.58570(17)
H31_4 H 0.0494 0.3542 0.5569
C45_4 C 0.03070(16) 0.3251(3) 0.63655(16)
H32_4 H 0.0536 0.2711 0.6411
C49_4 C 0.99323(17) 0.0391(3) 0.92090(17)
C50_4 C 0.95640(19) 0.0247(3) 0.87342(17)
C51_4 C 0.96402(19) 0.0709(3) 0.82276(17)
H37_4 H 0.9386 0.0600 0.7915
C20_4 C 0.97133(17) 0.6249(3) 0.41430(17)
H11_4 H 0.9506 0.6458 0.4431
C21_4 C 0.96930(16) 0.6749(3) 0.36345(16)
H12_4 H 0.9464 0.7289 0.3589
C23_4 C 0.95725(17) 0.8599(3) 0.13895(18)
H14_4 H 0.9266 0.8219 0.1430
C24_4 C 0.96205(17) 0.9029(3) 0.08708(18)
H15_4 H 0.9351 0.8931 0.0571
C41_4 C 0.97130(17) 0.4291(3) 0.67332(17)
H29_4 H 0.9513 0.4488 0.7030
C42_4 C 0.96801(18) 0.4845(3) 0.62394(17)
H30_4 H 0.9471 0.5410 0.6218
C43_4 C 0.99550(17) 0.4570(3) 0.57750(16)
C46_4 C 0.98819(17) 0.5104(3) 0.52363(16)
H33_4 H 0.9649 0.5640 0.5222
H36_4 H 0.9265 0.9838 0.8757
C52_4 C 0.98345(18) 0.9965(3) 0.97613(17)
H38_4 H 0.9513 0.9615 0.9779
C1_3 C 0.01381(16) 0.7662(3) 0.90108(17)
C2_3 C 0.00035(18) 0.7760(4) 0.8428(2)
H2_3 H 0.0277 0.7871 0.8188
C13_3 C 0.07220(16) 0.7726(3) 0.92678(18)
N9_3 N 0.32615(12) 0.5724(2) 0.01653(13)
C69_3 C 0.32155(17) 0.5182(3) 0.06281(17)
H47_3 H 0.3209 0.5497 0.0978
C70_3 C 0.31768(17) 0.4177(3) 0.06188(18)
H48_3 H 0.3152 0.3834 0.0957
C71_3 C 0.31744(16) 0.3681(3) 0.01037(17)
C74_3 C 0.31500(17) 0.2613(3) 0.00429(18)
C75_3 C 0.32740(18) 0.1979(3) 0.04590(18)
H52_3 H 0.3364 0.2218 0.0826
C76_3 C 0.32774(16) 0.0916(3) 0.03749(17)
C77_3 C 0.3287(2) 0.0312(3) 0.08452(18)
H53_3 H 0.3289 0.0579 0.1210
N14 N 0.33000(13) 0.8873(2) 0.02757(13)
N1_3 N 0.83097(13) 0.7758(3) 0.77994(13)
H1_3 H 0.8558 0.8050 0.7629
N4_3 N 0.67385(12) 0.5724(2) 0.48347(13)
O4_3 O 0.68157(10) 0.73631(18) 0.56463(10)
O5_3 O 0.63193(12) 0.7938(3) 0.82248(12)
O6_3 O 0.58456(10) 0.73875(19) 0.74415(11)
O7_3 O 0.81338(12) 0.7050(3) 0.86328(13)
C3_3 C 0.94646(18) 0.7695(4) 0.81978(19)
H3_3 H 0.9380 0.7765 0.7806
C4_3 C 0.90531(16) 0.7526(3) 0.85439(16)
C5_3 C 0.91922(17) 0.7410(3) 0.91256(17)
H4_3 H 0.8921 0.7275 0.9365
C6_3 C 0.97276(17) 0.7493(3) 0.93540(17)
H5_3 H 0.9811 0.7433 0.9747
C7_3 C 0.77863(14) 0.7680(3) 0.74916(15)
C8_3 C 0.77699(14) 0.7658(3) 0.68984(15)
H6_3 H 0.8092 0.7698 0.6722
C9_3 C 0.72708(14) 0.7577(2) 0.65679(14)
C10_3 C 0.67906(15) 0.7530(3) 0.68333(15)
H7_3 H 0.6458 0.7461 0.6613
C11_3 C 0.68023(15) 0.7586(3) 0.74304(15)
C12_3 C 0.73029(15) 0.7663(3) 0.77535(15)
H8_3 H 0.7315 0.7705 0.8150
C14_3 C 0.72627(14) 0.7555(2) 0.59281(14)
C15_3 C 0.62805(15) 0.7633(3) 0.77274(15)
C16_3 C 0.84587(16) 0.7422(3) 0.83321(16)
C29_3 C 0.67845(17) 0.5182(3) 0.43719(17)
H19_3 H 0.6791 0.5497 0.4022
C30_3 C 0.68232(17) 0.4177(3) 0.43812(18)
H20_3 H 0.6848 0.3834 0.4043
C31_3 C 0.68256(16) 0.3681(3) 0.48963(17)
C32_3 C 0.67930(19) 0.4244(3) 0.53788(18)
H21_3 H 0.6804 0.3950 0.5736
C33_3 C 0.67437(18) 0.5243(3) 0.53314(17)
H22_3 H 0.6712 0.5602 0.5662
C34_3 C 0.68500(17) 0.2613(3) 0.49571(18)
H23_3 H 0.6962 0.2364 0.5318
C35_3 C 0.67260(18) 0.1979(3) 0.45410(18)
H24_3 H 0.6636 0.2218 0.4174
C36_3 C 0.67226(16) 0.0916(3) 0.46251(17)
C37_3 C 0.6713(2) 0.0312(3) 0.41548(18)
H25_3 H 0.6711 0.0579 0.3790
C40_3 C 0.67142(18) 0.0461(3) 0.51478(18)
H28_3 H 0.6720 0.0830 0.5480
N8_3 N 0.16903(13) 0.7758(3) 0.72006(13)
H39_3 H 0.1442 0.8050 0.7371
O11_3 O 0.31843(10) 0.73631(18) 0.93537(10)
O12_3 O 0.36807(12) 0.7938(3) 0.67752(12)
O13_3 O 0.41544(10) 0.73875(19) 0.75585(11)
O14_3 O 0.18662(12) 0.7050(3) 0.63672(13)
C55_3 C 0.05354(18) 0.7695(4) 0.68022(19)
H41_3 H 0.0620 0.7765 0.7194
C56_3 C 0.09469(16) 0.7526(3) 0.64561(16)
C57_3 C 0.08078(17) 0.7410(3) 0.58744(17)
H42_3 H 0.1079 0.7275 0.5635
C58_3 C 0.02724(17) 0.7493(3) 0.56460(17)
H43_3 H 0.0189 0.7433 0.5253
C59_3 C 0.22137(14) 0.7680(3) 0.75084(15)
C60_3 C 0.22301(14) 0.7658(3) 0.81016(15)
H44_3 H 0.1908 0.7698 0.8278
C61_3 C 0.27292(14) 0.7577(2) 0.84321(14)
C62_3 C 0.32094(15) 0.7530(3) 0.81667(15)
H45_3 H 0.3542 0.7461 0.8387
C63_3 C 0.31977(15) 0.7586(3) 0.75696(15)
C64_3 C 0.26971(15) 0.7663(3) 0.72465(15)
H46_3 H 0.2685 0.7705 0.6850
C66_3 C 0.27373(14) 0.7555(2) 0.90719(14)
C67_3 C 0.37195(15) 0.7633(3) 0.72726(15)
C68_3 C 0.15413(16) 0.7422(3) 0.66679(16)
C72_3 C 0.32070(19) 0.4244(3) 0.96212(18)
H49_3 H 0.3196 0.3950 0.9264
C73_3 C 0.32563(18) 0.5243(3) 0.96686(17)
H50_3 H 0.3288 0.5602 0.9338
H51_3 H 0.3038 0.2364 0.9682
C80_3 C 0.32858(18) 0.0461(3) 0.98522(18)
H56_3 H 0.3280 0.0830 0.9520
N13 N 0.67000(13) 0.8873(2) 0.47243(13)
C78_3 C 0.32921(19) 0.9320(3) 0.07767(18)
H54_3 H 0.3290 0.8935 0.1102
C38_3 C 0.67079(19) 0.9320(3) 0.42233(18)
H26_3 H 0.6710 0.8935 0.3898
C39_3 C 0.66979(18) 0.9455(3) 0.51779(17)
H27_3 H 0.6685 0.9168 0.5535
C79_3 C 0.33021(18) 0.9455(3) 0.98221(17)
H55_3 H 0.3315 0.9168 0.9465
C53_3 C 0.98619(16) 0.7662(3) 0.59892(17)
C54_3 C 0.99965(18) 0.7760(4) 0.6572(2)
H40_3 H 0.9723 0.7871 0.6812
C65_3 C 0.92780(16) 0.7726(3) 0.57322(18)
N1_4 N 0.33097(13) 0.2758(3) 0.77994(13)
H1_4 H 0.3558 0.3050 0.7629
N4_4 N 0.17385(12) 0.0724(2) 0.48347(13)
O4_4 O 0.18157(10) 0.23631(18) 0.56463(10)
O5_4 O 0.13193(12) 0.2938(3) 0.82248(12)
O6_4 O 0.08456(10) 0.23875(19) 0.74415(11)
O7_4 O 0.31338(12) 0.2050(3) 0.86328(13)
C1_4 C 0.51381(16) 0.2662(3) 0.90108(17)
C2_4 C 0.50035(18) 0.2760(4) 0.8428(2)
H2_4 H 0.5277 0.2871 0.8188
C3_4 C 0.44646(18) 0.2695(4) 0.81978(19)
H3_4 H 0.4380 0.2765 0.7806
C4_4 C 0.40531(16) 0.2526(3) 0.85439(16)
C5_4 C 0.41922(17) 0.2410(3) 0.91256(17)
H4_4 H 0.3921 0.2275 0.9365
C6_4 C 0.47276(17) 0.2493(3) 0.93540(17)
H5_4 H 0.4811 0.2433 0.9747
C7_4 C 0.27863(14) 0.2680(3) 0.74916(15)
C8_4 C 0.27699(14) 0.2658(3) 0.68984(15)
H6_4 H 0.3092 0.2698 0.6722
C9_4 C 0.22708(14) 0.2577(2) 0.65679(14)
C10_4 C 0.17906(15) 0.2530(3) 0.68333(15)
H7_4 H 0.1458 0.2461 0.6613
C11_4 C 0.18023(15) 0.2586(3) 0.74304(15)
C12_4 C 0.23029(15) 0.2663(3) 0.77535(15)
H8_4 H 0.2315 0.2705 0.8150
C13_4 C 0.57220(16) 0.2726(3) 0.92678(18)
C14_4 C 0.22627(14) 0.2555(2) 0.59281(14)
C15_4 C 0.12805(15) 0.2633(3) 0.77274(15)
C16_4 C 0.34587(16) 0.2422(3) 0.83321(16)
C29_4 C 0.17845(17) 0.0182(3) 0.43719(17)
H19_4 H 0.1791 0.0497 0.4022
C33_4 C 0.17437(18) 0.0243(3) 0.53314(17)
H22_4 H 0.1712 0.0602 0.5662
N13_2 N 0.17000(13) 0.3873(2) 0.47243(13)
C30_4 C 0.18232(17) 0.9177(3) 0.43812(18)
H20_4 H 0.1848 0.8834 0.4043
C31_4 C 0.18256(16) 0.8681(3) 0.48963(17)
C32_4 C 0.17930(19) 0.9244(3) 0.53788(18)
H21_4 H 0.1804 0.8950 0.5736
C34_4 C 0.18500(17) 0.7613(3) 0.49571(18)
H23_4 H 0.1962 0.7364 0.5318
C35_4 C 0.17260(18) 0.6979(3) 0.45410(18)
H24_4 H 0.1636 0.7218 0.4174
C36_4 C 0.17226(16) 0.5916(3) 0.46251(17)
C37_4 C 0.1713(2) 0.5312(3) 0.41548(18)
H25_4 H 0.1711 0.5579 0.3790
C38_4 C 0.17079(19) 0.4320(3) 0.42233(18)
H26_4 H 0.1710 0.3935 0.3898
C39_4 C 0.16979(18) 0.4455(3) 0.51779(17)
H27_4 H 0.1685 0.4168 0.5535
C40_4 C 0.17142(18) 0.5461(3) 0.51478(18)
H28_4 H 0.1720 0.5830 0.5480
N9_4 N 0.82615(12) 0.0724(2) 0.01653(13)
C69_4 C 0.82155(17) 0.0182(3) 0.06281(17)
H47_4 H 0.8209 0.0497 0.0978
N14_2 N 0.83000(13) 0.3873(2) 0.02757(13)
N8_4 N 0.66903(13) 0.2758(3) 0.72006(13)
H39_4 H 0.6442 0.3050 0.7371
O11_4 O 0.81843(10) 0.23631(18) 0.93537(10)
O12_4 O 0.86807(12) 0.2938(3) 0.67752(12)
O13_4 O 0.91544(10) 0.23875(19) 0.75585(11)
O14_4 O 0.68662(12) 0.2050(3) 0.63672(13)
C53_4 C 0.48619(16) 0.2662(3) 0.59892(17)
C54_4 C 0.49965(18) 0.2760(4) 0.6572(2)
H40_4 H 0.4723 0.2871 0.6812
C55_4 C 0.55354(18) 0.2695(4) 0.68022(19)
H41_4 H 0.5620 0.2765 0.7194
C56_4 C 0.59469(16) 0.2526(3) 0.64561(16)
C57_4 C 0.58078(17) 0.2410(3) 0.58744(17)
H42_4 H 0.6079 0.2275 0.5635
C58_4 C 0.52724(17) 0.2493(3) 0.56460(17)
H43_4 H 0.5189 0.2433 0.5253
C59_4 C 0.72137(14) 0.2680(3) 0.75084(15)
C60_4 C 0.72301(14) 0.2658(3) 0.81016(15)
H44_4 H 0.6908 0.2698 0.8278
C61_4 C 0.77292(14) 0.2577(2) 0.84321(14)
C62_4 C 0.82094(15) 0.2530(3) 0.81667(15)
H45_4 H 0.8542 0.2461 0.8387
C63_4 C 0.81977(15) 0.2586(3) 0.75696(15)
C64_4 C 0.76971(15) 0.2663(3) 0.72465(15)
H46_4 H 0.7685 0.2705 0.6850
C65_4 C 0.42780(16) 0.2726(3) 0.57322(18)
C66_4 C 0.77373(14) 0.2555(2) 0.90719(14)
C67_4 C 0.87195(15) 0.2633(3) 0.72726(15)
C68_4 C 0.65413(16) 0.2422(3) 0.66679(16)
C73_4 C 0.82563(18) 0.0243(3) 0.96686(17)
H50_4 H 0.8288 0.0602 0.9338
C70_4 C 0.81768(17) 0.9177(3) 0.06188(18)
H48_4 H 0.8152 0.8834 0.0957
C71_4 C 0.81744(16) 0.8681(3) 0.01037(17)
C74_4 C 0.81500(17) 0.7613(3) 0.00429(18)
C75_4 C 0.82740(18) 0.6979(3) 0.04590(18)
H52_4 H 0.8364 0.7218 0.0826
C76_4 C 0.82774(16) 0.5916(3) 0.03749(17)
C77_4 C 0.8287(2) 0.5312(3) 0.08452(18)
H53_4 H 0.8289 0.5579 0.1210
C78_4 C 0.82921(19) 0.4320(3) 0.07767(18)
H54_4 H 0.8290 0.3935 0.1102
C72_4 C 0.82070(19) 0.9244(3) 0.96212(18)
H49_4 H 0.8196 0.8950 0.9264
H51_4 H 0.8038 0.7364 0.9682
C79_4 C 0.83021(18) 0.4455(3) 0.98221(17)
H55_4 H 0.8315 0.4168 0.9465
C80_4 C 0.82858(18) 0.5461(3) 0.98522(18)
H56_4 H 0.8280 0.5830 0.9520
loop_
_geom_bond_atom_site_label_1
_geom_bond_atom_site_label_2
_geom_bond_site_symmetry_1
_geom_bond_site_symmetry_2
O8 C65 1_555 1_555
O9 C65 1_555 1_555
C53 C54 1_555 1_555
C54 H40 1_555 1_555
C65 C53 1_555 1_555
Co7 O8 1_555 1_555
O9 Co7 1_555 1_555
N5 C38 1_555 1_555
H26 C38 1_555 1_555
C39 N5 1_555 1_555
H27 C39 1_555 1_555
H55 C79 1_555 1_555
Co4 N5 1_555 1_555
N10 C78 1_555 1_555
H54 C78 1_555 1_555
Co5 N10 1_555 1_555
N1 H1 1_555 1_555
N2 Co2 1_555 1_555
N3 Co2 1_555 1_555
N4 Co4 1_555 1_555
Co4 O4 1_555 1_555
Co2 O6 1_555 1_555
O3 C14 1_555 1_555
O4 C14 1_555 1_555
O5 C15 1_555 1_555
O6 C15 1_555 1_555
O7 C16 1_555 1_555
H3 C3 1_555 1_555
C4 C3 1_555 1_555
C5 C4 1_555 1_555
H4 C5 1_555 1_555
H5 C6 1_555 1_555
C7 N1 1_555 1_555
C8 C7 1_555 1_555
H6 C8 1_555 1_555
C9 C8 1_555 1_555
C10 C9 1_555 1_555
H7 C10 1_555 1_555
C11 C10 1_555 1_555
C12 C7 1_555 1_555
H8 C12 1_555 1_555
C14 C9 1_555 1_555
C15 C11 1_555 1_555
C16 N1 1_555 1_555
C17 N2 1_555 1_555
H9 C17 1_555 1_555
C18 C17 1_555 1_555
C19 C18 1_555 1_555
C20 C19 1_555 1_555
H11 C20 1_555 1_555
C21 N2 1_555 1_555
H12 C21 1_555 1_555
C23 N3 1_555 1_555
H14 C23 1_555 1_555
C24 C23 1_555 1_555
H15 C24 1_555 1_555
C25 C24 1_555 1_555
C26 C25 1_555 1_555
H16 C26 1_555 1_555
C27 N3 1_555 1_555
H17 C27 1_555 1_555
C28 C25 1_555 1_555
H18 C28 1_555 1_555
C29 N4 1_555 1_555
H19 C29 1_555 1_555
C30 C29 1_555 1_555
H20 C30 1_555 1_555
C31 C30 1_555 1_555
C32 C31 1_555 1_555
H21 C32 1_555 1_555
C33 N4 1_555 1_555
H22 C33 1_555 1_555
C34 C31 1_555 1_555
H23 C34 1_555 1_555
C35 C34 1_555 1_555
H24 C35 1_555 1_555
C36 C35 1_555 1_555
C37 C36 1_555 1_555
H25 C37 1_555 1_555
C40 C36 1_555 1_555
H28 C40 1_555 1_555
N7 C47 1_555 1_555
C47 H34 1_555 1_555
C48 C47 1_555 1_555
H35 C48 1_555 1_555
C49 C48 1_555 1_555
C50 C49 1_555 1_555
H36 C50 1_555 1_555
C51 N7 1_555 1_555
H37 C51 1_555 1_555
C52 C28 1_555 1_555
H38 C52 1_555 1_555
N8 H39 1_555 1_555
O10 C66 1_555 1_555
O11 C66 1_555 1_555
O12 C67 1_555 1_555
O13 Co2 1_555 1_555
O14 C68 1_555 1_555
H41 C55 1_555 1_555
C56 C55 1_555 1_555
C57 C56 1_555 1_555
H42 C57 1_555 1_555
H43 C58 1_555 1_555
C59 N8 1_555 1_555
C60 C59 1_555 1_555
H44 C60 1_555 1_555
C61 C60 1_555 1_555
C62 C61 1_555 1_555
H45 C62 1_555 1_555
C63 C62 1_555 1_555
C64 C59 1_555 1_555
H46 C64 1_555 1_555
C66 C61 1_555 1_555
C67 O13 1_555 1_555
C68 N8 1_555 1_555
H49 C72 1_555 1_555
H50 C73 1_555 1_555
H56 C80 1_555 1_555
N11 Co2 1_555 1_555
N12 Co2 1_555 1_555
Co7 O3 1_555 1_555
Co9 O10 1_555 1_555
Co11 N7 1_555 1_555
O16 Co4 1_555 1_555
O18 Co4 1_555 1_555
O19 Co4 1_555 1_555
C4 C16 1_555 1_555
C5 C6 1_555 1_555
C11 C12 1_555 1_555
C20 C21 1_555 1_555
C26 C27 1_555 1_555
C32 C33 1_555 1_555
C49 C52 1_555 1_555
C50 C51 1_555 1_555
C56 C68 1_555 1_555
C57 C58 1_555 1_555
C63 C64 1_555 1_555
C63 C67 1_555 1_555
C72 C73 1_555 1_555
H33 C46 1_555 1_555
N9 Co5 1_555 1_555
C69 N9 1_555 1_555
H47 C69 1_555 1_555
C70 C69 1_555 1_555
H48 C70 1_555 1_555
C71 C70 1_555 1_555
C74 C71 1_555 1_555
C75 C74 1_555 1_555
H52 C75 1_555 1_555
C76 C75 1_555 1_555
C77 C76 1_555 1_555
H53 C77 1_555 1_555
O15 Co5 1_555 1_555
O17 Co5 1_555 1_555
O20 Co5 1_555 1_555
H13 C22 1_555 1_555
N6 C41 1_555 1_555
C41 H29 1_555 1_555
C42 C41 1_555 1_555
C43 C42 1_555 1_555
C44 C43 1_555 1_555
H31 C44 1_555 1_555
C45 N6 1_555 1_555
H32 C45 1_555 1_555
Co11 N6 1_555 1_555
C44 C45 1_555 1_555
O1 C13 1_555 1_555
O2 C13 1_555 1_555
C1 C2 1_555 1_555
C2 H2 1_555 1_555
C13 C1 1_555 1_555
Co9 O1 1_555 1_555
O2 Co9 1_555 1_555
C17_2 N11 1_555 1_555
H9_2 C17_2 1_555 1_555
C18_2 C17_2 1_555 1_555
C19_2 C18_2 1_555 1_555
C20_2 C19_2 1_555 1_555
H11_2 C20_2 1_555 1_555
C21_2 N11 1_555 1_555
H12_2 C21_2 1_555 1_555
C23_2 N12 1_555 1_555
H14_2 C23_2 1_555 1_555
C24_2 C23_2 1_555 1_555
H15_2 C24_2 1_555 1_555
C25_2 C24_2 1_555 1_555
C26_2 C25_2 1_555 1_555
H16_2 C26_2 1_555 1_555
C27_2 N12 1_555 1_555
H17_2 C27_2 1_555 1_555
C28_2 C25_2 1_555 1_555
H18_2 C28_2 1_555 1_555
H33_2 C46_2 1_555 1_555
C20_2 C21_2 1_555 1_555
C26_2 C27_2 1_555 1_555
N7_2 C47_2 1_555 1_555
C47_2 H34_2 1_555 1_555
C48_2 C47_2 1_555 1_555
H35_2 C48_2 1_555 1_555
C49_2 C48_2 1_555 1_555
C50_2 C49_2 1_555 1_555
H36_2 C50_2 1_555 1_555
C51_2 N7_2 1_555 1_555
H37_2 C51_2 1_555 1_555
H38_2 C52_2 1_555 1_555
Co11 N7_2 1_555 1_555
C49_2 C52_2 1_555 1_555
C50_2 C51_2 1_555 1_555
H13_2 C22_2 1_555 1_555
N6_2 C41_2 1_555 1_555
C41_2 H29_2 1_555 1_555
C42_2 C41_2 1_555 1_555
C43_2 C42_2 1_555 1_555
C44_2 C43_2 1_555 1_555
H31_2 C44_2 1_555 1_555
C45_2 N6_2 1_555 1_555
H32_2 C45_2 1_555 1_555
Co11 N6_2 1_555 1_555
C44_2 C45_2 1_555 1_555
C50_3 C49_3 1_555 1_555
H37_3 C51_3 1_555 1_555
H49_2 C72_2 1_555 1_555
H55_2 C79_2 1_555 1_555
H56_2 C80_2 1_555 1_555
C50_3 C51_3 1_555 1_555
C79_2 C80_2 1_555 1_555
N10_2 C78_2 1_555 1_555
H48_2 C70_2 1_555 1_555
C71_2 C70_2 1_555 1_555
C74_2 C71_2 1_555 1_555
C75_2 C74_2 1_555 1_555
H52_2 C75_2 1_555 1_555
C76_2 C75_2 1_555 1_555
C77_2 C76_2 1_555 1_555
H53_2 C77_2 1_555 1_555
C78_2 C77_2 1_555 1_555
H54_2 C78_2 1_555 1_555
Co5_2 N10_2 1_555 1_555
N2_2 Co2_2 1_555 1_555
N3_2 Co2_2 1_555 1_555
H11_3 C20_3 1_555 1_555
C21_3 N2_2 1_555 1_555
H12_3 C21_3 1_555 1_555
C23_3 N3_2 1_555 1_555
H14_3 C23_3 1_555 1_555
C24_3 C23_3 1_555 1_555
H15_3 C24_3 1_555 1_555
H38_3 C52_3 1_555 1_555
N8_2 H39_2 1_555 1_555
O8_2 C65_2 1_555 1_555
O9_2 C65_2 1_555 1_555
O10_2 C66_2 1_555 1_555
O11_2 C66_2 1_555 1_555
O12_2 C67_2 1_555 1_555
O13_2 Co2_2 1_555 1_555
O14_2 C68_2 1_555 1_555
C53_2 C54_2 1_555 1_555
C54_2 H40_2 1_555 1_555
C55_2 C54_2 1_555 1_555
H41_2 C55_2 1_555 1_555
C56_2 C55_2 1_555 1_555
C57_2 C56_2 1_555 1_555
H42_2 C57_2 1_555 1_555
C58_2 C53_2 1_555 1_555
H43_2 C58_2 1_555 1_555
C59_2 N8_2 1_555 1_555
C60_2 C59_2 1_555 1_555
H44_2 C60_2 1_555 1_555
C61_2 C60_2 1_555 1_555
C62_2 C61_2 1_555 1_555
H45_2 C62_2 1_555 1_555
C63_2 C62_2 1_555 1_555
C64_2 C59_2 1_555 1_555
H46_2 C64_2 1_555 1_555
C65_2 C53_2 1_555 1_555
C66_2 C61_2 1_555 1_555
C67_2 O13_2 1_555 1_555
C68_2 N8_2 1_555 1_555
H50_2 C73_2 1_555 1_555
Co7_2 O8_2 1_555 1_555
Co9_2 O10_2 1_555 1_555
C20_3 C21_3 1_555 1_555
O9_2 Co7_2 1_555 1_555
C56_2 C68_2 1_555 1_555
C57_2 C58_2 1_555 1_555
C63_2 C64_2 1_555 1_555
C63_2 C67_2 1_555 1_555
C41_3 H29_3 1_555 1_555
C42_3 C41_3 1_555 1_555
H30_3 C42_3 1_555 1_555
C43_3 C42_3 1_555 1_555
H33_3 C46_3 1_555 1_555
N9_2 Co5_2 1_555 1_555
C69_2 N9_2 1_555 1_555
H47_2 C69_2 1_555 1_555
O15_2 Co5_2 1_555 1_555
O17_2 Co5_2 1_555 1_555
O20_2 Co5_2 1_555 1_555
C43_3 C46_3 1_555 1_555
N5_2 C38_2 1_555 1_555
H18_3 C28_3 1_555 1_555
H20_2 C30_2 1_555 1_555
C31_2 C30_2 1_555 1_555
C32_2 C31_2 1_555 1_555
H21_2 C32_2 1_555 1_555
C34_2 C31_2 1_555 1_555
H23_2 C34_2 1_555 1_555
C35_2 C34_2 1_555 1_555
H24_2 C35_2 1_555 1_555
C36_2 C35_2 1_555 1_555
C37_2 C36_2 1_555 1_555
H25_2 C37_2 1_555 1_555
C38_2 C37_2 1_555 1_555
H26_2 C38_2 1_555 1_555
C39_2 N5_2 1_555 1_555
H27_2 C39_2 1_555 1_555
C40_2 C36_2 1_555 1_555
H28_2 C40_2 1_555 1_555
N7_3 C47_3 1_555 1_555
C47_3 H34_3 1_555 1_555
C48_3 C47_3 1_555 1_555
H35_3 C48_3 1_555 1_555
Co4_2 N5_2 1_555 1_555
Co11_3 N7_3 1_555 1_555
C39_2 C40_2 1_555 1_555
N1_2 H1_2 1_555 1_555
N4_2 Co4_2 1_555 1_555
Co4_2 O4_2 1_555 1_555
Co2_3 O6_2 1_555 1_555
O1_2 C13_2 1_555 1_555
O2_2 C13_2 1_555 1_555
O3_2 C14_2 1_555 1_555
O4_2 C14_2 1_555 1_555
O5_2 C15_2 1_555 1_555
O6_2 C15_2 1_555 1_555
O7_2 C16_2 1_555 1_555
C1_2 C2_2 1_555 1_555
C2_2 H2_2 1_555 1_555
C3_2 C2_2 1_555 1_555
H3_2 C3_2 1_555 1_555
C4_2 C3_2 1_555 1_555
C5_2 C4_2 1_555 1_555
H4_2 C5_2 1_555 1_555
C6_2 C1_2 1_555 1_555
H5_2 C6_2 1_555 1_555
C7_2 N1_2 1_555 1_555
C8_2 C7_2 1_555 1_555
H6_2 C8_2 1_555 1_555
C9_2 C8_2 1_555 1_555
C10_2 C9_2 1_555 1_555
H7_2 C10_2 1_555 1_555
C11_2 C10_2 1_555 1_555
C12_2 C7_2 1_555 1_555
H8_2 C12_2 1_555 1_555
C13_2 C1_2 1_555 1_555
C14_2 C9_2 1_555 1_555
C15_2 C11_2 1_555 1_555
C16_2 N1_2 1_555 1_555
H9_3 C17_3 1_555 1_555
C18_3 C17_3 1_555 1_555
H10_3 C18_3 1_555 1_555
C19_3 C18_3 1_555 1_555
C22_3 C19_3 1_555 1_555
H13_3 C22_3 1_555 1_555
C26_3 C25_3 1_555 1_555
H17_3 C27_3 1_555 1_555
C29_2 N4_2 1_555 1_555
H19_2 C29_2 1_555 1_555
C33_2 N4_2 1_555 1_555
H22_2 C33_2 1_555 1_555
N11_2 Co2_3 1_555 1_555
N12_2 Co2_3 1_555 1_555
Co7_2 O3_2 1_555 1_555
Co9_2 O1_2 1_555 1_555
O16_2 Co4_2 1_555 1_555
O18_2 Co4_2 1_555 1_555
O19_2 Co4_2 1_555 1_555
O2_2 Co9_2 1_555 1_555
C4_2 C16_2 1_555 1_555
C5_2 C6_2 1_555 1_555
C11_2 C12_2 1_555 1_555
C26_3 C27_3 1_555 1_555
H31_3 C44_3 1_555 1_555
C45_3 N6_3 1_555 1_555
H32_3 C45_3 1_555 1_555
Co11_3 N6_3 1_555 1_555
C44_3 C45_3 1_555 1_555
H18_4 C28_4 1_555 1_555
N7_4 C47_4 1_555 1_555
C47_4 H34_4 1_555 1_555
C48_4 C47_4 1_555 1_555
H35_4 C48_4 1_555 1_555
Co11_2 N7_4 1_555 1_555
H9_4 C17_4 1_555 1_555
C18_4 C17_4 1_555 1_555
H10_4 C18_4 1_555 1_555
C19_4 C18_4 1_555 1_555
C22_4 C19_4 1_555 1_555
H13_4 C22_4 1_555 1_555
C26_4 C25_4 1_555 1_555
H17_4 C27_4 1_555 1_555
H31_4 C44_4 1_555 1_555
C45_4 N6_4 1_555 1_555
H32_4 C45_4 1_555 1_555
Co11_2 N6_4 1_555 1_555
C26_4 C27_4 1_555 1_555
C44_4 C45_4 1_555 1_555
C50_4 C49_4 1_555 1_555
H37_4 C51_4 1_555 1_555
C50_4 C51_4 1_555 1_555
H11_4 C20_4 1_555 1_555
C21_4 N11_2 1_555 1_555
H12_4 C21_4 1_555 1_555
C23_4 N12_2 1_555 1_555
H14_4 C23_4 1_555 1_555
C24_4 C23_4 1_555 1_555
H15_4 C24_4 1_555 1_555
C41_4 H29_4 1_555 1_555
C42_4 C41_4 1_555 1_555
H30_4 C42_4 1_555 1_555
C43_4 C42_4 1_555 1_555
H33_4 C46_4 1_555 1_555
C20_4 C21_4 1_555 1_555
C43_4 C46_4 1_555 1_555
H38_4 C52_4 1_555 1_555
O15_2 C13_3 1_555 1_555
O17_2 C13_3 1_555 1_555
C1_3 C2_3 1_555 1_555
C2_3 H2_3 1_555 1_555
C13_3 C1_3 1_555 1_555
N9_3 Co9_2 1_555 1_555
C69_3 N9_3 1_555 1_555
H47_3 C69_3 1_555 1_555
C70_3 C69_3 1_555 1_555
H48_3 C70_3 1_555 1_555
C71_3 C70_3 1_555 1_555
C74_3 C71_3 1_555 1_555
C75_3 C74_3 1_555 1_555
H52_3 C75_3 1_555 1_555
C76_3 C75_3 1_555 1_555
C77_3 C76_3 1_555 1_555
H53_3 C77_3 1_555 1_555
N14 Co9_2 1_555 1_555
N1_3 H1_3 1_555 1_555
N4_3 Co7_2 1_555 1_555
Co7_2 O4_3 1_555 1_555
Co11 O6_3 1_555 1_555
O19_2 C14_3 1_555 1_555
O4_3 C14_3 1_555 1_555
O5_3 C15_3 1_555 1_555
O6_3 C15_3 1_555 1_555
O7_3 C16_3 1_555 1_555
H3_3 C3_3 1_555 1_555
C4_3 C3_3 1_555 1_555
C5_3 C4_3 1_555 1_555
H4_3 C5_3 1_555 1_555
H5_3 C6_3 1_555 1_555
C7_3 N1_3 1_555 1_555
C8_3 C7_3 1_555 1_555
H6_3 C8_3 1_555 1_555
C9_3 C8_3 1_555 1_555
C10_3 C9_3 1_555 1_555
H7_3 C10_3 1_555 1_555
C11_3 C10_3 1_555 1_555
C12_3 C7_3 1_555 1_555
H8_3 C12_3 1_555 1_555
C14_3 C9_3 1_555 1_555
C15_3 C11_3 1_555 1_555
C16_3 N1_3 1_555 1_555
C29_3 N4_3 1_555 1_555
H19_3 C29_3 1_555 1_555
C30_3 C29_3 1_555 1_555
H20_3 C30_3 1_555 1_555
C31_3 C30_3 1_555 1_555
C32_3 C31_3 1_555 1_555
H21_3 C32_3 1_555 1_555
C33_3 N4_3 1_555 1_555
H22_3 C33_3 1_555 1_555
C34_3 C31_3 1_555 1_555
H23_3 C34_3 1_555 1_555
C35_3 C34_3 1_555 1_555
H24_3 C35_3 1_555 1_555
C36_3 C35_3 1_555 1_555
C37_3 C36_3 1_555 1_555
H25_3 C37_3 1_555 1_555
C40_3 C36_3 1_555 1_555
H28_3 C40_3 1_555 1_555
N8_3 H39_3 1_555 1_555
O20_2 C66_3 1_555 1_555
O11_3 C66_3 1_555 1_555
O12_3 C67_3 1_555 1_555
O13_3 Co11 1_555 1_555
O14_3 C68_3 1_555 1_555
H41_3 C55_3 1_555 1_555
C56_3 C55_3 1_555 1_555
C57_3 C56_3 1_555 1_555
H42_3 C57_3 1_555 1_555
H43_3 C58_3 1_555 1_555
C59_3 N8_3 1_555 1_555
C60_3 C59_3 1_555 1_555
H44_3 C60_3 1_555 1_555
C61_3 C60_3 1_555 1_555
C62_3 C61_3 1_555 1_555
H45_3 C62_3 1_555 1_555
C63_3 C62_3 1_555 1_555
C64_3 C59_3 1_555 1_555
H46_3 C64_3 1_555 1_555
C66_3 C61_3 1_555 1_555
C67_3 O13_3 1_555 1_555
C68_3 N8_3 1_555 1_555
H49_3 C72_3 1_555 1_555
H50_3 C73_3 1_555 1_555
H56_3 C80_3 1_555 1_555
N13 Co7_2 1_555 1_555
C4_3 C16_3 1_555 1_555
C5_3 C6_3 1_555 1_555
C11_3 C12_3 1_555 1_555
C32_3 C33_3 1_555 1_555
C56_3 C68_3 1_555 1_555
C57_3 C58_3 1_555 1_555
C63_3 C64_3 1_555 1_555
C63_3 C67_3 1_555 1_555
C72_3 C73_3 1_555 1_555
N14 C78_3 1_555 1_555
H54_3 C78_3 1_555 1_555
N13 C38_3 1_555 1_555
H26_3 C38_3 1_555 1_555
C39_3 N13 1_555 1_555
H27_3 C39_3 1_555 1_555
H55_3 C79_3 1_555 1_555
O16_2 C65_3 1_555 1_555
O18_2 C65_3 1_555 1_555
C53_3 C54_3 1_555 1_555
C54_3 H40_3 1_555 1_555
C65_3 C53_3 1_555 1_555
N1_4 H1_4 1_555 1_555
N4_4 Co7 1_555 1_555
Co7 O4_4 1_555 1_555
Co11_2 O6_4 1_555 1_555
O15 C13_4 1_555 1_555
O17 C13_4 1_555 1_555
O19 C14_4 1_555 1_555
O4_4 C14_4 1_555 1_555
O5_4 C15_4 1_555 1_555
O6_4 C15_4 1_555 1_555
O7_4 C16_4 1_555 1_555
C1_4 C2_4 1_555 1_555
C2_4 H2_4 1_555 1_555
C3_4 C2_4 1_555 1_555
H3_4 C3_4 1_555 1_555
C4_4 C3_4 1_555 1_555
C5_4 C4_4 1_555 1_555
H4_4 C5_4 1_555 1_555
C6_4 C1_4 1_555 1_555
H5_4 C6_4 1_555 1_555
C7_4 N1_4 1_555 1_555
C8_4 C7_4 1_555 1_555
H6_4 C8_4 1_555 1_555
C9_4 C8_4 1_555 1_555
C10_4 C9_4 1_555 1_555
H7_4 C10_4 1_555 1_555
C11_4 C10_4 1_555 1_555
C12_4 C7_4 1_555 1_555
H8_4 C12_4 1_555 1_555
C13_4 C1_4 1_555 1_555
C14_4 C9_4 1_555 1_555
C15_4 C11_4 1_555 1_555
C16_4 N1_4 1_555 1_555
C29_4 N4_4 1_555 1_555
H19_4 C29_4 1_555 1_555
C33_4 N4_4 1_555 1_555
H22_4 C33_4 1_555 1_555
N13_2 Co7 1_555 1_555
C4_4 C16_4 1_555 1_555
C5_4 C6_4 1_555 1_555
C11_4 C12_4 1_555 1_555
N13_2 C38_4 1_555 1_555
H20_4 C30_4 1_555 1_555
C31_4 C30_4 1_555 1_555
C32_4 C31_4 1_555 1_555
H21_4 C32_4 1_555 1_555
C34_4 C31_4 1_555 1_555
H23_4 C34_4 1_555 1_555
C35_4 C34_4 1_555 1_555
H24_4 C35_4 1_555 1_555
C36_4 C35_4 1_555 1_555
C37_4 C36_4 1_555 1_555
H25_4 C37_4 1_555 1_555
C38_4 C37_4 1_555 1_555
H26_4 C38_4 1_555 1_555
C39_4 N13_2 1_555 1_555
H27_4 C39_4 1_555 1_555
C40_4 C36_4 1_555 1_555
H28_4 C40_4 1_555 1_555
C39_4 C40_4 1_555 1_555
N9_4 Co9 1_555 1_555
C69_4 N9_4 1_555 1_555
H47_4 C69_4 1_555 1_555
N14_2 Co9 1_555 1_555
N8_4 H39_4 1_555 1_555
O16 C65_4 1_555 1_555
O18 C65_4 1_555 1_555
O20 C66_4 1_555 1_555
O11_4 C66_4 1_555 1_555
O12_4 C67_4 1_555 1_555
O13_4 Co11_3 1_555 1_555
O14_4 C68_4 1_555 1_555
C53_4 C54_4 1_555 1_555
C54_4 H40_4 1_555 1_555
C55_4 C54_4 1_555 1_555
H41_4 C55_4 1_555 1_555
C56_4 C55_4 1_555 1_555
C57_4 C56_4 1_555 1_555
H42_4 C57_4 1_555 1_555
C58_4 C53_4 1_555 1_555
H43_4 C58_4 1_555 1_555
C59_4 N8_4 1_555 1_555
C60_4 C59_4 1_555 1_555
H44_4 C60_4 1_555 1_555
C61_4 C60_4 1_555 1_555
C62_4 C61_4 1_555 1_555
H45_4 C62_4 1_555 1_555
C63_4 C62_4 1_555 1_555
C64_4 C59_4 1_555 1_555
H46_4 C64_4 1_555 1_555
C65_4 C53_4 1_555 1_555
C66_4 C61_4 1_555 1_555
C67_4 O13_4 1_555 1_555
C68_4 N8_4 1_555 1_555
H50_4 C73_4 1_555 1_555
C56_4 C68_4 1_555 1_555
C57_4 C58_4 1_555 1_555
C63_4 C64_4 1_555 1_555
C63_4 C67_4 1_555 1_555
N14_2 C78_4 1_555 1_555
H48_4 C70_4 1_555 1_555
C71_4 C70_4 1_555 1_555
C74_4 C71_4 1_555 1_555
C75_4 C74_4 1_555 1_555
H52_4 C75_4 1_555 1_555
C76_4 C75_4 1_555 1_555
C77_4 C76_4 1_555 1_555
H53_4 C77_4 1_555 1_555
C78_4 C77_4 1_555 1_555
H54_4 C78_4 1_555 1_555
H49_4 C72_4 1_555 1_555
H55_4 C79_4 1_555 1_555
H56_4 C80_4 1_555 1_555
C79_4 C80_4 1_555 1_555

#END
