
###############################################################################
#
# This file contains modified crystal structure data generated from the
# MOF subset of the Cambridge Structural Database (CSD) v543 
# hosted by the Cambridge Crystallographic Data Centre (CCDC).
#
# This work is licensed under the Creative Commons
# Attribution-NonCommercial-ShareAlike 4.0 International License.
# To view a copy of this license, visit
# http://creativecommons.org/licenses/by-nc-sa/4.0/
# or send a letter to
# Creative Commons, PO Box 1866, Mountain View, CA 94042, USA.
#
# CIF created using the CSD Python API on 29 September 2022
# The structure has been converted into the P1 space group
# The structure has a 3D framework
# The original CSD entry ZIKCED is in the monoclinic crystal system
# The framework has been calculated to contain at least 10.0% void space
# The void calculation uses a probe of radius 1.32A, grid spacing 0.4
#
###############################################################################

data_ZIKCED
_chemical_formula_moiety         '(C224 H144 N24 O64 Zn16)n'
_symmetry_cell_setting           triclinic
_symmetry_space_group_name_H-M   'P 1'
_symmetry_Int_Tables_number      1
_space_group_name_Hall           'P 1'
loop_
_symmetry_equiv_pos_site_id
_symmetry_equiv_pos_as_xyz
1 x,y,z
_cell_length_a                   28.157(2)
_cell_length_b                   16.6590(12)
_cell_length_c                   14.5584(11)
_cell_angle_alpha                90
_cell_angle_beta                 93.284(3)
_cell_angle_gamma                90
_cell_volume                     6817.66
loop_
_atom_site_label
_atom_site_type_symbol
_atom_site_fract_x
_atom_site_fract_y
_atom_site_fract_z
Zn1 Zn 0.301581(18) 0.14792(3) 0.64098(4)
Zn2 Zn 0.211436(17) 0.24730(3) 0.57495(4)
O1 O 0.25858(12) 0.0785(2) 0.7048(3)
O2 O 0.19425(11) 0.15504(19) 0.6763(2)
O7 O 0.03772(12) 0.0706(2) 0.6472(3)
N2 N 0.15495(14) 0.3202(2) 0.6155(3)
C8 C 0.13558(17) 0.0177(3) 0.6815(3)
H6 H 0.1214 0.0647 0.6591
C9 C 0.18373(16) 0.0167(3) 0.7100(3)
C13 C 0.21370(16) 0.0894(3) 0.6956(3)
C22 C 0.1126(2) 0.2876(4) 0.6282(5)
H13 H 0.1105 0.2321 0.6335
C23 C 0.0719(2) 0.3325(4) 0.6337(5)
H14 H 0.0431 0.3073 0.6425
C24 C 0.07391(19) 0.4161(3) 0.6260(4)
C25 C 0.1183(2) 0.4493(3) 0.6172(4)
H15 H 0.1219 0.5047 0.6146
C26 C 0.15702(19) 0.3998(3) 0.6122(4)
H16 H 0.1866 0.4235 0.6063
C28 C 0.0320(2) 0.4679(4) 0.6263(4)
H18 H 0.0371 0.5231 0.6274
O8 O 0.26709(10) 0.17449(17) 0.5270(2)
Zn7 Zn 0.288564(17) 0.25270(3) 0.42505(4)
O9 O 0.32419(12) 0.24023(18) 0.7128(3)
O10 O 0.25773(11) 0.30793(19) 0.6742(2)
O11 O 0.16355(11) 0.1888(2) 0.4866(3)
N4 N 0.36187(14) 0.0833(2) 0.6342(3)
O12 O 0.23291(10) 0.32551(17) 0.4730(2)
O3 O 0.17581(12) 0.74023(18) 0.7872(3)
O4 O 0.24227(11) 0.80793(19) 0.8258(2)
N3 N 0.06046(15) 0.9413(3) 0.6580(3)
H1 H 0.0500 0.8930 0.6513
C7 C 0.10918(17) 0.9477(3) 0.6869(4)
C10 C 0.20480(16) 0.9481(3) 0.7447(3)
H7 H 0.2368 0.9487 0.7641
C11 C 0.17877(16) 0.8776(3) 0.7511(3)
C12 C 0.13079(17) 0.8785(3) 0.7211(4)
H8 H 0.1130 0.8316 0.7241
C14 C 0.20108(16) 0.8039(3) 0.7913(3)
C16 C 0.02824(16) 0.9991(3) 0.6396(3)
Zn4 Zn 0.198419(18) 0.64792(3) 0.85902(4)
Zn5 Zn 0.288564(17) 0.74730(3) 0.92505(4)
N1 N 0.86187(14) 0.5833(2) 0.6342(3)
H4 H 0.8722 0.0335 0.5685
C6 C 0.94232(18) 0.0225(3) 0.6010(4)
H5 H 0.9476 0.0766 0.6139
C17 C 0.90408(19) 0.6191(4) 0.6315(5)
H9 H 0.9055 0.6749 0.6317
C18 C 0.9458(2) 0.5759(4) 0.6284(5)
H10 H 0.9748 0.6027 0.6273
C19 C 0.9447(2) 0.4937(3) 0.6271(4)
C20 C 0.9012(2) 0.4569(4) 0.6283(5)
H11 H 0.8990 0.4012 0.6277
C21 C 0.8606(2) 0.5034(3) 0.6305(4)
H12 H 0.8312 0.4779 0.6294
C27 C 0.9875(2) 0.4427(4) 0.6253(5)
H17 H 0.9827 0.3875 0.6232
Zn3 Zn 0.801581(18) 0.64792(3) 0.64098(4)
O5 O 0.83645(11) 0.8112(2) 0.5134(3)
O6 O 0.80497(12) 0.9338(2) 0.5157(3)
C1 C 0.97939(16) 0.9695(3) 0.6092(3)
C2 C 0.9707(2) 0.8907(4) 0.5871(5)
H2 H 0.9957 0.8542 0.5901
C3 C 0.9252(2) 0.8643(3) 0.5604(5)
H3 H 0.9199 0.8104 0.5466
C4 C 0.88796(16) 0.9176(3) 0.5543(3)
C5 C 0.89696(18) 0.9966(3) 0.5737(4)
C15 C 0.83888(17) 0.8864(3) 0.5252(3)
Zn6 Zn 0.788564(17) 0.75270(3) 0.42505(4)
N1_2 N 0.13813(14) 0.5833(2) 0.8658(3)
H4_2 H 0.1278 0.0335 0.9315
C6_2 C 0.05768(18) 0.0225(3) 0.8990(4)
H5_2 H 0.0524 0.0766 0.8861
C17_2 C 0.09592(19) 0.6191(4) 0.8685(5)
H9_2 H 0.0945 0.6749 0.8683
C18_2 C 0.0542(2) 0.5759(4) 0.8716(5)
H10_2 H 0.0252 0.6027 0.8727
C19_2 C 0.0553(2) 0.4937(3) 0.8729(4)
C20_2 C 0.0988(2) 0.4569(4) 0.8717(5)
H11_2 H 0.1010 0.4012 0.8723
C21_2 C 0.1394(2) 0.5034(3) 0.8695(4)
H12_2 H 0.1688 0.4779 0.8706
C27_2 C 0.0125(2) 0.4427(4) 0.8747(5)
H17_2 H 0.0173 0.3875 0.8768
Zn6_2 Zn 0.211436(17) 0.75270(3) 0.07495(4)
O5_2 O 0.16355(11) 0.8112(2) 0.9866(3)
O6_2 O 0.19503(12) 0.9338(2) 0.9843(3)
C1_2 C 0.02061(16) 0.9695(3) 0.8908(3)
C2_2 C 0.0293(2) 0.8907(4) 0.9129(5)
H2_2 H 0.0043 0.8542 0.9099
C3_2 C 0.0748(2) 0.8643(3) 0.9396(5)
H3_2 H 0.0801 0.8104 0.9534
C4_2 C 0.11204(16) 0.9176(3) 0.9457(3)
C5_2 C 0.10304(18) 0.9966(3) 0.9263(4)
C15_2 C 0.16112(17) 0.8864(3) 0.9748(3)
Zn7_2 Zn 0.711436(17) 0.25270(3) 0.07495(4)
O11_2 O 0.83645(11) 0.1888(2) 0.0134(3)
O12_2 O 0.76709(10) 0.32551(17) 0.0270(2)
Zn1_2 Zn 0.698419(18) 0.14792(3) 0.85902(4)
Zn2_2 Zn 0.788564(17) 0.24730(3) 0.92505(4)
O1_2 O 0.74142(12) 0.0785(2) 0.7952(3)
O2_2 O 0.80575(11) 0.15504(19) 0.8237(2)
O7_2 O 0.96228(12) 0.0706(2) 0.8528(3)
N2_2 N 0.84505(14) 0.3202(2) 0.8845(3)
C8_2 C 0.86442(17) 0.0177(3) 0.8185(3)
H6_2 H 0.8786 0.0647 0.8409
C9_2 C 0.81627(16) 0.0167(3) 0.7900(3)
C13_2 C 0.78630(16) 0.0894(3) 0.8044(3)
C22_2 C 0.8874(2) 0.2876(4) 0.8718(5)
H13_2 H 0.8895 0.2321 0.8665
C23_2 C 0.9281(2) 0.3325(4) 0.8663(5)
H14_2 H 0.9569 0.3073 0.8575
C24_2 C 0.92609(19) 0.4161(3) 0.8740(4)
C25_2 C 0.8817(2) 0.4493(3) 0.8828(4)
H15_2 H 0.8781 0.5047 0.8854
C26_2 C 0.84298(19) 0.3998(3) 0.8878(4)
H16_2 H 0.8134 0.4235 0.8937
C28_2 C 0.9680(2) 0.4679(4) 0.8737(4)
H18_2 H 0.9629 0.5231 0.8726
O8_2 O 0.73291(10) 0.17449(17) 0.9730(2)
O9_2 O 0.67581(12) 0.24023(18) 0.7872(3)
O10_2 O 0.74227(11) 0.30793(19) 0.8258(2)
N4_2 N 0.63813(14) 0.0833(2) 0.8658(3)
O3_2 O 0.82419(12) 0.74023(18) 0.7128(3)
O4_2 O 0.75773(11) 0.80793(19) 0.6742(2)
N3_2 N 0.93954(15) 0.9413(3) 0.8420(3)
H1_2 H 0.9500 0.8930 0.8487
C7_2 C 0.89082(17) 0.9477(3) 0.8131(4)
C10_2 C 0.79520(16) 0.9481(3) 0.7553(3)
H7_2 H 0.7632 0.9487 0.7359
C11_2 C 0.82123(16) 0.8776(3) 0.7489(3)
C12_2 C 0.86921(17) 0.8785(3) 0.7789(4)
H8_2 H 0.8870 0.8316 0.7759
C14_2 C 0.79892(16) 0.8039(3) 0.7087(3)
C16_2 C 0.97176(16) 0.9991(3) 0.8604(3)
Zn5_2 Zn 0.711436(17) 0.74730(3) 0.57495(4)
C17_3 C 0.40408(19) 0.1191(4) 0.6315(5)
H9_3 H 0.4055 0.1749 0.6317
C18_3 C 0.4458(2) 0.0759(4) 0.6284(5)
H10_3 H 0.4748 0.1027 0.6273
C21_3 C 0.3606(2) 0.0034(3) 0.6305(4)
H15_3 H 0.6219 0.0047 0.6146
H18_3 H 0.5371 0.0231 0.6274
O1_3 O 0.75858(12) 0.5785(2) 0.7048(3)
O2_3 O 0.69425(11) 0.65504(19) 0.6763(2)
O5_3 O 0.33645(11) 0.3112(2) 0.5134(3)
O6_3 O 0.30497(12) 0.4338(2) 0.5157(3)
O7_3 O 0.53772(12) 0.5706(2) 0.6472(3)
N2_3 N 0.65495(14) 0.8202(2) 0.6155(3)
N3_3 N 0.56046(15) 0.4413(3) 0.6580(3)
H1_3 H 0.5500 0.3930 0.6513
C1_3 C 0.47939(16) 0.4695(3) 0.6092(3)
C2_3 C 0.4707(2) 0.3907(4) 0.5871(5)
H2_3 H 0.4957 0.3542 0.5901
C3_3 C 0.4252(2) 0.3643(3) 0.5604(5)
H3_3 H 0.4199 0.3104 0.5466
C4_3 C 0.38796(16) 0.4176(3) 0.5543(3)
C5_3 C 0.39696(18) 0.4966(3) 0.5737(4)
H4_3 H 0.3722 0.5335 0.5685
C6_3 C 0.44232(18) 0.5225(3) 0.6010(4)
H5_3 H 0.4476 0.5766 0.6139
C7_3 C 0.60918(17) 0.4477(3) 0.6869(4)
C8_3 C 0.63558(17) 0.5177(3) 0.6815(3)
H6_3 H 0.6214 0.5647 0.6591
C9_3 C 0.68373(16) 0.5167(3) 0.7100(3)
C10_3 C 0.70480(16) 0.4481(3) 0.7447(3)
H7_3 H 0.7368 0.4487 0.7641
C11_3 C 0.67877(16) 0.3776(3) 0.7511(3)
C12_3 C 0.63079(17) 0.3785(3) 0.7211(4)
H8_3 H 0.6130 0.3316 0.7241
C13_3 C 0.71370(16) 0.5894(3) 0.6956(3)
C14_3 C 0.70108(16) 0.3039(3) 0.7913(3)
C15_3 C 0.33888(17) 0.3864(3) 0.5252(3)
C16_3 C 0.52824(16) 0.4991(3) 0.6396(3)
C19_3 C 0.4447(2) 0.9937(3) 0.6271(4)
C20_3 C 0.4012(2) 0.9569(4) 0.6283(5)
H11_3 H 0.3990 0.9012 0.6277
H12_3 H 0.3312 0.9779 0.6294
C22_3 C 0.6126(2) 0.7876(4) 0.6282(5)
H13_3 H 0.6105 0.7321 0.6335
C23_3 C 0.5719(2) 0.8325(4) 0.6337(5)
H14_3 H 0.5431 0.8073 0.6425
C24_3 C 0.57391(19) 0.9161(3) 0.6260(4)
C25_3 C 0.6183(2) 0.9493(3) 0.6172(4)
C26_3 C 0.65702(19) 0.8998(3) 0.6122(4)
H16_3 H 0.6866 0.9235 0.6063
C27_3 C 0.4875(2) 0.9427(4) 0.6253(5)
H17_3 H 0.4827 0.8875 0.6232
C28_3 C 0.5320(2) 0.9679(4) 0.6263(4)
O8_3 O 0.76709(10) 0.67449(17) 0.5270(2)
O11_3 O 0.66355(11) 0.6888(2) 0.4866(3)
O12_3 O 0.73291(10) 0.82551(17) 0.4730(2)
C17_4 C 0.59592(19) 0.1191(4) 0.8685(5)
H9_4 H 0.5945 0.1749 0.8683
C18_4 C 0.5542(2) 0.0759(4) 0.8716(5)
H10_4 H 0.5252 0.1027 0.8727
C21_4 C 0.6394(2) 0.0034(3) 0.8695(4)
H15_4 H 0.3781 0.0047 0.8854
H18_4 H 0.4629 0.0231 0.8726
O11_4 O 0.33645(11) 0.6888(2) 0.0134(3)
O12_4 O 0.26709(10) 0.82551(17) 0.0270(2)
O1_4 O 0.24142(12) 0.5785(2) 0.7952(3)
O2_4 O 0.30575(11) 0.65504(19) 0.8237(2)
O5_4 O 0.66355(11) 0.3112(2) 0.9866(3)
O6_4 O 0.69503(12) 0.4338(2) 0.9843(3)
O7_4 O 0.46228(12) 0.5706(2) 0.8528(3)
N2_4 N 0.34505(14) 0.8202(2) 0.8845(3)
N3_4 N 0.43954(15) 0.4413(3) 0.8420(3)
H1_4 H 0.4500 0.3930 0.8487
C1_4 C 0.52061(16) 0.4695(3) 0.8908(3)
C2_4 C 0.5293(2) 0.3907(4) 0.9129(5)
H2_4 H 0.5043 0.3542 0.9099
C3_4 C 0.5748(2) 0.3643(3) 0.9396(5)
H3_4 H 0.5801 0.3104 0.9534
C4_4 C 0.61204(16) 0.4176(3) 0.9457(3)
C5_4 C 0.60304(18) 0.4966(3) 0.9263(4)
H4_4 H 0.6278 0.5335 0.9315
C6_4 C 0.55768(18) 0.5225(3) 0.8990(4)
H5_4 H 0.5524 0.5766 0.8861
C7_4 C 0.39082(17) 0.4477(3) 0.8131(4)
C8_4 C 0.36442(17) 0.5177(3) 0.8185(3)
H6_4 H 0.3786 0.5647 0.8409
C9_4 C 0.31627(16) 0.5167(3) 0.7900(3)
C10_4 C 0.29520(16) 0.4481(3) 0.7553(3)
H7_4 H 0.2632 0.4487 0.7359
C11_4 C 0.32123(16) 0.3776(3) 0.7489(3)
C12_4 C 0.36921(17) 0.3785(3) 0.7789(4)
H8_4 H 0.3870 0.3316 0.7759
C13_4 C 0.28630(16) 0.5894(3) 0.8044(3)
C14_4 C 0.29892(16) 0.3039(3) 0.7087(3)
C15_4 C 0.66112(17) 0.3864(3) 0.9748(3)
C16_4 C 0.47176(16) 0.4991(3) 0.8604(3)
C19_4 C 0.5553(2) 0.9937(3) 0.8729(4)
C20_4 C 0.5988(2) 0.9569(4) 0.8717(5)
H11_4 H 0.6010 0.9012 0.8723
H12_4 H 0.6688 0.9779 0.8706
C22_4 C 0.3874(2) 0.7876(4) 0.8718(5)
H13_4 H 0.3895 0.7321 0.8665
C23_4 C 0.4281(2) 0.8325(4) 0.8663(5)
H14_4 H 0.4569 0.8073 0.8575
C24_4 C 0.42609(19) 0.9161(3) 0.8740(4)
C25_4 C 0.3817(2) 0.9493(3) 0.8828(4)
C26_4 C 0.34298(19) 0.8998(3) 0.8878(4)
H16_4 H 0.3134 0.9235 0.8937
C27_4 C 0.5125(2) 0.9427(4) 0.8747(5)
H17_4 H 0.5173 0.8875 0.8768
C28_4 C 0.4680(2) 0.9679(4) 0.8737(4)
O8_4 O 0.23291(10) 0.67449(17) 0.9730(2)
O6_5 O 0.19503(12) 0.0662(2) 0.4843(3)
C1_5 C 0.02061(16) 0.0305(3) 0.3908(3)
C2_5 C 0.0293(2) 0.1093(4) 0.4129(5)
H2_5 H 0.0043 0.1458 0.4099
C3_5 C 0.0748(2) 0.1357(3) 0.4396(5)
H3_5 H 0.0801 0.1896 0.4534
C4_5 C 0.11204(16) 0.0824(3) 0.4457(3)
C5_5 C 0.10304(18) 0.0034(3) 0.4263(4)
C15_5 C 0.16112(17) 0.1136(3) 0.4748(3)
N1_3 N 0.13813(14) 0.4167(2) 0.3658(3)
H4_5 H 0.1278 0.9665 0.4315
C6_5 C 0.05768(18) 0.9775(3) 0.3990(4)
H5_5 H 0.0524 0.9234 0.3861
C17_5 C 0.09592(19) 0.3809(4) 0.3685(5)
H9_5 H 0.0945 0.3251 0.3683
C18_5 C 0.0542(2) 0.4241(4) 0.3716(5)
H10_5 H 0.0252 0.3973 0.3727
C19_5 C 0.0553(2) 0.5063(3) 0.3729(4)
C20_5 C 0.0988(2) 0.5431(4) 0.3717(5)
H11_5 H 0.1010 0.5988 0.3723
C21_5 C 0.1394(2) 0.4966(3) 0.3695(4)
H12_5 H 0.1688 0.5221 0.3706
C27_5 C 0.0125(2) 0.5573(4) 0.3747(5)
H17_5 H 0.0173 0.6125 0.3768
Zn3_2 Zn 0.198419(18) 0.35208(3) 0.35902(4)
O3_3 O 0.82419(12) 0.25977(18) 0.2128(3)
O4_3 O 0.75773(11) 0.19207(19) 0.1742(2)
N3_5 N 0.93954(15) 0.0587(3) 0.3420(3)
H1_5 H 0.9500 0.1070 0.3487
C7_5 C 0.89082(17) 0.0523(3) 0.3131(4)
C10_5 C 0.79520(16) 0.0519(3) 0.2553(3)
H7_5 H 0.7632 0.0513 0.2359
C11_5 C 0.82123(16) 0.1224(3) 0.2489(3)
C12_5 C 0.86921(17) 0.1215(3) 0.2789(4)
H8_5 H 0.8870 0.1684 0.2759
C14_5 C 0.79892(16) 0.1961(3) 0.2087(3)
C16_5 C 0.97176(16) 0.0009(3) 0.3604(3)
Zn4_2 Zn 0.801581(18) 0.35208(3) 0.14098(4)
Zn1_3 Zn 0.698419(18) 0.85208(3) 0.35902(4)
O1_5 O 0.74142(12) 0.9215(2) 0.2952(3)
O2_5 O 0.80575(11) 0.84496(19) 0.3237(2)
O7_5 O 0.96228(12) 0.9294(2) 0.3528(3)
N2_5 N 0.84505(14) 0.6798(2) 0.3845(3)
C8_5 C 0.86442(17) 0.9823(3) 0.3185(3)
H6_5 H 0.8786 0.9353 0.3409
C9_5 C 0.81627(16) 0.9833(3) 0.2900(3)
C13_5 C 0.78630(16) 0.9106(3) 0.3044(3)
C22_5 C 0.8874(2) 0.7124(4) 0.3718(5)
H13_5 H 0.8895 0.7679 0.3665
C23_5 C 0.9281(2) 0.6675(4) 0.3663(5)
H14_5 H 0.9569 0.6927 0.3575
C24_5 C 0.92609(19) 0.5839(3) 0.3740(4)
C25_5 C 0.8817(2) 0.5507(3) 0.3828(4)
H15_5 H 0.8781 0.4953 0.3854
C26_5 C 0.84298(19) 0.6002(3) 0.3878(4)
H16_5 H 0.8134 0.5765 0.3937
C28_5 C 0.9680(2) 0.5321(4) 0.3737(4)
H18_5 H 0.9629 0.4769 0.3726
O9_3 O 0.67581(12) 0.75977(18) 0.2872(3)
O10_3 O 0.74227(11) 0.69207(19) 0.3258(2)
N4_3 N 0.63813(14) 0.9167(2) 0.3658(3)
O3_4 O 0.17581(12) 0.25977(18) 0.2872(3)
O4_4 O 0.24227(11) 0.19207(19) 0.3258(2)
N3_6 N 0.06046(15) 0.0587(3) 0.1580(3)
H1_6 H 0.0500 0.1070 0.1513
C7_6 C 0.10918(17) 0.0523(3) 0.1869(4)
C10_6 C 0.20480(16) 0.0519(3) 0.2447(3)
H7_6 H 0.2368 0.0513 0.2641
C11_6 C 0.17877(16) 0.1224(3) 0.2511(3)
C12_6 C 0.13079(17) 0.1215(3) 0.2211(4)
H8_6 H 0.1130 0.1684 0.2241
C14_6 C 0.20108(16) 0.1961(3) 0.2913(3)
C16_6 C 0.02824(16) 0.0009(3) 0.1396(3)
Zn1_4 Zn 0.301581(18) 0.85208(3) 0.14098(4)
O1_6 O 0.25858(12) 0.9215(2) 0.2048(3)
O2_6 O 0.19425(11) 0.84496(19) 0.1763(2)
O7_6 O 0.03772(12) 0.9294(2) 0.1472(3)
N2_6 N 0.15495(14) 0.6798(2) 0.1155(3)
C8_6 C 0.13558(17) 0.9823(3) 0.1815(3)
H6_6 H 0.1214 0.9353 0.1591
C9_6 C 0.18373(16) 0.9833(3) 0.2100(3)
C13_6 C 0.21370(16) 0.9106(3) 0.1956(3)
C22_6 C 0.1126(2) 0.7124(4) 0.1282(5)
H13_6 H 0.1105 0.7679 0.1335
C23_6 C 0.0719(2) 0.6675(4) 0.1337(5)
H14_6 H 0.0431 0.6927 0.1425
C24_6 C 0.07391(19) 0.5839(3) 0.1260(4)
C25_6 C 0.1183(2) 0.5507(3) 0.1172(4)
H15_6 H 0.1219 0.4953 0.1146
C26_6 C 0.15702(19) 0.6002(3) 0.1122(4)
H16_6 H 0.1866 0.5765 0.1063
C28_6 C 0.0320(2) 0.5321(4) 0.1263(4)
H18_6 H 0.0371 0.4769 0.1274
O9_4 O 0.32419(12) 0.75977(18) 0.2128(3)
O10_4 O 0.25773(11) 0.69207(19) 0.1742(2)
N4_4 N 0.36187(14) 0.9167(2) 0.1342(3)
O6_6 O 0.80497(12) 0.0662(2) 0.0157(3)
C1_6 C 0.97939(16) 0.0305(3) 0.1092(3)
C2_6 C 0.9707(2) 0.1093(4) 0.0871(5)
H2_6 H 0.9957 0.1458 0.0901
C3_6 C 0.9252(2) 0.1357(3) 0.0604(5)
H3_6 H 0.9199 0.1896 0.0466
C4_6 C 0.88796(16) 0.0824(3) 0.0543(3)
C5_6 C 0.89696(18) 0.0034(3) 0.0737(4)
C15_6 C 0.83888(17) 0.1136(3) 0.0252(3)
N1_4 N 0.86187(14) 0.4167(2) 0.1342(3)
H4_6 H 0.8722 0.9665 0.0685
C6_6 C 0.94232(18) 0.9775(3) 0.1010(4)
H5_6 H 0.9476 0.9234 0.1139
C17_6 C 0.90408(19) 0.3809(4) 0.1315(5)
H9_6 H 0.9055 0.3251 0.1317
C18_6 C 0.9458(2) 0.4241(4) 0.1284(5)
H10_6 H 0.9748 0.3973 0.1273
C19_6 C 0.9447(2) 0.5063(3) 0.1271(4)
C20_6 C 0.9012(2) 0.5431(4) 0.1283(5)
H11_6 H 0.8990 0.5988 0.1277
C21_6 C 0.8606(2) 0.4966(3) 0.1305(4)
H12_6 H 0.8312 0.5221 0.1294
C27_6 C 0.9875(2) 0.5573(4) 0.1253(5)
H17_6 H 0.9827 0.6125 0.1232
O1_7 O 0.24142(12) 0.4215(2) 0.2952(3)
O2_7 O 0.30575(11) 0.34496(19) 0.3237(2)
O6_7 O 0.69503(12) 0.5662(2) 0.4843(3)
O7_7 O 0.46228(12) 0.4294(2) 0.3528(3)
N2_7 N 0.34505(14) 0.1798(2) 0.3845(3)
N3_7 N 0.43954(15) 0.5587(3) 0.3420(3)
H1_7 H 0.4500 0.6070 0.3487
C1_7 C 0.52061(16) 0.5305(3) 0.3908(3)
C2_7 C 0.5293(2) 0.6093(4) 0.4129(5)
H2_7 H 0.5043 0.6458 0.4099
C3_7 C 0.5748(2) 0.6357(3) 0.4396(5)
H3_7 H 0.5801 0.6896 0.4534
C4_7 C 0.61204(16) 0.5824(3) 0.4457(3)
C5_7 C 0.60304(18) 0.5034(3) 0.4263(4)
H4_7 H 0.6278 0.4665 0.4315
C6_7 C 0.55768(18) 0.4775(3) 0.3990(4)
H5_7 H 0.5524 0.4234 0.3861
C7_7 C 0.39082(17) 0.5523(3) 0.3131(4)
C8_7 C 0.36442(17) 0.4823(3) 0.3185(3)
H6_7 H 0.3786 0.4353 0.3409
C9_7 C 0.31627(16) 0.4833(3) 0.2900(3)
C10_7 C 0.29520(16) 0.5519(3) 0.2553(3)
H7_7 H 0.2632 0.5513 0.2359
C11_7 C 0.32123(16) 0.6224(3) 0.2489(3)
C12_7 C 0.36921(17) 0.6215(3) 0.2789(4)
H8_7 H 0.3870 0.6684 0.2759
C13_7 C 0.28630(16) 0.4106(3) 0.3044(3)
C14_7 C 0.29892(16) 0.6961(3) 0.2087(3)
C15_7 C 0.66112(17) 0.6136(3) 0.4748(3)
C16_7 C 0.47176(16) 0.5009(3) 0.3604(3)
C19_7 C 0.5553(2) 0.0063(3) 0.3729(4)
C20_7 C 0.5988(2) 0.0431(4) 0.3717(5)
H11_7 H 0.6010 0.0988 0.3723
H12_7 H 0.6688 0.0221 0.3706
C22_7 C 0.3874(2) 0.2124(4) 0.3718(5)
H13_7 H 0.3895 0.2679 0.3665
C23_7 C 0.4281(2) 0.1675(4) 0.3663(5)
H14_7 H 0.4569 0.1927 0.3575
C24_7 C 0.42609(19) 0.0839(3) 0.3740(4)
C25_7 C 0.3817(2) 0.0507(3) 0.3828(4)
C26_7 C 0.34298(19) 0.1002(3) 0.3878(4)
H16_7 H 0.3134 0.0765 0.3937
C27_7 C 0.5125(2) 0.0573(4) 0.3747(5)
H17_7 H 0.5173 0.1125 0.3768
C28_7 C 0.4680(2) 0.0321(4) 0.3737(4)
C17_7 C 0.59592(19) 0.8809(4) 0.3685(5)
H9_7 H 0.5945 0.8251 0.3683
C18_7 C 0.5542(2) 0.9241(4) 0.3716(5)
H10_7 H 0.5252 0.8973 0.3727
C21_7 C 0.6394(2) 0.9966(3) 0.3695(4)
H15_7 H 0.3781 0.9953 0.3854
H18_7 H 0.4629 0.9769 0.3726
O1_8 O 0.75858(12) 0.4215(2) 0.2048(3)
O2_8 O 0.69425(11) 0.34496(19) 0.1763(2)
O6_8 O 0.30497(12) 0.5662(2) 0.0157(3)
O7_8 O 0.53772(12) 0.4294(2) 0.1472(3)
N2_8 N 0.65495(14) 0.1798(2) 0.1155(3)
N3_8 N 0.56046(15) 0.5587(3) 0.1580(3)
H1_8 H 0.5500 0.6070 0.1513
C1_8 C 0.47939(16) 0.5305(3) 0.1092(3)
C2_8 C 0.4707(2) 0.6093(4) 0.0871(5)
H2_8 H 0.4957 0.6458 0.0901
C3_8 C 0.4252(2) 0.6357(3) 0.0604(5)
H3_8 H 0.4199 0.6896 0.0466
C4_8 C 0.38796(16) 0.5824(3) 0.0543(3)
C5_8 C 0.39696(18) 0.5034(3) 0.0737(4)
H4_8 H 0.3722 0.4665 0.0685
C6_8 C 0.44232(18) 0.4775(3) 0.1010(4)
H5_8 H 0.4476 0.4234 0.1139
C7_8 C 0.60918(17) 0.5523(3) 0.1869(4)
C8_8 C 0.63558(17) 0.4823(3) 0.1815(3)
H6_8 H 0.6214 0.4353 0.1591
C9_8 C 0.68373(16) 0.4833(3) 0.2100(3)
C10_8 C 0.70480(16) 0.5519(3) 0.2447(3)
H7_8 H 0.7368 0.5513 0.2641
C11_8 C 0.67877(16) 0.6224(3) 0.2511(3)
C12_8 C 0.63079(17) 0.6215(3) 0.2211(4)
H8_8 H 0.6130 0.6684 0.2241
C13_8 C 0.71370(16) 0.4106(3) 0.1956(3)
C14_8 C 0.70108(16) 0.6961(3) 0.2913(3)
C15_8 C 0.33888(17) 0.6136(3) 0.0252(3)
C16_8 C 0.52824(16) 0.5009(3) 0.1396(3)
C19_8 C 0.4447(2) 0.0063(3) 0.1271(4)
C20_8 C 0.4012(2) 0.0431(4) 0.1283(5)
H11_8 H 0.3990 0.0988 0.1277
H12_8 H 0.3312 0.0221 0.1294
C22_8 C 0.6126(2) 0.2124(4) 0.1282(5)
H13_8 H 0.6105 0.2679 0.1335
C23_8 C 0.5719(2) 0.1675(4) 0.1337(5)
H14_8 H 0.5431 0.1927 0.1425
C24_8 C 0.57391(19) 0.0839(3) 0.1260(4)
C25_8 C 0.6183(2) 0.0507(3) 0.1172(4)
C26_8 C 0.65702(19) 0.1002(3) 0.1122(4)
H16_8 H 0.6866 0.0765 0.1063
C27_8 C 0.4875(2) 0.0573(4) 0.1253(5)
H17_8 H 0.4827 0.1125 0.1232
C28_8 C 0.5320(2) 0.0321(4) 0.1263(4)
C17_8 C 0.40408(19) 0.8809(4) 0.1315(5)
H9_8 H 0.4055 0.8251 0.1317
C18_8 C 0.4458(2) 0.9241(4) 0.1284(5)
H10_8 H 0.4748 0.8973 0.1273
C21_8 C 0.3606(2) 0.9966(3) 0.1305(4)
H15_8 H 0.6219 0.9953 0.1146
H18_8 H 0.5371 0.9769 0.1274
loop_
_geom_bond_atom_site_label_1
_geom_bond_atom_site_label_2
_geom_bond_site_symmetry_1
_geom_bond_site_symmetry_2
Zn1 O1 1_555 1_555
Zn2 O2 1_555 1_555
O1 C13 1_555 1_555
O2 C13 1_555 1_555
N2 Zn2 1_555 1_555
H6 C8 1_555 1_555
C9 C8 1_555 1_555
C13 C9 1_555 1_555
C22 N2 1_555 1_555
H13 C22 1_555 1_555
C23 C22 1_555 1_555
H14 C23 1_555 1_555
C24 C23 1_555 1_555
C25 C24 1_555 1_555
H15 C25 1_555 1_555
C26 N2 1_555 1_555
H16 C26 1_555 1_555
C28 C24 1_555 1_555
H18 C28 1_555 1_555
O8 Zn1 1_555 1_555
Zn7 O8 1_555 1_555
O9 Zn1 1_555 1_555
O10 Zn2 1_555 1_555
O11 Zn2 1_555 1_555
N4 Zn1 1_555 1_555
O12 Zn2 1_555 1_555
Zn2 O8 1_555 1_555
C25 C26 1_555 1_555
Zn7 O12 1_555 1_555
O3 C14 1_555 1_555
O4 C14 1_555 1_555
N3 H1 1_555 1_555
C7 N3 1_555 1_555
H7 C10 1_555 1_555
C11 C10 1_555 1_555
C12 C7 1_555 1_555
H8 C12 1_555 1_555
C14 C11 1_555 1_555
C16 N3 1_555 1_555
Zn4 O3 1_555 1_555
Zn5 O4 1_555 1_555
C11 C12 1_555 1_555
N1 C17 1_555 1_555
H5 C6 1_555 1_555
C17 H9 1_555 1_555
C18 C17 1_555 1_555
H10 C18 1_555 1_555
C19 C18 1_555 1_555
C20 C19 1_555 1_555
H11 C20 1_555 1_555
C21 N1 1_555 1_555
H12 C21 1_555 1_555
C27 C19 1_555 1_555
H17 C27 1_555 1_555
Zn3 N1 1_555 1_555
C20 C21 1_555 1_555
O5 C15 1_555 1_555
O6 C15 1_555 1_555
C1 C2 1_555 1_555
C2 H2 1_555 1_555
C3 C2 1_555 1_555
H3 C3 1_555 1_555
C4 C3 1_555 1_555
C5 C4 1_555 1_555
C15 C4 1_555 1_555
Zn6 O5 1_555 1_555
N1_2 C17_2 1_555 1_555
H5_2 C6_2 1_555 1_555
C17_2 H9_2 1_555 1_555
C18_2 C17_2 1_555 1_555
H10_2 C18_2 1_555 1_555
C19_2 C18_2 1_555 1_555
C20_2 C19_2 1_555 1_555
H11_2 C20_2 1_555 1_555
C21_2 N1_2 1_555 1_555
H12_2 C21_2 1_555 1_555
C27_2 C19_2 1_555 1_555
H17_2 C27_2 1_555 1_555
Zn4 N1_2 1_555 1_555
C20_2 C21_2 1_555 1_555
O5_2 C15_2 1_555 1_555
O6_2 C15_2 1_555 1_555
C1_2 C2_2 1_555 1_555
C2_2 H2_2 1_555 1_555
C3_2 C2_2 1_555 1_555
H3_2 C3_2 1_555 1_555
C4_2 C3_2 1_555 1_555
C5_2 C4_2 1_555 1_555
C15_2 C4_2 1_555 1_555
Zn7_2 O12_2 1_555 1_555
Zn1_2 O1_2 1_555 1_555
Zn2_2 O2_2 1_555 1_555
O1_2 C13_2 1_555 1_555
O2_2 C13_2 1_555 1_555
N2_2 Zn2_2 1_555 1_555
H6_2 C8_2 1_555 1_555
C9_2 C8_2 1_555 1_555
C13_2 C9_2 1_555 1_555
C22_2 N2_2 1_555 1_555
H13_2 C22_2 1_555 1_555
C23_2 C22_2 1_555 1_555
H14_2 C23_2 1_555 1_555
C24_2 C23_2 1_555 1_555
C25_2 C24_2 1_555 1_555
H15_2 C25_2 1_555 1_555
C26_2 N2_2 1_555 1_555
H16_2 C26_2 1_555 1_555
C28_2 C24_2 1_555 1_555
H18_2 C28_2 1_555 1_555
O8_2 Zn1_2 1_555 1_555
O9_2 Zn1_2 1_555 1_555
O10_2 Zn2_2 1_555 1_555
N4_2 Zn1_2 1_555 1_555
Zn2_2 O8_2 1_555 1_555
C25_2 C26_2 1_555 1_555
O3_2 C14_2 1_555 1_555
O4_2 C14_2 1_555 1_555
N3_2 H1_2 1_555 1_555
C7_2 N3_2 1_555 1_555
H7_2 C10_2 1_555 1_555
C11_2 C10_2 1_555 1_555
C12_2 C7_2 1_555 1_555
H8_2 C12_2 1_555 1_555
C14_2 C11_2 1_555 1_555
C16_2 N3_2 1_555 1_555
Zn3 O3_2 1_555 1_555
Zn5_2 O4_2 1_555 1_555
C11_2 C12_2 1_555 1_555
N4 C17_3 1_555 1_555
C17_3 H9_3 1_555 1_555
C18_3 C17_3 1_555 1_555
H10_3 C18_3 1_555 1_555
C21_3 N4 1_555 1_555
Zn3 O1_3 1_555 1_555
Zn5_2 O2_3 1_555 1_555
O1_3 C13_3 1_555 1_555
O2_3 C13_3 1_555 1_555
O9_2 C14_3 1_555 1_555
O10_2 C14_3 1_555 1_555
O5_3 C15_3 1_555 1_555
O6_3 C15_3 1_555 1_555
O7_3 C16_3 1_555 1_555
N2_3 Zn5_2 1_555 1_555
N3_3 H1_3 1_555 1_555
C1_3 C2_3 1_555 1_555
C2_3 H2_3 1_555 1_555
C3_3 C2_3 1_555 1_555
H3_3 C3_3 1_555 1_555
C4_3 C3_3 1_555 1_555
C5_3 C4_3 1_555 1_555
H4_3 C5_3 1_555 1_555
C6_3 C1_3 1_555 1_555
H5_3 C6_3 1_555 1_555
C7_3 N3_3 1_555 1_555
C8_3 C7_3 1_555 1_555
H6_3 C8_3 1_555 1_555
C9_3 C8_3 1_555 1_555
C10_3 C9_3 1_555 1_555
H7_3 C10_3 1_555 1_555
C11_3 C10_3 1_555 1_555
C12_3 C7_3 1_555 1_555
H8_3 C12_3 1_555 1_555
C13_3 C9_3 1_555 1_555
C14_3 C11_3 1_555 1_555
C15_3 C4_3 1_555 1_555
C16_3 N3_3 1_555 1_555
C20_3 C19_3 1_555 1_555
H11_3 C20_3 1_555 1_555
C22_3 N2_3 1_555 1_555
H13_3 C22_3 1_555 1_555
C23_3 C22_3 1_555 1_555
H14_3 C23_3 1_555 1_555
C24_3 C23_3 1_555 1_555
C25_3 C24_3 1_555 1_555
C26_3 N2_3 1_555 1_555
H16_3 C26_3 1_555 1_555
C27_3 C19_3 1_555 1_555
H17_3 C27_3 1_555 1_555
C28_3 C24_3 1_555 1_555
O8_3 Zn3 1_555 1_555
Zn7 O5_3 1_555 1_555
Zn6 O8_3 1_555 1_555
O11_3 Zn5_2 1_555 1_555
O12_3 Zn5_2 1_555 1_555
Zn5_2 O8_3 1_555 1_555
C1_3 C16_3 1_555 1_555
C5_3 C6_3 1_555 1_555
C11_3 C12_3 1_555 1_555
C25_3 C26_3 1_555 1_555
C27_3 C28_3 1_555 1_555
Zn6 O12_3 1_555 1_555
N4_2 C17_4 1_555 1_555
C17_4 H9_4 1_555 1_555
C18_4 C17_4 1_555 1_555
H10_4 C18_4 1_555 1_555
C21_4 N4_2 1_555 1_555
Zn6_2 O12_4 1_555 1_555
Zn4 O1_4 1_555 1_555
Zn5 O2_4 1_555 1_555
O1_4 C13_4 1_555 1_555
O2_4 C13_4 1_555 1_555
O9 C14_4 1_555 1_555
O10 C14_4 1_555 1_555
O5_4 C15_4 1_555 1_555
O6_4 C15_4 1_555 1_555
O7_4 C16_4 1_555 1_555
N2_4 Zn5 1_555 1_555
N3_4 H1_4 1_555 1_555
C1_4 C2_4 1_555 1_555
C2_4 H2_4 1_555 1_555
C3_4 C2_4 1_555 1_555
H3_4 C3_4 1_555 1_555
C4_4 C3_4 1_555 1_555
C5_4 C4_4 1_555 1_555
H4_4 C5_4 1_555 1_555
C6_4 C1_4 1_555 1_555
H5_4 C6_4 1_555 1_555
C7_4 N3_4 1_555 1_555
C8_4 C7_4 1_555 1_555
H6_4 C8_4 1_555 1_555
C9_4 C8_4 1_555 1_555
C10_4 C9_4 1_555 1_555
H7_4 C10_4 1_555 1_555
C11_4 C10_4 1_555 1_555
C12_4 C7_4 1_555 1_555
H8_4 C12_4 1_555 1_555
C13_4 C9_4 1_555 1_555
C14_4 C11_4 1_555 1_555
C15_4 C4_4 1_555 1_555
C16_4 N3_4 1_555 1_555
C20_4 C19_4 1_555 1_555
H11_4 C20_4 1_555 1_555
C22_4 N2_4 1_555 1_555
H13_4 C22_4 1_555 1_555
C23_4 C22_4 1_555 1_555
H14_4 C23_4 1_555 1_555
C24_4 C23_4 1_555 1_555
C25_4 C24_4 1_555 1_555
C26_4 N2_4 1_555 1_555
H16_4 C26_4 1_555 1_555
C27_4 C19_4 1_555 1_555
H17_4 C27_4 1_555 1_555
C28_4 C24_4 1_555 1_555
O8_4 Zn4 1_555 1_555
Zn5 O8_4 1_555 1_555
C1_4 C16_4 1_555 1_555
C5_4 C6_4 1_555 1_555
C11_4 C12_4 1_555 1_555
C25_4 C26_4 1_555 1_555
C27_4 C28_4 1_555 1_555
O11 C15_5 1_555 1_555
O6_5 C15_5 1_555 1_555
C1_5 C2_5 1_555 1_555
C2_5 H2_5 1_555 1_555
C3_5 C2_5 1_555 1_555
H3_5 C3_5 1_555 1_555
C4_5 C3_5 1_555 1_555
C5_5 C4_5 1_555 1_555
C15_5 C4_5 1_555 1_555
N1_3 C17_5 1_555 1_555
H5_5 C6_5 1_555 1_555
C17_5 H9_5 1_555 1_555
C18_5 C17_5 1_555 1_555
H10_5 C18_5 1_555 1_555
C19_5 C18_5 1_555 1_555
C20_5 C19_5 1_555 1_555
H11_5 C20_5 1_555 1_555
C21_5 N1_3 1_555 1_555
H12_5 C21_5 1_555 1_555
C27_5 C19_5 1_555 1_555
H17_5 C27_5 1_555 1_555
Zn3_2 N1_3 1_555 1_555
C20_5 C21_5 1_555 1_555
O3_3 C14_5 1_555 1_555
O4_3 C14_5 1_555 1_555
N3_5 H1_5 1_555 1_555
C7_5 N3_5 1_555 1_555
H7_5 C10_5 1_555 1_555
C11_5 C10_5 1_555 1_555
C12_5 C7_5 1_555 1_555
H8_5 C12_5 1_555 1_555
C14_5 C11_5 1_555 1_555
C16_5 N3_5 1_555 1_555
Zn4_2 O3_3 1_555 1_555
Zn7_2 O4_3 1_555 1_555
C11_5 C12_5 1_555 1_555
Zn1_3 O1_5 1_555 1_555
Zn6 O2_5 1_555 1_555
O1_5 C13_5 1_555 1_555
O2_5 C13_5 1_555 1_555
N2_5 Zn6 1_555 1_555
H6_5 C8_5 1_555 1_555
C9_5 C8_5 1_555 1_555
C13_5 C9_5 1_555 1_555
C22_5 N2_5 1_555 1_555
H13_5 C22_5 1_555 1_555
C23_5 C22_5 1_555 1_555
H14_5 C23_5 1_555 1_555
C24_5 C23_5 1_555 1_555
C25_5 C24_5 1_555 1_555
H15_5 C25_5 1_555 1_555
C26_5 N2_5 1_555 1_555
H16_5 C26_5 1_555 1_555
C28_5 C24_5 1_555 1_555
H18_5 C28_5 1_555 1_555
O12_3 Zn1_3 1_555 1_555
O9_3 Zn1_3 1_555 1_555
O10_3 Zn6 1_555 1_555
N4_3 Zn1_3 1_555 1_555
C25_5 C26_5 1_555 1_555
O3_4 C14_6 1_555 1_555
O4_4 C14_6 1_555 1_555
N3_6 H1_6 1_555 1_555
C7_6 N3_6 1_555 1_555
H7_6 C10_6 1_555 1_555
C11_6 C10_6 1_555 1_555
C12_6 C7_6 1_555 1_555
H8_6 C12_6 1_555 1_555
C14_6 C11_6 1_555 1_555
C16_6 N3_6 1_555 1_555
Zn3_2 O3_4 1_555 1_555
Zn7 O4_4 1_555 1_555
C11_6 C12_6 1_555 1_555
Zn1_4 O1_6 1_555 1_555
Zn6_2 O2_6 1_555 1_555
O1_6 C13_6 1_555 1_555
O2_6 C13_6 1_555 1_555
N2_6 Zn6_2 1_555 1_555
H6_6 C8_6 1_555 1_555
C9_6 C8_6 1_555 1_555
C13_6 C9_6 1_555 1_555
C22_6 N2_6 1_555 1_555
H13_6 C22_6 1_555 1_555
C23_6 C22_6 1_555 1_555
H14_6 C23_6 1_555 1_555
C24_6 C23_6 1_555 1_555
C25_6 C24_6 1_555 1_555
H15_6 C25_6 1_555 1_555
C26_6 N2_6 1_555 1_555
H16_6 C26_6 1_555 1_555
C28_6 C24_6 1_555 1_555
H18_6 C28_6 1_555 1_555
O12_4 Zn1_4 1_555 1_555
O9_4 Zn1_4 1_555 1_555
O10_4 Zn6_2 1_555 1_555
N4_4 Zn1_4 1_555 1_555
C25_6 C26_6 1_555 1_555
O11_2 C15_6 1_555 1_555
O6_6 C15_6 1_555 1_555
C1_6 C2_6 1_555 1_555
C2_6 H2_6 1_555 1_555
C3_6 C2_6 1_555 1_555
H3_6 C3_6 1_555 1_555
C4_6 C3_6 1_555 1_555
C5_6 C4_6 1_555 1_555
C15_6 C4_6 1_555 1_555
N1_4 C17_6 1_555 1_555
H5_6 C6_6 1_555 1_555
C17_6 H9_6 1_555 1_555
C18_6 C17_6 1_555 1_555
H10_6 C18_6 1_555 1_555
C19_6 C18_6 1_555 1_555
C20_6 C19_6 1_555 1_555
H11_6 C20_6 1_555 1_555
C21_6 N1_4 1_555 1_555
H12_6 C21_6 1_555 1_555
C27_6 C19_6 1_555 1_555
H17_6 C27_6 1_555 1_555
Zn4_2 N1_4 1_555 1_555
C20_6 C21_6 1_555 1_555
Zn3_2 O1_7 1_555 1_555
Zn7 O2_7 1_555 1_555
O1_7 C13_7 1_555 1_555
O2_7 C13_7 1_555 1_555
O9_4 C14_7 1_555 1_555
O10_4 C14_7 1_555 1_555
O11_3 C15_7 1_555 1_555
O6_7 C15_7 1_555 1_555
O7_7 C16_7 1_555 1_555
N2_7 Zn7 1_555 1_555
N3_7 H1_7 1_555 1_555
C1_7 C2_7 1_555 1_555
C2_7 H2_7 1_555 1_555
C3_7 C2_7 1_555 1_555
H3_7 C3_7 1_555 1_555
C4_7 C3_7 1_555 1_555
C5_7 C4_7 1_555 1_555
H4_7 C5_7 1_555 1_555
C6_7 C1_7 1_555 1_555
H5_7 C6_7 1_555 1_555
C7_7 N3_7 1_555 1_555
C8_7 C7_7 1_555 1_555
H6_7 C8_7 1_555 1_555
C9_7 C8_7 1_555 1_555
C10_7 C9_7 1_555 1_555
H7_7 C10_7 1_555 1_555
C11_7 C10_7 1_555 1_555
C12_7 C7_7 1_555 1_555
H8_7 C12_7 1_555 1_555
C13_7 C9_7 1_555 1_555
C14_7 C11_7 1_555 1_555
C15_7 C4_7 1_555 1_555
C16_7 N3_7 1_555 1_555
C20_7 C19_7 1_555 1_555
H11_7 C20_7 1_555 1_555
C22_7 N2_7 1_555 1_555
H13_7 C22_7 1_555 1_555
C23_7 C22_7 1_555 1_555
H14_7 C23_7 1_555 1_555
C24_7 C23_7 1_555 1_555
C25_7 C24_7 1_555 1_555
C26_7 N2_7 1_555 1_555
H16_7 C26_7 1_555 1_555
C27_7 C19_7 1_555 1_555
H17_7 C27_7 1_555 1_555
C28_7 C24_7 1_555 1_555
O12 Zn3_2 1_555 1_555
C1_7 C16_7 1_555 1_555
C5_7 C6_7 1_555 1_555
C11_7 C12_7 1_555 1_555
C25_7 C26_7 1_555 1_555
C27_7 C28_7 1_555 1_555
N4_3 C17_7 1_555 1_555
C17_7 H9_7 1_555 1_555
C18_7 C17_7 1_555 1_555
H10_7 C18_7 1_555 1_555
C21_7 N4_3 1_555 1_555
Zn4_2 O1_8 1_555 1_555
Zn7_2 O2_8 1_555 1_555
O1_8 C13_8 1_555 1_555
O2_8 C13_8 1_555 1_555
O9_3 C14_8 1_555 1_555
O10_3 C14_8 1_555 1_555
O11_4 C15_8 1_555 1_555
O6_8 C15_8 1_555 1_555
O7_8 C16_8 1_555 1_555
N2_8 Zn7_2 1_555 1_555
N3_8 H1_8 1_555 1_555
C1_8 C2_8 1_555 1_555
C2_8 H2_8 1_555 1_555
C3_8 C2_8 1_555 1_555
H3_8 C3_8 1_555 1_555
C4_8 C3_8 1_555 1_555
C5_8 C4_8 1_555 1_555
H4_8 C5_8 1_555 1_555
C6_8 C1_8 1_555 1_555
H5_8 C6_8 1_555 1_555
C7_8 N3_8 1_555 1_555
C8_8 C7_8 1_555 1_555
H6_8 C8_8 1_555 1_555
C9_8 C8_8 1_555 1_555
C10_8 C9_8 1_555 1_555
H7_8 C10_8 1_555 1_555
C11_8 C10_8 1_555 1_555
C12_8 C7_8 1_555 1_555
H8_8 C12_8 1_555 1_555
C13_8 C9_8 1_555 1_555
C14_8 C11_8 1_555 1_555
C15_8 C4_8 1_555 1_555
C16_8 N3_8 1_555 1_555
C20_8 C19_8 1_555 1_555
H11_8 C20_8 1_555 1_555
C22_8 N2_8 1_555 1_555
H13_8 C22_8 1_555 1_555
C23_8 C22_8 1_555 1_555
H14_8 C23_8 1_555 1_555
C24_8 C23_8 1_555 1_555
C25_8 C24_8 1_555 1_555
C26_8 N2_8 1_555 1_555
H16_8 C26_8 1_555 1_555
C27_8 C19_8 1_555 1_555
H17_8 C27_8 1_555 1_555
C28_8 C24_8 1_555 1_555
O12_2 Zn4_2 1_555 1_555
C1_8 C16_8 1_555 1_555
C5_8 C6_8 1_555 1_555
C11_8 C12_8 1_555 1_555
C25_8 C26_8 1_555 1_555
C27_8 C28_8 1_555 1_555
N4_4 C17_8 1_555 1_555
C17_8 H9_8 1_555 1_555
C18_8 C17_8 1_555 1_555
H10_8 C18_8 1_555 1_555
C21_8 N4_4 1_555 1_555

#END
