
###############################################################################
#
# This file contains modified crystal structure data generated from the
# MOF subset of the Cambridge Structural Database (CSD) v543 
# hosted by the Cambridge Crystallographic Data Centre (CCDC).
#
# This work is licensed under the Creative Commons
# Attribution-NonCommercial-ShareAlike 4.0 International License.
# To view a copy of this license, visit
# http://creativecommons.org/licenses/by-nc-sa/4.0/
# or send a letter to
# Creative Commons, PO Box 1866, Mountain View, CA 94042, USA.
#
# CIF created using the CSD Python API on 29 September 2022
# The structure has been converted into the P1 space group
# The structure has a 3D framework
# The original CSD entry ZIKGEI is in the monoclinic crystal system
# The framework has been calculated to contain at least 10.0% void space
# The void calculation uses a probe of radius 1.32A, grid spacing 0.4
# The framework is charged, counterions have been retained in the structure
# H atom positions have been added when not included in the experimental data
#
###############################################################################

data_ZIKGEI
_chemical_formula_moiety         '(C152 H80 N40 O100 S8 Zn14 12-)n'
_symmetry_cell_setting           triclinic
_symmetry_space_group_name_H-M   'P 1'
_symmetry_Int_Tables_number      1
_space_group_name_Hall           'P 1'
loop_
_symmetry_equiv_pos_site_id
_symmetry_equiv_pos_as_xyz
1 x,y,z
_cell_length_a                   30.5668(7)
_cell_length_b                   11.8581(3)
_cell_length_c                   21.7723(5)
_cell_angle_alpha                90
_cell_angle_beta                 109.8560(10)
_cell_angle_gamma                90
_cell_volume                     7422.51
loop_
_atom_site_label
_atom_site_type_symbol
_atom_site_fract_x
_atom_site_fract_y
_atom_site_fract_z
C1 C 0.02582(15) 0.3467(4) 0.0647(2)
C3 C 0.01251(14) 0.5291(4) 0.1124(2)
H1 H 0.0442 0.5324 0.1360
C8 C 0.00244(15) 0.7075(4) 0.1685(2)
O1 O 0.01202(12) 0.2598(3) 0.03650(18)
O2 O 0.07071(10) 0.3716(3) 0.09408(16)
O3 O 0.04245(12) 0.6977(4) 0.2070(2)
Zn5 Zn 0.0000 0.87653(6) 0.2500
H20 H 0.0768509 0.38494 0.141298
C2 C 0.99461(14) 0.4395(4) 0.0710(2)
C4 C 0.98316(14) 0.6143(4) 0.1187(2)
C5 C 0.93622(14) 0.6110(4) 0.0818(2)
H2 H 0.9167 0.6693 0.0850
C6 C 0.91791(13) 0.5194(4) 0.03946(19)
C7 C 0.94737(14) 0.4329(4) 0.0357(2)
H3 H 0.9355 0.3704 0.0095
N4 N 0.86985(11) 0.5251(3) 0.00443(17)
H7 H 0.8554 0.5778 0.0167
O4 O 0.97542(10) 0.7872(3) 0.16958(15)
O9 O 0.81108(9) 0.7064(2) 0.02257(13)
O10 O 0.78720(9) 0.8366(3) 0.08906(14)
O11 O 0.86461(10) 0.8435(3) 0.08831(17)
S1 S 0.81657(3) 0.82701(8) 0.04588(5)
Zn5_2 Zn 1.0000 0.87653(6) 0.2500
Zn8 Zn 0.719150(16) 0.83264(4) 0.06920(2)
C9 C 0.84312(13) 0.4617(3) 0.95510(19)
C10 C 0.82975(16) 0.3099(4) 0.8893(2)
C11 C 0.77098(13) 0.4311(3) 0.87865(19)
C12 C 0.69103(13) 0.4242(3) 0.79463(19)
C13 C 0.64609(13) 0.4611(3) 0.78572(19)
H4 H 0.6402 0.5024 0.8184
C14 C 0.60978(13) 0.4364(3) 0.72790(19)
C15 C 0.61818(13) 0.3732(3) 0.6789(2)
H5 H 0.5941 0.3568 0.6404
C16 C 0.69905(13) 0.3607(3) 0.74554(19)
H6 H 0.7289 0.3351 0.7512
C17 C 0.66305(14) 0.3351(3) 0.68845(19)
C18 C 0.67323(14) 0.2705(3) 0.63612(19)
C19 C 0.56174(13) 0.4837(3) 0.7168(2)
N1 N 0.79845(11) 0.5012(3) 0.92485(16)
N2 N 0.78439(13) 0.3354(3) 0.8596(2)
N3 N 0.85998(12) 0.3691(3) 0.93890(18)
N5 N 0.72605(11) 0.4643(3) 0.85093(17)
H8 H 0.7177 0.5183 0.8709
O5 O 0.53163(10) 0.4743(3) 0.66194(16)
O6 O 0.55596(9) 0.5317(3) 0.76629(14)
O7 O 0.71597(10) 0.2477(3) 0.64573(14)
O8 O 0.64113(10) 0.2408(3) 0.58587(13)
O12 O 0.80095(13) 0.9028(3) 0.99118(18)
O13 O 0.84740(16) 0.2163(4) 0.8652(2)
H9 H 0.8598 0.2380 0.8394
Zn1 Zn 0.5000 0.62347(6) 0.7500
Zn2 Zn 0.780850(16) 0.66736(4) 0.93080(2)
C21 C 0.00539(14) 0.4395(4) 0.4290(2)
C23 C 0.01684(14) 0.6143(4) 0.3813(2)
C24 C 0.06378(14) 0.6110(4) 0.4182(2)
H11 H 0.0833 0.6693 0.4150
C25 C 0.08209(13) 0.5194(4) 0.46054(19)
C26 C 0.05263(14) 0.4329(4) 0.4643(2)
H12 H 0.0645 0.3704 0.4905
C28 C 0.15688(13) 0.4617(3) 0.54490(19)
C29 C 0.17025(16) 0.3099(4) 0.6107(2)
C30 C 0.22902(13) 0.4311(3) 0.62135(19)
C31 C 0.30897(13) 0.4242(3) 0.70537(19)
C32 C 0.35391(13) 0.4611(3) 0.71428(19)
H13 H 0.3598 0.5024 0.6816
C33 C 0.39022(13) 0.4364(3) 0.77210(19)
C34 C 0.38182(13) 0.3732(3) 0.8211(2)
H14 H 0.4059 0.3568 0.8596
C35 C 0.30095(13) 0.3607(3) 0.75446(19)
H15 H 0.2711 0.3351 0.7488
C36 C 0.33695(14) 0.3351(3) 0.81155(19)
C37 C 0.32677(14) 0.2705(3) 0.86388(19)
C38 C 0.43826(13) 0.4837(3) 0.7832(2)
N6 N 0.20155(11) 0.5012(3) 0.57515(16)
N7 N 0.21561(13) 0.3354(3) 0.6404(2)
N8 N 0.14002(12) 0.3691(3) 0.56110(18)
N9 N 0.13015(11) 0.5251(3) 0.49557(17)
H16 H 0.1446 0.5778 0.4833
N10 N 0.27395(11) 0.4643(3) 0.64907(17)
H17 H 0.2823 0.5183 0.6291
O17 O 0.02458(10) 0.7872(3) 0.33042(15)
O18 O 0.46837(10) 0.4743(3) 0.83806(16)
O19 O 0.44404(9) 0.5317(3) 0.73371(14)
O20 O 0.28403(10) 0.2477(3) 0.85427(14)
O21 O 0.35887(10) 0.2408(3) 0.91413(13)
O22 O 0.18892(9) 0.7064(2) 0.47743(13)
O23 O 0.21280(9) 0.8366(3) 0.41094(14)
O24 O 0.13539(10) 0.8435(3) 0.41169(17)
O25 O 0.19905(13) 0.9028(3) 0.50882(18)
O26 O 0.15260(16) 0.2163(4) 0.6348(2)
H18 H 0.1402 0.2380 0.6606
S2 S 0.18343(3) 0.82701(8) 0.45412(5)
Zn3 Zn 0.219150(16) 0.66736(4) 0.56920(2)
O27 O 0.52458(10) 0.7128(3) 0.83042(15)
O28 O 0.47542(10) 0.7128(3) 0.66958(15)
O29 O 0.21597(10) 0.7477(3) 0.64573(14)
O30 O 0.78403(10) 0.7477(3) 0.85427(14)
O31 O 0.71280(9) 0.6634(3) 0.91094(14)
O32 O 0.28720(9) 0.6634(3) 0.58906(14)
Zn6 Zn 0.280850(16) 0.16736(4) 0.93080(2)
Zn7 Zn 0.719150(16) 0.16736(4) 0.56920(2)
Zn9 Zn 0.280850(16) 0.83264(4) 0.43080(2)
C20 C 0.97418(15) 0.3467(4) 0.4353(2)
C22 C 0.98749(14) 0.5291(4) 0.3876(2)
H10 H 0.9558 0.5324 0.3640
C27 C 0.99756(15) 0.7075(4) 0.3315(2)
O14 O 0.98798(12) 0.2598(3) 0.46350(18)
O15 O 0.92929(10) 0.3716(3) 0.40592(16)
O16 O 0.95755(12) 0.6977(4) 0.2930(2)
H19 H 0.923149 0.38494 0.358702
C3_2 C 0.51251(14) 0.0291(4) 0.1124(2)
H1_2 H 0.5442 0.0324 0.1360
C4_2 C 0.48316(14) 0.1143(4) 0.1187(2)
C5_2 C 0.43622(14) 0.1110(4) 0.0818(2)
H2_2 H 0.4167 0.1693 0.0850
C6_2 C 0.41791(13) 0.0194(4) 0.03946(19)
C8_2 C 0.50244(15) 0.2075(4) 0.1685(2)
N4_2 N 0.36985(11) 0.0251(3) 0.00443(17)
H7_2 H 0.3554 0.0778 0.0167
O3_2 O 0.54245(12) 0.1977(4) 0.2070(2)
O4_2 O 0.47542(10) 0.2872(3) 0.16958(15)
O9_2 O 0.31108(9) 0.2064(2) 0.02257(13)
O10_2 O 0.28720(9) 0.3366(3) 0.08906(14)
O11_2 O 0.36461(10) 0.3435(3) 0.08831(17)
S1_2 S 0.31657(3) 0.32701(8) 0.04588(5)
Zn5_3 Zn 0.5000 0.37653(6) 0.2500
Zn8_2 Zn 0.219150(16) 0.33264(4) 0.06920(2)
H4_2 H 0.1402 0.0024 0.8184
N1_2 N 0.29845(11) 0.0012(3) 0.92485(16)
H8_2 H 0.2177 0.0183 0.8709
O6_2 O 0.05596(9) 0.0317(3) 0.76629(14)
O12_2 O 0.30095(13) 0.4028(3) 0.99118(18)
Zn1_2 Zn 0.0000 0.12347(6) 0.7500
O27_2 O 0.02458(10) 0.2128(3) 0.83042(15)
O31_2 O 0.21280(9) 0.1634(3) 0.91094(14)
C9_2 C 0.34312(13) 0.9617(3) 0.95510(19)
C10_2 C 0.32975(16) 0.8099(4) 0.8893(2)
C11_2 C 0.27098(13) 0.9311(3) 0.87865(19)
C12_2 C 0.19103(13) 0.9242(3) 0.79463(19)
C13_2 C 0.14609(13) 0.9611(3) 0.78572(19)
C14_2 C 0.10978(13) 0.9364(3) 0.72790(19)
C15_2 C 0.11818(13) 0.8732(3) 0.6789(2)
H5_2 H 0.0941 0.8568 0.6404
C16_2 C 0.19905(13) 0.8607(3) 0.74554(19)
H6_2 H 0.2289 0.8351 0.7512
C17_2 C 0.16305(14) 0.8351(3) 0.68845(19)
C18_2 C 0.17323(14) 0.7705(3) 0.63612(19)
C19_2 C 0.06174(13) 0.9837(3) 0.7168(2)
N2_2 N 0.28439(13) 0.8354(3) 0.8596(2)
N3_2 N 0.35998(12) 0.8691(3) 0.93890(18)
N5_2 N 0.22605(11) 0.9643(3) 0.85093(17)
O5_2 O 0.03163(10) 0.9743(3) 0.66194(16)
O8_2 O 0.14113(10) 0.7408(3) 0.58587(13)
O13_2 O 0.34740(16) 0.7163(4) 0.8652(2)
H9_2 H 0.3598 0.7380 0.8394
Zn1_3 Zn 1.0000 0.12347(6) 0.7500
C22_2 C 0.48749(14) 0.0291(4) 0.3876(2)
H10_2 H 0.4558 0.0324 0.3640
C23_2 C 0.51684(14) 0.1143(4) 0.3813(2)
C24_2 C 0.56378(14) 0.1110(4) 0.4182(2)
H11_2 H 0.5833 0.1693 0.4150
C25_2 C 0.58209(13) 0.0194(4) 0.46054(19)
C27_2 C 0.49756(15) 0.2075(4) 0.3315(2)
H13_2 H 0.8598 0.0024 0.6816
N6_2 N 0.70155(11) 0.0012(3) 0.57515(16)
N9_2 N 0.63015(11) 0.0251(3) 0.49557(17)
H16_2 H 0.6446 0.0778 0.4833
H17_2 H 0.7823 0.0183 0.6291
O16_2 O 0.45755(12) 0.1977(4) 0.2930(2)
O17_2 O 0.52458(10) 0.2872(3) 0.33042(15)
O19_2 O 0.94404(9) 0.0317(3) 0.73371(14)
O22_2 O 0.68892(9) 0.2064(2) 0.47743(13)
O23_2 O 0.71280(9) 0.3366(3) 0.41094(14)
O24_2 O 0.63539(10) 0.3435(3) 0.41169(17)
O25_2 O 0.69905(13) 0.4028(3) 0.50882(18)
S2_2 S 0.68343(3) 0.32701(8) 0.45412(5)
O28_2 O 0.97542(10) 0.2128(3) 0.66958(15)
O32_2 O 0.78720(9) 0.1634(3) 0.58906(14)
Zn9_2 Zn 0.780850(16) 0.33264(4) 0.43080(2)
C20_2 C 0.47418(15) 0.8467(4) 0.4353(2)
C21_2 C 0.50539(14) 0.9395(4) 0.4290(2)
C26_2 C 0.55263(14) 0.9329(4) 0.4643(2)
H12_2 H 0.5645 0.8704 0.4905
C28_2 C 0.65688(13) 0.9617(3) 0.54490(19)
C29_2 C 0.67025(16) 0.8099(4) 0.6107(2)
C30_2 C 0.72902(13) 0.9311(3) 0.62135(19)
C31_2 C 0.80897(13) 0.9242(3) 0.70537(19)
C32_2 C 0.85391(13) 0.9611(3) 0.71428(19)
C33_2 C 0.89022(13) 0.9364(3) 0.77210(19)
C34_2 C 0.88182(13) 0.8732(3) 0.8211(2)
H14_2 H 0.9059 0.8568 0.8596
C35_2 C 0.80095(13) 0.8607(3) 0.75446(19)
H15_2 H 0.7711 0.8351 0.7488
C36_2 C 0.83695(14) 0.8351(3) 0.81155(19)
C37_2 C 0.82677(14) 0.7705(3) 0.86388(19)
C38_2 C 0.93826(13) 0.9837(3) 0.7832(2)
N7_2 N 0.71561(13) 0.8354(3) 0.6404(2)
N8_2 N 0.64002(12) 0.8691(3) 0.56110(18)
N10_2 N 0.77395(11) 0.9643(3) 0.64907(17)
O14_2 O 0.48798(12) 0.7598(3) 0.46350(18)
O15_2 O 0.42929(10) 0.8716(3) 0.40592(16)
O18_2 O 0.96837(10) 0.9743(3) 0.83806(16)
O21_2 O 0.85887(10) 0.7408(3) 0.91413(13)
O26_2 O 0.65260(16) 0.7163(4) 0.6348(2)
H18_2 H 0.6402 0.7380 0.6606
H19_2 H 0.423149 0.88494 0.358702
C20_3 C 0.02582(15) 0.6533(4) 0.5647(2)
C22_3 C 0.01251(14) 0.4709(4) 0.6124(2)
H10_3 H 0.0442 0.4676 0.6360
C27_3 C 0.00244(15) 0.2925(4) 0.6685(2)
O14_3 O 0.01202(12) 0.7402(3) 0.53650(18)
O15_3 O 0.07071(10) 0.6284(3) 0.59408(16)
O16_3 O 0.04245(12) 0.3023(4) 0.7070(2)
H19_3 H 0.0768509 0.61506 0.641298
C9_3 C 0.15688(13) 0.5383(3) 0.04490(19)
C10_3 C 0.17025(16) 0.6901(4) 0.1107(2)
C11_3 C 0.22902(13) 0.5689(3) 0.12135(19)
C12_3 C 0.30897(13) 0.5758(3) 0.20537(19)
C13_3 C 0.35391(13) 0.5389(3) 0.21428(19)
H4_3 H 0.3598 0.4976 0.1816
C14_3 C 0.39022(13) 0.5636(3) 0.27210(19)
C15_3 C 0.38182(13) 0.6268(3) 0.3211(2)
H5_3 H 0.4059 0.6432 0.3596
C16_3 C 0.30095(13) 0.6393(3) 0.25446(19)
H6_3 H 0.2711 0.6649 0.2488
C17_3 C 0.33695(14) 0.6649(3) 0.31155(19)
C18_3 C 0.32677(14) 0.7295(3) 0.36388(19)
C19_3 C 0.43826(13) 0.5163(3) 0.2832(2)
N1_3 N 0.20155(11) 0.4988(3) 0.07515(16)
N2_3 N 0.21561(13) 0.6646(3) 0.1404(2)
N3_3 N 0.14002(12) 0.6309(3) 0.06110(18)
N5_3 N 0.27395(11) 0.5357(3) 0.14907(17)
H8_3 H 0.2823 0.4817 0.1291
O5_3 O 0.46837(10) 0.5257(3) 0.33806(16)
O6_3 O 0.44404(9) 0.4683(3) 0.23371(14)
O7_2 O 0.28403(10) 0.7523(3) 0.35427(14)
O8_3 O 0.35887(10) 0.7592(3) 0.41413(13)
O12_3 O 0.19905(13) 0.0972(3) 0.00882(18)
O13_3 O 0.15260(16) 0.7837(4) 0.1348(2)
H9_3 H 0.1402 0.7620 0.1606
C21_3 C 0.99461(14) 0.5605(4) 0.5710(2)
C23_3 C 0.98316(14) 0.3857(4) 0.6187(2)
C24_3 C 0.93622(14) 0.3890(4) 0.5818(2)
H11_3 H 0.9167 0.3307 0.5850
C25_3 C 0.91791(13) 0.4806(4) 0.53946(19)
C26_3 C 0.94737(14) 0.5671(4) 0.5357(2)
H12_3 H 0.9355 0.6296 0.5095
C28_3 C 0.84312(13) 0.5383(3) 0.45510(19)
C29_3 C 0.82975(16) 0.6901(4) 0.3893(2)
C30_3 C 0.77098(13) 0.5689(3) 0.37865(19)
C31_3 C 0.69103(13) 0.5758(3) 0.29463(19)
C32_3 C 0.64609(13) 0.5389(3) 0.28572(19)
H13_3 H 0.6402 0.4976 0.3184
C33_3 C 0.60978(13) 0.5636(3) 0.22790(19)
C34_3 C 0.61818(13) 0.6268(3) 0.1789(2)
H14_3 H 0.5941 0.6432 0.1404
C35_3 C 0.69905(13) 0.6393(3) 0.24554(19)
H15_3 H 0.7289 0.6649 0.2512
C36_3 C 0.66305(14) 0.6649(3) 0.18845(19)
C37_3 C 0.67323(14) 0.7295(3) 0.13612(19)
C38_3 C 0.56174(13) 0.5163(3) 0.2168(2)
N6_3 N 0.79845(11) 0.4988(3) 0.42485(16)
N7_3 N 0.78439(13) 0.6646(3) 0.3596(2)
N8_3 N 0.85998(12) 0.6309(3) 0.43890(18)
N9_3 N 0.86985(11) 0.4749(3) 0.50443(17)
H16_3 H 0.8554 0.4222 0.5167
N10_3 N 0.72605(11) 0.5357(3) 0.35093(17)
H17_3 H 0.7177 0.4817 0.3709
O18_3 O 0.53163(10) 0.5257(3) 0.16194(16)
O19_3 O 0.55596(9) 0.4683(3) 0.26629(14)
O20_2 O 0.71597(10) 0.7523(3) 0.14573(14)
O21_3 O 0.64113(10) 0.7592(3) 0.08587(13)
O22_3 O 0.81108(9) 0.2936(2) 0.52257(13)
O24_3 O 0.86461(10) 0.1565(3) 0.58831(17)
O25_3 O 0.80095(13) 0.0972(3) 0.49118(18)
O26_3 O 0.84740(16) 0.7837(4) 0.3652(2)
H18_3 H 0.8598 0.7620 0.3394
S2_3 S 0.81657(3) 0.17299(8) 0.54588(5)
O29_2 O 0.78403(10) 0.2523(3) 0.35427(14)
O30_2 O 0.21597(10) 0.2523(3) 0.14573(14)
C2_2 C 0.00539(14) 0.5605(4) 0.9290(2)
C4_3 C 0.01684(14) 0.3857(4) 0.8813(2)
C5_3 C 0.06378(14) 0.3890(4) 0.9182(2)
H2_3 H 0.0833 0.3307 0.9150
C6_3 C 0.08209(13) 0.4806(4) 0.96054(19)
C7_2 C 0.05263(14) 0.5671(4) 0.9643(2)
H3_2 H 0.0645 0.6296 0.9905
N4_3 N 0.13015(11) 0.4749(3) 0.99557(17)
H7_3 H 0.1446 0.4222 0.9833
O9_3 O 0.18892(9) 0.2936(2) 0.97743(13)
O11_3 O 0.13539(10) 0.1565(3) 0.91169(17)
S1_3 S 0.18343(3) 0.17299(8) 0.95412(5)
C1_2 C 0.97418(15) 0.6533(4) 0.9353(2)
C3_3 C 0.98749(14) 0.4709(4) 0.8876(2)
H1_3 H 0.9558 0.4676 0.8640
C8_3 C 0.99756(15) 0.2925(4) 0.8315(2)
O1_2 O 0.98798(12) 0.7402(3) 0.96350(18)
O2_2 O 0.92929(10) 0.6284(3) 0.90592(16)
O3_3 O 0.95755(12) 0.3023(4) 0.7930(2)
H20_2 H 0.923149 0.61506 0.858702
C20_4 C 0.52582(15) 0.1533(4) 0.5647(2)
C21_4 C 0.49461(14) 0.0605(4) 0.5710(2)
C26_4 C 0.44737(14) 0.0671(4) 0.5357(2)
H12_4 H 0.4355 0.1296 0.5095
C28_4 C 0.34312(13) 0.0383(3) 0.45510(19)
C29_4 C 0.32975(16) 0.1901(4) 0.3893(2)
C30_4 C 0.27098(13) 0.0689(3) 0.37865(19)
C31_4 C 0.19103(13) 0.0758(3) 0.29463(19)
C32_4 C 0.14609(13) 0.0389(3) 0.28572(19)
C33_4 C 0.10978(13) 0.0636(3) 0.22790(19)
C34_4 C 0.11818(13) 0.1268(3) 0.1789(2)
H14_4 H 0.0941 0.1432 0.1404
C35_4 C 0.19905(13) 0.1393(3) 0.24554(19)
H15_4 H 0.2289 0.1649 0.2512
C36_4 C 0.16305(14) 0.1649(3) 0.18845(19)
C37_4 C 0.17323(14) 0.2295(3) 0.13612(19)
C38_4 C 0.06174(13) 0.0163(3) 0.2168(2)
N7_4 N 0.28439(13) 0.1646(3) 0.3596(2)
N8_4 N 0.35998(12) 0.1309(3) 0.43890(18)
N10_4 N 0.22605(11) 0.0357(3) 0.35093(17)
O14_4 O 0.51202(12) 0.2402(3) 0.53650(18)
O15_4 O 0.57071(10) 0.1284(3) 0.59408(16)
O18_4 O 0.03163(10) 0.0257(3) 0.16194(16)
O21_4 O 0.14113(10) 0.2592(3) 0.08587(13)
O26_4 O 0.34740(16) 0.2837(4) 0.3652(2)
H18_4 H 0.3598 0.2620 0.3394
H19_4 H 0.576851 0.11506 0.641298
C22_4 C 0.51251(14) 0.9709(4) 0.6124(2)
H10_4 H 0.5442 0.9676 0.6360
C23_4 C 0.48316(14) 0.8857(4) 0.6187(2)
C24_4 C 0.43622(14) 0.8890(4) 0.5818(2)
H11_4 H 0.4167 0.8307 0.5850
C25_4 C 0.41791(13) 0.9806(4) 0.53946(19)
C27_4 C 0.50244(15) 0.7925(4) 0.6685(2)
H13_4 H 0.1402 0.9976 0.3184
N6_4 N 0.29845(11) 0.9988(3) 0.42485(16)
N9_4 N 0.36985(11) 0.9749(3) 0.50443(17)
H16_4 H 0.3554 0.9222 0.5167
H17_4 H 0.2177 0.9817 0.3709
O16_4 O 0.54245(12) 0.8023(4) 0.7070(2)
O19_4 O 0.05596(9) 0.9683(3) 0.26629(14)
O22_4 O 0.31108(9) 0.7936(2) 0.52257(13)
O24_4 O 0.36461(10) 0.6565(3) 0.58831(17)
O25_4 O 0.30095(13) 0.5972(3) 0.49118(18)
S2_4 S 0.31657(3) 0.67299(8) 0.54588(5)
C9_4 C 0.65688(13) 0.0383(3) 0.04490(19)
C10_4 C 0.67025(16) 0.1901(4) 0.1107(2)
C11_4 C 0.72902(13) 0.0689(3) 0.12135(19)
C12_4 C 0.80897(13) 0.0758(3) 0.20537(19)
C13_4 C 0.85391(13) 0.0389(3) 0.21428(19)
C14_4 C 0.89022(13) 0.0636(3) 0.27210(19)
C15_4 C 0.88182(13) 0.1268(3) 0.3211(2)
H5_4 H 0.9059 0.1432 0.3596
C16_4 C 0.80095(13) 0.1393(3) 0.25446(19)
H6_4 H 0.7711 0.1649 0.2488
C17_4 C 0.83695(14) 0.1649(3) 0.31155(19)
C18_4 C 0.82677(14) 0.2295(3) 0.36388(19)
C19_4 C 0.93826(13) 0.0163(3) 0.2832(2)
N2_4 N 0.71561(13) 0.1646(3) 0.1404(2)
N3_4 N 0.64002(12) 0.1309(3) 0.06110(18)
N5_4 N 0.77395(11) 0.0357(3) 0.14907(17)
O5_4 O 0.96837(10) 0.0257(3) 0.33806(16)
O8_4 O 0.85887(10) 0.2592(3) 0.41413(13)
O13_4 O 0.65260(16) 0.2837(4) 0.1348(2)
H9_4 H 0.6402 0.2620 0.1606
H4_4 H 0.8598 0.9976 0.1816
N1_4 N 0.70155(11) 0.9988(3) 0.07515(16)
H8_4 H 0.7823 0.9817 0.1291
O6_4 O 0.94404(9) 0.9683(3) 0.23371(14)
O12_4 O 0.69905(13) 0.5972(3) 0.00882(18)
C3_4 C 0.48749(14) 0.9709(4) 0.8876(2)
H1_4 H 0.4558 0.9676 0.8640
C4_4 C 0.51684(14) 0.8857(4) 0.8813(2)
C5_4 C 0.56378(14) 0.8890(4) 0.9182(2)
H2_4 H 0.5833 0.8307 0.9150
C6_4 C 0.58209(13) 0.9806(4) 0.96054(19)
C8_4 C 0.49756(15) 0.7925(4) 0.8315(2)
N4_4 N 0.63015(11) 0.9749(3) 0.99557(17)
H7_4 H 0.6446 0.9222 0.9833
O3_4 O 0.45755(12) 0.8023(4) 0.7930(2)
O9_4 O 0.68892(9) 0.7936(2) 0.97743(13)
O11_4 O 0.63539(10) 0.6565(3) 0.91169(17)
S1_4 S 0.68343(3) 0.67299(8) 0.95412(5)
C1_3 C 0.52582(15) 0.8467(4) 0.0647(2)
C2_3 C 0.49461(14) 0.9395(4) 0.0710(2)
C7_3 C 0.44737(14) 0.9329(4) 0.0357(2)
H3_3 H 0.4355 0.8704 0.0095
O1_3 O 0.51202(12) 0.7598(3) 0.03650(18)
O2_3 O 0.57071(10) 0.8716(3) 0.09408(16)
H20_3 H 0.576851 0.88494 0.141298
C1_4 C 0.47418(15) 0.1533(4) 0.9353(2)
C2_4 C 0.50539(14) 0.0605(4) 0.9290(2)
C7_4 C 0.55263(14) 0.0671(4) 0.9643(2)
H3_4 H 0.5645 0.1296 0.9905
O1_4 O 0.48798(12) 0.2402(3) 0.96350(18)
O2_4 O 0.42929(10) 0.1284(3) 0.90592(16)
H20_4 H 0.423149 0.11506 0.858702
loop_
_geom_bond_atom_site_label_1
_geom_bond_atom_site_label_2
_geom_bond_site_symmetry_1
_geom_bond_site_symmetry_2
C3 H1 1_555 1_555
O1 C1 1_555 1_555
O2 C1 1_555 1_555
O3 C8 1_555 1_555
O2 H20 1_555 1_555
C5 C4 1_555 1_555
H2 C5 1_555 1_555
C6 C5 1_555 1_555
C7 C2 1_555 1_555
H3 C7 1_555 1_555
N4 C6 1_555 1_555
H7 N4 1_555 1_555
O9 S1 1_555 1_555
O10 S1 1_555 1_555
O11 S1 1_555 1_555
Zn5_2 O4 1_555 1_555
Zn8 O10 1_555 1_555
C6 C7 1_555 1_555
C9 N1 1_555 1_555
C10 N2 1_555 1_555
C11 N1 1_555 1_555
C12 C13 1_555 1_555
C13 H4 1_555 1_555
C14 C13 1_555 1_555
C15 C14 1_555 1_555
H5 C15 1_555 1_555
C16 C12 1_555 1_555
H6 C16 1_555 1_555
C17 C15 1_555 1_555
C18 C17 1_555 1_555
C19 C14 1_555 1_555
N1 Zn2 1_555 1_555
N2 C11 1_555 1_555
N3 C9 1_555 1_555
N5 C11 1_555 1_555
H8 N5 1_555 1_555
O5 C19 1_555 1_555
O6 C19 1_555 1_555
O7 C18 1_555 1_555
O8 C18 1_555 1_555
O13 C10 1_555 1_555
H9 O13 1_555 1_555
Zn1 O6 1_555 1_555
C24 C23 1_555 1_555
H11 C24 1_555 1_555
C25 C24 1_555 1_555
C26 C21 1_555 1_555
H12 C26 1_555 1_555
C28 N6 1_555 1_555
C29 N7 1_555 1_555
C30 N6 1_555 1_555
C31 C32 1_555 1_555
C32 H13 1_555 1_555
C33 C32 1_555 1_555
C34 C33 1_555 1_555
H14 C34 1_555 1_555
C35 C31 1_555 1_555
H15 C35 1_555 1_555
C36 C34 1_555 1_555
C37 C36 1_555 1_555
C38 C33 1_555 1_555
N6 Zn3 1_555 1_555
N7 C30 1_555 1_555
N8 C28 1_555 1_555
N9 C25 1_555 1_555
H16 N9 1_555 1_555
N10 C30 1_555 1_555
H17 N10 1_555 1_555
O18 C38 1_555 1_555
O19 Zn1 1_555 1_555
O20 C37 1_555 1_555
O21 C37 1_555 1_555
O22 S2 1_555 1_555
O23 S2 1_555 1_555
O24 S2 1_555 1_555
O25 S2 1_555 1_555
O26 C29 1_555 1_555
H18 O26 1_555 1_555
Zn3 O22 1_555 1_555
O27 Zn1 1_555 1_555
O28 Zn1 1_555 1_555
O29 Zn3 1_555 1_555
O30 Zn2 1_555 1_555
O31 Zn2 1_555 1_555
O32 Zn3 1_555 1_555
Zn5 O17 1_555 1_555
Zn6 O20 1_555 1_555
Zn7 O7 1_555 1_555
Zn9 O23 1_555 1_555
C10 N3 1_555 1_555
C12 N5 1_555 1_555
C16 C17 1_555 1_555
C25 C26 1_555 1_555
C28 N9 1_555 1_555
C29 N8 1_555 1_555
C31 N10 1_555 1_555
C35 C36 1_555 1_555
C38 O19 1_555 1_555
C22 H10 1_555 1_555
O14 C20 1_555 1_555
O15 C20 1_555 1_555
O16 C27 1_555 1_555
O15 H19 1_555 1_555
C3_2 H1_2 1_555 1_555
C4_2 C3_2 1_555 1_555
C5_2 C4_2 1_555 1_555
H2_2 C5_2 1_555 1_555
C6_2 C5_2 1_555 1_555
C8_2 C4_2 1_555 1_555
N4_2 C6_2 1_555 1_555
H7_2 N4_2 1_555 1_555
O3_2 C8_2 1_555 1_555
O4_2 C8_2 1_555 1_555
O9_2 S1_2 1_555 1_555
O10_2 S1_2 1_555 1_555
O11_2 S1_2 1_555 1_555
Zn5_3 O4_2 1_555 1_555
Zn8_2 O10_2 1_555 1_555
N1_2 Zn6 1_555 1_555
Zn1_2 O6_2 1_555 1_555
O27_2 Zn1_2 1_555 1_555
O31_2 Zn6 1_555 1_555
C10_2 N2_2 1_555 1_555
C12_2 C13_2 1_555 1_555
C14_2 C13_2 1_555 1_555
C15_2 C14_2 1_555 1_555
H5_2 C15_2 1_555 1_555
C16_2 C12_2 1_555 1_555
H6_2 C16_2 1_555 1_555
C17_2 C15_2 1_555 1_555
C18_2 C17_2 1_555 1_555
C19_2 C14_2 1_555 1_555
N2_2 C11_2 1_555 1_555
N3_2 C9_2 1_555 1_555
N5_2 C11_2 1_555 1_555
O5_2 C19_2 1_555 1_555
O29 C18_2 1_555 1_555
O8_2 C18_2 1_555 1_555
O13_2 C10_2 1_555 1_555
H9_2 O13_2 1_555 1_555
C10_2 N3_2 1_555 1_555
C12_2 N5_2 1_555 1_555
C16_2 C17_2 1_555 1_555
C22_2 H10_2 1_555 1_555
C23_2 C22_2 1_555 1_555
C24_2 C23_2 1_555 1_555
H11_2 C24_2 1_555 1_555
C25_2 C24_2 1_555 1_555
C27_2 C23_2 1_555 1_555
N6_2 Zn7 1_555 1_555
N9_2 C25_2 1_555 1_555
H16_2 N9_2 1_555 1_555
O16_2 C27_2 1_555 1_555
O17_2 C27_2 1_555 1_555
O19_2 Zn1_3 1_555 1_555
O22_2 S2_2 1_555 1_555
O23_2 S2_2 1_555 1_555
O24_2 S2_2 1_555 1_555
O25_2 S2_2 1_555 1_555
Zn7 O22_2 1_555 1_555
O28_2 Zn1_3 1_555 1_555
O32_2 Zn7 1_555 1_555
Zn5_3 O17_2 1_555 1_555
Zn9_2 O23_2 1_555 1_555
C20_2 C21_2 1_555 1_555
C26_2 C21_2 1_555 1_555
H12_2 C26_2 1_555 1_555
C29_2 N7_2 1_555 1_555
C31_2 C32_2 1_555 1_555
C33_2 C32_2 1_555 1_555
C34_2 C33_2 1_555 1_555
H14_2 C34_2 1_555 1_555
C35_2 C31_2 1_555 1_555
H15_2 C35_2 1_555 1_555
C36_2 C34_2 1_555 1_555
C37_2 C36_2 1_555 1_555
C38_2 C33_2 1_555 1_555
N7_2 C30_2 1_555 1_555
N8_2 C28_2 1_555 1_555
N10_2 C30_2 1_555 1_555
O14_2 C20_2 1_555 1_555
O15_2 C20_2 1_555 1_555
O18_2 C38_2 1_555 1_555
O30 C37_2 1_555 1_555
O21_2 C37_2 1_555 1_555
O26_2 C29_2 1_555 1_555
H18_2 O26_2 1_555 1_555
C29_2 N8_2 1_555 1_555
C31_2 N10_2 1_555 1_555
C35_2 C36_2 1_555 1_555
O15_2 H19_2 1_555 1_555
C22_3 H10_3 1_555 1_555
O14_3 C20_3 1_555 1_555
O15_3 C20_3 1_555 1_555
O16_3 C27_3 1_555 1_555
O15_3 H19_3 1_555 1_555
C9_3 N1_3 1_555 1_555
C10_3 N2_3 1_555 1_555
C11_3 N1_3 1_555 1_555
C12_3 C13_3 1_555 1_555
C13_3 H4_3 1_555 1_555
C14_3 C13_3 1_555 1_555
C15_3 C14_3 1_555 1_555
H5_3 C15_3 1_555 1_555
C16_3 C12_3 1_555 1_555
H6_3 C16_3 1_555 1_555
C17_3 C15_3 1_555 1_555
C18_3 C17_3 1_555 1_555
C19_3 C14_3 1_555 1_555
N1_3 Zn8_2 1_555 1_555
N2_3 C11_3 1_555 1_555
N3_3 C9_3 1_555 1_555
N5_3 C11_3 1_555 1_555
H8_3 N5_3 1_555 1_555
O5_3 C19_3 1_555 1_555
O6_3 C19_3 1_555 1_555
O7_2 C18_3 1_555 1_555
O8_3 C18_3 1_555 1_555
O13_3 C10_3 1_555 1_555
H9_3 O13_3 1_555 1_555
Zn5_3 O6_3 1_555 1_555
C24_3 C23_3 1_555 1_555
H11_3 C24_3 1_555 1_555
C25_3 C24_3 1_555 1_555
C26_3 C21_3 1_555 1_555
H12_3 C26_3 1_555 1_555
C28_3 N6_3 1_555 1_555
C29_3 N7_3 1_555 1_555
C30_3 N6_3 1_555 1_555
C31_3 C32_3 1_555 1_555
C32_3 H13_3 1_555 1_555
C33_3 C32_3 1_555 1_555
C34_3 C33_3 1_555 1_555
H14_3 C34_3 1_555 1_555
C35_3 C31_3 1_555 1_555
H15_3 C35_3 1_555 1_555
C36_3 C34_3 1_555 1_555
C37_3 C36_3 1_555 1_555
C38_3 C33_3 1_555 1_555
N6_3 Zn9_2 1_555 1_555
N7_3 C30_3 1_555 1_555
N8_3 C28_3 1_555 1_555
N9_3 C25_3 1_555 1_555
H16_3 N9_3 1_555 1_555
N10_3 C30_3 1_555 1_555
H17_3 N10_3 1_555 1_555
O18_3 C38_3 1_555 1_555
O19_3 Zn5_3 1_555 1_555
O20_2 C37_3 1_555 1_555
O21_3 C37_3 1_555 1_555
O22_3 S2_3 1_555 1_555
O32_2 S2_3 1_555 1_555
O24_3 S2_3 1_555 1_555
O25_3 S2_3 1_555 1_555
O26_3 C29_3 1_555 1_555
H18_3 O26_3 1_555 1_555
Zn9_2 O22_3 1_555 1_555
O29_2 Zn9_2 1_555 1_555
O30_2 Zn8_2 1_555 1_555
Zn8 O20_2 1_555 1_555
Zn9 O7_2 1_555 1_555
C10_3 N3_3 1_555 1_555
C12_3 N5_3 1_555 1_555
C16_3 C17_3 1_555 1_555
C25_3 C26_3 1_555 1_555
C28_3 N9_3 1_555 1_555
C29_3 N8_3 1_555 1_555
C31_3 N10_3 1_555 1_555
C35_3 C36_3 1_555 1_555
C38_3 O19_3 1_555 1_555
C5_3 C4_3 1_555 1_555
H2_3 C5_3 1_555 1_555
C6_3 C5_3 1_555 1_555
C7_2 C2_2 1_555 1_555
H3_2 C7_2 1_555 1_555
N4_3 C6_3 1_555 1_555
H7_3 N4_3 1_555 1_555
O9_3 S1_3 1_555 1_555
O31_2 S1_3 1_555 1_555
O11_3 S1_3 1_555 1_555
C6_3 C7_2 1_555 1_555
C3_3 H1_3 1_555 1_555
O1_2 C1_2 1_555 1_555
O2_2 C1_2 1_555 1_555
O3_3 C8_3 1_555 1_555
O2_2 H20_2 1_555 1_555
C20_4 C21_4 1_555 1_555
C26_4 C21_4 1_555 1_555
H12_4 C26_4 1_555 1_555
C29_4 N7_4 1_555 1_555
C31_4 C32_4 1_555 1_555
C33_4 C32_4 1_555 1_555
C34_4 C33_4 1_555 1_555
H14_4 C34_4 1_555 1_555
C35_4 C31_4 1_555 1_555
H15_4 C35_4 1_555 1_555
C36_4 C34_4 1_555 1_555
C37_4 C36_4 1_555 1_555
C38_4 C33_4 1_555 1_555
N7_4 C30_4 1_555 1_555
N8_4 C28_4 1_555 1_555
N10_4 C30_4 1_555 1_555
O14_4 C20_4 1_555 1_555
O15_4 C20_4 1_555 1_555
O18_4 C38_4 1_555 1_555
O30_2 C37_4 1_555 1_555
O21_4 C37_4 1_555 1_555
O26_4 C29_4 1_555 1_555
H18_4 O26_4 1_555 1_555
C29_4 N8_4 1_555 1_555
C31_4 N10_4 1_555 1_555
C35_4 C36_4 1_555 1_555
O15_4 H19_4 1_555 1_555
C22_4 H10_4 1_555 1_555
C23_4 C22_4 1_555 1_555
C24_4 C23_4 1_555 1_555
H11_4 C24_4 1_555 1_555
C25_4 C24_4 1_555 1_555
C27_4 C23_4 1_555 1_555
N6_4 Zn9 1_555 1_555
N9_4 C25_4 1_555 1_555
H16_4 N9_4 1_555 1_555
O16_4 C27_4 1_555 1_555
O28 C27_4 1_555 1_555
O19_4 Zn5 1_555 1_555
O22_4 S2_4 1_555 1_555
O32 S2_4 1_555 1_555
O24_4 S2_4 1_555 1_555
O25_4 S2_4 1_555 1_555
Zn9 O22_4 1_555 1_555
C10_4 N2_4 1_555 1_555
C12_4 C13_4 1_555 1_555
C14_4 C13_4 1_555 1_555
C15_4 C14_4 1_555 1_555
H5_4 C15_4 1_555 1_555
C16_4 C12_4 1_555 1_555
H6_4 C16_4 1_555 1_555
C17_4 C15_4 1_555 1_555
C18_4 C17_4 1_555 1_555
C19_4 C14_4 1_555 1_555
N2_4 C11_4 1_555 1_555
N3_4 C9_4 1_555 1_555
N5_4 C11_4 1_555 1_555
O5_4 C19_4 1_555 1_555
O29_2 C18_4 1_555 1_555
O8_4 C18_4 1_555 1_555
O13_4 C10_4 1_555 1_555
H9_4 O13_4 1_555 1_555
C10_4 N3_4 1_555 1_555
C12_4 N5_4 1_555 1_555
C16_4 C17_4 1_555 1_555
N1_4 Zn8 1_555 1_555
Zn5_2 O6_4 1_555 1_555
C3_4 H1_4 1_555 1_555
C4_4 C3_4 1_555 1_555
C5_4 C4_4 1_555 1_555
H2_4 C5_4 1_555 1_555
C6_4 C5_4 1_555 1_555
C8_4 C4_4 1_555 1_555
N4_4 C6_4 1_555 1_555
H7_4 N4_4 1_555 1_555
O3_4 C8_4 1_555 1_555
O27 C8_4 1_555 1_555
O9_4 S1_4 1_555 1_555
O31 S1_4 1_555 1_555
O11_4 S1_4 1_555 1_555
C1_3 C2_3 1_555 1_555
C7_3 C2_3 1_555 1_555
H3_3 C7_3 1_555 1_555
O1_3 C1_3 1_555 1_555
O2_3 C1_3 1_555 1_555
O2_3 H20_3 1_555 1_555
C1_4 C2_4 1_555 1_555
C7_4 C2_4 1_555 1_555
H3_4 C7_4 1_555 1_555
O1_4 C1_4 1_555 1_555
O2_4 C1_4 1_555 1_555
O2_4 H20_4 1_555 1_555

#END
