
###############################################################################
#
# This file contains modified crystal structure data generated from the
# MOF subset of the Cambridge Structural Database (CSD) v543 
# hosted by the Cambridge Crystallographic Data Centre (CCDC).
#
# This work is licensed under the Creative Commons
# Attribution-NonCommercial-ShareAlike 4.0 International License.
# To view a copy of this license, visit
# http://creativecommons.org/licenses/by-nc-sa/4.0/
# or send a letter to
# Creative Commons, PO Box 1866, Mountain View, CA 94042, USA.
#
# CIF created using the CSD Python API on 29 September 2022
# The structure has been converted into the P1 space group
# The structure has a 3D framework
# The original CSD entry ZIKJOU is in the triclinic crystal system
# The framework has been calculated to contain at least 10.0% void space
# The void calculation uses a probe of radius 1.32A, grid spacing 0.4
# H atom positions have been added when not included in the experimental data
#
###############################################################################

data_ZIKJOU
_chemical_formula_moiety         '(C48 H38 Cu4 N2 O20)n'
_symmetry_cell_setting           triclinic
_symmetry_space_group_name_H-M   'P 1'
_symmetry_Int_Tables_number      1
_space_group_name_Hall           'P 1'
loop_
_symmetry_equiv_pos_site_id
_symmetry_equiv_pos_as_xyz
1 x,y,z
_cell_length_a                   10.6325(9)
_cell_length_b                   10.7258(8)
_cell_length_c                   18.3532(14)
_cell_angle_alpha                76.671(6)
_cell_angle_beta                 86.717(6)
_cell_angle_gamma                74.278(7)
_cell_volume                     1960.43
loop_
_atom_site_label
_atom_site_type_symbol
_atom_site_fract_x
_atom_site_fract_y
_atom_site_fract_z
Cu5 Cu 0.07069(8) 0.89708(9) 0.97548(5)
O8 O 0.0428(5) 0.0255(5) 0.1131(2)
Cu3 Cu 0.92931(8) 0.10292(9) 0.02452(5)
O12 O 0.0591(4) 0.1934(4) 0.9758(3)
O1 O 0.8245(4) 0.9788(4) 0.0696(3)
C1 C 0.1257(6) 0.9184(7) 0.1209(3)
O2 O 0.9409(4) 0.8066(4) 0.0242(3)
O3 O 0.1989(5) 0.0412(5) 0.5183(3)
O4 O 0.0426(5) 0.1834(5) 0.4401(3)
O5 O 0.1583(5) 0.8437(5) 0.4588(3)
O6 O 0.1629(4) 0.8492(5) 0.0722(3)
N1 N 0.4614(5) 0.5831(5) 0.2930(3)
C2 C 0.3504(6) 0.6876(6) 0.2816(4)
C3 C 0.8488(6) 0.8630(6) 0.0627(3)
C4 C 0.2959(7) 0.7510(6) 0.2093(4)
H1 H 0.3351 0.7181 0.1673
C5 C 0.1885(6) 0.8582(6) 0.1985(4)
C6 C 0.6965(7) 0.8156(7) 0.1661(4)
H2 H 0.7013 0.8940 0.1803
C7 C 0.1741(6) 0.8461(6) 0.3286(3)
C8 C 0.2828(7) 0.7374(7) 0.3412(4)
H3 H 0.3120 0.6959 0.3911
C9 C 0.6105(6) 0.6233(6) 0.1858(4)
C10 C 0.7664(6) 0.7778(6) 0.1062(4)
C11 C 0.7570(7) 0.6664(7) 0.0855(4)
H4 H 0.8036 0.6415 0.0431
C12 C 0.4917(7) 0.4963(7) 0.3655(4)
H5 H 0.4857 0.5514 0.4027
H6 H 0.5834 0.4424 0.3653
C13 C 0.1555(7) 0.1460(7) 0.4700(4)
C14 C 0.6796(7) 0.5888(7) 0.1261(4)
H7 H 0.6755 0.5105 0.1115
C15 C 0.6179(7) 0.7379(7) 0.2062(4)
H8 H 0.5693 0.7638 0.2478
C16 C 0.5300(7) 0.5348(7) 0.2299(4)
H9 H 0.4653 0.5265 0.1959
H10 H 0.5885 0.4450 0.2488
C17 C 0.4045(7) 0.4022(7) 0.3912(4)
C18 C 0.2956(7) 0.4128(8) 0.3522(5)
H11 H 0.2746 0.4785 0.3069
C19 C 0.2452(7) 0.2330(7) 0.4429(4)
C20 C 0.1260(8) 0.9053(7) 0.2596(4)
H12 H 0.0503 0.9785 0.2524
C21 C 0.2143(8) 0.3297(7) 0.3771(5)
H13 H 0.1383 0.3391 0.3494
C22 C 0.4386(9) 0.3019(11) 0.4554(5)
H14 H 0.5164 0.2912 0.4819
C23 C 0.3595(10) 0.2172(10) 0.4812(5)
H15 H 0.3835 0.1484 0.5250
O10 O 0.0029(5) 0.9848(5) 0.3810(2)
C24 C 0.1058(7) 0.8947(7) 0.3959(4)
Cu6 Cu 0.09021(8) 0.91545(9) 0.54611(5)
O9 O 0.2161(5) 0.7682(5) 0.6308(3)
H16 H 0.230069 0.809824 0.671636
H17 H 0.174657 0.694978 0.651491
O7 O 0.8112(5) 0.2685(6) 0.0658(4)
Cu8 Cu 0.90979(8) 0.08455(9) 0.45389(5)
H18 H 0.867322 0.323109 0.0759299
H19 H 0.743927 0.323613 0.0277689
O15 O 0.8371(4) 0.1508(5) 0.9278(3)
O16 O 0.9971(5) 0.0152(5) 0.6190(2)
O13 O 0.9574(5) 0.8166(5) 0.5599(3)
O11 O 0.1755(4) 0.0212(4) 0.9304(3)
O7_2 O 0.1888(5) 0.7315(6) 0.9342(4)
H18_2 H 0.132678 0.676891 0.92407
H19_2 H 0.256073 0.676387 0.972231
O9_2 O 0.7839(5) 0.2318(5) 0.3692(3)
O14 O 0.8417(5) 0.1563(5) 0.5412(3)
H16_2 H 0.769931 0.190176 0.328364
H17_2 H 0.825343 0.305022 0.348509
C1_2 C 0.8743(6) 0.0816(7) 0.8791(3)
O3_2 O 0.8011(5) 0.9588(5) 0.4817(3)
N1_2 N 0.5386(5) 0.4169(5) 0.7070(3)
C2_2 C 0.6496(6) 0.3124(6) 0.7184(4)
C3_2 C 0.1512(6) 0.1370(6) 0.9373(3)
C4_2 C 0.7041(7) 0.2490(6) 0.7907(4)
H1_2 H 0.6649 0.2819 0.8327
C5_2 C 0.8115(6) 0.1418(6) 0.8015(4)
C6_2 C 0.3035(7) 0.1844(7) 0.8339(4)
H2_2 H 0.2987 0.1060 0.8197
C7_2 C 0.8259(6) 0.1539(6) 0.6714(3)
C8_2 C 0.7172(7) 0.2626(7) 0.6588(4)
H3_2 H 0.6880 0.3041 0.6089
C9_2 C 0.3895(6) 0.3767(6) 0.8142(4)
C10_2 C 0.2336(6) 0.2222(6) 0.8938(4)
C11_2 C 0.2430(7) 0.3336(7) 0.9145(4)
H4_2 H 0.1964 0.3585 0.9569
C12_2 C 0.5083(7) 0.5037(7) 0.6345(4)
H5_2 H 0.5143 0.4486 0.5973
H6_2 H 0.4166 0.5576 0.6347
C13_2 C 0.8445(7) 0.8540(7) 0.5300(4)
C14_2 C 0.3204(7) 0.4112(7) 0.8739(4)
H7_2 H 0.3245 0.4895 0.8885
C15_2 C 0.3821(7) 0.2621(7) 0.7938(4)
H8_2 H 0.4307 0.2362 0.7522
C16_2 C 0.4700(7) 0.4652(7) 0.7701(4)
H9_2 H 0.5347 0.4735 0.8041
H10_2 H 0.4115 0.5550 0.7512
C17_2 C 0.5955(7) 0.5978(7) 0.6088(4)
C18_2 C 0.7044(7) 0.5872(8) 0.6478(5)
H11_2 H 0.7254 0.5215 0.6931
C19_2 C 0.7548(7) 0.7670(7) 0.5571(4)
C20_2 C 0.8740(8) 0.0947(7) 0.7404(4)
H12_2 H 0.9497 0.0215 0.7476
C21_2 C 0.7857(8) 0.6703(7) 0.6229(5)
H13_2 H 0.8617 0.6609 0.6506
C22_2 C 0.5614(9) 0.6981(11) 0.5446(5)
H14_2 H 0.4836 0.7088 0.5181
C23_2 C 0.6405(10) 0.7828(10) 0.5188(5)
H15_2 H 0.6165 0.8516 0.4750
C24_2 C 0.8942(7) 0.1053(7) 0.6041(4)
O8_2 O 0.9572(5) 0.9745(5) 0.8869(2)
loop_
_geom_bond_atom_site_label_1
_geom_bond_atom_site_label_2
_geom_bond_site_symmetry_1
_geom_bond_site_symmetry_2
O1 C3 1_555 1_555
C1 O6 1_555 1_555
O2 C3 1_555 1_555
O3 C13 1_555 1_555
O4 C13 1_555 1_555
O5 C24 1_555 1_555
N1 C2 1_555 1_555
C2 C4 1_555 1_555
C3 C10 1_555 1_555
C4 H1 1_555 1_555
C5 C1 1_555 1_555
C6 H2 1_555 1_555
C7 C8 1_555 1_555
C8 C2 1_555 1_555
H3 C8 1_555 1_555
C9 C14 1_555 1_555
C10 C6 1_555 1_555
C11 C10 1_555 1_555
H4 C11 1_555 1_555
C12 N1 1_555 1_555
H5 C12 1_555 1_555
H6 C12 1_555 1_555
C13 C19 1_555 1_555
C14 C11 1_555 1_555
H7 C14 1_555 1_555
C15 C6 1_555 1_555
H8 C15 1_555 1_555
C16 N1 1_555 1_555
H9 C16 1_555 1_555
H10 C16 1_555 1_555
C17 C12 1_555 1_555
C18 C17 1_555 1_555
H11 C18 1_555 1_555
C19 C21 1_555 1_555
C20 C5 1_555 1_555
H12 C20 1_555 1_555
C21 C18 1_555 1_555
H13 C21 1_555 1_555
C22 C17 1_555 1_555
H14 C22 1_555 1_555
C23 C19 1_555 1_555
H15 C23 1_555 1_555
O10 C24 1_555 1_555
C24 C7 1_555 1_555
Cu6 O5 1_555 1_555
C4 C5 1_555 1_555
C7 C20 1_555 1_555
C9 C15 1_555 1_555
C9 C16 1_555 1_555
C22 C23 1_555 1_555
O9 Cu6 1_555 1_555
O9 H16 1_555 1_555
O9 H17 1_555 1_555
Cu3 O7 1_555 1_555
O7 H18 1_555 1_555
O7 H19 1_555 1_555
Cu5 O7_2 1_555 1_555
O7_2 H18_2 1_555 1_555
O7_2 H19_2 1_555 1_555
O9_2 Cu8 1_555 1_555
O14 Cu8 1_555 1_555
O9_2 H16_2 1_555 1_555
O9_2 H17_2 1_555 1_555
O11 C3_2 1_555 1_555
C1_2 O15 1_555 1_555
O12 C3_2 1_555 1_555
O3_2 C13_2 1_555 1_555
O13 C13_2 1_555 1_555
O14 C24_2 1_555 1_555
N1_2 C2_2 1_555 1_555
C2_2 C4_2 1_555 1_555
C3_2 C10_2 1_555 1_555
C4_2 H1_2 1_555 1_555
C5_2 C1_2 1_555 1_555
C6_2 H2_2 1_555 1_555
C7_2 C8_2 1_555 1_555
C8_2 C2_2 1_555 1_555
H3_2 C8_2 1_555 1_555
C9_2 C14_2 1_555 1_555
C10_2 C6_2 1_555 1_555
C11_2 C10_2 1_555 1_555
H4_2 C11_2 1_555 1_555
C12_2 N1_2 1_555 1_555
H5_2 C12_2 1_555 1_555
H6_2 C12_2 1_555 1_555
C13_2 C19_2 1_555 1_555
C14_2 C11_2 1_555 1_555
H7_2 C14_2 1_555 1_555
C15_2 C6_2 1_555 1_555
H8_2 C15_2 1_555 1_555
C16_2 N1_2 1_555 1_555
H9_2 C16_2 1_555 1_555
H10_2 C16_2 1_555 1_555
C17_2 C12_2 1_555 1_555
C18_2 C17_2 1_555 1_555
H11_2 C18_2 1_555 1_555
C19_2 C21_2 1_555 1_555
C20_2 C5_2 1_555 1_555
H12_2 C20_2 1_555 1_555
C21_2 C18_2 1_555 1_555
H13_2 C21_2 1_555 1_555
C22_2 C17_2 1_555 1_555
H14_2 C22_2 1_555 1_555
C23_2 C19_2 1_555 1_555
H15_2 C23_2 1_555 1_555
O16 C24_2 1_555 1_555
C24_2 C7_2 1_555 1_555
C4_2 C5_2 1_555 1_555
C7_2 C20_2 1_555 1_555
C9_2 C15_2 1_555 1_555
C9_2 C16_2 1_555 1_555
C22_2 C23_2 1_555 1_555

#END
