
###############################################################################
#
# This file contains modified crystal structure data generated from the
# MOF subset of the Cambridge Structural Database (CSD) v543 
# hosted by the Cambridge Crystallographic Data Centre (CCDC).
#
# This work is licensed under the Creative Commons
# Attribution-NonCommercial-ShareAlike 4.0 International License.
# To view a copy of this license, visit
# http://creativecommons.org/licenses/by-nc-sa/4.0/
# or send a letter to
# Creative Commons, PO Box 1866, Mountain View, CA 94042, USA.
#
# CIF created using the CSD Python API on 29 September 2022
# The structure has been converted into the P1 space group
# The structure has a 3D framework
# The original CSD entry ZIKJIO is in the monoclinic crystal system
# The framework has been calculated to contain at least 10.0% void space
# The void calculation uses a probe of radius 1.32A, grid spacing 0.4
#
###############################################################################

data_ZIKJIO
_chemical_formula_moiety         '(C124 H118 Cu8 N14 O38)n'
_symmetry_cell_setting           triclinic
_symmetry_space_group_name_H-M   'P 1'
_symmetry_Int_Tables_number      1
_space_group_name_Hall           'P 1'
loop_
_symmetry_equiv_pos_site_id
_symmetry_equiv_pos_as_xyz
1 x,y,z
_cell_length_a                   15.1849(4)
_cell_length_b                   17.0797(4)
_cell_length_c                   18.8731(4)
_cell_angle_alpha                90
_cell_angle_beta                 97.172(2)
_cell_angle_gamma                90
_cell_volume                     4856.51
loop_
_atom_site_label
_atom_site_type_symbol
_atom_site_fract_x
_atom_site_fract_y
_atom_site_fract_z
Cu7 Cu 0.033653(19) 0.061846(17) 0.472050(14)
Cu1 Cu 0.466347(19) 0.438154(17) 0.527950(14)
O2 O 0.35116(11) 0.48201(10) 0.48740(9)
O3 O 0.41026(11) 0.58658(11) 0.43865(10)
O4 O 0.03542(12) 0.99827(10) 0.38531(8)
O5 O 0.41061(12) 0.33094(11) 0.56279(10)
N1 N -0.0000 0.68140(16) 0.2500
C1 C 0.00435(13) 0.80497(14) 0.31420(11)
H1 H 0.0072 0.7778 0.3583
C2 C -0.0000 0.76216(18) 0.2500
C3 C 0.00452(14) 0.88601(14) 0.31400(10)
C4 C 0.0000 0.92797(19) 0.2500
H2 H -0.0000 0.9836 0.2500
C5 C 0.34657(15) 0.54384(14) 0.45008(11)
C6 C 0.08916(15) 0.61305(14) 0.35009(13)
C7 C 0.25629(17) 0.56764(13) 0.41647(14)
C8 C 0.18022(18) 0.53126(15) 0.43448(15)
H3 H 0.1850 0.4908 0.4693
C9 C 0.09681(19) 0.55415(16) 0.40146(17)
H4 H 0.0450 0.5294 0.4141
C10 C 0.16490(16) 0.64951(16) 0.33304(14)
H5 H 0.1601 0.6900 0.2983
C12 C 0.24798(17) 0.62756(16) 0.36614(14)
H8 H 0.2995 0.6536 0.3544
N2 N 0.2891(2) 0.2622(2) 0.59122(18)
C13 C 0.3305(2) 0.3270(2) 0.57616(17)
H9 H 0.2979 0.3746 0.5752
C14 C 0.1975(4) 0.2647(4) 0.6107(4)
H10 H 0.1982 0.2494 0.6608
H11 H 0.1598 0.2285 0.5802
H12 H 0.1739 0.3180 0.6040
C15 C 0.3348(4) 0.1869(2) 0.5907(3)
H13 H 0.3969 0.1956 0.5834
H14 H 0.3057 0.1543 0.5520
H15 H 0.3326 0.1603 0.6365
C16 C 0.00732(15) 0.92902(13) 0.38323(12)
O6 O 0.01998(12) 0.89233(10) 0.06597(8)
C25 C 0.00207(16) 0.63602(15) 0.18569(14)
H20 H 0.0372 0.5879 0.1975
H21 H 0.0326 0.6668 0.1515
Cu5 Cu 0.533653(19) 0.561846(17) 0.472050(14)
O11 O 0.48002(12) 0.39233(10) 0.43403(8)
O13 O 0.58974(11) 0.41342(11) 0.56135(10)
O15 O 0.46458(12) 0.50173(10) 0.61469(8)
O1 O 0.98002(12) 0.89233(10) 0.43403(8)
N1_2 N 1.0000 0.68140(16) 0.2500
C2_2 C 1.0000 0.76216(18) 0.2500
C4_2 C 1.0000 0.92797(19) 0.2500
H2_2 H 1.0000 0.9836 0.2500
C11 C 0.99793(16) 0.63602(15) 0.31431(14)
H6 H 0.9628 0.5879 0.3025
H7 H 0.9674 0.6668 0.3485
O7 O 0.64884(11) 0.48201(10) 0.01260(9)
O8 O 0.58974(11) 0.58658(11) 0.06135(10)
O9 O 0.96458(12) 0.99827(10) 0.11469(8)
C17 C 0.99565(13) 0.80497(14) 0.18580(11)
H16 H 0.9928 0.7778 0.1417
C18 C 0.99548(14) 0.88601(14) 0.18600(10)
C19 C 0.65343(15) 0.54384(14) 0.04992(11)
C20 C 0.91084(15) 0.61305(14) 0.14991(13)
C21 C 0.74371(17) 0.56764(13) 0.08353(14)
C22 C 0.81978(18) 0.53126(15) 0.06552(15)
H17 H 0.8150 0.4908 0.0307
C23 C 0.90319(19) 0.55415(16) 0.09854(17)
H18 H 0.9550 0.5294 0.0859
C24 C 0.83510(16) 0.64951(16) 0.16696(14)
H19 H 0.8399 0.6900 0.2017
C26 C 0.75202(17) 0.62756(16) 0.13386(14)
H22 H 0.7005 0.6536 0.1456
C27 C 0.99268(15) 0.92902(13) 0.11677(12)
Cu3 Cu 0.966347(19) 0.938154(17) 0.527950(14)
Cu6 Cu 0.466347(19) 0.561846(17) 0.027950(14)
O12 O 0.51998(12) 0.39233(10) 0.06597(8)
Cu2 Cu 0.533653(19) 0.438154(17) 0.972050(14)
O10 O 0.58939(12) 0.33094(11) 0.93721(10)
N3 N 0.7109(2) 0.2622(2) 0.90878(18)
C28 C 0.6695(2) 0.3270(2) 0.92384(17)
H23 H 0.7021 0.3746 0.9248
C29 C 0.8025(4) 0.2647(4) 0.8893(4)
H24 H 0.8018 0.2494 0.8392
H25 H 0.8402 0.2285 0.9198
H26 H 0.8261 0.3180 0.8960
C30 C 0.6652(4) 0.1869(2) 0.9093(3)
H27 H 0.6031 0.1956 0.9166
H28 H 0.6943 0.1543 0.9480
H29 H 0.6674 0.1603 0.8635
O14 O 0.41026(11) 0.41342(11) 0.93865(10)
O16 O 0.53542(12) 0.50173(10) 0.88531(8)
O13_2 O 0.08974(11) 0.91342(11) 0.56135(10)
O3_2 O 0.91026(11) 0.08658(11) 0.43865(10)
O4_2 O 0.53542(12) 0.49827(10) 0.38531(8)
N1_3 N 0.5000 0.18140(16) 0.2500
C1_2 C 0.50435(13) 0.30497(14) 0.31420(11)
H1_2 H 0.5072 0.2778 0.3583
C2_3 C 0.5000 0.26216(18) 0.2500
C3_2 C 0.50452(14) 0.38601(14) 0.31400(10)
C4_3 C 0.5000 0.42797(19) 0.2500
H2_3 H 0.5000 0.4836 0.2500
C5_2 C 0.84657(15) 0.04384(14) 0.45008(11)
C6_2 C 0.58916(15) 0.11305(14) 0.35009(13)
C7_2 C 0.75629(17) 0.06764(13) 0.41647(14)
C8_2 C 0.68022(18) 0.03126(15) 0.43448(15)
C9_2 C 0.59681(19) 0.05415(16) 0.40146(17)
H4_2 H 0.5450 0.0294 0.4141
C10_2 C 0.66490(16) 0.14951(16) 0.33304(14)
H5_2 H 0.6601 0.1900 0.2983
C11_2 C 0.49793(16) 0.13602(15) 0.31431(14)
H6_2 H 0.4628 0.0879 0.3025
H7_2 H 0.4674 0.1668 0.3485
C12_2 C 0.74798(17) 0.12756(16) 0.36614(14)
H8_2 H 0.7995 0.1536 0.3544
C16_2 C 0.50732(15) 0.42902(13) 0.38323(12)
O8_2 O 0.08974(11) 0.08658(11) 0.06135(10)
O9_2 O 0.46458(12) 0.49827(10) 0.11469(8)
C17_2 C 0.49565(13) 0.30497(14) 0.18580(11)
H16_2 H 0.4928 0.2778 0.1417
C18_2 C 0.49548(14) 0.38601(14) 0.18600(10)
C19_2 C 0.15343(15) 0.04384(14) 0.04992(11)
C20_2 C 0.41084(15) 0.11305(14) 0.14991(13)
C21_2 C 0.24371(17) 0.06764(13) 0.08353(14)
C22_2 C 0.31978(18) 0.03126(15) 0.06552(15)
C23_2 C 0.40319(19) 0.05415(16) 0.09854(17)
H18_2 H 0.4550 0.0294 0.0859
C24_2 C 0.33510(16) 0.14951(16) 0.16696(14)
H19_2 H 0.3399 0.1900 0.2017
C25_2 C 0.50207(16) 0.13602(15) 0.18569(14)
H20_2 H 0.5372 0.0879 0.1975
H21_2 H 0.5326 0.1668 0.1515
C26_2 C 0.25202(17) 0.12756(16) 0.13386(14)
H22_2 H 0.2005 0.1536 0.1456
C27_2 C 0.49268(15) 0.42902(13) 0.11677(12)
O15_2 O 0.96458(12) 0.00173(10) 0.61469(8)
O16_2 O 0.03542(12) 0.00173(10) 0.88531(8)
O2_2 O 0.85116(11) 0.98201(10) 0.48740(9)
O5_2 O 0.91061(12) 0.83094(11) 0.56279(10)
H3_2 H 0.6850 0.9908 0.4693
N2_2 N 0.7891(2) 0.7622(2) 0.59122(18)
C13_2 C 0.8305(2) 0.8270(2) 0.57616(17)
H9_2 H 0.7979 0.8746 0.5752
C14_2 C 0.6975(4) 0.7647(4) 0.6107(4)
H10_2 H 0.6982 0.7494 0.6608
H11_2 H 0.6598 0.7285 0.5802
H12_2 H 0.6739 0.8180 0.6040
C15_2 C 0.8348(4) 0.6869(2) 0.5907(3)
H13_2 H 0.8969 0.6956 0.5834
H14_2 H 0.8057 0.6543 0.5520
H15_2 H 0.8326 0.6603 0.6365
O7_2 O 0.14884(11) 0.98201(10) 0.01260(9)
H17_2 H 0.3150 0.9908 0.0307
O14_2 O 0.91026(11) 0.91342(11) 0.93865(10)
O10_2 O 0.41061(12) 0.66906(11) 0.06279(10)
N3_2 N 0.2891(2) 0.7378(2) 0.09122(18)
C28_2 C 0.3305(2) 0.6730(2) 0.07616(17)
H23_2 H 0.2979 0.6254 0.0752
C29_2 C 0.1975(4) 0.7353(4) 0.1107(4)
H24_2 H 0.1982 0.7506 0.1608
H25_2 H 0.1598 0.7715 0.0802
H26_2 H 0.1739 0.6820 0.1040
C30_2 C 0.3348(4) 0.8131(2) 0.0907(3)
H27_2 H 0.3969 0.8044 0.0834
H28_2 H 0.3057 0.8457 0.0520
H29_2 H 0.3326 0.8397 0.1365
O1_2 O 0.01998(12) 0.10767(10) 0.56597(8)
N1_4 N -0.0000 0.31860(16) 0.7500
C2_4 C 0.0000 0.23784(18) 0.7500
C4_4 C -0.0000 0.07203(19) 0.7500
H2_4 H 0.0000 0.0164 0.7500
C11_3 C 0.00207(16) 0.36398(15) 0.68569(14)
H6_3 H 0.0372 0.4121 0.6975
H7_3 H 0.0326 0.3332 0.6515
O7_3 O 0.35116(11) 0.51799(10) 0.98740(9)
C17_3 C 0.00435(13) 0.19503(14) 0.81420(11)
H16_3 H 0.0072 0.2222 0.8583
C18_3 C 0.00452(14) 0.11399(14) 0.81400(10)
C19_3 C 0.34657(15) 0.45616(14) 0.95008(11)
C20_3 C 0.08916(15) 0.38695(14) 0.85009(13)
C21_3 C 0.25629(17) 0.43236(13) 0.91647(14)
C22_3 C 0.18022(18) 0.46874(15) 0.93448(15)
H17_3 H 0.1850 0.5092 0.9693
C23_3 C 0.09681(19) 0.44585(16) 0.90146(17)
H18_3 H 0.0450 0.4706 0.9141
C24_3 C 0.16490(16) 0.35049(16) 0.83304(14)
H19_3 H 0.1601 0.3100 0.7983
C26_3 C 0.24798(17) 0.37244(16) 0.86614(14)
H22_3 H 0.2995 0.3464 0.8544
C27_3 C 0.00732(15) 0.07098(13) 0.88323(12)
O12_2 O 0.48002(12) 0.60767(10) 0.93403(8)
O2_3 O 0.64884(11) 0.51799(10) 0.51260(9)
O5_3 O 0.58939(12) 0.66906(11) 0.43721(10)
N1_5 N 1.0000 0.31860(16) 0.7500
C1_3 C 0.99565(13) 0.19503(14) 0.68580(11)
H1_3 H 0.9928 0.2222 0.6417
C2_5 C 1.0000 0.23784(18) 0.7500
C3_3 C 0.99548(14) 0.11399(14) 0.68600(10)
C4_5 C 1.0000 0.07203(19) 0.7500
H2_5 H 1.0000 0.0164 0.7500
C5_3 C 0.65343(15) 0.45616(14) 0.54992(11)
C6_3 C 0.91084(15) 0.38695(14) 0.64991(13)
C7_3 C 0.74371(17) 0.43236(13) 0.58353(14)
C8_3 C 0.81978(18) 0.46874(15) 0.56552(15)
H3_3 H 0.8150 0.5092 0.5307
C9_3 C 0.90319(19) 0.44585(16) 0.59854(17)
H4_3 H 0.9550 0.4706 0.5859
C10_3 C 0.83510(16) 0.35049(16) 0.66696(14)
H5_3 H 0.8399 0.3100 0.7017
C12_3 C 0.75202(17) 0.37244(16) 0.63386(14)
H8_3 H 0.7005 0.3464 0.6456
N2_3 N 0.7109(2) 0.7378(2) 0.40878(18)
C13_3 C 0.6695(2) 0.6730(2) 0.42384(17)
H9_3 H 0.7021 0.6254 0.4248
C14_3 C 0.8025(4) 0.7353(4) 0.3893(4)
H10_3 H 0.8018 0.7506 0.3392
H11_3 H 0.8402 0.7715 0.4198
H12_3 H 0.8261 0.6820 0.3960
C15_3 C 0.6652(4) 0.8131(2) 0.4093(3)
H13_3 H 0.6031 0.8044 0.4166
H14_3 H 0.6943 0.8457 0.4480
H15_3 H 0.6674 0.8397 0.3635
C16_3 C 0.99268(15) 0.07098(13) 0.61677(12)
O6_2 O 0.98002(12) 0.10767(10) 0.93403(8)
C25_3 C 0.99793(16) 0.36398(15) 0.81431(14)
H20_3 H 0.9628 0.4121 0.8025
H21_3 H 0.9674 0.3332 0.8485
O11_2 O 0.51998(12) 0.60767(10) 0.56597(8)
O2_4 O 0.14884(11) 0.01799(10) 0.51260(9)
O5_4 O 0.08939(12) 0.16906(11) 0.43721(10)
H3_4 H 0.3150 0.0092 0.5307
N2_4 N 0.2109(2) 0.2378(2) 0.40878(18)
C13_4 C 0.1695(2) 0.1730(2) 0.42384(17)
H9_4 H 0.2021 0.1254 0.4248
C14_4 C 0.3025(4) 0.2353(4) 0.3893(4)
H10_4 H 0.3018 0.2506 0.3392
H11_4 H 0.3402 0.2715 0.4198
H12_4 H 0.3261 0.1820 0.3960
C15_4 C 0.1652(4) 0.3131(2) 0.4093(3)
H13_4 H 0.1031 0.3044 0.4166
H14_4 H 0.1943 0.3457 0.4480
H15_4 H 0.1674 0.3397 0.3635
O7_4 O 0.85116(11) 0.01799(10) 0.98740(9)
H17_4 H 0.6850 0.0092 0.9693
N1_6 N 0.5000 0.81860(16) 0.7500
C1_4 C 0.49565(13) 0.69503(14) 0.68580(11)
H1_4 H 0.4928 0.7222 0.6417
C2_6 C 0.5000 0.73784(18) 0.7500
C3_4 C 0.49548(14) 0.61399(14) 0.68600(10)
C4_6 C 0.5000 0.57203(19) 0.7500
H2_6 H 0.5000 0.5164 0.7500
C5_4 C 0.15343(15) 0.95616(14) 0.54992(11)
C6_4 C 0.41084(15) 0.88695(14) 0.64991(13)
C7_4 C 0.24371(17) 0.93236(13) 0.58353(14)
C8_4 C 0.31978(18) 0.96874(15) 0.56552(15)
C9_4 C 0.40319(19) 0.94585(16) 0.59854(17)
H4_4 H 0.4550 0.9706 0.5859
C10_4 C 0.33510(16) 0.85049(16) 0.66696(14)
H5_4 H 0.3399 0.8100 0.7017
C11_4 C 0.50207(16) 0.86398(15) 0.68569(14)
H6_4 H 0.5372 0.9121 0.6975
H7_4 H 0.5326 0.8332 0.6515
C12_4 C 0.25202(17) 0.87244(16) 0.63386(14)
H8_4 H 0.2005 0.8464 0.6456
C16_4 C 0.49268(15) 0.57098(13) 0.61677(12)
C17_4 C 0.50435(13) 0.69503(14) 0.81420(11)
H16_4 H 0.5072 0.7222 0.8583
C18_4 C 0.50452(14) 0.61399(14) 0.81400(10)
C19_4 C 0.84657(15) 0.95616(14) 0.95008(11)
C20_4 C 0.58916(15) 0.88695(14) 0.85009(13)
C21_4 C 0.75629(17) 0.93236(13) 0.91647(14)
C22_4 C 0.68022(18) 0.96874(15) 0.93448(15)
C23_4 C 0.59681(19) 0.94585(16) 0.90146(17)
H18_4 H 0.5450 0.9706 0.9141
C24_4 C 0.66490(16) 0.85049(16) 0.83304(14)
H19_4 H 0.6601 0.8100 0.7983
C25_4 C 0.49793(16) 0.86398(15) 0.81431(14)
H20_4 H 0.4628 0.9121 0.8025
H21_4 H 0.4674 0.8332 0.8485
C26_4 C 0.74798(17) 0.87244(16) 0.86614(14)
H22_4 H 0.7995 0.8464 0.8544
C27_4 C 0.50732(15) 0.57098(13) 0.88323(12)
Cu4 Cu 0.033653(19) 0.938154(17) 0.972050(14)
O10_3 O 0.08939(12) 0.83094(11) 0.93721(10)
N3_3 N 0.2109(2) 0.7622(2) 0.90878(18)
C28_3 C 0.1695(2) 0.8270(2) 0.92384(17)
H23_3 H 0.2021 0.8746 0.9248
C29_3 C 0.3025(4) 0.7647(4) 0.8893(4)
H24_3 H 0.3018 0.7494 0.8392
H25_3 H 0.3402 0.7285 0.9198
H26_3 H 0.3261 0.8180 0.8960
C30_3 C 0.1652(4) 0.6869(2) 0.9093(3)
H27_3 H 0.1031 0.6956 0.9166
H28_3 H 0.1943 0.6543 0.9480
H29_3 H 0.1674 0.6603 0.8635
Cu8 Cu 0.966347(19) 0.061846(17) 0.027950(14)
O10_4 O 0.91061(12) 0.16906(11) 0.06279(10)
N3_4 N 0.7891(2) 0.2378(2) 0.09122(18)
C28_4 C 0.8305(2) 0.1730(2) 0.07616(17)
H23_4 H 0.7979 0.1254 0.0752
C29_4 C 0.6975(4) 0.2353(4) 0.1107(4)
H24_4 H 0.6982 0.2506 0.1608
H25_4 H 0.6598 0.2715 0.0802
H26_4 H 0.6739 0.1820 0.1040
C30_4 C 0.8348(4) 0.3131(2) 0.0907(3)
H27_4 H 0.8969 0.3044 0.0834
H28_4 H 0.8057 0.3457 0.0520
H29_4 H 0.8326 0.3397 0.1365
loop_
_geom_bond_atom_site_label_1
_geom_bond_atom_site_label_2
_geom_bond_site_symmetry_1
_geom_bond_site_symmetry_2
Cu1 O2 1_555 1_555
O2 C5 1_555 1_555
O3 C5 1_555 1_555
O4 C16 1_555 1_555
O5 Cu1 1_555 1_555
N1 C2 1_555 1_555
C1 H1 1_555 1_555
C2 C1 1_555 1_555
C3 C1 1_555 1_555
C4 C3 1_555 1_555
H2 C4 1_555 1_555
C5 C7 1_555 1_555
C6 C9 1_555 1_555
C7 C8 1_555 1_555
C8 H3 1_555 1_555
C9 C8 1_555 1_555
H4 C9 1_555 1_555
C10 C6 1_555 1_555
H5 C10 1_555 1_555
C12 C7 1_555 1_555
H8 C12 1_555 1_555
N2 C13 1_555 1_555
C13 O5 1_555 1_555
H9 C13 1_555 1_555
C14 N2 1_555 1_555
H10 C14 1_555 1_555
H11 C14 1_555 1_555
H12 C14 1_555 1_555
C15 N2 1_555 1_555
H13 C15 1_555 1_555
H14 C15 1_555 1_555
H15 C15 1_555 1_555
C16 C3 1_555 1_555
C25 N1 1_555 1_555
H20 C25 1_555 1_555
H21 C25 1_555 1_555
Cu5 O3 1_555 1_555
O11 Cu1 1_555 1_555
O13 Cu1 1_555 1_555
O15 Cu1 1_555 1_555
C10 C12 1_555 1_555
N1_2 C2_2 1_555 1_555
H2_2 C4_2 1_555 1_555
C11 N1_2 1_555 1_555
H6 C11 1_555 1_555
H7 C11 1_555 1_555
O7 C19 1_555 1_555
O8 C19 1_555 1_555
O9 C27 1_555 1_555
C17 C2_2 1_555 1_555
H16 C17 1_555 1_555
C18 C4_2 1_555 1_555
C19 C21 1_555 1_555
C20 C23 1_555 1_555
C21 C22 1_555 1_555
C22 H17 1_555 1_555
C23 C22 1_555 1_555
H18 C23 1_555 1_555
C24 C20 1_555 1_555
H19 C24 1_555 1_555
C26 C21 1_555 1_555
H22 C26 1_555 1_555
C27 C18 1_555 1_555
Cu3 O1 1_555 1_555
Cu6 O8 1_555 1_555
C17 C18 1_555 1_555
C24 C26 1_555 1_555
O10 Cu2 1_555 1_555
N3 C28 1_555 1_555
C28 O10 1_555 1_555
H23 C28 1_555 1_555
C29 N3 1_555 1_555
H24 C29 1_555 1_555
H25 C29 1_555 1_555
H26 C29 1_555 1_555
C30 N3 1_555 1_555
H27 C30 1_555 1_555
H28 C30 1_555 1_555
H29 C30 1_555 1_555
O14 Cu2 1_555 1_555
O16 Cu2 1_555 1_555
O11 C16_2 1_555 1_555
O3_2 C5_2 1_555 1_555
O4_2 C16_2 1_555 1_555
N1_3 C2_3 1_555 1_555
C1_2 H1_2 1_555 1_555
C2_3 C1_2 1_555 1_555
C3_2 C1_2 1_555 1_555
C4_3 C3_2 1_555 1_555
H2_3 C4_3 1_555 1_555
C5_2 C7_2 1_555 1_555
C6_2 C9_2 1_555 1_555
C7_2 C8_2 1_555 1_555
C9_2 C8_2 1_555 1_555
H4_2 C9_2 1_555 1_555
C10_2 C6_2 1_555 1_555
H5_2 C10_2 1_555 1_555
C11_2 N1_3 1_555 1_555
H6_2 C11_2 1_555 1_555
H7_2 C11_2 1_555 1_555
C12_2 C7_2 1_555 1_555
H8_2 C12_2 1_555 1_555
C16_2 C3_2 1_555 1_555
O12 C27_2 1_555 1_555
O8_2 C19_2 1_555 1_555
O9_2 C27_2 1_555 1_555
C17_2 C2_3 1_555 1_555
H16_2 C17_2 1_555 1_555
C18_2 C4_3 1_555 1_555
C19_2 C21_2 1_555 1_555
C20_2 C23_2 1_555 1_555
C21_2 C22_2 1_555 1_555
C23_2 C22_2 1_555 1_555
H18_2 C23_2 1_555 1_555
C24_2 C20_2 1_555 1_555
H19_2 C24_2 1_555 1_555
C25_2 N1_3 1_555 1_555
H20_2 C25_2 1_555 1_555
H21_2 C25_2 1_555 1_555
C26_2 C21_2 1_555 1_555
H22_2 C26_2 1_555 1_555
C27_2 C18_2 1_555 1_555
Cu5 O4_2 1_555 1_555
Cu6 O9_2 1_555 1_555
C6_2 C11_2 1_555 1_555
C10_2 C12_2 1_555 1_555
C17_2 C18_2 1_555 1_555
C20_2 C25_2 1_555 1_555
C24_2 C26_2 1_555 1_555
Cu3 O2_2 1_555 1_555
O5_2 Cu3 1_555 1_555
N2_2 C13_2 1_555 1_555
C13_2 O5_2 1_555 1_555
H9_2 C13_2 1_555 1_555
C14_2 N2_2 1_555 1_555
H10_2 C14_2 1_555 1_555
H11_2 C14_2 1_555 1_555
H12_2 C14_2 1_555 1_555
C15_2 N2_2 1_555 1_555
H13_2 C15_2 1_555 1_555
H14_2 C15_2 1_555 1_555
H15_2 C15_2 1_555 1_555
O10_2 Cu6 1_555 1_555
N3_2 C28_2 1_555 1_555
C28_2 O10_2 1_555 1_555
H23_2 C28_2 1_555 1_555
C29_2 N3_2 1_555 1_555
H24_2 C29_2 1_555 1_555
H25_2 C29_2 1_555 1_555
H26_2 C29_2 1_555 1_555
C30_2 N3_2 1_555 1_555
H27_2 C30_2 1_555 1_555
H28_2 C30_2 1_555 1_555
H29_2 C30_2 1_555 1_555
N1_4 C2_4 1_555 1_555
H2_4 C4_4 1_555 1_555
C11_3 N1_4 1_555 1_555
H6_3 C11_3 1_555 1_555
H7_3 C11_3 1_555 1_555
O7_3 C19_3 1_555 1_555
O14 C19_3 1_555 1_555
O16_2 C27_3 1_555 1_555
C17_3 C2_4 1_555 1_555
H16_3 C17_3 1_555 1_555
C18_3 C4_4 1_555 1_555
C19_3 C21_3 1_555 1_555
C20_3 C23_3 1_555 1_555
C21_3 C22_3 1_555 1_555
C22_3 H17_3 1_555 1_555
C23_3 C22_3 1_555 1_555
H18_3 C23_3 1_555 1_555
C24_3 C20_3 1_555 1_555
H19_3 C24_3 1_555 1_555
C26_3 C21_3 1_555 1_555
H22_3 C26_3 1_555 1_555
C27_3 C18_3 1_555 1_555
Cu7 O1_2 1_555 1_555
C17_3 C18_3 1_555 1_555
C24_3 C26_3 1_555 1_555
Cu5 O2_3 1_555 1_555
O2_3 C5_3 1_555 1_555
O13 C5_3 1_555 1_555
O15_2 C16_3 1_555 1_555
O5_3 Cu5 1_555 1_555
N1_5 C2_5 1_555 1_555
C1_3 H1_3 1_555 1_555
C2_5 C1_3 1_555 1_555
C3_3 C1_3 1_555 1_555
C4_5 C3_3 1_555 1_555
H2_5 C4_5 1_555 1_555
C5_3 C7_3 1_555 1_555
C6_3 C9_3 1_555 1_555
C7_3 C8_3 1_555 1_555
C8_3 H3_3 1_555 1_555
C9_3 C8_3 1_555 1_555
H4_3 C9_3 1_555 1_555
C10_3 C6_3 1_555 1_555
H5_3 C10_3 1_555 1_555
C12_3 C7_3 1_555 1_555
H8_3 C12_3 1_555 1_555
N2_3 C13_3 1_555 1_555
C13_3 O5_3 1_555 1_555
H9_3 C13_3 1_555 1_555
C14_3 N2_3 1_555 1_555
H10_3 C14_3 1_555 1_555
H11_3 C14_3 1_555 1_555
H12_3 C14_3 1_555 1_555
C15_3 N2_3 1_555 1_555
H13_3 C15_3 1_555 1_555
H14_3 C15_3 1_555 1_555
H15_3 C15_3 1_555 1_555
C16_3 C3_3 1_555 1_555
C25_3 N1_5 1_555 1_555
H20_3 C25_3 1_555 1_555
H21_3 C25_3 1_555 1_555
O11_2 Cu5 1_555 1_555
C10_3 C12_3 1_555 1_555
Cu7 O2_4 1_555 1_555
O5_4 Cu7 1_555 1_555
N2_4 C13_4 1_555 1_555
C13_4 O5_4 1_555 1_555
H9_4 C13_4 1_555 1_555
C14_4 N2_4 1_555 1_555
H10_4 C14_4 1_555 1_555
H11_4 C14_4 1_555 1_555
H12_4 C14_4 1_555 1_555
C15_4 N2_4 1_555 1_555
H13_4 C15_4 1_555 1_555
H14_4 C15_4 1_555 1_555
H15_4 C15_4 1_555 1_555
O11_2 C16_4 1_555 1_555
O13_2 C5_4 1_555 1_555
O15 C16_4 1_555 1_555
N1_6 C2_6 1_555 1_555
C1_4 H1_4 1_555 1_555
C2_6 C1_4 1_555 1_555
C3_4 C1_4 1_555 1_555
C4_6 C3_4 1_555 1_555
H2_6 C4_6 1_555 1_555
C5_4 C7_4 1_555 1_555
C6_4 C9_4 1_555 1_555
C7_4 C8_4 1_555 1_555
C9_4 C8_4 1_555 1_555
H4_4 C9_4 1_555 1_555
C10_4 C6_4 1_555 1_555
H5_4 C10_4 1_555 1_555
C11_4 N1_6 1_555 1_555
H6_4 C11_4 1_555 1_555
H7_4 C11_4 1_555 1_555
C12_4 C7_4 1_555 1_555
H8_4 C12_4 1_555 1_555
C16_4 C3_4 1_555 1_555
O12_2 C27_4 1_555 1_555
O14_2 C19_4 1_555 1_555
O16 C27_4 1_555 1_555
C17_4 C2_6 1_555 1_555
H16_4 C17_4 1_555 1_555
C18_4 C4_6 1_555 1_555
C19_4 C21_4 1_555 1_555
C20_4 C23_4 1_555 1_555
C21_4 C22_4 1_555 1_555
C23_4 C22_4 1_555 1_555
H18_4 C23_4 1_555 1_555
C24_4 C20_4 1_555 1_555
H19_4 C24_4 1_555 1_555
C25_4 N1_6 1_555 1_555
H20_4 C25_4 1_555 1_555
H21_4 C25_4 1_555 1_555
C26_4 C21_4 1_555 1_555
H22_4 C26_4 1_555 1_555
C27_4 C18_4 1_555 1_555
C6_4 C11_4 1_555 1_555
C10_4 C12_4 1_555 1_555
C17_4 C18_4 1_555 1_555
C20_4 C25_4 1_555 1_555
C24_4 C26_4 1_555 1_555
O10_3 Cu4 1_555 1_555
N3_3 C28_3 1_555 1_555
C28_3 O10_3 1_555 1_555
H23_3 C28_3 1_555 1_555
C29_3 N3_3 1_555 1_555
H24_3 C29_3 1_555 1_555
H25_3 C29_3 1_555 1_555
H26_3 C29_3 1_555 1_555
C30_3 N3_3 1_555 1_555
H27_3 C30_3 1_555 1_555
H28_3 C30_3 1_555 1_555
H29_3 C30_3 1_555 1_555
O10_4 Cu8 1_555 1_555
N3_4 C28_4 1_555 1_555
C28_4 O10_4 1_555 1_555
H23_4 C28_4 1_555 1_555
C29_4 N3_4 1_555 1_555
H24_4 C29_4 1_555 1_555
H25_4 C29_4 1_555 1_555
H26_4 C29_4 1_555 1_555
C30_4 N3_4 1_555 1_555
H27_4 C30_4 1_555 1_555
H28_4 C30_4 1_555 1_555
H29_4 C30_4 1_555 1_555

#END
