
###############################################################################
#
# This file contains modified crystal structure data generated from the
# MOF subset of the Cambridge Structural Database (CSD) v543 
# hosted by the Cambridge Crystallographic Data Centre (CCDC).
#
# This work is licensed under the Creative Commons
# Attribution-NonCommercial-ShareAlike 4.0 International License.
# To view a copy of this license, visit
# http://creativecommons.org/licenses/by-nc-sa/4.0/
# or send a letter to
# Creative Commons, PO Box 1866, Mountain View, CA 94042, USA.
#
# CIF created using the CSD Python API on 29 September 2022
# The structure has been converted into the P1 space group
# The structure has a 3D framework
# The original CSD entry ZIKXAV is in the monoclinic crystal system
# The framework has been calculated to contain at least 10.0% void space
# The void calculation uses a probe of radius 1.32A, grid spacing 0.4
#
###############################################################################

data_ZIKXAV
_chemical_formula_moiety         '(C336 H208 Cd32 N16 O154)n'
_symmetry_cell_setting           triclinic
_symmetry_space_group_name_H-M   'P 1'
_symmetry_Int_Tables_number      1
_space_group_name_Hall           'P 1'
loop_
_symmetry_equiv_pos_site_id
_symmetry_equiv_pos_as_xyz
1 x,y,z
_cell_length_a                   27.459(4)
_cell_length_b                   24.215(3)
_cell_length_c                   18.917(3)
_cell_angle_alpha                90
_cell_angle_beta                 113.399(2)
_cell_angle_gamma                90
_cell_volume                     11543.9
loop_
_atom_site_label
_atom_site_type_symbol
_atom_site_fract_x
_atom_site_fract_y
_atom_site_fract_z
Cd1 Cd 0.18353(2) 0.43270(2) 0.32828(2)
Cd2 Cd 0.25005(2) 0.42829(2) 0.18720(2)
Cd4 Cd 0.08545(2) 0.27132(2) 0.10606(2)
O1 O 0.4524(2) 0.7011(2) 0.4836(3)
O2 O 0.4657(2) 0.6607(2) 0.5919(3)
O3 O 0.25215(18) 0.4912(2) 0.3595(2)
O4 O 0.21583(16) 0.37096(17) 0.25566(19)
H1 H 0.243255 0.346866 0.290008
H2 H 0.187176 0.348417 0.220722
O5 O 0.30267(18) 0.4720(2) 0.2945(2)
O6 O 0.17930(18) 0.4851(2) 0.1504(2)
O9 O 0.20959(18) 0.37549(18) 0.0813(2)
O10 O 0.16054(18) 0.31642(19) 0.1156(2)
O13 O 0.13063(18) 0.4713(2) 0.2196(2)
O14 O 0.3200(2) 0.3656(3) 0.2140(4)
H3 H 0.352830 0.374727 0.229894
H4 H 0.319247 0.330108 0.214541
O15 O 0.22609(18) 0.37972(19) 0.4299(2)
O16 O 0.3799(2) 0.21515(19) 0.7585(2)
O17 O 0.3695(2) 0.29454(19) 0.8044(2)
O18 O 0.2825(2) 0.3380(2) 0.3895(2)
O19 O 0.1098(2) 0.3767(2) 0.3100(3)
H5 H 0.112890 0.347908 0.288956
H6 H 0.081600 0.389378 0.286076
N2 N 0.2803(2) 0.5164(2) 0.6120(3)
C1 C 0.2981(2) 0.5421(3) 0.5639(3)
H7 H 0.295517 0.580369 0.560003
C2 C 0.3202(2) 0.5143(3) 0.5200(3)
C3 C 0.3446(2) 0.5451(2) 0.4751(3)
C4 C 0.3352(2) 0.5341(2) 0.3983(3)
C5 C 0.3642(2) 0.5635(2) 0.3642(3)
H8 H 0.359824 0.554869 0.314170
C6 C 0.3989(3) 0.6047(3) 0.4032(3)
H9 H 0.417253 0.624301 0.379308
C7 C 0.4065(2) 0.6167(3) 0.4785(3)
C8 C 0.3808(2) 0.5861(3) 0.5140(3)
H10 H 0.387690 0.592937 0.565517
C9 C 0.4442(3) 0.6617(3) 0.5213(4)
C10 C 0.2931(3) 0.4955(3) 0.3466(3)
C11 C 0.1386(3) 0.4922(3) 0.1638(3)
C12 C 0.0952(2) 0.5277(3) 0.1114(3)
C13 C 0.0852(2) 0.5354(3) 0.0336(3)
H13 H 0.155463 0.240864 0.005849
C25 C 0.1744(3) 0.3398(2) 0.0662(3)
H16 H 0.097840 0.426672 0.014636
C28 C 0.0203(3) 0.6044(3) 0.0258(3)
C29 C 0.0287(3) 0.5956(3) 0.1019(3)
H18 H 0.009717 0.615475 0.124538
C30 C 0.0654(3) 0.5572(3) 0.1433(3)
H19 H 0.070707 0.550637 0.194275
C32 C 0.2669(3) 0.3523(3) 0.4398(3)
C33 C 0.2978(2) 0.3327(2) 0.5214(3)
C34 C 0.3096(2) 0.3681(3) 0.5844(3)
C35 C 0.3040(2) 0.4286(2) 0.5757(3)
C36 C 0.2835(2) 0.4608(3) 0.6172(3)
H20 H 0.271072 0.443336 0.650617
C37 C 0.3233(2) 0.4564(2) 0.5271(3)
H21 H 0.338391 0.436222 0.499143
C38 C 0.3318(3) 0.3445(3) 0.6575(3)
H22 H 0.340373 0.367340 0.700213
C39 C 0.3418(3) 0.2886(3) 0.6692(3)
C40 C 0.3312(3) 0.2546(3) 0.6048(3)
H23 H 0.338844 0.217053 0.611046
C41 C 0.3095(3) 0.2773(3) 0.5327(3)
H24 H 0.302586 0.254701 0.490053
C42 C 0.3654(3) 0.2643(3) 0.7482(3)
Cd6 Cd 0.25005(2) 0.57171(2) 0.68720(2)
Cd7 Cd 0.50939(6) 0.74429(4) 0.60195(4)
Cd8 Cd 0.00939(6) 0.75571(4) 0.10195(4)
Cd9 Cd 0.41455(2) 0.77132(2) 0.39394(2)
Cd11 Cd 0.41455(2) 0.22868(2) 0.89394(2)
O22 O 0.0476(2) 0.2011(2) 0.0164(3)
O26 O 0.0391(2) 0.3556(2) 0.0916(2)
O27 O 0.1201(2) 0.28485(19) 0.2415(2)
O28 O 0.1305(2) 0.20546(19) 0.1956(2)
N3 N 0.1531(2) 0.4901(2) 0.4011(3)
N4 N 0.2803(2) 0.4836(2) 0.1120(3)
Cd3 Cd 0.00939(6) 0.24429(4) 0.60195(4)
O7 O 0.0613(3) 0.2183(3) 0.7346(3)
O8 O 0.0415(3) 0.3008(2) 0.7005(3)
N1 N 0.1531(2) 0.5099(2) 0.9011(3)
C14 C 0.1119(2) 0.5047(3) 0.9912(3)
C15 C 0.1335(2) 0.5340(3) 0.9482(3)
H11 H 0.134478 0.572327 0.951977
C16 C 0.1516(2) 0.4557(3) 0.8963(3)
H12 H 0.165186 0.439084 0.863715
C17 C 0.1309(2) 0.4212(2) 0.9370(3)
C18 C 0.1271(2) 0.3612(2) 0.9231(3)
C19 C 0.1467(2) 0.3213(2) 0.9829(3)
C20 C 0.1418(3) 0.2663(3) 0.9659(3)
C21 C 0.1170(3) 0.2472(3) 0.8909(3)
H14 H 0.114933 0.209582 0.880129
C22 C 0.0951(3) 0.2862(3) 0.8316(3)
C23 C 0.0998(3) 0.3404(3) 0.8480(3)
H15 H 0.084469 0.365322 0.807894
C24 C 0.0644(3) 0.2674(3) 0.7510(4)
C26 C 0.1114(2) 0.4476(3) 0.9855(3)
C27 C 0.0467(3) 0.5741(3) 0.9923(3)
H17 H 0.038965 0.579259 0.940234
O20 O 0.0763(5) 0.2331(5) 0.5682(7)
H25 H 0.108789 0.244948 0.590433
H26 H 0.080039 0.216309 0.529043
Cd5 Cd 0.18353(2) 0.56730(2) 0.82828(2)
O24 O 0.03183(18) 0.31341(19) 0.9860(2)
O11 O 0.96817(18) 0.68659(19) 0.0140(2)
O12 O 0.9609(2) 0.6444(2) 0.9084(2)
C31 C 0.9807(3) 0.6478(3) 0.9799(4)
Cd10 Cd 0.91455(2) 0.72868(2) 0.89394(2)
O21 O 0.9524(2) 0.2011(2) 0.4836(3)
O23 O 0.9657(2) 0.1607(2) 0.5919(3)
O25 O 0.96817(18) 0.31341(19) 0.5140(2)
O11_2 O 0.03183(18) 0.68659(19) 0.4860(2)
O12_2 O 0.0391(2) 0.6444(2) 0.5916(2)
C31_2 C 0.0193(3) 0.6478(3) 0.5201(4)
Cd10_2 Cd 0.08545(2) 0.72868(2) 0.60606(2)
O23_2 O 0.0343(2) 0.1607(2) 0.9081(3)
Cd1_2 Cd 0.81647(2) 0.43270(2) 0.17172(2)
Cd2_2 Cd 0.74995(2) 0.42829(2) 0.31280(2)
Cd3_2 Cd 0.99061(6) 0.24429(4) 0.89805(4)
Cd4_2 Cd 0.91455(2) 0.27132(2) 0.39394(2)
O1_2 O 0.5476(2) 0.7011(2) 0.0164(3)
O3_2 O 0.74785(18) 0.4912(2) 0.1405(2)
O4_2 O 0.78417(16) 0.37096(17) 0.24434(19)
H1_2 H 0.756745 0.346866 0.209992
H2_2 H 0.812824 0.348417 0.279278
O5_2 O 0.69733(18) 0.4720(2) 0.2055(2)
O6_2 O 0.82070(18) 0.4851(2) 0.3496(2)
O7_2 O 0.9387(3) 0.2183(3) 0.7654(3)
O8_2 O 0.9585(3) 0.3008(2) 0.7995(3)
O9_2 O 0.79041(18) 0.37549(18) 0.4187(2)
O10_2 O 0.83946(18) 0.31642(19) 0.3844(2)
O13_2 O 0.86937(18) 0.4713(2) 0.2804(2)
O14_2 O 0.6800(2) 0.3656(3) 0.2860(4)
H3_2 H 0.647170 0.374727 0.270106
H4_2 H 0.680753 0.330108 0.285459
O15_2 O 0.77391(18) 0.37972(19) 0.0701(2)
O18_2 O 0.7175(2) 0.3380(2) 0.1105(2)
O19_2 O 0.8902(2) 0.3767(2) 0.1900(3)
H5_2 H 0.887110 0.347908 0.211044
H6_2 H 0.918400 0.389378 0.213924
N1_2 N 0.8469(2) 0.5099(2) 0.5989(3)
C3_2 C 0.6554(2) 0.5451(2) 0.0249(3)
C4_2 C 0.6648(2) 0.5341(2) 0.1017(3)
C5_2 C 0.6358(2) 0.5635(2) 0.1358(3)
H8_2 H 0.640176 0.554869 0.185830
C6_2 C 0.6011(3) 0.6047(3) 0.0968(3)
H9_2 H 0.582747 0.624301 0.120692
C7_2 C 0.5935(2) 0.6167(3) 0.0215(3)
C10_2 C 0.7069(3) 0.4955(3) 0.1534(3)
C11_2 C 0.8614(3) 0.4922(3) 0.3362(3)
C12_2 C 0.9048(2) 0.5277(3) 0.3886(3)
C13_2 C 0.9148(2) 0.5354(3) 0.4664(3)
C14_2 C 0.8881(2) 0.5047(3) 0.5088(3)
C15_2 C 0.8665(2) 0.5340(3) 0.5518(3)
H11_2 H 0.865522 0.572327 0.548023
C16_2 C 0.8484(2) 0.4557(3) 0.6037(3)
H12_2 H 0.834814 0.439084 0.636285
C17_2 C 0.8691(2) 0.4212(2) 0.5630(3)
C18_2 C 0.8729(2) 0.3612(2) 0.5769(3)
C19_2 C 0.8533(2) 0.3213(2) 0.5171(3)
C20_2 C 0.8582(3) 0.2663(3) 0.5341(3)
H13_2 H 0.844537 0.240864 0.494151
C21_2 C 0.8830(3) 0.2472(3) 0.6091(3)
H14_2 H 0.885067 0.209582 0.619871
C22_2 C 0.9049(3) 0.2862(3) 0.6684(3)
C23_2 C 0.9002(3) 0.3404(3) 0.6520(3)
H15_2 H 0.915531 0.365322 0.692106
C24_2 C 0.9356(3) 0.2674(3) 0.7490(4)
C25_2 C 0.8256(3) 0.3398(2) 0.4338(3)
C26_2 C 0.8886(2) 0.4476(3) 0.5145(3)
H16_2 H 0.902160 0.426672 0.485364
C27_2 C 0.9533(3) 0.5741(3) 0.5077(3)
H17_2 H 0.961035 0.579259 0.559766
C28_2 C 0.9797(3) 0.6044(3) 0.4742(3)
C29_2 C 0.9713(3) 0.5956(3) 0.3981(3)
H18_2 H 0.990283 0.615475 0.375462
C30_2 C 0.9346(3) 0.5572(3) 0.3567(3)
H19_2 H 0.929293 0.550637 0.305725
C32_2 C 0.7331(3) 0.3523(3) 0.0602(3)
H21_2 H 0.661609 0.436222 0.000857
H24_2 H 0.697414 0.254701 0.009947
O20_2 O 0.9237(5) 0.2331(5) 0.9318(7)
H25_2 H 0.891211 0.244948 0.909567
H26_2 H 0.919961 0.216309 0.970957
Cd5_2 Cd 0.81647(2) 0.56730(2) 0.67172(2)
Cd8_2 Cd 0.99061(6) 0.75571(4) 0.39805(4)
Cd9_2 Cd 0.58545(2) 0.77132(2) 0.10606(2)
O26_2 O 0.9609(2) 0.3556(2) 0.4084(2)
O27_2 O 0.8799(2) 0.28485(19) 0.2585(2)
O28_2 O 0.8695(2) 0.20546(19) 0.3044(2)
N3_2 N 0.8469(2) 0.4901(2) 0.0989(3)
N4_2 N 0.7197(2) 0.4836(2) 0.3880(3)
O2_2 O 0.5343(2) 0.6607(2) 0.9081(3)
O16_2 O 0.6201(2) 0.21515(19) 0.7415(2)
O17_2 O 0.6305(2) 0.29454(19) 0.6956(2)
N2_2 N 0.7197(2) 0.5164(2) 0.8880(3)
C1_2 C 0.7019(2) 0.5421(3) 0.9361(3)
H7_2 H 0.704483 0.580369 0.939997
C2_2 C 0.6798(2) 0.5143(3) 0.9800(3)
C8_2 C 0.6192(2) 0.5861(3) 0.9860(3)
H10_2 H 0.612310 0.592937 0.934483
C9_2 C 0.5558(3) 0.6617(3) 0.9787(4)
C33_2 C 0.7022(2) 0.3327(2) 0.9786(3)
C34_2 C 0.6904(2) 0.3681(3) 0.9156(3)
C35_2 C 0.6960(2) 0.4286(2) 0.9243(3)
C36_2 C 0.7165(2) 0.4608(3) 0.8828(3)
H20_2 H 0.728928 0.443336 0.849383
C37_2 C 0.6767(2) 0.4564(2) 0.9729(3)
C38_2 C 0.6682(3) 0.3445(3) 0.8425(3)
H22_2 H 0.659627 0.367340 0.799787
C39_2 C 0.6582(3) 0.2886(3) 0.8308(3)
C40_2 C 0.6688(3) 0.2546(3) 0.8952(3)
H23_2 H 0.661156 0.217053 0.888954
C41_2 C 0.6905(3) 0.2773(3) 0.9673(3)
C42_2 C 0.6346(3) 0.2643(3) 0.7518(3)
Cd6_2 Cd 0.74995(2) 0.57171(2) 0.81280(2)
Cd7_2 Cd 0.49061(6) 0.74429(4) 0.89805(4)
Cd11_2 Cd 0.58545(2) 0.22868(2) 0.60606(2)
O11_3 O 0.46817(18) 0.18659(19) 0.0140(2)
N2_3 N 0.7803(2) 0.0164(2) 0.6120(3)
C1_3 C 0.7981(2) 0.0421(3) 0.5639(3)
H7_3 H 0.795517 0.080369 0.560003
C2_3 C 0.8202(2) 0.0143(3) 0.5200(3)
C3_3 C 0.8446(2) 0.0451(2) 0.4751(3)
C4_3 C 0.8352(2) 0.0341(2) 0.3983(3)
C5_3 C 0.8642(2) 0.0635(2) 0.3642(3)
H8_3 H 0.859824 0.054869 0.314170
C6_3 C 0.8989(3) 0.1047(3) 0.4032(3)
H9_3 H 0.917253 0.124301 0.379308
C7_3 C 0.9065(2) 0.1167(3) 0.4785(3)
C8_3 C 0.8808(2) 0.0861(3) 0.5140(3)
H10_3 H 0.887690 0.092937 0.565517
C9_3 C 0.9442(3) 0.1617(3) 0.5213(4)
C12_3 C 0.5952(2) 0.0277(3) 0.1114(3)
C13_3 C 0.5852(2) 0.0354(3) 0.0336(3)
C28_3 C 0.5203(3) 0.1044(3) 0.0258(3)
C29_3 C 0.5287(3) 0.0956(3) 0.1019(3)
H18_3 H 0.509717 0.115475 0.124538
C30_3 C 0.5654(3) 0.0572(3) 0.1433(3)
H19_3 H 0.570707 0.050637 0.194275
Cd6_3 Cd 0.75005(2) 0.07171(2) 0.68720(2)
Cd8_3 Cd 0.50939(6) 0.25571(4) 0.10195(4)
O12_3 O 0.4609(2) 0.1444(2) 0.9084(2)
N1_3 N 0.6531(2) 0.0099(2) 0.9011(3)
C14_3 C 0.6119(2) 0.0047(3) 0.9912(3)
C15_3 C 0.6335(2) 0.0340(3) 0.9482(3)
H11_3 H 0.634478 0.072327 0.951977
C27_3 C 0.5467(3) 0.0741(3) 0.9923(3)
H17_3 H 0.538965 0.079259 0.940234
C31_3 C 0.4807(3) 0.1478(3) 0.9799(4)
Cd5_3 Cd 0.68353(2) 0.06730(2) 0.82828(2)
Cd1_3 Cd 0.68353(2) 0.93270(2) 0.32828(2)
Cd2_3 Cd 0.75005(2) 0.92829(2) 0.18720(2)
O3_3 O 0.75215(18) 0.9912(2) 0.3595(2)
O4_3 O 0.71583(16) 0.87096(17) 0.25566(19)
H1_3 H 0.743255 0.846866 0.290008
H2_3 H 0.687176 0.848417 0.220722
O5_3 O 0.80267(18) 0.9720(2) 0.2945(2)
O6_3 O 0.67930(18) 0.9851(2) 0.1504(2)
O9_3 O 0.70959(18) 0.87549(18) 0.0813(2)
O10_3 O 0.66054(18) 0.81642(19) 0.1156(2)
O13_3 O 0.63063(18) 0.9713(2) 0.2196(2)
O14_3 O 0.8200(2) 0.8656(3) 0.2140(4)
H3_3 H 0.852830 0.874727 0.229894
H4_3 H 0.819247 0.830108 0.214541
O15_3 O 0.72609(18) 0.87972(19) 0.4299(2)
O16_3 O 0.8799(2) 0.71515(19) 0.7585(2)
O17_3 O 0.8695(2) 0.79454(19) 0.8044(2)
O18_3 O 0.7825(2) 0.8380(2) 0.3895(2)
O19_3 O 0.6098(2) 0.8767(2) 0.3100(3)
H5_3 H 0.612890 0.847908 0.288956
H6_3 H 0.581600 0.889378 0.286076
C10_3 C 0.7931(3) 0.9955(3) 0.3466(3)
C11_3 C 0.6386(3) 0.9922(3) 0.1638(3)
H13_3 H 0.655463 0.740864 0.005849
C25_3 C 0.6744(3) 0.8398(2) 0.0662(3)
H16_3 H 0.597840 0.926672 0.014636
C32_3 C 0.7669(3) 0.8523(3) 0.4398(3)
C33_3 C 0.7978(2) 0.8327(2) 0.5214(3)
C34_3 C 0.8096(2) 0.8681(3) 0.5844(3)
C35_3 C 0.8040(2) 0.9286(2) 0.5757(3)
C36_3 C 0.7835(2) 0.9608(3) 0.6172(3)
H20_3 H 0.771072 0.943336 0.650617
C37_3 C 0.8233(2) 0.9564(2) 0.5271(3)
H21_3 H 0.838391 0.936222 0.499143
C38_3 C 0.8318(3) 0.8445(3) 0.6575(3)
H22_3 H 0.840373 0.867340 0.700213
C39_3 C 0.8418(3) 0.7886(3) 0.6692(3)
C40_3 C 0.8312(3) 0.7546(3) 0.6048(3)
H23_3 H 0.838844 0.717053 0.611046
C41_3 C 0.8095(3) 0.7773(3) 0.5327(3)
H24_3 H 0.802586 0.754701 0.490053
C42_3 C 0.8654(3) 0.7643(3) 0.7482(3)
O26_3 O 0.5391(2) 0.8556(2) 0.0916(2)
O27_3 O 0.6201(2) 0.78485(19) 0.2415(2)
O28_3 O 0.6305(2) 0.70546(19) 0.1956(2)
N3_3 N 0.6531(2) 0.9901(2) 0.4011(3)
N4_3 N 0.7803(2) 0.9836(2) 0.1120(3)
O7_3 O 0.5613(3) 0.7183(3) 0.7346(3)
O8_3 O 0.5415(3) 0.8008(2) 0.7005(3)
C16_3 C 0.6516(2) 0.9557(3) 0.8963(3)
H12_3 H 0.665186 0.939084 0.863715
C17_3 C 0.6309(2) 0.9212(2) 0.9370(3)
C18_3 C 0.6271(2) 0.8612(2) 0.9231(3)
C19_3 C 0.6467(2) 0.8213(2) 0.9829(3)
C20_3 C 0.6418(3) 0.7663(3) 0.9659(3)
C21_3 C 0.6170(3) 0.7472(3) 0.8909(3)
H14_3 H 0.614933 0.709582 0.880129
C22_3 C 0.5951(3) 0.7862(3) 0.8316(3)
C23_3 C 0.5998(3) 0.8404(3) 0.8480(3)
H15_3 H 0.584469 0.865322 0.807894
C24_3 C 0.5644(3) 0.7674(3) 0.7510(4)
C26_3 C 0.6114(2) 0.9476(3) 0.9855(3)
O20_3 O 0.5763(5) 0.7331(5) 0.5682(7)
H25_3 H 0.608789 0.744948 0.590433
H26_3 H 0.580039 0.716309 0.529043
O24_2 O 0.53183(18) 0.81341(19) 0.9860(2)
O25_2 O 0.46817(18) 0.81341(19) 0.5140(2)
O11_4 O 0.53183(18) 0.18659(19) 0.4860(2)
O12_4 O 0.5391(2) 0.1444(2) 0.5916(2)
N1_4 N 0.3469(2) 0.0099(2) 0.5989(3)
C3_4 C 0.1554(2) 0.0451(2) 0.0249(3)
C4_4 C 0.1648(2) 0.0341(2) 0.1017(3)
C5_4 C 0.1358(2) 0.0635(2) 0.1358(3)
H8_4 H 0.140176 0.054869 0.185830
C6_4 C 0.1011(3) 0.1047(3) 0.0968(3)
H9_4 H 0.082747 0.124301 0.120692
C7_4 C 0.0935(2) 0.1167(3) 0.0215(3)
C12_4 C 0.4048(2) 0.0277(3) 0.3886(3)
C13_4 C 0.4148(2) 0.0354(3) 0.4664(3)
C14_4 C 0.3881(2) 0.0047(3) 0.5088(3)
C15_4 C 0.3665(2) 0.0340(3) 0.5518(3)
H11_4 H 0.365522 0.072327 0.548023
C27_4 C 0.4533(3) 0.0741(3) 0.5077(3)
H17_4 H 0.461035 0.079259 0.559766
C28_4 C 0.4797(3) 0.1044(3) 0.4742(3)
C29_4 C 0.4713(3) 0.0956(3) 0.3981(3)
H18_4 H 0.490283 0.115475 0.375462
C30_4 C 0.4346(3) 0.0572(3) 0.3567(3)
H19_4 H 0.429293 0.050637 0.305725
C31_4 C 0.5193(3) 0.1478(3) 0.5201(4)
Cd5_4 Cd 0.31647(2) 0.06730(2) 0.67172(2)
Cd8_4 Cd 0.49061(6) 0.25571(4) 0.39805(4)
N2_4 N 0.2197(2) 0.0164(2) 0.8880(3)
C1_4 C 0.2019(2) 0.0421(3) 0.9361(3)
H7_4 H 0.204483 0.080369 0.939997
C2_4 C 0.1798(2) 0.0143(3) 0.9800(3)
C8_4 C 0.1192(2) 0.0861(3) 0.9860(3)
H10_4 H 0.112310 0.092937 0.934483
C9_4 C 0.0558(3) 0.1617(3) 0.9787(4)
Cd6_4 Cd 0.24995(2) 0.07171(2) 0.81280(2)
Cd1_4 Cd 0.31647(2) 0.93270(2) 0.17172(2)
Cd2_4 Cd 0.24995(2) 0.92829(2) 0.31280(2)
O3_4 O 0.24785(18) 0.9912(2) 0.1405(2)
O4_4 O 0.28417(16) 0.87096(17) 0.24434(19)
H1_4 H 0.256745 0.846866 0.209992
H2_4 H 0.312824 0.848417 0.279278
O5_4 O 0.19733(18) 0.9720(2) 0.2055(2)
O6_4 O 0.32070(18) 0.9851(2) 0.3496(2)
O7_4 O 0.4387(3) 0.7183(3) 0.7654(3)
O8_4 O 0.4585(3) 0.8008(2) 0.7995(3)
O9_4 O 0.29041(18) 0.87549(18) 0.4187(2)
O10_4 O 0.33946(18) 0.81642(19) 0.3844(2)
O13_4 O 0.36937(18) 0.9713(2) 0.2804(2)
O14_4 O 0.1800(2) 0.8656(3) 0.2860(4)
H3_4 H 0.147170 0.874727 0.270106
H4_4 H 0.180753 0.830108 0.285459
O15_4 O 0.27391(18) 0.87972(19) 0.0701(2)
O18_4 O 0.2175(2) 0.8380(2) 0.1105(2)
O19_4 O 0.3902(2) 0.8767(2) 0.1900(3)
H5_4 H 0.387110 0.847908 0.211044
H6_4 H 0.418400 0.889378 0.213924
C10_4 C 0.2069(3) 0.9955(3) 0.1534(3)
C11_4 C 0.3614(3) 0.9922(3) 0.3362(3)
C16_4 C 0.3484(2) 0.9557(3) 0.6037(3)
H12_4 H 0.334814 0.939084 0.636285
C17_4 C 0.3691(2) 0.9212(2) 0.5630(3)
C18_4 C 0.3729(2) 0.8612(2) 0.5769(3)
C19_4 C 0.3533(2) 0.8213(2) 0.5171(3)
C20_4 C 0.3582(3) 0.7663(3) 0.5341(3)
H13_4 H 0.344537 0.740864 0.494151
C21_4 C 0.3830(3) 0.7472(3) 0.6091(3)
H14_4 H 0.385067 0.709582 0.619871
C22_4 C 0.4049(3) 0.7862(3) 0.6684(3)
C23_4 C 0.4002(3) 0.8404(3) 0.6520(3)
H15_4 H 0.415531 0.865322 0.692106
C24_4 C 0.4356(3) 0.7674(3) 0.7490(4)
C25_4 C 0.3256(3) 0.8398(2) 0.4338(3)
C26_4 C 0.3886(2) 0.9476(3) 0.5145(3)
H16_4 H 0.402160 0.926672 0.485364
C32_4 C 0.2331(3) 0.8523(3) 0.0602(3)
H21_4 H 0.161609 0.936222 0.000857
H24_4 H 0.197414 0.754701 0.009947
O20_4 O 0.4237(5) 0.7331(5) 0.9318(7)
H25_4 H 0.391211 0.744948 0.909567
H26_4 H 0.419961 0.716309 0.970957
O26_4 O 0.4609(2) 0.8556(2) 0.4084(2)
O27_4 O 0.3799(2) 0.78485(19) 0.2585(2)
O28_4 O 0.3695(2) 0.70546(19) 0.3044(2)
N3_4 N 0.3469(2) 0.9901(2) 0.0989(3)
N4_4 N 0.2197(2) 0.9836(2) 0.3880(3)
O16_4 O 0.1201(2) 0.71515(19) 0.7415(2)
O17_4 O 0.1305(2) 0.79454(19) 0.6956(2)
C33_4 C 0.2022(2) 0.8327(2) 0.9786(3)
C34_4 C 0.1904(2) 0.8681(3) 0.9156(3)
C35_4 C 0.1960(2) 0.9286(2) 0.9243(3)
C36_4 C 0.2165(2) 0.9608(3) 0.8828(3)
H20_4 H 0.228928 0.943336 0.849383
C37_4 C 0.1767(2) 0.9564(2) 0.9729(3)
C38_4 C 0.1682(3) 0.8445(3) 0.8425(3)
H22_4 H 0.159627 0.867340 0.799787
C39_4 C 0.1582(3) 0.7886(3) 0.8308(3)
C40_4 C 0.1688(3) 0.7546(3) 0.8952(3)
H23_4 H 0.161156 0.717053 0.888954
C41_4 C 0.1905(3) 0.7773(3) 0.9673(3)
C42_4 C 0.1346(3) 0.7643(3) 0.7518(3)
C31_5 C 0.0193(3) 0.3522(3) 0.0201(4)
O21_2 O 0.0476(2) 0.7989(2) 0.5164(3)
O23_3 O 0.0343(2) 0.8393(2) 0.4081(3)
O7_5 O 0.9387(3) 0.7817(3) 0.2654(3)
O8_5 O 0.9585(3) 0.6992(2) 0.2995(3)
C14_5 C 0.8881(2) 0.4953(3) 0.0088(3)
C15_5 C 0.8665(2) 0.4660(3) 0.0518(3)
H11_5 H 0.865522 0.427673 0.048023
C16_5 C 0.8484(2) 0.5443(3) 0.1037(3)
H12_5 H 0.834814 0.560916 0.136285
C17_5 C 0.8691(2) 0.5788(2) 0.0630(3)
C18_5 C 0.8729(2) 0.6388(2) 0.0769(3)
C19_5 C 0.8533(2) 0.6787(2) 0.0171(3)
C20_5 C 0.8582(3) 0.7337(3) 0.0341(3)
C21_5 C 0.8830(3) 0.7528(3) 0.1091(3)
H14_5 H 0.885067 0.790418 0.119871
C22_5 C 0.9049(3) 0.7138(3) 0.1684(3)
C23_5 C 0.9002(3) 0.6596(3) 0.1520(3)
H15_5 H 0.915531 0.634678 0.192106
C24_5 C 0.9356(3) 0.7326(3) 0.2490(4)
C26_5 C 0.8886(2) 0.5524(3) 0.0145(3)
C27_5 C 0.9533(3) 0.4259(3) 0.0077(3)
H17_5 H 0.961035 0.420741 0.059766
O20_5 O 0.9237(5) 0.7669(5) 0.4318(7)
H25_5 H 0.891211 0.755052 0.409567
H26_5 H 0.919961 0.783691 0.470957
O1_3 O 0.5476(2) 0.2989(2) 0.5164(3)
O2_3 O 0.5343(2) 0.3393(2) 0.4081(3)
O3_5 O 0.74785(18) 0.5088(2) 0.6405(2)
O4_5 O 0.78417(16) 0.62904(17) 0.74434(19)
H1_5 H 0.756745 0.653134 0.709992
H2_5 H 0.812824 0.651583 0.779278
O5_5 O 0.69733(18) 0.5280(2) 0.7055(2)
O6_5 O 0.82070(18) 0.5149(2) 0.8496(2)
O9_5 O 0.79041(18) 0.62451(18) 0.9187(2)
O10_5 O 0.83946(18) 0.68358(19) 0.8844(2)
O13_5 O 0.86937(18) 0.5287(2) 0.7804(2)
O14_5 O 0.6800(2) 0.6344(3) 0.7860(4)
H3_5 H 0.647170 0.625273 0.770106
H4_5 H 0.680753 0.669892 0.785459
O15_5 O 0.77391(18) 0.62028(19) 0.5701(2)
O18_5 O 0.7175(2) 0.6620(2) 0.6105(2)
O19_5 O 0.8902(2) 0.6233(2) 0.6900(3)
H5_5 H 0.887110 0.652092 0.711044
H6_5 H 0.918400 0.610622 0.713924
C1_5 C 0.7019(2) 0.4579(3) 0.4361(3)
H7_5 H 0.704483 0.419631 0.439997
C2_5 C 0.6798(2) 0.4857(3) 0.4800(3)
C3_5 C 0.6554(2) 0.4549(2) 0.5249(3)
C4_5 C 0.6648(2) 0.4659(2) 0.6017(3)
C5_5 C 0.6358(2) 0.4365(2) 0.6358(3)
H8_5 H 0.640176 0.445131 0.685830
C6_5 C 0.6011(3) 0.3953(3) 0.5968(3)
H9_5 H 0.582747 0.375699 0.620692
C7_5 C 0.5935(2) 0.3833(3) 0.5215(3)
C8_5 C 0.6192(2) 0.4139(3) 0.4860(3)
H10_5 H 0.612310 0.407063 0.434483
C9_5 C 0.5558(3) 0.3383(3) 0.4787(4)
C10_5 C 0.7069(3) 0.5045(3) 0.6534(3)
C11_5 C 0.8614(3) 0.5078(3) 0.8362(3)
C12_5 C 0.9048(2) 0.4723(3) 0.8886(3)
C13_5 C 0.9148(2) 0.4646(3) 0.9664(3)
H13_5 H 0.844537 0.759136 0.994151
C25_5 C 0.8256(3) 0.6602(2) 0.9338(3)
H16_5 H 0.902160 0.573328 0.985364
C28_5 C 0.9797(3) 0.3956(3) 0.9742(3)
C29_5 C 0.9713(3) 0.4044(3) 0.8981(3)
H18_5 H 0.990283 0.384525 0.875462
C30_5 C 0.9346(3) 0.4428(3) 0.8567(3)
H19_5 H 0.929293 0.449363 0.805725
C32_5 C 0.7331(3) 0.6477(3) 0.5602(3)
C33_5 C 0.7022(2) 0.6673(2) 0.4786(3)
C34_5 C 0.6904(2) 0.6319(3) 0.4156(3)
C35_5 C 0.6960(2) 0.5714(2) 0.4243(3)
C36_5 C 0.7165(2) 0.5392(3) 0.3828(3)
H20_5 H 0.728928 0.556664 0.349383
C37_5 C 0.6767(2) 0.5436(2) 0.4729(3)
H21_5 H 0.661609 0.563778 0.500857
C38_5 C 0.6682(3) 0.6555(3) 0.3425(3)
H22_5 H 0.659627 0.632660 0.299787
C39_5 C 0.6582(3) 0.7114(3) 0.3308(3)
C40_5 C 0.6688(3) 0.7454(3) 0.3952(3)
H23_5 H 0.661156 0.782947 0.388954
C41_5 C 0.6905(3) 0.7227(3) 0.4673(3)
H24_5 H 0.697414 0.745299 0.509947
C42_5 C 0.6346(3) 0.7357(3) 0.2518(3)
O22_2 O 0.9524(2) 0.7989(2) 0.9836(3)
O2_4 O 0.4657(2) 0.3393(2) 0.0919(3)
C1_6 C 0.2981(2) 0.4579(3) 0.0639(3)
H7_6 H 0.295517 0.419631 0.060003
C2_6 C 0.3202(2) 0.4857(3) 0.0200(3)
C8_6 C 0.3808(2) 0.4139(3) 0.0140(3)
H10_6 H 0.387690 0.407063 0.065517
C9_6 C 0.4442(3) 0.3383(3) 0.0213(4)
C33_6 C 0.2978(2) 0.6673(2) 0.0214(3)
C34_6 C 0.3096(2) 0.6319(3) 0.0844(3)
C35_6 C 0.3040(2) 0.5714(2) 0.0757(3)
C36_6 C 0.2835(2) 0.5392(3) 0.1172(3)
H20_6 H 0.271072 0.556664 0.150617
C37_6 C 0.3233(2) 0.5436(2) 0.0271(3)
C38_6 C 0.3318(3) 0.6555(3) 0.1575(3)
H22_6 H 0.340373 0.632660 0.200213
C39_6 C 0.3418(3) 0.7114(3) 0.1692(3)
C40_6 C 0.3312(3) 0.7454(3) 0.1048(3)
H23_6 H 0.338844 0.782947 0.111046
C41_6 C 0.3095(3) 0.7227(3) 0.0327(3)
C42_6 C 0.3654(3) 0.7357(3) 0.2482(3)
O1_4 O 0.4524(2) 0.2989(2) 0.9836(3)
O3_6 O 0.25215(18) 0.5088(2) 0.8595(2)
O4_6 O 0.21583(16) 0.62904(17) 0.75566(19)
H1_6 H 0.243255 0.653134 0.790008
H2_6 H 0.187176 0.651583 0.720722
O5_6 O 0.30267(18) 0.5280(2) 0.7945(2)
O6_6 O 0.17930(18) 0.5149(2) 0.6504(2)
O7_6 O 0.0613(3) 0.7817(3) 0.2346(3)
O8_6 O 0.0415(3) 0.6992(2) 0.2005(3)
O9_6 O 0.20959(18) 0.62451(18) 0.5813(2)
O10_6 O 0.16054(18) 0.68358(19) 0.6156(2)
O13_6 O 0.13063(18) 0.5287(2) 0.7196(2)
O14_6 O 0.3200(2) 0.6344(3) 0.7140(4)
H3_6 H 0.352830 0.625273 0.729894
H4_6 H 0.319247 0.669892 0.714541
O15_6 O 0.22609(18) 0.62028(19) 0.9299(2)
O18_6 O 0.2825(2) 0.6620(2) 0.8895(2)
O19_6 O 0.1098(2) 0.6233(2) 0.8100(3)
H5_6 H 0.112890 0.652092 0.788956
H6_6 H 0.081600 0.610622 0.786076
C3_6 C 0.3446(2) 0.4549(2) 0.9751(3)
C4_6 C 0.3352(2) 0.4659(2) 0.8983(3)
C5_6 C 0.3642(2) 0.4365(2) 0.8642(3)
H8_6 H 0.359824 0.445131 0.814170
C6_6 C 0.3989(3) 0.3953(3) 0.9032(3)
H9_6 H 0.417253 0.375699 0.879308
C7_6 C 0.4065(2) 0.3833(3) 0.9785(3)
C10_6 C 0.2931(3) 0.5045(3) 0.8466(3)
C11_6 C 0.1386(3) 0.5078(3) 0.6638(3)
C12_6 C 0.0952(2) 0.4723(3) 0.6114(3)
C13_6 C 0.0852(2) 0.4646(3) 0.5336(3)
C14_6 C 0.1119(2) 0.4953(3) 0.4912(3)
C15_6 C 0.1335(2) 0.4660(3) 0.4482(3)
H11_6 H 0.134478 0.427673 0.451977
C16_6 C 0.1516(2) 0.5443(3) 0.3963(3)
H12_6 H 0.165186 0.560916 0.363715
C17_6 C 0.1309(2) 0.5788(2) 0.4370(3)
C18_6 C 0.1271(2) 0.6388(2) 0.4231(3)
C19_6 C 0.1467(2) 0.6787(2) 0.4829(3)
C20_6 C 0.1418(3) 0.7337(3) 0.4659(3)
H13_6 H 0.155463 0.759136 0.505849
C21_6 C 0.1170(3) 0.7528(3) 0.3909(3)
H14_6 H 0.114933 0.790418 0.380129
C22_6 C 0.0951(3) 0.7138(3) 0.3316(3)
C23_6 C 0.0998(3) 0.6596(3) 0.3480(3)
H15_6 H 0.084469 0.634678 0.307894
C24_6 C 0.0644(3) 0.7326(3) 0.2510(4)
C25_6 C 0.1744(3) 0.6602(2) 0.5662(3)
C26_6 C 0.1114(2) 0.5524(3) 0.4855(3)
H16_6 H 0.097840 0.573328 0.514636
C27_6 C 0.0467(3) 0.4259(3) 0.4923(3)
H17_6 H 0.038965 0.420741 0.440234
C28_6 C 0.0203(3) 0.3956(3) 0.5258(3)
C29_6 C 0.0287(3) 0.4044(3) 0.6019(3)
H18_6 H 0.009717 0.384525 0.624538
C30_6 C 0.0654(3) 0.4428(3) 0.6433(3)
H19_6 H 0.070707 0.449363 0.694275
C32_6 C 0.2669(3) 0.6477(3) 0.9398(3)
H21_6 H 0.338391 0.563778 0.999143
H24_6 H 0.302586 0.745299 0.990053
O20_6 O 0.0763(5) 0.7669(5) 0.0682(7)
H25_6 H 0.108789 0.755052 0.090433
H26_6 H 0.080039 0.783691 0.029043
C31_6 C 0.9807(3) 0.3522(3) 0.4799(4)
O23_4 O 0.9657(2) 0.8393(2) 0.0919(3)
O7_7 O 0.4387(3) 0.2817(3) 0.2654(3)
O8_7 O 0.4585(3) 0.1992(2) 0.2995(3)
C16_7 C 0.3484(2) 0.0443(3) 0.1037(3)
H12_7 H 0.334814 0.060916 0.136285
C17_7 C 0.3691(2) 0.0788(2) 0.0630(3)
C18_7 C 0.3729(2) 0.1388(2) 0.0769(3)
C19_7 C 0.3533(2) 0.1787(2) 0.0171(3)
C20_7 C 0.3582(3) 0.2337(3) 0.0341(3)
C21_7 C 0.3830(3) 0.2528(3) 0.1091(3)
H14_7 H 0.385067 0.290418 0.119871
C22_7 C 0.4049(3) 0.2138(3) 0.1684(3)
C23_7 C 0.4002(3) 0.1596(3) 0.1520(3)
H15_7 H 0.415531 0.134678 0.192106
C24_7 C 0.4356(3) 0.2326(3) 0.2490(4)
C26_7 C 0.3886(2) 0.0524(3) 0.0145(3)
O20_7 O 0.4237(5) 0.2669(5) 0.4318(7)
H25_7 H 0.391211 0.255052 0.409567
H26_7 H 0.419961 0.283691 0.470957
O3_7 O 0.24785(18) 0.0088(2) 0.6405(2)
O4_7 O 0.28417(16) 0.12904(17) 0.74434(19)
H1_7 H 0.256745 0.153134 0.709992
H2_7 H 0.312824 0.151583 0.779278
O5_7 O 0.19733(18) 0.0280(2) 0.7055(2)
O6_7 O 0.32070(18) 0.0149(2) 0.8496(2)
O9_7 O 0.29041(18) 0.12451(18) 0.9187(2)
O10_7 O 0.33946(18) 0.18358(19) 0.8844(2)
O13_7 O 0.36937(18) 0.0287(2) 0.7804(2)
O14_7 O 0.1800(2) 0.1344(3) 0.7860(4)
H3_7 H 0.147170 0.125273 0.770106
H4_7 H 0.180753 0.169892 0.785459
O15_7 O 0.27391(18) 0.12028(19) 0.5701(2)
O18_7 O 0.2175(2) 0.1620(2) 0.6105(2)
O19_7 O 0.3902(2) 0.1233(2) 0.6900(3)
H5_7 H 0.387110 0.152092 0.711044
H6_7 H 0.418400 0.110622 0.713924
C10_7 C 0.2069(3) 0.0045(3) 0.6534(3)
C11_7 C 0.3614(3) 0.0078(3) 0.8362(3)
H13_7 H 0.344537 0.259136 0.994151
C25_7 C 0.3256(3) 0.1602(2) 0.9338(3)
H16_7 H 0.402160 0.073328 0.985364
C32_7 C 0.2331(3) 0.1477(3) 0.5602(3)
C33_7 C 0.2022(2) 0.1673(2) 0.4786(3)
C34_7 C 0.1904(2) 0.1319(3) 0.4156(3)
C35_7 C 0.1960(2) 0.0714(2) 0.4243(3)
C36_7 C 0.2165(2) 0.0392(3) 0.3828(3)
H20_7 H 0.228928 0.056664 0.349383
C37_7 C 0.1767(2) 0.0436(2) 0.4729(3)
H21_7 H 0.161609 0.063778 0.500857
C38_7 C 0.1682(3) 0.1555(3) 0.3425(3)
H22_7 H 0.159627 0.132660 0.299787
C39_7 C 0.1582(3) 0.2114(3) 0.3308(3)
C40_7 C 0.1688(3) 0.2454(3) 0.3952(3)
H23_7 H 0.161156 0.282947 0.388954
C41_7 C 0.1905(3) 0.2227(3) 0.4673(3)
H24_7 H 0.197414 0.245299 0.509947
C42_7 C 0.1346(3) 0.2357(3) 0.2518(3)
C14_7 C 0.3881(2) 0.9953(3) 0.0088(3)
C15_7 C 0.3665(2) 0.9660(3) 0.0518(3)
H11_7 H 0.365522 0.927673 0.048023
C27_7 C 0.4533(3) 0.9259(3) 0.0077(3)
H17_7 H 0.461035 0.920741 0.059766
C31_7 C 0.5193(3) 0.8522(3) 0.0201(4)
C1_7 C 0.2019(2) 0.9579(3) 0.4361(3)
H7_7 H 0.204483 0.919631 0.439997
C2_7 C 0.1798(2) 0.9857(3) 0.4800(3)
C3_7 C 0.1554(2) 0.9549(2) 0.5249(3)
C4_7 C 0.1648(2) 0.9659(2) 0.6017(3)
C5_7 C 0.1358(2) 0.9365(2) 0.6358(3)
H8_7 H 0.140176 0.945131 0.685830
C6_7 C 0.1011(3) 0.8953(3) 0.5968(3)
H9_7 H 0.082747 0.875699 0.620692
C7_7 C 0.0935(2) 0.8833(3) 0.5215(3)
C8_7 C 0.1192(2) 0.9139(3) 0.4860(3)
H10_7 H 0.112310 0.907063 0.434483
C9_7 C 0.0558(3) 0.8383(3) 0.4787(4)
C12_7 C 0.4048(2) 0.9723(3) 0.8886(3)
C13_7 C 0.4148(2) 0.9646(3) 0.9664(3)
C28_7 C 0.4797(3) 0.8956(3) 0.9742(3)
C29_7 C 0.4713(3) 0.9044(3) 0.8981(3)
H18_7 H 0.490283 0.884525 0.875462
C30_7 C 0.4346(3) 0.9428(3) 0.8567(3)
H19_7 H 0.429293 0.949363 0.805725
C33_8 C 0.7978(2) 0.1673(2) 0.0214(3)
C34_8 C 0.8096(2) 0.1319(3) 0.0844(3)
C35_8 C 0.8040(2) 0.0714(2) 0.0757(3)
C36_8 C 0.7835(2) 0.0392(3) 0.1172(3)
H20_8 H 0.771072 0.056664 0.150617
C37_8 C 0.8233(2) 0.0436(2) 0.0271(3)
C38_8 C 0.8318(3) 0.1555(3) 0.1575(3)
H22_8 H 0.840373 0.132660 0.200213
C39_8 C 0.8418(3) 0.2114(3) 0.1692(3)
C40_8 C 0.8312(3) 0.2454(3) 0.1048(3)
H23_8 H 0.838844 0.282947 0.111046
C41_8 C 0.8095(3) 0.2227(3) 0.0327(3)
C42_8 C 0.8654(3) 0.2357(3) 0.2482(3)
O3_8 O 0.75215(18) 0.0088(2) 0.8595(2)
O4_8 O 0.71583(16) 0.12904(17) 0.75566(19)
H1_8 H 0.743255 0.153134 0.790008
H2_8 H 0.687176 0.151583 0.720722
O5_8 O 0.80267(18) 0.0280(2) 0.7945(2)
O6_8 O 0.67930(18) 0.0149(2) 0.6504(2)
O7_8 O 0.5613(3) 0.2817(3) 0.2346(3)
O8_8 O 0.5415(3) 0.1992(2) 0.2005(3)
O9_8 O 0.70959(18) 0.12451(18) 0.5813(2)
O10_8 O 0.66054(18) 0.18358(19) 0.6156(2)
O13_8 O 0.63063(18) 0.0287(2) 0.7196(2)
O14_8 O 0.8200(2) 0.1344(3) 0.7140(4)
H3_8 H 0.852830 0.125273 0.729894
H4_8 H 0.819247 0.169892 0.714541
O15_8 O 0.72609(18) 0.12028(19) 0.9299(2)
O18_8 O 0.7825(2) 0.1620(2) 0.8895(2)
O19_8 O 0.6098(2) 0.1233(2) 0.8100(3)
H5_8 H 0.612890 0.152092 0.788956
H6_8 H 0.581600 0.110622 0.786076
C10_8 C 0.7931(3) 0.0045(3) 0.8466(3)
C11_8 C 0.6386(3) 0.0078(3) 0.6638(3)
C16_8 C 0.6516(2) 0.0443(3) 0.3963(3)
H12_8 H 0.665186 0.060916 0.363715
C17_8 C 0.6309(2) 0.0788(2) 0.4370(3)
C18_8 C 0.6271(2) 0.1388(2) 0.4231(3)
C19_8 C 0.6467(2) 0.1787(2) 0.4829(3)
C20_8 C 0.6418(3) 0.2337(3) 0.4659(3)
H13_8 H 0.655463 0.259136 0.505849
C21_8 C 0.6170(3) 0.2528(3) 0.3909(3)
H14_8 H 0.614933 0.290418 0.380129
C22_8 C 0.5951(3) 0.2138(3) 0.3316(3)
C23_8 C 0.5998(3) 0.1596(3) 0.3480(3)
H15_8 H 0.584469 0.134678 0.307894
C24_8 C 0.5644(3) 0.2326(3) 0.2510(4)
C25_8 C 0.6744(3) 0.1602(2) 0.5662(3)
C26_8 C 0.6114(2) 0.0524(3) 0.4855(3)
H16_8 H 0.597840 0.073328 0.514636
C32_8 C 0.7669(3) 0.1477(3) 0.9398(3)
H21_8 H 0.838391 0.063778 0.999143
H24_8 H 0.802586 0.245299 0.990053
O20_8 O 0.5763(5) 0.2669(5) 0.0682(7)
H25_8 H 0.608789 0.255052 0.090433
H26_8 H 0.580039 0.283691 0.029043
C1_8 C 0.7981(2) 0.9579(3) 0.0639(3)
H7_8 H 0.795517 0.919631 0.060003
C2_8 C 0.8202(2) 0.9857(3) 0.0200(3)
C8_8 C 0.8808(2) 0.9139(3) 0.0140(3)
H10_8 H 0.887690 0.907063 0.065517
C9_8 C 0.9442(3) 0.8383(3) 0.0213(4)
C3_8 C 0.8446(2) 0.9549(2) 0.9751(3)
C4_8 C 0.8352(2) 0.9659(2) 0.8983(3)
C5_8 C 0.8642(2) 0.9365(2) 0.8642(3)
H8_8 H 0.859824 0.945131 0.814170
C6_8 C 0.8989(3) 0.8953(3) 0.9032(3)
H9_8 H 0.917253 0.875699 0.879308
C7_8 C 0.9065(2) 0.8833(3) 0.9785(3)
C12_8 C 0.5952(2) 0.9723(3) 0.6114(3)
C13_8 C 0.5852(2) 0.9646(3) 0.5336(3)
C14_8 C 0.6119(2) 0.9953(3) 0.4912(3)
C15_8 C 0.6335(2) 0.9660(3) 0.4482(3)
H11_8 H 0.634478 0.927673 0.451977
C27_8 C 0.5467(3) 0.9259(3) 0.4923(3)
H17_8 H 0.538965 0.920741 0.440234
C28_8 C 0.5203(3) 0.8956(3) 0.5258(3)
C29_8 C 0.5287(3) 0.9044(3) 0.6019(3)
H18_8 H 0.509717 0.884525 0.624538
C30_8 C 0.5654(3) 0.9428(3) 0.6433(3)
H19_8 H 0.570707 0.949363 0.694275
C31_8 C 0.4807(3) 0.8522(3) 0.4799(4)
loop_
_geom_bond_atom_site_label_1
_geom_bond_atom_site_label_2
_geom_bond_site_symmetry_1
_geom_bond_site_symmetry_2
Cd1 O3 1_555 1_555
Cd2 O4 1_555 1_555
Cd4 O10 1_555 1_555
O1 C9 1_555 1_555
O2 C9 1_555 1_555
O3 C10 1_555 1_555
O4 Cd1 1_555 1_555
H1 O4 1_555 1_555
H2 O4 1_555 1_555
O5 Cd2 1_555 1_555
O6 Cd2 1_555 1_555
O9 Cd2 1_555 1_555
O10 C25 1_555 1_555
O13 Cd1 1_555 1_555
O14 Cd2 1_555 1_555
H3 O14 1_555 1_555
H4 O14 1_555 1_555
O15 Cd1 1_555 1_555
O16 C42 1_555 1_555
O17 C42 1_555 1_555
O18 C32 1_555 1_555
O19 Cd1 1_555 1_555
H5 O19 1_555 1_555
H6 O19 1_555 1_555
N2 C1 1_555 1_555
C1 H7 1_555 1_555
C2 C1 1_555 1_555
C3 C2 1_555 1_555
C4 C3 1_555 1_555
C5 C4 1_555 1_555
H8 C5 1_555 1_555
C6 C5 1_555 1_555
H9 C6 1_555 1_555
C7 C6 1_555 1_555
C8 C3 1_555 1_555
H10 C8 1_555 1_555
C9 C7 1_555 1_555
C10 O5 1_555 1_555
C11 O6 1_555 1_555
C12 C11 1_555 1_555
C13 C12 1_555 1_555
C25 O9 1_555 1_555
C29 C28 1_555 1_555
H18 C29 1_555 1_555
C30 C12 1_555 1_555
H19 C30 1_555 1_555
C32 O15 1_555 1_555
C33 C32 1_555 1_555
C34 C33 1_555 1_555
C35 C34 1_555 1_555
C36 N2 1_555 1_555
H20 C36 1_555 1_555
C37 C2 1_555 1_555
H21 C37 1_555 1_555
C38 C34 1_555 1_555
H22 C38 1_555 1_555
C39 C38 1_555 1_555
C40 C39 1_555 1_555
H23 C40 1_555 1_555
C41 C33 1_555 1_555
H24 C41 1_555 1_555
C42 C39 1_555 1_555
Cd6 N2 1_555 1_555
Cd7 O1 1_555 1_555
Cd9 O1 1_555 1_555
Cd11 O16 1_555 1_555
O22 Cd4 1_555 1_555
O26 Cd4 1_555 1_555
O27 Cd4 1_555 1_555
O28 Cd4 1_555 1_555
N3 Cd1 1_555 1_555
N4 Cd2 1_555 1_555
O2 Cd7 1_555 1_555
O13 C11 1_555 1_555
O17 Cd11 1_555 1_555
C4 C10 1_555 1_555
C7 C8 1_555 1_555
C29 C30 1_555 1_555
C35 C36 1_555 1_555
C35 C37 1_555 1_555
C40 C41 1_555 1_555
Cd3 O7 1_555 1_555
O7 C24 1_555 1_555
O8 Cd3 1_555 1_555
N1 C15 1_555 1_555
C15 C14 1_555 1_555
H11 C15 1_555 1_555
C16 N1 1_555 1_555
H12 C16 1_555 1_555
C17 C16 1_555 1_555
C18 C17 1_555 1_555
C19 C18 1_555 1_555
C20 C19 1_555 1_555
C21 C20 1_555 1_555
H14 C21 1_555 1_555
C22 C21 1_555 1_555
C23 C18 1_555 1_555
H15 C23 1_555 1_555
C24 O8 1_555 1_555
C26 C14 1_555 1_555
H17 C27 1_555 1_555
O20 Cd3 1_555 1_555
H25 O20 1_555 1_555
H26 O20 1_555 1_555
Cd5 N1 1_555 1_555
C17 C26 1_555 1_555
C22 C23 1_555 1_555
C22 C24 1_555 1_555
O12 C31 1_555 1_555
O12 Cd10 1_555 1_555
O11_2 C31_2 1_555 1_555
O12_2 C31_2 1_555 1_555
Cd10_2 O11_2 1_555 1_555
O12_2 Cd10_2 1_555 1_555
Cd1_2 O3_2 1_555 1_555
Cd2_2 O4_2 1_555 1_555
Cd3_2 O7_2 1_555 1_555
Cd4_2 O10_2 1_555 1_555
O3_2 C10_2 1_555 1_555
O4_2 Cd1_2 1_555 1_555
H1_2 O4_2 1_555 1_555
H2_2 O4_2 1_555 1_555
O5_2 Cd2_2 1_555 1_555
O6_2 Cd2_2 1_555 1_555
O7_2 C24_2 1_555 1_555
O8_2 Cd3_2 1_555 1_555
O9_2 Cd2_2 1_555 1_555
O10_2 C25_2 1_555 1_555
O13_2 Cd1_2 1_555 1_555
O14_2 Cd2_2 1_555 1_555
H3_2 O14_2 1_555 1_555
H4_2 O14_2 1_555 1_555
O15_2 Cd1_2 1_555 1_555
O18_2 C32_2 1_555 1_555
O19_2 Cd1_2 1_555 1_555
H5_2 O19_2 1_555 1_555
H6_2 O19_2 1_555 1_555
N1_2 C15_2 1_555 1_555
C4_2 C3_2 1_555 1_555
C5_2 C4_2 1_555 1_555
H8_2 C5_2 1_555 1_555
C6_2 C5_2 1_555 1_555
H9_2 C6_2 1_555 1_555
C7_2 C6_2 1_555 1_555
C10_2 O5_2 1_555 1_555
C11_2 O6_2 1_555 1_555
C12_2 C11_2 1_555 1_555
C13_2 C12_2 1_555 1_555
C14_2 C13_2 1_555 1_555
C15_2 C14_2 1_555 1_555
H11_2 C15_2 1_555 1_555
C16_2 N1_2 1_555 1_555
H12_2 C16_2 1_555 1_555
C17_2 C16_2 1_555 1_555
C18_2 C17_2 1_555 1_555
C19_2 C18_2 1_555 1_555
C20_2 C19_2 1_555 1_555
H13_2 C20_2 1_555 1_555
C21_2 C20_2 1_555 1_555
H14_2 C21_2 1_555 1_555
C22_2 C21_2 1_555 1_555
C23_2 C18_2 1_555 1_555
H15_2 C23_2 1_555 1_555
C24_2 O8_2 1_555 1_555
C25_2 O9_2 1_555 1_555
C26_2 C14_2 1_555 1_555
H16_2 C26_2 1_555 1_555
C27_2 C13_2 1_555 1_555
H17_2 C27_2 1_555 1_555
C28_2 C27_2 1_555 1_555
C29_2 C28_2 1_555 1_555
H18_2 C29_2 1_555 1_555
C30_2 C12_2 1_555 1_555
H19_2 C30_2 1_555 1_555
C32_2 O15_2 1_555 1_555
O20_2 Cd3_2 1_555 1_555
H25_2 O20_2 1_555 1_555
H26_2 O20_2 1_555 1_555
Cd5_2 N1_2 1_555 1_555
Cd9_2 O1_2 1_555 1_555
O21 Cd4_2 1_555 1_555
O25 Cd4_2 1_555 1_555
O26_2 Cd4_2 1_555 1_555
O27_2 Cd4_2 1_555 1_555
O28_2 Cd4_2 1_555 1_555
N3_2 Cd1_2 1_555 1_555
N4_2 Cd2_2 1_555 1_555
O13_2 C11_2 1_555 1_555
C4_2 C10_2 1_555 1_555
C17_2 C26_2 1_555 1_555
C19_2 C25_2 1_555 1_555
C22_2 C23_2 1_555 1_555
C22_2 C24_2 1_555 1_555
C29_2 C30_2 1_555 1_555
O2_2 C9_2 1_555 1_555
O16_2 C42_2 1_555 1_555
O17_2 C42_2 1_555 1_555
N2_2 C1_2 1_555 1_555
C1_2 H7_2 1_555 1_555
C2_2 C1_2 1_555 1_555
H10_2 C8_2 1_555 1_555
C34_2 C33_2 1_555 1_555
C35_2 C34_2 1_555 1_555
C36_2 N2_2 1_555 1_555
H20_2 C36_2 1_555 1_555
C37_2 C2_2 1_555 1_555
C38_2 C34_2 1_555 1_555
H22_2 C38_2 1_555 1_555
C39_2 C38_2 1_555 1_555
C40_2 C39_2 1_555 1_555
H23_2 C40_2 1_555 1_555
C41_2 C33_2 1_555 1_555
C42_2 C39_2 1_555 1_555
Cd6_2 N2_2 1_555 1_555
Cd11_2 O16_2 1_555 1_555
O2_2 Cd7_2 1_555 1_555
O17_2 Cd11_2 1_555 1_555
C35_2 C36_2 1_555 1_555
C35_2 C37_2 1_555 1_555
C40_2 C41_2 1_555 1_555
O21 C9_3 1_555 1_555
O23 C9_3 1_555 1_555
N2_3 C1_3 1_555 1_555
C1_3 H7_3 1_555 1_555
C2_3 C1_3 1_555 1_555
C3_3 C2_3 1_555 1_555
C4_3 C3_3 1_555 1_555
C5_3 C4_3 1_555 1_555
H8_3 C5_3 1_555 1_555
C6_3 C5_3 1_555 1_555
H9_3 C6_3 1_555 1_555
C7_3 C6_3 1_555 1_555
C8_3 C3_3 1_555 1_555
H10_3 C8_3 1_555 1_555
C9_3 C7_3 1_555 1_555
C13_3 C12_3 1_555 1_555
C29_3 C28_3 1_555 1_555
H18_3 C29_3 1_555 1_555
C30_3 C12_3 1_555 1_555
H19_3 C30_3 1_555 1_555
Cd6_3 N2_3 1_555 1_555
Cd8_3 O11_3 1_555 1_555
C7_3 C8_3 1_555 1_555
C29_3 C30_3 1_555 1_555
O12_3 C31_3 1_555 1_555
N1_3 C15_3 1_555 1_555
C15_3 C14_3 1_555 1_555
H11_3 C15_3 1_555 1_555
H17_3 C27_3 1_555 1_555
Cd5_3 N1_3 1_555 1_555
O12_3 Cd11 1_555 1_555
Cd1_3 O3_3 1_555 1_555
Cd2_3 O4_3 1_555 1_555
Cd9_2 O10_3 1_555 1_555
O3_3 C10_3 1_555 1_555
O4_3 Cd1_3 1_555 1_555
H1_3 O4_3 1_555 1_555
H2_3 O4_3 1_555 1_555
O5_3 Cd2_3 1_555 1_555
O6_3 Cd2_3 1_555 1_555
O9_3 Cd2_3 1_555 1_555
O10_3 C25_3 1_555 1_555
O13_3 Cd1_3 1_555 1_555
O14_3 Cd2_3 1_555 1_555
H3_3 O14_3 1_555 1_555
H4_3 O14_3 1_555 1_555
O15_3 Cd1_3 1_555 1_555
O16_3 C42_3 1_555 1_555
O17_3 C42_3 1_555 1_555
O18_3 C32_3 1_555 1_555
O19_3 Cd1_3 1_555 1_555
H5_3 O19_3 1_555 1_555
H6_3 O19_3 1_555 1_555
C10_3 O5_3 1_555 1_555
C11_3 O6_3 1_555 1_555
C25_3 O9_3 1_555 1_555
C32_3 O15_3 1_555 1_555
C33_3 C32_3 1_555 1_555
C34_3 C33_3 1_555 1_555
C35_3 C34_3 1_555 1_555
H20_3 C36_3 1_555 1_555
H21_3 C37_3 1_555 1_555
C38_3 C34_3 1_555 1_555
H22_3 C38_3 1_555 1_555
C39_3 C38_3 1_555 1_555
C40_3 C39_3 1_555 1_555
H23_3 C40_3 1_555 1_555
C41_3 C33_3 1_555 1_555
H24_3 C41_3 1_555 1_555
C42_3 C39_3 1_555 1_555
Cd10 O16_3 1_555 1_555
O26_3 Cd9_2 1_555 1_555
O27_3 Cd9_2 1_555 1_555
O28_3 Cd9_2 1_555 1_555
N3_3 Cd1_3 1_555 1_555
N4_3 Cd2_3 1_555 1_555
O13_3 C11_3 1_555 1_555
O17_3 Cd10 1_555 1_555
C35_3 C36_3 1_555 1_555
C35_3 C37_3 1_555 1_555
C40_3 C41_3 1_555 1_555
Cd7 O7_3 1_555 1_555
O7_3 C24_3 1_555 1_555
O8_3 Cd7 1_555 1_555
H12_3 C16_3 1_555 1_555
C17_3 C16_3 1_555 1_555
C18_3 C17_3 1_555 1_555
C19_3 C18_3 1_555 1_555
C20_3 C19_3 1_555 1_555
C21_3 C20_3 1_555 1_555
H14_3 C21_3 1_555 1_555
C22_3 C21_3 1_555 1_555
C23_3 C18_3 1_555 1_555
H15_3 C23_3 1_555 1_555
C24_3 O8_3 1_555 1_555
O20_3 Cd7 1_555 1_555
H25_3 O20_3 1_555 1_555
H26_3 O20_3 1_555 1_555
O25_2 Cd7 1_555 1_555
C17_3 C26_3 1_555 1_555
C22_3 C23_3 1_555 1_555
C22_3 C24_3 1_555 1_555
O11_4 C31_4 1_555 1_555
O12_4 C31_4 1_555 1_555
N1_4 C15_4 1_555 1_555
C4_4 C3_4 1_555 1_555
C5_4 C4_4 1_555 1_555
H8_4 C5_4 1_555 1_555
C6_4 C5_4 1_555 1_555
H9_4 C6_4 1_555 1_555
C7_4 C6_4 1_555 1_555
C13_4 C12_4 1_555 1_555
C14_4 C13_4 1_555 1_555
C15_4 C14_4 1_555 1_555
H11_4 C15_4 1_555 1_555
C27_4 C13_4 1_555 1_555
H17_4 C27_4 1_555 1_555
C28_4 C27_4 1_555 1_555
C29_4 C28_4 1_555 1_555
H18_4 C29_4 1_555 1_555
C30_4 C12_4 1_555 1_555
H19_4 C30_4 1_555 1_555
C31_4 C28_4 1_555 1_555
Cd5_4 N1_4 1_555 1_555
Cd8_4 O11_4 1_555 1_555
Cd11_2 O11_4 1_555 1_555
O12_4 Cd11_2 1_555 1_555
C29_4 C30_4 1_555 1_555
O23_2 C9_4 1_555 1_555
N2_4 C1_4 1_555 1_555
C1_4 H7_4 1_555 1_555
C2_4 C1_4 1_555 1_555
H10_4 C8_4 1_555 1_555
Cd6_4 N2_4 1_555 1_555
Cd1_4 O3_4 1_555 1_555
Cd2_4 O4_4 1_555 1_555
Cd7_2 O7_4 1_555 1_555
Cd9 O10_4 1_555 1_555
O3_4 C10_4 1_555 1_555
O4_4 Cd1_4 1_555 1_555
H1_4 O4_4 1_555 1_555
H2_4 O4_4 1_555 1_555
O5_4 Cd2_4 1_555 1_555
O6_4 Cd2_4 1_555 1_555
O7_4 C24_4 1_555 1_555
O8_4 Cd7_2 1_555 1_555
O9_4 Cd2_4 1_555 1_555
O10_4 C25_4 1_555 1_555
O13_4 Cd1_4 1_555 1_555
O14_4 Cd2_4 1_555 1_555
H3_4 O14_4 1_555 1_555
H4_4 O14_4 1_555 1_555
O15_4 Cd1_4 1_555 1_555
O18_4 C32_4 1_555 1_555
O19_4 Cd1_4 1_555 1_555
H5_4 O19_4 1_555 1_555
H6_4 O19_4 1_555 1_555
C10_4 O5_4 1_555 1_555
C11_4 O6_4 1_555 1_555
H12_4 C16_4 1_555 1_555
C17_4 C16_4 1_555 1_555
C18_4 C17_4 1_555 1_555
C19_4 C18_4 1_555 1_555
C20_4 C19_4 1_555 1_555
H13_4 C20_4 1_555 1_555
C21_4 C20_4 1_555 1_555
H14_4 C21_4 1_555 1_555
C22_4 C21_4 1_555 1_555
C23_4 C18_4 1_555 1_555
H15_4 C23_4 1_555 1_555
C24_4 O8_4 1_555 1_555
C25_4 O9_4 1_555 1_555
H16_4 C26_4 1_555 1_555
C32_4 O15_4 1_555 1_555
O20_4 Cd7_2 1_555 1_555
H25_4 O20_4 1_555 1_555
H26_4 O20_4 1_555 1_555
O25_2 Cd9 1_555 1_555
O24_2 Cd7_2 1_555 1_555
O26_4 Cd9 1_555 1_555
O27_4 Cd9 1_555 1_555
O28_4 Cd9 1_555 1_555
N3_4 Cd1_4 1_555 1_555
N4_4 Cd2_4 1_555 1_555
O13_4 C11_4 1_555 1_555
C17_4 C26_4 1_555 1_555
C19_4 C25_4 1_555 1_555
C22_4 C23_4 1_555 1_555
C22_4 C24_4 1_555 1_555
O16_4 C42_4 1_555 1_555
O17_4 C42_4 1_555 1_555
C34_4 C33_4 1_555 1_555
C35_4 C34_4 1_555 1_555
H20_4 C36_4 1_555 1_555
C38_4 C34_4 1_555 1_555
H22_4 C38_4 1_555 1_555
C39_4 C38_4 1_555 1_555
C40_4 C39_4 1_555 1_555
H23_4 C40_4 1_555 1_555
C41_4 C33_4 1_555 1_555
C42_4 C39_4 1_555 1_555
Cd10_2 O16_4 1_555 1_555
O17_4 Cd10_2 1_555 1_555
C35_4 C36_4 1_555 1_555
C35_4 C37_4 1_555 1_555
C40_4 C41_4 1_555 1_555
O26 C31_5 1_555 1_555
Cd8_2 O7_5 1_555 1_555
O7_5 C24_5 1_555 1_555
O8_5 Cd8_2 1_555 1_555
N3_2 C15_5 1_555 1_555
C15_5 C14_5 1_555 1_555
H11_5 C15_5 1_555 1_555
C16_5 N3_2 1_555 1_555
H12_5 C16_5 1_555 1_555
C17_5 C16_5 1_555 1_555
C18_5 C17_5 1_555 1_555
C19_5 C18_5 1_555 1_555
C20_5 C19_5 1_555 1_555
C21_5 C20_5 1_555 1_555
H14_5 C21_5 1_555 1_555
C22_5 C21_5 1_555 1_555
C23_5 C18_5 1_555 1_555
H15_5 C23_5 1_555 1_555
C24_5 O8_5 1_555 1_555
C26_5 C14_5 1_555 1_555
H17_5 C27_5 1_555 1_555
O20_5 Cd8_2 1_555 1_555
H25_5 O20_5 1_555 1_555
H26_5 O20_5 1_555 1_555
C17_5 C26_5 1_555 1_555
C22_5 C23_5 1_555 1_555
C22_5 C24_5 1_555 1_555
Cd5_2 O3_5 1_555 1_555
Cd6_2 O4_5 1_555 1_555
Cd10 O10_5 1_555 1_555
O1_3 C9_5 1_555 1_555
O2_3 C9_5 1_555 1_555
O3_5 C10_5 1_555 1_555
O4_5 Cd5_2 1_555 1_555
H1_5 O4_5 1_555 1_555
H2_5 O4_5 1_555 1_555
O5_5 Cd6_2 1_555 1_555
O6_5 Cd6_2 1_555 1_555
O9_5 Cd6_2 1_555 1_555
O10_5 C25_5 1_555 1_555
O13_5 Cd5_2 1_555 1_555
O14_5 Cd6_2 1_555 1_555
H3_5 O14_5 1_555 1_555
H4_5 O14_5 1_555 1_555
O15_5 Cd5_2 1_555 1_555
O27_3 C42_5 1_555 1_555
O28_3 C42_5 1_555 1_555
O18_5 C32_5 1_555 1_555
O19_5 Cd5_2 1_555 1_555
H5_5 O19_5 1_555 1_555
H6_5 O19_5 1_555 1_555
N4_2 C1_5 1_555 1_555
C1_5 H7_5 1_555 1_555
C2_5 C1_5 1_555 1_555
C3_5 C2_5 1_555 1_555
C4_5 C3_5 1_555 1_555
C5_5 C4_5 1_555 1_555
H8_5 C5_5 1_555 1_555
C6_5 C5_5 1_555 1_555
H9_5 C6_5 1_555 1_555
C7_5 C6_5 1_555 1_555
C8_5 C3_5 1_555 1_555
H10_5 C8_5 1_555 1_555
C9_5 C7_5 1_555 1_555
C10_5 O5_5 1_555 1_555
C11_5 O6_5 1_555 1_555
C12_5 C11_5 1_555 1_555
C13_5 C12_5 1_555 1_555
C25_5 O9_5 1_555 1_555
C29_5 C28_5 1_555 1_555
H18_5 C29_5 1_555 1_555
C30_5 C12_5 1_555 1_555
H19_5 C30_5 1_555 1_555
C32_5 O15_5 1_555 1_555
C33_5 C32_5 1_555 1_555
C34_5 C33_5 1_555 1_555
C35_5 C34_5 1_555 1_555
C36_5 N4_2 1_555 1_555
H20_5 C36_5 1_555 1_555
C37_5 C2_5 1_555 1_555
H21_5 C37_5 1_555 1_555
C38_5 C34_5 1_555 1_555
H22_5 C38_5 1_555 1_555
C39_5 C38_5 1_555 1_555
C40_5 C39_5 1_555 1_555
H23_5 C40_5 1_555 1_555
C41_5 C33_5 1_555 1_555
H24_5 C41_5 1_555 1_555
C42_5 C39_5 1_555 1_555
Cd8_4 O1_3 1_555 1_555
Cd11_2 O1_3 1_555 1_555
O22_2 Cd10 1_555 1_555
O2_3 Cd8_4 1_555 1_555
O13_5 C11_5 1_555 1_555
C4_5 C10_5 1_555 1_555
C7_5 C8_5 1_555 1_555
C29_5 C30_5 1_555 1_555
C35_5 C36_5 1_555 1_555
C35_5 C37_5 1_555 1_555
C40_5 C41_5 1_555 1_555
O2_4 C9_6 1_555 1_555
O27_4 C42_6 1_555 1_555
O28_4 C42_6 1_555 1_555
N4 C1_6 1_555 1_555
C1_6 H7_6 1_555 1_555
C2_6 C1_6 1_555 1_555
H10_6 C8_6 1_555 1_555
C34_6 C33_6 1_555 1_555
C35_6 C34_6 1_555 1_555
C36_6 N4 1_555 1_555
H20_6 C36_6 1_555 1_555
C37_6 C2_6 1_555 1_555
C38_6 C34_6 1_555 1_555
H22_6 C38_6 1_555 1_555
C39_6 C38_6 1_555 1_555
C40_6 C39_6 1_555 1_555
H23_6 C40_6 1_555 1_555
C41_6 C33_6 1_555 1_555
C42_6 C39_6 1_555 1_555
O2_4 Cd8_3 1_555 1_555
C35_6 C36_6 1_555 1_555
C35_6 C37_6 1_555 1_555
C40_6 C41_6 1_555 1_555
Cd5 O3_6 1_555 1_555
Cd6 O4_6 1_555 1_555
Cd8 O7_6 1_555 1_555
Cd10_2 O10_6 1_555 1_555
O3_6 C10_6 1_555 1_555
O4_6 Cd5 1_555 1_555
H1_6 O4_6 1_555 1_555
H2_6 O4_6 1_555 1_555
O5_6 Cd6 1_555 1_555
O6_6 Cd6 1_555 1_555
O7_6 C24_6 1_555 1_555
O8_6 Cd8 1_555 1_555
O9_6 Cd6 1_555 1_555
O10_6 C25_6 1_555 1_555
O13_6 Cd5 1_555 1_555
O14_6 Cd6 1_555 1_555
H3_6 O14_6 1_555 1_555
H4_6 O14_6 1_555 1_555
O15_6 Cd5 1_555 1_555
O18_6 C32_6 1_555 1_555
O19_6 Cd5 1_555 1_555
H5_6 O19_6 1_555 1_555
H6_6 O19_6 1_555 1_555
N3 C15_6 1_555 1_555
C4_6 C3_6 1_555 1_555
C5_6 C4_6 1_555 1_555
H8_6 C5_6 1_555 1_555
C6_6 C5_6 1_555 1_555
H9_6 C6_6 1_555 1_555
C7_6 C6_6 1_555 1_555
C10_6 O5_6 1_555 1_555
C11_6 O6_6 1_555 1_555
C12_6 C11_6 1_555 1_555
C13_6 C12_6 1_555 1_555
C14_6 C13_6 1_555 1_555
C15_6 C14_6 1_555 1_555
H11_6 C15_6 1_555 1_555
C16_6 N3 1_555 1_555
H12_6 C16_6 1_555 1_555
C17_6 C16_6 1_555 1_555
C18_6 C17_6 1_555 1_555
C19_6 C18_6 1_555 1_555
C20_6 C19_6 1_555 1_555
H13_6 C20_6 1_555 1_555
C21_6 C20_6 1_555 1_555
H14_6 C21_6 1_555 1_555
C22_6 C21_6 1_555 1_555
C23_6 C18_6 1_555 1_555
H15_6 C23_6 1_555 1_555
C24_6 O8_6 1_555 1_555
C25_6 O9_6 1_555 1_555
C26_6 C14_6 1_555 1_555
H16_6 C26_6 1_555 1_555
C27_6 C13_6 1_555 1_555
H17_6 C27_6 1_555 1_555
C28_6 C27_6 1_555 1_555
C29_6 C28_6 1_555 1_555
H18_6 C29_6 1_555 1_555
C30_6 C12_6 1_555 1_555
H19_6 C30_6 1_555 1_555
C32_6 O15_6 1_555 1_555
O20_6 Cd8 1_555 1_555
H25_6 O20_6 1_555 1_555
H26_6 O20_6 1_555 1_555
Cd11 O1_4 1_555 1_555
O21_2 Cd10_2 1_555 1_555
O13_6 C11_6 1_555 1_555
C4_6 C10_6 1_555 1_555
C17_6 C26_6 1_555 1_555
C19_6 C25_6 1_555 1_555
C22_6 C23_6 1_555 1_555
C22_6 C24_6 1_555 1_555
C29_6 C30_6 1_555 1_555
O25 C31_6 1_555 1_555
O26_2 C31_6 1_555 1_555
Cd8_4 O7_7 1_555 1_555
O7_7 C24_7 1_555 1_555
O8_7 Cd8_4 1_555 1_555
H12_7 C16_7 1_555 1_555
C17_7 C16_7 1_555 1_555
C18_7 C17_7 1_555 1_555
C19_7 C18_7 1_555 1_555
C20_7 C19_7 1_555 1_555
C21_7 C20_7 1_555 1_555
H14_7 C21_7 1_555 1_555
C22_7 C21_7 1_555 1_555
C23_7 C18_7 1_555 1_555
H15_7 C23_7 1_555 1_555
C24_7 O8_7 1_555 1_555
O20_7 Cd8_4 1_555 1_555
H25_7 O20_7 1_555 1_555
H26_7 O20_7 1_555 1_555
C17_7 C26_7 1_555 1_555
C22_7 C23_7 1_555 1_555
C22_7 C24_7 1_555 1_555
Cd5_4 O3_7 1_555 1_555
Cd6_4 O4_7 1_555 1_555
Cd11 O10_7 1_555 1_555
O3_7 C10_7 1_555 1_555
O4_7 Cd5_4 1_555 1_555
H1_7 O4_7 1_555 1_555
H2_7 O4_7 1_555 1_555
O5_7 Cd6_4 1_555 1_555
O6_7 Cd6_4 1_555 1_555
O9_7 Cd6_4 1_555 1_555
O10_7 C25_7 1_555 1_555
O13_7 Cd5_4 1_555 1_555
O14_7 Cd6_4 1_555 1_555
H3_7 O14_7 1_555 1_555
H4_7 O14_7 1_555 1_555
O15_7 Cd5_4 1_555 1_555
O27 C42_7 1_555 1_555
O28 C42_7 1_555 1_555
O18_7 C32_7 1_555 1_555
O19_7 Cd5_4 1_555 1_555
H5_7 O19_7 1_555 1_555
H6_7 O19_7 1_555 1_555
C10_7 O5_7 1_555 1_555
C11_7 O6_7 1_555 1_555
C25_7 O9_7 1_555 1_555
C32_7 O15_7 1_555 1_555
C33_7 C32_7 1_555 1_555
C34_7 C33_7 1_555 1_555
C35_7 C34_7 1_555 1_555
H20_7 C36_7 1_555 1_555
H21_7 C37_7 1_555 1_555
C38_7 C34_7 1_555 1_555
H22_7 C38_7 1_555 1_555
C39_7 C38_7 1_555 1_555
C40_7 C39_7 1_555 1_555
H23_7 C40_7 1_555 1_555
C41_7 C33_7 1_555 1_555
H24_7 C41_7 1_555 1_555
C42_7 C39_7 1_555 1_555
O13_7 C11_7 1_555 1_555
C35_7 C36_7 1_555 1_555
C35_7 C37_7 1_555 1_555
C40_7 C41_7 1_555 1_555
O26_3 C31_7 1_555 1_555
N3_4 C15_7 1_555 1_555
C15_7 C14_7 1_555 1_555
H11_7 C15_7 1_555 1_555
H17_7 C27_7 1_555 1_555
O21_2 C9_7 1_555 1_555
O23_3 C9_7 1_555 1_555
N4_4 C1_7 1_555 1_555
C1_7 H7_7 1_555 1_555
C2_7 C1_7 1_555 1_555
C3_7 C2_7 1_555 1_555
C4_7 C3_7 1_555 1_555
C5_7 C4_7 1_555 1_555
H8_7 C5_7 1_555 1_555
C6_7 C5_7 1_555 1_555
H9_7 C6_7 1_555 1_555
C7_7 C6_7 1_555 1_555
C8_7 C3_7 1_555 1_555
H10_7 C8_7 1_555 1_555
C9_7 C7_7 1_555 1_555
C13_7 C12_7 1_555 1_555
C29_7 C28_7 1_555 1_555
H18_7 C29_7 1_555 1_555
C30_7 C12_7 1_555 1_555
H19_7 C30_7 1_555 1_555
C7_7 C8_7 1_555 1_555
C29_7 C30_7 1_555 1_555
O27_2 C42_8 1_555 1_555
O28_2 C42_8 1_555 1_555
C34_8 C33_8 1_555 1_555
C35_8 C34_8 1_555 1_555
H20_8 C36_8 1_555 1_555
C38_8 C34_8 1_555 1_555
H22_8 C38_8 1_555 1_555
C39_8 C38_8 1_555 1_555
C40_8 C39_8 1_555 1_555
H23_8 C40_8 1_555 1_555
C41_8 C33_8 1_555 1_555
C42_8 C39_8 1_555 1_555
C35_8 C36_8 1_555 1_555
C35_8 C37_8 1_555 1_555
C40_8 C41_8 1_555 1_555
Cd5_3 O3_8 1_555 1_555
Cd6_3 O4_8 1_555 1_555
Cd8_3 O7_8 1_555 1_555
Cd11_2 O10_8 1_555 1_555
O3_8 C10_8 1_555 1_555
O4_8 Cd5_3 1_555 1_555
H1_8 O4_8 1_555 1_555
H2_8 O4_8 1_555 1_555
O5_8 Cd6_3 1_555 1_555
O6_8 Cd6_3 1_555 1_555
O7_8 C24_8 1_555 1_555
O8_8 Cd8_3 1_555 1_555
O9_8 Cd6_3 1_555 1_555
O10_8 C25_8 1_555 1_555
O13_8 Cd5_3 1_555 1_555
O14_8 Cd6_3 1_555 1_555
H3_8 O14_8 1_555 1_555
H4_8 O14_8 1_555 1_555
O15_8 Cd5_3 1_555 1_555
O18_8 C32_8 1_555 1_555
O19_8 Cd5_3 1_555 1_555
H5_8 O19_8 1_555 1_555
H6_8 O19_8 1_555 1_555
C10_8 O5_8 1_555 1_555
C11_8 O6_8 1_555 1_555
H12_8 C16_8 1_555 1_555
C17_8 C16_8 1_555 1_555
C18_8 C17_8 1_555 1_555
C19_8 C18_8 1_555 1_555
C20_8 C19_8 1_555 1_555
H13_8 C20_8 1_555 1_555
C21_8 C20_8 1_555 1_555
H14_8 C21_8 1_555 1_555
C22_8 C21_8 1_555 1_555
C23_8 C18_8 1_555 1_555
H15_8 C23_8 1_555 1_555
C24_8 O8_8 1_555 1_555
C25_8 O9_8 1_555 1_555
H16_8 C26_8 1_555 1_555
C32_8 O15_8 1_555 1_555
O20_8 Cd8_3 1_555 1_555
H25_8 O20_8 1_555 1_555
H26_8 O20_8 1_555 1_555
O13_8 C11_8 1_555 1_555
C17_8 C26_8 1_555 1_555
C19_8 C25_8 1_555 1_555
C22_8 C23_8 1_555 1_555
C22_8 C24_8 1_555 1_555
O23_4 C9_8 1_555 1_555
N4_3 C1_8 1_555 1_555
C1_8 H7_8 1_555 1_555
C2_8 C1_8 1_555 1_555
H10_8 C8_8 1_555 1_555
O25_2 C31_8 1_555 1_555
O26_4 C31_8 1_555 1_555
N3_3 C15_8 1_555 1_555
C4_8 C3_8 1_555 1_555
C5_8 C4_8 1_555 1_555
H8_8 C5_8 1_555 1_555
C6_8 C5_8 1_555 1_555
H9_8 C6_8 1_555 1_555
C7_8 C6_8 1_555 1_555
C13_8 C12_8 1_555 1_555
C14_8 C13_8 1_555 1_555
C15_8 C14_8 1_555 1_555
H11_8 C15_8 1_555 1_555
C27_8 C13_8 1_555 1_555
H17_8 C27_8 1_555 1_555
C28_8 C27_8 1_555 1_555
C29_8 C28_8 1_555 1_555
H18_8 C29_8 1_555 1_555
C30_8 C12_8 1_555 1_555
H19_8 C30_8 1_555 1_555
C31_8 C28_8 1_555 1_555
C29_8 C30_8 1_555 1_555

#END
