
###############################################################################
#
# This file contains modified crystal structure data generated from the
# MOF subset of the Cambridge Structural Database (CSD) v543 
# hosted by the Cambridge Crystallographic Data Centre (CCDC).
#
# This work is licensed under the Creative Commons
# Attribution-NonCommercial-ShareAlike 4.0 International License.
# To view a copy of this license, visit
# http://creativecommons.org/licenses/by-nc-sa/4.0/
# or send a letter to
# Creative Commons, PO Box 1866, Mountain View, CA 94042, USA.
#
# CIF created using the CSD Python API on 29 September 2022
# The structure has been converted into the P1 space group
# The structure has a 3D framework
# The original CSD entry ZILBAZ is in the trigonal crystal system
# The original CSD entry ZILBAZ is in a Sohncke space group
# The framework has been calculated to contain at least 10.0% void space
# The void calculation uses a probe of radius 1.32A, grid spacing 0.4
#
###############################################################################

data_ZILBAZ
_chemical_formula_moiety         '(C78 H66 Co3 N6 O18)n'
_symmetry_cell_setting           triclinic
_symmetry_space_group_name_H-M   'P 1'
_symmetry_Int_Tables_number      1
_space_group_name_Hall           'P 1'
loop_
_symmetry_equiv_pos_site_id
_symmetry_equiv_pos_as_xyz
1 x,y,z
_cell_length_a                   10.7022(4)
_cell_length_b                   10.7022(4)
_cell_length_c                   22.8742(19)
_cell_angle_alpha                90
_cell_angle_beta                 90
_cell_angle_gamma                120
_cell_volume                     2268.94
loop_
_atom_site_label
_atom_site_type_symbol
_atom_site_fract_x
_atom_site_fract_y
_atom_site_fract_z
C14 C 0.383(2) 0.022(2) 0.4101(8)
H10 H 0.4278 0.1213 0.4003
C18 C 0.274(2) 0.0659(18) 0.4989(7)
C19 C 0.361(3) 0.210(2) 0.4987(10)
H13 H 0.4401 0.2525 0.4723
C20 C 0.337(3) 0.297(2) 0.5369(9)
H14 H 0.4031 0.3981 0.5370
C21 C 0.224(2) 0.2454(19) 0.5734(8)
C22 C 0.130(3) 0.096(3) 0.5734(12)
H15 H 0.0478 0.0543 0.5981
C23 C 0.157(3) 0.008(3) 0.5378(9)
C24 C 0.198(2) 0.339(2) 0.6144(8)
O2 O 0.2893(14) 0.4727(13) 0.6141(5)
O3 O 0.087(2) 0.2778(15) 0.6470(9)
Co3 Co 0.2897(3) 0.6447(2) 0.6558(2)
H6 H 0.0494 0.9957 0.7148
C9 C 0.227(2) 0.9803(27) 0.7373(7)
H7 H 0.3889 0.9889 0.7778
C12 C 0.1942(9) 0.8521(13) 0.6977(4)
O1 O 0.0843(9) 0.8061(13) 0.6642(4)
O6 O 0.2868(13) 0.8137(18) 0.6980(5)
N1 N 0.4525(23) 0.7882(15) 0.5960(5)
C1 C 0.4818(27) 0.7488(18) 0.5453(8)
H1 H 0.4206 0.6507 0.5346
C2 C 0.5822(26) 0.8272(17) 0.5085(7)
H2 H 0.5968 0.7849 0.4745
C3 C 0.6695(24) 0.9736(18) 0.5192(6)
C5 C 0.535(5) 0.927(3) 0.6059(13)
H4 H 0.5258 0.9648 0.6422
H5 H 0.8298 0.9087 0.4511
N2 N 0.4471(13) 0.6578(9) 0.7164(4)
C13 C 0.529(3) 0.597(2) 0.7075(9)
H9 H 0.5086 0.5362 0.6743
C14_2 C 0.639(3) 0.617(2) 0.7434(8)
H10_2 H 0.6935 0.5722 0.7336
C15 C 0.6734(21) 0.6989(13) 0.7929(5)
C16 C 0.5857(28) 0.754(2) 0.8022(7)
H11 H 0.5981 0.8074 0.8370
C17 C 0.4807(28) 0.737(2) 0.7643(8)
H12 H 0.4274 0.7840 0.7728
C18_2 C 0.7919(27) 0.726(2) 0.8322(7)
C19_2 C 0.849(4) 0.639(3) 0.8320(10)
H13_2 H 0.8124 0.5599 0.8056
C20_2 C 0.960(4) 0.663(3) 0.8702(9)
H14_2 H 0.9950 0.5969 0.8703
C22_2 C 0.966(4) 0.870(3) 0.9067(12)
C23_2 C 0.851(4) 0.843(3) 0.8711(9)
H16 H 0.8123 0.9054 0.8728
C25 C 0.013(5) 0.503(4) 0.7405(14)
H17 H 0.0476 0.6049 0.7492
O4 O 0.1271(22) 0.4903(16) 0.7119(5)
C26 C 0.024(6) 0.514(4) 0.5733(15)
H20 H 0.0447 0.5149 0.5315
H22 H 0.0209 0.4295 0.5917
O5 O 0.1278(21) 0.6350(13) 0.5986(5)
Co1 Co 0.3553(2) 0.6450(2) 0.3225(2)
N1_2 N 0.2118(15) 0.6643(18) 0.2627(5)
C1_2 C 0.2512(18) 0.733(2) 0.2120(8)
H1_2 H 0.3493 0.7699 0.2013
C2_2 C 0.1728(17) 0.755(2) 0.1752(7)
H2_2 H 0.2151 0.8119 0.1412
C3_2 C 0.0264(18) 0.6959(16) 0.1859(6)
C5_2 C 0.073(3) 0.608(4) 0.2726(13)
H4_2 H 0.0352 0.5610 0.3089
H5_2 H 0.0913 0.9211 0.1178
N2_2 N 0.3422(9) 0.7893(9) 0.3831(4)
C13_2 C 0.403(2) 0.932(2) 0.3742(9)
H9_2 H 0.4638 0.9724 0.3410
C15_2 C 0.3011(13) 0.9745(17) 0.4596(5)
C16_2 C 0.246(2) 0.8317(19) 0.4689(7)
H11_2 H 0.1926 0.7907 0.5037
C17_2 C 0.263(2) 0.7437(19) 0.4310(8)
H12_2 H 0.2160 0.6434 0.4395
H16_2 H 0.0946 0.9069 0.5395
C25_2 C 0.497(4) 0.510(3) 0.4072(14)
H17_2 H 0.3951 0.4427 0.4159
H18 H 0.5522 0.5389 0.4437
H19 H 0.5344 0.4636 0.3815
O4_2 O 0.5097(16) 0.6368(15) 0.3786(5)
C26_2 C 0.486(4) 0.510(4) 0.2400(15)
H20_2 H 0.4851 0.5298 0.1982
H21 H 0.4917 0.4220 0.2450
H22_2 H 0.5705 0.5914 0.2584
O5_2 O 0.3650(13) 0.4928(16) 0.2653(5)
O7 O 0.5273(13) 0.8166(19) 0.2808(5)
O8 O 0.1863(18) 0.4731(12) 0.3646(5)
C21_2 C 0.7546(19) 0.9786(28) 0.2401(8)
H15_2 H 0.9457 0.9935 0.2648
C24_2 C 0.661(2) 0.859(3) 0.2811(8)
O3_2 O 0.7222(15) 0.8092(25) 0.3137(9)
H6_2 H 0.0043 0.0537 0.3814
C9_2 C 0.0197(27) 0.2467(18) 0.4039(7)
H7_2 H 0.0111 0.4000 0.4444
C12_2 C 0.1479(13) 0.3421(9) 0.3643(4)
O1_2 O 0.1939(13) 0.2782(9) 0.3308(4)
C4 C 0.980(3) 0.614(3) 0.2332(10)
H3 H 0.8789 0.5579 0.2400
C6 C 0.9334(16) 0.724(2) 0.1466(6)
C7 C 0.993(4) 0.850(4) 0.1136(13)
C8 C 0.904(3) 0.870(3) 0.0737(14)
H6_3 H 0.9463 0.9506 0.0481
C9_3 C 0.7533(18) 0.773(2) 0.0706(7)
C10 C 0.702(2) 0.668(3) 0.1083(11)
H7_3 H 0.6000 0.6111 0.1111
C11 C 0.7825(9) 0.6333(9) 0.1445(4)
H8 H 0.7368 0.5487 0.1679
C12_3 C 0.6579(9) 0.8058(9) 0.0310(4)
O6_2 O 0.5269(12) 0.7132(13) 0.0313(5)
N2_3 N 0.2107(9) 0.5529(13) 0.0498(4)
C13_3 C 0.068(2) 0.471(3) 0.0409(9)
H9_3 H 0.0276 0.4914 0.0077
C15_3 C 0.0255(17) 0.3266(21) 0.1263(5)
C16_3 C 0.1683(19) 0.4143(28) 0.1356(7)
H11_3 H 0.2093 0.4019 0.1704
C17_3 C 0.2563(19) 0.5193(28) 0.0977(8)
H12_3 H 0.3566 0.5726 0.1062
H16_3 H 0.0931 0.1877 0.2062
C25_3 C 0.490(3) 0.987(5) 0.0739(14)
H17_3 H 0.5573 0.9524 0.0826
O4_3 O 0.3632(15) 0.8729(22) 0.0453(5)
O1_3 O 0.7218(9) 0.9157(9) 0.9975(4)
Co2 Co 0.3550(2) 0.7103(3) 0.9892(2)
N1_3 N 0.3357(18) 0.5475(23) 0.9294(5)
C1_3 C 0.267(2) 0.5182(27) 0.8787(8)
H1_3 H 0.2301 0.5794 0.8680
C2_3 C 0.245(2) 0.4178(26) 0.8419(7)
H2_3 H 0.1881 0.4032 0.8079
C3_3 C 0.3041(16) 0.3305(24) 0.8526(6)
C4_2 C 0.386(3) 0.366(4) 0.8999(10)
H3_2 H 0.4421 0.3210 0.9067
C5_3 C 0.392(4) 0.465(5) 0.9393(13)
H4_3 H 0.4390 0.4742 0.9756
C6_2 C 0.276(2) 0.2094(26) 0.8133(6)
C7_2 C 0.150(4) 0.143(6) 0.7803(13)
H5_3 H 0.0789 0.1702 0.7845
C8_2 C 0.130(3) 0.034(4) 0.7404(14)
C10_2 C 0.332(3) 0.034(4) 0.7750(11)
C11_2 C 0.3667(9) 0.1492(13) 0.8112(4)
H8_2 H 0.4513 0.1881 0.8346
C26_3 C 0.490(4) 0.976(6) 0.9067(15)
H20_3 H 0.4702 0.9553 0.8649
H22_3 H 0.4086 0.9791 0.9251
O5_3 O 0.5072(16) 0.8722(21) 0.9320(5)
O7_2 O 0.1834(19) 0.7107(23) 0.9474(5)
C21_3 C 0.0214(28) 0.776(2) 0.9067(8)
H15_3 H 0.0065 0.9522 0.9314
C24_3 C 0.141(3) 0.802(2) 0.9477(8)
O3_3 O 0.1908(25) 0.913(2) 0.9803(9)
H18_2 H 0.4611 0.0133 0.1104
H19_2 H 0.5364 0.0708 0.0482
H21_2 H 0.5780 0.0697 0.9117
C14_3 C 0.978(2) 0.361(3) 0.0768(8)
H10_3 H 0.8787 0.3065 0.0670
C18_3 C 0.9341(18) 0.2081(27) 0.1656(7)
C19_3 C 0.790(2) 0.151(4) 0.1654(10)
H13_3 H 0.7475 0.1876 0.1390
C20_3 C 0.703(2) 0.040(4) 0.2036(9)
H14_3 H 0.6019 0.0050 0.2037
C22_3 C 0.904(3) 0.034(4) 0.2401(12)
C23_3 C 0.992(3) 0.149(4) 0.2045(9)
C4_3 C 0.634(4) 0.020(3) 0.5665(10)
H3_3 H 0.6790 0.1211 0.5733
C6_3 C 0.7906(26) 0.0666(16) 0.4799(6)
C7_3 C 0.857(6) 0.007(4) 0.4469(13)
C8_3 C 0.966(4) 0.096(3) 0.4070(14)
C10_3 C 0.966(4) 0.298(2) 0.4416(11)
C11_3 C 0.8508(13) 0.2175(9) 0.4778(4)
H8_3 H 0.8119 0.2632 0.5012
H18_3 H 0.9867 0.4478 0.7770
H19_3 H 0.9292 0.4656 0.7148
H21_3 H 0.9303 0.5083 0.5783
loop_
_geom_bond_atom_site_label_1
_geom_bond_atom_site_label_2
_geom_bond_site_symmetry_1
_geom_bond_site_symmetry_2
H10 C14 1_555 1_555
C19 C18 1_555 1_555
H13 C19 1_555 1_555
C20 C19 1_555 1_555
H14 C20 1_555 1_555
C21 C20 1_555 1_555
C22 C21 1_555 1_555
H15 C22 1_555 1_555
C23 C18 1_555 1_555
C24 C21 1_555 1_555
O2 C24 1_555 1_555
O3 C24 1_555 1_555
Co3 O2 1_555 1_555
C22 C23 1_555 1_555
C12 C9 1_555 1_555
O1 C12 1_555 1_555
O6 C12 1_555 1_555
Co3 O6 1_555 1_555
Co3 N1 1_555 1_555
N1 C1 1_555 1_555
C1 H1 1_555 1_555
C2 C1 1_555 1_555
H2 C2 1_555 1_555
C3 C2 1_555 1_555
C5 N1 1_555 1_555
H4 C5 1_555 1_555
N2 Co3 1_555 1_555
C13 N2 1_555 1_555
H9 C13 1_555 1_555
C14_2 C13 1_555 1_555
H10_2 C14_2 1_555 1_555
C15 C14_2 1_555 1_555
C16 C15 1_555 1_555
H11 C16 1_555 1_555
C17 N2 1_555 1_555
H12 C17 1_555 1_555
C18_2 C15 1_555 1_555
C19_2 C18_2 1_555 1_555
H13_2 C19_2 1_555 1_555
C20_2 C19_2 1_555 1_555
H14_2 C20_2 1_555 1_555
C23_2 C18_2 1_555 1_555
H16 C23_2 1_555 1_555
C25 H17 1_555 1_555
O4 Co3 1_555 1_555
C26 H20 1_555 1_555
H22 C26 1_555 1_555
O5 Co3 1_555 1_555
C16 C17 1_555 1_555
C22_2 C23_2 1_555 1_555
C25 O4 1_555 1_555
C26 O5 1_555 1_555
Co1 N1_2 1_555 1_555
N1_2 C1_2 1_555 1_555
C1_2 H1_2 1_555 1_555
C2_2 C1_2 1_555 1_555
H2_2 C2_2 1_555 1_555
C3_2 C2_2 1_555 1_555
C5_2 N1_2 1_555 1_555
H4_2 C5_2 1_555 1_555
N2_2 Co1 1_555 1_555
C13_2 N2_2 1_555 1_555
H9_2 C13_2 1_555 1_555
C16_2 C15_2 1_555 1_555
H11_2 C16_2 1_555 1_555
C17_2 N2_2 1_555 1_555
H12_2 C17_2 1_555 1_555
C25_2 H17_2 1_555 1_555
H18 C25_2 1_555 1_555
H19 C25_2 1_555 1_555
O4_2 Co1 1_555 1_555
C26_2 H20_2 1_555 1_555
H21 C26_2 1_555 1_555
H22_2 C26_2 1_555 1_555
O5_2 Co1 1_555 1_555
O7 Co1 1_555 1_555
O8 Co1 1_555 1_555
C16_2 C17_2 1_555 1_555
C25_2 O4_2 1_555 1_555
C26_2 O5_2 1_555 1_555
C24_2 C21_2 1_555 1_555
O7 C24_2 1_555 1_555
O3_2 C24_2 1_555 1_555
C12_2 C9_2 1_555 1_555
O1_2 C12_2 1_555 1_555
O8 C12_2 1_555 1_555
H3 C4 1_555 1_555
C7 C6 1_555 1_555
C8 C7 1_555 1_555
H6_3 C8 1_555 1_555
C9_3 C8 1_555 1_555
C10 C9_3 1_555 1_555
H7_3 C10 1_555 1_555
C11 C6 1_555 1_555
H8 C11 1_555 1_555
C12_3 C9_3 1_555 1_555
O6_2 C12_3 1_555 1_555
C10 C11 1_555 1_555
C13_3 N2_3 1_555 1_555
H9_3 C13_3 1_555 1_555
C16_3 C15_3 1_555 1_555
H11_3 C16_3 1_555 1_555
C17_3 N2_3 1_555 1_555
H12_3 C17_3 1_555 1_555
C25_3 H17_3 1_555 1_555
C16_3 C17_3 1_555 1_555
C25_3 O4_3 1_555 1_555
Co2 N1_3 1_555 1_555
N1_3 C1_3 1_555 1_555
C1_3 H1_3 1_555 1_555
C2_3 C1_3 1_555 1_555
H2_3 C2_3 1_555 1_555
C3_3 C2_3 1_555 1_555
C4_2 C3_3 1_555 1_555
H3_2 C4_2 1_555 1_555
C5_3 N1_3 1_555 1_555
H4_3 C5_3 1_555 1_555
C6_2 C3_3 1_555 1_555
C7_2 C6_2 1_555 1_555
H5_3 C7_2 1_555 1_555
C8_2 C7_2 1_555 1_555
C11_2 C6_2 1_555 1_555
H8_2 C11_2 1_555 1_555
C26_3 H20_3 1_555 1_555
H22_3 C26_3 1_555 1_555
O5_3 Co2 1_555 1_555
O7_2 Co2 1_555 1_555
C4_2 C5_3 1_555 1_555
C10_2 C11_2 1_555 1_555
C26_3 O5_3 1_555 1_555
C24_3 C21_3 1_555 1_555
O7_2 C24_3 1_555 1_555
O3_3 C24_3 1_555 1_555
H10_3 C14_3 1_555 1_555
C19_3 C18_3 1_555 1_555
H13_3 C19_3 1_555 1_555
C20_3 C19_3 1_555 1_555
H14_3 C20_3 1_555 1_555
C23_3 C18_3 1_555 1_555
C22_3 C23_3 1_555 1_555
H3_3 C4_3 1_555 1_555
C7_3 C6_3 1_555 1_555
C8_3 C7_3 1_555 1_555
C11_3 C6_3 1_555 1_555
H8_3 C11_3 1_555 1_555
C10_3 C11_3 1_555 1_555

#END
