
###############################################################################
#
# This file contains modified crystal structure data generated from the
# MOF subset of the Cambridge Structural Database (CSD) v543 
# hosted by the Cambridge Crystallographic Data Centre (CCDC).
#
# This work is licensed under the Creative Commons
# Attribution-NonCommercial-ShareAlike 4.0 International License.
# To view a copy of this license, visit
# http://creativecommons.org/licenses/by-nc-sa/4.0/
# or send a letter to
# Creative Commons, PO Box 1866, Mountain View, CA 94042, USA.
#
# CIF created using the CSD Python API on 29 September 2022
# The structure has been converted into the P1 space group
# The structure has a 3D framework
# The original CSD entry ZILBIH is in the tetragonal crystal system
# The original CSD entry ZILBIH is in a Sohncke space group
# The framework has been calculated to contain at least 10.0% void space
# The void calculation uses a probe of radius 1.32A, grid spacing 0.4
#
###############################################################################

data_ZILBIH
_chemical_formula_moiety         '(C192 H128 Co8 N16 O32)n'
_symmetry_cell_setting           triclinic
_symmetry_space_group_name_H-M   'P 1'
_symmetry_Int_Tables_number      1
_space_group_name_Hall           'P 1'
loop_
_symmetry_equiv_pos_site_id
_symmetry_equiv_pos_as_xyz
1 x,y,z
_cell_length_a                   22.6591(11)
_cell_length_b                   22.6591(11)
_cell_length_c                   12.7035(12)
_cell_angle_alpha                90
_cell_angle_beta                 90
_cell_angle_gamma                90
_cell_volume                     6522.42
loop_
_atom_site_label
_atom_site_type_symbol
_atom_site_fract_x
_atom_site_fract_y
_atom_site_fract_z
Co1 Co 0.25688(2) 0.26245(2) 0.24712(4)
O1 O 0.28321(16) 0.31553(14) 0.1260(2)
O2 O 0.20525(14) 0.24737(17) 0.3771(2)
O3 O 0.16078(14) 0.29198(16) 0.2454(3)
C1 C 0.1598(2) 0.2719(2) 0.3371(3)
O4 O 0.27737(18) 0.36030(15) 0.2789(3)
C2 C 0.1044(2) 0.2762(2) 0.4024(3)
C3 C 0.2889(2) 0.4200(2) 0.1246(3)
C4 C 0.0002(2) 0.2768(2) 0.5182(3)
C5 C 0.1016(2) 0.2464(2) 0.4986(4)
H1 H 0.1351 0.2259 0.5246
C6 C 0.2839(2) 0.3624(2) 0.1793(3)
C7 C 0.2862(3) 0.5279(2) 0.0162(4)
H3 H 0.2242 0.6255 0.0611
C12 C 0.0496(2) 0.2471(3) 0.5556(4)
H4 H 0.0476 0.2271 0.6212
C16 C 0.0562(2) 0.3071(2) 0.3666(4)
H8 H 0.0584 0.3281 0.3020
C20 C 0.0045(2) 0.3077(3) 0.4245(4)
C21 C 0.2803(3) 0.4730(2) 0.1787(4)
H13 H 0.2754 0.4725 0.2530
C22 C 0.2787(3) 0.5262(2) 0.1255(4)
H14 H 0.2725 0.5619 0.1633
C23 C 0.2987(2) 0.4218(2) 0.0167(4)
N3 N 0.33572(16) 0.23915(19) 0.3168(3)
N4 N 0.23956(18) 0.18707(17) 0.1604(3)
N1 N 0.83572(16) 0.26085(19) 0.6832(3)
C9 C 0.9432(2) 0.2741(2) 0.5762(4)
C10 C 0.8900(2) 0.2737(2) 0.5228(3)
H2 H 0.8893 0.2780 0.4484
C15 C 0.8377(2) 0.2670(2) 0.5785(4)
H7 H 0.8016 0.2668 0.5405
C18 C 0.8873(2) 0.2638(3) 0.7354(4)
H10 H 0.8866 0.2616 0.8100
C19 C 0.9410(2) 0.2698(3) 0.6859(4)
H11 H 0.9763 0.2710 0.7261
H12 H 0.9715 0.3295 0.3997
Co2 Co 0.75688(2) 0.23755(2) 0.75288(4)
N2 N 0.73956(18) 0.31293(17) 0.8396(3)
C8 C 0.7212(2) 0.4157(2) 0.9571(3)
C11 C 0.7571(2) 0.3709(2) 0.9945(4)
C13 C 0.7024(3) 0.5256(2) 0.9639(4)
H5 H 0.6954 0.5252 0.8902
C14 C 0.7041(2) 0.3557(2) 0.8048(3)
H6 H 0.6856 0.3508 0.7383
C17 C 0.7652(2) 0.3211(2) 0.9346(4)
H9 H 0.7902 0.2909 0.9612
H15 H 0.6938 0.6138 0.9793
C24 C 0.6931(3) 0.4066(2) 0.8603(4)
H16 H 0.6666 0.4354 0.8332
O1_2 O 0.78321(16) 0.18447(14) 0.8740(2)
O2_2 O 0.70525(14) 0.25263(17) 0.6229(2)
O3_2 O 0.66078(14) 0.20802(16) 0.7546(3)
C1_2 C 0.6598(2) 0.2281(2) 0.6629(3)
O4_2 O 0.77737(18) 0.13970(15) 0.7211(3)
C2_2 C 0.6044(2) 0.2238(2) 0.5976(3)
C3_2 C 0.7889(2) 0.0800(2) 0.8754(3)
C4_2 C 0.5002(2) 0.2232(2) 0.4818(3)
C5_2 C 0.6016(2) 0.2536(2) 0.5014(4)
H1_2 H 0.6351 0.2741 0.4754
C6_2 C 0.7839(2) 0.1376(2) 0.8207(3)
C9_2 C 0.4432(2) 0.2259(2) 0.4238(4)
C10_2 C 0.3900(2) 0.2263(2) 0.4772(3)
H2_2 H 0.3893 0.2220 0.5516
C12_2 C 0.5496(2) 0.2529(3) 0.4444(4)
H4_2 H 0.5476 0.2729 0.3788
C15_2 C 0.3377(2) 0.2330(2) 0.4215(4)
H7_2 H 0.3016 0.2332 0.4595
C16_2 C 0.5562(2) 0.1929(2) 0.6334(4)
H8_2 H 0.5584 0.1719 0.6980
C18_2 C 0.3873(2) 0.2362(3) 0.2646(4)
H10_2 H 0.3866 0.2384 0.1900
C19_2 C 0.4410(2) 0.2302(3) 0.3141(4)
H11_2 H 0.4763 0.2290 0.2739
C20_2 C 0.5045(2) 0.1923(3) 0.5755(4)
H12_2 H 0.4715 0.1705 0.6003
C21_2 C 0.7803(3) 0.0270(2) 0.8213(4)
H13_2 H 0.7754 0.0275 0.7470
C23_2 C 0.7987(2) 0.0782(2) 0.9833(4)
C8_2 C 0.2212(2) 0.0843(2) 0.0429(3)
C11_2 C 0.2571(2) 0.1291(2) 0.0055(4)
C14_2 C 0.2041(2) 0.1443(2) 0.1952(3)
H6_2 H 0.1856 0.1492 0.2617
C17_2 C 0.2652(2) 0.1789(2) 0.0654(4)
H9_2 H 0.2902 0.2091 0.0388
C24_2 C 0.1931(3) 0.0934(2) 0.1397(4)
H16_2 H 0.1666 0.0646 0.1668
N2_2 N 0.26044(18) 0.68707(17) 0.8396(3)
C8_3 C 0.2788(2) 0.5843(2) 0.9571(3)
C11_3 C 0.2429(2) 0.6291(2) 0.9945(4)
C13_2 C 0.2976(3) 0.4744(2) 0.9639(4)
H5_2 H 0.3046 0.4748 0.8902
C14_3 C 0.2959(2) 0.6443(2) 0.8048(3)
H6_3 H 0.3144 0.6492 0.7383
C17_3 C 0.2348(2) 0.6789(2) 0.9346(4)
H9_3 H 0.2098 0.7091 0.9612
H15_2 H 0.3062 0.3862 0.9793
C24_3 C 0.3069(3) 0.5934(2) 0.8603(4)
H16_3 H 0.3334 0.5646 0.8332
Co3 Co 0.24312(2) 0.76245(2) 0.75288(4)
N1_2 N 0.16428(16) 0.73915(19) 0.6832(3)
C9_3 C 0.0568(2) 0.7259(2) 0.5762(4)
C10_3 C 0.1100(2) 0.7263(2) 0.5228(3)
H2_3 H 0.1107 0.7220 0.4484
C15_3 C 0.1623(2) 0.7330(2) 0.5785(4)
H7_3 H 0.1984 0.7332 0.5405
C18_3 C 0.1127(2) 0.7362(3) 0.7354(4)
H10_3 H 0.1134 0.7384 0.8100
C19_3 C 0.0590(2) 0.7302(3) 0.6859(4)
H11_3 H 0.0237 0.7290 0.7261
H12_3 H 0.0285 0.6705 0.3997
Co1_2 Co 0.74312(2) 0.73755(2) 0.24712(4)
O1_3 O 0.71679(16) 0.68447(14) 0.1260(2)
O2_3 O 0.79475(14) 0.75263(17) 0.3771(2)
O3_3 O 0.83922(14) 0.70802(16) 0.2454(3)
C1_3 C 0.8402(2) 0.7281(2) 0.3371(3)
O4_3 O 0.72263(18) 0.63970(15) 0.2789(3)
C2_3 C 0.8956(2) 0.7238(2) 0.4024(3)
C3_3 C 0.7111(2) 0.5800(2) 0.1246(3)
C4_3 C 0.9998(2) 0.7232(2) 0.5182(3)
C5_3 C 0.8984(2) 0.7536(2) 0.4986(4)
H1_3 H 0.8649 0.7741 0.5246
C6_3 C 0.7161(2) 0.6376(2) 0.1793(3)
C7_2 C 0.7138(3) 0.4721(2) 0.0162(4)
H3_2 H 0.7758 0.3745 0.0611
C12_3 C 0.9504(2) 0.7529(3) 0.5556(4)
H4_3 H 0.9524 0.7729 0.6212
C16_3 C 0.9438(2) 0.6929(2) 0.3666(4)
H8_3 H 0.9416 0.6719 0.3020
C20_3 C 0.9955(2) 0.6923(3) 0.4245(4)
C21_3 C 0.7197(3) 0.5270(2) 0.1787(4)
H13_3 H 0.7246 0.5275 0.2530
C22_2 C 0.7213(3) 0.4738(2) 0.1255(4)
H14_2 H 0.7275 0.4381 0.1633
C23_3 C 0.7013(2) 0.5782(2) 0.0167(4)
N3_2 N 0.66428(16) 0.76085(19) 0.3168(3)
N4_2 N 0.76044(18) 0.81293(17) 0.1604(3)
C8_4 C 0.7788(2) 0.9157(2) 0.0429(3)
C11_4 C 0.7429(2) 0.8709(2) 0.0055(4)
C14_4 C 0.7959(2) 0.8557(2) 0.1952(3)
H6_4 H 0.8144 0.8508 0.2617
C17_4 C 0.7348(2) 0.8211(2) 0.0654(4)
H9_4 H 0.7098 0.7909 0.0388
C24_4 C 0.8069(3) 0.9066(2) 0.1397(4)
H16_4 H 0.8334 0.9354 0.1668
O1_4 O 0.21679(16) 0.81553(14) 0.8740(2)
O2_4 O 0.29475(14) 0.74737(17) 0.6229(2)
O3_4 O 0.33922(14) 0.79198(16) 0.7546(3)
C1_4 C 0.3402(2) 0.7719(2) 0.6629(3)
O4_4 O 0.22263(18) 0.86030(15) 0.7211(3)
C2_4 C 0.3956(2) 0.7762(2) 0.5976(3)
C3_4 C 0.2111(2) 0.9200(2) 0.8754(3)
C4_4 C 0.4998(2) 0.7768(2) 0.4818(3)
C5_4 C 0.3984(2) 0.7464(2) 0.5014(4)
H1_4 H 0.3649 0.7259 0.4754
C6_4 C 0.2161(2) 0.8624(2) 0.8207(3)
C9_4 C 0.5568(2) 0.7741(2) 0.4238(4)
C10_4 C 0.6100(2) 0.7737(2) 0.4772(3)
H2_4 H 0.6107 0.7780 0.5516
C12_4 C 0.4504(2) 0.7471(3) 0.4444(4)
H4_4 H 0.4524 0.7271 0.3788
C15_4 C 0.6623(2) 0.7670(2) 0.4215(4)
H7_4 H 0.6984 0.7668 0.4595
C16_4 C 0.4438(2) 0.8071(2) 0.6334(4)
H8_4 H 0.4416 0.8281 0.6980
C18_4 C 0.6127(2) 0.7638(3) 0.2646(4)
H10_4 H 0.6134 0.7616 0.1900
C19_4 C 0.5590(2) 0.7698(3) 0.3141(4)
H11_4 H 0.5237 0.7710 0.2739
C20_4 C 0.4955(2) 0.8077(3) 0.5755(4)
H12_4 H 0.5285 0.8295 0.6003
C21_4 C 0.2197(3) 0.9730(2) 0.8213(4)
H13_4 H 0.2246 0.9725 0.7470
C23_4 C 0.2013(2) 0.9218(2) 0.9833(4)
Co1_3 Co 0.23755(2) 0.75688(2) 0.24712(4)
O1_5 O 0.18447(14) 0.78321(16) 0.1260(2)
O2_5 O 0.25263(17) 0.70525(14) 0.3771(2)
O3_5 O 0.20802(16) 0.66078(14) 0.2454(3)
C1_5 C 0.2281(2) 0.6598(2) 0.3371(3)
N1_3 N 0.23915(19) 0.33572(16) 0.6832(3)
O4_5 O 0.13970(15) 0.77737(18) 0.2789(3)
C2_5 C 0.2238(2) 0.6044(2) 0.4024(3)
C3_5 C 0.0800(2) 0.7889(2) 0.1246(3)
C4_5 C 0.2232(2) 0.5002(2) 0.5182(3)
C5_5 C 0.2536(2) 0.6016(2) 0.4986(4)
H1_5 H 0.2741 0.6351 0.5246
C6_5 C 0.1376(2) 0.7839(2) 0.1793(3)
C9_5 C 0.2259(2) 0.4432(2) 0.5762(4)
C10_5 C 0.2263(2) 0.3900(2) 0.5228(3)
H2_5 H 0.2220 0.3893 0.4484
C12_5 C 0.2529(3) 0.5496(2) 0.5556(4)
H4_5 H 0.2729 0.5476 0.6212
C15_5 C 0.2330(2) 0.3377(2) 0.5785(4)
H7_5 H 0.2332 0.3016 0.5405
C16_5 C 0.1929(2) 0.5562(2) 0.3666(4)
H8_5 H 0.1719 0.5584 0.3020
C18_5 C 0.2362(3) 0.3873(2) 0.7354(4)
H10_5 H 0.2384 0.3866 0.8100
C19_5 C 0.2302(3) 0.4410(2) 0.6859(4)
H11_5 H 0.2290 0.4763 0.7261
C20_5 C 0.1923(3) 0.5045(2) 0.4245(4)
H12_5 H 0.1705 0.4715 0.3997
C21_5 C 0.0270(2) 0.7803(3) 0.1787(4)
H13_5 H 0.0275 0.7754 0.2530
C23_5 C 0.0782(2) 0.7987(2) 0.0167(4)
Co2_2 Co 0.26245(2) 0.25688(2) 0.75288(4)
N3_3 N 0.26085(19) 0.83572(16) 0.3168(3)
N4_3 N 0.31293(17) 0.73956(18) 0.1604(3)
N2_3 N 0.18707(17) 0.23956(18) 0.8396(3)
C8_5 C 0.0843(2) 0.2212(2) 0.9571(3)
C11_5 C 0.1291(2) 0.2571(2) 0.9945(4)
C14_5 C 0.1443(2) 0.2041(2) 0.8048(3)
H6_5 H 0.1492 0.1856 0.7383
C17_5 C 0.1789(2) 0.2652(2) 0.9346(4)
H9_5 H 0.2091 0.2902 0.9612
C24_5 C 0.0934(2) 0.1931(3) 0.8603(4)
H16_5 H 0.0646 0.1666 0.8332
O1_6 O 0.31553(14) 0.28321(16) 0.8740(2)
O2_6 O 0.24737(17) 0.20525(14) 0.6229(2)
O3_6 O 0.29198(16) 0.16078(14) 0.7546(3)
C1_6 C 0.2719(2) 0.1598(2) 0.6629(3)
O4_6 O 0.36030(15) 0.27737(18) 0.7211(3)
C2_6 C 0.2762(2) 0.1044(2) 0.5976(3)
C3_6 C 0.4200(2) 0.2889(2) 0.8754(3)
C4_6 C 0.2768(2) 0.0002(2) 0.4818(3)
C5_6 C 0.2464(2) 0.1016(2) 0.5014(4)
H1_6 H 0.2259 0.1351 0.4754
C6_6 C 0.3624(2) 0.2839(2) 0.8207(3)
C7_3 C 0.5279(2) 0.2862(3) 0.9838(4)
H3_3 H 0.6255 0.2242 0.9389
C12_6 C 0.2471(3) 0.0496(2) 0.4444(4)
H4_6 H 0.2271 0.0476 0.3788
C16_6 C 0.3071(2) 0.0562(2) 0.6334(4)
H8_6 H 0.3281 0.0584 0.6980
C20_6 C 0.3077(3) 0.0045(2) 0.5755(4)
C21_6 C 0.4730(2) 0.2803(3) 0.8213(4)
H13_6 H 0.4725 0.2754 0.7470
C22_3 C 0.5262(2) 0.2787(3) 0.8745(4)
H14_3 H 0.5619 0.2725 0.8367
C23_6 C 0.4218(2) 0.2987(2) 0.9833(4)
C9_6 C 0.2741(2) 0.9432(2) 0.4238(4)
C10_6 C 0.2737(2) 0.8900(2) 0.4772(3)
H2_6 H 0.2780 0.8893 0.5516
C15_6 C 0.2670(2) 0.8377(2) 0.4215(4)
H7_6 H 0.2668 0.8016 0.4595
C18_6 C 0.2638(3) 0.8873(2) 0.2646(4)
H10_6 H 0.2616 0.8866 0.1900
C19_6 C 0.2698(3) 0.9410(2) 0.3141(4)
H11_6 H 0.2710 0.9763 0.2739
H12_6 H 0.3295 0.9715 0.6003
C8_6 C 0.4157(2) 0.7212(2) 0.0429(3)
C11_6 C 0.3709(2) 0.7571(2) 0.0055(4)
C13_3 C 0.5256(2) 0.7024(3) 0.0361(4)
H5_3 H 0.5252 0.6954 0.1098
C14_6 C 0.3557(2) 0.7041(2) 0.1952(3)
H6_6 H 0.3508 0.6856 0.2617
C17_6 C 0.3211(2) 0.7652(2) 0.0654(4)
H9_6 H 0.2909 0.7902 0.0388
H15_3 H 0.6138 0.6938 0.0207
C24_6 C 0.4066(2) 0.6931(3) 0.1397(4)
H16_6 H 0.4354 0.6666 0.1668
C13_4 C 0.0256(2) 0.7976(3) 0.9639(4)
H5_4 H 0.0252 0.8046 0.8902
H15_4 H 0.1138 0.8062 0.9793
C7_4 C 0.9721(2) 0.7862(3) 0.0162(4)
H3_4 H 0.8745 0.7242 0.0611
C22_4 C 0.9738(2) 0.7787(3) 0.1255(4)
H14_4 H 0.9381 0.7725 0.1633
N2_4 N 0.81293(17) 0.76044(18) 0.8396(3)
C8_7 C 0.9157(2) 0.7788(2) 0.9571(3)
C11_7 C 0.8709(2) 0.7429(2) 0.9945(4)
C14_7 C 0.8557(2) 0.7959(2) 0.8048(3)
H6_7 H 0.8508 0.8144 0.7383
C17_7 C 0.8211(2) 0.7348(2) 0.9346(4)
H9_7 H 0.7909 0.7098 0.9612
C24_7 C 0.9066(2) 0.8069(3) 0.8603(4)
H16_7 H 0.9354 0.8334 0.8332
Co3_2 Co 0.73755(2) 0.74312(2) 0.75288(4)
Co1_4 Co 0.76245(2) 0.24312(2) 0.24712(4)
O1_7 O 0.81553(14) 0.21679(16) 0.1260(2)
O2_7 O 0.74737(17) 0.29475(14) 0.3771(2)
O3_7 O 0.79198(16) 0.33922(14) 0.2454(3)
C1_7 C 0.7719(2) 0.3402(2) 0.3371(3)
N1_4 N 0.76085(19) 0.66428(16) 0.6832(3)
O4_7 O 0.86030(15) 0.22263(18) 0.2789(3)
C2_7 C 0.7762(2) 0.3956(2) 0.4024(3)
C3_7 C 0.9200(2) 0.2111(2) 0.1246(3)
C4_7 C 0.7768(2) 0.4998(2) 0.5182(3)
C5_7 C 0.7464(2) 0.3984(2) 0.4986(4)
H1_7 H 0.7259 0.3649 0.5246
C6_7 C 0.8624(2) 0.2161(2) 0.1793(3)
C9_7 C 0.7741(2) 0.5568(2) 0.5762(4)
C10_7 C 0.7737(2) 0.6100(2) 0.5228(3)
H2_7 H 0.7780 0.6107 0.4484
C12_7 C 0.7471(3) 0.4504(2) 0.5556(4)
H4_7 H 0.7271 0.4524 0.6212
C15_7 C 0.7670(2) 0.6623(2) 0.5785(4)
H7_7 H 0.7668 0.6984 0.5405
C16_7 C 0.8071(2) 0.4438(2) 0.3666(4)
H8_7 H 0.8281 0.4416 0.3020
C18_7 C 0.7638(3) 0.6127(2) 0.7354(4)
H10_7 H 0.7616 0.6134 0.8100
C19_7 C 0.7698(3) 0.5590(2) 0.6859(4)
H11_7 H 0.7710 0.5237 0.7261
C20_7 C 0.8077(3) 0.4955(2) 0.4245(4)
H12_7 H 0.8295 0.5285 0.3997
C21_7 C 0.9730(2) 0.2197(3) 0.1787(4)
H13_7 H 0.9725 0.2246 0.2530
C23_7 C 0.9218(2) 0.2013(2) 0.0167(4)
N3_4 N 0.73915(19) 0.16428(16) 0.3168(3)
N4_4 N 0.68707(17) 0.26044(18) 0.1604(3)
C8_8 C 0.5843(2) 0.2788(2) 0.0429(3)
C11_8 C 0.6291(2) 0.2429(2) 0.0055(4)
C13_5 C 0.4744(2) 0.2976(3) 0.0361(4)
H5_5 H 0.4748 0.3046 0.1098
C14_8 C 0.6443(2) 0.2959(2) 0.1952(3)
H6_8 H 0.6492 0.3144 0.2617
C17_8 C 0.6789(2) 0.2348(2) 0.0654(4)
H9_8 H 0.7091 0.2098 0.0388
H15_5 H 0.3862 0.3062 0.0207
C24_8 C 0.5934(2) 0.3069(3) 0.1397(4)
H16_8 H 0.5646 0.3334 0.1668
C9_8 C 0.7259(2) 0.0568(2) 0.4238(4)
C10_8 C 0.7263(2) 0.1100(2) 0.4772(3)
H2_8 H 0.7220 0.1107 0.5516
C15_8 C 0.7330(2) 0.1623(2) 0.4215(4)
H7_8 H 0.7332 0.1984 0.4595
C18_8 C 0.7362(3) 0.1127(2) 0.2646(4)
H10_8 H 0.7384 0.1134 0.1900
C19_8 C 0.7302(3) 0.0590(2) 0.3141(4)
H11_8 H 0.7290 0.0237 0.2739
H12_8 H 0.6705 0.0285 0.6003
O1_8 O 0.68447(14) 0.71679(16) 0.8740(2)
O2_8 O 0.75263(17) 0.79475(14) 0.6229(2)
O3_8 O 0.70802(16) 0.83922(14) 0.7546(3)
C1_8 C 0.7281(2) 0.8402(2) 0.6629(3)
O4_8 O 0.63970(15) 0.72263(18) 0.7211(3)
C2_8 C 0.7238(2) 0.8956(2) 0.5976(3)
C3_8 C 0.5800(2) 0.7111(2) 0.8754(3)
C4_8 C 0.7232(2) 0.9998(2) 0.4818(3)
C5_8 C 0.7536(2) 0.8984(2) 0.5014(4)
H1_8 H 0.7741 0.8649 0.4754
C6_8 C 0.6376(2) 0.7161(2) 0.8207(3)
C7_5 C 0.4721(2) 0.7138(3) 0.9838(4)
H3_5 H 0.3745 0.7758 0.9389
C12_8 C 0.7529(3) 0.9504(2) 0.4444(4)
H4_8 H 0.7729 0.9524 0.3788
C16_8 C 0.6929(2) 0.9438(2) 0.6334(4)
H8_8 H 0.6719 0.9416 0.6980
C20_8 C 0.6923(3) 0.9955(2) 0.5755(4)
C21_8 C 0.5270(2) 0.7197(3) 0.8213(4)
H13_8 H 0.5275 0.7246 0.7470
C22_5 C 0.4738(2) 0.7213(3) 0.8745(4)
H14_5 H 0.4381 0.7275 0.8367
C23_8 C 0.5782(2) 0.7013(2) 0.9833(4)
C7_6 C 0.0279(2) 0.2138(3) 0.0162(4)
H3_6 H 0.1255 0.2758 0.0611
C22_6 C 0.0262(2) 0.2213(3) 0.1255(4)
H14_6 H 0.0619 0.2275 0.1633
C13_6 C 0.9744(2) 0.2024(3) 0.9639(4)
H5_6 H 0.9748 0.1954 0.8902
H15_6 H 0.8862 0.1938 0.9793
C13_7 C 0.7976(3) 0.0256(2) 0.0361(4)
H5_7 H 0.8046 0.0252 0.1098
H15_7 H 0.8062 0.1138 0.0207
C7_7 C 0.7862(3) 0.9721(2) 0.9838(4)
H3_7 H 0.7242 0.8745 0.9389
C22_7 C 0.7787(3) 0.9738(2) 0.8745(4)
H14_7 H 0.7725 0.9381 0.8367
C7_8 C 0.2138(3) 0.0279(2) 0.9838(4)
H3_8 H 0.2758 0.1255 0.9389
C22_8 C 0.2213(3) 0.0262(2) 0.8745(4)
H14_8 H 0.2275 0.0619 0.8367
C13_8 C 0.2024(3) 0.9744(2) 0.0361(4)
H5_8 H 0.1954 0.9748 0.1098
H15_8 H 0.1938 0.8862 0.0207
loop_
_geom_bond_atom_site_label_1
_geom_bond_atom_site_label_2
_geom_bond_site_symmetry_1
_geom_bond_site_symmetry_2
Co1 O1 1_555 1_555
O1 C6 1_555 1_555
O2 Co1 1_555 1_555
O3 Co1 1_555 1_555
C1 O2 1_555 1_555
O4 Co1 1_555 1_555
C2 C1 1_555 1_555
C3 C6 1_555 1_555
C5 C2 1_555 1_555
H1 C5 1_555 1_555
C6 O4 1_555 1_555
C12 C4 1_555 1_555
H4 C12 1_555 1_555
C16 C2 1_555 1_555
H8 C16 1_555 1_555
C20 C4 1_555 1_555
C21 C3 1_555 1_555
H13 C21 1_555 1_555
C22 C7 1_555 1_555
H14 C22 1_555 1_555
C23 C3 1_555 1_555
N3 Co1 1_555 1_555
N4 Co1 1_555 1_555
O3 C1 1_555 1_555
C5 C12 1_555 1_555
C16 C20 1_555 1_555
C21 C22 1_555 1_555
N1 C15 1_555 1_555
C9 C10 1_555 1_555
C10 H2 1_555 1_555
C15 C10 1_555 1_555
H7 C15 1_555 1_555
C18 N1 1_555 1_555
H10 C18 1_555 1_555
C19 C9 1_555 1_555
H11 C19 1_555 1_555
Co2 N1 1_555 1_555
C18 C19 1_555 1_555
N2 C14 1_555 1_555
C8 C11 1_555 1_555
H5 C13 1_555 1_555
C14 H6 1_555 1_555
C17 N2 1_555 1_555
H9 C17 1_555 1_555
C24 C8 1_555 1_555
H16 C24 1_555 1_555
Co2 N2 1_555 1_555
C11 C17 1_555 1_555
C14 C24 1_555 1_555
Co2 O1_2 1_555 1_555
O1_2 C6_2 1_555 1_555
O2_2 Co2 1_555 1_555
O3_2 Co2 1_555 1_555
C1_2 O2_2 1_555 1_555
N3 C15_2 1_555 1_555
O4_2 Co2 1_555 1_555
C2_2 C1_2 1_555 1_555
C3_2 C6_2 1_555 1_555
C4_2 C9_2 1_555 1_555
C5_2 C2_2 1_555 1_555
H1_2 C5_2 1_555 1_555
C6_2 O4_2 1_555 1_555
C9_2 C10_2 1_555 1_555
C10_2 H2_2 1_555 1_555
C12_2 C4_2 1_555 1_555
H4_2 C12_2 1_555 1_555
C15_2 C10_2 1_555 1_555
H7_2 C15_2 1_555 1_555
C16_2 C2_2 1_555 1_555
H8_2 C16_2 1_555 1_555
C18_2 N3 1_555 1_555
H10_2 C18_2 1_555 1_555
C19_2 C9_2 1_555 1_555
H11_2 C19_2 1_555 1_555
C20_2 C4_2 1_555 1_555
H12_2 C20_2 1_555 1_555
C21_2 C3_2 1_555 1_555
H13_2 C21_2 1_555 1_555
C23_2 C3_2 1_555 1_555
O3_2 C1_2 1_555 1_555
C5_2 C12_2 1_555 1_555
C16_2 C20_2 1_555 1_555
C18_2 C19_2 1_555 1_555
N4 C14_2 1_555 1_555
C8_2 C11_2 1_555 1_555
C14_2 H6_2 1_555 1_555
C17_2 N4 1_555 1_555
H9_2 C17_2 1_555 1_555
C24_2 C8_2 1_555 1_555
H16_2 C24_2 1_555 1_555
C11_2 C17_2 1_555 1_555
C14_2 C24_2 1_555 1_555
N2_2 C14_3 1_555 1_555
C8_3 C11_3 1_555 1_555
H5_2 C13_2 1_555 1_555
C14_3 H6_3 1_555 1_555
C17_3 N2_2 1_555 1_555
H9_3 C17_3 1_555 1_555
C24_3 C8_3 1_555 1_555
H16_3 C24_3 1_555 1_555
Co3 N2_2 1_555 1_555
C11_3 C17_3 1_555 1_555
C14_3 C24_3 1_555 1_555
N1_2 C15_3 1_555 1_555
C9_3 C10_3 1_555 1_555
C10_3 H2_3 1_555 1_555
C15_3 C10_3 1_555 1_555
H7_3 C15_3 1_555 1_555
C18_3 N1_2 1_555 1_555
H10_3 C18_3 1_555 1_555
C19_3 C9_3 1_555 1_555
H11_3 C19_3 1_555 1_555
Co3 N1_2 1_555 1_555
C18_3 C19_3 1_555 1_555
Co1_2 O1_3 1_555 1_555
O1_3 C6_3 1_555 1_555
O2_3 Co1_2 1_555 1_555
O3_3 Co1_2 1_555 1_555
C1_3 O2_3 1_555 1_555
O4_3 Co1_2 1_555 1_555
C2_3 C1_3 1_555 1_555
C3_3 C6_3 1_555 1_555
C5_3 C2_3 1_555 1_555
H1_3 C5_3 1_555 1_555
C6_3 O4_3 1_555 1_555
C12_3 C4_3 1_555 1_555
H4_3 C12_3 1_555 1_555
C16_3 C2_3 1_555 1_555
H8_3 C16_3 1_555 1_555
C20_3 C4_3 1_555 1_555
C21_3 C3_3 1_555 1_555
H13_3 C21_3 1_555 1_555
C22_2 C7_2 1_555 1_555
H14_2 C22_2 1_555 1_555
C23_3 C3_3 1_555 1_555
N3_2 Co1_2 1_555 1_555
N4_2 Co1_2 1_555 1_555
O3_3 C1_3 1_555 1_555
C5_3 C12_3 1_555 1_555
C16_3 C20_3 1_555 1_555
C21_3 C22_2 1_555 1_555
N4_2 C14_4 1_555 1_555
C8_4 C11_4 1_555 1_555
C14_4 H6_4 1_555 1_555
C17_4 N4_2 1_555 1_555
H9_4 C17_4 1_555 1_555
C24_4 C8_4 1_555 1_555
H16_4 C24_4 1_555 1_555
C11_4 C17_4 1_555 1_555
C14_4 C24_4 1_555 1_555
Co3 O1_4 1_555 1_555
O1_4 C6_4 1_555 1_555
O2_4 Co3 1_555 1_555
O3_4 Co3 1_555 1_555
C1_4 O2_4 1_555 1_555
N3_2 C15_4 1_555 1_555
O4_4 Co3 1_555 1_555
C2_4 C1_4 1_555 1_555
C3_4 C6_4 1_555 1_555
C4_4 C9_4 1_555 1_555
C5_4 C2_4 1_555 1_555
H1_4 C5_4 1_555 1_555
C6_4 O4_4 1_555 1_555
C9_4 C10_4 1_555 1_555
C10_4 H2_4 1_555 1_555
C12_4 C4_4 1_555 1_555
H4_4 C12_4 1_555 1_555
C15_4 C10_4 1_555 1_555
H7_4 C15_4 1_555 1_555
C16_4 C2_4 1_555 1_555
H8_4 C16_4 1_555 1_555
C18_4 N3_2 1_555 1_555
H10_4 C18_4 1_555 1_555
C19_4 C9_4 1_555 1_555
H11_4 C19_4 1_555 1_555
C20_4 C4_4 1_555 1_555
H12_4 C20_4 1_555 1_555
C21_4 C3_4 1_555 1_555
H13_4 C21_4 1_555 1_555
C23_4 C3_4 1_555 1_555
O3_4 C1_4 1_555 1_555
C5_4 C12_4 1_555 1_555
C16_4 C20_4 1_555 1_555
C18_4 C19_4 1_555 1_555
Co1_3 O1_5 1_555 1_555
O1_5 C6_5 1_555 1_555
O2_5 Co1_3 1_555 1_555
O3_5 Co1_3 1_555 1_555
C1_5 O2_5 1_555 1_555
N1_3 C15_5 1_555 1_555
O4_5 Co1_3 1_555 1_555
C2_5 C1_5 1_555 1_555
C3_5 C6_5 1_555 1_555
C4_5 C9_5 1_555 1_555
C5_5 C2_5 1_555 1_555
H1_5 C5_5 1_555 1_555
C6_5 O4_5 1_555 1_555
C9_5 C10_5 1_555 1_555
C10_5 H2_5 1_555 1_555
C12_5 C4_5 1_555 1_555
H4_5 C12_5 1_555 1_555
C15_5 C10_5 1_555 1_555
H7_5 C15_5 1_555 1_555
C16_5 C2_5 1_555 1_555
H8_5 C16_5 1_555 1_555
C18_5 N1_3 1_555 1_555
H10_5 C18_5 1_555 1_555
C19_5 C9_5 1_555 1_555
H11_5 C19_5 1_555 1_555
C20_5 C4_5 1_555 1_555
H12_5 C20_5 1_555 1_555
C21_5 C3_5 1_555 1_555
H13_5 C21_5 1_555 1_555
C23_5 C3_5 1_555 1_555
Co2_2 N1_3 1_555 1_555
N3_3 Co1_3 1_555 1_555
N4_3 Co1_3 1_555 1_555
O3_5 C1_5 1_555 1_555
C5_5 C12_5 1_555 1_555
C16_5 C20_5 1_555 1_555
C18_5 C19_5 1_555 1_555
N2_3 C14_5 1_555 1_555
C8_5 C11_5 1_555 1_555
C14_5 H6_5 1_555 1_555
C17_5 N2_3 1_555 1_555
H9_5 C17_5 1_555 1_555
C24_5 C8_5 1_555 1_555
H16_5 C24_5 1_555 1_555
Co2_2 N2_3 1_555 1_555
C11_5 C17_5 1_555 1_555
C14_5 C24_5 1_555 1_555
Co2_2 O1_6 1_555 1_555
O1_6 C6_6 1_555 1_555
O2_6 Co2_2 1_555 1_555
O3_6 Co2_2 1_555 1_555
C1_6 O2_6 1_555 1_555
O4_6 Co2_2 1_555 1_555
C2_6 C1_6 1_555 1_555
C3_6 C6_6 1_555 1_555
C5_6 C2_6 1_555 1_555
H1_6 C5_6 1_555 1_555
C6_6 O4_6 1_555 1_555
C12_6 C4_6 1_555 1_555
H4_6 C12_6 1_555 1_555
C16_6 C2_6 1_555 1_555
H8_6 C16_6 1_555 1_555
C20_6 C4_6 1_555 1_555
C21_6 C3_6 1_555 1_555
H13_6 C21_6 1_555 1_555
C22_3 C7_3 1_555 1_555
H14_3 C22_3 1_555 1_555
C23_6 C3_6 1_555 1_555
O3_6 C1_6 1_555 1_555
C5_6 C12_6 1_555 1_555
C16_6 C20_6 1_555 1_555
C21_6 C22_3 1_555 1_555
N3_3 C15_6 1_555 1_555
C9_6 C10_6 1_555 1_555
C10_6 H2_6 1_555 1_555
C15_6 C10_6 1_555 1_555
H7_6 C15_6 1_555 1_555
C18_6 N3_3 1_555 1_555
H10_6 C18_6 1_555 1_555
C19_6 C9_6 1_555 1_555
H11_6 C19_6 1_555 1_555
C18_6 C19_6 1_555 1_555
N4_3 C14_6 1_555 1_555
C8_6 C11_6 1_555 1_555
H5_3 C13_3 1_555 1_555
C14_6 H6_6 1_555 1_555
C17_6 N4_3 1_555 1_555
H9_6 C17_6 1_555 1_555
C24_6 C8_6 1_555 1_555
H16_6 C24_6 1_555 1_555
C11_6 C17_6 1_555 1_555
C14_6 C24_6 1_555 1_555
H5_4 C13_4 1_555 1_555
C22_4 C7_4 1_555 1_555
H14_4 C22_4 1_555 1_555
N2_4 C14_7 1_555 1_555
C8_7 C11_7 1_555 1_555
C14_7 H6_7 1_555 1_555
C17_7 N2_4 1_555 1_555
H9_7 C17_7 1_555 1_555
C24_7 C8_7 1_555 1_555
H16_7 C24_7 1_555 1_555
Co3_2 N2_4 1_555 1_555
C11_7 C17_7 1_555 1_555
C14_7 C24_7 1_555 1_555
Co1_4 O1_7 1_555 1_555
O1_7 C6_7 1_555 1_555
O2_7 Co1_4 1_555 1_555
O3_7 Co1_4 1_555 1_555
C1_7 O2_7 1_555 1_555
N1_4 C15_7 1_555 1_555
O4_7 Co1_4 1_555 1_555
C2_7 C1_7 1_555 1_555
C3_7 C6_7 1_555 1_555
C4_7 C9_7 1_555 1_555
C5_7 C2_7 1_555 1_555
H1_7 C5_7 1_555 1_555
C6_7 O4_7 1_555 1_555
C9_7 C10_7 1_555 1_555
C10_7 H2_7 1_555 1_555
C12_7 C4_7 1_555 1_555
H4_7 C12_7 1_555 1_555
C15_7 C10_7 1_555 1_555
H7_7 C15_7 1_555 1_555
C16_7 C2_7 1_555 1_555
H8_7 C16_7 1_555 1_555
C18_7 N1_4 1_555 1_555
H10_7 C18_7 1_555 1_555
C19_7 C9_7 1_555 1_555
H11_7 C19_7 1_555 1_555
C20_7 C4_7 1_555 1_555
H12_7 C20_7 1_555 1_555
C21_7 C3_7 1_555 1_555
H13_7 C21_7 1_555 1_555
C23_7 C3_7 1_555 1_555
Co3_2 N1_4 1_555 1_555
N3_4 Co1_4 1_555 1_555
N4_4 Co1_4 1_555 1_555
O3_7 C1_7 1_555 1_555
C5_7 C12_7 1_555 1_555
C16_7 C20_7 1_555 1_555
C18_7 C19_7 1_555 1_555
N4_4 C14_8 1_555 1_555
C8_8 C11_8 1_555 1_555
H5_5 C13_5 1_555 1_555
C14_8 H6_8 1_555 1_555
C17_8 N4_4 1_555 1_555
H9_8 C17_8 1_555 1_555
C24_8 C8_8 1_555 1_555
H16_8 C24_8 1_555 1_555
C11_8 C17_8 1_555 1_555
C14_8 C24_8 1_555 1_555
N3_4 C15_8 1_555 1_555
C9_8 C10_8 1_555 1_555
C10_8 H2_8 1_555 1_555
C15_8 C10_8 1_555 1_555
H7_8 C15_8 1_555 1_555
C18_8 N3_4 1_555 1_555
H10_8 C18_8 1_555 1_555
C19_8 C9_8 1_555 1_555
H11_8 C19_8 1_555 1_555
C18_8 C19_8 1_555 1_555
Co3_2 O1_8 1_555 1_555
O1_8 C6_8 1_555 1_555
O2_8 Co3_2 1_555 1_555
O3_8 Co3_2 1_555 1_555
C1_8 O2_8 1_555 1_555
O4_8 Co3_2 1_555 1_555
C2_8 C1_8 1_555 1_555
C3_8 C6_8 1_555 1_555
C5_8 C2_8 1_555 1_555
H1_8 C5_8 1_555 1_555
C6_8 O4_8 1_555 1_555
C12_8 C4_8 1_555 1_555
H4_8 C12_8 1_555 1_555
C16_8 C2_8 1_555 1_555
H8_8 C16_8 1_555 1_555
C20_8 C4_8 1_555 1_555
C21_8 C3_8 1_555 1_555
H13_8 C21_8 1_555 1_555
C22_5 C7_5 1_555 1_555
H14_5 C22_5 1_555 1_555
C23_8 C3_8 1_555 1_555
O3_8 C1_8 1_555 1_555
C5_8 C12_8 1_555 1_555
C16_8 C20_8 1_555 1_555
C21_8 C22_5 1_555 1_555
C22_6 C7_6 1_555 1_555
H14_6 C22_6 1_555 1_555
H5_6 C13_6 1_555 1_555
H5_7 C13_7 1_555 1_555
C22_7 C7_7 1_555 1_555
H14_7 C22_7 1_555 1_555
C22_8 C7_8 1_555 1_555
H14_8 C22_8 1_555 1_555
H5_8 C13_8 1_555 1_555

#END
