
###############################################################################
#
# This file contains modified crystal structure data generated from the
# MOF subset of the Cambridge Structural Database (CSD) v543 
# hosted by the Cambridge Crystallographic Data Centre (CCDC).
#
# This work is licensed under the Creative Commons
# Attribution-NonCommercial-ShareAlike 4.0 International License.
# To view a copy of this license, visit
# http://creativecommons.org/licenses/by-nc-sa/4.0/
# or send a letter to
# Creative Commons, PO Box 1866, Mountain View, CA 94042, USA.
#
# CIF created using the CSD Python API on 29 September 2022
# The structure has been converted into the P1 space group
# The structure has a 3D framework
# The original CSD entry ZILDEG is in the monoclinic crystal system
# The framework has been calculated to contain at least 10.0% void space
# The void calculation uses a probe of radius 1.32A, grid spacing 0.4
#
###############################################################################

data_ZILDEG
_chemical_formula_moiety         '(C256 H176 N32 O48 Zn8)n'
_symmetry_cell_setting           triclinic
_symmetry_space_group_name_H-M   'P 1'
_symmetry_Int_Tables_number      1
_space_group_name_Hall           'P 1'
loop_
_symmetry_equiv_pos_site_id
_symmetry_equiv_pos_as_xyz
1 x,y,z
_cell_length_a                   24.3401(4)
_cell_length_b                   17.3778(3)
_cell_length_c                   17.8506(2)
_cell_angle_alpha                90
_cell_angle_beta                 94.4920(10)
_cell_angle_gamma                90
_cell_volume                     7527.21
loop_
_atom_site_label
_atom_site_type_symbol
_atom_site_fract_x
_atom_site_fract_y
_atom_site_fract_z
Zn1 Zn 0.14733(2) 0.06283(3) 0.34834(3)
O1 O 0.11219(17) 0.4389(2) 0.0135(2)
C1 C 0.14491(18) 0.1119(3) 0.1890(3)
O3 O 0.15863(16) 0.1223(2) 0.2574(2)
C3 C 0.14254(14) 0.17069(13) 0.06178(15)
H1 H 0.1458 0.1205 0.0416
C4 C 0.13730(14) 0.23393(17) 0.01407(11)
C5 C 0.13259(14) 0.30742(14) 0.04364(14)
C6 C 0.13313(14) 0.31767(13) 0.12092(16)
H3 H 0.1299 0.3679 0.1411
C7 C 0.13838(14) 0.25444(16) 0.16863(11)
H4 H 0.1387 0.2615 0.2214
C8 C 0.14308(14) 0.18095(14) 0.13906(14)
C17 C 0.03002(12) 0.10713(18) 0.27912(18)
H10 H 0.0499 0.1401 0.2485
N1 N 0.05811(9) 0.05522(18) 0.32741(18)
C18 C 0.02901(12) 0.00702(18) 0.37223(19)
H16 H 0.0313 0.0197 0.0855
O11 O 0.13065(18) 0.0499(2) 0.1578(2)
O13 O 0.13716(16) 0.1404(2) 0.4241(2)
N9 N 0.23805(10) 0.0753(2) 0.3782(2)
O2 O 0.13716(16) 0.3596(2) 0.9241(2)
H2 H 0.1369 0.2269 0.9613
C22 C 0.1262(2) 0.3752(3) 0.9915(3)
Zn4 Zn 0.14733(2) 0.43717(3) 0.84834(3)
Zn2 Zn 0.13459(2) 0.93825(3) 0.17301(3)
C2 C 0.14739(19) 0.8898(3) 0.3357(3)
O4 O 0.15874(19) 0.9527(2) 0.3671(2)
C9 C 0.14727(14) 0.82141(14) 0.38645(15)
C10 C 0.15019(15) 0.83264(14) 0.46375(16)
H5 H 0.1536 0.8832 0.4838
C11 C 0.14817(15) 0.76987(18) 0.51173(11)
H6 H 0.1502 0.7775 0.5646
C12 C 0.14322(14) 0.69588(15) 0.48240(15)
C13 C 0.14030(14) 0.68465(13) 0.40509(16)
H7 H 0.1369 0.6341 0.3850
C14 C 0.14232(14) 0.74741(17) 0.35712(11)
H8 H 0.1403 0.7397 0.3043
O5 O 0.13526(18) 0.5621(2) 0.5123(2)
O6 O 0.13780(17) 0.8792(2) 0.2672(2)
H11 H 0.0482 0.9715 0.4052
C21 C 0.1385(2) 0.6286(3) 0.5355(3)
C25 C 0.01800(13) 0.8818(2) 0.2069(2)
H15 H 0.0391 0.8486 0.2402
N3 N 0.04429(10) 0.9349(2) 0.16369(19)
C26 C 0.01338(13) 0.98347(19) 0.1150(2)
O12 O 0.13646(16) 0.6483(2) 0.6039(2)
Zn6 Zn 0.13459(2) 0.56175(3) 0.67301(3)
N10 N 0.22512(11) 0.9384(2) 0.1745(2)
O14 O 0.13646(16) 0.8517(2) 0.1039(2)
C15 C 0.94373(9) 0.0627(2) 0.3205(2)
C16 C 0.97283(12) 0.1108(2) 0.27565(19)
H9 H 0.9536 0.1463 0.2426
C19 C 0.97183(12) 0.0107(2) 0.3688(2)
C20 C 0.8814(2) 0.0726(4) 0.3116(3)
O7 O 0.86058(18) 0.1032(3) 0.2552(3)
N2 N 0.8521(2) 0.0465(3) 0.3682(3)
H13 H 0.8702 0.0197 0.4040
H17 H 0.9351 0.0122 0.0762
N4 N 0.4468(2) 0.0602(4) 0.3936(4)
H18 H 0.4322 0.0152 0.3812
C28 C 0.70621(15) 0.1138(2) 0.3371(2)
H20 H 0.6842 0.1482 0.3063
C29 C 0.76253(16) 0.1088(2) 0.3297(2)
H21 H 0.7790 0.1398 0.2938
C30 C 0.79476(11) 0.0585(3) 0.3749(2)
C31 C 0.77068(14) 0.0131(2) 0.4275(2)
C32 C 0.71436(14) 0.0180(2) 0.4349(2)
C33 C 0.68213(11) 0.0684(3) 0.3897(2)
C35 C 0.31579(15) 0.1504(2) 0.4275(2)
H24 H 0.3302 0.1938 0.4548
C36 C 0.25916(14) 0.1388(2) 0.4181(2)
H25 H 0.2349 0.1743 0.4390
C37 C 0.27356(15) 0.0234(2) 0.3477(2)
C38 C 0.33019(13) 0.0349(2) 0.3571(2)
C39 C 0.35130(11) 0.0984(3) 0.3970(2)
C40 C 0.50567(13) 0.0680(3) 0.3976(3)
C41 C 0.53247(16) 0.1348(2) 0.3779(3)
H28 H 0.5118 0.1801 0.3656
C42 C 0.58946(16) 0.1353(2) 0.3762(3)
H29 H 0.6078 0.1810 0.3627
C43 C 0.61966(12) 0.0691(3) 0.3942(3)
C44 C 0.59286(17) 0.0023(2) 0.4139(3)
C45 C 0.53586(17) 0.0018(2) 0.4156(3)
H32 H 0.4149 0.0050 0.1509
C46 C 0.4130(3) 0.1188(5) 0.4080(4)
H33 H 0.3313 0.0243 0.1109
H34 H 0.2373 0.0418 0.1244
O10 O 0.4277(2) 0.1831(4) 0.4280(4)
C55 C 0.7546(2) 0.0026(4) 0.1600(4)
H38 H 0.7777 0.0336 0.1930
C56 C 0.6980(2) 0.0020(5) 0.1658(4)
H39 H 0.6824 0.0325 0.2029
C59 C 0.5241(3) 0.0097(4) 0.1823(6)
H41 H 0.5088 0.0473 0.2133
C60 C 0.5801(2) 0.0106(4) 0.1723(6)
H42 H 0.6032 0.0488 0.1965
H12 H 0.9519 0.9778 0.3994
C23 C 0.92990(10) 0.9259(2) 0.1527(2)
C24 C 0.96081(13) 0.8773(2) 0.2014(2)
H14 H 0.9428 0.8410 0.2309
C27 C 0.95619(13) 0.9790(2) 0.1095(2)
N5 N 0.8361(2) 0.9588(3) 0.1019(3)
H19 H 0.8511 0.9837 0.0658
O8 O 0.8491(2) 0.8815(4) 0.2032(4)
H22 H 0.7927 0.9787 0.4583
H23 H 0.6979 0.9870 0.4708
C34 C 0.8674(3) 0.9208(4) 0.1545(5)
H26 H 0.2591 0.9799 0.3205
H27 H 0.3545 0.9994 0.3363
H30 H 0.6135 0.9570 0.4262
H31 H 0.5175 0.9561 0.4291
N7 N 0.4298(3) 0.9591(6) 0.1485(6)
O9 O 0.4110(2) 0.8304(4) 0.1379(4)
C47 C 0.31088(15) 0.9853(3) 0.1334(3)
C48 C 0.25502(16) 0.9956(2) 0.1415(3)
C49 C 0.25109(15) 0.8709(2) 0.1995(2)
H35 H 0.2307 0.8318 0.2221
C50 C 0.30695(15) 0.8605(2) 0.1915(3)
H36 H 0.3247 0.8144 0.2086
C51 C 0.33684(12) 0.9177(3) 0.1584(3)
C52 C 0.3967(3) 0.8982(6) 0.1465(5)
C53 C 0.7436(2) 0.9127(4) 0.0573(3)
H37 H 0.7592 0.8821 0.0202
C54 C 0.77739(14) 0.9580(3) 0.1057(3)
C57 C 0.66417(15) 0.9567(4) 0.1174(4)
C58 C 0.68696(19) 0.9121(4) 0.0631(3)
H40 H 0.6639 0.8811 0.0300
C61 C 0.60247(17) 0.9557(5) 0.1270(5)
C62 C 0.5688(3) 0.8999(5) 0.0916(5)
H43 H 0.5840 0.8624 0.0606
C63 C 0.5127(2) 0.8990(5) 0.1016(5)
H44 H 0.4897 0.8608 0.0774
C64 C 0.49034(17) 0.9539(5) 0.1469(5)
C11_2 C 0.14817(15) 0.73013(18) 0.01173(11)
H6_2 H 0.1502 0.7225 0.0646
O5_2 O 0.13526(18) 0.9379(2) 0.0123(2)
C21_2 C 0.1385(2) 0.8714(3) 0.0355(3)
O1_2 O 0.11219(17) 0.0611(2) 0.5135(2)
C1_2 C 0.14491(18) 0.3881(3) 0.6890(3)
O3_2 O 0.15863(16) 0.3777(2) 0.7574(2)
C2_2 C 0.14739(19) 0.6102(3) 0.8357(3)
O4_2 O 0.15874(19) 0.5473(2) 0.8671(2)
C3_2 C 0.14254(14) 0.32931(13) 0.56178(15)
H1_2 H 0.1458 0.3795 0.5416
C4_2 C 0.13730(14) 0.26607(17) 0.51407(11)
H2_2 H 0.1369 0.2731 0.4613
C5_2 C 0.13259(14) 0.19258(14) 0.54364(14)
C6_2 C 0.13313(14) 0.18233(13) 0.62092(16)
H3_2 H 0.1299 0.1321 0.6411
C7_2 C 0.13838(14) 0.24556(16) 0.66863(11)
H4_2 H 0.1387 0.2385 0.7214
C8_2 C 0.14308(14) 0.31905(14) 0.63906(14)
C9_2 C 0.14727(14) 0.67859(14) 0.88645(15)
C10_2 C 0.15019(15) 0.66736(14) 0.96375(16)
H5_2 H 0.1536 0.6168 0.9838
C12_2 C 0.14322(14) 0.80412(15) 0.98240(15)
C13_2 C 0.14030(14) 0.81535(13) 0.90509(16)
H7_2 H 0.1369 0.8659 0.8850
C14_2 C 0.14232(14) 0.75259(17) 0.85712(11)
H8_2 H 0.1403 0.7603 0.8043
O6_2 O 0.13780(17) 0.6208(2) 0.7672(2)
C17_2 C 0.03002(12) 0.39287(18) 0.77912(18)
H10_2 H 0.0499 0.3599 0.7485
N1_2 N 0.05811(9) 0.44478(18) 0.82741(18)
C18_2 C 0.02901(12) 0.49298(18) 0.87223(19)
H11_2 H 0.0482 0.5285 0.9052
C22_2 C 0.1262(2) 0.1248(3) 0.4915(3)
C25_2 C 0.01800(13) 0.6182(2) 0.7069(2)
H15_2 H 0.0391 0.6514 0.7402
N3_2 N 0.04429(10) 0.5651(2) 0.66369(19)
C26_2 C 0.01338(13) 0.51653(19) 0.6150(2)
H16_2 H 0.0313 0.4803 0.5855
O11_2 O 0.13065(18) 0.4501(2) 0.6578(2)
N9_2 N 0.23805(10) 0.4247(2) 0.8782(2)
N10_2 N 0.22512(11) 0.5616(2) 0.6745(2)
C15_2 C 0.94373(9) 0.4373(2) 0.8205(2)
C16_2 C 0.97283(12) 0.3892(2) 0.77565(19)
H9_2 H 0.9536 0.3537 0.7426
C19_2 C 0.97183(12) 0.4893(2) 0.8688(2)
H12_2 H 0.9519 0.5222 0.8994
C20_2 C 0.8814(2) 0.4274(4) 0.8116(3)
O7_2 O 0.86058(18) 0.3968(3) 0.7552(3)
N2_2 N 0.8521(2) 0.4535(3) 0.8682(3)
H13_2 H 0.8702 0.4803 0.9040
C23_2 C 0.92990(10) 0.5741(2) 0.6527(2)
C24_2 C 0.96081(13) 0.6227(2) 0.7014(2)
H14_2 H 0.9428 0.6590 0.7309
C27_2 C 0.95619(13) 0.5210(2) 0.6095(2)
H17_2 H 0.9351 0.4878 0.5762
N4_2 N 0.4468(2) 0.4398(4) 0.8936(4)
H18_2 H 0.4322 0.4848 0.8812
N5_2 N 0.8361(2) 0.5412(3) 0.6019(3)
H19_2 H 0.8511 0.5163 0.5658
O8_2 O 0.8491(2) 0.6185(4) 0.7032(4)
C28_2 C 0.70621(15) 0.3862(2) 0.8371(2)
H20_2 H 0.6842 0.3518 0.8063
C29_2 C 0.76253(16) 0.3912(2) 0.8297(2)
H21_2 H 0.7790 0.3602 0.7938
C30_2 C 0.79476(11) 0.4415(3) 0.8749(2)
C31_2 C 0.77068(14) 0.4869(2) 0.9275(2)
H22_2 H 0.7927 0.5213 0.9583
C32_2 C 0.71436(14) 0.4820(2) 0.9349(2)
H23_2 H 0.6979 0.5130 0.9708
C33_2 C 0.68213(11) 0.4316(3) 0.8897(2)
C34_2 C 0.8674(3) 0.5792(4) 0.6545(5)
C35_2 C 0.31579(15) 0.3496(2) 0.9275(2)
H24_2 H 0.3302 0.3062 0.9548
C36_2 C 0.25916(14) 0.3612(2) 0.9181(2)
H25_2 H 0.2349 0.3257 0.9390
C37_2 C 0.27356(15) 0.4766(2) 0.8477(2)
H26_2 H 0.2591 0.5201 0.8205
C38_2 C 0.33019(13) 0.4651(2) 0.8571(2)
H27_2 H 0.3545 0.5006 0.8363
C39_2 C 0.35130(11) 0.4016(3) 0.8970(2)
C40_2 C 0.50567(13) 0.4320(3) 0.8976(3)
C41_2 C 0.53247(16) 0.3652(2) 0.8779(3)
H28_2 H 0.5118 0.3199 0.8656
C42_2 C 0.58946(16) 0.3647(2) 0.8762(3)
H29_2 H 0.6078 0.3190 0.8627
C43_2 C 0.61966(12) 0.4309(3) 0.8942(3)
C44_2 C 0.59286(17) 0.4977(2) 0.9139(3)
H30_2 H 0.6135 0.5430 0.9262
C45_2 C 0.53586(17) 0.4982(2) 0.9156(3)
H31_2 H 0.5175 0.5439 0.9291
N7_2 N 0.4298(3) 0.5409(6) 0.6485(6)
H32_2 H 0.4149 0.4950 0.6509
O9_2 O 0.4110(2) 0.6696(4) 0.6379(4)
C46_2 C 0.4130(3) 0.3812(5) 0.9080(4)
C47_2 C 0.31088(15) 0.5147(3) 0.6334(3)
H33_2 H 0.3313 0.4757 0.6109
C48_2 C 0.25502(16) 0.5044(2) 0.6415(3)
H34_2 H 0.2373 0.4582 0.6244
C49_2 C 0.25109(15) 0.6291(2) 0.6995(2)
H35_2 H 0.2307 0.6682 0.7221
C50_2 C 0.30695(15) 0.6395(2) 0.6915(3)
H36_2 H 0.3247 0.6856 0.7086
C51_2 C 0.33684(12) 0.5823(3) 0.6584(3)
C52_2 C 0.3967(3) 0.6018(6) 0.6465(5)
O10_2 O 0.4277(2) 0.3169(4) 0.9280(4)
C53_2 C 0.7436(2) 0.5873(4) 0.5573(3)
H37_2 H 0.7592 0.6179 0.5202
C54_2 C 0.77739(14) 0.5420(3) 0.6057(3)
C55_2 C 0.7546(2) 0.4974(4) 0.6600(4)
H38_2 H 0.7777 0.4664 0.6930
C56_2 C 0.6980(2) 0.4980(5) 0.6658(4)
H39_2 H 0.6824 0.4675 0.7029
C57_2 C 0.66417(15) 0.5433(4) 0.6174(4)
C58_2 C 0.68696(19) 0.5879(4) 0.5631(3)
H40_2 H 0.6639 0.6189 0.5300
C59_2 C 0.5241(3) 0.4903(4) 0.6823(6)
H41_2 H 0.5088 0.4527 0.7133
C60_2 C 0.5801(2) 0.4894(4) 0.6723(6)
H42_2 H 0.6032 0.4512 0.6965
C61_2 C 0.60247(17) 0.5443(5) 0.6270(5)
C62_2 C 0.5688(3) 0.6001(5) 0.5916(5)
H43_2 H 0.5840 0.6376 0.5606
C63_2 C 0.5127(2) 0.6010(5) 0.6016(5)
H44_2 H 0.4897 0.6392 0.5774
C64_2 C 0.49034(17) 0.5461(5) 0.6469(5)
C15_3 C 0.05627(9) 0.5627(2) 0.1795(2)
C16_3 C 0.02717(12) 0.6108(2) 0.22435(19)
H9_3 H 0.0464 0.6463 0.2574
C19_3 C 0.02817(12) 0.5107(2) 0.1312(2)
H12_3 H 0.0481 0.4778 0.1006
C20_3 C 0.1186(2) 0.5726(4) 0.1884(3)
O7_3 O 0.13942(18) 0.6032(3) 0.2448(3)
N2_3 N 0.1479(2) 0.5465(3) 0.1318(3)
H13_3 H 0.1298 0.5197 0.0960
C23_3 C 0.07010(10) 0.4259(2) 0.3473(2)
C24_3 C 0.03919(13) 0.3773(2) 0.2986(2)
H14_3 H 0.0572 0.3410 0.2691
C27_3 C 0.04381(13) 0.4790(2) 0.3905(2)
H17_3 H 0.0649 0.5122 0.4238
N4_3 N 0.5532(2) 0.5602(4) 0.1064(4)
H18_3 H 0.5678 0.5152 0.1188
N5_3 N 0.1639(2) 0.4588(3) 0.3981(3)
H19_3 H 0.1489 0.4837 0.4342
O8_3 O 0.1509(2) 0.3815(4) 0.2968(4)
C28_3 C 0.29379(15) 0.6138(2) 0.1629(2)
H20_3 H 0.3158 0.6482 0.1937
C29_3 C 0.23747(16) 0.6088(2) 0.1703(2)
H21_3 H 0.2210 0.6398 0.2062
C30_3 C 0.20524(11) 0.5585(3) 0.1251(2)
C31_3 C 0.22932(14) 0.5131(2) 0.0725(2)
H22_3 H 0.2073 0.4787 0.0417
C32_3 C 0.28564(14) 0.5180(2) 0.0651(2)
H23_3 H 0.3021 0.4870 0.0292
C33_3 C 0.31787(11) 0.5684(3) 0.1103(2)
C34_3 C 0.1326(3) 0.4208(4) 0.3455(5)
C35_3 C 0.68421(15) 0.6504(2) 0.0725(2)
H24_3 H 0.6698 0.6938 0.0452
C36_3 C 0.74084(14) 0.6388(2) 0.0819(2)
H25_3 H 0.7651 0.6743 0.0610
N6 N 0.76195(10) 0.5753(2) 0.1218(2)
C37_3 C 0.72644(15) 0.5234(2) 0.1523(2)
H26_3 H 0.7409 0.4799 0.1795
C38_3 C 0.66981(13) 0.5349(2) 0.1429(2)
H27_3 H 0.6455 0.4994 0.1637
C39_3 C 0.64870(11) 0.5984(3) 0.1030(2)
C40_3 C 0.49433(13) 0.5680(3) 0.1024(3)
C41_3 C 0.46753(16) 0.6348(2) 0.1221(3)
H28_3 H 0.4882 0.6801 0.1344
C42_3 C 0.41054(16) 0.6353(2) 0.1238(3)
H29_3 H 0.3922 0.6810 0.1373
C43_3 C 0.38034(12) 0.5691(3) 0.1058(3)
C44_3 C 0.40714(17) 0.5023(2) 0.0861(3)
H30_3 H 0.3865 0.4570 0.0738
C45_3 C 0.46414(17) 0.5018(2) 0.0844(3)
H31_3 H 0.4825 0.4561 0.0709
N7_3 N 0.5702(3) 0.4591(6) 0.3515(6)
H32_3 H 0.5851 0.5050 0.3491
O9_3 O 0.5890(2) 0.3304(4) 0.3621(4)
C46_3 C 0.5870(3) 0.6188(5) 0.0920(4)
C47_3 C 0.68912(15) 0.4853(3) 0.3666(3)
H33_3 H 0.6687 0.5243 0.3891
C48_3 C 0.74498(16) 0.4956(2) 0.3585(3)
H34_3 H 0.7627 0.5418 0.3756
N8 N 0.77488(11) 0.4384(2) 0.3255(2)
C49_3 C 0.74891(15) 0.3709(2) 0.3005(2)
H35_3 H 0.7693 0.3318 0.2779
C50_3 C 0.69305(15) 0.3605(2) 0.3085(3)
H36_3 H 0.6753 0.3144 0.2914
C51_3 C 0.66316(12) 0.4177(3) 0.3416(3)
C52_3 C 0.6033(3) 0.3982(6) 0.3535(5)
O10_3 O 0.5723(2) 0.6831(4) 0.0720(4)
C53_3 C 0.2564(2) 0.4127(4) 0.4427(3)
H37_3 H 0.2408 0.3821 0.4798
C54_3 C 0.22261(14) 0.4580(3) 0.3943(3)
C55_3 C 0.2454(2) 0.5026(4) 0.3400(4)
H38_3 H 0.2223 0.5336 0.3070
C56_3 C 0.3020(2) 0.5020(5) 0.3342(4)
H39_3 H 0.3176 0.5325 0.2971
C57_3 C 0.33583(15) 0.4567(4) 0.3826(4)
C58_3 C 0.31304(19) 0.4121(4) 0.4369(3)
H40_3 H 0.3361 0.3811 0.4700
C59_3 C 0.4759(3) 0.5097(4) 0.3177(6)
H41_3 H 0.4912 0.5473 0.2867
C60_3 C 0.4199(2) 0.5106(4) 0.3277(6)
H42_3 H 0.3968 0.5488 0.3035
C61_3 C 0.39753(17) 0.4557(5) 0.3730(5)
C62_3 C 0.4312(3) 0.3999(5) 0.4084(5)
H43_3 H 0.4160 0.3624 0.4394
C63_3 C 0.4873(2) 0.3990(5) 0.3984(5)
H44_3 H 0.5103 0.3608 0.4226
C64_3 C 0.50966(17) 0.4539(5) 0.3531(5)
Zn3 Zn 0.85267(2) 0.56283(3) 0.15166(3)
Zn5 Zn 0.86541(2) 0.43825(3) 0.32699(3)
O1_3 O 0.88781(17) 0.9389(2) 0.4865(2)
O2_2 O 0.86284(16) 0.8596(2) 0.5759(2)
C1_3 C 0.85509(18) 0.6119(3) 0.3110(3)
O3_3 O 0.84137(16) 0.6223(2) 0.2426(2)
C2_3 C 0.85261(19) 0.3898(3) 0.1643(3)
O4_3 O 0.84126(19) 0.4527(2) 0.1329(2)
C3_3 C 0.85746(14) 0.67069(13) 0.43822(15)
H1_3 H 0.8542 0.6205 0.4584
C4_3 C 0.86270(14) 0.73393(17) 0.48593(11)
H2_3 H 0.8631 0.7269 0.5387
C5_3 C 0.86741(14) 0.80742(14) 0.45636(14)
C6_3 C 0.86687(14) 0.81767(13) 0.37908(16)
H3_3 H 0.8701 0.8679 0.3589
C7_3 C 0.86162(14) 0.75444(16) 0.33137(11)
H4_3 H 0.8613 0.7615 0.2786
C8_3 C 0.85692(14) 0.68095(14) 0.36094(14)
C9_3 C 0.85273(14) 0.32141(14) 0.11355(15)
C10_3 C 0.84981(15) 0.33264(14) 0.03625(16)
H5_3 H 0.8464 0.3832 0.0162
C12_3 C 0.85678(14) 0.19588(15) 0.01760(15)
C13_3 C 0.85970(14) 0.18465(13) 0.09491(16)
H7_3 H 0.8631 0.1341 0.1150
C14_3 C 0.85768(14) 0.24741(17) 0.14288(11)
H8_3 H 0.8597 0.2397 0.1957
O6_3 O 0.86220(17) 0.3792(2) 0.2328(2)
C17_3 C 0.96998(12) 0.60713(18) 0.22088(18)
H10_3 H 0.9501 0.6401 0.2515
N1_3 N 0.94189(9) 0.55522(18) 0.17259(18)
C18_3 C 0.97099(12) 0.50702(18) 0.12777(19)
H11_3 H 0.9518 0.4715 0.0948
C22_3 C 0.8738(2) 0.8752(3) 0.5085(3)
C25_3 C 0.98200(13) 0.3818(2) 0.2931(2)
H15_3 H 0.9609 0.3486 0.2598
N3_3 N 0.95571(10) 0.4349(2) 0.33631(19)
C26_3 C 0.98662(13) 0.48347(19) 0.3850(2)
H16_3 H 0.9687 0.5197 0.4145
O11_3 O 0.86935(18) 0.5499(2) 0.3422(2)
Zn4_2 Zn 0.85267(2) 0.93717(3) 0.65166(3)
O13_2 O 0.86284(16) 0.6404(2) 0.0759(2)
O14_2 O 0.86354(16) 0.3517(2) 0.3961(2)
C11_3 C 0.85183(15) 0.26987(18) 0.98827(11)
H6_3 H 0.8498 0.2775 0.9354
O5_3 O 0.86474(18) 0.0621(2) 0.9877(2)
C21_3 C 0.8615(2) 0.1286(3) 0.9645(3)
O12_2 O 0.86354(16) 0.1483(2) 0.8961(2)
Zn6_2 Zn 0.86541(2) 0.06175(3) 0.82699(3)
H12_4 H 0.0481 0.0222 0.6006
C23_4 C 0.07010(10) 0.0741(2) 0.8473(2)
C24_4 C 0.03919(13) 0.1227(2) 0.7986(2)
H14_4 H 0.0572 0.1590 0.7691
C27_4 C 0.04381(13) 0.0210(2) 0.8905(2)
N5_4 N 0.1639(2) 0.0412(3) 0.8981(3)
H19_4 H 0.1489 0.0163 0.9342
O8_4 O 0.1509(2) 0.1185(4) 0.7968(4)
H22_4 H 0.2073 0.0213 0.5417
H23_4 H 0.3021 0.0130 0.5292
C34_4 C 0.1326(3) 0.0792(4) 0.8455(5)
H26_4 H 0.7409 0.0201 0.6795
H27_4 H 0.6455 0.0006 0.6637
H30_4 H 0.3865 0.0430 0.5738
H31_4 H 0.4825 0.0439 0.5709
N7_4 N 0.5702(3) 0.0409(6) 0.8515(6)
O9_4 O 0.5890(2) 0.1696(4) 0.8621(4)
C47_4 C 0.68912(15) 0.0147(3) 0.8666(3)
C48_4 C 0.74498(16) 0.0044(2) 0.8585(3)
N8_2 N 0.77488(11) 0.0616(2) 0.8255(2)
C49_4 C 0.74891(15) 0.1291(2) 0.8005(2)
H35_4 H 0.7693 0.1682 0.7779
C50_4 C 0.69305(15) 0.1395(2) 0.8085(3)
H36_4 H 0.6753 0.1856 0.7914
C51_4 C 0.66316(12) 0.0823(3) 0.8416(3)
C52_4 C 0.6033(3) 0.1018(6) 0.8535(5)
C53_4 C 0.2564(2) 0.0873(4) 0.9427(3)
H37_4 H 0.2408 0.1179 0.9798
C54_4 C 0.22261(14) 0.0420(3) 0.8943(3)
C57_4 C 0.33583(15) 0.0433(4) 0.8826(4)
C58_4 C 0.31304(19) 0.0879(4) 0.9369(3)
H40_4 H 0.3361 0.1189 0.9700
C61_4 C 0.39753(17) 0.0443(5) 0.8730(5)
C62_4 C 0.4312(3) 0.1001(5) 0.9084(5)
H43_4 H 0.4160 0.1376 0.9394
C63_4 C 0.4873(2) 0.1010(5) 0.8984(5)
H44_4 H 0.5103 0.1392 0.9226
C64_4 C 0.50966(17) 0.0461(5) 0.8531(5)
C15_4 C 0.05627(9) 0.9373(2) 0.6795(2)
C16_4 C 0.02717(12) 0.8892(2) 0.72435(19)
H9_4 H 0.0464 0.8537 0.7574
C19_4 C 0.02817(12) 0.9893(2) 0.6312(2)
C20_4 C 0.1186(2) 0.9274(4) 0.6884(3)
O7_4 O 0.13942(18) 0.8968(3) 0.7448(3)
N2_4 N 0.1479(2) 0.9535(3) 0.6318(3)
H13_4 H 0.1298 0.9803 0.5960
H17_4 H 0.0649 0.9878 0.9238
N4_4 N 0.5532(2) 0.9398(4) 0.6064(4)
H18_4 H 0.5678 0.9848 0.6188
C28_4 C 0.29379(15) 0.8862(2) 0.6629(2)
H20_4 H 0.3158 0.8518 0.6937
C29_4 C 0.23747(16) 0.8912(2) 0.6703(2)
H21_4 H 0.2210 0.8602 0.7062
C30_4 C 0.20524(11) 0.9415(3) 0.6251(2)
C31_4 C 0.22932(14) 0.9869(2) 0.5725(2)
C32_4 C 0.28564(14) 0.9820(2) 0.5651(2)
C33_4 C 0.31787(11) 0.9316(3) 0.6103(2)
C35_4 C 0.68421(15) 0.8496(2) 0.5725(2)
H24_4 H 0.6698 0.8062 0.5452
C36_4 C 0.74084(14) 0.8612(2) 0.5819(2)
H25_4 H 0.7651 0.8257 0.5610
N6_2 N 0.76195(10) 0.9247(2) 0.6218(2)
C37_4 C 0.72644(15) 0.9766(2) 0.6523(2)
C38_4 C 0.66981(13) 0.9651(2) 0.6429(2)
C39_4 C 0.64870(11) 0.9016(3) 0.6030(2)
C40_4 C 0.49433(13) 0.9320(3) 0.6024(3)
C41_4 C 0.46753(16) 0.8652(2) 0.6221(3)
H28_4 H 0.4882 0.8199 0.6344
C42_4 C 0.41054(16) 0.8647(2) 0.6238(3)
H29_4 H 0.3922 0.8190 0.6373
C43_4 C 0.38034(12) 0.9309(3) 0.6058(3)
C44_4 C 0.40714(17) 0.9977(2) 0.5861(3)
C45_4 C 0.46414(17) 0.9982(2) 0.5844(3)
H32_4 H 0.5851 0.9950 0.8491
C46_4 C 0.5870(3) 0.8812(5) 0.5920(4)
H33_4 H 0.6687 0.9757 0.8891
H34_4 H 0.7627 0.9582 0.8756
O10_4 O 0.5723(2) 0.8169(4) 0.5720(4)
C55_4 C 0.2454(2) 0.9974(4) 0.8400(4)
H38_4 H 0.2223 0.9664 0.8070
C56_4 C 0.3020(2) 0.9980(5) 0.8342(4)
H39_4 H 0.3176 0.9675 0.7971
C59_4 C 0.4759(3) 0.9903(4) 0.8177(6)
H41_4 H 0.4912 0.9527 0.7867
C60_4 C 0.4199(2) 0.9894(4) 0.8277(6)
H42_4 H 0.3968 0.9512 0.8035
C2_4 C 0.85261(19) 0.1102(3) 0.6643(3)
O4_4 O 0.84126(19) 0.0473(2) 0.6329(2)
C9_4 C 0.85273(14) 0.17859(14) 0.61355(15)
C10_4 C 0.84981(15) 0.16736(14) 0.53625(16)
H5_4 H 0.8464 0.1168 0.5162
C11_4 C 0.85183(15) 0.23013(18) 0.48827(11)
H6_4 H 0.8498 0.2225 0.4354
C12_4 C 0.85678(14) 0.30412(15) 0.51760(15)
C13_4 C 0.85970(14) 0.31535(13) 0.59491(16)
H7_4 H 0.8631 0.3659 0.6150
C14_4 C 0.85768(14) 0.25259(17) 0.64288(11)
H8_4 H 0.8597 0.2603 0.6957
O5_4 O 0.86474(18) 0.4379(2) 0.4877(2)
O6_4 O 0.86220(17) 0.1208(2) 0.7328(2)
H11_4 H 0.9518 0.0285 0.5948
C21_4 C 0.8615(2) 0.3714(3) 0.4645(3)
C25_4 C 0.98200(13) 0.1182(2) 0.7931(2)
H15_4 H 0.9609 0.1514 0.7598
N3_4 N 0.95571(10) 0.0651(2) 0.83631(19)
C26_4 C 0.98662(13) 0.01653(19) 0.8850(2)
H2_4 H 0.8631 0.7731 0.0387
C22_4 C 0.8738(2) 0.6248(3) 0.0085(3)
O1_4 O 0.88781(17) 0.5611(2) 0.9865(2)
C1_4 C 0.85509(18) 0.8881(3) 0.8110(3)
O3_4 O 0.84137(16) 0.8777(2) 0.7426(2)
C3_4 C 0.85746(14) 0.82931(13) 0.93822(15)
H1_4 H 0.8542 0.8795 0.9584
C4_4 C 0.86270(14) 0.76607(17) 0.98593(11)
C5_4 C 0.86741(14) 0.69258(14) 0.95636(14)
C6_4 C 0.86687(14) 0.68233(13) 0.87908(16)
H3_4 H 0.8701 0.6321 0.8589
C7_4 C 0.86162(14) 0.74556(16) 0.83137(11)
H4_4 H 0.8613 0.7385 0.7786
C8_4 C 0.85692(14) 0.81905(14) 0.86094(14)
C17_4 C 0.96998(12) 0.89287(18) 0.72088(18)
H10_4 H 0.9501 0.8599 0.7515
N1_4 N 0.94189(9) 0.94478(18) 0.67259(18)
C18_4 C 0.97099(12) 0.99298(18) 0.62777(19)
H16_4 H 0.9687 0.9803 0.9145
O11_4 O 0.86935(18) 0.9501(2) 0.8422(2)
loop_
_geom_bond_atom_site_label_1
_geom_bond_atom_site_label_2
_geom_bond_site_symmetry_1
_geom_bond_site_symmetry_2
Zn1 O3 1_555 1_555
C1 O3 1_555 1_555
C3 H1 1_555 1_555
C4 C3 1_555 1_555
C5 C4 1_555 1_555
C6 C5 1_555 1_555
H3 C6 1_555 1_555
C7 C6 1_555 1_555
H4 C7 1_555 1_555
C8 C1 1_555 1_555
H10 C17 1_555 1_555
N1 Zn1 1_555 1_555
C18 N1 1_555 1_555
O13 Zn1 1_555 1_555
N9 Zn1 1_555 1_555
C1 O11 1_555 1_555
C3 C8 1_555 1_555
C7 C8 1_555 1_555
C17 N1 1_555 1_555
O2 C22 1_555 1_555
Zn4 O2 1_555 1_555
Zn2 O6 1_555 1_555
C2 O4 1_555 1_555
C9 C2 1_555 1_555
C10 C9 1_555 1_555
H5 C10 1_555 1_555
C11 C10 1_555 1_555
H6 C11 1_555 1_555
C12 C11 1_555 1_555
C13 C12 1_555 1_555
H7 C13 1_555 1_555
C14 C9 1_555 1_555
H8 C14 1_555 1_555
O5 C21 1_555 1_555
O6 C2 1_555 1_555
C21 C12 1_555 1_555
H15 C25 1_555 1_555
N3 Zn2 1_555 1_555
C26 N3 1_555 1_555
O12 C21 1_555 1_555
Zn6 O12 1_555 1_555
N10 Zn2 1_555 1_555
O14 Zn2 1_555 1_555
C13 C14 1_555 1_555
C25 N3 1_555 1_555
C15 C16 1_555 1_555
C16 H9 1_555 1_555
C19 C15 1_555 1_555
C20 C15 1_555 1_555
O7 C20 1_555 1_555
N2 C20 1_555 1_555
H13 N2 1_555 1_555
N4 H18 1_555 1_555
C28 H20 1_555 1_555
C29 C28 1_555 1_555
H21 C29 1_555 1_555
C30 N2 1_555 1_555
C31 C30 1_555 1_555
C32 C31 1_555 1_555
C33 C28 1_555 1_555
C35 H24 1_555 1_555
C36 C35 1_555 1_555
H25 C36 1_555 1_555
N9 C36 1_555 1_555
C37 N9 1_555 1_555
C38 C37 1_555 1_555
C39 C35 1_555 1_555
C40 N4 1_555 1_555
C41 C40 1_555 1_555
H28 C41 1_555 1_555
C42 C41 1_555 1_555
H29 C42 1_555 1_555
C43 C33 1_555 1_555
C44 C43 1_555 1_555
C45 C40 1_555 1_555
C46 N4 1_555 1_555
O10 C46 1_555 1_555
H38 C55 1_555 1_555
C56 C55 1_555 1_555
H39 C56 1_555 1_555
C59 H41 1_555 1_555
C60 C59 1_555 1_555
H42 C60 1_555 1_555
C29 C30 1_555 1_555
C32 C33 1_555 1_555
C38 C39 1_555 1_555
C39 C46 1_555 1_555
C42 C43 1_555 1_555
C44 C45 1_555 1_555
C23 C24 1_555 1_555
C24 H14 1_555 1_555
C27 C23 1_555 1_555
N5 H19 1_555 1_555
O8 C34 1_555 1_555
C34 C23 1_555 1_555
O9 C52 1_555 1_555
C48 C47 1_555 1_555
N10 C48 1_555 1_555
C49 N10 1_555 1_555
H35 C49 1_555 1_555
C50 C49 1_555 1_555
H36 C50 1_555 1_555
C51 C47 1_555 1_555
C52 N7 1_555 1_555
C53 H37 1_555 1_555
C54 N5 1_555 1_555
C58 C53 1_555 1_555
H40 C58 1_555 1_555
C61 C57 1_555 1_555
C62 C61 1_555 1_555
H43 C62 1_555 1_555
C63 C62 1_555 1_555
H44 C63 1_555 1_555
C64 N7 1_555 1_555
N5 C34 1_555 1_555
C50 C51 1_555 1_555
C51 C52 1_555 1_555
C53 C54 1_555 1_555
C57 C58 1_555 1_555
C63 C64 1_555 1_555
H6_2 C11_2 1_555 1_555
O5_2 C21_2 1_555 1_555
O14 C21_2 1_555 1_555
Zn4 O3_2 1_555 1_555
Zn6 O6_2 1_555 1_555
O1_2 C22_2 1_555 1_555
O13 C22_2 1_555 1_555
C1_2 O3_2 1_555 1_555
C2_2 O4_2 1_555 1_555
O4_2 Zn4 1_555 1_555
C3_2 H1_2 1_555 1_555
C4_2 C3_2 1_555 1_555
H2_2 C4_2 1_555 1_555
C5_2 C4_2 1_555 1_555
C6_2 C5_2 1_555 1_555
H3_2 C6_2 1_555 1_555
C7_2 C6_2 1_555 1_555
H4_2 C7_2 1_555 1_555
C8_2 C1_2 1_555 1_555
C9_2 C2_2 1_555 1_555
C10_2 C9_2 1_555 1_555
H5_2 C10_2 1_555 1_555
C13_2 C12_2 1_555 1_555
H7_2 C13_2 1_555 1_555
C14_2 C9_2 1_555 1_555
H8_2 C14_2 1_555 1_555
O6_2 C2_2 1_555 1_555
H10_2 C17_2 1_555 1_555
N1_2 Zn4 1_555 1_555
C18_2 N1_2 1_555 1_555
H11_2 C18_2 1_555 1_555
C22_2 C5_2 1_555 1_555
H15_2 C25_2 1_555 1_555
N3_2 Zn6 1_555 1_555
C26_2 N3_2 1_555 1_555
H16_2 C26_2 1_555 1_555
O11_2 Zn6 1_555 1_555
N9_2 Zn4 1_555 1_555
N10_2 Zn6 1_555 1_555
C1_2 O11_2 1_555 1_555
C3_2 C8_2 1_555 1_555
C7_2 C8_2 1_555 1_555
C13_2 C14_2 1_555 1_555
C17_2 N1_2 1_555 1_555
C25_2 N3_2 1_555 1_555
C15_2 C16_2 1_555 1_555
C16_2 H9_2 1_555 1_555
C19_2 C15_2 1_555 1_555
H12_2 C19_2 1_555 1_555
C20_2 C15_2 1_555 1_555
O7_2 C20_2 1_555 1_555
N2_2 C20_2 1_555 1_555
H13_2 N2_2 1_555 1_555
C23_2 C24_2 1_555 1_555
C24_2 H14_2 1_555 1_555
C27_2 C23_2 1_555 1_555
H17_2 C27_2 1_555 1_555
N4_2 H18_2 1_555 1_555
N5_2 H19_2 1_555 1_555
O8_2 C34_2 1_555 1_555
C28_2 H20_2 1_555 1_555
C29_2 C28_2 1_555 1_555
H21_2 C29_2 1_555 1_555
C30_2 N2_2 1_555 1_555
C31_2 C30_2 1_555 1_555
H22_2 C31_2 1_555 1_555
C32_2 C31_2 1_555 1_555
H23_2 C32_2 1_555 1_555
C33_2 C28_2 1_555 1_555
C34_2 C23_2 1_555 1_555
C35_2 H24_2 1_555 1_555
C36_2 C35_2 1_555 1_555
H25_2 C36_2 1_555 1_555
N9_2 C36_2 1_555 1_555
C37_2 N9_2 1_555 1_555
H26_2 C37_2 1_555 1_555
C38_2 C37_2 1_555 1_555
H27_2 C38_2 1_555 1_555
C39_2 C35_2 1_555 1_555
C40_2 N4_2 1_555 1_555
C41_2 C40_2 1_555 1_555
H28_2 C41_2 1_555 1_555
C42_2 C41_2 1_555 1_555
H29_2 C42_2 1_555 1_555
C43_2 C33_2 1_555 1_555
C44_2 C43_2 1_555 1_555
H30_2 C44_2 1_555 1_555
C45_2 C40_2 1_555 1_555
H31_2 C45_2 1_555 1_555
N7_2 H32_2 1_555 1_555
O9_2 C52_2 1_555 1_555
C46_2 N4_2 1_555 1_555
C47_2 H33_2 1_555 1_555
C48_2 C47_2 1_555 1_555
H34_2 C48_2 1_555 1_555
N10_2 C48_2 1_555 1_555
C49_2 N10_2 1_555 1_555
H35_2 C49_2 1_555 1_555
C50_2 C49_2 1_555 1_555
H36_2 C50_2 1_555 1_555
C51_2 C47_2 1_555 1_555
C52_2 N7_2 1_555 1_555
O10_2 C46_2 1_555 1_555
C53_2 H37_2 1_555 1_555
C54_2 N5_2 1_555 1_555
C55_2 C54_2 1_555 1_555
H38_2 C55_2 1_555 1_555
C56_2 C55_2 1_555 1_555
H39_2 C56_2 1_555 1_555
C57_2 C56_2 1_555 1_555
C58_2 C53_2 1_555 1_555
H40_2 C58_2 1_555 1_555
C59_2 H41_2 1_555 1_555
C60_2 C59_2 1_555 1_555
H42_2 C60_2 1_555 1_555
C61_2 C57_2 1_555 1_555
C62_2 C61_2 1_555 1_555
H43_2 C62_2 1_555 1_555
C63_2 C62_2 1_555 1_555
H44_2 C63_2 1_555 1_555
C64_2 N7_2 1_555 1_555
N5_2 C34_2 1_555 1_555
C29_2 C30_2 1_555 1_555
C32_2 C33_2 1_555 1_555
C38_2 C39_2 1_555 1_555
C39_2 C46_2 1_555 1_555
C42_2 C43_2 1_555 1_555
C44_2 C45_2 1_555 1_555
C50_2 C51_2 1_555 1_555
C51_2 C52_2 1_555 1_555
C53_2 C54_2 1_555 1_555
C57_2 C58_2 1_555 1_555
C59_2 C64_2 1_555 1_555
C60_2 C61_2 1_555 1_555
C63_2 C64_2 1_555 1_555
C15_3 C16_3 1_555 1_555
C16_3 H9_3 1_555 1_555
C19_3 C15_3 1_555 1_555
H12_3 C19_3 1_555 1_555
C20_3 C15_3 1_555 1_555
O7_3 C20_3 1_555 1_555
N2_3 C20_3 1_555 1_555
H13_3 N2_3 1_555 1_555
C23_3 C24_3 1_555 1_555
C24_3 H14_3 1_555 1_555
C27_3 C23_3 1_555 1_555
H17_3 C27_3 1_555 1_555
N4_3 H18_3 1_555 1_555
N5_3 H19_3 1_555 1_555
O8_3 C34_3 1_555 1_555
C28_3 H20_3 1_555 1_555
C29_3 C28_3 1_555 1_555
H21_3 C29_3 1_555 1_555
C30_3 N2_3 1_555 1_555
C31_3 C30_3 1_555 1_555
H22_3 C31_3 1_555 1_555
C32_3 C31_3 1_555 1_555
H23_3 C32_3 1_555 1_555
C33_3 C28_3 1_555 1_555
C34_3 C23_3 1_555 1_555
C35_3 H24_3 1_555 1_555
C36_3 C35_3 1_555 1_555
H25_3 C36_3 1_555 1_555
N6 C36_3 1_555 1_555
C37_3 N6 1_555 1_555
H26_3 C37_3 1_555 1_555
C38_3 C37_3 1_555 1_555
H27_3 C38_3 1_555 1_555
C39_3 C35_3 1_555 1_555
C40_3 N4_3 1_555 1_555
C41_3 C40_3 1_555 1_555
H28_3 C41_3 1_555 1_555
C42_3 C41_3 1_555 1_555
H29_3 C42_3 1_555 1_555
C43_3 C33_3 1_555 1_555
C44_3 C43_3 1_555 1_555
H30_3 C44_3 1_555 1_555
C45_3 C40_3 1_555 1_555
H31_3 C45_3 1_555 1_555
N7_3 H32_3 1_555 1_555
O9_3 C52_3 1_555 1_555
C46_3 N4_3 1_555 1_555
C47_3 H33_3 1_555 1_555
C48_3 C47_3 1_555 1_555
H34_3 C48_3 1_555 1_555
N8 C48_3 1_555 1_555
C49_3 N8 1_555 1_555
H35_3 C49_3 1_555 1_555
C50_3 C49_3 1_555 1_555
H36_3 C50_3 1_555 1_555
C51_3 C47_3 1_555 1_555
C52_3 N7_3 1_555 1_555
O10_3 C46_3 1_555 1_555
C53_3 H37_3 1_555 1_555
C54_3 N5_3 1_555 1_555
C55_3 C54_3 1_555 1_555
H38_3 C55_3 1_555 1_555
C56_3 C55_3 1_555 1_555
H39_3 C56_3 1_555 1_555
C57_3 C56_3 1_555 1_555
C58_3 C53_3 1_555 1_555
H40_3 C58_3 1_555 1_555
C59_3 H41_3 1_555 1_555
C60_3 C59_3 1_555 1_555
H42_3 C60_3 1_555 1_555
C61_3 C57_3 1_555 1_555
C62_3 C61_3 1_555 1_555
H43_3 C62_3 1_555 1_555
C63_3 C62_3 1_555 1_555
H44_3 C63_3 1_555 1_555
C64_3 N7_3 1_555 1_555
Zn3 N6 1_555 1_555
Zn5 N8 1_555 1_555
N5_3 C34_3 1_555 1_555
C29_3 C30_3 1_555 1_555
C32_3 C33_3 1_555 1_555
C38_3 C39_3 1_555 1_555
C39_3 C46_3 1_555 1_555
C42_3 C43_3 1_555 1_555
C44_3 C45_3 1_555 1_555
C50_3 C51_3 1_555 1_555
C51_3 C52_3 1_555 1_555
C53_3 C54_3 1_555 1_555
C57_3 C58_3 1_555 1_555
C59_3 C64_3 1_555 1_555
C60_3 C61_3 1_555 1_555
C63_3 C64_3 1_555 1_555
Zn3 O3_3 1_555 1_555
Zn5 O6_3 1_555 1_555
O1_3 C22_3 1_555 1_555
O2_2 C22_3 1_555 1_555
C1_3 O3_3 1_555 1_555
C2_3 O4_3 1_555 1_555
O4_3 Zn3 1_555 1_555
C3_3 H1_3 1_555 1_555
C4_3 C3_3 1_555 1_555
H2_3 C4_3 1_555 1_555
C5_3 C4_3 1_555 1_555
C6_3 C5_3 1_555 1_555
H3_3 C6_3 1_555 1_555
C7_3 C6_3 1_555 1_555
H4_3 C7_3 1_555 1_555
C8_3 C1_3 1_555 1_555
C9_3 C2_3 1_555 1_555
C10_3 C9_3 1_555 1_555
H5_3 C10_3 1_555 1_555
C13_3 C12_3 1_555 1_555
H7_3 C13_3 1_555 1_555
C14_3 C9_3 1_555 1_555
H8_3 C14_3 1_555 1_555
O6_3 C2_3 1_555 1_555
H10_3 C17_3 1_555 1_555
N1_3 Zn3 1_555 1_555
C18_3 N1_3 1_555 1_555
H11_3 C18_3 1_555 1_555
C22_3 C5_3 1_555 1_555
H15_3 C25_3 1_555 1_555
N3_3 Zn5 1_555 1_555
C26_3 N3_3 1_555 1_555
H16_3 C26_3 1_555 1_555
O11_3 Zn5 1_555 1_555
Zn4_2 O2_2 1_555 1_555
O13_2 Zn3 1_555 1_555
O14_2 Zn5 1_555 1_555
C1_3 O11_3 1_555 1_555
C3_3 C8_3 1_555 1_555
C7_3 C8_3 1_555 1_555
C13_3 C14_3 1_555 1_555
C17_3 N1_3 1_555 1_555
C25_3 N3_3 1_555 1_555
H6_3 C11_3 1_555 1_555
O5_3 C21_3 1_555 1_555
O12_2 C21_3 1_555 1_555
Zn6_2 O12_2 1_555 1_555
C23_4 C24_4 1_555 1_555
C24_4 H14_4 1_555 1_555
C27_4 C23_4 1_555 1_555
N5_4 H19_4 1_555 1_555
O8_4 C34_4 1_555 1_555
C34_4 C23_4 1_555 1_555
O9_4 C52_4 1_555 1_555
C48_4 C47_4 1_555 1_555
N8_2 C48_4 1_555 1_555
C49_4 N8_2 1_555 1_555
H35_4 C49_4 1_555 1_555
C50_4 C49_4 1_555 1_555
H36_4 C50_4 1_555 1_555
C51_4 C47_4 1_555 1_555
C52_4 N7_4 1_555 1_555
C53_4 H37_4 1_555 1_555
C54_4 N5_4 1_555 1_555
C58_4 C53_4 1_555 1_555
H40_4 C58_4 1_555 1_555
C61_4 C57_4 1_555 1_555
C62_4 C61_4 1_555 1_555
H43_4 C62_4 1_555 1_555
C63_4 C62_4 1_555 1_555
H44_4 C63_4 1_555 1_555
C64_4 N7_4 1_555 1_555
Zn6_2 N8_2 1_555 1_555
N5_4 C34_4 1_555 1_555
C50_4 C51_4 1_555 1_555
C51_4 C52_4 1_555 1_555
C53_4 C54_4 1_555 1_555
C57_4 C58_4 1_555 1_555
C63_4 C64_4 1_555 1_555
C15_4 C16_4 1_555 1_555
C16_4 H9_4 1_555 1_555
C19_4 C15_4 1_555 1_555
C20_4 C15_4 1_555 1_555
O7_4 C20_4 1_555 1_555
N2_4 C20_4 1_555 1_555
H13_4 N2_4 1_555 1_555
N4_4 H18_4 1_555 1_555
C28_4 H20_4 1_555 1_555
C29_4 C28_4 1_555 1_555
H21_4 C29_4 1_555 1_555
C30_4 N2_4 1_555 1_555
C31_4 C30_4 1_555 1_555
C32_4 C31_4 1_555 1_555
C33_4 C28_4 1_555 1_555
C35_4 H24_4 1_555 1_555
C36_4 C35_4 1_555 1_555
H25_4 C36_4 1_555 1_555
N6_2 C36_4 1_555 1_555
C37_4 N6_2 1_555 1_555
C38_4 C37_4 1_555 1_555
C39_4 C35_4 1_555 1_555
C40_4 N4_4 1_555 1_555
C41_4 C40_4 1_555 1_555
H28_4 C41_4 1_555 1_555
C42_4 C41_4 1_555 1_555
H29_4 C42_4 1_555 1_555
C43_4 C33_4 1_555 1_555
C44_4 C43_4 1_555 1_555
C45_4 C40_4 1_555 1_555
C46_4 N4_4 1_555 1_555
O10_4 C46_4 1_555 1_555
H38_4 C55_4 1_555 1_555
C56_4 C55_4 1_555 1_555
H39_4 C56_4 1_555 1_555
C59_4 H41_4 1_555 1_555
C60_4 C59_4 1_555 1_555
H42_4 C60_4 1_555 1_555
Zn4_2 N6_2 1_555 1_555
C29_4 C30_4 1_555 1_555
C32_4 C33_4 1_555 1_555
C38_4 C39_4 1_555 1_555
C39_4 C46_4 1_555 1_555
C42_4 C43_4 1_555 1_555
C44_4 C45_4 1_555 1_555
Zn6_2 O6_4 1_555 1_555
C2_4 O4_4 1_555 1_555
C9_4 C2_4 1_555 1_555
C10_4 C9_4 1_555 1_555
H5_4 C10_4 1_555 1_555
C11_4 C10_4 1_555 1_555
H6_4 C11_4 1_555 1_555
C12_4 C11_4 1_555 1_555
C13_4 C12_4 1_555 1_555
H7_4 C13_4 1_555 1_555
C14_4 C9_4 1_555 1_555
H8_4 C14_4 1_555 1_555
O5_4 C21_4 1_555 1_555
O6_4 C2_4 1_555 1_555
C21_4 C12_4 1_555 1_555
H15_4 C25_4 1_555 1_555
N3_4 Zn6_2 1_555 1_555
C26_4 N3_4 1_555 1_555
O14_2 C21_4 1_555 1_555
C13_4 C14_4 1_555 1_555
C25_4 N3_4 1_555 1_555
O13_2 C22_4 1_555 1_555
Zn4_2 O3_4 1_555 1_555
C1_4 O3_4 1_555 1_555
C3_4 H1_4 1_555 1_555
C4_4 C3_4 1_555 1_555
C5_4 C4_4 1_555 1_555
C6_4 C5_4 1_555 1_555
H3_4 C6_4 1_555 1_555
C7_4 C6_4 1_555 1_555
H4_4 C7_4 1_555 1_555
C8_4 C1_4 1_555 1_555
H10_4 C17_4 1_555 1_555
N1_4 Zn4_2 1_555 1_555
C18_4 N1_4 1_555 1_555
C1_4 O11_4 1_555 1_555
C3_4 C8_4 1_555 1_555
C7_4 C8_4 1_555 1_555
C17_4 N1_4 1_555 1_555

#END
