
###############################################################################
#
# This file contains modified crystal structure data generated from the
# MOF subset of the Cambridge Structural Database (CSD) v543 
# hosted by the Cambridge Crystallographic Data Centre (CCDC).
#
# This work is licensed under the Creative Commons
# Attribution-NonCommercial-ShareAlike 4.0 International License.
# To view a copy of this license, visit
# http://creativecommons.org/licenses/by-nc-sa/4.0/
# or send a letter to
# Creative Commons, PO Box 1866, Mountain View, CA 94042, USA.
#
# CIF created using the CSD Python API on 29 September 2022
# The structure has been converted into the P1 space group
# The structure has a 3D framework
# The original CSD entry ZILFOR is in the tetragonal crystal system
# The original CSD entry ZILFOR is in a Sohncke space group
# The framework has been calculated to contain at least 10.0% void space
# The void calculation uses a probe of radius 1.32A, grid spacing 0.4
# H atom positions have been added when not included in the experimental data
#
###############################################################################

data_ZILFOR
_chemical_formula_moiety         '(C216 H136 Cu16 N8 O71)n'
_symmetry_cell_setting           triclinic
_symmetry_space_group_name_H-M   'P 1'
_symmetry_Int_Tables_number      1
_space_group_name_Hall           'P 1'
loop_
_symmetry_equiv_pos_site_id
_symmetry_equiv_pos_as_xyz
1 x,y,z
_cell_length_a                   26.070(5)
_cell_length_b                   26.070(5)
_cell_length_c                   18.601(5)
_cell_angle_alpha                90
_cell_angle_beta                 90
_cell_angle_gamma                90
_cell_volume                     12642.1
loop_
_atom_site_label
_atom_site_type_symbol
_atom_site_fract_x
_atom_site_fract_y
_atom_site_fract_z
O5 O 0.72714(17) 0.18163(15) 0.0077(2)
Cu8 Cu 0.73122(3) 0.29994(3) 0.03638(4)
Cu12 Cu 0.73241(3) 0.21205(3) 0.10610(4)
C23 C 0.7383(3) 0.2060(2) 0.9524(3)
C24 C 0.7446(3) 0.1800(2) 0.8843(3)
C25 C 0.7437(3) 0.1271(2) 0.8832(3)
H12 H 0.7377 0.1095 0.9260
C29 C 0.7837(4) 0.0143(3) 0.7767(5)
H14 H 0.8057 0.0319 0.7461
C30 C 0.7498(3) 0.0418(2) 0.8199(4)
C31 C 0.7167(3) 0.0144(3) 0.8633(5)
H15 H 0.6952 0.0318 0.8949
C33 C 0.7745(2) 0.2067(2) 0.6905(4)
C34 C 0.7663(3) 0.1783(2) 0.7570(4)
C35 C 0.7626(3) 0.1256(3) 0.7597(4)
H17 H 0.7680 0.1071 0.7175
C36 C 0.7514(3) 0.0990(3) 0.8207(4)
C37 C 0.7564(2) 0.2044(2) 0.8212(3)
H18 H 0.7579 0.2400 0.8211
N1 N 0.7346(2) 0.1380(2) 0.1558(3)
C45 C 0.6907(2) 0.1160(3) 0.1850(6)
H23 H 0.6600 0.1342 0.1852
C46 C 0.6927(4) 0.0669(4) 0.2138(6)
H24 H 0.6633 0.0522 0.2334
C47 C 0.7385(4) 0.0397(2) 0.2134(5)
C48 C 0.7824(3) 0.0616(3) 0.1842(6)
H25 H 0.8131 0.0434 0.1840
C49 C 0.7805(2) 0.1108(3) 0.1554(5)
H26 H 0.8098 0.1255 0.1358
O2 O 0.73651(18) 0.25490(16) 0.9501(2)
O6 O 0.78374(17) 0.18346(15) 0.6354(3)
O8 O 0.7751(2) 0.25834(15) 0.6926(3)
Cu5 Cu 0.77874(3) 0.21243(3) 0.53728(4)
Cu9 Cu 0.78108(3) 0.30092(3) 0.60659(4)
C1 C 0.3659(2) 0.7458(2) 0.5726(4)
C2 C 0.6933(3) 0.7376(3) 0.4415(4)
C3 C 0.6690(2) 0.7455(3) 0.5109(3)
C4 C 0.6936(2) 0.7550(3) 0.5709(4)
H1 H 0.7292 0.7542 0.5710
C5 C 0.6670(2) 0.7664(3) 0.6359(3)
C6 C 0.6147(2) 0.7632(3) 0.6344(4)
H2 H 0.5965 0.7686 0.6767
C7 C 0.5877(2) 0.7520(3) 0.5716(4)
C8 C 0.6156(2) 0.7431(2) 0.5082(4)
H3 H 0.5988 0.7359 0.4653
C9 C 0.6990(3) 0.7723(2) 0.7038(3)
C10 C 0.5303(2) 0.7493(3) 0.5722(4)
C11 C 0.5030(2) 0.7848(3) 0.6139(4)
H4 H 0.5203 0.8103 0.6392
C12 C 0.4504(3) 0.7815(3) 0.6167(4)
H5 H 0.4328 0.8026 0.6485
C13 C 0.4219(3) 0.7468(3) 0.5726(4)
C14 C 0.4506(2) 0.7146(3) 0.5323(4)
H6 H 0.4342 0.6899 0.5044
C15 C 0.5025(3) 0.7171(4) 0.5314(5)
H7 H 0.5200 0.6951 0.5006
C16 C 0.7430(3) 0.8243(3) 0.3162(5)
C17 C 0.7385(3) 0.8816(3) 0.2828(5)
C18 C 0.7824(3) 0.9116(4) 0.2891(5)
H8 H 0.8124 0.8973 0.3071
C19 C 0.7813(3) 0.9628(3) 0.2684(5)
H9 H 0.8106 0.9828 0.2727
C20 C 0.7363(4) 0.9841(2) 0.2415(5)
C21 C 0.6925(3) 0.9541(3) 0.2352(5)
H10 H 0.6624 0.9684 0.2172
C22 C 0.6935(3) 0.9029(3) 0.2558(4)
H11 H 0.6642 0.8828 0.2516
C26 C 0.7471(3) 0.8792(3) 0.8201(4)
C27 C 0.7471(3) 0.9336(3) 0.8194(4)
C28 C 0.7852(4) 0.9589(3) 0.7782(5)
H13 H 0.8102 0.9406 0.7532
C32 C 0.7154(3) 0.9621(3) 0.8605(5)
H16 H 0.6911 0.9452 0.8884
C38 C 0.7254(4) 0.6884(4) 0.8437(6)
C39 C 0.7339(4) 0.6290(2) 0.8514(5)
C40 C 0.7781(3) 0.5995(3) 0.8453(5)
H19 H 0.8070 0.6130 0.8229
C41 C 0.7791(3) 0.5499(3) 0.8726(5)
H20 H 0.8087 0.5302 0.8685
C42 C 0.7359(3) 0.5298(2) 0.9061(4)
C43 C 0.6917(3) 0.5593(3) 0.9122(5)
H21 H 0.6627 0.5459 0.9346
C44 C 0.6907(3) 0.6089(3) 0.8848(5)
H22 H 0.6611 0.6287 0.8889
N2 N 0.7281(2) 0.37347(17) 0.9835(3)
C50 C 0.68369(16) 0.40259(19) 0.9770(3)
H27 H 0.6525 0.3895 0.9930
C51 C 0.68584(19) 0.45125(17) 0.9466(3)
H28 H 0.6561 0.4707 0.9423
C52 C 0.7324(2) 0.4708(2) 0.9227(4)
C53 C 0.7768(2) 0.4417(3) 0.9291(6)
H29 H 0.8080 0.4548 0.9131
C54 C 0.77469(17) 0.3930(3) 0.9595(5)
H30 H 0.8044 0.3735 0.9639
O1 O 0.74339(17) 0.7720(2) 0.7037(3)
O3 O 0.67224(15) 0.78292(19) 0.7584(2)
O4 O 0.8597(3) 0.7706(3) 0.7344(4)
O7 O 0.6276(3) 0.7810(3) 0.9130(4)
O9 O 0.7784(2) 0.85447(19) 0.7821(4)
O10 O 0.7145(2) 0.85373(17) 0.8557(3)
O11 O 0.74217(19) 0.73897(19) 0.4426(2)
O12 O 0.67031(15) 0.72729(19) 0.3852(2)
O13 O 0.7824(3) 0.7033(2) 0.8029(3)
O14 O 0.6953(2) 0.7083(2) 0.8494(5)
O15 O 0.34371(14) 0.70946(14) 0.5363(2)
O16 O 0.34104(16) 0.78199(17) 0.6094(3)
O17 O 0.7823(2) 0.8063(3) 0.3344(4)
O18 O 0.7027(2) 0.8080(2) 0.2926(4)
Cu1 Cu 0.78757(3) 0.77874(3) 0.78728(4)
Cu2 Cu 0.70006(3) 0.73122(3) 0.28638(4)
Cu3 Cu 0.69908(3) 0.78108(3) 0.85659(4)
Cu4 Cu 0.78795(3) 0.73241(3) 0.35610(4)
N3 N 0.8620(2) 0.7346(2) 0.4058(3)
N4 N 0.62653(17) 0.7281(2) 0.2335(3)
O19 O 0.74510(16) 0.73651(18) 0.2001(2)
O20 O 0.81837(15) 0.72714(17) 0.2577(2)
O21 O 0.81654(15) 0.78374(17) 0.8854(3)
O22 O 0.74166(15) 0.7751(2) 0.9426(3)
O23 O 0.70946(14) 0.65629(14) 0.2863(2)
O24 O 0.78199(17) 0.65896(16) 0.3594(3)
Cu6 Cu 0.26878(3) 0.70006(3) 0.53638(4)
Cu10 Cu 0.26759(3) 0.78795(3) 0.60610(4)
H31 H 0.863642 0.798204 0.698033
H32 H 0.887782 0.773141 0.770291
H33 H 0.60738 0.750339 0.898853
H34 H 0.634152 0.780103 0.965574
C1_2 C 0.6341(2) 0.2542(2) 0.0726(4)
C3_2 C 0.3310(2) 0.2545(3) 0.0109(3)
C4_2 C 0.3064(2) 0.2450(3) 0.0709(4)
H1_2 H 0.2708 0.2458 0.0710
C5_2 C 0.3330(2) 0.2336(3) 0.1359(3)
C6_2 C 0.3853(2) 0.2368(3) 0.1344(4)
H2_2 H 0.4035 0.2314 0.1767
C7_2 C 0.4123(2) 0.2480(3) 0.0716(4)
C8_2 C 0.3844(2) 0.2569(2) 0.0082(4)
C9_2 C 0.3010(3) 0.2277(2) 0.2038(3)
C10_2 C 0.4697(2) 0.2507(3) 0.0722(4)
C11_2 C 0.4970(2) 0.2152(3) 0.1139(4)
H4_2 H 0.4797 0.1897 0.1392
C12_2 C 0.5496(3) 0.2185(3) 0.1167(4)
H5_2 H 0.5672 0.1974 0.1485
C13_2 C 0.5781(3) 0.2532(3) 0.0726(4)
C14_2 C 0.5494(2) 0.2854(3) 0.0323(4)
H6_2 H 0.5658 0.3101 0.0044
C15_2 C 0.4975(3) 0.2829(4) 0.0314(5)
H7_2 H 0.4800 0.3049 0.0006
C26_2 C 0.2529(3) 0.1208(3) 0.3201(4)
C27_2 C 0.2529(3) 0.0664(3) 0.3194(4)
C28_2 C 0.2148(4) 0.0411(3) 0.2782(5)
H13_2 H 0.1898 0.0594 0.2532
C32_2 C 0.2846(3) 0.0379(3) 0.3605(5)
H16_2 H 0.3089 0.0548 0.3884
C38_2 C 0.2746(4) 0.3116(4) 0.3437(6)
C39_2 C 0.2661(4) 0.3710(2) 0.3514(5)
C40_2 C 0.2219(3) 0.4005(3) 0.3453(5)
H19_2 H 0.1930 0.3870 0.3229
C41_2 C 0.2209(3) 0.4501(3) 0.3726(5)
H20_2 H 0.1913 0.4698 0.3685
C42_2 C 0.2641(3) 0.4702(2) 0.4061(4)
C43_2 C 0.3083(3) 0.4407(3) 0.4122(5)
H21_2 H 0.3373 0.4541 0.4346
C44_2 C 0.3093(3) 0.3911(3) 0.3848(5)
H22_2 H 0.3389 0.3713 0.3889
N2_2 N 0.2719(2) 0.62653(17) 0.4835(3)
C50_2 C 0.31631(16) 0.59741(19) 0.4770(3)
H27_2 H 0.3475 0.6105 0.4930
C51_2 C 0.31416(19) 0.54875(17) 0.4466(3)
H28_2 H 0.3439 0.5293 0.4423
C52_2 C 0.2676(2) 0.5292(2) 0.4227(4)
C53_2 C 0.2232(2) 0.5583(3) 0.4291(6)
H29_2 H 0.1920 0.5452 0.4131
C54_2 C 0.22531(17) 0.6070(3) 0.4595(5)
H30_2 H 0.1956 0.6265 0.4639
O1_2 O 0.25661(17) 0.2280(2) 0.2037(3)
O3_2 O 0.32776(15) 0.21708(19) 0.2584(2)
O4_2 O 0.1403(3) 0.2294(3) 0.2344(4)
O7_2 O 0.3724(3) 0.2190(3) 0.4130(4)
O9_2 O 0.2216(2) 0.14553(19) 0.2821(4)
O10_2 O 0.2855(2) 0.14627(17) 0.3557(3)
O13_2 O 0.2176(3) 0.2967(2) 0.3029(3)
O14_2 O 0.3047(2) 0.2917(2) 0.3494(5)
O15_2 O 0.65629(14) 0.29054(14) 0.0363(2)
O16_2 O 0.65896(16) 0.21801(17) 0.1094(3)
Cu1_2 Cu 0.21243(3) 0.22126(3) 0.28728(4)
Cu3_2 Cu 0.30092(3) 0.21892(3) 0.35659(4)
O21_2 O 0.18346(15) 0.21626(17) 0.3854(3)
O22_2 O 0.25834(15) 0.2249(2) 0.4426(3)
H31_2 H 0.136358 0.201796 0.198033
H32_2 H 0.112218 0.226859 0.270291
H33_2 H 0.39262 0.249661 0.398853
H34_2 H 0.365848 0.219897 0.465574
C2_2 C 0.3067(3) 0.2624(3) 0.9415(4)
H3_2 H 0.4012 0.2641 0.9653
C16_2 C 0.2570(3) 0.1757(3) 0.8162(5)
C17_2 C 0.2615(3) 0.1184(3) 0.7828(5)
C18_2 C 0.2176(3) 0.0884(4) 0.7891(5)
H8_2 H 0.1876 0.1027 0.8071
C19_2 C 0.2187(3) 0.0372(3) 0.7684(5)
H9_2 H 0.1894 0.0172 0.7727
C20_2 C 0.2637(4) 0.0159(2) 0.7415(5)
C21_2 C 0.3075(3) 0.0459(3) 0.7352(5)
H10_2 H 0.3376 0.0316 0.7172
C22_2 C 0.3065(3) 0.0971(3) 0.7558(4)
H11_2 H 0.3358 0.1172 0.7516
O11_2 O 0.25783(19) 0.26103(19) 0.9426(2)
O12_2 O 0.32969(15) 0.27271(19) 0.8852(2)
O17_2 O 0.2177(2) 0.1937(3) 0.8344(4)
O18_2 O 0.2973(2) 0.1920(2) 0.7926(4)
Cu2_2 Cu 0.29994(3) 0.26878(3) 0.78638(4)
Cu4_2 Cu 0.21205(3) 0.26759(3) 0.85610(4)
N3_2 N 0.1380(2) 0.2654(2) 0.9058(3)
N4_2 N 0.37347(17) 0.2719(2) 0.7335(3)
O19_2 O 0.25490(16) 0.26349(18) 0.7001(2)
O20_2 O 0.18163(15) 0.27286(17) 0.7577(2)
O23_2 O 0.29054(14) 0.34371(14) 0.7863(2)
O24_2 O 0.21801(17) 0.34104(16) 0.8594(3)
C23_2 C 0.2617(3) 0.7940(2) 0.4524(3)
C24_2 C 0.2554(3) 0.8200(2) 0.3843(3)
C25_2 C 0.2563(3) 0.8729(2) 0.3832(3)
H12_2 H 0.2623 0.8905 0.4260
C29_2 C 0.2163(4) 0.9857(3) 0.2767(5)
H14_2 H 0.1943 0.9681 0.2461
C30_2 C 0.2502(3) 0.9582(2) 0.3199(4)
C31_2 C 0.2833(3) 0.9856(3) 0.3633(5)
H15_2 H 0.3048 0.9682 0.3949
C33_2 C 0.2255(2) 0.7933(2) 0.1905(4)
C34_2 C 0.2337(3) 0.8217(2) 0.2570(4)
C35_2 C 0.2374(3) 0.8744(3) 0.2597(4)
H17_2 H 0.2320 0.8929 0.2175
C36_2 C 0.2486(3) 0.9010(3) 0.3207(4)
C37_2 C 0.2436(2) 0.7956(2) 0.3212(3)
H18_2 H 0.2421 0.7600 0.3211
O2_2 O 0.26349(18) 0.74510(16) 0.4501(2)
O5_2 O 0.27286(17) 0.81837(15) 0.5077(2)
O6_2 O 0.21626(17) 0.81654(15) 0.1354(3)
O8_2 O 0.2249(2) 0.74166(15) 0.1926(3)
Cu5_2 Cu 0.22126(3) 0.78757(3) 0.03728(4)
Cu9_2 Cu 0.21892(3) 0.69908(3) 0.10659(4)
N1_2 N 0.2654(2) 0.8620(2) 0.6558(3)
C45_2 C 0.3093(2) 0.8840(3) 0.6850(6)
H23_2 H 0.3400 0.8658 0.6852
C46_2 C 0.3073(4) 0.9331(4) 0.7138(6)
H24_2 H 0.3367 0.9478 0.7334
C47_2 C 0.2615(4) 0.9603(2) 0.7134(5)
C48_2 C 0.2176(3) 0.9384(3) 0.6842(6)
H25_2 H 0.1869 0.9566 0.6840
C49_2 C 0.2195(2) 0.8892(3) 0.6554(5)
H26_2 H 0.1902 0.8745 0.6358
C26_3 C 0.1208(3) 0.7471(3) 0.0701(4)
C27_3 C 0.0664(3) 0.7471(3) 0.0694(4)
C28_3 C 0.0411(3) 0.7852(4) 0.0282(5)
H13_3 H 0.0594 0.8102 0.0032
C32_3 C 0.0379(3) 0.7154(3) 0.1105(5)
H16_3 H 0.0548 0.6911 0.1384
C38_3 C 0.3116(4) 0.7254(4) 0.0937(6)
C39_3 C 0.3710(2) 0.7339(4) 0.1014(5)
C40_3 C 0.4005(3) 0.7781(3) 0.0953(5)
H19_3 H 0.3870 0.8070 0.0729
C41_3 C 0.4501(3) 0.7791(3) 0.1226(5)
H20_3 H 0.4698 0.8087 0.1185
C42_3 C 0.4702(2) 0.7359(3) 0.1561(4)
C43_3 C 0.4407(3) 0.6917(3) 0.1622(5)
H21_3 H 0.4541 0.6627 0.1846
C44_3 C 0.3911(3) 0.6907(3) 0.1348(5)
H22_3 H 0.3713 0.6611 0.1389
C50_3 C 0.59741(19) 0.68369(16) 0.2270(3)
H27_3 H 0.6105 0.6525 0.2430
C51_3 C 0.54875(17) 0.68584(19) 0.1966(3)
H28_3 H 0.5293 0.6561 0.1923
C52_3 C 0.5292(2) 0.7324(2) 0.1727(4)
C53_3 C 0.5583(3) 0.7768(2) 0.1791(6)
H29_3 H 0.5452 0.8080 0.1631
C54_3 C 0.6070(3) 0.77469(17) 0.2095(5)
H30_3 H 0.6265 0.8044 0.2139
O3_3 O 0.21708(19) 0.67224(15) 0.0084(2)
O7_3 O 0.2190(3) 0.6276(3) 0.1630(4)
O9_3 O 0.14553(19) 0.7784(2) 0.0321(4)
O10_3 O 0.14627(17) 0.7145(2) 0.1057(3)
O13_3 O 0.2967(2) 0.7824(3) 0.0529(3)
O14_3 O 0.2917(2) 0.6953(2) 0.0994(5)
H32_3 H 0.226859 0.887782 0.0202905
H33_3 H 0.249661 0.60738 0.148853
H34_3 H 0.219897 0.634152 0.215574
C1_3 C 0.2542(2) 0.3659(2) 0.8226(4)
C2_3 C 0.2624(3) 0.6933(3) 0.6915(4)
C3_3 C 0.2545(3) 0.6690(2) 0.7609(3)
C4_3 C 0.2450(3) 0.6936(2) 0.8209(4)
H1_3 H 0.2458 0.7292 0.8210
C5_3 C 0.2336(3) 0.6670(2) 0.8859(3)
C6_3 C 0.2368(3) 0.6147(2) 0.8844(4)
H2_3 H 0.2314 0.5965 0.9267
C7_3 C 0.2480(3) 0.5877(2) 0.8216(4)
C8_3 C 0.2569(2) 0.6156(2) 0.7582(4)
H3_3 H 0.2641 0.5988 0.7153
C9_3 C 0.2277(2) 0.6990(3) 0.9538(3)
C10_3 C 0.2507(3) 0.5303(2) 0.8222(4)
C11_3 C 0.2152(3) 0.5030(2) 0.8639(4)
H4_3 H 0.1897 0.5203 0.8892
C12_3 C 0.2185(3) 0.4504(3) 0.8667(4)
H5_3 H 0.1974 0.4328 0.8985
C13_3 C 0.2532(3) 0.4219(3) 0.8226(4)
C14_3 C 0.2854(3) 0.4506(2) 0.7823(4)
H6_3 H 0.3101 0.4342 0.7544
C15_3 C 0.2829(4) 0.5025(3) 0.7814(5)
H7_3 H 0.3049 0.5200 0.7506
C16_3 C 0.1757(3) 0.7430(3) 0.5662(5)
C17_3 C 0.1184(3) 0.7385(3) 0.5328(5)
C18_3 C 0.0884(4) 0.7824(3) 0.5391(5)
H8_3 H 0.1027 0.8124 0.5571
C19_3 C 0.0372(3) 0.7813(3) 0.5184(5)
H9_3 H 0.0172 0.8106 0.5227
C20_3 C 0.0159(2) 0.7363(4) 0.4915(5)
C21_3 C 0.0459(3) 0.6925(3) 0.4852(5)
H10_3 H 0.0316 0.6624 0.4672
C22_3 C 0.0971(3) 0.6935(3) 0.5058(4)
H11_3 H 0.1172 0.6642 0.5016
O1_3 O 0.2280(2) 0.74339(17) 0.9537(3)
O4_3 O 0.2294(3) 0.8597(3) 0.9844(4)
O11_3 O 0.26103(19) 0.74217(19) 0.6926(2)
O12_3 O 0.27271(19) 0.67031(15) 0.6352(2)
O17_3 O 0.1937(3) 0.7823(2) 0.5844(4)
O18_3 O 0.1920(2) 0.7027(2) 0.5426(4)
H31_3 H 0.201796 0.863642 0.948033
C23_3 C 0.7940(2) 0.7383(3) 0.2024(3)
C24_3 C 0.8200(2) 0.7446(3) 0.1343(3)
C25_3 C 0.8729(2) 0.7437(3) 0.1332(3)
H12_3 H 0.8905 0.7377 0.1760
C29_3 C 0.9857(3) 0.7837(4) 0.0267(5)
C30_3 C 0.9582(2) 0.7498(3) 0.0699(4)
C31_3 C 0.9856(3) 0.7167(3) 0.1133(5)
H15_3 H 0.9682 0.6952 0.1449
C34_3 C 0.8217(2) 0.7663(3) 0.0070(4)
C35_3 C 0.8744(3) 0.7626(3) 0.0097(4)
C36_3 C 0.9010(3) 0.7514(3) 0.0707(4)
C37_3 C 0.7956(2) 0.7564(2) 0.0712(3)
H18_3 H 0.7600 0.7579 0.0711
H14_3 H 0.9681 0.8057 0.9961
C33_3 C 0.7933(2) 0.7745(2) 0.9405(4)
H17_3 H 0.8929 0.7680 0.9675
C45_3 C 0.8840(3) 0.6907(2) 0.4350(6)
H23_3 H 0.8658 0.6600 0.4352
C46_3 C 0.9331(4) 0.6927(4) 0.4638(6)
H24_3 H 0.9478 0.6633 0.4834
C47_3 C 0.9603(2) 0.7385(4) 0.4634(5)
C48_3 C 0.9384(3) 0.7824(3) 0.4342(6)
H25_3 H 0.9566 0.8131 0.4340
C49_3 C 0.8892(3) 0.7805(2) 0.4054(5)
H26_3 H 0.8745 0.8098 0.3858
C23_4 C 0.2060(2) 0.2617(3) 0.7024(3)
C24_4 C 0.1800(2) 0.2554(3) 0.6343(3)
C25_4 C 0.1271(2) 0.2563(3) 0.6332(3)
H12_4 H 0.1095 0.2623 0.6760
C29_4 C 0.0143(3) 0.2163(4) 0.5267(5)
H14_4 H 0.0319 0.1943 0.4961
C30_4 C 0.0418(2) 0.2502(3) 0.5699(4)
C31_4 C 0.0144(3) 0.2833(3) 0.6133(5)
H15_4 H 0.0318 0.3048 0.6449
C33_4 C 0.2067(2) 0.2255(2) 0.4405(4)
C34_4 C 0.1783(2) 0.2337(3) 0.5070(4)
C35_4 C 0.1256(3) 0.2374(3) 0.5097(4)
H17_4 H 0.1071 0.2320 0.4675
C36_4 C 0.0990(3) 0.2486(3) 0.5707(4)
C37_4 C 0.2044(2) 0.2436(2) 0.5712(3)
H18_4 H 0.2400 0.2421 0.5711
C45_4 C 0.1160(3) 0.3093(2) 0.9350(6)
H23_4 H 0.1342 0.3400 0.9352
C46_4 C 0.0669(4) 0.3073(4) 0.9638(6)
H24_4 H 0.0522 0.3367 0.9834
C47_4 C 0.0397(2) 0.2615(4) 0.9634(5)
C48_4 C 0.0616(3) 0.2176(3) 0.9342(6)
H25_4 H 0.0434 0.1869 0.9340
C49_4 C 0.1108(3) 0.2195(2) 0.9054(5)
H26_4 H 0.1255 0.1902 0.8858
C1_4 C 0.7458(2) 0.6341(2) 0.3226(4)
C2_4 C 0.7376(3) 0.3067(3) 0.1915(4)
C3_4 C 0.7455(3) 0.3310(2) 0.2609(3)
C4_4 C 0.7550(3) 0.3064(2) 0.3209(4)
H1_4 H 0.7542 0.2708 0.3210
C5_4 C 0.7664(3) 0.3330(2) 0.3859(3)
C6_4 C 0.7632(3) 0.3853(2) 0.3844(4)
H2_4 H 0.7686 0.4035 0.4267
C7_4 C 0.7520(3) 0.4123(2) 0.3216(4)
C8_4 C 0.7431(2) 0.3844(2) 0.2582(4)
H3_4 H 0.7359 0.4012 0.2153
C9_4 C 0.7723(2) 0.3010(3) 0.4538(3)
C10_4 C 0.7493(3) 0.4697(2) 0.3222(4)
C11_4 C 0.7848(3) 0.4970(2) 0.3639(4)
H4_4 H 0.8103 0.4797 0.3892
C12_4 C 0.7815(3) 0.5496(3) 0.3667(4)
H5_4 H 0.8026 0.5672 0.3985
C13_4 C 0.7468(3) 0.5781(3) 0.3226(4)
C14_4 C 0.7146(3) 0.5494(2) 0.2823(4)
H6_4 H 0.6899 0.5658 0.2544
C15_4 C 0.7171(4) 0.4975(3) 0.2814(5)
H7_4 H 0.6951 0.4800 0.2506
C16_4 C 0.8243(3) 0.2570(3) 0.0662(5)
C17_4 C 0.8816(3) 0.2615(3) 0.0328(5)
C18_4 C 0.9116(4) 0.2176(3) 0.0391(5)
H8_4 H 0.8973 0.1876 0.0571
C19_4 C 0.9628(3) 0.2187(3) 0.0184(5)
H9_4 H 0.9828 0.1894 0.0227
C22_4 C 0.9029(3) 0.3065(3) 0.0058(4)
H11_4 H 0.8828 0.3358 0.0016
C26_4 C 0.8792(3) 0.2529(3) 0.5701(4)
C27_4 C 0.9336(3) 0.2529(3) 0.5694(4)
C28_4 C 0.9589(3) 0.2148(4) 0.5282(5)
H13_4 H 0.9406 0.1898 0.5032
C32_4 C 0.9621(3) 0.2846(3) 0.6105(5)
H16_4 H 0.9452 0.3089 0.6384
C38_4 C 0.6884(4) 0.2746(4) 0.5937(6)
C39_4 C 0.6290(2) 0.2661(4) 0.6014(5)
C40_4 C 0.5995(3) 0.2219(3) 0.5953(5)
H19_4 H 0.6130 0.1930 0.5729
C41_4 C 0.5499(3) 0.2209(3) 0.6226(5)
H20_4 H 0.5302 0.1913 0.6185
C42_4 C 0.5298(2) 0.2641(3) 0.6561(4)
C43_4 C 0.5593(3) 0.3083(3) 0.6622(5)
H21_4 H 0.5459 0.3373 0.6846
C44_4 C 0.6089(3) 0.3093(3) 0.6348(5)
H22_4 H 0.6287 0.3389 0.6389
C50_4 C 0.40259(19) 0.31631(16) 0.7270(3)
H27_4 H 0.3895 0.3475 0.7430
C51_4 C 0.45125(17) 0.31416(19) 0.6966(3)
H28_4 H 0.4707 0.3439 0.6923
C52_4 C 0.4708(2) 0.2676(2) 0.6727(4)
C53_4 C 0.4417(3) 0.2232(2) 0.6791(6)
H29_4 H 0.4548 0.1920 0.6631
C54_4 C 0.3930(3) 0.22531(17) 0.7095(5)
H30_4 H 0.3735 0.1956 0.7139
O1_4 O 0.7720(2) 0.25661(17) 0.4537(3)
O3_4 O 0.78292(19) 0.32776(15) 0.5084(2)
O4_4 O 0.7706(3) 0.1403(3) 0.4844(4)
O7_4 O 0.7810(3) 0.3724(3) 0.6630(4)
O9_4 O 0.85447(19) 0.2216(2) 0.5321(4)
O10_4 O 0.85373(17) 0.2855(2) 0.6057(3)
O11_4 O 0.73897(19) 0.25783(19) 0.1926(2)
O12_4 O 0.72729(19) 0.32969(15) 0.1352(2)
O13_4 O 0.7033(2) 0.2176(3) 0.5529(3)
O14_4 O 0.7083(2) 0.3047(2) 0.5994(5)
O17_4 O 0.8063(3) 0.2177(2) 0.0844(4)
O18_4 O 0.8080(2) 0.2973(2) 0.0426(4)
H31_4 H 0.798204 0.136358 0.448033
H32_4 H 0.773141 0.112218 0.520291
H33_4 H 0.750339 0.39262 0.648853
H34_4 H 0.780103 0.365848 0.715574
C20_4 C 0.9841(2) 0.2637(4) 0.9915(5)
C21_4 C 0.9541(3) 0.3075(3) 0.9852(5)
H10_4 H 0.9684 0.3376 0.9672
loop_
_geom_bond_atom_site_label_1
_geom_bond_atom_site_label_2
_geom_bond_site_symmetry_1
_geom_bond_site_symmetry_2
Cu12 O5 1_555 1_555
C23 C24 1_555 1_555
C24 C25 1_555 1_555
C25 H12 1_555 1_555
H14 C29 1_555 1_555
C30 C29 1_555 1_555
C31 C30 1_555 1_555
H15 C31 1_555 1_555
C33 C34 1_555 1_555
C34 C35 1_555 1_555
C35 H17 1_555 1_555
C36 C25 1_555 1_555
C37 C24 1_555 1_555
H18 C37 1_555 1_555
N1 C45 1_555 1_555
C45 H23 1_555 1_555
C46 C45 1_555 1_555
H24 C46 1_555 1_555
C48 C47 1_555 1_555
H25 C48 1_555 1_555
C49 N1 1_555 1_555
H26 C49 1_555 1_555
O2 C23 1_555 1_555
O6 C33 1_555 1_555
O8 C33 1_555 1_555
Cu5 O6 1_555 1_555
Cu9 O8 1_555 1_555
Cu12 N1 1_555 1_555
C30 C36 1_555 1_555
C34 C37 1_555 1_555
C35 C36 1_555 1_555
C46 C47 1_555 1_555
C48 C49 1_555 1_555
C1 C13 1_555 1_555
C2 C3 1_555 1_555
C3 C4 1_555 1_555
C4 H1 1_555 1_555
C5 C4 1_555 1_555
C6 C5 1_555 1_555
H2 C6 1_555 1_555
C7 C6 1_555 1_555
C8 C3 1_555 1_555
H3 C8 1_555 1_555
C9 C5 1_555 1_555
C10 C7 1_555 1_555
C11 C10 1_555 1_555
H4 C11 1_555 1_555
C12 C11 1_555 1_555
H5 C12 1_555 1_555
C13 C12 1_555 1_555
C14 C13 1_555 1_555
H6 C14 1_555 1_555
C15 C10 1_555 1_555
H7 C15 1_555 1_555
C16 C17 1_555 1_555
C17 C18 1_555 1_555
C18 H8 1_555 1_555
C19 C18 1_555 1_555
H9 C19 1_555 1_555
C20 C19 1_555 1_555
C21 C20 1_555 1_555
H10 C21 1_555 1_555
C22 C17 1_555 1_555
H11 C22 1_555 1_555
C26 C27 1_555 1_555
C27 C28 1_555 1_555
C28 H13 1_555 1_555
C32 C27 1_555 1_555
H16 C32 1_555 1_555
C38 C39 1_555 1_555
C39 C40 1_555 1_555
C40 H19 1_555 1_555
C41 C40 1_555 1_555
H20 C41 1_555 1_555
C42 C41 1_555 1_555
C43 C42 1_555 1_555
H21 C43 1_555 1_555
C44 C39 1_555 1_555
H22 C44 1_555 1_555
N2 C50 1_555 1_555
C50 H27 1_555 1_555
C51 C50 1_555 1_555
H28 C51 1_555 1_555
C52 C42 1_555 1_555
C53 C52 1_555 1_555
H29 C53 1_555 1_555
C54 N2 1_555 1_555
H30 C54 1_555 1_555
O1 C9 1_555 1_555
O3 C9 1_555 1_555
O4 Cu1 1_555 1_555
O7 Cu3 1_555 1_555
O9 C26 1_555 1_555
O10 C26 1_555 1_555
O11 C2 1_555 1_555
O12 C2 1_555 1_555
O13 C38 1_555 1_555
O14 C38 1_555 1_555
O15 C1 1_555 1_555
O16 C1 1_555 1_555
O17 C16 1_555 1_555
O18 C16 1_555 1_555
Cu1 O1 1_555 1_555
Cu2 O12 1_555 1_555
Cu3 O3 1_555 1_555
Cu4 O11 1_555 1_555
N3 Cu4 1_555 1_555
N4 Cu2 1_555 1_555
O19 Cu2 1_555 1_555
O20 Cu4 1_555 1_555
O21 Cu1 1_555 1_555
O22 Cu3 1_555 1_555
O23 Cu2 1_555 1_555
O24 Cu4 1_555 1_555
Cu6 O15 1_555 1_555
Cu10 O16 1_555 1_555
C7 C8 1_555 1_555
C14 C15 1_555 1_555
C21 C22 1_555 1_555
C43 C44 1_555 1_555
C51 C52 1_555 1_555
C53 C54 1_555 1_555
O9 Cu1 1_555 1_555
O10 Cu3 1_555 1_555
O13 Cu1 1_555 1_555
O14 Cu3 1_555 1_555
O17 Cu4 1_555 1_555
O18 Cu2 1_555 1_555
O4 H31 1_555 1_555
O4 H32 1_555 1_555
O7 H33 1_555 1_555
O7 H34 1_555 1_555
C1_2 C13_2 1_555 1_555
C3_2 C4_2 1_555 1_555
C4_2 H1_2 1_555 1_555
C5_2 C4_2 1_555 1_555
C6_2 C5_2 1_555 1_555
H2_2 C6_2 1_555 1_555
C7_2 C6_2 1_555 1_555
C8_2 C3_2 1_555 1_555
C9_2 C5_2 1_555 1_555
C10_2 C7_2 1_555 1_555
C11_2 C10_2 1_555 1_555
H4_2 C11_2 1_555 1_555
C12_2 C11_2 1_555 1_555
H5_2 C12_2 1_555 1_555
C13_2 C12_2 1_555 1_555
C14_2 C13_2 1_555 1_555
H6_2 C14_2 1_555 1_555
C15_2 C10_2 1_555 1_555
H7_2 C15_2 1_555 1_555
C26_2 C27_2 1_555 1_555
C27_2 C28_2 1_555 1_555
C28_2 H13_2 1_555 1_555
C32_2 C27_2 1_555 1_555
H16_2 C32_2 1_555 1_555
C38_2 C39_2 1_555 1_555
C39_2 C40_2 1_555 1_555
C40_2 H19_2 1_555 1_555
C41_2 C40_2 1_555 1_555
H20_2 C41_2 1_555 1_555
C42_2 C41_2 1_555 1_555
C43_2 C42_2 1_555 1_555
H21_2 C43_2 1_555 1_555
C44_2 C39_2 1_555 1_555
H22_2 C44_2 1_555 1_555
N2_2 C50_2 1_555 1_555
C50_2 H27_2 1_555 1_555
C51_2 C50_2 1_555 1_555
H28_2 C51_2 1_555 1_555
C52_2 C42_2 1_555 1_555
C53_2 C52_2 1_555 1_555
H29_2 C53_2 1_555 1_555
C54_2 N2_2 1_555 1_555
H30_2 C54_2 1_555 1_555
O1_2 C9_2 1_555 1_555
O3_2 C9_2 1_555 1_555
O4_2 Cu1_2 1_555 1_555
O7_2 Cu3_2 1_555 1_555
O9_2 C26_2 1_555 1_555
O10_2 C26_2 1_555 1_555
O13_2 C38_2 1_555 1_555
O14_2 C38_2 1_555 1_555
O15_2 C1_2 1_555 1_555
O16_2 C1_2 1_555 1_555
Cu1_2 O1_2 1_555 1_555
Cu3_2 O3_2 1_555 1_555
O21_2 Cu1_2 1_555 1_555
O22_2 Cu3_2 1_555 1_555
Cu8 O15_2 1_555 1_555
Cu6 N2_2 1_555 1_555
Cu12 O16_2 1_555 1_555
C7_2 C8_2 1_555 1_555
C14_2 C15_2 1_555 1_555
C43_2 C44_2 1_555 1_555
C51_2 C52_2 1_555 1_555
C53_2 C54_2 1_555 1_555
O9_2 Cu1_2 1_555 1_555
O10_2 Cu3_2 1_555 1_555
O13_2 Cu1_2 1_555 1_555
O14_2 Cu3_2 1_555 1_555
O4_2 H31_2 1_555 1_555
O4_2 H32_2 1_555 1_555
O7_2 H33_2 1_555 1_555
O7_2 H34_2 1_555 1_555
C16_2 C17_2 1_555 1_555
C17_2 C18_2 1_555 1_555
C18_2 H8_2 1_555 1_555
C19_2 C18_2 1_555 1_555
H9_2 C19_2 1_555 1_555
C20_2 C19_2 1_555 1_555
C21_2 C20_2 1_555 1_555
H10_2 C21_2 1_555 1_555
C22_2 C17_2 1_555 1_555
H11_2 C22_2 1_555 1_555
O11_2 C2_2 1_555 1_555
O12_2 C2_2 1_555 1_555
O17_2 C16_2 1_555 1_555
O18_2 C16_2 1_555 1_555
Cu2_2 O12_2 1_555 1_555
Cu4_2 O11_2 1_555 1_555
N3_2 Cu4_2 1_555 1_555
N4_2 Cu2_2 1_555 1_555
O19_2 Cu2_2 1_555 1_555
O20_2 Cu4_2 1_555 1_555
O23_2 Cu2_2 1_555 1_555
O24_2 Cu4_2 1_555 1_555
C21_2 C22_2 1_555 1_555
O17_2 Cu4_2 1_555 1_555
O18_2 Cu2_2 1_555 1_555
C23_2 C24_2 1_555 1_555
C24_2 C25_2 1_555 1_555
C25_2 H12_2 1_555 1_555
H14_2 C29_2 1_555 1_555
C30_2 C29_2 1_555 1_555
C31_2 C30_2 1_555 1_555
H15_2 C31_2 1_555 1_555
C33_2 C34_2 1_555 1_555
C34_2 C35_2 1_555 1_555
C35_2 H17_2 1_555 1_555
C36_2 C25_2 1_555 1_555
C37_2 C24_2 1_555 1_555
H18_2 C37_2 1_555 1_555
O2_2 C23_2 1_555 1_555
O5_2 C23_2 1_555 1_555
O6_2 C33_2 1_555 1_555
O8_2 C33_2 1_555 1_555
Cu5_2 O6_2 1_555 1_555
Cu6 O2_2 1_555 1_555
Cu9_2 O8_2 1_555 1_555
Cu10 O5_2 1_555 1_555
C30_2 C36_2 1_555 1_555
C34_2 C37_2 1_555 1_555
C35_2 C36_2 1_555 1_555
N1_2 C45_2 1_555 1_555
C45_2 H23_2 1_555 1_555
C46_2 C45_2 1_555 1_555
H24_2 C46_2 1_555 1_555
C48_2 C47_2 1_555 1_555
H25_2 C48_2 1_555 1_555
C49_2 N1_2 1_555 1_555
H26_2 C49_2 1_555 1_555
Cu10 N1_2 1_555 1_555
C46_2 C47_2 1_555 1_555
C48_2 C49_2 1_555 1_555
C26_3 C27_3 1_555 1_555
C27_3 C28_3 1_555 1_555
C28_3 H13_3 1_555 1_555
C32_3 C27_3 1_555 1_555
H16_3 C32_3 1_555 1_555
C38_3 C39_3 1_555 1_555
C39_3 C40_3 1_555 1_555
C40_3 H19_3 1_555 1_555
C41_3 C40_3 1_555 1_555
H20_3 C41_3 1_555 1_555
C42_3 C41_3 1_555 1_555
C43_3 C42_3 1_555 1_555
H21_3 C43_3 1_555 1_555
C44_3 C39_3 1_555 1_555
H22_3 C44_3 1_555 1_555
N4 C50_3 1_555 1_555
C50_3 H27_3 1_555 1_555
C51_3 C50_3 1_555 1_555
H28_3 C51_3 1_555 1_555
C52_3 C42_3 1_555 1_555
C53_3 C52_3 1_555 1_555
H29_3 C53_3 1_555 1_555
C54_3 N4 1_555 1_555
H30_3 C54_3 1_555 1_555
O7_3 Cu9_2 1_555 1_555
O9_3 C26_3 1_555 1_555
O10_3 C26_3 1_555 1_555
O13_3 C38_3 1_555 1_555
O14_3 C38_3 1_555 1_555
Cu9_2 O3_3 1_555 1_555
C43_3 C44_3 1_555 1_555
C51_3 C52_3 1_555 1_555
C53_3 C54_3 1_555 1_555
O9_3 Cu5_2 1_555 1_555
O10_3 Cu9_2 1_555 1_555
O13_3 Cu5_2 1_555 1_555
O14_3 Cu9_2 1_555 1_555
O7_3 H33_3 1_555 1_555
O7_3 H34_3 1_555 1_555
C1_3 C13_3 1_555 1_555
C2_3 C3_3 1_555 1_555
C3_3 C4_3 1_555 1_555
C4_3 H1_3 1_555 1_555
C5_3 C4_3 1_555 1_555
C6_3 C5_3 1_555 1_555
H2_3 C6_3 1_555 1_555
C7_3 C6_3 1_555 1_555
C8_3 C3_3 1_555 1_555
H3_3 C8_3 1_555 1_555
C9_3 C5_3 1_555 1_555
C10_3 C7_3 1_555 1_555
C11_3 C10_3 1_555 1_555
H4_3 C11_3 1_555 1_555
C12_3 C11_3 1_555 1_555
H5_3 C12_3 1_555 1_555
C13_3 C12_3 1_555 1_555
C14_3 C13_3 1_555 1_555
H6_3 C14_3 1_555 1_555
C15_3 C10_3 1_555 1_555
H7_3 C15_3 1_555 1_555
C16_3 C17_3 1_555 1_555
C17_3 C18_3 1_555 1_555
C18_3 H8_3 1_555 1_555
C19_3 C18_3 1_555 1_555
H9_3 C19_3 1_555 1_555
C20_3 C19_3 1_555 1_555
C21_3 C20_3 1_555 1_555
H10_3 C21_3 1_555 1_555
C22_3 C17_3 1_555 1_555
H11_3 C22_3 1_555 1_555
O1_3 C9_3 1_555 1_555
O11_3 C2_3 1_555 1_555
O12_3 C2_3 1_555 1_555
O23_2 C1_3 1_555 1_555
O24_2 C1_3 1_555 1_555
O17_3 C16_3 1_555 1_555
O18_3 C16_3 1_555 1_555
Cu6 O12_3 1_555 1_555
Cu10 O11_3 1_555 1_555
C7_3 C8_3 1_555 1_555
C14_3 C15_3 1_555 1_555
C21_3 C22_3 1_555 1_555
O17_3 Cu10 1_555 1_555
O18_3 Cu6 1_555 1_555
O4_3 H31_3 1_555 1_555
C23_3 C24_3 1_555 1_555
C24_3 C25_3 1_555 1_555
C25_3 H12_3 1_555 1_555
C30_3 C29_3 1_555 1_555
C31_3 C30_3 1_555 1_555
H15_3 C31_3 1_555 1_555
C34_3 C35_3 1_555 1_555
C36_3 C25_3 1_555 1_555
C37_3 C24_3 1_555 1_555
H18_3 C37_3 1_555 1_555
O19 C23_3 1_555 1_555
O20 C23_3 1_555 1_555
C30_3 C36_3 1_555 1_555
C34_3 C37_3 1_555 1_555
C35_3 C36_3 1_555 1_555
N3 C45_3 1_555 1_555
C45_3 H23_3 1_555 1_555
C46_3 C45_3 1_555 1_555
H24_3 C46_3 1_555 1_555
C48_3 C47_3 1_555 1_555
H25_3 C48_3 1_555 1_555
C49_3 N3 1_555 1_555
H26_3 C49_3 1_555 1_555
O21 C33_3 1_555 1_555
O22 C33_3 1_555 1_555
C46_3 C47_3 1_555 1_555
C48_3 C49_3 1_555 1_555
C23_4 C24_4 1_555 1_555
C24_4 C25_4 1_555 1_555
C25_4 H12_4 1_555 1_555
H14_4 C29_4 1_555 1_555
C30_4 C29_4 1_555 1_555
C31_4 C30_4 1_555 1_555
H15_4 C31_4 1_555 1_555
C33_4 C34_4 1_555 1_555
C34_4 C35_4 1_555 1_555
C35_4 H17_4 1_555 1_555
C36_4 C25_4 1_555 1_555
C37_4 C24_4 1_555 1_555
H18_4 C37_4 1_555 1_555
O19_2 C23_4 1_555 1_555
O20_2 C23_4 1_555 1_555
O21_2 C33_4 1_555 1_555
O22_2 C33_4 1_555 1_555
C30_4 C36_4 1_555 1_555
C34_4 C37_4 1_555 1_555
C35_4 C36_4 1_555 1_555
N3_2 C45_4 1_555 1_555
C45_4 H23_4 1_555 1_555
C46_4 C45_4 1_555 1_555
H24_4 C46_4 1_555 1_555
C48_4 C47_4 1_555 1_555
H25_4 C48_4 1_555 1_555
C49_4 N3_2 1_555 1_555
H26_4 C49_4 1_555 1_555
C46_4 C47_4 1_555 1_555
C48_4 C49_4 1_555 1_555
C1_4 C13_4 1_555 1_555
C2_4 C3_4 1_555 1_555
C3_4 C4_4 1_555 1_555
C4_4 H1_4 1_555 1_555
C5_4 C4_4 1_555 1_555
C6_4 C5_4 1_555 1_555
H2_4 C6_4 1_555 1_555
C7_4 C6_4 1_555 1_555
C8_4 C3_4 1_555 1_555
H3_4 C8_4 1_555 1_555
C9_4 C5_4 1_555 1_555
C10_4 C7_4 1_555 1_555
C11_4 C10_4 1_555 1_555
H4_4 C11_4 1_555 1_555
C12_4 C11_4 1_555 1_555
H5_4 C12_4 1_555 1_555
C13_4 C12_4 1_555 1_555
C14_4 C13_4 1_555 1_555
H6_4 C14_4 1_555 1_555
C15_4 C10_4 1_555 1_555
H7_4 C15_4 1_555 1_555
C16_4 C17_4 1_555 1_555
C17_4 C18_4 1_555 1_555
C18_4 H8_4 1_555 1_555
C19_4 C18_4 1_555 1_555
H9_4 C19_4 1_555 1_555
C22_4 C17_4 1_555 1_555
H11_4 C22_4 1_555 1_555
C26_4 C27_4 1_555 1_555
C27_4 C28_4 1_555 1_555
C28_4 H13_4 1_555 1_555
C32_4 C27_4 1_555 1_555
H16_4 C32_4 1_555 1_555
C38_4 C39_4 1_555 1_555
C39_4 C40_4 1_555 1_555
C40_4 H19_4 1_555 1_555
C41_4 C40_4 1_555 1_555
H20_4 C41_4 1_555 1_555
C42_4 C41_4 1_555 1_555
C43_4 C42_4 1_555 1_555
H21_4 C43_4 1_555 1_555
C44_4 C39_4 1_555 1_555
H22_4 C44_4 1_555 1_555
N4_2 C50_4 1_555 1_555
C50_4 H27_4 1_555 1_555
C51_4 C50_4 1_555 1_555
H28_4 C51_4 1_555 1_555
C52_4 C42_4 1_555 1_555
C53_4 C52_4 1_555 1_555
H29_4 C53_4 1_555 1_555
C54_4 N4_2 1_555 1_555
H30_4 C54_4 1_555 1_555
O1_4 C9_4 1_555 1_555
O3_4 C9_4 1_555 1_555
O4_4 Cu5 1_555 1_555
O7_4 Cu9 1_555 1_555
O9_4 C26_4 1_555 1_555
O10_4 C26_4 1_555 1_555
O11_4 C2_4 1_555 1_555
O12_4 C2_4 1_555 1_555
O13_4 C38_4 1_555 1_555
O14_4 C38_4 1_555 1_555
O23 C1_4 1_555 1_555
O24 C1_4 1_555 1_555
O17_4 C16_4 1_555 1_555
O18_4 C16_4 1_555 1_555
Cu5 O1_4 1_555 1_555
Cu8 O12_4 1_555 1_555
Cu9 O3_4 1_555 1_555
Cu12 O11_4 1_555 1_555
C7_4 C8_4 1_555 1_555
C14_4 C15_4 1_555 1_555
C43_4 C44_4 1_555 1_555
C51_4 C52_4 1_555 1_555
C53_4 C54_4 1_555 1_555
O9_4 Cu5 1_555 1_555
O10_4 Cu9 1_555 1_555
O13_4 Cu5 1_555 1_555
O14_4 Cu9 1_555 1_555
O17_4 Cu12 1_555 1_555
O18_4 Cu8 1_555 1_555
O4_4 H31_4 1_555 1_555
O4_4 H32_4 1_555 1_555
O7_4 H33_4 1_555 1_555
O7_4 H34_4 1_555 1_555
C21_4 C20_4 1_555 1_555
H10_4 C21_4 1_555 1_555

#END
