
###############################################################################
#
# This file contains modified crystal structure data generated from the
# MOF subset of the Cambridge Structural Database (CSD) v543 
# hosted by the Cambridge Crystallographic Data Centre (CCDC).
#
# This work is licensed under the Creative Commons
# Attribution-NonCommercial-ShareAlike 4.0 International License.
# To view a copy of this license, visit
# http://creativecommons.org/licenses/by-nc-sa/4.0/
# or send a letter to
# Creative Commons, PO Box 1866, Mountain View, CA 94042, USA.
#
# CIF created using the CSD Python API on 29 September 2022
# The structure has been converted into the P1 space group
# The structure has a 3D framework
# The original CSD entry ZIMZUT is in the orthorhombic crystal system
# The framework has been calculated to contain at least 10.0% void space
# The void calculation uses a probe of radius 1.32A, grid spacing 0.4
# The framework is charged, counterions have been retained in the structure
#
###############################################################################

data_ZIMZUT
_chemical_formula_moiety         '(C256 H96 In16 N32 O124 8-)n'
_symmetry_cell_setting           triclinic
_symmetry_space_group_name_H-M   'P 1'
_symmetry_Int_Tables_number      1
_space_group_name_Hall           'P 1'
loop_
_symmetry_equiv_pos_site_id
_symmetry_equiv_pos_as_xyz
1 x,y,z
_cell_length_a                   17.161(3)
_cell_length_b                   27.505(6)
_cell_length_c                   29.961(6)
_cell_angle_alpha                90
_cell_angle_beta                 90
_cell_angle_gamma                90
_cell_volume                     14142
loop_
_atom_site_label
_atom_site_type_symbol
_atom_site_fract_x
_atom_site_fract_y
_atom_site_fract_z
In1 In 0.6250 0.306915(15) 0.1250
O1 O 0.6289(3) 0.24876(19) 0.07260(16)
O2 O 0.5157(3) 0.27473(15) 0.09079(13)
C4 C 0.4423(4) 0.2157(3) 0.0274(2)
H2 H 0.4105 0.2366 0.0436
C5 C 0.5201(4) 0.21379(19) 0.03508(16)
C6 C 0.5664(4) 0.1823(2) 0.0124(2)
H3 H 0.6195 0.1813 0.0185
C8 C 0.5568(4) 0.2474(2) 0.06845(16)
O5 O 0.6211(3) 0.00124(19) 0.07260(16)
C12 C 0.8077(4) 0.0343(3) 0.0274(2)
H5 H 0.8395 0.0134 0.0436
C13 C 0.7299(4) 0.03621(19) 0.03508(16)
C14 C 0.6836(4) 0.0677(2) 0.0124(2)
H6 H 0.6305 0.0687 0.0185
C16 C 0.6932(4) 0.0026(2) 0.06845(16)
O9 O 0.6211(3) 0.24876(19) 0.17740(16)
O10 O 0.7343(3) 0.27473(15) 0.15921(13)
O11 O 0.7140(3) 0.34270(14) 0.08561(13)
O12 O 0.5360(3) 0.34270(14) 0.16439(13)
O13 O 0.5995(4) 0.37020(19) 0.06887(18)
O14 O 0.6505(4) 0.37020(19) 0.18113(18)
O3 O 0.4640(3) 0.09270(14) 0.91439(13)
O4 O 0.3495(4) 0.12020(19) 0.93113(18)
N1 N 0.5798(5) 0.1200(3) 0.9566(3)
C1 C 0.5349(4) 0.1511(2) 0.9796(2)
C2 C 0.4562(4) 0.15250(19) 0.97117(16)
C3 C 0.4116(5) 0.1860(3) 0.9950(3)
H1 H 0.3587 0.1883 0.9886
C7 C 0.4205(5) 0.12038(19) 0.93753(19)
O7 O 0.7860(3) 0.15730(14) 0.91439(13)
O8 O 0.9005(4) 0.12980(19) 0.93113(18)
N2 N 0.6702(5) 0.1300(3) 0.9566(3)
C9 C 0.7151(4) 0.0989(2) 0.9796(2)
C10 C 0.7938(4) 0.09750(19) 0.97117(16)
C11 C 0.8384(5) 0.0640(3) 0.9950(3)
H4 H 0.8913 0.0617 0.9886
C15 C 0.8295(5) 0.12962(19) 0.93753(19)
In3 In 0.8750 0.193085(15) 0.8750
In4 In 0.3750 0.056915(15) 0.8750
O6 O 0.7343(3) 0.97527(15) 0.09079(13)
In2 In 0.6250 0.943085(15) 0.1250
In1_2 In 0.1250 0.443085(15) 0.1250
O1_2 O 0.1211(3) 0.50124(19) 0.07260(16)
O2_2 O 0.2343(3) 0.47527(15) 0.09079(13)
C4_2 C 0.3077(4) 0.5343(3) 0.0274(2)
H2_2 H 0.3395 0.5134 0.0436
C5_2 C 0.2299(4) 0.53621(19) 0.03508(16)
C6_2 C 0.1836(4) 0.5677(2) 0.0124(2)
H3_2 H 0.1305 0.5687 0.0185
C8_2 C 0.1932(4) 0.5026(2) 0.06845(16)
O5_2 O 0.1289(3) 0.74876(19) 0.07260(16)
O6_2 O 0.0157(3) 0.77473(15) 0.09079(13)
C13_2 C 0.0201(4) 0.71379(19) 0.03508(16)
C14_2 C 0.0664(4) 0.6823(2) 0.0124(2)
H6_2 H 0.1195 0.6813 0.0185
C16_2 C 0.0568(4) 0.7474(2) 0.06845(16)
In2_2 In 0.1250 0.806915(15) 0.1250
O9_2 O 0.1289(3) 0.50124(19) 0.17740(16)
O10_2 O 0.0157(3) 0.47527(15) 0.15921(13)
O11_2 O 0.0360(3) 0.40730(14) 0.08561(13)
O12_2 O 0.2140(3) 0.40730(14) 0.16439(13)
O13_2 O 0.1505(4) 0.37980(19) 0.06887(18)
O14_2 O 0.0995(4) 0.37980(19) 0.18113(18)
O3_2 O 0.2860(3) 0.65730(14) 0.91439(13)
O4_2 O 0.4005(4) 0.62980(19) 0.93113(18)
N1_2 N 0.1702(5) 0.6300(3) 0.9566(3)
C1_2 C 0.2151(4) 0.5989(2) 0.9796(2)
C2_2 C 0.2938(4) 0.59750(19) 0.97117(16)
C3_2 C 0.3384(5) 0.5640(3) 0.9950(3)
H1_2 H 0.3913 0.5617 0.9886
C7_2 C 0.3295(5) 0.62962(19) 0.93753(19)
N2_2 N 0.0798(5) 0.6200(3) 0.9566(3)
C9_2 C 0.0349(4) 0.6511(2) 0.9796(2)
In4_2 In 0.3750 0.693085(15) 0.8750
O7_2 O 0.9640(3) 0.59270(14) 0.91439(13)
O8_2 O 0.8495(4) 0.62020(19) 0.93113(18)
C10_2 C 0.9562(4) 0.65250(19) 0.97117(16)
C11_2 C 0.9116(5) 0.6860(3) 0.9950(3)
H4_2 H 0.8587 0.6883 0.9886
C15_2 C 0.9205(5) 0.62038(19) 0.93753(19)
In3_2 In 0.8750 0.556915(15) 0.8750
In1_3 In 0.1250 0.306915(15) 0.6250
O1_3 O 0.1211(3) 0.24876(19) 0.67740(16)
O2_3 O 0.2343(3) 0.27473(15) 0.65921(13)
O3_3 O 0.2860(3) 0.09270(14) 0.83561(13)
O4_3 O 0.4005(4) 0.12020(19) 0.81887(18)
N1_3 N 0.1702(5) 0.1200(3) 0.7934(3)
C1_3 C 0.2151(4) 0.1511(2) 0.7704(2)
C2_3 C 0.2938(4) 0.15250(19) 0.77883(16)
C3_3 C 0.3384(5) 0.1860(3) 0.7550(3)
H1_3 H 0.3913 0.1883 0.7614
C4_3 C 0.3077(4) 0.2157(3) 0.7226(2)
H2_3 H 0.3395 0.2366 0.7064
C5_3 C 0.2299(4) 0.21379(19) 0.71492(16)
C6_3 C 0.1836(4) 0.1823(2) 0.7376(2)
H3_3 H 0.1305 0.1813 0.7315
C7_3 C 0.3295(5) 0.12038(19) 0.81247(19)
C8_3 C 0.1932(4) 0.2474(2) 0.68155(16)
O5_3 O 0.1289(3) 0.00124(19) 0.67740(16)
N2_3 N 0.0798(5) 0.1300(3) 0.7934(3)
C9_3 C 0.0349(4) 0.0989(2) 0.7704(2)
C13_3 C 0.0201(4) 0.03621(19) 0.71492(16)
C14_3 C 0.0664(4) 0.0677(2) 0.7376(2)
H6_3 H 0.1195 0.0687 0.7315
C16_3 C 0.0568(4) 0.0026(2) 0.68155(16)
O9_3 O 0.1289(3) 0.24876(19) 0.57260(16)
O10_3 O 0.0157(3) 0.27473(15) 0.59079(13)
O11_3 O 0.0360(3) 0.34270(14) 0.66439(13)
O12_3 O 0.2140(3) 0.34270(14) 0.58561(13)
O13_3 O 0.1505(4) 0.37020(19) 0.68113(18)
O14_3 O 0.0995(4) 0.37020(19) 0.56887(18)
O6_3 O 0.0157(3) 0.97527(15) 0.65921(13)
In2_3 In 0.1250 0.943085(15) 0.6250
O7_3 O 0.9640(3) 0.15730(14) 0.83561(13)
O8_3 O 0.8495(4) 0.12980(19) 0.81887(18)
C10_3 C 0.9562(4) 0.09750(19) 0.77883(16)
C11_3 C 0.9116(5) 0.0640(3) 0.7550(3)
H4_3 H 0.8587 0.0617 0.7614
C12_2 C 0.9423(4) 0.0343(3) 0.7226(2)
H5_2 H 0.9105 0.0134 0.7064
C15_3 C 0.9205(5) 0.12962(19) 0.81247(19)
In1_4 In 0.6250 0.443085(15) 0.6250
O1_4 O 0.6289(3) 0.50124(19) 0.67740(16)
O2_4 O 0.5157(3) 0.47527(15) 0.65921(13)
O3_4 O 0.4640(3) 0.65730(14) 0.83561(13)
O4_4 O 0.3495(4) 0.62980(19) 0.81887(18)
N1_4 N 0.5798(5) 0.6300(3) 0.7934(3)
C1_4 C 0.5349(4) 0.5989(2) 0.7704(2)
C2_4 C 0.4562(4) 0.59750(19) 0.77883(16)
C3_4 C 0.4116(5) 0.5640(3) 0.7550(3)
H1_4 H 0.3587 0.5617 0.7614
C4_4 C 0.4423(4) 0.5343(3) 0.7226(2)
H2_4 H 0.4105 0.5134 0.7064
C5_4 C 0.5201(4) 0.53621(19) 0.71492(16)
C6_4 C 0.5664(4) 0.5677(2) 0.7376(2)
H3_4 H 0.6195 0.5687 0.7315
C7_4 C 0.4205(5) 0.62962(19) 0.81247(19)
C8_4 C 0.5568(4) 0.5026(2) 0.68155(16)
O5_4 O 0.6211(3) 0.74876(19) 0.67740(16)
O6_4 O 0.7343(3) 0.77473(15) 0.65921(13)
O7_4 O 0.7860(3) 0.59270(14) 0.83561(13)
O8_4 O 0.9005(4) 0.62020(19) 0.81887(18)
N2_4 N 0.6702(5) 0.6200(3) 0.7934(3)
C9_4 C 0.7151(4) 0.6511(2) 0.7704(2)
C10_4 C 0.7938(4) 0.65250(19) 0.77883(16)
C11_4 C 0.8384(5) 0.6860(3) 0.7550(3)
H4_4 H 0.8913 0.6883 0.7614
C12_3 C 0.8077(4) 0.7157(3) 0.7226(2)
H5_3 H 0.8395 0.7366 0.7064
C13_4 C 0.7299(4) 0.71379(19) 0.71492(16)
C14_4 C 0.6836(4) 0.6823(2) 0.7376(2)
H6_4 H 0.6305 0.6813 0.7315
C15_4 C 0.8295(5) 0.62038(19) 0.81247(19)
C16_4 C 0.6932(4) 0.7474(2) 0.68155(16)
In2_4 In 0.6250 0.806915(15) 0.6250
O9_4 O 0.6211(3) 0.50124(19) 0.57260(16)
O10_4 O 0.7343(3) 0.47527(15) 0.59079(13)
O11_4 O 0.7140(3) 0.40730(14) 0.66439(13)
O12_4 O 0.5360(3) 0.40730(14) 0.58561(13)
O13_4 O 0.5995(4) 0.37980(19) 0.68113(18)
O14_4 O 0.6505(4) 0.37980(19) 0.56887(18)
O1_5 O 0.6289(3) 0.74876(19) 0.57260(16)
O2_5 O 0.5157(3) 0.77473(15) 0.59079(13)
O3_5 O 0.4640(3) 0.59270(14) 0.41439(13)
O4_5 O 0.3495(4) 0.62020(19) 0.43113(18)
N1_5 N 0.5798(5) 0.6200(3) 0.4566(3)
C1_5 C 0.5349(4) 0.6511(2) 0.4796(2)
C2_5 C 0.4562(4) 0.65250(19) 0.47117(16)
C3_5 C 0.4116(5) 0.6860(3) 0.4950(3)
H1_5 H 0.3587 0.6883 0.4886
C4_5 C 0.4423(4) 0.7157(3) 0.5274(2)
H2_5 H 0.4105 0.7366 0.5436
C5_5 C 0.5201(4) 0.71379(19) 0.53508(16)
C6_5 C 0.5664(4) 0.6823(2) 0.5124(2)
H3_5 H 0.6195 0.6813 0.5185
C7_5 C 0.4205(5) 0.62038(19) 0.43753(19)
C8_5 C 0.5568(4) 0.7474(2) 0.56845(16)
O7_5 O 0.7860(3) 0.65730(14) 0.41439(13)
O8_5 O 0.9005(4) 0.62980(19) 0.43113(18)
N2_5 N 0.6702(5) 0.6300(3) 0.4566(3)
C9_5 C 0.7151(4) 0.5989(2) 0.4796(2)
C10_5 C 0.7938(4) 0.59750(19) 0.47117(16)
C11_5 C 0.8384(5) 0.5640(3) 0.4950(3)
H4_5 H 0.8913 0.5617 0.4886
C12_4 C 0.8077(4) 0.5343(3) 0.5274(2)
H5_4 H 0.8395 0.5134 0.5436
C13_5 C 0.7299(4) 0.53621(19) 0.53508(16)
C14_5 C 0.6836(4) 0.5677(2) 0.5124(2)
H6_5 H 0.6305 0.5687 0.5185
C15_5 C 0.8295(5) 0.62962(19) 0.43753(19)
C16_5 C 0.6932(4) 0.5026(2) 0.56845(16)
In3_3 In 0.8750 0.693085(15) 0.3750
In4_3 In 0.3750 0.556915(15) 0.3750
O11_5 O 0.7140(3) 0.84270(14) 0.58561(13)
O12_5 O 0.5360(3) 0.84270(14) 0.66439(13)
O13_5 O 0.5995(4) 0.87020(19) 0.56887(18)
O14_5 O 0.6505(4) 0.87020(19) 0.68113(18)
O1_6 O 0.1211(3) 0.00124(19) 0.57260(16)
O3_6 O 0.2860(3) 0.15730(14) 0.41439(13)
O4_6 O 0.4005(4) 0.12980(19) 0.43113(18)
N1_6 N 0.1702(5) 0.1300(3) 0.4566(3)
C1_6 C 0.2151(4) 0.0989(2) 0.4796(2)
C2_6 C 0.2938(4) 0.09750(19) 0.47117(16)
C3_6 C 0.3384(5) 0.0640(3) 0.4950(3)
H1_6 H 0.3913 0.0617 0.4886
C4_6 C 0.3077(4) 0.0343(3) 0.5274(2)
H2_6 H 0.3395 0.0134 0.5436
C5_6 C 0.2299(4) 0.03621(19) 0.53508(16)
C6_6 C 0.1836(4) 0.0677(2) 0.5124(2)
H3_6 H 0.1305 0.0687 0.5185
C7_6 C 0.3295(5) 0.12962(19) 0.43753(19)
C8_6 C 0.1932(4) 0.0026(2) 0.56845(16)
N2_6 N 0.0798(5) 0.1200(3) 0.4566(3)
C9_6 C 0.0349(4) 0.1511(2) 0.4796(2)
C13_6 C 0.0201(4) 0.21379(19) 0.53508(16)
C14_6 C 0.0664(4) 0.1823(2) 0.5124(2)
H6_6 H 0.1195 0.1813 0.5185
C16_6 C 0.0568(4) 0.2474(2) 0.56845(16)
In4_4 In 0.3750 0.193085(15) 0.3750
O2_6 O 0.2343(3) 0.97527(15) 0.59079(13)
O11_6 O 0.0360(3) 0.90730(14) 0.58561(13)
O12_6 O 0.2140(3) 0.90730(14) 0.66439(13)
O13_6 O 0.1505(4) 0.87980(19) 0.56887(18)
O14_6 O 0.0995(4) 0.87980(19) 0.68113(18)
O7_6 O 0.9640(3) 0.09270(14) 0.41439(13)
O8_6 O 0.8495(4) 0.12020(19) 0.43113(18)
C10_6 C 0.9562(4) 0.15250(19) 0.47117(16)
C11_6 C 0.9116(5) 0.1860(3) 0.4950(3)
H4_6 H 0.8587 0.1883 0.4886
C12_5 C 0.9423(4) 0.2157(3) 0.5274(2)
H5_5 H 0.9105 0.2366 0.5436
C15_6 C 0.9205(5) 0.12038(19) 0.43753(19)
In3_4 In 0.8750 0.056915(15) 0.3750
O1_7 O 0.1211(3) 0.74876(19) 0.17740(16)
O2_7 O 0.2343(3) 0.77473(15) 0.15921(13)
O3_7 O 0.2860(3) 0.59270(14) 0.33561(13)
O4_7 O 0.4005(4) 0.62020(19) 0.31887(18)
N1_7 N 0.1702(5) 0.6200(3) 0.2934(3)
C1_7 C 0.2151(4) 0.6511(2) 0.2704(2)
C2_7 C 0.2938(4) 0.65250(19) 0.27883(16)
C3_7 C 0.3384(5) 0.6860(3) 0.2550(3)
H1_7 H 0.3913 0.6883 0.2614
C4_7 C 0.3077(4) 0.7157(3) 0.2226(2)
H2_7 H 0.3395 0.7366 0.2064
C5_7 C 0.2299(4) 0.71379(19) 0.21492(16)
C6_7 C 0.1836(4) 0.6823(2) 0.2376(2)
H3_7 H 0.1305 0.6813 0.2315
C7_7 C 0.3295(5) 0.62038(19) 0.31247(19)
C8_7 C 0.1932(4) 0.7474(2) 0.18155(16)
N2_7 N 0.0798(5) 0.6300(3) 0.2934(3)
C9_7 C 0.0349(4) 0.5989(2) 0.2704(2)
C13_7 C 0.0201(4) 0.53621(19) 0.21492(16)
C14_7 C 0.0664(4) 0.5677(2) 0.2376(2)
H6_7 H 0.1195 0.5687 0.2315
C16_7 C 0.0568(4) 0.5026(2) 0.18155(16)
O11_7 O 0.0360(3) 0.84270(14) 0.16439(13)
O12_7 O 0.2140(3) 0.84270(14) 0.08561(13)
O13_7 O 0.1505(4) 0.87020(19) 0.18113(18)
O14_7 O 0.0995(4) 0.87020(19) 0.06887(18)
O7_7 O 0.9640(3) 0.65730(14) 0.33561(13)
O8_7 O 0.8495(4) 0.62980(19) 0.31887(18)
C10_7 C 0.9562(4) 0.59750(19) 0.27883(16)
C11_7 C 0.9116(5) 0.5640(3) 0.2550(3)
H4_7 H 0.8587 0.5617 0.2614
C12_6 C 0.9423(4) 0.5343(3) 0.2226(2)
H5_6 H 0.9105 0.5134 0.2064
C15_7 C 0.9205(5) 0.62962(19) 0.31247(19)
O1_8 O 0.6289(3) 0.00124(19) 0.17740(16)
O3_8 O 0.4640(3) 0.15730(14) 0.33561(13)
O4_8 O 0.3495(4) 0.12980(19) 0.31887(18)
N1_8 N 0.5798(5) 0.1300(3) 0.2934(3)
C1_8 C 0.5349(4) 0.0989(2) 0.2704(2)
C2_8 C 0.4562(4) 0.09750(19) 0.27883(16)
C3_8 C 0.4116(5) 0.0640(3) 0.2550(3)
H1_8 H 0.3587 0.0617 0.2614
C4_8 C 0.4423(4) 0.0343(3) 0.2226(2)
H2_8 H 0.4105 0.0134 0.2064
C5_8 C 0.5201(4) 0.03621(19) 0.21492(16)
C6_8 C 0.5664(4) 0.0677(2) 0.2376(2)
H3_8 H 0.6195 0.0687 0.2315
C7_8 C 0.4205(5) 0.12962(19) 0.31247(19)
C8_8 C 0.5568(4) 0.0026(2) 0.18155(16)
O7_8 O 0.7860(3) 0.09270(14) 0.33561(13)
O8_8 O 0.9005(4) 0.12020(19) 0.31887(18)
N2_8 N 0.6702(5) 0.1200(3) 0.2934(3)
C9_8 C 0.7151(4) 0.1511(2) 0.2704(2)
C10_8 C 0.7938(4) 0.15250(19) 0.27883(16)
C11_8 C 0.8384(5) 0.1860(3) 0.2550(3)
H4_8 H 0.8913 0.1883 0.2614
C12_7 C 0.8077(4) 0.2157(3) 0.2226(2)
H5_7 H 0.8395 0.2366 0.2064
C13_8 C 0.7299(4) 0.21379(19) 0.21492(16)
C14_8 C 0.6836(4) 0.1823(2) 0.2376(2)
H6_8 H 0.6305 0.1813 0.2315
C15_8 C 0.8295(5) 0.12038(19) 0.31247(19)
C16_8 C 0.6932(4) 0.2474(2) 0.18155(16)
O2_8 O 0.5157(3) 0.97527(15) 0.15921(13)
O11_8 O 0.7140(3) 0.90730(14) 0.16439(13)
O12_8 O 0.5360(3) 0.90730(14) 0.08561(13)
O13_8 O 0.5995(4) 0.87980(19) 0.18113(18)
O14_8 O 0.6505(4) 0.87980(19) 0.06887(18)
O6_5 O 0.2657(3) 0.02473(15) 0.90921(13)
N1_9 N 0.4202(5) 0.8800(3) 0.0434(3)
C1_9 C 0.4651(4) 0.8489(2) 0.0204(2)
C2_9 C 0.5438(4) 0.84750(19) 0.02883(16)
C3_9 C 0.5884(5) 0.8140(3) 0.0050(3)
H1_9 H 0.6413 0.8117 0.0114
C7_9 C 0.5795(5) 0.87962(19) 0.06247(19)
N2_9 N 0.3298(5) 0.8700(3) 0.0434(3)
C9_9 C 0.2849(4) 0.9011(2) 0.0204(2)
C10_9 C 0.2062(4) 0.90250(19) 0.02883(16)
C11_9 C 0.1616(5) 0.9360(3) 0.0050(3)
H4_9 H 0.1087 0.9383 0.0114
C15_9 C 0.1705(5) 0.87038(19) 0.06247(19)
O1_9 O 0.3711(3) 0.75124(19) 0.92740(16)
O2_9 O 0.4843(3) 0.72527(15) 0.90921(13)
C4_9 C 0.5577(4) 0.7843(3) 0.9726(2)
H2_9 H 0.5895 0.7634 0.9564
C5_9 C 0.4799(4) 0.78621(19) 0.96492(16)
C6_9 C 0.4336(4) 0.8177(2) 0.9876(2)
H3_9 H 0.3805 0.8187 0.9815
C8_9 C 0.4432(4) 0.7526(2) 0.93155(16)
O5_5 O 0.3789(3) 0.99876(19) 0.92740(16)
C12_8 C 0.1923(4) 0.9657(3) 0.9726(2)
H5_8 H 0.1605 0.9866 0.9564
C13_9 C 0.2701(4) 0.96379(19) 0.96492(16)
C14_9 C 0.3164(4) 0.9323(2) 0.9876(2)
H6_9 H 0.3695 0.9313 0.9815
C16_9 C 0.3068(4) 0.9974(2) 0.93155(16)
O9_5 O 0.3789(3) 0.75124(19) 0.82260(16)
O10_5 O 0.2657(3) 0.72527(15) 0.84079(13)
C10_10 C 0.0438(4) 0.34750(19) 0.02883(16)
C11_10 C 0.0884(5) 0.3140(3) 0.0050(3)
H4_10 H 0.1413 0.3117 0.0114
C15_10 C 0.0795(5) 0.37962(19) 0.06247(19)
N1_10 N 0.8298(5) 0.3700(3) 0.0434(3)
C1_10 C 0.7849(4) 0.4011(2) 0.0204(2)
C2_10 C 0.7062(4) 0.40250(19) 0.02883(16)
C3_10 C 0.6616(5) 0.4360(3) 0.0050(3)
H1_10 H 0.6087 0.4383 0.0114
C7_10 C 0.6705(5) 0.37038(19) 0.06247(19)
N2_10 N 0.9202(5) 0.3800(3) 0.0434(3)
C9_10 C 0.9651(4) 0.3489(2) 0.0204(2)
O1_10 O 0.8789(3) 0.49876(19) 0.92740(16)
O2_10 O 0.7657(3) 0.52473(15) 0.90921(13)
C4_10 C 0.6923(4) 0.4657(3) 0.9726(2)
H2_10 H 0.6605 0.4866 0.9564
C5_10 C 0.7701(4) 0.46379(19) 0.96492(16)
C6_10 C 0.8164(4) 0.4323(2) 0.9876(2)
H3_10 H 0.8695 0.4313 0.9815
C8_10 C 0.8068(4) 0.4974(2) 0.93155(16)
O5_6 O 0.8711(3) 0.25124(19) 0.92740(16)
O6_6 O 0.9843(3) 0.22527(15) 0.90921(13)
C13_10 C 0.9799(4) 0.28621(19) 0.96492(16)
C14_10 C 0.9336(4) 0.3177(2) 0.9876(2)
H6_10 H 0.8805 0.3187 0.9815
C16_10 C 0.9432(4) 0.2526(2) 0.93155(16)
O9_6 O 0.8711(3) 0.49876(19) 0.82260(16)
O10_6 O 0.9843(3) 0.52473(15) 0.84079(13)
C10_11 C 0.0438(4) 0.90250(19) 0.22117(16)
C11_11 C 0.0884(5) 0.9360(3) 0.2450(3)
H4_11 H 0.1413 0.9383 0.2386
C12_9 C 0.0577(4) 0.9657(3) 0.2774(2)
H5_9 H 0.0895 0.9866 0.2936
C15_11 C 0.0795(5) 0.87038(19) 0.18753(19)
O6_7 O 0.9843(3) 0.02473(15) 0.34079(13)
O1_11 O 0.8789(3) 0.75124(19) 0.32260(16)
O2_11 O 0.7657(3) 0.72527(15) 0.34079(13)
N1_11 N 0.8298(5) 0.8800(3) 0.2066(3)
C1_11 C 0.7849(4) 0.8489(2) 0.2296(2)
C2_11 C 0.7062(4) 0.84750(19) 0.22117(16)
C3_11 C 0.6616(5) 0.8140(3) 0.2450(3)
H1_11 H 0.6087 0.8117 0.2386
C4_11 C 0.6923(4) 0.7843(3) 0.2774(2)
H2_11 H 0.6605 0.7634 0.2936
C5_11 C 0.7701(4) 0.78621(19) 0.28508(16)
C6_11 C 0.8164(4) 0.8177(2) 0.2624(2)
H3_11 H 0.8695 0.8187 0.2685
C7_11 C 0.6705(5) 0.87962(19) 0.18753(19)
C8_11 C 0.8068(4) 0.7526(2) 0.31845(16)
O5_7 O 0.8711(3) 0.99876(19) 0.32260(16)
N2_11 N 0.9202(5) 0.8700(3) 0.2066(3)
C9_11 C 0.9651(4) 0.9011(2) 0.2296(2)
C13_11 C 0.9799(4) 0.96379(19) 0.28508(16)
C14_11 C 0.9336(4) 0.9323(2) 0.2624(2)
H6_11 H 0.8805 0.9313 0.2685
C16_11 C 0.9432(4) 0.9974(2) 0.31845(16)
O9_7 O 0.8711(3) 0.75124(19) 0.42740(16)
O10_7 O 0.9843(3) 0.72527(15) 0.40921(13)
O1_12 O 0.3711(3) 0.49876(19) 0.32260(16)
O2_12 O 0.4843(3) 0.52473(15) 0.34079(13)
N1_12 N 0.4202(5) 0.3700(3) 0.2066(3)
C1_12 C 0.4651(4) 0.4011(2) 0.2296(2)
C2_12 C 0.5438(4) 0.40250(19) 0.22117(16)
C3_12 C 0.5884(5) 0.4360(3) 0.2450(3)
H1_12 H 0.6413 0.4383 0.2386
C4_12 C 0.5577(4) 0.4657(3) 0.2774(2)
H2_12 H 0.5895 0.4866 0.2936
C5_12 C 0.4799(4) 0.46379(19) 0.28508(16)
C6_12 C 0.4336(4) 0.4323(2) 0.2624(2)
H3_12 H 0.3805 0.4313 0.2685
C7_12 C 0.5795(5) 0.37038(19) 0.18753(19)
C8_12 C 0.4432(4) 0.4974(2) 0.31845(16)
O5_8 O 0.3789(3) 0.25124(19) 0.32260(16)
O6_8 O 0.2657(3) 0.22527(15) 0.34079(13)
N2_12 N 0.3298(5) 0.3800(3) 0.2066(3)
C9_12 C 0.2849(4) 0.3489(2) 0.2296(2)
C10_12 C 0.2062(4) 0.34750(19) 0.22117(16)
C11_12 C 0.1616(5) 0.3140(3) 0.2450(3)
H4_12 H 0.1087 0.3117 0.2386
C12_10 C 0.1923(4) 0.2843(3) 0.2774(2)
H5_10 H 0.1605 0.2634 0.2936
C13_12 C 0.2701(4) 0.28621(19) 0.28508(16)
C14_12 C 0.3164(4) 0.3177(2) 0.2624(2)
H6_12 H 0.3695 0.3187 0.2685
C15_12 C 0.1705(5) 0.37962(19) 0.18753(19)
C16_12 C 0.3068(4) 0.2526(2) 0.31845(16)
O9_8 O 0.3789(3) 0.49876(19) 0.42740(16)
O10_8 O 0.2657(3) 0.52473(15) 0.40921(13)
O1_13 O 0.3711(3) 0.25124(19) 0.42740(16)
O2_13 O 0.4843(3) 0.22527(15) 0.40921(13)
N1_13 N 0.4202(5) 0.3800(3) 0.5434(3)
C1_13 C 0.4651(4) 0.3489(2) 0.5204(2)
C2_13 C 0.5438(4) 0.34750(19) 0.52883(16)
C3_13 C 0.5884(5) 0.3140(3) 0.5050(3)
H1_13 H 0.6413 0.3117 0.5114
C4_13 C 0.5577(4) 0.2843(3) 0.4726(2)
H2_13 H 0.5895 0.2634 0.4564
C5_13 C 0.4799(4) 0.28621(19) 0.46492(16)
C6_13 C 0.4336(4) 0.3177(2) 0.4876(2)
H3_13 H 0.3805 0.3187 0.4815
C7_13 C 0.5795(5) 0.37962(19) 0.56247(19)
C8_13 C 0.4432(4) 0.2526(2) 0.43155(16)
N2_13 N 0.3298(5) 0.3700(3) 0.5434(3)
C9_13 C 0.2849(4) 0.4011(2) 0.5204(2)
C10_13 C 0.2062(4) 0.40250(19) 0.52883(16)
C11_13 C 0.1616(5) 0.4360(3) 0.5050(3)
H4_13 H 0.1087 0.4383 0.5114
C12_11 C 0.1923(4) 0.4657(3) 0.4726(2)
H5_11 H 0.1605 0.4866 0.4564
C13_13 C 0.2701(4) 0.46379(19) 0.46492(16)
C14_13 C 0.3164(4) 0.4323(2) 0.4876(2)
H6_13 H 0.3695 0.4313 0.4815
C15_13 C 0.1705(5) 0.37038(19) 0.56247(19)
C16_13 C 0.3068(4) 0.4974(2) 0.43155(16)
C10_14 C 0.0438(4) 0.84750(19) 0.52883(16)
C11_14 C 0.0884(5) 0.8140(3) 0.5050(3)
H4_14 H 0.1413 0.8117 0.5114
C12_12 C 0.0577(4) 0.7843(3) 0.4726(2)
H5_12 H 0.0895 0.7634 0.4564
C15_14 C 0.0795(5) 0.87962(19) 0.56247(19)
O2_14 O 0.7657(3) 0.02473(15) 0.40921(13)
O1_14 O 0.8789(3) 0.99876(19) 0.42740(16)
N1_14 N 0.8298(5) 0.8700(3) 0.5434(3)
C1_14 C 0.7849(4) 0.9011(2) 0.5204(2)
C2_14 C 0.7062(4) 0.90250(19) 0.52883(16)
C3_14 C 0.6616(5) 0.9360(3) 0.5050(3)
H1_14 H 0.6087 0.9383 0.5114
C4_14 C 0.6923(4) 0.9657(3) 0.4726(2)
H2_14 H 0.6605 0.9866 0.4564
C5_14 C 0.7701(4) 0.96379(19) 0.46492(16)
C6_14 C 0.8164(4) 0.9323(2) 0.4876(2)
H3_14 H 0.8695 0.9313 0.4815
C7_14 C 0.6705(5) 0.87038(19) 0.56247(19)
C8_14 C 0.8068(4) 0.9974(2) 0.43155(16)
N2_14 N 0.9202(5) 0.8800(3) 0.5434(3)
C9_14 C 0.9651(4) 0.8489(2) 0.5204(2)
C13_14 C 0.9799(4) 0.78621(19) 0.46492(16)
C14_14 C 0.9336(4) 0.8177(2) 0.4876(2)
H6_14 H 0.8805 0.8187 0.4815
C16_14 C 0.9432(4) 0.7526(2) 0.43155(16)
C10_15 C 0.0438(4) 0.40250(19) 0.72117(16)
C11_15 C 0.0884(5) 0.4360(3) 0.7450(3)
H4_15 H 0.1413 0.4383 0.7386
C12_13 C 0.0577(4) 0.4657(3) 0.7774(2)
H5_13 H 0.0895 0.4866 0.7936
C15_15 C 0.0795(5) 0.37038(19) 0.68753(19)
O1_15 O 0.8789(3) 0.25124(19) 0.82260(16)
O2_15 O 0.7657(3) 0.22527(15) 0.84079(13)
N1_15 N 0.8298(5) 0.3800(3) 0.7066(3)
C1_15 C 0.7849(4) 0.3489(2) 0.7296(2)
C2_15 C 0.7062(4) 0.34750(19) 0.72117(16)
C3_15 C 0.6616(5) 0.3140(3) 0.7450(3)
H1_15 H 0.6087 0.3117 0.7386
C4_15 C 0.6923(4) 0.2843(3) 0.7774(2)
H2_15 H 0.6605 0.2634 0.7936
C5_15 C 0.7701(4) 0.28621(19) 0.78508(16)
C6_15 C 0.8164(4) 0.3177(2) 0.7624(2)
H3_15 H 0.8695 0.3187 0.7685
C7_15 C 0.6705(5) 0.37962(19) 0.68753(19)
C8_15 C 0.8068(4) 0.2526(2) 0.81845(16)
N2_15 N 0.9202(5) 0.3700(3) 0.7066(3)
C9_15 C 0.9651(4) 0.4011(2) 0.7296(2)
C13_15 C 0.9799(4) 0.46379(19) 0.78508(16)
C14_15 C 0.9336(4) 0.4323(2) 0.7624(2)
H6_15 H 0.8805 0.4313 0.7685
C16_15 C 0.9432(4) 0.4974(2) 0.81845(16)
O2_16 O 0.4843(3) 0.02473(15) 0.84079(13)
O1_16 O 0.3711(3) 0.99876(19) 0.82260(16)
N1_16 N 0.4202(5) 0.8700(3) 0.7066(3)
C1_16 C 0.4651(4) 0.9011(2) 0.7296(2)
C2_16 C 0.5438(4) 0.90250(19) 0.72117(16)
C3_16 C 0.5884(5) 0.9360(3) 0.7450(3)
H1_16 H 0.6413 0.9383 0.7386
C4_16 C 0.5577(4) 0.9657(3) 0.7774(2)
H2_16 H 0.5895 0.9866 0.7936
C5_16 C 0.4799(4) 0.96379(19) 0.78508(16)
C6_16 C 0.4336(4) 0.9323(2) 0.7624(2)
H3_16 H 0.3805 0.9313 0.7685
C7_16 C 0.5795(5) 0.87038(19) 0.68753(19)
C8_16 C 0.4432(4) 0.9974(2) 0.81845(16)
N2_16 N 0.3298(5) 0.8800(3) 0.7066(3)
C9_16 C 0.2849(4) 0.8489(2) 0.7296(2)
C10_16 C 0.2062(4) 0.84750(19) 0.72117(16)
C11_16 C 0.1616(5) 0.8140(3) 0.7450(3)
H4_16 H 0.1087 0.8117 0.7386
C12_14 C 0.1923(4) 0.7843(3) 0.7774(2)
H5_14 H 0.1605 0.7634 0.7936
C13_16 C 0.2701(4) 0.78621(19) 0.78508(16)
C14_16 C 0.3164(4) 0.8177(2) 0.7624(2)
H6_16 H 0.3695 0.8187 0.7685
C15_16 C 0.1705(5) 0.87962(19) 0.68753(19)
C16_16 C 0.3068(4) 0.7526(2) 0.81845(16)
C12_15 C 0.9423(4) 0.7157(3) 0.0274(2)
H5_15 H 0.9105 0.7366 0.0436
C12_16 C 0.0577(4) 0.2843(3) 0.9726(2)
H5_16 H 0.0895 0.2634 0.9564
loop_
_geom_bond_atom_site_label_1
_geom_bond_atom_site_label_2
_geom_bond_site_symmetry_1
_geom_bond_site_symmetry_2
In1 O1 1_555 1_555
O1 C8 1_555 1_555
O2 In1 1_555 1_555
H2 C4 1_555 1_555
C5 C4 1_555 1_555
H3 C6 1_555 1_555
C8 O2 1_555 1_555
O5 C16 1_555 1_555
H5 C12 1_555 1_555
C13 C12 1_555 1_555
H6 C14 1_555 1_555
C16 C13 1_555 1_555
O9 In1 1_555 1_555
O10 In1 1_555 1_555
O11 In1 1_555 1_555
O12 In1 1_555 1_555
O13 In1 1_555 1_555
O14 In1 1_555 1_555
C5 C6 1_555 1_555
C5 C8 1_555 1_555
C13 C14 1_555 1_555
O3 C7 1_555 1_555
O4 C7 1_555 1_555
N1 C1 1_555 1_555
C1 C2 1_555 1_555
C2 C3 1_555 1_555
C3 H1 1_555 1_555
C7 C2 1_555 1_555
O7 C15 1_555 1_555
O8 C15 1_555 1_555
N2 N1 1_555 1_555
C9 N2 1_555 1_555
C10 C9 1_555 1_555
C11 C10 1_555 1_555
H4 C11 1_555 1_555
C15 C10 1_555 1_555
In3 O7 1_555 1_555
In4 O3 1_555 1_555
O4 In4 1_555 1_555
O8 In3 1_555 1_555
O6 In2 1_555 1_555
In1_2 O1_2 1_555 1_555
O1_2 C8_2 1_555 1_555
O2_2 In1_2 1_555 1_555
H2_2 C4_2 1_555 1_555
C5_2 C4_2 1_555 1_555
H3_2 C6_2 1_555 1_555
C8_2 O2_2 1_555 1_555
O5_2 C16_2 1_555 1_555
O6_2 C16_2 1_555 1_555
H6_2 C14_2 1_555 1_555
C16_2 C13_2 1_555 1_555
In2_2 O5_2 1_555 1_555
O9_2 In1_2 1_555 1_555
O10_2 In1_2 1_555 1_555
O11_2 In1_2 1_555 1_555
O12_2 In1_2 1_555 1_555
O13_2 In1_2 1_555 1_555
O14_2 In1_2 1_555 1_555
C5_2 C6_2 1_555 1_555
C5_2 C8_2 1_555 1_555
O6_2 In2_2 1_555 1_555
C13_2 C14_2 1_555 1_555
O3_2 C7_2 1_555 1_555
O4_2 C7_2 1_555 1_555
N1_2 C1_2 1_555 1_555
C1_2 C2_2 1_555 1_555
C2_2 C3_2 1_555 1_555
C3_2 H1_2 1_555 1_555
C7_2 C2_2 1_555 1_555
N2_2 N1_2 1_555 1_555
C9_2 N2_2 1_555 1_555
In4_2 O3_2 1_555 1_555
O4_2 In4_2 1_555 1_555
O7_2 C15_2 1_555 1_555
O8_2 C15_2 1_555 1_555
C11_2 C10_2 1_555 1_555
H4_2 C11_2 1_555 1_555
C15_2 C10_2 1_555 1_555
In3_2 O7_2 1_555 1_555
O8_2 In3_2 1_555 1_555
In1_3 O1_3 1_555 1_555
O1_3 C8_3 1_555 1_555
O2_3 In1_3 1_555 1_555
O3_3 C7_3 1_555 1_555
O4_3 C7_3 1_555 1_555
N1_3 C1_3 1_555 1_555
C1_3 C2_3 1_555 1_555
C2_3 C3_3 1_555 1_555
C3_3 H1_3 1_555 1_555
C4_3 C3_3 1_555 1_555
H2_3 C4_3 1_555 1_555
C5_3 C4_3 1_555 1_555
C6_3 C1_3 1_555 1_555
H3_3 C6_3 1_555 1_555
C7_3 C2_3 1_555 1_555
C8_3 O2_3 1_555 1_555
O5_3 C16_3 1_555 1_555
N2_3 N1_3 1_555 1_555
C9_3 N2_3 1_555 1_555
C14_3 C9_3 1_555 1_555
H6_3 C14_3 1_555 1_555
C16_3 C13_3 1_555 1_555
In4 O3_3 1_555 1_555
O9_3 In1_3 1_555 1_555
O10_3 In1_3 1_555 1_555
O11_3 In1_3 1_555 1_555
O12_3 In1_3 1_555 1_555
O13_3 In1_3 1_555 1_555
O14_3 In1_3 1_555 1_555
O4_3 In4 1_555 1_555
C5_3 C6_3 1_555 1_555
C5_3 C8_3 1_555 1_555
C13_3 C14_3 1_555 1_555
O6_3 In2_3 1_555 1_555
O7_3 C15_3 1_555 1_555
O8_3 C15_3 1_555 1_555
C11_3 C10_3 1_555 1_555
H4_3 C11_3 1_555 1_555
C12_2 C11_3 1_555 1_555
H5_2 C12_2 1_555 1_555
C15_3 C10_3 1_555 1_555
In3 O7_3 1_555 1_555
O8_3 In3 1_555 1_555
In1_4 O1_4 1_555 1_555
O1_4 C8_4 1_555 1_555
O2_4 In1_4 1_555 1_555
O3_4 C7_4 1_555 1_555
O4_4 C7_4 1_555 1_555
N1_4 C1_4 1_555 1_555
C1_4 C2_4 1_555 1_555
C2_4 C3_4 1_555 1_555
C3_4 H1_4 1_555 1_555
C4_4 C3_4 1_555 1_555
H2_4 C4_4 1_555 1_555
C5_4 C4_4 1_555 1_555
C6_4 C1_4 1_555 1_555
H3_4 C6_4 1_555 1_555
C7_4 C2_4 1_555 1_555
C8_4 O2_4 1_555 1_555
O5_4 C16_4 1_555 1_555
O6_4 C16_4 1_555 1_555
O7_4 C15_4 1_555 1_555
O8_4 C15_4 1_555 1_555
N2_4 N1_4 1_555 1_555
C9_4 N2_4 1_555 1_555
C10_4 C9_4 1_555 1_555
C11_4 C10_4 1_555 1_555
H4_4 C11_4 1_555 1_555
C12_3 C11_4 1_555 1_555
H5_3 C12_3 1_555 1_555
C13_4 C12_3 1_555 1_555
C14_4 C9_4 1_555 1_555
H6_4 C14_4 1_555 1_555
C15_4 C10_4 1_555 1_555
C16_4 C13_4 1_555 1_555
In2_4 O5_4 1_555 1_555
In3_2 O7_4 1_555 1_555
In4_2 O3_4 1_555 1_555
O9_4 In1_4 1_555 1_555
O10_4 In1_4 1_555 1_555
O11_4 In1_4 1_555 1_555
O12_4 In1_4 1_555 1_555
O13_4 In1_4 1_555 1_555
O14_4 In1_4 1_555 1_555
O4_4 In4_2 1_555 1_555
C5_4 C6_4 1_555 1_555
C5_4 C8_4 1_555 1_555
O6_4 In2_4 1_555 1_555
O8_4 In3_2 1_555 1_555
C13_4 C14_4 1_555 1_555
In2_4 O1_5 1_555 1_555
O1_5 C8_5 1_555 1_555
O2_5 In2_4 1_555 1_555
O3_5 C7_5 1_555 1_555
O4_5 C7_5 1_555 1_555
N1_5 C1_5 1_555 1_555
C1_5 C2_5 1_555 1_555
C2_5 C3_5 1_555 1_555
C3_5 H1_5 1_555 1_555
C4_5 C3_5 1_555 1_555
H2_5 C4_5 1_555 1_555
C5_5 C4_5 1_555 1_555
C6_5 C1_5 1_555 1_555
H3_5 C6_5 1_555 1_555
C7_5 C2_5 1_555 1_555
C8_5 O2_5 1_555 1_555
O9_4 C16_5 1_555 1_555
O10_4 C16_5 1_555 1_555
O7_5 C15_5 1_555 1_555
O8_5 C15_5 1_555 1_555
N2_5 N1_5 1_555 1_555
C9_5 N2_5 1_555 1_555
C10_5 C9_5 1_555 1_555
C11_5 C10_5 1_555 1_555
H4_5 C11_5 1_555 1_555
C12_4 C11_5 1_555 1_555
H5_4 C12_4 1_555 1_555
C13_5 C12_4 1_555 1_555
C14_5 C9_5 1_555 1_555
H6_5 C14_5 1_555 1_555
C15_5 C10_5 1_555 1_555
C16_5 C13_5 1_555 1_555
In3_3 O7_5 1_555 1_555
In4_3 O3_5 1_555 1_555
O11_5 In2_4 1_555 1_555
O12_5 In2_4 1_555 1_555
O13_5 In2_4 1_555 1_555
O14_5 In2_4 1_555 1_555
O4_5 In4_3 1_555 1_555
C5_5 C6_5 1_555 1_555
C5_5 C8_5 1_555 1_555
O8_5 In3_3 1_555 1_555
C13_5 C14_5 1_555 1_555
O1_6 C8_6 1_555 1_555
O3_6 C7_6 1_555 1_555
O4_6 C7_6 1_555 1_555
N1_6 C1_6 1_555 1_555
C1_6 C2_6 1_555 1_555
C2_6 C3_6 1_555 1_555
C3_6 H1_6 1_555 1_555
C4_6 C3_6 1_555 1_555
H2_6 C4_6 1_555 1_555
C5_6 C4_6 1_555 1_555
C6_6 C1_6 1_555 1_555
H3_6 C6_6 1_555 1_555
C7_6 C2_6 1_555 1_555
O9_3 C16_6 1_555 1_555
O10_3 C16_6 1_555 1_555
N2_6 N1_6 1_555 1_555
C9_6 N2_6 1_555 1_555
C14_6 C9_6 1_555 1_555
H6_6 C14_6 1_555 1_555
C16_6 C13_6 1_555 1_555
In4_4 O3_6 1_555 1_555
O4_6 In4_4 1_555 1_555
C5_6 C6_6 1_555 1_555
C5_6 C8_6 1_555 1_555
C13_6 C14_6 1_555 1_555
O2_6 In2_3 1_555 1_555
O11_6 In2_3 1_555 1_555
O12_6 In2_3 1_555 1_555
O13_6 In2_3 1_555 1_555
O14_6 In2_3 1_555 1_555
O7_6 C15_6 1_555 1_555
O8_6 C15_6 1_555 1_555
C11_6 C10_6 1_555 1_555
H4_6 C11_6 1_555 1_555
C12_5 C11_6 1_555 1_555
H5_5 C12_5 1_555 1_555
C15_6 C10_6 1_555 1_555
In3_4 O7_6 1_555 1_555
O8_6 In3_4 1_555 1_555
In2_2 O1_7 1_555 1_555
O1_7 C8_7 1_555 1_555
O2_7 In2_2 1_555 1_555
O3_7 C7_7 1_555 1_555
O4_7 C7_7 1_555 1_555
N1_7 C1_7 1_555 1_555
C1_7 C2_7 1_555 1_555
C2_7 C3_7 1_555 1_555
C3_7 H1_7 1_555 1_555
C4_7 C3_7 1_555 1_555
H2_7 C4_7 1_555 1_555
C5_7 C4_7 1_555 1_555
C6_7 C1_7 1_555 1_555
H3_7 C6_7 1_555 1_555
C7_7 C2_7 1_555 1_555
C8_7 O2_7 1_555 1_555
O9_2 C16_7 1_555 1_555
O10_2 C16_7 1_555 1_555
N2_7 N1_7 1_555 1_555
C9_7 N2_7 1_555 1_555
C14_7 C9_7 1_555 1_555
H6_7 C14_7 1_555 1_555
C16_7 C13_7 1_555 1_555
In4_3 O3_7 1_555 1_555
O11_7 In2_2 1_555 1_555
O12_7 In2_2 1_555 1_555
O13_7 In2_2 1_555 1_555
O14_7 In2_2 1_555 1_555
O4_7 In4_3 1_555 1_555
C5_7 C6_7 1_555 1_555
C5_7 C8_7 1_555 1_555
C13_7 C14_7 1_555 1_555
O7_7 C15_7 1_555 1_555
O8_7 C15_7 1_555 1_555
C11_7 C10_7 1_555 1_555
H4_7 C11_7 1_555 1_555
C12_6 C11_7 1_555 1_555
H5_6 C12_6 1_555 1_555
C15_7 C10_7 1_555 1_555
In3_3 O7_7 1_555 1_555
O8_7 In3_3 1_555 1_555
O1_8 C8_8 1_555 1_555
O3_8 C7_8 1_555 1_555
O4_8 C7_8 1_555 1_555
N1_8 C1_8 1_555 1_555
C1_8 C2_8 1_555 1_555
C2_8 C3_8 1_555 1_555
C3_8 H1_8 1_555 1_555
C4_8 C3_8 1_555 1_555
H2_8 C4_8 1_555 1_555
C5_8 C4_8 1_555 1_555
C6_8 C1_8 1_555 1_555
H3_8 C6_8 1_555 1_555
C7_8 C2_8 1_555 1_555
O9 C16_8 1_555 1_555
O10 C16_8 1_555 1_555
O7_8 C15_8 1_555 1_555
O8_8 C15_8 1_555 1_555
N2_8 N1_8 1_555 1_555
C9_8 N2_8 1_555 1_555
C10_8 C9_8 1_555 1_555
C11_8 C10_8 1_555 1_555
H4_8 C11_8 1_555 1_555
C12_7 C11_8 1_555 1_555
H5_7 C12_7 1_555 1_555
C13_8 C12_7 1_555 1_555
C14_8 C9_8 1_555 1_555
H6_8 C14_8 1_555 1_555
C15_8 C10_8 1_555 1_555
C16_8 C13_8 1_555 1_555
In3_4 O7_8 1_555 1_555
In4_4 O3_8 1_555 1_555
O4_8 In4_4 1_555 1_555
C5_8 C6_8 1_555 1_555
C5_8 C8_8 1_555 1_555
O8_8 In3_4 1_555 1_555
C13_8 C14_8 1_555 1_555
O2_8 In2 1_555 1_555
O11_8 In2 1_555 1_555
O12_8 In2 1_555 1_555
O13_8 In2 1_555 1_555
O14_8 In2 1_555 1_555
O6_5 In4 1_555 1_555
O12_8 C7_9 1_555 1_555
O14_8 C7_9 1_555 1_555
N1_9 C1_9 1_555 1_555
C1_9 C2_9 1_555 1_555
C2_9 C3_9 1_555 1_555
C3_9 H1_9 1_555 1_555
C7_9 C2_9 1_555 1_555
O12_7 C15_9 1_555 1_555
O14_7 C15_9 1_555 1_555
N2_9 N1_9 1_555 1_555
C9_9 N2_9 1_555 1_555
C10_9 C9_9 1_555 1_555
C11_9 C10_9 1_555 1_555
H4_9 C11_9 1_555 1_555
C15_9 C10_9 1_555 1_555
In4_2 O1_9 1_555 1_555
O1_9 C8_9 1_555 1_555
O2_9 In4_2 1_555 1_555
H2_9 C4_9 1_555 1_555
C5_9 C4_9 1_555 1_555
H3_9 C6_9 1_555 1_555
C8_9 O2_9 1_555 1_555
O5_5 C16_9 1_555 1_555
H5_8 C12_8 1_555 1_555
C13_9 C12_8 1_555 1_555
H6_9 C14_9 1_555 1_555
C16_9 C13_9 1_555 1_555
O9_5 In4_2 1_555 1_555
O10_5 In4_2 1_555 1_555
C5_9 C6_9 1_555 1_555
C5_9 C8_9 1_555 1_555
C13_9 C14_9 1_555 1_555
O11_2 C15_10 1_555 1_555
O13_2 C15_10 1_555 1_555
C11_10 C10_10 1_555 1_555
H4_10 C11_10 1_555 1_555
C15_10 C10_10 1_555 1_555
O11 C7_10 1_555 1_555
O13 C7_10 1_555 1_555
N1_10 C1_10 1_555 1_555
C1_10 C2_10 1_555 1_555
C2_10 C3_10 1_555 1_555
C3_10 H1_10 1_555 1_555
C7_10 C2_10 1_555 1_555
N2_10 N1_10 1_555 1_555
C9_10 N2_10 1_555 1_555
In3_2 O1_10 1_555 1_555
O1_10 C8_10 1_555 1_555
O2_10 In3_2 1_555 1_555
H2_10 C4_10 1_555 1_555
C5_10 C4_10 1_555 1_555
H3_10 C6_10 1_555 1_555
C8_10 O2_10 1_555 1_555
O5_6 C16_10 1_555 1_555
O6_6 C16_10 1_555 1_555
H6_10 C14_10 1_555 1_555
C16_10 C13_10 1_555 1_555
In3 O5_6 1_555 1_555
O9_6 In3_2 1_555 1_555
O10_6 In3_2 1_555 1_555
C5_10 C6_10 1_555 1_555
C5_10 C8_10 1_555 1_555
O6_6 In3 1_555 1_555
C13_10 C14_10 1_555 1_555
O11_7 C15_11 1_555 1_555
O13_7 C15_11 1_555 1_555
C11_11 C10_11 1_555 1_555
H4_11 C11_11 1_555 1_555
C12_9 C11_11 1_555 1_555
H5_9 C12_9 1_555 1_555
C15_11 C10_11 1_555 1_555
O6_7 In3_4 1_555 1_555
In3_3 O1_11 1_555 1_555
O1_11 C8_11 1_555 1_555
O2_11 In3_3 1_555 1_555
O11_8 C7_11 1_555 1_555
O13_8 C7_11 1_555 1_555
N1_11 C1_11 1_555 1_555
C1_11 C2_11 1_555 1_555
C2_11 C3_11 1_555 1_555
C3_11 H1_11 1_555 1_555
C4_11 C3_11 1_555 1_555
H2_11 C4_11 1_555 1_555
C5_11 C4_11 1_555 1_555
C6_11 C1_11 1_555 1_555
H3_11 C6_11 1_555 1_555
C7_11 C2_11 1_555 1_555
C8_11 O2_11 1_555 1_555
O5_7 C16_11 1_555 1_555
N2_11 N1_11 1_555 1_555
C9_11 N2_11 1_555 1_555
C14_11 C9_11 1_555 1_555
H6_11 C14_11 1_555 1_555
C16_11 C13_11 1_555 1_555
O9_7 In3_3 1_555 1_555
O10_7 In3_3 1_555 1_555
C5_11 C6_11 1_555 1_555
C5_11 C8_11 1_555 1_555
C13_11 C14_11 1_555 1_555
In4_3 O1_12 1_555 1_555
O1_12 C8_12 1_555 1_555
O2_12 In4_3 1_555 1_555
O12 C7_12 1_555 1_555
O14 C7_12 1_555 1_555
N1_12 C1_12 1_555 1_555
C1_12 C2_12 1_555 1_555
C2_12 C3_12 1_555 1_555
C3_12 H1_12 1_555 1_555
C4_12 C3_12 1_555 1_555
H2_12 C4_12 1_555 1_555
C5_12 C4_12 1_555 1_555
C6_12 C1_12 1_555 1_555
H3_12 C6_12 1_555 1_555
C7_12 C2_12 1_555 1_555
C8_12 O2_12 1_555 1_555
O5_8 C16_12 1_555 1_555
O6_8 C16_12 1_555 1_555
O12_2 C15_12 1_555 1_555
O14_2 C15_12 1_555 1_555
N2_12 N1_12 1_555 1_555
C9_12 N2_12 1_555 1_555
C10_12 C9_12 1_555 1_555
C11_12 C10_12 1_555 1_555
H4_12 C11_12 1_555 1_555
C12_10 C11_12 1_555 1_555
H5_10 C12_10 1_555 1_555
C13_12 C12_10 1_555 1_555
C14_12 C9_12 1_555 1_555
H6_12 C14_12 1_555 1_555
C15_12 C10_12 1_555 1_555
C16_12 C13_12 1_555 1_555
In4_4 O5_8 1_555 1_555
O9_8 In4_3 1_555 1_555
O10_8 In4_3 1_555 1_555
C5_12 C6_12 1_555 1_555
C5_12 C8_12 1_555 1_555
O6_8 In4_4 1_555 1_555
C13_12 C14_12 1_555 1_555
In4_4 O1_13 1_555 1_555
O1_13 C8_13 1_555 1_555
O2_13 In4_4 1_555 1_555
O12_4 C7_13 1_555 1_555
O14_4 C7_13 1_555 1_555
N1_13 C1_13 1_555 1_555
C1_13 C2_13 1_555 1_555
C2_13 C3_13 1_555 1_555
C3_13 H1_13 1_555 1_555
C4_13 C3_13 1_555 1_555
H2_13 C4_13 1_555 1_555
C5_13 C4_13 1_555 1_555
C6_13 C1_13 1_555 1_555
H3_13 C6_13 1_555 1_555
C7_13 C2_13 1_555 1_555
C8_13 O2_13 1_555 1_555
O9_8 C16_13 1_555 1_555
O10_8 C16_13 1_555 1_555
O12_3 C15_13 1_555 1_555
O14_3 C15_13 1_555 1_555
N2_13 N1_13 1_555 1_555
C9_13 N2_13 1_555 1_555
C10_13 C9_13 1_555 1_555
C11_13 C10_13 1_555 1_555
H4_13 C11_13 1_555 1_555
C12_11 C11_13 1_555 1_555
H5_11 C12_11 1_555 1_555
C13_13 C12_11 1_555 1_555
C14_13 C9_13 1_555 1_555
H6_13 C14_13 1_555 1_555
C15_13 C10_13 1_555 1_555
C16_13 C13_13 1_555 1_555
C5_13 C6_13 1_555 1_555
C5_13 C8_13 1_555 1_555
C13_13 C14_13 1_555 1_555
O11_6 C15_14 1_555 1_555
O13_6 C15_14 1_555 1_555
C11_14 C10_14 1_555 1_555
H4_14 C11_14 1_555 1_555
C12_12 C11_14 1_555 1_555
H5_12 C12_12 1_555 1_555
C15_14 C10_14 1_555 1_555
O2_14 In3_4 1_555 1_555
O1_14 C8_14 1_555 1_555
O11_5 C7_14 1_555 1_555
O13_5 C7_14 1_555 1_555
N1_14 C1_14 1_555 1_555
C1_14 C2_14 1_555 1_555
C2_14 C3_14 1_555 1_555
C3_14 H1_14 1_555 1_555
C4_14 C3_14 1_555 1_555
H2_14 C4_14 1_555 1_555
C5_14 C4_14 1_555 1_555
C6_14 C1_14 1_555 1_555
H3_14 C6_14 1_555 1_555
C7_14 C2_14 1_555 1_555
O9_7 C16_14 1_555 1_555
O10_7 C16_14 1_555 1_555
N2_14 N1_14 1_555 1_555
C9_14 N2_14 1_555 1_555
C14_14 C9_14 1_555 1_555
H6_14 C14_14 1_555 1_555
C16_14 C13_14 1_555 1_555
C5_14 C6_14 1_555 1_555
C5_14 C8_14 1_555 1_555
C13_14 C14_14 1_555 1_555
O11_3 C15_15 1_555 1_555
O13_3 C15_15 1_555 1_555
C11_15 C10_15 1_555 1_555
H4_15 C11_15 1_555 1_555
C12_13 C11_15 1_555 1_555
H5_13 C12_13 1_555 1_555
C15_15 C10_15 1_555 1_555
In3 O1_15 1_555 1_555
O1_15 C8_15 1_555 1_555
O2_15 In3 1_555 1_555
O11_4 C7_15 1_555 1_555
O13_4 C7_15 1_555 1_555
N1_15 C1_15 1_555 1_555
C1_15 C2_15 1_555 1_555
C2_15 C3_15 1_555 1_555
C3_15 H1_15 1_555 1_555
C4_15 C3_15 1_555 1_555
H2_15 C4_15 1_555 1_555
C5_15 C4_15 1_555 1_555
C6_15 C1_15 1_555 1_555
H3_15 C6_15 1_555 1_555
C7_15 C2_15 1_555 1_555
C8_15 O2_15 1_555 1_555
O9_6 C16_15 1_555 1_555
O10_6 C16_15 1_555 1_555
N2_15 N1_15 1_555 1_555
C9_15 N2_15 1_555 1_555
C14_15 C9_15 1_555 1_555
H6_15 C14_15 1_555 1_555
C16_15 C13_15 1_555 1_555
C5_15 C6_15 1_555 1_555
C5_15 C8_15 1_555 1_555
C13_15 C14_15 1_555 1_555
O2_16 In4 1_555 1_555
O1_16 C8_16 1_555 1_555
O12_5 C7_16 1_555 1_555
O14_5 C7_16 1_555 1_555
N1_16 C1_16 1_555 1_555
C1_16 C2_16 1_555 1_555
C2_16 C3_16 1_555 1_555
C3_16 H1_16 1_555 1_555
C4_16 C3_16 1_555 1_555
H2_16 C4_16 1_555 1_555
C5_16 C4_16 1_555 1_555
C6_16 C1_16 1_555 1_555
H3_16 C6_16 1_555 1_555
C7_16 C2_16 1_555 1_555
O9_5 C16_16 1_555 1_555
O10_5 C16_16 1_555 1_555
O12_6 C15_16 1_555 1_555
O14_6 C15_16 1_555 1_555
N2_16 N1_16 1_555 1_555
C9_16 N2_16 1_555 1_555
C10_16 C9_16 1_555 1_555
C11_16 C10_16 1_555 1_555
H4_16 C11_16 1_555 1_555
C12_14 C11_16 1_555 1_555
H5_14 C12_14 1_555 1_555
C13_16 C12_14 1_555 1_555
C14_16 C9_16 1_555 1_555
H6_16 C14_16 1_555 1_555
C15_16 C10_16 1_555 1_555
C16_16 C13_16 1_555 1_555
C5_16 C6_16 1_555 1_555
C5_16 C8_16 1_555 1_555
C13_16 C14_16 1_555 1_555
H5_15 C12_15 1_555 1_555
H5_16 C12_16 1_555 1_555

#END
