
###############################################################################
#
# This file contains modified crystal structure data generated from the
# MOF subset of the Cambridge Structural Database (CSD) v543 
# hosted by the Cambridge Crystallographic Data Centre (CCDC).
#
# This work is licensed under the Creative Commons
# Attribution-NonCommercial-ShareAlike 4.0 International License.
# To view a copy of this license, visit
# http://creativecommons.org/licenses/by-nc-sa/4.0/
# or send a letter to
# Creative Commons, PO Box 1866, Mountain View, CA 94042, USA.
#
# CIF created using the CSD Python API on 29 September 2022
# The structure has been converted into the P1 space group
# The structure has a 3D framework
# The original CSD entry ZINDAD is in the tetragonal crystal system
# The framework has been calculated to contain at least 10.0% void space
# The void calculation uses a probe of radius 1.32A, grid spacing 0.4
# H atom positions have been added when not included in the experimental data
# Generated hydrogen atom positions removed from atoms on special positions
#
###############################################################################

data_ZINDAD
_chemical_formula_moiety         '(C432 H320 N96 O236 Zn56)n'
_symmetry_cell_setting           triclinic
_symmetry_space_group_name_H-M   'P 1'
_symmetry_Int_Tables_number      1
_space_group_name_Hall           'P 1'
loop_
_symmetry_equiv_pos_site_id
_symmetry_equiv_pos_as_xyz
1 x,y,z
_cell_length_a                   26.855(4)
_cell_length_b                   26.855(4)
_cell_length_c                   38.127(8)
_cell_angle_alpha                90
_cell_angle_beta                 90
_cell_angle_gamma                90
_cell_volume                     27496.9
loop_
_atom_site_label
_atom_site_type_symbol
_atom_site_fract_x
_atom_site_fract_y
_atom_site_fract_z
Zn2 Zn 0.119046(13) 0.170901(13) 0.355307(9)
Zn4 Zn 0.163397(13) 0.235652(13) 0.299090(9)
O5 O 0.08139(13) 0.13471(13) 0.39194(8)
O7 O 0.20250(13) 0.26717(12) 0.26052(8)
O11 O 0.14545(11) 0.11391(10) 0.32629(6)
O12 O 0.17119(10) 0.16386(9) 0.28341(7)
O13 O 0.35947(10) 0.21002(9) 0.16730(7)
O14 O 0.39569(11) 0.25918(10) 0.12801(8)
O15 O 0.50064(12) 0.18595(11) 0.03718(8)
O16 O 0.51219(10) 0.10479(10) 0.03702(7)
N3 N 0.31622(16) 0.04970(11) 0.15428(9)
N5 N 0.26228(17) 0.05756(12) 0.19987(10)
H2 H 0.2671 0.0889 0.1965
N6 N 0.37570(15) 0.03672(12) 0.11084(9)
H3 H 0.3893 0.0146 0.0977
C2 C 0.28311(18) 0.02715(15) 0.17548(11)
C3 C 0.33937(18) 0.01925(14) 0.13260(10)
C12 C 0.23421(16) 0.04589(14) 0.22962(10)
C15 C 0.18414(13) 0.03079(13) 0.29281(8)
H8 H 0.1675 0.0257 0.3139
C16 C 0.18655(13) 0.07770(13) 0.27846(9)
C17 C 0.21217(15) 0.08505(13) 0.24709(10)
H9 H 0.2144 0.1170 0.2378
C19 C 0.16616(13) 0.12187(14) 0.29728(9)
C20 C 0.39458(16) 0.08551(13) 0.10653(10)
C21 C 0.37867(15) 0.12665(14) 0.12599(10)
H10 H 0.3551 0.1230 0.1437
C22 C 0.39874(13) 0.17323(13) 0.11846(9)
C23 C 0.43407(14) 0.17937(13) 0.09228(9)
H11 H 0.4465 0.2108 0.0870
C24 C 0.45069(14) 0.13734(14) 0.07399(9)
C25 C 0.43045(15) 0.09117(13) 0.08103(9)
H12 H 0.4412 0.0635 0.0684
C26 C 0.38301(13) 0.21779(14) 0.13951(10)
C27 C 0.49077(14) 0.14349(14) 0.04726(9)
O17 O 0.61545(10) 0.12291(9) 0.03775(6)
O18 O 0.60245(11) 0.20455(10) 0.03716(7)
O20 O 0.67892(12) 0.31146(10) 0.12502(7)
O22 O 0.72316(11) 0.27831(10) 0.16783(6)
O23 O 0.76763(9) 0.09337(9) 0.27908(7)
O24 O 0.82024(11) 0.06424(9) 0.31954(6)
N7 N 0.66979(14) 0.03018(12) 0.12907(9)
N8 N 0.72886(15) 0.02075(12) 0.17477(9)
N10 N 0.71717(15) 0.09563(12) 0.14984(9)
H13 H 0.7411 0.1034 0.1638
C28 C 0.70356(17) 0.04727(14) 0.15048(10)
C31 C 0.69794(17) 0.13561(14) 0.12962(10)
C32 C 0.67100(16) 0.13013(14) 0.09890(10)
H16 H 0.6647 0.0985 0.0900
C33 C 0.65351(14) 0.17148(13) 0.08154(9)
C34 C 0.66263(15) 0.21910(13) 0.09441(9)
H17 H 0.6505 0.2469 0.0826
C35 C 0.69020(15) 0.22489(13) 0.12535(9)
C36 C 0.70773(17) 0.18356(14) 0.14259(9)
H18 H 0.7262 0.1874 0.1630
C37 C 0.62186(14) 0.16591(13) 0.04940(8)
C38 C 0.69783(16) 0.27580(14) 0.14057(9)
C40 C 0.76824(15) 0.00164(13) 0.24425(10)
H19 H 0.7532 0.0284 0.2330
C41 C 0.79362(13) 0.00872(13) 0.27596(9)
C45 C 0.79394(14) 0.05967(13) 0.29257(9)
Zn7 Zn 0.54965(2) 0.209596(18) 0.0000
Zn8 Zn 0.829099(13) 0.119046(13) 0.355307(9)
Zn10 Zn 0.380954(13) 0.329099(13) 0.144693(9)
Zn12 Zn 0.670901(13) 0.380954(13) 0.144693(9)
Zn14 Zn 0.56728(2) 0.100089(18) 0.0000
Zn15 Zn 0.764348(13) 0.163397(13) 0.299090(9)
Zn17 Zn 0.336603(13) 0.264348(13) 0.200910(9)
Zn19 Zn 0.735652(13) 0.336603(13) 0.200910(9)
O33 O 0.18854(10) 0.17892(12) 0.37498(7)
O35 O 0.22169(10) 0.22316(11) 0.33217(6)
O37 O 0.09337(9) 0.23237(9) 0.27908(7)
O39 O 0.06424(9) 0.17976(11) 0.31954(6)
O41 O 0.14053(10) 0.28998(9) 0.33270(7)
O43 O 0.10431(11) 0.24082(10) 0.37199(8)
H27 H 0.104342 0.112494 0.405059
H28 H 0.0661242 0.159006 0.408367
H31 H 0.186888 0.259081 0.237608
H32 H 0.202924 0.303846 0.263822
Zn7_2 Zn 0.54965(2) 0.209596(18) 1.0000
Zn14_2 Zn 0.56728(2) 0.100089(18) 1.0000
Zn1 Zn 0.45035(2) 0.790404(18) 0.0000
Zn3 Zn 0.43272(2) 0.899911(18) 0.0000
O1 O 0.38455(10) 0.87709(9) 0.03775(6)
O2 O 0.4161(2) 0.97144(14) 0.0000
O3 O 0.39755(11) 0.79545(10) 0.03716(7)
O4 O 0.4632(2) 0.71864(14) 0.0000
O6 O 0.32108(12) 0.68854(10) 0.12502(7)
O8 O 0.27684(11) 0.72169(10) 0.16783(6)
O9 O 0.23237(9) 0.90663(9) 0.27908(7)
O10 O 0.17976(11) 0.93576(9) 0.31954(6)
N1 N 0.33021(14) 0.96982(12) 0.12907(9)
N2 N 0.27114(15) 0.97925(12) 0.17477(9)
N4 N 0.28283(15) 0.90437(12) 0.14984(9)
H1 H 0.2589 0.8966 0.1638
C1 C 0.29644(17) 0.95273(14) 0.15048(10)
C4 C 0.30206(17) 0.86439(14) 0.12962(10)
C5 C 0.32900(16) 0.86987(14) 0.09890(10)
H4 H 0.3353 0.9015 0.0900
C6 C 0.34649(14) 0.82852(13) 0.08154(9)
C7 C 0.33737(15) 0.78090(13) 0.09441(9)
H5 H 0.3495 0.7531 0.0826
C8 C 0.30980(15) 0.77511(13) 0.12535(9)
C9 C 0.29227(17) 0.81644(14) 0.14259(9)
H6 H 0.2738 0.8126 0.1630
C10 C 0.37814(14) 0.83409(13) 0.04940(8)
C11 C 0.30217(16) 0.72420(14) 0.14057(9)
C13 C 0.23176(15) 0.99836(13) 0.24425(10)
H7 H 0.2468 0.9716 0.2330
C14 C 0.20638(13) 0.99128(13) 0.27596(9)
C18 C 0.20606(14) 0.94033(13) 0.29257(9)
Zn5 Zn 0.880954(13) 0.829099(13) 0.355307(9)
Zn6 Zn 0.836603(13) 0.764348(13) 0.299090(9)
O19 O 0.91861(13) 0.86529(13) 0.39194(8)
O21 O 0.79750(13) 0.73283(12) 0.26052(8)
O25 O 0.85455(11) 0.88609(10) 0.32629(6)
O26 O 0.82881(10) 0.83614(9) 0.28341(7)
O27 O 0.64053(10) 0.78998(9) 0.16730(7)
O28 O 0.60431(11) 0.74082(10) 0.12801(8)
O29 O 0.49936(12) 0.81405(11) 0.03718(8)
O30 O 0.48781(10) 0.89521(10) 0.03702(7)
N9 N 0.68378(16) 0.95030(11) 0.15428(9)
N11 N 0.73772(17) 0.94244(12) 0.19987(10)
H14 H 0.7329 0.9111 0.1965
N12 N 0.62430(15) 0.96328(12) 0.11084(9)
H15 H 0.6107 0.9854 0.0977
C29 C 0.71689(18) 0.97285(15) 0.17548(11)
C30 C 0.66063(18) 0.98075(14) 0.13260(10)
C39 C 0.76579(16) 0.95411(14) 0.22962(10)
C42 C 0.81586(13) 0.96921(13) 0.29281(8)
H20 H 0.8325 0.9743 0.3139
C43 C 0.81345(13) 0.92230(13) 0.27846(9)
C44 C 0.78783(15) 0.91495(13) 0.24709(10)
H21 H 0.7856 0.8830 0.2378
C46 C 0.83384(13) 0.87813(14) 0.29728(9)
C47 C 0.60542(16) 0.91449(13) 0.10653(10)
C48 C 0.62133(15) 0.87335(14) 0.12599(10)
H22 H 0.6449 0.8770 0.1437
C49 C 0.60126(13) 0.82677(13) 0.11846(9)
C50 C 0.56593(14) 0.82063(13) 0.09228(9)
H23 H 0.5535 0.7892 0.0870
C51 C 0.54931(14) 0.86266(14) 0.07399(9)
C52 C 0.56955(15) 0.90883(13) 0.08103(9)
H24 H 0.5588 0.9365 0.0684
C53 C 0.61699(13) 0.78221(14) 0.13951(10)
C54 C 0.50923(14) 0.85651(14) 0.04726(9)
Zn9 Zn 0.170901(13) 0.880954(13) 0.355307(9)
Zn11 Zn 0.619046(13) 0.670901(13) 0.144693(9)
Zn13 Zn 0.329099(13) 0.619046(13) 0.144693(9)
Zn16 Zn 0.235652(13) 0.836603(13) 0.299090(9)
Zn18 Zn 0.663397(13) 0.735652(13) 0.200910(9)
Zn20 Zn 0.264348(13) 0.663397(13) 0.200910(9)
O34 O 0.81146(10) 0.82108(12) 0.37498(7)
O36 O 0.77831(10) 0.77684(11) 0.33217(6)
O38 O 0.90663(9) 0.76763(9) 0.27908(7)
O40 O 0.93576(9) 0.82024(11) 0.31954(6)
O42 O 0.85947(10) 0.71002(9) 0.33270(7)
O44 O 0.89569(11) 0.75918(10) 0.37199(8)
H29 H 0.422567 0.985596 0.0236251
H33 H 0.895658 0.887506 0.405059
H34 H 0.933876 0.840994 0.408367
H35 H 0.813112 0.740919 0.237608
H36 H 0.797076 0.696154 0.263822
Zn1_2 Zn 0.45035(2) 0.790404(18) 1.0000
Zn3_2 Zn 0.43272(2) 0.899911(18) 1.0000
O2_2 O 0.4161(2) 0.97144(14) 1.0000
O4_2 O 0.4632(2) 0.71864(14) 1.0000
O31 O 0.38455(10) 0.87709(9) 0.96225(6)
O32 O 0.39755(11) 0.79545(10) 0.96284(7)
O45 O 0.49936(12) 0.81405(11) 0.96282(8)
O46 O 0.48781(10) 0.89521(10) 0.96298(7)
H25 H 0.432087 0.700547 0.994028
H26 H 0.489243 0.710782 0.982359
H30 H 0.436976 0.988944 0.982391
O2_3 O 0.5839(2) 0.02856(14) 0.0000
O4_3 O 0.5368(2) 0.28136(14) 0.0000
H29_2 H 0.577433 0.0144036 0.0236251
O2_4 O 0.5839(2) 0.02856(14) 1.0000
O4_4 O 0.5368(2) 0.28136(14) 1.0000
O31_2 O 0.61545(10) 0.12291(9) 0.96225(6)
O32_2 O 0.60245(11) 0.20455(10) 0.96284(7)
O45_2 O 0.50064(12) 0.18595(11) 0.96282(8)
O46_2 O 0.51219(10) 0.10479(10) 0.96298(7)
H25_2 H 0.567913 0.299453 0.994028
H26_2 H 0.510757 0.289218 0.982359
H30_2 H 0.563024 0.0110555 0.982391
Zn1_3 Zn 0.209596(18) 0.45035(2) 0.0000
Zn3_3 Zn 0.100089(18) 0.43272(2) 0.0000
O1_2 O 0.12291(9) 0.38455(10) 0.03775(6)
O2_5 O 0.02856(14) 0.4161(2) 0.0000
O3_2 O 0.20455(10) 0.39755(11) 0.03716(7)
O4_5 O 0.28136(14) 0.4632(2) 0.0000
O6_2 O 0.31146(10) 0.32108(12) 0.12502(7)
O8_2 O 0.27831(10) 0.27684(11) 0.16783(6)
N1_2 N 0.03018(12) 0.33021(14) 0.12907(9)
N2_2 N 0.02075(12) 0.27114(15) 0.17477(9)
N4_2 N 0.09563(12) 0.28283(15) 0.14984(9)
H1_2 H 0.1034 0.2589 0.1638
C1_2 C 0.04727(14) 0.29644(17) 0.15048(10)
C4_2 C 0.13561(14) 0.30206(17) 0.12962(10)
C5_2 C 0.13013(14) 0.32900(16) 0.09890(10)
H4_2 H 0.0985 0.3353 0.0900
C6_2 C 0.17148(13) 0.34649(14) 0.08154(9)
C7_2 C 0.21910(13) 0.33737(15) 0.09441(9)
H5_2 H 0.2469 0.3495 0.0826
C8_2 C 0.22489(13) 0.30980(15) 0.12535(9)
C9_2 C 0.18356(14) 0.29227(17) 0.14259(9)
H6_2 H 0.1874 0.2738 0.1630
C10_2 C 0.16591(13) 0.37814(14) 0.04940(8)
C11_2 C 0.27580(14) 0.30217(16) 0.14057(9)
C13_2 C 0.00164(13) 0.23176(15) 0.24425(10)
H7_2 H 0.0284 0.2468 0.2330
C14_2 C 0.00872(13) 0.20638(13) 0.27596(9)
C18_2 C 0.05967(13) 0.20606(14) 0.29257(9)
O19_2 O 0.13471(13) 0.91861(13) 0.39194(8)
O21_2 O 0.26717(12) 0.79750(13) 0.26052(8)
O25_2 O 0.11391(10) 0.85455(11) 0.32629(6)
O26_2 O 0.16386(9) 0.82881(10) 0.28341(7)
O27_2 O 0.21002(9) 0.64053(10) 0.16730(7)
O28_2 O 0.25918(10) 0.60431(11) 0.12801(8)
O29_2 O 0.18595(11) 0.49936(12) 0.03718(8)
O30_2 O 0.10479(10) 0.48781(10) 0.03702(7)
N9_2 N 0.04970(11) 0.68378(16) 0.15428(9)
N11_2 N 0.05756(12) 0.73772(17) 0.19987(10)
H14_2 H 0.0889 0.7329 0.1965
N12_2 N 0.03672(12) 0.62430(15) 0.11084(9)
H15_2 H 0.0146 0.6107 0.0977
C29_2 C 0.02715(15) 0.71689(18) 0.17548(11)
C30_2 C 0.01925(14) 0.66063(18) 0.13260(10)
C39_2 C 0.04589(14) 0.76579(16) 0.22962(10)
C42_2 C 0.03079(13) 0.81586(13) 0.29281(8)
H20_2 H 0.0257 0.8325 0.3139
C43_2 C 0.07770(13) 0.81345(13) 0.27846(9)
C44_2 C 0.08505(13) 0.78783(15) 0.24709(10)
H21_2 H 0.1170 0.7856 0.2378
C46_2 C 0.12187(14) 0.83384(13) 0.29728(9)
C47_2 C 0.08551(13) 0.60542(16) 0.10653(10)
C48_2 C 0.12665(14) 0.62133(15) 0.12599(10)
H22_2 H 0.1230 0.6449 0.1437
C49_2 C 0.17323(13) 0.60126(13) 0.11846(9)
C50_2 C 0.17937(13) 0.56593(14) 0.09228(9)
H23_2 H 0.2108 0.5535 0.0870
C51_2 C 0.13734(14) 0.54931(14) 0.07399(9)
C52_2 C 0.09117(13) 0.56955(15) 0.08103(9)
H24_2 H 0.0635 0.5588 0.0684
C53_2 C 0.21779(14) 0.61699(13) 0.13951(10)
C54_2 C 0.14349(14) 0.50923(14) 0.04726(9)
O34_2 O 0.17892(12) 0.81146(10) 0.37498(7)
O36_2 O 0.22316(11) 0.77831(10) 0.33217(6)
O42_2 O 0.28998(9) 0.85947(10) 0.33270(7)
O44_2 O 0.24082(10) 0.89569(11) 0.37199(8)
H29_3 H 0.0144036 0.422567 0.0236251
H33_2 H 0.112494 0.895658 0.405059
H34_2 H 0.159006 0.933876 0.408367
H35_2 H 0.259081 0.813112 0.237608
H36_2 H 0.303846 0.797076 0.263822
Zn1_4 Zn 0.209596(18) 0.45035(2) 1.0000
Zn3_4 Zn 0.100089(18) 0.43272(2) 1.0000
O2_6 O 0.02856(14) 0.4161(2) 1.0000
O4_6 O 0.28136(14) 0.4632(2) 1.0000
O31_3 O 0.12291(9) 0.38455(10) 0.96225(6)
O32_3 O 0.20455(10) 0.39755(11) 0.96284(7)
O45_3 O 0.18595(11) 0.49936(12) 0.96282(8)
O46_3 O 0.10479(10) 0.48781(10) 0.96298(7)
H25_3 H 0.299453 0.432087 0.994028
H26_3 H 0.289218 0.489243 0.982359
H30_3 H 0.0110555 0.436976 0.982391
O5_2 O 0.86529(13) 0.08139(13) 0.39194(8)
O7_2 O 0.73283(12) 0.20250(13) 0.26052(8)
O11_2 O 0.88609(10) 0.14545(11) 0.32629(6)
O12_2 O 0.83614(9) 0.17119(10) 0.28341(7)
O13_2 O 0.78998(9) 0.35947(10) 0.16730(7)
O14_2 O 0.74082(10) 0.39569(11) 0.12801(8)
O15_2 O 0.81405(11) 0.50064(12) 0.03718(8)
O16_2 O 0.89521(10) 0.51219(10) 0.03702(7)
N3_2 N 0.95030(11) 0.31622(16) 0.15428(9)
N5_2 N 0.94244(12) 0.26228(17) 0.19987(10)
H2_2 H 0.9111 0.2671 0.1965
N6_2 N 0.96328(12) 0.37570(15) 0.11084(9)
H3_2 H 0.9854 0.3893 0.0977
C2_2 C 0.97285(15) 0.28311(18) 0.17548(11)
C3_2 C 0.98075(14) 0.33937(18) 0.13260(10)
C12_2 C 0.95411(14) 0.23421(16) 0.22962(10)
C15_2 C 0.96921(13) 0.18414(13) 0.29281(8)
H8_2 H 0.9743 0.1675 0.3139
C16_2 C 0.92230(13) 0.18655(13) 0.27846(9)
C17_2 C 0.91495(13) 0.21217(15) 0.24709(10)
H9_2 H 0.8830 0.2144 0.2378
C19_2 C 0.87813(14) 0.16616(13) 0.29728(9)
C20_2 C 0.91449(13) 0.39458(16) 0.10653(10)
C21_2 C 0.87335(14) 0.37867(15) 0.12599(10)
H10_2 H 0.8770 0.3551 0.1437
C22_2 C 0.82677(13) 0.39874(13) 0.11846(9)
C23_2 C 0.82063(13) 0.43407(14) 0.09228(9)
H11_2 H 0.7892 0.4465 0.0870
C24_2 C 0.86266(14) 0.45069(14) 0.07399(9)
C25_2 C 0.90883(13) 0.43045(15) 0.08103(9)
H12_2 H 0.9365 0.4412 0.0684
C26_2 C 0.78221(14) 0.38301(13) 0.13951(10)
C27_2 C 0.85651(14) 0.49077(14) 0.04726(9)
O17_2 O 0.87709(9) 0.61545(10) 0.03775(6)
O18_2 O 0.79545(10) 0.60245(11) 0.03716(7)
O20_2 O 0.68854(10) 0.67892(12) 0.12502(7)
O22_2 O 0.72169(10) 0.72316(11) 0.16783(6)
N7_2 N 0.96982(12) 0.66979(14) 0.12907(9)
N8_2 N 0.97925(12) 0.72886(15) 0.17477(9)
N10_2 N 0.90437(12) 0.71717(15) 0.14984(9)
H13_2 H 0.8966 0.7411 0.1638
C28_2 C 0.95273(14) 0.70356(17) 0.15048(10)
C31_2 C 0.86439(14) 0.69794(17) 0.12962(10)
C32_2 C 0.86987(14) 0.67100(16) 0.09890(10)
H16_2 H 0.9015 0.6647 0.0900
C33_2 C 0.82852(13) 0.65351(14) 0.08154(9)
C34_2 C 0.78090(13) 0.66263(15) 0.09441(9)
H17_2 H 0.7531 0.6505 0.0826
C35_2 C 0.77511(13) 0.69020(15) 0.12535(9)
C36_2 C 0.81644(14) 0.70773(17) 0.14259(9)
H18_2 H 0.8126 0.7262 0.1630
C37_2 C 0.83409(13) 0.62186(14) 0.04940(8)
C38_2 C 0.72420(14) 0.69783(16) 0.14057(9)
C40_2 C 0.99836(13) 0.76824(15) 0.24425(10)
H19_2 H 0.9716 0.7532 0.2330
C41_2 C 0.99128(13) 0.79362(13) 0.27596(9)
C45_2 C 0.94033(13) 0.79394(14) 0.29257(9)
Zn7_3 Zn 0.790404(18) 0.54965(2) 0.0000
Zn14_3 Zn 0.899911(18) 0.56728(2) 0.0000
O33_2 O 0.82108(12) 0.18854(10) 0.37498(7)
O35_2 O 0.77684(11) 0.22169(10) 0.33217(6)
O41_2 O 0.71002(9) 0.14053(10) 0.33270(7)
O43_2 O 0.75918(10) 0.10431(11) 0.37199(8)
H27_2 H 0.887506 0.104342 0.405059
H28_2 H 0.840994 0.0661242 0.408367
H31_2 H 0.740919 0.186888 0.237608
H32_2 H 0.696154 0.202924 0.263822
Zn7_4 Zn 0.790404(18) 0.54965(2) 1.0000
Zn14_4 Zn 0.899911(18) 0.56728(2) 1.0000
O2_7 O 0.97144(14) 0.5839(2) 0.0000
O4_7 O 0.71864(14) 0.5368(2) 0.0000
H29_4 H 0.985596 0.577433 0.0236251
O2_8 O 0.97144(14) 0.5839(2) 1.0000
O4_8 O 0.71864(14) 0.5368(2) 1.0000
O31_4 O 0.87709(9) 0.61545(10) 0.96225(6)
O32_4 O 0.79545(10) 0.60245(11) 0.96284(7)
O45_4 O 0.81405(11) 0.50064(12) 0.96282(8)
O46_4 O 0.89521(10) 0.51219(10) 0.96298(7)
H25_4 H 0.700547 0.567913 0.994028
H26_4 H 0.710782 0.510757 0.982359
H30_4 H 0.988944 0.563024 0.982391
O15_3 O 0.00064(12) 0.68595(11) 0.53718(8)
O16_3 O 0.01219(10) 0.60479(10) 0.53702(7)
Zn5_2 Zn 0.380954(13) 0.329099(13) 0.855307(9)
Zn6_2 Zn 0.336603(13) 0.264348(13) 0.799090(9)
O17_3 O 0.11545(10) 0.62291(9) 0.53775(6)
O18_3 O 0.10245(11) 0.70455(10) 0.53716(7)
O19_3 O 0.41861(13) 0.36529(13) 0.89194(8)
O20_3 O 0.17892(12) 0.81146(10) 0.62502(7)
O21_3 O 0.29750(13) 0.23283(12) 0.76052(8)
O22_3 O 0.22316(11) 0.77831(10) 0.66783(6)
O23_2 O 0.26763(9) 0.59337(9) 0.77908(7)
O24_2 O 0.32024(11) 0.56424(9) 0.81954(6)
O25_3 O 0.35455(11) 0.38609(10) 0.82629(6)
O26_3 O 0.32881(10) 0.33614(9) 0.78341(7)
O27_3 O 0.14053(10) 0.28998(9) 0.66730(7)
O28_3 O 0.10431(11) 0.24082(10) 0.62801(8)
N7_3 N 0.16979(14) 0.53018(12) 0.62907(9)
N8_3 N 0.22886(15) 0.52075(12) 0.67477(9)
N9_3 N 0.18378(16) 0.45030(11) 0.65428(9)
N10_3 N 0.21717(15) 0.59563(12) 0.64984(9)
H13_3 H 0.2411 0.6034 0.6638
N11_3 N 0.23772(17) 0.44244(12) 0.69987(10)
H14_3 H 0.2329 0.4111 0.6965
N12_3 N 0.12430(15) 0.46328(12) 0.61084(9)
H15_3 H 0.1107 0.4854 0.5977
C28_3 C 0.20356(17) 0.54727(14) 0.65048(10)
C29_3 C 0.21689(18) 0.47285(15) 0.67548(11)
C30_3 C 0.16063(18) 0.48075(14) 0.63260(10)
C31_3 C 0.19794(17) 0.63561(14) 0.62962(10)
C32_3 C 0.17100(16) 0.63013(14) 0.59890(10)
H16_3 H 0.1647 0.5985 0.5900
C33_3 C 0.15351(14) 0.67148(13) 0.58154(9)
C34_3 C 0.16263(15) 0.71910(13) 0.59441(9)
H17_3 H 0.1505 0.7469 0.5826
C35_3 C 0.19020(15) 0.72489(13) 0.62535(9)
C36_3 C 0.20773(17) 0.68356(14) 0.64259(9)
H18_3 H 0.2262 0.6874 0.6630
C37_3 C 0.12186(14) 0.66591(13) 0.54940(8)
C38_3 C 0.19783(16) 0.77580(14) 0.64057(9)
C39_3 C 0.26579(16) 0.45411(14) 0.72962(10)
C40_3 C 0.26824(15) 0.50164(13) 0.74425(10)
H19_3 H 0.2532 0.5284 0.7330
C41_3 C 0.29362(13) 0.50872(13) 0.77596(9)
C42_3 C 0.31586(13) 0.46921(13) 0.79281(8)
H20_3 H 0.3325 0.4743 0.8139
C43_3 C 0.31345(13) 0.42230(13) 0.77846(9)
C44_3 C 0.28783(15) 0.41495(13) 0.74709(10)
H21_3 H 0.2856 0.3830 0.7378
C45_3 C 0.29394(14) 0.55967(13) 0.79257(9)
C46_3 C 0.33384(13) 0.37813(14) 0.79728(9)
C47_3 C 0.10542(16) 0.41449(13) 0.60653(10)
C48_3 C 0.12133(15) 0.37335(14) 0.62599(10)
H22_3 H 0.1449 0.3770 0.6437
C49_3 C 0.10126(13) 0.32677(13) 0.61846(9)
C50_3 C 0.06593(14) 0.32063(13) 0.59228(9)
H23_3 H 0.0535 0.2892 0.5870
C51_3 C 0.04931(14) 0.36266(14) 0.57399(9)
C52_3 C 0.06955(15) 0.40883(13) 0.58103(9)
H24_3 H 0.0588 0.4365 0.5684
C53_3 C 0.11699(13) 0.28221(14) 0.63951(10)
C54_3 C 0.00923(14) 0.35651(14) 0.54726(9)
Zn7_5 Zn 0.04965(2) 0.709596(18) 0.5000
Zn8_2 Zn 0.329099(13) 0.619046(13) 0.855307(9)
Zn11_2 Zn 0.119046(13) 0.170901(13) 0.644693(9)
Zn12_2 Zn 0.170901(13) 0.880954(13) 0.644693(9)
Zn14_5 Zn 0.06728(2) 0.600089(18) 0.5000
Zn15_2 Zn 0.264348(13) 0.663397(13) 0.799090(9)
Zn18_2 Zn 0.163397(13) 0.235652(13) 0.700910(9)
Zn19_2 Zn 0.235652(13) 0.836603(13) 0.700910(9)
O34_3 O 0.31146(10) 0.32108(12) 0.87498(7)
O36_3 O 0.27831(10) 0.27684(11) 0.83217(6)
O38_2 O 0.40663(9) 0.26763(9) 0.77908(7)
O40_2 O 0.43576(9) 0.32024(11) 0.81954(6)
O42_3 O 0.35947(10) 0.21002(9) 0.83270(7)
O44_3 O 0.39569(11) 0.25918(10) 0.87199(8)
H33_3 H 0.395658 0.387506 0.905059
H34_3 H 0.433876 0.340994 0.908367
H35_3 H 0.313112 0.240919 0.737608
H36_3 H 0.297076 0.196154 0.763822
Zn1_5 Zn 0.95035(2) 0.290404(18) 0.5000
Zn2_2 Zn 0.619046(13) 0.670901(13) 0.855307(9)
Zn3_5 Zn 0.93272(2) 0.399911(18) 0.5000
Zn4_2 Zn 0.663397(13) 0.735652(13) 0.799090(9)
O1_3 O 0.88455(10) 0.37709(9) 0.53775(6)
O2_9 O 0.9161(2) 0.47144(14) 0.5000
O3_3 O 0.89755(11) 0.29545(10) 0.53716(7)
O4_9 O 0.9632(2) 0.21864(14) 0.5000
O5_3 O 0.58139(13) 0.63471(13) 0.89194(8)
O6_3 O 0.82108(12) 0.18854(10) 0.62502(7)
O7_3 O 0.70250(13) 0.76717(12) 0.76052(8)
O8_3 O 0.77684(11) 0.22169(10) 0.66783(6)
O9_2 O 0.73237(9) 0.40663(9) 0.77908(7)
O10_2 O 0.67976(11) 0.43576(9) 0.81954(6)
O11_3 O 0.64545(11) 0.61391(10) 0.82629(6)
O12_3 O 0.67119(10) 0.66386(9) 0.78341(7)
O13_3 O 0.85947(10) 0.71002(9) 0.66730(7)
O14_3 O 0.89569(11) 0.75918(10) 0.62801(8)
N1_3 N 0.83021(14) 0.46982(12) 0.62907(9)
N2_3 N 0.77114(15) 0.47925(12) 0.67477(9)
N3_3 N 0.81622(16) 0.54970(11) 0.65428(9)
N4_3 N 0.78283(15) 0.40437(12) 0.64984(9)
H1_3 H 0.7589 0.3966 0.6638
N5_3 N 0.76228(17) 0.55756(12) 0.69987(10)
H2_3 H 0.7671 0.5889 0.6965
N6_3 N 0.87570(15) 0.53672(12) 0.61084(9)
H3_3 H 0.8893 0.5146 0.5977
C1_3 C 0.79644(17) 0.45273(14) 0.65048(10)
C2_3 C 0.78311(18) 0.52715(15) 0.67548(11)
C3_3 C 0.83937(18) 0.51925(14) 0.63260(10)
C4_3 C 0.80206(17) 0.36439(14) 0.62962(10)
C5_3 C 0.82900(16) 0.36987(14) 0.59890(10)
H4_3 H 0.8353 0.4015 0.5900
C6_3 C 0.84649(14) 0.32852(13) 0.58154(9)
C7_3 C 0.83737(15) 0.28090(13) 0.59441(9)
H5_3 H 0.8495 0.2531 0.5826
C8_3 C 0.80980(15) 0.27511(13) 0.62535(9)
C9_3 C 0.79227(17) 0.31644(14) 0.64259(9)
H6_3 H 0.7738 0.3126 0.6630
C10_3 C 0.87814(14) 0.33409(13) 0.54940(8)
C11_3 C 0.80217(16) 0.22420(14) 0.64057(9)
C12_3 C 0.73421(16) 0.54589(14) 0.72962(10)
C13_3 C 0.73176(15) 0.49836(13) 0.74425(10)
H7_3 H 0.7468 0.4716 0.7330
C14_3 C 0.70638(13) 0.49128(13) 0.77596(9)
C15_3 C 0.68414(13) 0.53079(13) 0.79281(8)
H8_3 H 0.6675 0.5257 0.8139
C16_3 C 0.68655(13) 0.57770(13) 0.77846(9)
C17_3 C 0.71217(15) 0.58505(13) 0.74709(10)
H9_3 H 0.7144 0.6170 0.7378
C18_3 C 0.70606(14) 0.44033(13) 0.79257(9)
C19_3 C 0.66616(13) 0.62187(14) 0.79728(9)
C20_3 C 0.89458(16) 0.58551(13) 0.60653(10)
C21_3 C 0.87867(15) 0.62665(14) 0.62599(10)
H10_3 H 0.8551 0.6230 0.6437
C22_3 C 0.89874(13) 0.67323(13) 0.61846(9)
C23_3 C 0.93407(14) 0.67937(13) 0.59228(9)
H11_3 H 0.9465 0.7108 0.5870
C24_3 C 0.95069(14) 0.63734(14) 0.57399(9)
C25_3 C 0.93045(15) 0.59117(13) 0.58103(9)
H12_3 H 0.9412 0.5635 0.5684
C26_3 C 0.88301(13) 0.71779(14) 0.63951(10)
C27_3 C 0.99077(14) 0.64349(14) 0.54726(9)
O29_3 O 0.99936(12) 0.31405(11) 0.53718(8)
O30_3 O 0.98781(10) 0.39521(10) 0.53702(7)
Zn9_2 Zn 0.670901(13) 0.380954(13) 0.855307(9)
Zn10_2 Zn 0.880954(13) 0.829099(13) 0.644693(9)
Zn13_2 Zn 0.829099(13) 0.119046(13) 0.644693(9)
Zn16_2 Zn 0.735652(13) 0.336603(13) 0.799090(9)
Zn17_2 Zn 0.836603(13) 0.764348(13) 0.700910(9)
Zn20_2 Zn 0.764348(13) 0.163397(13) 0.700910(9)
O31_5 O 0.88455(10) 0.37709(9) 0.46225(6)
O32_5 O 0.89755(11) 0.29545(10) 0.46284(7)
O33_3 O 0.68854(10) 0.67892(12) 0.87498(7)
O35_3 O 0.72169(10) 0.72316(11) 0.83217(6)
O37_2 O 0.59337(9) 0.73237(9) 0.77908(7)
O39_2 O 0.56424(9) 0.67976(11) 0.81954(6)
O41_3 O 0.64053(10) 0.78998(9) 0.83270(7)
O43_3 O 0.60431(11) 0.74082(10) 0.87199(8)
O45_5 O 0.99936(12) 0.31405(11) 0.46282(8)
O46_5 O 0.98781(10) 0.39521(10) 0.46298(7)
H27_3 H 0.604342 0.612494 0.905059
H28_3 H 0.566124 0.659006 0.908367
H31_3 H 0.686888 0.759081 0.737608
H32_3 H 0.702924 0.803846 0.763822
O2_10 O 0.0839(2) 0.52856(14) 0.5000
O4_10 O 0.0368(2) 0.78136(14) 0.5000
O31_6 O 0.11545(10) 0.62291(9) 0.46225(6)
O32_6 O 0.10245(11) 0.70455(10) 0.46284(7)
O45_6 O 0.00064(12) 0.68595(11) 0.46282(8)
O46_6 O 0.01219(10) 0.60479(10) 0.46298(7)
O15_4 O 0.31405(11) 0.00064(12) 0.53718(8)
O16_4 O 0.39521(10) 0.01219(10) 0.53702(7)
O17_4 O 0.37709(9) 0.11545(10) 0.53775(6)
O18_4 O 0.29545(10) 0.10245(11) 0.53716(7)
O19_4 O 0.63471(13) 0.41861(13) 0.89194(8)
O20_4 O 0.18854(10) 0.17892(12) 0.62502(7)
O21_4 O 0.76717(12) 0.29750(13) 0.76052(8)
O22_4 O 0.22169(10) 0.22316(11) 0.66783(6)
O25_4 O 0.61391(10) 0.35455(11) 0.82629(6)
O26_4 O 0.66386(9) 0.32881(10) 0.78341(7)
O27_4 O 0.71002(9) 0.14053(10) 0.66730(7)
O28_4 O 0.75918(10) 0.10431(11) 0.62801(8)
N7_4 N 0.46982(12) 0.16979(14) 0.62907(9)
N8_4 N 0.47925(12) 0.22886(15) 0.67477(9)
N9_4 N 0.54970(11) 0.18378(16) 0.65428(9)
N10_4 N 0.40437(12) 0.21717(15) 0.64984(9)
H13_4 H 0.3966 0.2411 0.6638
N11_4 N 0.55756(12) 0.23772(17) 0.69987(10)
H14_4 H 0.5889 0.2329 0.6965
N12_4 N 0.53672(12) 0.12430(15) 0.61084(9)
H15_4 H 0.5146 0.1107 0.5977
C28_4 C 0.45273(14) 0.20356(17) 0.65048(10)
C29_4 C 0.52715(15) 0.21689(18) 0.67548(11)
C30_4 C 0.51925(14) 0.16063(18) 0.63260(10)
C31_4 C 0.36439(14) 0.19794(17) 0.62962(10)
C32_4 C 0.36987(14) 0.17100(16) 0.59890(10)
H16_4 H 0.4015 0.1647 0.5900
C33_4 C 0.32852(13) 0.15351(14) 0.58154(9)
C34_4 C 0.28090(13) 0.16263(15) 0.59441(9)
H17_4 H 0.2531 0.1505 0.5826
C35_4 C 0.27511(13) 0.19020(15) 0.62535(9)
C36_4 C 0.31644(14) 0.20773(17) 0.64259(9)
H18_4 H 0.3126 0.2262 0.6630
C37_4 C 0.33409(13) 0.12186(14) 0.54940(8)
C38_4 C 0.22420(14) 0.19783(16) 0.64057(9)
C39_4 C 0.54589(14) 0.26579(16) 0.72962(10)
C40_4 C 0.49836(13) 0.26824(15) 0.74425(10)
H19_4 H 0.4716 0.2532 0.7330
C41_4 C 0.49128(13) 0.29362(13) 0.77596(9)
C42_4 C 0.53079(13) 0.31586(13) 0.79281(8)
H20_4 H 0.5257 0.3325 0.8139
C43_4 C 0.57770(13) 0.31345(13) 0.77846(9)
C44_4 C 0.58505(13) 0.28783(15) 0.74709(10)
H21_4 H 0.6170 0.2856 0.7378
C45_4 C 0.44033(13) 0.29394(14) 0.79257(9)
C46_4 C 0.62187(14) 0.33384(13) 0.79728(9)
C47_4 C 0.58551(13) 0.10542(16) 0.60653(10)
C48_4 C 0.62665(14) 0.12133(15) 0.62599(10)
H22_4 H 0.6230 0.1449 0.6437
C49_4 C 0.67323(13) 0.10126(13) 0.61846(9)
C50_4 C 0.67937(13) 0.06593(14) 0.59228(9)
H23_4 H 0.7108 0.0535 0.5870
C51_4 C 0.63734(14) 0.04931(14) 0.57399(9)
C52_4 C 0.59117(13) 0.06955(15) 0.58103(9)
H24_4 H 0.5635 0.0588 0.5684
C53_4 C 0.71779(14) 0.11699(13) 0.63951(10)
C54_4 C 0.64349(14) 0.00923(14) 0.54726(9)
Zn7_6 Zn 0.290404(18) 0.04965(2) 0.5000
Zn14_6 Zn 0.399911(18) 0.06728(2) 0.5000
O34_4 O 0.67892(12) 0.31146(10) 0.87498(7)
O36_4 O 0.72316(11) 0.27831(10) 0.83217(6)
O42_4 O 0.78998(9) 0.35947(10) 0.83270(7)
O44_4 O 0.74082(10) 0.39569(11) 0.87199(8)
H33_4 H 0.612494 0.395658 0.905059
H34_4 H 0.659006 0.433876 0.908367
H35_4 H 0.759081 0.313112 0.737608
H36_4 H 0.803846 0.297076 0.763822
Zn1_6 Zn 0.709596(18) 0.95035(2) 0.5000
Zn3_6 Zn 0.600089(18) 0.93272(2) 0.5000
O1_4 O 0.62291(9) 0.88455(10) 0.53775(6)
O2_11 O 0.52856(14) 0.9161(2) 0.5000
O3_4 O 0.70455(10) 0.89755(11) 0.53716(7)
O4_11 O 0.78136(14) 0.9632(2) 0.5000
O5_4 O 0.36529(13) 0.58139(13) 0.89194(8)
O6_4 O 0.81146(10) 0.82108(12) 0.62502(7)
O7_4 O 0.23283(12) 0.70250(13) 0.76052(8)
O8_4 O 0.77831(10) 0.77684(11) 0.66783(6)
O11_4 O 0.38609(10) 0.64545(11) 0.82629(6)
O12_4 O 0.33614(9) 0.67119(10) 0.78341(7)
O13_4 O 0.28998(9) 0.85947(10) 0.66730(7)
O14_4 O 0.24082(10) 0.89569(11) 0.62801(8)
N1_4 N 0.53018(12) 0.83021(14) 0.62907(9)
N2_4 N 0.52075(12) 0.77114(15) 0.67477(9)
N3_4 N 0.45030(11) 0.81622(16) 0.65428(9)
N4_4 N 0.59563(12) 0.78283(15) 0.64984(9)
H1_4 H 0.6034 0.7589 0.6638
N5_4 N 0.44244(12) 0.76228(17) 0.69987(10)
H2_4 H 0.4111 0.7671 0.6965
N6_4 N 0.46328(12) 0.87570(15) 0.61084(9)
H3_4 H 0.4854 0.8893 0.5977
C1_4 C 0.54727(14) 0.79644(17) 0.65048(10)
C2_4 C 0.47285(15) 0.78311(18) 0.67548(11)
C3_4 C 0.48075(14) 0.83937(18) 0.63260(10)
C4_4 C 0.63561(14) 0.80206(17) 0.62962(10)
C5_4 C 0.63013(14) 0.82900(16) 0.59890(10)
H4_4 H 0.5985 0.8353 0.5900
C6_4 C 0.67148(13) 0.84649(14) 0.58154(9)
C7_4 C 0.71910(13) 0.83737(15) 0.59441(9)
H5_4 H 0.7469 0.8495 0.5826
C8_4 C 0.72489(13) 0.80980(15) 0.62535(9)
C9_4 C 0.68356(14) 0.79227(17) 0.64259(9)
H6_4 H 0.6874 0.7738 0.6630
C10_4 C 0.66591(13) 0.87814(14) 0.54940(8)
C11_4 C 0.77580(14) 0.80217(16) 0.64057(9)
C12_4 C 0.45411(14) 0.73421(16) 0.72962(10)
C13_4 C 0.50164(13) 0.73176(15) 0.74425(10)
H7_4 H 0.5284 0.7468 0.7330
C14_4 C 0.50872(13) 0.70638(13) 0.77596(9)
C15_4 C 0.46921(13) 0.68414(13) 0.79281(8)
H8_4 H 0.4743 0.6675 0.8139
C16_4 C 0.42230(13) 0.68655(13) 0.77846(9)
C17_4 C 0.41495(13) 0.71217(15) 0.74709(10)
H9_4 H 0.3830 0.7144 0.7378
C18_4 C 0.55967(13) 0.70606(14) 0.79257(9)
C19_4 C 0.37813(14) 0.66616(13) 0.79728(9)
C20_4 C 0.41449(13) 0.89458(16) 0.60653(10)
C21_4 C 0.37335(14) 0.87867(15) 0.62599(10)
H10_4 H 0.3770 0.8551 0.6437
C22_4 C 0.32677(13) 0.89874(13) 0.61846(9)
C23_4 C 0.32063(13) 0.93407(14) 0.59228(9)
H11_4 H 0.2892 0.9465 0.5870
C24_4 C 0.36266(14) 0.95069(14) 0.57399(9)
C25_4 C 0.40883(13) 0.93045(15) 0.58103(9)
H12_4 H 0.4365 0.9412 0.5684
C26_4 C 0.28221(14) 0.88301(13) 0.63951(10)
C27_4 C 0.35651(14) 0.99077(14) 0.54726(9)
O29_4 O 0.68595(11) 0.99936(12) 0.53718(8)
O30_4 O 0.60479(10) 0.98781(10) 0.53702(7)
O31_7 O 0.62291(9) 0.88455(10) 0.46225(6)
O32_7 O 0.70455(10) 0.89755(11) 0.46284(7)
O33_4 O 0.32108(12) 0.68854(10) 0.87498(7)
O35_4 O 0.27684(11) 0.72169(10) 0.83217(6)
O41_4 O 0.21002(9) 0.64053(10) 0.83270(7)
O43_4 O 0.25918(10) 0.60431(11) 0.87199(8)
O45_7 O 0.68595(11) 0.99936(12) 0.46282(8)
O46_7 O 0.60479(10) 0.98781(10) 0.46298(7)
H27_4 H 0.387506 0.604342 0.905059
H28_4 H 0.340994 0.566124 0.908367
H31_4 H 0.240919 0.686888 0.737608
H32_4 H 0.196154 0.702924 0.763822
O2_12 O 0.47144(14) 0.0839(2) 0.5000
O4_12 O 0.21864(14) 0.0368(2) 0.5000
O31_8 O 0.37709(9) 0.11545(10) 0.46225(6)
O32_8 O 0.29545(10) 0.10245(11) 0.46284(7)
O45_8 O 0.31405(11) 0.00064(12) 0.46282(8)
O46_8 O 0.39521(10) 0.01219(10) 0.46298(7)
H25_5 H 0.567913 0.299453 0.00597232
H26_5 H 0.510757 0.289218 0.0176405
H30_5 H 0.563024 0.0110555 0.0176093
O9_3 O 0.76763(9) 0.09337(9) 0.72092(7)
O10_3 O 0.82024(11) 0.06424(9) 0.68046(6)
N1_5 N 0.66979(14) 0.03018(12) 0.87093(9)
N2_5 N 0.72886(15) 0.02075(12) 0.82523(9)
N4_5 N 0.71717(15) 0.09563(12) 0.85016(9)
H1_5 H 0.7411 0.1034 0.8362
C1_5 C 0.70356(17) 0.04727(14) 0.84952(10)
C4_5 C 0.69794(17) 0.13561(14) 0.87038(10)
C5_5 C 0.67100(16) 0.13013(14) 0.90110(10)
H4_5 H 0.6647 0.0985 0.9100
C6_5 C 0.65351(14) 0.17148(13) 0.91846(9)
C7_5 C 0.66263(15) 0.21910(13) 0.90559(9)
H5_5 H 0.6505 0.2469 0.9174
C8_5 C 0.69020(15) 0.22489(13) 0.87465(9)
C9_5 C 0.70773(17) 0.18356(14) 0.85741(9)
H6_5 H 0.7262 0.1874 0.8370
C10_5 C 0.62186(14) 0.16591(13) 0.95060(8)
C11_5 C 0.69783(16) 0.27580(14) 0.85943(9)
C13_5 C 0.76824(15) 0.00164(13) 0.75575(10)
H7_5 H 0.7532 0.0284 0.7670
C14_5 C 0.79362(13) 0.00872(13) 0.72404(9)
C18_5 C 0.79394(14) 0.05967(13) 0.70743(9)
O19_5 O 0.08139(13) 0.13471(13) 0.60806(8)
O21_5 O 0.20250(13) 0.26717(12) 0.73948(8)
O25_5 O 0.14545(11) 0.11391(10) 0.67371(6)
O26_5 O 0.17119(10) 0.16386(9) 0.71659(7)
N9_5 N 0.31622(16) 0.04970(11) 0.84572(9)
N11_5 N 0.26228(17) 0.05756(12) 0.80013(10)
H14_5 H 0.2671 0.0889 0.8035
N12_5 N 0.37570(15) 0.03672(12) 0.88916(9)
H15_5 H 0.3893 0.0146 0.9023
C29_5 C 0.28311(18) 0.02715(15) 0.82452(11)
C30_5 C 0.33937(18) 0.01925(14) 0.86740(10)
C39_5 C 0.23421(16) 0.04589(14) 0.77038(10)
C42_5 C 0.18414(13) 0.03079(13) 0.70719(8)
H20_5 H 0.1675 0.0257 0.6861
C43_5 C 0.18655(13) 0.07770(13) 0.72154(9)
C44_5 C 0.21217(15) 0.08505(13) 0.75291(10)
H21_5 H 0.2144 0.1170 0.7622
C46_5 C 0.16616(13) 0.12187(14) 0.70272(9)
C47_5 C 0.39458(16) 0.08551(13) 0.89347(10)
C48_5 C 0.37867(15) 0.12665(14) 0.87401(10)
H22_5 H 0.3551 0.1230 0.8563
C49_5 C 0.39874(13) 0.17323(13) 0.88154(9)
C50_5 C 0.43407(14) 0.17937(13) 0.90772(9)
H23_5 H 0.4465 0.2108 0.9130
C51_5 C 0.45069(14) 0.13734(14) 0.92601(9)
C52_5 C 0.43045(15) 0.09117(13) 0.91897(9)
H24_5 H 0.4412 0.0635 0.9316
C53_5 C 0.38301(13) 0.21779(14) 0.86049(10)
C54_5 C 0.49077(14) 0.14349(14) 0.95274(9)
O38_3 O 0.09337(9) 0.23237(9) 0.72092(7)
O40_3 O 0.06424(9) 0.17976(11) 0.68046(6)
H29_5 H 0.577433 0.0144036 0.976375
H33_5 H 0.104342 0.112494 0.594941
H34_5 H 0.0661242 0.159006 0.591633
H35_5 H 0.186888 0.259081 0.762392
H36_5 H 0.202924 0.303846 0.736178
O5_5 O 0.91861(13) 0.86529(13) 0.60806(8)
O7_5 O 0.79750(13) 0.73283(12) 0.73948(8)
O11_5 O 0.85455(11) 0.88609(10) 0.67371(6)
O12_5 O 0.82881(10) 0.83614(9) 0.71659(7)
N3_5 N 0.68378(16) 0.95030(11) 0.84572(9)
N5_5 N 0.73772(17) 0.94244(12) 0.80013(10)
H2_5 H 0.7329 0.9111 0.8035
N6_5 N 0.62430(15) 0.96328(12) 0.88916(9)
H3_5 H 0.6107 0.9854 0.9023
C2_5 C 0.71689(18) 0.97285(15) 0.82452(11)
C3_5 C 0.66063(18) 0.98075(14) 0.86740(10)
C12_5 C 0.76579(16) 0.95411(14) 0.77038(10)
C15_5 C 0.81586(13) 0.96921(13) 0.70719(8)
H8_5 H 0.8325 0.9743 0.6861
C16_5 C 0.81345(13) 0.92230(13) 0.72154(9)
C17_5 C 0.78783(15) 0.91495(13) 0.75291(10)
H9_5 H 0.7856 0.8830 0.7622
C19_5 C 0.83384(13) 0.87813(14) 0.70272(9)
C20_5 C 0.60542(16) 0.91449(13) 0.89347(10)
C21_5 C 0.62133(15) 0.87335(14) 0.87401(10)
H10_5 H 0.6449 0.8770 0.8563
C22_5 C 0.60126(13) 0.82677(13) 0.88154(9)
C23_5 C 0.56593(14) 0.82063(13) 0.90772(9)
H11_5 H 0.5535 0.7892 0.9130
C24_5 C 0.54931(14) 0.86266(14) 0.92601(9)
C25_5 C 0.56955(15) 0.90883(13) 0.91897(9)
H12_5 H 0.5588 0.9365 0.9316
C26_5 C 0.61699(13) 0.78221(14) 0.86049(10)
C27_5 C 0.50923(14) 0.85651(14) 0.95274(9)
O23_3 O 0.23237(9) 0.90663(9) 0.72092(7)
O24_3 O 0.17976(11) 0.93576(9) 0.68046(6)
N7_5 N 0.33021(14) 0.96982(12) 0.87093(9)
N8_5 N 0.27114(15) 0.97925(12) 0.82523(9)
N10_5 N 0.28283(15) 0.90437(12) 0.85016(9)
H13_5 H 0.2589 0.8966 0.8362
C28_5 C 0.29644(17) 0.95273(14) 0.84952(10)
C31_5 C 0.30206(17) 0.86439(14) 0.87038(10)
C32_5 C 0.32900(16) 0.86987(14) 0.90110(10)
H16_5 H 0.3353 0.9015 0.9100
C33_5 C 0.34649(14) 0.82852(13) 0.91846(9)
C34_5 C 0.33737(15) 0.78090(13) 0.90559(9)
H17_5 H 0.3495 0.7531 0.9174
C35_5 C 0.30980(15) 0.77511(13) 0.87465(9)
C36_5 C 0.29227(17) 0.81644(14) 0.85741(9)
H18_5 H 0.2738 0.8126 0.8370
C37_5 C 0.37814(14) 0.83409(13) 0.95060(8)
C38_5 C 0.30217(16) 0.72420(14) 0.85943(9)
C40_5 C 0.23176(15) 0.99836(13) 0.75575(10)
H19_5 H 0.2468 0.9716 0.7670
C41_5 C 0.20638(13) 0.99128(13) 0.72404(9)
C45_5 C 0.20606(14) 0.94033(13) 0.70743(9)
O37_3 O 0.90663(9) 0.76763(9) 0.72092(7)
O39_3 O 0.93576(9) 0.82024(11) 0.68046(6)
H27_5 H 0.895658 0.887506 0.594941
H28_5 H 0.933876 0.840994 0.591633
H31_5 H 0.813112 0.740919 0.762392
H32_5 H 0.797076 0.696154 0.736178
H25_6 H 0.432087 0.700547 0.00597232
H26_6 H 0.489243 0.710782 0.0176405
H30_6 H 0.436976 0.988944 0.0176093
H29_6 H 0.422567 0.985596 0.976375
O5_6 O 0.13471(13) 0.91861(13) 0.60806(8)
O7_6 O 0.26717(12) 0.79750(13) 0.73948(8)
O11_6 O 0.11391(10) 0.85455(11) 0.67371(6)
O12_6 O 0.16386(9) 0.82881(10) 0.71659(7)
N3_6 N 0.04970(11) 0.68378(16) 0.84572(9)
N5_6 N 0.05756(12) 0.73772(17) 0.80013(10)
H2_6 H 0.0889 0.7329 0.8035
N6_6 N 0.03672(12) 0.62430(15) 0.88916(9)
H3_6 H 0.0146 0.6107 0.9023
C2_6 C 0.02715(15) 0.71689(18) 0.82452(11)
C3_6 C 0.01925(14) 0.66063(18) 0.86740(10)
C12_6 C 0.04589(14) 0.76579(16) 0.77038(10)
C15_6 C 0.03079(13) 0.81586(13) 0.70719(8)
H8_6 H 0.0257 0.8325 0.6861
C16_6 C 0.07770(13) 0.81345(13) 0.72154(9)
C17_6 C 0.08505(13) 0.78783(15) 0.75291(10)
H9_6 H 0.1170 0.7856 0.7622
C19_6 C 0.12187(14) 0.83384(13) 0.70272(9)
C20_6 C 0.08551(13) 0.60542(16) 0.89347(10)
C21_6 C 0.12665(14) 0.62133(15) 0.87401(10)
H10_6 H 0.1230 0.6449 0.8563
C22_6 C 0.17323(13) 0.60126(13) 0.88154(9)
C23_6 C 0.17937(13) 0.56593(14) 0.90772(9)
H11_6 H 0.2108 0.5535 0.9130
C24_6 C 0.13734(14) 0.54931(14) 0.92601(9)
C25_6 C 0.09117(13) 0.56955(15) 0.91897(9)
H12_6 H 0.0635 0.5588 0.9316
C26_6 C 0.21779(14) 0.61699(13) 0.86049(10)
C27_6 C 0.14349(14) 0.50923(14) 0.95274(9)
N7_6 N 0.03018(12) 0.33021(14) 0.87093(9)
N8_6 N 0.02075(12) 0.27114(15) 0.82523(9)
N10_6 N 0.09563(12) 0.28283(15) 0.85016(9)
H13_6 H 0.1034 0.2589 0.8362
C28_6 C 0.04727(14) 0.29644(17) 0.84952(10)
C31_6 C 0.13561(14) 0.30206(17) 0.87038(10)
C32_6 C 0.13013(14) 0.32900(16) 0.90110(10)
H16_6 H 0.0985 0.3353 0.9100
C33_6 C 0.17148(13) 0.34649(14) 0.91846(9)
C34_6 C 0.21910(13) 0.33737(15) 0.90559(9)
H17_6 H 0.2469 0.3495 0.9174
C35_6 C 0.22489(13) 0.30980(15) 0.87465(9)
C36_6 C 0.18356(14) 0.29227(17) 0.85741(9)
H18_6 H 0.1874 0.2738 0.8370
C37_6 C 0.16591(13) 0.37814(14) 0.95060(8)
C38_6 C 0.27580(14) 0.30217(16) 0.85943(9)
C40_6 C 0.00164(13) 0.23176(15) 0.75575(10)
H19_6 H 0.0284 0.2468 0.7670
C41_6 C 0.00872(13) 0.20638(13) 0.72404(9)
C45_6 C 0.05967(13) 0.20606(14) 0.70743(9)
H27_6 H 0.112494 0.895658 0.594941
H28_6 H 0.159006 0.933876 0.591633
H31_6 H 0.259081 0.813112 0.762392
H32_6 H 0.303846 0.797076 0.736178
H25_7 H 0.700547 0.567913 0.00597232
H26_7 H 0.710782 0.510757 0.0176405
H30_7 H 0.988944 0.563024 0.0176093
N1_6 N 0.96982(12) 0.66979(14) 0.87093(9)
N2_6 N 0.97925(12) 0.72886(15) 0.82523(9)
N4_6 N 0.90437(12) 0.71717(15) 0.85016(9)
H1_6 H 0.8966 0.7411 0.8362
C1_6 C 0.95273(14) 0.70356(17) 0.84952(10)
C4_6 C 0.86439(14) 0.69794(17) 0.87038(10)
C5_6 C 0.86987(14) 0.67100(16) 0.90110(10)
H4_6 H 0.9015 0.6647 0.9100
C6_6 C 0.82852(13) 0.65351(14) 0.91846(9)
C7_6 C 0.78090(13) 0.66263(15) 0.90559(9)
H5_6 H 0.7531 0.6505 0.9174
C8_6 C 0.77511(13) 0.69020(15) 0.87465(9)
C9_6 C 0.81644(14) 0.70773(17) 0.85741(9)
H6_6 H 0.8126 0.7262 0.8370
C10_6 C 0.83409(13) 0.62186(14) 0.95060(8)
C11_6 C 0.72420(14) 0.69783(16) 0.85943(9)
C13_6 C 0.99836(13) 0.76824(15) 0.75575(10)
H7_6 H 0.9716 0.7532 0.7670
C14_6 C 0.99128(13) 0.79362(13) 0.72404(9)
C18_6 C 0.94033(13) 0.79394(14) 0.70743(9)
O19_6 O 0.86529(13) 0.08139(13) 0.60806(8)
O21_6 O 0.73283(12) 0.20250(13) 0.73948(8)
O25_6 O 0.88609(10) 0.14545(11) 0.67371(6)
O26_6 O 0.83614(9) 0.17119(10) 0.71659(7)
N9_6 N 0.95030(11) 0.31622(16) 0.84572(9)
N11_6 N 0.94244(12) 0.26228(17) 0.80013(10)
H14_6 H 0.9111 0.2671 0.8035
N12_6 N 0.96328(12) 0.37570(15) 0.88916(9)
H15_6 H 0.9854 0.3893 0.9023
C29_6 C 0.97285(15) 0.28311(18) 0.82452(11)
C30_6 C 0.98075(14) 0.33937(18) 0.86740(10)
C39_6 C 0.95411(14) 0.23421(16) 0.77038(10)
C42_6 C 0.96921(13) 0.18414(13) 0.70719(8)
H20_6 H 0.9743 0.1675 0.6861
C43_6 C 0.92230(13) 0.18655(13) 0.72154(9)
C44_6 C 0.91495(13) 0.21217(15) 0.75291(10)
H21_6 H 0.8830 0.2144 0.7622
C46_6 C 0.87813(14) 0.16616(13) 0.70272(9)
C47_6 C 0.91449(13) 0.39458(16) 0.89347(10)
C48_6 C 0.87335(14) 0.37867(15) 0.87401(10)
H22_6 H 0.8770 0.3551 0.8563
C49_6 C 0.82677(13) 0.39874(13) 0.88154(9)
C50_6 C 0.82063(13) 0.43407(14) 0.90772(9)
H23_6 H 0.7892 0.4465 0.9130
C51_6 C 0.86266(14) 0.45069(14) 0.92601(9)
C52_6 C 0.90883(13) 0.43045(15) 0.91897(9)
H24_6 H 0.9365 0.4412 0.9316
C53_6 C 0.78221(14) 0.38301(13) 0.86049(10)
C54_6 C 0.85651(14) 0.49077(14) 0.95274(9)
H29_7 H 0.985596 0.577433 0.976375
H33_6 H 0.887506 0.104342 0.594941
H34_6 H 0.840994 0.0661242 0.591633
H35_6 H 0.740919 0.186888 0.762392
H36_6 H 0.696154 0.202924 0.736178
H25_8 H 0.299453 0.432087 0.00597232
H26_8 H 0.289218 0.489243 0.0176405
H30_8 H 0.0110555 0.436976 0.0176093
H29_8 H 0.0144036 0.422567 0.976375
O5_7 O 0.41861(13) 0.36529(13) 0.10806(8)
O7_7 O 0.29750(13) 0.23283(12) 0.23948(8)
O9_4 O 0.26763(9) 0.59337(9) 0.22092(7)
O10_4 O 0.32024(11) 0.56424(9) 0.18046(6)
O11_7 O 0.35455(11) 0.38609(10) 0.17371(6)
O12_7 O 0.32881(10) 0.33614(9) 0.21659(7)
N1_7 N 0.16979(14) 0.53018(12) 0.37093(9)
N2_7 N 0.22886(15) 0.52075(12) 0.32523(9)
N3_7 N 0.18378(16) 0.45030(11) 0.34572(9)
N4_7 N 0.21717(15) 0.59563(12) 0.35016(9)
H1_7 H 0.2411 0.6034 0.3362
N5_7 N 0.23772(17) 0.44244(12) 0.30013(10)
H2_7 H 0.2329 0.4111 0.3035
N6_7 N 0.12430(15) 0.46328(12) 0.38916(9)
H3_7 H 0.1107 0.4854 0.4023
C1_7 C 0.20356(17) 0.54727(14) 0.34952(10)
C2_7 C 0.21689(18) 0.47285(15) 0.32452(11)
C3_7 C 0.16063(18) 0.48075(14) 0.36740(10)
C4_7 C 0.19794(17) 0.63561(14) 0.37038(10)
C5_7 C 0.17100(16) 0.63013(14) 0.40110(10)
H4_7 H 0.1647 0.5985 0.4100
C6_7 C 0.15351(14) 0.67148(13) 0.41846(9)
C7_7 C 0.16263(15) 0.71910(13) 0.40559(9)
H5_7 H 0.1505 0.7469 0.4174
C8_7 C 0.19020(15) 0.72489(13) 0.37465(9)
C9_7 C 0.20773(17) 0.68356(14) 0.35741(9)
H6_7 H 0.2262 0.6874 0.3370
C10_7 C 0.12186(14) 0.66591(13) 0.45060(8)
C11_7 C 0.19783(16) 0.77580(14) 0.35943(9)
C12_7 C 0.26579(16) 0.45411(14) 0.27038(10)
C13_7 C 0.26824(15) 0.50164(13) 0.25575(10)
H7_7 H 0.2532 0.5284 0.2670
C14_7 C 0.29362(13) 0.50872(13) 0.22404(9)
C15_7 C 0.31586(13) 0.46921(13) 0.20719(8)
H8_7 H 0.3325 0.4743 0.1861
C16_7 C 0.31345(13) 0.42230(13) 0.22154(9)
C17_7 C 0.28783(15) 0.41495(13) 0.25291(10)
H9_7 H 0.2856 0.3830 0.2622
C18_7 C 0.29394(14) 0.55967(13) 0.20743(9)
C19_7 C 0.33384(13) 0.37813(14) 0.20272(9)
C20_7 C 0.10542(16) 0.41449(13) 0.39347(10)
C21_7 C 0.12133(15) 0.37335(14) 0.37401(10)
H10_7 H 0.1449 0.3770 0.3563
C22_7 C 0.10126(13) 0.32677(13) 0.38154(9)
C23_7 C 0.06593(14) 0.32063(13) 0.40772(9)
H11_7 H 0.0535 0.2892 0.4130
C24_7 C 0.04931(14) 0.36266(14) 0.42601(9)
C25_7 C 0.06955(15) 0.40883(13) 0.41897(9)
H12_7 H 0.0588 0.4365 0.4316
C26_7 C 0.11699(13) 0.28221(14) 0.36049(10)
C27_7 C 0.00923(14) 0.35651(14) 0.45274(9)
O37_4 O 0.40663(9) 0.26763(9) 0.22092(7)
O39_4 O 0.43576(9) 0.32024(11) 0.18046(6)
H27_7 H 0.395658 0.387506 0.0949406
H28_7 H 0.433876 0.340994 0.0916333
H31_7 H 0.313112 0.240919 0.262392
H32_7 H 0.297076 0.196154 0.236178
O19_7 O 0.58139(13) 0.63471(13) 0.10806(8)
O21_7 O 0.70250(13) 0.76717(12) 0.23948(8)
O23_4 O 0.73237(9) 0.40663(9) 0.22092(7)
O24_4 O 0.67976(11) 0.43576(9) 0.18046(6)
O25_7 O 0.64545(11) 0.61391(10) 0.17371(6)
O26_7 O 0.67119(10) 0.66386(9) 0.21659(7)
N7_7 N 0.83021(14) 0.46982(12) 0.37093(9)
N8_7 N 0.77114(15) 0.47925(12) 0.32523(9)
N9_7 N 0.81622(16) 0.54970(11) 0.34572(9)
N10_7 N 0.78283(15) 0.40437(12) 0.35016(9)
H13_7 H 0.7589 0.3966 0.3362
N11_7 N 0.76228(17) 0.55756(12) 0.30013(10)
H14_7 H 0.7671 0.5889 0.3035
N12_7 N 0.87570(15) 0.53672(12) 0.38916(9)
H15_7 H 0.8893 0.5146 0.4023
C28_7 C 0.79644(17) 0.45273(14) 0.34952(10)
C29_7 C 0.78311(18) 0.52715(15) 0.32452(11)
C30_7 C 0.83937(18) 0.51925(14) 0.36740(10)
C31_7 C 0.80206(17) 0.36439(14) 0.37038(10)
C32_7 C 0.82900(16) 0.36987(14) 0.40110(10)
H16_7 H 0.8353 0.4015 0.4100
C33_7 C 0.84649(14) 0.32852(13) 0.41846(9)
C34_7 C 0.83737(15) 0.28090(13) 0.40559(9)
H17_7 H 0.8495 0.2531 0.4174
C35_7 C 0.80980(15) 0.27511(13) 0.37465(9)
C36_7 C 0.79227(17) 0.31644(14) 0.35741(9)
H18_7 H 0.7738 0.3126 0.3370
C37_7 C 0.87814(14) 0.33409(13) 0.45060(8)
C38_7 C 0.80217(16) 0.22420(14) 0.35943(9)
C39_7 C 0.73421(16) 0.54589(14) 0.27038(10)
C40_7 C 0.73176(15) 0.49836(13) 0.25575(10)
H19_7 H 0.7468 0.4716 0.2670
C41_7 C 0.70638(13) 0.49128(13) 0.22404(9)
C42_7 C 0.68414(13) 0.53079(13) 0.20719(8)
H20_7 H 0.6675 0.5257 0.1861
C43_7 C 0.68655(13) 0.57770(13) 0.22154(9)
C44_7 C 0.71217(15) 0.58505(13) 0.25291(10)
H21_7 H 0.7144 0.6170 0.2622
C45_7 C 0.70606(14) 0.44033(13) 0.20743(9)
C46_7 C 0.66616(13) 0.62187(14) 0.20272(9)
C47_7 C 0.89458(16) 0.58551(13) 0.39347(10)
C48_7 C 0.87867(15) 0.62665(14) 0.37401(10)
H22_7 H 0.8551 0.6230 0.3563
C49_7 C 0.89874(13) 0.67323(13) 0.38154(9)
C50_7 C 0.93407(14) 0.67937(13) 0.40772(9)
H23_7 H 0.9465 0.7108 0.4130
C51_7 C 0.95069(14) 0.63734(14) 0.42601(9)
C52_7 C 0.93045(15) 0.59117(13) 0.41897(9)
H24_7 H 0.9412 0.5635 0.4316
C53_7 C 0.88301(13) 0.71779(14) 0.36049(10)
C54_7 C 0.99077(14) 0.64349(14) 0.45274(9)
O38_4 O 0.59337(9) 0.73237(9) 0.22092(7)
O40_4 O 0.56424(9) 0.67976(11) 0.18046(6)
H33_7 H 0.604342 0.612494 0.0949406
H34_7 H 0.566124 0.659006 0.0916333
H35_7 H 0.686888 0.759081 0.262392
H36_7 H 0.702924 0.803846 0.236178
O5_8 O 0.63471(13) 0.41861(13) 0.10806(8)
O7_8 O 0.76717(12) 0.29750(13) 0.23948(8)
O11_8 O 0.61391(10) 0.35455(11) 0.17371(6)
O12_8 O 0.66386(9) 0.32881(10) 0.21659(7)
N1_8 N 0.46982(12) 0.16979(14) 0.37093(9)
N2_8 N 0.47925(12) 0.22886(15) 0.32523(9)
N3_8 N 0.54970(11) 0.18378(16) 0.34572(9)
N4_8 N 0.40437(12) 0.21717(15) 0.35016(9)
H1_8 H 0.3966 0.2411 0.3362
N5_8 N 0.55756(12) 0.23772(17) 0.30013(10)
H2_8 H 0.5889 0.2329 0.3035
N6_8 N 0.53672(12) 0.12430(15) 0.38916(9)
H3_8 H 0.5146 0.1107 0.4023
C1_8 C 0.45273(14) 0.20356(17) 0.34952(10)
C2_8 C 0.52715(15) 0.21689(18) 0.32452(11)
C3_8 C 0.51925(14) 0.16063(18) 0.36740(10)
C4_8 C 0.36439(14) 0.19794(17) 0.37038(10)
C5_8 C 0.36987(14) 0.17100(16) 0.40110(10)
H4_8 H 0.4015 0.1647 0.4100
C6_8 C 0.32852(13) 0.15351(14) 0.41846(9)
C7_8 C 0.28090(13) 0.16263(15) 0.40559(9)
H5_8 H 0.2531 0.1505 0.4174
C8_8 C 0.27511(13) 0.19020(15) 0.37465(9)
C9_8 C 0.31644(14) 0.20773(17) 0.35741(9)
H6_8 H 0.3126 0.2262 0.3370
C10_8 C 0.33409(13) 0.12186(14) 0.45060(8)
C11_8 C 0.22420(14) 0.19783(16) 0.35943(9)
C12_8 C 0.54589(14) 0.26579(16) 0.27038(10)
C13_8 C 0.49836(13) 0.26824(15) 0.25575(10)
H7_8 H 0.4716 0.2532 0.2670
C14_8 C 0.49128(13) 0.29362(13) 0.22404(9)
C15_8 C 0.53079(13) 0.31586(13) 0.20719(8)
H8_8 H 0.5257 0.3325 0.1861
C16_8 C 0.57770(13) 0.31345(13) 0.22154(9)
C17_8 C 0.58505(13) 0.28783(15) 0.25291(10)
H9_8 H 0.6170 0.2856 0.2622
C18_8 C 0.44033(13) 0.29394(14) 0.20743(9)
C19_8 C 0.62187(14) 0.33384(13) 0.20272(9)
C20_8 C 0.58551(13) 0.10542(16) 0.39347(10)
C21_8 C 0.62665(14) 0.12133(15) 0.37401(10)
H10_8 H 0.6230 0.1449 0.3563
C22_8 C 0.67323(13) 0.10126(13) 0.38154(9)
C23_8 C 0.67937(13) 0.06593(14) 0.40772(9)
H11_8 H 0.7108 0.0535 0.4130
C24_8 C 0.63734(14) 0.04931(14) 0.42601(9)
C25_8 C 0.59117(13) 0.06955(15) 0.41897(9)
H12_8 H 0.5635 0.0588 0.4316
C26_8 C 0.71779(14) 0.11699(13) 0.36049(10)
C27_8 C 0.64349(14) 0.00923(14) 0.45274(9)
H27_8 H 0.612494 0.395658 0.0949406
H28_8 H 0.659006 0.433876 0.0916333
H31_8 H 0.759081 0.313112 0.262392
H32_8 H 0.803846 0.297076 0.236178
O19_8 O 0.36529(13) 0.58139(13) 0.10806(8)
O21_8 O 0.23283(12) 0.70250(13) 0.23948(8)
O25_8 O 0.38609(10) 0.64545(11) 0.17371(6)
O26_8 O 0.33614(9) 0.67119(10) 0.21659(7)
N7_8 N 0.53018(12) 0.83021(14) 0.37093(9)
N8_8 N 0.52075(12) 0.77114(15) 0.32523(9)
N9_8 N 0.45030(11) 0.81622(16) 0.34572(9)
N10_8 N 0.59563(12) 0.78283(15) 0.35016(9)
H13_8 H 0.6034 0.7589 0.3362
N11_8 N 0.44244(12) 0.76228(17) 0.30013(10)
H14_8 H 0.4111 0.7671 0.3035
N12_8 N 0.46328(12) 0.87570(15) 0.38916(9)
H15_8 H 0.4854 0.8893 0.4023
C28_8 C 0.54727(14) 0.79644(17) 0.34952(10)
C29_8 C 0.47285(15) 0.78311(18) 0.32452(11)
C30_8 C 0.48075(14) 0.83937(18) 0.36740(10)
C31_8 C 0.63561(14) 0.80206(17) 0.37038(10)
C32_8 C 0.63013(14) 0.82900(16) 0.40110(10)
H16_8 H 0.5985 0.8353 0.4100
C33_8 C 0.67148(13) 0.84649(14) 0.41846(9)
C34_8 C 0.71910(13) 0.83737(15) 0.40559(9)
H17_8 H 0.7469 0.8495 0.4174
C35_8 C 0.72489(13) 0.80980(15) 0.37465(9)
C36_8 C 0.68356(14) 0.79227(17) 0.35741(9)
H18_8 H 0.6874 0.7738 0.3370
C37_8 C 0.66591(13) 0.87814(14) 0.45060(8)
C38_8 C 0.77580(14) 0.80217(16) 0.35943(9)
C39_8 C 0.45411(14) 0.73421(16) 0.27038(10)
C40_8 C 0.50164(13) 0.73176(15) 0.25575(10)
H19_8 H 0.5284 0.7468 0.2670
C41_8 C 0.50872(13) 0.70638(13) 0.22404(9)
C42_8 C 0.46921(13) 0.68414(13) 0.20719(8)
H20_8 H 0.4743 0.6675 0.1861
C43_8 C 0.42230(13) 0.68655(13) 0.22154(9)
C44_8 C 0.41495(13) 0.71217(15) 0.25291(10)
H21_8 H 0.3830 0.7144 0.2622
C45_8 C 0.55967(13) 0.70606(14) 0.20743(9)
C46_8 C 0.37813(14) 0.66616(13) 0.20272(9)
C47_8 C 0.41449(13) 0.89458(16) 0.39347(10)
C48_8 C 0.37335(14) 0.87867(15) 0.37401(10)
H22_8 H 0.3770 0.8551 0.3563
C49_8 C 0.32677(13) 0.89874(13) 0.38154(9)
C50_8 C 0.32063(13) 0.93407(14) 0.40772(9)
H23_8 H 0.2892 0.9465 0.4130
C51_8 C 0.36266(14) 0.95069(14) 0.42601(9)
C52_8 C 0.40883(13) 0.93045(15) 0.41897(9)
H24_8 H 0.4365 0.9412 0.4316
C53_8 C 0.28221(14) 0.88301(13) 0.36049(10)
C54_8 C 0.35651(14) 0.99077(14) 0.45274(9)
H33_8 H 0.387506 0.604342 0.0949406
H34_8 H 0.340994 0.566124 0.0916333
H35_8 H 0.240919 0.686888 0.262392
H36_8 H 0.196154 0.702924 0.236178
loop_
_geom_bond_atom_site_label_1
_geom_bond_atom_site_label_2
_geom_bond_site_symmetry_1
_geom_bond_site_symmetry_2
Zn2 O5 1_555 1_555
Zn4 O7 1_555 1_555
O11 Zn2 1_555 1_555
O12 Zn4 1_555 1_555
O13 C26 1_555 1_555
O14 C26 1_555 1_555
O15 C27 1_555 1_555
O16 C27 1_555 1_555
N3 C2 1_555 1_555
N5 H2 1_555 1_555
N6 H3 1_555 1_555
C12 N5 1_555 1_555
H8 C15 1_555 1_555
C16 C15 1_555 1_555
C17 C12 1_555 1_555
H9 C17 1_555 1_555
C19 O11 1_555 1_555
C20 N6 1_555 1_555
C21 C20 1_555 1_555
H10 C21 1_555 1_555
C22 C21 1_555 1_555
C23 C22 1_555 1_555
H11 C23 1_555 1_555
C24 C23 1_555 1_555
C25 C20 1_555 1_555
H12 C25 1_555 1_555
C26 C22 1_555 1_555
C27 C24 1_555 1_555
O17 C37 1_555 1_555
O18 C37 1_555 1_555
O20 C38 1_555 1_555
O22 C38 1_555 1_555
O23 C45 1_555 1_555
O24 C45 1_555 1_555
N7 C28 1_555 1_555
N8 C28 1_555 1_555
N10 H13 1_555 1_555
C28 N10 1_555 1_555
C31 N10 1_555 1_555
C32 C31 1_555 1_555
H16 C32 1_555 1_555
C33 C32 1_555 1_555
C34 C33 1_555 1_555
H17 C34 1_555 1_555
C35 C34 1_555 1_555
C36 C31 1_555 1_555
H18 C36 1_555 1_555
C37 C33 1_555 1_555
C38 C35 1_555 1_555
H19 C40 1_555 1_555
C41 C40 1_555 1_555
C45 C41 1_555 1_555
Zn7 O15 1_555 1_555
Zn8 O24 1_555 1_555
Zn10 O14 1_555 1_555
Zn12 O20 1_555 1_555
Zn14 O16 1_555 1_555
Zn15 O23 1_555 1_555
Zn17 O13 1_555 1_555
Zn19 O22 1_555 1_555
O33 Zn2 1_555 1_555
O35 Zn4 1_555 1_555
O37 Zn4 1_555 1_555
O39 Zn2 1_555 1_555
O41 Zn4 1_555 1_555
O43 Zn2 1_555 1_555
O12 C19 1_555 1_555
N3 C3 1_555 1_555
N5 C2 1_555 1_555
N6 C3 1_555 1_555
C16 C17 1_555 1_555
C16 C19 1_555 1_555
C24 C25 1_555 1_555
O17 Zn14 1_555 1_555
O18 Zn7 1_555 1_555
C35 C36 1_555 1_555
O5 H27 1_555 1_555
O5 H28 1_555 1_555
O7 H31 1_555 1_555
O7 H32 1_555 1_555
Zn1 O3 1_555 1_555
Zn3 O1 1_555 1_555
O1 C10 1_555 1_555
O2 Zn3 1_555 1_555
O3 C10 1_555 1_555
O4 Zn1 1_555 1_555
O6 C11 1_555 1_555
O8 C11 1_555 1_555
O9 C18 1_555 1_555
O10 C18 1_555 1_555
N1 C1 1_555 1_555
N2 C1 1_555 1_555
N4 H1 1_555 1_555
C1 N4 1_555 1_555
C4 N4 1_555 1_555
C5 C4 1_555 1_555
H4 C5 1_555 1_555
C6 C5 1_555 1_555
C7 C6 1_555 1_555
H5 C7 1_555 1_555
C8 C7 1_555 1_555
C9 C4 1_555 1_555
H6 C9 1_555 1_555
C10 C6 1_555 1_555
C11 C8 1_555 1_555
H7 C13 1_555 1_555
C14 C13 1_555 1_555
C18 C14 1_555 1_555
Zn5 O19 1_555 1_555
Zn6 O21 1_555 1_555
O25 Zn5 1_555 1_555
O26 Zn6 1_555 1_555
O27 C53 1_555 1_555
O28 C53 1_555 1_555
O29 Zn1 1_555 1_555
O30 Zn3 1_555 1_555
N9 C29 1_555 1_555
N11 H14 1_555 1_555
N12 H15 1_555 1_555
C39 N11 1_555 1_555
H20 C42 1_555 1_555
C43 C42 1_555 1_555
C44 C39 1_555 1_555
H21 C44 1_555 1_555
C46 O25 1_555 1_555
C47 N12 1_555 1_555
C48 C47 1_555 1_555
H22 C48 1_555 1_555
C49 C48 1_555 1_555
C50 C49 1_555 1_555
H23 C50 1_555 1_555
C51 C50 1_555 1_555
C52 C47 1_555 1_555
H24 C52 1_555 1_555
C53 C49 1_555 1_555
C54 O29 1_555 1_555
Zn9 O10 1_555 1_555
Zn11 O28 1_555 1_555
Zn13 O6 1_555 1_555
Zn16 O9 1_555 1_555
Zn18 O27 1_555 1_555
Zn20 O8 1_555 1_555
O34 Zn5 1_555 1_555
O36 Zn6 1_555 1_555
O38 Zn6 1_555 1_555
O40 Zn5 1_555 1_555
O42 Zn6 1_555 1_555
O44 Zn5 1_555 1_555
C8 C9 1_555 1_555
O26 C46 1_555 1_555
O30 C54 1_555 1_555
N9 C30 1_555 1_555
N11 C29 1_555 1_555
N12 C30 1_555 1_555
C43 C44 1_555 1_555
C43 C46 1_555 1_555
C51 C52 1_555 1_555
C51 C54 1_555 1_555
O2 H29 1_555 1_555
O19 H33 1_555 1_555
O19 H34 1_555 1_555
O21 H35 1_555 1_555
O21 H36 1_555 1_555
O2_2 Zn3_2 1_555 1_555
O4_2 Zn1_2 1_555 1_555
O31 Zn3_2 1_555 1_555
O32 Zn1_2 1_555 1_555
O45 Zn1_2 1_555 1_555
O46 Zn3_2 1_555 1_555
O4_2 H25 1_555 1_555
O4_2 H26 1_555 1_555
O2_2 H30 1_555 1_555
O2_3 Zn14 1_555 1_555
O4_3 Zn7 1_555 1_555
O2_3 H29_2 1_555 1_555
O2_4 Zn14_2 1_555 1_555
O4_4 Zn7_2 1_555 1_555
O31_2 Zn14_2 1_555 1_555
O32_2 Zn7_2 1_555 1_555
O45_2 Zn7_2 1_555 1_555
O46_2 Zn14_2 1_555 1_555
O4_4 H25_2 1_555 1_555
O4_4 H26_2 1_555 1_555
O2_4 H30_2 1_555 1_555
Zn1_3 O3_2 1_555 1_555
Zn3_3 O1_2 1_555 1_555
O1_2 C10_2 1_555 1_555
O2_5 Zn3_3 1_555 1_555
O3_2 C10_2 1_555 1_555
O4_5 Zn1_3 1_555 1_555
O6_2 C11_2 1_555 1_555
O8_2 C11_2 1_555 1_555
O37 C18_2 1_555 1_555
O39 C18_2 1_555 1_555
N1_2 C1_2 1_555 1_555
N2_2 C1_2 1_555 1_555
N4_2 H1_2 1_555 1_555
C1_2 N4_2 1_555 1_555
C4_2 N4_2 1_555 1_555
C5_2 C4_2 1_555 1_555
H4_2 C5_2 1_555 1_555
C6_2 C5_2 1_555 1_555
C7_2 C6_2 1_555 1_555
H5_2 C7_2 1_555 1_555
C8_2 C7_2 1_555 1_555
C9_2 C4_2 1_555 1_555
H6_2 C9_2 1_555 1_555
C10_2 C6_2 1_555 1_555
C11_2 C8_2 1_555 1_555
H7_2 C13_2 1_555 1_555
C14_2 C13_2 1_555 1_555
C18_2 C14_2 1_555 1_555
Zn9 O19_2 1_555 1_555
Zn16 O21_2 1_555 1_555
O25_2 Zn9 1_555 1_555
O26_2 Zn16 1_555 1_555
O27_2 C53_2 1_555 1_555
O28_2 C53_2 1_555 1_555
O29_2 Zn1_3 1_555 1_555
O30_2 Zn3_3 1_555 1_555
N9_2 C29_2 1_555 1_555
N11_2 H14_2 1_555 1_555
N12_2 H15_2 1_555 1_555
C39_2 N11_2 1_555 1_555
H20_2 C42_2 1_555 1_555
C43_2 C42_2 1_555 1_555
C44_2 C39_2 1_555 1_555
H21_2 C44_2 1_555 1_555
C46_2 O25_2 1_555 1_555
C47_2 N12_2 1_555 1_555
C48_2 C47_2 1_555 1_555
H22_2 C48_2 1_555 1_555
C49_2 C48_2 1_555 1_555
C50_2 C49_2 1_555 1_555
H23_2 C50_2 1_555 1_555
C51_2 C50_2 1_555 1_555
C52_2 C47_2 1_555 1_555
H24_2 C52_2 1_555 1_555
C53_2 C49_2 1_555 1_555
C54_2 O29_2 1_555 1_555
Zn13 O28_2 1_555 1_555
Zn10 O6_2 1_555 1_555
Zn20 O27_2 1_555 1_555
Zn17 O8_2 1_555 1_555
O34_2 Zn9 1_555 1_555
O36_2 Zn16 1_555 1_555
O42_2 Zn16 1_555 1_555
O44_2 Zn9 1_555 1_555
C8_2 C9_2 1_555 1_555
O26_2 C46_2 1_555 1_555
O30_2 C54_2 1_555 1_555
N9_2 C30_2 1_555 1_555
N11_2 C29_2 1_555 1_555
N12_2 C30_2 1_555 1_555
C43_2 C44_2 1_555 1_555
C43_2 C46_2 1_555 1_555
C51_2 C52_2 1_555 1_555
C51_2 C54_2 1_555 1_555
O2_5 H29_3 1_555 1_555
O19_2 H33_2 1_555 1_555
O19_2 H34_2 1_555 1_555
O21_2 H35_2 1_555 1_555
O21_2 H36_2 1_555 1_555
O2_6 Zn3_4 1_555 1_555
O4_6 Zn1_4 1_555 1_555
O31_3 Zn3_4 1_555 1_555
O32_3 Zn1_4 1_555 1_555
O45_3 Zn1_4 1_555 1_555
O46_3 Zn3_4 1_555 1_555
O4_6 H25_3 1_555 1_555
O4_6 H26_3 1_555 1_555
O2_6 H30_3 1_555 1_555
Zn8 O5_2 1_555 1_555
Zn15 O7_2 1_555 1_555
O11_2 Zn8 1_555 1_555
O12_2 Zn15 1_555 1_555
O13_2 C26_2 1_555 1_555
O14_2 C26_2 1_555 1_555
O15_2 C27_2 1_555 1_555
O16_2 C27_2 1_555 1_555
N3_2 C2_2 1_555 1_555
N5_2 H2_2 1_555 1_555
N6_2 H3_2 1_555 1_555
C12_2 N5_2 1_555 1_555
H8_2 C15_2 1_555 1_555
C16_2 C15_2 1_555 1_555
C17_2 C12_2 1_555 1_555
H9_2 C17_2 1_555 1_555
C19_2 O11_2 1_555 1_555
C20_2 N6_2 1_555 1_555
C21_2 C20_2 1_555 1_555
H10_2 C21_2 1_555 1_555
C22_2 C21_2 1_555 1_555
C23_2 C22_2 1_555 1_555
H11_2 C23_2 1_555 1_555
C24_2 C23_2 1_555 1_555
C25_2 C20_2 1_555 1_555
H12_2 C25_2 1_555 1_555
C26_2 C22_2 1_555 1_555
C27_2 C24_2 1_555 1_555
O17_2 C37_2 1_555 1_555
O18_2 C37_2 1_555 1_555
O20_2 C38_2 1_555 1_555
O22_2 C38_2 1_555 1_555
O38 C45_2 1_555 1_555
O40 C45_2 1_555 1_555
N7_2 C28_2 1_555 1_555
N8_2 C28_2 1_555 1_555
N10_2 H13_2 1_555 1_555
C28_2 N10_2 1_555 1_555
C31_2 N10_2 1_555 1_555
C32_2 C31_2 1_555 1_555
H16_2 C32_2 1_555 1_555
C33_2 C32_2 1_555 1_555
C34_2 C33_2 1_555 1_555
H17_2 C34_2 1_555 1_555
C35_2 C34_2 1_555 1_555
C36_2 C31_2 1_555 1_555
H18_2 C36_2 1_555 1_555
C37_2 C33_2 1_555 1_555
C38_2 C35_2 1_555 1_555
H19_2 C40_2 1_555 1_555
C41_2 C40_2 1_555 1_555
C45_2 C41_2 1_555 1_555
Zn7_3 O15_2 1_555 1_555
Zn12 O14_2 1_555 1_555
Zn11 O20_2 1_555 1_555
Zn14_3 O16_2 1_555 1_555
Zn19 O13_2 1_555 1_555
Zn18 O22_2 1_555 1_555
O33_2 Zn8 1_555 1_555
O35_2 Zn15 1_555 1_555
O41_2 Zn15 1_555 1_555
O43_2 Zn8 1_555 1_555
O12_2 C19_2 1_555 1_555
N3_2 C3_2 1_555 1_555
N5_2 C2_2 1_555 1_555
N6_2 C3_2 1_555 1_555
C16_2 C17_2 1_555 1_555
C16_2 C19_2 1_555 1_555
C24_2 C25_2 1_555 1_555
O17_2 Zn14_3 1_555 1_555
O18_2 Zn7_3 1_555 1_555
C35_2 C36_2 1_555 1_555
O5_2 H27_2 1_555 1_555
O5_2 H28_2 1_555 1_555
O7_2 H31_2 1_555 1_555
O7_2 H32_2 1_555 1_555
O2_7 Zn14_3 1_555 1_555
O4_7 Zn7_3 1_555 1_555
O2_7 H29_4 1_555 1_555
O2_8 Zn14_4 1_555 1_555
O4_8 Zn7_4 1_555 1_555
O31_4 Zn14_4 1_555 1_555
O32_4 Zn7_4 1_555 1_555
O45_4 Zn7_4 1_555 1_555
O46_4 Zn14_4 1_555 1_555
O4_8 H25_4 1_555 1_555
O4_8 H26_4 1_555 1_555
O2_8 H30_4 1_555 1_555
Zn5_2 O19_3 1_555 1_555
Zn6_2 O21_3 1_555 1_555
O17_3 C37_3 1_555 1_555
O18_3 C37_3 1_555 1_555
O20_3 C38_3 1_555 1_555
O22_3 C38_3 1_555 1_555
O23_2 C45_3 1_555 1_555
O24_2 C45_3 1_555 1_555
O25_3 Zn5_2 1_555 1_555
O26_3 Zn6_2 1_555 1_555
O27_3 C53_3 1_555 1_555
O28_3 C53_3 1_555 1_555
N7_3 C28_3 1_555 1_555
N8_3 C28_3 1_555 1_555
N9_3 C29_3 1_555 1_555
N10_3 H13_3 1_555 1_555
N11_3 H14_3 1_555 1_555
N12_3 H15_3 1_555 1_555
C28_3 N10_3 1_555 1_555
C29_3 N8_3 1_555 1_555
C30_3 N7_3 1_555 1_555
C31_3 N10_3 1_555 1_555
C32_3 C31_3 1_555 1_555
H16_3 C32_3 1_555 1_555
C33_3 C32_3 1_555 1_555
C34_3 C33_3 1_555 1_555
H17_3 C34_3 1_555 1_555
C35_3 C34_3 1_555 1_555
C36_3 C31_3 1_555 1_555
H18_3 C36_3 1_555 1_555
C37_3 C33_3 1_555 1_555
C38_3 C35_3 1_555 1_555
C39_3 N11_3 1_555 1_555
C40_3 C39_3 1_555 1_555
H19_3 C40_3 1_555 1_555
C41_3 C40_3 1_555 1_555
C42_3 C41_3 1_555 1_555
H20_3 C42_3 1_555 1_555
C43_3 C42_3 1_555 1_555
C44_3 C39_3 1_555 1_555
H21_3 C44_3 1_555 1_555
C45_3 C41_3 1_555 1_555
C46_3 O25_3 1_555 1_555
C47_3 N12_3 1_555 1_555
C48_3 C47_3 1_555 1_555
H22_3 C48_3 1_555 1_555
C49_3 C48_3 1_555 1_555
C50_3 C49_3 1_555 1_555
H23_3 C50_3 1_555 1_555
C51_3 C50_3 1_555 1_555
C52_3 C47_3 1_555 1_555
H24_3 C52_3 1_555 1_555
C53_3 C49_3 1_555 1_555
Zn7_5 O15_3 1_555 1_555
Zn8_2 O24_2 1_555 1_555
Zn11_2 O28_3 1_555 1_555
Zn12_2 O20_3 1_555 1_555
Zn14_5 O16_3 1_555 1_555
Zn15_2 O23_2 1_555 1_555
Zn18_2 O27_3 1_555 1_555
Zn19_2 O22_3 1_555 1_555
O34_3 Zn5_2 1_555 1_555
O36_3 Zn6_2 1_555 1_555
O38_2 Zn6_2 1_555 1_555
O40_2 Zn5_2 1_555 1_555
O42_3 Zn6_2 1_555 1_555
O44_3 Zn5_2 1_555 1_555
O17_3 Zn14_5 1_555 1_555
O18_3 Zn7_5 1_555 1_555
O26_3 C46_3 1_555 1_555
N9_3 C30_3 1_555 1_555
N11_3 C29_3 1_555 1_555
N12_3 C30_3 1_555 1_555
C35_3 C36_3 1_555 1_555
C43_3 C44_3 1_555 1_555
C43_3 C46_3 1_555 1_555
C51_3 C52_3 1_555 1_555
C51_3 C54_3 1_555 1_555
O19_3 H33_3 1_555 1_555
O19_3 H34_3 1_555 1_555
O21_3 H35_3 1_555 1_555
O21_3 H36_3 1_555 1_555
Zn1_5 O3_3 1_555 1_555
Zn2_2 O5_3 1_555 1_555
Zn3_5 O1_3 1_555 1_555
Zn4_2 O7_3 1_555 1_555
O1_3 C10_3 1_555 1_555
O2_9 Zn3_5 1_555 1_555
O3_3 C10_3 1_555 1_555
O4_9 Zn1_5 1_555 1_555
O6_3 C11_3 1_555 1_555
O8_3 C11_3 1_555 1_555
O9_2 C18_3 1_555 1_555
O10_2 C18_3 1_555 1_555
O11_3 Zn2_2 1_555 1_555
O12_3 Zn4_2 1_555 1_555
O13_3 C26_3 1_555 1_555
O14_3 C26_3 1_555 1_555
N1_3 C1_3 1_555 1_555
N2_3 C1_3 1_555 1_555
N3_3 C2_3 1_555 1_555
N4_3 H1_3 1_555 1_555
N5_3 H2_3 1_555 1_555
N6_3 H3_3 1_555 1_555
C1_3 N4_3 1_555 1_555
C2_3 N2_3 1_555 1_555
C3_3 N1_3 1_555 1_555
C4_3 N4_3 1_555 1_555
C5_3 C4_3 1_555 1_555
H4_3 C5_3 1_555 1_555
C6_3 C5_3 1_555 1_555
C7_3 C6_3 1_555 1_555
H5_3 C7_3 1_555 1_555
C8_3 C7_3 1_555 1_555
C9_3 C4_3 1_555 1_555
H6_3 C9_3 1_555 1_555
C10_3 C6_3 1_555 1_555
C11_3 C8_3 1_555 1_555
C12_3 N5_3 1_555 1_555
C13_3 C12_3 1_555 1_555
H7_3 C13_3 1_555 1_555
C14_3 C13_3 1_555 1_555
C15_3 C14_3 1_555 1_555
H8_3 C15_3 1_555 1_555
C16_3 C15_3 1_555 1_555
C17_3 C12_3 1_555 1_555
H9_3 C17_3 1_555 1_555
C18_3 C14_3 1_555 1_555
C19_3 O11_3 1_555 1_555
C20_3 N6_3 1_555 1_555
C21_3 C20_3 1_555 1_555
H10_3 C21_3 1_555 1_555
C22_3 C21_3 1_555 1_555
C23_3 C22_3 1_555 1_555
H11_3 C23_3 1_555 1_555
C24_3 C23_3 1_555 1_555
C25_3 C20_3 1_555 1_555
H12_3 C25_3 1_555 1_555
C26_3 C22_3 1_555 1_555
C27_3 C24_3 1_555 1_555
O29_3 Zn1_5 1_555 1_555
O30_3 Zn3_5 1_555 1_555
Zn9_2 O10_2 1_555 1_555
Zn10_2 O14_3 1_555 1_555
Zn13_2 O6_3 1_555 1_555
Zn16_2 O9_2 1_555 1_555
Zn17_2 O13_3 1_555 1_555
Zn20_2 O8_3 1_555 1_555
O31_5 Zn3_5 1_555 1_555
O32_5 Zn1_5 1_555 1_555
O33_3 Zn2_2 1_555 1_555
O35_3 Zn4_2 1_555 1_555
O37_2 Zn4_2 1_555 1_555
O39_2 Zn2_2 1_555 1_555
O41_3 Zn4_2 1_555 1_555
O43_3 Zn2_2 1_555 1_555
O45_5 Zn1_5 1_555 1_555
O46_5 Zn3_5 1_555 1_555
O12_3 C19_3 1_555 1_555
N3_3 C3_3 1_555 1_555
N5_3 C2_3 1_555 1_555
N6_3 C3_3 1_555 1_555
C8_3 C9_3 1_555 1_555
C16_3 C17_3 1_555 1_555
C16_3 C19_3 1_555 1_555
C24_3 C25_3 1_555 1_555
O5_3 H27_3 1_555 1_555
O5_3 H28_3 1_555 1_555
O7_3 H31_3 1_555 1_555
O7_3 H32_3 1_555 1_555
O2_10 Zn14_5 1_555 1_555
O4_10 Zn7_5 1_555 1_555
O31_6 Zn14_5 1_555 1_555
O32_6 Zn7_5 1_555 1_555
O45_6 Zn7_5 1_555 1_555
O46_6 Zn14_5 1_555 1_555
Zn9_2 O19_4 1_555 1_555
Zn16_2 O21_4 1_555 1_555
O17_4 C37_4 1_555 1_555
O18_4 C37_4 1_555 1_555
O20_4 C38_4 1_555 1_555
O22_4 C38_4 1_555 1_555
O38_2 C45_4 1_555 1_555
O40_2 C45_4 1_555 1_555
O25_4 Zn9_2 1_555 1_555
O26_4 Zn16_2 1_555 1_555
O27_4 C53_4 1_555 1_555
O28_4 C53_4 1_555 1_555
N7_4 C28_4 1_555 1_555
N8_4 C28_4 1_555 1_555
N9_4 C29_4 1_555 1_555
N10_4 H13_4 1_555 1_555
N11_4 H14_4 1_555 1_555
N12_4 H15_4 1_555 1_555
C28_4 N10_4 1_555 1_555
C29_4 N8_4 1_555 1_555
C30_4 N7_4 1_555 1_555
C31_4 N10_4 1_555 1_555
C32_4 C31_4 1_555 1_555
H16_4 C32_4 1_555 1_555
C33_4 C32_4 1_555 1_555
C34_4 C33_4 1_555 1_555
H17_4 C34_4 1_555 1_555
C35_4 C34_4 1_555 1_555
C36_4 C31_4 1_555 1_555
H18_4 C36_4 1_555 1_555
C37_4 C33_4 1_555 1_555
C38_4 C35_4 1_555 1_555
C39_4 N11_4 1_555 1_555
C40_4 C39_4 1_555 1_555
H19_4 C40_4 1_555 1_555
C41_4 C40_4 1_555 1_555
C42_4 C41_4 1_555 1_555
H20_4 C42_4 1_555 1_555
C43_4 C42_4 1_555 1_555
C44_4 C39_4 1_555 1_555
H21_4 C44_4 1_555 1_555
C45_4 C41_4 1_555 1_555
C46_4 O25_4 1_555 1_555
C47_4 N12_4 1_555 1_555
C48_4 C47_4 1_555 1_555
H22_4 C48_4 1_555 1_555
C49_4 C48_4 1_555 1_555
C50_4 C49_4 1_555 1_555
H23_4 C50_4 1_555 1_555
C51_4 C50_4 1_555 1_555
C52_4 C47_4 1_555 1_555
H24_4 C52_4 1_555 1_555
C53_4 C49_4 1_555 1_555
Zn7_6 O15_4 1_555 1_555
Zn13_2 O28_4 1_555 1_555
Zn11_2 O20_4 1_555 1_555
Zn14_6 O16_4 1_555 1_555
Zn20_2 O27_4 1_555 1_555
Zn18_2 O22_4 1_555 1_555
O34_4 Zn9_2 1_555 1_555
O36_4 Zn16_2 1_555 1_555
O42_4 Zn16_2 1_555 1_555
O44_4 Zn9_2 1_555 1_555
O17_4 Zn14_6 1_555 1_555
O18_4 Zn7_6 1_555 1_555
O26_4 C46_4 1_555 1_555
N9_4 C30_4 1_555 1_555
N11_4 C29_4 1_555 1_555
N12_4 C30_4 1_555 1_555
C35_4 C36_4 1_555 1_555
C43_4 C44_4 1_555 1_555
C43_4 C46_4 1_555 1_555
C51_4 C52_4 1_555 1_555
C51_4 C54_4 1_555 1_555
O19_4 H33_4 1_555 1_555
O19_4 H34_4 1_555 1_555
O21_4 H35_4 1_555 1_555
O21_4 H36_4 1_555 1_555
Zn1_6 O3_4 1_555 1_555
Zn8_2 O5_4 1_555 1_555
Zn3_6 O1_4 1_555 1_555
Zn15_2 O7_4 1_555 1_555
O1_4 C10_4 1_555 1_555
O2_11 Zn3_6 1_555 1_555
O3_4 C10_4 1_555 1_555
O4_11 Zn1_6 1_555 1_555
O6_4 C11_4 1_555 1_555
O8_4 C11_4 1_555 1_555
O37_2 C18_4 1_555 1_555
O39_2 C18_4 1_555 1_555
O11_4 Zn8_2 1_555 1_555
O12_4 Zn15_2 1_555 1_555
O13_4 C26_4 1_555 1_555
O14_4 C26_4 1_555 1_555
N1_4 C1_4 1_555 1_555
N2_4 C1_4 1_555 1_555
N3_4 C2_4 1_555 1_555
N4_4 H1_4 1_555 1_555
N5_4 H2_4 1_555 1_555
N6_4 H3_4 1_555 1_555
C1_4 N4_4 1_555 1_555
C2_4 N2_4 1_555 1_555
C3_4 N1_4 1_555 1_555
C4_4 N4_4 1_555 1_555
C5_4 C4_4 1_555 1_555
H4_4 C5_4 1_555 1_555
C6_4 C5_4 1_555 1_555
C7_4 C6_4 1_555 1_555
H5_4 C7_4 1_555 1_555
C8_4 C7_4 1_555 1_555
C9_4 C4_4 1_555 1_555
H6_4 C9_4 1_555 1_555
C10_4 C6_4 1_555 1_555
C11_4 C8_4 1_555 1_555
C12_4 N5_4 1_555 1_555
C13_4 C12_4 1_555 1_555
H7_4 C13_4 1_555 1_555
C14_4 C13_4 1_555 1_555
C15_4 C14_4 1_555 1_555
H8_4 C15_4 1_555 1_555
C16_4 C15_4 1_555 1_555
C17_4 C12_4 1_555 1_555
H9_4 C17_4 1_555 1_555
C18_4 C14_4 1_555 1_555
C19_4 O11_4 1_555 1_555
C20_4 N6_4 1_555 1_555
C21_4 C20_4 1_555 1_555
H10_4 C21_4 1_555 1_555
C22_4 C21_4 1_555 1_555
C23_4 C22_4 1_555 1_555
H11_4 C23_4 1_555 1_555
C24_4 C23_4 1_555 1_555
C25_4 C20_4 1_555 1_555
H12_4 C25_4 1_555 1_555
C26_4 C22_4 1_555 1_555
C27_4 C24_4 1_555 1_555
O29_4 Zn1_6 1_555 1_555
O30_4 Zn3_6 1_555 1_555
Zn12_2 O14_4 1_555 1_555
Zn10_2 O6_4 1_555 1_555
Zn19_2 O13_4 1_555 1_555
Zn17_2 O8_4 1_555 1_555
O31_7 Zn3_6 1_555 1_555
O32_7 Zn1_6 1_555 1_555
O33_4 Zn8_2 1_555 1_555
O35_4 Zn15_2 1_555 1_555
O41_4 Zn15_2 1_555 1_555
O43_4 Zn8_2 1_555 1_555
O45_7 Zn1_6 1_555 1_555
O46_7 Zn3_6 1_555 1_555
O12_4 C19_4 1_555 1_555
N3_4 C3_4 1_555 1_555
N5_4 C2_4 1_555 1_555
N6_4 C3_4 1_555 1_555
C8_4 C9_4 1_555 1_555
C16_4 C17_4 1_555 1_555
C16_4 C19_4 1_555 1_555
C24_4 C25_4 1_555 1_555
O5_4 H27_4 1_555 1_555
O5_4 H28_4 1_555 1_555
O7_4 H31_4 1_555 1_555
O7_4 H32_4 1_555 1_555
O2_12 Zn14_6 1_555 1_555
O4_12 Zn7_6 1_555 1_555
O31_8 Zn14_6 1_555 1_555
O32_8 Zn7_6 1_555 1_555
O45_8 Zn7_6 1_555 1_555
O46_8 Zn14_6 1_555 1_555
O4_3 H25_5 1_555 1_555
O4_3 H26_5 1_555 1_555
O2_3 H30_5 1_555 1_555
O31_2 C10_5 1_555 1_555
O32_2 C10_5 1_555 1_555
O34_4 C11_5 1_555 1_555
O36_4 C11_5 1_555 1_555
O9_3 C18_5 1_555 1_555
O10_3 C18_5 1_555 1_555
N1_5 C1_5 1_555 1_555
N2_5 C1_5 1_555 1_555
N4_5 H1_5 1_555 1_555
C1_5 N4_5 1_555 1_555
C4_5 N4_5 1_555 1_555
C5_5 C4_5 1_555 1_555
H4_5 C5_5 1_555 1_555
C6_5 C5_5 1_555 1_555
C7_5 C6_5 1_555 1_555
H5_5 C7_5 1_555 1_555
C8_5 C7_5 1_555 1_555
C9_5 C4_5 1_555 1_555
H6_5 C9_5 1_555 1_555
C10_5 C6_5 1_555 1_555
C11_5 C8_5 1_555 1_555
H7_5 C13_5 1_555 1_555
C14_5 C13_5 1_555 1_555
C18_5 C14_5 1_555 1_555
Zn11_2 O19_5 1_555 1_555
Zn18_2 O21_5 1_555 1_555
O25_5 Zn11_2 1_555 1_555
O26_5 Zn18_2 1_555 1_555
O42_3 C53_5 1_555 1_555
O44_3 C53_5 1_555 1_555
N9_5 C29_5 1_555 1_555
N11_5 H14_5 1_555 1_555
N12_5 H15_5 1_555 1_555
C39_5 N11_5 1_555 1_555
H20_5 C42_5 1_555 1_555
C43_5 C42_5 1_555 1_555
C44_5 C39_5 1_555 1_555
H21_5 C44_5 1_555 1_555
C46_5 O25_5 1_555 1_555
C47_5 N12_5 1_555 1_555
C48_5 C47_5 1_555 1_555
H22_5 C48_5 1_555 1_555
C49_5 C48_5 1_555 1_555
C50_5 C49_5 1_555 1_555
H23_5 C50_5 1_555 1_555
C51_5 C50_5 1_555 1_555
C52_5 C47_5 1_555 1_555
H24_5 C52_5 1_555 1_555
C53_5 C49_5 1_555 1_555
C54_5 O45_2 1_555 1_555
Zn13_2 O10_3 1_555 1_555
Zn20_2 O9_3 1_555 1_555
O38_3 Zn18_2 1_555 1_555
O40_3 Zn11_2 1_555 1_555
C8_5 C9_5 1_555 1_555
O26_5 C46_5 1_555 1_555
O46_2 C54_5 1_555 1_555
N9_5 C30_5 1_555 1_555
N11_5 C29_5 1_555 1_555
N12_5 C30_5 1_555 1_555
C43_5 C44_5 1_555 1_555
C43_5 C46_5 1_555 1_555
C51_5 C52_5 1_555 1_555
C51_5 C54_5 1_555 1_555
O2_4 H29_5 1_555 1_555
O19_5 H33_5 1_555 1_555
O19_5 H34_5 1_555 1_555
O21_5 H35_5 1_555 1_555
O21_5 H36_5 1_555 1_555
Zn10_2 O5_5 1_555 1_555
Zn17_2 O7_5 1_555 1_555
O11_5 Zn10_2 1_555 1_555
O12_5 Zn17_2 1_555 1_555
O41_3 C26_5 1_555 1_555
O43_3 C26_5 1_555 1_555
O45 C27_5 1_555 1_555
O46 C27_5 1_555 1_555
N3_5 C2_5 1_555 1_555
N5_5 H2_5 1_555 1_555
N6_5 H3_5 1_555 1_555
C12_5 N5_5 1_555 1_555
H8_5 C15_5 1_555 1_555
C16_5 C15_5 1_555 1_555
C17_5 C12_5 1_555 1_555
H9_5 C17_5 1_555 1_555
C19_5 O11_5 1_555 1_555
C20_5 N6_5 1_555 1_555
C21_5 C20_5 1_555 1_555
H10_5 C21_5 1_555 1_555
C22_5 C21_5 1_555 1_555
C23_5 C22_5 1_555 1_555
H11_5 C23_5 1_555 1_555
C24_5 C23_5 1_555 1_555
C25_5 C20_5 1_555 1_555
H12_5 C25_5 1_555 1_555
C26_5 C22_5 1_555 1_555
C27_5 C24_5 1_555 1_555
O31 C37_5 1_555 1_555
O32 C37_5 1_555 1_555
O33_4 C38_5 1_555 1_555
O35_4 C38_5 1_555 1_555
O23_3 C45_5 1_555 1_555
O24_3 C45_5 1_555 1_555
N7_5 C28_5 1_555 1_555
N8_5 C28_5 1_555 1_555
N10_5 H13_5 1_555 1_555
C28_5 N10_5 1_555 1_555
C31_5 N10_5 1_555 1_555
C32_5 C31_5 1_555 1_555
H16_5 C32_5 1_555 1_555
C33_5 C32_5 1_555 1_555
C34_5 C33_5 1_555 1_555
H17_5 C34_5 1_555 1_555
C35_5 C34_5 1_555 1_555
C36_5 C31_5 1_555 1_555
H18_5 C36_5 1_555 1_555
C37_5 C33_5 1_555 1_555
C38_5 C35_5 1_555 1_555
H19_5 C40_5 1_555 1_555
C41_5 C40_5 1_555 1_555
C45_5 C41_5 1_555 1_555
Zn12_2 O24_3 1_555 1_555
Zn19_2 O23_3 1_555 1_555
O37_3 Zn17_2 1_555 1_555
O39_3 Zn10_2 1_555 1_555
O12_5 C19_5 1_555 1_555
N3_5 C3_5 1_555 1_555
N5_5 C2_5 1_555 1_555
N6_5 C3_5 1_555 1_555
C16_5 C17_5 1_555 1_555
C16_5 C19_5 1_555 1_555
C24_5 C25_5 1_555 1_555
C35_5 C36_5 1_555 1_555
O5_5 H27_5 1_555 1_555
O5_5 H28_5 1_555 1_555
O7_5 H31_5 1_555 1_555
O7_5 H32_5 1_555 1_555
O4 H25_6 1_555 1_555
O4 H26_6 1_555 1_555
O2 H30_6 1_555 1_555
O2_2 H29_6 1_555 1_555
Zn12_2 O5_6 1_555 1_555
Zn19_2 O7_6 1_555 1_555
O11_6 Zn12_2 1_555 1_555
O12_6 Zn19_2 1_555 1_555
O41_4 C26_6 1_555 1_555
O43_4 C26_6 1_555 1_555
O45_3 C27_6 1_555 1_555
O46_3 C27_6 1_555 1_555
N3_6 C2_6 1_555 1_555
N5_6 H2_6 1_555 1_555
N6_6 H3_6 1_555 1_555
C12_6 N5_6 1_555 1_555
H8_6 C15_6 1_555 1_555
C16_6 C15_6 1_555 1_555
C17_6 C12_6 1_555 1_555
H9_6 C17_6 1_555 1_555
C19_6 O11_6 1_555 1_555
C20_6 N6_6 1_555 1_555
C21_6 C20_6 1_555 1_555
H10_6 C21_6 1_555 1_555
C22_6 C21_6 1_555 1_555
C23_6 C22_6 1_555 1_555
H11_6 C23_6 1_555 1_555
C24_6 C23_6 1_555 1_555
C25_6 C20_6 1_555 1_555
H12_6 C25_6 1_555 1_555
C26_6 C22_6 1_555 1_555
C27_6 C24_6 1_555 1_555
O31_3 C37_6 1_555 1_555
O32_3 C37_6 1_555 1_555
O34_3 C38_6 1_555 1_555
O36_3 C38_6 1_555 1_555
O38_3 C45_6 1_555 1_555
O40_3 C45_6 1_555 1_555
N7_6 C28_6 1_555 1_555
N8_6 C28_6 1_555 1_555
N10_6 H13_6 1_555 1_555
C28_6 N10_6 1_555 1_555
C31_6 N10_6 1_555 1_555
C32_6 C31_6 1_555 1_555
H16_6 C32_6 1_555 1_555
C33_6 C32_6 1_555 1_555
C34_6 C33_6 1_555 1_555
H17_6 C34_6 1_555 1_555
C35_6 C34_6 1_555 1_555
C36_6 C31_6 1_555 1_555
H18_6 C36_6 1_555 1_555
C37_6 C33_6 1_555 1_555
C38_6 C35_6 1_555 1_555
H19_6 C40_6 1_555 1_555
C41_6 C40_6 1_555 1_555
C45_6 C41_6 1_555 1_555
O12_6 C19_6 1_555 1_555
N3_6 C3_6 1_555 1_555
N5_6 C2_6 1_555 1_555
N6_6 C3_6 1_555 1_555
C16_6 C17_6 1_555 1_555
C16_6 C19_6 1_555 1_555
C24_6 C25_6 1_555 1_555
C35_6 C36_6 1_555 1_555
O5_6 H27_6 1_555 1_555
O5_6 H28_6 1_555 1_555
O7_6 H31_6 1_555 1_555
O7_6 H32_6 1_555 1_555
O4_7 H25_7 1_555 1_555
O4_7 H26_7 1_555 1_555
O2_7 H30_7 1_555 1_555
O31_4 C10_6 1_555 1_555
O32_4 C10_6 1_555 1_555
O33_3 C11_6 1_555 1_555
O35_3 C11_6 1_555 1_555
O37_3 C18_6 1_555 1_555
O39_3 C18_6 1_555 1_555
N1_6 C1_6 1_555 1_555
N2_6 C1_6 1_555 1_555
N4_6 H1_6 1_555 1_555
C1_6 N4_6 1_555 1_555
C4_6 N4_6 1_555 1_555
C5_6 C4_6 1_555 1_555
H4_6 C5_6 1_555 1_555
C6_6 C5_6 1_555 1_555
C7_6 C6_6 1_555 1_555
H5_6 C7_6 1_555 1_555
C8_6 C7_6 1_555 1_555
C9_6 C4_6 1_555 1_555
H6_6 C9_6 1_555 1_555
C10_6 C6_6 1_555 1_555
C11_6 C8_6 1_555 1_555
H7_6 C13_6 1_555 1_555
C14_6 C13_6 1_555 1_555
C18_6 C14_6 1_555 1_555
Zn13_2 O19_6 1_555 1_555
Zn20_2 O21_6 1_555 1_555
O25_6 Zn13_2 1_555 1_555
O26_6 Zn20_2 1_555 1_555
O42_4 C53_6 1_555 1_555
O44_4 C53_6 1_555 1_555
N9_6 C29_6 1_555 1_555
N11_6 H14_6 1_555 1_555
N12_6 H15_6 1_555 1_555
C39_6 N11_6 1_555 1_555
H20_6 C42_6 1_555 1_555
C43_6 C42_6 1_555 1_555
C44_6 C39_6 1_555 1_555
H21_6 C44_6 1_555 1_555
C46_6 O25_6 1_555 1_555
C47_6 N12_6 1_555 1_555
C48_6 C47_6 1_555 1_555
H22_6 C48_6 1_555 1_555
C49_6 C48_6 1_555 1_555
C50_6 C49_6 1_555 1_555
H23_6 C50_6 1_555 1_555
C51_6 C50_6 1_555 1_555
C52_6 C47_6 1_555 1_555
H24_6 C52_6 1_555 1_555
C53_6 C49_6 1_555 1_555
C54_6 O45_4 1_555 1_555
C8_6 C9_6 1_555 1_555
O26_6 C46_6 1_555 1_555
O46_4 C54_6 1_555 1_555
N9_6 C30_6 1_555 1_555
N11_6 C29_6 1_555 1_555
N12_6 C30_6 1_555 1_555
C43_6 C44_6 1_555 1_555
C43_6 C46_6 1_555 1_555
C51_6 C52_6 1_555 1_555
C51_6 C54_6 1_555 1_555
O2_8 H29_7 1_555 1_555
O19_6 H33_6 1_555 1_555
O19_6 H34_6 1_555 1_555
O21_6 H35_6 1_555 1_555
O21_6 H36_6 1_555 1_555
O4_5 H25_8 1_555 1_555
O4_5 H26_8 1_555 1_555
O2_5 H30_8 1_555 1_555
O2_6 H29_8 1_555 1_555
Zn10 O5_7 1_555 1_555
Zn17 O7_7 1_555 1_555
O31_6 C10_7 1_555 1_555
O32_6 C10_7 1_555 1_555
O34_2 C11_7 1_555 1_555
O36_2 C11_7 1_555 1_555
O9_4 C18_7 1_555 1_555
O10_4 C18_7 1_555 1_555
O11_7 Zn10 1_555 1_555
O12_7 Zn17 1_555 1_555
O41 C26_7 1_555 1_555
O43 C26_7 1_555 1_555
N1_7 C1_7 1_555 1_555
N2_7 C1_7 1_555 1_555
N3_7 C2_7 1_555 1_555
N4_7 H1_7 1_555 1_555
N5_7 H2_7 1_555 1_555
N6_7 H3_7 1_555 1_555
C1_7 N4_7 1_555 1_555
C2_7 N2_7 1_555 1_555
C3_7 N1_7 1_555 1_555
C4_7 N4_7 1_555 1_555
C5_7 C4_7 1_555 1_555
H4_7 C5_7 1_555 1_555
C6_7 C5_7 1_555 1_555
C7_7 C6_7 1_555 1_555
H5_7 C7_7 1_555 1_555
C8_7 C7_7 1_555 1_555
C9_7 C4_7 1_555 1_555
H6_7 C9_7 1_555 1_555
C10_7 C6_7 1_555 1_555
C11_7 C8_7 1_555 1_555
C12_7 N5_7 1_555 1_555
C13_7 C12_7 1_555 1_555
H7_7 C13_7 1_555 1_555
C14_7 C13_7 1_555 1_555
C15_7 C14_7 1_555 1_555
H8_7 C15_7 1_555 1_555
C16_7 C15_7 1_555 1_555
C17_7 C12_7 1_555 1_555
H9_7 C17_7 1_555 1_555
C18_7 C14_7 1_555 1_555
C19_7 O11_7 1_555 1_555
C20_7 N6_7 1_555 1_555
C21_7 C20_7 1_555 1_555
H10_7 C21_7 1_555 1_555
C22_7 C21_7 1_555 1_555
C23_7 C22_7 1_555 1_555
H11_7 C23_7 1_555 1_555
C24_7 C23_7 1_555 1_555
C25_7 C20_7 1_555 1_555
H12_7 C25_7 1_555 1_555
C26_7 C22_7 1_555 1_555
C27_7 C24_7 1_555 1_555
Zn13 O10_4 1_555 1_555
Zn20 O9_4 1_555 1_555
O37_4 Zn17 1_555 1_555
O39_4 Zn10 1_555 1_555
O12_7 C19_7 1_555 1_555
N3_7 C3_7 1_555 1_555
N5_7 C2_7 1_555 1_555
N6_7 C3_7 1_555 1_555
C8_7 C9_7 1_555 1_555
C16_7 C17_7 1_555 1_555
C16_7 C19_7 1_555 1_555
C24_7 C25_7 1_555 1_555
O5_7 H27_7 1_555 1_555
O5_7 H28_7 1_555 1_555
O7_7 H31_7 1_555 1_555
O7_7 H32_7 1_555 1_555
Zn11 O19_7 1_555 1_555
Zn18 O21_7 1_555 1_555
O31_5 C37_7 1_555 1_555
O32_5 C37_7 1_555 1_555
O33_2 C38_7 1_555 1_555
O35_2 C38_7 1_555 1_555
O23_4 C45_7 1_555 1_555
O24_4 C45_7 1_555 1_555
O25_7 Zn11 1_555 1_555
O26_7 Zn18 1_555 1_555
O42 C53_7 1_555 1_555
O44 C53_7 1_555 1_555
N7_7 C28_7 1_555 1_555
N8_7 C28_7 1_555 1_555
N9_7 C29_7 1_555 1_555
N10_7 H13_7 1_555 1_555
N11_7 H14_7 1_555 1_555
N12_7 H15_7 1_555 1_555
C28_7 N10_7 1_555 1_555
C29_7 N8_7 1_555 1_555
C30_7 N7_7 1_555 1_555
C31_7 N10_7 1_555 1_555
C32_7 C31_7 1_555 1_555
H16_7 C32_7 1_555 1_555
C33_7 C32_7 1_555 1_555
C34_7 C33_7 1_555 1_555
H17_7 C34_7 1_555 1_555
C35_7 C34_7 1_555 1_555
C36_7 C31_7 1_555 1_555
H18_7 C36_7 1_555 1_555
C37_7 C33_7 1_555 1_555
C38_7 C35_7 1_555 1_555
C39_7 N11_7 1_555 1_555
C40_7 C39_7 1_555 1_555
H19_7 C40_7 1_555 1_555
C41_7 C40_7 1_555 1_555
C42_7 C41_7 1_555 1_555
H20_7 C42_7 1_555 1_555
C43_7 C42_7 1_555 1_555
C44_7 C39_7 1_555 1_555
H21_7 C44_7 1_555 1_555
C45_7 C41_7 1_555 1_555
C46_7 O25_7 1_555 1_555
C47_7 N12_7 1_555 1_555
C48_7 C47_7 1_555 1_555
H22_7 C48_7 1_555 1_555
C49_7 C48_7 1_555 1_555
C50_7 C49_7 1_555 1_555
H23_7 C50_7 1_555 1_555
C51_7 C50_7 1_555 1_555
C52_7 C47_7 1_555 1_555
H24_7 C52_7 1_555 1_555
C53_7 C49_7 1_555 1_555
Zn12 O24_4 1_555 1_555
Zn19 O23_4 1_555 1_555
O38_4 Zn18 1_555 1_555
O40_4 Zn11 1_555 1_555
O26_7 C46_7 1_555 1_555
N9_7 C30_7 1_555 1_555
N11_7 C29_7 1_555 1_555
N12_7 C30_7 1_555 1_555
C35_7 C36_7 1_555 1_555
C43_7 C44_7 1_555 1_555
C43_7 C46_7 1_555 1_555
C51_7 C52_7 1_555 1_555
C51_7 C54_7 1_555 1_555
O19_7 H33_7 1_555 1_555
O19_7 H34_7 1_555 1_555
O21_7 H35_7 1_555 1_555
O21_7 H36_7 1_555 1_555
Zn12 O5_8 1_555 1_555
Zn19 O7_8 1_555 1_555
O31_8 C10_8 1_555 1_555
O32_8 C10_8 1_555 1_555
O33 C11_8 1_555 1_555
O35 C11_8 1_555 1_555
O37_4 C18_8 1_555 1_555
O39_4 C18_8 1_555 1_555
O11_8 Zn12 1_555 1_555
O12_8 Zn19 1_555 1_555
O41_2 C26_8 1_555 1_555
O43_2 C26_8 1_555 1_555
N1_8 C1_8 1_555 1_555
N2_8 C1_8 1_555 1_555
N3_8 C2_8 1_555 1_555
N4_8 H1_8 1_555 1_555
N5_8 H2_8 1_555 1_555
N6_8 H3_8 1_555 1_555
C1_8 N4_8 1_555 1_555
C2_8 N2_8 1_555 1_555
C3_8 N1_8 1_555 1_555
C4_8 N4_8 1_555 1_555
C5_8 C4_8 1_555 1_555
H4_8 C5_8 1_555 1_555
C6_8 C5_8 1_555 1_555
C7_8 C6_8 1_555 1_555
H5_8 C7_8 1_555 1_555
C8_8 C7_8 1_555 1_555
C9_8 C4_8 1_555 1_555
H6_8 C9_8 1_555 1_555
C10_8 C6_8 1_555 1_555
C11_8 C8_8 1_555 1_555
C12_8 N5_8 1_555 1_555
C13_8 C12_8 1_555 1_555
H7_8 C13_8 1_555 1_555
C14_8 C13_8 1_555 1_555
C15_8 C14_8 1_555 1_555
H8_8 C15_8 1_555 1_555
C16_8 C15_8 1_555 1_555
C17_8 C12_8 1_555 1_555
H9_8 C17_8 1_555 1_555
C18_8 C14_8 1_555 1_555
C19_8 O11_8 1_555 1_555
C20_8 N6_8 1_555 1_555
C21_8 C20_8 1_555 1_555
H10_8 C21_8 1_555 1_555
C22_8 C21_8 1_555 1_555
C23_8 C22_8 1_555 1_555
H11_8 C23_8 1_555 1_555
C24_8 C23_8 1_555 1_555
C25_8 C20_8 1_555 1_555
H12_8 C25_8 1_555 1_555
C26_8 C22_8 1_555 1_555
C27_8 C24_8 1_555 1_555
O12_8 C19_8 1_555 1_555
N3_8 C3_8 1_555 1_555
N5_8 C2_8 1_555 1_555
N6_8 C3_8 1_555 1_555
C8_8 C9_8 1_555 1_555
C16_8 C17_8 1_555 1_555
C16_8 C19_8 1_555 1_555
C24_8 C25_8 1_555 1_555
O5_8 H27_8 1_555 1_555
O5_8 H28_8 1_555 1_555
O7_8 H31_8 1_555 1_555
O7_8 H32_8 1_555 1_555
Zn13 O19_8 1_555 1_555
Zn20 O21_8 1_555 1_555
O31_7 C37_8 1_555 1_555
O32_7 C37_8 1_555 1_555
O34 C38_8 1_555 1_555
O36 C38_8 1_555 1_555
O38_4 C45_8 1_555 1_555
O40_4 C45_8 1_555 1_555
O25_8 Zn13 1_555 1_555
O26_8 Zn20 1_555 1_555
O42_2 C53_8 1_555 1_555
O44_2 C53_8 1_555 1_555
N7_8 C28_8 1_555 1_555
N8_8 C28_8 1_555 1_555
N9_8 C29_8 1_555 1_555
N10_8 H13_8 1_555 1_555
N11_8 H14_8 1_555 1_555
N12_8 H15_8 1_555 1_555
C28_8 N10_8 1_555 1_555
C29_8 N8_8 1_555 1_555
C30_8 N7_8 1_555 1_555
C31_8 N10_8 1_555 1_555
C32_8 C31_8 1_555 1_555
H16_8 C32_8 1_555 1_555
C33_8 C32_8 1_555 1_555
C34_8 C33_8 1_555 1_555
H17_8 C34_8 1_555 1_555
C35_8 C34_8 1_555 1_555
C36_8 C31_8 1_555 1_555
H18_8 C36_8 1_555 1_555
C37_8 C33_8 1_555 1_555
C38_8 C35_8 1_555 1_555
C39_8 N11_8 1_555 1_555
C40_8 C39_8 1_555 1_555
H19_8 C40_8 1_555 1_555
C41_8 C40_8 1_555 1_555
C42_8 C41_8 1_555 1_555
H20_8 C42_8 1_555 1_555
C43_8 C42_8 1_555 1_555
C44_8 C39_8 1_555 1_555
H21_8 C44_8 1_555 1_555
C45_8 C41_8 1_555 1_555
C46_8 O25_8 1_555 1_555
C47_8 N12_8 1_555 1_555
C48_8 C47_8 1_555 1_555
H22_8 C48_8 1_555 1_555
C49_8 C48_8 1_555 1_555
C50_8 C49_8 1_555 1_555
H23_8 C50_8 1_555 1_555
C51_8 C50_8 1_555 1_555
C52_8 C47_8 1_555 1_555
H24_8 C52_8 1_555 1_555
C53_8 C49_8 1_555 1_555
O26_8 C46_8 1_555 1_555
N9_8 C30_8 1_555 1_555
N11_8 C29_8 1_555 1_555
N12_8 C30_8 1_555 1_555
C35_8 C36_8 1_555 1_555
C43_8 C44_8 1_555 1_555
C43_8 C46_8 1_555 1_555
C51_8 C52_8 1_555 1_555
C51_8 C54_8 1_555 1_555
O19_8 H33_8 1_555 1_555
O19_8 H34_8 1_555 1_555
O21_8 H35_8 1_555 1_555
O21_8 H36_8 1_555 1_555

#END
