
###############################################################################
#
# This file contains modified crystal structure data generated from the
# MOF subset of the Cambridge Structural Database (CSD) v543 
# hosted by the Cambridge Crystallographic Data Centre (CCDC).
#
# This work is licensed under the Creative Commons
# Attribution-NonCommercial-ShareAlike 4.0 International License.
# To view a copy of this license, visit
# http://creativecommons.org/licenses/by-nc-sa/4.0/
# or send a letter to
# Creative Commons, PO Box 1866, Mountain View, CA 94042, USA.
#
# CIF created using the CSD Python API on 29 September 2022
# The structure has been converted into the P1 space group
# The structure has a 3D framework
# The original CSD entry ZINVUQ is in the orthorhombic crystal system
# The framework has been calculated to contain at least 10.0% void space
# The void calculation uses a probe of radius 1.32A, grid spacing 0.4
# The framework is charged, counterions have been retained in the structure
#
###############################################################################

data_ZINVUQ
_chemical_formula_moiety         '(C156 H116 Cd4 N56 O6 4+)n'
_symmetry_cell_setting           triclinic
_symmetry_space_group_name_H-M   'P 1'
_symmetry_Int_Tables_number      1
_space_group_name_Hall           'P 1'
loop_
_symmetry_equiv_pos_site_id
_symmetry_equiv_pos_as_xyz
1 x,y,z
_cell_length_a                   7.8723(14)
_cell_length_b                   40.888(7)
_cell_length_c                   18.008(3)
_cell_angle_alpha                90
_cell_angle_beta                 90
_cell_angle_gamma                90
_cell_volume                     5796.46
loop_
_atom_site_label
_atom_site_type_symbol
_atom_site_fract_x
_atom_site_fract_y
_atom_site_fract_z
N1 N 0.4791(5) 0.06195(7) 0.06701(16)
C2 C 0.4802(3) 0.06526(6) 0.14543(9)
C3 C 0.5475(3) 0.09320(5) 0.17812(12)
H2 H 0.5919 0.1098 0.1486
C4 C 0.5483(3) 0.09636(5) 0.25497(13)
H3 H 0.5934 0.1151 0.2768
C5 C 0.4819(4) 0.07158(7) 0.29913(9)
C6 C 0.4146(3) 0.04365(6) 0.26645(11)
H4 H 0.3702 0.0271 0.2960
C7 C 0.4138(3) 0.04048(5) 0.18960(12)
H5 H 0.3687 0.0218 0.1677
C11 C 0.4657(3) 0.08952(5) 0.02053(12)
C12 C 0.3626(3) 0.11575(6) 0.03994(11)
H8 H 0.3027 0.1154 0.0845
H9 H 0.2799 0.1601 0.0058
C14 C 0.4895(5) 0.03048(8) 0.03417(19)
C15 C 0.6083(5) 0.00781(9) 0.0576(2)
H10 H 0.6821 0.0131 0.0961
N5 N 0.4884(5) 0.06483(9) 0.50039(12)
N6 N 0.4482(4) 0.09841(9) 0.49069(15)
C19 C 0.4424(4) 0.10492(7) 0.41328(17)
H14 H 0.4188 0.1250 0.3914
N7 N 0.4790(4) 0.07535(8) 0.37512(11)
C20 C 0.5074(4) 0.05057(7) 0.42896(16)
H15 H 0.5338 0.0288 0.4192
Cd1 Cd 0.13180(5) 0.2500 0.76671(2)
O1 O 0.3470(7) 0.2500 0.6755(3)
O2 O 0.5397(9) 0.2500 0.5971(5)
C1 C 0.5512(6) 0.18578(10) 0.8411(2)
H1 H 0.6652 0.1799 0.8431
C8 C 0.4384(3) 0.14311(5) 0.92628(13)
C9 C 0.5415(3) 0.11687(6) 0.90687(11)
H6 H 0.6014 0.1172 0.8624
C10 C 0.5552(3) 0.09007(5) 0.95400(13)
H7 H 0.6242 0.0725 0.9410
C13 C 0.3489(3) 0.14255(5) 0.99281(14)
N2 N 0.3166(4) 0.21035(8) 0.81362(19)
C16 C 0.3814(5) 0.02245(9) 0.9756(2)
H11 H 0.3020 0.0376 0.9589
C17 C 0.3894(10) 0.2500 0.6112(4)
H12 H 0.3088 0.2500 0.5735
N3 N 0.4910(4) 0.20998(8) 0.80212(19)
N4 N 0.4252(4) 0.17033(8) 0.87821(18)
C18 C 0.2825(6) 0.18665(10) 0.8593(2)
H13 H 0.1743 0.1816 0.8766
Cd3 Cd 0.63180(5) 0.2500 0.73329(2)
O4 O 0.0397(9) 0.2500 0.9029(5)
N15 N 0.3166(4) 0.28965(8) 0.81362(19)
C21 C 0.4488(6) 0.81422(10) 0.1589(2)
H16 H 0.3348 0.8201 0.1569
C28 C 0.5616(3) 0.85689(5) 0.07372(13)
C29 C 0.4585(3) 0.88313(6) 0.09313(11)
H21 H 0.3986 0.8828 0.1376
C30 C 0.4448(3) 0.90993(5) 0.04600(13)
H22 H 0.3758 0.9275 0.0590
C33 C 0.6511(3) 0.85745(5) 0.00719(14)
N9 N 0.6834(4) 0.78965(8) 0.18638(19)
C36 C 0.6186(5) 0.97755(9) 0.0244(2)
H26 H 0.6980 0.9624 0.0411
N10 N 0.5090(4) 0.79002(8) 0.19788(19)
N11 N 0.5748(4) 0.82967(8) 0.12179(18)
C37 C 0.7175(6) 0.81335(10) 0.1407(2)
H27 H 0.8257 0.8184 0.1234
Cd2 Cd 0.36820(5) 0.7500 0.26671(2)
Cd4 Cd 0.86820(5) 0.7500 0.23329(2)
O3 O 0.8470(7) 0.2500 0.8245(3)
N16 N 0.9910(4) 0.29002(8) 0.69788(19)
N17 N 0.9910(4) 0.20998(8) 0.69788(19)
C21_2 C 0.0512(6) 0.18578(10) 0.6589(2)
H16_2 H 0.1652 0.1799 0.6569
C23 C 0.0475(3) 0.09320(5) 0.32188(12)
H17 H 0.0919 0.1098 0.3514
C24 C 0.0483(3) 0.09636(5) 0.24503(13)
H18 H 0.0934 0.1151 0.2232
C29_2 C 0.0415(3) 0.11687(6) 0.59313(11)
H21_2 H 0.1014 0.1172 0.6376
C30_2 C 0.0552(3) 0.09007(5) 0.54600(13)
H22_2 H 0.1242 0.0725 0.5590
C35 C 0.1083(5) 0.00781(9) 0.4424(2)
H25 H 0.1821 0.0131 0.4039
C39 C 0.0074(4) 0.05057(7) 0.07104(16)
H29 H 0.0338 0.0288 0.0808
O1_2 O 0.1530(7) 0.7500 0.1755(3)
N1_2 N 0.0209(5) 0.93805(7) 0.56701(16)
C2_2 C 0.0198(3) 0.93474(6) 0.64543(9)
C5_2 C 0.0181(4) 0.92842(7) 0.79913(9)
C6_2 C 0.0854(3) 0.95635(6) 0.76645(11)
H4_2 H 0.1298 0.9729 0.7960
C7_2 C 0.0862(3) 0.95952(5) 0.68960(12)
H5_2 H 0.1313 0.9782 0.6677
C8_2 C 0.0616(3) 0.85689(5) 0.42628(13)
C11_2 C 0.0343(3) 0.91048(5) 0.52053(12)
C12_2 C 0.1374(3) 0.88425(6) 0.53994(11)
H8_2 H 0.1973 0.8846 0.5845
C13_2 C 0.1511(3) 0.85745(5) 0.49281(14)
H9_2 H 0.2201 0.8399 0.5058
C14_2 C 0.0105(5) 0.96952(8) 0.53417(19)
N2_2 N 0.1834(4) 0.78965(8) 0.31362(19)
C16_2 C 0.1186(5) 0.97755(9) 0.4756(2)
H11_2 H 0.1980 0.9624 0.4589
C17_2 C 0.1106(10) 0.7500 0.1112(4)
H12_2 H 0.1912 0.7500 0.0735
N3_2 N 0.0090(4) 0.79002(8) 0.30212(19)
N4_2 N 0.0748(4) 0.82967(8) 0.37821(18)
C18_2 C 0.2175(6) 0.81335(10) 0.3593(2)
H13_2 H 0.3257 0.8184 0.3766
N6_2 N 0.0518(4) 0.90159(9) 0.99069(15)
C19_2 C 0.0576(4) 0.89508(7) 0.91328(17)
H14_2 H 0.0812 0.8750 0.8914
N7_2 N 0.0210(4) 0.92465(8) 0.87512(11)
O3_2 O 0.6530(7) 0.7500 0.3245(3)
O4_2 O 0.4603(9) 0.7500 0.4029(5)
N15_2 N 0.1834(4) 0.71035(8) 0.31362(19)
N16_2 N 0.5090(4) 0.70998(8) 0.19788(19)
N8 N 0.9791(5) 0.06195(7) 0.43299(16)
C22 C 0.9802(3) 0.06526(6) 0.35457(9)
C25 C 0.9819(4) 0.07158(7) 0.20087(9)
C26 C 0.9146(3) 0.04365(6) 0.23355(11)
H19 H 0.8702 0.0271 0.2040
C27 C 0.9138(3) 0.04048(5) 0.31040(12)
H20 H 0.8687 0.0218 0.3323
C28_2 C 0.9384(3) 0.14311(5) 0.57372(13)
C31 C 0.9657(3) 0.08952(5) 0.47947(12)
C32 C 0.8626(3) 0.11575(6) 0.46006(11)
H23 H 0.8027 0.1154 0.4155
C33_2 C 0.8489(3) 0.14255(5) 0.50719(14)
H24 H 0.7799 0.1601 0.4942
C34 C 0.9895(5) 0.03048(8) 0.46583(19)
N9_2 N 0.8166(4) 0.21035(8) 0.68638(19)
C36_2 C 0.8814(5) 0.02245(9) 0.5244(2)
H26_2 H 0.8020 0.0376 0.5411
N11_2 N 0.9252(4) 0.17033(8) 0.62179(18)
C37_2 C 0.7825(6) 0.18665(10) 0.6407(2)
H27_2 H 0.6743 0.1816 0.6234
N13 N 0.9482(4) 0.09841(9) 0.00931(15)
C38 C 0.9424(4) 0.10492(7) 0.08672(17)
H28 H 0.9188 0.1250 0.1086
N14 N 0.9790(4) 0.07535(8) 0.12488(11)
O2_2 O 0.9603(9) 0.7500 0.0971(5)
C1_2 C 0.9488(6) 0.81422(10) 0.3411(2)
H1_2 H 0.8348 0.8201 0.3431
C3_2 C 0.9525(3) 0.90680(5) 0.67812(12)
H2_2 H 0.9081 0.8902 0.6486
C4_2 C 0.9517(3) 0.90364(5) 0.75497(13)
H3_2 H 0.9066 0.8849 0.7768
C9_2 C 0.9585(3) 0.88313(6) 0.40687(11)
H6_2 H 0.8986 0.8828 0.3624
C10_2 C 0.9448(3) 0.90993(5) 0.45400(13)
H7_2 H 0.8758 0.9275 0.4410
C15_2 C 0.8917(5) 0.99219(9) 0.5576(2)
H10_2 H 0.8179 0.9869 0.5961
C20_2 C 0.9926(4) 0.94943(7) 0.92896(16)
H15_2 H 0.9662 0.9712 0.9192
C1_3 C 0.0512(6) 0.31422(10) 0.6589(2)
H1_3 H 0.1652 0.3201 0.6569
C3_3 C 0.0475(3) 0.40680(5) 0.32188(12)
H2_3 H 0.0919 0.3902 0.3514
C4_3 C 0.0483(3) 0.40364(5) 0.24503(13)
H3_3 H 0.0934 0.3849 0.2232
C9_3 C 0.0415(3) 0.38313(6) 0.59313(11)
H6_3 H 0.1014 0.3828 0.6376
C10_3 C 0.0552(3) 0.40993(5) 0.54600(13)
H7_3 H 0.1242 0.4275 0.5590
C15_3 C 0.1083(5) 0.49219(9) 0.4424(2)
H10_3 H 0.1821 0.4869 0.4039
C20_3 C 0.0074(4) 0.44943(7) 0.07104(16)
H15_3 H 0.0338 0.4712 0.0808
N8_2 N 0.0209(5) 0.56195(7) 0.56701(16)
C22_2 C 0.0198(3) 0.56526(6) 0.64543(9)
C25_2 C 0.0181(4) 0.57158(7) 0.79913(9)
C26_2 C 0.0854(3) 0.54365(6) 0.76645(11)
H19_2 H 0.1298 0.5271 0.7960
C27_2 C 0.0862(3) 0.54048(5) 0.68960(12)
H20_2 H 0.1313 0.5218 0.6677
C28_3 C 0.0616(3) 0.64311(5) 0.42628(13)
C31_2 C 0.0343(3) 0.58952(5) 0.52053(12)
C32_2 C 0.1374(3) 0.61575(6) 0.53994(11)
H23_2 H 0.1973 0.6154 0.5845
C33_3 C 0.1511(3) 0.64255(5) 0.49281(14)
H24_2 H 0.2201 0.6601 0.5058
C34_2 C 0.0105(5) 0.53048(8) 0.53417(19)
C36_3 C 0.1186(5) 0.52245(9) 0.4756(2)
H26_3 H 0.1980 0.5376 0.4589
N10_2 N 0.0090(4) 0.70998(8) 0.30212(19)
N11_3 N 0.0748(4) 0.67033(8) 0.37821(18)
C37_3 C 0.2175(6) 0.68665(10) 0.3593(2)
H27_3 H 0.3257 0.6816 0.3766
N13_2 N 0.0518(4) 0.59841(9) 0.99069(15)
C38_2 C 0.0576(4) 0.60492(7) 0.91328(17)
H28_2 H 0.0812 0.6250 0.8914
N14_2 N 0.0210(4) 0.57535(8) 0.87512(11)
N1_3 N 0.9791(5) 0.43805(7) 0.43299(16)
C2_3 C 0.9802(3) 0.43474(6) 0.35457(9)
C5_3 C 0.9819(4) 0.42842(7) 0.20087(9)
C6_3 C 0.9146(3) 0.45635(6) 0.23355(11)
H4_3 H 0.8702 0.4729 0.2040
C7_3 C 0.9138(3) 0.45952(5) 0.31040(12)
H5_3 H 0.8687 0.4782 0.3323
C8_3 C 0.9384(3) 0.35689(5) 0.57372(13)
C11_3 C 0.9657(3) 0.41048(5) 0.47947(12)
C12_3 C 0.8626(3) 0.38425(6) 0.46006(11)
H8_3 H 0.8027 0.3846 0.4155
C13_3 C 0.8489(3) 0.35745(5) 0.50719(14)
H9_3 H 0.7799 0.3399 0.4942
C14_3 C 0.9895(5) 0.46952(8) 0.46583(19)
N2_3 N 0.8166(4) 0.28965(8) 0.68638(19)
C16_3 C 0.8814(5) 0.47755(9) 0.5244(2)
H11_3 H 0.8020 0.4624 0.5411
C17_3 C 0.8894(10) 0.2500 0.8888(4)
H12_3 H 0.8088 0.2500 0.9265
N4_3 N 0.9252(4) 0.32967(8) 0.62179(18)
C18_3 C 0.7825(6) 0.31335(10) 0.6407(2)
H13_3 H 0.6743 0.3184 0.6234
N6_3 N 0.9482(4) 0.40159(9) 0.00931(15)
C19_3 C 0.9424(4) 0.39508(7) 0.08672(17)
H14_3 H 0.9188 0.3750 0.1086
N7_3 N 0.9790(4) 0.42465(8) 0.12488(11)
C21_3 C 0.9488(6) 0.68578(10) 0.3411(2)
H16_3 H 0.8348 0.6799 0.3431
C23_2 C 0.9525(3) 0.59320(5) 0.67812(12)
H17_2 H 0.9081 0.6098 0.6486
C24_2 C 0.9517(3) 0.59636(5) 0.75497(13)
H18_2 H 0.9066 0.6151 0.7768
C29_3 C 0.9585(3) 0.61687(6) 0.40687(11)
H21_3 H 0.8986 0.6172 0.3624
C30_3 C 0.9448(3) 0.59007(5) 0.45400(13)
H22_3 H 0.8758 0.5725 0.4410
C35_2 C 0.8917(5) 0.50781(9) 0.5576(2)
H25_2 H 0.8179 0.5131 0.5961
C39_2 C 0.9926(4) 0.55057(7) 0.92896(16)
H29_2 H 0.9662 0.5288 0.9192
N17_2 N 0.4910(4) 0.29002(8) 0.80212(19)
C1_4 C 0.4488(6) 0.68578(10) 0.1589(2)
H1_4 H 0.3348 0.6799 0.1569
C8_4 C 0.5616(3) 0.64311(5) 0.07372(13)
C9_4 C 0.4585(3) 0.61687(6) 0.09313(11)
H6_4 H 0.3986 0.6172 0.1376
C10_4 C 0.4448(3) 0.59007(5) 0.04600(13)
H7_4 H 0.3758 0.5725 0.0590
C13_4 C 0.6511(3) 0.64255(5) 0.00719(14)
N2_4 N 0.6834(4) 0.71035(8) 0.18638(19)
C16_4 C 0.6186(5) 0.52245(9) 0.0244(2)
H11_4 H 0.6980 0.5376 0.0411
C17_4 C 0.6106(10) 0.7500 0.3888(4)
H12_4 H 0.6912 0.7500 0.4265
N4_4 N 0.5748(4) 0.67033(8) 0.12179(18)
C18_4 C 0.7175(6) 0.68665(10) 0.1407(2)
H13_4 H 0.8257 0.6816 0.1234
N8_3 N 0.4791(5) 0.43805(7) 0.06701(16)
C22_3 C 0.4802(3) 0.43474(6) 0.14543(9)
C23_3 C 0.5475(3) 0.40680(5) 0.17812(12)
H17_3 H 0.5919 0.3902 0.1486
C24_3 C 0.5483(3) 0.40364(5) 0.25497(13)
H18_3 H 0.5934 0.3849 0.2768
C25_3 C 0.4819(4) 0.42842(7) 0.29913(9)
C26_3 C 0.4146(3) 0.45635(6) 0.26645(11)
H19_3 H 0.3702 0.4729 0.2960
C27_3 C 0.4138(3) 0.45952(5) 0.18960(12)
H20_3 H 0.3687 0.4782 0.1677
C31_3 C 0.4657(3) 0.41048(5) 0.02053(12)
C32_3 C 0.3626(3) 0.38425(6) 0.03994(11)
H23_3 H 0.3027 0.3846 0.0845
H24_3 H 0.2799 0.3399 0.0058
C34_3 C 0.4895(5) 0.46952(8) 0.03417(19)
C35_3 C 0.6083(5) 0.49219(9) 0.0576(2)
H25_3 H 0.6821 0.4869 0.0961
N12 N 0.4884(5) 0.43517(9) 0.50039(12)
N13_3 N 0.4482(4) 0.40159(9) 0.49069(15)
C38_3 C 0.4424(4) 0.39508(7) 0.41328(17)
H28_3 H 0.4188 0.3750 0.3914
N14_3 N 0.4790(4) 0.42465(8) 0.37512(11)
C39_3 C 0.5074(4) 0.44943(7) 0.42896(16)
H29_3 H 0.5338 0.4712 0.4192
N1_4 N 0.5209(5) 0.56195(7) 0.93299(16)
C2_4 C 0.5198(3) 0.56526(6) 0.85457(9)
C3_4 C 0.4525(3) 0.59320(5) 0.82188(12)
H2_4 H 0.4081 0.6098 0.8514
C4_4 C 0.4517(3) 0.59636(5) 0.74503(13)
H3_4 H 0.4066 0.6151 0.7232
C5_4 C 0.5181(4) 0.57158(7) 0.70087(9)
C6_4 C 0.5854(3) 0.54365(6) 0.73355(11)
H4_4 H 0.6298 0.5271 0.7040
C7_4 C 0.5862(3) 0.54048(5) 0.81040(12)
H5_4 H 0.6313 0.5218 0.8323
C11_4 C 0.5343(3) 0.58952(5) 0.97947(12)
C12_4 C 0.6374(3) 0.61575(6) 0.96006(11)
H8_4 H 0.6973 0.6154 0.9155
H9_4 H 0.7201 0.6601 0.9942
C14_4 C 0.5105(5) 0.53048(8) 0.96583(19)
C15_4 C 0.3917(5) 0.50781(9) 0.9424(2)
H10_4 H 0.3179 0.5131 0.9039
N5_2 N 0.5116(5) 0.56483(9) 0.49961(12)
N6_4 N 0.5518(4) 0.59841(9) 0.50931(15)
C19_4 C 0.5576(4) 0.60492(7) 0.58672(17)
H14_4 H 0.5812 0.6250 0.6086
N7_4 N 0.5210(4) 0.57535(8) 0.62488(11)
C20_4 C 0.4926(4) 0.55057(7) 0.57104(16)
H15_4 H 0.4662 0.5288 0.5808
C21_4 C 0.5512(6) 0.31422(10) 0.8411(2)
H16_4 H 0.6652 0.3201 0.8431
C28_4 C 0.4384(3) 0.35689(5) 0.92628(13)
C29_4 C 0.5415(3) 0.38313(6) 0.90687(11)
H21_4 H 0.6014 0.3828 0.8624
C30_4 C 0.5552(3) 0.40993(5) 0.95400(13)
H22_4 H 0.6242 0.4275 0.9410
C33_4 C 0.3489(3) 0.35745(5) 0.99281(14)
C36_4 C 0.3814(5) 0.47755(9) 0.9756(2)
H26_4 H 0.3020 0.4624 0.9589
N11_4 N 0.4252(4) 0.32967(8) 0.87821(18)
C37_4 C 0.2825(6) 0.31335(10) 0.8593(2)
H27_4 H 0.1743 0.3184 0.8766
N8_4 N 0.5209(5) 0.93805(7) 0.93299(16)
C22_4 C 0.5198(3) 0.93474(6) 0.85457(9)
C23_4 C 0.4525(3) 0.90680(5) 0.82188(12)
H17_4 H 0.4081 0.8902 0.8514
C24_4 C 0.4517(3) 0.90364(5) 0.74503(13)
H18_4 H 0.4066 0.8849 0.7232
C25_4 C 0.5181(4) 0.92842(7) 0.70087(9)
C26_4 C 0.5854(3) 0.95635(6) 0.73355(11)
H19_4 H 0.6298 0.9729 0.7040
C27_4 C 0.5862(3) 0.95952(5) 0.81040(12)
H20_4 H 0.6313 0.9782 0.8323
C31_4 C 0.5343(3) 0.91048(5) 0.97947(12)
C32_4 C 0.6374(3) 0.88425(6) 0.96006(11)
H23_4 H 0.6973 0.8846 0.9155
H24_4 H 0.7201 0.8399 0.9942
C34_4 C 0.5105(5) 0.96952(8) 0.96583(19)
C35_4 C 0.3917(5) 0.99219(9) 0.9424(2)
H25_4 H 0.3179 0.9869 0.9039
N12_2 N 0.5116(5) 0.93517(9) 0.49961(12)
N13_4 N 0.5518(4) 0.90159(9) 0.50931(15)
C38_4 C 0.5576(4) 0.89508(7) 0.58672(17)
H28_4 H 0.5812 0.8750 0.6086
N14_4 N 0.5210(4) 0.92465(8) 0.62488(11)
C39_4 C 0.4926(4) 0.94943(7) 0.57104(16)
H29_4 H 0.4662 0.9712 0.5808
N5_3 N 0.0116(5) 0.93517(9) 0.00039(12)
N12_3 N 0.9884(5) 0.06483(9) 0.99961(12)
N12_4 N 0.0116(5) 0.56483(9) 0.00039(12)
N5_4 N 0.9884(5) 0.43517(9) 0.99961(12)
loop_
_geom_bond_atom_site_label_1
_geom_bond_atom_site_label_2
_geom_bond_site_symmetry_1
_geom_bond_site_symmetry_2
N1 C2 1_555 1_555
C2 C3 1_555 1_555
C3 H2 1_555 1_555
C4 C3 1_555 1_555
H3 C4 1_555 1_555
C5 C4 1_555 1_555
C6 C5 1_555 1_555
H4 C6 1_555 1_555
C7 C2 1_555 1_555
H5 C7 1_555 1_555
C11 N1 1_555 1_555
C12 C11 1_555 1_555
H8 C12 1_555 1_555
C14 N1 1_555 1_555
C15 C14 1_555 1_555
H10 C15 1_555 1_555
N5 N6 1_555 1_555
N6 C19 1_555 1_555
C19 H14 1_555 1_555
N7 C5 1_555 1_555
C20 N5 1_555 1_555
H15 C20 1_555 1_555
C6 C7 1_555 1_555
C19 N7 1_555 1_555
N7 C20 1_555 1_555
Cd1 O1 1_555 1_555
O1 C17 1_555 1_555
O2 C17 1_555 1_555
C1 H1 1_555 1_555
C8 C9 1_555 1_555
C9 H6 1_555 1_555
C10 C9 1_555 1_555
H7 C10 1_555 1_555
C13 C8 1_555 1_555
N2 Cd1 1_555 1_555
H11 C16 1_555 1_555
C17 H12 1_555 1_555
N3 C1 1_555 1_555
N4 C1 1_555 1_555
C18 N2 1_555 1_555
H13 C18 1_555 1_555
Cd3 O1 1_555 1_555
O4 Cd1 1_555 1_555
N15 Cd1 1_555 1_555
O2 Cd3 1_555 1_555
C8 N4 1_555 1_555
N2 N3 1_555 1_555
N3 Cd3 1_555 1_555
N4 C18 1_555 1_555
C21 H16 1_555 1_555
C28 C29 1_555 1_555
C29 H21 1_555 1_555
C30 C29 1_555 1_555
H22 C30 1_555 1_555
C33 C28 1_555 1_555
N9 N10 1_555 1_555
H26 C36 1_555 1_555
N10 C21 1_555 1_555
N11 C21 1_555 1_555
C37 N9 1_555 1_555
H27 C37 1_555 1_555
Cd2 N10 1_555 1_555
Cd4 N9 1_555 1_555
C28 N11 1_555 1_555
N11 C37 1_555 1_555
C21_2 H16_2 1_555 1_555
C23 H17 1_555 1_555
C24 C23 1_555 1_555
H18 C24 1_555 1_555
C29_2 H21_2 1_555 1_555
C30_2 C29_2 1_555 1_555
H22_2 C30_2 1_555 1_555
H25 C35 1_555 1_555
H29 C39 1_555 1_555
Cd2 O1_2 1_555 1_555
O1_2 C17_2 1_555 1_555
N1_2 C2_2 1_555 1_555
C6_2 C5_2 1_555 1_555
H4_2 C6_2 1_555 1_555
C7_2 C2_2 1_555 1_555
H5_2 C7_2 1_555 1_555
C11_2 N1_2 1_555 1_555
C12_2 C11_2 1_555 1_555
H8_2 C12_2 1_555 1_555
C13_2 C8_2 1_555 1_555
H9_2 C13_2 1_555 1_555
C14_2 N1_2 1_555 1_555
N2_2 Cd2 1_555 1_555
C16_2 C14_2 1_555 1_555
H11_2 C16_2 1_555 1_555
C17_2 H12_2 1_555 1_555
C18_2 N2_2 1_555 1_555
H13_2 C18_2 1_555 1_555
N6_2 C19_2 1_555 1_555
C19_2 H14_2 1_555 1_555
N7_2 C5_2 1_555 1_555
O3_2 Cd2 1_555 1_555
O4_2 Cd2 1_555 1_555
N15_2 Cd2 1_555 1_555
N16_2 Cd2 1_555 1_555
C6_2 C7_2 1_555 1_555
C8_2 N4_2 1_555 1_555
C12_2 C13_2 1_555 1_555
N2_2 N3_2 1_555 1_555
N4_2 C18_2 1_555 1_555
C19_2 N7_2 1_555 1_555
N8 C22 1_555 1_555
C26 C25 1_555 1_555
H19 C26 1_555 1_555
C27 C22 1_555 1_555
H20 C27 1_555 1_555
C31 N8 1_555 1_555
C32 C31 1_555 1_555
H23 C32 1_555 1_555
C33_2 C28_2 1_555 1_555
H24 C33_2 1_555 1_555
C34 N8 1_555 1_555
N9_2 N17 1_555 1_555
H26_2 C36_2 1_555 1_555
C37_2 N9_2 1_555 1_555
H27_2 C37_2 1_555 1_555
N13 C38 1_555 1_555
C38 H28 1_555 1_555
N14 C25 1_555 1_555
Cd3 N9_2 1_555 1_555
C26 C27 1_555 1_555
C28_2 N11_2 1_555 1_555
C32 C33_2 1_555 1_555
C34 C36_2 1_555 1_555
N11_2 C37_2 1_555 1_555
C38 N14 1_555 1_555
C1_2 H1_2 1_555 1_555
C3_2 H2_2 1_555 1_555
C4_2 C3_2 1_555 1_555
H3_2 C4_2 1_555 1_555
C9_2 H6_2 1_555 1_555
C10_2 C9_2 1_555 1_555
H7_2 C10_2 1_555 1_555
H10_2 C15_2 1_555 1_555
H15_2 C20_2 1_555 1_555
O2_2 Cd4 1_555 1_555
C1_3 H1_3 1_555 1_555
C3_3 H2_3 1_555 1_555
C4_3 C3_3 1_555 1_555
H3_3 C4_3 1_555 1_555
C9_3 H6_3 1_555 1_555
C10_3 C9_3 1_555 1_555
H7_3 C10_3 1_555 1_555
H10_3 C15_3 1_555 1_555
H15_3 C20_3 1_555 1_555
N8_2 C22_2 1_555 1_555
C26_2 C25_2 1_555 1_555
H19_2 C26_2 1_555 1_555
C27_2 C22_2 1_555 1_555
H20_2 C27_2 1_555 1_555
C31_2 N8_2 1_555 1_555
C32_2 C31_2 1_555 1_555
H23_2 C32_2 1_555 1_555
C33_3 C28_3 1_555 1_555
H24_2 C33_3 1_555 1_555
C34_2 N8_2 1_555 1_555
N15_2 N10_2 1_555 1_555
C36_3 C15_3 1_555 1_555
H26_3 C36_3 1_555 1_555
C37_3 N15_2 1_555 1_555
H27_3 C37_3 1_555 1_555
N13_2 C38_2 1_555 1_555
C38_2 H28_2 1_555 1_555
N14_2 C25_2 1_555 1_555
C26_2 C27_2 1_555 1_555
C28_3 N11_3 1_555 1_555
C32_2 C33_3 1_555 1_555
C34_2 C36_3 1_555 1_555
N11_3 C37_3 1_555 1_555
C38_2 N14_2 1_555 1_555
Cd3 O3 1_555 1_555
O3 C17_3 1_555 1_555
N1_3 C2_3 1_555 1_555
C6_3 C5_3 1_555 1_555
H4_3 C6_3 1_555 1_555
C7_3 C2_3 1_555 1_555
H5_3 C7_3 1_555 1_555
C11_3 N1_3 1_555 1_555
C12_3 C11_3 1_555 1_555
H8_3 C12_3 1_555 1_555
C13_3 C8_3 1_555 1_555
H9_3 C13_3 1_555 1_555
C14_3 N1_3 1_555 1_555
N2_3 Cd3 1_555 1_555
C16_3 C14_3 1_555 1_555
H11_3 C16_3 1_555 1_555
C17_3 H12_3 1_555 1_555
C18_3 N2_3 1_555 1_555
H13_3 C18_3 1_555 1_555
N6_3 C19_3 1_555 1_555
C19_3 H14_3 1_555 1_555
N7_3 C5_3 1_555 1_555
C21_3 H16_3 1_555 1_555
C23_2 H17_2 1_555 1_555
C24_2 C23_2 1_555 1_555
H18_2 C24_2 1_555 1_555
C29_3 H21_3 1_555 1_555
C30_3 C29_3 1_555 1_555
H22_3 C30_3 1_555 1_555
C35_2 C16_3 1_555 1_555
H25_2 C35_2 1_555 1_555
H29_2 C39_2 1_555 1_555
N17_2 Cd3 1_555 1_555
C6_3 C7_3 1_555 1_555
C8_3 N4_3 1_555 1_555
C12_3 C13_3 1_555 1_555
N2_3 N16 1_555 1_555
N4_3 C18_3 1_555 1_555
C19_3 N7_3 1_555 1_555
Cd4 O3_2 1_555 1_555
O3_2 C17_4 1_555 1_555
O4_2 C17_4 1_555 1_555
C1_4 H1_4 1_555 1_555
C8_4 C9_4 1_555 1_555
C9_4 H6_4 1_555 1_555
C10_4 C9_4 1_555 1_555
H7_4 C10_4 1_555 1_555
C13_4 C8_4 1_555 1_555
N2_4 Cd4 1_555 1_555
H11_4 C16_4 1_555 1_555
C17_4 H12_4 1_555 1_555
N16_2 C1_4 1_555 1_555
N4_4 C1_4 1_555 1_555
C18_4 N2_4 1_555 1_555
H13_4 C18_4 1_555 1_555
N8_3 C22_3 1_555 1_555
C22_3 C23_3 1_555 1_555
C23_3 H17_3 1_555 1_555
C24_3 C23_3 1_555 1_555
H18_3 C24_3 1_555 1_555
C25_3 C24_3 1_555 1_555
C26_3 C25_3 1_555 1_555
H19_3 C26_3 1_555 1_555
C27_3 C22_3 1_555 1_555
H20_3 C27_3 1_555 1_555
C31_3 N8_3 1_555 1_555
C32_3 C31_3 1_555 1_555
H23_3 C32_3 1_555 1_555
C34_3 N8_3 1_555 1_555
C35_3 C16_4 1_555 1_555
H25_3 C35_3 1_555 1_555
N12 N13_3 1_555 1_555
N13_3 C38_3 1_555 1_555
C38_3 H28_3 1_555 1_555
N14_3 C25_3 1_555 1_555
C39_3 N12 1_555 1_555
H29_3 C39_3 1_555 1_555
C8_4 N4_4 1_555 1_555
N2_4 N16_2 1_555 1_555
N4_4 C18_4 1_555 1_555
C26_3 C27_3 1_555 1_555
C34_3 C35_3 1_555 1_555
C38_3 N14_3 1_555 1_555
N14_3 C39_3 1_555 1_555
N1_4 C2_4 1_555 1_555
C2_4 C3_4 1_555 1_555
C3_4 H2_4 1_555 1_555
C4_4 C3_4 1_555 1_555
H3_4 C4_4 1_555 1_555
C5_4 C4_4 1_555 1_555
C6_4 C5_4 1_555 1_555
H4_4 C6_4 1_555 1_555
C7_4 C2_4 1_555 1_555
H5_4 C7_4 1_555 1_555
C11_4 N1_4 1_555 1_555
C12_4 C11_4 1_555 1_555
H8_4 C12_4 1_555 1_555
C14_4 N1_4 1_555 1_555
C15_4 C14_4 1_555 1_555
H10_4 C15_4 1_555 1_555
N5_2 N6_4 1_555 1_555
N6_4 C19_4 1_555 1_555
C19_4 H14_4 1_555 1_555
N7_4 C5_4 1_555 1_555
C20_4 N5_2 1_555 1_555
H15_4 C20_4 1_555 1_555
C21_4 H16_4 1_555 1_555
C28_4 C29_4 1_555 1_555
C29_4 H21_4 1_555 1_555
C30_4 C29_4 1_555 1_555
H22_4 C30_4 1_555 1_555
C33_4 C28_4 1_555 1_555
N15 N17_2 1_555 1_555
C36_4 C15_4 1_555 1_555
H26_4 C36_4 1_555 1_555
N17_2 C21_4 1_555 1_555
N11_4 C21_4 1_555 1_555
C37_4 N15 1_555 1_555
H27_4 C37_4 1_555 1_555
C6_4 C7_4 1_555 1_555
C19_4 N7_4 1_555 1_555
N7_4 C20_4 1_555 1_555
C28_4 N11_4 1_555 1_555
N11_4 C37_4 1_555 1_555
N8_4 C22_4 1_555 1_555
C22_4 C23_4 1_555 1_555
C23_4 H17_4 1_555 1_555
C24_4 C23_4 1_555 1_555
H18_4 C24_4 1_555 1_555
C25_4 C24_4 1_555 1_555
C26_4 C25_4 1_555 1_555
H19_4 C26_4 1_555 1_555
C27_4 C22_4 1_555 1_555
H20_4 C27_4 1_555 1_555
C31_4 N8_4 1_555 1_555
C32_4 C31_4 1_555 1_555
H23_4 C32_4 1_555 1_555
C34_4 N8_4 1_555 1_555
H25_4 C35_4 1_555 1_555
N12_2 N13_4 1_555 1_555
N13_4 C38_4 1_555 1_555
C38_4 H28_4 1_555 1_555
N14_4 C25_4 1_555 1_555
C39_4 N12_2 1_555 1_555
H29_4 C39_4 1_555 1_555
C26_4 C27_4 1_555 1_555
C34_4 C35_4 1_555 1_555
C38_4 N14_4 1_555 1_555
N14_4 C39_4 1_555 1_555

#END
