
###############################################################################
#
# This file contains modified crystal structure data generated from the
# MOF subset of the Cambridge Structural Database (CSD) v543 
# hosted by the Cambridge Crystallographic Data Centre (CCDC).
#
# This work is licensed under the Creative Commons
# Attribution-NonCommercial-ShareAlike 4.0 International License.
# To view a copy of this license, visit
# http://creativecommons.org/licenses/by-nc-sa/4.0/
# or send a letter to
# Creative Commons, PO Box 1866, Mountain View, CA 94042, USA.
#
# CIF created using the CSD Python API on 29 September 2022
# The structure has been converted into the P1 space group
# The structure has a 3D framework
# The original CSD entry ZINYUT is in the hexagonal crystal system
# The framework has been calculated to contain at least 10.0% void space
# The void calculation uses a probe of radius 1.32A, grid spacing 0.4
# The framework is charged, counterions have been retained in the structure
#
###############################################################################

data_ZINYUT
_chemical_formula_moiety         '(C248 H140 In10 O42 1+)n'
_symmetry_cell_setting           triclinic
_symmetry_space_group_name_H-M   'P 1'
_symmetry_Int_Tables_number      1
_space_group_name_Hall           'P 1'
loop_
_symmetry_equiv_pos_site_id
_symmetry_equiv_pos_as_xyz
1 x,y,z
_cell_length_a                   15.306(2)
_cell_length_b                   15.306(2)
_cell_length_c                   28.885(6)
_cell_angle_alpha                90
_cell_angle_beta                 90
_cell_angle_gamma                120
_cell_volume                     5860.39
loop_
_atom_site_label
_atom_site_type_symbol
_atom_site_fract_x
_atom_site_fract_y
_atom_site_fract_z
In5 In -0.0000 0.86708(7) 0.7500
In9 In 0.86708(7) 0.0000 0.7500
O1 O 1.0000 1.0000 0.2500
C1 C 0.559(2) 1.0000 0.0358(11)
C8 C 0.6325(19) 1.0000 0.0744(10)
C9 C 0.6152(14) 0.9105(14) 0.0897(6)
H6 H 0.5645 0.8503 0.0774
C10 C 0.6800(12) 0.9126(12) 0.1268(5)
H7 H 0.6721 0.8522 0.1381
C11 C 0.7512(10) 1.0000 0.1453(6)
C12 C 0.8185(8) 1.0000 0.1814(4)
C14 C 0.4070(20) 1.0000 0.0081(13)
C15 C 0.4750(20) 1.0000 0.0489(11)
C16 C 0.4400(20) 1.0000 0.0955(12)
H8 H 0.4803 1.0000 0.1197
C17 C 0.3540(30) 1.0000 0.1066(15)
H9 H 0.3358 1.0000 0.1374
C18 C 0.2890(30) 1.0000 0.0688(14)
H10 H 0.2293 1.0000 0.0751
C19 C 0.3200(30) 1.0000 0.0234(13)
H11 H 0.2774 1.0000 0.0003
O6 O 0.8008(7) 0.9165(5) 0.1979(2)
In2 In 0.86708(7) 0.86708(7) 0.2500
O7 O 0.9165(5) 0.8008(7) 0.1979(2)
O8 O 0.7268(9) 0.7268(9) 0.2500
H19 H 0.708(11) 0.654(14) 0.2500
C29 C 1.0000 0.5590(20) 0.0358(11)
C36 C 1.0000 0.6325(19) 0.0744(10)
C39 C 1.0000 0.7512(10) 0.1453(6)
C40 C 1.0000 0.8185(8) 0.1814(4)
C42 C 1.0000 0.407(2) 0.0081(13)
C43 C 1.0000 0.475(2) 0.0489(11)
C44 C 1.0000 0.440(2) 0.0955(12)
H26 H 1.0000 0.4803 0.1197
C45 C 1.0000 0.354(3) 0.1066(15)
H27 H 1.0000 0.3358 0.1374
C46 C 1.0000 0.289(3) 0.0688(14)
H28 H 1.0000 0.2293 0.0751
C47 C 1.0000 0.320(3) 0.0234(13)
H29 H 1.0000 0.2774 0.0003
C55 C 0.9105(14) 0.6152(14) 0.0897(6)
H34 H 0.8503 0.5645 0.0774
C56 C 0.9126(12) 0.6800(12) 0.1268(5)
H35 H 0.8522 0.6721 0.1381
H36 H 0.654(14) 0.708(11) 0.2500
O18 O 0.8008(7) 0.9165(5) 0.3021(2)
O21 O 0.9165(5) 0.8008(7) 0.3021(2)
C2 C 0.593(2) 1.0000 0.9919(13)
C3 C 0.525(2) 1.0000 0.9511(11)
C4 C 0.560(2) 1.0000 0.9045(12)
H2 H 0.5197 1.0000 0.8803
C5 C 0.646(3) 1.0000 0.8934(15)
H3 H 0.6642 1.0000 0.8626
C6 C 0.711(3) 1.0000 0.9312(14)
H4 H 0.7707 1.0000 0.9249
C7 C 0.680(3) 1.0000 0.9766(13)
H5 H 0.7226 1.0000 0.9997
C13 C 0.4410(20) 1.0000 0.9642(11)
C20 C 0.3675(19) 1.0000 0.9256(10)
C21 C 0.2953(20) 0.9105(14) 0.9103(6)
H12 H 0.2858 0.8503 0.9226
C22 C 0.2326(17) 0.9126(12) 0.8732(5)
H13 H 0.1801 0.8522 0.8619
C23 C 0.2488(10) 1.0000 0.8547(6)
C24 C 0.1815(8) 1.0000 0.8186(4)
O5 O 0.1157(5) 0.9165(5) 0.8021(2)
C30 C 1.0000 0.5930(20) 0.9919(13)
C31 C 1.0000 0.5250(20) 0.9511(11)
C32 C 1.0000 0.5600(20) 0.9045(12)
H20 H 1.0000 0.5197 0.8803
C33 C 1.0000 0.6460(30) 0.8934(15)
H21 H 1.0000 0.6642 0.8626
C34 C 1.0000 0.7110(30) 0.9312(14)
H22 H 1.0000 0.7707 0.9249
C35 C 1.0000 0.6800(30) 0.9766(13)
H23 H 1.0000 0.7226 0.9997
O9 O 0.9165(5) 0.1157(5) 0.8021(2)
C41 C 1.0000 0.441(2) 0.9642(11)
C48 C 1.0000 0.3675(19) 0.9256(10)
C51 C 1.0000 0.2488(10) 0.8547(6)
C52 C 1.0000 0.1815(8) 0.8186(4)
C53 C 0.9105(14) 0.2953(20) 0.9103(6)
H32 H 0.8503 0.2858 0.9226
C54 C 0.9126(12) 0.2326(17) 0.8732(5)
H33 H 0.8522 0.1801 0.8619
O1_2 O 0.0000 1.0000 0.7500
O2 O 0.1157(5) 0.9165(5) 0.6979(2)
O3 O 0.0000 0.7268(9) 0.7500
H1 H 0.054(8) 0.708(11) 0.7500
C1_2 C 0.441(2) 1.0000 0.5358(11)
C2_2 C 0.407(2) 1.0000 0.4919(13)
C3_2 C 0.475(2) 1.0000 0.4511(11)
C4_2 C 0.440(2) 1.0000 0.4045(12)
H2_2 H 0.4803 1.0000 0.3803
C5_2 C 0.354(3) 1.0000 0.3934(15)
H3_2 H 0.3358 1.0000 0.3626
C6_2 C 0.289(3) 1.0000 0.4312(14)
H4_2 H 0.2293 1.0000 0.4249
C7_2 C 0.320(3) 1.0000 0.4766(13)
H5_2 H 0.2774 1.0000 0.4997
C8_2 C 0.3675(19) 1.0000 0.5744(10)
C11_2 C 0.2488(10) 1.0000 0.6453(6)
C12_2 C 0.1815(8) 1.0000 0.6814(4)
C13_2 C 0.5590(20) 1.0000 0.4642(11)
C14_2 C 0.5930(20) 1.0000 0.5081(13)
C15_2 C 0.5250(20) 1.0000 0.5489(11)
C16_2 C 0.5600(20) 1.0000 0.5955(12)
H8_2 H 0.5197 1.0000 0.6197
C17_2 C 0.6460(30) 1.0000 0.6066(15)
H9_2 H 0.6642 1.0000 0.6374
C18_2 C 0.7110(30) 1.0000 0.5688(14)
H10_2 H 0.7707 1.0000 0.5751
C19_2 C 0.6800(30) 1.0000 0.5234(13)
H11_2 H 0.7226 1.0000 0.5003
C20_2 C 0.6325(19) 1.0000 0.4256(10)
C23_2 C 0.7512(10) 1.0000 0.3547(6)
C24_2 C 0.8185(8) 1.0000 0.3186(4)
C25 C 0.6152(14) 0.9105(14) 0.4103(6)
H14 H 0.5645 0.8503 0.4226
C26 C 0.6800(12) 0.9126(12) 0.3732(5)
H15 H 0.6721 0.8522 0.3619
C27 C 0.2953(20) 0.9105(14) 0.5897(6)
H16 H 0.2858 0.8503 0.5774
C28 C 0.2326(17) 0.9126(12) 0.6268(5)
H17 H 0.1801 0.8522 0.6381
O1_3 O 1.0000 0.0000 0.7500
C29_2 C 1.0000 0.4410(20) 0.5358(11)
C30_2 C 1.0000 0.4070(20) 0.4919(13)
C31_2 C 1.0000 0.4750(20) 0.4511(11)
C32_2 C 1.0000 0.4400(20) 0.4045(12)
H20_2 H 1.0000 0.4803 0.3803
C33_2 C 1.0000 0.3540(30) 0.3934(15)
H21_2 H 1.0000 0.3358 0.3626
C34_2 C 1.0000 0.2890(30) 0.4312(14)
H22_2 H 1.0000 0.2293 0.4249
C35_2 C 1.0000 0.3200(30) 0.4766(13)
H23_2 H 1.0000 0.2774 0.4997
C36_2 C 1.0000 0.3675(19) 0.5744(10)
C37 C 0.9105(14) 0.2953(20) 0.5897(6)
H24 H 0.8503 0.2858 0.5774
C38 C 0.9126(12) 0.2326(17) 0.6268(5)
H25 H 0.8522 0.1801 0.6381
C39_2 C 1.0000 0.2488(10) 0.6453(6)
C40_2 C 1.0000 0.1815(8) 0.6814(4)
C41_2 C 1.0000 0.559(2) 0.4642(11)
C42_2 C 1.0000 0.593(2) 0.5081(13)
C43_2 C 1.0000 0.525(2) 0.5489(11)
C44_2 C 1.0000 0.560(2) 0.5955(12)
H26_2 H 1.0000 0.5197 0.6197
C45_2 C 1.0000 0.646(3) 0.6066(15)
H27_2 H 1.0000 0.6642 0.6374
C46_2 C 1.0000 0.711(3) 0.5688(14)
H28_2 H 1.0000 0.7707 0.5751
C47_2 C 1.0000 0.680(3) 0.5234(13)
H29_2 H 1.0000 0.7226 0.5003
C48_2 C 1.0000 0.6325(19) 0.4256(10)
C49 C 0.9105(14) 0.6152(14) 0.4103(6)
H30 H 0.8503 0.5645 0.4226
C50 C 0.9126(12) 0.6800(12) 0.3732(5)
H31 H 0.8522 0.6721 0.3619
C51_2 C 1.0000 0.7512(10) 0.3547(6)
C52_2 C 1.0000 0.8185(8) 0.3186(4)
O11 O 0.9165(5) 0.1157(5) 0.6979(2)
O13 O 0.7268(9) 0.0000 0.7500
H54 H 0.708(11) 0.054(8) 0.7500
In1 In -0.0000 0.13292(7) 0.2500
O1_4 O -0.0000 0.0000 0.2500
O3_2 O -0.0000 0.2732(9) 0.2500
H18 H 0.054(8) 0.346(14) 0.2500
In3 In 0.13292(7) 0.0000 0.2500
O12 O 0.1992(7) 0.1157(5) 0.1979(2)
O13_2 O 0.2732(9) 0.0000 0.2500
H37 H 0.346(14) 0.054(8) 0.2500
C57 C 0.4410(20) 0.441(2) 0.0358(11)
C64 C 0.3675(19) 0.3675(19) 0.0744(10)
C65 C 0.2953(20) 0.3848(14) 0.0897(6)
H42 H 0.2858 0.4355 0.0774
C66 C 0.2326(17) 0.3200(12) 0.1268(5)
H43 H 0.1801 0.3279 0.1381
C67 C 0.2488(10) 0.2488(10) 0.1453(6)
C68 C 0.1815(8) 0.1815(8) 0.1814(4)
C70 C 0.593(2) 0.5930(20) 0.0081(13)
C71 C 0.525(2) 0.5250(20) 0.0489(11)
C72 C 0.560(2) 0.5600(20) 0.0955(12)
H44 H 0.5197 0.5197 0.1197
C73 C 0.646(3) 0.6460(30) 0.1066(15)
H45 H 0.6642 0.6642 0.1374
C74 C 0.711(3) 0.7110(30) 0.0688(14)
H46 H 0.7707 0.7707 0.0751
C75 C 0.680(3) 0.6800(30) 0.0234(13)
H47 H 0.7226 0.7226 0.0003
O16 O 0.1157(5) 0.1992(7) 0.1979(2)
C83 C 0.3848(14) 0.2953(20) 0.0897(6)
H52 H 0.4355 0.2858 0.0774
C84 C 0.3200(12) 0.2326(17) 0.1268(5)
H53 H 0.3279 0.1801 0.1381
O19 O 0.1157(5) 0.1992(7) 0.3021(2)
O22 O 0.1992(7) 0.1157(5) 0.3021(2)
C58 C 0.4070(20) 0.407(2) 0.9919(13)
C59 C 0.4750(20) 0.475(2) 0.9511(11)
C60 C 0.4400(20) 0.440(2) 0.9045(12)
H38 H 0.4803 0.4803 0.8803
C61 C 0.3540(30) 0.354(3) 0.8934(15)
H39 H 0.3358 0.3358 0.8626
C62 C 0.2890(30) 0.289(3) 0.9312(14)
H40 H 0.2293 0.2293 0.9249
C63 C 0.3200(30) 0.320(3) 0.9766(13)
H41 H 0.2774 0.2774 0.9997
O14 O 0.8843(5) 0.8008(7) 0.8021(2)
C69 C 0.559(2) 0.5590(20) 0.9642(11)
C76 C 0.6325(19) 0.6325(19) 0.9256(10)
C77 C 0.6152(14) 0.7047(20) 0.9103(6)
H48 H 0.5645 0.7142 0.9226
C78 C 0.6800(12) 0.7674(17) 0.8732(5)
H49 H 0.6721 0.8199 0.8619
C79 C 0.7512(10) 0.7512(10) 0.8547(6)
C80 C 0.8185(8) 0.8185(8) 0.8186(4)
O15 O 0.8008(7) 0.8843(5) 0.8021(2)
C81 C 0.7047(20) 0.6152(14) 0.9103(6)
H50 H 0.7142 0.5645 0.9226
C82 C 0.7674(17) 0.6800(12) 0.8732(5)
H51 H 0.8199 0.6721 0.8619
In5_2 In 1.0000 0.86708(7) 0.7500
In9_2 In 0.86708(7) 1.0000 0.7500
O1_5 O 1.0000 1.0000 0.7500
O3_3 O 1.0000 0.7268(9) 0.7500
H18_2 H 0.946(8) 0.654(14) 0.7500
O12_2 O 0.8008(7) 0.8843(5) 0.6979(2)
O13_3 O 0.7268(9) 1.0000 0.7500
H37_2 H 0.654(14) 0.946(8) 0.7500
C57_2 C 0.5590(20) 0.559(2) 0.5358(11)
C58_2 C 0.5930(20) 0.593(2) 0.4919(13)
C59_2 C 0.5250(20) 0.525(2) 0.4511(11)
C60_2 C 0.5600(20) 0.560(2) 0.4045(12)
H38_2 H 0.5197 0.5197 0.3803
C61_2 C 0.6460(30) 0.646(3) 0.3934(15)
H39_2 H 0.6642 0.6642 0.3626
C62_2 C 0.7110(30) 0.711(3) 0.4312(14)
H40_2 H 0.7707 0.7707 0.4249
C63_2 C 0.6800(30) 0.680(3) 0.4766(13)
H41_2 H 0.7226 0.7226 0.4997
C64_2 C 0.6325(19) 0.6325(19) 0.5744(10)
C65_2 C 0.7047(20) 0.6152(14) 0.5897(6)
H42_2 H 0.7142 0.5645 0.5774
C66_2 C 0.7674(17) 0.6800(12) 0.6268(5)
H43_2 H 0.8199 0.6721 0.6381
C67_2 C 0.7512(10) 0.7512(10) 0.6453(6)
C68_2 C 0.8185(8) 0.8185(8) 0.6814(4)
C69_2 C 0.441(2) 0.4410(20) 0.4642(11)
C70_2 C 0.407(2) 0.4070(20) 0.5081(13)
C71_2 C 0.475(2) 0.4750(20) 0.5489(11)
C72_2 C 0.440(2) 0.4400(20) 0.5955(12)
H44_2 H 0.4803 0.4803 0.6197
C73_2 C 0.354(3) 0.3540(30) 0.6066(15)
H45_2 H 0.3358 0.3358 0.6374
C74_2 C 0.289(3) 0.2890(30) 0.5688(14)
H46_2 H 0.2293 0.2293 0.5751
C75_2 C 0.320(3) 0.3200(30) 0.5234(13)
H47_2 H 0.2774 0.2774 0.5003
C76_2 C 0.3675(19) 0.3675(19) 0.4256(10)
C77_2 C 0.3848(14) 0.2953(20) 0.4103(6)
H48_2 H 0.4355 0.2858 0.4226
C78_2 C 0.3200(12) 0.2326(17) 0.3732(5)
H49_2 H 0.3279 0.1801 0.3619
C79_2 C 0.2488(10) 0.2488(10) 0.3547(6)
C80_2 C 0.1815(8) 0.1815(8) 0.3186(4)
C81_2 C 0.2953(20) 0.3848(14) 0.4103(6)
H50_2 H 0.2858 0.4355 0.4226
C82_2 C 0.2326(17) 0.3200(12) 0.3732(5)
H51_2 H 0.1801 0.3279 0.3619
O16_2 O 0.8843(5) 0.8008(7) 0.6979(2)
C83_2 C 0.6152(14) 0.7047(20) 0.5897(6)
H52_2 H 0.5645 0.7142 0.5774
C84_2 C 0.6800(12) 0.7674(17) 0.6268(5)
H53_2 H 0.6721 0.8199 0.6381
O1_6 O -0.0000 1.0000 0.2500
C29_3 C -0.0000 0.5590(20) 0.0358(11)
C36_3 C -0.0000 0.6325(19) 0.0744(10)
C37_2 C 0.0895(14) 0.7047(20) 0.0897(6)
H24_2 H 0.1497 0.7142 0.0774
C38_2 C 0.0874(12) 0.7674(17) 0.1268(5)
H25_2 H 0.1478 0.8199 0.1381
C39_3 C 0.0000 0.7512(10) 0.1453(6)
C40_3 C -0.0000 0.8185(8) 0.1814(4)
C42_3 C 0.0000 0.407(2) 0.0081(13)
C43_3 C -0.0000 0.475(2) 0.0489(11)
C44_3 C -0.0000 0.440(2) 0.0955(12)
H26_3 H 0.0000 0.4803 0.1197
C45_3 C -0.0000 0.354(3) 0.1066(15)
H27_3 H -0.0000 0.3358 0.1374
C46_3 C -0.0000 0.289(3) 0.0688(14)
H28_3 H 0.0000 0.2293 0.0751
C47_3 C 0.0000 0.320(3) 0.0234(13)
H29_3 H -0.0000 0.2774 0.0003
O11_2 O 0.0835(5) 0.8843(5) 0.1979(2)
In3_2 In 0.13292(7) 1.0000 0.2500
O13_4 O 0.2732(9) 1.0000 0.2500
H54_2 H 0.292(11) 0.946(8) 0.2500
O17 O 0.0835(5) 0.8843(5) 0.3021(2)
C30_3 C -0.0000 0.5930(20) 0.9919(13)
C31_3 C 0.0000 0.5250(20) 0.9511(11)
C32_3 C 0.0000 0.5600(20) 0.9045(12)
H20_3 H 0.0000 0.5197 0.8803
C33_3 C -0.0000 0.6460(30) 0.8934(15)
H21_3 H -0.0000 0.6642 0.8626
C34_3 C -0.0000 0.7110(30) 0.9312(14)
H22_3 H 0.0000 0.7707 0.9249
C35_3 C -0.0000 0.6800(30) 0.9766(13)
H23_3 H 0.0000 0.7226 0.9997
C41_3 C 0.0000 0.441(2) 0.9642(11)
C48_3 C 0.0000 0.3675(19) 0.9256(10)
C49_2 C 0.0895(14) 0.3848(14) 0.9103(6)
H30_2 H 0.1497 0.4355 0.9226
C50_2 C 0.0874(12) 0.3200(12) 0.8732(5)
H31_2 H 0.1478 0.3279 0.8619
C51_3 C -0.0000 0.2488(10) 0.8547(6)
C52_3 C 0.0000 0.1815(8) 0.8186(4)
O10 O 0.0835(5) 0.1992(7) 0.8021(2)
In7 In 0.13292(7) 0.13292(7) 0.7500
In1_2 In 1.0000 0.13292(7) 0.2500
O1_7 O 1.0000 0.0000 0.2500
O2_2 O 0.8843(5) 0.0835(5) 0.1979(2)
O3_4 O 1.0000 0.2732(9) 0.2500
H1_2 H 0.946(8) 0.292(11) 0.2500
C1_3 C 0.559(2) 0.0000 0.0358(11)
C8_3 C 0.6325(19) 0.0000 0.0744(10)
C11_3 C 0.7512(10) 0.0000 0.1453(6)
C12_3 C 0.8185(8) 0.0000 0.1814(4)
C14_3 C 0.4070(20) 0.0000 0.0081(13)
C15_3 C 0.4750(20) 0.0000 0.0489(11)
C16_3 C 0.4400(20) 0.0000 0.0955(12)
H8_3 H 0.4803 0.0000 0.1197
C17_3 C 0.3540(30) 0.0000 0.1066(15)
H9_3 H 0.3358 0.0000 0.1374
C18_3 C 0.2890(30) 0.0000 0.0688(14)
H10_3 H 0.2293 0.0000 0.0751
C19_3 C 0.3200(30) 0.0000 0.0234(13)
H11_3 H 0.2774 0.0000 0.0003
C27_2 C 0.7047(20) 0.0895(14) 0.0897(6)
H16_2 H 0.7142 0.1497 0.0774
C28_2 C 0.7674(17) 0.0874(12) 0.1268(5)
H17_2 H 0.8199 0.1478 0.1381
O20 O 0.8843(5) 0.0835(5) 0.3021(2)
C2_3 C 0.593(2) 0.0000 0.9919(13)
C3_3 C 0.525(2) 0.0000 0.9511(11)
C4_3 C 0.560(2) 0.0000 0.9045(12)
H2_3 H 0.5197 0.0000 0.8803
C5_3 C 0.646(3) 0.0000 0.8934(15)
H3_3 H 0.6642 0.0000 0.8626
C6_3 C 0.711(3) 0.0000 0.9312(14)
H4_3 H 0.7707 0.0000 0.9249
C7_3 C 0.680(3) 0.0000 0.9766(13)
H5_3 H 0.7226 0.0000 0.9997
O4 O 0.1992(7) 0.0835(5) 0.8021(2)
C13_3 C 0.4410(20) 0.0000 0.9642(11)
C20_3 C 0.3675(19) 0.0000 0.9256(10)
C23_3 C 0.2488(10) 0.0000 0.8547(6)
C24_3 C 0.1815(8) 0.0000 0.8186(4)
C25_2 C 0.3848(14) 0.0895(14) 0.9103(6)
H14_2 H 0.4355 0.1497 0.9226
C26_2 C 0.3200(12) 0.0874(12) 0.8732(5)
H15_2 H 0.3279 0.1478 0.8619
O1_8 O 0.0000 0.0000 0.7500
C1_4 C 0.441(2) 0.0000 0.5358(11)
C2_4 C 0.407(2) 0.0000 0.4919(13)
C3_4 C 0.475(2) 0.0000 0.4511(11)
C4_4 C 0.440(2) 0.0000 0.4045(12)
H2_4 H 0.4803 0.0000 0.3803
C5_4 C 0.354(3) 0.0000 0.3934(15)
H3_4 H 0.3358 0.0000 0.3626
C6_4 C 0.289(3) 0.0000 0.4312(14)
H4_4 H 0.2293 0.0000 0.4249
C7_4 C 0.320(3) 0.0000 0.4766(13)
H5_4 H 0.2774 0.0000 0.4997
C8_4 C 0.3675(19) 0.0000 0.5744(10)
C9_2 C 0.3848(14) 0.0895(14) 0.5897(6)
H6_2 H 0.4355 0.1497 0.5774
C10_2 C 0.3200(12) 0.0874(12) 0.6268(5)
H7_2 H 0.3279 0.1478 0.6381
C11_4 C 0.2488(10) 0.0000 0.6453(6)
C12_4 C 0.1815(8) 0.0000 0.6814(4)
C13_4 C 0.5590(20) 0.0000 0.4642(11)
C14_4 C 0.5930(20) 0.0000 0.5081(13)
C15_4 C 0.5250(20) 0.0000 0.5489(11)
C16_4 C 0.5600(20) 0.0000 0.5955(12)
H8_4 H 0.5197 0.0000 0.6197
C17_4 C 0.6460(30) 0.0000 0.6066(15)
H9_4 H 0.6642 0.0000 0.6374
C18_4 C 0.7110(30) 0.0000 0.5688(14)
H10_4 H 0.7707 0.0000 0.5751
C19_4 C 0.6800(30) 0.0000 0.5234(13)
H11_4 H 0.7226 0.0000 0.5003
C20_4 C 0.6325(19) 0.0000 0.4256(10)
C21_2 C 0.7047(20) 0.0895(14) 0.4103(6)
H12_2 H 0.7142 0.1497 0.4226
C22_2 C 0.7674(17) 0.0874(12) 0.3732(5)
H13_2 H 0.8199 0.1478 0.3619
C23_4 C 0.7512(10) 0.0000 0.3547(6)
C24_4 C 0.8185(8) 0.0000 0.3186(4)
O6_2 O 0.1992(7) 0.0835(5) 0.6979(2)
O7_2 O 0.0835(5) 0.1992(7) 0.6979(2)
O8_2 O 0.2732(9) 0.2732(9) 0.7500
H19_2 H 0.292(11) 0.346(14) 0.7500
C29_4 C 0.0000 0.4410(20) 0.5358(11)
C30_4 C 0.0000 0.4070(20) 0.4919(13)
C31_4 C -0.0000 0.4750(20) 0.4511(11)
C32_4 C 0.0000 0.4400(20) 0.4045(12)
H20_4 H 0.0000 0.4803 0.3803
C33_4 C 0.0000 0.3540(30) 0.3934(15)
H21_4 H -0.0000 0.3358 0.3626
C34_4 C 0.0000 0.2890(30) 0.4312(14)
H22_4 H -0.0000 0.2293 0.4249
C35_4 C 0.0000 0.3200(30) 0.4766(13)
H23_4 H -0.0000 0.2774 0.4997
C36_4 C 0.0000 0.3675(19) 0.5744(10)
C39_4 C 0.0000 0.2488(10) 0.6453(6)
C40_4 C 0.0000 0.1815(8) 0.6814(4)
C41_4 C 0.0000 0.559(2) 0.4642(11)
C42_4 C 0.0000 0.593(2) 0.5081(13)
C43_4 C 0.0000 0.525(2) 0.5489(11)
C44_4 C 0.0000 0.560(2) 0.5955(12)
H26_4 H -0.0000 0.5197 0.6197
C45_4 C 0.0000 0.646(3) 0.6066(15)
H27_4 H -0.0000 0.6642 0.6374
C46_4 C 0.0000 0.711(3) 0.5688(14)
H28_4 H 0.0000 0.7707 0.5751
C47_4 C -0.0000 0.680(3) 0.5234(13)
H29_4 H 0.0000 0.7226 0.5003
C48_4 C 0.0000 0.6325(19) 0.4256(10)
C51_4 C 0.0000 0.7512(10) 0.3547(6)
C52_4 C 0.0000 0.8185(8) 0.3186(4)
C53_2 C 0.0895(14) 0.7047(20) 0.4103(6)
H32_2 H 0.1497 0.7142 0.4226
C54_2 C 0.0874(12) 0.7674(17) 0.3732(5)
H33_2 H 0.1478 0.8199 0.3619
C55_2 C 0.0895(14) 0.3848(14) 0.5897(6)
H34_2 H 0.1497 0.4355 0.5774
C56_2 C 0.0874(12) 0.3200(12) 0.6268(5)
H35_2 H 0.1478 0.3279 0.6381
H36_2 H 0.346(14) 0.292(11) 0.7500
loop_
_geom_bond_atom_site_label_1
_geom_bond_atom_site_label_2
_geom_bond_site_symmetry_1
_geom_bond_site_symmetry_2
O1 In2 1_555 1_555
C8 C1 1_555 1_555
C9 C8 1_555 1_555
H6 C9 1_555 1_555
C10 C9 1_555 1_555
H7 C10 1_555 1_555
C11 C10 1_555 1_555
C15 C1 1_555 1_555
C16 C15 1_555 1_555
H8 C16 1_555 1_555
C17 C16 1_555 1_555
H9 C17 1_555 1_555
C18 C17 1_555 1_555
H10 C18 1_555 1_555
C19 C14 1_555 1_555
H11 C19 1_555 1_555
O6 C12 1_555 1_555
In2 O6 1_555 1_555
O7 In2 1_555 1_555
O8 In2 1_555 1_555
H19 O8 1_555 1_555
C36 C29 1_555 1_555
C40 O7 1_555 1_555
C43 C29 1_555 1_555
C44 C43 1_555 1_555
H26 C44 1_555 1_555
C45 C44 1_555 1_555
H27 C45 1_555 1_555
C46 C45 1_555 1_555
H28 C46 1_555 1_555
C47 C42 1_555 1_555
H29 C47 1_555 1_555
C55 C36 1_555 1_555
H34 C55 1_555 1_555
C56 C39 1_555 1_555
H35 C56 1_555 1_555
H36 O8 1_555 1_555
O18 In2 1_555 1_555
O21 In2 1_555 1_555
C11 C12 1_555 1_555
C14 C15 1_555 1_555
C18 C19 1_555 1_555
C39 C40 1_555 1_555
C42 C43 1_555 1_555
C46 C47 1_555 1_555
C55 C56 1_555 1_555
C2 C3 1_555 1_555
C3 C4 1_555 1_555
C4 H2 1_555 1_555
C5 C4 1_555 1_555
H3 C5 1_555 1_555
C6 C5 1_555 1_555
H4 C6 1_555 1_555
C7 C2 1_555 1_555
H5 C7 1_555 1_555
C13 C3 1_555 1_555
C20 C13 1_555 1_555
C21 C20 1_555 1_555
H12 C21 1_555 1_555
C22 C21 1_555 1_555
H13 C22 1_555 1_555
C23 C22 1_555 1_555
C24 C23 1_555 1_555
O5 C24 1_555 1_555
C30 C31 1_555 1_555
C31 C32 1_555 1_555
C32 H20 1_555 1_555
C33 C32 1_555 1_555
H21 C33 1_555 1_555
C34 C33 1_555 1_555
H22 C34 1_555 1_555
C35 C30 1_555 1_555
H23 C35 1_555 1_555
O9 C52 1_555 1_555
C41 C31 1_555 1_555
C48 C41 1_555 1_555
C52 C51 1_555 1_555
C53 C48 1_555 1_555
H32 C53 1_555 1_555
C54 C51 1_555 1_555
H33 C54 1_555 1_555
In5 O5 1_555 1_555
In9 O9 1_555 1_555
C6 C7 1_555 1_555
C34 C35 1_555 1_555
C53 C54 1_555 1_555
In5 O1_2 1_555 1_555
O2 In5 1_555 1_555
O3 In5 1_555 1_555
H1 O3 1_555 1_555
C1_2 C2_2 1_555 1_555
C2_2 C3_2 1_555 1_555
C3_2 C4_2 1_555 1_555
C4_2 H2_2 1_555 1_555
C5_2 C4_2 1_555 1_555
H3_2 C5_2 1_555 1_555
C6_2 C5_2 1_555 1_555
H4_2 C6_2 1_555 1_555
C7_2 C2_2 1_555 1_555
H5_2 C7_2 1_555 1_555
C8_2 C1_2 1_555 1_555
C12_2 O2 1_555 1_555
O18 C24_2 1_555 1_555
C13_2 C3_2 1_555 1_555
C14_2 C13_2 1_555 1_555
C15_2 C1_2 1_555 1_555
C16_2 C15_2 1_555 1_555
H8_2 C16_2 1_555 1_555
C17_2 C16_2 1_555 1_555
H9_2 C17_2 1_555 1_555
C18_2 C17_2 1_555 1_555
H10_2 C18_2 1_555 1_555
C19_2 C14_2 1_555 1_555
H11_2 C19_2 1_555 1_555
C20_2 C13_2 1_555 1_555
C24_2 C23_2 1_555 1_555
C25 C20_2 1_555 1_555
H14 C25 1_555 1_555
C26 C23_2 1_555 1_555
H15 C26 1_555 1_555
C27 C8_2 1_555 1_555
H16 C27 1_555 1_555
C28 C11_2 1_555 1_555
H17 C28 1_555 1_555
C6_2 C7_2 1_555 1_555
C11_2 C12_2 1_555 1_555
C14_2 C15_2 1_555 1_555
C18_2 C19_2 1_555 1_555
C25 C26 1_555 1_555
C27 C28 1_555 1_555
C29_2 C30_2 1_555 1_555
C30_2 C31_2 1_555 1_555
C31_2 C32_2 1_555 1_555
C32_2 H20_2 1_555 1_555
C33_2 C32_2 1_555 1_555
H21_2 C33_2 1_555 1_555
C34_2 C33_2 1_555 1_555
H22_2 C34_2 1_555 1_555
C35_2 C30_2 1_555 1_555
H23_2 C35_2 1_555 1_555
C36_2 C29_2 1_555 1_555
C37 C36_2 1_555 1_555
H24 C37 1_555 1_555
C38 C37 1_555 1_555
H25 C38 1_555 1_555
C39_2 C38 1_555 1_555
C41_2 C31_2 1_555 1_555
C42_2 C41_2 1_555 1_555
C43_2 C29_2 1_555 1_555
C44_2 C43_2 1_555 1_555
H26_2 C44_2 1_555 1_555
C45_2 C44_2 1_555 1_555
H27_2 C45_2 1_555 1_555
C46_2 C45_2 1_555 1_555
H28_2 C46_2 1_555 1_555
C47_2 C42_2 1_555 1_555
H29_2 C47_2 1_555 1_555
C48_2 C41_2 1_555 1_555
C49 C48_2 1_555 1_555
H30 C49 1_555 1_555
C50 C49 1_555 1_555
H31 C50 1_555 1_555
C51_2 C50 1_555 1_555
C52_2 C51_2 1_555 1_555
O21 C52_2 1_555 1_555
O11 C40_2 1_555 1_555
In9 O1_3 1_555 1_555
O13 In9 1_555 1_555
H54 O13 1_555 1_555
C34_2 C35_2 1_555 1_555
C39_2 C40_2 1_555 1_555
C42_2 C43_2 1_555 1_555
C46_2 C47_2 1_555 1_555
O11 In9 1_555 1_555
In1 O1_4 1_555 1_555
O3_2 In1 1_555 1_555
H18 O3_2 1_555 1_555
In3 O1_4 1_555 1_555
O12 In3 1_555 1_555
O13_2 In3 1_555 1_555
H37 O13_2 1_555 1_555
C64 C57 1_555 1_555
C65 C64 1_555 1_555
H42 C65 1_555 1_555
C66 C65 1_555 1_555
H43 C66 1_555 1_555
C67 C66 1_555 1_555
C68 O12 1_555 1_555
C71 C57 1_555 1_555
C72 C71 1_555 1_555
H44 C72 1_555 1_555
C73 C72 1_555 1_555
H45 C73 1_555 1_555
C74 C73 1_555 1_555
H46 C74 1_555 1_555
C75 C70 1_555 1_555
H47 C75 1_555 1_555
O16 In1 1_555 1_555
C83 C64 1_555 1_555
H52 C83 1_555 1_555
C84 C67 1_555 1_555
H53 C84 1_555 1_555
O19 In1 1_555 1_555
O22 In3 1_555 1_555
C67 C68 1_555 1_555
C68 O16 1_555 1_555
C70 C71 1_555 1_555
C74 C75 1_555 1_555
C83 C84 1_555 1_555
C58 C59 1_555 1_555
C59 C60 1_555 1_555
C60 H38 1_555 1_555
C61 C60 1_555 1_555
H39 C61 1_555 1_555
C62 C61 1_555 1_555
H40 C62 1_555 1_555
C63 C58 1_555 1_555
H41 C63 1_555 1_555
O14 C80 1_555 1_555
C69 C59 1_555 1_555
C76 C69 1_555 1_555
C77 C76 1_555 1_555
H48 C77 1_555 1_555
C78 C77 1_555 1_555
H49 C78 1_555 1_555
C79 C78 1_555 1_555
C80 C79 1_555 1_555
O15 C80 1_555 1_555
C81 C76 1_555 1_555
H50 C81 1_555 1_555
C82 C79 1_555 1_555
H51 C82 1_555 1_555
In5_2 O14 1_555 1_555
In9_2 O15 1_555 1_555
C62 C63 1_555 1_555
C81 C82 1_555 1_555
In5_2 O1_5 1_555 1_555
O3_3 In5_2 1_555 1_555
H18_2 O3_3 1_555 1_555
In9_2 O1_5 1_555 1_555
O12_2 In9_2 1_555 1_555
O13_3 In9_2 1_555 1_555
H37_2 O13_3 1_555 1_555
C57_2 C58_2 1_555 1_555
C58_2 C59_2 1_555 1_555
C59_2 C60_2 1_555 1_555
C60_2 H38_2 1_555 1_555
C61_2 C60_2 1_555 1_555
H39_2 C61_2 1_555 1_555
C62_2 C61_2 1_555 1_555
H40_2 C62_2 1_555 1_555
C63_2 C58_2 1_555 1_555
H41_2 C63_2 1_555 1_555
C64_2 C57_2 1_555 1_555
C65_2 C64_2 1_555 1_555
H42_2 C65_2 1_555 1_555
C66_2 C65_2 1_555 1_555
H43_2 C66_2 1_555 1_555
C67_2 C66_2 1_555 1_555
C68_2 O12_2 1_555 1_555
O19 C80_2 1_555 1_555
C69_2 C59_2 1_555 1_555
C70_2 C69_2 1_555 1_555
C71_2 C57_2 1_555 1_555
C72_2 C71_2 1_555 1_555
H44_2 C72_2 1_555 1_555
C73_2 C72_2 1_555 1_555
H45_2 C73_2 1_555 1_555
C74_2 C73_2 1_555 1_555
H46_2 C74_2 1_555 1_555
C75_2 C70_2 1_555 1_555
H47_2 C75_2 1_555 1_555
C76_2 C69_2 1_555 1_555
C77_2 C76_2 1_555 1_555
H48_2 C77_2 1_555 1_555
C78_2 C77_2 1_555 1_555
H49_2 C78_2 1_555 1_555
C79_2 C78_2 1_555 1_555
C80_2 C79_2 1_555 1_555
O22 C80_2 1_555 1_555
C81_2 C76_2 1_555 1_555
H50_2 C81_2 1_555 1_555
C82_2 C79_2 1_555 1_555
H51_2 C82_2 1_555 1_555
O16_2 In5_2 1_555 1_555
C83_2 C64_2 1_555 1_555
H52_2 C83_2 1_555 1_555
C84_2 C67_2 1_555 1_555
H53_2 C84_2 1_555 1_555
C62_2 C63_2 1_555 1_555
C67_2 C68_2 1_555 1_555
C68_2 O16_2 1_555 1_555
C70_2 C71_2 1_555 1_555
C74_2 C75_2 1_555 1_555
C81_2 C82_2 1_555 1_555
C83_2 C84_2 1_555 1_555
C36_3 C29_3 1_555 1_555
C37_2 C36_3 1_555 1_555
H24_2 C37_2 1_555 1_555
C38_2 C37_2 1_555 1_555
H25_2 C38_2 1_555 1_555
C39_3 C38_2 1_555 1_555
C43_3 C29_3 1_555 1_555
C44_3 C43_3 1_555 1_555
H26_3 C44_3 1_555 1_555
C45_3 C44_3 1_555 1_555
H27_3 C45_3 1_555 1_555
C46_3 C45_3 1_555 1_555
H28_3 C46_3 1_555 1_555
C47_3 C42_3 1_555 1_555
H29_3 C47_3 1_555 1_555
O11_2 C40_3 1_555 1_555
In3_2 O1_6 1_555 1_555
O13_4 In3_2 1_555 1_555
H54_2 O13_4 1_555 1_555
O17 In3_2 1_555 1_555
C39_3 C40_3 1_555 1_555
C42_3 C43_3 1_555 1_555
C46_3 C47_3 1_555 1_555
O11_2 In3_2 1_555 1_555
C30_3 C31_3 1_555 1_555
C31_3 C32_3 1_555 1_555
C32_3 H20_3 1_555 1_555
C33_3 C32_3 1_555 1_555
H21_3 C33_3 1_555 1_555
C34_3 C33_3 1_555 1_555
H22_3 C34_3 1_555 1_555
C35_3 C30_3 1_555 1_555
H23_3 C35_3 1_555 1_555
C41_3 C31_3 1_555 1_555
C48_3 C41_3 1_555 1_555
C49_2 C48_3 1_555 1_555
H30_2 C49_2 1_555 1_555
C50_2 C49_2 1_555 1_555
H31_2 C50_2 1_555 1_555
C51_3 C50_2 1_555 1_555
C52_3 C51_3 1_555 1_555
O10 C52_3 1_555 1_555
In7 O10 1_555 1_555
C34_3 C35_3 1_555 1_555
In1_2 O1_7 1_555 1_555
O2_2 In1_2 1_555 1_555
O3_4 In1_2 1_555 1_555
H1_2 O3_4 1_555 1_555
C8_3 C1_3 1_555 1_555
C12_3 O2_2 1_555 1_555
C15_3 C1_3 1_555 1_555
C16_3 C15_3 1_555 1_555
H8_3 C16_3 1_555 1_555
C17_3 C16_3 1_555 1_555
H9_3 C17_3 1_555 1_555
C18_3 C17_3 1_555 1_555
H10_3 C18_3 1_555 1_555
C19_3 C14_3 1_555 1_555
H11_3 C19_3 1_555 1_555
C27_2 C8_3 1_555 1_555
H16_2 C27_2 1_555 1_555
C28_2 C11_3 1_555 1_555
H17_2 C28_2 1_555 1_555
O20 In1_2 1_555 1_555
C11_3 C12_3 1_555 1_555
C14_3 C15_3 1_555 1_555
C18_3 C19_3 1_555 1_555
C27_2 C28_2 1_555 1_555
C2_3 C3_3 1_555 1_555
C3_3 C4_3 1_555 1_555
C4_3 H2_3 1_555 1_555
C5_3 C4_3 1_555 1_555
H3_3 C5_3 1_555 1_555
C6_3 C5_3 1_555 1_555
H4_3 C6_3 1_555 1_555
C7_3 C2_3 1_555 1_555
H5_3 C7_3 1_555 1_555
O4 C24_3 1_555 1_555
C13_3 C3_3 1_555 1_555
C20_3 C13_3 1_555 1_555
C24_3 C23_3 1_555 1_555
C25_2 C20_3 1_555 1_555
H14_2 C25_2 1_555 1_555
C26_2 C23_3 1_555 1_555
H15_2 C26_2 1_555 1_555
In7 O4 1_555 1_555
C6_3 C7_3 1_555 1_555
C25_2 C26_2 1_555 1_555
O1_8 In7 1_555 1_555
C1_4 C2_4 1_555 1_555
C2_4 C3_4 1_555 1_555
C3_4 C4_4 1_555 1_555
C4_4 H2_4 1_555 1_555
C5_4 C4_4 1_555 1_555
H3_4 C5_4 1_555 1_555
C6_4 C5_4 1_555 1_555
H4_4 C6_4 1_555 1_555
C7_4 C2_4 1_555 1_555
H5_4 C7_4 1_555 1_555
C8_4 C1_4 1_555 1_555
C9_2 C8_4 1_555 1_555
H6_2 C9_2 1_555 1_555
C10_2 C9_2 1_555 1_555
H7_2 C10_2 1_555 1_555
C11_4 C10_2 1_555 1_555
C13_4 C3_4 1_555 1_555
C14_4 C13_4 1_555 1_555
C15_4 C1_4 1_555 1_555
C16_4 C15_4 1_555 1_555
H8_4 C16_4 1_555 1_555
C17_4 C16_4 1_555 1_555
H9_4 C17_4 1_555 1_555
C18_4 C17_4 1_555 1_555
H10_4 C18_4 1_555 1_555
C19_4 C14_4 1_555 1_555
H11_4 C19_4 1_555 1_555
C20_4 C13_4 1_555 1_555
C21_2 C20_4 1_555 1_555
H12_2 C21_2 1_555 1_555
C22_2 C21_2 1_555 1_555
H13_2 C22_2 1_555 1_555
C23_4 C22_2 1_555 1_555
C24_4 C23_4 1_555 1_555
O20 C24_4 1_555 1_555
O6_2 C12_4 1_555 1_555
In7 O6_2 1_555 1_555
O7_2 In7 1_555 1_555
O8_2 In7 1_555 1_555
H19_2 O8_2 1_555 1_555
C29_4 C30_4 1_555 1_555
C30_4 C31_4 1_555 1_555
C31_4 C32_4 1_555 1_555
C32_4 H20_4 1_555 1_555
C33_4 C32_4 1_555 1_555
H21_4 C33_4 1_555 1_555
C34_4 C33_4 1_555 1_555
H22_4 C34_4 1_555 1_555
C35_4 C30_4 1_555 1_555
H23_4 C35_4 1_555 1_555
C36_4 C29_4 1_555 1_555
C40_4 O7_2 1_555 1_555
O17 C52_4 1_555 1_555
C41_4 C31_4 1_555 1_555
C42_4 C41_4 1_555 1_555
C43_4 C29_4 1_555 1_555
C44_4 C43_4 1_555 1_555
H26_4 C44_4 1_555 1_555
C45_4 C44_4 1_555 1_555
H27_4 C45_4 1_555 1_555
C46_4 C45_4 1_555 1_555
H28_4 C46_4 1_555 1_555
C47_4 C42_4 1_555 1_555
H29_4 C47_4 1_555 1_555
C48_4 C41_4 1_555 1_555
C52_4 C51_4 1_555 1_555
C53_2 C48_4 1_555 1_555
H32_2 C53_2 1_555 1_555
C54_2 C51_4 1_555 1_555
H33_2 C54_2 1_555 1_555
C55_2 C36_4 1_555 1_555
H34_2 C55_2 1_555 1_555
C56_2 C39_4 1_555 1_555
H35_2 C56_2 1_555 1_555
H36_2 O8_2 1_555 1_555
C6_4 C7_4 1_555 1_555
C11_4 C12_4 1_555 1_555
C14_4 C15_4 1_555 1_555
C18_4 C19_4 1_555 1_555
C34_4 C35_4 1_555 1_555
C39_4 C40_4 1_555 1_555
C42_4 C43_4 1_555 1_555
C46_4 C47_4 1_555 1_555
C53_2 C54_2 1_555 1_555
C55_2 C56_2 1_555 1_555

#END
