
###############################################################################
#
# This file contains modified crystal structure data generated from the
# MOF subset of the Cambridge Structural Database (CSD) v543 
# hosted by the Cambridge Crystallographic Data Centre (CCDC).
#
# This work is licensed under the Creative Commons
# Attribution-NonCommercial-ShareAlike 4.0 International License.
# To view a copy of this license, visit
# http://creativecommons.org/licenses/by-nc-sa/4.0/
# or send a letter to
# Creative Commons, PO Box 1866, Mountain View, CA 94042, USA.
#
# CIF created using the CSD Python API on 29 September 2022
# The structure has been converted into the P1 space group
# The structure has a 3D framework
# The original CSD entry ZIPRIC is in the monoclinic crystal system
# The framework has been calculated to contain at least 10.0% void space
# The void calculation uses a probe of radius 1.32A, grid spacing 0.4
#
###############################################################################

data_ZIPRIC
_chemical_formula_moiety         '(C44 H44 Cu4 N24 O20)n'
_symmetry_cell_setting           triclinic
_symmetry_space_group_name_H-M   'P 1'
_symmetry_Int_Tables_number      1
_space_group_name_Hall           'P 1'
loop_
_symmetry_equiv_pos_site_id
_symmetry_equiv_pos_as_xyz
1 x,y,z
_cell_length_a                   7.7978(3)
_cell_length_b                   16.5972(6)
_cell_length_c                   13.1867(6)
_cell_angle_alpha                90
_cell_angle_beta                 98.287(3)
_cell_angle_gamma                90
_cell_volume                     1688.82
loop_
_atom_site_label
_atom_site_type_symbol
_atom_site_fract_x
_atom_site_fract_y
_atom_site_fract_z
O6 O 0.0893(3) 0.19119(13) 0.13723(18)
C17 C 0.1176(4) 0.35390(19) 0.0140(3)
H13 H 0.095247 0.308514 0.051339
C18 C 0.2878(4) 0.4354(2) 0.1569(3)
H14 H 0.230666 0.482018 0.181056
H15 H 0.269013 0.390177 0.200623
C19 C 0.4806(4) 0.45194(19) 0.1660(3)
H16 H 0.515987 0.483228 0.227594
H17 H 0.502431 0.484298 0.107934
C20 C 0.7128(5) 0.2789(2) 0.1192(3)
C21 C 0.6723(4) 0.3432(2) 0.2515(3)
H18 H 0.674118 0.360134 0.318862
N9 N 0.2094(4) 0.41726(16) 0.0518(2)
N10 N 0.5868(4) 0.37914(17) 0.1698(2)
N11 N 0.6098(5) 0.33834(19) 0.0831(2)
N12 N 0.7553(4) 0.27922(16) 0.2223(2)
H22 H 0.752(4) 0.239(2) 0.073(3)
Cu4 Cu 0.89902(5) 0.20359(2) 0.32029(3)
O1 O 0.3406(3) 0.64197(15) 0.13337(19)
H8 H 0.335689 0.644504 0.068636
H9 H 0.342973 0.592895 0.151971
O4 O 0.0863(3) 0.79038(12) 0.07607(17)
Cu1 Cu 0.10098(5) 0.70359(2) 0.17971(3)
N14 N 0.2447(4) 0.77922(16) 0.2777(2)
O12 O 0.1029(3) 0.62186(13) 0.28783(16)
C1 C 0.0075(4) 0.93472(17) 0.9336(2)
C2 C 0.0050(4) 0.86742(18) 0.8569(2)
O3 O 0.1029(3) 0.87814(13) 0.78783(16)
Cu6 Cu 0.10098(5) 0.79641(2) 0.67971(3)
C12 C 0.9925(4) 0.06528(17) 0.0664(2)
C13 C 0.9950(4) 0.13258(18) 0.1431(2)
O7 O 0.8971(3) 0.12186(13) 0.21217(16)
O8 O 0.9137(3) 0.20962(12) 0.92393(17)
O10 O 0.6594(3) 0.35803(15) 0.86663(19)
H20 H 0.664311 0.355496 0.931364
H21 H 0.657027 0.407105 0.848029
Cu2 Cu 0.89902(5) 0.29641(2) 0.82029(3)
N13 N 0.7553(4) 0.22078(16) 0.7223(2)
O11 O 0.8971(3) 0.37814(13) 0.71217(16)
C3 C 0.8824(4) 0.64610(19) 0.9860(3)
H1 H 0.904753 0.691486 0.948661
C4 C 0.7122(4) 0.5646(2) 0.8431(3)
H2 H 0.769334 0.517982 0.818944
H3 H 0.730987 0.609823 0.799377
C5 C 0.5194(4) 0.54806(19) 0.8340(3)
H4 H 0.484013 0.516772 0.772406
H5 H 0.497569 0.515702 0.892066
C6 C 0.2872(5) 0.7211(2) 0.8808(3)
C7 C 0.3277(4) 0.6568(2) 0.7485(3)
H6 H 0.325882 0.639866 0.681138
N3 N 0.7906(4) 0.58274(16) 0.9482(2)
N4 N 0.4132(4) 0.62086(17) 0.8302(2)
N5 N 0.3902(5) 0.66166(19) 0.9169(2)
N6 N 0.2447(4) 0.72078(16) 0.7777(2)
O2 O 0.9107(3) 0.80881(13) 0.86277(18)
H11 H 0.248(4) 0.761(2) 0.927(3)
N1 N 0.2165(4) 0.02704(18) 0.4765(2)
C3_2 C 0.1176(4) 0.14610(19) 0.5140(3)
H1_2 H 0.095247 0.191486 0.551339
C4_2 C 0.2878(4) 0.0646(2) 0.6569(3)
H2_2 H 0.230666 0.017982 0.681056
H3_2 H 0.269013 0.109823 0.700623
C5_2 C 0.4806(4) 0.04806(19) 0.6660(3)
H4_2 H 0.515987 0.016772 0.727594
H5_2 H 0.502431 0.015702 0.607934
C6_2 C 0.7128(5) 0.2211(2) 0.6192(3)
C7_2 C 0.6723(4) 0.1568(2) 0.7515(3)
H6_2 H 0.674118 0.139866 0.818862
N2 N 0.0622(4) 0.13498(16) 0.4145(2)
C8 C 0.1269(5) 0.0618(2) 0.3967(3)
H7 H 0.109105 0.037681 0.332321
N3_2 N 0.2094(4) 0.08274(16) 0.5518(2)
N4_2 N 0.5868(4) 0.12086(17) 0.6698(2)
N5_2 N 0.6098(5) 0.16166(19) 0.5831(2)
O2_2 O 0.0893(3) 0.30881(13) 0.63723(18)
C9 C 0.0380(4) 0.33896(18) 0.4191(2)
C10 C 0.0236(4) 0.42108(17) 0.4662(2)
C11 C 0.0320(4) 0.48671(18) 0.4020(2)
H10 H 0.054640 0.477885 0.335548
O5 O 0.1601(4) 0.32621(15) 0.3713(2)
H11_2 H 0.752(4) 0.261(2) 0.573(3)
C12_2 C 0.0075(4) 0.56528(17) 0.4336(2)
C13_2 C 0.0050(4) 0.63258(18) 0.3569(2)
O8_2 O 0.0863(3) 0.70962(12) 0.57607(17)
O10_2 O 0.3406(3) 0.85803(15) 0.63337(19)
H20_2 H 0.335689 0.855496 0.568636
H21_2 H 0.342973 0.907105 0.651971
C1_2 C 0.9925(4) 0.43472(17) 0.5664(2)
C2_2 C 0.9950(4) 0.36742(18) 0.6431(2)
O1_2 O 0.6594(3) 0.14197(15) 0.36663(19)
H8_2 H 0.664311 0.144504 0.431364
H9_2 H 0.657027 0.092895 0.348029
O4_2 O 0.9137(3) 0.29038(12) 0.42393(17)
O6_2 O 0.9107(3) 0.69119(13) 0.36277(18)
C14 C 0.9620(4) 0.66104(18) 0.5809(2)
C15 C 0.9764(4) 0.57892(17) 0.5338(2)
C16 C 0.9680(4) 0.51329(18) 0.5980(2)
H12 H 0.945360 0.522115 0.664452
O9 O 0.8399(4) 0.67379(15) 0.6287(2)
N7 N 0.7835(4) 0.97296(18) 0.5235(2)
C17_2 C 0.8824(4) 0.85390(19) 0.4860(3)
H13_2 H 0.904753 0.808514 0.448661
C18_2 C 0.7122(4) 0.9354(2) 0.3431(3)
H14_2 H 0.769334 0.982018 0.318944
H15_2 H 0.730987 0.890177 0.299377
C19_2 C 0.5194(4) 0.95194(19) 0.3340(3)
H16_2 H 0.484013 0.983228 0.272406
H17_2 H 0.497569 0.984298 0.392066
C20_2 C 0.2872(5) 0.7789(2) 0.3808(3)
C21_2 C 0.3277(4) 0.8432(2) 0.2485(3)
H18_2 H 0.325882 0.860134 0.181138
N8 N 0.9378(4) 0.86502(16) 0.5855(2)
C22 C 0.8731(5) 0.9382(2) 0.6033(3)
H19 H 0.890895 0.962319 0.667679
N9_2 N 0.7906(4) 0.91726(16) 0.4482(2)
N10_2 N 0.4132(4) 0.87914(17) 0.3302(2)
N11_2 N 0.3902(5) 0.83834(19) 0.4169(2)
H22_2 H 0.248(4) 0.739(2) 0.427(3)
C14_2 C 0.0380(4) 0.16104(18) 0.9191(2)
C15_2 C 0.0236(4) 0.07892(17) 0.9662(2)
C16_2 C 0.0320(4) 0.01329(18) 0.9020(2)
H12_2 H 0.054640 0.022115 0.835548
O9_2 O 0.1601(4) 0.17379(15) 0.8713(2)
N7_2 N 0.2165(4) 0.47296(18) 0.9765(2)
N8_2 N 0.0622(4) 0.36502(16) 0.9145(2)
C22_2 C 0.1269(5) 0.4382(2) 0.8967(3)
H19_2 H 0.109105 0.462319 0.832321
N1_2 N 0.7835(4) 0.52704(18) 0.0235(2)
N2_2 N 0.9378(4) 0.63498(16) 0.0855(2)
C8_2 C 0.8731(5) 0.5618(2) 0.1033(3)
H7_2 H 0.890895 0.537681 0.167679
C9_2 C 0.9620(4) 0.83896(18) 0.0809(2)
C10_2 C 0.9764(4) 0.92108(17) 0.0338(2)
C11_2 C 0.9680(4) 0.98671(18) 0.0980(2)
H10_2 H 0.945360 0.977885 0.164452
O5_2 O 0.8399(4) 0.82621(15) 0.1287(2)
loop_
_geom_bond_atom_site_label_1
_geom_bond_atom_site_label_2
_geom_bond_site_symmetry_1
_geom_bond_site_symmetry_2
C17 H13 1_555 1_555
C18 H14 1_555 1_555
H15 C18 1_555 1_555
C19 C18 1_555 1_555
H16 C19 1_555 1_555
H17 C19 1_555 1_555
C20 N11 1_555 1_555
C21 H18 1_555 1_555
N10 C19 1_555 1_555
N11 N10 1_555 1_555
N12 C20 1_555 1_555
H22 C20 1_555 1_555
Cu4 N12 1_555 1_555
C17 N9 1_555 1_555
C18 N9 1_555 1_555
C21 N10 1_555 1_555
C21 N12 1_555 1_555
O1 H8 1_555 1_555
H9 O1 1_555 1_555
N14 Cu1 1_555 1_555
O12 Cu1 1_555 1_555
O1 Cu1 1_555 1_555
O4 Cu1 1_555 1_555
C1 C2 1_555 1_555
O3 C2 1_555 1_555
Cu6 O3 1_555 1_555
C13 C12 1_555 1_555
O7 C13 1_555 1_555
Cu4 O7 1_555 1_555
O10 H20 1_555 1_555
H21 O10 1_555 1_555
Cu2 O8 1_555 1_555
N13 Cu2 1_555 1_555
O11 Cu2 1_555 1_555
O10 Cu2 1_555 1_555
C3 H1 1_555 1_555
C4 H2 1_555 1_555
H3 C4 1_555 1_555
C5 C4 1_555 1_555
H4 C5 1_555 1_555
H5 C5 1_555 1_555
C6 N5 1_555 1_555
C7 H6 1_555 1_555
N4 C5 1_555 1_555
N5 N4 1_555 1_555
N6 C6 1_555 1_555
H11 C6 1_555 1_555
Cu6 N6 1_555 1_555
C3 N3 1_555 1_555
C4 N3 1_555 1_555
C7 N4 1_555 1_555
C7 N6 1_555 1_555
N1 C8 1_555 1_555
C3_2 H1_2 1_555 1_555
C4_2 H2_2 1_555 1_555
H3_2 C4_2 1_555 1_555
C5_2 C4_2 1_555 1_555
H4_2 C5_2 1_555 1_555
H5_2 C5_2 1_555 1_555
C6_2 N5_2 1_555 1_555
C7_2 H6_2 1_555 1_555
N2 C3_2 1_555 1_555
C8 N2 1_555 1_555
H7 C8 1_555 1_555
N3_2 N1 1_555 1_555
N4_2 C5_2 1_555 1_555
N5_2 N4_2 1_555 1_555
N13 C6_2 1_555 1_555
C9 C10 1_555 1_555
C11 C10 1_555 1_555
H10 C11 1_555 1_555
O5 C9 1_555 1_555
H11_2 C6_2 1_555 1_555
C12_2 C11 1_555 1_555
C13_2 C12_2 1_555 1_555
O12 C13_2 1_555 1_555
O10_2 H20_2 1_555 1_555
H21_2 O10_2 1_555 1_555
Cu6 O8_2 1_555 1_555
C3_2 N3_2 1_555 1_555
C4_2 N3_2 1_555 1_555
C7_2 N4_2 1_555 1_555
C7_2 N13 1_555 1_555
O10_2 Cu6 1_555 1_555
C1_2 C2_2 1_555 1_555
O1_2 H8_2 1_555 1_555
H9_2 O1_2 1_555 1_555
O11 C2_2 1_555 1_555
C14 C15 1_555 1_555
C16 C1_2 1_555 1_555
H12 C16 1_555 1_555
O9 C14 1_555 1_555
N7 C22 1_555 1_555
C17_2 H13_2 1_555 1_555
C18_2 H14_2 1_555 1_555
H15_2 C18_2 1_555 1_555
C19_2 C18_2 1_555 1_555
H16_2 C19_2 1_555 1_555
H17_2 C19_2 1_555 1_555
C20_2 N11_2 1_555 1_555
C21_2 H18_2 1_555 1_555
N8 C17_2 1_555 1_555
C22 N8 1_555 1_555
H19 C22 1_555 1_555
N9_2 N7 1_555 1_555
N10_2 C19_2 1_555 1_555
N11_2 N10_2 1_555 1_555
N14 C20_2 1_555 1_555
H22_2 C20_2 1_555 1_555
O1_2 Cu4 1_555 1_555
O4_2 Cu4 1_555 1_555
C15 C16 1_555 1_555
C17_2 N9_2 1_555 1_555
C18_2 N9_2 1_555 1_555
C21_2 N10_2 1_555 1_555
C21_2 N14 1_555 1_555
C14_2 C15_2 1_555 1_555
H12_2 C16_2 1_555 1_555
O9_2 C14_2 1_555 1_555
N7_2 C22_2 1_555 1_555
C22_2 N8_2 1_555 1_555
H19_2 C22_2 1_555 1_555
C15_2 C16_2 1_555 1_555
N1_2 C8_2 1_555 1_555
C8_2 N2_2 1_555 1_555
H7_2 C8_2 1_555 1_555
C9_2 C10_2 1_555 1_555
C11_2 C10_2 1_555 1_555
H10_2 C11_2 1_555 1_555
O5_2 C9_2 1_555 1_555

#END
