
###############################################################################
#
# This file contains modified crystal structure data generated from the
# MOF subset of the Cambridge Structural Database (CSD) v543 
# hosted by the Cambridge Crystallographic Data Centre (CCDC).
#
# This work is licensed under the Creative Commons
# Attribution-NonCommercial-ShareAlike 4.0 International License.
# To view a copy of this license, visit
# http://creativecommons.org/licenses/by-nc-sa/4.0/
# or send a letter to
# Creative Commons, PO Box 1866, Mountain View, CA 94042, USA.
#
# CIF created using the CSD Python API on 29 September 2022
# The structure has been converted into the P1 space group
# The structure has a 3D framework
# The original CSD entry ZIQCOT is in the triclinic crystal system
# The framework has been calculated to contain at least 10.0% void space
# The void calculation uses a probe of radius 1.32A, grid spacing 0.4
#
###############################################################################

data_ZIQCOT
_chemical_formula_moiety         '(C28 H12 Ag2 N4 Nd2 O14)n'
_symmetry_cell_setting           triclinic
_symmetry_space_group_name_H-M   'P 1'
_symmetry_Int_Tables_number      1
_space_group_name_Hall           'P 1'
loop_
_symmetry_equiv_pos_site_id
_symmetry_equiv_pos_as_xyz
1 x,y,z
_cell_length_a                   7.3209(12)
_cell_length_b                   10.4579(17)
_cell_length_c                   11.632(2)
_cell_angle_alpha                100.170(2)
_cell_angle_beta                 100.846(2)
_cell_angle_gamma                96.142(2)
_cell_volume                     851.805
loop_
_atom_site_label
_atom_site_type_symbol
_atom_site_fract_x
_atom_site_fract_y
_atom_site_fract_z
O3 O 0.5101(7) 0.0751(5) 0.2478(5)
Ag3 Ag 0.28932(10) 0.25391(7) 0.20931(6)
Nd3 Nd 0.74332(5) 0.02789(4) 0.43187(3)
O14 O 0.0741(6) 0.1434(5) 0.5157(5)
O2 O 0.1931(7) 0.9370(5) 0.3503(4)
O4 O 0.5324(7) 0.8670(5) 0.2568(5)
C1 C 0.0615(9) 0.9406(7) 0.2644(6)
C2 C 0.0971(9) 0.9012(7) 0.1408(6)
C6 C 0.2769(10) 0.9098(7) 0.1165(6)
C7 C 0.4509(10) 0.9541(8) 0.2147(6)
Nd5 Nd 0.25668(5) 0.97211(4) 0.56813(3)
N2 N 0.5099(9) 0.5726(6) 0.6936(6)
O5 O 0.7158(6) 0.2650(5) 0.5065(5)
O6 O 0.4605(6) 0.1285(5) 0.4962(4)
O8 O 0.0574(8) 0.2626(6) 0.3740(5)
C8 C 0.5525(10) 0.2436(7) 0.5230(7)
C9 C 0.4604(10) 0.3549(7) 0.5747(7)
C10 C 0.5749(10) 0.4684(7) 0.6421(7)
H4 H 0.7044 0.4714 0.6515
C11 C 0.3214(11) 0.5677(8) 0.6758(8)
H5 H 0.2731 0.6406 0.7096
C12 C 0.1975(11) 0.4599(7) 0.6100(7)
H6 H 0.0686 0.4600 0.6011
C13 C 0.2663(10) 0.3518(7) 0.5573(7)
C14 C 0.1219(9) 0.2430(7) 0.4725(7)
Ag2 Ag 0.71068(10) 0.74609(7) 0.79069(6)
O9 O 0.8069(7) 0.0630(5) 0.6497(4)
O1 O 0.9048(7) 0.9717(5) 0.2718(5)
C3 C 0.9457(10) 0.8567(7) 0.0460(7)
H1 H 0.8259 0.8513 0.0624
O13 O 0.5395(6) 0.8715(5) 0.5038(4)
O15 O 0.9259(6) 0.8566(5) 0.4843(5)
N1 N 0.9601(8) 0.8209(6) 0.9331(5)
O11 O 0.4899(7) 0.9249(5) 0.7522(5)
N1_2 N 0.0399(8) 0.1791(6) 0.0669(5)
N3 N 0.4901(9) 0.4274(6) 0.3064(6)
O1_2 O 0.0952(7) 0.0283(5) 0.7282(5)
C3_2 C 0.0543(10) 0.1433(7) 0.9540(7)
H1_2 H 0.1741 0.1487 0.9376
O12 O 0.4676(7) 0.1330(5) 0.7432(5)
O5_2 O 0.2842(6) 0.7350(5) 0.4935(5)
O8_2 O 0.9426(8) 0.7374(6) 0.6260(5)
C8_2 C 0.4475(10) 0.7564(7) 0.4770(7)
C9_2 C 0.5396(10) 0.6451(7) 0.4253(7)
C10_2 C 0.4251(10) 0.5316(7) 0.3579(7)
H4_2 H 0.2956 0.5286 0.3485
C11_2 C 0.6786(11) 0.4323(8) 0.3242(8)
H5_2 H 0.7269 0.3594 0.2904
C12_2 C 0.8025(11) 0.5401(7) 0.3900(7)
H6_2 H 0.9314 0.5400 0.3989
C13_2 C 0.7337(10) 0.6482(7) 0.4427(7)
C14_2 C 0.8781(9) 0.7570(7) 0.5275(7)
C1_2 C 0.9385(9) 0.0594(7) 0.7356(6)
C2_2 C 0.9029(9) 0.0988(7) 0.8592(6)
C6_2 C 0.7231(10) 0.0902(7) 0.8835(6)
C7_2 C 0.5491(10) 0.0459(8) 0.7853(6)
C4 C 0.1351(10) 0.8305(8) 0.9116(7)
H2 H 0.1487 0.8078 0.8330
C5 C 0.2921(11) 0.8713(8) 0.9985(7)
H3 H 0.4099 0.8737 0.9793
C4_2 C 0.8649(10) 0.1695(8) 0.0884(7)
H2_2 H 0.8513 0.1922 0.1670
C5_2 C 0.7079(11) 0.1287(8) 0.0015(7)
H3_2 H 0.5901 0.1263 0.0207
loop_
_geom_bond_atom_site_label_1
_geom_bond_atom_site_label_2
_geom_bond_site_symmetry_1
_geom_bond_site_symmetry_2
Ag3 O3 1_555 1_555
Nd3 O3 1_555 1_555
O2 C1 1_555 1_555
O4 C7 1_555 1_555
C1 C2 1_555 1_555
C6 C2 1_555 1_555
C7 C6 1_555 1_555
Nd5 O2 1_555 1_555
N2 C10 1_555 1_555
O5 Nd3 1_555 1_555
O6 Nd3 1_555 1_555
O14 C14 1_555 1_555
O8 C14 1_555 1_555
C8 O5 1_555 1_555
C9 C8 1_555 1_555
C10 C9 1_555 1_555
H4 C10 1_555 1_555
C11 N2 1_555 1_555
H5 C11 1_555 1_555
C12 C11 1_555 1_555
H6 C12 1_555 1_555
C13 C9 1_555 1_555
C14 C13 1_555 1_555
Ag2 N2 1_555 1_555
O9 Nd3 1_555 1_555
O6 C8 1_555 1_555
C12 C13 1_555 1_555
C3 H1 1_555 1_555
Nd5 O13 1_555 1_555
Ag2 N1 1_555 1_555
O11 Ag2 1_555 1_555
Ag3 N1_2 1_555 1_555
N3 Ag3 1_555 1_555
C3_2 H1_2 1_555 1_555
N3 C10_2 1_555 1_555
O5_2 Nd5 1_555 1_555
O15 C14_2 1_555 1_555
O8_2 C14_2 1_555 1_555
C8_2 O5_2 1_555 1_555
C9_2 C8_2 1_555 1_555
C10_2 C9_2 1_555 1_555
H4_2 C10_2 1_555 1_555
C11_2 N3 1_555 1_555
H5_2 C11_2 1_555 1_555
C12_2 C11_2 1_555 1_555
H6_2 C12_2 1_555 1_555
C13_2 C9_2 1_555 1_555
C14_2 C13_2 1_555 1_555
O11 Nd5 1_555 1_555
O13 C8_2 1_555 1_555
C12_2 C13_2 1_555 1_555
O9 C1_2 1_555 1_555
O12 C7_2 1_555 1_555
C1_2 C2_2 1_555 1_555
C6_2 C2_2 1_555 1_555
C7_2 C6_2 1_555 1_555
H2 C4 1_555 1_555
C5 C4 1_555 1_555
H3 C5 1_555 1_555
H2_2 C4_2 1_555 1_555
C5_2 C4_2 1_555 1_555
H3_2 C5_2 1_555 1_555

#END
