
###############################################################################
#
# This file contains modified crystal structure data generated from the
# MOF subset of the Cambridge Structural Database (CSD) v543 
# hosted by the Cambridge Crystallographic Data Centre (CCDC).
#
# This work is licensed under the Creative Commons
# Attribution-NonCommercial-ShareAlike 4.0 International License.
# To view a copy of this license, visit
# http://creativecommons.org/licenses/by-nc-sa/4.0/
# or send a letter to
# Creative Commons, PO Box 1866, Mountain View, CA 94042, USA.
#
# CIF created using the CSD Python API on 29 September 2022
# The structure has been converted into the P1 space group
# The structure has a 3D framework
# The original CSD entry ZIQDIP is in the monoclinic crystal system
# The framework has been calculated to contain at least 10.0% void space
# The void calculation uses a probe of radius 1.32A, grid spacing 0.4
#
###############################################################################

data_ZIQDIP
_chemical_formula_moiety         '(C344 H232 Co8 N56 O32)n'
_symmetry_cell_setting           triclinic
_symmetry_space_group_name_H-M   'P 1'
_symmetry_Int_Tables_number      1
_space_group_name_Hall           'P 1'
loop_
_symmetry_equiv_pos_site_id
_symmetry_equiv_pos_as_xyz
1 x,y,z
_cell_length_a                   26.148(3)
_cell_length_b                   9.8460(11)
_cell_length_c                   32.580(4)
_cell_angle_alpha                90
_cell_angle_beta                 107.522(5)
_cell_angle_gamma                90
_cell_volume                     7998.64
loop_
_atom_site_label
_atom_site_type_symbol
_atom_site_fract_x
_atom_site_fract_y
_atom_site_fract_z
O6 O 0.11748(19) 0.0195(5) 0.90734(16)
N2 N 0.07689(17) 0.5157(4) 0.29861(14)
N3 N 0.08195(18) 0.3893(4) 0.35640(14)
N5 N 0.1511(2) 0.6681(5) 0.02171(14)
C1 C 0.0574(2) 0.5971(5) 0.32543(17)
C2 C 0.0840(2) 0.5488(5) 0.25788(17)
C3 C 0.0603(2) 0.5181(6) 0.36123(19)
C4 C 0.0905(2) 0.3958(5) 0.31942(18)
H1 H 0.1049 0.3230 0.3079
C5 C 0.1184(2) 0.6956(5) 0.21417(18)
H2 H 0.1335 0.7793 0.2102
C6 C 0.1070(2) 0.6008(6) 0.18165(19)
C7 C 0.1433(3) 0.6551(6) 0.06315(17)
C8 C 0.0828(3) 0.4808(6) 0.18710(19)
H3 H 0.0746 0.4154 0.1651
C10 C 0.0367(2) 0.7277(6) 0.3209(2)
H4 H 0.0342 0.7807 0.2964
C11 C 0.1203(2) 0.6229(6) 0.14085(18)
C14 C 0.1255(2) 0.7652(6) 0.08152(18)
H6 H 0.1214 0.8507 0.0680
C15 C 0.1079(2) 0.6697(6) 0.25257(17)
H7 H 0.1169 0.7341 0.2749
C17 C 0.0439(2) 0.5674(6) 0.3954(2)
H8 H 0.0461 0.5143 0.4199
C18 C 0.0702(3) 0.4556(6) 0.22529(19)
H9 H 0.0524 0.3752 0.2285
C19 C 0.1139(2) 0.7482(6) 0.11986(19)
H10 H 0.1013 0.8227 0.1321
C20 C 0.1931(2) 0.6172(7) 0.0079(2)
C21 C 0.1406(3) 0.5171(6) 0.1223(2)
H11 H 0.1467 0.4327 0.1365
C22 C 0.0200(3) 0.7744(7) 0.3543(2)
H12 H 0.0049 0.8617 0.3521
C24 C 0.0243(3) 0.6992(6) 0.3913(2)
H14 H 0.0138 0.7383 0.4138
C27 C 0.1522(3) 0.5309(7) 0.0839(2)
H17 H 0.1658 0.4574 0.0721
C31 C 0.2394(3) 0.5461(8) 0.0286(3)
H18 H 0.2470 0.5190 0.0574
C38 C 0.2733(3) 0.5171(10) 0.0055(3)
H24 H 0.3061 0.4739 0.0191
Co3 Co 0.08912(3) 0.21503(8) 0.39227(2)
Co1 Co 0.08912(3) 0.78497(8) 0.89227(2)
N1 N 0.13187(19) 0.7235(5) 0.95241(15)
O3 O 0.0145(3) 0.8124(7) 0.9057(3)
O4 O 0.0121(2) 0.8613(7) 0.8404(3)
C9 C 0.1802(2) 0.6516(6) 0.96472(19)
C12 C 0.1162(2) 0.7299(6) 0.98687(18)
H5 H 0.0843 0.7725 0.9876
C26 C 0.2148(3) 0.6176(7) 0.9408(2)
H16 H 0.2067 0.6405 0.9115
C33 C 0.2608(3) 0.5500(9) 0.9617(3)
H20 H 0.2846 0.5248 0.9464
O5 O 0.13738(19) 0.8781(5) 0.86268(15)
N8 N 0.08195(18) 0.6107(4) 0.85640(14)
O1 O 0.63738(19) 0.3781(5) 0.86268(15)
O2 O 0.61748(19) 0.5195(5) 0.90734(16)
C13 C 0.6707(2) 0.5997(6) 0.8635(2)
C16 C 0.6391(2) 0.4928(7) 0.8798(2)
C23 C 0.6734(3) 0.7290(7) 0.8793(3)
H13 H 0.6561 0.7539 0.8996
C25 C 0.7049(3) 0.8271(7) 0.8627(3)
H15 H 0.7090 0.9168 0.8731
C28 C 0.7281(3) 0.7872(8) 0.8322(3)
C29 C 0.9292(3) 0.8656(7) 0.8596(3)
C30 C 0.9911(4) 0.8438(8) 0.8693(4)
C32 C 0.6952(3) 0.5680(8) 0.8338(3)
H19 H 0.6925 0.4783 0.8234
C35 C 0.8196(3) 0.8827(8) 0.8307(3)
C36 C 0.7582(3) 0.8862(8) 0.8107(3)
H22 H 0.7499 0.8600 0.7801
C37 C 0.7239(3) 0.6606(10) 0.8178(3)
H23 H 0.7403 0.6342 0.7971
C40 C 0.8490(4) 0.9014(9) 0.8052(3)
H26 H 0.8326 0.9204 0.7759
C41 C 0.8433(4) 0.8601(11) 0.8748(4)
H27 H 0.8225 0.8516 0.8937
C42 C 0.9045(4) 0.8500(9) 0.8908(3)
H28 H 0.9236 0.8344 0.9199
C43 C 0.9029(4) 0.8933(9) 0.8209(3)
H29 H 0.9226 0.9095 0.8016
Co2 Co 0.58912(3) 0.28497(8) 0.89227(2)
N1_2 N 0.63187(19) 0.2235(5) 0.95241(15)
O3_2 O 0.5145(3) 0.3124(7) 0.9057(3)
O4_2 O 0.5121(2) 0.3613(7) 0.8404(3)
N4 N 0.24080(19) 0.5289(5) 0.8123(2)
N6 N 0.2113(3) 0.7297(7) 0.7906(2)
N7 N 0.2574(3) 0.6041(8) 0.8470(2)
C9_2 C 0.6802(2) 0.1516(6) 0.96472(19)
C12_2 C 0.6162(2) 0.2299(6) 0.98687(18)
H5_2 H 0.5843 0.2725 0.9876
C13_2 C 0.1707(2) 0.0997(6) 0.8635(2)
C23_2 C 0.1734(3) 0.2290(7) 0.8793(3)
H13_2 H 0.1561 0.2539 0.8996
C25_2 C 0.2049(3) 0.3271(7) 0.8627(3)
H15_2 H 0.2090 0.4168 0.8731
C26_2 C 0.7148(3) 0.1176(7) 0.9408(2)
H16_2 H 0.7067 0.1405 0.9115
C28_2 C 0.2281(3) 0.2872(8) 0.8322(3)
C29_2 C 0.4292(3) 0.3656(7) 0.8596(3)
C30_2 C 0.4911(4) 0.3438(8) 0.8693(4)
C32_2 C 0.1952(3) 0.0680(8) 0.8338(3)
C33_2 C 0.7608(3) 0.0500(9) 0.9617(3)
H20_2 H 0.7846 0.0248 0.9464
C34 C 0.2120(3) 0.6064(10) 0.7757(3)
H21 H 0.1970 0.5759 0.7473
C35_2 C 0.3196(3) 0.3827(8) 0.8307(3)
C36_2 C 0.2582(3) 0.3862(8) 0.8107(3)
H22_2 H 0.2499 0.3600 0.7801
C37_2 C 0.2239(3) 0.1606(10) 0.8178(3)
H23_2 H 0.2403 0.1342 0.7971
C39 C 0.2383(4) 0.7170(9) 0.8329(3)
H25 H 0.2428 0.7922 0.8514
C40_2 C 0.3490(4) 0.4014(9) 0.8052(3)
H26_2 H 0.3326 0.4204 0.7759
C41_2 C 0.3433(4) 0.3601(11) 0.8748(4)
H27_2 H 0.3225 0.3516 0.8937
C42_2 C 0.4045(4) 0.3500(9) 0.8908(3)
H28_2 H 0.4236 0.3344 0.9199
C43_2 C 0.4029(4) 0.3933(9) 0.8209(3)
H29_2 H 0.4226 0.4095 0.8016
N8_2 N 0.58195(18) 0.1107(4) 0.85640(14)
C16_2 C 0.1391(2) 0.9928(7) 0.8798(2)
H19_2 H 0.1925 0.9783 0.8234
N1_3 N 0.13187(19) 0.2765(5) 0.45241(15)
O3_3 O 0.0145(3) 0.1876(7) 0.4057(3)
O4_3 O 0.0121(2) 0.1387(7) 0.3404(3)
N2_2 N 0.07689(17) 0.4843(4) 0.79861(14)
N5_2 N 0.1511(2) 0.3319(5) 0.52171(14)
C1_2 C 0.0574(2) 0.4029(5) 0.82543(17)
C2_2 C 0.0840(2) 0.4512(5) 0.75788(17)
C3_2 C 0.0603(2) 0.4819(6) 0.86123(19)
C4_2 C 0.0905(2) 0.6042(5) 0.81942(18)
H1_2 H 0.1049 0.6770 0.8079
C5_2 C 0.1184(2) 0.3044(5) 0.71417(18)
H2_2 H 0.1335 0.2207 0.7102
C6_2 C 0.1070(2) 0.3992(6) 0.68165(19)
C7_2 C 0.1433(3) 0.3449(6) 0.56315(17)
C8_2 C 0.0828(3) 0.5192(6) 0.68710(19)
H3_2 H 0.0746 0.5846 0.6651
C9_3 C 0.1802(2) 0.3484(6) 0.46472(19)
C10_2 C 0.0367(2) 0.2723(6) 0.8209(2)
H4_2 H 0.0342 0.2193 0.7964
C11_2 C 0.1203(2) 0.3771(6) 0.64085(18)
C12_3 C 0.1162(2) 0.2701(6) 0.48687(18)
H5_3 H 0.0843 0.2275 0.4876
C14_2 C 0.1255(2) 0.2348(6) 0.58152(18)
H6_2 H 0.1214 0.1493 0.5680
C15_2 C 0.1079(2) 0.3303(6) 0.75257(17)
H7_2 H 0.1169 0.2659 0.7749
C17_2 C 0.0439(2) 0.4326(6) 0.8954(2)
H8_2 H 0.0461 0.4857 0.9199
C18_2 C 0.0702(3) 0.5444(6) 0.72529(19)
H9_2 H 0.0524 0.6248 0.7285
C19_2 C 0.1139(2) 0.2518(6) 0.61986(19)
H10_2 H 0.1013 0.1773 0.6321
C20_2 C 0.1931(2) 0.3828(7) 0.5079(2)
C21_2 C 0.1406(3) 0.4829(6) 0.6223(2)
H11_2 H 0.1467 0.5673 0.6365
C22_2 C 0.0200(3) 0.2256(7) 0.8543(2)
H12_2 H 0.0049 0.1383 0.8521
C24_2 C 0.0243(3) 0.3008(6) 0.8913(2)
H14_2 H 0.0138 0.2617 0.9138
C26_3 C 0.2148(3) 0.3824(7) 0.4408(2)
H16_3 H 0.2067 0.3595 0.4115
C27_2 C 0.1522(3) 0.4691(7) 0.5839(2)
H17_2 H 0.1658 0.5426 0.5721
C31_2 C 0.2394(3) 0.4539(8) 0.5286(3)
H18_2 H 0.2470 0.4810 0.5574
C33_3 C 0.2608(3) 0.4500(9) 0.4617(3)
H20_3 H 0.2846 0.4752 0.4464
C38_2 C 0.2733(3) 0.4829(10) 0.5055(3)
H24_2 H 0.3061 0.5261 0.5191
O5_2 O 0.13738(19) 0.1219(5) 0.36268(15)
C4_3 C 0.5905(2) 0.1042(5) 0.81942(18)
H1_3 H 0.6049 0.1770 0.8079
C8_3 C 0.5828(3) 0.0192(6) 0.68710(19)
H3_3 H 0.5746 0.0846 0.6651
C16_3 C 0.1391(2) 0.0072(7) 0.3798(2)
C18_3 C 0.5702(3) 0.0444(6) 0.72529(19)
H9_3 H 0.5524 0.1248 0.7285
H11_3 H 0.6467 0.0673 0.6365
H17_3 H 0.6658 0.0426 0.5721
H19_3 H 0.1925 0.0217 0.3234
H24_3 H 0.8061 0.0261 0.5191
N4_2 N 0.74080(19) 0.0289(5) 0.8123(2)
N6_2 N 0.7113(3) 0.2297(7) 0.7906(2)
N7_2 N 0.7574(3) 0.1041(8) 0.8470(2)
C34_2 C 0.7120(3) 0.1064(10) 0.7757(3)
H21_2 H 0.6970 0.0759 0.7473
C39_2 C 0.7383(4) 0.2170(9) 0.8329(3)
H25_2 H 0.7428 0.2922 0.8514
N4_3 N 0.25920(19) 0.0289(5) 0.6877(2)
N6_3 N 0.2887(3) 0.2297(7) 0.7094(2)
N7_3 N 0.2426(3) 0.1041(8) 0.6530(2)
C34_3 C 0.2880(3) 0.1064(10) 0.7243(3)
H21_3 H 0.3030 0.0759 0.7527
C39_3 C 0.2617(4) 0.2170(9) 0.6671(3)
H25_3 H 0.2572 0.2922 0.6486
O1_2 O 0.36262(19) 0.3781(5) 0.63732(15)
O2_2 O 0.38252(19) 0.5195(5) 0.59266(16)
C13_3 C 0.3293(2) 0.5997(6) 0.6365(2)
C16_4 C 0.3609(2) 0.4928(7) 0.6202(2)
C23_3 C 0.3266(3) 0.7290(7) 0.6207(3)
H13_3 H 0.3439 0.7539 0.6004
C25_3 C 0.2951(3) 0.8271(7) 0.6373(3)
H15_3 H 0.2910 0.9168 0.6269
C28_3 C 0.2719(3) 0.7872(8) 0.6678(3)
C29_3 C 0.0708(3) 0.8656(7) 0.6404(3)
C30_3 C 0.0089(4) 0.8438(8) 0.6307(4)
C32_3 C 0.3048(3) 0.5680(8) 0.6662(3)
H19_4 H 0.3075 0.4783 0.6766
C35_3 C 0.1804(3) 0.8827(8) 0.6693(3)
C36_3 C 0.2418(3) 0.8862(8) 0.6893(3)
H22_3 H 0.2501 0.8600 0.7199
C37_3 C 0.2761(3) 0.6606(10) 0.6822(3)
H23_3 H 0.2597 0.6342 0.7029
C40_3 C 0.1510(4) 0.9014(9) 0.6948(3)
H26_3 H 0.1674 0.9204 0.7241
C41_3 C 0.1567(4) 0.8601(11) 0.6252(4)
H27_3 H 0.1775 0.8516 0.6063
C42_3 C 0.0955(4) 0.8500(9) 0.6092(3)
H28_3 H 0.0764 0.8344 0.5801
C43_3 C 0.0971(4) 0.8933(9) 0.6791(3)
H29_3 H 0.0774 0.9095 0.6984
Co2_2 Co 0.41088(3) 0.28497(8) 0.60773(2)
O6_2 O 0.88252(19) 0.0195(5) 0.59266(16)
N1_4 N 0.36813(19) 0.2235(5) 0.54759(15)
O3_4 O 0.4855(3) 0.3124(7) 0.5943(3)
O4_4 O 0.4879(2) 0.3613(7) 0.6596(3)
N2_3 N 0.42311(17) 0.0157(4) 0.20139(14)
N4_4 N 0.75920(19) 0.5289(5) 0.6877(2)
N5_3 N 0.3489(2) 0.1681(5) 0.47829(14)
N6_4 N 0.7887(3) 0.7297(7) 0.7094(2)
N7_4 N 0.7426(3) 0.6041(8) 0.6530(2)
C1_3 C 0.4426(2) 0.0971(5) 0.17457(17)
C2_3 C 0.4160(2) 0.0488(5) 0.24212(17)
C3_3 C 0.4397(2) 0.0181(6) 0.13877(19)
C5_3 C 0.3816(2) 0.1956(5) 0.28583(18)
H2_3 H 0.3665 0.2793 0.2898
C6_3 C 0.3930(2) 0.1008(6) 0.31835(19)
C7_3 C 0.3567(3) 0.1551(6) 0.43685(17)
C9_4 C 0.3198(2) 0.1516(6) 0.53528(19)
C10_3 C 0.4633(2) 0.2277(6) 0.1791(2)
H4_3 H 0.4658 0.2807 0.2036
C11_3 C 0.3797(2) 0.1229(6) 0.35915(18)
C12_4 C 0.3838(2) 0.2299(6) 0.51313(18)
H5_4 H 0.4157 0.2725 0.5124
C13_4 C 0.8293(2) 0.0997(6) 0.6365(2)
C14_3 C 0.3745(2) 0.2652(6) 0.41848(18)
H6_3 H 0.3786 0.3507 0.4320
C15_3 C 0.3921(2) 0.1697(6) 0.24743(17)
H7_3 H 0.3831 0.2341 0.2251
C17_3 C 0.4561(2) 0.0674(6) 0.1046(2)
H8_3 H 0.4539 0.0143 0.0801
C19_3 C 0.3861(2) 0.2482(6) 0.38014(19)
H10_3 H 0.3987 0.3227 0.3679
C20_3 C 0.3069(2) 0.1172(7) 0.4921(2)
C21_3 C 0.3594(3) 0.0171(6) 0.3777(2)
C22_3 C 0.4800(3) 0.2744(7) 0.1457(2)
H12_3 H 0.4951 0.3617 0.1479
C23_4 C 0.8266(3) 0.2290(7) 0.6207(3)
H13_4 H 0.8439 0.2539 0.6004
C24_3 C 0.4757(3) 0.1992(6) 0.1087(2)
H14_3 H 0.4862 0.2383 0.0862
C25_4 C 0.7951(3) 0.3271(7) 0.6373(3)
H15_4 H 0.7910 0.4168 0.6269
C26_4 C 0.2852(3) 0.1176(7) 0.5592(2)
H16_4 H 0.2933 0.1405 0.5885
C27_3 C 0.3478(3) 0.0309(7) 0.4161(2)
C28_4 C 0.7719(3) 0.2872(8) 0.6678(3)
C29_4 C 0.5708(3) 0.3656(7) 0.6404(3)
C30_4 C 0.5089(4) 0.3438(8) 0.6307(4)
C31_3 C 0.2606(3) 0.0461(8) 0.4714(3)
H18_3 H 0.2530 0.0190 0.4426
C32_4 C 0.8048(3) 0.0680(8) 0.6662(3)
C33_4 C 0.2392(3) 0.0500(9) 0.5383(3)
H20_4 H 0.2154 0.0248 0.5536
C34_4 C 0.7880(3) 0.6064(10) 0.7243(3)
H21_4 H 0.8030 0.5759 0.7527
C35_4 C 0.6804(3) 0.3827(8) 0.6693(3)
C36_4 C 0.7418(3) 0.3862(8) 0.6893(3)
H22_4 H 0.7501 0.3600 0.7199
C37_4 C 0.7761(3) 0.1606(10) 0.6822(3)
H23_4 H 0.7597 0.1342 0.7029
C38_3 C 0.2267(3) 0.0171(10) 0.4945(3)
C39_4 C 0.7617(4) 0.7170(9) 0.6671(3)
H25_4 H 0.7572 0.7922 0.6486
C40_4 C 0.6510(4) 0.4014(9) 0.6948(3)
H26_4 H 0.6674 0.4204 0.7241
C41_4 C 0.6567(4) 0.3601(11) 0.6252(4)
H27_4 H 0.6775 0.3516 0.6063
C42_4 C 0.5955(4) 0.3500(9) 0.6092(3)
H28_4 H 0.5764 0.3344 0.5801
C43_4 C 0.5971(4) 0.3933(9) 0.6791(3)
H29_4 H 0.5774 0.4095 0.6984
N8_3 N 0.41805(18) 0.1107(4) 0.64360(14)
C4_4 C 0.4095(2) 0.1042(5) 0.68058(18)
H1_4 H 0.3951 0.1770 0.6921
C8_4 C 0.4172(3) 0.0192(6) 0.81290(19)
H3_4 H 0.4254 0.0846 0.8349
C18_4 C 0.4298(3) 0.0444(6) 0.77471(19)
H9_4 H 0.4476 0.1248 0.7715
H11_4 H 0.3533 0.0673 0.8635
H17_4 H 0.3342 0.0426 0.9279
H24_4 H 0.1939 0.0261 0.9809
Co1_2 Co 0.91088(3) 0.78497(8) 0.60773(2)
N1_5 N 0.86813(19) 0.7235(5) 0.54759(15)
O3_5 O 0.9855(3) 0.8124(7) 0.5943(3)
O4_5 O 0.9879(2) 0.8613(7) 0.6596(3)
N2_4 N 0.92311(17) 0.5157(4) 0.20139(14)
N3_2 N 0.91805(18) 0.3893(4) 0.14360(14)
N5_4 N 0.8489(2) 0.6681(5) 0.47829(14)
C1_4 C 0.9426(2) 0.5971(5) 0.17457(17)
C2_4 C 0.9160(2) 0.5488(5) 0.24212(17)
C3_4 C 0.9397(2) 0.5181(6) 0.13877(19)
C4_5 C 0.9095(2) 0.3958(5) 0.18058(18)
H1_5 H 0.8951 0.3230 0.1921
C5_4 C 0.8816(2) 0.6956(5) 0.28583(18)
H2_4 H 0.8665 0.7793 0.2898
C6_4 C 0.8930(2) 0.6008(6) 0.31835(19)
C7_4 C 0.8567(3) 0.6551(6) 0.43685(17)
C8_5 C 0.9172(3) 0.4808(6) 0.31290(19)
H3_5 H 0.9254 0.4154 0.3349
C9_5 C 0.8198(2) 0.6516(6) 0.53528(19)
C10_4 C 0.9633(2) 0.7277(6) 0.1791(2)
H4_4 H 0.9658 0.7807 0.2036
C11_4 C 0.8797(2) 0.6229(6) 0.35915(18)
C12_5 C 0.8838(2) 0.7299(6) 0.51313(18)
H5_5 H 0.9157 0.7725 0.5124
C14_4 C 0.8745(2) 0.7652(6) 0.41848(18)
H6_4 H 0.8786 0.8507 0.4320
C15_4 C 0.8921(2) 0.6697(6) 0.24743(17)
H7_4 H 0.8831 0.7341 0.2251
C17_4 C 0.9561(2) 0.5674(6) 0.1046(2)
H8_4 H 0.9539 0.5143 0.0801
C18_5 C 0.9298(3) 0.4556(6) 0.27471(19)
H9_5 H 0.9476 0.3752 0.2715
C19_4 C 0.8861(2) 0.7482(6) 0.38014(19)
H10_4 H 0.8987 0.8227 0.3679
C20_4 C 0.8069(2) 0.6172(7) 0.4921(2)
C21_4 C 0.8594(3) 0.5171(6) 0.3777(2)
H11_5 H 0.8533 0.4327 0.3635
C22_4 C 0.9800(3) 0.7744(7) 0.1457(2)
H12_4 H 0.9951 0.8617 0.1479
C24_4 C 0.9757(3) 0.6992(6) 0.1087(2)
H14_4 H 0.9862 0.7383 0.0862
C26_5 C 0.7852(3) 0.6176(7) 0.5592(2)
H16_5 H 0.7933 0.6405 0.5885
C27_4 C 0.8478(3) 0.5309(7) 0.4161(2)
H17_5 H 0.8342 0.4574 0.4279
C31_4 C 0.7606(3) 0.5461(8) 0.4714(3)
H18_4 H 0.7530 0.5190 0.4426
C33_5 C 0.7392(3) 0.5500(9) 0.5383(3)
H20_5 H 0.7154 0.5248 0.5536
C38_4 C 0.7267(3) 0.5171(10) 0.4945(3)
H24_5 H 0.6939 0.4739 0.4809
Co3_2 Co 0.91088(3) 0.21503(8) 0.10773(2)
O5_3 O 0.86262(19) 0.8781(5) 0.63732(15)
N8_4 N 0.91805(18) 0.6107(4) 0.64360(14)
N3_3 N 0.41805(18) 0.8893(4) 0.14360(14)
C4_6 C 0.4095(2) 0.8958(5) 0.18058(18)
H1_6 H 0.3951 0.8230 0.1921
C8_6 C 0.4172(3) 0.9808(6) 0.31290(19)
H3_6 H 0.4254 0.9154 0.3349
C16_5 C 0.8609(2) 0.9928(7) 0.6202(2)
C18_6 C 0.4298(3) 0.9556(6) 0.27471(19)
H9_6 H 0.4476 0.8752 0.2715
H11_6 H 0.3533 0.9327 0.3635
H17_6 H 0.3342 0.9574 0.4279
H19_5 H 0.8075 0.9783 0.6766
H24_6 H 0.1939 0.9739 0.4809
Co3_3 Co 0.41088(3) 0.71503(8) 0.10773(2)
O1_3 O 0.36262(19) 0.6219(5) 0.13732(15)
O2_3 O 0.38252(19) 0.4805(5) 0.09266(16)
C13_5 C 0.3293(2) 0.4003(6) 0.1365(2)
C16_6 C 0.3609(2) 0.5072(7) 0.1202(2)
C23_5 C 0.3266(3) 0.2710(7) 0.1207(3)
H13_5 H 0.3439 0.2461 0.1004
C25_5 C 0.2951(3) 0.1729(7) 0.1373(3)
H15_5 H 0.2910 0.0832 0.1269
C28_5 C 0.2719(3) 0.2128(8) 0.1678(3)
C29_5 C 0.0708(3) 0.1344(7) 0.1404(3)
C30_5 C 0.0089(4) 0.1562(8) 0.1307(4)
C32_5 C 0.3048(3) 0.4320(8) 0.1662(3)
H19_6 H 0.3075 0.5217 0.1766
C35_5 C 0.1804(3) 0.1173(8) 0.1693(3)
C36_5 C 0.2418(3) 0.1138(8) 0.1893(3)
H22_5 H 0.2501 0.1400 0.2199
C37_5 C 0.2761(3) 0.3394(10) 0.1822(3)
H23_5 H 0.2597 0.3658 0.2029
C40_5 C 0.1510(4) 0.0986(9) 0.1948(3)
H26_5 H 0.1674 0.0796 0.2241
C41_5 C 0.1567(4) 0.1399(11) 0.1252(4)
H27_5 H 0.1775 0.1484 0.1063
C42_5 C 0.0955(4) 0.1500(9) 0.1092(3)
H28_5 H 0.0764 0.1656 0.0801
C43_5 C 0.0971(4) 0.1067(9) 0.1791(3)
H29_5 H 0.0774 0.0905 0.1984
N1_6 N 0.86813(19) 0.2765(5) 0.04759(15)
O3_6 O 0.9855(3) 0.1876(7) 0.0943(3)
O4_6 O 0.9879(2) 0.1387(7) 0.1596(3)
C9_6 C 0.8198(2) 0.3484(6) 0.03528(19)
C12_6 C 0.8838(2) 0.2701(6) 0.01313(18)
H5_6 H 0.9157 0.2275 0.0124
C26_6 C 0.7852(3) 0.3824(7) 0.0592(2)
H16_6 H 0.7933 0.3595 0.0885
C33_6 C 0.7392(3) 0.4500(9) 0.0383(3)
H20_6 H 0.7154 0.4752 0.0536
O5_4 O 0.86262(19) 0.1219(5) 0.13732(15)
N2_5 N 0.92311(17) 0.4843(4) 0.70139(14)
N5_5 N 0.8489(2) 0.3319(5) 0.97829(14)
C1_5 C 0.9426(2) 0.4029(5) 0.67457(17)
C2_5 C 0.9160(2) 0.4512(5) 0.74212(17)
C3_5 C 0.9397(2) 0.4819(6) 0.63877(19)
C4_7 C 0.9095(2) 0.6042(5) 0.68058(18)
H1_7 H 0.8951 0.6770 0.6921
C5_5 C 0.8816(2) 0.3044(5) 0.78583(18)
H2_5 H 0.8665 0.2207 0.7898
C6_5 C 0.8930(2) 0.3992(6) 0.81835(19)
C7_5 C 0.8567(3) 0.3449(6) 0.93685(17)
C8_7 C 0.9172(3) 0.5192(6) 0.81290(19)
H3_7 H 0.9254 0.5846 0.8349
C10_5 C 0.9633(2) 0.2723(6) 0.6791(2)
H4_5 H 0.9658 0.2193 0.7036
C11_5 C 0.8797(2) 0.3771(6) 0.85915(18)
C14_5 C 0.8745(2) 0.2348(6) 0.91848(18)
H6_5 H 0.8786 0.1493 0.9320
C15_5 C 0.8921(2) 0.3303(6) 0.74743(17)
H7_5 H 0.8831 0.2659 0.7251
C17_5 C 0.9561(2) 0.4326(6) 0.6046(2)
H8_5 H 0.9539 0.4857 0.5801
C18_7 C 0.9298(3) 0.5444(6) 0.77471(19)
H9_7 H 0.9476 0.6248 0.7715
C19_5 C 0.8861(2) 0.2518(6) 0.88014(19)
H10_5 H 0.8987 0.1773 0.8679
C20_5 C 0.8069(2) 0.3828(7) 0.9921(2)
C21_5 C 0.8594(3) 0.4829(6) 0.8777(2)
H11_7 H 0.8533 0.5673 0.8635
C22_5 C 0.9800(3) 0.2256(7) 0.6457(2)
H12_5 H 0.9951 0.1383 0.6479
C24_5 C 0.9757(3) 0.3008(6) 0.6087(2)
H14_5 H 0.9862 0.2617 0.5862
C27_5 C 0.8478(3) 0.4691(7) 0.9161(2)
H17_7 H 0.8342 0.5426 0.9279
C31_5 C 0.7606(3) 0.4539(8) 0.9714(3)
H18_5 H 0.7530 0.4810 0.9426
C38_5 C 0.7267(3) 0.4829(10) 0.9945(3)
H24_7 H 0.6939 0.5261 0.9809
O6_3 O 0.88252(19) 0.9805(5) 0.09266(16)
C16_7 C 0.8609(2) 0.0072(7) 0.1202(2)
H19_7 H 0.8075 0.0217 0.1766
N1_7 N 0.36813(19) 0.7765(5) 0.04759(15)
O3_7 O 0.4855(3) 0.6876(7) 0.0943(3)
O4_7 O 0.4879(2) 0.6387(7) 0.1596(3)
N4_5 N 0.75920(19) 0.4711(5) 0.1877(2)
N6_5 N 0.7887(3) 0.2703(7) 0.2094(2)
N7_5 N 0.7426(3) 0.3959(8) 0.1530(2)
C9_7 C 0.3198(2) 0.8484(6) 0.03528(19)
C12_7 C 0.3838(2) 0.7701(6) 0.01313(18)
H5_7 H 0.4157 0.7275 0.0124
C13_6 C 0.8293(2) 0.9003(6) 0.1365(2)
C23_6 C 0.8266(3) 0.7710(7) 0.1207(3)
H13_6 H 0.8439 0.7461 0.1004
C25_6 C 0.7951(3) 0.6729(7) 0.1373(3)
H15_6 H 0.7910 0.5832 0.1269
C26_7 C 0.2852(3) 0.8824(7) 0.0592(2)
H16_7 H 0.2933 0.8595 0.0885
C28_6 C 0.7719(3) 0.7128(8) 0.1678(3)
C29_6 C 0.5708(3) 0.6344(7) 0.1404(3)
C30_6 C 0.5089(4) 0.6562(8) 0.1307(4)
C32_6 C 0.8048(3) 0.9320(8) 0.1662(3)
C33_7 C 0.2392(3) 0.9500(9) 0.0383(3)
H20_7 H 0.2154 0.9752 0.0536
C34_5 C 0.7880(3) 0.3936(10) 0.2243(3)
H21_5 H 0.8030 0.4241 0.2527
C35_6 C 0.6804(3) 0.6173(8) 0.1693(3)
C36_6 C 0.7418(3) 0.6138(8) 0.1893(3)
H22_6 H 0.7501 0.6400 0.2199
C37_6 C 0.7761(3) 0.8394(10) 0.1822(3)
H23_6 H 0.7597 0.8658 0.2029
C39_5 C 0.7617(4) 0.2830(9) 0.1671(3)
H25_5 H 0.7572 0.2078 0.1486
C40_6 C 0.6510(4) 0.5986(9) 0.1948(3)
H26_6 H 0.6674 0.5796 0.2241
C41_6 C 0.6567(4) 0.6399(11) 0.1252(4)
H27_6 H 0.6775 0.6484 0.1063
C42_6 C 0.5955(4) 0.6500(9) 0.1092(3)
H28_6 H 0.5764 0.6656 0.0801
C43_6 C 0.5971(4) 0.6067(9) 0.1791(3)
H29_6 H 0.5774 0.5905 0.1984
N2_6 N 0.57689(17) 0.0157(4) 0.29861(14)
N5_6 N 0.6511(2) 0.1681(5) 0.02171(14)
C1_6 C 0.5574(2) 0.0971(5) 0.32543(17)
C2_6 C 0.5840(2) 0.0488(5) 0.25788(17)
C3_6 C 0.5603(2) 0.0181(6) 0.36123(19)
C5_6 C 0.6184(2) 0.1956(5) 0.21417(18)
H2_6 H 0.6335 0.2793 0.2102
C6_6 C 0.6070(2) 0.1008(6) 0.18165(19)
C7_6 C 0.6433(3) 0.1551(6) 0.06315(17)
C10_6 C 0.5367(2) 0.2277(6) 0.3209(2)
H4_6 H 0.5342 0.2807 0.2964
C11_6 C 0.6203(2) 0.1229(6) 0.14085(18)
C14_6 C 0.6255(2) 0.2652(6) 0.08152(18)
H6_6 H 0.6214 0.3507 0.0680
C15_6 C 0.6079(2) 0.1697(6) 0.25257(17)
H7_6 H 0.6169 0.2341 0.2749
C17_6 C 0.5439(2) 0.0674(6) 0.3954(2)
H8_6 H 0.5461 0.0143 0.4199
C19_6 C 0.6139(2) 0.2482(6) 0.11986(19)
H10_6 H 0.6013 0.3227 0.1321
C20_6 C 0.6931(2) 0.1172(7) 0.0079(2)
C21_6 C 0.6406(3) 0.0171(6) 0.1223(2)
C22_6 C 0.5200(3) 0.2744(7) 0.3543(2)
H12_6 H 0.5049 0.3617 0.3521
C24_6 C 0.5243(3) 0.1992(6) 0.3913(2)
H14_6 H 0.5138 0.2383 0.4138
C27_6 C 0.6522(3) 0.0309(7) 0.0839(2)
C31_6 C 0.7394(3) 0.0461(8) 0.0286(3)
H18_6 H 0.7470 0.0190 0.0574
C38_6 C 0.7733(3) 0.0171(10) 0.0055(3)
N3_4 N 0.58195(18) 0.8893(4) 0.35640(14)
C4_8 C 0.5905(2) 0.8958(5) 0.31942(18)
H1_8 H 0.6049 0.8230 0.3079
C8_8 C 0.5828(3) 0.9808(6) 0.18710(19)
H3_8 H 0.5746 0.9154 0.1651
C18_8 C 0.5702(3) 0.9556(6) 0.22529(19)
H9_8 H 0.5524 0.8752 0.2285
H11_8 H 0.6467 0.9327 0.1365
H17_8 H 0.6658 0.9574 0.0721
H24_8 H 0.8061 0.9739 0.0191
Co3_4 Co 0.58912(3) 0.71503(8) 0.39227(2)
O6_4 O 0.11748(19) 0.9805(5) 0.40734(16)
O1_4 O 0.63738(19) 0.6219(5) 0.36268(15)
O2_4 O 0.61748(19) 0.4805(5) 0.40734(16)
C13_7 C 0.6707(2) 0.4003(6) 0.3635(2)
C16_8 C 0.6391(2) 0.5072(7) 0.3798(2)
C23_7 C 0.6734(3) 0.2710(7) 0.3793(3)
H13_7 H 0.6561 0.2461 0.3996
C25_7 C 0.7049(3) 0.1729(7) 0.3627(3)
H15_7 H 0.7090 0.0832 0.3731
C28_7 C 0.7281(3) 0.2128(8) 0.3322(3)
C29_7 C 0.9292(3) 0.1344(7) 0.3596(3)
C30_7 C 0.9911(4) 0.1562(8) 0.3693(4)
C32_7 C 0.6952(3) 0.4320(8) 0.3338(3)
H19_8 H 0.6925 0.5217 0.3234
C35_7 C 0.8196(3) 0.1173(8) 0.3307(3)
C36_7 C 0.7582(3) 0.1138(8) 0.3107(3)
H22_7 H 0.7499 0.1400 0.2801
C37_7 C 0.7239(3) 0.3394(10) 0.3178(3)
H23_7 H 0.7403 0.3658 0.2971
C40_7 C 0.8490(4) 0.0986(9) 0.3052(3)
H26_7 H 0.8326 0.0796 0.2759
C41_7 C 0.8433(4) 0.1399(11) 0.3748(4)
H27_7 H 0.8225 0.1484 0.3937
C42_7 C 0.9045(4) 0.1500(9) 0.3908(3)
H28_7 H 0.9236 0.1656 0.4199
C43_7 C 0.9029(4) 0.1067(9) 0.3209(3)
H29_7 H 0.9226 0.0905 0.3016
N1_8 N 0.63187(19) 0.7765(5) 0.45241(15)
O3_8 O 0.5145(3) 0.6876(7) 0.4057(3)
O4_8 O 0.5121(2) 0.6387(7) 0.3404(3)
N2_7 N 0.57689(17) 0.9843(4) 0.79861(14)
N4_6 N 0.24080(19) 0.4711(5) 0.3123(2)
N5_7 N 0.6511(2) 0.8319(5) 0.52171(14)
N6_6 N 0.2113(3) 0.2703(7) 0.2906(2)
N7_6 N 0.2574(3) 0.3959(8) 0.3470(2)
C1_7 C 0.5574(2) 0.9029(5) 0.82543(17)
C2_7 C 0.5840(2) 0.9512(5) 0.75788(17)
C3_7 C 0.5603(2) 0.9819(6) 0.86123(19)
C5_7 C 0.6184(2) 0.8044(5) 0.71417(18)
H2_7 H 0.6335 0.7207 0.7102
C6_7 C 0.6070(2) 0.8992(6) 0.68165(19)
C7_7 C 0.6433(3) 0.8449(6) 0.56315(17)
C9_8 C 0.6802(2) 0.8484(6) 0.46472(19)
C10_7 C 0.5367(2) 0.7723(6) 0.8209(2)
H4_7 H 0.5342 0.7193 0.7964
C11_7 C 0.6203(2) 0.8771(6) 0.64085(18)
C12_8 C 0.6162(2) 0.7701(6) 0.48687(18)
H5_8 H 0.5843 0.7275 0.4876
C13_8 C 0.1707(2) 0.9003(6) 0.3635(2)
C14_7 C 0.6255(2) 0.7348(6) 0.58152(18)
H6_7 H 0.6214 0.6493 0.5680
C15_7 C 0.6079(2) 0.8303(6) 0.75257(17)
H7_7 H 0.6169 0.7659 0.7749
C17_7 C 0.5439(2) 0.9326(6) 0.8954(2)
H8_7 H 0.5461 0.9857 0.9199
C19_7 C 0.6139(2) 0.7518(6) 0.61986(19)
H10_7 H 0.6013 0.6773 0.6321
C20_7 C 0.6931(2) 0.8828(7) 0.5079(2)
C21_7 C 0.6406(3) 0.9829(6) 0.6223(2)
C22_7 C 0.5200(3) 0.7256(7) 0.8543(2)
H12_7 H 0.5049 0.6383 0.8521
C23_8 C 0.1734(3) 0.7710(7) 0.3793(3)
H13_8 H 0.1561 0.7461 0.3996
C24_7 C 0.5243(3) 0.8008(6) 0.8913(2)
H14_7 H 0.5138 0.7617 0.9138
C25_8 C 0.2049(3) 0.6729(7) 0.3627(3)
H15_8 H 0.2090 0.5832 0.3731
C26_8 C 0.7148(3) 0.8824(7) 0.4408(2)
H16_8 H 0.7067 0.8595 0.4115
C27_7 C 0.6522(3) 0.9691(7) 0.5839(2)
C28_8 C 0.2281(3) 0.7128(8) 0.3322(3)
C29_8 C 0.4292(3) 0.6344(7) 0.3596(3)
C30_8 C 0.4911(4) 0.6562(8) 0.3693(4)
C31_7 C 0.7394(3) 0.9539(8) 0.5286(3)
H18_7 H 0.7470 0.9810 0.5574
C32_8 C 0.1952(3) 0.9320(8) 0.3338(3)
C33_8 C 0.7608(3) 0.9500(9) 0.4617(3)
H20_8 H 0.7846 0.9752 0.4464
C34_6 C 0.2120(3) 0.3936(10) 0.2757(3)
H21_6 H 0.1970 0.4241 0.2473
C35_8 C 0.3196(3) 0.6173(8) 0.3307(3)
C36_8 C 0.2582(3) 0.6138(8) 0.3107(3)
H22_8 H 0.2499 0.6400 0.2801
C37_8 C 0.2239(3) 0.8394(10) 0.3178(3)
H23_8 H 0.2403 0.8658 0.2971
C38_7 C 0.7733(3) 0.9829(10) 0.5055(3)
C39_6 C 0.2383(4) 0.2830(9) 0.3329(3)
H25_6 H 0.2428 0.2078 0.3514
C40_8 C 0.3490(4) 0.5986(9) 0.3052(3)
H26_8 H 0.3326 0.5796 0.2759
C41_8 C 0.3433(4) 0.6399(11) 0.3748(4)
H27_8 H 0.3225 0.6484 0.3937
C42_8 C 0.4045(4) 0.6500(9) 0.3908(3)
H28_8 H 0.4236 0.6656 0.4199
C43_8 C 0.4029(4) 0.6067(9) 0.3209(3)
H29_8 H 0.4226 0.5905 0.3016
N4_7 N 0.25920(19) 0.9711(5) 0.1877(2)
N6_7 N 0.2887(3) 0.7703(7) 0.2094(2)
N7_7 N 0.2426(3) 0.8959(8) 0.1530(2)
C34_7 C 0.2880(3) 0.8936(10) 0.2243(3)
H21_7 H 0.3030 0.9241 0.2527
C39_7 C 0.2617(4) 0.7830(9) 0.1671(3)
H25_7 H 0.2572 0.7078 0.1486
N4_8 N 0.74080(19) 0.9711(5) 0.3123(2)
N6_8 N 0.7113(3) 0.7703(7) 0.2906(2)
N7_8 N 0.7574(3) 0.8959(8) 0.3470(2)
C34_8 C 0.7120(3) 0.8936(10) 0.2757(3)
H21_8 H 0.6970 0.9241 0.2473
C39_8 C 0.7383(4) 0.7830(9) 0.3329(3)
H25_8 H 0.7428 0.7078 0.3514
N2_8 N 0.42311(17) 0.9843(4) 0.70139(14)
N5_8 N 0.3489(2) 0.8319(5) 0.97829(14)
C1_8 C 0.4426(2) 0.9029(5) 0.67457(17)
C2_8 C 0.4160(2) 0.9512(5) 0.74212(17)
C3_8 C 0.4397(2) 0.9819(6) 0.63877(19)
C5_8 C 0.3816(2) 0.8044(5) 0.78583(18)
H2_8 H 0.3665 0.7207 0.7898
C6_8 C 0.3930(2) 0.8992(6) 0.81835(19)
C7_8 C 0.3567(3) 0.8449(6) 0.93685(17)
C10_8 C 0.4633(2) 0.7723(6) 0.6791(2)
H4_8 H 0.4658 0.7193 0.7036
C11_8 C 0.3797(2) 0.8771(6) 0.85915(18)
C14_8 C 0.3745(2) 0.7348(6) 0.91848(18)
H6_8 H 0.3786 0.6493 0.9320
C15_8 C 0.3921(2) 0.8303(6) 0.74743(17)
H7_8 H 0.3831 0.7659 0.7251
C17_8 C 0.4561(2) 0.9326(6) 0.6046(2)
H8_8 H 0.4539 0.9857 0.5801
C19_8 C 0.3861(2) 0.7518(6) 0.88014(19)
H10_8 H 0.3987 0.6773 0.8679
C20_8 C 0.3069(2) 0.8828(7) 0.9921(2)
C21_8 C 0.3594(3) 0.9829(6) 0.8777(2)
C22_8 C 0.4800(3) 0.7256(7) 0.6457(2)
H12_8 H 0.4951 0.6383 0.6479
C24_8 C 0.4757(3) 0.8008(6) 0.6087(2)
H14_8 H 0.4862 0.7617 0.5862
C27_8 C 0.3478(3) 0.9691(7) 0.9161(2)
C31_8 C 0.2606(3) 0.9539(8) 0.9714(3)
H18_8 H 0.2530 0.9810 0.9426
C38_8 C 0.2267(3) 0.9829(10) 0.9945(3)
loop_
_geom_bond_atom_site_label_1
_geom_bond_atom_site_label_2
_geom_bond_site_symmetry_1
_geom_bond_site_symmetry_2
N2 C1 1_555 1_555
N3 C3 1_555 1_555
N5 C7 1_555 1_555
C1 C3 1_555 1_555
C2 N2 1_555 1_555
C3 C17 1_555 1_555
C4 N2 1_555 1_555
H1 C4 1_555 1_555
C5 H2 1_555 1_555
C6 C5 1_555 1_555
C7 C14 1_555 1_555
C8 C6 1_555 1_555
H3 C8 1_555 1_555
C10 C1 1_555 1_555
H4 C10 1_555 1_555
C11 C6 1_555 1_555
C14 H6 1_555 1_555
C15 C2 1_555 1_555
H7 C15 1_555 1_555
C17 H8 1_555 1_555
C18 C2 1_555 1_555
H9 C18 1_555 1_555
C19 C11 1_555 1_555
H10 C19 1_555 1_555
C20 N5 1_555 1_555
C21 C11 1_555 1_555
H11 C21 1_555 1_555
C22 C10 1_555 1_555
H12 C22 1_555 1_555
C24 C17 1_555 1_555
H14 C24 1_555 1_555
C27 C7 1_555 1_555
H17 C27 1_555 1_555
C31 C20 1_555 1_555
H18 C31 1_555 1_555
C38 C31 1_555 1_555
H24 C38 1_555 1_555
Co3 N3 1_555 1_555
N3 C4 1_555 1_555
C5 C15 1_555 1_555
C8 C18 1_555 1_555
C14 C19 1_555 1_555
C21 C27 1_555 1_555
C22 C24 1_555 1_555
Co1 N1 1_555 1_555
N1 C9 1_555 1_555
O3 Co1 1_555 1_555
O4 Co1 1_555 1_555
C12 N1 1_555 1_555
H5 C12 1_555 1_555
C26 C9 1_555 1_555
H16 C26 1_555 1_555
C33 C26 1_555 1_555
H20 C33 1_555 1_555
O5 Co1 1_555 1_555
N8 Co1 1_555 1_555
O1 C16 1_555 1_555
O2 C16 1_555 1_555
C13 C16 1_555 1_555
C23 C13 1_555 1_555
H13 C23 1_555 1_555
C25 C23 1_555 1_555
H15 C25 1_555 1_555
C28 C25 1_555 1_555
C29 C30 1_555 1_555
C32 C13 1_555 1_555
H19 C32 1_555 1_555
C35 C36 1_555 1_555
H22 C36 1_555 1_555
C37 C28 1_555 1_555
H23 C37 1_555 1_555
C40 C35 1_555 1_555
H26 C40 1_555 1_555
C41 C35 1_555 1_555
H27 C41 1_555 1_555
C42 C29 1_555 1_555
H28 C42 1_555 1_555
C43 C29 1_555 1_555
H29 C43 1_555 1_555
Co2 O1 1_555 1_555
O2 Co2 1_555 1_555
C28 C36 1_555 1_555
C32 C37 1_555 1_555
C40 C43 1_555 1_555
C41 C42 1_555 1_555
Co2 N1_2 1_555 1_555
N1_2 C9_2 1_555 1_555
O3_2 Co2 1_555 1_555
O4_2 Co2 1_555 1_555
N4 N7 1_555 1_555
N6 C34 1_555 1_555
N7 C39 1_555 1_555
C12_2 N1_2 1_555 1_555
H5_2 C12_2 1_555 1_555
C23_2 C13_2 1_555 1_555
H13_2 C23_2 1_555 1_555
C25_2 C23_2 1_555 1_555
H15_2 C25_2 1_555 1_555
C26_2 C9_2 1_555 1_555
H16_2 C26_2 1_555 1_555
C28_2 C25_2 1_555 1_555
C29_2 C30_2 1_555 1_555
C30_2 O3_2 1_555 1_555
C32_2 C13_2 1_555 1_555
C33_2 C26_2 1_555 1_555
H20_2 C33_2 1_555 1_555
C34 N4 1_555 1_555
H21 C34 1_555 1_555
C35_2 C36_2 1_555 1_555
C36_2 N4 1_555 1_555
H22_2 C36_2 1_555 1_555
C37_2 C28_2 1_555 1_555
H23_2 C37_2 1_555 1_555
C39 N6 1_555 1_555
H25 C39 1_555 1_555
C40_2 C35_2 1_555 1_555
H26_2 C40_2 1_555 1_555
C41_2 C35_2 1_555 1_555
H27_2 C41_2 1_555 1_555
C42_2 C29_2 1_555 1_555
H28_2 C42_2 1_555 1_555
C43_2 C29_2 1_555 1_555
H29_2 C43_2 1_555 1_555
N8_2 Co2 1_555 1_555
O4_2 C30_2 1_555 1_555
C28_2 C36_2 1_555 1_555
C32_2 C37_2 1_555 1_555
C40_2 C43_2 1_555 1_555
C41_2 C42_2 1_555 1_555
O5 C16_2 1_555 1_555
Co3 N1_3 1_555 1_555
N1_3 C9_3 1_555 1_555
O3_3 Co3 1_555 1_555
O4_3 Co3 1_555 1_555
N2_2 C1_2 1_555 1_555
N8 C3_2 1_555 1_555
N5_2 C7_2 1_555 1_555
C1_2 C3_2 1_555 1_555
C2_2 N2_2 1_555 1_555
C3_2 C17_2 1_555 1_555
C4_2 N2_2 1_555 1_555
H1_2 C4_2 1_555 1_555
C5_2 H2_2 1_555 1_555
C6_2 C5_2 1_555 1_555
C7_2 C14_2 1_555 1_555
C8_2 C6_2 1_555 1_555
H3_2 C8_2 1_555 1_555
C9_3 C20_2 1_555 1_555
C10_2 C1_2 1_555 1_555
H4_2 C10_2 1_555 1_555
C11_2 C6_2 1_555 1_555
C12_3 N1_3 1_555 1_555
H5_3 C12_3 1_555 1_555
C14_2 H6_2 1_555 1_555
C15_2 C2_2 1_555 1_555
H7_2 C15_2 1_555 1_555
C17_2 H8_2 1_555 1_555
C18_2 C2_2 1_555 1_555
H9_2 C18_2 1_555 1_555
C19_2 C11_2 1_555 1_555
H10_2 C19_2 1_555 1_555
C20_2 N5_2 1_555 1_555
C21_2 C11_2 1_555 1_555
H11_2 C21_2 1_555 1_555
C22_2 C10_2 1_555 1_555
H12_2 C22_2 1_555 1_555
C24_2 C17_2 1_555 1_555
H14_2 C24_2 1_555 1_555
C26_3 C9_3 1_555 1_555
H16_3 C26_3 1_555 1_555
C27_2 C7_2 1_555 1_555
H17_2 C27_2 1_555 1_555
C31_2 C20_2 1_555 1_555
H18_2 C31_2 1_555 1_555
C33_3 C26_3 1_555 1_555
H20_3 C33_3 1_555 1_555
C38_2 C31_2 1_555 1_555
H24_2 C38_2 1_555 1_555
O5_2 Co3 1_555 1_555
N8 C4_2 1_555 1_555
N5_2 C12_3 1_555 1_555
C5_2 C15_2 1_555 1_555
C8_2 C18_2 1_555 1_555
C14_2 C19_2 1_555 1_555
C21_2 C27_2 1_555 1_555
C22_2 C24_2 1_555 1_555
C33_3 C38_2 1_555 1_555
O5_2 C16_3 1_555 1_555
H1_3 C4_3 1_555 1_555
H3_3 C8_3 1_555 1_555
H9_3 C18_3 1_555 1_555
N8_2 C4_3 1_555 1_555
C8_3 C18_3 1_555 1_555
N4_2 N7_2 1_555 1_555
N6_2 C34_2 1_555 1_555
N7_2 C39_2 1_555 1_555
C34_2 N4_2 1_555 1_555
H21_2 C34_2 1_555 1_555
C39_2 N6_2 1_555 1_555
H25_2 C39_2 1_555 1_555
N4_3 N7_3 1_555 1_555
N6_3 C34_3 1_555 1_555
N7_3 C39_3 1_555 1_555
C34_3 N4_3 1_555 1_555
H21_3 C34_3 1_555 1_555
C39_3 N6_3 1_555 1_555
H25_3 C39_3 1_555 1_555
O1_2 C16_4 1_555 1_555
O2_2 C16_4 1_555 1_555
C13_3 C16_4 1_555 1_555
C23_3 C13_3 1_555 1_555
H13_3 C23_3 1_555 1_555
C25_3 C23_3 1_555 1_555
H15_3 C25_3 1_555 1_555
C28_3 C25_3 1_555 1_555
C29_3 C30_3 1_555 1_555
C32_3 C13_3 1_555 1_555
H19_4 C32_3 1_555 1_555
C35_3 C36_3 1_555 1_555
H22_3 C36_3 1_555 1_555
C37_3 C28_3 1_555 1_555
H23_3 C37_3 1_555 1_555
C40_3 C35_3 1_555 1_555
H26_3 C40_3 1_555 1_555
C41_3 C35_3 1_555 1_555
H27_3 C41_3 1_555 1_555
C42_3 C29_3 1_555 1_555
H28_3 C42_3 1_555 1_555
C43_3 C29_3 1_555 1_555
H29_3 C43_3 1_555 1_555
Co2_2 O1_2 1_555 1_555
O2_2 Co2_2 1_555 1_555
C28_3 C36_3 1_555 1_555
C32_3 C37_3 1_555 1_555
C40_3 C43_3 1_555 1_555
C41_3 C42_3 1_555 1_555
Co2_2 N1_4 1_555 1_555
N1_4 C9_4 1_555 1_555
O3_4 Co2_2 1_555 1_555
O4_4 Co2_2 1_555 1_555
N2_3 C1_3 1_555 1_555
N4_4 N7_4 1_555 1_555
N5_3 C7_3 1_555 1_555
N6_4 C34_4 1_555 1_555
N7_4 C39_4 1_555 1_555
C1_3 C3_3 1_555 1_555
C2_3 N2_3 1_555 1_555
C3_3 C17_3 1_555 1_555
C5_3 H2_3 1_555 1_555
C6_3 C5_3 1_555 1_555
C7_3 C14_3 1_555 1_555
C9_4 C20_3 1_555 1_555
C10_3 C1_3 1_555 1_555
H4_3 C10_3 1_555 1_555
C11_3 C6_3 1_555 1_555
C12_4 N1_4 1_555 1_555
H5_4 C12_4 1_555 1_555
C14_3 H6_3 1_555 1_555
C15_3 C2_3 1_555 1_555
H7_3 C15_3 1_555 1_555
C17_3 H8_3 1_555 1_555
C19_3 C11_3 1_555 1_555
H10_3 C19_3 1_555 1_555
C20_3 N5_3 1_555 1_555
C21_3 C11_3 1_555 1_555
C22_3 C10_3 1_555 1_555
H12_3 C22_3 1_555 1_555
C23_4 C13_4 1_555 1_555
H13_4 C23_4 1_555 1_555
C24_3 C17_3 1_555 1_555
H14_3 C24_3 1_555 1_555
C25_4 C23_4 1_555 1_555
H15_4 C25_4 1_555 1_555
C26_4 C9_4 1_555 1_555
H16_4 C26_4 1_555 1_555
C27_3 C7_3 1_555 1_555
C28_4 C25_4 1_555 1_555
C29_4 C30_4 1_555 1_555
C30_4 O3_4 1_555 1_555
C31_3 C20_3 1_555 1_555
H18_3 C31_3 1_555 1_555
C32_4 C13_4 1_555 1_555
C33_4 C26_4 1_555 1_555
H20_4 C33_4 1_555 1_555
C34_4 N4_4 1_555 1_555
H21_4 C34_4 1_555 1_555
C35_4 C36_4 1_555 1_555
C36_4 N4_4 1_555 1_555
H22_4 C36_4 1_555 1_555
C37_4 C28_4 1_555 1_555
H23_4 C37_4 1_555 1_555
C38_3 C31_3 1_555 1_555
C39_4 N6_4 1_555 1_555
H25_4 C39_4 1_555 1_555
C40_4 C35_4 1_555 1_555
H26_4 C40_4 1_555 1_555
C41_4 C35_4 1_555 1_555
H27_4 C41_4 1_555 1_555
C42_4 C29_4 1_555 1_555
H28_4 C42_4 1_555 1_555
C43_4 C29_4 1_555 1_555
H29_4 C43_4 1_555 1_555
N8_3 Co2_2 1_555 1_555
O4_4 C30_4 1_555 1_555
N5_3 C12_4 1_555 1_555
C5_3 C15_3 1_555 1_555
C14_3 C19_3 1_555 1_555
C21_3 C27_3 1_555 1_555
C22_3 C24_3 1_555 1_555
C28_4 C36_4 1_555 1_555
C32_4 C37_4 1_555 1_555
C33_4 C38_3 1_555 1_555
C40_4 C43_4 1_555 1_555
C41_4 C42_4 1_555 1_555
H1_4 C4_4 1_555 1_555
H3_4 C8_4 1_555 1_555
H9_4 C18_4 1_555 1_555
N8_3 C4_4 1_555 1_555
C8_4 C18_4 1_555 1_555
Co1_2 N1_5 1_555 1_555
N1_5 C9_5 1_555 1_555
O3_5 Co1_2 1_555 1_555
O4_5 Co1_2 1_555 1_555
N2_4 C1_4 1_555 1_555
N3_2 C3_4 1_555 1_555
N5_4 C7_4 1_555 1_555
C1_4 C3_4 1_555 1_555
C2_4 N2_4 1_555 1_555
C3_4 C17_4 1_555 1_555
C4_5 N2_4 1_555 1_555
H1_5 C4_5 1_555 1_555
C5_4 H2_4 1_555 1_555
C6_4 C5_4 1_555 1_555
C7_4 C14_4 1_555 1_555
C8_5 C6_4 1_555 1_555
H3_5 C8_5 1_555 1_555
C9_5 C20_4 1_555 1_555
C10_4 C1_4 1_555 1_555
H4_4 C10_4 1_555 1_555
C11_4 C6_4 1_555 1_555
C12_5 N1_5 1_555 1_555
H5_5 C12_5 1_555 1_555
C14_4 H6_4 1_555 1_555
C15_4 C2_4 1_555 1_555
H7_4 C15_4 1_555 1_555
C17_4 H8_4 1_555 1_555
C18_5 C2_4 1_555 1_555
H9_5 C18_5 1_555 1_555
C19_4 C11_4 1_555 1_555
H10_4 C19_4 1_555 1_555
C20_4 N5_4 1_555 1_555
C21_4 C11_4 1_555 1_555
H11_5 C21_4 1_555 1_555
C22_4 C10_4 1_555 1_555
H12_4 C22_4 1_555 1_555
C24_4 C17_4 1_555 1_555
H14_4 C24_4 1_555 1_555
C26_5 C9_5 1_555 1_555
H16_5 C26_5 1_555 1_555
C27_4 C7_4 1_555 1_555
H17_5 C27_4 1_555 1_555
C31_4 C20_4 1_555 1_555
H18_4 C31_4 1_555 1_555
C33_5 C26_5 1_555 1_555
H20_5 C33_5 1_555 1_555
C38_4 C31_4 1_555 1_555
H24_5 C38_4 1_555 1_555
Co3_2 N3_2 1_555 1_555
O5_3 Co1_2 1_555 1_555
N8_4 Co1_2 1_555 1_555
N3_2 C4_5 1_555 1_555
N5_4 C12_5 1_555 1_555
C5_4 C15_4 1_555 1_555
C8_5 C18_5 1_555 1_555
C14_4 C19_4 1_555 1_555
C21_4 C27_4 1_555 1_555
C22_4 C24_4 1_555 1_555
C33_5 C38_4 1_555 1_555
O5_3 C16_5 1_555 1_555
H1_6 C4_6 1_555 1_555
H3_6 C8_6 1_555 1_555
H9_6 C18_6 1_555 1_555
Co3_3 N3_3 1_555 1_555
N3_3 C4_6 1_555 1_555
C8_6 C18_6 1_555 1_555
O1_3 C16_6 1_555 1_555
O2_3 C16_6 1_555 1_555
C13_5 C16_6 1_555 1_555
C23_5 C13_5 1_555 1_555
H13_5 C23_5 1_555 1_555
C25_5 C23_5 1_555 1_555
H15_5 C25_5 1_555 1_555
C28_5 C25_5 1_555 1_555
C29_5 C30_5 1_555 1_555
C32_5 C13_5 1_555 1_555
H19_6 C32_5 1_555 1_555
C35_5 C36_5 1_555 1_555
H22_5 C36_5 1_555 1_555
C37_5 C28_5 1_555 1_555
H23_5 C37_5 1_555 1_555
C40_5 C35_5 1_555 1_555
H26_5 C40_5 1_555 1_555
C41_5 C35_5 1_555 1_555
H27_5 C41_5 1_555 1_555
C42_5 C29_5 1_555 1_555
H28_5 C42_5 1_555 1_555
C43_5 C29_5 1_555 1_555
H29_5 C43_5 1_555 1_555
Co3_3 O1_3 1_555 1_555
O2_3 Co3_3 1_555 1_555
C28_5 C36_5 1_555 1_555
C32_5 C37_5 1_555 1_555
C40_5 C43_5 1_555 1_555
C41_5 C42_5 1_555 1_555
Co3_2 N1_6 1_555 1_555
N1_6 C9_6 1_555 1_555
O3_6 Co3_2 1_555 1_555
O4_6 Co3_2 1_555 1_555
C12_6 N1_6 1_555 1_555
H5_6 C12_6 1_555 1_555
C26_6 C9_6 1_555 1_555
H16_6 C26_6 1_555 1_555
C33_6 C26_6 1_555 1_555
H20_6 C33_6 1_555 1_555
O5_4 Co3_2 1_555 1_555
N2_5 C1_5 1_555 1_555
N8_4 C3_5 1_555 1_555
N5_5 C7_5 1_555 1_555
C1_5 C3_5 1_555 1_555
C2_5 N2_5 1_555 1_555
C3_5 C17_5 1_555 1_555
C4_7 N2_5 1_555 1_555
H1_7 C4_7 1_555 1_555
C5_5 H2_5 1_555 1_555
C6_5 C5_5 1_555 1_555
C7_5 C14_5 1_555 1_555
C8_7 C6_5 1_555 1_555
H3_7 C8_7 1_555 1_555
C10_5 C1_5 1_555 1_555
H4_5 C10_5 1_555 1_555
C11_5 C6_5 1_555 1_555
C14_5 H6_5 1_555 1_555
C15_5 C2_5 1_555 1_555
H7_5 C15_5 1_555 1_555
C17_5 H8_5 1_555 1_555
C18_7 C2_5 1_555 1_555
H9_7 C18_7 1_555 1_555
C19_5 C11_5 1_555 1_555
H10_5 C19_5 1_555 1_555
C20_5 N5_5 1_555 1_555
C21_5 C11_5 1_555 1_555
H11_7 C21_5 1_555 1_555
C22_5 C10_5 1_555 1_555
H12_5 C22_5 1_555 1_555
C24_5 C17_5 1_555 1_555
H14_5 C24_5 1_555 1_555
C27_5 C7_5 1_555 1_555
H17_7 C27_5 1_555 1_555
C31_5 C20_5 1_555 1_555
H18_5 C31_5 1_555 1_555
C38_5 C31_5 1_555 1_555
H24_7 C38_5 1_555 1_555
N8_4 C4_7 1_555 1_555
C5_5 C15_5 1_555 1_555
C8_7 C18_7 1_555 1_555
C14_5 C19_5 1_555 1_555
C21_5 C27_5 1_555 1_555
C22_5 C24_5 1_555 1_555
O5_4 C16_7 1_555 1_555
Co3_3 N1_7 1_555 1_555
N1_7 C9_7 1_555 1_555
O3_7 Co3_3 1_555 1_555
O4_7 Co3_3 1_555 1_555
N4_5 N7_5 1_555 1_555
N6_5 C34_5 1_555 1_555
N7_5 C39_5 1_555 1_555
C12_7 N1_7 1_555 1_555
H5_7 C12_7 1_555 1_555
C23_6 C13_6 1_555 1_555
H13_6 C23_6 1_555 1_555
C25_6 C23_6 1_555 1_555
H15_6 C25_6 1_555 1_555
C26_7 C9_7 1_555 1_555
H16_7 C26_7 1_555 1_555
C28_6 C25_6 1_555 1_555
C29_6 C30_6 1_555 1_555
C30_6 O3_7 1_555 1_555
C32_6 C13_6 1_555 1_555
C33_7 C26_7 1_555 1_555
H20_7 C33_7 1_555 1_555
C34_5 N4_5 1_555 1_555
H21_5 C34_5 1_555 1_555
C35_6 C36_6 1_555 1_555
C36_6 N4_5 1_555 1_555
H22_6 C36_6 1_555 1_555
C37_6 C28_6 1_555 1_555
H23_6 C37_6 1_555 1_555
C39_5 N6_5 1_555 1_555
H25_5 C39_5 1_555 1_555
C40_6 C35_6 1_555 1_555
H26_6 C40_6 1_555 1_555
C41_6 C35_6 1_555 1_555
H27_6 C41_6 1_555 1_555
C42_6 C29_6 1_555 1_555
H28_6 C42_6 1_555 1_555
C43_6 C29_6 1_555 1_555
H29_6 C43_6 1_555 1_555
O4_7 C30_6 1_555 1_555
C28_6 C36_6 1_555 1_555
C32_6 C37_6 1_555 1_555
C40_6 C43_6 1_555 1_555
C41_6 C42_6 1_555 1_555
N2_6 C1_6 1_555 1_555
N5_6 C7_6 1_555 1_555
C1_6 C3_6 1_555 1_555
C2_6 N2_6 1_555 1_555
C3_6 C17_6 1_555 1_555
C5_6 H2_6 1_555 1_555
C6_6 C5_6 1_555 1_555
C7_6 C14_6 1_555 1_555
C10_6 C1_6 1_555 1_555
H4_6 C10_6 1_555 1_555
C11_6 C6_6 1_555 1_555
C14_6 H6_6 1_555 1_555
C15_6 C2_6 1_555 1_555
H7_6 C15_6 1_555 1_555
C17_6 H8_6 1_555 1_555
C19_6 C11_6 1_555 1_555
H10_6 C19_6 1_555 1_555
C20_6 N5_6 1_555 1_555
C21_6 C11_6 1_555 1_555
C22_6 C10_6 1_555 1_555
H12_6 C22_6 1_555 1_555
C24_6 C17_6 1_555 1_555
H14_6 C24_6 1_555 1_555
C27_6 C7_6 1_555 1_555
C31_6 C20_6 1_555 1_555
H18_6 C31_6 1_555 1_555
C38_6 C31_6 1_555 1_555
C5_6 C15_6 1_555 1_555
C14_6 C19_6 1_555 1_555
C21_6 C27_6 1_555 1_555
C22_6 C24_6 1_555 1_555
H1_8 C4_8 1_555 1_555
H3_8 C8_8 1_555 1_555
H9_8 C18_8 1_555 1_555
Co3_4 N3_4 1_555 1_555
N3_4 C4_8 1_555 1_555
C8_8 C18_8 1_555 1_555
O1_4 C16_8 1_555 1_555
O2_4 C16_8 1_555 1_555
C13_7 C16_8 1_555 1_555
C23_7 C13_7 1_555 1_555
H13_7 C23_7 1_555 1_555
C25_7 C23_7 1_555 1_555
H15_7 C25_7 1_555 1_555
C28_7 C25_7 1_555 1_555
C29_7 C30_7 1_555 1_555
C32_7 C13_7 1_555 1_555
H19_8 C32_7 1_555 1_555
C35_7 C36_7 1_555 1_555
H22_7 C36_7 1_555 1_555
C37_7 C28_7 1_555 1_555
H23_7 C37_7 1_555 1_555
C40_7 C35_7 1_555 1_555
H26_7 C40_7 1_555 1_555
C41_7 C35_7 1_555 1_555
H27_7 C41_7 1_555 1_555
C42_7 C29_7 1_555 1_555
H28_7 C42_7 1_555 1_555
C43_7 C29_7 1_555 1_555
H29_7 C43_7 1_555 1_555
Co3_4 O1_4 1_555 1_555
O2_4 Co3_4 1_555 1_555
C28_7 C36_7 1_555 1_555
C32_7 C37_7 1_555 1_555
C40_7 C43_7 1_555 1_555
C41_7 C42_7 1_555 1_555
Co3_4 N1_8 1_555 1_555
N1_8 C9_8 1_555 1_555
O3_8 Co3_4 1_555 1_555
O4_8 Co3_4 1_555 1_555
N2_7 C1_7 1_555 1_555
N4_6 N7_6 1_555 1_555
N5_7 C7_7 1_555 1_555
N6_6 C34_6 1_555 1_555
N7_6 C39_6 1_555 1_555
C1_7 C3_7 1_555 1_555
C2_7 N2_7 1_555 1_555
C3_7 C17_7 1_555 1_555
C5_7 H2_7 1_555 1_555
C6_7 C5_7 1_555 1_555
C7_7 C14_7 1_555 1_555
C9_8 C20_7 1_555 1_555
C10_7 C1_7 1_555 1_555
H4_7 C10_7 1_555 1_555
C11_7 C6_7 1_555 1_555
C12_8 N1_8 1_555 1_555
H5_8 C12_8 1_555 1_555
C14_7 H6_7 1_555 1_555
C15_7 C2_7 1_555 1_555
H7_7 C15_7 1_555 1_555
C17_7 H8_7 1_555 1_555
C19_7 C11_7 1_555 1_555
H10_7 C19_7 1_555 1_555
C20_7 N5_7 1_555 1_555
C21_7 C11_7 1_555 1_555
C22_7 C10_7 1_555 1_555
H12_7 C22_7 1_555 1_555
C23_8 C13_8 1_555 1_555
H13_8 C23_8 1_555 1_555
C24_7 C17_7 1_555 1_555
H14_7 C24_7 1_555 1_555
C25_8 C23_8 1_555 1_555
H15_8 C25_8 1_555 1_555
C26_8 C9_8 1_555 1_555
H16_8 C26_8 1_555 1_555
C27_7 C7_7 1_555 1_555
C28_8 C25_8 1_555 1_555
C29_8 C30_8 1_555 1_555
C30_8 O3_8 1_555 1_555
C31_7 C20_7 1_555 1_555
H18_7 C31_7 1_555 1_555
C32_8 C13_8 1_555 1_555
C33_8 C26_8 1_555 1_555
H20_8 C33_8 1_555 1_555
C34_6 N4_6 1_555 1_555
H21_6 C34_6 1_555 1_555
C35_8 C36_8 1_555 1_555
C36_8 N4_6 1_555 1_555
H22_8 C36_8 1_555 1_555
C37_8 C28_8 1_555 1_555
H23_8 C37_8 1_555 1_555
C38_7 C31_7 1_555 1_555
C39_6 N6_6 1_555 1_555
H25_6 C39_6 1_555 1_555
C40_8 C35_8 1_555 1_555
H26_8 C40_8 1_555 1_555
C41_8 C35_8 1_555 1_555
H27_8 C41_8 1_555 1_555
C42_8 C29_8 1_555 1_555
H28_8 C42_8 1_555 1_555
C43_8 C29_8 1_555 1_555
H29_8 C43_8 1_555 1_555
O4_8 C30_8 1_555 1_555
N5_7 C12_8 1_555 1_555
C5_7 C15_7 1_555 1_555
C14_7 C19_7 1_555 1_555
C21_7 C27_7 1_555 1_555
C22_7 C24_7 1_555 1_555
C28_8 C36_8 1_555 1_555
C32_8 C37_8 1_555 1_555
C33_8 C38_7 1_555 1_555
C40_8 C43_8 1_555 1_555
C41_8 C42_8 1_555 1_555
N4_7 N7_7 1_555 1_555
N6_7 C34_7 1_555 1_555
N7_7 C39_7 1_555 1_555
C34_7 N4_7 1_555 1_555
H21_7 C34_7 1_555 1_555
C39_7 N6_7 1_555 1_555
H25_7 C39_7 1_555 1_555
N4_8 N7_8 1_555 1_555
N6_8 C34_8 1_555 1_555
N7_8 C39_8 1_555 1_555
C34_8 N4_8 1_555 1_555
H21_8 C34_8 1_555 1_555
C39_8 N6_8 1_555 1_555
H25_8 C39_8 1_555 1_555
N2_8 C1_8 1_555 1_555
N5_8 C7_8 1_555 1_555
C1_8 C3_8 1_555 1_555
C2_8 N2_8 1_555 1_555
C3_8 C17_8 1_555 1_555
C5_8 H2_8 1_555 1_555
C6_8 C5_8 1_555 1_555
C7_8 C14_8 1_555 1_555
C10_8 C1_8 1_555 1_555
H4_8 C10_8 1_555 1_555
C11_8 C6_8 1_555 1_555
C14_8 H6_8 1_555 1_555
C15_8 C2_8 1_555 1_555
H7_8 C15_8 1_555 1_555
C17_8 H8_8 1_555 1_555
C19_8 C11_8 1_555 1_555
H10_8 C19_8 1_555 1_555
C20_8 N5_8 1_555 1_555
C21_8 C11_8 1_555 1_555
C22_8 C10_8 1_555 1_555
H12_8 C22_8 1_555 1_555
C24_8 C17_8 1_555 1_555
H14_8 C24_8 1_555 1_555
C27_8 C7_8 1_555 1_555
C31_8 C20_8 1_555 1_555
H18_8 C31_8 1_555 1_555
C38_8 C31_8 1_555 1_555
C5_8 C15_8 1_555 1_555
C14_8 C19_8 1_555 1_555
C21_8 C27_8 1_555 1_555
C22_8 C24_8 1_555 1_555

#END
