
###############################################################################
#
# This file contains modified crystal structure data generated from the
# MOF subset of the Cambridge Structural Database (CSD) v543 
# hosted by the Cambridge Crystallographic Data Centre (CCDC).
#
# This work is licensed under the Creative Commons
# Attribution-NonCommercial-ShareAlike 4.0 International License.
# To view a copy of this license, visit
# http://creativecommons.org/licenses/by-nc-sa/4.0/
# or send a letter to
# Creative Commons, PO Box 1866, Mountain View, CA 94042, USA.
#
# CIF created using the CSD Python API on 29 September 2022
# The structure has been converted into the P1 space group
# The structure has a 3D framework
# The original CSD entry ZIQDUB is in the monoclinic crystal system
# The framework has been calculated to contain at least 10.0% void space
# The void calculation uses a probe of radius 1.32A, grid spacing 0.4
#
###############################################################################

data_ZIQDUB
_chemical_formula_moiety         '(C280 H216 Co12 N56 O36)n'
_symmetry_cell_setting           triclinic
_symmetry_space_group_name_H-M   'P 1'
_symmetry_Int_Tables_number      1
_space_group_name_Hall           'P 1'
loop_
_symmetry_equiv_pos_site_id
_symmetry_equiv_pos_as_xyz
1 x,y,z
_cell_length_a                   46.732(5)
_cell_length_b                   16.444(2)
_cell_length_c                   9.8150(11)
_cell_angle_alpha                90
_cell_angle_beta                 97.403(3)
_cell_angle_gamma                90
_cell_volume                     7479.57
loop_
_atom_site_label
_atom_site_type_symbol
_atom_site_fract_x
_atom_site_fract_y
_atom_site_fract_z
N13 N 0.43446(6) 0.05684(18) 0.5563(3)
N14 N 0.47042(6) 0.12063(18) 0.6802(3)
C58 C 0.33161(8) 0.0492(2) 0.0344(3)
H43 H 0.3381 0.1037 0.0472
C62 C 0.36658(7) 0.0084(2) 0.2388(3)
C63 C 0.37381(9) 0.0871(2) 0.2798(4)
H46 H 0.3633 0.1311 0.2345
C64 C 0.39586(9) 0.1041(2) 0.3849(4)
H47 H 0.4002 0.1587 0.4114
C65 C 0.41122(7) 0.0412(2) 0.4499(3)
C68 C 0.45065(8) 0.1252(2) 0.5707(4)
H50 H 0.4482 0.1705 0.5104
C69 C 0.46619(8) 0.0461(2) 0.7379(4)
H51 H 0.4771 0.0258 0.8192
C70 C 0.44450(8) 0.0059(2) 0.6633(3)
Co4 Co 0.5000 0.21607(4) 0.7500
H41 H 0.2565 0.0342 0.7302
C57 C 0.31086(8) 0.0314(2) 0.9257(3)
H42 H 0.3029 0.0735 0.8660
O7 O 0.55862(8) 0.30127(18) 0.0121(3)
O9 O 0.69505(5) 0.76381(18) 0.1863(3)
N10 N 0.51802(6) 0.77729(18) 0.0558(3)
C36 C 0.68871(8) 0.7389(2) 0.0649(4)
C37 C 0.65756(8) 0.7268(2) 0.0102(4)
C41 C 0.60735(8) 0.7297(2) 0.0433(4)
H30 H 0.5930 0.7386 0.1021
C42 C 0.63607(8) 0.7399(2) 0.0931(4)
H31 H 0.6413 0.7563 0.1859
C44 C 0.53412(8) 0.7153(2) 0.0261(4)
H33 H 0.5362 0.6659 0.0765
H37 H 0.5834 0.4353 0.0593
H38 H 0.5925 0.5734 0.0371
C59 C 0.34324(7) 0.9901(2) 0.1256(3)
C60 C 0.33190(8) 0.9118(2) 0.1055(4)
H44 H 0.3386 0.8701 0.1687
C66 C 0.40461(8) 0.9620(2) 0.4126(4)
H48 H 0.4151 0.9183 0.4589
C67 C 0.38272(8) 0.9464(2) 0.3076(4)
H49 H 0.3785 0.8916 0.2815
H52 H 0.4375 0.9531 0.6808
Co3 Co 0.7500 0.7500 0.0000
Co6 Co 0.5000 0.78393(4) 0.2500
Co1 Co 0.2500 0.7500 0.5000
O1 O 0.47076(6) 0.30643(17) 0.6859(3)
O2 O 0.44138(8) 0.30127(18) 0.4879(3)
O3 O 0.24856(5) 0.67753(15) 0.6838(2)
H1 H 0.2339 0.6915 0.7273
H2 H 0.2636 0.6877 0.7457
O4 O 0.29338(5) 0.72355(16) 0.5180(2)
O5 O 0.30495(5) 0.76381(18) 0.3137(3)
N1 N 0.45293(6) 0.73166(17) 0.5838(3)
N2 N 0.46018(8) 0.8070(2) 0.6301(3)
N3 N 0.48198(6) 0.77729(18) 0.4442(3)
N4 N 0.23963(6) 0.64532(18) 0.3805(3)
N5 N 0.21794(6) 0.56851(17) 0.2139(3)
C1 C 0.21921(8) 0.6422(2) 0.2760(3)
H3 H 0.2068 0.6863 0.2473
C2 C 0.25193(8) 0.5685(2) 0.3875(4)
H4 H 0.2674 0.5519 0.4543
C3 C 0.23905(8) 0.5210(2) 0.2872(3)
H5 H 0.2435 0.4658 0.2698
C4 C 0.19829(7) 0.5471(2) 0.0960(3)
C5 C 0.18914(8) 0.4686(2) 0.0743(3)
H6 H 0.1971 0.4265 0.1340
C9 C 0.18856(8) 0.6066(2) 0.0022(4)
H9 H 0.1961 0.6602 0.0126
C19 C 0.31129(8) 0.7389(2) 0.4351(4)
C20 C 0.34244(8) 0.7268(2) 0.4898(4)
C21 C 0.35062(8) 0.7040(2) 0.6255(4)
H17 H 0.3363 0.6949 0.6842
C22 C 0.37958(8) 0.6943(2) 0.6762(4)
H18 H 0.3849 0.6792 0.7694
C23 C 0.40076(8) 0.7067(2) 0.5914(4)
C24 C 0.39265(8) 0.7297(2) 0.4567(4)
H19 H 0.4070 0.7386 0.3979
C25 C 0.36393(8) 0.7399(2) 0.4069(4)
H20 H 0.3587 0.7563 0.3141
C26 C 0.43169(7) 0.6838(2) 0.6489(4)
H21 H 0.4345 0.6959 0.7496
C27 C 0.46588(8) 0.7153(2) 0.4739(4)
H22 H 0.4638 0.6659 0.4235
C28 C 0.47783(9) 0.8314(3) 0.5429(4)
H23 H 0.4869 0.8832 0.5495
C29 C 0.43685(7) 0.5934(2) 0.6298(3)
C30 C 0.45749(8) 0.5544(2) 0.7217(4)
H24 H 0.4682 0.5846 0.7933
C31 C 0.46252(8) 0.4723(2) 0.7100(4)
H25 H 0.4766 0.4468 0.7745
C32 C 0.44748(8) 0.4260(2) 0.6063(4)
C33 C 0.42704(8) 0.4652(2) 0.5135(4)
H26 H 0.4166 0.4353 0.4407
C34 C 0.42179(8) 0.5478(2) 0.5265(4)
H27 H 0.4075 0.5734 0.4629
C35 C 0.45363(9) 0.3375(2) 0.5900(4)
O6 O 0.52924(6) 0.30643(17) 0.8141(3)
O8 O 0.70662(5) 0.72355(16) 0.9820(2)
N8 N 0.54707(6) 0.73166(17) 0.9162(3)
N9 N 0.53982(8) 0.8070(2) 0.8699(3)
C38 C 0.64938(8) 0.7040(2) 0.8745(4)
H28 H 0.6637 0.6949 0.8158
C39 C 0.62042(8) 0.6943(2) 0.8238(4)
H29 H 0.6151 0.6792 0.7306
C40 C 0.59924(8) 0.7067(2) 0.9086(4)
C43 C 0.56831(7) 0.6838(2) 0.8511(4)
H32 H 0.5655 0.6959 0.7504
C45 C 0.52217(9) 0.8314(3) 0.9571(4)
H34 H 0.5131 0.8832 0.9505
C46 C 0.56315(7) 0.5934(2) 0.8702(3)
C47 C 0.54251(8) 0.5544(2) 0.7783(4)
H35 H 0.5318 0.5846 0.7067
C48 C 0.53748(8) 0.4723(2) 0.7900(4)
H36 H 0.5234 0.4468 0.7255
C49 C 0.55252(8) 0.4260(2) 0.8937(4)
C50 C 0.57296(8) 0.4652(2) 0.9865(4)
C51 C 0.57821(8) 0.5478(2) 0.9735(4)
C52 C 0.54637(9) 0.3375(2) 0.9100(4)
N11 N 0.26037(6) 0.85468(18) 0.6195(3)
N12 N 0.28206(6) 0.93149(17) 0.7861(3)
C53 C 0.28079(8) 0.8578(2) 0.7240(3)
H39 H 0.2932 0.8137 0.7527
C54 C 0.24807(8) 0.9315(2) 0.6125(4)
H40 H 0.2326 0.9481 0.5457
C55 C 0.26095(8) 0.9790(2) 0.7128(3)
C56 C 0.30171(7) 0.9529(2) 0.9040(3)
C61 C 0.31144(8) 0.8934(2) 0.9978(4)
H45 H 0.3039 0.8398 0.9874
O10 O 0.25144(5) 0.82247(15) 0.3162(2)
H53 H 0.2661 0.8085 0.2727
H54 H 0.2364 0.8123 0.2543
Co3_2 Co 0.7500 0.7500 1.0000
O11 O 0.20662(5) 0.77645(16) 0.4820(2)
N15 N 0.51802(6) 0.22271(18) 0.5558(3)
N16 N 0.48198(6) 0.22271(18) 0.9442(3)
N18 N 0.52958(6) 0.12063(18) 0.8198(3)
N6 N 0.06554(6) 0.44316(18) 0.4437(3)
N7 N 0.02958(6) 0.37937(18) 0.3198(3)
C6 C 0.16839(8) 0.4508(2) 0.9656(3)
H7 H 0.1619 0.3963 0.9528
C7 C 0.15676(7) 0.5099(2) 0.8744(3)
C8 C 0.16810(8) 0.5882(2) 0.8945(4)
H8 H 0.1614 0.6299 0.8313
C10 C 0.13342(7) 0.4916(2) 0.7612(3)
C11 C 0.12619(9) 0.4129(2) 0.7202(4)
H10 H 0.1367 0.3689 0.7655
C12 C 0.10414(9) 0.3959(2) 0.6151(4)
H11 H 0.0998 0.3413 0.5886
C13 C 0.08878(7) 0.4588(2) 0.5501(3)
C14 C 0.09539(8) 0.5380(2) 0.5874(4)
H12 H 0.0849 0.5817 0.5411
C15 C 0.11728(8) 0.5536(2) 0.6924(4)
H13 H 0.1215 0.6084 0.7185
C16 C 0.04935(8) 0.3748(2) 0.4293(4)
H14 H 0.0518 0.3295 0.4896
C17 C 0.03381(8) 0.4539(2) 0.2621(4)
H15 H 0.0229 0.4742 0.1808
C18 C 0.05550(8) 0.4941(2) 0.3367(3)
H16 H 0.0625 0.5469 0.3192
Co7 Co 0.0000 0.28393(4) 0.2500
Co7_2 Co 1.0000 0.28393(4) 0.2500
N13_2 N 0.56554(6) 0.05684(18) 0.9437(3)
C68_2 C 0.54935(8) 0.1252(2) 0.9293(4)
H50_2 H 0.5518 0.1705 0.9896
C69_2 C 0.53381(8) 0.0461(2) 0.7621(4)
H51_2 H 0.5229 0.0258 0.6808
C70_2 C 0.55550(8) 0.0059(2) 0.8367(3)
N6_2 N 0.93446(6) 0.44316(18) 0.0563(3)
N7_2 N 0.97042(6) 0.37937(18) 0.1802(3)
C16_2 C 0.95065(8) 0.3748(2) 0.0707(4)
H14_2 H 0.9482 0.3295 0.0104
C17_2 C 0.96619(8) 0.4539(2) 0.2379(4)
H15_2 H 0.9771 0.4742 0.3192
C18_2 C 0.94450(8) 0.4941(2) 0.1633(3)
H16_2 H 0.9375 0.5469 0.1808
N4_2 N 0.76037(6) 0.64532(18) 0.1195(3)
N5_2 N 0.78206(6) 0.56851(17) 0.2861(3)
C1_2 C 0.78079(8) 0.6422(2) 0.2240(3)
H3_2 H 0.7932 0.6863 0.2527
C2_2 C 0.74807(8) 0.5685(2) 0.1125(4)
H4_2 H 0.7326 0.5519 0.0457
C3_2 C 0.76095(8) 0.5210(2) 0.2128(3)
H5_2 H 0.7565 0.4658 0.2302
C4_2 C 0.80171(7) 0.5471(2) 0.4040(3)
C5_2 C 0.81086(8) 0.4686(2) 0.4257(3)
H6_2 H 0.8029 0.4265 0.3660
C6_2 C 0.83161(8) 0.4508(2) 0.5344(3)
H7_2 H 0.8381 0.3963 0.5472
C7_2 C 0.84324(7) 0.5099(2) 0.6256(3)
C8_2 C 0.83190(8) 0.5882(2) 0.6055(4)
H8_2 H 0.8386 0.6299 0.6687
C9_2 C 0.81144(8) 0.6066(2) 0.4978(4)
H9_2 H 0.8039 0.6602 0.4874
C10_2 C 0.86658(7) 0.4916(2) 0.7388(3)
C11_2 C 0.87381(9) 0.4129(2) 0.7798(4)
H10_2 H 0.8633 0.3689 0.7345
C12_2 C 0.89586(9) 0.3959(2) 0.8849(4)
H11_2 H 0.9002 0.3413 0.9114
C13_2 C 0.91122(7) 0.4588(2) 0.9499(3)
C14_2 C 0.90461(8) 0.5380(2) 0.9126(4)
H12_2 H 0.9151 0.5817 0.9589
C15_2 C 0.88272(8) 0.5536(2) 0.8076(4)
H13_2 H 0.8785 0.6084 0.7815
O10_2 O 0.74856(5) 0.82247(15) 0.1838(2)
H53_2 H 0.7339 0.8085 0.2273
H54_2 H 0.7636 0.8123 0.2457
O11_2 O 0.79338(5) 0.77645(16) 0.0180(2)
O3_2 O 0.75144(5) 0.67753(15) 0.8162(2)
H1_2 H 0.7661 0.6915 0.7727
H2_2 H 0.7364 0.6877 0.7543
N11_2 N 0.73963(6) 0.85468(18) 0.8805(3)
N12_2 N 0.71794(6) 0.93149(17) 0.7139(3)
C53_2 C 0.71921(8) 0.8578(2) 0.7760(3)
H39_2 H 0.7068 0.8137 0.7473
C54_2 C 0.75193(8) 0.9315(2) 0.8875(4)
H40_2 H 0.7674 0.9481 0.9543
C55_2 C 0.73905(8) 0.9790(2) 0.7872(3)
C56_2 C 0.69829(7) 0.9529(2) 0.5960(3)
C59_2 C 0.65676(7) 0.9901(2) 0.3744(3)
C60_2 C 0.66810(8) 0.9118(2) 0.3945(4)
H44_2 H 0.6614 0.8701 0.3313
C61_2 C 0.68856(8) 0.8934(2) 0.5022(4)
H45_2 H 0.6961 0.8398 0.5126
C66_2 C 0.59539(8) 0.9620(2) 0.0874(4)
H48_2 H 0.5849 0.9183 0.0411
C67_2 C 0.61728(8) 0.9464(2) 0.1924(4)
H49_2 H 0.6215 0.8916 0.2185
O9_2 O 0.19505(5) 0.26381(18) 0.1863(3)
N10_2 N 0.01802(6) 0.27729(18) 0.0558(3)
C36_2 C 0.18871(8) 0.2389(2) 0.0649(4)
C37_2 C 0.15756(8) 0.2268(2) 0.0102(4)
C41_2 C 0.10735(8) 0.2297(2) 0.0433(4)
H30_2 H 0.0930 0.2386 0.1021
C42_2 C 0.13607(8) 0.2399(2) 0.0931(4)
H31_2 H 0.1413 0.2563 0.1859
C44_2 C 0.03412(8) 0.2153(2) 0.0261(4)
H33_2 H 0.0362 0.1659 0.0765
H38_2 H 0.0925 0.0734 0.0371
Co3_3 Co 0.2500 0.2500 0.0000
Co4_2 Co 0.0000 0.71607(4) 0.7500
O8_2 O 0.20662(5) 0.22355(16) 0.9820(2)
N8_2 N 0.04707(6) 0.23166(17) 0.9162(3)
N9_2 N 0.03982(8) 0.3070(2) 0.8699(3)
C38_2 C 0.14938(8) 0.2040(2) 0.8745(4)
H28_2 H 0.1637 0.1949 0.8158
C39_2 C 0.12042(8) 0.1943(2) 0.8238(4)
H29_2 H 0.1151 0.1792 0.7306
C40_2 C 0.09924(8) 0.2067(2) 0.9086(4)
C43_2 C 0.06831(7) 0.1838(2) 0.8511(4)
H32_2 H 0.0655 0.1959 0.7504
C45_2 C 0.02217(9) 0.3314(3) 0.9571(4)
H34_2 H 0.0131 0.3832 0.9505
C46_2 C 0.06315(7) 0.0934(2) 0.8702(3)
C47_2 C 0.04251(8) 0.0544(2) 0.7783(4)
H35_2 H 0.0318 0.0846 0.7067
C51_2 C 0.07821(8) 0.0478(2) 0.9735(4)
Co3_4 Co 0.2500 0.2500 1.0000
O6_2 O 0.02924(6) 0.80643(17) 0.8141(3)
C48_2 C 0.03748(8) 0.9723(2) 0.7900(4)
H36_2 H 0.0234 0.9468 0.7255
C49_2 C 0.05252(8) 0.9260(2) 0.8937(4)
C50_2 C 0.07296(8) 0.9652(2) 0.9865(4)
C52_2 C 0.04637(9) 0.8375(2) 0.9100(4)
N15_2 N 0.01802(6) 0.72271(18) 0.5558(3)
N18_2 N 0.02958(6) 0.62063(18) 0.8198(3)
N13_3 N 0.93446(6) 0.55684(18) 0.5563(3)
N14_2 N 0.97042(6) 0.62063(18) 0.6802(3)
C58_2 C 0.83161(8) 0.5492(2) 0.0344(3)
H43_2 H 0.8381 0.6037 0.0472
C59_3 C 0.84324(7) 0.4901(2) 0.1256(3)
C60_3 C 0.83190(8) 0.4118(2) 0.1055(4)
H44_3 H 0.8386 0.3701 0.1687
C62_2 C 0.86658(7) 0.5084(2) 0.2388(3)
C63_2 C 0.87381(9) 0.5871(2) 0.2798(4)
H46_2 H 0.8633 0.6311 0.2345
C64_2 C 0.89586(9) 0.6041(2) 0.3849(4)
H47_2 H 0.9002 0.6587 0.4114
C65_2 C 0.91122(7) 0.5412(2) 0.4499(3)
C66_3 C 0.90461(8) 0.4620(2) 0.4126(4)
H48_3 H 0.9151 0.4183 0.4589
C67_3 C 0.88272(8) 0.4464(2) 0.3076(4)
H49_3 H 0.8785 0.3916 0.2815
C68_3 C 0.95065(8) 0.6252(2) 0.5707(4)
H50_3 H 0.9482 0.6705 0.5104
C69_3 C 0.96619(8) 0.5461(2) 0.7379(4)
H51_3 H 0.9771 0.5258 0.8192
C70_3 C 0.94450(8) 0.5059(2) 0.6633(3)
H52_2 H 0.9375 0.4531 0.6808
Co4_3 Co 1.0000 0.71607(4) 0.7500
Co1_2 Co 0.7500 0.2500 0.5000
O3_3 O 0.74856(5) 0.17753(15) 0.6838(2)
H1_3 H 0.7339 0.1915 0.7273
H2_3 H 0.7636 0.1877 0.7457
O4_2 O 0.79338(5) 0.22355(16) 0.5180(2)
O5_2 O 0.80495(5) 0.26381(18) 0.3137(3)
N1_2 N 0.95293(6) 0.23166(17) 0.5838(3)
N2_2 N 0.96018(8) 0.3070(2) 0.6301(3)
N3_2 N 0.98198(6) 0.27729(18) 0.4442(3)
N4_3 N 0.73963(6) 0.14532(18) 0.3805(3)
N5_3 N 0.71794(6) 0.06851(17) 0.2139(3)
C1_3 C 0.71921(8) 0.1422(2) 0.2760(3)
H3_3 H 0.7068 0.1863 0.2473
C2_3 C 0.75193(8) 0.0685(2) 0.3875(4)
H4_3 H 0.7674 0.0519 0.4543
C3_3 C 0.73905(8) 0.0210(2) 0.2872(3)
C4_3 C 0.69829(7) 0.0471(2) 0.0960(3)
C9_3 C 0.68856(8) 0.1066(2) 0.0022(4)
H9_3 H 0.6961 0.1602 0.0126
C19_2 C 0.81129(8) 0.2389(2) 0.4351(4)
C20_2 C 0.84244(8) 0.2268(2) 0.4898(4)
C21_2 C 0.85062(8) 0.2040(2) 0.6255(4)
H17_2 H 0.8363 0.1949 0.6842
C22_2 C 0.87958(8) 0.1943(2) 0.6762(4)
H18_2 H 0.8849 0.1792 0.7694
C23_2 C 0.90076(8) 0.2067(2) 0.5914(4)
C24_2 C 0.89265(8) 0.2297(2) 0.4567(4)
H19_2 H 0.9070 0.2386 0.3979
C25_2 C 0.86393(8) 0.2399(2) 0.4069(4)
H20_2 H 0.8587 0.2563 0.3141
C26_2 C 0.93169(7) 0.1838(2) 0.6489(4)
H21_2 H 0.9345 0.1959 0.7496
C27_2 C 0.96588(8) 0.2153(2) 0.4739(4)
H22_2 H 0.9638 0.1659 0.4235
C28_2 C 0.97783(9) 0.3314(3) 0.5429(4)
H23_2 H 0.9869 0.3832 0.5495
C29_2 C 0.93685(7) 0.0934(2) 0.6298(3)
C30_2 C 0.95749(8) 0.0544(2) 0.7217(4)
H24_2 H 0.9682 0.0846 0.7933
C34_2 C 0.92179(8) 0.0478(2) 0.5265(4)
H27_2 H 0.9075 0.0734 0.4629
N11_3 N 0.76037(6) 0.35468(18) 0.6195(3)
N12_3 N 0.78206(6) 0.43149(17) 0.7861(3)
C53_3 C 0.78079(8) 0.3578(2) 0.7240(3)
H39_3 H 0.7932 0.3137 0.7527
C54_3 C 0.74807(8) 0.4315(2) 0.6125(4)
H40_3 H 0.7326 0.4481 0.5457
C55_3 C 0.76095(8) 0.4790(2) 0.7128(3)
H41_2 H 0.7565 0.5342 0.7302
C56_3 C 0.80171(7) 0.4529(2) 0.9040(3)
C57_2 C 0.81086(8) 0.5314(2) 0.9257(3)
H42_2 H 0.8029 0.5735 0.8660
C61_3 C 0.81144(8) 0.3934(2) 0.9978(4)
H45_3 H 0.8039 0.3398 0.9874
O10_3 O 0.75144(5) 0.32247(15) 0.3162(2)
H53_3 H 0.7661 0.3085 0.2727
H54_3 H 0.7364 0.3123 0.2543
O11_3 O 0.70662(5) 0.27645(16) 0.4820(2)
C7_3 C 0.65676(7) 0.0099(2) 0.8744(3)
C8_3 C 0.66810(8) 0.0882(2) 0.8945(4)
H8_3 H 0.6614 0.1299 0.8313
C14_3 C 0.59539(8) 0.0380(2) 0.5874(4)
H12_3 H 0.5849 0.0817 0.5411
C15_3 C 0.61728(8) 0.0536(2) 0.6924(4)
H13_3 H 0.6215 0.1084 0.7185
H16_3 H 0.5625 0.0469 0.3192
O1_2 O 0.97076(6) 0.80643(17) 0.6859(3)
O2_2 O 0.94138(8) 0.80127(18) 0.4879(3)
H5_3 H 0.7435 0.9658 0.2698
C5_3 C 0.68914(8) 0.9686(2) 0.0743(3)
H6_3 H 0.6971 0.9265 0.1340
C31_2 C 0.96252(8) 0.9723(2) 0.7100(4)
H25_2 H 0.9766 0.9468 0.7745
C32_2 C 0.94748(8) 0.9260(2) 0.6063(4)
C33_2 C 0.92704(8) 0.9652(2) 0.5135(4)
H26_2 H 0.9166 0.9353 0.4407
C35_2 C 0.95363(9) 0.8375(2) 0.5900(4)
N16_2 N 0.98198(6) 0.72271(18) 0.9442(3)
N6_3 N 0.56554(6) 0.94316(18) 0.4437(3)
N7_3 N 0.52958(6) 0.87937(18) 0.3198(3)
C6_3 C 0.66839(8) 0.9508(2) 0.9656(3)
H7_3 H 0.6619 0.8963 0.9528
C10_3 C 0.63342(7) 0.9916(2) 0.7612(3)
C11_3 C 0.62619(9) 0.9129(2) 0.7202(4)
H10_3 H 0.6367 0.8689 0.7655
C12_3 C 0.60414(9) 0.8959(2) 0.6151(4)
H11_3 H 0.5998 0.8413 0.5886
C13_3 C 0.58878(7) 0.9588(2) 0.5501(3)
C16_3 C 0.54935(8) 0.8748(2) 0.4293(4)
H14_3 H 0.5518 0.8295 0.4896
C17_3 C 0.53381(8) 0.9539(2) 0.2621(4)
H15_3 H 0.5229 0.9742 0.1808
C18_3 C 0.55550(8) 0.9941(2) 0.3367(3)
N4_4 N 0.26037(6) 0.14532(18) 0.1195(3)
N5_4 N 0.28206(6) 0.06851(17) 0.2861(3)
C1_4 C 0.28079(8) 0.1422(2) 0.2240(3)
H3_4 H 0.2932 0.1863 0.2527
C2_4 C 0.24807(8) 0.0685(2) 0.1125(4)
H4_4 H 0.2326 0.0519 0.0457
C3_4 C 0.26095(8) 0.0210(2) 0.2128(3)
C4_4 C 0.30171(7) 0.0471(2) 0.4040(3)
C7_4 C 0.34324(7) 0.0099(2) 0.6256(3)
C8_4 C 0.33190(8) 0.0882(2) 0.6055(4)
H8_4 H 0.3386 0.1299 0.6687
C9_4 C 0.31144(8) 0.1066(2) 0.4978(4)
H9_4 H 0.3039 0.1602 0.4874
C14_4 C 0.40461(8) 0.0380(2) 0.9126(4)
H12_4 H 0.4151 0.0817 0.9589
C15_4 C 0.38272(8) 0.0536(2) 0.8076(4)
H13_4 H 0.3785 0.1084 0.7815
O10_4 O 0.24856(5) 0.32247(15) 0.1838(2)
H53_4 H 0.2339 0.3085 0.2273
H54_4 H 0.2636 0.3123 0.2457
O11_4 O 0.29338(5) 0.27645(16) 0.0180(2)
O3_4 O 0.25144(5) 0.17753(15) 0.8162(2)
H1_4 H 0.2661 0.1915 0.7727
H2_4 H 0.2364 0.1877 0.7543
N11_4 N 0.23963(6) 0.35468(18) 0.8805(3)
N12_4 N 0.21794(6) 0.43149(17) 0.7139(3)
C53_4 C 0.21921(8) 0.3578(2) 0.7760(3)
H39_4 H 0.2068 0.3137 0.7473
C54_4 C 0.25193(8) 0.4315(2) 0.8875(4)
H40_4 H 0.2674 0.4481 0.9543
C55_4 C 0.23905(8) 0.4790(2) 0.7872(3)
H41_3 H 0.2435 0.5342 0.7698
C56_4 C 0.19829(7) 0.4529(2) 0.5960(3)
C57_3 C 0.18914(8) 0.5314(2) 0.5743(3)
H42_3 H 0.1971 0.5735 0.6340
C58_3 C 0.16839(8) 0.5492(2) 0.4656(3)
H43_3 H 0.1619 0.6037 0.4528
C59_4 C 0.15676(7) 0.4901(2) 0.3744(3)
C60_4 C 0.16810(8) 0.4118(2) 0.3945(4)
H44_4 H 0.1614 0.3701 0.3313
C61_4 C 0.18856(8) 0.3934(2) 0.5022(4)
H45_4 H 0.1961 0.3398 0.5126
C62_3 C 0.13342(7) 0.5084(2) 0.2612(3)
C63_3 C 0.12619(9) 0.5871(2) 0.2202(4)
H46_3 H 0.1367 0.6311 0.2655
C64_3 C 0.10414(9) 0.6041(2) 0.1151(4)
H47_3 H 0.0998 0.6587 0.0886
C65_3 C 0.08878(7) 0.5412(2) 0.0501(3)
C66_4 C 0.09539(8) 0.4620(2) 0.0874(4)
H48_4 H 0.0849 0.4183 0.0411
C67_4 C 0.11728(8) 0.4464(2) 0.1924(4)
H49_4 H 0.1215 0.3916 0.2185
N13_4 N 0.06554(6) 0.55684(18) 0.9437(3)
C68_4 C 0.04935(8) 0.6252(2) 0.9293(4)
H50_4 H 0.0518 0.6705 0.9896
C69_4 C 0.03381(8) 0.5461(2) 0.7621(4)
H51_4 H 0.0229 0.5258 0.6808
C70_4 C 0.05550(8) 0.5059(2) 0.8367(3)
H52_3 H 0.0625 0.4531 0.8192
N6_4 N 0.43446(6) 0.94316(18) 0.0563(3)
N7_4 N 0.47042(6) 0.87937(18) 0.1802(3)
C16_4 C 0.45065(8) 0.8748(2) 0.0707(4)
H14_4 H 0.4482 0.8295 0.0104
C17_4 C 0.46619(8) 0.9539(2) 0.2379(4)
H15_4 H 0.4771 0.9742 0.3192
C18_4 C 0.44450(8) 0.9941(2) 0.1633(3)
O1_3 O 0.52924(6) 0.69357(17) 0.3141(3)
O2_3 O 0.55862(8) 0.69873(18) 0.5121(3)
O5_3 O 0.69505(5) 0.23619(18) 0.6863(3)
N1_3 N 0.54707(6) 0.26834(17) 0.4162(3)
N2_3 N 0.53982(8) 0.1930(2) 0.3699(3)
C19_3 C 0.68871(8) 0.2611(2) 0.5649(4)
C20_3 C 0.65756(8) 0.2732(2) 0.5102(4)
C21_3 C 0.64938(8) 0.2960(2) 0.3745(4)
H17_3 H 0.6637 0.3051 0.3158
C22_3 C 0.62042(8) 0.3057(2) 0.3238(4)
H18_3 H 0.6151 0.3208 0.2306
C23_3 C 0.59924(8) 0.2933(2) 0.4086(4)
C24_3 C 0.60735(8) 0.2703(2) 0.5433(4)
H19_3 H 0.5930 0.2614 0.6021
C25_3 C 0.63607(8) 0.2601(2) 0.5931(4)
H20_3 H 0.6413 0.2437 0.6859
C26_3 C 0.56831(7) 0.3162(2) 0.3511(4)
H21_3 H 0.5655 0.3041 0.2504
C27_3 C 0.53412(8) 0.2847(2) 0.5261(4)
H22_3 H 0.5362 0.3341 0.5765
C28_3 C 0.52217(9) 0.1686(3) 0.4571(4)
H23_3 H 0.5131 0.1168 0.4505
C29_3 C 0.56315(7) 0.4066(2) 0.3702(3)
C30_3 C 0.54251(8) 0.4456(2) 0.2783(4)
H24_3 H 0.5318 0.4154 0.2067
C31_3 C 0.53748(8) 0.5277(2) 0.2900(4)
H25_3 H 0.5234 0.5532 0.2255
C32_3 C 0.55252(8) 0.5740(2) 0.3937(4)
C33_3 C 0.57296(8) 0.5348(2) 0.4865(4)
H26_3 H 0.5834 0.5647 0.5593
C34_3 C 0.57821(8) 0.4522(2) 0.4735(4)
H27_3 H 0.5925 0.4266 0.5371
C35_3 C 0.54637(9) 0.6625(2) 0.4100(4)
O6_3 O 0.47076(6) 0.69357(17) 0.1859(3)
N8_3 N 0.45293(6) 0.26834(17) 0.0838(3)
N9_3 N 0.46018(8) 0.1930(2) 0.1301(3)
C38_3 C 0.35062(8) 0.2960(2) 0.1255(4)
H28_3 H 0.3363 0.3051 0.1842
C39_3 C 0.37958(8) 0.3057(2) 0.1762(4)
H29_3 H 0.3849 0.3208 0.2694
C40_3 C 0.40076(8) 0.2933(2) 0.0914(4)
C43_3 C 0.43169(7) 0.3162(2) 0.1489(4)
H32_3 H 0.4345 0.3041 0.2496
C45_3 C 0.47783(9) 0.1686(3) 0.0429(4)
H34_3 H 0.4869 0.1168 0.0495
C46_3 C 0.43685(7) 0.4066(2) 0.1298(3)
C47_3 C 0.45749(8) 0.4456(2) 0.2217(4)
H35_3 H 0.4682 0.4154 0.2933
C48_3 C 0.46252(8) 0.5277(2) 0.2100(4)
H36_3 H 0.4766 0.5532 0.2745
C49_3 C 0.44748(8) 0.5740(2) 0.1063(4)
C50_3 C 0.42704(8) 0.5348(2) 0.0135(4)
C51_3 C 0.42179(8) 0.4522(2) 0.0265(4)
C52_3 C 0.45363(9) 0.6625(2) 0.0900(4)
O7_2 O 0.44138(8) 0.69873(18) 0.9879(3)
O9_3 O 0.30495(5) 0.23619(18) 0.8137(3)
C36_3 C 0.31129(8) 0.2611(2) 0.9351(4)
C37_3 C 0.34244(8) 0.2732(2) 0.9898(4)
C41_3 C 0.39265(8) 0.2703(2) 0.9567(4)
H30_3 H 0.4070 0.2614 0.8979
C42_3 C 0.36393(8) 0.2601(2) 0.9069(4)
H31_3 H 0.3587 0.2437 0.8141
C44_3 C 0.46588(8) 0.2847(2) 0.9739(4)
H33_3 H 0.4638 0.3341 0.9235
H37_2 H 0.4166 0.5647 0.9407
H38_3 H 0.4075 0.4266 0.9629
O1_4 O 0.02924(6) 0.19357(17) 0.3141(3)
O2_4 O 0.05862(8) 0.19873(18) 0.5121(3)
C31_4 C 0.03748(8) 0.0277(2) 0.2900(4)
H25_4 H 0.0234 0.0532 0.2255
C32_4 C 0.05252(8) 0.0740(2) 0.3937(4)
C33_4 C 0.07296(8) 0.0348(2) 0.4865(4)
H26_4 H 0.0834 0.0647 0.5593
C35_4 C 0.04637(9) 0.1625(2) 0.4100(4)
O5_4 O 0.19505(5) 0.73619(18) 0.6863(3)
N1_4 N 0.04707(6) 0.76834(17) 0.4162(3)
N2_4 N 0.03982(8) 0.6930(2) 0.3699(3)
C19_4 C 0.18871(8) 0.7611(2) 0.5649(4)
C20_4 C 0.15756(8) 0.7732(2) 0.5102(4)
C21_4 C 0.14938(8) 0.7960(2) 0.3745(4)
H17_4 H 0.1637 0.8051 0.3158
C22_4 C 0.12042(8) 0.8057(2) 0.3238(4)
H18_4 H 0.1151 0.8208 0.2306
C23_4 C 0.09924(8) 0.7933(2) 0.4086(4)
C24_4 C 0.10735(8) 0.7703(2) 0.5433(4)
H19_4 H 0.0930 0.7614 0.6021
C25_4 C 0.13607(8) 0.7601(2) 0.5931(4)
H20_4 H 0.1413 0.7437 0.6859
C26_4 C 0.06831(7) 0.8162(2) 0.3511(4)
H21_4 H 0.0655 0.8041 0.2504
C27_4 C 0.03412(8) 0.7847(2) 0.5261(4)
H22_4 H 0.0362 0.8341 0.5765
C28_4 C 0.02217(9) 0.6686(3) 0.4571(4)
H23_4 H 0.0131 0.6168 0.4505
C29_4 C 0.06315(7) 0.9066(2) 0.3702(3)
C30_4 C 0.04251(8) 0.9456(2) 0.2783(4)
H24_4 H 0.0318 0.9154 0.2067
C34_4 C 0.07821(8) 0.9522(2) 0.4735(4)
H27_4 H 0.0925 0.9266 0.5371
O6_4 O 0.97076(6) 0.19357(17) 0.1859(3)
C48_4 C 0.96252(8) 0.0277(2) 0.2100(4)
H36_4 H 0.9766 0.0532 0.2745
C49_4 C 0.94748(8) 0.0740(2) 0.1063(4)
C50_4 C 0.92704(8) 0.0348(2) 0.0135(4)
C52_4 C 0.95363(9) 0.1625(2) 0.0900(4)
N8_4 N 0.95293(6) 0.76834(17) 0.0838(3)
N9_4 N 0.96018(8) 0.6930(2) 0.1301(3)
C38_4 C 0.85062(8) 0.7960(2) 0.1255(4)
H28_4 H 0.8363 0.8051 0.1842
C39_4 C 0.87958(8) 0.8057(2) 0.1762(4)
H29_4 H 0.8849 0.8208 0.2694
C40_4 C 0.90076(8) 0.7933(2) 0.0914(4)
C43_4 C 0.93169(7) 0.8162(2) 0.1489(4)
H32_4 H 0.9345 0.8041 0.2496
C45_4 C 0.97783(9) 0.6686(3) 0.0429(4)
H34_4 H 0.9869 0.6168 0.0495
C46_4 C 0.93685(7) 0.9066(2) 0.1298(3)
C47_4 C 0.95749(8) 0.9456(2) 0.2217(4)
H35_4 H 0.9682 0.9154 0.2933
C51_4 C 0.92179(8) 0.9522(2) 0.0265(4)
O9_4 O 0.80495(5) 0.73619(18) 0.8137(3)
C36_4 C 0.81129(8) 0.7611(2) 0.9351(4)
C37_4 C 0.84244(8) 0.7732(2) 0.9898(4)
C41_4 C 0.89265(8) 0.7703(2) 0.9567(4)
H30_4 H 0.9070 0.7614 0.8979
C42_4 C 0.86393(8) 0.7601(2) 0.9069(4)
H31_4 H 0.8587 0.7437 0.8141
C44_4 C 0.96588(8) 0.7847(2) 0.9739(4)
H33_4 H 0.9638 0.8341 0.9235
H38_4 H 0.9075 0.9266 0.9629
H41_4 H 0.7435 0.0342 0.7698
C57_4 C 0.68914(8) 0.0314(2) 0.5743(3)
H42_4 H 0.6971 0.0735 0.6340
C58_4 C 0.66839(8) 0.0492(2) 0.4656(3)
H43_4 H 0.6619 0.1037 0.4528
C62_4 C 0.63342(7) 0.0084(2) 0.2612(3)
C63_4 C 0.62619(9) 0.0871(2) 0.2202(4)
H46_4 H 0.6367 0.1311 0.2655
C64_4 C 0.60414(9) 0.1041(2) 0.1151(4)
H47_4 H 0.5998 0.1587 0.0886
C65_4 C 0.58878(7) 0.0412(2) 0.0501(3)
O7_3 O 0.94138(8) 0.19873(18) 0.9879(3)
H37_3 H 0.9166 0.0647 0.9407
H52_4 H 0.5625 0.9531 0.8192
O7_4 O 0.05862(8) 0.80127(18) 0.0121(3)
H37_4 H 0.0834 0.9353 0.0593
H5_4 H 0.2565 0.9658 0.2302
C5_4 C 0.31086(8) 0.9686(2) 0.4257(3)
H6_4 H 0.3029 0.9265 0.3660
C6_4 C 0.33161(8) 0.9508(2) 0.5344(3)
H7_4 H 0.3381 0.8963 0.5472
C10_4 C 0.36658(7) 0.9916(2) 0.7388(3)
C11_4 C 0.37381(9) 0.9129(2) 0.7798(4)
H10_4 H 0.3633 0.8689 0.7345
C12_4 C 0.39586(9) 0.8959(2) 0.8849(4)
H11_4 H 0.4002 0.8413 0.9114
C13_4 C 0.41122(7) 0.9588(2) 0.9499(3)
H16_4 H 0.4375 0.0469 0.1808
loop_
_geom_bond_atom_site_label_1
_geom_bond_atom_site_label_2
_geom_bond_site_symmetry_1
_geom_bond_site_symmetry_2
N13 C65 1_555 1_555
N14 C68 1_555 1_555
H43 C58 1_555 1_555
C63 C62 1_555 1_555
H46 C63 1_555 1_555
C64 C63 1_555 1_555
H47 C64 1_555 1_555
C65 C64 1_555 1_555
C68 N13 1_555 1_555
H50 C68 1_555 1_555
C69 N14 1_555 1_555
H51 C69 1_555 1_555
C70 N13 1_555 1_555
Co4 N14 1_555 1_555
C69 C70 1_555 1_555
H42 C57 1_555 1_555
O9 C36 1_555 1_555
N10 C44 1_555 1_555
C36 C37 1_555 1_555
H30 C41 1_555 1_555
C42 C37 1_555 1_555
H31 C42 1_555 1_555
H33 C44 1_555 1_555
C60 C59 1_555 1_555
H44 C60 1_555 1_555
H48 C66 1_555 1_555
H49 C67 1_555 1_555
Co6 N10 1_555 1_555
C41 C42 1_555 1_555
C66 C67 1_555 1_555
Co1 O3 1_555 1_555
Co4 O1 1_555 1_555
O1 C35 1_555 1_555
O2 C35 1_555 1_555
O3 H1 1_555 1_555
H2 O3 1_555 1_555
O4 Co1 1_555 1_555
O5 C19 1_555 1_555
N1 N2 1_555 1_555
N2 C28 1_555 1_555
N3 C27 1_555 1_555
N4 Co1 1_555 1_555
N5 C1 1_555 1_555
C1 N4 1_555 1_555
H3 C1 1_555 1_555
C2 N4 1_555 1_555
H4 C2 1_555 1_555
C3 N5 1_555 1_555
H5 C3 1_555 1_555
C4 N5 1_555 1_555
C5 C4 1_555 1_555
H6 C5 1_555 1_555
C9 C4 1_555 1_555
H9 C9 1_555 1_555
C19 O4 1_555 1_555
C20 C19 1_555 1_555
C21 C20 1_555 1_555
H17 C21 1_555 1_555
C22 C21 1_555 1_555
H18 C22 1_555 1_555
C23 C22 1_555 1_555
C24 C23 1_555 1_555
H19 C24 1_555 1_555
C25 C20 1_555 1_555
H20 C25 1_555 1_555
C26 N1 1_555 1_555
H21 C26 1_555 1_555
C27 N1 1_555 1_555
H22 C27 1_555 1_555
C28 N3 1_555 1_555
H23 C28 1_555 1_555
C29 C26 1_555 1_555
C30 C29 1_555 1_555
H24 C30 1_555 1_555
C31 C30 1_555 1_555
H25 C31 1_555 1_555
C32 C31 1_555 1_555
C33 C32 1_555 1_555
H26 C33 1_555 1_555
C34 C29 1_555 1_555
H27 C34 1_555 1_555
C35 C32 1_555 1_555
O6 Co4 1_555 1_555
N8 N9 1_555 1_555
N9 C45 1_555 1_555
C38 H28 1_555 1_555
C39 C38 1_555 1_555
H29 C39 1_555 1_555
C40 C39 1_555 1_555
C43 N8 1_555 1_555
H32 C43 1_555 1_555
H34 C45 1_555 1_555
C46 C43 1_555 1_555
C47 C46 1_555 1_555
H35 C47 1_555 1_555
C48 C47 1_555 1_555
H36 C48 1_555 1_555
C49 C48 1_555 1_555
C50 C49 1_555 1_555
C51 C46 1_555 1_555
C52 O6 1_555 1_555
N11 Co1 1_555 1_555
N12 C53 1_555 1_555
C53 N11 1_555 1_555
H39 C53 1_555 1_555
C54 N11 1_555 1_555
H40 C54 1_555 1_555
C55 N12 1_555 1_555
C56 N12 1_555 1_555
C61 C56 1_555 1_555
H45 C61 1_555 1_555
O10 Co1 1_555 1_555
H53 O10 1_555 1_555
H54 O10 1_555 1_555
Co3_2 O8 1_555 1_555
Co6 N3 1_555 1_555
O11 Co1 1_555 1_555
N15 Co4 1_555 1_555
N16 Co4 1_555 1_555
N18 Co4 1_555 1_555
C2 C3 1_555 1_555
C23 C26 1_555 1_555
C24 C25 1_555 1_555
C33 C34 1_555 1_555
C40 C43 1_555 1_555
C49 C52 1_555 1_555
C50 C51 1_555 1_555
C54 C55 1_555 1_555
N6 C13 1_555 1_555
N7 C16 1_555 1_555
H7 C6 1_555 1_555
C7 C6 1_555 1_555
C8 C7 1_555 1_555
H8 C8 1_555 1_555
C10 C7 1_555 1_555
C11 C10 1_555 1_555
H10 C11 1_555 1_555
C12 C11 1_555 1_555
H11 C12 1_555 1_555
C13 C12 1_555 1_555
C14 C13 1_555 1_555
H12 C14 1_555 1_555
C15 C10 1_555 1_555
H13 C15 1_555 1_555
C16 N6 1_555 1_555
H14 C16 1_555 1_555
C17 N7 1_555 1_555
H15 C17 1_555 1_555
C18 N6 1_555 1_555
H16 C18 1_555 1_555
Co7 N7 1_555 1_555
C14 C15 1_555 1_555
C17 C18 1_555 1_555
N18 C68_2 1_555 1_555
C68_2 N13_2 1_555 1_555
H50_2 C68_2 1_555 1_555
C69_2 N18 1_555 1_555
H51_2 C69_2 1_555 1_555
C70_2 N13_2 1_555 1_555
C69_2 C70_2 1_555 1_555
N7_2 C16_2 1_555 1_555
C16_2 N6_2 1_555 1_555
H14_2 C16_2 1_555 1_555
C17_2 N7_2 1_555 1_555
H15_2 C17_2 1_555 1_555
C18_2 N6_2 1_555 1_555
H16_2 C18_2 1_555 1_555
Co7_2 N7_2 1_555 1_555
C17_2 C18_2 1_555 1_555
N4_2 Co3 1_555 1_555
N5_2 C1_2 1_555 1_555
C1_2 N4_2 1_555 1_555
H3_2 C1_2 1_555 1_555
C2_2 N4_2 1_555 1_555
H4_2 C2_2 1_555 1_555
C3_2 N5_2 1_555 1_555
H5_2 C3_2 1_555 1_555
C4_2 N5_2 1_555 1_555
C5_2 C4_2 1_555 1_555
H6_2 C5_2 1_555 1_555
C6_2 C5_2 1_555 1_555
H7_2 C6_2 1_555 1_555
C7_2 C6_2 1_555 1_555
C8_2 C7_2 1_555 1_555
H8_2 C8_2 1_555 1_555
C9_2 C4_2 1_555 1_555
H9_2 C9_2 1_555 1_555
C10_2 C7_2 1_555 1_555
C11_2 C10_2 1_555 1_555
H10_2 C11_2 1_555 1_555
C12_2 C11_2 1_555 1_555
H11_2 C12_2 1_555 1_555
C13_2 C12_2 1_555 1_555
C14_2 C13_2 1_555 1_555
H12_2 C14_2 1_555 1_555
C15_2 C10_2 1_555 1_555
H13_2 C15_2 1_555 1_555
O10_2 Co3 1_555 1_555
H53_2 O10_2 1_555 1_555
H54_2 O10_2 1_555 1_555
O11_2 Co3 1_555 1_555
C2_2 C3_2 1_555 1_555
C8_2 C9_2 1_555 1_555
C14_2 C15_2 1_555 1_555
Co3_2 O3_2 1_555 1_555
O3_2 H1_2 1_555 1_555
H2_2 O3_2 1_555 1_555
N11_2 Co3_2 1_555 1_555
N12_2 C53_2 1_555 1_555
C53_2 N11_2 1_555 1_555
H39_2 C53_2 1_555 1_555
C54_2 N11_2 1_555 1_555
H40_2 C54_2 1_555 1_555
C55_2 N12_2 1_555 1_555
C56_2 N12_2 1_555 1_555
C60_2 C59_2 1_555 1_555
H44_2 C60_2 1_555 1_555
C61_2 C56_2 1_555 1_555
H45_2 C61_2 1_555 1_555
H48_2 C66_2 1_555 1_555
H49_2 C67_2 1_555 1_555
C54_2 C55_2 1_555 1_555
C60_2 C61_2 1_555 1_555
C66_2 C67_2 1_555 1_555
O9_2 C36_2 1_555 1_555
N10_2 C44_2 1_555 1_555
C36_2 C37_2 1_555 1_555
H30_2 C41_2 1_555 1_555
C42_2 C37_2 1_555 1_555
H31_2 C42_2 1_555 1_555
H33_2 C44_2 1_555 1_555
Co7 N10_2 1_555 1_555
C41_2 C42_2 1_555 1_555
N8_2 N9_2 1_555 1_555
N9_2 C45_2 1_555 1_555
C38_2 H28_2 1_555 1_555
C39_2 C38_2 1_555 1_555
H29_2 C39_2 1_555 1_555
C40_2 C39_2 1_555 1_555
C43_2 N8_2 1_555 1_555
H32_2 C43_2 1_555 1_555
H34_2 C45_2 1_555 1_555
C46_2 C43_2 1_555 1_555
C47_2 C46_2 1_555 1_555
H35_2 C47_2 1_555 1_555
C51_2 C46_2 1_555 1_555
Co3_4 O8_2 1_555 1_555
C40_2 C43_2 1_555 1_555
O6_2 Co4_2 1_555 1_555
H36_2 C48_2 1_555 1_555
C49_2 C48_2 1_555 1_555
C50_2 C49_2 1_555 1_555
C52_2 O6_2 1_555 1_555
N15_2 Co4_2 1_555 1_555
N18_2 Co4_2 1_555 1_555
C49_2 C52_2 1_555 1_555
N13_3 C65_2 1_555 1_555
N14_2 C68_3 1_555 1_555
H43_2 C58_2 1_555 1_555
C59_3 C58_2 1_555 1_555
C60_3 C59_3 1_555 1_555
H44_3 C60_3 1_555 1_555
C62_2 C59_3 1_555 1_555
C63_2 C62_2 1_555 1_555
H46_2 C63_2 1_555 1_555
C64_2 C63_2 1_555 1_555
H47_2 C64_2 1_555 1_555
C65_2 C64_2 1_555 1_555
C66_3 C65_2 1_555 1_555
H48_3 C66_3 1_555 1_555
C67_3 C62_2 1_555 1_555
H49_3 C67_3 1_555 1_555
C68_3 N13_3 1_555 1_555
H50_3 C68_3 1_555 1_555
C69_3 N14_2 1_555 1_555
H51_3 C69_3 1_555 1_555
C70_3 N13_3 1_555 1_555
H52_2 C70_3 1_555 1_555
Co4_3 N14_2 1_555 1_555
C66_3 C67_3 1_555 1_555
C69_3 C70_3 1_555 1_555
Co1_2 O3_3 1_555 1_555
O3_3 H1_3 1_555 1_555
H2_3 O3_3 1_555 1_555
O4_2 Co1_2 1_555 1_555
O5_2 C19_2 1_555 1_555
N1_2 N2_2 1_555 1_555
N2_2 C28_2 1_555 1_555
N3_2 C27_2 1_555 1_555
N4_3 Co1_2 1_555 1_555
N5_3 C1_3 1_555 1_555
C1_3 N4_3 1_555 1_555
H3_3 C1_3 1_555 1_555
C2_3 N4_3 1_555 1_555
H4_3 C2_3 1_555 1_555
C3_3 N5_3 1_555 1_555
C4_3 N5_3 1_555 1_555
C9_3 C4_3 1_555 1_555
H9_3 C9_3 1_555 1_555
C19_2 O4_2 1_555 1_555
C20_2 C19_2 1_555 1_555
C21_2 C20_2 1_555 1_555
H17_2 C21_2 1_555 1_555
C22_2 C21_2 1_555 1_555
H18_2 C22_2 1_555 1_555
C23_2 C22_2 1_555 1_555
C24_2 C23_2 1_555 1_555
H19_2 C24_2 1_555 1_555
C25_2 C20_2 1_555 1_555
H20_2 C25_2 1_555 1_555
C26_2 N1_2 1_555 1_555
H21_2 C26_2 1_555 1_555
C27_2 N1_2 1_555 1_555
H22_2 C27_2 1_555 1_555
C28_2 N3_2 1_555 1_555
H23_2 C28_2 1_555 1_555
C29_2 C26_2 1_555 1_555
C30_2 C29_2 1_555 1_555
H24_2 C30_2 1_555 1_555
C34_2 C29_2 1_555 1_555
H27_2 C34_2 1_555 1_555
N11_3 Co1_2 1_555 1_555
N12_3 C53_3 1_555 1_555
C53_3 N11_3 1_555 1_555
H39_3 C53_3 1_555 1_555
C54_3 N11_3 1_555 1_555
H40_3 C54_3 1_555 1_555
C55_3 N12_3 1_555 1_555
H41_2 C55_3 1_555 1_555
C56_3 N12_3 1_555 1_555
C57_2 C56_3 1_555 1_555
H42_2 C57_2 1_555 1_555
C61_3 C56_3 1_555 1_555
H45_3 C61_3 1_555 1_555
O10_3 Co1_2 1_555 1_555
H53_3 O10_3 1_555 1_555
H54_3 O10_3 1_555 1_555
Co7_2 N3_2 1_555 1_555
O11_3 Co1_2 1_555 1_555
C2_3 C3_3 1_555 1_555
C23_2 C26_2 1_555 1_555
C24_2 C25_2 1_555 1_555
C54_3 C55_3 1_555 1_555
C8_3 C7_3 1_555 1_555
H8_3 C8_3 1_555 1_555
H12_3 C14_3 1_555 1_555
H13_3 C15_3 1_555 1_555
C14_3 C15_3 1_555 1_555
Co4_3 O1_2 1_555 1_555
O1_2 C35_2 1_555 1_555
O2_2 C35_2 1_555 1_555
H6_3 C5_3 1_555 1_555
H25_2 C31_2 1_555 1_555
C32_2 C31_2 1_555 1_555
C33_2 C32_2 1_555 1_555
H26_2 C33_2 1_555 1_555
C35_2 C32_2 1_555 1_555
N16_2 Co4_3 1_555 1_555
N6_3 C13_3 1_555 1_555
N7_3 C16_3 1_555 1_555
H7_3 C6_3 1_555 1_555
C11_3 C10_3 1_555 1_555
H10_3 C11_3 1_555 1_555
C12_3 C11_3 1_555 1_555
H11_3 C12_3 1_555 1_555
C13_3 C12_3 1_555 1_555
C16_3 N6_3 1_555 1_555
H14_3 C16_3 1_555 1_555
C17_3 N7_3 1_555 1_555
H15_3 C17_3 1_555 1_555
C18_3 N6_3 1_555 1_555
Co6 N7_3 1_555 1_555
C17_3 C18_3 1_555 1_555
N4_4 Co3_3 1_555 1_555
N5_4 C1_4 1_555 1_555
C1_4 N4_4 1_555 1_555
H3_4 C1_4 1_555 1_555
C2_4 N4_4 1_555 1_555
H4_4 C2_4 1_555 1_555
C3_4 N5_4 1_555 1_555
C4_4 N5_4 1_555 1_555
C8_4 C7_4 1_555 1_555
H8_4 C8_4 1_555 1_555
C9_4 C4_4 1_555 1_555
H9_4 C9_4 1_555 1_555
H12_4 C14_4 1_555 1_555
H13_4 C15_4 1_555 1_555
O10_4 Co3_3 1_555 1_555
H53_4 O10_4 1_555 1_555
H54_4 O10_4 1_555 1_555
O11_4 Co3_3 1_555 1_555
C2_4 C3_4 1_555 1_555
C8_4 C9_4 1_555 1_555
C14_4 C15_4 1_555 1_555
Co3_4 O3_4 1_555 1_555
O3_4 H1_4 1_555 1_555
H2_4 O3_4 1_555 1_555
N11_4 Co3_4 1_555 1_555
N12_4 C53_4 1_555 1_555
C53_4 N11_4 1_555 1_555
H39_4 C53_4 1_555 1_555
C54_4 N11_4 1_555 1_555
H40_4 C54_4 1_555 1_555
C55_4 N12_4 1_555 1_555
H41_3 C55_4 1_555 1_555
C56_4 N12_4 1_555 1_555
C57_3 C56_4 1_555 1_555
H42_3 C57_3 1_555 1_555
C58_3 C57_3 1_555 1_555
H43_3 C58_3 1_555 1_555
C59_4 C58_3 1_555 1_555
C60_4 C59_4 1_555 1_555
H44_4 C60_4 1_555 1_555
C61_4 C56_4 1_555 1_555
H45_4 C61_4 1_555 1_555
C62_3 C59_4 1_555 1_555
C63_3 C62_3 1_555 1_555
H46_3 C63_3 1_555 1_555
C64_3 C63_3 1_555 1_555
H47_3 C64_3 1_555 1_555
C65_3 C64_3 1_555 1_555
C66_4 C65_3 1_555 1_555
H48_4 C66_4 1_555 1_555
C67_4 C62_3 1_555 1_555
H49_4 C67_4 1_555 1_555
C54_4 C55_4 1_555 1_555
C60_4 C61_4 1_555 1_555
C66_4 C67_4 1_555 1_555
N18_2 C68_4 1_555 1_555
C68_4 N13_4 1_555 1_555
H50_4 C68_4 1_555 1_555
C69_4 N18_2 1_555 1_555
H51_4 C69_4 1_555 1_555
C70_4 N13_4 1_555 1_555
H52_3 C70_4 1_555 1_555
C69_4 C70_4 1_555 1_555
N7_4 C16_4 1_555 1_555
C16_4 N6_4 1_555 1_555
H14_4 C16_4 1_555 1_555
C17_4 N7_4 1_555 1_555
H15_4 C17_4 1_555 1_555
C18_4 N6_4 1_555 1_555
Co6 N7_4 1_555 1_555
C17_4 C18_4 1_555 1_555
Co6 O1_3 1_555 1_555
O1_3 C35_3 1_555 1_555
O2_3 C35_3 1_555 1_555
O5_3 C19_3 1_555 1_555
N1_3 N2_3 1_555 1_555
N2_3 C28_3 1_555 1_555
N15 C27_3 1_555 1_555
C19_3 O11_3 1_555 1_555
C20_3 C19_3 1_555 1_555
C21_3 C20_3 1_555 1_555
H17_3 C21_3 1_555 1_555
C22_3 C21_3 1_555 1_555
H18_3 C22_3 1_555 1_555
C23_3 C22_3 1_555 1_555
C24_3 C23_3 1_555 1_555
H19_3 C24_3 1_555 1_555
C25_3 C20_3 1_555 1_555
H20_3 C25_3 1_555 1_555
C26_3 N1_3 1_555 1_555
H21_3 C26_3 1_555 1_555
C27_3 N1_3 1_555 1_555
H22_3 C27_3 1_555 1_555
C28_3 N15 1_555 1_555
H23_3 C28_3 1_555 1_555
C29_3 C26_3 1_555 1_555
C30_3 C29_3 1_555 1_555
H24_3 C30_3 1_555 1_555
C31_3 C30_3 1_555 1_555
H25_3 C31_3 1_555 1_555
C32_3 C31_3 1_555 1_555
C33_3 C32_3 1_555 1_555
H26_3 C33_3 1_555 1_555
C34_3 C29_3 1_555 1_555
H27_3 C34_3 1_555 1_555
C35_3 C32_3 1_555 1_555
O6_3 Co6 1_555 1_555
N8_3 N9_3 1_555 1_555
N9_3 C45_3 1_555 1_555
C38_3 H28_3 1_555 1_555
C39_3 C38_3 1_555 1_555
H29_3 C39_3 1_555 1_555
C40_3 C39_3 1_555 1_555
C43_3 N8_3 1_555 1_555
H32_3 C43_3 1_555 1_555
H34_3 C45_3 1_555 1_555
C46_3 C43_3 1_555 1_555
C47_3 C46_3 1_555 1_555
H35_3 C47_3 1_555 1_555
C48_3 C47_3 1_555 1_555
H36_3 C48_3 1_555 1_555
C49_3 C48_3 1_555 1_555
C50_3 C49_3 1_555 1_555
C51_3 C46_3 1_555 1_555
C52_3 O6_3 1_555 1_555
C23_3 C26_3 1_555 1_555
C24_3 C25_3 1_555 1_555
C33_3 C34_3 1_555 1_555
C40_3 C43_3 1_555 1_555
C49_3 C52_3 1_555 1_555
C50_3 C51_3 1_555 1_555
O9_3 C36_3 1_555 1_555
N16 C44_3 1_555 1_555
C36_3 C37_3 1_555 1_555
H30_3 C41_3 1_555 1_555
C42_3 C37_3 1_555 1_555
H31_3 C42_3 1_555 1_555
H33_3 C44_3 1_555 1_555
C41_3 C42_3 1_555 1_555
Co7 O1_4 1_555 1_555
O1_4 C35_4 1_555 1_555
O2_4 C35_4 1_555 1_555
H25_4 C31_4 1_555 1_555
C32_4 C31_4 1_555 1_555
C33_4 C32_4 1_555 1_555
H26_4 C33_4 1_555 1_555
C35_4 C32_4 1_555 1_555
O5_4 C19_4 1_555 1_555
N1_4 N2_4 1_555 1_555
N2_4 C28_4 1_555 1_555
N15_2 C27_4 1_555 1_555
C19_4 O11 1_555 1_555
C20_4 C19_4 1_555 1_555
C21_4 C20_4 1_555 1_555
H17_4 C21_4 1_555 1_555
C22_4 C21_4 1_555 1_555
H18_4 C22_4 1_555 1_555
C23_4 C22_4 1_555 1_555
C24_4 C23_4 1_555 1_555
H19_4 C24_4 1_555 1_555
C25_4 C20_4 1_555 1_555
H20_4 C25_4 1_555 1_555
C26_4 N1_4 1_555 1_555
H21_4 C26_4 1_555 1_555
C27_4 N1_4 1_555 1_555
H22_4 C27_4 1_555 1_555
C28_4 N15_2 1_555 1_555
H23_4 C28_4 1_555 1_555
C29_4 C26_4 1_555 1_555
C30_4 C29_4 1_555 1_555
H24_4 C30_4 1_555 1_555
C34_4 C29_4 1_555 1_555
H27_4 C34_4 1_555 1_555
C23_4 C26_4 1_555 1_555
C24_4 C25_4 1_555 1_555
O6_4 Co7_2 1_555 1_555
H36_4 C48_4 1_555 1_555
C49_4 C48_4 1_555 1_555
C50_4 C49_4 1_555 1_555
C52_4 O6_4 1_555 1_555
C49_4 C52_4 1_555 1_555
N8_4 N9_4 1_555 1_555
N9_4 C45_4 1_555 1_555
C38_4 H28_4 1_555 1_555
C39_4 C38_4 1_555 1_555
H29_4 C39_4 1_555 1_555
C40_4 C39_4 1_555 1_555
C43_4 N8_4 1_555 1_555
H32_4 C43_4 1_555 1_555
H34_4 C45_4 1_555 1_555
C46_4 C43_4 1_555 1_555
C47_4 C46_4 1_555 1_555
H35_4 C47_4 1_555 1_555
C51_4 C46_4 1_555 1_555
C40_4 C43_4 1_555 1_555
O9_4 C36_4 1_555 1_555
N16_2 C44_4 1_555 1_555
C36_4 C37_4 1_555 1_555
H30_4 C41_4 1_555 1_555
C42_4 C37_4 1_555 1_555
H31_4 C42_4 1_555 1_555
H33_4 C44_4 1_555 1_555
C41_4 C42_4 1_555 1_555
H42_4 C57_4 1_555 1_555
C58_4 C57_4 1_555 1_555
H43_4 C58_4 1_555 1_555
C63_4 C62_4 1_555 1_555
H46_4 C63_4 1_555 1_555
C64_4 C63_4 1_555 1_555
H47_4 C64_4 1_555 1_555
C65_4 C64_4 1_555 1_555
H6_4 C5_4 1_555 1_555
C6_4 C5_4 1_555 1_555
H7_4 C6_4 1_555 1_555
C11_4 C10_4 1_555 1_555
H10_4 C11_4 1_555 1_555
C12_4 C11_4 1_555 1_555
H11_4 C12_4 1_555 1_555
C13_4 C12_4 1_555 1_555

#END
