
###############################################################################
#
# This file contains modified crystal structure data generated from the
# MOF subset of the Cambridge Structural Database (CSD) v543 
# hosted by the Cambridge Crystallographic Data Centre (CCDC).
#
# This work is licensed under the Creative Commons
# Attribution-NonCommercial-ShareAlike 4.0 International License.
# To view a copy of this license, visit
# http://creativecommons.org/licenses/by-nc-sa/4.0/
# or send a letter to
# Creative Commons, PO Box 1866, Mountain View, CA 94042, USA.
#
# CIF created using the CSD Python API on 29 September 2022
# The structure has been converted into the P1 space group
# The structure has a 3D framework
# The original CSD entry ZIQFUD is in the orthorhombic crystal system
# The framework has been calculated to contain at least 10.0% void space
# The void calculation uses a probe of radius 1.32A, grid spacing 0.4
#
###############################################################################

data_ZIQFUD
_chemical_formula_moiety         '(C368 H352 N32 O76 Zn16)n'
_symmetry_cell_setting           triclinic
_symmetry_space_group_name_H-M   'P 1'
_symmetry_Int_Tables_number      1
_space_group_name_Hall           'P 1'
loop_
_symmetry_equiv_pos_site_id
_symmetry_equiv_pos_as_xyz
1 x,y,z
_cell_length_a                   34.864(3)
_cell_length_b                   45.768(4)
_cell_length_c                   8.0403(7)
_cell_angle_alpha                90
_cell_angle_beta                 90
_cell_angle_gamma                90
_cell_volume                     12829.5
loop_
_atom_site_label
_atom_site_type_symbol
_atom_site_fract_x
_atom_site_fract_y
_atom_site_fract_z
N2 N 0.14387(12) 0.06155(9) 0.3693(5)
C9 C 0.11162(16) 0.04712(12) 0.3974(8)
H11 H 0.0886 0.0569 0.3792
C10 C 0.11001(16) 0.01902(13) 0.4511(8)
H12 H 0.0863 0.0100 0.4656
C11 C 0.14269(16) 0.00386(12) 0.4840(7)
C12 C 0.17644(18) 0.01836(14) 0.4557(10)
H13 H 0.1997 0.0090 0.4763
C13 C 0.17630(18) 0.04703(13) 0.3963(10)
H14 H 0.1996 0.0562 0.3751
Zn2 Zn 0.13946(2) 0.10383(2) 0.28898(7)
O1 O 0.15861(9) 0.85483(8) 0.9125(4)
O2 O 0.13034(9) 0.82749(8) 0.7186(5)
O3 O 0.29253(11) 0.88772(9) 0.8526(5)
O4 O 0.32613(9) 0.87191(8) 0.6430(5)
O5 O 0.22952(10) 0.81837(8) 0.2748(5)
C14 C 0.19462(13) 0.84341(10) 0.6739(6)
C15 C 0.22643(12) 0.85805(10) 0.7375(6)
H15 H 0.2252 0.8667 0.8420
C16 C 0.25984(13) 0.85981(9) 0.6455(6)
C17 C 0.26171(14) 0.84716(11) 0.4896(6)
H16 H 0.2842 0.8485 0.4278
C18 C 0.23016(14) 0.83254(11) 0.4249(6)
C19 C 0.19680(13) 0.83063(9) 0.5178(6)
H17 H 0.1757 0.8207 0.4752
C20 C 0.15822(13) 0.84147(10) 0.7736(7)
C21 C 0.29462(14) 0.87436(11) 0.7194(7)
C22 C 0.2619(2) 0.82045(17) 0.1688(8)
H18 H 0.2852 0.8164 0.2309
H19 H 0.2638 0.8400 0.1225
C23 C 0.2572(2) 0.7990(2) 0.0359(11)
H21 H 0.2555 0.7798 0.0831
Zn3 Zn 0.36054(2) 0.89617(2) 0.78898(7)
O7 O 0.07613(9) 0.87809(8) 0.8930(5)
O1_2 O 0.84139(9) 0.14517(8) 0.9125(4)
O2_2 O 0.86966(9) 0.17251(8) 0.7186(5)
O3_2 O 0.70747(11) 0.11228(9) 0.8526(5)
O4_2 O 0.67387(9) 0.12809(8) 0.6430(5)
O5_2 O 0.77048(10) 0.18163(8) 0.2748(5)
C14_2 C 0.80538(13) 0.15659(10) 0.6739(6)
C15_2 C 0.77357(12) 0.14195(10) 0.7375(6)
H15_2 H 0.7748 0.1333 0.8420
C16_2 C 0.74016(13) 0.14019(9) 0.6455(6)
C17_2 C 0.73829(14) 0.15284(11) 0.4896(6)
H16_2 H 0.7158 0.1515 0.4278
C18_2 C 0.76984(14) 0.16746(11) 0.4249(6)
C19_2 C 0.80320(13) 0.16937(9) 0.5178(6)
H17_2 H 0.8243 0.1793 0.4752
C20_2 C 0.84178(13) 0.15853(10) 0.7736(7)
C21_2 C 0.70538(14) 0.12564(11) 0.7194(7)
C22_2 C 0.7381(2) 0.17955(17) 0.1688(8)
H18_2 H 0.7148 0.1836 0.2309
H19_2 H 0.7362 0.1600 0.1225
C23_2 C 0.7428(2) 0.2010(2) 0.0359(11)
H21_2 H 0.7445 0.2202 0.0831
Zn3_2 Zn 0.63946(2) 0.10383(2) 0.78898(7)
O7_2 O 0.92387(9) 0.12191(8) 0.8930(5)
N2_2 N 0.85613(12) 0.93845(9) 0.3693(5)
C9_2 C 0.88838(16) 0.95288(12) 0.3974(8)
H11_2 H 0.9114 0.9431 0.3792
C10_2 C 0.88999(16) 0.98098(13) 0.4511(8)
H12_2 H 0.9137 0.9900 0.4656
C11_2 C 0.85731(16) 0.99614(12) 0.4840(7)
C12_2 C 0.82356(18) 0.98164(14) 0.4557(10)
H13_2 H 0.8003 0.9910 0.4763
C13_2 C 0.82370(18) 0.95297(13) 0.3963(10)
H14_2 H 0.8004 0.9438 0.3751
Zn2_2 Zn 0.86054(2) 0.89617(2) 0.28898(7)
O1_3 O 0.09139(9) 0.10483(8) 0.1625(4)
N1 N 0.11949(11) 0.12608(8) 0.4941(5)
N2_3 N 0.10613(12) 0.31155(9) 0.6193(5)
C1 C 0.08437(14) 0.13847(11) 0.4921(6)
H1 H 0.0691 0.1362 0.3981
C2 C 0.07047(16) 0.15413(11) 0.6224(7)
H2 H 0.0461 0.1624 0.6146
C3 C 0.09154(15) 0.15813(10) 0.7660(7)
C4 C 0.12706(16) 0.14473(11) 0.7686(7)
H3 H 0.1425 0.1464 0.8625
C5 C 0.13966(15) 0.12926(12) 0.6360(7)
H4 H 0.1636 0.1203 0.6432
C6 C 0.07682(18) 0.17693(11) 0.9061(7)
H5 H 0.0520 0.1696 0.9416
H6 H 0.0943 0.1755 0.9997
C7 C 0.07284(18) 0.20923(12) 0.8555(8)
H7 H 0.0644 0.2204 0.9513
H8 H 0.0532 0.2109 0.7705
C8 C 0.10907(16) 0.22212(13) 0.7914(10)
H9 H 0.1283 0.2206 0.8781
H10 H 0.1178 0.2103 0.6986
C9_3 C 0.13838(16) 0.29712(12) 0.6474(8)
H11_3 H 0.1614 0.3069 0.6292
C10_3 C 0.13999(16) 0.26902(13) 0.7011(8)
H12_3 H 0.1637 0.2600 0.7156
C11_3 C 0.10731(16) 0.25386(12) 0.7340(7)
C12_3 C 0.07356(18) 0.26836(14) 0.7057(10)
H13_3 H 0.0503 0.2590 0.7263
C13_3 C 0.07370(18) 0.29703(13) 0.6463(10)
H14_3 H 0.0504 0.3062 0.6251
H15_3 H 0.0248 0.1167 0.0920
C20_3 C 0.09178(13) 0.09147(10) 0.0236(7)
Zn2_3 Zn 0.11054(2) 0.35383(2) 0.53898(7)
O6 O 0.20747(11) 0.11228(9) 0.3526(5)
O7_3 O 0.17387(9) 0.12809(8) 0.1430(5)
C16_3 C 0.99016(13) 0.10981(9) 0.8955(6)
C17_3 C 0.98829(14) 0.09716(11) 0.7396(6)
H16_3 H 0.9658 0.0985 0.6778
C21_3 C 0.95538(14) 0.12436(11) 0.9694(7)
C22_3 C 0.9881(2) 0.07045(17) 0.4188(8)
H18_3 H 0.9648 0.0664 0.4809
H19_3 H 0.9862 0.0900 0.3725
C23_3 C 0.9928(2) 0.0490(2) 0.2859(11)
H20 H 0.9712 0.0500 0.2121
H21_3 H 0.9945 0.0298 0.3331
Zn1 Zn 0.36054(2) 0.39617(2) 0.28898(7)
O1_4 O 0.40861(9) 0.39517(8) 0.1625(4)
O3_3 O 0.54253(11) 0.36228(9) 0.1026(5)
N1_2 N 0.38051(11) 0.37392(8) 0.4941(5)
N2_4 N 0.39387(12) 0.18845(9) 0.6193(5)
C1_2 C 0.41563(14) 0.36153(11) 0.4921(6)
H1_2 H 0.4309 0.3638 0.3981
C2_2 C 0.42953(16) 0.34587(11) 0.6224(7)
H2_2 H 0.4539 0.3376 0.6146
C3_2 C 0.40846(15) 0.34187(10) 0.7660(7)
C4_2 C 0.37294(16) 0.35527(11) 0.7686(7)
H3_2 H 0.3575 0.3536 0.8625
C5_2 C 0.36034(15) 0.37074(12) 0.6360(7)
H4_2 H 0.3364 0.3797 0.6432
C6_2 C 0.42318(18) 0.32307(11) 0.9061(7)
H5_2 H 0.4480 0.3304 0.9416
H6_2 H 0.4057 0.3245 0.9997
C7_2 C 0.42716(18) 0.29077(12) 0.8555(8)
H7_2 H 0.4356 0.2796 0.9513
H8_2 H 0.4468 0.2891 0.7705
C8_2 C 0.39093(16) 0.27788(13) 0.7914(10)
H9_2 H 0.3717 0.2794 0.8781
H10_2 H 0.3822 0.2897 0.6986
C9_4 C 0.36162(16) 0.20288(12) 0.6474(8)
H11_4 H 0.3386 0.1931 0.6292
C10_4 C 0.36001(16) 0.23098(13) 0.7011(8)
H12_4 H 0.3363 0.2400 0.7156
C11_4 C 0.39269(16) 0.24614(12) 0.7340(7)
C12_4 C 0.42644(18) 0.23164(14) 0.7057(10)
H13_4 H 0.4497 0.2410 0.7263
C13_4 C 0.42630(18) 0.20297(13) 0.6463(10)
H14_4 H 0.4496 0.1938 0.6251
H15_4 H 0.4752 0.3833 0.0920
C20_4 C 0.40822(13) 0.40853(10) 0.0236(7)
Zn2_4 Zn 0.38946(2) 0.14617(2) 0.53898(7)
Zn3_3 Zn 0.61054(2) 0.35383(2) 0.03898(7)
O6_2 O 0.29253(11) 0.38772(9) 0.3526(5)
O7_4 O 0.32613(9) 0.37191(8) 0.1430(5)
N3 N 0.35613(12) 0.43845(9) 0.3693(5)
O2_3 O 0.38034(9) 0.42251(8) 0.9686(5)
O4_3 O 0.57613(9) 0.37809(8) 0.8930(5)
O5_3 O 0.47952(10) 0.43163(8) 0.5248(5)
C14_3 C 0.44462(13) 0.40659(10) 0.9239(6)
C15_3 C 0.47643(12) 0.39195(10) 0.9875(6)
C16_4 C 0.50984(13) 0.39019(9) 0.8955(6)
C17_4 C 0.51171(14) 0.40284(11) 0.7396(6)
H16_4 H 0.5342 0.4015 0.6778
C18_3 C 0.48016(14) 0.41746(11) 0.6749(6)
C19_3 C 0.44680(13) 0.41937(9) 0.7678(6)
H17_3 H 0.4257 0.4293 0.7252
C21_4 C 0.54462(14) 0.37564(11) 0.9694(7)
C22_4 C 0.5119(2) 0.42955(17) 0.4188(8)
H18_4 H 0.5352 0.4336 0.4809
H19_4 H 0.5138 0.4100 0.3725
C23_4 C 0.5072(2) 0.4510(2) 0.2859(11)
H20_2 H 0.5288 0.4500 0.2121
H21_4 H 0.5055 0.4702 0.3331
H22 H 0.4841 0.4468 0.2252
O1_5 O 0.15861(9) 0.35483(8) 0.4125(4)
O2_4 O 0.13034(9) 0.32749(8) 0.2186(5)
N1_3 N 0.13051(11) 0.37608(8) 0.7441(5)
N2_5 N 0.14387(12) 0.56155(9) 0.8693(5)
C1_3 C 0.16563(14) 0.38847(11) 0.7421(6)
H1_3 H 0.1809 0.3862 0.6481
C2_3 C 0.17953(16) 0.40413(11) 0.8724(7)
H2_3 H 0.2039 0.4124 0.8646
C5_3 C 0.11034(15) 0.37926(12) 0.8860(7)
H4_3 H 0.0864 0.3703 0.8932
H10_3 H 0.1322 0.4603 0.9486
C9_5 C 0.11162(16) 0.54712(12) 0.8974(8)
H11_5 H 0.0886 0.5569 0.8792
C10_5 C 0.11001(16) 0.51902(13) 0.9511(8)
H12_5 H 0.0863 0.5100 0.9656
C11_5 C 0.14269(16) 0.50386(12) 0.9840(7)
C12_5 C 0.17644(18) 0.51836(14) 0.9557(10)
H13_5 H 0.1997 0.5090 0.9763
C13_5 C 0.17630(18) 0.54703(13) 0.8963(10)
H14_5 H 0.1996 0.5562 0.8751
C14_4 C 0.19462(13) 0.34341(10) 0.1739(6)
C15_4 C 0.22643(12) 0.35805(10) 0.2375(6)
H15_5 H 0.2252 0.3667 0.3420
C16_5 C 0.25984(13) 0.35981(9) 0.1455(6)
C19_4 C 0.19680(13) 0.33063(9) 0.0178(6)
C20_5 C 0.15822(13) 0.34147(10) 0.2736(7)
C21_5 C 0.29462(14) 0.37436(11) 0.2194(7)
Zn2_5 Zn 0.13946(2) 0.60383(2) 0.78898(7)
O6_3 O 0.04253(11) 0.36228(9) 0.6026(5)
O7_5 O 0.07613(9) 0.37809(8) 0.3930(5)
Zn1_2 Zn 0.88946(2) 0.64617(2) 0.53898(7)
O1_6 O 0.84139(9) 0.64517(8) 0.4125(4)
O2_5 O 0.86966(9) 0.67251(8) 0.2186(5)
O3_4 O 0.70747(11) 0.61228(9) 0.3526(5)
O4_4 O 0.67387(9) 0.62809(8) 0.1430(5)
N1_4 N 0.86949(11) 0.62392(8) 0.7441(5)
N2_6 N 0.85613(12) 0.43845(9) 0.8693(5)
C1_4 C 0.83437(14) 0.61153(11) 0.7421(6)
H1_4 H 0.8191 0.6138 0.6481
C2_4 C 0.82047(16) 0.59587(11) 0.8724(7)
H2_4 H 0.7961 0.5876 0.8646
C5_4 C 0.88966(15) 0.62074(12) 0.8860(7)
H4_4 H 0.9136 0.6297 0.8932
H10_4 H 0.8678 0.5397 0.9486
C9_6 C 0.88838(16) 0.45288(12) 0.8974(8)
H11_6 H 0.9114 0.4431 0.8792
C10_6 C 0.88999(16) 0.48098(13) 0.9511(8)
H12_6 H 0.9137 0.4900 0.9656
C11_6 C 0.85731(16) 0.49614(12) 0.9840(7)
C12_6 C 0.82356(18) 0.48164(14) 0.9557(10)
H13_6 H 0.8003 0.4910 0.9763
C13_6 C 0.82370(18) 0.45297(13) 0.8963(10)
H14_6 H 0.8004 0.4438 0.8751
C14_5 C 0.80538(13) 0.65659(10) 0.1739(6)
C15_5 C 0.77357(12) 0.64195(10) 0.2375(6)
H15_6 H 0.7748 0.6333 0.3420
C16_6 C 0.74016(13) 0.64019(9) 0.1455(6)
C19_5 C 0.80320(13) 0.66937(9) 0.0178(6)
C20_6 C 0.84178(13) 0.65853(10) 0.2736(7)
C21_6 C 0.70538(14) 0.62564(11) 0.2194(7)
Zn2_6 Zn 0.86054(2) 0.39617(2) 0.78898(7)
Zn3_4 Zn 0.63946(2) 0.60383(2) 0.28898(7)
O6_4 O 0.95747(11) 0.63772(9) 0.6026(5)
O7_6 O 0.92387(9) 0.62191(8) 0.3930(5)
N3_2 N 0.89387(12) 0.68845(9) 0.6193(5)
O1_7 O 0.09139(9) 0.60483(8) 0.6625(4)
O2_6 O 0.11966(9) 0.57749(8) 0.4686(5)
O5_4 O 0.02048(10) 0.56837(8) 0.0248(5)
N1_5 N 0.11949(11) 0.62608(8) 0.9941(5)
C1_5 C 0.08437(14) 0.63847(11) 0.9921(6)
H1_5 H 0.0691 0.6362 0.8981
C14_6 C 0.05538(13) 0.59341(10) 0.4239(6)
C15_6 C 0.02357(12) 0.60805(10) 0.4875(6)
H15_7 H 0.0248 0.6167 0.5920
C18_4 C 0.01984(14) 0.58254(11) 0.1749(6)
C19_6 C 0.05320(13) 0.58063(9) 0.2678(6)
H17_4 H 0.0743 0.5707 0.2252
C20_7 C 0.09178(13) 0.59147(10) 0.5236(7)
O6_5 O 0.20747(11) 0.61228(9) 0.8526(5)
O7_7 O 0.17387(9) 0.62809(8) 0.6430(5)
C16_7 C 0.99016(13) 0.60981(9) 0.3955(6)
C17_5 C 0.98829(14) 0.59716(11) 0.2396(6)
H16_5 H 0.9658 0.5985 0.1778
C21_7 C 0.95538(14) 0.62436(11) 0.4694(7)
N2_7 N 0.39387(12) 0.68845(9) 0.1193(5)
C2_5 C 0.42953(16) 0.84587(11) 0.1224(7)
H2_5 H 0.4539 0.8376 0.1146
C3_3 C 0.40846(15) 0.84187(10) 0.2660(7)
C4_3 C 0.37294(16) 0.85527(11) 0.2686(7)
H3_3 H 0.3575 0.8536 0.3625
C5_5 C 0.36034(15) 0.87074(12) 0.1360(7)
H4_5 H 0.3364 0.8797 0.1432
C6_3 C 0.42318(18) 0.82307(11) 0.4061(7)
H5_3 H 0.4480 0.8304 0.4416
H6_3 H 0.4057 0.8245 0.4997
C7_3 C 0.42716(18) 0.79077(12) 0.3555(8)
H7_3 H 0.4356 0.7796 0.4513
H8_3 H 0.4468 0.7891 0.2705
C8_3 C 0.39093(16) 0.77788(13) 0.2914(10)
H9_3 H 0.3717 0.7794 0.3781
H10_5 H 0.3822 0.7897 0.1986
C9_7 C 0.36162(16) 0.70288(12) 0.1474(8)
H11_7 H 0.3386 0.6931 0.1292
C10_7 C 0.36001(16) 0.73098(13) 0.2011(8)
H12_7 H 0.3363 0.7400 0.2156
C11_7 C 0.39269(16) 0.74614(12) 0.2340(7)
C12_7 C 0.42644(18) 0.73164(14) 0.2057(10)
H13_7 H 0.4497 0.7410 0.2263
C13_7 C 0.42630(18) 0.70297(13) 0.1463(10)
H14_7 H 0.4496 0.6938 0.1251
Zn2_7 Zn 0.38946(2) 0.64617(2) 0.03898(7)
O1_8 O 0.40861(9) 0.89517(8) 0.6625(4)
O2_7 O 0.38034(9) 0.92251(8) 0.4686(5)
O3_5 O 0.54253(11) 0.86228(9) 0.6026(5)
O4_5 O 0.57613(9) 0.87809(8) 0.3930(5)
O5_5 O 0.47952(10) 0.93163(8) 0.0248(5)
N1_6 N 0.38051(11) 0.87392(8) 0.9941(5)
C1_6 C 0.41563(14) 0.86153(11) 0.9921(6)
H1_6 H 0.4309 0.8638 0.8981
C14_7 C 0.44462(13) 0.90659(10) 0.4239(6)
C15_7 C 0.47643(12) 0.89195(10) 0.4875(6)
H15_8 H 0.4752 0.8833 0.5920
C16_8 C 0.50984(13) 0.89019(9) 0.3955(6)
C17_6 C 0.51171(14) 0.90284(11) 0.2396(6)
H16_6 H 0.5342 0.9015 0.1778
C18_5 C 0.48016(14) 0.91746(11) 0.1749(6)
C19_7 C 0.44680(13) 0.91937(9) 0.2678(6)
H17_5 H 0.4257 0.9293 0.2252
C20_8 C 0.40822(13) 0.90853(10) 0.5236(7)
C21_8 C 0.54462(14) 0.87564(11) 0.4694(7)
Zn3_5 Zn 0.61054(2) 0.85383(2) 0.53898(7)
N3_3 N 0.35613(12) 0.93845(9) 0.8693(5)
N2_8 N 0.64387(12) 0.06155(9) 0.8693(5)
C9_8 C 0.61162(16) 0.04712(12) 0.8974(8)
H11_8 H 0.5886 0.0569 0.8792
C10_8 C 0.61001(16) 0.01902(13) 0.9511(8)
H12_8 H 0.5863 0.0100 0.9656
C11_8 C 0.64269(16) 0.00386(12) 0.9840(7)
C12_8 C 0.67644(18) 0.01836(14) 0.9557(10)
H13_8 H 0.6997 0.0090 0.9763
C13_8 C 0.67630(18) 0.04703(13) 0.8963(10)
H14_8 H 0.6996 0.0562 0.8751
O1_9 O 0.65861(9) 0.85483(8) 0.4125(4)
O2_8 O 0.63034(9) 0.82749(8) 0.2186(5)
O3_6 O 0.79253(11) 0.88772(9) 0.3526(5)
O4_6 O 0.82613(9) 0.87191(8) 0.1430(5)
N1_7 N 0.63051(11) 0.87608(8) 0.7441(5)
C1_7 C 0.66563(14) 0.88847(11) 0.7421(6)
H1_7 H 0.6809 0.8862 0.6481
C2_6 C 0.67953(16) 0.90413(11) 0.8724(7)
H2_6 H 0.7039 0.9124 0.8646
C5_6 C 0.61034(15) 0.87926(12) 0.8860(7)
H4_6 H 0.5864 0.8703 0.8932
H10_6 H 0.6322 0.9603 0.9486
C14_8 C 0.69462(13) 0.84341(10) 0.1739(6)
C15_8 C 0.72643(12) 0.85805(10) 0.2375(6)
H15_9 H 0.7252 0.8667 0.3420
C16_9 C 0.75984(13) 0.85981(9) 0.1455(6)
C19_8 C 0.69680(13) 0.83063(9) 0.0178(6)
C20_9 C 0.65822(13) 0.84147(10) 0.2736(7)
C21_9 C 0.79462(14) 0.87436(11) 0.2194(7)
N3_4 N 0.60613(12) 0.81155(9) 0.6193(5)
O1_10 O 0.34139(9) 0.14517(8) 0.4125(4)
O2_9 O 0.36966(9) 0.17251(8) 0.2186(5)
N1_8 N 0.36949(11) 0.12392(8) 0.7441(5)
C1_8 C 0.33437(14) 0.11153(11) 0.7421(6)
H1_8 H 0.3191 0.1138 0.6481
C2_7 C 0.32047(16) 0.09587(11) 0.8724(7)
H2_7 H 0.2961 0.0876 0.8646
C5_7 C 0.38966(15) 0.12074(12) 0.8860(7)
H4_7 H 0.4136 0.1297 0.8932
H10_7 H 0.3678 0.0397 0.9486
C14_9 C 0.30538(13) 0.15659(10) 0.1739(6)
C15_9 C 0.27357(12) 0.14195(10) 0.2375(6)
H15_10 H 0.2748 0.1333 0.3420
C16_10 C 0.24016(13) 0.14019(9) 0.1455(6)
C19_9 C 0.30320(13) 0.16937(9) 0.0178(6)
C20_10 C 0.34178(13) 0.15853(10) 0.2736(7)
C21_10 C 0.20538(14) 0.12564(11) 0.2194(7)
O6_6 O 0.45747(11) 0.13772(9) 0.6026(5)
O7_8 O 0.42387(9) 0.12191(8) 0.3930(5)
C9_9 C 0.38838(16) 0.95288(12) 0.8974(8)
H11_9 H 0.4114 0.9431 0.8792
C10_9 C 0.38999(16) 0.98098(13) 0.9511(8)
H12_9 H 0.4137 0.9900 0.9656
C11_9 C 0.35731(16) 0.99614(12) 0.9840(7)
C12_9 C 0.32356(18) 0.98164(14) 0.9557(10)
H13_9 H 0.3003 0.9910 0.9763
C13_9 C 0.32370(18) 0.95297(13) 0.8963(10)
H14_9 H 0.3004 0.9438 0.8751
N2_9 N 0.60613(12) 0.31155(9) 0.1193(5)
C2_8 C 0.57047(16) 0.15413(11) 0.1224(7)
H2_8 H 0.5461 0.1624 0.1146
C3_4 C 0.59154(15) 0.15813(10) 0.2660(7)
C4_4 C 0.62706(16) 0.14473(11) 0.2686(7)
H3_4 H 0.6425 0.1464 0.3625
C5_8 C 0.63966(15) 0.12926(12) 0.1360(7)
H4_8 H 0.6636 0.1203 0.1432
C6_4 C 0.57682(18) 0.17693(11) 0.4061(7)
H5_4 H 0.5520 0.1696 0.4416
H6_4 H 0.5943 0.1755 0.4997
C7_4 C 0.57284(18) 0.20923(12) 0.3555(8)
H7_4 H 0.5644 0.2204 0.4513
H8_4 H 0.5532 0.2109 0.2705
C8_4 C 0.60907(16) 0.22212(13) 0.2914(10)
H9_4 H 0.6283 0.2206 0.3781
H10_8 H 0.6178 0.2103 0.1986
C9_10 C 0.63838(16) 0.29712(12) 0.1474(8)
H11_10 H 0.6614 0.3069 0.1292
C10_10 C 0.63999(16) 0.26902(13) 0.2011(8)
H12_10 H 0.6637 0.2600 0.2156
C11_10 C 0.60731(16) 0.25386(12) 0.2340(7)
C12_10 C 0.57356(18) 0.26836(14) 0.2057(10)
H13_10 H 0.5503 0.2590 0.2263
C13_10 C 0.57370(18) 0.29703(13) 0.1463(10)
H14_10 H 0.5504 0.3062 0.1251
O1_11 O 0.59139(9) 0.10483(8) 0.6625(4)
O2_10 O 0.61966(9) 0.07749(8) 0.4686(5)
O5_6 O 0.52048(10) 0.06837(8) 0.0248(5)
N1_9 N 0.61949(11) 0.12608(8) 0.9941(5)
C1_9 C 0.58437(14) 0.13847(11) 0.9921(6)
H1_9 H 0.5691 0.1362 0.8981
C14_10 C 0.55538(13) 0.09341(10) 0.4239(6)
C15_10 C 0.52357(12) 0.10805(10) 0.4875(6)
H15_11 H 0.5248 0.1167 0.5920
C16_11 C 0.49016(13) 0.10981(9) 0.3955(6)
C17_7 C 0.48829(14) 0.09716(11) 0.2396(6)
H16_7 H 0.4658 0.0985 0.1778
C18_6 C 0.51984(14) 0.08254(11) 0.1749(6)
C19_10 C 0.55320(13) 0.08063(9) 0.2678(6)
H17_6 H 0.5743 0.0707 0.2252
C20_11 C 0.59178(13) 0.09147(10) 0.5236(7)
C21_11 C 0.45538(14) 0.12436(11) 0.4694(7)
C16_12 C 0.00984(13) 0.39019(9) 0.3955(6)
C17_8 C 0.01171(14) 0.40284(11) 0.2396(6)
H16_8 H 0.0342 0.4015 0.1778
C21_12 C 0.04462(14) 0.37564(11) 0.4694(7)
O1_12 O 0.90861(9) 0.39517(8) 0.6625(4)
O2_11 O 0.88034(9) 0.42251(8) 0.4686(5)
O5_7 O 0.97952(10) 0.43163(8) 0.0248(5)
N1_10 N 0.88051(11) 0.37392(8) 0.9941(5)
C1_10 C 0.91563(14) 0.36153(11) 0.9921(6)
H1_10 H 0.9309 0.3638 0.8981
C14_11 C 0.94462(13) 0.40659(10) 0.4239(6)
C15_11 C 0.97643(12) 0.39195(10) 0.4875(6)
H15_12 H 0.9752 0.3833 0.5920
C18_7 C 0.98016(14) 0.41746(11) 0.1749(6)
C19_11 C 0.94680(13) 0.41937(9) 0.2678(6)
H17_7 H 0.9257 0.4293 0.2252
C20_12 C 0.90822(13) 0.40853(10) 0.5236(7)
O6_7 O 0.79253(11) 0.38772(9) 0.8526(5)
O7_9 O 0.82613(9) 0.37191(8) 0.6430(5)
N1_11 N 0.63051(11) 0.37608(8) 0.2441(5)
N2_10 N 0.64387(12) 0.56155(9) 0.3693(5)
C1_11 C 0.66563(14) 0.38847(11) 0.2421(6)
H1_11 H 0.6809 0.3862 0.1481
C2_9 C 0.67953(16) 0.40413(11) 0.3724(7)
H2_9 H 0.7039 0.4124 0.3646
C3_5 C 0.65846(15) 0.40813(10) 0.5160(7)
C4_5 C 0.62294(16) 0.39473(11) 0.5186(7)
H3_5 H 0.6075 0.3964 0.6125
C5_9 C 0.61034(15) 0.37926(12) 0.3860(7)
H4_9 H 0.5864 0.3703 0.3932
C6_5 C 0.67318(18) 0.42693(11) 0.6561(7)
H5_5 H 0.6980 0.4196 0.6916
H6_5 H 0.6557 0.4255 0.7497
C7_5 C 0.67716(18) 0.45923(12) 0.6055(8)
H7_5 H 0.6856 0.4704 0.7013
H8_5 H 0.6968 0.4609 0.5205
C8_5 C 0.64093(16) 0.47212(13) 0.5414(10)
H9_5 H 0.6217 0.4706 0.6281
H10_9 H 0.6322 0.4603 0.4486
C9_11 C 0.61162(16) 0.54712(12) 0.3974(8)
H11_11 H 0.5886 0.5569 0.3792
C10_11 C 0.61001(16) 0.51902(13) 0.4511(8)
H12_11 H 0.5863 0.5100 0.4656
C11_11 C 0.64269(16) 0.50386(12) 0.4840(7)
C12_11 C 0.67644(18) 0.51836(14) 0.4557(10)
H13_11 H 0.6997 0.5090 0.4763
C13_11 C 0.67630(18) 0.54703(13) 0.3963(10)
H14_11 H 0.6996 0.5562 0.3751
O1_13 O 0.65861(9) 0.35483(8) 0.9125(4)
O2_12 O 0.63034(9) 0.32749(8) 0.7186(5)
O5_8 O 0.72952(10) 0.31837(8) 0.2748(5)
C14_12 C 0.69462(13) 0.34341(10) 0.6739(6)
C15_12 C 0.72643(12) 0.35805(10) 0.7375(6)
H15_13 H 0.7252 0.3667 0.8420
C16_13 C 0.75984(13) 0.35981(9) 0.6455(6)
C17_9 C 0.76171(14) 0.34716(11) 0.4896(6)
H16_9 H 0.7842 0.3485 0.4278
C18_8 C 0.73016(14) 0.33254(11) 0.4249(6)
C19_12 C 0.69680(13) 0.33063(9) 0.5178(6)
H17_8 H 0.6757 0.3207 0.4752
C20_13 C 0.65822(13) 0.34147(10) 0.7736(7)
C21_13 C 0.79462(14) 0.37436(11) 0.7194(7)
C22_5 C 0.7619(2) 0.32045(17) 0.1688(8)
H18_5 H 0.7852 0.3164 0.2309
H19_5 H 0.7638 0.3400 0.1225
C23_5 C 0.7572(2) 0.2990(2) 0.0359(11)
H21_5 H 0.7555 0.2798 0.0831
N1_12 N 0.36949(11) 0.62392(8) 0.2441(5)
C1_12 C 0.33437(14) 0.61153(11) 0.2421(6)
H1_12 H 0.3191 0.6138 0.1481
C2_10 C 0.32047(16) 0.59587(11) 0.3724(7)
H2_10 H 0.2961 0.5876 0.3646
C3_6 C 0.34154(15) 0.59187(10) 0.5160(7)
C4_6 C 0.37706(16) 0.60527(11) 0.5186(7)
H3_6 H 0.3925 0.6036 0.6125
C5_10 C 0.38966(15) 0.62074(12) 0.3860(7)
H4_10 H 0.4136 0.6297 0.3932
C6_6 C 0.32682(18) 0.57307(11) 0.6561(7)
H5_6 H 0.3020 0.5804 0.6916
H6_6 H 0.3443 0.5745 0.7497
C7_6 C 0.32284(18) 0.54077(12) 0.6055(8)
H7_6 H 0.3144 0.5296 0.7013
H8_6 H 0.3032 0.5391 0.5205
C8_6 C 0.35907(16) 0.52788(13) 0.5414(10)
H9_6 H 0.3783 0.5294 0.6281
H10_10 H 0.3678 0.5397 0.4486
C9_12 C 0.38838(16) 0.45288(12) 0.3974(8)
H11_12 H 0.4114 0.4431 0.3792
C10_12 C 0.38999(16) 0.48098(13) 0.4511(8)
H12_12 H 0.4137 0.4900 0.4656
C11_12 C 0.35731(16) 0.49614(12) 0.4840(7)
C12_12 C 0.32356(18) 0.48164(14) 0.4557(10)
H13_12 H 0.3003 0.4910 0.4763
C13_12 C 0.32370(18) 0.45297(13) 0.3963(10)
H14_12 H 0.3004 0.4438 0.3751
O6_8 O 0.45747(11) 0.63772(9) 0.1026(5)
O1_14 O 0.34139(9) 0.64517(8) 0.9125(4)
O2_13 O 0.36966(9) 0.67251(8) 0.7186(5)
O5_9 O 0.27048(10) 0.68163(8) 0.2748(5)
C14_13 C 0.30538(13) 0.65659(10) 0.6739(6)
C15_13 C 0.27357(12) 0.64195(10) 0.7375(6)
H15_14 H 0.2748 0.6333 0.8420
C16_14 C 0.24016(13) 0.64019(9) 0.6455(6)
C17_10 C 0.23829(14) 0.65284(11) 0.4896(6)
H16_10 H 0.2158 0.6515 0.4278
C18_9 C 0.26984(14) 0.66746(11) 0.4249(6)
C19_13 C 0.30320(13) 0.66937(9) 0.5178(6)
H17_9 H 0.3243 0.6793 0.4752
C20_14 C 0.34178(13) 0.65853(10) 0.7736(7)
C21_14 C 0.20538(14) 0.62564(11) 0.7194(7)
C22_6 C 0.2381(2) 0.67955(17) 0.1688(8)
H18_6 H 0.2148 0.6836 0.2309
H19_6 H 0.2362 0.6600 0.1225
C23_6 C 0.2428(2) 0.7010(2) 0.0359(11)
H21_6 H 0.2445 0.7202 0.0831
O7_10 O 0.42387(9) 0.62191(8) 0.8930(5)
O1_15 O 0.59139(9) 0.60483(8) 0.1625(4)
N1_13 N 0.61949(11) 0.62608(8) 0.4941(5)
C1_13 C 0.58437(14) 0.63847(11) 0.4921(6)
H1_13 H 0.5691 0.6362 0.3981
C2_11 C 0.57047(16) 0.65413(11) 0.6224(7)
H2_11 H 0.5461 0.6624 0.6146
C3_7 C 0.59154(15) 0.65813(10) 0.7660(7)
C4_7 C 0.62706(16) 0.64473(11) 0.7686(7)
H3_7 H 0.6425 0.6464 0.8625
C5_11 C 0.63966(15) 0.62926(12) 0.6360(7)
H4_11 H 0.6636 0.6203 0.6432
C6_7 C 0.57682(18) 0.67693(11) 0.9061(7)
H5_7 H 0.5520 0.6696 0.9416
H6_7 H 0.5943 0.6755 0.9997
C7_7 C 0.57284(18) 0.70923(12) 0.8555(8)
H7_7 H 0.5644 0.7204 0.9513
H8_7 H 0.5532 0.7109 0.7705
C8_7 C 0.60907(16) 0.72212(13) 0.7914(10)
H9_7 H 0.6283 0.7206 0.8781
H10_11 H 0.6178 0.7103 0.6986
C9_13 C 0.63838(16) 0.79712(12) 0.6474(8)
H11_13 H 0.6614 0.8069 0.6292
C10_13 C 0.63999(16) 0.76902(13) 0.7011(8)
H12_13 H 0.6637 0.7600 0.7156
C11_13 C 0.60731(16) 0.75386(12) 0.7340(7)
C12_13 C 0.57356(18) 0.76836(14) 0.7057(10)
H13_13 H 0.5503 0.7590 0.7263
C13_13 C 0.57370(18) 0.79703(13) 0.6463(10)
H14_13 H 0.5504 0.8062 0.6251
H15_15 H 0.5248 0.6167 0.0920
C20_15 C 0.59178(13) 0.59147(10) 0.0236(7)
O2_14 O 0.61966(9) 0.57749(8) 0.9686(5)
O5_10 O 0.52048(10) 0.56837(8) 0.5248(5)
C14_14 C 0.55538(13) 0.59341(10) 0.9239(6)
C15_14 C 0.52357(12) 0.60805(10) 0.9875(6)
C16_15 C 0.49016(13) 0.60981(9) 0.8955(6)
C17_11 C 0.48829(14) 0.59716(11) 0.7396(6)
H16_11 H 0.4658 0.5985 0.6778
C18_10 C 0.51984(14) 0.58254(11) 0.6749(6)
C19_14 C 0.55320(13) 0.58063(9) 0.7678(6)
H17_10 H 0.5743 0.5707 0.7252
C21_15 C 0.45538(14) 0.62436(11) 0.9694(7)
C22_7 C 0.4881(2) 0.57045(17) 0.4188(8)
H18_7 H 0.4648 0.5664 0.4809
H19_7 H 0.4862 0.5900 0.3725
C23_7 C 0.4928(2) 0.5490(2) 0.2859(11)
H20_3 H 0.4712 0.5500 0.2121
H21_7 H 0.4945 0.5298 0.3331
H22_2 H 0.5159 0.5532 0.2252
C16_16 C 0.00984(13) 0.89019(9) 0.8955(6)
C17_12 C 0.01171(14) 0.90284(11) 0.7396(6)
H16_12 H 0.0342 0.9015 0.6778
C21_16 C 0.04462(14) 0.87564(11) 0.9694(7)
C22_8 C 0.0119(2) 0.92955(17) 0.4188(8)
H18_8 H 0.0352 0.9336 0.4809
H19_8 H 0.0138 0.9100 0.3725
C23_8 C 0.0072(2) 0.9510(2) 0.2859(11)
H20_4 H 0.0288 0.9500 0.2121
H21_8 H 0.0055 0.9702 0.3331
O1_16 O 0.90861(9) 0.89517(8) 0.1625(4)
N1_14 N 0.88051(11) 0.87392(8) 0.4941(5)
C1_14 C 0.91563(14) 0.86153(11) 0.4921(6)
H1_14 H 0.9309 0.8638 0.3981
C2_12 C 0.92953(16) 0.84587(11) 0.6224(7)
H2_12 H 0.9539 0.8376 0.6146
C3_8 C 0.90846(15) 0.84187(10) 0.7660(7)
C4_8 C 0.87294(16) 0.85527(11) 0.7686(7)
H3_8 H 0.8575 0.8536 0.8625
C5_12 C 0.86034(15) 0.87074(12) 0.6360(7)
H4_12 H 0.8364 0.8797 0.6432
C6_8 C 0.92318(18) 0.82307(11) 0.9061(7)
H5_8 H 0.9480 0.8304 0.9416
H6_8 H 0.9057 0.8245 0.9997
C7_8 C 0.92716(18) 0.79077(12) 0.8555(8)
H7_8 H 0.9356 0.7796 0.9513
H8_8 H 0.9468 0.7891 0.7705
C8_8 C 0.89093(16) 0.77788(13) 0.7914(10)
H9_8 H 0.8717 0.7794 0.8781
H10_12 H 0.8822 0.7897 0.6986
C9_14 C 0.86162(16) 0.70288(12) 0.6474(8)
H11_14 H 0.8386 0.6931 0.6292
C10_14 C 0.86001(16) 0.73098(13) 0.7011(8)
H12_14 H 0.8363 0.7400 0.7156
C11_14 C 0.89269(16) 0.74614(12) 0.7340(7)
C12_14 C 0.92644(18) 0.73164(14) 0.7057(10)
H13_14 H 0.9497 0.7410 0.7263
C13_14 C 0.92630(18) 0.70297(13) 0.6463(10)
H14_14 H 0.9496 0.6938 0.6251
H15_16 H 0.9752 0.8833 0.0920
C20_16 C 0.90822(13) 0.90853(10) 0.0236(7)
Zn1_3 Zn 0.11054(2) 0.85383(2) 0.03898(7)
N1_15 N 0.13051(11) 0.87608(8) 0.2441(5)
C1_15 C 0.16563(14) 0.88847(11) 0.2421(6)
H1_15 H 0.1809 0.8862 0.1481
C2_13 C 0.17953(16) 0.90413(11) 0.3724(7)
H2_13 H 0.2039 0.9124 0.3646
C3_9 C 0.15846(15) 0.90813(10) 0.5160(7)
C4_9 C 0.12294(16) 0.89473(11) 0.5186(7)
H3_9 H 0.1075 0.8964 0.6125
C5_13 C 0.11034(15) 0.87926(12) 0.3860(7)
H4_13 H 0.0864 0.8703 0.3932
C6_9 C 0.17318(18) 0.92693(11) 0.6561(7)
H5_9 H 0.1980 0.9196 0.6916
H6_9 H 0.1557 0.9255 0.7497
C7_9 C 0.17716(18) 0.95923(12) 0.6055(8)
H7_9 H 0.1856 0.9704 0.7013
H8_9 H 0.1968 0.9609 0.5205
C8_9 C 0.14093(16) 0.97212(13) 0.5414(10)
H9_9 H 0.1217 0.9706 0.6281
H10_13 H 0.1322 0.9603 0.4486
O6_9 O 0.04253(11) 0.86228(9) 0.1026(5)
N3_5 N 0.10613(12) 0.81155(9) 0.1193(5)
C2_14 C 0.07047(16) 0.65413(11) 0.1224(7)
H2_14 H 0.0461 0.6624 0.1146
C3_10 C 0.09154(15) 0.65813(10) 0.2660(7)
C4_10 C 0.12706(16) 0.64473(11) 0.2686(7)
H3_10 H 0.1425 0.6464 0.3625
C5_14 C 0.13966(15) 0.62926(12) 0.1360(7)
H4_14 H 0.1636 0.6203 0.1432
C6_10 C 0.07682(18) 0.67693(11) 0.4061(7)
H5_10 H 0.0520 0.6696 0.4416
H6_10 H 0.0943 0.6755 0.4997
C7_10 C 0.07284(18) 0.70923(12) 0.3555(8)
H7_10 H 0.0644 0.7204 0.4513
H8_10 H 0.0532 0.7109 0.2705
C8_10 C 0.10907(16) 0.72212(13) 0.2914(10)
H9_10 H 0.1283 0.7206 0.3781
H10_14 H 0.1178 0.7103 0.1986
C9_15 C 0.13838(16) 0.79712(12) 0.1474(8)
H11_15 H 0.1614 0.8069 0.1292
C10_15 C 0.13999(16) 0.76902(13) 0.2011(8)
H12_15 H 0.1637 0.7600 0.2156
C11_15 C 0.10731(16) 0.75386(12) 0.2340(7)
C12_15 C 0.07356(18) 0.76836(14) 0.2057(10)
H13_15 H 0.0503 0.7590 0.2263
C13_15 C 0.07370(18) 0.79703(13) 0.1463(10)
H14_15 H 0.0504 0.8062 0.1251
H20_5 H 0.2788 0.8000 0.9621
H22_3 H 0.2341 0.8032 0.9752
Zn1_4 Zn 0.88946(2) 0.14617(2) 0.03898(7)
N1_16 N 0.86949(11) 0.12392(8) 0.2441(5)
C1_16 C 0.83437(14) 0.11153(11) 0.2421(6)
H1_16 H 0.8191 0.1138 0.1481
C2_15 C 0.82047(16) 0.09587(11) 0.3724(7)
H2_15 H 0.7961 0.0876 0.3646
C3_11 C 0.84154(15) 0.09187(10) 0.5160(7)
C4_11 C 0.87706(16) 0.10527(11) 0.5186(7)
H3_11 H 0.8925 0.1036 0.6125
C5_15 C 0.88966(15) 0.12074(12) 0.3860(7)
H4_15 H 0.9136 0.1297 0.3932
C6_11 C 0.82682(18) 0.07307(11) 0.6561(7)
H5_11 H 0.8020 0.0804 0.6916
H6_11 H 0.8443 0.0745 0.7497
C7_11 C 0.82284(18) 0.04077(12) 0.6055(8)
H7_11 H 0.8144 0.0296 0.7013
H8_11 H 0.8032 0.0391 0.5205
C8_11 C 0.85907(16) 0.02788(13) 0.5414(10)
H9_11 H 0.8783 0.0294 0.6281
H10_15 H 0.8678 0.0397 0.4486
O6_10 O 0.95747(11) 0.13772(9) 0.1026(5)
N3_6 N 0.89387(12) 0.18845(9) 0.1193(5)
C2_16 C 0.92953(16) 0.34587(11) 0.1224(7)
H2_16 H 0.9539 0.3376 0.1146
C3_12 C 0.90846(15) 0.34187(10) 0.2660(7)
C4_12 C 0.87294(16) 0.35527(11) 0.2686(7)
H3_12 H 0.8575 0.3536 0.3625
C5_16 C 0.86034(15) 0.37074(12) 0.1360(7)
H4_16 H 0.8364 0.3797 0.1432
C6_12 C 0.92318(18) 0.32307(11) 0.4061(7)
H5_12 H 0.9480 0.3304 0.4416
H6_12 H 0.9057 0.3245 0.4997
C7_12 C 0.92716(18) 0.29077(12) 0.3555(8)
H7_12 H 0.9356 0.2796 0.4513
H8_12 H 0.9468 0.2891 0.2705
C8_12 C 0.89093(16) 0.27788(13) 0.2914(10)
H9_12 H 0.8717 0.2794 0.3781
H10_16 H 0.8822 0.2897 0.1986
C9_16 C 0.86162(16) 0.20288(12) 0.1474(8)
H11_16 H 0.8386 0.1931 0.1292
C10_16 C 0.86001(16) 0.23098(13) 0.2011(8)
H12_16 H 0.8363 0.2400 0.2156
C11_16 C 0.89269(16) 0.24614(12) 0.2340(7)
C12_16 C 0.92644(18) 0.23164(14) 0.2057(10)
H13_16 H 0.9497 0.2410 0.2263
C13_16 C 0.92630(18) 0.20297(13) 0.1463(10)
H14_16 H 0.9496 0.1938 0.1251
H20_6 H 0.7212 0.2000 0.9621
H22_4 H 0.7659 0.1968 0.9752
O2_15 O 0.11966(9) 0.07749(8) 0.9686(5)
O5_11 O 0.02048(10) 0.06837(8) 0.5248(5)
C14_15 C 0.05538(13) 0.09341(10) 0.9239(6)
C15_15 C 0.02357(12) 0.10805(10) 0.9875(6)
C18_11 C 0.01984(14) 0.08254(11) 0.6749(6)
C19_15 C 0.05320(13) 0.08063(9) 0.7678(6)
H17_11 H 0.0743 0.0707 0.7252
H22_5 H 0.0159 0.0532 0.2252
C3_13 C 0.15846(15) 0.40813(10) 0.0160(7)
C4_13 C 0.12294(16) 0.39473(11) 0.0186(7)
H3_13 H 0.1075 0.3964 0.1125
C6_13 C 0.17318(18) 0.42693(11) 0.1561(7)
H5_13 H 0.1980 0.4196 0.1916
H6_13 H 0.1557 0.4255 0.2497
C7_13 C 0.17716(18) 0.45923(12) 0.1055(8)
H7_13 H 0.1856 0.4704 0.2013
H8_13 H 0.1968 0.4609 0.0205
C8_13 C 0.14093(16) 0.47212(13) 0.0414(10)
H9_13 H 0.1217 0.4706 0.1281
O5_12 O 0.22952(10) 0.31837(8) 0.7748(5)
C17_13 C 0.26171(14) 0.34716(11) 0.9896(6)
H16_13 H 0.2842 0.3485 0.9278
C18_12 C 0.23016(14) 0.33254(11) 0.9249(6)
H17_12 H 0.1757 0.3207 0.9752
C22_9 C 0.2619(2) 0.32045(17) 0.6688(8)
H18_9 H 0.2852 0.3164 0.7309
H19_9 H 0.2638 0.3400 0.6225
C23_9 C 0.2572(2) 0.2990(2) 0.5359(11)
H20_7 H 0.2788 0.3000 0.4621
H21_9 H 0.2555 0.2798 0.5831
H22_6 H 0.2341 0.3032 0.4752
C3_14 C 0.84154(15) 0.59187(10) 0.0160(7)
C4_14 C 0.87706(16) 0.60527(11) 0.0186(7)
H3_14 H 0.8925 0.6036 0.1125
C6_14 C 0.82682(18) 0.57307(11) 0.1561(7)
H5_14 H 0.8020 0.5804 0.1916
H6_14 H 0.8443 0.5745 0.2497
C7_14 C 0.82284(18) 0.54077(12) 0.1055(8)
H7_14 H 0.8144 0.5296 0.2013
H8_14 H 0.8032 0.5391 0.0205
C8_14 C 0.85907(16) 0.52788(13) 0.0414(10)
H9_14 H 0.8783 0.5294 0.1281
O5_13 O 0.77048(10) 0.68163(8) 0.7748(5)
C17_14 C 0.73829(14) 0.65284(11) 0.9896(6)
H16_14 H 0.7158 0.6515 0.9278
C18_13 C 0.76984(14) 0.66746(11) 0.9249(6)
H17_13 H 0.8243 0.6793 0.9752
C22_10 C 0.7381(2) 0.67955(17) 0.6688(8)
H18_10 H 0.7148 0.6836 0.7309
H19_10 H 0.7362 0.6600 0.6225
C23_10 C 0.7428(2) 0.7010(2) 0.5359(11)
H20_8 H 0.7212 0.7000 0.4621
H21_10 H 0.7445 0.7202 0.5831
H22_7 H 0.7659 0.6968 0.4752
H22_8 H 0.0159 0.5532 0.7252
C22_11 C 0.9881(2) 0.57045(17) 0.9188(8)
H18_11 H 0.9648 0.5664 0.9809
H19_11 H 0.9862 0.5900 0.8725
C23_11 C 0.9928(2) 0.5490(2) 0.7859(11)
H20_9 H 0.9712 0.5500 0.7121
H21_11 H 0.9945 0.5298 0.8331
C22_12 C 0.5119(2) 0.92955(17) 0.9188(8)
H18_12 H 0.5352 0.9336 0.9809
H19_12 H 0.5138 0.9100 0.8725
C23_12 C 0.5072(2) 0.9510(2) 0.7859(11)
H20_10 H 0.5288 0.9500 0.7121
H21_12 H 0.5055 0.9702 0.8331
H22_9 H 0.4841 0.9468 0.7252
C3_15 C 0.65846(15) 0.90813(10) 0.0160(7)
C4_15 C 0.62294(16) 0.89473(11) 0.0186(7)
H3_15 H 0.6075 0.8964 0.1125
C6_15 C 0.67318(18) 0.92693(11) 0.1561(7)
H5_15 H 0.6980 0.9196 0.1916
H6_15 H 0.6557 0.9255 0.2497
C7_15 C 0.67716(18) 0.95923(12) 0.1055(8)
H7_15 H 0.6856 0.9704 0.2013
H8_15 H 0.6968 0.9609 0.0205
C8_15 C 0.64093(16) 0.97212(13) 0.0414(10)
H9_15 H 0.6217 0.9706 0.1281
O5_14 O 0.72952(10) 0.81837(8) 0.7748(5)
C17_15 C 0.76171(14) 0.84716(11) 0.9896(6)
H16_15 H 0.7842 0.8485 0.9278
C18_14 C 0.73016(14) 0.83254(11) 0.9249(6)
H17_14 H 0.6757 0.8207 0.9752
C22_13 C 0.7619(2) 0.82045(17) 0.6688(8)
H18_13 H 0.7852 0.8164 0.7309
H19_13 H 0.7638 0.8400 0.6225
C23_13 C 0.7572(2) 0.7990(2) 0.5359(11)
H20_11 H 0.7788 0.8000 0.4621
H21_13 H 0.7555 0.7798 0.5831
H22_10 H 0.7341 0.8032 0.4752
C3_16 C 0.34154(15) 0.09187(10) 0.0160(7)
C4_16 C 0.37706(16) 0.10527(11) 0.0186(7)
H3_16 H 0.3925 0.1036 0.1125
C6_16 C 0.32682(18) 0.07307(11) 0.1561(7)
H5_16 H 0.3020 0.0804 0.1916
H6_16 H 0.3443 0.0745 0.2497
C7_16 C 0.32284(18) 0.04077(12) 0.1055(8)
H7_16 H 0.3144 0.0296 0.2013
H8_16 H 0.3032 0.0391 0.0205
C8_16 C 0.35907(16) 0.02788(13) 0.0414(10)
H9_16 H 0.3783 0.0294 0.1281
O5_15 O 0.27048(10) 0.18163(8) 0.7748(5)
C17_16 C 0.23829(14) 0.15284(11) 0.9896(6)
H16_16 H 0.2158 0.1515 0.9278
C18_15 C 0.26984(14) 0.16746(11) 0.9249(6)
H17_15 H 0.3243 0.1793 0.9752
C22_14 C 0.2381(2) 0.17955(17) 0.6688(8)
H18_14 H 0.2148 0.1836 0.7309
H19_14 H 0.2362 0.1600 0.6225
C23_14 C 0.2428(2) 0.2010(2) 0.5359(11)
H20_12 H 0.2212 0.2000 0.4621
H21_14 H 0.2445 0.2202 0.5831
H22_11 H 0.2659 0.1968 0.4752
C22_15 C 0.4881(2) 0.07045(17) 0.9188(8)
H18_15 H 0.4648 0.0664 0.9809
H19_15 H 0.4862 0.0900 0.8725
C23_15 C 0.4928(2) 0.0490(2) 0.7859(11)
H20_13 H 0.4712 0.0500 0.7121
H21_15 H 0.4945 0.0298 0.8331
H22_12 H 0.5159 0.0532 0.7252
C22_16 C 0.0119(2) 0.42955(17) 0.9188(8)
H18_16 H 0.0352 0.4336 0.9809
H19_16 H 0.0138 0.4100 0.8725
C23_16 C 0.0072(2) 0.4510(2) 0.7859(11)
H20_14 H 0.0288 0.4500 0.7121
H21_16 H 0.0055 0.4702 0.8331
H22_13 H 0.9841 0.4468 0.7252
H20_15 H 0.7788 0.3000 0.9621
H22_14 H 0.7341 0.3032 0.9752
H20_16 H 0.2212 0.7000 0.9621
H22_15 H 0.2659 0.6968 0.9752
O2_16 O 0.88034(9) 0.92251(8) 0.9686(5)
O5_16 O 0.97952(10) 0.93163(8) 0.5248(5)
C14_16 C 0.94462(13) 0.90659(10) 0.9239(6)
C15_16 C 0.97643(12) 0.89195(10) 0.9875(6)
C18_16 C 0.98016(14) 0.91746(11) 0.6749(6)
C19_16 C 0.94680(13) 0.91937(9) 0.7678(6)
H17_16 H 0.9257 0.9293 0.7252
H22_16 H 0.9841 0.9468 0.2252
loop_
_geom_bond_atom_site_label_1
_geom_bond_atom_site_label_2
_geom_bond_site_symmetry_1
_geom_bond_site_symmetry_2
N2 C9 1_555 1_555
C9 H11 1_555 1_555
C10 C9 1_555 1_555
H12 C10 1_555 1_555
C12 C11 1_555 1_555
H13 C12 1_555 1_555
C13 N2 1_555 1_555
H14 C13 1_555 1_555
Zn2 N2 1_555 1_555
C10 C11 1_555 1_555
C12 C13 1_555 1_555
O1 C20 1_555 1_555
O2 C20 1_555 1_555
O3 C21 1_555 1_555
O4 C21 1_555 1_555
O5 C18 1_555 1_555
C14 C15 1_555 1_555
C15 H15 1_555 1_555
C16 C15 1_555 1_555
C17 C16 1_555 1_555
H16 C17 1_555 1_555
C18 C17 1_555 1_555
C19 C14 1_555 1_555
H17 C19 1_555 1_555
C20 C14 1_555 1_555
C21 C16 1_555 1_555
C22 O5 1_555 1_555
H18 C22 1_555 1_555
H19 C22 1_555 1_555
C23 C22 1_555 1_555
H21 C23 1_555 1_555
Zn3 O3 1_555 1_555
O4 Zn3 1_555 1_555
C18 C19 1_555 1_555
O1_2 C20_2 1_555 1_555
O2_2 C20_2 1_555 1_555
O3_2 C21_2 1_555 1_555
O4_2 C21_2 1_555 1_555
O5_2 C18_2 1_555 1_555
C14_2 C15_2 1_555 1_555
C15_2 H15_2 1_555 1_555
C16_2 C15_2 1_555 1_555
C17_2 C16_2 1_555 1_555
H16_2 C17_2 1_555 1_555
C18_2 C17_2 1_555 1_555
C19_2 C14_2 1_555 1_555
H17_2 C19_2 1_555 1_555
C20_2 C14_2 1_555 1_555
C21_2 C16_2 1_555 1_555
C22_2 O5_2 1_555 1_555
H18_2 C22_2 1_555 1_555
H19_2 C22_2 1_555 1_555
C23_2 C22_2 1_555 1_555
H21_2 C23_2 1_555 1_555
Zn3_2 O3_2 1_555 1_555
O4_2 Zn3_2 1_555 1_555
C18_2 C19_2 1_555 1_555
N2_2 C9_2 1_555 1_555
C9_2 H11_2 1_555 1_555
C10_2 C9_2 1_555 1_555
H12_2 C10_2 1_555 1_555
C12_2 C11_2 1_555 1_555
H13_2 C12_2 1_555 1_555
C13_2 N2_2 1_555 1_555
H14_2 C13_2 1_555 1_555
Zn2_2 N2_2 1_555 1_555
C10_2 C11_2 1_555 1_555
C12_2 C13_2 1_555 1_555
Zn2 O1_3 1_555 1_555
O1_3 C20_3 1_555 1_555
N1 Zn2 1_555 1_555
N2_3 C9_3 1_555 1_555
C1 N1 1_555 1_555
H1 C1 1_555 1_555
C2 C1 1_555 1_555
H2 C2 1_555 1_555
C3 C2 1_555 1_555
C4 C3 1_555 1_555
H3 C4 1_555 1_555
C5 N1 1_555 1_555
H4 C5 1_555 1_555
C6 C3 1_555 1_555
H5 C6 1_555 1_555
H6 C6 1_555 1_555
C7 C6 1_555 1_555
H7 C7 1_555 1_555
H8 C7 1_555 1_555
C8 C7 1_555 1_555
H9 C8 1_555 1_555
H10 C8 1_555 1_555
C9_3 H11_3 1_555 1_555
C10_3 C9_3 1_555 1_555
H12_3 C10_3 1_555 1_555
C11_3 C8 1_555 1_555
C12_3 C11_3 1_555 1_555
H13_3 C12_3 1_555 1_555
C13_3 N2_3 1_555 1_555
H14_3 C13_3 1_555 1_555
Zn2_3 N2_3 1_555 1_555
O6 Zn2 1_555 1_555
O7_3 Zn2 1_555 1_555
C4 C5 1_555 1_555
C10_3 C11_3 1_555 1_555
C12_3 C13_3 1_555 1_555
O7_2 C21_3 1_555 1_555
C17_3 C16_3 1_555 1_555
H16_3 C17_3 1_555 1_555
C21_3 C16_3 1_555 1_555
H18_3 C22_3 1_555 1_555
H19_3 C22_3 1_555 1_555
C23_3 C22_3 1_555 1_555
H20 C23_3 1_555 1_555
H21_3 C23_3 1_555 1_555
Zn1 O1_4 1_555 1_555
O1_4 C20_4 1_555 1_555
N1_2 Zn1 1_555 1_555
N2_4 C9_4 1_555 1_555
C1_2 N1_2 1_555 1_555
H1_2 C1_2 1_555 1_555
C2_2 C1_2 1_555 1_555
H2_2 C2_2 1_555 1_555
C3_2 C2_2 1_555 1_555
C4_2 C3_2 1_555 1_555
H3_2 C4_2 1_555 1_555
C5_2 N1_2 1_555 1_555
H4_2 C5_2 1_555 1_555
C6_2 C3_2 1_555 1_555
H5_2 C6_2 1_555 1_555
H6_2 C6_2 1_555 1_555
C7_2 C6_2 1_555 1_555
H7_2 C7_2 1_555 1_555
H8_2 C7_2 1_555 1_555
C8_2 C7_2 1_555 1_555
H9_2 C8_2 1_555 1_555
H10_2 C8_2 1_555 1_555
C9_4 H11_4 1_555 1_555
C10_4 C9_4 1_555 1_555
H12_4 C10_4 1_555 1_555
C11_4 C8_2 1_555 1_555
C12_4 C11_4 1_555 1_555
H13_4 C12_4 1_555 1_555
C13_4 N2_4 1_555 1_555
H14_4 C13_4 1_555 1_555
Zn2_4 N2_4 1_555 1_555
Zn3_3 O3_3 1_555 1_555
O6_2 Zn1 1_555 1_555
O7_4 Zn1 1_555 1_555
N3 Zn1 1_555 1_555
C4_2 C5_2 1_555 1_555
C10_4 C11_4 1_555 1_555
C12_4 C13_4 1_555 1_555
O4_3 C21_4 1_555 1_555
O5_3 C18_3 1_555 1_555
C14_3 C15_3 1_555 1_555
C16_4 C15_3 1_555 1_555
C17_4 C16_4 1_555 1_555
H16_4 C17_4 1_555 1_555
C18_3 C17_4 1_555 1_555
C19_3 C14_3 1_555 1_555
H17_3 C19_3 1_555 1_555
C21_4 C16_4 1_555 1_555
C22_4 O5_3 1_555 1_555
H18_4 C22_4 1_555 1_555
H19_4 C22_4 1_555 1_555
C23_4 C22_4 1_555 1_555
H20_2 C23_4 1_555 1_555
H21_4 C23_4 1_555 1_555
H22 C23_4 1_555 1_555
C18_3 C19_3 1_555 1_555
Zn2_3 O1_5 1_555 1_555
O1_5 C20_5 1_555 1_555
O2_4 C20_5 1_555 1_555
O6_2 C21_5 1_555 1_555
O7_4 C21_5 1_555 1_555
N1_3 Zn2_3 1_555 1_555
N2_5 C9_5 1_555 1_555
C1_3 N1_3 1_555 1_555
H1_3 C1_3 1_555 1_555
C2_3 C1_3 1_555 1_555
H2_3 C2_3 1_555 1_555
C5_3 N1_3 1_555 1_555
H4_3 C5_3 1_555 1_555
C9_5 H11_5 1_555 1_555
C10_5 C9_5 1_555 1_555
H12_5 C10_5 1_555 1_555
C12_5 C11_5 1_555 1_555
H13_5 C12_5 1_555 1_555
C13_5 N2_5 1_555 1_555
H14_5 C13_5 1_555 1_555
C14_4 C15_4 1_555 1_555
C15_4 H15_5 1_555 1_555
C16_5 C15_4 1_555 1_555
C19_4 C14_4 1_555 1_555
C20_5 C14_4 1_555 1_555
C21_5 C16_5 1_555 1_555
Zn2_5 N2_5 1_555 1_555
O6_3 Zn2_3 1_555 1_555
O7_5 Zn2_3 1_555 1_555
C10_5 C11_5 1_555 1_555
C12_5 C13_5 1_555 1_555
Zn1_2 O1_6 1_555 1_555
O1_6 C20_6 1_555 1_555
O2_5 C20_6 1_555 1_555
O3_4 C21_6 1_555 1_555
O4_4 C21_6 1_555 1_555
N1_4 Zn1_2 1_555 1_555
N2_6 C9_6 1_555 1_555
C1_4 N1_4 1_555 1_555
H1_4 C1_4 1_555 1_555
C2_4 C1_4 1_555 1_555
H2_4 C2_4 1_555 1_555
C5_4 N1_4 1_555 1_555
H4_4 C5_4 1_555 1_555
C9_6 H11_6 1_555 1_555
C10_6 C9_6 1_555 1_555
H12_6 C10_6 1_555 1_555
C12_6 C11_6 1_555 1_555
H13_6 C12_6 1_555 1_555
C13_6 N2_6 1_555 1_555
H14_6 C13_6 1_555 1_555
C14_5 C15_5 1_555 1_555
C15_5 H15_6 1_555 1_555
C16_6 C15_5 1_555 1_555
C19_5 C14_5 1_555 1_555
C20_6 C14_5 1_555 1_555
C21_6 C16_6 1_555 1_555
Zn2_6 N2_6 1_555 1_555
Zn3_4 O3_4 1_555 1_555
O6_4 Zn1_2 1_555 1_555
O7_6 Zn1_2 1_555 1_555
N3_2 Zn1_2 1_555 1_555
O4_4 Zn3_4 1_555 1_555
C10_6 C11_6 1_555 1_555
C12_6 C13_6 1_555 1_555
Zn2_5 O1_7 1_555 1_555
O1_7 C20_7 1_555 1_555
O2_6 C20_7 1_555 1_555
O5_4 C18_4 1_555 1_555
N1_5 Zn2_5 1_555 1_555
C1_5 N1_5 1_555 1_555
H1_5 C1_5 1_555 1_555
C14_6 C15_6 1_555 1_555
C15_6 H15_7 1_555 1_555
C19_6 C14_6 1_555 1_555
H17_4 C19_6 1_555 1_555
C20_7 C14_6 1_555 1_555
O6_5 Zn2_5 1_555 1_555
O7_7 Zn2_5 1_555 1_555
C18_4 C19_6 1_555 1_555
O6_4 C21_7 1_555 1_555
O7_6 C21_7 1_555 1_555
C17_5 C16_7 1_555 1_555
H16_5 C17_5 1_555 1_555
C21_7 C16_7 1_555 1_555
N2_7 C9_7 1_555 1_555
H2_5 C2_5 1_555 1_555
C3_3 C2_5 1_555 1_555
C4_3 C3_3 1_555 1_555
H3_3 C4_3 1_555 1_555
H4_5 C5_5 1_555 1_555
C6_3 C3_3 1_555 1_555
H5_3 C6_3 1_555 1_555
H6_3 C6_3 1_555 1_555
C7_3 C6_3 1_555 1_555
H7_3 C7_3 1_555 1_555
H8_3 C7_3 1_555 1_555
C8_3 C7_3 1_555 1_555
H9_3 C8_3 1_555 1_555
H10_5 C8_3 1_555 1_555
C9_7 H11_7 1_555 1_555
C10_7 C9_7 1_555 1_555
H12_7 C10_7 1_555 1_555
C11_7 C8_3 1_555 1_555
C12_7 C11_7 1_555 1_555
H13_7 C12_7 1_555 1_555
C13_7 N2_7 1_555 1_555
H14_7 C13_7 1_555 1_555
Zn2_7 N2_7 1_555 1_555
C4_3 C5_5 1_555 1_555
C10_7 C11_7 1_555 1_555
C12_7 C13_7 1_555 1_555
Zn3 O1_8 1_555 1_555
O1_8 C20_8 1_555 1_555
O2_7 C20_8 1_555 1_555
O3_5 C21_8 1_555 1_555
O4_5 C21_8 1_555 1_555
O5_5 C18_5 1_555 1_555
N1_6 Zn3 1_555 1_555
C1_6 N1_6 1_555 1_555
H1_6 C1_6 1_555 1_555
C14_7 C15_7 1_555 1_555
C15_7 H15_8 1_555 1_555
C16_8 C15_7 1_555 1_555
C17_6 C16_8 1_555 1_555
H16_6 C17_6 1_555 1_555
C18_5 C17_6 1_555 1_555
C19_7 C14_7 1_555 1_555
H17_5 C19_7 1_555 1_555
C20_8 C14_7 1_555 1_555
C21_8 C16_8 1_555 1_555
Zn3_5 O3_5 1_555 1_555
N3_3 Zn3 1_555 1_555
O4_5 Zn3_5 1_555 1_555
C18_5 C19_7 1_555 1_555
N2_8 C9_8 1_555 1_555
C9_8 H11_8 1_555 1_555
C10_8 C9_8 1_555 1_555
H12_8 C10_8 1_555 1_555
C12_8 C11_8 1_555 1_555
H13_8 C12_8 1_555 1_555
C13_8 N2_8 1_555 1_555
H14_8 C13_8 1_555 1_555
Zn3_2 N2_8 1_555 1_555
C10_8 C11_8 1_555 1_555
C12_8 C13_8 1_555 1_555
Zn3_5 O1_9 1_555 1_555
O1_9 C20_9 1_555 1_555
O2_8 C20_9 1_555 1_555
O3_6 C21_9 1_555 1_555
O4_6 C21_9 1_555 1_555
N1_7 Zn3_5 1_555 1_555
C1_7 N1_7 1_555 1_555
H1_7 C1_7 1_555 1_555
C2_6 C1_7 1_555 1_555
H2_6 C2_6 1_555 1_555
C5_6 N1_7 1_555 1_555
H4_6 C5_6 1_555 1_555
C14_8 C15_8 1_555 1_555
C15_8 H15_9 1_555 1_555
C16_9 C15_8 1_555 1_555
C19_8 C14_8 1_555 1_555
C20_9 C14_8 1_555 1_555
C21_9 C16_9 1_555 1_555
Zn2_2 O3_6 1_555 1_555
N3_4 Zn3_5 1_555 1_555
O4_6 Zn2_2 1_555 1_555
Zn2_4 O1_10 1_555 1_555
O1_10 C20_10 1_555 1_555
O2_9 C20_10 1_555 1_555
O6 C21_10 1_555 1_555
O7_3 C21_10 1_555 1_555
N1_8 Zn2_4 1_555 1_555
C1_8 N1_8 1_555 1_555
H1_8 C1_8 1_555 1_555
C2_7 C1_8 1_555 1_555
H2_7 C2_7 1_555 1_555
C5_7 N1_8 1_555 1_555
H4_7 C5_7 1_555 1_555
C14_9 C15_9 1_555 1_555
C15_9 H15_10 1_555 1_555
C16_10 C15_9 1_555 1_555
C19_9 C14_9 1_555 1_555
C20_10 C14_9 1_555 1_555
C21_10 C16_10 1_555 1_555
O6_6 Zn2_4 1_555 1_555
O7_8 Zn2_4 1_555 1_555
N3_3 C9_9 1_555 1_555
C9_9 H11_9 1_555 1_555
C10_9 C9_9 1_555 1_555
H12_9 C10_9 1_555 1_555
C12_9 C11_9 1_555 1_555
H13_9 C12_9 1_555 1_555
C13_9 N3_3 1_555 1_555
H14_9 C13_9 1_555 1_555
C10_9 C11_9 1_555 1_555
C12_9 C13_9 1_555 1_555
N2_9 C9_10 1_555 1_555
H2_8 C2_8 1_555 1_555
C3_4 C2_8 1_555 1_555
C4_4 C3_4 1_555 1_555
H3_4 C4_4 1_555 1_555
H4_8 C5_8 1_555 1_555
C6_4 C3_4 1_555 1_555
H5_4 C6_4 1_555 1_555
H6_4 C6_4 1_555 1_555
C7_4 C6_4 1_555 1_555
H7_4 C7_4 1_555 1_555
H8_4 C7_4 1_555 1_555
C8_4 C7_4 1_555 1_555
H9_4 C8_4 1_555 1_555
H10_8 C8_4 1_555 1_555
C9_10 H11_10 1_555 1_555
C10_10 C9_10 1_555 1_555
H12_10 C10_10 1_555 1_555
C11_10 C8_4 1_555 1_555
C12_10 C11_10 1_555 1_555
H13_10 C12_10 1_555 1_555
C13_10 N2_9 1_555 1_555
H14_10 C13_10 1_555 1_555
Zn3_3 N2_9 1_555 1_555
C4_4 C5_8 1_555 1_555
C10_10 C11_10 1_555 1_555
C12_10 C13_10 1_555 1_555
Zn3_2 O1_11 1_555 1_555
O1_11 C20_11 1_555 1_555
O2_10 C20_11 1_555 1_555
O6_6 C21_11 1_555 1_555
O7_8 C21_11 1_555 1_555
O5_6 C18_6 1_555 1_555
N1_9 Zn3_2 1_555 1_555
C1_9 N1_9 1_555 1_555
H1_9 C1_9 1_555 1_555
C14_10 C15_10 1_555 1_555
C15_10 H15_11 1_555 1_555
C16_11 C15_10 1_555 1_555
C17_7 C16_11 1_555 1_555
H16_7 C17_7 1_555 1_555
C18_6 C17_7 1_555 1_555
C19_10 C14_10 1_555 1_555
H17_6 C19_10 1_555 1_555
C20_11 C14_10 1_555 1_555
C21_11 C16_11 1_555 1_555
C18_6 C19_10 1_555 1_555
O6_3 C21_12 1_555 1_555
O7_5 C21_12 1_555 1_555
C17_8 C16_12 1_555 1_555
H16_8 C17_8 1_555 1_555
C21_12 C16_12 1_555 1_555
Zn2_6 O1_12 1_555 1_555
O1_12 C20_12 1_555 1_555
O2_11 C20_12 1_555 1_555
O5_7 C18_7 1_555 1_555
N1_10 Zn2_6 1_555 1_555
C1_10 N1_10 1_555 1_555
H1_10 C1_10 1_555 1_555
C14_11 C15_11 1_555 1_555
C15_11 H15_12 1_555 1_555
C19_11 C14_11 1_555 1_555
H17_7 C19_11 1_555 1_555
C20_12 C14_11 1_555 1_555
O6_7 Zn2_6 1_555 1_555
O7_9 Zn2_6 1_555 1_555
C18_7 C19_11 1_555 1_555
N1_11 Zn3_3 1_555 1_555
N2_10 C9_11 1_555 1_555
C1_11 N1_11 1_555 1_555
H1_11 C1_11 1_555 1_555
C2_9 C1_11 1_555 1_555
H2_9 C2_9 1_555 1_555
C3_5 C2_9 1_555 1_555
C4_5 C3_5 1_555 1_555
H3_5 C4_5 1_555 1_555
C5_9 N1_11 1_555 1_555
H4_9 C5_9 1_555 1_555
C6_5 C3_5 1_555 1_555
H5_5 C6_5 1_555 1_555
H6_5 C6_5 1_555 1_555
C7_5 C6_5 1_555 1_555
H7_5 C7_5 1_555 1_555
H8_5 C7_5 1_555 1_555
C8_5 C7_5 1_555 1_555
H9_5 C8_5 1_555 1_555
H10_9 C8_5 1_555 1_555
C9_11 H11_11 1_555 1_555
C10_11 C9_11 1_555 1_555
H12_11 C10_11 1_555 1_555
C11_11 C8_5 1_555 1_555
C12_11 C11_11 1_555 1_555
H13_11 C12_11 1_555 1_555
C13_11 N2_10 1_555 1_555
H14_11 C13_11 1_555 1_555
Zn3_4 N2_10 1_555 1_555
C4_5 C5_9 1_555 1_555
C10_11 C11_11 1_555 1_555
C12_11 C13_11 1_555 1_555
O1_13 C20_13 1_555 1_555
O2_12 C20_13 1_555 1_555
O6_7 C21_13 1_555 1_555
O7_9 C21_13 1_555 1_555
O5_8 C18_8 1_555 1_555
C14_12 C15_12 1_555 1_555
C15_12 H15_13 1_555 1_555
C16_13 C15_12 1_555 1_555
C17_9 C16_13 1_555 1_555
H16_9 C17_9 1_555 1_555
C18_8 C17_9 1_555 1_555
C19_12 C14_12 1_555 1_555
H17_8 C19_12 1_555 1_555
C20_13 C14_12 1_555 1_555
C21_13 C16_13 1_555 1_555
C22_5 O5_8 1_555 1_555
H18_5 C22_5 1_555 1_555
H19_5 C22_5 1_555 1_555
C23_5 C22_5 1_555 1_555
H21_5 C23_5 1_555 1_555
C18_8 C19_12 1_555 1_555
N1_12 Zn2_7 1_555 1_555
N3 C9_12 1_555 1_555
C1_12 N1_12 1_555 1_555
H1_12 C1_12 1_555 1_555
C2_10 C1_12 1_555 1_555
H2_10 C2_10 1_555 1_555
C3_6 C2_10 1_555 1_555
C4_6 C3_6 1_555 1_555
H3_6 C4_6 1_555 1_555
C5_10 N1_12 1_555 1_555
H4_10 C5_10 1_555 1_555
C6_6 C3_6 1_555 1_555
H5_6 C6_6 1_555 1_555
H6_6 C6_6 1_555 1_555
C7_6 C6_6 1_555 1_555
H7_6 C7_6 1_555 1_555
H8_6 C7_6 1_555 1_555
C8_6 C7_6 1_555 1_555
H9_6 C8_6 1_555 1_555
H10_10 C8_6 1_555 1_555
C9_12 H11_12 1_555 1_555
C10_12 C9_12 1_555 1_555
H12_12 C10_12 1_555 1_555
C11_12 C8_6 1_555 1_555
C12_12 C11_12 1_555 1_555
H13_12 C12_12 1_555 1_555
C13_12 N3 1_555 1_555
H14_12 C13_12 1_555 1_555
O6_8 Zn2_7 1_555 1_555
C4_6 C5_10 1_555 1_555
C10_12 C11_12 1_555 1_555
C12_12 C13_12 1_555 1_555
O1_14 C20_14 1_555 1_555
O2_13 C20_14 1_555 1_555
O6_5 C21_14 1_555 1_555
O7_7 C21_14 1_555 1_555
O5_9 C18_9 1_555 1_555
C14_13 C15_13 1_555 1_555
C15_13 H15_14 1_555 1_555
C16_14 C15_13 1_555 1_555
C17_10 C16_14 1_555 1_555
H16_10 C17_10 1_555 1_555
C18_9 C17_10 1_555 1_555
C19_13 C14_13 1_555 1_555
H17_9 C19_13 1_555 1_555
C20_14 C14_13 1_555 1_555
C21_14 C16_14 1_555 1_555
C22_6 O5_9 1_555 1_555
H18_6 C22_6 1_555 1_555
H19_6 C22_6 1_555 1_555
C23_6 C22_6 1_555 1_555
H21_6 C23_6 1_555 1_555
C18_9 C19_13 1_555 1_555
Zn3_4 O1_15 1_555 1_555
O1_15 C20_15 1_555 1_555
N1_13 Zn3_4 1_555 1_555
N3_4 C9_13 1_555 1_555
C1_13 N1_13 1_555 1_555
H1_13 C1_13 1_555 1_555
C2_11 C1_13 1_555 1_555
H2_11 C2_11 1_555 1_555
C3_7 C2_11 1_555 1_555
C4_7 C3_7 1_555 1_555
H3_7 C4_7 1_555 1_555
C5_11 N1_13 1_555 1_555
H4_11 C5_11 1_555 1_555
C6_7 C3_7 1_555 1_555
H5_7 C6_7 1_555 1_555
H6_7 C6_7 1_555 1_555
C7_7 C6_7 1_555 1_555
H7_7 C7_7 1_555 1_555
H8_7 C7_7 1_555 1_555
C8_7 C7_7 1_555 1_555
H9_7 C8_7 1_555 1_555
H10_11 C8_7 1_555 1_555
C9_13 H11_13 1_555 1_555
C10_13 C9_13 1_555 1_555
H12_13 C10_13 1_555 1_555
C11_13 C8_7 1_555 1_555
C12_13 C11_13 1_555 1_555
H13_13 C12_13 1_555 1_555
C13_13 N3_4 1_555 1_555
H14_13 C13_13 1_555 1_555
C4_7 C5_11 1_555 1_555
C10_13 C11_13 1_555 1_555
C12_13 C13_13 1_555 1_555
O7_10 C21_15 1_555 1_555
O5_10 C18_10 1_555 1_555
C14_14 C15_14 1_555 1_555
C16_15 C15_14 1_555 1_555
C17_11 C16_15 1_555 1_555
H16_11 C17_11 1_555 1_555
C18_10 C17_11 1_555 1_555
C19_14 C14_14 1_555 1_555
H17_10 C19_14 1_555 1_555
C21_15 C16_15 1_555 1_555
C22_7 O5_10 1_555 1_555
H18_7 C22_7 1_555 1_555
H19_7 C22_7 1_555 1_555
C23_7 C22_7 1_555 1_555
H20_3 C23_7 1_555 1_555
H21_7 C23_7 1_555 1_555
H22_2 C23_7 1_555 1_555
C18_10 C19_14 1_555 1_555
O7 C21_16 1_555 1_555
C17_12 C16_16 1_555 1_555
H16_12 C17_12 1_555 1_555
C21_16 C16_16 1_555 1_555
H18_8 C22_8 1_555 1_555
H19_8 C22_8 1_555 1_555
C23_8 C22_8 1_555 1_555
H20_4 C23_8 1_555 1_555
H21_8 C23_8 1_555 1_555
Zn2_2 O1_16 1_555 1_555
O1_16 C20_16 1_555 1_555
N1_14 Zn2_2 1_555 1_555
N3_2 C9_14 1_555 1_555
C1_14 N1_14 1_555 1_555
H1_14 C1_14 1_555 1_555
C2_12 C1_14 1_555 1_555
H2_12 C2_12 1_555 1_555
C3_8 C2_12 1_555 1_555
C4_8 C3_8 1_555 1_555
H3_8 C4_8 1_555 1_555
C5_12 N1_14 1_555 1_555
H4_12 C5_12 1_555 1_555
C6_8 C3_8 1_555 1_555
H5_8 C6_8 1_555 1_555
H6_8 C6_8 1_555 1_555
C7_8 C6_8 1_555 1_555
H7_8 C7_8 1_555 1_555
H8_8 C7_8 1_555 1_555
C8_8 C7_8 1_555 1_555
H9_8 C8_8 1_555 1_555
H10_12 C8_8 1_555 1_555
C9_14 H11_14 1_555 1_555
C10_14 C9_14 1_555 1_555
H12_14 C10_14 1_555 1_555
C11_14 C8_8 1_555 1_555
C12_14 C11_14 1_555 1_555
H13_14 C12_14 1_555 1_555
C13_14 N3_2 1_555 1_555
H14_14 C13_14 1_555 1_555
C4_8 C5_12 1_555 1_555
C10_14 C11_14 1_555 1_555
C12_14 C13_14 1_555 1_555
N1_15 Zn1_3 1_555 1_555
C1_15 N1_15 1_555 1_555
H1_15 C1_15 1_555 1_555
C2_13 C1_15 1_555 1_555
H2_13 C2_13 1_555 1_555
C3_9 C2_13 1_555 1_555
C4_9 C3_9 1_555 1_555
H3_9 C4_9 1_555 1_555
C5_13 N1_15 1_555 1_555
H4_13 C5_13 1_555 1_555
C6_9 C3_9 1_555 1_555
H5_9 C6_9 1_555 1_555
H6_9 C6_9 1_555 1_555
C7_9 C6_9 1_555 1_555
H7_9 C7_9 1_555 1_555
H8_9 C7_9 1_555 1_555
C8_9 C7_9 1_555 1_555
H9_9 C8_9 1_555 1_555
H10_13 C8_9 1_555 1_555
O6_9 Zn1_3 1_555 1_555
N3_5 Zn1_3 1_555 1_555
C4_9 C5_13 1_555 1_555
N3_5 C9_15 1_555 1_555
H2_14 C2_14 1_555 1_555
C3_10 C2_14 1_555 1_555
C4_10 C3_10 1_555 1_555
H3_10 C4_10 1_555 1_555
H4_14 C5_14 1_555 1_555
C6_10 C3_10 1_555 1_555
H5_10 C6_10 1_555 1_555
H6_10 C6_10 1_555 1_555
C7_10 C6_10 1_555 1_555
H7_10 C7_10 1_555 1_555
H8_10 C7_10 1_555 1_555
C8_10 C7_10 1_555 1_555
H9_10 C8_10 1_555 1_555
H10_14 C8_10 1_555 1_555
C9_15 H11_15 1_555 1_555
C10_15 C9_15 1_555 1_555
H12_15 C10_15 1_555 1_555
C11_15 C8_10 1_555 1_555
C12_15 C11_15 1_555 1_555
H13_15 C12_15 1_555 1_555
C13_15 N3_5 1_555 1_555
H14_15 C13_15 1_555 1_555
C4_10 C5_14 1_555 1_555
C10_15 C11_15 1_555 1_555
C12_15 C13_15 1_555 1_555
N1_16 Zn1_4 1_555 1_555
C1_16 N1_16 1_555 1_555
H1_16 C1_16 1_555 1_555
C2_15 C1_16 1_555 1_555
H2_15 C2_15 1_555 1_555
C3_11 C2_15 1_555 1_555
C4_11 C3_11 1_555 1_555
H3_11 C4_11 1_555 1_555
C5_15 N1_16 1_555 1_555
H4_15 C5_15 1_555 1_555
C6_11 C3_11 1_555 1_555
H5_11 C6_11 1_555 1_555
H6_11 C6_11 1_555 1_555
C7_11 C6_11 1_555 1_555
H7_11 C7_11 1_555 1_555
H8_11 C7_11 1_555 1_555
C8_11 C7_11 1_555 1_555
H9_11 C8_11 1_555 1_555
H10_15 C8_11 1_555 1_555
O6_10 Zn1_4 1_555 1_555
N3_6 Zn1_4 1_555 1_555
C4_11 C5_15 1_555 1_555
N3_6 C9_16 1_555 1_555
H2_16 C2_16 1_555 1_555
C3_12 C2_16 1_555 1_555
C4_12 C3_12 1_555 1_555
H3_12 C4_12 1_555 1_555
H4_16 C5_16 1_555 1_555
C6_12 C3_12 1_555 1_555
H5_12 C6_12 1_555 1_555
H6_12 C6_12 1_555 1_555
C7_12 C6_12 1_555 1_555
H7_12 C7_12 1_555 1_555
H8_12 C7_12 1_555 1_555
C8_12 C7_12 1_555 1_555
H9_12 C8_12 1_555 1_555
H10_16 C8_12 1_555 1_555
C9_16 H11_16 1_555 1_555
C10_16 C9_16 1_555 1_555
H12_16 C10_16 1_555 1_555
C11_16 C8_12 1_555 1_555
C12_16 C11_16 1_555 1_555
H13_16 C12_16 1_555 1_555
C13_16 N3_6 1_555 1_555
H14_16 C13_16 1_555 1_555
C4_12 C5_16 1_555 1_555
C10_16 C11_16 1_555 1_555
C12_16 C13_16 1_555 1_555
O5_11 C18_11 1_555 1_555
C14_15 C15_15 1_555 1_555
C19_15 C14_15 1_555 1_555
H17_11 C19_15 1_555 1_555
C18_11 C19_15 1_555 1_555
C4_13 C3_13 1_555 1_555
H3_13 C4_13 1_555 1_555
C6_13 C3_13 1_555 1_555
H5_13 C6_13 1_555 1_555
H6_13 C6_13 1_555 1_555
C7_13 C6_13 1_555 1_555
H7_13 C7_13 1_555 1_555
H8_13 C7_13 1_555 1_555
C8_13 C7_13 1_555 1_555
H9_13 C8_13 1_555 1_555
O5_12 C18_12 1_555 1_555
H16_13 C17_13 1_555 1_555
C18_12 C17_13 1_555 1_555
C22_9 O5_12 1_555 1_555
H18_9 C22_9 1_555 1_555
H19_9 C22_9 1_555 1_555
C23_9 C22_9 1_555 1_555
H20_7 C23_9 1_555 1_555
H21_9 C23_9 1_555 1_555
H22_6 C23_9 1_555 1_555
C4_14 C3_14 1_555 1_555
H3_14 C4_14 1_555 1_555
C6_14 C3_14 1_555 1_555
H5_14 C6_14 1_555 1_555
H6_14 C6_14 1_555 1_555
C7_14 C6_14 1_555 1_555
H7_14 C7_14 1_555 1_555
H8_14 C7_14 1_555 1_555
C8_14 C7_14 1_555 1_555
H9_14 C8_14 1_555 1_555
O5_13 C18_13 1_555 1_555
H16_14 C17_14 1_555 1_555
C18_13 C17_14 1_555 1_555
C22_10 O5_13 1_555 1_555
H18_10 C22_10 1_555 1_555
H19_10 C22_10 1_555 1_555
C23_10 C22_10 1_555 1_555
H20_8 C23_10 1_555 1_555
H21_10 C23_10 1_555 1_555
H22_7 C23_10 1_555 1_555
H18_11 C22_11 1_555 1_555
H19_11 C22_11 1_555 1_555
C23_11 C22_11 1_555 1_555
H20_9 C23_11 1_555 1_555
H21_11 C23_11 1_555 1_555
H18_12 C22_12 1_555 1_555
H19_12 C22_12 1_555 1_555
C23_12 C22_12 1_555 1_555
H20_10 C23_12 1_555 1_555
H21_12 C23_12 1_555 1_555
H22_9 C23_12 1_555 1_555
C4_15 C3_15 1_555 1_555
H3_15 C4_15 1_555 1_555
C6_15 C3_15 1_555 1_555
H5_15 C6_15 1_555 1_555
H6_15 C6_15 1_555 1_555
C7_15 C6_15 1_555 1_555
H7_15 C7_15 1_555 1_555
H8_15 C7_15 1_555 1_555
C8_15 C7_15 1_555 1_555
H9_15 C8_15 1_555 1_555
O5_14 C18_14 1_555 1_555
H16_15 C17_15 1_555 1_555
C18_14 C17_15 1_555 1_555
C22_13 O5_14 1_555 1_555
H18_13 C22_13 1_555 1_555
H19_13 C22_13 1_555 1_555
C23_13 C22_13 1_555 1_555
H20_11 C23_13 1_555 1_555
H21_13 C23_13 1_555 1_555
H22_10 C23_13 1_555 1_555
C4_16 C3_16 1_555 1_555
H3_16 C4_16 1_555 1_555
C6_16 C3_16 1_555 1_555
H5_16 C6_16 1_555 1_555
H6_16 C6_16 1_555 1_555
C7_16 C6_16 1_555 1_555
H7_16 C7_16 1_555 1_555
H8_16 C7_16 1_555 1_555
C8_16 C7_16 1_555 1_555
H9_16 C8_16 1_555 1_555
O5_15 C18_15 1_555 1_555
H16_16 C17_16 1_555 1_555
C18_15 C17_16 1_555 1_555
C22_14 O5_15 1_555 1_555
H18_14 C22_14 1_555 1_555
H19_14 C22_14 1_555 1_555
C23_14 C22_14 1_555 1_555
H20_12 C23_14 1_555 1_555
H21_14 C23_14 1_555 1_555
H22_11 C23_14 1_555 1_555
H18_15 C22_15 1_555 1_555
H19_15 C22_15 1_555 1_555
C23_15 C22_15 1_555 1_555
H20_13 C23_15 1_555 1_555
H21_15 C23_15 1_555 1_555
H22_12 C23_15 1_555 1_555
H18_16 C22_16 1_555 1_555
H19_16 C22_16 1_555 1_555
C23_16 C22_16 1_555 1_555
H20_14 C23_16 1_555 1_555
H21_16 C23_16 1_555 1_555
O5_16 C18_16 1_555 1_555
C14_16 C15_16 1_555 1_555
C19_16 C14_16 1_555 1_555
H17_16 C19_16 1_555 1_555
C18_16 C19_16 1_555 1_555

#END
