
###############################################################################
#
# This file contains modified crystal structure data generated from the
# MOF subset of the Cambridge Structural Database (CSD) v543 
# hosted by the Cambridge Crystallographic Data Centre (CCDC).
#
# This work is licensed under the Creative Commons
# Attribution-NonCommercial-ShareAlike 4.0 International License.
# To view a copy of this license, visit
# http://creativecommons.org/licenses/by-nc-sa/4.0/
# or send a letter to
# Creative Commons, PO Box 1866, Mountain View, CA 94042, USA.
#
# CIF created using the CSD Python API on 29 September 2022
# The structure has been converted into the P1 space group
# The structure has a 3D framework
# The original CSD entry ZIQQAU is in the tetragonal crystal system
# The framework has been calculated to contain at least 10.0% void space
# The void calculation uses a probe of radius 1.32A, grid spacing 0.4
#
###############################################################################

data_ZIQQAU
_chemical_formula_moiety         '(C352 H448 N32 Na32 O88 Si16)n'
_symmetry_cell_setting           triclinic
_symmetry_space_group_name_H-M   'P 1'
_symmetry_Int_Tables_number      1
_space_group_name_Hall           'P 1'
loop_
_symmetry_equiv_pos_site_id
_symmetry_equiv_pos_as_xyz
1 x,y,z
_cell_length_a                   41.7666(5)
_cell_length_b                   41.7666(5)
_cell_length_c                   6.46090(10)
_cell_angle_alpha                90
_cell_angle_beta                 90
_cell_angle_gamma                90
_cell_volume                     11270.7
loop_
_atom_site_label
_atom_site_type_symbol
_atom_site_fract_x
_atom_site_fract_y
_atom_site_fract_z
N1 N 0.35908(3) 0.68087(3) 0.1718(2)
C18 C 0.34125(4) 0.70137(4) 0.0635(3)
H16 H 0.335169 0.720727 0.129867
C19 C 0.36848(4) 0.65032(4) 0.0850(3)
H17 H 0.359021 0.632976 0.166793
H18 H 0.391865 0.648456 0.087686
C20 C 0.36719(5) 0.68704(5) 0.3871(3)
H20 H 0.358182 0.707694 0.429431
H21 H 0.390522 0.687568 0.402657
H22 H 0.358319 0.670012 0.474317
O11 O 0.26120(2) 0.70495(2) 0.16789(15)
O14 O 0.29861(2) 0.76627(2) 0.02462(15)
Si1 Si 0.31866(2) 0.55031(2) 0.22812(6)
Na1 Na 0.27886(2) 0.71950(2) 0.83101(8)
O1 O 0.47467(2) 0.52873(2) 0.53951(15)
O2 O 0.28153(3) 0.70628(2) 0.48667(15)
O4 O 0.48373(2) 0.54861(2) 0.22538(15)
O5 O 0.33205(3) 0.69728(3) 0.88511(17)
C1 C 0.42967(3) 0.54451(3) 0.3386(2)
C2 C 0.30267(3) 0.59207(3) 0.2647(2)
C3 C 0.28284(3) 0.65662(3) 0.3063(2)
C4 C 0.28900(3) 0.60884(3) 0.0992(2)
C5 C 0.27423(3) 0.69197(3) 0.3227(2)
C6 C 0.36296(3) 0.54972(3) 0.2766(2)
C7 C 0.27927(3) 0.64059(3) 0.1198(2)
H2 H 0.270092 0.651384 0.004725
C8 C 0.46541(3) 0.54027(3) 0.3694(2)
C9 C 0.40853(3) 0.53700(3) 0.4973(2)
H3 H 0.416547 0.530203 0.627698
C10 C 0.37569(3) 0.53938(3) 0.4661(2)
H4 H 0.361540 0.533887 0.575632
C11 C 0.29973(3) 0.52072(3) 0.4052(2)
H5 H 0.301541 0.528284 0.548270
H6 H 0.310601 0.500037 0.391491
H7 H 0.277077 0.518262 0.368982
C12 C 0.30551(3) 0.60850(3) 0.4528(2)
H8 H 0.314229 0.597667 0.569129
C13 C 0.38467(3) 0.55786(3) 0.1210(2)
C15 C 0.41761(3) 0.55535(3) 0.1501(2)
H13 H 0.431853 0.561032 0.041534
C16 C 0.29590(4) 0.64029(3) 0.4741(2)
H14 H 0.298278 0.650846 0.603479
H19 H 0.360912 0.648861 0.941717
Na4 Na 0.46950(2) 0.47114(2) 0.58101(8)
Na5 Na 0.53050(2) 0.52886(2) 0.41899(8)
Na6 Na 0.48925(2) 0.53448(2) 0.88259(8)
Na7 Na 0.21552(2) 0.73925(2) 0.13259(8)
Na8 Na 0.28448(2) 0.76075(2) 0.36741(8)
O8 O 0.22127(2) 0.72467(2) 0.78951(15)
O9 O 0.27873(2) 0.77533(2) 0.71049(15)
O13 O 0.54505(2) 0.51120(2) 0.08211(15)
O6 O 0.47931(3) 0.59165(3) 0.81687(17)
N2 N 0.45622(3) 0.61532(3) 0.5362(2)
H1 H 0.286291 0.598343 0.969908
H9 H 0.376768 0.565313 0.991855
C14 C 0.31101(3) 0.53774(3) 0.9557(2)
H10 H 0.287877 0.536542 0.931577
H11 H 0.320637 0.516669 0.931472
H12 H 0.320501 0.553393 0.860818
C17 C 0.48030(4) 0.60093(4) 0.6359(3)
H15 H 0.499640 0.597605 0.561619
C21 C 0.45954(5) 0.62573(5) 0.3226(3)
H23 H 0.456684 0.648986 0.314852
H24 H 0.443266 0.615162 0.237274
H25 H 0.480895 0.620050 0.271663
C22 C 0.42546(5) 0.62003(5) 0.6352(4)
H26 H 0.408715 0.609630 0.552932
H27 H 0.420949 0.643004 0.645399
H28 H 0.425909 0.610653 0.774189
O10 O 0.54372(2) 0.53153(3) 0.76333(15)
O12 O 0.45495(2) 0.48880(2) 0.91789(15)
Na1_2 Na 0.22114(2) 0.28050(2) 0.33101(8)
O1_2 O 0.02533(2) 0.47127(2) 0.03951(15)
O5_2 O 0.16795(3) 0.30272(3) 0.38511(17)
N1_2 N 0.14092(3) 0.31913(3) 0.6718(2)
H3_2 H 0.083453 0.469797 0.127698
H4_2 H 0.138460 0.466113 0.075632
H5_2 H 0.198459 0.471716 0.048270
H8_2 H 0.185771 0.402333 0.069129
H14_2 H 0.201722 0.349154 0.103479
C18_2 C 0.15875(4) 0.29863(4) 0.5635(3)
H16_2 H 0.164831 0.279273 0.629867
C19_2 C 0.13152(4) 0.34968(4) 0.5850(3)
H17_2 H 0.140979 0.367024 0.666793
H18_2 H 0.108135 0.351544 0.587686
H19_2 H 0.139088 0.351139 0.441717
C20_2 C 0.13281(5) 0.31296(5) 0.8871(3)
H20_2 H 0.141818 0.292306 0.929431
H21_2 H 0.109478 0.312432 0.902657
H22_2 H 0.141681 0.329988 0.974317
Na4_2 Na 0.03050(2) 0.52886(2) 0.08101(8)
Na6_2 Na 0.01075(2) 0.46552(2) 0.38259(8)
O8_2 O 0.27873(2) 0.27533(2) 0.28951(15)
O9_2 O 0.22127(2) 0.22467(2) 0.21049(15)
O11_2 O 0.23880(2) 0.29505(2) 0.66789(15)
O14_2 O 0.20139(2) 0.23373(2) 0.52462(15)
Si1_2 Si 0.18134(2) 0.44969(2) 0.72812(6)
O2_2 O 0.21847(3) 0.29372(2) 0.98667(15)
O4_2 O 0.01627(2) 0.45139(2) 0.72538(15)
O6_2 O 0.02069(3) 0.40835(3) 0.31687(17)
N2_2 N 0.04378(3) 0.38468(3) 0.0362(2)
C1_2 C 0.07033(3) 0.45549(3) 0.8386(2)
C2_2 C 0.19733(3) 0.40793(3) 0.7647(2)
C3_2 C 0.21716(3) 0.34338(3) 0.8063(2)
C4_2 C 0.21100(3) 0.39116(3) 0.5992(2)
H1_2 H 0.213709 0.401657 0.469908
C5_2 C 0.22577(3) 0.30803(3) 0.8227(2)
C6_2 C 0.13704(3) 0.45028(3) 0.7766(2)
C7_2 C 0.22073(3) 0.35941(3) 0.6198(2)
H2_2 H 0.229908 0.348616 0.504725
C8_2 C 0.03459(3) 0.45973(3) 0.8694(2)
C9_2 C 0.09147(3) 0.46300(3) 0.9973(2)
C10_2 C 0.12431(3) 0.46062(3) 0.9661(2)
C11_2 C 0.20027(3) 0.47928(3) 0.9052(2)
H6_2 H 0.189399 0.499963 0.891491
H7_2 H 0.222923 0.481738 0.868982
C12_2 C 0.19449(3) 0.39150(3) 0.9528(2)
C13_2 C 0.11533(3) 0.44214(3) 0.6210(2)
H9_2 H 0.123232 0.434687 0.491855
C14_2 C 0.18899(3) 0.46226(3) 0.4557(2)
H10_2 H 0.212123 0.463458 0.431577
H11_2 H 0.179363 0.483331 0.431472
H12_2 H 0.179499 0.446607 0.360818
C15_2 C 0.08239(3) 0.44465(3) 0.6501(2)
H13_2 H 0.068147 0.438968 0.541534
C16_2 C 0.20410(4) 0.35971(3) 0.9741(2)
C17_2 C 0.01970(4) 0.39907(4) 0.1359(3)
H15_2 H 0.000360 0.402395 0.061619
C22_2 C 0.07454(5) 0.37997(5) 0.1352(4)
H26_2 H 0.091285 0.390370 0.052932
H27_2 H 0.079051 0.356996 0.145399
H28_2 H 0.074091 0.389347 0.274189
Na7_2 Na 0.28448(2) 0.26075(2) 0.63259(8)
Na8_2 Na 0.21552(2) 0.23925(2) 0.86741(8)
O12_2 O 0.04505(2) 0.51120(2) 0.41789(15)
Na5_2 Na 0.96950(2) 0.47114(2) 0.91899(8)
O10_2 O 0.95628(2) 0.46847(3) 0.26333(15)
O13_2 O 0.95495(2) 0.48880(2) 0.58211(15)
O5_3 O 0.05272(3) 0.58205(3) 0.13511(17)
N1_3 N 0.06913(3) 0.60908(3) 0.4218(2)
C18_3 C 0.04863(4) 0.59125(4) 0.3135(3)
H16_3 H 0.029273 0.585169 0.379867
C19_3 C 0.09968(4) 0.61848(4) 0.3350(3)
H17_3 H 0.117024 0.609021 0.416793
H18_3 H 0.101544 0.641865 0.337686
H19_3 H 0.101139 0.610912 0.191717
C20_3 C 0.06296(5) 0.61719(5) 0.6371(3)
H20_3 H 0.042306 0.608182 0.679431
H21_3 H 0.062432 0.640522 0.652657
H22_3 H 0.079988 0.608319 0.724317
Si1_3 Si 0.19969(2) 0.56866(2) 0.47812(6)
O2_3 O 0.04372(2) 0.53153(3) 0.73667(15)
O4_3 O 0.20139(2) 0.73373(2) 0.47538(15)
O6_3 O 0.15835(3) 0.72931(3) 0.06687(17)
C1_3 C 0.20549(3) 0.67967(3) 0.5886(2)
C2_3 C 0.15793(3) 0.55267(3) 0.5147(2)
C3_3 C 0.09338(3) 0.53284(3) 0.5563(2)
C4_3 C 0.14116(3) 0.53900(3) 0.3492(2)
H1_3 H 0.151657 0.536291 0.219908
C5_3 C 0.05803(3) 0.52423(3) 0.5727(2)
C6_3 C 0.20028(3) 0.61296(3) 0.5266(2)
C7_3 C 0.10941(3) 0.52927(3) 0.3698(2)
H2_3 H 0.098616 0.520092 0.254725
C8_3 C 0.20973(3) 0.71541(3) 0.6194(2)
C9_3 C 0.21300(3) 0.65853(3) 0.7473(2)
H3_3 H 0.219797 0.666547 0.877698
C10_3 C 0.21062(3) 0.62569(3) 0.7161(2)
H4_3 H 0.216113 0.611540 0.825632
C11_3 C 0.22928(3) 0.54973(3) 0.6552(2)
H5_3 H 0.221716 0.551541 0.798270
H6_3 H 0.249963 0.560601 0.641491
H7_3 H 0.231738 0.527077 0.618982
C12_3 C 0.14150(3) 0.55551(3) 0.7028(2)
H8_3 H 0.152333 0.564229 0.819129
C13_3 C 0.19214(3) 0.63467(3) 0.3710(2)
H9_3 H 0.184687 0.626768 0.241855
C14_3 C 0.21226(3) 0.56101(3) 0.2057(2)
H10_3 H 0.213458 0.537877 0.181577
H11_3 H 0.233331 0.570637 0.181472
H12_3 H 0.196607 0.570501 0.110818
C15_3 C 0.19465(3) 0.66761(3) 0.4001(2)
H13_3 H 0.188968 0.681853 0.291534
C16_3 C 0.10971(3) 0.54590(4) 0.7241(2)
H14_3 H 0.099154 0.548278 0.853479
H28_3 H 0.139347 0.675909 0.024189
Na5_3 Na 0.22114(2) 0.78050(2) 0.66899(8)
O10_3 O 0.21847(3) 0.79372(2) 0.01333(15)
O13_3 O 0.23880(2) 0.79505(2) 0.33211(15)
N2_3 N 0.13468(3) 0.70622(3) 0.7862(2)
C17_3 C 0.14907(4) 0.73030(4) 0.8859(3)
H15_3 H 0.152395 0.749640 0.811619
C21_2 C 0.12427(5) 0.70954(5) 0.5726(3)
H23_2 H 0.101014 0.706684 0.564852
H24_2 H 0.134838 0.693266 0.487274
H25_2 H 0.129950 0.730895 0.521663
C22_3 C 0.12997(5) 0.67546(5) 0.8852(4)
H26_3 H 0.140370 0.658715 0.802932
H27_3 H 0.106996 0.670949 0.895399
O14_3 O 0.98373(2) 0.54861(2) 0.27462(15)
Na8_3 Na 0.98925(2) 0.53448(2) 0.61741(8)
O9_3 O 0.97467(2) 0.52873(2) 0.96049(15)
O2_4 O 0.45628(2) 0.46847(3) 0.23667(15)
O5_4 O 0.44728(3) 0.41795(3) 0.63511(17)
N1_4 N 0.43087(3) 0.39092(3) 0.9218(2)
C1_4 C 0.29451(3) 0.32033(3) 0.0886(2)
C2_4 C 0.34207(3) 0.44733(3) 0.0147(2)
C3_4 C 0.40662(3) 0.46716(3) 0.0563(2)
C5_4 C 0.44197(3) 0.47577(3) 0.0727(2)
C6_4 C 0.29972(3) 0.38704(3) 0.0266(2)
C8_4 C 0.29027(3) 0.28459(3) 0.1194(2)
C9_4 C 0.28700(3) 0.34147(3) 0.2473(2)
H3_4 H 0.280203 0.333453 0.377698
C10_4 C 0.28938(3) 0.37431(3) 0.2161(2)
H4_4 H 0.283887 0.388460 0.325632
C11_4 C 0.27072(3) 0.45027(3) 0.1552(2)
H5_4 H 0.278284 0.448459 0.298270
H6_4 H 0.250037 0.439399 0.141491
H7_4 H 0.268262 0.472923 0.118982
C12_4 C 0.35850(3) 0.44449(3) 0.2028(2)
H8_4 H 0.347667 0.435771 0.319129
C16_4 C 0.39029(3) 0.45410(4) 0.2241(2)
H14_4 H 0.400846 0.451722 0.353479
C18_4 C 0.45137(4) 0.40875(4) 0.8135(3)
H16_4 H 0.470727 0.414831 0.879867
C19_4 C 0.40032(4) 0.38152(4) 0.8350(3)
H17_4 H 0.382976 0.390979 0.916793
H18_4 H 0.398456 0.358135 0.837686
H19_4 H 0.398861 0.389088 0.691717
Na5_4 Na 0.27886(2) 0.21950(2) 0.16899(8)
Na8_4 Na 0.51075(2) 0.46552(2) 0.11741(8)
O9_4 O 0.52533(2) 0.47127(2) 0.46049(15)
O14_4 O 0.51627(2) 0.45139(2) 0.77462(15)
Si1_4 Si 0.30031(2) 0.43134(2) 0.97812(6)
O4_4 O 0.29861(2) 0.26627(2) 0.97538(15)
O6_4 O 0.34165(3) 0.27069(3) 0.56687(17)
N2_4 N 0.36532(3) 0.29378(3) 0.2862(2)
C4_4 C 0.35884(3) 0.46100(3) 0.8492(2)
H1_4 H 0.348343 0.463709 0.719908
C7_4 C 0.39059(3) 0.47073(3) 0.8698(2)
H2_4 H 0.401384 0.479908 0.754725
C13_4 C 0.30786(3) 0.36533(3) 0.8710(2)
H9_4 H 0.315313 0.373232 0.741855
C14_4 C 0.28774(3) 0.43899(3) 0.7057(2)
H10_4 H 0.286542 0.462123 0.681577
H11_4 H 0.266669 0.429363 0.681472
H12_4 H 0.303393 0.429499 0.610818
C15_4 C 0.30535(3) 0.33239(3) 0.9001(2)
H13_4 H 0.311032 0.318147 0.791534
C17_4 C 0.35093(4) 0.26970(4) 0.3859(3)
H15_4 H 0.347605 0.250360 0.311619
C21_3 C 0.37573(5) 0.29046(5) 0.0726(3)
H23_3 H 0.398986 0.293316 0.064852
H25_3 H 0.370050 0.269105 0.021663
C22_4 C 0.37003(5) 0.32454(5) 0.3852(4)
H26_4 H 0.359630 0.341285 0.302932
H27_4 H 0.393004 0.329051 0.395399
H28_4 H 0.360653 0.324091 0.524189
O10_4 O 0.28153(3) 0.20628(2) 0.51333(15)
O13_4 O 0.26120(2) 0.20495(2) 0.83211(15)
Na5_5 Na 0.03050(2) 0.02886(2) 0.91899(8)
O10_5 O 0.04372(2) 0.03153(3) 0.26333(15)
O13_5 O 0.04505(2) 0.01120(2) 0.58211(15)
Na1_3 Na 0.77886(2) 0.21950(2) 0.33101(8)
O1_3 O 0.97467(2) 0.02873(2) 0.03951(15)
O5_5 O 0.83205(3) 0.19728(3) 0.38511(17)
N1_5 N 0.85908(3) 0.18087(3) 0.6718(2)
H3_5 H 0.916547 0.030203 0.127698
H4_5 H 0.861540 0.033887 0.075632
H5_5 H 0.801541 0.028284 0.048270
H8_5 H 0.814229 0.097667 0.069129
H14_5 H 0.798278 0.150846 0.103479
C18_5 C 0.84125(4) 0.20137(4) 0.5635(3)
H16_5 H 0.835169 0.220727 0.629867
C19_5 C 0.86848(4) 0.15032(4) 0.5850(3)
H17_5 H 0.859021 0.132976 0.666793
H18_5 H 0.891865 0.148456 0.587686
H19_5 H 0.860912 0.148861 0.441717
C20_4 C 0.86719(5) 0.18704(5) 0.8871(3)
H20_4 H 0.858182 0.207694 0.929431
H21_4 H 0.890522 0.187568 0.902657
H22_4 H 0.858319 0.170012 0.974317
Na6_3 Na 0.98925(2) 0.03448(2) 0.38259(8)
O8_3 O 0.72127(2) 0.22467(2) 0.28951(15)
O9_5 O 0.77873(2) 0.27533(2) 0.21049(15)
O11_3 O 0.76120(2) 0.20495(2) 0.66789(15)
O14_5 O 0.79861(2) 0.26627(2) 0.52462(15)
Si1_5 Si 0.81866(2) 0.05031(2) 0.72812(6)
O2_5 O 0.78153(3) 0.20628(2) 0.98667(15)
O4_5 O 0.98373(2) 0.04861(2) 0.72538(15)
O6_5 O 0.97931(3) 0.09165(3) 0.31687(17)
N2_5 N 0.95622(3) 0.11532(3) 0.0362(2)
C1_5 C 0.92967(3) 0.04451(3) 0.8386(2)
C2_5 C 0.80267(3) 0.09207(3) 0.7647(2)
C3_5 C 0.78284(3) 0.15662(3) 0.8063(2)
C4_5 C 0.78900(3) 0.10884(3) 0.5992(2)
H1_5 H 0.786291 0.098343 0.469908
C5_5 C 0.77423(3) 0.19197(3) 0.8227(2)
C6_5 C 0.86296(3) 0.04972(3) 0.7766(2)
C7_5 C 0.77927(3) 0.14059(3) 0.6198(2)
H2_5 H 0.770092 0.151384 0.504725
C8_5 C 0.96541(3) 0.04027(3) 0.8694(2)
C9_5 C 0.90853(3) 0.03700(3) 0.9973(2)
C10_5 C 0.87569(3) 0.03938(3) 0.9661(2)
C11_5 C 0.79973(3) 0.02072(3) 0.9052(2)
H6_5 H 0.810601 0.000037 0.891491
H7_5 H 0.777077 0.018262 0.868982
C12_5 C 0.80551(3) 0.10850(3) 0.9528(2)
C13_5 C 0.88467(3) 0.05786(3) 0.6210(2)
H9_5 H 0.876768 0.065313 0.491855
C14_5 C 0.81101(3) 0.03774(3) 0.4557(2)
H10_5 H 0.787877 0.036542 0.431577
H11_5 H 0.820637 0.016669 0.431472
H12_5 H 0.820501 0.053393 0.360818
C15_5 C 0.91761(3) 0.05535(3) 0.6501(2)
H13_5 H 0.931853 0.061032 0.541534
C16_5 C 0.79590(4) 0.14029(3) 0.9741(2)
C17_5 C 0.98030(4) 0.10093(4) 0.1359(3)
H15_5 H 0.999640 0.097605 0.061619
C22_5 C 0.92546(5) 0.12003(5) 0.1352(4)
H26_5 H 0.908715 0.109630 0.052932
H27_5 H 0.920949 0.143004 0.145399
H28_5 H 0.925909 0.110653 0.274189
Na7_3 Na 0.71552(2) 0.23925(2) 0.63259(8)
Na8_5 Na 0.78448(2) 0.26075(2) 0.86741(8)
Na4_3 Na 0.96950(2) 0.97114(2) 0.08101(8)
O12_3 O 0.95495(2) 0.98880(2) 0.41789(15)
Na4_4 Na 0.53050(2) 0.02886(2) 0.58101(8)
O12_4 O 0.54505(2) 0.01120(2) 0.91789(15)
N1_6 N 0.64092(3) 0.81913(3) 0.1718(2)
C18_6 C 0.65875(4) 0.79863(4) 0.0635(3)
H16_6 H 0.664831 0.779273 0.129867
C19_6 C 0.63152(4) 0.84968(4) 0.0850(3)
H17_6 H 0.640979 0.867024 0.166793
H18_6 H 0.608135 0.851544 0.087686
C20_5 C 0.63281(5) 0.81296(5) 0.3871(3)
H20_5 H 0.641818 0.792306 0.429431
H21_5 H 0.609478 0.812432 0.402657
H22_5 H 0.641681 0.829988 0.474317
O11_4 O 0.73880(2) 0.79505(2) 0.16789(15)
O14_6 O 0.70139(2) 0.73373(2) 0.02462(15)
Si1_6 Si 0.68134(2) 0.94969(2) 0.22812(6)
Na1_4 Na 0.72114(2) 0.78050(2) 0.83101(8)
O1_4 O 0.52533(2) 0.97127(2) 0.53951(15)
O2_6 O 0.71847(3) 0.79372(2) 0.48667(15)
O4_6 O 0.51627(2) 0.95139(2) 0.22538(15)
O5_6 O 0.66795(3) 0.80272(3) 0.88511(17)
C1_6 C 0.57033(3) 0.95549(3) 0.3386(2)
C2_6 C 0.69733(3) 0.90793(3) 0.2647(2)
C3_6 C 0.71716(3) 0.84338(3) 0.3063(2)
C4_6 C 0.71100(3) 0.89116(3) 0.0992(2)
C5_6 C 0.72577(3) 0.80803(3) 0.3227(2)
C6_6 C 0.63704(3) 0.95028(3) 0.2766(2)
C7_6 C 0.72073(3) 0.85941(3) 0.1198(2)
H2_6 H 0.729908 0.848616 0.004725
C8_6 C 0.53459(3) 0.95973(3) 0.3694(2)
C9_6 C 0.59147(3) 0.96300(3) 0.4973(2)
H3_6 H 0.583453 0.969797 0.627698
C10_6 C 0.62431(3) 0.96062(3) 0.4661(2)
H4_6 H 0.638460 0.966113 0.575632
C11_6 C 0.70027(3) 0.97928(3) 0.4052(2)
H5_6 H 0.698459 0.971716 0.548270
H6_6 H 0.689399 0.999963 0.391491
H7_6 H 0.722923 0.981738 0.368982
C12_6 C 0.69449(3) 0.89150(3) 0.4528(2)
H8_6 H 0.685771 0.902333 0.569129
C13_6 C 0.61533(3) 0.94214(3) 0.1210(2)
C15_6 C 0.58239(3) 0.94465(3) 0.1501(2)
H13_6 H 0.568147 0.938968 0.041534
C16_6 C 0.70410(4) 0.85971(3) 0.4741(2)
H14_6 H 0.701722 0.849154 0.603479
H19_6 H 0.639088 0.851139 0.941717
Na5_6 Na 0.46950(2) 0.97114(2) 0.41899(8)
Na6_4 Na 0.51075(2) 0.96552(2) 0.88259(8)
Na7_4 Na 0.78448(2) 0.76075(2) 0.13259(8)
Na8_6 Na 0.71552(2) 0.73925(2) 0.36741(8)
O8_4 O 0.77873(2) 0.77533(2) 0.78951(15)
O9_6 O 0.72127(2) 0.72467(2) 0.71049(15)
O13_6 O 0.45495(2) 0.98880(2) 0.08211(15)
O6_6 O 0.52069(3) 0.90835(3) 0.81687(17)
N2_6 N 0.54378(3) 0.88468(3) 0.5362(2)
H1_6 H 0.713709 0.901657 0.969908
H9_6 H 0.623232 0.934687 0.991855
C14_6 C 0.68899(3) 0.96226(3) 0.9557(2)
H10_6 H 0.712123 0.963458 0.931577
H11_6 H 0.679363 0.983331 0.931472
H12_6 H 0.679499 0.946607 0.860818
C17_6 C 0.51970(4) 0.89907(4) 0.6359(3)
H15_6 H 0.500360 0.902395 0.561619
C21_4 C 0.54046(5) 0.87427(5) 0.3226(3)
H23_4 H 0.543316 0.851014 0.314852
H24_3 H 0.556734 0.884838 0.237274
H25_4 H 0.519105 0.879950 0.271663
C22_6 C 0.57454(5) 0.87997(5) 0.6352(4)
H26_6 H 0.591285 0.890370 0.552932
H27_6 H 0.579051 0.856996 0.645399
H28_6 H 0.574091 0.889347 0.774189
O10_6 O 0.45628(2) 0.96847(3) 0.76333(15)
O2_7 O 0.54372(2) 0.03153(3) 0.23667(15)
O5_7 O 0.55272(3) 0.08205(3) 0.63511(17)
N1_7 N 0.56913(3) 0.10908(3) 0.9218(2)
C1_7 C 0.70549(3) 0.17967(3) 0.0886(2)
C2_7 C 0.65793(3) 0.05267(3) 0.0147(2)
C3_7 C 0.59338(3) 0.03284(3) 0.0563(2)
C5_7 C 0.55803(3) 0.02423(3) 0.0727(2)
C6_7 C 0.70028(3) 0.11296(3) 0.0266(2)
C8_7 C 0.70973(3) 0.21541(3) 0.1194(2)
C9_7 C 0.71300(3) 0.15853(3) 0.2473(2)
H3_7 H 0.719797 0.166547 0.377698
C10_7 C 0.71062(3) 0.12569(3) 0.2161(2)
H4_7 H 0.716113 0.111540 0.325632
C11_7 C 0.72928(3) 0.04973(3) 0.1552(2)
H5_7 H 0.721716 0.051541 0.298270
H6_7 H 0.749963 0.060601 0.141491
H7_7 H 0.731738 0.027077 0.118982
C12_7 C 0.64150(3) 0.05551(3) 0.2028(2)
H8_7 H 0.652333 0.064229 0.319129
C16_7 C 0.60971(3) 0.04590(4) 0.2241(2)
H14_7 H 0.599154 0.048278 0.353479
C18_7 C 0.54863(4) 0.09125(4) 0.8135(3)
H16_7 H 0.529273 0.085169 0.879867
C19_7 C 0.59968(4) 0.11848(4) 0.8350(3)
H17_7 H 0.617024 0.109021 0.916793
H18_7 H 0.601544 0.141865 0.837686
H19_7 H 0.601139 0.110912 0.691717
Na5_7 Na 0.72114(2) 0.28050(2) 0.16899(8)
Na8_7 Na 0.48925(2) 0.03448(2) 0.11741(8)
O9_7 O 0.47467(2) 0.02873(2) 0.46049(15)
O14_7 O 0.48373(2) 0.04861(2) 0.77462(15)
Si1_7 Si 0.69969(2) 0.06866(2) 0.97812(6)
O4_7 O 0.70139(2) 0.23373(2) 0.97538(15)
O6_7 O 0.65835(3) 0.22931(3) 0.56687(17)
N2_7 N 0.63468(3) 0.20622(3) 0.2862(2)
C4_7 C 0.64116(3) 0.03900(3) 0.8492(2)
H1_7 H 0.651657 0.036291 0.719908
C7_7 C 0.60941(3) 0.02927(3) 0.8698(2)
H2_7 H 0.598616 0.020092 0.754725
C13_7 C 0.69214(3) 0.13467(3) 0.8710(2)
H9_7 H 0.684687 0.126768 0.741855
C14_7 C 0.71226(3) 0.06101(3) 0.7057(2)
H10_7 H 0.713458 0.037877 0.681577
H11_7 H 0.733331 0.070637 0.681472
H12_7 H 0.696607 0.070501 0.610818
C15_7 C 0.69465(3) 0.16761(3) 0.9001(2)
H13_7 H 0.688968 0.181853 0.791534
C17_7 C 0.64907(4) 0.23030(4) 0.3859(3)
H15_7 H 0.652395 0.249640 0.311619
C21_5 C 0.62427(5) 0.20954(5) 0.0726(3)
H23_5 H 0.601014 0.206684 0.064852
H25_5 H 0.629950 0.230895 0.021663
C22_7 C 0.62997(5) 0.17546(5) 0.3852(4)
H26_7 H 0.640370 0.158715 0.302932
H27_7 H 0.606996 0.170949 0.395399
H28_7 H 0.639347 0.175909 0.524189
O10_7 O 0.71847(3) 0.29372(2) 0.51333(15)
O13_7 O 0.73880(2) 0.29505(2) 0.83211(15)
O14_8 O 0.01627(2) 0.95139(2) 0.27462(15)
Na8_8 Na 0.01075(2) 0.96552(2) 0.61741(8)
O9_8 O 0.02533(2) 0.97127(2) 0.96049(15)
O5_8 O 0.94728(3) 0.91795(3) 0.13511(17)
N1_8 N 0.93087(3) 0.89092(3) 0.4218(2)
C18_8 C 0.95137(4) 0.90875(4) 0.3135(3)
H16_8 H 0.970727 0.914831 0.379867
C19_8 C 0.90032(4) 0.88152(4) 0.3350(3)
H17_8 H 0.882976 0.890979 0.416793
H18_8 H 0.898456 0.858135 0.337686
H19_8 H 0.898861 0.889088 0.191717
C20_6 C 0.93704(5) 0.88281(5) 0.6371(3)
H20_6 H 0.957694 0.891818 0.679431
H21_6 H 0.937568 0.859478 0.652657
H22_6 H 0.920012 0.891681 0.724317
Si1_8 Si 0.80031(2) 0.93134(2) 0.47812(6)
O2_8 O 0.95628(2) 0.96847(3) 0.73667(15)
O4_8 O 0.79861(2) 0.76627(2) 0.47538(15)
O6_8 O 0.84165(3) 0.77069(3) 0.06687(17)
C1_8 C 0.79451(3) 0.82033(3) 0.5886(2)
C2_8 C 0.84207(3) 0.94733(3) 0.5147(2)
C3_8 C 0.90662(3) 0.96716(3) 0.5563(2)
C4_8 C 0.85884(3) 0.96100(3) 0.3492(2)
H1_8 H 0.848343 0.963709 0.219908
C5_8 C 0.94197(3) 0.97577(3) 0.5727(2)
C6_8 C 0.79972(3) 0.88704(3) 0.5266(2)
C7_8 C 0.89059(3) 0.97073(3) 0.3698(2)
H2_8 H 0.901384 0.979908 0.254725
C8_8 C 0.79027(3) 0.78459(3) 0.6194(2)
C9_8 C 0.78700(3) 0.84147(3) 0.7473(2)
H3_8 H 0.780203 0.833453 0.877698
C10_8 C 0.78938(3) 0.87431(3) 0.7161(2)
H4_8 H 0.783887 0.888460 0.825632
C11_8 C 0.77072(3) 0.95027(3) 0.6552(2)
H5_8 H 0.778284 0.948459 0.798270
H6_8 H 0.750037 0.939399 0.641491
H7_8 H 0.768262 0.972923 0.618982
C12_8 C 0.85850(3) 0.94449(3) 0.7028(2)
H8_8 H 0.847667 0.935771 0.819129
C13_8 C 0.80786(3) 0.86533(3) 0.3710(2)
H9_8 H 0.815313 0.873232 0.241855
C14_8 C 0.78774(3) 0.93899(3) 0.2057(2)
H10_8 H 0.786542 0.962123 0.181577
H11_8 H 0.766669 0.929363 0.181472
H12_8 H 0.803393 0.929499 0.110818
C15_8 C 0.80535(3) 0.83239(3) 0.4001(2)
H13_8 H 0.811032 0.818147 0.291534
C16_8 C 0.89029(3) 0.95410(4) 0.7241(2)
H14_8 H 0.900846 0.951722 0.853479
H28_8 H 0.860653 0.824091 0.024189
Na5_8 Na 0.77886(2) 0.71950(2) 0.66899(8)
O10_8 O 0.78153(3) 0.70628(2) 0.01333(15)
O13_8 O 0.76120(2) 0.70495(2) 0.33211(15)
N2_8 N 0.86532(3) 0.79378(3) 0.7862(2)
C17_8 C 0.85093(4) 0.76970(4) 0.8859(3)
H15_8 H 0.847605 0.750360 0.811619
C21_6 C 0.87573(5) 0.79046(5) 0.5726(3)
H23_6 H 0.898986 0.793316 0.564852
H24_4 H 0.865162 0.806734 0.487274
H25_6 H 0.870050 0.769105 0.521663
C22_8 C 0.87003(5) 0.82454(5) 0.8852(4)
H26_8 H 0.859630 0.841285 0.802932
H27_8 H 0.893004 0.829051 0.895399
O6_9 O 0.52069(3) 0.40835(3) 0.18313(17)
N2_9 N 0.54378(3) 0.38468(3) 0.4638(2)
H1_9 H 0.713709 0.401657 0.030092
H9_9 H 0.623232 0.434687 0.008145
C14_9 C 0.68899(3) 0.46226(3) 0.0443(2)
H10_9 H 0.712123 0.463458 0.068423
H11_9 H 0.679363 0.483331 0.068528
H12_9 H 0.679499 0.446607 0.139182
C17_9 C 0.51970(4) 0.39907(4) 0.3641(3)
H15_9 H 0.500360 0.402395 0.438381
C21_7 C 0.54046(5) 0.37427(5) 0.6774(3)
H23_7 H 0.543316 0.351014 0.685148
H24_5 H 0.556734 0.384838 0.762726
H25_7 H 0.519105 0.379950 0.728337
C22_9 C 0.57454(5) 0.37997(5) 0.3648(4)
H26_9 H 0.591285 0.390370 0.447068
H27_9 H 0.579051 0.356996 0.354601
H28_9 H 0.574091 0.389347 0.225811
Si1_9 Si 0.68134(2) 0.44969(2) 0.77188(6)
O5_9 O 0.66795(3) 0.30272(3) 0.11489(17)
C1_9 C 0.57033(3) 0.45549(3) 0.6614(2)
C2_9 C 0.69733(3) 0.40793(3) 0.7353(2)
C3_9 C 0.71716(3) 0.34338(3) 0.6937(2)
C4_9 C 0.71100(3) 0.39116(3) 0.9008(2)
C5_9 C 0.72577(3) 0.30803(3) 0.6773(2)
C6_9 C 0.63704(3) 0.45028(3) 0.7234(2)
C7_9 C 0.72073(3) 0.35941(3) 0.8802(2)
H2_9 H 0.729908 0.348616 0.995275
C8_9 C 0.53459(3) 0.45973(3) 0.6306(2)
C9_9 C 0.59147(3) 0.46300(3) 0.5027(2)
H3_9 H 0.583453 0.469797 0.372302
C10_9 C 0.62431(3) 0.46062(3) 0.5339(2)
H4_9 H 0.638460 0.466113 0.424368
C11_9 C 0.70027(3) 0.47928(3) 0.5948(2)
H5_9 H 0.698459 0.471716 0.451730
H6_9 H 0.689399 0.499963 0.608509
H7_9 H 0.722923 0.481738 0.631018
C12_9 C 0.69449(3) 0.39150(3) 0.5472(2)
H8_9 H 0.685771 0.402333 0.430871
C13_9 C 0.61533(3) 0.44214(3) 0.8790(2)
C15_9 C 0.58239(3) 0.44465(3) 0.8499(2)
H13_9 H 0.568147 0.438968 0.958466
C16_9 C 0.70410(4) 0.35971(3) 0.5259(2)
H14_9 H 0.701722 0.349154 0.396521
H19_9 H 0.639088 0.351139 0.058283
N1_9 N 0.64092(3) 0.31913(3) 0.8282(2)
C18_9 C 0.65875(4) 0.29863(4) 0.9365(3)
H16_9 H 0.664831 0.279273 0.870133
C19_9 C 0.63152(4) 0.34968(4) 0.9150(3)
H17_9 H 0.640979 0.367024 0.833207
H18_9 H 0.608135 0.351544 0.912314
C20_7 C 0.63281(5) 0.31296(5) 0.6129(3)
H20_7 H 0.641818 0.292306 0.570569
H21_7 H 0.609478 0.312432 0.597343
H22_7 H 0.641681 0.329988 0.525683
Si1_10 Si 0.81866(2) 0.55031(2) 0.27188(6)
O6_10 O 0.97931(3) 0.59165(3) 0.68313(17)
N2_10 N 0.95622(3) 0.61532(3) 0.9638(2)
C1_10 C 0.92967(3) 0.54451(3) 0.1614(2)
C2_10 C 0.80267(3) 0.59207(3) 0.2353(2)
C3_10 C 0.78284(3) 0.65662(3) 0.1937(2)
C4_10 C 0.78900(3) 0.60884(3) 0.4008(2)
H1_10 H 0.786291 0.598343 0.530092
C5_10 C 0.77423(3) 0.69197(3) 0.1773(2)
C6_10 C 0.86296(3) 0.54972(3) 0.2234(2)
C7_10 C 0.77927(3) 0.64059(3) 0.3802(2)
H2_10 H 0.770092 0.651384 0.495275
C8_10 C 0.96541(3) 0.54027(3) 0.1306(2)
C9_10 C 0.90853(3) 0.53700(3) 0.0027(2)
C10_10 C 0.87569(3) 0.53938(3) 0.0339(2)
C11_10 C 0.79973(3) 0.52072(3) 0.0948(2)
H6_10 H 0.810601 0.500037 0.108509
H7_10 H 0.777077 0.518262 0.131018
C12_10 C 0.80551(3) 0.60850(3) 0.0472(2)
C13_10 C 0.88467(3) 0.55786(3) 0.3790(2)
H9_10 H 0.876768 0.565313 0.508145
C14_10 C 0.81101(3) 0.53774(3) 0.5443(2)
H10_10 H 0.787877 0.536542 0.568423
H11_10 H 0.820637 0.516669 0.568528
H12_10 H 0.820501 0.553393 0.639182
C15_10 C 0.91761(3) 0.55535(3) 0.3499(2)
H13_10 H 0.931853 0.561032 0.458466
C16_10 C 0.79590(4) 0.64029(3) 0.0259(2)
C17_10 C 0.98030(4) 0.60093(4) 0.8641(3)
H15_10 H 0.999640 0.597605 0.938381
C22_10 C 0.92546(5) 0.62003(5) 0.8648(4)
H26_10 H 0.908715 0.609630 0.947068
H27_10 H 0.920949 0.643004 0.854601
H28_10 H 0.925909 0.610653 0.725811
O5_10 O 0.83205(3) 0.69728(3) 0.61489(17)
N1_10 N 0.85908(3) 0.68087(3) 0.3282(2)
H3_10 H 0.916547 0.530203 0.872302
H4_10 H 0.861540 0.533887 0.924368
H5_10 H 0.801541 0.528284 0.951730
H8_10 H 0.814229 0.597667 0.930871
H14_10 H 0.798278 0.650846 0.896521
C18_10 C 0.84125(4) 0.70137(4) 0.4365(3)
H16_10 H 0.835169 0.720727 0.370133
C19_10 C 0.86848(4) 0.65032(4) 0.4150(3)
H17_10 H 0.859021 0.632976 0.333207
H18_10 H 0.891865 0.648456 0.412314
H19_10 H 0.860912 0.648861 0.558283
C20_8 C 0.86719(5) 0.68704(5) 0.1129(3)
H20_8 H 0.858182 0.707694 0.070569
H21_8 H 0.890522 0.687568 0.097343
H22_8 H 0.858319 0.670012 0.025683
N2_11 N 0.86532(3) 0.29378(3) 0.2138(2)
C17_11 C 0.85093(4) 0.26970(4) 0.1141(3)
H15_11 H 0.847605 0.250360 0.188381
C21_8 C 0.87573(5) 0.29046(5) 0.4274(3)
H23_8 H 0.898986 0.293316 0.435148
H24_6 H 0.865162 0.306734 0.512726
H25_8 H 0.870050 0.269105 0.478337
C22_11 C 0.87003(5) 0.32454(5) 0.1148(4)
H26_11 H 0.859630 0.341285 0.197068
H27_11 H 0.893004 0.329051 0.104601
Si1_11 Si 0.80031(2) 0.43134(2) 0.52188(6)
O6_11 O 0.84165(3) 0.27069(3) 0.93313(17)
C1_11 C 0.79451(3) 0.32033(3) 0.4114(2)
C2_11 C 0.84207(3) 0.44733(3) 0.4853(2)
C3_11 C 0.90662(3) 0.46716(3) 0.4437(2)
C4_11 C 0.85884(3) 0.46100(3) 0.6508(2)
H1_11 H 0.848343 0.463709 0.780092
C5_11 C 0.94197(3) 0.47577(3) 0.4273(2)
C6_11 C 0.79972(3) 0.38704(3) 0.4734(2)
C7_11 C 0.89059(3) 0.47073(3) 0.6302(2)
H2_11 H 0.901384 0.479908 0.745275
C8_11 C 0.79027(3) 0.28459(3) 0.3806(2)
C9_11 C 0.78700(3) 0.34147(3) 0.2527(2)
H3_11 H 0.780203 0.333453 0.122302
C10_11 C 0.78938(3) 0.37431(3) 0.2839(2)
H4_11 H 0.783887 0.388460 0.174368
C11_11 C 0.77072(3) 0.45027(3) 0.3448(2)
H5_11 H 0.778284 0.448459 0.201730
H6_11 H 0.750037 0.439399 0.358509
H7_11 H 0.768262 0.472923 0.381018
C12_11 C 0.85850(3) 0.44449(3) 0.2972(2)
H8_11 H 0.847667 0.435771 0.180871
C13_11 C 0.80786(3) 0.36533(3) 0.6290(2)
H9_11 H 0.815313 0.373232 0.758145
C14_11 C 0.78774(3) 0.43899(3) 0.7943(2)
H10_11 H 0.786542 0.462123 0.818423
H11_11 H 0.766669 0.429363 0.818528
H12_11 H 0.803393 0.429499 0.889182
C15_11 C 0.80535(3) 0.33239(3) 0.5999(2)
H13_11 H 0.811032 0.318147 0.708466
C16_11 C 0.89029(3) 0.45410(4) 0.2759(2)
H14_11 H 0.900846 0.451722 0.146521
H28_11 H 0.860653 0.324091 0.975811
O5_11 O 0.94728(3) 0.41795(3) 0.86489(17)
N1_11 N 0.93087(3) 0.39092(3) 0.5782(2)
C18_11 C 0.95137(4) 0.40875(4) 0.6865(3)
H16_11 H 0.970727 0.414831 0.620133
C19_11 C 0.90032(4) 0.38152(4) 0.6650(3)
H17_11 H 0.882976 0.390979 0.583207
H18_11 H 0.898456 0.358135 0.662314
H19_11 H 0.898861 0.389088 0.808283
C20_9 C 0.93704(5) 0.38281(5) 0.3629(3)
H20_9 H 0.957694 0.391818 0.320569
H21_9 H 0.937568 0.359478 0.347343
H22_9 H 0.920012 0.391681 0.275683
Si1_12 Si 0.69969(2) 0.56866(2) 0.02188(6)
O6_12 O 0.65835(3) 0.72931(3) 0.43313(17)
N2_12 N 0.63468(3) 0.70622(3) 0.7138(2)
C4_12 C 0.64116(3) 0.53900(3) 0.1508(2)
H1_12 H 0.651657 0.536291 0.280092
C7_12 C 0.60941(3) 0.52927(3) 0.1302(2)
H2_12 H 0.598616 0.520092 0.245275
C13_12 C 0.69214(3) 0.63467(3) 0.1290(2)
H9_12 H 0.684687 0.626768 0.258145
C14_12 C 0.71226(3) 0.56101(3) 0.2943(2)
H10_12 H 0.713458 0.537877 0.318423
H11_12 H 0.733331 0.570637 0.318528
H12_12 H 0.696607 0.570501 0.389182
C15_12 C 0.69465(3) 0.66761(3) 0.0999(2)
H13_12 H 0.688968 0.681853 0.208466
C17_12 C 0.64907(4) 0.73030(4) 0.6141(3)
H15_12 H 0.652395 0.749640 0.688381
C21_9 C 0.62427(5) 0.70954(5) 0.9274(3)
H23_9 H 0.601014 0.706684 0.935148
H25_9 H 0.629950 0.730895 0.978337
C22_12 C 0.62997(5) 0.67546(5) 0.6148(4)
H26_12 H 0.640370 0.658715 0.697068
H27_12 H 0.606996 0.670949 0.604601
H28_12 H 0.639347 0.675909 0.475811
O5_12 O 0.55272(3) 0.58205(3) 0.36489(17)
N1_12 N 0.56913(3) 0.60908(3) 0.0782(2)
C1_12 C 0.70549(3) 0.67967(3) 0.9114(2)
C2_12 C 0.65793(3) 0.55267(3) 0.9853(2)
C3_12 C 0.59338(3) 0.53284(3) 0.9437(2)
C5_12 C 0.55803(3) 0.52423(3) 0.9273(2)
C6_12 C 0.70028(3) 0.61296(3) 0.9734(2)
C8_12 C 0.70973(3) 0.71541(3) 0.8806(2)
C9_12 C 0.71300(3) 0.65853(3) 0.7527(2)
H3_12 H 0.719797 0.666547 0.622302
C10_12 C 0.71062(3) 0.62569(3) 0.7839(2)
H4_12 H 0.716113 0.611540 0.674368
C11_12 C 0.72928(3) 0.54973(3) 0.8448(2)
H5_12 H 0.721716 0.551541 0.701730
H6_12 H 0.749963 0.560601 0.858509
H7_12 H 0.731738 0.527077 0.881018
C12_12 C 0.64150(3) 0.55551(3) 0.7972(2)
H8_12 H 0.652333 0.564229 0.680871
C16_12 C 0.60971(3) 0.54590(4) 0.7759(2)
H14_12 H 0.599154 0.548278 0.646521
C18_12 C 0.54863(4) 0.59125(4) 0.1865(3)
H16_12 H 0.529273 0.585169 0.120133
C19_12 C 0.59968(4) 0.61848(4) 0.1650(3)
H17_12 H 0.617024 0.609021 0.083207
H18_12 H 0.601544 0.641865 0.162314
H19_12 H 0.601139 0.610912 0.308283
Si1_13 Si 0.18134(2) 0.94969(2) 0.27188(6)
O6_13 O 0.02069(3) 0.90835(3) 0.68313(17)
N2_13 N 0.04378(3) 0.88468(3) 0.9638(2)
C1_13 C 0.07033(3) 0.95549(3) 0.1614(2)
C2_13 C 0.19733(3) 0.90793(3) 0.2353(2)
C3_13 C 0.21716(3) 0.84338(3) 0.1937(2)
C4_13 C 0.21100(3) 0.89116(3) 0.4008(2)
H1_13 H 0.213709 0.901657 0.530092
C5_13 C 0.22577(3) 0.80803(3) 0.1773(2)
C6_13 C 0.13704(3) 0.95028(3) 0.2234(2)
C7_13 C 0.22073(3) 0.85941(3) 0.3802(2)
H2_13 H 0.229908 0.848616 0.495275
C8_13 C 0.03459(3) 0.95973(3) 0.1306(2)
C9_13 C 0.09147(3) 0.96300(3) 0.0027(2)
C10_13 C 0.12431(3) 0.96062(3) 0.0339(2)
C11_13 C 0.20027(3) 0.97928(3) 0.0948(2)
H6_13 H 0.189399 0.999963 0.108509
H7_13 H 0.222923 0.981738 0.131018
C12_13 C 0.19449(3) 0.89150(3) 0.0472(2)
C13_13 C 0.11533(3) 0.94214(3) 0.3790(2)
H9_13 H 0.123232 0.934687 0.508145
C14_13 C 0.18899(3) 0.96226(3) 0.5443(2)
H10_13 H 0.212123 0.963458 0.568423
H11_13 H 0.179363 0.983331 0.568528
H12_13 H 0.179499 0.946607 0.639182
C15_13 C 0.08239(3) 0.94465(3) 0.3499(2)
H13_13 H 0.068147 0.938968 0.458466
C16_13 C 0.20410(4) 0.85971(3) 0.0259(2)
C17_13 C 0.01970(4) 0.89907(4) 0.8641(3)
H15_13 H 0.000360 0.902395 0.938381
C22_13 C 0.07454(5) 0.87997(5) 0.8648(4)
H26_13 H 0.091285 0.890370 0.947068
H27_13 H 0.079051 0.856996 0.854601
H28_13 H 0.074091 0.889347 0.725811
O5_13 O 0.16795(3) 0.80272(3) 0.61489(17)
N1_13 N 0.14092(3) 0.81913(3) 0.3282(2)
H3_13 H 0.083453 0.969797 0.872302
H4_13 H 0.138460 0.966113 0.924368
H5_13 H 0.198459 0.971716 0.951730
H8_13 H 0.185771 0.902333 0.930871
H14_13 H 0.201722 0.849154 0.896521
C18_13 C 0.15875(4) 0.79863(4) 0.4365(3)
H16_13 H 0.164831 0.779273 0.370133
C19_13 C 0.13152(4) 0.84968(4) 0.4150(3)
H17_13 H 0.140979 0.867024 0.333207
H18_13 H 0.108135 0.851544 0.412314
H19_13 H 0.139088 0.851139 0.558283
C20_10 C 0.13281(5) 0.81296(5) 0.1129(3)
H20_10 H 0.141818 0.792306 0.070569
H21_10 H 0.109478 0.812432 0.097343
H22_10 H 0.141681 0.829988 0.025683
O6_14 O 0.47931(3) 0.09165(3) 0.18313(17)
N2_14 N 0.45622(3) 0.11532(3) 0.4638(2)
H1_14 H 0.286291 0.098343 0.030092
H9_14 H 0.376768 0.065313 0.008145
C14_14 C 0.31101(3) 0.03774(3) 0.0443(2)
H10_14 H 0.287877 0.036542 0.068423
H11_14 H 0.320637 0.016669 0.068528
H12_14 H 0.320501 0.053393 0.139182
C17_14 C 0.48030(4) 0.10093(4) 0.3641(3)
H15_14 H 0.499640 0.097605 0.438381
C21_10 C 0.45954(5) 0.12573(5) 0.6774(3)
H23_10 H 0.456684 0.148986 0.685148
H24_7 H 0.443266 0.115162 0.762726
H25_10 H 0.480895 0.120050 0.728337
C22_14 C 0.42546(5) 0.12003(5) 0.3648(4)
H26_14 H 0.408715 0.109630 0.447068
H27_14 H 0.420949 0.143004 0.354601
H28_14 H 0.425909 0.110653 0.225811
Si1_14 Si 0.31866(2) 0.05031(2) 0.77188(6)
O5_14 O 0.33205(3) 0.19728(3) 0.11489(17)
C1_14 C 0.42967(3) 0.04451(3) 0.6614(2)
C2_14 C 0.30267(3) 0.09207(3) 0.7353(2)
C3_14 C 0.28284(3) 0.15662(3) 0.6937(2)
C4_14 C 0.28900(3) 0.10884(3) 0.9008(2)
C5_14 C 0.27423(3) 0.19197(3) 0.6773(2)
C6_14 C 0.36296(3) 0.04972(3) 0.7234(2)
C7_14 C 0.27927(3) 0.14059(3) 0.8802(2)
H2_14 H 0.270092 0.151384 0.995275
C8_14 C 0.46541(3) 0.04027(3) 0.6306(2)
C9_14 C 0.40853(3) 0.03700(3) 0.5027(2)
H3_14 H 0.416547 0.030203 0.372302
C10_14 C 0.37569(3) 0.03938(3) 0.5339(2)
H4_14 H 0.361540 0.033887 0.424368
C11_14 C 0.29973(3) 0.02072(3) 0.5948(2)
H5_14 H 0.301541 0.028284 0.451730
H6_14 H 0.310601 0.000037 0.608509
H7_14 H 0.277077 0.018262 0.631018
C12_14 C 0.30551(3) 0.10850(3) 0.5472(2)
H8_14 H 0.314229 0.097667 0.430871
C13_14 C 0.38467(3) 0.05786(3) 0.8790(2)
C15_14 C 0.41761(3) 0.05535(3) 0.8499(2)
H13_14 H 0.431853 0.061032 0.958466
C16_14 C 0.29590(4) 0.14029(3) 0.5259(2)
H14_14 H 0.298278 0.150846 0.396521
H19_14 H 0.360912 0.148861 0.058283
N1_14 N 0.35908(3) 0.18087(3) 0.8282(2)
C18_14 C 0.34125(4) 0.20137(4) 0.9365(3)
H16_14 H 0.335169 0.220727 0.870133
C19_14 C 0.36848(4) 0.15032(4) 0.9150(3)
H17_14 H 0.359021 0.132976 0.833207
H18_14 H 0.391865 0.148456 0.912314
C20_11 C 0.36719(5) 0.18704(5) 0.6129(3)
H20_11 H 0.358182 0.207694 0.570569
H21_11 H 0.390522 0.187568 0.597343
H22_11 H 0.358319 0.170012 0.525683
Si1_15 Si 0.30031(2) 0.93134(2) 0.02188(6)
O6_15 O 0.34165(3) 0.77069(3) 0.43313(17)
N2_15 N 0.36532(3) 0.79378(3) 0.7138(2)
C4_15 C 0.35884(3) 0.96100(3) 0.1508(2)
H1_15 H 0.348343 0.963709 0.280092
C7_15 C 0.39059(3) 0.97073(3) 0.1302(2)
H2_15 H 0.401384 0.979908 0.245275
C13_15 C 0.30786(3) 0.86533(3) 0.1290(2)
H9_15 H 0.315313 0.873232 0.258145
C14_15 C 0.28774(3) 0.93899(3) 0.2943(2)
H10_15 H 0.286542 0.962123 0.318423
H11_15 H 0.266669 0.929363 0.318528
H12_15 H 0.303393 0.929499 0.389182
C15_15 C 0.30535(3) 0.83239(3) 0.0999(2)
H13_15 H 0.311032 0.818147 0.208466
C17_15 C 0.35093(4) 0.76970(4) 0.6141(3)
H15_15 H 0.347605 0.750360 0.688381
C21_11 C 0.37573(5) 0.79046(5) 0.9274(3)
H23_11 H 0.398986 0.793316 0.935148
H25_11 H 0.370050 0.769105 0.978337
C22_15 C 0.37003(5) 0.82454(5) 0.6148(4)
H26_15 H 0.359630 0.841285 0.697068
H27_15 H 0.393004 0.829051 0.604601
H28_15 H 0.360653 0.824091 0.475811
O5_15 O 0.44728(3) 0.91795(3) 0.36489(17)
N1_15 N 0.43087(3) 0.89092(3) 0.0782(2)
C1_15 C 0.29451(3) 0.82033(3) 0.9114(2)
C2_15 C 0.34207(3) 0.94733(3) 0.9853(2)
C3_15 C 0.40662(3) 0.96716(3) 0.9437(2)
C5_15 C 0.44197(3) 0.97577(3) 0.9273(2)
C6_15 C 0.29972(3) 0.88704(3) 0.9734(2)
C8_15 C 0.29027(3) 0.78459(3) 0.8806(2)
C9_15 C 0.28700(3) 0.84147(3) 0.7527(2)
H3_15 H 0.280203 0.833453 0.622302
C10_15 C 0.28938(3) 0.87431(3) 0.7839(2)
H4_15 H 0.283887 0.888460 0.674368
C11_15 C 0.27072(3) 0.95027(3) 0.8448(2)
H5_15 H 0.278284 0.948459 0.701730
H6_15 H 0.250037 0.939399 0.858509
H7_15 H 0.268262 0.972923 0.881018
C12_15 C 0.35850(3) 0.94449(3) 0.7972(2)
H8_15 H 0.347667 0.935771 0.680871
C16_15 C 0.39029(3) 0.95410(4) 0.7759(2)
H14_15 H 0.400846 0.951722 0.646521
C18_15 C 0.45137(4) 0.90875(4) 0.1865(3)
H16_15 H 0.470727 0.914831 0.120133
C19_15 C 0.40032(4) 0.88152(4) 0.1650(3)
H17_15 H 0.382976 0.890979 0.083207
H18_15 H 0.398456 0.858135 0.162314
H19_15 H 0.398861 0.889088 0.308283
N2_16 N 0.13468(3) 0.20622(3) 0.2138(2)
C17_16 C 0.14907(4) 0.23030(4) 0.1141(3)
H15_16 H 0.152395 0.249640 0.188381
C21_12 C 0.12427(5) 0.20954(5) 0.4274(3)
H23_12 H 0.101014 0.206684 0.435148
H24_8 H 0.134838 0.193266 0.512726
H25_12 H 0.129950 0.230895 0.478337
C22_16 C 0.12997(5) 0.17546(5) 0.1148(4)
H26_16 H 0.140370 0.158715 0.197068
H27_16 H 0.106996 0.170949 0.104601
Si1_16 Si 0.19969(2) 0.06866(2) 0.52188(6)
O6_16 O 0.15835(3) 0.22931(3) 0.93313(17)
C1_16 C 0.20549(3) 0.17967(3) 0.4114(2)
C2_16 C 0.15793(3) 0.05267(3) 0.4853(2)
C3_16 C 0.09338(3) 0.03284(3) 0.4437(2)
C4_16 C 0.14116(3) 0.03900(3) 0.6508(2)
H1_16 H 0.151657 0.036291 0.780092
C5_16 C 0.05803(3) 0.02423(3) 0.4273(2)
C6_16 C 0.20028(3) 0.11296(3) 0.4734(2)
C7_16 C 0.10941(3) 0.02927(3) 0.6302(2)
H2_16 H 0.098616 0.020092 0.745275
C8_16 C 0.20973(3) 0.21541(3) 0.3806(2)
C9_16 C 0.21300(3) 0.15853(3) 0.2527(2)
H3_16 H 0.219797 0.166547 0.122302
C10_16 C 0.21062(3) 0.12569(3) 0.2839(2)
H4_16 H 0.216113 0.111540 0.174368
C11_16 C 0.22928(3) 0.04973(3) 0.3448(2)
H5_16 H 0.221716 0.051541 0.201730
H6_16 H 0.249963 0.060601 0.358509
H7_16 H 0.231738 0.027077 0.381018
C12_16 C 0.14150(3) 0.05551(3) 0.2972(2)
H8_16 H 0.152333 0.064229 0.180871
C13_16 C 0.19214(3) 0.13467(3) 0.6290(2)
H9_16 H 0.184687 0.126768 0.758145
C14_16 C 0.21226(3) 0.06101(3) 0.7943(2)
H10_16 H 0.213458 0.037877 0.818423
H11_16 H 0.233331 0.070637 0.818528
H12_16 H 0.196607 0.070501 0.889182
C15_16 C 0.19465(3) 0.16761(3) 0.5999(2)
H13_16 H 0.188968 0.181853 0.708466
C16_16 C 0.10971(3) 0.04590(4) 0.2759(2)
H14_16 H 0.099154 0.048278 0.146521
H28_16 H 0.139347 0.175909 0.975811
O5_16 O 0.05272(3) 0.08205(3) 0.86489(17)
N1_16 N 0.06913(3) 0.10908(3) 0.5782(2)
C18_16 C 0.04863(4) 0.09125(4) 0.6865(3)
H16_16 H 0.029273 0.085169 0.620133
C19_16 C 0.09968(4) 0.11848(4) 0.6650(3)
H17_16 H 0.117024 0.109021 0.583207
H18_16 H 0.101544 0.141865 0.662314
H19_16 H 0.101139 0.110912 0.808283
C20_12 C 0.06296(5) 0.11719(5) 0.3629(3)
H20_12 H 0.042306 0.108182 0.320569
H21_12 H 0.062432 0.140522 0.347343
H22_12 H 0.079988 0.108319 0.275683
C21_13 C 0.04046(5) 0.37427(5) 0.8226(3)
H23_13 H 0.043316 0.351014 0.814852
H24_9 H 0.056734 0.384838 0.737274
H25_13 H 0.019105 0.379950 0.771663
C20_13 C 0.43704(5) 0.38281(5) 0.1371(3)
H20_13 H 0.457694 0.391818 0.179431
H21_13 H 0.437568 0.359478 0.152657
H22_13 H 0.420012 0.391681 0.224317
H24_10 H 0.365162 0.306734 0.987274
C21_14 C 0.95954(5) 0.12573(5) 0.8226(3)
H23_14 H 0.956684 0.148986 0.814852
H24_11 H 0.943266 0.115162 0.737274
H25_14 H 0.980895 0.120050 0.771663
C20_14 C 0.56296(5) 0.11719(5) 0.1371(3)
H20_14 H 0.542306 0.108182 0.179431
H21_14 H 0.562432 0.140522 0.152657
H22_14 H 0.579988 0.108319 0.224317
H24_12 H 0.634838 0.193266 0.987274
C21_15 C 0.95954(5) 0.62573(5) 0.1774(3)
H23_15 H 0.956684 0.648986 0.185148
H24_13 H 0.943266 0.615162 0.262726
H25_15 H 0.980895 0.620050 0.228337
H24_14 H 0.634838 0.693266 0.012726
C20_15 C 0.56296(5) 0.61719(5) 0.8629(3)
H20_15 H 0.542306 0.608182 0.820569
H21_15 H 0.562432 0.640522 0.847343
H22_15 H 0.579988 0.608319 0.775683
C21_16 C 0.04046(5) 0.87427(5) 0.1774(3)
H23_16 H 0.043316 0.851014 0.185148
H24_15 H 0.056734 0.884838 0.262726
H25_16 H 0.019105 0.879950 0.228337
H24_16 H 0.365162 0.806734 0.012726
C20_16 C 0.43704(5) 0.88281(5) 0.8629(3)
H20_16 H 0.457694 0.891818 0.820569
H21_16 H 0.437568 0.859478 0.847343
H22_16 H 0.420012 0.891681 0.775683
loop_
_geom_bond_atom_site_label_1
_geom_bond_atom_site_label_2
_geom_bond_site_symmetry_1
_geom_bond_site_symmetry_2
N1 C18 1_555 1_555
H16 C18 1_555 1_555
C19 N1 1_555 1_555
H17 C19 1_555 1_555
H18 C19 1_555 1_555
C20 N1 1_555 1_555
H20 C20 1_555 1_555
H21 C20 1_555 1_555
H22 C20 1_555 1_555
Si1 C2 1_555 1_555
Na1 O2 1_555 1_555
O1 C8 1_555 1_555
O2 C5 1_555 1_555
O11 C5 1_555 1_555
O4 C8 1_555 1_555
O5 Na1 1_555 1_555
C1 C8 1_555 1_555
C2 C4 1_555 1_555
C3 C5 1_555 1_555
C6 Si1 1_555 1_555
C7 C3 1_555 1_555
H2 C7 1_555 1_555
C9 C1 1_555 1_555
H3 C9 1_555 1_555
C10 C6 1_555 1_555
H4 C10 1_555 1_555
C11 Si1 1_555 1_555
H5 C11 1_555 1_555
H6 C11 1_555 1_555
H7 C11 1_555 1_555
C12 C2 1_555 1_555
H8 C12 1_555 1_555
C13 C6 1_555 1_555
C15 C1 1_555 1_555
H13 C15 1_555 1_555
C16 C3 1_555 1_555
H14 C16 1_555 1_555
Na4 O1 1_555 1_555
Na5 O1 1_555 1_555
Na6 O1 1_555 1_555
Na7 O11 1_555 1_555
Na8 O2 1_555 1_555
O8 Na1 1_555 1_555
O9 Na1 1_555 1_555
O11 Na8 1_555 1_555
O4 Na5 1_555 1_555
C4 C7 1_555 1_555
C9 C10 1_555 1_555
C12 C16 1_555 1_555
C13 C15 1_555 1_555
Na5 O13 1_555 1_555
Na8 O9 1_555 1_555
O6 Na6 1_555 1_555
N2 C17 1_555 1_555
H10 C14 1_555 1_555
H11 C14 1_555 1_555
H12 C14 1_555 1_555
C17 O6 1_555 1_555
H15 C17 1_555 1_555
C21 N2 1_555 1_555
H23 C21 1_555 1_555
H24 C21 1_555 1_555
H25 C21 1_555 1_555
C22 N2 1_555 1_555
H26 C22 1_555 1_555
H27 C22 1_555 1_555
H28 C22 1_555 1_555
O10 Na6 1_555 1_555
O12 Na6 1_555 1_555
O5_2 Na1_2 1_555 1_555
N1_2 C18_2 1_555 1_555
C18_2 O5_2 1_555 1_555
H16_2 C18_2 1_555 1_555
C19_2 N1_2 1_555 1_555
H17_2 C19_2 1_555 1_555
H18_2 C19_2 1_555 1_555
H19_2 C19_2 1_555 1_555
C20_2 N1_2 1_555 1_555
H20_2 C20_2 1_555 1_555
H21_2 C20_2 1_555 1_555
H22_2 C20_2 1_555 1_555
Na4_2 O1_2 1_555 1_555
Na6_2 O1_2 1_555 1_555
O8_2 Na1_2 1_555 1_555
O9_2 Na1_2 1_555 1_555
O11_2 Na1_2 1_555 1_555
O14_2 Na1_2 1_555 1_555
Si1_2 C2_2 1_555 1_555
Na6_2 O4_2 1_555 1_555
O2_2 C5_2 1_555 1_555
O11_2 C5_2 1_555 1_555
O4_2 C8_2 1_555 1_555
O6_2 Na6_2 1_555 1_555
N2_2 C17_2 1_555 1_555
C1_2 C8_2 1_555 1_555
C2_2 C4_2 1_555 1_555
C3_2 C5_2 1_555 1_555
C4_2 H1_2 1_555 1_555
C6_2 Si1_2 1_555 1_555
C7_2 C3_2 1_555 1_555
H2_2 C7_2 1_555 1_555
C9_2 C1_2 1_555 1_555
C10_2 C6_2 1_555 1_555
C11_2 Si1_2 1_555 1_555
H6_2 C11_2 1_555 1_555
H7_2 C11_2 1_555 1_555
C12_2 C2_2 1_555 1_555
C13_2 C6_2 1_555 1_555
H9_2 C13_2 1_555 1_555
C14_2 Si1_2 1_555 1_555
H10_2 C14_2 1_555 1_555
H11_2 C14_2 1_555 1_555
H12_2 C14_2 1_555 1_555
C15_2 C1_2 1_555 1_555
H13_2 C15_2 1_555 1_555
C16_2 C3_2 1_555 1_555
C17_2 O6_2 1_555 1_555
H15_2 C17_2 1_555 1_555
C22_2 N2_2 1_555 1_555
H26_2 C22_2 1_555 1_555
H27_2 C22_2 1_555 1_555
H28_2 C22_2 1_555 1_555
Na7_2 O11_2 1_555 1_555
Na8_2 O2_2 1_555 1_555
O12_2 Na6_2 1_555 1_555
O11_2 Na8_2 1_555 1_555
C4_2 C7_2 1_555 1_555
C9_2 C10_2 1_555 1_555
C12_2 C16_2 1_555 1_555
C13_2 C15_2 1_555 1_555
Na5_2 O13_2 1_555 1_555
O5_3 Na4_2 1_555 1_555
N1_3 C18_3 1_555 1_555
C18_3 O5_3 1_555 1_555
H16_3 C18_3 1_555 1_555
C19_3 N1_3 1_555 1_555
H17_3 C19_3 1_555 1_555
H18_3 C19_3 1_555 1_555
H19_3 C19_3 1_555 1_555
C20_3 N1_3 1_555 1_555
H20_3 C20_3 1_555 1_555
H21_3 C20_3 1_555 1_555
H22_3 C20_3 1_555 1_555
O12_2 Na4_2 1_555 1_555
Si1_3 C2_3 1_555 1_555
Na7 O4_3 1_555 1_555
O8 C8_3 1_555 1_555
O2_3 C5_3 1_555 1_555
O12_2 C5_3 1_555 1_555
O4_3 C8_3 1_555 1_555
O6_3 Na7 1_555 1_555
C1_3 C8_3 1_555 1_555
C2_3 C4_3 1_555 1_555
C3_3 C5_3 1_555 1_555
C4_3 H1_3 1_555 1_555
C6_3 Si1_3 1_555 1_555
C7_3 C3_3 1_555 1_555
H2_3 C7_3 1_555 1_555
C9_3 C1_3 1_555 1_555
H3_3 C9_3 1_555 1_555
C10_3 C6_3 1_555 1_555
H4_3 C10_3 1_555 1_555
C11_3 Si1_3 1_555 1_555
H5_3 C11_3 1_555 1_555
H6_3 C11_3 1_555 1_555
H7_3 C11_3 1_555 1_555
C12_3 C2_3 1_555 1_555
H8_3 C12_3 1_555 1_555
C13_3 C6_3 1_555 1_555
H9_3 C13_3 1_555 1_555
C14_3 Si1_3 1_555 1_555
H10_3 C14_3 1_555 1_555
H11_3 C14_3 1_555 1_555
H12_3 C14_3 1_555 1_555
C15_3 C1_3 1_555 1_555
H13_3 C15_3 1_555 1_555
C16_3 C3_3 1_555 1_555
H14_3 C16_3 1_555 1_555
Na5_3 O8 1_555 1_555
O10_3 Na7 1_555 1_555
O13_3 Na7 1_555 1_555
O4_3 Na5_3 1_555 1_555
C4_3 C7_3 1_555 1_555
C9_3 C10_3 1_555 1_555
C12_3 C16_3 1_555 1_555
C13_3 C15_3 1_555 1_555
Na5_3 O13_3 1_555 1_555
N2_3 C17_3 1_555 1_555
H15_3 C17_3 1_555 1_555
C21_2 N2_3 1_555 1_555
H23_2 C21_2 1_555 1_555
H24_2 C21_2 1_555 1_555
H25_2 C21_2 1_555 1_555
C22_3 N2_3 1_555 1_555
H26_3 C22_3 1_555 1_555
H27_3 C22_3 1_555 1_555
Na8_3 O9_3 1_555 1_555
Na4 O2_4 1_555 1_555
O8_2 C8_4 1_555 1_555
O2_4 C5_4 1_555 1_555
O5_4 Na4 1_555 1_555
N1_4 C18_4 1_555 1_555
C1_4 C8_4 1_555 1_555
C3_4 C5_4 1_555 1_555
C9_4 C1_4 1_555 1_555
H3_4 C9_4 1_555 1_555
C10_4 C6_4 1_555 1_555
H4_4 C10_4 1_555 1_555
H5_4 C11_4 1_555 1_555
H6_4 C11_4 1_555 1_555
H7_4 C11_4 1_555 1_555
C12_4 C2_4 1_555 1_555
H8_4 C12_4 1_555 1_555
C16_4 C3_4 1_555 1_555
H14_4 C16_4 1_555 1_555
C18_4 O5_4 1_555 1_555
H16_4 C18_4 1_555 1_555
C19_4 N1_4 1_555 1_555
H17_4 C19_4 1_555 1_555
H18_4 C19_4 1_555 1_555
H19_4 C19_4 1_555 1_555
Na5_4 O8_2 1_555 1_555
Na7_2 O8_2 1_555 1_555
Na8_4 O2_4 1_555 1_555
O9_4 Na4 1_555 1_555
O12 Na4 1_555 1_555
O14_4 Na4 1_555 1_555
C9_4 C10_4 1_555 1_555
C12_4 C16_4 1_555 1_555
Na8_4 O9_4 1_555 1_555
Na7_2 O4_4 1_555 1_555
O6_4 Na7_2 1_555 1_555
N2_4 C17_4 1_555 1_555
C4_4 H1_4 1_555 1_555
H2_4 C7_4 1_555 1_555
H9_4 C13_4 1_555 1_555
C14_4 Si1_4 1_555 1_555
H10_4 C14_4 1_555 1_555
H11_4 C14_4 1_555 1_555
H12_4 C14_4 1_555 1_555
H13_4 C15_4 1_555 1_555
C17_4 O6_4 1_555 1_555
H15_4 C17_4 1_555 1_555
C21_3 N2_4 1_555 1_555
H23_3 C21_3 1_555 1_555
H25_3 C21_3 1_555 1_555
C22_4 N2_4 1_555 1_555
H26_4 C22_4 1_555 1_555
H27_4 C22_4 1_555 1_555
H28_4 C22_4 1_555 1_555
O10_4 Na7_2 1_555 1_555
O13_4 Na7_2 1_555 1_555
C4_4 C7_4 1_555 1_555
C13_4 C15_4 1_555 1_555
Na5_5 O13_5 1_555 1_555
O5_5 Na1_3 1_555 1_555
N1_5 C18_5 1_555 1_555
C18_5 O5_5 1_555 1_555
H16_5 C18_5 1_555 1_555
C19_5 N1_5 1_555 1_555
H17_5 C19_5 1_555 1_555
H18_5 C19_5 1_555 1_555
H19_5 C19_5 1_555 1_555
C20_4 N1_5 1_555 1_555
H20_4 C20_4 1_555 1_555
H21_4 C20_4 1_555 1_555
H22_4 C20_4 1_555 1_555
Na6_3 O1_3 1_555 1_555
O8_3 Na1_3 1_555 1_555
O9_5 Na1_3 1_555 1_555
O11_3 Na1_3 1_555 1_555
O14_5 Na1_3 1_555 1_555
Si1_5 C2_5 1_555 1_555
Na6_3 O4_5 1_555 1_555
O2_5 C5_5 1_555 1_555
O11_3 C5_5 1_555 1_555
O4_5 C8_5 1_555 1_555
O6_5 Na6_3 1_555 1_555
N2_5 C17_5 1_555 1_555
C1_5 C8_5 1_555 1_555
C2_5 C4_5 1_555 1_555
C3_5 C5_5 1_555 1_555
C4_5 H1_5 1_555 1_555
C6_5 Si1_5 1_555 1_555
C7_5 C3_5 1_555 1_555
H2_5 C7_5 1_555 1_555
C9_5 C1_5 1_555 1_555
C10_5 C6_5 1_555 1_555
C11_5 Si1_5 1_555 1_555
H6_5 C11_5 1_555 1_555
H7_5 C11_5 1_555 1_555
C12_5 C2_5 1_555 1_555
C13_5 C6_5 1_555 1_555
H9_5 C13_5 1_555 1_555
C14_5 Si1_5 1_555 1_555
H10_5 C14_5 1_555 1_555
H11_5 C14_5 1_555 1_555
H12_5 C14_5 1_555 1_555
C15_5 C1_5 1_555 1_555
H13_5 C15_5 1_555 1_555
C16_5 C3_5 1_555 1_555
C17_5 O6_5 1_555 1_555
H15_5 C17_5 1_555 1_555
C22_5 N2_5 1_555 1_555
H26_5 C22_5 1_555 1_555
H27_5 C22_5 1_555 1_555
H28_5 C22_5 1_555 1_555
Na7_3 O11_3 1_555 1_555
Na8_5 O2_5 1_555 1_555
O11_3 Na8_5 1_555 1_555
C4_5 C7_5 1_555 1_555
C9_5 C10_5 1_555 1_555
C12_5 C16_5 1_555 1_555
C13_5 C15_5 1_555 1_555
N1_6 C18_6 1_555 1_555
H16_6 C18_6 1_555 1_555
C19_6 N1_6 1_555 1_555
H17_6 C19_6 1_555 1_555
H18_6 C19_6 1_555 1_555
C20_5 N1_6 1_555 1_555
H20_5 C20_5 1_555 1_555
H21_5 C20_5 1_555 1_555
H22_5 C20_5 1_555 1_555
Si1_6 C2_6 1_555 1_555
Na1_4 O2_6 1_555 1_555
O1_4 C8_6 1_555 1_555
O2_6 C5_6 1_555 1_555
O11_4 C5_6 1_555 1_555
O4_6 C8_6 1_555 1_555
O5_6 Na1_4 1_555 1_555
C1_6 C8_6 1_555 1_555
C2_6 C4_6 1_555 1_555
C3_6 C5_6 1_555 1_555
C6_6 Si1_6 1_555 1_555
C7_6 C3_6 1_555 1_555
H2_6 C7_6 1_555 1_555
C9_6 C1_6 1_555 1_555
H3_6 C9_6 1_555 1_555
C10_6 C6_6 1_555 1_555
H4_6 C10_6 1_555 1_555
C11_6 Si1_6 1_555 1_555
H5_6 C11_6 1_555 1_555
H6_6 C11_6 1_555 1_555
H7_6 C11_6 1_555 1_555
C12_6 C2_6 1_555 1_555
H8_6 C12_6 1_555 1_555
C13_6 C6_6 1_555 1_555
C15_6 C1_6 1_555 1_555
H13_6 C15_6 1_555 1_555
C16_6 C3_6 1_555 1_555
H14_6 C16_6 1_555 1_555
Na5_6 O1_4 1_555 1_555
Na6_4 O1_4 1_555 1_555
Na7_4 O11_4 1_555 1_555
Na8_6 O2_6 1_555 1_555
O8_4 Na1_4 1_555 1_555
O9_6 Na1_4 1_555 1_555
O11_4 Na8_6 1_555 1_555
O4_6 Na5_6 1_555 1_555
C4_6 C7_6 1_555 1_555
C9_6 C10_6 1_555 1_555
C12_6 C16_6 1_555 1_555
C13_6 C15_6 1_555 1_555
Na5_6 O13_6 1_555 1_555
Na8_6 O9_6 1_555 1_555
O6_6 Na6_4 1_555 1_555
N2_6 C17_6 1_555 1_555
H10_6 C14_6 1_555 1_555
H11_6 C14_6 1_555 1_555
H12_6 C14_6 1_555 1_555
C17_6 O6_6 1_555 1_555
H15_6 C17_6 1_555 1_555
C21_4 N2_6 1_555 1_555
H23_4 C21_4 1_555 1_555
H24_3 C21_4 1_555 1_555
H25_4 C21_4 1_555 1_555
C22_6 N2_6 1_555 1_555
H26_6 C22_6 1_555 1_555
H27_6 C22_6 1_555 1_555
H28_6 C22_6 1_555 1_555
O10_6 Na6_4 1_555 1_555
Na4_4 O2_7 1_555 1_555
O8_3 C8_7 1_555 1_555
O2_7 C5_7 1_555 1_555
O5_7 Na4_4 1_555 1_555
N1_7 C18_7 1_555 1_555
C1_7 C8_7 1_555 1_555
C3_7 C5_7 1_555 1_555
C9_7 C1_7 1_555 1_555
H3_7 C9_7 1_555 1_555
C10_7 C6_7 1_555 1_555
H4_7 C10_7 1_555 1_555
H5_7 C11_7 1_555 1_555
H6_7 C11_7 1_555 1_555
H7_7 C11_7 1_555 1_555
C12_7 C2_7 1_555 1_555
H8_7 C12_7 1_555 1_555
C16_7 C3_7 1_555 1_555
H14_7 C16_7 1_555 1_555
C18_7 O5_7 1_555 1_555
H16_7 C18_7 1_555 1_555
C19_7 N1_7 1_555 1_555
H17_7 C19_7 1_555 1_555
H18_7 C19_7 1_555 1_555
H19_7 C19_7 1_555 1_555
Na5_7 O8_3 1_555 1_555
Na7_3 O8_3 1_555 1_555
Na8_7 O2_7 1_555 1_555
O9_7 Na4_4 1_555 1_555
O12_4 Na4_4 1_555 1_555
O14_7 Na4_4 1_555 1_555
C9_7 C10_7 1_555 1_555
C12_7 C16_7 1_555 1_555
Na8_7 O9_7 1_555 1_555
Na7_3 O4_7 1_555 1_555
O6_7 Na7_3 1_555 1_555
N2_7 C17_7 1_555 1_555
C4_7 H1_7 1_555 1_555
H2_7 C7_7 1_555 1_555
H9_7 C13_7 1_555 1_555
C14_7 Si1_7 1_555 1_555
H10_7 C14_7 1_555 1_555
H11_7 C14_7 1_555 1_555
H12_7 C14_7 1_555 1_555
H13_7 C15_7 1_555 1_555
C17_7 O6_7 1_555 1_555
H15_7 C17_7 1_555 1_555
C21_5 N2_7 1_555 1_555
H23_5 C21_5 1_555 1_555
H25_5 C21_5 1_555 1_555
C22_7 N2_7 1_555 1_555
H26_7 C22_7 1_555 1_555
H27_7 C22_7 1_555 1_555
H28_7 C22_7 1_555 1_555
O10_7 Na7_3 1_555 1_555
O13_7 Na7_3 1_555 1_555
C4_7 C7_7 1_555 1_555
C13_7 C15_7 1_555 1_555
Na8_8 O9_8 1_555 1_555
O5_8 Na4_3 1_555 1_555
N1_8 C18_8 1_555 1_555
C18_8 O5_8 1_555 1_555
H16_8 C18_8 1_555 1_555
C19_8 N1_8 1_555 1_555
H17_8 C19_8 1_555 1_555
H18_8 C19_8 1_555 1_555
H19_8 C19_8 1_555 1_555
C20_6 N1_8 1_555 1_555
H20_6 C20_6 1_555 1_555
H21_6 C20_6 1_555 1_555
H22_6 C20_6 1_555 1_555
O12_3 Na4_3 1_555 1_555
Si1_8 C2_8 1_555 1_555
Na7_4 O4_8 1_555 1_555
O8_4 C8_8 1_555 1_555
O2_8 C5_8 1_555 1_555
O12_3 C5_8 1_555 1_555
O4_8 C8_8 1_555 1_555
O6_8 Na7_4 1_555 1_555
C1_8 C8_8 1_555 1_555
C2_8 C4_8 1_555 1_555
C3_8 C5_8 1_555 1_555
C4_8 H1_8 1_555 1_555
C6_8 Si1_8 1_555 1_555
C7_8 C3_8 1_555 1_555
H2_8 C7_8 1_555 1_555
C9_8 C1_8 1_555 1_555
H3_8 C9_8 1_555 1_555
C10_8 C6_8 1_555 1_555
H4_8 C10_8 1_555 1_555
C11_8 Si1_8 1_555 1_555
H5_8 C11_8 1_555 1_555
H6_8 C11_8 1_555 1_555
H7_8 C11_8 1_555 1_555
C12_8 C2_8 1_555 1_555
H8_8 C12_8 1_555 1_555
C13_8 C6_8 1_555 1_555
H9_8 C13_8 1_555 1_555
C14_8 Si1_8 1_555 1_555
H10_8 C14_8 1_555 1_555
H11_8 C14_8 1_555 1_555
H12_8 C14_8 1_555 1_555
C15_8 C1_8 1_555 1_555
H13_8 C15_8 1_555 1_555
C16_8 C3_8 1_555 1_555
H14_8 C16_8 1_555 1_555
Na5_8 O8_4 1_555 1_555
O10_8 Na7_4 1_555 1_555
O13_8 Na7_4 1_555 1_555
O4_8 Na5_8 1_555 1_555
C4_8 C7_8 1_555 1_555
C9_8 C10_8 1_555 1_555
C12_8 C16_8 1_555 1_555
C13_8 C15_8 1_555 1_555
Na5_8 O13_8 1_555 1_555
N2_8 C17_8 1_555 1_555
H15_8 C17_8 1_555 1_555
C21_6 N2_8 1_555 1_555
H23_6 C21_6 1_555 1_555
H24_4 C21_6 1_555 1_555
H25_6 C21_6 1_555 1_555
C22_8 N2_8 1_555 1_555
H26_8 C22_8 1_555 1_555
H27_8 C22_8 1_555 1_555
O6_9 Na8_4 1_555 1_555
N2_9 C17_9 1_555 1_555
H10_9 C14_9 1_555 1_555
H11_9 C14_9 1_555 1_555
H12_9 C14_9 1_555 1_555
C17_9 O6_9 1_555 1_555
H15_9 C17_9 1_555 1_555
C21_7 N2_9 1_555 1_555
H23_7 C21_7 1_555 1_555
H24_5 C21_7 1_555 1_555
H25_7 C21_7 1_555 1_555
C22_9 N2_9 1_555 1_555
H26_9 C22_9 1_555 1_555
H27_9 C22_9 1_555 1_555
H28_9 C22_9 1_555 1_555
O13 Na8_4 1_555 1_555
Si1_9 C2_9 1_555 1_555
Na5_7 O10_7 1_555 1_555
O9_4 C8_9 1_555 1_555
O10_7 C5_9 1_555 1_555
O13_7 C5_9 1_555 1_555
O14_4 C8_9 1_555 1_555
O5_9 Na5_7 1_555 1_555
C1_9 C8_9 1_555 1_555
C2_9 C4_9 1_555 1_555
C3_9 C5_9 1_555 1_555
C6_9 Si1_9 1_555 1_555
C7_9 C3_9 1_555 1_555
H2_9 C7_9 1_555 1_555
C9_9 C1_9 1_555 1_555
H3_9 C9_9 1_555 1_555
C10_9 C6_9 1_555 1_555
H4_9 C10_9 1_555 1_555
C11_9 Si1_9 1_555 1_555
H5_9 C11_9 1_555 1_555
H6_9 C11_9 1_555 1_555
H7_9 C11_9 1_555 1_555
C12_9 C2_9 1_555 1_555
H8_9 C12_9 1_555 1_555
C13_9 C6_9 1_555 1_555
C15_9 C1_9 1_555 1_555
H13_9 C15_9 1_555 1_555
C16_9 C3_9 1_555 1_555
H14_9 C16_9 1_555 1_555
Na5 O9_4 1_555 1_555
Na8_5 O13_7 1_555 1_555
O9_5 Na5_7 1_555 1_555
C4_9 C7_9 1_555 1_555
C9_9 C10_9 1_555 1_555
C12_9 C16_9 1_555 1_555
C13_9 C15_9 1_555 1_555
N1_9 C18_9 1_555 1_555
H16_9 C18_9 1_555 1_555
C19_9 N1_9 1_555 1_555
H17_9 C19_9 1_555 1_555
H18_9 C19_9 1_555 1_555
C20_7 N1_9 1_555 1_555
H20_7 C20_7 1_555 1_555
H21_7 C20_7 1_555 1_555
H22_7 C20_7 1_555 1_555
Si1_10 C2_10 1_555 1_555
Na8_3 O14_3 1_555 1_555
O10_8 C5_10 1_555 1_555
O13_8 C5_10 1_555 1_555
O14_3 C8_10 1_555 1_555
O6_10 Na8_3 1_555 1_555
N2_10 C17_10 1_555 1_555
C1_10 C8_10 1_555 1_555
C2_10 C4_10 1_555 1_555
C3_10 C5_10 1_555 1_555
C4_10 H1_10 1_555 1_555
C6_10 Si1_10 1_555 1_555
C7_10 C3_10 1_555 1_555
H2_10 C7_10 1_555 1_555
C9_10 C1_10 1_555 1_555
C10_10 C6_10 1_555 1_555
C11_10 Si1_10 1_555 1_555
H6_10 C11_10 1_555 1_555
H7_10 C11_10 1_555 1_555
C12_10 C2_10 1_555 1_555
C13_10 C6_10 1_555 1_555
H9_10 C13_10 1_555 1_555
C14_10 Si1_10 1_555 1_555
H10_10 C14_10 1_555 1_555
H11_10 C14_10 1_555 1_555
H12_10 C14_10 1_555 1_555
C15_10 C1_10 1_555 1_555
H13_10 C15_10 1_555 1_555
C16_10 C3_10 1_555 1_555
C17_10 O6_10 1_555 1_555
H15_10 C17_10 1_555 1_555
C22_10 N2_10 1_555 1_555
H26_10 C22_10 1_555 1_555
H27_10 C22_10 1_555 1_555
H28_10 C22_10 1_555 1_555
Na8_6 O13_8 1_555 1_555
O13_2 Na8_3 1_555 1_555
C4_10 C7_10 1_555 1_555
C9_10 C10_10 1_555 1_555
C12_10 C16_10 1_555 1_555
C13_10 C15_10 1_555 1_555
O5_10 Na5_8 1_555 1_555
N1_10 C18_10 1_555 1_555
C18_10 O5_10 1_555 1_555
H16_10 C18_10 1_555 1_555
C19_10 N1_10 1_555 1_555
H17_10 C19_10 1_555 1_555
H18_10 C19_10 1_555 1_555
H19_10 C19_10 1_555 1_555
C20_8 N1_10 1_555 1_555
H20_8 C20_8 1_555 1_555
H21_8 C20_8 1_555 1_555
H22_8 C20_8 1_555 1_555
Na5_2 O9_3 1_555 1_555
O9_6 Na5_8 1_555 1_555
N2_11 C17_11 1_555 1_555
H15_11 C17_11 1_555 1_555
C21_8 N2_11 1_555 1_555
H23_8 C21_8 1_555 1_555
H24_6 C21_8 1_555 1_555
H25_8 C21_8 1_555 1_555
C22_11 N2_11 1_555 1_555
H26_11 C22_11 1_555 1_555
H27_11 C22_11 1_555 1_555
Si1_11 C2_11 1_555 1_555
Na8_5 O14_5 1_555 1_555
O9_5 C8_11 1_555 1_555
O10_2 C5_11 1_555 1_555
O13_2 C5_11 1_555 1_555
O14_5 C8_11 1_555 1_555
O6_11 Na8_5 1_555 1_555
C1_11 C8_11 1_555 1_555
C2_11 C4_11 1_555 1_555
C3_11 C5_11 1_555 1_555
C4_11 H1_11 1_555 1_555
C6_11 Si1_11 1_555 1_555
C7_11 C3_11 1_555 1_555
H2_11 C7_11 1_555 1_555
C9_11 C1_11 1_555 1_555
H3_11 C9_11 1_555 1_555
C10_11 C6_11 1_555 1_555
H4_11 C10_11 1_555 1_555
C11_11 Si1_11 1_555 1_555
H5_11 C11_11 1_555 1_555
H6_11 C11_11 1_555 1_555
H7_11 C11_11 1_555 1_555
C12_11 C2_11 1_555 1_555
H8_11 C12_11 1_555 1_555
C13_11 C6_11 1_555 1_555
H9_11 C13_11 1_555 1_555
C14_11 Si1_11 1_555 1_555
H10_11 C14_11 1_555 1_555
H11_11 C14_11 1_555 1_555
H12_11 C14_11 1_555 1_555
C15_11 C1_11 1_555 1_555
H13_11 C15_11 1_555 1_555
C16_11 C3_11 1_555 1_555
H14_11 C16_11 1_555 1_555
C4_11 C7_11 1_555 1_555
C9_11 C10_11 1_555 1_555
C12_11 C16_11 1_555 1_555
C13_11 C15_11 1_555 1_555
O5_11 Na5_2 1_555 1_555
N1_11 C18_11 1_555 1_555
C18_11 O5_11 1_555 1_555
H16_11 C18_11 1_555 1_555
C19_11 N1_11 1_555 1_555
H17_11 C19_11 1_555 1_555
H18_11 C19_11 1_555 1_555
H19_11 C19_11 1_555 1_555
C20_9 N1_11 1_555 1_555
H20_9 C20_9 1_555 1_555
H21_9 C20_9 1_555 1_555
H22_9 C20_9 1_555 1_555
Na8_6 O14_6 1_555 1_555
O6_12 Na8_6 1_555 1_555
N2_12 C17_12 1_555 1_555
C4_12 H1_12 1_555 1_555
H2_12 C7_12 1_555 1_555
H9_12 C13_12 1_555 1_555
C14_12 Si1_12 1_555 1_555
H10_12 C14_12 1_555 1_555
H11_12 C14_12 1_555 1_555
H12_12 C14_12 1_555 1_555
H13_12 C15_12 1_555 1_555
C17_12 O6_12 1_555 1_555
H15_12 C17_12 1_555 1_555
C21_9 N2_12 1_555 1_555
H23_9 C21_9 1_555 1_555
H25_9 C21_9 1_555 1_555
C22_12 N2_12 1_555 1_555
H26_12 C22_12 1_555 1_555
H27_12 C22_12 1_555 1_555
H28_12 C22_12 1_555 1_555
C4_12 C7_12 1_555 1_555
C13_12 C15_12 1_555 1_555
Na5 O10 1_555 1_555
O9_6 C8_12 1_555 1_555
O10 C5_12 1_555 1_555
O5_12 Na5 1_555 1_555
N1_12 C18_12 1_555 1_555
C1_12 C8_12 1_555 1_555
C3_12 C5_12 1_555 1_555
C9_12 C1_12 1_555 1_555
H3_12 C9_12 1_555 1_555
C10_12 C6_12 1_555 1_555
H4_12 C10_12 1_555 1_555
H5_12 C11_12 1_555 1_555
H6_12 C11_12 1_555 1_555
H7_12 C11_12 1_555 1_555
C12_12 C2_12 1_555 1_555
H8_12 C12_12 1_555 1_555
C16_12 C3_12 1_555 1_555
H14_12 C16_12 1_555 1_555
C18_12 O5_12 1_555 1_555
H16_12 C18_12 1_555 1_555
C19_12 N1_12 1_555 1_555
H17_12 C19_12 1_555 1_555
H18_12 C19_12 1_555 1_555
H19_12 C19_12 1_555 1_555
C9_12 C10_12 1_555 1_555
C12_12 C16_12 1_555 1_555
Si1_13 C2_13 1_555 1_555
Na8_8 O14_8 1_555 1_555
O10_3 C5_13 1_555 1_555
O13_3 C5_13 1_555 1_555
O14_8 C8_13 1_555 1_555
O6_13 Na8_8 1_555 1_555
N2_13 C17_13 1_555 1_555
C1_13 C8_13 1_555 1_555
C2_13 C4_13 1_555 1_555
C3_13 C5_13 1_555 1_555
C4_13 H1_13 1_555 1_555
C6_13 Si1_13 1_555 1_555
C7_13 C3_13 1_555 1_555
H2_13 C7_13 1_555 1_555
C9_13 C1_13 1_555 1_555
C10_13 C6_13 1_555 1_555
C11_13 Si1_13 1_555 1_555
H6_13 C11_13 1_555 1_555
H7_13 C11_13 1_555 1_555
C12_13 C2_13 1_555 1_555
C13_13 C6_13 1_555 1_555
H9_13 C13_13 1_555 1_555
C14_13 Si1_13 1_555 1_555
H10_13 C14_13 1_555 1_555
H11_13 C14_13 1_555 1_555
H12_13 C14_13 1_555 1_555
C15_13 C1_13 1_555 1_555
H13_13 C15_13 1_555 1_555
C16_13 C3_13 1_555 1_555
C17_13 O6_13 1_555 1_555
H15_13 C17_13 1_555 1_555
C22_13 N2_13 1_555 1_555
H26_13 C22_13 1_555 1_555
H27_13 C22_13 1_555 1_555
H28_13 C22_13 1_555 1_555
Na8 O13_3 1_555 1_555
C4_13 C7_13 1_555 1_555
C9_13 C10_13 1_555 1_555
C12_13 C16_13 1_555 1_555
C13_13 C15_13 1_555 1_555
O5_13 Na5_3 1_555 1_555
N1_13 C18_13 1_555 1_555
C18_13 O5_13 1_555 1_555
H16_13 C18_13 1_555 1_555
C19_13 N1_13 1_555 1_555
H17_13 C19_13 1_555 1_555
H18_13 C19_13 1_555 1_555
H19_13 C19_13 1_555 1_555
C20_10 N1_13 1_555 1_555
H20_10 C20_10 1_555 1_555
H21_10 C20_10 1_555 1_555
H22_10 C20_10 1_555 1_555
O9 Na5_3 1_555 1_555
O6_14 Na8_7 1_555 1_555
N2_14 C17_14 1_555 1_555
H10_14 C14_14 1_555 1_555
H11_14 C14_14 1_555 1_555
H12_14 C14_14 1_555 1_555
C17_14 O6_14 1_555 1_555
H15_14 C17_14 1_555 1_555
C21_10 N2_14 1_555 1_555
H23_10 C21_10 1_555 1_555
H24_7 C21_10 1_555 1_555
H25_10 C21_10 1_555 1_555
C22_14 N2_14 1_555 1_555
H26_14 C22_14 1_555 1_555
H27_14 C22_14 1_555 1_555
H28_14 C22_14 1_555 1_555
Si1_14 C2_14 1_555 1_555
Na5_4 O10_4 1_555 1_555
O9_7 C8_14 1_555 1_555
O10_4 C5_14 1_555 1_555
O13_4 C5_14 1_555 1_555
O14_7 C8_14 1_555 1_555
O5_14 Na5_4 1_555 1_555
C1_14 C8_14 1_555 1_555
C2_14 C4_14 1_555 1_555
C3_14 C5_14 1_555 1_555
C6_14 Si1_14 1_555 1_555
C7_14 C3_14 1_555 1_555
H2_14 C7_14 1_555 1_555
C9_14 C1_14 1_555 1_555
H3_14 C9_14 1_555 1_555
C10_14 C6_14 1_555 1_555
H4_14 C10_14 1_555 1_555
C11_14 Si1_14 1_555 1_555
H5_14 C11_14 1_555 1_555
H6_14 C11_14 1_555 1_555
H7_14 C11_14 1_555 1_555
C12_14 C2_14 1_555 1_555
H8_14 C12_14 1_555 1_555
C13_14 C6_14 1_555 1_555
C15_14 C1_14 1_555 1_555
H13_14 C15_14 1_555 1_555
C16_14 C3_14 1_555 1_555
H14_14 C16_14 1_555 1_555
Na8_2 O13_4 1_555 1_555
O9_2 Na5_4 1_555 1_555
C4_14 C7_14 1_555 1_555
C9_14 C10_14 1_555 1_555
C12_14 C16_14 1_555 1_555
C13_14 C15_14 1_555 1_555
N1_14 C18_14 1_555 1_555
H16_14 C18_14 1_555 1_555
C19_14 N1_14 1_555 1_555
H17_14 C19_14 1_555 1_555
H18_14 C19_14 1_555 1_555
C20_11 N1_14 1_555 1_555
H20_11 C20_11 1_555 1_555
H21_11 C20_11 1_555 1_555
H22_11 C20_11 1_555 1_555
Na8 O14 1_555 1_555
O6_15 Na8 1_555 1_555
N2_15 C17_15 1_555 1_555
C4_15 H1_15 1_555 1_555
H2_15 C7_15 1_555 1_555
H9_15 C13_15 1_555 1_555
C14_15 Si1_15 1_555 1_555
H10_15 C14_15 1_555 1_555
H11_15 C14_15 1_555 1_555
H12_15 C14_15 1_555 1_555
H13_15 C15_15 1_555 1_555
C17_15 O6_15 1_555 1_555
H15_15 C17_15 1_555 1_555
C21_11 N2_15 1_555 1_555
H23_11 C21_11 1_555 1_555
H25_11 C21_11 1_555 1_555
C22_15 N2_15 1_555 1_555
H26_15 C22_15 1_555 1_555
H27_15 C22_15 1_555 1_555
H28_15 C22_15 1_555 1_555
C4_15 C7_15 1_555 1_555
C13_15 C15_15 1_555 1_555
Na5_6 O10_6 1_555 1_555
O9 C8_15 1_555 1_555
O10_6 C5_15 1_555 1_555
O5_15 Na5_6 1_555 1_555
N1_15 C18_15 1_555 1_555
C1_15 C8_15 1_555 1_555
C3_15 C5_15 1_555 1_555
C9_15 C1_15 1_555 1_555
H3_15 C9_15 1_555 1_555
C10_15 C6_15 1_555 1_555
H4_15 C10_15 1_555 1_555
H5_15 C11_15 1_555 1_555
H6_15 C11_15 1_555 1_555
H7_15 C11_15 1_555 1_555
C12_15 C2_15 1_555 1_555
H8_15 C12_15 1_555 1_555
C16_15 C3_15 1_555 1_555
H14_15 C16_15 1_555 1_555
C18_15 O5_15 1_555 1_555
H16_15 C18_15 1_555 1_555
C19_15 N1_15 1_555 1_555
H17_15 C19_15 1_555 1_555
H18_15 C19_15 1_555 1_555
H19_15 C19_15 1_555 1_555
C9_15 C10_15 1_555 1_555
C12_15 C16_15 1_555 1_555
N2_16 C17_16 1_555 1_555
H15_16 C17_16 1_555 1_555
C21_12 N2_16 1_555 1_555
H23_12 C21_12 1_555 1_555
H24_8 C21_12 1_555 1_555
H25_12 C21_12 1_555 1_555
C22_16 N2_16 1_555 1_555
H26_16 C22_16 1_555 1_555
H27_16 C22_16 1_555 1_555
Si1_16 C2_16 1_555 1_555
Na8_2 O14_2 1_555 1_555
O9_2 C8_16 1_555 1_555
O10_5 C5_16 1_555 1_555
O13_5 C5_16 1_555 1_555
O14_2 C8_16 1_555 1_555
O6_16 Na8_2 1_555 1_555
C1_16 C8_16 1_555 1_555
C2_16 C4_16 1_555 1_555
C3_16 C5_16 1_555 1_555
C4_16 H1_16 1_555 1_555
C6_16 Si1_16 1_555 1_555
C7_16 C3_16 1_555 1_555
H2_16 C7_16 1_555 1_555
C9_16 C1_16 1_555 1_555
H3_16 C9_16 1_555 1_555
C10_16 C6_16 1_555 1_555
H4_16 C10_16 1_555 1_555
C11_16 Si1_16 1_555 1_555
H5_16 C11_16 1_555 1_555
H6_16 C11_16 1_555 1_555
H7_16 C11_16 1_555 1_555
C12_16 C2_16 1_555 1_555
H8_16 C12_16 1_555 1_555
C13_16 C6_16 1_555 1_555
H9_16 C13_16 1_555 1_555
C14_16 Si1_16 1_555 1_555
H10_16 C14_16 1_555 1_555
H11_16 C14_16 1_555 1_555
H12_16 C14_16 1_555 1_555
C15_16 C1_16 1_555 1_555
H13_16 C15_16 1_555 1_555
C16_16 C3_16 1_555 1_555
H14_16 C16_16 1_555 1_555
C4_16 C7_16 1_555 1_555
C9_16 C10_16 1_555 1_555
C12_16 C16_16 1_555 1_555
C13_16 C15_16 1_555 1_555
O5_16 Na5_5 1_555 1_555
N1_16 C18_16 1_555 1_555
C18_16 O5_16 1_555 1_555
H16_16 C18_16 1_555 1_555
C19_16 N1_16 1_555 1_555
H17_16 C19_16 1_555 1_555
H18_16 C19_16 1_555 1_555
H19_16 C19_16 1_555 1_555
C20_12 N1_16 1_555 1_555
H20_12 C20_12 1_555 1_555
H21_12 C20_12 1_555 1_555
H22_12 C20_12 1_555 1_555
H23_13 C21_13 1_555 1_555
H24_9 C21_13 1_555 1_555
H25_13 C21_13 1_555 1_555
H20_13 C20_13 1_555 1_555
H21_13 C20_13 1_555 1_555
H22_13 C20_13 1_555 1_555
H23_14 C21_14 1_555 1_555
H24_11 C21_14 1_555 1_555
H25_14 C21_14 1_555 1_555
H20_14 C20_14 1_555 1_555
H21_14 C20_14 1_555 1_555
H22_14 C20_14 1_555 1_555
H23_15 C21_15 1_555 1_555
H24_13 C21_15 1_555 1_555
H25_15 C21_15 1_555 1_555
H20_15 C20_15 1_555 1_555
H21_15 C20_15 1_555 1_555
H22_15 C20_15 1_555 1_555
H23_16 C21_16 1_555 1_555
H24_15 C21_16 1_555 1_555
H25_16 C21_16 1_555 1_555
H20_16 C20_16 1_555 1_555
H21_16 C20_16 1_555 1_555
H22_16 C20_16 1_555 1_555

#END
