
###############################################################################
#
# This file contains modified crystal structure data generated from the
# MOF subset of the Cambridge Structural Database (CSD) v543 
# hosted by the Cambridge Crystallographic Data Centre (CCDC).
#
# This work is licensed under the Creative Commons
# Attribution-NonCommercial-ShareAlike 4.0 International License.
# To view a copy of this license, visit
# http://creativecommons.org/licenses/by-nc-sa/4.0/
# or send a letter to
# Creative Commons, PO Box 1866, Mountain View, CA 94042, USA.
#
# CIF created using the CSD Python API on 29 September 2022
# The structure has been converted into the P1 space group
# The structure has a 3D framework
# The original CSD entry ZIQREZ is in the orthorhombic crystal system
# The framework has been calculated to contain at least 10.0% void space
# The void calculation uses a probe of radius 1.32A, grid spacing 0.4
# H atom positions have been added when not included in the experimental data
#
###############################################################################

data_ZIQREZ
_chemical_formula_moiety         '(C144 H136 N16 O84 Sm8)n'
_symmetry_cell_setting           triclinic
_symmetry_space_group_name_H-M   'P 1'
_symmetry_Int_Tables_number      1
_space_group_name_Hall           'P 1'
loop_
_symmetry_equiv_pos_site_id
_symmetry_equiv_pos_as_xyz
1 x,y,z
_cell_length_a                   11.948(3)
_cell_length_b                   14.292(3)
_cell_length_c                   28.555(7)
_cell_angle_alpha                90
_cell_angle_beta                 90
_cell_angle_gamma                90
_cell_volume                     4876.08
loop_
_atom_site_label
_atom_site_type_symbol
_atom_site_fract_x
_atom_site_fract_y
_atom_site_fract_z
O1 O 0.0540(5) 0.0991(4) 0.38004(18)
O2 O 0.0521(5) 0.1518(4) 0.45254(18)
O3 O 0.3273(5) 0.3892(5) 0.5004(2)
O4 O 0.4496(5) 0.4466(4) 0.4522(2)
O5 O 0.3420(6) 0.2960(5) 0.1146(2)
O6 O 0.3795(5) 0.4431(4) 0.1325(2)
O7 O 0.3159(11) 0.0753(6) 0.2512(4)
O8 O 0.4184(7) 0.1180(5) 0.3068(3)
N1 N 0.3604(8) 0.1354(6) 0.2744(3)
C1 C 0.0934(7) 0.1509(6) 0.4116(3)
C2 C 0.1876(7) 0.2160(6) 0.4003(3)
C3 C 0.2352(6) 0.2715(5) 0.4345(3)
H5 H 0.2112 0.2664 0.4653
C4 C 0.3196(7) 0.3358(6) 0.4229(3)
C5 C 0.3523(7) 0.3438(6) 0.3766(3)
H6 H 0.4075 0.3868 0.3686
C6 C 0.3043(7) 0.2890(6) 0.3423(3)
C7 C 0.2232(6) 0.2248(6) 0.3537(3)
H7 H 0.1919 0.1872 0.3306
C8 C 0.3692(7) 0.3952(6) 0.4604(3)
C9 C 0.3336(6) 0.3037(6) 0.2916(3)
C10 C 0.3334(6) 0.3950(6) 0.2740(3)
H8 H 0.3248 0.4453 0.2944
C11 C 0.3459(7) 0.4112(6) 0.2258(3)
H9 H 0.3506 0.4723 0.2147
C12 C 0.3514(7) 0.3388(6) 0.1950(3)
C13 C 0.3533(7) 0.2479(6) 0.2111(3)
H10 H 0.3592 0.1977 0.1905
C14 C 0.3462(7) 0.2340(6) 0.2591(3)
C15 C 0.3575(7) 0.3588(6) 0.1434(3)
Sm2 Sm 0.39850(3) 0.45768(3) 0.56907(2)
Sm3 Sm 0.39850(3) 0.54232(3) 0.06907(2)
Sm4 Sm 0.60150(3) 0.54232(3) 0.43093(2)
O13 O 0.0504(5) 0.9466(4) 0.4522(2)
Sm1 Sm 0.89850(3) 0.04232(3) 0.43093(2)
O10 O 0.8441(6) 0.1866(6) 0.3914(4)
H3 H 0.794(12) 0.205(10) 0.371(5)
H4 H 0.805(14) 0.209(12) 0.408(6)
O11 O 0.7008(6) 0.0467(6) 0.4182(3)
N2 N 0.5147(11) 0.0317(11) 0.4209(6)
C16 C 0.6168(19) 0.0134(18) 0.4140(9)
C17 C 0.4933(16) 0.1269(13) 0.4392(7)
H11 H 0.4143 0.1356 0.4436
H12 H 0.5310 0.1346 0.4686
H13 H 0.5208 0.1724 0.4173
H14 H 0.3453 0.0136 0.4269
O12 O 0.8273(5) 0.1108(5) 0.4996(2)
O9 O 0.8234(5) 0.8970(4) 0.4682(2)
H1 H 0.831(9) 0.847(3) 0.453(2)
H2 H 0.822(8) 0.885(5) 0.4973(6)
C18 C 0.4080(15) 0.9743(13) 0.4194(8)
H15 H 0.3984 0.9487 0.3886
H16 H 0.4128 0.9244 0.4418
O14 O 0.8795(5) 0.9431(4) 0.3675(2)
H17 H 0.625726 0.943386 0.399423
Sm1_2 Sm 0.60150(3) 0.45768(3) 0.93093(2)
O1_2 O 0.4460(5) 0.4009(4) 0.88004(18)
O2_2 O 0.4479(5) 0.3482(4) 0.95254(18)
O4_2 O 0.0504(5) 0.0534(4) 0.9522(2)
O5_2 O 0.1580(6) 0.2040(5) 0.6146(2)
O6_2 O 0.1205(5) 0.0569(4) 0.6325(2)
O7_2 O 0.1841(11) 0.4247(6) 0.7512(4)
O8_2 O 0.0816(7) 0.3820(5) 0.8068(3)
O9_2 O 0.6766(5) 0.6030(4) 0.9682(2)
H1_2 H 0.669(9) 0.653(3) 0.953(2)
H2_2 H 0.678(8) 0.615(5) 0.9973(6)
O10_2 O 0.6559(6) 0.3134(6) 0.8914(4)
H3_2 H 0.706(12) 0.295(10) 0.871(5)
H4_2 H 0.695(14) 0.291(12) 0.908(6)
O11_2 O 0.7992(6) 0.4533(6) 0.9182(3)
N1_2 N 0.1396(8) 0.3646(6) 0.7744(3)
N2_2 N 0.9853(11) 0.4683(11) 0.9209(6)
C1_2 C 0.4066(7) 0.3491(6) 0.9116(3)
C2_2 C 0.3124(7) 0.2840(6) 0.9003(3)
C3_2 C 0.2648(6) 0.2285(5) 0.9345(3)
H5_2 H 0.2888 0.2336 0.9653
C4_2 C 0.1804(7) 0.1642(6) 0.9229(3)
C5_2 C 0.1477(7) 0.1562(6) 0.8766(3)
H6_2 H 0.0925 0.1132 0.8686
C6_2 C 0.1957(7) 0.2110(6) 0.8423(3)
C7_2 C 0.2768(6) 0.2752(6) 0.8537(3)
H7_2 H 0.3081 0.3128 0.8306
C8_2 C 0.1308(7) 0.1048(6) 0.9604(3)
C9_2 C 0.1664(6) 0.1963(6) 0.7916(3)
C10_2 C 0.1666(6) 0.1050(6) 0.7740(3)
H8_2 H 0.1752 0.0547 0.7944
C11_2 C 0.1541(7) 0.0888(6) 0.7258(3)
H9_2 H 0.1494 0.0277 0.7147
C12_2 C 0.1486(7) 0.1612(6) 0.6950(3)
C13_2 C 0.1467(7) 0.2521(6) 0.7111(3)
H10_2 H 0.1408 0.3023 0.6905
C14_2 C 0.1538(7) 0.2660(6) 0.7591(3)
C15_2 C 0.1425(7) 0.1412(6) 0.6434(3)
C16_2 C 0.8832(19) 0.4866(18) 0.9140(9)
H12_2 H 0.9690 0.3654 0.9686
H13_2 H 0.9792 0.3276 0.9173
O12_2 O 0.6727(5) 0.3892(5) 0.9996(2)
O13_2 O 0.4496(5) 0.5534(4) 0.9522(2)
O14_2 O 0.6205(5) 0.5569(4) 0.8675(2)
H17_2 H 0.874274 0.556614 0.899423
Sm3_2 Sm 0.10150(3) 0.95768(3) 0.56907(2)
O9_3 O 0.1766(5) 0.8970(4) 0.0318(2)
H1_3 H 0.169(9) 0.847(3) 0.047(2)
H2_3 H 0.178(8) 0.885(5) 0.0027(6)
C18_2 C 0.5920(15) 0.9743(13) 0.0806(8)
H15_2 H 0.6016 0.9487 0.1114
H16_2 H 0.5872 0.9244 0.0582
O14_3 O 0.1205(5) 0.9431(4) 0.1325(2)
H17_3 H 0.374274 0.943386 0.100577
O1_3 O 0.9460(5) 0.0991(4) 0.11996(18)
O2_3 O 0.9479(5) 0.1518(4) 0.04746(18)
O4_3 O 0.5504(5) 0.4466(4) 0.0478(2)
O5_3 O 0.6580(6) 0.2960(5) 0.3854(2)
O6_3 O 0.6205(5) 0.4431(4) 0.3675(2)
O7_3 O 0.6841(11) 0.0753(6) 0.2488(4)
O8_3 O 0.5816(7) 0.1180(5) 0.1932(3)
N1_3 N 0.6396(8) 0.1354(6) 0.2256(3)
C1_3 C 0.9066(7) 0.1509(6) 0.0884(3)
C2_3 C 0.8124(7) 0.2160(6) 0.0997(3)
C3_3 C 0.7648(6) 0.2715(5) 0.0655(3)
H5_3 H 0.7888 0.2664 0.0347
C4_3 C 0.6804(7) 0.3358(6) 0.0771(3)
C5_3 C 0.6477(7) 0.3438(6) 0.1234(3)
H6_3 H 0.5925 0.3868 0.1314
C6_3 C 0.6957(7) 0.2890(6) 0.1577(3)
C7_3 C 0.7768(6) 0.2248(6) 0.1463(3)
H7_3 H 0.8081 0.1872 0.1694
C8_3 C 0.6308(7) 0.3952(6) 0.0396(3)
C9_3 C 0.6664(6) 0.3037(6) 0.2084(3)
C10_3 C 0.6666(6) 0.3950(6) 0.2260(3)
H8_3 H 0.6752 0.4453 0.2056
C11_3 C 0.6541(7) 0.4112(6) 0.2742(3)
H9_3 H 0.6494 0.4723 0.2853
C12_3 C 0.6486(7) 0.3388(6) 0.3050(3)
C13_3 C 0.6467(7) 0.2479(6) 0.2889(3)
H10_3 H 0.6408 0.1977 0.3095
C14_3 C 0.6538(7) 0.2340(6) 0.2409(3)
C15_3 C 0.6425(7) 0.3588(6) 0.3566(3)
O13_3 O 0.9496(5) 0.9466(4) 0.0478(2)
O1_4 O 0.5540(5) 0.4009(4) 0.61996(18)
O2_4 O 0.5521(5) 0.3482(4) 0.54746(18)
O4_4 O 0.9496(5) 0.0534(4) 0.5478(2)
O5_4 O 0.8420(6) 0.2040(5) 0.8854(2)
O6_4 O 0.8795(5) 0.0569(4) 0.8675(2)
O7_4 O 0.8159(11) 0.4247(6) 0.7488(4)
O8_4 O 0.9184(7) 0.3820(5) 0.6932(3)
O9_4 O 0.3234(5) 0.6030(4) 0.5318(2)
H1_4 H 0.331(9) 0.653(3) 0.547(2)
H2_4 H 0.322(8) 0.615(5) 0.5027(6)
O10_3 O 0.3441(6) 0.3134(6) 0.6086(4)
H3_3 H 0.294(12) 0.295(10) 0.629(5)
H4_3 H 0.305(14) 0.291(12) 0.592(6)
O11_3 O 0.2008(6) 0.4533(6) 0.5818(3)
N1_4 N 0.8604(8) 0.3646(6) 0.7256(3)
N2_3 N 0.0147(11) 0.4683(11) 0.5791(6)
C1_4 C 0.5934(7) 0.3491(6) 0.5884(3)
C2_4 C 0.6876(7) 0.2840(6) 0.5997(3)
C3_4 C 0.7352(6) 0.2285(5) 0.5655(3)
H5_4 H 0.7112 0.2336 0.5347
C4_4 C 0.8196(7) 0.1642(6) 0.5771(3)
C5_4 C 0.8523(7) 0.1562(6) 0.6234(3)
H6_4 H 0.9075 0.1132 0.6314
C6_4 C 0.8043(7) 0.2110(6) 0.6577(3)
C7_4 C 0.7232(6) 0.2752(6) 0.6463(3)
H7_4 H 0.6919 0.3128 0.6694
C8_4 C 0.8692(7) 0.1048(6) 0.5396(3)
C9_4 C 0.8336(6) 0.1963(6) 0.7084(3)
C10_4 C 0.8334(6) 0.1050(6) 0.7260(3)
H8_4 H 0.8248 0.0547 0.7056
C11_4 C 0.8459(7) 0.0888(6) 0.7742(3)
H9_4 H 0.8506 0.0277 0.7853
C12_4 C 0.8514(7) 0.1612(6) 0.8050(3)
C13_4 C 0.8533(7) 0.2521(6) 0.7889(3)
H10_4 H 0.8592 0.3023 0.8095
C14_4 C 0.8462(7) 0.2660(6) 0.7409(3)
C15_4 C 0.8575(7) 0.1412(6) 0.8566(3)
C16_3 C 0.1168(19) 0.4866(18) 0.5860(9)
H12_3 H 0.0310 0.3654 0.5314
H13_3 H 0.0208 0.3276 0.5827
O13_4 O 0.5504(5) 0.5534(4) 0.5478(2)
O14_4 O 0.3795(5) 0.5569(4) 0.6325(2)
H17_4 H 0.125726 0.556614 0.600577
O9_5 O 0.1766(5) 0.1030(4) 0.5318(2)
H1_5 H 0.169(9) 0.153(3) 0.547(2)
H2_5 H 0.178(8) 0.115(5) 0.5027(6)
C18_3 C 0.5920(15) 0.0257(13) 0.5806(8)
H15_3 H 0.6016 0.0513 0.6114
H16_3 H 0.5872 0.0756 0.5582
H17_5 H 0.374274 0.0566142 0.600577
O10_4 O 0.1559(6) 0.8134(6) 0.6086(4)
H3_4 H 0.206(12) 0.795(10) 0.629(5)
H4_4 H 0.195(14) 0.791(12) 0.592(6)
O11_4 O 0.2992(6) 0.9533(6) 0.5818(3)
N2_4 N 0.4853(11) 0.9683(11) 0.5791(6)
C16_4 C 0.3832(19) 0.9866(18) 0.5860(9)
C17_2 C 0.5067(16) 0.8731(13) 0.5608(7)
H11_2 H 0.5857 0.8644 0.5564
H12_4 H 0.4690 0.8654 0.5314
H13_4 H 0.4792 0.8276 0.5827
H14_2 H 0.6547 0.9864 0.5731
O12_3 O 0.1727(5) 0.8892(5) 0.5004(2)
O1_5 O 0.9460(5) 0.9009(4) 0.61996(18)
O2_5 O 0.9479(5) 0.8482(4) 0.54746(18)
O3_2 O 0.6727(5) 0.6108(5) 0.4996(2)
O5_5 O 0.6580(6) 0.7040(5) 0.8854(2)
O7_5 O 0.6841(11) 0.9247(6) 0.7488(4)
O8_5 O 0.5816(7) 0.8820(5) 0.6932(3)
N1_5 N 0.6396(8) 0.8646(6) 0.7256(3)
C1_5 C 0.9066(7) 0.8491(6) 0.5884(3)
C2_5 C 0.8124(7) 0.7840(6) 0.5997(3)
C3_5 C 0.7648(6) 0.7285(5) 0.5655(3)
H5_5 H 0.7888 0.7336 0.5347
C4_5 C 0.6804(7) 0.6642(6) 0.5771(3)
C5_5 C 0.6477(7) 0.6562(6) 0.6234(3)
H6_5 H 0.5925 0.6132 0.6314
C6_5 C 0.6957(7) 0.7110(6) 0.6577(3)
C7_5 C 0.7768(6) 0.7752(6) 0.6463(3)
H7_5 H 0.8081 0.8128 0.6694
C8_5 C 0.6308(7) 0.6048(6) 0.5396(3)
C9_5 C 0.6664(6) 0.6963(6) 0.7084(3)
C10_5 C 0.6666(6) 0.6050(6) 0.7260(3)
H8_5 H 0.6752 0.5547 0.7056
C11_5 C 0.6541(7) 0.5888(6) 0.7742(3)
H9_5 H 0.6494 0.5277 0.7853
C12_5 C 0.6486(7) 0.6612(6) 0.8050(3)
C13_5 C 0.6467(7) 0.7521(6) 0.7889(3)
H10_5 H 0.6408 0.8023 0.8095
C14_5 C 0.6538(7) 0.7660(6) 0.7409(3)
C15_5 C 0.6425(7) 0.6412(6) 0.8566(3)
O1_6 O 0.5540(5) 0.5991(4) 0.11996(18)
O2_6 O 0.5521(5) 0.6518(4) 0.04746(18)
O5_6 O 0.8420(6) 0.7960(5) 0.3854(2)
O7_6 O 0.8159(11) 0.5753(6) 0.2488(4)
O8_6 O 0.9184(7) 0.6180(5) 0.1932(3)
O9_6 O 0.3234(5) 0.3970(4) 0.0318(2)
H1_6 H 0.331(9) 0.347(3) 0.047(2)
H2_6 H 0.322(8) 0.385(5) 0.0027(6)
O10_5 O 0.3441(6) 0.6866(6) 0.1086(4)
H3_5 H 0.294(12) 0.705(10) 0.129(5)
H4_5 H 0.305(14) 0.709(12) 0.092(6)
O11_5 O 0.2008(6) 0.5467(6) 0.0818(3)
N1_6 N 0.8604(8) 0.6354(6) 0.2256(3)
N2_5 N 0.0147(11) 0.5317(11) 0.0791(6)
C1_6 C 0.5934(7) 0.6509(6) 0.0884(3)
C2_6 C 0.6876(7) 0.7160(6) 0.0997(3)
C3_6 C 0.7352(6) 0.7715(5) 0.0655(3)
H5_6 H 0.7112 0.7664 0.0347
C4_6 C 0.8196(7) 0.8358(6) 0.0771(3)
C5_6 C 0.8523(7) 0.8438(6) 0.1234(3)
H6_6 H 0.9075 0.8868 0.1314
C6_6 C 0.8043(7) 0.7890(6) 0.1577(3)
C7_6 C 0.7232(6) 0.7248(6) 0.1463(3)
H7_6 H 0.6919 0.6872 0.1694
C8_6 C 0.8692(7) 0.8952(6) 0.0396(3)
C9_6 C 0.8336(6) 0.8037(6) 0.2084(3)
C10_6 C 0.8334(6) 0.8950(6) 0.2260(3)
H8_6 H 0.8248 0.9453 0.2056
C11_6 C 0.8459(7) 0.9112(6) 0.2742(3)
H9_6 H 0.8506 0.9723 0.2853
C12_6 C 0.8514(7) 0.8388(6) 0.3050(3)
C13_6 C 0.8533(7) 0.7479(6) 0.2889(3)
H10_6 H 0.8592 0.6977 0.3095
C14_6 C 0.8462(7) 0.7340(6) 0.2409(3)
C15_6 C 0.8575(7) 0.8588(6) 0.3566(3)
C16_5 C 0.1168(19) 0.5134(18) 0.0860(9)
H12_5 H 0.0310 0.6346 0.0314
H13_5 H 0.0208 0.6724 0.0827
O12_4 O 0.3273(5) 0.6108(5) 0.0004(2)
H17_6 H 0.125726 0.443386 0.100577
O1_7 O 0.0540(5) 0.9009(4) 0.88004(18)
O2_7 O 0.0521(5) 0.8482(4) 0.95254(18)
O5_7 O 0.3420(6) 0.7040(5) 0.6146(2)
O7_7 O 0.3159(11) 0.9247(6) 0.7512(4)
O8_7 O 0.4184(7) 0.8820(5) 0.8068(3)
N1_7 N 0.3604(8) 0.8646(6) 0.7744(3)
C1_7 C 0.0934(7) 0.8491(6) 0.9116(3)
C2_7 C 0.1876(7) 0.7840(6) 0.9003(3)
C3_7 C 0.2352(6) 0.7285(5) 0.9345(3)
H5_7 H 0.2112 0.7336 0.9653
C4_7 C 0.3196(7) 0.6642(6) 0.9229(3)
C5_7 C 0.3523(7) 0.6562(6) 0.8766(3)
H6_7 H 0.4075 0.6132 0.8686
C6_7 C 0.3043(7) 0.7110(6) 0.8423(3)
C7_7 C 0.2232(6) 0.7752(6) 0.8537(3)
H7_7 H 0.1919 0.8128 0.8306
C8_7 C 0.3692(7) 0.6048(6) 0.9604(3)
C9_7 C 0.3336(6) 0.6963(6) 0.7916(3)
C10_7 C 0.3334(6) 0.6050(6) 0.7740(3)
H8_7 H 0.3248 0.5547 0.7944
C11_7 C 0.3459(7) 0.5888(6) 0.7258(3)
H9_7 H 0.3506 0.5277 0.7147
C12_7 C 0.3514(7) 0.6612(6) 0.6950(3)
C13_7 C 0.3533(7) 0.7521(6) 0.7111(3)
H10_7 H 0.3592 0.8023 0.6905
C14_7 C 0.3462(7) 0.7660(6) 0.7591(3)
C15_7 C 0.3575(7) 0.6412(6) 0.6434(3)
O9_7 O 0.8234(5) 0.1030(4) 0.9682(2)
H1_7 H 0.831(9) 0.153(3) 0.953(2)
H2_7 H 0.822(8) 0.115(5) 0.9973(6)
C18_4 C 0.4080(15) 0.0257(13) 0.9194(8)
H15_4 H 0.3984 0.0513 0.8886
H16_4 H 0.4128 0.0756 0.9418
H17_7 H 0.625726 0.0566142 0.899423
O1_8 O 0.4460(5) 0.5991(4) 0.38004(18)
O2_8 O 0.4479(5) 0.6518(4) 0.45254(18)
O5_8 O 0.1580(6) 0.7960(5) 0.1146(2)
O7_8 O 0.1841(11) 0.5753(6) 0.2512(4)
O8_8 O 0.0816(7) 0.6180(5) 0.3068(3)
O9_8 O 0.6766(5) 0.3970(4) 0.4682(2)
H1_8 H 0.669(9) 0.347(3) 0.453(2)
H2_8 H 0.678(8) 0.385(5) 0.4973(6)
O10_6 O 0.6559(6) 0.6866(6) 0.3914(4)
H3_6 H 0.706(12) 0.705(10) 0.371(5)
H4_6 H 0.695(14) 0.709(12) 0.408(6)
O11_6 O 0.7992(6) 0.5467(6) 0.4182(3)
N1_8 N 0.1396(8) 0.6354(6) 0.2744(3)
N2_6 N 0.9853(11) 0.5317(11) 0.4209(6)
C1_8 C 0.4066(7) 0.6509(6) 0.4116(3)
C2_8 C 0.3124(7) 0.7160(6) 0.4003(3)
C3_8 C 0.2648(6) 0.7715(5) 0.4345(3)
H5_8 H 0.2888 0.7664 0.4653
C4_8 C 0.1804(7) 0.8358(6) 0.4229(3)
C5_8 C 0.1477(7) 0.8438(6) 0.3766(3)
H6_8 H 0.0925 0.8868 0.3686
C6_8 C 0.1957(7) 0.7890(6) 0.3423(3)
C7_8 C 0.2768(6) 0.7248(6) 0.3537(3)
H7_8 H 0.3081 0.6872 0.3306
C8_8 C 0.1308(7) 0.8952(6) 0.4604(3)
C9_8 C 0.1664(6) 0.8037(6) 0.2916(3)
C10_8 C 0.1666(6) 0.8950(6) 0.2740(3)
H8_8 H 0.1752 0.9453 0.2944
C11_8 C 0.1541(7) 0.9112(6) 0.2258(3)
H9_8 H 0.1494 0.9723 0.2147
C12_8 C 0.1486(7) 0.8388(6) 0.1950(3)
C13_8 C 0.1467(7) 0.7479(6) 0.2111(3)
H10_8 H 0.1408 0.6977 0.1905
C14_8 C 0.1538(7) 0.7340(6) 0.2591(3)
C15_8 C 0.1425(7) 0.8588(6) 0.1434(3)
C16_6 C 0.8832(19) 0.5134(18) 0.4140(9)
H12_6 H 0.9690 0.6346 0.4686
H13_6 H 0.9792 0.6724 0.4173
H17_8 H 0.874274 0.443386 0.399423
C17_3 C 0.0067(16) 0.3731(13) 0.9392(7)
H11_3 H 0.0857 0.3644 0.9436
C18_5 C 0.0920(15) 0.5257(13) 0.9194(8)
H14_3 H 0.1547 0.4864 0.9269
H15_5 H 0.1016 0.5513 0.8886
H16_5 H 0.0872 0.5756 0.9418
O3_3 O 0.1727(5) 0.1108(5) 0.0004(2)
Sm2_2 Sm 0.10150(3) 0.04232(3) 0.06907(2)
O10_7 O 0.1559(6) 0.1866(6) 0.1086(4)
H3_7 H 0.206(12) 0.205(10) 0.129(5)
H4_7 H 0.195(14) 0.209(12) 0.092(6)
O11_7 O 0.2992(6) 0.0467(6) 0.0818(3)
N2_7 N 0.4853(11) 0.0317(11) 0.0791(6)
C16_7 C 0.3832(19) 0.0134(18) 0.0860(9)
C17_4 C 0.5067(16) 0.1269(13) 0.0608(7)
H11_4 H 0.5857 0.1356 0.0564
H12_7 H 0.4690 0.1346 0.0314
H13_7 H 0.4792 0.1724 0.0827
H14_4 H 0.6547 0.0136 0.0731
Sm4_2 Sm 0.89850(3) 0.95768(3) 0.93093(2)
O3_4 O 0.8273(5) 0.8892(5) 0.9996(2)
O10_8 O 0.8441(6) 0.8134(6) 0.8914(4)
H3_8 H 0.794(12) 0.795(10) 0.871(5)
H4_8 H 0.805(14) 0.791(12) 0.908(6)
O11_8 O 0.7008(6) 0.9533(6) 0.9182(3)
N2_8 N 0.5147(11) 0.9683(11) 0.9209(6)
C16_8 C 0.6168(19) 0.9866(18) 0.9140(9)
C17_5 C 0.4933(16) 0.8731(13) 0.9392(7)
H11_5 H 0.4143 0.8644 0.9436
H12_8 H 0.5310 0.8654 0.9686
H13_8 H 0.5208 0.8276 0.9173
H14_5 H 0.3453 0.9864 0.9269
C17_6 C 0.9933(16) 0.3731(13) 0.5608(7)
H11_6 H 0.9143 0.3644 0.5564
C18_6 C 0.9080(15) 0.5257(13) 0.5806(8)
H14_6 H 0.8453 0.4864 0.5731
H15_6 H 0.8984 0.5513 0.6114
H16_6 H 0.9128 0.5756 0.5582
C17_7 C 0.9933(16) 0.6269(13) 0.0608(7)
H11_7 H 0.9143 0.6356 0.0564
C18_7 C 0.9080(15) 0.4743(13) 0.0806(8)
H14_7 H 0.8453 0.5136 0.0731
H15_7 H 0.8984 0.4487 0.1114
H16_7 H 0.9128 0.4244 0.0582
C17_8 C 0.0067(16) 0.6269(13) 0.4392(7)
H11_8 H 0.0857 0.6356 0.4436
C18_8 C 0.0920(15) 0.4743(13) 0.4194(8)
H14_8 H 0.1547 0.5136 0.4269
H15_8 H 0.1016 0.4487 0.3886
H16_8 H 0.0872 0.4244 0.4418
loop_
_geom_bond_atom_site_label_1
_geom_bond_atom_site_label_2
_geom_bond_site_symmetry_1
_geom_bond_site_symmetry_2
O1 C1 1_555 1_555
O3 C8 1_555 1_555
O4 C8 1_555 1_555
O5 C15 1_555 1_555
O6 C15 1_555 1_555
O7 N1 1_555 1_555
O8 N1 1_555 1_555
N1 C14 1_555 1_555
C1 O2 1_555 1_555
C2 C1 1_555 1_555
C3 C2 1_555 1_555
H5 C3 1_555 1_555
C4 C3 1_555 1_555
C5 C4 1_555 1_555
H6 C5 1_555 1_555
C6 C5 1_555 1_555
C7 C2 1_555 1_555
H7 C7 1_555 1_555
C8 C4 1_555 1_555
C9 C6 1_555 1_555
C10 C9 1_555 1_555
H8 C10 1_555 1_555
C11 C10 1_555 1_555
H9 C11 1_555 1_555
C12 C11 1_555 1_555
C13 C12 1_555 1_555
H10 C13 1_555 1_555
C14 C9 1_555 1_555
C15 C12 1_555 1_555
Sm2 O3 1_555 1_555
Sm3 O6 1_555 1_555
Sm4 O4 1_555 1_555
C6 C7 1_555 1_555
C13 C14 1_555 1_555
O10 Sm1 1_555 1_555
H3 O10 1_555 1_555
H4 O10 1_555 1_555
O11 Sm1 1_555 1_555
N2 C16 1_555 1_555
C16 O11 1_555 1_555
C17 N2 1_555 1_555
H11 C17 1_555 1_555
H12 C17 1_555 1_555
H13 C17 1_555 1_555
O12 Sm1 1_555 1_555
H1 O9 1_555 1_555
H2 O9 1_555 1_555
H15 C18 1_555 1_555
H16 C18 1_555 1_555
Sm1_2 O1_2 1_555 1_555
O1_2 C1_2 1_555 1_555
O2_2 Sm1_2 1_555 1_555
O4_2 C8_2 1_555 1_555
O5_2 C15_2 1_555 1_555
O6_2 C15_2 1_555 1_555
O7_2 N1_2 1_555 1_555
O8_2 N1_2 1_555 1_555
O9_2 Sm1_2 1_555 1_555
H1_2 O9_2 1_555 1_555
H2_2 O9_2 1_555 1_555
O10_2 Sm1_2 1_555 1_555
H3_2 O10_2 1_555 1_555
H4_2 O10_2 1_555 1_555
O11_2 Sm1_2 1_555 1_555
N1_2 C14_2 1_555 1_555
N2_2 C16_2 1_555 1_555
C1_2 O2_2 1_555 1_555
C2_2 C1_2 1_555 1_555
C3_2 C2_2 1_555 1_555
H5_2 C3_2 1_555 1_555
C4_2 C3_2 1_555 1_555
C5_2 C4_2 1_555 1_555
H6_2 C5_2 1_555 1_555
C6_2 C5_2 1_555 1_555
C7_2 C2_2 1_555 1_555
H7_2 C7_2 1_555 1_555
C8_2 C4_2 1_555 1_555
C9_2 C6_2 1_555 1_555
C10_2 C9_2 1_555 1_555
H8_2 C10_2 1_555 1_555
C11_2 C10_2 1_555 1_555
H9_2 C11_2 1_555 1_555
C12_2 C11_2 1_555 1_555
C13_2 C12_2 1_555 1_555
H10_2 C13_2 1_555 1_555
C14_2 C9_2 1_555 1_555
C15_2 C12_2 1_555 1_555
C16_2 O11_2 1_555 1_555
O12_2 Sm1_2 1_555 1_555
O13_2 Sm1_2 1_555 1_555
O14_2 Sm1_2 1_555 1_555
C6_2 C7_2 1_555 1_555
C13_2 C14_2 1_555 1_555
C16_2 H17_2 1_555 1_555
H1_3 O9_3 1_555 1_555
H2_3 O9_3 1_555 1_555
H15_2 C18_2 1_555 1_555
H16_2 C18_2 1_555 1_555
O1_3 C1_3 1_555 1_555
O4_3 C8_3 1_555 1_555
O5_3 C15_3 1_555 1_555
O6_3 C15_3 1_555 1_555
O7_3 N1_3 1_555 1_555
O8_3 N1_3 1_555 1_555
N1_3 C14_3 1_555 1_555
C1_3 O2_3 1_555 1_555
C2_3 C1_3 1_555 1_555
C3_3 C2_3 1_555 1_555
H5_3 C3_3 1_555 1_555
C4_3 C3_3 1_555 1_555
C5_3 C4_3 1_555 1_555
H6_3 C5_3 1_555 1_555
C6_3 C5_3 1_555 1_555
C7_3 C2_3 1_555 1_555
H7_3 C7_3 1_555 1_555
C8_3 C4_3 1_555 1_555
C9_3 C6_3 1_555 1_555
C10_3 C9_3 1_555 1_555
H8_3 C10_3 1_555 1_555
C11_3 C10_3 1_555 1_555
H9_3 C11_3 1_555 1_555
C12_3 C11_3 1_555 1_555
C13_3 C12_3 1_555 1_555
H10_3 C13_3 1_555 1_555
C14_3 C9_3 1_555 1_555
C15_3 C12_3 1_555 1_555
Sm4 O6_3 1_555 1_555
Sm3 O4_3 1_555 1_555
C6_3 C7_3 1_555 1_555
C13_3 C14_3 1_555 1_555
Sm2 O1_4 1_555 1_555
O1_4 C1_4 1_555 1_555
O2_4 Sm2 1_555 1_555
O12 C8_4 1_555 1_555
O4_4 C8_4 1_555 1_555
O5_4 C15_4 1_555 1_555
O6_4 C15_4 1_555 1_555
O7_4 N1_4 1_555 1_555
O8_4 N1_4 1_555 1_555
O9_4 Sm2 1_555 1_555
H1_4 O9_4 1_555 1_555
H2_4 O9_4 1_555 1_555
O10_3 Sm2 1_555 1_555
H3_3 O10_3 1_555 1_555
H4_3 O10_3 1_555 1_555
O11_3 Sm2 1_555 1_555
N1_4 C14_4 1_555 1_555
N2_3 C16_3 1_555 1_555
C1_4 O2_4 1_555 1_555
C2_4 C1_4 1_555 1_555
C3_4 C2_4 1_555 1_555
H5_4 C3_4 1_555 1_555
C4_4 C3_4 1_555 1_555
C5_4 C4_4 1_555 1_555
H6_4 C5_4 1_555 1_555
C6_4 C5_4 1_555 1_555
C7_4 C2_4 1_555 1_555
H7_4 C7_4 1_555 1_555
C8_4 C4_4 1_555 1_555
C9_4 C6_4 1_555 1_555
C10_4 C9_4 1_555 1_555
H8_4 C10_4 1_555 1_555
C11_4 C10_4 1_555 1_555
H9_4 C11_4 1_555 1_555
C12_4 C11_4 1_555 1_555
C13_4 C12_4 1_555 1_555
H10_4 C13_4 1_555 1_555
C14_4 C9_4 1_555 1_555
C15_4 C12_4 1_555 1_555
C16_3 O11_3 1_555 1_555
O13_4 Sm2 1_555 1_555
O14_4 Sm2 1_555 1_555
C6_4 C7_4 1_555 1_555
C13_4 C14_4 1_555 1_555
C16_3 H17_4 1_555 1_555
H1_5 O9_5 1_555 1_555
H2_5 O9_5 1_555 1_555
H15_3 C18_3 1_555 1_555
H16_3 C18_3 1_555 1_555
O10_4 Sm3_2 1_555 1_555
H3_4 O10_4 1_555 1_555
H4_4 O10_4 1_555 1_555
O11_4 Sm3_2 1_555 1_555
N2_4 C16_4 1_555 1_555
C16_4 O11_4 1_555 1_555
C17_2 N2_4 1_555 1_555
H11_2 C17_2 1_555 1_555
H12_4 C17_2 1_555 1_555
H13_4 C17_2 1_555 1_555
O12_3 Sm3_2 1_555 1_555
O1_5 C1_5 1_555 1_555
O3_2 C8_5 1_555 1_555
O13_4 C8_5 1_555 1_555
O5_5 C15_5 1_555 1_555
O14_2 C15_5 1_555 1_555
O7_5 N1_5 1_555 1_555
O8_5 N1_5 1_555 1_555
N1_5 C14_5 1_555 1_555
C1_5 O2_5 1_555 1_555
C2_5 C1_5 1_555 1_555
C3_5 C2_5 1_555 1_555
H5_5 C3_5 1_555 1_555
C4_5 C3_5 1_555 1_555
C5_5 C4_5 1_555 1_555
H6_5 C5_5 1_555 1_555
C6_5 C5_5 1_555 1_555
C7_5 C2_5 1_555 1_555
H7_5 C7_5 1_555 1_555
C8_5 C4_5 1_555 1_555
C9_5 C6_5 1_555 1_555
C10_5 C9_5 1_555 1_555
H8_5 C10_5 1_555 1_555
C11_5 C10_5 1_555 1_555
H9_5 C11_5 1_555 1_555
C12_5 C11_5 1_555 1_555
C13_5 C12_5 1_555 1_555
H10_5 C13_5 1_555 1_555
C14_5 C9_5 1_555 1_555
C15_5 C12_5 1_555 1_555
Sm4 O3_2 1_555 1_555
C6_5 C7_5 1_555 1_555
C13_5 C14_5 1_555 1_555
Sm3 O1_6 1_555 1_555
O1_6 C1_6 1_555 1_555
O2_6 Sm3 1_555 1_555
O13_3 C8_6 1_555 1_555
O5_6 C15_6 1_555 1_555
O14 C15_6 1_555 1_555
O7_6 N1_6 1_555 1_555
O8_6 N1_6 1_555 1_555
O9_6 Sm3 1_555 1_555
H1_6 O9_6 1_555 1_555
H2_6 O9_6 1_555 1_555
O10_5 Sm3 1_555 1_555
H3_5 O10_5 1_555 1_555
H4_5 O10_5 1_555 1_555
O11_5 Sm3 1_555 1_555
N1_6 C14_6 1_555 1_555
N2_5 C16_5 1_555 1_555
C1_6 O2_6 1_555 1_555
C2_6 C1_6 1_555 1_555
C3_6 C2_6 1_555 1_555
H5_6 C3_6 1_555 1_555
C4_6 C3_6 1_555 1_555
C5_6 C4_6 1_555 1_555
H6_6 C5_6 1_555 1_555
C6_6 C5_6 1_555 1_555
C7_6 C2_6 1_555 1_555
H7_6 C7_6 1_555 1_555
C8_6 C4_6 1_555 1_555
C9_6 C6_6 1_555 1_555
C10_6 C9_6 1_555 1_555
H8_6 C10_6 1_555 1_555
C11_6 C10_6 1_555 1_555
H9_6 C11_6 1_555 1_555
C12_6 C11_6 1_555 1_555
C13_6 C12_6 1_555 1_555
H10_6 C13_6 1_555 1_555
C14_6 C9_6 1_555 1_555
C15_6 C12_6 1_555 1_555
C16_5 O11_5 1_555 1_555
O12_4 Sm3 1_555 1_555
C6_6 C7_6 1_555 1_555
C13_6 C14_6 1_555 1_555
C16_5 H17_6 1_555 1_555
O1_7 C1_7 1_555 1_555
O13_2 C8_7 1_555 1_555
O5_7 C15_7 1_555 1_555
O14_4 C15_7 1_555 1_555
O7_7 N1_7 1_555 1_555
O8_7 N1_7 1_555 1_555
N1_7 C14_7 1_555 1_555
C1_7 O2_7 1_555 1_555
C2_7 C1_7 1_555 1_555
C3_7 C2_7 1_555 1_555
H5_7 C3_7 1_555 1_555
C4_7 C3_7 1_555 1_555
C5_7 C4_7 1_555 1_555
H6_7 C5_7 1_555 1_555
C6_7 C5_7 1_555 1_555
C7_7 C2_7 1_555 1_555
H7_7 C7_7 1_555 1_555
C8_7 C4_7 1_555 1_555
C9_7 C6_7 1_555 1_555
C10_7 C9_7 1_555 1_555
H8_7 C10_7 1_555 1_555
C11_7 C10_7 1_555 1_555
H9_7 C11_7 1_555 1_555
C12_7 C11_7 1_555 1_555
C13_7 C12_7 1_555 1_555
H10_7 C13_7 1_555 1_555
C14_7 C9_7 1_555 1_555
C15_7 C12_7 1_555 1_555
C6_7 C7_7 1_555 1_555
C13_7 C14_7 1_555 1_555
H1_7 O9_7 1_555 1_555
H2_7 O9_7 1_555 1_555
H15_4 C18_4 1_555 1_555
H16_4 C18_4 1_555 1_555
Sm4 O1_8 1_555 1_555
O1_8 C1_8 1_555 1_555
O2_8 Sm4 1_555 1_555
O12_3 C8_8 1_555 1_555
O13 C8_8 1_555 1_555
O5_8 C15_8 1_555 1_555
O14_3 C15_8 1_555 1_555
O7_8 N1_8 1_555 1_555
O8_8 N1_8 1_555 1_555
O9_8 Sm4 1_555 1_555
H1_8 O9_8 1_555 1_555
H2_8 O9_8 1_555 1_555
O10_6 Sm4 1_555 1_555
H3_6 O10_6 1_555 1_555
H4_6 O10_6 1_555 1_555
O11_6 Sm4 1_555 1_555
N1_8 C14_8 1_555 1_555
N2_6 C16_6 1_555 1_555
C1_8 O2_8 1_555 1_555
C2_8 C1_8 1_555 1_555
C3_8 C2_8 1_555 1_555
H5_8 C3_8 1_555 1_555
C4_8 C3_8 1_555 1_555
C5_8 C4_8 1_555 1_555
H6_8 C5_8 1_555 1_555
C6_8 C5_8 1_555 1_555
C7_8 C2_8 1_555 1_555
H7_8 C7_8 1_555 1_555
C8_8 C4_8 1_555 1_555
C9_8 C6_8 1_555 1_555
C10_8 C9_8 1_555 1_555
H8_8 C10_8 1_555 1_555
C11_8 C10_8 1_555 1_555
H9_8 C11_8 1_555 1_555
C12_8 C11_8 1_555 1_555
C13_8 C12_8 1_555 1_555
H10_8 C13_8 1_555 1_555
C14_8 C9_8 1_555 1_555
C15_8 C12_8 1_555 1_555
C16_6 O11_6 1_555 1_555
C6_8 C7_8 1_555 1_555
C13_8 C14_8 1_555 1_555
C16_6 H17_8 1_555 1_555
H11_3 C17_3 1_555 1_555
H14_3 C18_5 1_555 1_555
H15_5 C18_5 1_555 1_555
H16_5 C18_5 1_555 1_555
Sm2_2 O3_3 1_555 1_555
O10_7 Sm2_2 1_555 1_555
H3_7 O10_7 1_555 1_555
H4_7 O10_7 1_555 1_555
O11_7 Sm2_2 1_555 1_555
N2_7 C16_7 1_555 1_555
C16_7 O11_7 1_555 1_555
C17_4 N2_7 1_555 1_555
H11_4 C17_4 1_555 1_555
H12_7 C17_4 1_555 1_555
H13_7 C17_4 1_555 1_555
Sm4_2 O3_4 1_555 1_555
O10_8 Sm4_2 1_555 1_555
H3_8 O10_8 1_555 1_555
H4_8 O10_8 1_555 1_555
O11_8 Sm4_2 1_555 1_555
N2_8 C16_8 1_555 1_555
C16_8 O11_8 1_555 1_555
C17_5 N2_8 1_555 1_555
H11_5 C17_5 1_555 1_555
H12_8 C17_5 1_555 1_555
H13_8 C17_5 1_555 1_555
H11_6 C17_6 1_555 1_555
H14_6 C18_6 1_555 1_555
H15_6 C18_6 1_555 1_555
H16_6 C18_6 1_555 1_555
H11_7 C17_7 1_555 1_555
H14_7 C18_7 1_555 1_555
H15_7 C18_7 1_555 1_555
H16_7 C18_7 1_555 1_555
H11_8 C17_8 1_555 1_555
H14_8 C18_8 1_555 1_555
H15_8 C18_8 1_555 1_555
H16_8 C18_8 1_555 1_555

#END
