
###############################################################################
#
# This file contains modified crystal structure data generated from the
# MOF subset of the Cambridge Structural Database (CSD) v543 
# hosted by the Cambridge Crystallographic Data Centre (CCDC).
#
# This work is licensed under the Creative Commons
# Attribution-NonCommercial-ShareAlike 4.0 International License.
# To view a copy of this license, visit
# http://creativecommons.org/licenses/by-nc-sa/4.0/
# or send a letter to
# Creative Commons, PO Box 1866, Mountain View, CA 94042, USA.
#
# CIF created using the CSD Python API on 29 September 2022
# The structure has been converted into the P1 space group
# The structure has a 3D framework
# The original CSD entry ZIQRAV is in the orthorhombic crystal system
# The framework has been calculated to contain at least 10.0% void space
# The void calculation uses a probe of radius 1.32A, grid spacing 0.4
# H atom positions have been added when not included in the experimental data
#
###############################################################################

data_ZIQRAV
_chemical_formula_moiety         '(C144 H136 N16 O84 Pr8)n'
_symmetry_cell_setting           triclinic
_symmetry_space_group_name_H-M   'P 1'
_symmetry_Int_Tables_number      1
_space_group_name_Hall           'P 1'
loop_
_symmetry_equiv_pos_site_id
_symmetry_equiv_pos_as_xyz
1 x,y,z
_cell_length_a                   11.978(3)
_cell_length_b                   14.504(3)
_cell_length_c                   28.647(7)
_cell_angle_alpha                90
_cell_angle_beta                 90
_cell_angle_gamma                90
_cell_volume                     4976.81
loop_
_atom_site_label
_atom_site_type_symbol
_atom_site_fract_x
_atom_site_fract_y
_atom_site_fract_z
O1 O 0.0566(4) 0.0983(3) 0.38071(14)
O2 O 0.0521(4) 0.1519(3) 0.45276(13)
O3 O 0.3201(4) 0.3878(4) 0.50087(17)
O4 O 0.4450(5) 0.4457(3) 0.45441(19)
O5 O 0.3445(5) 0.2932(3) 0.11592(16)
O6 O 0.3842(4) 0.4377(3) 0.13288(16)
O7 O 0.3118(9) 0.0788(5) 0.2536(3)
O8 O 0.4191(6) 0.1212(4) 0.3077(2)
N1 N 0.3577(7) 0.1379(4) 0.2754(2)
C1 C 0.0939(5) 0.1508(4) 0.4116(2)
C2 C 0.1868(5) 0.2173(4) 0.4004(2)
C3 C 0.2333(5) 0.2715(4) 0.4348(2)
H3 H 0.2098 0.2652 0.4656
C4 C 0.3154(5) 0.3355(4) 0.4235(2)
C5 C 0.3495(5) 0.3443(4) 0.3775(2)
H4 H 0.4044 0.3870 0.3698
C6 C 0.3025(5) 0.2898(4) 0.3427(2)
C7 C 0.2233(5) 0.2264(4) 0.3549(2)
H5 H 0.1933 0.1884 0.3319
C8 C 0.3644(5) 0.3942(4) 0.4619(2)
C9 C 0.3314(5) 0.3045(4) 0.2924(2)
C10 C 0.3317(5) 0.3943(4) 0.2742(2)
H6 H 0.3228 0.4441 0.2943
C11 C 0.3452(5) 0.4103(4) 0.2264(2)
H7 H 0.3485 0.4704 0.2152
C12 C 0.3535(6) 0.3370(4) 0.1956(2)
C13 C 0.3546(5) 0.2482(4) 0.2123(2)
H8 H 0.3618 0.1986 0.1919
C14 C 0.3448(5) 0.2338(4) 0.2601(2)
C15 C 0.3608(6) 0.3562(4) 0.1437(2)
Pr2 Pr 0.39823(3) 0.46053(2) 0.56884(2)
Pr3 Pr 0.39823(3) 0.53947(2) 0.06884(2)
Pr4 Pr 0.60177(3) 0.53947(2) 0.43116(2)
O13 O 0.0550(5) 0.9457(3) 0.45441(19)
Pr1 Pr 0.89823(3) 0.03947(2) 0.43116(2)
O10 O 0.8424(5) 0.1854(5) 0.3907(3)
H2 H 0.783(6) 0.213(7) 0.382(4)
O11 O 0.6977(6) 0.0412(5) 0.4166(3)
N2 N 0.5154(11) 0.0313(10) 0.4190(6)
C16 C 0.6094(17) 0.0153(17) 0.4136(9)
C17 C 0.4934(15) 0.1296(11) 0.4311(6)
H9 H 0.4146 0.1387 0.4351
H10 H 0.5315 0.1448 0.4596
H11 H 0.5200 0.1685 0.4064
H12 H 0.3460 0.0104 0.4244
O12 O 0.8201(4) 0.1122(4) 0.49913(17)
H15 H 0.884132 0.180405 0.360856
O9 O 0.8243(4) 0.8913(3) 0.46805(16)
H1 H 0.877(5) 0.866(6) 0.483(3)
C18 C 0.4099(14) 0.9722(11) 0.4184(8)
H13 H 0.4021 0.9435 0.3884
H14 H 0.4152 0.9255 0.4421
O14 O 0.8842(4) 0.9377(3) 0.36712(16)
H16 H 0.797181 0.848989 0.44327
H17 H 0.618845 0.945868 0.399681
Pr1_2 Pr 0.60177(3) 0.46053(2) 0.93116(2)
O1_2 O 0.4434(4) 0.4017(3) 0.88071(14)
O2_2 O 0.4479(4) 0.3481(3) 0.95276(13)
O4_2 O 0.0550(5) 0.0543(3) 0.95441(19)
O5_2 O 0.1555(5) 0.2068(3) 0.61592(16)
O6_2 O 0.1158(4) 0.0623(3) 0.63288(16)
O7_2 O 0.1882(9) 0.4212(5) 0.7536(3)
O8_2 O 0.0809(6) 0.3788(4) 0.8077(2)
O9_2 O 0.6757(4) 0.6087(3) 0.96805(16)
H1_2 H 0.623(5) 0.634(6) 0.983(3)
O10_2 O 0.6576(5) 0.3146(5) 0.8907(3)
H2_2 H 0.717(6) 0.287(7) 0.882(4)
O11_2 O 0.8023(6) 0.4588(5) 0.9166(3)
N1_2 N 0.1423(7) 0.3621(4) 0.7754(2)
N2_2 N 0.9846(11) 0.4687(10) 0.9190(6)
C1_2 C 0.4061(5) 0.3492(4) 0.9116(2)
C2_2 C 0.3132(5) 0.2827(4) 0.9004(2)
C3_2 C 0.2667(5) 0.2285(4) 0.9348(2)
H3_2 H 0.2902 0.2348 0.9656
C4_2 C 0.1846(5) 0.1645(4) 0.9235(2)
C5_2 C 0.1505(5) 0.1557(4) 0.8775(2)
H4_2 H 0.0956 0.1130 0.8698
C6_2 C 0.1975(5) 0.2102(4) 0.8427(2)
C7_2 C 0.2767(5) 0.2736(4) 0.8549(2)
H5_2 H 0.3067 0.3116 0.8319
C8_2 C 0.1356(5) 0.1058(4) 0.9619(2)
C9_2 C 0.1686(5) 0.1955(4) 0.7924(2)
C10_2 C 0.1683(5) 0.1057(4) 0.7742(2)
H6_2 H 0.1772 0.0559 0.7943
C11_2 C 0.1548(5) 0.0897(4) 0.7264(2)
H7_2 H 0.1515 0.0296 0.7152
C12_2 C 0.1465(6) 0.1630(4) 0.6956(2)
C13_2 C 0.1454(5) 0.2518(4) 0.7123(2)
H8_2 H 0.1382 0.3014 0.6919
C14_2 C 0.1552(5) 0.2662(4) 0.7601(2)
C15_2 C 0.1392(6) 0.1438(4) 0.6437(2)
C16_2 C 0.8906(17) 0.4847(17) 0.9136(9)
H10_2 H 0.9685 0.3552 0.9596
H11_2 H 0.9800 0.3315 0.9064
O12_2 O 0.6799(4) 0.3878(4) 0.99913(17)
O13_2 O 0.4450(5) 0.5543(3) 0.95441(19)
O14_2 O 0.6158(4) 0.5623(3) 0.86712(16)
H15_2 H 0.615868 0.319595 0.860856
H16_2 H 0.702819 0.651011 0.94327
H17_2 H 0.881155 0.554132 0.899681
Pr3_2 Pr 0.10177(3) 0.96053(2) 0.56884(2)
O9_3 O 0.1757(4) 0.8913(3) 0.03195(16)
H1_3 H 0.123(5) 0.866(6) 0.017(3)
C18_2 C 0.5901(14) 0.9722(11) 0.0816(8)
H13_2 H 0.5979 0.9435 0.1116
H14_2 H 0.5848 0.9255 0.0579
O14_3 O 0.1158(4) 0.9377(3) 0.13288(16)
H16_3 H 0.202819 0.848989 0.0567303
H17_3 H 0.381155 0.945868 0.100319
O1_3 O 0.9434(4) 0.0983(3) 0.11929(14)
O2_3 O 0.9479(4) 0.1519(3) 0.04724(13)
O4_3 O 0.5550(5) 0.4457(3) 0.04559(19)
O5_3 O 0.6555(5) 0.2932(3) 0.38408(16)
O6_3 O 0.6158(4) 0.4377(3) 0.36712(16)
O7_3 O 0.6882(9) 0.0788(5) 0.2464(3)
O8_3 O 0.5809(6) 0.1212(4) 0.1923(2)
N1_3 N 0.6423(7) 0.1379(4) 0.2246(2)
C1_3 C 0.9061(5) 0.1508(4) 0.0884(2)
C2_3 C 0.8132(5) 0.2173(4) 0.0996(2)
C3_3 C 0.7667(5) 0.2715(4) 0.0652(2)
H3_3 H 0.7902 0.2652 0.0344
C4_3 C 0.6846(5) 0.3355(4) 0.0765(2)
C5_3 C 0.6505(5) 0.3443(4) 0.1225(2)
H4_3 H 0.5956 0.3870 0.1302
C6_3 C 0.6975(5) 0.2898(4) 0.1573(2)
C7_3 C 0.7767(5) 0.2264(4) 0.1451(2)
H5_3 H 0.8067 0.1884 0.1681
C8_3 C 0.6356(5) 0.3942(4) 0.0381(2)
C9_3 C 0.6686(5) 0.3045(4) 0.2076(2)
C10_3 C 0.6683(5) 0.3943(4) 0.2258(2)
H6_3 H 0.6772 0.4441 0.2057
C11_3 C 0.6548(5) 0.4103(4) 0.2736(2)
H7_3 H 0.6515 0.4704 0.2848
C12_3 C 0.6465(6) 0.3370(4) 0.3044(2)
C13_3 C 0.6454(5) 0.2482(4) 0.2877(2)
H8_3 H 0.6382 0.1986 0.3081
C14_3 C 0.6552(5) 0.2338(4) 0.2399(2)
C15_3 C 0.6392(6) 0.3562(4) 0.3563(2)
O13_3 O 0.9450(5) 0.9457(3) 0.04559(19)
O1_4 O 0.5566(4) 0.4017(3) 0.61929(14)
O2_4 O 0.5521(4) 0.3481(3) 0.54724(13)
O4_4 O 0.9450(5) 0.0543(3) 0.54559(19)
O5_4 O 0.8445(5) 0.2068(3) 0.88408(16)
O6_4 O 0.8842(4) 0.0623(3) 0.86712(16)
O7_4 O 0.8118(9) 0.4212(5) 0.7464(3)
O8_4 O 0.9191(6) 0.3788(4) 0.6923(2)
O9_4 O 0.3243(4) 0.6087(3) 0.53195(16)
H1_4 H 0.377(5) 0.634(6) 0.517(3)
O10_3 O 0.3424(5) 0.3146(5) 0.6093(3)
H2_3 H 0.283(6) 0.287(7) 0.618(4)
O11_3 O 0.1977(6) 0.4588(5) 0.5834(3)
N1_4 N 0.8577(7) 0.3621(4) 0.7246(2)
N2_3 N 0.0154(11) 0.4687(10) 0.5810(6)
C1_4 C 0.5939(5) 0.3492(4) 0.5884(2)
C2_4 C 0.6868(5) 0.2827(4) 0.5996(2)
C3_4 C 0.7333(5) 0.2285(4) 0.5652(2)
H3_4 H 0.7098 0.2348 0.5344
C4_4 C 0.8154(5) 0.1645(4) 0.5765(2)
C5_4 C 0.8495(5) 0.1557(4) 0.6225(2)
H4_4 H 0.9044 0.1130 0.6302
C6_4 C 0.8025(5) 0.2102(4) 0.6573(2)
C7_4 C 0.7233(5) 0.2736(4) 0.6451(2)
H5_4 H 0.6933 0.3116 0.6681
C8_4 C 0.8644(5) 0.1058(4) 0.5381(2)
C9_4 C 0.8314(5) 0.1955(4) 0.7076(2)
C10_4 C 0.8317(5) 0.1057(4) 0.7258(2)
H6_4 H 0.8228 0.0559 0.7057
C11_4 C 0.8452(5) 0.0897(4) 0.7736(2)
H7_4 H 0.8485 0.0296 0.7848
C12_4 C 0.8535(6) 0.1630(4) 0.8044(2)
C13_4 C 0.8546(5) 0.2518(4) 0.7877(2)
H8_4 H 0.8618 0.3014 0.8081
C14_4 C 0.8448(5) 0.2662(4) 0.7399(2)
C15_4 C 0.8608(6) 0.1438(4) 0.8563(2)
C16_3 C 0.1094(17) 0.4847(17) 0.5864(9)
H10_3 H 0.0315 0.3552 0.5404
H11_3 H 0.0200 0.3315 0.5936
O13_4 O 0.5550(5) 0.5543(3) 0.54559(19)
O14_4 O 0.3842(4) 0.5623(3) 0.63288(16)
H15_3 H 0.384132 0.319595 0.639144
H16_4 H 0.297181 0.651011 0.55673
H17_4 H 0.118845 0.554132 0.600319
O9_5 O 0.1757(4) 0.1087(3) 0.53195(16)
H1_5 H 0.123(5) 0.134(6) 0.517(3)
C18_3 C 0.5901(14) 0.0278(11) 0.5816(8)
H13_3 H 0.5979 0.0565 0.6116
H14_3 H 0.5848 0.0745 0.5579
H16_5 H 0.202819 0.151011 0.55673
H17_5 H 0.381155 0.0541315 0.600319
O10_4 O 0.1576(5) 0.8146(5) 0.6093(3)
H2_4 H 0.217(6) 0.787(7) 0.618(4)
O11_4 O 0.3023(6) 0.9588(5) 0.5834(3)
N2_4 N 0.4846(11) 0.9687(10) 0.5810(6)
C16_4 C 0.3906(17) 0.9847(17) 0.5864(9)
C17_2 C 0.5066(15) 0.8704(11) 0.5689(6)
H9_2 H 0.5854 0.8613 0.5649
H10_4 H 0.4685 0.8552 0.5404
H11_4 H 0.4800 0.8315 0.5936
H12_2 H 0.6540 0.9896 0.5756
O12_3 O 0.1799(4) 0.8878(4) 0.50087(17)
H15_4 H 0.115868 0.819595 0.639144
O1_5 O 0.9434(4) 0.9017(3) 0.61929(14)
O2_5 O 0.9479(4) 0.8481(3) 0.54724(13)
O3_2 O 0.6799(4) 0.6122(4) 0.49913(17)
O5_5 O 0.6555(5) 0.7068(3) 0.88408(16)
O7_5 O 0.6882(9) 0.9212(5) 0.7464(3)
O8_5 O 0.5809(6) 0.8788(4) 0.6923(2)
N1_5 N 0.6423(7) 0.8621(4) 0.7246(2)
C1_5 C 0.9061(5) 0.8492(4) 0.5884(2)
C2_5 C 0.8132(5) 0.7827(4) 0.5996(2)
C3_5 C 0.7667(5) 0.7285(4) 0.5652(2)
H3_5 H 0.7902 0.7348 0.5344
C4_5 C 0.6846(5) 0.6645(4) 0.5765(2)
C5_5 C 0.6505(5) 0.6557(4) 0.6225(2)
H4_5 H 0.5956 0.6130 0.6302
C6_5 C 0.6975(5) 0.7102(4) 0.6573(2)
C7_5 C 0.7767(5) 0.7736(4) 0.6451(2)
H5_5 H 0.8067 0.8116 0.6681
C8_5 C 0.6356(5) 0.6058(4) 0.5381(2)
C9_5 C 0.6686(5) 0.6955(4) 0.7076(2)
C10_5 C 0.6683(5) 0.6057(4) 0.7258(2)
H6_5 H 0.6772 0.5559 0.7057
C11_5 C 0.6548(5) 0.5897(4) 0.7736(2)
H7_5 H 0.6515 0.5296 0.7848
C12_5 C 0.6465(6) 0.6630(4) 0.8044(2)
C13_5 C 0.6454(5) 0.7518(4) 0.7877(2)
H8_5 H 0.6382 0.8014 0.8081
C14_5 C 0.6552(5) 0.7662(4) 0.7399(2)
C15_5 C 0.6392(6) 0.6438(4) 0.8563(2)
O1_6 O 0.5566(4) 0.5983(3) 0.11929(14)
O2_6 O 0.5521(4) 0.6519(3) 0.04724(13)
O5_6 O 0.8445(5) 0.7932(3) 0.38408(16)
O7_6 O 0.8118(9) 0.5788(5) 0.2464(3)
O8_6 O 0.9191(6) 0.6212(4) 0.1923(2)
O9_6 O 0.3243(4) 0.3913(3) 0.03195(16)
H1_6 H 0.377(5) 0.366(6) 0.017(3)
O10_5 O 0.3424(5) 0.6854(5) 0.1093(3)
H2_5 H 0.283(6) 0.713(7) 0.118(4)
O11_5 O 0.1977(6) 0.5412(5) 0.0834(3)
N1_6 N 0.8577(7) 0.6379(4) 0.2246(2)
N2_5 N 0.0154(11) 0.5313(10) 0.0810(6)
C1_6 C 0.5939(5) 0.6508(4) 0.0884(2)
C2_6 C 0.6868(5) 0.7173(4) 0.0996(2)
C3_6 C 0.7333(5) 0.7715(4) 0.0652(2)
H3_6 H 0.7098 0.7652 0.0344
C4_6 C 0.8154(5) 0.8355(4) 0.0765(2)
C5_6 C 0.8495(5) 0.8443(4) 0.1225(2)
H4_6 H 0.9044 0.8870 0.1302
C6_6 C 0.8025(5) 0.7898(4) 0.1573(2)
C7_6 C 0.7233(5) 0.7264(4) 0.1451(2)
H5_6 H 0.6933 0.6884 0.1681
C8_6 C 0.8644(5) 0.8942(4) 0.0381(2)
C9_6 C 0.8314(5) 0.8045(4) 0.2076(2)
C10_6 C 0.8317(5) 0.8943(4) 0.2258(2)
H6_6 H 0.8228 0.9441 0.2057
C11_6 C 0.8452(5) 0.9103(4) 0.2736(2)
H7_6 H 0.8485 0.9704 0.2848
C12_6 C 0.8535(6) 0.8370(4) 0.3044(2)
C13_6 C 0.8546(5) 0.7482(4) 0.2877(2)
H8_6 H 0.8618 0.6986 0.3081
C14_6 C 0.8448(5) 0.7338(4) 0.2399(2)
C15_6 C 0.8608(6) 0.8562(4) 0.3563(2)
C16_5 C 0.1094(17) 0.5153(17) 0.0864(9)
H10_5 H 0.0315 0.6448 0.0404
H11_5 H 0.0200 0.6685 0.0936
O12_4 O 0.3201(4) 0.6122(4) 0.00087(17)
H15_5 H 0.384132 0.680405 0.139144
H16_6 H 0.297181 0.348989 0.0567303
H17_6 H 0.118845 0.445868 0.100319
O1_7 O 0.0566(4) 0.9017(3) 0.88071(14)
O2_7 O 0.0521(4) 0.8481(3) 0.95276(13)
O5_7 O 0.3445(5) 0.7068(3) 0.61592(16)
O7_7 O 0.3118(9) 0.9212(5) 0.7536(3)
O8_7 O 0.4191(6) 0.8788(4) 0.8077(2)
N1_7 N 0.3577(7) 0.8621(4) 0.7754(2)
C1_7 C 0.0939(5) 0.8492(4) 0.9116(2)
C2_7 C 0.1868(5) 0.7827(4) 0.9004(2)
C3_7 C 0.2333(5) 0.7285(4) 0.9348(2)
H3_7 H 0.2098 0.7348 0.9656
C4_7 C 0.3154(5) 0.6645(4) 0.9235(2)
C5_7 C 0.3495(5) 0.6557(4) 0.8775(2)
H4_7 H 0.4044 0.6130 0.8698
C6_7 C 0.3025(5) 0.7102(4) 0.8427(2)
C7_7 C 0.2233(5) 0.7736(4) 0.8549(2)
H5_7 H 0.1933 0.8116 0.8319
C8_7 C 0.3644(5) 0.6058(4) 0.9619(2)
C9_7 C 0.3314(5) 0.6955(4) 0.7924(2)
C10_7 C 0.3317(5) 0.6057(4) 0.7742(2)
H6_7 H 0.3228 0.5559 0.7943
C11_7 C 0.3452(5) 0.5897(4) 0.7264(2)
H7_7 H 0.3485 0.5296 0.7152
C12_7 C 0.3535(6) 0.6630(4) 0.6956(2)
C13_7 C 0.3546(5) 0.7518(4) 0.7123(2)
H8_7 H 0.3618 0.8014 0.6919
C14_7 C 0.3448(5) 0.7662(4) 0.7601(2)
C15_7 C 0.3608(6) 0.6438(4) 0.6437(2)
O9_7 O 0.8243(4) 0.1087(3) 0.96805(16)
H1_7 H 0.877(5) 0.134(6) 0.983(3)
C18_4 C 0.4099(14) 0.0278(11) 0.9184(8)
H13_4 H 0.4021 0.0565 0.8884
H14_4 H 0.4152 0.0745 0.9421
H16_7 H 0.797181 0.151011 0.94327
H17_7 H 0.618845 0.0541315 0.899681
O1_8 O 0.4434(4) 0.5983(3) 0.38071(14)
O2_8 O 0.4479(4) 0.6519(3) 0.45276(13)
O5_8 O 0.1555(5) 0.7932(3) 0.11592(16)
O7_8 O 0.1882(9) 0.5788(5) 0.2536(3)
O8_8 O 0.0809(6) 0.6212(4) 0.3077(2)
O9_8 O 0.6757(4) 0.3913(3) 0.46805(16)
H1_8 H 0.623(5) 0.366(6) 0.483(3)
O10_6 O 0.6576(5) 0.6854(5) 0.3907(3)
H2_6 H 0.717(6) 0.713(7) 0.382(4)
O11_6 O 0.8023(6) 0.5412(5) 0.4166(3)
N1_8 N 0.1423(7) 0.6379(4) 0.2754(2)
N2_6 N 0.9846(11) 0.5313(10) 0.4190(6)
C1_8 C 0.4061(5) 0.6508(4) 0.4116(2)
C2_8 C 0.3132(5) 0.7173(4) 0.4004(2)
C3_8 C 0.2667(5) 0.7715(4) 0.4348(2)
H3_8 H 0.2902 0.7652 0.4656
C4_8 C 0.1846(5) 0.8355(4) 0.4235(2)
C5_8 C 0.1505(5) 0.8443(4) 0.3775(2)
H4_8 H 0.0956 0.8870 0.3698
C6_8 C 0.1975(5) 0.7898(4) 0.3427(2)
C7_8 C 0.2767(5) 0.7264(4) 0.3549(2)
H5_8 H 0.3067 0.6884 0.3319
C8_8 C 0.1356(5) 0.8942(4) 0.4619(2)
C9_8 C 0.1686(5) 0.8045(4) 0.2924(2)
C10_8 C 0.1683(5) 0.8943(4) 0.2742(2)
H6_8 H 0.1772 0.9441 0.2943
C11_8 C 0.1548(5) 0.9103(4) 0.2264(2)
H7_8 H 0.1515 0.9704 0.2152
C12_8 C 0.1465(6) 0.8370(4) 0.1956(2)
C13_8 C 0.1454(5) 0.7482(4) 0.2123(2)
H8_8 H 0.1382 0.6986 0.1919
C14_8 C 0.1552(5) 0.7338(4) 0.2601(2)
C15_8 C 0.1392(6) 0.8562(4) 0.1437(2)
C16_6 C 0.8906(17) 0.5153(17) 0.4136(9)
H10_6 H 0.9685 0.6448 0.4596
H11_6 H 0.9800 0.6685 0.4064
H15_6 H 0.615868 0.680405 0.360856
H16_8 H 0.702819 0.348989 0.44327
H17_8 H 0.881155 0.445868 0.399681
C17_3 C 0.0066(15) 0.3704(11) 0.9311(6)
H9_3 H 0.0854 0.3613 0.9351
C18_5 C 0.0901(14) 0.5278(11) 0.9184(8)
H12_3 H 0.1540 0.4896 0.9244
H13_5 H 0.0979 0.5565 0.8884
H14_5 H 0.0848 0.5745 0.9421
O3_3 O 0.1799(4) 0.1122(4) 0.00087(17)
Pr2_2 Pr 0.10177(3) 0.03947(2) 0.06884(2)
O10_7 O 0.1576(5) 0.1854(5) 0.1093(3)
H2_7 H 0.217(6) 0.213(7) 0.118(4)
O11_7 O 0.3023(6) 0.0412(5) 0.0834(3)
N2_7 N 0.4846(11) 0.0313(10) 0.0810(6)
C16_7 C 0.3906(17) 0.0153(17) 0.0864(9)
C17_4 C 0.5066(15) 0.1296(11) 0.0689(6)
H9_4 H 0.5854 0.1387 0.0649
H10_7 H 0.4685 0.1448 0.0404
H11_7 H 0.4800 0.1685 0.0936
H12_4 H 0.6540 0.0104 0.0756
H15_7 H 0.115868 0.180405 0.139144
Pr4_2 Pr 0.89823(3) 0.96053(2) 0.93116(2)
O3_4 O 0.8201(4) 0.8878(4) 0.99913(17)
O10_8 O 0.8424(5) 0.8146(5) 0.8907(3)
H2_8 H 0.783(6) 0.787(7) 0.882(4)
O11_8 O 0.6977(6) 0.9588(5) 0.9166(3)
N2_8 N 0.5154(11) 0.9687(10) 0.9190(6)
C16_8 C 0.6094(17) 0.9847(17) 0.9136(9)
C17_5 C 0.4934(15) 0.8704(11) 0.9311(6)
H9_5 H 0.4146 0.8613 0.9351
H10_8 H 0.5315 0.8552 0.9596
H11_8 H 0.5200 0.8315 0.9064
H12_5 H 0.3460 0.9896 0.9244
H15_8 H 0.884132 0.819595 0.860856
C17_6 C 0.9934(15) 0.3704(11) 0.5689(6)
H9_6 H 0.9146 0.3613 0.5649
C18_6 C 0.9099(14) 0.5278(11) 0.5816(8)
H12_6 H 0.8460 0.4896 0.5756
H13_6 H 0.9021 0.5565 0.6116
H14_6 H 0.9152 0.5745 0.5579
C17_7 C 0.9934(15) 0.6296(11) 0.0689(6)
H9_7 H 0.9146 0.6387 0.0649
C18_7 C 0.9099(14) 0.4722(11) 0.0816(8)
H12_7 H 0.8460 0.5104 0.0756
H13_7 H 0.9021 0.4435 0.1116
H14_7 H 0.9152 0.4255 0.0579
C17_8 C 0.0066(15) 0.6296(11) 0.4311(6)
H9_8 H 0.0854 0.6387 0.4351
C18_8 C 0.0901(14) 0.4722(11) 0.4184(8)
H12_8 H 0.1540 0.5104 0.4244
H13_8 H 0.0979 0.4435 0.3884
H14_8 H 0.0848 0.4255 0.4421
loop_
_geom_bond_atom_site_label_1
_geom_bond_atom_site_label_2
_geom_bond_site_symmetry_1
_geom_bond_site_symmetry_2
O1 C1 1_555 1_555
O3 C8 1_555 1_555
O4 C8 1_555 1_555
O5 C15 1_555 1_555
O6 C15 1_555 1_555
O7 N1 1_555 1_555
O8 N1 1_555 1_555
N1 C14 1_555 1_555
C1 O2 1_555 1_555
C2 C1 1_555 1_555
C3 C2 1_555 1_555
H3 C3 1_555 1_555
C4 C3 1_555 1_555
C5 C4 1_555 1_555
H4 C5 1_555 1_555
C6 C5 1_555 1_555
C7 C2 1_555 1_555
H5 C7 1_555 1_555
C8 C4 1_555 1_555
C9 C6 1_555 1_555
C10 C9 1_555 1_555
H6 C10 1_555 1_555
C11 C10 1_555 1_555
H7 C11 1_555 1_555
C12 C11 1_555 1_555
C13 C12 1_555 1_555
H8 C13 1_555 1_555
C14 C9 1_555 1_555
C15 C12 1_555 1_555
Pr2 O3 1_555 1_555
Pr3 O6 1_555 1_555
Pr4 O4 1_555 1_555
C6 C7 1_555 1_555
C13 C14 1_555 1_555
O10 Pr1 1_555 1_555
H2 O10 1_555 1_555
O11 Pr1 1_555 1_555
N2 C16 1_555 1_555
C16 O11 1_555 1_555
C17 N2 1_555 1_555
H9 C17 1_555 1_555
H10 C17 1_555 1_555
H11 C17 1_555 1_555
O12 Pr1 1_555 1_555
O10 H15 1_555 1_555
H1 O9 1_555 1_555
H13 C18 1_555 1_555
H14 C18 1_555 1_555
O9 H16 1_555 1_555
Pr1_2 O1_2 1_555 1_555
O1_2 C1_2 1_555 1_555
O2_2 Pr1_2 1_555 1_555
O4_2 C8_2 1_555 1_555
O5_2 C15_2 1_555 1_555
O6_2 C15_2 1_555 1_555
O7_2 N1_2 1_555 1_555
O8_2 N1_2 1_555 1_555
O9_2 Pr1_2 1_555 1_555
H1_2 O9_2 1_555 1_555
O10_2 Pr1_2 1_555 1_555
H2_2 O10_2 1_555 1_555
O11_2 Pr1_2 1_555 1_555
N1_2 C14_2 1_555 1_555
N2_2 C16_2 1_555 1_555
C1_2 O2_2 1_555 1_555
C2_2 C1_2 1_555 1_555
C3_2 C2_2 1_555 1_555
H3_2 C3_2 1_555 1_555
C4_2 C3_2 1_555 1_555
C5_2 C4_2 1_555 1_555
H4_2 C5_2 1_555 1_555
C6_2 C5_2 1_555 1_555
C7_2 C2_2 1_555 1_555
H5_2 C7_2 1_555 1_555
C8_2 C4_2 1_555 1_555
C9_2 C6_2 1_555 1_555
C10_2 C9_2 1_555 1_555
H6_2 C10_2 1_555 1_555
C11_2 C10_2 1_555 1_555
H7_2 C11_2 1_555 1_555
C12_2 C11_2 1_555 1_555
C13_2 C12_2 1_555 1_555
H8_2 C13_2 1_555 1_555
C14_2 C9_2 1_555 1_555
C15_2 C12_2 1_555 1_555
C16_2 O11_2 1_555 1_555
O12_2 Pr1_2 1_555 1_555
O13_2 Pr1_2 1_555 1_555
O14_2 Pr1_2 1_555 1_555
C6_2 C7_2 1_555 1_555
C13_2 C14_2 1_555 1_555
O10_2 H15_2 1_555 1_555
O9_2 H16_2 1_555 1_555
C16_2 H17_2 1_555 1_555
H1_3 O9_3 1_555 1_555
H13_2 C18_2 1_555 1_555
H14_2 C18_2 1_555 1_555
O9_3 H16_3 1_555 1_555
O1_3 C1_3 1_555 1_555
O4_3 C8_3 1_555 1_555
O5_3 C15_3 1_555 1_555
O6_3 C15_3 1_555 1_555
O7_3 N1_3 1_555 1_555
O8_3 N1_3 1_555 1_555
N1_3 C14_3 1_555 1_555
C1_3 O2_3 1_555 1_555
C2_3 C1_3 1_555 1_555
C3_3 C2_3 1_555 1_555
H3_3 C3_3 1_555 1_555
C4_3 C3_3 1_555 1_555
C5_3 C4_3 1_555 1_555
H4_3 C5_3 1_555 1_555
C6_3 C5_3 1_555 1_555
C7_3 C2_3 1_555 1_555
H5_3 C7_3 1_555 1_555
C8_3 C4_3 1_555 1_555
C9_3 C6_3 1_555 1_555
C10_3 C9_3 1_555 1_555
H6_3 C10_3 1_555 1_555
C11_3 C10_3 1_555 1_555
H7_3 C11_3 1_555 1_555
C12_3 C11_3 1_555 1_555
C13_3 C12_3 1_555 1_555
H8_3 C13_3 1_555 1_555
C14_3 C9_3 1_555 1_555
C15_3 C12_3 1_555 1_555
Pr4 O6_3 1_555 1_555
Pr3 O4_3 1_555 1_555
C6_3 C7_3 1_555 1_555
C13_3 C14_3 1_555 1_555
Pr2 O1_4 1_555 1_555
O1_4 C1_4 1_555 1_555
O2_4 Pr2 1_555 1_555
O12 C8_4 1_555 1_555
O4_4 C8_4 1_555 1_555
O5_4 C15_4 1_555 1_555
O6_4 C15_4 1_555 1_555
O7_4 N1_4 1_555 1_555
O8_4 N1_4 1_555 1_555
O9_4 Pr2 1_555 1_555
H1_4 O9_4 1_555 1_555
O10_3 Pr2 1_555 1_555
H2_3 O10_3 1_555 1_555
O11_3 Pr2 1_555 1_555
N1_4 C14_4 1_555 1_555
N2_3 C16_3 1_555 1_555
C1_4 O2_4 1_555 1_555
C2_4 C1_4 1_555 1_555
C3_4 C2_4 1_555 1_555
H3_4 C3_4 1_555 1_555
C4_4 C3_4 1_555 1_555
C5_4 C4_4 1_555 1_555
H4_4 C5_4 1_555 1_555
C6_4 C5_4 1_555 1_555
C7_4 C2_4 1_555 1_555
H5_4 C7_4 1_555 1_555
C8_4 C4_4 1_555 1_555
C9_4 C6_4 1_555 1_555
C10_4 C9_4 1_555 1_555
H6_4 C10_4 1_555 1_555
C11_4 C10_4 1_555 1_555
H7_4 C11_4 1_555 1_555
C12_4 C11_4 1_555 1_555
C13_4 C12_4 1_555 1_555
H8_4 C13_4 1_555 1_555
C14_4 C9_4 1_555 1_555
C15_4 C12_4 1_555 1_555
C16_3 O11_3 1_555 1_555
O13_4 Pr2 1_555 1_555
O14_4 Pr2 1_555 1_555
C6_4 C7_4 1_555 1_555
C13_4 C14_4 1_555 1_555
O10_3 H15_3 1_555 1_555
O9_4 H16_4 1_555 1_555
C16_3 H17_4 1_555 1_555
H1_5 O9_5 1_555 1_555
H13_3 C18_3 1_555 1_555
H14_3 C18_3 1_555 1_555
O9_5 H16_5 1_555 1_555
O10_4 Pr3_2 1_555 1_555
H2_4 O10_4 1_555 1_555
O11_4 Pr3_2 1_555 1_555
N2_4 C16_4 1_555 1_555
C16_4 O11_4 1_555 1_555
C17_2 N2_4 1_555 1_555
H9_2 C17_2 1_555 1_555
H10_4 C17_2 1_555 1_555
H11_4 C17_2 1_555 1_555
O12_3 Pr3_2 1_555 1_555
O10_4 H15_4 1_555 1_555
O1_5 C1_5 1_555 1_555
O3_2 C8_5 1_555 1_555
O13_4 C8_5 1_555 1_555
O5_5 C15_5 1_555 1_555
O14_2 C15_5 1_555 1_555
O7_5 N1_5 1_555 1_555
O8_5 N1_5 1_555 1_555
N1_5 C14_5 1_555 1_555
C1_5 O2_5 1_555 1_555
C2_5 C1_5 1_555 1_555
C3_5 C2_5 1_555 1_555
H3_5 C3_5 1_555 1_555
C4_5 C3_5 1_555 1_555
C5_5 C4_5 1_555 1_555
H4_5 C5_5 1_555 1_555
C6_5 C5_5 1_555 1_555
C7_5 C2_5 1_555 1_555
H5_5 C7_5 1_555 1_555
C8_5 C4_5 1_555 1_555
C9_5 C6_5 1_555 1_555
C10_5 C9_5 1_555 1_555
H6_5 C10_5 1_555 1_555
C11_5 C10_5 1_555 1_555
H7_5 C11_5 1_555 1_555
C12_5 C11_5 1_555 1_555
C13_5 C12_5 1_555 1_555
H8_5 C13_5 1_555 1_555
C14_5 C9_5 1_555 1_555
C15_5 C12_5 1_555 1_555
Pr4 O3_2 1_555 1_555
C6_5 C7_5 1_555 1_555
C13_5 C14_5 1_555 1_555
Pr3 O1_6 1_555 1_555
O1_6 C1_6 1_555 1_555
O2_6 Pr3 1_555 1_555
O13_3 C8_6 1_555 1_555
O5_6 C15_6 1_555 1_555
O14 C15_6 1_555 1_555
O7_6 N1_6 1_555 1_555
O8_6 N1_6 1_555 1_555
O9_6 Pr3 1_555 1_555
H1_6 O9_6 1_555 1_555
O10_5 Pr3 1_555 1_555
H2_5 O10_5 1_555 1_555
O11_5 Pr3 1_555 1_555
N1_6 C14_6 1_555 1_555
N2_5 C16_5 1_555 1_555
C1_6 O2_6 1_555 1_555
C2_6 C1_6 1_555 1_555
C3_6 C2_6 1_555 1_555
H3_6 C3_6 1_555 1_555
C4_6 C3_6 1_555 1_555
C5_6 C4_6 1_555 1_555
H4_6 C5_6 1_555 1_555
C6_6 C5_6 1_555 1_555
C7_6 C2_6 1_555 1_555
H5_6 C7_6 1_555 1_555
C8_6 C4_6 1_555 1_555
C9_6 C6_6 1_555 1_555
C10_6 C9_6 1_555 1_555
H6_6 C10_6 1_555 1_555
C11_6 C10_6 1_555 1_555
H7_6 C11_6 1_555 1_555
C12_6 C11_6 1_555 1_555
C13_6 C12_6 1_555 1_555
H8_6 C13_6 1_555 1_555
C14_6 C9_6 1_555 1_555
C15_6 C12_6 1_555 1_555
C16_5 O11_5 1_555 1_555
O12_4 Pr3 1_555 1_555
C6_6 C7_6 1_555 1_555
C13_6 C14_6 1_555 1_555
O10_5 H15_5 1_555 1_555
O9_6 H16_6 1_555 1_555
C16_5 H17_6 1_555 1_555
O1_7 C1_7 1_555 1_555
O13_2 C8_7 1_555 1_555
O5_7 C15_7 1_555 1_555
O14_4 C15_7 1_555 1_555
O7_7 N1_7 1_555 1_555
O8_7 N1_7 1_555 1_555
N1_7 C14_7 1_555 1_555
C1_7 O2_7 1_555 1_555
C2_7 C1_7 1_555 1_555
C3_7 C2_7 1_555 1_555
H3_7 C3_7 1_555 1_555
C4_7 C3_7 1_555 1_555
C5_7 C4_7 1_555 1_555
H4_7 C5_7 1_555 1_555
C6_7 C5_7 1_555 1_555
C7_7 C2_7 1_555 1_555
H5_7 C7_7 1_555 1_555
C8_7 C4_7 1_555 1_555
C9_7 C6_7 1_555 1_555
C10_7 C9_7 1_555 1_555
H6_7 C10_7 1_555 1_555
C11_7 C10_7 1_555 1_555
H7_7 C11_7 1_555 1_555
C12_7 C11_7 1_555 1_555
C13_7 C12_7 1_555 1_555
H8_7 C13_7 1_555 1_555
C14_7 C9_7 1_555 1_555
C15_7 C12_7 1_555 1_555
C6_7 C7_7 1_555 1_555
C13_7 C14_7 1_555 1_555
H1_7 O9_7 1_555 1_555
H13_4 C18_4 1_555 1_555
H14_4 C18_4 1_555 1_555
O9_7 H16_7 1_555 1_555
Pr4 O1_8 1_555 1_555
O1_8 C1_8 1_555 1_555
O2_8 Pr4 1_555 1_555
O12_3 C8_8 1_555 1_555
O13 C8_8 1_555 1_555
O5_8 C15_8 1_555 1_555
O14_3 C15_8 1_555 1_555
O7_8 N1_8 1_555 1_555
O8_8 N1_8 1_555 1_555
O9_8 Pr4 1_555 1_555
H1_8 O9_8 1_555 1_555
O10_6 Pr4 1_555 1_555
H2_6 O10_6 1_555 1_555
O11_6 Pr4 1_555 1_555
N1_8 C14_8 1_555 1_555
N2_6 C16_6 1_555 1_555
C1_8 O2_8 1_555 1_555
C2_8 C1_8 1_555 1_555
C3_8 C2_8 1_555 1_555
H3_8 C3_8 1_555 1_555
C4_8 C3_8 1_555 1_555
C5_8 C4_8 1_555 1_555
H4_8 C5_8 1_555 1_555
C6_8 C5_8 1_555 1_555
C7_8 C2_8 1_555 1_555
H5_8 C7_8 1_555 1_555
C8_8 C4_8 1_555 1_555
C9_8 C6_8 1_555 1_555
C10_8 C9_8 1_555 1_555
H6_8 C10_8 1_555 1_555
C11_8 C10_8 1_555 1_555
H7_8 C11_8 1_555 1_555
C12_8 C11_8 1_555 1_555
C13_8 C12_8 1_555 1_555
H8_8 C13_8 1_555 1_555
C14_8 C9_8 1_555 1_555
C15_8 C12_8 1_555 1_555
C16_6 O11_6 1_555 1_555
C6_8 C7_8 1_555 1_555
C13_8 C14_8 1_555 1_555
O10_6 H15_6 1_555 1_555
O9_8 H16_8 1_555 1_555
C16_6 H17_8 1_555 1_555
H9_3 C17_3 1_555 1_555
H12_3 C18_5 1_555 1_555
H13_5 C18_5 1_555 1_555
H14_5 C18_5 1_555 1_555
Pr2_2 O3_3 1_555 1_555
O10_7 Pr2_2 1_555 1_555
H2_7 O10_7 1_555 1_555
O11_7 Pr2_2 1_555 1_555
N2_7 C16_7 1_555 1_555
C16_7 O11_7 1_555 1_555
C17_4 N2_7 1_555 1_555
H9_4 C17_4 1_555 1_555
H10_7 C17_4 1_555 1_555
H11_7 C17_4 1_555 1_555
O10_7 H15_7 1_555 1_555
Pr4_2 O3_4 1_555 1_555
O10_8 Pr4_2 1_555 1_555
H2_8 O10_8 1_555 1_555
O11_8 Pr4_2 1_555 1_555
N2_8 C16_8 1_555 1_555
C16_8 O11_8 1_555 1_555
C17_5 N2_8 1_555 1_555
H9_5 C17_5 1_555 1_555
H10_8 C17_5 1_555 1_555
H11_8 C17_5 1_555 1_555
O10_8 H15_8 1_555 1_555
H9_6 C17_6 1_555 1_555
H12_6 C18_6 1_555 1_555
H13_6 C18_6 1_555 1_555
H14_6 C18_6 1_555 1_555
H9_7 C17_7 1_555 1_555
H12_7 C18_7 1_555 1_555
H13_7 C18_7 1_555 1_555
H14_7 C18_7 1_555 1_555
H9_8 C17_8 1_555 1_555
H12_8 C18_8 1_555 1_555
H13_8 C18_8 1_555 1_555
H14_8 C18_8 1_555 1_555

#END
