
###############################################################################
#
# This file contains modified crystal structure data generated from the
# MOF subset of the Cambridge Structural Database (CSD) v543 
# hosted by the Cambridge Crystallographic Data Centre (CCDC).
#
# This work is licensed under the Creative Commons
# Attribution-NonCommercial-ShareAlike 4.0 International License.
# To view a copy of this license, visit
# http://creativecommons.org/licenses/by-nc-sa/4.0/
# or send a letter to
# Creative Commons, PO Box 1866, Mountain View, CA 94042, USA.
#
# CIF created using the CSD Python API on 29 September 2022
# The structure has been converted into the P1 space group
# The structure has a 3D framework
# The original CSD entry ZIQROJ is in the orthorhombic crystal system
# The framework has been calculated to contain at least 10.0% void space
# The void calculation uses a probe of radius 1.32A, grid spacing 0.4
# H atom positions have been added when not included in the experimental data
#
###############################################################################

data_ZIQROJ
_chemical_formula_moiety         '(C144 H136 Gd8 N16 O84)n'
_symmetry_cell_setting           triclinic
_symmetry_space_group_name_H-M   'P 1'
_symmetry_Int_Tables_number      1
_space_group_name_Hall           'P 1'
loop_
_symmetry_equiv_pos_site_id
_symmetry_equiv_pos_as_xyz
1 x,y,z
_cell_length_a                   11.913(3)
_cell_length_b                   14.227(3)
_cell_length_c                   28.570(7)
_cell_angle_alpha                90
_cell_angle_beta                 90
_cell_angle_gamma                90
_cell_volume                     4842.22
loop_
_atom_site_label
_atom_site_type_symbol
_atom_site_fract_x
_atom_site_fract_y
_atom_site_fract_z
O1 O 0.0538(3) 0.1009(3) 0.37998(11)
O2 O 0.0534(3) 0.1523(2) 0.45289(11)
O3 O 0.3324(4) 0.3891(3) 0.50059(12)
O4 O 0.4528(4) 0.4478(3) 0.45034(14)
O5 O 0.3445(4) 0.2998(3) 0.11426(13)
O6 O 0.3782(4) 0.4474(3) 0.13245(13)
O7 O 0.3110(8) 0.0781(4) 0.2510(2)
O8 O 0.4201(5) 0.1201(3) 0.30550(18)
N1 N 0.3600(6) 0.1376(3) 0.27347(17)
C1 C 0.0942(4) 0.1526(4) 0.41158(18)
C2 C 0.1884(5) 0.2173(3) 0.40016(16)
C3 C 0.2377(5) 0.2733(4) 0.43459(15)
H4 H 0.2147 0.2680 0.4656
C4 C 0.3204(5) 0.3362(3) 0.42257(16)
C5 C 0.3547(5) 0.3462(3) 0.37619(16)
H5 H 0.4105 0.3892 0.3684
C6 C 0.3043(5) 0.2907(3) 0.34129(16)
C7 C 0.2232(5) 0.2260(3) 0.35398(16)
H6 H 0.1913 0.1877 0.3312
C8 C 0.3732(5) 0.3956(3) 0.46024(17)
C9 C 0.3327(5) 0.3057(3) 0.29126(17)
C10 C 0.3348(5) 0.3967(4) 0.27339(17)
H7 H 0.3286 0.4471 0.2940
C11 C 0.3459(5) 0.4147(4) 0.22643(17)
H8 H 0.3497 0.4765 0.2160
C12 C 0.3513(5) 0.3427(4) 0.19467(17)
C13 C 0.3522(5) 0.2516(4) 0.21065(17)
H9 H 0.3574 0.2017 0.1898
C14 C 0.3453(5) 0.2355(4) 0.25839(17)
C15 C 0.3578(5) 0.3640(4) 0.14301(17)
Gd2 Gd 0.39940(2) 0.45494(2) 0.56942(2)
Gd3 Gd 0.39940(2) 0.54506(2) 0.06942(2)
Gd4 Gd 0.60060(2) 0.54506(2) 0.43058(2)
O13 O 0.0472(4) 0.9478(3) 0.45034(14)
Gd1 Gd 0.89940(2) 0.04506(2) 0.43058(2)
O10 O 0.8459(5) 0.1909(3) 0.3938(2)
H3 H 0.823(9) 0.224(6) 0.417(2)
O11 O 0.7012(5) 0.0510(4) 0.4177(2)
N2 N 0.5163(12) 0.0325(9) 0.4168(6)
C16 C 0.6203(14) 0.0134(14) 0.4131(8)
C17 C 0.4881(13) 0.1338(11) 0.4311(6)
H10 H 0.4082 0.1412 0.4329
H11 H 0.5208 0.1470 0.4611
H12 H 0.5179 0.1766 0.4083
O12 O 0.8324(4) 0.1109(3) 0.49941(12)
H16 H 0.784891 0.180913 0.370645
O9 O 0.8220(4) 0.9011(3) 0.46807(12)
H1 H 0.864(5) 0.889(4) 0.4915(13)
H2 H 0.835(5) 0.861(3) 0.4464(14)
C18 C 0.4267(12) 0.9624(10) 0.4069(8)
H13 H 0.3545 0.9909 0.4118
H14 H 0.4327 0.9416 0.3751
H15 H 0.4350 0.9097 0.4276
O14 O 0.8782(4) 0.9474(3) 0.36755(13)
H17 H 0.633446 0.940642 0.402604
Gd1_2 Gd 0.60060(2) 0.45494(2) 0.93058(2)
O1_2 O 0.4462(3) 0.3991(3) 0.87998(11)
O2_2 O 0.4466(3) 0.3477(2) 0.95289(11)
O4_2 O 0.0472(4) 0.0522(3) 0.95034(14)
O5_2 O 0.1555(4) 0.2002(3) 0.61426(13)
O6_2 O 0.1218(4) 0.0526(3) 0.63245(13)
O7_2 O 0.1890(8) 0.4219(4) 0.7510(2)
O8_2 O 0.0799(5) 0.3799(3) 0.80550(18)
O9_2 O 0.6780(4) 0.5989(3) 0.96807(12)
H1_2 H 0.636(5) 0.611(4) 0.9915(13)
H2_2 H 0.665(5) 0.639(3) 0.9464(14)
O10_2 O 0.6541(5) 0.3091(3) 0.8938(2)
H3_2 H 0.677(9) 0.276(6) 0.917(2)
O11_2 O 0.7988(5) 0.4490(4) 0.9177(2)
N1_2 N 0.1400(6) 0.3624(3) 0.77347(17)
N2_2 N 0.9837(12) 0.4675(9) 0.9168(6)
C1_2 C 0.4058(4) 0.3474(4) 0.91158(18)
C2_2 C 0.3116(5) 0.2827(3) 0.90016(16)
C3_2 C 0.2623(5) 0.2267(4) 0.93459(15)
H4_2 H 0.2853 0.2320 0.9656
C4_2 C 0.1796(5) 0.1638(3) 0.92257(16)
C5_2 C 0.1453(5) 0.1538(3) 0.87619(16)
H5_2 H 0.0895 0.1108 0.8684
C6_2 C 0.1957(5) 0.2093(3) 0.84129(16)
C7_2 C 0.2768(5) 0.2740(3) 0.85398(16)
H6_2 H 0.3087 0.3123 0.8312
C8_2 C 0.1268(5) 0.1044(3) 0.96024(17)
C9_2 C 0.1673(5) 0.1943(3) 0.79126(17)
C10_2 C 0.1652(5) 0.1033(4) 0.77339(17)
H7_2 H 0.1714 0.0529 0.7940
C11_2 C 0.1541(5) 0.0853(4) 0.72643(17)
H8_2 H 0.1503 0.0235 0.7160
C12_2 C 0.1487(5) 0.1573(4) 0.69467(17)
C13_2 C 0.1478(5) 0.2484(4) 0.71065(17)
H9_2 H 0.1426 0.2983 0.6898
C14_2 C 0.1547(5) 0.2645(4) 0.75839(17)
C15_2 C 0.1422(5) 0.1360(4) 0.64301(17)
C16_2 C 0.8797(14) 0.4866(14) 0.9131(8)
H11_2 H 0.9792 0.3530 0.9611
H12_2 H 0.9821 0.3234 0.9083
O12_2 O 0.6676(4) 0.3891(3) 0.99941(12)
O13_2 O 0.4528(4) 0.5522(3) 0.95034(14)
O14_2 O 0.6218(4) 0.5526(3) 0.86755(13)
H16_2 H 0.715109 0.319087 0.870645
H17_2 H 0.866554 0.559358 0.902604
Gd3_2 Gd 0.10060(2) 0.95494(2) 0.56942(2)
O9_3 O 0.1780(4) 0.9011(3) 0.03193(12)
H1_3 H 0.136(5) 0.889(4) 0.0085(13)
H2_3 H 0.165(5) 0.861(3) 0.0536(14)
C18_2 C 0.5733(12) 0.9624(10) 0.0931(8)
H13_2 H 0.6455 0.9909 0.0882
H14_2 H 0.5673 0.9416 0.1249
H15_2 H 0.5650 0.9097 0.0724
O14_3 O 0.1218(4) 0.9474(3) 0.13245(13)
H17_3 H 0.366554 0.940642 0.0973956
O1_3 O 0.9462(3) 0.1009(3) 0.12002(11)
O2_3 O 0.9466(3) 0.1523(2) 0.04711(11)
O4_3 O 0.5472(4) 0.4478(3) 0.04966(14)
O5_3 O 0.6555(4) 0.2998(3) 0.38574(13)
O6_3 O 0.6218(4) 0.4474(3) 0.36755(13)
O7_3 O 0.6890(8) 0.0781(4) 0.2490(2)
O8_3 O 0.5799(5) 0.1201(3) 0.19450(18)
N1_3 N 0.6400(6) 0.1376(3) 0.22653(17)
C1_3 C 0.9058(4) 0.1526(4) 0.08842(18)
C2_3 C 0.8116(5) 0.2173(3) 0.09984(16)
C3_3 C 0.7623(5) 0.2733(4) 0.06541(15)
H4_3 H 0.7853 0.2680 0.0344
C4_3 C 0.6796(5) 0.3362(3) 0.07743(16)
C5_3 C 0.6453(5) 0.3462(3) 0.12381(16)
H5_3 H 0.5895 0.3892 0.1316
C6_3 C 0.6957(5) 0.2907(3) 0.15871(16)
C7_3 C 0.7768(5) 0.2260(3) 0.14602(16)
H6_3 H 0.8087 0.1877 0.1688
C8_3 C 0.6268(5) 0.3956(3) 0.03976(17)
C9_3 C 0.6673(5) 0.3057(3) 0.20874(17)
C10_3 C 0.6652(5) 0.3967(4) 0.22661(17)
H7_3 H 0.6714 0.4471 0.2060
C11_3 C 0.6541(5) 0.4147(4) 0.27357(17)
H8_3 H 0.6503 0.4765 0.2840
C12_3 C 0.6487(5) 0.3427(4) 0.30533(17)
C13_3 C 0.6478(5) 0.2516(4) 0.28935(17)
H9_3 H 0.6426 0.2017 0.3102
C14_3 C 0.6547(5) 0.2355(4) 0.24161(17)
C15_3 C 0.6422(5) 0.3640(4) 0.35699(17)
O13_3 O 0.9528(4) 0.9478(3) 0.04966(14)
O1_4 O 0.5538(3) 0.3991(3) 0.62002(11)
O2_4 O 0.5534(3) 0.3477(2) 0.54711(11)
O4_4 O 0.9528(4) 0.0522(3) 0.54966(14)
O5_4 O 0.8445(4) 0.2002(3) 0.88574(13)
O6_4 O 0.8782(4) 0.0526(3) 0.86755(13)
O7_4 O 0.8110(8) 0.4219(4) 0.7490(2)
O8_4 O 0.9201(5) 0.3799(3) 0.69450(18)
O9_4 O 0.3220(4) 0.5989(3) 0.53193(12)
H1_4 H 0.364(5) 0.611(4) 0.5085(13)
H2_4 H 0.335(5) 0.639(3) 0.5536(14)
O10_3 O 0.3459(5) 0.3091(3) 0.6062(2)
H3_3 H 0.323(9) 0.276(6) 0.583(2)
O11_3 O 0.2012(5) 0.4490(4) 0.5823(2)
N1_4 N 0.8600(6) 0.3624(3) 0.72653(17)
N2_3 N 0.0163(12) 0.4675(9) 0.5832(6)
C1_4 C 0.5942(4) 0.3474(4) 0.58842(18)
C2_4 C 0.6884(5) 0.2827(3) 0.59984(16)
C3_4 C 0.7377(5) 0.2267(4) 0.56541(15)
H4_4 H 0.7147 0.2320 0.5344
C4_4 C 0.8204(5) 0.1638(3) 0.57743(16)
C5_4 C 0.8547(5) 0.1538(3) 0.62381(16)
H5_4 H 0.9105 0.1108 0.6316
C6_4 C 0.8043(5) 0.2093(3) 0.65871(16)
C7_4 C 0.7232(5) 0.2740(3) 0.64602(16)
H6_4 H 0.6913 0.3123 0.6688
C8_4 C 0.8732(5) 0.1044(3) 0.53976(17)
C9_4 C 0.8327(5) 0.1943(3) 0.70874(17)
C10_4 C 0.8348(5) 0.1033(4) 0.72661(17)
H7_4 H 0.8286 0.0529 0.7060
C11_4 C 0.8459(5) 0.0853(4) 0.77357(17)
H8_4 H 0.8497 0.0235 0.7840
C12_4 C 0.8513(5) 0.1573(4) 0.80533(17)
C13_4 C 0.8522(5) 0.2484(4) 0.78935(17)
H9_4 H 0.8574 0.2983 0.8102
C14_4 C 0.8453(5) 0.2645(4) 0.74161(17)
C15_4 C 0.8578(5) 0.1360(4) 0.85699(17)
C16_3 C 0.1203(14) 0.4866(14) 0.5869(8)
H11_3 H 0.0208 0.3530 0.5389
H12_3 H 0.0179 0.3234 0.5917
O13_4 O 0.5472(4) 0.5522(3) 0.54966(14)
O14_4 O 0.3782(4) 0.5526(3) 0.63245(13)
H16_3 H 0.284891 0.319087 0.629355
H17_4 H 0.133446 0.559358 0.597396
O9_5 O 0.1780(4) 0.0989(3) 0.53193(12)
H1_5 H 0.136(5) 0.111(4) 0.5085(13)
H2_5 H 0.165(5) 0.139(3) 0.5536(14)
C18_3 C 0.5733(12) 0.0376(10) 0.5931(8)
H13_3 H 0.6455 0.0091 0.5882
H14_3 H 0.5673 0.0584 0.6249
H15_3 H 0.5650 0.0903 0.5724
H17_5 H 0.366554 0.0593576 0.597396
O10_4 O 0.1541(5) 0.8091(3) 0.6062(2)
H3_4 H 0.177(9) 0.776(6) 0.583(2)
O11_4 O 0.2988(5) 0.9490(4) 0.5823(2)
N2_4 N 0.4837(12) 0.9675(9) 0.5832(6)
C16_4 C 0.3797(14) 0.9866(14) 0.5869(8)
C17_2 C 0.5119(13) 0.8662(11) 0.5689(6)
H10_2 H 0.5918 0.8588 0.5671
H11_4 H 0.4792 0.8530 0.5389
H12_4 H 0.4821 0.8234 0.5917
O12_3 O 0.1676(4) 0.8891(3) 0.50059(12)
H16_4 H 0.215109 0.819087 0.629355
O1_5 O 0.9462(3) 0.8991(3) 0.62002(11)
O2_5 O 0.9466(3) 0.8477(2) 0.54711(11)
O3_2 O 0.6676(4) 0.6109(3) 0.49941(12)
O5_5 O 0.6555(4) 0.7002(3) 0.88574(13)
O7_5 O 0.6890(8) 0.9219(4) 0.7490(2)
O8_5 O 0.5799(5) 0.8799(3) 0.69450(18)
N1_5 N 0.6400(6) 0.8624(3) 0.72653(17)
C1_5 C 0.9058(4) 0.8474(4) 0.58842(18)
C2_5 C 0.8116(5) 0.7827(3) 0.59984(16)
C3_5 C 0.7623(5) 0.7267(4) 0.56541(15)
H4_5 H 0.7853 0.7320 0.5344
C4_5 C 0.6796(5) 0.6638(3) 0.57743(16)
C5_5 C 0.6453(5) 0.6538(3) 0.62381(16)
H5_5 H 0.5895 0.6108 0.6316
C6_5 C 0.6957(5) 0.7093(3) 0.65871(16)
C7_5 C 0.7768(5) 0.7740(3) 0.64602(16)
H6_5 H 0.8087 0.8123 0.6688
C8_5 C 0.6268(5) 0.6044(3) 0.53976(17)
C9_5 C 0.6673(5) 0.6943(3) 0.70874(17)
C10_5 C 0.6652(5) 0.6033(4) 0.72661(17)
H7_5 H 0.6714 0.5529 0.7060
C11_5 C 0.6541(5) 0.5853(4) 0.77357(17)
H8_5 H 0.6503 0.5235 0.7840
C12_5 C 0.6487(5) 0.6573(4) 0.80533(17)
C13_5 C 0.6478(5) 0.7484(4) 0.78935(17)
H9_5 H 0.6426 0.7983 0.8102
C14_5 C 0.6547(5) 0.7645(4) 0.74161(17)
C15_5 C 0.6422(5) 0.6360(4) 0.85699(17)
O1_6 O 0.5538(3) 0.6009(3) 0.12002(11)
O2_6 O 0.5534(3) 0.6523(2) 0.04711(11)
O5_6 O 0.8445(4) 0.7998(3) 0.38574(13)
O7_6 O 0.8110(8) 0.5781(4) 0.2490(2)
O8_6 O 0.9201(5) 0.6201(3) 0.19450(18)
O9_6 O 0.3220(4) 0.4011(3) 0.03193(12)
H1_6 H 0.364(5) 0.389(4) 0.0085(13)
H2_6 H 0.335(5) 0.361(3) 0.0536(14)
O10_5 O 0.3459(5) 0.6909(3) 0.1062(2)
H3_5 H 0.323(9) 0.724(6) 0.083(2)
O11_5 O 0.2012(5) 0.5510(4) 0.0823(2)
N1_6 N 0.8600(6) 0.6376(3) 0.22653(17)
N2_5 N 0.0163(12) 0.5325(9) 0.0832(6)
C1_6 C 0.5942(4) 0.6526(4) 0.08842(18)
C2_6 C 0.6884(5) 0.7173(3) 0.09984(16)
C3_6 C 0.7377(5) 0.7733(4) 0.06541(15)
H4_6 H 0.7147 0.7680 0.0344
C4_6 C 0.8204(5) 0.8362(3) 0.07743(16)
C5_6 C 0.8547(5) 0.8462(3) 0.12381(16)
H5_6 H 0.9105 0.8892 0.1316
C6_6 C 0.8043(5) 0.7907(3) 0.15871(16)
C7_6 C 0.7232(5) 0.7260(3) 0.14602(16)
H6_6 H 0.6913 0.6877 0.1688
C8_6 C 0.8732(5) 0.8956(3) 0.03976(17)
C9_6 C 0.8327(5) 0.8057(3) 0.20874(17)
C10_6 C 0.8348(5) 0.8967(4) 0.22661(17)
H7_6 H 0.8286 0.9471 0.2060
C11_6 C 0.8459(5) 0.9147(4) 0.27357(17)
H8_6 H 0.8497 0.9765 0.2840
C12_6 C 0.8513(5) 0.8427(4) 0.30533(17)
C13_6 C 0.8522(5) 0.7516(4) 0.28935(17)
H9_6 H 0.8574 0.7017 0.3102
C14_6 C 0.8453(5) 0.7355(4) 0.24161(17)
C15_6 C 0.8578(5) 0.8640(4) 0.35699(17)
C16_5 C 0.1203(14) 0.5134(14) 0.0869(8)
H11_5 H 0.0208 0.6470 0.0389
H12_5 H 0.0179 0.6766 0.0917
O12_4 O 0.3324(4) 0.6109(3) 0.00059(12)
H16_5 H 0.284891 0.680913 0.129355
H17_6 H 0.133446 0.440642 0.0973956
O1_7 O 0.0538(3) 0.8991(3) 0.87998(11)
O2_7 O 0.0534(3) 0.8477(2) 0.95289(11)
O5_7 O 0.3445(4) 0.7002(3) 0.61426(13)
O7_7 O 0.3110(8) 0.9219(4) 0.7510(2)
O8_7 O 0.4201(5) 0.8799(3) 0.80550(18)
N1_7 N 0.3600(6) 0.8624(3) 0.77347(17)
C1_7 C 0.0942(4) 0.8474(4) 0.91158(18)
C2_7 C 0.1884(5) 0.7827(3) 0.90016(16)
C3_7 C 0.2377(5) 0.7267(4) 0.93459(15)
H4_7 H 0.2147 0.7320 0.9656
C4_7 C 0.3204(5) 0.6638(3) 0.92257(16)
C5_7 C 0.3547(5) 0.6538(3) 0.87619(16)
H5_7 H 0.4105 0.6108 0.8684
C6_7 C 0.3043(5) 0.7093(3) 0.84129(16)
C7_7 C 0.2232(5) 0.7740(3) 0.85398(16)
H6_7 H 0.1913 0.8123 0.8312
C8_7 C 0.3732(5) 0.6044(3) 0.96024(17)
C9_7 C 0.3327(5) 0.6943(3) 0.79126(17)
C10_7 C 0.3348(5) 0.6033(4) 0.77339(17)
H7_7 H 0.3286 0.5529 0.7940
C11_7 C 0.3459(5) 0.5853(4) 0.72643(17)
H8_7 H 0.3497 0.5235 0.7160
C12_7 C 0.3513(5) 0.6573(4) 0.69467(17)
C13_7 C 0.3522(5) 0.7484(4) 0.71065(17)
H9_7 H 0.3574 0.7983 0.6898
C14_7 C 0.3453(5) 0.7645(4) 0.75839(17)
C15_7 C 0.3578(5) 0.6360(4) 0.64301(17)
O9_7 O 0.8220(4) 0.0989(3) 0.96807(12)
H1_7 H 0.864(5) 0.111(4) 0.9915(13)
H2_7 H 0.835(5) 0.139(3) 0.9464(14)
C18_4 C 0.4267(12) 0.0376(10) 0.9069(8)
H13_4 H 0.3545 0.0091 0.9118
H14_4 H 0.4327 0.0584 0.8751
H15_4 H 0.4350 0.0903 0.9276
H17_7 H 0.633446 0.0593576 0.902604
O1_8 O 0.4462(3) 0.6009(3) 0.37998(11)
O2_8 O 0.4466(3) 0.6523(2) 0.45289(11)
O5_8 O 0.1555(4) 0.7998(3) 0.11426(13)
O7_8 O 0.1890(8) 0.5781(4) 0.2510(2)
O8_8 O 0.0799(5) 0.6201(3) 0.30550(18)
O9_8 O 0.6780(4) 0.4011(3) 0.46807(12)
H1_8 H 0.636(5) 0.389(4) 0.4915(13)
H2_8 H 0.665(5) 0.361(3) 0.4464(14)
O10_6 O 0.6541(5) 0.6909(3) 0.3938(2)
H3_6 H 0.677(9) 0.724(6) 0.417(2)
O11_6 O 0.7988(5) 0.5510(4) 0.4177(2)
N1_8 N 0.1400(6) 0.6376(3) 0.27347(17)
N2_6 N 0.9837(12) 0.5325(9) 0.4168(6)
C1_8 C 0.4058(4) 0.6526(4) 0.41158(18)
C2_8 C 0.3116(5) 0.7173(3) 0.40016(16)
C3_8 C 0.2623(5) 0.7733(4) 0.43459(15)
H4_8 H 0.2853 0.7680 0.4656
C4_8 C 0.1796(5) 0.8362(3) 0.42257(16)
C5_8 C 0.1453(5) 0.8462(3) 0.37619(16)
H5_8 H 0.0895 0.8892 0.3684
C6_8 C 0.1957(5) 0.7907(3) 0.34129(16)
C7_8 C 0.2768(5) 0.7260(3) 0.35398(16)
H6_8 H 0.3087 0.6877 0.3312
C8_8 C 0.1268(5) 0.8956(3) 0.46024(17)
C9_8 C 0.1673(5) 0.8057(3) 0.29126(17)
C10_8 C 0.1652(5) 0.8967(4) 0.27339(17)
H7_8 H 0.1714 0.9471 0.2940
C11_8 C 0.1541(5) 0.9147(4) 0.22643(17)
H8_8 H 0.1503 0.9765 0.2160
C12_8 C 0.1487(5) 0.8427(4) 0.19467(17)
C13_8 C 0.1478(5) 0.7516(4) 0.21065(17)
H9_8 H 0.1426 0.7017 0.1898
C14_8 C 0.1547(5) 0.7355(4) 0.25839(17)
C15_8 C 0.1422(5) 0.8640(4) 0.14301(17)
C16_6 C 0.8797(14) 0.5134(14) 0.4131(8)
H11_6 H 0.9792 0.6470 0.4611
H12_6 H 0.9821 0.6766 0.4083
H16_6 H 0.715109 0.680913 0.370645
H17_8 H 0.866554 0.440642 0.402604
C17_3 C 0.0119(13) 0.3662(11) 0.9311(6)
H10_3 H 0.0918 0.3588 0.9329
C18_5 C 0.0733(12) 0.5376(10) 0.9069(8)
H13_5 H 0.1455 0.5091 0.9118
H14_5 H 0.0673 0.5584 0.8751
H15_5 H 0.0650 0.5903 0.9276
O3_3 O 0.1676(4) 0.1109(3) 0.00059(12)
Gd2_2 Gd 0.10060(2) 0.04506(2) 0.06942(2)
O10_7 O 0.1541(5) 0.1909(3) 0.1062(2)
H3_7 H 0.177(9) 0.224(6) 0.083(2)
O11_7 O 0.2988(5) 0.0510(4) 0.0823(2)
N2_7 N 0.4837(12) 0.0325(9) 0.0832(6)
C16_7 C 0.3797(14) 0.0134(14) 0.0869(8)
C17_4 C 0.5119(13) 0.1338(11) 0.0689(6)
H10_4 H 0.5918 0.1412 0.0671
H11_7 H 0.4792 0.1470 0.0389
H12_7 H 0.4821 0.1766 0.0917
H16_7 H 0.215109 0.180913 0.129355
Gd4_2 Gd 0.89940(2) 0.95494(2) 0.93058(2)
O3_4 O 0.8324(4) 0.8891(3) 0.99941(12)
O10_8 O 0.8459(5) 0.8091(3) 0.8938(2)
H3_8 H 0.823(9) 0.776(6) 0.917(2)
O11_8 O 0.7012(5) 0.9490(4) 0.9177(2)
N2_8 N 0.5163(12) 0.9675(9) 0.9168(6)
C16_8 C 0.6203(14) 0.9866(14) 0.9131(8)
C17_5 C 0.4881(13) 0.8662(11) 0.9311(6)
H10_5 H 0.4082 0.8588 0.9329
H11_8 H 0.5208 0.8530 0.9611
H12_8 H 0.5179 0.8234 0.9083
H16_8 H 0.784891 0.819087 0.870645
C17_6 C 0.9881(13) 0.3662(11) 0.5689(6)
H10_6 H 0.9082 0.3588 0.5671
C18_6 C 0.9267(12) 0.5376(10) 0.5931(8)
H13_6 H 0.8545 0.5091 0.5882
H14_6 H 0.9327 0.5584 0.6249
H15_6 H 0.9350 0.5903 0.5724
C17_7 C 0.9881(13) 0.6338(11) 0.0689(6)
H10_7 H 0.9082 0.6412 0.0671
C18_7 C 0.9267(12) 0.4624(10) 0.0931(8)
H13_7 H 0.8545 0.4909 0.0882
H14_7 H 0.9327 0.4416 0.1249
H15_7 H 0.9350 0.4097 0.0724
C17_8 C 0.0119(13) 0.6338(11) 0.4311(6)
H10_8 H 0.0918 0.6412 0.4329
C18_8 C 0.0733(12) 0.4624(10) 0.4069(8)
H13_8 H 0.1455 0.4909 0.4118
H14_8 H 0.0673 0.4416 0.3751
H15_8 H 0.0650 0.4097 0.4276
loop_
_geom_bond_atom_site_label_1
_geom_bond_atom_site_label_2
_geom_bond_site_symmetry_1
_geom_bond_site_symmetry_2
O1 C1 1_555 1_555
O3 C8 1_555 1_555
O4 C8 1_555 1_555
O5 C15 1_555 1_555
O6 C15 1_555 1_555
O7 N1 1_555 1_555
O8 N1 1_555 1_555
N1 C14 1_555 1_555
C1 O2 1_555 1_555
C2 C1 1_555 1_555
C3 C2 1_555 1_555
H4 C3 1_555 1_555
C4 C3 1_555 1_555
C5 C4 1_555 1_555
H5 C5 1_555 1_555
C6 C5 1_555 1_555
C7 C2 1_555 1_555
H6 C7 1_555 1_555
C8 C4 1_555 1_555
C9 C6 1_555 1_555
C10 C9 1_555 1_555
H7 C10 1_555 1_555
C11 C10 1_555 1_555
H8 C11 1_555 1_555
C12 C11 1_555 1_555
C13 C12 1_555 1_555
H9 C13 1_555 1_555
C14 C9 1_555 1_555
C15 C12 1_555 1_555
Gd2 O3 1_555 1_555
Gd3 O6 1_555 1_555
Gd4 O4 1_555 1_555
C6 C7 1_555 1_555
C13 C14 1_555 1_555
O10 Gd1 1_555 1_555
H3 O10 1_555 1_555
O11 Gd1 1_555 1_555
N2 C16 1_555 1_555
C16 O11 1_555 1_555
C17 N2 1_555 1_555
H10 C17 1_555 1_555
H11 C17 1_555 1_555
H12 C17 1_555 1_555
O12 Gd1 1_555 1_555
O10 H16 1_555 1_555
H1 O9 1_555 1_555
H2 O9 1_555 1_555
H13 C18 1_555 1_555
H14 C18 1_555 1_555
H15 C18 1_555 1_555
Gd1_2 O1_2 1_555 1_555
O1_2 C1_2 1_555 1_555
O2_2 Gd1_2 1_555 1_555
O4_2 C8_2 1_555 1_555
O5_2 C15_2 1_555 1_555
O6_2 C15_2 1_555 1_555
O7_2 N1_2 1_555 1_555
O8_2 N1_2 1_555 1_555
O9_2 Gd1_2 1_555 1_555
H1_2 O9_2 1_555 1_555
H2_2 O9_2 1_555 1_555
O10_2 Gd1_2 1_555 1_555
H3_2 O10_2 1_555 1_555
O11_2 Gd1_2 1_555 1_555
N1_2 C14_2 1_555 1_555
N2_2 C16_2 1_555 1_555
C1_2 O2_2 1_555 1_555
C2_2 C1_2 1_555 1_555
C3_2 C2_2 1_555 1_555
H4_2 C3_2 1_555 1_555
C4_2 C3_2 1_555 1_555
C5_2 C4_2 1_555 1_555
H5_2 C5_2 1_555 1_555
C6_2 C5_2 1_555 1_555
C7_2 C2_2 1_555 1_555
H6_2 C7_2 1_555 1_555
C8_2 C4_2 1_555 1_555
C9_2 C6_2 1_555 1_555
C10_2 C9_2 1_555 1_555
H7_2 C10_2 1_555 1_555
C11_2 C10_2 1_555 1_555
H8_2 C11_2 1_555 1_555
C12_2 C11_2 1_555 1_555
C13_2 C12_2 1_555 1_555
H9_2 C13_2 1_555 1_555
C14_2 C9_2 1_555 1_555
C15_2 C12_2 1_555 1_555
C16_2 O11_2 1_555 1_555
O12_2 Gd1_2 1_555 1_555
O13_2 Gd1_2 1_555 1_555
O14_2 Gd1_2 1_555 1_555
C6_2 C7_2 1_555 1_555
C13_2 C14_2 1_555 1_555
O10_2 H16_2 1_555 1_555
C16_2 H17_2 1_555 1_555
H1_3 O9_3 1_555 1_555
H2_3 O9_3 1_555 1_555
H13_2 C18_2 1_555 1_555
H14_2 C18_2 1_555 1_555
H15_2 C18_2 1_555 1_555
O1_3 C1_3 1_555 1_555
O4_3 C8_3 1_555 1_555
O5_3 C15_3 1_555 1_555
O6_3 C15_3 1_555 1_555
O7_3 N1_3 1_555 1_555
O8_3 N1_3 1_555 1_555
N1_3 C14_3 1_555 1_555
C1_3 O2_3 1_555 1_555
C2_3 C1_3 1_555 1_555
C3_3 C2_3 1_555 1_555
H4_3 C3_3 1_555 1_555
C4_3 C3_3 1_555 1_555
C5_3 C4_3 1_555 1_555
H5_3 C5_3 1_555 1_555
C6_3 C5_3 1_555 1_555
C7_3 C2_3 1_555 1_555
H6_3 C7_3 1_555 1_555
C8_3 C4_3 1_555 1_555
C9_3 C6_3 1_555 1_555
C10_3 C9_3 1_555 1_555
H7_3 C10_3 1_555 1_555
C11_3 C10_3 1_555 1_555
H8_3 C11_3 1_555 1_555
C12_3 C11_3 1_555 1_555
C13_3 C12_3 1_555 1_555
H9_3 C13_3 1_555 1_555
C14_3 C9_3 1_555 1_555
C15_3 C12_3 1_555 1_555
Gd4 O6_3 1_555 1_555
Gd3 O4_3 1_555 1_555
C6_3 C7_3 1_555 1_555
C13_3 C14_3 1_555 1_555
Gd2 O1_4 1_555 1_555
O1_4 C1_4 1_555 1_555
O2_4 Gd2 1_555 1_555
O12 C8_4 1_555 1_555
O4_4 C8_4 1_555 1_555
O5_4 C15_4 1_555 1_555
O6_4 C15_4 1_555 1_555
O7_4 N1_4 1_555 1_555
O8_4 N1_4 1_555 1_555
O9_4 Gd2 1_555 1_555
H1_4 O9_4 1_555 1_555
H2_4 O9_4 1_555 1_555
O10_3 Gd2 1_555 1_555
H3_3 O10_3 1_555 1_555
O11_3 Gd2 1_555 1_555
N1_4 C14_4 1_555 1_555
N2_3 C16_3 1_555 1_555
C1_4 O2_4 1_555 1_555
C2_4 C1_4 1_555 1_555
C3_4 C2_4 1_555 1_555
H4_4 C3_4 1_555 1_555
C4_4 C3_4 1_555 1_555
C5_4 C4_4 1_555 1_555
H5_4 C5_4 1_555 1_555
C6_4 C5_4 1_555 1_555
C7_4 C2_4 1_555 1_555
H6_4 C7_4 1_555 1_555
C8_4 C4_4 1_555 1_555
C9_4 C6_4 1_555 1_555
C10_4 C9_4 1_555 1_555
H7_4 C10_4 1_555 1_555
C11_4 C10_4 1_555 1_555
H8_4 C11_4 1_555 1_555
C12_4 C11_4 1_555 1_555
C13_4 C12_4 1_555 1_555
H9_4 C13_4 1_555 1_555
C14_4 C9_4 1_555 1_555
C15_4 C12_4 1_555 1_555
C16_3 O11_3 1_555 1_555
O13_4 Gd2 1_555 1_555
O14_4 Gd2 1_555 1_555
C6_4 C7_4 1_555 1_555
C13_4 C14_4 1_555 1_555
O10_3 H16_3 1_555 1_555
C16_3 H17_4 1_555 1_555
H1_5 O9_5 1_555 1_555
H2_5 O9_5 1_555 1_555
H13_3 C18_3 1_555 1_555
H14_3 C18_3 1_555 1_555
H15_3 C18_3 1_555 1_555
O10_4 Gd3_2 1_555 1_555
H3_4 O10_4 1_555 1_555
O11_4 Gd3_2 1_555 1_555
N2_4 C16_4 1_555 1_555
C16_4 O11_4 1_555 1_555
C17_2 N2_4 1_555 1_555
H10_2 C17_2 1_555 1_555
H11_4 C17_2 1_555 1_555
H12_4 C17_2 1_555 1_555
O12_3 Gd3_2 1_555 1_555
O10_4 H16_4 1_555 1_555
O1_5 C1_5 1_555 1_555
O3_2 C8_5 1_555 1_555
O13_4 C8_5 1_555 1_555
O5_5 C15_5 1_555 1_555
O14_2 C15_5 1_555 1_555
O7_5 N1_5 1_555 1_555
O8_5 N1_5 1_555 1_555
N1_5 C14_5 1_555 1_555
C1_5 O2_5 1_555 1_555
C2_5 C1_5 1_555 1_555
C3_5 C2_5 1_555 1_555
H4_5 C3_5 1_555 1_555
C4_5 C3_5 1_555 1_555
C5_5 C4_5 1_555 1_555
H5_5 C5_5 1_555 1_555
C6_5 C5_5 1_555 1_555
C7_5 C2_5 1_555 1_555
H6_5 C7_5 1_555 1_555
C8_5 C4_5 1_555 1_555
C9_5 C6_5 1_555 1_555
C10_5 C9_5 1_555 1_555
H7_5 C10_5 1_555 1_555
C11_5 C10_5 1_555 1_555
H8_5 C11_5 1_555 1_555
C12_5 C11_5 1_555 1_555
C13_5 C12_5 1_555 1_555
H9_5 C13_5 1_555 1_555
C14_5 C9_5 1_555 1_555
C15_5 C12_5 1_555 1_555
Gd4 O3_2 1_555 1_555
C6_5 C7_5 1_555 1_555
C13_5 C14_5 1_555 1_555
Gd3 O1_6 1_555 1_555
O1_6 C1_6 1_555 1_555
O2_6 Gd3 1_555 1_555
O13_3 C8_6 1_555 1_555
O5_6 C15_6 1_555 1_555
O14 C15_6 1_555 1_555
O7_6 N1_6 1_555 1_555
O8_6 N1_6 1_555 1_555
O9_6 Gd3 1_555 1_555
H1_6 O9_6 1_555 1_555
H2_6 O9_6 1_555 1_555
O10_5 Gd3 1_555 1_555
H3_5 O10_5 1_555 1_555
O11_5 Gd3 1_555 1_555
N1_6 C14_6 1_555 1_555
N2_5 C16_5 1_555 1_555
C1_6 O2_6 1_555 1_555
C2_6 C1_6 1_555 1_555
C3_6 C2_6 1_555 1_555
H4_6 C3_6 1_555 1_555
C4_6 C3_6 1_555 1_555
C5_6 C4_6 1_555 1_555
H5_6 C5_6 1_555 1_555
C6_6 C5_6 1_555 1_555
C7_6 C2_6 1_555 1_555
H6_6 C7_6 1_555 1_555
C8_6 C4_6 1_555 1_555
C9_6 C6_6 1_555 1_555
C10_6 C9_6 1_555 1_555
H7_6 C10_6 1_555 1_555
C11_6 C10_6 1_555 1_555
H8_6 C11_6 1_555 1_555
C12_6 C11_6 1_555 1_555
C13_6 C12_6 1_555 1_555
H9_6 C13_6 1_555 1_555
C14_6 C9_6 1_555 1_555
C15_6 C12_6 1_555 1_555
C16_5 O11_5 1_555 1_555
O12_4 Gd3 1_555 1_555
C6_6 C7_6 1_555 1_555
C13_6 C14_6 1_555 1_555
O10_5 H16_5 1_555 1_555
C16_5 H17_6 1_555 1_555
O1_7 C1_7 1_555 1_555
O13_2 C8_7 1_555 1_555
O5_7 C15_7 1_555 1_555
O14_4 C15_7 1_555 1_555
O7_7 N1_7 1_555 1_555
O8_7 N1_7 1_555 1_555
N1_7 C14_7 1_555 1_555
C1_7 O2_7 1_555 1_555
C2_7 C1_7 1_555 1_555
C3_7 C2_7 1_555 1_555
H4_7 C3_7 1_555 1_555
C4_7 C3_7 1_555 1_555
C5_7 C4_7 1_555 1_555
H5_7 C5_7 1_555 1_555
C6_7 C5_7 1_555 1_555
C7_7 C2_7 1_555 1_555
H6_7 C7_7 1_555 1_555
C8_7 C4_7 1_555 1_555
C9_7 C6_7 1_555 1_555
C10_7 C9_7 1_555 1_555
H7_7 C10_7 1_555 1_555
C11_7 C10_7 1_555 1_555
H8_7 C11_7 1_555 1_555
C12_7 C11_7 1_555 1_555
C13_7 C12_7 1_555 1_555
H9_7 C13_7 1_555 1_555
C14_7 C9_7 1_555 1_555
C15_7 C12_7 1_555 1_555
C6_7 C7_7 1_555 1_555
C13_7 C14_7 1_555 1_555
H1_7 O9_7 1_555 1_555
H2_7 O9_7 1_555 1_555
H13_4 C18_4 1_555 1_555
H14_4 C18_4 1_555 1_555
H15_4 C18_4 1_555 1_555
Gd4 O1_8 1_555 1_555
O1_8 C1_8 1_555 1_555
O2_8 Gd4 1_555 1_555
O12_3 C8_8 1_555 1_555
O13 C8_8 1_555 1_555
O5_8 C15_8 1_555 1_555
O14_3 C15_8 1_555 1_555
O7_8 N1_8 1_555 1_555
O8_8 N1_8 1_555 1_555
O9_8 Gd4 1_555 1_555
H1_8 O9_8 1_555 1_555
H2_8 O9_8 1_555 1_555
O10_6 Gd4 1_555 1_555
H3_6 O10_6 1_555 1_555
O11_6 Gd4 1_555 1_555
N1_8 C14_8 1_555 1_555
N2_6 C16_6 1_555 1_555
C1_8 O2_8 1_555 1_555
C2_8 C1_8 1_555 1_555
C3_8 C2_8 1_555 1_555
H4_8 C3_8 1_555 1_555
C4_8 C3_8 1_555 1_555
C5_8 C4_8 1_555 1_555
H5_8 C5_8 1_555 1_555
C6_8 C5_8 1_555 1_555
C7_8 C2_8 1_555 1_555
H6_8 C7_8 1_555 1_555
C8_8 C4_8 1_555 1_555
C9_8 C6_8 1_555 1_555
C10_8 C9_8 1_555 1_555
H7_8 C10_8 1_555 1_555
C11_8 C10_8 1_555 1_555
H8_8 C11_8 1_555 1_555
C12_8 C11_8 1_555 1_555
C13_8 C12_8 1_555 1_555
H9_8 C13_8 1_555 1_555
C14_8 C9_8 1_555 1_555
C15_8 C12_8 1_555 1_555
C16_6 O11_6 1_555 1_555
C6_8 C7_8 1_555 1_555
C13_8 C14_8 1_555 1_555
O10_6 H16_6 1_555 1_555
C16_6 H17_8 1_555 1_555
H10_3 C17_3 1_555 1_555
H13_5 C18_5 1_555 1_555
H14_5 C18_5 1_555 1_555
H15_5 C18_5 1_555 1_555
Gd2_2 O3_3 1_555 1_555
O10_7 Gd2_2 1_555 1_555
H3_7 O10_7 1_555 1_555
O11_7 Gd2_2 1_555 1_555
N2_7 C16_7 1_555 1_555
C16_7 O11_7 1_555 1_555
C17_4 N2_7 1_555 1_555
H10_4 C17_4 1_555 1_555
H11_7 C17_4 1_555 1_555
H12_7 C17_4 1_555 1_555
O10_7 H16_7 1_555 1_555
Gd4_2 O3_4 1_555 1_555
O10_8 Gd4_2 1_555 1_555
H3_8 O10_8 1_555 1_555
O11_8 Gd4_2 1_555 1_555
N2_8 C16_8 1_555 1_555
C16_8 O11_8 1_555 1_555
C17_5 N2_8 1_555 1_555
H10_5 C17_5 1_555 1_555
H11_8 C17_5 1_555 1_555
H12_8 C17_5 1_555 1_555
O10_8 H16_8 1_555 1_555
H10_6 C17_6 1_555 1_555
H13_6 C18_6 1_555 1_555
H14_6 C18_6 1_555 1_555
H15_6 C18_6 1_555 1_555
H10_7 C17_7 1_555 1_555
H13_7 C18_7 1_555 1_555
H14_7 C18_7 1_555 1_555
H15_7 C18_7 1_555 1_555
H10_8 C17_8 1_555 1_555
H13_8 C18_8 1_555 1_555
H14_8 C18_8 1_555 1_555
H15_8 C18_8 1_555 1_555

#END
