
###############################################################################
#
# This file contains modified crystal structure data generated from the
# MOF subset of the Cambridge Structural Database (CSD) v543 
# hosted by the Cambridge Crystallographic Data Centre (CCDC).
#
# This work is licensed under the Creative Commons
# Attribution-NonCommercial-ShareAlike 4.0 International License.
# To view a copy of this license, visit
# http://creativecommons.org/licenses/by-nc-sa/4.0/
# or send a letter to
# Creative Commons, PO Box 1866, Mountain View, CA 94042, USA.
#
# CIF created using the CSD Python API on 29 September 2022
# The structure has been converted into the P1 space group
# The structure has a 3D framework
# The original CSD entry ZIQSAW is in the orthorhombic crystal system
# The framework has been calculated to contain at least 10.0% void space
# The void calculation uses a probe of radius 1.32A, grid spacing 0.4
# H atom positions have been added when not included in the experimental data
#
###############################################################################

data_ZIQSAW
_chemical_formula_moiety         '(C144 H136 Ho8 N16 O84)n'
_symmetry_cell_setting           triclinic
_symmetry_space_group_name_H-M   'P 1'
_symmetry_Int_Tables_number      1
_space_group_name_Hall           'P 1'
loop_
_symmetry_equiv_pos_site_id
_symmetry_equiv_pos_as_xyz
1 x,y,z
_cell_length_a                   11.923(3)
_cell_length_b                   14.195(3)
_cell_length_c                   28.569(7)
_cell_angle_alpha                90
_cell_angle_beta                 90
_cell_angle_gamma                90
_cell_volume                     4835.22
loop_
_atom_site_label
_atom_site_type_symbol
_atom_site_fract_x
_atom_site_fract_y
_atom_site_fract_z
O1 O 0.0514(4) 0.1011(3) 0.37988(15)
O2 O 0.0531(4) 0.1531(3) 0.45302(14)
O3 O 0.3367(4) 0.3892(4) 0.50059(16)
O4 O 0.4546(4) 0.4498(3) 0.44974(19)
O5 O 0.3425(5) 0.3018(4) 0.11319(17)
O6 O 0.3775(5) 0.4511(3) 0.13173(17)
O7 O 0.3171(11) 0.0768(5) 0.2485(3)
O8 O 0.4188(7) 0.1198(5) 0.3055(2)
N1 N 0.3620(7) 0.1368(5) 0.2725(2)
C1 C 0.0931(5) 0.1528(5) 0.4114(2)
C2 C 0.1889(5) 0.2176(4) 0.4003(2)
C3 C 0.2377(6) 0.2733(5) 0.4341(2)
H4 H 0.2143 0.2683 0.4651
C4 C 0.3218(6) 0.3372(5) 0.4222(2)
C5 C 0.3541(6) 0.3464(5) 0.3758(2)
H5 H 0.4092 0.3899 0.3677
C6 C 0.3049(6) 0.2911(4) 0.3411(2)
C7 C 0.2238(5) 0.2267(5) 0.3538(2)
H6 H 0.1916 0.1886 0.3309
C8 C 0.3769(6) 0.3968(5) 0.4600(2)
C9 C 0.3325(6) 0.3073(5) 0.2908(2)
C10 C 0.3350(6) 0.3992(5) 0.2731(2)
H7 H 0.3293 0.4496 0.2938
C11 C 0.3457(6) 0.4175(5) 0.2257(2)
H8 H 0.3486 0.4795 0.2152
C12 C 0.3520(6) 0.3445(5) 0.1935(2)
C13 C 0.3531(6) 0.2524(5) 0.2097(2)
H9 H 0.3581 0.2023 0.1889
C14 C 0.3466(6) 0.2361(5) 0.2573(2)
C15 C 0.3568(6) 0.3663(5) 0.1420(2)
Ho2 Ho 0.39984(2) 0.45304(2) 0.56912(2)
Ho3 Ho 0.39984(2) 0.54696(2) 0.06912(2)
Ho4 Ho 0.60016(2) 0.54696(2) 0.43088(2)
O13 O 0.0454(4) 0.9498(3) 0.44974(19)
Ho1 Ho 0.89984(2) 0.04696(2) 0.43088(2)
O10 O 0.8461(5) 0.1920(4) 0.3953(3)
H3 H 0.790(6) 0.220(8) 0.383(4)
O11 O 0.7039(5) 0.0538(5) 0.4194(2)
N2 N 0.5192(10) 0.0361(10) 0.4200(7)
C16 C 0.6223(16) 0.0148(16) 0.4146(8)
C17 C 0.4901(16) 0.1280(14) 0.4278(6)
H10 H 0.4102 0.1326 0.4312
H11 H 0.5257 0.1499 0.4560
H12 H 0.5141 0.1659 0.4019
O12 O 0.8367(4) 0.1108(4) 0.49941(16)
H16 H 0.901469 0.195966 0.36941
O9 O 0.8232(4) 0.9054(3) 0.46850(16)
H1 H 0.833(7) 0.863(4) 0.4479(17)
H2 H 0.852(7) 0.887(5) 0.4943(13)
C18 C 0.4277(15) 0.9676(13) 0.4139(8)
H13 H 0.3571 0.9979 0.4196
H14 H 0.4292 0.9435 0.3825
H15 H 0.4373 0.9166 0.4356
O14 O 0.8775(5) 0.9511(3) 0.36827(17)
H17 H 0.634246 0.942642 0.402654
Ho1_2 Ho 0.60016(2) 0.45304(2) 0.93088(2)
O1_2 O 0.4486(4) 0.3989(3) 0.87988(15)
O2_2 O 0.4469(4) 0.3469(3) 0.95302(14)
O4_2 O 0.0454(4) 0.0502(3) 0.94974(19)
O5_2 O 0.1575(5) 0.1982(4) 0.61319(17)
O6_2 O 0.1225(5) 0.0489(3) 0.63173(17)
O7_2 O 0.1829(11) 0.4232(5) 0.7485(3)
O8_2 O 0.0812(7) 0.3802(5) 0.8055(2)
O9_2 O 0.6768(4) 0.5946(3) 0.96850(16)
H1_2 H 0.667(7) 0.637(4) 0.9479(17)
H2_2 H 0.648(7) 0.613(5) 0.9943(13)
O10_2 O 0.6539(5) 0.3080(4) 0.8953(3)
H3_2 H 0.710(6) 0.280(8) 0.883(4)
O11_2 O 0.7961(5) 0.4462(5) 0.9194(2)
N1_2 N 0.1380(7) 0.3632(5) 0.7725(2)
N2_2 N 0.9808(10) 0.4639(10) 0.9200(7)
C1_2 C 0.4069(5) 0.3472(5) 0.9114(2)
C2_2 C 0.3111(5) 0.2824(4) 0.9003(2)
C3_2 C 0.2623(6) 0.2267(5) 0.9341(2)
H4_2 H 0.2857 0.2317 0.9651
C4_2 C 0.1782(6) 0.1628(5) 0.9222(2)
C5_2 C 0.1459(6) 0.1536(5) 0.8758(2)
H5_2 H 0.0908 0.1101 0.8677
C6_2 C 0.1951(6) 0.2089(4) 0.8411(2)
C7_2 C 0.2762(5) 0.2733(5) 0.8538(2)
H6_2 H 0.3084 0.3114 0.8309
C8_2 C 0.1231(6) 0.1032(5) 0.9600(2)
C9_2 C 0.1675(6) 0.1927(5) 0.7908(2)
C10_2 C 0.1650(6) 0.1008(5) 0.7731(2)
H7_2 H 0.1707 0.0504 0.7938
C11_2 C 0.1543(6) 0.0825(5) 0.7257(2)
H8_2 H 0.1514 0.0205 0.7152
C12_2 C 0.1480(6) 0.1555(5) 0.6935(2)
C13_2 C 0.1469(6) 0.2476(5) 0.7097(2)
H9_2 H 0.1419 0.2977 0.6889
C14_2 C 0.1534(6) 0.2639(5) 0.7573(2)
C15_2 C 0.1432(6) 0.1337(5) 0.6420(2)
C16_2 C 0.8777(16) 0.4852(16) 0.9146(8)
H11_2 H 0.9743 0.3501 0.9560
H12_2 H 0.9859 0.3341 0.9019
O12_2 O 0.6633(4) 0.3892(4) 0.99941(16)
O13_2 O 0.4546(4) 0.5502(3) 0.94974(19)
O14_2 O 0.6225(5) 0.5489(3) 0.86827(17)
H16_2 H 0.598531 0.304034 0.86941
H17_2 H 0.865754 0.557358 0.902654
Ho3_2 Ho 0.10016(2) 0.95304(2) 0.56912(2)
O9_3 O 0.1768(4) 0.9054(3) 0.03150(16)
H1_3 H 0.167(7) 0.863(4) 0.0521(17)
H2_3 H 0.148(7) 0.887(5) 0.0057(13)
C18_2 C 0.5723(15) 0.9676(13) 0.0861(8)
H13_2 H 0.6429 0.9979 0.0804
H14_2 H 0.5708 0.9435 0.1175
H15_2 H 0.5627 0.9166 0.0644
O14_3 O 0.1225(5) 0.9511(3) 0.13173(17)
H17_3 H 0.365754 0.942642 0.0973465
O1_3 O 0.9486(4) 0.1011(3) 0.12012(15)
O2_3 O 0.9469(4) 0.1531(3) 0.04698(14)
O4_3 O 0.5454(4) 0.4498(3) 0.05026(19)
O5_3 O 0.6575(5) 0.3018(4) 0.38681(17)
O6_3 O 0.6225(5) 0.4511(3) 0.36827(17)
O7_3 O 0.6829(11) 0.0768(5) 0.2515(3)
O8_3 O 0.5812(7) 0.1198(5) 0.1945(2)
N1_3 N 0.6380(7) 0.1368(5) 0.2275(2)
C1_3 C 0.9069(5) 0.1528(5) 0.0886(2)
C2_3 C 0.8111(5) 0.2176(4) 0.0997(2)
C3_3 C 0.7623(6) 0.2733(5) 0.0659(2)
H4_3 H 0.7857 0.2683 0.0349
C4_3 C 0.6782(6) 0.3372(5) 0.0778(2)
C5_3 C 0.6459(6) 0.3464(5) 0.1242(2)
H5_3 H 0.5908 0.3899 0.1323
C6_3 C 0.6951(6) 0.2911(4) 0.1589(2)
C7_3 C 0.7762(5) 0.2267(5) 0.1462(2)
H6_3 H 0.8084 0.1886 0.1691
C8_3 C 0.6231(6) 0.3968(5) 0.0400(2)
C9_3 C 0.6675(6) 0.3073(5) 0.2092(2)
C10_3 C 0.6650(6) 0.3992(5) 0.2269(2)
H7_3 H 0.6707 0.4496 0.2062
C11_3 C 0.6543(6) 0.4175(5) 0.2743(2)
H8_3 H 0.6514 0.4795 0.2848
C12_3 C 0.6480(6) 0.3445(5) 0.3065(2)
C13_3 C 0.6469(6) 0.2524(5) 0.2903(2)
H9_3 H 0.6419 0.2023 0.3111
C14_3 C 0.6534(6) 0.2361(5) 0.2427(2)
C15_3 C 0.6432(6) 0.3663(5) 0.3580(2)
O13_3 O 0.9546(4) 0.9498(3) 0.05026(19)
O1_4 O 0.5514(4) 0.3989(3) 0.62012(15)
O2_4 O 0.5531(4) 0.3469(3) 0.54698(14)
O4_4 O 0.9546(4) 0.0502(3) 0.55026(19)
O5_4 O 0.8425(5) 0.1982(4) 0.88681(17)
O6_4 O 0.8775(5) 0.0489(3) 0.86827(17)
O7_4 O 0.8171(11) 0.4232(5) 0.7515(3)
O8_4 O 0.9188(7) 0.3802(5) 0.6945(2)
O9_4 O 0.3232(4) 0.5946(3) 0.53150(16)
H1_4 H 0.333(7) 0.637(4) 0.5521(17)
H2_4 H 0.352(7) 0.613(5) 0.5057(13)
O10_3 O 0.3461(5) 0.3080(4) 0.6047(3)
H3_3 H 0.290(6) 0.280(8) 0.617(4)
O11_3 O 0.2039(5) 0.4462(5) 0.5806(2)
N1_4 N 0.8620(7) 0.3632(5) 0.7275(2)
N2_3 N 0.0192(10) 0.4639(10) 0.5800(7)
C1_4 C 0.5931(5) 0.3472(5) 0.5886(2)
C2_4 C 0.6889(5) 0.2824(4) 0.5997(2)
C3_4 C 0.7377(6) 0.2267(5) 0.5659(2)
H4_4 H 0.7143 0.2317 0.5349
C4_4 C 0.8218(6) 0.1628(5) 0.5778(2)
C5_4 C 0.8541(6) 0.1536(5) 0.6242(2)
H5_4 H 0.9092 0.1101 0.6323
C6_4 C 0.8049(6) 0.2089(4) 0.6589(2)
C7_4 C 0.7238(5) 0.2733(5) 0.6462(2)
H6_4 H 0.6916 0.3114 0.6691
C8_4 C 0.8769(6) 0.1032(5) 0.5400(2)
C9_4 C 0.8325(6) 0.1927(5) 0.7092(2)
C10_4 C 0.8350(6) 0.1008(5) 0.7269(2)
H7_4 H 0.8293 0.0504 0.7062
C11_4 C 0.8457(6) 0.0825(5) 0.7743(2)
H8_4 H 0.8486 0.0205 0.7848
C12_4 C 0.8520(6) 0.1555(5) 0.8065(2)
C13_4 C 0.8531(6) 0.2476(5) 0.7903(2)
H9_4 H 0.8581 0.2977 0.8111
C14_4 C 0.8466(6) 0.2639(5) 0.7427(2)
C15_4 C 0.8568(6) 0.1337(5) 0.8580(2)
C16_3 C 0.1223(16) 0.4852(16) 0.5854(8)
H11_3 H 0.0257 0.3501 0.5440
H12_3 H 0.0141 0.3341 0.5981
O13_4 O 0.5454(4) 0.5502(3) 0.55026(19)
O14_4 O 0.3775(5) 0.5489(3) 0.63173(17)
H16_3 H 0.401469 0.304034 0.63059
H17_4 H 0.134246 0.557358 0.597346
O9_5 O 0.1768(4) 0.0946(3) 0.53150(16)
H1_5 H 0.167(7) 0.137(4) 0.5521(17)
H2_5 H 0.148(7) 0.113(5) 0.5057(13)
C18_3 C 0.5723(15) 0.0324(13) 0.5861(8)
H13_3 H 0.6429 0.0021 0.5804
H14_3 H 0.5708 0.0565 0.6175
H15_3 H 0.5627 0.0834 0.5644
H17_5 H 0.365754 0.0573578 0.597346
O10_4 O 0.1539(5) 0.8080(4) 0.6047(3)
H3_4 H 0.210(6) 0.780(8) 0.617(4)
O11_4 O 0.2961(5) 0.9462(5) 0.5806(2)
N2_4 N 0.4808(10) 0.9639(10) 0.5800(7)
C16_4 C 0.3777(16) 0.9852(16) 0.5854(8)
C17_2 C 0.5099(16) 0.8720(14) 0.5722(6)
H10_2 H 0.5898 0.8674 0.5688
H11_4 H 0.4743 0.8501 0.5440
H12_4 H 0.4859 0.8341 0.5981
O12_3 O 0.1633(4) 0.8892(4) 0.50059(16)
H16_4 H 0.0985313 0.804034 0.63059
O1_5 O 0.9486(4) 0.8989(3) 0.62012(15)
O2_5 O 0.9469(4) 0.8469(3) 0.54698(14)
O3_2 O 0.6633(4) 0.6108(4) 0.49941(16)
O5_5 O 0.6575(5) 0.6982(4) 0.88681(17)
O7_5 O 0.6829(11) 0.9232(5) 0.7515(3)
O8_5 O 0.5812(7) 0.8802(5) 0.6945(2)
N1_5 N 0.6380(7) 0.8632(5) 0.7275(2)
C1_5 C 0.9069(5) 0.8472(5) 0.5886(2)
C2_5 C 0.8111(5) 0.7824(4) 0.5997(2)
C3_5 C 0.7623(6) 0.7267(5) 0.5659(2)
H4_5 H 0.7857 0.7317 0.5349
C4_5 C 0.6782(6) 0.6628(5) 0.5778(2)
C5_5 C 0.6459(6) 0.6536(5) 0.6242(2)
H5_5 H 0.5908 0.6101 0.6323
C6_5 C 0.6951(6) 0.7089(4) 0.6589(2)
C7_5 C 0.7762(5) 0.7733(5) 0.6462(2)
H6_5 H 0.8084 0.8114 0.6691
C8_5 C 0.6231(6) 0.6032(5) 0.5400(2)
C9_5 C 0.6675(6) 0.6927(5) 0.7092(2)
C10_5 C 0.6650(6) 0.6008(5) 0.7269(2)
H7_5 H 0.6707 0.5504 0.7062
C11_5 C 0.6543(6) 0.5825(5) 0.7743(2)
H8_5 H 0.6514 0.5205 0.7848
C12_5 C 0.6480(6) 0.6555(5) 0.8065(2)
C13_5 C 0.6469(6) 0.7476(5) 0.7903(2)
H9_5 H 0.6419 0.7977 0.8111
C14_5 C 0.6534(6) 0.7639(5) 0.7427(2)
C15_5 C 0.6432(6) 0.6337(5) 0.8580(2)
O1_6 O 0.5514(4) 0.6011(3) 0.12012(15)
O2_6 O 0.5531(4) 0.6531(3) 0.04698(14)
O5_6 O 0.8425(5) 0.8018(4) 0.38681(17)
O7_6 O 0.8171(11) 0.5768(5) 0.2515(3)
O8_6 O 0.9188(7) 0.6198(5) 0.1945(2)
O9_6 O 0.3232(4) 0.4054(3) 0.03150(16)
H1_6 H 0.333(7) 0.363(4) 0.0521(17)
H2_6 H 0.352(7) 0.387(5) 0.0057(13)
O10_5 O 0.3461(5) 0.6920(4) 0.1047(3)
H3_5 H 0.290(6) 0.720(8) 0.117(4)
O11_5 O 0.2039(5) 0.5538(5) 0.0806(2)
N1_6 N 0.8620(7) 0.6368(5) 0.2275(2)
N2_5 N 0.0192(10) 0.5361(10) 0.0800(7)
C1_6 C 0.5931(5) 0.6528(5) 0.0886(2)
C2_6 C 0.6889(5) 0.7176(4) 0.0997(2)
C3_6 C 0.7377(6) 0.7733(5) 0.0659(2)
H4_6 H 0.7143 0.7683 0.0349
C4_6 C 0.8218(6) 0.8372(5) 0.0778(2)
C5_6 C 0.8541(6) 0.8464(5) 0.1242(2)
H5_6 H 0.9092 0.8899 0.1323
C6_6 C 0.8049(6) 0.7911(4) 0.1589(2)
C7_6 C 0.7238(5) 0.7267(5) 0.1462(2)
H6_6 H 0.6916 0.6886 0.1691
C8_6 C 0.8769(6) 0.8968(5) 0.0400(2)
C9_6 C 0.8325(6) 0.8073(5) 0.2092(2)
C10_6 C 0.8350(6) 0.8992(5) 0.2269(2)
H7_6 H 0.8293 0.9496 0.2062
C11_6 C 0.8457(6) 0.9175(5) 0.2743(2)
H8_6 H 0.8486 0.9795 0.2848
C12_6 C 0.8520(6) 0.8445(5) 0.3065(2)
C13_6 C 0.8531(6) 0.7524(5) 0.2903(2)
H9_6 H 0.8581 0.7023 0.3111
C14_6 C 0.8466(6) 0.7361(5) 0.2427(2)
C15_6 C 0.8568(6) 0.8663(5) 0.3580(2)
C16_5 C 0.1223(16) 0.5148(16) 0.0854(8)
H11_5 H 0.0257 0.6499 0.0440
H12_5 H 0.0141 0.6659 0.0981
O12_4 O 0.3367(4) 0.6108(4) 0.00059(16)
H16_5 H 0.401469 0.695966 0.13059
H17_6 H 0.134246 0.442642 0.0973465
O1_7 O 0.0514(4) 0.8989(3) 0.87988(15)
O2_7 O 0.0531(4) 0.8469(3) 0.95302(14)
O5_7 O 0.3425(5) 0.6982(4) 0.61319(17)
O7_7 O 0.3171(11) 0.9232(5) 0.7485(3)
O8_7 O 0.4188(7) 0.8802(5) 0.8055(2)
N1_7 N 0.3620(7) 0.8632(5) 0.7725(2)
C1_7 C 0.0931(5) 0.8472(5) 0.9114(2)
C2_7 C 0.1889(5) 0.7824(4) 0.9003(2)
C3_7 C 0.2377(6) 0.7267(5) 0.9341(2)
H4_7 H 0.2143 0.7317 0.9651
C4_7 C 0.3218(6) 0.6628(5) 0.9222(2)
C5_7 C 0.3541(6) 0.6536(5) 0.8758(2)
H5_7 H 0.4092 0.6101 0.8677
C6_7 C 0.3049(6) 0.7089(4) 0.8411(2)
C7_7 C 0.2238(5) 0.7733(5) 0.8538(2)
H6_7 H 0.1916 0.8114 0.8309
C8_7 C 0.3769(6) 0.6032(5) 0.9600(2)
C9_7 C 0.3325(6) 0.6927(5) 0.7908(2)
C10_7 C 0.3350(6) 0.6008(5) 0.7731(2)
H7_7 H 0.3293 0.5504 0.7938
C11_7 C 0.3457(6) 0.5825(5) 0.7257(2)
H8_7 H 0.3486 0.5205 0.7152
C12_7 C 0.3520(6) 0.6555(5) 0.6935(2)
C13_7 C 0.3531(6) 0.7476(5) 0.7097(2)
H9_7 H 0.3581 0.7977 0.6889
C14_7 C 0.3466(6) 0.7639(5) 0.7573(2)
C15_7 C 0.3568(6) 0.6337(5) 0.6420(2)
O9_7 O 0.8232(4) 0.0946(3) 0.96850(16)
H1_7 H 0.833(7) 0.137(4) 0.9479(17)
H2_7 H 0.852(7) 0.113(5) 0.9943(13)
C18_4 C 0.4277(15) 0.0324(13) 0.9139(8)
H13_4 H 0.3571 0.0021 0.9196
H14_4 H 0.4292 0.0565 0.8825
H15_4 H 0.4373 0.0834 0.9356
H17_7 H 0.634246 0.0573578 0.902654
O1_8 O 0.4486(4) 0.6011(3) 0.37988(15)
O2_8 O 0.4469(4) 0.6531(3) 0.45302(14)
O5_8 O 0.1575(5) 0.8018(4) 0.11319(17)
O7_8 O 0.1829(11) 0.5768(5) 0.2485(3)
O8_8 O 0.0812(7) 0.6198(5) 0.3055(2)
O9_8 O 0.6768(4) 0.4054(3) 0.46850(16)
H1_8 H 0.667(7) 0.363(4) 0.4479(17)
H2_8 H 0.648(7) 0.387(5) 0.4943(13)
O10_6 O 0.6539(5) 0.6920(4) 0.3953(3)
H3_6 H 0.710(6) 0.720(8) 0.383(4)
O11_6 O 0.7961(5) 0.5538(5) 0.4194(2)
N1_8 N 0.1380(7) 0.6368(5) 0.2725(2)
N2_6 N 0.9808(10) 0.5361(10) 0.4200(7)
C1_8 C 0.4069(5) 0.6528(5) 0.4114(2)
C2_8 C 0.3111(5) 0.7176(4) 0.4003(2)
C3_8 C 0.2623(6) 0.7733(5) 0.4341(2)
H4_8 H 0.2857 0.7683 0.4651
C4_8 C 0.1782(6) 0.8372(5) 0.4222(2)
C5_8 C 0.1459(6) 0.8464(5) 0.3758(2)
H5_8 H 0.0908 0.8899 0.3677
C6_8 C 0.1951(6) 0.7911(4) 0.3411(2)
C7_8 C 0.2762(5) 0.7267(5) 0.3538(2)
H6_8 H 0.3084 0.6886 0.3309
C8_8 C 0.1231(6) 0.8968(5) 0.4600(2)
C9_8 C 0.1675(6) 0.8073(5) 0.2908(2)
C10_8 C 0.1650(6) 0.8992(5) 0.2731(2)
H7_8 H 0.1707 0.9496 0.2938
C11_8 C 0.1543(6) 0.9175(5) 0.2257(2)
H8_8 H 0.1514 0.9795 0.2152
C12_8 C 0.1480(6) 0.8445(5) 0.1935(2)
C13_8 C 0.1469(6) 0.7524(5) 0.2097(2)
H9_8 H 0.1419 0.7023 0.1889
C14_8 C 0.1534(6) 0.7361(5) 0.2573(2)
C15_8 C 0.1432(6) 0.8663(5) 0.1420(2)
C16_6 C 0.8777(16) 0.5148(16) 0.4146(8)
H11_6 H 0.9743 0.6499 0.4560
H12_6 H 0.9859 0.6659 0.4019
H16_6 H 0.598531 0.695966 0.36941
H17_8 H 0.865754 0.442642 0.402654
C17_3 C 0.0099(16) 0.3720(14) 0.9278(6)
H10_3 H 0.0898 0.3674 0.9312
C18_5 C 0.0723(15) 0.5324(13) 0.9139(8)
H13_5 H 0.1429 0.5021 0.9196
H14_5 H 0.0708 0.5565 0.8825
H15_5 H 0.0627 0.5834 0.9356
O3_3 O 0.1633(4) 0.1108(4) 0.00059(16)
Ho2_2 Ho 0.10016(2) 0.04696(2) 0.06912(2)
O10_7 O 0.1539(5) 0.1920(4) 0.1047(3)
H3_7 H 0.210(6) 0.220(8) 0.117(4)
O11_7 O 0.2961(5) 0.0538(5) 0.0806(2)
N2_7 N 0.4808(10) 0.0361(10) 0.0800(7)
C16_7 C 0.3777(16) 0.0148(16) 0.0854(8)
C17_4 C 0.5099(16) 0.1280(14) 0.0722(6)
H10_4 H 0.5898 0.1326 0.0688
H11_7 H 0.4743 0.1499 0.0440
H12_7 H 0.4859 0.1659 0.0981
H16_7 H 0.0985313 0.195966 0.13059
Ho4_2 Ho 0.89984(2) 0.95304(2) 0.93088(2)
O3_4 O 0.8367(4) 0.8892(4) 0.99941(16)
O10_8 O 0.8461(5) 0.8080(4) 0.8953(3)
H3_8 H 0.790(6) 0.780(8) 0.883(4)
O11_8 O 0.7039(5) 0.9462(5) 0.9194(2)
N2_8 N 0.5192(10) 0.9639(10) 0.9200(7)
C16_8 C 0.6223(16) 0.9852(16) 0.9146(8)
C17_5 C 0.4901(16) 0.8720(14) 0.9278(6)
H10_5 H 0.4102 0.8674 0.9312
H11_8 H 0.5257 0.8501 0.9560
H12_8 H 0.5141 0.8341 0.9019
H16_8 H 0.901469 0.804034 0.86941
C17_6 C 0.9901(16) 0.3720(14) 0.5722(6)
H10_6 H 0.9102 0.3674 0.5688
C18_6 C 0.9277(15) 0.5324(13) 0.5861(8)
H13_6 H 0.8571 0.5021 0.5804
H14_6 H 0.9292 0.5565 0.6175
H15_6 H 0.9373 0.5834 0.5644
C17_7 C 0.9901(16) 0.6280(14) 0.0722(6)
H10_7 H 0.9102 0.6326 0.0688
C18_7 C 0.9277(15) 0.4676(13) 0.0861(8)
H13_7 H 0.8571 0.4979 0.0804
H14_7 H 0.9292 0.4435 0.1175
H15_7 H 0.9373 0.4166 0.0644
C17_8 C 0.0099(16) 0.6280(14) 0.4278(6)
H10_8 H 0.0898 0.6326 0.4312
C18_8 C 0.0723(15) 0.4676(13) 0.4139(8)
H13_8 H 0.1429 0.4979 0.4196
H14_8 H 0.0708 0.4435 0.3825
H15_8 H 0.0627 0.4166 0.4356
loop_
_geom_bond_atom_site_label_1
_geom_bond_atom_site_label_2
_geom_bond_site_symmetry_1
_geom_bond_site_symmetry_2
O1 C1 1_555 1_555
O3 C8 1_555 1_555
O4 C8 1_555 1_555
O5 C15 1_555 1_555
O6 C15 1_555 1_555
O7 N1 1_555 1_555
O8 N1 1_555 1_555
N1 C14 1_555 1_555
C1 O2 1_555 1_555
C2 C1 1_555 1_555
C3 C2 1_555 1_555
H4 C3 1_555 1_555
C4 C3 1_555 1_555
C5 C4 1_555 1_555
H5 C5 1_555 1_555
C6 C5 1_555 1_555
C7 C2 1_555 1_555
H6 C7 1_555 1_555
C8 C4 1_555 1_555
C9 C6 1_555 1_555
C10 C9 1_555 1_555
H7 C10 1_555 1_555
C11 C10 1_555 1_555
H8 C11 1_555 1_555
C12 C11 1_555 1_555
C13 C12 1_555 1_555
H9 C13 1_555 1_555
C14 C9 1_555 1_555
C15 C12 1_555 1_555
Ho2 O3 1_555 1_555
Ho3 O6 1_555 1_555
Ho4 O4 1_555 1_555
C6 C7 1_555 1_555
C13 C14 1_555 1_555
O10 Ho1 1_555 1_555
H3 O10 1_555 1_555
O11 Ho1 1_555 1_555
N2 C16 1_555 1_555
C16 O11 1_555 1_555
C17 N2 1_555 1_555
H10 C17 1_555 1_555
H11 C17 1_555 1_555
H12 C17 1_555 1_555
O12 Ho1 1_555 1_555
O10 H16 1_555 1_555
H1 O9 1_555 1_555
H2 O9 1_555 1_555
H13 C18 1_555 1_555
H14 C18 1_555 1_555
H15 C18 1_555 1_555
Ho1_2 O1_2 1_555 1_555
O1_2 C1_2 1_555 1_555
O2_2 Ho1_2 1_555 1_555
O4_2 C8_2 1_555 1_555
O5_2 C15_2 1_555 1_555
O6_2 C15_2 1_555 1_555
O7_2 N1_2 1_555 1_555
O8_2 N1_2 1_555 1_555
O9_2 Ho1_2 1_555 1_555
H1_2 O9_2 1_555 1_555
H2_2 O9_2 1_555 1_555
O10_2 Ho1_2 1_555 1_555
H3_2 O10_2 1_555 1_555
O11_2 Ho1_2 1_555 1_555
N1_2 C14_2 1_555 1_555
N2_2 C16_2 1_555 1_555
C1_2 O2_2 1_555 1_555
C2_2 C1_2 1_555 1_555
C3_2 C2_2 1_555 1_555
H4_2 C3_2 1_555 1_555
C4_2 C3_2 1_555 1_555
C5_2 C4_2 1_555 1_555
H5_2 C5_2 1_555 1_555
C6_2 C5_2 1_555 1_555
C7_2 C2_2 1_555 1_555
H6_2 C7_2 1_555 1_555
C8_2 C4_2 1_555 1_555
C9_2 C6_2 1_555 1_555
C10_2 C9_2 1_555 1_555
H7_2 C10_2 1_555 1_555
C11_2 C10_2 1_555 1_555
H8_2 C11_2 1_555 1_555
C12_2 C11_2 1_555 1_555
C13_2 C12_2 1_555 1_555
H9_2 C13_2 1_555 1_555
C14_2 C9_2 1_555 1_555
C15_2 C12_2 1_555 1_555
C16_2 O11_2 1_555 1_555
O12_2 Ho1_2 1_555 1_555
O13_2 Ho1_2 1_555 1_555
O14_2 Ho1_2 1_555 1_555
C6_2 C7_2 1_555 1_555
C13_2 C14_2 1_555 1_555
O10_2 H16_2 1_555 1_555
C16_2 H17_2 1_555 1_555
H1_3 O9_3 1_555 1_555
H2_3 O9_3 1_555 1_555
H13_2 C18_2 1_555 1_555
H14_2 C18_2 1_555 1_555
H15_2 C18_2 1_555 1_555
O1_3 C1_3 1_555 1_555
O4_3 C8_3 1_555 1_555
O5_3 C15_3 1_555 1_555
O6_3 C15_3 1_555 1_555
O7_3 N1_3 1_555 1_555
O8_3 N1_3 1_555 1_555
N1_3 C14_3 1_555 1_555
C1_3 O2_3 1_555 1_555
C2_3 C1_3 1_555 1_555
C3_3 C2_3 1_555 1_555
H4_3 C3_3 1_555 1_555
C4_3 C3_3 1_555 1_555
C5_3 C4_3 1_555 1_555
H5_3 C5_3 1_555 1_555
C6_3 C5_3 1_555 1_555
C7_3 C2_3 1_555 1_555
H6_3 C7_3 1_555 1_555
C8_3 C4_3 1_555 1_555
C9_3 C6_3 1_555 1_555
C10_3 C9_3 1_555 1_555
H7_3 C10_3 1_555 1_555
C11_3 C10_3 1_555 1_555
H8_3 C11_3 1_555 1_555
C12_3 C11_3 1_555 1_555
C13_3 C12_3 1_555 1_555
H9_3 C13_3 1_555 1_555
C14_3 C9_3 1_555 1_555
C15_3 C12_3 1_555 1_555
Ho4 O6_3 1_555 1_555
Ho3 O4_3 1_555 1_555
C6_3 C7_3 1_555 1_555
C13_3 C14_3 1_555 1_555
Ho2 O1_4 1_555 1_555
O1_4 C1_4 1_555 1_555
O2_4 Ho2 1_555 1_555
O12 C8_4 1_555 1_555
O4_4 C8_4 1_555 1_555
O5_4 C15_4 1_555 1_555
O6_4 C15_4 1_555 1_555
O7_4 N1_4 1_555 1_555
O8_4 N1_4 1_555 1_555
O9_4 Ho2 1_555 1_555
H1_4 O9_4 1_555 1_555
H2_4 O9_4 1_555 1_555
O10_3 Ho2 1_555 1_555
H3_3 O10_3 1_555 1_555
O11_3 Ho2 1_555 1_555
N1_4 C14_4 1_555 1_555
N2_3 C16_3 1_555 1_555
C1_4 O2_4 1_555 1_555
C2_4 C1_4 1_555 1_555
C3_4 C2_4 1_555 1_555
H4_4 C3_4 1_555 1_555
C4_4 C3_4 1_555 1_555
C5_4 C4_4 1_555 1_555
H5_4 C5_4 1_555 1_555
C6_4 C5_4 1_555 1_555
C7_4 C2_4 1_555 1_555
H6_4 C7_4 1_555 1_555
C8_4 C4_4 1_555 1_555
C9_4 C6_4 1_555 1_555
C10_4 C9_4 1_555 1_555
H7_4 C10_4 1_555 1_555
C11_4 C10_4 1_555 1_555
H8_4 C11_4 1_555 1_555
C12_4 C11_4 1_555 1_555
C13_4 C12_4 1_555 1_555
H9_4 C13_4 1_555 1_555
C14_4 C9_4 1_555 1_555
C15_4 C12_4 1_555 1_555
C16_3 O11_3 1_555 1_555
O13_4 Ho2 1_555 1_555
O14_4 Ho2 1_555 1_555
C6_4 C7_4 1_555 1_555
C13_4 C14_4 1_555 1_555
O10_3 H16_3 1_555 1_555
C16_3 H17_4 1_555 1_555
H1_5 O9_5 1_555 1_555
H2_5 O9_5 1_555 1_555
H13_3 C18_3 1_555 1_555
H14_3 C18_3 1_555 1_555
H15_3 C18_3 1_555 1_555
O10_4 Ho3_2 1_555 1_555
H3_4 O10_4 1_555 1_555
O11_4 Ho3_2 1_555 1_555
N2_4 C16_4 1_555 1_555
C16_4 O11_4 1_555 1_555
C17_2 N2_4 1_555 1_555
H10_2 C17_2 1_555 1_555
H11_4 C17_2 1_555 1_555
H12_4 C17_2 1_555 1_555
O12_3 Ho3_2 1_555 1_555
O10_4 H16_4 1_555 1_555
O1_5 C1_5 1_555 1_555
O3_2 C8_5 1_555 1_555
O13_4 C8_5 1_555 1_555
O5_5 C15_5 1_555 1_555
O14_2 C15_5 1_555 1_555
O7_5 N1_5 1_555 1_555
O8_5 N1_5 1_555 1_555
N1_5 C14_5 1_555 1_555
C1_5 O2_5 1_555 1_555
C2_5 C1_5 1_555 1_555
C3_5 C2_5 1_555 1_555
H4_5 C3_5 1_555 1_555
C4_5 C3_5 1_555 1_555
C5_5 C4_5 1_555 1_555
H5_5 C5_5 1_555 1_555
C6_5 C5_5 1_555 1_555
C7_5 C2_5 1_555 1_555
H6_5 C7_5 1_555 1_555
C8_5 C4_5 1_555 1_555
C9_5 C6_5 1_555 1_555
C10_5 C9_5 1_555 1_555
H7_5 C10_5 1_555 1_555
C11_5 C10_5 1_555 1_555
H8_5 C11_5 1_555 1_555
C12_5 C11_5 1_555 1_555
C13_5 C12_5 1_555 1_555
H9_5 C13_5 1_555 1_555
C14_5 C9_5 1_555 1_555
C15_5 C12_5 1_555 1_555
Ho4 O3_2 1_555 1_555
C6_5 C7_5 1_555 1_555
C13_5 C14_5 1_555 1_555
Ho3 O1_6 1_555 1_555
O1_6 C1_6 1_555 1_555
O2_6 Ho3 1_555 1_555
O13_3 C8_6 1_555 1_555
O5_6 C15_6 1_555 1_555
O14 C15_6 1_555 1_555
O7_6 N1_6 1_555 1_555
O8_6 N1_6 1_555 1_555
O9_6 Ho3 1_555 1_555
H1_6 O9_6 1_555 1_555
H2_6 O9_6 1_555 1_555
O10_5 Ho3 1_555 1_555
H3_5 O10_5 1_555 1_555
O11_5 Ho3 1_555 1_555
N1_6 C14_6 1_555 1_555
N2_5 C16_5 1_555 1_555
C1_6 O2_6 1_555 1_555
C2_6 C1_6 1_555 1_555
C3_6 C2_6 1_555 1_555
H4_6 C3_6 1_555 1_555
C4_6 C3_6 1_555 1_555
C5_6 C4_6 1_555 1_555
H5_6 C5_6 1_555 1_555
C6_6 C5_6 1_555 1_555
C7_6 C2_6 1_555 1_555
H6_6 C7_6 1_555 1_555
C8_6 C4_6 1_555 1_555
C9_6 C6_6 1_555 1_555
C10_6 C9_6 1_555 1_555
H7_6 C10_6 1_555 1_555
C11_6 C10_6 1_555 1_555
H8_6 C11_6 1_555 1_555
C12_6 C11_6 1_555 1_555
C13_6 C12_6 1_555 1_555
H9_6 C13_6 1_555 1_555
C14_6 C9_6 1_555 1_555
C15_6 C12_6 1_555 1_555
C16_5 O11_5 1_555 1_555
O12_4 Ho3 1_555 1_555
C6_6 C7_6 1_555 1_555
C13_6 C14_6 1_555 1_555
O10_5 H16_5 1_555 1_555
C16_5 H17_6 1_555 1_555
O1_7 C1_7 1_555 1_555
O13_2 C8_7 1_555 1_555
O5_7 C15_7 1_555 1_555
O14_4 C15_7 1_555 1_555
O7_7 N1_7 1_555 1_555
O8_7 N1_7 1_555 1_555
N1_7 C14_7 1_555 1_555
C1_7 O2_7 1_555 1_555
C2_7 C1_7 1_555 1_555
C3_7 C2_7 1_555 1_555
H4_7 C3_7 1_555 1_555
C4_7 C3_7 1_555 1_555
C5_7 C4_7 1_555 1_555
H5_7 C5_7 1_555 1_555
C6_7 C5_7 1_555 1_555
C7_7 C2_7 1_555 1_555
H6_7 C7_7 1_555 1_555
C8_7 C4_7 1_555 1_555
C9_7 C6_7 1_555 1_555
C10_7 C9_7 1_555 1_555
H7_7 C10_7 1_555 1_555
C11_7 C10_7 1_555 1_555
H8_7 C11_7 1_555 1_555
C12_7 C11_7 1_555 1_555
C13_7 C12_7 1_555 1_555
H9_7 C13_7 1_555 1_555
C14_7 C9_7 1_555 1_555
C15_7 C12_7 1_555 1_555
C6_7 C7_7 1_555 1_555
C13_7 C14_7 1_555 1_555
H1_7 O9_7 1_555 1_555
H2_7 O9_7 1_555 1_555
H13_4 C18_4 1_555 1_555
H14_4 C18_4 1_555 1_555
H15_4 C18_4 1_555 1_555
Ho4 O1_8 1_555 1_555
O1_8 C1_8 1_555 1_555
O2_8 Ho4 1_555 1_555
O12_3 C8_8 1_555 1_555
O13 C8_8 1_555 1_555
O5_8 C15_8 1_555 1_555
O14_3 C15_8 1_555 1_555
O7_8 N1_8 1_555 1_555
O8_8 N1_8 1_555 1_555
O9_8 Ho4 1_555 1_555
H1_8 O9_8 1_555 1_555
H2_8 O9_8 1_555 1_555
O10_6 Ho4 1_555 1_555
H3_6 O10_6 1_555 1_555
O11_6 Ho4 1_555 1_555
N1_8 C14_8 1_555 1_555
N2_6 C16_6 1_555 1_555
C1_8 O2_8 1_555 1_555
C2_8 C1_8 1_555 1_555
C3_8 C2_8 1_555 1_555
H4_8 C3_8 1_555 1_555
C4_8 C3_8 1_555 1_555
C5_8 C4_8 1_555 1_555
H5_8 C5_8 1_555 1_555
C6_8 C5_8 1_555 1_555
C7_8 C2_8 1_555 1_555
H6_8 C7_8 1_555 1_555
C8_8 C4_8 1_555 1_555
C9_8 C6_8 1_555 1_555
C10_8 C9_8 1_555 1_555
H7_8 C10_8 1_555 1_555
C11_8 C10_8 1_555 1_555
H8_8 C11_8 1_555 1_555
C12_8 C11_8 1_555 1_555
C13_8 C12_8 1_555 1_555
H9_8 C13_8 1_555 1_555
C14_8 C9_8 1_555 1_555
C15_8 C12_8 1_555 1_555
C16_6 O11_6 1_555 1_555
C6_8 C7_8 1_555 1_555
C13_8 C14_8 1_555 1_555
O10_6 H16_6 1_555 1_555
C16_6 H17_8 1_555 1_555
H10_3 C17_3 1_555 1_555
H13_5 C18_5 1_555 1_555
H14_5 C18_5 1_555 1_555
H15_5 C18_5 1_555 1_555
Ho2_2 O3_3 1_555 1_555
O10_7 Ho2_2 1_555 1_555
H3_7 O10_7 1_555 1_555
O11_7 Ho2_2 1_555 1_555
N2_7 C16_7 1_555 1_555
C16_7 O11_7 1_555 1_555
C17_4 N2_7 1_555 1_555
H10_4 C17_4 1_555 1_555
H11_7 C17_4 1_555 1_555
H12_7 C17_4 1_555 1_555
O10_7 H16_7 1_555 1_555
Ho4_2 O3_4 1_555 1_555
O10_8 Ho4_2 1_555 1_555
H3_8 O10_8 1_555 1_555
O11_8 Ho4_2 1_555 1_555
N2_8 C16_8 1_555 1_555
C16_8 O11_8 1_555 1_555
C17_5 N2_8 1_555 1_555
H10_5 C17_5 1_555 1_555
H11_8 C17_5 1_555 1_555
H12_8 C17_5 1_555 1_555
O10_8 H16_8 1_555 1_555
H10_6 C17_6 1_555 1_555
H13_6 C18_6 1_555 1_555
H14_6 C18_6 1_555 1_555
H15_6 C18_6 1_555 1_555
H10_7 C17_7 1_555 1_555
H13_7 C18_7 1_555 1_555
H14_7 C18_7 1_555 1_555
H15_7 C18_7 1_555 1_555
H10_8 C17_8 1_555 1_555
H13_8 C18_8 1_555 1_555
H14_8 C18_8 1_555 1_555
H15_8 C18_8 1_555 1_555

#END
