
###############################################################################
#
# This file contains modified crystal structure data generated from the
# MOF subset of the Cambridge Structural Database (CSD) v543 
# hosted by the Cambridge Crystallographic Data Centre (CCDC).
#
# This work is licensed under the Creative Commons
# Attribution-NonCommercial-ShareAlike 4.0 International License.
# To view a copy of this license, visit
# http://creativecommons.org/licenses/by-nc-sa/4.0/
# or send a letter to
# Creative Commons, PO Box 1866, Mountain View, CA 94042, USA.
#
# CIF created using the CSD Python API on 29 September 2022
# The structure has been converted into the P1 space group
# The structure has a 3D framework
# The original CSD entry ZIQWUU is in the monoclinic crystal system
# The framework has been calculated to contain at least 10.0% void space
# The void calculation uses a probe of radius 1.32A, grid spacing 0.4
#
###############################################################################

data_ZIQWUU
_chemical_formula_moiety         '(C248 H184 N40 O143 Sr15)n'
_symmetry_cell_setting           triclinic
_symmetry_space_group_name_H-M   'P 1'
_symmetry_Int_Tables_number      1
_space_group_name_Hall           'P 1'
loop_
_symmetry_equiv_pos_site_id
_symmetry_equiv_pos_as_xyz
1 x,y,z
_cell_length_a                   51.8936(9)
_cell_length_b                   16.2576(3)
_cell_length_c                   13.9135(10)
_cell_angle_alpha                90
_cell_angle_beta                 104.182(7)
_cell_angle_gamma                90
_cell_volume                     11380.6
loop_
_atom_site_label
_atom_site_type_symbol
_atom_site_fract_x
_atom_site_fract_y
_atom_site_fract_z
O8 O 0.0963(3) 0.4571(9) 0.0011(10)
Sr9 Sr 0.09605(4) 0.48312(12) 0.17933(13)
O6 O 0.0223(6) 0.0753(17) 0.677(3)
O7 O 0.0273(7) 0.2069(17) 0.669(3)
O9 O 0.0860(3) 0.5086(9) 0.8488(10)
N2 N 0.0158(4) 0.1478(18) 0.6912(13)
C8 C 0.0818(4) 0.4619(13) 0.9114(16)
C9 C 0.0586(4) 0.4023(14) 0.8838(16)
C10 C 0.0584(4) 0.3292(14) 0.9394(17)
H4 H 0.0724 0.3181 0.9941
C11 C 0.0377(4) 0.2752(15) 0.9127(17)
H5 H 0.0375 0.2291 0.9520
C12 C 0.0171(4) 0.2865(13) 0.8291(14)
C13 C 0.0168(4) 0.3632(13) 0.7826(15)
C14 C 0.0377(4) 0.4168(14) 0.8066(16)
H6 H 0.0374 0.4642 0.7689
C62 C 0.0299(7) 0.001(2) 0.965(4)
H37 H 0.0336 0.0571 0.9494
Sr8 Sr 0.09605(4) 0.51688(12) 0.67933(13)
Sr12 Sr 0.13279(4) 0.56271(13) 0.97053(14)
Sr7 Sr 0.59605(4) 0.01688(12) 0.67933(13)
O25 O 0.8695(3) 0.0173(12) 0.0201(12)
O35 O 0.9656(3) 0.0183(12) 0.0069(15)
H19 H 0.8224 0.0633 0.0294
C60 C 0.9883(6) 0.0340(19) 0.001(2)
H32 H 0.9966 0.0800 0.0344
N10 N 0.7745(5) 0.0852(13) 0.015(2)
O38 O 0.7846(6) 0.081(2) 0.105(2)
Sr6 Sr 0.88071(4) 0.06377(12) 0.20260(14)
Sr4 Sr 0.91703(4) 0.00618(11) 0.97879(13)
O1 O 0.5852(8) 0.633(2) 0.904(3)
O2 O 0.9167(3) 0.0399(9) 0.8023(10)
O3 O 0.6532(8) 0.549(2) 0.850(3)
O4 O 0.9266(3) 0.0020(9) 0.6630(11)
O5 O 0.9883(7) 0.4616(17) 0.690(2)
O10 O 0.6037(5) 0.1693(12) 0.7014(17)
O11 O 0.5813(8) 0.517(2) 0.845(3)
O12 O 0.6238(6) 0.1887(10) 0.8603(16)
O13 O 0.9855(7) 0.3344(17) 0.642(3)
O14 O 0.6559(7) 0.4575(19) 0.963(2)
O15 O 0.5920(5) 0.8669(13) 0.697(2)
O16 O 0.6070(4) 0.8494(12) 0.5602(15)
O23 O 0.6429(4) 0.0152(14) 0.8077(14)
O30 O 0.5475(3) 0.0340(12) 0.6116(14)
O32 O 0.6544(7) 0.090(3) 0.4949(19)
O33 O 0.8556(9) 0.075(2) 0.689(2)
N1 N 0.5854(6) 0.590(2) 0.833(2)
N3 N 0.9941(5) 0.3885(18) 0.703(2)
N4 N 0.6446(6) 0.4864(18) 0.883(2)
C1 C 0.9726(4) 0.1069(14) 0.7080(16)
H1 H 0.9713 0.0714 0.6546
C2 C 0.9310(4) 0.0454(13) 0.7434(16)
C3 C 0.9537(4) 0.1074(12) 0.7648(14)
C4 C 0.9542(4) 0.1700(14) 0.8306(16)
H2 H 0.9401 0.1763 0.8600
C5 C 0.9762(4) 0.2259(14) 0.8554(17)
H3 H 0.9773 0.2633 0.9070
C6 C 0.9957(4) 0.2245(13) 0.8026(15)
C7 C 0.9938(5) 0.1631(18) 0.736(2)
C15 C 0.6140(5) 0.2073(16) 0.775(2)
C16 C 0.6145(6) 0.3038(17) 0.750(2)
C17 C 0.6007(5) 0.3394(16) 0.6648(19)
H7 H 0.5919 0.3054 0.6134
C18 C 0.5990(5) 0.4195(16) 0.651(2)
H8 H 0.5882 0.4399 0.5920
C19 C 0.6127(5) 0.4731(15) 0.7201(18)
C20 C 0.6279(5) 0.4360(16) 0.8053(18)
C21 C 0.6288(5) 0.3538(17) 0.822(2)
H9 H 0.6388 0.3321 0.8812
C22 C 0.6086(5) 0.5616(14) 0.7010(18)
C23 C 0.6187(6) 0.594(2) 0.627(2)
H10 H 0.6285 0.5603 0.5954
C24 C 0.6142(5) 0.6830(17) 0.597(2)
H11 H 0.6192 0.7033 0.5416
C25 C 0.6023(5) 0.7337(16) 0.6547(18)
C26 C 0.5941(5) 0.6989(16) 0.7350(18)
H12 H 0.5864 0.7328 0.7739
C27 C 0.5970(4) 0.6195(13) 0.7571(15)
C40 C 0.7283(4) 0.0111(14) 0.7415(15)
H17 H 0.7386 0.0270 0.6985
C41 C 0.7008(4) 0.0124(13) 0.7099(12)
H18 H 0.6926 0.0290 0.6457
C44 C 0.7854(4) 0.0395(15) 0.9461(17)
C45 C 0.8130(4) 0.0364(14) 0.9726(14)
C56 C 0.5999(5) 0.8242(15) 0.6311(19)
H26 H 0.4849 0.0369 0.4201
C59 C 0.5254(5) 0.0311(16) 0.5529(18)
H31 H 0.5151 0.0785 0.5484
O36 O 0.7547(6) 0.128(2) 0.980(2)
H39 H 0.6618 0.1073 0.5465
H40 H 0.6562 0.1156 0.4442
H43 H 0.8541 0.1059 0.7361
H44 H 0.8484 0.1000 0.6335
Sr10 Sr 0.63279(4) 0.93729(13) 0.47053(14)
Sr11 Sr 0.63279(4) 0.06271(13) 0.97053(14)
O40 O 0.5963(3) 0.0429(9) 0.5011(10)
O41 O 0.5860(3) 0.0086(9) 0.8488(10)
O46 O 0.9108(3) 0.1564(10) 0.9821(13)
O18 O 0.9240(5) 0.8515(11) 0.0048(17)
O24 O 0.7208(6) 0.8782(18) 0.034(2)
O27 O 0.8919(4) 0.1845(10) 0.1098(13)
C30 C 0.9248(5) 0.6834(14) 0.0061(17)
H13 H 0.9370 0.7118 0.0549
C31 C 0.9233(5) 0.5994(16) 0.018(2)
H14 H 0.9347 0.5722 0.0701
C49 C 0.9005(5) 0.2050(17) 0.0370(19)
C50 C 0.9010(4) 0.2977(11) 0.0059(15)
C51 C 0.8904(5) 0.3507(16) 0.0628(19)
H22 H 0.8823 0.3326 0.1117
C52 C 0.8929(6) 0.4400(19) 0.040(2)
H23 H 0.8879 0.4793 0.0806
O37 O 0.7591(6) 0.9290(18) 0.036(3)
O39 O 0.9266(3) 0.9980(9) 0.1630(11)
Sr1 Sr 0.88071(4) 0.93623(12) 0.70260(14)
O19 O 0.9067(4) 0.8526(11) 0.8434(15)
O20 O 0.8598(7) 0.4891(18) 0.804(3)
O21 O 0.8550(6) 0.5999(19) 0.718(2)
O22 O 0.6447(4) 0.9872(14) 0.6553(13)
O26 O 0.8685(3) 0.9756(18) 0.8745(15)
O28 O 0.9248(7) 0.4962(17) 0.801(3)
O29 O 0.9332(7) 0.3694(18) 0.782(2)
O31 O 0.6762(5) 0.868(3) 0.525(2)
O34 O 0.8406(7) 0.851(4) 0.683(2)
N5 N 0.8668(5) 0.5610(17) 0.792(2)
N6 N 0.7351(5) 0.9207(12) 0.9949(16)
N7 N 0.9238(7) 0.4241(18) 0.825(2)
N8 N 0.5153(4) 0.9732(17) 0.4991(16)
C28 C 0.9145(5) 0.8185(16) 0.927(2)
C29 C 0.9105(5) 0.7275(16) 0.9318(18)
C32 C 0.9035(5) 0.5560(15) 0.9463(18)
C33 C 0.8872(4) 0.6011(14) 0.8691(15)
C34 C 0.8923(5) 0.6855(16) 0.8634(19)
H15 H 0.8824 0.7145 0.8090
C35 C 0.6556(5) 0.9968(15) 0.743(2)
C36 C 0.6854(3) 0.9887(13) 0.7742(15)
C37 C 0.6976(4) 0.9639(14) 0.8701(14)
H16 H 0.6873 0.9481 0.9132
C38 C 0.7252(4) 0.9627(15) 0.9018(13)
C39 C 0.7405(3) 0.9863(14) 0.8375(16)
C42 C 0.8572(5) 0.9961(15) 0.9387(19)
C43 C 0.7713(3) 0.9992(15) 0.8612(18)
C46 C 0.8266(3) 0.9931(12) 0.9143(15)
C47 C 0.8125(4) 0.9528(14) 0.8294(15)
H20 H 0.8216 0.9238 0.7903
C48 C 0.7849(4) 0.9559(16) 0.8028(15)
H21 H 0.7755 0.9290 0.7460
C53 C 0.9021(5) 0.4648(15) 0.9634(18)
C54 C 0.9113(4) 0.4036(15) 0.9062(16)
C55 C 0.9109(5) 0.3196(14) 0.9325(17)
H24 H 0.9177 0.2800 0.8972
C57 C 0.4885(7) 0.980(3) 0.438(3)
H25 H 0.4867 0.9476 0.3796
H27 H 0.4762 0.9613 0.4749
C58 C 0.5303(7) 0.894(2) 0.497(3)
H28 H 0.5193 0.8486 0.5055
H29 H 0.5461 0.8945 0.5501
H30 H 0.5350 0.8893 0.4349
C61 C 0.9873(8) 0.924(3) 0.890(4)
H33 H 0.9990 0.8967 0.8563
H34 H 0.9810 0.8859 0.9312
H35 H 0.9725 0.9467 0.8416
H41 H 0.6843 0.8526 0.5826
H42 H 0.6842 0.8401 0.4838
H45 H 0.8463 0.7954 0.6973
H46 H 0.8325 0.8447 0.6202
Sr14 Sr 0.91703(4) 0.99382(11) 0.47879(13)
O42 O 0.5860(3) 0.9914(9) 0.3488(10)
O43 O 0.6238(6) 0.8113(10) 0.3603(16)
O47 O 0.6429(4) 0.9848(14) 0.3077(14)
O48 O 0.8695(3) 0.9827(12) 0.5201(12)
O49 O 0.8919(4) 0.8155(10) 0.6098(13)
O6_2 O 0.0223(6) 0.9247(17) 0.177(3)
O7_2 O 0.0273(7) 0.7931(17) 0.169(3)
O8_2 O 0.0963(3) 0.5429(9) 0.5011(10)
O9_2 O 0.0860(3) 0.4914(9) 0.3488(10)
N2_2 N 0.0158(4) 0.8522(18) 0.1912(13)
C8_2 C 0.0818(4) 0.5381(13) 0.4114(16)
C9_2 C 0.0586(4) 0.5977(14) 0.3838(16)
C10_2 C 0.0584(4) 0.6708(14) 0.4394(17)
H4_2 H 0.0724 0.6819 0.4941
C11_2 C 0.0377(4) 0.7248(15) 0.4127(17)
H5_2 H 0.0375 0.7709 0.4520
C12_2 C 0.0171(4) 0.7135(13) 0.3291(14)
C13_2 C 0.0168(4) 0.6368(13) 0.2826(15)
C14_2 C 0.0377(4) 0.5832(14) 0.3066(16)
H6_2 H 0.0374 0.5358 0.2689
C62_2 C 0.0299(7) 0.999(2) 0.465(4)
H37_2 H 0.0336 0.9429 0.4494
Sr12_2 Sr 0.13279(4) 0.43729(13) 0.47053(14)
O17 O 0.9108(3) 0.8436(10) 0.4821(13)
O18_2 O 0.9240(5) 0.1485(11) 0.5048(17)
O19_2 O 0.9067(4) 0.1474(11) 0.3434(15)
O20_2 O 0.8598(7) 0.5109(18) 0.304(3)
O21_2 O 0.8550(6) 0.4001(19) 0.218(2)
O22_2 O 0.6447(4) 0.0128(14) 0.1553(13)
O24_2 O 0.7208(6) 0.1218(18) 0.534(2)
O26_2 O 0.8685(3) 0.0244(18) 0.3745(15)
O28_2 O 0.9248(7) 0.5038(17) 0.301(3)
O29_2 O 0.9332(7) 0.6306(18) 0.282(2)
O31_2 O 0.6762(5) 0.132(3) 0.025(2)
O34_2 O 0.8406(7) 0.149(4) 0.183(2)
N5_2 N 0.8668(5) 0.4390(17) 0.292(2)
N6_2 N 0.7351(5) 0.0793(12) 0.4949(16)
N7_2 N 0.9238(7) 0.5759(18) 0.325(2)
C28_2 C 0.9145(5) 0.1815(16) 0.427(2)
C29_2 C 0.9105(5) 0.2725(16) 0.4318(18)
C30_2 C 0.9248(5) 0.3166(14) 0.5061(17)
H13_2 H 0.9370 0.2882 0.5549
C31_2 C 0.9233(5) 0.4006(16) 0.518(2)
H14_2 H 0.9347 0.4278 0.5701
C32_2 C 0.9035(5) 0.4440(15) 0.4463(18)
C33_2 C 0.8872(4) 0.3989(14) 0.3691(15)
C34_2 C 0.8923(5) 0.3145(16) 0.3634(19)
H15_2 H 0.8824 0.2855 0.3090
C35_2 C 0.6556(5) 0.0032(15) 0.243(2)
C36_2 C 0.6854(3) 0.0113(13) 0.2742(15)
C37_2 C 0.6976(4) 0.0361(14) 0.3701(14)
H16_2 H 0.6873 0.0519 0.4132
C38_2 C 0.7252(4) 0.0373(15) 0.4018(13)
C39_2 C 0.7405(3) 0.0137(14) 0.3375(16)
C42_2 C 0.8572(5) 0.0039(15) 0.4387(19)
C43_2 C 0.7713(3) 0.0008(15) 0.3612(18)
C46_2 C 0.8266(3) 0.0069(12) 0.4143(15)
C47_2 C 0.8125(4) 0.0472(14) 0.3294(15)
H20_2 H 0.8216 0.0762 0.2903
C48_2 C 0.7849(4) 0.0441(16) 0.3028(15)
H21_2 H 0.7755 0.0710 0.2460
C49_2 C 0.9005(5) 0.7950(17) 0.5370(19)
C50_2 C 0.9010(4) 0.7023(11) 0.5059(15)
C51_2 C 0.8904(5) 0.6493(16) 0.5628(19)
H22_2 H 0.8823 0.6674 0.6117
C52_2 C 0.8929(6) 0.5600(19) 0.540(2)
H23_2 H 0.8879 0.5207 0.5806
C53_2 C 0.9021(5) 0.5352(15) 0.4634(18)
C54_2 C 0.9113(4) 0.5964(15) 0.4062(16)
C55_2 C 0.9109(5) 0.6804(14) 0.4325(17)
H24_2 H 0.9177 0.7200 0.3972
H28_2 H 0.5193 0.1514 0.0055
H29_2 H 0.5461 0.1055 0.0501
C61_2 C 0.9873(8) 0.076(3) 0.390(4)
H33_2 H 0.9990 0.1033 0.3563
H34_2 H 0.9810 0.1141 0.4312
H35_2 H 0.9725 0.0533 0.3416
O37_2 O 0.7591(6) 0.0710(18) 0.536(3)
H41_2 H 0.6843 0.1474 0.0826
H45_2 H 0.8463 0.2046 0.1973
H46_2 H 0.8325 0.1553 0.1202
O44 O 0.5920(5) 0.1331(13) 0.197(2)
O45 O 0.6070(4) 0.1506(12) 0.0602(15)
N8_2 N 0.5153(4) 0.0268(17) 0.9991(16)
C57_2 C 0.4885(7) 0.020(3) 0.938(3)
H25_2 H 0.4867 0.0524 0.8796
H27_2 H 0.4762 0.0387 0.9749
C58_2 C 0.5303(7) 0.106(2) 0.997(3)
H30_2 H 0.5350 0.1107 0.9349
H42_2 H 0.6842 0.1599 0.9838
Sr2 Sr 0.59605(4) 0.98312(12) 0.17933(13)
O1_2 O 0.5852(8) 0.367(2) 0.404(3)
O2_2 O 0.9167(3) 0.9601(9) 0.3023(10)
O3_2 O 0.6532(8) 0.451(2) 0.350(3)
O5_2 O 0.9883(7) 0.5384(17) 0.190(2)
O10_2 O 0.6037(5) 0.8307(12) 0.2014(17)
O11_2 O 0.5813(8) 0.483(2) 0.345(3)
O13_2 O 0.9855(7) 0.6656(17) 0.142(3)
O14_2 O 0.6559(7) 0.5425(19) 0.463(2)
O30_2 O 0.5475(3) 0.9660(12) 0.1116(14)
O33_2 O 0.8556(9) 0.925(2) 0.189(2)
O35_2 O 0.9656(3) 0.9817(12) 0.5069(15)
N1_2 N 0.5854(6) 0.410(2) 0.333(2)
N3_2 N 0.9941(5) 0.6115(18) 0.203(2)
N4_2 N 0.6446(6) 0.5136(18) 0.383(2)
C1_2 C 0.9726(4) 0.8931(14) 0.2080(16)
H1_2 H 0.9713 0.9286 0.1546
C2_2 C 0.9310(4) 0.9546(13) 0.2434(16)
C3_2 C 0.9537(4) 0.8926(12) 0.2648(14)
C4_2 C 0.9542(4) 0.8300(14) 0.3306(16)
H2_2 H 0.9401 0.8237 0.3600
C5_2 C 0.9762(4) 0.7741(14) 0.3554(17)
H3_2 H 0.9773 0.7367 0.4070
C6_2 C 0.9957(4) 0.7755(13) 0.3026(15)
C7_2 C 0.9938(5) 0.8369(18) 0.236(2)
C15_2 C 0.6140(5) 0.7927(16) 0.275(2)
C16_2 C 0.6145(6) 0.6962(17) 0.250(2)
C17_2 C 0.6007(5) 0.6606(16) 0.1648(19)
H7_2 H 0.5919 0.6946 0.1134
C18_2 C 0.5990(5) 0.5805(16) 0.151(2)
H8_2 H 0.5882 0.5601 0.0920
C19_2 C 0.6127(5) 0.5269(15) 0.2201(18)
C20_2 C 0.6279(5) 0.5640(16) 0.3053(18)
C21_2 C 0.6288(5) 0.6462(17) 0.322(2)
H9_2 H 0.6388 0.6679 0.3812
C22_2 C 0.6086(5) 0.4384(14) 0.2010(18)
C23_2 C 0.6187(6) 0.406(2) 0.127(2)
H10_2 H 0.6285 0.4397 0.0954
C24_2 C 0.6142(5) 0.3170(17) 0.097(2)
H11_2 H 0.6192 0.2967 0.0416
C25_2 C 0.6023(5) 0.2663(16) 0.1547(18)
C26_2 C 0.5941(5) 0.3011(16) 0.2350(18)
H12_2 H 0.5864 0.2672 0.2739
C27_2 C 0.5970(4) 0.3805(13) 0.2571(15)
C40_2 C 0.7283(4) 0.9889(14) 0.2415(15)
H17_2 H 0.7386 0.9730 0.1985
C41_2 C 0.7008(4) 0.9876(13) 0.2099(12)
H18_2 H 0.6926 0.9710 0.1457
C44_2 C 0.7854(4) 0.9605(15) 0.4461(17)
C45_2 C 0.8130(4) 0.9636(14) 0.4726(14)
H19_2 H 0.8224 0.9367 0.5294
C56_2 C 0.5999(5) 0.1758(15) 0.1311(19)
C59_2 C 0.5254(5) 0.9689(16) 0.0529(18)
H31_2 H 0.5151 0.9215 0.0484
C60_2 C 0.9883(6) 0.9660(19) 0.501(2)
H32_2 H 0.9966 0.9200 0.5344
O36_2 O 0.7547(6) 0.872(2) 0.480(2)
N10_2 N 0.7745(5) 0.9148(13) 0.515(2)
O38_2 O 0.7846(6) 0.919(2) 0.605(2)
H39_2 H 0.6618 0.8927 0.0465
H43_2 H 0.8541 0.8941 0.2361
H44_2 H 0.8484 0.9000 0.1335
O40_2 O 0.5963(3) 0.9571(9) 0.0011(10)
O32_2 O 0.6544(7) 0.910(3) 0.9949(19)
H26_2 H 0.4849 0.9631 0.9201
H40_2 H 0.6562 0.8844 0.9442
O1_3 O 0.0852(8) 0.133(2) 0.904(3)
O3_3 O 0.1532(8) 0.049(2) 0.850(3)
O11_3 O 0.0813(8) 0.017(2) 0.845(3)
O15_2 O 0.0920(5) 0.3669(13) 0.697(2)
O16_2 O 0.1070(4) 0.3494(12) 0.5602(15)
N1_3 N 0.0854(6) 0.090(2) 0.833(2)
C22_3 C 0.1086(5) 0.0616(14) 0.7010(18)
C23_3 C 0.1187(6) 0.094(2) 0.627(2)
H10_3 H 0.1285 0.0603 0.5954
C24_3 C 0.1142(5) 0.1830(17) 0.597(2)
H11_3 H 0.1192 0.2033 0.5416
C25_3 C 0.1023(5) 0.2337(16) 0.6547(18)
C26_3 C 0.0941(5) 0.1989(16) 0.7350(18)
H12_3 H 0.0864 0.2328 0.7739
C27_3 C 0.0970(4) 0.1195(13) 0.7571(15)
C56_3 C 0.0999(5) 0.3242(15) 0.6311(19)
O18_3 O 0.4240(5) 0.3515(11) 0.0048(17)
O24_3 O 0.2208(6) 0.3782(18) 0.034(2)
O25_2 O 0.3695(3) 0.5173(12) 0.0201(12)
O35_3 O 0.4656(3) 0.5183(12) 0.0069(15)
C30_3 C 0.4248(5) 0.1834(14) 0.0061(17)
H13_3 H 0.4370 0.2118 0.0549
C31_3 C 0.4233(5) 0.0994(16) 0.018(2)
H14_3 H 0.4347 0.0722 0.0701
H19_3 H 0.3224 0.5633 0.0294
C60_3 C 0.4883(6) 0.5340(19) 0.001(2)
H32_3 H 0.4966 0.5800 0.0344
H38 H 0.5387 0.4897 0.0325
N10_3 N 0.2745(5) 0.5852(13) 0.015(2)
O37_3 O 0.2591(6) 0.4290(18) 0.036(3)
O38_3 O 0.2846(6) 0.581(2) 0.105(2)
Sr6_2 Sr 0.38071(4) 0.56377(12) 0.20260(14)
O39_2 O 0.4266(3) 0.4980(9) 0.1630(11)
Sr1_2 Sr 0.38071(4) 0.43623(12) 0.70260(14)
Sr4_2 Sr 0.41703(4) 0.50618(11) 0.97879(13)
O2_3 O 0.4167(3) 0.5399(9) 0.8023(10)
O4_2 O 0.4266(3) 0.5020(9) 0.6630(11)
O5_3 O 0.4883(7) 0.9616(17) 0.690(2)
O6_3 O 0.5223(6) 0.5753(17) 0.677(3)
O7_3 O 0.5273(7) 0.7069(17) 0.669(3)
O10_3 O 0.1037(5) 0.6693(12) 0.7014(17)
O12_2 O 0.1238(6) 0.6887(10) 0.8603(16)
O13_3 O 0.4855(7) 0.8344(17) 0.642(3)
O14_3 O 0.1559(7) 0.9575(19) 0.963(2)
O19_3 O 0.4067(4) 0.3526(11) 0.8434(15)
O21_3 O 0.3550(6) 0.0999(19) 0.718(2)
O22_3 O 0.1447(4) 0.4872(14) 0.6553(13)
O23_2 O 0.1429(4) 0.5152(14) 0.8077(14)
O26_3 O 0.3685(3) 0.4756(18) 0.8745(15)
O30_3 O 0.0475(3) 0.5340(12) 0.6116(14)
O31_3 O 0.1762(5) 0.368(3) 0.525(2)
O32_3 O 0.1544(7) 0.590(3) 0.4949(19)
O33_3 O 0.3556(9) 0.575(2) 0.689(2)
O34_3 O 0.3406(7) 0.351(4) 0.683(2)
N2_3 N 0.5158(4) 0.6478(18) 0.6912(13)
N3_3 N 0.4941(5) 0.8885(18) 0.703(2)
N4_3 N 0.1446(6) 0.9864(18) 0.883(2)
N5_3 N 0.3668(5) 0.0610(17) 0.792(2)
N6_3 N 0.2351(5) 0.4207(12) 0.9949(16)
N8_3 N 0.0153(4) 0.4732(17) 0.4991(16)
N9 N 0.5016(4) 0.4904(17) 0.950(2)
C1_3 C 0.4726(4) 0.6069(14) 0.7080(16)
H1_3 H 0.4713 0.5714 0.6546
C2_3 C 0.4310(4) 0.5454(13) 0.7434(16)
C3_3 C 0.4537(4) 0.6074(12) 0.7648(14)
C4_3 C 0.4542(4) 0.6700(14) 0.8306(16)
H2_3 H 0.4401 0.6763 0.8600
C5_3 C 0.4762(4) 0.7259(14) 0.8554(17)
H3_3 H 0.4773 0.7633 0.9070
C6_3 C 0.4957(4) 0.7245(13) 0.8026(15)
C7_3 C 0.4938(5) 0.6631(18) 0.736(2)
C8_3 C 0.5818(4) 0.9619(13) 0.9114(16)
C9_3 C 0.5586(4) 0.9023(14) 0.8838(16)
C10_3 C 0.5584(4) 0.8292(14) 0.9394(17)
H4_3 H 0.5724 0.8181 0.9941
C11_3 C 0.5377(4) 0.7752(15) 0.9127(17)
H5_3 H 0.5375 0.7291 0.9520
C12_3 C 0.5171(4) 0.7865(13) 0.8291(14)
C13_3 C 0.5168(4) 0.8632(13) 0.7826(15)
C14_3 C 0.5377(4) 0.9168(14) 0.8066(16)
H6_3 H 0.5374 0.9642 0.7689
C15_3 C 0.1140(5) 0.7073(16) 0.775(2)
C16_3 C 0.1145(6) 0.8038(17) 0.750(2)
C17_3 C 0.1007(5) 0.8394(16) 0.6648(19)
H7_3 H 0.0919 0.8054 0.6134
C18_3 C 0.0990(5) 0.9195(16) 0.651(2)
H8_3 H 0.0882 0.9399 0.5920
C19_3 C 0.1127(5) 0.9731(15) 0.7201(18)
C20_3 C 0.1279(5) 0.9360(16) 0.8053(18)
C21_3 C 0.1288(5) 0.8538(17) 0.822(2)
H9_3 H 0.1388 0.8321 0.8812
C28_3 C 0.4145(5) 0.3185(16) 0.927(2)
C29_3 C 0.4105(5) 0.2275(16) 0.9318(18)
C32_3 C 0.4035(5) 0.0560(15) 0.9463(18)
C33_3 C 0.3872(4) 0.1011(14) 0.8691(15)
C34_3 C 0.3923(5) 0.1855(16) 0.8634(19)
H15_3 H 0.3824 0.2145 0.8090
C35_3 C 0.1556(5) 0.4968(15) 0.743(2)
C36_3 C 0.1854(3) 0.4887(13) 0.7742(15)
C37_3 C 0.1976(4) 0.4639(14) 0.8701(14)
H16_3 H 0.1873 0.4481 0.9132
C38_3 C 0.2252(4) 0.4627(15) 0.9018(13)
C39_3 C 0.2405(3) 0.4863(14) 0.8375(16)
C40_3 C 0.2283(4) 0.5111(14) 0.7415(15)
H17_3 H 0.2386 0.5270 0.6985
C41_3 C 0.2008(4) 0.5124(13) 0.7099(12)
H18_3 H 0.1926 0.5290 0.6457
C42_3 C 0.3572(5) 0.4961(15) 0.9387(19)
C43_3 C 0.2713(3) 0.4992(15) 0.8612(18)
C44_3 C 0.2854(4) 0.5395(15) 0.9461(17)
C45_3 C 0.3130(4) 0.5364(14) 0.9726(14)
C46_3 C 0.3266(3) 0.4931(12) 0.9143(15)
C47_3 C 0.3125(4) 0.4528(14) 0.8294(15)
H20_3 H 0.3216 0.4238 0.7903
C48_3 C 0.2849(4) 0.4559(16) 0.8028(15)
H21_3 H 0.2755 0.4290 0.7460
C58_3 C 0.0303(7) 0.394(2) 0.497(3)
H28_3 H 0.0193 0.3486 0.5055
H29_3 H 0.0461 0.3945 0.5501
H30_3 H 0.0350 0.3893 0.4349
C59_3 C 0.0254(5) 0.5311(16) 0.5529(18)
H31_3 H 0.0151 0.5785 0.5484
C61_3 C 0.4873(8) 0.424(3) 0.890(4)
H33_3 H 0.4990 0.3967 0.8563
H34_3 H 0.4810 0.3859 0.9312
H35_3 H 0.4725 0.4467 0.8416
C62_3 C 0.5299(7) 0.501(2) 0.965(4)
H36 H 0.5364 0.4646 0.9219
H37_3 H 0.5336 0.5571 0.9494
O36_3 O 0.2547(6) 0.628(2) 0.980(2)
H39_3 H 0.1618 0.6073 0.5465
H40_3 H 0.1562 0.6156 0.4442
H41_3 H 0.1843 0.3526 0.5826
H42_3 H 0.1842 0.3401 0.4838
H43_3 H 0.3541 0.6059 0.7361
H44_3 H 0.3484 0.6000 0.6335
H45_3 H 0.3463 0.2954 0.6973
H46_3 H 0.3325 0.3447 0.6202
Sr14_2 Sr 0.41703(4) 0.49382(11) 0.47879(13)
O43_2 O 0.1238(6) 0.3113(10) 0.3603(16)
O46_2 O 0.4108(3) 0.6564(10) 0.9821(13)
O47_2 O 0.1429(4) 0.4848(14) 0.3077(14)
O48_2 O 0.3695(3) 0.4827(12) 0.5201(12)
O49_2 O 0.3919(4) 0.3155(10) 0.6098(13)
O27_2 O 0.3919(4) 0.6845(10) 0.1098(13)
C49_3 C 0.4005(5) 0.7050(17) 0.0370(19)
C50_3 C 0.4010(4) 0.7977(11) 0.0059(15)
C51_3 C 0.3904(5) 0.8507(16) 0.0628(19)
H22_3 H 0.3823 0.8326 0.1117
C52_3 C 0.3929(6) 0.9400(19) 0.040(2)
H23_3 H 0.3879 0.9793 0.0806
O20_3 O 0.3598(7) 0.9891(18) 0.804(3)
O28_3 O 0.4248(7) 0.9962(17) 0.801(3)
O29_3 O 0.4332(7) 0.8694(18) 0.782(2)
N7_3 N 0.4238(7) 0.9241(18) 0.825(2)
C53_3 C 0.4021(5) 0.9648(15) 0.9634(18)
C54_3 C 0.4113(4) 0.9036(15) 0.9062(16)
C55_3 C 0.4109(5) 0.8196(14) 0.9325(17)
H24_3 H 0.4177 0.7800 0.8972
O17_2 O 0.4108(3) 0.3436(10) 0.4821(13)
O20_4 O 0.3598(7) 0.0109(18) 0.304(3)
O28_4 O 0.4248(7) 0.0038(17) 0.301(3)
O29_4 O 0.4332(7) 0.1306(18) 0.282(2)
N7_4 N 0.4238(7) 0.0759(18) 0.325(2)
C49_4 C 0.4005(5) 0.2950(17) 0.5370(19)
C50_4 C 0.4010(4) 0.2023(11) 0.5059(15)
C51_4 C 0.3904(5) 0.1493(16) 0.5628(19)
H22_4 H 0.3823 0.1674 0.6117
C52_4 C 0.3929(6) 0.0600(19) 0.540(2)
H23_4 H 0.3879 0.0207 0.5806
C53_4 C 0.4021(5) 0.0352(15) 0.4634(18)
C54_4 C 0.4113(4) 0.0964(15) 0.4062(16)
C55_4 C 0.4109(5) 0.1804(14) 0.4325(17)
H24_4 H 0.4177 0.2200 0.3972
O2_4 O 0.4167(3) 0.4601(9) 0.3023(10)
O5_4 O 0.4883(7) 0.0384(17) 0.190(2)
O6_4 O 0.5223(6) 0.4247(17) 0.177(3)
O7_4 O 0.5273(7) 0.2931(17) 0.169(3)
O10_4 O 0.1037(5) 0.3307(12) 0.2014(17)
O13_4 O 0.4855(7) 0.1656(17) 0.142(3)
O14_4 O 0.1559(7) 0.0425(19) 0.463(2)
O18_4 O 0.4240(5) 0.6485(11) 0.5048(17)
O19_4 O 0.4067(4) 0.6474(11) 0.3434(15)
O21_4 O 0.3550(6) 0.9001(19) 0.218(2)
O22_4 O 0.1447(4) 0.5128(14) 0.1553(13)
O24_4 O 0.2208(6) 0.6218(18) 0.534(2)
O26_4 O 0.3685(3) 0.5244(18) 0.3745(15)
O30_4 O 0.0475(3) 0.4660(12) 0.1116(14)
O31_4 O 0.1762(5) 0.632(3) 0.025(2)
O33_4 O 0.3556(9) 0.425(2) 0.189(2)
O34_4 O 0.3406(7) 0.649(4) 0.183(2)
O35_4 O 0.4656(3) 0.4817(12) 0.5069(15)
N2_4 N 0.5158(4) 0.3522(18) 0.1912(13)
N3_4 N 0.4941(5) 0.1115(18) 0.203(2)
N4_4 N 0.1446(6) 0.0136(18) 0.383(2)
N5_4 N 0.3668(5) 0.9390(17) 0.292(2)
N6_4 N 0.2351(5) 0.5793(12) 0.4949(16)
N9_2 N 0.5016(4) 0.5096(17) 0.450(2)
C1_4 C 0.4726(4) 0.3931(14) 0.2080(16)
H1_4 H 0.4713 0.4286 0.1546
C2_4 C 0.4310(4) 0.4546(13) 0.2434(16)
C3_4 C 0.4537(4) 0.3926(12) 0.2648(14)
C4_4 C 0.4542(4) 0.3300(14) 0.3306(16)
H2_4 H 0.4401 0.3237 0.3600
C5_4 C 0.4762(4) 0.2741(14) 0.3554(17)
H3_4 H 0.4773 0.2367 0.4070
C6_4 C 0.4957(4) 0.2755(13) 0.3026(15)
C7_4 C 0.4938(5) 0.3369(18) 0.236(2)
C8_4 C 0.5818(4) 0.0381(13) 0.4114(16)
C9_4 C 0.5586(4) 0.0977(14) 0.3838(16)
C10_4 C 0.5584(4) 0.1708(14) 0.4394(17)
H4_4 H 0.5724 0.1819 0.4941
C11_4 C 0.5377(4) 0.2248(15) 0.4127(17)
H5_4 H 0.5375 0.2709 0.4520
C12_4 C 0.5171(4) 0.2135(13) 0.3291(14)
C13_4 C 0.5168(4) 0.1368(13) 0.2826(15)
C14_4 C 0.5377(4) 0.0832(14) 0.3066(16)
H6_4 H 0.5374 0.0358 0.2689
C15_4 C 0.1140(5) 0.2927(16) 0.275(2)
C16_4 C 0.1145(6) 0.1962(17) 0.250(2)
C17_4 C 0.1007(5) 0.1606(16) 0.1648(19)
H7_4 H 0.0919 0.1946 0.1134
C18_4 C 0.0990(5) 0.0805(16) 0.151(2)
H8_4 H 0.0882 0.0601 0.0920
C19_4 C 0.1127(5) 0.0269(15) 0.2201(18)
C20_4 C 0.1279(5) 0.0640(16) 0.3053(18)
C21_4 C 0.1288(5) 0.1462(17) 0.322(2)
H9_4 H 0.1388 0.1679 0.3812
C28_4 C 0.4145(5) 0.6815(16) 0.427(2)
C29_4 C 0.4105(5) 0.7725(16) 0.4318(18)
C30_4 C 0.4248(5) 0.8166(14) 0.5061(17)
H13_4 H 0.4370 0.7882 0.5549
C31_4 C 0.4233(5) 0.9006(16) 0.518(2)
H14_4 H 0.4347 0.9278 0.5701
C32_4 C 0.4035(5) 0.9440(15) 0.4463(18)
C33_4 C 0.3872(4) 0.8989(14) 0.3691(15)
C34_4 C 0.3923(5) 0.8145(16) 0.3634(19)
H15_4 H 0.3824 0.7855 0.3090
C35_4 C 0.1556(5) 0.5032(15) 0.243(2)
C36_4 C 0.1854(3) 0.5113(13) 0.2742(15)
C37_4 C 0.1976(4) 0.5361(14) 0.3701(14)
H16_4 H 0.1873 0.5519 0.4132
C38_4 C 0.2252(4) 0.5373(15) 0.4018(13)
C39_4 C 0.2405(3) 0.5137(14) 0.3375(16)
C40_4 C 0.2283(4) 0.4889(14) 0.2415(15)
H17_4 H 0.2386 0.4730 0.1985
C41_4 C 0.2008(4) 0.4876(13) 0.2099(12)
H18_4 H 0.1926 0.4710 0.1457
C42_4 C 0.3572(5) 0.5039(15) 0.4387(19)
C43_4 C 0.2713(3) 0.5008(15) 0.3612(18)
C44_4 C 0.2854(4) 0.4605(15) 0.4461(17)
C45_4 C 0.3130(4) 0.4636(14) 0.4726(14)
H19_4 H 0.3224 0.4367 0.5294
C46_4 C 0.3266(3) 0.5069(12) 0.4143(15)
C47_4 C 0.3125(4) 0.5472(14) 0.3294(15)
H20_4 H 0.3216 0.5762 0.2903
C48_4 C 0.2849(4) 0.5441(16) 0.3028(15)
H21_4 H 0.2755 0.5710 0.2460
H28_4 H 0.0193 0.6514 0.0055
H29_4 H 0.0461 0.6055 0.0501
C59_4 C 0.0254(5) 0.4689(16) 0.0529(18)
H31_4 H 0.0151 0.4215 0.0484
C60_4 C 0.4883(6) 0.4660(19) 0.501(2)
H32_4 H 0.4966 0.4200 0.5344
C61_4 C 0.4873(8) 0.576(3) 0.390(4)
H33_4 H 0.4990 0.6033 0.3563
H34_4 H 0.4810 0.6141 0.4312
H35_4 H 0.4725 0.5533 0.3416
C62_4 C 0.5299(7) 0.499(2) 0.465(4)
H36_2 H 0.5364 0.5354 0.4219
H37_4 H 0.5336 0.4429 0.4494
H38_2 H 0.5387 0.5103 0.5325
O36_4 O 0.2547(6) 0.372(2) 0.480(2)
N10_4 N 0.2745(5) 0.4148(13) 0.515(2)
O37_4 O 0.2591(6) 0.5710(18) 0.536(3)
O38_4 O 0.2846(6) 0.419(2) 0.605(2)
H39_4 H 0.1618 0.3927 0.0465
H41_4 H 0.1843 0.6474 0.0826
H43_4 H 0.3541 0.3941 0.2361
H44_4 H 0.3484 0.4000 0.1335
H45_4 H 0.3463 0.7046 0.1973
H46_4 H 0.3325 0.6553 0.1202
O44_2 O 0.0920(5) 0.6331(13) 0.197(2)
O45_2 O 0.1070(4) 0.6506(12) 0.0602(15)
O32_4 O 0.1544(7) 0.410(3) 0.9949(19)
N8_4 N 0.0153(4) 0.5268(17) 0.9991(16)
C58_4 C 0.0303(7) 0.606(2) 0.997(3)
H30_4 H 0.0350 0.6107 0.9349
H40_4 H 0.1562 0.3844 0.9442
H42_4 H 0.1842 0.6599 0.9838
O1_4 O 0.0852(8) 0.867(2) 0.404(3)
O3_4 O 0.1532(8) 0.951(2) 0.350(3)
O11_4 O 0.0813(8) 0.983(2) 0.345(3)
N1_4 N 0.0854(6) 0.910(2) 0.333(2)
C22_4 C 0.1086(5) 0.9384(14) 0.2010(18)
C23_4 C 0.1187(6) 0.906(2) 0.127(2)
H10_4 H 0.1285 0.9397 0.0954
C24_4 C 0.1142(5) 0.8170(17) 0.097(2)
H11_4 H 0.1192 0.7967 0.0416
C25_4 C 0.1023(5) 0.7663(16) 0.1547(18)
C26_4 C 0.0941(5) 0.8011(16) 0.2350(18)
H12_4 H 0.0864 0.7672 0.2739
C27_4 C 0.0970(4) 0.8805(13) 0.2571(15)
C56_4 C 0.0999(5) 0.6758(15) 0.1311(19)
H38_3 H 0.0387 0.9897 0.0325
N9_3 N 0.0016(4) 0.9904(17) 0.950(2)
H36_3 H 0.0364 0.9646 0.9219
N9_4 N 0.0016(4) 0.0096(17) 0.450(2)
H36_4 H 0.0364 0.0354 0.4219
H38_4 H 0.0387 0.0103 0.5325
C57_3 C 0.9885(7) 0.480(3) 0.438(3)
H25_3 H 0.9867 0.4476 0.3796
H26_3 H 0.9849 0.5369 0.4201
H27_3 H 0.9762 0.4613 0.4749
C57_4 C 0.9885(7) 0.520(3) 0.938(3)
H25_4 H 0.9867 0.5524 0.8796
H26_4 H 0.9849 0.4631 0.9201
H27_4 H 0.9762 0.5387 0.9749
loop_
_geom_bond_atom_site_label_1
_geom_bond_atom_site_label_2
_geom_bond_site_symmetry_1
_geom_bond_site_symmetry_2
Sr9 O8 1_555 1_555
O6 N2 1_555 1_555
O7 N2 1_555 1_555
O9 C8 1_555 1_555
C8 C9 1_555 1_555
C9 C10 1_555 1_555
C10 H4 1_555 1_555
C11 C10 1_555 1_555
H5 C11 1_555 1_555
C13 C12 1_555 1_555
C14 C9 1_555 1_555
H6 C14 1_555 1_555
H37 C62 1_555 1_555
Sr8 O9 1_555 1_555
O9 Sr12 1_555 1_555
C11 C12 1_555 1_555
C13 C14 1_555 1_555
C60 O35 1_555 1_555
H32 C60 1_555 1_555
O38 N10 1_555 1_555
Sr6 O25 1_555 1_555
Sr7 O10 1_555 1_555
Sr4 O2 1_555 1_555
O1 N1 1_555 1_555
O2 C2 1_555 1_555
O3 N4 1_555 1_555
O5 N3 1_555 1_555
O10 C15 1_555 1_555
O11 N1 1_555 1_555
O12 C15 1_555 1_555
O13 N3 1_555 1_555
O14 N4 1_555 1_555
O15 C56 1_555 1_555
O16 C56 1_555 1_555
O23 Sr7 1_555 1_555
O30 Sr7 1_555 1_555
N1 C27 1_555 1_555
N4 C20 1_555 1_555
C1 H1 1_555 1_555
C2 O4 1_555 1_555
C3 C1 1_555 1_555
C4 C3 1_555 1_555
H2 C4 1_555 1_555
C5 C4 1_555 1_555
H3 C5 1_555 1_555
C6 C5 1_555 1_555
C7 C1 1_555 1_555
C15 C16 1_555 1_555
C16 C17 1_555 1_555
C17 H7 1_555 1_555
C18 C17 1_555 1_555
H8 C18 1_555 1_555
C19 C18 1_555 1_555
C20 C19 1_555 1_555
C21 C16 1_555 1_555
H9 C21 1_555 1_555
C22 C19 1_555 1_555
C23 C22 1_555 1_555
H10 C23 1_555 1_555
C24 C23 1_555 1_555
H11 C24 1_555 1_555
C25 C24 1_555 1_555
C26 C25 1_555 1_555
H12 C26 1_555 1_555
C27 C22 1_555 1_555
H17 C40 1_555 1_555
H18 C41 1_555 1_555
C45 C44 1_555 1_555
C56 C25 1_555 1_555
C59 O30 1_555 1_555
H31 C59 1_555 1_555
H39 O32 1_555 1_555
H40 O32 1_555 1_555
H43 O33 1_555 1_555
H44 O33 1_555 1_555
Sr10 O16 1_555 1_555
Sr11 O12 1_555 1_555
O40 Sr7 1_555 1_555
O41 Sr7 1_555 1_555
O46 Sr4 1_555 1_555
O23 Sr11 1_555 1_555
C2 C3 1_555 1_555
C6 C7 1_555 1_555
C20 C21 1_555 1_555
C26 C27 1_555 1_555
C40 C41 1_555 1_555
Sr11 O41 1_555 1_555
O27 C49 1_555 1_555
H13 C30 1_555 1_555
C31 C30 1_555 1_555
H14 C31 1_555 1_555
C49 C50 1_555 1_555
C50 C51 1_555 1_555
C51 H22 1_555 1_555
C52 C51 1_555 1_555
H23 C52 1_555 1_555
Sr6 O27 1_555 1_555
Sr10 O22 1_555 1_555
O19 Sr1 1_555 1_555
O20 N5 1_555 1_555
O21 N5 1_555 1_555
O26 Sr1 1_555 1_555
O28 N7 1_555 1_555
O29 N7 1_555 1_555
O31 Sr10 1_555 1_555
O34 Sr1 1_555 1_555
N5 C33 1_555 1_555
N6 C38 1_555 1_555
N7 C54 1_555 1_555
N8 C57 1_555 1_555
C29 C28 1_555 1_555
C33 C32 1_555 1_555
C34 C29 1_555 1_555
H15 C34 1_555 1_555
C35 O22 1_555 1_555
C36 C35 1_555 1_555
C37 C36 1_555 1_555
H16 C37 1_555 1_555
C38 C37 1_555 1_555
C39 C38 1_555 1_555
C43 C39 1_555 1_555
C46 C42 1_555 1_555
C47 C46 1_555 1_555
H20 C47 1_555 1_555
C48 C43 1_555 1_555
H21 C48 1_555 1_555
C53 C32 1_555 1_555
C54 C53 1_555 1_555
H24 C55 1_555 1_555
C57 H25 1_555 1_555
H27 C57 1_555 1_555
C58 N8 1_555 1_555
H28 C58 1_555 1_555
H29 C58 1_555 1_555
H30 C58 1_555 1_555
H33 C61 1_555 1_555
H34 C61 1_555 1_555
H35 C61 1_555 1_555
H41 O31 1_555 1_555
H42 O31 1_555 1_555
H45 O34 1_555 1_555
H46 O34 1_555 1_555
O42 Sr10 1_555 1_555
O43 Sr10 1_555 1_555
O47 Sr10 1_555 1_555
O48 Sr1 1_555 1_555
O49 Sr1 1_555 1_555
O19 C28 1_555 1_555
O26 C42 1_555 1_555
C33 C34 1_555 1_555
C47 C48 1_555 1_555
C54 C55 1_555 1_555
Sr14 O48 1_555 1_555
O6_2 N2_2 1_555 1_555
O7_2 N2_2 1_555 1_555
O8_2 C8_2 1_555 1_555
O9_2 C8_2 1_555 1_555
C8_2 C9_2 1_555 1_555
C9_2 C10_2 1_555 1_555
C10_2 H4_2 1_555 1_555
C11_2 C10_2 1_555 1_555
H5_2 C11_2 1_555 1_555
C13_2 C12_2 1_555 1_555
C14_2 C9_2 1_555 1_555
H6_2 C14_2 1_555 1_555
H37_2 C62_2 1_555 1_555
Sr9 O9_2 1_555 1_555
Sr8 O8_2 1_555 1_555
Sr12_2 O8_2 1_555 1_555
O9_2 Sr12_2 1_555 1_555
C11_2 C12_2 1_555 1_555
C13_2 C14_2 1_555 1_555
O17 C49_2 1_555 1_555
O19_2 Sr6 1_555 1_555
O20_2 N5_2 1_555 1_555
O21_2 N5_2 1_555 1_555
O24_2 N6_2 1_555 1_555
O26_2 Sr6 1_555 1_555
O49 C49_2 1_555 1_555
O28_2 N7_2 1_555 1_555
O29_2 N7_2 1_555 1_555
O34_2 Sr6 1_555 1_555
N5_2 C33_2 1_555 1_555
N6_2 C38_2 1_555 1_555
N7_2 C54_2 1_555 1_555
C28_2 O18_2 1_555 1_555
C29_2 C28_2 1_555 1_555
C30_2 C29_2 1_555 1_555
H13_2 C30_2 1_555 1_555
C31_2 C30_2 1_555 1_555
H14_2 C31_2 1_555 1_555
C32_2 C31_2 1_555 1_555
C33_2 C32_2 1_555 1_555
C34_2 C29_2 1_555 1_555
H15_2 C34_2 1_555 1_555
C35_2 O22_2 1_555 1_555
C36_2 C35_2 1_555 1_555
C37_2 C36_2 1_555 1_555
H16_2 C37_2 1_555 1_555
C38_2 C37_2 1_555 1_555
C39_2 C38_2 1_555 1_555
C43_2 C39_2 1_555 1_555
C46_2 C42_2 1_555 1_555
C47_2 C46_2 1_555 1_555
H20_2 C47_2 1_555 1_555
C48_2 C43_2 1_555 1_555
H21_2 C48_2 1_555 1_555
C49_2 C50_2 1_555 1_555
C50_2 C51_2 1_555 1_555
C51_2 H22_2 1_555 1_555
C52_2 C51_2 1_555 1_555
H23_2 C52_2 1_555 1_555
C53_2 C32_2 1_555 1_555
C54_2 C53_2 1_555 1_555
C55_2 C50_2 1_555 1_555
H24_2 C55_2 1_555 1_555
H33_2 C61_2 1_555 1_555
H34_2 C61_2 1_555 1_555
H35_2 C61_2 1_555 1_555
O37_2 N6_2 1_555 1_555
H41_2 O31_2 1_555 1_555
H45_2 O34_2 1_555 1_555
H46_2 O34_2 1_555 1_555
Sr14 O17 1_555 1_555
O19_2 C28_2 1_555 1_555
O26_2 C42_2 1_555 1_555
C33_2 C34_2 1_555 1_555
C47_2 C48_2 1_555 1_555
C52_2 C53_2 1_555 1_555
C54_2 C55_2 1_555 1_555
N8_2 C57_2 1_555 1_555
C57_2 H25_2 1_555 1_555
H27_2 C57_2 1_555 1_555
C58_2 N8_2 1_555 1_555
H30_2 C58_2 1_555 1_555
Sr2 O10_2 1_555 1_555
Sr14 O2_2 1_555 1_555
O1_2 N1_2 1_555 1_555
O2_2 C2_2 1_555 1_555
O3_2 N4_2 1_555 1_555
O5_2 N3_2 1_555 1_555
O10_2 C15_2 1_555 1_555
O11_2 N1_2 1_555 1_555
O43 C15_2 1_555 1_555
O13_2 N3_2 1_555 1_555
O14_2 N4_2 1_555 1_555
O44 C56_2 1_555 1_555
O45 C56_2 1_555 1_555
O47 Sr2 1_555 1_555
O30_2 Sr2 1_555 1_555
O35_2 Sr14 1_555 1_555
N1_2 C27_2 1_555 1_555
N4_2 C20_2 1_555 1_555
C1_2 H1_2 1_555 1_555
C2_2 O39 1_555 1_555
C3_2 C1_2 1_555 1_555
C4_2 C3_2 1_555 1_555
H2_2 C4_2 1_555 1_555
C5_2 C4_2 1_555 1_555
H3_2 C5_2 1_555 1_555
C6_2 C5_2 1_555 1_555
C7_2 C1_2 1_555 1_555
C15_2 C16_2 1_555 1_555
C16_2 C17_2 1_555 1_555
C17_2 H7_2 1_555 1_555
C18_2 C17_2 1_555 1_555
H8_2 C18_2 1_555 1_555
C19_2 C18_2 1_555 1_555
C20_2 C19_2 1_555 1_555
C21_2 C16_2 1_555 1_555
H9_2 C21_2 1_555 1_555
C22_2 C19_2 1_555 1_555
C23_2 C22_2 1_555 1_555
H10_2 C23_2 1_555 1_555
C24_2 C23_2 1_555 1_555
H11_2 C24_2 1_555 1_555
C25_2 C24_2 1_555 1_555
C26_2 C25_2 1_555 1_555
H12_2 C26_2 1_555 1_555
C27_2 C22_2 1_555 1_555
H17_2 C40_2 1_555 1_555
H18_2 C41_2 1_555 1_555
C45_2 C44_2 1_555 1_555
H19_2 C45_2 1_555 1_555
C56_2 C25_2 1_555 1_555
C59_2 O30_2 1_555 1_555
H31_2 C59_2 1_555 1_555
C60_2 O35_2 1_555 1_555
H32_2 C60_2 1_555 1_555
O36_2 N10_2 1_555 1_555
N10_2 C44_2 1_555 1_555
O38_2 N10_2 1_555 1_555
H43_2 O33_2 1_555 1_555
H44_2 O33_2 1_555 1_555
O40_2 Sr2 1_555 1_555
O42 Sr2 1_555 1_555
C2_2 C3_2 1_555 1_555
C6_2 C7_2 1_555 1_555
C20_2 C21_2 1_555 1_555
C26_2 C27_2 1_555 1_555
C40_2 C41_2 1_555 1_555
H40_2 O32_2 1_555 1_555
O1_3 N1_3 1_555 1_555
O11_3 N1_3 1_555 1_555
O15_2 C56_3 1_555 1_555
O16_2 C56_3 1_555 1_555
N1_3 C27_3 1_555 1_555
C23_3 C22_3 1_555 1_555
H10_3 C23_3 1_555 1_555
C24_3 C23_3 1_555 1_555
H11_3 C24_3 1_555 1_555
C25_3 C24_3 1_555 1_555
C26_3 C25_3 1_555 1_555
H12_3 C26_3 1_555 1_555
C27_3 C22_3 1_555 1_555
C56_3 C25_3 1_555 1_555
Sr8 O15_2 1_555 1_555
Sr12_2 O16_2 1_555 1_555
C26_3 C27_3 1_555 1_555
H13_3 C30_3 1_555 1_555
C31_3 C30_3 1_555 1_555
H14_3 C31_3 1_555 1_555
C60_3 O35_3 1_555 1_555
H32_3 C60_3 1_555 1_555
O38_3 N10_3 1_555 1_555
Sr6_2 O25_2 1_555 1_555
Sr6_2 O39_2 1_555 1_555
Sr1_2 O2_3 1_555 1_555
Sr8 O10_3 1_555 1_555
Sr12_2 O22_3 1_555 1_555
Sr4_2 O2_3 1_555 1_555
O2_3 C2_3 1_555 1_555
O4_2 Sr1_2 1_555 1_555
O5_3 N3_3 1_555 1_555
O6_3 N2_3 1_555 1_555
O7_3 N2_3 1_555 1_555
O10_3 C15_3 1_555 1_555
O12_2 C15_3 1_555 1_555
O13_3 N3_3 1_555 1_555
O14_3 N4_3 1_555 1_555
O19_3 Sr1_2 1_555 1_555
O21_3 N5_3 1_555 1_555
O22_3 Sr8 1_555 1_555
O23_2 Sr8 1_555 1_555
O26_3 Sr1_2 1_555 1_555
O30_3 Sr8 1_555 1_555
O31_3 Sr12_2 1_555 1_555
O32_3 Sr12_2 1_555 1_555
O33_3 Sr1_2 1_555 1_555
O34_3 Sr1_2 1_555 1_555
N2_3 C7_3 1_555 1_555
N3_3 C13_3 1_555 1_555
N4_3 C20_3 1_555 1_555
N5_3 C33_3 1_555 1_555
N6_3 C38_3 1_555 1_555
C1_3 H1_3 1_555 1_555
C2_3 O4_2 1_555 1_555
C3_3 C1_3 1_555 1_555
C4_3 C3_3 1_555 1_555
H2_3 C4_3 1_555 1_555
C5_3 C4_3 1_555 1_555
H3_3 C5_3 1_555 1_555
C6_3 C5_3 1_555 1_555
C7_3 C1_3 1_555 1_555
C8_3 C9_3 1_555 1_555
C9_3 C10_3 1_555 1_555
C10_3 H4_3 1_555 1_555
C11_3 C10_3 1_555 1_555
H5_3 C11_3 1_555 1_555
C12_3 C6_3 1_555 1_555
C13_3 C12_3 1_555 1_555
C14_3 C9_3 1_555 1_555
H6_3 C14_3 1_555 1_555
C15_3 C16_3 1_555 1_555
C16_3 C17_3 1_555 1_555
C17_3 H7_3 1_555 1_555
C18_3 C17_3 1_555 1_555
H8_3 C18_3 1_555 1_555
C19_3 C18_3 1_555 1_555
C20_3 C19_3 1_555 1_555
C21_3 C16_3 1_555 1_555
H9_3 C21_3 1_555 1_555
C29_3 C28_3 1_555 1_555
C33_3 C32_3 1_555 1_555
C34_3 C29_3 1_555 1_555
H15_3 C34_3 1_555 1_555
C35_3 O22_3 1_555 1_555
C36_3 C35_3 1_555 1_555
C37_3 C36_3 1_555 1_555
H16_3 C37_3 1_555 1_555
C38_3 C37_3 1_555 1_555
C39_3 C38_3 1_555 1_555
C40_3 C39_3 1_555 1_555
H17_3 C40_3 1_555 1_555
C41_3 C36_3 1_555 1_555
H18_3 C41_3 1_555 1_555
C43_3 C39_3 1_555 1_555
C44_3 C43_3 1_555 1_555
C45_3 C44_3 1_555 1_555
C46_3 C42_3 1_555 1_555
C47_3 C46_3 1_555 1_555
H20_3 C47_3 1_555 1_555
C48_3 C43_3 1_555 1_555
H21_3 C48_3 1_555 1_555
C58_3 N8_3 1_555 1_555
H28_3 C58_3 1_555 1_555
H29_3 C58_3 1_555 1_555
H30_3 C58_3 1_555 1_555
C59_3 O30_3 1_555 1_555
H31_3 C59_3 1_555 1_555
C61_3 N9 1_555 1_555
H33_3 C61_3 1_555 1_555
H34_3 C61_3 1_555 1_555
H35_3 C61_3 1_555 1_555
C62_3 N9 1_555 1_555
H36 C62_3 1_555 1_555
H37_3 C62_3 1_555 1_555
H39_3 O32_3 1_555 1_555
H40_3 O32_3 1_555 1_555
H41_3 O31_3 1_555 1_555
H42_3 O31_3 1_555 1_555
H43_3 O33_3 1_555 1_555
H44_3 O33_3 1_555 1_555
H45_3 O34_3 1_555 1_555
H46_3 O34_3 1_555 1_555
Sr12 O12_2 1_555 1_555
Sr14_2 O4_2 1_555 1_555
O43_2 Sr12_2 1_555 1_555
O46_2 Sr4_2 1_555 1_555
O47_2 Sr12_2 1_555 1_555
O48_2 Sr1_2 1_555 1_555
O49_2 Sr1_2 1_555 1_555
Sr4_2 O26_3 1_555 1_555
O19_3 C28_3 1_555 1_555
O23_2 C35_3 1_555 1_555
O23_2 Sr12 1_555 1_555
O26_3 C42_3 1_555 1_555
N8_3 C59_3 1_555 1_555
C2_3 C3_3 1_555 1_555
C6_3 C7_3 1_555 1_555
C11_3 C12_3 1_555 1_555
C13_3 C14_3 1_555 1_555
C20_3 C21_3 1_555 1_555
C33_3 C34_3 1_555 1_555
C40_3 C41_3 1_555 1_555
C45_3 C46_3 1_555 1_555
C47_3 C48_3 1_555 1_555
Sr14_2 O48_2 1_555 1_555
O27_2 C49_3 1_555 1_555
C49_3 C50_3 1_555 1_555
C50_3 C51_3 1_555 1_555
C51_3 H22_3 1_555 1_555
C52_3 C51_3 1_555 1_555
H23_3 C52_3 1_555 1_555
Sr6_2 O27_2 1_555 1_555
O28_3 N7_3 1_555 1_555
O29_3 N7_3 1_555 1_555
N7_3 C54_3 1_555 1_555
C54_3 C53_3 1_555 1_555
H24_3 C55_3 1_555 1_555
C54_3 C55_3 1_555 1_555
O17_2 C49_4 1_555 1_555
O49_2 C49_4 1_555 1_555
O28_4 N7_4 1_555 1_555
O29_4 N7_4 1_555 1_555
N7_4 C54_4 1_555 1_555
C49_4 C50_4 1_555 1_555
C50_4 C51_4 1_555 1_555
C51_4 H22_4 1_555 1_555
C52_4 C51_4 1_555 1_555
H23_4 C52_4 1_555 1_555
C54_4 C53_4 1_555 1_555
C55_4 C50_4 1_555 1_555
H24_4 C55_4 1_555 1_555
Sr14_2 O17_2 1_555 1_555
C52_4 C53_4 1_555 1_555
C54_4 C55_4 1_555 1_555
Sr6_2 O2_4 1_555 1_555
Sr9 O10_4 1_555 1_555
Sr14_2 O2_4 1_555 1_555
O2_4 C2_4 1_555 1_555
O5_4 N3_4 1_555 1_555
O6_4 N2_4 1_555 1_555
O7_4 N2_4 1_555 1_555
O40 C8_4 1_555 1_555
O10_4 C15_4 1_555 1_555
O43_2 C15_4 1_555 1_555
O13_4 N3_4 1_555 1_555
O14_4 N4_4 1_555 1_555
O18_4 Sr14_2 1_555 1_555
O19_4 Sr6_2 1_555 1_555
O21_4 N5_4 1_555 1_555
O22_4 Sr9 1_555 1_555
O47_2 Sr9 1_555 1_555
O24_4 N6_4 1_555 1_555
O26_4 Sr6_2 1_555 1_555
O30_4 Sr9 1_555 1_555
O33_4 Sr6_2 1_555 1_555
O34_4 Sr6_2 1_555 1_555
O35_4 Sr14_2 1_555 1_555
N2_4 C7_4 1_555 1_555
N3_4 C13_4 1_555 1_555
N4_4 C20_4 1_555 1_555
N5_4 C33_4 1_555 1_555
N6_4 C38_4 1_555 1_555
N9_2 C60_4 1_555 1_555
C1_4 H1_4 1_555 1_555
C2_4 O39_2 1_555 1_555
C3_4 C1_4 1_555 1_555
C4_4 C3_4 1_555 1_555
H2_4 C4_4 1_555 1_555
C5_4 C4_4 1_555 1_555
H3_4 C5_4 1_555 1_555
C6_4 C5_4 1_555 1_555
C7_4 C1_4 1_555 1_555
C8_4 C9_4 1_555 1_555
C9_4 C10_4 1_555 1_555
C10_4 H4_4 1_555 1_555
C11_4 C10_4 1_555 1_555
H5_4 C11_4 1_555 1_555
C12_4 C6_4 1_555 1_555
C13_4 C12_4 1_555 1_555
C14_4 C9_4 1_555 1_555
H6_4 C14_4 1_555 1_555
C15_4 C16_4 1_555 1_555
C16_4 C17_4 1_555 1_555
C17_4 H7_4 1_555 1_555
C18_4 C17_4 1_555 1_555
H8_4 C18_4 1_555 1_555
C19_4 C18_4 1_555 1_555
C20_4 C19_4 1_555 1_555
C21_4 C16_4 1_555 1_555
H9_4 C21_4 1_555 1_555
C28_4 O18_4 1_555 1_555
C29_4 C28_4 1_555 1_555
C30_4 C29_4 1_555 1_555
H13_4 C30_4 1_555 1_555
C31_4 C30_4 1_555 1_555
H14_4 C31_4 1_555 1_555
C32_4 C31_4 1_555 1_555
C33_4 C32_4 1_555 1_555
C34_4 C29_4 1_555 1_555
H15_4 C34_4 1_555 1_555
C35_4 O22_4 1_555 1_555
C36_4 C35_4 1_555 1_555
C37_4 C36_4 1_555 1_555
H16_4 C37_4 1_555 1_555
C38_4 C37_4 1_555 1_555
C39_4 C38_4 1_555 1_555
C40_4 C39_4 1_555 1_555
H17_4 C40_4 1_555 1_555
C41_4 C36_4 1_555 1_555
H18_4 C41_4 1_555 1_555
C42_4 O48_2 1_555 1_555
C43_4 C39_4 1_555 1_555
C44_4 C43_4 1_555 1_555
C45_4 C44_4 1_555 1_555
H19_4 C45_4 1_555 1_555
C46_4 C42_4 1_555 1_555
C47_4 C46_4 1_555 1_555
H20_4 C47_4 1_555 1_555
C48_4 C43_4 1_555 1_555
H21_4 C48_4 1_555 1_555
C59_4 O30_4 1_555 1_555
H31_4 C59_4 1_555 1_555
C60_4 O35_4 1_555 1_555
H32_4 C60_4 1_555 1_555
C61_4 N9_2 1_555 1_555
H33_4 C61_4 1_555 1_555
H34_4 C61_4 1_555 1_555
H35_4 C61_4 1_555 1_555
C62_4 N9_2 1_555 1_555
H36_2 C62_4 1_555 1_555
H37_4 C62_4 1_555 1_555
H38_2 C62_4 1_555 1_555
O36_4 N10_4 1_555 1_555
N10_4 C44_4 1_555 1_555
O37_4 N6_4 1_555 1_555
O38_4 N10_4 1_555 1_555
H41_4 O31_4 1_555 1_555
H43_4 O33_4 1_555 1_555
H44_4 O33_4 1_555 1_555
H45_4 O34_4 1_555 1_555
H46_4 O34_4 1_555 1_555
O44_2 Sr9 1_555 1_555
Sr14_2 O26_4 1_555 1_555
O19_4 C28_4 1_555 1_555
O47_2 C35_4 1_555 1_555
O26_4 C42_4 1_555 1_555
C2_4 C3_4 1_555 1_555
C6_4 C7_4 1_555 1_555
C11_4 C12_4 1_555 1_555
C13_4 C14_4 1_555 1_555
C20_4 C21_4 1_555 1_555
C33_4 C34_4 1_555 1_555
C40_4 C41_4 1_555 1_555
C45_4 C46_4 1_555 1_555
C47_4 C48_4 1_555 1_555
O32_4 Sr12 1_555 1_555
C58_4 N8_4 1_555 1_555
H30_4 C58_4 1_555 1_555
H40_4 O32_4 1_555 1_555
O1_4 N1_4 1_555 1_555
O11_4 N1_4 1_555 1_555
O44_2 C56_4 1_555 1_555
O45_2 C56_4 1_555 1_555
N1_4 C27_4 1_555 1_555
C23_4 C22_4 1_555 1_555
H10_4 C23_4 1_555 1_555
C24_4 C23_4 1_555 1_555
H11_4 C24_4 1_555 1_555
C25_4 C24_4 1_555 1_555
C26_4 C25_4 1_555 1_555
H12_4 C26_4 1_555 1_555
C27_4 C22_4 1_555 1_555
C56_4 C25_4 1_555 1_555
C26_4 C27_4 1_555 1_555
C57_3 H25_3 1_555 1_555
H26_3 C57_3 1_555 1_555
H27_3 C57_3 1_555 1_555
C57_4 H25_4 1_555 1_555
H26_4 C57_4 1_555 1_555
H27_4 C57_4 1_555 1_555

#END
