
###############################################################################
#
# This file contains modified crystal structure data generated from the
# MOF subset of the Cambridge Structural Database (CSD) v543 
# hosted by the Cambridge Crystallographic Data Centre (CCDC).
#
# This work is licensed under the Creative Commons
# Attribution-NonCommercial-ShareAlike 4.0 International License.
# To view a copy of this license, visit
# http://creativecommons.org/licenses/by-nc-sa/4.0/
# or send a letter to
# Creative Commons, PO Box 1866, Mountain View, CA 94042, USA.
#
# CIF created using the CSD Python API on 29 September 2022
# The structure has been converted into the P1 space group
# The structure has a 3D framework
# The original CSD entry ZISXOQ is in the monoclinic crystal system
# The framework has been calculated to contain at least 10.0% void space
# The void calculation uses a probe of radius 1.32A, grid spacing 0.4
#
###############################################################################

data_ZISXOQ
_chemical_formula_moiety         '(C188 H128 Cu8 I7 N16)n'
_symmetry_cell_setting           triclinic
_symmetry_space_group_name_H-M   'P 1'
_symmetry_Int_Tables_number      1
_space_group_name_Hall           'P 1'
loop_
_symmetry_equiv_pos_site_id
_symmetry_equiv_pos_as_xyz
1 x,y,z
_cell_length_a                   17.9831(6)
_cell_length_b                   28.2545(10)
_cell_length_c                   13.0479(5)
_cell_angle_alpha                90
_cell_angle_beta                 135.587(2)
_cell_angle_gamma                90
_cell_volume                     4639.62
loop_
_atom_site_label
_atom_site_type_symbol
_atom_site_fract_x
_atom_site_fract_y
_atom_site_fract_z
Cu1 Cu -0.0000 0.54592(6) 0.0000
I1 I 0.13968(7) 0.5000 0.01274(9)
N6 N 0.0994(6) 0.5754(3) 0.1992(8)
Cu4 Cu -0.0000 0.45408(6) 0.0000
Cu2 Cu 0.07056(13) -0.0000 0.9999(2)
N5 N 0.1341(6) 0.0601(3) 0.9980(8)
Cu1_2 Cu 1.0000 0.54592(6) 0.0000
Cu4_2 Cu 1.0000 0.45408(6) 0.0000
N1 N 0.1341(6) 0.9399(3) 0.9980(8)
C3 C 0.2413(7) 0.8680(3) 0.9972(9)
C4 C 0.1681(17) 0.8970(7) 0.877(2)
H3 H 0.1520 0.8926 0.7910
C5 C 0.1187(18) 0.9323(8) 0.884(2)
H4 H 0.0705 0.9524 0.8009
C6 C 0.3027(7) 0.8334(3) 0.9958(9)
C9 C 0.4289(6) 0.7723(3) 0.9974(9)
C10 C 0.3187(11) 0.7655(7) 0.8993(19)
H7 H 0.2858 0.7400 0.8313
C11 C 0.2570(13) 0.7948(6) 0.8992(19)
H8 H 0.1831 0.7887 0.8332
C23 C 0.5000 0.7410(4) 1.0000
Cu2_2 Cu 0.07056(13) 1.0000 0.9999(2)
C24 C 0.7925(17) 0.9131(8) 0.884(2)
H17 H 0.7766 0.9190 0.7985
C25 C 0.7382(17) 0.8770(9) 0.8804(19)
H18 H 0.6872 0.8586 0.7941
C30 C 0.5913(11) 0.8433(6) 0.918(2)
H21 H 0.5601 0.8710 0.8586
C31 C 0.5318(15) 0.8132(6) 0.9174(19)
H22 H 0.4588 0.8206 0.8552
C35 C 0.4328(6) 0.7092(2) 0.8615(7)
C36 C 0.3816(6) 0.6693(2) 0.8488(7)
H25 H 0.3845 0.6618 0.9226
C37 C 0.3260(14) 0.6404(6) 0.7261(16)
H26 H 0.3041 0.6101 0.7277
C38 C 0.3014(8) 0.6531(3) 0.6049(10)
C39 C 0.3625(17) 0.6906(7) 0.624(2)
H27 H 0.3595 0.6968 0.5493
C40 C 0.4288(19) 0.7193(7) 0.753(2)
H28 H 0.4690 0.7446 0.7641
C41 C 0.2351(8) 0.6246(3) 0.4686(11)
C42 C 0.1637(15) 0.5914(6) 0.430(2)
H29 H 0.1569 0.5841 0.4938
C43 C 0.1046(15) 0.5697(7) 0.3042(17)
H30 H 0.0584 0.5463 0.2859
C44 C 0.1815(14) 0.6023(7) 0.240(2)
H31 H 0.1889 0.6046 0.1754
C45 C 0.2555(10) 0.6268(4) 0.3770(13)
H32 H 0.3144 0.6436 0.4074
I2 I 0.86669(7) -0.0000 0.74430(10)
I2_2 I 0.86669(7) 1.0000 0.74430(10)
C1 C 0.7925(17) 0.0869(8) 0.884(2)
H1 H 0.7766 0.0810 0.7985
C2 C 0.7382(17) 0.1230(9) 0.8804(19)
H2 H 0.6872 0.1414 0.7941
C7 C 0.5913(11) 0.1567(6) 0.918(2)
H5 H 0.5601 0.1290 0.8586
C8 C 0.5318(15) 0.1868(6) 0.9174(19)
H6 H 0.4588 0.1794 0.8552
C12 C 0.4328(6) 0.2908(2) 0.8615(7)
C13 C 0.3816(6) 0.3307(2) 0.8488(7)
H9 H 0.3845 0.3382 0.9226
C14 C 0.3260(14) 0.3596(6) 0.7261(16)
H10 H 0.3041 0.3899 0.7277
C15 C 0.3014(8) 0.3469(3) 0.6049(10)
C16 C 0.3625(17) 0.3094(7) 0.624(2)
H11 H 0.3595 0.3032 0.5493
C17 C 0.4288(19) 0.2807(7) 0.753(2)
H12 H 0.4690 0.2554 0.7641
C18 C 0.2351(8) 0.3754(3) 0.4686(11)
C19 C 0.1637(15) 0.4086(6) 0.430(2)
H13 H 0.1569 0.4159 0.4938
C20 C 0.1046(15) 0.4303(7) 0.3042(17)
H14 H 0.0584 0.4537 0.2859
N2 N 0.0994(6) 0.4246(3) 0.1992(8)
C21 C 0.1815(14) 0.3977(7) 0.240(2)
H15 H 0.1889 0.3954 0.1754
C22 C 0.2555(10) 0.3732(4) 0.3770(13)
H16 H 0.3144 0.3564 0.4074
C23_2 C 0.5000 0.2590(4) 1.0000
C26 C 0.2413(7) 0.1320(3) 0.9972(9)
C27 C 0.1681(17) 0.1030(7) 0.877(2)
H19 H 0.1520 0.1074 0.7910
C28 C 0.1187(18) 0.0677(8) 0.884(2)
H20 H 0.0705 0.0476 0.8009
C29 C 0.3027(7) 0.1666(3) 0.9958(9)
C32 C 0.4289(6) 0.2277(3) 0.9974(9)
C33 C 0.3187(11) 0.2345(7) 0.8993(19)
H23 H 0.2858 0.2600 0.8313
C34 C 0.2570(13) 0.2052(6) 0.8992(19)
H24 H 0.1831 0.2113 0.8332
Cu1_3 Cu -0.0000 0.54592(6) 1.0000
Cu4_3 Cu -0.0000 0.45408(6) 1.0000
Cu6 Cu 0.92944(13) -0.0000 0.0001(2)
I4 I 0.13331(7) -0.0000 0.25570(10)
C1_2 C 0.2075(17) 0.9131(8) 0.116(2)
H1_2 H 0.2234 0.9190 0.2015
C2_2 C 0.2618(17) 0.8770(9) 0.1196(19)
H2_2 H 0.3128 0.8586 0.2059
C7_2 C 0.4087(11) 0.8433(6) 0.082(2)
H5_2 H 0.4399 0.8710 0.1414
C8_2 C 0.4682(15) 0.8132(6) 0.0826(19)
H6_2 H 0.5412 0.8206 0.1448
C12_2 C 0.5672(6) 0.7092(2) 0.1385(7)
C13_2 C 0.6184(6) 0.6693(2) 0.1512(7)
H9_2 H 0.6155 0.6618 0.0774
C14_2 C 0.6740(14) 0.6404(6) 0.2739(16)
H10_2 H 0.6959 0.6101 0.2723
C15_2 C 0.6986(8) 0.6531(3) 0.3951(10)
C16_2 C 0.6375(17) 0.6906(7) 0.376(2)
H11_2 H 0.6405 0.6968 0.4507
C17_2 C 0.5712(19) 0.7193(7) 0.247(2)
H12_2 H 0.5310 0.7446 0.2359
C18_2 C 0.7649(8) 0.6246(3) 0.5314(11)
C19_2 C 0.8363(15) 0.5914(6) 0.570(2)
H13_2 H 0.8431 0.5841 0.5062
C20_2 C 0.8954(15) 0.5697(7) 0.6958(17)
H14_2 H 0.9416 0.5463 0.7141
N2_2 N 0.9006(6) 0.5754(3) 0.8008(8)
C21_2 C 0.8185(14) 0.6023(7) 0.760(2)
H15_2 H 0.8111 0.6046 0.8246
C22_2 C 0.7445(10) 0.6268(4) 0.6230(13)
H16_2 H 0.6856 0.6436 0.5926
C23_3 C 0.5000 0.7410(4) 0.0000
Cu1_4 Cu 1.0000 0.54592(6) 1.0000
N3 N 0.8659(6) 0.9399(3) 0.0020(8)
C26_2 C 0.7587(7) 0.8680(3) 0.0028(9)
C27_2 C 0.8319(17) 0.8970(7) 0.123(2)
H19_2 H 0.8480 0.8926 0.2090
C28_2 C 0.8813(18) 0.9323(8) 0.116(2)
H20_2 H 0.9295 0.9524 0.1991
C29_2 C 0.6973(7) 0.8334(3) 0.0042(9)
C32_2 C 0.5711(6) 0.7723(3) 0.0026(9)
C33_2 C 0.6813(11) 0.7655(7) 0.1007(19)
H23_2 H 0.7142 0.7400 0.1687
C34_2 C 0.7430(13) 0.7948(6) 0.1008(19)
H24_2 H 0.8169 0.7887 0.1668
Cu4_4 Cu 1.0000 0.45408(6) 1.0000
Cu6_2 Cu 0.92944(13) 1.0000 0.0001(2)
I3 I 0.86032(7) 0.5000 0.98726(9)
I4_2 I 0.13331(7) 1.0000 0.25570(10)
N5_2 N 0.8659(6) 0.0601(3) 0.0020(8)
C3_2 C 0.7587(7) 0.1320(3) 0.0028(9)
C4_2 C 0.8319(17) 0.1030(7) 0.123(2)
H3_2 H 0.8480 0.1074 0.2090
C5_2 C 0.8813(18) 0.0677(8) 0.116(2)
H4_2 H 0.9295 0.0476 0.1991
C6_2 C 0.6973(7) 0.1666(3) 0.0042(9)
C9_2 C 0.5711(6) 0.2277(3) 0.0026(9)
C10_2 C 0.6813(11) 0.2345(7) 0.1007(19)
H7_2 H 0.7142 0.2600 0.1687
C11_2 C 0.7430(13) 0.2052(6) 0.1008(19)
H8_2 H 0.8169 0.2113 0.1668
C23_4 C 0.5000 0.2590(4) 0.0000
C24_2 C 0.2075(17) 0.0869(8) 0.116(2)
H17_2 H 0.2234 0.0810 0.2015
C25_2 C 0.2618(17) 0.1230(9) 0.1196(19)
H18_2 H 0.3128 0.1414 0.2059
C30_2 C 0.4087(11) 0.1567(6) 0.082(2)
H21_2 H 0.4399 0.1290 0.1414
C31_2 C 0.4682(15) 0.1868(6) 0.0826(19)
H22_2 H 0.5412 0.1794 0.1448
C35_2 C 0.5672(6) 0.2908(2) 0.1385(7)
C36_2 C 0.6184(6) 0.3307(2) 0.1512(7)
H25_2 H 0.6155 0.3382 0.0774
C37_2 C 0.6740(14) 0.3596(6) 0.2739(16)
H26_2 H 0.6959 0.3899 0.2723
C38_2 C 0.6986(8) 0.3469(3) 0.3951(10)
C39_2 C 0.6375(17) 0.3094(7) 0.376(2)
H27_2 H 0.6405 0.3032 0.4507
C40_2 C 0.5712(19) 0.2807(7) 0.247(2)
H28_2 H 0.5310 0.2554 0.2359
C41_2 C 0.7649(8) 0.3754(3) 0.5314(11)
C42_2 C 0.8363(15) 0.4086(6) 0.570(2)
H29_2 H 0.8431 0.4159 0.5062
C43_2 C 0.8954(15) 0.4303(7) 0.6958(17)
H30_2 H 0.9416 0.4537 0.7141
N4 N 0.9006(6) 0.4246(3) 0.8008(8)
C44_2 C 0.8185(14) 0.3977(7) 0.760(2)
H31_2 H 0.8111 0.3954 0.8246
C45_2 C 0.7445(10) 0.3732(4) 0.6230(13)
H32_2 H 0.6856 0.3564 0.5926
Cu1_5 Cu 0.5000 0.04592(6) 0.0000
I1_2 I 0.63968(7) -0.0000 0.01274(9)
N6_2 N 0.5994(6) 0.0754(3) 0.1992(8)
C23_5 C -0.0000 0.2410(4) 1.0000
C24_3 C 0.2925(17) 0.4131(8) 0.884(2)
H17_3 H 0.2766 0.4190 0.7985
C25_3 C 0.2382(17) 0.3770(9) 0.8804(19)
H18_3 H 0.1872 0.3586 0.7941
C30_3 C 0.0913(11) 0.3433(6) 0.918(2)
H21_3 H 0.0601 0.3710 0.8586
C31_3 C 0.0318(15) 0.3132(6) 0.9174(19)
I1_3 I 0.63968(7) 1.0000 0.01274(9)
Cu4_5 Cu 0.5000 0.95408(6) 0.0000
N1_2 N 0.6341(6) 0.4399(3) 0.9980(8)
C3_3 C 0.7413(7) 0.3680(3) 0.9972(9)
C4_3 C 0.6681(17) 0.3970(7) 0.877(2)
H3_3 H 0.6520 0.3926 0.7910
C5_3 C 0.6187(18) 0.4323(8) 0.884(2)
H4_3 H 0.5705 0.4524 0.8009
C6_3 C 0.8027(7) 0.3334(3) 0.9958(9)
C9_3 C 0.9289(6) 0.2723(3) 0.9974(9)
C10_3 C 0.8187(11) 0.2655(7) 0.8993(19)
H7_3 H 0.7858 0.2400 0.8313
C11_3 C 0.7570(13) 0.2948(6) 0.8992(19)
H8_3 H 0.6831 0.2887 0.8332
C23_6 C 1.0000 0.2410(4) 1.0000
Cu2_3 Cu 0.57056(13) 0.5000 0.9999(2)
I2_3 I 0.36669(7) 0.5000 0.74430(10)
H22_3 H 0.9588 0.3206 0.8552
C35_3 C 0.9328(6) 0.2092(2) 0.8615(7)
C36_3 C 0.8816(6) 0.1693(2) 0.8488(7)
H25_3 H 0.8845 0.1618 0.9226
C37_3 C 0.8260(14) 0.1404(6) 0.7261(16)
H26_3 H 0.8041 0.1101 0.7277
C38_3 C 0.8014(8) 0.1531(3) 0.6049(10)
C39_3 C 0.8625(17) 0.1906(7) 0.624(2)
H27_3 H 0.8595 0.1968 0.5493
C40_3 C 0.9288(19) 0.2193(7) 0.753(2)
H28_3 H 0.9690 0.2446 0.7641
C41_3 C 0.7351(8) 0.1246(3) 0.4686(11)
C42_3 C 0.6637(15) 0.0914(6) 0.430(2)
H29_3 H 0.6569 0.0841 0.4938
C43_3 C 0.6046(15) 0.0697(7) 0.3042(17)
H30_3 H 0.5584 0.0463 0.2859
C44_3 C 0.6815(14) 0.1023(7) 0.240(2)
H31_3 H 0.6889 0.1046 0.1754
C45_3 C 0.7555(10) 0.1268(4) 0.3770(13)
H32_3 H 0.8144 0.1436 0.4074
N5_3 N 0.6341(6) 0.5601(3) 0.9980(8)
C1_3 C 0.2925(17) 0.5869(8) 0.884(2)
H1_3 H 0.2766 0.5810 0.7985
C2_3 C 0.2382(17) 0.6230(9) 0.8804(19)
H2_3 H 0.1872 0.6414 0.7941
C7_3 C 0.0913(11) 0.6567(6) 0.918(2)
H5_3 H 0.0601 0.6290 0.8586
C8_3 C 0.0318(15) 0.6868(6) 0.9174(19)
C23_7 C -0.0000 0.7590(4) 1.0000
H6_3 H 0.9588 0.6794 0.8552
C12_3 C 0.9328(6) 0.7908(2) 0.8615(7)
C13_3 C 0.8816(6) 0.8307(2) 0.8488(7)
H9_3 H 0.8845 0.8382 0.9226
C14_3 C 0.8260(14) 0.8596(6) 0.7261(16)
H10_3 H 0.8041 0.8899 0.7277
C15_3 C 0.8014(8) 0.8469(3) 0.6049(10)
C16_3 C 0.8625(17) 0.8094(7) 0.624(2)
H11_3 H 0.8595 0.8032 0.5493
C17_3 C 0.9288(19) 0.7807(7) 0.753(2)
H12_3 H 0.9690 0.7554 0.7641
C18_3 C 0.7351(8) 0.8754(3) 0.4686(11)
C19_3 C 0.6637(15) 0.9086(6) 0.430(2)
H13_3 H 0.6569 0.9159 0.4938
C20_3 C 0.6046(15) 0.9303(7) 0.3042(17)
H14_3 H 0.5584 0.9537 0.2859
N2_3 N 0.5994(6) 0.9246(3) 0.1992(8)
C21_3 C 0.6815(14) 0.8977(7) 0.240(2)
H15_3 H 0.6889 0.8954 0.1754
C22_3 C 0.7555(10) 0.8732(4) 0.3770(13)
H16_3 H 0.8144 0.8564 0.4074
C23_8 C 1.0000 0.7590(4) 1.0000
C26_3 C 0.7413(7) 0.6320(3) 0.9972(9)
C27_3 C 0.6681(17) 0.6030(7) 0.877(2)
H19_3 H 0.6520 0.6074 0.7910
C28_3 C 0.6187(18) 0.5677(8) 0.884(2)
H20_3 H 0.5705 0.5476 0.8009
C29_3 C 0.8027(7) 0.6666(3) 0.9958(9)
C32_3 C 0.9289(6) 0.7277(3) 0.9974(9)
C33_3 C 0.8187(11) 0.7345(7) 0.8993(19)
H23_3 H 0.7858 0.7600 0.8313
C34_3 C 0.7570(13) 0.7052(6) 0.8992(19)
H24_3 H 0.6831 0.7113 0.8332
H6_4 H 0.0412 0.3206 0.1448
C12_4 C 0.0672(6) 0.2092(2) 0.1385(7)
C13_4 C 0.1184(6) 0.1693(2) 0.1512(7)
H9_4 H 0.1155 0.1618 0.0774
C14_4 C 0.1740(14) 0.1404(6) 0.2739(16)
H10_4 H 0.1959 0.1101 0.2723
C15_4 C 0.1986(8) 0.1531(3) 0.3951(10)
C16_4 C 0.1375(17) 0.1906(7) 0.376(2)
H11_4 H 0.1405 0.1968 0.4507
C17_4 C 0.0712(19) 0.2193(7) 0.247(2)
H12_4 H 0.0310 0.2446 0.2359
C18_4 C 0.2649(8) 0.1246(3) 0.5314(11)
C19_4 C 0.3363(15) 0.0914(6) 0.570(2)
H13_4 H 0.3431 0.0841 0.5062
C20_4 C 0.3954(15) 0.0697(7) 0.6958(17)
H14_4 H 0.4416 0.0463 0.7141
N2_4 N 0.4006(6) 0.0754(3) 0.8008(8)
C21_4 C 0.3185(14) 0.1023(7) 0.760(2)
H15_4 H 0.3111 0.1046 0.8246
C22_4 C 0.2445(10) 0.1268(4) 0.6230(13)
H16_4 H 0.1856 0.1436 0.5926
C23_9 C 0.0000 0.2410(4) 0.0000
Cu1_6 Cu 0.5000 0.04592(6) 1.0000
N3_2 N 0.3659(6) 0.4399(3) 0.0020(8)
C26_4 C 0.2587(7) 0.3680(3) 0.0028(9)
C27_4 C 0.3319(17) 0.3970(7) 0.123(2)
H19_4 H 0.3480 0.3926 0.2090
C28_4 C 0.3813(18) 0.4323(8) 0.116(2)
H20_4 H 0.4295 0.4524 0.1991
C29_4 C 0.1973(7) 0.3334(3) 0.0042(9)
C32_4 C 0.0711(6) 0.2723(3) 0.0026(9)
C33_4 C 0.1813(11) 0.2655(7) 0.1007(19)
H23_4 H 0.2142 0.2400 0.1687
C34_4 C 0.2430(13) 0.2948(6) 0.1008(19)
H24_4 H 0.3169 0.2887 0.1668
Cu6_3 Cu 0.42944(13) 0.5000 0.0001(2)
I3_2 I 0.36032(7) -0.0000 0.98726(9)
Cu4_6 Cu 0.5000 0.95408(6) 1.0000
I3_3 I 0.36032(7) 1.0000 0.98726(9)
C1_4 C 0.7075(17) 0.4131(8) 0.116(2)
H1_4 H 0.7234 0.4190 0.2015
C2_4 C 0.7618(17) 0.3770(9) 0.1196(19)
H2_4 H 0.8128 0.3586 0.2059
C7_4 C 0.9087(11) 0.3433(6) 0.082(2)
H5_4 H 0.9399 0.3710 0.1414
C8_4 C 0.9682(15) 0.3132(6) 0.0826(19)
C23_10 C 1.0000 0.2410(4) 0.0000
I4_3 I 0.63331(7) 0.5000 0.25570(10)
N5_4 N 0.3659(6) 0.5601(3) 0.0020(8)
C3_4 C 0.2587(7) 0.6320(3) 0.0028(9)
C4_4 C 0.3319(17) 0.6030(7) 0.123(2)
H3_4 H 0.3480 0.6074 0.2090
C5_4 C 0.3813(18) 0.5677(8) 0.116(2)
H4_4 H 0.4295 0.5476 0.1991
C6_4 C 0.1973(7) 0.6666(3) 0.0042(9)
C9_4 C 0.0711(6) 0.7277(3) 0.0026(9)
C10_4 C 0.1813(11) 0.7345(7) 0.1007(19)
H7_4 H 0.2142 0.7600 0.1687
C11_4 C 0.2430(13) 0.7052(6) 0.1008(19)
H8_4 H 0.3169 0.7113 0.1668
C23_11 C -0.0000 0.7590(4) 0.0000
H22_4 H 0.0412 0.6794 0.1448
C35_4 C 0.0672(6) 0.7908(2) 0.1385(7)
C36_4 C 0.1184(6) 0.8307(2) 0.1512(7)
H25_4 H 0.1155 0.8382 0.0774
C37_4 C 0.1740(14) 0.8596(6) 0.2739(16)
H26_4 H 0.1959 0.8899 0.2723
C38_4 C 0.1986(8) 0.8469(3) 0.3951(10)
C39_4 C 0.1375(17) 0.8094(7) 0.376(2)
H27_4 H 0.1405 0.8032 0.4507
C40_4 C 0.0712(19) 0.7807(7) 0.247(2)
H28_4 H 0.0310 0.7554 0.2359
C41_4 C 0.2649(8) 0.8754(3) 0.5314(11)
C42_4 C 0.3363(15) 0.9086(6) 0.570(2)
H29_4 H 0.3431 0.9159 0.5062
C43_4 C 0.3954(15) 0.9303(7) 0.6958(17)
H30_4 H 0.4416 0.9537 0.7141
N4_2 N 0.4006(6) 0.9246(3) 0.8008(8)
C44_4 C 0.3185(14) 0.8977(7) 0.760(2)
H31_4 H 0.3111 0.8954 0.8246
C45_4 C 0.2445(10) 0.8732(4) 0.6230(13)
H32_4 H 0.1856 0.8564 0.5926
C23_12 C 1.0000 0.7590(4) 0.0000
C24_4 C 0.7075(17) 0.5869(8) 0.116(2)
H17_4 H 0.7234 0.5810 0.2015
C25_4 C 0.7618(17) 0.6230(9) 0.1196(19)
H18_4 H 0.8128 0.6414 0.2059
C30_4 C 0.9087(11) 0.6567(6) 0.082(2)
H21_4 H 0.9399 0.6290 0.1414
C31_4 C 0.9682(15) 0.6868(6) 0.0826(19)
loop_
_geom_bond_atom_site_label_1
_geom_bond_atom_site_label_2
_geom_bond_site_symmetry_1
_geom_bond_site_symmetry_2
I1 Cu1 1_555 1_555
N6 Cu1 1_555 1_555
Cu4 Cu1 1_555 1_555
I1 Cu4 1_555 1_555
N5 Cu2 1_555 1_555
Cu4_2 Cu1_2 1_555 1_555
C4 C3 1_555 1_555
H3 C4 1_555 1_555
C5 N1 1_555 1_555
H4 C5 1_555 1_555
C6 C3 1_555 1_555
C10 C9 1_555 1_555
H7 C10 1_555 1_555
C11 C6 1_555 1_555
H8 C11 1_555 1_555
C23 C9 1_555 1_555
Cu2_2 N1 1_555 1_555
C24 H17 1_555 1_555
C25 C24 1_555 1_555
H18 C25 1_555 1_555
H21 C30 1_555 1_555
C31 C30 1_555 1_555
H22 C31 1_555 1_555
C35 C23 1_555 1_555
C36 C35 1_555 1_555
H25 C36 1_555 1_555
C37 C36 1_555 1_555
H26 C37 1_555 1_555
C38 C37 1_555 1_555
C39 C38 1_555 1_555
H27 C39 1_555 1_555
C40 C35 1_555 1_555
H28 C40 1_555 1_555
C41 C38 1_555 1_555
C42 C41 1_555 1_555
H29 C42 1_555 1_555
C43 C42 1_555 1_555
H30 C43 1_555 1_555
N6 C43 1_555 1_555
C44 N6 1_555 1_555
H31 C44 1_555 1_555
C45 C41 1_555 1_555
H32 C45 1_555 1_555
C4 C5 1_555 1_555
C10 C11 1_555 1_555
C39 C40 1_555 1_555
C44 C45 1_555 1_555
C1 H1 1_555 1_555
C2 C1 1_555 1_555
H2 C2 1_555 1_555
H5 C7 1_555 1_555
C8 C7 1_555 1_555
H6 C8 1_555 1_555
C12 C13 1_555 1_555
C13 H9 1_555 1_555
C14 C13 1_555 1_555
H10 C14 1_555 1_555
C15 C14 1_555 1_555
C16 C15 1_555 1_555
H11 C16 1_555 1_555
C17 C12 1_555 1_555
H12 C17 1_555 1_555
C18 C15 1_555 1_555
C19 C18 1_555 1_555
H13 C19 1_555 1_555
C20 C19 1_555 1_555
H14 C20 1_555 1_555
N2 C20 1_555 1_555
C21 N2 1_555 1_555
H15 C21 1_555 1_555
C22 C18 1_555 1_555
H16 C22 1_555 1_555
Cu4 N2 1_555 1_555
C27 C26 1_555 1_555
H19 C27 1_555 1_555
C28 N5 1_555 1_555
H20 C28 1_555 1_555
C29 C26 1_555 1_555
C32 C23_2 1_555 1_555
C33 C32 1_555 1_555
H23 C33 1_555 1_555
C34 C29 1_555 1_555
H24 C34 1_555 1_555
C12 C23_2 1_555 1_555
C16 C17 1_555 1_555
C21 C22 1_555 1_555
C27 C28 1_555 1_555
C33 C34 1_555 1_555
Cu4_3 Cu1_3 1_555 1_555
C1_2 H1_2 1_555 1_555
C2_2 C1_2 1_555 1_555
H2_2 C2_2 1_555 1_555
H5_2 C7_2 1_555 1_555
C8_2 C7_2 1_555 1_555
H6_2 C8_2 1_555 1_555
C12_2 C13_2 1_555 1_555
C13_2 H9_2 1_555 1_555
C14_2 C13_2 1_555 1_555
H10_2 C14_2 1_555 1_555
C15_2 C14_2 1_555 1_555
C16_2 C15_2 1_555 1_555
H11_2 C16_2 1_555 1_555
C17_2 C12_2 1_555 1_555
H12_2 C17_2 1_555 1_555
C18_2 C15_2 1_555 1_555
C19_2 C18_2 1_555 1_555
H13_2 C19_2 1_555 1_555
C20_2 C19_2 1_555 1_555
H14_2 C20_2 1_555 1_555
N2_2 C20_2 1_555 1_555
C21_2 N2_2 1_555 1_555
H15_2 C21_2 1_555 1_555
C22_2 C18_2 1_555 1_555
H16_2 C22_2 1_555 1_555
Cu1_4 N2_2 1_555 1_555
C27_2 C26_2 1_555 1_555
H19_2 C27_2 1_555 1_555
C28_2 N3 1_555 1_555
H20_2 C28_2 1_555 1_555
C29_2 C26_2 1_555 1_555
C32_2 C23_3 1_555 1_555
C33_2 C32_2 1_555 1_555
H23_2 C33_2 1_555 1_555
C34_2 C29_2 1_555 1_555
H24_2 C34_2 1_555 1_555
Cu4_4 Cu1_4 1_555 1_555
Cu6_2 N3 1_555 1_555
I3 Cu1_4 1_555 1_555
C12_2 C23_3 1_555 1_555
C16_2 C17_2 1_555 1_555
C21_2 C22_2 1_555 1_555
C27_2 C28_2 1_555 1_555
C33_2 C34_2 1_555 1_555
Cu4_4 I3 1_555 1_555
N5_2 Cu6 1_555 1_555
C4_2 C3_2 1_555 1_555
H3_2 C4_2 1_555 1_555
C5_2 N5_2 1_555 1_555
H4_2 C5_2 1_555 1_555
C6_2 C3_2 1_555 1_555
C10_2 C9_2 1_555 1_555
H7_2 C10_2 1_555 1_555
C11_2 C6_2 1_555 1_555
H8_2 C11_2 1_555 1_555
C23_4 C9_2 1_555 1_555
C24_2 H17_2 1_555 1_555
C25_2 C24_2 1_555 1_555
H18_2 C25_2 1_555 1_555
H21_2 C30_2 1_555 1_555
C31_2 C30_2 1_555 1_555
H22_2 C31_2 1_555 1_555
C35_2 C23_4 1_555 1_555
C36_2 C35_2 1_555 1_555
H25_2 C36_2 1_555 1_555
C37_2 C36_2 1_555 1_555
H26_2 C37_2 1_555 1_555
C38_2 C37_2 1_555 1_555
C39_2 C38_2 1_555 1_555
H27_2 C39_2 1_555 1_555
C40_2 C35_2 1_555 1_555
H28_2 C40_2 1_555 1_555
C41_2 C38_2 1_555 1_555
C42_2 C41_2 1_555 1_555
H29_2 C42_2 1_555 1_555
C43_2 C42_2 1_555 1_555
H30_2 C43_2 1_555 1_555
N4 C43_2 1_555 1_555
C44_2 N4 1_555 1_555
H31_2 C44_2 1_555 1_555
C45_2 C41_2 1_555 1_555
H32_2 C45_2 1_555 1_555
Cu4_4 N4 1_555 1_555
C4_2 C5_2 1_555 1_555
C10_2 C11_2 1_555 1_555
C39_2 C40_2 1_555 1_555
C44_2 C45_2 1_555 1_555
I1_2 Cu1_5 1_555 1_555
N6_2 Cu1_5 1_555 1_555
C24_3 H17_3 1_555 1_555
C25_3 C24_3 1_555 1_555
H18_3 C25_3 1_555 1_555
H21_3 C30_3 1_555 1_555
C31_3 C30_3 1_555 1_555
I1_3 Cu4_5 1_555 1_555
C4_3 C3_3 1_555 1_555
H3_3 C4_3 1_555 1_555
C5_3 N1_2 1_555 1_555
H4_3 C5_3 1_555 1_555
C6_3 C3_3 1_555 1_555
C10_3 C9_3 1_555 1_555
H7_3 C10_3 1_555 1_555
C11_3 C6_3 1_555 1_555
H8_3 C11_3 1_555 1_555
C23_6 C9_3 1_555 1_555
Cu2_3 N1_2 1_555 1_555
I2_3 Cu2_3 1_555 1_555
C35_3 C23_6 1_555 1_555
C36_3 C35_3 1_555 1_555
H25_3 C36_3 1_555 1_555
C37_3 C36_3 1_555 1_555
H26_3 C37_3 1_555 1_555
C38_3 C37_3 1_555 1_555
C39_3 C38_3 1_555 1_555
H27_3 C39_3 1_555 1_555
C40_3 C35_3 1_555 1_555
H28_3 C40_3 1_555 1_555
C41_3 C38_3 1_555 1_555
C42_3 C41_3 1_555 1_555
H29_3 C42_3 1_555 1_555
C43_3 C42_3 1_555 1_555
H30_3 C43_3 1_555 1_555
N6_2 C43_3 1_555 1_555
C44_3 N6_2 1_555 1_555
H31_3 C44_3 1_555 1_555
C45_3 C41_3 1_555 1_555
H32_3 C45_3 1_555 1_555
N5_3 Cu2_3 1_555 1_555
C4_3 C5_3 1_555 1_555
C10_3 C11_3 1_555 1_555
C39_3 C40_3 1_555 1_555
C44_3 C45_3 1_555 1_555
C1_3 H1_3 1_555 1_555
C2_3 C1_3 1_555 1_555
H2_3 C2_3 1_555 1_555
H5_3 C7_3 1_555 1_555
C8_3 C7_3 1_555 1_555
C12_3 C13_3 1_555 1_555
C13_3 H9_3 1_555 1_555
C14_3 C13_3 1_555 1_555
H10_3 C14_3 1_555 1_555
C15_3 C14_3 1_555 1_555
C16_3 C15_3 1_555 1_555
H11_3 C16_3 1_555 1_555
C17_3 C12_3 1_555 1_555
H12_3 C17_3 1_555 1_555
C18_3 C15_3 1_555 1_555
C19_3 C18_3 1_555 1_555
H13_3 C19_3 1_555 1_555
C20_3 C19_3 1_555 1_555
H14_3 C20_3 1_555 1_555
N2_3 C20_3 1_555 1_555
C21_3 N2_3 1_555 1_555
H15_3 C21_3 1_555 1_555
C22_3 C18_3 1_555 1_555
H16_3 C22_3 1_555 1_555
Cu4_5 N2_3 1_555 1_555
C27_3 C26_3 1_555 1_555
H19_3 C27_3 1_555 1_555
C28_3 N5_3 1_555 1_555
H20_3 C28_3 1_555 1_555
C29_3 C26_3 1_555 1_555
C32_3 C23_8 1_555 1_555
C33_3 C32_3 1_555 1_555
H23_3 C33_3 1_555 1_555
C34_3 C29_3 1_555 1_555
H24_3 C34_3 1_555 1_555
C12_3 C23_8 1_555 1_555
C16_3 C17_3 1_555 1_555
C21_3 C22_3 1_555 1_555
C27_3 C28_3 1_555 1_555
C33_3 C34_3 1_555 1_555
C12_4 C13_4 1_555 1_555
C13_4 H9_4 1_555 1_555
C14_4 C13_4 1_555 1_555
H10_4 C14_4 1_555 1_555
C15_4 C14_4 1_555 1_555
C16_4 C15_4 1_555 1_555
H11_4 C16_4 1_555 1_555
C17_4 C12_4 1_555 1_555
H12_4 C17_4 1_555 1_555
C18_4 C15_4 1_555 1_555
C19_4 C18_4 1_555 1_555
H13_4 C19_4 1_555 1_555
C20_4 C19_4 1_555 1_555
H14_4 C20_4 1_555 1_555
N2_4 C20_4 1_555 1_555
C21_4 N2_4 1_555 1_555
H15_4 C21_4 1_555 1_555
C22_4 C18_4 1_555 1_555
H16_4 C22_4 1_555 1_555
Cu1_6 N2_4 1_555 1_555
C27_4 C26_4 1_555 1_555
H19_4 C27_4 1_555 1_555
C28_4 N3_2 1_555 1_555
H20_4 C28_4 1_555 1_555
C29_4 C26_4 1_555 1_555
C32_4 C23_9 1_555 1_555
C33_4 C32_4 1_555 1_555
H23_4 C33_4 1_555 1_555
C34_4 C29_4 1_555 1_555
H24_4 C34_4 1_555 1_555
Cu6_3 N3_2 1_555 1_555
I3_2 Cu1_6 1_555 1_555
C12_4 C23_9 1_555 1_555
C16_4 C17_4 1_555 1_555
C21_4 C22_4 1_555 1_555
C27_4 C28_4 1_555 1_555
C33_4 C34_4 1_555 1_555
Cu4_6 I3_3 1_555 1_555
C1_4 H1_4 1_555 1_555
C2_4 C1_4 1_555 1_555
H2_4 C2_4 1_555 1_555
H5_4 C7_4 1_555 1_555
C8_4 C7_4 1_555 1_555
Cu6_3 I4_3 1_555 1_555
N5_4 Cu6_3 1_555 1_555
C4_4 C3_4 1_555 1_555
H3_4 C4_4 1_555 1_555
C5_4 N5_4 1_555 1_555
H4_4 C5_4 1_555 1_555
C6_4 C3_4 1_555 1_555
C10_4 C9_4 1_555 1_555
H7_4 C10_4 1_555 1_555
C11_4 C6_4 1_555 1_555
H8_4 C11_4 1_555 1_555
C23_11 C9_4 1_555 1_555
C35_4 C23_11 1_555 1_555
C36_4 C35_4 1_555 1_555
H25_4 C36_4 1_555 1_555
C37_4 C36_4 1_555 1_555
H26_4 C37_4 1_555 1_555
C38_4 C37_4 1_555 1_555
C39_4 C38_4 1_555 1_555
H27_4 C39_4 1_555 1_555
C40_4 C35_4 1_555 1_555
H28_4 C40_4 1_555 1_555
C41_4 C38_4 1_555 1_555
C42_4 C41_4 1_555 1_555
H29_4 C42_4 1_555 1_555
C43_4 C42_4 1_555 1_555
H30_4 C43_4 1_555 1_555
N4_2 C43_4 1_555 1_555
C44_4 N4_2 1_555 1_555
H31_4 C44_4 1_555 1_555
C45_4 C41_4 1_555 1_555
H32_4 C45_4 1_555 1_555
Cu4_6 N4_2 1_555 1_555
C4_4 C5_4 1_555 1_555
C10_4 C11_4 1_555 1_555
C39_4 C40_4 1_555 1_555
C44_4 C45_4 1_555 1_555
C24_4 H17_4 1_555 1_555
C25_4 C24_4 1_555 1_555
H18_4 C25_4 1_555 1_555
H21_4 C30_4 1_555 1_555
C31_4 C30_4 1_555 1_555

#END
