
###############################################################################
#
# This file contains modified crystal structure data generated from the
# MOF subset of the Cambridge Structural Database (CSD) v543 
# hosted by the Cambridge Crystallographic Data Centre (CCDC).
#
# This work is licensed under the Creative Commons
# Attribution-NonCommercial-ShareAlike 4.0 International License.
# To view a copy of this license, visit
# http://creativecommons.org/licenses/by-nc-sa/4.0/
# or send a letter to
# Creative Commons, PO Box 1866, Mountain View, CA 94042, USA.
#
# CIF created using the CSD Python API on 29 September 2022
# The structure has been converted into the P1 space group
# The structure has a 3D framework
# The original CSD entry ZITFAM is in the monoclinic crystal system
# The framework has been calculated to contain at least 10.0% void space
# The void calculation uses a probe of radius 1.32A, grid spacing 0.4
# H atom positions have been added when not included in the experimental data
#
###############################################################################

data_ZITFAM
_chemical_formula_moiety         '(C216 H152 Co4 Fe8 N8 O60)n'
_symmetry_cell_setting           triclinic
_symmetry_space_group_name_H-M   'P 1'
_symmetry_Int_Tables_number      1
_space_group_name_Hall           'P 1'
loop_
_symmetry_equiv_pos_site_id
_symmetry_equiv_pos_as_xyz
1 x,y,z
_cell_length_a                   25.497(5)
_cell_length_b                   18.479(4)
_cell_length_c                   35.599(7)
_cell_angle_alpha                90
_cell_angle_beta                 91.57(3)
_cell_angle_gamma                90
_cell_volume                     16766.5
loop_
_atom_site_label
_atom_site_type_symbol
_atom_site_fract_x
_atom_site_fract_y
_atom_site_fract_z
C1 C 0.2725(3) 0.6697(4) 0.4455(2)
C2 C 0.2898(3) 0.6406(4) 0.4856(2)
C3 C 0.3427(4) 0.6554(4) 0.4921(2)
H1 H 0.3611 0.6779 0.4732
C4 C 0.3679(4) 0.6392(5) 0.5236(3)
H2 H 0.4035 0.6495 0.5266
C5 C 0.3404(4) 0.6060(5) 0.5526(2)
C6 C 0.2886(4) 0.5909(4) 0.54717(18)
H3 H 0.2704 0.5677 0.5659
C7 C 0.2627(3) 0.6100(4) 0.5138(2)
H4 H 0.2268 0.6019 0.5109
C8 C 0.3637(4) 0.5863(4) 0.59136(18)
C9 C 0.4130(3) 0.5511(4) 0.5955(2)
C10 C 0.4374(3) 0.5437(5) 0.6299(2)
C11 C 0.4144(4) 0.5720(5) 0.6607(2)
H5 H 0.4305 0.5650 0.6842
C12 C 0.3667(4) 0.6118(5) 0.6586(2)
C13 C 0.3429(3) 0.6130(4) 0.6231(3)
H6 H 0.3098 0.6339 0.6209
C14 C 0.4853(2) 0.4957(7) 0.63213(19)
C15 C 0.4970(5) 0.4313(4) 0.6152(2)
H7 H 0.4718 0.4081 0.6002
C16 C 0.5442(3) 0.4019(5) 0.6200(2)
H8 H 0.5514 0.3579 0.6085
C17 C 0.5835(3) 0.4354(4) 0.6421(2)
C18 C 0.5744(3) 0.5002(5) 0.66026(18)
H9 H 0.6003 0.5204 0.6759
C19 C 0.5256(3) 0.5354(4) 0.65487(17)
H10 H 0.5190 0.5808 0.6650
C20 C 0.6379(4) 0.4008(5) 0.6470(2)
C21 C 0.3474(3) 0.6423(6) 0.6916(3)
C22 C 0.3462(3) 0.6152(4) 0.7255(3)
H11 H 0.3567 0.5672 0.7282
C23 C 0.3321(3) 0.6482(5) 0.7554(2)
H12 H 0.3310 0.6230 0.7779
C24 C 0.3180(3) 0.7229(6) 0.7545(2)
C25 C 0.3124(4) 0.7489(5) 0.7172(4)
H13 H 0.2950 0.7927 0.7136
C26 C 0.3289(4) 0.7183(8) 0.6892(2)
H14 H 0.3297 0.7428 0.6664
C27 C 0.3022(3) 0.7533(4) 0.7946(3)
C28 C 0.1420(4) 0.6288(3) 0.3052(3)
C29 C 0.0951(4) 0.6359(3) 0.2782(2)
C30 C 0.1013(3) 0.6073(4) 0.2427(3)
H15 H 0.1313 0.5826 0.2359
C31 C 0.0562(5) 0.6193(4) 0.2166(2)
H16 H 0.0614 0.6061 0.1918
C32 C 0.0109(4) 0.6453(3) 0.2233(3)
C33 C 0.0077(3) 0.6702(5) 0.2590(3)
C34 C 0.0495(4) 0.6667(5) 0.2857(2)
H18 H 0.0450 0.6867 0.3094
N2 N 0.4416(5) 0.5259(8) 0.5602(4)
O1 O 0.24231(13) 0.65871(15) 0.36100(9)
O2 O 0.2693(2) 0.5218(3) 0.27134(14)
O3 O 0.35302(17) 0.8125(2) 0.38777(13)
O4 O 0.10662(17) 0.6453(2) 0.42014(14)
O5 O 0.2236(2) 0.64337(18) 0.44069(9)
O6 O 0.2958(2) 0.7058(3) 0.42858(15)
O7 O 0.64012(14) 0.3381(3) 0.63059(12)
O8 O 0.66950(18) 0.4313(3) 0.66796(15)
O9 O 0.3059(2) 0.7334(3) 0.82289(12)
O10 O 0.28061(18) 0.8263(3) 0.78306(10)
O11 O 0.12965(16) 0.6504(2) 0.33942(14)
O12 O 0.1824(2) 0.6020(3) 0.29567(17)
Fe1 Fe 0.29453(3) 0.72956(4) 0.37353(2)
Fe2 Fe 0.25481(3) 0.59561(4) 0.31894(2)
Co1 Co 0.17922(3) 0.64877(3) 0.38818(2)
O17 O 0.35988(14) 0.6619(3) 0.36941(12)
O18 O 0.33050(18) 0.5687(3) 0.33204(15)
O19 O 0.3059(2) 0.7666(3) 0.32289(12)
O20 O 0.28061(18) 0.6737(3) 0.28306(10)
O21 O 0.1732(2) 0.5337(2) 0.38485(12)
O22 O 0.2370(3) 0.5086(4) 0.3430(3)
O23 O 0.24255(18) 0.81384(15) 0.38048(11)
O24 O 0.16558(16) 0.76095(18) 0.39242(11)
Fe4 Fe 0.70547(3) 0.27044(4) 0.62647(2)
Fe5 Fe 0.29453(3) 0.77044(4) 0.87353(2)
Fe7 Fe 0.74519(3) 0.40439(4) 0.68106(2)
Fe8 Fe 0.25481(3) 0.90439(4) 0.81894(2)
H29 H 0.263228 0.548087 0.247284
H30 H 0.306129 0.504351 0.272945
H31 H 0.47687 0.50068 0.562866
H32 H 0.425155 0.534533 0.534299
H33 H 0.079479 0.675881 0.407422
H34 H 0.093864 0.594616 0.421464
H35 H 0.34273 0.838192 0.410934
H36 H 0.387795 0.789298 0.392077
O13 O 0.8268(2) 0.0337(2) 0.11515(12)
O14 O 0.7630(3) 0.0086(4) 0.1570(3)
Fe6 Fe 0.74519(3) 0.09561(4) 0.18106(2)
Co3 Co 0.82078(3) 0.14877(3) 0.11182(2)
H17 H 0.9762 0.6906 0.2663
C35 C 0.9686(3) 0.6460(4) 0.1979(2)
C36 C 0.9477(3) 0.7073(4) 0.1862(2)
C37 C 0.9048(3) 0.7147(3) 0.1608(2)
C38 C 0.8828(3) 0.6504(3) 0.14821(19)
H19 H 0.8512 0.6521 0.1346
C39 C 0.9059(3) 0.5832(3) 0.1550(2)
C40 C 0.9483(3) 0.5819(3) 0.1808(2)
H20 H 0.9637 0.5377 0.1870
C41 C 0.8750(5) 0.7828(3) 0.1527(3)
C42 C 0.9000(4) 0.8340(6) 0.1309(3)
H21 H 0.9325 0.8237 0.1210
C43 C 0.8755(6) 0.9032(4) 0.1238(3)
H22 H 0.8922 0.9373 0.1091
C44 C 0.8293(4) 0.9182(4) 0.1382(2)
C45 C 0.8052(4) 0.8669(5) 0.1565(3)
H23 H 0.7721 0.8769 0.1655
C46 C 0.8259(4) 0.7988(7) 0.1631(4)
H24 H 0.8058 0.7639 0.1749
C47 C 0.7946(5) 0.9892(3) 0.1419(3)
C48 C 0.8790(4) 0.5171(3) 0.14276(17)
C49 C 0.8251(4) 0.5064(3) 0.14239(18)
H25 H 0.8041 0.5453 0.1489
C50 C 0.8010(3) 0.4431(4) 0.1332(2)
H26 H 0.7647 0.4376 0.1330
C51 C 0.8356(4) 0.3857(3) 0.12397(17)
C52 C 0.8871(4) 0.3957(5) 0.1257(2)
H27 H 0.9088 0.3570 0.1200
C53 C 0.9089(3) 0.4572(4) 0.13518(18)
H28 H 0.9453 0.4606 0.1368
C54 C 0.8056(4) 0.3139(5) 0.1160(2)
N1 N 0.9632(4) 0.7825(3) 0.2030(4)
O15 O 0.75745(18) 0.31384(15) 0.11952(11)
O16 O 0.83442(16) 0.26095(18) 0.10758(11)
Fe3 Fe 0.70547(3) 0.22956(4) 0.12647(2)
H37 H 0.945758 0.828132 0.192864
H38 H 0.99073 0.785812 0.22407
H17_2 H 0.0238 0.1906 0.2337
C35_2 C 0.0314(3) 0.1460(4) 0.3021(2)
C36_2 C 0.0523(3) 0.2073(4) 0.3138(2)
C37_2 C 0.0952(3) 0.2147(3) 0.3392(2)
C38_2 C 0.1172(3) 0.1504(3) 0.35179(19)
H19_2 H 0.1488 0.1521 0.3654
C39_2 C 0.0941(3) 0.0832(3) 0.3450(2)
C40_2 C 0.0517(3) 0.0819(3) 0.3192(2)
H20_2 H 0.0363 0.0377 0.3130
C41_2 C 0.1250(5) 0.2828(3) 0.3473(3)
C42_2 C 0.1000(4) 0.3340(6) 0.3691(3)
H21_2 H 0.0675 0.3237 0.3790
C43_2 C 0.1245(6) 0.4032(4) 0.3762(3)
H22_2 H 0.1078 0.4373 0.3909
C44_2 C 0.1707(4) 0.4182(4) 0.3618(2)
C45_2 C 0.1948(4) 0.3669(5) 0.3435(3)
H23_2 H 0.2279 0.3769 0.3345
C46_2 C 0.1741(4) 0.2988(7) 0.3369(4)
H24_2 H 0.1942 0.2639 0.3251
C47_2 C 0.2054(5) 0.4892(3) 0.3581(3)
C48_2 C 0.1210(4) 0.0171(3) 0.35724(17)
C49_2 C 0.1749(4) 0.0064(3) 0.35761(18)
H25_2 H 0.1959 0.0453 0.3511
N1_2 N 0.0368(4) 0.2825(3) 0.2970(4)
H37_2 H 0.0542416 0.328132 0.307136
H38_2 H 0.00927006 0.285812 0.27593
C50_2 C 0.1990(3) 0.9431(4) 0.3668(2)
H26_2 H 0.2353 0.9376 0.3670
C51_2 C 0.1644(4) 0.8857(3) 0.37603(17)
C52_2 C 0.1129(4) 0.8957(5) 0.3743(2)
H27_2 H 0.0912 0.8570 0.3800
C53_2 C 0.0911(3) 0.9572(4) 0.36482(18)
H28_2 H 0.0547 0.9606 0.3632
C54_2 C 0.1944(4) 0.8139(5) 0.3840(2)
C1_2 C 0.7275(3) 0.1697(4) 0.0545(2)
C2_2 C 0.7102(3) 0.1406(4) 0.0144(2)
C3_2 C 0.6573(4) 0.1554(4) 0.0079(2)
H1_2 H 0.6389 0.1779 0.0268
C28_2 C 0.8580(4) 0.1288(3) 0.1948(3)
C29_2 C 0.9049(4) 0.1359(3) 0.2218(2)
C30_2 C 0.8987(3) 0.1073(4) 0.2573(3)
H15_2 H 0.8687 0.0826 0.2641
C31_2 C 0.9438(5) 0.1193(4) 0.2834(2)
H16_2 H 0.9386 0.1061 0.3082
C32_2 C 0.9891(4) 0.1453(3) 0.2767(3)
C33_2 C 0.9923(3) 0.1702(5) 0.2410(3)
C34_2 C 0.9505(4) 0.1667(5) 0.2143(2)
H18_2 H 0.9550 0.1867 0.1906
O1_2 O 0.75769(13) 0.15871(15) 0.13900(9)
O2_2 O 0.7307(2) 0.0218(3) 0.22866(14)
O3_2 O 0.64698(17) 0.3125(2) 0.11223(13)
O4_2 O 0.89338(17) 0.1453(2) 0.07986(14)
O5_2 O 0.7764(2) 0.14337(18) 0.05931(9)
O6_2 O 0.7042(2) 0.2058(3) 0.07142(15)
O11_2 O 0.87035(16) 0.1504(2) 0.16058(14)
O12_2 O 0.8176(2) 0.1020(3) 0.20433(17)
O17_2 O 0.64012(14) 0.1619(3) 0.13059(12)
O18_2 O 0.66950(18) 0.0687(3) 0.16796(15)
O19_2 O 0.6941(2) 0.2666(3) 0.17711(12)
O20_2 O 0.71939(18) 0.1737(3) 0.21694(10)
H29_2 H 0.736772 0.0480868 0.252716
H30_2 H 0.693871 0.0043509 0.227055
H33_2 H 0.920521 0.175881 0.092578
H34_2 H 0.906136 0.0946158 0.0785365
H35_2 H 0.65727 0.338192 0.0890664
H36_2 H 0.612205 0.289298 0.107923
C4_2 C 0.6321(4) 0.1392(5) 0.9764(3)
H2_2 H 0.5965 0.1495 0.9734
C5_2 C 0.6596(4) 0.1060(5) 0.9474(2)
C6_2 C 0.7114(4) 0.0909(4) 0.95283(18)
H3_2 H 0.7296 0.0677 0.9341
C7_2 C 0.7373(3) 0.1100(4) 0.9862(2)
H4_2 H 0.7732 0.1019 0.9891
C8_2 C 0.6363(4) 0.0863(4) 0.90864(18)
C9_2 C 0.5870(3) 0.0511(4) 0.9045(2)
C10_2 C 0.5626(3) 0.0437(5) 0.8701(2)
C11_2 C 0.5856(4) 0.0720(5) 0.8393(2)
H5_2 H 0.5695 0.0650 0.8158
C12_2 C 0.6333(4) 0.1118(5) 0.8414(2)
C13_2 C 0.6571(3) 0.1130(4) 0.8769(3)
H6_2 H 0.6902 0.1339 0.8791
C18_2 C 0.4256(3) 0.0002(5) 0.83974(18)
H9_2 H 0.3997 0.0204 0.8241
C19_2 C 0.4744(3) 0.0354(4) 0.84513(17)
H10_2 H 0.4810 0.0808 0.8350
C21_2 C 0.6526(3) 0.1423(6) 0.8084(3)
C22_2 C 0.6538(3) 0.1152(4) 0.7745(3)
H11_2 H 0.6433 0.0672 0.7718
C23_2 C 0.6679(3) 0.1482(5) 0.7446(2)
H12_2 H 0.6690 0.1230 0.7221
C24_2 C 0.6820(3) 0.2229(6) 0.7455(2)
C25_2 C 0.6876(4) 0.2489(5) 0.7828(4)
H13_2 H 0.7050 0.2927 0.7864
C26_2 C 0.6711(4) 0.2183(8) 0.8108(2)
H14_2 H 0.6703 0.2428 0.8336
C27_2 C 0.6978(3) 0.2533(4) 0.7054(3)
N2_2 N 0.5584(5) 0.0259(8) 0.9398(4)
O9_2 O 0.6941(2) 0.2334(3) 0.67711(12)
O10_2 O 0.71939(18) 0.3263(3) 0.71694(10)
H31_2 H 0.52313 0.000679884 0.937134
H32_2 H 0.574845 0.0345333 0.965701
C14_2 C 0.5147(2) 0.9957(7) 0.86787(19)
C15_2 C 0.5030(5) 0.9313(4) 0.8848(2)
H7_2 H 0.5282 0.9081 0.8998
C16_2 C 0.4558(3) 0.9019(5) 0.8800(2)
H8_2 H 0.4486 0.8579 0.8915
C17_2 C 0.4165(3) 0.9354(4) 0.8579(2)
C20_2 C 0.3621(4) 0.9008(5) 0.8530(2)
O7_2 O 0.35988(14) 0.8381(3) 0.86941(12)
O8_2 O 0.33050(18) 0.9313(3) 0.83204(15)
H17_3 H 0.0238 0.3094 0.7337
C35_3 C 0.0314(3) 0.3540(4) 0.8021(2)
C36_3 C 0.0523(3) 0.2927(4) 0.8138(2)
C37_3 C 0.0952(3) 0.2853(3) 0.8392(2)
C38_3 C 0.1172(3) 0.3496(3) 0.85179(19)
H19_3 H 0.1488 0.3479 0.8654
C39_3 C 0.0941(3) 0.4168(3) 0.8450(2)
C40_3 C 0.0517(3) 0.4181(3) 0.8192(2)
H20_3 H 0.0363 0.4623 0.8130
C41_3 C 0.1250(5) 0.2172(3) 0.8473(3)
C42_3 C 0.1000(4) 0.1660(6) 0.8691(3)
H21_3 H 0.0675 0.1763 0.8790
C43_3 C 0.1245(6) 0.0968(4) 0.8762(3)
H22_3 H 0.1078 0.0627 0.8909
C44_3 C 0.1707(4) 0.0818(4) 0.8618(2)
C45_3 C 0.1948(4) 0.1331(5) 0.8435(3)
H23_3 H 0.2279 0.1231 0.8345
C46_3 C 0.1741(4) 0.2012(7) 0.8369(4)
H24_3 H 0.1942 0.2361 0.8251
C47_3 C 0.2054(5) 0.0108(3) 0.8581(3)
C48_3 C 0.1210(4) 0.4829(3) 0.85724(17)
C49_3 C 0.1749(4) 0.4936(3) 0.85761(18)
H25_3 H 0.1959 0.4547 0.8511
C50_3 C 0.1990(3) 0.5569(4) 0.8668(2)
H26_3 H 0.2353 0.5624 0.8670
C51_3 C 0.1644(4) 0.6143(3) 0.87603(17)
C52_3 C 0.1129(4) 0.6043(5) 0.8743(2)
H27_3 H 0.0912 0.6430 0.8800
C53_3 C 0.0911(3) 0.5428(4) 0.86482(18)
H28_3 H 0.0547 0.5394 0.8632
C54_3 C 0.1944(4) 0.6861(5) 0.8840(2)
N1_3 N 0.0368(4) 0.2175(3) 0.7970(4)
O15_2 O 0.24255(18) 0.68616(15) 0.88048(11)
O16_2 O 0.16558(16) 0.73905(18) 0.89242(11)
Co2 Co 0.17922(3) 0.85123(3) 0.88818(2)
H37_3 H 0.0542416 0.171868 0.807136
H38_3 H 0.00927006 0.214188 0.77593
O13_2 O 0.1732(2) 0.9663(2) 0.88485(12)
O14_2 O 0.2370(3) 0.9914(4) 0.8430(3)
C1_3 C 0.7275(3) 0.3303(4) 0.5545(2)
C2_3 C 0.7102(3) 0.3594(4) 0.5144(2)
C3_3 C 0.6573(4) 0.3446(4) 0.5079(2)
H1_3 H 0.6389 0.3221 0.5268
C4_3 C 0.6321(4) 0.3608(5) 0.4764(3)
H2_3 H 0.5965 0.3505 0.4734
C5_3 C 0.6596(4) 0.3940(5) 0.4474(2)
C6_3 C 0.7114(4) 0.4091(4) 0.45283(18)
H3_3 H 0.7296 0.4323 0.4341
C7_3 C 0.7373(3) 0.3900(4) 0.4862(2)
H4_3 H 0.7732 0.3981 0.4891
C8_3 C 0.6363(4) 0.4137(4) 0.40864(18)
C9_3 C 0.5870(3) 0.4489(4) 0.4045(2)
C10_3 C 0.5626(3) 0.4563(5) 0.3701(2)
C11_3 C 0.5856(4) 0.4280(5) 0.3393(2)
H5_3 H 0.5695 0.4350 0.3158
C12_3 C 0.6333(4) 0.3882(5) 0.3414(2)
C13_3 C 0.6571(3) 0.3870(4) 0.3769(3)
H6_3 H 0.6902 0.3661 0.3791
C14_3 C 0.5147(2) 0.5043(7) 0.36787(19)
C15_3 C 0.5030(5) 0.5687(4) 0.3848(2)
H7_3 H 0.5282 0.5919 0.3998
C16_3 C 0.4558(3) 0.5981(5) 0.3800(2)
H8_3 H 0.4486 0.6421 0.3915
C17_3 C 0.4165(3) 0.5646(4) 0.3579(2)
C18_3 C 0.4256(3) 0.4998(5) 0.33974(18)
H9_3 H 0.3997 0.4796 0.3241
C19_3 C 0.4744(3) 0.4646(4) 0.34513(17)
H10_3 H 0.4810 0.4192 0.3350
C20_3 C 0.3621(4) 0.5992(5) 0.3530(2)
C21_3 C 0.6526(3) 0.3577(6) 0.3084(3)
C22_3 C 0.6538(3) 0.3848(4) 0.2745(3)
H11_3 H 0.6433 0.4328 0.2718
C23_3 C 0.6679(3) 0.3518(5) 0.2446(2)
H12_3 H 0.6690 0.3770 0.2221
C24_3 C 0.6820(3) 0.2771(6) 0.2455(2)
C25_3 C 0.6876(4) 0.2511(5) 0.2828(4)
H13_3 H 0.7050 0.2073 0.2864
C26_3 C 0.6711(4) 0.2817(8) 0.3108(2)
H14_3 H 0.6703 0.2572 0.3336
C27_3 C 0.6978(3) 0.2467(4) 0.2054(3)
C28_3 C 0.8580(4) 0.3712(3) 0.6948(3)
C29_3 C 0.9049(4) 0.3641(3) 0.7218(2)
C30_3 C 0.8987(3) 0.3927(4) 0.7573(3)
H15_3 H 0.8687 0.4174 0.7641
C31_3 C 0.9438(5) 0.3807(4) 0.7834(2)
H16_3 H 0.9386 0.3939 0.8082
C32_3 C 0.9891(4) 0.3547(3) 0.7767(3)
C33_3 C 0.9923(3) 0.3298(5) 0.7410(3)
C34_3 C 0.9505(4) 0.3333(5) 0.7143(2)
H18_3 H 0.9550 0.3133 0.6906
N2_3 N 0.5584(5) 0.4741(8) 0.4398(4)
O1_3 O 0.75769(13) 0.34129(15) 0.63900(9)
O2_3 O 0.7307(2) 0.4782(3) 0.72866(14)
O3_3 O 0.64698(17) 0.1875(2) 0.61223(13)
O4_3 O 0.89338(17) 0.3547(2) 0.57986(14)
O5_3 O 0.7764(2) 0.35663(18) 0.55931(9)
O6_3 O 0.7042(2) 0.2942(3) 0.57142(15)
O11_3 O 0.87035(16) 0.3496(2) 0.66058(14)
O12_3 O 0.8176(2) 0.3980(3) 0.70433(17)
Co1_2 Co 0.82078(3) 0.35123(3) 0.61182(2)
O21_2 O 0.8268(2) 0.4663(2) 0.61515(12)
O22_2 O 0.7630(3) 0.4914(4) 0.6570(3)
O23_2 O 0.75745(18) 0.18616(15) 0.61952(11)
O24_2 O 0.83442(16) 0.23905(18) 0.60758(11)
H29_3 H 0.736772 0.451913 0.752716
H30_3 H 0.693871 0.495649 0.727055
H31_3 H 0.52313 0.49932 0.437134
H32_3 H 0.574845 0.465467 0.465701
H33_3 H 0.920521 0.324119 0.592578
H34_3 H 0.906136 0.405384 0.578536
H35_3 H 0.65727 0.161808 0.589066
H36_3 H 0.612205 0.210702 0.607923
C14_4 C 0.4853(2) 0.0043(7) 0.13213(19)
C15_4 C 0.4970(5) 0.0687(4) 0.1152(2)
H7_4 H 0.4718 0.0919 0.1002
C16_4 C 0.5442(3) 0.0981(5) 0.1200(2)
H8_4 H 0.5514 0.1421 0.1085
C17_4 C 0.5835(3) 0.0646(4) 0.1421(2)
C20_4 C 0.6379(4) 0.0992(5) 0.1470(2)
C4_4 C 0.3679(4) 0.8608(5) 0.0236(3)
H2_4 H 0.4035 0.8505 0.0266
C5_4 C 0.3404(4) 0.8940(5) 0.0526(2)
C6_4 C 0.2886(4) 0.9091(4) 0.04717(18)
H3_4 H 0.2704 0.9323 0.0659
C7_4 C 0.2627(3) 0.8900(4) 0.0138(2)
H4_4 H 0.2268 0.8981 0.0109
C8_4 C 0.3637(4) 0.9137(4) 0.09136(18)
C9_4 C 0.4130(3) 0.9489(4) 0.0955(2)
C10_4 C 0.4374(3) 0.9563(5) 0.1299(2)
C11_4 C 0.4144(4) 0.9280(5) 0.1607(2)
H5_4 H 0.4305 0.9350 0.1842
C12_4 C 0.3667(4) 0.8882(5) 0.1586(2)
C13_4 C 0.3429(3) 0.8870(4) 0.1231(3)
H6_4 H 0.3098 0.8661 0.1209
C18_4 C 0.5744(3) 0.9998(5) 0.16026(18)
H9_4 H 0.6003 0.9796 0.1759
C19_4 C 0.5256(3) 0.9646(4) 0.15487(17)
H10_4 H 0.5190 0.9192 0.1650
C21_4 C 0.3474(3) 0.8577(6) 0.1916(3)
C22_4 C 0.3462(3) 0.8848(4) 0.2255(3)
H11_4 H 0.3567 0.9328 0.2282
C23_4 C 0.3321(3) 0.8518(5) 0.2554(2)
H12_4 H 0.3310 0.8770 0.2779
C24_4 C 0.3180(3) 0.7771(6) 0.2545(2)
C25_4 C 0.3124(4) 0.7511(5) 0.2172(4)
H13_4 H 0.2950 0.7073 0.2136
C26_4 C 0.3289(4) 0.7817(8) 0.1892(2)
H14_4 H 0.3297 0.7572 0.1664
C27_4 C 0.3022(3) 0.7467(4) 0.2946(3)
N2_4 N 0.4416(5) 0.9741(8) 0.0602(4)
H31_4 H 0.47687 0.99932 0.0628658
H32_4 H 0.425155 0.965467 0.0342995
C1_4 C 0.2725(3) 0.8303(4) 0.9455(2)
C2_4 C 0.2898(3) 0.8594(4) 0.9856(2)
C3_4 C 0.3427(4) 0.8446(4) 0.9921(2)
H1_4 H 0.3611 0.8221 0.9732
C28_4 C 0.1420(4) 0.8712(3) 0.8052(3)
C29_4 C 0.0951(4) 0.8641(3) 0.7782(2)
C30_4 C 0.1013(3) 0.8927(4) 0.7427(3)
H15_4 H 0.1313 0.9174 0.7359
C31_4 C 0.0562(5) 0.8807(4) 0.7166(2)
H16_4 H 0.0614 0.8939 0.6918
C32_4 C 0.0109(4) 0.8547(3) 0.7233(3)
C33_4 C 0.0077(3) 0.8298(5) 0.7590(3)
C34_4 C 0.0495(4) 0.8333(5) 0.7857(2)
H18_4 H 0.0450 0.8133 0.8094
O1_4 O 0.24231(13) 0.84129(15) 0.86100(9)
O2_4 O 0.2693(2) 0.9782(3) 0.77134(14)
O3_4 O 0.35302(17) 0.6875(2) 0.88777(13)
O4_4 O 0.10662(17) 0.8547(2) 0.92014(14)
O5_4 O 0.2236(2) 0.85663(18) 0.94069(9)
O6_4 O 0.2958(2) 0.7942(3) 0.92858(15)
O11_4 O 0.12965(16) 0.8496(2) 0.83942(14)
O12_4 O 0.1824(2) 0.8980(3) 0.79567(17)
H29_4 H 0.263228 0.951913 0.747284
H30_4 H 0.306129 0.995649 0.772945
H33_4 H 0.079479 0.824119 0.907422
H34_4 H 0.093864 0.905384 0.921464
H35_4 H 0.34273 0.661808 0.910934
H36_4 H 0.387795 0.710702 0.892077
C50_4 C 0.8010(3) 0.0569(4) 0.6332(2)
H26_4 H 0.7647 0.0624 0.6330
C51_4 C 0.8356(4) 0.1143(3) 0.62397(17)
C52_4 C 0.8871(4) 0.1043(5) 0.6257(2)
H27_4 H 0.9088 0.1430 0.6200
C53_4 C 0.9089(3) 0.0428(4) 0.63518(18)
H28_4 H 0.9453 0.0394 0.6368
C54_4 C 0.8056(4) 0.1861(5) 0.6160(2)
H17_4 H 0.9762 0.8094 0.7663
C35_4 C 0.9686(3) 0.8540(4) 0.6979(2)
C36_4 C 0.9477(3) 0.7927(4) 0.6862(2)
C37_4 C 0.9048(3) 0.7853(3) 0.6608(2)
C38_4 C 0.8828(3) 0.8496(3) 0.64821(19)
H19_4 H 0.8512 0.8479 0.6346
C39_4 C 0.9059(3) 0.9168(3) 0.6550(2)
C40_4 C 0.9483(3) 0.9181(3) 0.6808(2)
H20_4 H 0.9637 0.9623 0.6870
C41_4 C 0.8750(5) 0.7172(3) 0.6527(3)
C42_4 C 0.9000(4) 0.6660(6) 0.6309(3)
H21_4 H 0.9325 0.6763 0.6210
C43_4 C 0.8755(6) 0.5968(4) 0.6238(3)
H22_4 H 0.8922 0.5627 0.6091
C44_4 C 0.8293(4) 0.5818(4) 0.6382(2)
C45_4 C 0.8052(4) 0.6331(5) 0.6565(3)
H23_4 H 0.7721 0.6231 0.6655
C46_4 C 0.8259(4) 0.7012(7) 0.6631(4)
H24_4 H 0.8058 0.7361 0.6749
C47_4 C 0.7946(5) 0.5108(3) 0.6419(3)
C48_4 C 0.8790(4) 0.9829(3) 0.64276(17)
C49_4 C 0.8251(4) 0.9936(3) 0.64239(18)
H25_4 H 0.8041 0.9547 0.6489
N1_4 N 0.9632(4) 0.7175(3) 0.7030(4)
H37_4 H 0.945758 0.671868 0.692864
H38_4 H 0.99073 0.714188 0.72407
loop_
_geom_bond_atom_site_label_1
_geom_bond_atom_site_label_2
_geom_bond_site_symmetry_1
_geom_bond_site_symmetry_2
C1 C2 1_555 1_555
C2 C3 1_555 1_555
C3 H1 1_555 1_555
C4 C3 1_555 1_555
H2 C4 1_555 1_555
C5 C4 1_555 1_555
C6 C5 1_555 1_555
H3 C6 1_555 1_555
C7 C2 1_555 1_555
H4 C7 1_555 1_555
C8 C5 1_555 1_555
C9 C8 1_555 1_555
C10 C9 1_555 1_555
C11 C10 1_555 1_555
H5 C11 1_555 1_555
C12 C11 1_555 1_555
C13 C8 1_555 1_555
H6 C13 1_555 1_555
C14 C10 1_555 1_555
C15 C14 1_555 1_555
H7 C15 1_555 1_555
C16 C15 1_555 1_555
H8 C16 1_555 1_555
C17 C16 1_555 1_555
C18 C17 1_555 1_555
H9 C18 1_555 1_555
C19 C14 1_555 1_555
H10 C19 1_555 1_555
C20 C17 1_555 1_555
C21 C12 1_555 1_555
C22 C21 1_555 1_555
H11 C22 1_555 1_555
C23 C22 1_555 1_555
H12 C23 1_555 1_555
C24 C23 1_555 1_555
C25 C24 1_555 1_555
H13 C25 1_555 1_555
C26 C21 1_555 1_555
H14 C26 1_555 1_555
C27 C24 1_555 1_555
C28 C29 1_555 1_555
C29 C30 1_555 1_555
C30 H15 1_555 1_555
C31 C30 1_555 1_555
H16 C31 1_555 1_555
C32 C31 1_555 1_555
C33 C32 1_555 1_555
C34 C29 1_555 1_555
H18 C34 1_555 1_555
N2 C9 1_555 1_555
O1 Fe1 1_555 1_555
O2 Fe2 1_555 1_555
O3 Fe1 1_555 1_555
O4 Co1 1_555 1_555
O5 C1 1_555 1_555
O6 C1 1_555 1_555
O7 C20 1_555 1_555
O8 C20 1_555 1_555
O9 C27 1_555 1_555
O10 C27 1_555 1_555
O11 C28 1_555 1_555
O12 C28 1_555 1_555
Fe1 O6 1_555 1_555
Fe2 O1 1_555 1_555
Co1 O1 1_555 1_555
O17 Fe1 1_555 1_555
O18 Fe2 1_555 1_555
O19 Fe1 1_555 1_555
O20 Fe2 1_555 1_555
O21 Co1 1_555 1_555
O22 Fe2 1_555 1_555
O23 Fe1 1_555 1_555
O24 Co1 1_555 1_555
Fe4 O7 1_555 1_555
Fe5 O9 1_555 1_555
Fe7 O8 1_555 1_555
Fe8 O10 1_555 1_555
C6 C7 1_555 1_555
C12 C13 1_555 1_555
C18 C19 1_555 1_555
C25 C26 1_555 1_555
C33 C34 1_555 1_555
O5 Co1 1_555 1_555
O11 Co1 1_555 1_555
O12 Fe2 1_555 1_555
O2 H29 1_555 1_555
O2 H30 1_555 1_555
N2 H31 1_555 1_555
N2 H32 1_555 1_555
O4 H33 1_555 1_555
O4 H34 1_555 1_555
O3 H35 1_555 1_555
O3 H36 1_555 1_555
Fe6 O14 1_555 1_555
Co3 O13 1_555 1_555
C36 C35 1_555 1_555
C37 C36 1_555 1_555
C38 C37 1_555 1_555
H19 C38 1_555 1_555
C39 C38 1_555 1_555
C40 C35 1_555 1_555
H20 C40 1_555 1_555
C41 C37 1_555 1_555
C42 C41 1_555 1_555
H21 C42 1_555 1_555
C43 C42 1_555 1_555
H22 C43 1_555 1_555
C44 C43 1_555 1_555
C45 C44 1_555 1_555
H23 C45 1_555 1_555
C46 C41 1_555 1_555
H24 C46 1_555 1_555
C47 C44 1_555 1_555
C48 C39 1_555 1_555
C49 C48 1_555 1_555
H25 C49 1_555 1_555
C50 C49 1_555 1_555
H26 C50 1_555 1_555
C51 C50 1_555 1_555
C52 C51 1_555 1_555
H27 C52 1_555 1_555
C53 C48 1_555 1_555
H28 C53 1_555 1_555
C54 C51 1_555 1_555
N1 C36 1_555 1_555
O15 C54 1_555 1_555
O16 C54 1_555 1_555
Fe3 O15 1_555 1_555
Co3 O16 1_555 1_555
C39 C40 1_555 1_555
C45 C46 1_555 1_555
C52 C53 1_555 1_555
N1 H37 1_555 1_555
N1 H38 1_555 1_555
C36_2 C35_2 1_555 1_555
C37_2 C36_2 1_555 1_555
C38_2 C37_2 1_555 1_555
H19_2 C38_2 1_555 1_555
C39_2 C38_2 1_555 1_555
C40_2 C35_2 1_555 1_555
H20_2 C40_2 1_555 1_555
C41_2 C37_2 1_555 1_555
C42_2 C41_2 1_555 1_555
H21_2 C42_2 1_555 1_555
C43_2 C42_2 1_555 1_555
H22_2 C43_2 1_555 1_555
C44_2 C43_2 1_555 1_555
C45_2 C44_2 1_555 1_555
H23_2 C45_2 1_555 1_555
C46_2 C41_2 1_555 1_555
H24_2 C46_2 1_555 1_555
C47_2 C44_2 1_555 1_555
C48_2 C39_2 1_555 1_555
C49_2 C48_2 1_555 1_555
H25_2 C49_2 1_555 1_555
N1_2 C36_2 1_555 1_555
O21 C47_2 1_555 1_555
O22 C47_2 1_555 1_555
C39_2 C40_2 1_555 1_555
C45_2 C46_2 1_555 1_555
N1_2 H37_2 1_555 1_555
N1_2 H38_2 1_555 1_555
H26_2 C50_2 1_555 1_555
C51_2 C50_2 1_555 1_555
C52_2 C51_2 1_555 1_555
H27_2 C52_2 1_555 1_555
H28_2 C53_2 1_555 1_555
C54_2 C51_2 1_555 1_555
O23 C54_2 1_555 1_555
O24 C54_2 1_555 1_555
C52_2 C53_2 1_555 1_555
C1_2 C2_2 1_555 1_555
C2_2 C3_2 1_555 1_555
C3_2 H1_2 1_555 1_555
C28_2 C29_2 1_555 1_555
C29_2 C30_2 1_555 1_555
C30_2 H15_2 1_555 1_555
C31_2 C30_2 1_555 1_555
H16_2 C31_2 1_555 1_555
C32_2 C31_2 1_555 1_555
C33_2 C32_2 1_555 1_555
C34_2 C29_2 1_555 1_555
H18_2 C34_2 1_555 1_555
O1_2 Fe3 1_555 1_555
O2_2 Fe6 1_555 1_555
O3_2 Fe3 1_555 1_555
O4_2 Co3 1_555 1_555
O5_2 C1_2 1_555 1_555
O6_2 C1_2 1_555 1_555
O11_2 C28_2 1_555 1_555
O12_2 C28_2 1_555 1_555
Fe3 O6_2 1_555 1_555
Fe6 O1_2 1_555 1_555
Co3 O1_2 1_555 1_555
O17_2 Fe3 1_555 1_555
O18_2 Fe6 1_555 1_555
O19_2 Fe3 1_555 1_555
O20_2 Fe6 1_555 1_555
C33_2 C34_2 1_555 1_555
O5_2 Co3 1_555 1_555
O11_2 Co3 1_555 1_555
O12_2 Fe6 1_555 1_555
O2_2 H29_2 1_555 1_555
O2_2 H30_2 1_555 1_555
O4_2 H33_2 1_555 1_555
O4_2 H34_2 1_555 1_555
O3_2 H35_2 1_555 1_555
O3_2 H36_2 1_555 1_555
H2_2 C4_2 1_555 1_555
C5_2 C4_2 1_555 1_555
C6_2 C5_2 1_555 1_555
H3_2 C6_2 1_555 1_555
H4_2 C7_2 1_555 1_555
C8_2 C5_2 1_555 1_555
C9_2 C8_2 1_555 1_555
C10_2 C9_2 1_555 1_555
C11_2 C10_2 1_555 1_555
H5_2 C11_2 1_555 1_555
C12_2 C11_2 1_555 1_555
C13_2 C8_2 1_555 1_555
H6_2 C13_2 1_555 1_555
H9_2 C18_2 1_555 1_555
H10_2 C19_2 1_555 1_555
C21_2 C12_2 1_555 1_555
C22_2 C21_2 1_555 1_555
H11_2 C22_2 1_555 1_555
C23_2 C22_2 1_555 1_555
H12_2 C23_2 1_555 1_555
C24_2 C23_2 1_555 1_555
C25_2 C24_2 1_555 1_555
H13_2 C25_2 1_555 1_555
C26_2 C21_2 1_555 1_555
H14_2 C26_2 1_555 1_555
C27_2 C24_2 1_555 1_555
N2_2 C9_2 1_555 1_555
O9_2 C27_2 1_555 1_555
O10_2 C27_2 1_555 1_555
Fe4 O9_2 1_555 1_555
Fe7 O10_2 1_555 1_555
C6_2 C7_2 1_555 1_555
C12_2 C13_2 1_555 1_555
C18_2 C19_2 1_555 1_555
C25_2 C26_2 1_555 1_555
N2_2 H31_2 1_555 1_555
N2_2 H32_2 1_555 1_555
C15_2 C14_2 1_555 1_555
H7_2 C15_2 1_555 1_555
C16_2 C15_2 1_555 1_555
H8_2 C16_2 1_555 1_555
C17_2 C16_2 1_555 1_555
C20_2 C17_2 1_555 1_555
O7_2 C20_2 1_555 1_555
O8_2 C20_2 1_555 1_555
Fe5 O7_2 1_555 1_555
Fe8 O8_2 1_555 1_555
C36_3 C35_3 1_555 1_555
C37_3 C36_3 1_555 1_555
C38_3 C37_3 1_555 1_555
H19_3 C38_3 1_555 1_555
C39_3 C38_3 1_555 1_555
C40_3 C35_3 1_555 1_555
H20_3 C40_3 1_555 1_555
C41_3 C37_3 1_555 1_555
C42_3 C41_3 1_555 1_555
H21_3 C42_3 1_555 1_555
C43_3 C42_3 1_555 1_555
H22_3 C43_3 1_555 1_555
C44_3 C43_3 1_555 1_555
C45_3 C44_3 1_555 1_555
H23_3 C45_3 1_555 1_555
C46_3 C41_3 1_555 1_555
H24_3 C46_3 1_555 1_555
C47_3 C44_3 1_555 1_555
C48_3 C39_3 1_555 1_555
C49_3 C48_3 1_555 1_555
H25_3 C49_3 1_555 1_555
C50_3 C49_3 1_555 1_555
H26_3 C50_3 1_555 1_555
C51_3 C50_3 1_555 1_555
C52_3 C51_3 1_555 1_555
H27_3 C52_3 1_555 1_555
C53_3 C48_3 1_555 1_555
H28_3 C53_3 1_555 1_555
C54_3 C51_3 1_555 1_555
N1_3 C36_3 1_555 1_555
O15_2 C54_3 1_555 1_555
O16_2 C54_3 1_555 1_555
Fe5 O15_2 1_555 1_555
Co2 O16_2 1_555 1_555
C39_3 C40_3 1_555 1_555
C45_3 C46_3 1_555 1_555
C52_3 C53_3 1_555 1_555
N1_3 H37_3 1_555 1_555
N1_3 H38_3 1_555 1_555
Fe8 O14_2 1_555 1_555
Co2 O13_2 1_555 1_555
C1_3 C2_3 1_555 1_555
C2_3 C3_3 1_555 1_555
C3_3 H1_3 1_555 1_555
C4_3 C3_3 1_555 1_555
H2_3 C4_3 1_555 1_555
C5_3 C4_3 1_555 1_555
C6_3 C5_3 1_555 1_555
H3_3 C6_3 1_555 1_555
C7_3 C2_3 1_555 1_555
H4_3 C7_3 1_555 1_555
C8_3 C5_3 1_555 1_555
C9_3 C8_3 1_555 1_555
C10_3 C9_3 1_555 1_555
C11_3 C10_3 1_555 1_555
H5_3 C11_3 1_555 1_555
C12_3 C11_3 1_555 1_555
C13_3 C8_3 1_555 1_555
H6_3 C13_3 1_555 1_555
C14_3 C10_3 1_555 1_555
C15_3 C14_3 1_555 1_555
H7_3 C15_3 1_555 1_555
C16_3 C15_3 1_555 1_555
H8_3 C16_3 1_555 1_555
C17_3 C16_3 1_555 1_555
C18_3 C17_3 1_555 1_555
H9_3 C18_3 1_555 1_555
C19_3 C14_3 1_555 1_555
H10_3 C19_3 1_555 1_555
C20_3 C17_3 1_555 1_555
C21_3 C12_3 1_555 1_555
C22_3 C21_3 1_555 1_555
H11_3 C22_3 1_555 1_555
C23_3 C22_3 1_555 1_555
H12_3 C23_3 1_555 1_555
C24_3 C23_3 1_555 1_555
C25_3 C24_3 1_555 1_555
H13_3 C25_3 1_555 1_555
C26_3 C21_3 1_555 1_555
H14_3 C26_3 1_555 1_555
C27_3 C24_3 1_555 1_555
C28_3 C29_3 1_555 1_555
C29_3 C30_3 1_555 1_555
C30_3 H15_3 1_555 1_555
C31_3 C30_3 1_555 1_555
H16_3 C31_3 1_555 1_555
C32_3 C31_3 1_555 1_555
C33_3 C32_3 1_555 1_555
C34_3 C29_3 1_555 1_555
H18_3 C34_3 1_555 1_555
N2_3 C9_3 1_555 1_555
O1_3 Fe4 1_555 1_555
O2_3 Fe7 1_555 1_555
O3_3 Fe4 1_555 1_555
O4_3 Co1_2 1_555 1_555
O5_3 C1_3 1_555 1_555
O6_3 C1_3 1_555 1_555
O17 C20_3 1_555 1_555
O18 C20_3 1_555 1_555
O19_2 C27_3 1_555 1_555
O20_2 C27_3 1_555 1_555
O11_3 C28_3 1_555 1_555
O12_3 C28_3 1_555 1_555
Fe4 O6_3 1_555 1_555
Fe7 O1_3 1_555 1_555
Co1_2 O1_3 1_555 1_555
O21_2 Co1_2 1_555 1_555
O22_2 Fe7 1_555 1_555
O23_2 Fe4 1_555 1_555
O24_2 Co1_2 1_555 1_555
C6_3 C7_3 1_555 1_555
C12_3 C13_3 1_555 1_555
C18_3 C19_3 1_555 1_555
C25_3 C26_3 1_555 1_555
C33_3 C34_3 1_555 1_555
O5_3 Co1_2 1_555 1_555
O11_3 Co1_2 1_555 1_555
O12_3 Fe7 1_555 1_555
O2_3 H29_3 1_555 1_555
O2_3 H30_3 1_555 1_555
N2_3 H31_3 1_555 1_555
N2_3 H32_3 1_555 1_555
O4_3 H33_3 1_555 1_555
O4_3 H34_3 1_555 1_555
O3_3 H35_3 1_555 1_555
O3_3 H36_3 1_555 1_555
C15_4 C14_4 1_555 1_555
H7_4 C15_4 1_555 1_555
C16_4 C15_4 1_555 1_555
H8_4 C16_4 1_555 1_555
C17_4 C16_4 1_555 1_555
C20_4 C17_4 1_555 1_555
O17_2 C20_4 1_555 1_555
O18_2 C20_4 1_555 1_555
H2_4 C4_4 1_555 1_555
C5_4 C4_4 1_555 1_555
C6_4 C5_4 1_555 1_555
H3_4 C6_4 1_555 1_555
H4_4 C7_4 1_555 1_555
C8_4 C5_4 1_555 1_555
C9_4 C8_4 1_555 1_555
C10_4 C9_4 1_555 1_555
C11_4 C10_4 1_555 1_555
H5_4 C11_4 1_555 1_555
C12_4 C11_4 1_555 1_555
C13_4 C8_4 1_555 1_555
H6_4 C13_4 1_555 1_555
H9_4 C18_4 1_555 1_555
H10_4 C19_4 1_555 1_555
C21_4 C12_4 1_555 1_555
C22_4 C21_4 1_555 1_555
H11_4 C22_4 1_555 1_555
C23_4 C22_4 1_555 1_555
H12_4 C23_4 1_555 1_555
C24_4 C23_4 1_555 1_555
C25_4 C24_4 1_555 1_555
H13_4 C25_4 1_555 1_555
C26_4 C21_4 1_555 1_555
H14_4 C26_4 1_555 1_555
C27_4 C24_4 1_555 1_555
N2_4 C9_4 1_555 1_555
O19 C27_4 1_555 1_555
O20 C27_4 1_555 1_555
C6_4 C7_4 1_555 1_555
C12_4 C13_4 1_555 1_555
C18_4 C19_4 1_555 1_555
C25_4 C26_4 1_555 1_555
N2_4 H31_4 1_555 1_555
N2_4 H32_4 1_555 1_555
C1_4 C2_4 1_555 1_555
C2_4 C3_4 1_555 1_555
C3_4 H1_4 1_555 1_555
C28_4 C29_4 1_555 1_555
C29_4 C30_4 1_555 1_555
C30_4 H15_4 1_555 1_555
C31_4 C30_4 1_555 1_555
H16_4 C31_4 1_555 1_555
C32_4 C31_4 1_555 1_555
C33_4 C32_4 1_555 1_555
C34_4 C29_4 1_555 1_555
H18_4 C34_4 1_555 1_555
O1_4 Fe5 1_555 1_555
O2_4 Fe8 1_555 1_555
O3_4 Fe5 1_555 1_555
O4_4 Co2 1_555 1_555
O5_4 C1_4 1_555 1_555
O6_4 C1_4 1_555 1_555
O11_4 C28_4 1_555 1_555
O12_4 C28_4 1_555 1_555
Fe5 O6_4 1_555 1_555
Fe8 O1_4 1_555 1_555
Co2 O1_4 1_555 1_555
C33_4 C34_4 1_555 1_555
O5_4 Co2 1_555 1_555
O11_4 Co2 1_555 1_555
O12_4 Fe8 1_555 1_555
O2_4 H29_4 1_555 1_555
O2_4 H30_4 1_555 1_555
O4_4 H33_4 1_555 1_555
O4_4 H34_4 1_555 1_555
O3_4 H35_4 1_555 1_555
O3_4 H36_4 1_555 1_555
H26_4 C50_4 1_555 1_555
C51_4 C50_4 1_555 1_555
C52_4 C51_4 1_555 1_555
H27_4 C52_4 1_555 1_555
H28_4 C53_4 1_555 1_555
C54_4 C51_4 1_555 1_555
O23_2 C54_4 1_555 1_555
O24_2 C54_4 1_555 1_555
C52_4 C53_4 1_555 1_555
C36_4 C35_4 1_555 1_555
C37_4 C36_4 1_555 1_555
C38_4 C37_4 1_555 1_555
H19_4 C38_4 1_555 1_555
C39_4 C38_4 1_555 1_555
C40_4 C35_4 1_555 1_555
H20_4 C40_4 1_555 1_555
C41_4 C37_4 1_555 1_555
C42_4 C41_4 1_555 1_555
H21_4 C42_4 1_555 1_555
C43_4 C42_4 1_555 1_555
H22_4 C43_4 1_555 1_555
C44_4 C43_4 1_555 1_555
C45_4 C44_4 1_555 1_555
H23_4 C45_4 1_555 1_555
C46_4 C41_4 1_555 1_555
H24_4 C46_4 1_555 1_555
C47_4 C44_4 1_555 1_555
C48_4 C39_4 1_555 1_555
C49_4 C48_4 1_555 1_555
H25_4 C49_4 1_555 1_555
N1_4 C36_4 1_555 1_555
O21_2 C47_4 1_555 1_555
O22_2 C47_4 1_555 1_555
C39_4 C40_4 1_555 1_555
C45_4 C46_4 1_555 1_555
N1_4 H37_4 1_555 1_555
N1_4 H38_4 1_555 1_555

#END
