
###############################################################################
#
# This file contains modified crystal structure data generated from the
# MOF subset of the Cambridge Structural Database (CSD) v543 
# hosted by the Cambridge Crystallographic Data Centre (CCDC).
#
# This work is licensed under the Creative Commons
# Attribution-NonCommercial-ShareAlike 4.0 International License.
# To view a copy of this license, visit
# http://creativecommons.org/licenses/by-nc-sa/4.0/
# or send a letter to
# Creative Commons, PO Box 1866, Mountain View, CA 94042, USA.
#
# CIF created using the CSD Python API on 29 September 2022
# The structure has been converted into the P1 space group
# The structure has a 3D framework
# The original CSD entry ZITMIB is in the tetragonal crystal system
# The framework has been calculated to contain at least 10.0% void space
# The void calculation uses a probe of radius 1.32A, grid spacing 0.4
#
###############################################################################

data_ZITMIB
_chemical_formula_moiety         '(C144 H80 N40 O48 S8 Zn16)n'
_symmetry_cell_setting           triclinic
_symmetry_space_group_name_H-M   'P 1'
_symmetry_Int_Tables_number      1
_space_group_name_Hall           'P 1'
loop_
_symmetry_equiv_pos_site_id
_symmetry_equiv_pos_as_xyz
1 x,y,z
_cell_length_a                   13.2316(3)
_cell_length_b                   13.2316(3)
_cell_length_c                   35.9040(9)
_cell_angle_alpha                90
_cell_angle_beta                 90
_cell_angle_gamma                90
_cell_volume                     6285.9
loop_
_atom_site_label
_atom_site_type_symbol
_atom_site_fract_x
_atom_site_fract_y
_atom_site_fract_z
N3 N 0.0157(5) 0.7643(5) 0.47313(16)
H2 H 0.0025 0.8417 0.5210
Zn5 Zn 0.16325(7) 0.76751(7) 0.46086(2)
Zn1 Zn 0.82998(8) 0.78034(7) 0.95574(2)
Zn2 Zn 0.76751(7) 0.83675(7) 0.53914(2)
S1 S 0.6985(2) 0.9072(3) 0.75777(6)
O1 O 0.8100(6) 0.7997(6) 0.58842(15)
O2 O 0.6775(6) 0.8945(5) 0.60381(16)
O4 O 0.5924(7) 0.8849(10) 0.7620(2)
O5 O 0.7964(7) 0.8317(8) 0.90503(17)
O6 O 0.8862(6) 0.6962(6) 0.90172(17)
N1 N 0.8711(5) 0.7855(5) 0.50327(17)
N2 N 0.8530(5) 0.7309(5) 0.47198(16)
N4 N 0.6344(5) 0.7755(5) 0.52422(16)
N5 N 0.6149(5) 0.7158(5) 0.49372(15)
N6 N 0.4753(5) 0.7304(5) 0.52570(16)
C1 C 0.9408(6) 0.7192(6) 0.4547(2)
H1 H 0.9491 0.6839 0.4325
C2 C 0.9693(6) 0.8045(7) 0.5027(2)
C3 C 0.5183(6) 0.6909(6) 0.49566(19)
H3 H 0.4848 0.6509 0.4783
C4 C 0.5493(5) 0.7818(6) 0.5426(2)
H4 H 0.5412 0.8177 0.5647
C5 C 0.7490(9) 0.8407(8) 0.6123(2)
C6 C 0.7748(9) 0.8175(8) 0.6529(2)
C7 C 0.7236(10) 0.8712(8) 0.6805(3)
H5 H 0.6761 0.9204 0.6746
C8 C 0.7471(8) 0.8477(8) 0.7170(2)
C9 C 0.8175(8) 0.7755(8) 0.7264(2)
C10 C 0.8650(10) 0.7211(9) 0.6987(3)
H6 H 0.9098 0.6693 0.7044
C11 C 0.8439(9) 0.7462(9) 0.6622(2)
H7 H 0.8783 0.7128 0.6432
C12 C 0.8307(8) 0.7657(8) 0.7674(2)
C13 C 0.7740(8) 0.8316(9) 0.7875(2)
C14 C 0.7739(8) 0.8350(9) 0.8263(2)
H8 H 0.7329 0.8801 0.8392
C15 C 0.8369(8) 0.7688(8) 0.8449(2)
C16 C 0.8935(9) 0.6994(9) 0.8246(3)
H9 H 0.9332 0.6530 0.8374
C17 C 0.8930(9) 0.6967(9) 0.7859(3)
H10 H 0.9326 0.6507 0.7729
C18 C 0.8419(8) 0.7647(9) 0.8865(2)
Zn3 Zn 0.32998(8) 0.71966(7) 0.54426(2)
Zn4 Zn 0.71966(7) 0.67002(8) 0.45574(2)
N7 N 0.7691(5) 0.6470(5) 0.97198(16)
N8 N 0.7643(5) 0.9843(5) 0.52687(16)
N9 N 0.7842(5) 0.8851(5) 0.99372(15)
N10 N 0.9753(5) 0.7696(5) 0.97430(16)
Zn1_2 Zn 0.17002(8) 0.21966(7) 0.95574(2)
Zn2_2 Zn 0.23249(7) 0.16325(7) 0.53914(2)
S1_2 S 0.3015(2) 0.0928(3) 0.75777(6)
O1_2 O 0.1900(6) 0.2003(6) 0.58842(15)
O2_2 O 0.3225(6) 0.1055(5) 0.60381(16)
O4_2 O 0.4076(7) 0.1151(10) 0.7620(2)
O5_2 O 0.2036(7) 0.1683(8) 0.90503(17)
O6_2 O 0.1138(6) 0.3038(6) 0.90172(17)
N1_2 N 0.1289(5) 0.2145(5) 0.50327(17)
N2_2 N 0.1470(5) 0.2691(5) 0.47198(16)
N4_2 N 0.3656(5) 0.2245(5) 0.52422(16)
N5_2 N 0.3851(5) 0.2842(5) 0.49372(15)
N6_2 N 0.5247(5) 0.2696(5) 0.52570(16)
C1_2 C 0.0592(6) 0.2808(6) 0.4547(2)
H1_2 H 0.0509 0.3161 0.4325
C2_2 C 0.0307(6) 0.1955(7) 0.5027(2)
C3_2 C 0.4817(6) 0.3091(6) 0.49566(19)
H3_2 H 0.5152 0.3491 0.4783
C4_2 C 0.4507(5) 0.2182(6) 0.5426(2)
H4_2 H 0.4588 0.1823 0.5647
C5_2 C 0.2510(9) 0.1593(8) 0.6123(2)
C6_2 C 0.2252(9) 0.1825(8) 0.6529(2)
C7_2 C 0.2764(10) 0.1288(8) 0.6805(3)
H5_2 H 0.3239 0.0796 0.6746
C8_2 C 0.2529(8) 0.1523(8) 0.7170(2)
C9_2 C 0.1825(8) 0.2245(8) 0.7264(2)
C10_2 C 0.1350(10) 0.2789(9) 0.6987(3)
H6_2 H 0.0902 0.3307 0.7044
C11_2 C 0.1561(9) 0.2538(9) 0.6622(2)
H7_2 H 0.1217 0.2872 0.6432
C12_2 C 0.1693(8) 0.2343(8) 0.7674(2)
C13_2 C 0.2260(8) 0.1684(9) 0.7875(2)
C14_2 C 0.2261(8) 0.1650(9) 0.8263(2)
H8_2 H 0.2671 0.1199 0.8392
C15_2 C 0.1631(8) 0.2312(8) 0.8449(2)
C16_2 C 0.1065(9) 0.3006(9) 0.8246(3)
H9_2 H 0.0668 0.3470 0.8374
C17_2 C 0.1070(9) 0.3033(9) 0.7859(3)
H10_2 H 0.0674 0.3493 0.7729
C18_2 C 0.1581(8) 0.2353(9) 0.8865(2)
Zn3_2 Zn 0.67002(8) 0.28034(7) 0.54426(2)
Zn4_2 Zn 0.28034(7) 0.32998(8) 0.45574(2)
N7_2 N 0.2309(5) 0.3530(5) 0.97198(16)
N8_2 N 0.2357(5) 0.0157(5) 0.52687(16)
N9_2 N 0.2158(5) 0.1149(5) 0.99372(15)
N10_2 N 0.0247(5) 0.2304(5) 0.97430(16)
N3_2 N 0.9843(5) 0.2357(5) 0.47313(16)
H2_2 H 0.9975 0.1583 0.5210
Zn5_2 Zn 0.83675(7) 0.23249(7) 0.46086(2)
Zn1_3 Zn 0.78034(7) 0.17002(8) 0.04426(2)
S1_3 S 0.9072(3) 0.3015(2) 0.24223(6)
O1_3 O 0.7997(6) 0.1900(6) 0.41158(15)
O2_3 O 0.8945(5) 0.3225(6) 0.39619(16)
O4_3 O 0.8849(10) 0.4076(7) 0.2380(2)
O5_3 O 0.8317(8) 0.2036(7) 0.09497(17)
O6_3 O 0.6962(6) 0.1138(6) 0.09828(17)
N1_3 N 0.7855(5) 0.1289(5) 0.49673(17)
N2_3 N 0.7309(5) 0.1470(5) 0.52802(16)
N4_3 N 0.7755(5) 0.3656(5) 0.47578(16)
N5_3 N 0.7158(5) 0.3851(5) 0.50628(15)
N6_3 N 0.7304(5) 0.5247(5) 0.47430(16)
C1_3 C 0.7192(6) 0.0592(6) 0.5453(2)
H1_3 H 0.6839 0.0509 0.5675
C2_3 C 0.8045(7) 0.0307(6) 0.4973(2)
C3_3 C 0.6909(6) 0.4817(6) 0.50434(19)
H3_3 H 0.6509 0.5152 0.5217
C4_3 C 0.7818(6) 0.4507(5) 0.4574(2)
H4_3 H 0.8177 0.4588 0.4353
C5_3 C 0.8407(8) 0.2510(9) 0.3877(2)
C6_3 C 0.8175(8) 0.2252(9) 0.3471(2)
C7_3 C 0.8712(8) 0.2764(10) 0.3195(3)
H5_3 H 0.9204 0.3239 0.3254
C8_3 C 0.8477(8) 0.2529(8) 0.2830(2)
C9_3 C 0.7755(8) 0.1825(8) 0.2736(2)
C10_3 C 0.7211(9) 0.1350(10) 0.3013(3)
H6_3 H 0.6693 0.0902 0.2956
C11_3 C 0.7462(9) 0.1561(9) 0.3378(2)
H7_3 H 0.7128 0.1217 0.3568
C12_3 C 0.7657(8) 0.1693(8) 0.2326(2)
C13_3 C 0.8316(9) 0.2260(8) 0.2125(2)
C14_3 C 0.8350(9) 0.2261(8) 0.1737(2)
H8_3 H 0.8801 0.2671 0.1608
C15_3 C 0.7688(8) 0.1631(8) 0.1551(2)
C16_3 C 0.6994(9) 0.1065(9) 0.1754(3)
H9_3 H 0.6530 0.0668 0.1626
C17_3 C 0.6967(9) 0.1070(9) 0.2141(3)
H10_3 H 0.6507 0.0674 0.2271
C18_3 C 0.7647(9) 0.1581(8) 0.1135(2)
N7_3 N 0.6470(5) 0.2309(5) 0.02802(16)
N9_3 N 0.8851(5) 0.2158(5) 0.00628(15)
N10_3 N 0.7696(5) 0.0247(5) 0.02570(16)
H2_3 H 0.8417 0.9975 0.4790
H2_4 H 0.1583 0.0025 0.4790
Zn1_4 Zn 0.21966(7) 0.82998(8) 0.04426(2)
S1_4 S 0.0928(3) 0.6985(2) 0.24223(6)
O1_4 O 0.2003(6) 0.8100(6) 0.41158(15)
O2_4 O 0.1055(5) 0.6775(6) 0.39619(16)
O4_4 O 0.1151(10) 0.5924(7) 0.2380(2)
O5_4 O 0.1683(8) 0.7964(7) 0.09497(17)
O6_4 O 0.3038(6) 0.8862(6) 0.09828(17)
N1_4 N 0.2145(5) 0.8711(5) 0.49673(17)
N2_4 N 0.2691(5) 0.8530(5) 0.52802(16)
N4_4 N 0.2245(5) 0.6344(5) 0.47578(16)
N5_4 N 0.2842(5) 0.6149(5) 0.50628(15)
N6_4 N 0.2696(5) 0.4753(5) 0.47430(16)
C1_4 C 0.2808(6) 0.9408(6) 0.5453(2)
H1_4 H 0.3161 0.9491 0.5675
C2_4 C 0.1955(7) 0.9693(6) 0.4973(2)
C3_4 C 0.3091(6) 0.5183(6) 0.50434(19)
H3_4 H 0.3491 0.4848 0.5217
C4_4 C 0.2182(6) 0.5493(5) 0.4574(2)
H4_4 H 0.1823 0.5412 0.4353
C5_4 C 0.1593(8) 0.7490(9) 0.3877(2)
C6_4 C 0.1825(8) 0.7748(9) 0.3471(2)
C7_4 C 0.1288(8) 0.7236(10) 0.3195(3)
H5_4 H 0.0796 0.6761 0.3254
C8_4 C 0.1523(8) 0.7471(8) 0.2830(2)
C9_4 C 0.2245(8) 0.8175(8) 0.2736(2)
C10_4 C 0.2789(9) 0.8650(10) 0.3013(3)
H6_4 H 0.3307 0.9098 0.2956
C11_4 C 0.2538(9) 0.8439(9) 0.3378(2)
H7_4 H 0.2872 0.8783 0.3568
C12_4 C 0.2343(8) 0.8307(8) 0.2326(2)
C13_4 C 0.1684(9) 0.7740(8) 0.2125(2)
C14_4 C 0.1650(9) 0.7739(8) 0.1737(2)
H8_4 H 0.1199 0.7329 0.1608
C15_4 C 0.2312(8) 0.8369(8) 0.1551(2)
C16_4 C 0.3006(9) 0.8935(9) 0.1754(3)
H9_4 H 0.3470 0.9332 0.1626
C17_4 C 0.3033(9) 0.8930(9) 0.2141(3)
H10_4 H 0.3493 0.9326 0.2271
C18_4 C 0.2353(9) 0.8419(8) 0.1135(2)
N7_4 N 0.3530(5) 0.7691(5) 0.02802(16)
N9_4 N 0.1149(5) 0.7842(5) 0.00628(15)
N10_4 N 0.2304(5) 0.9753(5) 0.02570(16)
N3_3 N 0.4843(5) 0.2643(5) 0.02687(16)
C1_5 C 0.5592(6) 0.2192(6) 0.0453(2)
H1_5 H 0.5509 0.1839 0.0675
C3_5 C 0.9817(6) 0.1909(6) 0.00434(19)
Zn5_3 Zn 0.33675(7) 0.26751(7) 0.03914(2)
Zn2_3 Zn 0.73249(7) 0.33675(7) 0.96086(2)
S1_5 S 0.8015(2) 0.4072(3) 0.74223(6)
O1_5 O 0.6900(6) 0.2997(6) 0.91158(15)
O2_5 O 0.8225(6) 0.3945(5) 0.89619(16)
O3 O 0.7702(9) 0.5102(7) 0.7402(2)
O4_5 O 0.9076(7) 0.3849(10) 0.7380(2)
O5_5 O 0.7036(7) 0.3317(8) 0.59497(17)
O6_5 O 0.6138(6) 0.1962(6) 0.59828(17)
N1_5 N 0.6289(5) 0.2855(5) 0.99673(17)
N4_5 N 0.8656(5) 0.2755(5) 0.97578(16)
C2_5 C 0.5307(6) 0.3045(7) 0.9973(2)
H2_5 H 0.4975 0.3417 0.9790
C4_5 C 0.9507(5) 0.2818(6) 0.9574(2)
H4_5 H 0.9588 0.3177 0.9353
C5_5 C 0.7510(9) 0.3407(8) 0.8877(2)
C6_5 C 0.7252(9) 0.3175(8) 0.8471(2)
C7_5 C 0.7764(10) 0.3712(8) 0.8195(3)
H5_5 H 0.8239 0.4204 0.8254
C8_5 C 0.7529(8) 0.3477(8) 0.7830(2)
C9_5 C 0.6825(8) 0.2755(8) 0.7736(2)
C10_5 C 0.6350(10) 0.2211(9) 0.8013(3)
H6_5 H 0.5902 0.1693 0.7956
C11_5 C 0.6561(9) 0.2462(9) 0.8378(2)
H7_5 H 0.6217 0.2128 0.8568
C12_5 C 0.6693(8) 0.2657(8) 0.7326(2)
C13_5 C 0.7260(8) 0.3316(9) 0.7125(2)
C14_5 C 0.7261(8) 0.3350(9) 0.6737(2)
H8_5 H 0.7671 0.3801 0.6608
C15_5 C 0.6631(8) 0.2688(8) 0.6551(2)
C16_5 C 0.6065(9) 0.1994(9) 0.6754(3)
H9_5 H 0.5668 0.1530 0.6626
C17_5 C 0.6070(9) 0.1967(9) 0.7141(3)
H10_5 H 0.5674 0.1507 0.7271
C18_5 C 0.6581(8) 0.2647(9) 0.6135(2)
N8_3 N 0.7357(5) 0.4843(5) 0.97313(16)
N3_4 N 0.5157(5) 0.7357(5) 0.02687(16)
C1_6 C 0.4408(6) 0.7808(6) 0.0453(2)
H1_6 H 0.4491 0.8161 0.0675
C3_6 C 0.0183(6) 0.8091(6) 0.00434(19)
Zn5_4 Zn 0.66325(7) 0.73249(7) 0.03914(2)
Zn2_4 Zn 0.26751(7) 0.66325(7) 0.96086(2)
S1_6 S 0.1985(2) 0.5928(3) 0.74223(6)
O1_6 O 0.3100(6) 0.7003(6) 0.91158(15)
O2_6 O 0.1775(6) 0.6055(5) 0.89619(16)
O3_2 O 0.2298(9) 0.4898(7) 0.7402(2)
O4_6 O 0.0924(7) 0.6151(10) 0.7380(2)
O5_6 O 0.2964(7) 0.6683(8) 0.59497(17)
O6_6 O 0.3862(6) 0.8038(6) 0.59828(17)
N1_6 N 0.3711(5) 0.7145(5) 0.99673(17)
N4_6 N 0.1344(5) 0.7245(5) 0.97578(16)
C2_6 C 0.4693(6) 0.6955(7) 0.9973(2)
H2_6 H 0.5025 0.6583 0.9790
C4_6 C 0.0493(5) 0.7182(6) 0.9574(2)
H4_6 H 0.0412 0.6823 0.9353
C5_6 C 0.2490(9) 0.6593(8) 0.8877(2)
C6_6 C 0.2748(9) 0.6825(8) 0.8471(2)
C7_6 C 0.2236(10) 0.6288(8) 0.8195(3)
H5_6 H 0.1761 0.5796 0.8254
C8_6 C 0.2471(8) 0.6523(8) 0.7830(2)
C9_6 C 0.3175(8) 0.7245(8) 0.7736(2)
C10_6 C 0.3650(10) 0.7789(9) 0.8013(3)
H6_6 H 0.4098 0.8307 0.7956
C11_6 C 0.3439(9) 0.7538(9) 0.8378(2)
H7_6 H 0.3783 0.7872 0.8568
C12_6 C 0.3307(8) 0.7343(8) 0.7326(2)
C13_6 C 0.2740(8) 0.6684(9) 0.7125(2)
C14_6 C 0.2739(8) 0.6650(9) 0.6737(2)
H8_6 H 0.2329 0.6199 0.6608
C15_6 C 0.3369(8) 0.7312(8) 0.6551(2)
C16_6 C 0.3935(9) 0.8006(9) 0.6754(3)
H9_6 H 0.4332 0.8470 0.6626
C17_6 C 0.3930(9) 0.8033(9) 0.7141(3)
H10_6 H 0.4326 0.8493 0.7271
C18_6 C 0.3419(8) 0.7353(9) 0.6135(2)
N8_4 N 0.2643(5) 0.5157(5) 0.97313(16)
S1_7 S 0.5928(3) 0.8015(2) 0.25777(6)
O1_7 O 0.7003(6) 0.6900(6) 0.08842(15)
O2_7 O 0.6055(5) 0.8225(6) 0.10381(16)
O3_3 O 0.4898(7) 0.7702(9) 0.2598(2)
O4_7 O 0.6151(10) 0.9076(7) 0.2620(2)
O5_7 O 0.6683(8) 0.7036(7) 0.40503(17)
O6_7 O 0.8038(6) 0.6138(6) 0.40172(17)
N1_7 N 0.7145(5) 0.6289(5) 0.00327(17)
N4_7 N 0.7245(5) 0.8656(5) 0.02422(16)
C2_7 C 0.6955(7) 0.5307(6) 0.0027(2)
H2_7 H 0.6583 0.4975 0.0210
C4_7 C 0.7182(6) 0.9507(5) 0.0426(2)
H4_7 H 0.6823 0.9588 0.0647
C5_7 C 0.6593(8) 0.7510(9) 0.1123(2)
C6_7 C 0.6825(8) 0.7252(9) 0.1529(2)
C7_7 C 0.6288(8) 0.7764(10) 0.1805(3)
H5_7 H 0.5796 0.8239 0.1746
C8_7 C 0.6523(8) 0.7529(8) 0.2170(2)
C9_7 C 0.7245(8) 0.6825(8) 0.2264(2)
C10_7 C 0.7789(9) 0.6350(10) 0.1987(3)
H6_7 H 0.8307 0.5902 0.2044
C11_7 C 0.7538(9) 0.6561(9) 0.1622(2)
H7_7 H 0.7872 0.6217 0.1432
C12_7 C 0.7343(8) 0.6693(8) 0.2674(2)
C13_7 C 0.6684(9) 0.7260(8) 0.2875(2)
C14_7 C 0.6650(9) 0.7261(8) 0.3263(2)
H8_7 H 0.6199 0.7671 0.3392
C15_7 C 0.7312(8) 0.6631(8) 0.3449(2)
C16_7 C 0.8006(9) 0.6065(9) 0.3246(3)
H9_7 H 0.8470 0.5668 0.3374
C17_7 C 0.8033(9) 0.6070(9) 0.2859(3)
H10_7 H 0.8493 0.5674 0.2729
C18_7 C 0.7353(9) 0.6581(8) 0.3865(2)
C1_7 C 0.7808(6) 0.5592(6) 0.9547(2)
H1_7 H 0.8161 0.5509 0.9325
C3_7 C 0.8091(6) 0.9817(6) 0.99566(19)
S1_8 S 0.4072(3) 0.1985(2) 0.25777(6)
O1_8 O 0.2997(6) 0.3100(6) 0.08842(15)
O2_8 O 0.3945(5) 0.1775(6) 0.10381(16)
O3_4 O 0.5102(7) 0.2298(9) 0.2598(2)
O4_8 O 0.3849(10) 0.0924(7) 0.2620(2)
O5_8 O 0.3317(8) 0.2964(7) 0.40503(17)
O6_8 O 0.1962(6) 0.3862(6) 0.40172(17)
N1_8 N 0.2855(5) 0.3711(5) 0.00327(17)
N4_8 N 0.2755(5) 0.1344(5) 0.02422(16)
C2_8 C 0.3045(7) 0.4693(6) 0.0027(2)
H2_8 H 0.3417 0.5025 0.0210
C4_8 C 0.2818(6) 0.0493(5) 0.0426(2)
H4_8 H 0.3177 0.0412 0.0647
C5_8 C 0.3407(8) 0.2490(9) 0.1123(2)
C6_8 C 0.3175(8) 0.2748(9) 0.1529(2)
C7_8 C 0.3712(8) 0.2236(10) 0.1805(3)
H5_8 H 0.4204 0.1761 0.1746
C8_8 C 0.3477(8) 0.2471(8) 0.2170(2)
C9_8 C 0.2755(8) 0.3175(8) 0.2264(2)
C10_8 C 0.2211(9) 0.3650(10) 0.1987(3)
H6_8 H 0.1693 0.4098 0.2044
C11_8 C 0.2462(9) 0.3439(9) 0.1622(2)
H7_8 H 0.2128 0.3783 0.1432
C12_8 C 0.2657(8) 0.3307(8) 0.2674(2)
C13_8 C 0.3316(9) 0.2740(8) 0.2875(2)
C14_8 C 0.3350(9) 0.2739(8) 0.3263(2)
H8_8 H 0.3801 0.2329 0.3392
C15_8 C 0.2688(8) 0.3369(8) 0.3449(2)
C16_8 C 0.1994(9) 0.3935(9) 0.3246(3)
H9_8 H 0.1530 0.4332 0.3374
C17_8 C 0.1967(9) 0.3930(9) 0.2859(3)
H10_8 H 0.1507 0.4326 0.2729
C18_8 C 0.2647(9) 0.3419(8) 0.3865(2)
C1_8 C 0.2192(6) 0.4408(6) 0.9547(2)
H1_8 H 0.1839 0.4491 0.9325
C3_8 C 0.1909(6) 0.0183(6) 0.99566(19)
O3_5 O 0.7298(9) 0.0102(7) 0.7598(2)
O3_6 O 0.2702(9) 0.9898(7) 0.7598(2)
O3_7 O 0.0102(7) 0.2702(9) 0.2402(2)
O3_8 O 0.9898(7) 0.7298(9) 0.2402(2)
H3_5 H 0.0152 0.1509 0.0217
H3_6 H 0.9848 0.8491 0.0217
H3_7 H 0.8491 0.0152 0.9783
H3_8 H 0.1509 0.9848 0.9783
loop_
_geom_bond_atom_site_label_1
_geom_bond_atom_site_label_2
_geom_bond_site_symmetry_1
_geom_bond_site_symmetry_2
Zn5 N3 1_555 1_555
Zn1 O5 1_555 1_555
Zn2 O1 1_555 1_555
O1 C5 1_555 1_555
O2 C5 1_555 1_555
O4 S1 1_555 1_555
O5 C18 1_555 1_555
O6 Zn1 1_555 1_555
N1 Zn2 1_555 1_555
N2 N1 1_555 1_555
N4 Zn2 1_555 1_555
N5 N4 1_555 1_555
N6 C3 1_555 1_555
C1 N2 1_555 1_555
H1 C1 1_555 1_555
C2 N1 1_555 1_555
C3 N5 1_555 1_555
H3 C3 1_555 1_555
C4 N4 1_555 1_555
H4 C4 1_555 1_555
C5 C6 1_555 1_555
C6 C7 1_555 1_555
C7 H5 1_555 1_555
C8 S1 1_555 1_555
C9 C8 1_555 1_555
C10 C9 1_555 1_555
H6 C10 1_555 1_555
C11 C6 1_555 1_555
H7 C11 1_555 1_555
C12 C9 1_555 1_555
C13 S1 1_555 1_555
C14 C13 1_555 1_555
H8 C14 1_555 1_555
C15 C14 1_555 1_555
C16 C15 1_555 1_555
H9 C16 1_555 1_555
C17 C12 1_555 1_555
H10 C17 1_555 1_555
C18 O6 1_555 1_555
Zn3 N6 1_555 1_555
Zn4 N2 1_555 1_555
N7 Zn1 1_555 1_555
N8 Zn2 1_555 1_555
N9 Zn1 1_555 1_555
N10 Zn1 1_555 1_555
N5 Zn4 1_555 1_555
N6 C4 1_555 1_555
C7 C8 1_555 1_555
C10 C11 1_555 1_555
C12 C13 1_555 1_555
C15 C18 1_555 1_555
C16 C17 1_555 1_555
Zn1_2 O5_2 1_555 1_555
Zn2_2 O1_2 1_555 1_555
O1_2 C5_2 1_555 1_555
O2_2 C5_2 1_555 1_555
O4_2 S1_2 1_555 1_555
O5_2 C18_2 1_555 1_555
O6_2 Zn1_2 1_555 1_555
N1_2 Zn2_2 1_555 1_555
N2_2 N1_2 1_555 1_555
N4_2 Zn2_2 1_555 1_555
N5_2 N4_2 1_555 1_555
N6_2 C3_2 1_555 1_555
C1_2 N2_2 1_555 1_555
H1_2 C1_2 1_555 1_555
C2_2 N1_2 1_555 1_555
C3_2 N5_2 1_555 1_555
H3_2 C3_2 1_555 1_555
C4_2 N4_2 1_555 1_555
H4_2 C4_2 1_555 1_555
C5_2 C6_2 1_555 1_555
C6_2 C7_2 1_555 1_555
C7_2 H5_2 1_555 1_555
C8_2 S1_2 1_555 1_555
C9_2 C8_2 1_555 1_555
C10_2 C9_2 1_555 1_555
H6_2 C10_2 1_555 1_555
C11_2 C6_2 1_555 1_555
H7_2 C11_2 1_555 1_555
C12_2 C9_2 1_555 1_555
C13_2 S1_2 1_555 1_555
C14_2 C13_2 1_555 1_555
H8_2 C14_2 1_555 1_555
C15_2 C14_2 1_555 1_555
C16_2 C15_2 1_555 1_555
H9_2 C16_2 1_555 1_555
C17_2 C12_2 1_555 1_555
H10_2 C17_2 1_555 1_555
C18_2 O6_2 1_555 1_555
Zn3_2 N6_2 1_555 1_555
Zn4_2 N2_2 1_555 1_555
N7_2 Zn1_2 1_555 1_555
N8_2 Zn2_2 1_555 1_555
N9_2 Zn1_2 1_555 1_555
N10_2 Zn1_2 1_555 1_555
N5_2 Zn4_2 1_555 1_555
N6_2 C4_2 1_555 1_555
C7_2 C8_2 1_555 1_555
C10_2 C11_2 1_555 1_555
C12_2 C13_2 1_555 1_555
C15_2 C18_2 1_555 1_555
C16_2 C17_2 1_555 1_555
Zn5_2 N3_2 1_555 1_555
Zn1_3 O5_3 1_555 1_555
Zn5_2 O1_3 1_555 1_555
O1_3 C5_3 1_555 1_555
O2_3 C5_3 1_555 1_555
O4_3 S1_3 1_555 1_555
O5_3 C18_3 1_555 1_555
O6_3 Zn1_3 1_555 1_555
N1_3 Zn5_2 1_555 1_555
N2_3 N1_3 1_555 1_555
N4_3 Zn5_2 1_555 1_555
N5_3 N4_3 1_555 1_555
N6_3 C3_3 1_555 1_555
C1_3 N2_3 1_555 1_555
H1_3 C1_3 1_555 1_555
C2_3 N1_3 1_555 1_555
C3_3 N5_3 1_555 1_555
H3_3 C3_3 1_555 1_555
C4_3 N4_3 1_555 1_555
H4_3 C4_3 1_555 1_555
C5_3 C6_3 1_555 1_555
C6_3 C7_3 1_555 1_555
C7_3 H5_3 1_555 1_555
C8_3 S1_3 1_555 1_555
C9_3 C8_3 1_555 1_555
C10_3 C9_3 1_555 1_555
H6_3 C10_3 1_555 1_555
C11_3 C6_3 1_555 1_555
H7_3 C11_3 1_555 1_555
C12_3 C9_3 1_555 1_555
C13_3 S1_3 1_555 1_555
C14_3 C13_3 1_555 1_555
H8_3 C14_3 1_555 1_555
C15_3 C14_3 1_555 1_555
C16_3 C15_3 1_555 1_555
H9_3 C16_3 1_555 1_555
C17_3 C12_3 1_555 1_555
H10_3 C17_3 1_555 1_555
C18_3 O6_3 1_555 1_555
Zn4 N6_3 1_555 1_555
Zn3_2 N2_3 1_555 1_555
N7_3 Zn1_3 1_555 1_555
N9_3 Zn1_3 1_555 1_555
N10_3 Zn1_3 1_555 1_555
N5_3 Zn3_2 1_555 1_555
N6_3 C4_3 1_555 1_555
C7_3 C8_3 1_555 1_555
C10_3 C11_3 1_555 1_555
C12_3 C13_3 1_555 1_555
C15_3 C18_3 1_555 1_555
C16_3 C17_3 1_555 1_555
Zn1_4 O5_4 1_555 1_555
Zn5 O1_4 1_555 1_555
O1_4 C5_4 1_555 1_555
O2_4 C5_4 1_555 1_555
O4_4 S1_4 1_555 1_555
O5_4 C18_4 1_555 1_555
O6_4 Zn1_4 1_555 1_555
N1_4 Zn5 1_555 1_555
N2_4 N1_4 1_555 1_555
N4_4 Zn5 1_555 1_555
N5_4 N4_4 1_555 1_555
N6_4 C3_4 1_555 1_555
C1_4 N2_4 1_555 1_555
H1_4 C1_4 1_555 1_555
C2_4 N1_4 1_555 1_555
C3_4 N5_4 1_555 1_555
H3_4 C3_4 1_555 1_555
C4_4 N4_4 1_555 1_555
H4_4 C4_4 1_555 1_555
C5_4 C6_4 1_555 1_555
C6_4 C7_4 1_555 1_555
C7_4 H5_4 1_555 1_555
C8_4 S1_4 1_555 1_555
C9_4 C8_4 1_555 1_555
C10_4 C9_4 1_555 1_555
H6_4 C10_4 1_555 1_555
C11_4 C6_4 1_555 1_555
H7_4 C11_4 1_555 1_555
C12_4 C9_4 1_555 1_555
C13_4 S1_4 1_555 1_555
C14_4 C13_4 1_555 1_555
H8_4 C14_4 1_555 1_555
C15_4 C14_4 1_555 1_555
C16_4 C15_4 1_555 1_555
H9_4 C16_4 1_555 1_555
C17_4 C12_4 1_555 1_555
H10_4 C17_4 1_555 1_555
C18_4 O6_4 1_555 1_555
Zn4_2 N6_4 1_555 1_555
Zn3 N2_4 1_555 1_555
N7_4 Zn1_4 1_555 1_555
N9_4 Zn1_4 1_555 1_555
N10_4 Zn1_4 1_555 1_555
N5_4 Zn3 1_555 1_555
N6_4 C4_4 1_555 1_555
C7_4 C8_4 1_555 1_555
C10_4 C11_4 1_555 1_555
C12_4 C13_4 1_555 1_555
C15_4 C18_4 1_555 1_555
C16_4 C17_4 1_555 1_555
N3_3 C1_5 1_555 1_555
C1_5 N7_3 1_555 1_555
H1_5 C1_5 1_555 1_555
C3_5 N9_3 1_555 1_555
Zn5_3 N3_3 1_555 1_555
Zn3_2 O5_5 1_555 1_555
Zn2_3 O1_5 1_555 1_555
S1_5 O3 1_555 1_555
O1_5 C5_5 1_555 1_555
O2_5 C5_5 1_555 1_555
O4_5 S1_5 1_555 1_555
O5_5 C18_5 1_555 1_555
O6_5 Zn3_2 1_555 1_555
N1_5 Zn2_3 1_555 1_555
N4_5 Zn2_3 1_555 1_555
C2_5 N1_5 1_555 1_555
H2_5 C2_5 1_555 1_555
C4_5 N4_5 1_555 1_555
H4_5 C4_5 1_555 1_555
C5_5 C6_5 1_555 1_555
C6_5 C7_5 1_555 1_555
C7_5 H5_5 1_555 1_555
C8_5 S1_5 1_555 1_555
C9_5 C8_5 1_555 1_555
C10_5 C9_5 1_555 1_555
H6_5 C10_5 1_555 1_555
C11_5 C6_5 1_555 1_555
H7_5 C11_5 1_555 1_555
C12_5 C9_5 1_555 1_555
C13_5 S1_5 1_555 1_555
C14_5 C13_5 1_555 1_555
H8_5 C14_5 1_555 1_555
C15_5 C14_5 1_555 1_555
C16_5 C15_5 1_555 1_555
H9_5 C16_5 1_555 1_555
C17_5 C12_5 1_555 1_555
H10_5 C17_5 1_555 1_555
C18_5 O6_5 1_555 1_555
N8_3 Zn2_3 1_555 1_555
C7_5 C8_5 1_555 1_555
C10_5 C11_5 1_555 1_555
C12_5 C13_5 1_555 1_555
C15_5 C18_5 1_555 1_555
C16_5 C17_5 1_555 1_555
N3_4 C1_6 1_555 1_555
C1_6 N7_4 1_555 1_555
H1_6 C1_6 1_555 1_555
C3_6 N9_4 1_555 1_555
Zn5_4 N3_4 1_555 1_555
Zn3 O5_6 1_555 1_555
Zn2_4 O1_6 1_555 1_555
S1_6 O3_2 1_555 1_555
O1_6 C5_6 1_555 1_555
O2_6 C5_6 1_555 1_555
O4_6 S1_6 1_555 1_555
O5_6 C18_6 1_555 1_555
O6_6 Zn3 1_555 1_555
N1_6 Zn2_4 1_555 1_555
N4_6 Zn2_4 1_555 1_555
C2_6 N1_6 1_555 1_555
H2_6 C2_6 1_555 1_555
C4_6 N4_6 1_555 1_555
H4_6 C4_6 1_555 1_555
C5_6 C6_6 1_555 1_555
C6_6 C7_6 1_555 1_555
C7_6 H5_6 1_555 1_555
C8_6 S1_6 1_555 1_555
C9_6 C8_6 1_555 1_555
C10_6 C9_6 1_555 1_555
H6_6 C10_6 1_555 1_555
C11_6 C6_6 1_555 1_555
H7_6 C11_6 1_555 1_555
C12_6 C9_6 1_555 1_555
C13_6 S1_6 1_555 1_555
C14_6 C13_6 1_555 1_555
H8_6 C14_6 1_555 1_555
C15_6 C14_6 1_555 1_555
C16_6 C15_6 1_555 1_555
H9_6 C16_6 1_555 1_555
C17_6 C12_6 1_555 1_555
H10_6 C17_6 1_555 1_555
C18_6 O6_6 1_555 1_555
N8_4 Zn2_4 1_555 1_555
C7_6 C8_6 1_555 1_555
C10_6 C11_6 1_555 1_555
C12_6 C13_6 1_555 1_555
C15_6 C18_6 1_555 1_555
C16_6 C17_6 1_555 1_555
Zn4 O5_7 1_555 1_555
Zn5_4 O1_7 1_555 1_555
S1_7 O3_3 1_555 1_555
O1_7 C5_7 1_555 1_555
O2_7 C5_7 1_555 1_555
O4_7 S1_7 1_555 1_555
O5_7 C18_7 1_555 1_555
O6_7 Zn4 1_555 1_555
N1_7 Zn5_4 1_555 1_555
N4_7 Zn5_4 1_555 1_555
C2_7 N1_7 1_555 1_555
H2_7 C2_7 1_555 1_555
C4_7 N4_7 1_555 1_555
H4_7 C4_7 1_555 1_555
C5_7 C6_7 1_555 1_555
C6_7 C7_7 1_555 1_555
C7_7 H5_7 1_555 1_555
C8_7 S1_7 1_555 1_555
C9_7 C8_7 1_555 1_555
C10_7 C9_7 1_555 1_555
H6_7 C10_7 1_555 1_555
C11_7 C6_7 1_555 1_555
H7_7 C11_7 1_555 1_555
C12_7 C9_7 1_555 1_555
C13_7 S1_7 1_555 1_555
C14_7 C13_7 1_555 1_555
H8_7 C14_7 1_555 1_555
C15_7 C14_7 1_555 1_555
C16_7 C15_7 1_555 1_555
H9_7 C16_7 1_555 1_555
C17_7 C12_7 1_555 1_555
H10_7 C17_7 1_555 1_555
C18_7 O6_7 1_555 1_555
C7_7 C8_7 1_555 1_555
C10_7 C11_7 1_555 1_555
C12_7 C13_7 1_555 1_555
C15_7 C18_7 1_555 1_555
C16_7 C17_7 1_555 1_555
N8_3 C1_7 1_555 1_555
C1_7 N7 1_555 1_555
H1_7 C1_7 1_555 1_555
C3_7 N9 1_555 1_555
Zn4_2 O5_8 1_555 1_555
Zn5_3 O1_8 1_555 1_555
S1_8 O3_4 1_555 1_555
O1_8 C5_8 1_555 1_555
O2_8 C5_8 1_555 1_555
O4_8 S1_8 1_555 1_555
O5_8 C18_8 1_555 1_555
O6_8 Zn4_2 1_555 1_555
N1_8 Zn5_3 1_555 1_555
N4_8 Zn5_3 1_555 1_555
C2_8 N1_8 1_555 1_555
H2_8 C2_8 1_555 1_555
C4_8 N4_8 1_555 1_555
H4_8 C4_8 1_555 1_555
C5_8 C6_8 1_555 1_555
C6_8 C7_8 1_555 1_555
C7_8 H5_8 1_555 1_555
C8_8 S1_8 1_555 1_555
C9_8 C8_8 1_555 1_555
C10_8 C9_8 1_555 1_555
H6_8 C10_8 1_555 1_555
C11_8 C6_8 1_555 1_555
H7_8 C11_8 1_555 1_555
C12_8 C9_8 1_555 1_555
C13_8 S1_8 1_555 1_555
C14_8 C13_8 1_555 1_555
H8_8 C14_8 1_555 1_555
C15_8 C14_8 1_555 1_555
C16_8 C15_8 1_555 1_555
H9_8 C16_8 1_555 1_555
C17_8 C12_8 1_555 1_555
H10_8 C17_8 1_555 1_555
C18_8 O6_8 1_555 1_555
C7_8 C8_8 1_555 1_555
C10_8 C11_8 1_555 1_555
C12_8 C13_8 1_555 1_555
C15_8 C18_8 1_555 1_555
C16_8 C17_8 1_555 1_555
N8_4 C1_8 1_555 1_555
C1_8 N7_2 1_555 1_555
H1_8 C1_8 1_555 1_555
C3_8 N9_2 1_555 1_555

#END
