
###############################################################################
#
# This file contains modified crystal structure data generated from the
# MOF subset of the Cambridge Structural Database (CSD) v543 
# hosted by the Cambridge Crystallographic Data Centre (CCDC).
#
# This work is licensed under the Creative Commons
# Attribution-NonCommercial-ShareAlike 4.0 International License.
# To view a copy of this license, visit
# http://creativecommons.org/licenses/by-nc-sa/4.0/
# or send a letter to
# Creative Commons, PO Box 1866, Mountain View, CA 94042, USA.
#
# CIF created using the CSD Python API on 29 September 2022
# The structure has been converted into the P1 space group
# The structure has a 3D framework
# The original CSD entry ZIWLUO is in the triclinic crystal system
# The framework has been calculated to contain at least 10.0% void space
# The void calculation uses a probe of radius 1.32A, grid spacing 0.4
#
###############################################################################

data_ZIWLUO
_chemical_formula_moiety         '(C252 H144 N84 O54 Zn18)n'
_symmetry_cell_setting           triclinic
_symmetry_space_group_name_H-M   'P 1'
_symmetry_Int_Tables_number      1
_space_group_name_Hall           'P 1'
loop_
_symmetry_equiv_pos_site_id
_symmetry_equiv_pos_as_xyz
1 x,y,z
_cell_length_a                   19.801(7)
_cell_length_b                   20.162(7)
_cell_length_c                   27.225(9)
_cell_angle_alpha                97.544(5)
_cell_angle_beta                 100.609(5)
_cell_angle_gamma                111.627(5)
_cell_volume                     9692.38
loop_
_atom_site_label
_atom_site_type_symbol
_atom_site_fract_x
_atom_site_fract_y
_atom_site_fract_z
O9 O 0.0883(4) 0.5823(4) 0.2468(3)
O10 O 0.1268(3) 0.6148(3) 0.1788(3)
O11 O 0.5872(3) 0.3961(3) 0.0723(2)
O12 O 0.6138(3) 0.3240(3) 0.12013(18)
N5 N 0.1928(2) 0.2873(2) 0.21863(18)
N6 N 0.2805(3) 0.2423(2) 0.19466(18)
N7 N 0.2751(3) 0.3499(2) 0.17164(19)
C25 C 0.1405(4) 0.0511(3) 0.2788(2)
C26 C 0.1056(4) 0.0994(3) 0.2786(2)
H24 H 0.0628 0.0905 0.2920
C27 C 0.1336(4) 0.1603(3) 0.2588(2)
H25 H 0.1105 0.1940 0.2593
C28 C 0.1941(3) 0.1733(3) 0.2384(2)
C29 C 0.2289(3) 0.1257(3) 0.2396(2)
H26 H 0.2723 0.1352 0.2268
C30 C 0.2016(4) 0.0646(3) 0.2590(2)
H27 H 0.2253 0.0314 0.2587
C31 C 0.2239(3) 0.2381(3) 0.2157(2)
C32 C 0.2200(3) 0.3423(3) 0.1958(2)
C33 C 0.3059(3) 0.3006(3) 0.1745(2)
C34 C 0.1906(3) 0.3979(3) 0.1963(2)
C35 C 0.1438(3) 0.4027(3) 0.2276(2)
H28 H 0.1268 0.3655 0.2461
C36 C 0.1215(3) 0.4595(3) 0.2327(3)
H29 H 0.0917 0.4628 0.2558
C37 C 0.1423(4) 0.5115(4) 0.2044(3)
C38 C 0.1857(4) 0.5062(3) 0.1708(3)
H30 H 0.1981 0.5411 0.1501
C39 C 0.2116(3) 0.4503(3) 0.1670(3)
H31 H 0.2428 0.4480 0.1447
C40 C 0.1180(4) 0.5764(4) 0.2122(5)
C41 C 0.3715(3) 0.3116(3) 0.1529(2)
C42 C 0.3967(4) 0.3673(3) 0.1272(3)
H32 H 0.3703 0.3978 0.1221
C43 C 0.4587(4) 0.3786(4) 0.1094(3)
H33 H 0.4745 0.4158 0.0908
C44 C 0.4992(3) 0.3360(4) 0.1182(2)
C45 C 0.4743(4) 0.2810(4) 0.1428(3)
H34 H 0.5012 0.2511 0.1482
C46 C 0.4106(3) 0.2680(3) 0.1601(2)
H35 H 0.3936 0.2289 0.1770
C47 C 0.5718(4) 0.3526(4) 0.1019(3)
Zn11 Zn 0.06265(4) 0.66882(3) 0.19364(3)
Zn16 Zn 0.70354(4) 0.36791(4) 0.09631(3)
Zn4 Zn 0.16166(4) 0.76243(4) 0.57125(3)
Zn5 Zn 0.04032(4) 0.89018(4) 0.34986(3)
O7 O 0.1455(3) 0.9429(2) 0.30174(19)
O8 O 0.0578(3) 0.9750(2) 0.32014(18)
N14 N 0.1288(3) 0.7982(3) 0.5088(2)
N15 N 0.0378(3) 0.8073(2) 0.44855(18)
N16 N 0.1204(3) 0.9019(3) 0.4127(2)
N17 N 0.2509(3) 0.9444(3) 0.4537(2)
N18 N 0.2951(3) 0.8986(3) 0.5182(2)
H1 H 0.3407 0.9294 0.5191
H2 H 0.2886 0.8687 0.5395
N19 N 0.0179(3) 0.7896(2) 0.30998(19)
N20 N 0.0340(3) 0.7035(3) 0.25736(19)
C24 C 0.1137(4) 0.9845(4) 0.3009(3)
C95 C 0.0568(4) 0.7761(3) 0.4865(2)
H60 H 0.0196 0.7394 0.4969
C96 C 0.1620(4) 0.8507(3) 0.4826(3)
C97 C 0.1067(4) 0.8568(3) 0.4469(2)
C98 C 0.1939(5) 0.9432(4) 0.4207(3)
H61 H 0.2060 0.9766 0.3989
C99 C 0.2366(4) 0.8972(4) 0.4850(3)
C100 C 0.0526(3) 0.7732(3) 0.2764(2)
H62 H 0.0898 0.8105 0.2663
H64 H 0.0001 0.5088 0.1342
O30 O 0.0727(3) 0.7502(3) 0.5976(2)
O37 O 0.2664(4) 0.7586(4) 0.5286(3)
O38 O 0.2121(3) 0.6938(3) 0.5776(3)
O39 O 0.1594(3) 0.7765(2) 0.19288(18)
O40 O 0.0424(3) 0.7500(3) 0.1558(2)
N43 N 0.2392(3) 0.8537(2) 0.6229(2)
O6 O 0.0352(4) 0.6359(4) 0.5635(3)
C23 C 0.0271(5) 0.6880(6) 0.5888(4)
Zn8 Zn 0.86140(4) 0.35883(4) 0.10011(3)
Zn9 Zn 0.93285(4) 0.78222(4) 0.40667(3)
O17 O 0.8439(3) 0.7614(3) 0.4327(2)
O18 O 0.8849(3) 0.6787(3) 0.4545(2)
O21 O 0.9489(2) 0.8715(2) 0.37746(16)
O24 O 0.7711(2) 0.3234(2) 0.12821(15)
N8 N 0.2059(3) 0.1815(2) 0.06096(19)
N9 N 0.1355(3) 0.0989(2) 0.10526(18)
N10 N 0.2388(3) 0.0843(2) 0.08074(19)
N11 N 0.5397(3) 0.6207(2) 0.53961(17)
N12 N 0.4716(2) 0.5306(2) 0.58106(17)
N13 N 0.5802(3) 0.5272(2) 0.55728(17)
N21 N 0.9208(3) 0.7086(3) 0.34401(19)
N22 N 0.8850(4) 0.5824(3) 0.3090(3)
N23 N 0.9472(4) 0.5397(3) 0.2581(2)
H3 H 0.9209 0.4951 0.2609
H4 H 0.9806 0.5471 0.2398
N24 N 0.9632(3) 0.5862(2) 0.15052(19)
N25 N 0.8879(3) 0.4659(2) 0.12178(18)
N26 N 0.7680(3) 0.4750(3) 0.1235(2)
N27 N 0.7792(3) 0.5974(3) 0.1517(3)
N28 N 0.8912(3) 0.6968(3) 0.1708(3)
H5 H 0.8671 0.7248 0.1765
H6 H 0.9400 0.7165 0.1744
N29 N 0.6994(3) 0.3384(2) 0.02235(18)
N31 N 0.8139(3) 0.3185(3) 0.02331(19)
C51 C 0.3187(4) 0.2200(3) 0.0072(3)
H37 H 0.2905 0.2489 0.0101
C52 C 0.3069(3) 0.1631(3) 0.0317(2)
C53 C 0.3484(4) 0.1233(3) 0.0273(3)
H38 H 0.3414 0.0839 0.0442
C55 C 0.2469(3) 0.1410(3) 0.0594(2)
C56 C 0.1518(3) 0.1576(3) 0.0858(2)
C57 C 0.1809(3) 0.0650(3) 0.1024(2)
C58 C 0.1070(3) 0.2010(3) 0.0904(2)
C59 C 0.1203(4) 0.2632(3) 0.0692(3)
H40 H 0.1587 0.2776 0.0516
C60 C 0.0783(4) 0.3028(3) 0.0738(3)
H41 H 0.0866 0.3436 0.0582
C61 C 0.0240(3) 0.2851(3) 0.1008(2)
C62 C 0.0104(3) 0.2236(3) 0.1229(2)
C63 C 0.0522(3) 0.1836(3) 0.1174(2)
H43 H 0.0435 0.1424 0.1327
C72 C 0.8386(5) 0.7067(5) 0.4529(3)
C73 C 0.7711(4) 0.6744(4) 0.4749(2)
C74 C 0.7209(4) 0.7052(4) 0.4743(3)
H48 H 0.7276 0.7461 0.4590
C75 C 0.6598(4) 0.6788(3) 0.4953(2)
H49 H 0.6255 0.7017 0.4951
C76 C 0.6506(3) 0.6182(3) 0.5165(2)
C77 C 0.7015(3) 0.5865(3) 0.5160(2)
H50 H 0.6957 0.5451 0.5306
C78 C 0.7613(4) 0.6149(4) 0.4942(3)
H51 H 0.7953 0.5920 0.4930
C79 C 0.5862(3) 0.5876(3) 0.5394(2)
C80 C 0.4820(3) 0.5891(3) 0.5603(2)
C81 C 0.5204(3) 0.5017(3) 0.5778(2)
C82 C 0.5089(3) 0.4345(3) 0.5988(2)
C83 C 0.4569(4) 0.4131(3) 0.6269(2)
H52 H 0.4293 0.4416 0.6334
C84 C 0.4446(4) 0.3517(4) 0.6453(3)
H53 H 0.4090 0.3379 0.6652
C85 C 0.4828(4) 0.3094(3) 0.6357(2)
C86 C 0.5353(4) 0.3288(3) 0.6085(2)
H54 H 0.5622 0.2994 0.6021
C87 C 0.5492(4) 0.3937(3) 0.5898(2)
H55 H 0.5862 0.4088 0.5711
C88 C 0.4252(3) 0.6217(3) 0.5602(2)
C89 C 0.4338(4) 0.6840(4) 0.5419(3)
H56 H 0.4768 0.7075 0.5298
C90 C 0.3813(5) 0.7115(4) 0.5411(3)
H57 H 0.3881 0.7544 0.5281
C91 C 0.3198(4) 0.6808(4) 0.5578(3)
C92 C 0.3130(4) 0.6222(5) 0.5787(3)
H58 H 0.2715 0.6021 0.5929
C93 C 0.3649(4) 0.5900(4) 0.5802(3)
H59 H 0.3588 0.5481 0.5944
C94 C 0.2582(6) 0.7111(5) 0.5575(4)
C101 C 0.9702(3) 0.7226(3) 0.3130(2)
C102 C 0.9796(3) 0.6699(3) 0.2822(2)
C103 C 0.9366(4) 0.5956(4) 0.2812(3)
C104 C 0.8799(4) 0.6369(4) 0.3372(3)
H63 H 0.8420 0.6240 0.3554
C105 C 0.9572(3) 0.5191(3) 0.1354(2)
C106 C 0.8438(3) 0.5031(3) 0.1309(2)
C107 C 0.8891(3) 0.5764(3) 0.1474(2)
C108 C 0.8540(4) 0.6250(3) 0.1567(3)
C109 C 0.7419(4) 0.5266(4) 0.1359(3)
H65 H 0.6894 0.5090 0.1328
H67 H 0.8912 0.2889 0.0046
O26 O 0.4995(4) 0.1999(3) 0.6415(2)
O27 O 0.4242(3) 0.2244(3) 0.6822(2)
C126 C 0.4696(5) 0.2390(5) 0.6536(3)
Zn17 Zn 0.45359(4) 0.11128(4) 0.66828(3)
O35 O 0.9902(3) 0.3840(3) 0.08519(19)
O36 O 0.9209(3) 0.3046(3) 0.12292(17)
Zn1 Zn 0.55489(4) 0.26488(4) 0.88037(3)
O1 O 0.5513(2) 0.3382(2) 0.83862(15)
O2 O 0.6388(2) 0.3079(2) 0.81466(17)
O3 O 0.4610(3) 0.8499(3) 0.6865(2)
O4 O 0.5436(3) 0.9192(3) 0.6532(2)
O13 O 0.4759(2) 0.2605(2) 0.91745(15)
O14 O 0.5076(3) 0.1741(2) 0.94289(18)
O25 O 0.5062(2) 0.05205(18) 0.64476(14)
N2 N 0.7249(2) 0.5668(2) 0.67073(17)
N3 N 0.6323(2) 0.6044(2) 0.69062(17)
N4 N 0.7204(3) 0.6755(2) 0.65008(17)
N30 N 0.6483(3) 0.3030(3) 0.93714(19)
N32 N 0.8219(3) 0.2715(3) 0.9402(2)
N33 N 0.7371(3) 0.2564(3) 0.8661(2)
H7 H 0.7654 0.2429 0.8491
H8 H 0.6953 0.2577 0.8494
N34 N 0.5203(3) 0.1718(2) 0.82739(19)
N35 N 0.4818(3) 0.1164(2) 0.74353(18)
N36 N 0.5161(3) 0.0143(3) 0.75061(19)
N37 N 0.5778(3) 0.0173(3) 0.8362(2)
N38 N 0.5914(3) 0.1033(3) 0.9055(2)
H9 H 0.6127 0.0816 0.9253
H10 H 0.5856 0.1424 0.9190
N40 N 0.2180(4) 0.0290(3) 0.6172(2)
N41 N 0.3447(3) 0.0450(2) 0.64352(19)
C1 C 0.5994(4) 0.3428(3) 0.8125(2)
C2 C 0.6090(3) 0.3956(3) 0.7768(2)
C3 C 0.5779(3) 0.4462(3) 0.7785(2)
H13 H 0.5451 0.4455 0.8001
C4 C 0.5940(3) 0.4978(3) 0.7492(2)
H14 H 0.5721 0.5325 0.7505
C5 C 0.6426(3) 0.4997(3) 0.7175(2)
C6 C 0.6713(3) 0.4465(3) 0.7139(2)
H15 H 0.7027 0.4457 0.6915
C7 C 0.6536(3) 0.3948(3) 0.7434(2)
H16 H 0.6725 0.3578 0.7406
C8 C 0.6676(3) 0.5603(3) 0.6914(2)
C9 C 0.6609(3) 0.6616(3) 0.6696(2)
C10 C 0.7516(3) 0.6272(3) 0.6528(2)
C11 C 0.6229(3) 0.7128(3) 0.6677(2)
C12 C 0.5639(4) 0.7025(3) 0.6902(2)
H17 H 0.5470 0.6622 0.7060
C13 C 0.5521(4) 0.8090(4) 0.6676(3)
C14 C 0.6102(4) 0.8180(3) 0.6449(3)
H18 H 0.6267 0.8584 0.6291
C15 C 0.6457(3) 0.7700(3) 0.6443(2)
H19 H 0.6853 0.7770 0.6277
C16 C 0.5166(5) 0.8625(5) 0.6688(3)
C17 C 0.8203(3) 0.6419(3) 0.6352(2)
C18 C 0.8602(3) 0.7106(3) 0.6267(2)
H20 H 0.8418 0.7478 0.6306
C19 C 0.9277(4) 0.7244(4) 0.6124(3)
H21 H 0.9552 0.7718 0.6075
C20 C 0.9551(4) 0.6721(4) 0.6054(3)
C21 C 0.9143(4) 0.6038(4) 0.6136(3)
H22 H 0.9323 0.5663 0.6091
C22 C 0.8484(4) 0.5896(3) 0.6281(3)
H23 H 0.8215 0.5423 0.6333
C48 C 0.4693(4) 0.2106(4) 0.9427(3)
C49 C 0.4127(3) 0.1958(3) 0.9735(2)
C50 C 0.3713(4) 0.2363(4) 0.9783(3)
H36 H 0.3785 0.2760 0.9616
C54 C 0.4007(4) 0.1392(4) 0.9988(3)
H39 H 0.4291 0.1104 0.9965
C110 C 0.6420(3) 0.3282(3) 0.9830(3)
H66 H 0.6000 0.3383 0.9875
C111 C 0.7159(3) 0.2958(3) 0.9475(2)
C112 C 0.7467(4) 0.3176(3) 0.9995(3)
C113 C 0.8456(4) 0.2925(4) 0.9899(3)
C114 C 0.7576(4) 0.2746(3) 0.9168(3)
C115 C 0.4889(3) 0.1709(3) 0.7799(3)
H68 H 0.4720 0.2077 0.7722
C116 C 0.5113(3) 0.0775(3) 0.7710(2)
C117 C 0.5344(3) 0.1098(3) 0.8214(2)
C118 C 0.5678(4) 0.0771(4) 0.8551(3)
C122 C 0.2905(4) 0.0671(4) 0.6303(3)
H71 H 0.3063 0.1177 0.6303
C125 C 0.5296(4) 0.7510(4) 0.6896(3)
H72 H 0.4889 0.7433 0.7051
Zn12 Zn 0.47331(4) 0.96388(4) 0.67530(3)
C65 C 0.1660(3) 0.9976(3) 0.1224(2)
C66 C 0.0961(4) 0.9608(4) 0.1290(3)
H44 H 0.0591 0.9803 0.1232
C67 C 0.0796(4) 0.8948(4) 0.1443(3)
H45 H 0.0307 0.8692 0.1484
C68 C 0.1312(4) 0.8661(3) 0.1536(2)
C69 C 0.2028(4) 0.9052(3) 0.1493(2)
H46 H 0.2411 0.8880 0.1580
C70 C 0.2182(3) 0.9692(3) 0.1326(2)
H47 H 0.2669 0.9944 0.1280
C71 C 0.1104(5) 0.7935(4) 0.1685(3)
N39 N 0.1177(3) 0.9153(3) 0.6022(2)
H11 H 0.0858 0.9361 0.5972
H12 H 0.1010 0.8677 0.5998
N42 N 0.3614(2) 0.9329(3) 0.65136(18)
C119 C 0.5506(4) 0.9899(4) 0.7860(3)
H69 H 0.5567 0.9466 0.7737
C120 C 0.3107(4) 0.8635(3) 0.6398(2)
H70 H 0.3247 0.8238 0.6435
C121 C 0.3200(4) 0.9728(3) 0.6400(2)
C123 C 0.1916(4) 0.9558(4) 0.6134(3)
C124 C 0.2455(4) 0.9243(3) 0.6239(2)
H42 H 0.9728 0.2102 0.1412
C64 C 0.9765(4) 0.3280(4) 0.1038(3)
O15 O 0.0098(3) 0.6160(3) 0.91481(19)
O16 O 0.0791(3) 0.6954(3) 0.87708(17)
H42_2 H 0.0272 0.7898 0.8588
C64_2 C 0.0235(4) 0.6720(4) 0.8962(3)
Zn18 Zn 0.13860(4) 0.64117(4) 0.89989(3)
Zn3 Zn 0.52669(4) 0.03612(4) 0.32470(3)
N1 N 0.7608(3) 0.1463(2) 0.3771(2)
N39_2 N 0.8823(3) 0.0847(3) 0.3978(2)
H11_2 H 0.9142 0.0639 0.4028
H12_2 H 0.8990 0.1323 0.4002
N42_2 N 0.6386(2) 0.0671(3) 0.34864(18)
C119_2 C 0.4494(4) 0.0101(4) 0.2140(3)
H69_2 H 0.4433 0.0534 0.2263
C120_2 C 0.6893(4) 0.1365(3) 0.3602(2)
H70_2 H 0.6753 0.1762 0.3565
C121_2 C 0.6800(4) 0.0272(3) 0.3600(2)
C123_2 C 0.8084(4) 0.0442(4) 0.3866(3)
C124_2 C 0.7545(4) 0.0757(3) 0.3761(2)
Zn13 Zn 0.83834(4) 0.23757(4) 0.42875(3)
O28 O 0.5390(3) 0.1501(3) 0.3135(2)
O29 O 0.4564(3) 0.0808(3) 0.3468(2)
O22 O 0.8406(3) 0.2235(2) 0.80712(18)
O23 O 0.9576(3) 0.2500(3) 0.8442(2)
C65_2 C 0.8340(3) 0.0024(3) 0.8776(2)
C66_2 C 0.9039(4) 0.0392(4) 0.8710(3)
H44_2 H 0.9409 0.0197 0.8768
C67_2 C 0.9204(4) 0.1052(4) 0.8557(3)
H45_2 H 0.9693 0.1308 0.8516
C68_2 C 0.8688(4) 0.1339(3) 0.8464(2)
C69_2 C 0.7972(4) 0.0948(3) 0.8507(2)
H46_2 H 0.7589 0.1120 0.8420
C70_2 C 0.7818(3) 0.0308(3) 0.8674(2)
H47_2 H 0.7331 0.0056 0.8720
C71_2 C 0.8896(5) 0.2065(4) 0.8315(3)
Zn10 Zn 0.93735(4) 0.33118(3) 0.80636(3)
Zn1_2 Zn 0.44511(4) 0.73512(4) 0.11963(3)
Zn7 Zn 0.54641(4) 0.88872(4) 0.33172(3)
O1_2 O 0.4487(2) 0.6618(2) 0.16138(15)
O2_2 O 0.3612(2) 0.6921(2) 0.18534(17)
O13_2 O 0.5241(2) 0.7395(2) 0.08255(15)
O14_2 O 0.4924(3) 0.8259(2) 0.05711(18)
O25_2 O 0.4938(2) 0.94795(18) 0.35524(14)
N2_2 N 0.2751(2) 0.4332(2) 0.32927(17)
N3_2 N 0.3677(2) 0.3956(2) 0.30938(17)
N4_2 N 0.2796(3) 0.3245(2) 0.34992(17)
N30_2 N 0.3517(3) 0.6970(3) 0.06286(19)
N32_2 N 0.1781(3) 0.7285(3) 0.0598(2)
N33_2 N 0.2629(3) 0.7436(3) 0.1339(2)
H7_2 H 0.2346 0.7571 0.1509
H8_2 H 0.3047 0.7423 0.1506
N34_2 N 0.4797(3) 0.8282(2) 0.17261(19)
N35_2 N 0.5182(3) 0.8836(2) 0.25647(18)
N36_2 N 0.4839(3) 0.9857(3) 0.24939(19)
N37_2 N 0.4222(3) 0.9827(3) 0.1638(2)
N38_2 N 0.4086(3) 0.8967(3) 0.0945(2)
H9_2 H 0.3873 0.9184 0.0747
H10_2 H 0.4144 0.8576 0.0810
N40_2 N 0.7820(4) 0.9710(3) 0.3828(2)
N41_2 N 0.6553(3) 0.9550(2) 0.35648(19)
C1_2 C 0.4006(4) 0.6572(3) 0.1875(2)
C2_2 C 0.3910(3) 0.6044(3) 0.2232(2)
C3_2 C 0.4221(3) 0.5538(3) 0.2215(2)
H13_2 H 0.4549 0.5545 0.1999
C4_2 C 0.4060(3) 0.5022(3) 0.2508(2)
H14_2 H 0.4279 0.4675 0.2495
C5_2 C 0.3574(3) 0.5003(3) 0.2825(2)
C6_2 C 0.3287(3) 0.5535(3) 0.2861(2)
H15_2 H 0.2973 0.5543 0.3085
C7_2 C 0.3464(3) 0.6052(3) 0.2566(2)
H16_2 H 0.3275 0.6422 0.2594
C8_2 C 0.3324(3) 0.4397(3) 0.3086(2)
C9_2 C 0.3391(3) 0.3384(3) 0.3304(2)
C10_2 C 0.2484(3) 0.3728(3) 0.3472(2)
C11_2 C 0.3771(3) 0.2872(3) 0.3323(2)
C12_2 C 0.4361(4) 0.2975(3) 0.3098(2)
H17_2 H 0.4530 0.3378 0.2940
C13_2 C 0.4479(4) 0.1910(4) 0.3324(3)
C14_2 C 0.3898(4) 0.1820(3) 0.3551(3)
H18_2 H 0.3733 0.1416 0.3709
C15_2 C 0.3543(3) 0.2300(3) 0.3557(2)
H19_2 H 0.3147 0.2230 0.3723
C16_2 C 0.4834(5) 0.1375(5) 0.3312(3)
C17_2 C 0.1797(3) 0.3581(3) 0.3648(2)
C18_2 C 0.1398(3) 0.2894(3) 0.3733(2)
H20_2 H 0.1582 0.2522 0.3694
C19_2 C 0.0723(4) 0.2756(4) 0.3876(3)
H21_2 H 0.0448 0.2282 0.3925
C20_2 C 0.0449(4) 0.3279(4) 0.3946(3)
C21_2 C 0.0857(4) 0.3962(4) 0.3864(3)
H22_2 H 0.0677 0.4337 0.3909
C22_2 C 0.1516(4) 0.4104(3) 0.3719(3)
H23_2 H 0.1785 0.4577 0.3667
C48_2 C 0.5307(4) 0.7894(4) 0.0573(3)
C49_2 C 0.5873(3) 0.8042(3) 0.0265(2)
C50_2 C 0.6287(4) 0.7637(4) 0.0217(3)
H36_2 H 0.6215 0.7240 0.0384
C54_2 C 0.5993(4) 0.8608(4) 0.0012(3)
H39_2 H 0.5709 0.8896 0.0035
C110_2 C 0.3580(3) 0.6718(3) 0.0170(3)
H66_2 H 0.4000 0.6617 0.0125
C111_2 C 0.2841(3) 0.7042(3) 0.0525(2)
C112_2 C 0.2533(4) 0.6824(3) 0.0005(3)
C113_2 C 0.1544(4) 0.7075(4) 0.0101(3)
C114_2 C 0.2424(4) 0.7254(3) 0.0832(3)
C115_2 C 0.5111(3) 0.8291(3) 0.2201(3)
H68_2 H 0.5280 0.7923 0.2278
C116_2 C 0.4887(3) 0.9225(3) 0.2290(2)
C117_2 C 0.4656(3) 0.8902(3) 0.1786(2)
C118_2 C 0.4322(4) 0.9229(4) 0.1449(3)
C122_2 C 0.7095(4) 0.9329(4) 0.3697(3)
H71_2 H 0.6937 0.8823 0.3697
C125_2 C 0.4704(4) 0.2490(4) 0.3104(3)
H72_2 H 0.5111 0.2567 0.2949
O41 O 0.5005(4) 0.8001(3) 0.3585(2)
O42 O 0.5758(3) 0.7756(3) 0.3178(2)
Zn6 Zn 0.29646(4) 0.63209(4) 0.90369(3)
Zn9_2 Zn 0.06715(4) 0.21778(4) 0.59333(3)
O17_2 O 0.1561(3) 0.2386(3) 0.5673(2)
O18_2 O 0.1151(3) 0.3213(3) 0.5455(2)
O19 O 0.7336(4) 0.2414(4) 0.4714(3)
O20 O 0.7879(3) 0.3062(3) 0.4224(3)
O21_2 O 0.0511(2) 0.1285(2) 0.62254(16)
O24_2 O 0.2289(2) 0.6766(2) 0.87179(15)
N8_2 N 0.7941(3) 0.8185(2) 0.93904(19)
N9_2 N 0.8645(3) 0.9011(2) 0.89474(18)
N10_2 N 0.7612(3) 0.9157(2) 0.91926(19)
N11_2 N 0.4603(3) 0.3793(2) 0.46039(17)
N12_2 N 0.5284(2) 0.4694(2) 0.41894(17)
N13_2 N 0.4198(3) 0.4728(2) 0.44272(17)
N21_2 N 0.0792(3) 0.2914(3) 0.65599(19)
N22_2 N 0.1150(4) 0.4176(3) 0.6910(3)
N23_2 N 0.0528(4) 0.4603(3) 0.7419(2)
H3_2 H 0.0791 0.5049 0.7391
H4_2 H 0.0194 0.4529 0.7602
N24_2 N 0.0368(3) 0.4138(2) 0.84948(19)
N25_2 N 0.1121(3) 0.5341(2) 0.87822(18)
N26_2 N 0.2320(3) 0.5250(3) 0.8765(2)
N27_2 N 0.2208(3) 0.4026(3) 0.8483(3)
N28_2 N 0.1088(3) 0.3032(3) 0.8292(3)
H5_2 H 0.1329 0.2752 0.8235
H6_2 H 0.0600 0.2835 0.8256
N29_2 N 0.3006(3) 0.6616(2) 0.97765(18)
N31_2 N 0.1861(3) 0.6815(3) 0.97669(19)
C51_2 C 0.6813(4) 0.7800(3) 0.9928(3)
H37_2 H 0.7095 0.7511 0.9899
C52_2 C 0.6931(3) 0.8369(3) 0.9683(2)
C53_2 C 0.6516(4) 0.8767(3) 0.9727(3)
H38_2 H 0.6586 0.9161 0.9558
C55_2 C 0.7531(3) 0.8590(3) 0.9406(2)
C56_2 C 0.8482(3) 0.8424(3) 0.9142(2)
C57_2 C 0.8191(3) 0.9350(3) 0.8976(2)
C58_2 C 0.8930(3) 0.7990(3) 0.9096(2)
C59_2 C 0.8797(4) 0.7368(3) 0.9308(3)
H40_2 H 0.8413 0.7224 0.9484
C60_2 C 0.9217(4) 0.6972(3) 0.9262(3)
H41_2 H 0.9134 0.6564 0.9418
C61_2 C 0.9760(3) 0.7149(3) 0.8992(2)
C62_2 C 0.9896(3) 0.7764(3) 0.8771(2)
C63_2 C 0.9478(3) 0.8164(3) 0.8826(2)
H43_2 H 0.9565 0.8576 0.8673
C72_2 C 0.1614(5) 0.2933(5) 0.5471(3)
C73_2 C 0.2289(4) 0.3256(4) 0.5251(2)
C74_2 C 0.2791(4) 0.2948(4) 0.5257(3)
H48_2 H 0.2724 0.2539 0.5410
C75_2 C 0.3402(4) 0.3212(3) 0.5047(2)
H49_2 H 0.3745 0.2983 0.5049
C76_2 C 0.3494(3) 0.3818(3) 0.4835(2)
C77_2 C 0.2985(3) 0.4135(3) 0.4840(2)
H50_2 H 0.3043 0.4549 0.4694
C78_2 C 0.2387(4) 0.3851(4) 0.5058(3)
H51_2 H 0.2047 0.4080 0.5070
C79_2 C 0.4138(3) 0.4124(3) 0.4606(2)
C80_2 C 0.5180(3) 0.4109(3) 0.4397(2)
C81_2 C 0.4796(3) 0.4983(3) 0.4222(2)
C82_2 C 0.4911(3) 0.5655(3) 0.4012(2)
C83_2 C 0.5431(4) 0.5869(3) 0.3731(2)
H52_2 H 0.5707 0.5584 0.3666
C84_2 C 0.5554(4) 0.6483(4) 0.3547(3)
H53_2 H 0.5910 0.6621 0.3348
C85_2 C 0.5172(4) 0.6906(3) 0.3643(2)
C86_2 C 0.4647(4) 0.6712(3) 0.3915(2)
H54_2 H 0.4378 0.7006 0.3979
C87_2 C 0.4508(4) 0.6063(3) 0.4102(2)
H55_2 H 0.4138 0.5912 0.4289
C88_2 C 0.5748(3) 0.3783(3) 0.4398(2)
C89_2 C 0.5662(4) 0.3160(4) 0.4581(3)
H56_2 H 0.5232 0.2925 0.4702
C90_2 C 0.6187(5) 0.2885(4) 0.4589(3)
H57_2 H 0.6119 0.2456 0.4719
C91_2 C 0.6802(4) 0.3192(4) 0.4422(3)
C92_2 C 0.6870(4) 0.3778(5) 0.4213(3)
H58_2 H 0.7285 0.3979 0.4071
C93_2 C 0.6351(4) 0.4100(4) 0.4198(3)
H59_2 H 0.6412 0.4519 0.4056
C94_2 C 0.7418(6) 0.2889(5) 0.4425(4)
C101_2 C 0.0298(3) 0.2774(3) 0.6870(2)
C102_2 C 0.0204(3) 0.3301(3) 0.7178(2)
C103_2 C 0.0634(4) 0.4044(4) 0.7188(3)
C104_2 C 0.1201(4) 0.3631(4) 0.6628(3)
H63_2 H 0.1580 0.3760 0.6446
C105_2 C 0.0428(3) 0.4809(3) 0.8646(2)
C106_2 C 0.1562(3) 0.4969(3) 0.8691(2)
C107_2 C 0.1109(3) 0.4236(3) 0.8526(2)
C108_2 C 0.1460(4) 0.3750(3) 0.8433(3)
C109_2 C 0.2581(4) 0.4734(4) 0.8641(3)
H65_2 H 0.3106 0.4910 0.8672
H67_2 H 0.1088 0.7111 0.9954
C126_2 C 0.5304(5) 0.7610(5) 0.3464(3)
O33 O 0.4128(3) 0.6039(3) 0.9277(2)
O34 O 0.3862(3) 0.6760(3) 0.87987(18)
O5 O 0.9273(3) 0.2498(3) 0.4024(2)
O6_2 O 0.9648(4) 0.3641(4) 0.4365(3)
C23_2 C 0.9729(5) 0.3120(6) 0.4112(4)
Zn5_2 Zn 0.95968(4) 0.10982(4) 0.65014(3)
O7_2 O 0.8545(3) 0.0571(2) 0.69826(19)
O8_2 O 0.9422(3) 0.0250(2) 0.67986(18)
N14_2 N 0.8712(3) 0.2018(3) 0.4912(2)
N15_2 N 0.9622(3) 0.1927(2) 0.55145(18)
N16_2 N 0.8796(3) 0.0981(3) 0.5873(2)
N17_2 N 0.7491(3) 0.0556(3) 0.5463(2)
N18_2 N 0.7049(3) 0.1014(3) 0.4818(2)
H1_2 H 0.6593 0.0706 0.4809
H2_2 H 0.7114 0.1313 0.4605
N19_2 N 0.9821(3) 0.2104(2) 0.69002(19)
N20_2 N 0.9660(3) 0.2965(3) 0.74264(19)
C24_2 C 0.8863(4) 0.0155(4) 0.6991(3)
C95_2 C 0.9432(4) 0.2239(3) 0.5135(2)
H60_2 H 0.9804 0.2606 0.5031
C96_2 C 0.8380(4) 0.1493(3) 0.5174(3)
C97_2 C 0.8933(4) 0.1432(3) 0.5531(2)
C98_2 C 0.8061(5) 0.0568(4) 0.5793(3)
H61_2 H 0.7940 0.0234 0.6011
C99_2 C 0.7634(4) 0.1028(4) 0.5150(3)
C100_2 C 0.9474(3) 0.2268(3) 0.7236(2)
H62_2 H 0.9102 0.1895 0.7337
H64_2 H 0.9999 0.4912 0.8658
O31 O 0.9117(4) 0.4177(4) 0.7532(3)
O32 O 0.8732(3) 0.3852(3) 0.8212(3)
N5_2 N 0.8072(2) 0.7127(2) 0.78137(18)
N6_2 N 0.7195(3) 0.7577(2) 0.80534(18)
N7_2 N 0.7249(3) 0.6501(2) 0.82836(19)
C25_2 C 0.8595(4) 0.9489(3) 0.7212(2)
C26_2 C 0.8944(4) 0.9006(3) 0.7214(2)
H24_2 H 0.9372 0.9095 0.7080
C27_2 C 0.8664(4) 0.8397(3) 0.7412(2)
H25_2 H 0.8895 0.8060 0.7407
C28_2 C 0.8059(3) 0.8267(3) 0.7616(2)
C29_2 C 0.7711(3) 0.8743(3) 0.7604(2)
H26_2 H 0.7277 0.8648 0.7732
C30_2 C 0.7984(4) 0.9354(3) 0.7410(2)
H27_2 H 0.7747 0.9686 0.7413
C31_2 C 0.7761(3) 0.7619(3) 0.7843(2)
C32_2 C 0.7800(3) 0.6577(3) 0.8042(2)
C33_2 C 0.6941(3) 0.6994(3) 0.8255(2)
C34_2 C 0.8094(3) 0.6021(3) 0.8037(2)
C35_2 C 0.8562(3) 0.5973(3) 0.7724(2)
H28_2 H 0.8732 0.6345 0.7539
C36_2 C 0.8785(3) 0.5405(3) 0.7673(3)
H29_2 H 0.9083 0.5372 0.7442
C37_2 C 0.8577(4) 0.4885(4) 0.7956(3)
C38_2 C 0.8143(4) 0.4938(3) 0.8292(3)
H30_2 H 0.8019 0.4589 0.8499
C39_2 C 0.7884(3) 0.5497(3) 0.8330(3)
H31_2 H 0.7572 0.5520 0.8553
C40_2 C 0.8820(4) 0.4236(4) 0.7878(5)
C41_2 C 0.6285(3) 0.6884(3) 0.8471(2)
C42_2 C 0.6033(4) 0.6327(3) 0.8728(3)
H32_2 H 0.6297 0.6022 0.8779
C43_2 C 0.5413(4) 0.6214(4) 0.8906(3)
H33_2 H 0.5255 0.5842 0.9092
C44_2 C 0.5008(3) 0.6640(4) 0.8818(2)
C45_2 C 0.5257(4) 0.7190(4) 0.8572(3)
H34_2 H 0.4988 0.7489 0.8518
C46_2 C 0.5894(3) 0.7320(3) 0.8399(2)
H35_2 H 0.6064 0.7711 0.8230
C47_2 C 0.4282(4) 0.6474(4) 0.8981(3)
loop_
_geom_bond_atom_site_label_1
_geom_bond_atom_site_label_2
_geom_bond_site_symmetry_1
_geom_bond_site_symmetry_2
O9 C40 1_555 1_555
O10 C40 1_555 1_555
O11 C47 1_555 1_555
O12 C47 1_555 1_555
N5 C31 1_555 1_555
N6 C31 1_555 1_555
N7 C32 1_555 1_555
C25 C26 1_555 1_555
C26 H24 1_555 1_555
C27 C26 1_555 1_555
H25 C27 1_555 1_555
C28 C27 1_555 1_555
C29 C28 1_555 1_555
H26 C29 1_555 1_555
C30 C25 1_555 1_555
H27 C30 1_555 1_555
C31 C28 1_555 1_555
C32 N5 1_555 1_555
C33 N6 1_555 1_555
C34 C32 1_555 1_555
C35 C34 1_555 1_555
H28 C35 1_555 1_555
C36 C35 1_555 1_555
H29 C36 1_555 1_555
C37 C36 1_555 1_555
C38 C37 1_555 1_555
H30 C38 1_555 1_555
C39 C34 1_555 1_555
H31 C39 1_555 1_555
C40 C37 1_555 1_555
C41 C33 1_555 1_555
C42 C41 1_555 1_555
H32 C42 1_555 1_555
C43 C42 1_555 1_555
H33 C43 1_555 1_555
C44 C43 1_555 1_555
C45 C44 1_555 1_555
H34 C45 1_555 1_555
C46 C41 1_555 1_555
H35 C46 1_555 1_555
C47 C44 1_555 1_555
Zn11 O9 1_555 1_555
Zn16 O11 1_555 1_555
O10 Zn11 1_555 1_555
O12 Zn16 1_555 1_555
N7 C33 1_555 1_555
C29 C30 1_555 1_555
C38 C39 1_555 1_555
C45 C46 1_555 1_555
Zn11 N20 1_555 1_555
Zn4 N14 1_555 1_555
Zn5 O8 1_555 1_555
O7 C24 1_555 1_555
O8 C24 1_555 1_555
N14 C95 1_555 1_555
N16 Zn5 1_555 1_555
N17 C98 1_555 1_555
N18 H1 1_555 1_555
H2 N18 1_555 1_555
N19 Zn5 1_555 1_555
N20 C100 1_555 1_555
C95 N15 1_555 1_555
H60 C95 1_555 1_555
C96 N14 1_555 1_555
C97 N15 1_555 1_555
C98 N16 1_555 1_555
H61 C98 1_555 1_555
C99 N17 1_555 1_555
C100 N19 1_555 1_555
H62 C100 1_555 1_555
O30 Zn4 1_555 1_555
O37 Zn4 1_555 1_555
O38 Zn4 1_555 1_555
O39 Zn11 1_555 1_555
O40 Zn11 1_555 1_555
N43 Zn4 1_555 1_555
N16 C97 1_555 1_555
N18 C99 1_555 1_555
C96 C97 1_555 1_555
C96 C99 1_555 1_555
O30 C23 1_555 1_555
O6 C23 1_555 1_555
Zn16 O24 1_555 1_555
Zn8 O24 1_555 1_555
Zn9 O17 1_555 1_555
O17 C72 1_555 1_555
O18 C72 1_555 1_555
O37 C94 1_555 1_555
O38 C94 1_555 1_555
N8 C55 1_555 1_555
N9 C56 1_555 1_555
N10 C55 1_555 1_555
N11 C79 1_555 1_555
N12 C80 1_555 1_555
N13 C79 1_555 1_555
N21 Zn9 1_555 1_555
N22 C103 1_555 1_555
N23 H3 1_555 1_555
H4 N23 1_555 1_555
N25 Zn8 1_555 1_555
N26 Zn16 1_555 1_555
N27 C108 1_555 1_555
N28 H5 1_555 1_555
H6 N28 1_555 1_555
N29 Zn16 1_555 1_555
N31 Zn8 1_555 1_555
H37 C51 1_555 1_555
C52 C51 1_555 1_555
C53 C52 1_555 1_555
H38 C53 1_555 1_555
C55 C52 1_555 1_555
C56 N8 1_555 1_555
C57 N9 1_555 1_555
C58 C56 1_555 1_555
C59 C58 1_555 1_555
H40 C59 1_555 1_555
C60 C59 1_555 1_555
H41 C60 1_555 1_555
C61 C60 1_555 1_555
C62 C61 1_555 1_555
C63 C58 1_555 1_555
H43 C63 1_555 1_555
C72 C73 1_555 1_555
C73 C74 1_555 1_555
C74 H48 1_555 1_555
C75 C74 1_555 1_555
H49 C75 1_555 1_555
C76 C75 1_555 1_555
C77 C76 1_555 1_555
H50 C77 1_555 1_555
C78 C73 1_555 1_555
H51 C78 1_555 1_555
C79 C76 1_555 1_555
C80 N11 1_555 1_555
C81 N12 1_555 1_555
C82 C81 1_555 1_555
C83 C82 1_555 1_555
H52 C83 1_555 1_555
C84 C83 1_555 1_555
H53 C84 1_555 1_555
C85 C84 1_555 1_555
C86 C85 1_555 1_555
H54 C86 1_555 1_555
C87 C82 1_555 1_555
H55 C87 1_555 1_555
C88 C80 1_555 1_555
C89 C88 1_555 1_555
H56 C89 1_555 1_555
C90 C89 1_555 1_555
H57 C90 1_555 1_555
C91 C90 1_555 1_555
C92 C91 1_555 1_555
H58 C92 1_555 1_555
C93 C88 1_555 1_555
H59 C93 1_555 1_555
C94 C91 1_555 1_555
C103 N23 1_555 1_555
C104 N21 1_555 1_555
H63 C104 1_555 1_555
C105 N24 1_555 1_555
C106 N25 1_555 1_555
C107 N24 1_555 1_555
C108 N28 1_555 1_555
C109 N26 1_555 1_555
H65 C109 1_555 1_555
O26 C126 1_555 1_555
O27 C126 1_555 1_555
C126 C85 1_555 1_555
Zn17 O26 1_555 1_555
O35 Zn8 1_555 1_555
O36 Zn8 1_555 1_555
Zn9 O21 1_555 1_555
N10 C57 1_555 1_555
N13 C81 1_555 1_555
N21 C101 1_555 1_555
N22 C104 1_555 1_555
N25 C105 1_555 1_555
N26 C106 1_555 1_555
N27 C109 1_555 1_555
C62 C63 1_555 1_555
C77 C78 1_555 1_555
C86 C87 1_555 1_555
C92 C93 1_555 1_555
C101 C102 1_555 1_555
C102 C103 1_555 1_555
C106 C107 1_555 1_555
C107 C108 1_555 1_555
O27 Zn17 1_555 1_555
Zn1 O1 1_555 1_555
Zn17 O25 1_555 1_555
O1 C1 1_555 1_555
O2 C1 1_555 1_555
O3 C16 1_555 1_555
O4 C16 1_555 1_555
O13 Zn1 1_555 1_555
O14 C48 1_555 1_555
N2 C8 1_555 1_555
N3 C8 1_555 1_555
N4 C9 1_555 1_555
N30 Zn1 1_555 1_555
N32 C113 1_555 1_555
N33 H7 1_555 1_555
H8 N33 1_555 1_555
N34 Zn1 1_555 1_555
N35 Zn17 1_555 1_555
N37 C118 1_555 1_555
N38 H9 1_555 1_555
H10 N38 1_555 1_555
N40 C122 1_555 1_555
N41 Zn17 1_555 1_555
C1 C2 1_555 1_555
C2 C3 1_555 1_555
C3 H13 1_555 1_555
C4 C3 1_555 1_555
H14 C4 1_555 1_555
C5 C4 1_555 1_555
C6 C5 1_555 1_555
H15 C6 1_555 1_555
C7 C2 1_555 1_555
H16 C7 1_555 1_555
C8 C5 1_555 1_555
C9 N3 1_555 1_555
C10 N2 1_555 1_555
C11 C9 1_555 1_555
C12 C11 1_555 1_555
H17 C12 1_555 1_555
C13 C14 1_555 1_555
C14 H18 1_555 1_555
C15 C11 1_555 1_555
H19 C15 1_555 1_555
C16 C13 1_555 1_555
C17 C10 1_555 1_555
C18 C17 1_555 1_555
H20 C18 1_555 1_555
C19 C18 1_555 1_555
H21 C19 1_555 1_555
C20 C19 1_555 1_555
C21 C20 1_555 1_555
H22 C21 1_555 1_555
C22 C17 1_555 1_555
H23 C22 1_555 1_555
C48 O13 1_555 1_555
C49 C48 1_555 1_555
C50 C49 1_555 1_555
H36 C50 1_555 1_555
C54 C49 1_555 1_555
H39 C54 1_555 1_555
H66 C110 1_555 1_555
C111 N30 1_555 1_555
C114 N32 1_555 1_555
C115 N34 1_555 1_555
H68 C115 1_555 1_555
C116 N35 1_555 1_555
C117 N34 1_555 1_555
C118 N38 1_555 1_555
C122 N41 1_555 1_555
H71 C122 1_555 1_555
C125 C12 1_555 1_555
H72 C125 1_555 1_555
Zn12 O3 1_555 1_555
O4 Zn12 1_555 1_555
N4 C10 1_555 1_555
N30 C110 1_555 1_555
N33 C114 1_555 1_555
N35 C115 1_555 1_555
N36 C116 1_555 1_555
C6 C7 1_555 1_555
C13 C125 1_555 1_555
C14 C15 1_555 1_555
C21 C22 1_555 1_555
C111 C112 1_555 1_555
C111 C114 1_555 1_555
C116 C117 1_555 1_555
C117 C118 1_555 1_555
O39 C71 1_555 1_555
O40 C71 1_555 1_555
C66 C65 1_555 1_555
H44 C66 1_555 1_555
C67 C66 1_555 1_555
H45 C67 1_555 1_555
C68 C67 1_555 1_555
C69 C68 1_555 1_555
H46 C69 1_555 1_555
C70 C65 1_555 1_555
H47 C70 1_555 1_555
C71 C68 1_555 1_555
C69 C70 1_555 1_555
N43 C120 1_555 1_555
N39 H11 1_555 1_555
H12 N39 1_555 1_555
N42 Zn12 1_555 1_555
H69 C119 1_555 1_555
C120 N42 1_555 1_555
H70 C120 1_555 1_555
C123 N39 1_555 1_555
C124 N43 1_555 1_555
N42 C121 1_555 1_555
C121 C124 1_555 1_555
C123 C124 1_555 1_555
O35 C64 1_555 1_555
O36 C64 1_555 1_555
O15 C64_2 1_555 1_555
O16 C64_2 1_555 1_555
Zn18 O15 1_555 1_555
O16 Zn18 1_555 1_555
N1 C120_2 1_555 1_555
N39_2 H11_2 1_555 1_555
H12_2 N39_2 1_555 1_555
N42_2 Zn3 1_555 1_555
H69_2 C119_2 1_555 1_555
C120_2 N42_2 1_555 1_555
H70_2 C120_2 1_555 1_555
C123_2 N39_2 1_555 1_555
C124_2 N1 1_555 1_555
Zn13 N1 1_555 1_555
O28 Zn3 1_555 1_555
O29 Zn3 1_555 1_555
N42_2 C121_2 1_555 1_555
C121_2 C124_2 1_555 1_555
C123_2 C124_2 1_555 1_555
O22 C71_2 1_555 1_555
O23 C71_2 1_555 1_555
C66_2 C65_2 1_555 1_555
H44_2 C66_2 1_555 1_555
C67_2 C66_2 1_555 1_555
H45_2 C67_2 1_555 1_555
C68_2 C67_2 1_555 1_555
C69_2 C68_2 1_555 1_555
H46_2 C69_2 1_555 1_555
C70_2 C65_2 1_555 1_555
H47_2 C70_2 1_555 1_555
C71_2 C68_2 1_555 1_555
Zn10 O22 1_555 1_555
O23 Zn10 1_555 1_555
C69_2 C70_2 1_555 1_555
Zn1_2 O1_2 1_555 1_555
Zn7 O25_2 1_555 1_555
O1_2 C1_2 1_555 1_555
O2_2 C1_2 1_555 1_555
O28 C16_2 1_555 1_555
O29 C16_2 1_555 1_555
O13_2 Zn1_2 1_555 1_555
O14_2 C48_2 1_555 1_555
N2_2 C8_2 1_555 1_555
N3_2 C8_2 1_555 1_555
N4_2 C9_2 1_555 1_555
N30_2 Zn1_2 1_555 1_555
N32_2 C113_2 1_555 1_555
N33_2 H7_2 1_555 1_555
H8_2 N33_2 1_555 1_555
N34_2 Zn1_2 1_555 1_555
N35_2 Zn7 1_555 1_555
N37_2 C118_2 1_555 1_555
N38_2 H9_2 1_555 1_555
H10_2 N38_2 1_555 1_555
N40_2 C122_2 1_555 1_555
N41_2 Zn7 1_555 1_555
C1_2 C2_2 1_555 1_555
C2_2 C3_2 1_555 1_555
C3_2 H13_2 1_555 1_555
C4_2 C3_2 1_555 1_555
H14_2 C4_2 1_555 1_555
C5_2 C4_2 1_555 1_555
C6_2 C5_2 1_555 1_555
H15_2 C6_2 1_555 1_555
C7_2 C2_2 1_555 1_555
H16_2 C7_2 1_555 1_555
C8_2 C5_2 1_555 1_555
C9_2 N3_2 1_555 1_555
C10_2 N2_2 1_555 1_555
C11_2 C9_2 1_555 1_555
C12_2 C11_2 1_555 1_555
H17_2 C12_2 1_555 1_555
C13_2 C14_2 1_555 1_555
C14_2 H18_2 1_555 1_555
C15_2 C11_2 1_555 1_555
H19_2 C15_2 1_555 1_555
C16_2 C13_2 1_555 1_555
C17_2 C10_2 1_555 1_555
C18_2 C17_2 1_555 1_555
H20_2 C18_2 1_555 1_555
C19_2 C18_2 1_555 1_555
H21_2 C19_2 1_555 1_555
C20_2 C19_2 1_555 1_555
C21_2 C20_2 1_555 1_555
H22_2 C21_2 1_555 1_555
C22_2 C17_2 1_555 1_555
H23_2 C22_2 1_555 1_555
C48_2 O13_2 1_555 1_555
C49_2 C48_2 1_555 1_555
C50_2 C49_2 1_555 1_555
H36_2 C50_2 1_555 1_555
C54_2 C49_2 1_555 1_555
H39_2 C54_2 1_555 1_555
H66_2 C110_2 1_555 1_555
C111_2 N30_2 1_555 1_555
C114_2 N32_2 1_555 1_555
C115_2 N34_2 1_555 1_555
H68_2 C115_2 1_555 1_555
C116_2 N35_2 1_555 1_555
C117_2 N34_2 1_555 1_555
C118_2 N38_2 1_555 1_555
C122_2 N41_2 1_555 1_555
H71_2 C122_2 1_555 1_555
C125_2 C12_2 1_555 1_555
H72_2 C125_2 1_555 1_555
O41 Zn7 1_555 1_555
O42 Zn7 1_555 1_555
N4_2 C10_2 1_555 1_555
N30_2 C110_2 1_555 1_555
N33_2 C114_2 1_555 1_555
N35_2 C115_2 1_555 1_555
N36_2 C116_2 1_555 1_555
C6_2 C7_2 1_555 1_555
C13_2 C125_2 1_555 1_555
C14_2 C15_2 1_555 1_555
C21_2 C22_2 1_555 1_555
C111_2 C112_2 1_555 1_555
C111_2 C114_2 1_555 1_555
C116_2 C117_2 1_555 1_555
C117_2 C118_2 1_555 1_555
Zn6 O24_2 1_555 1_555
Zn18 O24_2 1_555 1_555
Zn9_2 O17_2 1_555 1_555
O17_2 C72_2 1_555 1_555
O18_2 C72_2 1_555 1_555
O19 C94_2 1_555 1_555
O20 C94_2 1_555 1_555
N8_2 C55_2 1_555 1_555
N9_2 C56_2 1_555 1_555
N10_2 C55_2 1_555 1_555
N11_2 C79_2 1_555 1_555
N12_2 C80_2 1_555 1_555
N13_2 C79_2 1_555 1_555
N21_2 Zn9_2 1_555 1_555
N22_2 C103_2 1_555 1_555
N23_2 H3_2 1_555 1_555
H4_2 N23_2 1_555 1_555
N25_2 Zn18 1_555 1_555
N26_2 Zn6 1_555 1_555
N27_2 C108_2 1_555 1_555
N28_2 H5_2 1_555 1_555
H6_2 N28_2 1_555 1_555
N29_2 Zn6 1_555 1_555
N31_2 Zn18 1_555 1_555
H37_2 C51_2 1_555 1_555
C52_2 C51_2 1_555 1_555
C53_2 C52_2 1_555 1_555
H38_2 C53_2 1_555 1_555
C55_2 C52_2 1_555 1_555
C56_2 N8_2 1_555 1_555
C57_2 N9_2 1_555 1_555
C58_2 C56_2 1_555 1_555
C59_2 C58_2 1_555 1_555
H40_2 C59_2 1_555 1_555
C60_2 C59_2 1_555 1_555
H41_2 C60_2 1_555 1_555
C61_2 C60_2 1_555 1_555
C62_2 C61_2 1_555 1_555
C63_2 C58_2 1_555 1_555
H43_2 C63_2 1_555 1_555
C72_2 C73_2 1_555 1_555
C73_2 C74_2 1_555 1_555
C74_2 H48_2 1_555 1_555
C75_2 C74_2 1_555 1_555
H49_2 C75_2 1_555 1_555
C76_2 C75_2 1_555 1_555
C77_2 C76_2 1_555 1_555
H50_2 C77_2 1_555 1_555
C78_2 C73_2 1_555 1_555
H51_2 C78_2 1_555 1_555
C79_2 C76_2 1_555 1_555
C80_2 N11_2 1_555 1_555
C81_2 N12_2 1_555 1_555
C82_2 C81_2 1_555 1_555
C83_2 C82_2 1_555 1_555
H52_2 C83_2 1_555 1_555
C84_2 C83_2 1_555 1_555
H53_2 C84_2 1_555 1_555
C85_2 C84_2 1_555 1_555
C86_2 C85_2 1_555 1_555
H54_2 C86_2 1_555 1_555
C87_2 C82_2 1_555 1_555
H55_2 C87_2 1_555 1_555
C88_2 C80_2 1_555 1_555
C89_2 C88_2 1_555 1_555
H56_2 C89_2 1_555 1_555
C90_2 C89_2 1_555 1_555
H57_2 C90_2 1_555 1_555
C91_2 C90_2 1_555 1_555
C92_2 C91_2 1_555 1_555
H58_2 C92_2 1_555 1_555
C93_2 C88_2 1_555 1_555
H59_2 C93_2 1_555 1_555
C94_2 C91_2 1_555 1_555
C103_2 N23_2 1_555 1_555
C104_2 N21_2 1_555 1_555
H63_2 C104_2 1_555 1_555
C105_2 N24_2 1_555 1_555
C106_2 N25_2 1_555 1_555
C107_2 N24_2 1_555 1_555
C108_2 N28_2 1_555 1_555
C109_2 N26_2 1_555 1_555
H65_2 C109_2 1_555 1_555
O41 C126_2 1_555 1_555
O42 C126_2 1_555 1_555
C126_2 C85_2 1_555 1_555
Zn13 O19 1_555 1_555
O33 Zn6 1_555 1_555
O34 Zn6 1_555 1_555
Zn9_2 O21_2 1_555 1_555
O20 Zn13 1_555 1_555
N10_2 C57_2 1_555 1_555
N13_2 C81_2 1_555 1_555
N21_2 C101_2 1_555 1_555
N22_2 C104_2 1_555 1_555
N25_2 C105_2 1_555 1_555
N26_2 C106_2 1_555 1_555
N27_2 C109_2 1_555 1_555
C62_2 C63_2 1_555 1_555
C77_2 C78_2 1_555 1_555
C86_2 C87_2 1_555 1_555
C92_2 C93_2 1_555 1_555
C101_2 C102_2 1_555 1_555
C102_2 C103_2 1_555 1_555
C106_2 C107_2 1_555 1_555
C107_2 C108_2 1_555 1_555
O5 C23_2 1_555 1_555
O6_2 C23_2 1_555 1_555
Zn13 O5 1_555 1_555
Zn10 N20_2 1_555 1_555
Zn13 N14_2 1_555 1_555
Zn5_2 O8_2 1_555 1_555
O7_2 C24_2 1_555 1_555
O8_2 C24_2 1_555 1_555
N14_2 C95_2 1_555 1_555
N16_2 Zn5_2 1_555 1_555
N17_2 C98_2 1_555 1_555
N18_2 H1_2 1_555 1_555
H2_2 N18_2 1_555 1_555
N19_2 Zn5_2 1_555 1_555
N20_2 C100_2 1_555 1_555
C95_2 N15_2 1_555 1_555
H60_2 C95_2 1_555 1_555
C96_2 N14_2 1_555 1_555
C97_2 N15_2 1_555 1_555
C98_2 N16_2 1_555 1_555
H61_2 C98_2 1_555 1_555
C99_2 N17_2 1_555 1_555
C100_2 N19_2 1_555 1_555
H62_2 C100_2 1_555 1_555
O31 Zn10 1_555 1_555
O32 Zn10 1_555 1_555
N16_2 C97_2 1_555 1_555
N18_2 C99_2 1_555 1_555
C96_2 C97_2 1_555 1_555
C96_2 C99_2 1_555 1_555
O31 C40_2 1_555 1_555
O32 C40_2 1_555 1_555
O33 C47_2 1_555 1_555
O34 C47_2 1_555 1_555
N5_2 C31_2 1_555 1_555
N6_2 C31_2 1_555 1_555
N7_2 C32_2 1_555 1_555
C25_2 C26_2 1_555 1_555
C26_2 H24_2 1_555 1_555
C27_2 C26_2 1_555 1_555
H25_2 C27_2 1_555 1_555
C28_2 C27_2 1_555 1_555
C29_2 C28_2 1_555 1_555
H26_2 C29_2 1_555 1_555
C30_2 C25_2 1_555 1_555
H27_2 C30_2 1_555 1_555
C31_2 C28_2 1_555 1_555
C32_2 N5_2 1_555 1_555
C33_2 N6_2 1_555 1_555
C34_2 C32_2 1_555 1_555
C35_2 C34_2 1_555 1_555
H28_2 C35_2 1_555 1_555
C36_2 C35_2 1_555 1_555
H29_2 C36_2 1_555 1_555
C37_2 C36_2 1_555 1_555
C38_2 C37_2 1_555 1_555
H30_2 C38_2 1_555 1_555
C39_2 C34_2 1_555 1_555
H31_2 C39_2 1_555 1_555
C40_2 C37_2 1_555 1_555
C41_2 C33_2 1_555 1_555
C42_2 C41_2 1_555 1_555
H32_2 C42_2 1_555 1_555
C43_2 C42_2 1_555 1_555
H33_2 C43_2 1_555 1_555
C44_2 C43_2 1_555 1_555
C45_2 C44_2 1_555 1_555
H34_2 C45_2 1_555 1_555
C46_2 C41_2 1_555 1_555
H35_2 C46_2 1_555 1_555
C47_2 C44_2 1_555 1_555
N7_2 C33_2 1_555 1_555
C29_2 C30_2 1_555 1_555
C38_2 C39_2 1_555 1_555
C45_2 C46_2 1_555 1_555

#END
