
###############################################################################
#
# This file contains modified crystal structure data generated from the
# MOF subset of the Cambridge Structural Database (CSD) v543 
# hosted by the Cambridge Crystallographic Data Centre (CCDC).
#
# This work is licensed under the Creative Commons
# Attribution-NonCommercial-ShareAlike 4.0 International License.
# To view a copy of this license, visit
# http://creativecommons.org/licenses/by-nc-sa/4.0/
# or send a letter to
# Creative Commons, PO Box 1866, Mountain View, CA 94042, USA.
#
# CIF created using the CSD Python API on 29 September 2022
# The structure has been converted into the P1 space group
# The structure has a 3D framework
# The original CSD entry ZIWNIF is in the monoclinic crystal system
# The framework has been calculated to contain at least 10.0% void space
# The void calculation uses a probe of radius 1.32A, grid spacing 0.4
#
###############################################################################

data_ZIWNIF
_chemical_formula_moiety         '(C256 H112 Cu24 F96 O72)n'
_symmetry_cell_setting           triclinic
_symmetry_space_group_name_H-M   'P 1'
_symmetry_Int_Tables_number      1
_space_group_name_Hall           'P 1'
loop_
_symmetry_equiv_pos_site_id
_symmetry_equiv_pos_as_xyz
1 x,y,z
_cell_length_a                   10.50760(10)
_cell_length_b                   33.8086(4)
_cell_length_c                   29.4609(5)
_cell_angle_alpha                90
_cell_angle_beta                 95.4820(10)
_cell_angle_gamma                90
_cell_volume                     10418
loop_
_atom_site_label
_atom_site_type_symbol
_atom_site_fract_x
_atom_site_fract_y
_atom_site_fract_z
F6 F 0.1993(7) 0.0237(2) 0.8469(4)
O2 O 0.0686(9) 0.1625(3) 0.7075(4)
O20 O 0.0146(5) 0.28664(15) 0.72853(18)
C6 C 0.0285(13) 0.0425(4) 0.7409(5)
H6 H 0.0606 0.0225 0.7223
C7 C 0.0290(13) 0.0812(3) 0.7267(5)
H7 H 0.0572 0.0868 0.6977
Cu11 Cu 0.18880(10) 0.29343(3) 0.71374(4)
O23 O 0.1121(6) 0.22918(19) 0.7922(2)
O26 O 0.1074(5) 0.26270(19) 0.6487(2)
F4 F 0.2658(10) 0.9990(4) 0.7875(5)
F5 F 0.2899(8) 0.9681(2) 0.8531(5)
O3 O 0.0541(5) 0.84716(15) 0.83744(19)
C10 C 0.0819(9) 0.9683(3) 0.8146(4)
C11 C 0.0757(8) 0.9286(3) 0.8240(4)
H8 H 0.1479 0.9153 0.8387
C15 C 0.2088(11) 0.9894(3) 0.8272(5)
Cu10 Cu 0.10402(10) 0.79203(3) 0.82699(4)
Cu1 Cu 0.68793(10) 0.24110(3) 0.71129(4)
Cu2 Cu 0.98129(11) 0.23091(3) 0.74226(4)
Cu3 Cu 0.89598(10) 0.29203(3) 0.67301(4)
Cu5 Cu 0.49871(11) 0.30213(3) 0.74582(4)
Cu6 Cu 0.40185(10) 0.24011(3) 0.67777(4)
F1 F 0.9484(12) 0.0297(3) 0.8789(4)
F2 F 0.8475(12) 0.0854(3) 0.8736(4)
F3 F 0.7651(11) 0.0335(3) 0.8427(5)
F7 F 0.2055(15) 0.3636(4) 0.4096(4)
F8 F 0.3404(10) 0.3547(3) 0.4661(4)
F9 F 0.1737(12) 0.3238(5) 0.4636(5)
F10 F 0.6007(9) 0.3480(2) 0.4278(3)
F11 F 0.7119(7) 0.2953(3) 0.4227(2)
F12 F 0.7757(9) 0.3411(3) 0.4703(3)
F13 F 0.2340(6) 0.0613(2) 0.6323(3)
F14 F 0.2688(7) 0.0202(3) 0.6860(4)
F15 F 0.3415(8) 0.0095(2) 0.6242(4)
F16 F 0.6062(12) 0.0113(3) 0.5971(4)
F17 F 0.7885(12) 0.0062(4) 0.6361(5)
F19 F 0.2797(9) 0.1581(3) 0.4939(3)
F20 F 0.2200(8) 0.1941(3) 0.4367(3)
F21 F 0.1060(9) 0.1459(2) 0.4530(3)
O1 O 0.9345(6) 0.17783(18) 0.7576(3)
O5 O 0.1121(6) 0.27082(19) 0.2922(2)
O6 O 0.2693(5) 0.2332(2) 0.2697(2)
O7 O 0.7761(5) 0.29342(16) 0.61890(19)
O8 O 0.6063(5) 0.26289(18) 0.6449(2)
O9 O 0.6506(5) 0.18310(16) 0.6980(2)
O10 O 0.4431(5) 0.18462(16) 0.6710(2)
O13 O 0.2817(5) 0.23477(17) 0.62562(19)
O17 O 0.3602(5) 0.29604(15) 0.69396(18)
H1 H 0.3679 0.3152 0.6685
O18 O 0.8536(5) 0.23812(15) 0.68922(18)
H2 H 0.8600 0.2184 0.6643
O19 O 0.5210(5) 0.24707(15) 0.73165(18)
H3 H 0.5047 0.2289 0.7572
H4 H 0.9927 0.3048 0.7534
C1 C 0.9979(9) 0.1530(3) 0.7372(4)
C2 C 0.9909(9) 0.1120(4) 0.7522(4)
C3 C 0.9430(10) 0.1020(3) 0.7932(4)
H5 H 0.9135 0.1224 0.8117
C4 C 0.9369(13) 0.0624(3) 0.8079(6)
C5 C 0.9825(9) 0.0319(3) 0.7814(5)
C8 C 0.8824(15) 0.0530(4) 0.8483(6)
C17 C 0.2212(7) 0.2552(2) 0.2975(3)
C18 C 0.2935(7) 0.2635(3) 0.3426(3)
C19 C 0.2555(10) 0.2949(3) 0.3679(3)
H11 H 0.1856 0.3109 0.3562
C20 C 0.3189(10) 0.3037(3) 0.4110(3)
C21 C 0.4215(9) 0.2801(3) 0.4290(3)
C22 C 0.4590(9) 0.2494(3) 0.4029(3)
H12 H 0.5301 0.2338 0.4141
C23 C 0.3953(9) 0.2405(3) 0.3599(3)
H13 H 0.4222 0.2187 0.3428
C24 C 0.2665(14) 0.3377(5) 0.4364(5)
C25 C 0.4827(9) 0.2847(3) 0.4769(3)
C26 C 0.6019(9) 0.3024(3) 0.4882(3)
C27 C 0.6573(8) 0.3011(3) 0.5319(3)
H14 H 0.7391 0.3128 0.5388
C28 C 0.5976(7) 0.2831(2) 0.5669(3)
C29 C 0.4754(10) 0.2671(4) 0.5553(4)
H15 H 0.4299 0.2555 0.5783
C30 C 0.4221(9) 0.2679(4) 0.5117(3)
H16 H 0.3399 0.2566 0.5048
C31 C 0.6734(12) 0.3221(4) 0.4531(4)
C32 C 0.6638(8) 0.2792(2) 0.6145(3)
C33 C 0.5466(8) 0.1674(2) 0.6839(3)
C34 C 0.5471(7) 0.1231(2) 0.6835(3)
C35 C 0.4394(8) 0.1012(2) 0.6678(3)
H17 H 0.3642 0.1145 0.6555
C36 C 0.4409(9) 0.0605(3) 0.6698(3)
C37 C 0.5515(9) 0.0404(3) 0.6866(4)
C38 C 0.6595(9) 0.0626(3) 0.7019(4)
H18 H 0.7348 0.0496 0.7145
C39 C 0.6575(8) 0.1027(3) 0.6988(3)
H19 H 0.7335 0.1172 0.7074
C40 C 0.3223(11) 0.0388(3) 0.6517(5)
C49 C 0.1650(8) 0.2447(3) 0.6206(3)
C50 C 0.1011(7) 0.2337(3) 0.5746(3)
C51 C 0.1595(8) 0.2096(3) 0.5465(3)
H23 H 0.2397 0.1983 0.5570
C52 C 0.1063(8) 0.2009(3) 0.5029(3)
C56 C 0.1772(11) 0.1744(4) 0.4724(4)
H28 H 0.0359 0.2586 0.4146
Cu13 Cu 0.18880(10) 0.20657(3) 0.21374(4)
O21 O 0.9459(5) 0.34716(15) 0.66256(19)
O22 O 0.1499(5) 0.34859(16) 0.6944(2)
O24 O 0.2693(5) 0.2668(2) 0.7697(2)
O25 O 0.4832(6) 0.35940(18) 0.7505(3)
O27 O 0.7729(5) 0.25582(16) 0.77424(19)
O28 O 0.6273(5) 0.29829(17) 0.7983(2)
F18 F 0.7154(12) 0.9568(3) 0.5954(4)
O4 O 0.8501(5) 0.84859(16) 0.8056(2)
O11 O 0.6141(11) 0.8490(2) 0.6864(5)
O12 O 0.5168(6) 0.85940(18) 0.7495(3)
C9 C 0.9778(9) 0.9895(3) 0.7945(5)
C12 C 0.9635(9) 0.9079(2) 0.8120(3)
C13 C 0.8596(9) 0.9273(3) 0.7905(4)
H9 H 0.7821 0.9134 0.7824
C14 C 0.8684(10) 0.9674(3) 0.7807(5)
H10 H 0.7981 0.9801 0.7640
C16 C 0.9571(7) 0.8646(2) 0.8191(3)
C41 C 0.5560(9) 0.9962(3) 0.6916(4)
C42 C 0.6147(12) 0.9702(3) 0.6614(5)
C43 C 0.6159(12) 0.9306(3) 0.6702(5)
H20 H 0.6543 0.9134 0.6500
C44 C 0.5646(9) 0.9148(3) 0.7065(4)
C45 C 0.5133(9) 0.9389(3) 0.7379(4)
H21 H 0.4815 0.9282 0.7644
C46 C 0.5097(10) 0.9796(3) 0.7293(4)
H22 H 0.4738 0.9965 0.7505
C47 C 0.675(2) 0.9846(4) 0.6211(7)
C48 C 0.5679(9) 0.8700(3) 0.7134(5)
Cu12 Cu 0.81120(10) 0.79343(3) 0.78626(4)
Cu14 Cu 0.50129(11) 0.80213(3) 0.75418(4)
F22 F 0.8542(10) 0.1464(3) 0.4871(3)
F23 F 0.6783(15) 0.1757(7) 0.4754(7)
F24 F 0.7221(17) 0.1296(4) 0.4356(4)
O15 O 0.7729(5) 0.24418(16) 0.27424(19)
O16 O 0.6273(5) 0.20171(17) 0.2983(2)
C53 C 0.9885(8) 0.2172(3) 0.4865(3)
C54 C 0.9293(8) 0.2409(3) 0.5154(3)
H24 H 0.8479 0.2516 0.5052
C55 C 0.9819(8) 0.2500(3) 0.5586(3)
H25 H 0.9383 0.2671 0.5774
C57 C 0.9301(8) 0.2140(3) 0.4376(3)
C58 C 0.8286(10) 0.1890(3) 0.4240(3)
C59 C 0.7648(8) 0.1916(3) 0.3803(3)
H26 H 0.6944 0.1746 0.3719
C60 C 0.8026(7) 0.2185(2) 0.3493(3)
C61 C 0.9015(9) 0.2434(3) 0.3631(3)
H27 H 0.9266 0.2627 0.3423
C62 C 0.9664(10) 0.2413(4) 0.4064(3)
C63 C 0.7746(12) 0.1598(4) 0.4563(4)
C64 C 0.7281(7) 0.2217(2) 0.3034(3)
Cu7 Cu 0.68793(10) 0.25890(3) 0.21129(4)
Cu8 Cu 0.98129(11) 0.26909(3) 0.24226(4)
Cu15 Cu 0.49871(11) 0.19787(3) 0.24582(4)
F22_2 F 0.1458(10) 0.6464(3) 0.0129(3)
F23_2 F 0.3217(15) 0.6757(7) 0.0246(7)
F24_2 F 0.2779(17) 0.6296(4) 0.0644(4)
O15_2 O 0.2271(5) 0.74418(16) 0.22576(19)
O16_2 O 0.3727(5) 0.70171(17) 0.2017(2)
C53_2 C 0.0115(8) 0.7172(3) 0.0135(3)
C57_2 C 0.0699(8) 0.7140(3) 0.0624(3)
C58_2 C 0.1714(10) 0.6890(3) 0.0760(3)
C59_2 C 0.2352(8) 0.6916(3) 0.1197(3)
H26_2 H 0.3056 0.6746 0.1281
C60_2 C 0.1974(7) 0.7185(2) 0.1507(3)
C61_2 C 0.0985(9) 0.7434(3) 0.1369(3)
H27_2 H 0.0734 0.7627 0.1577
C62_2 C 0.0336(10) 0.7413(4) 0.0936(3)
C63_2 C 0.2254(12) 0.6598(4) 0.0437(4)
C64_2 C 0.2719(7) 0.7217(2) 0.1966(3)
Cu7_2 Cu 0.31207(10) 0.75890(3) 0.28871(4)
Cu8_2 Cu 0.01871(11) 0.76909(3) 0.25774(4)
Cu15_2 Cu 0.50129(11) 0.69787(3) 0.25418(4)
C54_2 C 0.0707(8) 0.7409(3) 0.9846(3)
H24_2 H 0.1521 0.7516 0.9948
C55_2 C 0.0181(8) 0.7500(3) 0.9414(3)
H25_2 H 0.0617 0.7671 0.9226
F7_2 F 0.7945(15) 0.8636(4) 0.0904(4)
F8_2 F 0.6596(10) 0.8547(3) 0.0339(4)
F9_2 F 0.8263(12) 0.8238(5) 0.0364(5)
F10_2 F 0.3993(9) 0.8480(2) 0.0722(3)
F11_2 F 0.2881(7) 0.7953(3) 0.0773(2)
F12_2 F 0.2243(9) 0.8411(3) 0.0297(3)
F19_2 F 0.7203(9) 0.6581(3) 0.0061(3)
F20_2 F 0.7800(8) 0.6941(3) 0.0633(3)
F21_2 F 0.8940(9) 0.6459(2) 0.0470(3)
O5_2 O 0.8879(6) 0.77082(19) 0.2078(2)
O6_2 O 0.7307(5) 0.7332(2) 0.2303(2)
C17_2 C 0.7788(7) 0.7552(2) 0.2025(3)
C18_2 C 0.7065(7) 0.7635(3) 0.1574(3)
C19_2 C 0.7445(10) 0.7949(3) 0.1321(3)
H11_2 H 0.8144 0.8109 0.1438
C20_2 C 0.6811(10) 0.8037(3) 0.0890(3)
C21_2 C 0.5785(9) 0.7801(3) 0.0710(3)
C22_2 C 0.5410(9) 0.7494(3) 0.0971(3)
H12_2 H 0.4699 0.7338 0.0859
C23_2 C 0.6047(9) 0.7405(3) 0.1401(3)
H13_2 H 0.5778 0.7187 0.1572
C24_2 C 0.7335(14) 0.8377(5) 0.0636(5)
C25_2 C 0.5173(9) 0.7847(3) 0.0231(3)
C26_2 C 0.3981(9) 0.8024(3) 0.0118(3)
C31_2 C 0.3266(12) 0.8221(4) 0.0469(4)
C56_2 C 0.8228(11) 0.6744(4) 0.0276(4)
H28_2 H 0.9641 0.7586 0.0854
Cu13_2 Cu 0.81120(10) 0.70657(3) 0.28626(4)
Cu1_2 Cu 0.31207(10) 0.74110(3) 0.78871(4)
Cu2_2 Cu 0.01871(11) 0.73091(3) 0.75774(4)
Cu6_2 Cu 0.59815(10) 0.74011(3) 0.82223(4)
F1_2 F 0.0516(12) 0.5297(3) 0.6211(4)
F2_2 F 0.1525(12) 0.5854(3) 0.6264(4)
F3_2 F 0.2349(11) 0.5335(3) 0.6573(5)
F13_2 F 0.7660(6) 0.5613(2) 0.8677(3)
F14_2 F 0.7312(7) 0.5202(3) 0.8140(4)
F15_2 F 0.6585(8) 0.5095(2) 0.8758(4)
F16_2 F 0.3938(12) 0.5113(3) 0.9029(4)
F17_2 F 0.2115(12) 0.5062(4) 0.8639(5)
F18_2 F 0.2846(12) 0.4568(3) 0.9046(4)
O1_2 O 0.0655(6) 0.67783(18) 0.7424(3)
O7_2 O 0.2239(5) 0.79342(16) 0.88110(19)
O8_2 O 0.3937(5) 0.76289(18) 0.8551(2)
O9_2 O 0.3494(5) 0.68310(16) 0.8020(2)
O10_2 O 0.5569(5) 0.68462(16) 0.8290(2)
O11_2 O 0.3859(11) 0.3490(2) 0.8136(5)
O13_2 O 0.7183(5) 0.73477(17) 0.87438(19)
O14 O 0.8926(5) 0.76270(19) 0.8513(2)
O17_2 O 0.6398(5) 0.79604(15) 0.80604(18)
H1_2 H 0.6321 0.8152 0.8315
O18_2 O 0.1464(5) 0.73812(15) 0.81078(18)
H2_2 H 0.1400 0.7184 0.8357
O19_2 O 0.4790(5) 0.74707(15) 0.76835(18)
H3_2 H 0.4953 0.7289 0.7428
H4_2 H 0.0073 0.8048 0.7466
C1_2 C 0.0021(9) 0.6530(3) 0.7628(4)
C2_2 C 0.0091(9) 0.6120(4) 0.7478(4)
C3_2 C 0.0570(10) 0.6020(3) 0.7068(4)
H5_2 H 0.0865 0.6224 0.6883
C4_2 C 0.0631(13) 0.5624(3) 0.6921(6)
C5_2 C 0.0175(9) 0.5319(3) 0.7186(5)
C8_2 C 0.1176(15) 0.5530(4) 0.6517(6)
C9_2 C 0.0222(9) 0.4895(3) 0.7055(5)
C12_2 C 0.0365(9) 0.4079(2) 0.6880(3)
C13_2 C 0.1404(9) 0.4273(3) 0.7095(4)
H9_2 H 0.2179 0.4134 0.7176
C14_2 C 0.1316(10) 0.4674(3) 0.7193(5)
H10_2 H 0.2019 0.4801 0.7360
C16_2 C 0.0429(7) 0.3646(2) 0.6809(3)
C27_2 C 0.3427(8) 0.8011(3) 0.9681(3)
H14_2 H 0.2609 0.8128 0.9612
C28_2 C 0.4024(7) 0.7831(2) 0.9331(3)
C29_2 C 0.5246(10) 0.7671(4) 0.9447(4)
H15_2 H 0.5701 0.7555 0.9217
C30_2 C 0.5779(9) 0.7679(4) 0.9883(3)
H16_2 H 0.6601 0.7566 0.9952
C32_2 C 0.3362(8) 0.7792(2) 0.8855(3)
C33_2 C 0.4534(8) 0.6674(2) 0.8161(3)
C34_2 C 0.4529(7) 0.6231(2) 0.8165(3)
C35_2 C 0.5606(8) 0.6012(2) 0.8322(3)
H17_2 H 0.6358 0.6145 0.8445
C36_2 C 0.5591(9) 0.5605(3) 0.8302(3)
C37_2 C 0.4485(9) 0.5404(3) 0.8134(4)
C38_2 C 0.3405(9) 0.5626(3) 0.7981(4)
H18_2 H 0.2652 0.5496 0.7855
C39_2 C 0.3425(8) 0.6027(3) 0.8012(3)
H19_2 H 0.2665 0.6172 0.7926
C40_2 C 0.6777(11) 0.5388(3) 0.8483(5)
C41_2 C 0.4440(9) 0.4962(3) 0.8084(4)
C42_2 C 0.3853(12) 0.4702(3) 0.8386(5)
C43_2 C 0.3841(12) 0.4306(3) 0.8298(5)
H20_2 H 0.3457 0.4134 0.8500
C44_2 C 0.4354(9) 0.4148(3) 0.7935(4)
C45_2 C 0.4867(9) 0.4389(3) 0.7621(4)
H21_2 H 0.5185 0.4282 0.7356
C46_2 C 0.4903(10) 0.4796(3) 0.7707(4)
H22_2 H 0.5262 0.4965 0.7495
C47_2 C 0.325(2) 0.4846(4) 0.8789(7)
C48_2 C 0.4321(9) 0.3700(3) 0.7866(5)
C49_2 C 0.8350(8) 0.7447(3) 0.8794(3)
C50_2 C 0.8989(7) 0.7337(3) 0.9254(3)
C51_2 C 0.8405(8) 0.7096(3) 0.9535(3)
H23_2 H 0.7603 0.6983 0.9430
C52_2 C 0.8937(8) 0.7009(3) 0.9971(3)
O24_2 O 0.7307(5) 0.7668(2) 0.7303(2)
O27_2 O 0.2271(5) 0.75582(16) 0.72576(19)
O28_2 O 0.3727(5) 0.79829(17) 0.7017(2)
O29 O 0.9854(5) 0.78664(15) 0.77147(18)
F4_2 F 0.7342(10) 0.4990(4) 0.7125(5)
F5_2 F 0.7101(8) 0.4681(2) 0.6469(5)
F6_2 F 0.8007(7) 0.5237(2) 0.6531(4)
O2_2 O 0.9314(9) 0.6625(3) 0.7925(4)
C6_2 C 0.9715(13) 0.5425(4) 0.7591(5)
H6_2 H 0.9394 0.5225 0.7777
C7_2 C 0.9710(13) 0.5812(3) 0.7733(5)
H7_2 H 0.9428 0.5868 0.8023
C10_2 C 0.9181(9) 0.4683(3) 0.6854(4)
C11_2 C 0.9243(8) 0.4286(3) 0.6760(4)
H8_2 H 0.8521 0.4153 0.6613
C15_2 C 0.7912(11) 0.4894(3) 0.6728(5)
O23_2 O 0.8879(6) 0.72918(19) 0.7078(2)
F22_3 F 0.1458(10) 0.8536(3) 0.5129(3)
F23_3 F 0.3217(15) 0.8243(7) 0.5246(7)
F24_3 F 0.2779(17) 0.8704(4) 0.5644(4)
C53_3 C 0.0115(8) 0.7828(3) 0.5135(3)
C54_3 C 0.0707(8) 0.7591(3) 0.4846(3)
H24_3 H 0.1521 0.7484 0.4948
C55_3 C 0.0181(8) 0.7500(3) 0.4414(3)
H25_3 H 0.0617 0.7329 0.4226
C57_3 C 0.0699(8) 0.7860(3) 0.5624(3)
C58_3 C 0.1714(10) 0.8110(3) 0.5760(3)
C59_3 C 0.2352(8) 0.8084(3) 0.6197(3)
H26_3 H 0.3056 0.8254 0.6281
C60_3 C 0.1974(7) 0.7815(2) 0.6507(3)
C61_3 C 0.0985(9) 0.7566(3) 0.6369(3)
H27_3 H 0.0734 0.7373 0.6577
C62_3 C 0.0336(10) 0.7587(4) 0.5936(3)
C63_3 C 0.2254(12) 0.8402(4) 0.5437(4)
C64_3 C 0.2719(7) 0.7783(2) 0.6966(3)
Cu9 Cu 0.10402(10) 0.70797(3) 0.32699(4)
F18_3 F 0.2846(12) 0.0432(3) 0.4046(4)
O4_2 O 0.1499(5) 0.15141(16) 0.1944(2)
O11_3 O 0.3859(11) 0.1510(2) 0.3136(5)
O12_2 O 0.4832(6) 0.14060(18) 0.2505(3)
C9_3 C 0.0222(9) 0.0105(3) 0.2055(5)
C12_3 C 0.0365(9) 0.0921(2) 0.1880(3)
C13_3 C 0.1404(9) 0.0727(3) 0.2095(4)
H9_3 H 0.2179 0.0866 0.2176
C14_3 C 0.1316(10) 0.0326(3) 0.2193(5)
H10_3 H 0.2019 0.0199 0.2360
C16_3 C 0.0429(7) 0.1354(2) 0.1809(3)
C41_3 C 0.4440(9) 0.0038(3) 0.3084(4)
C42_3 C 0.3853(12) 0.0298(3) 0.3386(5)
C43_3 C 0.3841(12) 0.0694(3) 0.3298(5)
H20_3 H 0.3457 0.0866 0.3500
C44_3 C 0.4354(9) 0.0852(3) 0.2935(4)
C45_3 C 0.4867(9) 0.0611(3) 0.2621(4)
H21_3 H 0.5185 0.0718 0.2356
C46_3 C 0.4903(10) 0.0204(3) 0.2707(4)
H22_3 H 0.5262 0.0035 0.2495
C47_3 C 0.325(2) 0.0154(4) 0.3789(7)
C48_3 C 0.4321(9) 0.1300(3) 0.2866(5)
Cu6_3 Cu 0.59815(10) 0.75989(3) 0.32223(4)
F1_3 F 0.0516(12) 0.9703(3) 0.1211(4)
F2_3 F 0.1525(12) 0.9146(3) 0.1264(4)
F3_3 F 0.2349(11) 0.9665(3) 0.1573(5)
F7_3 F 0.7945(15) 0.6364(4) 0.5904(4)
F8_3 F 0.6596(10) 0.6453(3) 0.5339(4)
F9_3 F 0.8263(12) 0.6762(5) 0.5364(5)
F10_3 F 0.3993(9) 0.6520(2) 0.5722(3)
F11_3 F 0.2881(7) 0.7047(3) 0.5773(2)
F12_3 F 0.2243(9) 0.6589(3) 0.5297(3)
F13_3 F 0.7660(6) 0.9387(2) 0.3677(3)
F14_3 F 0.7312(7) 0.9798(3) 0.3140(4)
F15_3 F 0.6585(8) 0.9905(2) 0.3758(4)
F16_3 F 0.3938(12) 0.9887(3) 0.4029(4)
F17_3 F 0.2115(12) 0.9938(4) 0.3639(5)
F19_3 F 0.7203(9) 0.8419(3) 0.5061(3)
F20_3 F 0.7800(8) 0.8059(3) 0.5633(3)
F21_3 F 0.8940(9) 0.8541(2) 0.5470(3)
O1_3 O 0.0655(6) 0.82217(18) 0.2424(3)
O7_3 O 0.2239(5) 0.70658(16) 0.38110(19)
O8_3 O 0.3937(5) 0.73711(18) 0.3551(2)
O9_3 O 0.3494(5) 0.81690(16) 0.3020(2)
O10_3 O 0.5569(5) 0.81538(16) 0.3290(2)
O13_3 O 0.7183(5) 0.76523(17) 0.37438(19)
O14_2 O 0.8926(5) 0.73730(19) 0.3513(2)
O17_3 O 0.6398(5) 0.70396(15) 0.30604(18)
H1_3 H 0.6321 0.6848 0.3315
O18_3 O 0.1464(5) 0.76188(15) 0.31078(18)
H2_3 H 0.1400 0.7816 0.3357
O19_3 O 0.4790(5) 0.75293(15) 0.26835(18)
H3_3 H 0.4953 0.7711 0.2428
H4_3 H 0.0073 0.6952 0.2466
C1_3 C 0.0021(9) 0.8470(3) 0.2628(4)
C2_3 C 0.0091(9) 0.8880(4) 0.2478(4)
C3_3 C 0.0570(10) 0.8980(3) 0.2068(4)
H5_3 H 0.0865 0.8776 0.1883
C4_3 C 0.0631(13) 0.9376(3) 0.1921(6)
C5_3 C 0.0175(9) 0.9681(3) 0.2186(5)
C8_3 C 0.1176(15) 0.9470(4) 0.1517(6)
C17_3 C 0.7788(7) 0.7448(2) 0.7025(3)
C18_3 C 0.7065(7) 0.7365(3) 0.6574(3)
C19_3 C 0.7445(10) 0.7051(3) 0.6321(3)
H11_3 H 0.8144 0.6891 0.6438
C20_3 C 0.6811(10) 0.6963(3) 0.5890(3)
C21_3 C 0.5785(9) 0.7199(3) 0.5710(3)
C22_3 C 0.5410(9) 0.7506(3) 0.5971(3)
H12_3 H 0.4699 0.7662 0.5859
C23_3 C 0.6047(9) 0.7595(3) 0.6401(3)
H13_3 H 0.5778 0.7813 0.6572
C24_3 C 0.7335(14) 0.6623(5) 0.5636(5)
C25_3 C 0.5173(9) 0.7153(3) 0.5231(3)
C26_3 C 0.3981(9) 0.6976(3) 0.5118(3)
C27_3 C 0.3427(8) 0.6989(3) 0.4681(3)
H14_3 H 0.2609 0.6872 0.4612
C28_3 C 0.4024(7) 0.7169(2) 0.4331(3)
C29_3 C 0.5246(10) 0.7329(4) 0.4447(4)
H15_3 H 0.5701 0.7445 0.4217
C30_3 C 0.5779(9) 0.7321(4) 0.4883(3)
H16_3 H 0.6601 0.7434 0.4952
C31_3 C 0.3266(12) 0.6779(4) 0.5469(4)
C32_3 C 0.3362(8) 0.7208(2) 0.3855(3)
C33_3 C 0.4534(8) 0.8326(2) 0.3161(3)
C34_3 C 0.4529(7) 0.8769(2) 0.3165(3)
C35_3 C 0.5606(8) 0.8988(2) 0.3322(3)
H17_3 H 0.6358 0.8855 0.3445
C36_3 C 0.5591(9) 0.9395(3) 0.3302(3)
C37_3 C 0.4485(9) 0.9596(3) 0.3134(4)
C38_3 C 0.3405(9) 0.9374(3) 0.2981(4)
H18_3 H 0.2652 0.9504 0.2855
C39_3 C 0.3425(8) 0.8973(3) 0.3012(3)
H19_3 H 0.2665 0.8828 0.2926
C40_3 C 0.6777(11) 0.9612(3) 0.3483(5)
C49_3 C 0.8350(8) 0.7553(3) 0.3794(3)
C50_3 C 0.8989(7) 0.7663(3) 0.4254(3)
C51_3 C 0.8405(8) 0.7904(3) 0.4535(3)
H23_3 H 0.7603 0.8017 0.4430
C52_3 C 0.8937(8) 0.7991(3) 0.4971(3)
C56_3 C 0.8228(11) 0.8256(4) 0.5276(4)
H28_3 H 0.9641 0.7414 0.5854
O21_2 O 0.0541(5) 0.65284(15) 0.33744(19)
O22_2 O 0.8501(5) 0.65141(16) 0.3056(2)
O25_2 O 0.5168(6) 0.64060(18) 0.2495(3)
O29_2 O 0.9854(5) 0.71336(15) 0.27147(18)
F4_3 F 0.7342(10) 0.0010(4) 0.2125(5)
F5_3 F 0.7101(8) 0.0319(2) 0.1469(5)
O3_2 O 0.9459(5) 0.15284(15) 0.16256(19)
C10_3 C 0.9181(9) 0.0317(3) 0.1854(4)
C11_3 C 0.9243(8) 0.0714(3) 0.1760(4)
H8_3 H 0.8521 0.0847 0.1613
C15_3 C 0.7912(11) 0.0106(3) 0.1728(5)
Cu10_2 Cu 0.89598(10) 0.20797(3) 0.17301(4)
F6_3 F 0.8007(7) 0.9763(2) 0.1531(4)
O2_3 O 0.9314(9) 0.8375(3) 0.2925(4)
C6_3 C 0.9715(13) 0.9575(4) 0.2591(5)
H6_3 H 0.9394 0.9775 0.2777
C7_3 C 0.9710(13) 0.9188(3) 0.2733(5)
H7_3 H 0.9428 0.9132 0.3023
F4_4 F 0.2658(10) 0.5010(4) 0.2875(5)
F5_4 F 0.2899(8) 0.5319(2) 0.3531(5)
F6_4 F 0.1993(7) 0.4763(2) 0.3469(4)
O2_4 O 0.0686(9) 0.3375(3) 0.2075(4)
O20_2 O 0.0146(5) 0.21336(15) 0.22853(18)
C6_4 C 0.0285(13) 0.4575(4) 0.2409(5)
H6_4 H 0.0606 0.4775 0.2223
C7_4 C 0.0290(13) 0.4188(3) 0.2267(5)
H7_4 H 0.0572 0.4132 0.1977
C10_4 C 0.0819(9) 0.5317(3) 0.3146(4)
C11_4 C 0.0757(8) 0.5714(3) 0.3240(4)
H8_4 H 0.1479 0.5847 0.3387
C15_4 C 0.2088(11) 0.5106(3) 0.3272(5)
O26_2 O 0.1074(5) 0.23730(19) 0.1487(2)
Cu6_4 Cu 0.40185(10) 0.25989(3) 0.17777(4)
F1_4 F 0.9484(12) 0.4703(3) 0.3789(4)
F2_4 F 0.8475(12) 0.4146(3) 0.3736(4)
F3_4 F 0.7651(11) 0.4665(3) 0.3427(5)
F13_4 F 0.2340(6) 0.4387(2) 0.1323(3)
F14_4 F 0.2688(7) 0.4798(3) 0.1860(4)
F15_4 F 0.3415(8) 0.4905(2) 0.1242(4)
F16_4 F 0.6062(12) 0.4887(3) 0.0971(4)
F17_4 F 0.7885(12) 0.4938(4) 0.1361(5)
F18_4 F 0.7154(12) 0.5432(3) 0.0954(4)
O1_4 O 0.9345(6) 0.32217(18) 0.2576(3)
O7_4 O 0.7761(5) 0.20658(16) 0.11890(19)
O8_4 O 0.6063(5) 0.23711(18) 0.1449(2)
O9_4 O 0.6506(5) 0.31690(16) 0.1980(2)
O10_4 O 0.4431(5) 0.31538(16) 0.1710(2)
O11_4 O 0.6141(11) 0.6510(2) 0.1864(5)
O13_4 O 0.2817(5) 0.26523(17) 0.12562(19)
O17_4 O 0.3602(5) 0.20396(15) 0.19396(18)
H1_4 H 0.3679 0.1848 0.1685
O18_4 O 0.8536(5) 0.26188(15) 0.18922(18)
H2_4 H 0.8600 0.2816 0.1643
O19_4 O 0.5210(5) 0.25293(15) 0.23165(18)
H3_4 H 0.5047 0.2711 0.2572
H4_4 H 0.9927 0.1952 0.2534
C1_4 C 0.9979(9) 0.3470(3) 0.2372(4)
C2_4 C 0.9909(9) 0.3880(4) 0.2522(4)
C3_4 C 0.9430(10) 0.3980(3) 0.2932(4)
H5_4 H 0.9135 0.3776 0.3117
C4_4 C 0.9369(13) 0.4376(3) 0.3079(6)
C5_4 C 0.9825(9) 0.4681(3) 0.2814(5)
C8_4 C 0.8824(15) 0.4470(4) 0.3483(6)
C9_4 C 0.9778(9) 0.5105(3) 0.2945(5)
C12_4 C 0.9635(9) 0.5921(2) 0.3120(3)
C13_4 C 0.8596(9) 0.5727(3) 0.2905(4)
H9_4 H 0.7821 0.5866 0.2824
C14_4 C 0.8684(10) 0.5326(3) 0.2807(5)
H10_4 H 0.7981 0.5199 0.2640
C16_4 C 0.9571(7) 0.6354(2) 0.3191(3)
C27_4 C 0.6573(8) 0.1989(3) 0.0319(3)
H14_4 H 0.7391 0.1872 0.0388
C28_4 C 0.5976(7) 0.2169(2) 0.0669(3)
C29_4 C 0.4754(10) 0.2329(4) 0.0553(4)
H15_4 H 0.4299 0.2445 0.0783
C30_4 C 0.4221(9) 0.2321(4) 0.0117(3)
H16_4 H 0.3399 0.2434 0.0048
C32_4 C 0.6638(8) 0.2208(2) 0.1145(3)
C33_4 C 0.5466(8) 0.3326(2) 0.1839(3)
C34_4 C 0.5471(7) 0.3769(2) 0.1835(3)
C35_4 C 0.4394(8) 0.3988(2) 0.1678(3)
H17_4 H 0.3642 0.3855 0.1555
C36_4 C 0.4409(9) 0.4395(3) 0.1698(3)
C37_4 C 0.5515(9) 0.4596(3) 0.1866(4)
C38_4 C 0.6595(9) 0.4374(3) 0.2019(4)
H18_4 H 0.7348 0.4504 0.2145
C39_4 C 0.6575(8) 0.3973(3) 0.1988(3)
H19_4 H 0.7335 0.3828 0.2074
C40_4 C 0.3223(11) 0.4612(3) 0.1517(5)
C41_4 C 0.5560(9) 0.5038(3) 0.1916(4)
C42_4 C 0.6147(12) 0.5298(3) 0.1614(5)
C43_4 C 0.6159(12) 0.5694(3) 0.1702(5)
H20_4 H 0.6543 0.5866 0.1500
C44_4 C 0.5646(9) 0.5852(3) 0.2065(4)
C45_4 C 0.5133(9) 0.5611(3) 0.2379(4)
H21_4 H 0.4815 0.5718 0.2644
C46_4 C 0.5097(10) 0.5204(3) 0.2293(4)
H22_4 H 0.4738 0.5035 0.2505
C47_4 C 0.675(2) 0.5154(4) 0.1211(7)
C48_4 C 0.5679(9) 0.6300(3) 0.2134(5)
C49_4 C 0.1650(8) 0.2553(3) 0.1206(3)
C50_4 C 0.1011(7) 0.2663(3) 0.0746(3)
C51_4 C 0.1595(8) 0.2904(3) 0.0465(3)
H23_4 H 0.2397 0.3017 0.0570
C52_4 C 0.1063(8) 0.2991(3) 0.0029(3)
F7_4 F 0.2055(15) 0.1364(4) 0.9096(4)
F8_4 F 0.3404(10) 0.1453(3) 0.9661(4)
F9_4 F 0.1737(12) 0.1762(5) 0.9636(5)
F10_4 F 0.6007(9) 0.1520(2) 0.9278(3)
F11_4 F 0.7119(7) 0.2047(3) 0.9227(2)
F12_4 F 0.7757(9) 0.1589(3) 0.9703(3)
F19_4 F 0.2797(9) 0.3419(3) 0.9939(3)
F20_4 F 0.2200(8) 0.3059(3) 0.9367(3)
F21_4 F 0.1060(9) 0.3541(2) 0.9530(3)
C17_4 C 0.2212(7) 0.2448(2) 0.7975(3)
C18_4 C 0.2935(7) 0.2365(3) 0.8426(3)
C19_4 C 0.2555(10) 0.2051(3) 0.8679(3)
H11_4 H 0.1856 0.1891 0.8562
C20_4 C 0.3189(10) 0.1963(3) 0.9110(3)
C21_4 C 0.4215(9) 0.2199(3) 0.9290(3)
C22_4 C 0.4590(9) 0.2506(3) 0.9029(3)
H12_4 H 0.5301 0.2662 0.9141
C23_4 C 0.3953(9) 0.2595(3) 0.8599(3)
H13_4 H 0.4222 0.2813 0.8428
C24_4 C 0.2665(14) 0.1623(5) 0.9364(5)
C25_4 C 0.4827(9) 0.2153(3) 0.9769(3)
C26_4 C 0.6019(9) 0.1976(3) 0.9882(3)
C31_4 C 0.6734(12) 0.1779(4) 0.9531(4)
C56_4 C 0.1772(11) 0.3256(4) 0.9724(4)
H28_4 H 0.0359 0.2414 0.9146
C54_4 C 0.9293(8) 0.2591(3) 0.0154(3)
H24_4 H 0.8479 0.2484 0.0052
C55_4 C 0.9819(8) 0.2500(3) 0.0586(3)
H25_4 H 0.9383 0.2329 0.0774
F22_4 F 0.8542(10) 0.3536(3) 0.9871(3)
F23_4 F 0.6783(15) 0.3243(7) 0.9754(7)
F24_4 F 0.7221(17) 0.3704(4) 0.9356(4)
C53_4 C 0.9885(8) 0.2828(3) 0.9865(3)
C57_4 C 0.9301(8) 0.2860(3) 0.9376(3)
C58_4 C 0.8286(10) 0.3110(3) 0.9240(3)
C59_4 C 0.7648(8) 0.3084(3) 0.8803(3)
H26_4 H 0.6944 0.3254 0.8719
C60_4 C 0.8026(7) 0.2815(2) 0.8493(3)
C61_4 C 0.9015(9) 0.2566(3) 0.8631(3)
H27_4 H 0.9266 0.2373 0.8423
C62_4 C 0.9664(10) 0.2587(4) 0.9064(3)
C63_4 C 0.7746(12) 0.3402(4) 0.9563(4)
C64_4 C 0.7281(7) 0.2783(2) 0.8034(3)
loop_
_geom_bond_atom_site_label_1
_geom_bond_atom_site_label_2
_geom_bond_site_symmetry_1
_geom_bond_site_symmetry_2
H6 C6 1_555 1_555
H7 C7 1_555 1_555
Cu11 O20 1_555 1_555
C6 C7 1_555 1_555
Cu11 O26 1_555 1_555
F4 C15 1_555 1_555
F5 C15 1_555 1_555
C11 C10 1_555 1_555
H8 C11 1_555 1_555
C15 C10 1_555 1_555
Cu10 O3 1_555 1_555
Cu1 O8 1_555 1_555
Cu2 O1 1_555 1_555
Cu3 O7 1_555 1_555
Cu5 O17 1_555 1_555
Cu6 O8 1_555 1_555
F1 C8 1_555 1_555
F2 C8 1_555 1_555
F3 C8 1_555 1_555
F7 C24 1_555 1_555
F8 C24 1_555 1_555
F9 C24 1_555 1_555
F10 C31 1_555 1_555
F11 C31 1_555 1_555
F12 C31 1_555 1_555
F13 C40 1_555 1_555
F14 C40 1_555 1_555
F15 C40 1_555 1_555
F19 C56 1_555 1_555
F20 C56 1_555 1_555
F21 C56 1_555 1_555
O1 C1 1_555 1_555
O5 C17 1_555 1_555
O6 C17 1_555 1_555
O7 C32 1_555 1_555
O8 C32 1_555 1_555
O9 Cu1 1_555 1_555
O10 Cu6 1_555 1_555
O13 Cu6 1_555 1_555
O26 C49 1_555 1_555
O17 Cu11 1_555 1_555
H1 O17 1_555 1_555
O18 Cu1 1_555 1_555
H2 O18 1_555 1_555
O19 Cu1 1_555 1_555
H3 O19 1_555 1_555
C2 C1 1_555 1_555
C3 C2 1_555 1_555
H5 C3 1_555 1_555
C4 C3 1_555 1_555
C5 C4 1_555 1_555
C8 C4 1_555 1_555
C17 C18 1_555 1_555
C18 C19 1_555 1_555
C19 H11 1_555 1_555
C20 C19 1_555 1_555
C21 C20 1_555 1_555
C22 C21 1_555 1_555
H12 C22 1_555 1_555
C23 C18 1_555 1_555
H13 C23 1_555 1_555
C24 C20 1_555 1_555
C25 C21 1_555 1_555
C26 C25 1_555 1_555
C27 C26 1_555 1_555
H14 C27 1_555 1_555
C28 C27 1_555 1_555
C29 C28 1_555 1_555
H15 C29 1_555 1_555
C30 C25 1_555 1_555
H16 C30 1_555 1_555
C31 C26 1_555 1_555
C32 C28 1_555 1_555
C33 O9 1_555 1_555
C34 C33 1_555 1_555
C35 C34 1_555 1_555
H17 C35 1_555 1_555
C36 C35 1_555 1_555
C37 C36 1_555 1_555
C38 C37 1_555 1_555
H18 C38 1_555 1_555
C39 C34 1_555 1_555
H19 C39 1_555 1_555
C40 C36 1_555 1_555
C49 O13 1_555 1_555
C50 C49 1_555 1_555
C51 C50 1_555 1_555
H23 C51 1_555 1_555
C52 C51 1_555 1_555
C56 C52 1_555 1_555
Cu13 O6 1_555 1_555
O21 Cu3 1_555 1_555
O22 Cu11 1_555 1_555
O24 Cu11 1_555 1_555
O25 Cu5 1_555 1_555
O27 Cu1 1_555 1_555
O28 Cu5 1_555 1_555
Cu2 O18 1_555 1_555
Cu2 O27 1_555 1_555
Cu3 O18 1_555 1_555
Cu5 O19 1_555 1_555
Cu6 O17 1_555 1_555
Cu6 O19 1_555 1_555
O10 C33 1_555 1_555
C22 C23 1_555 1_555
C29 C30 1_555 1_555
C38 C39 1_555 1_555
F18 C47 1_555 1_555
O4 C16 1_555 1_555
O11 C48 1_555 1_555
O12 C48 1_555 1_555
C13 C12 1_555 1_555
H9 C13 1_555 1_555
C14 C9 1_555 1_555
H10 C14 1_555 1_555
C16 C12 1_555 1_555
C42 C41 1_555 1_555
C43 C42 1_555 1_555
H20 C43 1_555 1_555
C44 C43 1_555 1_555
C45 C44 1_555 1_555
H21 C45 1_555 1_555
C46 C41 1_555 1_555
H22 C46 1_555 1_555
C47 C42 1_555 1_555
C48 C44 1_555 1_555
Cu12 O4 1_555 1_555
Cu14 O12 1_555 1_555
C13 C14 1_555 1_555
C45 C46 1_555 1_555
F22 C63 1_555 1_555
F23 C63 1_555 1_555
F24 C63 1_555 1_555
O15 C64 1_555 1_555
O16 C64 1_555 1_555
C54 C53 1_555 1_555
H24 C54 1_555 1_555
H25 C55 1_555 1_555
C57 C53 1_555 1_555
C58 C57 1_555 1_555
C59 C58 1_555 1_555
H26 C59 1_555 1_555
C60 C59 1_555 1_555
C61 C60 1_555 1_555
H27 C61 1_555 1_555
C62 C57 1_555 1_555
C63 C58 1_555 1_555
C64 C60 1_555 1_555
Cu7 O15 1_555 1_555
Cu15 O16 1_555 1_555
O15 Cu8 1_555 1_555
C54 C55 1_555 1_555
C61 C62 1_555 1_555
F22_2 C63_2 1_555 1_555
F23_2 C63_2 1_555 1_555
F24_2 C63_2 1_555 1_555
O15_2 C64_2 1_555 1_555
O16_2 C64_2 1_555 1_555
C57_2 C53_2 1_555 1_555
C58_2 C57_2 1_555 1_555
C59_2 C58_2 1_555 1_555
H26_2 C59_2 1_555 1_555
C60_2 C59_2 1_555 1_555
C61_2 C60_2 1_555 1_555
H27_2 C61_2 1_555 1_555
C62_2 C57_2 1_555 1_555
C63_2 C58_2 1_555 1_555
C64_2 C60_2 1_555 1_555
Cu7_2 O15_2 1_555 1_555
Cu15_2 O16_2 1_555 1_555
O15_2 Cu8_2 1_555 1_555
C61_2 C62_2 1_555 1_555
H24_2 C54_2 1_555 1_555
H25_2 C55_2 1_555 1_555
C54_2 C55_2 1_555 1_555
F7_2 C24_2 1_555 1_555
F8_2 C24_2 1_555 1_555
F9_2 C24_2 1_555 1_555
F10_2 C31_2 1_555 1_555
F11_2 C31_2 1_555 1_555
F12_2 C31_2 1_555 1_555
F19_2 C56_2 1_555 1_555
F20_2 C56_2 1_555 1_555
F21_2 C56_2 1_555 1_555
O5_2 C17_2 1_555 1_555
O6_2 C17_2 1_555 1_555
C17_2 C18_2 1_555 1_555
C18_2 C19_2 1_555 1_555
C19_2 H11_2 1_555 1_555
C20_2 C19_2 1_555 1_555
C21_2 C20_2 1_555 1_555
C22_2 C21_2 1_555 1_555
H12_2 C22_2 1_555 1_555
C23_2 C18_2 1_555 1_555
H13_2 C23_2 1_555 1_555
C24_2 C20_2 1_555 1_555
C25_2 C21_2 1_555 1_555
C26_2 C25_2 1_555 1_555
C31_2 C26_2 1_555 1_555
Cu13_2 O6_2 1_555 1_555
C22_2 C23_2 1_555 1_555
Cu1_2 O8_2 1_555 1_555
Cu2_2 O1_2 1_555 1_555
Cu10 O7_2 1_555 1_555
Cu12 O14 1_555 1_555
Cu14 O17_2 1_555 1_555
Cu6_2 O8_2 1_555 1_555
F1_2 C8_2 1_555 1_555
F2_2 C8_2 1_555 1_555
F3_2 C8_2 1_555 1_555
F13_2 C40_2 1_555 1_555
F14_2 C40_2 1_555 1_555
F15_2 C40_2 1_555 1_555
F16_2 C47_2 1_555 1_555
F17_2 C47_2 1_555 1_555
F18_2 C47_2 1_555 1_555
O1_2 C1_2 1_555 1_555
O22 C16_2 1_555 1_555
O7_2 C32_2 1_555 1_555
O8_2 C32_2 1_555 1_555
O9_2 Cu1_2 1_555 1_555
O10_2 Cu6_2 1_555 1_555
O11_2 C48_2 1_555 1_555
O25 C48_2 1_555 1_555
O13_2 Cu6_2 1_555 1_555
O14 C49_2 1_555 1_555
O17_2 Cu12 1_555 1_555
H1_2 O17_2 1_555 1_555
O18_2 Cu1_2 1_555 1_555
H2_2 O18_2 1_555 1_555
O19_2 Cu1_2 1_555 1_555
H3_2 O19_2 1_555 1_555
C2_2 C1_2 1_555 1_555
C3_2 C2_2 1_555 1_555
H5_2 C3_2 1_555 1_555
C4_2 C3_2 1_555 1_555
C5_2 C4_2 1_555 1_555
C8_2 C4_2 1_555 1_555
C9_2 C5_2 1_555 1_555
C13_2 C12_2 1_555 1_555
H9_2 C13_2 1_555 1_555
C14_2 C9_2 1_555 1_555
H10_2 C14_2 1_555 1_555
C16_2 C12_2 1_555 1_555
H14_2 C27_2 1_555 1_555
C28_2 C27_2 1_555 1_555
C29_2 C28_2 1_555 1_555
H15_2 C29_2 1_555 1_555
H16_2 C30_2 1_555 1_555
C32_2 C28_2 1_555 1_555
C33_2 O9_2 1_555 1_555
C34_2 C33_2 1_555 1_555
C35_2 C34_2 1_555 1_555
H17_2 C35_2 1_555 1_555
C36_2 C35_2 1_555 1_555
C37_2 C36_2 1_555 1_555
C38_2 C37_2 1_555 1_555
H18_2 C38_2 1_555 1_555
C39_2 C34_2 1_555 1_555
H19_2 C39_2 1_555 1_555
C40_2 C36_2 1_555 1_555
C41_2 C37_2 1_555 1_555
C42_2 C41_2 1_555 1_555
C43_2 C42_2 1_555 1_555
H20_2 C43_2 1_555 1_555
C44_2 C43_2 1_555 1_555
C45_2 C44_2 1_555 1_555
H21_2 C45_2 1_555 1_555
C46_2 C41_2 1_555 1_555
H22_2 C46_2 1_555 1_555
C47_2 C42_2 1_555 1_555
C48_2 C44_2 1_555 1_555
C49_2 O13_2 1_555 1_555
C50_2 C49_2 1_555 1_555
C51_2 C50_2 1_555 1_555
H23_2 C51_2 1_555 1_555
C52_2 C51_2 1_555 1_555
O24_2 Cu12 1_555 1_555
O27_2 Cu1_2 1_555 1_555
O28_2 Cu14 1_555 1_555
O29 Cu12 1_555 1_555
Cu2_2 O18_2 1_555 1_555
Cu2_2 O27_2 1_555 1_555
Cu10 O18_2 1_555 1_555
Cu14 O19_2 1_555 1_555
Cu6_2 O17_2 1_555 1_555
Cu6_2 O19_2 1_555 1_555
O10_2 C33_2 1_555 1_555
C13_2 C14_2 1_555 1_555
C29_2 C30_2 1_555 1_555
C38_2 C39_2 1_555 1_555
C45_2 C46_2 1_555 1_555
F4_2 C15_2 1_555 1_555
F5_2 C15_2 1_555 1_555
F6_2 C15_2 1_555 1_555
H6_2 C6_2 1_555 1_555
H7_2 C7_2 1_555 1_555
C11_2 C10_2 1_555 1_555
H8_2 C11_2 1_555 1_555
C15_2 C10_2 1_555 1_555
C6_2 C7_2 1_555 1_555
F22_3 C63_3 1_555 1_555
F23_3 C63_3 1_555 1_555
F24_3 C63_3 1_555 1_555
O27_2 C64_3 1_555 1_555
O28_2 C64_3 1_555 1_555
C54_3 C53_3 1_555 1_555
H24_3 C54_3 1_555 1_555
H25_3 C55_3 1_555 1_555
C57_3 C53_3 1_555 1_555
C58_3 C57_3 1_555 1_555
C59_3 C58_3 1_555 1_555
H26_3 C59_3 1_555 1_555
C60_3 C59_3 1_555 1_555
C61_3 C60_3 1_555 1_555
H27_3 C61_3 1_555 1_555
C62_3 C57_3 1_555 1_555
C63_3 C58_3 1_555 1_555
C64_3 C60_3 1_555 1_555
C54_3 C55_3 1_555 1_555
C61_3 C62_3 1_555 1_555
F18_3 C47_3 1_555 1_555
O4_2 C16_3 1_555 1_555
O11_3 C48_3 1_555 1_555
O12_2 C48_3 1_555 1_555
C13_3 C12_3 1_555 1_555
H9_3 C13_3 1_555 1_555
C14_3 C9_3 1_555 1_555
H10_3 C14_3 1_555 1_555
C16_3 C12_3 1_555 1_555
C42_3 C41_3 1_555 1_555
C43_3 C42_3 1_555 1_555
H20_3 C43_3 1_555 1_555
C44_3 C43_3 1_555 1_555
C45_3 C44_3 1_555 1_555
H21_3 C45_3 1_555 1_555
C46_3 C41_3 1_555 1_555
H22_3 C46_3 1_555 1_555
C47_3 C42_3 1_555 1_555
C48_3 C44_3 1_555 1_555
Cu13 O4_2 1_555 1_555
Cu15 O12_2 1_555 1_555
C13_3 C14_3 1_555 1_555
C45_3 C46_3 1_555 1_555
Cu7_2 O8_3 1_555 1_555
Cu8_2 O1_3 1_555 1_555
Cu9 O7_3 1_555 1_555
Cu13_2 O14_2 1_555 1_555
Cu15_2 O17_3 1_555 1_555
Cu6_3 O8_3 1_555 1_555
F1_3 C8_3 1_555 1_555
F2_3 C8_3 1_555 1_555
F3_3 C8_3 1_555 1_555
F7_3 C24_3 1_555 1_555
F8_3 C24_3 1_555 1_555
F9_3 C24_3 1_555 1_555
F10_3 C31_3 1_555 1_555
F11_3 C31_3 1_555 1_555
F12_3 C31_3 1_555 1_555
F13_3 C40_3 1_555 1_555
F14_3 C40_3 1_555 1_555
F15_3 C40_3 1_555 1_555
F19_3 C56_3 1_555 1_555
F20_3 C56_3 1_555 1_555
F21_3 C56_3 1_555 1_555
O1_3 C1_3 1_555 1_555
O23_2 C17_3 1_555 1_555
O24_2 C17_3 1_555 1_555
O7_3 C32_3 1_555 1_555
O8_3 C32_3 1_555 1_555
O9_3 Cu7_2 1_555 1_555
O10_3 Cu6_3 1_555 1_555
O13_3 Cu6_3 1_555 1_555
O14_2 C49_3 1_555 1_555
O17_3 Cu13_2 1_555 1_555
H1_3 O17_3 1_555 1_555
O18_3 Cu7_2 1_555 1_555
H2_3 O18_3 1_555 1_555
O19_3 Cu7_2 1_555 1_555
H3_3 O19_3 1_555 1_555
C2_3 C1_3 1_555 1_555
C3_3 C2_3 1_555 1_555
H5_3 C3_3 1_555 1_555
C4_3 C3_3 1_555 1_555
C5_3 C4_3 1_555 1_555
C8_3 C4_3 1_555 1_555
C17_3 C18_3 1_555 1_555
C18_3 C19_3 1_555 1_555
C19_3 H11_3 1_555 1_555
C20_3 C19_3 1_555 1_555
C21_3 C20_3 1_555 1_555
C22_3 C21_3 1_555 1_555
H12_3 C22_3 1_555 1_555
C23_3 C18_3 1_555 1_555
H13_3 C23_3 1_555 1_555
C24_3 C20_3 1_555 1_555
C25_3 C21_3 1_555 1_555
C26_3 C25_3 1_555 1_555
C27_3 C26_3 1_555 1_555
H14_3 C27_3 1_555 1_555
C28_3 C27_3 1_555 1_555
C29_3 C28_3 1_555 1_555
H15_3 C29_3 1_555 1_555
C30_3 C25_3 1_555 1_555
H16_3 C30_3 1_555 1_555
C31_3 C26_3 1_555 1_555
C32_3 C28_3 1_555 1_555
C33_3 O9_3 1_555 1_555
C34_3 C33_3 1_555 1_555
C35_3 C34_3 1_555 1_555
H17_3 C35_3 1_555 1_555
C36_3 C35_3 1_555 1_555
C37_3 C36_3 1_555 1_555
C38_3 C37_3 1_555 1_555
H18_3 C38_3 1_555 1_555
C39_3 C34_3 1_555 1_555
H19_3 C39_3 1_555 1_555
C40_3 C36_3 1_555 1_555
C49_3 O13_3 1_555 1_555
C50_3 C49_3 1_555 1_555
C51_3 C50_3 1_555 1_555
H23_3 C51_3 1_555 1_555
C52_3 C51_3 1_555 1_555
C56_3 C52_3 1_555 1_555
O21_2 Cu9 1_555 1_555
O22_2 Cu13_2 1_555 1_555
O25_2 Cu15_2 1_555 1_555
O29_2 Cu13_2 1_555 1_555
Cu8_2 O18_3 1_555 1_555
Cu9 O18_3 1_555 1_555
Cu15_2 O19_3 1_555 1_555
Cu6_3 O17_3 1_555 1_555
Cu6_3 O19_3 1_555 1_555
O10_3 C33_3 1_555 1_555
C22_3 C23_3 1_555 1_555
C29_3 C30_3 1_555 1_555
C38_3 C39_3 1_555 1_555
F4_3 C15_3 1_555 1_555
F5_3 C15_3 1_555 1_555
C11_3 C10_3 1_555 1_555
H8_3 C11_3 1_555 1_555
C15_3 C10_3 1_555 1_555
Cu10_2 O3_2 1_555 1_555
H6_3 C6_3 1_555 1_555
H7_3 C7_3 1_555 1_555
C6_3 C7_3 1_555 1_555
F4_4 C15_4 1_555 1_555
F5_4 C15_4 1_555 1_555
F6_4 C15_4 1_555 1_555
H6_4 C6_4 1_555 1_555
H7_4 C7_4 1_555 1_555
C11_4 C10_4 1_555 1_555
H8_4 C11_4 1_555 1_555
C15_4 C10_4 1_555 1_555
Cu13 O20_2 1_555 1_555
C6_4 C7_4 1_555 1_555
Cu13 O26_2 1_555 1_555
Cu7 O8_4 1_555 1_555
Cu8 O1_4 1_555 1_555
Cu10_2 O7_4 1_555 1_555
Cu15 O17_4 1_555 1_555
Cu6_4 O8_4 1_555 1_555
F1_4 C8_4 1_555 1_555
F2_4 C8_4 1_555 1_555
F3_4 C8_4 1_555 1_555
F13_4 C40_4 1_555 1_555
F14_4 C40_4 1_555 1_555
F15_4 C40_4 1_555 1_555
F16_4 C47_4 1_555 1_555
F17_4 C47_4 1_555 1_555
F18_4 C47_4 1_555 1_555
O1_4 C1_4 1_555 1_555
O22_2 C16_4 1_555 1_555
O7_4 C32_4 1_555 1_555
O8_4 C32_4 1_555 1_555
O9_4 Cu7 1_555 1_555
O10_4 Cu6_4 1_555 1_555
O11_4 C48_4 1_555 1_555
O25_2 C48_4 1_555 1_555
O13_4 Cu6_4 1_555 1_555
O26_2 C49_4 1_555 1_555
O17_4 Cu13 1_555 1_555
H1_4 O17_4 1_555 1_555
O18_4 Cu7 1_555 1_555
H2_4 O18_4 1_555 1_555
O19_4 Cu7 1_555 1_555
H3_4 O19_4 1_555 1_555
C2_4 C1_4 1_555 1_555
C3_4 C2_4 1_555 1_555
H5_4 C3_4 1_555 1_555
C4_4 C3_4 1_555 1_555
C5_4 C4_4 1_555 1_555
C8_4 C4_4 1_555 1_555
C9_4 C5_4 1_555 1_555
C13_4 C12_4 1_555 1_555
H9_4 C13_4 1_555 1_555
C14_4 C9_4 1_555 1_555
H10_4 C14_4 1_555 1_555
C16_4 C12_4 1_555 1_555
H14_4 C27_4 1_555 1_555
C28_4 C27_4 1_555 1_555
C29_4 C28_4 1_555 1_555
H15_4 C29_4 1_555 1_555
H16_4 C30_4 1_555 1_555
C32_4 C28_4 1_555 1_555
C33_4 O9_4 1_555 1_555
C34_4 C33_4 1_555 1_555
C35_4 C34_4 1_555 1_555
H17_4 C35_4 1_555 1_555
C36_4 C35_4 1_555 1_555
C37_4 C36_4 1_555 1_555
C38_4 C37_4 1_555 1_555
H18_4 C38_4 1_555 1_555
C39_4 C34_4 1_555 1_555
H19_4 C39_4 1_555 1_555
C40_4 C36_4 1_555 1_555
C41_4 C37_4 1_555 1_555
C42_4 C41_4 1_555 1_555
C43_4 C42_4 1_555 1_555
H20_4 C43_4 1_555 1_555
C44_4 C43_4 1_555 1_555
C45_4 C44_4 1_555 1_555
H21_4 C45_4 1_555 1_555
C46_4 C41_4 1_555 1_555
H22_4 C46_4 1_555 1_555
C47_4 C42_4 1_555 1_555
C48_4 C44_4 1_555 1_555
C49_4 O13_4 1_555 1_555
C50_4 C49_4 1_555 1_555
C51_4 C50_4 1_555 1_555
H23_4 C51_4 1_555 1_555
C52_4 C51_4 1_555 1_555
Cu8 O18_4 1_555 1_555
Cu10_2 O18_4 1_555 1_555
Cu15 O19_4 1_555 1_555
Cu6_4 O17_4 1_555 1_555
Cu6_4 O19_4 1_555 1_555
O10_4 C33_4 1_555 1_555
C13_4 C14_4 1_555 1_555
C29_4 C30_4 1_555 1_555
C38_4 C39_4 1_555 1_555
C45_4 C46_4 1_555 1_555
F7_4 C24_4 1_555 1_555
F8_4 C24_4 1_555 1_555
F9_4 C24_4 1_555 1_555
F10_4 C31_4 1_555 1_555
F11_4 C31_4 1_555 1_555
F12_4 C31_4 1_555 1_555
F19_4 C56_4 1_555 1_555
F20_4 C56_4 1_555 1_555
F21_4 C56_4 1_555 1_555
O23 C17_4 1_555 1_555
O24 C17_4 1_555 1_555
C17_4 C18_4 1_555 1_555
C18_4 C19_4 1_555 1_555
C19_4 H11_4 1_555 1_555
C20_4 C19_4 1_555 1_555
C21_4 C20_4 1_555 1_555
C22_4 C21_4 1_555 1_555
H12_4 C22_4 1_555 1_555
C23_4 C18_4 1_555 1_555
H13_4 C23_4 1_555 1_555
C24_4 C20_4 1_555 1_555
C25_4 C21_4 1_555 1_555
C26_4 C25_4 1_555 1_555
C31_4 C26_4 1_555 1_555
C22_4 C23_4 1_555 1_555
H24_4 C54_4 1_555 1_555
H25_4 C55_4 1_555 1_555
C54_4 C55_4 1_555 1_555
F22_4 C63_4 1_555 1_555
F23_4 C63_4 1_555 1_555
F24_4 C63_4 1_555 1_555
O27 C64_4 1_555 1_555
O28 C64_4 1_555 1_555
C57_4 C53_4 1_555 1_555
C58_4 C57_4 1_555 1_555
C59_4 C58_4 1_555 1_555
H26_4 C59_4 1_555 1_555
C60_4 C59_4 1_555 1_555
C61_4 C60_4 1_555 1_555
H27_4 C61_4 1_555 1_555
C62_4 C57_4 1_555 1_555
C63_4 C58_4 1_555 1_555
C64_4 C60_4 1_555 1_555
C61_4 C62_4 1_555 1_555

#END
