
###############################################################################
#
# This file contains modified crystal structure data generated from the
# MOF subset of the Cambridge Structural Database (CSD) v543 
# hosted by the Cambridge Crystallographic Data Centre (CCDC).
#
# This work is licensed under the Creative Commons
# Attribution-NonCommercial-ShareAlike 4.0 International License.
# To view a copy of this license, visit
# http://creativecommons.org/licenses/by-nc-sa/4.0/
# or send a letter to
# Creative Commons, PO Box 1866, Mountain View, CA 94042, USA.
#
# CIF created using the CSD Python API on 29 September 2022
# The structure has been converted into the P1 space group
# The structure has a 3D framework
# The original CSD entry ZIWNIF01 is in the monoclinic crystal system
# The framework has been calculated to contain at least 10.0% void space
# The void calculation uses a probe of radius 1.32A, grid spacing 0.4
#
###############################################################################

data_ZIWNIF01
_chemical_formula_moiety         '(C256 H96 Cu23 F96 O72)n'
_symmetry_cell_setting           triclinic
_symmetry_space_group_name_H-M   'P 1'
_symmetry_Int_Tables_number      1
_space_group_name_Hall           'P 1'
loop_
_symmetry_equiv_pos_site_id
_symmetry_equiv_pos_as_xyz
1 x,y,z
_cell_length_a                   10.50760(10)
_cell_length_b                   33.8086(4)
_cell_length_c                   29.4609(5)
_cell_angle_alpha                90
_cell_angle_beta                 95.4820(10)
_cell_angle_gamma                90
_cell_volume                     10418
loop_
_atom_site_label
_atom_site_type_symbol
_atom_site_fract_x
_atom_site_fract_y
_atom_site_fract_z
Cu6 Cu 0.18883(9) 0.29344(3) 0.71373(4)
O17 O 0.3600(4) 0.29622(14) 0.69395(17)
O20 O 0.0143(5) 0.28669(14) 0.72860(17)
Cu11 Cu 0.49870(10) 0.30214(3) 0.74582(4)
Cu14 Cu 0.40184(10) 0.24012(3) 0.67776(4)
O22 O 0.1501(5) 0.34859(15) 0.6944(2)
O23 O 0.2693(5) 0.2667(2) 0.7697(2)
O25 O 0.1075(5) 0.26284(18) 0.6488(2)
Cu2 Cu 0.89593(10) 0.29204(3) 0.67300(4)
Cu3 Cu 0.68793(9) 0.24110(3) 0.71130(4)
F4 F 0.2657(10) 0.5012(4) 0.2876(5)
F5 F 0.2901(8) 0.5318(2) 0.3528(5)
F6 F 0.1994(7) 0.4762(2) 0.3468(3)
F7 F 0.2048(15) 0.3637(4) 0.4096(4)
F8 F 0.3405(10) 0.3549(3) 0.4659(3)
F9 F 0.1749(11) 0.3236(5) 0.4637(5)
F10 F 0.6007(8) 0.3479(2) 0.4277(2)
F11 F 0.7120(7) 0.2956(3) 0.4225(2)
F12 F 0.7753(9) 0.3412(3) 0.4702(3)
F13 F 0.2337(6) 0.0613(2) 0.6322(3)
F14 F 0.2686(7) 0.0202(3) 0.6859(4)
F15 F 0.3416(8) 0.0094(2) 0.6244(4)
F16 F 0.6061(12) 0.0116(3) 0.5971(3)
F17 F 0.7882(12) 0.0067(4) 0.6364(5)
F19 F 0.2792(9) 0.1578(3) 0.4940(3)
F20 F 0.2200(7) 0.1941(3) 0.4366(3)
F21 F 0.1062(8) 0.1460(2) 0.4531(3)
O2 O 0.0686(9) 0.3375(3) 0.2077(4)
O3 O 0.0541(5) 0.65290(14) 0.33733(18)
O5 O 0.1119(6) 0.27085(19) 0.2921(2)
O6 O 0.2693(5) 0.2333(2) 0.2697(2)
O7 O 0.7762(5) 0.29342(15) 0.61891(18)
O8 O 0.6064(5) 0.26297(17) 0.64475(19)
O9 O 0.6504(5) 0.18320(15) 0.6980(2)
O10 O 0.4429(5) 0.18460(15) 0.6710(2)
O13 O 0.2818(5) 0.23473(17) 0.62561(19)
O18 O 0.8534(4) 0.23798(14) 0.68920(18)
O19 O 0.5208(5) 0.24702(14) 0.73178(17)
C6 C 0.0282(12) 0.4577(4) 0.2410(5)
H2 H 0.0603 0.4777 0.2225
C7 C 0.0291(12) 0.4187(3) 0.2268(5)
H3 H 0.0579 0.4130 0.1979
C10 C 0.0821(9) 0.5315(3) 0.3144(4)
C11 C 0.0755(8) 0.5716(3) 0.3240(4)
H4 H 0.1476 0.5849 0.3387
C15 C 0.2093(10) 0.5106(3) 0.3268(5)
C17 C 0.2209(7) 0.2552(2) 0.2976(3)
C18 C 0.2934(7) 0.2636(2) 0.3426(3)
C19 C 0.2557(9) 0.2949(3) 0.3677(3)
H7 H 0.1863 0.3110 0.3557
C20 C 0.3184(10) 0.3036(3) 0.4113(3)
C21 C 0.4217(8) 0.2799(3) 0.4290(3)
C22 C 0.4594(8) 0.2496(3) 0.4030(3)
H8 H 0.5307 0.2339 0.4143
C23 C 0.3957(8) 0.2405(3) 0.3599(3)
H9 H 0.4229 0.2188 0.3428
C24 C 0.2673(14) 0.3377(5) 0.4361(5)
C25 C 0.4829(8) 0.2847(3) 0.4768(3)
C26 C 0.6019(9) 0.3024(3) 0.4883(3)
C27 C 0.6571(7) 0.3011(2) 0.5320(3)
H10 H 0.7387 0.3130 0.5389
C28 C 0.5975(7) 0.2830(2) 0.5670(3)
C29 C 0.4753(9) 0.2669(4) 0.5553(3)
H11 H 0.4301 0.2551 0.5782
C30 C 0.4216(8) 0.2680(4) 0.5117(3)
H12 H 0.3389 0.2569 0.5048
C31 C 0.6738(11) 0.3222(3) 0.4529(4)
C32 C 0.6639(8) 0.2792(2) 0.6144(3)
C33 C 0.5463(7) 0.1674(2) 0.6838(3)
C34 C 0.5471(7) 0.1231(2) 0.6834(3)
C35 C 0.4399(8) 0.1012(2) 0.6675(3)
H13 H 0.3650 0.1145 0.6549
C36 C 0.4412(8) 0.0607(2) 0.6697(3)
C37 C 0.5518(9) 0.0404(2) 0.6865(3)
C38 C 0.6596(9) 0.0626(3) 0.7018(4)
H14 H 0.7351 0.0495 0.7141
C39 C 0.6573(8) 0.1028(2) 0.6990(3)
H15 H 0.7330 0.1173 0.7080
C40 C 0.3220(10) 0.0387(3) 0.6522(5)
C49 C 0.1653(7) 0.2446(2) 0.6206(3)
C50 C 0.1009(8) 0.2337(3) 0.5747(3)
C51 C 0.1595(8) 0.2097(3) 0.5464(3)
H19 H 0.2400 0.1985 0.5568
C52 C 0.1063(8) 0.2010(3) 0.5031(3)
C56 C 0.1766(11) 0.1744(4) 0.4724(4)
H24 H 0.0362 0.2585 0.4146
Cu7 Cu 0.98126(10) 0.23092(3) 0.74224(4)
Cu9 Cu 0.10407(10) 0.70796(3) 0.32700(4)
Cu17 Cu 0.18883(9) 0.20656(3) 0.21373(4)
O21 O 0.9459(5) 0.34710(14) 0.66267(18)
O24 O 0.4831(6) 0.35931(17) 0.7506(3)
O26 O 0.7729(5) 0.25580(15) 0.77411(18)
O27 O 0.6275(5) 0.29826(16) 0.79820(19)
O30 O 0.0143(5) 0.21331(14) 0.22860(17)
F18 F 0.7145(12) 0.9567(3) 0.5955(4)
O11 O 0.6136(11) 0.8490(2) 0.6863(5)
O12 O 0.5169(6) 0.85931(17) 0.7494(3)
C41 C 0.5560(9) 0.9964(3) 0.6914(4)
C42 C 0.6155(12) 0.9700(3) 0.6613(5)
C43 C 0.6160(11) 0.9307(3) 0.6700(5)
H16 H 0.6542 0.9134 0.6498
C44 C 0.5646(9) 0.9150(3) 0.7063(4)
C45 C 0.5135(9) 0.9390(3) 0.7380(4)
H17 H 0.4819 0.9282 0.7645
C46 C 0.5102(9) 0.9797(3) 0.7293(4)
H18 H 0.4746 0.9966 0.7505
C47 C 0.675(2) 0.9844(4) 0.6212(7)
C48 C 0.5676(9) 0.8701(3) 0.7134(4)
Cu12 Cu 0.50130(10) 0.80214(3) 0.75418(4)
Cu1 Cu 0.98126(10) 0.26908(3) 0.24224(4)
F1 F 0.9482(12) 0.4701(3) 0.3790(4)
F2 F 0.8476(12) 0.4145(3) 0.3735(4)
F3 F 0.7651(10) 0.4664(3) 0.3425(5)
F22 F 0.8541(10) 0.1464(3) 0.4871(3)
F23 F 0.6806(14) 0.1762(6) 0.4761(7)
F24 F 0.7208(16) 0.1298(4) 0.4356(4)
O1 O 0.9341(6) 0.32213(18) 0.2576(3)
O4 O 0.8499(5) 0.65141(15) 0.3056(2)
O15 O 0.7729(5) 0.24420(15) 0.27411(18)
O16 O 0.6275(5) 0.20174(16) 0.29820(19)
C1 C 0.9986(8) 0.3469(3) 0.2371(4)
C2 C 0.9902(9) 0.3881(4) 0.2524(4)
C3 C 0.9434(10) 0.3980(3) 0.2931(4)
H1 H 0.9142 0.3775 0.3117
C4 C 0.9377(12) 0.4375(3) 0.3079(5)
C5 C 0.9821(8) 0.4682(3) 0.2813(4)
C8 C 0.8818(16) 0.4471(4) 0.3484(8)
C9 C 0.9776(9) 0.5107(3) 0.2944(4)
C12 C 0.9638(8) 0.5921(2) 0.3119(3)
C13 C 0.8595(9) 0.5728(3) 0.2908(4)
H5 H 0.7819 0.5866 0.2831
C14 C 0.8684(10) 0.5325(3) 0.2808(5)
H6 H 0.7981 0.5197 0.2642
C16 C 0.9573(7) 0.6355(2) 0.3190(3)
C53 C 0.9881(8) 0.2172(3) 0.4864(3)
C54 C 0.9288(8) 0.2410(3) 0.5154(3)
H20 H 0.8475 0.2518 0.5053
C55 C 0.9820(8) 0.2499(3) 0.5587(3)
H21 H 0.9386 0.2670 0.5776
C57 C 0.9306(8) 0.2141(3) 0.4375(3)
C58 C 0.8286(9) 0.1889(3) 0.4238(3)
C59 C 0.7647(8) 0.1917(3) 0.3804(3)
H22 H 0.6940 0.1748 0.3721
C60 C 0.8028(7) 0.2185(2) 0.3494(3)
C61 C 0.9017(8) 0.2435(3) 0.3630(3)
H23 H 0.9267 0.2629 0.3423
C62 C 0.9666(9) 0.2412(3) 0.4065(3)
C63 C 0.7743(12) 0.1597(4) 0.4562(4)
C64 C 0.7281(6) 0.2217(2) 0.3036(3)
Cu10 Cu 0.68793(9) 0.25890(3) 0.21130(4)
Cu13 Cu 0.49870(10) 0.19786(3) 0.24582(4)
Cu16 Cu 0.81117(9) 0.70656(3) 0.28627(4)
O29 O 0.8534(4) 0.26202(14) 0.18920(18)
O4_2 O 0.1501(5) 0.15141(15) 0.1944(2)
C9_2 C 0.0224(9) 0.0107(3) 0.2056(4)
C12_2 C 0.0362(8) 0.0921(2) 0.1881(3)
C13_2 C 0.1405(9) 0.0728(3) 0.2092(4)
H5_2 H 0.2181 0.0866 0.2169
C14_2 C 0.1316(10) 0.0325(3) 0.2192(5)
H6_2 H 0.2019 0.0197 0.2358
C16_2 C 0.0427(7) 0.1355(2) 0.1810(3)
Cu1_2 Cu 0.01874(10) 0.76908(3) 0.25776(4)
F1_2 F 0.0518(12) 0.9701(3) 0.1210(4)
F2_2 F 0.1524(12) 0.9145(3) 0.1265(4)
F3_2 F 0.2349(10) 0.9664(3) 0.1575(5)
F22_2 F 0.1459(10) 0.6464(3) 0.0129(3)
F23_2 F 0.3194(14) 0.6762(6) 0.0239(7)
F24_2 F 0.2792(16) 0.6298(4) 0.0644(4)
O1_2 O 0.0659(6) 0.82213(18) 0.2424(3)
O15_2 O 0.2271(5) 0.74420(15) 0.22589(18)
O16_2 O 0.3725(5) 0.70174(16) 0.20180(19)
C1_2 C 0.0014(8) 0.8469(3) 0.2629(4)
C2_2 C 0.0098(9) 0.8881(4) 0.2476(4)
C3_2 C 0.0566(10) 0.8980(3) 0.2069(4)
H1_2 H 0.0858 0.8775 0.1883
C4_2 C 0.0623(12) 0.9375(3) 0.1921(5)
C5_2 C 0.0179(8) 0.9682(3) 0.2187(4)
C8_2 C 0.1182(16) 0.9471(4) 0.1516(8)
C53_2 C 0.0119(8) 0.7172(3) 0.0136(3)
C57_2 C 0.0694(8) 0.7141(3) 0.0625(3)
C58_2 C 0.1714(9) 0.6889(3) 0.0762(3)
C59_2 C 0.2353(8) 0.6917(3) 0.1196(3)
H22_2 H 0.3060 0.6748 0.1279
C60_2 C 0.1972(7) 0.7185(2) 0.1506(3)
C61_2 C 0.0983(8) 0.7435(3) 0.1370(3)
H23_2 H 0.0733 0.7629 0.1577
C62_2 C 0.0334(9) 0.7412(3) 0.0935(3)
C63_2 C 0.2257(12) 0.6597(4) 0.0438(4)
C64_2 C 0.2719(6) 0.7217(2) 0.1964(3)
Cu10_2 Cu 0.31207(9) 0.75890(3) 0.28870(4)
Cu13_2 Cu 0.50130(10) 0.69786(3) 0.25418(4)
O29_2 O 0.1466(4) 0.76202(14) 0.31080(18)
C54_2 C 0.0712(8) 0.7410(3) 0.9846(3)
H20_2 H 0.1525 0.7518 0.9947
C55_2 C 0.0180(8) 0.7499(3) 0.9413(3)
H21_2 H 0.0614 0.7670 0.9224
Cu8 Cu 0.10407(10) 0.79204(3) 0.82700(4)
F4_2 F 0.7343(10) 0.0012(4) 0.2124(5)
F5_2 F 0.7099(8) 0.0318(2) 0.1472(5)
O3_2 O 0.9459(5) 0.15290(14) 0.16267(18)
C10_2 C 0.9179(9) 0.0315(3) 0.1856(4)
C11_2 C 0.9245(8) 0.0716(3) 0.1760(4)
H4_2 H 0.8524 0.0849 0.1613
C15_2 C 0.7907(10) 0.0106(3) 0.1732(5)
Cu9_2 Cu 0.89593(10) 0.20796(3) 0.17300(4)
F6_2 F 0.8006(7) 0.9762(2) 0.1532(3)
F7_2 F 0.7952(15) 0.8637(4) 0.0904(4)
F8_2 F 0.6595(10) 0.8549(3) 0.0341(3)
F9_2 F 0.8251(11) 0.8236(5) 0.0363(5)
F10_2 F 0.3993(8) 0.8479(2) 0.0723(2)
F11_2 F 0.2880(7) 0.7956(3) 0.0775(2)
F12_2 F 0.2247(9) 0.8412(3) 0.0298(3)
F19_2 F 0.7208(9) 0.6578(3) 0.0060(3)
F20_2 F 0.7800(7) 0.6941(3) 0.0634(3)
F21_2 F 0.8938(8) 0.6460(2) 0.0469(3)
O2_2 O 0.9314(9) 0.8375(3) 0.2923(4)
O5_2 O 0.8881(6) 0.77085(19) 0.2079(2)
O6_2 O 0.7307(5) 0.7333(2) 0.2303(2)
C6_2 C 0.9718(12) 0.9577(4) 0.2590(5)
H2_2 H 0.9397 0.9777 0.2775
C7_2 C 0.9709(12) 0.9187(3) 0.2732(5)
H3_2 H 0.9421 0.9130 0.3021
C17_2 C 0.7791(7) 0.7552(2) 0.2024(3)
C18_2 C 0.7066(7) 0.7636(2) 0.1574(3)
C19_2 C 0.7443(9) 0.7949(3) 0.1323(3)
H7_2 H 0.8137 0.8110 0.1443
C20_2 C 0.6816(10) 0.8036(3) 0.0887(3)
C21_2 C 0.5783(8) 0.7799(3) 0.0710(3)
C22_2 C 0.5406(8) 0.7496(3) 0.0970(3)
H8_2 H 0.4693 0.7339 0.0857
C23_2 C 0.6043(8) 0.7405(3) 0.1401(3)
H9_2 H 0.5771 0.7188 0.1572
C24_2 C 0.7327(14) 0.8377(5) 0.0639(5)
C25_2 C 0.5171(8) 0.7847(3) 0.0232(3)
C26_2 C 0.3981(9) 0.8024(3) 0.0117(3)
C31_2 C 0.3262(11) 0.8222(3) 0.0471(4)
C56_2 C 0.8234(11) 0.6744(4) 0.0276(4)
H24_2 H 0.9638 0.7585 0.0854
O30_2 O 0.9857(5) 0.71331(14) 0.27140(17)
Cu3_2 Cu 0.31207(9) 0.74110(3) 0.78870(4)
Cu5 Cu 0.59816(10) 0.74012(3) 0.82224(4)
F13_2 F 0.7663(6) 0.5613(2) 0.8678(3)
F14_2 F 0.7314(7) 0.5202(3) 0.8141(4)
F15_2 F 0.6584(8) 0.5094(2) 0.8756(4)
F16_2 F 0.3939(12) 0.5116(3) 0.9029(3)
F17_2 F 0.2118(12) 0.5067(4) 0.8636(5)
F18_2 F 0.2855(12) 0.4567(3) 0.9045(4)
O7_2 O 0.2238(5) 0.79342(15) 0.88109(18)
O8_2 O 0.3936(5) 0.76297(17) 0.85525(19)
O9_2 O 0.3496(5) 0.68320(15) 0.8020(2)
O10_2 O 0.5571(5) 0.68460(15) 0.8290(2)
O11_2 O 0.3864(11) 0.3490(2) 0.8137(5)
O13_2 O 0.7182(5) 0.73473(17) 0.87439(19)
O14 O 0.8925(5) 0.76284(18) 0.8512(2)
O18_2 O 0.1466(4) 0.73798(14) 0.81080(18)
O19_2 O 0.4792(5) 0.74702(14) 0.76822(17)
C27_2 C 0.3429(7) 0.8011(2) 0.9680(3)
H10_2 H 0.2613 0.8130 0.9611
C28_2 C 0.4025(7) 0.7830(2) 0.9330(3)
C29_2 C 0.5247(9) 0.7669(4) 0.9447(3)
H11_2 H 0.5699 0.7551 0.9218
C30_2 C 0.5784(8) 0.7680(4) 0.9883(3)
H12_2 H 0.6611 0.7569 0.9952
C32_2 C 0.3361(8) 0.7792(2) 0.8856(3)
C33_2 C 0.4537(7) 0.6674(2) 0.8162(3)
C34_2 C 0.4529(7) 0.6231(2) 0.8166(3)
C35_2 C 0.5601(8) 0.6012(2) 0.8325(3)
H13_2 H 0.6350 0.6145 0.8451
C36_2 C 0.5588(8) 0.5607(2) 0.8303(3)
C37_2 C 0.4482(9) 0.5404(2) 0.8135(3)
C38_2 C 0.3404(9) 0.5626(3) 0.7982(4)
H14_2 H 0.2649 0.5495 0.7859
C39_2 C 0.3427(8) 0.6028(2) 0.8010(3)
H15_2 H 0.2670 0.6173 0.7920
C40_2 C 0.6780(10) 0.5387(3) 0.8478(5)
C41_2 C 0.4440(9) 0.4964(3) 0.8086(4)
C42_2 C 0.3845(12) 0.4700(3) 0.8387(5)
C43_2 C 0.3840(11) 0.4307(3) 0.8300(5)
H16_2 H 0.3458 0.4134 0.8502
C44_2 C 0.4354(9) 0.4150(3) 0.7937(4)
C45_2 C 0.4865(9) 0.4390(3) 0.7620(4)
H17_2 H 0.5181 0.4282 0.7355
C46_2 C 0.4898(9) 0.4797(3) 0.7707(4)
H18_2 H 0.5254 0.4966 0.7495
C47_2 C 0.325(2) 0.4844(4) 0.8788(7)
C48_2 C 0.4324(9) 0.3701(3) 0.7866(4)
C49_2 C 0.8347(7) 0.7446(2) 0.8794(3)
C50_2 C 0.8991(8) 0.7337(3) 0.9253(3)
C51_2 C 0.8405(8) 0.7097(3) 0.9536(3)
H19_2 H 0.7600 0.6985 0.9432
C52_2 C 0.8937(8) 0.7010(3) 0.9969(3)
Cu7_2 Cu 0.01874(10) 0.73092(3) 0.75776(4)
Cu15 Cu 0.81117(9) 0.79344(3) 0.78627(4)
O21_2 O 0.0541(5) 0.84710(14) 0.83733(18)
O26_2 O 0.2271(5) 0.75580(15) 0.72589(18)
O27_2 O 0.3725(5) 0.79826(16) 0.70180(19)
O28 O 0.6400(4) 0.79622(14) 0.80605(17)
O20_2 O 0.9857(5) 0.78669(14) 0.77140(17)
O22_2 O 0.8499(5) 0.84859(15) 0.8056(2)
O23_2 O 0.7307(5) 0.7667(2) 0.7303(2)
F1_3 F 0.0518(12) 0.5299(3) 0.6210(4)
F2_3 F 0.1524(12) 0.5855(3) 0.6265(4)
F3_3 F 0.2349(10) 0.5336(3) 0.6575(5)
F22_3 F 0.1459(10) 0.8536(3) 0.5129(3)
F23_3 F 0.3194(14) 0.8238(6) 0.5239(7)
F24_3 F 0.2792(16) 0.8702(4) 0.5644(4)
O1_3 O 0.0659(6) 0.67787(18) 0.7424(3)
C1_3 C 0.0014(8) 0.6531(3) 0.7629(4)
C2_3 C 0.0098(9) 0.6119(4) 0.7476(4)
C3_3 C 0.0566(10) 0.6020(3) 0.7069(4)
H1_3 H 0.0858 0.6225 0.6883
C4_3 C 0.0623(12) 0.5625(3) 0.6921(5)
C5_3 C 0.0179(8) 0.5318(3) 0.7187(4)
C8_3 C 0.1182(16) 0.5529(4) 0.6516(8)
C9_3 C 0.0224(9) 0.4893(3) 0.7056(4)
C12_3 C 0.0362(8) 0.4079(2) 0.6881(3)
C13_3 C 0.1405(9) 0.4272(3) 0.7092(4)
H5_3 H 0.2181 0.4134 0.7169
C14_3 C 0.1316(10) 0.4675(3) 0.7192(5)
H6_3 H 0.2019 0.4803 0.7358
C16_3 C 0.0427(7) 0.3645(2) 0.6810(3)
C53_3 C 0.0119(8) 0.7828(3) 0.5136(3)
C54_3 C 0.0712(8) 0.7590(3) 0.4846(3)
H20_3 H 0.1525 0.7482 0.4947
C55_3 C 0.0180(8) 0.7501(3) 0.4413(3)
H21_3 H 0.0614 0.7330 0.4224
C57_3 C 0.0694(8) 0.7859(3) 0.5625(3)
C58_3 C 0.1714(9) 0.8111(3) 0.5762(3)
C59_3 C 0.2353(8) 0.8083(3) 0.6196(3)
H22_3 H 0.3060 0.8252 0.6279
C60_3 C 0.1972(7) 0.7815(2) 0.6506(3)
C61_3 C 0.0983(8) 0.7565(3) 0.6370(3)
H23_3 H 0.0733 0.7371 0.6577
C62_3 C 0.0334(9) 0.7588(3) 0.5935(3)
C63_3 C 0.2257(12) 0.8403(4) 0.5438(4)
C64_3 C 0.2719(6) 0.7783(2) 0.6964(3)
F18_3 F 0.2855(12) 0.0433(3) 0.4045(4)
O11_3 O 0.3864(11) 0.1510(2) 0.3137(5)
O12_2 O 0.4831(6) 0.14069(17) 0.2506(3)
C41_3 C 0.4440(9) 0.0036(3) 0.3086(4)
C42_3 C 0.3845(12) 0.0300(3) 0.3387(5)
C43_3 C 0.3840(11) 0.0693(3) 0.3300(5)
H16_3 H 0.3458 0.0866 0.3502
C44_3 C 0.4354(9) 0.0850(3) 0.2937(4)
C45_3 C 0.4865(9) 0.0610(3) 0.2620(4)
H17_3 H 0.5181 0.0718 0.2355
C46_3 C 0.4898(9) 0.0203(3) 0.2707(4)
H18_3 H 0.5254 0.0034 0.2495
C47_3 C 0.325(2) 0.0156(4) 0.3788(7)
C48_3 C 0.4324(9) 0.1299(3) 0.2866(4)
Cu5_2 Cu 0.59816(10) 0.75988(3) 0.32224(4)
F4_3 F 0.7343(10) 0.4988(4) 0.7124(5)
F5_3 F 0.7099(8) 0.4682(2) 0.6472(5)
F6_3 F 0.8006(7) 0.5238(2) 0.6532(3)
F7_3 F 0.7952(15) 0.6363(4) 0.5904(4)
F8_3 F 0.6595(10) 0.6451(3) 0.5341(3)
F9_3 F 0.8251(11) 0.6764(5) 0.5363(5)
F10_3 F 0.3993(8) 0.6521(2) 0.5723(2)
F11_3 F 0.2880(7) 0.7044(3) 0.5775(2)
F12_3 F 0.2247(9) 0.6588(3) 0.5298(3)
F13_3 F 0.7663(6) 0.9387(2) 0.3678(3)
F14_3 F 0.7314(7) 0.9798(3) 0.3141(4)
F15_3 F 0.6584(8) 0.9906(2) 0.3756(4)
F16_3 F 0.3939(12) 0.9884(3) 0.4029(3)
F17_3 F 0.2118(12) 0.9933(4) 0.3636(5)
F19_3 F 0.7208(9) 0.8422(3) 0.5060(3)
F20_3 F 0.7800(7) 0.8059(3) 0.5634(3)
F21_3 F 0.8938(8) 0.8540(2) 0.5469(3)
O2_3 O 0.9314(9) 0.6625(3) 0.7923(4)
O5_3 O 0.8881(6) 0.72915(19) 0.7079(2)
O7_3 O 0.2238(5) 0.70658(15) 0.38109(18)
O8_3 O 0.3936(5) 0.73703(17) 0.35525(19)
O9_3 O 0.3496(5) 0.81680(15) 0.3020(2)
O10_3 O 0.5571(5) 0.81540(15) 0.3290(2)
O13_3 O 0.7182(5) 0.76527(17) 0.37439(19)
O14_2 O 0.8925(5) 0.73716(18) 0.3512(2)
O19_3 O 0.4792(5) 0.75298(14) 0.26822(17)
C6_3 C 0.9718(12) 0.5423(4) 0.7590(5)
H2_3 H 0.9397 0.5223 0.7775
C7_3 C 0.9709(12) 0.5813(3) 0.7732(5)
H3_3 H 0.9421 0.5870 0.8021
C10_3 C 0.9179(9) 0.4685(3) 0.6856(4)
C11_3 C 0.9245(8) 0.4284(3) 0.6760(4)
H4_3 H 0.8524 0.4151 0.6613
C15_3 C 0.7907(10) 0.4894(3) 0.6732(5)
C17_3 C 0.7791(7) 0.7448(2) 0.7024(3)
C18_3 C 0.7066(7) 0.7364(2) 0.6574(3)
C19_3 C 0.7443(9) 0.7051(3) 0.6323(3)
H7_3 H 0.8137 0.6890 0.6443
C20_3 C 0.6816(10) 0.6964(3) 0.5887(3)
C21_3 C 0.5783(8) 0.7201(3) 0.5710(3)
C22_3 C 0.5406(8) 0.7504(3) 0.5970(3)
H8_3 H 0.4693 0.7661 0.5857
C23_3 C 0.6043(8) 0.7595(3) 0.6401(3)
H9_3 H 0.5771 0.7812 0.6572
C24_3 C 0.7327(14) 0.6623(5) 0.5639(5)
C25_3 C 0.5171(8) 0.7153(3) 0.5232(3)
C26_3 C 0.3981(9) 0.6976(3) 0.5117(3)
C27_3 C 0.3429(7) 0.6989(2) 0.4680(3)
H10_3 H 0.2613 0.6870 0.4611
C28_3 C 0.4025(7) 0.7170(2) 0.4330(3)
C29_3 C 0.5247(9) 0.7331(4) 0.4447(3)
H11_3 H 0.5699 0.7449 0.4218
C30_3 C 0.5784(8) 0.7320(4) 0.4883(3)
H12_3 H 0.6611 0.7431 0.4952
C31_3 C 0.3262(11) 0.6778(3) 0.5471(4)
C32_3 C 0.3361(8) 0.7208(2) 0.3856(3)
C33_3 C 0.4537(7) 0.8326(2) 0.3162(3)
C34_3 C 0.4529(7) 0.8769(2) 0.3166(3)
C35_3 C 0.5601(8) 0.8988(2) 0.3325(3)
H13_3 H 0.6350 0.8855 0.3451
C36_3 C 0.5588(8) 0.9393(2) 0.3303(3)
C37_3 C 0.4482(9) 0.9596(2) 0.3135(3)
C38_3 C 0.3404(9) 0.9374(3) 0.2982(4)
H14_3 H 0.2649 0.9505 0.2859
C39_3 C 0.3427(8) 0.8972(2) 0.3010(3)
H15_3 H 0.2670 0.8827 0.2920
C40_3 C 0.6780(10) 0.9613(3) 0.3478(5)
C49_3 C 0.8347(7) 0.7554(2) 0.3794(3)
C50_3 C 0.8991(8) 0.7663(3) 0.4253(3)
C51_3 C 0.8405(8) 0.7903(3) 0.4536(3)
H19_3 H 0.7600 0.8015 0.4432
C52_3 C 0.8937(8) 0.7990(3) 0.4969(3)
C56_3 C 0.8234(11) 0.8256(4) 0.5276(4)
H24_3 H 0.9638 0.7415 0.5854
O24_2 O 0.5169(6) 0.64069(17) 0.2494(3)
O28_2 O 0.6400(4) 0.70378(14) 0.30605(17)
O17_2 O 0.3600(4) 0.20378(14) 0.19395(17)
Cu14_2 Cu 0.40184(10) 0.25988(3) 0.17776(4)
O25_2 O 0.1075(5) 0.23716(18) 0.1488(2)
F13_4 F 0.2337(6) 0.4387(2) 0.1322(3)
F14_4 F 0.2686(7) 0.4798(3) 0.1859(4)
F15_4 F 0.3416(8) 0.4906(2) 0.1244(4)
F16_4 F 0.6061(12) 0.4884(3) 0.0971(3)
F17_4 F 0.7882(12) 0.4933(4) 0.1364(5)
F18_4 F 0.7145(12) 0.5433(3) 0.0955(4)
O7_4 O 0.7762(5) 0.20658(15) 0.11891(18)
O8_4 O 0.6064(5) 0.23703(17) 0.14475(19)
O9_4 O 0.6504(5) 0.31680(15) 0.1980(2)
O10_4 O 0.4429(5) 0.31540(15) 0.1710(2)
O11_4 O 0.6136(11) 0.6510(2) 0.1863(5)
O13_4 O 0.2818(5) 0.26527(17) 0.12561(19)
O19_4 O 0.5208(5) 0.25298(14) 0.23178(17)
C27_4 C 0.6571(7) 0.1989(2) 0.0320(3)
H10_4 H 0.7387 0.1870 0.0389
C28_4 C 0.5975(7) 0.2170(2) 0.0670(3)
C29_4 C 0.4753(9) 0.2331(4) 0.0553(3)
H11_4 H 0.4301 0.2449 0.0782
C30_4 C 0.4216(8) 0.2320(4) 0.0117(3)
H12_4 H 0.3389 0.2431 0.0048
C32_4 C 0.6639(8) 0.2208(2) 0.1144(3)
C33_4 C 0.5463(7) 0.3326(2) 0.1838(3)
C34_4 C 0.5471(7) 0.3769(2) 0.1834(3)
C35_4 C 0.4399(8) 0.3988(2) 0.1675(3)
H13_4 H 0.3650 0.3855 0.1549
C36_4 C 0.4412(8) 0.4393(2) 0.1697(3)
C37_4 C 0.5518(9) 0.4596(2) 0.1865(3)
C38_4 C 0.6596(9) 0.4374(3) 0.2018(4)
H14_4 H 0.7351 0.4505 0.2141
C39_4 C 0.6573(8) 0.3972(2) 0.1990(3)
H15_4 H 0.7330 0.3827 0.2080
C40_4 C 0.3220(10) 0.4613(3) 0.1522(5)
C41_4 C 0.5560(9) 0.5036(3) 0.1914(4)
C42_4 C 0.6155(12) 0.5300(3) 0.1613(5)
C43_4 C 0.6160(11) 0.5693(3) 0.1700(5)
H16_4 H 0.6542 0.5866 0.1498
C44_4 C 0.5646(9) 0.5850(3) 0.2063(4)
C45_4 C 0.5135(9) 0.5610(3) 0.2380(4)
H17_4 H 0.4819 0.5718 0.2645
C46_4 C 0.5102(9) 0.5203(3) 0.2293(4)
H18_4 H 0.4746 0.5034 0.2505
C47_4 C 0.675(2) 0.5156(4) 0.1212(7)
C48_4 C 0.5676(9) 0.6299(3) 0.2134(4)
C49_4 C 0.1653(7) 0.2554(2) 0.1206(3)
C50_4 C 0.1009(8) 0.2663(3) 0.0747(3)
C51_4 C 0.1595(8) 0.2903(3) 0.0464(3)
H19_4 H 0.2400 0.3015 0.0568
C52_4 C 0.1063(8) 0.2990(3) 0.0031(3)
F6_4 F 0.1994(7) 0.0238(2) 0.8468(3)
F7_4 F 0.2048(15) 0.1363(4) 0.9096(4)
F8_4 F 0.3405(10) 0.1451(3) 0.9659(3)
F9_4 F 0.1749(11) 0.1764(5) 0.9637(5)
F10_4 F 0.6007(8) 0.1521(2) 0.9277(2)
F11_4 F 0.7120(7) 0.2044(3) 0.9225(2)
F12_4 F 0.7753(9) 0.1588(3) 0.9702(3)
F19_4 F 0.2792(9) 0.3422(3) 0.9940(3)
F20_4 F 0.2200(7) 0.3059(3) 0.9366(3)
F21_4 F 0.1062(8) 0.3540(2) 0.9531(3)
O2_4 O 0.0686(9) 0.1625(3) 0.7077(4)
O5_4 O 0.1119(6) 0.22915(19) 0.7921(2)
C6_4 C 0.0282(12) 0.0423(4) 0.7410(5)
H2_4 H 0.0603 0.0223 0.7225
C7_4 C 0.0291(12) 0.0813(3) 0.7268(5)
H3_4 H 0.0579 0.0870 0.6979
C17_4 C 0.2209(7) 0.2448(2) 0.7976(3)
C18_4 C 0.2934(7) 0.2364(2) 0.8426(3)
C19_4 C 0.2557(9) 0.2051(3) 0.8677(3)
H7_4 H 0.1863 0.1890 0.8557
C20_4 C 0.3184(10) 0.1964(3) 0.9113(3)
C21_4 C 0.4217(8) 0.2201(3) 0.9290(3)
C22_4 C 0.4594(8) 0.2504(3) 0.9030(3)
H8_4 H 0.5307 0.2661 0.9143
C23_4 C 0.3957(8) 0.2595(3) 0.8599(3)
H9_4 H 0.4229 0.2812 0.8428
C24_4 C 0.2673(14) 0.1623(5) 0.9361(5)
C25_4 C 0.4829(8) 0.2153(3) 0.9768(3)
C26_4 C 0.6019(9) 0.1976(3) 0.9883(3)
C31_4 C 0.6738(11) 0.1778(3) 0.9529(4)
C56_4 C 0.1766(11) 0.3256(4) 0.9724(4)
H24_4 H 0.0362 0.2415 0.9146
F4_4 F 0.2657(10) 0.9988(4) 0.7876(5)
F5_4 F 0.2901(8) 0.9682(2) 0.8528(5)
C10_4 C 0.0821(9) 0.9685(3) 0.8144(4)
C11_4 C 0.0755(8) 0.9284(3) 0.8240(4)
H4_4 H 0.1476 0.9151 0.8387
C15_4 C 0.2093(10) 0.9894(3) 0.8268(5)
C54_4 C 0.9288(8) 0.2590(3) 0.0154(3)
H20_4 H 0.8475 0.2482 0.0053
C55_4 C 0.9820(8) 0.2501(3) 0.0587(3)
H21_4 H 0.9386 0.2330 0.0776
F1_4 F 0.9482(12) 0.0299(3) 0.8790(4)
F2_4 F 0.8476(12) 0.0855(3) 0.8735(4)
F3_4 F 0.7651(10) 0.0336(3) 0.8425(5)
F22_4 F 0.8541(10) 0.3536(3) 0.9871(3)
F23_4 F 0.6806(14) 0.3238(6) 0.9761(7)
F24_4 F 0.7208(16) 0.3702(4) 0.9356(4)
O1_4 O 0.9341(6) 0.17787(18) 0.7576(3)
C1_4 C 0.9986(8) 0.1531(3) 0.7371(4)
C2_4 C 0.9902(9) 0.1119(4) 0.7524(4)
C3_4 C 0.9434(10) 0.1020(3) 0.7931(4)
H1_4 H 0.9142 0.1225 0.8117
C4_4 C 0.9377(12) 0.0625(3) 0.8079(5)
C5_4 C 0.9821(8) 0.0318(3) 0.7813(4)
C8_4 C 0.8818(16) 0.0529(4) 0.8484(8)
C53_4 C 0.9881(8) 0.2828(3) 0.9864(3)
C57_4 C 0.9306(8) 0.2859(3) 0.9375(3)
C58_4 C 0.8286(9) 0.3111(3) 0.9238(3)
C59_4 C 0.7647(8) 0.3083(3) 0.8804(3)
H22_4 H 0.6940 0.3252 0.8721
C60_4 C 0.8028(7) 0.2815(2) 0.8494(3)
C61_4 C 0.9017(8) 0.2565(3) 0.8630(3)
H23_4 H 0.9267 0.2371 0.8423
C62_4 C 0.9666(9) 0.2588(3) 0.9065(3)
C63_4 C 0.7743(12) 0.3403(4) 0.9562(4)
C64_4 C 0.7281(6) 0.2783(2) 0.8036(3)
C9_4 C 0.9776(9) 0.9893(3) 0.7944(4)
C12_4 C 0.9638(8) 0.9079(2) 0.8119(3)
C13_4 C 0.8595(9) 0.9272(3) 0.7908(4)
H5_4 H 0.7819 0.9134 0.7831
C14_4 C 0.8684(10) 0.9675(3) 0.7808(5)
H6_4 H 0.7981 0.9803 0.7642
C16_4 C 0.9573(7) 0.8645(2) 0.8190(3)
loop_
_geom_bond_atom_site_label_1
_geom_bond_atom_site_label_2
_geom_bond_site_symmetry_1
_geom_bond_site_symmetry_2
Cu6 O17 1_555 1_555
O17 Cu11 1_555 1_555
Cu14 O17 1_555 1_555
O22 Cu6 1_555 1_555
O23 Cu6 1_555 1_555
Cu6 O20 1_555 1_555
Cu6 O25 1_555 1_555
Cu2 O7 1_555 1_555
Cu3 O8 1_555 1_555
Cu11 O19 1_555 1_555
Cu14 O8 1_555 1_555
F4 C15 1_555 1_555
F5 C15 1_555 1_555
F6 C15 1_555 1_555
F7 C24 1_555 1_555
F8 C24 1_555 1_555
F9 C24 1_555 1_555
F10 C31 1_555 1_555
F11 C31 1_555 1_555
F12 C31 1_555 1_555
F13 C40 1_555 1_555
F14 C40 1_555 1_555
F15 C40 1_555 1_555
F19 C56 1_555 1_555
F20 C56 1_555 1_555
F21 C56 1_555 1_555
O6 C17 1_555 1_555
O7 C32 1_555 1_555
O8 C32 1_555 1_555
O9 Cu3 1_555 1_555
O10 Cu14 1_555 1_555
O13 Cu14 1_555 1_555
O25 C49 1_555 1_555
O18 Cu2 1_555 1_555
O19 Cu3 1_555 1_555
H2 C6 1_555 1_555
H3 C7 1_555 1_555
C11 C10 1_555 1_555
H4 C11 1_555 1_555
C15 C10 1_555 1_555
C17 O5 1_555 1_555
C18 C17 1_555 1_555
C19 C18 1_555 1_555
H7 C19 1_555 1_555
C20 C19 1_555 1_555
C21 C20 1_555 1_555
C22 C21 1_555 1_555
H8 C22 1_555 1_555
C23 C18 1_555 1_555
H9 C23 1_555 1_555
C24 C20 1_555 1_555
C25 C21 1_555 1_555
C26 C25 1_555 1_555
C27 C26 1_555 1_555
H10 C27 1_555 1_555
C28 C27 1_555 1_555
C29 C28 1_555 1_555
H11 C29 1_555 1_555
C30 C25 1_555 1_555
H12 C30 1_555 1_555
C31 C26 1_555 1_555
C32 C28 1_555 1_555
C33 O9 1_555 1_555
C34 C33 1_555 1_555
C35 C34 1_555 1_555
H13 C35 1_555 1_555
C36 C35 1_555 1_555
C37 C36 1_555 1_555
C38 C37 1_555 1_555
H14 C38 1_555 1_555
C39 C34 1_555 1_555
H15 C39 1_555 1_555
C40 C36 1_555 1_555
C49 O13 1_555 1_555
C50 C49 1_555 1_555
C51 C50 1_555 1_555
H19 C51 1_555 1_555
C52 C51 1_555 1_555
C56 C52 1_555 1_555
Cu7 O18 1_555 1_555
Cu9 O3 1_555 1_555
Cu17 O6 1_555 1_555
O21 Cu2 1_555 1_555
O24 Cu11 1_555 1_555
O26 Cu3 1_555 1_555
O27 Cu11 1_555 1_555
Cu3 O18 1_555 1_555
Cu14 O19 1_555 1_555
O10 C33 1_555 1_555
C6 C7 1_555 1_555
C22 C23 1_555 1_555
C29 C30 1_555 1_555
C38 C39 1_555 1_555
Cu7 O26 1_555 1_555
Cu17 O30 1_555 1_555
F18 C47 1_555 1_555
O11 C48 1_555 1_555
O12 C48 1_555 1_555
C42 C41 1_555 1_555
C43 C42 1_555 1_555
H16 C43 1_555 1_555
C44 C43 1_555 1_555
C45 C44 1_555 1_555
H17 C45 1_555 1_555
C46 C41 1_555 1_555
H18 C46 1_555 1_555
C47 C42 1_555 1_555
C48 C44 1_555 1_555
Cu12 O12 1_555 1_555
C45 C46 1_555 1_555
Cu1 O1 1_555 1_555
F1 C8 1_555 1_555
F2 C8 1_555 1_555
F3 C8 1_555 1_555
F22 C63 1_555 1_555
F23 C63 1_555 1_555
F24 C63 1_555 1_555
O1 C1 1_555 1_555
O4 C16 1_555 1_555
O15 Cu1 1_555 1_555
O16 C64 1_555 1_555
C2 C1 1_555 1_555
C3 C2 1_555 1_555
H1 C3 1_555 1_555
C4 C3 1_555 1_555
C5 C4 1_555 1_555
C8 C4 1_555 1_555
C9 C5 1_555 1_555
C13 C12 1_555 1_555
H5 C13 1_555 1_555
C14 C9 1_555 1_555
H6 C14 1_555 1_555
C16 C12 1_555 1_555
C54 C53 1_555 1_555
H20 C54 1_555 1_555
H21 C55 1_555 1_555
C57 C53 1_555 1_555
C58 C57 1_555 1_555
C59 C58 1_555 1_555
H22 C59 1_555 1_555
C60 C59 1_555 1_555
C61 C60 1_555 1_555
H23 C61 1_555 1_555
C62 C57 1_555 1_555
C63 C58 1_555 1_555
C64 O15 1_555 1_555
Cu10 O15 1_555 1_555
Cu13 O16 1_555 1_555
Cu16 O4 1_555 1_555
O29 Cu1 1_555 1_555
C13 C14 1_555 1_555
C54 C55 1_555 1_555
C60 C64 1_555 1_555
C61 C62 1_555 1_555
Cu10 O29 1_555 1_555
O4_2 C16_2 1_555 1_555
C13_2 C12_2 1_555 1_555
H5_2 C13_2 1_555 1_555
C14_2 C9_2 1_555 1_555
H6_2 C14_2 1_555 1_555
C16_2 C12_2 1_555 1_555
Cu17 O4_2 1_555 1_555
C13_2 C14_2 1_555 1_555
Cu1_2 O1_2 1_555 1_555
F1_2 C8_2 1_555 1_555
F2_2 C8_2 1_555 1_555
F3_2 C8_2 1_555 1_555
F22_2 C63_2 1_555 1_555
F23_2 C63_2 1_555 1_555
F24_2 C63_2 1_555 1_555
O1_2 C1_2 1_555 1_555
O15_2 Cu1_2 1_555 1_555
O16_2 C64_2 1_555 1_555
C2_2 C1_2 1_555 1_555
C3_2 C2_2 1_555 1_555
H1_2 C3_2 1_555 1_555
C4_2 C3_2 1_555 1_555
C5_2 C4_2 1_555 1_555
C8_2 C4_2 1_555 1_555
C57_2 C53_2 1_555 1_555
C58_2 C57_2 1_555 1_555
C59_2 C58_2 1_555 1_555
H22_2 C59_2 1_555 1_555
C60_2 C59_2 1_555 1_555
C61_2 C60_2 1_555 1_555
H23_2 C61_2 1_555 1_555
C62_2 C57_2 1_555 1_555
C63_2 C58_2 1_555 1_555
C64_2 O15_2 1_555 1_555
Cu10_2 O15_2 1_555 1_555
Cu13_2 O16_2 1_555 1_555
O29_2 Cu1_2 1_555 1_555
C60_2 C64_2 1_555 1_555
C61_2 C62_2 1_555 1_555
Cu10_2 O29_2 1_555 1_555
H20_2 C54_2 1_555 1_555
H21_2 C55_2 1_555 1_555
C54_2 C55_2 1_555 1_555
F4_2 C15_2 1_555 1_555
F5_2 C15_2 1_555 1_555
C11_2 C10_2 1_555 1_555
H4_2 C11_2 1_555 1_555
C15_2 C10_2 1_555 1_555
Cu9_2 O3_2 1_555 1_555
F7_2 C24_2 1_555 1_555
F8_2 C24_2 1_555 1_555
F9_2 C24_2 1_555 1_555
F10_2 C31_2 1_555 1_555
F11_2 C31_2 1_555 1_555
F12_2 C31_2 1_555 1_555
F19_2 C56_2 1_555 1_555
F20_2 C56_2 1_555 1_555
F21_2 C56_2 1_555 1_555
O6_2 C17_2 1_555 1_555
H2_2 C6_2 1_555 1_555
H3_2 C7_2 1_555 1_555
C17_2 O5_2 1_555 1_555
C18_2 C17_2 1_555 1_555
C19_2 C18_2 1_555 1_555
H7_2 C19_2 1_555 1_555
C20_2 C19_2 1_555 1_555
C21_2 C20_2 1_555 1_555
C22_2 C21_2 1_555 1_555
H8_2 C22_2 1_555 1_555
C23_2 C18_2 1_555 1_555
H9_2 C23_2 1_555 1_555
C24_2 C20_2 1_555 1_555
C25_2 C21_2 1_555 1_555
C26_2 C25_2 1_555 1_555
C31_2 C26_2 1_555 1_555
Cu16 O6_2 1_555 1_555
C6_2 C7_2 1_555 1_555
C22_2 C23_2 1_555 1_555
Cu16 O30_2 1_555 1_555
Cu8 O7_2 1_555 1_555
Cu3_2 O8_2 1_555 1_555
Cu12 O19_2 1_555 1_555
Cu5 O8_2 1_555 1_555
F13_2 C40_2 1_555 1_555
F14_2 C40_2 1_555 1_555
F15_2 C40_2 1_555 1_555
F16_2 C47_2 1_555 1_555
F17_2 C47_2 1_555 1_555
F18_2 C47_2 1_555 1_555
O7_2 C32_2 1_555 1_555
O8_2 C32_2 1_555 1_555
O9_2 Cu3_2 1_555 1_555
O10_2 Cu5 1_555 1_555
O11_2 C48_2 1_555 1_555
O24 C48_2 1_555 1_555
O13_2 Cu5 1_555 1_555
O14 C49_2 1_555 1_555
O18_2 Cu8 1_555 1_555
O19_2 Cu3_2 1_555 1_555
H10_2 C27_2 1_555 1_555
C28_2 C27_2 1_555 1_555
C29_2 C28_2 1_555 1_555
H11_2 C29_2 1_555 1_555
H12_2 C30_2 1_555 1_555
C32_2 C28_2 1_555 1_555
C33_2 O9_2 1_555 1_555
C34_2 C33_2 1_555 1_555
C35_2 C34_2 1_555 1_555
H13_2 C35_2 1_555 1_555
C36_2 C35_2 1_555 1_555
C37_2 C36_2 1_555 1_555
C38_2 C37_2 1_555 1_555
H14_2 C38_2 1_555 1_555
C39_2 C34_2 1_555 1_555
H15_2 C39_2 1_555 1_555
C40_2 C36_2 1_555 1_555
C41_2 C37_2 1_555 1_555
C42_2 C41_2 1_555 1_555
C43_2 C42_2 1_555 1_555
H16_2 C43_2 1_555 1_555
C44_2 C43_2 1_555 1_555
C45_2 C44_2 1_555 1_555
H17_2 C45_2 1_555 1_555
C46_2 C41_2 1_555 1_555
H18_2 C46_2 1_555 1_555
C47_2 C42_2 1_555 1_555
C48_2 C44_2 1_555 1_555
C49_2 O13_2 1_555 1_555
C50_2 C49_2 1_555 1_555
C51_2 C50_2 1_555 1_555
H19_2 C51_2 1_555 1_555
C52_2 C51_2 1_555 1_555
Cu7_2 O18_2 1_555 1_555
Cu15 O14 1_555 1_555
O21_2 Cu8 1_555 1_555
O26_2 Cu3_2 1_555 1_555
O27_2 Cu12 1_555 1_555
O28 Cu12 1_555 1_555
Cu3_2 O18_2 1_555 1_555
Cu5 O19_2 1_555 1_555
Cu5 O28 1_555 1_555
O10_2 C33_2 1_555 1_555
C29_2 C30_2 1_555 1_555
C38_2 C39_2 1_555 1_555
C45_2 C46_2 1_555 1_555
Cu7_2 O26_2 1_555 1_555
Cu15 O28 1_555 1_555
O22_2 Cu15 1_555 1_555
O23_2 Cu15 1_555 1_555
Cu15 O20_2 1_555 1_555
Cu7_2 O1_3 1_555 1_555
F1_3 C8_3 1_555 1_555
F2_3 C8_3 1_555 1_555
F3_3 C8_3 1_555 1_555
F22_3 C63_3 1_555 1_555
F23_3 C63_3 1_555 1_555
F24_3 C63_3 1_555 1_555
O1_3 C1_3 1_555 1_555
O22 C16_3 1_555 1_555
O27_2 C64_3 1_555 1_555
C2_3 C1_3 1_555 1_555
C3_3 C2_3 1_555 1_555
H1_3 C3_3 1_555 1_555
C4_3 C3_3 1_555 1_555
C5_3 C4_3 1_555 1_555
C8_3 C4_3 1_555 1_555
C9_3 C5_3 1_555 1_555
C13_3 C12_3 1_555 1_555
H5_3 C13_3 1_555 1_555
C14_3 C9_3 1_555 1_555
H6_3 C14_3 1_555 1_555
C16_3 C12_3 1_555 1_555
C54_3 C53_3 1_555 1_555
H20_3 C54_3 1_555 1_555
H21_3 C55_3 1_555 1_555
C57_3 C53_3 1_555 1_555
C58_3 C57_3 1_555 1_555
C59_3 C58_3 1_555 1_555
H22_3 C59_3 1_555 1_555
C60_3 C59_3 1_555 1_555
C61_3 C60_3 1_555 1_555
H23_3 C61_3 1_555 1_555
C62_3 C57_3 1_555 1_555
C63_3 C58_3 1_555 1_555
C64_3 O26_2 1_555 1_555
C13_3 C14_3 1_555 1_555
C54_3 C55_3 1_555 1_555
C60_3 C64_3 1_555 1_555
C61_3 C62_3 1_555 1_555
F18_3 C47_3 1_555 1_555
O11_3 C48_3 1_555 1_555
O12_2 C48_3 1_555 1_555
C42_3 C41_3 1_555 1_555
C43_3 C42_3 1_555 1_555
H16_3 C43_3 1_555 1_555
C44_3 C43_3 1_555 1_555
C45_3 C44_3 1_555 1_555
H17_3 C45_3 1_555 1_555
C46_3 C41_3 1_555 1_555
H18_3 C46_3 1_555 1_555
C47_3 C42_3 1_555 1_555
C48_3 C44_3 1_555 1_555
Cu13 O12_2 1_555 1_555
C45_3 C46_3 1_555 1_555
Cu9 O7_3 1_555 1_555
Cu10_2 O8_3 1_555 1_555
Cu13_2 O19_3 1_555 1_555
Cu5_2 O8_3 1_555 1_555
F4_3 C15_3 1_555 1_555
F5_3 C15_3 1_555 1_555
F6_3 C15_3 1_555 1_555
F7_3 C24_3 1_555 1_555
F8_3 C24_3 1_555 1_555
F9_3 C24_3 1_555 1_555
F10_3 C31_3 1_555 1_555
F11_3 C31_3 1_555 1_555
F12_3 C31_3 1_555 1_555
F13_3 C40_3 1_555 1_555
F14_3 C40_3 1_555 1_555
F15_3 C40_3 1_555 1_555
F19_3 C56_3 1_555 1_555
F20_3 C56_3 1_555 1_555
F21_3 C56_3 1_555 1_555
O23_2 C17_3 1_555 1_555
O7_3 C32_3 1_555 1_555
O8_3 C32_3 1_555 1_555
O9_3 Cu10_2 1_555 1_555
O10_3 Cu5_2 1_555 1_555
O13_3 Cu5_2 1_555 1_555
O14_2 C49_3 1_555 1_555
O29_2 Cu9 1_555 1_555
O19_3 Cu10_2 1_555 1_555
H2_3 C6_3 1_555 1_555
H3_3 C7_3 1_555 1_555
C11_3 C10_3 1_555 1_555
H4_3 C11_3 1_555 1_555
C15_3 C10_3 1_555 1_555
C17_3 O5_3 1_555 1_555
C18_3 C17_3 1_555 1_555
C19_3 C18_3 1_555 1_555
H7_3 C19_3 1_555 1_555
C20_3 C19_3 1_555 1_555
C21_3 C20_3 1_555 1_555
C22_3 C21_3 1_555 1_555
H8_3 C22_3 1_555 1_555
C23_3 C18_3 1_555 1_555
H9_3 C23_3 1_555 1_555
C24_3 C20_3 1_555 1_555
C25_3 C21_3 1_555 1_555
C26_3 C25_3 1_555 1_555
C27_3 C26_3 1_555 1_555
H10_3 C27_3 1_555 1_555
C28_3 C27_3 1_555 1_555
C29_3 C28_3 1_555 1_555
H11_3 C29_3 1_555 1_555
C30_3 C25_3 1_555 1_555
H12_3 C30_3 1_555 1_555
C31_3 C26_3 1_555 1_555
C32_3 C28_3 1_555 1_555
C33_3 O9_3 1_555 1_555
C34_3 C33_3 1_555 1_555
C35_3 C34_3 1_555 1_555
H13_3 C35_3 1_555 1_555
C36_3 C35_3 1_555 1_555
C37_3 C36_3 1_555 1_555
C38_3 C37_3 1_555 1_555
H14_3 C38_3 1_555 1_555
C39_3 C34_3 1_555 1_555
H15_3 C39_3 1_555 1_555
C40_3 C36_3 1_555 1_555
C49_3 O13_3 1_555 1_555
C50_3 C49_3 1_555 1_555
C51_3 C50_3 1_555 1_555
H19_3 C51_3 1_555 1_555
C52_3 C51_3 1_555 1_555
C56_3 C52_3 1_555 1_555
Cu16 O14_2 1_555 1_555
O24_2 Cu13_2 1_555 1_555
O28_2 Cu13_2 1_555 1_555
Cu5_2 O19_3 1_555 1_555
Cu5_2 O28_2 1_555 1_555
O10_3 C33_3 1_555 1_555
C6_3 C7_3 1_555 1_555
C22_3 C23_3 1_555 1_555
C29_3 C30_3 1_555 1_555
C38_3 C39_3 1_555 1_555
Cu16 O28_2 1_555 1_555
Cu17 O17_2 1_555 1_555
O17_2 Cu13 1_555 1_555
Cu14_2 O17_2 1_555 1_555
Cu17 O25_2 1_555 1_555
Cu9_2 O7_4 1_555 1_555
Cu10 O8_4 1_555 1_555
Cu13 O19_4 1_555 1_555
Cu14_2 O8_4 1_555 1_555
F13_4 C40_4 1_555 1_555
F14_4 C40_4 1_555 1_555
F15_4 C40_4 1_555 1_555
F16_4 C47_4 1_555 1_555
F17_4 C47_4 1_555 1_555
F18_4 C47_4 1_555 1_555
O7_4 C32_4 1_555 1_555
O8_4 C32_4 1_555 1_555
O9_4 Cu10 1_555 1_555
O10_4 Cu14_2 1_555 1_555
O11_4 C48_4 1_555 1_555
O24_2 C48_4 1_555 1_555
O13_4 Cu14_2 1_555 1_555
O25_2 C49_4 1_555 1_555
O29 Cu9_2 1_555 1_555
O19_4 Cu10 1_555 1_555
H10_4 C27_4 1_555 1_555
C28_4 C27_4 1_555 1_555
C29_4 C28_4 1_555 1_555
H11_4 C29_4 1_555 1_555
H12_4 C30_4 1_555 1_555
C32_4 C28_4 1_555 1_555
C33_4 O9_4 1_555 1_555
C34_4 C33_4 1_555 1_555
C35_4 C34_4 1_555 1_555
H13_4 C35_4 1_555 1_555
C36_4 C35_4 1_555 1_555
C37_4 C36_4 1_555 1_555
C38_4 C37_4 1_555 1_555
H14_4 C38_4 1_555 1_555
C39_4 C34_4 1_555 1_555
H15_4 C39_4 1_555 1_555
C40_4 C36_4 1_555 1_555
C41_4 C37_4 1_555 1_555
C42_4 C41_4 1_555 1_555
C43_4 C42_4 1_555 1_555
H16_4 C43_4 1_555 1_555
C44_4 C43_4 1_555 1_555
C45_4 C44_4 1_555 1_555
H17_4 C45_4 1_555 1_555
C46_4 C41_4 1_555 1_555
H18_4 C46_4 1_555 1_555
C47_4 C42_4 1_555 1_555
C48_4 C44_4 1_555 1_555
C49_4 O13_4 1_555 1_555
C50_4 C49_4 1_555 1_555
C51_4 C50_4 1_555 1_555
H19_4 C51_4 1_555 1_555
C52_4 C51_4 1_555 1_555
Cu14_2 O19_4 1_555 1_555
O10_4 C33_4 1_555 1_555
C29_4 C30_4 1_555 1_555
C38_4 C39_4 1_555 1_555
C45_4 C46_4 1_555 1_555
F7_4 C24_4 1_555 1_555
F8_4 C24_4 1_555 1_555
F9_4 C24_4 1_555 1_555
F10_4 C31_4 1_555 1_555
F11_4 C31_4 1_555 1_555
F12_4 C31_4 1_555 1_555
F19_4 C56_4 1_555 1_555
F20_4 C56_4 1_555 1_555
F21_4 C56_4 1_555 1_555
O23 C17_4 1_555 1_555
H2_4 C6_4 1_555 1_555
H3_4 C7_4 1_555 1_555
C17_4 O5_4 1_555 1_555
C18_4 C17_4 1_555 1_555
C19_4 C18_4 1_555 1_555
H7_4 C19_4 1_555 1_555
C20_4 C19_4 1_555 1_555
C21_4 C20_4 1_555 1_555
C22_4 C21_4 1_555 1_555
H8_4 C22_4 1_555 1_555
C23_4 C18_4 1_555 1_555
H9_4 C23_4 1_555 1_555
C24_4 C20_4 1_555 1_555
C25_4 C21_4 1_555 1_555
C26_4 C25_4 1_555 1_555
C31_4 C26_4 1_555 1_555
C6_4 C7_4 1_555 1_555
C22_4 C23_4 1_555 1_555
F4_4 C15_4 1_555 1_555
F5_4 C15_4 1_555 1_555
C11_4 C10_4 1_555 1_555
H4_4 C11_4 1_555 1_555
C15_4 C10_4 1_555 1_555
H20_4 C54_4 1_555 1_555
H21_4 C55_4 1_555 1_555
C54_4 C55_4 1_555 1_555
Cu7 O1_4 1_555 1_555
F1_4 C8_4 1_555 1_555
F2_4 C8_4 1_555 1_555
F3_4 C8_4 1_555 1_555
F22_4 C63_4 1_555 1_555
F23_4 C63_4 1_555 1_555
F24_4 C63_4 1_555 1_555
O1_4 C1_4 1_555 1_555
O27 C64_4 1_555 1_555
C2_4 C1_4 1_555 1_555
C3_4 C2_4 1_555 1_555
H1_4 C3_4 1_555 1_555
C4_4 C3_4 1_555 1_555
C5_4 C4_4 1_555 1_555
C8_4 C4_4 1_555 1_555
C57_4 C53_4 1_555 1_555
C58_4 C57_4 1_555 1_555
C59_4 C58_4 1_555 1_555
H22_4 C59_4 1_555 1_555
C60_4 C59_4 1_555 1_555
C61_4 C60_4 1_555 1_555
H23_4 C61_4 1_555 1_555
C62_4 C57_4 1_555 1_555
C63_4 C58_4 1_555 1_555
C64_4 O26 1_555 1_555
C60_4 C64_4 1_555 1_555
C61_4 C62_4 1_555 1_555
O22_2 C16_4 1_555 1_555
C13_4 C12_4 1_555 1_555
H5_4 C13_4 1_555 1_555
C14_4 C9_4 1_555 1_555
H6_4 C14_4 1_555 1_555
C16_4 C12_4 1_555 1_555
C13_4 C14_4 1_555 1_555

#END
