
###############################################################################
#
# This file contains modified crystal structure data generated from the
# MOF subset of the Cambridge Structural Database (CSD) v543 
# hosted by the Cambridge Crystallographic Data Centre (CCDC).
#
# This work is licensed under the Creative Commons
# Attribution-NonCommercial-ShareAlike 4.0 International License.
# To view a copy of this license, visit
# http://creativecommons.org/licenses/by-nc-sa/4.0/
# or send a letter to
# Creative Commons, PO Box 1866, Mountain View, CA 94042, USA.
#
# CIF created using the CSD Python API on 29 September 2022
# The structure has been converted into the P1 space group
# The structure has a 3D framework
# The original CSD entry ZIXDIW is in the trigonal crystal system
# The framework has been calculated to contain at least 10.0% void space
# The void calculation uses a probe of radius 1.32A, grid spacing 0.4
# The framework is charged, counterions have been retained in the structure
#
###############################################################################

data_ZIXDIW
_chemical_formula_moiety         '(C12 H12 Cr4 Ni2 O17 3-)n'
_symmetry_cell_setting           triclinic
_symmetry_space_group_name_H-M   'P 1'
_symmetry_Int_Tables_number      1
_space_group_name_Hall           'P 1'
loop_
_symmetry_equiv_pos_site_id
_symmetry_equiv_pos_as_xyz
1 x,y,z
_cell_length_a                   8.0645(11)
_cell_length_b                   8.0645(11)
_cell_length_c                   13.746(3)
_cell_angle_alpha                90
_cell_angle_beta                 90
_cell_angle_gamma                120
_cell_volume                     774.216
loop_
_atom_site_label
_atom_site_type_symbol
_atom_site_fract_x
_atom_site_fract_y
_atom_site_fract_z
Cr3 Cr -0.000000 0.000000 0.500000
Cr4 Cr -0.000000 0.000000 0.000000
O5 O 0.0104(5) 0.8030(7) 0.5813(3)
O9 O 0.1970(7) 0.2074(5) 0.5813(3)
O10 O 0.4589(8) 0.3410(5) 0.6688(3)
C5 C 0.3367(11) 0.2087(8) 0.6203(4)
H5 H 0.349435 0.101133 0.612042
O11 O 0.0104(5) 0.2074(5) 0.9187(3)
Ni3 Ni 0.666667 0.333333 0.750000
Cr3_2 Cr -0.000000 1.000000 0.500000
Cr4_2 Cr -0.000000 0.000000 1.000000
O13 O 0.2074(5) 0.0104(5) 0.4187(3)
Cr4_3 Cr -0.000000 1.000000 0.000000
Cr4_4 Cr -0.000000 1.000000 1.000000
Cr3_3 Cr 1.000000 0.000000 0.500000
Cr4_5 Cr 1.000000 0.000000 0.000000
O2 O 0.6590(5) 0.1179(6) 0.6688(3)
C1 C 0.7913(8) 0.1280(8) 0.6203(4)
H1 H 0.898867 0.248302 0.612042
O6 O 0.8821(6) 0.5411(8) 0.6688(3)
C3 C 0.8720(8) 0.6633(11) 0.6203(4)
H3 H 0.751698 0.650565 0.612042
O12 O 0.8821(6) 0.3410(5) 0.8312(3)
C6 C 0.8720(8) 0.2087(8) 0.8797(4)
H6 H 0.751698 0.101133 0.887958
Cr3_4 Cr 1.000000 1.000000 0.500000
Cr4_6 Cr 1.000000 0.000000 1.000000
O14 O 0.9896(5) 0.1970(7) 0.4187(3)
O16 O 0.4589(8) 0.1179(6) 0.8312(3)
O17 O 0.6590(5) 0.5411(8) 0.8312(3)
Cr4_7 Cr 1.000000 1.000000 0.000000
O1 O 0.7926(5) 0.9896(5) 0.5813(3)
Cr4_8 Cr 1.000000 1.000000 1.000000
O15 O 0.8030(7) 0.7926(5) 0.4187(3)
O11_2 O 0.7926(5) 0.8030(7) 0.9187(3)
C6_2 C 0.7913(8) 0.6633(11) 0.8797(4)
H6_2 H 0.898867 0.650565 0.887958
C6_3 C 0.3367(11) 0.1280(8) 0.8797(4)
H6_3 H 0.349435 0.248302 0.887958
O11_3 O 0.1970(7) 0.9896(5) 0.9187(3)
O15_2 O 0.2074(5) 0.1970(7) 0.0813(3)
O14_2 O 0.8030(7) 0.0104(5) 0.0813(3)
O13_2 O 0.9896(5) 0.7926(5) 0.0813(3)
O4 O 0.1179(6) 0.4589(8) 0.3312(3)
C2 C 0.1280(8) 0.3367(11) 0.3797(4)
H2 H 0.248302 0.349435 0.387958
Ni2 Ni 0.333333 0.666667 0.250000
O2_2 O 0.3410(5) 0.8821(6) 0.3312(3)
C1_2 C 0.2087(8) 0.8720(8) 0.3797(4)
H1_2 H 0.101133 0.751698 0.387958
O8 O 0.5411(8) 0.6590(5) 0.3312(3)
C4 C 0.6633(11) 0.7913(8) 0.3797(4)
H4 H 0.650565 0.898867 0.387958
O12_2 O 0.1179(6) 0.6590(5) 0.1688(3)
C6_4 C 0.1280(8) 0.7913(8) 0.1203(4)
H6_4 H 0.248302 0.898867 0.112042
O16_2 O 0.5411(8) 0.8821(6) 0.1688(3)
O17_2 O 0.3410(5) 0.4589(8) 0.1688(3)
C6_5 C 0.2087(8) 0.3367(11) 0.1203(4)
H6_5 H 0.101133 0.349435 0.112042
C6_6 C 0.6633(11) 0.8720(8) 0.1203(4)
H6_6 H 0.650565 0.751698 0.112042
loop_
_geom_bond_atom_site_label_1
_geom_bond_atom_site_label_2
_geom_bond_site_symmetry_1
_geom_bond_site_symmetry_2
O9 Cr3 1_555 1_555
O10 C5 1_555 1_555
C5 O9 1_555 1_555
H5 C5 1_555 1_555
Ni3 O10 1_555 1_555
Cr3_2 O5 1_555 1_555
Cr4_2 O11 1_555 1_555
O13 Cr3 1_555 1_555
Ni3 O2 1_555 1_555
O2 C1 1_555 1_555
C1 H1 1_555 1_555
O6 Ni3 1_555 1_555
C3 O6 1_555 1_555
H3 C3 1_555 1_555
O12 Ni3 1_555 1_555
C6 O12 1_555 1_555
H6 C6 1_555 1_555
O14 Cr3_3 1_555 1_555
O16 Ni3 1_555 1_555
O17 Ni3 1_555 1_555
Cr3_4 O1 1_555 1_555
O15 Cr3_4 1_555 1_555
O11_2 C6_2 1_555 1_555
C6_2 O17 1_555 1_555
H6_2 C6_2 1_555 1_555
Cr4_8 O11_2 1_555 1_555
C6_3 O16 1_555 1_555
H6_3 C6_3 1_555 1_555
Cr4_4 O11_3 1_555 1_555
O15_2 Cr4 1_555 1_555
O14_2 Cr4_5 1_555 1_555
O13_2 Cr4_7 1_555 1_555
O4 C2 1_555 1_555
H2 C2 1_555 1_555
Ni2 O4 1_555 1_555
Ni2 O2_2 1_555 1_555
O2_2 C1_2 1_555 1_555
C1_2 H1_2 1_555 1_555
O15 C4 1_555 1_555
O8 Ni2 1_555 1_555
C4 O8 1_555 1_555
H4 C4 1_555 1_555
O12_2 Ni2 1_555 1_555
C6_4 O12_2 1_555 1_555
H6_4 C6_4 1_555 1_555
O16_2 Ni2 1_555 1_555
O17_2 Ni2 1_555 1_555
O15_2 C6_5 1_555 1_555
C6_5 O17_2 1_555 1_555
H6_5 C6_5 1_555 1_555
C6_6 O16_2 1_555 1_555
H6_6 C6_6 1_555 1_555

#END
