
###############################################################################
#
# This file contains modified crystal structure data generated from the
# MOF subset of the Cambridge Structural Database (CSD) v543 
# hosted by the Cambridge Crystallographic Data Centre (CCDC).
#
# This work is licensed under the Creative Commons
# Attribution-NonCommercial-ShareAlike 4.0 International License.
# To view a copy of this license, visit
# http://creativecommons.org/licenses/by-nc-sa/4.0/
# or send a letter to
# Creative Commons, PO Box 1866, Mountain View, CA 94042, USA.
#
# CIF created using the CSD Python API on 29 September 2022
# The structure has been converted into the P1 space group
# The structure has a 3D framework
# The original CSD entry ZIXDES is in the trigonal crystal system
# The framework has been calculated to contain at least 10.0% void space
# The void calculation uses a probe of radius 1.32A, grid spacing 0.4
# The framework is charged, counterions have been retained in the structure
#
###############################################################################

data_ZIXDES
_chemical_formula_moiety         '(C12 H12 Co2 Cr4 O18 3-)n'
_symmetry_cell_setting           triclinic
_symmetry_space_group_name_H-M   'P 1'
_symmetry_Int_Tables_number      1
_space_group_name_Hall           'P 1'
loop_
_symmetry_equiv_pos_site_id
_symmetry_equiv_pos_as_xyz
1 x,y,z
_cell_length_a                   8.1491(12)
_cell_length_b                   8.1491(12)
_cell_length_c                   13.477(3)
_cell_angle_alpha                90
_cell_angle_beta                 90
_cell_angle_gamma                120
_cell_volume                     775.074
loop_
_atom_site_label
_atom_site_type_symbol
_atom_site_fract_x
_atom_site_fract_y
_atom_site_fract_z
Cr3 Cr 0.000000 0.000000 0.000000
Cr3_2 Cr 0.000000 0.000000 1.000000
Cr3_3 Cr 0.000000 1.000000 0.000000
Cr3_4 Cr 0.000000 1.000000 1.000000
O2 O 0.2045(4) 0.0116(4) 0.0822(2)
O5 O 0.1156(4) 0.4566(6) 0.1667(2)
C3 C 0.1268(6) 0.3352(8) 0.1190(3)
H3 H 0.244(11) 0.346(16) 0.104(5)
Co3 Co 0.333333 0.666667 0.250000
Cr3_5 Cr 1.000000 0.000000 0.000000
Cr4 Cr 0.000000 0.000000 0.500000
Cr3_6 Cr 1.000000 0.000000 1.000000
O17 O 0.1929(6) 0.2045(4) 0.9178(2)
O1 O 0.3410(5) 0.8844(4) 0.1667(2)
C1 C 0.2084(6) 0.8732(6) 0.1190(3)
H1 H 0.102(12) 0.756(11) 0.104(5)
O9 O 0.5434(6) 0.6590(5) 0.1667(2)
O10 O 0.8071(6) 0.7955(4) 0.0822(2)
C5 C 0.6648(8) 0.7916(6) 0.1190(3)
H5 H 0.654(16) 0.898(12) 0.104(5)
O11 O 0.1156(4) 0.6590(5) 0.3333(2)
C6 C 0.1268(6) 0.7916(6) 0.3810(3)
H6 H 0.244(11) 0.898(12) 0.396(5)
Cr3_7 Cr 1.000000 1.000000 0.000000
Cr4_2 Cr 0.000000 1.000000 0.500000
O13 O 0.5434(6) 0.8844(4) 0.3333(2)
O14 O 0.3410(5) 0.4566(6) 0.3333(2)
Cr3_8 Cr 1.000000 1.000000 1.000000
O16 O 0.0116(4) 0.8071(6) 0.9178(2)
O6 O 0.9884(4) 0.1929(6) 0.0822(2)
Cr4_3 Cr 1.000000 0.000000 0.500000
O12 O 0.9884(4) 0.7955(4) 0.4178(2)
Cr4_4 Cr 1.000000 1.000000 0.500000
O15 O 0.7955(4) 0.9884(4) 0.9178(2)
O12_2 O 0.2045(4) 0.1929(6) 0.4178(2)
C6_2 C 0.2084(6) 0.3352(8) 0.3810(3)
H6_2 H 0.102(12) 0.346(16) 0.396(5)
O12_3 O 0.8071(6) 0.0116(4) 0.4178(2)
C6_3 C 0.6648(8) 0.8732(6) 0.3810(3)
H6_3 H 0.654(16) 0.756(11) 0.396(5)
O15_2 O 0.0116(4) 0.2045(4) 0.5822(2)
O16_2 O 0.1929(6) 0.9884(4) 0.5822(2)
O17_2 O 0.7955(4) 0.8071(6) 0.5822(2)
O7 O 0.4566(6) 0.3410(5) 0.8333(2)
C4 C 0.3352(8) 0.2084(6) 0.8810(3)
H4 H 0.346(16) 0.102(12) 0.896(5)
Co2 Co 0.666667 0.333333 0.750000
O1_2 O 0.6590(5) 0.1156(4) 0.8333(2)
C1_2 C 0.7916(6) 0.1268(6) 0.8810(3)
H1_2 H 0.898(12) 0.244(11) 0.896(5)
O3 O 0.8844(4) 0.5434(6) 0.8333(2)
C2 C 0.8732(6) 0.6648(8) 0.8810(3)
H2 H 0.756(11) 0.654(16) 0.896(5)
O11_2 O 0.8844(4) 0.3410(5) 0.6667(2)
C6_4 C 0.8732(6) 0.2084(6) 0.6190(3)
H6_4 H 0.756(11) 0.102(12) 0.604(5)
O13_2 O 0.4566(6) 0.1156(4) 0.6667(2)
O14_2 O 0.6590(5) 0.5434(6) 0.6667(2)
C6_5 C 0.7916(6) 0.6648(8) 0.6190(3)
H6_5 H 0.898(12) 0.654(16) 0.604(5)
C6_6 C 0.3352(8) 0.1268(6) 0.6190(3)
H6_6 H 0.346(16) 0.244(11) 0.604(5)
loop_
_geom_bond_atom_site_label_1
_geom_bond_atom_site_label_2
_geom_bond_site_symmetry_1
_geom_bond_site_symmetry_2
Cr3 O2 1_555 1_555
O5 C3 1_555 1_555
H3 C3 1_555 1_555
Co3 O5 1_555 1_555
O17 Cr3_2 1_555 1_555
Co3 O1 1_555 1_555
O1 C1 1_555 1_555
C1 H1 1_555 1_555
O9 Co3 1_555 1_555
O10 C5 1_555 1_555
C5 O9 1_555 1_555
H5 C5 1_555 1_555
O11 Co3 1_555 1_555
C6 O11 1_555 1_555
H6 C6 1_555 1_555
Cr3_7 O10 1_555 1_555
O13 Co3 1_555 1_555
O14 Co3 1_555 1_555
O16 Cr3_4 1_555 1_555
O6 Cr3_5 1_555 1_555
Cr4_4 O12 1_555 1_555
O15 Cr3_8 1_555 1_555
O12_2 C6_2 1_555 1_555
C6_2 O14 1_555 1_555
H6_2 C6_2 1_555 1_555
Cr4 O12_2 1_555 1_555
Cr4_3 O12_3 1_555 1_555
C6_3 O13 1_555 1_555
H6_3 C6_3 1_555 1_555
O15_2 Cr4 1_555 1_555
O16_2 Cr4_2 1_555 1_555
O17_2 Cr4_4 1_555 1_555
O7 C4 1_555 1_555
C4 O17 1_555 1_555
H4 C4 1_555 1_555
Co2 O7 1_555 1_555
Co2 O1_2 1_555 1_555
O1_2 C1_2 1_555 1_555
C1_2 H1_2 1_555 1_555
O3 Co2 1_555 1_555
C2 O3 1_555 1_555
H2 C2 1_555 1_555
O11_2 Co2 1_555 1_555
C6_4 O11_2 1_555 1_555
H6_4 C6_4 1_555 1_555
O13_2 Co2 1_555 1_555
O14_2 Co2 1_555 1_555
O17_2 C6_5 1_555 1_555
C6_5 O14_2 1_555 1_555
H6_5 C6_5 1_555 1_555
C6_6 O13_2 1_555 1_555
H6_6 C6_6 1_555 1_555

#END
