
###############################################################################
#
# This file contains modified crystal structure data generated from the
# MOF subset of the Cambridge Structural Database (CSD) v543 
# hosted by the Cambridge Crystallographic Data Centre (CCDC).
#
# This work is licensed under the Creative Commons
# Attribution-NonCommercial-ShareAlike 4.0 International License.
# To view a copy of this license, visit
# http://creativecommons.org/licenses/by-nc-sa/4.0/
# or send a letter to
# Creative Commons, PO Box 1866, Mountain View, CA 94042, USA.
#
# CIF created using the CSD Python API on 29 September 2022
# The structure has been converted into the P1 space group
# The structure has a 3D framework
# The original CSD entry ZIXDAO is in the trigonal crystal system
# The framework has been calculated to contain at least 10.0% void space
# The void calculation uses a probe of radius 1.32A, grid spacing 0.4
# The framework is charged, counterions have been retained in the structure
#
###############################################################################

data_ZIXDAO
_chemical_formula_moiety         '(C12 H12 Cr4 Fe2 O17 1-)n'
_symmetry_cell_setting           triclinic
_symmetry_space_group_name_H-M   'P 1'
_symmetry_Int_Tables_number      1
_space_group_name_Hall           'P 1'
loop_
_symmetry_equiv_pos_site_id
_symmetry_equiv_pos_as_xyz
1 x,y,z
_cell_length_a                   8.2152(12)
_cell_length_b                   8.2152(12)
_cell_length_c                   13.977(3)
_cell_angle_alpha                90
_cell_angle_beta                 90
_cell_angle_gamma                120
_cell_volume                     816.923
loop_
_atom_site_label
_atom_site_type_symbol
_atom_site_fract_x
_atom_site_fract_y
_atom_site_fract_z
Cr3 Cr 0.000000 0.000000 0.000000
Cr3_2 Cr 0.000000 0.000000 1.000000
Cr3_3 Cr 0.000000 1.000000 0.000000
Cr3_4 Cr 0.000000 1.000000 1.000000
O5 O 0.3394(5) 0.4531(7) 0.1663(3)
O6 O 0.2048(5) 0.1920(7) 0.0801(2)
C3 C 0.2096(7) 0.3349(10) 0.1169(3)
H3 H 0.107674 0.352254 0.105837
O10 O 0.8080(7) 0.0128(5) 0.0801(2)
O12 O 0.2048(5) 0.0128(5) 0.4199(2)
Fe3 Fe 0.333333 0.666667 0.250000
Cr3_5 Cr 1.000000 0.000000 0.000000
Cr4 Cr 0.000000 0.000000 0.500000
Cr3_6 Cr 1.000000 0.000000 1.000000
O15 O 0.0128(5) 0.2048(5) 0.9199(2)
O1 O 0.1137(5) 0.6606(5) 0.1663(3)
C1 C 0.1253(7) 0.7904(7) 0.1169(3)
H1 H 0.244580 0.892326 0.105837
O9 O 0.5469(7) 0.8863(5) 0.1663(3)
C5 C 0.6651(10) 0.8747(7) 0.1169(3)
H5 H 0.647746 0.755420 0.105837
O11 O 0.3394(5) 0.8863(5) 0.3337(3)
C6 C 0.2096(7) 0.8747(7) 0.3831(3)
H6 H 0.107674 0.755420 0.394163
Cr3_7 Cr 1.000000 1.000000 0.000000
Cr4_2 Cr 0.000000 1.000000 0.500000
O13 O 0.5469(7) 0.6606(5) 0.3337(3)
O14 O 0.1137(5) 0.4531(7) 0.3337(3)
Cr3_8 Cr 1.000000 1.000000 1.000000
O17 O 0.1920(7) 0.9872(5) 0.9199(2)
Cr4_3 Cr 1.000000 0.000000 0.500000
O2 O 0.9872(5) 0.7952(5) 0.0801(2)
Cr4_4 Cr 1.000000 1.000000 0.500000
O16 O 0.7952(5) 0.8080(7) 0.9199(2)
C6_2 C 0.1253(7) 0.3349(10) 0.3831(3)
H6_2 H 0.244580 0.352254 0.394163
O12_2 O 0.9872(5) 0.1920(7) 0.4199(2)
O12_3 O 0.8080(7) 0.7952(5) 0.4199(2)
C6_3 C 0.6651(10) 0.7904(7) 0.3831(3)
H6_3 H 0.647746 0.892326 0.394163
O16_2 O 0.1920(7) 0.2048(5) 0.5801(2)
O17_2 O 0.0128(5) 0.8080(7) 0.5801(2)
O15_2 O 0.7952(5) 0.9872(5) 0.5801(2)
O7 O 0.4531(7) 0.1137(5) 0.8337(3)
C4 C 0.3349(10) 0.1253(7) 0.8831(3)
H4 H 0.352254 0.244580 0.894163
Fe2 Fe 0.666667 0.333333 0.750000
O1_2 O 0.8863(5) 0.3394(5) 0.8337(3)
C1_2 C 0.8747(7) 0.2096(7) 0.8831(3)
H1_2 H 0.755420 0.107674 0.894163
O3 O 0.6606(5) 0.5469(7) 0.8337(3)
C2 C 0.7904(7) 0.6651(10) 0.8831(3)
H2 H 0.892326 0.647746 0.894163
O11_2 O 0.6606(5) 0.1137(5) 0.6663(3)
C6_4 C 0.7904(7) 0.1253(7) 0.6169(3)
H6_4 H 0.892326 0.244580 0.605837
O13_2 O 0.4531(7) 0.3394(5) 0.6663(3)
O14_2 O 0.8863(5) 0.5469(7) 0.6663(3)
C6_5 C 0.8747(7) 0.6651(10) 0.6169(3)
H6_5 H 0.755420 0.647746 0.605837
C6_6 C 0.3349(10) 0.2096(7) 0.6169(3)
H6_6 H 0.352254 0.107674 0.605837
loop_
_geom_bond_atom_site_label_1
_geom_bond_atom_site_label_2
_geom_bond_site_symmetry_1
_geom_bond_site_symmetry_2
O5 C3 1_555 1_555
O6 Cr3 1_555 1_555
C3 O6 1_555 1_555
H3 C3 1_555 1_555
Fe3 O5 1_555 1_555
Cr3_5 O10 1_555 1_555
Cr4 O12 1_555 1_555
O15 Cr3_2 1_555 1_555
Fe3 O1 1_555 1_555
O1 C1 1_555 1_555
C1 H1 1_555 1_555
O9 Fe3 1_555 1_555
C5 O9 1_555 1_555
H5 C5 1_555 1_555
O11 Fe3 1_555 1_555
C6 O11 1_555 1_555
H6 C6 1_555 1_555
O13 Fe3 1_555 1_555
O14 Fe3 1_555 1_555
O17 Cr3_4 1_555 1_555
Cr3_7 O2 1_555 1_555
O16 Cr3_8 1_555 1_555
C6_2 O14 1_555 1_555
H6_2 C6_2 1_555 1_555
Cr4_3 O12_2 1_555 1_555
O12_3 C6_3 1_555 1_555
C6_3 O13 1_555 1_555
H6_3 C6_3 1_555 1_555
Cr4_4 O12_3 1_555 1_555
O16_2 Cr4 1_555 1_555
O17_2 Cr4_2 1_555 1_555
O15_2 Cr4_4 1_555 1_555
O7 C4 1_555 1_555
H4 C4 1_555 1_555
Fe2 O7 1_555 1_555
Fe2 O1_2 1_555 1_555
O1_2 C1_2 1_555 1_555
C1_2 H1_2 1_555 1_555
O3 Fe2 1_555 1_555
O16 C2 1_555 1_555
C2 O3 1_555 1_555
H2 C2 1_555 1_555
O11_2 Fe2 1_555 1_555
C6_4 O11_2 1_555 1_555
H6_4 C6_4 1_555 1_555
O13_2 Fe2 1_555 1_555
O14_2 Fe2 1_555 1_555
C6_5 O14_2 1_555 1_555
H6_5 C6_5 1_555 1_555
O16_2 C6_6 1_555 1_555
C6_6 O13_2 1_555 1_555
H6_6 C6_6 1_555 1_555

#END
