
###############################################################################
#
# This file contains modified crystal structure data generated from the
# MOF subset of the Cambridge Structural Database (CSD) v543 
# hosted by the Cambridge Crystallographic Data Centre (CCDC).
#
# This work is licensed under the Creative Commons
# Attribution-NonCommercial-ShareAlike 4.0 International License.
# To view a copy of this license, visit
# http://creativecommons.org/licenses/by-nc-sa/4.0/
# or send a letter to
# Creative Commons, PO Box 1866, Mountain View, CA 94042, USA.
#
# CIF created using the CSD Python API on 29 September 2022
# The structure has been converted into the P1 space group
# The structure has a 3D framework
# The original CSD entry ZIYPUU is in the triclinic crystal system
# The framework has been calculated to contain at least 10.0% void space
# The void calculation uses a probe of radius 1.32A, grid spacing 0.4
#
###############################################################################

data_ZIYPUU
_chemical_formula_moiety         '(C22 H20 Cd1 N6 O8)n'
_symmetry_cell_setting           triclinic
_symmetry_space_group_name_H-M   'P 1'
_symmetry_Int_Tables_number      1
_space_group_name_Hall           'P 1'
loop_
_symmetry_equiv_pos_site_id
_symmetry_equiv_pos_as_xyz
1 x,y,z
_cell_length_a                   9.5996(10)
_cell_length_b                   9.7638(14)
_cell_length_c                   9.8660(17)
_cell_angle_alpha                88.150(17)
_cell_angle_beta                 77.431(15)
_cell_angle_gamma                64.293(10)
_cell_volume                     811.202
loop_
_atom_site_label
_atom_site_type_symbol
_atom_site_fract_x
_atom_site_fract_y
_atom_site_fract_z
_atom_site_U_iso_or_equiv
_atom_site_thermal_displace_type
O5 O 0.2045(5) 0.5394(5) 0.0370(5) 0.0476 Uani
H9 H 0.143(6) 0.502(7) 0.084(6) 0.0570 Uiso
H10 H 0.279(6) 0.529(7) 0.078(6) 0.0570 Uiso
O14 O 0.1146(4) 0.9841(4) 0.0967(4) 0.0370 Uani
Cd1 Cd 0.04806(3) 0.77333(3) 0.97169(3) 0.0274 Uani
O1 O 0.1206(5) 0.6954(5) 0.7309(4) 0.0523 Uani
C4 C 0.0123(6) 0.5657(5) 0.6179(5) 0.0325 Uani
C7 C 0.0253(6) 0.6362(6) 0.7439(5) 0.0362 Uani
O7 O 0.0576(4) 0.3645(4) 0.1395(3) 0.0389 Uani
C13 C 0.1225(7) 0.4507(7) 0.3840(5) 0.0436 Uani
H11 H 0.2064 0.4167 0.3061 0.0530 Uiso
C14 C 0.1354(7) 0.5171(7) 0.4999(5) 0.0468 Uani
H12 H 0.2267 0.5290 0.4986 0.0570 Uiso
O16 O 0.2723(4) 0.8008(4) 0.9357(4) 0.0452 Uani
O4 O 0.7277(4) 0.1992(4) 0.0643(4) 0.0452 Uani
H1 H 0.6295 0.0055 0.5409 0.0530 Uiso
C17 C 0.3703(5) 0.0550(5) 0.1115(5) 0.0310 Uani
H13 H 0.2832 0.0920 0.1867 0.0370 Uiso
C18 C 0.4878(6) 0.1004(5) 0.1018(5) 0.0312 Uani
H14 H 0.4798 0.1683 0.1704 0.0380 Uiso
N4 N 0.3200(5) 0.1215(5) 0.6341(4) 0.0365 Uani
N5 N 0.3516(5) 0.2197(5) 0.7006(4) 0.0405 Uani
N6 N 0.1453(5) 0.1921(5) 0.8305(4) 0.0334 Uani
C20 C 0.4161(6) 0.0520(7) 0.4965(5) 0.0437 Uani
H16 H 0.4156 0.1312 0.4345 0.0530 Uiso
C21 C 0.2422(6) 0.2590(6) 0.8175(5) 0.0362 Uani
H17 H 0.2333 0.3279 0.8856 0.0440 Uiso
C22 C 0.1975(6) 0.1057(6) 0.7130(5) 0.0374 Uani
H18 H 0.1547 0.0432 0.6892 0.0450 Uiso
Cd6 Cd 0.95194(3) 0.22667(3) 0.02831(3) 0.0274 Uani
O3 O 0.8854(4) 0.0159(4) 0.9033(4) 0.0370 Uani
C8 C 0.6207(5) 0.0457(5) 0.9895(5) 0.0290 Uani
C11 C 0.7523(6) 0.0905(5) 0.9843(5) 0.0315 Uani
N1 N 0.6800(5) 0.8785(5) 0.3659(4) 0.0365 Uani
N2 N 0.6484(5) 0.7803(5) 0.2994(4) 0.0405 Uani
N3 N 0.8547(5) 0.8079(5) 0.1695(4) 0.0334 Uani
C1 C 0.5839(6) 0.9480(7) 0.5035(5) 0.0437 Uani
H2 H 0.5844 0.8688 0.5655 0.0530 Uiso
C2 C 0.7578(6) 0.7410(6) 0.1825(5) 0.0362 Uani
H3 H 0.7667 0.6721 0.1144 0.0440 Uiso
C3 C 0.8025(6) 0.8943(6) 0.2870(5) 0.0374 Uani
H4 H 0.8453 0.9568 0.3108 0.0450 Uiso
C16 C 0.3793(5) 0.9543(5) 0.0105(5) 0.0290 Uani
C19 C 0.2477(6) 0.9095(5) 0.0157(5) 0.0315 Uani
H15 H 0.3705 0.9945 0.4591 0.0530 Uiso
O2 O 0.9424(4) 0.6355(4) 0.8605(3) 0.0389 Uani
C5 C 0.8775(7) 0.5493(7) 0.6160(5) 0.0436 Uani
H5 H 0.7936 0.5833 0.6939 0.0530 Uiso
C6 C 0.8646(7) 0.4829(7) 0.5001(5) 0.0468 Uani
H6 H 0.7733 0.4710 0.5014 0.0570 Uiso
C9 C 0.6297(5) 0.9450(5) 0.8885(5) 0.0310 Uani
H7 H 0.7168 0.9080 0.8133 0.0370 Uiso
C10 C 0.5122(6) 0.8996(5) 0.8982(5) 0.0312 Uani
H8 H 0.5202 0.8317 0.8296 0.0380 Uiso
O6 O 0.8794(5) 0.3046(5) 0.2691(4) 0.0523 Uani
C12 C 0.9877(6) 0.4343(5) 0.3821(5) 0.0325 Uani
C15 C 0.9747(6) 0.3638(6) 0.2561(5) 0.0362 Uani
O10 O 0.7955(5) 0.4606(5) 0.9630(5) 0.0476 Uani
H19 H 0.857(6) 0.498(7) 0.916(6) 0.0570 Uiso
H20 H 0.721(6) 0.471(7) 0.922(6) 0.0570 Uiso
loop_
_atom_site_aniso_label
_atom_site_aniso_U_11
_atom_site_aniso_U_22
_atom_site_aniso_U_33
_atom_site_aniso_U_23
_atom_site_aniso_U_13
_atom_site_aniso_U_12
O5 0.044 0.042 0.057 0.0085 -0.0134 -0.0184
O14 0.0254 0.047 0.043 0.0068 -0.0072 -0.0202
Cd1 0.0253 0.036 0.0248 -0.00727 -0.00103 -0.01837
O1 0.07 0.076 0.034 -0.0108 -0.0075 -0.054
C4 0.038 0.039 0.025 -0.0043 -0.0082 -0.02
C7 0.045 0.036 0.029 -0.0034 -0.012 -0.017
O7 0.045 0.05 0.026 -0.0091 -0.0069 -0.0243
C13 0.043 0.068 0.026 -0.013 -0.001 -0.032
C14 0.042 0.074 0.034 -0.013 -0.004 -0.035
O16 0.0345 0.047 0.064 -0.0096 -0.0094 -0.0266
O4 0.0345 0.047 0.064 -0.0096 -0.0094 -0.0266
C17 0.024 0.034 0.035 -0.0039 -0.0026 -0.0141
C18 0.031 0.034 0.034 -0.0075 -0.0086 -0.018
N4 0.034 0.047 0.025 -0.0075 0.0038 -0.0186
N5 0.04 0.044 0.037 -0.007 0.0038 -0.023
N6 0.03 0.041 0.027 -0.0049 0.0012 -0.0167
C20 0.04 0.06 0.023 -0.013 0.005 -0.019
C21 0.04 0.039 0.028 -0.009 0.003 -0.02
C22 0.034 0.048 0.031 -0.01 0.002 -0.022
Cd6 0.0253 0.036 0.0248 -0.00727 -0.00103 -0.01837
O3 0.0254 0.047 0.043 0.0068 -0.0072 -0.0202
C8 0.027 0.031 0.036 0.0037 -0.0119 -0.0169
C11 0.031 0.035 0.038 0.007 -0.015 -0.02
N1 0.034 0.047 0.025 -0.0075 0.0038 -0.0186
N2 0.04 0.044 0.037 -0.007 0.0038 -0.023
N3 0.03 0.041 0.027 -0.0049 0.0012 -0.0167
C1 0.04 0.06 0.023 -0.013 0.005 -0.019
C2 0.04 0.039 0.028 -0.009 0.003 -0.02
C3 0.034 0.048 0.031 -0.01 0.002 -0.022
C16 0.027 0.031 0.036 0.0037 -0.0119 -0.0169
C19 0.031 0.035 0.038 0.007 -0.015 -0.02
O2 0.045 0.05 0.026 -0.0091 -0.0069 -0.0243
C5 0.043 0.068 0.026 -0.013 -0.001 -0.032
C6 0.042 0.074 0.034 -0.013 -0.004 -0.035
C9 0.024 0.034 0.035 -0.0039 -0.0026 -0.0141
C10 0.031 0.034 0.034 -0.0075 -0.0086 -0.018
O6 0.07 0.076 0.034 -0.0108 -0.0075 -0.054
C12 0.038 0.039 0.025 -0.0043 -0.0082 -0.02
C15 0.045 0.036 0.029 -0.0034 -0.012 -0.017
O10 0.044 0.042 0.057 0.0085 -0.0134 -0.0184
loop_
_geom_bond_atom_site_label_1
_geom_bond_atom_site_label_2
_geom_bond_site_symmetry_1
_geom_bond_site_symmetry_2
H9 O5 1_555 1_555
H10 O5 1_555 1_555
Cd1 O1 1_555 1_555
O1 C7 1_555 1_555
H11 C13 1_555 1_555
C14 C4 1_555 1_555
H12 C14 1_555 1_555
O16 Cd1 1_555 1_555
C4 C7 1_555 1_555
C13 C14 1_555 1_555
H13 C17 1_555 1_555
H14 C18 1_555 1_555
N4 N5 1_555 1_555
N5 C21 1_555 1_555
N6 C21 1_555 1_555
H16 C20 1_555 1_555
C21 H17 1_555 1_555
C22 N4 1_555 1_555
H18 C22 1_555 1_555
O4 Cd6 1_555 1_555
C17 C18 1_555 1_555
N4 C20 1_555 1_555
N6 C22 1_555 1_555
C11 O3 1_555 1_555
C8 C11 1_555 1_555
N1 N2 1_555 1_555
N2 C2 1_555 1_555
C1 N1 1_555 1_555
H2 C1 1_555 1_555
C2 N3 1_555 1_555
H3 C2 1_555 1_555
C3 N1 1_555 1_555
H4 C3 1_555 1_555
O14 C19 1_555 1_555
C19 C16 1_555 1_555
N3 C3 1_555 1_555
C5 H5 1_555 1_555
C6 C5 1_555 1_555
H6 C6 1_555 1_555
C9 H7 1_555 1_555
C10 C9 1_555 1_555
H8 C10 1_555 1_555
O6 C15 1_555 1_555
C12 C6 1_555 1_555
C15 C12 1_555 1_555
Cd6 O6 1_555 1_555
H19 O10 1_555 1_555
H20 O10 1_555 1_555

#END
