
###############################################################################
#
# This file contains modified crystal structure data generated from the
# MOF subset of the Cambridge Structural Database (CSD) v543 
# hosted by the Cambridge Crystallographic Data Centre (CCDC).
#
# This work is licensed under the Creative Commons
# Attribution-NonCommercial-ShareAlike 4.0 International License.
# To view a copy of this license, visit
# http://creativecommons.org/licenses/by-nc-sa/4.0/
# or send a letter to
# Creative Commons, PO Box 1866, Mountain View, CA 94042, USA.
#
# CIF created using the CSD Python API on 29 September 2022
# The structure has been converted into the P1 space group
# The structure has a 3D framework
# The original CSD entry ZIYQAB is in the monoclinic crystal system
# The framework has been calculated to contain at least 10.0% void space
# The void calculation uses a probe of radius 1.32A, grid spacing 0.4
#
###############################################################################

data_ZIYQAB
_chemical_formula_moiety         '(C44 H44 Cd4 N24 O20)n'
_symmetry_cell_setting           triclinic
_symmetry_space_group_name_H-M   'P 1'
_symmetry_Int_Tables_number      1
_space_group_name_Hall           'P 1'
loop_
_symmetry_equiv_pos_site_id
_symmetry_equiv_pos_as_xyz
1 x,y,z
_cell_length_a                   11.014(2)
_cell_length_b                   10.8512(18)
_cell_length_c                   17.237(4)
_cell_angle_alpha                90
_cell_angle_beta                 106.171(5)
_cell_angle_gamma                90
_cell_volume                     1978.57
loop_
_atom_site_label
_atom_site_type_symbol
_atom_site_fract_x
_atom_site_fract_y
_atom_site_fract_z
H16 H 0.0071 0.1293 0.0867
Cd1 Cd 0.37870(3) 0.18550(3) 0.184434(18)
O1 O 0.5105(3) 0.0557(4) 0.2916(2)
O2 O 0.3203(3) 0.1055(3) 0.29859(19)
O5 O 0.4963(5) 0.3321(4) 0.2691(3)
H1 H 0.486(7) 0.397(4) 0.239(4)
H2 H 0.558(4) 0.324(6) 0.311(3)
N3 N 0.2538(4) 0.0349(4) 0.1059(2)
C4 C 0.2119(4) 0.0325(5) 0.0259(3)
C7 C 0.4650(4) 0.0253(4) 0.4171(2)
C10 C 0.4276(4) 0.0618(4) 0.3296(3)
O8 O 0.6874(4) 0.1805(3) 0.6727(2)
O9 O 0.7884(3) 0.1802(3) 0.5788(2)
C13 C 0.5981(4) 0.0673(4) 0.5519(3)
C14 C 0.5625(4) 0.0911(4) 0.4697(3)
H12 H 0.6048 0.1528 0.4490
C16 C 0.6979(4) 0.1473(5) 0.6062(3)
N10 N 0.7187(4) 0.2037(4) 0.0911(3)
N11 N 0.6312(4) 0.1943(5) 0.0190(3)
N12 N 0.5410(4) 0.1745(4) 0.1206(3)
C17 C 0.9173(5) 0.1119(5) 0.0791(3)
H15 H 0.9109 0.0482 0.1181
C18 C 0.8523(5) 0.2277(5) 0.0957(3)
H17 H 0.8569 0.2911 0.0561
H18 H 0.8961 0.2589 0.1495
C21 C 0.5269(5) 0.1766(6) 0.0399(3)
H21 H 0.4480 0.1662 0.0018
C22 C 0.6646(5) 0.1923(5) 0.1503(3)
H22 H 0.7076 0.1963 0.2056
Cd5 Cd 0.87870(3) 0.31450(3) 0.684434(18)
O13 O 0.1874(4) 0.3195(3) 0.1727(2)
O15 O 0.2884(3) 0.3198(3) 0.0788(2)
H8 H 0.2316 0.0910 0.9910
N7 N 0.8624(4) 0.0653(4) 0.9974(2)
N8 N 0.8689(4) 0.1331(4) 0.9313(3)
C19 C 0.7982(5) 0.0676(5) 0.8713(3)
H19 H 0.7847 0.0901 0.8169
O3 O 0.3126(4) 0.8195(3) 0.3273(2)
O4 O 0.2116(3) 0.8198(3) 0.4212(2)
N1 N 0.1376(4) 0.9347(4) 0.0026(2)
N2 N 0.1311(4) 0.8669(4) 0.0687(3)
C3 C 0.2018(5) 0.9324(5) 0.1287(3)
H7 H 0.2153 0.9099 0.1831
C8 C 0.4019(4) 0.9327(4) 0.4481(3)
C9 C 0.4375(4) 0.9089(4) 0.5303(3)
H11 H 0.3952 0.8472 0.5510
C11 C 0.3021(4) 0.8527(5) 0.3938(3)
O6 O 0.4895(3) 0.9443(4) 0.7084(2)
O7 O 0.6797(3) 0.8945(3) 0.70141(19)
C12 C 0.5350(4) 0.9747(4) 0.5829(2)
C15 C 0.5724(4) 0.9382(4) 0.6704(3)
H20 H 0.7684 0.9090 0.0090
Cd3 Cd 0.12130(3) 0.68550(3) 0.315566(18)
Cd4 Cd 0.62130(3) 0.81450(3) 0.815566(18)
N4 N 0.2813(4) 0.7963(4) 0.9089(3)
N5 N 0.3688(4) 0.8057(5) 0.9810(3)
N6 N 0.4590(4) 0.8255(4) 0.8794(3)
C1 C 0.0827(5) 0.8881(5) 0.9209(3)
H3 H 0.0891 0.9518 0.8819
C2 C 0.1477(5) 0.7723(5) 0.9043(3)
H5 H 0.1431 0.7089 0.9439
H6 H 0.1039 0.7411 0.8505
C5 C 0.4731(5) 0.8234(6) 0.9601(3)
H9 H 0.5520 0.8338 0.9982
C6 C 0.3354(5) 0.8077(5) 0.8497(3)
H10 H 0.2924 0.8037 0.7944
O10 O 0.5037(5) 0.6679(4) 0.7309(3)
H13 H 0.514(7) 0.603(4) 0.761(4)
H14 H 0.442(4) 0.676(6) 0.689(3)
N9 N 0.7462(4) 0.9651(4) 0.8941(2)
C20 C 0.7881(4) 0.9675(5) 0.9741(3)
O14 O 0.8126(4) 0.6805(3) 0.8273(2)
O16 O 0.7116(3) 0.6802(3) 0.9212(2)
O2_2 O 0.1797(3) 0.6055(3) 0.20141(19)
O5_2 O 0.0037(5) 0.8321(4) 0.2309(3)
H1_2 H 0.014(7) 0.897(4) 0.261(4)
N1_2 N 0.3624(4) 0.4347(4) 0.4974(2)
N2_2 N 0.3689(4) 0.3669(4) 0.4313(3)
N3_2 N 0.2462(4) 0.5349(4) 0.3941(2)
N4_2 N 0.2187(4) 0.2963(4) 0.5911(3)
N5_2 N 0.1312(4) 0.3057(5) 0.5190(3)
N6_2 N 0.0410(4) 0.3255(4) 0.6206(3)
C1_2 C 0.4173(5) 0.3881(5) 0.5791(3)
H3_2 H 0.4109 0.4518 0.6181
H4 H 0.5071 0.3707 0.5867
C2_2 C 0.3523(5) 0.2723(5) 0.5957(3)
H5_2 H 0.3569 0.2089 0.5561
H6_2 H 0.3961 0.2411 0.6495
C3_2 C 0.2982(5) 0.4324(5) 0.3713(3)
H7_2 H 0.2847 0.4099 0.3169
C4_2 C 0.2881(4) 0.5325(5) 0.4741(3)
H8_2 H 0.2684 0.5910 0.5090
C5_2 C 0.0269(5) 0.3234(6) 0.5399(3)
C6_2 C 0.1646(5) 0.3077(5) 0.6503(3)
H10_2 H 0.2076 0.3037 0.7056
C7_2 C 0.0350(4) 0.5253(4) 0.0829(2)
C8_2 C 0.0981(4) 0.4327(4) 0.0519(3)
C10_2 C 0.0724(4) 0.5618(4) 0.1704(3)
C11_2 C 0.1979(4) 0.3527(5) 0.1062(3)
H14_2 H 0.058(4) 0.176(6) 0.811(3)
H21_2 H 0.0520 0.6662 0.4982
O11 O 0.0105(3) 0.4443(4) 0.7916(2)
C9_2 C 0.0625(4) 0.4089(4) 0.9697(3)
H11_2 H 0.1048 0.3472 0.9490
O1_2 O 0.9895(3) 0.5557(4) 0.2084(2)
H2_2 H 0.942(4) 0.824(6) 0.189(3)
H9_2 H 0.9480 0.3338 0.5018
C14_2 C 0.9375(4) 0.5911(4) 0.0303(3)
H12_2 H 0.8952 0.6528 0.0510
O10_2 O 0.9963(5) 0.1679(4) 0.7691(3)
H13_2 H 0.986(7) 0.103(4) 0.739(4)
N7_2 N 0.6376(4) 0.5653(4) 0.5026(2)
N8_2 N 0.6311(4) 0.6331(4) 0.5687(3)
N9_2 N 0.7538(4) 0.4651(4) 0.6059(2)
N10_2 N 0.7813(4) 0.7037(4) 0.4089(3)
N11_2 N 0.8688(4) 0.6943(5) 0.4810(3)
N12_2 N 0.9590(4) 0.6745(4) 0.3794(3)
C17_2 C 0.5827(5) 0.6119(5) 0.4209(3)
H15_2 H 0.5891 0.5482 0.3819
H16_2 H 0.4929 0.6293 0.4133
C18_2 C 0.6477(5) 0.7277(5) 0.4043(3)
H17_2 H 0.6431 0.7911 0.4439
H18_2 H 0.6039 0.7589 0.3505
C19_2 C 0.7018(5) 0.5676(5) 0.6287(3)
H19_2 H 0.7153 0.5901 0.6831
C20_2 C 0.7119(4) 0.4675(5) 0.5259(3)
H20_2 H 0.7316 0.4090 0.4910
C21_2 C 0.9731(5) 0.6766(6) 0.4601(3)
C22_2 C 0.8354(5) 0.6923(5) 0.3497(3)
H22_2 H 0.7924 0.6963 0.2944
O12 O 0.8203(3) 0.3945(3) 0.79859(19)
C12_2 C 0.9650(4) 0.4747(4) 0.9171(2)
C13_2 C 0.9019(4) 0.5673(4) 0.9481(3)
C15_2 C 0.9276(4) 0.4382(4) 0.8296(3)
C16_2 C 0.8021(4) 0.6473(5) 0.8938(3)
H4_2 H 0.9929 0.8707 0.9133
loop_
_geom_bond_atom_site_label_1
_geom_bond_atom_site_label_2
_geom_bond_site_symmetry_1
_geom_bond_site_symmetry_2
Cd1 O1 1_555 1_555
O1 C10 1_555 1_555
O2 Cd1 1_555 1_555
O5 Cd1 1_555 1_555
H1 O5 1_555 1_555
H2 O5 1_555 1_555
N3 Cd1 1_555 1_555
C10 O2 1_555 1_555
O8 C16 1_555 1_555
O9 C16 1_555 1_555
C14 C7 1_555 1_555
H12 C14 1_555 1_555
C16 C13 1_555 1_555
N10 N11 1_555 1_555
N11 C21 1_555 1_555
N12 Cd1 1_555 1_555
H15 C17 1_555 1_555
C18 N10 1_555 1_555
H17 C18 1_555 1_555
H18 C18 1_555 1_555
C21 N12 1_555 1_555
H21 C21 1_555 1_555
C22 N10 1_555 1_555
H22 C22 1_555 1_555
Cd5 O8 1_555 1_555
O13 Cd1 1_555 1_555
O15 Cd1 1_555 1_555
N3 C4 1_555 1_555
C7 C10 1_555 1_555
O9 Cd5 1_555 1_555
C13 C14 1_555 1_555
N12 C22 1_555 1_555
C17 C18 1_555 1_555
N7 N8 1_555 1_555
N8 C19 1_555 1_555
H19 C19 1_555 1_555
O3 C11 1_555 1_555
O4 C11 1_555 1_555
N1 N2 1_555 1_555
N2 C3 1_555 1_555
H7 C3 1_555 1_555
C8 C9 1_555 1_555
C9 H11 1_555 1_555
C11 C8 1_555 1_555
O6 C15 1_555 1_555
O7 C15 1_555 1_555
C12 C9 1_555 1_555
C15 C12 1_555 1_555
Cd3 O3 1_555 1_555
Cd4 O6 1_555 1_555
O4 Cd3 1_555 1_555
O7 Cd4 1_555 1_555
N4 N5 1_555 1_555
N5 C5 1_555 1_555
N6 C5 1_555 1_555
H3 C1 1_555 1_555
C2 N4 1_555 1_555
H5 C2 1_555 1_555
H6 C2 1_555 1_555
C5 H9 1_555 1_555
C6 N4 1_555 1_555
H10 C6 1_555 1_555
Cd4 N6 1_555 1_555
O10 Cd4 1_555 1_555
H13 O10 1_555 1_555
H14 O10 1_555 1_555
N9 Cd4 1_555 1_555
O14 Cd4 1_555 1_555
O16 Cd4 1_555 1_555
N6 C6 1_555 1_555
C1 C2 1_555 1_555
N9 C20 1_555 1_555
O2_2 Cd3 1_555 1_555
O13 C11_2 1_555 1_555
O15 C11_2 1_555 1_555
O5_2 Cd3 1_555 1_555
H1_2 O5_2 1_555 1_555
N1_2 N2_2 1_555 1_555
N2_2 C3_2 1_555 1_555
N3_2 Cd3 1_555 1_555
N4_2 N5_2 1_555 1_555
N5_2 C5_2 1_555 1_555
N6_2 C5_2 1_555 1_555
C1_2 N1_2 1_555 1_555
H3_2 C1_2 1_555 1_555
H4 C1_2 1_555 1_555
C2_2 N4_2 1_555 1_555
H5_2 C2_2 1_555 1_555
H6_2 C2_2 1_555 1_555
C3_2 N3_2 1_555 1_555
H7_2 C3_2 1_555 1_555
C4_2 N1_2 1_555 1_555
H8_2 C4_2 1_555 1_555
C6_2 N4_2 1_555 1_555
H10_2 C6_2 1_555 1_555
C7_2 C8_2 1_555 1_555
C10_2 O2_2 1_555 1_555
C11_2 C8_2 1_555 1_555
N3_2 C4_2 1_555 1_555
N6_2 C6_2 1_555 1_555
C1_2 C2_2 1_555 1_555
C7_2 C10_2 1_555 1_555
C9_2 H11_2 1_555 1_555
H12_2 C14_2 1_555 1_555
O10_2 Cd5 1_555 1_555
H13_2 O10_2 1_555 1_555
N7_2 N8_2 1_555 1_555
N8_2 C19_2 1_555 1_555
N9_2 Cd5 1_555 1_555
N10_2 N11_2 1_555 1_555
N11_2 C21_2 1_555 1_555
C17_2 N7_2 1_555 1_555
H15_2 C17_2 1_555 1_555
H16_2 C17_2 1_555 1_555
C18_2 N10_2 1_555 1_555
H17_2 C18_2 1_555 1_555
H18_2 C18_2 1_555 1_555
C19_2 N9_2 1_555 1_555
H19_2 C19_2 1_555 1_555
C20_2 N7_2 1_555 1_555
H20_2 C20_2 1_555 1_555
C21_2 N12_2 1_555 1_555
C22_2 N10_2 1_555 1_555
H22_2 C22_2 1_555 1_555
O12 Cd5 1_555 1_555
N9_2 C20_2 1_555 1_555
N12_2 C22_2 1_555 1_555
C17_2 C18_2 1_555 1_555
O12 C15_2 1_555 1_555
O14 C16_2 1_555 1_555
O16 C16_2 1_555 1_555
C13_2 C12_2 1_555 1_555
C15_2 C12_2 1_555 1_555
C16_2 C13_2 1_555 1_555

#END
