
###############################################################################
#
# This file contains modified crystal structure data generated from the
# MOF subset of the Cambridge Structural Database (CSD) v543 
# hosted by the Cambridge Crystallographic Data Centre (CCDC).
#
# This work is licensed under the Creative Commons
# Attribution-NonCommercial-ShareAlike 4.0 International License.
# To view a copy of this license, visit
# http://creativecommons.org/licenses/by-nc-sa/4.0/
# or send a letter to
# Creative Commons, PO Box 1866, Mountain View, CA 94042, USA.
#
# CIF created using the CSD Python API on 29 September 2022
# The structure has been converted into the P1 space group
# The structure has a 3D framework
# The original CSD entry ZIZBAO is in the rhombohedral crystal system
# The framework has been calculated to contain at least 10.0% void space
# The void calculation uses a probe of radius 1.32A, grid spacing 0.4
#
###############################################################################

data_ZIZBAO
_chemical_formula_moiety         '(C324 H216 Fe18 N36 O72)n'
_symmetry_cell_setting           triclinic
_symmetry_space_group_name_H-M   'P 1'
_symmetry_Int_Tables_number      1
_space_group_name_Hall           'P 1'
loop_
_symmetry_equiv_pos_site_id
_symmetry_equiv_pos_as_xyz
1 x,y,z
_cell_length_a                   20.10(2)
_cell_length_b                   20.10(2)
_cell_length_c                   43.98(9)
_cell_angle_alpha                90
_cell_angle_beta                 90
_cell_angle_gamma                120
_cell_volume                     15387.9
loop_
_atom_site_label
_atom_site_type_symbol
_atom_site_fract_x
_atom_site_fract_y
_atom_site_fract_z
C12 C 0.0321(5) 0.5184(5) 0.34197(11)
C13 C 0.0550(5) 0.5786(4) 0.32147(17)
H6 H 0.0882 0.6289 0.3277
C14 C 0.0282(5) 0.5638(4) 0.29170(15)
H7 H 0.0434 0.6040 0.2780
C15 C 0.0350(4) 0.5176(4) 0.40014(13)
C16 C 0.1552(5) 0.5752(7) 0.41233(19)
C17 C 0.1489(6) 0.5772(7) 0.3811(2)
H9 H 0.1896 0.6018 0.3676
N1 N 0.0727(5) 0.5369(4) 0.37351(13)
N2 N 0.0809(3) 0.5408(3) 0.42496(9)
C18 C 0.2238(3) 0.6080(2) 0.43086(9)
H10 H 0.2680 0.6375 0.4183
H11 H 0.2281 0.5675 0.4406
H12 H 0.2209 0.6407 0.4461
Fe3 Fe 0.04701(6) 0.52342(4) 0.47167(2)
C1 C 0.8764(4) 0.3088(4) 0.18769(13)
C2 C 0.8955(4) 0.3857(3) 0.20285(12)
C3 C 0.9258(4) 0.4015(4) 0.23357(13)
H1 H 0.9351 0.3662 0.2436
C4 C 0.9417(4) 0.4718(4) 0.24882(15)
C5 C 0.9264(4) 0.5233(4) 0.23339(13)
H2 H 0.9362 0.5684 0.2431
C6 C 0.8961(4) 0.5091(3) 0.20303(12)
C7 C 0.8804(4) 0.4402(3) 0.18802(11)
H3 H 0.8603 0.4305 0.1684
C8 C 0.8766(4) 0.5675(3) 0.18747(13)
C9 C 0.9785(4) 0.4887(4) 0.28245(11)
C10 C 0.9556(5) 0.4285(3) 0.30295(17)
H4 H 0.9224 0.3783 0.2968
C11 C 0.9824(5) 0.4434(4) 0.33272(15)
H5 H 0.9671 0.4031 0.3464
H8 H 0.9816 0.4906 0.4014
Fe1 Fe 0.80991(4) 0.19025(4) 0.13834(2)
O1 O 0.8490(3) 0.2977(3) 0.16032(9)
O2 O 0.8886(3) 0.2621(3) 0.20385(10)
O3 O 0.8501(3) 0.5517(2) 0.16006(9)
O4 O 0.8873(3) 0.6264(2) 0.20329(9)
Fe2 Fe 0.80975(4) 0.61966(6) 0.13834(2)
Fe4 Fe 0.85676(4) 0.14308(4) 0.19499(2)
Fe5 Fe 0.85692(4) 0.71367(6) 0.19499(2)
N3 N 0.7925(3) 0.2068(4) 0.09163(9)
O5 O 0.7781(3) 0.0712(3) 0.12948(10)
O6 O 0.7016(4) 0.1499(3) 0.16006(9)
O7 O 0.9276(4) 0.2206(3) 0.13004(9)
C1_2 C 0.6912(4) 0.5676(6) 0.18769(13)
C2_2 C 0.6143(3) 0.5098(5) 0.20285(12)
C3_2 C 0.5985(4) 0.5243(6) 0.23357(13)
H1_2 H 0.6338 0.5689 0.2436
C4_2 C 0.5282(4) 0.4699(6) 0.24882(15)
C5_2 C 0.4767(4) 0.4031(6) 0.23339(13)
H2_2 H 0.4316 0.3678 0.2431
C6_2 C 0.4909(3) 0.3870(5) 0.20303(12)
C7_2 C 0.5598(3) 0.4402(5) 0.18802(11)
H3_2 H 0.5695 0.4298 0.1684
C8_2 C 0.4325(3) 0.3091(5) 0.18747(13)
C9_2 C 0.5113(4) 0.4898(6) 0.28245(11)
C10_2 C 0.5715(3) 0.5271(6) 0.30295(17)
H4_2 H 0.6217 0.5441 0.2968
C11_2 C 0.5566(4) 0.5390(6) 0.33272(15)
H5_2 H 0.5969 0.5640 0.3464
C12_2 C 0.4816(5) 0.5137(7) 0.34197(11)
C13_2 C 0.4214(4) 0.4764(6) 0.32147(17)
H6_2 H 0.3711 0.4593 0.3277
C14_2 C 0.4362(4) 0.4644(6) 0.29170(15)
H7_2 H 0.3960 0.4394 0.2780
C15_2 C 0.4824(4) 0.5174(6) 0.40014(13)
H8_2 H 0.5094 0.4910 0.4014
C16_2 C 0.4248(7) 0.5800(9) 0.41233(19)
C17_2 C 0.4228(7) 0.5717(9) 0.3811(2)
H9_2 H 0.3982 0.5878 0.3676
N1_2 N 0.4631(4) 0.5358(6) 0.37351(13)
N2_2 N 0.4592(3) 0.5401(4) 0.42496(9)
O1_2 O 0.7023(3) 0.5513(4) 0.16032(9)
O2_2 O 0.7379(3) 0.6265(4) 0.20385(10)
O3_2 O 0.4483(2) 0.2984(4) 0.16006(9)
O4_2 O 0.3736(2) 0.2609(4) 0.20329(9)
C18_2 C 0.3920(2) 0.6158(4) 0.43086(9)
H10_2 H 0.3625 0.6305 0.4183
H11_2 H 0.4325 0.6606 0.4406
H12_2 H 0.3593 0.5802 0.4461
Fe2_2 Fe 0.38034(6) 0.19009(7) 0.13834(2)
Fe3_2 Fe 0.47658(4) 0.52358(7) 0.47167(2)
Fe5_2 Fe 0.28633(6) 0.14324(7) 0.19499(2)
N3_2 N 0.7932(4) 0.5858(5) 0.09163(9)
O5_2 O 0.9288(3) 0.7068(4) 0.12948(10)
O7_2 O 0.7794(3) 0.7069(5) 0.13004(9)
C1_3 C 0.4324(6) 0.1236(4) 0.18769(13)
C2_3 C 0.4902(5) 0.1045(4) 0.20285(12)
C3_3 C 0.4757(6) 0.0742(4) 0.23357(13)
H1_3 H 0.4311 0.0649 0.2436
C4_3 C 0.5301(6) 0.0583(4) 0.24882(15)
C5_3 C 0.5969(6) 0.0736(4) 0.23339(13)
H2_3 H 0.6322 0.0638 0.2431
C6_3 C 0.6130(5) 0.1039(4) 0.20303(12)
C7_3 C 0.5598(5) 0.1196(4) 0.18802(11)
H3_3 H 0.5702 0.1397 0.1684
C8_3 C 0.6909(5) 0.1234(4) 0.18747(13)
C9_3 C 0.5102(6) 0.0215(4) 0.28245(11)
C10_3 C 0.4729(6) 0.0444(5) 0.30295(17)
H4_3 H 0.4559 0.0776 0.2968
C11_3 C 0.4610(6) 0.0176(5) 0.33272(15)
H5_3 H 0.4360 0.0329 0.3464
H8_3 H 0.5090 0.0184 0.4014
O1_3 O 0.4487(4) 0.1510(3) 0.16032(9)
O2_3 O 0.3735(4) 0.1114(3) 0.20385(10)
O4_3 O 0.7391(4) 0.1127(3) 0.20329(9)
N3_3 N 0.4142(5) 0.2075(3) 0.09163(9)
O5_3 O 0.2932(4) 0.2219(3) 0.12948(10)
O7_3 O 0.2931(5) 0.0724(4) 0.13004(9)
C12_3 C 0.4863(7) 0.9679(5) 0.34197(11)
C13_3 C 0.5236(6) 0.9450(5) 0.32147(17)
H6_3 H 0.5407 0.9118 0.3277
C14_3 C 0.5356(6) 0.9718(5) 0.29170(15)
H7_3 H 0.5606 0.9566 0.2780
C15_3 C 0.4826(6) 0.9650(4) 0.40014(13)
C16_3 C 0.4200(9) 0.8448(5) 0.41233(19)
C17_3 C 0.4283(9) 0.8511(6) 0.3811(2)
H9_3 H 0.4122 0.8104 0.3676
N1_3 N 0.4642(6) 0.9273(5) 0.37351(13)
N2_3 N 0.4599(4) 0.9191(3) 0.42496(9)
C18_3 C 0.3842(4) 0.7762(3) 0.43086(9)
H10_3 H 0.3695 0.7320 0.4183
H11_3 H 0.3394 0.7719 0.4406
H12_3 H 0.4198 0.7791 0.4461
Fe3_3 Fe 0.47642(7) 0.95299(6) 0.47167(2)
Fe5_3 Fe 0.52358(4) 0.04701(6) 0.52833(2)
C1_4 C 0.5431(4) 0.6421(4) 0.52102(13)
C2_4 C 0.5622(4) 0.7190(3) 0.53618(12)
C3_4 C 0.5925(4) 0.7348(4) 0.56690(13)
H1_4 H 0.6018 0.6995 0.5769
C4_4 C 0.6084(4) 0.8051(4) 0.58215(15)
C5_4 C 0.5931(4) 0.8566(4) 0.56672(13)
H2_4 H 0.6029 0.9017 0.5764
C6_4 C 0.5628(4) 0.8424(3) 0.53636(12)
C7_4 C 0.5471(4) 0.7735(3) 0.52135(11)
H3_4 H 0.5270 0.7638 0.5017
C8_4 C 0.5433(4) 0.9008(3) 0.52080(13)
C9_4 C 0.6452(4) 0.8220(4) 0.61578(11)
C10_4 C 0.6223(5) 0.7618(3) 0.63628(17)
H4_4 H 0.5891 0.7116 0.6301
C11_4 C 0.6491(5) 0.7767(4) 0.66605(15)
H5_4 H 0.6338 0.7364 0.6797
C12_4 C 0.6988(5) 0.8517(5) 0.67530(11)
C13_4 C 0.7217(5) 0.9119(4) 0.65480(17)
H6_4 H 0.7549 0.9622 0.6610
C14_4 C 0.6949(5) 0.8971(4) 0.62503(15)
H7_4 H 0.7101 0.9373 0.6113
C15_4 C 0.7017(4) 0.8509(4) 0.73347(13)
H8_4 H 0.6483 0.8239 0.7347
C16_4 C 0.8219(5) 0.9085(7) 0.74566(19)
C17_4 C 0.8156(6) 0.9105(7) 0.7144(2)
H9_4 H 0.8563 0.9351 0.7009
N1_4 N 0.7394(5) 0.8702(4) 0.70684(13)
N2_4 N 0.7476(3) 0.8741(3) 0.75829(9)
O1_4 O 0.5157(3) 0.6310(3) 0.49365(9)
O2_4 O 0.5553(3) 0.5954(3) 0.53718(10)
O3_3 O 0.5168(3) 0.8850(2) 0.49339(9)
O4_4 O 0.5540(3) 0.9597(2) 0.53662(9)
C18_4 C 0.8905(3) 0.9413(2) 0.76419(9)
H10_4 H 0.9347 0.9708 0.7516
H11_4 H 0.8948 0.9008 0.7739
H12_4 H 0.8876 0.9740 0.7794
Fe3_4 Fe 0.71367(6) 0.85676(4) 0.80501(2)
Fe4_2 Fe 0.52342(4) 0.47642(4) 0.52833(2)
O5_4 O 0.4447(3) 0.4046(3) 0.46282(10)
O6_2 O 0.3683(4) 0.4832(3) 0.49339(9)
O7_4 O 0.5942(4) 0.5540(3) 0.46338(9)
O5_5 O 0.5954(3) 0.0402(4) 0.46282(10)
O7_5 O 0.4460(3) 0.0403(5) 0.46338(9)
C1_5 C 0.3579(4) 0.9009(6) 0.52102(13)
C2_5 C 0.2810(3) 0.8431(5) 0.53618(12)
C3_5 C 0.2652(4) 0.8576(6) 0.56690(13)
H1_5 H 0.3005 0.9022 0.5769
C4_5 C 0.1949(4) 0.8032(6) 0.58215(15)
C5_5 C 0.1434(4) 0.7364(6) 0.56672(13)
H2_5 H 0.0983 0.7011 0.5764
C6_5 C 0.1576(3) 0.7203(5) 0.53636(12)
C7_5 C 0.2265(3) 0.7735(5) 0.52135(11)
H3_5 H 0.2362 0.7631 0.5017
C8_5 C 0.0992(3) 0.6424(5) 0.52080(13)
C9_5 C 0.1780(4) 0.8231(6) 0.61578(11)
C10_5 C 0.2382(3) 0.8604(6) 0.63628(17)
H4_5 H 0.2884 0.8774 0.6301
C11_5 C 0.2233(4) 0.8723(6) 0.66605(15)
H5_5 H 0.2636 0.8973 0.6797
C12_5 C 0.1483(5) 0.8470(7) 0.67530(11)
C13_5 C 0.0881(4) 0.8097(6) 0.65480(17)
H6_5 H 0.0378 0.7926 0.6610
C14_5 C 0.1029(4) 0.7977(6) 0.62503(15)
H7_5 H 0.0627 0.7727 0.6113
C15_5 C 0.1491(4) 0.8507(6) 0.73347(13)
H8_5 H 0.1761 0.8243 0.7347
C16_5 C 0.0915(7) 0.9133(9) 0.74566(19)
C17_5 C 0.0895(7) 0.9050(9) 0.7144(2)
H9_5 H 0.0649 0.9211 0.7009
N1_5 N 0.1298(4) 0.8691(6) 0.70684(13)
N2_5 N 0.1259(3) 0.8734(4) 0.75829(9)
O1_5 O 0.3690(3) 0.8846(4) 0.49365(9)
O2_5 O 0.4046(3) 0.9598(4) 0.53718(10)
O3_4 O 0.1150(2) 0.6317(4) 0.49339(9)
O4_5 O 0.0403(2) 0.5942(4) 0.53662(9)
C18_5 C 0.0587(2) 0.9491(4) 0.76419(9)
H10_5 H 0.0292 0.9638 0.7516
H11_5 H 0.0992 0.9939 0.7739
H12_5 H 0.0260 0.9135 0.7794
Fe3_5 Fe 0.14324(4) 0.85692(7) 0.80501(2)
Fe5_4 Fe 0.95299(6) 0.47658(7) 0.52833(2)
C1_6 C 0.0991(6) 0.4569(4) 0.52102(13)
C2_6 C 0.1569(5) 0.4378(4) 0.53618(12)
C3_6 C 0.1424(6) 0.4075(4) 0.56690(13)
H1_6 H 0.0978 0.3982 0.5769
C4_6 C 0.1968(6) 0.3916(4) 0.58215(15)
C5_6 C 0.2636(6) 0.4069(4) 0.56672(13)
H2_6 H 0.2989 0.3971 0.5764
C6_6 C 0.2797(5) 0.4372(4) 0.53636(12)
C7_6 C 0.2265(5) 0.4529(4) 0.52135(11)
H3_6 H 0.2369 0.4730 0.5017
C8_6 C 0.3576(5) 0.4567(4) 0.52080(13)
C9_6 C 0.1769(6) 0.3548(4) 0.61578(11)
C10_6 C 0.1396(6) 0.3777(5) 0.63628(17)
H4_6 H 0.1226 0.4109 0.6301
C11_6 C 0.1277(6) 0.3509(5) 0.66605(15)
H5_6 H 0.1027 0.3662 0.6797
C12_6 C 0.1530(7) 0.3012(5) 0.67530(11)
C13_6 C 0.1903(6) 0.2783(5) 0.65480(17)
H6_6 H 0.2074 0.2451 0.6610
C14_6 C 0.2023(6) 0.3051(5) 0.62503(15)
H7_6 H 0.2273 0.2899 0.6113
C15_6 C 0.1493(6) 0.2983(4) 0.73347(13)
H8_6 H 0.1757 0.3517 0.7347
C16_6 C 0.0867(9) 0.1781(5) 0.74566(19)
C17_6 C 0.0950(9) 0.1844(6) 0.7144(2)
H9_6 H 0.0789 0.1437 0.7009
N1_6 N 0.1309(6) 0.2606(5) 0.70684(13)
N2_6 N 0.1266(4) 0.2524(3) 0.75829(9)
O1_6 O 0.1154(4) 0.4843(3) 0.49365(9)
O2_6 O 0.0402(4) 0.4447(3) 0.53718(10)
O4_6 O 0.4058(4) 0.4460(3) 0.53662(9)
C18_6 C 0.0509(4) 0.1095(3) 0.76419(9)
H10_6 H 0.0362 0.0653 0.7516
H11_6 H 0.0061 0.1052 0.7739
H12_6 H 0.0865 0.1124 0.7794
Fe3_6 Fe 0.14308(7) 0.28633(6) 0.80501(2)
O5_6 O 0.9598(4) 0.5553(3) 0.46282(10)
O7_6 O 0.9597(5) 0.4058(4) 0.46338(9)
H5_7 H 0.3004 0.0698 0.0131
C12_7 C 0.3654(5) 0.1851(5) 0.00864(11)
C15_7 C 0.3683(4) 0.1843(4) 0.06681(13)
H8_7 H 0.3149 0.1573 0.0681
C16_7 C 0.4885(5) 0.2419(7) 0.07900(19)
C17_7 C 0.4822(6) 0.2439(7) 0.0478(2)
H9_7 H 0.5229 0.2685 0.0343
N1_7 N 0.4060(5) 0.2036(4) 0.04018(13)
C18_7 C 0.5571(3) 0.2747(2) 0.09753(9)
H10_7 H 0.6013 0.3042 0.0850
H11_7 H 0.5614 0.2342 0.1073
H12_7 H 0.5542 0.3074 0.1128
C2_7 C 0.2288(4) 0.0524(3) 0.86952(12)
C3_7 C 0.2591(4) 0.0682(4) 0.90024(13)
H1_7 H 0.2684 0.0329 0.9103
C4_7 C 0.2750(4) 0.1385(4) 0.91549(15)
C5_7 C 0.2597(4) 0.1900(4) 0.90006(13)
H2_7 H 0.2695 0.2351 0.9098
C6_7 C 0.2294(4) 0.1758(3) 0.86970(12)
C7_7 C 0.2137(4) 0.1069(3) 0.85469(11)
H3_7 H 0.1936 0.0972 0.8351
C8_7 C 0.2099(4) 0.2342(3) 0.85414(13)
C9_7 C 0.3118(4) 0.1554(4) 0.94912(11)
C10_7 C 0.2889(5) 0.0952(3) 0.96962(17)
H4_7 H 0.2557 0.0450 0.9635
C11_7 C 0.3157(5) 0.1101(4) 0.99939(15)
C13_7 C 0.3883(5) 0.2453(4) 0.98814(17)
H6_7 H 0.4215 0.2956 0.9944
C14_7 C 0.3615(5) 0.2305(4) 0.95837(15)
H7_7 H 0.3767 0.2707 0.9447
O3_5 O 0.1834(3) 0.2184(2) 0.82673(9)
O4_7 O 0.2206(3) 0.2931(2) 0.86996(9)
Fe5_5 Fe 0.19025(4) 0.38034(6) 0.86166(2)
C1_7 C 0.2097(4) 0.9755(4) 0.85436(13)
O1_7 O 0.1823(3) 0.9644(3) 0.82699(9)
O2_7 O 0.2219(3) 0.9288(3) 0.87052(10)
Fe4_3 Fe 0.19009(4) 0.80975(4) 0.86166(2)
O5_7 O 0.1114(3) 0.7379(3) 0.79615(10)
O6_3 O 0.0349(4) 0.8166(3) 0.82673(9)
O7_7 O 0.2609(4) 0.8873(3) 0.79671(9)
C1_8 C 0.0245(4) 0.2343(6) 0.85436(13)
O1_8 O 0.0356(3) 0.2180(4) 0.82699(9)
O2_8 O 0.0712(3) 0.2932(4) 0.87052(10)
O5_8 O 0.2621(3) 0.3735(4) 0.79615(10)
O7_8 O 0.1127(3) 0.3736(5) 0.79671(9)
H5_8 H 0.9302 0.2307 0.0131
C12_8 C 0.8149(5) 0.1804(7) 0.00864(11)
C15_8 C 0.8157(4) 0.1841(6) 0.06681(13)
H8_8 H 0.8427 0.1577 0.0681
C16_8 C 0.7581(7) 0.2467(9) 0.07900(19)
C17_8 C 0.7561(7) 0.2384(9) 0.0478(2)
H9_8 H 0.7315 0.2545 0.0343
N1_8 N 0.7964(4) 0.2025(6) 0.04018(13)
C18_8 C 0.7253(2) 0.2825(4) 0.09753(9)
H10_8 H 0.6958 0.2972 0.0850
H11_8 H 0.7658 0.3273 0.1073
H12_8 H 0.6926 0.2469 0.1128
C8_8 C 0.7658(3) 0.9758(5) 0.85414(13)
O3_6 O 0.7816(2) 0.9651(4) 0.82673(9)
O4_8 O 0.7069(2) 0.9276(4) 0.86996(9)
Fe5_6 Fe 0.61966(6) 0.80991(7) 0.86166(2)
C8_9 C 0.0242(5) 0.7901(4) 0.85414(13)
O4_9 O 0.0724(4) 0.7794(3) 0.86996(9)
H5_9 H 0.7693 0.6996 0.0131
C12_9 C 0.8196(7) 0.6346(5) 0.00864(11)
C15_9 C 0.8159(6) 0.6317(4) 0.06681(13)
H8_9 H 0.8423 0.6851 0.0681
C16_9 C 0.7533(9) 0.5115(5) 0.07900(19)
C17_9 C 0.7616(9) 0.5178(6) 0.0478(2)
H9_9 H 0.7455 0.4771 0.0343
N1_9 N 0.7975(6) 0.5940(5) 0.04018(13)
C18_9 C 0.7175(4) 0.4429(3) 0.09753(9)
H10_9 H 0.7028 0.3987 0.0850
H11_9 H 0.6727 0.4386 0.1073
H12_9 H 0.7531 0.4458 0.1128
C1_9 C 0.7657(6) 0.7903(4) 0.85436(13)
C2_8 C 0.8235(5) 0.7712(4) 0.86952(12)
C3_8 C 0.8090(6) 0.7409(4) 0.90024(13)
H1_8 H 0.7644 0.7316 0.9103
C4_8 C 0.8634(6) 0.7250(4) 0.91549(15)
C5_8 C 0.9302(6) 0.7403(4) 0.90006(13)
H2_8 H 0.9655 0.7305 0.9098
C6_8 C 0.9463(5) 0.7706(4) 0.86970(12)
C7_8 C 0.8931(5) 0.7863(4) 0.85469(11)
H3_8 H 0.9035 0.8064 0.8351
C9_8 C 0.8435(6) 0.6882(4) 0.94912(11)
C10_8 C 0.8062(6) 0.7111(5) 0.96962(17)
H4_8 H 0.7892 0.7443 0.9635
C11_8 C 0.7943(6) 0.6843(5) 0.99939(15)
C13_8 C 0.8569(6) 0.6117(5) 0.98814(17)
H6_8 H 0.8740 0.5785 0.9944
C14_8 C 0.8689(6) 0.6385(5) 0.95837(15)
H7_8 H 0.8939 0.6233 0.9447
O1_9 O 0.7820(4) 0.8177(3) 0.82699(9)
O2_9 O 0.7068(4) 0.7781(3) 0.87052(10)
O5_9 O 0.6265(4) 0.8886(3) 0.79615(10)
O7_9 O 0.6264(5) 0.7391(4) 0.79671(9)
C1_10 C 0.1236(4) 0.6912(4) 0.81231(13)
C2_9 C 0.1045(4) 0.6143(3) 0.79715(12)
C3_9 C 0.0742(4) 0.5985(4) 0.76643(13)
H1_9 H 0.0649 0.6338 0.7564
C4_9 C 0.0583(4) 0.5282(4) 0.75118(15)
C5_9 C 0.0736(4) 0.4767(4) 0.76661(13)
H2_9 H 0.0638 0.4316 0.7569
C6_9 C 0.1039(4) 0.4909(3) 0.79697(12)
C7_9 C 0.1196(4) 0.5598(3) 0.81198(11)
H3_9 H 0.1397 0.5695 0.8316
C8_10 C 0.1234(4) 0.4325(3) 0.81253(13)
C9_9 C 0.0215(4) 0.5113(4) 0.71755(11)
C10_9 C 0.0444(5) 0.5715(3) 0.69705(17)
H4_9 H 0.0776 0.6217 0.7032
C11_9 C 0.0176(5) 0.5566(4) 0.66728(15)
H5_10 H 0.0329 0.5969 0.6536
H8_10 H 0.0184 0.5094 0.5986
O1_10 O 0.1510(3) 0.7023(3) 0.83968(9)
O3_7 O 0.1499(3) 0.4483(2) 0.83994(9)
N3_4 N 0.2075(3) 0.7932(4) 0.90837(9)
O6_4 O 0.2984(4) 0.8501(3) 0.83994(9)
C12_10 C 0.9679(5) 0.4816(5) 0.65803(11)
C13_9 C 0.9450(5) 0.4214(4) 0.67853(17)
H6_9 H 0.9118 0.3711 0.6723
C14_9 C 0.9718(5) 0.4362(4) 0.70830(15)
H7_9 H 0.9566 0.3960 0.7220
C15_10 C 0.9650(4) 0.4824(4) 0.59986(13)
C16_10 C 0.8448(5) 0.4248(7) 0.58767(19)
C17_10 C 0.8511(6) 0.4228(7) 0.6189(2)
H9_10 H 0.8104 0.3982 0.6324
N1_10 N 0.9273(5) 0.4631(4) 0.62649(13)
N2_7 N 0.9191(3) 0.4592(3) 0.57504(9)
C18_10 C 0.7762(3) 0.3920(2) 0.56914(9)
H10_10 H 0.7320 0.3625 0.5817
H11_10 H 0.7719 0.4325 0.5594
H12_10 H 0.7791 0.3593 0.5539
C1_11 C 0.3088(4) 0.4324(6) 0.81231(13)
C2_10 C 0.3857(3) 0.4902(5) 0.79715(12)
C3_10 C 0.4015(4) 0.4757(6) 0.76643(13)
H1_10 H 0.3662 0.4311 0.7564
C4_10 C 0.4718(4) 0.5301(6) 0.75118(15)
C5_10 C 0.5233(4) 0.5969(6) 0.76661(13)
H2_10 H 0.5684 0.6322 0.7569
C6_10 C 0.5091(3) 0.6130(5) 0.79697(12)
C7_10 C 0.4402(3) 0.5598(5) 0.81198(11)
H3_10 H 0.4305 0.5702 0.8316
C8_11 C 0.5675(3) 0.6909(5) 0.81253(13)
C9_10 C 0.4887(4) 0.5102(6) 0.71755(11)
C10_10 C 0.4285(3) 0.4729(6) 0.69705(17)
H4_10 H 0.3783 0.4559 0.7032
C11_10 C 0.4434(4) 0.4610(6) 0.66728(15)
H5_11 H 0.4031 0.4360 0.6536
C12_11 C 0.5184(5) 0.4863(7) 0.65803(11)
C13_10 C 0.5786(4) 0.5236(6) 0.67853(17)
H6_10 H 0.6289 0.5407 0.6723
C14_10 C 0.5638(4) 0.5356(6) 0.70830(15)
H7_10 H 0.6040 0.5606 0.7220
C15_11 C 0.5176(4) 0.4826(6) 0.59986(13)
H8_11 H 0.4906 0.5090 0.5986
C16_11 C 0.5752(7) 0.4200(9) 0.58767(19)
C17_11 C 0.5772(7) 0.4283(9) 0.6189(2)
H9_11 H 0.6018 0.4122 0.6324
N1_11 N 0.5369(4) 0.4642(6) 0.62649(13)
N2_8 N 0.5408(3) 0.4599(4) 0.57504(9)
O1_11 O 0.2977(3) 0.4487(4) 0.83968(9)
O3_8 O 0.5517(2) 0.7016(4) 0.83994(9)
C18_11 C 0.6080(2) 0.3842(4) 0.56914(9)
H10_11 H 0.6375 0.3695 0.5817
H11_11 H 0.5675 0.3394 0.5594
H12_11 H 0.6407 0.4198 0.5539
N3_5 N 0.2068(4) 0.4142(5) 0.90837(9)
C12_12 C 0.5137(7) 0.0321(5) 0.65803(11)
C13_11 C 0.4764(6) 0.0550(5) 0.67853(17)
H6_11 H 0.4593 0.0882 0.6723
C14_11 C 0.4644(6) 0.0282(5) 0.70830(15)
H7_11 H 0.4394 0.0434 0.7220
C15_12 C 0.5174(6) 0.0350(4) 0.59986(13)
C16_12 C 0.5800(9) 0.1552(5) 0.58767(19)
C17_12 C 0.5717(9) 0.1489(6) 0.6189(2)
H9_12 H 0.5878 0.1896 0.6324
N1_12 N 0.5358(6) 0.0727(5) 0.62649(13)
N2_9 N 0.5401(4) 0.0809(3) 0.57504(9)
C18_12 C 0.6158(4) 0.2238(3) 0.56914(9)
H10_12 H 0.6305 0.2680 0.5817
H11_12 H 0.6606 0.2281 0.5594
H12_12 H 0.5802 0.2209 0.5539
C1_12 C 0.5676(6) 0.8764(4) 0.81231(13)
C2_11 C 0.5098(5) 0.8955(4) 0.79715(12)
C3_11 C 0.5243(6) 0.9258(4) 0.76643(13)
H1_11 H 0.5689 0.9351 0.7564
C4_11 C 0.4699(6) 0.9417(4) 0.75118(15)
C5_11 C 0.4031(6) 0.9264(4) 0.76661(13)
H2_11 H 0.3678 0.9362 0.7569
C6_11 C 0.3870(5) 0.8961(4) 0.79697(12)
C7_11 C 0.4402(5) 0.8804(4) 0.81198(11)
H3_11 H 0.4298 0.8603 0.8316
C8_12 C 0.3091(5) 0.8766(4) 0.81253(13)
C9_11 C 0.4898(6) 0.9785(4) 0.71755(11)
C10_11 C 0.5271(6) 0.9556(5) 0.69705(17)
H4_11 H 0.5441 0.9224 0.7032
C11_11 C 0.5390(6) 0.9824(5) 0.66728(15)
H5_12 H 0.5640 0.9671 0.6536
H8_12 H 0.4910 0.9816 0.5986
O1_12 O 0.5513(4) 0.8490(3) 0.83968(9)
N3_6 N 0.5858(5) 0.7925(3) 0.90837(9)
C1_13 C 0.4569(4) 0.3579(4) 0.47898(13)
C2_12 C 0.4378(4) 0.2810(3) 0.46382(12)
C3_12 C 0.4075(4) 0.2652(4) 0.43310(13)
H1_12 H 0.3982 0.3005 0.4231
C4_12 C 0.3916(4) 0.1949(4) 0.41785(15)
C5_12 C 0.4069(4) 0.1434(4) 0.43328(13)
H2_12 H 0.3971 0.0983 0.4236
C6_12 C 0.4372(4) 0.1576(3) 0.46364(12)
C7_12 C 0.4529(4) 0.2265(3) 0.47865(11)
H3_12 H 0.4730 0.2362 0.4983
C8_13 C 0.4567(4) 0.0992(3) 0.47920(13)
C9_12 C 0.3548(4) 0.1780(4) 0.38422(11)
C10_12 C 0.3777(5) 0.2382(3) 0.36372(17)
H4_12 H 0.4109 0.2884 0.3699
C11_12 C 0.3509(5) 0.2233(4) 0.33395(15)
H5_13 H 0.3662 0.2636 0.3203
C12_13 C 0.3012(5) 0.1483(5) 0.32470(11)
C13_12 C 0.2783(5) 0.0881(4) 0.34520(17)
H6_12 H 0.2451 0.0378 0.3390
C14_12 C 0.3051(5) 0.1029(4) 0.37497(15)
H7_12 H 0.2899 0.0627 0.3887
C15_13 C 0.2983(4) 0.1491(4) 0.26653(13)
H8_13 H 0.3517 0.1761 0.2653
C16_13 C 0.1781(5) 0.0915(7) 0.25434(19)
C17_13 C 0.1844(6) 0.0895(7) 0.2856(2)
H9_13 H 0.1437 0.0649 0.2991
N1_13 N 0.2606(5) 0.1298(4) 0.29316(13)
N2_10 N 0.2524(3) 0.1259(3) 0.24171(9)
O1_13 O 0.4843(3) 0.3690(3) 0.50635(9)
O3_9 O 0.4832(3) 0.1150(2) 0.50661(9)
C18_13 C 0.1095(3) 0.0587(2) 0.23581(9)
H10_13 H 0.0653 0.0292 0.2484
H11_13 H 0.1052 0.0992 0.2261
H12_13 H 0.1124 0.0260 0.2206
O6_5 O 0.6317(4) 0.5168(3) 0.50661(9)
C1_14 C 0.6421(4) 0.0991(6) 0.47898(13)
C2_13 C 0.7190(3) 0.1569(5) 0.46382(12)
C3_13 C 0.7348(4) 0.1424(6) 0.43310(13)
H1_13 H 0.6995 0.0978 0.4231
C4_13 C 0.8051(4) 0.1968(6) 0.41785(15)
C5_13 C 0.8566(4) 0.2636(6) 0.43328(13)
H2_13 H 0.9017 0.2989 0.4236
C6_13 C 0.8424(3) 0.2797(5) 0.46364(12)
C7_13 C 0.7735(3) 0.2265(5) 0.47865(11)
H3_13 H 0.7638 0.2369 0.4983
C8_14 C 0.9008(3) 0.3576(5) 0.47920(13)
C9_13 C 0.8220(4) 0.1769(6) 0.38422(11)
C10_13 C 0.7618(3) 0.1396(6) 0.36372(17)
H4_13 H 0.7116 0.1226 0.3699
C11_13 C 0.7767(4) 0.1277(6) 0.33395(15)
H5_14 H 0.7364 0.1027 0.3203
C12_14 C 0.8517(5) 0.1530(7) 0.32470(11)
C13_13 C 0.9119(4) 0.1903(6) 0.34520(17)
H6_13 H 0.9622 0.2074 0.3390
C14_13 C 0.8971(4) 0.2023(6) 0.37497(15)
H7_13 H 0.9373 0.2273 0.3887
C15_14 C 0.8509(4) 0.1493(6) 0.26653(13)
H8_14 H 0.8239 0.1757 0.2653
C16_14 C 0.9085(7) 0.0867(9) 0.25434(19)
C17_14 C 0.9105(7) 0.0950(9) 0.2856(2)
H9_14 H 0.9351 0.0789 0.2991
N1_14 N 0.8702(4) 0.1309(6) 0.29316(13)
N2_11 N 0.8741(3) 0.1266(4) 0.24171(9)
O1_14 O 0.6310(3) 0.1154(4) 0.50635(9)
O3_10 O 0.8850(2) 0.3683(4) 0.50661(9)
C18_14 C 0.9413(2) 0.0509(4) 0.23581(9)
H10_14 H 0.9708 0.0362 0.2484
H11_14 H 0.9008 0.0061 0.2261
H12_14 H 0.9740 0.0865 0.2206
C1_15 C 0.9009(6) 0.5431(4) 0.47898(13)
C2_14 C 0.8431(5) 0.5622(4) 0.46382(12)
C3_14 C 0.8576(6) 0.5925(4) 0.43310(13)
H1_14 H 0.9022 0.6018 0.4231
C4_14 C 0.8032(6) 0.6084(4) 0.41785(15)
C5_14 C 0.7364(6) 0.5931(4) 0.43328(13)
H2_14 H 0.7011 0.6029 0.4236
C6_14 C 0.7203(5) 0.5628(4) 0.46364(12)
C7_14 C 0.7735(5) 0.5471(4) 0.47865(11)
H3_14 H 0.7631 0.5270 0.4983
C8_15 C 0.6424(5) 0.5433(4) 0.47920(13)
C9_14 C 0.8231(6) 0.6452(4) 0.38422(11)
C10_14 C 0.8604(6) 0.6223(5) 0.36372(17)
H4_14 H 0.8774 0.5891 0.3699
C11_14 C 0.8723(6) 0.6491(5) 0.33395(15)
H5_15 H 0.8973 0.6338 0.3203
C12_15 C 0.8470(7) 0.6988(5) 0.32470(11)
C13_14 C 0.8097(6) 0.7217(5) 0.34520(17)
H6_14 H 0.7926 0.7549 0.3390
C14_14 C 0.7977(6) 0.6949(5) 0.37497(15)
H7_14 H 0.7727 0.7101 0.3887
C15_15 C 0.8507(6) 0.7017(4) 0.26653(13)
H8_15 H 0.8243 0.6483 0.2653
C16_15 C 0.9133(9) 0.8219(5) 0.25434(19)
C17_15 C 0.9050(9) 0.8156(6) 0.2856(2)
H9_15 H 0.9211 0.8563 0.2991
N1_15 N 0.8691(6) 0.7394(5) 0.29316(13)
N2_12 N 0.8734(4) 0.7476(3) 0.24171(9)
O1_15 O 0.8846(4) 0.5157(3) 0.50635(9)
C18_15 C 0.9491(4) 0.8905(3) 0.23581(9)
H10_15 H 0.9638 0.9347 0.2484
H11_15 H 0.9939 0.8948 0.2261
H12_15 H 0.9135 0.8876 0.2206
C1_16 C 0.7903(4) 0.0245(4) 0.14564(13)
O1_16 O 0.8177(3) 0.0356(3) 0.17301(9)
O6_6 O 0.9651(4) 0.1834(3) 0.17327(9)
C2_15 C 0.7712(4) 0.9476(3) 0.13048(12)
C3_15 C 0.7409(4) 0.9318(4) 0.09976(13)
H1_15 H 0.7316 0.9671 0.0897
C4_15 C 0.7250(4) 0.8615(4) 0.08451(15)
C5_15 C 0.7403(4) 0.8100(4) 0.09994(13)
H2_15 H 0.7305 0.7649 0.0902
C6_15 C 0.7706(4) 0.8242(3) 0.13030(12)
C7_15 C 0.7863(4) 0.8931(3) 0.14531(11)
H3_15 H 0.8064 0.9028 0.1649
C8_16 C 0.7901(4) 0.7658(3) 0.14586(13)
C9_15 C 0.6882(4) 0.8446(4) 0.05088(11)
C10_15 C 0.7111(5) 0.9048(3) 0.03038(17)
H4_15 H 0.7443 0.9550 0.0365
C11_15 C 0.6843(5) 0.8899(4) 0.00061(15)
C13_15 C 0.6117(5) 0.7547(4) 0.01186(17)
H6_15 H 0.5785 0.7044 0.0056
C14_15 C 0.6385(5) 0.7695(4) 0.04163(15)
H7_15 H 0.6233 0.7293 0.0553
O3_11 O 0.8166(3) 0.7816(2) 0.17327(9)
H5_16 H 0.6996 0.9302 0.9869
C12_16 C 0.6346(5) 0.8149(5) 0.99136(11)
C15_16 C 0.6317(4) 0.8157(4) 0.93319(13)
H8_16 H 0.6851 0.8427 0.9319
C16_16 C 0.5115(5) 0.7581(7) 0.92100(19)
C17_16 C 0.5178(6) 0.7561(7) 0.9522(2)
H9_16 H 0.4771 0.7315 0.9657
N1_16 N 0.5940(5) 0.7964(4) 0.95982(13)
C18_16 C 0.4429(3) 0.7253(2) 0.90247(9)
H10_16 H 0.3987 0.6958 0.9150
H11_16 H 0.4386 0.7658 0.8927
H12_16 H 0.4458 0.6926 0.8872
C8_17 C 0.2342(3) 0.0242(5) 0.14586(13)
O3_12 O 0.2184(2) 0.0349(4) 0.17327(9)
H5_17 H 0.0698 0.7693 0.9869
C12_17 C 0.1851(5) 0.8196(7) 0.99136(11)
C15_17 C 0.1843(4) 0.8159(6) 0.93319(13)
H8_17 H 0.1573 0.8423 0.9319
C16_17 C 0.2419(7) 0.7533(9) 0.92100(19)
C17_17 C 0.2439(7) 0.7616(9) 0.9522(2)
H9_17 H 0.2685 0.7455 0.9657
N1_17 N 0.2036(4) 0.7975(6) 0.95982(13)
C18_17 C 0.2747(2) 0.7175(4) 0.90247(9)
H10_17 H 0.3042 0.7028 0.9150
H11_17 H 0.2342 0.6727 0.8927
H12_17 H 0.3074 0.7531 0.8872
C1_17 C 0.9755(4) 0.7657(6) 0.14564(13)
O1_17 O 0.9644(3) 0.7820(4) 0.17301(9)
C1_18 C 0.2343(6) 0.2097(4) 0.14564(13)
C2_16 C 0.1765(5) 0.2288(4) 0.13048(12)
C3_16 C 0.1910(6) 0.2591(4) 0.09976(13)
H1_16 H 0.2356 0.2684 0.0897
C4_16 C 0.1366(6) 0.2750(4) 0.08451(15)
C5_16 C 0.0698(6) 0.2597(4) 0.09994(13)
H2_16 H 0.0345 0.2695 0.0902
C6_16 C 0.0537(5) 0.2294(4) 0.13030(12)
C7_16 C 0.1069(5) 0.2137(4) 0.14531(11)
H3_16 H 0.0965 0.1936 0.1649
C9_16 C 0.1565(6) 0.3118(4) 0.05088(11)
C10_16 C 0.1938(6) 0.2889(5) 0.03038(17)
H4_16 H 0.2108 0.2557 0.0365
C11_16 C 0.2057(6) 0.3157(5) 0.00061(15)
C13_16 C 0.1431(6) 0.3883(5) 0.01186(17)
H6_16 H 0.1260 0.4215 0.0056
C14_16 C 0.1311(6) 0.3615(5) 0.04163(15)
H7_16 H 0.1061 0.3767 0.0553
O1_18 O 0.2180(4) 0.1823(3) 0.17301(9)
H5_18 H 0.2307 0.3004 0.9869
C12_18 C 0.1804(7) 0.3654(5) 0.99136(11)
C15_18 C 0.1841(6) 0.3683(4) 0.93319(13)
H8_18 H 0.1577 0.3149 0.9319
C16_18 C 0.2467(9) 0.4885(5) 0.92100(19)
C17_18 C 0.2384(9) 0.4822(6) 0.9522(2)
H9_18 H 0.2545 0.5229 0.9657
N1_18 N 0.2025(6) 0.4060(5) 0.95982(13)
C18_18 C 0.2825(4) 0.5571(3) 0.90247(9)
H10_18 H 0.2972 0.6013 0.9150
H11_18 H 0.3273 0.5614 0.8927
H12_18 H 0.2469 0.5542 0.8872
C8_18 C 0.9758(5) 0.2099(4) 0.14586(13)
C2_17 C 0.9476(3) 0.1765(5) 0.86952(12)
C3_17 C 0.9318(4) 0.1910(6) 0.90024(13)
H1_17 H 0.9671 0.2356 0.9103
C4_17 C 0.8615(4) 0.1366(6) 0.91549(15)
C5_17 C 0.8100(4) 0.0698(6) 0.90006(13)
H2_17 H 0.7649 0.0345 0.9098
C6_17 C 0.8242(3) 0.0537(5) 0.86970(12)
C7_17 C 0.8931(3) 0.1069(5) 0.85469(11)
H3_17 H 0.9028 0.0965 0.8351
C9_17 C 0.8446(4) 0.1565(6) 0.94912(11)
C10_17 C 0.9048(3) 0.1938(6) 0.96962(17)
H4_17 H 0.9550 0.2108 0.9635
C11_17 C 0.8899(4) 0.2057(6) 0.99939(15)
C13_17 C 0.7547(4) 0.1431(6) 0.98814(17)
H6_17 H 0.7044 0.1260 0.9944
C14_17 C 0.7695(4) 0.1311(6) 0.95837(15)
H7_17 H 0.7293 0.1061 0.9447
C2_18 C 0.0524(3) 0.8235(5) 0.13048(12)
C3_18 C 0.0682(4) 0.8090(6) 0.09976(13)
H1_18 H 0.0329 0.7644 0.0897
C4_18 C 0.1385(4) 0.8634(6) 0.08451(15)
C5_18 C 0.1900(4) 0.9302(6) 0.09994(13)
H2_18 H 0.2351 0.9655 0.0902
C6_18 C 0.1758(3) 0.9463(5) 0.13030(12)
C7_18 C 0.1069(3) 0.8931(5) 0.14531(11)
H3_18 H 0.0972 0.9035 0.1649
C9_18 C 0.1554(4) 0.8435(6) 0.05088(11)
C10_18 C 0.0952(3) 0.8062(6) 0.03038(17)
H4_18 H 0.0450 0.7892 0.0365
C11_18 C 0.1101(4) 0.7943(6) 0.00061(15)
C13_18 C 0.2453(4) 0.8569(6) 0.01186(17)
H6_18 H 0.2956 0.8740 0.0056
C14_18 C 0.2305(4) 0.8689(6) 0.04163(15)
H7_18 H 0.2707 0.8939 0.0553
loop_
_geom_bond_atom_site_label_1
_geom_bond_atom_site_label_2
_geom_bond_site_symmetry_1
_geom_bond_site_symmetry_2
C13 C12 1_555 1_555
H6 C13 1_555 1_555
H7 C14 1_555 1_555
C16 C17 1_555 1_555
C17 H9 1_555 1_555
N1 C12 1_555 1_555
N2 C15 1_555 1_555
C18 C16 1_555 1_555
H10 C18 1_555 1_555
H11 C18 1_555 1_555
H12 C18 1_555 1_555
Fe3 N2 1_555 1_555
C13 C14 1_555 1_555
C15 N1 1_555 1_555
C16 N2 1_555 1_555
C17 N1 1_555 1_555
C1 C2 1_555 1_555
C2 C3 1_555 1_555
C3 H1 1_555 1_555
C4 C3 1_555 1_555
C5 C4 1_555 1_555
H2 C5 1_555 1_555
C6 C5 1_555 1_555
C7 C2 1_555 1_555
H3 C7 1_555 1_555
C8 C6 1_555 1_555
C9 C4 1_555 1_555
C10 C9 1_555 1_555
H4 C10 1_555 1_555
C11 C10 1_555 1_555
H5 C11 1_555 1_555
Fe1 O1 1_555 1_555
O1 C1 1_555 1_555
O2 C1 1_555 1_555
O3 C8 1_555 1_555
O4 C8 1_555 1_555
Fe2 O3 1_555 1_555
Fe4 Fe1 1_555 1_555
Fe5 O4 1_555 1_555
N3 Fe1 1_555 1_555
O5 Fe1 1_555 1_555
O6 Fe1 1_555 1_555
O7 Fe1 1_555 1_555
C6 C7 1_555 1_555
O2 Fe4 1_555 1_555
Fe2 Fe5 1_555 1_555
C1_2 C2_2 1_555 1_555
C2_2 C3_2 1_555 1_555
C3_2 H1_2 1_555 1_555
C4_2 C3_2 1_555 1_555
C5_2 C4_2 1_555 1_555
H2_2 C5_2 1_555 1_555
C6_2 C5_2 1_555 1_555
C7_2 C2_2 1_555 1_555
H3_2 C7_2 1_555 1_555
C8_2 C6_2 1_555 1_555
C9_2 C4_2 1_555 1_555
C10_2 C9_2 1_555 1_555
H4_2 C10_2 1_555 1_555
C11_2 C10_2 1_555 1_555
H5_2 C11_2 1_555 1_555
C12_2 C11_2 1_555 1_555
C13_2 C12_2 1_555 1_555
H6_2 C13_2 1_555 1_555
C14_2 C9_2 1_555 1_555
H7_2 C14_2 1_555 1_555
C15_2 H8_2 1_555 1_555
C16_2 C17_2 1_555 1_555
C17_2 H9_2 1_555 1_555
Fe2 O1_2 1_555 1_555
N1_2 C12_2 1_555 1_555
N2_2 C15_2 1_555 1_555
O1_2 C1_2 1_555 1_555
O2_2 C1_2 1_555 1_555
O3_2 C8_2 1_555 1_555
O4_2 C8_2 1_555 1_555
C18_2 C16_2 1_555 1_555
H10_2 C18_2 1_555 1_555
H11_2 C18_2 1_555 1_555
H12_2 C18_2 1_555 1_555
Fe2_2 O3_2 1_555 1_555
Fe3_2 N2_2 1_555 1_555
Fe5_2 O4_2 1_555 1_555
N3_2 Fe2 1_555 1_555
O5_2 Fe2 1_555 1_555
O7_2 Fe2 1_555 1_555
C6_2 C7_2 1_555 1_555
C13_2 C14_2 1_555 1_555
C15_2 N1_2 1_555 1_555
C16_2 N2_2 1_555 1_555
C17_2 N1_2 1_555 1_555
O2_2 Fe5 1_555 1_555
Fe2_2 Fe5_2 1_555 1_555
C1_3 C2_3 1_555 1_555
C2_3 C3_3 1_555 1_555
C3_3 H1_3 1_555 1_555
C4_3 C3_3 1_555 1_555
C5_3 C4_3 1_555 1_555
H2_3 C5_3 1_555 1_555
C6_3 C5_3 1_555 1_555
C7_3 C2_3 1_555 1_555
H3_3 C7_3 1_555 1_555
C8_3 C6_3 1_555 1_555
C9_3 C4_3 1_555 1_555
C10_3 C9_3 1_555 1_555
H4_3 C10_3 1_555 1_555
C11_3 C10_3 1_555 1_555
H5_3 C11_3 1_555 1_555
Fe2_2 O1_3 1_555 1_555
O1_3 C1_3 1_555 1_555
O2_3 C1_3 1_555 1_555
O6 C8_3 1_555 1_555
O4_3 C8_3 1_555 1_555
Fe4 O4_3 1_555 1_555
N3_3 Fe2_2 1_555 1_555
O5_3 Fe2_2 1_555 1_555
O7_3 Fe2_2 1_555 1_555
C6_3 C7_3 1_555 1_555
O2_3 Fe5_2 1_555 1_555
C13_3 C12_3 1_555 1_555
H6_3 C13_3 1_555 1_555
H7_3 C14_3 1_555 1_555
C16_3 C17_3 1_555 1_555
C17_3 H9_3 1_555 1_555
N1_3 C12_3 1_555 1_555
N2_3 C15_3 1_555 1_555
C18_3 C16_3 1_555 1_555
H10_3 C18_3 1_555 1_555
H11_3 C18_3 1_555 1_555
H12_3 C18_3 1_555 1_555
Fe3_3 N2_3 1_555 1_555
C13_3 C14_3 1_555 1_555
C15_3 N1_3 1_555 1_555
C16_3 N2_3 1_555 1_555
C17_3 N1_3 1_555 1_555
C1_4 C2_4 1_555 1_555
C2_4 C3_4 1_555 1_555
C3_4 H1_4 1_555 1_555
C4_4 C3_4 1_555 1_555
C5_4 C4_4 1_555 1_555
H2_4 C5_4 1_555 1_555
C6_4 C5_4 1_555 1_555
C7_4 C2_4 1_555 1_555
H3_4 C7_4 1_555 1_555
C8_4 C6_4 1_555 1_555
C9_4 C4_4 1_555 1_555
C10_4 C9_4 1_555 1_555
H4_4 C10_4 1_555 1_555
C11_4 C10_4 1_555 1_555
H5_4 C11_4 1_555 1_555
C12_4 C11_4 1_555 1_555
C13_4 C12_4 1_555 1_555
H6_4 C13_4 1_555 1_555
C14_4 C9_4 1_555 1_555
H7_4 C14_4 1_555 1_555
C15_4 H8_4 1_555 1_555
C16_4 C17_4 1_555 1_555
C17_4 H9_4 1_555 1_555
Fe3_2 O1_4 1_555 1_555
N1_4 C12_4 1_555 1_555
N2_4 C15_4 1_555 1_555
O1_4 C1_4 1_555 1_555
O2_4 C1_4 1_555 1_555
O3_3 C8_4 1_555 1_555
O4_4 C8_4 1_555 1_555
C18_4 C16_4 1_555 1_555
H10_4 C18_4 1_555 1_555
H11_4 C18_4 1_555 1_555
H12_4 C18_4 1_555 1_555
Fe3_3 O3_3 1_555 1_555
Fe3_4 N2_4 1_555 1_555
Fe4_2 Fe3_2 1_555 1_555
O5_4 Fe3_2 1_555 1_555
O6_2 Fe3_2 1_555 1_555
O7_4 Fe3_2 1_555 1_555
C6_4 C7_4 1_555 1_555
C13_4 C14_4 1_555 1_555
C15_4 N1_4 1_555 1_555
C16_4 N2_4 1_555 1_555
C17_4 N1_4 1_555 1_555
O2_4 Fe4_2 1_555 1_555
C1_5 C2_5 1_555 1_555
C2_5 C3_5 1_555 1_555
C3_5 H1_5 1_555 1_555
C4_5 C3_5 1_555 1_555
C5_5 C4_5 1_555 1_555
H2_5 C5_5 1_555 1_555
C6_5 C5_5 1_555 1_555
C7_5 C2_5 1_555 1_555
H3_5 C7_5 1_555 1_555
C8_5 C6_5 1_555 1_555
C9_5 C4_5 1_555 1_555
C10_5 C9_5 1_555 1_555
H4_5 C10_5 1_555 1_555
C11_5 C10_5 1_555 1_555
H5_5 C11_5 1_555 1_555
C12_5 C11_5 1_555 1_555
C13_5 C12_5 1_555 1_555
H6_5 C13_5 1_555 1_555
C14_5 C9_5 1_555 1_555
H7_5 C14_5 1_555 1_555
C15_5 H8_5 1_555 1_555
C16_5 C17_5 1_555 1_555
C17_5 H9_5 1_555 1_555
Fe3_3 O1_5 1_555 1_555
N1_5 C12_5 1_555 1_555
N2_5 C15_5 1_555 1_555
O1_5 C1_5 1_555 1_555
O2_5 C1_5 1_555 1_555
O3_4 C8_5 1_555 1_555
O4_5 C8_5 1_555 1_555
C18_5 C16_5 1_555 1_555
H10_5 C18_5 1_555 1_555
H11_5 C18_5 1_555 1_555
H12_5 C18_5 1_555 1_555
Fe3 O3_4 1_555 1_555
Fe3_5 N2_5 1_555 1_555
C6_5 C7_5 1_555 1_555
C13_5 C14_5 1_555 1_555
C15_5 N1_5 1_555 1_555
C16_5 N2_5 1_555 1_555
C17_5 N1_5 1_555 1_555
C1_6 C2_6 1_555 1_555
C2_6 C3_6 1_555 1_555
C3_6 H1_6 1_555 1_555
C4_6 C3_6 1_555 1_555
C5_6 C4_6 1_555 1_555
H2_6 C5_6 1_555 1_555
C6_6 C5_6 1_555 1_555
C7_6 C2_6 1_555 1_555
H3_6 C7_6 1_555 1_555
C8_6 C6_6 1_555 1_555
C9_6 C4_6 1_555 1_555
C10_6 C9_6 1_555 1_555
H4_6 C10_6 1_555 1_555
C11_6 C10_6 1_555 1_555
H5_6 C11_6 1_555 1_555
C12_6 C11_6 1_555 1_555
C13_6 C12_6 1_555 1_555
H6_6 C13_6 1_555 1_555
C14_6 C9_6 1_555 1_555
H7_6 C14_6 1_555 1_555
C15_6 H8_6 1_555 1_555
C16_6 C17_6 1_555 1_555
C17_6 H9_6 1_555 1_555
Fe3 O1_6 1_555 1_555
N1_6 C12_6 1_555 1_555
N2_6 C15_6 1_555 1_555
O1_6 C1_6 1_555 1_555
O2_6 C1_6 1_555 1_555
O6_2 C8_6 1_555 1_555
O4_6 C8_6 1_555 1_555
C18_6 C16_6 1_555 1_555
H10_6 C18_6 1_555 1_555
H11_6 C18_6 1_555 1_555
H12_6 C18_6 1_555 1_555
Fe3_6 N2_6 1_555 1_555
Fe4_2 O4_6 1_555 1_555
C6_6 C7_6 1_555 1_555
C13_6 C14_6 1_555 1_555
C15_6 N1_6 1_555 1_555
C16_6 N2_6 1_555 1_555
C17_6 N1_6 1_555 1_555
C15_7 H8_7 1_555 1_555
C16_7 C17_7 1_555 1_555
C17_7 H9_7 1_555 1_555
N1_7 C12_7 1_555 1_555
N3_3 C15_7 1_555 1_555
C18_7 C16_7 1_555 1_555
H10_7 C18_7 1_555 1_555
H11_7 C18_7 1_555 1_555
H12_7 C18_7 1_555 1_555
C15_7 N1_7 1_555 1_555
C16_7 N3_3 1_555 1_555
C17_7 N1_7 1_555 1_555
C2_7 C3_7 1_555 1_555
C3_7 H1_7 1_555 1_555
C4_7 C3_7 1_555 1_555
C5_7 C4_7 1_555 1_555
H2_7 C5_7 1_555 1_555
C6_7 C5_7 1_555 1_555
C7_7 C2_7 1_555 1_555
H3_7 C7_7 1_555 1_555
C8_7 C6_7 1_555 1_555
C9_7 C4_7 1_555 1_555
C10_7 C9_7 1_555 1_555
H4_7 C10_7 1_555 1_555
C11_7 C10_7 1_555 1_555
H6_7 C13_7 1_555 1_555
C14_7 C9_7 1_555 1_555
H7_7 C14_7 1_555 1_555
O3_5 C8_7 1_555 1_555
O4_7 C8_7 1_555 1_555
Fe3_6 O3_5 1_555 1_555
Fe5_5 O4_7 1_555 1_555
C6_7 C7_7 1_555 1_555
C13_7 C14_7 1_555 1_555
Fe3_6 Fe5_5 1_555 1_555
Fe3_5 O1_7 1_555 1_555
O1_7 C1_7 1_555 1_555
O2_7 C1_7 1_555 1_555
Fe4_3 Fe3_5 1_555 1_555
O5_7 Fe3_5 1_555 1_555
O6_3 Fe3_5 1_555 1_555
O7_7 Fe3_5 1_555 1_555
O2_7 Fe4_3 1_555 1_555
Fe3_6 O1_8 1_555 1_555
O1_8 C1_8 1_555 1_555
O2_8 C1_8 1_555 1_555
O5_8 Fe3_6 1_555 1_555
O7_8 Fe3_6 1_555 1_555
O2_8 Fe5_5 1_555 1_555
C15_8 H8_8 1_555 1_555
C16_8 C17_8 1_555 1_555
C17_8 H9_8 1_555 1_555
N1_8 C12_8 1_555 1_555
N3 C15_8 1_555 1_555
C18_8 C16_8 1_555 1_555
H10_8 C18_8 1_555 1_555
H11_8 C18_8 1_555 1_555
H12_8 C18_8 1_555 1_555
C15_8 N1_8 1_555 1_555
C16_8 N3 1_555 1_555
C17_8 N1_8 1_555 1_555
O3_6 C8_8 1_555 1_555
O4_8 C8_8 1_555 1_555
Fe3_4 O3_6 1_555 1_555
Fe5_6 O4_8 1_555 1_555
Fe3_4 Fe5_6 1_555 1_555
O6_3 C8_9 1_555 1_555
O4_9 C8_9 1_555 1_555
Fe4_3 O4_9 1_555 1_555
C15_9 H8_9 1_555 1_555
C16_9 C17_9 1_555 1_555
C17_9 H9_9 1_555 1_555
N1_9 C12_9 1_555 1_555
N3_2 C15_9 1_555 1_555
C18_9 C16_9 1_555 1_555
H10_9 C18_9 1_555 1_555
H11_9 C18_9 1_555 1_555
H12_9 C18_9 1_555 1_555
C15_9 N1_9 1_555 1_555
C16_9 N3_2 1_555 1_555
C17_9 N1_9 1_555 1_555
C1_9 C2_8 1_555 1_555
C2_8 C3_8 1_555 1_555
C3_8 H1_8 1_555 1_555
C4_8 C3_8 1_555 1_555
C5_8 C4_8 1_555 1_555
H2_8 C5_8 1_555 1_555
C6_8 C5_8 1_555 1_555
C7_8 C2_8 1_555 1_555
H3_8 C7_8 1_555 1_555
C9_8 C4_8 1_555 1_555
C10_8 C9_8 1_555 1_555
H4_8 C10_8 1_555 1_555
C11_8 C10_8 1_555 1_555
H6_8 C13_8 1_555 1_555
C14_8 C9_8 1_555 1_555
H7_8 C14_8 1_555 1_555
Fe3_4 O1_9 1_555 1_555
O1_9 C1_9 1_555 1_555
O2_9 C1_9 1_555 1_555
O5_9 Fe3_4 1_555 1_555
O7_9 Fe3_4 1_555 1_555
C6_8 C7_8 1_555 1_555
C13_8 C14_8 1_555 1_555
O2_9 Fe5_6 1_555 1_555
C1_10 C2_9 1_555 1_555
C2_9 C3_9 1_555 1_555
C3_9 H1_9 1_555 1_555
C4_9 C3_9 1_555 1_555
C5_9 C4_9 1_555 1_555
H2_9 C5_9 1_555 1_555
C6_9 C5_9 1_555 1_555
C7_9 C2_9 1_555 1_555
H3_9 C7_9 1_555 1_555
C8_10 C6_9 1_555 1_555
C9_9 C4_9 1_555 1_555
C10_9 C9_9 1_555 1_555
H4_9 C10_9 1_555 1_555
C11_9 C10_9 1_555 1_555
H5_10 C11_9 1_555 1_555
Fe4_3 O1_10 1_555 1_555
O1_10 C1_10 1_555 1_555
O5_7 C1_10 1_555 1_555
O3_7 C8_10 1_555 1_555
O7_8 C8_10 1_555 1_555
Fe5_5 O3_7 1_555 1_555
N3_4 Fe4_3 1_555 1_555
O6_4 Fe4_3 1_555 1_555
C6_9 C7_9 1_555 1_555
C13_9 C12_10 1_555 1_555
H6_9 C13_9 1_555 1_555
H7_9 C14_9 1_555 1_555
C16_10 C17_10 1_555 1_555
C17_10 H9_10 1_555 1_555
N1_10 C12_10 1_555 1_555
N2_7 C15_10 1_555 1_555
C18_10 C16_10 1_555 1_555
H10_10 C18_10 1_555 1_555
H11_10 C18_10 1_555 1_555
H12_10 C18_10 1_555 1_555
Fe5_4 N2_7 1_555 1_555
C13_9 C14_9 1_555 1_555
C15_10 N1_10 1_555 1_555
C16_10 N2_7 1_555 1_555
C17_10 N1_10 1_555 1_555
C1_11 C2_10 1_555 1_555
C2_10 C3_10 1_555 1_555
C3_10 H1_10 1_555 1_555
C4_10 C3_10 1_555 1_555
C5_10 C4_10 1_555 1_555
H2_10 C5_10 1_555 1_555
C6_10 C5_10 1_555 1_555
C7_10 C2_10 1_555 1_555
H3_10 C7_10 1_555 1_555
C8_11 C6_10 1_555 1_555
C9_10 C4_10 1_555 1_555
C10_10 C9_10 1_555 1_555
H4_10 C10_10 1_555 1_555
C11_10 C10_10 1_555 1_555
H5_11 C11_10 1_555 1_555
C12_11 C11_10 1_555 1_555
C13_10 C12_11 1_555 1_555
H6_10 C13_10 1_555 1_555
C14_10 C9_10 1_555 1_555
H7_10 C14_10 1_555 1_555
C15_11 H8_11 1_555 1_555
C16_11 C17_11 1_555 1_555
C17_11 H9_11 1_555 1_555
Fe5_5 O1_11 1_555 1_555
N1_11 C12_11 1_555 1_555
N2_8 C15_11 1_555 1_555
O1_11 C1_11 1_555 1_555
O5_8 C1_11 1_555 1_555
O3_8 C8_11 1_555 1_555
O7_9 C8_11 1_555 1_555
C18_11 C16_11 1_555 1_555
H10_11 C18_11 1_555 1_555
H11_11 C18_11 1_555 1_555
H12_11 C18_11 1_555 1_555
Fe5_6 O3_8 1_555 1_555
Fe4_2 N2_8 1_555 1_555
N3_5 Fe5_5 1_555 1_555
C6_10 C7_10 1_555 1_555
C13_10 C14_10 1_555 1_555
C15_11 N1_11 1_555 1_555
C16_11 N2_8 1_555 1_555
C17_11 N1_11 1_555 1_555
C13_11 C12_12 1_555 1_555
H6_11 C13_11 1_555 1_555
H7_11 C14_11 1_555 1_555
C16_12 C17_12 1_555 1_555
C17_12 H9_12 1_555 1_555
N1_12 C12_12 1_555 1_555
N2_9 C15_12 1_555 1_555
C18_12 C16_12 1_555 1_555
H10_12 C18_12 1_555 1_555
H11_12 C18_12 1_555 1_555
H12_12 C18_12 1_555 1_555
Fe5_3 N2_9 1_555 1_555
C13_11 C14_11 1_555 1_555
C15_12 N1_12 1_555 1_555
C16_12 N2_9 1_555 1_555
C17_12 N1_12 1_555 1_555
C1_12 C2_11 1_555 1_555
C2_11 C3_11 1_555 1_555
C3_11 H1_11 1_555 1_555
C4_11 C3_11 1_555 1_555
C5_11 C4_11 1_555 1_555
H2_11 C5_11 1_555 1_555
C6_11 C5_11 1_555 1_555
C7_11 C2_11 1_555 1_555
H3_11 C7_11 1_555 1_555
C8_12 C6_11 1_555 1_555
C9_11 C4_11 1_555 1_555
C10_11 C9_11 1_555 1_555
H4_11 C10_11 1_555 1_555
C11_11 C10_11 1_555 1_555
H5_12 C11_11 1_555 1_555
Fe5_6 O1_12 1_555 1_555
O1_12 C1_12 1_555 1_555
O5_9 C1_12 1_555 1_555
O6_4 C8_12 1_555 1_555
O7_7 C8_12 1_555 1_555
N3_6 Fe5_6 1_555 1_555
C6_11 C7_11 1_555 1_555
C1_13 C2_12 1_555 1_555
C2_12 C3_12 1_555 1_555
C3_12 H1_12 1_555 1_555
C4_12 C3_12 1_555 1_555
C5_12 C4_12 1_555 1_555
H2_12 C5_12 1_555 1_555
C6_12 C5_12 1_555 1_555
C7_12 C2_12 1_555 1_555
H3_12 C7_12 1_555 1_555
C8_13 C6_12 1_555 1_555
C9_12 C4_12 1_555 1_555
C10_12 C9_12 1_555 1_555
H4_12 C10_12 1_555 1_555
C11_12 C10_12 1_555 1_555
H5_13 C11_12 1_555 1_555
C12_13 C11_12 1_555 1_555
C13_12 C12_13 1_555 1_555
H6_12 C13_12 1_555 1_555
C14_12 C9_12 1_555 1_555
H7_12 C14_12 1_555 1_555
C15_13 H8_13 1_555 1_555
C16_13 C17_13 1_555 1_555
C17_13 H9_13 1_555 1_555
Fe4_2 O1_13 1_555 1_555
N1_13 C12_13 1_555 1_555
N2_10 C15_13 1_555 1_555
O1_13 C1_13 1_555 1_555
O5_4 C1_13 1_555 1_555
O3_9 C8_13 1_555 1_555
O7_5 C8_13 1_555 1_555
C18_13 C16_13 1_555 1_555
H10_13 C18_13 1_555 1_555
H11_13 C18_13 1_555 1_555
H12_13 C18_13 1_555 1_555
Fe5_3 O3_9 1_555 1_555
Fe5_2 N2_10 1_555 1_555
O6_5 Fe4_2 1_555 1_555
C6_12 C7_12 1_555 1_555
C13_12 C14_12 1_555 1_555
C15_13 N1_13 1_555 1_555
C16_13 N2_10 1_555 1_555
C17_13 N1_13 1_555 1_555
C1_14 C2_13 1_555 1_555
C2_13 C3_13 1_555 1_555
C3_13 H1_13 1_555 1_555
C4_13 C3_13 1_555 1_555
C5_13 C4_13 1_555 1_555
H2_13 C5_13 1_555 1_555
C6_13 C5_13 1_555 1_555
C7_13 C2_13 1_555 1_555
H3_13 C7_13 1_555 1_555
C8_14 C6_13 1_555 1_555
C9_13 C4_13 1_555 1_555
C10_13 C9_13 1_555 1_555
H4_13 C10_13 1_555 1_555
C11_13 C10_13 1_555 1_555
H5_14 C11_13 1_555 1_555
C12_14 C11_13 1_555 1_555
C13_13 C12_14 1_555 1_555
H6_13 C13_13 1_555 1_555
C14_13 C9_13 1_555 1_555
H7_13 C14_13 1_555 1_555
C15_14 H8_14 1_555 1_555
C16_14 C17_14 1_555 1_555
C17_14 H9_14 1_555 1_555
Fe5_3 O1_14 1_555 1_555
N1_14 C12_14 1_555 1_555
N2_11 C15_14 1_555 1_555
O1_14 C1_14 1_555 1_555
O5_5 C1_14 1_555 1_555
O3_10 C8_14 1_555 1_555
O7_6 C8_14 1_555 1_555
C18_14 C16_14 1_555 1_555
H10_14 C18_14 1_555 1_555
H11_14 C18_14 1_555 1_555
H12_14 C18_14 1_555 1_555
Fe5_4 O3_10 1_555 1_555
Fe4 N2_11 1_555 1_555
C6_13 C7_13 1_555 1_555
C13_13 C14_13 1_555 1_555
C15_14 N1_14 1_555 1_555
C16_14 N2_11 1_555 1_555
C17_14 N1_14 1_555 1_555
C1_15 C2_14 1_555 1_555
C2_14 C3_14 1_555 1_555
C3_14 H1_14 1_555 1_555
C4_14 C3_14 1_555 1_555
C5_14 C4_14 1_555 1_555
H2_14 C5_14 1_555 1_555
C6_14 C5_14 1_555 1_555
C7_14 C2_14 1_555 1_555
H3_14 C7_14 1_555 1_555
C8_15 C6_14 1_555 1_555
C9_14 C4_14 1_555 1_555
C10_14 C9_14 1_555 1_555
H4_14 C10_14 1_555 1_555
C11_14 C10_14 1_555 1_555
H5_15 C11_14 1_555 1_555
C12_15 C11_14 1_555 1_555
C13_14 C12_15 1_555 1_555
H6_14 C13_14 1_555 1_555
C14_14 C9_14 1_555 1_555
H7_14 C14_14 1_555 1_555
C15_15 H8_15 1_555 1_555
C16_15 C17_15 1_555 1_555
C17_15 H9_15 1_555 1_555
Fe5_4 O1_15 1_555 1_555
N1_15 C12_15 1_555 1_555
N2_12 C15_15 1_555 1_555
O1_15 C1_15 1_555 1_555
O5_6 C1_15 1_555 1_555
O6_5 C8_15 1_555 1_555
O7_4 C8_15 1_555 1_555
C18_15 C16_15 1_555 1_555
H10_15 C18_15 1_555 1_555
H11_15 C18_15 1_555 1_555
H12_15 C18_15 1_555 1_555
Fe5 N2_12 1_555 1_555
C6_14 C7_14 1_555 1_555
C13_14 C14_14 1_555 1_555
C15_15 N1_15 1_555 1_555
C16_15 N2_12 1_555 1_555
C17_15 N1_15 1_555 1_555
Fe4 O1_16 1_555 1_555
O1_16 C1_16 1_555 1_555
O5 C1_16 1_555 1_555
O6_6 Fe4 1_555 1_555
C2_15 C3_15 1_555 1_555
C3_15 H1_15 1_555 1_555
C4_15 C3_15 1_555 1_555
C5_15 C4_15 1_555 1_555
H2_15 C5_15 1_555 1_555
C6_15 C5_15 1_555 1_555
C7_15 C2_15 1_555 1_555
H3_15 C7_15 1_555 1_555
C8_16 C6_15 1_555 1_555
C9_15 C4_15 1_555 1_555
C10_15 C9_15 1_555 1_555
H4_15 C10_15 1_555 1_555
C11_15 C10_15 1_555 1_555
H6_15 C13_15 1_555 1_555
C14_15 C9_15 1_555 1_555
H7_15 C14_15 1_555 1_555
O3_11 C8_16 1_555 1_555
O7_2 C8_16 1_555 1_555
Fe5 O3_11 1_555 1_555
C6_15 C7_15 1_555 1_555
C13_15 C14_15 1_555 1_555
C15_16 H8_16 1_555 1_555
C16_16 C17_16 1_555 1_555
C17_16 H9_16 1_555 1_555
N1_16 C12_16 1_555 1_555
N3_6 C15_16 1_555 1_555
C18_16 C16_16 1_555 1_555
H10_16 C18_16 1_555 1_555
H11_16 C18_16 1_555 1_555
H12_16 C18_16 1_555 1_555
C15_16 N1_16 1_555 1_555
C16_16 N3_6 1_555 1_555
C17_16 N1_16 1_555 1_555
O3_12 C8_17 1_555 1_555
O7_3 C8_17 1_555 1_555
Fe5_2 O3_12 1_555 1_555
C15_17 H8_17 1_555 1_555
C16_17 C17_17 1_555 1_555
C17_17 H9_17 1_555 1_555
N1_17 C12_17 1_555 1_555
N3_4 C15_17 1_555 1_555
C18_17 C16_17 1_555 1_555
H10_17 C18_17 1_555 1_555
H11_17 C18_17 1_555 1_555
H12_17 C18_17 1_555 1_555
C15_17 N1_17 1_555 1_555
C16_17 N3_4 1_555 1_555
C17_17 N1_17 1_555 1_555
Fe5 O1_17 1_555 1_555
O1_17 C1_17 1_555 1_555
O5_2 C1_17 1_555 1_555
C1_18 C2_16 1_555 1_555
C2_16 C3_16 1_555 1_555
C3_16 H1_16 1_555 1_555
C4_16 C3_16 1_555 1_555
C5_16 C4_16 1_555 1_555
H2_16 C5_16 1_555 1_555
C6_16 C5_16 1_555 1_555
C7_16 C2_16 1_555 1_555
H3_16 C7_16 1_555 1_555
C9_16 C4_16 1_555 1_555
C10_16 C9_16 1_555 1_555
H4_16 C10_16 1_555 1_555
C11_16 C10_16 1_555 1_555
H6_16 C13_16 1_555 1_555
C14_16 C9_16 1_555 1_555
H7_16 C14_16 1_555 1_555
Fe5_2 O1_18 1_555 1_555
O1_18 C1_18 1_555 1_555
O5_3 C1_18 1_555 1_555
C6_16 C7_16 1_555 1_555
C13_16 C14_16 1_555 1_555
C15_18 H8_18 1_555 1_555
C16_18 C17_18 1_555 1_555
C17_18 H9_18 1_555 1_555
N1_18 C12_18 1_555 1_555
N3_5 C15_18 1_555 1_555
C18_18 C16_18 1_555 1_555
H10_18 C18_18 1_555 1_555
H11_18 C18_18 1_555 1_555
H12_18 C18_18 1_555 1_555
C15_18 N1_18 1_555 1_555
C16_18 N3_5 1_555 1_555
C17_18 N1_18 1_555 1_555
O6_6 C8_18 1_555 1_555
O7 C8_18 1_555 1_555
C2_17 C3_17 1_555 1_555
C3_17 H1_17 1_555 1_555
C4_17 C3_17 1_555 1_555
C5_17 C4_17 1_555 1_555
H2_17 C5_17 1_555 1_555
C6_17 C5_17 1_555 1_555
C7_17 C2_17 1_555 1_555
H3_17 C7_17 1_555 1_555
C9_17 C4_17 1_555 1_555
C10_17 C9_17 1_555 1_555
H4_17 C10_17 1_555 1_555
C11_17 C10_17 1_555 1_555
H6_17 C13_17 1_555 1_555
C14_17 C9_17 1_555 1_555
H7_17 C14_17 1_555 1_555
C6_17 C7_17 1_555 1_555
C13_17 C14_17 1_555 1_555
C2_18 C3_18 1_555 1_555
C3_18 H1_18 1_555 1_555
C4_18 C3_18 1_555 1_555
C5_18 C4_18 1_555 1_555
H2_18 C5_18 1_555 1_555
C6_18 C5_18 1_555 1_555
C7_18 C2_18 1_555 1_555
H3_18 C7_18 1_555 1_555
C9_18 C4_18 1_555 1_555
C10_18 C9_18 1_555 1_555
H4_18 C10_18 1_555 1_555
C11_18 C10_18 1_555 1_555
H6_18 C13_18 1_555 1_555
C14_18 C9_18 1_555 1_555
H7_18 C14_18 1_555 1_555
C6_18 C7_18 1_555 1_555
C13_18 C14_18 1_555 1_555

#END
