
###############################################################################
#
# This file contains modified crystal structure data generated from the
# MOF subset of the Cambridge Structural Database (CSD) v543 
# hosted by the Cambridge Crystallographic Data Centre (CCDC).
#
# This work is licensed under the Creative Commons
# Attribution-NonCommercial-ShareAlike 4.0 International License.
# To view a copy of this license, visit
# http://creativecommons.org/licenses/by-nc-sa/4.0/
# or send a letter to
# Creative Commons, PO Box 1866, Mountain View, CA 94042, USA.
#
# CIF created using the CSD Python API on 29 September 2022
# The structure has been converted into the P1 space group
# The structure has a 3D framework
# The original CSD entry ZOBYOG is in the tetragonal crystal system
# The framework has been calculated to contain at least 10.0% void space
# The void calculation uses a probe of radius 1.32A, grid spacing 0.4
#
###############################################################################

data_ZOBYOG
_chemical_formula_moiety         '(C256 H160 N32 O80 Zn16)n'
_symmetry_cell_setting           triclinic
_symmetry_space_group_name_H-M   'P 1'
_symmetry_Int_Tables_number      1
_space_group_name_Hall           'P 1'
loop_
_symmetry_equiv_pos_site_id
_symmetry_equiv_pos_as_xyz
1 x,y,z
_cell_length_a                   20.797(3)
_cell_length_b                   20.797(3)
_cell_length_c                   16.012(3)
_cell_angle_alpha                90
_cell_angle_beta                 90
_cell_angle_gamma                90
_cell_volume                     6925.43
loop_
_atom_site_label
_atom_site_type_symbol
_atom_site_fract_x
_atom_site_fract_y
_atom_site_fract_z
C1 C 0.3964(7) 0.6375(6) 0.4889(9)
C2 C 0.3580(5) 0.6199(5) 0.5614(7)
C3 C 0.3197(5) 0.6561(4) 0.6139(7)
C4 C 0.3080(7) 0.7254(5) 0.6165(10)
C5 C 0.3174(4) 0.5575(4) 0.6557(6)
C6 C 0.3010(6) 0.5002(4) 0.7041(7)
C7 C 0.2357(7) 0.4842(6) 0.7174(8)
H1 H 0.2043 0.5114 0.6962
C8 C 0.2166(9) 0.4306(7) 0.7600(10)
H2 H 0.1731 0.4228 0.7686
C9 C 0.2613(11) 0.3885(8) 0.7901(12)
C10 C 0.3269(12) 0.4017(8) 0.7801(12)
C11 C 0.3473(9) 0.4602(7) 0.7350(12)
H3 H 0.3907 0.4695 0.7278
C12 C 0.3721(9) 0.3610(8) 0.8105(12)
H4 H 0.4157 0.3704 0.8080
C13 C 0.3493(9) 0.3045(8) 0.8457(12)
H5 H 0.3791 0.2727 0.8585
C14 C 0.2855(9) 0.2922(8) 0.8630(12)
H6 H 0.2742 0.2574 0.8965
C15 C 0.2404(9) 0.3302(8) 0.8316(13)
H7 H 0.1970 0.3199 0.8360
C16 C 0.3904(9) 0.3591(7) 0.5733(12)
H8 H 0.3569 0.3600 0.6145
H9 H 0.4162 0.3213 0.5811
H10 H 0.3717 0.3584 0.5185
N1 N 0.3570(4) 0.5582(4) 0.5888(6)
N2 N 0.2942(4) 0.6163(4) 0.6729(6)
O1 O 0.4258(5) 0.5939(4) 0.4512(6)
O2 O 0.3973(6) 0.6970(5) 0.4640(7)
O3 O 0.3302(6) 0.7611(4) 0.5601(8)
O4 O 0.2742(6) 0.7452(4) 0.6768(8)
O5 O 0.4302(7) 0.4156(5) 0.5821(7)
Zn1 Zn 0.41530(5) 0.50012(7) 0.51899(11)
N3 N 0.3663(4) 0.4558(4) 0.4229(6)
O6 O 0.4952(4) 0.4758(6) 0.4268(8)
O7 O 0.5048(4) 0.5242(6) 0.5732(8)
Zn2 Zn 0.24988(7) 0.66530(5) 0.76899(11)
Zn3 Zn 0.25012(7) 0.83470(5) 0.73101(11)
C2_2 C 0.1420(5) 0.3801(5) 0.0614(7)
C3_2 C 0.1803(5) 0.3439(4) 0.1139(7)
C4_2 C 0.1920(7) 0.2746(5) 0.1165(10)
C5_2 C 0.1826(4) 0.4425(4) 0.1557(6)
C6_2 C 0.1990(6) 0.4998(4) 0.2041(7)
C7_2 C 0.2643(7) 0.5158(6) 0.2174(8)
H1_2 H 0.2957 0.4886 0.1962
C8_2 C 0.2834(9) 0.5694(7) 0.2600(10)
H2_2 H 0.3269 0.5772 0.2686
C9_2 C 0.2387(11) 0.6115(8) 0.2901(12)
C10_2 C 0.1731(12) 0.5983(8) 0.2801(12)
C11_2 C 0.1527(9) 0.5398(7) 0.2350(12)
H3_2 H 0.1093 0.5305 0.2278
C12_2 C 0.1279(9) 0.6390(8) 0.3105(12)
H4_2 H 0.0843 0.6296 0.3080
C13_2 C 0.1507(9) 0.6955(8) 0.3457(12)
H5_2 H 0.1209 0.7273 0.3585
C14_2 C 0.2145(9) 0.7078(8) 0.3630(12)
H6_2 H 0.2258 0.7426 0.3965
C15_2 C 0.2596(9) 0.6698(8) 0.3316(13)
H7_2 H 0.3030 0.6801 0.3360
C16_2 C 0.1096(9) 0.6409(7) 0.0733(12)
H8_2 H 0.1431 0.6400 0.1145
H9_2 H 0.0838 0.6787 0.0811
H10_2 H 0.1283 0.6416 0.0185
N1_2 N 0.1430(4) 0.4418(4) 0.0888(6)
N2_2 N 0.2058(4) 0.3837(4) 0.1729(6)
O3_2 O 0.1698(6) 0.2389(4) 0.0601(8)
O4_2 O 0.2258(6) 0.2548(4) 0.1768(8)
O5_2 O 0.0698(7) 0.5844(5) 0.0821(7)
Zn1_2 Zn 0.08470(5) 0.49988(7) 0.01899(11)
Zn2_2 Zn 0.25012(7) 0.33470(5) 0.26899(11)
Zn3_2 Zn 0.24988(7) 0.16530(5) 0.23101(11)
C1_2 C 0.1036(7) 0.3625(6) 0.9889(9)
O1_2 O 0.0742(5) 0.4061(4) 0.9512(6)
O2_2 O 0.1027(6) 0.3030(5) 0.9640(7)
N3_2 N 0.1337(4) 0.5442(4) 0.9229(6)
O6_2 O 0.0048(4) 0.5242(6) 0.9268(8)
O7_2 O 0.9952(4) 0.4758(6) 0.0732(8)
C8_3 C 0.3194(7) 0.4666(9) 0.0100(10)
H2_3 H 0.3272 0.4231 0.0186
C9_3 C 0.3615(8) 0.5113(11) 0.0401(12)
C10_3 C 0.3483(8) 0.5769(12) 0.0301(12)
C12_3 C 0.3890(8) 0.6221(9) 0.0605(12)
H4_3 H 0.3796 0.6657 0.0580
C13_3 C 0.4455(8) 0.5993(9) 0.0957(12)
H5_3 H 0.4773 0.6291 0.1085
C14_3 C 0.4578(8) 0.5355(9) 0.1130(12)
H6_3 H 0.4926 0.5242 0.1465
C15_3 C 0.4198(8) 0.4904(9) 0.0816(13)
H7_3 H 0.4301 0.4470 0.0860
C1_3 C 0.1125(6) 0.6464(7) 0.7389(9)
C2_3 C 0.1301(5) 0.6080(5) 0.8114(7)
C3_3 C 0.0939(4) 0.5697(5) 0.8639(7)
C4_3 C 0.0246(5) 0.5580(7) 0.8665(10)
C5_3 C 0.1925(4) 0.5674(4) 0.9057(6)
C6_3 C 0.2498(4) 0.5510(6) 0.9541(7)
C7_3 C 0.2658(6) 0.4857(7) 0.9674(8)
H1_3 H 0.2386 0.4543 0.9462
C11_3 C 0.2898(7) 0.5973(9) 0.9850(12)
H3_3 H 0.2805 0.6407 0.9778
C16_3 C 0.3909(7) 0.6404(9) 0.8233(12)
H8_3 H 0.3900 0.6069 0.8645
H9_3 H 0.4287 0.6662 0.8311
H10_3 H 0.3916 0.6217 0.7685
N1_3 N 0.1918(4) 0.6070(4) 0.8388(6)
O1_3 O 0.1561(4) 0.6758(5) 0.7012(6)
O2_3 O 0.0530(5) 0.6473(6) 0.7140(7)
O5_3 O 0.3344(5) 0.6802(7) 0.8321(7)
O7_3 O 0.2258(6) 0.7548(4) 0.8232(8)
O3_3 O 0.9889(4) 0.5802(6) 0.8101(8)
Zn3_3 Zn 0.91530(5) 0.50012(7) 0.98101(11)
C1_4 C 0.3875(6) 0.3536(7) 0.2389(9)
C2_4 C 0.3699(5) 0.3920(5) 0.3114(7)
C3_4 C 0.4061(4) 0.4303(5) 0.3639(7)
C4_4 C 0.4754(5) 0.4420(7) 0.3665(10)
C5_4 C 0.3075(4) 0.4326(4) 0.4057(6)
C6_4 C 0.2502(4) 0.4490(6) 0.4541(7)
C7_4 C 0.2342(6) 0.5143(7) 0.4674(8)
H1_4 H 0.2614 0.5457 0.4462
C8_4 C 0.1806(7) 0.5334(9) 0.5100(10)
H2_4 H 0.1728 0.5769 0.5186
C9_4 C 0.1385(8) 0.4887(11) 0.5401(12)
C10_4 C 0.1517(8) 0.4231(12) 0.5301(12)
C11_4 C 0.2102(7) 0.4027(9) 0.4850(12)
H3_4 H 0.2195 0.3593 0.4778
C12_4 C 0.1110(8) 0.3779(9) 0.5605(12)
H4_4 H 0.1204 0.3343 0.5580
C13_4 C 0.0545(8) 0.4007(9) 0.5957(12)
H5_4 H 0.0227 0.3709 0.6085
C14_4 C 0.0422(8) 0.4645(9) 0.6130(12)
H6_4 H 0.0074 0.4758 0.6465
C15_4 C 0.0802(8) 0.5096(9) 0.5816(13)
H7_4 H 0.0699 0.5530 0.5860
C16_4 C 0.1091(7) 0.3596(9) 0.3233(12)
H8_4 H 0.1100 0.3931 0.3645
H9_4 H 0.0713 0.3338 0.3311
H10_4 H 0.1084 0.3783 0.2685
N1_4 N 0.3082(4) 0.3930(4) 0.3388(6)
O1_4 O 0.3439(4) 0.3242(5) 0.2012(6)
O2_4 O 0.4470(5) 0.3527(6) 0.2140(7)
O3_4 O 0.5111(4) 0.4198(6) 0.3101(8)
O5_4 O 0.1656(5) 0.3198(7) 0.3321(7)
O7_4 O 0.2742(6) 0.2452(4) 0.3232(8)
Zn3_4 Zn 0.58470(5) 0.49988(7) 0.48101(11)
O7_5 O 0.0048(4) 0.0242(6) 0.0732(8)
C2_5 C 0.8580(5) 0.1199(5) 0.0614(7)
C3_5 C 0.8197(5) 0.1561(4) 0.1139(7)
C4_5 C 0.8080(7) 0.2254(5) 0.1165(10)
C5_5 C 0.8174(4) 0.0575(4) 0.1557(6)
C6_5 C 0.8010(6) 0.0002(4) 0.2041(7)
H1_5 H 0.7043 0.0114 0.1962
N1_5 N 0.8570(4) 0.0582(4) 0.0888(6)
N2_3 N 0.7942(4) 0.1163(4) 0.1729(6)
O3_5 O 0.8302(6) 0.2611(4) 0.0601(8)
O4_3 O 0.7742(6) 0.2452(4) 0.1768(8)
Zn1_3 Zn 0.91530(5) 0.00012(7) 0.01899(11)
Zn2_3 Zn 0.74988(7) 0.16530(5) 0.26899(11)
Zn3_5 Zn 0.75012(7) 0.33470(5) 0.23101(11)
N3_3 N 0.8663(4) 0.9558(4) 0.9229(6)
O6_3 O 0.9952(4) 0.9758(6) 0.9268(8)
C7_5 C 0.7643(7) 0.0158(6) 0.7174(8)
C8_5 C 0.7834(9) 0.0694(7) 0.7600(10)
H2_5 H 0.8269 0.0772 0.7686
C9_5 C 0.7387(11) 0.1115(8) 0.7901(12)
C10_5 C 0.6731(12) 0.0983(8) 0.7801(12)
C11_5 C 0.6527(9) 0.0398(7) 0.7350(12)
H3_5 H 0.6093 0.0305 0.7278
C12_5 C 0.6279(9) 0.1390(8) 0.8105(12)
H4_5 H 0.5843 0.1296 0.8080
C13_5 C 0.6507(9) 0.1955(8) 0.8457(12)
H5_5 H 0.6209 0.2273 0.8585
C14_5 C 0.7145(9) 0.2078(8) 0.8630(12)
H6_5 H 0.7258 0.2426 0.8965
C15_5 C 0.7596(9) 0.1698(8) 0.8316(13)
H7_5 H 0.8030 0.1801 0.8360
C16_5 C 0.6096(9) 0.1409(7) 0.5733(12)
H8_5 H 0.6431 0.1400 0.6145
H9_5 H 0.5838 0.1787 0.5811
H10_5 H 0.6283 0.1416 0.5185
O5_5 O 0.5698(7) 0.0844(5) 0.5821(7)
N3_4 N 0.6337(4) 0.0442(4) 0.4229(6)
O6_4 O 0.5048(4) 0.0242(6) 0.4268(8)
C1_5 C 0.6036(7) 0.8625(6) 0.4889(9)
C2_6 C 0.6420(5) 0.8801(5) 0.5614(7)
C3_6 C 0.6803(5) 0.8439(4) 0.6139(7)
C4_6 C 0.6920(7) 0.7746(5) 0.6165(10)
C5_6 C 0.6826(4) 0.9425(4) 0.6557(6)
C6_6 C 0.6990(6) 0.9998(4) 0.7041(7)
H1_6 H 0.7957 0.9886 0.6962
N1_6 N 0.6430(4) 0.9418(4) 0.5888(6)
N2_4 N 0.7058(4) 0.8837(4) 0.6729(6)
O1_5 O 0.5742(5) 0.9061(4) 0.4512(6)
O2_5 O 0.6027(6) 0.8030(5) 0.4640(7)
O3_6 O 0.6698(6) 0.7389(4) 0.5601(8)
O4_4 O 0.7258(6) 0.7548(4) 0.6768(8)
Zn1_4 Zn 0.58470(5) 0.99988(7) 0.51899(11)
O7_6 O 0.4952(4) 0.9758(6) 0.5732(8)
Zn2_4 Zn 0.75012(7) 0.83470(5) 0.76899(11)
Zn3_6 Zn 0.74988(7) 0.66530(5) 0.73101(11)
C1_6 C 0.6125(6) 0.1464(7) 0.2389(9)
C2_7 C 0.6301(5) 0.1080(5) 0.3114(7)
C3_7 C 0.5939(4) 0.0697(5) 0.3639(7)
C4_7 C 0.5246(5) 0.0580(7) 0.3665(10)
C5_7 C 0.6925(4) 0.0674(4) 0.4057(6)
C6_7 C 0.7498(4) 0.0510(6) 0.4541(7)
C9_6 C 0.8615(8) 0.0113(11) 0.5401(12)
C10_6 C 0.8483(8) 0.0769(12) 0.5301(12)
C11_6 C 0.7898(7) 0.0973(9) 0.4850(12)
H3_6 H 0.7805 0.1407 0.4778
C12_6 C 0.8890(8) 0.1221(9) 0.5605(12)
H4_6 H 0.8796 0.1657 0.5580
C13_6 C 0.9455(8) 0.0993(9) 0.5957(12)
H5_6 H 0.9773 0.1291 0.6085
C14_6 C 0.9578(8) 0.0355(9) 0.6130(12)
H6_6 H 0.9926 0.0242 0.6465
C16_6 C 0.8909(7) 0.1404(9) 0.3233(12)
H8_6 H 0.8900 0.1069 0.3645
H9_6 H 0.9287 0.1662 0.3311
H10_6 H 0.8916 0.1217 0.2685
N1_7 N 0.6918(4) 0.1070(4) 0.3388(6)
O1_6 O 0.6561(4) 0.1758(5) 0.2012(6)
O2_6 O 0.5530(5) 0.1473(6) 0.2140(7)
O3_7 O 0.4889(4) 0.0802(6) 0.3101(8)
O5_6 O 0.8344(5) 0.1802(7) 0.3321(7)
O7_7 O 0.7258(6) 0.2548(4) 0.3232(8)
Zn3_7 Zn 0.41530(5) 0.00012(7) 0.48101(11)
C7_6 C 0.7658(6) 0.9857(7) 0.4674(8)
H1_7 H 0.7386 0.9543 0.4462
C8_6 C 0.8194(7) 0.9666(9) 0.5100(10)
H2_6 H 0.8272 0.9231 0.5186
C15_6 C 0.9198(8) 0.9904(9) 0.5816(13)
H7_6 H 0.9301 0.9470 0.5860
O3_8 O 0.0111(4) 0.9198(6) 0.8101(8)
Zn3_8 Zn 0.08470(5) 0.99988(7) 0.98101(11)
C8_7 C 0.6806(7) 0.0334(9) 0.0100(10)
H2_7 H 0.6728 0.0769 0.0186
C15_7 C 0.5802(8) 0.0096(9) 0.0816(13)
H7_7 H 0.5699 0.0530 0.0860
C1_7 C 0.8875(6) 0.8536(7) 0.7389(9)
C2_8 C 0.8699(5) 0.8920(5) 0.8114(7)
C3_8 C 0.9061(4) 0.9303(5) 0.8639(7)
C4_8 C 0.9754(5) 0.9420(7) 0.8665(10)
C5_8 C 0.8075(4) 0.9326(4) 0.9057(6)
C6_8 C 0.7502(4) 0.9490(6) 0.9541(7)
C11_7 C 0.7102(7) 0.9027(9) 0.9850(12)
H3_7 H 0.7195 0.8593 0.9778
C16_7 C 0.6091(7) 0.8596(9) 0.8233(12)
H8_7 H 0.6100 0.8931 0.8645
H9_7 H 0.5713 0.8338 0.8311
H10_7 H 0.6084 0.8783 0.7685
N1_8 N 0.8082(4) 0.8930(4) 0.8388(6)
O1_7 O 0.8439(4) 0.8242(5) 0.7012(6)
O2_7 O 0.9470(5) 0.8527(6) 0.7140(7)
O5_7 O 0.6656(5) 0.8198(7) 0.8321(7)
O7_8 O 0.7742(6) 0.7452(4) 0.8232(8)
C1_8 C 0.6036(7) 0.3625(6) 0.5111(9)
C2_9 C 0.6420(5) 0.3801(5) 0.4386(7)
C3_9 C 0.6803(5) 0.3439(4) 0.3861(7)
C4_9 C 0.6920(7) 0.2746(5) 0.3835(10)
C5_9 C 0.6826(4) 0.4425(4) 0.3443(6)
C6_9 C 0.6990(6) 0.4998(4) 0.2959(7)
C7_7 C 0.7643(7) 0.5158(6) 0.2826(8)
H1_8 H 0.7957 0.4886 0.3038
C8_8 C 0.7834(9) 0.5694(7) 0.2400(10)
H2_8 H 0.8269 0.5772 0.2314
C9_7 C 0.7387(11) 0.6115(8) 0.2099(12)
C10_7 C 0.6731(12) 0.5983(8) 0.2199(12)
C11_8 C 0.6527(9) 0.5398(7) 0.2650(12)
H3_8 H 0.6093 0.5305 0.2722
C12_7 C 0.6279(9) 0.6390(8) 0.1895(12)
H4_7 H 0.5843 0.6296 0.1920
C13_7 C 0.6507(9) 0.6955(8) 0.1543(12)
H5_7 H 0.6209 0.7273 0.1415
C14_7 C 0.7145(9) 0.7078(8) 0.1370(12)
H6_7 H 0.7258 0.7426 0.1035
C15_8 C 0.7596(9) 0.6698(8) 0.1684(13)
H7_8 H 0.8030 0.6801 0.1640
C16_8 C 0.6096(9) 0.6409(7) 0.4267(12)
H8_8 H 0.6431 0.6400 0.3855
H9_8 H 0.5838 0.6787 0.4189
H10_8 H 0.6283 0.6416 0.4815
N1_9 N 0.6430(4) 0.4418(4) 0.4112(6)
N2_5 N 0.7058(4) 0.3837(4) 0.3271(6)
O1_8 O 0.5742(5) 0.4061(4) 0.5488(6)
O2_8 O 0.6027(6) 0.3030(5) 0.5360(7)
O3_9 O 0.6698(6) 0.2389(4) 0.4399(8)
O5_8 O 0.5698(7) 0.5844(5) 0.4179(7)
N3_5 N 0.6337(4) 0.5442(4) 0.5771(6)
C1_9 C 0.8964(7) 0.6375(6) 0.0111(9)
O1_9 O 0.9258(5) 0.5939(4) 0.0488(6)
O2_9 O 0.8973(6) 0.6970(5) 0.0360(7)
N3_6 N 0.8663(4) 0.4558(4) 0.0771(6)
C2_10 C 0.8580(5) 0.6199(5) 0.9386(7)
C3_10 C 0.8197(5) 0.6561(4) 0.8861(7)
C4_10 C 0.8080(7) 0.7254(5) 0.8835(10)
C5_10 C 0.8174(4) 0.5575(4) 0.8443(6)
C6_10 C 0.8010(6) 0.5002(4) 0.7959(7)
C7_8 C 0.7357(7) 0.4842(6) 0.7826(8)
H1_9 H 0.7043 0.5114 0.8038
C8_9 C 0.7166(9) 0.4306(7) 0.7400(10)
H2_9 H 0.6731 0.4228 0.7314
C9_8 C 0.7613(11) 0.3885(8) 0.7099(12)
C10_8 C 0.8269(12) 0.4017(8) 0.7199(12)
C11_9 C 0.8473(9) 0.4602(7) 0.7650(12)
H3_9 H 0.8907 0.4695 0.7722
C12_8 C 0.8721(9) 0.3610(8) 0.6895(12)
H4_8 H 0.9157 0.3704 0.6920
C13_8 C 0.8493(9) 0.3045(8) 0.6543(12)
H5_8 H 0.8791 0.2727 0.6415
C14_8 C 0.7855(9) 0.2922(8) 0.6370(12)
H6_8 H 0.7742 0.2574 0.6035
C15_9 C 0.7404(9) 0.3302(8) 0.6684(13)
H7_9 H 0.6970 0.3199 0.6640
C16_9 C 0.8904(9) 0.3591(7) 0.9267(12)
H8_9 H 0.8569 0.3600 0.8855
H9_9 H 0.9162 0.3213 0.9189
H10_9 H 0.8717 0.3584 0.9815
N1_10 N 0.8570(4) 0.5582(4) 0.9112(6)
N2_6 N 0.7942(4) 0.6163(4) 0.8271(6)
O3_10 O 0.8302(6) 0.7611(4) 0.9399(8)
O5_9 O 0.9302(7) 0.4156(5) 0.9179(7)
O3_11 O 0.0111(4) 0.4198(6) 0.1899(8)
C1_10 C 0.8875(6) 0.3536(7) 0.2611(9)
C2_11 C 0.8699(5) 0.3920(5) 0.1886(7)
C3_11 C 0.9061(4) 0.4303(5) 0.1361(7)
C4_11 C 0.9754(5) 0.4420(7) 0.1335(10)
C5_11 C 0.8075(4) 0.4326(4) 0.0943(6)
C6_11 C 0.7502(4) 0.4490(6) 0.0459(7)
C7_9 C 0.7342(6) 0.5143(7) 0.0326(8)
H1_10 H 0.7614 0.5457 0.0538
C11_10 C 0.7102(7) 0.4027(9) 0.0150(12)
H3_10 H 0.7195 0.3593 0.0222
C16_10 C 0.6091(7) 0.3596(9) 0.1767(12)
H8_10 H 0.6100 0.3931 0.1355
H9_10 H 0.5713 0.3338 0.1689
H10_10 H 0.6084 0.3783 0.2315
N1_11 N 0.8082(4) 0.3930(4) 0.1612(6)
O1_10 O 0.8439(4) 0.3242(5) 0.2988(6)
O2_10 O 0.9470(5) 0.3527(6) 0.2860(7)
O5_10 O 0.6656(5) 0.3198(7) 0.1679(7)
C8_10 C 0.6806(7) 0.5334(9) 0.9900(10)
H2_10 H 0.6728 0.5769 0.9814
C9_9 C 0.6385(8) 0.4887(11) 0.9599(12)
C10_9 C 0.6517(8) 0.4231(12) 0.9699(12)
C12_9 C 0.6110(8) 0.3779(9) 0.9395(12)
H4_9 H 0.6204 0.3343 0.9420
C13_9 C 0.5545(8) 0.4007(9) 0.9043(12)
H5_9 H 0.5227 0.3709 0.8915
C14_9 C 0.5422(8) 0.4645(9) 0.8870(12)
H6_9 H 0.5074 0.4758 0.8535
C15_10 C 0.5802(8) 0.5096(9) 0.9184(13)
H7_10 H 0.5699 0.5530 0.9140
C1_11 C 0.6125(6) 0.6464(7) 0.7611(9)
C2_12 C 0.6301(5) 0.6080(5) 0.6886(7)
C3_12 C 0.5939(4) 0.5697(5) 0.6361(7)
C4_12 C 0.5246(5) 0.5580(7) 0.6335(10)
C5_12 C 0.6925(4) 0.5674(4) 0.5943(6)
C6_12 C 0.7498(4) 0.5510(6) 0.5459(7)
C7_10 C 0.7658(6) 0.4857(7) 0.5326(8)
H1_11 H 0.7386 0.4543 0.5538
C8_11 C 0.8194(7) 0.4666(9) 0.4900(10)
H2_11 H 0.8272 0.4231 0.4814
C9_10 C 0.8615(8) 0.5113(11) 0.4599(12)
C10_10 C 0.8483(8) 0.5769(12) 0.4699(12)
C11_11 C 0.7898(7) 0.5973(9) 0.5150(12)
H3_11 H 0.7805 0.6407 0.5222
C12_10 C 0.8890(8) 0.6221(9) 0.4395(12)
H4_10 H 0.8796 0.6657 0.4420
C13_10 C 0.9455(8) 0.5993(9) 0.4043(12)
H5_10 H 0.9773 0.6291 0.3915
C14_10 C 0.9578(8) 0.5355(9) 0.3870(12)
H6_10 H 0.9926 0.5242 0.3535
C15_11 C 0.9198(8) 0.4904(9) 0.4184(13)
H7_11 H 0.9301 0.4470 0.4140
C16_11 C 0.8909(7) 0.6404(9) 0.6767(12)
H8_11 H 0.8900 0.6069 0.6355
H9_11 H 0.9287 0.6662 0.6689
H10_11 H 0.8916 0.6217 0.7315
N1_12 N 0.6918(4) 0.6070(4) 0.6612(6)
O1_11 O 0.6561(4) 0.6758(5) 0.7988(6)
O2_11 O 0.5530(5) 0.6473(6) 0.7860(7)
O3_12 O 0.4889(4) 0.5802(6) 0.6899(8)
O5_11 O 0.8344(5) 0.6802(7) 0.6679(7)
N3_7 N 0.1337(4) 0.0442(4) 0.0771(6)
C2_13 C 0.1420(5) 0.8801(5) 0.9386(7)
C3_13 C 0.1803(5) 0.8439(4) 0.8861(7)
C4_13 C 0.1920(7) 0.7746(5) 0.8835(10)
C5_13 C 0.1826(4) 0.9425(4) 0.8443(6)
C6_13 C 0.1990(6) 0.9998(4) 0.7959(7)
H1_12 H 0.2957 0.9886 0.8038
N1_13 N 0.1430(4) 0.9418(4) 0.9112(6)
N2_7 N 0.2058(4) 0.8837(4) 0.8271(6)
O3_13 O 0.1698(6) 0.7389(4) 0.9399(8)
C1_12 C 0.3964(7) 0.1375(6) 0.5111(9)
C2_14 C 0.3580(5) 0.1199(5) 0.4386(7)
C3_14 C 0.3197(5) 0.1561(4) 0.3861(7)
C4_14 C 0.3080(7) 0.2254(5) 0.3835(10)
C5_14 C 0.3174(4) 0.0575(4) 0.3443(6)
C6_14 C 0.3010(6) 0.0002(4) 0.2959(7)
H1_13 H 0.2043 0.0114 0.3038
N1_14 N 0.3570(4) 0.0582(4) 0.4112(6)
N2_8 N 0.2942(4) 0.1163(4) 0.3271(6)
O1_12 O 0.4258(5) 0.0939(4) 0.5488(6)
O2_12 O 0.3973(6) 0.1970(5) 0.5360(7)
O3_14 O 0.3302(6) 0.2611(4) 0.4399(8)
C7_11 C 0.2357(7) 0.9842(6) 0.2826(8)
C8_12 C 0.2166(9) 0.9306(7) 0.2400(10)
H2_12 H 0.1731 0.9228 0.2314
C9_11 C 0.2613(11) 0.8885(8) 0.2099(12)
C10_11 C 0.3269(12) 0.9017(8) 0.2199(12)
C11_12 C 0.3473(9) 0.9602(7) 0.2650(12)
H3_12 H 0.3907 0.9695 0.2722
C12_11 C 0.3721(9) 0.8610(8) 0.1895(12)
H4_11 H 0.4157 0.8704 0.1920
C13_11 C 0.3493(9) 0.8045(8) 0.1543(12)
H5_11 H 0.3791 0.7727 0.1415
C14_11 C 0.2855(9) 0.7922(8) 0.1370(12)
H6_11 H 0.2742 0.7574 0.1035
C15_12 C 0.2404(9) 0.8302(8) 0.1684(13)
H7_12 H 0.1970 0.8199 0.1640
C16_12 C 0.3904(9) 0.8591(7) 0.4267(12)
H8_12 H 0.3569 0.8600 0.3855
H9_12 H 0.4162 0.8213 0.4189
H10_12 H 0.3717 0.8584 0.4815
O5_12 O 0.4302(7) 0.9156(5) 0.4179(7)
N3_8 N 0.3663(4) 0.9558(4) 0.5771(6)
C7_12 C 0.2342(6) 0.0143(7) 0.5326(8)
H1_14 H 0.2614 0.0457 0.5538
C8_13 C 0.1806(7) 0.0334(9) 0.4900(10)
H2_13 H 0.1728 0.0769 0.4814
C15_13 C 0.0802(8) 0.0096(9) 0.4184(13)
H7_13 H 0.0699 0.0530 0.4140
C1_13 C 0.3875(6) 0.8536(7) 0.7611(9)
C2_15 C 0.3699(5) 0.8920(5) 0.6886(7)
C3_15 C 0.4061(4) 0.9303(5) 0.6361(7)
C4_15 C 0.4754(5) 0.9420(7) 0.6335(10)
C5_15 C 0.3075(4) 0.9326(4) 0.5943(6)
C6_15 C 0.2502(4) 0.9490(6) 0.5459(7)
C9_12 C 0.1385(8) 0.9887(11) 0.4599(12)
C10_12 C 0.1517(8) 0.9231(12) 0.4699(12)
C11_13 C 0.2102(7) 0.9027(9) 0.5150(12)
H3_13 H 0.2195 0.8593 0.5222
C12_12 C 0.1110(8) 0.8779(9) 0.4395(12)
H4_12 H 0.1204 0.8343 0.4420
C13_12 C 0.0545(8) 0.9007(9) 0.4043(12)
H5_12 H 0.0227 0.8709 0.3915
C14_12 C 0.0422(8) 0.9645(9) 0.3870(12)
H6_12 H 0.0074 0.9758 0.3535
C16_13 C 0.1091(7) 0.8596(9) 0.6767(12)
H8_13 H 0.1100 0.8931 0.6355
H9_13 H 0.0713 0.8338 0.6689
H10_13 H 0.1084 0.8783 0.7315
N1_15 N 0.3082(4) 0.8930(4) 0.6612(6)
O1_13 O 0.3439(4) 0.8242(5) 0.7988(6)
O2_13 O 0.4470(5) 0.8527(6) 0.7860(7)
O3_15 O 0.5111(4) 0.9198(6) 0.6899(8)
O5_13 O 0.1656(5) 0.8198(7) 0.6679(7)
C1_14 C 0.1125(6) 0.1464(7) 0.2611(9)
C2_16 C 0.1301(5) 0.1080(5) 0.1886(7)
C3_16 C 0.0939(4) 0.0697(5) 0.1361(7)
C4_16 C 0.0246(5) 0.0580(7) 0.1335(10)
C5_16 C 0.1925(4) 0.0674(4) 0.0943(6)
C6_16 C 0.2498(4) 0.0510(6) 0.0459(7)
C11_14 C 0.2898(7) 0.0973(9) 0.0150(12)
H3_14 H 0.2805 0.1407 0.0222
C16_14 C 0.3909(7) 0.1404(9) 0.1767(12)
H8_14 H 0.3900 0.1069 0.1355
H9_14 H 0.4287 0.1662 0.1689
H10_14 H 0.3916 0.1217 0.2315
N1_16 N 0.1918(4) 0.1070(4) 0.1612(6)
O1_14 O 0.1561(4) 0.1758(5) 0.2988(6)
O2_14 O 0.0530(5) 0.1473(6) 0.2860(7)
O5_14 O 0.3344(5) 0.1802(7) 0.1679(7)
C8_14 C 0.3194(7) 0.9666(9) 0.9900(10)
H2_14 H 0.3272 0.9231 0.9814
C15_14 C 0.4198(8) 0.9904(9) 0.9184(13)
H7_14 H 0.4301 0.9470 0.9140
O3_16 O 0.9889(4) 0.0802(6) 0.1899(8)
C1_15 C 0.8964(7) 0.1375(6) 0.9889(9)
O1_15 O 0.9258(5) 0.0939(4) 0.9512(6)
O2_15 O 0.8973(6) 0.1970(5) 0.9640(7)
C7_13 C 0.7357(7) 0.9842(6) 0.2174(8)
C8_15 C 0.7166(9) 0.9306(7) 0.2600(10)
H2_15 H 0.6731 0.9228 0.2686
C9_13 C 0.7613(11) 0.8885(8) 0.2901(12)
C10_13 C 0.8269(12) 0.9017(8) 0.2801(12)
C11_15 C 0.8473(9) 0.9602(7) 0.2350(12)
H3_15 H 0.8907 0.9695 0.2278
C12_13 C 0.8721(9) 0.8610(8) 0.3105(12)
H4_13 H 0.9157 0.8704 0.3080
C13_13 C 0.8493(9) 0.8045(8) 0.3457(12)
H5_13 H 0.8791 0.7727 0.3585
C14_13 C 0.7855(9) 0.7922(8) 0.3630(12)
H6_13 H 0.7742 0.7574 0.3965
C15_15 C 0.7404(9) 0.8302(8) 0.3316(13)
H7_15 H 0.6970 0.8199 0.3360
C16_15 C 0.8904(9) 0.8591(7) 0.0733(12)
H8_15 H 0.8569 0.8600 0.1145
H9_15 H 0.9162 0.8213 0.0811
H10_15 H 0.8717 0.8584 0.0185
O5_15 O 0.9302(7) 0.9156(5) 0.0821(7)
C7_14 C 0.7342(6) 0.0143(7) 0.9674(8)
H1_15 H 0.7614 0.0457 0.9462
C9_14 C 0.6385(8) 0.9887(11) 0.0401(12)
C10_14 C 0.6517(8) 0.9231(12) 0.0301(12)
C12_14 C 0.6110(8) 0.8779(9) 0.0605(12)
H4_14 H 0.6204 0.8343 0.0580
C13_14 C 0.5545(8) 0.9007(9) 0.0957(12)
H5_14 H 0.5227 0.8709 0.1085
C14_14 C 0.5422(8) 0.9645(9) 0.1130(12)
H6_14 H 0.5074 0.9758 0.1465
C7_15 C 0.2643(7) 0.0158(6) 0.7826(8)
C8_16 C 0.2834(9) 0.0694(7) 0.7400(10)
H2_16 H 0.3269 0.0772 0.7314
C9_15 C 0.2387(11) 0.1115(8) 0.7099(12)
C10_15 C 0.1731(12) 0.0983(8) 0.7199(12)
C11_16 C 0.1527(9) 0.0398(7) 0.7650(12)
H3_16 H 0.1093 0.0305 0.7722
C12_15 C 0.1279(9) 0.1390(8) 0.6895(12)
H4_15 H 0.0843 0.1296 0.6920
C13_15 C 0.1507(9) 0.1955(8) 0.6543(12)
H5_15 H 0.1209 0.2273 0.6415
C14_15 C 0.2145(9) 0.2078(8) 0.6370(12)
H6_15 H 0.2258 0.2426 0.6035
C15_16 C 0.2596(9) 0.1698(8) 0.6684(13)
H7_16 H 0.3030 0.1801 0.6640
C16_16 C 0.1096(9) 0.1409(7) 0.9267(12)
H8_16 H 0.1431 0.1400 0.8855
H9_16 H 0.0838 0.1787 0.9189
H10_16 H 0.1283 0.1416 0.9815
O5_16 O 0.0698(7) 0.0844(5) 0.9179(7)
C1_16 C 0.1036(7) 0.8625(6) 0.0111(9)
O1_16 O 0.0742(5) 0.9061(4) 0.0488(6)
O2_16 O 0.1027(6) 0.8030(5) 0.0360(7)
C9_16 C 0.3615(8) 0.0113(11) 0.9599(12)
C10_16 C 0.3483(8) 0.0769(12) 0.9699(12)
C12_16 C 0.3890(8) 0.1221(9) 0.9395(12)
H4_16 H 0.3796 0.1657 0.9420
C13_16 C 0.4455(8) 0.0993(9) 0.9043(12)
H5_16 H 0.4773 0.1291 0.8915
C14_16 C 0.4578(8) 0.0355(9) 0.8870(12)
H6_16 H 0.4926 0.0242 0.8535
C7_16 C 0.2658(6) 0.9857(7) 0.0326(8)
H1_16 H 0.2386 0.9543 0.0538
loop_
_geom_bond_atom_site_label_1
_geom_bond_atom_site_label_2
_geom_bond_site_symmetry_1
_geom_bond_site_symmetry_2
C1 C2 1_555 1_555
C2 C3 1_555 1_555
C3 C4 1_555 1_555
C4 O3 1_555 1_555
C5 C6 1_555 1_555
C6 C7 1_555 1_555
C7 H1 1_555 1_555
C8 C7 1_555 1_555
H2 C8 1_555 1_555
C9 C8 1_555 1_555
C10 C9 1_555 1_555
C11 C6 1_555 1_555
H3 C11 1_555 1_555
C12 C10 1_555 1_555
H4 C12 1_555 1_555
C13 C12 1_555 1_555
H5 C13 1_555 1_555
C14 C13 1_555 1_555
H6 C14 1_555 1_555
C15 C9 1_555 1_555
H7 C15 1_555 1_555
C16 H8 1_555 1_555
H9 C16 1_555 1_555
H10 C16 1_555 1_555
N1 C2 1_555 1_555
N2 C3 1_555 1_555
O1 C1 1_555 1_555
O2 C1 1_555 1_555
O4 C4 1_555 1_555
O5 C16 1_555 1_555
Zn1 N1 1_555 1_555
N3 Zn1 1_555 1_555
O6 Zn1 1_555 1_555
O7 Zn1 1_555 1_555
Zn2 N2 1_555 1_555
Zn3 O4 1_555 1_555
C5 N1 1_555 1_555
C5 N2 1_555 1_555
C10 C11 1_555 1_555
C14 C15 1_555 1_555
O1 Zn1 1_555 1_555
O4 Zn2 1_555 1_555
O5 Zn1 1_555 1_555
C2_2 C3_2 1_555 1_555
C3_2 C4_2 1_555 1_555
C4_2 O3_2 1_555 1_555
C5_2 C6_2 1_555 1_555
C6_2 C7_2 1_555 1_555
C7_2 H1_2 1_555 1_555
C8_2 C7_2 1_555 1_555
H2_2 C8_2 1_555 1_555
C9_2 C8_2 1_555 1_555
C10_2 C9_2 1_555 1_555
C11_2 C6_2 1_555 1_555
H3_2 C11_2 1_555 1_555
C12_2 C10_2 1_555 1_555
H4_2 C12_2 1_555 1_555
C13_2 C12_2 1_555 1_555
H5_2 C13_2 1_555 1_555
C14_2 C13_2 1_555 1_555
H6_2 C14_2 1_555 1_555
C15_2 C9_2 1_555 1_555
H7_2 C15_2 1_555 1_555
C16_2 H8_2 1_555 1_555
H9_2 C16_2 1_555 1_555
H10_2 C16_2 1_555 1_555
N1_2 C2_2 1_555 1_555
N2_2 C3_2 1_555 1_555
O4_2 C4_2 1_555 1_555
O5_2 C16_2 1_555 1_555
Zn1_2 N1_2 1_555 1_555
Zn2_2 N2_2 1_555 1_555
Zn3_2 O4_2 1_555 1_555
C5_2 N1_2 1_555 1_555
C5_2 N2_2 1_555 1_555
C10_2 C11_2 1_555 1_555
C14_2 C15_2 1_555 1_555
O4_2 Zn2_2 1_555 1_555
O5_2 Zn1_2 1_555 1_555
O1_2 C1_2 1_555 1_555
O2_2 C1_2 1_555 1_555
H2_3 C8_3 1_555 1_555
C9_3 C8_3 1_555 1_555
C10_3 C9_3 1_555 1_555
C12_3 C10_3 1_555 1_555
H4_3 C12_3 1_555 1_555
C13_3 C12_3 1_555 1_555
H5_3 C13_3 1_555 1_555
C14_3 C13_3 1_555 1_555
H6_3 C14_3 1_555 1_555
C15_3 C9_3 1_555 1_555
H7_3 C15_3 1_555 1_555
C14_3 C15_3 1_555 1_555
C1_3 C2_3 1_555 1_555
C2_3 C3_3 1_555 1_555
C3_3 C4_3 1_555 1_555
C5_3 C6_3 1_555 1_555
C6_3 C7_3 1_555 1_555
C7_3 H1_3 1_555 1_555
C11_3 C6_3 1_555 1_555
H3_3 C11_3 1_555 1_555
C16_3 H8_3 1_555 1_555
H9_3 C16_3 1_555 1_555
H10_3 C16_3 1_555 1_555
N1_3 C2_3 1_555 1_555
N3_2 C3_3 1_555 1_555
O1_3 C1_3 1_555 1_555
O2_3 C1_3 1_555 1_555
O6_2 C4_3 1_555 1_555
O5_3 C16_3 1_555 1_555
Zn2 N1_3 1_555 1_555
O7_3 Zn2 1_555 1_555
C5_3 N1_3 1_555 1_555
C5_3 N3_2 1_555 1_555
O1_3 Zn2 1_555 1_555
O5_3 Zn2 1_555 1_555
C1_4 C2_4 1_555 1_555
C2_4 C3_4 1_555 1_555
C3_4 C4_4 1_555 1_555
C4_4 O3_4 1_555 1_555
C5_4 C6_4 1_555 1_555
C6_4 C7_4 1_555 1_555
C7_4 H1_4 1_555 1_555
C8_4 C7_4 1_555 1_555
H2_4 C8_4 1_555 1_555
C9_4 C8_4 1_555 1_555
C10_4 C9_4 1_555 1_555
C11_4 C6_4 1_555 1_555
H3_4 C11_4 1_555 1_555
C12_4 C10_4 1_555 1_555
H4_4 C12_4 1_555 1_555
C13_4 C12_4 1_555 1_555
H5_4 C13_4 1_555 1_555
C14_4 C13_4 1_555 1_555
H6_4 C14_4 1_555 1_555
C15_4 C9_4 1_555 1_555
H7_4 C15_4 1_555 1_555
C16_4 H8_4 1_555 1_555
H9_4 C16_4 1_555 1_555
H10_4 C16_4 1_555 1_555
N1_4 C2_4 1_555 1_555
N3 C3_4 1_555 1_555
O1_4 C1_4 1_555 1_555
O2_4 C1_4 1_555 1_555
O6 C4_4 1_555 1_555
O5_4 C16_4 1_555 1_555
Zn2_2 N1_4 1_555 1_555
O7_4 Zn2_2 1_555 1_555
Zn3_4 O6 1_555 1_555
C5_4 N1_4 1_555 1_555
C5_4 N3 1_555 1_555
C10_4 C11_4 1_555 1_555
C14_4 C15_4 1_555 1_555
O1_4 Zn2_2 1_555 1_555
O5_4 Zn2_2 1_555 1_555
C2_5 C3_5 1_555 1_555
C3_5 C4_5 1_555 1_555
C4_5 O3_5 1_555 1_555
C5_5 C6_5 1_555 1_555
N1_5 C2_5 1_555 1_555
N2_3 C3_5 1_555 1_555
O4_3 C4_5 1_555 1_555
Zn1_3 N1_5 1_555 1_555
Zn2_3 N2_3 1_555 1_555
Zn3_5 O4_3 1_555 1_555
C5_5 N1_5 1_555 1_555
C5_5 N2_3 1_555 1_555
O4_3 Zn2_3 1_555 1_555
C8_5 C7_5 1_555 1_555
H2_5 C8_5 1_555 1_555
C9_5 C8_5 1_555 1_555
C10_5 C9_5 1_555 1_555
H3_5 C11_5 1_555 1_555
C12_5 C10_5 1_555 1_555
H4_5 C12_5 1_555 1_555
C13_5 C12_5 1_555 1_555
H5_5 C13_5 1_555 1_555
C14_5 C13_5 1_555 1_555
H6_5 C14_5 1_555 1_555
C15_5 C9_5 1_555 1_555
H7_5 C15_5 1_555 1_555
C16_5 H8_5 1_555 1_555
H9_5 C16_5 1_555 1_555
H10_5 C16_5 1_555 1_555
O5_5 C16_5 1_555 1_555
C10_5 C11_5 1_555 1_555
C14_5 C15_5 1_555 1_555
C1_5 C2_6 1_555 1_555
C2_6 C3_6 1_555 1_555
C3_6 C4_6 1_555 1_555
C4_6 O3_6 1_555 1_555
C5_6 C6_6 1_555 1_555
N1_6 C2_6 1_555 1_555
N2_4 C3_6 1_555 1_555
O1_5 C1_5 1_555 1_555
O2_5 C1_5 1_555 1_555
O4_4 C4_6 1_555 1_555
Zn1_4 N1_6 1_555 1_555
O7_6 Zn1_4 1_555 1_555
Zn2_4 N2_4 1_555 1_555
Zn3_6 O4_4 1_555 1_555
C5_6 N1_6 1_555 1_555
C5_6 N2_4 1_555 1_555
O1_5 Zn1_4 1_555 1_555
O4_4 Zn2_4 1_555 1_555
C1_6 C2_7 1_555 1_555
C2_7 C3_7 1_555 1_555
C3_7 C4_7 1_555 1_555
C4_7 O3_7 1_555 1_555
C5_7 C6_7 1_555 1_555
C10_6 C9_6 1_555 1_555
C11_6 C6_7 1_555 1_555
H3_6 C11_6 1_555 1_555
C12_6 C10_6 1_555 1_555
H4_6 C12_6 1_555 1_555
C13_6 C12_6 1_555 1_555
H5_6 C13_6 1_555 1_555
C14_6 C13_6 1_555 1_555
H6_6 C14_6 1_555 1_555
C16_6 H8_6 1_555 1_555
H9_6 C16_6 1_555 1_555
H10_6 C16_6 1_555 1_555
N1_7 C2_7 1_555 1_555
N3_4 C3_7 1_555 1_555
O1_6 C1_6 1_555 1_555
O2_6 C1_6 1_555 1_555
O6_4 C4_7 1_555 1_555
O5_6 C16_6 1_555 1_555
Zn2_3 N1_7 1_555 1_555
O7_7 Zn2_3 1_555 1_555
Zn3_7 O6_4 1_555 1_555
C5_7 N1_7 1_555 1_555
C5_7 N3_4 1_555 1_555
C10_6 C11_6 1_555 1_555
O1_6 Zn2_3 1_555 1_555
O5_6 Zn2_3 1_555 1_555
C7_6 H1_7 1_555 1_555
C8_6 C7_6 1_555 1_555
H2_6 C8_6 1_555 1_555
H7_6 C15_6 1_555 1_555
H2_7 C8_7 1_555 1_555
H7_7 C15_7 1_555 1_555
C1_7 C2_8 1_555 1_555
C2_8 C3_8 1_555 1_555
C3_8 C4_8 1_555 1_555
C5_8 C6_8 1_555 1_555
C11_7 C6_8 1_555 1_555
H3_7 C11_7 1_555 1_555
C16_7 H8_7 1_555 1_555
H9_7 C16_7 1_555 1_555
H10_7 C16_7 1_555 1_555
N1_8 C2_8 1_555 1_555
N3_3 C3_8 1_555 1_555
O1_7 C1_7 1_555 1_555
O2_7 C1_7 1_555 1_555
O6_3 C4_8 1_555 1_555
O5_7 C16_7 1_555 1_555
Zn2_4 N1_8 1_555 1_555
O7_8 Zn2_4 1_555 1_555
C5_8 N1_8 1_555 1_555
C5_8 N3_3 1_555 1_555
O1_7 Zn2_4 1_555 1_555
O5_7 Zn2_4 1_555 1_555
C1_8 C2_9 1_555 1_555
C2_9 C3_9 1_555 1_555
C3_9 C4_9 1_555 1_555
C4_9 O3_9 1_555 1_555
C5_9 C6_9 1_555 1_555
C6_9 C7_7 1_555 1_555
C7_7 H1_8 1_555 1_555
C8_8 C7_7 1_555 1_555
H2_8 C8_8 1_555 1_555
C9_7 C8_8 1_555 1_555
C10_7 C9_7 1_555 1_555
C11_8 C6_9 1_555 1_555
H3_8 C11_8 1_555 1_555
C12_7 C10_7 1_555 1_555
H4_7 C12_7 1_555 1_555
C13_7 C12_7 1_555 1_555
H5_7 C13_7 1_555 1_555
C14_7 C13_7 1_555 1_555
H6_7 C14_7 1_555 1_555
C15_8 C9_7 1_555 1_555
H7_8 C15_8 1_555 1_555
C16_8 H8_8 1_555 1_555
H9_8 C16_8 1_555 1_555
H10_8 C16_8 1_555 1_555
N1_9 C2_9 1_555 1_555
N2_5 C3_9 1_555 1_555
O1_8 C1_8 1_555 1_555
O2_8 C1_8 1_555 1_555
O7_7 C4_9 1_555 1_555
O5_8 C16_8 1_555 1_555
Zn3_4 N1_9 1_555 1_555
N3_5 Zn3_4 1_555 1_555
O7 Zn3_4 1_555 1_555
Zn3_5 N2_5 1_555 1_555
C5_9 N1_9 1_555 1_555
C5_9 N2_5 1_555 1_555
C10_7 C11_8 1_555 1_555
C14_7 C15_8 1_555 1_555
O1_8 Zn3_4 1_555 1_555
O7_7 Zn3_5 1_555 1_555
O5_8 Zn3_4 1_555 1_555
O1_9 C1_9 1_555 1_555
O2_9 C1_9 1_555 1_555
C2_10 C3_10 1_555 1_555
C3_10 C4_10 1_555 1_555
C4_10 O3_10 1_555 1_555
C5_10 C6_10 1_555 1_555
C6_10 C7_8 1_555 1_555
C7_8 H1_9 1_555 1_555
C8_9 C7_8 1_555 1_555
H2_9 C8_9 1_555 1_555
C9_8 C8_9 1_555 1_555
C10_8 C9_8 1_555 1_555
C11_9 C6_10 1_555 1_555
H3_9 C11_9 1_555 1_555
C12_8 C10_8 1_555 1_555
H4_8 C12_8 1_555 1_555
C13_8 C12_8 1_555 1_555
H5_8 C13_8 1_555 1_555
C14_8 C13_8 1_555 1_555
H6_8 C14_8 1_555 1_555
C15_9 C9_8 1_555 1_555
H7_9 C15_9 1_555 1_555
C16_9 H8_9 1_555 1_555
H9_9 C16_9 1_555 1_555
H10_9 C16_9 1_555 1_555
N1_10 C2_10 1_555 1_555
N2_6 C3_10 1_555 1_555
O7_8 C4_10 1_555 1_555
O5_9 C16_9 1_555 1_555
Zn3_3 N1_10 1_555 1_555
Zn3_6 N2_6 1_555 1_555
C5_10 N1_10 1_555 1_555
C5_10 N2_6 1_555 1_555
C10_8 C11_9 1_555 1_555
C14_8 C15_9 1_555 1_555
O7_8 Zn3_6 1_555 1_555
O5_9 Zn3_3 1_555 1_555
C1_10 C2_11 1_555 1_555
C2_11 C3_11 1_555 1_555
C3_11 C4_11 1_555 1_555
C5_11 C6_11 1_555 1_555
C6_11 C7_9 1_555 1_555
C7_9 H1_10 1_555 1_555
C11_10 C6_11 1_555 1_555
H3_10 C11_10 1_555 1_555
C16_10 H8_10 1_555 1_555
H9_10 C16_10 1_555 1_555
H10_10 C16_10 1_555 1_555
N1_11 C2_11 1_555 1_555
N3_6 C3_11 1_555 1_555
O1_10 C1_10 1_555 1_555
O2_10 C1_10 1_555 1_555
O7_2 C4_11 1_555 1_555
O5_10 C16_10 1_555 1_555
Zn3_5 N1_11 1_555 1_555
C5_11 N1_11 1_555 1_555
C5_11 N3_6 1_555 1_555
O1_10 Zn3_5 1_555 1_555
O5_10 Zn3_5 1_555 1_555
H2_10 C8_10 1_555 1_555
C9_9 C8_10 1_555 1_555
C10_9 C9_9 1_555 1_555
C12_9 C10_9 1_555 1_555
H4_9 C12_9 1_555 1_555
C13_9 C12_9 1_555 1_555
H5_9 C13_9 1_555 1_555
C14_9 C13_9 1_555 1_555
H6_9 C14_9 1_555 1_555
C15_10 C9_9 1_555 1_555
H7_10 C15_10 1_555 1_555
C14_9 C15_10 1_555 1_555
C1_11 C2_12 1_555 1_555
C2_12 C3_12 1_555 1_555
C3_12 C4_12 1_555 1_555
C4_12 O3_12 1_555 1_555
C5_12 C6_12 1_555 1_555
C6_12 C7_10 1_555 1_555
C7_10 H1_11 1_555 1_555
C8_11 C7_10 1_555 1_555
H2_11 C8_11 1_555 1_555
C9_10 C8_11 1_555 1_555
C10_10 C9_10 1_555 1_555
C11_11 C6_12 1_555 1_555
H3_11 C11_11 1_555 1_555
C12_10 C10_10 1_555 1_555
H4_10 C12_10 1_555 1_555
C13_10 C12_10 1_555 1_555
H5_10 C13_10 1_555 1_555
C14_10 C13_10 1_555 1_555
H6_10 C14_10 1_555 1_555
C15_11 C9_10 1_555 1_555
H7_11 C15_11 1_555 1_555
C16_11 H8_11 1_555 1_555
H9_11 C16_11 1_555 1_555
H10_11 C16_11 1_555 1_555
N1_12 C2_12 1_555 1_555
N3_5 C3_12 1_555 1_555
O1_11 C1_11 1_555 1_555
O2_11 C1_11 1_555 1_555
O7 C4_12 1_555 1_555
O5_11 C16_11 1_555 1_555
Zn3_6 N1_12 1_555 1_555
C5_12 N1_12 1_555 1_555
C5_12 N3_5 1_555 1_555
C10_10 C11_11 1_555 1_555
C14_10 C15_11 1_555 1_555
O1_11 Zn3_6 1_555 1_555
O5_11 Zn3_6 1_555 1_555
C2_13 C3_13 1_555 1_555
C3_13 C4_13 1_555 1_555
C4_13 O3_13 1_555 1_555
C5_13 C6_13 1_555 1_555
N1_13 C2_13 1_555 1_555
N2_7 C3_13 1_555 1_555
O7_3 C4_13 1_555 1_555
Zn3_8 N1_13 1_555 1_555
Zn3 N2_7 1_555 1_555
C5_13 N1_13 1_555 1_555
C5_13 N2_7 1_555 1_555
O7_3 Zn3 1_555 1_555
C1_12 C2_14 1_555 1_555
C2_14 C3_14 1_555 1_555
C3_14 C4_14 1_555 1_555
C4_14 O3_14 1_555 1_555
C5_14 C6_14 1_555 1_555
N1_14 C2_14 1_555 1_555
N2_8 C3_14 1_555 1_555
O1_12 C1_12 1_555 1_555
O2_12 C1_12 1_555 1_555
O7_4 C4_14 1_555 1_555
Zn3_7 N1_14 1_555 1_555
Zn3_2 N2_8 1_555 1_555
C5_14 N1_14 1_555 1_555
C5_14 N2_8 1_555 1_555
O1_12 Zn3_7 1_555 1_555
O7_4 Zn3_2 1_555 1_555
C8_12 C7_11 1_555 1_555
H2_12 C8_12 1_555 1_555
C9_11 C8_12 1_555 1_555
C10_11 C9_11 1_555 1_555
H3_12 C11_12 1_555 1_555
C12_11 C10_11 1_555 1_555
H4_11 C12_11 1_555 1_555
C13_11 C12_11 1_555 1_555
H5_11 C13_11 1_555 1_555
C14_11 C13_11 1_555 1_555
H6_11 C14_11 1_555 1_555
C15_12 C9_11 1_555 1_555
H7_12 C15_12 1_555 1_555
C16_12 H8_12 1_555 1_555
H9_12 C16_12 1_555 1_555
H10_12 C16_12 1_555 1_555
O5_12 C16_12 1_555 1_555
C10_11 C11_12 1_555 1_555
C14_11 C15_12 1_555 1_555
C7_12 H1_14 1_555 1_555
C8_13 C7_12 1_555 1_555
H2_13 C8_13 1_555 1_555
H7_13 C15_13 1_555 1_555
C1_13 C2_15 1_555 1_555
C2_15 C3_15 1_555 1_555
C3_15 C4_15 1_555 1_555
C4_15 O3_15 1_555 1_555
C5_15 C6_15 1_555 1_555
C10_12 C9_12 1_555 1_555
C11_13 C6_15 1_555 1_555
H3_13 C11_13 1_555 1_555
C12_12 C10_12 1_555 1_555
H4_12 C12_12 1_555 1_555
C13_12 C12_12 1_555 1_555
H5_12 C13_12 1_555 1_555
C14_12 C13_12 1_555 1_555
H6_12 C14_12 1_555 1_555
C16_13 H8_13 1_555 1_555
H9_13 C16_13 1_555 1_555
H10_13 C16_13 1_555 1_555
N1_15 C2_15 1_555 1_555
N3_8 C3_15 1_555 1_555
O1_13 C1_13 1_555 1_555
O2_13 C1_13 1_555 1_555
O7_6 C4_15 1_555 1_555
O5_13 C16_13 1_555 1_555
Zn3 N1_15 1_555 1_555
C5_15 N1_15 1_555 1_555
C5_15 N3_8 1_555 1_555
C10_12 C11_13 1_555 1_555
O1_13 Zn3 1_555 1_555
O5_13 Zn3 1_555 1_555
C1_14 C2_16 1_555 1_555
C2_16 C3_16 1_555 1_555
C3_16 C4_16 1_555 1_555
C5_16 C6_16 1_555 1_555
C11_14 C6_16 1_555 1_555
H3_14 C11_14 1_555 1_555
C16_14 H8_14 1_555 1_555
H9_14 C16_14 1_555 1_555
H10_14 C16_14 1_555 1_555
N1_16 C2_16 1_555 1_555
N3_7 C3_16 1_555 1_555
O1_14 C1_14 1_555 1_555
O2_14 C1_14 1_555 1_555
O7_5 C4_16 1_555 1_555
O5_14 C16_14 1_555 1_555
Zn3_2 N1_16 1_555 1_555
C5_16 N1_16 1_555 1_555
C5_16 N3_7 1_555 1_555
O1_14 Zn3_2 1_555 1_555
O5_14 Zn3_2 1_555 1_555
H2_14 C8_14 1_555 1_555
H7_14 C15_14 1_555 1_555
O1_15 C1_15 1_555 1_555
O2_15 C1_15 1_555 1_555
C8_15 C7_13 1_555 1_555
H2_15 C8_15 1_555 1_555
C9_13 C8_15 1_555 1_555
C10_13 C9_13 1_555 1_555
H3_15 C11_15 1_555 1_555
C12_13 C10_13 1_555 1_555
H4_13 C12_13 1_555 1_555
C13_13 C12_13 1_555 1_555
H5_13 C13_13 1_555 1_555
C14_13 C13_13 1_555 1_555
H6_13 C14_13 1_555 1_555
C15_15 C9_13 1_555 1_555
H7_15 C15_15 1_555 1_555
C16_15 H8_15 1_555 1_555
H9_15 C16_15 1_555 1_555
H10_15 C16_15 1_555 1_555
O5_15 C16_15 1_555 1_555
C10_13 C11_15 1_555 1_555
C14_13 C15_15 1_555 1_555
C7_14 H1_15 1_555 1_555
C10_14 C9_14 1_555 1_555
C12_14 C10_14 1_555 1_555
H4_14 C12_14 1_555 1_555
C13_14 C12_14 1_555 1_555
H5_14 C13_14 1_555 1_555
C14_14 C13_14 1_555 1_555
H6_14 C14_14 1_555 1_555
C8_16 C7_15 1_555 1_555
H2_16 C8_16 1_555 1_555
C9_15 C8_16 1_555 1_555
C10_15 C9_15 1_555 1_555
H3_16 C11_16 1_555 1_555
C12_15 C10_15 1_555 1_555
H4_15 C12_15 1_555 1_555
C13_15 C12_15 1_555 1_555
H5_15 C13_15 1_555 1_555
C14_15 C13_15 1_555 1_555
H6_15 C14_15 1_555 1_555
C15_16 C9_15 1_555 1_555
H7_16 C15_16 1_555 1_555
C16_16 H8_16 1_555 1_555
H9_16 C16_16 1_555 1_555
H10_16 C16_16 1_555 1_555
O5_16 C16_16 1_555 1_555
C10_15 C11_16 1_555 1_555
C14_15 C15_16 1_555 1_555
O1_16 C1_16 1_555 1_555
O2_16 C1_16 1_555 1_555
C10_16 C9_16 1_555 1_555
C12_16 C10_16 1_555 1_555
H4_16 C12_16 1_555 1_555
C13_16 C12_16 1_555 1_555
H5_16 C13_16 1_555 1_555
C14_16 C13_16 1_555 1_555
H6_16 C14_16 1_555 1_555
C7_16 H1_16 1_555 1_555

#END
