
###############################################################################
#
# This file contains modified crystal structure data generated from the
# MOF subset of the Cambridge Structural Database (CSD) v543 
# hosted by the Cambridge Crystallographic Data Centre (CCDC).
#
# This work is licensed under the Creative Commons
# Attribution-NonCommercial-ShareAlike 4.0 International License.
# To view a copy of this license, visit
# http://creativecommons.org/licenses/by-nc-sa/4.0/
# or send a letter to
# Creative Commons, PO Box 1866, Mountain View, CA 94042, USA.
#
# CIF created using the CSD Python API on 29 September 2022
# The structure has been converted into the P1 space group
# The structure has a 3D framework
# The original CSD entry ZOCWUM is in the cubic crystal system
# The framework has been calculated to contain at least 10.0% void space
# The void calculation uses a probe of radius 1.32A, grid spacing 0.4
# H atom positions have been added when not included in the experimental data
#
###############################################################################

data_ZOCWUM
_chemical_formula_moiety         '(C816 H832 O696 S96 Zr136)n'
_symmetry_cell_setting           triclinic
_symmetry_space_group_name_H-M   'P 1'
_symmetry_Int_Tables_number      1
_space_group_name_Hall           'P 1'
loop_
_symmetry_equiv_pos_site_id
_symmetry_equiv_pos_as_xyz
1 x,y,z
_cell_length_a                   38.9621
_cell_length_b                   38.9621
_cell_length_c                   38.9621
_cell_angle_alpha                90
_cell_angle_beta                 90
_cell_angle_gamma                90
_cell_volume                     59146.2
loop_
_atom_site_label
_atom_site_type_symbol
_atom_site_fract_x
_atom_site_fract_y
_atom_site_fract_z
Zr1 Zr 0.20673 0.20673 0.00000
O1 O 0.21179 0.16455 0.03640
O2 O 0.25940 0.19674 0.00000
Zr2 Zr 0.28069 0.21931 0.04459
O3 O 0.22848 0.22848 0.04396
C1 C 0.23357 0.15705 0.06083
H1 H 0.26349 0.17181 0.00000
O4 O 0.26146 0.17414 0.06714
O5 O 0.31796 0.18204 0.02953
O6 O 0.27091 0.22909 0.09962
C2 C 0.22603 0.12855 0.08404
C3 C 0.32867 0.17133 0.00000
C4 C 0.25000 0.25000 0.11479
C5 C 0.19785 0.10718 0.08211
S1 S 0.25291 0.11736 0.11736
C6 C 0.35567 0.14433 0.00000
C7 C 0.25000 0.25000 0.15297
H2 H 0.17761 0.10996 0.06346
O7 O 0.21179 0.03640 0.16455
C8 C 0.23357 0.06083 0.15705
O8 O 0.26146 0.06714 0.17414
C9 C 0.22603 0.08404 0.12855
C10 C 0.19785 0.08211 0.10718
H3 H 0.17761 0.06346 0.10996
O10 O 0.22909 0.27091 0.09962
O11 O 0.03640 0.21179 0.16455
O12 O -0.00000 0.25940 0.19674
Zr3 Zr 0.04459 0.28069 0.21931
O13 O 0.04396 0.22848 0.22848
C11 C 0.06083 0.23357 0.15705
H4 H 0.00000 0.26349 0.17181
O14 O 0.06714 0.26146 0.17414
C12 C 0.08404 0.22603 0.12855
C13 C 0.08211 0.19785 0.10718
S2 S 0.11736 0.25291 0.11736
H5 H 0.06346 0.17761 0.10996
O15 O 0.16455 0.21179 0.03640
C14 C 0.15705 0.23357 0.06083
O16 O 0.17414 0.26146 0.06714
C15 C 0.12855 0.22603 0.08404
C16 C 0.10718 0.19785 0.08211
H6 H 0.10996 0.17761 0.06346
Zr4 Zr 0.00000 0.20673 0.20673
Zr5 Zr 0.20673 0.00000 0.20673
O19 O 0.19674 0.25940 0.00000
O20 O 0.00000 0.30326 0.24060
O21 O 0.30326 0.24060 0.00000
Zr8 Zr 0.21931 0.28069 0.04459
Zr9 Zr 0.28069 0.04459 0.21931
Zr10 Zr 0.04459 0.21931 0.28069
O23 O 0.04396 0.27152 0.27152
O24 O 0.27152 0.27152 0.04396
O25 O 0.06714 0.32586 0.23854
O26 O 0.32586 0.23854 0.06714
O27 O 0.02953 0.31796 0.18204
O28 O 0.09962 0.27091 0.22909
H7 H 0.346121 0.121605 0.0131759
H9 H 0.378395 0.153879 0.0131759
H10 H 0.275454 0.25682 0.162287
H11 H 0.231367 0.268633 0.162287
H12 H 0.24318 0.224546 0.162287
Zr1_2 Zr 0.20673 0.20673 1.00000
O2_2 O 0.25940 0.19674 1.00000
H1_2 H 0.26349 0.17181 1.00000
C3_2 C 0.32867 0.17133 1.00000
C6_2 C 0.35567 0.14433 1.00000
O9 O 0.31796 0.18204 0.97047
O17 O 0.16455 0.21179 0.96360
O18 O 0.21179 0.16455 0.96360
O19_2 O 0.19674 0.25940 1.00000
O21_2 O 0.30326 0.24060 1.00000
Zr6 Zr 0.28069 0.21931 0.95541
O22 O 0.22848 0.22848 0.95604
H8 H 0.362258 0.137742 0.973648
Zr5_2 Zr 0.20673 1.00000 0.20673
O12_2 O 1.00000 0.25940 0.19674
H4_2 H 1.00000 0.26349 0.17181
Zr4_2 Zr 1.00000 0.20673 0.20673
O20_2 O 1.00000 0.30326 0.24060
Zr7 Zr 0.95541 0.28069 0.21931
O12_3 O 0.00000 0.74060 0.19674
H4_3 H -0.00000 0.73651 0.17181
Zr4_3 Zr 0.00000 0.79327 0.20673
O20_3 O 0.00000 0.69674 0.24060
Zr7_2 Zr 0.04459 0.71931 0.21931
Zr5_3 Zr 0.79327 0.00000 0.20673
Zr1_3 Zr 0.79327 0.79327 0.00000
O1_2 O 0.78821 0.83545 0.03640
O2_3 O 0.74060 0.80326 0.00000
Zr2_2 Zr 0.71931 0.78069 0.04459
O3_2 O 0.77152 0.77152 0.04396
C1_2 C 0.76643 0.84295 0.06083
H1_3 H 0.73651 0.82819 0.00000
O4_2 O 0.73854 0.82586 0.06714
O5_2 O 0.68204 0.81796 0.02953
O6_2 O 0.72909 0.77091 0.09962
C2_2 C 0.77397 0.87145 0.08404
C3_3 C 0.67133 0.82867 0.00000
C4_2 C 0.75000 0.75000 0.11479
C5_2 C 0.80215 0.89282 0.08211
S1_2 S 0.74709 0.88264 0.11736
C6_3 C 0.64433 0.85567 0.00000
C7_2 C 0.75000 0.75000 0.15297
H2_2 H 0.82239 0.89004 0.06346
O7_2 O 0.78821 0.96360 0.16455
C8_2 C 0.76643 0.93917 0.15705
O8_2 O 0.73854 0.93286 0.17414
C9_2 C 0.77397 0.91596 0.12855
C10_2 C 0.80215 0.91789 0.10718
H3_2 H 0.82239 0.93654 0.10996
O10_2 O 0.77091 0.72909 0.09962
O11_2 O 0.96360 0.78821 0.16455
O12_4 O 1.00000 0.74060 0.19674
Zr3_2 Zr 0.95541 0.71931 0.21931
O13_2 O 0.95604 0.77152 0.22848
C11_2 C 0.93917 0.76643 0.15705
H4_4 H 1.00000 0.73651 0.17181
O14_2 O 0.93286 0.73854 0.17414
C12_2 C 0.91596 0.77397 0.12855
C13_2 C 0.91789 0.80215 0.10718
S2_2 S 0.88264 0.74709 0.11736
H5_2 H 0.93654 0.82239 0.10996
O15_2 O 0.83545 0.78821 0.03640
C14_2 C 0.84295 0.76643 0.06083
O16_2 O 0.82586 0.73854 0.06714
C15_2 C 0.87145 0.77397 0.08404
C16_2 C 0.89282 0.80215 0.08211
H6_2 H 0.89004 0.82239 0.06346
Zr4_4 Zr 1.00000 0.79327 0.20673
Zr5_4 Zr 0.79327 1.00000 0.20673
O19_3 O 0.80326 0.74060 0.00000
O20_4 O 1.00000 0.69674 0.24060
O21_3 O 0.69674 0.75940 0.00000
Zr8_2 Zr 0.78069 0.71931 0.04459
Zr9_2 Zr 0.71931 0.95541 0.21931
Zr10_2 Zr 0.95541 0.78069 0.28069
O23_2 O 0.95604 0.72848 0.27152
O24_2 O 0.72848 0.72848 0.04396
O25_2 O 0.93286 0.67414 0.23854
O26_2 O 0.67414 0.76146 0.06714
O27_2 O 0.97047 0.68204 0.18204
O28_2 O 0.90038 0.72909 0.22909
H7_2 H 0.653879 0.878395 0.0131759
H9_2 H 0.621605 0.846121 0.0131759
H10_2 H 0.724546 0.74318 0.162287
H11_2 H 0.768633 0.731367 0.162287
H12_2 H 0.75682 0.775454 0.162287
Zr1_4 Zr 0.79327 0.79327 1.00000
O2_4 O 0.74060 0.80326 1.00000
H1_4 H 0.73651 0.82819 1.00000
C3_4 C 0.67133 0.82867 1.00000
C6_4 C 0.64433 0.85567 1.00000
O9_2 O 0.68204 0.81796 0.97047
O17_2 O 0.83545 0.78821 0.96360
O18_2 O 0.78821 0.83545 0.96360
O19_4 O 0.80326 0.74060 1.00000
O21_4 O 0.69674 0.75940 1.00000
Zr6_2 Zr 0.71931 0.78069 0.95541
O22_2 O 0.77152 0.77152 0.95604
H8_2 H 0.637742 0.862258 0.973648
O12_5 O 0.00000 0.25940 0.80326
H4_5 H 0.00000 0.26349 0.82819
Zr4_5 Zr 0.00000 0.20673 0.79327
O20_5 O 0.00000 0.30326 0.75940
Zr7_3 Zr 0.04459 0.28069 0.78069
Zr1_5 Zr 0.79327 0.20673 0.00000
O2_5 O 0.74060 0.19674 0.00000
H1_5 H 0.73651 0.17181 0.00000
C3_5 C 0.67133 0.17133 0.00000
C6_5 C 0.64433 0.14433 0.00000
O9_3 O 0.68204 0.18204 0.02953
O17_3 O 0.83545 0.21179 0.03640
O18_3 O 0.78821 0.16455 0.03640
O19_5 O 0.80326 0.25940 0.00000
O21_5 O 0.69674 0.24060 0.00000
Zr6_3 Zr 0.71931 0.21931 0.04459
O22_3 O 0.77152 0.22848 0.04396
H8_3 H 0.637742 0.137742 0.0263517
Zr1_6 Zr 0.79327 0.20673 1.00000
O1_3 O 0.78821 0.16455 0.96360
O2_6 O 0.74060 0.19674 1.00000
Zr2_3 Zr 0.71931 0.21931 0.95541
O3_3 O 0.77152 0.22848 0.95604
C1_3 C 0.76643 0.15705 0.93917
H1_6 H 0.73651 0.17181 1.00000
O4_3 O 0.73854 0.17414 0.93286
O5_3 O 0.68204 0.18204 0.97047
O6_3 O 0.72909 0.22909 0.90038
C2_3 C 0.77397 0.12855 0.91596
C3_6 C 0.67133 0.17133 1.00000
C4_3 C 0.75000 0.25000 0.88521
C5_3 C 0.80215 0.10718 0.91789
S1_3 S 0.74709 0.11736 0.88264
C6_6 C 0.64433 0.14433 1.00000
C7_3 C 0.75000 0.25000 0.84703
H2_3 H 0.82239 0.10996 0.93654
O7_3 O 0.78821 0.03640 0.83545
C8_3 C 0.76643 0.06083 0.84295
O8_3 O 0.73854 0.06714 0.82586
C9_3 C 0.77397 0.08404 0.87145
C10_3 C 0.80215 0.08211 0.89282
H3_3 H 0.82239 0.06346 0.89004
O10_3 O 0.77091 0.27091 0.90038
O11_3 O 0.96360 0.21179 0.83545
O12_6 O 1.00000 0.25940 0.80326
Zr3_3 Zr 0.95541 0.28069 0.78069
O13_3 O 0.95604 0.22848 0.77152
C11_3 C 0.93917 0.23357 0.84295
H4_6 H 1.00000 0.26349 0.82819
O14_3 O 0.93286 0.26146 0.82586
C12_3 C 0.91596 0.22603 0.87145
C13_3 C 0.91789 0.19785 0.89282
S2_3 S 0.88264 0.25291 0.88264
H5_3 H 0.93654 0.17761 0.89004
O15_3 O 0.83545 0.21179 0.96360
C14_3 C 0.84295 0.23357 0.93917
O16_3 O 0.82586 0.26146 0.93286
C15_3 C 0.87145 0.22603 0.91596
C16_3 C 0.89282 0.19785 0.91789
H6_3 H 0.89004 0.17761 0.93654
Zr4_6 Zr 1.00000 0.20673 0.79327
Zr5_5 Zr 0.79327 0.00000 0.79327
O19_6 O 0.80326 0.25940 1.00000
O20_6 O 1.00000 0.30326 0.75940
O21_6 O 0.69674 0.24060 1.00000
Zr8_3 Zr 0.78069 0.28069 0.95541
Zr9_3 Zr 0.71931 0.04459 0.78069
Zr10_3 Zr 0.95541 0.21931 0.71931
O23_3 O 0.95604 0.27152 0.72848
O24_3 O 0.72848 0.27152 0.95604
O25_3 O 0.93286 0.32586 0.76146
O26_3 O 0.67414 0.23854 0.93286
O27_3 O 0.97047 0.31796 0.81796
O28_3 O 0.90038 0.27091 0.77091
H7_3 H 0.653879 0.121605 0.986824
H9_3 H 0.621605 0.153879 0.986824
H10_3 H 0.724546 0.25682 0.837713
H11_3 H 0.768633 0.268633 0.837713
H12_3 H 0.75682 0.224546 0.837713
Zr5_6 Zr 0.79327 1.00000 0.79327
Zr5_7 Zr 0.20673 0.00000 0.79327
Zr1_7 Zr 0.20673 0.79327 0.00000
O2_7 O 0.25940 0.80326 0.00000
H1_7 H 0.26349 0.82819 0.00000
C3_7 C 0.32867 0.82867 0.00000
C6_7 C 0.35567 0.85567 0.00000
O9_4 O 0.31796 0.81796 0.02953
O17_4 O 0.16455 0.78821 0.03640
O18_4 O 0.21179 0.83545 0.03640
O19_7 O 0.19674 0.74060 0.00000
O21_7 O 0.30326 0.75940 0.00000
Zr6_4 Zr 0.28069 0.78069 0.04459
O22_4 O 0.22848 0.77152 0.04396
H8_4 H 0.362258 0.862258 0.0263517
Zr1_8 Zr 0.20673 0.79327 1.00000
O1_4 O 0.21179 0.83545 0.96360
O2_8 O 0.25940 0.80326 1.00000
Zr2_4 Zr 0.28069 0.78069 0.95541
O3_4 O 0.22848 0.77152 0.95604
C1_4 C 0.23357 0.84295 0.93917
H1_8 H 0.26349 0.82819 1.00000
O4_4 O 0.26146 0.82586 0.93286
O5_4 O 0.31796 0.81796 0.97047
O6_4 O 0.27091 0.77091 0.90038
C2_4 C 0.22603 0.87145 0.91596
C3_8 C 0.32867 0.82867 1.00000
C4_4 C 0.25000 0.75000 0.88521
C5_4 C 0.19785 0.89282 0.91789
S1_4 S 0.25291 0.88264 0.88264
C6_8 C 0.35567 0.85567 1.00000
C7_4 C 0.25000 0.75000 0.84703
H2_4 H 0.17761 0.89004 0.93654
O7_4 O 0.21179 0.96360 0.83545
C8_4 C 0.23357 0.93917 0.84295
O8_4 O 0.26146 0.93286 0.82586
C9_4 C 0.22603 0.91596 0.87145
C10_4 C 0.19785 0.91789 0.89282
H3_4 H 0.17761 0.93654 0.89004
O10_4 O 0.22909 0.72909 0.90038
O11_4 O 0.03640 0.78821 0.83545
O12_7 O 0.00000 0.74060 0.80326
Zr3_4 Zr 0.04459 0.71931 0.78069
O13_4 O 0.04396 0.77152 0.77152
C11_4 C 0.06083 0.76643 0.84295
H4_7 H -0.00000 0.73651 0.82819
O14_4 O 0.06714 0.73854 0.82586
C12_4 C 0.08404 0.77397 0.87145
C13_4 C 0.08211 0.80215 0.89282
S2_4 S 0.11736 0.74709 0.88264
H5_4 H 0.06346 0.82239 0.89004
O15_4 O 0.16455 0.78821 0.96360
C14_4 C 0.15705 0.76643 0.93917
O16_4 O 0.17414 0.73854 0.93286
C15_4 C 0.12855 0.77397 0.91596
C16_4 C 0.10718 0.80215 0.91789
H6_4 H 0.10996 0.82239 0.93654
Zr4_7 Zr 0.00000 0.79327 0.79327
Zr5_8 Zr 0.20673 1.00000 0.79327
O19_8 O 0.19674 0.74060 1.00000
O20_7 O -0.00000 0.69674 0.75940
O21_8 O 0.30326 0.75940 1.00000
Zr8_4 Zr 0.21931 0.71931 0.95541
Zr9_4 Zr 0.28069 0.95541 0.78069
Zr10_4 Zr 0.04459 0.78069 0.71931
O23_4 O 0.04396 0.72848 0.72848
O24_4 O 0.27152 0.72848 0.95604
O25_4 O 0.06714 0.67414 0.76146
O26_4 O 0.32586 0.76146 0.93286
O27_4 O 0.02953 0.68204 0.81796
O28_4 O 0.09962 0.72909 0.77091
H7_4 H 0.346121 0.878395 0.986824
H9_4 H 0.378395 0.846121 0.986824
H10_4 H 0.275454 0.74318 0.837713
H11_4 H 0.231367 0.731367 0.837713
H12_4 H 0.24318 0.775454 0.837713
O12_8 O 1.00000 0.74060 0.80326
H4_8 H 1.00000 0.73651 0.82819
Zr4_8 Zr 1.00000 0.79327 0.79327
O20_8 O 1.00000 0.69674 0.75940
Zr7_4 Zr 0.95541 0.71931 0.78069
C3_9 C 0.00000 0.32867 0.17133
C4_5 C 0.11479 0.25000 0.25000
C6_9 C 0.00000 0.35567 0.14433
C7_5 C 0.15297 0.25000 0.25000
O10_5 O 0.09962 0.22909 0.27091
O11_5 O 0.16455 0.03640 0.21179
O12_9 O 0.19674 -0.00000 0.25940
Zr3_5 Zr 0.21931 0.04459 0.28069
O13_5 O 0.22848 0.04396 0.22848
C11_5 C 0.15705 0.06083 0.23357
H4_9 H 0.17181 0.00000 0.26349
O14_5 O 0.17414 0.06714 0.26146
C12_5 C 0.12855 0.08404 0.22603
C13_5 C 0.10718 0.08211 0.19785
S2_5 S 0.11736 0.11736 0.25291
H5_5 H 0.10996 0.06346 0.17761
O15_5 O 0.03640 0.16455 0.21179
C14_5 C 0.06083 0.15705 0.23357
O16_5 O 0.06714 0.17414 0.26146
C15_5 C 0.08404 0.12855 0.22603
C16_5 C 0.08211 0.10718 0.19785
H6_5 H 0.06346 0.10996 0.17761
O19_9 O -0.00000 0.19674 0.25940
O20_9 O 0.24060 0.00000 0.30326
O23_5 O 0.27152 0.04396 0.27152
O25_5 O 0.23854 0.06714 0.32586
O27_5 O 0.18204 0.02953 0.31796
O28_5 O 0.22909 0.09962 0.27091
H7_5 H 0.0131759 0.346121 0.121605
H9_5 H 0.0131759 0.378395 0.153879
H10_5 H 0.162287 0.275454 0.25682
H11_5 H 0.162287 0.231367 0.268633
H12_5 H 0.162287 0.24318 0.224546
O12_10 O 0.19674 1.00000 0.25940
H4_10 H 0.17181 1.00000 0.26349
O20_10 O 0.24060 1.00000 0.30326
Zr7_5 Zr 0.21931 0.95541 0.28069
C3_10 C 1.00000 0.32867 0.17133
C6_10 C 1.00000 0.35567 0.14433
O9_5 O 0.97047 0.31796 0.18204
O17_5 O 0.96360 0.16455 0.21179
O18_5 O 0.96360 0.21179 0.16455
O19_10 O 1.00000 0.19674 0.25940
O22_5 O 0.95604 0.22848 0.22848
H8_5 H 0.973648 0.362258 0.137742
O12_11 O 0.19674 0.00000 0.74060
H4_11 H 0.17181 0.00000 0.73651
O20_11 O 0.24060 0.00000 0.69674
Zr7_6 Zr 0.21931 0.04459 0.71931
C3_11 C -0.00000 0.67133 0.82867
C4_6 C 0.11479 0.75000 0.75000
C6_11 C 0.00000 0.64433 0.85567
C7_6 C 0.15297 0.75000 0.75000
O10_6 O 0.09962 0.77091 0.72909
O11_6 O 0.16455 0.96360 0.78821
O12_12 O 0.19674 1.00000 0.74060
Zr3_6 Zr 0.21931 0.95541 0.71931
O13_6 O 0.22848 0.95604 0.77152
C11_6 C 0.15705 0.93917 0.76643
H4_12 H 0.17181 1.00000 0.73651
O14_6 O 0.17414 0.93286 0.73854
C12_6 C 0.12855 0.91596 0.77397
C13_6 C 0.10718 0.91789 0.80215
S2_6 S 0.11736 0.88264 0.74709
H5_6 H 0.10996 0.93654 0.82239
O15_6 O 0.03640 0.83545 0.78821
C14_6 C 0.06083 0.84295 0.76643
O16_6 O 0.06714 0.82586 0.73854
C15_6 C 0.08404 0.87145 0.77397
C16_6 C 0.08211 0.89282 0.80215
H6_6 H 0.06346 0.89004 0.82239
O19_11 O 0.00000 0.80326 0.74060
O20_12 O 0.24060 1.00000 0.69674
O23_6 O 0.27152 0.95604 0.72848
O25_6 O 0.23854 0.93286 0.67414
O27_6 O 0.18204 0.97047 0.68204
O28_6 O 0.22909 0.90038 0.72909
H7_6 H 0.0131759 0.653879 0.878395
H9_6 H 0.0131759 0.621605 0.846121
H10_6 H 0.162287 0.724546 0.74318
H11_6 H 0.162287 0.768633 0.731367
H12_6 H 0.162287 0.75682 0.775454
C3_12 C 1.00000 0.67133 0.82867
C6_12 C 1.00000 0.64433 0.85567
O9_6 O 0.97047 0.68204 0.81796
O17_6 O 0.96360 0.83545 0.78821
O18_6 O 0.96360 0.78821 0.83545
O19_12 O 1.00000 0.80326 0.74060
O22_6 O 0.95604 0.77152 0.77152
H8_6 H 0.973648 0.637742 0.862258
C3_13 C -0.00000 0.67133 0.17133
C6_13 C 0.00000 0.64433 0.14433
O9_7 O 0.02953 0.68204 0.18204
O17_7 O 0.03640 0.83545 0.21179
O18_7 O 0.03640 0.78821 0.16455
O19_13 O 0.00000 0.80326 0.25940
O22_7 O 0.04396 0.77152 0.22848
H8_7 H 0.0263517 0.637742 0.137742
O12_13 O 0.80326 0.00000 0.25940
H4_13 H 0.82819 -0.00000 0.26349
O20_13 O 0.75940 0.00000 0.30326
Zr7_7 Zr 0.78069 0.04459 0.28069
C3_14 C 1.00000 0.67133 0.17133
C4_7 C 0.88521 0.75000 0.25000
C6_14 C 1.00000 0.64433 0.14433
C7_7 C 0.84703 0.75000 0.25000
O10_7 O 0.90038 0.77091 0.27091
O11_7 O 0.83545 0.96360 0.21179
O12_14 O 0.80326 1.00000 0.25940
Zr3_7 Zr 0.78069 0.95541 0.28069
O13_7 O 0.77152 0.95604 0.22848
C11_7 C 0.84295 0.93917 0.23357
H4_14 H 0.82819 1.00000 0.26349
O14_7 O 0.82586 0.93286 0.26146
C12_7 C 0.87145 0.91596 0.22603
C13_7 C 0.89282 0.91789 0.19785
S2_7 S 0.88264 0.88264 0.25291
H5_7 H 0.89004 0.93654 0.17761
O15_7 O 0.96360 0.83545 0.21179
C14_7 C 0.93917 0.84295 0.23357
O16_7 O 0.93286 0.82586 0.26146
C15_7 C 0.91596 0.87145 0.22603
C16_7 C 0.91789 0.89282 0.19785
H6_7 H 0.93654 0.89004 0.17761
O19_14 O 1.00000 0.80326 0.25940
O20_14 O 0.75940 1.00000 0.30326
O23_7 O 0.72848 0.95604 0.27152
O25_7 O 0.76146 0.93286 0.32586
O27_7 O 0.81796 0.97047 0.31796
O28_7 O 0.77091 0.90038 0.27091
H7_7 H 0.986824 0.653879 0.121605
H9_7 H 0.986824 0.621605 0.153879
H10_7 H 0.837713 0.724546 0.25682
H11_7 H 0.837713 0.768633 0.268633
H12_7 H 0.837713 0.75682 0.224546
C3_15 C 0.00000 0.32867 0.82867
C6_15 C 0.00000 0.35567 0.85567
O9_8 O 0.02953 0.31796 0.81796
O17_8 O 0.03640 0.16455 0.78821
O18_8 O 0.03640 0.21179 0.83545
O19_15 O 0.00000 0.19674 0.74060
O22_8 O 0.04396 0.22848 0.77152
H8_8 H 0.0263517 0.362258 0.862258
C3_16 C 1.00000 0.32867 0.82867
C4_8 C 0.88521 0.25000 0.75000
C6_16 C 1.00000 0.35567 0.85567
C7_8 C 0.84703 0.25000 0.75000
O10_8 O 0.90038 0.22909 0.72909
O11_8 O 0.83545 0.03640 0.78821
O12_15 O 0.80326 0.00000 0.74060
Zr3_8 Zr 0.78069 0.04459 0.71931
O13_8 O 0.77152 0.04396 0.77152
C11_8 C 0.84295 0.06083 0.76643
H4_15 H 0.82819 0.00000 0.73651
O14_8 O 0.82586 0.06714 0.73854
C12_8 C 0.87145 0.08404 0.77397
C13_8 C 0.89282 0.08211 0.80215
S2_8 S 0.88264 0.11736 0.74709
H5_8 H 0.89004 0.06346 0.82239
O15_8 O 0.96360 0.16455 0.78821
C14_8 C 0.93917 0.15705 0.76643
O16_8 O 0.93286 0.17414 0.73854
C15_8 C 0.91596 0.12855 0.77397
C16_8 C 0.91789 0.10718 0.80215
H6_8 H 0.93654 0.10996 0.82239
O19_16 O 1.00000 0.19674 0.74060
O20_15 O 0.75940 0.00000 0.69674
O23_8 O 0.72848 0.04396 0.72848
O25_8 O 0.76146 0.06714 0.67414
O27_8 O 0.81796 0.02953 0.68204
O28_8 O 0.77091 0.09962 0.72909
H7_8 H 0.986824 0.346121 0.878395
H9_8 H 0.986824 0.378395 0.846121
H10_8 H 0.837713 0.275454 0.74318
H11_8 H 0.837713 0.231367 0.731367
H12_8 H 0.837713 0.24318 0.775454
O12_16 O 0.80326 1.00000 0.74060
H4_16 H 0.82819 1.00000 0.73651
O20_16 O 0.75940 1.00000 0.69674
Zr7_8 Zr 0.78069 0.95541 0.71931
C3_17 C 0.17133 0.00000 0.32867
C4_9 C 0.25000 0.11479 0.25000
C6_17 C 0.14433 0.00000 0.35567
C7_9 C 0.25000 0.15297 0.25000
O10_9 O 0.27091 0.09962 0.22909
O19_17 O 0.25940 0.00000 0.19674
H7_9 H 0.121605 0.0131759 0.346121
H9_9 H 0.153879 0.0131759 0.378395
H10_9 H 0.25682 0.162287 0.275454
H11_9 H 0.268633 0.162287 0.231367
H12_9 H 0.224546 0.162287 0.24318
C3_18 C 0.17133 1.00000 0.32867
C6_18 C 0.14433 1.00000 0.35567
O9_9 O 0.18204 0.97047 0.31796
O17_9 O 0.21179 0.96360 0.16455
O18_9 O 0.16455 0.96360 0.21179
O19_18 O 0.25940 1.00000 0.19674
O22_9 O 0.22848 0.95604 0.22848
H8_9 H 0.137742 0.973648 0.362258
C3_19 C 0.82867 -0.00000 0.67133
C4_10 C 0.75000 0.11479 0.75000
C6_19 C 0.85567 0.00000 0.64433
C7_10 C 0.75000 0.15297 0.75000
O10_10 O 0.72909 0.09962 0.77091
O19_19 O 0.74060 0.00000 0.80326
H7_10 H 0.878395 0.0131759 0.653879
H9_10 H 0.846121 0.0131759 0.621605
H10_10 H 0.74318 0.162287 0.724546
H11_10 H 0.731367 0.162287 0.768633
H12_10 H 0.775454 0.162287 0.75682
C3_20 C 0.82867 1.00000 0.67133
C6_20 C 0.85567 1.00000 0.64433
O9_10 O 0.81796 0.97047 0.68204
O17_10 O 0.78821 0.96360 0.83545
O18_10 O 0.83545 0.96360 0.78821
O19_20 O 0.74060 1.00000 0.80326
O22_10 O 0.77152 0.95604 0.77152
H8_10 H 0.862258 0.973648 0.637742
C3_21 C 0.17133 -0.00000 0.67133
C6_21 C 0.14433 0.00000 0.64433
O9_11 O 0.18204 0.02953 0.68204
O17_11 O 0.21179 0.03640 0.83545
O18_11 O 0.16455 0.03640 0.78821
O19_21 O 0.25940 0.00000 0.80326
O22_11 O 0.22848 0.04396 0.77152
H8_11 H 0.137742 0.0263517 0.637742
C3_22 C 0.17133 1.00000 0.67133
C4_11 C 0.25000 0.88521 0.75000
C6_22 C 0.14433 1.00000 0.64433
C7_11 C 0.25000 0.84703 0.75000
O10_11 O 0.27091 0.90038 0.77091
O19_22 O 0.25940 1.00000 0.80326
H7_11 H 0.121605 0.986824 0.653879
H9_11 H 0.153879 0.986824 0.621605
H10_11 H 0.25682 0.837713 0.724546
H11_11 H 0.268633 0.837713 0.768633
H12_11 H 0.224546 0.837713 0.75682
C3_23 C 0.82867 0.00000 0.32867
C6_23 C 0.85567 0.00000 0.35567
O9_12 O 0.81796 0.02953 0.31796
O17_12 O 0.78821 0.03640 0.16455
O18_12 O 0.83545 0.03640 0.21179
O19_23 O 0.74060 0.00000 0.19674
O22_12 O 0.77152 0.04396 0.22848
H8_12 H 0.862258 0.0263517 0.362258
C3_24 C 0.82867 1.00000 0.32867
C4_12 C 0.75000 0.88521 0.25000
C6_24 C 0.85567 1.00000 0.35567
C7_12 C 0.75000 0.84703 0.25000
O10_12 O 0.72909 0.90038 0.22909
O19_24 O 0.74060 1.00000 0.19674
H7_12 H 0.878395 0.986824 0.346121
H9_12 H 0.846121 0.986824 0.378395
H10_12 H 0.74318 0.837713 0.275454
H11_12 H 0.731367 0.837713 0.231367
H12_12 H 0.775454 0.837713 0.24318
H1_9 H 0.17181 0.26349 0.00000
C3_25 C 0.17133 0.32867 0.00000
C6_25 C 0.14433 0.35567 0.00000
O9_13 O 0.18204 0.31796 0.02953
O21_9 O 0.24060 0.30326 0.00000
H8_13 H 0.137742 0.362258 0.0263517
Zr2_5 Zr 0.21931 0.28069 0.95541
C1_5 C 0.15705 0.23357 0.93917
H1_10 H 0.17181 0.26349 1.00000
O4_5 O 0.17414 0.26146 0.93286
O5_5 O 0.18204 0.31796 0.97047
O6_5 O 0.22909 0.27091 0.90038
C2_5 C 0.12855 0.22603 0.91596
C3_26 C 0.17133 0.32867 1.00000
C4_13 C 0.25000 0.25000 0.88521
C5_5 C 0.10718 0.19785 0.91789
S1_5 S 0.11736 0.25291 0.88264
C6_26 C 0.14433 0.35567 1.00000
C7_13 C 0.25000 0.25000 0.84703
H2_5 H 0.10996 0.17761 0.93654
C8_5 C 0.06083 0.23357 0.84295
O8_5 O 0.06714 0.26146 0.82586
C9_5 C 0.08404 0.22603 0.87145
C10_5 C 0.08211 0.19785 0.89282
H3_5 H 0.06346 0.17761 0.89004
O10_13 O 0.27091 0.22909 0.90038
Zr3_9 Zr 0.28069 0.04459 0.78069
C11_9 C 0.23357 0.06083 0.84295
H4_17 H 0.26349 0.00000 0.82819
O14_9 O 0.26146 0.06714 0.82586
C12_9 C 0.22603 0.08404 0.87145
C13_9 C 0.19785 0.08211 0.89282
S2_9 S 0.25291 0.11736 0.88264
H5_9 H 0.17761 0.06346 0.89004
C14_9 C 0.23357 0.15705 0.93917
O16_9 O 0.26146 0.17414 0.93286
C15_9 C 0.22603 0.12855 0.91596
C16_9 C 0.19785 0.10718 0.91789
H6_9 H 0.17761 0.10996 0.93654
O20_17 O 0.30326 0.00000 0.75940
O21_10 O 0.24060 0.30326 1.00000
O23_9 O 0.27152 0.04396 0.72848
O24_5 O 0.27152 0.27152 0.95604
O25_9 O 0.32586 0.06714 0.76146
O26_5 O 0.23854 0.32586 0.93286
O27_9 O 0.31796 0.02953 0.81796
O28_9 O 0.27091 0.09962 0.77091
H7_13 H 0.121605 0.346121 0.986824
H9_13 H 0.153879 0.378395 0.986824
H10_13 H 0.25682 0.275454 0.837713
H11_13 H 0.268633 0.231367 0.837713
H12_13 H 0.224546 0.24318 0.837713
H4_18 H 0.26349 1.00000 0.82819
O20_18 O 0.30326 1.00000 0.75940
H4_19 H 0.73651 0.00000 0.82819
O20_19 O 0.69674 0.00000 0.75940
H1_11 H 0.82819 0.73651 0.00000
C3_27 C 0.82867 0.67133 0.00000
C6_27 C 0.85567 0.64433 0.00000
O9_14 O 0.81796 0.68204 0.02953
O21_11 O 0.75940 0.69674 0.00000
H8_14 H 0.862258 0.637742 0.0263517
Zr2_6 Zr 0.78069 0.71931 0.95541
C1_6 C 0.84295 0.76643 0.93917
H1_12 H 0.82819 0.73651 1.00000
O4_6 O 0.82586 0.73854 0.93286
O5_6 O 0.81796 0.68204 0.97047
O6_6 O 0.77091 0.72909 0.90038
C2_6 C 0.87145 0.77397 0.91596
C3_28 C 0.82867 0.67133 1.00000
C4_14 C 0.75000 0.75000 0.88521
C5_6 C 0.89282 0.80215 0.91789
S1_6 S 0.88264 0.74709 0.88264
C6_28 C 0.85567 0.64433 1.00000
C7_14 C 0.75000 0.75000 0.84703
H2_6 H 0.89004 0.82239 0.93654
C8_6 C 0.93917 0.76643 0.84295
O8_6 O 0.93286 0.73854 0.82586
C9_6 C 0.91596 0.77397 0.87145
C10_6 C 0.91789 0.80215 0.89282
H3_6 H 0.93654 0.82239 0.89004
O10_14 O 0.72909 0.77091 0.90038
Zr3_10 Zr 0.71931 0.95541 0.78069
C11_10 C 0.76643 0.93917 0.84295
H4_20 H 0.73651 1.00000 0.82819
O14_10 O 0.73854 0.93286 0.82586
C12_10 C 0.77397 0.91596 0.87145
C13_10 C 0.80215 0.91789 0.89282
S2_10 S 0.74709 0.88264 0.88264
H5_10 H 0.82239 0.93654 0.89004
C14_10 C 0.76643 0.84295 0.93917
O16_10 O 0.73854 0.82586 0.93286
C15_10 C 0.77397 0.87145 0.91596
C16_10 C 0.80215 0.89282 0.91789
H6_10 H 0.82239 0.89004 0.93654
O20_20 O 0.69674 1.00000 0.75940
O21_12 O 0.75940 0.69674 1.00000
O23_10 O 0.72848 0.95604 0.72848
O24_6 O 0.72848 0.72848 0.95604
O25_10 O 0.67414 0.93286 0.76146
O26_6 O 0.76146 0.67414 0.93286
O27_10 O 0.68204 0.97047 0.81796
O28_10 O 0.72909 0.90038 0.77091
H7_14 H 0.878395 0.653879 0.986824
H9_14 H 0.846121 0.621605 0.986824
H10_14 H 0.74318 0.724546 0.837713
H11_14 H 0.731367 0.768633 0.837713
H12_14 H 0.775454 0.75682 0.837713
H4_21 H 0.26349 -0.00000 0.17181
O20_21 O 0.30326 0.00000 0.24060
Zr2_7 Zr 0.21931 0.71931 0.04459
C1_7 C 0.15705 0.76643 0.06083
H1_13 H 0.17181 0.73651 0.00000
O4_7 O 0.17414 0.73854 0.06714
O5_7 O 0.18204 0.68204 0.02953
O6_7 O 0.22909 0.72909 0.09962
C2_7 C 0.12855 0.77397 0.08404
C3_29 C 0.17133 0.67133 0.00000
C4_15 C 0.25000 0.75000 0.11479
C5_7 C 0.10718 0.80215 0.08211
S1_7 S 0.11736 0.74709 0.11736
C6_29 C 0.14433 0.64433 0.00000
C7_15 C 0.25000 0.75000 0.15297
H2_7 H 0.10996 0.82239 0.06346
C8_7 C 0.06083 0.76643 0.15705
O8_7 O 0.06714 0.73854 0.17414
C9_7 C 0.08404 0.77397 0.12855
C10_7 C 0.08211 0.80215 0.10718
H3_7 H 0.06346 0.82239 0.10996
O10_15 O 0.27091 0.77091 0.09962
Zr3_11 Zr 0.28069 0.95541 0.21931
C11_11 C 0.23357 0.93917 0.15705
H4_22 H 0.26349 1.00000 0.17181
O14_11 O 0.26146 0.93286 0.17414
C12_11 C 0.22603 0.91596 0.12855
C13_11 C 0.19785 0.91789 0.10718
S2_11 S 0.25291 0.88264 0.11736
H5_11 H 0.17761 0.93654 0.10996
C14_11 C 0.23357 0.84295 0.06083
O16_11 O 0.26146 0.82586 0.06714
C15_11 C 0.22603 0.87145 0.08404
C16_11 C 0.19785 0.89282 0.08211
H6_11 H 0.17761 0.89004 0.06346
O20_22 O 0.30326 1.00000 0.24060
O21_13 O 0.24060 0.69674 0.00000
O23_11 O 0.27152 0.95604 0.27152
O24_7 O 0.27152 0.72848 0.04396
O25_11 O 0.32586 0.93286 0.23854
O26_7 O 0.23854 0.67414 0.06714
O27_11 O 0.31796 0.97047 0.18204
O28_11 O 0.27091 0.90038 0.22909
H7_15 H 0.121605 0.653879 0.0131759
H9_15 H 0.153879 0.621605 0.0131759
H10_15 H 0.25682 0.724546 0.162287
H11_15 H 0.268633 0.768633 0.162287
H12_15 H 0.224546 0.75682 0.162287
H1_14 H 0.17181 0.73651 1.00000
C3_30 C 0.17133 0.67133 1.00000
C6_30 C 0.14433 0.64433 1.00000
O9_15 O 0.18204 0.68204 0.97047
O21_14 O 0.24060 0.69674 1.00000
H8_15 H 0.137742 0.637742 0.973648
Zr2_8 Zr 0.78069 0.28069 0.04459
C1_8 C 0.84295 0.23357 0.06083
H1_15 H 0.82819 0.26349 0.00000
O4_8 O 0.82586 0.26146 0.06714
O5_8 O 0.81796 0.31796 0.02953
O6_8 O 0.77091 0.27091 0.09962
C2_8 C 0.87145 0.22603 0.08404
C3_31 C 0.82867 0.32867 0.00000
C4_16 C 0.75000 0.25000 0.11479
C5_8 C 0.89282 0.19785 0.08211
S1_8 S 0.88264 0.25291 0.11736
C6_31 C 0.85567 0.35567 0.00000
C7_16 C 0.75000 0.25000 0.15297
H2_8 H 0.89004 0.17761 0.06346
C8_8 C 0.93917 0.23357 0.15705
O8_8 O 0.93286 0.26146 0.17414
C9_8 C 0.91596 0.22603 0.12855
C10_8 C 0.91789 0.19785 0.10718
H3_8 H 0.93654 0.17761 0.10996
O10_16 O 0.72909 0.22909 0.09962
Zr3_12 Zr 0.71931 0.04459 0.21931
C11_12 C 0.76643 0.06083 0.15705
H4_23 H 0.73651 0.00000 0.17181
O14_12 O 0.73854 0.06714 0.17414
C12_12 C 0.77397 0.08404 0.12855
C13_12 C 0.80215 0.08211 0.10718
S2_12 S 0.74709 0.11736 0.11736
H5_12 H 0.82239 0.06346 0.10996
C14_12 C 0.76643 0.15705 0.06083
O16_12 O 0.73854 0.17414 0.06714
C15_12 C 0.77397 0.12855 0.08404
C16_12 C 0.80215 0.10718 0.08211
H6_12 H 0.82239 0.10996 0.06346
O20_23 O 0.69674 0.00000 0.24060
O21_15 O 0.75940 0.30326 0.00000
O23_12 O 0.72848 0.04396 0.27152
O24_8 O 0.72848 0.27152 0.04396
O25_12 O 0.67414 0.06714 0.23854
O26_8 O 0.76146 0.32586 0.06714
O27_12 O 0.68204 0.02953 0.18204
O28_12 O 0.72909 0.09962 0.22909
H7_16 H 0.878395 0.346121 0.0131759
H9_16 H 0.846121 0.378395 0.0131759
H10_16 H 0.74318 0.275454 0.162287
H11_16 H 0.731367 0.231367 0.162287
H12_16 H 0.775454 0.24318 0.162287
H1_16 H 0.82819 0.26349 1.00000
C3_32 C 0.82867 0.32867 1.00000
C6_32 C 0.85567 0.35567 1.00000
O9_16 O 0.81796 0.31796 0.97047
O21_16 O 0.75940 0.30326 1.00000
H8_16 H 0.862258 0.362258 0.973648
H4_24 H 0.73651 1.00000 0.17181
O20_24 O 0.69674 1.00000 0.24060
C3_33 C 0.32867 -0.00000 0.82867
C4_17 C 0.25000 0.11479 0.75000
C6_33 C 0.35567 0.00000 0.85567
C7_17 C 0.25000 0.15297 0.75000
O10_17 O 0.22909 0.09962 0.72909
Zr3_13 Zr 0.04459 0.21931 0.71931
C11_13 C 0.06083 0.15705 0.76643
H4_25 H 0.00000 0.17181 0.73651
O14_13 O 0.06714 0.17414 0.73854
C12_13 C 0.08404 0.12855 0.77397
C13_13 C 0.08211 0.10718 0.80215
S2_13 S 0.11736 0.11736 0.74709
H5_13 H 0.06346 0.10996 0.82239
C14_13 C 0.15705 0.06083 0.76643
O16_13 O 0.17414 0.06714 0.73854
C15_13 C 0.12855 0.08404 0.77397
C16_13 C 0.10718 0.08211 0.80215
H6_13 H 0.10996 0.06346 0.82239
O20_25 O 0.00000 0.24060 0.69674
O23_13 O 0.04396 0.27152 0.72848
O25_13 O 0.06714 0.23854 0.67414
O27_13 O 0.02953 0.18204 0.68204
O28_13 O 0.09962 0.22909 0.72909
H7_17 H 0.346121 0.0131759 0.878395
H9_17 H 0.378395 0.0131759 0.846121
H10_17 H 0.275454 0.162287 0.74318
H11_17 H 0.231367 0.162287 0.731367
H12_17 H 0.24318 0.162287 0.775454
C3_34 C 0.32867 1.00000 0.82867
C6_34 C 0.35567 1.00000 0.85567
O9_17 O 0.31796 0.97047 0.81796
H8_17 H 0.362258 0.973648 0.862258
H4_26 H 1.00000 0.17181 0.73651
O20_26 O 1.00000 0.24060 0.69674
H4_27 H -0.00000 0.17181 0.26349
O20_27 O 0.00000 0.24060 0.30326
C3_35 C 0.67133 0.00000 0.17133
C4_18 C 0.75000 0.11479 0.25000
C6_35 C 0.64433 0.00000 0.14433
C7_18 C 0.75000 0.15297 0.25000
O10_18 O 0.77091 0.09962 0.27091
Zr3_14 Zr 0.95541 0.21931 0.28069
C11_14 C 0.93917 0.15705 0.23357
H4_28 H 1.00000 0.17181 0.26349
O14_14 O 0.93286 0.17414 0.26146
C12_14 C 0.91596 0.12855 0.22603
C13_14 C 0.91789 0.10718 0.19785
S2_14 S 0.88264 0.11736 0.25291
H5_14 H 0.93654 0.10996 0.17761
C14_14 C 0.84295 0.06083 0.23357
O16_14 O 0.82586 0.06714 0.26146
C15_14 C 0.87145 0.08404 0.22603
C16_14 C 0.89282 0.08211 0.19785
H6_14 H 0.89004 0.06346 0.17761
O20_28 O 1.00000 0.24060 0.30326
O23_14 O 0.95604 0.27152 0.27152
O25_14 O 0.93286 0.23854 0.32586
O27_14 O 0.97047 0.18204 0.31796
O28_14 O 0.90038 0.22909 0.27091
H7_18 H 0.653879 0.0131759 0.121605
H9_18 H 0.621605 0.0131759 0.153879
H10_18 H 0.724546 0.162287 0.25682
H11_18 H 0.768633 0.162287 0.268633
H12_18 H 0.75682 0.162287 0.224546
C3_36 C 0.67133 1.00000 0.17133
C6_36 C 0.64433 1.00000 0.14433
O9_18 O 0.68204 0.97047 0.18204
H8_18 H 0.637742 0.973648 0.137742
H4_29 H 0.00000 0.82819 0.73651
O20_29 O 0.00000 0.75940 0.69674
C3_37 C 0.67133 -0.00000 0.82867
C6_37 C 0.64433 0.00000 0.85567
O9_19 O 0.68204 0.02953 0.81796
H8_19 H 0.637742 0.0263517 0.862258
C3_38 C 0.67133 1.00000 0.82867
C4_19 C 0.75000 0.88521 0.75000
C6_38 C 0.64433 1.00000 0.85567
C7_19 C 0.75000 0.84703 0.75000
O10_19 O 0.77091 0.90038 0.72909
Zr3_15 Zr 0.95541 0.78069 0.71931
C11_15 C 0.93917 0.84295 0.76643
H4_30 H 1.00000 0.82819 0.73651
O14_15 O 0.93286 0.82586 0.73854
C12_15 C 0.91596 0.87145 0.77397
C13_15 C 0.91789 0.89282 0.80215
S2_15 S 0.88264 0.88264 0.74709
H5_15 H 0.93654 0.89004 0.82239
C14_15 C 0.84295 0.93917 0.76643
O16_15 O 0.82586 0.93286 0.73854
C15_15 C 0.87145 0.91596 0.77397
C16_15 C 0.89282 0.91789 0.80215
H6_15 H 0.89004 0.93654 0.82239
O20_30 O 1.00000 0.75940 0.69674
O23_15 O 0.95604 0.72848 0.72848
O25_15 O 0.93286 0.76146 0.67414
O27_15 O 0.97047 0.81796 0.68204
O28_15 O 0.90038 0.77091 0.72909
H7_19 H 0.653879 0.986824 0.878395
H9_19 H 0.621605 0.986824 0.846121
H10_19 H 0.724546 0.837713 0.74318
H11_19 H 0.768633 0.837713 0.731367
H12_19 H 0.75682 0.837713 0.775454
C3_39 C 0.32867 0.00000 0.17133
C6_39 C 0.35567 0.00000 0.14433
O9_20 O 0.31796 0.02953 0.18204
H8_20 H 0.362258 0.0263517 0.137742
C3_40 C 0.32867 1.00000 0.17133
C4_20 C 0.25000 0.88521 0.25000
C6_40 C 0.35567 1.00000 0.14433
C7_20 C 0.25000 0.84703 0.25000
O10_20 O 0.22909 0.90038 0.27091
Zr3_16 Zr 0.04459 0.78069 0.28069
C11_16 C 0.06083 0.84295 0.23357
H4_31 H 0.00000 0.82819 0.26349
O14_16 O 0.06714 0.82586 0.26146
C12_16 C 0.08404 0.87145 0.22603
C13_16 C 0.08211 0.89282 0.19785
S2_16 S 0.11736 0.88264 0.25291
H5_16 H 0.06346 0.89004 0.17761
C14_16 C 0.15705 0.93917 0.23357
O16_16 O 0.17414 0.93286 0.26146
C15_16 C 0.12855 0.91596 0.22603
C16_16 C 0.10718 0.91789 0.19785
H6_16 H 0.10996 0.93654 0.17761
O20_31 O 0.00000 0.75940 0.30326
O23_16 O 0.04396 0.72848 0.27152
O25_16 O 0.06714 0.76146 0.32586
O27_16 O 0.02953 0.81796 0.31796
O28_16 O 0.09962 0.77091 0.27091
H7_20 H 0.346121 0.986824 0.121605
H9_20 H 0.378395 0.986824 0.153879
H10_20 H 0.275454 0.837713 0.25682
H11_20 H 0.231367 0.837713 0.268633
H12_20 H 0.24318 0.837713 0.224546
H4_32 H 1.00000 0.82819 0.26349
O20_32 O 1.00000 0.75940 0.30326
C3_41 C -0.00000 0.17133 0.67133
C4_21 C 0.11479 0.25000 0.75000
C6_41 C 0.00000 0.14433 0.64433
C7_21 C 0.15297 0.25000 0.75000
O10_21 O 0.09962 0.27091 0.77091
H7_21 H 0.0131759 0.121605 0.653879
H9_21 H 0.0131759 0.153879 0.621605
H10_21 H 0.162287 0.25682 0.724546
H11_21 H 0.162287 0.268633 0.768633
H12_21 H 0.162287 0.224546 0.75682
C3_42 C 1.00000 0.17133 0.67133
C6_42 C 1.00000 0.14433 0.64433
O9_21 O 0.97047 0.18204 0.68204
H8_21 H 0.973648 0.137742 0.637742
C3_43 C 0.00000 0.82867 0.32867
C4_22 C 0.11479 0.75000 0.25000
C6_43 C 0.00000 0.85567 0.35567
C7_22 C 0.15297 0.75000 0.25000
O10_22 O 0.09962 0.72909 0.22909
H7_22 H 0.0131759 0.878395 0.346121
H9_22 H 0.0131759 0.846121 0.378395
H10_22 H 0.162287 0.74318 0.275454
H11_22 H 0.162287 0.731367 0.231367
H12_22 H 0.162287 0.775454 0.24318
C3_44 C 1.00000 0.82867 0.32867
C6_44 C 1.00000 0.85567 0.35567
O9_22 O 0.97047 0.81796 0.31796
H8_22 H 0.973648 0.862258 0.362258
C3_45 C 0.00000 0.17133 0.32867
C6_45 C 0.00000 0.14433 0.35567
O9_23 O 0.02953 0.18204 0.31796
H8_23 H 0.0263517 0.137742 0.362258
C3_46 C 1.00000 0.17133 0.32867
C4_23 C 0.88521 0.25000 0.25000
C6_46 C 1.00000 0.14433 0.35567
C7_23 C 0.84703 0.25000 0.25000
O10_23 O 0.90038 0.27091 0.22909
H7_23 H 0.986824 0.121605 0.346121
H9_23 H 0.986824 0.153879 0.378395
H10_23 H 0.837713 0.25682 0.275454
H11_23 H 0.837713 0.268633 0.231367
H12_23 H 0.837713 0.224546 0.24318
C3_47 C -0.00000 0.82867 0.67133
C6_47 C 0.00000 0.85567 0.64433
O9_24 O 0.02953 0.81796 0.68204
H8_24 H 0.0263517 0.862258 0.637742
C3_48 C 1.00000 0.82867 0.67133
C4_24 C 0.88521 0.75000 0.75000
C6_48 C 1.00000 0.85567 0.64433
C7_24 C 0.84703 0.75000 0.75000
O10_24 O 0.90038 0.72909 0.77091
H7_24 H 0.986824 0.878395 0.653879
H9_24 H 0.986824 0.846121 0.621605
H10_24 H 0.837713 0.74318 0.724546
H11_24 H 0.837713 0.731367 0.768633
H12_24 H 0.837713 0.775454 0.75682
Zr1_9 Zr 0.20673 0.70673 0.50000
O1_5 O 0.21179 0.66455 0.53640
O2_9 O 0.25940 0.69674 0.50000
Zr2_9 Zr 0.28069 0.71931 0.54459
O3_5 O 0.22848 0.72848 0.54396
C1_9 C 0.23357 0.65705 0.56083
H1_17 H 0.26349 0.67181 0.50000
O4_9 O 0.26146 0.67414 0.56714
O5_9 O 0.31796 0.68204 0.52953
O6_9 O 0.27091 0.72909 0.59962
C2_9 C 0.22603 0.62855 0.58404
C3_49 C 0.32867 0.67133 0.50000
C4_25 C 0.25000 0.75000 0.61479
C5_9 C 0.19785 0.60718 0.58211
S1_9 S 0.25291 0.61736 0.61736
C6_49 C 0.35567 0.64433 0.50000
C7_25 C 0.25000 0.75000 0.65297
H2_9 H 0.17761 0.60996 0.56346
O7_5 O 0.21179 0.53640 0.66455
C8_9 C 0.23357 0.56083 0.65705
O8_9 O 0.26146 0.56714 0.67414
C9_9 C 0.22603 0.58404 0.62855
C10_9 C 0.19785 0.58211 0.60718
H3_9 H 0.17761 0.56346 0.60996
O9_25 O 0.31796 0.68204 0.47047
O10_25 O 0.22909 0.77091 0.59962
O11_9 O 0.03640 0.71179 0.66455
C11_17 C 0.06083 0.73357 0.65705
H4_33 H -0.00000 0.76349 0.67181
O14_17 O 0.06714 0.76146 0.67414
C12_17 C 0.08404 0.72603 0.62855
C13_17 C 0.08211 0.69785 0.60718
S2_17 S 0.11736 0.75291 0.61736
H5_17 H 0.06346 0.67761 0.60996
O15_9 O 0.16455 0.71179 0.53640
C14_17 C 0.15705 0.73357 0.56083
O16_17 O 0.17414 0.76146 0.56714
C15_17 C 0.12855 0.72603 0.58404
C16_17 C 0.10718 0.69785 0.58211
H6_17 H 0.10996 0.67761 0.56346
Zr4_9 Zr 0.00000 0.70673 0.70673
Zr5_9 Zr 0.20673 0.50000 0.70673
O17_13 O 0.16455 0.71179 0.46360
O18_13 O 0.21179 0.66455 0.46360
O19_25 O 0.19674 0.75940 0.50000
O21_17 O 0.30326 0.74060 0.50000
Zr6_5 Zr 0.28069 0.71931 0.45541
Zr8_5 Zr 0.21931 0.78069 0.54459
Zr9_5 Zr 0.28069 0.54459 0.71931
O22_13 O 0.22848 0.72848 0.45604
O24_9 O 0.27152 0.77152 0.54396
O26_9 O 0.32586 0.73854 0.56714
H7_25 H 0.346121 0.621605 0.513176
H8_25 H 0.362258 0.637742 0.473648
H9_25 H 0.378395 0.653879 0.513176
H10_25 H 0.275454 0.75682 0.662287
H11_25 H 0.231367 0.768633 0.662287
H12_25 H 0.24318 0.724546 0.662287
H4_34 H 1.00000 0.76349 0.67181
Zr4_10 Zr 1.00000 0.70673 0.70673
H4_35 H -0.00000 0.23651 0.67181
Zr4_11 Zr 0.00000 0.29327 0.70673
Zr1_10 Zr 0.79327 0.29327 0.50000
O1_6 O 0.78821 0.33545 0.53640
O2_10 O 0.74060 0.30326 0.50000
Zr2_10 Zr 0.71931 0.28069 0.54459
O3_6 O 0.77152 0.27152 0.54396
C1_10 C 0.76643 0.34295 0.56083
H1_18 H 0.73651 0.32819 0.50000
O4_10 O 0.73854 0.32586 0.56714
O5_10 O 0.68204 0.31796 0.52953
O6_10 O 0.72909 0.27091 0.59962
C2_10 C 0.77397 0.37145 0.58404
C3_50 C 0.67133 0.32867 0.50000
C4_26 C 0.75000 0.25000 0.61479
C5_10 C 0.80215 0.39282 0.58211
S1_10 S 0.74709 0.38264 0.61736
C6_50 C 0.64433 0.35567 0.50000
C7_26 C 0.75000 0.25000 0.65297
H2_10 H 0.82239 0.39004 0.56346
O7_6 O 0.78821 0.46360 0.66455
C8_10 C 0.76643 0.43917 0.65705
O8_10 O 0.73854 0.43286 0.67414
C9_10 C 0.77397 0.41596 0.62855
C10_10 C 0.80215 0.41789 0.60718
H3_10 H 0.82239 0.43654 0.60996
O9_26 O 0.68204 0.31796 0.47047
O10_26 O 0.77091 0.22909 0.59962
O11_10 O 0.96360 0.28821 0.66455
C11_18 C 0.93917 0.26643 0.65705
H4_36 H 1.00000 0.23651 0.67181
O14_18 O 0.93286 0.23854 0.67414
C12_18 C 0.91596 0.27397 0.62855
C13_18 C 0.91789 0.30215 0.60718
S2_18 S 0.88264 0.24709 0.61736
H5_18 H 0.93654 0.32239 0.60996
O15_10 O 0.83545 0.28821 0.53640
C14_18 C 0.84295 0.26643 0.56083
O16_18 O 0.82586 0.23854 0.56714
C15_18 C 0.87145 0.27397 0.58404
C16_18 C 0.89282 0.30215 0.58211
H6_18 H 0.89004 0.32239 0.56346
Zr4_12 Zr 1.00000 0.29327 0.70673
Zr5_10 Zr 0.79327 0.50000 0.70673
O17_14 O 0.83545 0.28821 0.46360
O18_14 O 0.78821 0.33545 0.46360
O19_26 O 0.80326 0.24060 0.50000
O21_18 O 0.69674 0.25940 0.50000
Zr6_6 Zr 0.71931 0.28069 0.45541
Zr8_6 Zr 0.78069 0.21931 0.54459
Zr9_6 Zr 0.71931 0.45541 0.71931
O22_14 O 0.77152 0.27152 0.45604
O24_10 O 0.72848 0.22848 0.54396
O26_10 O 0.67414 0.26146 0.56714
H7_26 H 0.653879 0.378395 0.513176
H8_26 H 0.637742 0.362258 0.473648
H9_26 H 0.621605 0.346121 0.513176
H10_26 H 0.724546 0.24318 0.662287
H11_26 H 0.768633 0.231367 0.662287
H12_26 H 0.75682 0.275454 0.662287
H4_37 H 0.00000 0.76349 0.32819
Zr4_13 Zr 0.00000 0.70673 0.29327
Zr1_11 Zr 0.79327 0.70673 0.50000
O1_7 O 0.78821 0.66455 0.46360
O2_11 O 0.74060 0.69674 0.50000
Zr2_11 Zr 0.71931 0.71931 0.45541
O3_7 O 0.77152 0.72848 0.45604
C1_11 C 0.76643 0.65705 0.43917
H1_19 H 0.73651 0.67181 0.50000
O4_11 O 0.73854 0.67414 0.43286
O5_11 O 0.68204 0.68204 0.47047
O6_11 O 0.72909 0.72909 0.40038
C2_11 C 0.77397 0.62855 0.41596
C3_51 C 0.67133 0.67133 0.50000
C4_27 C 0.75000 0.75000 0.38521
C5_11 C 0.80215 0.60718 0.41789
S1_11 S 0.74709 0.61736 0.38264
C6_51 C 0.64433 0.64433 0.50000
C7_27 C 0.75000 0.75000 0.34703
H2_11 H 0.82239 0.60996 0.43654
O7_7 O 0.78821 0.53640 0.33545
C8_11 C 0.76643 0.56083 0.34295
O8_11 O 0.73854 0.56714 0.32586
C9_11 C 0.77397 0.58404 0.37145
C10_11 C 0.80215 0.58211 0.39282
H3_11 H 0.82239 0.56346 0.39004
O9_27 O 0.68204 0.68204 0.52953
O10_27 O 0.77091 0.77091 0.40038
O11_11 O 0.96360 0.71179 0.33545
C11_19 C 0.93917 0.73357 0.34295
H4_38 H 1.00000 0.76349 0.32819
O14_19 O 0.93286 0.76146 0.32586
C12_19 C 0.91596 0.72603 0.37145
C13_19 C 0.91789 0.69785 0.39282
S2_19 S 0.88264 0.75291 0.38264
H5_19 H 0.93654 0.67761 0.39004
O15_11 O 0.83545 0.71179 0.46360
C14_19 C 0.84295 0.73357 0.43917
O16_19 O 0.82586 0.76146 0.43286
C15_19 C 0.87145 0.72603 0.41596
C16_19 C 0.89282 0.69785 0.41789
H6_19 H 0.89004 0.67761 0.43654
Zr4_14 Zr 1.00000 0.70673 0.29327
Zr5_11 Zr 0.79327 0.50000 0.29327
O17_15 O 0.83545 0.71179 0.53640
O18_15 O 0.78821 0.66455 0.53640
O19_27 O 0.80326 0.75940 0.50000
O21_19 O 0.69674 0.74060 0.50000
Zr6_7 Zr 0.71931 0.71931 0.54459
Zr8_7 Zr 0.78069 0.78069 0.45541
Zr9_7 Zr 0.71931 0.54459 0.28069
O22_15 O 0.77152 0.72848 0.54396
O24_11 O 0.72848 0.77152 0.45604
O26_11 O 0.67414 0.73854 0.43286
H7_27 H 0.653879 0.621605 0.486824
H8_27 H 0.637742 0.637742 0.526352
H9_27 H 0.621605 0.653879 0.486824
H10_27 H 0.724546 0.75682 0.337713
H11_27 H 0.768633 0.768633 0.337713
H12_27 H 0.75682 0.724546 0.337713
Zr1_12 Zr 0.20673 0.29327 0.50000
O1_8 O 0.21179 0.33545 0.46360
O2_12 O 0.25940 0.30326 0.50000
Zr2_12 Zr 0.28069 0.28069 0.45541
O3_8 O 0.22848 0.27152 0.45604
C1_12 C 0.23357 0.34295 0.43917
H1_20 H 0.26349 0.32819 0.50000
O4_12 O 0.26146 0.32586 0.43286
O5_12 O 0.31796 0.31796 0.47047
O6_12 O 0.27091 0.27091 0.40038
C2_12 C 0.22603 0.37145 0.41596
C3_52 C 0.32867 0.32867 0.50000
C4_28 C 0.25000 0.25000 0.38521
C5_12 C 0.19785 0.39282 0.41789
S1_12 S 0.25291 0.38264 0.38264
C6_52 C 0.35567 0.35567 0.50000
C7_28 C 0.25000 0.25000 0.34703
H2_12 H 0.17761 0.39004 0.43654
O7_8 O 0.21179 0.46360 0.33545
C8_12 C 0.23357 0.43917 0.34295
O8_12 O 0.26146 0.43286 0.32586
C9_12 C 0.22603 0.41596 0.37145
C10_12 C 0.19785 0.41789 0.39282
H3_12 H 0.17761 0.43654 0.39004
O9_28 O 0.31796 0.31796 0.52953
O10_28 O 0.22909 0.22909 0.40038
O11_12 O 0.03640 0.28821 0.33545
C11_20 C 0.06083 0.26643 0.34295
H4_39 H 0.00000 0.23651 0.32819
O14_20 O 0.06714 0.23854 0.32586
C12_20 C 0.08404 0.27397 0.37145
C13_20 C 0.08211 0.30215 0.39282
S2_20 S 0.11736 0.24709 0.38264
H5_20 H 0.06346 0.32239 0.39004
O15_12 O 0.16455 0.28821 0.46360
C14_20 C 0.15705 0.26643 0.43917
O16_20 O 0.17414 0.23854 0.43286
C15_20 C 0.12855 0.27397 0.41596
C16_20 C 0.10718 0.30215 0.41789
H6_20 H 0.10996 0.32239 0.43654
Zr4_15 Zr 0.00000 0.29327 0.29327
Zr5_12 Zr 0.20673 0.50000 0.29327
O17_16 O 0.16455 0.28821 0.53640
O18_16 O 0.21179 0.33545 0.53640
O19_28 O 0.19674 0.24060 0.50000
O21_20 O 0.30326 0.25940 0.50000
Zr6_8 Zr 0.28069 0.28069 0.54459
Zr8_8 Zr 0.21931 0.21931 0.45541
Zr9_8 Zr 0.28069 0.45541 0.28069
O22_16 O 0.22848 0.27152 0.54396
O24_12 O 0.27152 0.22848 0.45604
O26_12 O 0.32586 0.26146 0.43286
H7_28 H 0.346121 0.378395 0.486824
H8_28 H 0.362258 0.362258 0.526352
H9_28 H 0.378395 0.346121 0.486824
H10_28 H 0.275454 0.24318 0.337713
H11_28 H 0.231367 0.231367 0.337713
H12_28 H 0.24318 0.275454 0.337713
H4_40 H 1.00000 0.23651 0.32819
Zr4_16 Zr 1.00000 0.29327 0.29327
O11_13 O 0.16455 0.53640 0.71179
O12_17 O 0.19674 0.50000 0.75940
Zr3_17 Zr 0.21931 0.54459 0.78069
O13_9 O 0.22848 0.54396 0.72848
C11_21 C 0.15705 0.56083 0.73357
H4_41 H 0.17181 0.50000 0.76349
O14_21 O 0.17414 0.56714 0.76146
C12_21 C 0.12855 0.58404 0.72603
C13_21 C 0.10718 0.58211 0.69785
S2_21 S 0.11736 0.61736 0.75291
H5_21 H 0.10996 0.56346 0.67761
O15_13 O 0.03640 0.66455 0.71179
C14_21 C 0.06083 0.65705 0.73357
C15_21 C 0.08404 0.62855 0.72603
C16_21 C 0.08211 0.60718 0.69785
H6_21 H 0.06346 0.60996 0.67761
O20_33 O 0.24060 0.50000 0.80326
Zr7_9 Zr 0.21931 0.45541 0.78069
O23_17 O 0.27152 0.54396 0.77152
O25_17 O 0.23854 0.56714 0.82586
O27_17 O 0.18204 0.52953 0.81796
O28_17 O 0.22909 0.59962 0.77091
H7_29 H 0.0131759 0.846121 0.621605
H9_29 H 0.0131759 0.878395 0.653879
H10_29 H 0.162287 0.775454 0.75682
H11_29 H 0.162287 0.731367 0.768633
H12_29 H 0.162287 0.74318 0.724546
O17_17 O 0.96360 0.66455 0.71179
O18_17 O 0.96360 0.71179 0.66455
H8_29 H 0.973648 0.862258 0.637742
O11_14 O 0.16455 0.46360 0.28821
O12_18 O 0.19674 0.50000 0.24060
Zr3_18 Zr 0.21931 0.45541 0.21931
O13_10 O 0.22848 0.45604 0.27152
C11_22 C 0.15705 0.43917 0.26643
H4_42 H 0.17181 0.50000 0.23651
O14_22 O 0.17414 0.43286 0.23854
C12_22 C 0.12855 0.41596 0.27397
C13_22 C 0.10718 0.41789 0.30215
S2_22 S 0.11736 0.38264 0.24709
H5_22 H 0.10996 0.43654 0.32239
O15_14 O 0.03640 0.33545 0.28821
C14_22 C 0.06083 0.34295 0.26643
C15_22 C 0.08404 0.37145 0.27397
C16_22 C 0.08211 0.39282 0.30215
H6_22 H 0.06346 0.39004 0.32239
O20_34 O 0.24060 0.50000 0.19674
Zr7_10 Zr 0.21931 0.54459 0.21931
O23_18 O 0.27152 0.45604 0.22848
O25_18 O 0.23854 0.43286 0.17414
O27_18 O 0.18204 0.47047 0.18204
O28_18 O 0.22909 0.40038 0.22909
H7_30 H 0.0131759 0.153879 0.378395
H9_30 H 0.0131759 0.121605 0.346121
H10_30 H 0.162287 0.224546 0.24318
H11_30 H 0.162287 0.268633 0.231367
H12_30 H 0.162287 0.25682 0.275454
O17_18 O 0.96360 0.33545 0.28821
O18_18 O 0.96360 0.28821 0.33545
H8_30 H 0.973648 0.137742 0.362258
O17_19 O 0.03640 0.33545 0.71179
O18_19 O 0.03640 0.28821 0.66455
H8_31 H 0.0263517 0.137742 0.637742
O11_15 O 0.83545 0.46360 0.71179
O12_19 O 0.80326 0.50000 0.75940
Zr3_19 Zr 0.78069 0.45541 0.78069
O13_11 O 0.77152 0.45604 0.72848
C11_23 C 0.84295 0.43917 0.73357
H4_43 H 0.82819 0.50000 0.76349
O14_23 O 0.82586 0.43286 0.76146
C12_23 C 0.87145 0.41596 0.72603
C13_23 C 0.89282 0.41789 0.69785
S2_23 S 0.88264 0.38264 0.75291
H5_23 H 0.89004 0.43654 0.67761
O15_15 O 0.96360 0.33545 0.71179
C14_23 C 0.93917 0.34295 0.73357
C15_23 C 0.91596 0.37145 0.72603
C16_23 C 0.91789 0.39282 0.69785
H6_23 H 0.93654 0.39004 0.67761
O20_35 O 0.75940 0.50000 0.80326
Zr7_11 Zr 0.78069 0.54459 0.78069
O23_19 O 0.72848 0.45604 0.77152
O25_19 O 0.76146 0.43286 0.82586
O27_19 O 0.81796 0.47047 0.81796
O28_19 O 0.77091 0.40038 0.77091
H7_31 H 0.986824 0.153879 0.621605
H9_31 H 0.986824 0.121605 0.653879
H10_31 H 0.837713 0.224546 0.75682
H11_31 H 0.837713 0.268633 0.768633
H12_31 H 0.837713 0.25682 0.724546
O17_20 O 0.03640 0.66455 0.28821
O18_20 O 0.03640 0.71179 0.33545
H8_32 H 0.0263517 0.862258 0.362258
O11_16 O 0.83545 0.53640 0.28821
O12_20 O 0.80326 0.50000 0.24060
Zr3_20 Zr 0.78069 0.54459 0.21931
O13_12 O 0.77152 0.54396 0.27152
C11_24 C 0.84295 0.56083 0.26643
H4_44 H 0.82819 0.50000 0.23651
O14_24 O 0.82586 0.56714 0.23854
C12_24 C 0.87145 0.58404 0.27397
C13_24 C 0.89282 0.58211 0.30215
S2_24 S 0.88264 0.61736 0.24709
H5_24 H 0.89004 0.56346 0.32239
O15_16 O 0.96360 0.66455 0.28821
C14_24 C 0.93917 0.65705 0.26643
C15_24 C 0.91596 0.62855 0.27397
C16_24 C 0.91789 0.60718 0.30215
H6_24 H 0.93654 0.60996 0.32239
O20_36 O 0.75940 0.50000 0.19674
Zr7_12 Zr 0.78069 0.45541 0.21931
O23_20 O 0.72848 0.54396 0.22848
O25_20 O 0.76146 0.56714 0.17414
O27_20 O 0.81796 0.52953 0.18204
O28_20 O 0.77091 0.59962 0.22909
H7_32 H 0.986824 0.846121 0.378395
H9_32 H 0.986824 0.878395 0.346121
H10_32 H 0.837713 0.775454 0.24318
H11_32 H 0.837713 0.731367 0.231367
H12_32 H 0.837713 0.74318 0.275454
C3_53 C 0.17133 0.50000 0.82867
C4_29 C 0.25000 0.61479 0.75000
C6_53 C 0.14433 0.50000 0.85567
C7_29 C 0.25000 0.65297 0.75000
O9_29 O 0.18204 0.47047 0.81796
O10_29 O 0.27091 0.59962 0.72909
O17_21 O 0.21179 0.46360 0.66455
O18_21 O 0.16455 0.46360 0.71179
O19_29 O 0.25940 0.50000 0.69674
O22_17 O 0.22848 0.45604 0.72848
H7_33 H 0.121605 0.513176 0.846121
H8_33 H 0.137742 0.473648 0.862258
H9_33 H 0.153879 0.513176 0.878395
H10_33 H 0.25682 0.662287 0.775454
H11_33 H 0.268633 0.662287 0.731367
H12_33 H 0.224546 0.662287 0.74318
C3_54 C 0.82867 0.50000 0.17133
C4_30 C 0.75000 0.61479 0.25000
C6_54 C 0.85567 0.50000 0.14433
C7_30 C 0.75000 0.65297 0.25000
O9_30 O 0.81796 0.47047 0.18204
O10_30 O 0.72909 0.59962 0.27091
O17_22 O 0.78821 0.46360 0.33545
O18_22 O 0.83545 0.46360 0.28821
O19_30 O 0.74060 0.50000 0.30326
O22_18 O 0.77152 0.45604 0.27152
H7_34 H 0.878395 0.513176 0.153879
H8_34 H 0.862258 0.473648 0.137742
H9_34 H 0.846121 0.513176 0.121605
H10_34 H 0.74318 0.662287 0.224546
H11_34 H 0.731367 0.662287 0.268633
H12_34 H 0.775454 0.662287 0.25682
C3_55 C 0.17133 0.50000 0.17133
C4_31 C 0.25000 0.38521 0.25000
C6_55 C 0.14433 0.50000 0.14433
C7_31 C 0.25000 0.34703 0.25000
O9_31 O 0.18204 0.52953 0.18204
O10_31 O 0.27091 0.40038 0.27091
O17_23 O 0.21179 0.53640 0.33545
O18_23 O 0.16455 0.53640 0.28821
O19_31 O 0.25940 0.50000 0.30326
O22_19 O 0.22848 0.54396 0.27152
H7_35 H 0.121605 0.486824 0.153879
H8_35 H 0.137742 0.526352 0.137742
H9_35 H 0.153879 0.486824 0.121605
H10_35 H 0.25682 0.337713 0.224546
H11_35 H 0.268633 0.337713 0.268633
H12_35 H 0.224546 0.337713 0.25682
C3_56 C 0.82867 0.50000 0.82867
C4_32 C 0.75000 0.38521 0.75000
C6_56 C 0.85567 0.50000 0.85567
C7_32 C 0.75000 0.34703 0.75000
O9_32 O 0.81796 0.52953 0.81796
O10_32 O 0.72909 0.40038 0.72909
O17_24 O 0.78821 0.53640 0.66455
O18_24 O 0.83545 0.53640 0.71179
O19_32 O 0.74060 0.50000 0.69674
O22_20 O 0.77152 0.54396 0.72848
H7_36 H 0.878395 0.486824 0.846121
H8_36 H 0.862258 0.526352 0.862258
H9_36 H 0.846121 0.486824 0.878395
H10_36 H 0.74318 0.337713 0.775454
H11_36 H 0.731367 0.337713 0.731367
H12_36 H 0.775454 0.337713 0.74318
Zr2_13 Zr 0.21931 0.78069 0.45541
C1_13 C 0.15705 0.73357 0.43917
H1_21 H 0.17181 0.76349 0.50000
O4_13 O 0.17414 0.76146 0.43286
O5_13 O 0.18204 0.81796 0.47047
O6_13 O 0.22909 0.77091 0.40038
C2_13 C 0.12855 0.72603 0.41596
C3_57 C 0.17133 0.82867 0.50000
C4_33 C 0.25000 0.75000 0.38521
C5_13 C 0.10718 0.69785 0.41789
S1_13 S 0.11736 0.75291 0.38264
C6_57 C 0.14433 0.85567 0.50000
C7_33 C 0.25000 0.75000 0.34703
H2_13 H 0.10996 0.67761 0.43654
C8_13 C 0.06083 0.73357 0.34295
C9_13 C 0.08404 0.72603 0.37145
C10_13 C 0.08211 0.69785 0.39282
H3_13 H 0.06346 0.67761 0.39004
O9_33 O 0.18204 0.81796 0.52953
O10_33 O 0.27091 0.72909 0.40038
Zr3_21 Zr 0.28069 0.54459 0.28069
C11_25 C 0.23357 0.56083 0.34295
H4_45 H 0.26349 0.50000 0.32819
O14_25 O 0.26146 0.56714 0.32586
C12_25 C 0.22603 0.58404 0.37145
C13_25 C 0.19785 0.58211 0.39282
S2_25 S 0.25291 0.61736 0.38264
H5_25 H 0.17761 0.56346 0.39004
C14_25 C 0.23357 0.65705 0.43917
O16_21 O 0.26146 0.67414 0.43286
C15_25 C 0.22603 0.62855 0.41596
C16_25 C 0.19785 0.60718 0.41789
H6_25 H 0.17761 0.60996 0.43654
O20_37 O 0.30326 0.50000 0.25940
O21_21 O 0.24060 0.80326 0.50000
O23_21 O 0.27152 0.54396 0.22848
O24_13 O 0.27152 0.77152 0.45604
O25_21 O 0.32586 0.56714 0.26146
O26_13 O 0.23854 0.82586 0.43286
O27_21 O 0.31796 0.52953 0.31796
O28_21 O 0.27091 0.59962 0.27091
H7_37 H 0.121605 0.846121 0.486824
H8_37 H 0.137742 0.862258 0.526352
H9_37 H 0.153879 0.878395 0.486824
H10_37 H 0.25682 0.775454 0.337713
H11_37 H 0.268633 0.731367 0.337713
H12_37 H 0.224546 0.74318 0.337713
Zr2_14 Zr 0.78069 0.21931 0.45541
C1_14 C 0.84295 0.26643 0.43917
H1_22 H 0.82819 0.23651 0.50000
O4_14 O 0.82586 0.23854 0.43286
O5_14 O 0.81796 0.18204 0.47047
O6_14 O 0.77091 0.22909 0.40038
C2_14 C 0.87145 0.27397 0.41596
C3_58 C 0.82867 0.17133 0.50000
C4_34 C 0.75000 0.25000 0.38521
C5_14 C 0.89282 0.30215 0.41789
S1_14 S 0.88264 0.24709 0.38264
C6_58 C 0.85567 0.14433 0.50000
C7_34 C 0.75000 0.25000 0.34703
H2_14 H 0.89004 0.32239 0.43654
C8_14 C 0.93917 0.26643 0.34295
C9_14 C 0.91596 0.27397 0.37145
C10_14 C 0.91789 0.30215 0.39282
H3_14 H 0.93654 0.32239 0.39004
O9_34 O 0.81796 0.18204 0.52953
O10_34 O 0.72909 0.27091 0.40038
Zr3_22 Zr 0.71931 0.45541 0.28069
C11_26 C 0.76643 0.43917 0.34295
H4_46 H 0.73651 0.50000 0.32819
O14_26 O 0.73854 0.43286 0.32586
C12_26 C 0.77397 0.41596 0.37145
C13_26 C 0.80215 0.41789 0.39282
S2_26 S 0.74709 0.38264 0.38264
H5_26 H 0.82239 0.43654 0.39004
C14_26 C 0.76643 0.34295 0.43917
O16_22 O 0.73854 0.32586 0.43286
C15_26 C 0.77397 0.37145 0.41596
C16_26 C 0.80215 0.39282 0.41789
H6_26 H 0.82239 0.39004 0.43654
O20_38 O 0.69674 0.50000 0.25940
O21_22 O 0.75940 0.19674 0.50000
O23_22 O 0.72848 0.45604 0.22848
O24_14 O 0.72848 0.22848 0.45604
O25_22 O 0.67414 0.43286 0.26146
O26_14 O 0.76146 0.17414 0.43286
O27_22 O 0.68204 0.47047 0.31796
O28_22 O 0.72909 0.40038 0.27091
H7_38 H 0.878395 0.153879 0.486824
H8_38 H 0.862258 0.137742 0.526352
H9_38 H 0.846121 0.121605 0.486824
H10_38 H 0.74318 0.224546 0.337713
H11_38 H 0.731367 0.268633 0.337713
H12_38 H 0.775454 0.25682 0.337713
Zr2_15 Zr 0.21931 0.21931 0.54459
C1_15 C 0.15705 0.26643 0.56083
H1_23 H 0.17181 0.23651 0.50000
O4_15 O 0.17414 0.23854 0.56714
O5_15 O 0.18204 0.18204 0.52953
O6_15 O 0.22909 0.22909 0.59962
C2_15 C 0.12855 0.27397 0.58404
C3_59 C 0.17133 0.17133 0.50000
C4_35 C 0.25000 0.25000 0.61479
C5_15 C 0.10718 0.30215 0.58211
S1_15 S 0.11736 0.24709 0.61736
C6_59 C 0.14433 0.14433 0.50000
C7_35 C 0.25000 0.25000 0.65297
H2_15 H 0.10996 0.32239 0.56346
C8_15 C 0.06083 0.26643 0.65705
C9_15 C 0.08404 0.27397 0.62855
C10_15 C 0.08211 0.30215 0.60718
H3_15 H 0.06346 0.32239 0.60996
O9_35 O 0.18204 0.18204 0.47047
O10_35 O 0.27091 0.27091 0.59962
Zr3_23 Zr 0.28069 0.45541 0.71931
C11_27 C 0.23357 0.43917 0.65705
H4_47 H 0.26349 0.50000 0.67181
O14_27 O 0.26146 0.43286 0.67414
C12_27 C 0.22603 0.41596 0.62855
C13_27 C 0.19785 0.41789 0.60718
S2_27 S 0.25291 0.38264 0.61736
H5_27 H 0.17761 0.43654 0.60996
C14_27 C 0.23357 0.34295 0.56083
O16_23 O 0.26146 0.32586 0.56714
C15_27 C 0.22603 0.37145 0.58404
C16_27 C 0.19785 0.39282 0.58211
H6_27 H 0.17761 0.39004 0.56346
O20_39 O 0.30326 0.50000 0.74060
O21_23 O 0.24060 0.19674 0.50000
O23_23 O 0.27152 0.45604 0.77152
O24_15 O 0.27152 0.22848 0.54396
O25_23 O 0.32586 0.43286 0.73854
O26_15 O 0.23854 0.17414 0.56714
O27_23 O 0.31796 0.47047 0.68204
O28_23 O 0.27091 0.40038 0.72909
H7_39 H 0.121605 0.153879 0.513176
H8_39 H 0.137742 0.137742 0.473648
H9_39 H 0.153879 0.121605 0.513176
H10_39 H 0.25682 0.224546 0.662287
H11_39 H 0.268633 0.268633 0.662287
H12_39 H 0.224546 0.25682 0.662287
Zr2_16 Zr 0.78069 0.78069 0.54459
C1_16 C 0.84295 0.73357 0.56083
H1_24 H 0.82819 0.76349 0.50000
O4_16 O 0.82586 0.76146 0.56714
O5_16 O 0.81796 0.81796 0.52953
O6_16 O 0.77091 0.77091 0.59962
C2_16 C 0.87145 0.72603 0.58404
C3_60 C 0.82867 0.82867 0.50000
C4_36 C 0.75000 0.75000 0.61479
C5_16 C 0.89282 0.69785 0.58211
S1_16 S 0.88264 0.75291 0.61736
C6_60 C 0.85567 0.85567 0.50000
C7_36 C 0.75000 0.75000 0.65297
H2_16 H 0.89004 0.67761 0.56346
C8_16 C 0.93917 0.73357 0.65705
C9_16 C 0.91596 0.72603 0.62855
C10_16 C 0.91789 0.69785 0.60718
H3_16 H 0.93654 0.67761 0.60996
O9_36 O 0.81796 0.81796 0.47047
O10_36 O 0.72909 0.72909 0.59962
Zr3_24 Zr 0.71931 0.54459 0.71931
C11_28 C 0.76643 0.56083 0.65705
H4_48 H 0.73651 0.50000 0.67181
O14_28 O 0.73854 0.56714 0.67414
C12_28 C 0.77397 0.58404 0.62855
C13_28 C 0.80215 0.58211 0.60718
S2_28 S 0.74709 0.61736 0.61736
H5_28 H 0.82239 0.56346 0.60996
C14_28 C 0.76643 0.65705 0.56083
O16_24 O 0.73854 0.67414 0.56714
C15_28 C 0.77397 0.62855 0.58404
C16_28 C 0.80215 0.60718 0.58211
H6_28 H 0.82239 0.60996 0.56346
O20_40 O 0.69674 0.50000 0.74060
O21_24 O 0.75940 0.80326 0.50000
O23_24 O 0.72848 0.54396 0.77152
O24_16 O 0.72848 0.77152 0.54396
O25_24 O 0.67414 0.56714 0.73854
O26_16 O 0.76146 0.82586 0.56714
O27_24 O 0.68204 0.52953 0.68204
O28_24 O 0.72909 0.59962 0.72909
H7_40 H 0.878395 0.846121 0.513176
H8_40 H 0.862258 0.862258 0.473648
H9_40 H 0.846121 0.878395 0.513176
H10_40 H 0.74318 0.775454 0.662287
H11_40 H 0.731367 0.731367 0.662287
H12_40 H 0.775454 0.74318 0.662287
C3_61 C 0.32867 0.50000 0.32867
C4_37 C 0.25000 0.61479 0.25000
C6_61 C 0.35567 0.50000 0.35567
C7_37 C 0.25000 0.65297 0.25000
O9_37 O 0.31796 0.47047 0.31796
O10_37 O 0.22909 0.59962 0.22909
C11_29 C 0.06083 0.65705 0.26643
H4_49 H 0.00000 0.67181 0.23651
O14_29 O 0.06714 0.67414 0.23854
C12_29 C 0.08404 0.62855 0.27397
C13_29 C 0.08211 0.60718 0.30215
S2_29 S 0.11736 0.61736 0.24709
H5_29 H 0.06346 0.60996 0.32239
C14_29 C 0.15705 0.56083 0.26643
O16_25 O 0.17414 0.56714 0.23854
C15_29 C 0.12855 0.58404 0.27397
C16_29 C 0.10718 0.58211 0.30215
H6_29 H 0.10996 0.56346 0.32239
H7_41 H 0.346121 0.513176 0.378395
H8_41 H 0.362258 0.473648 0.362258
H9_41 H 0.378395 0.513176 0.346121
H10_41 H 0.275454 0.662287 0.24318
H11_41 H 0.231367 0.662287 0.231367
H12_41 H 0.24318 0.662287 0.275454
H4_50 H 1.00000 0.67181 0.23651
H4_51 H -0.00000 0.67181 0.76349
C3_62 C 0.67133 0.50000 0.67133
C4_38 C 0.75000 0.61479 0.75000
C6_62 C 0.64433 0.50000 0.64433
C7_38 C 0.75000 0.65297 0.75000
O9_38 O 0.68204 0.47047 0.68204
O10_38 O 0.77091 0.59962 0.77091
C11_30 C 0.93917 0.65705 0.73357
H4_52 H 1.00000 0.67181 0.76349
O14_30 O 0.93286 0.67414 0.76146
C12_30 C 0.91596 0.62855 0.72603
C13_30 C 0.91789 0.60718 0.69785
S2_30 S 0.88264 0.61736 0.75291
H5_30 H 0.93654 0.60996 0.67761
C14_30 C 0.84295 0.56083 0.73357
O16_26 O 0.82586 0.56714 0.76146
C15_30 C 0.87145 0.58404 0.72603
C16_30 C 0.89282 0.58211 0.69785
H6_30 H 0.89004 0.56346 0.67761
H7_42 H 0.653879 0.513176 0.621605
H8_42 H 0.637742 0.473648 0.637742
H9_42 H 0.621605 0.513176 0.653879
H10_42 H 0.724546 0.662287 0.75682
H11_42 H 0.768633 0.662287 0.768633
H12_42 H 0.75682 0.662287 0.724546
H4_53 H -0.00000 0.32819 0.23651
C3_63 C 0.67133 0.50000 0.32867
C4_39 C 0.75000 0.38521 0.25000
C6_63 C 0.64433 0.50000 0.35567
C7_39 C 0.75000 0.34703 0.25000
O9_39 O 0.68204 0.52953 0.31796
O10_39 O 0.77091 0.40038 0.22909
C11_31 C 0.93917 0.34295 0.26643
H4_54 H 1.00000 0.32819 0.23651
O14_31 O 0.93286 0.32586 0.23854
C12_31 C 0.91596 0.37145 0.27397
C13_31 C 0.91789 0.39282 0.30215
S2_31 S 0.88264 0.38264 0.24709
H5_31 H 0.93654 0.39004 0.32239
C14_31 C 0.84295 0.43917 0.26643
O16_27 O 0.82586 0.43286 0.23854
C15_31 C 0.87145 0.41596 0.27397
C16_31 C 0.89282 0.41789 0.30215
H6_31 H 0.89004 0.43654 0.32239
H7_43 H 0.653879 0.486824 0.378395
H8_43 H 0.637742 0.526352 0.362258
H9_43 H 0.621605 0.486824 0.346121
H10_43 H 0.724546 0.337713 0.24318
H11_43 H 0.768633 0.337713 0.231367
H12_43 H 0.75682 0.337713 0.275454
C3_64 C 0.32867 0.50000 0.67133
C4_40 C 0.25000 0.38521 0.75000
C6_64 C 0.35567 0.50000 0.64433
C7_40 C 0.25000 0.34703 0.75000
O9_40 O 0.31796 0.52953 0.68204
O10_40 O 0.22909 0.40038 0.77091
C11_32 C 0.06083 0.34295 0.73357
H4_55 H -0.00000 0.32819 0.76349
O14_32 O 0.06714 0.32586 0.76146
C12_32 C 0.08404 0.37145 0.72603
C13_32 C 0.08211 0.39282 0.69785
S2_32 S 0.11736 0.38264 0.75291
H5_32 H 0.06346 0.39004 0.67761
C14_32 C 0.15705 0.43917 0.73357
O16_28 O 0.17414 0.43286 0.76146
C15_32 C 0.12855 0.41596 0.72603
C16_32 C 0.10718 0.41789 0.69785
H6_32 H 0.10996 0.43654 0.67761
H7_44 H 0.346121 0.486824 0.621605
H8_44 H 0.362258 0.526352 0.637742
H9_44 H 0.378395 0.486824 0.653879
H10_44 H 0.275454 0.337713 0.75682
H11_44 H 0.231367 0.337713 0.768633
H12_44 H 0.24318 0.337713 0.724546
H4_56 H 1.00000 0.32819 0.76349
H7_45 H 0.0131759 0.621605 0.153879
H9_45 H 0.0131759 0.653879 0.121605
H10_45 H 0.162287 0.75682 0.224546
H11_45 H 0.162287 0.768633 0.268633
H12_45 H 0.162287 0.724546 0.25682
H8_45 H 0.973648 0.637742 0.137742
H7_46 H 0.0131759 0.378395 0.846121
H9_46 H 0.0131759 0.346121 0.878395
H10_46 H 0.162287 0.24318 0.775454
H11_46 H 0.162287 0.231367 0.731367
H12_46 H 0.162287 0.275454 0.74318
H8_46 H 0.973648 0.362258 0.862258
H8_47 H 0.0263517 0.637742 0.862258
H7_47 H 0.986824 0.621605 0.846121
H9_47 H 0.986824 0.653879 0.878395
H10_47 H 0.837713 0.75682 0.775454
H11_47 H 0.837713 0.768633 0.731367
H12_47 H 0.837713 0.724546 0.74318
H8_48 H 0.0263517 0.362258 0.137742
H7_48 H 0.986824 0.378395 0.153879
H9_48 H 0.986824 0.346121 0.121605
H10_48 H 0.837713 0.24318 0.224546
H11_48 H 0.837713 0.231367 0.268633
H12_48 H 0.837713 0.275454 0.25682
Zr1_13 Zr 0.70673 0.20673 0.50000
O1_9 O 0.71179 0.16455 0.53640
C1_17 C 0.73357 0.15705 0.56083
H1_25 H 0.76349 0.17181 0.50000
O4_17 O 0.76146 0.17414 0.56714
C2_17 C 0.72603 0.12855 0.58404
C5_17 C 0.69785 0.10718 0.58211
S1_17 S 0.75291 0.11736 0.61736
H2_17 H 0.67761 0.10996 0.56346
O7_9 O 0.71179 0.03640 0.66455
C8_17 C 0.73357 0.06083 0.65705
C9_17 C 0.72603 0.08404 0.62855
C10_17 C 0.69785 0.08211 0.60718
H3_17 H 0.67761 0.06346 0.60996
O11_17 O 0.53640 0.21179 0.66455
O12_21 O 0.50000 0.25940 0.69674
Zr3_25 Zr 0.54459 0.28069 0.71931
O13_13 O 0.54396 0.22848 0.72848
C11_33 C 0.56083 0.23357 0.65705
H4_57 H 0.50000 0.26349 0.67181
O14_33 O 0.56714 0.26146 0.67414
C12_33 C 0.58404 0.22603 0.62855
C13_33 C 0.58211 0.19785 0.60718
S2_33 S 0.61736 0.25291 0.61736
H5_33 H 0.56346 0.17761 0.60996
O15_17 O 0.66455 0.21179 0.53640
C14_33 C 0.65705 0.23357 0.56083
C15_33 C 0.62855 0.22603 0.58404
C16_33 C 0.60718 0.19785 0.58211
H6_33 H 0.60996 0.17761 0.56346
Zr4_17 Zr 0.50000 0.20673 0.70673
Zr5_13 Zr 0.70673 0.00000 0.70673
O17_25 O 0.66455 0.21179 0.46360
O18_25 O 0.71179 0.16455 0.46360
O20_41 O 0.50000 0.30326 0.74060
Zr7_13 Zr 0.45541 0.28069 0.71931
Zr10_5 Zr 0.54459 0.21931 0.78069
O23_25 O 0.54396 0.27152 0.77152
O25_25 O 0.56714 0.32586 0.73854
O27_25 O 0.52953 0.31796 0.68204
O28_25 O 0.59962 0.27091 0.72909
H7_49 H 0.846121 0.121605 0.513176
H8_49 H 0.862258 0.137742 0.473648
H9_49 H 0.878395 0.153879 0.513176
H10_49 H 0.775454 0.25682 0.662287
H11_49 H 0.731367 0.268633 0.662287
H12_49 H 0.74318 0.224546 0.662287
Zr5_14 Zr 0.70673 1.00000 0.70673
Zr5_15 Zr 0.29327 0.00000 0.70673
Zr1_14 Zr 0.29327 0.79327 0.50000
O1_10 O 0.28821 0.83545 0.53640
C1_18 C 0.26643 0.84295 0.56083
H1_26 H 0.23651 0.82819 0.50000
O4_18 O 0.23854 0.82586 0.56714
C2_18 C 0.27397 0.87145 0.58404
C5_18 C 0.30215 0.89282 0.58211
S1_18 S 0.24709 0.88264 0.61736
H2_18 H 0.32239 0.89004 0.56346
O7_10 O 0.28821 0.96360 0.66455
C8_18 C 0.26643 0.93917 0.65705
C9_18 C 0.27397 0.91596 0.62855
C10_18 C 0.30215 0.91789 0.60718
H3_18 H 0.32239 0.93654 0.60996
O11_18 O 0.46360 0.78821 0.66455
O12_22 O 0.50000 0.74060 0.69674
Zr3_26 Zr 0.45541 0.71931 0.71931
O13_14 O 0.45604 0.77152 0.72848
C11_34 C 0.43917 0.76643 0.65705
H4_58 H 0.50000 0.73651 0.67181
O14_34 O 0.43286 0.73854 0.67414
C12_34 C 0.41596 0.77397 0.62855
C13_34 C 0.41789 0.80215 0.60718
S2_34 S 0.38264 0.74709 0.61736
H5_34 H 0.43654 0.82239 0.60996
O15_18 O 0.33545 0.78821 0.53640
C14_34 C 0.34295 0.76643 0.56083
C15_34 C 0.37145 0.77397 0.58404
C16_34 C 0.39282 0.80215 0.58211
H6_34 H 0.39004 0.82239 0.56346
Zr4_18 Zr 0.50000 0.79327 0.70673
Zr5_16 Zr 0.29327 1.00000 0.70673
O17_26 O 0.33545 0.78821 0.46360
O18_26 O 0.28821 0.83545 0.46360
O20_42 O 0.50000 0.69674 0.74060
Zr7_14 Zr 0.54459 0.71931 0.71931
Zr10_6 Zr 0.45541 0.78069 0.78069
O23_26 O 0.45604 0.72848 0.77152
O25_26 O 0.43286 0.67414 0.73854
O27_26 O 0.47047 0.68204 0.68204
O28_26 O 0.40038 0.72909 0.72909
H7_50 H 0.153879 0.878395 0.513176
H8_50 H 0.137742 0.862258 0.473648
H9_50 H 0.121605 0.846121 0.513176
H10_50 H 0.224546 0.74318 0.662287
H11_50 H 0.268633 0.731367 0.662287
H12_50 H 0.25682 0.775454 0.662287
Zr1_15 Zr 0.29327 0.20673 0.50000
O1_11 O 0.28821 0.16455 0.46360
C1_19 C 0.26643 0.15705 0.43917
H1_27 H 0.23651 0.17181 0.50000
O4_19 O 0.23854 0.17414 0.43286
C2_19 C 0.27397 0.12855 0.41596
C5_19 C 0.30215 0.10718 0.41789
S1_19 S 0.24709 0.11736 0.38264
H2_19 H 0.32239 0.10996 0.43654
O7_11 O 0.28821 0.03640 0.33545
C8_19 C 0.26643 0.06083 0.34295
C9_19 C 0.27397 0.08404 0.37145
C10_19 C 0.30215 0.08211 0.39282
H3_19 H 0.32239 0.06346 0.39004
O11_19 O 0.46360 0.21179 0.33545
O12_23 O 0.50000 0.25940 0.30326
Zr3_27 Zr 0.45541 0.28069 0.28069
O13_15 O 0.45604 0.22848 0.27152
C11_35 C 0.43917 0.23357 0.34295
H4_59 H 0.50000 0.26349 0.32819
O14_35 O 0.43286 0.26146 0.32586
C12_35 C 0.41596 0.22603 0.37145
C13_35 C 0.41789 0.19785 0.39282
S2_35 S 0.38264 0.25291 0.38264
H5_35 H 0.43654 0.17761 0.39004
O15_19 O 0.33545 0.21179 0.46360
C14_35 C 0.34295 0.23357 0.43917
C15_35 C 0.37145 0.22603 0.41596
C16_35 C 0.39282 0.19785 0.41789
H6_35 H 0.39004 0.17761 0.43654
Zr4_19 Zr 0.50000 0.20673 0.29327
Zr5_17 Zr 0.29327 0.00000 0.29327
O17_27 O 0.33545 0.21179 0.53640
O18_27 O 0.28821 0.16455 0.53640
O20_43 O 0.50000 0.30326 0.25940
Zr7_15 Zr 0.54459 0.28069 0.28069
Zr10_7 Zr 0.45541 0.21931 0.21931
O23_27 O 0.45604 0.27152 0.22848
O25_27 O 0.43286 0.32586 0.26146
O27_27 O 0.47047 0.31796 0.31796
O28_27 O 0.40038 0.27091 0.27091
H7_51 H 0.153879 0.121605 0.486824
H8_51 H 0.137742 0.137742 0.526352
H9_51 H 0.121605 0.153879 0.486824
H10_51 H 0.224546 0.25682 0.337713
H11_51 H 0.268633 0.268633 0.337713
H12_51 H 0.25682 0.224546 0.337713
Zr5_18 Zr 0.29327 1.00000 0.29327
Zr5_19 Zr 0.70673 -0.00000 0.29327
Zr1_16 Zr 0.70673 0.79327 0.50000
O1_12 O 0.71179 0.83545 0.46360
C1_20 C 0.73357 0.84295 0.43917
H1_28 H 0.76349 0.82819 0.50000
O4_20 O 0.76146 0.82586 0.43286
C2_20 C 0.72603 0.87145 0.41596
C5_20 C 0.69785 0.89282 0.41789
S1_20 S 0.75291 0.88264 0.38264
H2_20 H 0.67761 0.89004 0.43654
O7_12 O 0.71179 0.96360 0.33545
C8_20 C 0.73357 0.93917 0.34295
C9_20 C 0.72603 0.91596 0.37145
C10_20 C 0.69785 0.91789 0.39282
H3_20 H 0.67761 0.93654 0.39004
O11_20 O 0.53640 0.78821 0.33545
O12_24 O 0.50000 0.74060 0.30326
Zr3_28 Zr 0.54459 0.71931 0.28069
O13_16 O 0.54396 0.77152 0.27152
C11_36 C 0.56083 0.76643 0.34295
H4_60 H 0.50000 0.73651 0.32819
O14_36 O 0.56714 0.73854 0.32586
C12_36 C 0.58404 0.77397 0.37145
C13_36 C 0.58211 0.80215 0.39282
S2_36 S 0.61736 0.74709 0.38264
H5_36 H 0.56346 0.82239 0.39004
O15_20 O 0.66455 0.78821 0.46360
C14_36 C 0.65705 0.76643 0.43917
C15_36 C 0.62855 0.77397 0.41596
C16_36 C 0.60718 0.80215 0.41789
H6_36 H 0.60996 0.82239 0.43654
Zr4_20 Zr 0.50000 0.79327 0.29327
Zr5_20 Zr 0.70673 1.00000 0.29327
O17_28 O 0.66455 0.78821 0.53640
O18_28 O 0.71179 0.83545 0.53640
O20_44 O 0.50000 0.69674 0.25940
Zr7_16 Zr 0.45541 0.71931 0.28069
Zr10_8 Zr 0.54459 0.78069 0.21931
O23_28 O 0.54396 0.72848 0.22848
O25_28 O 0.56714 0.67414 0.26146
O27_28 O 0.52953 0.68204 0.31796
O28_28 O 0.59962 0.72909 0.27091
H7_52 H 0.846121 0.878395 0.486824
H8_52 H 0.862258 0.862258 0.526352
H9_52 H 0.878395 0.846121 0.486824
H10_52 H 0.775454 0.74318 0.337713
H11_52 H 0.731367 0.731367 0.337713
H12_52 H 0.74318 0.775454 0.337713
C3_65 C 0.50000 0.32867 0.67133
C4_41 C 0.61479 0.25000 0.75000
C6_65 C 0.50000 0.35567 0.64433
C7_41 C 0.65297 0.25000 0.75000
O9_41 O 0.47047 0.31796 0.68204
O10_41 O 0.59962 0.22909 0.77091
O11_21 O 0.66455 0.03640 0.71179
C11_37 C 0.65705 0.06083 0.73357
H4_61 H 0.67181 -0.00000 0.76349
O14_37 O 0.67414 0.06714 0.76146
C12_37 C 0.62855 0.08404 0.72603
C13_37 C 0.60718 0.08211 0.69785
S2_37 S 0.61736 0.11736 0.75291
H5_37 H 0.60996 0.06346 0.67761
O15_21 O 0.53640 0.16455 0.71179
C14_37 C 0.56083 0.15705 0.73357
O16_29 O 0.56714 0.17414 0.76146
C15_37 C 0.58404 0.12855 0.72603
C16_37 C 0.58211 0.10718 0.69785
H6_37 H 0.56346 0.10996 0.67761
O17_29 O 0.46360 0.16455 0.71179
O18_29 O 0.46360 0.21179 0.66455
O19_33 O 0.50000 0.19674 0.75940
O22_21 O 0.45604 0.22848 0.72848
H7_53 H 0.513176 0.346121 0.621605
H8_53 H 0.473648 0.362258 0.637742
H9_53 H 0.513176 0.378395 0.653879
H10_53 H 0.662287 0.275454 0.75682
H11_53 H 0.662287 0.231367 0.768633
H12_53 H 0.662287 0.24318 0.724546
H4_62 H 0.67181 1.00000 0.76349
H4_63 H 0.67181 -0.00000 0.23651
C3_66 C 0.50000 0.67133 0.32867
C4_42 C 0.61479 0.75000 0.25000
C6_66 C 0.50000 0.64433 0.35567
C7_42 C 0.65297 0.75000 0.25000
O9_42 O 0.47047 0.68204 0.31796
O10_42 O 0.59962 0.77091 0.22909
O11_22 O 0.66455 0.96360 0.28821
C11_38 C 0.65705 0.93917 0.26643
H4_64 H 0.67181 1.00000 0.23651
O14_38 O 0.67414 0.93286 0.23854
C12_38 C 0.62855 0.91596 0.27397
C13_38 C 0.60718 0.91789 0.30215
S2_38 S 0.61736 0.88264 0.24709
H5_38 H 0.60996 0.93654 0.32239
O15_22 O 0.53640 0.83545 0.28821
C14_38 C 0.56083 0.84295 0.26643
O16_30 O 0.56714 0.82586 0.23854
C15_38 C 0.58404 0.87145 0.27397
C16_38 C 0.58211 0.89282 0.30215
H6_38 H 0.56346 0.89004 0.32239
O17_30 O 0.46360 0.83545 0.28821
O18_30 O 0.46360 0.78821 0.33545
O19_34 O 0.50000 0.80326 0.24060
O22_22 O 0.45604 0.77152 0.27152
H7_54 H 0.513176 0.653879 0.378395
H8_54 H 0.473648 0.637742 0.362258
H9_54 H 0.513176 0.621605 0.346121
H10_54 H 0.662287 0.724546 0.24318
H11_54 H 0.662287 0.768633 0.231367
H12_54 H 0.662287 0.75682 0.275454
H4_65 H 0.32819 -0.00000 0.76349
C3_67 C 0.50000 0.67133 0.67133
C4_43 C 0.38521 0.75000 0.75000
C6_67 C 0.50000 0.64433 0.64433
C7_43 C 0.34703 0.75000 0.75000
O9_43 O 0.52953 0.68204 0.68204
O10_43 O 0.40038 0.77091 0.77091
O11_23 O 0.33545 0.96360 0.71179
C11_39 C 0.34295 0.93917 0.73357
H4_66 H 0.32819 1.00000 0.76349
O14_39 O 0.32586 0.93286 0.76146
C12_39 C 0.37145 0.91596 0.72603
C13_39 C 0.39282 0.91789 0.69785
S2_39 S 0.38264 0.88264 0.75291
H5_39 H 0.39004 0.93654 0.67761
O15_23 O 0.46360 0.83545 0.71179
C14_39 C 0.43917 0.84295 0.73357
O16_31 O 0.43286 0.82586 0.76146
C15_39 C 0.41596 0.87145 0.72603
C16_39 C 0.41789 0.89282 0.69785
H6_39 H 0.43654 0.89004 0.67761
O17_31 O 0.53640 0.83545 0.71179
O18_31 O 0.53640 0.78821 0.66455
O19_35 O 0.50000 0.80326 0.75940
O22_23 O 0.54396 0.77152 0.72848
H7_55 H 0.486824 0.653879 0.621605
H8_55 H 0.526352 0.637742 0.637742
H9_55 H 0.486824 0.621605 0.653879
H10_55 H 0.337713 0.724546 0.75682
H11_55 H 0.337713 0.768633 0.768633
H12_55 H 0.337713 0.75682 0.724546
C3_68 C 0.50000 0.32867 0.32867
C4_44 C 0.38521 0.25000 0.25000
C6_68 C 0.50000 0.35567 0.35567
C7_44 C 0.34703 0.25000 0.25000
O9_44 O 0.52953 0.31796 0.31796
O10_44 O 0.40038 0.22909 0.22909
O11_24 O 0.33545 0.03640 0.28821
C11_40 C 0.34295 0.06083 0.26643
H4_67 H 0.32819 0.00000 0.23651
O14_40 O 0.32586 0.06714 0.23854
C12_40 C 0.37145 0.08404 0.27397
C13_40 C 0.39282 0.08211 0.30215
S2_40 S 0.38264 0.11736 0.24709
H5_40 H 0.39004 0.06346 0.32239
O15_24 O 0.46360 0.16455 0.28821
C14_40 C 0.43917 0.15705 0.26643
O16_32 O 0.43286 0.17414 0.23854
C15_40 C 0.41596 0.12855 0.27397
C16_40 C 0.41789 0.10718 0.30215
H6_40 H 0.43654 0.10996 0.32239
O17_32 O 0.53640 0.16455 0.28821
O18_32 O 0.53640 0.21179 0.33545
O19_36 O 0.50000 0.19674 0.24060
O22_24 O 0.54396 0.22848 0.27152
H7_56 H 0.486824 0.346121 0.378395
H8_56 H 0.526352 0.362258 0.362258
H9_56 H 0.486824 0.378395 0.346121
H10_56 H 0.337713 0.275454 0.24318
H11_56 H 0.337713 0.231367 0.231367
H12_56 H 0.337713 0.24318 0.275454
H4_68 H 0.32819 1.00000 0.23651
H7_57 H 0.621605 0.0131759 0.846121
H9_57 H 0.653879 0.0131759 0.878395
H10_57 H 0.75682 0.162287 0.775454
H11_57 H 0.768633 0.162287 0.731367
H12_57 H 0.724546 0.162287 0.74318
O17_33 O 0.71179 0.96360 0.66455
O18_33 O 0.66455 0.96360 0.71179
H8_57 H 0.637742 0.973648 0.862258
H7_58 H 0.378395 0.0131759 0.153879
H9_58 H 0.346121 0.0131759 0.121605
H10_58 H 0.24318 0.162287 0.224546
H11_58 H 0.231367 0.162287 0.268633
H12_58 H 0.275454 0.162287 0.25682
O17_34 O 0.28821 0.96360 0.33545
O18_34 O 0.33545 0.96360 0.28821
H8_58 H 0.362258 0.973648 0.137742
O17_35 O 0.71179 0.03640 0.33545
O18_35 O 0.66455 0.03640 0.28821
H8_59 H 0.637742 0.0263517 0.137742
H7_59 H 0.621605 0.986824 0.153879
H9_59 H 0.653879 0.986824 0.121605
H10_59 H 0.75682 0.837713 0.224546
H11_59 H 0.768633 0.837713 0.268633
H12_59 H 0.724546 0.837713 0.25682
O17_36 O 0.28821 0.03640 0.66455
O18_36 O 0.33545 0.03640 0.71179
H8_60 H 0.362258 0.0263517 0.862258
H7_60 H 0.378395 0.986824 0.846121
H9_60 H 0.346121 0.986824 0.878395
H10_60 H 0.24318 0.837713 0.775454
H11_60 H 0.231367 0.837713 0.731367
H12_60 H 0.275454 0.837713 0.74318
C1_21 C 0.65705 0.23357 0.43917
H1_29 H 0.67181 0.26349 0.50000
O4_21 O 0.67414 0.26146 0.43286
C2_21 C 0.62855 0.22603 0.41596
C5_21 C 0.60718 0.19785 0.41789
S1_21 S 0.61736 0.25291 0.38264
H2_21 H 0.60996 0.17761 0.43654
C8_21 C 0.56083 0.23357 0.34295
O8_13 O 0.56714 0.26146 0.32586
C9_21 C 0.58404 0.22603 0.37145
C10_21 C 0.58211 0.19785 0.39282
H3_21 H 0.56346 0.17761 0.39004
C11_41 C 0.73357 0.06083 0.34295
H4_69 H 0.76349 0.00000 0.32819
O14_41 O 0.76146 0.06714 0.32586
C12_41 C 0.72603 0.08404 0.37145
C13_41 C 0.69785 0.08211 0.39282
S2_41 S 0.75291 0.11736 0.38264
H5_41 H 0.67761 0.06346 0.39004
C14_41 C 0.73357 0.15705 0.43917
C15_41 C 0.72603 0.12855 0.41596
C16_41 C 0.69785 0.10718 0.41789
H6_41 H 0.67761 0.10996 0.43654
H7_61 H 0.621605 0.346121 0.486824
H8_61 H 0.637742 0.362258 0.526352
H9_61 H 0.653879 0.378395 0.486824
H10_61 H 0.75682 0.275454 0.337713
H11_61 H 0.768633 0.231367 0.337713
H12_61 H 0.724546 0.24318 0.337713
H4_70 H 0.76349 1.00000 0.32819
H4_71 H 0.23651 -0.00000 0.32819
C1_22 C 0.34295 0.76643 0.43917
H1_30 H 0.32819 0.73651 0.50000
O4_22 O 0.32586 0.73854 0.43286
C2_22 C 0.37145 0.77397 0.41596
C5_22 C 0.39282 0.80215 0.41789
S1_22 S 0.38264 0.74709 0.38264
H2_22 H 0.39004 0.82239 0.43654
C8_22 C 0.43917 0.76643 0.34295
O8_14 O 0.43286 0.73854 0.32586
C9_22 C 0.41596 0.77397 0.37145
C10_22 C 0.41789 0.80215 0.39282
H3_22 H 0.43654 0.82239 0.39004
C11_42 C 0.26643 0.93917 0.34295
H4_72 H 0.23651 1.00000 0.32819
O14_42 O 0.23854 0.93286 0.32586
C12_42 C 0.27397 0.91596 0.37145
C13_42 C 0.30215 0.91789 0.39282
S2_42 S 0.24709 0.88264 0.38264
H5_42 H 0.32239 0.93654 0.39004
C14_42 C 0.26643 0.84295 0.43917
C15_42 C 0.27397 0.87145 0.41596
C16_42 C 0.30215 0.89282 0.41789
H6_42 H 0.32239 0.89004 0.43654
H7_62 H 0.378395 0.653879 0.486824
H8_62 H 0.362258 0.637742 0.526352
H9_62 H 0.346121 0.621605 0.486824
H10_62 H 0.24318 0.724546 0.337713
H11_62 H 0.231367 0.768633 0.337713
H12_62 H 0.275454 0.75682 0.337713
H4_73 H 0.76349 0.00000 0.67181
C1_23 C 0.65705 0.76643 0.56083
H1_31 H 0.67181 0.73651 0.50000
O4_23 O 0.67414 0.73854 0.56714
C2_23 C 0.62855 0.77397 0.58404
C5_23 C 0.60718 0.80215 0.58211
S1_23 S 0.61736 0.74709 0.61736
H2_23 H 0.60996 0.82239 0.56346
C8_23 C 0.56083 0.76643 0.65705
O8_15 O 0.56714 0.73854 0.67414
C9_23 C 0.58404 0.77397 0.62855
C10_23 C 0.58211 0.80215 0.60718
H3_23 H 0.56346 0.82239 0.60996
C11_43 C 0.73357 0.93917 0.65705
H4_74 H 0.76349 1.00000 0.67181
O14_43 O 0.76146 0.93286 0.67414
C12_43 C 0.72603 0.91596 0.62855
C13_43 C 0.69785 0.91789 0.60718
S2_43 S 0.75291 0.88264 0.61736
H5_43 H 0.67761 0.93654 0.60996
C14_43 C 0.73357 0.84295 0.56083
C15_43 C 0.72603 0.87145 0.58404
C16_43 C 0.69785 0.89282 0.58211
H6_43 H 0.67761 0.89004 0.56346
H7_63 H 0.621605 0.653879 0.513176
H8_63 H 0.637742 0.637742 0.473648
H9_63 H 0.653879 0.621605 0.513176
H10_63 H 0.75682 0.724546 0.662287
H11_63 H 0.768633 0.768633 0.662287
H12_63 H 0.724546 0.75682 0.662287
C1_24 C 0.34295 0.23357 0.56083
H1_32 H 0.32819 0.26349 0.50000
O4_24 O 0.32586 0.26146 0.56714
C2_24 C 0.37145 0.22603 0.58404
C5_24 C 0.39282 0.19785 0.58211
S1_24 S 0.38264 0.25291 0.61736
H2_24 H 0.39004 0.17761 0.56346
C8_24 C 0.43917 0.23357 0.65705
O8_16 O 0.43286 0.26146 0.67414
C9_24 C 0.41596 0.22603 0.62855
C10_24 C 0.41789 0.19785 0.60718
H3_24 H 0.43654 0.17761 0.60996
C11_44 C 0.26643 0.06083 0.65705
H4_75 H 0.23651 0.00000 0.67181
O14_44 O 0.23854 0.06714 0.67414
C12_44 C 0.27397 0.08404 0.62855
C13_44 C 0.30215 0.08211 0.60718
S2_44 S 0.24709 0.11736 0.61736
H5_44 H 0.32239 0.06346 0.60996
C14_44 C 0.26643 0.15705 0.56083
C15_44 C 0.27397 0.12855 0.58404
C16_44 C 0.30215 0.10718 0.58211
H6_44 H 0.32239 0.10996 0.56346
H7_64 H 0.378395 0.346121 0.513176
H8_64 H 0.362258 0.362258 0.473648
H9_64 H 0.346121 0.378395 0.513176
H10_64 H 0.24318 0.275454 0.662287
H11_64 H 0.231367 0.231367 0.662287
H12_64 H 0.275454 0.24318 0.662287
H4_76 H 0.23651 1.00000 0.67181
Zr3_29 Zr 0.54459 0.21931 0.21931
C11_45 C 0.56083 0.15705 0.26643
H4_77 H 0.50000 0.17181 0.23651
O14_45 O 0.56714 0.17414 0.23854
C12_45 C 0.58404 0.12855 0.27397
C13_45 C 0.58211 0.10718 0.30215
S2_45 S 0.61736 0.11736 0.24709
H5_45 H 0.56346 0.10996 0.32239
C14_45 C 0.65705 0.06083 0.26643
C15_45 C 0.62855 0.08404 0.27397
C16_45 C 0.60718 0.08211 0.30215
H6_45 H 0.60996 0.06346 0.32239
O20_45 O 0.50000 0.24060 0.19674
O23_29 O 0.54396 0.27152 0.22848
O25_29 O 0.56714 0.23854 0.17414
O27_29 O 0.52953 0.18204 0.18204
O28_29 O 0.59962 0.22909 0.22909
H7_65 H 0.846121 0.0131759 0.378395
H9_65 H 0.878395 0.0131759 0.346121
H10_65 H 0.775454 0.162287 0.24318
H11_65 H 0.731367 0.162287 0.231367
H12_65 H 0.74318 0.162287 0.275454
H8_65 H 0.862258 0.973648 0.362258
Zr3_30 Zr 0.45541 0.21931 0.78069
C11_46 C 0.43917 0.15705 0.73357
H4_78 H 0.50000 0.17181 0.76349
O14_46 O 0.43286 0.17414 0.76146
C12_46 C 0.41596 0.12855 0.72603
C13_46 C 0.41789 0.10718 0.69785
S2_46 S 0.38264 0.11736 0.75291
H5_46 H 0.43654 0.10996 0.67761
C14_46 C 0.34295 0.06083 0.73357
C15_46 C 0.37145 0.08404 0.72603
C16_46 C 0.39282 0.08211 0.69785
H6_46 H 0.39004 0.06346 0.67761
O20_46 O 0.50000 0.24060 0.80326
O23_30 O 0.45604 0.27152 0.77152
O25_30 O 0.43286 0.23854 0.82586
O27_30 O 0.47047 0.18204 0.81796
O28_30 O 0.40038 0.22909 0.77091
H7_66 H 0.153879 0.0131759 0.621605
H9_66 H 0.121605 0.0131759 0.653879
H10_66 H 0.224546 0.162287 0.75682
H11_66 H 0.268633 0.162287 0.768633
H12_66 H 0.25682 0.162287 0.724546
H8_66 H 0.137742 0.973648 0.637742
H8_67 H 0.137742 0.0263517 0.362258
Zr3_31 Zr 0.45541 0.78069 0.21931
C11_47 C 0.43917 0.84295 0.26643
H4_79 H 0.50000 0.82819 0.23651
O14_47 O 0.43286 0.82586 0.23854
C12_47 C 0.41596 0.87145 0.27397
C13_47 C 0.41789 0.89282 0.30215
S2_47 S 0.38264 0.88264 0.24709
H5_47 H 0.43654 0.89004 0.32239
C14_47 C 0.34295 0.93917 0.26643
C15_47 C 0.37145 0.91596 0.27397
C16_47 C 0.39282 0.91789 0.30215
H6_47 H 0.39004 0.93654 0.32239
O20_47 O 0.50000 0.75940 0.19674
O23_31 O 0.45604 0.72848 0.22848
O25_31 O 0.43286 0.76146 0.17414
O27_31 O 0.47047 0.81796 0.18204
O28_31 O 0.40038 0.77091 0.22909
H7_67 H 0.153879 0.986824 0.378395
H9_67 H 0.121605 0.986824 0.346121
H10_67 H 0.224546 0.837713 0.24318
H11_67 H 0.268633 0.837713 0.231367
H12_67 H 0.25682 0.837713 0.275454
H8_68 H 0.862258 0.0263517 0.637742
Zr3_32 Zr 0.54459 0.78069 0.78069
C11_48 C 0.56083 0.84295 0.73357
H4_80 H 0.50000 0.82819 0.76349
O14_48 O 0.56714 0.82586 0.76146
C12_48 C 0.58404 0.87145 0.72603
C13_48 C 0.58211 0.89282 0.69785
S2_48 S 0.61736 0.88264 0.75291
H5_48 H 0.56346 0.89004 0.67761
C14_48 C 0.65705 0.93917 0.73357
C15_48 C 0.62855 0.91596 0.72603
C16_48 C 0.60718 0.91789 0.69785
H6_48 H 0.60996 0.93654 0.67761
O20_48 O 0.50000 0.75940 0.80326
O23_32 O 0.54396 0.72848 0.77152
O25_32 O 0.56714 0.76146 0.82586
O27_32 O 0.52953 0.81796 0.81796
O28_32 O 0.59962 0.77091 0.77091
H7_68 H 0.846121 0.986824 0.621605
H9_68 H 0.878395 0.986824 0.653879
H10_68 H 0.775454 0.837713 0.75682
H11_68 H 0.731367 0.837713 0.768633
H12_68 H 0.74318 0.837713 0.724546
C3_69 C 0.50000 0.17133 0.17133
C4_45 C 0.61479 0.25000 0.25000
C6_69 C 0.50000 0.14433 0.14433
C7_45 C 0.65297 0.25000 0.25000
O9_45 O 0.47047 0.18204 0.18204
O10_45 O 0.59962 0.27091 0.27091
H7_69 H 0.513176 0.121605 0.153879
H8_69 H 0.473648 0.137742 0.137742
H9_69 H 0.513176 0.153879 0.121605
H10_69 H 0.662287 0.25682 0.224546
H11_69 H 0.662287 0.268633 0.268633
H12_69 H 0.662287 0.224546 0.25682
C3_70 C 0.50000 0.82867 0.82867
C4_46 C 0.61479 0.75000 0.75000
C6_70 C 0.50000 0.85567 0.85567
C7_46 C 0.65297 0.75000 0.75000
O9_46 O 0.47047 0.81796 0.81796
O10_46 O 0.59962 0.72909 0.72909
H7_70 H 0.513176 0.878395 0.846121
H8_70 H 0.473648 0.862258 0.862258
H9_70 H 0.513176 0.846121 0.878395
H10_70 H 0.662287 0.74318 0.775454
H11_70 H 0.662287 0.731367 0.731367
H12_70 H 0.662287 0.775454 0.74318
C3_71 C 0.50000 0.17133 0.82867
C4_47 C 0.38521 0.25000 0.75000
C6_71 C 0.50000 0.14433 0.85567
C7_47 C 0.34703 0.25000 0.75000
O9_47 O 0.52953 0.18204 0.81796
O10_47 O 0.40038 0.27091 0.72909
H7_71 H 0.486824 0.121605 0.846121
H8_71 H 0.526352 0.137742 0.862258
H9_71 H 0.486824 0.153879 0.878395
H10_71 H 0.337713 0.25682 0.775454
H11_71 H 0.337713 0.268633 0.731367
H12_71 H 0.337713 0.224546 0.74318
C3_72 C 0.50000 0.82867 0.17133
C4_48 C 0.38521 0.75000 0.25000
C6_72 C 0.50000 0.85567 0.14433
C7_48 C 0.34703 0.75000 0.25000
O9_48 O 0.52953 0.81796 0.18204
O10_48 O 0.40038 0.72909 0.27091
H7_72 H 0.486824 0.878395 0.153879
H8_72 H 0.526352 0.862258 0.137742
H9_72 H 0.486824 0.846121 0.121605
H10_72 H 0.337713 0.74318 0.224546
H11_72 H 0.337713 0.731367 0.268633
H12_72 H 0.337713 0.775454 0.25682
Zr1_17 Zr 0.70673 0.70673 0.00000
O1_13 O 0.71179 0.66455 0.03640
C1_25 C 0.73357 0.65705 0.06083
H1_33 H 0.76349 0.67181 0.00000
O4_25 O 0.76146 0.67414 0.06714
C2_25 C 0.72603 0.62855 0.08404
C5_25 C 0.69785 0.60718 0.08211
S1_25 S 0.75291 0.61736 0.11736
H2_25 H 0.67761 0.60996 0.06346
O7_13 O 0.71179 0.53640 0.16455
C8_25 C 0.73357 0.56083 0.15705
C9_25 C 0.72603 0.58404 0.12855
C10_25 C 0.69785 0.58211 0.10718
H3_25 H 0.67761 0.56346 0.10996
O11_25 O 0.53640 0.71179 0.16455
C11_49 C 0.56083 0.73357 0.15705
H4_81 H 0.50000 0.76349 0.17181
O14_49 O 0.56714 0.76146 0.17414
C12_49 C 0.58404 0.72603 0.12855
C13_49 C 0.58211 0.69785 0.10718
S2_49 S 0.61736 0.75291 0.11736
H5_49 H 0.56346 0.67761 0.10996
O15_25 O 0.66455 0.71179 0.03640
C14_49 C 0.65705 0.73357 0.06083
C15_49 C 0.62855 0.72603 0.08404
C16_49 C 0.60718 0.69785 0.08211
H6_49 H 0.60996 0.67761 0.06346
Zr4_21 Zr 0.50000 0.70673 0.20673
Zr5_21 Zr 0.70673 0.50000 0.20673
H7_73 H 0.846121 0.621605 0.0131759
H9_73 H 0.878395 0.653879 0.0131759
H10_73 H 0.775454 0.75682 0.162287
H11_73 H 0.731367 0.768633 0.162287
H12_73 H 0.74318 0.724546 0.162287
Zr1_18 Zr 0.70673 0.70673 1.00000
H1_34 H 0.76349 0.67181 1.00000
O17_37 O 0.66455 0.71179 0.96360
O18_37 O 0.71179 0.66455 0.96360
H8_73 H 0.862258 0.637742 0.973648
Zr1_19 Zr 0.29327 0.29327 0.00000
O1_14 O 0.28821 0.33545 0.03640
C1_26 C 0.26643 0.34295 0.06083
H1_35 H 0.23651 0.32819 0.00000
O4_26 O 0.23854 0.32586 0.06714
C2_26 C 0.27397 0.37145 0.08404
C5_26 C 0.30215 0.39282 0.08211
S1_26 S 0.24709 0.38264 0.11736
H2_26 H 0.32239 0.39004 0.06346
O7_14 O 0.28821 0.46360 0.16455
C8_26 C 0.26643 0.43917 0.15705
C9_26 C 0.27397 0.41596 0.12855
C10_26 C 0.30215 0.41789 0.10718
H3_26 H 0.32239 0.43654 0.10996
O11_26 O 0.46360 0.28821 0.16455
C11_50 C 0.43917 0.26643 0.15705
H4_82 H 0.50000 0.23651 0.17181
O14_50 O 0.43286 0.23854 0.17414
C12_50 C 0.41596 0.27397 0.12855
C13_50 C 0.41789 0.30215 0.10718
S2_50 S 0.38264 0.24709 0.11736
H5_50 H 0.43654 0.32239 0.10996
O15_26 O 0.33545 0.28821 0.03640
C14_50 C 0.34295 0.26643 0.06083
C15_50 C 0.37145 0.27397 0.08404
C16_50 C 0.39282 0.30215 0.08211
H6_50 H 0.39004 0.32239 0.06346
Zr4_22 Zr 0.50000 0.29327 0.20673
Zr5_22 Zr 0.29327 0.50000 0.20673
H7_74 H 0.153879 0.378395 0.0131759
H9_74 H 0.121605 0.346121 0.0131759
H10_74 H 0.224546 0.24318 0.162287
H11_74 H 0.268633 0.231367 0.162287
H12_74 H 0.25682 0.275454 0.162287
Zr1_20 Zr 0.29327 0.29327 1.00000
H1_36 H 0.23651 0.32819 1.00000
O17_38 O 0.33545 0.28821 0.96360
O18_38 O 0.28821 0.33545 0.96360
H8_74 H 0.137742 0.362258 0.973648
Zr1_21 Zr 0.29327 0.70673 0.00000
H1_37 H 0.23651 0.67181 0.00000
O17_39 O 0.33545 0.71179 0.03640
O18_39 O 0.28821 0.66455 0.03640
H8_75 H 0.137742 0.637742 0.0263517
Zr1_22 Zr 0.29327 0.70673 1.00000
O1_15 O 0.28821 0.66455 0.96360
C1_27 C 0.26643 0.65705 0.93917
H1_38 H 0.23651 0.67181 1.00000
O4_27 O 0.23854 0.67414 0.93286
C2_27 C 0.27397 0.62855 0.91596
C5_27 C 0.30215 0.60718 0.91789
S1_27 S 0.24709 0.61736 0.88264
H2_27 H 0.32239 0.60996 0.93654
O7_15 O 0.28821 0.53640 0.83545
C8_27 C 0.26643 0.56083 0.84295
C9_27 C 0.27397 0.58404 0.87145
C10_27 C 0.30215 0.58211 0.89282
H3_27 H 0.32239 0.56346 0.89004
O11_27 O 0.46360 0.71179 0.83545
C11_51 C 0.43917 0.73357 0.84295
H4_83 H 0.50000 0.76349 0.82819
O14_51 O 0.43286 0.76146 0.82586
C12_51 C 0.41596 0.72603 0.87145
C13_51 C 0.41789 0.69785 0.89282
S2_51 S 0.38264 0.75291 0.88264
H5_51 H 0.43654 0.67761 0.89004
O15_27 O 0.33545 0.71179 0.96360
C14_51 C 0.34295 0.73357 0.93917
C15_51 C 0.37145 0.72603 0.91596
C16_51 C 0.39282 0.69785 0.91789
H6_51 H 0.39004 0.67761 0.93654
Zr4_23 Zr 0.50000 0.70673 0.79327
Zr5_23 Zr 0.29327 0.50000 0.79327
H7_75 H 0.153879 0.621605 0.986824
H9_75 H 0.121605 0.653879 0.986824
H10_75 H 0.224546 0.75682 0.837713
H11_75 H 0.268633 0.768633 0.837713
H12_75 H 0.25682 0.724546 0.837713
Zr1_23 Zr 0.70673 0.29327 0.00000
H1_39 H 0.76349 0.32819 0.00000
O17_40 O 0.66455 0.28821 0.03640
O18_40 O 0.71179 0.33545 0.03640
H8_76 H 0.862258 0.362258 0.0263517
Zr1_24 Zr 0.70673 0.29327 1.00000
O1_16 O 0.71179 0.33545 0.96360
C1_28 C 0.73357 0.34295 0.93917
H1_40 H 0.76349 0.32819 1.00000
O4_28 O 0.76146 0.32586 0.93286
C2_28 C 0.72603 0.37145 0.91596
C5_28 C 0.69785 0.39282 0.91789
S1_28 S 0.75291 0.38264 0.88264
H2_28 H 0.67761 0.39004 0.93654
O7_16 O 0.71179 0.46360 0.83545
C8_28 C 0.73357 0.43917 0.84295
C9_28 C 0.72603 0.41596 0.87145
C10_28 C 0.69785 0.41789 0.89282
H3_28 H 0.67761 0.43654 0.89004
O11_28 O 0.53640 0.28821 0.83545
C11_52 C 0.56083 0.26643 0.84295
H4_84 H 0.50000 0.23651 0.82819
O14_52 O 0.56714 0.23854 0.82586
C12_52 C 0.58404 0.27397 0.87145
C13_52 C 0.58211 0.30215 0.89282
S2_52 S 0.61736 0.24709 0.88264
H5_52 H 0.56346 0.32239 0.89004
O15_28 O 0.66455 0.28821 0.96360
C14_52 C 0.65705 0.26643 0.93917
C15_52 C 0.62855 0.27397 0.91596
C16_52 C 0.60718 0.30215 0.91789
H6_52 H 0.60996 0.32239 0.93654
Zr4_24 Zr 0.50000 0.29327 0.79327
Zr5_24 Zr 0.70673 0.50000 0.79327
H7_76 H 0.846121 0.378395 0.986824
H9_76 H 0.878395 0.346121 0.986824
H10_76 H 0.775454 0.24318 0.837713
H11_76 H 0.731367 0.231367 0.837713
H12_76 H 0.74318 0.275454 0.837713
O11_29 O 0.66455 0.53640 0.21179
C11_53 C 0.65705 0.56083 0.23357
H4_85 H 0.67181 0.50000 0.26349
O14_53 O 0.67414 0.56714 0.26146
C12_53 C 0.62855 0.58404 0.22603
C13_53 C 0.60718 0.58211 0.19785
S2_53 S 0.61736 0.61736 0.25291
H5_53 H 0.60996 0.56346 0.17761
O15_29 O 0.53640 0.66455 0.21179
C14_53 C 0.56083 0.65705 0.23357
C15_53 C 0.58404 0.62855 0.22603
C16_53 C 0.58211 0.60718 0.19785
H6_53 H 0.56346 0.60996 0.17761
O17_41 O 0.46360 0.66455 0.21179
O18_41 O 0.46360 0.71179 0.16455
H7_77 H 0.513176 0.846121 0.121605
H8_77 H 0.473648 0.862258 0.137742
H9_77 H 0.513176 0.878395 0.153879
H10_77 H 0.662287 0.775454 0.25682
H11_77 H 0.662287 0.731367 0.268633
H12_77 H 0.662287 0.74318 0.224546
O11_30 O 0.66455 0.46360 0.78821
C11_54 C 0.65705 0.43917 0.76643
H4_86 H 0.67181 0.50000 0.73651
O14_54 O 0.67414 0.43286 0.73854
C12_54 C 0.62855 0.41596 0.77397
C13_54 C 0.60718 0.41789 0.80215
S2_54 S 0.61736 0.38264 0.74709
H5_54 H 0.60996 0.43654 0.82239
O15_30 O 0.53640 0.33545 0.78821
C14_54 C 0.56083 0.34295 0.76643
C15_54 C 0.58404 0.37145 0.77397
C16_54 C 0.58211 0.39282 0.80215
H6_54 H 0.56346 0.39004 0.82239
O17_42 O 0.46360 0.33545 0.78821
O18_42 O 0.46360 0.28821 0.83545
H7_78 H 0.513176 0.153879 0.878395
H8_78 H 0.473648 0.137742 0.862258
H9_78 H 0.513176 0.121605 0.846121
H10_78 H 0.662287 0.224546 0.74318
H11_78 H 0.662287 0.268633 0.731367
H12_78 H 0.662287 0.25682 0.775454
O11_31 O 0.33545 0.46360 0.21179
C11_55 C 0.34295 0.43917 0.23357
H4_87 H 0.32819 0.50000 0.26349
O14_55 O 0.32586 0.43286 0.26146
C12_55 C 0.37145 0.41596 0.22603
C13_55 C 0.39282 0.41789 0.19785
S2_55 S 0.38264 0.38264 0.25291
H5_55 H 0.39004 0.43654 0.17761
O15_31 O 0.46360 0.33545 0.21179
C14_55 C 0.43917 0.34295 0.23357
C15_55 C 0.41596 0.37145 0.22603
C16_55 C 0.41789 0.39282 0.19785
H6_55 H 0.43654 0.39004 0.17761
O17_43 O 0.53640 0.33545 0.21179
O18_43 O 0.53640 0.28821 0.16455
H7_79 H 0.486824 0.153879 0.121605
H8_79 H 0.526352 0.137742 0.137742
H9_79 H 0.486824 0.121605 0.153879
H10_79 H 0.337713 0.224546 0.25682
H11_79 H 0.337713 0.268633 0.268633
H12_79 H 0.337713 0.25682 0.224546
O11_32 O 0.33545 0.53640 0.78821
C11_56 C 0.34295 0.56083 0.76643
H4_88 H 0.32819 0.50000 0.73651
O14_56 O 0.32586 0.56714 0.73854
C12_56 C 0.37145 0.58404 0.77397
C13_56 C 0.39282 0.58211 0.80215
S2_56 S 0.38264 0.61736 0.74709
H5_56 H 0.39004 0.56346 0.82239
O15_32 O 0.46360 0.66455 0.78821
C14_56 C 0.43917 0.65705 0.76643
C15_56 C 0.41596 0.62855 0.77397
C16_56 C 0.41789 0.60718 0.80215
H6_56 H 0.43654 0.60996 0.82239
O17_44 O 0.53640 0.66455 0.78821
O18_44 O 0.53640 0.71179 0.83545
H7_80 H 0.486824 0.846121 0.878395
H8_80 H 0.526352 0.862258 0.862258
H9_80 H 0.486824 0.878395 0.846121
H10_80 H 0.337713 0.775454 0.74318
H11_80 H 0.337713 0.731367 0.731367
H12_80 H 0.337713 0.74318 0.775454
O17_45 O 0.71179 0.46360 0.16455
O18_45 O 0.66455 0.46360 0.21179
H7_81 H 0.621605 0.513176 0.346121
H8_81 H 0.637742 0.473648 0.362258
H9_81 H 0.653879 0.513176 0.378395
H10_81 H 0.75682 0.662287 0.275454
H11_81 H 0.768633 0.662287 0.231367
H12_81 H 0.724546 0.662287 0.24318
O17_46 O 0.28821 0.46360 0.83545
O18_46 O 0.33545 0.46360 0.78821
H7_82 H 0.378395 0.513176 0.653879
H8_82 H 0.362258 0.473648 0.637742
H9_82 H 0.346121 0.513176 0.621605
H10_82 H 0.24318 0.662287 0.724546
H11_82 H 0.231367 0.662287 0.768633
H12_82 H 0.275454 0.662287 0.75682
O17_47 O 0.71179 0.53640 0.83545
O18_47 O 0.66455 0.53640 0.78821
H7_83 H 0.621605 0.486824 0.653879
H8_83 H 0.637742 0.526352 0.637742
H9_83 H 0.653879 0.486824 0.621605
H10_83 H 0.75682 0.337713 0.724546
H11_83 H 0.768633 0.337713 0.768633
H12_83 H 0.724546 0.337713 0.75682
O17_48 O 0.28821 0.53640 0.16455
O18_48 O 0.33545 0.53640 0.21179
H7_84 H 0.378395 0.486824 0.346121
H8_84 H 0.362258 0.526352 0.362258
H9_84 H 0.346121 0.486824 0.378395
H10_84 H 0.24318 0.337713 0.275454
H11_84 H 0.231367 0.337713 0.231367
H12_84 H 0.275454 0.337713 0.24318
H1_41 H 0.67181 0.76349 0.00000
H8_85 H 0.637742 0.862258 0.0263517
C1_29 C 0.65705 0.73357 0.93917
H1_42 H 0.67181 0.76349 1.00000
O4_29 O 0.67414 0.76146 0.93286
C2_29 C 0.62855 0.72603 0.91596
C5_29 C 0.60718 0.69785 0.91789
S1_29 S 0.61736 0.75291 0.88264
H2_29 H 0.60996 0.67761 0.93654
C8_29 C 0.56083 0.73357 0.84295
C9_29 C 0.58404 0.72603 0.87145
C10_29 C 0.58211 0.69785 0.89282
H3_29 H 0.56346 0.67761 0.89004
C11_57 C 0.73357 0.56083 0.84295
H4_89 H 0.76349 0.50000 0.82819
O14_57 O 0.76146 0.56714 0.82586
C12_57 C 0.72603 0.58404 0.87145
C13_57 C 0.69785 0.58211 0.89282
S2_57 S 0.75291 0.61736 0.88264
H5_57 H 0.67761 0.56346 0.89004
C14_57 C 0.73357 0.65705 0.93917
C15_57 C 0.72603 0.62855 0.91596
C16_57 C 0.69785 0.60718 0.91789
H6_57 H 0.67761 0.60996 0.93654
H7_85 H 0.621605 0.846121 0.986824
H9_85 H 0.653879 0.878395 0.986824
H10_85 H 0.75682 0.775454 0.837713
H11_85 H 0.768633 0.731367 0.837713
H12_85 H 0.724546 0.74318 0.837713
H1_43 H 0.32819 0.23651 0.00000
H8_86 H 0.362258 0.137742 0.0263517
C1_30 C 0.34295 0.26643 0.93917
H1_44 H 0.32819 0.23651 1.00000
O4_30 O 0.32586 0.23854 0.93286
C2_30 C 0.37145 0.27397 0.91596
C5_30 C 0.39282 0.30215 0.91789
S1_30 S 0.38264 0.24709 0.88264
H2_30 H 0.39004 0.32239 0.93654
C8_30 C 0.43917 0.26643 0.84295
C9_30 C 0.41596 0.27397 0.87145
C10_30 C 0.41789 0.30215 0.89282
H3_30 H 0.43654 0.32239 0.89004
C11_58 C 0.26643 0.43917 0.84295
H4_90 H 0.23651 0.50000 0.82819
O14_58 O 0.23854 0.43286 0.82586
C12_58 C 0.27397 0.41596 0.87145
C13_58 C 0.30215 0.41789 0.89282
S2_58 S 0.24709 0.38264 0.88264
H5_58 H 0.32239 0.43654 0.89004
C14_58 C 0.26643 0.34295 0.93917
C15_58 C 0.27397 0.37145 0.91596
C16_58 C 0.30215 0.39282 0.91789
H6_58 H 0.32239 0.39004 0.93654
H7_86 H 0.378395 0.153879 0.986824
H9_86 H 0.346121 0.121605 0.986824
H10_86 H 0.24318 0.224546 0.837713
H11_86 H 0.231367 0.268633 0.837713
H12_86 H 0.275454 0.25682 0.837713
C1_31 C 0.65705 0.26643 0.06083
H1_45 H 0.67181 0.23651 0.00000
O4_31 O 0.67414 0.23854 0.06714
C2_31 C 0.62855 0.27397 0.08404
C5_31 C 0.60718 0.30215 0.08211
S1_31 S 0.61736 0.24709 0.11736
H2_31 H 0.60996 0.32239 0.06346
C8_31 C 0.56083 0.26643 0.15705
C9_31 C 0.58404 0.27397 0.12855
C10_31 C 0.58211 0.30215 0.10718
H3_31 H 0.56346 0.32239 0.10996
C11_59 C 0.73357 0.43917 0.15705
H4_91 H 0.76349 0.50000 0.17181
O14_59 O 0.76146 0.43286 0.17414
C12_59 C 0.72603 0.41596 0.12855
C13_59 C 0.69785 0.41789 0.10718
S2_59 S 0.75291 0.38264 0.11736
H5_59 H 0.67761 0.43654 0.10996
C14_59 C 0.73357 0.34295 0.06083
C15_59 C 0.72603 0.37145 0.08404
C16_59 C 0.69785 0.39282 0.08211
H6_59 H 0.67761 0.39004 0.06346
H7_87 H 0.621605 0.153879 0.0131759
H9_87 H 0.653879 0.121605 0.0131759
H10_87 H 0.75682 0.224546 0.162287
H11_87 H 0.768633 0.268633 0.162287
H12_87 H 0.724546 0.25682 0.162287
H1_46 H 0.67181 0.23651 1.00000
H8_87 H 0.637742 0.137742 0.973648
C1_32 C 0.34295 0.73357 0.06083
H1_47 H 0.32819 0.76349 0.00000
O4_32 O 0.32586 0.76146 0.06714
C2_32 C 0.37145 0.72603 0.08404
C5_32 C 0.39282 0.69785 0.08211
S1_32 S 0.38264 0.75291 0.11736
H2_32 H 0.39004 0.67761 0.06346
C8_32 C 0.43917 0.73357 0.15705
C9_32 C 0.41596 0.72603 0.12855
C10_32 C 0.41789 0.69785 0.10718
H3_32 H 0.43654 0.67761 0.10996
C11_60 C 0.26643 0.56083 0.15705
H4_92 H 0.23651 0.50000 0.17181
O14_60 O 0.23854 0.56714 0.17414
C12_60 C 0.27397 0.58404 0.12855
C13_60 C 0.30215 0.58211 0.10718
S2_60 S 0.24709 0.61736 0.11736
H5_60 H 0.32239 0.56346 0.10996
C14_60 C 0.26643 0.65705 0.06083
C15_60 C 0.27397 0.62855 0.08404
C16_60 C 0.30215 0.60718 0.08211
H6_60 H 0.32239 0.60996 0.06346
H7_88 H 0.378395 0.846121 0.0131759
H9_88 H 0.346121 0.878395 0.0131759
H10_88 H 0.24318 0.775454 0.162287
H11_88 H 0.231367 0.731367 0.162287
H12_88 H 0.275454 0.74318 0.162287
H1_48 H 0.32819 0.76349 1.00000
H8_88 H 0.362258 0.862258 0.973648
C11_61 C 0.56083 0.65705 0.76643
H4_93 H 0.50000 0.67181 0.73651
O14_61 O 0.56714 0.67414 0.73854
C12_61 C 0.58404 0.62855 0.77397
C13_61 C 0.58211 0.60718 0.80215
S2_61 S 0.61736 0.61736 0.74709
H5_61 H 0.56346 0.60996 0.82239
C14_61 C 0.65705 0.56083 0.76643
C15_61 C 0.62855 0.58404 0.77397
C16_61 C 0.60718 0.58211 0.80215
H6_61 H 0.60996 0.56346 0.82239
H7_89 H 0.846121 0.513176 0.878395
H8_89 H 0.862258 0.473648 0.862258
H9_89 H 0.878395 0.513176 0.846121
H10_89 H 0.775454 0.662287 0.74318
H11_89 H 0.731367 0.662287 0.731367
H12_89 H 0.74318 0.662287 0.775454
C11_62 C 0.43917 0.65705 0.23357
H4_94 H 0.50000 0.67181 0.26349
O14_62 O 0.43286 0.67414 0.26146
C12_62 C 0.41596 0.62855 0.22603
C13_62 C 0.41789 0.60718 0.19785
S2_62 S 0.38264 0.61736 0.25291
H5_62 H 0.43654 0.60996 0.17761
C14_62 C 0.34295 0.56083 0.23357
C15_62 C 0.37145 0.58404 0.22603
C16_62 C 0.39282 0.58211 0.19785
H6_62 H 0.39004 0.56346 0.17761
H7_90 H 0.153879 0.513176 0.121605
H8_90 H 0.137742 0.473648 0.137742
H9_90 H 0.121605 0.513176 0.153879
H10_90 H 0.224546 0.662287 0.25682
H11_90 H 0.268633 0.662287 0.268633
H12_90 H 0.25682 0.662287 0.224546
C11_63 C 0.43917 0.34295 0.76643
H4_95 H 0.50000 0.32819 0.73651
O14_63 O 0.43286 0.32586 0.73854
C12_63 C 0.41596 0.37145 0.77397
C13_63 C 0.41789 0.39282 0.80215
S2_63 S 0.38264 0.38264 0.74709
H5_63 H 0.43654 0.39004 0.82239
C14_63 C 0.34295 0.43917 0.76643
C15_63 C 0.37145 0.41596 0.77397
C16_63 C 0.39282 0.41789 0.80215
H6_63 H 0.39004 0.43654 0.82239
H7_91 H 0.153879 0.486824 0.878395
H8_91 H 0.137742 0.526352 0.862258
H9_91 H 0.121605 0.486824 0.846121
H10_91 H 0.224546 0.337713 0.74318
H11_91 H 0.268633 0.337713 0.731367
H12_91 H 0.25682 0.337713 0.775454
C11_64 C 0.56083 0.34295 0.23357
H4_96 H 0.50000 0.32819 0.26349
O14_64 O 0.56714 0.32586 0.26146
C12_64 C 0.58404 0.37145 0.22603
C13_64 C 0.58211 0.39282 0.19785
S2_64 S 0.61736 0.38264 0.25291
H5_64 H 0.56346 0.39004 0.17761
C14_64 C 0.65705 0.43917 0.23357
C15_64 C 0.62855 0.41596 0.22603
C16_64 C 0.60718 0.41789 0.19785
H6_64 H 0.60996 0.43654 0.17761
H7_92 H 0.846121 0.486824 0.121605
H8_92 H 0.862258 0.526352 0.137742
H9_92 H 0.878395 0.486824 0.153879
H10_92 H 0.775454 0.337713 0.25682
H11_92 H 0.731367 0.337713 0.268633
H12_92 H 0.74318 0.337713 0.224546
H7_93 H 0.513176 0.621605 0.653879
H8_93 H 0.473648 0.637742 0.637742
H9_93 H 0.513176 0.653879 0.621605
H10_93 H 0.662287 0.75682 0.724546
H11_93 H 0.662287 0.768633 0.768633
H12_93 H 0.662287 0.724546 0.75682
H7_94 H 0.513176 0.378395 0.346121
H8_94 H 0.473648 0.362258 0.362258
H9_94 H 0.513176 0.346121 0.378395
H10_94 H 0.662287 0.24318 0.275454
H11_94 H 0.662287 0.231367 0.231367
H12_94 H 0.662287 0.275454 0.24318
H7_95 H 0.486824 0.621605 0.346121
H8_95 H 0.526352 0.637742 0.362258
H9_95 H 0.486824 0.653879 0.378395
H10_95 H 0.337713 0.75682 0.275454
H11_95 H 0.337713 0.768633 0.231367
H12_95 H 0.337713 0.724546 0.24318
H7_96 H 0.486824 0.378395 0.653879
H8_96 H 0.526352 0.362258 0.637742
H9_96 H 0.486824 0.346121 0.621605
H10_96 H 0.337713 0.24318 0.724546
H11_96 H 0.337713 0.231367 0.768633
H12_96 H 0.337713 0.275454 0.75682
loop_
_geom_bond_atom_site_label_1
_geom_bond_atom_site_label_2
_geom_bond_site_symmetry_1
_geom_bond_site_symmetry_2
Zr1 O1 1_555 1_555
O1 C1 1_555 1_555
O2 Zr1 1_555 1_555
Zr2 O2 1_555 1_555
O3 Zr1 1_555 1_555
C1 O4 1_555 1_555
H1 O2 1_555 1_555
O4 Zr2 1_555 1_555
O5 Zr2 1_555 1_555
O6 Zr2 1_555 1_555
C2 C1 1_555 1_555
C3 O5 1_555 1_555
C4 O6 1_555 1_555
C5 C2 1_555 1_555
S1 C2 1_555 1_555
C6 C3 1_555 1_555
C7 C4 1_555 1_555
H2 C5 1_555 1_555
O7 C8 1_555 1_555
C8 O8 1_555 1_555
O8 Zr9 1_555 1_555
C9 S1 1_555 1_555
C10 C5 1_555 1_555
H3 C10 1_555 1_555
O10 C4 1_555 1_555
O11 C11 1_555 1_555
O12 Zr3 1_555 1_555
Zr3 O13 1_555 1_555
O13 Zr4 1_555 1_555
C11 O14 1_555 1_555
H4 O12 1_555 1_555
O14 Zr3 1_555 1_555
C12 C11 1_555 1_555
C13 C12 1_555 1_555
S2 C12 1_555 1_555
H5 C13 1_555 1_555
O15 Zr1 1_555 1_555
C14 O15 1_555 1_555
O16 C14 1_555 1_555
C15 S2 1_555 1_555
C16 C13 1_555 1_555
H6 C16 1_555 1_555
Zr4 O11 1_555 1_555
Zr5 O7 1_555 1_555
O19 Zr1 1_555 1_555
O20 Zr3 1_555 1_555
O21 Zr2 1_555 1_555
Zr8 O3 1_555 1_555
Zr10 O13 1_555 1_555
O23 Zr3 1_555 1_555
O24 Zr2 1_555 1_555
O25 Zr3 1_555 1_555
O26 Zr2 1_555 1_555
O27 Zr3 1_555 1_555
O28 Zr3 1_555 1_555
Zr2 O3 1_555 1_555
C8 C9 1_555 1_555
C9 C10 1_555 1_555
O10 Zr8 1_555 1_555
O12 Zr4 1_555 1_555
C14 C15 1_555 1_555
O16 Zr8 1_555 1_555
C15 C16 1_555 1_555
O19 Zr8 1_555 1_555
Zr8 O24 1_555 1_555
Zr10 O23 1_555 1_555
C6 H7 1_555 1_555
C6 H9 1_555 1_555
C7 H10 1_555 1_555
C7 H11 1_555 1_555
C7 H12 1_555 1_555
O2_2 Zr1_2 1_555 1_555
H1_2 O2_2 1_555 1_555
C6_2 C3_2 1_555 1_555
O9 C3_2 1_555 1_555
O17 Zr1_2 1_555 1_555
O18 Zr1_2 1_555 1_555
O19_2 Zr1_2 1_555 1_555
Zr6 O2_2 1_555 1_555
O22 Zr1_2 1_555 1_555
O9 Zr6 1_555 1_555
O21_2 Zr6 1_555 1_555
Zr6 O22 1_555 1_555
C6_2 H8 1_555 1_555
H4_2 O12_2 1_555 1_555
Zr7 O12_2 1_555 1_555
O12_2 Zr4_2 1_555 1_555
O20_2 Zr7 1_555 1_555
H4_3 O12_3 1_555 1_555
Zr7_2 O12_3 1_555 1_555
O12_3 Zr4_3 1_555 1_555
O20_3 Zr7_2 1_555 1_555
Zr1_3 O1_2 1_555 1_555
O1_2 C1_2 1_555 1_555
O2_3 Zr1_3 1_555 1_555
Zr2_2 O2_3 1_555 1_555
O3_2 Zr1_3 1_555 1_555
C1_2 O4_2 1_555 1_555
H1_3 O2_3 1_555 1_555
O4_2 Zr2_2 1_555 1_555
O5_2 Zr2_2 1_555 1_555
O6_2 Zr2_2 1_555 1_555
C2_2 C1_2 1_555 1_555
C3_3 O5_2 1_555 1_555
C4_2 O6_2 1_555 1_555
C5_2 C2_2 1_555 1_555
S1_2 C2_2 1_555 1_555
C6_3 C3_3 1_555 1_555
C7_2 C4_2 1_555 1_555
H2_2 C5_2 1_555 1_555
O7_2 C8_2 1_555 1_555
C8_2 O8_2 1_555 1_555
O8_2 Zr9_2 1_555 1_555
C9_2 S1_2 1_555 1_555
C10_2 C5_2 1_555 1_555
H3_2 C10_2 1_555 1_555
O10_2 C4_2 1_555 1_555
O11_2 C11_2 1_555 1_555
O12_4 Zr3_2 1_555 1_555
Zr3_2 O13_2 1_555 1_555
O13_2 Zr4_4 1_555 1_555
C11_2 O14_2 1_555 1_555
H4_4 O12_4 1_555 1_555
O14_2 Zr3_2 1_555 1_555
C12_2 C11_2 1_555 1_555
C13_2 C12_2 1_555 1_555
S2_2 C12_2 1_555 1_555
H5_2 C13_2 1_555 1_555
O15_2 Zr1_3 1_555 1_555
C14_2 O15_2 1_555 1_555
O16_2 C14_2 1_555 1_555
C15_2 S2_2 1_555 1_555
C16_2 C13_2 1_555 1_555
H6_2 C16_2 1_555 1_555
Zr4_4 O11_2 1_555 1_555
Zr5_4 O7_2 1_555 1_555
O19_3 Zr1_3 1_555 1_555
O20_4 Zr3_2 1_555 1_555
O21_3 Zr2_2 1_555 1_555
Zr8_2 O3_2 1_555 1_555
Zr10_2 O13_2 1_555 1_555
O23_2 Zr3_2 1_555 1_555
O24_2 Zr2_2 1_555 1_555
O25_2 Zr3_2 1_555 1_555
O26_2 Zr2_2 1_555 1_555
O27_2 Zr3_2 1_555 1_555
O28_2 Zr3_2 1_555 1_555
Zr2_2 O3_2 1_555 1_555
C8_2 C9_2 1_555 1_555
C9_2 C10_2 1_555 1_555
O10_2 Zr8_2 1_555 1_555
O12_4 Zr4_4 1_555 1_555
C14_2 C15_2 1_555 1_555
O16_2 Zr8_2 1_555 1_555
C15_2 C16_2 1_555 1_555
O19_3 Zr8_2 1_555 1_555
Zr8_2 O24_2 1_555 1_555
Zr10_2 O23_2 1_555 1_555
C6_3 H7_2 1_555 1_555
C6_3 H9_2 1_555 1_555
C7_2 H10_2 1_555 1_555
C7_2 H11_2 1_555 1_555
C7_2 H12_2 1_555 1_555
O2_4 Zr1_4 1_555 1_555
H1_4 O2_4 1_555 1_555
C6_4 C3_4 1_555 1_555
O9_2 C3_4 1_555 1_555
O17_2 Zr1_4 1_555 1_555
O18_2 Zr1_4 1_555 1_555
O19_4 Zr1_4 1_555 1_555
Zr6_2 O2_4 1_555 1_555
O22_2 Zr1_4 1_555 1_555
O9_2 Zr6_2 1_555 1_555
O21_4 Zr6_2 1_555 1_555
Zr6_2 O22_2 1_555 1_555
C6_4 H8_2 1_555 1_555
H4_5 O12_5 1_555 1_555
Zr7_3 O12_5 1_555 1_555
O12_5 Zr4_5 1_555 1_555
O20_5 Zr7_3 1_555 1_555
O2_5 Zr1_5 1_555 1_555
H1_5 O2_5 1_555 1_555
C6_5 C3_5 1_555 1_555
O9_3 C3_5 1_555 1_555
O17_3 Zr1_5 1_555 1_555
O18_3 Zr1_5 1_555 1_555
O19_5 Zr1_5 1_555 1_555
Zr6_3 O2_5 1_555 1_555
O22_3 Zr1_5 1_555 1_555
O9_3 Zr6_3 1_555 1_555
O21_5 Zr6_3 1_555 1_555
Zr6_3 O22_3 1_555 1_555
C6_5 H8_3 1_555 1_555
Zr1_6 O1_3 1_555 1_555
O1_3 C1_3 1_555 1_555
O2_6 Zr1_6 1_555 1_555
Zr2_3 O2_6 1_555 1_555
O3_3 Zr1_6 1_555 1_555
C1_3 O4_3 1_555 1_555
H1_6 O2_6 1_555 1_555
O4_3 Zr2_3 1_555 1_555
O5_3 Zr2_3 1_555 1_555
O6_3 Zr2_3 1_555 1_555
C2_3 C1_3 1_555 1_555
C3_6 O5_3 1_555 1_555
C4_3 O6_3 1_555 1_555
C5_3 C2_3 1_555 1_555
S1_3 C2_3 1_555 1_555
C6_6 C3_6 1_555 1_555
C7_3 C4_3 1_555 1_555
H2_3 C5_3 1_555 1_555
O7_3 C8_3 1_555 1_555
C8_3 O8_3 1_555 1_555
O8_3 Zr9_3 1_555 1_555
C9_3 S1_3 1_555 1_555
C10_3 C5_3 1_555 1_555
H3_3 C10_3 1_555 1_555
O10_3 C4_3 1_555 1_555
O11_3 C11_3 1_555 1_555
O12_6 Zr3_3 1_555 1_555
Zr3_3 O13_3 1_555 1_555
O13_3 Zr4_6 1_555 1_555
C11_3 O14_3 1_555 1_555
H4_6 O12_6 1_555 1_555
O14_3 Zr3_3 1_555 1_555
C12_3 C11_3 1_555 1_555
C13_3 C12_3 1_555 1_555
S2_3 C12_3 1_555 1_555
H5_3 C13_3 1_555 1_555
O15_3 Zr1_6 1_555 1_555
C14_3 O15_3 1_555 1_555
O16_3 C14_3 1_555 1_555
C15_3 S2_3 1_555 1_555
C16_3 C13_3 1_555 1_555
H6_3 C16_3 1_555 1_555
Zr4_6 O11_3 1_555 1_555
Zr5_5 O7_3 1_555 1_555
O19_6 Zr1_6 1_555 1_555
O20_6 Zr3_3 1_555 1_555
O21_6 Zr2_3 1_555 1_555
Zr8_3 O3_3 1_555 1_555
Zr10_3 O13_3 1_555 1_555
O23_3 Zr3_3 1_555 1_555
O24_3 Zr2_3 1_555 1_555
O25_3 Zr3_3 1_555 1_555
O26_3 Zr2_3 1_555 1_555
O27_3 Zr3_3 1_555 1_555
O28_3 Zr3_3 1_555 1_555
Zr2_3 O3_3 1_555 1_555
C8_3 C9_3 1_555 1_555
C9_3 C10_3 1_555 1_555
O10_3 Zr8_3 1_555 1_555
O12_6 Zr4_6 1_555 1_555
C14_3 C15_3 1_555 1_555
O16_3 Zr8_3 1_555 1_555
C15_3 C16_3 1_555 1_555
O19_6 Zr8_3 1_555 1_555
Zr8_3 O24_3 1_555 1_555
Zr10_3 O23_3 1_555 1_555
C6_6 H7_3 1_555 1_555
C6_6 H9_3 1_555 1_555
C7_3 H10_3 1_555 1_555
C7_3 H11_3 1_555 1_555
C7_3 H12_3 1_555 1_555
O2_7 Zr1_7 1_555 1_555
H1_7 O2_7 1_555 1_555
C6_7 C3_7 1_555 1_555
O9_4 C3_7 1_555 1_555
O17_4 Zr1_7 1_555 1_555
O18_4 Zr1_7 1_555 1_555
O19_7 Zr1_7 1_555 1_555
Zr6_4 O2_7 1_555 1_555
O22_4 Zr1_7 1_555 1_555
O9_4 Zr6_4 1_555 1_555
O21_7 Zr6_4 1_555 1_555
Zr6_4 O22_4 1_555 1_555
C6_7 H8_4 1_555 1_555
Zr1_8 O1_4 1_555 1_555
O1_4 C1_4 1_555 1_555
O2_8 Zr1_8 1_555 1_555
Zr2_4 O2_8 1_555 1_555
O3_4 Zr1_8 1_555 1_555
C1_4 O4_4 1_555 1_555
H1_8 O2_8 1_555 1_555
O4_4 Zr2_4 1_555 1_555
O5_4 Zr2_4 1_555 1_555
O6_4 Zr2_4 1_555 1_555
C2_4 C1_4 1_555 1_555
C3_8 O5_4 1_555 1_555
C4_4 O6_4 1_555 1_555
C5_4 C2_4 1_555 1_555
S1_4 C2_4 1_555 1_555
C6_8 C3_8 1_555 1_555
C7_4 C4_4 1_555 1_555
H2_4 C5_4 1_555 1_555
O7_4 C8_4 1_555 1_555
C8_4 O8_4 1_555 1_555
O8_4 Zr9_4 1_555 1_555
C9_4 S1_4 1_555 1_555
C10_4 C5_4 1_555 1_555
H3_4 C10_4 1_555 1_555
O10_4 C4_4 1_555 1_555
O11_4 C11_4 1_555 1_555
O12_7 Zr3_4 1_555 1_555
Zr3_4 O13_4 1_555 1_555
O13_4 Zr4_7 1_555 1_555
C11_4 O14_4 1_555 1_555
H4_7 O12_7 1_555 1_555
O14_4 Zr3_4 1_555 1_555
C12_4 C11_4 1_555 1_555
C13_4 C12_4 1_555 1_555
S2_4 C12_4 1_555 1_555
H5_4 C13_4 1_555 1_555
O15_4 Zr1_8 1_555 1_555
C14_4 O15_4 1_555 1_555
O16_4 C14_4 1_555 1_555
C15_4 S2_4 1_555 1_555
C16_4 C13_4 1_555 1_555
H6_4 C16_4 1_555 1_555
Zr4_7 O11_4 1_555 1_555
Zr5_8 O7_4 1_555 1_555
O19_8 Zr1_8 1_555 1_555
O20_7 Zr3_4 1_555 1_555
O21_8 Zr2_4 1_555 1_555
Zr8_4 O3_4 1_555 1_555
Zr10_4 O13_4 1_555 1_555
O23_4 Zr3_4 1_555 1_555
O24_4 Zr2_4 1_555 1_555
O25_4 Zr3_4 1_555 1_555
O26_4 Zr2_4 1_555 1_555
O27_4 Zr3_4 1_555 1_555
O28_4 Zr3_4 1_555 1_555
Zr2_4 O3_4 1_555 1_555
C8_4 C9_4 1_555 1_555
C9_4 C10_4 1_555 1_555
O10_4 Zr8_4 1_555 1_555
O12_7 Zr4_7 1_555 1_555
C14_4 C15_4 1_555 1_555
O16_4 Zr8_4 1_555 1_555
C15_4 C16_4 1_555 1_555
O19_8 Zr8_4 1_555 1_555
Zr8_4 O24_4 1_555 1_555
Zr10_4 O23_4 1_555 1_555
C6_8 H7_4 1_555 1_555
C6_8 H9_4 1_555 1_555
C7_4 H10_4 1_555 1_555
C7_4 H11_4 1_555 1_555
C7_4 H12_4 1_555 1_555
H4_8 O12_8 1_555 1_555
Zr7_4 O12_8 1_555 1_555
O12_8 Zr4_8 1_555 1_555
O20_8 Zr7_4 1_555 1_555
C3_9 O27 1_555 1_555
C4_5 O28 1_555 1_555
C6_9 C3_9 1_555 1_555
C7_5 C4_5 1_555 1_555
O10_5 C4_5 1_555 1_555
O11_5 C11_5 1_555 1_555
O12_9 Zr3_5 1_555 1_555
Zr3_5 O13_5 1_555 1_555
O13_5 Zr5 1_555 1_555
C11_5 O14_5 1_555 1_555
H4_9 O12_9 1_555 1_555
O14_5 Zr3_5 1_555 1_555
C12_5 C11_5 1_555 1_555
C13_5 C12_5 1_555 1_555
S2_5 C12_5 1_555 1_555
H5_5 C13_5 1_555 1_555
O15_5 Zr4 1_555 1_555
C14_5 O15_5 1_555 1_555
O16_5 C14_5 1_555 1_555
C15_5 S2_5 1_555 1_555
C16_5 C13_5 1_555 1_555
H6_5 C16_5 1_555 1_555
Zr5 O11_5 1_555 1_555
O19_9 Zr4 1_555 1_555
O20_9 Zr3_5 1_555 1_555
Zr9 O13_5 1_555 1_555
O23_5 Zr3_5 1_555 1_555
O25_5 Zr3_5 1_555 1_555
O27_5 Zr3_5 1_555 1_555
O28_5 Zr3_5 1_555 1_555
O10_5 Zr10 1_555 1_555
O12_9 Zr5 1_555 1_555
C14_5 C15_5 1_555 1_555
O16_5 Zr10 1_555 1_555
C15_5 C16_5 1_555 1_555
O19_9 Zr10 1_555 1_555
Zr9 O23_5 1_555 1_555
C6_9 H7_5 1_555 1_555
C6_9 H9_5 1_555 1_555
C7_5 H10_5 1_555 1_555
C7_5 H11_5 1_555 1_555
C7_5 H12_5 1_555 1_555
H4_10 O12_10 1_555 1_555
Zr7_5 O12_10 1_555 1_555
O12_10 Zr5_2 1_555 1_555
O20_10 Zr7_5 1_555 1_555
C6_10 C3_10 1_555 1_555
O9_5 C3_10 1_555 1_555
O17_5 Zr4_2 1_555 1_555
O18_5 Zr4_2 1_555 1_555
O19_10 Zr4_2 1_555 1_555
O22_5 Zr4_2 1_555 1_555
O9_5 Zr7 1_555 1_555
Zr7 O22_5 1_555 1_555
C6_10 H8_5 1_555 1_555
H4_11 O12_11 1_555 1_555
Zr7_6 O12_11 1_555 1_555
O12_11 Zr5_7 1_555 1_555
O20_11 Zr7_6 1_555 1_555
C3_11 O27_4 1_555 1_555
C4_6 O28_4 1_555 1_555
C6_11 C3_11 1_555 1_555
C7_6 C4_6 1_555 1_555
O10_6 C4_6 1_555 1_555
O11_6 C11_6 1_555 1_555
O12_12 Zr3_6 1_555 1_555
Zr3_6 O13_6 1_555 1_555
O13_6 Zr5_8 1_555 1_555
C11_6 O14_6 1_555 1_555
H4_12 O12_12 1_555 1_555
O14_6 Zr3_6 1_555 1_555
C12_6 C11_6 1_555 1_555
C13_6 C12_6 1_555 1_555
S2_6 C12_6 1_555 1_555
H5_6 C13_6 1_555 1_555
O15_6 Zr4_7 1_555 1_555
C14_6 O15_6 1_555 1_555
O16_6 C14_6 1_555 1_555
C15_6 S2_6 1_555 1_555
C16_6 C13_6 1_555 1_555
H6_6 C16_6 1_555 1_555
Zr5_8 O11_6 1_555 1_555
O19_11 Zr4_7 1_555 1_555
O20_12 Zr3_6 1_555 1_555
Zr9_4 O13_6 1_555 1_555
O23_6 Zr3_6 1_555 1_555
O25_6 Zr3_6 1_555 1_555
O27_6 Zr3_6 1_555 1_555
O28_6 Zr3_6 1_555 1_555
O10_6 Zr10_4 1_555 1_555
O12_12 Zr5_8 1_555 1_555
C14_6 C15_6 1_555 1_555
O16_6 Zr10_4 1_555 1_555
C15_6 C16_6 1_555 1_555
O19_11 Zr10_4 1_555 1_555
Zr9_4 O23_6 1_555 1_555
C6_11 H7_6 1_555 1_555
C6_11 H9_6 1_555 1_555
C7_6 H10_6 1_555 1_555
C7_6 H11_6 1_555 1_555
C7_6 H12_6 1_555 1_555
C6_12 C3_12 1_555 1_555
O9_6 C3_12 1_555 1_555
O17_6 Zr4_8 1_555 1_555
O18_6 Zr4_8 1_555 1_555
O19_12 Zr4_8 1_555 1_555
O22_6 Zr4_8 1_555 1_555
O9_6 Zr7_4 1_555 1_555
Zr7_4 O22_6 1_555 1_555
C6_12 H8_6 1_555 1_555
C6_13 C3_13 1_555 1_555
O9_7 C3_13 1_555 1_555
O17_7 Zr4_3 1_555 1_555
O18_7 Zr4_3 1_555 1_555
O19_13 Zr4_3 1_555 1_555
O22_7 Zr4_3 1_555 1_555
O9_7 Zr7_2 1_555 1_555
Zr7_2 O22_7 1_555 1_555
C6_13 H8_7 1_555 1_555
H4_13 O12_13 1_555 1_555
Zr7_7 O12_13 1_555 1_555
O12_13 Zr5_3 1_555 1_555
O20_13 Zr7_7 1_555 1_555
C3_14 O27_2 1_555 1_555
C4_7 O28_2 1_555 1_555
C6_14 C3_14 1_555 1_555
C7_7 C4_7 1_555 1_555
O10_7 C4_7 1_555 1_555
O11_7 C11_7 1_555 1_555
O12_14 Zr3_7 1_555 1_555
Zr3_7 O13_7 1_555 1_555
O13_7 Zr5_4 1_555 1_555
C11_7 O14_7 1_555 1_555
H4_14 O12_14 1_555 1_555
O14_7 Zr3_7 1_555 1_555
C12_7 C11_7 1_555 1_555
C13_7 C12_7 1_555 1_555
S2_7 C12_7 1_555 1_555
H5_7 C13_7 1_555 1_555
O15_7 Zr4_4 1_555 1_555
C14_7 O15_7 1_555 1_555
O16_7 C14_7 1_555 1_555
C15_7 S2_7 1_555 1_555
C16_7 C13_7 1_555 1_555
H6_7 C16_7 1_555 1_555
Zr5_4 O11_7 1_555 1_555
O19_14 Zr4_4 1_555 1_555
O20_14 Zr3_7 1_555 1_555
Zr9_2 O13_7 1_555 1_555
O23_7 Zr3_7 1_555 1_555
O25_7 Zr3_7 1_555 1_555
O27_7 Zr3_7 1_555 1_555
O28_7 Zr3_7 1_555 1_555
O10_7 Zr10_2 1_555 1_555
O12_14 Zr5_4 1_555 1_555
C14_7 C15_7 1_555 1_555
O16_7 Zr10_2 1_555 1_555
C15_7 C16_7 1_555 1_555
O19_14 Zr10_2 1_555 1_555
Zr9_2 O23_7 1_555 1_555
C6_14 H7_7 1_555 1_555
C6_14 H9_7 1_555 1_555
C7_7 H10_7 1_555 1_555
C7_7 H11_7 1_555 1_555
C7_7 H12_7 1_555 1_555
C6_15 C3_15 1_555 1_555
O9_8 C3_15 1_555 1_555
O17_8 Zr4_5 1_555 1_555
O18_8 Zr4_5 1_555 1_555
O19_15 Zr4_5 1_555 1_555
O22_8 Zr4_5 1_555 1_555
O9_8 Zr7_3 1_555 1_555
Zr7_3 O22_8 1_555 1_555
C6_15 H8_8 1_555 1_555
C3_16 O27_3 1_555 1_555
C4_8 O28_3 1_555 1_555
C6_16 C3_16 1_555 1_555
C7_8 C4_8 1_555 1_555
O10_8 C4_8 1_555 1_555
O11_8 C11_8 1_555 1_555
O12_15 Zr3_8 1_555 1_555
Zr3_8 O13_8 1_555 1_555
O13_8 Zr5_5 1_555 1_555
C11_8 O14_8 1_555 1_555
H4_15 O12_15 1_555 1_555
O14_8 Zr3_8 1_555 1_555
C12_8 C11_8 1_555 1_555
C13_8 C12_8 1_555 1_555
S2_8 C12_8 1_555 1_555
H5_8 C13_8 1_555 1_555
O15_8 Zr4_6 1_555 1_555
C14_8 O15_8 1_555 1_555
O16_8 C14_8 1_555 1_555
C15_8 S2_8 1_555 1_555
C16_8 C13_8 1_555 1_555
H6_8 C16_8 1_555 1_555
Zr5_5 O11_8 1_555 1_555
O19_16 Zr4_6 1_555 1_555
O20_15 Zr3_8 1_555 1_555
Zr9_3 O13_8 1_555 1_555
O23_8 Zr3_8 1_555 1_555
O25_8 Zr3_8 1_555 1_555
O27_8 Zr3_8 1_555 1_555
O28_8 Zr3_8 1_555 1_555
O10_8 Zr10_3 1_555 1_555
O12_15 Zr5_5 1_555 1_555
C14_8 C15_8 1_555 1_555
O16_8 Zr10_3 1_555 1_555
C15_8 C16_8 1_555 1_555
O19_16 Zr10_3 1_555 1_555
Zr9_3 O23_8 1_555 1_555
C6_16 H7_8 1_555 1_555
C6_16 H9_8 1_555 1_555
C7_8 H10_8 1_555 1_555
C7_8 H11_8 1_555 1_555
C7_8 H12_8 1_555 1_555
H4_16 O12_16 1_555 1_555
Zr7_8 O12_16 1_555 1_555
O12_16 Zr5_6 1_555 1_555
O20_16 Zr7_8 1_555 1_555
C3_17 O27_5 1_555 1_555
C4_9 O28_5 1_555 1_555
C6_17 C3_17 1_555 1_555
C7_9 C4_9 1_555 1_555
O10_9 C4_9 1_555 1_555
O19_17 Zr5 1_555 1_555
O10_9 Zr9 1_555 1_555
O19_17 Zr9 1_555 1_555
C6_17 H7_9 1_555 1_555
C6_17 H9_9 1_555 1_555
C7_9 H10_9 1_555 1_555
C7_9 H11_9 1_555 1_555
C7_9 H12_9 1_555 1_555
C6_18 C3_18 1_555 1_555
O9_9 C3_18 1_555 1_555
O17_9 Zr5_2 1_555 1_555
O18_9 Zr5_2 1_555 1_555
O19_18 Zr5_2 1_555 1_555
O22_9 Zr5_2 1_555 1_555
O9_9 Zr7_5 1_555 1_555
Zr7_5 O22_9 1_555 1_555
C6_18 H8_9 1_555 1_555
C3_19 O27_8 1_555 1_555
C4_10 O28_8 1_555 1_555
C6_19 C3_19 1_555 1_555
C7_10 C4_10 1_555 1_555
O10_10 C4_10 1_555 1_555
O19_19 Zr5_5 1_555 1_555
O10_10 Zr9_3 1_555 1_555
O19_19 Zr9_3 1_555 1_555
C6_19 H7_10 1_555 1_555
C6_19 H9_10 1_555 1_555
C7_10 H10_10 1_555 1_555
C7_10 H11_10 1_555 1_555
C7_10 H12_10 1_555 1_555
C6_20 C3_20 1_555 1_555
O9_10 C3_20 1_555 1_555
O17_10 Zr5_6 1_555 1_555
O18_10 Zr5_6 1_555 1_555
O19_20 Zr5_6 1_555 1_555
O22_10 Zr5_6 1_555 1_555
O9_10 Zr7_8 1_555 1_555
Zr7_8 O22_10 1_555 1_555
C6_20 H8_10 1_555 1_555
C6_21 C3_21 1_555 1_555
O9_11 C3_21 1_555 1_555
O17_11 Zr5_7 1_555 1_555
O18_11 Zr5_7 1_555 1_555
O19_21 Zr5_7 1_555 1_555
O22_11 Zr5_7 1_555 1_555
O9_11 Zr7_6 1_555 1_555
Zr7_6 O22_11 1_555 1_555
C6_21 H8_11 1_555 1_555
C3_22 O27_6 1_555 1_555
C4_11 O28_6 1_555 1_555
C6_22 C3_22 1_555 1_555
C7_11 C4_11 1_555 1_555
O10_11 C4_11 1_555 1_555
O19_22 Zr5_8 1_555 1_555
O10_11 Zr9_4 1_555 1_555
O19_22 Zr9_4 1_555 1_555
C6_22 H7_11 1_555 1_555
C6_22 H9_11 1_555 1_555
C7_11 H10_11 1_555 1_555
C7_11 H11_11 1_555 1_555
C7_11 H12_11 1_555 1_555
C6_23 C3_23 1_555 1_555
O9_12 C3_23 1_555 1_555
O17_12 Zr5_3 1_555 1_555
O18_12 Zr5_3 1_555 1_555
O19_23 Zr5_3 1_555 1_555
O22_12 Zr5_3 1_555 1_555
O9_12 Zr7_7 1_555 1_555
Zr7_7 O22_12 1_555 1_555
C6_23 H8_12 1_555 1_555
C3_24 O27_7 1_555 1_555
C4_12 O28_7 1_555 1_555
C6_24 C3_24 1_555 1_555
C7_12 C4_12 1_555 1_555
O10_12 C4_12 1_555 1_555
O19_24 Zr5_4 1_555 1_555
O10_12 Zr9_2 1_555 1_555
O19_24 Zr9_2 1_555 1_555
C6_24 H7_12 1_555 1_555
C6_24 H9_12 1_555 1_555
C7_12 H10_12 1_555 1_555
C7_12 H11_12 1_555 1_555
C7_12 H12_12 1_555 1_555
H1_9 O19 1_555 1_555
C6_25 C3_25 1_555 1_555
O9_13 C3_25 1_555 1_555
O9_13 Zr8 1_555 1_555
O21_9 Zr8 1_555 1_555
C6_25 H8_13 1_555 1_555
O17 C1_5 1_555 1_555
Zr2_5 O19_2 1_555 1_555
C1_5 O4_5 1_555 1_555
H1_10 O19_2 1_555 1_555
O4_5 Zr2_5 1_555 1_555
O5_5 Zr2_5 1_555 1_555
O6_5 Zr2_5 1_555 1_555
C2_5 C1_5 1_555 1_555
C3_26 O5_5 1_555 1_555
C4_13 O6_5 1_555 1_555
C5_5 C2_5 1_555 1_555
S1_5 C2_5 1_555 1_555
C6_26 C3_26 1_555 1_555
C7_13 C4_13 1_555 1_555
H2_5 C5_5 1_555 1_555
O18_8 C8_5 1_555 1_555
C8_5 O8_5 1_555 1_555
O8_5 Zr7_3 1_555 1_555
C9_5 S1_5 1_555 1_555
C10_5 C5_5 1_555 1_555
H3_5 C10_5 1_555 1_555
O10_13 C4_13 1_555 1_555
O17_11 C11_9 1_555 1_555
O19_21 Zr3_9 1_555 1_555
Zr3_9 O22_11 1_555 1_555
C11_9 O14_9 1_555 1_555
H4_17 O19_21 1_555 1_555
O14_9 Zr3_9 1_555 1_555
C12_9 C11_9 1_555 1_555
C13_9 C12_9 1_555 1_555
S2_9 C12_9 1_555 1_555
H5_9 C13_9 1_555 1_555
C14_9 O18 1_555 1_555
O16_9 C14_9 1_555 1_555
C15_9 S2_9 1_555 1_555
C16_9 C13_9 1_555 1_555
H6_9 C16_9 1_555 1_555
O20_17 Zr3_9 1_555 1_555
O21_10 Zr2_5 1_555 1_555
O23_9 Zr3_9 1_555 1_555
O24_5 Zr2_5 1_555 1_555
O25_9 Zr3_9 1_555 1_555
O26_5 Zr2_5 1_555 1_555
O27_9 Zr3_9 1_555 1_555
O28_9 Zr3_9 1_555 1_555
Zr2_5 O22 1_555 1_555
C8_5 C9_5 1_555 1_555
C9_5 C10_5 1_555 1_555
O10_13 Zr6 1_555 1_555
C14_9 C15_9 1_555 1_555
O16_9 Zr6 1_555 1_555
C15_9 C16_9 1_555 1_555
Zr6 O24_5 1_555 1_555
Zr7_6 O23_9 1_555 1_555
C6_26 H7_13 1_555 1_555
C6_26 H9_13 1_555 1_555
C7_13 H10_13 1_555 1_555
C7_13 H11_13 1_555 1_555
C7_13 H12_13 1_555 1_555
H4_18 O19_22 1_555 1_555
O20_18 Zr9_4 1_555 1_555
H4_19 O19_19 1_555 1_555
O20_19 Zr9_3 1_555 1_555
H1_11 O19_3 1_555 1_555
C6_27 C3_27 1_555 1_555
O9_14 C3_27 1_555 1_555
O9_14 Zr8_2 1_555 1_555
O21_11 Zr8_2 1_555 1_555
C6_27 H8_14 1_555 1_555
O17_2 C1_6 1_555 1_555
Zr2_6 O19_4 1_555 1_555
C1_6 O4_6 1_555 1_555
H1_12 O19_4 1_555 1_555
O4_6 Zr2_6 1_555 1_555
O5_6 Zr2_6 1_555 1_555
O6_6 Zr2_6 1_555 1_555
C2_6 C1_6 1_555 1_555
C3_28 O5_6 1_555 1_555
C4_14 O6_6 1_555 1_555
C5_6 C2_6 1_555 1_555
S1_6 C2_6 1_555 1_555
C6_28 C3_28 1_555 1_555
C7_14 C4_14 1_555 1_555
H2_6 C5_6 1_555 1_555
O18_6 C8_6 1_555 1_555
C8_6 O8_6 1_555 1_555
O8_6 Zr7_4 1_555 1_555
C9_6 S1_6 1_555 1_555
C10_6 C5_6 1_555 1_555
H3_6 C10_6 1_555 1_555
O10_14 C4_14 1_555 1_555
O17_10 C11_10 1_555 1_555
O19_20 Zr3_10 1_555 1_555
Zr3_10 O22_10 1_555 1_555
C11_10 O14_10 1_555 1_555
H4_20 O19_20 1_555 1_555
O14_10 Zr3_10 1_555 1_555
C12_10 C11_10 1_555 1_555
C13_10 C12_10 1_555 1_555
S2_10 C12_10 1_555 1_555
H5_10 C13_10 1_555 1_555
C14_10 O18_2 1_555 1_555
O16_10 C14_10 1_555 1_555
C15_10 S2_10 1_555 1_555
C16_10 C13_10 1_555 1_555
H6_10 C16_10 1_555 1_555
O20_20 Zr3_10 1_555 1_555
O21_12 Zr2_6 1_555 1_555
O23_10 Zr3_10 1_555 1_555
O24_6 Zr2_6 1_555 1_555
O25_10 Zr3_10 1_555 1_555
O26_6 Zr2_6 1_555 1_555
O27_10 Zr3_10 1_555 1_555
O28_10 Zr3_10 1_555 1_555
Zr2_6 O22_2 1_555 1_555
C8_6 C9_6 1_555 1_555
C9_6 C10_6 1_555 1_555
O10_14 Zr6_2 1_555 1_555
C14_10 C15_10 1_555 1_555
O16_10 Zr6_2 1_555 1_555
C15_10 C16_10 1_555 1_555
Zr6_2 O24_6 1_555 1_555
Zr7_8 O23_10 1_555 1_555
C6_28 H7_14 1_555 1_555
C6_28 H9_14 1_555 1_555
C7_14 H10_14 1_555 1_555
C7_14 H11_14 1_555 1_555
C7_14 H12_14 1_555 1_555
H4_21 O19_17 1_555 1_555
O20_21 Zr9 1_555 1_555
O17_4 C1_7 1_555 1_555
Zr2_7 O19_7 1_555 1_555
C1_7 O4_7 1_555 1_555
H1_13 O19_7 1_555 1_555
O4_7 Zr2_7 1_555 1_555
O5_7 Zr2_7 1_555 1_555
O6_7 Zr2_7 1_555 1_555
C2_7 C1_7 1_555 1_555
C3_29 O5_7 1_555 1_555
C4_15 O6_7 1_555 1_555
C5_7 C2_7 1_555 1_555
S1_7 C2_7 1_555 1_555
C6_29 C3_29 1_555 1_555
C7_15 C4_15 1_555 1_555
H2_7 C5_7 1_555 1_555
O18_7 C8_7 1_555 1_555
C8_7 O8_7 1_555 1_555
O8_7 Zr7_2 1_555 1_555
C9_7 S1_7 1_555 1_555
C10_7 C5_7 1_555 1_555
H3_7 C10_7 1_555 1_555
O10_15 C4_15 1_555 1_555
O17_9 C11_11 1_555 1_555
O19_18 Zr3_11 1_555 1_555
Zr3_11 O22_9 1_555 1_555
C11_11 O14_11 1_555 1_555
H4_22 O19_18 1_555 1_555
O14_11 Zr3_11 1_555 1_555
C12_11 C11_11 1_555 1_555
C13_11 C12_11 1_555 1_555
S2_11 C12_11 1_555 1_555
H5_11 C13_11 1_555 1_555
C14_11 O18_4 1_555 1_555
O16_11 C14_11 1_555 1_555
C15_11 S2_11 1_555 1_555
C16_11 C13_11 1_555 1_555
H6_11 C16_11 1_555 1_555
O20_22 Zr3_11 1_555 1_555
O21_13 Zr2_7 1_555 1_555
O23_11 Zr3_11 1_555 1_555
O24_7 Zr2_7 1_555 1_555
O25_11 Zr3_11 1_555 1_555
O26_7 Zr2_7 1_555 1_555
O27_11 Zr3_11 1_555 1_555
O28_11 Zr3_11 1_555 1_555
Zr2_7 O22_4 1_555 1_555
C8_7 C9_7 1_555 1_555
C9_7 C10_7 1_555 1_555
O10_15 Zr6_4 1_555 1_555
C14_11 C15_11 1_555 1_555
O16_11 Zr6_4 1_555 1_555
C15_11 C16_11 1_555 1_555
Zr6_4 O24_7 1_555 1_555
Zr7_5 O23_11 1_555 1_555
C6_29 H7_15 1_555 1_555
C6_29 H9_15 1_555 1_555
C7_15 H10_15 1_555 1_555
C7_15 H11_15 1_555 1_555
C7_15 H12_15 1_555 1_555
H1_14 O19_8 1_555 1_555
C6_30 C3_30 1_555 1_555
O9_15 C3_30 1_555 1_555
O9_15 Zr8_4 1_555 1_555
O21_14 Zr8_4 1_555 1_555
C6_30 H8_15 1_555 1_555
O17_3 C1_8 1_555 1_555
Zr2_8 O19_5 1_555 1_555
C1_8 O4_8 1_555 1_555
H1_15 O19_5 1_555 1_555
O4_8 Zr2_8 1_555 1_555
O5_8 Zr2_8 1_555 1_555
O6_8 Zr2_8 1_555 1_555
C2_8 C1_8 1_555 1_555
C3_31 O5_8 1_555 1_555
C4_16 O6_8 1_555 1_555
C5_8 C2_8 1_555 1_555
S1_8 C2_8 1_555 1_555
C6_31 C3_31 1_555 1_555
C7_16 C4_16 1_555 1_555
H2_8 C5_8 1_555 1_555
O18_5 C8_8 1_555 1_555
C8_8 O8_8 1_555 1_555
O8_8 Zr7 1_555 1_555
C9_8 S1_8 1_555 1_555
C10_8 C5_8 1_555 1_555
H3_8 C10_8 1_555 1_555
O10_16 C4_16 1_555 1_555
O17_12 C11_12 1_555 1_555
O19_23 Zr3_12 1_555 1_555
Zr3_12 O22_12 1_555 1_555
C11_12 O14_12 1_555 1_555
H4_23 O19_23 1_555 1_555
O14_12 Zr3_12 1_555 1_555
C12_12 C11_12 1_555 1_555
C13_12 C12_12 1_555 1_555
S2_12 C12_12 1_555 1_555
H5_12 C13_12 1_555 1_555
C14_12 O18_3 1_555 1_555
O16_12 C14_12 1_555 1_555
C15_12 S2_12 1_555 1_555
C16_12 C13_12 1_555 1_555
H6_12 C16_12 1_555 1_555
O20_23 Zr3_12 1_555 1_555
O21_15 Zr2_8 1_555 1_555
O23_12 Zr3_12 1_555 1_555
O24_8 Zr2_8 1_555 1_555
O25_12 Zr3_12 1_555 1_555
O26_8 Zr2_8 1_555 1_555
O27_12 Zr3_12 1_555 1_555
O28_12 Zr3_12 1_555 1_555
Zr2_8 O22_3 1_555 1_555
C8_8 C9_8 1_555 1_555
C9_8 C10_8 1_555 1_555
O10_16 Zr6_3 1_555 1_555
C14_12 C15_12 1_555 1_555
O16_12 Zr6_3 1_555 1_555
C15_12 C16_12 1_555 1_555
Zr6_3 O24_8 1_555 1_555
Zr7_7 O23_12 1_555 1_555
C6_31 H7_16 1_555 1_555
C6_31 H9_16 1_555 1_555
C7_16 H10_16 1_555 1_555
C7_16 H11_16 1_555 1_555
C7_16 H12_16 1_555 1_555
H1_16 O19_6 1_555 1_555
C6_32 C3_32 1_555 1_555
O9_16 C3_32 1_555 1_555
O9_16 Zr8_3 1_555 1_555
O21_16 Zr8_3 1_555 1_555
C6_32 H8_16 1_555 1_555
H4_24 O19_24 1_555 1_555
O20_24 Zr9_2 1_555 1_555
C3_33 O27_9 1_555 1_555
C4_17 O28_9 1_555 1_555
C6_33 C3_33 1_555 1_555
C7_17 C4_17 1_555 1_555
O10_17 C4_17 1_555 1_555
O17_8 C11_13 1_555 1_555
O19_15 Zr3_13 1_555 1_555
Zr3_13 O22_8 1_555 1_555
C11_13 O14_13 1_555 1_555
H4_25 O19_15 1_555 1_555
O14_13 Zr3_13 1_555 1_555
C12_13 C11_13 1_555 1_555
C13_13 C12_13 1_555 1_555
S2_13 C12_13 1_555 1_555
H5_13 C13_13 1_555 1_555
C14_13 O18_11 1_555 1_555
O16_13 C14_13 1_555 1_555
C15_13 S2_13 1_555 1_555
C16_13 C13_13 1_555 1_555
H6_13 C16_13 1_555 1_555
O20_25 Zr3_13 1_555 1_555
O23_13 Zr3_13 1_555 1_555
O25_13 Zr3_13 1_555 1_555
O27_13 Zr3_13 1_555 1_555
O28_13 Zr3_13 1_555 1_555
O10_17 Zr7_6 1_555 1_555
C14_13 C15_13 1_555 1_555
O16_13 Zr7_6 1_555 1_555
C15_13 C16_13 1_555 1_555
Zr7_3 O23_13 1_555 1_555
C6_33 H7_17 1_555 1_555
C6_33 H9_17 1_555 1_555
C7_17 H10_17 1_555 1_555
C7_17 H11_17 1_555 1_555
C7_17 H12_17 1_555 1_555
C6_34 C3_34 1_555 1_555
O9_17 C3_34 1_555 1_555
O9_17 Zr9_4 1_555 1_555
C6_34 H8_17 1_555 1_555
H4_26 O19_16 1_555 1_555
O20_26 Zr10_3 1_555 1_555
H4_27 O19_9 1_555 1_555
O20_27 Zr10 1_555 1_555
C3_35 O27_12 1_555 1_555
C4_18 O28_12 1_555 1_555
C6_35 C3_35 1_555 1_555
C7_18 C4_18 1_555 1_555
O10_18 C4_18 1_555 1_555
O17_5 C11_14 1_555 1_555
O19_10 Zr3_14 1_555 1_555
Zr3_14 O22_5 1_555 1_555
C11_14 O14_14 1_555 1_555
H4_28 O19_10 1_555 1_555
O14_14 Zr3_14 1_555 1_555
C12_14 C11_14 1_555 1_555
C13_14 C12_14 1_555 1_555
S2_14 C12_14 1_555 1_555
H5_14 C13_14 1_555 1_555
C14_14 O18_12 1_555 1_555
O16_14 C14_14 1_555 1_555
C15_14 S2_14 1_555 1_555
C16_14 C13_14 1_555 1_555
H6_14 C16_14 1_555 1_555
O20_28 Zr3_14 1_555 1_555
O23_14 Zr3_14 1_555 1_555
O25_14 Zr3_14 1_555 1_555
O27_14 Zr3_14 1_555 1_555
O28_14 Zr3_14 1_555 1_555
O10_18 Zr7_7 1_555 1_555
C14_14 C15_14 1_555 1_555
O16_14 Zr7_7 1_555 1_555
C15_14 C16_14 1_555 1_555
Zr7 O23_14 1_555 1_555
C6_35 H7_18 1_555 1_555
C6_35 H9_18 1_555 1_555
C7_18 H10_18 1_555 1_555
C7_18 H11_18 1_555 1_555
C7_18 H12_18 1_555 1_555
C6_36 C3_36 1_555 1_555
O9_18 C3_36 1_555 1_555
O9_18 Zr9_2 1_555 1_555
C6_36 H8_18 1_555 1_555
H4_29 O19_11 1_555 1_555
O20_29 Zr10_4 1_555 1_555
C6_37 C3_37 1_555 1_555
O9_19 C3_37 1_555 1_555
O9_19 Zr9_3 1_555 1_555
C6_37 H8_19 1_555 1_555
C3_38 O27_10 1_555 1_555
C4_19 O28_10 1_555 1_555
C6_38 C3_38 1_555 1_555
C7_19 C4_19 1_555 1_555
O10_19 C4_19 1_555 1_555
O17_6 C11_15 1_555 1_555
O19_12 Zr3_15 1_555 1_555
Zr3_15 O22_6 1_555 1_555
C11_15 O14_15 1_555 1_555
H4_30 O19_12 1_555 1_555
O14_15 Zr3_15 1_555 1_555
C12_15 C11_15 1_555 1_555
C13_15 C12_15 1_555 1_555
S2_15 C12_15 1_555 1_555
H5_15 C13_15 1_555 1_555
C14_15 O18_10 1_555 1_555
O16_15 C14_15 1_555 1_555
C15_15 S2_15 1_555 1_555
C16_15 C13_15 1_555 1_555
H6_15 C16_15 1_555 1_555
O20_30 Zr3_15 1_555 1_555
O23_15 Zr3_15 1_555 1_555
O25_15 Zr3_15 1_555 1_555
O27_15 Zr3_15 1_555 1_555
O28_15 Zr3_15 1_555 1_555
O10_19 Zr7_8 1_555 1_555
C14_15 C15_15 1_555 1_555
O16_15 Zr7_8 1_555 1_555
C15_15 C16_15 1_555 1_555
Zr7_4 O23_15 1_555 1_555
C6_38 H7_19 1_555 1_555
C6_38 H9_19 1_555 1_555
C7_19 H10_19 1_555 1_555
C7_19 H11_19 1_555 1_555
C7_19 H12_19 1_555 1_555
C6_39 C3_39 1_555 1_555
O9_20 C3_39 1_555 1_555
O9_20 Zr9 1_555 1_555
C6_39 H8_20 1_555 1_555
C3_40 O27_11 1_555 1_555
C4_20 O28_11 1_555 1_555
C6_40 C3_40 1_555 1_555
C7_20 C4_20 1_555 1_555
O10_20 C4_20 1_555 1_555
O17_7 C11_16 1_555 1_555
O19_13 Zr3_16 1_555 1_555
Zr3_16 O22_7 1_555 1_555
C11_16 O14_16 1_555 1_555
H4_31 O19_13 1_555 1_555
O14_16 Zr3_16 1_555 1_555
C12_16 C11_16 1_555 1_555
C13_16 C12_16 1_555 1_555
S2_16 C12_16 1_555 1_555
H5_16 C13_16 1_555 1_555
C14_16 O18_9 1_555 1_555
O16_16 C14_16 1_555 1_555
C15_16 S2_16 1_555 1_555
C16_16 C13_16 1_555 1_555
H6_16 C16_16 1_555 1_555
O20_31 Zr3_16 1_555 1_555
O23_16 Zr3_16 1_555 1_555
O25_16 Zr3_16 1_555 1_555
O27_16 Zr3_16 1_555 1_555
O28_16 Zr3_16 1_555 1_555
O10_20 Zr7_5 1_555 1_555
C14_16 C15_16 1_555 1_555
O16_16 Zr7_5 1_555 1_555
C15_16 C16_16 1_555 1_555
Zr7_2 O23_16 1_555 1_555
C6_40 H7_20 1_555 1_555
C6_40 H9_20 1_555 1_555
C7_20 H10_20 1_555 1_555
C7_20 H11_20 1_555 1_555
C7_20 H12_20 1_555 1_555
H4_32 O19_14 1_555 1_555
O20_32 Zr10_2 1_555 1_555
C3_41 O27_13 1_555 1_555
C4_21 O28_13 1_555 1_555
C6_41 C3_41 1_555 1_555
C7_21 C4_21 1_555 1_555
O10_21 C4_21 1_555 1_555
O10_21 Zr7_3 1_555 1_555
C6_41 H7_21 1_555 1_555
C6_41 H9_21 1_555 1_555
C7_21 H10_21 1_555 1_555
C7_21 H11_21 1_555 1_555
C7_21 H12_21 1_555 1_555
C6_42 C3_42 1_555 1_555
O9_21 C3_42 1_555 1_555
O9_21 Zr10_3 1_555 1_555
C6_42 H8_21 1_555 1_555
C3_43 O27_16 1_555 1_555
C4_22 O28_16 1_555 1_555
C6_43 C3_43 1_555 1_555
C7_22 C4_22 1_555 1_555
O10_22 C4_22 1_555 1_555
O10_22 Zr7_2 1_555 1_555
C6_43 H7_22 1_555 1_555
C6_43 H9_22 1_555 1_555
C7_22 H10_22 1_555 1_555
C7_22 H11_22 1_555 1_555
C7_22 H12_22 1_555 1_555
C6_44 C3_44 1_555 1_555
O9_22 C3_44 1_555 1_555
O9_22 Zr10_2 1_555 1_555
C6_44 H8_22 1_555 1_555
C6_45 C3_45 1_555 1_555
O9_23 C3_45 1_555 1_555
O9_23 Zr10 1_555 1_555
C6_45 H8_23 1_555 1_555
C3_46 O27_14 1_555 1_555
C4_23 O28_14 1_555 1_555
C6_46 C3_46 1_555 1_555
C7_23 C4_23 1_555 1_555
O10_23 C4_23 1_555 1_555
O10_23 Zr7 1_555 1_555
C6_46 H7_23 1_555 1_555
C6_46 H9_23 1_555 1_555
C7_23 H10_23 1_555 1_555
C7_23 H11_23 1_555 1_555
C7_23 H12_23 1_555 1_555
C6_47 C3_47 1_555 1_555
O9_24 C3_47 1_555 1_555
O9_24 Zr10_4 1_555 1_555
C6_47 H8_24 1_555 1_555
C3_48 O27_15 1_555 1_555
C4_24 O28_15 1_555 1_555
C6_48 C3_48 1_555 1_555
C7_24 C4_24 1_555 1_555
O10_24 C4_24 1_555 1_555
O10_24 Zr7_4 1_555 1_555
C6_48 H7_24 1_555 1_555
C6_48 H9_24 1_555 1_555
C7_24 H10_24 1_555 1_555
C7_24 H11_24 1_555 1_555
C7_24 H12_24 1_555 1_555
Zr1_9 O1_5 1_555 1_555
O1_5 C1_9 1_555 1_555
O2_9 Zr1_9 1_555 1_555
Zr2_9 O2_9 1_555 1_555
O3_5 Zr1_9 1_555 1_555
C1_9 O4_9 1_555 1_555
H1_17 O2_9 1_555 1_555
O4_9 Zr2_9 1_555 1_555
O5_9 Zr2_9 1_555 1_555
O6_9 Zr2_9 1_555 1_555
C2_9 C1_9 1_555 1_555
C3_49 O5_9 1_555 1_555
C4_25 O6_9 1_555 1_555
C5_9 C2_9 1_555 1_555
S1_9 C2_9 1_555 1_555
C6_49 C3_49 1_555 1_555
C7_25 C4_25 1_555 1_555
H2_9 C5_9 1_555 1_555
O7_5 C8_9 1_555 1_555
C8_9 O8_9 1_555 1_555
O8_9 Zr9_5 1_555 1_555
C9_9 S1_9 1_555 1_555
C10_9 C5_9 1_555 1_555
H3_9 C10_9 1_555 1_555
O9_25 C3_49 1_555 1_555
O10_25 C4_25 1_555 1_555
O11_9 C11_17 1_555 1_555
O23_4 Zr4_9 1_555 1_555
C11_17 O14_17 1_555 1_555
H4_33 O20_29 1_555 1_555
O14_17 Zr10_4 1_555 1_555
C12_17 C11_17 1_555 1_555
C13_17 C12_17 1_555 1_555
S2_17 C12_17 1_555 1_555
H5_17 C13_17 1_555 1_555
O15_9 Zr1_9 1_555 1_555
C14_17 O15_9 1_555 1_555
O16_17 C14_17 1_555 1_555
C15_17 S2_17 1_555 1_555
C16_17 C13_17 1_555 1_555
H6_17 C16_17 1_555 1_555
Zr4_9 O11_9 1_555 1_555
Zr5_9 O7_5 1_555 1_555
O17_13 Zr1_9 1_555 1_555
O18_13 Zr1_9 1_555 1_555
O19_25 Zr1_9 1_555 1_555
O21_17 Zr2_9 1_555 1_555
Zr6_5 O2_9 1_555 1_555
Zr8_5 O3_5 1_555 1_555
O22_13 Zr1_9 1_555 1_555
O24_9 Zr2_9 1_555 1_555
O26_9 Zr2_9 1_555 1_555
Zr2_9 O3_5 1_555 1_555
C8_9 C9_9 1_555 1_555
C9_9 C10_9 1_555 1_555
O9_25 Zr6_5 1_555 1_555
O10_25 Zr8_5 1_555 1_555
O20_29 Zr4_9 1_555 1_555
C14_17 C15_17 1_555 1_555
O16_17 Zr8_5 1_555 1_555
C15_17 C16_17 1_555 1_555
O19_25 Zr8_5 1_555 1_555
O21_17 Zr6_5 1_555 1_555
Zr6_5 O22_13 1_555 1_555
Zr8_5 O24_9 1_555 1_555
C6_49 H7_25 1_555 1_555
C6_49 H8_25 1_555 1_555
C6_49 H9_25 1_555 1_555
C7_25 H10_25 1_555 1_555
C7_25 H11_25 1_555 1_555
C7_25 H12_25 1_555 1_555
H4_34 O20_30 1_555 1_555
O20_30 Zr4_10 1_555 1_555
H4_35 O20_25 1_555 1_555
O20_25 Zr4_11 1_555 1_555
Zr1_10 O1_6 1_555 1_555
O1_6 C1_10 1_555 1_555
O2_10 Zr1_10 1_555 1_555
Zr2_10 O2_10 1_555 1_555
O3_6 Zr1_10 1_555 1_555
C1_10 O4_10 1_555 1_555
H1_18 O2_10 1_555 1_555
O4_10 Zr2_10 1_555 1_555
O5_10 Zr2_10 1_555 1_555
O6_10 Zr2_10 1_555 1_555
C2_10 C1_10 1_555 1_555
C3_50 O5_10 1_555 1_555
C4_26 O6_10 1_555 1_555
C5_10 C2_10 1_555 1_555
S1_10 C2_10 1_555 1_555
C6_50 C3_50 1_555 1_555
C7_26 C4_26 1_555 1_555
H2_10 C5_10 1_555 1_555
O7_6 C8_10 1_555 1_555
C8_10 O8_10 1_555 1_555
O8_10 Zr9_6 1_555 1_555
C9_10 S1_10 1_555 1_555
C10_10 C5_10 1_555 1_555
H3_10 C10_10 1_555 1_555
O9_26 C3_50 1_555 1_555
O10_26 C4_26 1_555 1_555
O11_10 C11_18 1_555 1_555
O23_3 Zr4_12 1_555 1_555
C11_18 O14_18 1_555 1_555
H4_36 O20_26 1_555 1_555
O14_18 Zr10_3 1_555 1_555
C12_18 C11_18 1_555 1_555
C13_18 C12_18 1_555 1_555
S2_18 C12_18 1_555 1_555
H5_18 C13_18 1_555 1_555
O15_10 Zr1_10 1_555 1_555
C14_18 O15_10 1_555 1_555
O16_18 C14_18 1_555 1_555
C15_18 S2_18 1_555 1_555
C16_18 C13_18 1_555 1_555
H6_18 C16_18 1_555 1_555
Zr4_12 O11_10 1_555 1_555
Zr5_10 O7_6 1_555 1_555
O17_14 Zr1_10 1_555 1_555
O18_14 Zr1_10 1_555 1_555
O19_26 Zr1_10 1_555 1_555
O21_18 Zr2_10 1_555 1_555
Zr6_6 O2_10 1_555 1_555
Zr8_6 O3_6 1_555 1_555
O22_14 Zr1_10 1_555 1_555
O24_10 Zr2_10 1_555 1_555
O26_10 Zr2_10 1_555 1_555
Zr2_10 O3_6 1_555 1_555
C8_10 C9_10 1_555 1_555
C9_10 C10_10 1_555 1_555
O9_26 Zr6_6 1_555 1_555
O10_26 Zr8_6 1_555 1_555
O20_26 Zr4_12 1_555 1_555
C14_18 C15_18 1_555 1_555
O16_18 Zr8_6 1_555 1_555
C15_18 C16_18 1_555 1_555
O19_26 Zr8_6 1_555 1_555
O21_18 Zr6_6 1_555 1_555
Zr6_6 O22_14 1_555 1_555
Zr8_6 O24_10 1_555 1_555
C6_50 H7_26 1_555 1_555
C6_50 H8_26 1_555 1_555
C6_50 H9_26 1_555 1_555
C7_26 H10_26 1_555 1_555
C7_26 H11_26 1_555 1_555
C7_26 H12_26 1_555 1_555
H4_37 O20_31 1_555 1_555
O20_31 Zr4_13 1_555 1_555
Zr1_11 O1_7 1_555 1_555
O1_7 C1_11 1_555 1_555
O2_11 Zr1_11 1_555 1_555
Zr2_11 O2_11 1_555 1_555
O3_7 Zr1_11 1_555 1_555
C1_11 O4_11 1_555 1_555
H1_19 O2_11 1_555 1_555
O4_11 Zr2_11 1_555 1_555
O5_11 Zr2_11 1_555 1_555
O6_11 Zr2_11 1_555 1_555
C2_11 C1_11 1_555 1_555
C3_51 O5_11 1_555 1_555
C4_27 O6_11 1_555 1_555
C5_11 C2_11 1_555 1_555
S1_11 C2_11 1_555 1_555
C6_51 C3_51 1_555 1_555
C7_27 C4_27 1_555 1_555
H2_11 C5_11 1_555 1_555
O7_7 C8_11 1_555 1_555
C8_11 O8_11 1_555 1_555
O8_11 Zr9_7 1_555 1_555
C9_11 S1_11 1_555 1_555
C10_11 C5_11 1_555 1_555
H3_11 C10_11 1_555 1_555
O9_27 C3_51 1_555 1_555
O10_27 C4_27 1_555 1_555
O11_11 C11_19 1_555 1_555
O23_2 Zr4_14 1_555 1_555
C11_19 O14_19 1_555 1_555
H4_38 O20_32 1_555 1_555
O14_19 Zr10_2 1_555 1_555
C12_19 C11_19 1_555 1_555
C13_19 C12_19 1_555 1_555
S2_19 C12_19 1_555 1_555
H5_19 C13_19 1_555 1_555
O15_11 Zr1_11 1_555 1_555
C14_19 O15_11 1_555 1_555
O16_19 C14_19 1_555 1_555
C15_19 S2_19 1_555 1_555
C16_19 C13_19 1_555 1_555
H6_19 C16_19 1_555 1_555
Zr4_14 O11_11 1_555 1_555
Zr5_11 O7_7 1_555 1_555
O17_15 Zr1_11 1_555 1_555
O18_15 Zr1_11 1_555 1_555
O19_27 Zr1_11 1_555 1_555
O21_19 Zr2_11 1_555 1_555
Zr6_7 O2_11 1_555 1_555
Zr8_7 O3_7 1_555 1_555
O22_15 Zr1_11 1_555 1_555
O24_11 Zr2_11 1_555 1_555
O26_11 Zr2_11 1_555 1_555
Zr2_11 O3_7 1_555 1_555
C8_11 C9_11 1_555 1_555
C9_11 C10_11 1_555 1_555
O9_27 Zr6_7 1_555 1_555
O10_27 Zr8_7 1_555 1_555
O20_32 Zr4_14 1_555 1_555
C14_19 C15_19 1_555 1_555
O16_19 Zr8_7 1_555 1_555
C15_19 C16_19 1_555 1_555
O19_27 Zr8_7 1_555 1_555
O21_19 Zr6_7 1_555 1_555
Zr6_7 O22_15 1_555 1_555
Zr8_7 O24_11 1_555 1_555
C6_51 H7_27 1_555 1_555
C6_51 H8_27 1_555 1_555
C6_51 H9_27 1_555 1_555
C7_27 H10_27 1_555 1_555
C7_27 H11_27 1_555 1_555
C7_27 H12_27 1_555 1_555
Zr1_12 O1_8 1_555 1_555
O1_8 C1_12 1_555 1_555
O2_12 Zr1_12 1_555 1_555
Zr2_12 O2_12 1_555 1_555
O3_8 Zr1_12 1_555 1_555
C1_12 O4_12 1_555 1_555
H1_20 O2_12 1_555 1_555
O4_12 Zr2_12 1_555 1_555
O5_12 Zr2_12 1_555 1_555
O6_12 Zr2_12 1_555 1_555
C2_12 C1_12 1_555 1_555
C3_52 O5_12 1_555 1_555
C4_28 O6_12 1_555 1_555
C5_12 C2_12 1_555 1_555
S1_12 C2_12 1_555 1_555
C6_52 C3_52 1_555 1_555
C7_28 C4_28 1_555 1_555
H2_12 C5_12 1_555 1_555
O7_8 C8_12 1_555 1_555
C8_12 O8_12 1_555 1_555
O8_12 Zr9_8 1_555 1_555
C9_12 S1_12 1_555 1_555
C10_12 C5_12 1_555 1_555
H3_12 C10_12 1_555 1_555
O9_28 C3_52 1_555 1_555
O10_28 C4_28 1_555 1_555
O11_12 C11_20 1_555 1_555
O23 Zr4_15 1_555 1_555
C11_20 O14_20 1_555 1_555
H4_39 O20_27 1_555 1_555
O14_20 Zr10 1_555 1_555
C12_20 C11_20 1_555 1_555
C13_20 C12_20 1_555 1_555
S2_20 C12_20 1_555 1_555
H5_20 C13_20 1_555 1_555
O15_12 Zr1_12 1_555 1_555
C14_20 O15_12 1_555 1_555
O16_20 C14_20 1_555 1_555
C15_20 S2_20 1_555 1_555
C16_20 C13_20 1_555 1_555
H6_20 C16_20 1_555 1_555
Zr4_15 O11_12 1_555 1_555
Zr5_12 O7_8 1_555 1_555
O17_16 Zr1_12 1_555 1_555
O18_16 Zr1_12 1_555 1_555
O19_28 Zr1_12 1_555 1_555
O21_20 Zr2_12 1_555 1_555
Zr6_8 O2_12 1_555 1_555
Zr8_8 O3_8 1_555 1_555
O22_16 Zr1_12 1_555 1_555
O24_12 Zr2_12 1_555 1_555
O26_12 Zr2_12 1_555 1_555
Zr2_12 O3_8 1_555 1_555
C8_12 C9_12 1_555 1_555
C9_12 C10_12 1_555 1_555
O9_28 Zr6_8 1_555 1_555
O10_28 Zr8_8 1_555 1_555
O20_27 Zr4_15 1_555 1_555
C14_20 C15_20 1_555 1_555
O16_20 Zr8_8 1_555 1_555
C15_20 C16_20 1_555 1_555
O19_28 Zr8_8 1_555 1_555
O21_20 Zr6_8 1_555 1_555
Zr6_8 O22_16 1_555 1_555
Zr8_8 O24_12 1_555 1_555
C6_52 H7_28 1_555 1_555
C6_52 H8_28 1_555 1_555
C6_52 H9_28 1_555 1_555
C7_28 H10_28 1_555 1_555
C7_28 H11_28 1_555 1_555
C7_28 H12_28 1_555 1_555
H4_40 O20_28 1_555 1_555
O20_28 Zr4_16 1_555 1_555
O11_13 C11_21 1_555 1_555
O12_17 Zr3_17 1_555 1_555
Zr3_17 O13_9 1_555 1_555
O13_9 Zr5_9 1_555 1_555
C11_21 O14_21 1_555 1_555
H4_41 O12_17 1_555 1_555
O14_21 Zr3_17 1_555 1_555
C12_21 C11_21 1_555 1_555
C13_21 C12_21 1_555 1_555
S2_21 C12_21 1_555 1_555
H5_21 C13_21 1_555 1_555
O15_13 Zr4_9 1_555 1_555
C14_21 O15_13 1_555 1_555
O25_4 C14_21 1_555 1_555
C15_21 S2_21 1_555 1_555
C16_21 C13_21 1_555 1_555
H6_21 C16_21 1_555 1_555
Zr5_9 O11_13 1_555 1_555
O20_7 Zr4_9 1_555 1_555
O20_33 Zr3_17 1_555 1_555
Zr7_9 O12_17 1_555 1_555
Zr9_5 O13_9 1_555 1_555
O23_17 Zr3_17 1_555 1_555
O25_17 Zr3_17 1_555 1_555
O27_17 Zr3_17 1_555 1_555
O28_17 Zr3_17 1_555 1_555
O12_17 Zr5_9 1_555 1_555
C14_21 C15_21 1_555 1_555
C15_21 C16_21 1_555 1_555
O20_33 Zr7_9 1_555 1_555
Zr9_5 O23_17 1_555 1_555
C6_47 H7_29 1_555 1_555
C6_47 H9_29 1_555 1_555
C7_6 H10_29 1_555 1_555
C7_6 H11_29 1_555 1_555
C7_6 H12_29 1_555 1_555
O17_17 Zr4_10 1_555 1_555
O18_17 Zr4_10 1_555 1_555
O20_8 Zr4_10 1_555 1_555
O23_15 Zr4_10 1_555 1_555
C6_48 H8_29 1_555 1_555
O11_14 C11_22 1_555 1_555
O12_18 Zr3_18 1_555 1_555
Zr3_18 O13_10 1_555 1_555
O13_10 Zr5_12 1_555 1_555
C11_22 O14_22 1_555 1_555
H4_42 O12_18 1_555 1_555
O14_22 Zr3_18 1_555 1_555
C12_22 C11_22 1_555 1_555
C13_22 C12_22 1_555 1_555
S2_22 C12_22 1_555 1_555
H5_22 C13_22 1_555 1_555
O15_14 Zr4_15 1_555 1_555
C14_22 O15_14 1_555 1_555
O25 C14_22 1_555 1_555
C15_22 S2_22 1_555 1_555
C16_22 C13_22 1_555 1_555
H6_22 C16_22 1_555 1_555
Zr5_12 O11_14 1_555 1_555
O20 Zr4_15 1_555 1_555
O20_34 Zr3_18 1_555 1_555
Zr7_10 O12_18 1_555 1_555
Zr9_8 O13_10 1_555 1_555
O23_18 Zr3_18 1_555 1_555
O25_18 Zr3_18 1_555 1_555
O27_18 Zr3_18 1_555 1_555
O28_18 Zr3_18 1_555 1_555
O12_18 Zr5_12 1_555 1_555
C14_22 C15_22 1_555 1_555
C15_22 C16_22 1_555 1_555
O20_34 Zr7_10 1_555 1_555
Zr9_8 O23_18 1_555 1_555
C6_45 H7_30 1_555 1_555
C6_45 H9_30 1_555 1_555
C7_5 H10_30 1_555 1_555
C7_5 H11_30 1_555 1_555
C7_5 H12_30 1_555 1_555
O17_18 Zr4_16 1_555 1_555
O18_18 Zr4_16 1_555 1_555
O20_2 Zr4_16 1_555 1_555
O23_14 Zr4_16 1_555 1_555
C6_46 H8_30 1_555 1_555
O17_19 Zr4_11 1_555 1_555
O18_19 Zr4_11 1_555 1_555
O20_5 Zr4_11 1_555 1_555
O23_13 Zr4_11 1_555 1_555
C6_41 H8_31 1_555 1_555
O11_15 C11_23 1_555 1_555
O12_19 Zr3_19 1_555 1_555
Zr3_19 O13_11 1_555 1_555
O13_11 Zr5_10 1_555 1_555
C11_23 O14_23 1_555 1_555
H4_43 O12_19 1_555 1_555
O14_23 Zr3_19 1_555 1_555
C12_23 C11_23 1_555 1_555
C13_23 C12_23 1_555 1_555
S2_23 C12_23 1_555 1_555
H5_23 C13_23 1_555 1_555
O15_15 Zr4_12 1_555 1_555
C14_23 O15_15 1_555 1_555
O25_3 C14_23 1_555 1_555
C15_23 S2_23 1_555 1_555
C16_23 C13_23 1_555 1_555
H6_23 C16_23 1_555 1_555
Zr5_10 O11_15 1_555 1_555
O20_6 Zr4_12 1_555 1_555
O20_35 Zr3_19 1_555 1_555
Zr7_11 O12_19 1_555 1_555
Zr9_6 O13_11 1_555 1_555
O23_19 Zr3_19 1_555 1_555
O25_19 Zr3_19 1_555 1_555
O27_19 Zr3_19 1_555 1_555
O28_19 Zr3_19 1_555 1_555
O12_19 Zr5_10 1_555 1_555
C14_23 C15_23 1_555 1_555
C15_23 C16_23 1_555 1_555
O20_35 Zr7_11 1_555 1_555
Zr9_6 O23_19 1_555 1_555
C6_42 H7_31 1_555 1_555
C6_42 H9_31 1_555 1_555
C7_8 H10_31 1_555 1_555
C7_8 H11_31 1_555 1_555
C7_8 H12_31 1_555 1_555
O17_20 Zr4_13 1_555 1_555
O18_20 Zr4_13 1_555 1_555
O20_3 Zr4_13 1_555 1_555
O23_16 Zr4_13 1_555 1_555
C6_43 H8_32 1_555 1_555
O11_16 C11_24 1_555 1_555
O12_20 Zr3_20 1_555 1_555
Zr3_20 O13_12 1_555 1_555
O13_12 Zr5_11 1_555 1_555
C11_24 O14_24 1_555 1_555
H4_44 O12_20 1_555 1_555
O14_24 Zr3_20 1_555 1_555
C12_24 C11_24 1_555 1_555
C13_24 C12_24 1_555 1_555
S2_24 C12_24 1_555 1_555
H5_24 C13_24 1_555 1_555
O15_16 Zr4_14 1_555 1_555
C14_24 O15_16 1_555 1_555
O25_2 C14_24 1_555 1_555
C15_24 S2_24 1_555 1_555
C16_24 C13_24 1_555 1_555
H6_24 C16_24 1_555 1_555
Zr5_11 O11_16 1_555 1_555
O20_4 Zr4_14 1_555 1_555
O20_36 Zr3_20 1_555 1_555
Zr7_12 O12_20 1_555 1_555
Zr9_7 O13_12 1_555 1_555
O23_20 Zr3_20 1_555 1_555
O25_20 Zr3_20 1_555 1_555
O27_20 Zr3_20 1_555 1_555
O28_20 Zr3_20 1_555 1_555
O12_20 Zr5_11 1_555 1_555
C14_24 C15_24 1_555 1_555
C15_24 C16_24 1_555 1_555
O20_36 Zr7_12 1_555 1_555
Zr9_7 O23_20 1_555 1_555
C6_44 H7_32 1_555 1_555
C6_44 H9_32 1_555 1_555
C7_7 H10_32 1_555 1_555
C7_7 H11_32 1_555 1_555
C7_7 H12_32 1_555 1_555
C3_53 O27_17 1_555 1_555
C4_29 O28_17 1_555 1_555
C6_53 C3_53 1_555 1_555
C7_29 C4_29 1_555 1_555
O9_29 C3_53 1_555 1_555
O10_29 C4_29 1_555 1_555
O17_21 Zr5_9 1_555 1_555
O18_21 Zr5_9 1_555 1_555
O19_29 Zr5_9 1_555 1_555
O22_17 Zr5_9 1_555 1_555
O9_29 Zr7_9 1_555 1_555
O10_29 Zr9_5 1_555 1_555
O19_29 Zr9_5 1_555 1_555
Zr7_9 O22_17 1_555 1_555
C6_53 H7_33 1_555 1_555
C6_53 H8_33 1_555 1_555
C6_53 H9_33 1_555 1_555
C7_29 H10_33 1_555 1_555
C7_29 H11_33 1_555 1_555
C7_29 H12_33 1_555 1_555
C3_54 O27_20 1_555 1_555
C4_30 O28_20 1_555 1_555
C6_54 C3_54 1_555 1_555
C7_30 C4_30 1_555 1_555
O9_30 C3_54 1_555 1_555
O10_30 C4_30 1_555 1_555
O17_22 Zr5_11 1_555 1_555
O18_22 Zr5_11 1_555 1_555
O19_30 Zr5_11 1_555 1_555
O22_18 Zr5_11 1_555 1_555
O9_30 Zr7_12 1_555 1_555
O10_30 Zr9_7 1_555 1_555
O19_30 Zr9_7 1_555 1_555
Zr7_12 O22_18 1_555 1_555
C6_54 H7_34 1_555 1_555
C6_54 H8_34 1_555 1_555
C6_54 H9_34 1_555 1_555
C7_30 H10_34 1_555 1_555
C7_30 H11_34 1_555 1_555
C7_30 H12_34 1_555 1_555
C3_55 O27_18 1_555 1_555
C4_31 O28_18 1_555 1_555
C6_55 C3_55 1_555 1_555
C7_31 C4_31 1_555 1_555
O9_31 C3_55 1_555 1_555
O10_31 C4_31 1_555 1_555
O17_23 Zr5_12 1_555 1_555
O18_23 Zr5_12 1_555 1_555
O19_31 Zr5_12 1_555 1_555
O22_19 Zr5_12 1_555 1_555
O9_31 Zr7_10 1_555 1_555
O10_31 Zr9_8 1_555 1_555
O19_31 Zr9_8 1_555 1_555
Zr7_10 O22_19 1_555 1_555
C6_55 H7_35 1_555 1_555
C6_55 H8_35 1_555 1_555
C6_55 H9_35 1_555 1_555
C7_31 H10_35 1_555 1_555
C7_31 H11_35 1_555 1_555
C7_31 H12_35 1_555 1_555
C3_56 O27_19 1_555 1_555
C4_32 O28_19 1_555 1_555
C6_56 C3_56 1_555 1_555
C7_32 C4_32 1_555 1_555
O9_32 C3_56 1_555 1_555
O10_32 C4_32 1_555 1_555
O17_24 Zr5_10 1_555 1_555
O18_24 Zr5_10 1_555 1_555
O19_32 Zr5_10 1_555 1_555
O22_20 Zr5_10 1_555 1_555
O9_32 Zr7_11 1_555 1_555
O10_32 Zr9_6 1_555 1_555
O19_32 Zr9_6 1_555 1_555
Zr7_11 O22_20 1_555 1_555
C6_56 H7_36 1_555 1_555
C6_56 H8_36 1_555 1_555
C6_56 H9_36 1_555 1_555
C7_32 H10_36 1_555 1_555
C7_32 H11_36 1_555 1_555
C7_32 H12_36 1_555 1_555
O17_13 C1_13 1_555 1_555
Zr2_13 O19_25 1_555 1_555
C1_13 O4_13 1_555 1_555
H1_21 O19_25 1_555 1_555
O4_13 Zr2_13 1_555 1_555
O5_13 Zr2_13 1_555 1_555
O6_13 Zr2_13 1_555 1_555
C2_13 C1_13 1_555 1_555
C3_57 O5_13 1_555 1_555
C4_33 O6_13 1_555 1_555
C5_13 C2_13 1_555 1_555
S1_13 C2_13 1_555 1_555
C6_57 C3_57 1_555 1_555
C7_33 C4_33 1_555 1_555
H2_13 C5_13 1_555 1_555
O18_20 C8_13 1_555 1_555
C8_13 O25_16 1_555 1_555
C9_13 S1_13 1_555 1_555
C10_13 C5_13 1_555 1_555
H3_13 C10_13 1_555 1_555
O9_33 C3_57 1_555 1_555
O10_33 C4_33 1_555 1_555
O17_23 C11_25 1_555 1_555
O19_31 Zr3_21 1_555 1_555
Zr3_21 O22_19 1_555 1_555
C11_25 O14_25 1_555 1_555
H4_45 O19_31 1_555 1_555
O14_25 Zr3_21 1_555 1_555
C12_25 C11_25 1_555 1_555
C13_25 C12_25 1_555 1_555
S2_25 C12_25 1_555 1_555
H5_25 C13_25 1_555 1_555
C14_25 O18_13 1_555 1_555
O16_21 C14_25 1_555 1_555
C15_25 S2_25 1_555 1_555
C16_25 C13_25 1_555 1_555
H6_25 C16_25 1_555 1_555
O20_37 Zr3_21 1_555 1_555
O21_21 Zr2_13 1_555 1_555
O23_21 Zr3_21 1_555 1_555
O24_13 Zr2_13 1_555 1_555
O25_21 Zr3_21 1_555 1_555
O26_13 Zr2_13 1_555 1_555
O27_21 Zr3_21 1_555 1_555
O28_21 Zr3_21 1_555 1_555
Zr2_13 O22_13 1_555 1_555
C8_13 C9_13 1_555 1_555
C9_13 C10_13 1_555 1_555
O9_33 Zr8_5 1_555 1_555
O10_33 Zr6_5 1_555 1_555
C14_25 C15_25 1_555 1_555
O16_21 Zr6_5 1_555 1_555
C15_25 C16_25 1_555 1_555
O20_37 Zr9_8 1_555 1_555
O21_21 Zr8_5 1_555 1_555
Zr6_5 O24_13 1_555 1_555
Zr7_10 O23_21 1_555 1_555
C6_57 H7_37 1_555 1_555
C6_57 H8_37 1_555 1_555
C6_57 H9_37 1_555 1_555
C7_33 H10_37 1_555 1_555
C7_33 H11_37 1_555 1_555
C7_33 H12_37 1_555 1_555
O17_14 C1_14 1_555 1_555
Zr2_14 O19_26 1_555 1_555
C1_14 O4_14 1_555 1_555
H1_22 O19_26 1_555 1_555
O4_14 Zr2_14 1_555 1_555
O5_14 Zr2_14 1_555 1_555
O6_14 Zr2_14 1_555 1_555
C2_14 C1_14 1_555 1_555
C3_58 O5_14 1_555 1_555
C4_34 O6_14 1_555 1_555
C5_14 C2_14 1_555 1_555
S1_14 C2_14 1_555 1_555
C6_58 C3_58 1_555 1_555
C7_34 C4_34 1_555 1_555
H2_14 C5_14 1_555 1_555
O18_18 C8_14 1_555 1_555
C8_14 O25_14 1_555 1_555
C9_14 S1_14 1_555 1_555
C10_14 C5_14 1_555 1_555
H3_14 C10_14 1_555 1_555
O9_34 C3_58 1_555 1_555
O10_34 C4_34 1_555 1_555
O17_22 C11_26 1_555 1_555
O19_30 Zr3_22 1_555 1_555
Zr3_22 O22_18 1_555 1_555
C11_26 O14_26 1_555 1_555
H4_46 O19_30 1_555 1_555
O14_26 Zr3_22 1_555 1_555
C12_26 C11_26 1_555 1_555
C13_26 C12_26 1_555 1_555
S2_26 C12_26 1_555 1_555
H5_26 C13_26 1_555 1_555
C14_26 O18_14 1_555 1_555
O16_22 C14_26 1_555 1_555
C15_26 S2_26 1_555 1_555
C16_26 C13_26 1_555 1_555
H6_26 C16_26 1_555 1_555
O20_38 Zr3_22 1_555 1_555
O21_22 Zr2_14 1_555 1_555
O23_22 Zr3_22 1_555 1_555
O24_14 Zr2_14 1_555 1_555
O25_22 Zr3_22 1_555 1_555
O26_14 Zr2_14 1_555 1_555
O27_22 Zr3_22 1_555 1_555
O28_22 Zr3_22 1_555 1_555
Zr2_14 O22_14 1_555 1_555
C8_14 C9_14 1_555 1_555
C9_14 C10_14 1_555 1_555
O9_34 Zr8_6 1_555 1_555
O10_34 Zr6_6 1_555 1_555
C14_26 C15_26 1_555 1_555
O16_22 Zr6_6 1_555 1_555
C15_26 C16_26 1_555 1_555
O20_38 Zr9_7 1_555 1_555
O21_22 Zr8_6 1_555 1_555
Zr6_6 O24_14 1_555 1_555
Zr7_12 O23_22 1_555 1_555
C6_58 H7_38 1_555 1_555
C6_58 H8_38 1_555 1_555
C6_58 H9_38 1_555 1_555
C7_34 H10_38 1_555 1_555
C7_34 H11_38 1_555 1_555
C7_34 H12_38 1_555 1_555
O17_16 C1_15 1_555 1_555
Zr2_15 O19_28 1_555 1_555
C1_15 O4_15 1_555 1_555
H1_23 O19_28 1_555 1_555
O4_15 Zr2_15 1_555 1_555
O5_15 Zr2_15 1_555 1_555
O6_15 Zr2_15 1_555 1_555
C2_15 C1_15 1_555 1_555
C3_59 O5_15 1_555 1_555
C4_35 O6_15 1_555 1_555
C5_15 C2_15 1_555 1_555
S1_15 C2_15 1_555 1_555
C6_59 C3_59 1_555 1_555
C7_35 C4_35 1_555 1_555
H2_15 C5_15 1_555 1_555
O18_19 C8_15 1_555 1_555
C8_15 O25_13 1_555 1_555
C9_15 S1_15 1_555 1_555
C10_15 C5_15 1_555 1_555
H3_15 C10_15 1_555 1_555
O9_35 C3_59 1_555 1_555
O10_35 C4_35 1_555 1_555
O17_21 C11_27 1_555 1_555
O19_29 Zr3_23 1_555 1_555
Zr3_23 O22_17 1_555 1_555
C11_27 O14_27 1_555 1_555
H4_47 O19_29 1_555 1_555
O14_27 Zr3_23 1_555 1_555
C12_27 C11_27 1_555 1_555
C13_27 C12_27 1_555 1_555
S2_27 C12_27 1_555 1_555
H5_27 C13_27 1_555 1_555
C14_27 O18_16 1_555 1_555
O16_23 C14_27 1_555 1_555
C15_27 S2_27 1_555 1_555
C16_27 C13_27 1_555 1_555
H6_27 C16_27 1_555 1_555
O20_39 Zr3_23 1_555 1_555
O21_23 Zr2_15 1_555 1_555
O23_23 Zr3_23 1_555 1_555
O24_15 Zr2_15 1_555 1_555
O25_23 Zr3_23 1_555 1_555
O26_15 Zr2_15 1_555 1_555
O27_23 Zr3_23 1_555 1_555
O28_23 Zr3_23 1_555 1_555
Zr2_15 O22_16 1_555 1_555
C8_15 C9_15 1_555 1_555
C9_15 C10_15 1_555 1_555
O9_35 Zr8_8 1_555 1_555
O10_35 Zr6_8 1_555 1_555
C14_27 C15_27 1_555 1_555
O16_23 Zr6_8 1_555 1_555
C15_27 C16_27 1_555 1_555
O20_39 Zr9_5 1_555 1_555
O21_23 Zr8_8 1_555 1_555
Zr6_8 O24_15 1_555 1_555
Zr7_9 O23_23 1_555 1_555
C6_59 H7_39 1_555 1_555
C6_59 H8_39 1_555 1_555
C6_59 H9_39 1_555 1_555
C7_35 H10_39 1_555 1_555
C7_35 H11_39 1_555 1_555
C7_35 H12_39 1_555 1_555
O17_15 C1_16 1_555 1_555
Zr2_16 O19_27 1_555 1_555
C1_16 O4_16 1_555 1_555
H1_24 O19_27 1_555 1_555
O4_16 Zr2_16 1_555 1_555
O5_16 Zr2_16 1_555 1_555
O6_16 Zr2_16 1_555 1_555
C2_16 C1_16 1_555 1_555
C3_60 O5_16 1_555 1_555
C4_36 O6_16 1_555 1_555
C5_16 C2_16 1_555 1_555
S1_16 C2_16 1_555 1_555
C6_60 C3_60 1_555 1_555
C7_36 C4_36 1_555 1_555
H2_16 C5_16 1_555 1_555
O18_17 C8_16 1_555 1_555
C8_16 O25_15 1_555 1_555
C9_16 S1_16 1_555 1_555
C10_16 C5_16 1_555 1_555
H3_16 C10_16 1_555 1_555
O9_36 C3_60 1_555 1_555
O10_36 C4_36 1_555 1_555
O17_24 C11_28 1_555 1_555
O19_32 Zr3_24 1_555 1_555
Zr3_24 O22_20 1_555 1_555
C11_28 O14_28 1_555 1_555
H4_48 O19_32 1_555 1_555
O14_28 Zr3_24 1_555 1_555
C12_28 C11_28 1_555 1_555
C13_28 C12_28 1_555 1_555
S2_28 C12_28 1_555 1_555
H5_28 C13_28 1_555 1_555
C14_28 O18_15 1_555 1_555
O16_24 C14_28 1_555 1_555
C15_28 S2_28 1_555 1_555
C16_28 C13_28 1_555 1_555
H6_28 C16_28 1_555 1_555
O20_40 Zr3_24 1_555 1_555
O21_24 Zr2_16 1_555 1_555
O23_24 Zr3_24 1_555 1_555
O24_16 Zr2_16 1_555 1_555
O25_24 Zr3_24 1_555 1_555
O26_16 Zr2_16 1_555 1_555
O27_24 Zr3_24 1_555 1_555
O28_24 Zr3_24 1_555 1_555
Zr2_16 O22_15 1_555 1_555
C8_16 C9_16 1_555 1_555
C9_16 C10_16 1_555 1_555
O9_36 Zr8_7 1_555 1_555
O10_36 Zr6_7 1_555 1_555
C14_28 C15_28 1_555 1_555
O16_24 Zr6_7 1_555 1_555
C15_28 C16_28 1_555 1_555
O20_40 Zr9_6 1_555 1_555
O21_24 Zr8_7 1_555 1_555
Zr6_7 O24_16 1_555 1_555
Zr7_11 O23_24 1_555 1_555
C6_60 H7_40 1_555 1_555
C6_60 H8_40 1_555 1_555
C6_60 H9_40 1_555 1_555
C7_36 H10_40 1_555 1_555
C7_36 H11_40 1_555 1_555
C7_36 H12_40 1_555 1_555
C3_61 O27_21 1_555 1_555
C4_37 O28_21 1_555 1_555
C6_61 C3_61 1_555 1_555
C7_37 C4_37 1_555 1_555
O9_37 C3_61 1_555 1_555
O10_37 C4_37 1_555 1_555
O17_20 C11_29 1_555 1_555
C11_29 O14_29 1_555 1_555
H4_49 O20_3 1_555 1_555
O14_29 Zr7_2 1_555 1_555
C12_29 C11_29 1_555 1_555
C13_29 C12_29 1_555 1_555
S2_29 C12_29 1_555 1_555
H5_29 C13_29 1_555 1_555
C14_29 O18_23 1_555 1_555
O16_25 C14_29 1_555 1_555
C15_29 S2_29 1_555 1_555
C16_29 C13_29 1_555 1_555
H6_29 C16_29 1_555 1_555
O9_37 Zr9_8 1_555 1_555
O10_37 Zr7_10 1_555 1_555
C14_29 C15_29 1_555 1_555
O16_25 Zr7_10 1_555 1_555
C15_29 C16_29 1_555 1_555
C6_61 H7_41 1_555 1_555
C6_61 H8_41 1_555 1_555
C6_61 H9_41 1_555 1_555
C7_37 H10_41 1_555 1_555
C7_37 H11_41 1_555 1_555
C7_37 H12_41 1_555 1_555
H4_50 O20_4 1_555 1_555
H4_51 O20_7 1_555 1_555
C3_62 O27_24 1_555 1_555
C4_38 O28_24 1_555 1_555
C6_62 C3_62 1_555 1_555
C7_38 C4_38 1_555 1_555
O9_38 C3_62 1_555 1_555
O10_38 C4_38 1_555 1_555
O17_17 C11_30 1_555 1_555
C11_30 O14_30 1_555 1_555
H4_52 O20_8 1_555 1_555
O14_30 Zr7_4 1_555 1_555
C12_30 C11_30 1_555 1_555
C13_30 C12_30 1_555 1_555
S2_30 C12_30 1_555 1_555
H5_30 C13_30 1_555 1_555
C14_30 O18_24 1_555 1_555
O16_26 C14_30 1_555 1_555
C15_30 S2_30 1_555 1_555
C16_30 C13_30 1_555 1_555
H6_30 C16_30 1_555 1_555
O9_38 Zr9_6 1_555 1_555
O10_38 Zr7_11 1_555 1_555
C14_30 C15_30 1_555 1_555
O16_26 Zr7_11 1_555 1_555
C15_30 C16_30 1_555 1_555
C6_62 H7_42 1_555 1_555
C6_62 H8_42 1_555 1_555
C6_62 H9_42 1_555 1_555
C7_38 H10_42 1_555 1_555
C7_38 H11_42 1_555 1_555
C7_38 H12_42 1_555 1_555
H4_53 O20 1_555 1_555
C3_63 O27_22 1_555 1_555
C4_39 O28_22 1_555 1_555
C6_63 C3_63 1_555 1_555
C7_39 C4_39 1_555 1_555
O9_39 C3_63 1_555 1_555
O10_39 C4_39 1_555 1_555
O17_18 C11_31 1_555 1_555
C11_31 O14_31 1_555 1_555
H4_54 O20_2 1_555 1_555
O14_31 Zr7 1_555 1_555
C12_31 C11_31 1_555 1_555
C13_31 C12_31 1_555 1_555
S2_31 C12_31 1_555 1_555
H5_31 C13_31 1_555 1_555
C14_31 O18_22 1_555 1_555
O16_27 C14_31 1_555 1_555
C15_31 S2_31 1_555 1_555
C16_31 C13_31 1_555 1_555
H6_31 C16_31 1_555 1_555
O9_39 Zr9_7 1_555 1_555
O10_39 Zr7_12 1_555 1_555
C14_31 C15_31 1_555 1_555
O16_27 Zr7_12 1_555 1_555
C15_31 C16_31 1_555 1_555
C6_63 H7_43 1_555 1_555
C6_63 H8_43 1_555 1_555
C6_63 H9_43 1_555 1_555
C7_39 H10_43 1_555 1_555
C7_39 H11_43 1_555 1_555
C7_39 H12_43 1_555 1_555
C3_64 O27_23 1_555 1_555
C4_40 O28_23 1_555 1_555
C6_64 C3_64 1_555 1_555
C7_40 C4_40 1_555 1_555
O9_40 C3_64 1_555 1_555
O10_40 C4_40 1_555 1_555
O17_19 C11_32 1_555 1_555
C11_32 O14_32 1_555 1_555
H4_55 O20_5 1_555 1_555
O14_32 Zr7_3 1_555 1_555
C12_32 C11_32 1_555 1_555
C13_32 C12_32 1_555 1_555
S2_32 C12_32 1_555 1_555
H5_32 C13_32 1_555 1_555
C14_32 O18_21 1_555 1_555
O16_28 C14_32 1_555 1_555
C15_32 S2_32 1_555 1_555
C16_32 C13_32 1_555 1_555
H6_32 C16_32 1_555 1_555
O9_40 Zr9_5 1_555 1_555
O10_40 Zr7_9 1_555 1_555
C14_32 C15_32 1_555 1_555
O16_28 Zr7_9 1_555 1_555
C15_32 C16_32 1_555 1_555
C6_64 H7_44 1_555 1_555
C6_64 H8_44 1_555 1_555
C6_64 H9_44 1_555 1_555
C7_40 H10_44 1_555 1_555
C7_40 H11_44 1_555 1_555
C7_40 H12_44 1_555 1_555
H4_56 O20_6 1_555 1_555
C6_13 H7_45 1_555 1_555
C6_13 H9_45 1_555 1_555
C7_22 H10_45 1_555 1_555
C7_22 H11_45 1_555 1_555
C7_22 H12_45 1_555 1_555
C6_14 H8_45 1_555 1_555
C6_15 H7_46 1_555 1_555
C6_15 H9_46 1_555 1_555
C7_21 H10_46 1_555 1_555
C7_21 H11_46 1_555 1_555
C7_21 H12_46 1_555 1_555
C6_16 H8_46 1_555 1_555
C6_11 H8_47 1_555 1_555
C6_12 H7_47 1_555 1_555
C6_12 H9_47 1_555 1_555
C7_24 H10_47 1_555 1_555
C7_24 H11_47 1_555 1_555
C7_24 H12_47 1_555 1_555
C6_9 H8_48 1_555 1_555
C6_10 H7_48 1_555 1_555
C6_10 H9_48 1_555 1_555
C7_23 H10_48 1_555 1_555
C7_23 H11_48 1_555 1_555
C7_23 H12_48 1_555 1_555
Zr1_13 O1_9 1_555 1_555
O1_9 C1_17 1_555 1_555
O21_22 Zr1_13 1_555 1_555
O24_10 Zr1_13 1_555 1_555
C1_17 O4_17 1_555 1_555
H1_25 O21_22 1_555 1_555
O4_17 Zr8_6 1_555 1_555
C2_17 C1_17 1_555 1_555
C5_17 C2_17 1_555 1_555
S1_17 C2_17 1_555 1_555
H2_17 C5_17 1_555 1_555
O7_9 C8_17 1_555 1_555
C8_17 O25_8 1_555 1_555
C9_17 S1_17 1_555 1_555
C10_17 C5_17 1_555 1_555
H3_17 C10_17 1_555 1_555
O11_17 C11_33 1_555 1_555
O12_21 Zr3_25 1_555 1_555
Zr3_25 O13_13 1_555 1_555
O13_13 Zr4_17 1_555 1_555
C11_33 O14_33 1_555 1_555
H4_57 O12_21 1_555 1_555
O14_33 Zr3_25 1_555 1_555
C12_33 C11_33 1_555 1_555
C13_33 C12_33 1_555 1_555
S2_33 C12_33 1_555 1_555
H5_33 C13_33 1_555 1_555
O15_17 Zr1_13 1_555 1_555
C14_33 O15_17 1_555 1_555
O26_10 C14_33 1_555 1_555
C15_33 S2_33 1_555 1_555
C16_33 C13_33 1_555 1_555
H6_33 C16_33 1_555 1_555
Zr4_17 O11_17 1_555 1_555
Zr5_13 O7_9 1_555 1_555
O17_25 Zr1_13 1_555 1_555
O18_25 Zr1_13 1_555 1_555
O21_18 Zr1_13 1_555 1_555
O20_41 Zr3_25 1_555 1_555
Zr7_13 O12_21 1_555 1_555
Zr10_5 O13_13 1_555 1_555
O24_14 Zr1_13 1_555 1_555
O23_25 Zr3_25 1_555 1_555
O25_25 Zr3_25 1_555 1_555
O27_25 Zr3_25 1_555 1_555
O28_25 Zr3_25 1_555 1_555
C8_17 C9_17 1_555 1_555
C9_17 C10_17 1_555 1_555
O12_21 Zr4_17 1_555 1_555
C14_33 C15_33 1_555 1_555
C15_33 C16_33 1_555 1_555
O20_41 Zr7_13 1_555 1_555
Zr10_5 O23_25 1_555 1_555
C6_58 H7_49 1_555 1_555
C6_58 H8_49 1_555 1_555
C6_58 H9_49 1_555 1_555
C7_26 H10_49 1_555 1_555
C7_26 H11_49 1_555 1_555
C7_26 H12_49 1_555 1_555
Zr1_14 O1_10 1_555 1_555
O1_10 C1_18 1_555 1_555
O21_21 Zr1_14 1_555 1_555
O24_9 Zr1_14 1_555 1_555
C1_18 O4_18 1_555 1_555
H1_26 O21_21 1_555 1_555
O4_18 Zr8_5 1_555 1_555
C2_18 C1_18 1_555 1_555
C5_18 C2_18 1_555 1_555
S1_18 C2_18 1_555 1_555
H2_18 C5_18 1_555 1_555
O7_10 C8_18 1_555 1_555
C8_18 O25_6 1_555 1_555
C9_18 S1_18 1_555 1_555
C10_18 C5_18 1_555 1_555
H3_18 C10_18 1_555 1_555
O11_18 C11_34 1_555 1_555
O12_22 Zr3_26 1_555 1_555
Zr3_26 O13_14 1_555 1_555
O13_14 Zr4_18 1_555 1_555
C11_34 O14_34 1_555 1_555
H4_58 O12_22 1_555 1_555
O14_34 Zr3_26 1_555 1_555
C12_34 C11_34 1_555 1_555
C13_34 C12_34 1_555 1_555
S2_34 C12_34 1_555 1_555
H5_34 C13_34 1_555 1_555
O15_18 Zr1_14 1_555 1_555
C14_34 O15_18 1_555 1_555
O26_9 C14_34 1_555 1_555
C15_34 S2_34 1_555 1_555
C16_34 C13_34 1_555 1_555
H6_34 C16_34 1_555 1_555
Zr4_18 O11_18 1_555 1_555
Zr5_16 O7_10 1_555 1_555
O17_26 Zr1_14 1_555 1_555
O18_26 Zr1_14 1_555 1_555
O21_17 Zr1_14 1_555 1_555
O20_42 Zr3_26 1_555 1_555
Zr7_14 O12_22 1_555 1_555
Zr10_6 O13_14 1_555 1_555
O24_13 Zr1_14 1_555 1_555
O23_26 Zr3_26 1_555 1_555
O25_26 Zr3_26 1_555 1_555
O27_26 Zr3_26 1_555 1_555
O28_26 Zr3_26 1_555 1_555
C8_18 C9_18 1_555 1_555
C9_18 C10_18 1_555 1_555
O12_22 Zr4_18 1_555 1_555
C14_34 C15_34 1_555 1_555
C15_34 C16_34 1_555 1_555
O20_42 Zr7_14 1_555 1_555
Zr10_6 O23_26 1_555 1_555
C6_57 H7_50 1_555 1_555
C6_57 H8_50 1_555 1_555
C6_57 H9_50 1_555 1_555
C7_25 H10_50 1_555 1_555
C7_25 H11_50 1_555 1_555
C7_25 H12_50 1_555 1_555
Zr1_15 O1_11 1_555 1_555
O1_11 C1_19 1_555 1_555
O21_23 Zr1_15 1_555 1_555
O24_12 Zr1_15 1_555 1_555
C1_19 O4_19 1_555 1_555
H1_27 O21_23 1_555 1_555
O4_19 Zr8_8 1_555 1_555
C2_19 C1_19 1_555 1_555
C5_19 C2_19 1_555 1_555
S1_19 C2_19 1_555 1_555
H2_19 C5_19 1_555 1_555
O7_11 C8_19 1_555 1_555
C8_19 O25_5 1_555 1_555
C9_19 S1_19 1_555 1_555
C10_19 C5_19 1_555 1_555
H3_19 C10_19 1_555 1_555
O11_19 C11_35 1_555 1_555
O12_23 Zr3_27 1_555 1_555
Zr3_27 O13_15 1_555 1_555
O13_15 Zr4_19 1_555 1_555
C11_35 O14_35 1_555 1_555
H4_59 O12_23 1_555 1_555
O14_35 Zr3_27 1_555 1_555
C12_35 C11_35 1_555 1_555
C13_35 C12_35 1_555 1_555
S2_35 C12_35 1_555 1_555
H5_35 C13_35 1_555 1_555
O15_19 Zr1_15 1_555 1_555
C14_35 O15_19 1_555 1_555
O26_12 C14_35 1_555 1_555
C15_35 S2_35 1_555 1_555
C16_35 C13_35 1_555 1_555
H6_35 C16_35 1_555 1_555
Zr4_19 O11_19 1_555 1_555
Zr5_17 O7_11 1_555 1_555
O17_27 Zr1_15 1_555 1_555
O18_27 Zr1_15 1_555 1_555
O21_20 Zr1_15 1_555 1_555
O20_43 Zr3_27 1_555 1_555
Zr7_15 O12_23 1_555 1_555
Zr10_7 O13_15 1_555 1_555
O24_15 Zr1_15 1_555 1_555
O23_27 Zr3_27 1_555 1_555
O25_27 Zr3_27 1_555 1_555
O27_27 Zr3_27 1_555 1_555
O28_27 Zr3_27 1_555 1_555
C8_19 C9_19 1_555 1_555
C9_19 C10_19 1_555 1_555
O12_23 Zr4_19 1_555 1_555
C14_35 C15_35 1_555 1_555
C15_35 C16_35 1_555 1_555
O20_43 Zr7_15 1_555 1_555
Zr10_7 O23_27 1_555 1_555
C6_59 H7_51 1_555 1_555
C6_59 H8_51 1_555 1_555
C6_59 H9_51 1_555 1_555
C7_28 H10_51 1_555 1_555
C7_28 H11_51 1_555 1_555
C7_28 H12_51 1_555 1_555
Zr1_16 O1_12 1_555 1_555
O1_12 C1_20 1_555 1_555
O21_24 Zr1_16 1_555 1_555
O24_11 Zr1_16 1_555 1_555
C1_20 O4_20 1_555 1_555
H1_28 O21_24 1_555 1_555
O4_20 Zr8_7 1_555 1_555
C2_20 C1_20 1_555 1_555
C5_20 C2_20 1_555 1_555
S1_20 C2_20 1_555 1_555
H2_20 C5_20 1_555 1_555
O7_12 C8_20 1_555 1_555
C8_20 O25_7 1_555 1_555
C9_20 S1_20 1_555 1_555
C10_20 C5_20 1_555 1_555
H3_20 C10_20 1_555 1_555
O11_20 C11_36 1_555 1_555
O12_24 Zr3_28 1_555 1_555
Zr3_28 O13_16 1_555 1_555
O13_16 Zr4_20 1_555 1_555
C11_36 O14_36 1_555 1_555
H4_60 O12_24 1_555 1_555
O14_36 Zr3_28 1_555 1_555
C12_36 C11_36 1_555 1_555
C13_36 C12_36 1_555 1_555
S2_36 C12_36 1_555 1_555
H5_36 C13_36 1_555 1_555
O15_20 Zr1_16 1_555 1_555
C14_36 O15_20 1_555 1_555
O26_11 C14_36 1_555 1_555
C15_36 S2_36 1_555 1_555
C16_36 C13_36 1_555 1_555
H6_36 C16_36 1_555 1_555
Zr4_20 O11_20 1_555 1_555
Zr5_20 O7_12 1_555 1_555
O17_28 Zr1_16 1_555 1_555
O18_28 Zr1_16 1_555 1_555
O21_19 Zr1_16 1_555 1_555
O20_44 Zr3_28 1_555 1_555
Zr7_16 O12_24 1_555 1_555
Zr10_8 O13_16 1_555 1_555
O24_16 Zr1_16 1_555 1_555
O23_28 Zr3_28 1_555 1_555
O25_28 Zr3_28 1_555 1_555
O27_28 Zr3_28 1_555 1_555
O28_28 Zr3_28 1_555 1_555
C8_20 C9_20 1_555 1_555
C9_20 C10_20 1_555 1_555
O12_24 Zr4_20 1_555 1_555
C14_36 C15_36 1_555 1_555
C15_36 C16_36 1_555 1_555
O20_44 Zr7_16 1_555 1_555
Zr10_8 O23_28 1_555 1_555
C6_60 H7_52 1_555 1_555
C6_60 H8_52 1_555 1_555
C6_60 H9_52 1_555 1_555
C7_27 H10_52 1_555 1_555
C7_27 H11_52 1_555 1_555
C7_27 H12_52 1_555 1_555
C3_65 O27_25 1_555 1_555
C4_41 O28_25 1_555 1_555
C6_65 C3_65 1_555 1_555
C7_41 C4_41 1_555 1_555
O9_41 C3_65 1_555 1_555
O10_41 C4_41 1_555 1_555
O11_21 C11_37 1_555 1_555
O23_8 Zr5_13 1_555 1_555
C11_37 O14_37 1_555 1_555
H4_61 O20_19 1_555 1_555
O14_37 Zr9_3 1_555 1_555
C12_37 C11_37 1_555 1_555
C13_37 C12_37 1_555 1_555
S2_37 C12_37 1_555 1_555
H5_37 C13_37 1_555 1_555
O15_21 Zr4_17 1_555 1_555
C14_37 O15_21 1_555 1_555
O16_29 C14_37 1_555 1_555
C15_37 S2_37 1_555 1_555
C16_37 C13_37 1_555 1_555
H6_37 C16_37 1_555 1_555
Zr5_13 O11_21 1_555 1_555
O17_29 Zr4_17 1_555 1_555
O18_29 Zr4_17 1_555 1_555
O19_33 Zr4_17 1_555 1_555
O22_21 Zr4_17 1_555 1_555
O9_41 Zr7_13 1_555 1_555
O10_41 Zr10_5 1_555 1_555
O20_19 Zr5_13 1_555 1_555
C14_37 C15_37 1_555 1_555
O16_29 Zr10_5 1_555 1_555
C15_37 C16_37 1_555 1_555
O19_33 Zr10_5 1_555 1_555
Zr7_13 O22_21 1_555 1_555
C6_65 H7_53 1_555 1_555
C6_65 H8_53 1_555 1_555
C6_65 H9_53 1_555 1_555
C7_41 H10_53 1_555 1_555
C7_41 H11_53 1_555 1_555
C7_41 H12_53 1_555 1_555
H4_62 O20_20 1_555 1_555
O20_20 Zr5_14 1_555 1_555
H4_63 O20_23 1_555 1_555
O20_23 Zr5_19 1_555 1_555
C3_66 O27_28 1_555 1_555
C4_42 O28_28 1_555 1_555
C6_66 C3_66 1_555 1_555
C7_42 C4_42 1_555 1_555
O9_42 C3_66 1_555 1_555
O10_42 C4_42 1_555 1_555
O11_22 C11_38 1_555 1_555
O23_7 Zr5_20 1_555 1_555
C11_38 O14_38 1_555 1_555
H4_64 O20_24 1_555 1_555
O14_38 Zr9_2 1_555 1_555
C12_38 C11_38 1_555 1_555
C13_38 C12_38 1_555 1_555
S2_38 C12_38 1_555 1_555
H5_38 C13_38 1_555 1_555
O15_22 Zr4_20 1_555 1_555
C14_38 O15_22 1_555 1_555
O16_30 C14_38 1_555 1_555
C15_38 S2_38 1_555 1_555
C16_38 C13_38 1_555 1_555
H6_38 C16_38 1_555 1_555
Zr5_20 O11_22 1_555 1_555
O17_30 Zr4_20 1_555 1_555
O18_30 Zr4_20 1_555 1_555
O19_34 Zr4_20 1_555 1_555
O22_22 Zr4_20 1_555 1_555
O9_42 Zr7_16 1_555 1_555
O10_42 Zr10_8 1_555 1_555
O20_24 Zr5_20 1_555 1_555
C14_38 C15_38 1_555 1_555
O16_30 Zr10_8 1_555 1_555
C15_38 C16_38 1_555 1_555
O19_34 Zr10_8 1_555 1_555
Zr7_16 O22_22 1_555 1_555
C6_66 H7_54 1_555 1_555
C6_66 H8_54 1_555 1_555
C6_66 H9_54 1_555 1_555
C7_42 H10_54 1_555 1_555
C7_42 H11_54 1_555 1_555
C7_42 H12_54 1_555 1_555
H4_65 O20_17 1_555 1_555
O20_17 Zr5_15 1_555 1_555
C3_67 O27_26 1_555 1_555
C4_43 O28_26 1_555 1_555
C6_67 C3_67 1_555 1_555
C7_43 C4_43 1_555 1_555
O9_43 C3_67 1_555 1_555
O10_43 C4_43 1_555 1_555
O11_23 C11_39 1_555 1_555
O23_6 Zr5_16 1_555 1_555
C11_39 O14_39 1_555 1_555
H4_66 O20_18 1_555 1_555
O14_39 Zr9_4 1_555 1_555
C12_39 C11_39 1_555 1_555
C13_39 C12_39 1_555 1_555
S2_39 C12_39 1_555 1_555
H5_39 C13_39 1_555 1_555
O15_23 Zr4_18 1_555 1_555
C14_39 O15_23 1_555 1_555
O16_31 C14_39 1_555 1_555
C15_39 S2_39 1_555 1_555
C16_39 C13_39 1_555 1_555
H6_39 C16_39 1_555 1_555
Zr5_16 O11_23 1_555 1_555
O17_31 Zr4_18 1_555 1_555
O18_31 Zr4_18 1_555 1_555
O19_35 Zr4_18 1_555 1_555
O22_23 Zr4_18 1_555 1_555
O9_43 Zr7_14 1_555 1_555
O10_43 Zr10_6 1_555 1_555
O20_18 Zr5_16 1_555 1_555
C14_39 C15_39 1_555 1_555
O16_31 Zr10_6 1_555 1_555
C15_39 C16_39 1_555 1_555
O19_35 Zr10_6 1_555 1_555
Zr7_14 O22_23 1_555 1_555
C6_67 H7_55 1_555 1_555
C6_67 H8_55 1_555 1_555
C6_67 H9_55 1_555 1_555
C7_43 H10_55 1_555 1_555
C7_43 H11_55 1_555 1_555
C7_43 H12_55 1_555 1_555
C3_68 O27_27 1_555 1_555
C4_44 O28_27 1_555 1_555
C6_68 C3_68 1_555 1_555
C7_44 C4_44 1_555 1_555
O9_44 C3_68 1_555 1_555
O10_44 C4_44 1_555 1_555
O11_24 C11_40 1_555 1_555
O23_5 Zr5_17 1_555 1_555
C11_40 O14_40 1_555 1_555
H4_67 O20_21 1_555 1_555
O14_40 Zr9 1_555 1_555
C12_40 C11_40 1_555 1_555
C13_40 C12_40 1_555 1_555
S2_40 C12_40 1_555 1_555
H5_40 C13_40 1_555 1_555
O15_24 Zr4_19 1_555 1_555
C14_40 O15_24 1_555 1_555
O16_32 C14_40 1_555 1_555
C15_40 S2_40 1_555 1_555
C16_40 C13_40 1_555 1_555
H6_40 C16_40 1_555 1_555
Zr5_17 O11_24 1_555 1_555
O17_32 Zr4_19 1_555 1_555
O18_32 Zr4_19 1_555 1_555
O19_36 Zr4_19 1_555 1_555
O22_24 Zr4_19 1_555 1_555
O9_44 Zr7_15 1_555 1_555
O10_44 Zr10_7 1_555 1_555
O20_21 Zr5_17 1_555 1_555
C14_40 C15_40 1_555 1_555
O16_32 Zr10_7 1_555 1_555
C15_40 C16_40 1_555 1_555
O19_36 Zr10_7 1_555 1_555
Zr7_15 O22_24 1_555 1_555
C6_68 H7_56 1_555 1_555
C6_68 H8_56 1_555 1_555
C6_68 H9_56 1_555 1_555
C7_44 H10_56 1_555 1_555
C7_44 H11_56 1_555 1_555
C7_44 H12_56 1_555 1_555
H4_68 O20_22 1_555 1_555
O20_22 Zr5_18 1_555 1_555
O20_15 Zr5_13 1_555 1_555
C6_37 H7_57 1_555 1_555
C6_37 H9_57 1_555 1_555
C7_10 H10_57 1_555 1_555
C7_10 H11_57 1_555 1_555
C7_10 H12_57 1_555 1_555
O17_33 Zr5_14 1_555 1_555
O18_33 Zr5_14 1_555 1_555
O20_16 Zr5_14 1_555 1_555
O23_10 Zr5_14 1_555 1_555
C6_38 H8_57 1_555 1_555
O20_9 Zr5_17 1_555 1_555
C6_39 H7_58 1_555 1_555
C6_39 H9_58 1_555 1_555
C7_9 H10_58 1_555 1_555
C7_9 H11_58 1_555 1_555
C7_9 H12_58 1_555 1_555
O17_34 Zr5_18 1_555 1_555
O18_34 Zr5_18 1_555 1_555
O20_10 Zr5_18 1_555 1_555
O23_11 Zr5_18 1_555 1_555
C6_40 H8_58 1_555 1_555
O17_35 Zr5_19 1_555 1_555
O18_35 Zr5_19 1_555 1_555
O20_13 Zr5_19 1_555 1_555
O23_12 Zr5_19 1_555 1_555
C6_35 H8_59 1_555 1_555
O20_14 Zr5_20 1_555 1_555
C6_36 H7_59 1_555 1_555
C6_36 H9_59 1_555 1_555
C7_12 H10_59 1_555 1_555
C7_12 H11_59 1_555 1_555
C7_12 H12_59 1_555 1_555
O17_36 Zr5_15 1_555 1_555
O18_36 Zr5_15 1_555 1_555
O20_11 Zr5_15 1_555 1_555
O23_9 Zr5_15 1_555 1_555
C6_33 H8_60 1_555 1_555
O20_12 Zr5_16 1_555 1_555
C6_34 H7_60 1_555 1_555
C6_34 H9_60 1_555 1_555
C7_11 H10_60 1_555 1_555
C7_11 H11_60 1_555 1_555
C7_11 H12_60 1_555 1_555
O17_25 C1_21 1_555 1_555
C1_21 O4_21 1_555 1_555
H1_29 O21_18 1_555 1_555
O4_21 Zr6_6 1_555 1_555
C2_21 C1_21 1_555 1_555
C5_21 C2_21 1_555 1_555
S1_21 C2_21 1_555 1_555
H2_21 C5_21 1_555 1_555
O18_32 C8_21 1_555 1_555
C8_21 O8_13 1_555 1_555
O8_13 Zr7_15 1_555 1_555
C9_21 S1_21 1_555 1_555
C10_21 C5_21 1_555 1_555
H3_21 C10_21 1_555 1_555
O17_35 C11_41 1_555 1_555
C11_41 O14_41 1_555 1_555
H4_69 O20_13 1_555 1_555
O14_41 Zr7_7 1_555 1_555
C12_41 C11_41 1_555 1_555
C13_41 C12_41 1_555 1_555
S2_41 C12_41 1_555 1_555
H5_41 C13_41 1_555 1_555
C14_41 O18_25 1_555 1_555
O26_14 C14_41 1_555 1_555
C15_41 S2_41 1_555 1_555
C16_41 C13_41 1_555 1_555
H6_41 C16_41 1_555 1_555
C8_21 C9_21 1_555 1_555
C9_21 C10_21 1_555 1_555
C14_41 C15_41 1_555 1_555
C15_41 C16_41 1_555 1_555
C6_50 H7_61 1_555 1_555
C6_50 H8_61 1_555 1_555
C6_50 H9_61 1_555 1_555
C7_34 H10_61 1_555 1_555
C7_34 H11_61 1_555 1_555
C7_34 H12_61 1_555 1_555
H4_70 O20_14 1_555 1_555
H4_71 O20_9 1_555 1_555
O17_26 C1_22 1_555 1_555
C1_22 O4_22 1_555 1_555
H1_30 O21_17 1_555 1_555
O4_22 Zr6_5 1_555 1_555
C2_22 C1_22 1_555 1_555
C5_22 C2_22 1_555 1_555
S1_22 C2_22 1_555 1_555
H2_22 C5_22 1_555 1_555
O18_30 C8_22 1_555 1_555
C8_22 O8_14 1_555 1_555
O8_14 Zr7_16 1_555 1_555
C9_22 S1_22 1_555 1_555
C10_22 C5_22 1_555 1_555
H3_22 C10_22 1_555 1_555
O17_34 C11_42 1_555 1_555
C11_42 O14_42 1_555 1_555
H4_72 O20_10 1_555 1_555
O14_42 Zr7_5 1_555 1_555
C12_42 C11_42 1_555 1_555
C13_42 C12_42 1_555 1_555
S2_42 C12_42 1_555 1_555
H5_42 C13_42 1_555 1_555
C14_42 O18_26 1_555 1_555
O26_13 C14_42 1_555 1_555
C15_42 S2_42 1_555 1_555
C16_42 C13_42 1_555 1_555
H6_42 C16_42 1_555 1_555
C8_22 C9_22 1_555 1_555
C9_22 C10_22 1_555 1_555
C14_42 C15_42 1_555 1_555
C15_42 C16_42 1_555 1_555
C6_49 H7_62 1_555 1_555
C6_49 H8_62 1_555 1_555
C6_49 H9_62 1_555 1_555
C7_33 H10_62 1_555 1_555
C7_33 H11_62 1_555 1_555
C7_33 H12_62 1_555 1_555
H4_73 O20_15 1_555 1_555
O17_28 C1_23 1_555 1_555
C1_23 O4_23 1_555 1_555
H1_31 O21_19 1_555 1_555
O4_23 Zr6_7 1_555 1_555
C2_23 C1_23 1_555 1_555
C5_23 C2_23 1_555 1_555
S1_23 C2_23 1_555 1_555
H2_23 C5_23 1_555 1_555
O18_31 C8_23 1_555 1_555
C8_23 O8_15 1_555 1_555
O8_15 Zr7_14 1_555 1_555
C9_23 S1_23 1_555 1_555
C10_23 C5_23 1_555 1_555
H3_23 C10_23 1_555 1_555
O17_33 C11_43 1_555 1_555
C11_43 O14_43 1_555 1_555
H4_74 O20_16 1_555 1_555
O14_43 Zr7_8 1_555 1_555
C12_43 C11_43 1_555 1_555
C13_43 C12_43 1_555 1_555
S2_43 C12_43 1_555 1_555
H5_43 C13_43 1_555 1_555
C14_43 O18_28 1_555 1_555
O26_16 C14_43 1_555 1_555
C15_43 S2_43 1_555 1_555
C16_43 C13_43 1_555 1_555
H6_43 C16_43 1_555 1_555
C8_23 C9_23 1_555 1_555
C9_23 C10_23 1_555 1_555
C14_43 C15_43 1_555 1_555
C15_43 C16_43 1_555 1_555
C6_51 H7_63 1_555 1_555
C6_51 H8_63 1_555 1_555
C6_51 H9_63 1_555 1_555
C7_36 H10_63 1_555 1_555
C7_36 H11_63 1_555 1_555
C7_36 H12_63 1_555 1_555
O17_27 C1_24 1_555 1_555
C1_24 O4_24 1_555 1_555
H1_32 O21_20 1_555 1_555
O4_24 Zr6_8 1_555 1_555
C2_24 C1_24 1_555 1_555
C5_24 C2_24 1_555 1_555
S1_24 C2_24 1_555 1_555
H2_24 C5_24 1_555 1_555
O18_29 C8_24 1_555 1_555
C8_24 O8_16 1_555 1_555
O8_16 Zr7_13 1_555 1_555
C9_24 S1_24 1_555 1_555
C10_24 C5_24 1_555 1_555
H3_24 C10_24 1_555 1_555
O17_36 C11_44 1_555 1_555
C11_44 O14_44 1_555 1_555
H4_75 O20_11 1_555 1_555
O14_44 Zr7_6 1_555 1_555
C12_44 C11_44 1_555 1_555
C13_44 C12_44 1_555 1_555
S2_44 C12_44 1_555 1_555
H5_44 C13_44 1_555 1_555
C14_44 O18_27 1_555 1_555
O26_15 C14_44 1_555 1_555
C15_44 S2_44 1_555 1_555
C16_44 C13_44 1_555 1_555
H6_44 C16_44 1_555 1_555
C8_24 C9_24 1_555 1_555
C9_24 C10_24 1_555 1_555
C14_44 C15_44 1_555 1_555
C15_44 C16_44 1_555 1_555
C6_52 H7_64 1_555 1_555
C6_52 H8_64 1_555 1_555
C6_52 H9_64 1_555 1_555
C7_35 H10_64 1_555 1_555
C7_35 H11_64 1_555 1_555
C7_35 H12_64 1_555 1_555
H4_76 O20_12 1_555 1_555
O17_32 C11_45 1_555 1_555
O19_36 Zr3_29 1_555 1_555
Zr3_29 O22_24 1_555 1_555
C11_45 O14_45 1_555 1_555
H4_77 O19_36 1_555 1_555
O14_45 Zr3_29 1_555 1_555
C12_45 C11_45 1_555 1_555
C13_45 C12_45 1_555 1_555
S2_45 C12_45 1_555 1_555
H5_45 C13_45 1_555 1_555
C14_45 O18_35 1_555 1_555
O25_12 C14_45 1_555 1_555
C15_45 S2_45 1_555 1_555
C16_45 C13_45 1_555 1_555
H6_45 C16_45 1_555 1_555
O20_45 Zr3_29 1_555 1_555
O23_29 Zr3_29 1_555 1_555
O25_29 Zr3_29 1_555 1_555
O27_29 Zr3_29 1_555 1_555
O28_29 Zr3_29 1_555 1_555
C14_45 C15_45 1_555 1_555
C15_45 C16_45 1_555 1_555
O20_45 Zr10_7 1_555 1_555
Zr7_15 O23_29 1_555 1_555
C6_23 H7_65 1_555 1_555
C6_23 H9_65 1_555 1_555
C7_18 H10_65 1_555 1_555
C7_18 H11_65 1_555 1_555
C7_18 H12_65 1_555 1_555
C6_24 H8_65 1_555 1_555
O17_29 C11_46 1_555 1_555
O19_33 Zr3_30 1_555 1_555
Zr3_30 O22_21 1_555 1_555
C11_46 O14_46 1_555 1_555
H4_78 O19_33 1_555 1_555
O14_46 Zr3_30 1_555 1_555
C12_46 C11_46 1_555 1_555
C13_46 C12_46 1_555 1_555
S2_46 C12_46 1_555 1_555
H5_46 C13_46 1_555 1_555
C14_46 O18_36 1_555 1_555
O25_9 C14_46 1_555 1_555
C15_46 S2_46 1_555 1_555
C16_46 C13_46 1_555 1_555
H6_46 C16_46 1_555 1_555
O20_46 Zr3_30 1_555 1_555
O23_30 Zr3_30 1_555 1_555
O25_30 Zr3_30 1_555 1_555
O27_30 Zr3_30 1_555 1_555
O28_30 Zr3_30 1_555 1_555
C14_46 C15_46 1_555 1_555
C15_46 C16_46 1_555 1_555
O20_46 Zr10_5 1_555 1_555
Zr7_13 O23_30 1_555 1_555
C6_21 H7_66 1_555 1_555
C6_21 H9_66 1_555 1_555
C7_17 H10_66 1_555 1_555
C7_17 H11_66 1_555 1_555
C7_17 H12_66 1_555 1_555
C6_22 H8_66 1_555 1_555
C6_17 H8_67 1_555 1_555
O17_30 C11_47 1_555 1_555
O19_34 Zr3_31 1_555 1_555
Zr3_31 O22_22 1_555 1_555
C11_47 O14_47 1_555 1_555
H4_79 O19_34 1_555 1_555
O14_47 Zr3_31 1_555 1_555
C12_47 C11_47 1_555 1_555
C13_47 C12_47 1_555 1_555
S2_47 C12_47 1_555 1_555
H5_47 C13_47 1_555 1_555
C14_47 O18_34 1_555 1_555
O25_11 C14_47 1_555 1_555
C15_47 S2_47 1_555 1_555
C16_47 C13_47 1_555 1_555
H6_47 C16_47 1_555 1_555
O20_47 Zr3_31 1_555 1_555
O23_31 Zr3_31 1_555 1_555
O25_31 Zr3_31 1_555 1_555
O27_31 Zr3_31 1_555 1_555
O28_31 Zr3_31 1_555 1_555
C14_47 C15_47 1_555 1_555
C15_47 C16_47 1_555 1_555
O20_47 Zr10_8 1_555 1_555
Zr7_16 O23_31 1_555 1_555
C6_18 H7_67 1_555 1_555
C6_18 H9_67 1_555 1_555
C7_20 H10_67 1_555 1_555
C7_20 H11_67 1_555 1_555
C7_20 H12_67 1_555 1_555
C6_19 H8_68 1_555 1_555
O17_31 C11_48 1_555 1_555
O19_35 Zr3_32 1_555 1_555
Zr3_32 O22_23 1_555 1_555
C11_48 O14_48 1_555 1_555
H4_80 O19_35 1_555 1_555
O14_48 Zr3_32 1_555 1_555
C12_48 C11_48 1_555 1_555
C13_48 C12_48 1_555 1_555
S2_48 C12_48 1_555 1_555
H5_48 C13_48 1_555 1_555
C14_48 O18_33 1_555 1_555
O25_10 C14_48 1_555 1_555
C15_48 S2_48 1_555 1_555
C16_48 C13_48 1_555 1_555
H6_48 C16_48 1_555 1_555
O20_48 Zr3_32 1_555 1_555
O23_32 Zr3_32 1_555 1_555
O25_32 Zr3_32 1_555 1_555
O27_32 Zr3_32 1_555 1_555
O28_32 Zr3_32 1_555 1_555
C14_48 C15_48 1_555 1_555
C15_48 C16_48 1_555 1_555
O20_48 Zr10_6 1_555 1_555
Zr7_14 O23_32 1_555 1_555
C6_20 H7_68 1_555 1_555
C6_20 H9_68 1_555 1_555
C7_19 H10_68 1_555 1_555
C7_19 H11_68 1_555 1_555
C7_19 H12_68 1_555 1_555
C3_69 O27_29 1_555 1_555
C4_45 O28_29 1_555 1_555
C6_69 C3_69 1_555 1_555
C7_45 C4_45 1_555 1_555
O9_45 C3_69 1_555 1_555
O10_45 C4_45 1_555 1_555
O9_45 Zr10_7 1_555 1_555
O10_45 Zr7_15 1_555 1_555
C6_69 H7_69 1_555 1_555
C6_69 H8_69 1_555 1_555
C6_69 H9_69 1_555 1_555
C7_45 H10_69 1_555 1_555
C7_45 H11_69 1_555 1_555
C7_45 H12_69 1_555 1_555
C3_70 O27_32 1_555 1_555
C4_46 O28_32 1_555 1_555
C6_70 C3_70 1_555 1_555
C7_46 C4_46 1_555 1_555
O9_46 C3_70 1_555 1_555
O10_46 C4_46 1_555 1_555
O9_46 Zr10_6 1_555 1_555
O10_46 Zr7_14 1_555 1_555
C6_70 H7_70 1_555 1_555
C6_70 H8_70 1_555 1_555
C6_70 H9_70 1_555 1_555
C7_46 H10_70 1_555 1_555
C7_46 H11_70 1_555 1_555
C7_46 H12_70 1_555 1_555
C3_71 O27_30 1_555 1_555
C4_47 O28_30 1_555 1_555
C6_71 C3_71 1_555 1_555
C7_47 C4_47 1_555 1_555
O9_47 C3_71 1_555 1_555
O10_47 C4_47 1_555 1_555
O9_47 Zr10_5 1_555 1_555
O10_47 Zr7_13 1_555 1_555
C6_71 H7_71 1_555 1_555
C6_71 H8_71 1_555 1_555
C6_71 H9_71 1_555 1_555
C7_47 H10_71 1_555 1_555
C7_47 H11_71 1_555 1_555
C7_47 H12_71 1_555 1_555
C3_72 O27_31 1_555 1_555
C4_48 O28_31 1_555 1_555
C6_72 C3_72 1_555 1_555
C7_48 C4_48 1_555 1_555
O9_48 C3_72 1_555 1_555
O10_48 C4_48 1_555 1_555
O9_48 Zr10_8 1_555 1_555
O10_48 Zr7_16 1_555 1_555
C6_72 H7_72 1_555 1_555
C6_72 H8_72 1_555 1_555
C6_72 H9_72 1_555 1_555
C7_48 H10_72 1_555 1_555
C7_48 H11_72 1_555 1_555
C7_48 H12_72 1_555 1_555
Zr1_17 O1_13 1_555 1_555
O1_13 C1_25 1_555 1_555
O21_11 Zr1_17 1_555 1_555
O24_2 Zr1_17 1_555 1_555
C1_25 O4_25 1_555 1_555
H1_33 O21_11 1_555 1_555
O4_25 Zr8_2 1_555 1_555
C2_25 C1_25 1_555 1_555
C5_25 C2_25 1_555 1_555
S1_25 C2_25 1_555 1_555
H2_25 C5_25 1_555 1_555
O7_13 C8_25 1_555 1_555
C8_25 O25_20 1_555 1_555
C9_25 S1_25 1_555 1_555
C10_25 C5_25 1_555 1_555
H3_25 C10_25 1_555 1_555
O11_25 C11_49 1_555 1_555
O23_28 Zr4_21 1_555 1_555
C11_49 O14_49 1_555 1_555
H4_81 O20_47 1_555 1_555
O14_49 Zr10_8 1_555 1_555
C12_49 C11_49 1_555 1_555
C13_49 C12_49 1_555 1_555
S2_49 C12_49 1_555 1_555
H5_49 C13_49 1_555 1_555
O15_25 Zr1_17 1_555 1_555
C14_49 O15_25 1_555 1_555
O26_2 C14_49 1_555 1_555
C15_49 S2_49 1_555 1_555
C16_49 C13_49 1_555 1_555
H6_49 C16_49 1_555 1_555
Zr4_21 O11_25 1_555 1_555
Zr5_21 O7_13 1_555 1_555
O21_3 Zr1_17 1_555 1_555
C8_25 C9_25 1_555 1_555
C9_25 C10_25 1_555 1_555
O20_47 Zr4_21 1_555 1_555
C14_49 C15_49 1_555 1_555
C15_49 C16_49 1_555 1_555
C6_27 H7_73 1_555 1_555
C6_27 H9_73 1_555 1_555
C7_2 H10_73 1_555 1_555
C7_2 H11_73 1_555 1_555
C7_2 H12_73 1_555 1_555
O21_12 Zr1_18 1_555 1_555
H1_34 O21_12 1_555 1_555
O17_37 Zr1_18 1_555 1_555
O18_37 Zr1_18 1_555 1_555
O21_4 Zr1_18 1_555 1_555
O24_6 Zr1_18 1_555 1_555
C6_28 H8_73 1_555 1_555
Zr1_19 O1_14 1_555 1_555
O1_14 C1_26 1_555 1_555
O21_9 Zr1_19 1_555 1_555
O24 Zr1_19 1_555 1_555
C1_26 O4_26 1_555 1_555
H1_35 O21_9 1_555 1_555
O4_26 Zr8 1_555 1_555
C2_26 C1_26 1_555 1_555
C5_26 C2_26 1_555 1_555
S1_26 C2_26 1_555 1_555
H2_26 C5_26 1_555 1_555
O7_14 C8_26 1_555 1_555
C8_26 O25_18 1_555 1_555
C9_26 S1_26 1_555 1_555
C10_26 C5_26 1_555 1_555
H3_26 C10_26 1_555 1_555
O11_26 C11_50 1_555 1_555
O23_27 Zr4_22 1_555 1_555
C11_50 O14_50 1_555 1_555
H4_82 O20_45 1_555 1_555
O14_50 Zr10_7 1_555 1_555
C12_50 C11_50 1_555 1_555
C13_50 C12_50 1_555 1_555
S2_50 C12_50 1_555 1_555
H5_50 C13_50 1_555 1_555
O15_26 Zr1_19 1_555 1_555
C14_50 O15_26 1_555 1_555
O26 C14_50 1_555 1_555
C15_50 S2_50 1_555 1_555
C16_50 C13_50 1_555 1_555
H6_50 C16_50 1_555 1_555
Zr4_22 O11_26 1_555 1_555
Zr5_22 O7_14 1_555 1_555
O21 Zr1_19 1_555 1_555
C8_26 C9_26 1_555 1_555
C9_26 C10_26 1_555 1_555
O20_45 Zr4_22 1_555 1_555
C14_50 C15_50 1_555 1_555
C15_50 C16_50 1_555 1_555
C6_25 H7_74 1_555 1_555
C6_25 H9_74 1_555 1_555
C7 H10_74 1_555 1_555
C7 H11_74 1_555 1_555
C7 H12_74 1_555 1_555
O21_10 Zr1_20 1_555 1_555
H1_36 O21_10 1_555 1_555
O17_38 Zr1_20 1_555 1_555
O18_38 Zr1_20 1_555 1_555
O21_2 Zr1_20 1_555 1_555
O24_5 Zr1_20 1_555 1_555
C6_26 H8_74 1_555 1_555
O21_13 Zr1_21 1_555 1_555
H1_37 O21_13 1_555 1_555
O17_39 Zr1_21 1_555 1_555
O18_39 Zr1_21 1_555 1_555
O21_7 Zr1_21 1_555 1_555
O24_7 Zr1_21 1_555 1_555
C6_29 H8_75 1_555 1_555
Zr1_22 O1_15 1_555 1_555
O1_15 C1_27 1_555 1_555
O21_14 Zr1_22 1_555 1_555
O24_4 Zr1_22 1_555 1_555
C1_27 O4_27 1_555 1_555
H1_38 O21_14 1_555 1_555
O4_27 Zr8_4 1_555 1_555
C2_27 C1_27 1_555 1_555
C5_27 C2_27 1_555 1_555
S1_27 C2_27 1_555 1_555
H2_27 C5_27 1_555 1_555
O7_15 C8_27 1_555 1_555
C8_27 O25_17 1_555 1_555
C9_27 S1_27 1_555 1_555
C10_27 C5_27 1_555 1_555
H3_27 C10_27 1_555 1_555
O11_27 C11_51 1_555 1_555
O23_26 Zr4_23 1_555 1_555
C11_51 O14_51 1_555 1_555
H4_83 O20_48 1_555 1_555
O14_51 Zr10_6 1_555 1_555
C12_51 C11_51 1_555 1_555
C13_51 C12_51 1_555 1_555
S2_51 C12_51 1_555 1_555
H5_51 C13_51 1_555 1_555
O15_27 Zr1_22 1_555 1_555
C14_51 O15_27 1_555 1_555
O26_4 C14_51 1_555 1_555
C15_51 S2_51 1_555 1_555
C16_51 C13_51 1_555 1_555
H6_51 C16_51 1_555 1_555
Zr4_23 O11_27 1_555 1_555
Zr5_23 O7_15 1_555 1_555
O21_8 Zr1_22 1_555 1_555
C8_27 C9_27 1_555 1_555
C9_27 C10_27 1_555 1_555
O20_48 Zr4_23 1_555 1_555
C14_51 C15_51 1_555 1_555
C15_51 C16_51 1_555 1_555
C6_30 H7_75 1_555 1_555
C6_30 H9_75 1_555 1_555
C7_4 H10_75 1_555 1_555
C7_4 H11_75 1_555 1_555
C7_4 H12_75 1_555 1_555
O21_15 Zr1_23 1_555 1_555
H1_39 O21_15 1_555 1_555
O17_40 Zr1_23 1_555 1_555
O18_40 Zr1_23 1_555 1_555
O21_5 Zr1_23 1_555 1_555
O24_8 Zr1_23 1_555 1_555
C6_31 H8_76 1_555 1_555
Zr1_24 O1_16 1_555 1_555
O1_16 C1_28 1_555 1_555
O21_16 Zr1_24 1_555 1_555
O24_3 Zr1_24 1_555 1_555
C1_28 O4_28 1_555 1_555
H1_40 O21_16 1_555 1_555
O4_28 Zr8_3 1_555 1_555
C2_28 C1_28 1_555 1_555
C5_28 C2_28 1_555 1_555
S1_28 C2_28 1_555 1_555
H2_28 C5_28 1_555 1_555
O7_16 C8_28 1_555 1_555
C8_28 O25_19 1_555 1_555
C9_28 S1_28 1_555 1_555
C10_28 C5_28 1_555 1_555
H3_28 C10_28 1_555 1_555
O11_28 C11_52 1_555 1_555
O23_25 Zr4_24 1_555 1_555
C11_52 O14_52 1_555 1_555
H4_84 O20_46 1_555 1_555
O14_52 Zr10_5 1_555 1_555
C12_52 C11_52 1_555 1_555
C13_52 C12_52 1_555 1_555
S2_52 C12_52 1_555 1_555
H5_52 C13_52 1_555 1_555
O15_28 Zr1_24 1_555 1_555
C14_52 O15_28 1_555 1_555
O26_3 C14_52 1_555 1_555
C15_52 S2_52 1_555 1_555
C16_52 C13_52 1_555 1_555
H6_52 C16_52 1_555 1_555
Zr4_24 O11_28 1_555 1_555
Zr5_24 O7_16 1_555 1_555
O21_6 Zr1_24 1_555 1_555
C8_28 C9_28 1_555 1_555
C9_28 C10_28 1_555 1_555
O20_46 Zr4_24 1_555 1_555
C14_52 C15_52 1_555 1_555
C15_52 C16_52 1_555 1_555
C6_32 H7_76 1_555 1_555
C6_32 H9_76 1_555 1_555
C7_3 H10_76 1_555 1_555
C7_3 H11_76 1_555 1_555
C7_3 H12_76 1_555 1_555
O11_29 C11_53 1_555 1_555
O23_20 Zr5_21 1_555 1_555
C11_53 O14_53 1_555 1_555
H4_85 O20_38 1_555 1_555
O14_53 Zr9_7 1_555 1_555
C12_53 C11_53 1_555 1_555
C13_53 C12_53 1_555 1_555
S2_53 C12_53 1_555 1_555
H5_53 C13_53 1_555 1_555
O15_29 Zr4_21 1_555 1_555
C14_53 O15_29 1_555 1_555
O25_28 C14_53 1_555 1_555
C15_53 S2_53 1_555 1_555
C16_53 C13_53 1_555 1_555
H6_53 C16_53 1_555 1_555
Zr5_21 O11_29 1_555 1_555
O17_41 Zr4_21 1_555 1_555
O18_41 Zr4_21 1_555 1_555
O20_44 Zr4_21 1_555 1_555
O23_31 Zr4_21 1_555 1_555
O20_38 Zr5_21 1_555 1_555
C14_53 C15_53 1_555 1_555
C15_53 C16_53 1_555 1_555
C6_72 H7_77 1_555 1_555
C6_72 H8_77 1_555 1_555
C6_72 H9_77 1_555 1_555
C7_42 H10_77 1_555 1_555
C7_42 H11_77 1_555 1_555
C7_42 H12_77 1_555 1_555
O11_30 C11_54 1_555 1_555
O23_19 Zr5_24 1_555 1_555
C11_54 O14_54 1_555 1_555
H4_86 O20_40 1_555 1_555
O14_54 Zr9_6 1_555 1_555
C12_54 C11_54 1_555 1_555
C13_54 C12_54 1_555 1_555
S2_54 C12_54 1_555 1_555
H5_54 C13_54 1_555 1_555
O15_30 Zr4_24 1_555 1_555
C14_54 O15_30 1_555 1_555
O25_25 C14_54 1_555 1_555
C15_54 S2_54 1_555 1_555
C16_54 C13_54 1_555 1_555
H6_54 C16_54 1_555 1_555
Zr5_24 O11_30 1_555 1_555
O17_42 Zr4_24 1_555 1_555
O18_42 Zr4_24 1_555 1_555
O20_41 Zr4_24 1_555 1_555
O23_30 Zr4_24 1_555 1_555
O20_40 Zr5_24 1_555 1_555
C14_54 C15_54 1_555 1_555
C15_54 C16_54 1_555 1_555
C6_71 H7_78 1_555 1_555
C6_71 H8_78 1_555 1_555
C6_71 H9_78 1_555 1_555
C7_41 H10_78 1_555 1_555
C7_41 H11_78 1_555 1_555
C7_41 H12_78 1_555 1_555
O11_31 C11_55 1_555 1_555
O23_18 Zr5_22 1_555 1_555
C11_55 O14_55 1_555 1_555
H4_87 O20_37 1_555 1_555
O14_55 Zr9_8 1_555 1_555
C12_55 C11_55 1_555 1_555
C13_55 C12_55 1_555 1_555
S2_55 C12_55 1_555 1_555
H5_55 C13_55 1_555 1_555
O15_31 Zr4_22 1_555 1_555
C14_55 O15_31 1_555 1_555
O25_27 C14_55 1_555 1_555
C15_55 S2_55 1_555 1_555
C16_55 C13_55 1_555 1_555
H6_55 C16_55 1_555 1_555
Zr5_22 O11_31 1_555 1_555
O17_43 Zr4_22 1_555 1_555
O18_43 Zr4_22 1_555 1_555
O20_43 Zr4_22 1_555 1_555
O23_29 Zr4_22 1_555 1_555
O20_37 Zr5_22 1_555 1_555
C14_55 C15_55 1_555 1_555
C15_55 C16_55 1_555 1_555
C6_69 H7_79 1_555 1_555
C6_69 H8_79 1_555 1_555
C6_69 H9_79 1_555 1_555
C7_44 H10_79 1_555 1_555
C7_44 H11_79 1_555 1_555
C7_44 H12_79 1_555 1_555
O11_32 C11_56 1_555 1_555
O23_17 Zr5_23 1_555 1_555
C11_56 O14_56 1_555 1_555
H4_88 O20_39 1_555 1_555
O14_56 Zr9_5 1_555 1_555
C12_56 C11_56 1_555 1_555
C13_56 C12_56 1_555 1_555
S2_56 C12_56 1_555 1_555
H5_56 C13_56 1_555 1_555
O15_32 Zr4_23 1_555 1_555
C14_56 O15_32 1_555 1_555
O25_26 C14_56 1_555 1_555
C15_56 S2_56 1_555 1_555
C16_56 C13_56 1_555 1_555
H6_56 C16_56 1_555 1_555
Zr5_23 O11_32 1_555 1_555
O17_44 Zr4_23 1_555 1_555
O18_44 Zr4_23 1_555 1_555
O20_42 Zr4_23 1_555 1_555
O23_32 Zr4_23 1_555 1_555
O20_39 Zr5_23 1_555 1_555
C14_56 C15_56 1_555 1_555
C15_56 C16_56 1_555 1_555
C6_70 H7_80 1_555 1_555
C6_70 H8_80 1_555 1_555
C6_70 H9_80 1_555 1_555
C7_43 H10_80 1_555 1_555
C7_43 H11_80 1_555 1_555
C7_43 H12_80 1_555 1_555
O17_45 Zr5_21 1_555 1_555
O18_45 Zr5_21 1_555 1_555
O20_36 Zr5_21 1_555 1_555
O23_22 Zr5_21 1_555 1_555
C6_63 H7_81 1_555 1_555
C6_63 H8_81 1_555 1_555
C6_63 H9_81 1_555 1_555
C7_30 H10_81 1_555 1_555
C7_30 H11_81 1_555 1_555
C7_30 H12_81 1_555 1_555
O17_46 Zr5_23 1_555 1_555
O18_46 Zr5_23 1_555 1_555
O20_33 Zr5_23 1_555 1_555
O23_23 Zr5_23 1_555 1_555
C6_64 H7_82 1_555 1_555
C6_64 H8_82 1_555 1_555
C6_64 H9_82 1_555 1_555
C7_29 H10_82 1_555 1_555
C7_29 H11_82 1_555 1_555
C7_29 H12_82 1_555 1_555
O17_47 Zr5_24 1_555 1_555
O18_47 Zr5_24 1_555 1_555
O20_35 Zr5_24 1_555 1_555
O23_24 Zr5_24 1_555 1_555
C6_62 H7_83 1_555 1_555
C6_62 H8_83 1_555 1_555
C6_62 H9_83 1_555 1_555
C7_32 H10_83 1_555 1_555
C7_32 H11_83 1_555 1_555
C7_32 H12_83 1_555 1_555
O17_48 Zr5_22 1_555 1_555
O18_48 Zr5_22 1_555 1_555
O20_34 Zr5_22 1_555 1_555
O23_21 Zr5_22 1_555 1_555
C6_61 H7_84 1_555 1_555
C6_61 H8_84 1_555 1_555
C6_61 H9_84 1_555 1_555
C7_31 H10_84 1_555 1_555
C7_31 H11_84 1_555 1_555
C7_31 H12_84 1_555 1_555
H1_41 O21_3 1_555 1_555
C6_3 H8_85 1_555 1_555
O17_37 C1_29 1_555 1_555
C1_29 O4_29 1_555 1_555
H1_42 O21_4 1_555 1_555
O4_29 Zr6_2 1_555 1_555
C2_29 C1_29 1_555 1_555
C5_29 C2_29 1_555 1_555
S1_29 C2_29 1_555 1_555
H2_29 C5_29 1_555 1_555
O18_44 C8_29 1_555 1_555
C8_29 O25_32 1_555 1_555
C9_29 S1_29 1_555 1_555
C10_29 C5_29 1_555 1_555
H3_29 C10_29 1_555 1_555
O17_47 C11_57 1_555 1_555
C11_57 O14_57 1_555 1_555
H4_89 O20_35 1_555 1_555
O14_57 Zr7_11 1_555 1_555
C12_57 C11_57 1_555 1_555
C13_57 C12_57 1_555 1_555
S2_57 C12_57 1_555 1_555
H5_57 C13_57 1_555 1_555
C14_57 O18_37 1_555 1_555
O26_6 C14_57 1_555 1_555
C15_57 S2_57 1_555 1_555
C16_57 C13_57 1_555 1_555
H6_57 C16_57 1_555 1_555
C8_29 C9_29 1_555 1_555
C9_29 C10_29 1_555 1_555
C14_57 C15_57 1_555 1_555
C15_57 C16_57 1_555 1_555
C6_4 H7_85 1_555 1_555
C6_4 H9_85 1_555 1_555
C7_14 H10_85 1_555 1_555
C7_14 H11_85 1_555 1_555
C7_14 H12_85 1_555 1_555
H1_43 O21 1_555 1_555
C6 H8_86 1_555 1_555
O17_38 C1_30 1_555 1_555
C1_30 O4_30 1_555 1_555
H1_44 O21_2 1_555 1_555
O4_30 Zr6 1_555 1_555
C2_30 C1_30 1_555 1_555
C5_30 C2_30 1_555 1_555
S1_30 C2_30 1_555 1_555
H2_30 C5_30 1_555 1_555
O18_42 C8_30 1_555 1_555
C8_30 O25_30 1_555 1_555
C9_30 S1_30 1_555 1_555
C10_30 C5_30 1_555 1_555
H3_30 C10_30 1_555 1_555
O17_46 C11_58 1_555 1_555
C11_58 O14_58 1_555 1_555
H4_90 O20_33 1_555 1_555
O14_58 Zr7_9 1_555 1_555
C12_58 C11_58 1_555 1_555
C13_58 C12_58 1_555 1_555
S2_58 C12_58 1_555 1_555
H5_58 C13_58 1_555 1_555
C14_58 O18_38 1_555 1_555
O26_5 C14_58 1_555 1_555
C15_58 S2_58 1_555 1_555
C16_58 C13_58 1_555 1_555
H6_58 C16_58 1_555 1_555
C8_30 C9_30 1_555 1_555
C9_30 C10_30 1_555 1_555
C14_58 C15_58 1_555 1_555
C15_58 C16_58 1_555 1_555
C6_2 H7_86 1_555 1_555
C6_2 H9_86 1_555 1_555
C7_13 H10_86 1_555 1_555
C7_13 H11_86 1_555 1_555
C7_13 H12_86 1_555 1_555
O17_40 C1_31 1_555 1_555
C1_31 O4_31 1_555 1_555
H1_45 O21_5 1_555 1_555
O4_31 Zr6_3 1_555 1_555
C2_31 C1_31 1_555 1_555
C5_31 C2_31 1_555 1_555
S1_31 C2_31 1_555 1_555
H2_31 C5_31 1_555 1_555
O18_43 C8_31 1_555 1_555
C8_31 O25_29 1_555 1_555
C9_31 S1_31 1_555 1_555
C10_31 C5_31 1_555 1_555
H3_31 C10_31 1_555 1_555
O17_45 C11_59 1_555 1_555
C11_59 O14_59 1_555 1_555
H4_91 O20_36 1_555 1_555
O14_59 Zr7_12 1_555 1_555
C12_59 C11_59 1_555 1_555
C13_59 C12_59 1_555 1_555
S2_59 C12_59 1_555 1_555
H5_59 C13_59 1_555 1_555
C14_59 O18_40 1_555 1_555
O26_8 C14_59 1_555 1_555
C15_59 S2_59 1_555 1_555
C16_59 C13_59 1_555 1_555
H6_59 C16_59 1_555 1_555
C8_31 C9_31 1_555 1_555
C9_31 C10_31 1_555 1_555
C14_59 C15_59 1_555 1_555
C15_59 C16_59 1_555 1_555
C6_5 H7_87 1_555 1_555
C6_5 H9_87 1_555 1_555
C7_16 H10_87 1_555 1_555
C7_16 H11_87 1_555 1_555
C7_16 H12_87 1_555 1_555
H1_46 O21_6 1_555 1_555
C6_6 H8_87 1_555 1_555
O17_39 C1_32 1_555 1_555
C1_32 O4_32 1_555 1_555
H1_47 O21_7 1_555 1_555
O4_32 Zr6_4 1_555 1_555
C2_32 C1_32 1_555 1_555
C5_32 C2_32 1_555 1_555
S1_32 C2_32 1_555 1_555
H2_32 C5_32 1_555 1_555
O18_41 C8_32 1_555 1_555
C8_32 O25_31 1_555 1_555
C9_32 S1_32 1_555 1_555
C10_32 C5_32 1_555 1_555
H3_32 C10_32 1_555 1_555
O17_48 C11_60 1_555 1_555
C11_60 O14_60 1_555 1_555
H4_92 O20_34 1_555 1_555
O14_60 Zr7_10 1_555 1_555
C12_60 C11_60 1_555 1_555
C13_60 C12_60 1_555 1_555
S2_60 C12_60 1_555 1_555
H5_60 C13_60 1_555 1_555
C14_60 O18_39 1_555 1_555
O26_7 C14_60 1_555 1_555
C15_60 S2_60 1_555 1_555
C16_60 C13_60 1_555 1_555
H6_60 C16_60 1_555 1_555
C8_32 C9_32 1_555 1_555
C9_32 C10_32 1_555 1_555
C14_60 C15_60 1_555 1_555
C15_60 C16_60 1_555 1_555
C6_7 H7_88 1_555 1_555
C6_7 H9_88 1_555 1_555
C7_15 H10_88 1_555 1_555
C7_15 H11_88 1_555 1_555
C7_15 H12_88 1_555 1_555
H1_48 O21_8 1_555 1_555
C6_8 H8_88 1_555 1_555
O17_44 C11_61 1_555 1_555
C11_61 O14_61 1_555 1_555
H4_93 O20_42 1_555 1_555
O14_61 Zr7_14 1_555 1_555
C12_61 C11_61 1_555 1_555
C13_61 C12_61 1_555 1_555
S2_61 C12_61 1_555 1_555
H5_61 C13_61 1_555 1_555
C14_61 O18_47 1_555 1_555
O25_24 C14_61 1_555 1_555
C15_61 S2_61 1_555 1_555
C16_61 C13_61 1_555 1_555
H6_61 C16_61 1_555 1_555
C14_61 C15_61 1_555 1_555
C15_61 C16_61 1_555 1_555
C6_56 H7_89 1_555 1_555
C6_56 H8_89 1_555 1_555
C6_56 H9_89 1_555 1_555
C7_38 H10_89 1_555 1_555
C7_38 H11_89 1_555 1_555
C7_38 H12_89 1_555 1_555
O17_41 C11_62 1_555 1_555
C11_62 O14_62 1_555 1_555
H4_94 O20_44 1_555 1_555
O14_62 Zr7_16 1_555 1_555
C12_62 C11_62 1_555 1_555
C13_62 C12_62 1_555 1_555
S2_62 C12_62 1_555 1_555
H5_62 C13_62 1_555 1_555
C14_62 O18_48 1_555 1_555
O25_21 C14_62 1_555 1_555
C15_62 S2_62 1_555 1_555
C16_62 C13_62 1_555 1_555
H6_62 C16_62 1_555 1_555
C14_62 C15_62 1_555 1_555
C15_62 C16_62 1_555 1_555
C6_55 H7_90 1_555 1_555
C6_55 H8_90 1_555 1_555
C6_55 H9_90 1_555 1_555
C7_37 H10_90 1_555 1_555
C7_37 H11_90 1_555 1_555
C7_37 H12_90 1_555 1_555
O17_42 C11_63 1_555 1_555
C11_63 O14_63 1_555 1_555
H4_95 O20_41 1_555 1_555
O14_63 Zr7_13 1_555 1_555
C12_63 C11_63 1_555 1_555
C13_63 C12_63 1_555 1_555
S2_63 C12_63 1_555 1_555
H5_63 C13_63 1_555 1_555
C14_63 O18_46 1_555 1_555
O25_23 C14_63 1_555 1_555
C15_63 S2_63 1_555 1_555
C16_63 C13_63 1_555 1_555
H6_63 C16_63 1_555 1_555
C14_63 C15_63 1_555 1_555
C15_63 C16_63 1_555 1_555
C6_53 H7_91 1_555 1_555
C6_53 H8_91 1_555 1_555
C6_53 H9_91 1_555 1_555
C7_40 H10_91 1_555 1_555
C7_40 H11_91 1_555 1_555
C7_40 H12_91 1_555 1_555
O17_43 C11_64 1_555 1_555
C11_64 O14_64 1_555 1_555
H4_96 O20_43 1_555 1_555
O14_64 Zr7_15 1_555 1_555
C12_64 C11_64 1_555 1_555
C13_64 C12_64 1_555 1_555
S2_64 C12_64 1_555 1_555
H5_64 C13_64 1_555 1_555
C14_64 O18_45 1_555 1_555
O25_22 C14_64 1_555 1_555
C15_64 S2_64 1_555 1_555
C16_64 C13_64 1_555 1_555
H6_64 C16_64 1_555 1_555
C14_64 C15_64 1_555 1_555
C15_64 C16_64 1_555 1_555
C6_54 H7_92 1_555 1_555
C6_54 H8_92 1_555 1_555
C6_54 H9_92 1_555 1_555
C7_39 H10_92 1_555 1_555
C7_39 H11_92 1_555 1_555
C7_39 H12_92 1_555 1_555
C6_67 H7_93 1_555 1_555
C6_67 H8_93 1_555 1_555
C6_67 H9_93 1_555 1_555
C7_46 H10_93 1_555 1_555
C7_46 H11_93 1_555 1_555
C7_46 H12_93 1_555 1_555
C6_68 H7_94 1_555 1_555
C6_68 H8_94 1_555 1_555
C6_68 H9_94 1_555 1_555
C7_45 H10_94 1_555 1_555
C7_45 H11_94 1_555 1_555
C7_45 H12_94 1_555 1_555
C6_66 H7_95 1_555 1_555
C6_66 H8_95 1_555 1_555
C6_66 H9_95 1_555 1_555
C7_48 H10_95 1_555 1_555
C7_48 H11_95 1_555 1_555
C7_48 H12_95 1_555 1_555
C6_65 H7_96 1_555 1_555
C6_65 H8_96 1_555 1_555
C6_65 H9_96 1_555 1_555
C7_47 H10_96 1_555 1_555
C7_47 H11_96 1_555 1_555
C7_47 H12_96 1_555 1_555

#END
