
###############################################################################
#
# This file contains modified crystal structure data generated from the
# MOF subset of the Cambridge Structural Database (CSD) v543 
# hosted by the Cambridge Crystallographic Data Centre (CCDC).
#
# This work is licensed under the Creative Commons
# Attribution-NonCommercial-ShareAlike 4.0 International License.
# To view a copy of this license, visit
# http://creativecommons.org/licenses/by-nc-sa/4.0/
# or send a letter to
# Creative Commons, PO Box 1866, Mountain View, CA 94042, USA.
#
# CIF created using the CSD Python API on 29 September 2022
# The structure has been converted into the P1 space group
# The structure has a 3D framework
# The original CSD entry ZODPUF is in the rhombohedral crystal system
# The framework has been calculated to contain at least 10.0% void space
# The void calculation uses a probe of radius 1.32A, grid spacing 0.4
#
###############################################################################

data_ZODPUF
_chemical_formula_moiety         '(C864 H576 O164 Zn54)n'
_symmetry_cell_setting           triclinic
_symmetry_space_group_name_H-M   'P 1'
_symmetry_Int_Tables_number      1
_space_group_name_Hall           'P 1'
loop_
_symmetry_equiv_pos_site_id
_symmetry_equiv_pos_as_xyz
1 x,y,z
_cell_length_a                   19.887(3)
_cell_length_b                   19.887(3)
_cell_length_c                   83.536(17)
_cell_angle_alpha                90
_cell_angle_beta                 90
_cell_angle_gamma                120
_cell_volume                     28611.6
loop_
_atom_site_label
_atom_site_type_symbol
_atom_site_fract_x
_atom_site_fract_y
_atom_site_fract_z
Zn7 Zn -0.0000 0.0000 0.937466(18)
O10 O 0.17800(21) 0.57303(14) 0.05984(3)
C52 C 0.17522(27) 0.63010(19) 0.05480(4)
C55 C 0.11047(27) 0.61563(19) 0.04377(4)
C60 C 0.04190(28) 0.66160(19) 0.02749(4)
H36 H 0.0350 0.7022 0.0240
C62 C 0.00529(27) 0.52744(19) 0.02729(4)
C64 C 0.0999(3) 0.6761(2) 0.03847(4)
H39 H 0.1318 0.7262 0.0423
C65 C 0.06147(28) 0.54137(19) 0.03808(4)
H40 H 0.0672 0.5004 0.0417
O13 O 0.22183(26) 0.70039(21) 0.05834(3)
Zn10 Zn 0.30961(2) 0.74698(3) 0.073107(4)
Zn11 Zn 0.25302(3) 0.56263(2) 0.073107(4)
Zn7_2 Zn -0.0000 1.0000 0.937466(18)
Zn7_3 Zn 1.0000 0.0000 0.937466(18)
Zn1 Zn 0.3333 0.6667 0.104133(18)
Zn2 Zn 0.43737(2) 0.69039(2) 0.073107(4)
O2 O 0.3333 0.6667 0.07981(4)
O3 O 0.42697(14) 0.60497(15) 0.05984(3)
O4 O 0.29961(21) 0.52144(15) 0.05834(3)
C5 C 0.36990(19) 0.54512(19) 0.05480(4)
C6 C 0.41272(18) 0.40662(18) 0.02154(4)
C7 C 0.42986(18) 0.36517(18) 0.00912(4)
C8 C 0.38437(19) 0.49484(19) 0.04377(4)
C11 C 0.49918(18) 0.36357(18) 0.00942(4)
H2 H 0.5317 0.3837 0.0183
C13 C 0.33840(19) 0.3803(2) 0.02749(4)
H4 H 0.2978 0.3328 0.0240
C15 C 0.47256(19) 0.47785(19) 0.02729(4)
H5 H 0.5229 0.4964 0.0236
C17 C 0.3239(2) 0.4238(2) 0.03847(4)
H7 H 0.2738 0.4056 0.0423
C18 C 0.45863(19) 0.5201(2) 0.03808(4)
H8 H 0.4996 0.5668 0.0417
C24 C 0.4829(3) 0.1733(3) 0.01529(7)
H14 H 0.4347 0.1249 0.0153
H15 H 0.4734 0.2148 0.0179
H16 H 0.5175 0.1713 0.0231
C29 C 0.59338(18) 0.00610(25) 0.02154(4)
C30 C 0.63483(18) 0.06469(25) 0.00912(4)
C34 C 0.63643(18) 0.13561(25) 0.00942(4)
H18 H 0.6163 0.1480 0.0183
H21 H 0.5036 0.0265 0.0236
C47 C 0.8267(3) 0.3096(4) 0.01529(7)
H30 H 0.8751 0.3098 0.0153
H31 H 0.7852 0.2586 0.0179
H32 H 0.8287 0.3462 0.0231
C53 C 0.99390(25) 0.58728(18) 0.02154(4)
C54 C 0.93531(25) 0.57014(18) 0.00912(4)
C58 C 0.86439(25) 0.50082(18) 0.00942(4)
H34 H 0.8520 0.4683 0.0183
H37 H 0.9735 0.4771 0.0236
C71 C 0.6904(4) 0.5171(3) 0.01529(7)
H46 H 0.6902 0.5653 0.0153
H47 H 0.7414 0.5266 0.0179
H48 H 0.6538 0.4825 0.0231
O14 O 0.2428(7) 0.5634(4) 0.10476(9)
O15 O 0.3205(8) 0.7572(7) 0.10476(9)
O16 O 0.4366(4) 0.6795(8) 0.10476(9)
O19 O 0.47856(15) 0.77817(26) 0.05834(3)
O21 O 0.1925(3) 0.4732(2) 0.08655(5)
O23 O 0.5268(2) 0.7194(4) 0.08655(5)
O1 O 0.1033(4) 0.0905(7) 0.93809(9)
C1 C 0.1740(4) 0.1336(6) 0.93362(8)
C2 C 0.47179(19) 0.30194(18) 0.98390(4)
H1 H 0.4874 0.2842 0.9752
C3 C 0.59600(18) 0.33300(18) 0.99738(4)
C4 C 0.59550(18) 0.26223(18) 0.99748(4)
C9 C 0.39886(18) 0.29677(19) 0.98364(4)
C10 C 0.52083(18) 0.33277(18) 0.99688(4)
C12 C 0.3667(2) 0.2578(2) 0.95471(4)
H3 H 0.4193 0.2848 0.9522
C14 C 0.3434(2) 0.2573(2) 0.97055(4)
C16 C 0.37980(19) 0.33013(19) 0.99612(4)
H6 H 0.3326 0.3292 0.9959
O5 O 0.1935(2) 0.1408(3) 0.91988(5)
C19 C 0.3130(3) 0.2189(2) 0.94273(5)
H9 H 0.3299 0.2208 0.9323
C20 C 0.2359(3) 0.1780(3) 0.94607(6)
C21 C 0.2655(3) 0.2151(4) 0.97398(6)
H10 H 0.2485 0.2130 0.9844
C22 C 0.2114(3) 0.1751(4) 0.96182(7)
H11 H 0.1588 0.1465 0.9643
C23 C 0.5202(2) 0.1874(2) 0.99847(5)
H12 H 0.5290 0.1449 0.9958
H13 H 0.4845 0.1879 0.9906
C25 C 0.69806(18) 0.16985(26) 0.98390(4)
H17 H 0.7158 0.2032 0.9752
C26 C 0.66700(18) 0.26300(25) 0.99738(4)
C27 C 0.73777(18) 0.33327(25) 0.99748(4)
C32 C 0.70323(19) 0.10209(26) 0.98364(4)
C33 C 0.66723(18) 0.18806(25) 0.99688(4)
C35 C 0.7422(2) 0.1089(3) 0.95471(4)
H19 H 0.7152 0.1345 0.9522
C37 C 0.7427(2) 0.0861(3) 0.97055(4)
C39 C 0.66987(19) 0.04967(27) 0.99612(4)
H22 H 0.6708 0.0034 0.9959
C42 C 0.7811(2) 0.0941(4) 0.94273(5)
H25 H 0.7792 0.1091 0.9323
C43 C 0.8220(3) 0.0579(4) 0.94607(6)
C44 C 0.7849(4) 0.0504(5) 0.97398(6)
H26 H 0.7870 0.0355 0.9844
C45 C 0.8249(4) 0.0363(5) 0.96182(7)
H27 H 0.8535 0.0123 0.9643
C46 C 0.8126(2) 0.3328(3) 0.99847(5)
H28 H 0.8551 0.3841 0.9958
H29 H 0.8121 0.2966 0.9906
O7 O 0.9095(7) 0.0128(8) 0.93809(9)
C48 C 0.8664(6) 0.0404(7) 0.93362(8)
O8 O 0.8592(3) 0.0527(4) 0.91988(5)
C49 C 0.83015(26) 0.52821(19) 0.98390(4)
H33 H 0.7968 0.5126 0.9752
C50 C 0.73700(25) 0.40400(18) 0.99738(4)
C51 C 0.66673(25) 0.40450(18) 0.99748(4)
C56 C 0.89791(26) 0.60114(18) 0.98364(4)
C57 C 0.81194(25) 0.47917(18) 0.99688(4)
C59 C 0.8911(3) 0.6333(2) 0.95471(4)
H35 H 0.8655 0.5807 0.9522
C61 C 0.9139(3) 0.6566(2) 0.97055(4)
C63 C 0.95033(27) 0.62020(19) 0.99612(4)
H38 H 0.9966 0.6674 0.9959
C66 C 0.9059(4) 0.6870(3) 0.94273(5)
H41 H 0.8909 0.6701 0.9323
C67 C 0.9421(4) 0.7641(3) 0.94607(6)
C68 C 0.9496(5) 0.7345(3) 0.97398(6)
H42 H 0.9645 0.7515 0.9844
C69 C 0.9637(5) 0.7886(3) 0.96182(7)
H43 H 0.9877 0.8412 0.9643
C70 C 0.6672(3) 0.4798(2) 0.99847(5)
H44 H 0.6159 0.4710 0.9958
H45 H 0.7034 0.5155 0.9906
O11 O 0.9872(8) 0.8967(4) 0.93809(9)
C72 C 0.9596(7) 0.8260(4) 0.93362(8)
O12 O 0.9473(4) 0.8065(2) 0.91988(5)
Zn7_4 Zn 1.0000 1.0000 0.937466(18)
Zn12 Zn 0.97628(2) 0.89596(2) 0.906440(4)
Zn13 Zn 0.91969(3) 0.02372(2) 0.906440(4)
Zn14 Zn 0.10404(2) 0.08031(3) 0.906440(4)
O6 O 0.39503(15) 0.82200(21) 0.05984(3)
C28 C 0.45488(19) 0.82478(27) 0.05480(4)
C31 C 0.50516(19) 0.88953(27) 0.04377(4)
C36 C 0.6197(2) 0.95810(28) 0.02749(4)
H20 H 0.6672 0.9650 0.0240
C38 C 0.52215(19) 0.99471(27) 0.02729(4)
C40 C 0.5762(2) 0.9001(3) 0.03847(4)
H23 H 0.5944 0.8682 0.0423
C41 C 0.4799(2) 0.93853(28) 0.03808(4)
H24 H 0.4332 0.9328 0.0417
O22 O 0.2806(4) 0.8075(3) 0.08655(5)
Zn1_2 Zn -0.0000 0.0000 0.437466(18)
Zn2_2 Zn 0.10404(2) 0.02372(2) 0.406440(4)
O2_2 O -0.0000 0.0000 0.41314(4)
H36_2 H 0.7017 0.0355 0.3573
H38_2 H 0.6633 0.0007 0.3292
C64_2 C 0.7666(3) 0.0094(2) 0.37180(4)
H39_2 H 0.7985 0.0595 0.3756
C66_2 C 0.5726(4) 0.0203(3) 0.27606(5)
H41_2 H 0.5576 0.0034 0.2656
C67_2 C 0.6088(4) 0.0974(3) 0.27940(6)
C68_2 C 0.6163(5) 0.0678(3) 0.30731(6)
H42_2 H 0.6312 0.0848 0.3177
C69_2 C 0.6304(5) 0.1219(3) 0.29515(7)
H43_2 H 0.6544 0.1745 0.2976
O11_2 O 0.6539(8) 0.2300(4) 0.27142(9)
C72_2 C 0.6263(7) 0.1593(4) 0.26695(8)
O12_2 O 0.6140(4) 0.1398(2) 0.25321(5)
O13_2 O 0.88850(26) 0.03372(21) 0.39167(3)
O16_2 O 0.1033(4) 0.0128(8) 0.43809(9)
Zn7_5 Zn 0.6666 0.3334 0.270800(18)
Zn10_2 Zn 0.97628(2) 0.08031(3) 0.406440(4)
Zn12_2 Zn 0.64294(2) 0.22930(2) 0.239774(4)
O19_2 O 0.14523(15) 0.11150(26) 0.39167(3)
O23_2 O 0.1935(2) 0.0527(4) 0.41988(5)
Zn1_3 Zn -0.0000 1.0000 0.437466(18)
O2_3 O -0.0000 1.0000 0.41314(4)
O3_2 O 0.09364(14) 0.93830(15) 0.39317(3)
C2_2 C 0.13846(19) 0.63527(18) 0.31723(4)
H1_2 H 0.1541 0.6175 0.3085
C3_2 C 0.26267(18) 0.66633(18) 0.33071(4)
C4_2 C 0.26217(18) 0.59556(18) 0.33081(4)
C5_2 C 0.03657(19) 0.87845(19) 0.38813(4)
C6_2 C 0.07939(18) 0.73995(18) 0.35487(4)
C7_2 C 0.09653(18) 0.69850(18) 0.34245(4)
C8_2 C 0.05104(19) 0.82817(19) 0.37710(4)
C9_2 C 0.06553(18) 0.63010(19) 0.31697(4)
C10_2 C 0.18750(18) 0.66610(18) 0.33021(4)
C11_2 C 0.16585(18) 0.69690(18) 0.34275(4)
H2_2 H 0.1984 0.7170 0.3516
C12_2 C 0.0334(2) 0.5911(2) 0.28804(4)
H3_2 H 0.0860 0.6181 0.2855
C13_2 C 0.00507(19) 0.7136(2) 0.36082(4)
C14_2 C 0.0101(2) 0.5906(2) 0.30388(4)
C15_2 C 0.13923(19) 0.81118(19) 0.36062(4)
H5_2 H 0.1896 0.8297 0.3569
C16_2 C 0.04647(19) 0.66346(19) 0.32945(4)
C18_2 C 0.12530(19) 0.8534(2) 0.37141(4)
H8_2 H 0.1663 0.9001 0.3750
C23_2 C 0.1869(2) 0.5207(2) 0.33180(5)
H12_2 H 0.1957 0.4782 0.3291
H13_2 H 0.1512 0.5212 0.3239
C24_2 C 0.1496(3) 0.5066(3) 0.34862(7)
H14_2 H 0.1014 0.4582 0.3486
H15_2 H 0.1401 0.5481 0.3512
H16_2 H 0.1842 0.5046 0.3564
O6_2 O 0.06170(15) 0.15533(21) 0.39317(3)
C25_2 C 0.36473(18) 0.50318(26) 0.31723(4)
H17_2 H 0.3825 0.5365 0.3085
C26_2 C 0.33367(18) 0.59633(25) 0.33071(4)
C27_2 C 0.40444(18) 0.66660(25) 0.33081(4)
C28_2 C 0.12155(19) 0.15811(27) 0.38813(4)
C29_2 C 0.26005(18) 0.33943(25) 0.35487(4)
C30_2 C 0.30150(18) 0.39802(25) 0.34245(4)
C31_2 C 0.17183(19) 0.22286(27) 0.37710(4)
C32_2 C 0.36990(19) 0.43542(26) 0.31697(4)
C33_2 C 0.33390(18) 0.52139(25) 0.33021(4)
C34_2 C 0.30310(18) 0.46894(25) 0.34275(4)
H18_2 H 0.2830 0.4813 0.3516
C35_2 C 0.4089(2) 0.4422(3) 0.28804(4)
H19_2 H 0.3819 0.4678 0.2855
C36_2 C 0.2864(2) 0.29143(28) 0.36082(4)
H20_2 H 0.3339 0.2983 0.3573
C37_2 C 0.4094(2) 0.4194(3) 0.30388(4)
C38_2 C 0.18882(19) 0.32804(27) 0.36062(4)
H21_2 H 0.1703 0.3598 0.3569
C39_2 C 0.33654(19) 0.38300(27) 0.32945(4)
H22_2 H 0.3375 0.3367 0.3292
C40_2 C 0.2429(2) 0.2334(3) 0.37180(4)
H23_2 H 0.2611 0.2015 0.3756
C41_2 C 0.1466(2) 0.27186(28) 0.37141(4)
H24_2 H 0.0999 0.2661 0.3750
C42_2 C 0.4478(2) 0.4274(4) 0.27606(5)
H25_2 H 0.4459 0.4424 0.2656
C43_2 C 0.4887(3) 0.3912(4) 0.27940(6)
C44_2 C 0.4516(4) 0.3837(5) 0.30731(6)
H26_2 H 0.4537 0.3688 0.3177
C45_2 C 0.4916(4) 0.3696(5) 0.29515(7)
H27_2 H 0.5202 0.3456 0.2976
C46_2 C 0.4793(2) 0.6661(3) 0.33180(5)
H28_2 H 0.5218 0.7174 0.3291
H29_2 H 0.4788 0.6299 0.3239
C47_2 C 0.4934(3) 0.6429(4) 0.34862(7)
H30_2 H 0.5418 0.6431 0.3486
H31_2 H 0.4519 0.5919 0.3512
H32_2 H 0.4954 0.6795 0.3564
O7_2 O 0.5762(7) 0.3461(8) 0.27142(9)
C48_2 C 0.5331(6) 0.3737(7) 0.26695(8)
O8_2 O 0.5259(3) 0.3860(4) 0.25321(5)
O10_2 O 0.84467(21) 0.90636(14) 0.39317(3)
C49_2 C 0.49682(26) 0.86154(19) 0.31723(4)
H33_2 H 0.4635 0.8459 0.3085
C50_2 C 0.40367(25) 0.73733(18) 0.33071(4)
C51_2 C 0.33340(25) 0.73783(18) 0.33081(4)
C52_2 C 0.84189(27) 0.96343(19) 0.38813(4)
C53_2 C 0.66057(25) 0.92061(18) 0.35487(4)
C54_2 C 0.60198(25) 0.90347(18) 0.34245(4)
C55_2 C 0.77714(27) 0.94896(19) 0.37710(4)
C56_2 C 0.56458(26) 0.93447(18) 0.31697(4)
C57_2 C 0.47861(25) 0.81250(18) 0.33021(4)
C58_2 C 0.53106(25) 0.83415(18) 0.34275(4)
H34_2 H 0.5187 0.8016 0.3516
C59_2 C 0.5578(3) 0.9666(2) 0.28804(4)
H35_2 H 0.5322 0.9140 0.2855
C60_2 C 0.70857(28) 0.99493(19) 0.36082(4)
C61_2 C 0.5806(3) 0.9899(2) 0.30388(4)
C62_2 C 0.67196(27) 0.86077(19) 0.36062(4)
H37_2 H 0.6402 0.8104 0.3569
C63_2 C 0.61700(27) 0.95353(19) 0.32945(4)
C65_2 C 0.72814(28) 0.87470(19) 0.37141(4)
H40_2 H 0.7339 0.8337 0.3750
C70_2 C 0.3339(3) 0.8131(2) 0.33180(5)
H44_2 H 0.2826 0.8043 0.3291
H45_2 H 0.3701 0.8488 0.3239
C71_2 C 0.3571(4) 0.8504(3) 0.34862(7)
H46_2 H 0.3569 0.8986 0.3486
H47_2 H 0.4081 0.8599 0.3512
H48_2 H 0.3205 0.8158 0.3564
Zn11_2 Zn 0.91969(3) 0.89596(2) 0.406440(4)
Zn13_2 Zn 0.58635(3) 0.35706(2) 0.239774(4)
Zn1_4 Zn 1.0000 0.0000 0.437466(18)
O2_4 O 1.0000 0.0000 0.41314(4)
O15_2 O 0.9872(8) 0.0905(7) 0.43809(9)
O1_2 O 0.7700(4) 0.4238(7) 0.27142(9)
C1_2 C 0.8407(4) 0.4669(6) 0.26695(8)
Zn1_5 Zn 1.0000 1.0000 0.437466(18)
O2_5 O 1.0000 1.0000 0.41314(4)
O4_2 O 0.96628(21) 0.85477(15) 0.39167(3)
H4_2 H 0.9645 0.6661 0.3573
H6_2 H 0.9993 0.6625 0.3292
C17_2 C 0.9906(2) 0.7571(2) 0.37180(4)
H7_2 H 0.9405 0.7389 0.3756
O5_2 O 0.8602(2) 0.4741(3) 0.25321(5)
C19_2 C 0.9797(3) 0.5522(2) 0.27606(5)
H9_2 H 0.9966 0.5541 0.2656
C20_2 C 0.9026(3) 0.5113(3) 0.27940(6)
C21_2 C 0.9322(3) 0.5484(4) 0.30731(6)
H10_2 H 0.9152 0.5463 0.3177
C22_2 C 0.8781(3) 0.5084(4) 0.29515(7)
H11_2 H 0.8255 0.4798 0.2976
O14_2 O 0.9095(7) 0.8967(4) 0.43809(9)
Zn14_2 Zn 0.77070(2) 0.41365(3) 0.239774(4)
O21_2 O 0.8592(3) 0.8065(2) 0.41988(5)
O22_2 O 0.9473(4) 0.1408(3) 0.41988(5)
H28_3 H 0.1884 0.0508 0.6625
H32_3 H 0.1620 0.0129 0.6898
O10_3 O 0.51133(21) 0.23970(14) 0.72651(3)
C49_3 C 0.16348(26) 0.19488(19) 0.65057(4)
H33_3 H 0.1301 0.1793 0.6419
C50_3 C 0.07033(25) 0.07067(18) 0.66405(4)
C51_3 C 0.00006(25) 0.07117(18) 0.66415(4)
C52_3 C 0.50855(27) 0.29677(19) 0.72147(4)
C53_3 C 0.32723(25) 0.25395(18) 0.68821(4)
C54_3 C 0.26864(25) 0.23681(18) 0.67579(4)
C55_3 C 0.44380(27) 0.28230(19) 0.71044(4)
C56_3 C 0.23124(26) 0.26781(18) 0.65031(4)
C57_3 C 0.14527(25) 0.14584(18) 0.66355(4)
C58_3 C 0.19772(25) 0.16749(18) 0.67609(4)
H34_3 H 0.1853 0.1350 0.6850
C59_3 C 0.2244(3) 0.3000(2) 0.62138(4)
H35_3 H 0.1988 0.2474 0.6189
C60_3 C 0.37523(28) 0.32827(19) 0.69416(4)
H36_3 H 0.3683 0.3689 0.6907
C61_3 C 0.2472(3) 0.3233(2) 0.63722(4)
C62_3 C 0.33862(27) 0.19411(19) 0.69396(4)
H37_3 H 0.3068 0.1438 0.6903
C63_3 C 0.28366(27) 0.28687(19) 0.66279(4)
H38_3 H 0.3299 0.3341 0.6626
C64_3 C 0.4332(3) 0.3428(2) 0.70514(4)
H39_3 H 0.4651 0.3929 0.7090
C65_3 C 0.39480(28) 0.20804(19) 0.70475(4)
H40_3 H 0.4005 0.1671 0.7084
C66_3 C 0.2392(4) 0.3537(3) 0.60940(5)
H41_3 H 0.2242 0.3368 0.5990
C67_3 C 0.2754(4) 0.4308(3) 0.61274(6)
C68_3 C 0.2829(5) 0.4012(3) 0.64065(6)
H42_3 H 0.2978 0.4182 0.6511
C69_3 C 0.2970(5) 0.4553(3) 0.62849(7)
H43_3 H 0.3210 0.5079 0.6310
C70_3 C 0.0005(3) 0.1465(2) 0.66514(5)
H45_3 H 0.0367 0.1822 0.6573
C71_3 C 0.0237(4) 0.1838(3) 0.68196(7)
H46_3 H 0.0235 0.2320 0.6820
H47_3 H 0.0747 0.1933 0.6846
O11_3 O 0.3205(8) 0.5634(4) 0.60476(9)
C72_3 C 0.2929(7) 0.4927(4) 0.60029(8)
O12_3 O 0.2806(4) 0.4732(2) 0.58655(5)
O13_3 O 0.55516(26) 0.36706(21) 0.72501(3)
Zn7_6 Zn 0.3333 0.6667 0.604133(18)
Zn10_3 Zn 0.64294(2) 0.41365(3) 0.739774(4)
Zn11_3 Zn 0.58635(3) 0.22930(2) 0.739774(4)
Zn12_3 Zn 0.30961(2) 0.56263(2) 0.573107(4)
C25_3 C 0.03139(18) 0.83652(26) 0.65057(4)
H17_3 H 0.0491 0.8699 0.6419
C26_3 C 0.00033(18) 0.92967(25) 0.66405(4)
C27_3 C 0.07110(18) 0.99994(25) 0.66415(4)
C32_3 C 0.03656(19) 0.76876(26) 0.65031(4)
C33_3 C 0.00056(18) 0.85473(25) 0.66355(4)
C35_3 C 0.0755(2) 0.7756(3) 0.62138(4)
H19_3 H 0.0485 0.8012 0.6189
H20_3 H 0.0005 0.6317 0.6907
C37_3 C 0.0760(2) 0.7528(3) 0.63722(4)
C39_3 C 0.00320(19) 0.71634(27) 0.66279(4)
H22_3 H 0.0041 0.6701 0.6626
C42_3 C 0.1144(2) 0.7608(4) 0.60940(5)
H25_3 H 0.1125 0.7758 0.5990
C43_3 C 0.1553(3) 0.7246(4) 0.61274(6)
C44_3 C 0.1182(4) 0.7171(5) 0.64065(6)
H26_3 H 0.1203 0.7022 0.6511
C45_3 C 0.1582(4) 0.7030(5) 0.62849(7)
H27_3 H 0.1868 0.6790 0.6310
C46_3 C 0.1459(2) 0.9995(3) 0.66514(5)
H29_3 H 0.1454 0.9633 0.6573
C47_3 C 0.1600(3) 0.9763(4) 0.68196(7)
H30_3 H 0.2084 0.9765 0.6820
H31_3 H 0.1185 0.9253 0.6846
O7_3 O 0.2428(7) 0.6795(8) 0.60476(9)
C48_3 C 0.1997(6) 0.7071(7) 0.60029(8)
O8_3 O 0.1925(3) 0.7194(4) 0.58655(5)
Zn13_3 Zn 0.25302(3) 0.69039(2) 0.573107(4)
Zn1_6 Zn 0.6666 0.3334 0.770800(18)
Zn2_3 Zn 0.77070(2) 0.35706(2) 0.739774(4)
O2_6 O 0.6666 0.3334 0.74648(4)
O3_3 O 0.76030(14) 0.27164(15) 0.72651(3)
O4_3 O 0.63294(21) 0.18811(15) 0.72501(3)
C5_3 C 0.70323(19) 0.21179(19) 0.72147(4)
C6_3 C 0.74605(18) 0.07329(18) 0.68821(4)
C7_3 C 0.76319(18) 0.03184(18) 0.67579(4)
C8_3 C 0.71770(19) 0.16151(19) 0.71044(4)
C11_3 C 0.83251(18) 0.03024(18) 0.67609(4)
H2_3 H 0.8650 0.0504 0.6850
C13_3 C 0.67173(19) 0.0470(2) 0.69416(4)
C15_3 C 0.80589(19) 0.14452(19) 0.69396(4)
H5_3 H 0.8562 0.1631 0.6903
C17_3 C 0.6572(2) 0.0905(2) 0.70514(4)
H7_3 H 0.6071 0.0723 0.7090
C18_3 C 0.79196(19) 0.1868(2) 0.70475(4)
H8_3 H 0.8329 0.2335 0.7084
H44_3 H 0.9492 0.1377 0.6625
H48_3 H 0.9871 0.1492 0.6898
O14_3 O 0.5762(7) 0.2300(4) 0.77142(9)
O15_3 O 0.6539(8) 0.4238(7) 0.77142(9)
O16_3 O 0.7700(4) 0.3461(8) 0.77142(9)
O19_3 O 0.81189(15) 0.44484(26) 0.72501(3)
O21_3 O 0.5259(3) 0.1398(2) 0.75321(5)
O23_3 O 0.8602(2) 0.3860(4) 0.75321(5)
O1_3 O 0.4366(4) 0.7572(7) 0.60476(9)
C1_3 C 0.5073(4) 0.8003(6) 0.60029(8)
C2_3 C 0.80512(19) 0.96861(18) 0.65057(4)
H1_3 H 0.8207 0.9509 0.6419
C3_3 C 0.92933(18) 0.99967(18) 0.66405(4)
C4_3 C 0.92883(18) 0.92890(18) 0.66415(4)
C9_3 C 0.73219(18) 0.96344(19) 0.65031(4)
C10_3 C 0.85416(18) 0.99944(18) 0.66355(4)
C12_3 C 0.7000(2) 0.9245(2) 0.62138(4)
H3_3 H 0.7526 0.9515 0.6189
H4_3 H 0.6311 0.9995 0.6907
C14_3 C 0.6767(2) 0.9240(2) 0.63722(4)
C16_3 C 0.71313(19) 0.99680(19) 0.66279(4)
H6_3 H 0.6659 0.9959 0.6626
O5_3 O 0.5268(2) 0.8075(3) 0.58655(5)
C19_3 C 0.6463(3) 0.8856(2) 0.60940(5)
H9_3 H 0.6632 0.8875 0.5990
C20_3 C 0.5692(3) 0.8447(3) 0.61274(6)
C21_3 C 0.5988(3) 0.8818(4) 0.64065(6)
H10_3 H 0.5818 0.8797 0.6511
C22_3 C 0.5447(3) 0.8418(4) 0.62849(7)
H11_3 H 0.4921 0.8132 0.6310
C23_3 C 0.8535(2) 0.8541(2) 0.66514(5)
H12_3 H 0.8623 0.8116 0.6625
H13_3 H 0.8178 0.8546 0.6573
C24_3 C 0.8162(3) 0.8400(3) 0.68196(7)
H14_3 H 0.7680 0.7916 0.6820
H15_3 H 0.8067 0.8815 0.6846
H16_3 H 0.8508 0.8380 0.6898
O6_3 O 0.72836(15) 0.48867(21) 0.72651(3)
C28_3 C 0.78821(19) 0.49145(27) 0.72147(4)
C29_3 C 0.92671(18) 0.67277(25) 0.68821(4)
C30_3 C 0.96816(18) 0.73136(25) 0.67579(4)
C31_3 C 0.83849(19) 0.55620(27) 0.71044(4)
C34_3 C 0.96976(18) 0.80228(25) 0.67609(4)
H18_3 H 0.9496 0.8147 0.6850
C36_3 C 0.9530(2) 0.62477(28) 0.69416(4)
C38_3 C 0.85548(19) 0.66138(27) 0.69396(4)
H21_3 H 0.8369 0.6932 0.6903
C40_3 C 0.9095(2) 0.5668(3) 0.70514(4)
H23_3 H 0.9277 0.5349 0.7090
C41_3 C 0.8132(2) 0.60520(28) 0.70475(4)
H24_3 H 0.7665 0.5995 0.7084
Zn14_3 Zn 0.43737(2) 0.74698(3) 0.573107(4)
O22_3 O 0.6140(4) 0.4741(3) 0.75321(5)
O6_4 O 0.17800(21) 0.60497(15) 0.55984(3)
C28_4 C 0.17522(27) 0.54512(19) 0.55480(4)
C31_4 C 0.11047(27) 0.49484(19) 0.54377(4)
C36_4 C 0.04190(28) 0.3803(2) 0.52749(4)
H20_4 H 0.0350 0.3328 0.5240
C38_4 C 0.00529(27) 0.47785(19) 0.52729(4)
C40_4 C 0.0999(3) 0.4238(2) 0.53847(4)
H23_4 H 0.1318 0.4056 0.5423
C41_4 C 0.06147(28) 0.5201(2) 0.53808(4)
H24_4 H 0.0672 0.5668 0.5417
O9 O 0.22183(26) 0.52144(15) 0.55834(3)
O17 O 0.3333 0.6667 0.57981(4)
O20 O 0.29961(21) 0.77817(26) 0.55834(3)
C1_4 C 0.8664(6) 0.8260(4) 0.43362(8)
O3_4 O 0.39503(15) 0.57303(14) 0.55984(3)
O4_4 O 0.47856(15) 0.70039(21) 0.55834(3)
C2_4 C 0.69806(18) 0.52821(19) 0.48390(4)
H1_4 H 0.7158 0.5126 0.4752
C3_4 C 0.66700(18) 0.40400(18) 0.49738(4)
C4_4 C 0.73777(18) 0.40450(18) 0.49748(4)
C5_4 C 0.45488(19) 0.63010(19) 0.55480(4)
C6_4 C 0.59338(18) 0.58728(18) 0.52154(4)
C7_4 C 0.63483(18) 0.57014(18) 0.50912(4)
C8_4 C 0.50516(19) 0.61563(19) 0.54377(4)
C9_4 C 0.70323(19) 0.60114(18) 0.48364(4)
C10_4 C 0.66723(18) 0.47917(18) 0.49688(4)
C11_4 C 0.63643(18) 0.50082(18) 0.50942(4)
H2_4 H 0.6163 0.4683 0.5183
C12_4 C 0.7422(2) 0.6333(2) 0.45471(4)
H3_4 H 0.7152 0.5807 0.4522
C13_4 C 0.6197(2) 0.66160(19) 0.52749(4)
H4_4 H 0.6672 0.7022 0.5240
C14_4 C 0.7427(2) 0.6566(2) 0.47055(4)
C15_4 C 0.52215(19) 0.52744(19) 0.52729(4)
H5_4 H 0.5036 0.4771 0.5236
C16_4 C 0.66987(19) 0.62020(19) 0.49612(4)
H6_4 H 0.6708 0.6674 0.4959
C17_4 C 0.5762(2) 0.6761(2) 0.53847(4)
H7_4 H 0.5944 0.7262 0.5423
C18_4 C 0.4799(2) 0.54137(19) 0.53808(4)
H8_4 H 0.4332 0.5004 0.5417
C19_4 C 0.7811(2) 0.6870(3) 0.44273(5)
H9_4 H 0.7792 0.6701 0.4323
C20_4 C 0.8220(3) 0.7641(3) 0.44607(6)
C21_4 C 0.7849(4) 0.7345(3) 0.47398(6)
H10_4 H 0.7870 0.7515 0.4844
C22_4 C 0.8249(4) 0.7886(3) 0.46182(7)
H11_4 H 0.8535 0.8412 0.4643
C23_4 C 0.8126(2) 0.4798(2) 0.49847(5)
H12_4 H 0.8551 0.4710 0.4958
H13_4 H 0.8121 0.5155 0.4906
C24_4 C 0.8267(3) 0.5171(3) 0.51529(7)
H14_4 H 0.8751 0.5653 0.5153
H15_4 H 0.7852 0.5266 0.5179
H16_4 H 0.8287 0.4825 0.5231
C25_4 C 0.83015(26) 0.30194(18) 0.48390(4)
H17_4 H 0.7968 0.2842 0.4752
C26_4 C 0.73700(25) 0.33300(18) 0.49738(4)
C27_4 C 0.66673(25) 0.26223(18) 0.49748(4)
C29_4 C 0.99390(25) 0.40662(18) 0.52154(4)
C30_4 C 0.93531(25) 0.36517(18) 0.50912(4)
C32_4 C 0.89791(26) 0.29677(19) 0.48364(4)
C33_4 C 0.81194(25) 0.33277(18) 0.49688(4)
C34_4 C 0.86439(25) 0.36357(18) 0.50942(4)
H18_4 H 0.8520 0.3837 0.5183
C35_4 C 0.8911(3) 0.2578(2) 0.45471(4)
H19_4 H 0.8655 0.2848 0.4522
C37_4 C 0.9139(3) 0.2573(2) 0.47055(4)
H21_4 H 0.9735 0.4964 0.5236
C39_4 C 0.95033(27) 0.33013(19) 0.49612(4)
H22_4 H 0.9966 0.3292 0.4959
C42_4 C 0.9059(4) 0.2189(2) 0.44273(5)
H25_4 H 0.8909 0.2208 0.4323
C43_4 C 0.9421(4) 0.1780(3) 0.44607(6)
C44_4 C 0.9496(5) 0.2151(4) 0.47398(6)
H26_4 H 0.9645 0.2130 0.4844
C45_4 C 0.9637(5) 0.1751(4) 0.46182(7)
H27_4 H 0.9877 0.1465 0.4643
C46_4 C 0.6672(3) 0.1874(2) 0.49847(5)
H28_4 H 0.6159 0.1449 0.4958
H29_4 H 0.7034 0.1879 0.4906
C47_4 C 0.6904(4) 0.1733(3) 0.51529(7)
H30_4 H 0.6902 0.1249 0.5153
H31_4 H 0.7414 0.2148 0.5179
H32_4 H 0.6538 0.1713 0.5231
C48_4 C 0.9596(7) 0.1336(6) 0.43362(8)
C49_4 C 0.47179(19) 0.16985(26) 0.48390(4)
H33_4 H 0.4874 0.2032 0.4752
C50_4 C 0.59600(18) 0.26300(25) 0.49738(4)
C51_4 C 0.59550(18) 0.33327(25) 0.49748(4)
C53_4 C 0.41272(18) 0.00610(25) 0.52154(4)
C54_4 C 0.42986(18) 0.06469(25) 0.50912(4)
C56_4 C 0.39886(18) 0.10209(26) 0.48364(4)
C57_4 C 0.52083(18) 0.18806(25) 0.49688(4)
C58_4 C 0.49918(18) 0.13561(25) 0.50942(4)
H34_4 H 0.5317 0.1480 0.5183
C59_4 C 0.3667(2) 0.1089(3) 0.45471(4)
H35_4 H 0.4193 0.1345 0.4522
C61_4 C 0.3434(2) 0.0861(3) 0.47055(4)
H37_4 H 0.5229 0.0265 0.5236
C63_4 C 0.37980(19) 0.04967(27) 0.49612(4)
H38_4 H 0.3326 0.0034 0.4959
C66_4 C 0.3130(3) 0.0941(4) 0.44273(5)
H41_4 H 0.3299 0.1091 0.4323
C67_4 C 0.2359(3) 0.0579(4) 0.44607(6)
C68_4 C 0.2655(3) 0.0504(5) 0.47398(6)
H42_4 H 0.2485 0.0355 0.4844
C69_4 C 0.2114(3) 0.0363(5) 0.46182(7)
H43_4 H 0.1588 0.0123 0.4643
C70_4 C 0.5202(2) 0.3328(3) 0.49847(5)
H44_4 H 0.5290 0.3841 0.4958
H45_4 H 0.4845 0.2966 0.4906
C71_4 C 0.4829(3) 0.3096(4) 0.51529(7)
H46_4 H 0.4347 0.3098 0.5153
H47_4 H 0.4734 0.2586 0.5179
H48_4 H 0.5175 0.3462 0.5231
C72_4 C 0.1740(4) 0.0404(7) 0.43362(8)
O18 O 0.42697(14) 0.82200(21) 0.55984(3)
C52_4 C 0.36990(19) 0.82478(27) 0.55480(4)
C55_4 C 0.38437(19) 0.88953(27) 0.54377(4)
C60_4 C 0.33840(19) 0.95810(28) 0.52749(4)
H36_4 H 0.2978 0.9650 0.5240
C62_4 C 0.47256(19) 0.99471(27) 0.52729(4)
C64_4 C 0.3239(2) 0.9001(3) 0.53847(4)
H39_4 H 0.2738 0.8682 0.5423
C65_4 C 0.45863(19) 0.93853(28) 0.53808(4)
H40_4 H 0.4996 0.9328 0.5417
C1_5 C 0.1997(6) 0.4927(4) 0.10029(8)
C2_5 C 0.03139(18) 0.19488(19) 0.15057(4)
H1_5 H 0.0491 0.1793 0.1419
C3_5 C 0.00033(18) 0.07067(18) 0.16405(4)
C4_5 C 0.07110(18) 0.07117(18) 0.16415(4)
C9_5 C 0.03656(19) 0.26781(18) 0.15031(4)
C10_5 C 0.00056(18) 0.14584(18) 0.16355(4)
C12_5 C 0.0755(2) 0.3000(2) 0.12138(4)
H3_5 H 0.0485 0.2474 0.1189
H4_5 H 0.0005 0.3689 0.1907
C14_5 C 0.0760(2) 0.3233(2) 0.13722(4)
C16_5 C 0.00320(19) 0.28687(19) 0.16279(4)
H6_5 H 0.0041 0.3341 0.1626
C19_5 C 0.1144(2) 0.3537(3) 0.10940(5)
H9_5 H 0.1125 0.3368 0.0990
C20_5 C 0.1553(3) 0.4308(3) 0.11274(6)
C21_5 C 0.1182(4) 0.4012(3) 0.14065(6)
H10_5 H 0.1203 0.4182 0.1511
C22_5 C 0.1582(4) 0.4553(3) 0.12849(7)
H11_5 H 0.1868 0.5079 0.1310
C23_5 C 0.1459(2) 0.1465(2) 0.16514(5)
H12_5 H 0.1884 0.1377 0.1625
H13_5 H 0.1454 0.1822 0.1573
C24_5 C 0.1600(3) 0.1838(3) 0.18196(7)
H14_5 H 0.2084 0.2320 0.1820
H15_5 H 0.1185 0.1933 0.1846
H16_5 H 0.1620 0.1492 0.1898
O6_5 O 0.51133(21) 0.27164(15) 0.22651(3)
C28_5 C 0.50855(27) 0.21179(19) 0.22147(4)
C29_5 C 0.32723(25) 0.07329(18) 0.18821(4)
C30_5 C 0.26864(25) 0.03184(18) 0.17579(4)
C31_5 C 0.44380(27) 0.16151(19) 0.21044(4)
C34_5 C 0.19772(25) 0.03024(18) 0.17609(4)
H18_5 H 0.1853 0.0504 0.1850
C36_5 C 0.37523(28) 0.0470(2) 0.19416(4)
C38_5 C 0.33862(27) 0.14452(19) 0.19396(4)
H21_5 H 0.3068 0.1631 0.1903
C40_5 C 0.4332(3) 0.0905(2) 0.20514(4)
H23_5 H 0.4651 0.0723 0.2090
C41_5 C 0.39480(28) 0.1868(2) 0.20475(4)
H24_5 H 0.4005 0.2335 0.2084
O9_2 O 0.55516(26) 0.18811(15) 0.22501(3)
O17_2 O 0.6666 0.3334 0.24648(4)
O20_2 O 0.63294(21) 0.44484(26) 0.22501(3)
C25_5 C 0.16348(26) 0.96861(18) 0.15057(4)
H17_5 H 0.1301 0.9509 0.1419
C26_5 C 0.07033(25) 0.99967(18) 0.16405(4)
C27_5 C 0.00006(25) 0.92890(18) 0.16415(4)
C32_5 C 0.23124(26) 0.96344(19) 0.15031(4)
C33_5 C 0.14527(25) 0.99944(18) 0.16355(4)
C35_5 C 0.2244(3) 0.9245(2) 0.12138(4)
H19_5 H 0.1988 0.9515 0.1189
H20_5 H 0.3683 0.9995 0.1907
C37_5 C 0.2472(3) 0.9240(2) 0.13722(4)
C39_5 C 0.28366(27) 0.99680(19) 0.16279(4)
H22_5 H 0.3299 0.9959 0.1626
C42_5 C 0.2392(4) 0.8856(2) 0.10940(5)
H25_5 H 0.2242 0.8875 0.0990
C43_5 C 0.2754(4) 0.8447(3) 0.11274(6)
C44_5 C 0.2829(5) 0.8818(4) 0.14065(6)
H26_5 H 0.2978 0.8797 0.1511
C45_5 C 0.2970(5) 0.8418(4) 0.12849(7)
H27_5 H 0.3210 0.8132 0.1310
C46_5 C 0.0005(3) 0.8541(2) 0.16514(5)
H29_5 H 0.0367 0.8546 0.1573
C47_5 C 0.0237(4) 0.8400(3) 0.18196(7)
H30_5 H 0.0235 0.7916 0.1820
H31_5 H 0.0747 0.8815 0.1846
C48_5 C 0.2929(7) 0.8003(6) 0.10029(8)
O3_5 O 0.72836(15) 0.23970(14) 0.22651(3)
O4_5 O 0.81189(15) 0.36706(21) 0.22501(3)
C5_5 C 0.78821(19) 0.29677(19) 0.22147(4)
C6_5 C 0.92671(18) 0.25395(18) 0.18821(4)
C7_5 C 0.96816(18) 0.23681(18) 0.17579(4)
C8_5 C 0.83849(19) 0.28230(19) 0.21044(4)
C11_5 C 0.96976(18) 0.16749(18) 0.17609(4)
H2_5 H 0.9496 0.1350 0.1850
C13_5 C 0.9530(2) 0.32827(19) 0.19416(4)
C15_5 C 0.85548(19) 0.19411(19) 0.19396(4)
H5_5 H 0.8369 0.1438 0.1903
C17_5 C 0.9095(2) 0.3428(2) 0.20514(4)
H7_5 H 0.9277 0.3929 0.2090
C18_5 C 0.8132(2) 0.20804(19) 0.20475(4)
H8_5 H 0.7665 0.1671 0.2084
H44_5 H 0.8623 0.0508 0.1625
H48_5 H 0.8508 0.0129 0.1898
O18_2 O 0.76030(14) 0.48867(21) 0.22651(3)
H28_5 H 0.9492 0.8116 0.1625
H32_5 H 0.9871 0.8380 0.1898
C49_5 C 0.80512(19) 0.83652(26) 0.15057(4)
H33_5 H 0.8207 0.8699 0.1419
C50_5 C 0.92933(18) 0.92967(25) 0.16405(4)
C51_5 C 0.92883(18) 0.99994(25) 0.16415(4)
C52_5 C 0.70323(19) 0.49145(27) 0.22147(4)
C53_5 C 0.74605(18) 0.67277(25) 0.18821(4)
C54_5 C 0.76319(18) 0.73136(25) 0.17579(4)
C55_5 C 0.71770(19) 0.55620(27) 0.21044(4)
C56_5 C 0.73219(18) 0.76876(26) 0.15031(4)
C57_5 C 0.85416(18) 0.85473(25) 0.16355(4)
C58_5 C 0.83251(18) 0.80228(25) 0.17609(4)
H34_5 H 0.8650 0.8147 0.1850
C59_5 C 0.7000(2) 0.7756(3) 0.12138(4)
H35_5 H 0.7526 0.8012 0.1189
C60_5 C 0.67173(19) 0.62477(28) 0.19416(4)
H36_5 H 0.6311 0.6317 0.1907
C61_5 C 0.6767(2) 0.7528(3) 0.13722(4)
C62_5 C 0.80589(19) 0.66138(27) 0.19396(4)
H37_5 H 0.8562 0.6932 0.1903
C63_5 C 0.71313(19) 0.71634(27) 0.16279(4)
H38_5 H 0.6659 0.6701 0.1626
C64_5 C 0.6572(2) 0.5668(3) 0.20514(4)
H39_5 H 0.6071 0.5349 0.2090
C65_5 C 0.79196(19) 0.60520(28) 0.20475(4)
H40_5 H 0.8329 0.5995 0.2084
C66_5 C 0.6463(3) 0.7608(4) 0.10940(5)
H41_5 H 0.6632 0.7758 0.0990
C67_5 C 0.5692(3) 0.7246(4) 0.11274(6)
C68_5 C 0.5988(3) 0.7171(5) 0.14065(6)
H42_5 H 0.5818 0.7022 0.1511
C69_5 C 0.5447(3) 0.7030(5) 0.12849(7)
H43_5 H 0.4921 0.6790 0.1310
C70_5 C 0.8535(2) 0.9995(3) 0.16514(5)
H45_5 H 0.8178 0.9633 0.1573
C71_5 C 0.8162(3) 0.9763(4) 0.18196(7)
H46_5 H 0.7680 0.9765 0.1820
H47_5 H 0.8067 0.9253 0.1846
C72_5 C 0.5073(4) 0.7071(7) 0.10029(8)
O17_3 O -0.0000 0.0000 0.91314(4)
O17_4 O -0.0000 1.0000 0.91314(4)
C1_6 C 0.5331(6) 0.1593(4) 0.76695(8)
O4_6 O 0.14523(15) 0.03372(21) 0.89167(3)
H4_6 H 0.3339 0.0355 0.8573
H6_6 H 0.3375 0.0007 0.8292
C17_6 C 0.2429(2) 0.0094(2) 0.87180(4)
H7_6 H 0.2611 0.0595 0.8756
C19_6 C 0.4478(2) 0.0203(3) 0.77606(5)
H9_6 H 0.4459 0.0034 0.7656
C20_6 C 0.4887(3) 0.0974(3) 0.77940(6)
C21_6 C 0.4516(4) 0.0678(3) 0.80731(6)
H10_6 H 0.4537 0.0848 0.8177
C22_6 C 0.4916(4) 0.1219(3) 0.79515(7)
H11_6 H 0.5202 0.1745 0.7976
O17_5 O 1.0000 0.0000 0.91314(4)
O18_3 O 0.09364(14) 0.15533(21) 0.89317(3)
O20_3 O 0.96628(21) 0.11150(26) 0.89167(3)
O3_6 O 0.06170(15) 0.90636(14) 0.89317(3)
C2_6 C 0.36473(18) 0.86154(19) 0.81723(4)
H1_6 H 0.3825 0.8459 0.8085
C3_6 C 0.33367(18) 0.73733(18) 0.83071(4)
C4_6 C 0.40444(18) 0.73783(18) 0.83081(4)
C5_6 C 0.12155(19) 0.96343(19) 0.88813(4)
C6_6 C 0.26005(18) 0.92061(18) 0.85487(4)
C7_6 C 0.30150(18) 0.90347(18) 0.84245(4)
C8_6 C 0.17183(19) 0.94896(19) 0.87710(4)
C9_6 C 0.36990(19) 0.93447(18) 0.81697(4)
C10_6 C 0.33390(18) 0.81250(18) 0.83021(4)
C11_6 C 0.30310(18) 0.83415(18) 0.84275(4)
H2_6 H 0.2830 0.8016 0.8516
C12_6 C 0.4089(2) 0.9666(2) 0.78804(4)
H3_6 H 0.3819 0.9140 0.7855
C13_6 C 0.2864(2) 0.99493(19) 0.86082(4)
C14_6 C 0.4094(2) 0.9899(2) 0.80388(4)
C15_6 C 0.18882(19) 0.86077(19) 0.86062(4)
H5_6 H 0.1703 0.8104 0.8569
C16_6 C 0.33654(19) 0.95353(19) 0.82945(4)
C18_6 C 0.1466(2) 0.87470(19) 0.87141(4)
H8_6 H 0.0999 0.8337 0.8750
C23_6 C 0.4793(2) 0.8131(2) 0.83180(5)
H12_6 H 0.5218 0.8043 0.8291
H13_6 H 0.4788 0.8488 0.8239
C24_6 C 0.4934(3) 0.8504(3) 0.84862(7)
H14_6 H 0.5418 0.8986 0.8486
H15_6 H 0.4519 0.8599 0.8512
H16_6 H 0.4954 0.8158 0.8564
O6_6 O 0.84467(21) 0.93830(15) 0.89317(3)
C25_6 C 0.49682(26) 0.63527(18) 0.81723(4)
H17_6 H 0.4635 0.6175 0.8085
C26_6 C 0.40367(25) 0.66633(18) 0.83071(4)
C27_6 C 0.33340(25) 0.59556(18) 0.83081(4)
C28_6 C 0.84189(27) 0.87845(19) 0.88813(4)
C29_6 C 0.66057(25) 0.73995(18) 0.85487(4)
C30_6 C 0.60198(25) 0.69850(18) 0.84245(4)
C31_6 C 0.77714(27) 0.82817(19) 0.87710(4)
C32_6 C 0.56458(26) 0.63010(19) 0.81697(4)
C33_6 C 0.47861(25) 0.66610(18) 0.83021(4)
C34_6 C 0.53106(25) 0.69690(18) 0.84275(4)
H18_6 H 0.5187 0.7170 0.8516
C35_6 C 0.5578(3) 0.5911(2) 0.78804(4)
H19_6 H 0.5322 0.6181 0.7855
C36_6 C 0.70857(28) 0.7136(2) 0.86082(4)
H20_6 H 0.7017 0.6661 0.8573
C37_6 C 0.5806(3) 0.5906(2) 0.80388(4)
C38_6 C 0.67196(27) 0.81118(19) 0.86062(4)
H21_6 H 0.6402 0.8297 0.8569
C39_6 C 0.61700(27) 0.66346(19) 0.82945(4)
H22_6 H 0.6633 0.6625 0.8292
C40_6 C 0.7666(3) 0.7571(2) 0.87180(4)
H23_6 H 0.7985 0.7389 0.8756
C41_6 C 0.72814(28) 0.8534(2) 0.87141(4)
H24_6 H 0.7339 0.9001 0.8750
C42_6 C 0.5726(4) 0.5522(2) 0.77606(5)
H25_6 H 0.5576 0.5541 0.7656
C43_6 C 0.6088(4) 0.5113(3) 0.77940(6)
C44_6 C 0.6163(5) 0.5484(4) 0.80731(6)
H26_6 H 0.6312 0.5463 0.8177
C45_6 C 0.6304(5) 0.5084(4) 0.79515(7)
H27_6 H 0.6544 0.4798 0.7976
C46_6 C 0.3339(3) 0.5207(2) 0.83180(5)
H28_6 H 0.2826 0.4782 0.8291
H29_6 H 0.3701 0.5212 0.8239
C47_6 C 0.3571(4) 0.5066(3) 0.84862(7)
H30_6 H 0.3569 0.4582 0.8486
H31_6 H 0.4081 0.5481 0.8512
H32_6 H 0.3205 0.5046 0.8564
C48_6 C 0.6263(7) 0.4669(6) 0.76695(8)
O9_3 O 0.88850(26) 0.85477(15) 0.89167(3)
C49_6 C 0.13846(19) 0.50318(26) 0.81723(4)
H33_6 H 0.1541 0.5365 0.8085
C50_6 C 0.26267(18) 0.59633(25) 0.83071(4)
C51_6 C 0.26217(18) 0.66660(25) 0.83081(4)
C52_6 C 0.03657(19) 0.15811(27) 0.88813(4)
C53_6 C 0.07939(18) 0.33943(25) 0.85487(4)
C54_6 C 0.09653(18) 0.39802(25) 0.84245(4)
C55_6 C 0.05104(19) 0.22286(27) 0.87710(4)
C56_6 C 0.06553(18) 0.43542(26) 0.81697(4)
C57_6 C 0.18750(18) 0.52139(25) 0.83021(4)
C58_6 C 0.16585(18) 0.46894(25) 0.84275(4)
H34_6 H 0.1984 0.4813 0.8516
C59_6 C 0.0334(2) 0.4422(3) 0.78804(4)
H35_6 H 0.0860 0.4678 0.7855
C60_6 C 0.00507(19) 0.29143(28) 0.86082(4)
C61_6 C 0.0101(2) 0.4194(3) 0.80388(4)
C62_6 C 0.13923(19) 0.32804(27) 0.86062(4)
H37_6 H 0.1896 0.3598 0.8569
C63_6 C 0.04647(19) 0.38300(27) 0.82945(4)
C65_6 C 0.12530(19) 0.27186(28) 0.87141(4)
H40_6 H 0.1663 0.2661 0.8750
C70_6 C 0.1869(2) 0.6661(3) 0.83180(5)
H44_6 H 0.1957 0.7174 0.8291
H45_6 H 0.1512 0.6299 0.8239
C71_6 C 0.1496(3) 0.6429(4) 0.84862(7)
H46_6 H 0.1014 0.6431 0.8486
H47_6 H 0.1401 0.5919 0.8512
H48_6 H 0.1842 0.6795 0.8564
O17_6 O 1.0000 1.0000 0.91314(4)
H36_6 H 0.9645 0.2983 0.8573
H38_6 H 0.9993 0.3367 0.8292
C64_6 C 0.9906(2) 0.2334(3) 0.87180(4)
H39_6 H 0.9405 0.2015 0.8756
C66_6 C 0.9797(3) 0.4274(4) 0.77606(5)
H41_6 H 0.9966 0.4424 0.7656
C67_6 C 0.9026(3) 0.3912(4) 0.77940(6)
C68_6 C 0.9322(3) 0.3837(5) 0.80731(6)
H42_6 H 0.9152 0.3688 0.8177
C69_6 C 0.8781(3) 0.3696(5) 0.79515(7)
H43_6 H 0.8255 0.3456 0.7976
C72_6 C 0.8407(4) 0.3737(7) 0.76695(8)
Zn7_7 Zn 0.0000 -0.0000 0.562534(18)
Zn7_8 Zn 0.0000 1.0000 0.562534(18)
O10_4 O 0.57303(14) 0.17800(21) 0.44016(3)
C52_7 C 0.63010(19) 0.17522(27) 0.44520(4)
C55_7 C 0.61563(19) 0.11047(27) 0.45623(4)
C60_7 C 0.66160(19) 0.04190(28) 0.47251(4)
H36_7 H 0.7022 0.0350 0.4760
C62_7 C 0.52744(19) 0.00529(27) 0.47271(4)
C64_7 C 0.6761(2) 0.0999(3) 0.46153(4)
H39_7 H 0.7262 0.1318 0.4577
C65_7 C 0.54137(19) 0.06147(28) 0.46192(4)
H40_7 H 0.5004 0.0672 0.4583
O13_4 O 0.70039(21) 0.22183(26) 0.44166(3)
Zn7_9 Zn 1.0000 -0.0000 0.562534(18)
Zn10_4 Zn 0.74698(3) 0.30961(2) 0.426893(4)
Zn11_4 Zn 0.56263(2) 0.25302(3) 0.426893(4)
O1_4 O 0.0905(7) 0.1033(4) 0.56191(9)
C1_7 C 0.1336(6) 0.1740(4) 0.56638(8)
Zn1_7 Zn 0.6667 0.3333 0.395867(18)
Zn2_4 Zn 0.69039(2) 0.43737(2) 0.426893(4)
O2_7 O 0.6667 0.3333 0.42019(4)
O3_7 O 0.60497(15) 0.42697(14) 0.44016(3)
O4_7 O 0.52144(15) 0.29961(21) 0.44166(3)
C2_7 C 0.30194(18) 0.47179(19) 0.51610(4)
H1_7 H 0.2842 0.4874 0.5248
C3_7 C 0.33300(18) 0.59600(18) 0.50262(4)
C4_7 C 0.26223(18) 0.59550(18) 0.50252(4)
C5_7 C 0.54512(19) 0.36990(19) 0.44520(4)
C6_7 C 0.40662(18) 0.41272(18) 0.47846(4)
C7_7 C 0.36517(18) 0.42986(18) 0.49088(4)
C8_7 C 0.49484(19) 0.38437(19) 0.45623(4)
C9_7 C 0.29677(19) 0.39886(18) 0.51636(4)
C10_7 C 0.33277(18) 0.52083(18) 0.50312(4)
C11_7 C 0.36357(18) 0.49918(18) 0.49058(4)
H2_7 H 0.3837 0.5317 0.4817
C12_7 C 0.2578(2) 0.3667(2) 0.54529(4)
H3_7 H 0.2848 0.4193 0.5478
C13_7 C 0.3803(2) 0.33840(19) 0.47251(4)
H4_7 H 0.3328 0.2978 0.4760
C14_7 C 0.2573(2) 0.3434(2) 0.52945(4)
C15_7 C 0.47785(19) 0.47256(19) 0.47271(4)
H5_7 H 0.4964 0.5229 0.4764
C16_7 C 0.33013(19) 0.37980(19) 0.50388(4)
H6_7 H 0.3292 0.3326 0.5041
C17_7 C 0.4238(2) 0.3239(2) 0.46153(4)
H7_7 H 0.4056 0.2738 0.4577
O5_4 O 0.1408(3) 0.1935(2) 0.58012(5)
C18_7 C 0.5201(2) 0.45863(19) 0.46192(4)
H8_7 H 0.5668 0.4996 0.4583
C19_7 C 0.2189(2) 0.3130(3) 0.55727(5)
H9_7 H 0.2208 0.3299 0.5677
C20_7 C 0.1780(3) 0.2359(3) 0.55393(6)
C21_7 C 0.2151(4) 0.2655(3) 0.52602(6)
H10_7 H 0.2130 0.2485 0.5156
C22_7 C 0.1751(4) 0.2114(3) 0.53818(7)
H11_7 H 0.1465 0.1588 0.5357
C23_7 C 0.1874(2) 0.5202(2) 0.50153(5)
H12_7 H 0.1449 0.5290 0.5042
H13_7 H 0.1879 0.4845 0.5094
C24_7 C 0.1733(3) 0.4829(3) 0.48471(7)
H14_7 H 0.1249 0.4347 0.4847
H15_7 H 0.2148 0.4734 0.4821
H16_7 H 0.1713 0.5175 0.4769
C25_7 C 0.16985(26) 0.69806(18) 0.51610(4)
H17_7 H 0.2032 0.7158 0.5248
C26_7 C 0.26300(25) 0.66700(18) 0.50262(4)
C27_7 C 0.33327(25) 0.73777(18) 0.50252(4)
C29_7 C 0.00610(25) 0.59338(18) 0.47846(4)
C30_7 C 0.06469(25) 0.63483(18) 0.49088(4)
C32_7 C 0.10209(26) 0.70323(19) 0.51636(4)
C33_7 C 0.18806(25) 0.66723(18) 0.50312(4)
C34_7 C 0.13561(25) 0.63643(18) 0.49058(4)
H18_7 H 0.1480 0.6163 0.4817
C35_7 C 0.1089(3) 0.7422(2) 0.54529(4)
H19_7 H 0.1345 0.7152 0.5478
C37_7 C 0.0861(3) 0.7427(2) 0.52945(4)
H21_7 H 0.0265 0.5036 0.4764
C39_7 C 0.04967(27) 0.66987(19) 0.50388(4)
H22_7 H 0.0034 0.6708 0.5041
C42_7 C 0.0941(4) 0.7811(2) 0.55727(5)
H25_7 H 0.1091 0.7792 0.5677
C43_7 C 0.0579(4) 0.8220(3) 0.55393(6)
C44_7 C 0.0504(5) 0.7849(4) 0.52602(6)
H26_7 H 0.0355 0.7870 0.5156
C45_7 C 0.0363(5) 0.8249(4) 0.53818(7)
H27_7 H 0.0123 0.8535 0.5357
C46_7 C 0.3328(3) 0.8126(2) 0.50153(5)
H28_7 H 0.3841 0.8551 0.5042
H29_7 H 0.2966 0.8121 0.5094
C47_7 C 0.3096(4) 0.8267(3) 0.48471(7)
H30_7 H 0.3098 0.8751 0.4847
H31_7 H 0.2586 0.7852 0.4821
H32_7 H 0.3462 0.8287 0.4769
O7_4 O 0.0128(8) 0.9095(7) 0.56191(9)
C48_7 C 0.0404(7) 0.8664(6) 0.56638(8)
O8_4 O 0.0527(4) 0.8592(3) 0.58012(5)
C49_7 C 0.52821(19) 0.83015(26) 0.51610(4)
H33_7 H 0.5126 0.7968 0.5248
C50_7 C 0.40400(18) 0.73700(25) 0.50262(4)
C51_7 C 0.40450(18) 0.66673(25) 0.50252(4)
C53_7 C 0.58728(18) 0.99390(25) 0.47846(4)
C54_7 C 0.57014(18) 0.93531(25) 0.49088(4)
C56_7 C 0.60114(18) 0.89791(26) 0.51636(4)
C57_7 C 0.47917(18) 0.81194(25) 0.50312(4)
C58_7 C 0.50082(18) 0.86439(25) 0.49058(4)
H34_7 H 0.4683 0.8520 0.4817
C59_7 C 0.6333(2) 0.8911(3) 0.54529(4)
H35_7 H 0.5807 0.8655 0.5478
C61_7 C 0.6566(2) 0.9139(3) 0.52945(4)
H37_7 H 0.4771 0.9735 0.4764
C63_7 C 0.62020(19) 0.95033(27) 0.50388(4)
H38_7 H 0.6674 0.9966 0.5041
C66_7 C 0.6870(3) 0.9059(4) 0.55727(5)
H41_7 H 0.6701 0.8909 0.5677
C67_7 C 0.7641(3) 0.9421(4) 0.55393(6)
C68_7 C 0.7345(3) 0.9496(5) 0.52602(6)
H42_7 H 0.7515 0.9645 0.5156
C69_7 C 0.7886(3) 0.9637(5) 0.53818(7)
H43_7 H 0.8412 0.9877 0.5357
C70_7 C 0.4798(2) 0.6672(3) 0.50153(5)
H44_7 H 0.4710 0.6159 0.5042
H45_7 H 0.5155 0.7034 0.5094
C71_7 C 0.5171(3) 0.6904(4) 0.48471(7)
H46_7 H 0.5653 0.6902 0.4847
H47_7 H 0.5266 0.7414 0.4821
H48_7 H 0.4825 0.6538 0.4769
O11_4 O 0.8967(4) 0.9872(8) 0.56191(9)
C72_7 C 0.8260(4) 0.9596(7) 0.56638(8)
O12_4 O 0.8065(2) 0.9473(4) 0.58012(5)
O14_4 O 0.5634(4) 0.2428(7) 0.39524(9)
O15_4 O 0.7572(7) 0.3205(8) 0.39524(9)
O16_4 O 0.6795(8) 0.4366(4) 0.39524(9)
Zn7_10 Zn 1.0000 1.0000 0.562534(18)
Zn12_4 Zn 0.89596(2) 0.97628(2) 0.593560(4)
Zn13_4 Zn 0.02372(2) 0.91969(3) 0.593560(4)
Zn14_4 Zn 0.08031(3) 0.10404(2) 0.593560(4)
O19_4 O 0.77817(26) 0.47856(15) 0.44166(3)
O21_4 O 0.4732(2) 0.1925(3) 0.41345(5)
O23_4 O 0.7194(4) 0.5268(2) 0.41345(5)
O6_7 O 0.82200(21) 0.39503(15) 0.44016(3)
C28_7 C 0.82478(27) 0.45488(19) 0.44520(4)
C31_7 C 0.88953(27) 0.50516(19) 0.45623(4)
C36_7 C 0.95810(28) 0.6197(2) 0.47251(4)
H20_7 H 0.9650 0.6672 0.4760
C38_7 C 0.99471(27) 0.52215(19) 0.47271(4)
C40_7 C 0.9001(3) 0.5762(2) 0.46153(4)
H23_7 H 0.8682 0.5944 0.4577
C41_7 C 0.93853(28) 0.4799(2) 0.46192(4)
H24_7 H 0.9328 0.4332 0.4583
O22_4 O 0.8075(3) 0.2806(4) 0.41345(5)
H28_8 H 0.0508 0.1884 0.8375
H32_8 H 0.0129 0.1620 0.8102
O10_5 O 0.23970(14) 0.51133(21) 0.77349(3)
C49_8 C 0.19488(19) 0.16348(26) 0.84943(4)
H33_8 H 0.1793 0.1301 0.8581
C50_8 C 0.07067(18) 0.07033(25) 0.83595(4)
C51_8 C 0.07117(18) 0.00006(25) 0.83585(4)
C52_8 C 0.29677(19) 0.50855(27) 0.77853(4)
C53_8 C 0.25395(18) 0.32723(25) 0.81179(4)
C54_8 C 0.23681(18) 0.26864(25) 0.82421(4)
C55_8 C 0.28230(19) 0.44380(27) 0.78956(4)
C56_8 C 0.26781(18) 0.23124(26) 0.84969(4)
C57_8 C 0.14584(18) 0.14527(25) 0.83645(4)
C58_8 C 0.16749(18) 0.19772(25) 0.82391(4)
H34_8 H 0.1350 0.1853 0.8150
C59_8 C 0.3000(2) 0.2244(3) 0.87862(4)
H35_8 H 0.2474 0.1988 0.8811
C60_8 C 0.32827(19) 0.37523(28) 0.80584(4)
H36_8 H 0.3689 0.3683 0.8093
C61_8 C 0.3233(2) 0.2472(3) 0.86278(4)
C62_8 C 0.19411(19) 0.33862(27) 0.80604(4)
H37_8 H 0.1438 0.3068 0.8097
C63_8 C 0.28687(19) 0.28366(27) 0.83721(4)
H38_8 H 0.3341 0.3299 0.8374
C64_8 C 0.3428(2) 0.4332(3) 0.79486(4)
H39_8 H 0.3929 0.4651 0.7910
C65_8 C 0.20804(19) 0.39480(28) 0.79525(4)
H40_8 H 0.1671 0.4005 0.7916
C66_8 C 0.3537(3) 0.2392(4) 0.89060(5)
H41_8 H 0.3368 0.2242 0.9010
C67_8 C 0.4308(3) 0.2754(4) 0.88726(6)
C68_8 C 0.4012(3) 0.2829(5) 0.85935(6)
H42_8 H 0.4182 0.2978 0.8489
C69_8 C 0.4553(3) 0.2970(5) 0.87151(7)
H43_8 H 0.5079 0.3210 0.8690
C70_8 C 0.1465(2) 0.0005(3) 0.83486(5)
H45_8 H 0.1822 0.0367 0.8427
C71_8 C 0.1838(3) 0.0237(4) 0.81804(7)
H46_8 H 0.2320 0.0235 0.8180
H47_8 H 0.1933 0.0747 0.8154
O11_5 O 0.5634(4) 0.3205(8) 0.89524(9)
C72_8 C 0.4927(4) 0.2929(7) 0.89971(8)
O12_5 O 0.4732(2) 0.2806(4) 0.91345(5)
O13_5 O 0.36706(21) 0.55516(26) 0.77499(3)
Zn7_11 Zn 0.6667 0.3333 0.895867(18)
Zn10_5 Zn 0.41365(3) 0.64294(2) 0.760226(4)
Zn11_5 Zn 0.22930(2) 0.58635(3) 0.760226(4)
Zn12_5 Zn 0.56263(2) 0.30961(2) 0.926893(4)
Zn1_8 Zn 0.3334 0.6666 0.729200(18)
Zn2_5 Zn 0.35706(2) 0.77070(2) 0.760226(4)
O2_8 O 0.3334 0.6666 0.75352(4)
O3_8 O 0.27164(15) 0.76030(14) 0.77349(3)
O4_8 O 0.18811(15) 0.63294(21) 0.77499(3)
C5_8 C 0.21179(19) 0.70323(19) 0.77853(4)
C6_8 C 0.07329(18) 0.74605(18) 0.81179(4)
C7_8 C 0.03184(18) 0.76319(18) 0.82421(4)
C8_8 C 0.16151(19) 0.71770(19) 0.78956(4)
C11_8 C 0.03024(18) 0.83251(18) 0.82391(4)
H2_8 H 0.0504 0.8650 0.8150
C13_8 C 0.0470(2) 0.67173(19) 0.80584(4)
C15_8 C 0.14452(19) 0.80589(19) 0.80604(4)
H5_8 H 0.1631 0.8562 0.8097
C17_8 C 0.0905(2) 0.6572(2) 0.79486(4)
H7_8 H 0.0723 0.6071 0.7910
C18_8 C 0.1868(2) 0.79196(19) 0.79525(4)
H8_8 H 0.2335 0.8329 0.7916
H44_8 H 0.1377 0.9492 0.8375
H48_8 H 0.1492 0.9871 0.8102
O14_5 O 0.2300(4) 0.5762(7) 0.72858(9)
O15_5 O 0.4238(7) 0.6539(8) 0.72858(9)
O16_5 O 0.3461(8) 0.7700(4) 0.72858(9)
O19_5 O 0.44484(26) 0.81189(15) 0.77499(3)
O21_5 O 0.1398(2) 0.5259(3) 0.74679(5)
O23_5 O 0.3860(4) 0.8602(2) 0.74679(5)
C25_8 C 0.83652(26) 0.03139(18) 0.84943(4)
H17_8 H 0.8699 0.0491 0.8581
C26_8 C 0.92967(25) 0.00033(18) 0.83595(4)
C27_8 C 0.99994(25) 0.07110(18) 0.83585(4)
C32_8 C 0.76876(26) 0.03656(19) 0.84969(4)
C33_8 C 0.85473(25) 0.00056(18) 0.83645(4)
C35_8 C 0.7756(3) 0.0755(2) 0.87862(4)
H19_8 H 0.8012 0.0485 0.8811
H20_8 H 0.6317 0.0005 0.8093
C37_8 C 0.7528(3) 0.0760(2) 0.86278(4)
C39_8 C 0.71634(27) 0.00320(19) 0.83721(4)
H22_8 H 0.6701 0.0041 0.8374
C42_8 C 0.7608(4) 0.1144(2) 0.89060(5)
H25_8 H 0.7758 0.1125 0.9010
C43_8 C 0.7246(4) 0.1553(3) 0.88726(6)
C44_8 C 0.7171(5) 0.1182(4) 0.85935(6)
H26_8 H 0.7022 0.1203 0.8489
C45_8 C 0.7030(5) 0.1582(4) 0.87151(7)
H27_8 H 0.6790 0.1868 0.8690
C46_8 C 0.9995(3) 0.1459(2) 0.83486(5)
H29_8 H 0.9633 0.1454 0.8427
C47_8 C 0.9763(4) 0.1600(3) 0.81804(7)
H30_8 H 0.9765 0.2084 0.8180
H31_8 H 0.9253 0.1185 0.8154
O7_5 O 0.6795(8) 0.2428(7) 0.89524(9)
C48_8 C 0.7071(7) 0.1997(6) 0.89971(8)
O8_5 O 0.7194(4) 0.1925(3) 0.91345(5)
Zn13_5 Zn 0.69039(2) 0.25302(3) 0.926893(4)
O1_5 O 0.7572(7) 0.4366(4) 0.89524(9)
C1_8 C 0.8003(6) 0.5073(4) 0.89971(8)
C2_8 C 0.96861(18) 0.80512(19) 0.84943(4)
H1_8 H 0.9509 0.8207 0.8581
C3_8 C 0.99967(18) 0.92933(18) 0.83595(4)
C4_8 C 0.92890(18) 0.92883(18) 0.83585(4)
C9_8 C 0.96344(19) 0.73219(18) 0.84969(4)
C10_8 C 0.99944(18) 0.85416(18) 0.83645(4)
C12_8 C 0.9245(2) 0.7000(2) 0.87862(4)
H3_8 H 0.9515 0.7526 0.8811
H4_8 H 0.9995 0.6311 0.8093
C14_8 C 0.9240(2) 0.6767(2) 0.86278(4)
C16_8 C 0.99680(19) 0.71313(19) 0.83721(4)
H6_8 H 0.9959 0.6659 0.8374
O5_5 O 0.8075(3) 0.5268(2) 0.91345(5)
C19_8 C 0.8856(2) 0.6463(3) 0.89060(5)
H9_8 H 0.8875 0.6632 0.9010
C20_8 C 0.8447(3) 0.5692(3) 0.88726(6)
C21_8 C 0.8818(4) 0.5988(3) 0.85935(6)
H10_8 H 0.8797 0.5818 0.8489
C22_8 C 0.8418(4) 0.5447(3) 0.87151(7)
H11_8 H 0.8132 0.4921 0.8690
C23_8 C 0.8541(2) 0.8535(2) 0.83486(5)
H12_8 H 0.8116 0.8623 0.8375
H13_8 H 0.8546 0.8178 0.8427
C24_8 C 0.8400(3) 0.8162(3) 0.81804(7)
H14_8 H 0.7916 0.7680 0.8180
H15_8 H 0.8815 0.8067 0.8154
H16_8 H 0.8380 0.8508 0.8102
O6_8 O 0.48867(21) 0.72836(15) 0.77349(3)
C28_8 C 0.49145(27) 0.78821(19) 0.77853(4)
C29_8 C 0.67277(25) 0.92671(18) 0.81179(4)
C30_8 C 0.73136(25) 0.96816(18) 0.82421(4)
C31_8 C 0.55620(27) 0.83849(19) 0.78956(4)
C34_8 C 0.80228(25) 0.96976(18) 0.82391(4)
H18_8 H 0.8147 0.9496 0.8150
C36_8 C 0.62477(28) 0.9530(2) 0.80584(4)
C38_8 C 0.66138(27) 0.85548(19) 0.80604(4)
H21_8 H 0.6932 0.8369 0.8097
C40_8 C 0.5668(3) 0.9095(2) 0.79486(4)
H23_8 H 0.5349 0.9277 0.7910
C41_8 C 0.60520(28) 0.8132(2) 0.79525(4)
H24_8 H 0.5995 0.7665 0.7916
Zn14_5 Zn 0.74698(3) 0.43737(2) 0.926893(4)
O22_5 O 0.4741(3) 0.6140(4) 0.74679(5)
Zn1_9 Zn 0.0000 -0.0000 0.062534(18)
Zn2_6 Zn 0.02372(2) 0.10404(2) 0.093560(4)
O2_9 O 0.0000 -0.0000 0.08686(4)
H36_9 H 0.0355 0.7017 0.1427
H38_9 H 0.0007 0.6633 0.1708
C64_9 C 0.0094(2) 0.7666(3) 0.12820(4)
H39_9 H 0.0595 0.7985 0.1244
C66_9 C 0.0203(3) 0.5726(4) 0.22394(5)
H41_9 H 0.0034 0.5576 0.2344
C67_9 C 0.0974(3) 0.6088(4) 0.22060(6)
C68_9 C 0.0678(3) 0.6163(5) 0.19269(6)
H42_9 H 0.0848 0.6312 0.1823
C69_9 C 0.1219(3) 0.6304(5) 0.20485(7)
H43_9 H 0.1745 0.6544 0.2024
O11_6 O 0.2300(4) 0.6539(8) 0.22858(9)
C72_9 C 0.1593(4) 0.6263(7) 0.23305(8)
O12_6 O 0.1398(2) 0.6140(4) 0.24679(5)
O13_6 O 0.03372(21) 0.88850(26) 0.10833(3)
O16_6 O 0.0128(8) 0.1033(4) 0.06191(9)
Zn7_12 Zn 0.3334 0.6666 0.229200(18)
Zn10_6 Zn 0.08031(3) 0.97628(2) 0.093560(4)
Zn12_6 Zn 0.22930(2) 0.64294(2) 0.260226(4)
O19_6 O 0.11150(26) 0.14523(15) 0.10833(3)
O23_6 O 0.0527(4) 0.1935(2) 0.08012(5)
Zn1_10 Zn 0.0000 1.0000 0.062534(18)
O2_10 O 0.0000 1.0000 0.08686(4)
O15_6 O 0.0905(7) 0.9872(8) 0.06191(9)
Zn1_11 Zn 1.0000 -0.0000 0.062534(18)
O2_11 O 1.0000 -0.0000 0.08686(4)
O3_9 O 0.93830(15) 0.09364(14) 0.10683(3)
C2_9 C 0.63527(18) 0.13846(19) 0.18277(4)
H1_9 H 0.6175 0.1541 0.1915
C3_9 C 0.66633(18) 0.26267(18) 0.16929(4)
C4_9 C 0.59556(18) 0.26217(18) 0.16919(4)
C5_9 C 0.87845(19) 0.03657(19) 0.11187(4)
C6_9 C 0.73995(18) 0.07939(18) 0.14513(4)
C7_9 C 0.69850(18) 0.09653(18) 0.15755(4)
C8_9 C 0.82817(19) 0.05104(19) 0.12290(4)
C9_9 C 0.63010(19) 0.06553(18) 0.18303(4)
C10_9 C 0.66610(18) 0.18750(18) 0.16979(4)
C11_9 C 0.69690(18) 0.16585(18) 0.15725(4)
H2_9 H 0.7170 0.1984 0.1484
C12_9 C 0.5911(2) 0.0334(2) 0.21196(4)
H3_9 H 0.6181 0.0860 0.2145
C13_9 C 0.7136(2) 0.00507(19) 0.13918(4)
C14_9 C 0.5906(2) 0.0101(2) 0.19612(4)
C15_9 C 0.81118(19) 0.13923(19) 0.13938(4)
H5_9 H 0.8297 0.1896 0.1431
C16_9 C 0.66346(19) 0.04647(19) 0.17055(4)
C18_9 C 0.8534(2) 0.12530(19) 0.12859(4)
H8_9 H 0.9001 0.1663 0.1250
C23_9 C 0.5207(2) 0.1869(2) 0.16820(5)
H12_9 H 0.4782 0.1957 0.1709
H13_9 H 0.5212 0.1512 0.1761
C24_9 C 0.5066(3) 0.1496(3) 0.15138(7)
H14_9 H 0.4582 0.1014 0.1514
H15_9 H 0.5481 0.1401 0.1488
H16_9 H 0.5046 0.1842 0.1436
O6_9 O 0.15533(21) 0.06170(15) 0.10683(3)
C25_9 C 0.50318(26) 0.36473(18) 0.18277(4)
H17_9 H 0.5365 0.3825 0.1915
C26_9 C 0.59633(25) 0.33367(18) 0.16929(4)
C27_9 C 0.66660(25) 0.40444(18) 0.16919(4)
C28_9 C 0.15811(27) 0.12155(19) 0.11187(4)
C29_9 C 0.33943(25) 0.26005(18) 0.14513(4)
C30_9 C 0.39802(25) 0.30150(18) 0.15755(4)
C31_9 C 0.22286(27) 0.17183(19) 0.12290(4)
C32_9 C 0.43542(26) 0.36990(19) 0.18303(4)
C33_9 C 0.52139(25) 0.33390(18) 0.16979(4)
C34_9 C 0.46894(25) 0.30310(18) 0.15725(4)
H18_9 H 0.4813 0.2830 0.1484
C35_9 C 0.4422(3) 0.4089(2) 0.21196(4)
H19_9 H 0.4678 0.3819 0.2145
C36_9 C 0.29143(28) 0.2864(2) 0.13918(4)
H20_9 H 0.2983 0.3339 0.1427
C37_9 C 0.4194(3) 0.4094(2) 0.19612(4)
C38_9 C 0.32804(27) 0.18882(19) 0.13938(4)
H21_9 H 0.3598 0.1703 0.1431
C39_9 C 0.38300(27) 0.33654(19) 0.17055(4)
H22_9 H 0.3367 0.3375 0.1708
C40_9 C 0.2334(3) 0.2429(2) 0.12820(4)
H23_9 H 0.2015 0.2611 0.1244
C41_9 C 0.27186(28) 0.1466(2) 0.12859(4)
H24_9 H 0.2661 0.0999 0.1250
C42_9 C 0.4274(4) 0.4478(2) 0.22394(5)
H25_9 H 0.4424 0.4459 0.2344
C43_9 C 0.3912(4) 0.4887(3) 0.22060(6)
C44_9 C 0.3837(5) 0.4516(4) 0.19269(6)
H26_9 H 0.3688 0.4537 0.1823
C45_9 C 0.3696(5) 0.4916(4) 0.20485(7)
H27_9 H 0.3456 0.5202 0.2024
C46_9 C 0.6661(3) 0.4793(2) 0.16820(5)
H28_9 H 0.7174 0.5218 0.1709
H29_9 H 0.6299 0.4788 0.1761
C47_9 C 0.6429(4) 0.4934(3) 0.15138(7)
H30_9 H 0.6431 0.5418 0.1514
H31_9 H 0.5919 0.4519 0.1488
H32_9 H 0.6795 0.4954 0.1436
O7_6 O 0.3461(8) 0.5762(7) 0.22858(9)
C48_9 C 0.3737(7) 0.5331(6) 0.23305(8)
O8_6 O 0.3860(4) 0.5259(3) 0.24679(5)
O10_6 O 0.90636(14) 0.84467(21) 0.10683(3)
C49_9 C 0.86154(19) 0.49682(26) 0.18277(4)
H33_9 H 0.8459 0.4635 0.1915
C50_9 C 0.73733(18) 0.40367(25) 0.16929(4)
C51_9 C 0.73783(18) 0.33340(25) 0.16919(4)
C52_9 C 0.96343(19) 0.84189(27) 0.11187(4)
C53_9 C 0.92061(18) 0.66057(25) 0.14513(4)
C54_9 C 0.90347(18) 0.60198(25) 0.15755(4)
C55_9 C 0.94896(19) 0.77714(27) 0.12290(4)
C56_9 C 0.93447(18) 0.56458(26) 0.18303(4)
C57_9 C 0.81250(18) 0.47861(25) 0.16979(4)
C58_9 C 0.83415(18) 0.53106(25) 0.15725(4)
H34_9 H 0.8016 0.5187 0.1484
C59_9 C 0.9666(2) 0.5578(3) 0.21196(4)
H35_9 H 0.9140 0.5322 0.2145
C60_9 C 0.99493(19) 0.70857(28) 0.13918(4)
C61_9 C 0.9899(2) 0.5806(3) 0.19612(4)
C62_9 C 0.86077(19) 0.67196(27) 0.13938(4)
H37_9 H 0.8104 0.6402 0.1431
C63_9 C 0.95353(19) 0.61700(27) 0.17055(4)
C65_9 C 0.87470(19) 0.72814(28) 0.12859(4)
H40_9 H 0.8337 0.7339 0.1250
C70_9 C 0.8131(2) 0.3339(3) 0.16820(5)
H44_9 H 0.8043 0.2826 0.1709
H45_9 H 0.8488 0.3701 0.1761
C71_9 C 0.8504(3) 0.3571(4) 0.15138(7)
H46_9 H 0.8986 0.3569 0.1514
H47_9 H 0.8599 0.4081 0.1488
H48_9 H 0.8158 0.3205 0.1436
Zn11_6 Zn 0.89596(2) 0.91969(3) 0.093560(4)
Zn13_6 Zn 0.35706(2) 0.58635(3) 0.260226(4)
O1_6 O 0.4238(7) 0.7700(4) 0.22858(9)
C1_9 C 0.4669(6) 0.8407(4) 0.23305(8)
Zn1_12 Zn 1.0000 1.0000 0.062534(18)
O2_12 O 1.0000 1.0000 0.08686(4)
O4_9 O 0.85477(15) 0.96628(21) 0.10833(3)
H4_9 H 0.6661 0.9645 0.1427
H6_9 H 0.6625 0.9993 0.1708
C17_9 C 0.7571(2) 0.9906(2) 0.12820(4)
H7_9 H 0.7389 0.9405 0.1244
O5_6 O 0.4741(3) 0.8602(2) 0.24679(5)
C19_9 C 0.5522(2) 0.9797(3) 0.22394(5)
H9_9 H 0.5541 0.9966 0.2344
C20_9 C 0.5113(3) 0.9026(3) 0.22060(6)
C21_9 C 0.5484(4) 0.9322(3) 0.19269(6)
H10_9 H 0.5463 0.9152 0.1823
C22_9 C 0.5084(4) 0.8781(3) 0.20485(7)
H11_9 H 0.4798 0.8255 0.2024
O14_6 O 0.8967(4) 0.9095(7) 0.06191(9)
Zn14_6 Zn 0.41365(3) 0.77070(2) 0.260226(4)
O21_6 O 0.8065(2) 0.8592(3) 0.08012(5)
O22_6 O 0.1408(3) 0.9473(4) 0.08012(5)
O6_10 O 0.60497(15) 0.17800(21) 0.94016(3)
C28_10 C 0.54512(19) 0.17522(27) 0.94520(4)
C31_10 C 0.49484(19) 0.11047(27) 0.95623(4)
C36_10 C 0.3803(2) 0.04190(28) 0.97251(4)
H20_10 H 0.3328 0.0350 0.9760
C38_10 C 0.47785(19) 0.00529(27) 0.97271(4)
C40_10 C 0.4238(2) 0.0999(3) 0.96153(4)
H23_10 H 0.4056 0.1318 0.9577
C41_10 C 0.5201(2) 0.06147(28) 0.96192(4)
H24_10 H 0.5668 0.0672 0.9583
O9_4 O 0.52144(15) 0.22183(26) 0.94166(3)
O17_7 O 0.6667 0.3333 0.92019(4)
O20_4 O 0.77817(26) 0.29961(21) 0.94166(3)
C1_10 C 0.8260(4) 0.8664(6) 0.06638(8)
C2_10 C 0.52821(19) 0.69806(18) 0.01610(4)
H1_10 H 0.5126 0.7158 0.0248
C3_10 C 0.40400(18) 0.66700(18) 0.00262(4)
C4_10 C 0.40450(18) 0.73777(18) 0.00252(4)
C9_10 C 0.60114(18) 0.70323(19) 0.01636(4)
C10_10 C 0.47917(18) 0.66723(18) 0.00312(4)
C12_10 C 0.6333(2) 0.7422(2) 0.04529(4)
H3_10 H 0.5807 0.7152 0.0478
C14_10 C 0.6566(2) 0.7427(2) 0.02945(4)
C16_10 C 0.62020(19) 0.66987(19) 0.00388(4)
H6_10 H 0.6674 0.6708 0.0041
C19_10 C 0.6870(3) 0.7811(2) 0.05727(5)
H9_10 H 0.6701 0.7792 0.0677
C20_10 C 0.7641(3) 0.8220(3) 0.05393(6)
C21_10 C 0.7345(3) 0.7849(4) 0.02602(6)
H10_10 H 0.7515 0.7870 0.0156
C22_10 C 0.7886(3) 0.8249(4) 0.03818(7)
H11_10 H 0.8412 0.8535 0.0357
C23_10 C 0.4798(2) 0.8126(2) 0.00153(5)
H12_10 H 0.4710 0.8551 0.0042
H13_10 H 0.5155 0.8121 0.0094
C25_10 C 0.30194(18) 0.83015(26) 0.01610(4)
H17_10 H 0.2842 0.7968 0.0248
C26_10 C 0.33300(18) 0.73700(25) 0.00262(4)
C27_10 C 0.26223(18) 0.66673(25) 0.00252(4)
C32_10 C 0.29677(19) 0.89791(26) 0.01636(4)
C33_10 C 0.33277(18) 0.81194(25) 0.00312(4)
C35_10 C 0.2578(2) 0.8911(3) 0.04529(4)
H19_10 H 0.2848 0.8655 0.0478
C37_10 C 0.2573(2) 0.9139(3) 0.02945(4)
C39_10 C 0.33013(19) 0.95033(27) 0.00388(4)
H22_10 H 0.3292 0.9966 0.0041
C42_10 C 0.2189(2) 0.9059(4) 0.05727(5)
H25_10 H 0.2208 0.8909 0.0677
C43_10 C 0.1780(3) 0.9421(4) 0.05393(6)
C44_10 C 0.2151(4) 0.9496(5) 0.02602(6)
H26_10 H 0.2130 0.9645 0.0156
C45_10 C 0.1751(4) 0.9637(5) 0.03818(7)
H27_10 H 0.1465 0.9877 0.0357
C46_10 C 0.1874(2) 0.6672(3) 0.00153(5)
H28_10 H 0.1449 0.6159 0.0042
H29_10 H 0.1879 0.7034 0.0094
C48_10 C 0.1336(6) 0.9596(7) 0.06638(8)
C49_10 C 0.16985(26) 0.47179(19) 0.01610(4)
H33_10 H 0.2032 0.4874 0.0248
C50_10 C 0.26300(25) 0.59600(18) 0.00262(4)
C51_10 C 0.33327(25) 0.59550(18) 0.00252(4)
C56_10 C 0.10209(26) 0.39886(18) 0.01636(4)
C57_10 C 0.18806(25) 0.52083(18) 0.00312(4)
C59_10 C 0.1089(3) 0.3667(2) 0.04529(4)
H35_10 H 0.1345 0.4193 0.0478
C61_10 C 0.0861(3) 0.3434(2) 0.02945(4)
C63_10 C 0.04967(27) 0.37980(19) 0.00388(4)
H38_10 H 0.0034 0.3326 0.0041
C66_10 C 0.0941(4) 0.3130(3) 0.05727(5)
H41_10 H 0.1091 0.3299 0.0677
C67_10 C 0.0579(4) 0.2359(3) 0.05393(6)
C68_10 C 0.0504(5) 0.2655(3) 0.02602(6)
H42_10 H 0.0355 0.2485 0.0156
C69_10 C 0.0363(5) 0.2114(3) 0.03818(7)
H43_10 H 0.0123 0.1588 0.0357
C70_10 C 0.3328(3) 0.5202(2) 0.00153(5)
H44_10 H 0.3841 0.5290 0.0042
H45_10 H 0.2966 0.4845 0.0094
C72_10 C 0.0404(7) 0.1740(4) 0.06638(8)
O3_10 O 0.57303(14) 0.39503(15) 0.94016(3)
O4_10 O 0.70039(21) 0.47856(15) 0.94166(3)
C5_10 C 0.63010(19) 0.45488(19) 0.94520(4)
C6_10 C 0.58728(18) 0.59338(18) 0.97846(4)
C7_10 C 0.57014(18) 0.63483(18) 0.99088(4)
C8_10 C 0.61563(19) 0.50516(19) 0.95623(4)
C11_10 C 0.50082(18) 0.63643(18) 0.99058(4)
H2_10 H 0.4683 0.6163 0.9817
C13_10 C 0.66160(19) 0.6197(2) 0.97251(4)
H4_10 H 0.7022 0.6672 0.9760
C15_10 C 0.52744(19) 0.52215(19) 0.97271(4)
H5_10 H 0.4771 0.5036 0.9764
C17_10 C 0.6761(2) 0.5762(2) 0.96153(4)
H7_10 H 0.7262 0.5944 0.9577
C18_10 C 0.54137(19) 0.4799(2) 0.96192(4)
H8_10 H 0.5004 0.4332 0.9583
C24_10 C 0.5171(3) 0.8267(3) 0.98471(7)
H14_10 H 0.5653 0.8751 0.9847
H15_10 H 0.5266 0.7852 0.9821
H16_10 H 0.4825 0.8287 0.9769
C29_10 C 0.40662(18) 0.99390(25) 0.97846(4)
C30_10 C 0.36517(18) 0.93531(25) 0.99088(4)
C34_10 C 0.36357(18) 0.86439(25) 0.99058(4)
H18_10 H 0.3837 0.8520 0.9817
H21_10 H 0.4964 0.9735 0.9764
C47_10 C 0.1733(3) 0.6904(4) 0.98471(7)
H30_10 H 0.1249 0.6902 0.9847
H31_10 H 0.2148 0.7414 0.9821
H32_10 H 0.1713 0.6538 0.9769
C53_10 C 0.00610(25) 0.41272(18) 0.97846(4)
C54_10 C 0.06469(25) 0.42986(18) 0.99088(4)
C58_10 C 0.13561(25) 0.49918(18) 0.99058(4)
H34_10 H 0.1480 0.5317 0.9817
H37_10 H 0.0265 0.5229 0.9764
C71_10 C 0.3096(4) 0.4829(3) 0.98471(7)
H46_10 H 0.3098 0.4347 0.9847
H47_10 H 0.2586 0.4734 0.9821
H48_10 H 0.3462 0.5175 0.9769
O18_4 O 0.82200(21) 0.42697(14) 0.94016(3)
C52_10 C 0.82478(27) 0.36990(19) 0.94520(4)
C55_10 C 0.88953(27) 0.38437(19) 0.95623(4)
C60_10 C 0.95810(28) 0.33840(19) 0.97251(4)
H36_10 H 0.9650 0.2978 0.9760
C62_10 C 0.99471(27) 0.47256(19) 0.97271(4)
C64_10 C 0.9001(3) 0.3239(2) 0.96153(4)
H39_10 H 0.8682 0.2738 0.9577
C65_10 C 0.93853(28) 0.45863(19) 0.96192(4)
H40_10 H 0.9328 0.4996 0.9583
O17_8 O 0.0000 -0.0000 0.58686(4)
C1_11 C 0.1593(4) 0.5331(6) 0.73305(8)
O4_11 O 0.03372(21) 0.14523(15) 0.60833(3)
H4_11 H 0.0355 0.3339 0.6427
H6_11 H 0.0007 0.3375 0.6708
C17_11 C 0.0094(2) 0.2429(2) 0.62820(4)
H7_11 H 0.0595 0.2611 0.6244
C19_11 C 0.0203(3) 0.4478(2) 0.72394(5)
H9_11 H 0.0034 0.4459 0.7344
C20_11 C 0.0974(3) 0.4887(3) 0.72060(6)
C21_11 C 0.0678(3) 0.4516(4) 0.69269(6)
H10_11 H 0.0848 0.4537 0.6823
C22_11 C 0.1219(3) 0.4916(4) 0.70485(7)
H11_11 H 0.1745 0.5202 0.7024
O17_9 O 0.0000 1.0000 0.58686(4)
O18_5 O 0.15533(21) 0.09364(14) 0.60683(3)
O20_5 O 0.11150(26) 0.96628(21) 0.60833(3)
O17_10 O 1.0000 -0.0000 0.58686(4)
O3_11 O 0.90636(14) 0.06170(15) 0.60683(3)
C2_11 C 0.86154(19) 0.36473(18) 0.68277(4)
H1_11 H 0.8459 0.3825 0.6915
C3_11 C 0.73733(18) 0.33367(18) 0.66929(4)
C4_11 C 0.73783(18) 0.40444(18) 0.66919(4)
C5_11 C 0.96343(19) 0.12155(19) 0.61187(4)
C6_11 C 0.92061(18) 0.26005(18) 0.64513(4)
C7_11 C 0.90347(18) 0.30150(18) 0.65755(4)
C8_11 C 0.94896(19) 0.17183(19) 0.62290(4)
C9_11 C 0.93447(18) 0.36990(19) 0.68303(4)
C10_11 C 0.81250(18) 0.33390(18) 0.66979(4)
C11_11 C 0.83415(18) 0.30310(18) 0.65725(4)
H2_11 H 0.8016 0.2830 0.6484
C12_11 C 0.9666(2) 0.4089(2) 0.71196(4)
H3_11 H 0.9140 0.3819 0.7145
C13_11 C 0.99493(19) 0.2864(2) 0.63918(4)
C14_11 C 0.9899(2) 0.4094(2) 0.69612(4)
C15_11 C 0.86077(19) 0.18882(19) 0.63938(4)
H5_11 H 0.8104 0.1703 0.6431
C16_11 C 0.95353(19) 0.33654(19) 0.67055(4)
C18_11 C 0.87470(19) 0.1466(2) 0.62859(4)
H8_11 H 0.8337 0.0999 0.6250
C23_11 C 0.8131(2) 0.4793(2) 0.66820(5)
H12_11 H 0.8043 0.5218 0.6709
H13_11 H 0.8488 0.4788 0.6761
C24_11 C 0.8504(3) 0.4934(3) 0.65138(7)
H14_11 H 0.8986 0.5418 0.6514
H15_11 H 0.8599 0.4519 0.6488
H16_11 H 0.8158 0.4954 0.6436
O6_11 O 0.93830(15) 0.84467(21) 0.60683(3)
C25_11 C 0.63527(18) 0.49682(26) 0.68277(4)
H17_11 H 0.6175 0.4635 0.6915
C26_11 C 0.66633(18) 0.40367(25) 0.66929(4)
C27_11 C 0.59556(18) 0.33340(25) 0.66919(4)
C28_11 C 0.87845(19) 0.84189(27) 0.61187(4)
C29_11 C 0.73995(18) 0.66057(25) 0.64513(4)
C30_11 C 0.69850(18) 0.60198(25) 0.65755(4)
C31_11 C 0.82817(19) 0.77714(27) 0.62290(4)
C32_11 C 0.63010(19) 0.56458(26) 0.68303(4)
C33_11 C 0.66610(18) 0.47861(25) 0.66979(4)
C34_11 C 0.69690(18) 0.53106(25) 0.65725(4)
H18_11 H 0.7170 0.5187 0.6484
C35_11 C 0.5911(2) 0.5578(3) 0.71196(4)
H19_11 H 0.6181 0.5322 0.7145
C36_11 C 0.7136(2) 0.70857(28) 0.63918(4)
H20_11 H 0.6661 0.7017 0.6427
C37_11 C 0.5906(2) 0.5806(3) 0.69612(4)
C38_11 C 0.81118(19) 0.67196(27) 0.63938(4)
H21_11 H 0.8297 0.6402 0.6431
C39_11 C 0.66346(19) 0.61700(27) 0.67055(4)
H22_11 H 0.6625 0.6633 0.6708
C40_11 C 0.7571(2) 0.7666(3) 0.62820(4)
H23_11 H 0.7389 0.7985 0.6244
C41_11 C 0.8534(2) 0.72814(28) 0.62859(4)
H24_11 H 0.9001 0.7339 0.6250
C42_11 C 0.5522(2) 0.5726(4) 0.72394(5)
H25_11 H 0.5541 0.5576 0.7344
C43_11 C 0.5113(3) 0.6088(4) 0.72060(6)
C44_11 C 0.5484(4) 0.6163(5) 0.69269(6)
H26_11 H 0.5463 0.6312 0.6823
C45_11 C 0.5084(4) 0.6304(5) 0.70485(7)
H27_11 H 0.4798 0.6544 0.7024
C46_11 C 0.5207(2) 0.3339(3) 0.66820(5)
H28_11 H 0.4782 0.2826 0.6709
H29_11 H 0.5212 0.3701 0.6761
C47_11 C 0.5066(3) 0.3571(4) 0.65138(7)
H30_11 H 0.4582 0.3569 0.6514
H31_11 H 0.5481 0.4081 0.6488
H32_11 H 0.5046 0.3205 0.6436
C48_11 C 0.4669(6) 0.6263(7) 0.73305(8)
O9_5 O 0.85477(15) 0.88850(26) 0.60833(3)
C49_11 C 0.50318(26) 0.13846(19) 0.68277(4)
H33_11 H 0.5365 0.1541 0.6915
C50_11 C 0.59633(25) 0.26267(18) 0.66929(4)
C51_11 C 0.66660(25) 0.26217(18) 0.66919(4)
C52_11 C 0.15811(27) 0.03657(19) 0.61187(4)
C53_11 C 0.33943(25) 0.07939(18) 0.64513(4)
C54_11 C 0.39802(25) 0.09653(18) 0.65755(4)
C55_11 C 0.22286(27) 0.05104(19) 0.62290(4)
C56_11 C 0.43542(26) 0.06553(18) 0.68303(4)
C57_11 C 0.52139(25) 0.18750(18) 0.66979(4)
C58_11 C 0.46894(25) 0.16585(18) 0.65725(4)
H34_11 H 0.4813 0.1984 0.6484
C59_11 C 0.4422(3) 0.0334(2) 0.71196(4)
H35_11 H 0.4678 0.0860 0.7145
C60_11 C 0.29143(28) 0.00507(19) 0.63918(4)
C61_11 C 0.4194(3) 0.0101(2) 0.69612(4)
C62_11 C 0.32804(27) 0.13923(19) 0.63938(4)
H37_11 H 0.3598 0.1896 0.6431
C63_11 C 0.38300(27) 0.04647(19) 0.67055(4)
C65_11 C 0.27186(28) 0.12530(19) 0.62859(4)
H40_11 H 0.2661 0.1663 0.6250
C70_11 C 0.6661(3) 0.1869(2) 0.66820(5)
H44_11 H 0.7174 0.1957 0.6709
H45_11 H 0.6299 0.1512 0.6761
C71_11 C 0.6429(4) 0.1496(3) 0.65138(7)
H46_11 H 0.6431 0.1014 0.6514
H47_11 H 0.5919 0.1401 0.6488
H48_11 H 0.6795 0.1842 0.6436
O17_11 O 1.0000 1.0000 0.58686(4)
H36_11 H 0.2983 0.9645 0.6427
H38_11 H 0.3367 0.9993 0.6708
C64_11 C 0.2334(3) 0.9906(2) 0.62820(4)
H39_11 H 0.2015 0.9405 0.6244
C66_11 C 0.4274(4) 0.9797(3) 0.72394(5)
H41_11 H 0.4424 0.9966 0.7344
C67_11 C 0.3912(4) 0.9026(3) 0.72060(6)
C68_11 C 0.3837(5) 0.9322(3) 0.69269(6)
H42_11 H 0.3688 0.9152 0.6823
C69_11 C 0.3696(5) 0.8781(3) 0.70485(7)
H43_11 H 0.3456 0.8255 0.7024
C72_11 C 0.3737(7) 0.8407(4) 0.73305(8)
C1_12 C 0.4927(4) 0.1997(6) 0.39971(8)
C2_12 C 0.19488(19) 0.03139(18) 0.34943(4)
H1_12 H 0.1793 0.0491 0.3581
C3_12 C 0.07067(18) 0.00033(18) 0.33595(4)
C4_12 C 0.07117(18) 0.07110(18) 0.33585(4)
C9_12 C 0.26781(18) 0.03656(19) 0.34969(4)
C10_12 C 0.14584(18) 0.00056(18) 0.33645(4)
C12_12 C 0.3000(2) 0.0755(2) 0.37862(4)
H3_12 H 0.2474 0.0485 0.3811
H4_12 H 0.3689 0.0005 0.3093
C14_12 C 0.3233(2) 0.0760(2) 0.36278(4)
C16_12 C 0.28687(19) 0.00320(19) 0.33721(4)
H6_12 H 0.3341 0.0041 0.3374
C19_12 C 0.3537(3) 0.1144(2) 0.39060(5)
H9_12 H 0.3368 0.1125 0.4010
C20_12 C 0.4308(3) 0.1553(3) 0.38726(6)
C21_12 C 0.4012(3) 0.1182(4) 0.35935(6)
H10_12 H 0.4182 0.1203 0.3489
C22_12 C 0.4553(3) 0.1582(4) 0.37151(7)
H11_12 H 0.5079 0.1868 0.3690
C23_12 C 0.1465(2) 0.1459(2) 0.33486(5)
H12_12 H 0.1377 0.1884 0.3375
H13_12 H 0.1822 0.1454 0.3427
C24_12 C 0.1838(3) 0.1600(3) 0.31804(7)
H14_12 H 0.2320 0.2084 0.3180
H15_12 H 0.1933 0.1185 0.3154
H16_12 H 0.1492 0.1620 0.3102
O6_12 O 0.27164(15) 0.51133(21) 0.27349(3)
C28_12 C 0.21179(19) 0.50855(27) 0.27853(4)
C29_12 C 0.07329(18) 0.32723(25) 0.31179(4)
C30_12 C 0.03184(18) 0.26864(25) 0.32421(4)
C31_12 C 0.16151(19) 0.44380(27) 0.28956(4)
C34_12 C 0.03024(18) 0.19772(25) 0.32391(4)
H18_12 H 0.0504 0.1853 0.3150
C36_12 C 0.0470(2) 0.37523(28) 0.30584(4)
C38_12 C 0.14452(19) 0.33862(27) 0.30604(4)
H21_12 H 0.1631 0.3068 0.3097
C40_12 C 0.0905(2) 0.4332(3) 0.29486(4)
H23_12 H 0.0723 0.4651 0.2910
C41_12 C 0.1868(2) 0.39480(28) 0.29525(4)
H24_12 H 0.2335 0.4005 0.2916
O9_6 O 0.18811(15) 0.55516(26) 0.27499(3)
O17_12 O 0.3334 0.6666 0.25352(4)
O20_6 O 0.44484(26) 0.63294(21) 0.27499(3)
O3_12 O 0.23970(14) 0.72836(15) 0.27349(3)
O4_12 O 0.36706(21) 0.81189(15) 0.27499(3)
C5_12 C 0.29677(19) 0.78821(19) 0.27853(4)
C6_12 C 0.25395(18) 0.92671(18) 0.31179(4)
C7_12 C 0.23681(18) 0.96816(18) 0.32421(4)
C8_12 C 0.28230(19) 0.83849(19) 0.28956(4)
C11_12 C 0.16749(18) 0.96976(18) 0.32391(4)
H2_12 H 0.1350 0.9496 0.3150
C13_12 C 0.32827(19) 0.9530(2) 0.30584(4)
C15_12 C 0.19411(19) 0.85548(19) 0.30604(4)
H5_12 H 0.1438 0.8369 0.3097
C17_12 C 0.3428(2) 0.9095(2) 0.29486(4)
H7_12 H 0.3929 0.9277 0.2910
C18_12 C 0.20804(19) 0.8132(2) 0.29525(4)
H8_12 H 0.1671 0.7665 0.2916
H44_12 H 0.0508 0.8623 0.3375
H48_12 H 0.0129 0.8508 0.3102
O18_6 O 0.48867(21) 0.76030(14) 0.27349(3)
C25_12 C 0.96861(18) 0.16348(26) 0.34943(4)
H17_12 H 0.9509 0.1301 0.3581
C26_12 C 0.99967(18) 0.07033(25) 0.33595(4)
C27_12 C 0.92890(18) 0.00006(25) 0.33585(4)
C32_12 C 0.96344(19) 0.23124(26) 0.34969(4)
C33_12 C 0.99944(18) 0.14527(25) 0.33645(4)
C35_12 C 0.9245(2) 0.2244(3) 0.37862(4)
H19_12 H 0.9515 0.1988 0.3811
H20_12 H 0.9995 0.3683 0.3093
C37_12 C 0.9240(2) 0.2472(3) 0.36278(4)
C39_12 C 0.99680(19) 0.28366(27) 0.33721(4)
H22_12 H 0.9959 0.3299 0.3374
C42_12 C 0.8856(2) 0.2392(4) 0.39060(5)
H25_12 H 0.8875 0.2242 0.4010
C43_12 C 0.8447(3) 0.2754(4) 0.38726(6)
C44_12 C 0.8818(4) 0.2829(5) 0.35935(6)
H26_12 H 0.8797 0.2978 0.3489
C45_12 C 0.8418(4) 0.2970(5) 0.37151(7)
H27_12 H 0.8132 0.3210 0.3690
C46_12 C 0.8541(2) 0.0005(3) 0.33486(5)
H29_12 H 0.8546 0.0367 0.3427
C47_12 C 0.8400(3) 0.0237(4) 0.31804(7)
H30_12 H 0.7916 0.0235 0.3180
H31_12 H 0.8815 0.0747 0.3154
C48_12 C 0.8003(6) 0.2929(7) 0.39971(8)
H28_12 H 0.8116 0.9492 0.3375
H32_12 H 0.8380 0.9871 0.3102
C49_12 C 0.83652(26) 0.80512(19) 0.34943(4)
H33_12 H 0.8699 0.8207 0.3581
C50_12 C 0.92967(25) 0.92933(18) 0.33595(4)
C51_12 C 0.99994(25) 0.92883(18) 0.33585(4)
C52_12 C 0.49145(27) 0.70323(19) 0.27853(4)
C53_12 C 0.67277(25) 0.74605(18) 0.31179(4)
C54_12 C 0.73136(25) 0.76319(18) 0.32421(4)
C55_12 C 0.55620(27) 0.71770(19) 0.28956(4)
C56_12 C 0.76876(26) 0.73219(18) 0.34969(4)
C57_12 C 0.85473(25) 0.85416(18) 0.33645(4)
C58_12 C 0.80228(25) 0.83251(18) 0.32391(4)
H34_12 H 0.8147 0.8650 0.3150
C59_12 C 0.7756(3) 0.7000(2) 0.37862(4)
H35_12 H 0.8012 0.7526 0.3811
C60_12 C 0.62477(28) 0.67173(19) 0.30584(4)
H36_12 H 0.6317 0.6311 0.3093
C61_12 C 0.7528(3) 0.6767(2) 0.36278(4)
C62_12 C 0.66138(27) 0.80589(19) 0.30604(4)
H37_12 H 0.6932 0.8562 0.3097
C63_12 C 0.71634(27) 0.71313(19) 0.33721(4)
H38_12 H 0.6701 0.6659 0.3374
C64_12 C 0.5668(3) 0.6572(2) 0.29486(4)
H39_12 H 0.5349 0.6071 0.2910
C65_12 C 0.60520(28) 0.79196(19) 0.29525(4)
H40_12 H 0.5995 0.8329 0.2916
C66_12 C 0.7608(4) 0.6463(3) 0.39060(5)
H41_12 H 0.7758 0.6632 0.4010
C67_12 C 0.7246(4) 0.5692(3) 0.38726(6)
C68_12 C 0.7171(5) 0.5988(3) 0.35935(6)
H42_12 H 0.7022 0.5818 0.3489
C69_12 C 0.7030(5) 0.5447(3) 0.37151(7)
H43_12 H 0.6790 0.4921 0.3690
C70_12 C 0.9995(3) 0.8535(2) 0.33486(5)
H45_12 H 0.9633 0.8178 0.3427
C71_12 C 0.9763(4) 0.8162(3) 0.31804(7)
H46_12 H 0.9765 0.7680 0.3180
H47_12 H 0.9253 0.8067 0.3154
C72_12 C 0.7071(7) 0.5073(4) 0.39971(8)
loop_
_geom_bond_atom_site_label_1
_geom_bond_atom_site_label_2
_geom_bond_site_symmetry_1
_geom_bond_site_symmetry_2
O10 C52 1_555 1_555
C52 C55 1_555 1_555
C55 C64 1_555 1_555
H36 C60 1_555 1_555
C64 C60 1_555 1_555
H39 C64 1_555 1_555
C65 C55 1_555 1_555
H40 C65 1_555 1_555
O13 C52 1_555 1_555
Zn10 O13 1_555 1_555
Zn11 O10 1_555 1_555
C62 C65 1_555 1_555
Zn1 O2 1_555 1_555
Zn2 O2 1_555 1_555
O2 Zn11 1_555 1_555
O3 Zn2 1_555 1_555
O4 C5 1_555 1_555
C5 O3 1_555 1_555
C6 C7 1_555 1_555
C7 C11 1_555 1_555
C8 C5 1_555 1_555
H2 C11 1_555 1_555
C13 C6 1_555 1_555
H4 C13 1_555 1_555
C15 C6 1_555 1_555
H5 C15 1_555 1_555
C17 C8 1_555 1_555
H7 C17 1_555 1_555
C18 C8 1_555 1_555
H8 C18 1_555 1_555
H14 C24 1_555 1_555
H15 C24 1_555 1_555
H16 C24 1_555 1_555
C29 C30 1_555 1_555
C30 C34 1_555 1_555
H18 C34 1_555 1_555
H30 C47 1_555 1_555
H31 C47 1_555 1_555
H32 C47 1_555 1_555
C53 C54 1_555 1_555
C54 C58 1_555 1_555
H34 C58 1_555 1_555
H46 C71 1_555 1_555
H47 C71 1_555 1_555
H48 C71 1_555 1_555
Zn11 O4 1_555 1_555
O14 Zn1 1_555 1_555
O15 Zn1 1_555 1_555
O16 Zn1 1_555 1_555
Zn10 O2 1_555 1_555
O19 Zn2 1_555 1_555
O21 Zn11 1_555 1_555
O23 Zn2 1_555 1_555
C13 C17 1_555 1_555
C15 C18 1_555 1_555
O1 C1 1_555 1_555
C1 O5 1_555 1_555
C2 H1 1_555 1_555
C3 C4 1_555 1_555
C4 C23 1_555 1_555
C9 C2 1_555 1_555
C10 C2 1_555 1_555
C12 H3 1_555 1_555
C14 C9 1_555 1_555
H6 C16 1_555 1_555
O5 Zn14 1_555 1_555
C19 C12 1_555 1_555
H9 C19 1_555 1_555
C20 C1 1_555 1_555
C21 C14 1_555 1_555
H10 C21 1_555 1_555
C22 C20 1_555 1_555
H11 C22 1_555 1_555
C23 H12 1_555 1_555
H13 C23 1_555 1_555
C25 H17 1_555 1_555
C26 C4 1_555 1_555
C27 C26 1_555 1_555
C32 C25 1_555 1_555
C33 C25 1_555 1_555
C35 H19 1_555 1_555
C37 C32 1_555 1_555
H22 C39 1_555 1_555
C42 C35 1_555 1_555
H25 C42 1_555 1_555
C43 C42 1_555 1_555
C44 C37 1_555 1_555
H26 C44 1_555 1_555
C45 C43 1_555 1_555
H27 C45 1_555 1_555
C46 C27 1_555 1_555
H28 C46 1_555 1_555
H29 C46 1_555 1_555
O7 C48 1_555 1_555
C48 C43 1_555 1_555
O8 C48 1_555 1_555
C49 H33 1_555 1_555
C50 C27 1_555 1_555
C51 C3 1_555 1_555
C56 C49 1_555 1_555
C57 C49 1_555 1_555
C59 H35 1_555 1_555
C61 C56 1_555 1_555
H38 C63 1_555 1_555
C66 C59 1_555 1_555
H41 C66 1_555 1_555
C67 C66 1_555 1_555
C68 C61 1_555 1_555
H42 C68 1_555 1_555
C69 C67 1_555 1_555
H43 C69 1_555 1_555
C70 C51 1_555 1_555
H44 C70 1_555 1_555
H45 C70 1_555 1_555
O11 C72 1_555 1_555
C72 C67 1_555 1_555
O12 C72 1_555 1_555
Zn7 O1 1_555 1_555
Zn7_3 O7 1_555 1_555
Zn7_4 O11 1_555 1_555
Zn12 O12 1_555 1_555
Zn13 O8 1_555 1_555
C3 C10 1_555 1_555
C9 C16 1_555 1_555
C12 C14 1_555 1_555
C19 C20 1_555 1_555
C21 C22 1_555 1_555
C26 C33 1_555 1_555
C32 C39 1_555 1_555
C35 C37 1_555 1_555
C44 C45 1_555 1_555
C50 C51 1_555 1_555
C50 C57 1_555 1_555
C56 C63 1_555 1_555
C59 C61 1_555 1_555
C68 C69 1_555 1_555
O6 C28 1_555 1_555
C28 C31 1_555 1_555
C31 C40 1_555 1_555
H20 C36 1_555 1_555
C40 C36 1_555 1_555
H23 C40 1_555 1_555
C41 C31 1_555 1_555
H24 C41 1_555 1_555
O19 C28 1_555 1_555
Zn10 O6 1_555 1_555
O22 Zn10 1_555 1_555
C38 C41 1_555 1_555
Zn1_2 O2_2 1_555 1_555
Zn2_2 O2_2 1_555 1_555
H39_2 C64_2 1_555 1_555
H41_2 C66_2 1_555 1_555
C67_2 C66_2 1_555 1_555
H42_2 C68_2 1_555 1_555
C69_2 C67_2 1_555 1_555
H43_2 C69_2 1_555 1_555
O11_2 C72_2 1_555 1_555
C72_2 C67_2 1_555 1_555
O12_2 C72_2 1_555 1_555
O16_2 Zn1_2 1_555 1_555
Zn7_5 O11_2 1_555 1_555
Zn10_2 O13_2 1_555 1_555
Zn12_2 O12_2 1_555 1_555
O19_2 Zn2_2 1_555 1_555
O23_2 Zn2_2 1_555 1_555
C68_2 C69_2 1_555 1_555
Zn1_3 O2_3 1_555 1_555
C2_2 H1_2 1_555 1_555
C3_2 C4_2 1_555 1_555
C4_2 C23_2 1_555 1_555
C5_2 O3_2 1_555 1_555
C6_2 C7_2 1_555 1_555
C7_2 C11_2 1_555 1_555
C8_2 C5_2 1_555 1_555
C9_2 C2_2 1_555 1_555
C10_2 C2_2 1_555 1_555
C11_2 C10_2 1_555 1_555
H2_2 C11_2 1_555 1_555
C12_2 H3_2 1_555 1_555
C13_2 C6_2 1_555 1_555
C14_2 C9_2 1_555 1_555
C15_2 C6_2 1_555 1_555
H5_2 C15_2 1_555 1_555
C16_2 C7_2 1_555 1_555
C18_2 C8_2 1_555 1_555
H8_2 C18_2 1_555 1_555
C23_2 H12_2 1_555 1_555
H13_2 C23_2 1_555 1_555
C24_2 C23_2 1_555 1_555
H14_2 C24_2 1_555 1_555
H15_2 C24_2 1_555 1_555
H16_2 C24_2 1_555 1_555
O6_2 C28_2 1_555 1_555
C25_2 H17_2 1_555 1_555
C26_2 C4_2 1_555 1_555
C27_2 C26_2 1_555 1_555
C28_2 C31_2 1_555 1_555
C29_2 C30_2 1_555 1_555
C30_2 C34_2 1_555 1_555
C31_2 C40_2 1_555 1_555
C32_2 C25_2 1_555 1_555
C33_2 C25_2 1_555 1_555
C34_2 C33_2 1_555 1_555
H18_2 C34_2 1_555 1_555
C35_2 H19_2 1_555 1_555
C36_2 C29_2 1_555 1_555
H20_2 C36_2 1_555 1_555
C37_2 C32_2 1_555 1_555
C38_2 C29_2 1_555 1_555
H21_2 C38_2 1_555 1_555
C39_2 C30_2 1_555 1_555
H22_2 C39_2 1_555 1_555
C40_2 C36_2 1_555 1_555
H23_2 C40_2 1_555 1_555
C41_2 C31_2 1_555 1_555
H24_2 C41_2 1_555 1_555
C42_2 C35_2 1_555 1_555
H25_2 C42_2 1_555 1_555
C43_2 C42_2 1_555 1_555
C44_2 C37_2 1_555 1_555
H26_2 C44_2 1_555 1_555
C45_2 C43_2 1_555 1_555
H27_2 C45_2 1_555 1_555
C46_2 C27_2 1_555 1_555
H28_2 C46_2 1_555 1_555
H29_2 C46_2 1_555 1_555
C47_2 C46_2 1_555 1_555
H30_2 C47_2 1_555 1_555
H31_2 C47_2 1_555 1_555
H32_2 C47_2 1_555 1_555
O7_2 C48_2 1_555 1_555
C48_2 C43_2 1_555 1_555
O8_2 C48_2 1_555 1_555
O19_2 C28_2 1_555 1_555
O10_2 C52_2 1_555 1_555
C49_2 H33_2 1_555 1_555
C50_2 C27_2 1_555 1_555
C51_2 C3_2 1_555 1_555
C52_2 C55_2 1_555 1_555
C53_2 C54_2 1_555 1_555
C54_2 C58_2 1_555 1_555
C56_2 C49_2 1_555 1_555
C57_2 C49_2 1_555 1_555
C58_2 C57_2 1_555 1_555
H34_2 C58_2 1_555 1_555
C59_2 H35_2 1_555 1_555
C60_2 C53_2 1_555 1_555
C61_2 C56_2 1_555 1_555
C62_2 C53_2 1_555 1_555
H37_2 C62_2 1_555 1_555
C63_2 C54_2 1_555 1_555
C65_2 C55_2 1_555 1_555
H40_2 C65_2 1_555 1_555
C70_2 C51_2 1_555 1_555
H44_2 C70_2 1_555 1_555
H45_2 C70_2 1_555 1_555
C71_2 C70_2 1_555 1_555
H46_2 C71_2 1_555 1_555
H47_2 C71_2 1_555 1_555
H48_2 C71_2 1_555 1_555
Zn7_5 O7_2 1_555 1_555
Zn11_2 O10_2 1_555 1_555
Zn13_2 O8_2 1_555 1_555
C3_2 C10_2 1_555 1_555
C9_2 C16_2 1_555 1_555
C12_2 C14_2 1_555 1_555
C15_2 C18_2 1_555 1_555
C26_2 C33_2 1_555 1_555
C32_2 C39_2 1_555 1_555
C35_2 C37_2 1_555 1_555
C38_2 C41_2 1_555 1_555
C44_2 C45_2 1_555 1_555
C50_2 C51_2 1_555 1_555
C50_2 C57_2 1_555 1_555
C56_2 C63_2 1_555 1_555
C59_2 C61_2 1_555 1_555
C62_2 C65_2 1_555 1_555
Zn1_4 O2_4 1_555 1_555
O15_2 Zn1_4 1_555 1_555
Zn10_2 O2_4 1_555 1_555
O1_2 C1_2 1_555 1_555
C1_2 O5_2 1_555 1_555
Zn1_5 O2_5 1_555 1_555
O2_5 Zn11_2 1_555 1_555
H7_2 C17_2 1_555 1_555
O5_2 Zn14_2 1_555 1_555
H9_2 C19_2 1_555 1_555
C20_2 C1_2 1_555 1_555
H10_2 C21_2 1_555 1_555
C22_2 C20_2 1_555 1_555
H11_2 C22_2 1_555 1_555
Zn11_2 O4_2 1_555 1_555
O14_2 Zn1_5 1_555 1_555
Zn7_5 O1_2 1_555 1_555
O21_2 Zn11_2 1_555 1_555
O22_2 Zn10_2 1_555 1_555
C19_2 C20_2 1_555 1_555
C21_2 C22_2 1_555 1_555
O10_3 C52_3 1_555 1_555
C49_3 H33_3 1_555 1_555
C52_3 C55_3 1_555 1_555
C53_3 C54_3 1_555 1_555
C54_3 C58_3 1_555 1_555
C55_3 C64_3 1_555 1_555
C56_3 C49_3 1_555 1_555
C57_3 C49_3 1_555 1_555
C58_3 C57_3 1_555 1_555
H34_3 C58_3 1_555 1_555
C59_3 H35_3 1_555 1_555
C60_3 C53_3 1_555 1_555
H36_3 C60_3 1_555 1_555
C61_3 C56_3 1_555 1_555
C62_3 C53_3 1_555 1_555
H37_3 C62_3 1_555 1_555
C63_3 C54_3 1_555 1_555
H38_3 C63_3 1_555 1_555
C64_3 C60_3 1_555 1_555
H39_3 C64_3 1_555 1_555
C65_3 C55_3 1_555 1_555
H40_3 C65_3 1_555 1_555
C66_3 C59_3 1_555 1_555
H41_3 C66_3 1_555 1_555
C67_3 C66_3 1_555 1_555
C68_3 C61_3 1_555 1_555
H42_3 C68_3 1_555 1_555
C69_3 C67_3 1_555 1_555
H43_3 C69_3 1_555 1_555
C70_3 C51_3 1_555 1_555
H45_3 C70_3 1_555 1_555
C71_3 C70_3 1_555 1_555
H46_3 C71_3 1_555 1_555
H47_3 C71_3 1_555 1_555
O11_3 C72_3 1_555 1_555
C72_3 C67_3 1_555 1_555
O12_3 C72_3 1_555 1_555
O13_3 C52_3 1_555 1_555
Zn7_6 O11_3 1_555 1_555
Zn10_3 O13_3 1_555 1_555
Zn11_3 O10_3 1_555 1_555
Zn12_3 O12_3 1_555 1_555
C50_3 C51_3 1_555 1_555
C50_3 C57_3 1_555 1_555
C56_3 C63_3 1_555 1_555
C59_3 C61_3 1_555 1_555
C62_3 C65_3 1_555 1_555
C68_3 C69_3 1_555 1_555
C25_3 H17_3 1_555 1_555
C27_3 C26_3 1_555 1_555
C32_3 C25_3 1_555 1_555
C33_3 C25_3 1_555 1_555
C35_3 H19_3 1_555 1_555
C37_3 C32_3 1_555 1_555
H22_3 C39_3 1_555 1_555
C42_3 C35_3 1_555 1_555
H25_3 C42_3 1_555 1_555
C43_3 C42_3 1_555 1_555
C44_3 C37_3 1_555 1_555
H26_3 C44_3 1_555 1_555
C45_3 C43_3 1_555 1_555
H27_3 C45_3 1_555 1_555
C46_3 C27_3 1_555 1_555
H29_3 C46_3 1_555 1_555
C47_3 C46_3 1_555 1_555
H30_3 C47_3 1_555 1_555
H31_3 C47_3 1_555 1_555
O7_3 C48_3 1_555 1_555
C48_3 C43_3 1_555 1_555
O8_3 C48_3 1_555 1_555
Zn7_6 O7_3 1_555 1_555
Zn13_3 O8_3 1_555 1_555
C26_3 C33_3 1_555 1_555
C32_3 C39_3 1_555 1_555
C35_3 C37_3 1_555 1_555
C44_3 C45_3 1_555 1_555
Zn1_6 O2_6 1_555 1_555
Zn2_3 O2_6 1_555 1_555
O2_6 Zn11_3 1_555 1_555
O3_3 Zn2_3 1_555 1_555
O4_3 C5_3 1_555 1_555
C5_3 O3_3 1_555 1_555
C6_3 C7_3 1_555 1_555
C7_3 C11_3 1_555 1_555
C8_3 C5_3 1_555 1_555
H2_3 C11_3 1_555 1_555
C13_3 C6_3 1_555 1_555
C15_3 C6_3 1_555 1_555
H5_3 C15_3 1_555 1_555
C17_3 C8_3 1_555 1_555
H7_3 C17_3 1_555 1_555
C18_3 C8_3 1_555 1_555
H8_3 C18_3 1_555 1_555
Zn11_3 O4_3 1_555 1_555
O14_3 Zn1_6 1_555 1_555
O15_3 Zn1_6 1_555 1_555
O16_3 Zn1_6 1_555 1_555
Zn10_3 O2_6 1_555 1_555
O19_3 Zn2_3 1_555 1_555
O21_3 Zn11_3 1_555 1_555
O23_3 Zn2_3 1_555 1_555
C13_3 C17_3 1_555 1_555
C15_3 C18_3 1_555 1_555
O1_3 C1_3 1_555 1_555
C1_3 O5_3 1_555 1_555
C2_3 H1_3 1_555 1_555
C3_3 C4_3 1_555 1_555
C4_3 C23_3 1_555 1_555
C9_3 C2_3 1_555 1_555
C10_3 C2_3 1_555 1_555
C12_3 H3_3 1_555 1_555
C14_3 C9_3 1_555 1_555
H6_3 C16_3 1_555 1_555
O5_3 Zn14_3 1_555 1_555
C19_3 C12_3 1_555 1_555
H9_3 C19_3 1_555 1_555
C20_3 C1_3 1_555 1_555
C21_3 C14_3 1_555 1_555
H10_3 C21_3 1_555 1_555
C22_3 C20_3 1_555 1_555
H11_3 C22_3 1_555 1_555
C23_3 H12_3 1_555 1_555
H13_3 C23_3 1_555 1_555
C24_3 C23_3 1_555 1_555
H14_3 C24_3 1_555 1_555
H15_3 C24_3 1_555 1_555
H16_3 C24_3 1_555 1_555
O6_3 C28_3 1_555 1_555
C28_3 C31_3 1_555 1_555
C29_3 C30_3 1_555 1_555
C30_3 C34_3 1_555 1_555
C31_3 C40_3 1_555 1_555
H18_3 C34_3 1_555 1_555
C36_3 C29_3 1_555 1_555
C38_3 C29_3 1_555 1_555
H21_3 C38_3 1_555 1_555
C40_3 C36_3 1_555 1_555
H23_3 C40_3 1_555 1_555
C41_3 C31_3 1_555 1_555
H24_3 C41_3 1_555 1_555
O19_3 C28_3 1_555 1_555
Zn10_3 O6_3 1_555 1_555
Zn7_6 O1_3 1_555 1_555
O22_3 Zn10_3 1_555 1_555
C3_3 C10_3 1_555 1_555
C9_3 C16_3 1_555 1_555
C12_3 C14_3 1_555 1_555
C19_3 C20_3 1_555 1_555
C21_3 C22_3 1_555 1_555
C38_3 C41_3 1_555 1_555
O6_4 C28_4 1_555 1_555
C28_4 C31_4 1_555 1_555
C31_4 C40_4 1_555 1_555
H20_4 C36_4 1_555 1_555
C40_4 C36_4 1_555 1_555
H23_4 C40_4 1_555 1_555
C41_4 C31_4 1_555 1_555
H24_4 C41_4 1_555 1_555
O9 C28_4 1_555 1_555
Zn13_3 O6_4 1_555 1_555
Zn12_3 O9 1_555 1_555
O17 Zn13_3 1_555 1_555
O20 Zn13_3 1_555 1_555
C38_4 C41_4 1_555 1_555
Zn12_3 O17 1_555 1_555
O14_2 C1_4 1_555 1_555
C1_4 O21_2 1_555 1_555
Zn7_6 O17 1_555 1_555
O17 Zn14_3 1_555 1_555
O3_4 Zn12_3 1_555 1_555
O4_4 C5_4 1_555 1_555
C2_4 H1_4 1_555 1_555
C3_4 C4_4 1_555 1_555
C4_4 C23_4 1_555 1_555
C5_4 O3_4 1_555 1_555
C6_4 C7_4 1_555 1_555
C7_4 C11_4 1_555 1_555
C8_4 C5_4 1_555 1_555
C9_4 C2_4 1_555 1_555
C10_4 C2_4 1_555 1_555
C11_4 C10_4 1_555 1_555
H2_4 C11_4 1_555 1_555
C12_4 H3_4 1_555 1_555
C13_4 C6_4 1_555 1_555
H4_4 C13_4 1_555 1_555
C14_4 C9_4 1_555 1_555
C15_4 C6_4 1_555 1_555
H5_4 C15_4 1_555 1_555
C16_4 C7_4 1_555 1_555
H6_4 C16_4 1_555 1_555
C17_4 C8_4 1_555 1_555
H7_4 C17_4 1_555 1_555
C18_4 C8_4 1_555 1_555
H8_4 C18_4 1_555 1_555
C19_4 C12_4 1_555 1_555
H9_4 C19_4 1_555 1_555
C20_4 C1_4 1_555 1_555
C21_4 C14_4 1_555 1_555
H10_4 C21_4 1_555 1_555
C22_4 C20_4 1_555 1_555
H11_4 C22_4 1_555 1_555
C23_4 H12_4 1_555 1_555
H13_4 C23_4 1_555 1_555
C24_4 C23_4 1_555 1_555
H14_4 C24_4 1_555 1_555
H15_4 C24_4 1_555 1_555
H16_4 C24_4 1_555 1_555
C25_4 H17_4 1_555 1_555
C26_4 C4_4 1_555 1_555
C27_4 C26_4 1_555 1_555
C29_4 C30_4 1_555 1_555
C30_4 C34_4 1_555 1_555
C32_4 C25_4 1_555 1_555
C33_4 C25_4 1_555 1_555
C34_4 C33_4 1_555 1_555
H18_4 C34_4 1_555 1_555
C35_4 H19_4 1_555 1_555
C37_4 C32_4 1_555 1_555
C39_4 C30_4 1_555 1_555
H22_4 C39_4 1_555 1_555
C42_4 C35_4 1_555 1_555
H25_4 C42_4 1_555 1_555
C43_4 C42_4 1_555 1_555
C44_4 C37_4 1_555 1_555
H26_4 C44_4 1_555 1_555
C45_4 C43_4 1_555 1_555
H27_4 C45_4 1_555 1_555
C46_4 C27_4 1_555 1_555
H28_4 C46_4 1_555 1_555
H29_4 C46_4 1_555 1_555
C47_4 C46_4 1_555 1_555
H30_4 C47_4 1_555 1_555
H31_4 C47_4 1_555 1_555
H32_4 C47_4 1_555 1_555
O15_2 C48_4 1_555 1_555
C48_4 C43_4 1_555 1_555
O22_2 C48_4 1_555 1_555
C49_4 H33_4 1_555 1_555
C50_4 C27_4 1_555 1_555
C51_4 C3_4 1_555 1_555
C53_4 C54_4 1_555 1_555
C54_4 C58_4 1_555 1_555
C56_4 C49_4 1_555 1_555
C57_4 C49_4 1_555 1_555
C58_4 C57_4 1_555 1_555
H34_4 C58_4 1_555 1_555
C59_4 H35_4 1_555 1_555
C61_4 C56_4 1_555 1_555
C63_4 C54_4 1_555 1_555
H38_4 C63_4 1_555 1_555
C66_4 C59_4 1_555 1_555
H41_4 C66_4 1_555 1_555
C67_4 C66_4 1_555 1_555
C68_4 C61_4 1_555 1_555
H42_4 C68_4 1_555 1_555
C69_4 C67_4 1_555 1_555
H43_4 C69_4 1_555 1_555
C70_4 C51_4 1_555 1_555
H44_4 C70_4 1_555 1_555
H45_4 C70_4 1_555 1_555
C71_4 C70_4 1_555 1_555
H46_4 C71_4 1_555 1_555
H47_4 C71_4 1_555 1_555
H48_4 C71_4 1_555 1_555
O16_2 C72_4 1_555 1_555
C72_4 C67_4 1_555 1_555
O23_2 C72_4 1_555 1_555
Zn14_3 O4_4 1_555 1_555
O18 Zn14_3 1_555 1_555
C3_4 C10_4 1_555 1_555
C9_4 C16_4 1_555 1_555
C12_4 C14_4 1_555 1_555
C13_4 C17_4 1_555 1_555
C15_4 C18_4 1_555 1_555
C19_4 C20_4 1_555 1_555
C21_4 C22_4 1_555 1_555
C26_4 C33_4 1_555 1_555
C32_4 C39_4 1_555 1_555
C35_4 C37_4 1_555 1_555
C44_4 C45_4 1_555 1_555
C50_4 C51_4 1_555 1_555
C50_4 C57_4 1_555 1_555
C56_4 C63_4 1_555 1_555
C59_4 C61_4 1_555 1_555
C68_4 C69_4 1_555 1_555
O18 C52_4 1_555 1_555
C52_4 C55_4 1_555 1_555
C55_4 C64_4 1_555 1_555
H36_4 C60_4 1_555 1_555
C64_4 C60_4 1_555 1_555
H39_4 C64_4 1_555 1_555
C65_4 C55_4 1_555 1_555
H40_4 C65_4 1_555 1_555
O20 C52_4 1_555 1_555
C62_4 C65_4 1_555 1_555
O14 C1_5 1_555 1_555
C1_5 O21 1_555 1_555
C2_5 H1_5 1_555 1_555
C3_5 C4_5 1_555 1_555
C4_5 C23_5 1_555 1_555
C9_5 C2_5 1_555 1_555
C10_5 C2_5 1_555 1_555
C12_5 H3_5 1_555 1_555
C14_5 C9_5 1_555 1_555
H6_5 C16_5 1_555 1_555
C19_5 C12_5 1_555 1_555
H9_5 C19_5 1_555 1_555
C20_5 C1_5 1_555 1_555
C21_5 C14_5 1_555 1_555
H10_5 C21_5 1_555 1_555
C22_5 C20_5 1_555 1_555
H11_5 C22_5 1_555 1_555
C23_5 H12_5 1_555 1_555
H13_5 C23_5 1_555 1_555
C24_5 C23_5 1_555 1_555
H14_5 C24_5 1_555 1_555
H15_5 C24_5 1_555 1_555
H16_5 C24_5 1_555 1_555
O6_5 C28_5 1_555 1_555
C28_5 C31_5 1_555 1_555
C29_5 C30_5 1_555 1_555
C30_5 C34_5 1_555 1_555
C31_5 C40_5 1_555 1_555
H18_5 C34_5 1_555 1_555
C36_5 C29_5 1_555 1_555
C38_5 C29_5 1_555 1_555
H21_5 C38_5 1_555 1_555
C40_5 C36_5 1_555 1_555
H23_5 C40_5 1_555 1_555
C41_5 C31_5 1_555 1_555
H24_5 C41_5 1_555 1_555
O9_2 C28_5 1_555 1_555
Zn13_2 O6_5 1_555 1_555
Zn12_2 O9_2 1_555 1_555
O17_2 Zn13_2 1_555 1_555
O20_2 Zn13_2 1_555 1_555
C3_5 C10_5 1_555 1_555
C9_5 C16_5 1_555 1_555
C12_5 C14_5 1_555 1_555
C19_5 C20_5 1_555 1_555
C21_5 C22_5 1_555 1_555
C38_5 C41_5 1_555 1_555
Zn12_2 O17_2 1_555 1_555
C25_5 H17_5 1_555 1_555
C27_5 C26_5 1_555 1_555
C32_5 C25_5 1_555 1_555
C33_5 C25_5 1_555 1_555
C35_5 H19_5 1_555 1_555
C37_5 C32_5 1_555 1_555
H22_5 C39_5 1_555 1_555
C42_5 C35_5 1_555 1_555
H25_5 C42_5 1_555 1_555
C43_5 C42_5 1_555 1_555
C44_5 C37_5 1_555 1_555
H26_5 C44_5 1_555 1_555
C45_5 C43_5 1_555 1_555
H27_5 C45_5 1_555 1_555
C46_5 C27_5 1_555 1_555
H29_5 C46_5 1_555 1_555
C47_5 C46_5 1_555 1_555
H30_5 C47_5 1_555 1_555
H31_5 C47_5 1_555 1_555
O15 C48_5 1_555 1_555
C48_5 C43_5 1_555 1_555
O22 C48_5 1_555 1_555
C26_5 C33_5 1_555 1_555
C32_5 C39_5 1_555 1_555
C35_5 C37_5 1_555 1_555
C44_5 C45_5 1_555 1_555
Zn7_5 O17_2 1_555 1_555
O17_2 Zn14_2 1_555 1_555
O3_5 Zn12_2 1_555 1_555
O4_5 C5_5 1_555 1_555
C5_5 O3_5 1_555 1_555
C6_5 C7_5 1_555 1_555
C7_5 C11_5 1_555 1_555
C8_5 C5_5 1_555 1_555
H2_5 C11_5 1_555 1_555
C13_5 C6_5 1_555 1_555
C15_5 C6_5 1_555 1_555
H5_5 C15_5 1_555 1_555
C17_5 C8_5 1_555 1_555
H7_5 C17_5 1_555 1_555
C18_5 C8_5 1_555 1_555
H8_5 C18_5 1_555 1_555
Zn14_2 O4_5 1_555 1_555
O18_2 Zn14_2 1_555 1_555
C13_5 C17_5 1_555 1_555
C15_5 C18_5 1_555 1_555
O18_2 C52_5 1_555 1_555
C49_5 H33_5 1_555 1_555
C52_5 C55_5 1_555 1_555
C53_5 C54_5 1_555 1_555
C54_5 C58_5 1_555 1_555
C55_5 C64_5 1_555 1_555
C56_5 C49_5 1_555 1_555
C57_5 C49_5 1_555 1_555
C58_5 C57_5 1_555 1_555
H34_5 C58_5 1_555 1_555
C59_5 H35_5 1_555 1_555
C60_5 C53_5 1_555 1_555
H36_5 C60_5 1_555 1_555
C61_5 C56_5 1_555 1_555
C62_5 C53_5 1_555 1_555
H37_5 C62_5 1_555 1_555
C63_5 C54_5 1_555 1_555
H38_5 C63_5 1_555 1_555
C64_5 C60_5 1_555 1_555
H39_5 C64_5 1_555 1_555
C65_5 C55_5 1_555 1_555
H40_5 C65_5 1_555 1_555
C66_5 C59_5 1_555 1_555
H41_5 C66_5 1_555 1_555
C67_5 C66_5 1_555 1_555
C68_5 C61_5 1_555 1_555
H42_5 C68_5 1_555 1_555
C69_5 C67_5 1_555 1_555
H43_5 C69_5 1_555 1_555
C70_5 C51_5 1_555 1_555
H45_5 C70_5 1_555 1_555
C71_5 C70_5 1_555 1_555
H46_5 C71_5 1_555 1_555
H47_5 C71_5 1_555 1_555
O16 C72_5 1_555 1_555
C72_5 C67_5 1_555 1_555
O23 C72_5 1_555 1_555
O20_2 C52_5 1_555 1_555
C50_5 C51_5 1_555 1_555
C50_5 C57_5 1_555 1_555
C56_5 C63_5 1_555 1_555
C59_5 C61_5 1_555 1_555
C62_5 C65_5 1_555 1_555
C68_5 C69_5 1_555 1_555
O14_3 C1_6 1_555 1_555
C1_6 O21_3 1_555 1_555
Zn7 O17_3 1_555 1_555
O17_3 Zn14 1_555 1_555
H7_6 C17_6 1_555 1_555
H9_6 C19_6 1_555 1_555
C20_6 C1_6 1_555 1_555
H10_6 C21_6 1_555 1_555
C22_6 C20_6 1_555 1_555
H11_6 C22_6 1_555 1_555
Zn14 O4_6 1_555 1_555
O17_5 Zn13 1_555 1_555
O18_3 Zn14 1_555 1_555
O20_3 Zn13 1_555 1_555
C19_6 C20_6 1_555 1_555
C21_6 C22_6 1_555 1_555
Zn7_2 O17_4 1_555 1_555
C2_6 H1_6 1_555 1_555
C3_6 C4_6 1_555 1_555
C4_6 C23_6 1_555 1_555
C5_6 O3_6 1_555 1_555
C6_6 C7_6 1_555 1_555
C7_6 C11_6 1_555 1_555
C8_6 C5_6 1_555 1_555
C9_6 C2_6 1_555 1_555
C10_6 C2_6 1_555 1_555
C11_6 C10_6 1_555 1_555
H2_6 C11_6 1_555 1_555
C12_6 H3_6 1_555 1_555
C13_6 C6_6 1_555 1_555
C14_6 C9_6 1_555 1_555
C15_6 C6_6 1_555 1_555
H5_6 C15_6 1_555 1_555
C16_6 C7_6 1_555 1_555
C18_6 C8_6 1_555 1_555
H8_6 C18_6 1_555 1_555
C23_6 H12_6 1_555 1_555
H13_6 C23_6 1_555 1_555
C24_6 C23_6 1_555 1_555
H14_6 C24_6 1_555 1_555
H15_6 C24_6 1_555 1_555
H16_6 C24_6 1_555 1_555
O6_6 C28_6 1_555 1_555
C25_6 H17_6 1_555 1_555
C26_6 C4_6 1_555 1_555
C27_6 C26_6 1_555 1_555
C28_6 C31_6 1_555 1_555
C29_6 C30_6 1_555 1_555
C30_6 C34_6 1_555 1_555
C31_6 C40_6 1_555 1_555
C32_6 C25_6 1_555 1_555
C33_6 C25_6 1_555 1_555
C34_6 C33_6 1_555 1_555
H18_6 C34_6 1_555 1_555
C35_6 H19_6 1_555 1_555
C36_6 C29_6 1_555 1_555
H20_6 C36_6 1_555 1_555
C37_6 C32_6 1_555 1_555
C38_6 C29_6 1_555 1_555
H21_6 C38_6 1_555 1_555
C39_6 C30_6 1_555 1_555
H22_6 C39_6 1_555 1_555
C40_6 C36_6 1_555 1_555
H23_6 C40_6 1_555 1_555
C41_6 C31_6 1_555 1_555
H24_6 C41_6 1_555 1_555
C42_6 C35_6 1_555 1_555
H25_6 C42_6 1_555 1_555
C43_6 C42_6 1_555 1_555
C44_6 C37_6 1_555 1_555
H26_6 C44_6 1_555 1_555
C45_6 C43_6 1_555 1_555
H27_6 C45_6 1_555 1_555
C46_6 C27_6 1_555 1_555
H28_6 C46_6 1_555 1_555
H29_6 C46_6 1_555 1_555
C47_6 C46_6 1_555 1_555
H30_6 C47_6 1_555 1_555
H31_6 C47_6 1_555 1_555
H32_6 C47_6 1_555 1_555
O15_3 C48_6 1_555 1_555
C48_6 C43_6 1_555 1_555
O22_3 C48_6 1_555 1_555
O9_3 C28_6 1_555 1_555
O18_3 C52_6 1_555 1_555
C49_6 H33_6 1_555 1_555
C50_6 C27_6 1_555 1_555
C51_6 C3_6 1_555 1_555
C52_6 C55_6 1_555 1_555
C53_6 C54_6 1_555 1_555
C54_6 C58_6 1_555 1_555
C56_6 C49_6 1_555 1_555
C57_6 C49_6 1_555 1_555
C58_6 C57_6 1_555 1_555
H34_6 C58_6 1_555 1_555
C59_6 H35_6 1_555 1_555
C60_6 C53_6 1_555 1_555
C61_6 C56_6 1_555 1_555
C62_6 C53_6 1_555 1_555
H37_6 C62_6 1_555 1_555
C63_6 C54_6 1_555 1_555
C65_6 C55_6 1_555 1_555
H40_6 C65_6 1_555 1_555
C70_6 C51_6 1_555 1_555
H44_6 C70_6 1_555 1_555
H45_6 C70_6 1_555 1_555
C71_6 C70_6 1_555 1_555
H46_6 C71_6 1_555 1_555
H47_6 C71_6 1_555 1_555
H48_6 C71_6 1_555 1_555
Zn12 O9_3 1_555 1_555
C3_6 C10_6 1_555 1_555
C9_6 C16_6 1_555 1_555
C12_6 C14_6 1_555 1_555
C15_6 C18_6 1_555 1_555
C26_6 C33_6 1_555 1_555
C32_6 C39_6 1_555 1_555
C35_6 C37_6 1_555 1_555
C38_6 C41_6 1_555 1_555
C44_6 C45_6 1_555 1_555
C50_6 C51_6 1_555 1_555
C50_6 C57_6 1_555 1_555
C56_6 C63_6 1_555 1_555
C59_6 C61_6 1_555 1_555
C62_6 C65_6 1_555 1_555
Zn12 O17_6 1_555 1_555
Zn7_3 O17_5 1_555 1_555
Zn7_4 O17_6 1_555 1_555
H39_6 C64_6 1_555 1_555
H41_6 C66_6 1_555 1_555
C67_6 C66_6 1_555 1_555
H42_6 C68_6 1_555 1_555
C69_6 C67_6 1_555 1_555
H43_6 C69_6 1_555 1_555
O16_3 C72_6 1_555 1_555
C72_6 C67_6 1_555 1_555
O23_3 C72_6 1_555 1_555
C68_6 C69_6 1_555 1_555
O10_4 C52_7 1_555 1_555
C52_7 C55_7 1_555 1_555
C55_7 C64_7 1_555 1_555
H36_7 C60_7 1_555 1_555
C64_7 C60_7 1_555 1_555
H39_7 C64_7 1_555 1_555
C65_7 C55_7 1_555 1_555
H40_7 C65_7 1_555 1_555
O13_4 C52_7 1_555 1_555
Zn10_4 O13_4 1_555 1_555
Zn11_4 O10_4 1_555 1_555
C62_7 C65_7 1_555 1_555
O1_4 C1_7 1_555 1_555
C1_7 O5_4 1_555 1_555
Zn1_7 O2_7 1_555 1_555
Zn2_4 O2_7 1_555 1_555
O2_7 Zn11_4 1_555 1_555
O3_7 Zn2_4 1_555 1_555
O4_7 C5_7 1_555 1_555
C2_7 H1_7 1_555 1_555
C3_7 C4_7 1_555 1_555
C4_7 C23_7 1_555 1_555
C5_7 O3_7 1_555 1_555
C6_7 C7_7 1_555 1_555
C7_7 C11_7 1_555 1_555
C8_7 C5_7 1_555 1_555
C9_7 C2_7 1_555 1_555
C10_7 C2_7 1_555 1_555
C11_7 C10_7 1_555 1_555
H2_7 C11_7 1_555 1_555
C12_7 H3_7 1_555 1_555
C13_7 C6_7 1_555 1_555
H4_7 C13_7 1_555 1_555
C14_7 C9_7 1_555 1_555
C15_7 C6_7 1_555 1_555
H5_7 C15_7 1_555 1_555
C16_7 C7_7 1_555 1_555
H6_7 C16_7 1_555 1_555
C17_7 C8_7 1_555 1_555
H7_7 C17_7 1_555 1_555
O5_4 Zn14_4 1_555 1_555
C18_7 C8_7 1_555 1_555
H8_7 C18_7 1_555 1_555
C19_7 C12_7 1_555 1_555
H9_7 C19_7 1_555 1_555
C20_7 C1_7 1_555 1_555
C21_7 C14_7 1_555 1_555
H10_7 C21_7 1_555 1_555
C22_7 C20_7 1_555 1_555
H11_7 C22_7 1_555 1_555
C23_7 H12_7 1_555 1_555
H13_7 C23_7 1_555 1_555
C24_7 C23_7 1_555 1_555
H14_7 C24_7 1_555 1_555
H15_7 C24_7 1_555 1_555
H16_7 C24_7 1_555 1_555
C25_7 H17_7 1_555 1_555
C26_7 C4_7 1_555 1_555
C27_7 C26_7 1_555 1_555
C29_7 C30_7 1_555 1_555
C30_7 C34_7 1_555 1_555
C32_7 C25_7 1_555 1_555
C33_7 C25_7 1_555 1_555
C34_7 C33_7 1_555 1_555
H18_7 C34_7 1_555 1_555
C35_7 H19_7 1_555 1_555
C37_7 C32_7 1_555 1_555
C39_7 C30_7 1_555 1_555
H22_7 C39_7 1_555 1_555
C42_7 C35_7 1_555 1_555
H25_7 C42_7 1_555 1_555
C43_7 C42_7 1_555 1_555
C44_7 C37_7 1_555 1_555
H26_7 C44_7 1_555 1_555
C45_7 C43_7 1_555 1_555
H27_7 C45_7 1_555 1_555
C46_7 C27_7 1_555 1_555
H28_7 C46_7 1_555 1_555
H29_7 C46_7 1_555 1_555
C47_7 C46_7 1_555 1_555
H30_7 C47_7 1_555 1_555
H31_7 C47_7 1_555 1_555
H32_7 C47_7 1_555 1_555
O7_4 C48_7 1_555 1_555
C48_7 C43_7 1_555 1_555
O8_4 C48_7 1_555 1_555
C49_7 H33_7 1_555 1_555
C50_7 C27_7 1_555 1_555
C51_7 C3_7 1_555 1_555
C53_7 C54_7 1_555 1_555
C54_7 C58_7 1_555 1_555
C56_7 C49_7 1_555 1_555
C57_7 C49_7 1_555 1_555
C58_7 C57_7 1_555 1_555
H34_7 C58_7 1_555 1_555
C59_7 H35_7 1_555 1_555
C61_7 C56_7 1_555 1_555
C63_7 C54_7 1_555 1_555
H38_7 C63_7 1_555 1_555
C66_7 C59_7 1_555 1_555
H41_7 C66_7 1_555 1_555
C67_7 C66_7 1_555 1_555
C68_7 C61_7 1_555 1_555
H42_7 C68_7 1_555 1_555
C69_7 C67_7 1_555 1_555
H43_7 C69_7 1_555 1_555
C70_7 C51_7 1_555 1_555
H44_7 C70_7 1_555 1_555
H45_7 C70_7 1_555 1_555
C71_7 C70_7 1_555 1_555
H46_7 C71_7 1_555 1_555
H47_7 C71_7 1_555 1_555
H48_7 C71_7 1_555 1_555
O11_4 C72_7 1_555 1_555
C72_7 C67_7 1_555 1_555
O12_4 C72_7 1_555 1_555
Zn11_4 O4_7 1_555 1_555
O14_4 Zn1_7 1_555 1_555
O15_4 Zn1_7 1_555 1_555
O16_4 Zn1_7 1_555 1_555
Zn7_7 O1_4 1_555 1_555
Zn7_8 O7_4 1_555 1_555
Zn7_10 O11_4 1_555 1_555
Zn10_4 O2_7 1_555 1_555
Zn12_4 O12_4 1_555 1_555
Zn13_4 O8_4 1_555 1_555
O19_4 Zn2_4 1_555 1_555
O21_4 Zn11_4 1_555 1_555
O23_4 Zn2_4 1_555 1_555
C3_7 C10_7 1_555 1_555
C9_7 C16_7 1_555 1_555
C12_7 C14_7 1_555 1_555
C13_7 C17_7 1_555 1_555
C15_7 C18_7 1_555 1_555
C19_7 C20_7 1_555 1_555
C21_7 C22_7 1_555 1_555
C26_7 C33_7 1_555 1_555
C32_7 C39_7 1_555 1_555
C35_7 C37_7 1_555 1_555
C44_7 C45_7 1_555 1_555
C50_7 C51_7 1_555 1_555
C50_7 C57_7 1_555 1_555
C56_7 C63_7 1_555 1_555
C59_7 C61_7 1_555 1_555
C68_7 C69_7 1_555 1_555
O6_7 C28_7 1_555 1_555
C28_7 C31_7 1_555 1_555
C31_7 C40_7 1_555 1_555
H20_7 C36_7 1_555 1_555
C40_7 C36_7 1_555 1_555
H23_7 C40_7 1_555 1_555
C41_7 C31_7 1_555 1_555
H24_7 C41_7 1_555 1_555
O19_4 C28_7 1_555 1_555
Zn10_4 O6_7 1_555 1_555
O22_4 Zn10_4 1_555 1_555
C38_7 C41_7 1_555 1_555
O10_5 C52_8 1_555 1_555
C49_8 H33_8 1_555 1_555
C52_8 C55_8 1_555 1_555
C53_8 C54_8 1_555 1_555
C54_8 C58_8 1_555 1_555
C55_8 C64_8 1_555 1_555
C56_8 C49_8 1_555 1_555
C57_8 C49_8 1_555 1_555
C58_8 C57_8 1_555 1_555
H34_8 C58_8 1_555 1_555
C59_8 H35_8 1_555 1_555
C60_8 C53_8 1_555 1_555
H36_8 C60_8 1_555 1_555
C61_8 C56_8 1_555 1_555
C62_8 C53_8 1_555 1_555
H37_8 C62_8 1_555 1_555
C63_8 C54_8 1_555 1_555
H38_8 C63_8 1_555 1_555
C64_8 C60_8 1_555 1_555
H39_8 C64_8 1_555 1_555
C65_8 C55_8 1_555 1_555
H40_8 C65_8 1_555 1_555
C66_8 C59_8 1_555 1_555
H41_8 C66_8 1_555 1_555
C67_8 C66_8 1_555 1_555
C68_8 C61_8 1_555 1_555
H42_8 C68_8 1_555 1_555
C69_8 C67_8 1_555 1_555
H43_8 C69_8 1_555 1_555
C70_8 C51_8 1_555 1_555
H45_8 C70_8 1_555 1_555
C71_8 C70_8 1_555 1_555
H46_8 C71_8 1_555 1_555
H47_8 C71_8 1_555 1_555
O11_5 C72_8 1_555 1_555
C72_8 C67_8 1_555 1_555
O12_5 C72_8 1_555 1_555
O13_5 C52_8 1_555 1_555
Zn7_11 O11_5 1_555 1_555
Zn10_5 O13_5 1_555 1_555
Zn11_5 O10_5 1_555 1_555
Zn12_5 O12_5 1_555 1_555
C50_8 C51_8 1_555 1_555
C50_8 C57_8 1_555 1_555
C56_8 C63_8 1_555 1_555
C59_8 C61_8 1_555 1_555
C62_8 C65_8 1_555 1_555
C68_8 C69_8 1_555 1_555
Zn1_8 O2_8 1_555 1_555
Zn2_5 O2_8 1_555 1_555
O2_8 Zn11_5 1_555 1_555
O3_8 Zn2_5 1_555 1_555
O4_8 C5_8 1_555 1_555
C5_8 O3_8 1_555 1_555
C6_8 C7_8 1_555 1_555
C7_8 C11_8 1_555 1_555
C8_8 C5_8 1_555 1_555
H2_8 C11_8 1_555 1_555
C13_8 C6_8 1_555 1_555
C15_8 C6_8 1_555 1_555
H5_8 C15_8 1_555 1_555
C17_8 C8_8 1_555 1_555
H7_8 C17_8 1_555 1_555
C18_8 C8_8 1_555 1_555
H8_8 C18_8 1_555 1_555
Zn11_5 O4_8 1_555 1_555
O14_5 Zn1_8 1_555 1_555
O15_5 Zn1_8 1_555 1_555
O16_5 Zn1_8 1_555 1_555
Zn10_5 O2_8 1_555 1_555
O19_5 Zn2_5 1_555 1_555
O21_5 Zn11_5 1_555 1_555
O23_5 Zn2_5 1_555 1_555
C13_8 C17_8 1_555 1_555
C15_8 C18_8 1_555 1_555
C25_8 H17_8 1_555 1_555
C27_8 C26_8 1_555 1_555
C32_8 C25_8 1_555 1_555
C33_8 C25_8 1_555 1_555
C35_8 H19_8 1_555 1_555
C37_8 C32_8 1_555 1_555
H22_8 C39_8 1_555 1_555
C42_8 C35_8 1_555 1_555
H25_8 C42_8 1_555 1_555
C43_8 C42_8 1_555 1_555
C44_8 C37_8 1_555 1_555
H26_8 C44_8 1_555 1_555
C45_8 C43_8 1_555 1_555
H27_8 C45_8 1_555 1_555
C46_8 C27_8 1_555 1_555
H29_8 C46_8 1_555 1_555
C47_8 C46_8 1_555 1_555
H30_8 C47_8 1_555 1_555
H31_8 C47_8 1_555 1_555
O7_5 C48_8 1_555 1_555
C48_8 C43_8 1_555 1_555
O8_5 C48_8 1_555 1_555
Zn7_11 O7_5 1_555 1_555
Zn13_5 O8_5 1_555 1_555
C26_8 C33_8 1_555 1_555
C32_8 C39_8 1_555 1_555
C35_8 C37_8 1_555 1_555
C44_8 C45_8 1_555 1_555
O1_5 C1_8 1_555 1_555
C1_8 O5_5 1_555 1_555
C2_8 H1_8 1_555 1_555
C3_8 C4_8 1_555 1_555
C4_8 C23_8 1_555 1_555
C9_8 C2_8 1_555 1_555
C10_8 C2_8 1_555 1_555
C12_8 H3_8 1_555 1_555
C14_8 C9_8 1_555 1_555
H6_8 C16_8 1_555 1_555
O5_5 Zn14_5 1_555 1_555
C19_8 C12_8 1_555 1_555
H9_8 C19_8 1_555 1_555
C20_8 C1_8 1_555 1_555
C21_8 C14_8 1_555 1_555
H10_8 C21_8 1_555 1_555
C22_8 C20_8 1_555 1_555
H11_8 C22_8 1_555 1_555
C23_8 H12_8 1_555 1_555
H13_8 C23_8 1_555 1_555
C24_8 C23_8 1_555 1_555
H14_8 C24_8 1_555 1_555
H15_8 C24_8 1_555 1_555
H16_8 C24_8 1_555 1_555
O6_8 C28_8 1_555 1_555
C28_8 C31_8 1_555 1_555
C29_8 C30_8 1_555 1_555
C30_8 C34_8 1_555 1_555
C31_8 C40_8 1_555 1_555
H18_8 C34_8 1_555 1_555
C36_8 C29_8 1_555 1_555
C38_8 C29_8 1_555 1_555
H21_8 C38_8 1_555 1_555
C40_8 C36_8 1_555 1_555
H23_8 C40_8 1_555 1_555
C41_8 C31_8 1_555 1_555
H24_8 C41_8 1_555 1_555
O19_5 C28_8 1_555 1_555
Zn10_5 O6_8 1_555 1_555
Zn7_11 O1_5 1_555 1_555
O22_5 Zn10_5 1_555 1_555
C3_8 C10_8 1_555 1_555
C9_8 C16_8 1_555 1_555
C12_8 C14_8 1_555 1_555
C19_8 C20_8 1_555 1_555
C21_8 C22_8 1_555 1_555
C38_8 C41_8 1_555 1_555
Zn1_9 O2_9 1_555 1_555
Zn2_6 O2_9 1_555 1_555
H39_9 C64_9 1_555 1_555
H41_9 C66_9 1_555 1_555
C67_9 C66_9 1_555 1_555
H42_9 C68_9 1_555 1_555
C69_9 C67_9 1_555 1_555
H43_9 C69_9 1_555 1_555
O11_6 C72_9 1_555 1_555
C72_9 C67_9 1_555 1_555
O12_6 C72_9 1_555 1_555
O16_6 Zn1_9 1_555 1_555
Zn7_12 O11_6 1_555 1_555
Zn10_6 O13_6 1_555 1_555
Zn12_6 O12_6 1_555 1_555
O19_6 Zn2_6 1_555 1_555
O23_6 Zn2_6 1_555 1_555
C68_9 C69_9 1_555 1_555
Zn1_10 O2_10 1_555 1_555
O15_6 Zn1_10 1_555 1_555
Zn10_6 O2_10 1_555 1_555
Zn1_11 O2_11 1_555 1_555
C2_9 H1_9 1_555 1_555
C3_9 C4_9 1_555 1_555
C4_9 C23_9 1_555 1_555
C5_9 O3_9 1_555 1_555
C6_9 C7_9 1_555 1_555
C7_9 C11_9 1_555 1_555
C8_9 C5_9 1_555 1_555
C9_9 C2_9 1_555 1_555
C10_9 C2_9 1_555 1_555
C11_9 C10_9 1_555 1_555
H2_9 C11_9 1_555 1_555
C12_9 H3_9 1_555 1_555
C13_9 C6_9 1_555 1_555
C14_9 C9_9 1_555 1_555
C15_9 C6_9 1_555 1_555
H5_9 C15_9 1_555 1_555
C16_9 C7_9 1_555 1_555
C18_9 C8_9 1_555 1_555
H8_9 C18_9 1_555 1_555
C23_9 H12_9 1_555 1_555
H13_9 C23_9 1_555 1_555
C24_9 C23_9 1_555 1_555
H14_9 C24_9 1_555 1_555
H15_9 C24_9 1_555 1_555
H16_9 C24_9 1_555 1_555
O6_9 C28_9 1_555 1_555
C25_9 H17_9 1_555 1_555
C26_9 C4_9 1_555 1_555
C27_9 C26_9 1_555 1_555
C28_9 C31_9 1_555 1_555
C29_9 C30_9 1_555 1_555
C30_9 C34_9 1_555 1_555
C31_9 C40_9 1_555 1_555
C32_9 C25_9 1_555 1_555
C33_9 C25_9 1_555 1_555
C34_9 C33_9 1_555 1_555
H18_9 C34_9 1_555 1_555
C35_9 H19_9 1_555 1_555
C36_9 C29_9 1_555 1_555
H20_9 C36_9 1_555 1_555
C37_9 C32_9 1_555 1_555
C38_9 C29_9 1_555 1_555
H21_9 C38_9 1_555 1_555
C39_9 C30_9 1_555 1_555
H22_9 C39_9 1_555 1_555
C40_9 C36_9 1_555 1_555
H23_9 C40_9 1_555 1_555
C41_9 C31_9 1_555 1_555
H24_9 C41_9 1_555 1_555
C42_9 C35_9 1_555 1_555
H25_9 C42_9 1_555 1_555
C43_9 C42_9 1_555 1_555
C44_9 C37_9 1_555 1_555
H26_9 C44_9 1_555 1_555
C45_9 C43_9 1_555 1_555
H27_9 C45_9 1_555 1_555
C46_9 C27_9 1_555 1_555
H28_9 C46_9 1_555 1_555
H29_9 C46_9 1_555 1_555
C47_9 C46_9 1_555 1_555
H30_9 C47_9 1_555 1_555
H31_9 C47_9 1_555 1_555
H32_9 C47_9 1_555 1_555
O7_6 C48_9 1_555 1_555
C48_9 C43_9 1_555 1_555
O8_6 C48_9 1_555 1_555
O19_6 C28_9 1_555 1_555
O10_6 C52_9 1_555 1_555
C49_9 H33_9 1_555 1_555
C50_9 C27_9 1_555 1_555
C51_9 C3_9 1_555 1_555
C52_9 C55_9 1_555 1_555
C53_9 C54_9 1_555 1_555
C54_9 C58_9 1_555 1_555
C56_9 C49_9 1_555 1_555
C57_9 C49_9 1_555 1_555
C58_9 C57_9 1_555 1_555
H34_9 C58_9 1_555 1_555
C59_9 H35_9 1_555 1_555
C60_9 C53_9 1_555 1_555
C61_9 C56_9 1_555 1_555
C62_9 C53_9 1_555 1_555
H37_9 C62_9 1_555 1_555
C63_9 C54_9 1_555 1_555
C65_9 C55_9 1_555 1_555
H40_9 C65_9 1_555 1_555
C70_9 C51_9 1_555 1_555
H44_9 C70_9 1_555 1_555
H45_9 C70_9 1_555 1_555
C71_9 C70_9 1_555 1_555
H46_9 C71_9 1_555 1_555
H47_9 C71_9 1_555 1_555
H48_9 C71_9 1_555 1_555
Zn7_12 O7_6 1_555 1_555
Zn11_6 O10_6 1_555 1_555
Zn13_6 O8_6 1_555 1_555
C3_9 C10_9 1_555 1_555
C9_9 C16_9 1_555 1_555
C12_9 C14_9 1_555 1_555
C15_9 C18_9 1_555 1_555
C26_9 C33_9 1_555 1_555
C32_9 C39_9 1_555 1_555
C35_9 C37_9 1_555 1_555
C38_9 C41_9 1_555 1_555
C44_9 C45_9 1_555 1_555
C50_9 C51_9 1_555 1_555
C50_9 C57_9 1_555 1_555
C56_9 C63_9 1_555 1_555
C59_9 C61_9 1_555 1_555
C62_9 C65_9 1_555 1_555
O1_6 C1_9 1_555 1_555
C1_9 O5_6 1_555 1_555
Zn1_12 O2_12 1_555 1_555
O2_12 Zn11_6 1_555 1_555
H7_9 C17_9 1_555 1_555
O5_6 Zn14_6 1_555 1_555
H9_9 C19_9 1_555 1_555
C20_9 C1_9 1_555 1_555
H10_9 C21_9 1_555 1_555
C22_9 C20_9 1_555 1_555
H11_9 C22_9 1_555 1_555
Zn11_6 O4_9 1_555 1_555
O14_6 Zn1_12 1_555 1_555
Zn7_12 O1_6 1_555 1_555
O21_6 Zn11_6 1_555 1_555
O22_6 Zn10_6 1_555 1_555
C19_9 C20_9 1_555 1_555
C21_9 C22_9 1_555 1_555
O6_10 C28_10 1_555 1_555
C28_10 C31_10 1_555 1_555
C31_10 C40_10 1_555 1_555
H20_10 C36_10 1_555 1_555
C40_10 C36_10 1_555 1_555
H23_10 C40_10 1_555 1_555
C41_10 C31_10 1_555 1_555
H24_10 C41_10 1_555 1_555
O9_4 C28_10 1_555 1_555
Zn13_5 O6_10 1_555 1_555
Zn12_5 O9_4 1_555 1_555
O17_7 Zn13_5 1_555 1_555
O20_4 Zn13_5 1_555 1_555
C38_10 C41_10 1_555 1_555
Zn12_5 O17_7 1_555 1_555
O14_6 C1_10 1_555 1_555
C1_10 O21_6 1_555 1_555
C2_10 H1_10 1_555 1_555
C3_10 C4_10 1_555 1_555
C4_10 C23_10 1_555 1_555
C9_10 C2_10 1_555 1_555
C10_10 C2_10 1_555 1_555
C12_10 H3_10 1_555 1_555
C14_10 C9_10 1_555 1_555
H6_10 C16_10 1_555 1_555
C19_10 C12_10 1_555 1_555
H9_10 C19_10 1_555 1_555
C20_10 C1_10 1_555 1_555
C21_10 C14_10 1_555 1_555
H10_10 C21_10 1_555 1_555
C22_10 C20_10 1_555 1_555
H11_10 C22_10 1_555 1_555
C23_10 H12_10 1_555 1_555
H13_10 C23_10 1_555 1_555
C25_10 H17_10 1_555 1_555
C26_10 C4_10 1_555 1_555
C27_10 C26_10 1_555 1_555
C32_10 C25_10 1_555 1_555
C33_10 C25_10 1_555 1_555
C35_10 H19_10 1_555 1_555
C37_10 C32_10 1_555 1_555
H22_10 C39_10 1_555 1_555
C42_10 C35_10 1_555 1_555
H25_10 C42_10 1_555 1_555
C43_10 C42_10 1_555 1_555
C44_10 C37_10 1_555 1_555
H26_10 C44_10 1_555 1_555
C45_10 C43_10 1_555 1_555
H27_10 C45_10 1_555 1_555
C46_10 C27_10 1_555 1_555
H28_10 C46_10 1_555 1_555
H29_10 C46_10 1_555 1_555
O15_6 C48_10 1_555 1_555
C48_10 C43_10 1_555 1_555
O22_6 C48_10 1_555 1_555
C49_10 H33_10 1_555 1_555
C50_10 C27_10 1_555 1_555
C51_10 C3_10 1_555 1_555
C56_10 C49_10 1_555 1_555
C57_10 C49_10 1_555 1_555
C59_10 H35_10 1_555 1_555
C61_10 C56_10 1_555 1_555
H38_10 C63_10 1_555 1_555
C66_10 C59_10 1_555 1_555
H41_10 C66_10 1_555 1_555
C67_10 C66_10 1_555 1_555
C68_10 C61_10 1_555 1_555
H42_10 C68_10 1_555 1_555
C69_10 C67_10 1_555 1_555
H43_10 C69_10 1_555 1_555
C70_10 C51_10 1_555 1_555
H44_10 C70_10 1_555 1_555
H45_10 C70_10 1_555 1_555
O16_6 C72_10 1_555 1_555
C72_10 C67_10 1_555 1_555
O23_6 C72_10 1_555 1_555
C3_10 C10_10 1_555 1_555
C9_10 C16_10 1_555 1_555
C12_10 C14_10 1_555 1_555
C19_10 C20_10 1_555 1_555
C21_10 C22_10 1_555 1_555
C26_10 C33_10 1_555 1_555
C32_10 C39_10 1_555 1_555
C35_10 C37_10 1_555 1_555
C44_10 C45_10 1_555 1_555
C50_10 C51_10 1_555 1_555
C50_10 C57_10 1_555 1_555
C56_10 C63_10 1_555 1_555
C59_10 C61_10 1_555 1_555
C68_10 C69_10 1_555 1_555
Zn7_11 O17_7 1_555 1_555
O17_7 Zn14_5 1_555 1_555
O3_10 Zn12_5 1_555 1_555
O4_10 C5_10 1_555 1_555
C5_10 O3_10 1_555 1_555
C6_10 C7_10 1_555 1_555
C7_10 C11_10 1_555 1_555
C8_10 C5_10 1_555 1_555
H2_10 C11_10 1_555 1_555
C13_10 C6_10 1_555 1_555
H4_10 C13_10 1_555 1_555
C15_10 C6_10 1_555 1_555
H5_10 C15_10 1_555 1_555
C17_10 C8_10 1_555 1_555
H7_10 C17_10 1_555 1_555
C18_10 C8_10 1_555 1_555
H8_10 C18_10 1_555 1_555
H14_10 C24_10 1_555 1_555
H15_10 C24_10 1_555 1_555
H16_10 C24_10 1_555 1_555
C29_10 C30_10 1_555 1_555
C30_10 C34_10 1_555 1_555
H18_10 C34_10 1_555 1_555
H30_10 C47_10 1_555 1_555
H31_10 C47_10 1_555 1_555
H32_10 C47_10 1_555 1_555
C53_10 C54_10 1_555 1_555
C54_10 C58_10 1_555 1_555
H34_10 C58_10 1_555 1_555
H46_10 C71_10 1_555 1_555
H47_10 C71_10 1_555 1_555
H48_10 C71_10 1_555 1_555
Zn14_5 O4_10 1_555 1_555
O18_4 Zn14_5 1_555 1_555
C13_10 C17_10 1_555 1_555
C15_10 C18_10 1_555 1_555
O18_4 C52_10 1_555 1_555
C52_10 C55_10 1_555 1_555
C55_10 C64_10 1_555 1_555
H36_10 C60_10 1_555 1_555
C64_10 C60_10 1_555 1_555
H39_10 C64_10 1_555 1_555
C65_10 C55_10 1_555 1_555
H40_10 C65_10 1_555 1_555
O20_4 C52_10 1_555 1_555
C62_10 C65_10 1_555 1_555
O14_5 C1_11 1_555 1_555
C1_11 O21_5 1_555 1_555
Zn7_7 O17_8 1_555 1_555
O17_8 Zn14_4 1_555 1_555
H7_11 C17_11 1_555 1_555
H9_11 C19_11 1_555 1_555
C20_11 C1_11 1_555 1_555
H10_11 C21_11 1_555 1_555
C22_11 C20_11 1_555 1_555
H11_11 C22_11 1_555 1_555
Zn14_4 O4_11 1_555 1_555
O17_9 Zn13_4 1_555 1_555
O18_5 Zn14_4 1_555 1_555
O20_5 Zn13_4 1_555 1_555
C19_11 C20_11 1_555 1_555
C21_11 C22_11 1_555 1_555
Zn7_8 O17_9 1_555 1_555
Zn7_9 O17_10 1_555 1_555
C2_11 H1_11 1_555 1_555
C3_11 C4_11 1_555 1_555
C4_11 C23_11 1_555 1_555
C5_11 O3_11 1_555 1_555
C6_11 C7_11 1_555 1_555
C7_11 C11_11 1_555 1_555
C8_11 C5_11 1_555 1_555
C9_11 C2_11 1_555 1_555
C10_11 C2_11 1_555 1_555
C11_11 C10_11 1_555 1_555
H2_11 C11_11 1_555 1_555
C12_11 H3_11 1_555 1_555
C13_11 C6_11 1_555 1_555
C14_11 C9_11 1_555 1_555
C15_11 C6_11 1_555 1_555
H5_11 C15_11 1_555 1_555
C16_11 C7_11 1_555 1_555
C18_11 C8_11 1_555 1_555
H8_11 C18_11 1_555 1_555
C23_11 H12_11 1_555 1_555
H13_11 C23_11 1_555 1_555
C24_11 C23_11 1_555 1_555
H14_11 C24_11 1_555 1_555
H15_11 C24_11 1_555 1_555
H16_11 C24_11 1_555 1_555
O6_11 C28_11 1_555 1_555
C25_11 H17_11 1_555 1_555
C26_11 C4_11 1_555 1_555
C27_11 C26_11 1_555 1_555
C28_11 C31_11 1_555 1_555
C29_11 C30_11 1_555 1_555
C30_11 C34_11 1_555 1_555
C31_11 C40_11 1_555 1_555
C32_11 C25_11 1_555 1_555
C33_11 C25_11 1_555 1_555
C34_11 C33_11 1_555 1_555
H18_11 C34_11 1_555 1_555
C35_11 H19_11 1_555 1_555
C36_11 C29_11 1_555 1_555
H20_11 C36_11 1_555 1_555
C37_11 C32_11 1_555 1_555
C38_11 C29_11 1_555 1_555
H21_11 C38_11 1_555 1_555
C39_11 C30_11 1_555 1_555
H22_11 C39_11 1_555 1_555
C40_11 C36_11 1_555 1_555
H23_11 C40_11 1_555 1_555
C41_11 C31_11 1_555 1_555
H24_11 C41_11 1_555 1_555
C42_11 C35_11 1_555 1_555
H25_11 C42_11 1_555 1_555
C43_11 C42_11 1_555 1_555
C44_11 C37_11 1_555 1_555
H26_11 C44_11 1_555 1_555
C45_11 C43_11 1_555 1_555
H27_11 C45_11 1_555 1_555
C46_11 C27_11 1_555 1_555
H28_11 C46_11 1_555 1_555
H29_11 C46_11 1_555 1_555
C47_11 C46_11 1_555 1_555
H30_11 C47_11 1_555 1_555
H31_11 C47_11 1_555 1_555
H32_11 C47_11 1_555 1_555
O15_5 C48_11 1_555 1_555
C48_11 C43_11 1_555 1_555
O22_5 C48_11 1_555 1_555
O9_5 C28_11 1_555 1_555
O18_5 C52_11 1_555 1_555
C49_11 H33_11 1_555 1_555
C50_11 C27_11 1_555 1_555
C51_11 C3_11 1_555 1_555
C52_11 C55_11 1_555 1_555
C53_11 C54_11 1_555 1_555
C54_11 C58_11 1_555 1_555
C56_11 C49_11 1_555 1_555
C57_11 C49_11 1_555 1_555
C58_11 C57_11 1_555 1_555
H34_11 C58_11 1_555 1_555
C59_11 H35_11 1_555 1_555
C60_11 C53_11 1_555 1_555
C61_11 C56_11 1_555 1_555
C62_11 C53_11 1_555 1_555
H37_11 C62_11 1_555 1_555
C63_11 C54_11 1_555 1_555
C65_11 C55_11 1_555 1_555
H40_11 C65_11 1_555 1_555
C70_11 C51_11 1_555 1_555
H44_11 C70_11 1_555 1_555
H45_11 C70_11 1_555 1_555
C71_11 C70_11 1_555 1_555
H46_11 C71_11 1_555 1_555
H47_11 C71_11 1_555 1_555
H48_11 C71_11 1_555 1_555
Zn12_4 O9_5 1_555 1_555
C3_11 C10_11 1_555 1_555
C9_11 C16_11 1_555 1_555
C12_11 C14_11 1_555 1_555
C15_11 C18_11 1_555 1_555
C26_11 C33_11 1_555 1_555
C32_11 C39_11 1_555 1_555
C35_11 C37_11 1_555 1_555
C38_11 C41_11 1_555 1_555
C44_11 C45_11 1_555 1_555
C50_11 C51_11 1_555 1_555
C50_11 C57_11 1_555 1_555
C56_11 C63_11 1_555 1_555
C59_11 C61_11 1_555 1_555
C62_11 C65_11 1_555 1_555
Zn12_4 O17_11 1_555 1_555
Zn7_10 O17_11 1_555 1_555
H39_11 C64_11 1_555 1_555
H41_11 C66_11 1_555 1_555
C67_11 C66_11 1_555 1_555
H42_11 C68_11 1_555 1_555
C69_11 C67_11 1_555 1_555
H43_11 C69_11 1_555 1_555
O16_5 C72_11 1_555 1_555
C72_11 C67_11 1_555 1_555
O23_5 C72_11 1_555 1_555
C68_11 C69_11 1_555 1_555
O14_4 C1_12 1_555 1_555
C1_12 O21_4 1_555 1_555
C2_12 H1_12 1_555 1_555
C3_12 C4_12 1_555 1_555
C4_12 C23_12 1_555 1_555
C9_12 C2_12 1_555 1_555
C10_12 C2_12 1_555 1_555
C12_12 H3_12 1_555 1_555
C14_12 C9_12 1_555 1_555
H6_12 C16_12 1_555 1_555
C19_12 C12_12 1_555 1_555
H9_12 C19_12 1_555 1_555
C20_12 C1_12 1_555 1_555
C21_12 C14_12 1_555 1_555
H10_12 C21_12 1_555 1_555
C22_12 C20_12 1_555 1_555
H11_12 C22_12 1_555 1_555
C23_12 H12_12 1_555 1_555
H13_12 C23_12 1_555 1_555
C24_12 C23_12 1_555 1_555
H14_12 C24_12 1_555 1_555
H15_12 C24_12 1_555 1_555
H16_12 C24_12 1_555 1_555
O6_12 C28_12 1_555 1_555
C28_12 C31_12 1_555 1_555
C29_12 C30_12 1_555 1_555
C30_12 C34_12 1_555 1_555
C31_12 C40_12 1_555 1_555
H18_12 C34_12 1_555 1_555
C36_12 C29_12 1_555 1_555
C38_12 C29_12 1_555 1_555
H21_12 C38_12 1_555 1_555
C40_12 C36_12 1_555 1_555
H23_12 C40_12 1_555 1_555
C41_12 C31_12 1_555 1_555
H24_12 C41_12 1_555 1_555
O9_6 C28_12 1_555 1_555
Zn13_6 O6_12 1_555 1_555
Zn12_6 O9_6 1_555 1_555
O17_12 Zn13_6 1_555 1_555
O20_6 Zn13_6 1_555 1_555
C3_12 C10_12 1_555 1_555
C9_12 C16_12 1_555 1_555
C12_12 C14_12 1_555 1_555
C19_12 C20_12 1_555 1_555
C21_12 C22_12 1_555 1_555
C38_12 C41_12 1_555 1_555
Zn12_6 O17_12 1_555 1_555
Zn7_12 O17_12 1_555 1_555
O17_12 Zn14_6 1_555 1_555
O3_12 Zn12_6 1_555 1_555
O4_12 C5_12 1_555 1_555
C5_12 O3_12 1_555 1_555
C6_12 C7_12 1_555 1_555
C7_12 C11_12 1_555 1_555
C8_12 C5_12 1_555 1_555
H2_12 C11_12 1_555 1_555
C13_12 C6_12 1_555 1_555
C15_12 C6_12 1_555 1_555
H5_12 C15_12 1_555 1_555
C17_12 C8_12 1_555 1_555
H7_12 C17_12 1_555 1_555
C18_12 C8_12 1_555 1_555
H8_12 C18_12 1_555 1_555
Zn14_6 O4_12 1_555 1_555
O18_6 Zn14_6 1_555 1_555
C13_12 C17_12 1_555 1_555
C15_12 C18_12 1_555 1_555
C25_12 H17_12 1_555 1_555
C27_12 C26_12 1_555 1_555
C32_12 C25_12 1_555 1_555
C33_12 C25_12 1_555 1_555
C35_12 H19_12 1_555 1_555
C37_12 C32_12 1_555 1_555
H22_12 C39_12 1_555 1_555
C42_12 C35_12 1_555 1_555
H25_12 C42_12 1_555 1_555
C43_12 C42_12 1_555 1_555
C44_12 C37_12 1_555 1_555
H26_12 C44_12 1_555 1_555
C45_12 C43_12 1_555 1_555
H27_12 C45_12 1_555 1_555
C46_12 C27_12 1_555 1_555
H29_12 C46_12 1_555 1_555
C47_12 C46_12 1_555 1_555
H30_12 C47_12 1_555 1_555
H31_12 C47_12 1_555 1_555
O15_4 C48_12 1_555 1_555
C48_12 C43_12 1_555 1_555
O22_4 C48_12 1_555 1_555
C26_12 C33_12 1_555 1_555
C32_12 C39_12 1_555 1_555
C35_12 C37_12 1_555 1_555
C44_12 C45_12 1_555 1_555
O18_6 C52_12 1_555 1_555
C49_12 H33_12 1_555 1_555
C52_12 C55_12 1_555 1_555
C53_12 C54_12 1_555 1_555
C54_12 C58_12 1_555 1_555
C55_12 C64_12 1_555 1_555
C56_12 C49_12 1_555 1_555
C57_12 C49_12 1_555 1_555
C58_12 C57_12 1_555 1_555
H34_12 C58_12 1_555 1_555
C59_12 H35_12 1_555 1_555
C60_12 C53_12 1_555 1_555
H36_12 C60_12 1_555 1_555
C61_12 C56_12 1_555 1_555
C62_12 C53_12 1_555 1_555
H37_12 C62_12 1_555 1_555
C63_12 C54_12 1_555 1_555
H38_12 C63_12 1_555 1_555
C64_12 C60_12 1_555 1_555
H39_12 C64_12 1_555 1_555
C65_12 C55_12 1_555 1_555
H40_12 C65_12 1_555 1_555
C66_12 C59_12 1_555 1_555
H41_12 C66_12 1_555 1_555
C67_12 C66_12 1_555 1_555
C68_12 C61_12 1_555 1_555
H42_12 C68_12 1_555 1_555
C69_12 C67_12 1_555 1_555
H43_12 C69_12 1_555 1_555
C70_12 C51_12 1_555 1_555
H45_12 C70_12 1_555 1_555
C71_12 C70_12 1_555 1_555
H46_12 C71_12 1_555 1_555
H47_12 C71_12 1_555 1_555
O16_4 C72_12 1_555 1_555
C72_12 C67_12 1_555 1_555
O23_4 C72_12 1_555 1_555
O20_6 C52_12 1_555 1_555
C50_12 C51_12 1_555 1_555
C50_12 C57_12 1_555 1_555
C56_12 C63_12 1_555 1_555
C59_12 C61_12 1_555 1_555
C62_12 C65_12 1_555 1_555
C68_12 C69_12 1_555 1_555

#END
