
###############################################################################
#
# This file contains modified crystal structure data generated from the
# MOF subset of the Cambridge Structural Database (CSD) v543 
# hosted by the Cambridge Crystallographic Data Centre (CCDC).
#
# This work is licensed under the Creative Commons
# Attribution-NonCommercial-ShareAlike 4.0 International License.
# To view a copy of this license, visit
# http://creativecommons.org/licenses/by-nc-sa/4.0/
# or send a letter to
# Creative Commons, PO Box 1866, Mountain View, CA 94042, USA.
#
# CIF created using the CSD Python API on 29 September 2022
# The structure has been converted into the P1 space group
# The structure has a 3D framework
# The original CSD entry ZODQIV is in the orthorhombic crystal system
# The framework has been calculated to contain at least 10.0% void space
# The void calculation uses a probe of radius 1.32A, grid spacing 0.4
#
###############################################################################

data_ZODQIV
_chemical_formula_moiety         '(C448 H320 Cu64 N64 O292)n'
_symmetry_cell_setting           triclinic
_symmetry_space_group_name_H-M   'P 1'
_symmetry_Int_Tables_number      1
_space_group_name_Hall           'P 1'
loop_
_symmetry_equiv_pos_site_id
_symmetry_equiv_pos_as_xyz
1 x,y,z
_cell_length_a                   15.339(3)
_cell_length_b                   30.839(7)
_cell_length_c                   32.070(7)
_cell_angle_alpha                90
_cell_angle_beta                 90
_cell_angle_gamma                90
_cell_volume                     15170.4
loop_
_atom_site_label
_atom_site_type_symbol
_atom_site_fract_x
_atom_site_fract_y
_atom_site_fract_z
Cu1 Cu 0.48073(3) 0.72840(2) 0.21586(2)
Cu2 Cu 0.50986(3) 0.55804(2) 0.50477(2)
O1 O 0.63279(18) 0.57333(9) 0.50635(9)
H1 H 0.6610 0.5500 0.5106
H2 H 0.6560 0.5859 0.4856
O2 O 0.22542(18) 0.54689(9) 0.18618(9)
O3 O 0.49903(19) 0.56546(9) 0.44629(9)
O4 O 0.30183(19) 0.53768(10) 0.12792(9)
O5 O 0.5177(3) 0.71515(10) 0.31098(10)
O6 O 0.6096(2) 0.48905(12) 0.26698(10)
N1 N 0.4329(2) 0.52155(11) 0.25366(10)
N2 N 0.3561(2) 0.52847(11) 0.23466(10)
O7 O 0.4445(2) 0.68935(13) 0.16468(11)
H3 H 0.4227 0.6656 0.1732
H4 H 0.4087 0.7026 0.1490
O8 O 0.4852(3) 0.67878(11) 0.25375(10)
O9 O 0.5211(3) 0.63691(11) 0.44731(11)
O10 O 0.6423(2) 0.52510(14) 0.20922(11)
C1 C 0.4998(3) 0.68112(13) 0.29209(13)
C2 C 0.2961(3) 0.53776(13) 0.16639(12)
C3 C 0.4968(3) 0.51657(13) 0.22460(13)
C4 C 0.4658(2) 0.56288(13) 0.31856(12)
C5 C 0.4949(3) 0.63970(13) 0.31647(13)
C6 C 0.5902(3) 0.50941(13) 0.23508(13)
C7 C 0.3719(3) 0.52774(13) 0.19320(13)
C8 C 0.4784(3) 0.56372(14) 0.36165(13)
H5 H 0.4734 0.5382 0.3768
C9 C 0.4985(3) 0.60224(13) 0.38230(13)
C10 C 0.4595(3) 0.52029(14) 0.18588(13)
H6 H 0.4872 0.5182 0.1602
C11 C 0.5079(3) 0.60267(14) 0.42906(13)
C12 C 0.4747(3) 0.60122(14) 0.29623(13)
H7 H 0.4670 0.6011 0.2675
C13 C 0.5068(3) 0.64056(13) 0.35950(13)
H8 H 0.5201 0.6665 0.3729
C14 C 0.4393(3) 0.52046(13) 0.29941(12)
H9 H 0.4818 0.4986 0.3071
H10 H 0.3837 0.5118 0.3111
Cu3 Cu 0.76927(3) 0.52160(2) 0.21586(2)
Cu4 Cu 0.51927(3) 0.77160(2) 0.28414(2)
Cu5 Cu 0.73073(3) 0.47840(2) 0.28414(2)
Cu6 Cu 0.24014(3) 0.55804(2) 0.24523(2)
O11 O 0.52458(18) 0.54689(9) 0.56382(9)
O12 O 0.4823(3) 0.78485(10) 0.18902(10)
O13 O 0.3596(2) 0.73905(12) 0.23302(10)
N3 N 0.3939(2) 0.52847(11) 0.51534(10)
O14 O 0.6077(2) 0.72490(14) 0.20922(11)
Cu1_2 Cu 0.26927(3) 0.02160(2) 0.21586(2)
Cu2_2 Cu 0.24014(3) 0.19196(2) 0.50477(2)
O1_2 O 0.11721(18) 0.17667(9) 0.50635(9)
H1_2 H 0.0890 0.2000 0.5106
H2_2 H 0.0940 0.1641 0.4856
O2_2 O 0.52458(18) 0.20311(9) 0.18618(9)
O3_2 O 0.25097(19) 0.18454(9) 0.44629(9)
O4_2 O 0.44817(19) 0.21232(10) 0.12792(9)
O5_2 O 0.2323(3) 0.03485(10) 0.31098(10)
O6_2 O 0.1404(2) 0.26095(12) 0.26698(10)
N1_2 N 0.3171(2) 0.22845(11) 0.25366(10)
N2_2 N 0.3939(2) 0.22153(11) 0.23466(10)
O7_2 O 0.3055(2) 0.06065(13) 0.16468(11)
H3_2 H 0.3273 0.0844 0.1732
H4_2 H 0.3413 0.0474 0.1490
O8_2 O 0.2648(3) 0.07122(11) 0.25375(10)
O9_2 O 0.2289(3) 0.11309(11) 0.44731(11)
O10_2 O 0.1077(2) 0.22490(14) 0.20922(11)
C1_2 C 0.2502(3) 0.06888(13) 0.29209(13)
C2_2 C 0.4539(3) 0.21224(13) 0.16639(12)
C3_2 C 0.2532(3) 0.23343(13) 0.22460(13)
C4_2 C 0.2842(2) 0.18712(13) 0.31856(12)
C5_2 C 0.2551(3) 0.11030(13) 0.31647(13)
C6_2 C 0.1598(3) 0.24059(13) 0.23508(13)
C7_2 C 0.3781(3) 0.22226(13) 0.19320(13)
C8_2 C 0.2716(3) 0.18628(14) 0.36165(13)
H5_2 H 0.2766 0.2118 0.3768
C9_2 C 0.2515(3) 0.14776(13) 0.38230(13)
C10_2 C 0.2905(3) 0.22971(14) 0.18588(13)
H6_2 H 0.2628 0.2318 0.1602
C11_2 C 0.2421(3) 0.14733(14) 0.42906(13)
C12_2 C 0.2753(3) 0.14878(14) 0.29623(13)
H7_2 H 0.2830 0.1489 0.2675
C13_2 C 0.2432(3) 0.10944(13) 0.35950(13)
H8_2 H 0.2299 0.0835 0.3729
C14_2 C 0.3107(3) 0.22954(13) 0.29941(12)
H9_2 H 0.2682 0.2514 0.3071
H10_2 H 0.3663 0.2382 0.3111
Cu5_2 Cu 0.01927(3) 0.27160(2) 0.28414(2)
Cu6_2 Cu 0.50986(3) 0.19196(2) 0.24523(2)
O11_2 O 0.22542(18) 0.20311(9) 0.56382(9)
O13_2 O 0.3904(2) 0.01095(12) 0.23302(10)
N3_2 N 0.3561(2) 0.22153(11) 0.51534(10)
O14_2 O 0.1423(2) 0.02510(14) 0.20922(11)
Cu4_2 Cu 0.23073(3) 0.97840(2) 0.28414(2)
O12_2 O 0.2677(3) 0.96515(10) 0.18902(10)
Cu3_2 Cu 0.98073(3) 0.22840(2) 0.21586(2)
Cu1_3 Cu 0.26927(3) 0.72840(2) 0.53414(2)
O1_3 O 0.11721(18) 0.57333(9) 0.24365(9)
H1_3 H 0.0890 0.5500 0.2394
H2_3 H 0.0940 0.5859 0.2644
O3_3 O 0.25097(19) 0.56546(9) 0.30371(9)
O4_3 O 0.44817(19) 0.53768(10) 0.62208(9)
O5_3 O 0.2323(3) 0.71515(10) 0.43902(10)
O6_3 O 0.1404(2) 0.48905(12) 0.48302(10)
N1_3 N 0.3171(2) 0.52155(11) 0.49634(10)
O7_3 O 0.3055(2) 0.68935(13) 0.58532(11)
H3_3 H 0.3273 0.6656 0.5768
H4_3 H 0.3413 0.7026 0.6010
O8_3 O 0.2648(3) 0.67878(11) 0.49625(10)
O9_3 O 0.2289(3) 0.63691(11) 0.30269(11)
O10_3 O 0.1077(2) 0.52510(14) 0.54078(11)
C1_3 C 0.2502(3) 0.68112(13) 0.45791(13)
C2_3 C 0.4539(3) 0.53776(13) 0.58361(12)
C3_3 C 0.2532(3) 0.51657(13) 0.52540(13)
C4_3 C 0.2842(2) 0.56288(13) 0.43144(12)
C5_3 C 0.2551(3) 0.63970(13) 0.43353(13)
C6_3 C 0.1598(3) 0.50941(13) 0.51492(13)
C7_3 C 0.3781(3) 0.52774(13) 0.55680(13)
C8_3 C 0.2716(3) 0.56372(14) 0.38835(13)
H5_3 H 0.2766 0.5382 0.3732
C9_3 C 0.2515(3) 0.60224(13) 0.36770(13)
C10_3 C 0.2905(3) 0.52029(14) 0.56412(13)
H6_3 H 0.2628 0.5182 0.5898
C11_3 C 0.2421(3) 0.60267(14) 0.32094(13)
C12_3 C 0.2753(3) 0.60122(14) 0.45377(13)
H7_3 H 0.2830 0.6011 0.4825
C13_3 C 0.2432(3) 0.64056(13) 0.39050(13)
H8_3 H 0.2299 0.6665 0.3771
C14_3 C 0.3107(3) 0.52046(13) 0.45059(12)
H9_3 H 0.2682 0.4986 0.4429
H10_3 H 0.3663 0.5118 0.4389
Cu4_3 Cu 0.23073(3) 0.77160(2) 0.46586(2)
Cu5_3 Cu 0.01927(3) 0.47840(2) 0.46586(2)
O12_3 O 0.2677(3) 0.78485(10) 0.56098(10)
O13_3 O 0.3904(2) 0.73905(12) 0.51698(10)
O14_3 O 0.1423(2) 0.72490(14) 0.54078(11)
Cu3_3 Cu 0.98073(3) 0.52160(2) 0.53414(2)
Cu1_4 Cu 0.48073(3) 0.02160(2) 0.53414(2)
O1_4 O 0.63279(18) 0.17667(9) 0.24365(9)
H1_4 H 0.6610 0.2000 0.2394
H2_4 H 0.6560 0.1641 0.2644
O3_4 O 0.49903(19) 0.18454(9) 0.30371(9)
O4_4 O 0.30183(19) 0.21232(10) 0.62208(9)
O5_4 O 0.5177(3) 0.03485(10) 0.43902(10)
O6_4 O 0.6096(2) 0.26095(12) 0.48302(10)
N1_4 N 0.4329(2) 0.22845(11) 0.49634(10)
O7_4 O 0.4445(2) 0.06065(13) 0.58532(11)
H3_4 H 0.4227 0.0844 0.5768
H4_4 H 0.4087 0.0474 0.6010
O8_4 O 0.4852(3) 0.07122(11) 0.49625(10)
O9_4 O 0.5211(3) 0.11309(11) 0.30269(11)
O10_4 O 0.6423(2) 0.22490(14) 0.54078(11)
C1_4 C 0.4998(3) 0.06888(13) 0.45791(13)
C2_4 C 0.2961(3) 0.21224(13) 0.58361(12)
C3_4 C 0.4968(3) 0.23343(13) 0.52540(13)
C4_4 C 0.4658(2) 0.18712(13) 0.43144(12)
C5_4 C 0.4949(3) 0.11030(13) 0.43353(13)
C6_4 C 0.5902(3) 0.24059(13) 0.51492(13)
C7_4 C 0.3719(3) 0.22226(13) 0.55680(13)
C8_4 C 0.4784(3) 0.18628(14) 0.38835(13)
H5_4 H 0.4734 0.2118 0.3732
C9_4 C 0.4985(3) 0.14776(13) 0.36770(13)
C10_4 C 0.4595(3) 0.22971(14) 0.56412(13)
H6_4 H 0.4872 0.2318 0.5898
C11_4 C 0.5079(3) 0.14733(14) 0.32094(13)
C12_4 C 0.4747(3) 0.14878(14) 0.45377(13)
H7_4 H 0.4670 0.1489 0.4825
C13_4 C 0.5068(3) 0.10944(13) 0.39050(13)
H8_4 H 0.5201 0.0835 0.3771
C14_4 C 0.4393(3) 0.22954(13) 0.45059(12)
H9_4 H 0.4818 0.2514 0.4429
H10_4 H 0.3837 0.2382 0.4389
Cu3_4 Cu 0.76927(3) 0.22840(2) 0.53414(2)
Cu5_4 Cu 0.73073(3) 0.27160(2) 0.46586(2)
O13_4 O 0.3596(2) 0.01095(12) 0.51698(10)
O14_4 O 0.6077(2) 0.02510(14) 0.54078(11)
Cu4_4 Cu 0.51927(3) 0.97840(2) 0.46586(2)
O12_4 O 0.4823(3) 0.96515(10) 0.56098(10)
Cu2_3 Cu 0.50986(3) 0.05804(2) 0.00477(2)
O1_5 O 0.63279(18) 0.07333(9) 0.00635(9)
H1_5 H 0.6610 0.0500 0.0106
O11_3 O 0.52458(18) 0.04689(9) 0.06382(9)
N3_3 N 0.3939(2) 0.02847(11) 0.01534(10)
Cu1_5 Cu 0.48073(3) 0.22840(2) 0.71586(2)
H2_5 H 0.6560 0.0859 0.9856
O2_3 O 0.22542(18) 0.04689(9) 0.68618(9)
O3_5 O 0.49903(19) 0.06546(9) 0.94629(9)
O4_5 O 0.30183(19) 0.03768(10) 0.62792(9)
O5_5 O 0.5177(3) 0.21515(10) 0.81098(10)
N1_5 N 0.4329(2) 0.02155(11) 0.75366(10)
N2_3 N 0.3561(2) 0.02847(11) 0.73466(10)
O7_5 O 0.4445(2) 0.18935(13) 0.66468(11)
H3_5 H 0.4227 0.1656 0.6732
H4_5 H 0.4087 0.2026 0.6490
O8_5 O 0.4852(3) 0.17878(11) 0.75375(10)
O9_5 O 0.5211(3) 0.13691(11) 0.94731(11)
O10_5 O 0.6423(2) 0.02510(14) 0.70922(11)
C1_5 C 0.4998(3) 0.18112(13) 0.79209(13)
C2_5 C 0.2961(3) 0.03776(13) 0.66639(12)
C3_5 C 0.4968(3) 0.01657(13) 0.72460(13)
C4_5 C 0.4658(2) 0.06288(13) 0.81856(12)
C5_5 C 0.4949(3) 0.13970(13) 0.81647(13)
C6_5 C 0.5902(3) 0.00941(13) 0.73508(13)
C7_5 C 0.3719(3) 0.02774(13) 0.69320(13)
C8_5 C 0.4784(3) 0.06372(14) 0.86165(13)
H5_5 H 0.4734 0.0382 0.8768
C9_5 C 0.4985(3) 0.10224(13) 0.88230(13)
C10_5 C 0.4595(3) 0.02029(14) 0.68588(13)
H6_5 H 0.4872 0.0182 0.6602
C11_5 C 0.5079(3) 0.10267(14) 0.92906(13)
C12_5 C 0.4747(3) 0.10122(14) 0.79623(13)
H7_5 H 0.4670 0.1011 0.7675
C13_5 C 0.5068(3) 0.14056(13) 0.85950(13)
H8_5 H 0.5201 0.1665 0.8729
C14_5 C 0.4393(3) 0.02046(13) 0.79941(12)
H10_5 H 0.3837 0.0118 0.8111
Cu3_5 Cu 0.76927(3) 0.02160(2) 0.71586(2)
Cu4_5 Cu 0.51927(3) 0.27160(2) 0.78414(2)
Cu6_3 Cu 0.24014(3) 0.05804(2) 0.74523(2)
O12_5 O 0.4823(3) 0.28485(10) 0.68902(10)
O13_5 O 0.3596(2) 0.23905(12) 0.73302(10)
O14_5 O 0.6077(2) 0.22490(14) 0.70922(11)
O6_5 O 0.6096(2) 0.98905(12) 0.76698(10)
H9_5 H 0.4818 0.9986 0.8071
Cu5_5 Cu 0.73073(3) 0.97840(2) 0.78414(2)
Cu2_4 Cu 0.24014(3) 0.69196(2) 0.00477(2)
O1_6 O 0.11721(18) 0.67667(9) 0.00635(9)
H1_6 H 0.0890 0.7000 0.0106
O11_4 O 0.22542(18) 0.70311(9) 0.06382(9)
N3_4 N 0.3561(2) 0.72153(11) 0.01534(10)
Cu1_6 Cu 0.26927(3) 0.52160(2) 0.71586(2)
H2_6 H 0.0940 0.6641 0.9856
O2_4 O 0.52458(18) 0.70311(9) 0.68618(9)
O3_6 O 0.25097(19) 0.68454(9) 0.94629(9)
O4_6 O 0.44817(19) 0.71232(10) 0.62792(9)
O5_6 O 0.2323(3) 0.53485(10) 0.81098(10)
O6_6 O 0.1404(2) 0.76095(12) 0.76698(10)
N1_6 N 0.3171(2) 0.72845(11) 0.75366(10)
N2_4 N 0.3939(2) 0.72153(11) 0.73466(10)
O7_6 O 0.3055(2) 0.56065(13) 0.66468(11)
H3_6 H 0.3273 0.5844 0.6732
H4_6 H 0.3413 0.5474 0.6490
O8_6 O 0.2648(3) 0.57122(11) 0.75375(10)
O9_6 O 0.2289(3) 0.61309(11) 0.94731(11)
O10_6 O 0.1077(2) 0.72490(14) 0.70922(11)
C1_6 C 0.2502(3) 0.56888(13) 0.79209(13)
C2_6 C 0.4539(3) 0.71224(13) 0.66639(12)
C3_6 C 0.2532(3) 0.73343(13) 0.72460(13)
C4_6 C 0.2842(2) 0.68712(13) 0.81856(12)
C5_6 C 0.2551(3) 0.61030(13) 0.81647(13)
C6_6 C 0.1598(3) 0.74059(13) 0.73508(13)
C7_6 C 0.3781(3) 0.72226(13) 0.69320(13)
C8_6 C 0.2716(3) 0.68628(14) 0.86165(13)
H5_6 H 0.2766 0.7118 0.8768
C9_6 C 0.2515(3) 0.64776(13) 0.88230(13)
C10_6 C 0.2905(3) 0.72971(14) 0.68588(13)
H6_6 H 0.2628 0.7318 0.6602
C11_6 C 0.2421(3) 0.64733(14) 0.92906(13)
C12_6 C 0.2753(3) 0.64878(14) 0.79623(13)
H7_6 H 0.2830 0.6489 0.7675
C13_6 C 0.2432(3) 0.60944(13) 0.85950(13)
H8_6 H 0.2299 0.5835 0.8729
C14_6 C 0.3107(3) 0.72954(13) 0.79941(12)
H9_6 H 0.2682 0.7514 0.8071
H10_6 H 0.3663 0.7382 0.8111
Cu4_6 Cu 0.23073(3) 0.47840(2) 0.78414(2)
Cu5_6 Cu 0.01927(3) 0.77160(2) 0.78414(2)
Cu6_4 Cu 0.50986(3) 0.69196(2) 0.74523(2)
O12_6 O 0.2677(3) 0.46515(10) 0.68902(10)
O13_6 O 0.3904(2) 0.51095(12) 0.73302(10)
O14_6 O 0.1423(2) 0.52510(14) 0.70922(11)
Cu3_6 Cu 0.98073(3) 0.72840(2) 0.71586(2)
Cu1_7 Cu 0.26927(3) 0.22840(2) 0.03414(2)
O4_7 O 0.44817(19) 0.03768(10) 0.12208(9)
O7_7 O 0.3055(2) 0.18935(13) 0.08532(11)
H3_7 H 0.3273 0.1656 0.0768
H4_7 H 0.3413 0.2026 0.1010
O10_7 O 0.1077(2) 0.02510(14) 0.04078(11)
C2_7 C 0.4539(3) 0.03776(13) 0.08361(12)
C3_7 C 0.2532(3) 0.01657(13) 0.02540(13)
C6_7 C 0.1598(3) 0.00941(13) 0.01492(13)
C7_7 C 0.3781(3) 0.02774(13) 0.05680(13)
C10_7 C 0.2905(3) 0.02029(14) 0.06412(13)
H6_7 H 0.2628 0.0182 0.0898
O12_7 O 0.2677(3) 0.28485(10) 0.06098(10)
O13_7 O 0.3904(2) 0.23905(12) 0.01698(10)
O14_7 O 0.1423(2) 0.22490(14) 0.04078(11)
O1_7 O 0.11721(18) 0.07333(9) 0.74365(9)
H1_7 H 0.0890 0.0500 0.7394
H2_7 H 0.0940 0.0859 0.7644
O3_7 O 0.25097(19) 0.06546(9) 0.80371(9)
O5_7 O 0.2323(3) 0.21515(10) 0.93902(10)
N1_7 N 0.3171(2) 0.02155(11) 0.99634(10)
O8_7 O 0.2648(3) 0.17878(11) 0.99625(10)
O9_7 O 0.2289(3) 0.13691(11) 0.80269(11)
C1_7 C 0.2502(3) 0.18112(13) 0.95791(13)
C4_7 C 0.2842(2) 0.06288(13) 0.93144(12)
C5_7 C 0.2551(3) 0.13970(13) 0.93353(13)
C8_7 C 0.2716(3) 0.06372(14) 0.88835(13)
H5_7 H 0.2766 0.0382 0.8732
C9_7 C 0.2515(3) 0.10224(13) 0.86770(13)
C11_7 C 0.2421(3) 0.10267(14) 0.82094(13)
C12_7 C 0.2753(3) 0.10122(14) 0.95377(13)
H7_7 H 0.2830 0.1011 0.9825
C13_7 C 0.2432(3) 0.14056(13) 0.89050(13)
H8_7 H 0.2299 0.1665 0.8771
C14_7 C 0.3107(3) 0.02046(13) 0.95059(12)
H10_7 H 0.3663 0.0118 0.9389
Cu4_7 Cu 0.23073(3) 0.27160(2) 0.96586(2)
Cu1_8 Cu 0.48073(3) 0.52160(2) 0.03414(2)
O4_8 O 0.30183(19) 0.71232(10) 0.12208(9)
O7_8 O 0.4445(2) 0.56065(13) 0.08532(11)
H3_8 H 0.4227 0.5844 0.0768
H4_8 H 0.4087 0.5474 0.1010
O10_8 O 0.6423(2) 0.72490(14) 0.04078(11)
C2_8 C 0.2961(3) 0.71224(13) 0.08361(12)
C3_8 C 0.4968(3) 0.73343(13) 0.02540(13)
C6_8 C 0.5902(3) 0.74059(13) 0.01492(13)
C7_8 C 0.3719(3) 0.72226(13) 0.05680(13)
C10_8 C 0.4595(3) 0.72971(14) 0.06412(13)
H6_8 H 0.4872 0.7318 0.0898
Cu3_7 Cu 0.76927(3) 0.72840(2) 0.03414(2)
O12_8 O 0.4823(3) 0.46515(10) 0.06098(10)
O13_8 O 0.3596(2) 0.51095(12) 0.01698(10)
O14_8 O 0.6077(2) 0.52510(14) 0.04078(11)
O1_8 O 0.63279(18) 0.67667(9) 0.74365(9)
H1_8 H 0.6610 0.7000 0.7394
H2_8 H 0.6560 0.6641 0.7644
O3_8 O 0.49903(19) 0.68454(9) 0.80371(9)
O5_8 O 0.5177(3) 0.53485(10) 0.93902(10)
O6_7 O 0.6096(2) 0.76095(12) 0.98302(10)
N1_8 N 0.4329(2) 0.72845(11) 0.99634(10)
O8_8 O 0.4852(3) 0.57122(11) 0.99625(10)
O9_8 O 0.5211(3) 0.61309(11) 0.80269(11)
C1_8 C 0.4998(3) 0.56888(13) 0.95791(13)
C4_8 C 0.4658(2) 0.68712(13) 0.93144(12)
C5_8 C 0.4949(3) 0.61030(13) 0.93353(13)
C8_8 C 0.4784(3) 0.68628(14) 0.88835(13)
H5_8 H 0.4734 0.7118 0.8732
C9_8 C 0.4985(3) 0.64776(13) 0.86770(13)
C11_8 C 0.5079(3) 0.64733(14) 0.82094(13)
C12_8 C 0.4747(3) 0.64878(14) 0.95377(13)
H7_8 H 0.4670 0.6489 0.9825
C13_8 C 0.5068(3) 0.60944(13) 0.89050(13)
H8_8 H 0.5201 0.5835 0.8771
C14_8 C 0.4393(3) 0.72954(13) 0.95059(12)
H9_7 H 0.4818 0.7514 0.9429
H10_8 H 0.3837 0.7382 0.9389
Cu4_8 Cu 0.51927(3) 0.47840(2) 0.96586(2)
Cu5_7 Cu 0.73073(3) 0.77160(2) 0.96586(2)
H2_9 H 0.1560 0.5859 0.9856
O5_9 O 0.0177(3) 0.71515(10) 0.81098(10)
O6_8 O 0.1096(2) 0.48905(12) 0.76698(10)
O9_9 O 0.0211(3) 0.63691(11) 0.94731(11)
C6_9 C 0.0902(3) 0.50941(13) 0.73508(13)
C11_9 C 0.0079(3) 0.60267(14) 0.92906(13)
C13_9 C 0.0068(3) 0.64056(13) 0.85950(13)
H8_9 H 0.0201 0.6665 0.8729
N3_5 N 0.8939(2) 0.52847(11) 0.01534(10)
O2_5 O 0.72542(18) 0.54689(9) 0.68618(9)
O3_9 O 0.99903(19) 0.56546(9) 0.94629(9)
O4_9 O 0.80183(19) 0.53768(10) 0.62792(9)
N1_9 N 0.9329(2) 0.52155(11) 0.75366(10)
N2_5 N 0.8561(2) 0.52847(11) 0.73466(10)
O7_9 O 0.9445(2) 0.68935(13) 0.66468(11)
H3_9 H 0.9227 0.6656 0.6732
H4_9 H 0.9087 0.7026 0.6490
O8_9 O 0.9852(3) 0.67878(11) 0.75375(10)
C1_9 C 0.9998(3) 0.68112(13) 0.79209(13)
C2_9 C 0.7961(3) 0.53776(13) 0.66639(12)
C3_9 C 0.9968(3) 0.51657(13) 0.72460(13)
C4_9 C 0.9658(2) 0.56288(13) 0.81856(12)
C5_9 C 0.9949(3) 0.63970(13) 0.81647(13)
C7_9 C 0.8719(3) 0.52774(13) 0.69320(13)
C8_9 C 0.9784(3) 0.56372(14) 0.86165(13)
H5_9 H 0.9734 0.5382 0.8768
C9_9 C 0.9985(3) 0.60224(13) 0.88230(13)
C10_9 C 0.9595(3) 0.52029(14) 0.68588(13)
H6_9 H 0.9872 0.5182 0.6602
C12_9 C 0.9747(3) 0.60122(14) 0.79623(13)
H7_9 H 0.9670 0.6011 0.7675
C14_9 C 0.9393(3) 0.52046(13) 0.79941(12)
H9_8 H 0.9818 0.4986 0.8071
H10_9 H 0.8837 0.5118 0.8111
Cu6_5 Cu 0.74014(3) 0.55804(2) 0.74523(2)
O12_9 O 0.9823(3) 0.78485(10) 0.68902(10)
O13_9 O 0.8596(2) 0.73905(12) 0.73302(10)
O2_6 O 0.02458(18) 0.20311(9) 0.68618(9)
Cu6_6 Cu 0.00986(3) 0.19196(2) 0.74523(2)
H2_10 H 0.5940 0.1641 0.9856
O3_10 O 0.75097(19) 0.18454(9) 0.94629(9)
O4_10 O 0.94817(19) 0.21232(10) 0.62792(9)
O5_10 O 0.7323(3) 0.03485(10) 0.81098(10)
O6_9 O 0.6404(2) 0.26095(12) 0.76698(10)
N1_10 N 0.8171(2) 0.22845(11) 0.75366(10)
N2_6 N 0.8939(2) 0.22153(11) 0.73466(10)
O7_10 O 0.8055(2) 0.06065(13) 0.66468(11)
H3_10 H 0.8273 0.0844 0.6732
H4_10 H 0.8413 0.0474 0.6490
O8_10 O 0.7648(3) 0.07122(11) 0.75375(10)
O9_10 O 0.7289(3) 0.11309(11) 0.94731(11)
C1_10 C 0.7502(3) 0.06888(13) 0.79209(13)
C2_10 C 0.9539(3) 0.21224(13) 0.66639(12)
C3_10 C 0.7532(3) 0.23343(13) 0.72460(13)
C4_10 C 0.7842(2) 0.18712(13) 0.81856(12)
C5_10 C 0.7551(3) 0.11030(13) 0.81647(13)
C6_10 C 0.6598(3) 0.24059(13) 0.73508(13)
C7_10 C 0.8781(3) 0.22226(13) 0.69320(13)
C8_10 C 0.7716(3) 0.18628(14) 0.86165(13)
H5_10 H 0.7766 0.2118 0.8768
C9_10 C 0.7515(3) 0.14776(13) 0.88230(13)
C10_10 C 0.7905(3) 0.22971(14) 0.68588(13)
H6_10 H 0.7628 0.2318 0.6602
C11_10 C 0.7421(3) 0.14733(14) 0.92906(13)
C12_10 C 0.7753(3) 0.14878(14) 0.79623(13)
H7_10 H 0.7830 0.1489 0.7675
C13_10 C 0.7432(3) 0.10944(13) 0.85950(13)
H8_10 H 0.7299 0.0835 0.8729
C14_10 C 0.8107(3) 0.22954(13) 0.79941(12)
H9_9 H 0.7682 0.2514 0.8071
H10_10 H 0.8663 0.2382 0.8111
O13_10 O 0.8904(2) 0.01095(12) 0.73302(10)
O12_10 O 0.7677(3) 0.96515(10) 0.68902(10)
O4_11 O 0.94817(19) 0.53768(10) 0.12208(9)
O7_11 O 0.8055(2) 0.68935(13) 0.08532(11)
H3_11 H 0.8273 0.6656 0.0768
H4_11 H 0.8413 0.7026 0.1010
C2_11 C 0.9539(3) 0.53776(13) 0.08361(12)
C3_11 C 0.7532(3) 0.51657(13) 0.02540(13)
C6_11 C 0.6598(3) 0.50941(13) 0.01492(13)
C7_11 C 0.8781(3) 0.52774(13) 0.05680(13)
C10_11 C 0.7905(3) 0.52029(14) 0.06412(13)
H6_11 H 0.7628 0.5182 0.0898
O12_11 O 0.7677(3) 0.78485(10) 0.06098(10)
O13_11 O 0.8904(2) 0.73905(12) 0.01698(10)
O1_9 O 0.61721(18) 0.57333(9) 0.74365(9)
H1_9 H 0.5890 0.5500 0.7394
H2_11 H 0.5940 0.5859 0.7644
O3_11 O 0.75097(19) 0.56546(9) 0.80371(9)
O5_11 O 0.7323(3) 0.71515(10) 0.93902(10)
O6_10 O 0.6404(2) 0.48905(12) 0.98302(10)
N1_11 N 0.8171(2) 0.52155(11) 0.99634(10)
O8_11 O 0.7648(3) 0.67878(11) 0.99625(10)
O9_11 O 0.7289(3) 0.63691(11) 0.80269(11)
C1_11 C 0.7502(3) 0.68112(13) 0.95791(13)
C4_11 C 0.7842(2) 0.56288(13) 0.93144(12)
C5_11 C 0.7551(3) 0.63970(13) 0.93353(13)
C8_11 C 0.7716(3) 0.56372(14) 0.88835(13)
H5_11 H 0.7766 0.5382 0.8732
C9_11 C 0.7515(3) 0.60224(13) 0.86770(13)
C11_11 C 0.7421(3) 0.60267(14) 0.82094(13)
C12_11 C 0.7753(3) 0.60122(14) 0.95377(13)
H7_11 H 0.7830 0.6011 0.9825
C13_11 C 0.7432(3) 0.64056(13) 0.89050(13)
H8_11 H 0.7299 0.6665 0.8771
C14_11 C 0.8107(3) 0.52046(13) 0.95059(12)
H9_10 H 0.7682 0.4986 0.9429
H10_11 H 0.8663 0.5118 0.9389
C6_12 C 0.0902(3) 0.24059(13) 0.01492(13)
O1_10 O 0.13279(18) 0.17667(9) 0.74365(9)
H1_10 H 0.1610 0.2000 0.7394
H2_12 H 0.1560 0.1641 0.7644
O5_12 O 0.0177(3) 0.03485(10) 0.93902(10)
O6_11 O 0.1096(2) 0.26095(12) 0.98302(10)
O9_12 O 0.0211(3) 0.11309(11) 0.80269(11)
C11_12 C 0.0079(3) 0.14733(14) 0.82094(13)
C13_12 C 0.0068(3) 0.10944(13) 0.89050(13)
H8_12 H 0.0201 0.0835 0.8771
O3_12 O 0.99903(19) 0.18454(9) 0.80371(9)
N1_12 N 0.9329(2) 0.22845(11) 0.99634(10)
O8_12 O 0.9852(3) 0.07122(11) 0.99625(10)
C1_12 C 0.9998(3) 0.06888(13) 0.95791(13)
C4_12 C 0.9658(2) 0.18712(13) 0.93144(12)
C5_12 C 0.9949(3) 0.11030(13) 0.93353(13)
C8_12 C 0.9784(3) 0.18628(14) 0.88835(13)
H5_12 H 0.9734 0.2118 0.8732
C9_12 C 0.9985(3) 0.14776(13) 0.86770(13)
C12_12 C 0.9747(3) 0.14878(14) 0.95377(13)
H7_12 H 0.9670 0.1489 0.9825
C14_12 C 0.9393(3) 0.22954(13) 0.95059(12)
H9_11 H 0.9818 0.2514 0.9429
H10_12 H 0.8837 0.2382 0.9389
O12_12 O 0.9823(3) 0.96515(10) 0.06098(10)
Cu2_5 Cu 0.00986(3) 0.05804(2) 0.50477(2)
O1_11 O 0.13279(18) 0.07333(9) 0.50635(9)
H1_11 H 0.1610 0.0500 0.5106
H2_13 H 0.1560 0.0859 0.4856
O5_13 O 0.0177(3) 0.21515(10) 0.31098(10)
O9_13 O 0.0211(3) 0.13691(11) 0.44731(11)
C6_13 C 0.0902(3) 0.00941(13) 0.23508(13)
C11_13 C 0.0079(3) 0.10267(14) 0.42906(13)
C13_13 C 0.0068(3) 0.14056(13) 0.35950(13)
H8_13 H 0.0201 0.1665 0.3729
O11_5 O 0.02458(18) 0.04689(9) 0.56382(9)
O6_12 O 0.1096(2) 0.98905(12) 0.26698(10)
O2_7 O 0.72542(18) 0.04689(9) 0.18618(9)
O3_13 O 0.99903(19) 0.06546(9) 0.44629(9)
O4_12 O 0.80183(19) 0.03768(10) 0.12792(9)
N1_13 N 0.9329(2) 0.02155(11) 0.25366(10)
N2_7 N 0.8561(2) 0.02847(11) 0.23466(10)
O7_12 O 0.9445(2) 0.18935(13) 0.16468(11)
H3_12 H 0.9227 0.1656 0.1732
H4_12 H 0.9087 0.2026 0.1490
O8_13 O 0.9852(3) 0.17878(11) 0.25375(10)
C1_13 C 0.9998(3) 0.18112(13) 0.29209(13)
C2_12 C 0.7961(3) 0.03776(13) 0.16639(12)
C3_12 C 0.9968(3) 0.01657(13) 0.22460(13)
C4_13 C 0.9658(2) 0.06288(13) 0.31856(12)
C5_13 C 0.9949(3) 0.13970(13) 0.31647(13)
C7_12 C 0.8719(3) 0.02774(13) 0.19320(13)
C8_13 C 0.9784(3) 0.06372(14) 0.36165(13)
H5_13 H 0.9734 0.0382 0.3768
C9_13 C 0.9985(3) 0.10224(13) 0.38230(13)
C10_12 C 0.9595(3) 0.02029(14) 0.18588(13)
H6_12 H 0.9872 0.0182 0.1602
C12_13 C 0.9747(3) 0.10122(14) 0.29623(13)
H7_13 H 0.9670 0.1011 0.2675
C14_13 C 0.9393(3) 0.02046(13) 0.29941(12)
H10_13 H 0.8837 0.0118 0.3111
Cu6_7 Cu 0.74014(3) 0.05804(2) 0.24523(2)
O12_13 O 0.9823(3) 0.28485(10) 0.18902(10)
O13_12 O 0.8596(2) 0.23905(12) 0.23302(10)
N3_6 N 0.8939(2) 0.02847(11) 0.51534(10)
O2_8 O 0.02458(18) 0.70311(9) 0.18618(9)
Cu6_8 Cu 0.00986(3) 0.69196(2) 0.24523(2)
Cu2_6 Cu 0.74014(3) 0.69196(2) 0.50477(2)
O1_12 O 0.61721(18) 0.67667(9) 0.50635(9)
H1_12 H 0.5890 0.7000 0.5106
H2_14 H 0.5940 0.6641 0.4856
O3_14 O 0.75097(19) 0.68454(9) 0.44629(9)
O4_13 O 0.94817(19) 0.71232(10) 0.12792(9)
O5_14 O 0.7323(3) 0.53485(10) 0.31098(10)
O6_13 O 0.6404(2) 0.76095(12) 0.26698(10)
N1_14 N 0.8171(2) 0.72845(11) 0.25366(10)
N2_8 N 0.8939(2) 0.72153(11) 0.23466(10)
O7_13 O 0.8055(2) 0.56065(13) 0.16468(11)
H3_13 H 0.8273 0.5844 0.1732
H4_13 H 0.8413 0.5474 0.1490
O8_14 O 0.7648(3) 0.57122(11) 0.25375(10)
O9_14 O 0.7289(3) 0.61309(11) 0.44731(11)
C1_14 C 0.7502(3) 0.56888(13) 0.29209(13)
C2_13 C 0.9539(3) 0.71224(13) 0.16639(12)
C3_13 C 0.7532(3) 0.73343(13) 0.22460(13)
C4_14 C 0.7842(2) 0.68712(13) 0.31856(12)
C5_14 C 0.7551(3) 0.61030(13) 0.31647(13)
C6_14 C 0.6598(3) 0.74059(13) 0.23508(13)
C7_13 C 0.8781(3) 0.72226(13) 0.19320(13)
C8_14 C 0.7716(3) 0.68628(14) 0.36165(13)
H5_14 H 0.7766 0.7118 0.3768
C9_14 C 0.7515(3) 0.64776(13) 0.38230(13)
C10_13 C 0.7905(3) 0.72971(14) 0.18588(13)
H6_13 H 0.7628 0.7318 0.1602
C11_14 C 0.7421(3) 0.64733(14) 0.42906(13)
C12_14 C 0.7753(3) 0.64878(14) 0.29623(13)
H7_14 H 0.7830 0.6489 0.2675
C13_14 C 0.7432(3) 0.60944(13) 0.35950(13)
H8_14 H 0.7299 0.5835 0.3729
C14_14 C 0.8107(3) 0.72954(13) 0.29941(12)
H9_12 H 0.7682 0.7514 0.3071
H10_14 H 0.8663 0.7382 0.3111
O11_6 O 0.72542(18) 0.70311(9) 0.56382(9)
O12_14 O 0.7677(3) 0.46515(10) 0.18902(10)
O13_13 O 0.8904(2) 0.51095(12) 0.23302(10)
N3_7 N 0.8561(2) 0.72153(11) 0.51534(10)
O1_13 O 0.61721(18) 0.07333(9) 0.24365(9)
H1_13 H 0.5890 0.0500 0.2394
H2_15 H 0.5940 0.0859 0.2644
O3_15 O 0.75097(19) 0.06546(9) 0.30371(9)
O4_14 O 0.94817(19) 0.03768(10) 0.62208(9)
O5_15 O 0.7323(3) 0.21515(10) 0.43902(10)
N1_15 N 0.8171(2) 0.02155(11) 0.49634(10)
O7_14 O 0.8055(2) 0.18935(13) 0.58532(11)
H3_14 H 0.8273 0.1656 0.5768
H4_14 H 0.8413 0.2026 0.6010
O8_15 O 0.7648(3) 0.17878(11) 0.49625(10)
O9_15 O 0.7289(3) 0.13691(11) 0.30269(11)
C1_15 C 0.7502(3) 0.18112(13) 0.45791(13)
C2_14 C 0.9539(3) 0.03776(13) 0.58361(12)
C3_14 C 0.7532(3) 0.01657(13) 0.52540(13)
C4_15 C 0.7842(2) 0.06288(13) 0.43144(12)
C5_15 C 0.7551(3) 0.13970(13) 0.43353(13)
C6_15 C 0.6598(3) 0.00941(13) 0.51492(13)
C7_14 C 0.8781(3) 0.02774(13) 0.55680(13)
C8_15 C 0.7716(3) 0.06372(14) 0.38835(13)
H5_15 H 0.7766 0.0382 0.3732
C9_15 C 0.7515(3) 0.10224(13) 0.36770(13)
C10_14 C 0.7905(3) 0.02029(14) 0.56412(13)
H6_14 H 0.7628 0.0182 0.5898
C11_15 C 0.7421(3) 0.10267(14) 0.32094(13)
C12_15 C 0.7753(3) 0.10122(14) 0.45377(13)
H7_15 H 0.7830 0.1011 0.4825
C13_15 C 0.7432(3) 0.14056(13) 0.39050(13)
H8_15 H 0.7299 0.1665 0.3771
C14_15 C 0.8107(3) 0.02046(13) 0.45059(12)
H10_15 H 0.8663 0.0118 0.4389
O12_15 O 0.7677(3) 0.28485(10) 0.56098(10)
O13_14 O 0.8904(2) 0.23905(12) 0.51698(10)
O6_14 O 0.6404(2) 0.98905(12) 0.48302(10)
H9_13 H 0.7682 0.9986 0.4429
O1_14 O 0.13279(18) 0.67667(9) 0.24365(9)
H1_14 H 0.1610 0.7000 0.2394
H2_16 H 0.1560 0.6641 0.2644
O5_16 O 0.0177(3) 0.53485(10) 0.43902(10)
O6_15 O 0.1096(2) 0.76095(12) 0.48302(10)
O9_16 O 0.0211(3) 0.61309(11) 0.30269(11)
C6_16 C 0.0902(3) 0.74059(13) 0.51492(13)
C11_16 C 0.0079(3) 0.64733(14) 0.32094(13)
C13_16 C 0.0068(3) 0.60944(13) 0.39050(13)
H8_16 H 0.0201 0.5835 0.3771
O3_16 O 0.99903(19) 0.68454(9) 0.30371(9)
O4_15 O 0.80183(19) 0.71232(10) 0.62208(9)
N1_16 N 0.9329(2) 0.72845(11) 0.49634(10)
O7_15 O 0.9445(2) 0.56065(13) 0.58532(11)
H3_15 H 0.9227 0.5844 0.5768
H4_15 H 0.9087 0.5474 0.6010
O8_16 O 0.9852(3) 0.57122(11) 0.49625(10)
C1_16 C 0.9998(3) 0.56888(13) 0.45791(13)
C2_15 C 0.7961(3) 0.71224(13) 0.58361(12)
C3_15 C 0.9968(3) 0.73343(13) 0.52540(13)
C4_16 C 0.9658(2) 0.68712(13) 0.43144(12)
C5_16 C 0.9949(3) 0.61030(13) 0.43353(13)
C7_15 C 0.8719(3) 0.72226(13) 0.55680(13)
C8_16 C 0.9784(3) 0.68628(14) 0.38835(13)
H5_16 H 0.9734 0.7118 0.3732
C9_16 C 0.9985(3) 0.64776(13) 0.36770(13)
C10_15 C 0.9595(3) 0.72971(14) 0.56412(13)
H6_15 H 0.9872 0.7318 0.5898
C12_16 C 0.9747(3) 0.64878(14) 0.45377(13)
H7_16 H 0.9670 0.6489 0.4825
C14_16 C 0.9393(3) 0.72954(13) 0.45059(12)
H9_14 H 0.9818 0.7514 0.4429
H10_16 H 0.8837 0.7382 0.4389
O12_16 O 0.9823(3) 0.46515(10) 0.56098(10)
O13_15 O 0.8596(2) 0.51095(12) 0.51698(10)
Cu2_7 Cu 0.49014(3) 0.44196(2) 0.49523(2)
O1_15 O 0.36721(18) 0.42667(9) 0.49365(9)
H1_15 H 0.3390 0.4500 0.4894
H2_17 H 0.3440 0.4141 0.5144
O2_9 O 0.77458(18) 0.45311(9) 0.81382(9)
O3_17 O 0.50097(19) 0.43454(9) 0.55371(9)
O4_16 O 0.69817(19) 0.46232(10) 0.87208(9)
N1_17 N 0.5671(2) 0.47845(11) 0.74634(10)
N2_9 N 0.6439(2) 0.47153(11) 0.76534(10)
O7_16 O 0.5555(2) 0.31065(13) 0.83532(11)
H3_16 H 0.5773 0.3344 0.8268
H4_16 H 0.5913 0.2974 0.8510
O8_17 O 0.5148(3) 0.32122(11) 0.74625(10)
O9_17 O 0.4789(3) 0.36309(11) 0.55269(11)
O10_9 O 0.3577(2) 0.47490(14) 0.79078(11)
C1_17 C 0.5002(3) 0.31888(13) 0.70791(13)
C2_16 C 0.7039(3) 0.46224(13) 0.83361(12)
C3_16 C 0.5032(3) 0.48343(13) 0.77540(13)
C4_17 C 0.5342(2) 0.43712(13) 0.68144(12)
C5_17 C 0.5051(3) 0.36030(13) 0.68353(13)
C6_17 C 0.4098(3) 0.49059(13) 0.76492(13)
C7_16 C 0.6281(3) 0.47226(13) 0.80680(13)
C8_17 C 0.5216(3) 0.43628(14) 0.63835(13)
H5_17 H 0.5266 0.4618 0.6232
C9_17 C 0.5015(3) 0.39776(13) 0.61770(13)
C10_16 C 0.5405(3) 0.47971(14) 0.81412(13)
H6_16 H 0.5128 0.4818 0.8398
C11_17 C 0.4921(3) 0.39733(14) 0.57094(13)
C12_17 C 0.5253(3) 0.39878(14) 0.70377(13)
H7_17 H 0.5330 0.3989 0.7325
C13_17 C 0.4932(3) 0.35944(13) 0.64050(13)
H8_17 H 0.4799 0.3335 0.6271
C14_17 C 0.5607(3) 0.47954(13) 0.70059(12)
H9_15 H 0.5182 0.5014 0.6929
H10_17 H 0.6163 0.4882 0.6889
Cu6_9 Cu 0.75986(3) 0.44196(2) 0.75477(2)
O11_7 O 0.47542(18) 0.45311(9) 0.43618(9)
N3_8 N 0.6061(2) 0.47153(11) 0.48466(10)
O14_9 O 0.3923(2) 0.27510(14) 0.79078(11)
Cu2_8 Cu 0.75986(3) 0.80804(2) 0.49523(2)
O1_16 O 0.88279(18) 0.82333(9) 0.49365(9)
H1_16 H 0.9110 0.8000 0.4894
H2_18 H 0.9060 0.8359 0.5144
O2_10 O 0.47542(18) 0.79689(9) 0.81382(9)
O3_18 O 0.74903(19) 0.81546(9) 0.55371(9)
O4_17 O 0.55183(19) 0.78768(10) 0.87208(9)
N1_18 N 0.6829(2) 0.77155(11) 0.74634(10)
N2_10 N 0.6061(2) 0.77847(11) 0.76534(10)
O7_17 O 0.6945(2) 0.93935(13) 0.83532(11)
H3_17 H 0.6727 0.9156 0.8268
H4_17 H 0.6587 0.9526 0.8510
O8_18 O 0.7352(3) 0.92878(11) 0.74625(10)
O9_18 O 0.7711(3) 0.88691(11) 0.55269(11)
O10_10 O 0.8923(2) 0.77510(14) 0.79078(11)
C1_18 C 0.7498(3) 0.93112(13) 0.70791(13)
C2_17 C 0.5461(3) 0.78776(13) 0.83361(12)
C3_17 C 0.7468(3) 0.76657(13) 0.77540(13)
C4_18 C 0.7158(2) 0.81288(13) 0.68144(12)
C5_18 C 0.7449(3) 0.88970(13) 0.68353(13)
C6_18 C 0.8402(3) 0.75941(13) 0.76492(13)
C7_17 C 0.6219(3) 0.77774(13) 0.80680(13)
C8_18 C 0.7284(3) 0.81372(14) 0.63835(13)
H5_18 H 0.7234 0.7882 0.6232
C9_18 C 0.7485(3) 0.85224(13) 0.61770(13)
C10_17 C 0.7095(3) 0.77029(14) 0.81412(13)
H6_17 H 0.7372 0.7682 0.8398
C11_18 C 0.7579(3) 0.85267(14) 0.57094(13)
C12_18 C 0.7247(3) 0.85122(14) 0.70377(13)
H7_18 H 0.7170 0.8511 0.7325
C13_18 C 0.7568(3) 0.89056(13) 0.64050(13)
H8_18 H 0.7701 0.9165 0.6271
C14_18 C 0.6893(3) 0.77046(13) 0.70059(12)
H9_16 H 0.7318 0.7486 0.6929
H10_18 H 0.6337 0.7618 0.6889
Cu6_10 Cu 0.49014(3) 0.80804(2) 0.75477(2)
O11_8 O 0.77458(18) 0.79689(9) 0.43618(9)
N3_9 N 0.6439(2) 0.77847(11) 0.48466(10)
O14_10 O 0.8577(2) 0.97490(14) 0.79078(11)
O1_17 O 0.88279(18) 0.42667(9) 0.75635(9)
H1_17 H 0.9110 0.4500 0.7606
H2_19 H 0.9060 0.4141 0.7356
O3_19 O 0.74903(19) 0.43454(9) 0.69629(9)
O4_18 O 0.55183(19) 0.46232(10) 0.37792(9)
N1_19 N 0.6829(2) 0.47845(11) 0.50366(10)
O7_18 O 0.6945(2) 0.31065(13) 0.41468(11)
H3_18 H 0.6727 0.3344 0.4232
H4_18 H 0.6587 0.2974 0.3990
O8_19 O 0.7352(3) 0.32122(11) 0.50375(10)
O9_19 O 0.7711(3) 0.36309(11) 0.69731(11)
O10_11 O 0.8923(2) 0.47490(14) 0.45922(11)
C1_19 C 0.7498(3) 0.31888(13) 0.54209(13)
C2_18 C 0.5461(3) 0.46224(13) 0.41639(12)
C3_18 C 0.7468(3) 0.48343(13) 0.47460(13)
C4_19 C 0.7158(2) 0.43712(13) 0.56856(12)
C5_19 C 0.7449(3) 0.36030(13) 0.56647(13)
C6_19 C 0.8402(3) 0.49059(13) 0.48508(13)
C7_18 C 0.6219(3) 0.47226(13) 0.44320(13)
C8_19 C 0.7284(3) 0.43628(14) 0.61165(13)
H5_19 H 0.7234 0.4618 0.6268
C9_19 C 0.7485(3) 0.39776(13) 0.63230(13)
C10_18 C 0.7095(3) 0.47971(14) 0.43588(13)
H6_18 H 0.7372 0.4818 0.4102
C11_19 C 0.7579(3) 0.39733(14) 0.67906(13)
C12_19 C 0.7247(3) 0.39878(14) 0.54623(13)
H7_19 H 0.7170 0.3989 0.5175
C13_19 C 0.7568(3) 0.35944(13) 0.60950(13)
H8_19 H 0.7701 0.3335 0.6229
C14_19 C 0.6893(3) 0.47954(13) 0.54941(12)
H9_17 H 0.7318 0.5014 0.5571
H10_19 H 0.6337 0.4882 0.5611
O14_11 O 0.8577(2) 0.27510(14) 0.45922(11)
O1_18 O 0.36721(18) 0.82333(9) 0.75635(9)
H1_18 H 0.3390 0.8000 0.7606
H2_20 H 0.3440 0.8359 0.7356
O3_20 O 0.50097(19) 0.81546(9) 0.69629(9)
O4_19 O 0.69817(19) 0.78768(10) 0.37792(9)
N1_20 N 0.5671(2) 0.77155(11) 0.50366(10)
O7_19 O 0.5555(2) 0.93935(13) 0.41468(11)
H3_19 H 0.5773 0.9156 0.4232
H4_19 H 0.5913 0.9526 0.3990
O8_20 O 0.5148(3) 0.92878(11) 0.50375(10)
O9_20 O 0.4789(3) 0.88691(11) 0.69731(11)
O10_12 O 0.3577(2) 0.77510(14) 0.45922(11)
C1_20 C 0.5002(3) 0.93112(13) 0.54209(13)
C2_19 C 0.7039(3) 0.78776(13) 0.41639(12)
C3_19 C 0.5032(3) 0.76657(13) 0.47460(13)
C4_20 C 0.5342(2) 0.81288(13) 0.56856(12)
C5_20 C 0.5051(3) 0.88970(13) 0.56647(13)
C6_20 C 0.4098(3) 0.75941(13) 0.48508(13)
C7_19 C 0.6281(3) 0.77774(13) 0.44320(13)
C8_20 C 0.5216(3) 0.81372(14) 0.61165(13)
H5_20 H 0.5266 0.7882 0.6268
C9_20 C 0.5015(3) 0.85224(13) 0.63230(13)
C10_19 C 0.5405(3) 0.77029(14) 0.43588(13)
H6_19 H 0.5128 0.7682 0.4102
C11_20 C 0.4921(3) 0.85267(14) 0.67906(13)
C12_20 C 0.5253(3) 0.85122(14) 0.54623(13)
H7_20 H 0.5330 0.8511 0.5175
C13_20 C 0.4932(3) 0.89056(13) 0.60950(13)
H8_20 H 0.4799 0.9165 0.6229
C14_20 C 0.5607(3) 0.77046(13) 0.54941(12)
H9_18 H 0.5182 0.7486 0.5571
H10_20 H 0.6163 0.7618 0.5611
O14_12 O 0.3923(2) 0.97490(14) 0.45922(11)
H9_19 H 0.5182 0.0014 0.1929
H2_21 H 0.3440 0.9141 0.0144
O2_11 O 0.77458(18) 0.95311(9) 0.31382(9)
O3_21 O 0.50097(19) 0.93454(9) 0.05371(9)
O4_20 O 0.69817(19) 0.96232(10) 0.37208(9)
N1_21 N 0.5671(2) 0.97845(11) 0.24634(10)
N2_11 N 0.6439(2) 0.97153(11) 0.26534(10)
O7_20 O 0.5555(2) 0.81065(13) 0.33532(11)
H3_20 H 0.5773 0.8344 0.3268
H4_20 H 0.5913 0.7974 0.3510
O8_21 O 0.5148(3) 0.82122(11) 0.24625(10)
O9_21 O 0.4789(3) 0.86309(11) 0.05269(11)
O10_13 O 0.3577(2) 0.97490(14) 0.29078(11)
C1_21 C 0.5002(3) 0.81888(13) 0.20791(13)
C2_20 C 0.7039(3) 0.96224(13) 0.33361(12)
C3_20 C 0.5032(3) 0.98343(13) 0.27540(13)
C4_21 C 0.5342(2) 0.93712(13) 0.18144(12)
C5_21 C 0.5051(3) 0.86030(13) 0.18353(13)
C6_21 C 0.4098(3) 0.99059(13) 0.26492(13)
C7_20 C 0.6281(3) 0.97226(13) 0.30680(13)
C8_21 C 0.5216(3) 0.93628(14) 0.13835(13)
H5_21 H 0.5266 0.9618 0.1232
C9_21 C 0.5015(3) 0.89776(13) 0.11770(13)
C10_20 C 0.5405(3) 0.97971(14) 0.31412(13)
H6_20 H 0.5128 0.9818 0.3398
C11_21 C 0.4921(3) 0.89733(14) 0.07094(13)
C12_21 C 0.5253(3) 0.89878(14) 0.20377(13)
H7_21 H 0.5330 0.8989 0.2325
C13_21 C 0.4932(3) 0.85944(13) 0.14050(13)
H8_21 H 0.4799 0.8335 0.1271
C14_21 C 0.5607(3) 0.97954(13) 0.20059(12)
H10_21 H 0.6163 0.9882 0.1889
Cu6_11 Cu 0.75986(3) 0.94196(2) 0.25477(2)
O14_13 O 0.3923(2) 0.77510(14) 0.29078(11)
Cu2_9 Cu 0.49014(3) 0.94196(2) 0.99523(2)
O1_19 O 0.36721(18) 0.92667(9) 0.99365(9)
H1_19 H 0.3390 0.9500 0.9894
O11_9 O 0.47542(18) 0.95311(9) 0.93618(9)
N3_10 N 0.6061(2) 0.97153(11) 0.98466(10)
H2_22 H 0.9060 0.3359 0.0144
O2_12 O 0.47542(18) 0.29689(9) 0.31382(9)
O3_22 O 0.74903(19) 0.31546(9) 0.05371(9)
O4_21 O 0.55183(19) 0.28768(10) 0.37208(9)
N1_22 N 0.6829(2) 0.27155(11) 0.24634(10)
N2_12 N 0.6061(2) 0.27847(11) 0.26534(10)
O7_21 O 0.6945(2) 0.43935(13) 0.33532(11)
H3_21 H 0.6727 0.4156 0.3268
H4_21 H 0.6587 0.4526 0.3510
O8_22 O 0.7352(3) 0.42878(11) 0.24625(10)
O9_22 O 0.7711(3) 0.38691(11) 0.05269(11)
O10_14 O 0.8923(2) 0.27510(14) 0.29078(11)
C1_22 C 0.7498(3) 0.43112(13) 0.20791(13)
C2_21 C 0.5461(3) 0.28776(13) 0.33361(12)
C3_21 C 0.7468(3) 0.26657(13) 0.27540(13)
C4_22 C 0.7158(2) 0.31288(13) 0.18144(12)
C5_22 C 0.7449(3) 0.38970(13) 0.18353(13)
C6_22 C 0.8402(3) 0.25941(13) 0.26492(13)
C7_21 C 0.6219(3) 0.27774(13) 0.30680(13)
C8_22 C 0.7284(3) 0.31372(14) 0.13835(13)
H5_22 H 0.7234 0.2882 0.1232
C9_22 C 0.7485(3) 0.35224(13) 0.11770(13)
C10_21 C 0.7095(3) 0.27029(14) 0.31412(13)
H6_21 H 0.7372 0.2682 0.3398
C11_22 C 0.7579(3) 0.35267(14) 0.07094(13)
C12_22 C 0.7247(3) 0.35122(14) 0.20377(13)
H7_22 H 0.7170 0.3511 0.2325
C13_22 C 0.7568(3) 0.39056(13) 0.14050(13)
H8_22 H 0.7701 0.4165 0.1271
C14_22 C 0.6893(3) 0.27046(13) 0.20059(12)
H9_20 H 0.7318 0.2486 0.1929
H10_22 H 0.6337 0.2618 0.1889
Cu6_12 Cu 0.49014(3) 0.30804(2) 0.25477(2)
O14_14 O 0.8577(2) 0.47490(14) 0.29078(11)
Cu2_10 Cu 0.75986(3) 0.30804(2) 0.99523(2)
O1_20 O 0.88279(18) 0.32333(9) 0.99365(9)
H1_20 H 0.9110 0.3000 0.9894
O11_10 O 0.77458(18) 0.29689(9) 0.93618(9)
N3_11 N 0.6439(2) 0.27847(11) 0.98466(10)
O1_21 O 0.88279(18) 0.92667(9) 0.25635(9)
H1_21 H 0.9110 0.9500 0.2606
H2_23 H 0.9060 0.9141 0.2356
O3_23 O 0.74903(19) 0.93454(9) 0.19629(9)
N1_23 N 0.6829(2) 0.97845(11) 0.00366(10)
O8_23 O 0.7352(3) 0.82122(11) 0.00375(10)
O9_23 O 0.7711(3) 0.86309(11) 0.19731(11)
C1_23 C 0.7498(3) 0.81888(13) 0.04209(13)
C4_23 C 0.7158(2) 0.93712(13) 0.06856(12)
C5_23 C 0.7449(3) 0.86030(13) 0.06647(13)
C8_23 C 0.7284(3) 0.93628(14) 0.11165(13)
H5_23 H 0.7234 0.9618 0.1268
C9_23 C 0.7485(3) 0.89776(13) 0.13230(13)
C11_23 C 0.7579(3) 0.89733(14) 0.17906(13)
C12_23 C 0.7247(3) 0.89878(14) 0.04623(13)
H7_23 H 0.7170 0.8989 0.0175
C13_23 C 0.7568(3) 0.85944(13) 0.10950(13)
H8_23 H 0.7701 0.8335 0.1229
C14_23 C 0.6893(3) 0.97954(13) 0.04941(12)
H10_23 H 0.6337 0.9882 0.0611
O4_22 O 0.55183(19) 0.96232(10) 0.87792(9)
O7_22 O 0.6945(2) 0.81065(13) 0.91468(11)
H3_22 H 0.6727 0.8344 0.9232
H4_22 H 0.6587 0.7974 0.8990
O10_15 O 0.8923(2) 0.97490(14) 0.95922(11)
C2_22 C 0.5461(3) 0.96224(13) 0.91639(12)
C3_22 C 0.7468(3) 0.98343(13) 0.97460(13)
C6_23 C 0.8402(3) 0.99059(13) 0.98508(13)
C7_22 C 0.6219(3) 0.97226(13) 0.94320(13)
C10_22 C 0.7095(3) 0.97971(14) 0.93588(13)
H6_22 H 0.7372 0.9818 0.9102
O14_15 O 0.8577(2) 0.77510(14) 0.95922(11)
O1_22 O 0.36721(18) 0.32333(9) 0.25635(9)
H1_22 H 0.3390 0.3000 0.2606
H2_24 H 0.3440 0.3359 0.2356
O3_24 O 0.50097(19) 0.31546(9) 0.19629(9)
N1_24 N 0.5671(2) 0.27155(11) 0.00366(10)
O8_24 O 0.5148(3) 0.42878(11) 0.00375(10)
O9_24 O 0.4789(3) 0.38691(11) 0.19731(11)
C1_24 C 0.5002(3) 0.43112(13) 0.04209(13)
C4_24 C 0.5342(2) 0.31288(13) 0.06856(12)
C5_24 C 0.5051(3) 0.38970(13) 0.06647(13)
C8_24 C 0.5216(3) 0.31372(14) 0.11165(13)
H5_24 H 0.5266 0.2882 0.1268
C9_24 C 0.5015(3) 0.35224(13) 0.13230(13)
C11_24 C 0.4921(3) 0.35267(14) 0.17906(13)
C12_24 C 0.5253(3) 0.35122(14) 0.04623(13)
H7_24 H 0.5330 0.3511 0.0175
C13_24 C 0.4932(3) 0.39056(13) 0.10950(13)
H8_24 H 0.4799 0.4165 0.1229
C14_24 C 0.5607(3) 0.27046(13) 0.04941(12)
H9_21 H 0.5182 0.2486 0.0571
H10_24 H 0.6163 0.2618 0.0611
O4_23 O 0.69817(19) 0.28768(10) 0.87792(9)
O7_23 O 0.5555(2) 0.43935(13) 0.91468(11)
H3_23 H 0.5773 0.4156 0.9232
H4_23 H 0.5913 0.4526 0.8990
O10_16 O 0.3577(2) 0.27510(14) 0.95922(11)
C2_23 C 0.7039(3) 0.28776(13) 0.91639(12)
C3_23 C 0.5032(3) 0.26657(13) 0.97460(13)
C6_24 C 0.4098(3) 0.25941(13) 0.98508(13)
C7_23 C 0.6281(3) 0.27774(13) 0.94320(13)
C10_23 C 0.5405(3) 0.27029(14) 0.93588(13)
H6_23 H 0.5128 0.2682 0.9102
O14_16 O 0.3923(2) 0.47490(14) 0.95922(11)
O2_13 O 0.27458(18) 0.45311(9) 0.31382(9)
O3_25 O 0.00097(19) 0.43454(9) 0.05371(9)
O4_24 O 0.19817(19) 0.46232(10) 0.37208(9)
N1_25 N 0.0671(2) 0.47845(11) 0.24634(10)
N2_13 N 0.1439(2) 0.47153(11) 0.26534(10)
O7_24 O 0.0555(2) 0.31065(13) 0.33532(11)
H3_24 H 0.0773 0.3344 0.3268
H4_24 H 0.0913 0.2974 0.3510
O8_25 O 0.0148(3) 0.32122(11) 0.24625(10)
C1_25 C 0.0002(3) 0.31888(13) 0.20791(13)
C2_24 C 0.2039(3) 0.46224(13) 0.33361(12)
C3_24 C 0.0032(3) 0.48343(13) 0.27540(13)
C4_25 C 0.0342(2) 0.43712(13) 0.18144(12)
C5_25 C 0.0051(3) 0.36030(13) 0.18353(13)
C7_24 C 0.1281(3) 0.47226(13) 0.30680(13)
C8_25 C 0.0216(3) 0.43628(14) 0.13835(13)
H5_25 H 0.0266 0.4618 0.1232
C9_25 C 0.0015(3) 0.39776(13) 0.11770(13)
C10_24 C 0.0405(3) 0.47971(14) 0.31412(13)
H6_24 H 0.0128 0.4818 0.3398
C12_25 C 0.0253(3) 0.39878(14) 0.20377(13)
H7_25 H 0.0330 0.3989 0.2325
C14_25 C 0.0607(3) 0.47954(13) 0.20059(12)
H9_22 H 0.0182 0.5014 0.1929
H10_25 H 0.1163 0.4882 0.1889
Cu6_13 Cu 0.25986(3) 0.44196(2) 0.25477(2)
N3_12 N 0.1061(2) 0.47153(11) 0.98466(10)
H2_25 H 0.8440 0.4141 0.0144
O9_25 O 0.9789(3) 0.36309(11) 0.05269(11)
C6_25 C 0.9098(3) 0.49059(13) 0.26492(13)
C11_25 C 0.9921(3) 0.39733(14) 0.07094(13)
C13_25 C 0.9932(3) 0.35944(13) 0.14050(13)
H8_25 H 0.9799 0.3335 0.1271
H2_26 H 0.4060 0.8359 0.0144
O3_26 O 0.24903(19) 0.81546(9) 0.05371(9)
O4_25 O 0.05183(19) 0.78768(10) 0.37208(9)
N1_26 N 0.1829(2) 0.77155(11) 0.24634(10)
N2_14 N 0.1061(2) 0.77847(11) 0.26534(10)
O7_25 O 0.1945(2) 0.93935(13) 0.33532(11)
H3_25 H 0.1727 0.9156 0.3268
H4_25 H 0.1587 0.9526 0.3510
O8_26 O 0.2352(3) 0.92878(11) 0.24625(10)
O9_26 O 0.2711(3) 0.88691(11) 0.05269(11)
C1_26 C 0.2498(3) 0.93112(13) 0.20791(13)
C2_25 C 0.0461(3) 0.78776(13) 0.33361(12)
C3_25 C 0.2468(3) 0.76657(13) 0.27540(13)
C4_26 C 0.2158(2) 0.81288(13) 0.18144(12)
C5_26 C 0.2449(3) 0.88970(13) 0.18353(13)
C6_26 C 0.3402(3) 0.75941(13) 0.26492(13)
C7_25 C 0.1219(3) 0.77774(13) 0.30680(13)
C8_26 C 0.2284(3) 0.81372(14) 0.13835(13)
H5_26 H 0.2234 0.7882 0.1232
C9_26 C 0.2485(3) 0.85224(13) 0.11770(13)
C10_25 C 0.2095(3) 0.77029(14) 0.31412(13)
H6_25 H 0.2372 0.7682 0.3398
C11_26 C 0.2579(3) 0.85267(14) 0.07094(13)
C12_26 C 0.2247(3) 0.85122(14) 0.20377(13)
H7_26 H 0.2170 0.8511 0.2325
C13_26 C 0.2568(3) 0.89056(13) 0.14050(13)
H8_26 H 0.2701 0.9165 0.1271
C14_26 C 0.1893(3) 0.77046(13) 0.20059(12)
H9_23 H 0.2318 0.7486 0.1929
H10_26 H 0.1337 0.7618 0.1889
O2_14 O 0.97542(18) 0.79689(9) 0.31382(9)
Cu6_14 Cu 0.99014(3) 0.80804(2) 0.25477(2)
O1_23 O 0.38279(18) 0.42667(9) 0.25635(9)
H1_23 H 0.4110 0.4500 0.2606
H2_27 H 0.4060 0.4141 0.2356
O3_27 O 0.24903(19) 0.43454(9) 0.19629(9)
N1_27 N 0.1829(2) 0.47845(11) 0.00366(10)
O8_27 O 0.2352(3) 0.32122(11) 0.00375(10)
O9_27 O 0.2711(3) 0.36309(11) 0.19731(11)
C1_27 C 0.2498(3) 0.31888(13) 0.04209(13)
C4_27 C 0.2158(2) 0.43712(13) 0.06856(12)
C5_27 C 0.2449(3) 0.36030(13) 0.06647(13)
C8_27 C 0.2284(3) 0.43628(14) 0.11165(13)
H5_27 H 0.2234 0.4618 0.1268
C9_27 C 0.2485(3) 0.39776(13) 0.13230(13)
C11_27 C 0.2579(3) 0.39733(14) 0.17906(13)
C12_27 C 0.2247(3) 0.39878(14) 0.04623(13)
H7_27 H 0.2170 0.3989 0.0175
C13_27 C 0.2568(3) 0.35944(13) 0.10950(13)
H8_27 H 0.2701 0.3335 0.1229
C14_27 C 0.1893(3) 0.47954(13) 0.04941(12)
H9_24 H 0.2318 0.5014 0.0571
H10_27 H 0.1337 0.4882 0.0611
O4_26 O 0.05183(19) 0.46232(10) 0.87792(9)
O7_26 O 0.1945(2) 0.31065(13) 0.91468(11)
H3_26 H 0.1727 0.3344 0.9232
H4_26 H 0.1587 0.2974 0.8990
C2_26 C 0.0461(3) 0.46224(13) 0.91639(12)
C3_26 C 0.2468(3) 0.48343(13) 0.97460(13)
C6_27 C 0.3402(3) 0.49059(13) 0.98508(13)
C7_26 C 0.1219(3) 0.47226(13) 0.94320(13)
C10_26 C 0.2095(3) 0.47971(14) 0.93588(13)
H6_26 H 0.2372 0.4818 0.9102
O3_28 O 0.00097(19) 0.81546(9) 0.19629(9)
N1_28 N 0.0671(2) 0.77155(11) 0.00366(10)
O8_28 O 0.0148(3) 0.92878(11) 0.00375(10)
C1_28 C 0.0002(3) 0.93112(13) 0.04209(13)
C4_28 C 0.0342(2) 0.81288(13) 0.06856(12)
C5_28 C 0.0051(3) 0.88970(13) 0.06647(13)
C8_28 C 0.0216(3) 0.81372(14) 0.11165(13)
H5_28 H 0.0266 0.7882 0.1268
C9_28 C 0.0015(3) 0.85224(13) 0.13230(13)
C12_28 C 0.0253(3) 0.85122(14) 0.04623(13)
H7_28 H 0.0330 0.8511 0.0175
C14_28 C 0.0607(3) 0.77046(13) 0.04941(12)
H9_25 H 0.0182 0.7486 0.0571
H10_28 H 0.1163 0.7618 0.0611
O1_24 O 0.86721(18) 0.82333(9) 0.25635(9)
H1_24 H 0.8390 0.8000 0.2606
H2_28 H 0.8440 0.8359 0.2356
O9_28 O 0.9789(3) 0.88691(11) 0.19731(11)
C11_28 C 0.9921(3) 0.85267(14) 0.17906(13)
C13_28 C 0.9932(3) 0.89056(13) 0.10950(13)
H8_28 H 0.9799 0.9165 0.1229
C6_28 C 0.9098(3) 0.75941(13) 0.98508(13)
O2_15 O 0.27458(18) 0.95311(9) 0.81382(9)
O3_29 O 0.00097(19) 0.93454(9) 0.55371(9)
O4_27 O 0.19817(19) 0.96232(10) 0.87208(9)
N1_29 N 0.0671(2) 0.97845(11) 0.74634(10)
N2_15 N 0.1439(2) 0.97153(11) 0.76534(10)
O7_27 O 0.0555(2) 0.81065(13) 0.83532(11)
H3_27 H 0.0773 0.8344 0.8268
H4_27 H 0.0913 0.7974 0.8510
O8_29 O 0.0148(3) 0.82122(11) 0.74625(10)
C1_29 C 0.0002(3) 0.81888(13) 0.70791(13)
C2_27 C 0.2039(3) 0.96224(13) 0.83361(12)
C3_27 C 0.0032(3) 0.98343(13) 0.77540(13)
C4_29 C 0.0342(2) 0.93712(13) 0.68144(12)
C5_29 C 0.0051(3) 0.86030(13) 0.68353(13)
C7_27 C 0.1281(3) 0.97226(13) 0.80680(13)
C8_29 C 0.0216(3) 0.93628(14) 0.63835(13)
H5_29 H 0.0266 0.9618 0.6232
C9_29 C 0.0015(3) 0.89776(13) 0.61770(13)
C10_27 C 0.0405(3) 0.97971(14) 0.81412(13)
H6_27 H 0.0128 0.9818 0.8398
C12_29 C 0.0253(3) 0.89878(14) 0.70377(13)
H7_29 H 0.0330 0.8989 0.7325
C14_29 C 0.0607(3) 0.97954(13) 0.70059(12)
H10_29 H 0.1163 0.9882 0.6889
Cu6_15 Cu 0.25986(3) 0.94196(2) 0.75477(2)
N3_13 N 0.1061(2) 0.97153(11) 0.48466(10)
Cu2_11 Cu 0.99014(3) 0.94196(2) 0.49523(2)
O1_25 O 0.86721(18) 0.92667(9) 0.49365(9)
H1_25 H 0.8390 0.9500 0.4894
H2_29 H 0.8440 0.9141 0.5144
O9_29 O 0.9789(3) 0.86309(11) 0.55269(11)
C6_29 C 0.9098(3) 0.99059(13) 0.76492(13)
C11_29 C 0.9921(3) 0.89733(14) 0.57094(13)
C13_29 C 0.9932(3) 0.85944(13) 0.64050(13)
H8_29 H 0.9799 0.8335 0.6271
O11_11 O 0.97542(18) 0.95311(9) 0.43618(9)
Cu2_12 Cu 0.25986(3) 0.30804(2) 0.49523(2)
O1_26 O 0.38279(18) 0.32333(9) 0.49365(9)
H1_26 H 0.4110 0.3000 0.4894
H2_30 H 0.4060 0.3359 0.5144
O3_30 O 0.24903(19) 0.31546(9) 0.55371(9)
O4_28 O 0.05183(19) 0.28768(10) 0.87208(9)
N1_30 N 0.1829(2) 0.27155(11) 0.74634(10)
N2_16 N 0.1061(2) 0.27847(11) 0.76534(10)
O7_28 O 0.1945(2) 0.43935(13) 0.83532(11)
H3_28 H 0.1727 0.4156 0.8268
H4_28 H 0.1587 0.4526 0.8510
O8_30 O 0.2352(3) 0.42878(11) 0.74625(10)
O9_30 O 0.2711(3) 0.38691(11) 0.55269(11)
C1_30 C 0.2498(3) 0.43112(13) 0.70791(13)
C2_28 C 0.0461(3) 0.28776(13) 0.83361(12)
C3_28 C 0.2468(3) 0.26657(13) 0.77540(13)
C4_30 C 0.2158(2) 0.31288(13) 0.68144(12)
C5_30 C 0.2449(3) 0.38970(13) 0.68353(13)
C6_30 C 0.3402(3) 0.25941(13) 0.76492(13)
C7_28 C 0.1219(3) 0.27774(13) 0.80680(13)
C8_30 C 0.2284(3) 0.31372(14) 0.63835(13)
H5_30 H 0.2234 0.2882 0.6232
C9_30 C 0.2485(3) 0.35224(13) 0.61770(13)
C10_28 C 0.2095(3) 0.27029(14) 0.81412(13)
H6_28 H 0.2372 0.2682 0.8398
C11_30 C 0.2579(3) 0.35267(14) 0.57094(13)
C12_30 C 0.2247(3) 0.35122(14) 0.70377(13)
H7_30 H 0.2170 0.3511 0.7325
C13_30 C 0.2568(3) 0.39056(13) 0.64050(13)
H8_30 H 0.2701 0.4165 0.6271
C14_30 C 0.1893(3) 0.27046(13) 0.70059(12)
H9_26 H 0.2318 0.2486 0.6929
H10_30 H 0.1337 0.2618 0.6889
O11_12 O 0.27458(18) 0.29689(9) 0.43618(9)
N3_14 N 0.1439(2) 0.27847(11) 0.48466(10)
O2_16 O 0.97542(18) 0.29689(9) 0.81382(9)
Cu6_16 Cu 0.99014(3) 0.30804(2) 0.75477(2)
H9_27 H 0.2318 0.0014 0.5571
O1_27 O 0.38279(18) 0.92667(9) 0.75635(9)
H1_27 H 0.4110 0.9500 0.7606
H2_31 H 0.4060 0.9141 0.7356
O3_31 O 0.24903(19) 0.93454(9) 0.69629(9)
O4_29 O 0.05183(19) 0.96232(10) 0.37792(9)
N1_31 N 0.1829(2) 0.97845(11) 0.50366(10)
O7_29 O 0.1945(2) 0.81065(13) 0.41468(11)
H3_29 H 0.1727 0.8344 0.4232
H4_29 H 0.1587 0.7974 0.3990
O8_31 O 0.2352(3) 0.82122(11) 0.50375(10)
O9_31 O 0.2711(3) 0.86309(11) 0.69731(11)
C1_31 C 0.2498(3) 0.81888(13) 0.54209(13)
C2_29 C 0.0461(3) 0.96224(13) 0.41639(12)
C3_29 C 0.2468(3) 0.98343(13) 0.47460(13)
C4_31 C 0.2158(2) 0.93712(13) 0.56856(12)
C5_31 C 0.2449(3) 0.86030(13) 0.56647(13)
C6_31 C 0.3402(3) 0.99059(13) 0.48508(13)
C7_29 C 0.1219(3) 0.97226(13) 0.44320(13)
C8_31 C 0.2284(3) 0.93628(14) 0.61165(13)
H5_31 H 0.2234 0.9618 0.6268
C9_31 C 0.2485(3) 0.89776(13) 0.63230(13)
C10_29 C 0.2095(3) 0.97971(14) 0.43588(13)
H6_29 H 0.2372 0.9818 0.4102
C11_31 C 0.2579(3) 0.89733(14) 0.67906(13)
C12_31 C 0.2247(3) 0.89878(14) 0.54623(13)
H7_31 H 0.2170 0.8989 0.5175
C13_31 C 0.2568(3) 0.85944(13) 0.60950(13)
H8_31 H 0.2701 0.8335 0.6229
C14_31 C 0.1893(3) 0.97954(13) 0.54941(12)
H10_31 H 0.1337 0.9882 0.5611
O3_32 O 0.00097(19) 0.31546(9) 0.69629(9)
O4_30 O 0.19817(19) 0.28768(10) 0.37792(9)
N1_32 N 0.0671(2) 0.27155(11) 0.50366(10)
O7_30 O 0.0555(2) 0.43935(13) 0.41468(11)
H3_30 H 0.0773 0.4156 0.4232
H4_30 H 0.0913 0.4526 0.3990
O8_32 O 0.0148(3) 0.42878(11) 0.50375(10)
C1_32 C 0.0002(3) 0.43112(13) 0.54209(13)
C2_30 C 0.2039(3) 0.28776(13) 0.41639(12)
C3_30 C 0.0032(3) 0.26657(13) 0.47460(13)
C4_32 C 0.0342(2) 0.31288(13) 0.56856(12)
C5_32 C 0.0051(3) 0.38970(13) 0.56647(13)
C7_30 C 0.1281(3) 0.27774(13) 0.44320(13)
C8_32 C 0.0216(3) 0.31372(14) 0.61165(13)
H5_32 H 0.0266 0.2882 0.6268
C9_32 C 0.0015(3) 0.35224(13) 0.63230(13)
C10_30 C 0.0405(3) 0.27029(14) 0.43588(13)
H6_30 H 0.0128 0.2682 0.4102
C12_32 C 0.0253(3) 0.35122(14) 0.54623(13)
H7_32 H 0.0330 0.3511 0.5175
C14_32 C 0.0607(3) 0.27046(13) 0.54941(12)
H9_28 H 0.0182 0.2486 0.5571
H10_32 H 0.1163 0.2618 0.5611
O1_28 O 0.86721(18) 0.32333(9) 0.75635(9)
H1_28 H 0.8390 0.3000 0.7606
H2_32 H 0.8440 0.3359 0.7356
O9_32 O 0.9789(3) 0.38691(11) 0.69731(11)
C6_32 C 0.9098(3) 0.25941(13) 0.48508(13)
C11_32 C 0.9921(3) 0.35267(14) 0.67906(13)
C13_32 C 0.9932(3) 0.39056(13) 0.60950(13)
H8_32 H 0.9799 0.4165 0.6229
O6_16 O 0.1404(2) 0.98905(12) 0.98302(10)
H9_29 H 0.2682 0.9986 0.9429
Cu5_8 Cu 0.01927(3) 0.97840(2) 0.96586(2)
Cu2_13 Cu 0.25986(3) 0.80804(2) 0.99523(2)
O1_29 O 0.38279(18) 0.82333(9) 0.99365(9)
H1_29 H 0.4110 0.8000 0.9894
O11_13 O 0.27458(18) 0.79689(9) 0.93618(9)
N3_15 N 0.1439(2) 0.77847(11) 0.98466(10)
O4_31 O 0.19817(19) 0.78768(10) 0.87792(9)
O7_31 O 0.0555(2) 0.93935(13) 0.91468(11)
H3_31 H 0.0773 0.9156 0.9232
H4_31 H 0.0913 0.9526 0.8990
C2_31 C 0.2039(3) 0.78776(13) 0.91639(12)
C3_31 C 0.0032(3) 0.76657(13) 0.97460(13)
C7_31 C 0.1281(3) 0.77774(13) 0.94320(13)
C10_31 C 0.0405(3) 0.77029(14) 0.93588(13)
H6_31 H 0.0128 0.7682 0.9102
Cu3_8 Cu 0.98073(3) 0.02160(2) 0.03414(2)
Cu2_14 Cu 0.74014(3) 0.19196(2) 0.00477(2)
O1_30 O 0.61721(18) 0.17667(9) 0.00635(9)
H1_30 H 0.5890 0.2000 0.0106
O11_14 O 0.72542(18) 0.20311(9) 0.06382(9)
N3_16 N 0.8561(2) 0.22153(11) 0.01534(10)
O4_32 O 0.80183(19) 0.21232(10) 0.12208(9)
O7_32 O 0.9445(2) 0.06065(13) 0.08532(11)
H3_32 H 0.9227 0.0844 0.0768
H4_32 H 0.9087 0.0474 0.1010
C2_32 C 0.7961(3) 0.21224(13) 0.08361(12)
C3_32 C 0.9968(3) 0.23343(13) 0.02540(13)
C7_32 C 0.8719(3) 0.22226(13) 0.05680(13)
C10_32 C 0.9595(3) 0.22971(14) 0.06412(13)
H6_32 H 0.9872 0.2318 0.0898
O13_16 O 0.8596(2) 0.01095(12) 0.01698(10)
H9_30 H 0.7318 0.0014 0.0571
Cu2_15 Cu 0.00986(3) 0.55804(2) 0.00477(2)
O1_31 O 0.13279(18) 0.57333(9) 0.00635(9)
H1_31 H 0.1610 0.5500 0.0106
O11_15 O 0.02458(18) 0.54689(9) 0.06382(9)
H9_31 H 0.9818 0.9986 0.3071
Cu2_16 Cu 0.99014(3) 0.44196(2) 0.99523(2)
O1_32 O 0.86721(18) 0.42667(9) 0.99365(9)
H1_32 H 0.8390 0.4500 0.9894
O11_16 O 0.97542(18) 0.45311(9) 0.93618(9)
H9_32 H 0.0182 0.0014 0.6929
loop_
_geom_bond_atom_site_label_1
_geom_bond_atom_site_label_2
_geom_bond_site_symmetry_1
_geom_bond_site_symmetry_2
Cu1 O7 1_555 1_555
Cu2 O1 1_555 1_555
O1 H1 1_555 1_555
H2 O1 1_555 1_555
O2 C2 1_555 1_555
O3 Cu2 1_555 1_555
O4 C2 1_555 1_555
O5 C1 1_555 1_555
O6 C6 1_555 1_555
N1 N2 1_555 1_555
N2 C7 1_555 1_555
O7 H3 1_555 1_555
H4 O7 1_555 1_555
O8 Cu1 1_555 1_555
O9 C11 1_555 1_555
O10 C6 1_555 1_555
C1 O8 1_555 1_555
C2 C7 1_555 1_555
C3 N1 1_555 1_555
C4 C8 1_555 1_555
C5 C1 1_555 1_555
C6 C3 1_555 1_555
C7 C10 1_555 1_555
C8 H5 1_555 1_555
C9 C8 1_555 1_555
C10 C3 1_555 1_555
H6 C10 1_555 1_555
C11 O3 1_555 1_555
C12 C4 1_555 1_555
H7 C12 1_555 1_555
C13 C5 1_555 1_555
H8 C13 1_555 1_555
C14 N1 1_555 1_555
H9 C14 1_555 1_555
H10 C14 1_555 1_555
Cu3 O10 1_555 1_555
Cu4 O5 1_555 1_555
Cu5 O6 1_555 1_555
Cu6 O2 1_555 1_555
O11 Cu2 1_555 1_555
O12 Cu1 1_555 1_555
O13 Cu1 1_555 1_555
N3 Cu2 1_555 1_555
O14 Cu1 1_555 1_555
N2 Cu6 1_555 1_555
C4 C14 1_555 1_555
C5 C12 1_555 1_555
C9 C11 1_555 1_555
C9 C13 1_555 1_555
Cu1_2 O7_2 1_555 1_555
Cu2_2 O1_2 1_555 1_555
O1_2 H1_2 1_555 1_555
H2_2 O1_2 1_555 1_555
O2_2 C2_2 1_555 1_555
O3_2 Cu2_2 1_555 1_555
O4_2 C2_2 1_555 1_555
O5_2 C1_2 1_555 1_555
O6_2 C6_2 1_555 1_555
N1_2 N2_2 1_555 1_555
N2_2 C7_2 1_555 1_555
O7_2 H3_2 1_555 1_555
H4_2 O7_2 1_555 1_555
O8_2 Cu1_2 1_555 1_555
O9_2 C11_2 1_555 1_555
O10_2 C6_2 1_555 1_555
C1_2 O8_2 1_555 1_555
C2_2 C7_2 1_555 1_555
C3_2 N1_2 1_555 1_555
C4_2 C8_2 1_555 1_555
C5_2 C1_2 1_555 1_555
C6_2 C3_2 1_555 1_555
C7_2 C10_2 1_555 1_555
C8_2 H5_2 1_555 1_555
C9_2 C8_2 1_555 1_555
C10_2 C3_2 1_555 1_555
H6_2 C10_2 1_555 1_555
C11_2 O3_2 1_555 1_555
C12_2 C4_2 1_555 1_555
H7_2 C12_2 1_555 1_555
C13_2 C5_2 1_555 1_555
H8_2 C13_2 1_555 1_555
C14_2 N1_2 1_555 1_555
H9_2 C14_2 1_555 1_555
H10_2 C14_2 1_555 1_555
Cu5_2 O6_2 1_555 1_555
Cu6_2 O2_2 1_555 1_555
O11_2 Cu2_2 1_555 1_555
O13_2 Cu1_2 1_555 1_555
N3_2 Cu2_2 1_555 1_555
O14_2 Cu1_2 1_555 1_555
N2_2 Cu6_2 1_555 1_555
C4_2 C14_2 1_555 1_555
C5_2 C12_2 1_555 1_555
C9_2 C11_2 1_555 1_555
C9_2 C13_2 1_555 1_555
Cu1_3 O7_3 1_555 1_555
Cu6 O1_3 1_555 1_555
O1_3 H1_3 1_555 1_555
H2_3 O1_3 1_555 1_555
O11 C2_3 1_555 1_555
O3_3 Cu6 1_555 1_555
O4_3 C2_3 1_555 1_555
O5_3 C1_3 1_555 1_555
O6_3 C6_3 1_555 1_555
N1_3 N3 1_555 1_555
N3 C7_3 1_555 1_555
O7_3 H3_3 1_555 1_555
H4_3 O7_3 1_555 1_555
O8_3 Cu1_3 1_555 1_555
O9_3 C11_3 1_555 1_555
O10_3 C6_3 1_555 1_555
C1_3 O8_3 1_555 1_555
C2_3 C7_3 1_555 1_555
C3_3 N1_3 1_555 1_555
C4_3 C8_3 1_555 1_555
C5_3 C1_3 1_555 1_555
C6_3 C3_3 1_555 1_555
C7_3 C10_3 1_555 1_555
C8_3 H5_3 1_555 1_555
C9_3 C8_3 1_555 1_555
C10_3 C3_3 1_555 1_555
H6_3 C10_3 1_555 1_555
C11_3 O3_3 1_555 1_555
C12_3 C4_3 1_555 1_555
H7_3 C12_3 1_555 1_555
C13_3 C5_3 1_555 1_555
H8_3 C13_3 1_555 1_555
C14_3 N1_3 1_555 1_555
H9_3 C14_3 1_555 1_555
H10_3 C14_3 1_555 1_555
Cu4_3 O5_3 1_555 1_555
Cu5_3 O6_3 1_555 1_555
O12_3 Cu1_3 1_555 1_555
O13_3 Cu1_3 1_555 1_555
O14_3 Cu1_3 1_555 1_555
C4_3 C14_3 1_555 1_555
C5_3 C12_3 1_555 1_555
C9_3 C11_3 1_555 1_555
C9_3 C13_3 1_555 1_555
Cu1_4 O7_4 1_555 1_555
Cu6_2 O1_4 1_555 1_555
O1_4 H1_4 1_555 1_555
H2_4 O1_4 1_555 1_555
O11_2 C2_4 1_555 1_555
O3_4 Cu6_2 1_555 1_555
O4_4 C2_4 1_555 1_555
O5_4 C1_4 1_555 1_555
O6_4 C6_4 1_555 1_555
N1_4 N3_2 1_555 1_555
N3_2 C7_4 1_555 1_555
O7_4 H3_4 1_555 1_555
H4_4 O7_4 1_555 1_555
O8_4 Cu1_4 1_555 1_555
O9_4 C11_4 1_555 1_555
O10_4 C6_4 1_555 1_555
C1_4 O8_4 1_555 1_555
C2_4 C7_4 1_555 1_555
C3_4 N1_4 1_555 1_555
C4_4 C8_4 1_555 1_555
C5_4 C1_4 1_555 1_555
C6_4 C3_4 1_555 1_555
C7_4 C10_4 1_555 1_555
C8_4 H5_4 1_555 1_555
C9_4 C8_4 1_555 1_555
C10_4 C3_4 1_555 1_555
H6_4 C10_4 1_555 1_555
C11_4 O3_4 1_555 1_555
C12_4 C4_4 1_555 1_555
H7_4 C12_4 1_555 1_555
C13_4 C5_4 1_555 1_555
H8_4 C13_4 1_555 1_555
C14_4 N1_4 1_555 1_555
H9_4 C14_4 1_555 1_555
H10_4 C14_4 1_555 1_555
Cu3_4 O10_4 1_555 1_555
Cu5_4 O6_4 1_555 1_555
O13_4 Cu1_4 1_555 1_555
O14_4 Cu1_4 1_555 1_555
C4_4 C14_4 1_555 1_555
C5_4 C12_4 1_555 1_555
C9_4 C11_4 1_555 1_555
C9_4 C13_4 1_555 1_555
Cu2_3 O1_5 1_555 1_555
O1_5 H1_5 1_555 1_555
O11_3 Cu2_3 1_555 1_555
N3_3 Cu2_3 1_555 1_555
Cu1_5 O7_5 1_555 1_555
O2_3 C2_5 1_555 1_555
O4_5 C2_5 1_555 1_555
O5_5 C1_5 1_555 1_555
N1_5 N2_3 1_555 1_555
N2_3 C7_5 1_555 1_555
O7_5 H3_5 1_555 1_555
H4_5 O7_5 1_555 1_555
O8_5 Cu1_5 1_555 1_555
O9_5 C11_5 1_555 1_555
O10_5 C6_5 1_555 1_555
C1_5 O8_5 1_555 1_555
C2_5 C7_5 1_555 1_555
C3_5 N1_5 1_555 1_555
C4_5 C8_5 1_555 1_555
C5_5 C1_5 1_555 1_555
C6_5 C3_5 1_555 1_555
C7_5 C10_5 1_555 1_555
C8_5 H5_5 1_555 1_555
C9_5 C8_5 1_555 1_555
C10_5 C3_5 1_555 1_555
H6_5 C10_5 1_555 1_555
C11_5 O3_5 1_555 1_555
C12_5 C4_5 1_555 1_555
H7_5 C12_5 1_555 1_555
C13_5 C5_5 1_555 1_555
H8_5 C13_5 1_555 1_555
C14_5 N1_5 1_555 1_555
H10_5 C14_5 1_555 1_555
Cu3_5 O10_5 1_555 1_555
Cu4_5 O5_5 1_555 1_555
Cu6_3 O2_3 1_555 1_555
O12_5 Cu1_5 1_555 1_555
O13_5 Cu1_5 1_555 1_555
O14_5 Cu1_5 1_555 1_555
N2_3 Cu6_3 1_555 1_555
C4_5 C14_5 1_555 1_555
C5_5 C12_5 1_555 1_555
C9_5 C11_5 1_555 1_555
C9_5 C13_5 1_555 1_555
Cu5_5 O6_5 1_555 1_555
Cu2_4 O1_6 1_555 1_555
O1_6 H1_6 1_555 1_555
O11_4 Cu2_4 1_555 1_555
N3_4 Cu2_4 1_555 1_555
Cu1_6 O7_6 1_555 1_555
O2_4 C2_6 1_555 1_555
O4_6 C2_6 1_555 1_555
O5_6 C1_6 1_555 1_555
O6_6 C6_6 1_555 1_555
N1_6 N2_4 1_555 1_555
N2_4 C7_6 1_555 1_555
O7_6 H3_6 1_555 1_555
H4_6 O7_6 1_555 1_555
O8_6 Cu1_6 1_555 1_555
O9_6 C11_6 1_555 1_555
O10_6 C6_6 1_555 1_555
C1_6 O8_6 1_555 1_555
C2_6 C7_6 1_555 1_555
C3_6 N1_6 1_555 1_555
C4_6 C8_6 1_555 1_555
C5_6 C1_6 1_555 1_555
C6_6 C3_6 1_555 1_555
C7_6 C10_6 1_555 1_555
C8_6 H5_6 1_555 1_555
C9_6 C8_6 1_555 1_555
C10_6 C3_6 1_555 1_555
H6_6 C10_6 1_555 1_555
C11_6 O3_6 1_555 1_555
C12_6 C4_6 1_555 1_555
H7_6 C12_6 1_555 1_555
C13_6 C5_6 1_555 1_555
H8_6 C13_6 1_555 1_555
C14_6 N1_6 1_555 1_555
H9_6 C14_6 1_555 1_555
H10_6 C14_6 1_555 1_555
Cu4_6 O5_6 1_555 1_555
Cu5_6 O6_6 1_555 1_555
Cu6_4 O2_4 1_555 1_555
O12_6 Cu1_6 1_555 1_555
O13_6 Cu1_6 1_555 1_555
O14_6 Cu1_6 1_555 1_555
N2_4 Cu6_4 1_555 1_555
C4_6 C14_6 1_555 1_555
C5_6 C12_6 1_555 1_555
C9_6 C11_6 1_555 1_555
C9_6 C13_6 1_555 1_555
Cu1_7 O7_7 1_555 1_555
O11_3 C2_7 1_555 1_555
O4_7 C2_7 1_555 1_555
N3_3 C7_7 1_555 1_555
O7_7 H3_7 1_555 1_555
H4_7 O7_7 1_555 1_555
O10_7 C6_7 1_555 1_555
C2_7 C7_7 1_555 1_555
C6_7 C3_7 1_555 1_555
C7_7 C10_7 1_555 1_555
C10_7 C3_7 1_555 1_555
H6_7 C10_7 1_555 1_555
O12_7 Cu1_7 1_555 1_555
O13_7 Cu1_7 1_555 1_555
O14_7 Cu1_7 1_555 1_555
Cu6_3 O1_7 1_555 1_555
O1_7 H1_7 1_555 1_555
H2_7 O1_7 1_555 1_555
O3_7 Cu6_3 1_555 1_555
O5_7 C1_7 1_555 1_555
O9_7 C11_7 1_555 1_555
C1_7 O8_7 1_555 1_555
C4_7 C8_7 1_555 1_555
C5_7 C1_7 1_555 1_555
C8_7 H5_7 1_555 1_555
C9_7 C8_7 1_555 1_555
C11_7 O3_7 1_555 1_555
C12_7 C4_7 1_555 1_555
H7_7 C12_7 1_555 1_555
C13_7 C5_7 1_555 1_555
H8_7 C13_7 1_555 1_555
C14_7 N1_7 1_555 1_555
H10_7 C14_7 1_555 1_555
Cu4_7 O5_7 1_555 1_555
C4_7 C14_7 1_555 1_555
C5_7 C12_7 1_555 1_555
C9_7 C11_7 1_555 1_555
C9_7 C13_7 1_555 1_555
Cu1_8 O7_8 1_555 1_555
O11_4 C2_8 1_555 1_555
O4_8 C2_8 1_555 1_555
N3_4 C7_8 1_555 1_555
O7_8 H3_8 1_555 1_555
H4_8 O7_8 1_555 1_555
O10_8 C6_8 1_555 1_555
C2_8 C7_8 1_555 1_555
C6_8 C3_8 1_555 1_555
C7_8 C10_8 1_555 1_555
C10_8 C3_8 1_555 1_555
H6_8 C10_8 1_555 1_555
Cu3_7 O10_8 1_555 1_555
O12_8 Cu1_8 1_555 1_555
O13_8 Cu1_8 1_555 1_555
O14_8 Cu1_8 1_555 1_555
Cu6_4 O1_8 1_555 1_555
O1_8 H1_8 1_555 1_555
H2_8 O1_8 1_555 1_555
O3_8 Cu6_4 1_555 1_555
O5_8 C1_8 1_555 1_555
O9_8 C11_8 1_555 1_555
C1_8 O8_8 1_555 1_555
C4_8 C8_8 1_555 1_555
C5_8 C1_8 1_555 1_555
C8_8 H5_8 1_555 1_555
C9_8 C8_8 1_555 1_555
C11_8 O3_8 1_555 1_555
C12_8 C4_8 1_555 1_555
H7_8 C12_8 1_555 1_555
C13_8 C5_8 1_555 1_555
H8_8 C13_8 1_555 1_555
C14_8 N1_8 1_555 1_555
H9_7 C14_8 1_555 1_555
H10_8 C14_8 1_555 1_555
Cu4_8 O5_8 1_555 1_555
Cu5_7 O6_7 1_555 1_555
C4_8 C14_8 1_555 1_555
C5_8 C12_8 1_555 1_555
C9_8 C11_8 1_555 1_555
C9_8 C13_8 1_555 1_555
O6_8 C6_9 1_555 1_555
O9_9 C11_9 1_555 1_555
O14_6 C6_9 1_555 1_555
H8_9 C13_9 1_555 1_555
Cu5_6 O5_9 1_555 1_555
Cu4_6 O6_8 1_555 1_555
Cu3_6 O7_9 1_555 1_555
O2_5 C2_9 1_555 1_555
O4_9 C2_9 1_555 1_555
N1_9 N2_5 1_555 1_555
N2_5 C7_9 1_555 1_555
O7_9 H3_9 1_555 1_555
H4_9 O7_9 1_555 1_555
O8_9 Cu3_6 1_555 1_555
C1_9 O8_9 1_555 1_555
C2_9 C7_9 1_555 1_555
C3_9 N1_9 1_555 1_555
C4_9 C8_9 1_555 1_555
C5_9 C1_9 1_555 1_555
C7_9 C10_9 1_555 1_555
C8_9 H5_9 1_555 1_555
C9_9 C8_9 1_555 1_555
C10_9 C3_9 1_555 1_555
H6_9 C10_9 1_555 1_555
C12_9 C4_9 1_555 1_555
H7_9 C12_9 1_555 1_555
C14_9 N1_9 1_555 1_555
H9_8 C14_9 1_555 1_555
H10_9 C14_9 1_555 1_555
Cu6_5 O2_5 1_555 1_555
O12_9 Cu3_6 1_555 1_555
O13_9 Cu3_6 1_555 1_555
N2_5 Cu6_5 1_555 1_555
C4_9 C14_9 1_555 1_555
C5_9 C12_9 1_555 1_555
Cu6_6 O2_6 1_555 1_555
Cu3_5 O7_10 1_555 1_555
O4_10 C2_10 1_555 1_555
O5_10 C1_10 1_555 1_555
O6_9 C6_10 1_555 1_555
N1_10 N2_6 1_555 1_555
N2_6 C7_10 1_555 1_555
O7_10 H3_10 1_555 1_555
H4_10 O7_10 1_555 1_555
O8_10 Cu3_5 1_555 1_555
O9_10 C11_10 1_555 1_555
O14_5 C6_10 1_555 1_555
C1_10 O8_10 1_555 1_555
C2_10 C7_10 1_555 1_555
C3_10 N1_10 1_555 1_555
C4_10 C8_10 1_555 1_555
C5_10 C1_10 1_555 1_555
C6_10 C3_10 1_555 1_555
C7_10 C10_10 1_555 1_555
C8_10 H5_10 1_555 1_555
C9_10 C8_10 1_555 1_555
C10_10 C3_10 1_555 1_555
H6_10 C10_10 1_555 1_555
C11_10 O3_10 1_555 1_555
C12_10 C4_10 1_555 1_555
H7_10 C12_10 1_555 1_555
C13_10 C5_10 1_555 1_555
H8_10 C13_10 1_555 1_555
C14_10 N1_10 1_555 1_555
H9_9 C14_10 1_555 1_555
H10_10 C14_10 1_555 1_555
Cu4_5 O6_9 1_555 1_555
O13_10 Cu3_5 1_555 1_555
C4_10 C14_10 1_555 1_555
C5_10 C12_10 1_555 1_555
C9_10 C11_10 1_555 1_555
C9_10 C13_10 1_555 1_555
Cu3_7 O7_11 1_555 1_555
O4_11 C2_11 1_555 1_555
N3_5 C7_11 1_555 1_555
O7_11 H3_11 1_555 1_555
H4_11 O7_11 1_555 1_555
O14_8 C6_11 1_555 1_555
C2_11 C7_11 1_555 1_555
C6_11 C3_11 1_555 1_555
C7_11 C10_11 1_555 1_555
C10_11 C3_11 1_555 1_555
H6_11 C10_11 1_555 1_555
O12_11 Cu3_7 1_555 1_555
O13_11 Cu3_7 1_555 1_555
Cu6_5 O1_9 1_555 1_555
O1_9 H1_9 1_555 1_555
H2_11 O1_9 1_555 1_555
O3_11 Cu6_5 1_555 1_555
O5_11 C1_11 1_555 1_555
O9_11 C11_11 1_555 1_555
C1_11 O8_11 1_555 1_555
C4_11 C8_11 1_555 1_555
C5_11 C1_11 1_555 1_555
C8_11 H5_11 1_555 1_555
C9_11 C8_11 1_555 1_555
C11_11 O3_11 1_555 1_555
C12_11 C4_11 1_555 1_555
H7_11 C12_11 1_555 1_555
C13_11 C5_11 1_555 1_555
H8_11 C13_11 1_555 1_555
C14_11 N1_11 1_555 1_555
H9_10 C14_11 1_555 1_555
H10_11 C14_11 1_555 1_555
Cu5_7 O5_11 1_555 1_555
Cu4_8 O6_10 1_555 1_555
C4_11 C14_11 1_555 1_555
C5_11 C12_11 1_555 1_555
C9_11 C11_11 1_555 1_555
C9_11 C13_11 1_555 1_555
O14_7 C6_12 1_555 1_555
Cu6_6 O1_10 1_555 1_555
O1_10 H1_10 1_555 1_555
H2_12 O1_10 1_555 1_555
O9_12 C11_12 1_555 1_555
H8_12 C13_12 1_555 1_555
Cu4_7 O6_11 1_555 1_555
C1_12 O8_12 1_555 1_555
C4_12 C8_12 1_555 1_555
C5_12 C1_12 1_555 1_555
C8_12 H5_12 1_555 1_555
C9_12 C8_12 1_555 1_555
C12_12 C4_12 1_555 1_555
H7_12 C12_12 1_555 1_555
C14_12 N1_12 1_555 1_555
H9_11 C14_12 1_555 1_555
H10_12 C14_12 1_555 1_555
C4_12 C14_12 1_555 1_555
C5_12 C12_12 1_555 1_555
Cu2_5 O1_11 1_555 1_555
O1_11 H1_11 1_555 1_555
H2_13 O1_11 1_555 1_555
O9_13 C11_13 1_555 1_555
O14_2 C6_13 1_555 1_555
H8_13 C13_13 1_555 1_555
Cu5_2 O5_13 1_555 1_555
O11_5 Cu2_5 1_555 1_555
Cu4_2 O6_12 1_555 1_555
Cu3_2 O7_12 1_555 1_555
O2_7 C2_12 1_555 1_555
O4_12 C2_12 1_555 1_555
N1_13 N2_7 1_555 1_555
N2_7 C7_12 1_555 1_555
O7_12 H3_12 1_555 1_555
H4_12 O7_12 1_555 1_555
O8_13 Cu3_2 1_555 1_555
C1_13 O8_13 1_555 1_555
C2_12 C7_12 1_555 1_555
C3_12 N1_13 1_555 1_555
C4_13 C8_13 1_555 1_555
C5_13 C1_13 1_555 1_555
C7_12 C10_12 1_555 1_555
C8_13 H5_13 1_555 1_555
C9_13 C8_13 1_555 1_555
C10_12 C3_12 1_555 1_555
H6_12 C10_12 1_555 1_555
C12_13 C4_13 1_555 1_555
H7_13 C12_13 1_555 1_555
C14_13 N1_13 1_555 1_555
H10_13 C14_13 1_555 1_555
Cu6_7 O2_7 1_555 1_555
O12_13 Cu3_2 1_555 1_555
O13_12 Cu3_2 1_555 1_555
N2_7 Cu6_7 1_555 1_555
C4_13 C14_13 1_555 1_555
C5_13 C12_13 1_555 1_555
Cu6_8 O2_8 1_555 1_555
Cu3 O7_13 1_555 1_555
Cu2_6 O1_12 1_555 1_555
O1_12 H1_12 1_555 1_555
H2_14 O1_12 1_555 1_555
O3_14 Cu2_6 1_555 1_555
O4_13 C2_13 1_555 1_555
O5_14 C1_14 1_555 1_555
O6_13 C6_14 1_555 1_555
N1_14 N2_8 1_555 1_555
N2_8 C7_13 1_555 1_555
O7_13 H3_13 1_555 1_555
H4_13 O7_13 1_555 1_555
O8_14 Cu3 1_555 1_555
O9_14 C11_14 1_555 1_555
O14 C6_14 1_555 1_555
C1_14 O8_14 1_555 1_555
C2_13 C7_13 1_555 1_555
C3_13 N1_14 1_555 1_555
C4_14 C8_14 1_555 1_555
C5_14 C1_14 1_555 1_555
C6_14 C3_13 1_555 1_555
C7_13 C10_13 1_555 1_555
C8_14 H5_14 1_555 1_555
C9_14 C8_14 1_555 1_555
C10_13 C3_13 1_555 1_555
H6_13 C10_13 1_555 1_555
C11_14 O3_14 1_555 1_555
C12_14 C4_14 1_555 1_555
H7_14 C12_14 1_555 1_555
C13_14 C5_14 1_555 1_555
H8_14 C13_14 1_555 1_555
C14_14 N1_14 1_555 1_555
H9_12 C14_14 1_555 1_555
H10_14 C14_14 1_555 1_555
Cu5 O5_14 1_555 1_555
Cu4 O6_13 1_555 1_555
O11_6 Cu2_6 1_555 1_555
O12_14 Cu3 1_555 1_555
O13_13 Cu3 1_555 1_555
N3_7 Cu2_6 1_555 1_555
C4_14 C14_14 1_555 1_555
C5_14 C12_14 1_555 1_555
C9_14 C11_14 1_555 1_555
C9_14 C13_14 1_555 1_555
Cu3_4 O7_14 1_555 1_555
Cu6_7 O1_13 1_555 1_555
O1_13 H1_13 1_555 1_555
H2_15 O1_13 1_555 1_555
O3_15 Cu6_7 1_555 1_555
O4_14 C2_14 1_555 1_555
O5_15 C1_15 1_555 1_555
N1_15 N3_6 1_555 1_555
N3_6 C7_14 1_555 1_555
O7_14 H3_14 1_555 1_555
H4_14 O7_14 1_555 1_555
O8_15 Cu3_4 1_555 1_555
O9_15 C11_15 1_555 1_555
O14_4 C6_15 1_555 1_555
C1_15 O8_15 1_555 1_555
C2_14 C7_14 1_555 1_555
C3_14 N1_15 1_555 1_555
C4_15 C8_15 1_555 1_555
C5_15 C1_15 1_555 1_555
C6_15 C3_14 1_555 1_555
C7_14 C10_14 1_555 1_555
C8_15 H5_15 1_555 1_555
C9_15 C8_15 1_555 1_555
C10_14 C3_14 1_555 1_555
H6_14 C10_14 1_555 1_555
C11_15 O3_15 1_555 1_555
C12_15 C4_15 1_555 1_555
H7_15 C12_15 1_555 1_555
C13_15 C5_15 1_555 1_555
H8_15 C13_15 1_555 1_555
C14_15 N1_15 1_555 1_555
H10_15 C14_15 1_555 1_555
Cu5_4 O5_15 1_555 1_555
O12_15 Cu3_4 1_555 1_555
O13_14 Cu3_4 1_555 1_555
C4_15 C14_15 1_555 1_555
C5_15 C12_15 1_555 1_555
C9_15 C11_15 1_555 1_555
C9_15 C13_15 1_555 1_555
Cu4_4 O6_14 1_555 1_555
Cu6_8 O1_14 1_555 1_555
O1_14 H1_14 1_555 1_555
H2_16 O1_14 1_555 1_555
O6_15 C6_16 1_555 1_555
O9_16 C11_16 1_555 1_555
O14_3 C6_16 1_555 1_555
H8_16 C13_16 1_555 1_555
Cu5_3 O5_16 1_555 1_555
Cu4_3 O6_15 1_555 1_555
Cu3_3 O7_15 1_555 1_555
O11_6 C2_15 1_555 1_555
O4_15 C2_15 1_555 1_555
N1_16 N3_7 1_555 1_555
N3_7 C7_15 1_555 1_555
O7_15 H3_15 1_555 1_555
H4_15 O7_15 1_555 1_555
O8_16 Cu3_3 1_555 1_555
C1_16 O8_16 1_555 1_555
C2_15 C7_15 1_555 1_555
C3_15 N1_16 1_555 1_555
C4_16 C8_16 1_555 1_555
C5_16 C1_16 1_555 1_555
C7_15 C10_15 1_555 1_555
C8_16 H5_16 1_555 1_555
C9_16 C8_16 1_555 1_555
C10_15 C3_15 1_555 1_555
H6_15 C10_15 1_555 1_555
C12_16 C4_16 1_555 1_555
H7_16 C12_16 1_555 1_555
C14_16 N1_16 1_555 1_555
H9_14 C14_16 1_555 1_555
H10_16 C14_16 1_555 1_555
O12_16 Cu3_3 1_555 1_555
O13_15 Cu3_3 1_555 1_555
C4_16 C14_16 1_555 1_555
C5_16 C12_16 1_555 1_555
Cu4_5 O7_16 1_555 1_555
Cu2_7 O1_15 1_555 1_555
O1_15 H1_15 1_555 1_555
H2_17 O1_15 1_555 1_555
O2_9 C2_16 1_555 1_555
O3_17 Cu2_7 1_555 1_555
O4_16 C2_16 1_555 1_555
O12_5 C1_17 1_555 1_555
O13_6 C6_17 1_555 1_555
N1_17 N2_9 1_555 1_555
N2_9 C7_16 1_555 1_555
O7_16 H3_16 1_555 1_555
H4_16 O7_16 1_555 1_555
O8_17 Cu4_5 1_555 1_555
O9_17 C11_17 1_555 1_555
O10_9 C6_17 1_555 1_555
C1_17 O8_17 1_555 1_555
C2_16 C7_16 1_555 1_555
C3_16 N1_17 1_555 1_555
C4_17 C8_17 1_555 1_555
C5_17 C1_17 1_555 1_555
C6_17 C3_16 1_555 1_555
C7_16 C10_16 1_555 1_555
C8_17 H5_17 1_555 1_555
C9_17 C8_17 1_555 1_555
C10_16 C3_16 1_555 1_555
H6_16 C10_16 1_555 1_555
C11_17 O3_17 1_555 1_555
C12_17 C4_17 1_555 1_555
H7_17 C12_17 1_555 1_555
C13_17 C5_17 1_555 1_555
H8_17 C13_17 1_555 1_555
C14_17 N1_17 1_555 1_555
H9_15 C14_17 1_555 1_555
H10_17 C14_17 1_555 1_555
Cu4_6 O10_9 1_555 1_555
Cu6_9 O2_9 1_555 1_555
O11_7 Cu2_7 1_555 1_555
N3_8 Cu2_7 1_555 1_555
O14_9 Cu4_5 1_555 1_555
N2_9 Cu6_9 1_555 1_555
C4_17 C14_17 1_555 1_555
C5_17 C12_17 1_555 1_555
C9_17 C11_17 1_555 1_555
C9_17 C13_17 1_555 1_555
Cu5_5 O7_17 1_555 1_555
Cu2_8 O1_16 1_555 1_555
O1_16 H1_16 1_555 1_555
H2_18 O1_16 1_555 1_555
O2_10 C2_17 1_555 1_555
O3_18 Cu2_8 1_555 1_555
O4_17 C2_17 1_555 1_555
O12_10 C1_18 1_555 1_555
O13_9 C6_18 1_555 1_555
N1_18 N2_10 1_555 1_555
N2_10 C7_17 1_555 1_555
O7_17 H3_17 1_555 1_555
H4_17 O7_17 1_555 1_555
O8_18 Cu5_5 1_555 1_555
O9_18 C11_18 1_555 1_555
O10_10 C6_18 1_555 1_555
C1_18 O8_18 1_555 1_555
C2_17 C7_17 1_555 1_555
C3_17 N1_18 1_555 1_555
C4_18 C8_18 1_555 1_555
C5_18 C1_18 1_555 1_555
C6_18 C3_17 1_555 1_555
C7_17 C10_17 1_555 1_555
C8_18 H5_18 1_555 1_555
C9_18 C8_18 1_555 1_555
C10_17 C3_17 1_555 1_555
H6_17 C10_17 1_555 1_555
C11_18 O3_18 1_555 1_555
C12_18 C4_18 1_555 1_555
H7_18 C12_18 1_555 1_555
C13_18 C5_18 1_555 1_555
H8_18 C13_18 1_555 1_555
C14_18 N1_18 1_555 1_555
H9_16 C14_18 1_555 1_555
H10_18 C14_18 1_555 1_555
Cu6_10 O2_10 1_555 1_555
O11_8 Cu2_8 1_555 1_555
N3_9 Cu2_8 1_555 1_555
O14_10 Cu5_5 1_555 1_555
N2_10 Cu6_10 1_555 1_555
C4_18 C14_18 1_555 1_555
C5_18 C12_18 1_555 1_555
C9_18 C11_18 1_555 1_555
C9_18 C13_18 1_555 1_555
Cu5_4 O7_18 1_555 1_555
Cu6_9 O1_17 1_555 1_555
O1_17 H1_17 1_555 1_555
H2_19 O1_17 1_555 1_555
O11_7 C2_18 1_555 1_555
O3_19 Cu6_9 1_555 1_555
O4_18 C2_18 1_555 1_555
O12_15 C1_19 1_555 1_555
O13_15 C6_19 1_555 1_555
N1_19 N3_8 1_555 1_555
N3_8 C7_18 1_555 1_555
O7_18 H3_18 1_555 1_555
H4_18 O7_18 1_555 1_555
O8_19 Cu5_4 1_555 1_555
O9_19 C11_19 1_555 1_555
O10_11 C6_19 1_555 1_555
C1_19 O8_19 1_555 1_555
C2_18 C7_18 1_555 1_555
C3_18 N1_19 1_555 1_555
C4_19 C8_19 1_555 1_555
C5_19 C1_19 1_555 1_555
C6_19 C3_18 1_555 1_555
C7_18 C10_18 1_555 1_555
C8_19 H5_19 1_555 1_555
C9_19 C8_19 1_555 1_555
C10_18 C3_18 1_555 1_555
H6_18 C10_18 1_555 1_555
C11_19 O3_19 1_555 1_555
C12_19 C4_19 1_555 1_555
H7_19 C12_19 1_555 1_555
C13_19 C5_19 1_555 1_555
H8_19 C13_19 1_555 1_555
C14_19 N1_19 1_555 1_555
H9_17 C14_19 1_555 1_555
H10_19 C14_19 1_555 1_555
O14_11 Cu5_4 1_555 1_555
C4_19 C14_19 1_555 1_555
C5_19 C12_19 1_555 1_555
C9_19 C11_19 1_555 1_555
C9_19 C13_19 1_555 1_555
Cu4_4 O7_19 1_555 1_555
Cu6_10 O1_18 1_555 1_555
O1_18 H1_18 1_555 1_555
H2_20 O1_18 1_555 1_555
O11_8 C2_19 1_555 1_555
O3_20 Cu6_10 1_555 1_555
O4_19 C2_19 1_555 1_555
O12_4 C1_20 1_555 1_555
O13_3 C6_20 1_555 1_555
N1_20 N3_9 1_555 1_555
N3_9 C7_19 1_555 1_555
O7_19 H3_19 1_555 1_555
H4_19 O7_19 1_555 1_555
O8_20 Cu4_4 1_555 1_555
O9_20 C11_20 1_555 1_555
O10_12 C6_20 1_555 1_555
C1_20 O8_20 1_555 1_555
C2_19 C7_19 1_555 1_555
C3_19 N1_20 1_555 1_555
C4_20 C8_20 1_555 1_555
C5_20 C1_20 1_555 1_555
C6_20 C3_19 1_555 1_555
C7_19 C10_19 1_555 1_555
C8_20 H5_20 1_555 1_555
C9_20 C8_20 1_555 1_555
C10_19 C3_19 1_555 1_555
H6_19 C10_19 1_555 1_555
C11_20 O3_20 1_555 1_555
C12_20 C4_20 1_555 1_555
H7_20 C12_20 1_555 1_555
C13_20 C5_20 1_555 1_555
H8_20 C13_20 1_555 1_555
C14_20 N1_20 1_555 1_555
H9_18 C14_20 1_555 1_555
H10_20 C14_20 1_555 1_555
Cu4_3 O10_12 1_555 1_555
O14_12 Cu4_4 1_555 1_555
C4_20 C14_20 1_555 1_555
C5_20 C12_20 1_555 1_555
C9_20 C11_20 1_555 1_555
C9_20 C13_20 1_555 1_555
Cu4 O7_20 1_555 1_555
O2_11 C2_20 1_555 1_555
O4_20 C2_20 1_555 1_555
O12 C1_21 1_555 1_555
N1_21 N2_11 1_555 1_555
N2_11 C7_20 1_555 1_555
O7_20 H3_20 1_555 1_555
H4_20 O7_20 1_555 1_555
O8_21 Cu4 1_555 1_555
O9_21 C11_21 1_555 1_555
O10_13 C6_21 1_555 1_555
C1_21 O8_21 1_555 1_555
C2_20 C7_20 1_555 1_555
C3_20 N1_21 1_555 1_555
C4_21 C8_21 1_555 1_555
C5_21 C1_21 1_555 1_555
C6_21 C3_20 1_555 1_555
C7_20 C10_20 1_555 1_555
C8_21 H5_21 1_555 1_555
C9_21 C8_21 1_555 1_555
C10_20 C3_20 1_555 1_555
H6_20 C10_20 1_555 1_555
C11_21 O3_21 1_555 1_555
C12_21 C4_21 1_555 1_555
H7_21 C12_21 1_555 1_555
C13_21 C5_21 1_555 1_555
H8_21 C13_21 1_555 1_555
C14_21 N1_21 1_555 1_555
H10_21 C14_21 1_555 1_555
Cu4_2 O10_13 1_555 1_555
Cu6_11 O2_11 1_555 1_555
O14_13 Cu4 1_555 1_555
N2_11 Cu6_11 1_555 1_555
C4_21 C14_21 1_555 1_555
C5_21 C12_21 1_555 1_555
C9_21 C11_21 1_555 1_555
C9_21 C13_21 1_555 1_555
Cu2_9 O1_19 1_555 1_555
O1_19 H1_19 1_555 1_555
O11_9 Cu2_9 1_555 1_555
N3_10 Cu2_9 1_555 1_555
Cu5 O7_21 1_555 1_555
O2_12 C2_21 1_555 1_555
O4_21 C2_21 1_555 1_555
O12_14 C1_22 1_555 1_555
O13_12 C6_22 1_555 1_555
N1_22 N2_12 1_555 1_555
N2_12 C7_21 1_555 1_555
O7_21 H3_21 1_555 1_555
H4_21 O7_21 1_555 1_555
O8_22 Cu5 1_555 1_555
O9_22 C11_22 1_555 1_555
O10_14 C6_22 1_555 1_555
C1_22 O8_22 1_555 1_555
C2_21 C7_21 1_555 1_555
C3_21 N1_22 1_555 1_555
C4_22 C8_22 1_555 1_555
C5_22 C1_22 1_555 1_555
C6_22 C3_21 1_555 1_555
C7_21 C10_21 1_555 1_555
C8_22 H5_22 1_555 1_555
C9_22 C8_22 1_555 1_555
C10_21 C3_21 1_555 1_555
H6_21 C10_21 1_555 1_555
C11_22 O3_22 1_555 1_555
C12_22 C4_22 1_555 1_555
H7_22 C12_22 1_555 1_555
C13_22 C5_22 1_555 1_555
H8_22 C13_22 1_555 1_555
C14_22 N1_22 1_555 1_555
H9_20 C14_22 1_555 1_555
H10_22 C14_22 1_555 1_555
Cu6_12 O2_12 1_555 1_555
O14_14 Cu5 1_555 1_555
N2_12 Cu6_12 1_555 1_555
C4_22 C14_22 1_555 1_555
C5_22 C12_22 1_555 1_555
C9_22 C11_22 1_555 1_555
C9_22 C13_22 1_555 1_555
Cu2_10 O1_20 1_555 1_555
O1_20 H1_20 1_555 1_555
O11_10 Cu2_10 1_555 1_555
N3_11 Cu2_10 1_555 1_555
Cu6_11 O1_21 1_555 1_555
O1_21 H1_21 1_555 1_555
H2_23 O1_21 1_555 1_555
O3_23 Cu6_11 1_555 1_555
O12_11 C1_23 1_555 1_555
O9_23 C11_23 1_555 1_555
C1_23 O8_23 1_555 1_555
C4_23 C8_23 1_555 1_555
C5_23 C1_23 1_555 1_555
C8_23 H5_23 1_555 1_555
C9_23 C8_23 1_555 1_555
C11_23 O3_23 1_555 1_555
C12_23 C4_23 1_555 1_555
H7_23 C12_23 1_555 1_555
C13_23 C5_23 1_555 1_555
H8_23 C13_23 1_555 1_555
C14_23 N1_23 1_555 1_555
H10_23 C14_23 1_555 1_555
C4_23 C14_23 1_555 1_555
C5_23 C12_23 1_555 1_555
C9_23 C11_23 1_555 1_555
C9_23 C13_23 1_555 1_555
Cu5_7 O7_22 1_555 1_555
O11_9 C2_22 1_555 1_555
O4_22 C2_22 1_555 1_555
N3_10 C7_22 1_555 1_555
O7_22 H3_22 1_555 1_555
H4_22 O7_22 1_555 1_555
O10_15 C6_23 1_555 1_555
C2_22 C7_22 1_555 1_555
C6_23 C3_22 1_555 1_555
C7_22 C10_22 1_555 1_555
C10_22 C3_22 1_555 1_555
H6_22 C10_22 1_555 1_555
O14_15 Cu5_7 1_555 1_555
Cu6_12 O1_22 1_555 1_555
O1_22 H1_22 1_555 1_555
H2_24 O1_22 1_555 1_555
O3_24 Cu6_12 1_555 1_555
O12_8 C1_24 1_555 1_555
O9_24 C11_24 1_555 1_555
C1_24 O8_24 1_555 1_555
C4_24 C8_24 1_555 1_555
C5_24 C1_24 1_555 1_555
C8_24 H5_24 1_555 1_555
C9_24 C8_24 1_555 1_555
C11_24 O3_24 1_555 1_555
C12_24 C4_24 1_555 1_555
H7_24 C12_24 1_555 1_555
C13_24 C5_24 1_555 1_555
H8_24 C13_24 1_555 1_555
C14_24 N1_24 1_555 1_555
H9_21 C14_24 1_555 1_555
H10_24 C14_24 1_555 1_555
C4_24 C14_24 1_555 1_555
C5_24 C12_24 1_555 1_555
C9_24 C11_24 1_555 1_555
C9_24 C13_24 1_555 1_555
Cu4_8 O7_23 1_555 1_555
O11_10 C2_23 1_555 1_555
O4_23 C2_23 1_555 1_555
N3_11 C7_23 1_555 1_555
O7_23 H3_23 1_555 1_555
H4_23 O7_23 1_555 1_555
O10_16 C6_24 1_555 1_555
C2_23 C7_23 1_555 1_555
C6_24 C3_23 1_555 1_555
C7_23 C10_23 1_555 1_555
C10_23 C3_23 1_555 1_555
H6_23 C10_23 1_555 1_555
Cu4_7 O10_16 1_555 1_555
O14_16 Cu4_8 1_555 1_555
Cu5_2 O7_24 1_555 1_555
O2_13 C2_24 1_555 1_555
O4_24 C2_24 1_555 1_555
N1_25 N2_13 1_555 1_555
N2_13 C7_24 1_555 1_555
O7_24 H3_24 1_555 1_555
H4_24 O7_24 1_555 1_555
O8_25 Cu5_2 1_555 1_555
C1_25 O8_25 1_555 1_555
C2_24 C7_24 1_555 1_555
C3_24 N1_25 1_555 1_555
C4_25 C8_25 1_555 1_555
C5_25 C1_25 1_555 1_555
C7_24 C10_24 1_555 1_555
C8_25 H5_25 1_555 1_555
C9_25 C8_25 1_555 1_555
C10_24 C3_24 1_555 1_555
H6_24 C10_24 1_555 1_555
C12_25 C4_25 1_555 1_555
H7_25 C12_25 1_555 1_555
C14_25 N1_25 1_555 1_555
H9_22 C14_25 1_555 1_555
H10_25 C14_25 1_555 1_555
Cu6_13 O2_13 1_555 1_555
N2_13 Cu6_13 1_555 1_555
C4_25 C14_25 1_555 1_555
C5_25 C12_25 1_555 1_555
O13_13 C6_25 1_555 1_555
O9_25 C11_25 1_555 1_555
O14_14 C6_25 1_555 1_555
H8_25 C13_25 1_555 1_555
Cu4_2 O7_25 1_555 1_555
O4_25 C2_25 1_555 1_555
O12_2 C1_26 1_555 1_555
O13 C6_26 1_555 1_555
N1_26 N2_14 1_555 1_555
N2_14 C7_25 1_555 1_555
O7_25 H3_25 1_555 1_555
H4_25 O7_25 1_555 1_555
O8_26 Cu4_2 1_555 1_555
O9_26 C11_26 1_555 1_555
O14_13 C6_26 1_555 1_555
C1_26 O8_26 1_555 1_555
C2_25 C7_25 1_555 1_555
C3_25 N1_26 1_555 1_555
C4_26 C8_26 1_555 1_555
C5_26 C1_26 1_555 1_555
C6_26 C3_25 1_555 1_555
C7_25 C10_25 1_555 1_555
C8_26 H5_26 1_555 1_555
C9_26 C8_26 1_555 1_555
C10_25 C3_25 1_555 1_555
H6_25 C10_25 1_555 1_555
C11_26 O3_26 1_555 1_555
C12_26 C4_26 1_555 1_555
H7_26 C12_26 1_555 1_555
C13_26 C5_26 1_555 1_555
H8_26 C13_26 1_555 1_555
C14_26 N1_26 1_555 1_555
H9_23 C14_26 1_555 1_555
H10_26 C14_26 1_555 1_555
C4_26 C14_26 1_555 1_555
C5_26 C12_26 1_555 1_555
C9_26 C11_26 1_555 1_555
C9_26 C13_26 1_555 1_555
Cu6_14 O2_14 1_555 1_555
Cu6_13 O1_23 1_555 1_555
O1_23 H1_23 1_555 1_555
H2_27 O1_23 1_555 1_555
O3_27 Cu6_13 1_555 1_555
O12_7 C1_27 1_555 1_555
O9_27 C11_27 1_555 1_555
C1_27 O8_27 1_555 1_555
C4_27 C8_27 1_555 1_555
C5_27 C1_27 1_555 1_555
C8_27 H5_27 1_555 1_555
C9_27 C8_27 1_555 1_555
C11_27 O3_27 1_555 1_555
C12_27 C4_27 1_555 1_555
H7_27 C12_27 1_555 1_555
C13_27 C5_27 1_555 1_555
H8_27 C13_27 1_555 1_555
C14_27 N1_27 1_555 1_555
H9_24 C14_27 1_555 1_555
H10_27 C14_27 1_555 1_555
C4_27 C14_27 1_555 1_555
C5_27 C12_27 1_555 1_555
C9_27 C11_27 1_555 1_555
C9_27 C13_27 1_555 1_555
Cu4_7 O7_26 1_555 1_555
O4_26 C2_26 1_555 1_555
N3_12 C7_26 1_555 1_555
O7_26 H3_26 1_555 1_555
H4_26 O7_26 1_555 1_555
O14_16 C6_27 1_555 1_555
C2_26 C7_26 1_555 1_555
C6_27 C3_26 1_555 1_555
C7_26 C10_26 1_555 1_555
C10_26 C3_26 1_555 1_555
H6_26 C10_26 1_555 1_555
C1_28 O8_28 1_555 1_555
C4_28 C8_28 1_555 1_555
C5_28 C1_28 1_555 1_555
C8_28 H5_28 1_555 1_555
C9_28 C8_28 1_555 1_555
C12_28 C4_28 1_555 1_555
H7_28 C12_28 1_555 1_555
C14_28 N1_28 1_555 1_555
H9_25 C14_28 1_555 1_555
H10_28 C14_28 1_555 1_555
C4_28 C14_28 1_555 1_555
C5_28 C12_28 1_555 1_555
Cu6_14 O1_24 1_555 1_555
O1_24 H1_24 1_555 1_555
H2_28 O1_24 1_555 1_555
O9_28 C11_28 1_555 1_555
H8_28 C13_28 1_555 1_555
O14_15 C6_28 1_555 1_555
Cu5_6 O7_27 1_555 1_555
O2_15 C2_27 1_555 1_555
O4_27 C2_27 1_555 1_555
N1_29 N2_15 1_555 1_555
N2_15 C7_27 1_555 1_555
O7_27 H3_27 1_555 1_555
H4_27 O7_27 1_555 1_555
O8_29 Cu5_6 1_555 1_555
C1_29 O8_29 1_555 1_555
C2_27 C7_27 1_555 1_555
C3_27 N1_29 1_555 1_555
C4_29 C8_29 1_555 1_555
C5_29 C1_29 1_555 1_555
C7_27 C10_27 1_555 1_555
C8_29 H5_29 1_555 1_555
C9_29 C8_29 1_555 1_555
C10_27 C3_27 1_555 1_555
H6_27 C10_27 1_555 1_555
C12_29 C4_29 1_555 1_555
H7_29 C12_29 1_555 1_555
C14_29 N1_29 1_555 1_555
H10_29 C14_29 1_555 1_555
Cu6_15 O2_15 1_555 1_555
N2_15 Cu6_15 1_555 1_555
C4_29 C14_29 1_555 1_555
C5_29 C12_29 1_555 1_555
Cu2_11 O1_25 1_555 1_555
O1_25 H1_25 1_555 1_555
H2_29 O1_25 1_555 1_555
O9_29 C11_29 1_555 1_555
O14_10 C6_29 1_555 1_555
H8_29 C13_29 1_555 1_555
O11_11 Cu2_11 1_555 1_555
Cu4_6 O7_28 1_555 1_555
Cu2_12 O1_26 1_555 1_555
O1_26 H1_26 1_555 1_555
H2_30 O1_26 1_555 1_555
O3_30 Cu2_12 1_555 1_555
O4_28 C2_28 1_555 1_555
O12_6 C1_30 1_555 1_555
O13_5 C6_30 1_555 1_555
N1_30 N2_16 1_555 1_555
N2_16 C7_28 1_555 1_555
O7_28 H3_28 1_555 1_555
H4_28 O7_28 1_555 1_555
O8_30 Cu4_6 1_555 1_555
O9_30 C11_30 1_555 1_555
O14_9 C6_30 1_555 1_555
C1_30 O8_30 1_555 1_555
C2_28 C7_28 1_555 1_555
C3_28 N1_30 1_555 1_555
C4_30 C8_30 1_555 1_555
C5_30 C1_30 1_555 1_555
C6_30 C3_28 1_555 1_555
C7_28 C10_28 1_555 1_555
C8_30 H5_30 1_555 1_555
C9_30 C8_30 1_555 1_555
C10_28 C3_28 1_555 1_555
H6_28 C10_28 1_555 1_555
C11_30 O3_30 1_555 1_555
C12_30 C4_30 1_555 1_555
H7_30 C12_30 1_555 1_555
C13_30 C5_30 1_555 1_555
H8_30 C13_30 1_555 1_555
C14_30 N1_30 1_555 1_555
H9_26 C14_30 1_555 1_555
H10_30 C14_30 1_555 1_555
O11_12 Cu2_12 1_555 1_555
N3_14 Cu2_12 1_555 1_555
C4_30 C14_30 1_555 1_555
C5_30 C12_30 1_555 1_555
C9_30 C11_30 1_555 1_555
C9_30 C13_30 1_555 1_555
Cu6_16 O2_16 1_555 1_555
Cu4_3 O7_29 1_555 1_555
Cu6_15 O1_27 1_555 1_555
O1_27 H1_27 1_555 1_555
H2_31 O1_27 1_555 1_555
O3_31 Cu6_15 1_555 1_555
O4_29 C2_29 1_555 1_555
O12_3 C1_31 1_555 1_555
N1_31 N3_13 1_555 1_555
N3_13 C7_29 1_555 1_555
O7_29 H3_29 1_555 1_555
H4_29 O7_29 1_555 1_555
O8_31 Cu4_3 1_555 1_555
O9_31 C11_31 1_555 1_555
O14_12 C6_31 1_555 1_555
C1_31 O8_31 1_555 1_555
C2_29 C7_29 1_555 1_555
C3_29 N1_31 1_555 1_555
C4_31 C8_31 1_555 1_555
C5_31 C1_31 1_555 1_555
C6_31 C3_29 1_555 1_555
C7_29 C10_29 1_555 1_555
C8_31 H5_31 1_555 1_555
C9_31 C8_31 1_555 1_555
C10_29 C3_29 1_555 1_555
H6_29 C10_29 1_555 1_555
C11_31 O3_31 1_555 1_555
C12_31 C4_31 1_555 1_555
H7_31 C12_31 1_555 1_555
C13_31 C5_31 1_555 1_555
H8_31 C13_31 1_555 1_555
C14_31 N1_31 1_555 1_555
H10_31 C14_31 1_555 1_555
C4_31 C14_31 1_555 1_555
C5_31 C12_31 1_555 1_555
C9_31 C11_31 1_555 1_555
C9_31 C13_31 1_555 1_555
Cu5_3 O7_30 1_555 1_555
O11_12 C2_30 1_555 1_555
O4_30 C2_30 1_555 1_555
N1_32 N3_14 1_555 1_555
N3_14 C7_30 1_555 1_555
O7_30 H3_30 1_555 1_555
H4_30 O7_30 1_555 1_555
O8_32 Cu5_3 1_555 1_555
C1_32 O8_32 1_555 1_555
C2_30 C7_30 1_555 1_555
C3_30 N1_32 1_555 1_555
C4_32 C8_32 1_555 1_555
C5_32 C1_32 1_555 1_555
C7_30 C10_30 1_555 1_555
C8_32 H5_32 1_555 1_555
C9_32 C8_32 1_555 1_555
C10_30 C3_30 1_555 1_555
H6_30 C10_30 1_555 1_555
C12_32 C4_32 1_555 1_555
H7_32 C12_32 1_555 1_555
C14_32 N1_32 1_555 1_555
H9_28 C14_32 1_555 1_555
H10_32 C14_32 1_555 1_555
C4_32 C14_32 1_555 1_555
C5_32 C12_32 1_555 1_555
Cu6_16 O1_28 1_555 1_555
O1_28 H1_28 1_555 1_555
H2_32 O1_28 1_555 1_555
O13_14 C6_32 1_555 1_555
O9_32 C11_32 1_555 1_555
O14_11 C6_32 1_555 1_555
H8_32 C13_32 1_555 1_555
Cu5_8 O6_16 1_555 1_555
Cu2_13 O1_29 1_555 1_555
O1_29 H1_29 1_555 1_555
O11_13 Cu2_13 1_555 1_555
N3_15 Cu2_13 1_555 1_555
Cu5_8 O7_31 1_555 1_555
O11_13 C2_31 1_555 1_555
O4_31 C2_31 1_555 1_555
N3_15 C7_31 1_555 1_555
O7_31 H3_31 1_555 1_555
H4_31 O7_31 1_555 1_555
C2_31 C7_31 1_555 1_555
C7_31 C10_31 1_555 1_555
C10_31 C3_31 1_555 1_555
H6_31 C10_31 1_555 1_555
Cu2_14 O1_30 1_555 1_555
O1_30 H1_30 1_555 1_555
O11_14 Cu2_14 1_555 1_555
N3_16 Cu2_14 1_555 1_555
Cu3_8 O7_32 1_555 1_555
O11_14 C2_32 1_555 1_555
O4_32 C2_32 1_555 1_555
N3_16 C7_32 1_555 1_555
O7_32 H3_32 1_555 1_555
H4_32 O7_32 1_555 1_555
C2_32 C7_32 1_555 1_555
C7_32 C10_32 1_555 1_555
C10_32 C3_32 1_555 1_555
H6_32 C10_32 1_555 1_555
O13_16 Cu3_8 1_555 1_555
Cu2_15 O1_31 1_555 1_555
O1_31 H1_31 1_555 1_555
O11_15 Cu2_15 1_555 1_555
Cu2_16 O1_32 1_555 1_555
O1_32 H1_32 1_555 1_555
O11_16 Cu2_16 1_555 1_555

#END
