
###############################################################################
#
# This file contains modified crystal structure data generated from the
# MOF subset of the Cambridge Structural Database (CSD) v543 
# hosted by the Cambridge Crystallographic Data Centre (CCDC).
#
# This work is licensed under the Creative Commons
# Attribution-NonCommercial-ShareAlike 4.0 International License.
# To view a copy of this license, visit
# http://creativecommons.org/licenses/by-nc-sa/4.0/
# or send a letter to
# Creative Commons, PO Box 1866, Mountain View, CA 94042, USA.
#
# CIF created using the CSD Python API on 29 September 2022
# The structure has been converted into the P1 space group
# The structure has a 3D framework
# The original CSD entry ZOFWID is in the monoclinic crystal system
# The framework has been calculated to contain at least 10.0% void space
# The void calculation uses a probe of radius 1.32A, grid spacing 0.4
# The framework is charged, counterions have been retained in the structure
#
###############################################################################

data_ZOFWID
_chemical_formula_moiety         '(C72 H32 N22 O32 Zn9 4-)n'
_symmetry_cell_setting           triclinic
_symmetry_space_group_name_H-M   'P 1'
_symmetry_Int_Tables_number      1
_space_group_name_Hall           'P 1'
loop_
_symmetry_equiv_pos_site_id
_symmetry_equiv_pos_as_xyz
1 x,y,z
_cell_length_a                   20.076(5)
_cell_length_b                   19.744(4)
_cell_length_c                   14.250(3)
_cell_angle_alpha                90
_cell_angle_beta                 133.285(6)
_cell_angle_gamma                90
_cell_volume                     4111.78
loop_
_atom_site_label
_atom_site_type_symbol
_atom_site_fract_x
_atom_site_fract_y
_atom_site_fract_z
Zn7 Zn 0.02210(3) -0.0000 0.91990(4)
Zn4 Zn -0.0000 0.90437(2) 0.5000
Zn7_2 Zn 0.02210(3) 1.0000 0.91990(4)
Zn6 Zn 0.97790(3) -0.0000 0.08010(4)
Zn6_2 Zn 0.97790(3) 1.0000 0.08010(4)
Zn1 Zn 0.5000 0.59563(2) 0.5000
Zn2 Zn 0.47790(3) 0.5000 0.08010(4)
O1 O 0.61161(15) 0.64860(11) 0.6097(2)
O2 O 0.5630(2) 0.69457(14) 0.4316(3)
O3 O 0.88549(16) 0.92827(11) 0.9534(2)
O4 O 0.92328(16) 0.92734(11) 0.8382(2)
N1 N 0.7399(2) 0.73283(13) 0.5248(3)
N2 N 0.48892(15) 0.53446(9) 0.3773(2)
N3 N 0.4754(2) 0.5000 0.2181(3)
C1 C 0.7426(2) 0.76909(15) 0.6140(3)
C2 C 0.6856(3) 0.74670(16) 0.6307(3)
C3 C 0.6935(3) 0.7775(2) 0.7251(4)
H1 H 0.6566 0.7627 0.7385
C4 C 0.7539(3) 0.82905(19) 0.7991(4)
H2 H 0.7569 0.8494 0.8608
C5 C 0.8112(2) 0.85131(16) 0.7822(3)
C6 C 0.8049(2) 0.82100(15) 0.6892(3)
H3 H 0.8425 0.8354 0.6768
C7 C 0.6149(3) 0.69295(17) 0.5480(4)
C8 C 0.8787(2) 0.90710(14) 0.8649(3)
C9 C 0.48118(19) 0.55242(12) 0.2818(3)
H4 H 0.4798 0.5973 0.2607
O5 O 0.88839(15) 0.85140(11) 0.3903(2)
O6 O 0.9370(2) 0.80543(14) 0.5684(3)
O7 O 0.61451(16) 0.57173(11) 0.0466(2)
O8 O 0.57672(16) 0.57266(11) 0.1618(2)
N4 N 0.7601(2) 0.76717(13) 0.4752(3)
C10 C 0.7574(2) 0.73091(15) 0.3860(3)
C11 C 0.8144(3) 0.75330(16) 0.3693(3)
C12 C 0.8065(3) 0.7225(2) 0.2749(4)
H5 H 0.8434 0.7373 0.2615
C13 C 0.7461(3) 0.67095(19) 0.2009(4)
H6 H 0.7431 0.6506 0.1392
C14 C 0.6888(2) 0.64869(16) 0.2178(3)
C15 C 0.6951(2) 0.67900(15) 0.3108(3)
H7 H 0.6575 0.6646 0.3232
C16 C 0.8851(3) 0.80705(17) 0.4520(4)
C17 C 0.6213(2) 0.59290(14) 0.1351(3)
N5 N 0.48892(15) 0.46554(9) 0.3773(2)
C18 C 0.48118(19) 0.44758(12) 0.2818(3)
H8 H 0.4798 0.4027 0.2607
Zn3 Zn 0.5000 0.40437(2) 0.5000
Zn4_2 Zn 1.0000 0.90437(2) 0.5000
O9 O 0.38839(15) 0.64860(11) 0.3903(2)
O12 O 0.57672(16) 0.42734(11) 0.1618(2)
N6 N 0.51108(15) 0.53446(9) 0.6227(2)
Zn5 Zn 0.52210(3) 0.5000 0.91990(4)
O10 O 0.38549(16) 0.42827(11) 0.9534(2)
O11 O 0.38549(16) 0.57173(11) 0.9534(2)
O10_2 O 0.61451(16) 0.42827(11) 0.0466(2)
O2_2 O 0.4370(2) 0.69457(14) 0.5684(3)
O3_2 O 0.11451(16) 0.92827(11) 0.0466(2)
O4_2 O 0.07672(16) 0.92734(11) 0.1618(2)
N1_2 N 0.2601(2) 0.73283(13) 0.4752(3)
N3_2 N 0.5246(2) 0.5000 0.7819(3)
C1_2 C 0.2574(2) 0.76909(15) 0.3860(3)
C2_2 C 0.3144(3) 0.74670(16) 0.3693(3)
C3_2 C 0.3065(3) 0.7775(2) 0.2749(4)
H1_2 H 0.3434 0.7627 0.2615
C4_2 C 0.2461(3) 0.82905(19) 0.2009(4)
H2_2 H 0.2431 0.8494 0.1392
C5_2 C 0.1888(2) 0.85131(16) 0.2178(3)
C6_2 C 0.1951(2) 0.82100(15) 0.3108(3)
H3_2 H 0.1575 0.8354 0.3232
C7_2 C 0.3851(3) 0.69295(17) 0.4520(4)
C8_2 C 0.1213(2) 0.90710(14) 0.1351(3)
C9_2 C 0.51882(19) 0.55242(12) 0.7182(3)
H4_2 H 0.5202 0.5973 0.7393
O5_2 O 0.11161(15) 0.85140(11) 0.6097(2)
O6_2 O 0.0630(2) 0.80543(14) 0.4316(3)
O8_2 O 0.42328(16) 0.57266(11) 0.8382(2)
N4_2 N 0.2399(2) 0.76717(13) 0.5248(3)
C10_2 C 0.2426(2) 0.73091(15) 0.6140(3)
C11_2 C 0.1856(3) 0.75330(16) 0.6307(3)
C12_2 C 0.1935(3) 0.7225(2) 0.7251(4)
H5_2 H 0.1566 0.7373 0.7385
C13_2 C 0.2539(3) 0.67095(19) 0.7991(4)
H6_2 H 0.2569 0.6506 0.8608
C14_2 C 0.3112(2) 0.64869(16) 0.7822(3)
C15_2 C 0.3049(2) 0.67900(15) 0.6892(3)
H7_2 H 0.3425 0.6646 0.6768
C16_2 C 0.1149(3) 0.80705(17) 0.5480(4)
C17_2 C 0.3787(2) 0.59290(14) 0.8649(3)
N5_2 N 0.51108(15) 0.46554(9) 0.6227(2)
C18_2 C 0.51882(19) 0.44758(12) 0.7182(3)
H8_2 H 0.5202 0.4027 0.7393
O12_2 O 0.42328(16) 0.42734(11) 0.8382(2)
Zn1_2 Zn -0.0000 0.09563(2) 0.5000
O1_2 O 0.11161(15) 0.14860(11) 0.6097(2)
O2_3 O 0.0630(2) 0.19457(14) 0.4316(3)
N1_3 N 0.2399(2) 0.23283(13) 0.5248(3)
C1_3 C 0.2426(2) 0.26909(15) 0.6140(3)
C2_3 C 0.1856(3) 0.24670(16) 0.6307(3)
C3_3 C 0.1935(3) 0.2775(2) 0.7251(4)
H1_3 H 0.1566 0.2627 0.7385
C4_3 C 0.2539(3) 0.32905(19) 0.7991(4)
H2_3 H 0.2569 0.3494 0.8608
C5_3 C 0.3112(2) 0.35131(16) 0.7822(3)
C6_3 C 0.3049(2) 0.32100(15) 0.6892(3)
H3_3 H 0.3425 0.3354 0.6768
C7_3 C 0.1149(3) 0.19295(17) 0.5480(4)
C8_3 C 0.3787(2) 0.40710(14) 0.8649(3)
O5_3 O 0.38839(15) 0.35140(11) 0.3903(2)
O6_3 O 0.4370(2) 0.30543(14) 0.5684(3)
O7_2 O 0.11451(16) 0.07173(11) 0.0466(2)
O8_3 O 0.07672(16) 0.07266(11) 0.1618(2)
N4_3 N 0.2601(2) 0.26717(13) 0.4752(3)
C10_3 C 0.2574(2) 0.23091(15) 0.3860(3)
C11_3 C 0.3144(3) 0.25330(16) 0.3693(3)
C12_3 C 0.3065(3) 0.2225(2) 0.2749(4)
H5_3 H 0.3434 0.2373 0.2615
C13_3 C 0.2461(3) 0.17095(19) 0.2009(4)
H6_3 H 0.2431 0.1506 0.1392
C14_3 C 0.1888(2) 0.14869(16) 0.2178(3)
C15_3 C 0.1951(2) 0.17900(15) 0.3108(3)
H7_3 H 0.1575 0.1646 0.3232
C16_3 C 0.3851(3) 0.30705(17) 0.4520(4)
C17_3 C 0.1213(2) 0.09290(14) 0.1351(3)
N6_2 N 0.01108(15) 0.03446(9) 0.6227(2)
Zn1_3 Zn 1.0000 0.09563(2) 0.5000
N2_2 N 0.98892(15) 0.03446(9) 0.3773(2)
N3_3 N 0.9754(2) 0.0000 0.2181(3)
C9_3 C 0.98118(19) 0.05242(12) 0.2818(3)
H4_3 H 0.9798 0.0973 0.2607
O9_2 O 0.88839(15) 0.14860(11) 0.3903(2)
O11_2 O 0.88549(16) 0.07173(11) 0.9534(2)
N3_4 N 0.9754(2) 1.0000 0.2181(3)
N5_3 N 0.98892(15) 0.96554(9) 0.3773(2)
C18_3 C 0.98118(19) 0.94758(12) 0.2818(3)
H8_3 H 0.9798 0.9027 0.2607
N3_5 N 0.0246(2) 0.0000 0.7819(3)
C9_4 C 0.01882(19) 0.05242(12) 0.7182(3)
H4_4 H 0.0202 0.0973 0.7393
N3_6 N 0.0246(2) 1.0000 0.7819(3)
N5_4 N 0.01108(15) 0.96554(9) 0.6227(2)
C18_4 C 0.01882(19) 0.94758(12) 0.7182(3)
H8_4 H 0.0202 0.9027 0.7393
O2_4 O 0.9370(2) 0.19457(14) 0.5684(3)
N1_4 N 0.7601(2) 0.23283(13) 0.4752(3)
C1_4 C 0.7574(2) 0.26909(15) 0.3860(3)
C2_4 C 0.8144(3) 0.24670(16) 0.3693(3)
C3_4 C 0.8065(3) 0.2775(2) 0.2749(4)
H1_4 H 0.8434 0.2627 0.2615
C4_4 C 0.7461(3) 0.32905(19) 0.2009(4)
H2_4 H 0.7431 0.3494 0.1392
C5_4 C 0.6888(2) 0.35131(16) 0.2178(3)
C6_4 C 0.6951(2) 0.32100(15) 0.3108(3)
H3_4 H 0.6575 0.3354 0.3232
C7_4 C 0.8851(3) 0.19295(17) 0.4520(4)
C8_4 C 0.6213(2) 0.40710(14) 0.1351(3)
O5_4 O 0.61161(15) 0.35140(11) 0.6097(2)
O6_4 O 0.5630(2) 0.30543(14) 0.4316(3)
O8_4 O 0.92328(16) 0.07266(11) 0.8382(2)
N4_4 N 0.7399(2) 0.26717(13) 0.5248(3)
C10_4 C 0.7426(2) 0.23091(15) 0.6140(3)
C11_4 C 0.6856(3) 0.25330(16) 0.6307(3)
C12_4 C 0.6935(3) 0.2225(2) 0.7251(4)
H5_4 H 0.6566 0.2373 0.7385
C13_4 C 0.7539(3) 0.17095(19) 0.7991(4)
H6_4 H 0.7569 0.1506 0.8608
C14_4 C 0.8112(2) 0.14869(16) 0.7822(3)
C15_4 C 0.8049(2) 0.17900(15) 0.6892(3)
H7_4 H 0.8425 0.1646 0.6768
C16_4 C 0.6149(3) 0.30705(17) 0.5480(4)
C17_4 C 0.8787(2) 0.09290(14) 0.8649(3)
loop_
_geom_bond_atom_site_label_1
_geom_bond_atom_site_label_2
_geom_bond_site_symmetry_1
_geom_bond_site_symmetry_2
Zn1 O1 1_555 1_555
Zn2 N3 1_555 1_555
O1 C7 1_555 1_555
O2 C7 1_555 1_555
O3 C8 1_555 1_555
O4 C8 1_555 1_555
N1 C1 1_555 1_555
N2 Zn1 1_555 1_555
N3 C9 1_555 1_555
C1 C2 1_555 1_555
C2 C3 1_555 1_555
C3 H1 1_555 1_555
C4 C3 1_555 1_555
H2 C4 1_555 1_555
C5 C4 1_555 1_555
C6 C1 1_555 1_555
H3 C6 1_555 1_555
C7 C2 1_555 1_555
C8 C5 1_555 1_555
C9 N2 1_555 1_555
H4 C9 1_555 1_555
O5 C16 1_555 1_555
O6 C16 1_555 1_555
O7 C17 1_555 1_555
O8 Zn2 1_555 1_555
N4 N1 1_555 1_555
C10 N4 1_555 1_555
C11 C10 1_555 1_555
C12 C11 1_555 1_555
H5 C12 1_555 1_555
C13 C12 1_555 1_555
H6 C13 1_555 1_555
C14 C13 1_555 1_555
C15 C10 1_555 1_555
H7 C15 1_555 1_555
C16 C11 1_555 1_555
C17 O8 1_555 1_555
N5 N2 1_555 1_555
C18 N3 1_555 1_555
H8 C18 1_555 1_555
Zn3 N5 1_555 1_555
Zn4_2 O5 1_555 1_555
O9 Zn1 1_555 1_555
O12 Zn2 1_555 1_555
N6 Zn1 1_555 1_555
C5 C6 1_555 1_555
C14 C15 1_555 1_555
C14 C17 1_555 1_555
N5 C18 1_555 1_555
Zn5 N3_2 1_555 1_555
O9 C7_2 1_555 1_555
O2_2 C7_2 1_555 1_555
O3_2 C8_2 1_555 1_555
O4_2 C8_2 1_555 1_555
N1_2 C1_2 1_555 1_555
N3_2 C9_2 1_555 1_555
C1_2 C2_2 1_555 1_555
C2_2 C3_2 1_555 1_555
C3_2 H1_2 1_555 1_555
C4_2 C3_2 1_555 1_555
H2_2 C4_2 1_555 1_555
C5_2 C4_2 1_555 1_555
C6_2 C1_2 1_555 1_555
H3_2 C6_2 1_555 1_555
C7_2 C2_2 1_555 1_555
C8_2 C5_2 1_555 1_555
C9_2 N6 1_555 1_555
H4_2 C9_2 1_555 1_555
O5_2 C16_2 1_555 1_555
O6_2 C16_2 1_555 1_555
O11 C17_2 1_555 1_555
O8_2 Zn5 1_555 1_555
N4_2 N1_2 1_555 1_555
C10_2 N4_2 1_555 1_555
C11_2 C10_2 1_555 1_555
C12_2 C11_2 1_555 1_555
H5_2 C12_2 1_555 1_555
C13_2 C12_2 1_555 1_555
H6_2 C13_2 1_555 1_555
C14_2 C13_2 1_555 1_555
C15_2 C10_2 1_555 1_555
H7_2 C15_2 1_555 1_555
C16_2 C11_2 1_555 1_555
C17_2 O8_2 1_555 1_555
N5_2 N6 1_555 1_555
C18_2 N3_2 1_555 1_555
H8_2 C18_2 1_555 1_555
Zn3 N5_2 1_555 1_555
Zn4 O5_2 1_555 1_555
O12_2 Zn5 1_555 1_555
C5_2 C6_2 1_555 1_555
C14_2 C15_2 1_555 1_555
C14_2 C17_2 1_555 1_555
N5_2 C18_2 1_555 1_555
Zn1_2 O1_2 1_555 1_555
O1_2 C7_3 1_555 1_555
O2_3 C7_3 1_555 1_555
O10 C8_3 1_555 1_555
O12_2 C8_3 1_555 1_555
N1_3 C1_3 1_555 1_555
C1_3 C2_3 1_555 1_555
C2_3 C3_3 1_555 1_555
C3_3 H1_3 1_555 1_555
C4_3 C3_3 1_555 1_555
H2_3 C4_3 1_555 1_555
C5_3 C4_3 1_555 1_555
C6_3 C1_3 1_555 1_555
H3_3 C6_3 1_555 1_555
C7_3 C2_3 1_555 1_555
C8_3 C5_3 1_555 1_555
O5_3 C16_3 1_555 1_555
O6_3 C16_3 1_555 1_555
O7_2 C17_3 1_555 1_555
N4_3 N1_3 1_555 1_555
C10_3 N4_3 1_555 1_555
C11_3 C10_3 1_555 1_555
C12_3 C11_3 1_555 1_555
H5_3 C12_3 1_555 1_555
C13_3 C12_3 1_555 1_555
H6_3 C13_3 1_555 1_555
C14_3 C13_3 1_555 1_555
C15_3 C10_3 1_555 1_555
H7_3 C15_3 1_555 1_555
C16_3 C11_3 1_555 1_555
C17_3 O8_3 1_555 1_555
Zn3 O5_3 1_555 1_555
N6_2 Zn1_2 1_555 1_555
C5_3 C6_3 1_555 1_555
C14_3 C15_3 1_555 1_555
C14_3 C17_3 1_555 1_555
Zn6 N3_3 1_555 1_555
N2_2 Zn1_3 1_555 1_555
N3_3 C9_3 1_555 1_555
C9_3 N2_2 1_555 1_555
H4_3 C9_3 1_555 1_555
O9_2 Zn1_3 1_555 1_555
Zn6_2 N3_4 1_555 1_555
C18_3 N3_4 1_555 1_555
H8_3 C18_3 1_555 1_555
Zn4_2 N5_3 1_555 1_555
N5_3 C18_3 1_555 1_555
Zn7 N3_5 1_555 1_555
N3_5 C9_4 1_555 1_555
C9_4 N6_2 1_555 1_555
H4_4 C9_4 1_555 1_555
Zn7_2 N3_6 1_555 1_555
C18_4 N3_6 1_555 1_555
H8_4 C18_4 1_555 1_555
Zn4 N5_4 1_555 1_555
N5_4 C18_4 1_555 1_555
O9_2 C7_4 1_555 1_555
O2_4 C7_4 1_555 1_555
O10_2 C8_4 1_555 1_555
O12 C8_4 1_555 1_555
N1_4 C1_4 1_555 1_555
C1_4 C2_4 1_555 1_555
C2_4 C3_4 1_555 1_555
C3_4 H1_4 1_555 1_555
C4_4 C3_4 1_555 1_555
H2_4 C4_4 1_555 1_555
C5_4 C4_4 1_555 1_555
C6_4 C1_4 1_555 1_555
H3_4 C6_4 1_555 1_555
C7_4 C2_4 1_555 1_555
C8_4 C5_4 1_555 1_555
O5_4 C16_4 1_555 1_555
O6_4 C16_4 1_555 1_555
O11_2 C17_4 1_555 1_555
N4_4 N1_4 1_555 1_555
C10_4 N4_4 1_555 1_555
C11_4 C10_4 1_555 1_555
C12_4 C11_4 1_555 1_555
H5_4 C12_4 1_555 1_555
C13_4 C12_4 1_555 1_555
H6_4 C13_4 1_555 1_555
C14_4 C13_4 1_555 1_555
C15_4 C10_4 1_555 1_555
H7_4 C15_4 1_555 1_555
C16_4 C11_4 1_555 1_555
C17_4 O8_4 1_555 1_555
Zn3 O5_4 1_555 1_555
C5_4 C6_4 1_555 1_555
C14_4 C15_4 1_555 1_555
C14_4 C17_4 1_555 1_555

#END
