
###############################################################################
#
# This file contains modified crystal structure data generated from the
# MOF subset of the Cambridge Structural Database (CSD) v543 
# hosted by the Cambridge Crystallographic Data Centre (CCDC).
#
# This work is licensed under the Creative Commons
# Attribution-NonCommercial-ShareAlike 4.0 International License.
# To view a copy of this license, visit
# http://creativecommons.org/licenses/by-nc-sa/4.0/
# or send a letter to
# Creative Commons, PO Box 1866, Mountain View, CA 94042, USA.
#
# CIF created using the CSD Python API on 29 September 2022
# The structure has been converted into the P1 space group
# The structure has a 3D framework
# The original CSD entry ZOFZIF is in the tetragonal crystal system
# The framework has been calculated to contain at least 10.0% void space
# The void calculation uses a probe of radius 1.32A, grid spacing 0.4
# H atom positions have been added when not included in the experimental data
#
###############################################################################

data_ZOFZIF
_chemical_formula_moiety         '(C216 H224 Mn16 N48 O84)n'
_symmetry_cell_setting           triclinic
_symmetry_space_group_name_H-M   'P 1'
_symmetry_Int_Tables_number      1
_space_group_name_Hall           'P 1'
loop_
_symmetry_equiv_pos_site_id
_symmetry_equiv_pos_as_xyz
1 x,y,z
_cell_length_a                   19.1999(10)
_cell_length_b                   19.1999(10)
_cell_length_c                   25.815(3)
_cell_angle_alpha                90
_cell_angle_beta                 90
_cell_angle_gamma                90
_cell_volume                     9516.34
loop_
_atom_site_label
_atom_site_type_symbol
_atom_site_fract_x
_atom_site_fract_y
_atom_site_fract_z
O3 O 0.1566(3) 0.2076(2) 0.4091(2)
O5 O 0.2097(3) 0.1879(2) 0.48405(18)
O8 O 0.2200(3) 0.2083(2) 0.08813(18)
O10 O 0.2237(4) 0.1590(2) 0.0115(2)
C3 C 0.2418(4) 0.0268(3) 0.0523(3)
H1 H 0.2454 0.0326 0.0167
C4 C 0.2293(4) 0.0835(3) 0.0838(2)
C5 C 0.2240(4) 0.1540(4) 0.0590(3)
C6 C 0.2224(4) 0.0745(4) 0.1362(3)
H2 H 0.2134 0.1125 0.1576
C7 C 0.2290(5) 0.0085(4) 0.1573(2)
C10 C 0.2296(4) 0.0405(4) 0.2534(3)
H4 H 0.2408 0.0876 0.2521
C11 C 0.1909(4) 0.1709(4) 0.4391(3)
C12 C 0.2047(5) 0.0842(4) 0.3682(3)
H5 H 0.1853 0.1165 0.3455
C13 C 0.2130(4) 0.1006(3) 0.4208(2)
C14 C 0.2255(5) 0.0204(4) 0.3506(3)
C17 C 0.2399(4) 0.0517(3) 0.4540(3)
H7 H 0.2462 0.0630 0.4887
C22 C 0.427(2) 0.068(2) 0.0165(12)
C23 C 0.4143(13) 0.0501(13) 0.1216(9)
N3 N 0.2201(5) 0.0021(4) 0.2961(2)
N4 N 0.4168(10) 0.0448(11) 0.0674(8)
Mn3 Mn 0.21281(5) 0.27324(5) 0.01636(4)
Mn4 Mn 0.22676(5) 0.28719(5) 0.51636(4)
Mn6 Mn 0.11246(5) 0.30931(5) 0.40922(4)
H10 H 0.429715 0.124651 0.0160896
H11 H 0.475463 0.046552 0.00146962
H19 H 0.458654 0.0228112 0.138315
H20 H 0.416121 0.104754 0.132797
H21 H 0.366185 0.0268464 0.135737
Mn2 Mn 0.38754(5) 0.80931(5) 0.09078(4)
O1 O 0.3568(4) 0.8276(4) 0.1697(2)
O2 O 0.4846(4) 0.7749(4) 0.1265(3)
O4 O 0.2955(3) 0.8713(2) 0.4512(2)
O7 O 0.2919(3) 0.9424(2) 0.5185(2)
O9 O 0.2856(3) 0.8433(2) 0.05969(16)
O11 O 0.4169(4) 0.9186(4) 0.0899(3)
C1 C 0.2649(4) 0.9005(4) 0.0388(3)
C2 C 0.2490(4) 0.9620(4) 0.0738(2)
C8 C 0.2444(5) 0.9523(4) 0.1259(3)
H3 H 0.2515 0.9084 0.1401
C9 C 0.2197(5) 0.9975(4) 0.2124(2)
C15 C 0.2513(5) 0.9698(4) 0.3841(3)
H6 H 0.2641 0.9262 0.3715
C16 C 0.2579(4) 0.9851(3) 0.4365(3)
C18 C 0.2845(4) 0.9279(3) 0.4723(3)
C19 C 0.4135(16) 0.9671(13) 0.0656(12)
C20 C 0.3391(10) 0.8010(11) 0.2018(9)
C21 C 0.5203(9) 0.7325(9) 0.1086(6)
C24 C 0.3720(19) 0.8712(16) 0.2752(15)
C25 C 0.322(2) 0.7676(19) 0.2998(13)
C26 C 0.5837(18) 0.7290(16) 0.1925(10)
C27 C 0.6228(14) 0.6652(14) 0.1082(10)
N1 N 0.1990(6) 0.9362(4) 0.2807(3)
N2 N 0.2008(6) 0.9338(4) 0.2315(3)
N5 N 0.3497(11) 0.8044(12) 0.2564(8)
N6 N 0.5850(9) 0.7181(10) 0.1359(8)
Mn5 Mn 0.28719(5) 0.77324(5) 0.48364(4)
Mn7 Mn 0.30931(5) 0.88754(5) 0.59078(4)
O12 O 0.3434(3) 0.7076(2) 0.0909(2)
O14 O 0.2903(3) 0.6879(2) 0.01595(18)
O15 O 0.4424(2) 0.7919(3) 0.0185(2)
H8 H 0.302979 0.75962 0.19128
H12 H 0.332899 0.910257 0.265714
H13 H 0.378714 0.868843 0.317051
H14 H 0.421291 0.885138 0.257086
H15 H 0.333916 0.71238 0.296021
H16 H 0.34519 0.787632 0.335298
H17 H 0.26576 0.774711 0.301193
H18 H 0.404329 0.951521 0.0256154
H22 H 0.634193 0.683498 0.0691802
H23 H 0.671364 0.654046 0.128352
H24 H 0.591457 0.618012 0.106099
H25 H 0.544532 0.695217 0.209808
H26 H 0.634619 0.71668 0.208667
H27 H 0.57099 0.783145 0.200778
H28 H 0.506135 0.70496 0.0732586
Mn1 Mn 0.27324(5) 0.78719(5) 0.98364(4)
O6 O 0.2570(3) 0.9057(3) 0.99115(19)
O13 O 0.3713(2) 0.7955(3) 0.9512(2)
O16 O 0.2083(2) 0.7800(3) 0.91187(18)
O17 O 0.1590(2) 0.7763(4) 0.9885(2)
O3_2 O 0.2076(2) 0.8434(3) 0.5909(2)
O5_2 O 0.1879(2) 0.7903(3) 0.51595(18)
C3_2 C 0.0268(3) 0.7582(4) 0.9477(3)
H1_2 H 0.0326 0.7546 0.9833
C4_2 C 0.0835(3) 0.7707(4) 0.9162(2)
C5_2 C 0.1540(4) 0.7760(4) 0.9410(3)
C6_2 C 0.0745(4) 0.7776(4) 0.8638(3)
H2_2 H 0.1125 0.7866 0.8424
C7_2 C 0.0085(4) 0.7710(5) 0.8427(2)
C10_2 C 0.0405(4) 0.7704(4) 0.7466(3)
H4_2 H 0.0876 0.7592 0.7479
C11_2 C 0.1709(4) 0.8091(4) 0.5609(3)
C12_2 C 0.0842(4) 0.7953(5) 0.6318(3)
H5_2 H 0.1165 0.8147 0.6545
C13_2 C 0.1006(3) 0.7870(4) 0.5792(2)
C14_2 C 0.0204(4) 0.7745(5) 0.6494(3)
C17_2 C 0.0517(3) 0.7601(4) 0.5460(3)
H7_2 H 0.0630 0.7538 0.5113
C22_2 C 0.068(2) 0.573(2) 0.9835(12)
C23_2 C 0.0501(13) 0.5857(13) 0.8784(9)
N3_2 N 0.0021(4) 0.7799(5) 0.7039(2)
N4_2 N 0.0448(11) 0.5832(10) 0.9326(8)
H10_2 H 0.124651 0.570285 0.98391
H11_2 H 0.046552 0.524537 0.99853
H19_2 H 0.0228112 0.541346 0.861685
H20_2 H 0.104754 0.583879 0.867203
H21_2 H 0.0268464 0.633815 0.864263
Mn1_2 Mn 0.78719(5) 0.72676(5) 0.01636(4)
O6_2 O 0.9057(3) 0.7430(3) 0.00885(19)
O13_2 O 0.7955(3) 0.6287(2) 0.0488(2)
O16_2 O 0.7800(3) 0.7917(2) 0.08813(18)
O17_2 O 0.7763(4) 0.8410(2) 0.0115(2)
Mn2_2 Mn 0.80931(5) 0.61246(5) 0.90922(4)
O1_2 O 0.8276(4) 0.6432(4) 0.8303(2)
O2_2 O 0.7749(4) 0.5154(4) 0.8735(3)
O4_2 O 0.8713(2) 0.7045(3) 0.5488(2)
O7_2 O 0.9424(2) 0.7081(3) 0.4815(2)
O9_2 O 0.8433(2) 0.7144(3) 0.94031(16)
O11_2 O 0.9186(4) 0.5831(4) 0.9101(3)
C1_2 C 0.9005(4) 0.7351(4) 0.9612(3)
C2_2 C 0.9620(4) 0.7510(4) 0.9262(2)
C8_2 C 0.9523(4) 0.7556(5) 0.8741(3)
H3_2 H 0.9084 0.7485 0.8599
C9_2 C 0.9975(4) 0.7803(5) 0.7876(2)
C15_2 C 0.9698(4) 0.7487(5) 0.6159(3)
H6_2 H 0.9262 0.7359 0.6285
C16_2 C 0.9851(3) 0.7421(4) 0.5635(3)
C18_2 C 0.9279(3) 0.7155(4) 0.5277(3)
C19_2 C 0.9671(13) 0.5865(16) 0.9344(12)
C20_2 C 0.8010(11) 0.6609(10) 0.7982(9)
C21_2 C 0.7325(9) 0.4797(9) 0.8914(6)
C24_2 C 0.8712(16) 0.6280(19) 0.7248(15)
C25_2 C 0.7676(19) 0.678(2) 0.7002(13)
C26_2 C 0.7290(16) 0.4163(18) 0.8075(10)
C27_2 C 0.6652(14) 0.3772(14) 0.8918(10)
N1_2 N 0.9362(4) 0.8010(6) 0.7193(3)
N2_2 N 0.9338(4) 0.7992(6) 0.7685(3)
N5_2 N 0.8044(12) 0.6503(11) 0.7436(8)
N6_2 N 0.7181(10) 0.4150(9) 0.8641(8)
Mn5_2 Mn 0.77324(5) 0.71281(5) 0.51636(4)
Mn7_2 Mn 0.88754(5) 0.69069(5) 0.40922(4)
O12_2 O 0.7076(2) 0.6566(3) 0.9091(2)
O14_2 O 0.6879(2) 0.7097(3) 0.98405(18)
O15_2 O 0.7919(3) 0.5576(2) 0.9815(2)
H8_2 H 0.75962 0.697021 0.80872
H12_2 H 0.910257 0.667101 0.734286
H13_2 H 0.868843 0.621286 0.682949
H14_2 H 0.885138 0.578709 0.742914
H15_2 H 0.71238 0.666084 0.703979
H16_2 H 0.787632 0.65481 0.664702
H17_2 H 0.774711 0.73424 0.698807
H18_2 H 0.951521 0.595671 0.974385
H22_2 H 0.683498 0.365807 0.93082
H23_2 H 0.654046 0.328636 0.871648
H24_2 H 0.618012 0.408543 0.893901
H25_2 H 0.695217 0.455468 0.790192
H26_2 H 0.71668 0.365381 0.791333
H27_2 H 0.783145 0.42901 0.799222
H28_2 H 0.70496 0.493865 0.926741
Mn2_3 Mn 0.61246(5) 0.19069(5) 0.09078(4)
O1_3 O 0.6432(4) 0.1724(4) 0.1697(2)
O2_3 O 0.5154(4) 0.2251(4) 0.1265(3)
O4_3 O 0.7045(3) 0.1287(2) 0.4512(2)
O7_3 O 0.7081(3) 0.0576(2) 0.5185(2)
O9_3 O 0.7144(3) 0.1567(2) 0.05969(16)
O11_3 O 0.5831(4) 0.0814(4) 0.0899(3)
C1_3 C 0.7351(4) 0.0995(4) 0.0388(3)
C2_3 C 0.7510(4) 0.0380(4) 0.0738(2)
C8_3 C 0.7556(5) 0.0477(4) 0.1259(3)
H3_3 H 0.7485 0.0916 0.1401
C9_3 C 0.7803(5) 0.0025(4) 0.2124(2)
C15_3 C 0.7487(5) 0.0302(4) 0.3841(3)
H6_3 H 0.7359 0.0738 0.3715
C16_3 C 0.7421(4) 0.0149(3) 0.4365(3)
C18_3 C 0.7155(4) 0.0721(3) 0.4723(3)
C19_3 C 0.5865(16) 0.0329(13) 0.0656(12)
C20_3 C 0.6609(10) 0.1990(11) 0.2018(9)
C21_3 C 0.4797(9) 0.2675(9) 0.1086(6)
C24_3 C 0.6280(19) 0.1288(16) 0.2752(15)
C25_3 C 0.678(2) 0.2324(19) 0.2998(13)
C26_3 C 0.4163(18) 0.2710(16) 0.1925(10)
C27_3 C 0.3772(14) 0.3348(14) 0.1082(10)
N1_3 N 0.8010(6) 0.0638(4) 0.2807(3)
N2_3 N 0.7992(6) 0.0662(4) 0.2315(3)
N5_3 N 0.6503(11) 0.1956(12) 0.2564(8)
N6_3 N 0.4150(9) 0.2819(10) 0.1359(8)
Mn5_3 Mn 0.71281(5) 0.22676(5) 0.48364(4)
Mn7_3 Mn 0.69069(5) 0.11246(5) 0.59078(4)
O12_3 O 0.6566(3) 0.2924(2) 0.0909(2)
O14_3 O 0.7097(3) 0.3121(2) 0.01595(18)
O15_3 O 0.5576(2) 0.2081(3) 0.0185(2)
H8_3 H 0.697021 0.24038 0.19128
H12_3 H 0.667101 0.0897431 0.265714
H13_3 H 0.621286 0.131157 0.317051
H14_3 H 0.578709 0.114862 0.257086
H15_3 H 0.666084 0.28762 0.296021
H16_3 H 0.65481 0.212368 0.335298
H17_3 H 0.73424 0.225289 0.301193
H18_3 H 0.595671 0.0484794 0.0256154
H22_3 H 0.365807 0.316502 0.0691802
H23_3 H 0.328636 0.345954 0.128352
H24_3 H 0.408543 0.381988 0.106099
H25_3 H 0.455468 0.304783 0.209808
H26_3 H 0.365381 0.28332 0.208667
H27_3 H 0.42901 0.216855 0.200778
H28_3 H 0.493865 0.29504 0.0732586
Mn1_3 Mn 0.72676(5) 0.21281(5) 0.98364(4)
O6_3 O 0.7430(3) 0.0943(3) 0.99115(19)
O13_3 O 0.6287(2) 0.2045(3) 0.9512(2)
O16_3 O 0.7917(2) 0.2200(3) 0.91187(18)
O17_3 O 0.8410(2) 0.2237(4) 0.9885(2)
O3_3 O 0.8434(3) 0.7924(2) 0.4091(2)
O5_3 O 0.7903(3) 0.8121(2) 0.48405(18)
C3_3 C 0.7582(4) 0.9732(3) 0.0523(3)
H1_3 H 0.7546 0.9674 0.0167
C4_3 C 0.7707(4) 0.9165(3) 0.0838(2)
C5_3 C 0.7760(4) 0.8460(4) 0.0590(3)
C6_3 C 0.7776(4) 0.9255(4) 0.1362(3)
H2_3 H 0.7866 0.8875 0.1576
C7_3 C 0.7710(5) 0.9915(4) 0.1573(2)
C10_3 C 0.7704(4) 0.9595(4) 0.2534(3)
H4_3 H 0.7592 0.9124 0.2521
C11_3 C 0.8091(4) 0.8291(4) 0.4391(3)
C12_3 C 0.7953(5) 0.9158(4) 0.3682(3)
H5_3 H 0.8147 0.8835 0.3455
C13_3 C 0.7870(4) 0.8994(3) 0.4208(2)
C14_3 C 0.7745(5) 0.9796(4) 0.3506(3)
C17_3 C 0.7601(4) 0.9483(3) 0.4540(3)
H7_3 H 0.7538 0.9370 0.4887
C22_3 C 0.573(2) 0.932(2) 0.0165(12)
C23_3 C 0.5857(13) 0.9499(13) 0.1216(9)
N3_3 N 0.7799(5) 0.9979(4) 0.2961(2)
N4_3 N 0.5832(10) 0.9552(11) 0.0674(8)
H10_3 H 0.570285 0.875349 0.0160896
H11_3 H 0.524537 0.953448 0.00146962
H19_3 H 0.541346 0.977189 0.138315
H20_3 H 0.583879 0.895246 0.132797
H21_3 H 0.633815 0.973154 0.135737
O6_4 O 0.0943(3) 0.2570(3) 0.00885(19)
O13_4 O 0.2045(3) 0.3713(2) 0.0488(2)
Mn2_4 Mn 0.19069(5) 0.38754(5) 0.90922(4)
O1_4 O 0.1724(4) 0.3568(4) 0.8303(2)
O2_4 O 0.2251(4) 0.4846(4) 0.8735(3)
O4_4 O 0.1287(2) 0.2955(3) 0.5488(2)
O7_4 O 0.0576(2) 0.2919(3) 0.4815(2)
O9_4 O 0.1567(2) 0.2856(3) 0.94031(16)
O11_4 O 0.0814(4) 0.4169(4) 0.9101(3)
C1_4 C 0.0995(4) 0.2649(4) 0.9612(3)
C2_4 C 0.0380(4) 0.2490(4) 0.9262(2)
C8_4 C 0.0477(4) 0.2444(5) 0.8741(3)
H3_4 H 0.0916 0.2515 0.8599
C9_4 C 0.0025(4) 0.2197(5) 0.7876(2)
C15_4 C 0.0302(4) 0.2513(5) 0.6159(3)
H6_4 H 0.0738 0.2641 0.6285
C16_4 C 0.0149(3) 0.2579(4) 0.5635(3)
C18_4 C 0.0721(3) 0.2845(4) 0.5277(3)
C19_4 C 0.0329(13) 0.4135(16) 0.9344(12)
C20_4 C 0.1990(11) 0.3391(10) 0.7982(9)
C21_4 C 0.2675(9) 0.5203(9) 0.8914(6)
C24_4 C 0.1288(16) 0.3720(19) 0.7248(15)
C25_4 C 0.2324(19) 0.322(2) 0.7002(13)
C26_4 C 0.2710(16) 0.5837(18) 0.8075(10)
C27_4 C 0.3348(14) 0.6228(14) 0.8918(10)
N1_4 N 0.0638(4) 0.1990(6) 0.7193(3)
N2_4 N 0.0662(4) 0.2008(6) 0.7685(3)
N5_4 N 0.1956(12) 0.3497(11) 0.7436(8)
N6_4 N 0.2819(10) 0.5850(9) 0.8641(8)
O12_4 O 0.2924(2) 0.3434(3) 0.9091(2)
O14_4 O 0.3121(2) 0.2903(3) 0.98405(18)
O15_4 O 0.2081(3) 0.4424(2) 0.9815(2)
H8_4 H 0.24038 0.302979 0.80872
H12_4 H 0.0897431 0.332899 0.734286
H13_4 H 0.131157 0.378714 0.682949
H14_4 H 0.114862 0.421291 0.742914
H15_4 H 0.28762 0.333916 0.703979
H16_4 H 0.212368 0.34519 0.664702
H17_4 H 0.225289 0.26576 0.698807
H18_4 H 0.0484794 0.404329 0.974385
H22_4 H 0.316502 0.634193 0.93082
H23_4 H 0.345954 0.671364 0.871648
H24_4 H 0.381988 0.591457 0.893901
H25_4 H 0.304783 0.544532 0.790192
H26_4 H 0.28332 0.634619 0.791333
H27_4 H 0.216855 0.57099 0.799222
H28_4 H 0.29504 0.506135 0.926741
O3_4 O 0.7924(2) 0.1566(3) 0.5909(2)
O5_4 O 0.8121(2) 0.2097(3) 0.51595(18)
C3_4 C 0.9732(3) 0.2418(4) 0.9477(3)
H1_4 H 0.9674 0.2454 0.9833
C4_4 C 0.9165(3) 0.2293(4) 0.9162(2)
C5_4 C 0.8460(4) 0.2240(4) 0.9410(3)
C6_4 C 0.9255(4) 0.2224(4) 0.8638(3)
H2_4 H 0.8875 0.2134 0.8424
C7_4 C 0.9915(4) 0.2290(5) 0.8427(2)
C10_4 C 0.9595(4) 0.2296(4) 0.7466(3)
H4_4 H 0.9124 0.2408 0.7479
C11_4 C 0.8291(4) 0.1909(4) 0.5609(3)
C12_4 C 0.9158(4) 0.2047(5) 0.6318(3)
H5_4 H 0.8835 0.1853 0.6545
C13_4 C 0.8994(3) 0.2130(4) 0.5792(2)
C14_4 C 0.9796(4) 0.2255(5) 0.6494(3)
C17_4 C 0.9483(3) 0.2399(4) 0.5460(3)
H7_4 H 0.9370 0.2462 0.5113
C22_4 C 0.932(2) 0.427(2) 0.9835(12)
C23_4 C 0.9499(13) 0.4143(13) 0.8784(9)
N3_4 N 0.9979(4) 0.2201(5) 0.7039(2)
N4_4 N 0.9552(11) 0.4168(10) 0.9326(8)
H10_4 H 0.875349 0.429715 0.98391
H11_4 H 0.953448 0.475463 0.99853
H19_4 H 0.977189 0.458654 0.861685
H20_4 H 0.895246 0.416121 0.867203
H21_4 H 0.973154 0.366185 0.864263
O1_5 O 0.8568(4) 0.6724(4) 0.3303(2)
O2_5 O 0.9846(4) 0.7251(4) 0.3735(3)
O6_5 O 0.7570(3) 0.5943(3) 0.50885(19)
O8_2 O 0.7200(3) 0.2917(2) 0.41187(18)
O9_5 O 0.7856(3) 0.6567(2) 0.44031(16)
O10_2 O 0.7237(4) 0.3410(2) 0.4885(2)
O11_5 O 0.9169(4) 0.5814(4) 0.4101(3)
C1_5 C 0.7649(4) 0.5995(4) 0.4612(3)
C2_5 C 0.7490(4) 0.5380(4) 0.4262(2)
C3_5 C 0.7418(4) 0.4732(3) 0.4477(3)
H1_5 H 0.7454 0.4674 0.4833
C4_5 C 0.7293(4) 0.4165(3) 0.4162(2)
C5_5 C 0.7240(4) 0.3460(4) 0.4410(3)
C6_5 C 0.7224(4) 0.4255(4) 0.3638(3)
H2_5 H 0.7134 0.3875 0.3424
C7_5 C 0.7290(5) 0.4915(4) 0.3427(2)
C8_5 C 0.7444(5) 0.5477(4) 0.3741(3)
H3_5 H 0.7515 0.5916 0.3599
C9_5 C 0.7197(5) 0.5025(4) 0.2876(2)
C10_5 C 0.7296(4) 0.4595(4) 0.2466(3)
H4_5 H 0.7408 0.4124 0.2479
C11_5 C 0.6909(4) 0.3291(4) 0.0609(3)
C12_5 C 0.7047(5) 0.4158(4) 0.1318(3)
H5_5 H 0.6853 0.3835 0.1545
C13_5 C 0.7130(4) 0.3994(3) 0.0792(2)
C14_5 C 0.7255(5) 0.4796(4) 0.1494(3)
C15_5 C 0.7513(5) 0.5302(4) 0.1159(3)
H6_5 H 0.7641 0.5738 0.1285
C16_5 C 0.7579(4) 0.5149(3) 0.0635(3)
C17_5 C 0.7399(4) 0.4483(3) 0.0460(3)
H7_5 H 0.7462 0.4370 0.0113
C18_5 C 0.7845(4) 0.5721(3) 0.0277(3)
C19_5 C 0.9135(16) 0.5329(13) 0.4344(12)
C20_5 C 0.8391(10) 0.6990(11) 0.2982(9)
C22_5 C 0.927(2) 0.432(2) 0.4835(12)
C23_5 C 0.9143(13) 0.4499(13) 0.3784(9)
C24_5 C 0.8720(19) 0.6288(16) 0.2248(15)
C25_5 C 0.822(2) 0.7324(19) 0.2002(13)
N1_5 N 0.6990(6) 0.5638(4) 0.2193(3)
N2_5 N 0.7008(6) 0.5662(4) 0.2685(3)
N3_5 N 0.7201(5) 0.4979(4) 0.2039(2)
N4_5 N 0.9168(10) 0.4552(11) 0.4326(8)
N5_5 N 0.8497(11) 0.6956(12) 0.2436(8)
O16_4 O 0.7083(2) 0.7200(3) 0.58813(18)
O17_4 O 0.6590(2) 0.7237(4) 0.5115(2)
H8_5 H 0.802979 0.74038 0.30872
H9 H 0.88375 0.449172 0.507619
H10_5 H 0.929715 0.375349 0.48391
H11_5 H 0.975463 0.453448 0.49853
H12_5 H 0.832899 0.589743 0.234286
H13_5 H 0.878714 0.631157 0.182949
H14_5 H 0.921291 0.614862 0.242914
H15_5 H 0.833916 0.78762 0.203979
H16_5 H 0.84519 0.712368 0.164702
H17_5 H 0.76576 0.725289 0.198807
H18_5 H 0.904329 0.548479 0.474385
H19_5 H 0.958654 0.477189 0.361685
H20_5 H 0.916121 0.395246 0.367203
H21_5 H 0.866185 0.473154 0.364263
O1_6 O 0.6724(4) 0.1432(4) 0.6697(2)
O2_6 O 0.7251(4) 0.0154(4) 0.6265(3)
O6_6 O 0.5943(3) 0.2430(3) 0.49115(19)
O8_3 O 0.2917(2) 0.2800(3) 0.58813(18)
O9_6 O 0.6567(2) 0.2144(3) 0.55969(16)
O10_3 O 0.3410(2) 0.2763(4) 0.5115(2)
O11_6 O 0.5814(4) 0.0831(4) 0.5899(3)
C1_6 C 0.5995(4) 0.2351(4) 0.5388(3)
C2_6 C 0.5380(4) 0.2510(4) 0.5738(2)
C3_6 C 0.4732(3) 0.2582(4) 0.5523(3)
H1_6 H 0.4674 0.2546 0.5167
C4_6 C 0.4165(3) 0.2707(4) 0.5838(2)
C5_6 C 0.3460(4) 0.2760(4) 0.5590(3)
C6_6 C 0.4255(4) 0.2776(4) 0.6362(3)
H2_6 H 0.3875 0.2866 0.6576
C7_6 C 0.4915(4) 0.2710(5) 0.6573(2)
C8_6 C 0.5477(4) 0.2556(5) 0.6259(3)
H3_6 H 0.5916 0.2485 0.6401
C9_6 C 0.5025(4) 0.2803(5) 0.7124(2)
C10_6 C 0.4595(4) 0.2704(4) 0.7534(3)
H4_6 H 0.4124 0.2592 0.7521
C11_6 C 0.3291(4) 0.3091(4) 0.9391(3)
C12_6 C 0.4158(4) 0.2953(5) 0.8682(3)
H5_6 H 0.3835 0.3147 0.8455
C13_6 C 0.3994(3) 0.2870(4) 0.9208(2)
C14_6 C 0.4796(4) 0.2745(5) 0.8506(3)
C15_6 C 0.5302(4) 0.2487(5) 0.8841(3)
H6_6 H 0.5738 0.2359 0.8715
C16_6 C 0.5149(3) 0.2421(4) 0.9365(3)
C17_6 C 0.4483(3) 0.2601(4) 0.9540(3)
H7_6 H 0.4370 0.2538 0.9887
C18_6 C 0.5721(3) 0.2155(4) 0.9723(3)
C19_6 C 0.5329(13) 0.0865(16) 0.5656(12)
C20_6 C 0.6990(11) 0.1609(10) 0.7018(9)
C22_6 C 0.432(2) 0.073(2) 0.5165(12)
C23_6 C 0.4499(13) 0.0857(13) 0.6216(9)
C24_6 C 0.6288(16) 0.1280(19) 0.7752(15)
C25_6 C 0.7324(19) 0.178(2) 0.7998(13)
N1_6 N 0.5638(4) 0.3010(6) 0.7807(3)
N2_6 N 0.5662(4) 0.2992(6) 0.7315(3)
N3_6 N 0.4979(4) 0.2799(5) 0.7961(2)
N4_6 N 0.4552(11) 0.0832(10) 0.5674(8)
N5_6 N 0.6956(12) 0.1503(11) 0.7564(8)
H8_6 H 0.74038 0.197021 0.69128
H9_2 H 0.449172 0.11625 0.492381
H10_6 H 0.375349 0.0702853 0.51609
H11_6 H 0.453448 0.0245373 0.50147
H12_6 H 0.589743 0.167101 0.765714
H13_6 H 0.631157 0.121286 0.817051
H14_6 H 0.614862 0.0787087 0.757086
H15_6 H 0.78762 0.166084 0.796021
H16_6 H 0.712368 0.15481 0.835298
H17_6 H 0.725289 0.23424 0.801193
H18_6 H 0.548479 0.0956711 0.525615
H19_6 H 0.477189 0.0413457 0.638315
H20_6 H 0.395246 0.0838792 0.632797
H21_6 H 0.473154 0.133815 0.635737
O1_7 O 0.1432(4) 0.3276(4) 0.3303(2)
O2_7 O 0.0154(4) 0.2749(4) 0.3735(3)
O6_7 O 0.2430(3) 0.4057(3) 0.50885(19)
O8_4 O 0.2800(3) 0.7083(2) 0.41187(18)
O9_7 O 0.2144(3) 0.3433(2) 0.44031(16)
O10_4 O 0.2763(4) 0.6590(2) 0.4885(2)
O11_7 O 0.0831(4) 0.4186(4) 0.4101(3)
C1_7 C 0.2351(4) 0.4005(4) 0.4612(3)
C2_7 C 0.2510(4) 0.4620(4) 0.4262(2)
C3_7 C 0.2582(4) 0.5268(3) 0.4477(3)
H1_7 H 0.2546 0.5326 0.4833
C4_7 C 0.2707(4) 0.5835(3) 0.4162(2)
C5_7 C 0.2760(4) 0.6540(4) 0.4410(3)
C6_7 C 0.2776(4) 0.5745(4) 0.3638(3)
H2_7 H 0.2866 0.6125 0.3424
C7_7 C 0.2710(5) 0.5085(4) 0.3427(2)
C8_7 C 0.2556(5) 0.4523(4) 0.3741(3)
H3_7 H 0.2485 0.4084 0.3599
C9_7 C 0.2803(5) 0.4975(4) 0.2876(2)
C10_7 C 0.2704(4) 0.5405(4) 0.2466(3)
H4_7 H 0.2592 0.5876 0.2479
C11_7 C 0.3091(4) 0.6709(4) 0.0609(3)
C12_7 C 0.2953(5) 0.5842(4) 0.1318(3)
H5_7 H 0.3147 0.6165 0.1545
C13_7 C 0.2870(4) 0.6006(3) 0.0792(2)
C14_7 C 0.2745(5) 0.5204(4) 0.1494(3)
C15_7 C 0.2487(5) 0.4698(4) 0.1159(3)
H6_7 H 0.2359 0.4262 0.1285
C16_7 C 0.2421(4) 0.4851(3) 0.0635(3)
C17_7 C 0.2601(4) 0.5517(3) 0.0460(3)
H7_7 H 0.2538 0.5630 0.0113
C18_7 C 0.2155(4) 0.4279(3) 0.0277(3)
C19_7 C 0.0865(16) 0.4671(13) 0.4344(12)
C20_7 C 0.1609(10) 0.3010(11) 0.2982(9)
C22_7 C 0.073(2) 0.568(2) 0.4835(12)
C23_7 C 0.0857(13) 0.5501(13) 0.3784(9)
C24_7 C 0.1280(19) 0.3712(16) 0.2248(15)
C25_7 C 0.178(2) 0.2676(19) 0.2002(13)
N1_7 N 0.3010(6) 0.4362(4) 0.2193(3)
N2_7 N 0.2992(6) 0.4338(4) 0.2685(3)
N3_7 N 0.2799(5) 0.5021(4) 0.2039(2)
N4_7 N 0.0832(10) 0.5448(11) 0.4326(8)
N5_7 N 0.1503(11) 0.3044(12) 0.2436(8)
H8_7 H 0.197021 0.25962 0.30872
H9_3 H 0.11625 0.550828 0.507619
H10_7 H 0.0702853 0.624651 0.48391
H11_7 H 0.0245373 0.546552 0.49853
H12_7 H 0.167101 0.410257 0.234286
H13_7 H 0.121286 0.368843 0.182949
H14_7 H 0.0787087 0.385138 0.242914
H15_7 H 0.166084 0.21238 0.203979
H16_7 H 0.15481 0.287632 0.164702
H17_7 H 0.23424 0.274711 0.198807
H18_7 H 0.0956711 0.451521 0.474385
H19_7 H 0.0413457 0.522811 0.361685
H20_7 H 0.0838792 0.604754 0.367203
H21_7 H 0.133815 0.526846 0.364263
O1_8 O 0.3276(4) 0.8568(4) 0.6697(2)
O2_8 O 0.2749(4) 0.9846(4) 0.6265(3)
O6_8 O 0.4057(3) 0.7570(3) 0.49115(19)
O9_8 O 0.3433(2) 0.7856(3) 0.55969(16)
O11_8 O 0.4186(4) 0.9169(4) 0.5899(3)
C1_8 C 0.4005(4) 0.7649(4) 0.5388(3)
C2_8 C 0.4620(4) 0.7490(4) 0.5738(2)
C3_8 C 0.5268(3) 0.7418(4) 0.5523(3)
H1_8 H 0.5326 0.7454 0.5167
C4_8 C 0.5835(3) 0.7293(4) 0.5838(2)
C5_8 C 0.6540(4) 0.7240(4) 0.5590(3)
C6_8 C 0.5745(4) 0.7224(4) 0.6362(3)
H2_8 H 0.6125 0.7134 0.6576
C7_8 C 0.5085(4) 0.7290(5) 0.6573(2)
C8_8 C 0.4523(4) 0.7444(5) 0.6259(3)
H3_8 H 0.4084 0.7515 0.6401
C9_8 C 0.4975(4) 0.7197(5) 0.7124(2)
C10_8 C 0.5405(4) 0.7296(4) 0.7534(3)
H4_8 H 0.5876 0.7408 0.7521
C11_8 C 0.6709(4) 0.6909(4) 0.9391(3)
C12_8 C 0.5842(4) 0.7047(5) 0.8682(3)
H5_8 H 0.6165 0.6853 0.8455
C13_8 C 0.6006(3) 0.7130(4) 0.9208(2)
C14_8 C 0.5204(4) 0.7255(5) 0.8506(3)
C15_8 C 0.4698(4) 0.7513(5) 0.8841(3)
H6_8 H 0.4262 0.7641 0.8715
C16_8 C 0.4851(3) 0.7579(4) 0.9365(3)
C17_8 C 0.5517(3) 0.7399(4) 0.9540(3)
H7_8 H 0.5630 0.7462 0.9887
C18_8 C 0.4279(3) 0.7845(4) 0.9723(3)
C19_8 C 0.4671(13) 0.9135(16) 0.5656(12)
C20_8 C 0.3010(11) 0.8391(10) 0.7018(9)
C22_8 C 0.568(2) 0.927(2) 0.5165(12)
C23_8 C 0.5501(13) 0.9143(13) 0.6216(9)
C24_8 C 0.3712(16) 0.8720(19) 0.7752(15)
C25_8 C 0.2676(19) 0.822(2) 0.7998(13)
N1_8 N 0.4362(4) 0.6990(6) 0.7807(3)
N2_8 N 0.4338(4) 0.7008(6) 0.7315(3)
N3_8 N 0.5021(4) 0.7201(5) 0.7961(2)
N4_8 N 0.5448(11) 0.9168(10) 0.5674(8)
N5_8 N 0.3044(12) 0.8497(11) 0.7564(8)
H8_8 H 0.25962 0.802979 0.69128
H9_4 H 0.550828 0.88375 0.492381
H10_8 H 0.624651 0.929715 0.51609
H11_8 H 0.546552 0.975463 0.50147
H12_8 H 0.410257 0.832899 0.765714
H13_8 H 0.368843 0.878714 0.817051
H14_8 H 0.385138 0.921291 0.757086
H15_8 H 0.21238 0.833916 0.796021
H16_8 H 0.287632 0.84519 0.835298
H17_8 H 0.274711 0.76576 0.801193
H18_8 H 0.451521 0.904329 0.525615
H19_8 H 0.522811 0.958654 0.638315
H20_8 H 0.604754 0.916121 0.632797
H21_8 H 0.526846 0.866185 0.635737
H9_5 H 0.38375 0.0508277 0.992381
H9_6 H 0.0508277 0.61625 0.00761868
H9_7 H 0.61625 0.949172 0.992381
H9_8 H 0.949172 0.38375 0.00761868
C21_5 C 0.0203(9) 0.7675(9) 0.3914(6)
C26_5 C 0.0837(18) 0.7710(16) 0.3075(10)
C27_5 C 0.1228(14) 0.8348(14) 0.3918(10)
N6_5 N 0.0850(9) 0.7819(10) 0.3641(8)
H22_5 H 0.134193 0.816502 0.43082
H23_5 H 0.171364 0.845954 0.371648
H24_5 H 0.0914566 0.881988 0.393901
H25_5 H 0.0445317 0.804783 0.290192
H26_5 H 0.134619 0.78332 0.291333
H27_5 H 0.0709899 0.716855 0.299222
H28_5 H 0.00613547 0.79504 0.426741
C21_6 C 0.7675(9) 0.9797(9) 0.6086(6)
C26_6 C 0.7710(16) 0.9163(18) 0.6925(10)
C27_6 C 0.8348(14) 0.8772(14) 0.6082(10)
N6_6 N 0.7819(10) 0.9150(9) 0.6359(8)
H22_6 H 0.816502 0.865807 0.56918
H23_6 H 0.845954 0.828636 0.628352
H24_6 H 0.881988 0.908543 0.606099
H25_6 H 0.804783 0.955468 0.709808
H26_6 H 0.78332 0.865381 0.708667
H27_6 H 0.716855 0.92901 0.700778
H28_6 H 0.79504 0.993865 0.573259
C21_7 C 0.9797(9) 0.2325(9) 0.3914(6)
C26_7 C 0.9163(18) 0.2290(16) 0.3075(10)
C27_7 C 0.8772(14) 0.1652(14) 0.3918(10)
N6_7 N 0.9150(9) 0.2181(10) 0.3641(8)
H22_7 H 0.865807 0.183498 0.43082
H23_7 H 0.828636 0.154046 0.371648
H24_7 H 0.908543 0.118012 0.393901
H25_7 H 0.955468 0.195217 0.290192
H26_7 H 0.865381 0.21668 0.291333
H27_7 H 0.92901 0.283145 0.299222
H28_7 H 0.993865 0.20496 0.426741
C21_8 C 0.2325(9) 0.0203(9) 0.6086(6)
C26_8 C 0.2290(16) 0.0837(18) 0.6925(10)
C27_8 C 0.1652(14) 0.1228(14) 0.6082(10)
N6_8 N 0.2181(10) 0.0850(9) 0.6359(8)
H22_8 H 0.183498 0.134193 0.56918
H23_8 H 0.154046 0.171364 0.628352
H24_8 H 0.118012 0.0914566 0.606099
H25_8 H 0.195217 0.0445317 0.709808
H26_8 H 0.21668 0.134619 0.708667
H27_8 H 0.283145 0.0709899 0.700778
H28_8 H 0.20496 0.00613547 0.573259
loop_
_geom_bond_atom_site_label_1
_geom_bond_atom_site_label_2
_geom_bond_site_symmetry_1
_geom_bond_site_symmetry_2
O3 C11 1_555 1_555
O5 C11 1_555 1_555
O8 C5 1_555 1_555
O10 C5 1_555 1_555
H1 C3 1_555 1_555
C4 C3 1_555 1_555
C5 C4 1_555 1_555
C6 C4 1_555 1_555
H2 C6 1_555 1_555
C7 C6 1_555 1_555
H4 C10 1_555 1_555
C11 C13 1_555 1_555
C12 H5 1_555 1_555
C13 C12 1_555 1_555
C14 C12 1_555 1_555
C17 C13 1_555 1_555
H7 C17 1_555 1_555
C22 N4 1_555 1_555
C23 N4 1_555 1_555
N3 C10 1_555 1_555
Mn3 O8 1_555 1_555
Mn4 O5 1_555 1_555
Mn6 O3 1_555 1_555
O10 Mn3 1_555 1_555
C14 N3 1_555 1_555
C22 H10 1_555 1_555
C22 H11 1_555 1_555
C23 H19 1_555 1_555
C23 H20 1_555 1_555
C23 H21 1_555 1_555
Mn2 O1 1_555 1_555
O1 C20 1_555 1_555
O2 Mn2 1_555 1_555
O4 C18 1_555 1_555
O7 C18 1_555 1_555
O11 Mn2 1_555 1_555
C1 O9 1_555 1_555
C2 C1 1_555 1_555
C8 C2 1_555 1_555
H3 C8 1_555 1_555
H6 C15 1_555 1_555
C16 C15 1_555 1_555
C18 C16 1_555 1_555
C19 O11 1_555 1_555
C20 N5 1_555 1_555
C21 O2 1_555 1_555
C24 N5 1_555 1_555
C25 N5 1_555 1_555
C26 N6 1_555 1_555
C27 N6 1_555 1_555
N1 N2 1_555 1_555
N2 C9 1_555 1_555
N6 C21 1_555 1_555
Mn5 O4 1_555 1_555
Mn7 O7 1_555 1_555
O12 Mn2 1_555 1_555
O15 Mn2 1_555 1_555
Mn2 O9 1_555 1_555
C20 H8 1_555 1_555
C24 H12 1_555 1_555
C24 H13 1_555 1_555
C24 H14 1_555 1_555
C25 H15 1_555 1_555
C25 H16 1_555 1_555
C25 H17 1_555 1_555
C19 H18 1_555 1_555
C27 H22 1_555 1_555
C27 H23 1_555 1_555
C27 H24 1_555 1_555
C26 H25 1_555 1_555
C26 H26 1_555 1_555
C26 H27 1_555 1_555
C21 H28 1_555 1_555
Mn1 O6 1_555 1_555
O13 Mn1 1_555 1_555
O16 Mn1 1_555 1_555
O17 Mn1 1_555 1_555
O3_2 C11_2 1_555 1_555
O5_2 C11_2 1_555 1_555
O16 C5_2 1_555 1_555
O17 C5_2 1_555 1_555
H1_2 C3_2 1_555 1_555
C4_2 C3_2 1_555 1_555
C5_2 C4_2 1_555 1_555
C6_2 C4_2 1_555 1_555
H2_2 C6_2 1_555 1_555
C7_2 C6_2 1_555 1_555
H4_2 C10_2 1_555 1_555
C11_2 C13_2 1_555 1_555
C12_2 H5_2 1_555 1_555
C13_2 C12_2 1_555 1_555
C14_2 C12_2 1_555 1_555
C17_2 C13_2 1_555 1_555
H7_2 C17_2 1_555 1_555
C22_2 N4_2 1_555 1_555
C23_2 N4_2 1_555 1_555
N3_2 C10_2 1_555 1_555
Mn5 O5_2 1_555 1_555
Mn7 O3_2 1_555 1_555
C14_2 N3_2 1_555 1_555
C22_2 H10_2 1_555 1_555
C22_2 H11_2 1_555 1_555
C23_2 H19_2 1_555 1_555
C23_2 H20_2 1_555 1_555
C23_2 H21_2 1_555 1_555
Mn1_2 O6_2 1_555 1_555
O13_2 Mn1_2 1_555 1_555
O16_2 Mn1_2 1_555 1_555
O17_2 Mn1_2 1_555 1_555
Mn2_2 O1_2 1_555 1_555
O1_2 C20_2 1_555 1_555
O2_2 Mn2_2 1_555 1_555
O4_2 C18_2 1_555 1_555
O7_2 C18_2 1_555 1_555
O11_2 Mn2_2 1_555 1_555
C1_2 O9_2 1_555 1_555
C2_2 C1_2 1_555 1_555
C8_2 C2_2 1_555 1_555
H3_2 C8_2 1_555 1_555
H6_2 C15_2 1_555 1_555
C16_2 C15_2 1_555 1_555
C18_2 C16_2 1_555 1_555
C19_2 O11_2 1_555 1_555
C20_2 N5_2 1_555 1_555
C21_2 O2_2 1_555 1_555
C24_2 N5_2 1_555 1_555
C25_2 N5_2 1_555 1_555
C26_2 N6_2 1_555 1_555
C27_2 N6_2 1_555 1_555
N1_2 N2_2 1_555 1_555
N2_2 C9_2 1_555 1_555
N6_2 C21_2 1_555 1_555
Mn5_2 O4_2 1_555 1_555
Mn7_2 O7_2 1_555 1_555
O12_2 Mn2_2 1_555 1_555
O15_2 Mn2_2 1_555 1_555
Mn2_2 O9_2 1_555 1_555
C20_2 H8_2 1_555 1_555
C24_2 H12_2 1_555 1_555
C24_2 H13_2 1_555 1_555
C24_2 H14_2 1_555 1_555
C25_2 H15_2 1_555 1_555
C25_2 H16_2 1_555 1_555
C25_2 H17_2 1_555 1_555
C19_2 H18_2 1_555 1_555
C27_2 H22_2 1_555 1_555
C27_2 H23_2 1_555 1_555
C27_2 H24_2 1_555 1_555
C26_2 H25_2 1_555 1_555
C26_2 H26_2 1_555 1_555
C26_2 H27_2 1_555 1_555
C21_2 H28_2 1_555 1_555
Mn2_3 O1_3 1_555 1_555
O1_3 C20_3 1_555 1_555
O2_3 Mn2_3 1_555 1_555
O4_3 C18_3 1_555 1_555
O7_3 C18_3 1_555 1_555
O11_3 Mn2_3 1_555 1_555
C1_3 O9_3 1_555 1_555
C2_3 C1_3 1_555 1_555
C8_3 C2_3 1_555 1_555
H3_3 C8_3 1_555 1_555
H6_3 C15_3 1_555 1_555
C16_3 C15_3 1_555 1_555
C18_3 C16_3 1_555 1_555
C19_3 O11_3 1_555 1_555
C20_3 N5_3 1_555 1_555
C21_3 O2_3 1_555 1_555
C24_3 N5_3 1_555 1_555
C25_3 N5_3 1_555 1_555
C26_3 N6_3 1_555 1_555
C27_3 N6_3 1_555 1_555
N1_3 N2_3 1_555 1_555
N2_3 C9_3 1_555 1_555
N6_3 C21_3 1_555 1_555
Mn5_3 O4_3 1_555 1_555
Mn7_3 O7_3 1_555 1_555
O12_3 Mn2_3 1_555 1_555
O15_3 Mn2_3 1_555 1_555
Mn2_3 O9_3 1_555 1_555
C20_3 H8_3 1_555 1_555
C24_3 H12_3 1_555 1_555
C24_3 H13_3 1_555 1_555
C24_3 H14_3 1_555 1_555
C25_3 H15_3 1_555 1_555
C25_3 H16_3 1_555 1_555
C25_3 H17_3 1_555 1_555
C19_3 H18_3 1_555 1_555
C27_3 H22_3 1_555 1_555
C27_3 H23_3 1_555 1_555
C27_3 H24_3 1_555 1_555
C26_3 H25_3 1_555 1_555
C26_3 H26_3 1_555 1_555
C26_3 H27_3 1_555 1_555
C21_3 H28_3 1_555 1_555
Mn1_3 O6_3 1_555 1_555
O13_3 Mn1_3 1_555 1_555
O16_3 Mn1_3 1_555 1_555
O17_3 Mn1_3 1_555 1_555
O3_3 C11_3 1_555 1_555
O5_3 C11_3 1_555 1_555
O16_2 C5_3 1_555 1_555
O17_2 C5_3 1_555 1_555
H1_3 C3_3 1_555 1_555
C4_3 C3_3 1_555 1_555
C5_3 C4_3 1_555 1_555
C6_3 C4_3 1_555 1_555
H2_3 C6_3 1_555 1_555
C7_3 C6_3 1_555 1_555
H4_3 C10_3 1_555 1_555
C11_3 C13_3 1_555 1_555
C12_3 H5_3 1_555 1_555
C13_3 C12_3 1_555 1_555
C14_3 C12_3 1_555 1_555
C17_3 C13_3 1_555 1_555
H7_3 C17_3 1_555 1_555
C22_3 N4_3 1_555 1_555
C23_3 N4_3 1_555 1_555
N3_3 C10_3 1_555 1_555
Mn5_2 O5_3 1_555 1_555
Mn7_2 O3_3 1_555 1_555
C14_3 N3_3 1_555 1_555
C22_3 H10_3 1_555 1_555
C22_3 H11_3 1_555 1_555
C23_3 H19_3 1_555 1_555
C23_3 H20_3 1_555 1_555
C23_3 H21_3 1_555 1_555
Mn3 O6_4 1_555 1_555
O13_4 Mn3 1_555 1_555
Mn2_4 O1_4 1_555 1_555
O1_4 C20_4 1_555 1_555
O2_4 Mn2_4 1_555 1_555
O4_4 C18_4 1_555 1_555
O7_4 C18_4 1_555 1_555
O11_4 Mn2_4 1_555 1_555
C1_4 O9_4 1_555 1_555
C2_4 C1_4 1_555 1_555
C8_4 C2_4 1_555 1_555
H3_4 C8_4 1_555 1_555
H6_4 C15_4 1_555 1_555
C16_4 C15_4 1_555 1_555
C18_4 C16_4 1_555 1_555
C19_4 O11_4 1_555 1_555
C20_4 N5_4 1_555 1_555
C21_4 O2_4 1_555 1_555
C24_4 N5_4 1_555 1_555
C25_4 N5_4 1_555 1_555
C26_4 N6_4 1_555 1_555
C27_4 N6_4 1_555 1_555
N1_4 N2_4 1_555 1_555
N2_4 C9_4 1_555 1_555
N6_4 C21_4 1_555 1_555
Mn4 O4_4 1_555 1_555
Mn6 O7_4 1_555 1_555
O12_4 Mn2_4 1_555 1_555
O15_4 Mn2_4 1_555 1_555
Mn2_4 O9_4 1_555 1_555
C20_4 H8_4 1_555 1_555
C24_4 H12_4 1_555 1_555
C24_4 H13_4 1_555 1_555
C24_4 H14_4 1_555 1_555
C25_4 H15_4 1_555 1_555
C25_4 H16_4 1_555 1_555
C25_4 H17_4 1_555 1_555
C19_4 H18_4 1_555 1_555
C27_4 H22_4 1_555 1_555
C27_4 H23_4 1_555 1_555
C27_4 H24_4 1_555 1_555
C26_4 H25_4 1_555 1_555
C26_4 H26_4 1_555 1_555
C26_4 H27_4 1_555 1_555
C21_4 H28_4 1_555 1_555
O3_4 C11_4 1_555 1_555
O5_4 C11_4 1_555 1_555
O16_3 C5_4 1_555 1_555
O17_3 C5_4 1_555 1_555
H1_4 C3_4 1_555 1_555
C4_4 C3_4 1_555 1_555
C5_4 C4_4 1_555 1_555
C6_4 C4_4 1_555 1_555
H2_4 C6_4 1_555 1_555
C7_4 C6_4 1_555 1_555
H4_4 C10_4 1_555 1_555
C11_4 C13_4 1_555 1_555
C12_4 H5_4 1_555 1_555
C13_4 C12_4 1_555 1_555
C14_4 C12_4 1_555 1_555
C17_4 C13_4 1_555 1_555
H7_4 C17_4 1_555 1_555
C22_4 N4_4 1_555 1_555
C23_4 N4_4 1_555 1_555
N3_4 C10_4 1_555 1_555
Mn5_3 O5_4 1_555 1_555
Mn7_3 O3_4 1_555 1_555
C14_4 N3_4 1_555 1_555
C22_4 H10_4 1_555 1_555
C22_4 H11_4 1_555 1_555
C23_4 H19_4 1_555 1_555
C23_4 H20_4 1_555 1_555
C23_4 H21_4 1_555 1_555
Mn5_2 O6_5 1_555 1_555
Mn7_2 O1_5 1_555 1_555
O1_5 C20_5 1_555 1_555
O2_5 Mn7_2 1_555 1_555
O12_3 C11_5 1_555 1_555
O13_2 C18_5 1_555 1_555
O14_3 C11_5 1_555 1_555
O6_5 C1_5 1_555 1_555
O8_2 C5_5 1_555 1_555
O9_5 Mn5_2 1_555 1_555
O10_2 C5_5 1_555 1_555
O11_5 Mn7_2 1_555 1_555
C1_5 O9_5 1_555 1_555
C2_5 C1_5 1_555 1_555
C3_5 C2_5 1_555 1_555
H1_5 C3_5 1_555 1_555
C4_5 C3_5 1_555 1_555
C5_5 C4_5 1_555 1_555
C6_5 C4_5 1_555 1_555
H2_5 C6_5 1_555 1_555
C7_5 C6_5 1_555 1_555
C8_5 C2_5 1_555 1_555
H3_5 C8_5 1_555 1_555
C9_5 C7_5 1_555 1_555
C10_5 C9_5 1_555 1_555
H4_5 C10_5 1_555 1_555
C11_5 C13_5 1_555 1_555
C12_5 H5_5 1_555 1_555
C13_5 C12_5 1_555 1_555
C14_5 C12_5 1_555 1_555
C15_5 C14_5 1_555 1_555
H6_5 C15_5 1_555 1_555
C16_5 C15_5 1_555 1_555
C17_5 C13_5 1_555 1_555
H7_5 C17_5 1_555 1_555
C18_5 C16_5 1_555 1_555
C19_5 O11_5 1_555 1_555
C20_5 N5_5 1_555 1_555
C22_5 N4_5 1_555 1_555
C23_5 N4_5 1_555 1_555
C24_5 N5_5 1_555 1_555
C25_5 N5_5 1_555 1_555
N1_5 N2_5 1_555 1_555
N2_5 C9_5 1_555 1_555
N3_5 C10_5 1_555 1_555
N4_5 C19_5 1_555 1_555
Mn5_3 O8_2 1_555 1_555
O16_4 Mn5_2 1_555 1_555
O17_4 Mn5_2 1_555 1_555
Mn7_2 O9_5 1_555 1_555
O10_2 Mn5_3 1_555 1_555
C7_5 C8_5 1_555 1_555
C14_5 N3_5 1_555 1_555
C16_5 C17_5 1_555 1_555
N1_5 N3_5 1_555 1_555
C20_5 H8_5 1_555 1_555
C22_5 H9 1_555 1_555
C22_5 H10_5 1_555 1_555
C22_5 H11_5 1_555 1_555
C24_5 H12_5 1_555 1_555
C24_5 H13_5 1_555 1_555
C24_5 H14_5 1_555 1_555
C25_5 H15_5 1_555 1_555
C25_5 H16_5 1_555 1_555
C25_5 H17_5 1_555 1_555
C19_5 H18_5 1_555 1_555
C23_5 H19_5 1_555 1_555
C23_5 H20_5 1_555 1_555
C23_5 H21_5 1_555 1_555
Mn5_3 O6_6 1_555 1_555
Mn7_3 O1_6 1_555 1_555
O1_6 C20_6 1_555 1_555
O2_6 Mn7_3 1_555 1_555
O12_4 C11_6 1_555 1_555
O13_3 C18_6 1_555 1_555
O14_4 C11_6 1_555 1_555
O6_6 C1_6 1_555 1_555
O8_3 C5_6 1_555 1_555
O9_6 Mn5_3 1_555 1_555
O10_3 C5_6 1_555 1_555
O11_6 Mn7_3 1_555 1_555
C1_6 O9_6 1_555 1_555
C2_6 C1_6 1_555 1_555
C3_6 C2_6 1_555 1_555
H1_6 C3_6 1_555 1_555
C4_6 C3_6 1_555 1_555
C5_6 C4_6 1_555 1_555
C6_6 C4_6 1_555 1_555
H2_6 C6_6 1_555 1_555
C7_6 C6_6 1_555 1_555
C8_6 C2_6 1_555 1_555
H3_6 C8_6 1_555 1_555
C9_6 C7_6 1_555 1_555
C10_6 C9_6 1_555 1_555
H4_6 C10_6 1_555 1_555
C11_6 C13_6 1_555 1_555
C12_6 H5_6 1_555 1_555
C13_6 C12_6 1_555 1_555
C14_6 C12_6 1_555 1_555
C15_6 C14_6 1_555 1_555
H6_6 C15_6 1_555 1_555
C16_6 C15_6 1_555 1_555
C17_6 C13_6 1_555 1_555
H7_6 C17_6 1_555 1_555
C18_6 C16_6 1_555 1_555
C19_6 O11_6 1_555 1_555
C20_6 N5_6 1_555 1_555
C22_6 N4_6 1_555 1_555
C23_6 N4_6 1_555 1_555
C24_6 N5_6 1_555 1_555
C25_6 N5_6 1_555 1_555
N1_6 N2_6 1_555 1_555
N2_6 C9_6 1_555 1_555
N3_6 C10_6 1_555 1_555
N4_6 C19_6 1_555 1_555
Mn4 O8_3 1_555 1_555
Mn7_3 O9_6 1_555 1_555
O10_3 Mn4 1_555 1_555
C7_6 C8_6 1_555 1_555
C14_6 N3_6 1_555 1_555
C16_6 C17_6 1_555 1_555
N1_6 N3_6 1_555 1_555
C20_6 H8_6 1_555 1_555
C22_6 H9_2 1_555 1_555
C22_6 H10_6 1_555 1_555
C22_6 H11_6 1_555 1_555
C24_6 H12_6 1_555 1_555
C24_6 H13_6 1_555 1_555
C24_6 H14_6 1_555 1_555
C25_6 H15_6 1_555 1_555
C25_6 H16_6 1_555 1_555
C25_6 H17_6 1_555 1_555
C19_6 H18_6 1_555 1_555
C23_6 H19_6 1_555 1_555
C23_6 H20_6 1_555 1_555
C23_6 H21_6 1_555 1_555
Mn4 O6_7 1_555 1_555
Mn6 O1_7 1_555 1_555
O1_7 C20_7 1_555 1_555
O2_7 Mn6 1_555 1_555
O12 C11_7 1_555 1_555
O13_4 C18_7 1_555 1_555
O14 C11_7 1_555 1_555
O6_7 C1_7 1_555 1_555
O8_4 C5_7 1_555 1_555
O9_7 Mn4 1_555 1_555
O10_4 C5_7 1_555 1_555
O11_7 Mn6 1_555 1_555
C1_7 O9_7 1_555 1_555
C2_7 C1_7 1_555 1_555
C3_7 C2_7 1_555 1_555
H1_7 C3_7 1_555 1_555
C4_7 C3_7 1_555 1_555
C5_7 C4_7 1_555 1_555
C6_7 C4_7 1_555 1_555
H2_7 C6_7 1_555 1_555
C7_7 C6_7 1_555 1_555
C8_7 C2_7 1_555 1_555
H3_7 C8_7 1_555 1_555
C9_7 C7_7 1_555 1_555
C10_7 C9_7 1_555 1_555
H4_7 C10_7 1_555 1_555
C11_7 C13_7 1_555 1_555
C12_7 H5_7 1_555 1_555
C13_7 C12_7 1_555 1_555
C14_7 C12_7 1_555 1_555
C15_7 C14_7 1_555 1_555
H6_7 C15_7 1_555 1_555
C16_7 C15_7 1_555 1_555
C17_7 C13_7 1_555 1_555
H7_7 C17_7 1_555 1_555
C18_7 C16_7 1_555 1_555
C19_7 O11_7 1_555 1_555
C20_7 N5_7 1_555 1_555
C22_7 N4_7 1_555 1_555
C23_7 N4_7 1_555 1_555
C24_7 N5_7 1_555 1_555
C25_7 N5_7 1_555 1_555
N1_7 N2_7 1_555 1_555
N2_7 C9_7 1_555 1_555
N3_7 C10_7 1_555 1_555
N4_7 C19_7 1_555 1_555
Mn5 O8_4 1_555 1_555
Mn6 O9_7 1_555 1_555
O10_4 Mn5 1_555 1_555
C7_7 C8_7 1_555 1_555
C14_7 N3_7 1_555 1_555
C16_7 C17_7 1_555 1_555
N1_7 N3_7 1_555 1_555
C20_7 H8_7 1_555 1_555
C22_7 H9_3 1_555 1_555
C22_7 H10_7 1_555 1_555
C22_7 H11_7 1_555 1_555
C24_7 H12_7 1_555 1_555
C24_7 H13_7 1_555 1_555
C24_7 H14_7 1_555 1_555
C25_7 H15_7 1_555 1_555
C25_7 H16_7 1_555 1_555
C25_7 H17_7 1_555 1_555
C19_7 H18_7 1_555 1_555
C23_7 H19_7 1_555 1_555
C23_7 H20_7 1_555 1_555
C23_7 H21_7 1_555 1_555
Mn5 O6_8 1_555 1_555
Mn7 O1_8 1_555 1_555
O1_8 C20_8 1_555 1_555
O2_8 Mn7 1_555 1_555
O12_2 C11_8 1_555 1_555
O13 C18_8 1_555 1_555
O14_2 C11_8 1_555 1_555
O6_8 C1_8 1_555 1_555
O16_4 C5_8 1_555 1_555
O9_8 Mn5 1_555 1_555
O17_4 C5_8 1_555 1_555
O11_8 Mn7 1_555 1_555
C1_8 O9_8 1_555 1_555
C2_8 C1_8 1_555 1_555
C3_8 C2_8 1_555 1_555
H1_8 C3_8 1_555 1_555
C4_8 C3_8 1_555 1_555
C5_8 C4_8 1_555 1_555
C6_8 C4_8 1_555 1_555
H2_8 C6_8 1_555 1_555
C7_8 C6_8 1_555 1_555
C8_8 C2_8 1_555 1_555
H3_8 C8_8 1_555 1_555
C9_8 C7_8 1_555 1_555
C10_8 C9_8 1_555 1_555
H4_8 C10_8 1_555 1_555
C11_8 C13_8 1_555 1_555
C12_8 H5_8 1_555 1_555
C13_8 C12_8 1_555 1_555
C14_8 C12_8 1_555 1_555
C15_8 C14_8 1_555 1_555
H6_8 C15_8 1_555 1_555
C16_8 C15_8 1_555 1_555
C17_8 C13_8 1_555 1_555
H7_8 C17_8 1_555 1_555
C18_8 C16_8 1_555 1_555
C19_8 O11_8 1_555 1_555
C20_8 N5_8 1_555 1_555
C22_8 N4_8 1_555 1_555
C23_8 N4_8 1_555 1_555
C24_8 N5_8 1_555 1_555
C25_8 N5_8 1_555 1_555
N1_8 N2_8 1_555 1_555
N2_8 C9_8 1_555 1_555
N3_8 C10_8 1_555 1_555
N4_8 C19_8 1_555 1_555
Mn7 O9_8 1_555 1_555
C7_8 C8_8 1_555 1_555
C14_8 N3_8 1_555 1_555
C16_8 C17_8 1_555 1_555
N1_8 N3_8 1_555 1_555
C20_8 H8_8 1_555 1_555
C22_8 H9_4 1_555 1_555
C22_8 H10_8 1_555 1_555
C22_8 H11_8 1_555 1_555
C24_8 H12_8 1_555 1_555
C24_8 H13_8 1_555 1_555
C24_8 H14_8 1_555 1_555
C25_8 H15_8 1_555 1_555
C25_8 H16_8 1_555 1_555
C25_8 H17_8 1_555 1_555
C19_8 H18_8 1_555 1_555
C23_8 H19_8 1_555 1_555
C23_8 H20_8 1_555 1_555
C23_8 H21_8 1_555 1_555
C26_5 N6_5 1_555 1_555
C27_5 N6_5 1_555 1_555
N6_5 C21_5 1_555 1_555
C27_5 H22_5 1_555 1_555
C27_5 H23_5 1_555 1_555
C27_5 H24_5 1_555 1_555
C26_5 H25_5 1_555 1_555
C26_5 H26_5 1_555 1_555
C26_5 H27_5 1_555 1_555
C21_5 H28_5 1_555 1_555
C26_6 N6_6 1_555 1_555
C27_6 N6_6 1_555 1_555
N6_6 C21_6 1_555 1_555
C27_6 H22_6 1_555 1_555
C27_6 H23_6 1_555 1_555
C27_6 H24_6 1_555 1_555
C26_6 H25_6 1_555 1_555
C26_6 H26_6 1_555 1_555
C26_6 H27_6 1_555 1_555
C21_6 H28_6 1_555 1_555
C26_7 N6_7 1_555 1_555
C27_7 N6_7 1_555 1_555
N6_7 C21_7 1_555 1_555
C27_7 H22_7 1_555 1_555
C27_7 H23_7 1_555 1_555
C27_7 H24_7 1_555 1_555
C26_7 H25_7 1_555 1_555
C26_7 H26_7 1_555 1_555
C26_7 H27_7 1_555 1_555
C21_7 H28_7 1_555 1_555
C26_8 N6_8 1_555 1_555
C27_8 N6_8 1_555 1_555
N6_8 C21_8 1_555 1_555
C27_8 H22_8 1_555 1_555
C27_8 H23_8 1_555 1_555
C27_8 H24_8 1_555 1_555
C26_8 H25_8 1_555 1_555
C26_8 H26_8 1_555 1_555
C26_8 H27_8 1_555 1_555
C21_8 H28_8 1_555 1_555

#END
