
###############################################################################
#
# This file contains modified crystal structure data generated from the
# MOF subset of the Cambridge Structural Database (CSD) v543 
# hosted by the Cambridge Crystallographic Data Centre (CCDC).
#
# This work is licensed under the Creative Commons
# Attribution-NonCommercial-ShareAlike 4.0 International License.
# To view a copy of this license, visit
# http://creativecommons.org/licenses/by-nc-sa/4.0/
# or send a letter to
# Creative Commons, PO Box 1866, Mountain View, CA 94042, USA.
#
# CIF created using the CSD Python API on 29 September 2022
# The structure has been converted into the P1 space group
# The structure has a 3D framework
# The original CSD entry ZOHBIJ is in the monoclinic crystal system
# The framework has been calculated to contain at least 10.0% void space
# The void calculation uses a probe of radius 1.32A, grid spacing 0.4
#
###############################################################################

data_ZOHBIJ
_chemical_formula_moiety         '(C36 H44 Eu4 N4 O36)n'
_symmetry_cell_setting           triclinic
_symmetry_space_group_name_H-M   'P 1'
_symmetry_Int_Tables_number      1
_space_group_name_Hall           'P 1'
loop_
_symmetry_equiv_pos_site_id
_symmetry_equiv_pos_as_xyz
1 x,y,z
_cell_length_a                   15.9131(14)
_cell_length_b                   13.5396(11)
_cell_length_c                   6.6475(6)
_cell_angle_alpha                90
_cell_angle_beta                 97.6620(10)
_cell_angle_gamma                90
_cell_volume                     1419.46
loop_
_atom_site_label
_atom_site_type_symbol
_atom_site_fract_x
_atom_site_fract_y
_atom_site_fract_z
Eu1 Eu 0.250875(17) 0.06030(2) 0.46874(4)
C8 C 0.1009(4) 0.0496(5) 0.1700(11)
C9 C 0.0214(5) 0.0476(5) 0.0122(14)
O6 O 0.1516(3) 0.1184(4) 0.1565(9)
O8 O 0.3073(3) 0.0236(3) 0.1415(6)
H8 H 0.3596 0.0089 0.1667
H9 H 0.3014 0.0722 0.0675
O9 O 0.1469(3) 0.1816(4) 0.5778(10)
H10 H 0.1330 0.1636 0.6914
H11 H 0.1024 0.1826 0.4915
O19 O 0.3193(2) 0.1373(3) 0.7886(6)
O22 O 0.3202(3) 0.2036(3) 0.3675(7)
Eu4 Eu 0.749125(17) 0.56030(2) 0.03126(4)
C1 C 0.3582(3) 0.8868(4) 0.5200(8)
C2 C 0.4134(3) 0.7962(4) 0.5551(7)
C3 C 0.3767(3) 0.7028(4) 0.5520(8)
H1 H 0.3179 0.6986 0.5250
C4 C 0.5049(3) 0.6265(4) 0.6200(7)
H2 H 0.5364 0.5688 0.6431
C5 C 0.5482(3) 0.7157(4) 0.6235(7)
C6 C 0.5010(3) 0.8027(4) 0.5924(7)
H3 H 0.5278 0.8638 0.5968
C7 C 0.6438(3) 0.7171(4) 0.6605(7)
N1 N 0.4204(3) 0.6189(3) 0.5853(7)
O1 O 0.3891(3) 0.9699(3) 0.5617(6)
O2 O 0.2817(2) 0.8758(3) 0.4481(6)
O3 O 0.6807(2) 0.6373(3) 0.7114(6)
O4 O 0.6798(3) 0.7964(3) 0.6325(7)
O5 O 0.1128(3) 0.9880(3) 0.3095(8)
O7 O 0.1994(3) 0.9707(3) 0.7597(6)
H6 H 0.1525 0.9955 0.7823
H7 H 0.2350 0.9778 0.8658
Eu5 Eu 0.749125(17) 0.93970(2) 0.53126(4)
O10 O 0.8872(3) 0.0120(3) 0.6905(8)
C12 C 0.6418(3) 0.1132(4) 0.4800(8)
C13 C 0.5866(3) 0.2038(4) 0.4449(7)
C14 C 0.6233(3) 0.2972(4) 0.4480(8)
H14 H 0.6821 0.3014 0.4750
C15 C 0.4951(3) 0.3735(4) 0.3800(7)
H15 H 0.4636 0.4312 0.3569
C16 C 0.4518(3) 0.2843(4) 0.3765(7)
C17 C 0.4990(3) 0.1973(4) 0.4076(7)
H16 H 0.4722 0.1362 0.4032
C18 C 0.3562(3) 0.2829(4) 0.3395(7)
N2 N 0.5796(3) 0.3811(3) 0.4147(7)
O12 O 0.6109(3) 0.0301(3) 0.4383(6)
O13 O 0.7183(2) 0.1242(3) 0.5519(6)
O14 O 0.3193(2) 0.3627(3) 0.2886(6)
O16 O 0.8006(3) 0.0293(3) 0.2403(6)
H17 H 0.8475 0.0045 0.2177
H18 H 0.7650 0.0222 0.1342
Eu6 Eu 0.250875(17) 0.43970(2) 0.96874(4)
C10 C 0.8991(4) 0.9504(5) 0.8300(11)
C11 C 0.9786(5) 0.9524(5) 0.9878(14)
O11 O 0.8484(3) 0.8816(4) 0.8435(9)
O17 O 0.6927(3) 0.9764(3) 0.8585(6)
H19 H 0.6404 0.9911 0.8333
H20 H 0.6986 0.9278 0.9325
O18 O 0.8531(3) 0.8184(4) 0.4222(10)
H21 H 0.8670 0.8364 0.3086
H22 H 0.8976 0.8174 0.5085
O20 O 0.6807(2) 0.8627(3) 0.2114(6)
C12_2 C 0.3582(3) 0.6132(4) 0.0200(8)
C13_2 C 0.4134(3) 0.7038(4) 0.0551(7)
C14_2 C 0.3767(3) 0.7972(4) 0.0520(8)
H14_2 H 0.3179 0.8014 0.0250
C15_2 C 0.5049(3) 0.8735(4) 0.1200(7)
H15_2 H 0.5364 0.9312 0.1431
C16_2 C 0.5482(3) 0.7843(4) 0.1235(7)
C17_2 C 0.5010(3) 0.6973(4) 0.0924(7)
H16_2 H 0.5278 0.6362 0.0968
C18_2 C 0.6438(3) 0.7829(4) 0.1605(7)
N2_2 N 0.4204(3) 0.8811(3) 0.0853(7)
O12_2 O 0.3891(3) 0.5301(3) 0.0617(6)
O15 O 0.6798(3) 0.7036(3) 0.1325(7)
O16_2 O 0.1994(3) 0.5293(3) 0.2597(6)
H17_2 H 0.1525 0.5045 0.2823
H18_2 H 0.2350 0.5222 0.3658
O18_2 O 0.1469(3) 0.3184(4) 0.0778(10)
H21_2 H 0.1330 0.3364 0.1914
H4 H 0.0184 0.5962 0.4496
C10_2 C 0.1009(4) 0.4504(5) 0.6700(11)
C11_2 C 0.0214(5) 0.4524(5) 0.5122(14)
H13 H 0.0371 0.4326 0.3821
O10_2 O 0.1128(3) 0.5120(3) 0.8095(8)
O11_2 O 0.1516(3) 0.3816(4) 0.6565(9)
O13_2 O 0.2817(2) 0.6242(3) 0.9481(6)
O17_2 O 0.3073(3) 0.4764(3) 0.6415(6)
H19_2 H 0.3596 0.4911 0.6667
H20_2 H 0.3014 0.4278 0.5675
H22_2 H 0.1024 0.3174 0.9915
O21 O 0.3202(3) 0.2964(3) 0.8675(7)
C8_2 C 0.8991(4) 0.5496(5) 0.3300(11)
C9_2 C 0.9786(5) 0.5476(5) 0.4878(14)
H5 H 0.9629 0.5674 0.6179
O2_2 O 0.7183(2) 0.3758(3) 0.0519(6)
O5_2 O 0.8872(3) 0.4880(3) 0.1905(8)
O6_2 O 0.8484(3) 0.6184(4) 0.3435(9)
O8_2 O 0.6927(3) 0.5236(3) 0.3585(6)
H8_2 H 0.6404 0.5089 0.3333
H9_2 H 0.6986 0.5722 0.4325
H11_2 H 0.8976 0.6826 0.0085
H12 H 0.9816 0.4038 0.5504
C1_2 C 0.6418(3) 0.3868(4) 0.9800(8)
C2_2 C 0.5866(3) 0.2962(4) 0.9449(7)
C3_2 C 0.6233(3) 0.2028(4) 0.9480(8)
H1_2 H 0.6821 0.1986 0.9750
C4_2 C 0.4951(3) 0.1265(4) 0.8800(7)
H2_2 H 0.4636 0.0688 0.8569
C5_2 C 0.4518(3) 0.2157(4) 0.8765(7)
C6_2 C 0.4990(3) 0.3027(4) 0.9076(7)
H3_2 H 0.4722 0.3638 0.9032
C7_2 C 0.3562(3) 0.2171(4) 0.8395(7)
N1_2 N 0.5796(3) 0.1189(3) 0.9147(7)
O1_2 O 0.6109(3) 0.4699(3) 0.9383(6)
O7_2 O 0.8006(3) 0.4707(3) 0.7403(6)
H6_2 H 0.8475 0.4955 0.7177
H7_2 H 0.7650 0.4778 0.6342
O9_2 O 0.8531(3) 0.6816(4) 0.9222(10)
H10_2 H 0.8670 0.6636 0.8086
H5_2 H 0.0371 0.0674 0.8821
H12_2 H 0.0184 0.9038 0.9496
H4_2 H 0.9816 0.0962 0.0504
H13_2 H 0.9629 0.9326 0.1179
loop_
_geom_bond_atom_site_label_1
_geom_bond_atom_site_label_2
_geom_bond_site_symmetry_1
_geom_bond_site_symmetry_2
C8 C9 1_555 1_555
O6 Eu1 1_555 1_555
O8 Eu1 1_555 1_555
H8 O8 1_555 1_555
H9 O8 1_555 1_555
O9 Eu1 1_555 1_555
H10 O9 1_555 1_555
H11 O9 1_555 1_555
O19 Eu1 1_555 1_555
O22 Eu1 1_555 1_555
C8 O6 1_555 1_555
C1 C2 1_555 1_555
C2 C3 1_555 1_555
C3 H1 1_555 1_555
C4 H2 1_555 1_555
C5 C4 1_555 1_555
C6 C2 1_555 1_555
H3 C6 1_555 1_555
C7 C5 1_555 1_555
N1 C3 1_555 1_555
O1 C1 1_555 1_555
O3 C7 1_555 1_555
O4 C7 1_555 1_555
H6 O7 1_555 1_555
H7 O7 1_555 1_555
Eu5 O4 1_555 1_555
C1 O2 1_555 1_555
C4 N1 1_555 1_555
C5 C6 1_555 1_555
C12 C13 1_555 1_555
C13 C14 1_555 1_555
C14 H14 1_555 1_555
C15 H15 1_555 1_555
C16 C15 1_555 1_555
C17 C13 1_555 1_555
H16 C17 1_555 1_555
C18 C16 1_555 1_555
N2 C14 1_555 1_555
O14 C18 1_555 1_555
O22 C18 1_555 1_555
H17 O16 1_555 1_555
H18 O16 1_555 1_555
C12 O12 1_555 1_555
C12 O13 1_555 1_555
C15 N2 1_555 1_555
C16 C17 1_555 1_555
C10 C11 1_555 1_555
O11 C10 1_555 1_555
O17 Eu5 1_555 1_555
H19 O17 1_555 1_555
H20 O17 1_555 1_555
O18 Eu5 1_555 1_555
H21 O18 1_555 1_555
H22 O18 1_555 1_555
O20 Eu5 1_555 1_555
O11 Eu5 1_555 1_555
C12_2 C13_2 1_555 1_555
C13_2 C14_2 1_555 1_555
C14_2 H14_2 1_555 1_555
C15_2 H15_2 1_555 1_555
C16_2 C15_2 1_555 1_555
C17_2 C13_2 1_555 1_555
H16_2 C17_2 1_555 1_555
C18_2 C16_2 1_555 1_555
N2_2 C14_2 1_555 1_555
O20 C18_2 1_555 1_555
O15 C18_2 1_555 1_555
H17_2 O16_2 1_555 1_555
H18_2 O16_2 1_555 1_555
H21_2 O18_2 1_555 1_555
Eu4 O15 1_555 1_555
C12_2 O12_2 1_555 1_555
C15_2 N2_2 1_555 1_555
C16_2 C17_2 1_555 1_555
C10_2 C11_2 1_555 1_555
H13 C11_2 1_555 1_555
O10_2 C10_2 1_555 1_555
O11_2 C10_2 1_555 1_555
Eu6 O10_2 1_555 1_555
O13_2 Eu6 1_555 1_555
O17_2 Eu6 1_555 1_555
H19_2 O17_2 1_555 1_555
H20_2 O17_2 1_555 1_555
O21 Eu6 1_555 1_555
O11_2 Eu6 1_555 1_555
C8_2 C9_2 1_555 1_555
H5 C9_2 1_555 1_555
O2_2 Eu4 1_555 1_555
O5_2 Eu4 1_555 1_555
O6_2 Eu4 1_555 1_555
O8_2 Eu4 1_555 1_555
H8_2 O8_2 1_555 1_555
H9_2 O8_2 1_555 1_555
C8_2 O5_2 1_555 1_555
C8_2 O6_2 1_555 1_555
C1_2 C2_2 1_555 1_555
C2_2 C3_2 1_555 1_555
C3_2 H1_2 1_555 1_555
C4_2 H2_2 1_555 1_555
C5_2 C4_2 1_555 1_555
C6_2 C2_2 1_555 1_555
H3_2 C6_2 1_555 1_555
C7_2 C5_2 1_555 1_555
N1_2 C3_2 1_555 1_555
O1_2 C1_2 1_555 1_555
O19 C7_2 1_555 1_555
O21 C7_2 1_555 1_555
H6_2 O7_2 1_555 1_555
H7_2 O7_2 1_555 1_555
H10_2 O9_2 1_555 1_555
C4_2 N1_2 1_555 1_555
C5_2 C6_2 1_555 1_555

#END
