
###############################################################################
#
# This file contains modified crystal structure data generated from the
# MOF subset of the Cambridge Structural Database (CSD) v543 
# hosted by the Cambridge Crystallographic Data Centre (CCDC).
#
# This work is licensed under the Creative Commons
# Attribution-NonCommercial-ShareAlike 4.0 International License.
# To view a copy of this license, visit
# http://creativecommons.org/licenses/by-nc-sa/4.0/
# or send a letter to
# Creative Commons, PO Box 1866, Mountain View, CA 94042, USA.
#
# CIF created using the CSD Python API on 29 September 2022
# The structure has been converted into the P1 space group
# The structure has a 3D framework
# The original CSD entry ZOHBOP is in the monoclinic crystal system
# The framework has been calculated to contain at least 10.0% void space
# The void calculation uses a probe of radius 1.32A, grid spacing 0.4
#
###############################################################################

data_ZOHBOP
_chemical_formula_moiety         '(C36 H44 N4 O34 Tb4)n'
_symmetry_cell_setting           triclinic
_symmetry_space_group_name_H-M   'P 1'
_symmetry_Int_Tables_number      1
_space_group_name_Hall           'P 1'
loop_
_symmetry_equiv_pos_site_id
_symmetry_equiv_pos_as_xyz
1 x,y,z
_cell_length_a                   15.8734(12)
_cell_length_b                   13.4525(10)
_cell_length_c                   6.6309(5)
_cell_angle_alpha                90
_cell_angle_beta                 97.8620(10)
_cell_angle_gamma                90
_cell_volume                     1402.63
loop_
_atom_site_label
_atom_site_type_symbol
_atom_site_fract_x
_atom_site_fract_y
_atom_site_fract_z
H4 H 0.2785 0.0237 0.0809
O6 O 0.2009(2) 0.0271(3) 0.7541(5)
H5 H 0.1541 0.0016 0.7767
H6 H 0.1937 0.0886 0.7282
O9 O 0.11453(19) 0.0114(2) 0.3073(6)
Tb5 Tb 0.748823(11) 0.060801(13) 0.53495(3)
O22 O 0.28079(17) 0.1235(2) 0.4447(5)
O24 O 0.38960(18) 0.0283(2) 0.5585(5)
Tb1 Tb 0.251177(11) 0.939199(13) 0.46505(3)
O1 O 0.31965(18) 0.7967(2) 0.3655(5)
O2 O 0.1476(2) 0.8211(3) 0.5770(8)
H1 H 0.1025 0.8209 0.4917
H2 H 0.1348 0.8394 0.6917
O3 O 0.31887(17) 0.6373(2) 0.2840(4)
O4 O 0.3061(2) 0.9754(2) 0.1402(5)
H3 H 0.3582 0.9920 0.1643
O5 O 0.71921(17) 0.8765(2) 0.5553(5)
O7 O 0.61040(18) 0.9717(2) 0.4415(5)
O8 O 0.1527(2) 0.8793(3) 0.1537(7)
N1 N 0.5798(2) 0.6190(2) 0.4163(5)
C1 C 0.3562(2) 0.7170(3) 0.3376(5)
C2 C 0.4521(2) 0.7164(3) 0.3762(5)
C3 C 0.4954(2) 0.6259(3) 0.3795(5)
H7 H 0.4639 0.5679 0.3548
C4 C 0.6239(2) 0.7032(3) 0.4510(6)
H8 H 0.6827 0.6988 0.4802
C5 C 0.5871(2) 0.7966(3) 0.4460(5)
C6 C 0.4990(2) 0.8031(3) 0.4082(5)
H9 H 0.4720 0.8646 0.4043
C7 C 0.6424(2) 0.8880(3) 0.4824(6)
C8 C 0.1007(3) 0.9486(3) 0.1672(8)
C9 C 0.0219(4) 0.9519(4) 0.0106(10)
O20 O 0.31887(17) 0.8627(2) 0.7840(4)
H10 H 0.0379 0.9336 0.8794
Tb6 Tb 0.251177(11) 0.560801(13) 0.96505(3)
H12 H 0.9621 0.0664 0.1206
Tb4 Tb 0.748823(11) 0.439199(13) 0.03495(3)
O10 O 0.8473(2) 0.1207(3) 0.8463(7)
C10 C 0.8993(3) 0.0514(3) 0.8328(8)
C11 C 0.9781(4) 0.0481(4) 0.9894(10)
O12 O 0.68035(18) 0.2033(2) 0.6345(5)
O13 O 0.8524(2) 0.1789(3) 0.4230(8)
H14 H 0.8975 0.1791 0.5083
H15 H 0.8652 0.1606 0.3083
O14 O 0.68113(17) 0.3627(2) 0.7160(4)
O15 O 0.6939(2) 0.0246(2) 0.8598(5)
H16 H 0.6418 0.0080 0.8357
N2 N 0.4202(2) 0.3810(2) 0.5837(5)
C12 C 0.6438(2) 0.2830(3) 0.6624(5)
C13 C 0.5479(2) 0.2836(3) 0.6238(5)
C14 C 0.5046(2) 0.3741(3) 0.6205(5)
H20 H 0.5361 0.4321 0.6452
C15 C 0.3761(2) 0.2968(3) 0.5490(6)
H21 H 0.3173 0.3012 0.5198
C16 C 0.4129(2) 0.2034(3) 0.5540(5)
C17 C 0.5010(2) 0.1969(3) 0.5918(5)
H22 H 0.5280 0.1354 0.5957
C18 C 0.3576(2) 0.1120(3) 0.5176(6)
O19 O 0.68113(17) 0.1373(2) 0.2160(4)
O11 O 0.88547(19) 0.9886(2) 0.6927(6)
H17 H 0.7215 0.9763 0.9191
O17 O 0.7991(2) 0.9729(3) 0.2459(5)
H18 H 0.8459 0.9984 0.2233
H19 H 0.8063 0.9114 0.2718
O13_2 O 0.1476(2) 0.6789(3) 0.0770(8)
H15_2 H 0.1348 0.6606 0.1917
O16 O 0.71921(17) 0.6235(2) 0.0553(5)
O17_2 O 0.2009(2) 0.4729(3) 0.2541(5)
H18_2 H 0.1541 0.4984 0.2767
H19_2 H 0.1937 0.4114 0.2282
O23 O 0.38960(18) 0.4717(2) 0.0585(5)
H11 H 0.0177 0.4021 0.4539
O10_2 O 0.1527(2) 0.6207(3) 0.6537(7)
O11_2 O 0.11453(19) 0.4886(2) 0.8073(6)
C10_2 C 0.1007(3) 0.5514(3) 0.6672(8)
C11_2 C 0.0219(4) 0.5481(4) 0.5106(10)
H12_2 H 0.0379 0.5664 0.3794
O12_2 O 0.31965(18) 0.7033(2) 0.8655(5)
H14_2 H 0.1025 0.6791 0.9917
O15_2 O 0.3061(2) 0.5246(2) 0.6402(5)
H16_2 H 0.3582 0.5080 0.6643
H17_2 H 0.2785 0.4763 0.5809
O18 O 0.61040(18) 0.5283(2) 0.9415(5)
N2_2 N 0.5798(2) 0.8810(2) 0.9163(5)
C12_2 C 0.3562(2) 0.7830(3) 0.8376(5)
C13_2 C 0.4521(2) 0.7836(3) 0.8762(5)
C14_2 C 0.4954(2) 0.8741(3) 0.8795(5)
H20_2 H 0.4639 0.9321 0.8548
C15_2 C 0.6239(2) 0.7968(3) 0.9510(6)
H21_2 H 0.6827 0.8012 0.9802
C16_2 C 0.5871(2) 0.7034(3) 0.9460(5)
C17_2 C 0.4990(2) 0.6969(3) 0.9082(5)
H22_2 H 0.4720 0.6354 0.9043
C18_2 C 0.6424(2) 0.6120(3) 0.9824(6)
O21 O 0.28079(17) 0.3765(2) 0.9447(5)
O1_2 O 0.68035(18) 0.2967(2) 0.1345(5)
H1_2 H 0.8975 0.3209 0.0083
O4_2 O 0.6939(2) 0.4754(2) 0.3598(5)
H3_2 H 0.6418 0.4920 0.3357
H4_2 H 0.7215 0.5237 0.4191
O8_2 O 0.8473(2) 0.3793(3) 0.3463(7)
O9_2 O 0.88547(19) 0.5114(2) 0.1927(6)
N1_2 N 0.4202(2) 0.1190(2) 0.0837(5)
C1_2 C 0.6438(2) 0.2170(3) 0.1624(5)
C2_2 C 0.5479(2) 0.2164(3) 0.1238(5)
C3_2 C 0.5046(2) 0.1259(3) 0.1205(5)
H7_2 H 0.5361 0.0679 0.1452
C4_2 C 0.3761(2) 0.2032(3) 0.0490(6)
H8_2 H 0.3173 0.1988 0.0198
C5_2 C 0.4129(2) 0.2966(3) 0.0540(5)
C6_2 C 0.5010(2) 0.3031(3) 0.0918(5)
H9_2 H 0.5280 0.3646 0.0957
C7_2 C 0.3576(2) 0.3880(3) 0.0176(6)
C8_2 C 0.8993(3) 0.4486(3) 0.3328(8)
C9_2 C 0.9781(4) 0.4519(4) 0.4894(10)
H10_2 H 0.9621 0.4336 0.6206
H13 H 0.9823 0.5979 0.5461
O2_2 O 0.8524(2) 0.3211(3) 0.9230(8)
H2_2 H 0.8652 0.3394 0.8083
O6_2 O 0.7991(2) 0.5271(3) 0.7459(5)
H5_2 H 0.8459 0.5016 0.7233
H6_2 H 0.8063 0.5886 0.7718
H13_2 H 0.0177 0.0979 0.9539
H11_2 H 0.9823 0.9021 0.0461
loop_
_geom_bond_atom_site_label_1
_geom_bond_atom_site_label_2
_geom_bond_site_symmetry_1
_geom_bond_site_symmetry_2
H5 O6 1_555 1_555
H6 O6 1_555 1_555
Tb1 O1 1_555 1_555
O1 C1 1_555 1_555
O2 Tb1 1_555 1_555
H1 O2 1_555 1_555
H2 O2 1_555 1_555
O3 C1 1_555 1_555
O4 Tb1 1_555 1_555
H3 O4 1_555 1_555
O5 C7 1_555 1_555
O7 C7 1_555 1_555
O8 Tb1 1_555 1_555
N1 C3 1_555 1_555
C1 C2 1_555 1_555
C2 C3 1_555 1_555
C3 H7 1_555 1_555
C4 N1 1_555 1_555
H8 C4 1_555 1_555
C5 C4 1_555 1_555
C6 C2 1_555 1_555
H9 C6 1_555 1_555
C7 C5 1_555 1_555
C8 O8 1_555 1_555
C9 C8 1_555 1_555
O20 Tb1 1_555 1_555
C5 C6 1_555 1_555
O10 C10 1_555 1_555
C10 C11 1_555 1_555
Tb5 O10 1_555 1_555
O12 Tb5 1_555 1_555
O13 Tb5 1_555 1_555
H14 O13 1_555 1_555
H15 O13 1_555 1_555
O14 C12 1_555 1_555
O15 Tb5 1_555 1_555
H16 O15 1_555 1_555
O22 C18 1_555 1_555
O24 C18 1_555 1_555
N2 C14 1_555 1_555
C12 O12 1_555 1_555
C13 C12 1_555 1_555
C14 C13 1_555 1_555
H20 C14 1_555 1_555
C15 N2 1_555 1_555
H21 C15 1_555 1_555
C16 C15 1_555 1_555
C17 C13 1_555 1_555
H22 C17 1_555 1_555
C18 C16 1_555 1_555
O19 Tb5 1_555 1_555
C16 C17 1_555 1_555
H18 O17 1_555 1_555
H19 O17 1_555 1_555
H15_2 O13_2 1_555 1_555
H18_2 O17_2 1_555 1_555
H19_2 O17_2 1_555 1_555
Tb4 O16 1_555 1_555
O10_2 C10_2 1_555 1_555
O11_2 C10_2 1_555 1_555
C10_2 C11_2 1_555 1_555
H12_2 C11_2 1_555 1_555
Tb6 O10_2 1_555 1_555
O12_2 Tb6 1_555 1_555
O20 C12_2 1_555 1_555
O15_2 Tb6 1_555 1_555
H16_2 O15_2 1_555 1_555
H17_2 O15_2 1_555 1_555
O18 C18_2 1_555 1_555
N2_2 C14_2 1_555 1_555
C12_2 O12_2 1_555 1_555
C13_2 C12_2 1_555 1_555
C14_2 C13_2 1_555 1_555
H20_2 C14_2 1_555 1_555
C15_2 N2_2 1_555 1_555
H21_2 C15_2 1_555 1_555
C16_2 C15_2 1_555 1_555
C17_2 C13_2 1_555 1_555
H22_2 C17_2 1_555 1_555
C18_2 C16_2 1_555 1_555
O21 Tb6 1_555 1_555
O11_2 Tb6 1_555 1_555
C16_2 C17_2 1_555 1_555
Tb4 O1_2 1_555 1_555
O1_2 C1_2 1_555 1_555
O19 C1_2 1_555 1_555
O4_2 Tb4 1_555 1_555
H3_2 O4_2 1_555 1_555
H4_2 O4_2 1_555 1_555
O23 C7_2 1_555 1_555
O8_2 Tb4 1_555 1_555
O9_2 Tb4 1_555 1_555
N1_2 C3_2 1_555 1_555
C1_2 C2_2 1_555 1_555
C2_2 C3_2 1_555 1_555
C3_2 H7_2 1_555 1_555
C4_2 N1_2 1_555 1_555
H8_2 C4_2 1_555 1_555
C5_2 C4_2 1_555 1_555
C6_2 C2_2 1_555 1_555
H9_2 C6_2 1_555 1_555
C7_2 C5_2 1_555 1_555
C8_2 O8_2 1_555 1_555
C9_2 C8_2 1_555 1_555
H10_2 C9_2 1_555 1_555
O9_2 C8_2 1_555 1_555
C5_2 C6_2 1_555 1_555
H2_2 O2_2 1_555 1_555
H5_2 O6_2 1_555 1_555
H6_2 O6_2 1_555 1_555

#END
