
###############################################################################
#
# This file contains modified crystal structure data generated from the
# MOF subset of the Cambridge Structural Database (CSD) v543 
# hosted by the Cambridge Crystallographic Data Centre (CCDC).
#
# This work is licensed under the Creative Commons
# Attribution-NonCommercial-ShareAlike 4.0 International License.
# To view a copy of this license, visit
# http://creativecommons.org/licenses/by-nc-sa/4.0/
# or send a letter to
# Creative Commons, PO Box 1866, Mountain View, CA 94042, USA.
#
# CIF created using the CSD Python API on 29 September 2022
# The structure has been converted into the P1 space group
# The structure has a 3D framework
# The original CSD entry ZOHBEF is in the monoclinic crystal system
# The framework has been calculated to contain at least 10.0% void space
# The void calculation uses a probe of radius 1.32A, grid spacing 0.4
#
###############################################################################

data_ZOHBEF
_chemical_formula_moiety         '(C36 H44 N4 O36 Pr4)n'
_symmetry_cell_setting           triclinic
_symmetry_space_group_name_H-M   'P 1'
_symmetry_Int_Tables_number      1
_space_group_name_Hall           'P 1'
loop_
_symmetry_equiv_pos_site_id
_symmetry_equiv_pos_as_xyz
1 x,y,z
_cell_length_a                   15.930(6)
_cell_length_b                   13.588(5)
_cell_length_c                   6.663(2)
_cell_angle_alpha                90
_cell_angle_beta                 97.392(5)
_cell_angle_gamma                90
_cell_volume                     1430.27
loop_
_atom_site_label
_atom_site_type_symbol
_atom_site_fract_x
_atom_site_fract_y
_atom_site_fract_z
C12 C 0.3567(5) 0.2161(6) 0.3425(12)
C13 C 0.4515(5) 0.2166(6) 0.3770(12)
C14 C 0.4944(5) 0.1262(6) 0.3789(12)
H14 H 0.4630 0.0688 0.3547
C15 C 0.6232(5) 0.2025(6) 0.4448(13)
H15 H 0.6819 0.1978 0.4691
C16 C 0.5864(5) 0.2958(6) 0.4422(12)
C17 C 0.4993(5) 0.3028(6) 0.4070(12)
H16 H 0.4729 0.3639 0.4032
C18 C 0.6423(5) 0.3856(6) 0.4782(13)
N2 N 0.5784(4) 0.1195(5) 0.4140(10)
O12 O 0.3194(4) 0.1380(4) 0.2901(9)
O13 O 0.3204(4) 0.2956(4) 0.3667(11)
O14 O 0.7187(4) 0.3755(4) 0.5495(10)
O15 O 0.6102(4) 0.4691(4) 0.4370(10)
O18 O 0.1443(5) 0.1830(6) 0.0756(16)
H21 H 0.1663 0.2376 0.0886
H22 H 0.1286 0.1650 0.1871
Pr4 Pr 0.25055(3) 0.44004(3) 0.47139(7)
Pr6 Pr 0.74945(3) 0.55996(3) 0.52861(7)
C10 C 0.1007(8) 0.0476(8) 0.6710(19)
C11 C 0.0187(8) 0.0461(7) 0.511(2)
H12 H 0.0335 0.0675 0.3812
O11 O 0.1510(5) 0.1170(7) 0.6606(15)
Pr2 Pr 0.25055(3) 0.05996(3) 0.97139(7)
O16 O 0.3084(5) 0.0229(5) 0.6438(10)
H17 H 0.3019 0.0709 0.5689
H18 H 0.3607 0.0092 0.6694
O19 O 0.3204(4) 0.2044(4) 0.8667(11)
O17 O 0.1976(5) 0.9720(5) 0.2638(10)
H19 H 0.1914 0.9133 0.2371
H20 H 0.2333 0.9791 0.3691
O24 O 0.3898(4) 0.9691(4) 0.0630(10)
O8 O 0.8024(5) 0.0280(5) 0.7362(10)
H8 H 0.8086 0.0867 0.7629
H9 H 0.7667 0.0209 0.6309
O23 O 0.6102(4) 0.0309(4) 0.9370(10)
Pr1 Pr 0.74945(3) 0.94004(3) 0.02861(7)
C8 C 0.8993(8) 0.9524(8) 0.3290(19)
C9 C 0.9813(8) 0.9539(7) 0.489(2)
H4 H 0.9665 0.9325 0.6188
O6 O 0.8490(5) 0.8830(7) 0.3394(15)
O7 O 0.6916(5) 0.9771(5) 0.3562(10)
H6 H 0.6981 0.9291 0.4311
H7 H 0.6393 0.9908 0.3306
O20 O 0.6796(4) 0.7956(4) 0.1333(11)
C1 C 0.6433(5) 0.7839(6) 0.6575(12)
C2 C 0.5485(5) 0.7834(6) 0.6230(12)
C3 C 0.5056(5) 0.8738(6) 0.6211(12)
H1 H 0.5370 0.9312 0.6453
C4 C 0.3768(5) 0.7975(6) 0.5552(13)
H2 H 0.3181 0.8022 0.5309
C5 C 0.4136(5) 0.7042(6) 0.5578(12)
C6 C 0.5007(5) 0.6972(6) 0.5930(12)
H3 H 0.5271 0.6361 0.5968
C7 C 0.3577(5) 0.6144(6) 0.5218(13)
N1 N 0.4216(4) 0.8805(5) 0.5860(10)
O1 O 0.6806(4) 0.8620(4) 0.7099(9)
O2 O 0.6796(4) 0.7044(4) 0.6333(11)
O3 O 0.2813(4) 0.6245(4) 0.4505(10)
O4 O 0.3898(4) 0.5309(4) 0.5630(10)
O9 O 0.8557(5) 0.8170(6) 0.9244(16)
H10 H 0.8337 0.7624 0.9114
H11 H 0.8714 0.8350 0.8129
C1_2 C 0.3567(5) 0.2839(6) 0.8425(12)
C2_2 C 0.4515(5) 0.2834(6) 0.8770(12)
C3_2 C 0.4944(5) 0.3738(6) 0.8789(12)
H1_2 H 0.4630 0.4312 0.8547
C4_2 C 0.6232(5) 0.2975(6) 0.9448(13)
H2_2 H 0.6819 0.3022 0.9691
C5_2 C 0.5864(5) 0.2042(6) 0.9422(12)
C6_2 C 0.4993(5) 0.1972(6) 0.9070(12)
H3_2 H 0.4729 0.1361 0.9032
C7_2 C 0.6423(5) 0.1144(6) 0.9782(13)
C8_2 C 0.1007(8) 0.4524(8) 0.1710(19)
C9_2 C 0.0187(8) 0.4539(7) 0.011(2)
N1_2 N 0.5784(4) 0.3805(5) 0.9140(10)
O1_2 O 0.3194(4) 0.3620(4) 0.7901(9)
O5 O 0.1114(4) 0.5133(5) 0.3150(13)
O6_2 O 0.1510(5) 0.3830(7) 0.1606(15)
O7_2 O 0.3084(5) 0.4771(5) 0.1438(10)
H6_2 H 0.3019 0.4291 0.0689
H7_2 H 0.3607 0.4908 0.1694
O8_2 O 0.1976(5) 0.5280(5) 0.7638(10)
H8_2 H 0.1914 0.5867 0.7371
H9_2 H 0.2333 0.5209 0.8691
O9_2 O 0.1443(5) 0.3170(6) 0.5756(16)
H10_2 H 0.1663 0.2624 0.5886
H11_2 H 0.1286 0.3350 0.6871
C10_2 C 0.8993(8) 0.5476(8) 0.8290(19)
C11_2 C 0.9813(8) 0.5461(7) 0.989(2)
O10 O 0.8886(4) 0.4867(5) 0.6850(13)
O11_2 O 0.8490(5) 0.6170(7) 0.8394(15)
C12_2 C 0.6433(5) 0.7161(6) 0.1575(12)
C13_2 C 0.5485(5) 0.7166(6) 0.1230(12)
C14_2 C 0.5056(5) 0.6262(6) 0.1211(12)
H14_2 H 0.5370 0.5688 0.1453
C15_2 C 0.3768(5) 0.7025(6) 0.0552(13)
H15_2 H 0.3181 0.6978 0.0309
C16_2 C 0.4136(5) 0.7958(6) 0.0578(12)
C17_2 C 0.5007(5) 0.8028(6) 0.0930(12)
H16_2 H 0.5271 0.8639 0.0968
C18_2 C 0.3577(5) 0.8856(6) 0.0218(13)
N2_2 N 0.4216(4) 0.6195(5) 0.0860(10)
O12_2 O 0.6806(4) 0.6380(4) 0.2099(9)
O16_2 O 0.6916(5) 0.5229(5) 0.8562(10)
H17_2 H 0.6981 0.5709 0.9311
H18_2 H 0.6393 0.5092 0.8306
O17_2 O 0.8024(5) 0.4720(5) 0.2362(10)
H19_2 H 0.8086 0.4133 0.2629
H20_2 H 0.7667 0.4791 0.1309
O18_2 O 0.8557(5) 0.6830(6) 0.4244(16)
H21_2 H 0.8337 0.7376 0.4114
H22_2 H 0.8714 0.6650 0.3129
H5 H 0.0219 0.9073 0.4476
O10_2 O 0.1114(4) 0.9867(5) 0.8150(13)
O22 O 0.2813(4) 0.8755(4) 0.9505(10)
O5_2 O 0.8886(4) 0.0133(5) 0.1850(13)
H13 H 0.9781 0.0927 0.5524
O21 O 0.7187(4) 0.1245(4) 0.0495(10)
H4_2 H 0.0335 0.4325 0.8812
H13_2 H 0.0219 0.5927 0.9476
H5_2 H 0.9781 0.4073 0.0524
H12_2 H 0.9665 0.5675 0.1188
loop_
_geom_bond_atom_site_label_1
_geom_bond_atom_site_label_2
_geom_bond_site_symmetry_1
_geom_bond_site_symmetry_2
C12 C13 1_555 1_555
C13 C14 1_555 1_555
C14 H14 1_555 1_555
C15 H15 1_555 1_555
C16 C15 1_555 1_555
C17 C13 1_555 1_555
H16 C17 1_555 1_555
C18 C16 1_555 1_555
N2 C14 1_555 1_555
O13 C12 1_555 1_555
O14 C18 1_555 1_555
O15 C18 1_555 1_555
H21 O18 1_555 1_555
H22 O18 1_555 1_555
Pr4 O13 1_555 1_555
Pr6 O14 1_555 1_555
C12 O12 1_555 1_555
C15 N2 1_555 1_555
C16 C17 1_555 1_555
O15 Pr6 1_555 1_555
C10 C11 1_555 1_555
H12 C11 1_555 1_555
O11 C10 1_555 1_555
O16 Pr2 1_555 1_555
H17 O16 1_555 1_555
H18 O16 1_555 1_555
O19 Pr2 1_555 1_555
O11 Pr2 1_555 1_555
H19 O17 1_555 1_555
H20 O17 1_555 1_555
H8 O8 1_555 1_555
H9 O8 1_555 1_555
C8 C9 1_555 1_555
C9 H4 1_555 1_555
O6 Pr1 1_555 1_555
O7 Pr1 1_555 1_555
H6 O7 1_555 1_555
H7 O7 1_555 1_555
O20 Pr1 1_555 1_555
C8 O6 1_555 1_555
C1 C2 1_555 1_555
C2 C3 1_555 1_555
C3 H1 1_555 1_555
C4 H2 1_555 1_555
C5 C4 1_555 1_555
C6 C2 1_555 1_555
H3 C6 1_555 1_555
C7 C5 1_555 1_555
N1 C3 1_555 1_555
O1 C1 1_555 1_555
O2 C1 1_555 1_555
O3 C7 1_555 1_555
O4 C7 1_555 1_555
H10 O9 1_555 1_555
H11 O9 1_555 1_555
Pr4 O3 1_555 1_555
Pr6 O2 1_555 1_555
C4 N1 1_555 1_555
C5 C6 1_555 1_555
O4 Pr4 1_555 1_555
Pr4 O1_2 1_555 1_555
C1_2 C2_2 1_555 1_555
C2_2 C3_2 1_555 1_555
C3_2 H1_2 1_555 1_555
C4_2 H2_2 1_555 1_555
C5_2 C4_2 1_555 1_555
C6_2 C2_2 1_555 1_555
H3_2 C6_2 1_555 1_555
C7_2 C5_2 1_555 1_555
C8_2 C9_2 1_555 1_555
N1_2 C3_2 1_555 1_555
O1_2 C1_2 1_555 1_555
O19 C1_2 1_555 1_555
O23 C7_2 1_555 1_555
O5 Pr4 1_555 1_555
O6_2 Pr4 1_555 1_555
O7_2 Pr4 1_555 1_555
H6_2 O7_2 1_555 1_555
H7_2 O7_2 1_555 1_555
O8_2 Pr4 1_555 1_555
H8_2 O8_2 1_555 1_555
H9_2 O8_2 1_555 1_555
O9_2 Pr4 1_555 1_555
H10_2 O9_2 1_555 1_555
H11_2 O9_2 1_555 1_555
C4_2 N1_2 1_555 1_555
C5_2 C6_2 1_555 1_555
C8_2 O5 1_555 1_555
C8_2 O6_2 1_555 1_555
C10_2 C11_2 1_555 1_555
O10 C10_2 1_555 1_555
O11_2 C10_2 1_555 1_555
Pr6 O10 1_555 1_555
C12_2 C13_2 1_555 1_555
C13_2 C14_2 1_555 1_555
C14_2 H14_2 1_555 1_555
C15_2 H15_2 1_555 1_555
C16_2 C15_2 1_555 1_555
C17_2 C13_2 1_555 1_555
H16_2 C17_2 1_555 1_555
C18_2 C16_2 1_555 1_555
N2_2 C14_2 1_555 1_555
O12_2 Pr6 1_555 1_555
O20 C12_2 1_555 1_555
O24 C18_2 1_555 1_555
O16_2 Pr6 1_555 1_555
H17_2 O16_2 1_555 1_555
H18_2 O16_2 1_555 1_555
O17_2 Pr6 1_555 1_555
H19_2 O17_2 1_555 1_555
H20_2 O17_2 1_555 1_555
O18_2 Pr6 1_555 1_555
H21_2 O18_2 1_555 1_555
H22_2 O18_2 1_555 1_555
O11_2 Pr6 1_555 1_555
C12_2 O12_2 1_555 1_555
C15_2 N2_2 1_555 1_555
C16_2 C17_2 1_555 1_555

#END
