
###############################################################################
#
# This file contains modified crystal structure data generated from the
# MOF subset of the Cambridge Structural Database (CSD) v543 
# hosted by the Cambridge Crystallographic Data Centre (CCDC).
#
# This work is licensed under the Creative Commons
# Attribution-NonCommercial-ShareAlike 4.0 International License.
# To view a copy of this license, visit
# http://creativecommons.org/licenses/by-nc-sa/4.0/
# or send a letter to
# Creative Commons, PO Box 1866, Mountain View, CA 94042, USA.
#
# CIF created using the CSD Python API on 29 September 2022
# The structure has been converted into the P1 space group
# The structure has a 3D framework
# The original CSD entry ZOHBUV is in the monoclinic crystal system
# The framework has been calculated to contain at least 10.0% void space
# The void calculation uses a probe of radius 1.32A, grid spacing 0.4
#
###############################################################################

data_ZOHBUV
_chemical_formula_moiety         '(C36 H44 Er4 N4 O36)n'
_symmetry_cell_setting           triclinic
_symmetry_space_group_name_H-M   'P 1'
_symmetry_Int_Tables_number      1
_space_group_name_Hall           'P 1'
loop_
_symmetry_equiv_pos_site_id
_symmetry_equiv_pos_as_xyz
1 x,y,z
_cell_length_a                   15.8585(14)
_cell_length_b                   13.4190(11)
_cell_length_c                   6.6158(6)
_cell_angle_alpha                90
_cell_angle_beta                 97.925(1)
_cell_angle_gamma                90
_cell_volume                     1394.43
loop_
_atom_site_label
_atom_site_type_symbol
_atom_site_fract_x
_atom_site_fract_y
_atom_site_fract_z
Er1 Er 0.24882(2) 0.56099(2) 0.03600(6)
C8 C 0.3995(6) 0.5519(7) 0.3333(17)
C9 C 0.4781(7) 0.5486(8) 0.4904(19)
O2 O 0.21950(15) 0.37756(18) 0.0561(4)
O5 O 0.38482(16) 0.4879(2) 0.1928(6)
O6 O 0.3468(2) 0.6211(3) 0.3460(7)
O8 O 0.1949(5) 0.5241(5) 0.3588(10)
H4 H 0.5178(7) 0.5986(8) 0.4557(19)
H5 H 0.4621(7) 0.5663(8) 0.6221(19)
H8 H 0.218(5) 0.563(5) 0.451(4)
H9 H 0.207(6) 0.464(2) 0.393(8)
H11 H 0.364(6) 0.723(5) 0.013(9)
C10 C 0.6005(6) 0.4481(7) 0.6667(17)
C11 C 0.5219(7) 0.4514(8) 0.5096(19)
O10 O 0.61518(16) 0.5121(2) 0.8072(6)
O11 O 0.6532(2) 0.3789(3) 0.6540(7)
H12 H 0.4822(7) 0.4014(8) 0.5443(19)
H13 H 0.5379(7) 0.4337(8) 0.3779(19)
C15 C 0.0045(5) 0.8737(6) 0.1203(11)
C16 C 0.0485(5) 0.7839(6) 0.1230(11)
C17 C 0.0003(5) 0.6963(6) 0.0926(11)
C18 C 0.1435(5) 0.7831(6) 0.1633(12)
O14 O 0.18108(18) 0.8631(3) 0.2172(6)
O15 O 0.18102(15) 0.7033(3) 0.1345(7)
H15 H 0.0360(5) 0.9320(6) 0.1461(11)
H16 H 0.0269(5) 0.6345(6) 0.0986(11)
Er4 Er 0.75118(2) 0.43901(2) 0.96400(6)
Er5 Er 0.24882(2) 0.93901(2) 0.53600(6)
C1 C 0.1429(5) 0.3885(6) 0.9833(12)
C2 C 0.0868(5) 0.2968(6) 0.9461(12)
C3 C 0.1244(5) 0.2032(6) 0.9521(12)
N1 N 0.07988(19) 0.11876(17) 0.9170(6)
O1 O 0.11087(15) 0.47319(16) 0.9428(5)
O7 O 0.30052(19) 0.4736(3) 0.7499(5)
O9 O 0.3520(5) 0.6777(6) 0.9237(16)
H1 H 0.1833(5) 0.1990(6) 0.9819(12)
H6 H 0.307(6) 0.5152(12) 0.656(6)
H7 H 0.265(3) 0.429(5) 0.704(9)
H10 H 0.397(3) 0.6465(17) 0.908(18)
O19 O 0.18108(18) 0.6369(3) 0.7172(6)
C12 C 0.8571(5) 0.6115(6) 0.0167(12)
C13 C 0.9132(5) 0.7032(6) 0.0539(12)
C14 C 0.8756(5) 0.7968(6) 0.0479(12)
N2 N 0.92012(19) 0.88124(17) 0.0830(6)
O12 O 0.88913(15) 0.52681(16) 0.0572(5)
O16 O 0.69948(19) 0.5264(3) 0.2501(5)
O18 O 0.6480(5) 0.3223(6) 0.0763(16)
H14 H 0.8167(5) 0.8010(6) 0.0181(12)
H17 H 0.693(6) 0.4848(12) 0.344(6)
H18 H 0.735(3) 0.571(5) 0.296(9)
H21 H 0.603(3) 0.3535(17) 0.092(18)
O20 O 0.81892(18) 0.3631(3) 0.2828(6)
C4 C 0.9955(5) 0.1263(6) 0.8797(11)
C5 C 0.9515(5) 0.2161(6) 0.8770(11)
C6 C 0.9997(5) 0.3037(6) 0.9074(11)
C7 C 0.8565(5) 0.2169(6) 0.8367(12)
O3 O 0.81892(18) 0.1369(3) 0.7828(6)
O4 O 0.81898(15) 0.2967(3) 0.8655(7)
H2 H 0.9640(5) 0.0680(6) 0.8539(11)
H3 H 0.9731(5) 0.3655(6) 0.9014(11)
O13 O 0.78050(15) 0.62244(18) 0.9439(4)
O17 O 0.8051(5) 0.4759(5) 0.6412(10)
H19 H 0.782(5) 0.437(5) 0.549(4)
H20 H 0.793(6) 0.536(2) 0.607(8)
H22 H 0.636(6) 0.277(5) 0.987(9)
Er3 Er 0.75118(2) 0.06099(2) 0.46400(6)
C12_2 C 0.1429(5) 0.1115(6) 0.4833(12)
C13_2 C 0.0868(5) 0.2032(6) 0.4461(12)
C14_2 C 0.1244(5) 0.2968(6) 0.4521(12)
N2_2 N 0.07988(19) 0.38124(17) 0.4170(6)
O12_2 O 0.11087(15) 0.02681(16) 0.4428(5)
O13_2 O 0.21950(15) 0.12244(18) 0.5561(4)
O16_2 O 0.30052(19) 0.0264(3) 0.2499(5)
H14_2 H 0.1833(5) 0.3010(6) 0.4819(12)
H18_2 H 0.265(3) 0.071(5) 0.204(9)
H20_2 H 0.207(6) 0.036(2) 0.893(8)
O21 O 0.38482(16) 0.0121(2) 0.6928(6)
C4_2 C 0.0045(5) 0.6263(6) 0.6203(11)
C5_2 C 0.0485(5) 0.7161(6) 0.6230(11)
C6_2 C 0.0003(5) 0.8037(6) 0.5926(11)
C7_2 C 0.1435(5) 0.7169(6) 0.6633(12)
O4_2 O 0.18102(15) 0.7967(3) 0.6345(7)
H2_2 H 0.0360(5) 0.5680(6) 0.6461(11)
H3_2 H 0.0269(5) 0.8655(6) 0.5986(11)
O17_2 O 0.1949(5) 0.9759(5) 0.8588(10)
O18_2 O 0.3520(5) 0.8223(6) 0.4237(16)
H17_2 H 0.307(6) 0.9848(12) 0.156(6)
H19_2 H 0.218(5) 0.937(5) 0.951(4)
H21_2 H 0.397(3) 0.8535(17) 0.408(18)
H22_2 H 0.364(6) 0.777(5) 0.513(9)
O22 O 0.3468(2) 0.8789(3) 0.8460(7)
C8_2 C 0.6005(6) 0.0519(7) 0.1667(17)
C9_2 C 0.5219(7) 0.0486(8) 0.0096(19)
O6_2 O 0.6532(2) 0.1211(3) 0.1540(7)
O8_2 O 0.8051(5) 0.0241(5) 0.1412(10)
O9_2 O 0.6480(5) 0.1777(6) 0.5763(16)
H4_2 H 0.4822(7) 0.0986(8) 0.0443(19)
H6_2 H 0.693(6) 0.0152(12) 0.844(6)
H8_2 H 0.782(5) 0.063(5) 0.049(4)
H10_2 H 0.603(3) 0.1465(17) 0.592(18)
H11_2 H 0.636(6) 0.223(5) 0.487(9)
C15_2 C 0.9955(5) 0.3737(6) 0.3797(11)
C16_2 C 0.9515(5) 0.2839(6) 0.3770(11)
C17_2 C 0.9997(5) 0.1963(6) 0.4074(11)
C18_2 C 0.8565(5) 0.2831(6) 0.3367(12)
O15_2 O 0.81898(15) 0.2033(3) 0.3655(7)
H15_2 H 0.9640(5) 0.4320(6) 0.3539(11)
H16_2 H 0.9731(5) 0.1345(6) 0.4014(11)
H5_2 H 0.5379(7) 0.0663(8) 0.8779(19)
C1_2 C 0.8571(5) 0.8885(6) 0.5167(12)
C2_2 C 0.9132(5) 0.7968(6) 0.5539(12)
C3_2 C 0.8756(5) 0.7032(6) 0.5479(12)
N1_2 N 0.92012(19) 0.61876(17) 0.5830(6)
O1_2 O 0.88913(15) 0.97319(16) 0.5572(5)
O2_2 O 0.78050(15) 0.87756(18) 0.4439(4)
O5_2 O 0.61518(16) 0.9879(2) 0.3072(6)
O7_2 O 0.69948(19) 0.9736(3) 0.7501(5)
H1_2 H 0.8167(5) 0.6990(6) 0.5181(12)
H7_2 H 0.735(3) 0.929(5) 0.796(9)
H9_2 H 0.793(6) 0.964(2) 0.107(8)
H13_2 H 0.4621(7) 0.9337(8) 0.1221(19)
C10_2 C 0.3995(6) 0.9481(7) 0.8333(17)
C11_2 C 0.4781(7) 0.9514(8) 0.9904(19)
H12_2 H 0.5178(7) 0.9014(8) 0.9557(19)
loop_
_geom_bond_atom_site_label_1
_geom_bond_atom_site_label_2
_geom_bond_site_symmetry_1
_geom_bond_site_symmetry_2
C8 C9 1_555 1_555
C9 H4 1_555 1_555
O2 Er1 1_555 1_555
O5 Er1 1_555 1_555
O6 Er1 1_555 1_555
O8 Er1 1_555 1_555
H5 C9 1_555 1_555
H8 O8 1_555 1_555
H9 O8 1_555 1_555
C10 C11 1_555 1_555
C11 C9 1_555 1_555
O10 C10 1_555 1_555
O11 C10 1_555 1_555
H12 C11 1_555 1_555
H13 C11 1_555 1_555
C15 C16 1_555 1_555
C16 C17 1_555 1_555
C18 C16 1_555 1_555
O14 C18 1_555 1_555
O15 Er1 1_555 1_555
H15 C15 1_555 1_555
H16 C17 1_555 1_555
Er4 O10 1_555 1_555
Er5 O14 1_555 1_555
C8 O5 1_555 1_555
C8 O6 1_555 1_555
O11 Er4 1_555 1_555
C18 O15 1_555 1_555
C1 C2 1_555 1_555
C2 C3 1_555 1_555
C3 N1 1_555 1_555
O1 C1 1_555 1_555
H1 C3 1_555 1_555
H6 O7 1_555 1_555
H7 O7 1_555 1_555
H10 O9 1_555 1_555
C12 C13 1_555 1_555
C13 C14 1_555 1_555
C14 N2 1_555 1_555
H14 C14 1_555 1_555
H17 O16 1_555 1_555
H18 O16 1_555 1_555
H21 O18 1_555 1_555
C12 O12 1_555 1_555
C4 C5 1_555 1_555
C5 C6 1_555 1_555
C7 C5 1_555 1_555
O3 C7 1_555 1_555
O4 C7 1_555 1_555
H2 C4 1_555 1_555
H3 C6 1_555 1_555
Er4 O4 1_555 1_555
O13 Er4 1_555 1_555
O17 Er4 1_555 1_555
H19 O17 1_555 1_555
H20 O17 1_555 1_555
Er3 O3 1_555 1_555
C12_2 C13_2 1_555 1_555
C13_2 C14_2 1_555 1_555
C14_2 N2_2 1_555 1_555
H14_2 C14_2 1_555 1_555
H18_2 O16_2 1_555 1_555
C12_2 O12_2 1_555 1_555
C12_2 O13_2 1_555 1_555
C4_2 C5_2 1_555 1_555
C5_2 C6_2 1_555 1_555
C7_2 C5_2 1_555 1_555
O19 C7_2 1_555 1_555
O4_2 C7_2 1_555 1_555
H2_2 C4_2 1_555 1_555
H3_2 C6_2 1_555 1_555
Er5 O4_2 1_555 1_555
O17_2 Er5 1_555 1_555
O18_2 Er5 1_555 1_555
H19_2 O17_2 1_555 1_555
H21_2 O18_2 1_555 1_555
H22_2 O18_2 1_555 1_555
O22 Er5 1_555 1_555
C8_2 C9_2 1_555 1_555
C9_2 H4_2 1_555 1_555
O6_2 Er3 1_555 1_555
O8_2 Er3 1_555 1_555
O9_2 Er3 1_555 1_555
H8_2 O8_2 1_555 1_555
H10_2 O9_2 1_555 1_555
H11_2 O9_2 1_555 1_555
C15_2 C16_2 1_555 1_555
C16_2 C17_2 1_555 1_555
C18_2 C16_2 1_555 1_555
O20 C18_2 1_555 1_555
O15_2 Er3 1_555 1_555
H15_2 C15_2 1_555 1_555
H16_2 C17_2 1_555 1_555
C8_2 O6_2 1_555 1_555
C18_2 O15_2 1_555 1_555
C1_2 C2_2 1_555 1_555
C2_2 C3_2 1_555 1_555
C3_2 N1_2 1_555 1_555
O1_2 C1_2 1_555 1_555
H1_2 C3_2 1_555 1_555
H7_2 O7_2 1_555 1_555
C1_2 O2_2 1_555 1_555
C10_2 C11_2 1_555 1_555
O22 C10_2 1_555 1_555
H12_2 C11_2 1_555 1_555

#END
