
###############################################################################
#
# This file contains modified crystal structure data generated from the
# MOF subset of the Cambridge Structural Database (CSD) v543 
# hosted by the Cambridge Crystallographic Data Centre (CCDC).
#
# This work is licensed under the Creative Commons
# Attribution-NonCommercial-ShareAlike 4.0 International License.
# To view a copy of this license, visit
# http://creativecommons.org/licenses/by-nc-sa/4.0/
# or send a letter to
# Creative Commons, PO Box 1866, Mountain View, CA 94042, USA.
#
# CIF created using the CSD Python API on 29 September 2022
# The structure has been converted into the P1 space group
# The structure has a 3D framework
# The original CSD entry ZOHFUZ is in the cubic crystal system
# The framework has been calculated to contain at least 10.0% void space
# The void calculation uses a probe of radius 1.32A, grid spacing 0.4
# The framework is charged, counterions have been retained in the structure
# H atom positions have been added when not included in the experimental data
# Generated hydrogen atom positions removed from atoms on special positions
#
###############################################################################

data_ZOHFUZ
_chemical_formula_moiety         '(C288 H672 Cl54 Fe72 O264 10+)n'
_symmetry_cell_setting           triclinic
_symmetry_space_group_name_H-M   'P 1'
_symmetry_Int_Tables_number      1
_space_group_name_Hall           'P 1'
loop_
_symmetry_equiv_pos_site_id
_symmetry_equiv_pos_as_xyz
1 x,y,z
_cell_length_a                   26.669(17)
_cell_length_b                   26.669(17)
_cell_length_c                   26.669(17)
_cell_angle_alpha                90
_cell_angle_beta                 90
_cell_angle_gamma                90
_cell_volume                     18967.9
loop_
_atom_site_label
_atom_site_type_symbol
_atom_site_fract_x
_atom_site_fract_y
_atom_site_fract_z
Cl1 Cl 0.0000 0.434(3) 0.0000
Cl1_2 Cl -0.0000 0.434(3) 1.0000
Cl1_3 Cl 1.0000 0.434(3) 0.0000
Cl1_4 Cl 1.0000 0.434(3) 1.0000
Cl1_5 Cl 0.566(3) 0.0000 0.0000
Cl1_6 Cl 0.566(3) -0.0000 1.0000
Cl1_7 Cl 0.566(3) 1.0000 0.0000
Cl1_8 Cl 0.566(3) 1.0000 1.0000
Cl1_9 Cl -0.0000 0.566(3) 0.0000
Cl1_10 Cl -0.0000 0.566(3) 1.0000
Cl1_11 Cl 1.0000 0.566(3) 0.0000
Cl1_12 Cl 1.0000 0.566(3) 1.0000
Cl1_13 Cl 0.434(3) 0.0000 0.0000
Cl1_14 Cl 0.434(3) -0.0000 1.0000
Cl1_15 Cl 0.434(3) 1.0000 0.0000
Cl1_16 Cl 0.434(3) 1.0000 1.0000
Cl1_17 Cl -0.0000 0.0000 0.434(3)
Cl1_18 Cl -0.0000 1.0000 0.434(3)
Cl1_19 Cl 1.0000 0.0000 0.434(3)
Cl1_20 Cl 1.0000 1.0000 0.434(3)
Cl1_21 Cl -0.0000 -0.0000 0.566(3)
Cl1_22 Cl -0.0000 1.0000 0.566(3)
Cl1_23 Cl 1.0000 -0.0000 0.566(3)
Cl1_24 Cl 1.0000 1.0000 0.566(3)
Cl1_25 Cl -0.0000 0.934(3) 0.5000
Cl1_26 Cl 1.0000 0.934(3) 0.5000
Cl1_27 Cl 0.566(3) 0.5000 0.5000
Cl1_28 Cl -0.0000 0.066(3) 0.5000
Cl1_29 Cl 1.0000 0.066(3) 0.5000
Cl1_30 Cl 0.434(3) 0.5000 0.5000
Cl1_31 Cl -0.0000 0.5000 0.934(3)
Cl1_32 Cl 1.0000 0.5000 0.934(3)
Cl1_33 Cl -0.0000 0.5000 0.066(3)
Cl1_34 Cl 1.0000 0.5000 0.066(3)
Cl1_35 Cl 0.5000 0.434(3) 0.5000
Cl1_36 Cl 0.066(3) -0.0000 0.5000
Cl1_37 Cl 0.066(3) 1.0000 0.5000
Cl1_38 Cl 0.5000 0.566(3) 0.5000
Cl1_39 Cl 0.934(3) -0.0000 0.5000
Cl1_40 Cl 0.934(3) 1.0000 0.5000
Cl1_41 Cl 0.5000 -0.0000 0.934(3)
Cl1_42 Cl 0.5000 1.0000 0.934(3)
Cl1_43 Cl 0.5000 0.0000 0.066(3)
Cl1_44 Cl 0.5000 1.0000 0.066(3)
Cl1_45 Cl 0.5000 0.934(3) 0.0000
Cl1_46 Cl 0.5000 0.934(3) 1.0000
Cl1_47 Cl 0.066(3) 0.5000 0.0000
Cl1_48 Cl 0.066(3) 0.5000 1.0000
Cl1_49 Cl 0.5000 0.066(3) 0.0000
Cl1_50 Cl 0.5000 0.066(3) 1.0000
Cl1_51 Cl 0.934(3) 0.5000 0.0000
Cl1_52 Cl 0.934(3) 0.5000 1.0000
Cl1_53 Cl 0.5000 0.5000 0.434(3)
Cl1_54 Cl 0.5000 0.5000 0.566(3)
C1 C 0.2000(4) 0.3000(4) 0.0695(5)
C2 C 0.1790(4) 0.3210(4) 0.1138(5)
Fe1 Fe 0.21063(7) 0.21063(7) 0.0000
O1 O 0.1826(4) 0.2573(3) 0.0533(3)
C3 C 0.1975(7) 0.3658(4) 0.1342(4)
H1 H 0.2230 0.3825 0.1175
O2 O 0.1488(4) 0.1488(4) 0.0000
C4 C 0.0695(5) 0.3000(4) 0.2000(4)
C5 C 0.1138(5) 0.3210(4) 0.1790(4)
O3 O 0.0533(3) 0.3174(4) 0.2427(3)
C6 C 0.1342(4) 0.3025(7) 0.1342(4)
H2 H 0.1175 0.2770 0.1175
C7 C 0.2000(4) 0.4305(5) 0.2000(4)
C8 C 0.1790(4) 0.3862(5) 0.1790(4)
O4 O 0.2427(3) 0.4467(3) 0.1826(4)
C9 C 0.1342(4) 0.3658(4) 0.1975(7)
H3 H 0.1175 0.3825 0.2230
O5 O 0.0533(3) 0.2573(3) 0.1826(4)
O6 O 0.1826(4) 0.4467(3) 0.2427(3)
O7 O 0.2427(3) 0.3174(4) 0.0533(3)
Fe3 Fe 0.0000 0.21063(7) 0.21063(7)
O15 O -0.0000 0.1488(4) 0.1488(4)
Fe5 Fe 0.21063(7) 0.5000 0.28937(7)
Fe6 Fe -0.0000 0.28937(7) 0.28937(7)
Fe8 Fe 0.28937(7) 0.28937(7) 0.0000
Fe9 Fe 0.28937(7) 0.5000 0.21063(7)
O17 O 0.0533(3) 0.1826(4) 0.2573(3)
O22 O 0.2573(3) 0.1826(4) 0.0533(3)
Fe1_2 Fe 0.21063(7) 0.21063(7) 1.0000
O2_2 O 0.1488(4) 0.1488(4) 1.0000
C10 C 0.0695(5) 0.3000(4) 0.8000(4)
C11 C 0.1138(5) 0.3210(4) 0.8210(4)
Fe2 Fe -0.0000 0.21063(7) 0.78937(7)
O8 O 0.0533(3) 0.2573(3) 0.8174(4)
C12 C 0.1342(4) 0.3658(4) 0.8025(7)
H4 H 0.1175 0.3825 0.7770
O9 O -0.0000 0.1488(4) 0.8512(4)
C13 C 0.2000(4) 0.3000(4) 0.9305(5)
C14 C 0.1790(4) 0.3210(4) 0.8862(5)
O10 O 0.2427(3) 0.3174(4) 0.9467(3)
C15 C 0.1342(4) 0.3025(7) 0.8658(4)
H5 H 0.1175 0.2770 0.8825
C16 C 0.2000(4) 0.4305(5) 0.8000(4)
C17 C 0.1790(4) 0.3862(5) 0.8210(4)
O11 O 0.1826(4) 0.4467(3) 0.7573(3)
C18 C 0.1975(7) 0.3658(4) 0.8658(4)
H6 H 0.2230 0.3825 0.8825
O12 O 0.1826(4) 0.2573(3) 0.9467(3)
O13 O 0.2427(3) 0.4467(3) 0.8174(4)
O14 O 0.0533(3) 0.3174(4) 0.7573(3)
Fe4 Fe 0.21063(7) 0.5000 0.71063(7)
Fe7 Fe 0.0000 0.28937(7) 0.71063(7)
Fe8_2 Fe 0.28937(7) 0.28937(7) 1.0000
Fe10 Fe 0.28937(7) 0.5000 0.78937(7)
O19 O 0.2573(3) 0.1826(4) 0.9467(3)
O21 O 0.0533(3) 0.1826(4) 0.7427(3)
Fe3_2 Fe 1.0000 0.21063(7) 0.21063(7)
O15_2 O 1.0000 0.1488(4) 0.1488(4)
Fe6_2 Fe 1.0000 0.28937(7) 0.28937(7)
O16 O 0.9467(3) 0.2573(3) 0.1826(4)
O20 O 0.9467(3) 0.1826(4) 0.2573(3)
Fe2_2 Fe 1.0000 0.21063(7) 0.78937(7)
O9_2 O 1.0000 0.1488(4) 0.8512(4)
Fe7_2 Fe 1.0000 0.28937(7) 0.71063(7)
O18 O 0.9467(3) 0.1826(4) 0.7427(3)
O23 O 0.9467(3) 0.2573(3) 0.8174(4)
C1_2 C 0.7000(4) 0.2000(4) 0.0695(5)
C2_2 C 0.6790(4) 0.1790(4) 0.1138(5)
Fe1_3 Fe 0.78937(7) 0.21063(7) 0.0000
O1_2 O 0.7427(3) 0.1826(4) 0.0533(3)
C3_2 C 0.6342(4) 0.1975(7) 0.1342(4)
H1_2 H 0.6175 0.2230 0.1175
O2_3 O 0.8512(4) 0.1488(4) 0.0000
C4_2 C 0.7000(4) 0.0695(5) 0.2000(4)
C5_2 C 0.6790(4) 0.1138(5) 0.1790(4)
O3_2 O 0.6826(4) 0.0533(3) 0.2427(3)
C6_2 C 0.6975(7) 0.1342(4) 0.1342(4)
H2_2 H 0.7230 0.1175 0.1175
C7_2 C 0.5695(5) 0.2000(4) 0.2000(4)
C8_2 C 0.6138(5) 0.1790(4) 0.1790(4)
O4_2 O 0.5533(3) 0.2427(3) 0.1826(4)
C9_2 C 0.6342(4) 0.1342(4) 0.1975(7)
H3_2 H 0.6175 0.1175 0.2230
O5_2 O 0.7427(3) 0.0533(3) 0.1826(4)
O6_2 O 0.5533(3) 0.1826(4) 0.2427(3)
O7_2 O 0.6826(4) 0.2427(3) 0.0533(3)
Fe3_3 Fe 0.78937(7) 0.0000 0.21063(7)
O15_3 O 0.8512(4) -0.0000 0.1488(4)
Fe5_2 Fe 0.5000 0.21063(7) 0.28937(7)
Fe6_3 Fe 0.71063(7) -0.0000 0.28937(7)
Fe8_3 Fe 0.71063(7) 0.28937(7) 0.0000
Fe9_2 Fe 0.5000 0.28937(7) 0.21063(7)
O17_2 O 0.8174(4) 0.0533(3) 0.2573(3)
O22_2 O 0.8174(4) 0.2573(3) 0.0533(3)
Fe1_4 Fe 0.78937(7) 0.21063(7) 1.0000
O2_4 O 0.8512(4) 0.1488(4) 1.0000
C10_2 C 0.7000(4) 0.0695(5) 0.8000(4)
C11_2 C 0.6790(4) 0.1138(5) 0.8210(4)
Fe2_3 Fe 0.78937(7) 0.0000 0.78937(7)
O8_2 O 0.7427(3) 0.0533(3) 0.8174(4)
C12_2 C 0.6342(4) 0.1342(4) 0.8025(7)
H4_2 H 0.6175 0.1175 0.7770
O9_3 O 0.8512(4) -0.0000 0.8512(4)
C13_2 C 0.7000(4) 0.2000(4) 0.9305(5)
C14_2 C 0.6790(4) 0.1790(4) 0.8862(5)
O10_2 O 0.6826(4) 0.2427(3) 0.9467(3)
C15_2 C 0.6975(7) 0.1342(4) 0.8658(4)
H5_2 H 0.7230 0.1175 0.8825
C16_2 C 0.5695(5) 0.2000(4) 0.8000(4)
C17_2 C 0.6138(5) 0.1790(4) 0.8210(4)
O11_2 O 0.5533(3) 0.1826(4) 0.7573(3)
C18_2 C 0.6342(4) 0.1975(7) 0.8658(4)
H6_2 H 0.6175 0.2230 0.8825
O12_2 O 0.7427(3) 0.1826(4) 0.9467(3)
O13_2 O 0.5533(3) 0.2427(3) 0.8174(4)
O14_2 O 0.6826(4) 0.0533(3) 0.7573(3)
Fe4_2 Fe 0.5000 0.21063(7) 0.71063(7)
Fe7_3 Fe 0.71063(7) 0.0000 0.71063(7)
Fe8_4 Fe 0.71063(7) 0.28937(7) 1.0000
Fe10_2 Fe 0.5000 0.28937(7) 0.78937(7)
O19_2 O 0.8174(4) 0.2573(3) 0.9467(3)
O21_2 O 0.8174(4) 0.0533(3) 0.7427(3)
Fe3_4 Fe 0.78937(7) 1.0000 0.21063(7)
O15_4 O 0.8512(4) 1.0000 0.1488(4)
Fe6_4 Fe 0.71063(7) 1.0000 0.28937(7)
O16_2 O 0.7427(3) 0.9467(3) 0.1826(4)
O20_2 O 0.8174(4) 0.9467(3) 0.2573(3)
Fe2_4 Fe 0.78937(7) 1.0000 0.78937(7)
O9_4 O 0.8512(4) 1.0000 0.8512(4)
Fe7_4 Fe 0.71063(7) 1.0000 0.71063(7)
O18_2 O 0.8174(4) 0.9467(3) 0.7427(3)
O23_2 O 0.7427(3) 0.9467(3) 0.8174(4)
Fe3_5 Fe -0.0000 0.78937(7) 0.21063(7)
O15_5 O -0.0000 0.8512(4) 0.1488(4)
Fe6_5 Fe -0.0000 0.71063(7) 0.28937(7)
O16_3 O 0.0533(3) 0.7427(3) 0.1826(4)
O20_3 O 0.0533(3) 0.8174(4) 0.2573(3)
Fe2_5 Fe 0.0000 0.78937(7) 0.78937(7)
O9_5 O -0.0000 0.8512(4) 0.8512(4)
Fe7_5 Fe 0.0000 0.71063(7) 0.71063(7)
O18_3 O 0.0533(3) 0.8174(4) 0.7427(3)
O23_3 O 0.0533(3) 0.7427(3) 0.8174(4)
C1_3 C 0.8000(4) 0.7000(4) 0.0695(5)
C2_3 C 0.8210(4) 0.6790(4) 0.1138(5)
Fe1_5 Fe 0.78937(7) 0.78937(7) 0.0000
O1_3 O 0.8174(4) 0.7427(3) 0.0533(3)
C3_3 C 0.8025(7) 0.6342(4) 0.1342(4)
H1_3 H 0.7770 0.6175 0.1175
O2_5 O 0.8512(4) 0.8512(4) 0.0000
C4_3 C 0.9305(5) 0.7000(4) 0.2000(4)
C5_3 C 0.8862(5) 0.6790(4) 0.1790(4)
O3_3 O 0.9467(3) 0.6826(4) 0.2427(3)
C6_3 C 0.8658(4) 0.6975(7) 0.1342(4)
H2_3 H 0.8825 0.7230 0.1175
C7_3 C 0.8000(4) 0.5695(5) 0.2000(4)
C8_3 C 0.8210(4) 0.6138(5) 0.1790(4)
O4_3 O 0.7573(3) 0.5533(3) 0.1826(4)
C9_3 C 0.8658(4) 0.6342(4) 0.1975(7)
H3_3 H 0.8825 0.6175 0.2230
O5_3 O 0.9467(3) 0.7427(3) 0.1826(4)
O6_3 O 0.8174(4) 0.5533(3) 0.2427(3)
O7_3 O 0.7573(3) 0.6826(4) 0.0533(3)
Fe3_6 Fe 1.0000 0.78937(7) 0.21063(7)
O15_6 O 1.0000 0.8512(4) 0.1488(4)
Fe5_3 Fe 0.78937(7) 0.5000 0.28937(7)
Fe6_6 Fe 1.0000 0.71063(7) 0.28937(7)
Fe8_5 Fe 0.71063(7) 0.71063(7) 0.0000
Fe9_3 Fe 0.71063(7) 0.5000 0.21063(7)
O17_3 O 0.9467(3) 0.8174(4) 0.2573(3)
O22_3 O 0.7427(3) 0.8174(4) 0.0533(3)
Fe1_6 Fe 0.78937(7) 0.78937(7) 1.0000
O2_6 O 0.8512(4) 0.8512(4) 1.0000
C10_3 C 0.9305(5) 0.7000(4) 0.8000(4)
C11_3 C 0.8862(5) 0.6790(4) 0.8210(4)
Fe2_6 Fe 1.0000 0.78937(7) 0.78937(7)
O8_3 O 0.9467(3) 0.7427(3) 0.8174(4)
C12_3 C 0.8658(4) 0.6342(4) 0.8025(7)
H4_3 H 0.8825 0.6175 0.7770
O9_6 O 1.0000 0.8512(4) 0.8512(4)
C13_3 C 0.8000(4) 0.7000(4) 0.9305(5)
C14_3 C 0.8210(4) 0.6790(4) 0.8862(5)
O10_3 O 0.7573(3) 0.6826(4) 0.9467(3)
C15_3 C 0.8658(4) 0.6975(7) 0.8658(4)
H5_3 H 0.8825 0.7230 0.8825
C16_3 C 0.8000(4) 0.5695(5) 0.8000(4)
C17_3 C 0.8210(4) 0.6138(5) 0.8210(4)
O11_3 O 0.8174(4) 0.5533(3) 0.7573(3)
C18_3 C 0.8025(7) 0.6342(4) 0.8658(4)
H6_3 H 0.7770 0.6175 0.8825
O12_3 O 0.8174(4) 0.7427(3) 0.9467(3)
O13_3 O 0.7573(3) 0.5533(3) 0.8174(4)
O14_3 O 0.9467(3) 0.6826(4) 0.7573(3)
Fe4_3 Fe 0.78937(7) 0.5000 0.71063(7)
Fe7_6 Fe 1.0000 0.71063(7) 0.71063(7)
Fe8_6 Fe 0.71063(7) 0.71063(7) 1.0000
Fe10_3 Fe 0.71063(7) 0.5000 0.78937(7)
O19_3 O 0.7427(3) 0.8174(4) 0.9467(3)
O21_3 O 0.9467(3) 0.8174(4) 0.7427(3)
Fe3_7 Fe 0.21063(7) 0.0000 0.21063(7)
O15_7 O 0.1488(4) 0.0000 0.1488(4)
Fe6_7 Fe 0.28937(7) 0.0000 0.28937(7)
O16_4 O 0.2573(3) 0.0533(3) 0.1826(4)
O20_4 O 0.1826(4) 0.0533(3) 0.2573(3)
Fe2_7 Fe 0.21063(7) 0.0000 0.78937(7)
O9_7 O 0.1488(4) -0.0000 0.8512(4)
Fe7_7 Fe 0.28937(7) 0.0000 0.71063(7)
O18_4 O 0.1826(4) 0.0533(3) 0.7427(3)
O23_4 O 0.2573(3) 0.0533(3) 0.8174(4)
C1_4 C 0.3000(4) 0.8000(4) 0.0695(5)
C2_4 C 0.3210(4) 0.8210(4) 0.1138(5)
Fe1_7 Fe 0.21063(7) 0.78937(7) 0.0000
O1_4 O 0.2573(3) 0.8174(4) 0.0533(3)
C3_4 C 0.3658(4) 0.8025(7) 0.1342(4)
H1_4 H 0.3825 0.7770 0.1175
O2_7 O 0.1488(4) 0.8512(4) 0.0000
C4_4 C 0.3000(4) 0.9305(5) 0.2000(4)
C5_4 C 0.3210(4) 0.8862(5) 0.1790(4)
O3_4 O 0.3174(4) 0.9467(3) 0.2427(3)
C6_4 C 0.3025(7) 0.8658(4) 0.1342(4)
H2_4 H 0.2770 0.8825 0.1175
C7_4 C 0.4305(5) 0.8000(4) 0.2000(4)
C8_4 C 0.3862(5) 0.8210(4) 0.1790(4)
O4_4 O 0.4467(3) 0.7573(3) 0.1826(4)
C9_4 C 0.3658(4) 0.8658(4) 0.1975(7)
H3_4 H 0.3825 0.8825 0.2230
O5_4 O 0.2573(3) 0.9467(3) 0.1826(4)
O6_4 O 0.4467(3) 0.8174(4) 0.2427(3)
O7_4 O 0.3174(4) 0.7573(3) 0.0533(3)
Fe3_8 Fe 0.21063(7) 1.0000 0.21063(7)
O15_8 O 0.1488(4) 1.0000 0.1488(4)
Fe5_4 Fe 0.5000 0.78937(7) 0.28937(7)
Fe6_8 Fe 0.28937(7) 1.0000 0.28937(7)
Fe8_7 Fe 0.28937(7) 0.71063(7) 0.0000
Fe9_4 Fe 0.5000 0.71063(7) 0.21063(7)
O17_4 O 0.1826(4) 0.9467(3) 0.2573(3)
O22_4 O 0.1826(4) 0.7427(3) 0.0533(3)
Fe1_8 Fe 0.21063(7) 0.78937(7) 1.0000
O2_8 O 0.1488(4) 0.8512(4) 1.0000
C10_4 C 0.3000(4) 0.9305(5) 0.8000(4)
C11_4 C 0.3210(4) 0.8862(5) 0.8210(4)
Fe2_8 Fe 0.21063(7) 1.0000 0.78937(7)
O8_4 O 0.2573(3) 0.9467(3) 0.8174(4)
C12_4 C 0.3658(4) 0.8658(4) 0.8025(7)
H4_4 H 0.3825 0.8825 0.7770
O9_8 O 0.1488(4) 1.0000 0.8512(4)
C13_4 C 0.3000(4) 0.8000(4) 0.9305(5)
C14_4 C 0.3210(4) 0.8210(4) 0.8862(5)
O10_4 O 0.3174(4) 0.7573(3) 0.9467(3)
C15_4 C 0.3025(7) 0.8658(4) 0.8658(4)
H5_4 H 0.2770 0.8825 0.8825
C16_4 C 0.4305(5) 0.8000(4) 0.8000(4)
C17_4 C 0.3862(5) 0.8210(4) 0.8210(4)
O11_4 O 0.4467(3) 0.8174(4) 0.7573(3)
C18_4 C 0.3658(4) 0.8025(7) 0.8658(4)
H6_4 H 0.3825 0.7770 0.8825
O12_4 O 0.2573(3) 0.8174(4) 0.9467(3)
O13_4 O 0.4467(3) 0.7573(3) 0.8174(4)
O14_4 O 0.3174(4) 0.9467(3) 0.7573(3)
Fe4_4 Fe 0.5000 0.78937(7) 0.71063(7)
Fe7_8 Fe 0.28937(7) 1.0000 0.71063(7)
Fe8_8 Fe 0.28937(7) 0.71063(7) 1.0000
Fe10_4 Fe 0.5000 0.71063(7) 0.78937(7)
O19_4 O 0.1826(4) 0.7427(3) 0.9467(3)
O21_4 O 0.1826(4) 0.9467(3) 0.7427(3)
C10_5 C 0.0695(5) 0.2000(4) 0.3000(4)
C11_5 C 0.1138(5) 0.1790(4) 0.3210(4)
C12_5 C 0.1342(4) 0.1975(7) 0.3658(4)
H4_5 H 0.1175 0.2230 0.3825
C13_5 C 0.2000(4) 0.0695(5) 0.3000(4)
C14_5 C 0.1790(4) 0.1138(5) 0.3210(4)
O10_5 O 0.2427(3) 0.0533(3) 0.3174(4)
C15_5 C 0.1342(4) 0.1342(4) 0.3025(7)
H5_5 H 0.1175 0.1175 0.2770
C16_5 C 0.2000(4) 0.2000(4) 0.4305(5)
C17_5 C 0.1790(4) 0.1790(4) 0.3862(5)
O11_5 O 0.1826(4) 0.2427(3) 0.4467(3)
C18_5 C 0.1975(7) 0.1342(4) 0.3658(4)
H6_5 H 0.2230 0.1175 0.3825
O13_5 O 0.2427(3) 0.1826(4) 0.4467(3)
O14_5 O 0.0533(3) 0.2427(3) 0.3174(4)
Fe4_5 Fe 0.21063(7) 0.28937(7) 0.5000
Fe10_5 Fe 0.28937(7) 0.21063(7) 0.5000
C1_5 C 0.2000(4) 0.9305(5) 0.3000(4)
C2_5 C 0.1790(4) 0.8862(5) 0.3210(4)
C3_5 C 0.1975(7) 0.8658(4) 0.3658(4)
H1_5 H 0.2230 0.8825 0.3825
C4_5 C 0.0695(5) 0.8000(4) 0.3000(4)
C5_5 C 0.1138(5) 0.8210(4) 0.3210(4)
O3_5 O 0.0533(3) 0.7573(3) 0.3174(4)
C6_5 C 0.1342(4) 0.8658(4) 0.3025(7)
H2_5 H 0.1175 0.8825 0.2770
C7_5 C 0.2000(4) 0.8000(4) 0.4305(5)
C8_5 C 0.1790(4) 0.8210(4) 0.3862(5)
O4_5 O 0.2427(3) 0.8174(4) 0.4467(3)
C9_5 C 0.1342(4) 0.8025(7) 0.3658(4)
H3_5 H 0.1175 0.7770 0.3825
O6_5 O 0.1826(4) 0.7573(3) 0.4467(3)
O7_5 O 0.2427(3) 0.9467(3) 0.3174(4)
Fe5_5 Fe 0.21063(7) 0.71063(7) 0.5000
Fe9_5 Fe 0.28937(7) 0.78937(7) 0.5000
C10_6 C 0.0695(5) 0.7000(4) 0.2000(4)
C11_6 C 0.1138(5) 0.6790(4) 0.1790(4)
C12_6 C 0.1342(4) 0.6342(4) 0.1975(7)
H4_6 H 0.1175 0.6175 0.2230
C13_6 C 0.2000(4) 0.7000(4) 0.0695(5)
C14_6 C 0.1790(4) 0.6790(4) 0.1138(5)
O10_6 O 0.2427(3) 0.6826(4) 0.0533(3)
C15_6 C 0.1342(4) 0.6975(7) 0.1342(4)
H5_6 H 0.1175 0.7230 0.1175
C16_6 C 0.2000(4) 0.5695(5) 0.2000(4)
C17_6 C 0.1790(4) 0.6138(5) 0.1790(4)
O11_6 O 0.1826(4) 0.5533(3) 0.2427(3)
C18_6 C 0.1975(7) 0.6342(4) 0.1342(4)
H6_6 H 0.2230 0.6175 0.1175
O13_6 O 0.2427(3) 0.5533(3) 0.1826(4)
O14_6 O 0.0533(3) 0.6826(4) 0.2427(3)
C1_6 C 0.2000(4) 0.7000(4) 0.9305(5)
C2_6 C 0.1790(4) 0.6790(4) 0.8862(5)
C3_6 C 0.1975(7) 0.6342(4) 0.8658(4)
H1_6 H 0.2230 0.6175 0.8825
C4_6 C 0.0695(5) 0.7000(4) 0.8000(4)
C5_6 C 0.1138(5) 0.6790(4) 0.8210(4)
O3_6 O 0.0533(3) 0.6826(4) 0.7573(3)
C6_6 C 0.1342(4) 0.6975(7) 0.8658(4)
H2_6 H 0.1175 0.7230 0.8825
C7_6 C 0.2000(4) 0.5695(5) 0.8000(4)
C8_6 C 0.1790(4) 0.6138(5) 0.8210(4)
O4_6 O 0.2427(3) 0.5533(3) 0.8174(4)
C9_6 C 0.1342(4) 0.6342(4) 0.8025(7)
H3_6 H 0.1175 0.6175 0.7770
O6_6 O 0.1826(4) 0.5533(3) 0.7573(3)
O7_6 O 0.2427(3) 0.6826(4) 0.9467(3)
C1_7 C 0.2000(4) 0.0695(5) 0.7000(4)
C2_7 C 0.1790(4) 0.1138(5) 0.6790(4)
C3_7 C 0.1975(7) 0.1342(4) 0.6342(4)
H1_7 H 0.2230 0.1175 0.6175
C4_7 C 0.0695(5) 0.2000(4) 0.7000(4)
C5_7 C 0.1138(5) 0.1790(4) 0.6790(4)
O3_7 O 0.0533(3) 0.2427(3) 0.6826(4)
C6_7 C 0.1342(4) 0.1342(4) 0.6975(7)
H2_7 H 0.1175 0.1175 0.7230
C7_7 C 0.2000(4) 0.2000(4) 0.5695(5)
C8_7 C 0.1790(4) 0.1790(4) 0.6138(5)
O4_7 O 0.2427(3) 0.1826(4) 0.5533(3)
C9_7 C 0.1342(4) 0.1975(7) 0.6342(4)
H3_7 H 0.1175 0.2230 0.6175
O6_7 O 0.1826(4) 0.2427(3) 0.5533(3)
O7_7 O 0.2427(3) 0.0533(3) 0.6826(4)
C10_7 C 0.0695(5) 0.8000(4) 0.7000(4)
C11_7 C 0.1138(5) 0.8210(4) 0.6790(4)
C12_7 C 0.1342(4) 0.8025(7) 0.6342(4)
H4_7 H 0.1175 0.7770 0.6175
C13_7 C 0.2000(4) 0.9305(5) 0.7000(4)
C14_7 C 0.1790(4) 0.8862(5) 0.6790(4)
O10_7 O 0.2427(3) 0.9467(3) 0.6826(4)
C15_7 C 0.1342(4) 0.8658(4) 0.6975(7)
H5_7 H 0.1175 0.8825 0.7230
C16_7 C 0.2000(4) 0.8000(4) 0.5695(5)
C17_7 C 0.1790(4) 0.8210(4) 0.6138(5)
O11_7 O 0.1826(4) 0.7573(3) 0.5533(3)
C18_7 C 0.1975(7) 0.8658(4) 0.6342(4)
H6_7 H 0.2230 0.8825 0.6175
O13_7 O 0.2427(3) 0.8174(4) 0.5533(3)
O14_7 O 0.0533(3) 0.7573(3) 0.6826(4)
C10_8 C 0.8000(4) 0.3000(4) 0.9305(5)
C11_8 C 0.8210(4) 0.3210(4) 0.8862(5)
C12_8 C 0.8025(7) 0.3658(4) 0.8658(4)
H4_8 H 0.7770 0.3825 0.8825
C13_8 C 0.9305(5) 0.3000(4) 0.8000(4)
C14_8 C 0.8862(5) 0.3210(4) 0.8210(4)
O10_8 O 0.9467(3) 0.3174(4) 0.7573(3)
C15_8 C 0.8658(4) 0.3025(7) 0.8658(4)
H5_8 H 0.8825 0.2770 0.8825
C16_8 C 0.8000(4) 0.4305(5) 0.8000(4)
C17_8 C 0.8210(4) 0.3862(5) 0.8210(4)
O11_8 O 0.7573(3) 0.4467(3) 0.8174(4)
C18_8 C 0.8658(4) 0.3658(4) 0.8025(7)
H6_8 H 0.8825 0.3825 0.7770
O13_8 O 0.8174(4) 0.4467(3) 0.7573(3)
O14_8 O 0.7573(3) 0.3174(4) 0.9467(3)
C10_9 C 0.9305(5) 0.3000(4) 0.2000(4)
C11_9 C 0.8862(5) 0.3210(4) 0.1790(4)
C12_9 C 0.8658(4) 0.3658(4) 0.1975(7)
H4_9 H 0.8825 0.3825 0.2230
C13_9 C 0.8000(4) 0.3000(4) 0.0695(5)
C14_9 C 0.8210(4) 0.3210(4) 0.1138(5)
O10_9 O 0.7573(3) 0.3174(4) 0.0533(3)
C15_9 C 0.8658(4) 0.3025(7) 0.1342(4)
H5_9 H 0.8825 0.2770 0.1175
C16_9 C 0.8000(4) 0.4305(5) 0.2000(4)
C17_9 C 0.8210(4) 0.3862(5) 0.1790(4)
O11_9 O 0.8174(4) 0.4467(3) 0.2427(3)
C18_9 C 0.8025(7) 0.3658(4) 0.1342(4)
H6_9 H 0.7770 0.3825 0.1175
O13_9 O 0.7573(3) 0.4467(3) 0.1826(4)
O14_9 O 0.9467(3) 0.3174(4) 0.2427(3)
C10_10 C 0.8000(4) 0.0695(5) 0.3000(4)
C11_10 C 0.8210(4) 0.1138(5) 0.3210(4)
C12_10 C 0.8025(7) 0.1342(4) 0.3658(4)
H4_10 H 0.7770 0.1175 0.3825
C13_10 C 0.9305(5) 0.2000(4) 0.3000(4)
C14_10 C 0.8862(5) 0.1790(4) 0.3210(4)
O10_10 O 0.9467(3) 0.2427(3) 0.3174(4)
C15_10 C 0.8658(4) 0.1342(4) 0.3025(7)
H5_10 H 0.8825 0.1175 0.2770
C16_10 C 0.8000(4) 0.2000(4) 0.4305(5)
C17_10 C 0.8210(4) 0.1790(4) 0.3862(5)
O11_10 O 0.7573(3) 0.1826(4) 0.4467(3)
C18_10 C 0.8658(4) 0.1975(7) 0.3658(4)
H6_10 H 0.8825 0.2230 0.3825
O13_10 O 0.8174(4) 0.2427(3) 0.4467(3)
O14_10 O 0.7573(3) 0.0533(3) 0.3174(4)
Fe4_6 Fe 0.71063(7) 0.21063(7) 0.5000
Fe10_6 Fe 0.78937(7) 0.28937(7) 0.5000
C1_8 C 0.3000(4) 0.0695(5) 0.2000(4)
C2_8 C 0.3210(4) 0.1138(5) 0.1790(4)
C3_8 C 0.3658(4) 0.1342(4) 0.1975(7)
H1_8 H 0.3825 0.1175 0.2230
C4_8 C 0.3000(4) 0.2000(4) 0.0695(5)
C5_8 C 0.3210(4) 0.1790(4) 0.1138(5)
O3_8 O 0.3174(4) 0.2427(3) 0.0533(3)
C6_8 C 0.3025(7) 0.1342(4) 0.1342(4)
H2_8 H 0.2770 0.1175 0.1175
C7_8 C 0.4305(5) 0.2000(4) 0.2000(4)
C8_8 C 0.3862(5) 0.1790(4) 0.1790(4)
O4_8 O 0.4467(3) 0.1826(4) 0.2427(3)
C9_8 C 0.3658(4) 0.1975(7) 0.1342(4)
H3_8 H 0.3825 0.2230 0.1175
O6_8 O 0.4467(3) 0.2427(3) 0.1826(4)
O7_8 O 0.3174(4) 0.0533(3) 0.2427(3)
C1_9 C 0.7000(4) 0.9305(5) 0.2000(4)
C2_9 C 0.6790(4) 0.8862(5) 0.1790(4)
C3_9 C 0.6342(4) 0.8658(4) 0.1975(7)
H1_9 H 0.6175 0.8825 0.2230
C4_9 C 0.7000(4) 0.8000(4) 0.0695(5)
C5_9 C 0.6790(4) 0.8210(4) 0.1138(5)
O3_9 O 0.6826(4) 0.7573(3) 0.0533(3)
C6_9 C 0.6975(7) 0.8658(4) 0.1342(4)
H2_9 H 0.7230 0.8825 0.1175
C7_9 C 0.5695(5) 0.8000(4) 0.2000(4)
C8_9 C 0.6138(5) 0.8210(4) 0.1790(4)
O4_9 O 0.5533(3) 0.8174(4) 0.2427(3)
C9_9 C 0.6342(4) 0.8025(7) 0.1342(4)
H3_9 H 0.6175 0.7770 0.1175
O6_9 O 0.5533(3) 0.7573(3) 0.1826(4)
O7_9 O 0.6826(4) 0.9467(3) 0.2427(3)
C10_11 C 0.8000(4) 0.9305(5) 0.7000(4)
C11_11 C 0.8210(4) 0.8862(5) 0.6790(4)
C12_11 C 0.8025(7) 0.8658(4) 0.6342(4)
H4_11 H 0.7770 0.8825 0.6175
C13_11 C 0.9305(5) 0.8000(4) 0.7000(4)
C14_11 C 0.8862(5) 0.8210(4) 0.6790(4)
O10_11 O 0.9467(3) 0.7573(3) 0.6826(4)
C15_11 C 0.8658(4) 0.8658(4) 0.6975(7)
H5_11 H 0.8825 0.8825 0.7230
C16_11 C 0.8000(4) 0.8000(4) 0.5695(5)
C17_11 C 0.8210(4) 0.8210(4) 0.6138(5)
O11_11 O 0.7573(3) 0.8174(4) 0.5533(3)
C18_11 C 0.8658(4) 0.8025(7) 0.6342(4)
H6_11 H 0.8825 0.7770 0.6175
O13_11 O 0.8174(4) 0.7573(3) 0.5533(3)
O14_11 O 0.7573(3) 0.9467(3) 0.6826(4)
Fe4_7 Fe 0.71063(7) 0.78937(7) 0.5000
Fe10_7 Fe 0.78937(7) 0.71063(7) 0.5000
C10_12 C 0.7000(4) 0.8000(4) 0.9305(5)
C11_12 C 0.6790(4) 0.8210(4) 0.8862(5)
C12_12 C 0.6342(4) 0.8025(7) 0.8658(4)
H4_12 H 0.6175 0.7770 0.8825
C13_12 C 0.7000(4) 0.9305(5) 0.8000(4)
C14_12 C 0.6790(4) 0.8862(5) 0.8210(4)
O10_12 O 0.6826(4) 0.9467(3) 0.7573(3)
C15_12 C 0.6975(7) 0.8658(4) 0.8658(4)
H5_12 H 0.7230 0.8825 0.8825
C16_12 C 0.5695(5) 0.8000(4) 0.8000(4)
C17_12 C 0.6138(5) 0.8210(4) 0.8210(4)
O11_12 O 0.5533(3) 0.7573(3) 0.8174(4)
C18_12 C 0.6342(4) 0.8658(4) 0.8025(7)
H6_12 H 0.6175 0.8825 0.7770
O13_12 O 0.5533(3) 0.8174(4) 0.7573(3)
O14_12 O 0.6826(4) 0.7573(3) 0.9467(3)
C1_10 C 0.9305(5) 0.8000(4) 0.3000(4)
C2_10 C 0.8862(5) 0.8210(4) 0.3210(4)
C3_10 C 0.8658(4) 0.8025(7) 0.3658(4)
H1_10 H 0.8825 0.7770 0.3825
C4_10 C 0.8000(4) 0.9305(5) 0.3000(4)
C5_10 C 0.8210(4) 0.8862(5) 0.3210(4)
O3_10 O 0.7573(3) 0.9467(3) 0.3174(4)
C6_10 C 0.8658(4) 0.8658(4) 0.3025(7)
H2_10 H 0.8825 0.8825 0.2770
C7_10 C 0.8000(4) 0.8000(4) 0.4305(5)
C8_10 C 0.8210(4) 0.8210(4) 0.3862(5)
O4_10 O 0.8174(4) 0.7573(3) 0.4467(3)
C9_10 C 0.8025(7) 0.8658(4) 0.3658(4)
H3_10 H 0.7770 0.8825 0.3825
O6_10 O 0.7573(3) 0.8174(4) 0.4467(3)
O7_10 O 0.9467(3) 0.7573(3) 0.3174(4)
C1_11 C 0.9305(5) 0.2000(4) 0.7000(4)
C2_11 C 0.8862(5) 0.1790(4) 0.6790(4)
C3_11 C 0.8658(4) 0.1975(7) 0.6342(4)
H1_11 H 0.8825 0.2230 0.6175
C4_11 C 0.8000(4) 0.0695(5) 0.7000(4)
C5_11 C 0.8210(4) 0.1138(5) 0.6790(4)
O3_11 O 0.7573(3) 0.0533(3) 0.6826(4)
C6_11 C 0.8658(4) 0.1342(4) 0.6975(7)
H2_11 H 0.8825 0.1175 0.7230
C7_11 C 0.8000(4) 0.2000(4) 0.5695(5)
C8_11 C 0.8210(4) 0.1790(4) 0.6138(5)
O4_11 O 0.8174(4) 0.2427(3) 0.5533(3)
C9_11 C 0.8025(7) 0.1342(4) 0.6342(4)
H3_11 H 0.7770 0.1175 0.6175
O6_11 O 0.7573(3) 0.1826(4) 0.5533(3)
O7_11 O 0.9467(3) 0.2427(3) 0.6826(4)
C10_13 C 0.3000(4) 0.2000(4) 0.9305(5)
C11_13 C 0.3210(4) 0.1790(4) 0.8862(5)
C12_13 C 0.3658(4) 0.1975(7) 0.8658(4)
H4_13 H 0.3825 0.2230 0.8825
C13_13 C 0.3000(4) 0.0695(5) 0.8000(4)
C14_13 C 0.3210(4) 0.1138(5) 0.8210(4)
O10_13 O 0.3174(4) 0.0533(3) 0.7573(3)
C15_13 C 0.3025(7) 0.1342(4) 0.8658(4)
H5_13 H 0.2770 0.1175 0.8825
C16_13 C 0.4305(5) 0.2000(4) 0.8000(4)
C17_13 C 0.3862(5) 0.1790(4) 0.8210(4)
O11_13 O 0.4467(3) 0.2427(3) 0.8174(4)
C18_13 C 0.3658(4) 0.1342(4) 0.8025(7)
H6_13 H 0.3825 0.1175 0.7770
O13_13 O 0.4467(3) 0.1826(4) 0.7573(3)
O14_13 O 0.3174(4) 0.2427(3) 0.9467(3)
O2_9 O 0.1488(4) 0.6488(4) 0.5000
O9_9 O -0.0000 0.6488(4) 0.3512(4)
O15_9 O -0.0000 0.6488(4) 0.6488(4)
O19_5 O 0.2573(3) 0.6826(4) 0.4467(3)
O22_5 O 0.2573(3) 0.6826(4) 0.5533(3)
O9_10 O 1.0000 0.6488(4) 0.3512(4)
O15_10 O 1.0000 0.6488(4) 0.6488(4)
C1_12 C 0.7000(4) 0.7000(4) 0.5695(5)
C2_12 C 0.6790(4) 0.6790(4) 0.6138(5)
O1_5 O 0.7427(3) 0.6826(4) 0.5533(3)
C3_12 C 0.6342(4) 0.6975(7) 0.6342(4)
H1_12 H 0.6175 0.7230 0.6175
O2_10 O 0.8512(4) 0.6488(4) 0.5000
C4_12 C 0.7000(4) 0.5695(5) 0.7000(4)
C5_12 C 0.6790(4) 0.6138(5) 0.6790(4)
O3_12 O 0.6826(4) 0.5533(3) 0.7427(3)
C6_12 C 0.6975(7) 0.6342(4) 0.6342(4)
H2_12 H 0.7230 0.6175 0.6175
C7_12 C 0.5695(5) 0.7000(4) 0.7000(4)
C8_12 C 0.6138(5) 0.6790(4) 0.6790(4)
O4_12 O 0.5533(3) 0.7427(3) 0.6826(4)
C9_12 C 0.6342(4) 0.6342(4) 0.6975(7)
H3_12 H 0.6175 0.6175 0.7230
O5_5 O 0.7427(3) 0.5533(3) 0.6826(4)
O6_12 O 0.5533(3) 0.6826(4) 0.7427(3)
O7_12 O 0.6826(4) 0.7427(3) 0.5533(3)
C10_14 C 0.7000(4) 0.5695(5) 0.3000(4)
C11_14 C 0.6790(4) 0.6138(5) 0.3210(4)
O8_5 O 0.7427(3) 0.5533(3) 0.3174(4)
C12_14 C 0.6342(4) 0.6342(4) 0.3025(7)
H4_14 H 0.6175 0.6175 0.2770
O9_11 O 0.8512(4) 0.5000 0.3512(4)
C13_14 C 0.7000(4) 0.7000(4) 0.4305(5)
C14_14 C 0.6790(4) 0.6790(4) 0.3862(5)
O10_14 O 0.6826(4) 0.7427(3) 0.4467(3)
C15_14 C 0.6975(7) 0.6342(4) 0.3658(4)
H5_14 H 0.7230 0.6175 0.3825
C16_14 C 0.5695(5) 0.7000(4) 0.3000(4)
C17_14 C 0.6138(5) 0.6790(4) 0.3210(4)
O11_14 O 0.5533(3) 0.6826(4) 0.2573(3)
C18_14 C 0.6342(4) 0.6975(7) 0.3658(4)
H6_14 H 0.6175 0.7230 0.3825
O12_5 O 0.7427(3) 0.6826(4) 0.4467(3)
O13_14 O 0.5533(3) 0.7427(3) 0.3174(4)
O14_14 O 0.6826(4) 0.5533(3) 0.2573(3)
O15_11 O 0.8512(4) 0.5000 0.6488(4)
O16_5 O 0.7427(3) 0.4467(3) 0.6826(4)
O23_5 O 0.7427(3) 0.4467(3) 0.3174(4)
O9_12 O -0.0000 0.3512(4) 0.3512(4)
O15_12 O 0.0000 0.3512(4) 0.6488(4)
O2_11 O 0.8512(4) 0.3512(4) 0.5000
O9_13 O 1.0000 0.3512(4) 0.3512(4)
O15_13 O 1.0000 0.3512(4) 0.6488(4)
O19_6 O 0.7427(3) 0.3174(4) 0.4467(3)
O22_6 O 0.7427(3) 0.3174(4) 0.5533(3)
C1_13 C 0.3000(4) 0.3000(4) 0.5695(5)
C2_13 C 0.3210(4) 0.3210(4) 0.6138(5)
O1_6 O 0.2573(3) 0.3174(4) 0.5533(3)
C3_13 C 0.3658(4) 0.3025(7) 0.6342(4)
H1_13 H 0.3825 0.2770 0.6175
O2_12 O 0.1488(4) 0.3512(4) 0.5000
C4_13 C 0.3000(4) 0.4305(5) 0.7000(4)
C5_13 C 0.3210(4) 0.3862(5) 0.6790(4)
O3_13 O 0.3174(4) 0.4467(3) 0.7427(3)
C6_13 C 0.3025(7) 0.3658(4) 0.6342(4)
H2_13 H 0.2770 0.3825 0.6175
C7_13 C 0.4305(5) 0.3000(4) 0.7000(4)
C8_13 C 0.3862(5) 0.3210(4) 0.6790(4)
O4_13 O 0.4467(3) 0.2573(3) 0.6826(4)
C9_13 C 0.3658(4) 0.3658(4) 0.6975(7)
H3_13 H 0.3825 0.3825 0.7230
O5_6 O 0.2573(3) 0.4467(3) 0.6826(4)
O6_13 O 0.4467(3) 0.3174(4) 0.7427(3)
O7_13 O 0.3174(4) 0.2573(3) 0.5533(3)
C10_15 C 0.3000(4) 0.4305(5) 0.3000(4)
C11_15 C 0.3210(4) 0.3862(5) 0.3210(4)
O8_6 O 0.2573(3) 0.4467(3) 0.3174(4)
C12_15 C 0.3658(4) 0.3658(4) 0.3025(7)
H4_15 H 0.3825 0.3825 0.2770
O9_14 O 0.1488(4) 0.5000 0.3512(4)
C13_15 C 0.3000(4) 0.3000(4) 0.4305(5)
C14_15 C 0.3210(4) 0.3210(4) 0.3862(5)
O10_15 O 0.3174(4) 0.2573(3) 0.4467(3)
C15_15 C 0.3025(7) 0.3658(4) 0.3658(4)
H5_15 H 0.2770 0.3825 0.3825
C16_15 C 0.4305(5) 0.3000(4) 0.3000(4)
C17_15 C 0.3862(5) 0.3210(4) 0.3210(4)
O11_15 O 0.4467(3) 0.3174(4) 0.2573(3)
C18_15 C 0.3658(4) 0.3025(7) 0.3658(4)
H6_15 H 0.3825 0.2770 0.3825
O12_6 O 0.2573(3) 0.3174(4) 0.4467(3)
O13_15 O 0.4467(3) 0.2573(3) 0.3174(4)
O14_15 O 0.3174(4) 0.4467(3) 0.2573(3)
O15_14 O 0.1488(4) 0.5000 0.6488(4)
O16_6 O 0.2573(3) 0.5533(3) 0.6826(4)
O23_6 O 0.2573(3) 0.5533(3) 0.3174(4)
C1_14 C 0.3000(4) 0.5695(5) 0.7000(4)
C2_14 C 0.3210(4) 0.6138(5) 0.6790(4)
C3_14 C 0.3658(4) 0.6342(4) 0.6975(7)
H1_14 H 0.3825 0.6175 0.7230
C4_14 C 0.3000(4) 0.7000(4) 0.5695(5)
C5_14 C 0.3210(4) 0.6790(4) 0.6138(5)
O3_14 O 0.3174(4) 0.7427(3) 0.5533(3)
C6_14 C 0.3025(7) 0.6342(4) 0.6342(4)
H2_14 H 0.2770 0.6175 0.6175
C7_14 C 0.4305(5) 0.7000(4) 0.7000(4)
C8_14 C 0.3862(5) 0.6790(4) 0.6790(4)
O4_14 O 0.4467(3) 0.6826(4) 0.7427(3)
C9_14 C 0.3658(4) 0.6975(7) 0.6342(4)
H3_14 H 0.3825 0.7230 0.6175
O6_14 O 0.4467(3) 0.7427(3) 0.6826(4)
O7_14 O 0.3174(4) 0.5533(3) 0.7427(3)
C1_15 C 0.7000(4) 0.4305(5) 0.7000(4)
C2_15 C 0.6790(4) 0.3862(5) 0.6790(4)
C3_15 C 0.6342(4) 0.3658(4) 0.6975(7)
H1_15 H 0.6175 0.3825 0.7230
C4_15 C 0.7000(4) 0.3000(4) 0.5695(5)
C5_15 C 0.6790(4) 0.3210(4) 0.6138(5)
O3_15 O 0.6826(4) 0.2573(3) 0.5533(3)
C6_15 C 0.6975(7) 0.3658(4) 0.6342(4)
H2_15 H 0.7230 0.3825 0.6175
C7_15 C 0.5695(5) 0.3000(4) 0.7000(4)
C8_15 C 0.6138(5) 0.3210(4) 0.6790(4)
O4_15 O 0.5533(3) 0.3174(4) 0.7427(3)
C9_15 C 0.6342(4) 0.3025(7) 0.6342(4)
H3_15 H 0.6175 0.2770 0.6175
O6_15 O 0.5533(3) 0.2573(3) 0.6826(4)
O7_15 O 0.6826(4) 0.4467(3) 0.7427(3)
C10_16 C 0.7000(4) 0.3000(4) 0.4305(5)
C11_16 C 0.6790(4) 0.3210(4) 0.3862(5)
C12_16 C 0.6342(4) 0.3025(7) 0.3658(4)
H4_16 H 0.6175 0.2770 0.3825
C13_16 C 0.7000(4) 0.4305(5) 0.3000(4)
C14_16 C 0.6790(4) 0.3862(5) 0.3210(4)
O10_16 O 0.6826(4) 0.4467(3) 0.2573(3)
C15_16 C 0.6975(7) 0.3658(4) 0.3658(4)
H5_16 H 0.7230 0.3825 0.3825
C16_16 C 0.5695(5) 0.3000(4) 0.3000(4)
C17_16 C 0.6138(5) 0.3210(4) 0.3210(4)
O11_16 O 0.5533(3) 0.2573(3) 0.3174(4)
C18_16 C 0.6342(4) 0.3658(4) 0.3025(7)
H6_16 H 0.6175 0.3825 0.2770
O13_16 O 0.5533(3) 0.3174(4) 0.2573(3)
O14_16 O 0.6826(4) 0.2573(3) 0.4467(3)
C10_17 C 0.3000(4) 0.7000(4) 0.4305(5)
C11_17 C 0.3210(4) 0.6790(4) 0.3862(5)
C12_17 C 0.3658(4) 0.6975(7) 0.3658(4)
H4_17 H 0.3825 0.7230 0.3825
C13_17 C 0.3000(4) 0.5695(5) 0.3000(4)
C14_17 C 0.3210(4) 0.6138(5) 0.3210(4)
O10_17 O 0.3174(4) 0.5533(3) 0.2573(3)
C15_17 C 0.3025(7) 0.6342(4) 0.3658(4)
H5_17 H 0.2770 0.6175 0.3825
C16_17 C 0.4305(5) 0.7000(4) 0.3000(4)
C17_17 C 0.3862(5) 0.6790(4) 0.3210(4)
O11_17 O 0.4467(3) 0.7427(3) 0.3174(4)
C18_17 C 0.3658(4) 0.6342(4) 0.3025(7)
H6_17 H 0.3825 0.6175 0.2770
O13_17 O 0.4467(3) 0.6826(4) 0.2573(3)
O14_17 O 0.3174(4) 0.7427(3) 0.4467(3)
O2_13 O 0.6488(4) 0.1488(4) 0.5000
O9_15 O 0.5000 0.1488(4) 0.3512(4)
O15_15 O 0.5000 0.1488(4) 0.6488(4)
O2_14 O 0.3512(4) 0.1488(4) 0.5000
O9_16 O 0.3512(4) 0.0000 0.3512(4)
O15_16 O 0.3512(4) -0.0000 0.6488(4)
O9_17 O 0.3512(4) 1.0000 0.3512(4)
O15_17 O 0.3512(4) 1.0000 0.6488(4)
O2_15 O 0.3512(4) 0.8512(4) 0.5000
O9_18 O 0.5000 0.8512(4) 0.3512(4)
O15_18 O 0.5000 0.8512(4) 0.6488(4)
O9_19 O 0.6488(4) 0.0000 0.3512(4)
O15_19 O 0.6488(4) 0.0000 0.6488(4)
O2_16 O 0.6488(4) 0.8512(4) 0.5000
O9_20 O 0.6488(4) 1.0000 0.3512(4)
O15_20 O 0.6488(4) 1.0000 0.6488(4)
O2_17 O 0.6488(4) 0.6488(4) 0.0000
O15_21 O 0.5000 0.6488(4) 0.1488(4)
O2_18 O 0.6488(4) 0.6488(4) 1.0000
O9_21 O 0.5000 0.6488(4) 0.8512(4)
O2_19 O 0.3512(4) 0.6488(4) 0.0000
O15_22 O 0.3512(4) 0.5000 0.1488(4)
O2_20 O 0.3512(4) 0.6488(4) 1.0000
O9_22 O 0.3512(4) 0.5000 0.8512(4)
O2_21 O 0.3512(4) 0.3512(4) 0.0000
O15_23 O 0.5000 0.3512(4) 0.1488(4)
O2_22 O 0.3512(4) 0.3512(4) 1.0000
O9_23 O 0.5000 0.3512(4) 0.8512(4)
O2_23 O 0.6488(4) 0.3512(4) 0.0000
O15_24 O 0.6488(4) 0.5000 0.1488(4)
O2_24 O 0.6488(4) 0.3512(4) 1.0000
O9_24 O 0.6488(4) 0.5000 0.8512(4)
loop_
_geom_bond_atom_site_label_1
_geom_bond_atom_site_label_2
_geom_bond_site_symmetry_1
_geom_bond_site_symmetry_2
C1 C2 1_555 1_555
C2 C3 1_555 1_555
Fe1 O1 1_555 1_555
O1 C1 1_555 1_555
C3 H1 1_555 1_555
O2 Fe1 1_555 1_555
C4 C5 1_555 1_555
C5 C6 1_555 1_555
O3 C4 1_555 1_555
C6 C2 1_555 1_555
H2 C6 1_555 1_555
C7 C8 1_555 1_555
C8 C3 1_555 1_555
O4 C7 1_555 1_555
C9 C5 1_555 1_555
H3 C9 1_555 1_555
O5 C4 1_555 1_555
O6 C7 1_555 1_555
O7 C1 1_555 1_555
Fe3 O5 1_555 1_555
O15 Fe3 1_555 1_555
Fe5 O6 1_555 1_555
Fe6 O3 1_555 1_555
Fe8 Fe1 1_555 1_555
Fe9 O4 1_555 1_555
O17 Fe3 1_555 1_555
O22 Fe1 1_555 1_555
C8 C9 1_555 1_555
O7 Fe8 1_555 1_555
Fe3 Fe6 1_555 1_555
Fe5 Fe9 1_555 1_555
O2_2 Fe1_2 1_555 1_555
C10 C11 1_555 1_555
C11 C12 1_555 1_555
Fe2 O8 1_555 1_555
O8 C10 1_555 1_555
C12 H4 1_555 1_555
O9 Fe2 1_555 1_555
C13 C14 1_555 1_555
C14 C15 1_555 1_555
O10 C13 1_555 1_555
C15 C11 1_555 1_555
H5 C15 1_555 1_555
C16 C17 1_555 1_555
C17 C12 1_555 1_555
O11 C16 1_555 1_555
C18 C14 1_555 1_555
H6 C18 1_555 1_555
O12 Fe1_2 1_555 1_555
O13 C16 1_555 1_555
O14 C10 1_555 1_555
Fe4 O11 1_555 1_555
Fe7 Fe2 1_555 1_555
Fe8_2 Fe1_2 1_555 1_555
Fe10 O13 1_555 1_555
O19 Fe1_2 1_555 1_555
O21 Fe2 1_555 1_555
C13 O12 1_555 1_555
O10 Fe8_2 1_555 1_555
C17 C18 1_555 1_555
O14 Fe7 1_555 1_555
Fe4 Fe10 1_555 1_555
O15_2 Fe3_2 1_555 1_555
O16 Fe3_2 1_555 1_555
O20 Fe3_2 1_555 1_555
Fe3_2 Fe6_2 1_555 1_555
O9_2 Fe2_2 1_555 1_555
Fe7_2 Fe2_2 1_555 1_555
O18 Fe2_2 1_555 1_555
O23 Fe2_2 1_555 1_555
C1_2 C2_2 1_555 1_555
C2_2 C3_2 1_555 1_555
Fe1_3 O1_2 1_555 1_555
O1_2 C1_2 1_555 1_555
C3_2 H1_2 1_555 1_555
O2_3 Fe1_3 1_555 1_555
C4_2 C5_2 1_555 1_555
C5_2 C6_2 1_555 1_555
O3_2 C4_2 1_555 1_555
C6_2 C2_2 1_555 1_555
H2_2 C6_2 1_555 1_555
C7_2 C8_2 1_555 1_555
C8_2 C3_2 1_555 1_555
O4_2 C7_2 1_555 1_555
C9_2 C5_2 1_555 1_555
H3_2 C9_2 1_555 1_555
O5_2 C4_2 1_555 1_555
O6_2 C7_2 1_555 1_555
O7_2 C1_2 1_555 1_555
Fe3_3 O5_2 1_555 1_555
O15_3 Fe3_3 1_555 1_555
Fe5_2 O6_2 1_555 1_555
Fe6_3 O3_2 1_555 1_555
Fe8_3 Fe1_3 1_555 1_555
Fe9_2 O4_2 1_555 1_555
O17_2 Fe3_3 1_555 1_555
O22_2 Fe1_3 1_555 1_555
C8_2 C9_2 1_555 1_555
O7_2 Fe8_3 1_555 1_555
Fe3_3 Fe6_3 1_555 1_555
Fe5_2 Fe9_2 1_555 1_555
O2_4 Fe1_4 1_555 1_555
C10_2 C11_2 1_555 1_555
C11_2 C12_2 1_555 1_555
Fe2_3 O8_2 1_555 1_555
O8_2 C10_2 1_555 1_555
C12_2 H4_2 1_555 1_555
O9_3 Fe2_3 1_555 1_555
C13_2 C14_2 1_555 1_555
C14_2 C15_2 1_555 1_555
O10_2 C13_2 1_555 1_555
C15_2 C11_2 1_555 1_555
H5_2 C15_2 1_555 1_555
C16_2 C17_2 1_555 1_555
C17_2 C12_2 1_555 1_555
O11_2 C16_2 1_555 1_555
C18_2 C14_2 1_555 1_555
H6_2 C18_2 1_555 1_555
O12_2 Fe1_4 1_555 1_555
O13_2 C16_2 1_555 1_555
O14_2 C10_2 1_555 1_555
Fe4_2 O11_2 1_555 1_555
Fe7_3 Fe2_3 1_555 1_555
Fe8_4 Fe1_4 1_555 1_555
Fe10_2 O13_2 1_555 1_555
O19_2 Fe1_4 1_555 1_555
O21_2 Fe2_3 1_555 1_555
C13_2 O12_2 1_555 1_555
O10_2 Fe8_4 1_555 1_555
C17_2 C18_2 1_555 1_555
O14_2 Fe7_3 1_555 1_555
Fe4_2 Fe10_2 1_555 1_555
O15_4 Fe3_4 1_555 1_555
O16_2 Fe3_4 1_555 1_555
O20_2 Fe3_4 1_555 1_555
Fe3_4 Fe6_4 1_555 1_555
O9_4 Fe2_4 1_555 1_555
Fe7_4 Fe2_4 1_555 1_555
O18_2 Fe2_4 1_555 1_555
O23_2 Fe2_4 1_555 1_555
O15_5 Fe3_5 1_555 1_555
O16_3 Fe3_5 1_555 1_555
O20_3 Fe3_5 1_555 1_555
Fe3_5 Fe6_5 1_555 1_555
O9_5 Fe2_5 1_555 1_555
Fe7_5 Fe2_5 1_555 1_555
O18_3 Fe2_5 1_555 1_555
O23_3 Fe2_5 1_555 1_555
C1_3 C2_3 1_555 1_555
C2_3 C3_3 1_555 1_555
Fe1_5 O1_3 1_555 1_555
O1_3 C1_3 1_555 1_555
C3_3 H1_3 1_555 1_555
O2_5 Fe1_5 1_555 1_555
C4_3 C5_3 1_555 1_555
C5_3 C6_3 1_555 1_555
O3_3 C4_3 1_555 1_555
C6_3 C2_3 1_555 1_555
H2_3 C6_3 1_555 1_555
C7_3 C8_3 1_555 1_555
C8_3 C3_3 1_555 1_555
O4_3 C7_3 1_555 1_555
C9_3 C5_3 1_555 1_555
H3_3 C9_3 1_555 1_555
O5_3 C4_3 1_555 1_555
O6_3 C7_3 1_555 1_555
O7_3 C1_3 1_555 1_555
Fe3_6 O5_3 1_555 1_555
O15_6 Fe3_6 1_555 1_555
Fe5_3 O6_3 1_555 1_555
Fe6_6 O3_3 1_555 1_555
Fe8_5 Fe1_5 1_555 1_555
Fe9_3 O4_3 1_555 1_555
O17_3 Fe3_6 1_555 1_555
O22_3 Fe1_5 1_555 1_555
C8_3 C9_3 1_555 1_555
O7_3 Fe8_5 1_555 1_555
Fe3_6 Fe6_6 1_555 1_555
Fe5_3 Fe9_3 1_555 1_555
O2_6 Fe1_6 1_555 1_555
C10_3 C11_3 1_555 1_555
C11_3 C12_3 1_555 1_555
Fe2_6 O8_3 1_555 1_555
O8_3 C10_3 1_555 1_555
C12_3 H4_3 1_555 1_555
O9_6 Fe2_6 1_555 1_555
C13_3 C14_3 1_555 1_555
C14_3 C15_3 1_555 1_555
O10_3 C13_3 1_555 1_555
C15_3 C11_3 1_555 1_555
H5_3 C15_3 1_555 1_555
C16_3 C17_3 1_555 1_555
C17_3 C12_3 1_555 1_555
O11_3 C16_3 1_555 1_555
C18_3 C14_3 1_555 1_555
H6_3 C18_3 1_555 1_555
O12_3 Fe1_6 1_555 1_555
O13_3 C16_3 1_555 1_555
O14_3 C10_3 1_555 1_555
Fe4_3 O11_3 1_555 1_555
Fe7_6 Fe2_6 1_555 1_555
Fe8_6 Fe1_6 1_555 1_555
Fe10_3 O13_3 1_555 1_555
O19_3 Fe1_6 1_555 1_555
O21_3 Fe2_6 1_555 1_555
C13_3 O12_3 1_555 1_555
O10_3 Fe8_6 1_555 1_555
C17_3 C18_3 1_555 1_555
O14_3 Fe7_6 1_555 1_555
Fe4_3 Fe10_3 1_555 1_555
O15_7 Fe3_7 1_555 1_555
O16_4 Fe3_7 1_555 1_555
O20_4 Fe3_7 1_555 1_555
Fe3_7 Fe6_7 1_555 1_555
O9_7 Fe2_7 1_555 1_555
Fe7_7 Fe2_7 1_555 1_555
O18_4 Fe2_7 1_555 1_555
O23_4 Fe2_7 1_555 1_555
C1_4 C2_4 1_555 1_555
C2_4 C3_4 1_555 1_555
Fe1_7 O1_4 1_555 1_555
O1_4 C1_4 1_555 1_555
C3_4 H1_4 1_555 1_555
O2_7 Fe1_7 1_555 1_555
C4_4 C5_4 1_555 1_555
C5_4 C6_4 1_555 1_555
O3_4 C4_4 1_555 1_555
C6_4 C2_4 1_555 1_555
H2_4 C6_4 1_555 1_555
C7_4 C8_4 1_555 1_555
C8_4 C3_4 1_555 1_555
O4_4 C7_4 1_555 1_555
C9_4 C5_4 1_555 1_555
H3_4 C9_4 1_555 1_555
O5_4 C4_4 1_555 1_555
O6_4 C7_4 1_555 1_555
O7_4 C1_4 1_555 1_555
Fe3_8 O5_4 1_555 1_555
O15_8 Fe3_8 1_555 1_555
Fe5_4 O6_4 1_555 1_555
Fe6_8 O3_4 1_555 1_555
Fe8_7 Fe1_7 1_555 1_555
Fe9_4 O4_4 1_555 1_555
O17_4 Fe3_8 1_555 1_555
O22_4 Fe1_7 1_555 1_555
C8_4 C9_4 1_555 1_555
O7_4 Fe8_7 1_555 1_555
Fe3_8 Fe6_8 1_555 1_555
Fe5_4 Fe9_4 1_555 1_555
O2_8 Fe1_8 1_555 1_555
C10_4 C11_4 1_555 1_555
C11_4 C12_4 1_555 1_555
Fe2_8 O8_4 1_555 1_555
O8_4 C10_4 1_555 1_555
C12_4 H4_4 1_555 1_555
O9_8 Fe2_8 1_555 1_555
C13_4 C14_4 1_555 1_555
C14_4 C15_4 1_555 1_555
O10_4 C13_4 1_555 1_555
C15_4 C11_4 1_555 1_555
H5_4 C15_4 1_555 1_555
C16_4 C17_4 1_555 1_555
C17_4 C12_4 1_555 1_555
O11_4 C16_4 1_555 1_555
C18_4 C14_4 1_555 1_555
H6_4 C18_4 1_555 1_555
O12_4 Fe1_8 1_555 1_555
O13_4 C16_4 1_555 1_555
O14_4 C10_4 1_555 1_555
Fe4_4 O11_4 1_555 1_555
Fe7_8 Fe2_8 1_555 1_555
Fe8_8 Fe1_8 1_555 1_555
Fe10_4 O13_4 1_555 1_555
O19_4 Fe1_8 1_555 1_555
O21_4 Fe2_8 1_555 1_555
C13_4 O12_4 1_555 1_555
O10_4 Fe8_8 1_555 1_555
C17_4 C18_4 1_555 1_555
O14_4 Fe7_8 1_555 1_555
Fe4_4 Fe10_4 1_555 1_555
C10_5 C11_5 1_555 1_555
C11_5 C12_5 1_555 1_555
O17 C10_5 1_555 1_555
C12_5 H4_5 1_555 1_555
C13_5 C14_5 1_555 1_555
C14_5 C15_5 1_555 1_555
O10_5 C13_5 1_555 1_555
C15_5 C11_5 1_555 1_555
H5_5 C15_5 1_555 1_555
C16_5 C17_5 1_555 1_555
C17_5 C12_5 1_555 1_555
O11_5 C16_5 1_555 1_555
C18_5 C14_5 1_555 1_555
H6_5 C18_5 1_555 1_555
O13_5 C16_5 1_555 1_555
O14_5 C10_5 1_555 1_555
Fe4_5 O11_5 1_555 1_555
Fe10_5 O13_5 1_555 1_555
C13_5 O20_4 1_555 1_555
O10_5 Fe6_7 1_555 1_555
C17_5 C18_5 1_555 1_555
O14_5 Fe6 1_555 1_555
Fe4_5 Fe10_5 1_555 1_555
C1_5 C2_5 1_555 1_555
C2_5 C3_5 1_555 1_555
O17_4 C1_5 1_555 1_555
C3_5 H1_5 1_555 1_555
C4_5 C5_5 1_555 1_555
C5_5 C6_5 1_555 1_555
O3_5 C4_5 1_555 1_555
C6_5 C2_5 1_555 1_555
H2_5 C6_5 1_555 1_555
C7_5 C8_5 1_555 1_555
C8_5 C3_5 1_555 1_555
O4_5 C7_5 1_555 1_555
C9_5 C5_5 1_555 1_555
H3_5 C9_5 1_555 1_555
O20_3 C4_5 1_555 1_555
O6_5 C7_5 1_555 1_555
O7_5 C1_5 1_555 1_555
Fe5_5 O6_5 1_555 1_555
Fe6_5 O3_5 1_555 1_555
Fe9_5 O4_5 1_555 1_555
C8_5 C9_5 1_555 1_555
O7_5 Fe6_8 1_555 1_555
Fe5_5 Fe9_5 1_555 1_555
C10_6 C11_6 1_555 1_555
C11_6 C12_6 1_555 1_555
O16_3 C10_6 1_555 1_555
C12_6 H4_6 1_555 1_555
C13_6 C14_6 1_555 1_555
C14_6 C15_6 1_555 1_555
O10_6 C13_6 1_555 1_555
C15_6 C11_6 1_555 1_555
H5_6 C15_6 1_555 1_555
C16_6 C17_6 1_555 1_555
C17_6 C12_6 1_555 1_555
O11_6 C16_6 1_555 1_555
C18_6 C14_6 1_555 1_555
H6_6 C18_6 1_555 1_555
O13_6 C16_6 1_555 1_555
O14_6 C10_6 1_555 1_555
Fe5 O11_6 1_555 1_555
Fe9 O13_6 1_555 1_555
C13_6 O22_4 1_555 1_555
O10_6 Fe8_7 1_555 1_555
C17_6 C18_6 1_555 1_555
O14_6 Fe6_5 1_555 1_555
C1_6 C2_6 1_555 1_555
C2_6 C3_6 1_555 1_555
O19_4 C1_6 1_555 1_555
C3_6 H1_6 1_555 1_555
C4_6 C5_6 1_555 1_555
C5_6 C6_6 1_555 1_555
O3_6 C4_6 1_555 1_555
C6_6 C2_6 1_555 1_555
H2_6 C6_6 1_555 1_555
C7_6 C8_6 1_555 1_555
C8_6 C3_6 1_555 1_555
O4_6 C7_6 1_555 1_555
C9_6 C5_6 1_555 1_555
H3_6 C9_6 1_555 1_555
O23_3 C4_6 1_555 1_555
O6_6 C7_6 1_555 1_555
O7_6 C1_6 1_555 1_555
Fe4 O6_6 1_555 1_555
Fe7_5 O3_6 1_555 1_555
Fe10 O4_6 1_555 1_555
C8_6 C9_6 1_555 1_555
O7_6 Fe8_8 1_555 1_555
C1_7 C2_7 1_555 1_555
C2_7 C3_7 1_555 1_555
O18_4 C1_7 1_555 1_555
C3_7 H1_7 1_555 1_555
C4_7 C5_7 1_555 1_555
C5_7 C6_7 1_555 1_555
O3_7 C4_7 1_555 1_555
C6_7 C2_7 1_555 1_555
H2_7 C6_7 1_555 1_555
C7_7 C8_7 1_555 1_555
C8_7 C3_7 1_555 1_555
O4_7 C7_7 1_555 1_555
C9_7 C5_7 1_555 1_555
H3_7 C9_7 1_555 1_555
O21 C4_7 1_555 1_555
O6_7 C7_7 1_555 1_555
O7_7 C1_7 1_555 1_555
Fe4_5 O6_7 1_555 1_555
Fe7 O3_7 1_555 1_555
Fe10_5 O4_7 1_555 1_555
C8_7 C9_7 1_555 1_555
O7_7 Fe7_7 1_555 1_555
C10_7 C11_7 1_555 1_555
C11_7 C12_7 1_555 1_555
O18_3 C10_7 1_555 1_555
C12_7 H4_7 1_555 1_555
C13_7 C14_7 1_555 1_555
C14_7 C15_7 1_555 1_555
O10_7 C13_7 1_555 1_555
C15_7 C11_7 1_555 1_555
H5_7 C15_7 1_555 1_555
C16_7 C17_7 1_555 1_555
C17_7 C12_7 1_555 1_555
O11_7 C16_7 1_555 1_555
C18_7 C14_7 1_555 1_555
H6_7 C18_7 1_555 1_555
O13_7 C16_7 1_555 1_555
O14_7 C10_7 1_555 1_555
Fe5_5 O11_7 1_555 1_555
Fe9_5 O13_7 1_555 1_555
C13_7 O21_4 1_555 1_555
O10_7 Fe7_8 1_555 1_555
C17_7 C18_7 1_555 1_555
O14_7 Fe7_5 1_555 1_555
C10_8 C11_8 1_555 1_555
C11_8 C12_8 1_555 1_555
O19_2 C10_8 1_555 1_555
C12_8 H4_8 1_555 1_555
C13_8 C14_8 1_555 1_555
C14_8 C15_8 1_555 1_555
O10_8 C13_8 1_555 1_555
C15_8 C11_8 1_555 1_555
H5_8 C15_8 1_555 1_555
C16_8 C17_8 1_555 1_555
C17_8 C12_8 1_555 1_555
O11_8 C16_8 1_555 1_555
C18_8 C14_8 1_555 1_555
H6_8 C18_8 1_555 1_555
O13_8 C16_8 1_555 1_555
O14_8 C10_8 1_555 1_555
Fe10_3 O11_8 1_555 1_555
Fe4_3 O13_8 1_555 1_555
C13_8 O23 1_555 1_555
O10_8 Fe7_2 1_555 1_555
C17_8 C18_8 1_555 1_555
O14_8 Fe8_4 1_555 1_555
C10_9 C11_9 1_555 1_555
C11_9 C12_9 1_555 1_555
O16 C10_9 1_555 1_555
C12_9 H4_9 1_555 1_555
C13_9 C14_9 1_555 1_555
C14_9 C15_9 1_555 1_555
O10_9 C13_9 1_555 1_555
C15_9 C11_9 1_555 1_555
H5_9 C15_9 1_555 1_555
C16_9 C17_9 1_555 1_555
C17_9 C12_9 1_555 1_555
O11_9 C16_9 1_555 1_555
C18_9 C14_9 1_555 1_555
H6_9 C18_9 1_555 1_555
O13_9 C16_9 1_555 1_555
O14_9 C10_9 1_555 1_555
Fe5_3 O11_9 1_555 1_555
Fe9_3 O13_9 1_555 1_555
C13_9 O22_2 1_555 1_555
O10_9 Fe8_3 1_555 1_555
C17_9 C18_9 1_555 1_555
O14_9 Fe6_2 1_555 1_555
C10_10 C11_10 1_555 1_555
C11_10 C12_10 1_555 1_555
O17_2 C10_10 1_555 1_555
C12_10 H4_10 1_555 1_555
C13_10 C14_10 1_555 1_555
C14_10 C15_10 1_555 1_555
O10_10 C13_10 1_555 1_555
C15_10 C11_10 1_555 1_555
H5_10 C15_10 1_555 1_555
C16_10 C17_10 1_555 1_555
C17_10 C12_10 1_555 1_555
O11_10 C16_10 1_555 1_555
C18_10 C14_10 1_555 1_555
H6_10 C18_10 1_555 1_555
O13_10 C16_10 1_555 1_555
O14_10 C10_10 1_555 1_555
Fe4_6 O11_10 1_555 1_555
Fe10_6 O13_10 1_555 1_555
C13_10 O20 1_555 1_555
O10_10 Fe6_2 1_555 1_555
C17_10 C18_10 1_555 1_555
O14_10 Fe6_3 1_555 1_555
Fe4_6 Fe10_6 1_555 1_555
C1_8 C2_8 1_555 1_555
C2_8 C3_8 1_555 1_555
O16_4 C1_8 1_555 1_555
C3_8 H1_8 1_555 1_555
C4_8 C5_8 1_555 1_555
C5_8 C6_8 1_555 1_555
O3_8 C4_8 1_555 1_555
C6_8 C2_8 1_555 1_555
H2_8 C6_8 1_555 1_555
C7_8 C8_8 1_555 1_555
C8_8 C3_8 1_555 1_555
O4_8 C7_8 1_555 1_555
C9_8 C5_8 1_555 1_555
H3_8 C9_8 1_555 1_555
O22 C4_8 1_555 1_555
O6_8 C7_8 1_555 1_555
O7_8 C1_8 1_555 1_555
Fe9_2 O6_8 1_555 1_555
Fe8 O3_8 1_555 1_555
Fe5_2 O4_8 1_555 1_555
C8_8 C9_8 1_555 1_555
O7_8 Fe6_7 1_555 1_555
C1_9 C2_9 1_555 1_555
C2_9 C3_9 1_555 1_555
O16_2 C1_9 1_555 1_555
C3_9 H1_9 1_555 1_555
C4_9 C5_9 1_555 1_555
C5_9 C6_9 1_555 1_555
O3_9 C4_9 1_555 1_555
C6_9 C2_9 1_555 1_555
H2_9 C6_9 1_555 1_555
C7_9 C8_9 1_555 1_555
C8_9 C3_9 1_555 1_555
O4_9 C7_9 1_555 1_555
C9_9 C5_9 1_555 1_555
H3_9 C9_9 1_555 1_555
O22_3 C4_9 1_555 1_555
O6_9 C7_9 1_555 1_555
O7_9 C1_9 1_555 1_555
Fe9_4 O6_9 1_555 1_555
Fe8_5 O3_9 1_555 1_555
Fe5_4 O4_9 1_555 1_555
C8_9 C9_9 1_555 1_555
O7_9 Fe6_4 1_555 1_555
C10_11 C11_11 1_555 1_555
C11_11 C12_11 1_555 1_555
O18_2 C10_11 1_555 1_555
C12_11 H4_11 1_555 1_555
C13_11 C14_11 1_555 1_555
C14_11 C15_11 1_555 1_555
O10_11 C13_11 1_555 1_555
C15_11 C11_11 1_555 1_555
H5_11 C15_11 1_555 1_555
C16_11 C17_11 1_555 1_555
C17_11 C12_11 1_555 1_555
O11_11 C16_11 1_555 1_555
C18_11 C14_11 1_555 1_555
H6_11 C18_11 1_555 1_555
O13_11 C16_11 1_555 1_555
O14_11 C10_11 1_555 1_555
Fe4_7 O11_11 1_555 1_555
Fe10_7 O13_11 1_555 1_555
C13_11 O21_3 1_555 1_555
O10_11 Fe7_6 1_555 1_555
C17_11 C18_11 1_555 1_555
O14_11 Fe7_4 1_555 1_555
Fe4_7 Fe10_7 1_555 1_555
C10_12 C11_12 1_555 1_555
C11_12 C12_12 1_555 1_555
O19_3 C10_12 1_555 1_555
C12_12 H4_12 1_555 1_555
C13_12 C14_12 1_555 1_555
C14_12 C15_12 1_555 1_555
O10_12 C13_12 1_555 1_555
C15_12 C11_12 1_555 1_555
H5_12 C15_12 1_555 1_555
C16_12 C17_12 1_555 1_555
C17_12 C12_12 1_555 1_555
O11_12 C16_12 1_555 1_555
C18_12 C14_12 1_555 1_555
H6_12 C18_12 1_555 1_555
O13_12 C16_12 1_555 1_555
O14_12 C10_12 1_555 1_555
Fe10_4 O11_12 1_555 1_555
Fe4_4 O13_12 1_555 1_555
C13_12 O23_2 1_555 1_555
O10_12 Fe7_4 1_555 1_555
C17_12 C18_12 1_555 1_555
O14_12 Fe8_6 1_555 1_555
C1_10 C2_10 1_555 1_555
C2_10 C3_10 1_555 1_555
O17_3 C1_10 1_555 1_555
C3_10 H1_10 1_555 1_555
C4_10 C5_10 1_555 1_555
C5_10 C6_10 1_555 1_555
O3_10 C4_10 1_555 1_555
C6_10 C2_10 1_555 1_555
H2_10 C6_10 1_555 1_555
C7_10 C8_10 1_555 1_555
C8_10 C3_10 1_555 1_555
O4_10 C7_10 1_555 1_555
C9_10 C5_10 1_555 1_555
H3_10 C9_10 1_555 1_555
O20_2 C4_10 1_555 1_555
O6_10 C7_10 1_555 1_555
O7_10 C1_10 1_555 1_555
Fe4_7 O6_10 1_555 1_555
Fe6_4 O3_10 1_555 1_555
Fe10_7 O4_10 1_555 1_555
C8_10 C9_10 1_555 1_555
O7_10 Fe6_6 1_555 1_555
C1_11 C2_11 1_555 1_555
C2_11 C3_11 1_555 1_555
O18 C1_11 1_555 1_555
C3_11 H1_11 1_555 1_555
C4_11 C5_11 1_555 1_555
C5_11 C6_11 1_555 1_555
O3_11 C4_11 1_555 1_555
C6_11 C2_11 1_555 1_555
H2_11 C6_11 1_555 1_555
C7_11 C8_11 1_555 1_555
C8_11 C3_11 1_555 1_555
O4_11 C7_11 1_555 1_555
C9_11 C5_11 1_555 1_555
H3_11 C9_11 1_555 1_555
O21_2 C4_11 1_555 1_555
O6_11 C7_11 1_555 1_555
O7_11 C1_11 1_555 1_555
Fe4_6 O6_11 1_555 1_555
Fe7_3 O3_11 1_555 1_555
Fe10_6 O4_11 1_555 1_555
C8_11 C9_11 1_555 1_555
O7_11 Fe7_2 1_555 1_555
C10_13 C11_13 1_555 1_555
C11_13 C12_13 1_555 1_555
O19 C10_13 1_555 1_555
C12_13 H4_13 1_555 1_555
C13_13 C14_13 1_555 1_555
C14_13 C15_13 1_555 1_555
O10_13 C13_13 1_555 1_555
C15_13 C11_13 1_555 1_555
H5_13 C15_13 1_555 1_555
C16_13 C17_13 1_555 1_555
C17_13 C12_13 1_555 1_555
O11_13 C16_13 1_555 1_555
C18_13 C14_13 1_555 1_555
H6_13 C18_13 1_555 1_555
O13_13 C16_13 1_555 1_555
O14_13 C10_13 1_555 1_555
Fe10_2 O11_13 1_555 1_555
Fe4_2 O13_13 1_555 1_555
C13_13 O23_4 1_555 1_555
O10_13 Fe7_7 1_555 1_555
C17_13 C18_13 1_555 1_555
O14_13 Fe8_2 1_555 1_555
O2_9 Fe5_5 1_555 1_555
O9_9 Fe6_5 1_555 1_555
O15_9 Fe7_5 1_555 1_555
O19_5 Fe5_5 1_555 1_555
O22_5 Fe5_5 1_555 1_555
O9_10 Fe6_6 1_555 1_555
O15_10 Fe7_6 1_555 1_555
C1_12 C2_12 1_555 1_555
C2_12 C3_12 1_555 1_555
Fe10_7 O1_5 1_555 1_555
O1_5 C1_12 1_555 1_555
C3_12 H1_12 1_555 1_555
O2_10 Fe10_7 1_555 1_555
C4_12 C5_12 1_555 1_555
C5_12 C6_12 1_555 1_555
O3_12 C4_12 1_555 1_555
C6_12 C2_12 1_555 1_555
H2_12 C6_12 1_555 1_555
C7_12 C8_12 1_555 1_555
C8_12 C3_12 1_555 1_555
O4_12 C7_12 1_555 1_555
C9_12 C5_12 1_555 1_555
H3_12 C9_12 1_555 1_555
O5_5 C4_12 1_555 1_555
O6_12 C7_12 1_555 1_555
O7_12 C1_12 1_555 1_555
C10_14 C11_14 1_555 1_555
C11_14 C12_14 1_555 1_555
Fe5_3 O8_5 1_555 1_555
O8_5 C10_14 1_555 1_555
C12_14 H4_14 1_555 1_555
O9_11 Fe5_3 1_555 1_555
C13_14 C14_14 1_555 1_555
C14_14 C15_14 1_555 1_555
O10_14 C13_14 1_555 1_555
C15_14 C11_14 1_555 1_555
H5_14 C15_14 1_555 1_555
C16_14 C17_14 1_555 1_555
C17_14 C12_14 1_555 1_555
O11_14 C16_14 1_555 1_555
C18_14 C14_14 1_555 1_555
H6_14 C18_14 1_555 1_555
O12_5 Fe10_7 1_555 1_555
O13_14 C16_14 1_555 1_555
O14_14 C10_14 1_555 1_555
Fe4_3 O5_5 1_555 1_555
O15_11 Fe4_3 1_555 1_555
Fe9_4 O11_14 1_555 1_555
Fe10_4 O6_12 1_555 1_555
Fe10_3 O3_12 1_555 1_555
Fe4_4 O4_12 1_555 1_555
Fe5_4 O13_14 1_555 1_555
O16_5 Fe4_3 1_555 1_555
O23_5 Fe5_3 1_555 1_555
C8_12 C9_12 1_555 1_555
O7_12 Fe4_7 1_555 1_555
C13_14 O12_5 1_555 1_555
O10_14 Fe4_7 1_555 1_555
C17_14 C18_14 1_555 1_555
O14_14 Fe9_3 1_555 1_555
O9_12 Fe6 1_555 1_555
O15_12 Fe7 1_555 1_555
O2_11 Fe10_6 1_555 1_555
O9_13 Fe6_2 1_555 1_555
O15_13 Fe7_2 1_555 1_555
O19_6 Fe10_6 1_555 1_555
O22_6 Fe10_6 1_555 1_555
C1_13 C2_13 1_555 1_555
C2_13 C3_13 1_555 1_555
Fe4_5 O1_6 1_555 1_555
O1_6 C1_13 1_555 1_555
C3_13 H1_13 1_555 1_555
O2_12 Fe4_5 1_555 1_555
C4_13 C5_13 1_555 1_555
C5_13 C6_13 1_555 1_555
O3_13 C4_13 1_555 1_555
C6_13 C2_13 1_555 1_555
H2_13 C6_13 1_555 1_555
C7_13 C8_13 1_555 1_555
C8_13 C3_13 1_555 1_555
O4_13 C7_13 1_555 1_555
C9_13 C5_13 1_555 1_555
H3_13 C9_13 1_555 1_555
O5_6 C4_13 1_555 1_555
O6_13 C7_13 1_555 1_555
O7_13 C1_13 1_555 1_555
C10_15 C11_15 1_555 1_555
C11_15 C12_15 1_555 1_555
Fe5 O8_6 1_555 1_555
O8_6 C10_15 1_555 1_555
C12_15 H4_15 1_555 1_555
O9_14 Fe5 1_555 1_555
C13_15 C14_15 1_555 1_555
C14_15 C15_15 1_555 1_555
O10_15 C13_15 1_555 1_555
C15_15 C11_15 1_555 1_555
H5_15 C15_15 1_555 1_555
C16_15 C17_15 1_555 1_555
C17_15 C12_15 1_555 1_555
O11_15 C16_15 1_555 1_555
C18_15 C14_15 1_555 1_555
H6_15 C18_15 1_555 1_555
O12_6 Fe4_5 1_555 1_555
O13_15 C16_15 1_555 1_555
O14_15 C10_15 1_555 1_555
Fe4 O5_6 1_555 1_555
O15_14 Fe4 1_555 1_555
Fe9_2 O11_15 1_555 1_555
Fe10_2 O6_13 1_555 1_555
Fe10 O3_13 1_555 1_555
Fe4_2 O4_13 1_555 1_555
Fe5_2 O13_15 1_555 1_555
O16_6 Fe4 1_555 1_555
O23_6 Fe5 1_555 1_555
C8_13 C9_13 1_555 1_555
O7_13 Fe10_5 1_555 1_555
C13_15 O12_6 1_555 1_555
O10_15 Fe10_5 1_555 1_555
C17_15 C18_15 1_555 1_555
O14_15 Fe9 1_555 1_555
C1_14 C2_14 1_555 1_555
C2_14 C3_14 1_555 1_555
O16_6 C1_14 1_555 1_555
C3_14 H1_14 1_555 1_555
C4_14 C5_14 1_555 1_555
C5_14 C6_14 1_555 1_555
O3_14 C4_14 1_555 1_555
C6_14 C2_14 1_555 1_555
H2_14 C6_14 1_555 1_555
C7_14 C8_14 1_555 1_555
C8_14 C3_14 1_555 1_555
O4_14 C7_14 1_555 1_555
C9_14 C5_14 1_555 1_555
H3_14 C9_14 1_555 1_555
O22_5 C4_14 1_555 1_555
O6_14 C7_14 1_555 1_555
O7_14 C1_14 1_555 1_555
Fe4_4 O6_14 1_555 1_555
Fe9_5 O3_14 1_555 1_555
Fe10_4 O4_14 1_555 1_555
C8_14 C9_14 1_555 1_555
O7_14 Fe10 1_555 1_555
C1_15 C2_15 1_555 1_555
C2_15 C3_15 1_555 1_555
O16_5 C1_15 1_555 1_555
C3_15 H1_15 1_555 1_555
C4_15 C5_15 1_555 1_555
C5_15 C6_15 1_555 1_555
O3_15 C4_15 1_555 1_555
C6_15 C2_15 1_555 1_555
H2_15 C6_15 1_555 1_555
C7_15 C8_15 1_555 1_555
C8_15 C3_15 1_555 1_555
O4_15 C7_15 1_555 1_555
C9_15 C5_15 1_555 1_555
H3_15 C9_15 1_555 1_555
O22_6 C4_15 1_555 1_555
O6_15 C7_15 1_555 1_555
O7_15 C1_15 1_555 1_555
Fe4_2 O6_15 1_555 1_555
Fe4_6 O3_15 1_555 1_555
Fe10_2 O4_15 1_555 1_555
C8_15 C9_15 1_555 1_555
O7_15 Fe10_3 1_555 1_555
C10_16 C11_16 1_555 1_555
C11_16 C12_16 1_555 1_555
O19_6 C10_16 1_555 1_555
C12_16 H4_16 1_555 1_555
C13_16 C14_16 1_555 1_555
C14_16 C15_16 1_555 1_555
O10_16 C13_16 1_555 1_555
C15_16 C11_16 1_555 1_555
H5_16 C15_16 1_555 1_555
C16_16 C17_16 1_555 1_555
C17_16 C12_16 1_555 1_555
O11_16 C16_16 1_555 1_555
C18_16 C14_16 1_555 1_555
H6_16 C18_16 1_555 1_555
O13_16 C16_16 1_555 1_555
O14_16 C10_16 1_555 1_555
Fe5_2 O11_16 1_555 1_555
Fe9_2 O13_16 1_555 1_555
C13_16 O23_5 1_555 1_555
O10_16 Fe9_3 1_555 1_555
C17_16 C18_16 1_555 1_555
O14_16 Fe4_6 1_555 1_555
C10_17 C11_17 1_555 1_555
C11_17 C12_17 1_555 1_555
O19_5 C10_17 1_555 1_555
C12_17 H4_17 1_555 1_555
C13_17 C14_17 1_555 1_555
C14_17 C15_17 1_555 1_555
O10_17 C13_17 1_555 1_555
C15_17 C11_17 1_555 1_555
H5_17 C15_17 1_555 1_555
C16_17 C17_17 1_555 1_555
C17_17 C12_17 1_555 1_555
O11_17 C16_17 1_555 1_555
C18_17 C14_17 1_555 1_555
H6_17 C18_17 1_555 1_555
O13_17 C16_17 1_555 1_555
O14_17 C10_17 1_555 1_555
Fe5_4 O11_17 1_555 1_555
Fe9_4 O13_17 1_555 1_555
C13_17 O23_6 1_555 1_555
O10_17 Fe9 1_555 1_555
C17_17 C18_17 1_555 1_555
O14_17 Fe9_5 1_555 1_555
O2_13 Fe4_6 1_555 1_555
O9_15 Fe5_2 1_555 1_555
O15_15 Fe4_2 1_555 1_555
O2_14 Fe10_5 1_555 1_555
O9_16 Fe6_7 1_555 1_555
O15_16 Fe7_7 1_555 1_555
O9_17 Fe6_8 1_555 1_555
O15_17 Fe7_8 1_555 1_555
O2_15 Fe9_5 1_555 1_555
O9_18 Fe5_4 1_555 1_555
O15_18 Fe4_4 1_555 1_555
O9_19 Fe6_3 1_555 1_555
O15_19 Fe7_3 1_555 1_555
O2_16 Fe4_7 1_555 1_555
O9_20 Fe6_4 1_555 1_555
O15_20 Fe7_4 1_555 1_555
O2_17 Fe8_5 1_555 1_555
O15_21 Fe9_4 1_555 1_555
O2_18 Fe8_6 1_555 1_555
O9_21 Fe10_4 1_555 1_555
O2_19 Fe8_7 1_555 1_555
O15_22 Fe9 1_555 1_555
O2_20 Fe8_8 1_555 1_555
O9_22 Fe10 1_555 1_555
O2_21 Fe8 1_555 1_555
O15_23 Fe9_2 1_555 1_555
O2_22 Fe8_2 1_555 1_555
O9_23 Fe10_2 1_555 1_555
O2_23 Fe8_3 1_555 1_555
O15_24 Fe9_3 1_555 1_555
O2_24 Fe8_4 1_555 1_555
O9_24 Fe10_3 1_555 1_555

#END
