
###############################################################################
#
# This file contains modified crystal structure data generated from the
# MOF subset of the Cambridge Structural Database (CSD) v543 
# hosted by the Cambridge Crystallographic Data Centre (CCDC).
#
# This work is licensed under the Creative Commons
# Attribution-NonCommercial-ShareAlike 4.0 International License.
# To view a copy of this license, visit
# http://creativecommons.org/licenses/by-nc-sa/4.0/
# or send a letter to
# Creative Commons, PO Box 1866, Mountain View, CA 94042, USA.
#
# CIF created using the CSD Python API on 29 September 2022
# The structure has been converted into the P1 space group
# The structure has a 3D framework
# The original CSD entry ZOHJOY is in the orthorhombic crystal system
# The original CSD entry ZOHJOY is in a Sohncke space group
# The framework has been calculated to contain at least 10.0% void space
# The void calculation uses a probe of radius 1.32A, grid spacing 0.4
#
###############################################################################

data_ZOHJOY
_chemical_formula_moiety         '(C336 H230 Mn24 N24 O164 P24)n'
_symmetry_cell_setting           triclinic
_symmetry_space_group_name_H-M   'P 1'
_symmetry_Int_Tables_number      1
_space_group_name_Hall           'P 1'
loop_
_symmetry_equiv_pos_site_id
_symmetry_equiv_pos_as_xyz
1 x,y,z
_cell_length_a                   20.538(10)
_cell_length_b                   29.027(13)
_cell_length_c                   34.825(15)
_cell_angle_alpha                90
_cell_angle_beta                 90
_cell_angle_gamma                90
_cell_volume                     20761.2
loop_
_atom_site_label
_atom_site_type_symbol
_atom_site_fract_x
_atom_site_fract_y
_atom_site_fract_z
P1 P 0.2324(5) 0.2727(3) 0.1121(2)
O1 O 0.1054(8) 0.0870(5) 0.2334(4)
O2 O 0.2998(9) 0.5379(6) 0.1590(5)
O3 O 0.1114(8) 0.1209(5) 0.3164(4)
O4 O 0.4329(10) 0.4439(7) 0.0119(6)
C1 C 0.1301(16) 0.1856(8) 0.1270(8)
H1 H 0.1103 0.2025 0.1075
O6 O 0.3662(10) 0.5160(6) 0.2064(6)
O7 O 0.0131(12) 0.1098(7) 0.2030(6)
O8 O 0.2347(9) 0.2163(6) 0.1087(5)
O9 O 0.4136(9) 0.4778(5) 0.0627(4)
O10 O 0.2091(10) 0.1527(5) 0.3301(5)
C2 C 0.1159(17) 0.1351(8) 0.1799(8)
C3 C 0.2260(16) 0.1663(8) 0.1593(7)
H2 H 0.2711 0.1681 0.1605
C4 C 0.1845(16) 0.1397(8) 0.1852(7)
H3 H 0.2037 0.1250 0.2060
C5 C 0.3801(16) 0.3589(9) 0.0366(7)
H4 H 0.3944 0.3606 0.0113
C6 C 0.3317(16) 0.3580(9) 0.1077(7)
H5 H 0.3147 0.3550 0.1323
C7 C 0.3579(16) 0.4007(10) 0.0966(7)
H6 H 0.3561 0.4266 0.1123
C8 C 0.1532(15) 0.1525(9) 0.3119(7)
O13 O 0.3031(10) 0.2798(6) 0.1004(5)
C9 C 0.3566(16) 0.3208(10) 0.0471(7)
H7 H 0.3573 0.2950 0.0313
C10 C 0.3873(17) 0.4011(10) 0.0600(7)
P2 P 0.1297(5) 0.3292(2) 0.0937(2)
P3 P 0.1580(5) 0.3123(3) 0.1690(2)
O14 O 0.1732(9) 0.3474(6) 0.2015(4)
O15 O 0.1462(9) 0.3796(6) 0.0771(5)
N1 N 0.1809(11) 0.2968(8) 0.0846(6)
C11 C 0.1748(16) 0.3911(10) 0.0423(9)
N2 N 0.1126(12) 0.3342(7) 0.1385(6)
N3 N 0.2200(15) 0.2886(7) 0.1550(6)
O16 O 0.1108(8) 0.2809(5) 0.1922(4)
C12 C 0.1531(15) 0.3670(9) 0.0100(8)
H8 H 0.1190 0.3459 0.0100
C13 C 0.1873(17) 0.1883(9) 0.1329(8)
C14 C 0.068(2) 0.1108(9) 0.2068(8)
O17 O 0.0662(10) 0.3198(6) 0.0712(5)
C15 C 0.0014(13) 0.2677(10) 0.1008(8)
H9 H 0.0009 0.2889 0.1208
C16 C 0.0958(15) 0.1575(8) 0.1494(7)
H10 H 0.0524 0.1532 0.1426
C17 C 0.280(2) 0.4673(11) 0.1852(9)
C18 C 0.0883(13) 0.1916(8) 0.2642(7)
H11 H 0.0546 0.1727 0.2726
C19 C 0.1232(14) 0.2476(9) 0.2249(8)
C20 C 0.0752(14) 0.2227(8) 0.2346(7)
H12 H 0.0346 0.2250 0.2229
C22 C 0.1422(13) 0.1877(8) 0.2800(6)
C24 C 0.322(2) 0.5087(12) 0.1875(10)
C25 C 0.3076(18) 0.4335(9) 0.2118(8)
H14 H 0.3447 0.4386 0.2266
C26 C 0.0359(14) 0.2780(10) 0.0707(8)
C27 C 0.2199(14) 0.4240(9) 0.0413(8)
H15 H 0.2303 0.4402 0.0635
C28 C 0.1979(13) 0.2133(8) 0.2691(7)
H16 H 0.2391 0.2099 0.2798
C31 C 0.0382(13) 0.2472(9) 0.0407(8)
H17 H 0.0622 0.2545 0.0189
C32 C 0.2513(15) 0.4341(9) 0.0071(8)
H18 H 0.2813 0.4581 0.0071
C33 C 0.1907(18) 0.4217(10) 0.1690(8)
H19 H 0.1528 0.4175 0.1548
C34 C 0.2205(18) 0.4605(10) 0.1645(8)
H20 H 0.2039 0.4832 0.1484
C35 C 0.0080(13) 0.2085(10) 0.0421(8)
H21 H 0.0115 0.1881 0.0216
C36 C 0.210(2) 0.3852(12) 0.1931(9)
C37 C 0.3302(17) 0.3194(10) 0.0829(7)
C39 C 0.1804(13) 0.2468(8) 0.2376(7)
H22 H 0.2117 0.2667 0.2276
C40 C 0.2696(18) 0.3905(10) 0.2124(9)
H23 H 0.2859 0.3655 0.2261
C41 C 0.4114(17) 0.4415(11) 0.0459(8)
Mn1 Mn 0.3422(2) 0.59396(12) 0.12907(10)
Mn2 Mn 0.4385(2) 0.56744(12) 0.21300(10)
Mn3 Mn 0.4249(3) 0.54951(13) 0.05000(10)
O19 O 0.4338(8) 0.5535(5) 0.1152(4)
H25 H 0.4332 0.5231 0.1269
H26 H 0.4728 0.5698 0.1230
O20 O 0.5000 0.5209(8) 0.2500
O21 O 0.4825(10) 0.5307(6) 0.1598(8)
H27 H 0.5246 0.5040 0.2350
H28 H 0.5235 0.5341 0.1590
H29 H 0.4692 0.5033 0.1565
H30 H 0.4754 0.5040 0.2650
O33 O 0.3258(10) 0.5549(7) 0.0590(5)
O39 O 0.2546(11) 0.6011(7) 0.0914(7)
C63 C 0.2752(19) 0.5798(10) 0.0636(9)
C80 C 0.2410(16) 0.5888(10) 0.0263(8)
C84 C 0.1915(15) 0.6206(9) 0.0234(8)
H54 H 0.1813 0.6363 0.0460
O43 O 0.3946(8) 0.5870(5) 0.2666(4)
O45 O 0.3886(8) 0.6209(5) 0.1836(4)
O46 O 0.3875(9) 0.6508(5) 0.1013(5)
O48 O 0.5131(12) 0.6098(7) 0.2030(6)
O51 O 0.2909(10) 0.6527(5) 0.1699(5)
O52 O 0.4449(9) 0.6213(5) 0.0529(5)
Mn10 Mn 0.1578(2) 0.09396(12) 0.37093(10)
Mn11 Mn 0.5615(2) 0.56744(12) 0.28700(10)
Mn15 Mn 0.0615(2) 0.06744(12) 0.28700(10)
O12 O 0.3258(10) 0.4451(7) 0.9410(5)
O18 O 0.2546(11) 0.3989(7) 0.9086(7)
C21 C 0.2752(19) 0.4202(10) 0.9364(9)
C38 C 0.2410(16) 0.4112(10) 0.9737(8)
C42 C 0.1915(15) 0.3794(9) 0.9766(8)
H24 H 0.1813 0.3637 0.9540
P4 P 0.2324(5) 0.7273(3) 0.8879(2)
O22 O 0.1054(8) 0.9130(5) 0.7666(4)
O23 O 0.2998(9) 0.4621(6) 0.8410(5)
O24 O 0.1114(8) 0.8791(5) 0.6836(4)
O25 O 0.4329(10) 0.5561(7) 0.9881(6)
C43 C 0.1301(16) 0.8144(8) 0.8730(8)
H31 H 0.1103 0.7975 0.8925
O27 O 0.3662(10) 0.4840(6) 0.7936(6)
O28 O 0.0131(12) 0.8902(7) 0.7970(6)
O29 O 0.2347(9) 0.7837(6) 0.8913(5)
O30 O 0.4136(9) 0.5222(5) 0.9373(4)
O31 O 0.2091(10) 0.8473(5) 0.6699(5)
C44 C 0.1159(17) 0.8649(8) 0.8201(8)
C45 C 0.2260(16) 0.8337(8) 0.8407(7)
H32 H 0.2711 0.8319 0.8395
C46 C 0.1845(16) 0.8603(8) 0.8148(7)
H33 H 0.2037 0.8750 0.7940
C47 C 0.3801(16) 0.6411(9) 0.9634(7)
H34 H 0.3944 0.6394 0.9887
C48 C 0.3317(16) 0.6420(9) 0.8923(7)
H35 H 0.3147 0.6450 0.8677
C49 C 0.3579(16) 0.5993(10) 0.9034(7)
H36 H 0.3561 0.5734 0.8877
C50 C 0.1532(15) 0.8475(9) 0.6881(7)
O34 O 0.3031(10) 0.7202(6) 0.8996(5)
C51 C 0.3566(16) 0.6792(10) 0.9529(7)
H37 H 0.3573 0.7050 0.9687
C52 C 0.3873(17) 0.5989(10) 0.9400(7)
P5 P 0.1297(5) 0.6708(2) 0.9063(2)
P6 P 0.1580(5) 0.6877(3) 0.8310(2)
O35 O 0.1732(9) 0.6526(6) 0.7985(4)
O36 O 0.1462(9) 0.6204(6) 0.9229(5)
N4 N 0.1809(11) 0.7032(8) 0.9154(6)
C53 C 0.1748(16) 0.6089(10) 0.9577(9)
N5 N 0.1126(12) 0.6658(7) 0.8615(6)
N6 N 0.2200(15) 0.7114(7) 0.8450(6)
O37 O 0.1108(8) 0.7191(5) 0.8078(4)
C54 C 0.1531(15) 0.6330(9) 0.9900(8)
H38 H 0.1190 0.6541 0.9900
C55 C 0.1873(17) 0.8117(9) 0.8671(8)
C56 C 0.068(2) 0.8892(9) 0.7932(8)
O38 O 0.0662(10) 0.6802(6) 0.9288(5)
C57 C 0.0014(13) 0.7323(10) 0.8992(8)
H39 H 0.0009 0.7111 0.8792
C58 C 0.0958(15) 0.8425(8) 0.8506(7)
H40 H 0.0524 0.8468 0.8574
C59 C 0.280(2) 0.5327(11) 0.8148(9)
C60 C 0.0883(13) 0.8084(8) 0.7358(7)
H41 H 0.0546 0.8273 0.7274
C61 C 0.1232(14) 0.7524(9) 0.7751(8)
C62 C 0.0752(14) 0.7773(8) 0.7654(7)
H42 H 0.0346 0.7750 0.7771
C64 C 0.1422(13) 0.8123(8) 0.7200(6)
C66 C 0.322(2) 0.4913(12) 0.8125(10)
C67 C 0.3076(18) 0.5665(9) 0.7882(8)
H44 H 0.3447 0.5614 0.7734
C68 C 0.0359(14) 0.7220(10) 0.9293(8)
C69 C 0.2199(14) 0.5760(9) 0.9587(8)
H45 H 0.2303 0.5598 0.9365
C70 C 0.1979(13) 0.7867(8) 0.7309(7)
H46 H 0.2391 0.7901 0.7202
C73 C 0.0382(13) 0.7528(9) 0.9593(8)
H47 H 0.0622 0.7455 0.9811
C74 C 0.2513(15) 0.5659(9) 0.9929(8)
H48 H 0.2813 0.5419 0.9929
C75 C 0.1907(18) 0.5783(10) 0.8310(8)
H49 H 0.1528 0.5825 0.8452
C76 C 0.2205(18) 0.5395(10) 0.8355(8)
H50 H 0.2039 0.5168 0.8516
C77 C 0.0080(13) 0.7915(10) 0.9579(8)
H51 H 0.0115 0.8119 0.9784
C78 C 0.210(2) 0.6148(12) 0.8069(9)
C79 C 0.3302(17) 0.6806(10) 0.9171(7)
C81 C 0.1804(13) 0.7532(8) 0.7624(7)
H52 H 0.2117 0.7333 0.7724
C82 C 0.2696(18) 0.6095(10) 0.7876(9)
H53 H 0.2859 0.6345 0.7739
C83 C 0.4114(17) 0.5585(11) 0.9541(8)
Mn4 Mn 0.3422(2) 0.40604(12) 0.87093(10)
Mn5 Mn 0.4385(2) 0.43256(12) 0.78700(10)
Mn6 Mn 0.4249(3) 0.45049(13) 0.95000(10)
O40 O 0.4338(8) 0.4465(5) 0.8848(4)
H55 H 0.4332 0.4769 0.8731
H56 H 0.4728 0.4302 0.8770
O41 O 0.4825(10) 0.4693(6) 0.8402(8)
H57 H 0.5235 0.4659 0.8410
H58 H 0.4692 0.4967 0.8435
O42 O 0.3946(8) 0.4130(5) 0.7334(4)
O44 O 0.3886(8) 0.3791(5) 0.8164(4)
O47 O 0.3875(9) 0.3492(5) 0.8987(5)
O49 O 0.5131(12) 0.3902(7) 0.7970(6)
O50 O 0.2909(10) 0.3473(5) 0.8301(5)
O53 O 0.4449(9) 0.3787(5) 0.9471(5)
Mn8 Mn 0.1578(2) 0.90604(12) 0.62907(10)
Mn13 Mn 0.0615(2) 0.93256(12) 0.71300(10)
O54 O 0.5000 0.4791(8) 0.7500
O5 O 0.8875(9) 0.1508(5) 0.1013(5)
O11 O 0.9449(9) 0.1213(5) 0.0529(5)
C23 C 0.9647(13) 0.2269(9) 0.1058(8)
H13 H 0.9400 0.2210 0.1276
C29 C 0.9686(13) 0.1960(10) 0.0747(8)
C30 C 0.9333(15) 0.1556(10) 0.0775(9)
Mn7 Mn 0.8422(2) 0.09396(12) 0.12907(10)
Mn12 Mn 0.9385(2) 0.06744(12) 0.21300(10)
Mn16 Mn 0.9249(3) 0.04951(13) 0.05000(10)
O26 O 0.8875(9) 0.8492(5) 0.8987(5)
O32 O 0.9449(9) 0.8787(5) 0.9471(5)
C65 C 0.9647(13) 0.7731(9) 0.8942(8)
H43 H 0.9400 0.7790 0.8724
C71 C 0.9686(13) 0.8040(10) 0.9253(8)
C72 C 0.9333(15) 0.8444(10) 0.9225(9)
Mn9 Mn 0.8422(2) 0.90604(12) 0.87093(10)
Mn14 Mn 0.9385(2) 0.93256(12) 0.78700(10)
Mn17 Mn 0.9249(3) 0.95049(13) 0.95000(10)
O5_2 O 0.1125(9) 0.8492(5) 0.6013(5)
O11_2 O 0.0551(9) 0.8787(5) 0.5529(5)
C23_2 C 0.0353(13) 0.7731(9) 0.6058(8)
H13_2 H 0.0600 0.7790 0.6276
C29_2 C 0.0314(13) 0.8040(10) 0.5747(8)
C30_2 C 0.0667(15) 0.8444(10) 0.5775(9)
O26_2 O 0.1125(9) 0.1508(5) 0.3987(5)
O32_2 O 0.0551(9) 0.1213(5) 0.4471(5)
C65_2 C 0.0353(13) 0.2269(9) 0.3942(8)
H43_2 H 0.0600 0.2210 0.3724
C71_2 C 0.0314(13) 0.1960(10) 0.4253(8)
C72_2 C 0.0667(15) 0.1556(10) 0.4225(9)
Mn16_2 Mn 0.0751(3) 0.95049(13) 0.55000(10)
Mn17_2 Mn 0.0751(3) 0.04951(13) 0.45000(10)
P1_2 P 0.7676(5) 0.7273(3) 0.6121(2)
O1_2 O 0.8946(8) 0.9130(5) 0.7334(4)
O2_2 O 0.7002(9) 0.4621(6) 0.6590(5)
O3_2 O 0.8886(8) 0.8791(5) 0.8164(4)
O4_2 O 0.5671(10) 0.5561(7) 0.5119(6)
C1_2 C 0.8699(16) 0.8144(8) 0.6270(8)
H1_2 H 0.8897 0.7975 0.6075
O6_2 O 0.6338(10) 0.4840(6) 0.7064(6)
O7_2 O 0.9869(12) 0.8902(7) 0.7030(6)
O8_2 O 0.7653(9) 0.7837(6) 0.6087(5)
O9_2 O 0.5864(9) 0.5222(5) 0.5627(4)
O10_2 O 0.7909(10) 0.8473(5) 0.8301(5)
C2_2 C 0.8841(17) 0.8649(8) 0.6799(8)
C3_2 C 0.7740(16) 0.8337(8) 0.6593(7)
H2_2 H 0.7289 0.8319 0.6605
C4_2 C 0.8155(16) 0.8603(8) 0.6852(7)
H3_2 H 0.7963 0.8750 0.7060
C5_2 C 0.6199(16) 0.6411(9) 0.5366(7)
H4_2 H 0.6056 0.6394 0.5113
C6_2 C 0.6683(16) 0.6420(9) 0.6077(7)
H5_2 H 0.6853 0.6450 0.6323
C7_2 C 0.6421(16) 0.5993(10) 0.5966(7)
H6_2 H 0.6439 0.5734 0.6123
O12_2 O 0.6742(10) 0.5549(7) 0.4410(5)
C8_2 C 0.8468(15) 0.8475(9) 0.8119(7)
O13_2 O 0.6969(10) 0.7202(6) 0.6004(5)
C9_2 C 0.6434(16) 0.6792(10) 0.5471(7)
H7_2 H 0.6427 0.7050 0.5313
C10_2 C 0.6127(17) 0.5989(10) 0.5600(7)
P2_2 P 0.8703(5) 0.6708(2) 0.5937(2)
P3_2 P 0.8420(5) 0.6877(3) 0.6690(2)
O14_2 O 0.8268(9) 0.6526(6) 0.7015(4)
O15_2 O 0.8538(9) 0.6204(6) 0.5771(5)
N1_2 N 0.8191(11) 0.7032(8) 0.5846(6)
C11_2 C 0.8252(16) 0.6089(10) 0.5423(9)
N2_2 N 0.8874(12) 0.6658(7) 0.6385(6)
N3_2 N 0.7800(15) 0.7114(7) 0.6550(6)
O16_2 O 0.8892(8) 0.7191(5) 0.6922(4)
C12_2 C 0.8469(15) 0.6330(9) 0.5100(8)
H8_2 H 0.8810 0.6541 0.5100
C13_2 C 0.8127(17) 0.8117(9) 0.6329(8)
C14_2 C 0.932(2) 0.8892(9) 0.7068(8)
O17_2 O 0.9338(10) 0.6802(6) 0.5712(5)
C15_2 C 0.9986(13) 0.7323(10) 0.6008(8)
H9_2 H 0.9991 0.7111 0.6208
O18_2 O 0.7454(11) 0.6011(7) 0.4086(7)
C16_2 C 0.9042(15) 0.8425(8) 0.6494(7)
H10_2 H 0.9476 0.8468 0.6426
C17_2 C 0.720(2) 0.5327(11) 0.6852(9)
C18_2 C 0.9117(13) 0.8084(8) 0.7642(7)
H11_2 H 0.9454 0.8273 0.7726
C19_2 C 0.8768(14) 0.7524(9) 0.7249(8)
C20_2 C 0.9248(14) 0.7773(8) 0.7346(7)
H12_2 H 0.9654 0.7750 0.7229
C21_2 C 0.7248(19) 0.5798(10) 0.4364(9)
C22_2 C 0.8578(13) 0.8123(8) 0.7800(6)
C24_2 C 0.678(2) 0.4913(12) 0.6875(10)
C25_2 C 0.6924(18) 0.5665(9) 0.7118(8)
H14_2 H 0.6553 0.5614 0.7266
C26_2 C 0.9641(14) 0.7220(10) 0.5707(8)
C27_2 C 0.7801(14) 0.5760(9) 0.5413(8)
H15_2 H 0.7697 0.5598 0.5635
C28_2 C 0.8021(13) 0.7867(8) 0.7691(7)
H16_2 H 0.7609 0.7901 0.7798
C31_2 C 0.9618(13) 0.7528(9) 0.5407(8)
H17_2 H 0.9378 0.7455 0.5189
C32_2 C 0.7487(15) 0.5659(9) 0.5071(8)
H18_2 H 0.7187 0.5419 0.5071
C33_2 C 0.8093(18) 0.5783(10) 0.6690(8)
H19_2 H 0.8472 0.5825 0.6548
C34_2 C 0.7795(18) 0.5395(10) 0.6645(8)
H20_2 H 0.7961 0.5168 0.6484
C35_2 C 0.9920(13) 0.7915(10) 0.5421(8)
H21_2 H 0.9885 0.8119 0.5216
C36_2 C 0.790(2) 0.6148(12) 0.6931(9)
C37_2 C 0.6698(17) 0.6806(10) 0.5829(7)
C38_2 C 0.7590(16) 0.5888(10) 0.4737(8)
C39_2 C 0.8196(13) 0.7532(8) 0.7376(7)
H22_2 H 0.7883 0.7333 0.7276
C40_2 C 0.7304(18) 0.6095(10) 0.7124(9)
H23_2 H 0.7141 0.6345 0.7261
C41_2 C 0.5886(17) 0.5585(11) 0.5459(8)
C42_2 C 0.8085(15) 0.6206(9) 0.4766(8)
H24_2 H 0.8187 0.6363 0.4540
Mn1_2 Mn 0.6578(2) 0.40604(12) 0.62907(10)
Mn2_2 Mn 0.5615(2) 0.43256(12) 0.71300(10)
Mn3_2 Mn 0.5751(3) 0.45049(13) 0.55000(10)
O19_2 O 0.5662(8) 0.4465(5) 0.6152(4)
H25_2 H 0.5668 0.4769 0.6269
H26_2 H 0.5272 0.4302 0.6230
O21_2 O 0.5175(10) 0.4693(6) 0.6598(8)
H27_2 H 0.4754 0.4960 0.7350
H28_2 H 0.4765 0.4659 0.6590
H29_2 H 0.5308 0.4967 0.6565
H30_2 H 0.5246 0.4960 0.7650
P4_2 P 0.7676(5) 0.2727(3) 0.3879(2)
O22_2 O 0.8946(8) 0.0870(5) 0.2666(4)
O23_2 O 0.7002(9) 0.5379(6) 0.3410(5)
O24_2 O 0.8886(8) 0.1209(5) 0.1836(4)
O25_2 O 0.5671(10) 0.4439(7) 0.4881(6)
C43_2 C 0.8699(16) 0.1856(8) 0.3730(8)
H31_2 H 0.8897 0.2025 0.3925
O27_2 O 0.6338(10) 0.5160(6) 0.2936(6)
O28_2 O 0.9869(12) 0.1098(7) 0.2970(6)
O29_2 O 0.7653(9) 0.2163(6) 0.3913(5)
O30_2 O 0.5864(9) 0.4778(5) 0.4373(4)
O31_2 O 0.7909(10) 0.1527(5) 0.1699(5)
C44_2 C 0.8841(17) 0.1351(8) 0.3201(8)
C45_2 C 0.7740(16) 0.1663(8) 0.3407(7)
H32_2 H 0.7289 0.1681 0.3395
C46_2 C 0.8155(16) 0.1397(8) 0.3148(7)
H33_2 H 0.7963 0.1250 0.2940
C47_2 C 0.6199(16) 0.3589(9) 0.4634(7)
H34_2 H 0.6056 0.3606 0.4887
C48_2 C 0.6683(16) 0.3580(9) 0.3923(7)
H35_2 H 0.6853 0.3550 0.3677
C49_2 C 0.6421(16) 0.4007(10) 0.4034(7)
H36_2 H 0.6439 0.4266 0.3877
O33_2 O 0.6742(10) 0.4451(7) 0.5590(5)
C50_2 C 0.8468(15) 0.1525(9) 0.1881(7)
O34_2 O 0.6969(10) 0.2798(6) 0.3996(5)
C51_2 C 0.6434(16) 0.3208(10) 0.4529(7)
H37_2 H 0.6427 0.2950 0.4687
C52_2 C 0.6127(17) 0.4011(10) 0.4400(7)
P5_2 P 0.8703(5) 0.3292(2) 0.4063(2)
P6_2 P 0.8420(5) 0.3123(3) 0.3310(2)
O35_2 O 0.8268(9) 0.3474(6) 0.2985(4)
O36_2 O 0.8538(9) 0.3796(6) 0.4229(5)
N4_2 N 0.8191(11) 0.2968(8) 0.4154(6)
C53_2 C 0.8252(16) 0.3911(10) 0.4577(9)
N5_2 N 0.8874(12) 0.3342(7) 0.3615(6)
N6_2 N 0.7800(15) 0.2886(7) 0.3450(6)
O37_2 O 0.8892(8) 0.2809(5) 0.3078(4)
C54_2 C 0.8469(15) 0.3670(9) 0.4900(8)
H38_2 H 0.8810 0.3459 0.4900
C55_2 C 0.8127(17) 0.1883(9) 0.3671(8)
C56_2 C 0.932(2) 0.1108(9) 0.2932(8)
O38_2 O 0.9338(10) 0.3198(6) 0.4288(5)
C57_2 C 0.9986(13) 0.2677(10) 0.3992(8)
H39_2 H 0.9991 0.2889 0.3792
O39_2 O 0.7454(11) 0.3989(7) 0.5914(7)
C58_2 C 0.9042(15) 0.1575(8) 0.3506(7)
H40_2 H 0.9476 0.1532 0.3574
C59_2 C 0.720(2) 0.4673(11) 0.3148(9)
C60_2 C 0.9117(13) 0.1916(8) 0.2358(7)
H41_2 H 0.9454 0.1727 0.2274
C61_2 C 0.8768(14) 0.2476(9) 0.2751(8)
C62_2 C 0.9248(14) 0.2227(8) 0.2654(7)
H42_2 H 0.9654 0.2250 0.2771
C63_2 C 0.7248(19) 0.4202(10) 0.5636(9)
C64_2 C 0.8578(13) 0.1877(8) 0.2200(6)
C66_2 C 0.678(2) 0.5087(12) 0.3125(10)
C67_2 C 0.6924(18) 0.4335(9) 0.2882(8)
H44_2 H 0.6553 0.4386 0.2734
C68_2 C 0.9641(14) 0.2780(10) 0.4293(8)
C69_2 C 0.7801(14) 0.4240(9) 0.4587(8)
H45_2 H 0.7697 0.4402 0.4365
C70_2 C 0.8021(13) 0.2133(8) 0.2309(7)
H46_2 H 0.7609 0.2099 0.2202
C73_2 C 0.9618(13) 0.2472(9) 0.4593(8)
H47_2 H 0.9378 0.2545 0.4811
C74_2 C 0.7487(15) 0.4341(9) 0.4929(8)
H48_2 H 0.7187 0.4581 0.4929
C75_2 C 0.8093(18) 0.4217(10) 0.3310(8)
H49_2 H 0.8472 0.4175 0.3452
C76_2 C 0.7795(18) 0.4605(10) 0.3355(8)
H50_2 H 0.7961 0.4832 0.3516
C77_2 C 0.9920(13) 0.2085(10) 0.4579(8)
H51_2 H 0.9885 0.1881 0.4784
C78_2 C 0.790(2) 0.3852(12) 0.3069(9)
C79_2 C 0.6698(17) 0.3194(10) 0.4171(7)
C80_2 C 0.7590(16) 0.4112(10) 0.5263(8)
C81_2 C 0.8196(13) 0.2468(8) 0.2624(7)
H52_2 H 0.7883 0.2667 0.2724
C82_2 C 0.7304(18) 0.3905(10) 0.2876(9)
H53_2 H 0.7141 0.3655 0.2739
C83_2 C 0.5886(17) 0.4415(11) 0.4541(8)
C84_2 C 0.8085(15) 0.3794(9) 0.5234(8)
H54_2 H 0.8187 0.3637 0.5460
Mn4_2 Mn 0.6578(2) 0.59396(12) 0.37093(10)
Mn6_2 Mn 0.5751(3) 0.54951(13) 0.45000(10)
O40_2 O 0.5662(8) 0.5535(5) 0.3848(4)
H55_2 H 0.5668 0.5231 0.3731
H56_2 H 0.5272 0.5698 0.3770
O41_2 O 0.5175(10) 0.5307(6) 0.3402(8)
H57_2 H 0.4765 0.5341 0.3410
H58_2 H 0.5308 0.5033 0.3435
O42_2 O 0.6054(8) 0.5870(5) 0.2334(4)
O43_2 O 0.6054(8) 0.4130(5) 0.7666(4)
O44_2 O 0.6114(8) 0.6209(5) 0.3164(4)
O45_2 O 0.6114(8) 0.3791(5) 0.6836(4)
O46_2 O 0.6125(9) 0.3492(5) 0.6013(5)
O47_2 O 0.6125(9) 0.6508(5) 0.3987(5)
O48_2 O 0.4869(12) 0.3902(7) 0.7030(6)
O49_2 O 0.4869(12) 0.6098(7) 0.2970(6)
O50_2 O 0.7091(10) 0.6527(5) 0.3301(5)
O51_2 O 0.7091(10) 0.3473(5) 0.6699(5)
O52_2 O 0.5551(9) 0.3787(5) 0.5529(5)
O53_2 O 0.5551(9) 0.6213(5) 0.4471(5)
O20_2 O 0.0000 0.0209(8) 0.2500
H27_3 H 0.0246 0.0040 0.2350
H28_3 H 0.0235 0.0341 0.1590
H57_3 H 0.0235 0.9659 0.8410
O54_2 O -0.0000 0.9791(8) 0.7500
O2_3 O 0.7998(9) 0.0379(6) 0.1590(5)
O6_3 O 0.8662(10) 0.0160(6) 0.2064(6)
C24_3 C 0.822(2) 0.0087(12) 0.1875(10)
O19_3 O 0.9338(8) 0.0535(5) 0.1152(4)
H25_3 H 0.9332 0.0231 0.1269
H26_3 H 0.9728 0.0698 0.1230
O20_3 O 1.0000 0.0209(8) 0.2500
O21_3 O 0.9825(10) 0.0307(6) 0.1598(8)
H29_3 H 0.9692 0.0033 0.1565
H30_3 H 0.9754 0.0040 0.2650
O33_3 O 0.8258(10) 0.0549(7) 0.0590(5)
O39_3 O 0.7546(11) 0.1011(7) 0.0914(7)
C63_3 C 0.7752(19) 0.0798(10) 0.0636(9)
C80_3 C 0.7410(16) 0.0888(10) 0.0263(8)
C84_3 C 0.6915(15) 0.1206(9) 0.0234(8)
H54_3 H 0.6813 0.1363 0.0460
P4_3 P 0.7324(5) 0.2273(3) 0.8879(2)
O25_3 O 0.9329(10) 0.0561(7) 0.9881(6)
C43_3 C 0.6301(16) 0.3144(8) 0.8730(8)
H31_3 H 0.6103 0.2975 0.8925
O29_3 O 0.7347(9) 0.2837(6) 0.8913(5)
O30_3 O 0.9136(9) 0.0222(5) 0.9373(4)
C44_3 C 0.6159(17) 0.3649(8) 0.8201(8)
C45_3 C 0.7260(16) 0.3337(8) 0.8407(7)
H32_3 H 0.7711 0.3319 0.8395
C46_3 C 0.6845(16) 0.3603(8) 0.8148(7)
H33_3 H 0.7037 0.3750 0.7940
C47_3 C 0.8801(16) 0.1411(9) 0.9634(7)
H34_3 H 0.8944 0.1394 0.9887
C48_3 C 0.8317(16) 0.1420(9) 0.8923(7)
H35_3 H 0.8147 0.1450 0.8677
C49_3 C 0.8579(16) 0.0993(10) 0.9034(7)
H36_3 H 0.8561 0.0734 0.8877
C50_3 C 0.6532(15) 0.3475(9) 0.6881(7)
O34_3 O 0.8031(10) 0.2202(6) 0.8996(5)
C51_3 C 0.8566(16) 0.1792(10) 0.9529(7)
H37_3 H 0.8573 0.2050 0.9687
C52_3 C 0.8873(17) 0.0989(10) 0.9400(7)
P5_3 P 0.6297(5) 0.1708(2) 0.9063(2)
P6_3 P 0.6580(5) 0.1877(3) 0.8310(2)
O35_3 O 0.6732(9) 0.1526(6) 0.7985(4)
O36_3 O 0.6462(9) 0.1204(6) 0.9229(5)
N4_3 N 0.6809(11) 0.2032(8) 0.9154(6)
C53_3 C 0.6748(16) 0.1089(10) 0.9577(9)
N5_3 N 0.6126(12) 0.1658(7) 0.8615(6)
N6_3 N 0.7200(15) 0.2114(7) 0.8450(6)
O37_3 O 0.6108(8) 0.2191(5) 0.8078(4)
C54_3 C 0.6531(15) 0.1330(9) 0.9900(8)
H38_3 H 0.6190 0.1541 0.9900
C55_3 C 0.6873(17) 0.3117(9) 0.8671(8)
C56_3 C 0.568(2) 0.3892(9) 0.7932(8)
O38_3 O 0.5662(10) 0.1802(6) 0.9288(5)
C57_3 C 0.5014(13) 0.2323(10) 0.8992(8)
H39_3 H 0.5009 0.2111 0.8792
C58_3 C 0.5958(15) 0.3425(8) 0.8506(7)
H40_3 H 0.5524 0.3468 0.8574
C59_3 C 0.780(2) 0.0327(11) 0.8148(9)
C60_3 C 0.5883(13) 0.3084(8) 0.7358(7)
H41_3 H 0.5546 0.3273 0.7274
C61_3 C 0.6232(14) 0.2524(9) 0.7751(8)
C62_3 C 0.5752(14) 0.2773(8) 0.7654(7)
H42_3 H 0.5346 0.2750 0.7771
C64_3 C 0.6422(13) 0.3123(8) 0.7200(6)
C65_3 C 0.4647(13) 0.2731(9) 0.8942(8)
H43_3 H 0.4400 0.2790 0.8724
C67_3 C 0.8076(18) 0.0665(9) 0.7882(8)
H44_3 H 0.8447 0.0614 0.7734
C68_3 C 0.5359(14) 0.2220(10) 0.9293(8)
C69_3 C 0.7199(14) 0.0760(9) 0.9587(8)
H45_3 H 0.7303 0.0598 0.9365
C70_3 C 0.6979(13) 0.2867(8) 0.7309(7)
H46_3 H 0.7391 0.2901 0.7202
C71_3 C 0.4686(13) 0.3040(10) 0.9253(8)
C72_3 C 0.4333(15) 0.3444(10) 0.9225(9)
C73_3 C 0.5382(13) 0.2528(9) 0.9593(8)
H47_3 H 0.5622 0.2455 0.9811
C74_3 C 0.7513(15) 0.0659(9) 0.9929(8)
H48_3 H 0.7813 0.0419 0.9929
C75_3 C 0.6907(18) 0.0783(10) 0.8310(8)
H49_3 H 0.6528 0.0825 0.8452
C76_3 C 0.7205(18) 0.0395(10) 0.8355(8)
H50_3 H 0.7039 0.0168 0.8516
C77_3 C 0.5080(13) 0.2915(10) 0.9579(8)
H51_3 H 0.5115 0.3119 0.9784
C78_3 C 0.710(2) 0.1148(12) 0.8069(9)
C79_3 C 0.8302(17) 0.1806(10) 0.9171(7)
C81_3 C 0.6804(13) 0.2532(8) 0.7624(7)
H52_3 H 0.7117 0.2333 0.7724
C82_3 C 0.7696(18) 0.1095(10) 0.7876(9)
H53_3 H 0.7859 0.1345 0.7739
C83_3 C 0.9114(17) 0.0585(11) 0.9541(8)
P1_3 P 0.7324(5) 0.7727(3) 0.1121(2)
O4_3 O 0.9329(10) 0.9439(7) 0.0119(6)
C1_3 C 0.6301(16) 0.6856(8) 0.1270(8)
H1_3 H 0.6103 0.7025 0.1075
O8_3 O 0.7347(9) 0.7163(6) 0.1087(5)
O9_3 O 0.9136(9) 0.9778(5) 0.0627(4)
C2_3 C 0.6159(17) 0.6351(8) 0.1799(8)
C3_3 C 0.7260(16) 0.6663(8) 0.1593(7)
H2_3 H 0.7711 0.6681 0.1605
C4_3 C 0.6845(16) 0.6397(8) 0.1852(7)
H3_3 H 0.7037 0.6250 0.2060
C5_3 C 0.8801(16) 0.8589(9) 0.0366(7)
H4_3 H 0.8944 0.8606 0.0113
C6_3 C 0.8317(16) 0.8580(9) 0.1077(7)
H5_3 H 0.8147 0.8550 0.1323
C7_3 C 0.8579(16) 0.9007(10) 0.0966(7)
H6_3 H 0.8561 0.9266 0.1123
C8_3 C 0.6532(15) 0.6525(9) 0.3119(7)
O13_3 O 0.8031(10) 0.7798(6) 0.1004(5)
C9_3 C 0.8566(16) 0.8208(10) 0.0471(7)
H7_3 H 0.8573 0.7950 0.0313
C10_3 C 0.8873(17) 0.9011(10) 0.0600(7)
P2_3 P 0.6297(5) 0.8292(2) 0.0937(2)
P3_3 P 0.6580(5) 0.8123(3) 0.1690(2)
O14_3 O 0.6732(9) 0.8474(6) 0.2015(4)
O15_3 O 0.6462(9) 0.8796(6) 0.0771(5)
N1_3 N 0.6809(11) 0.7968(8) 0.0846(6)
C11_3 C 0.6748(16) 0.8911(10) 0.0423(9)
N2_3 N 0.6126(12) 0.8342(7) 0.1385(6)
N3_3 N 0.7200(15) 0.7886(7) 0.1550(6)
O16_3 O 0.6108(8) 0.7809(5) 0.1922(4)
C12_3 C 0.6531(15) 0.8670(9) 0.0100(8)
H8_3 H 0.6190 0.8459 0.0100
C13_3 C 0.6873(17) 0.6883(9) 0.1329(8)
C14_3 C 0.568(2) 0.6108(9) 0.2068(8)
O17_3 O 0.5662(10) 0.8198(6) 0.0712(5)
C15_3 C 0.5014(13) 0.7677(10) 0.1008(8)
H9_3 H 0.5009 0.7889 0.1208
C16_3 C 0.5958(15) 0.6575(8) 0.1494(7)
H10_3 H 0.5524 0.6532 0.1426
C17_3 C 0.780(2) 0.9673(11) 0.1852(9)
C18_3 C 0.5883(13) 0.6916(8) 0.2642(7)
H11_3 H 0.5546 0.6727 0.2726
C19_3 C 0.6232(14) 0.7476(9) 0.2249(8)
C20_3 C 0.5752(14) 0.7227(8) 0.2346(7)
H12_3 H 0.5346 0.7250 0.2229
C22_3 C 0.6422(13) 0.6877(8) 0.2800(6)
C23_3 C 0.4647(13) 0.7269(9) 0.1058(8)
H13_3 H 0.4400 0.7210 0.1276
C25_3 C 0.8076(18) 0.9335(9) 0.2118(8)
H14_3 H 0.8447 0.9386 0.2266
C26_3 C 0.5359(14) 0.7780(10) 0.0707(8)
C27_3 C 0.7199(14) 0.9240(9) 0.0413(8)
H15_3 H 0.7303 0.9402 0.0635
C28_3 C 0.6979(13) 0.7133(8) 0.2691(7)
H16_3 H 0.7391 0.7099 0.2798
C29_3 C 0.4686(13) 0.6960(10) 0.0747(8)
C30_3 C 0.4333(15) 0.6556(10) 0.0775(9)
C31_3 C 0.5382(13) 0.7472(9) 0.0407(8)
H17_3 H 0.5622 0.7545 0.0189
C32_3 C 0.7513(15) 0.9341(9) 0.0071(8)
H18_3 H 0.7813 0.9581 0.0071
C33_3 C 0.6907(18) 0.9217(10) 0.1690(8)
H19_3 H 0.6528 0.9175 0.1548
C34_3 C 0.7205(18) 0.9605(10) 0.1645(8)
H20_3 H 0.7039 0.9832 0.1484
C35_3 C 0.5080(13) 0.7085(10) 0.0421(8)
H21_3 H 0.5115 0.6881 0.0216
C36_3 C 0.710(2) 0.8852(12) 0.1931(9)
C37_3 C 0.8302(17) 0.8194(10) 0.0829(7)
C39_3 C 0.6804(13) 0.7468(8) 0.2376(7)
H22_3 H 0.7117 0.7667 0.2276
C40_3 C 0.7696(18) 0.8905(10) 0.2124(9)
H23_3 H 0.7859 0.8655 0.2261
C41_3 C 0.9114(17) 0.9415(11) 0.0459(8)
O12_3 O 0.8258(10) 0.9451(7) 0.9410(5)
O18_3 O 0.7546(11) 0.8989(7) 0.9086(7)
C21_3 C 0.7752(19) 0.9202(10) 0.9364(9)
C38_3 C 0.7410(16) 0.9112(10) 0.9737(8)
C42_3 C 0.6915(15) 0.8794(9) 0.9766(8)
H24_3 H 0.6813 0.8637 0.9540
O23_3 O 0.7998(9) 0.9621(6) 0.8410(5)
O27_3 O 0.8662(10) 0.9840(6) 0.7936(6)
C66_3 C 0.822(2) 0.9913(12) 0.8125(10)
O40_3 O 0.9338(8) 0.9465(5) 0.8848(4)
H55_3 H 0.9332 0.9769 0.8731
H56_3 H 0.9728 0.9302 0.8770
O41_3 O 0.9825(10) 0.9693(6) 0.8402(8)
H58_3 H 0.9692 0.9967 0.8435
O54_3 O 1.0000 0.9791(8) 0.7500
P1_4 P 0.2676(5) 0.2273(3) 0.6121(2)
O4_4 O 0.0671(10) 0.0561(7) 0.5119(6)
C1_4 C 0.3699(16) 0.3144(8) 0.6270(8)
H1_4 H 0.3897 0.2975 0.6075
O8_4 O 0.2653(9) 0.2837(6) 0.6087(5)
O9_4 O 0.0864(9) 0.0222(5) 0.5627(4)
C2_4 C 0.3841(17) 0.3649(8) 0.6799(8)
C3_4 C 0.2740(16) 0.3337(8) 0.6593(7)
H2_4 H 0.2289 0.3319 0.6605
C4_4 C 0.3155(16) 0.3603(8) 0.6852(7)
H3_4 H 0.2963 0.3750 0.7060
C5_4 C 0.1199(16) 0.1411(9) 0.5366(7)
H4_4 H 0.1056 0.1394 0.5113
C6_4 C 0.1683(16) 0.1420(9) 0.6077(7)
H5_4 H 0.1853 0.1450 0.6323
C7_4 C 0.1421(16) 0.0993(10) 0.5966(7)
H6_4 H 0.1439 0.0734 0.6123
O12_4 O 0.1742(10) 0.0549(7) 0.4410(5)
C8_4 C 0.3468(15) 0.3475(9) 0.8119(7)
O13_4 O 0.1969(10) 0.2202(6) 0.6004(5)
C9_4 C 0.1434(16) 0.1792(10) 0.5471(7)
H7_4 H 0.1427 0.2050 0.5313
C10_4 C 0.1127(17) 0.0989(10) 0.5600(7)
P2_4 P 0.3703(5) 0.1708(2) 0.5937(2)
P3_4 P 0.3420(5) 0.1877(3) 0.6690(2)
O14_4 O 0.3268(9) 0.1526(6) 0.7015(4)
O15_4 O 0.3538(9) 0.1204(6) 0.5771(5)
N1_4 N 0.3191(11) 0.2032(8) 0.5846(6)
C11_4 C 0.3252(16) 0.1089(10) 0.5423(9)
N2_4 N 0.3874(12) 0.1658(7) 0.6385(6)
N3_4 N 0.2800(15) 0.2114(7) 0.6550(6)
O16_4 O 0.3892(8) 0.2191(5) 0.6922(4)
C12_4 C 0.3469(15) 0.1330(9) 0.5100(8)
H8_4 H 0.3810 0.1541 0.5100
C13_4 C 0.3127(17) 0.3117(9) 0.6329(8)
C14_4 C 0.432(2) 0.3892(9) 0.7068(8)
O17_4 O 0.4338(10) 0.1802(6) 0.5712(5)
C15_4 C 0.4986(13) 0.2323(10) 0.6008(8)
H9_4 H 0.4991 0.2111 0.6208
O18_4 O 0.2454(11) 0.1011(7) 0.4086(7)
C16_4 C 0.4042(15) 0.3425(8) 0.6494(7)
H10_4 H 0.4476 0.3468 0.6426
C17_4 C 0.220(2) 0.0327(11) 0.6852(9)
C18_4 C 0.4117(13) 0.3084(8) 0.7642(7)
H11_4 H 0.4454 0.3273 0.7726
C19_4 C 0.3768(14) 0.2524(9) 0.7249(8)
C20_4 C 0.4248(14) 0.2773(8) 0.7346(7)
H12_4 H 0.4654 0.2750 0.7229
C21_4 C 0.2248(19) 0.0798(10) 0.4364(9)
C22_4 C 0.3578(13) 0.3123(8) 0.7800(6)
C23_4 C 0.5353(13) 0.2731(9) 0.6058(8)
H13_4 H 0.5600 0.2790 0.6276
C25_4 C 0.1924(18) 0.0665(9) 0.7118(8)
H14_4 H 0.1553 0.0614 0.7266
C26_4 C 0.4641(14) 0.2220(10) 0.5707(8)
C27_4 C 0.2801(14) 0.0760(9) 0.5413(8)
H15_4 H 0.2697 0.0598 0.5635
C28_4 C 0.3021(13) 0.2867(8) 0.7691(7)
H16_4 H 0.2609 0.2901 0.7798
C29_4 C 0.5314(13) 0.3040(10) 0.5747(8)
C30_4 C 0.5667(15) 0.3444(10) 0.5775(9)
C31_4 C 0.4618(13) 0.2528(9) 0.5407(8)
H17_4 H 0.4378 0.2455 0.5189
C32_4 C 0.2487(15) 0.0659(9) 0.5071(8)
H18_4 H 0.2187 0.0419 0.5071
C33_4 C 0.3093(18) 0.0783(10) 0.6690(8)
H19_4 H 0.3472 0.0825 0.6548
C34_4 C 0.2795(18) 0.0395(10) 0.6645(8)
H20_4 H 0.2961 0.0168 0.6484
C35_4 C 0.4920(13) 0.2915(10) 0.5421(8)
H21_4 H 0.4885 0.3119 0.5216
C36_4 C 0.290(2) 0.1148(12) 0.6931(9)
C37_4 C 0.1698(17) 0.1806(10) 0.5829(7)
C38_4 C 0.2590(16) 0.0888(10) 0.4737(8)
C39_4 C 0.3196(13) 0.2532(8) 0.7376(7)
H22_4 H 0.2883 0.2333 0.7276
C40_4 C 0.2304(18) 0.1095(10) 0.7124(9)
H23_4 H 0.2141 0.1345 0.7261
C41_4 C 0.0886(17) 0.0585(11) 0.5459(8)
C42_4 C 0.3085(15) 0.1206(9) 0.4766(8)
H24_4 H 0.3187 0.1363 0.4540
O23_4 O 0.2002(9) 0.0379(6) 0.3410(5)
O27_4 O 0.1338(10) 0.0160(6) 0.2936(6)
C66_4 C 0.178(2) 0.0087(12) 0.3125(10)
O40_4 O 0.0662(8) 0.0535(5) 0.3848(4)
H55_4 H 0.0668 0.0231 0.3731
H56_4 H 0.0272 0.0698 0.3770
O41_4 O 0.0175(10) 0.0307(6) 0.3402(8)
H58_4 H 0.0308 0.0033 0.3435
O2_4 O 0.2002(9) 0.9621(6) 0.6590(5)
O6_4 O 0.1338(10) 0.9840(6) 0.7064(6)
C24_4 C 0.178(2) 0.9913(12) 0.6875(10)
O19_4 O 0.0662(8) 0.9465(5) 0.6152(4)
H25_4 H 0.0668 0.9769 0.6269
H26_4 H 0.0272 0.9302 0.6230
O21_4 O 0.0175(10) 0.9693(6) 0.6598(8)
H29_4 H 0.0308 0.9967 0.6565
H30_4 H 0.0246 0.9960 0.7650
P4_4 P 0.2676(5) 0.7727(3) 0.3879(2)
O25_4 O 0.0671(10) 0.9439(7) 0.4881(6)
C43_4 C 0.3699(16) 0.6856(8) 0.3730(8)
H31_4 H 0.3897 0.7025 0.3925
O29_4 O 0.2653(9) 0.7163(6) 0.3913(5)
O30_4 O 0.0864(9) 0.9778(5) 0.4373(4)
C44_4 C 0.3841(17) 0.6351(8) 0.3201(8)
C45_4 C 0.2740(16) 0.6663(8) 0.3407(7)
H32_4 H 0.2289 0.6681 0.3395
C46_4 C 0.3155(16) 0.6397(8) 0.3148(7)
H33_4 H 0.2963 0.6250 0.2940
C47_4 C 0.1199(16) 0.8589(9) 0.4634(7)
H34_4 H 0.1056 0.8606 0.4887
C48_4 C 0.1683(16) 0.8580(9) 0.3923(7)
H35_4 H 0.1853 0.8550 0.3677
C49_4 C 0.1421(16) 0.9007(10) 0.4034(7)
H36_4 H 0.1439 0.9266 0.3877
O33_4 O 0.1742(10) 0.9451(7) 0.5590(5)
C50_4 C 0.3468(15) 0.6525(9) 0.1881(7)
O34_4 O 0.1969(10) 0.7798(6) 0.3996(5)
C51_4 C 0.1434(16) 0.8208(10) 0.4529(7)
H37_4 H 0.1427 0.7950 0.4687
C52_4 C 0.1127(17) 0.9011(10) 0.4400(7)
P5_4 P 0.3703(5) 0.8292(2) 0.4063(2)
P6_4 P 0.3420(5) 0.8123(3) 0.3310(2)
O35_4 O 0.3268(9) 0.8474(6) 0.2985(4)
O36_4 O 0.3538(9) 0.8796(6) 0.4229(5)
N4_4 N 0.3191(11) 0.7968(8) 0.4154(6)
C53_4 C 0.3252(16) 0.8911(10) 0.4577(9)
N5_4 N 0.3874(12) 0.8342(7) 0.3615(6)
N6_4 N 0.2800(15) 0.7886(7) 0.3450(6)
O37_4 O 0.3892(8) 0.7809(5) 0.3078(4)
C54_4 C 0.3469(15) 0.8670(9) 0.4900(8)
H38_4 H 0.3810 0.8459 0.4900
C55_4 C 0.3127(17) 0.6883(9) 0.3671(8)
C56_4 C 0.432(2) 0.6108(9) 0.2932(8)
O38_4 O 0.4338(10) 0.8198(6) 0.4288(5)
C57_4 C 0.4986(13) 0.7677(10) 0.3992(8)
H39_4 H 0.4991 0.7889 0.3792
O39_4 O 0.2454(11) 0.8989(7) 0.5914(7)
C58_4 C 0.4042(15) 0.6575(8) 0.3506(7)
H40_4 H 0.4476 0.6532 0.3574
C59_4 C 0.220(2) 0.9673(11) 0.3148(9)
C60_4 C 0.4117(13) 0.6916(8) 0.2358(7)
H41_4 H 0.4454 0.6727 0.2274
C61_4 C 0.3768(14) 0.7476(9) 0.2751(8)
C62_4 C 0.4248(14) 0.7227(8) 0.2654(7)
H42_4 H 0.4654 0.7250 0.2771
C63_4 C 0.2248(19) 0.9202(10) 0.5636(9)
C64_4 C 0.3578(13) 0.6877(8) 0.2200(6)
C65_4 C 0.5353(13) 0.7269(9) 0.3942(8)
H43_4 H 0.5600 0.7210 0.3724
C67_4 C 0.1924(18) 0.9335(9) 0.2882(8)
H44_4 H 0.1553 0.9386 0.2734
C68_4 C 0.4641(14) 0.7780(10) 0.4293(8)
C69_4 C 0.2801(14) 0.9240(9) 0.4587(8)
H45_4 H 0.2697 0.9402 0.4365
C70_4 C 0.3021(13) 0.7133(8) 0.2309(7)
H46_4 H 0.2609 0.7099 0.2202
C71_4 C 0.5314(13) 0.6960(10) 0.4253(8)
C72_4 C 0.5667(15) 0.6556(10) 0.4225(9)
C73_4 C 0.4618(13) 0.7472(9) 0.4593(8)
H47_4 H 0.4378 0.7545 0.4811
C74_4 C 0.2487(15) 0.9341(9) 0.4929(8)
H48_4 H 0.2187 0.9581 0.4929
C75_4 C 0.3093(18) 0.9217(10) 0.3310(8)
H49_4 H 0.3472 0.9175 0.3452
C76_4 C 0.2795(18) 0.9605(10) 0.3355(8)
H50_4 H 0.2961 0.9832 0.3516
C77_4 C 0.4920(13) 0.7085(10) 0.4579(8)
H51_4 H 0.4885 0.6881 0.4784
C78_4 C 0.290(2) 0.8852(12) 0.3069(9)
C79_4 C 0.1698(17) 0.8194(10) 0.4171(7)
C80_4 C 0.2590(16) 0.9112(10) 0.5263(8)
C81_4 C 0.3196(13) 0.7468(8) 0.2624(7)
H52_4 H 0.2883 0.7667 0.2724
C82_4 C 0.2304(18) 0.8905(10) 0.2876(9)
H53_4 H 0.2141 0.8655 0.2739
C83_4 C 0.0886(17) 0.9415(11) 0.4541(8)
C84_4 C 0.3085(15) 0.8794(9) 0.5234(8)
H54_4 H 0.3187 0.8637 0.5460
H57_4 H 0.9765 0.0341 0.3410
H27_4 H 0.9754 0.9960 0.7350
H28_4 H 0.9765 0.9659 0.6590
loop_
_geom_bond_atom_site_label_1
_geom_bond_atom_site_label_2
_geom_bond_site_symmetry_1
_geom_bond_site_symmetry_2
P1 O8 1_555 1_555
O1 C14 1_555 1_555
O2 C24 1_555 1_555
O3 C8 1_555 1_555
O4 C41 1_555 1_555
C1 H1 1_555 1_555
O6 C24 1_555 1_555
O7 C14 1_555 1_555
O8 C13 1_555 1_555
O9 C41 1_555 1_555
O10 C8 1_555 1_555
C2 C4 1_555 1_555
C3 H2 1_555 1_555
C4 C3 1_555 1_555
H3 C4 1_555 1_555
C5 H4 1_555 1_555
C6 H5 1_555 1_555
C7 C6 1_555 1_555
H6 C7 1_555 1_555
C8 C22 1_555 1_555
O13 P1 1_555 1_555
C9 C5 1_555 1_555
H7 C9 1_555 1_555
C10 C5 1_555 1_555
P2 O15 1_555 1_555
P3 O14 1_555 1_555
O14 C36 1_555 1_555
O15 C11 1_555 1_555
N1 P1 1_555 1_555
C11 C12 1_555 1_555
N2 P2 1_555 1_555
N3 P1 1_555 1_555
O16 P3 1_555 1_555
C12 H8 1_555 1_555
C13 C1 1_555 1_555
C14 C2 1_555 1_555
O17 P2 1_555 1_555
C15 H9 1_555 1_555
C16 C1 1_555 1_555
H10 C16 1_555 1_555
C17 C24 1_555 1_555
C18 H11 1_555 1_555
C19 O16 1_555 1_555
C20 C18 1_555 1_555
H12 C20 1_555 1_555
C22 C18 1_555 1_555
C25 C17 1_555 1_555
H14 C25 1_555 1_555
C26 O17 1_555 1_555
C27 C11 1_555 1_555
H15 C27 1_555 1_555
C28 C22 1_555 1_555
H16 C28 1_555 1_555
C31 C26 1_555 1_555
H17 C31 1_555 1_555
C32 C27 1_555 1_555
H18 C32 1_555 1_555
C33 H19 1_555 1_555
C34 C17 1_555 1_555
H20 C34 1_555 1_555
H21 C35 1_555 1_555
C36 C33 1_555 1_555
C37 C6 1_555 1_555
C39 C19 1_555 1_555
H22 C39 1_555 1_555
C40 C25 1_555 1_555
H23 C40 1_555 1_555
C41 C10 1_555 1_555
Mn1 O2 1_555 1_555
Mn2 O6 1_555 1_555
Mn3 O9 1_555 1_555
O19 Mn1 1_555 1_555
H25 O19 1_555 1_555
H26 O19 1_555 1_555
O20 Mn2 1_555 1_555
O21 Mn2 1_555 1_555
H27 O20 1_555 1_555
H28 O21 1_555 1_555
H29 O21 1_555 1_555
H30 O20 1_555 1_555
O33 Mn3 1_555 1_555
O39 Mn1 1_555 1_555
C63 O33 1_555 1_555
C80 C63 1_555 1_555
H54 C84 1_555 1_555
O43 Mn2 1_555 1_555
O45 Mn1 1_555 1_555
O46 Mn1 1_555 1_555
O48 Mn2 1_555 1_555
O51 Mn1 1_555 1_555
O52 Mn3 1_555 1_555
Mn10 O3 1_555 1_555
Mn11 O20 1_555 1_555
Mn15 O1 1_555 1_555
O3 Mn15 1_555 1_555
O10 Mn10 1_555 1_555
C2 C16 1_555 1_555
C3 C13 1_555 1_555
C7 C10 1_555 1_555
O13 C37 1_555 1_555
C9 C37 1_555 1_555
P2 N1 1_555 1_555
P3 N2 1_555 1_555
P3 N3 1_555 1_555
C15 C26 1_555 1_555
C19 C20 1_555 1_555
C28 C39 1_555 1_555
C31 C35 1_555 1_555
C33 C34 1_555 1_555
C36 C40 1_555 1_555
Mn2 O45 1_555 1_555
Mn3 O19 1_555 1_555
O39 C63 1_555 1_555
C80 C84 1_555 1_555
O12 C21 1_555 1_555
O18 C21 1_555 1_555
C21 C38 1_555 1_555
H24 C42 1_555 1_555
P4 O29 1_555 1_555
O22 C56 1_555 1_555
O23 C66 1_555 1_555
O24 C50 1_555 1_555
C43 H31 1_555 1_555
O27 C66 1_555 1_555
O28 C56 1_555 1_555
O29 C55 1_555 1_555
O30 C83 1_555 1_555
O31 C50 1_555 1_555
C44 C46 1_555 1_555
C45 H32 1_555 1_555
C46 C45 1_555 1_555
H33 C46 1_555 1_555
C47 H34 1_555 1_555
C48 H35 1_555 1_555
C49 C48 1_555 1_555
H36 C49 1_555 1_555
C50 C64 1_555 1_555
O34 P4 1_555 1_555
C51 C47 1_555 1_555
H37 C51 1_555 1_555
C52 C47 1_555 1_555
P5 O36 1_555 1_555
P6 O35 1_555 1_555
O35 C78 1_555 1_555
O36 C53 1_555 1_555
N4 P4 1_555 1_555
C53 C54 1_555 1_555
N5 P5 1_555 1_555
N6 P4 1_555 1_555
O37 P6 1_555 1_555
C54 H38 1_555 1_555
C55 C43 1_555 1_555
C56 C44 1_555 1_555
O38 P5 1_555 1_555
C57 H39 1_555 1_555
C58 C43 1_555 1_555
H40 C58 1_555 1_555
C59 C66 1_555 1_555
C60 H41 1_555 1_555
C61 O37 1_555 1_555
C62 C60 1_555 1_555
H42 C62 1_555 1_555
C64 C60 1_555 1_555
C67 C59 1_555 1_555
H44 C67 1_555 1_555
C68 O38 1_555 1_555
C69 C53 1_555 1_555
H45 C69 1_555 1_555
C70 C64 1_555 1_555
H46 C70 1_555 1_555
C73 C68 1_555 1_555
H47 C73 1_555 1_555
C74 C69 1_555 1_555
H48 C74 1_555 1_555
C75 H49 1_555 1_555
C76 C59 1_555 1_555
H50 C76 1_555 1_555
H51 C77 1_555 1_555
C78 C75 1_555 1_555
C79 C48 1_555 1_555
C81 C61 1_555 1_555
H52 C81 1_555 1_555
C82 C67 1_555 1_555
H53 C82 1_555 1_555
C83 O25 1_555 1_555
Mn4 O18 1_555 1_555
Mn5 O27 1_555 1_555
O40 Mn4 1_555 1_555
H55 O40 1_555 1_555
H56 O40 1_555 1_555
O41 Mn5 1_555 1_555
H57 O41 1_555 1_555
H58 O41 1_555 1_555
O42 Mn5 1_555 1_555
O44 Mn4 1_555 1_555
O47 Mn4 1_555 1_555
O49 Mn5 1_555 1_555
O50 Mn4 1_555 1_555
O53 Mn6 1_555 1_555
Mn8 O24 1_555 1_555
Mn13 O22 1_555 1_555
O54 Mn5 1_555 1_555
O12 Mn6 1_555 1_555
C38 C42 1_555 1_555
O23 Mn4 1_555 1_555
O24 Mn13 1_555 1_555
O30 Mn6 1_555 1_555
O31 Mn8 1_555 1_555
C44 C58 1_555 1_555
C45 C55 1_555 1_555
C49 C52 1_555 1_555
O34 C79 1_555 1_555
C51 C79 1_555 1_555
C52 C83 1_555 1_555
P5 N4 1_555 1_555
P6 N5 1_555 1_555
P6 N6 1_555 1_555
C57 C68 1_555 1_555
C61 C62 1_555 1_555
C70 C81 1_555 1_555
C73 C77 1_555 1_555
C75 C76 1_555 1_555
C78 C82 1_555 1_555
Mn5 O44 1_555 1_555
Mn6 O40 1_555 1_555
O5 C30 1_555 1_555
O11 C30 1_555 1_555
H13 C23 1_555 1_555
C29 C23 1_555 1_555
C30 C29 1_555 1_555
Mn7 O5 1_555 1_555
Mn16 O11 1_555 1_555
O26 C72 1_555 1_555
O32 C72 1_555 1_555
H43 C65 1_555 1_555
C71 C65 1_555 1_555
C72 C71 1_555 1_555
Mn9 O26 1_555 1_555
Mn17 O32 1_555 1_555
O5_2 C30_2 1_555 1_555
O11_2 C30_2 1_555 1_555
H13_2 C23_2 1_555 1_555
C29_2 C23_2 1_555 1_555
C30_2 C29_2 1_555 1_555
O26_2 C72_2 1_555 1_555
O32_2 C72_2 1_555 1_555
H43_2 C65_2 1_555 1_555
C71_2 C65_2 1_555 1_555
C72_2 C71_2 1_555 1_555
Mn8 O5_2 1_555 1_555
Mn10 O26_2 1_555 1_555
Mn16_2 O11_2 1_555 1_555
Mn17_2 O32_2 1_555 1_555
P1_2 O8_2 1_555 1_555
O1_2 C14_2 1_555 1_555
O2_2 C24_2 1_555 1_555
O3_2 C8_2 1_555 1_555
O4_2 C41_2 1_555 1_555
C1_2 H1_2 1_555 1_555
O6_2 C24_2 1_555 1_555
O7_2 C14_2 1_555 1_555
O8_2 C13_2 1_555 1_555
O9_2 C41_2 1_555 1_555
O10_2 C8_2 1_555 1_555
C2_2 C4_2 1_555 1_555
C3_2 H2_2 1_555 1_555
C4_2 C3_2 1_555 1_555
H3_2 C4_2 1_555 1_555
C5_2 H4_2 1_555 1_555
C6_2 H5_2 1_555 1_555
C7_2 C6_2 1_555 1_555
H6_2 C7_2 1_555 1_555
O12_2 C21_2 1_555 1_555
C8_2 C22_2 1_555 1_555
O13_2 P1_2 1_555 1_555
C9_2 C5_2 1_555 1_555
H7_2 C9_2 1_555 1_555
C10_2 C5_2 1_555 1_555
P2_2 O15_2 1_555 1_555
P3_2 O14_2 1_555 1_555
O14_2 C36_2 1_555 1_555
O15_2 C11_2 1_555 1_555
N1_2 P1_2 1_555 1_555
C11_2 C12_2 1_555 1_555
N2_2 P2_2 1_555 1_555
N3_2 P1_2 1_555 1_555
O16_2 P3_2 1_555 1_555
C12_2 H8_2 1_555 1_555
C13_2 C1_2 1_555 1_555
C14_2 C2_2 1_555 1_555
O17_2 P2_2 1_555 1_555
C15_2 H9_2 1_555 1_555
O18_2 C21_2 1_555 1_555
C16_2 C1_2 1_555 1_555
H10_2 C16_2 1_555 1_555
C17_2 C24_2 1_555 1_555
C18_2 H11_2 1_555 1_555
C19_2 O16_2 1_555 1_555
C20_2 C18_2 1_555 1_555
H12_2 C20_2 1_555 1_555
C21_2 C38_2 1_555 1_555
C22_2 C18_2 1_555 1_555
C25_2 C17_2 1_555 1_555
H14_2 C25_2 1_555 1_555
C26_2 O17_2 1_555 1_555
C27_2 C11_2 1_555 1_555
H15_2 C27_2 1_555 1_555
C28_2 C22_2 1_555 1_555
H16_2 C28_2 1_555 1_555
C31_2 C26_2 1_555 1_555
H17_2 C31_2 1_555 1_555
C32_2 C27_2 1_555 1_555
H18_2 C32_2 1_555 1_555
C33_2 H19_2 1_555 1_555
C34_2 C17_2 1_555 1_555
H20_2 C34_2 1_555 1_555
H21_2 C35_2 1_555 1_555
C36_2 C33_2 1_555 1_555
C37_2 C6_2 1_555 1_555
C38_2 C32_2 1_555 1_555
C39_2 C19_2 1_555 1_555
H22_2 C39_2 1_555 1_555
C40_2 C25_2 1_555 1_555
H23_2 C40_2 1_555 1_555
C41_2 C10_2 1_555 1_555
C42_2 C12_2 1_555 1_555
H24_2 C42_2 1_555 1_555
Mn1_2 O2_2 1_555 1_555
Mn2_2 O6_2 1_555 1_555
Mn3_2 O9_2 1_555 1_555
O19_2 Mn1_2 1_555 1_555
H25_2 O19_2 1_555 1_555
H26_2 O19_2 1_555 1_555
O54 Mn2_2 1_555 1_555
O21_2 Mn2_2 1_555 1_555
H27_2 O54 1_555 1_555
H28_2 O21_2 1_555 1_555
H29_2 O21_2 1_555 1_555
H30_2 O54 1_555 1_555
P4_2 O29_2 1_555 1_555
O22_2 C56_2 1_555 1_555
O23_2 C66_2 1_555 1_555
O24_2 C50_2 1_555 1_555
O25_2 Mn3_2 1_555 1_555
C43_2 H31_2 1_555 1_555
O27_2 C66_2 1_555 1_555
O28_2 C56_2 1_555 1_555
O29_2 C55_2 1_555 1_555
O30_2 C83_2 1_555 1_555
O31_2 C50_2 1_555 1_555
C44_2 C46_2 1_555 1_555
C45_2 H32_2 1_555 1_555
C46_2 C45_2 1_555 1_555
H33_2 C46_2 1_555 1_555
C47_2 H34_2 1_555 1_555
C48_2 H35_2 1_555 1_555
C49_2 C48_2 1_555 1_555
H36_2 C49_2 1_555 1_555
O33_2 Mn3_2 1_555 1_555
C50_2 C64_2 1_555 1_555
O34_2 P4_2 1_555 1_555
C51_2 C47_2 1_555 1_555
H37_2 C51_2 1_555 1_555
C52_2 C47_2 1_555 1_555
P5_2 O36_2 1_555 1_555
P6_2 O35_2 1_555 1_555
O35_2 C78_2 1_555 1_555
O36_2 C53_2 1_555 1_555
N4_2 P4_2 1_555 1_555
C53_2 C54_2 1_555 1_555
N5_2 P5_2 1_555 1_555
N6_2 P4_2 1_555 1_555
O37_2 P6_2 1_555 1_555
C54_2 H38_2 1_555 1_555
C55_2 C43_2 1_555 1_555
C56_2 C44_2 1_555 1_555
O38_2 P5_2 1_555 1_555
C57_2 H39_2 1_555 1_555
O39_2 Mn1_2 1_555 1_555
C58_2 C43_2 1_555 1_555
H40_2 C58_2 1_555 1_555
C59_2 C66_2 1_555 1_555
C60_2 H41_2 1_555 1_555
C61_2 O37_2 1_555 1_555
C62_2 C60_2 1_555 1_555
H42_2 C62_2 1_555 1_555
C63_2 O33_2 1_555 1_555
C64_2 C60_2 1_555 1_555
C67_2 C59_2 1_555 1_555
H44_2 C67_2 1_555 1_555
C68_2 O38_2 1_555 1_555
C69_2 C53_2 1_555 1_555
H45_2 C69_2 1_555 1_555
C70_2 C64_2 1_555 1_555
H46_2 C70_2 1_555 1_555
C73_2 C68_2 1_555 1_555
H47_2 C73_2 1_555 1_555
C74_2 C69_2 1_555 1_555
H48_2 C74_2 1_555 1_555
C75_2 H49_2 1_555 1_555
C76_2 C59_2 1_555 1_555
H50_2 C76_2 1_555 1_555
H51_2 C77_2 1_555 1_555
C78_2 C75_2 1_555 1_555
C79_2 C48_2 1_555 1_555
C80_2 C63_2 1_555 1_555
C81_2 C61_2 1_555 1_555
H52_2 C81_2 1_555 1_555
C82_2 C67_2 1_555 1_555
H53_2 C82_2 1_555 1_555
C83_2 O25_2 1_555 1_555
C84_2 C54_2 1_555 1_555
H54_2 C84_2 1_555 1_555
Mn4_2 O18_2 1_555 1_555
Mn11 O27_2 1_555 1_555
Mn6_2 O4_2 1_555 1_555
O40_2 Mn4_2 1_555 1_555
H55_2 O40_2 1_555 1_555
H56_2 O40_2 1_555 1_555
O41_2 Mn11 1_555 1_555
H57_2 O41_2 1_555 1_555
H58_2 O41_2 1_555 1_555
O42_2 Mn11 1_555 1_555
O43_2 Mn2_2 1_555 1_555
O44_2 Mn4_2 1_555 1_555
O45_2 Mn1_2 1_555 1_555
O46_2 Mn1_2 1_555 1_555
O47_2 Mn4_2 1_555 1_555
O48_2 Mn2_2 1_555 1_555
O49_2 Mn11 1_555 1_555
O50_2 Mn4_2 1_555 1_555
O51_2 Mn1_2 1_555 1_555
O52_2 Mn3_2 1_555 1_555
O53_2 Mn6_2 1_555 1_555
Mn7 O24_2 1_555 1_555
Mn9 O3_2 1_555 1_555
Mn12 O22_2 1_555 1_555
Mn14 O1_2 1_555 1_555
O3_2 Mn14 1_555 1_555
O10_2 Mn9 1_555 1_555
C2_2 C16_2 1_555 1_555
C3_2 C13_2 1_555 1_555
C7_2 C10_2 1_555 1_555
O12_2 Mn6_2 1_555 1_555
O13_2 C37_2 1_555 1_555
C9_2 C37_2 1_555 1_555
P2_2 N1_2 1_555 1_555
P3_2 N2_2 1_555 1_555
P3_2 N3_2 1_555 1_555
C15_2 C26_2 1_555 1_555
C19_2 C20_2 1_555 1_555
C28_2 C39_2 1_555 1_555
C31_2 C35_2 1_555 1_555
C33_2 C34_2 1_555 1_555
C36_2 C40_2 1_555 1_555
C38_2 C42_2 1_555 1_555
Mn2_2 O45_2 1_555 1_555
Mn3_2 O19_2 1_555 1_555
O23_2 Mn4_2 1_555 1_555
O24_2 Mn12 1_555 1_555
O30_2 Mn6_2 1_555 1_555
O31_2 Mn7 1_555 1_555
C44_2 C58_2 1_555 1_555
C45_2 C55_2 1_555 1_555
C49_2 C52_2 1_555 1_555
O34_2 C79_2 1_555 1_555
C51_2 C79_2 1_555 1_555
C52_2 C83_2 1_555 1_555
P5_2 N4_2 1_555 1_555
P6_2 N5_2 1_555 1_555
P6_2 N6_2 1_555 1_555
C57_2 C68_2 1_555 1_555
O39_2 C63_2 1_555 1_555
C61_2 C62_2 1_555 1_555
C70_2 C81_2 1_555 1_555
C73_2 C77_2 1_555 1_555
C74_2 C80_2 1_555 1_555
C75_2 C76_2 1_555 1_555
C78_2 C82_2 1_555 1_555
C80_2 C84_2 1_555 1_555
Mn11 O44_2 1_555 1_555
Mn6_2 O40_2 1_555 1_555
H27_3 O20_2 1_555 1_555
Mn15 O20_2 1_555 1_555
O2_3 C24_3 1_555 1_555
O6_3 C24_3 1_555 1_555
Mn7 O2_3 1_555 1_555
Mn12 O6_3 1_555 1_555
O19_3 Mn7 1_555 1_555
H25_3 O19_3 1_555 1_555
H26_3 O19_3 1_555 1_555
O20_3 Mn12 1_555 1_555
O21_3 Mn12 1_555 1_555
H29_3 O21_3 1_555 1_555
H30_3 O20_3 1_555 1_555
O33_3 Mn16 1_555 1_555
O39_3 Mn7 1_555 1_555
C63_3 O33_3 1_555 1_555
C80_3 C63_3 1_555 1_555
H54_3 C84_3 1_555 1_555
Mn16 O19_3 1_555 1_555
O39_3 C63_3 1_555 1_555
C80_3 C84_3 1_555 1_555
P4_3 O29_3 1_555 1_555
O43_2 C56_3 1_555 1_555
O45_2 C50_3 1_555 1_555
O47 C72_3 1_555 1_555
C43_3 H31_3 1_555 1_555
O49 C56_3 1_555 1_555
O29_3 C55_3 1_555 1_555
O30_3 C83_3 1_555 1_555
O51_2 C50_3 1_555 1_555
O53 C72_3 1_555 1_555
C44_3 C46_3 1_555 1_555
C45_3 H32_3 1_555 1_555
C46_3 C45_3 1_555 1_555
H33_3 C46_3 1_555 1_555
C47_3 H34_3 1_555 1_555
C48_3 H35_3 1_555 1_555
C49_3 C48_3 1_555 1_555
H36_3 C49_3 1_555 1_555
C50_3 C64_3 1_555 1_555
O34_3 P4_3 1_555 1_555
C51_3 C47_3 1_555 1_555
H37_3 C51_3 1_555 1_555
C52_3 C47_3 1_555 1_555
P5_3 O36_3 1_555 1_555
P6_3 O35_3 1_555 1_555
O35_3 C78_3 1_555 1_555
O36_3 C53_3 1_555 1_555
N4_3 P4_3 1_555 1_555
C53_3 C54_3 1_555 1_555
N5_3 P5_3 1_555 1_555
N6_3 P4_3 1_555 1_555
O37_3 P6_3 1_555 1_555
C54_3 H38_3 1_555 1_555
C55_3 C43_3 1_555 1_555
C56_3 C44_3 1_555 1_555
O38_3 P5_3 1_555 1_555
C57_3 H39_3 1_555 1_555
C58_3 C43_3 1_555 1_555
H40_3 C58_3 1_555 1_555
C60_3 H41_3 1_555 1_555
C61_3 O37_3 1_555 1_555
C62_3 C60_3 1_555 1_555
H42_3 C62_3 1_555 1_555
C64_3 C60_3 1_555 1_555
C65_3 C57_3 1_555 1_555
H43_3 C65_3 1_555 1_555
C67_3 C59_3 1_555 1_555
H44_3 C67_3 1_555 1_555
C68_3 O38_3 1_555 1_555
C69_3 C53_3 1_555 1_555
H45_3 C69_3 1_555 1_555
C70_3 C64_3 1_555 1_555
H46_3 C70_3 1_555 1_555
C71_3 C65_3 1_555 1_555
C72_3 C71_3 1_555 1_555
C73_3 C68_3 1_555 1_555
H47_3 C73_3 1_555 1_555
C74_3 C69_3 1_555 1_555
H48_3 C74_3 1_555 1_555
C75_3 H49_3 1_555 1_555
C76_3 C59_3 1_555 1_555
H50_3 C76_3 1_555 1_555
C77_3 C71_3 1_555 1_555
H51_3 C77_3 1_555 1_555
C78_3 C75_3 1_555 1_555
C79_3 C48_3 1_555 1_555
C81_3 C61_3 1_555 1_555
H52_3 C81_3 1_555 1_555
C82_3 C67_3 1_555 1_555
H53_3 C82_3 1_555 1_555
C83_3 O25_3 1_555 1_555
C44_3 C58_3 1_555 1_555
C45_3 C55_3 1_555 1_555
C49_3 C52_3 1_555 1_555
O34_3 C79_3 1_555 1_555
C51_3 C79_3 1_555 1_555
C52_3 C83_3 1_555 1_555
P5_3 N4_3 1_555 1_555
P6_3 N5_3 1_555 1_555
P6_3 N6_3 1_555 1_555
C57_3 C68_3 1_555 1_555
C61_3 C62_3 1_555 1_555
C70_3 C81_3 1_555 1_555
C73_3 C77_3 1_555 1_555
C75_3 C76_3 1_555 1_555
C78_3 C82_3 1_555 1_555
P1_3 O8_3 1_555 1_555
O42_2 C14_3 1_555 1_555
O44_2 C8_3 1_555 1_555
O4_3 C41_3 1_555 1_555
O46 C30_3 1_555 1_555
C1_3 H1_3 1_555 1_555
O48 C14_3 1_555 1_555
O8_3 C13_3 1_555 1_555
O9_3 C41_3 1_555 1_555
O50_2 C8_3 1_555 1_555
O52 C30_3 1_555 1_555
C2_3 C4_3 1_555 1_555
C3_3 H2_3 1_555 1_555
C4_3 C3_3 1_555 1_555
H3_3 C4_3 1_555 1_555
C5_3 H4_3 1_555 1_555
C6_3 H5_3 1_555 1_555
C7_3 C6_3 1_555 1_555
H6_3 C7_3 1_555 1_555
C8_3 C22_3 1_555 1_555
O13_3 P1_3 1_555 1_555
C9_3 C5_3 1_555 1_555
H7_3 C9_3 1_555 1_555
C10_3 C5_3 1_555 1_555
P2_3 O15_3 1_555 1_555
P3_3 O14_3 1_555 1_555
O14_3 C36_3 1_555 1_555
O15_3 C11_3 1_555 1_555
N1_3 P1_3 1_555 1_555
C11_3 C12_3 1_555 1_555
N2_3 P2_3 1_555 1_555
N3_3 P1_3 1_555 1_555
O16_3 P3_3 1_555 1_555
C12_3 H8_3 1_555 1_555
C13_3 C1_3 1_555 1_555
C14_3 C2_3 1_555 1_555
O17_3 P2_3 1_555 1_555
C15_3 H9_3 1_555 1_555
C16_3 C1_3 1_555 1_555
H10_3 C16_3 1_555 1_555
C18_3 H11_3 1_555 1_555
C19_3 O16_3 1_555 1_555
C20_3 C18_3 1_555 1_555
H12_3 C20_3 1_555 1_555
C22_3 C18_3 1_555 1_555
C23_3 C15_3 1_555 1_555
H13_3 C23_3 1_555 1_555
C25_3 C17_3 1_555 1_555
H14_3 C25_3 1_555 1_555
C26_3 O17_3 1_555 1_555
C27_3 C11_3 1_555 1_555
H15_3 C27_3 1_555 1_555
C28_3 C22_3 1_555 1_555
H16_3 C28_3 1_555 1_555
C29_3 C23_3 1_555 1_555
C30_3 C29_3 1_555 1_555
C31_3 C26_3 1_555 1_555
H17_3 C31_3 1_555 1_555
C32_3 C27_3 1_555 1_555
H18_3 C32_3 1_555 1_555
C33_3 H19_3 1_555 1_555
C34_3 C17_3 1_555 1_555
H20_3 C34_3 1_555 1_555
C35_3 C29_3 1_555 1_555
H21_3 C35_3 1_555 1_555
C36_3 C33_3 1_555 1_555
C37_3 C6_3 1_555 1_555
C39_3 C19_3 1_555 1_555
H22_3 C39_3 1_555 1_555
C40_3 C25_3 1_555 1_555
H23_3 C40_3 1_555 1_555
C41_3 C10_3 1_555 1_555
C2_3 C16_3 1_555 1_555
C3_3 C13_3 1_555 1_555
C7_3 C10_3 1_555 1_555
O13_3 C37_3 1_555 1_555
C9_3 C37_3 1_555 1_555
P2_3 N1_3 1_555 1_555
P3_3 N2_3 1_555 1_555
P3_3 N3_3 1_555 1_555
C15_3 C26_3 1_555 1_555
C19_3 C20_3 1_555 1_555
C28_3 C39_3 1_555 1_555
C31_3 C35_3 1_555 1_555
C33_3 C34_3 1_555 1_555
C36_3 C40_3 1_555 1_555
O12_3 C21_3 1_555 1_555
O18_3 C21_3 1_555 1_555
C21_3 C38_3 1_555 1_555
H24_3 C42_3 1_555 1_555
O23_3 C66_3 1_555 1_555
O27_3 C66_3 1_555 1_555
Mn9 O18_3 1_555 1_555
Mn14 O27_3 1_555 1_555
O40_3 Mn9 1_555 1_555
H55_3 O40_3 1_555 1_555
H56_3 O40_3 1_555 1_555
O41_3 Mn14 1_555 1_555
H58_3 O41_3 1_555 1_555
O54_3 Mn14 1_555 1_555
O12_3 Mn17 1_555 1_555
C38_3 C42_3 1_555 1_555
O23_3 Mn9 1_555 1_555
Mn17 O40_3 1_555 1_555
P1_4 O8_4 1_555 1_555
O42 C14_4 1_555 1_555
O44 C8_4 1_555 1_555
O4_4 C41_4 1_555 1_555
O46_2 C30_4 1_555 1_555
C1_4 H1_4 1_555 1_555
O48_2 C14_4 1_555 1_555
O8_4 C13_4 1_555 1_555
O9_4 C41_4 1_555 1_555
O50 C8_4 1_555 1_555
O52_2 C30_4 1_555 1_555
C2_4 C4_4 1_555 1_555
C3_4 H2_4 1_555 1_555
C4_4 C3_4 1_555 1_555
H3_4 C4_4 1_555 1_555
C5_4 H4_4 1_555 1_555
C6_4 H5_4 1_555 1_555
C7_4 C6_4 1_555 1_555
H6_4 C7_4 1_555 1_555
O12_4 C21_4 1_555 1_555
C8_4 C22_4 1_555 1_555
O13_4 P1_4 1_555 1_555
C9_4 C5_4 1_555 1_555
H7_4 C9_4 1_555 1_555
C10_4 C5_4 1_555 1_555
P2_4 O15_4 1_555 1_555
P3_4 O14_4 1_555 1_555
O14_4 C36_4 1_555 1_555
O15_4 C11_4 1_555 1_555
N1_4 P1_4 1_555 1_555
C11_4 C12_4 1_555 1_555
N2_4 P2_4 1_555 1_555
N3_4 P1_4 1_555 1_555
O16_4 P3_4 1_555 1_555
C12_4 H8_4 1_555 1_555
C13_4 C1_4 1_555 1_555
C14_4 C2_4 1_555 1_555
O17_4 P2_4 1_555 1_555
C15_4 H9_4 1_555 1_555
O18_4 C21_4 1_555 1_555
C16_4 C1_4 1_555 1_555
H10_4 C16_4 1_555 1_555
C18_4 H11_4 1_555 1_555
C19_4 O16_4 1_555 1_555
C20_4 C18_4 1_555 1_555
H12_4 C20_4 1_555 1_555
C21_4 C38_4 1_555 1_555
C22_4 C18_4 1_555 1_555
C23_4 C15_4 1_555 1_555
H13_4 C23_4 1_555 1_555
C25_4 C17_4 1_555 1_555
H14_4 C25_4 1_555 1_555
C26_4 O17_4 1_555 1_555
C27_4 C11_4 1_555 1_555
H15_4 C27_4 1_555 1_555
C28_4 C22_4 1_555 1_555
H16_4 C28_4 1_555 1_555
C29_4 C23_4 1_555 1_555
C30_4 C29_4 1_555 1_555
C31_4 C26_4 1_555 1_555
H17_4 C31_4 1_555 1_555
C32_4 C27_4 1_555 1_555
H18_4 C32_4 1_555 1_555
C33_4 H19_4 1_555 1_555
C34_4 C17_4 1_555 1_555
H20_4 C34_4 1_555 1_555
C35_4 C29_4 1_555 1_555
H21_4 C35_4 1_555 1_555
C36_4 C33_4 1_555 1_555
C37_4 C6_4 1_555 1_555
C38_4 C32_4 1_555 1_555
C39_4 C19_4 1_555 1_555
H22_4 C39_4 1_555 1_555
C40_4 C25_4 1_555 1_555
H23_4 C40_4 1_555 1_555
C41_4 C10_4 1_555 1_555
C42_4 C12_4 1_555 1_555
H24_4 C42_4 1_555 1_555
O23_4 C66_4 1_555 1_555
O27_4 C66_4 1_555 1_555
Mn10 O18_4 1_555 1_555
Mn15 O27_4 1_555 1_555
Mn17_2 O4_4 1_555 1_555
O40_4 Mn10 1_555 1_555
H55_4 O40_4 1_555 1_555
H56_4 O40_4 1_555 1_555
O41_4 Mn15 1_555 1_555
H58_4 O41_4 1_555 1_555
C2_4 C16_4 1_555 1_555
C3_4 C13_4 1_555 1_555
C7_4 C10_4 1_555 1_555
O12_4 Mn17_2 1_555 1_555
O13_4 C37_4 1_555 1_555
C9_4 C37_4 1_555 1_555
P2_4 N1_4 1_555 1_555
P3_4 N2_4 1_555 1_555
P3_4 N3_4 1_555 1_555
C15_4 C26_4 1_555 1_555
C19_4 C20_4 1_555 1_555
C28_4 C39_4 1_555 1_555
C31_4 C35_4 1_555 1_555
C33_4 C34_4 1_555 1_555
C36_4 C40_4 1_555 1_555
C38_4 C42_4 1_555 1_555
O23_4 Mn10 1_555 1_555
Mn17_2 O40_4 1_555 1_555
O2_4 C24_4 1_555 1_555
O6_4 C24_4 1_555 1_555
Mn8 O2_4 1_555 1_555
Mn13 O6_4 1_555 1_555
O19_4 Mn8 1_555 1_555
H25_4 O19_4 1_555 1_555
H26_4 O19_4 1_555 1_555
O54_2 Mn13 1_555 1_555
O21_4 Mn13 1_555 1_555
H29_4 O21_4 1_555 1_555
H30_4 O54_2 1_555 1_555
P4_4 O29_4 1_555 1_555
O43 C56_4 1_555 1_555
O45 C50_4 1_555 1_555
O25_4 Mn16_2 1_555 1_555
O47_2 C72_4 1_555 1_555
C43_4 H31_4 1_555 1_555
O49_2 C56_4 1_555 1_555
O29_4 C55_4 1_555 1_555
O30_4 C83_4 1_555 1_555
O51 C50_4 1_555 1_555
O53_2 C72_4 1_555 1_555
C44_4 C46_4 1_555 1_555
C45_4 H32_4 1_555 1_555
C46_4 C45_4 1_555 1_555
H33_4 C46_4 1_555 1_555
C47_4 H34_4 1_555 1_555
C48_4 H35_4 1_555 1_555
C49_4 C48_4 1_555 1_555
H36_4 C49_4 1_555 1_555
O33_4 Mn16_2 1_555 1_555
C50_4 C64_4 1_555 1_555
O34_4 P4_4 1_555 1_555
C51_4 C47_4 1_555 1_555
H37_4 C51_4 1_555 1_555
C52_4 C47_4 1_555 1_555
P5_4 O36_4 1_555 1_555
P6_4 O35_4 1_555 1_555
O35_4 C78_4 1_555 1_555
O36_4 C53_4 1_555 1_555
N4_4 P4_4 1_555 1_555
C53_4 C54_4 1_555 1_555
N5_4 P5_4 1_555 1_555
N6_4 P4_4 1_555 1_555
O37_4 P6_4 1_555 1_555
C54_4 H38_4 1_555 1_555
C55_4 C43_4 1_555 1_555
C56_4 C44_4 1_555 1_555
O38_4 P5_4 1_555 1_555
C57_4 H39_4 1_555 1_555
O39_4 Mn8 1_555 1_555
C58_4 C43_4 1_555 1_555
H40_4 C58_4 1_555 1_555
C60_4 H41_4 1_555 1_555
C61_4 O37_4 1_555 1_555
C62_4 C60_4 1_555 1_555
H42_4 C62_4 1_555 1_555
C63_4 O33_4 1_555 1_555
C64_4 C60_4 1_555 1_555
C65_4 C57_4 1_555 1_555
H43_4 C65_4 1_555 1_555
C67_4 C59_4 1_555 1_555
H44_4 C67_4 1_555 1_555
C68_4 O38_4 1_555 1_555
C69_4 C53_4 1_555 1_555
H45_4 C69_4 1_555 1_555
C70_4 C64_4 1_555 1_555
H46_4 C70_4 1_555 1_555
C71_4 C65_4 1_555 1_555
C72_4 C71_4 1_555 1_555
C73_4 C68_4 1_555 1_555
H47_4 C73_4 1_555 1_555
C74_4 C69_4 1_555 1_555
H48_4 C74_4 1_555 1_555
C75_4 H49_4 1_555 1_555
C76_4 C59_4 1_555 1_555
H50_4 C76_4 1_555 1_555
C77_4 C71_4 1_555 1_555
H51_4 C77_4 1_555 1_555
C78_4 C75_4 1_555 1_555
C79_4 C48_4 1_555 1_555
C80_4 C63_4 1_555 1_555
C81_4 C61_4 1_555 1_555
H52_4 C81_4 1_555 1_555
C82_4 C67_4 1_555 1_555
H53_4 C82_4 1_555 1_555
C83_4 O25_4 1_555 1_555
C84_4 C54_4 1_555 1_555
H54_4 C84_4 1_555 1_555
Mn16_2 O19_4 1_555 1_555
C44_4 C58_4 1_555 1_555
C45_4 C55_4 1_555 1_555
C49_4 C52_4 1_555 1_555
O34_4 C79_4 1_555 1_555
C51_4 C79_4 1_555 1_555
C52_4 C83_4 1_555 1_555
P5_4 N4_4 1_555 1_555
P6_4 N5_4 1_555 1_555
P6_4 N6_4 1_555 1_555
C57_4 C68_4 1_555 1_555
O39_4 C63_4 1_555 1_555
C61_4 C62_4 1_555 1_555
C70_4 C81_4 1_555 1_555
C73_4 C77_4 1_555 1_555
C74_4 C80_4 1_555 1_555
C75_4 C76_4 1_555 1_555
C78_4 C82_4 1_555 1_555
C80_4 C84_4 1_555 1_555
H27_4 O54_3 1_555 1_555

#END
