
###############################################################################
#
# This file contains modified crystal structure data generated from the
# MOF subset of the Cambridge Structural Database (CSD) v543 
# hosted by the Cambridge Crystallographic Data Centre (CCDC).
#
# This work is licensed under the Creative Commons
# Attribution-NonCommercial-ShareAlike 4.0 International License.
# To view a copy of this license, visit
# http://creativecommons.org/licenses/by-nc-sa/4.0/
# or send a letter to
# Creative Commons, PO Box 1866, Mountain View, CA 94042, USA.
#
# CIF created using the CSD Python API on 29 September 2022
# The structure has been converted into the P1 space group
# The structure has a 3D framework
# The original CSD entry ZOHJUE is in the orthorhombic crystal system
# The original CSD entry ZOHJUE is in a Sohncke space group
# The framework has been calculated to contain at least 10.0% void space
# The void calculation uses a probe of radius 1.32A, grid spacing 0.4
# H atom positions have been added when not included in the experimental data
#
###############################################################################

data_ZOHJUE
_chemical_formula_moiety         '(C336 H256 Mn24 N24 O174 P24)n'
_symmetry_cell_setting           triclinic
_symmetry_space_group_name_H-M   'P 1'
_symmetry_Int_Tables_number      1
_space_group_name_Hall           'P 1'
loop_
_symmetry_equiv_pos_site_id
_symmetry_equiv_pos_as_xyz
1 x,y,z
_cell_length_a                   21.0921(11)
_cell_length_b                   28.4208(8)
_cell_length_c                   34.8069(8)
_cell_angle_alpha                90
_cell_angle_beta                 90
_cell_angle_gamma                90
_cell_volume                     20865.1
loop_
_atom_site_label
_atom_site_type_symbol
_atom_site_fract_x
_atom_site_fract_y
_atom_site_fract_z
O23 O 0.0541(4) 0.6200(2) 0.94813(18)
O29 O 0.1062(3) 0.6493(2) 0.8979(2)
C44 C 0.0654(6) 0.6521(3) 0.9238(3)
C48 C 0.0282(5) 0.6960(3) 0.9260(2)
H45 H 0.0027 0.7918 0.8789
C73 C 0.0332(6) 0.7279(4) 0.8973(3)
H55 H 0.0594 0.7217 0.8764
Mn10 Mn 0.05891(8) 0.56347(4) 0.78613(3)
Mn16 Mn 0.15206(8) 0.59306(5) 0.87123(4)
Mn20 Mn 0.07077(9) 0.54630(5) 0.95069(4)
O54 O 0.5745(6) 0.0540(3) 0.0102(2)
O6 O 0.5000 0.0124(3) 0.7500
O12 O 0.3094(4) 0.0354(2) 0.6554(2)
O14 O 0.3759(4) 0.0112(2) 0.7012(3)
O15 O 0.4882(7) 0.0301(4) 0.6653(2)
H1 H 0.4726 0.0028 0.6619
H2 H 0.5278 0.0275 0.6693
O21 O 0.4381(3) 0.0521(2) 0.61557(16)
H3 H 0.4380 0.0252 0.6262
H4 H 0.4712 0.0671 0.6222
O22 O 0.5293(6) 0.0336(4) 0.5429(3)
H5 H 0.5532 0.0024 0.5343
H6 H 0.5677 0.0569 0.5479
C15 C 0.3313(7) 0.0054(3) 0.6809(3)
Mn1 Mn 0.44109(8) 0.06347(4) 0.71387(3)
Mn2 Mn 0.34794(8) 0.09306(5) 0.62877(4)
Mn3 Mn 0.42923(9) 0.04630(5) 0.54931(4)
O33 O 0.6906(4) 0.0354(2) 0.8446(2)
O35 O 0.6241(4) 0.0112(2) 0.7988(3)
O36 O 0.5118(7) 0.0301(4) 0.8347(2)
H33 H 0.5274 0.0028 0.8381
H34 H 0.4722 0.0275 0.8307
O42 O 0.5619(3) 0.0521(2) 0.88443(16)
H35 H 0.5620 0.0252 0.8738
H36 H 0.5288 0.0671 0.8778
O43 O 0.4707(6) 0.0336(4) 0.9571(3)
H37 H 0.4468 0.0024 0.9657
H38 H 0.4323 0.0569 0.9521
C57 C 0.6687(7) 0.0054(3) 0.8191(3)
Mn4 Mn 0.55891(8) 0.06347(4) 0.78613(3)
Mn5 Mn 0.65206(8) 0.09306(5) 0.87123(4)
Mn6 Mn 0.57077(9) 0.04630(5) 0.95069(4)
O44 O 0.4459(4) 0.1200(2) 0.55187(18)
O45 O 0.5541(4) 0.1200(2) 0.94813(18)
O46 O 0.6086(4) 0.11803(19) 0.81684(16)
O47 O 0.3914(4) 0.11803(19) 0.68316(16)
O48 O 0.7007(4) 0.1500(2) 0.83272(19)
O49 O 0.2993(4) 0.1500(2) 0.66728(19)
O50 O 0.6046(5) 0.0819(2) 0.73452(18)
O51 O 0.3954(5) 0.0819(2) 0.76548(18)
O52 O 0.3938(3) 0.1493(2) 0.6021(2)
O53 O 0.6062(3) 0.1493(2) 0.8979(2)
O55 O 0.4255(6) 0.0540(3) 0.4898(2)
O56 O 0.5245(6) 0.1051(4) 0.7064(4)
O57 O 0.4755(6) 0.1051(4) 0.7936(4)
O58 O 0.7306(5) 0.1024(3) 0.9085(3)
O59 O 0.2694(5) 0.1024(3) 0.5915(3)
O60 O 0.6708(5) 0.0549(3) 0.9396(3)
O61 O 0.3292(5) 0.0549(3) 0.5604(3)
O39 O 0.7306(5) 0.8976(3) 0.0915(3)
O40 O 0.6708(5) 0.9451(3) 0.0604(3)
C66 C 0.7552(6) 0.9112(4) 0.0262(3)
C81 C 0.8001(7) 0.8767(5) 0.0247(3)
H61 H 0.8104 0.8609 0.0473
C82 C 0.7170(8) 0.9200(5) 0.0605(4)
Mn11 Mn 0.65206(8) 0.90694(5) 0.12877(4)
Mn17 Mn 0.57077(9) 0.95370(5) 0.04931(4)
O2 O 0.1520(4) 0.8806(2) 0.57633(16)
O3 O 0.1122(3) 0.77789(19) 0.69014(16)
O4 O 0.1086(4) 0.61803(19) 0.81684(16)
O5 O 0.2007(4) 0.6500(2) 0.83272(19)
O7 O 0.1046(5) 0.5819(2) 0.73452(18)
O9 O 0.3013(4) 0.7721(2) 0.5970(2)
O10 O 0.0705(3) 0.8218(2) 0.56677(18)
O11 O 0.1762(4) 0.8455(2) 0.70035(16)
O13 O 0.4255(6) 0.9460(3) 0.5102(2)
O16 O 0.0245(6) 0.6051(4) 0.7064(4)
O17 O 0.2293(4) 0.7111(2) 0.6065(2)
O18 O 0.2694(5) 0.8976(3) 0.4085(3)
O19 O 0.3292(5) 0.9451(3) 0.4396(3)
O20 O 0.4169(5) 0.9752(2) 0.5660(2)
P1 P 0.15855(15) 0.80992(8) 0.66691(7)
P2 P 0.13336(15) 0.82941(8) 0.59100(7)
P3 P 0.22990(15) 0.76752(9) 0.61036(8)
N1 N 0.2205(4) 0.7827(3) 0.6529(2)
N2 N 0.1159(4) 0.8351(2) 0.6347(2)
N3 N 0.1854(5) 0.7915(3) 0.5800(2)
C1 C 0.1263(5) 0.7481(3) 0.7213(3)
C3 C 0.0836(5) 0.6897(3) 0.7636(2)
H7 H 0.0496 0.6717 0.7722
C4 C 0.3093(7) 0.9289(3) 0.7098(3)
H8 H 0.3467 0.9319 0.7237
C5 C 0.1437(6) 0.6849(3) 0.7802(2)
C7 C 0.1508(5) 0.6485(3) 0.8111(2)
C8 C 0.1851(6) 0.7428(3) 0.7372(3)
H9 H 0.2193 0.7597 0.7276
C9 C 0.1188(6) 0.6282(3) 0.6800(3)
C10 C 0.2899(5) 0.9640(3) 0.6844(2)
C11 C 0.0446(6) 0.7469(4) 0.5408(3)
H10 H 0.0723 0.7519 0.5205
C12 C 0.1953(5) 0.9204(3) 0.6689(3)
H11 H 0.1566 0.9181 0.6563
C13 C 0.0917(5) 0.6526(3) 0.6497(3)
H12 H 0.0482 0.6508 0.6456
C14 C 0.0004(5) 0.7699(4) 0.6013(3)
C16 C 0.1820(7) 0.6327(4) 0.6853(3)
H14 H 0.2016 0.6168 0.7054
C17 C 0.0392(5) 0.7785(3) 0.5692(3)
C18 C 0.3828(5) 0.8970(3) 0.5580(2)
C19 C 0.1935(6) 0.7122(3) 0.7674(3)
H15 H 0.2329 0.7100 0.7793
C20 C 0.2184(6) 0.6612(4) 0.6608(4)
H16 H 0.2618 0.6639 0.6651
C21 C 0.3282(5) 0.8163(3) 0.5839(3)
C22 C 0.1817(6) 0.8903(3) 0.5415(3)
C23 C 0.2711(7) 0.8888(4) 0.7141(3)
H17 H 0.2832 0.8648 0.7308
C24 C 0.2448(6) 0.9112(4) 0.4738(3)
C25 C 0.0782(7) 0.6024(3) 0.7073(3)
C26 C 0.3617(5) 0.8935(3) 0.5967(2)
H18 H 0.3678 0.9187 0.6134
C27 C 0.2333(6) 0.9588(3) 0.6636(3)
H19 H 0.2215 0.9818 0.6460
C28 C 0.3774(6) 0.8590(3) 0.5342(3)
H20 H 0.3930 0.8606 0.5092
C29 C 0.2572(5) 0.9360(3) 0.5074(3)
H21 H 0.2870 0.9601 0.5071
C30 C 0.1301(7) 0.6803(3) 0.6248(3)
H22 H 0.1118 0.6954 0.6038
C32 C 0.1923(6) 0.6845(3) 0.6313(3)
C33 C 0.3337(5) 0.8551(4) 0.6092(3)
H24 H 0.3178 0.8534 0.6340
C34 C 0.2262(5) 0.9257(3) 0.5413(3)
H25 H 0.2352 0.9424 0.5637
C35 C 0.0762(5) 0.7223(3) 0.7339(2)
H26 H 0.0365 0.7264 0.7226
C36 C 0.1701(7) 0.8645(4) 0.5078(3)
H27 H 0.1421 0.8393 0.5081
C37 C 0.2157(6) 0.8849(3) 0.6934(3)
C38 C 0.3491(6) 0.8187(4) 0.5468(3)
H28 H 0.3441 0.7931 0.5304
C39 C 0.1999(7) 0.8767(5) 0.4753(3)
H29 H 0.1896 0.8609 0.4527
C40 C 0.2830(8) 0.9200(5) 0.4395(4)
C41 C 0.0082(6) 0.7068(4) 0.5426(3)
H30 H 0.0109 0.6847 0.5219
C42 C 0.4096(5) 0.9412(4) 0.5435(3)
H31 H 0.5234 0.9951 0.7360
H32 H 0.4766 0.9951 0.7640
O24 O 0.8480(4) 0.8806(2) 0.92367(16)
O25 O 0.8878(3) 0.77789(19) 0.80986(16)
O26 O 0.8914(4) 0.61803(19) 0.68316(16)
O27 O 0.7993(4) 0.6500(2) 0.66728(19)
O28 O 0.8954(5) 0.5819(2) 0.76548(18)
O30 O 0.6987(4) 0.7721(2) 0.9030(2)
O31 O 0.9295(3) 0.8218(2) 0.93323(18)
O32 O 0.8238(4) 0.8455(2) 0.79965(16)
O34 O 0.5745(6) 0.9460(3) 0.9898(2)
O37 O 0.9755(6) 0.6051(4) 0.7936(4)
O38 O 0.7707(4) 0.7111(2) 0.8935(2)
O41 O 0.5831(5) 0.9752(2) 0.9340(2)
P4 P 0.84145(15) 0.80992(8) 0.83309(7)
P5 P 0.86664(15) 0.82941(8) 0.90900(7)
P6 P 0.77010(15) 0.76752(9) 0.88964(8)
N4 N 0.7795(4) 0.7827(3) 0.8471(2)
N5 N 0.8841(4) 0.8351(2) 0.8653(2)
N6 N 0.8146(5) 0.7915(3) 0.9200(2)
C43 C 0.8737(5) 0.7481(3) 0.7787(3)
C45 C 0.9164(5) 0.6897(3) 0.7364(2)
H39 H 0.9504 0.6717 0.7278
C46 C 0.6907(7) 0.9289(3) 0.7902(3)
H40 H 0.6533 0.9319 0.7763
C47 C 0.8563(6) 0.6849(3) 0.7198(2)
C49 C 0.8492(5) 0.6485(3) 0.6889(2)
C50 C 0.8149(6) 0.7428(3) 0.7628(3)
H41 H 0.7807 0.7597 0.7724
C51 C 0.8812(6) 0.6282(3) 0.8200(3)
C52 C 0.7101(5) 0.9640(3) 0.8156(2)
C53 C 0.9554(6) 0.7469(4) 0.9592(3)
H42 H 0.9277 0.7519 0.9795
C54 C 0.8047(5) 0.9204(3) 0.8311(3)
H43 H 0.8434 0.9181 0.8437
C55 C 0.9083(5) 0.6526(3) 0.8503(3)
H44 H 0.9518 0.6508 0.8544
C56 C 0.9996(5) 0.7699(4) 0.8987(3)
C58 C 0.8180(7) 0.6327(4) 0.8147(3)
H46 H 0.7984 0.6168 0.7946
C59 C 0.9608(5) 0.7785(3) 0.9308(3)
C60 C 0.6172(5) 0.8970(3) 0.9420(2)
C61 C 0.8065(6) 0.7122(3) 0.7326(3)
H47 H 0.7671 0.7100 0.7207
C62 C 0.7816(6) 0.6612(4) 0.8392(4)
H48 H 0.7382 0.6639 0.8349
C63 C 0.6718(5) 0.8163(3) 0.9161(3)
C64 C 0.8183(6) 0.8903(3) 0.9585(3)
C65 C 0.7289(7) 0.8888(4) 0.7859(3)
H49 H 0.7168 0.8648 0.7692
C67 C 0.9218(7) 0.6024(3) 0.7927(3)
C68 C 0.6383(5) 0.8935(3) 0.9033(2)
H50 H 0.6322 0.9187 0.8866
C69 C 0.7667(6) 0.9588(3) 0.8364(3)
H51 H 0.7785 0.9818 0.8540
C70 C 0.6226(6) 0.8590(3) 0.9658(3)
H52 H 0.6070 0.8606 0.9908
C71 C 0.7428(5) 0.9360(3) 0.9926(3)
H53 H 0.7130 0.9601 0.9929
C72 C 0.8699(7) 0.6803(3) 0.8752(3)
H54 H 0.8882 0.6954 0.8962
C74 C 0.8077(6) 0.6845(3) 0.8687(3)
C75 C 0.6663(5) 0.8551(4) 0.8908(3)
H56 H 0.6822 0.8534 0.8660
C76 C 0.7738(5) 0.9257(3) 0.9587(3)
H57 H 0.7648 0.9424 0.9363
C77 C 0.9238(5) 0.7223(3) 0.7661(2)
H58 H 0.9635 0.7264 0.7774
C78 C 0.8299(7) 0.8645(4) 0.9922(3)
H59 H 0.8579 0.8393 0.9919
C79 C 0.7843(6) 0.8849(3) 0.8066(3)
C80 C 0.6509(6) 0.8187(4) 0.9532(3)
H60 H 0.6559 0.7931 0.9696
C83 C 0.9918(6) 0.7068(4) 0.9574(3)
H62 H 0.9891 0.6847 0.9781
C84 C 0.5904(5) 0.9412(4) 0.9565(3)
Mn8 Mn 0.94109(8) 0.56347(4) 0.71387(3)
Mn12 Mn 0.34794(8) 0.90694(5) 0.37123(4)
Mn14 Mn 0.84794(8) 0.59306(5) 0.62877(4)
Mn18 Mn 0.42923(9) 0.95370(5) 0.45069(4)
H63 H 0.190169 0.782294 0.551973
O1 O 0.9459(4) 0.6200(2) 0.55187(18)
O8 O 0.8938(3) 0.6493(2) 0.6021(2)
C2 C 0.9346(6) 0.6521(3) 0.5762(3)
C6 C 0.9718(5) 0.6960(3) 0.5740(2)
H13 H 0.9973 0.7918 0.6211
C31 C 0.9668(6) 0.7279(4) 0.6027(3)
H23 H 0.9406 0.7217 0.6236
Mn19 Mn 0.92923(9) 0.54630(5) 0.54931(4)
O1_2 O 0.0541(4) 0.3800(2) 0.05187(18)
O8_2 O 0.1062(3) 0.3507(2) 0.1021(2)
C2_2 C 0.0654(6) 0.3479(3) 0.0762(3)
C6_2 C 0.0282(5) 0.3040(3) 0.0740(2)
H13_2 H 0.0027 0.2082 0.1211
C31_2 C 0.0332(6) 0.2721(4) 0.1027(3)
H23_2 H 0.0594 0.2783 0.1236
Mn7 Mn 0.05891(8) 0.43653(4) 0.21387(3)
Mn13 Mn 0.15206(8) 0.40694(5) 0.12877(4)
Mn19_2 Mn 0.07077(9) 0.45370(5) 0.04931(4)
O2_2 O 0.8480(4) 0.1194(2) 0.07633(16)
O3_2 O 0.8878(3) 0.22211(19) 0.19014(16)
O4_2 O 0.8914(4) 0.38197(19) 0.31684(16)
O5_2 O 0.7993(4) 0.3500(2) 0.33272(19)
O7_2 O 0.8954(5) 0.4181(2) 0.23452(18)
O9_2 O 0.6987(4) 0.2279(2) 0.0970(2)
O10_2 O 0.9295(3) 0.1782(2) 0.06677(18)
O11_2 O 0.8238(4) 0.1545(2) 0.20035(16)
O16_2 O 0.9755(6) 0.3949(4) 0.2064(4)
O17_2 O 0.7707(4) 0.2889(2) 0.1065(2)
O20_2 O 0.5831(5) 0.0248(2) 0.0660(2)
P1_2 P 0.84145(15) 0.19008(8) 0.16691(7)
P2_2 P 0.86664(15) 0.17059(8) 0.09100(7)
P3_2 P 0.77010(15) 0.23248(9) 0.11036(8)
N1_2 N 0.7795(4) 0.2173(3) 0.1529(2)
N2_2 N 0.8841(4) 0.1649(2) 0.1347(2)
N3_2 N 0.8146(5) 0.2085(3) 0.0800(2)
C1_2 C 0.8737(5) 0.2519(3) 0.2213(3)
C3_2 C 0.9164(5) 0.3103(3) 0.2636(2)
H7_2 H 0.9504 0.3283 0.2722
C4_2 C 0.6907(7) 0.0711(3) 0.2098(3)
H8_2 H 0.6533 0.0681 0.2237
C5_2 C 0.8563(6) 0.3151(3) 0.2802(2)
C7_2 C 0.8492(5) 0.3515(3) 0.3111(2)
C8_2 C 0.8149(6) 0.2572(3) 0.2372(3)
H9_2 H 0.7807 0.2403 0.2276
C9_2 C 0.8812(6) 0.3718(3) 0.1800(3)
C10_2 C 0.7101(5) 0.0360(3) 0.1844(2)
C11_2 C 0.9554(6) 0.2531(4) 0.0408(3)
H10_2 H 0.9277 0.2481 0.0205
C12_2 C 0.8047(5) 0.0796(3) 0.1689(3)
H11_2 H 0.8434 0.0819 0.1563
C13_2 C 0.9083(5) 0.3474(3) 0.1497(3)
H12_2 H 0.9518 0.3492 0.1456
C14_2 C 0.9996(5) 0.2301(4) 0.1013(3)
C16_2 C 0.8180(7) 0.3673(4) 0.1853(3)
H14_2 H 0.7984 0.3832 0.2054
C17_2 C 0.9608(5) 0.2215(3) 0.0692(3)
C18_2 C 0.6172(5) 0.1030(3) 0.0580(2)
C19_2 C 0.8065(6) 0.2878(3) 0.2674(3)
H15_2 H 0.7671 0.2900 0.2793
C20_2 C 0.7816(6) 0.3388(4) 0.1608(4)
H16_2 H 0.7382 0.3361 0.1651
C21_2 C 0.6718(5) 0.1837(3) 0.0839(3)
C22_2 C 0.8183(6) 0.1097(3) 0.0415(3)
C23_2 C 0.7289(7) 0.1112(4) 0.2141(3)
H17_2 H 0.7168 0.1352 0.2308
C25_2 C 0.9218(7) 0.3976(3) 0.2073(3)
C26_2 C 0.6383(5) 0.1065(3) 0.0967(2)
H18_2 H 0.6322 0.0813 0.1134
C27_2 C 0.7667(6) 0.0412(3) 0.1636(3)
H19_2 H 0.7785 0.0182 0.1460
C28_2 C 0.6226(6) 0.1410(3) 0.0342(3)
H20_2 H 0.6070 0.1394 0.0092
C29_2 C 0.7428(5) 0.0640(3) 0.0074(3)
H21_2 H 0.7130 0.0399 0.0071
C30_2 C 0.8699(7) 0.3197(3) 0.1248(3)
H22_2 H 0.8882 0.3046 0.1038
C32_2 C 0.8077(6) 0.3155(3) 0.1313(3)
C33_2 C 0.6663(5) 0.1449(4) 0.1092(3)
H24_2 H 0.6822 0.1466 0.1340
C34_2 C 0.7738(5) 0.0743(3) 0.0413(3)
H25_2 H 0.7648 0.0576 0.0637
C35_2 C 0.9238(5) 0.2777(3) 0.2339(2)
H26_2 H 0.9635 0.2736 0.2226
C36_2 C 0.8299(7) 0.1355(4) 0.0078(3)
H27_2 H 0.8579 0.1607 0.0081
C37_2 C 0.7843(6) 0.1151(3) 0.1934(3)
C38_2 C 0.6509(6) 0.1813(4) 0.0468(3)
H28_2 H 0.6559 0.2069 0.0304
C41_2 C 0.9918(6) 0.2932(4) 0.0426(3)
H30_2 H 0.9891 0.3153 0.0219
C42_2 C 0.5904(5) 0.0588(4) 0.0435(3)
H31_2 H 0.4766 0.0049 0.2360
H32_2 H 0.5234 0.0049 0.2640
O24_2 O 0.1520(4) 0.1194(2) 0.42367(16)
O25_2 O 0.1122(3) 0.22211(19) 0.30986(16)
O26_2 O 0.1086(4) 0.38197(19) 0.18316(16)
O27_2 O 0.2007(4) 0.3500(2) 0.16728(19)
O28_2 O 0.1046(5) 0.4181(2) 0.26548(18)
O30_2 O 0.3013(4) 0.2279(2) 0.4030(2)
O31_2 O 0.0705(3) 0.1782(2) 0.43323(18)
O32_2 O 0.1762(4) 0.1545(2) 0.29965(16)
O37_2 O 0.0245(6) 0.3949(4) 0.2936(4)
O38_2 O 0.2293(4) 0.2889(2) 0.3935(2)
O41_2 O 0.4169(5) 0.0248(2) 0.4340(2)
P4_2 P 0.15855(15) 0.19008(8) 0.33309(7)
P5_2 P 0.13336(15) 0.17059(8) 0.40900(7)
P6_2 P 0.22990(15) 0.23248(9) 0.38964(8)
N4_2 N 0.2205(4) 0.2173(3) 0.3471(2)
N5_2 N 0.1159(4) 0.1649(2) 0.3653(2)
N6_2 N 0.1854(5) 0.2085(3) 0.4200(2)
C43_2 C 0.1263(5) 0.2519(3) 0.2787(3)
C45_2 C 0.0836(5) 0.3103(3) 0.2364(2)
H39_2 H 0.0496 0.3283 0.2278
C46_2 C 0.3093(7) 0.0711(3) 0.2902(3)
H40_2 H 0.3467 0.0681 0.2763
C47_2 C 0.1437(6) 0.3151(3) 0.2198(2)
C49_2 C 0.1508(5) 0.3515(3) 0.1889(2)
C50_2 C 0.1851(6) 0.2572(3) 0.2628(3)
H41_2 H 0.2193 0.2403 0.2724
C51_2 C 0.1188(6) 0.3718(3) 0.3200(3)
C52_2 C 0.2899(5) 0.0360(3) 0.3156(2)
C53_2 C 0.0446(6) 0.2531(4) 0.4592(3)
H42_2 H 0.0723 0.2481 0.4795
C54_2 C 0.1953(5) 0.0796(3) 0.3311(3)
H43_2 H 0.1566 0.0819 0.3437
C55_2 C 0.0917(5) 0.3474(3) 0.3503(3)
H44_2 H 0.0482 0.3492 0.3544
C56_2 C 0.0004(5) 0.2301(4) 0.3987(3)
C58_2 C 0.1820(7) 0.3673(4) 0.3147(3)
H46_2 H 0.2016 0.3832 0.2946
C59_2 C 0.0392(5) 0.2215(3) 0.4308(3)
C60_2 C 0.3828(5) 0.1030(3) 0.4420(2)
C61_2 C 0.1935(6) 0.2878(3) 0.2326(3)
H47_2 H 0.2329 0.2900 0.2207
C62_2 C 0.2184(6) 0.3388(4) 0.3392(4)
H48_2 H 0.2618 0.3361 0.3349
C63_2 C 0.3282(5) 0.1837(3) 0.4161(3)
C64_2 C 0.1817(6) 0.1097(3) 0.4585(3)
C65_2 C 0.2711(7) 0.1112(4) 0.2859(3)
H49_2 H 0.2832 0.1352 0.2692
C66_2 C 0.2448(6) 0.0888(4) 0.5262(3)
C67_2 C 0.0782(7) 0.3976(3) 0.2927(3)
C68_2 C 0.3617(5) 0.1065(3) 0.4033(2)
H50_2 H 0.3678 0.0813 0.3866
C69_2 C 0.2333(6) 0.0412(3) 0.3364(3)
H51_2 H 0.2215 0.0182 0.3540
C70_2 C 0.3774(6) 0.1410(3) 0.4658(3)
H52_2 H 0.3930 0.1394 0.4908
C71_2 C 0.2572(5) 0.0640(3) 0.4926(3)
H53_2 H 0.2870 0.0399 0.4929
C72_2 C 0.1301(7) 0.3197(3) 0.3752(3)
H54_2 H 0.1118 0.3046 0.3962
C74_2 C 0.1923(6) 0.3155(3) 0.3687(3)
C75_2 C 0.3337(5) 0.1449(4) 0.3908(3)
H56_2 H 0.3178 0.1466 0.3660
C76_2 C 0.2262(5) 0.0743(3) 0.4587(3)
H57_2 H 0.2352 0.0576 0.4363
C77_2 C 0.0762(5) 0.2777(3) 0.2661(2)
H58_2 H 0.0365 0.2736 0.2774
C78_2 C 0.1701(7) 0.1355(4) 0.4922(3)
H59_2 H 0.1421 0.1607 0.4919
C79_2 C 0.2157(6) 0.1151(3) 0.3066(3)
C80_2 C 0.3491(6) 0.1813(4) 0.4532(3)
H60_2 H 0.3441 0.2069 0.4696
C81_2 C 0.1999(7) 0.1233(5) 0.5247(3)
H61_2 H 0.1896 0.1391 0.5473
C82_2 C 0.2830(8) 0.0800(5) 0.5605(4)
C83_2 C 0.0082(6) 0.2932(4) 0.4574(3)
H62_2 H 0.0109 0.3153 0.4781
C84_2 C 0.4096(5) 0.0588(4) 0.4565(3)
Mn9 Mn 0.94109(8) 0.43653(4) 0.28613(3)
Mn15 Mn 0.84794(8) 0.40694(5) 0.37123(4)
H63_2 H 0.809831 0.217706 0.0519733
C24_2 C 0.7552(6) 0.0888(4) 0.9738(3)
C39_2 C 0.8001(7) 0.1233(5) 0.9753(3)
H29_2 H 0.8104 0.1391 0.9527
C40_2 C 0.7170(8) 0.0800(5) 0.9395(4)
O6_2 O 0.5000 0.9876(3) 0.2500
O12_2 O 0.6906(4) 0.9646(2) 0.1554(2)
O14_2 O 0.6241(4) 0.9888(2) 0.2012(3)
O15_2 O 0.5118(7) 0.9699(4) 0.1653(2)
H1_2 H 0.5274 0.9972 0.1619
H2_2 H 0.4722 0.9725 0.1693
O21_2 O 0.5619(3) 0.9479(2) 0.11557(16)
H3_2 H 0.5620 0.9748 0.1262
H4_2 H 0.5288 0.9329 0.1222
O22_2 O 0.4707(6) 0.9664(4) 0.0429(3)
H5_2 H 0.4468 0.9976 0.0343
H6_2 H 0.4323 0.9431 0.0479
C15_2 C 0.6687(7) 0.9946(3) 0.1809(3)
Mn1_2 Mn 0.55891(8) 0.93653(4) 0.21387(3)
O33_2 O 0.3094(4) 0.9646(2) 0.3446(2)
O35_2 O 0.3759(4) 0.9888(2) 0.2988(3)
O36_2 O 0.4882(7) 0.9699(4) 0.3347(2)
H33_2 H 0.4726 0.9972 0.3381
H34_2 H 0.5278 0.9725 0.3307
O42_2 O 0.4381(3) 0.9479(2) 0.38443(16)
H35_2 H 0.4380 0.9748 0.3738
H36_2 H 0.4712 0.9329 0.3778
O43_2 O 0.5293(6) 0.9664(4) 0.4571(3)
H37_2 H 0.5532 0.9976 0.4657
H38_2 H 0.5677 0.9431 0.4521
C57_2 C 0.3313(7) 0.9946(3) 0.3191(3)
Mn4_2 Mn 0.44109(8) 0.93653(4) 0.28613(3)
O44_2 O 0.5541(4) 0.8800(2) 0.05187(18)
O45_2 O 0.4459(4) 0.8800(2) 0.44813(18)
O46_2 O 0.3914(4) 0.88197(19) 0.31684(16)
O47_2 O 0.6086(4) 0.88197(19) 0.18316(16)
O48_2 O 0.2993(4) 0.8500(2) 0.33272(19)
O49_2 O 0.7007(4) 0.8500(2) 0.16728(19)
O50_2 O 0.3954(5) 0.9181(2) 0.23452(18)
O51_2 O 0.6046(5) 0.9181(2) 0.26548(18)
O52_2 O 0.6062(3) 0.8507(2) 0.1021(2)
O53_2 O 0.3938(3) 0.8507(2) 0.3979(2)
O56_2 O 0.4755(6) 0.8949(4) 0.2064(4)
O57_2 O 0.5245(6) 0.8949(4) 0.2936(4)
O23_2 O 0.9459(4) 0.3800(2) 0.44813(18)
O29_2 O 0.8938(3) 0.3507(2) 0.3979(2)
C44_2 C 0.9346(6) 0.3479(3) 0.4238(3)
C48_2 C 0.9718(5) 0.3040(3) 0.4260(2)
H45_2 H 0.9973 0.2082 0.3789
C73_2 C 0.9668(6) 0.2721(4) 0.3973(3)
H55_2 H 0.9406 0.2783 0.3764
Mn20_2 Mn 0.92923(9) 0.45370(5) 0.45069(4)
H63_3 H 0.809831 0.782294 0.948027
H63_4 H 0.190169 0.217706 0.448027
O39_2 O 0.2306(5) 0.3976(3) 0.0915(3)
O40_2 O 0.1708(5) 0.4451(3) 0.0604(3)
C66_3 C 0.2552(6) 0.4112(4) 0.0262(3)
C81_3 C 0.3001(7) 0.3767(5) 0.0247(3)
H61_3 H 0.3104 0.3609 0.0473
C82_3 C 0.2170(8) 0.4200(5) 0.0605(4)
O54_2 O 0.0745(6) 0.5540(3) 0.0102(2)
O6_3 O 0.0000 0.5124(3) 0.7500
H2_3 H 0.0278 0.5275 0.6693
O22_3 O 0.0293(6) 0.5336(4) 0.5429(3)
H5_3 H 0.0532 0.5024 0.5343
H6_3 H 0.0677 0.5569 0.5479
H31_3 H 0.0234 0.4951 0.7360
O24_3 O 0.3480(4) 0.3806(2) 0.92367(16)
O25_3 O 0.3878(3) 0.27789(19) 0.80986(16)
O30_3 O 0.1987(4) 0.2721(2) 0.9030(2)
O31_3 O 0.4295(3) 0.3218(2) 0.93323(18)
O32_3 O 0.3238(4) 0.3455(2) 0.79965(16)
O33_3 O 0.1906(4) 0.5354(2) 0.8446(2)
O34_2 O 0.0745(6) 0.4460(3) 0.9898(2)
O35_3 O 0.1241(4) 0.5112(2) 0.7988(3)
O36_3 O 0.0118(7) 0.5301(4) 0.8347(2)
H33_3 H 0.0274 0.5028 0.8381
O38_3 O 0.2707(4) 0.2111(2) 0.8935(2)
O41_3 O 0.0831(5) 0.4752(2) 0.9340(2)
O42_3 O 0.0619(3) 0.5521(2) 0.88443(16)
H35_3 H 0.0620 0.5252 0.8738
H36_3 H 0.0288 0.5671 0.8778
P4_3 P 0.34145(15) 0.30992(8) 0.83309(7)
P5_3 P 0.36664(15) 0.32941(8) 0.90900(7)
P6_3 P 0.27010(15) 0.26752(9) 0.88964(8)
N4_3 N 0.2795(4) 0.2827(3) 0.8471(2)
N5_3 N 0.3841(4) 0.3351(2) 0.8653(2)
N6_3 N 0.3146(5) 0.2915(3) 0.9200(2)
C43_3 C 0.3737(5) 0.2481(3) 0.7787(3)
C44_3 C 0.5654(6) 0.1521(3) 0.9238(3)
C45_3 C 0.4164(5) 0.1897(3) 0.7364(2)
H39_3 H 0.4504 0.1717 0.7278
C46_3 C 0.1907(7) 0.4289(3) 0.7902(3)
H40_3 H 0.1533 0.4319 0.7763
C47_3 C 0.3563(6) 0.1849(3) 0.7198(2)
C48_3 C 0.5282(5) 0.1960(3) 0.9260(2)
C49_3 C 0.3492(5) 0.1485(3) 0.6889(2)
C50_3 C 0.3149(6) 0.2428(3) 0.7628(3)
H41_3 H 0.2807 0.2597 0.7724
C51_3 C 0.3812(6) 0.1282(3) 0.8200(3)
C52_3 C 0.2101(5) 0.4640(3) 0.8156(2)
C53_3 C 0.4554(6) 0.2469(4) 0.9592(3)
H42_3 H 0.4277 0.2519 0.9795
C54_3 C 0.3047(5) 0.4204(3) 0.8311(3)
H43_3 H 0.3434 0.4181 0.8437
C55_3 C 0.4083(5) 0.1526(3) 0.8503(3)
H44_3 H 0.4518 0.1508 0.8544
C56_3 C 0.4996(5) 0.2699(4) 0.8987(3)
H45_3 H 0.5027 0.2918 0.8789
C57_3 C 0.1687(7) 0.5054(3) 0.8191(3)
C58_3 C 0.3180(7) 0.1327(4) 0.8147(3)
H46_3 H 0.2984 0.1168 0.7946
C59_3 C 0.4608(5) 0.2785(3) 0.9308(3)
C60_3 C 0.1172(5) 0.3970(3) 0.9420(2)
C61_3 C 0.3065(6) 0.2122(3) 0.7326(3)
H47_3 H 0.2671 0.2100 0.7207
C62_3 C 0.2816(6) 0.1612(4) 0.8392(4)
H48_3 H 0.2382 0.1639 0.8349
C63_3 C 0.1718(5) 0.3163(3) 0.9161(3)
C64_3 C 0.3183(6) 0.3903(3) 0.9585(3)
C65_3 C 0.2289(7) 0.3888(4) 0.7859(3)
H49_3 H 0.2168 0.3648 0.7692
C67_3 C 0.4218(7) 0.1024(3) 0.7927(3)
C68_3 C 0.1383(5) 0.3935(3) 0.9033(2)
H50_3 H 0.1322 0.4187 0.8866
C69_3 C 0.2667(6) 0.4588(3) 0.8364(3)
H51_3 H 0.2785 0.4818 0.8540
C70_3 C 0.1226(6) 0.3590(3) 0.9658(3)
H52_3 H 0.1070 0.3606 0.9908
C71_3 C 0.2428(5) 0.4360(3) 0.9926(3)
H53_3 H 0.2130 0.4601 0.9929
C72_3 C 0.3699(7) 0.1803(3) 0.8752(3)
H54_3 H 0.3882 0.1954 0.8962
C73_3 C 0.5332(6) 0.2279(4) 0.8973(3)
H55_3 H 0.5594 0.2217 0.8764
C74_3 C 0.3077(6) 0.1845(3) 0.8687(3)
C75_3 C 0.1663(5) 0.3551(4) 0.8908(3)
H56_3 H 0.1822 0.3534 0.8660
C76_3 C 0.2738(5) 0.4257(3) 0.9587(3)
H57_3 H 0.2648 0.4424 0.9363
C77_3 C 0.4238(5) 0.2223(3) 0.7661(2)
H58_3 H 0.4635 0.2264 0.7774
C78_3 C 0.3299(7) 0.3645(4) 0.9922(3)
H59_3 H 0.3579 0.3393 0.9919
C79_3 C 0.2843(6) 0.3849(3) 0.8066(3)
C80_3 C 0.1509(6) 0.3187(4) 0.9532(3)
H60_3 H 0.1559 0.2931 0.9696
C83_3 C 0.4918(6) 0.2068(4) 0.9574(3)
H62_3 H 0.4891 0.1847 0.9781
C84_3 C 0.0904(5) 0.4412(4) 0.9565(3)
O58_2 O 0.2306(5) 0.6024(3) 0.9085(3)
O60_2 O 0.1708(5) 0.5549(3) 0.9396(3)
O2_3 O 0.6520(4) 0.3806(2) 0.57633(16)
O3_3 O 0.6122(3) 0.27789(19) 0.69014(16)
O6_4 O 1.0000 0.5124(3) 0.7500
O9_3 O 0.8013(4) 0.2721(2) 0.5970(2)
O10_3 O 0.5705(3) 0.3218(2) 0.56677(18)
O11_3 O 0.6762(4) 0.3455(2) 0.70035(16)
O12_3 O 0.8094(4) 0.5354(2) 0.6554(2)
O13_2 O 0.9255(6) 0.4460(3) 0.5102(2)
O14_3 O 0.8759(4) 0.5112(2) 0.7012(3)
O15_3 O 0.9882(7) 0.5301(4) 0.6653(2)
H1_3 H 0.9726 0.5028 0.6619
O17_3 O 0.7293(4) 0.2111(2) 0.6065(2)
O18_2 O 0.7694(5) 0.3976(3) 0.4085(3)
O19_2 O 0.8292(5) 0.4451(3) 0.4396(3)
O20_3 O 0.9169(5) 0.4752(2) 0.5660(2)
O21_3 O 0.9381(3) 0.5521(2) 0.61557(16)
H3_3 H 0.9380 0.5252 0.6262
H4_3 H 0.9712 0.5671 0.6222
P1_3 P 0.65855(15) 0.30992(8) 0.66691(7)
P2_3 P 0.63336(15) 0.32941(8) 0.59100(7)
P3_3 P 0.72990(15) 0.26752(9) 0.61036(8)
N1_3 N 0.7205(4) 0.2827(3) 0.6529(2)
N2_3 N 0.6159(4) 0.3351(2) 0.6347(2)
N3_3 N 0.6854(5) 0.2915(3) 0.5800(2)
C1_3 C 0.6263(5) 0.2481(3) 0.7213(3)
C2_3 C 0.4346(6) 0.1521(3) 0.5762(3)
C3_3 C 0.5836(5) 0.1897(3) 0.7636(2)
H7_3 H 0.5496 0.1717 0.7722
C4_3 C 0.8093(7) 0.4289(3) 0.7098(3)
H8_3 H 0.8467 0.4319 0.7237
C5_3 C 0.6437(6) 0.1849(3) 0.7802(2)
C6_3 C 0.4718(5) 0.1960(3) 0.5740(2)
C7_3 C 0.6508(5) 0.1485(3) 0.8111(2)
C8_3 C 0.6851(6) 0.2428(3) 0.7372(3)
H9_3 H 0.7193 0.2597 0.7276
C9_3 C 0.6188(6) 0.1282(3) 0.6800(3)
C10_3 C 0.7899(5) 0.4640(3) 0.6844(2)
C11_3 C 0.5446(6) 0.2469(4) 0.5408(3)
H10_3 H 0.5723 0.2519 0.5205
C12_3 C 0.6953(5) 0.4204(3) 0.6689(3)
H11_3 H 0.6566 0.4181 0.6563
C13_3 C 0.5917(5) 0.1526(3) 0.6497(3)
H12_3 H 0.5482 0.1508 0.6456
C14_3 C 0.5004(5) 0.2699(4) 0.6013(3)
H13_3 H 0.4973 0.2918 0.6211
C15_3 C 0.8313(7) 0.5054(3) 0.6809(3)
C16_3 C 0.6820(7) 0.1327(4) 0.6853(3)
H14_3 H 0.7016 0.1168 0.7054
C17_3 C 0.5392(5) 0.2785(3) 0.5692(3)
C18_3 C 0.8828(5) 0.3970(3) 0.5580(2)
C19_3 C 0.6935(6) 0.2122(3) 0.7674(3)
H15_3 H 0.7329 0.2100 0.7793
C20_3 C 0.7184(6) 0.1612(4) 0.6608(4)
H16_3 H 0.7618 0.1639 0.6651
C21_3 C 0.8282(5) 0.3163(3) 0.5839(3)
C22_3 C 0.6817(6) 0.3903(3) 0.5415(3)
C23_3 C 0.7711(7) 0.3888(4) 0.7141(3)
H17_3 H 0.7832 0.3648 0.7308
C24_3 C 0.7448(6) 0.4112(4) 0.4738(3)
C25_3 C 0.5782(7) 0.1024(3) 0.7073(3)
C26_3 C 0.8617(5) 0.3935(3) 0.5967(2)
H18_3 H 0.8678 0.4187 0.6134
C27_3 C 0.7333(6) 0.4588(3) 0.6636(3)
H19_3 H 0.7215 0.4818 0.6460
C28_3 C 0.8774(6) 0.3590(3) 0.5342(3)
H20_3 H 0.8930 0.3606 0.5092
C29_3 C 0.7572(5) 0.4360(3) 0.5074(3)
H21_3 H 0.7870 0.4601 0.5071
C30_3 C 0.6301(7) 0.1803(3) 0.6248(3)
H22_3 H 0.6118 0.1954 0.6038
C31_3 C 0.4668(6) 0.2279(4) 0.6027(3)
H23_3 H 0.4406 0.2217 0.6236
C32_3 C 0.6923(6) 0.1845(3) 0.6313(3)
C33_3 C 0.8337(5) 0.3551(4) 0.6092(3)
H24_3 H 0.8178 0.3534 0.6340
C34_3 C 0.7262(5) 0.4257(3) 0.5413(3)
H25_3 H 0.7352 0.4424 0.5637
C35_3 C 0.5762(5) 0.2223(3) 0.7339(2)
H26_3 H 0.5365 0.2264 0.7226
C36_3 C 0.6701(7) 0.3645(4) 0.5078(3)
H27_3 H 0.6421 0.3393 0.5081
C37_3 C 0.7157(6) 0.3849(3) 0.6934(3)
C38_3 C 0.8491(6) 0.3187(4) 0.5468(3)
H28_3 H 0.8441 0.2931 0.5304
C39_3 C 0.6999(7) 0.3767(5) 0.4753(3)
H29_3 H 0.6896 0.3609 0.4527
C40_3 C 0.7830(8) 0.4200(5) 0.4395(4)
C41_3 C 0.5082(6) 0.2068(4) 0.5426(3)
H30_3 H 0.5109 0.1847 0.5219
C42_3 C 0.9096(5) 0.4412(4) 0.5435(3)
H32_3 H 0.9766 0.4951 0.7640
H34_3 H 0.9722 0.5275 0.8307
O43_3 O 0.9707(6) 0.5336(4) 0.9571(3)
H37_3 H 0.9468 0.5024 0.9657
H38_3 H 0.9323 0.5569 0.9521
O55_2 O 0.9255(6) 0.5540(3) 0.4898(2)
O59_2 O 0.7694(5) 0.6024(3) 0.5915(3)
O61_2 O 0.8292(5) 0.5549(3) 0.5604(3)
H63_5 H 0.690169 0.282294 0.551973
O2_4 O 0.3480(4) 0.6194(2) 0.07633(16)
O3_4 O 0.3878(3) 0.72211(19) 0.19014(16)
O6_5 O -0.0000 0.4876(3) 0.2500
O9_4 O 0.1987(4) 0.7279(2) 0.0970(2)
O10_4 O 0.4295(3) 0.6782(2) 0.06677(18)
O11_4 O 0.3238(4) 0.6545(2) 0.20035(16)
O12_4 O 0.1906(4) 0.4646(2) 0.1554(2)
O14_4 O 0.1241(4) 0.4888(2) 0.2012(3)
O15_4 O 0.0118(7) 0.4699(4) 0.1653(2)
H1_4 H 0.0274 0.4972 0.1619
O17_4 O 0.2707(4) 0.7889(2) 0.1065(2)
O20_4 O 0.0831(5) 0.5248(2) 0.0660(2)
O21_4 O 0.0619(3) 0.4479(2) 0.11557(16)
H3_4 H 0.0620 0.4748 0.1262
H4_4 H 0.0288 0.4329 0.1222
P1_4 P 0.34145(15) 0.69008(8) 0.16691(7)
P2_4 P 0.36664(15) 0.67059(8) 0.09100(7)
P3_4 P 0.27010(15) 0.73248(9) 0.11036(8)
N1_4 N 0.2795(4) 0.7173(3) 0.1529(2)
N2_4 N 0.3841(4) 0.6649(2) 0.1347(2)
N3_4 N 0.3146(5) 0.7085(3) 0.0800(2)
C1_4 C 0.3737(5) 0.7519(3) 0.2213(3)
C2_4 C 0.5654(6) 0.8479(3) 0.0762(3)
C3_4 C 0.4164(5) 0.8103(3) 0.2636(2)
H7_4 H 0.4504 0.8283 0.2722
C4_4 C 0.1907(7) 0.5711(3) 0.2098(3)
H8_4 H 0.1533 0.5681 0.2237
C5_4 C 0.3563(6) 0.8151(3) 0.2802(2)
C6_4 C 0.5282(5) 0.8040(3) 0.0740(2)
C7_4 C 0.3492(5) 0.8515(3) 0.3111(2)
C8_4 C 0.3149(6) 0.7572(3) 0.2372(3)
H9_4 H 0.2807 0.7403 0.2276
C9_4 C 0.3812(6) 0.8718(3) 0.1800(3)
C10_4 C 0.2101(5) 0.5360(3) 0.1844(2)
C11_4 C 0.4554(6) 0.7531(4) 0.0408(3)
H10_4 H 0.4277 0.7481 0.0205
C12_4 C 0.3047(5) 0.5796(3) 0.1689(3)
H11_4 H 0.3434 0.5819 0.1563
C13_4 C 0.4083(5) 0.8474(3) 0.1497(3)
H12_4 H 0.4518 0.8492 0.1456
C14_4 C 0.4996(5) 0.7301(4) 0.1013(3)
H13_4 H 0.5027 0.7082 0.1211
C15_4 C 0.1687(7) 0.4946(3) 0.1809(3)
C16_4 C 0.3180(7) 0.8673(4) 0.1853(3)
H14_4 H 0.2984 0.8832 0.2054
C17_4 C 0.4608(5) 0.7215(3) 0.0692(3)
C18_4 C 0.1172(5) 0.6030(3) 0.0580(2)
C19_4 C 0.3065(6) 0.7878(3) 0.2674(3)
H15_4 H 0.2671 0.7900 0.2793
C20_4 C 0.2816(6) 0.8388(4) 0.1608(4)
H16_4 H 0.2382 0.8361 0.1651
C21_4 C 0.1718(5) 0.6837(3) 0.0839(3)
C22_4 C 0.3183(6) 0.6097(3) 0.0415(3)
C23_4 C 0.2289(7) 0.6112(4) 0.2141(3)
H17_4 H 0.2168 0.6352 0.2308
C25_4 C 0.4218(7) 0.8976(3) 0.2073(3)
C26_4 C 0.1383(5) 0.6065(3) 0.0967(2)
H18_4 H 0.1322 0.5813 0.1134
C27_4 C 0.2667(6) 0.5412(3) 0.1636(3)
H19_4 H 0.2785 0.5182 0.1460
C28_4 C 0.1226(6) 0.6410(3) 0.0342(3)
H20_4 H 0.1070 0.6394 0.0092
C29_4 C 0.2428(5) 0.5640(3) 0.0074(3)
H21_4 H 0.2130 0.5399 0.0071
C30_4 C 0.3699(7) 0.8197(3) 0.1248(3)
H22_4 H 0.3882 0.8046 0.1038
C31_4 C 0.5332(6) 0.7721(4) 0.1027(3)
H23_4 H 0.5594 0.7783 0.1236
C32_4 C 0.3077(6) 0.8155(3) 0.1313(3)
C33_4 C 0.1663(5) 0.6449(4) 0.1092(3)
H24_4 H 0.1822 0.6466 0.1340
C34_4 C 0.2738(5) 0.5743(3) 0.0413(3)
H25_4 H 0.2648 0.5576 0.0637
C35_4 C 0.4238(5) 0.7777(3) 0.2339(2)
H26_4 H 0.4635 0.7736 0.2226
C36_4 C 0.3299(7) 0.6355(4) 0.0078(3)
H27_4 H 0.3579 0.6607 0.0081
C37_4 C 0.2843(6) 0.6151(3) 0.1934(3)
C38_4 C 0.1509(6) 0.6813(4) 0.0468(3)
H28_4 H 0.1559 0.7069 0.0304
C41_4 C 0.4918(6) 0.7932(4) 0.0426(3)
H30_4 H 0.4891 0.8153 0.0219
C42_4 C 0.0904(5) 0.5588(4) 0.0435(3)
H32_4 H 0.0234 0.5049 0.2640
H34_4 H 0.0278 0.4725 0.3307
O43_4 O 0.0293(6) 0.4664(4) 0.4571(3)
H37_4 H 0.0532 0.4976 0.4657
H38_4 H 0.0677 0.4431 0.4521
H63_6 H 0.309831 0.717706 0.0519733
C24_4 C 0.2552(6) 0.5888(4) 0.9738(3)
C39_4 C 0.3001(7) 0.6233(5) 0.9753(3)
H29_4 H 0.3104 0.6391 0.9527
C40_4 C 0.2170(8) 0.5800(5) 0.9395(4)
O6_6 O 1.0000 0.4876(3) 0.2500
H2_4 H 0.9722 0.4725 0.1693
O22_4 O 0.9707(6) 0.4664(4) 0.0429(3)
H5_4 H 0.9468 0.4976 0.0343
H6_4 H 0.9323 0.4431 0.0479
H31_4 H 0.9766 0.5049 0.2360
O24_4 O 0.6520(4) 0.6194(2) 0.42367(16)
O25_4 O 0.6122(3) 0.72211(19) 0.30986(16)
O30_4 O 0.8013(4) 0.7279(2) 0.4030(2)
O31_4 O 0.5705(3) 0.6782(2) 0.43323(18)
O32_4 O 0.6762(4) 0.6545(2) 0.29965(16)
O33_4 O 0.8094(4) 0.4646(2) 0.3446(2)
O35_4 O 0.8759(4) 0.4888(2) 0.2988(3)
O36_4 O 0.9882(7) 0.4699(4) 0.3347(2)
H33_4 H 0.9726 0.4972 0.3381
O38_4 O 0.7293(4) 0.7889(2) 0.3935(2)
O41_4 O 0.9169(5) 0.5248(2) 0.4340(2)
O42_4 O 0.9381(3) 0.4479(2) 0.38443(16)
H35_4 H 0.9380 0.4748 0.3738
H36_4 H 0.9712 0.4329 0.3778
P4_4 P 0.65855(15) 0.69008(8) 0.33309(7)
P5_4 P 0.63336(15) 0.67059(8) 0.40900(7)
P6_4 P 0.72990(15) 0.73248(9) 0.38964(8)
N4_4 N 0.7205(4) 0.7173(3) 0.3471(2)
N5_4 N 0.6159(4) 0.6649(2) 0.3653(2)
N6_4 N 0.6854(5) 0.7085(3) 0.4200(2)
C43_4 C 0.6263(5) 0.7519(3) 0.2787(3)
C44_4 C 0.4346(6) 0.8479(3) 0.4238(3)
C45_4 C 0.5836(5) 0.8103(3) 0.2364(2)
H39_4 H 0.5496 0.8283 0.2278
C46_4 C 0.8093(7) 0.5711(3) 0.2902(3)
H40_4 H 0.8467 0.5681 0.2763
C47_4 C 0.6437(6) 0.8151(3) 0.2198(2)
C48_4 C 0.4718(5) 0.8040(3) 0.4260(2)
C49_4 C 0.6508(5) 0.8515(3) 0.1889(2)
C50_4 C 0.6851(6) 0.7572(3) 0.2628(3)
H41_4 H 0.7193 0.7403 0.2724
C51_4 C 0.6188(6) 0.8718(3) 0.3200(3)
C52_4 C 0.7899(5) 0.5360(3) 0.3156(2)
C53_4 C 0.5446(6) 0.7531(4) 0.4592(3)
H42_4 H 0.5723 0.7481 0.4795
C54_4 C 0.6953(5) 0.5796(3) 0.3311(3)
H43_4 H 0.6566 0.5819 0.3437
C55_4 C 0.5917(5) 0.8474(3) 0.3503(3)
H44_4 H 0.5482 0.8492 0.3544
C56_4 C 0.5004(5) 0.7301(4) 0.3987(3)
H45_4 H 0.4973 0.7082 0.3789
C57_4 C 0.8313(7) 0.4946(3) 0.3191(3)
C58_4 C 0.6820(7) 0.8673(4) 0.3147(3)
H46_4 H 0.7016 0.8832 0.2946
C59_4 C 0.5392(5) 0.7215(3) 0.4308(3)
C60_4 C 0.8828(5) 0.6030(3) 0.4420(2)
C61_4 C 0.6935(6) 0.7878(3) 0.2326(3)
H47_4 H 0.7329 0.7900 0.2207
C62_4 C 0.7184(6) 0.8388(4) 0.3392(4)
H48_4 H 0.7618 0.8361 0.3349
C63_4 C 0.8282(5) 0.6837(3) 0.4161(3)
C64_4 C 0.6817(6) 0.6097(3) 0.4585(3)
C65_4 C 0.7711(7) 0.6112(4) 0.2859(3)
H49_4 H 0.7832 0.6352 0.2692
C66_4 C 0.7448(6) 0.5888(4) 0.5262(3)
C67_4 C 0.5782(7) 0.8976(3) 0.2927(3)
C68_4 C 0.8617(5) 0.6065(3) 0.4033(2)
H50_4 H 0.8678 0.5813 0.3866
C69_4 C 0.7333(6) 0.5412(3) 0.3364(3)
H51_4 H 0.7215 0.5182 0.3540
C70_4 C 0.8774(6) 0.6410(3) 0.4658(3)
H52_4 H 0.8930 0.6394 0.4908
C71_4 C 0.7572(5) 0.5640(3) 0.4926(3)
H53_4 H 0.7870 0.5399 0.4929
C72_4 C 0.6301(7) 0.8197(3) 0.3752(3)
H54_4 H 0.6118 0.8046 0.3962
C73_4 C 0.4668(6) 0.7721(4) 0.3973(3)
H55_4 H 0.4406 0.7783 0.3764
C74_4 C 0.6923(6) 0.8155(3) 0.3687(3)
C75_4 C 0.8337(5) 0.6449(4) 0.3908(3)
H56_4 H 0.8178 0.6466 0.3660
C76_4 C 0.7262(5) 0.5743(3) 0.4587(3)
H57_4 H 0.7352 0.5576 0.4363
C77_4 C 0.5762(5) 0.7777(3) 0.2661(2)
H58_4 H 0.5365 0.7736 0.2774
C78_4 C 0.6701(7) 0.6355(4) 0.4922(3)
H59_4 H 0.6421 0.6607 0.4919
C79_4 C 0.7157(6) 0.6151(3) 0.3066(3)
C80_4 C 0.8491(6) 0.6813(4) 0.4532(3)
H60_4 H 0.8441 0.7069 0.4696
C81_4 C 0.6999(7) 0.6233(5) 0.5247(3)
H61_4 H 0.6896 0.6391 0.5473
C82_4 C 0.7830(8) 0.5800(5) 0.5605(4)
C83_4 C 0.5082(6) 0.7932(4) 0.4574(3)
H62_4 H 0.5109 0.8153 0.4781
C84_4 C 0.9096(5) 0.5588(4) 0.4565(3)
H63_7 H 0.309831 0.282294 0.948027
H63_8 H 0.690169 0.717706 0.448027
loop_
_geom_bond_atom_site_label_1
_geom_bond_atom_site_label_2
_geom_bond_site_symmetry_1
_geom_bond_site_symmetry_2
O23 C44 1_555 1_555
O29 C44 1_555 1_555
C44 C48 1_555 1_555
C48 C73 1_555 1_555
H55 C73 1_555 1_555
Mn16 O29 1_555 1_555
Mn20 O23 1_555 1_555
O6 Mn1 1_555 1_555
O12 C15 1_555 1_555
O14 C15 1_555 1_555
O15 H1 1_555 1_555
H2 O15 1_555 1_555
O21 H3 1_555 1_555
H4 O21 1_555 1_555
O22 H5 1_555 1_555
H6 O22 1_555 1_555
Mn1 O14 1_555 1_555
Mn2 O12 1_555 1_555
O33 C57 1_555 1_555
O35 C57 1_555 1_555
O36 H33 1_555 1_555
H34 O36 1_555 1_555
O42 H35 1_555 1_555
H36 O42 1_555 1_555
O43 H37 1_555 1_555
H38 O43 1_555 1_555
Mn4 O6 1_555 1_555
Mn5 O33 1_555 1_555
O44 Mn3 1_555 1_555
O45 Mn6 1_555 1_555
O46 Mn4 1_555 1_555
O47 Mn1 1_555 1_555
O48 Mn5 1_555 1_555
O49 Mn2 1_555 1_555
O50 Mn4 1_555 1_555
O51 Mn1 1_555 1_555
O52 Mn2 1_555 1_555
O53 Mn5 1_555 1_555
O55 Mn3 1_555 1_555
O56 Mn1 1_555 1_555
O57 Mn4 1_555 1_555
O58 Mn5 1_555 1_555
O59 Mn2 1_555 1_555
O60 Mn6 1_555 1_555
O61 Mn3 1_555 1_555
O15 Mn1 1_555 1_555
O21 Mn2 1_555 1_555
O21 Mn3 1_555 1_555
O22 Mn3 1_555 1_555
Mn2 O47 1_555 1_555
O35 Mn4 1_555 1_555
O36 Mn4 1_555 1_555
O42 Mn5 1_555 1_555
O42 Mn6 1_555 1_555
O43 Mn6 1_555 1_555
Mn5 O46 1_555 1_555
O39 C82 1_555 1_555
O40 C82 1_555 1_555
C81 C66 1_555 1_555
H61 C81 1_555 1_555
C82 C66 1_555 1_555
Mn11 O39 1_555 1_555
O40 Mn17 1_555 1_555
O2 P2 1_555 1_555
O3 P1 1_555 1_555
O4 C7 1_555 1_555
O5 C7 1_555 1_555
O7 C25 1_555 1_555
O9 P3 1_555 1_555
O10 P2 1_555 1_555
O11 P1 1_555 1_555
O13 C42 1_555 1_555
O16 C25 1_555 1_555
O17 P3 1_555 1_555
O18 C40 1_555 1_555
O19 C40 1_555 1_555
O20 C42 1_555 1_555
P1 N1 1_555 1_555
P2 N2 1_555 1_555
P3 N1 1_555 1_555
N2 P1 1_555 1_555
N3 P2 1_555 1_555
C1 O3 1_555 1_555
C3 H7 1_555 1_555
C4 H8 1_555 1_555
C5 C3 1_555 1_555
C7 C5 1_555 1_555
C8 C1 1_555 1_555
H9 C8 1_555 1_555
C9 C13 1_555 1_555
C10 C4 1_555 1_555
C11 H10 1_555 1_555
C12 H11 1_555 1_555
C13 H12 1_555 1_555
C16 C9 1_555 1_555
H14 C16 1_555 1_555
C17 O10 1_555 1_555
C18 C26 1_555 1_555
C19 C5 1_555 1_555
H15 C19 1_555 1_555
C20 C16 1_555 1_555
H16 C20 1_555 1_555
C21 O9 1_555 1_555
C22 O2 1_555 1_555
C23 C4 1_555 1_555
H17 C23 1_555 1_555
C24 C29 1_555 1_555
C25 C9 1_555 1_555
C26 H18 1_555 1_555
C27 C10 1_555 1_555
H19 C27 1_555 1_555
C28 C18 1_555 1_555
H20 C28 1_555 1_555
C29 H21 1_555 1_555
C30 C13 1_555 1_555
H22 C30 1_555 1_555
C32 O17 1_555 1_555
C33 C21 1_555 1_555
H24 C33 1_555 1_555
C34 C22 1_555 1_555
H25 C34 1_555 1_555
C35 C1 1_555 1_555
H26 C35 1_555 1_555
C36 C22 1_555 1_555
H27 C36 1_555 1_555
C37 O11 1_555 1_555
C38 C21 1_555 1_555
H28 C38 1_555 1_555
C39 C24 1_555 1_555
H29 C39 1_555 1_555
C40 C24 1_555 1_555
H30 C41 1_555 1_555
C42 C18 1_555 1_555
O24 P5 1_555 1_555
O25 P4 1_555 1_555
O26 C49 1_555 1_555
O27 C49 1_555 1_555
O28 C67 1_555 1_555
O30 P6 1_555 1_555
O31 P5 1_555 1_555
O32 P4 1_555 1_555
O34 C84 1_555 1_555
O37 C67 1_555 1_555
O38 P6 1_555 1_555
O41 C84 1_555 1_555
P4 N4 1_555 1_555
P5 N5 1_555 1_555
P6 N4 1_555 1_555
N5 P4 1_555 1_555
N6 P5 1_555 1_555
C43 O25 1_555 1_555
C45 H39 1_555 1_555
C46 H40 1_555 1_555
C47 C45 1_555 1_555
C49 C47 1_555 1_555
C50 C43 1_555 1_555
H41 C50 1_555 1_555
C51 C55 1_555 1_555
C52 C46 1_555 1_555
C53 H42 1_555 1_555
C54 H43 1_555 1_555
C55 H44 1_555 1_555
C58 C51 1_555 1_555
H46 C58 1_555 1_555
C59 O31 1_555 1_555
C60 C68 1_555 1_555
C61 C47 1_555 1_555
H47 C61 1_555 1_555
C62 C58 1_555 1_555
H48 C62 1_555 1_555
C63 O30 1_555 1_555
C64 O24 1_555 1_555
C65 C46 1_555 1_555
H49 C65 1_555 1_555
C67 C51 1_555 1_555
C68 H50 1_555 1_555
C69 C52 1_555 1_555
H51 C69 1_555 1_555
C70 C60 1_555 1_555
H52 C70 1_555 1_555
C71 H53 1_555 1_555
C72 C55 1_555 1_555
H54 C72 1_555 1_555
C74 O38 1_555 1_555
C75 C63 1_555 1_555
H56 C75 1_555 1_555
C76 C64 1_555 1_555
H57 C76 1_555 1_555
C77 C43 1_555 1_555
H58 C77 1_555 1_555
C78 C64 1_555 1_555
H59 C78 1_555 1_555
C79 O32 1_555 1_555
C80 C63 1_555 1_555
H60 C80 1_555 1_555
H62 C83 1_555 1_555
C84 C60 1_555 1_555
Mn8 O26 1_555 1_555
Mn10 O4 1_555 1_555
Mn12 O18 1_555 1_555
Mn14 O26 1_555 1_555
Mn16 O4 1_555 1_555
Mn18 O13 1_555 1_555
O5 Mn16 1_555 1_555
O7 Mn10 1_555 1_555
O19 Mn18 1_555 1_555
P3 N3 1_555 1_555
C3 C35 1_555 1_555
C8 C19 1_555 1_555
C11 C17 1_555 1_555
C11 C41 1_555 1_555
C12 C27 1_555 1_555
C12 C37 1_555 1_555
C14 C17 1_555 1_555
C20 C32 1_555 1_555
C23 C37 1_555 1_555
C26 C33 1_555 1_555
C28 C38 1_555 1_555
C29 C34 1_555 1_555
C30 C32 1_555 1_555
C36 C39 1_555 1_555
O27 Mn14 1_555 1_555
O28 Mn8 1_555 1_555
P6 N6 1_555 1_555
C45 C77 1_555 1_555
C50 C61 1_555 1_555
C53 C59 1_555 1_555
C53 C83 1_555 1_555
C54 C69 1_555 1_555
C54 C79 1_555 1_555
C56 C59 1_555 1_555
C62 C74 1_555 1_555
C65 C79 1_555 1_555
C68 C75 1_555 1_555
C70 C80 1_555 1_555
C71 C76 1_555 1_555
C72 C74 1_555 1_555
N3 H63 1_555 1_555
O1 C2 1_555 1_555
O8 C2 1_555 1_555
C2 C6 1_555 1_555
C6 C31 1_555 1_555
H23 C31 1_555 1_555
Mn14 O8 1_555 1_555
Mn19 O1 1_555 1_555
O1_2 C2_2 1_555 1_555
O8_2 C2_2 1_555 1_555
C2_2 C6_2 1_555 1_555
C6_2 C31_2 1_555 1_555
H23_2 C31_2 1_555 1_555
Mn13 O8_2 1_555 1_555
Mn19_2 O1_2 1_555 1_555
O2_2 P2_2 1_555 1_555
O3_2 P1_2 1_555 1_555
O4_2 C7_2 1_555 1_555
O5_2 C7_2 1_555 1_555
O7_2 C25_2 1_555 1_555
O9_2 P3_2 1_555 1_555
O10_2 P2_2 1_555 1_555
O11_2 P1_2 1_555 1_555
O54 C42_2 1_555 1_555
O16_2 C25_2 1_555 1_555
O17_2 P3_2 1_555 1_555
O20_2 C42_2 1_555 1_555
P1_2 N1_2 1_555 1_555
P2_2 N2_2 1_555 1_555
P3_2 N1_2 1_555 1_555
N2_2 P1_2 1_555 1_555
N3_2 P2_2 1_555 1_555
C1_2 O3_2 1_555 1_555
C3_2 H7_2 1_555 1_555
C4_2 H8_2 1_555 1_555
C5_2 C3_2 1_555 1_555
C7_2 C5_2 1_555 1_555
C8_2 C1_2 1_555 1_555
H9_2 C8_2 1_555 1_555
C9_2 C13_2 1_555 1_555
C10_2 C4_2 1_555 1_555
C11_2 H10_2 1_555 1_555
C12_2 H11_2 1_555 1_555
C13_2 H12_2 1_555 1_555
C16_2 C9_2 1_555 1_555
H14_2 C16_2 1_555 1_555
C17_2 O10_2 1_555 1_555
C18_2 C26_2 1_555 1_555
C19_2 C5_2 1_555 1_555
H15_2 C19_2 1_555 1_555
C20_2 C16_2 1_555 1_555
H16_2 C20_2 1_555 1_555
C21_2 O9_2 1_555 1_555
C22_2 O2_2 1_555 1_555
C23_2 C4_2 1_555 1_555
H17_2 C23_2 1_555 1_555
C25_2 C9_2 1_555 1_555
C26_2 H18_2 1_555 1_555
C27_2 C10_2 1_555 1_555
H19_2 C27_2 1_555 1_555
C28_2 C18_2 1_555 1_555
H20_2 C28_2 1_555 1_555
C29_2 H21_2 1_555 1_555
C30_2 C13_2 1_555 1_555
H22_2 C30_2 1_555 1_555
C32_2 O17_2 1_555 1_555
C33_2 C21_2 1_555 1_555
H24_2 C33_2 1_555 1_555
C34_2 C22_2 1_555 1_555
H25_2 C34_2 1_555 1_555
C35_2 C1_2 1_555 1_555
H26_2 C35_2 1_555 1_555
C36_2 C22_2 1_555 1_555
H27_2 C36_2 1_555 1_555
C37_2 O11_2 1_555 1_555
C38_2 C21_2 1_555 1_555
H28_2 C38_2 1_555 1_555
H30_2 C41_2 1_555 1_555
C42_2 C18_2 1_555 1_555
O24_2 P5_2 1_555 1_555
O25_2 P4_2 1_555 1_555
O26_2 C49_2 1_555 1_555
O27_2 C49_2 1_555 1_555
O28_2 C67_2 1_555 1_555
O30_2 P6_2 1_555 1_555
O31_2 P5_2 1_555 1_555
O32_2 P4_2 1_555 1_555
O55 C84_2 1_555 1_555
O37_2 C67_2 1_555 1_555
O38_2 P6_2 1_555 1_555
O59 C82_2 1_555 1_555
O61 C82_2 1_555 1_555
O41_2 C84_2 1_555 1_555
P4_2 N4_2 1_555 1_555
P5_2 N5_2 1_555 1_555
P6_2 N4_2 1_555 1_555
N5_2 P4_2 1_555 1_555
N6_2 P5_2 1_555 1_555
C43_2 O25_2 1_555 1_555
C45_2 H39_2 1_555 1_555
C46_2 H40_2 1_555 1_555
C47_2 C45_2 1_555 1_555
C49_2 C47_2 1_555 1_555
C50_2 C43_2 1_555 1_555
H41_2 C50_2 1_555 1_555
C51_2 C55_2 1_555 1_555
C52_2 C46_2 1_555 1_555
C53_2 H42_2 1_555 1_555
C54_2 H43_2 1_555 1_555
C55_2 H44_2 1_555 1_555
C58_2 C51_2 1_555 1_555
H46_2 C58_2 1_555 1_555
C59_2 O31_2 1_555 1_555
C60_2 C68_2 1_555 1_555
C61_2 C47_2 1_555 1_555
H47_2 C61_2 1_555 1_555
C62_2 C58_2 1_555 1_555
H48_2 C62_2 1_555 1_555
C63_2 O30_2 1_555 1_555
C64_2 O24_2 1_555 1_555
C65_2 C46_2 1_555 1_555
H49_2 C65_2 1_555 1_555
C66_2 C71_2 1_555 1_555
C67_2 C51_2 1_555 1_555
C68_2 H50_2 1_555 1_555
C69_2 C52_2 1_555 1_555
H51_2 C69_2 1_555 1_555
C70_2 C60_2 1_555 1_555
H52_2 C70_2 1_555 1_555
C71_2 H53_2 1_555 1_555
C72_2 C55_2 1_555 1_555
H54_2 C72_2 1_555 1_555
C74_2 O38_2 1_555 1_555
C75_2 C63_2 1_555 1_555
H56_2 C75_2 1_555 1_555
C76_2 C64_2 1_555 1_555
H57_2 C76_2 1_555 1_555
C77_2 C43_2 1_555 1_555
H58_2 C77_2 1_555 1_555
C78_2 C64_2 1_555 1_555
H59_2 C78_2 1_555 1_555
C79_2 O32_2 1_555 1_555
C80_2 C63_2 1_555 1_555
H60_2 C80_2 1_555 1_555
C81_2 C66_2 1_555 1_555
H61_2 C81_2 1_555 1_555
C82_2 C66_2 1_555 1_555
H62_2 C83_2 1_555 1_555
C84_2 C60_2 1_555 1_555
Mn7 O26_2 1_555 1_555
Mn9 O4_2 1_555 1_555
Mn13 O26_2 1_555 1_555
Mn15 O4_2 1_555 1_555
O5_2 Mn15 1_555 1_555
O7_2 Mn9 1_555 1_555
P3_2 N3_2 1_555 1_555
C3_2 C35_2 1_555 1_555
C8_2 C19_2 1_555 1_555
C11_2 C17_2 1_555 1_555
C11_2 C41_2 1_555 1_555
C12_2 C27_2 1_555 1_555
C12_2 C37_2 1_555 1_555
C14_2 C17_2 1_555 1_555
C20_2 C32_2 1_555 1_555
C23_2 C37_2 1_555 1_555
C26_2 C33_2 1_555 1_555
C28_2 C38_2 1_555 1_555
C29_2 C34_2 1_555 1_555
C30_2 C32_2 1_555 1_555
O27_2 Mn13 1_555 1_555
O28_2 Mn7 1_555 1_555
P6_2 N6_2 1_555 1_555
C45_2 C77_2 1_555 1_555
C50_2 C61_2 1_555 1_555
C53_2 C59_2 1_555 1_555
C53_2 C83_2 1_555 1_555
C54_2 C69_2 1_555 1_555
C54_2 C79_2 1_555 1_555
C56_2 C59_2 1_555 1_555
C62_2 C74_2 1_555 1_555
C65_2 C79_2 1_555 1_555
C68_2 C75_2 1_555 1_555
C70_2 C80_2 1_555 1_555
C71_2 C76_2 1_555 1_555
C72_2 C74_2 1_555 1_555
C78_2 C81_2 1_555 1_555
N3_2 H63_2 1_555 1_555
O58 C40_2 1_555 1_555
O60 C40_2 1_555 1_555
C39_2 C24_2 1_555 1_555
H29_2 C39_2 1_555 1_555
C40_2 C24_2 1_555 1_555
O6_2 Mn1_2 1_555 1_555
O12_2 C15_2 1_555 1_555
O14_2 C15_2 1_555 1_555
O15_2 H1_2 1_555 1_555
H2_2 O15_2 1_555 1_555
O21_2 H3_2 1_555 1_555
H4_2 O21_2 1_555 1_555
O22_2 H5_2 1_555 1_555
H6_2 O22_2 1_555 1_555
Mn1_2 O14_2 1_555 1_555
Mn11 O12_2 1_555 1_555
O33_2 C57_2 1_555 1_555
O35_2 C57_2 1_555 1_555
O36_2 H33_2 1_555 1_555
H34_2 O36_2 1_555 1_555
O42_2 H35_2 1_555 1_555
H36_2 O42_2 1_555 1_555
O43_2 H37_2 1_555 1_555
H38_2 O43_2 1_555 1_555
Mn4_2 O6_2 1_555 1_555
Mn12 O33_2 1_555 1_555
O44_2 Mn17 1_555 1_555
O45_2 Mn18 1_555 1_555
O46_2 Mn4_2 1_555 1_555
O47_2 Mn1_2 1_555 1_555
O48_2 Mn12 1_555 1_555
O49_2 Mn11 1_555 1_555
O50_2 Mn4_2 1_555 1_555
O51_2 Mn1_2 1_555 1_555
O52_2 Mn11 1_555 1_555
O53_2 Mn12 1_555 1_555
O56_2 Mn1_2 1_555 1_555
O57_2 Mn4_2 1_555 1_555
O15_2 Mn1_2 1_555 1_555
O21_2 Mn11 1_555 1_555
O21_2 Mn17 1_555 1_555
O22_2 Mn17 1_555 1_555
Mn11 O47_2 1_555 1_555
O35_2 Mn4_2 1_555 1_555
O36_2 Mn4_2 1_555 1_555
O42_2 Mn12 1_555 1_555
O42_2 Mn18 1_555 1_555
O43_2 Mn18 1_555 1_555
Mn12 O46_2 1_555 1_555
O23_2 C44_2 1_555 1_555
O29_2 C44_2 1_555 1_555
C44_2 C48_2 1_555 1_555
C48_2 C73_2 1_555 1_555
H55_2 C73_2 1_555 1_555
Mn15 O29_2 1_555 1_555
Mn20_2 O23_2 1_555 1_555
N6 H63_3 1_555 1_555
N6_2 H63_4 1_555 1_555
O39_2 C82_3 1_555 1_555
O40_2 C82_3 1_555 1_555
C81_3 C66_3 1_555 1_555
H61_3 C81_3 1_555 1_555
C82_3 C66_3 1_555 1_555
Mn13 O39_2 1_555 1_555
O40_2 Mn19_2 1_555 1_555
O22_3 H5_3 1_555 1_555
H6_3 O22_3 1_555 1_555
H31_3 O6_3 1_555 1_555
O45 C44_3 1_555 1_555
O24_3 P5_3 1_555 1_555
O25_3 P4_3 1_555 1_555
O47 C49_3 1_555 1_555
O49 C49_3 1_555 1_555
O51 C67_3 1_555 1_555
O53 C44_3 1_555 1_555
O30_3 P6_3 1_555 1_555
O31_3 P5_3 1_555 1_555
O32_3 P4_3 1_555 1_555
O33_3 C57_3 1_555 1_555
O34_2 C84_3 1_555 1_555
O35_3 C57_3 1_555 1_555
O36_3 H33_3 1_555 1_555
O57 C67_3 1_555 1_555
O38_3 P6_3 1_555 1_555
O41_3 C84_3 1_555 1_555
O42_3 H35_3 1_555 1_555
H36_3 O42_3 1_555 1_555
P4_3 N4_3 1_555 1_555
P5_3 N5_3 1_555 1_555
P6_3 N4_3 1_555 1_555
N5_3 P4_3 1_555 1_555
N6_3 P5_3 1_555 1_555
C43_3 O25_3 1_555 1_555
C44_3 C48_3 1_555 1_555
C45_3 H39_3 1_555 1_555
C46_3 H40_3 1_555 1_555
C47_3 C45_3 1_555 1_555
C48_3 C73_3 1_555 1_555
C49_3 C47_3 1_555 1_555
C50_3 C43_3 1_555 1_555
H41_3 C50_3 1_555 1_555
C51_3 C55_3 1_555 1_555
C52_3 C46_3 1_555 1_555
C53_3 H42_3 1_555 1_555
C54_3 H43_3 1_555 1_555
C55_3 H44_3 1_555 1_555
C56_3 H45_3 1_555 1_555
C57_3 C52_3 1_555 1_555
C58_3 C51_3 1_555 1_555
H46_3 C58_3 1_555 1_555
C59_3 O31_3 1_555 1_555
C60_3 C68_3 1_555 1_555
C61_3 C47_3 1_555 1_555
H47_3 C61_3 1_555 1_555
C62_3 C58_3 1_555 1_555
H48_3 C62_3 1_555 1_555
C63_3 O30_3 1_555 1_555
C64_3 O24_3 1_555 1_555
C65_3 C46_3 1_555 1_555
H49_3 C65_3 1_555 1_555
C67_3 C51_3 1_555 1_555
C68_3 H50_3 1_555 1_555
C69_3 C52_3 1_555 1_555
H51_3 C69_3 1_555 1_555
C70_3 C60_3 1_555 1_555
H52_3 C70_3 1_555 1_555
C71_3 H53_3 1_555 1_555
C72_3 C55_3 1_555 1_555
H54_3 C72_3 1_555 1_555
C73_3 C56_3 1_555 1_555
H55_3 C73_3 1_555 1_555
C74_3 O38_3 1_555 1_555
C75_3 C63_3 1_555 1_555
H56_3 C75_3 1_555 1_555
C76_3 C64_3 1_555 1_555
H57_3 C76_3 1_555 1_555
C77_3 C43_3 1_555 1_555
H58_3 C77_3 1_555 1_555
C78_3 C64_3 1_555 1_555
H59_3 C78_3 1_555 1_555
C79_3 O32_3 1_555 1_555
C80_3 C63_3 1_555 1_555
H60_3 C80_3 1_555 1_555
C83_3 C48_3 1_555 1_555
H62_3 C83_3 1_555 1_555
C84_3 C60_3 1_555 1_555
Mn10 O6_3 1_555 1_555
Mn16 O33_3 1_555 1_555
Mn20 O41_3 1_555 1_555
O58_2 Mn16 1_555 1_555
O60_2 Mn20 1_555 1_555
O35_3 Mn10 1_555 1_555
O36_3 Mn10 1_555 1_555
O42_3 Mn16 1_555 1_555
O42_3 Mn20 1_555 1_555
P6_3 N6_3 1_555 1_555
C45_3 C77_3 1_555 1_555
C50_3 C61_3 1_555 1_555
C53_3 C59_3 1_555 1_555
C53_3 C83_3 1_555 1_555
C54_3 C69_3 1_555 1_555
C54_3 C79_3 1_555 1_555
C56_3 C59_3 1_555 1_555
C62_3 C74_3 1_555 1_555
C65_3 C79_3 1_555 1_555
C68_3 C75_3 1_555 1_555
C70_3 C80_3 1_555 1_555
C71_3 C76_3 1_555 1_555
C72_3 C74_3 1_555 1_555
O44 C2_3 1_555 1_555
O2_3 P2_3 1_555 1_555
O3_3 P1_3 1_555 1_555
O46 C7_3 1_555 1_555
O48 C7_3 1_555 1_555
O6_4 Mn8 1_555 1_555
O50 C25_3 1_555 1_555
O52 C2_3 1_555 1_555
O9_3 P3_3 1_555 1_555
O10_3 P2_3 1_555 1_555
O11_3 P1_3 1_555 1_555
O12_3 C15_3 1_555 1_555
O13_2 C42_3 1_555 1_555
O14_3 C15_3 1_555 1_555
O15_3 H1_3 1_555 1_555
O56 C25_3 1_555 1_555
O17_3 P3_3 1_555 1_555
O18_2 C40_3 1_555 1_555
O19_2 C40_3 1_555 1_555
O20_3 C42_3 1_555 1_555
O21_3 H3_3 1_555 1_555
H4_3 O21_3 1_555 1_555
P1_3 N1_3 1_555 1_555
P2_3 N2_3 1_555 1_555
P3_3 N1_3 1_555 1_555
N2_3 P1_3 1_555 1_555
N3_3 P2_3 1_555 1_555
C1_3 O3_3 1_555 1_555
C2_3 C6_3 1_555 1_555
C3_3 H7_3 1_555 1_555
C4_3 H8_3 1_555 1_555
C5_3 C3_3 1_555 1_555
C6_3 C31_3 1_555 1_555
C7_3 C5_3 1_555 1_555
C8_3 C1_3 1_555 1_555
H9_3 C8_3 1_555 1_555
C9_3 C13_3 1_555 1_555
C10_3 C4_3 1_555 1_555
C11_3 H10_3 1_555 1_555
C12_3 H11_3 1_555 1_555
C13_3 H12_3 1_555 1_555
C14_3 H13_3 1_555 1_555
C15_3 C10_3 1_555 1_555
C16_3 C9_3 1_555 1_555
H14_3 C16_3 1_555 1_555
C17_3 O10_3 1_555 1_555
C18_3 C26_3 1_555 1_555
C19_3 C5_3 1_555 1_555
H15_3 C19_3 1_555 1_555
C20_3 C16_3 1_555 1_555
H16_3 C20_3 1_555 1_555
C21_3 O9_3 1_555 1_555
C22_3 O2_3 1_555 1_555
C23_3 C4_3 1_555 1_555
H17_3 C23_3 1_555 1_555
C24_3 C29_3 1_555 1_555
C25_3 C9_3 1_555 1_555
C26_3 H18_3 1_555 1_555
C27_3 C10_3 1_555 1_555
H19_3 C27_3 1_555 1_555
C28_3 C18_3 1_555 1_555
H20_3 C28_3 1_555 1_555
C29_3 H21_3 1_555 1_555
C30_3 C13_3 1_555 1_555
H22_3 C30_3 1_555 1_555
C31_3 C14_3 1_555 1_555
H23_3 C31_3 1_555 1_555
C32_3 O17_3 1_555 1_555
C33_3 C21_3 1_555 1_555
H24_3 C33_3 1_555 1_555
C34_3 C22_3 1_555 1_555
H25_3 C34_3 1_555 1_555
C35_3 C1_3 1_555 1_555
H26_3 C35_3 1_555 1_555
C36_3 C22_3 1_555 1_555
H27_3 C36_3 1_555 1_555
C37_3 O11_3 1_555 1_555
C38_3 C21_3 1_555 1_555
H28_3 C38_3 1_555 1_555
C39_3 C24_3 1_555 1_555
H29_3 C39_3 1_555 1_555
C40_3 C24_3 1_555 1_555
C41_3 C6_3 1_555 1_555
H30_3 C41_3 1_555 1_555
C42_3 C18_3 1_555 1_555
Mn8 O14_3 1_555 1_555
Mn14 O12_3 1_555 1_555
Mn19 O20_3 1_555 1_555
H32_3 O6_4 1_555 1_555
O43_3 H37_3 1_555 1_555
H38_3 O43_3 1_555 1_555
O55_2 Mn19 1_555 1_555
O59_2 Mn14 1_555 1_555
O61_2 Mn19 1_555 1_555
Mn15 O18_2 1_555 1_555
Mn20_2 O13_2 1_555 1_555
O15_3 Mn8 1_555 1_555
O19_2 Mn20_2 1_555 1_555
O21_3 Mn14 1_555 1_555
O21_3 Mn19 1_555 1_555
P3_3 N3_3 1_555 1_555
C3_3 C35_3 1_555 1_555
C8_3 C19_3 1_555 1_555
C11_3 C17_3 1_555 1_555
C11_3 C41_3 1_555 1_555
C12_3 C27_3 1_555 1_555
C12_3 C37_3 1_555 1_555
C14_3 C17_3 1_555 1_555
C20_3 C32_3 1_555 1_555
C23_3 C37_3 1_555 1_555
C26_3 C33_3 1_555 1_555
C28_3 C38_3 1_555 1_555
C29_3 C34_3 1_555 1_555
C30_3 C32_3 1_555 1_555
C36_3 C39_3 1_555 1_555
N3_3 H63_5 1_555 1_555
O44_2 C2_4 1_555 1_555
O2_4 P2_4 1_555 1_555
O3_4 P1_4 1_555 1_555
O46_2 C7_4 1_555 1_555
O48_2 C7_4 1_555 1_555
O6_5 Mn7 1_555 1_555
O50_2 C25_4 1_555 1_555
O52_2 C2_4 1_555 1_555
O9_4 P3_4 1_555 1_555
O10_4 P2_4 1_555 1_555
O11_4 P1_4 1_555 1_555
O12_4 C15_4 1_555 1_555
O54_2 C42_4 1_555 1_555
O14_4 C15_4 1_555 1_555
O15_4 H1_4 1_555 1_555
O56_2 C25_4 1_555 1_555
O17_4 P3_4 1_555 1_555
O20_4 C42_4 1_555 1_555
O21_4 H3_4 1_555 1_555
H4_4 O21_4 1_555 1_555
P1_4 N1_4 1_555 1_555
P2_4 N2_4 1_555 1_555
P3_4 N1_4 1_555 1_555
N2_4 P1_4 1_555 1_555
N3_4 P2_4 1_555 1_555
C1_4 O3_4 1_555 1_555
C2_4 C6_4 1_555 1_555
C3_4 H7_4 1_555 1_555
C4_4 H8_4 1_555 1_555
C5_4 C3_4 1_555 1_555
C6_4 C31_4 1_555 1_555
C7_4 C5_4 1_555 1_555
C8_4 C1_4 1_555 1_555
H9_4 C8_4 1_555 1_555
C9_4 C13_4 1_555 1_555
C10_4 C4_4 1_555 1_555
C11_4 H10_4 1_555 1_555
C12_4 H11_4 1_555 1_555
C13_4 H12_4 1_555 1_555
C14_4 H13_4 1_555 1_555
C15_4 C10_4 1_555 1_555
C16_4 C9_4 1_555 1_555
H14_4 C16_4 1_555 1_555
C17_4 O10_4 1_555 1_555
C18_4 C26_4 1_555 1_555
C19_4 C5_4 1_555 1_555
H15_4 C19_4 1_555 1_555
C20_4 C16_4 1_555 1_555
H16_4 C20_4 1_555 1_555
C21_4 O9_4 1_555 1_555
C22_4 O2_4 1_555 1_555
C23_4 C4_4 1_555 1_555
H17_4 C23_4 1_555 1_555
C25_4 C9_4 1_555 1_555
C26_4 H18_4 1_555 1_555
C27_4 C10_4 1_555 1_555
H19_4 C27_4 1_555 1_555
C28_4 C18_4 1_555 1_555
H20_4 C28_4 1_555 1_555
C29_4 H21_4 1_555 1_555
C30_4 C13_4 1_555 1_555
H22_4 C30_4 1_555 1_555
C31_4 C14_4 1_555 1_555
H23_4 C31_4 1_555 1_555
C32_4 O17_4 1_555 1_555
C33_4 C21_4 1_555 1_555
H24_4 C33_4 1_555 1_555
C34_4 C22_4 1_555 1_555
H25_4 C34_4 1_555 1_555
C35_4 C1_4 1_555 1_555
H26_4 C35_4 1_555 1_555
C36_4 C22_4 1_555 1_555
H27_4 C36_4 1_555 1_555
C37_4 O11_4 1_555 1_555
C38_4 C21_4 1_555 1_555
H28_4 C38_4 1_555 1_555
C41_4 C6_4 1_555 1_555
H30_4 C41_4 1_555 1_555
C42_4 C18_4 1_555 1_555
Mn7 O14_4 1_555 1_555
Mn13 O12_4 1_555 1_555
Mn19_2 O20_4 1_555 1_555
H32_4 O6_5 1_555 1_555
O43_4 H37_4 1_555 1_555
H38_4 O43_4 1_555 1_555
O15_4 Mn7 1_555 1_555
O21_4 Mn13 1_555 1_555
O21_4 Mn19_2 1_555 1_555
P3_4 N3_4 1_555 1_555
C3_4 C35_4 1_555 1_555
C8_4 C19_4 1_555 1_555
C11_4 C17_4 1_555 1_555
C11_4 C41_4 1_555 1_555
C12_4 C27_4 1_555 1_555
C12_4 C37_4 1_555 1_555
C14_4 C17_4 1_555 1_555
C20_4 C32_4 1_555 1_555
C23_4 C37_4 1_555 1_555
C26_4 C33_4 1_555 1_555
C28_4 C38_4 1_555 1_555
C29_4 C34_4 1_555 1_555
C30_4 C32_4 1_555 1_555
N3_4 H63_6 1_555 1_555
O58_2 C40_4 1_555 1_555
O60_2 C40_4 1_555 1_555
C39_4 C24_4 1_555 1_555
H29_4 C39_4 1_555 1_555
C40_4 C24_4 1_555 1_555
O22_4 H5_4 1_555 1_555
H6_4 O22_4 1_555 1_555
H31_4 O6_6 1_555 1_555
O45_2 C44_4 1_555 1_555
O24_4 P5_4 1_555 1_555
O25_4 P4_4 1_555 1_555
O47_2 C49_4 1_555 1_555
O49_2 C49_4 1_555 1_555
O51_2 C67_4 1_555 1_555
O53_2 C44_4 1_555 1_555
O30_4 P6_4 1_555 1_555
O31_4 P5_4 1_555 1_555
O32_4 P4_4 1_555 1_555
O33_4 C57_4 1_555 1_555
O55_2 C84_4 1_555 1_555
O35_4 C57_4 1_555 1_555
O36_4 H33_4 1_555 1_555
O57_2 C67_4 1_555 1_555
O38_4 P6_4 1_555 1_555
O59_2 C82_4 1_555 1_555
O61_2 C82_4 1_555 1_555
O41_4 C84_4 1_555 1_555
O42_4 H35_4 1_555 1_555
H36_4 O42_4 1_555 1_555
P4_4 N4_4 1_555 1_555
P5_4 N5_4 1_555 1_555
P6_4 N4_4 1_555 1_555
N5_4 P4_4 1_555 1_555
N6_4 P5_4 1_555 1_555
C43_4 O25_4 1_555 1_555
C44_4 C48_4 1_555 1_555
C45_4 H39_4 1_555 1_555
C46_4 H40_4 1_555 1_555
C47_4 C45_4 1_555 1_555
C48_4 C73_4 1_555 1_555
C49_4 C47_4 1_555 1_555
C50_4 C43_4 1_555 1_555
H41_4 C50_4 1_555 1_555
C51_4 C55_4 1_555 1_555
C52_4 C46_4 1_555 1_555
C53_4 H42_4 1_555 1_555
C54_4 H43_4 1_555 1_555
C55_4 H44_4 1_555 1_555
C56_4 H45_4 1_555 1_555
C57_4 C52_4 1_555 1_555
C58_4 C51_4 1_555 1_555
H46_4 C58_4 1_555 1_555
C59_4 O31_4 1_555 1_555
C60_4 C68_4 1_555 1_555
C61_4 C47_4 1_555 1_555
H47_4 C61_4 1_555 1_555
C62_4 C58_4 1_555 1_555
H48_4 C62_4 1_555 1_555
C63_4 O30_4 1_555 1_555
C64_4 O24_4 1_555 1_555
C65_4 C46_4 1_555 1_555
H49_4 C65_4 1_555 1_555
C66_4 C71_4 1_555 1_555
C67_4 C51_4 1_555 1_555
C68_4 H50_4 1_555 1_555
C69_4 C52_4 1_555 1_555
H51_4 C69_4 1_555 1_555
C70_4 C60_4 1_555 1_555
H52_4 C70_4 1_555 1_555
C71_4 H53_4 1_555 1_555
C72_4 C55_4 1_555 1_555
H54_4 C72_4 1_555 1_555
C73_4 C56_4 1_555 1_555
H55_4 C73_4 1_555 1_555
C74_4 O38_4 1_555 1_555
C75_4 C63_4 1_555 1_555
H56_4 C75_4 1_555 1_555
C76_4 C64_4 1_555 1_555
H57_4 C76_4 1_555 1_555
C77_4 C43_4 1_555 1_555
H58_4 C77_4 1_555 1_555
C78_4 C64_4 1_555 1_555
H59_4 C78_4 1_555 1_555
C79_4 O32_4 1_555 1_555
C80_4 C63_4 1_555 1_555
H60_4 C80_4 1_555 1_555
C81_4 C66_4 1_555 1_555
H61_4 C81_4 1_555 1_555
C82_4 C66_4 1_555 1_555
C83_4 C48_4 1_555 1_555
H62_4 C83_4 1_555 1_555
C84_4 C60_4 1_555 1_555
Mn9 O6_6 1_555 1_555
Mn15 O33_4 1_555 1_555
Mn20_2 O41_4 1_555 1_555
O35_4 Mn9 1_555 1_555
O36_4 Mn9 1_555 1_555
O42_4 Mn15 1_555 1_555
O42_4 Mn20_2 1_555 1_555
P6_4 N6_4 1_555 1_555
C45_4 C77_4 1_555 1_555
C50_4 C61_4 1_555 1_555
C53_4 C59_4 1_555 1_555
C53_4 C83_4 1_555 1_555
C54_4 C69_4 1_555 1_555
C54_4 C79_4 1_555 1_555
C56_4 C59_4 1_555 1_555
C62_4 C74_4 1_555 1_555
C65_4 C79_4 1_555 1_555
C68_4 C75_4 1_555 1_555
C70_4 C80_4 1_555 1_555
C71_4 C76_4 1_555 1_555
C72_4 C74_4 1_555 1_555
C78_4 C81_4 1_555 1_555
N6_3 H63_7 1_555 1_555
N6_4 H63_8 1_555 1_555

#END
