
###############################################################################
#
# This file contains modified crystal structure data generated from the
# MOF subset of the Cambridge Structural Database (CSD) v543 
# hosted by the Cambridge Crystallographic Data Centre (CCDC).
#
# This work is licensed under the Creative Commons
# Attribution-NonCommercial-ShareAlike 4.0 International License.
# To view a copy of this license, visit
# http://creativecommons.org/licenses/by-nc-sa/4.0/
# or send a letter to
# Creative Commons, PO Box 1866, Mountain View, CA 94042, USA.
#
# CIF created using the CSD Python API on 29 September 2022
# The structure has been converted into the P1 space group
# The structure has a 3D framework
# The original CSD entry ZOHQOF is in the rhombohedral crystal system
# The framework has been calculated to contain at least 10.0% void space
# The void calculation uses a probe of radius 1.32A, grid spacing 0.4
#
###############################################################################

data_ZOHQOF
_chemical_formula_moiety         '(C216 H252 Ni36 O180)n'
_symmetry_cell_setting           triclinic
_symmetry_space_group_name_H-M   'P 1'
_symmetry_Int_Tables_number      1
_space_group_name_Hall           'P 1'
loop_
_symmetry_equiv_pos_site_id
_symmetry_equiv_pos_as_xyz
1 x,y,z
_cell_length_a                   25.871(4)
_cell_length_b                   25.871(4)
_cell_length_c                   13.500(3)
_cell_angle_alpha                90
_cell_angle_beta                 90
_cell_angle_gamma                120
_cell_volume                     7825.12
loop_
_atom_site_label
_atom_site_type_symbol
_atom_site_fract_x
_atom_site_fract_y
_atom_site_fract_z
Ni2 Ni 0.68481(2) 0.05157(2) 0.24040(4)
O9 O 0.6873(2) 0.12786(19) 0.2952(3)
H9 H 0.688291 0.149851 0.248510
O10 O 0.6873(6) 0.2389(5) 0.3472(9)
H10 H 0.651303 0.229020 0.339543
C11 C 0.6629(4) 0.1388(4) 0.3783(6)
H11 H 0.663901 0.113915 0.433177
H12 H 0.620400 0.125195 0.364329
C12 C 0.6913(7) 0.2004(5) 0.4123(9)
H13 H 0.672786 0.201571 0.475857
H14 H 0.733978 0.214532 0.425329
O11 O 0.75084(15) 0.06015(21) 0.3341(2)
O13 O 0.60967(21) 0.02769(15) 0.1611(2)
O14 O 0.74045(14) 0.10210(21) 0.1308(2)
O15 O 0.69630(14) 0.03500(21) 0.0120(2)
Ni1 Ni 0.61872(2) 0.96686(2) 0.07701(4)
O1 O 0.67683(15) 0.97322(14) 0.1820(2)
O2 O 0.64265(15) 0.91583(15) 0.0008(2)
O3 O 0.69855(15) 0.92924(15) 0.3037(2)
O4 O 0.69436(15) 0.75136(15) 0.1722(2)
C1 C 0.68348(19) 0.93060(18) 0.2152(3)
C2 C 0.6565(2) 0.87782(19) 0.0459(3)
C3 C 0.6740(2) 0.88138(19) 0.1468(3)
C4 C 0.6853(2) 0.83701(19) 0.1844(3)
H1 H 0.696339 0.839318 0.252084
C5 C 0.6813(2) 0.79004(19) 0.1278(3)
C6 C 0.6638(2) 0.7873(2) 0.0270(3)
O7 O 0.54876(18) 0.89504(18) 0.1475(3)
H3 H 0.553376 0.929425 0.141705
C9 C 0.4944(5) 0.8541(5) 0.1102(7)
H5 H 0.477846 0.875452 0.072802
H6 H 0.467049 0.833240 0.166143
C10 C 0.4958(8) 0.8090(6) 0.0444(10)
H7 H 0.454215 0.778443 0.028111
H8 H 0.513922 0.788918 0.081031
Ni3 Ni 0.69981(2) 0.98519(3) 0.41034(4)
Ni5 Ni 0.63353(2) 0.68147(3) 0.25632(4)
Ni8 Ni 0.71824(2) 0.70009(3) 0.09293(4)
O16 O 0.63167(21) 0.99463(15) 0.3453(2)
O5 O 0.63835(16) 0.74045(14) 0.8692(2)
O6 O 0.66130(15) 0.69630(14) 0.9880(2)
C7 C 0.6526(2) 0.83133(19) 0.9892(3)
H2 H 0.641937 0.829185 0.921387
C8 C 0.65396(19) 0.73828(19) 0.9565(3)
O8 O 0.5291(4) 0.8331(5) 0.9508(8)
H4 H 0.565666 0.854455 0.963272
Ni4 Ni 0.65186(3) 0.61872(2) 0.92299(4)
Ni6 Ni 0.70009(3) 0.98186(2) 0.90707(4)
Ni7 Ni 0.63324(3) 0.68481(2) 0.75960(4)
O12 O 0.56402(21) 0.96812(15) 0.9704(2)
Ni8_2 Ni 0.29991(3) 0.01814(4) 0.09293(4)
Ni4_2 Ni 0.38128(2) 0.03314(4) 0.92299(4)
Ni1_2 Ni 0.03314(2) 0.65186(3) 0.07701(4)
O1_2 O 0.02678(14) 0.70361(21) 0.1820(2)
O2_2 O 0.08417(15) 0.72682(21) 0.0008(2)
O3_2 O 0.07076(15) 0.76931(21) 0.3037(2)
O4_2 O 0.24864(15) 0.94300(21) 0.1722(2)
C1_2 C 0.06940(18) 0.75288(26) 0.2152(3)
C2_2 C 0.12218(19) 0.77868(28) 0.0459(3)
C3_2 C 0.11862(19) 0.79262(28) 0.1468(3)
C4_2 C 0.16299(19) 0.84829(28) 0.1844(3)
H1_2 H 0.160682 0.857021 0.252084
C5_2 C 0.20996(19) 0.89126(28) 0.1278(3)
C6_2 C 0.2127(2) 0.8765(3) 0.0270(3)
O7_2 O 0.10496(18) 0.65372(25) 0.1475(3)
H3_2 H 0.070575 0.623951 0.141705
C9_2 C 0.1459(5) 0.6403(7) 0.1102(7)
H5_2 H 0.124548 0.602394 0.072802
H6_2 H 0.166760 0.633809 0.166143
C10_2 C 0.1910(6) 0.6868(10) 0.0444(10)
H7_2 H 0.221557 0.675772 0.028111
H8_2 H 0.211082 0.725004 0.081031
Ni3_2 Ni 0.01481(3) 0.71461(4) 0.41034(4)
Ni5_2 Ni 0.31853(3) 0.95205(4) 0.25632(4)
O16_2 O 0.00537(15) 0.63703(26) 0.3453(2)
O5_2 O 0.25955(14) 0.89790(21) 0.8692(2)
O6_2 O 0.30370(14) 0.96500(21) 0.9880(2)
C7_2 C 0.16867(19) 0.82127(28) 0.9892(3)
H2_2 H 0.170815 0.812752 0.921387
C8_2 C 0.26172(19) 0.91568(27) 0.9565(3)
O8_2 O 0.1669(5) 0.6960(6) 0.9508(8)
H4_2 H 0.145545 0.711211 0.963272
Ni6_2 Ni 0.01814(2) 0.71824(4) 0.90707(4)
Ni7_2 Ni 0.31519(2) 0.94843(4) 0.75960(4)
O12_2 O 0.03188(15) 0.59591(26) 0.9704(2)
Ni2_2 Ni 0.94843(2) 0.63324(3) 0.24040(4)
O9_2 O 0.87214(19) 0.55944(28) 0.2952(3)
H9_2 H 0.850149 0.538440 0.248510
O10_2 O 0.7611(5) 0.4484(8) 0.3472(9)
H10_2 H 0.770980 0.422283 0.339543
C11_2 C 0.8612(4) 0.5241(6) 0.3783(6)
H11_2 H 0.886085 0.549986 0.433177
H12_2 H 0.874805 0.495205 0.364329
C12_2 C 0.7996(5) 0.4909(9) 0.4123(9)
H13_2 H 0.798429 0.471215 0.475857
H14_2 H 0.785468 0.519446 0.425329
O11_2 O 0.93985(21) 0.69068(26) 0.3341(2)
O13_2 O 0.97231(15) 0.58197(26) 0.1611(2)
O14_2 O 0.89790(21) 0.63835(25) 0.1308(2)
O15_2 O 0.96500(21) 0.66130(25) 0.0120(2)
Ni1_3 Ni 0.34814(3) 0.38128(2) 0.07701(4)
Ni2_3 Ni 0.36676(3) 0.31519(2) 0.24040(4)
O1_3 O 0.29639(21) 0.32317(15) 0.1820(2)
O2_3 O 0.27318(21) 0.35735(15) 0.0008(2)
O3_3 O 0.23069(21) 0.30145(15) 0.3037(2)
O4_3 O 0.05700(21) 0.30564(15) 0.1722(2)
C1_3 C 0.24712(26) 0.31652(19) 0.2152(3)
C2_3 C 0.22132(28) 0.3435(2) 0.0459(3)
C3_3 C 0.20738(28) 0.3260(2) 0.1468(3)
C4_3 C 0.15171(28) 0.3147(2) 0.1844(3)
H1_3 H 0.142979 0.303661 0.252084
C5_3 C 0.10874(28) 0.3187(2) 0.1278(3)
C6_3 C 0.1235(3) 0.3362(2) 0.0270(3)
O7_3 O 0.34628(25) 0.45124(18) 0.1475(3)
H3_3 H 0.376049 0.446624 0.141705
C9_3 C 0.3597(7) 0.5056(5) 0.1102(7)
H5_3 H 0.397606 0.522154 0.072802
H6_3 H 0.366191 0.532951 0.166143
C10_3 C 0.3132(10) 0.5042(8) 0.0444(10)
H7_3 H 0.324228 0.545785 0.028111
H8_3 H 0.274996 0.486078 0.081031
O9_3 O 0.44056(28) 0.3127(2) 0.2952(3)
H9_3 H 0.461560 0.311709 0.248510
O10_3 O 0.5516(8) 0.3127(6) 0.3472(9)
H10_3 H 0.577717 0.348697 0.339543
C11_3 C 0.4759(6) 0.3371(4) 0.3783(6)
H11_3 H 0.450014 0.336099 0.433177
H12_3 H 0.504795 0.379600 0.364329
C12_3 C 0.5091(9) 0.3087(7) 0.4123(9)
H13_3 H 0.528785 0.327214 0.475857
H14_3 H 0.480554 0.266022 0.425329
Ni3_3 Ni 0.28539(4) 0.30019(2) 0.41034(4)
Ni5_3 Ni 0.04795(4) 0.36647(2) 0.25632(4)
O11_3 O 0.30932(26) 0.24916(15) 0.3341(2)
O13_3 O 0.41803(26) 0.39033(21) 0.1611(2)
O14_3 O 0.36165(25) 0.25955(14) 0.1308(2)
O15_3 O 0.33870(25) 0.30370(14) 0.0120(2)
O16_3 O 0.36297(26) 0.36833(21) 0.3453(2)
O5_3 O 0.10210(21) 0.36165(16) 0.8692(2)
O6_3 O 0.03500(21) 0.33870(15) 0.9880(2)
C7_3 C 0.17873(28) 0.3474(2) 0.9892(3)
H2_3 H 0.187248 0.358063 0.921387
C8_3 C 0.08432(27) 0.34604(19) 0.9565(3)
O8_3 O 0.3040(6) 0.4709(4) 0.9508(8)
H4_3 H 0.288789 0.434334 0.963272
Ni6_3 Ni 0.28176(4) 0.29991(3) 0.90707(4)
Ni7_3 Ni 0.05157(4) 0.36676(3) 0.75960(4)
O12_3 O 0.40409(26) 0.43598(21) 0.9704(2)
Ni8_3 Ni 0.98186(4) 0.28176(2) 0.09293(4)
Ni4_3 Ni 0.96686(4) 0.34814(3) 0.92299(4)
Ni2_4 Ni 0.35148(2) 0.38490(2) 0.57373(4)
O1_4 O 0.34350(15) 0.30655(14) 0.5153(2)
O3_4 O 0.36522(15) 0.26257(15) 0.6370(2)
O4_4 O 0.36103(15) 0.08469(15) 0.5055(2)
O5_4 O 0.30502(16) 0.07378(14) 0.2025(2)
O6_4 O 0.32797(15) 0.02963(14) 0.3213(2)
C1_4 C 0.35015(19) 0.26393(18) 0.5485(3)
C2_4 C 0.3232(2) 0.21115(19) 0.3792(3)
C3_4 C 0.3407(2) 0.21471(19) 0.4801(3)
C4_4 C 0.3520(2) 0.17034(19) 0.5177(3)
H1_4 H 0.363006 0.172651 0.585417
C5_4 C 0.3480(2) 0.12337(19) 0.4611(3)
C6_4 C 0.3305(2) 0.1206(2) 0.3603(3)
C7_4 C 0.3193(2) 0.16466(19) 0.3225(3)
H2_4 H 0.308604 0.162518 0.254720
C8_4 C 0.32063(19) 0.07161(19) 0.2898(3)
O7_4 O 0.21543(18) 0.22837(18) 0.4808(3)
H3_4 H 0.220043 0.262758 0.475038
O8_4 O 0.1958(4) 0.1664(5) 0.2841(8)
H4_4 H 0.232333 0.187788 0.296605
C9_4 C 0.1611(5) 0.1874(5) 0.4435(7)
H5_4 H 0.144513 0.208785 0.406135
H6_4 H 0.133716 0.166573 0.499476
C10_4 C 0.1625(8) 0.1423(6) 0.3777(10)
H7_4 H 0.120882 0.111776 0.361444
H8_4 H 0.180589 0.122251 0.414364
O9_4 O 0.3540(2) 0.46119(19) 0.6285(3)
H9_4 H 0.354958 0.483184 0.581843
O10_4 O 0.3540(6) 0.5722(5) 0.6805(9)
H10_4 H 0.317970 0.562353 0.672876
C11_4 C 0.3296(4) 0.4721(4) 0.7116(6)
H11_4 H 0.330568 0.447248 0.766510
H12_4 H 0.287067 0.458528 0.697662
C12_4 C 0.3580(7) 0.5337(5) 0.7456(9)
H13_4 H 0.339453 0.534904 0.809190
H14_4 H 0.400645 0.547865 0.758662
Ni3_4 Ni 0.36647(2) 0.31853(3) 0.74368(4)
Ni5_4 Ni 0.30019(2) 0.01481(3) 0.58966(4)
Ni8_4 Ni 0.38490(2) 0.03343(3) 0.42627(4)
O11_4 O 0.41750(15) 0.39349(21) 0.6675(2)
O13_4 O 0.27633(21) 0.36103(15) 0.4945(2)
O14_4 O 0.40712(14) 0.43543(21) 0.4641(2)
O16_4 O 0.29833(21) 0.32797(15) 0.6787(2)
O1_5 O 0.69345(14) 0.03694(21) 0.5153(2)
O3_5 O 0.73743(15) 0.10264(21) 0.6370(2)
O4_5 O 0.91531(15) 0.27633(21) 0.5055(2)
O5_5 O 0.92622(14) 0.23123(21) 0.2025(2)
O6_5 O 0.97037(14) 0.29833(21) 0.3213(2)
C1_5 C 0.73607(18) 0.08621(26) 0.5485(3)
C2_5 C 0.78885(19) 0.11201(28) 0.3792(3)
C3_5 C 0.78529(19) 0.12595(28) 0.4801(3)
C4_5 C 0.82966(19) 0.18162(28) 0.5177(3)
H1_5 H 0.827349 0.190354 0.585417
C5_5 C 0.87663(19) 0.22459(28) 0.4611(3)
C6_5 C 0.8794(2) 0.2098(3) 0.3603(3)
C7_5 C 0.83534(19) 0.15460(28) 0.3225(3)
H2_5 H 0.837482 0.146085 0.254720
C8_5 C 0.92839(19) 0.24901(27) 0.2898(3)
O8_5 O 0.8336(5) 0.0293(6) 0.2841(8)
H4_5 H 0.812212 0.044544 0.296605
C10_5 C 0.8577(6) 0.0201(10) 0.3777(10)
H7_5 H 0.888224 0.009105 0.361444
H8_5 H 0.877749 0.058337 0.414364
Ni3_5 Ni 0.68147(3) 0.04795(4) 0.74368(4)
Ni5_5 Ni 0.98519(3) 0.28539(4) 0.58966(4)
Ni8_5 Ni 0.96657(3) 0.35148(4) 0.42627(4)
O11_5 O 0.60651(21) 0.02402(26) 0.6675(2)
Ni2_5 Ni 0.61510(2) 0.96657(3) 0.57373(4)
O7_5 O 0.77163(18) 0.98705(25) 0.4808(3)
H3_5 H 0.737242 0.957284 0.475038
C9_5 C 0.8126(5) 0.9736(7) 0.4435(7)
H5_5 H 0.791215 0.935727 0.406135
H6_5 H 0.833427 0.967142 0.499476
O9_5 O 0.53881(19) 0.89277(28) 0.6285(3)
H9_5 H 0.516816 0.871773 0.581843
O10_5 O 0.4278(5) 0.7817(8) 0.6805(9)
H10_5 H 0.437647 0.755616 0.672876
C11_5 C 0.5279(4) 0.8574(6) 0.7116(6)
H11_5 H 0.552752 0.883319 0.766510
H12_5 H 0.541472 0.828538 0.697662
C12_5 C 0.4663(5) 0.8242(9) 0.7456(9)
H13_5 H 0.465096 0.804548 0.809190
H14_5 H 0.452135 0.852779 0.758662
O13_5 O 0.63897(15) 0.91531(26) 0.4945(2)
O14_5 O 0.56457(21) 0.97168(25) 0.4641(2)
O16_5 O 0.67203(15) 0.97037(26) 0.6787(2)
Ni2_6 Ni 0.03343(3) 0.64852(2) 0.57373(4)
O7_6 O 0.01295(25) 0.78457(18) 0.4808(3)
H3_6 H 0.042716 0.779957 0.475038
C9_6 C 0.0264(7) 0.8389(5) 0.4435(7)
H5_6 H 0.064273 0.855487 0.406135
H6_6 H 0.032858 0.866284 0.499476
O9_6 O 0.10723(28) 0.6460(2) 0.6285(3)
H9_6 H 0.128227 0.645042 0.581843
O10_6 O 0.2183(8) 0.6460(6) 0.6805(9)
H10_6 H 0.244384 0.682030 0.672876
C11_6 C 0.1426(6) 0.6704(4) 0.7116(6)
H11_6 H 0.116681 0.669432 0.766510
H12_6 H 0.171462 0.712933 0.697662
C12_6 C 0.1758(9) 0.6420(7) 0.7456(9)
H13_6 H 0.195452 0.660547 0.809190
H14_6 H 0.147221 0.599355 0.758662
O13_6 O 0.08469(26) 0.72367(21) 0.4945(2)
O14_6 O 0.02832(25) 0.59288(14) 0.4641(2)
O16_6 O 0.02963(26) 0.70167(21) 0.6787(2)
O1_6 O 0.96306(21) 0.65650(15) 0.5153(2)
O3_6 O 0.89736(21) 0.63478(15) 0.6370(2)
O4_6 O 0.72367(21) 0.63897(15) 0.5055(2)
O5_6 O 0.76877(21) 0.69498(16) 0.2025(2)
O6_6 O 0.70167(21) 0.67203(15) 0.3213(2)
C1_6 C 0.91379(26) 0.64985(19) 0.5485(3)
C2_6 C 0.88799(28) 0.6768(2) 0.3792(3)
C3_6 C 0.87405(28) 0.6593(2) 0.4801(3)
C4_6 C 0.81838(28) 0.6480(2) 0.5177(3)
H1_6 H 0.809646 0.636994 0.585417
C5_6 C 0.77541(28) 0.6520(2) 0.4611(3)
C6_6 C 0.7902(3) 0.6695(2) 0.3603(3)
C7_6 C 0.84540(28) 0.6807(2) 0.3225(3)
H2_6 H 0.853915 0.691396 0.254720
C8_6 C 0.75099(27) 0.67937(19) 0.2898(3)
O8_6 O 0.9707(6) 0.8042(4) 0.2841(8)
H4_6 H 0.955456 0.767667 0.296605
C10_6 C 0.9799(10) 0.8375(8) 0.3777(10)
H7_6 H 0.990895 0.879118 0.361444
H8_6 H 0.941663 0.819411 0.414364
Ni3_6 Ni 0.95205(4) 0.63353(2) 0.74368(4)
Ni5_6 Ni 0.71461(4) 0.69981(2) 0.58966(4)
Ni8_6 Ni 0.64852(4) 0.61510(2) 0.42627(4)
O11_6 O 0.97598(26) 0.58250(15) 0.6675(2)
O10_7 O 0.0206(6) 0.9056(5) 0.0139(9)
C12_7 C 0.0246(7) 0.8671(5) 0.0790(9)
H13_7 H 0.006119 0.868238 0.142524
H14_7 H 0.067311 0.881199 0.091996
O1_7 O 0.01016(15) 0.63989(14) 0.8487(2)
O4_7 O 0.02769(15) 0.41803(15) 0.8389(2)
C1_7 C 0.01681(19) 0.59727(18) 0.8819(3)
C3_7 C 0.0073(2) 0.54805(19) 0.8135(3)
C4_7 C 0.0186(2) 0.50368(19) 0.8511(3)
H1_7 H 0.029672 0.505985 0.918751
C5_7 C 0.0146(2) 0.45671(19) 0.7945(3)
O9_7 O 0.0206(2) 0.79453(19) 0.9619(3)
H9_7 H 0.021624 0.816518 0.915177
O14_7 O 0.07378(14) 0.76877(21) 0.7975(2)
H10_7 H 0.984636 0.895687 0.006210
C11_7 C 0.9962(4) 0.8055(4) 0.0450(6)
H11_7 H 0.997234 0.780582 0.099844
H12_7 H 0.953733 0.791862 0.030996
O5_7 O 0.97168(16) 0.40712(14) 0.5359(2)
O6_7 O 0.99463(15) 0.36297(14) 0.6547(2)
C2_7 C 0.9898(2) 0.54449(19) 0.7126(3)
C6_7 C 0.9971(2) 0.4540(2) 0.6937(3)
C7_7 C 0.9859(2) 0.49800(19) 0.6559(3)
H2_7 H 0.975270 0.495852 0.588054
C8_7 C 0.98729(19) 0.40495(19) 0.6232(3)
O7_7 O 0.88209(18) 0.56171(18) 0.8142(3)
H3_7 H 0.886709 0.596092 0.808372
O8_7 O 0.8624(4) 0.4998(5) 0.6175(8)
H4_7 H 0.898999 0.521122 0.629939
C9_7 C 0.8277(5) 0.5208(5) 0.7769(7)
H5_7 H 0.811179 0.542119 0.739469
H6_7 H 0.800382 0.499907 0.832810
C10_7 C 0.8291(8) 0.4757(6) 0.7111(10)
H7_7 H 0.787548 0.445110 0.694778
H8_7 H 0.847255 0.455585 0.747698
O13_7 O 0.94300(21) 0.69436(15) 0.8278(2)
O10_8 O 0.0944(5) 0.1151(8) 0.0139(9)
H10_8 H 0.104313 0.088950 0.006210
C11_8 C 0.1945(4) 0.1908(6) 0.0450(6)
H11_8 H 0.219418 0.216653 0.099844
H12_8 H 0.208138 0.161872 0.030996
C12_8 C 0.1329(5) 0.1576(9) 0.0790(9)
H13_8 H 0.131762 0.137882 0.142524
H14_8 H 0.118801 0.186113 0.091996
O1_8 O 0.36011(14) 0.37028(21) 0.8487(2)
O4_8 O 0.58197(15) 0.60967(21) 0.8389(2)
O5_8 O 0.59288(14) 0.56457(21) 0.5359(2)
O6_8 O 0.63703(14) 0.63167(21) 0.6547(2)
C1_8 C 0.40273(18) 0.41955(26) 0.8819(3)
C2_8 C 0.45551(19) 0.44535(28) 0.7126(3)
C3_8 C 0.45195(19) 0.45929(28) 0.8135(3)
C4_8 C 0.49632(19) 0.51496(28) 0.8511(3)
H1_8 H 0.494015 0.523688 0.918751
C5_8 C 0.54329(19) 0.55793(28) 0.7945(3)
C6_8 C 0.5460(2) 0.5432(3) 0.6937(3)
C7_8 C 0.50200(19) 0.48794(28) 0.6559(3)
H2_8 H 0.504148 0.479419 0.588054
C8_8 C 0.59505(19) 0.58235(27) 0.6232(3)
O7_8 O 0.43829(18) 0.32039(25) 0.8142(3)
H3_8 H 0.403908 0.290618 0.808372
O8_8 O 0.5002(5) 0.3627(6) 0.6175(8)
H4_8 H 0.478878 0.377878 0.629939
C9_8 C 0.4792(5) 0.3070(7) 0.7769(7)
H5_8 H 0.457881 0.269061 0.739469
H6_8 H 0.500093 0.300476 0.832810
C10_8 C 0.5243(6) 0.3535(10) 0.7111(10)
H7_8 H 0.554890 0.342439 0.694778
H8_8 H 0.544415 0.391671 0.747698
O9_8 O 0.20547(19) 0.22611(28) 0.9619(3)
H9_8 H 0.183482 0.205107 0.915177
O13_8 O 0.30564(15) 0.24864(26) 0.8278(2)
O14_8 O 0.23123(21) 0.30502(25) 0.7975(2)
H10_9 H 0.911050 0.015364 0.006210
C11_9 C 0.8092(6) 0.0038(4) 0.0450(6)
H11_9 H 0.783347 0.002766 0.099844
H12_9 H 0.838128 0.046267 0.030996
O5_9 O 0.43543(21) 0.02832(16) 0.5359(2)
O6_9 O 0.36833(21) 0.00537(15) 0.6547(2)
C2_9 C 0.55465(28) 0.0102(2) 0.7126(3)
C6_9 C 0.4568(3) 0.0029(2) 0.6937(3)
C7_9 C 0.51206(28) 0.0141(2) 0.6559(3)
H2_9 H 0.520581 0.024730 0.588054
C8_9 C 0.41765(27) 0.01271(19) 0.6232(3)
O7_9 O 0.67961(25) 0.11791(18) 0.8142(3)
H3_9 H 0.709382 0.113291 0.808372
O8_9 O 0.6373(6) 0.1376(4) 0.6175(8)
H4_9 H 0.622122 0.101001 0.629939
C9_9 C 0.6930(7) 0.1723(5) 0.7769(7)
H5_9 H 0.730939 0.188821 0.739469
H6_9 H 0.699524 0.199618 0.832810
C10_9 C 0.6465(10) 0.1709(8) 0.7111(10)
H7_9 H 0.657561 0.212452 0.694778
H8_9 H 0.608329 0.152745 0.747698
O13_9 O 0.75136(26) 0.05700(21) 0.8278(2)
O10_9 O 0.8849(8) 0.9794(6) 0.0139(9)
C12_9 C 0.8424(9) 0.9754(7) 0.0790(9)
H13_9 H 0.862118 0.993881 0.142524
H14_9 H 0.813887 0.932689 0.091996
O1_9 O 0.62972(21) 0.98984(15) 0.8487(2)
O4_9 O 0.39033(21) 0.97231(15) 0.8389(2)
C1_9 C 0.58045(26) 0.98319(19) 0.8819(3)
C3_9 C 0.54071(28) 0.9927(2) 0.8135(3)
C4_9 C 0.48504(28) 0.9814(2) 0.8511(3)
H1_9 H 0.476312 0.970328 0.918751
C5_9 C 0.44207(28) 0.9854(2) 0.7945(3)
O9_9 O 0.77389(28) 0.9794(2) 0.9619(3)
H9_9 H 0.794893 0.978376 0.915177
O14_9 O 0.69498(25) 0.92622(14) 0.7975(2)
C7_10 C 0.3474(2) 0.16867(19) 0.0108(3)
H2_10 H 0.358063 0.170815 0.078613
C8_10 C 0.34604(19) 0.26172(19) 0.0435(3)
O8_10 O 0.4709(4) 0.1669(5) 0.0492(8)
H4_10 H 0.434334 0.145545 0.036728
O12_4 O 0.43598(21) 0.03188(15) 0.0296(2)
O1_10 O 0.32317(15) 0.02678(14) 0.8180(2)
O2_4 O 0.35735(15) 0.08417(15) 0.9992(2)
O3_7 O 0.30145(15) 0.07076(15) 0.6963(2)
C1_10 C 0.31652(19) 0.06940(18) 0.7848(3)
C2_10 C 0.3435(2) 0.12218(19) 0.9541(3)
C3_10 C 0.3260(2) 0.11862(19) 0.8532(3)
C4_10 C 0.3147(2) 0.16299(19) 0.8156(3)
H1_10 H 0.303661 0.160682 0.747916
C5_10 C 0.3187(2) 0.20996(19) 0.8722(3)
C6_10 C 0.3362(2) 0.2127(2) 0.9730(3)
O7_10 O 0.45124(18) 0.10496(18) 0.8525(3)
H3_10 H 0.446624 0.070575 0.858295
C9_10 C 0.5056(5) 0.1459(5) 0.8898(7)
H5_10 H 0.522154 0.124548 0.927198
H6_10 H 0.532951 0.166760 0.833857
C10_10 C 0.5042(8) 0.1910(6) 0.9556(10)
H7_10 H 0.545785 0.221557 0.971889
H8_10 H 0.486078 0.211082 0.918969
O9_10 O 0.3127(2) 0.87214(19) 0.7048(3)
H9_10 H 0.311709 0.850149 0.751490
O10_10 O 0.3127(6) 0.7611(5) 0.6528(9)
H10_10 H 0.348697 0.770980 0.660457
C11_10 C 0.3371(4) 0.8612(4) 0.6217(6)
H11_10 H 0.336099 0.886085 0.566823
H12_10 H 0.379600 0.874805 0.635671
C12_10 C 0.3087(7) 0.7996(5) 0.5877(9)
H13_10 H 0.327214 0.798429 0.524143
H14_10 H 0.266022 0.785468 0.574671
O11_7 O 0.24916(15) 0.93985(21) 0.6659(2)
O9_11 O 0.12786(19) 0.44056(28) 0.7048(3)
H9_11 H 0.149851 0.461560 0.751490
O10_11 O 0.2389(5) 0.5516(8) 0.6528(9)
H10_11 H 0.229020 0.577717 0.660457
C11_11 C 0.1388(4) 0.4759(6) 0.6217(6)
H11_11 H 0.113915 0.450014 0.566823
H12_11 H 0.125195 0.504795 0.635671
C12_11 C 0.2004(5) 0.5091(9) 0.5877(9)
H13_11 H 0.201571 0.528785 0.524143
H14_11 H 0.214532 0.480554 0.574671
O11_8 O 0.06015(21) 0.30932(26) 0.6659(2)
C7_11 C 0.83133(19) 0.17873(28) 0.0108(3)
H2_11 H 0.829185 0.187248 0.078613
C8_11 C 0.73828(19) 0.08432(27) 0.0435(3)
O8_11 O 0.8331(5) 0.3040(6) 0.0492(8)
H4_11 H 0.854455 0.288789 0.036728
O12_5 O 0.96812(15) 0.40409(26) 0.0296(2)
O1_11 O 0.97322(14) 0.29639(21) 0.8180(2)
O2_5 O 0.91583(15) 0.27318(21) 0.9992(2)
O3_8 O 0.92924(15) 0.23069(21) 0.6963(2)
C1_11 C 0.93060(18) 0.24712(26) 0.7848(3)
C2_11 C 0.87782(19) 0.22132(28) 0.9541(3)
C3_11 C 0.88138(19) 0.20738(28) 0.8532(3)
C4_11 C 0.83701(19) 0.15171(28) 0.8156(3)
H1_11 H 0.839318 0.142979 0.747916
C5_11 C 0.79004(19) 0.10874(28) 0.8722(3)
C6_11 C 0.7873(2) 0.1235(3) 0.9730(3)
O7_11 O 0.89504(18) 0.34628(25) 0.8525(3)
H3_11 H 0.929425 0.376049 0.858295
C9_11 C 0.8541(5) 0.3597(7) 0.8898(7)
H5_11 H 0.875452 0.397606 0.927198
H6_11 H 0.833240 0.366191 0.833857
C10_11 C 0.8090(6) 0.3132(10) 0.9556(10)
H7_11 H 0.778443 0.324228 0.971889
H8_11 H 0.788918 0.274996 0.918969
C7_12 C 0.82127(28) 0.6526(2) 0.0108(3)
H2_12 H 0.812752 0.641937 0.078613
C8_12 C 0.91568(27) 0.65396(19) 0.0435(3)
O8_12 O 0.6960(6) 0.5291(4) 0.0492(8)
H4_12 H 0.711211 0.565666 0.036728
O12_6 O 0.59591(26) 0.56402(21) 0.0296(2)
O1_12 O 0.70361(21) 0.67683(15) 0.8180(2)
O2_6 O 0.72682(21) 0.64265(15) 0.9992(2)
O3_9 O 0.76931(21) 0.69855(15) 0.6963(2)
C1_12 C 0.75288(26) 0.68348(19) 0.7848(3)
C2_12 C 0.77868(28) 0.6565(2) 0.9541(3)
C3_12 C 0.79262(28) 0.6740(2) 0.8532(3)
C4_12 C 0.84829(28) 0.6853(2) 0.8156(3)
H1_12 H 0.857021 0.696339 0.747916
C5_12 C 0.89126(28) 0.6813(2) 0.8722(3)
C6_12 C 0.8765(3) 0.6638(2) 0.9730(3)
O7_12 O 0.65372(25) 0.54876(18) 0.8525(3)
H3_12 H 0.623951 0.553376 0.858295
C9_12 C 0.6403(7) 0.4944(5) 0.8898(7)
H5_12 H 0.602394 0.477846 0.927198
H6_12 H 0.633809 0.467049 0.833857
C10_12 C 0.6868(10) 0.4958(8) 0.9556(10)
H7_12 H 0.675772 0.454215 0.971889
H8_12 H 0.725004 0.513922 0.918969
O9_12 O 0.55944(28) 0.6873(2) 0.7048(3)
H9_12 H 0.538440 0.688291 0.751490
O10_12 O 0.4484(8) 0.6873(6) 0.6528(9)
H10_12 H 0.422283 0.651303 0.660457
C11_12 C 0.5241(6) 0.6629(4) 0.6217(6)
H11_12 H 0.549986 0.663901 0.566823
H12_12 H 0.495205 0.620400 0.635671
C12_12 C 0.4909(9) 0.6913(7) 0.5877(9)
H13_12 H 0.471215 0.672786 0.524143
H14_12 H 0.519446 0.733978 0.574671
O11_9 O 0.69068(26) 0.75084(15) 0.6659(2)
O1_13 O 0.65650(15) 0.69345(14) 0.4847(2)
O3_10 O 0.63478(15) 0.73743(15) 0.3630(2)
C1_13 C 0.64985(19) 0.73607(18) 0.4515(3)
C2_13 C 0.6768(2) 0.78885(19) 0.6208(3)
C3_13 C 0.6593(2) 0.78529(19) 0.5199(3)
C4_13 C 0.6480(2) 0.82966(19) 0.4823(3)
H1_13 H 0.636994 0.827349 0.414583
C5_13 C 0.6520(2) 0.87663(19) 0.5389(3)
C6_13 C 0.6695(2) 0.8794(2) 0.6397(3)
C7_13 C 0.6807(2) 0.83534(19) 0.6775(3)
H2_13 H 0.691396 0.837482 0.745280
C8_13 C 0.67937(19) 0.92839(19) 0.7102(3)
O7_13 O 0.78457(18) 0.77163(18) 0.5192(3)
H3_13 H 0.779957 0.737242 0.524962
O8_13 O 0.8042(4) 0.8336(5) 0.7159(8)
H4_13 H 0.767667 0.812212 0.703395
C9_13 C 0.8389(5) 0.8126(5) 0.5565(7)
H5_13 H 0.855487 0.791215 0.593865
H6_13 H 0.866284 0.833427 0.500524
C10_13 C 0.8375(8) 0.8577(6) 0.6223(10)
H7_13 H 0.879118 0.888224 0.638556
H8_13 H 0.819411 0.877749 0.585636
O9_13 O 0.6460(2) 0.53881(19) 0.3715(3)
H9_13 H 0.645042 0.516816 0.418157
O10_13 O 0.6460(6) 0.4278(5) 0.3195(9)
H10_13 H 0.682030 0.437647 0.327124
C11_13 C 0.6704(4) 0.5279(4) 0.2884(6)
H11_13 H 0.669432 0.552752 0.233490
H12_13 H 0.712933 0.541472 0.302338
C12_13 C 0.6420(7) 0.4663(5) 0.2544(9)
H13_13 H 0.660547 0.465096 0.190810
H14_13 H 0.599355 0.452135 0.241338
O11_10 O 0.58250(15) 0.60651(21) 0.3325(2)
O7_14 O 0.22837(18) 0.01295(25) 0.5192(3)
H3_14 H 0.262758 0.042716 0.524962
C9_14 C 0.1874(5) 0.0264(7) 0.5565(7)
H5_14 H 0.208785 0.064273 0.593865
H6_14 H 0.166573 0.032858 0.500524
O9_14 O 0.46119(19) 0.10723(28) 0.3715(3)
H9_14 H 0.483184 0.128227 0.418157
O10_14 O 0.5722(5) 0.2183(8) 0.3195(9)
H10_14 H 0.562353 0.244384 0.327124
C11_14 C 0.4721(4) 0.1426(6) 0.2884(6)
H11_14 H 0.447248 0.116681 0.233490
H12_14 H 0.458528 0.171462 0.302338
C12_14 C 0.5337(5) 0.1758(9) 0.2544(9)
H13_14 H 0.534904 0.195452 0.190810
H14_14 H 0.547865 0.147221 0.241338
O1_14 O 0.30655(14) 0.96306(21) 0.4847(2)
O3_11 O 0.26257(15) 0.89736(21) 0.3630(2)
C1_14 C 0.26393(18) 0.91379(26) 0.4515(3)
C2_14 C 0.21115(19) 0.88799(28) 0.6208(3)
C3_14 C 0.21471(19) 0.87405(28) 0.5199(3)
C4_14 C 0.17034(19) 0.81838(28) 0.4823(3)
H1_14 H 0.172651 0.809646 0.414583
C5_14 C 0.12337(19) 0.77541(28) 0.5389(3)
C6_14 C 0.1206(2) 0.7902(3) 0.6397(3)
C7_14 C 0.16466(19) 0.84540(28) 0.6775(3)
H2_14 H 0.162518 0.853915 0.745280
C8_14 C 0.07161(19) 0.75099(27) 0.7102(3)
O8_14 O 0.1664(5) 0.9707(6) 0.7159(8)
H4_14 H 0.187788 0.955456 0.703395
C10_14 C 0.1423(6) 0.9799(10) 0.6223(10)
H7_14 H 0.111776 0.990895 0.638556
H8_14 H 0.122251 0.941663 0.585636
O11_11 O 0.39349(21) 0.97598(26) 0.3325(2)
O1_15 O 0.03694(21) 0.34350(15) 0.4847(2)
O3_12 O 0.10264(21) 0.36522(15) 0.3630(2)
C1_15 C 0.08621(26) 0.35015(19) 0.4515(3)
C2_15 C 0.11201(28) 0.3232(2) 0.6208(3)
C3_15 C 0.12595(28) 0.3407(2) 0.5199(3)
C4_15 C 0.18162(28) 0.3520(2) 0.4823(3)
H1_15 H 0.190354 0.363006 0.414583
C5_15 C 0.22459(28) 0.3480(2) 0.5389(3)
C6_15 C 0.2098(3) 0.3305(2) 0.6397(3)
C7_15 C 0.15460(28) 0.3193(2) 0.6775(3)
H2_15 H 0.146085 0.308604 0.745280
C8_15 C 0.24901(27) 0.32063(19) 0.7102(3)
O8_15 O 0.0293(6) 0.1958(4) 0.7159(8)
H4_15 H 0.044544 0.232333 0.703395
C10_15 C 0.0201(10) 0.1625(8) 0.6223(10)
H7_15 H 0.009105 0.120882 0.638556
H8_15 H 0.058337 0.180589 0.585636
O11_12 O 0.02402(26) 0.41750(15) 0.3325(2)
O7_15 O 0.98705(25) 0.21543(18) 0.5192(3)
H3_15 H 0.957284 0.220043 0.524962
C9_15 C 0.9736(7) 0.1611(5) 0.5565(7)
H5_15 H 0.935727 0.144513 0.593865
H6_15 H 0.967142 0.133716 0.500524
O9_15 O 0.89277(28) 0.3540(2) 0.3715(3)
H9_15 H 0.871773 0.354958 0.418157
O10_15 O 0.7817(8) 0.3540(6) 0.3195(9)
H10_15 H 0.755616 0.317970 0.327124
C11_15 C 0.8574(6) 0.3296(4) 0.2884(6)
H11_15 H 0.883319 0.330568 0.233490
H12_15 H 0.828538 0.287067 0.302338
C12_15 C 0.8242(9) 0.3580(7) 0.2544(9)
H13_15 H 0.804548 0.339453 0.190810
H14_15 H 0.852779 0.400645 0.241338
C2_16 C 0.0102(2) 0.45551(19) 0.2874(3)
C6_16 C 0.0029(2) 0.5460(2) 0.3063(3)
C7_16 C 0.0141(2) 0.50200(19) 0.3441(3)
H2_16 H 0.024730 0.504148 0.411946
C8_16 C 0.01271(19) 0.59505(19) 0.3768(3)
O7_16 O 0.11791(18) 0.43829(18) 0.1858(3)
H3_16 H 0.113291 0.403908 0.191628
O8_16 O 0.1376(4) 0.5002(5) 0.3825(8)
H4_16 H 0.101001 0.478878 0.370061
C9_16 C 0.1723(5) 0.4792(5) 0.2231(7)
H5_16 H 0.188821 0.457881 0.260531
H6_16 H 0.199618 0.500093 0.167190
C10_16 C 0.1709(8) 0.5243(6) 0.2889(10)
H7_16 H 0.212452 0.554890 0.305222
H8_16 H 0.152745 0.544415 0.252302
H10_16 H 0.015364 0.104313 0.993790
C11_16 C 0.0038(4) 0.1945(4) 0.9550(6)
H11_16 H 0.002766 0.219418 0.900156
H12_16 H 0.046267 0.208138 0.969004
O1_16 O 0.98984(15) 0.36011(14) 0.1513(2)
C1_16 C 0.98319(19) 0.40273(18) 0.1181(3)
C3_16 C 0.9927(2) 0.45195(19) 0.1865(3)
C4_16 C 0.9814(2) 0.49632(19) 0.1489(3)
H1_16 H 0.970328 0.494015 0.081249
C5_16 C 0.9854(2) 0.54329(19) 0.2055(3)
O9_16 O 0.9794(2) 0.20547(19) 0.0381(3)
H9_16 H 0.978376 0.183482 0.084823
O10_16 O 0.9794(6) 0.0944(5) 0.9861(9)
C12_16 C 0.9754(7) 0.1329(5) 0.9210(9)
H13_16 H 0.993881 0.131762 0.857476
H14_16 H 0.932689 0.118801 0.908004
O1_17 O 0.63989(14) 0.62972(21) 0.1513(2)
C1_17 C 0.59727(18) 0.58045(26) 0.1181(3)
C2_17 C 0.54449(19) 0.55465(28) 0.2874(3)
C3_17 C 0.54805(19) 0.54071(28) 0.1865(3)
C4_17 C 0.50368(19) 0.48504(28) 0.1489(3)
H1_17 H 0.505985 0.476312 0.081249
C5_17 C 0.45671(19) 0.44207(28) 0.2055(3)
C6_17 C 0.4540(2) 0.4568(3) 0.3063(3)
C7_17 C 0.49800(19) 0.51206(28) 0.3441(3)
H2_17 H 0.495852 0.520581 0.411946
C8_17 C 0.40495(19) 0.41765(27) 0.3768(3)
O7_17 O 0.56171(18) 0.67961(25) 0.1858(3)
H3_17 H 0.596092 0.709382 0.191628
O8_17 O 0.4998(5) 0.6373(6) 0.3825(8)
H4_17 H 0.521122 0.622122 0.370061
C9_17 C 0.5208(5) 0.6930(7) 0.2231(7)
H5_17 H 0.542119 0.730939 0.260531
H6_17 H 0.499907 0.699524 0.167190
C10_17 C 0.4757(6) 0.6465(10) 0.2889(10)
H7_17 H 0.445110 0.657561 0.305222
H8_17 H 0.455585 0.608329 0.252302
O9_17 O 0.79453(19) 0.77389(28) 0.0381(3)
H9_17 H 0.816518 0.794893 0.084823
O10_17 O 0.9056(5) 0.8849(8) 0.9861(9)
H10_17 H 0.895687 0.911050 0.993790
C11_17 C 0.8055(4) 0.8092(6) 0.9550(6)
H11_17 H 0.780582 0.783347 0.900156
H12_17 H 0.791862 0.838128 0.969004
C12_17 C 0.8671(5) 0.8424(9) 0.9210(9)
H13_17 H 0.868238 0.862118 0.857476
H14_17 H 0.881199 0.813887 0.908004
O1_18 O 0.37028(21) 0.01016(15) 0.1513(2)
C1_18 C 0.41955(26) 0.01681(19) 0.1181(3)
C3_18 C 0.45929(28) 0.0073(2) 0.1865(3)
C4_18 C 0.51496(28) 0.0186(2) 0.1489(3)
H1_18 H 0.523688 0.029672 0.081249
C5_18 C 0.55793(28) 0.0146(2) 0.2055(3)
O9_18 O 0.22611(28) 0.0206(2) 0.0381(3)
H9_18 H 0.205107 0.021624 0.084823
O10_18 O 0.1151(8) 0.0206(6) 0.9861(9)
C12_18 C 0.1576(9) 0.0246(7) 0.9210(9)
H13_18 H 0.137882 0.006119 0.857476
H14_18 H 0.186113 0.067311 0.908004
C2_18 C 0.44535(28) 0.9898(2) 0.2874(3)
C6_18 C 0.5432(3) 0.9971(2) 0.3063(3)
C7_18 C 0.48794(28) 0.9859(2) 0.3441(3)
H2_18 H 0.479419 0.975270 0.411946
C8_18 C 0.58235(27) 0.98729(19) 0.3768(3)
O7_18 O 0.32039(25) 0.88209(18) 0.1858(3)
H3_18 H 0.290618 0.886709 0.191628
O8_18 O 0.3627(6) 0.8624(4) 0.3825(8)
H4_18 H 0.377878 0.898999 0.370061
C9_18 C 0.3070(7) 0.8277(5) 0.2231(7)
H5_18 H 0.269061 0.811179 0.260531
H6_18 H 0.300476 0.800382 0.167190
C10_18 C 0.3535(10) 0.8291(8) 0.2889(10)
H7_18 H 0.342439 0.787548 0.305222
H8_18 H 0.391671 0.847255 0.252302
H10_18 H 0.088950 0.984636 0.993790
C11_18 C 0.1908(6) 0.9962(4) 0.9550(6)
H11_18 H 0.216653 0.997234 0.900156
H12_18 H 0.161872 0.953733 0.969004
loop_
_geom_bond_atom_site_label_1
_geom_bond_atom_site_label_2
_geom_bond_site_symmetry_1
_geom_bond_site_symmetry_2
O9 Ni2 1_555 1_555
H9 O9 1_555 1_555
O10 H10 1_555 1_555
C11 O9 1_555 1_555
H11 C11 1_555 1_555
H12 C11 1_555 1_555
C12 O10 1_555 1_555
H13 C12 1_555 1_555
H14 C12 1_555 1_555
O11 Ni2 1_555 1_555
O14 Ni2 1_555 1_555
Ni2 O13 1_555 1_555
C11 C12 1_555 1_555
Ni1 O1 1_555 1_555
O1 C1 1_555 1_555
O2 Ni1 1_555 1_555
O3 C1 1_555 1_555
O4 C5 1_555 1_555
C1 C3 1_555 1_555
C2 O2 1_555 1_555
C3 C2 1_555 1_555
C4 C3 1_555 1_555
H1 C4 1_555 1_555
C5 C4 1_555 1_555
C6 C5 1_555 1_555
O7 Ni1 1_555 1_555
H3 O7 1_555 1_555
C9 O7 1_555 1_555
H5 C9 1_555 1_555
H6 C9 1_555 1_555
H7 C10 1_555 1_555
H8 C10 1_555 1_555
Ni3 O3 1_555 1_555
Ni5 O4 1_555 1_555
Ni8 O4 1_555 1_555
C9 C10 1_555 1_555
Ni3 O16 1_555 1_555
O5 C8 1_555 1_555
O6 C8 1_555 1_555
H2 C7 1_555 1_555
O8 H4 1_555 1_555
Ni4 O6 1_555 1_555
Ni7 O5 1_555 1_555
Ni1_2 O1_2 1_555 1_555
O1_2 C1_2 1_555 1_555
O2_2 Ni1_2 1_555 1_555
O3_2 C1_2 1_555 1_555
O4_2 C5_2 1_555 1_555
C1_2 C3_2 1_555 1_555
C2_2 O2_2 1_555 1_555
C3_2 C2_2 1_555 1_555
C4_2 C3_2 1_555 1_555
H1_2 C4_2 1_555 1_555
C5_2 C4_2 1_555 1_555
C6_2 C5_2 1_555 1_555
O7_2 Ni1_2 1_555 1_555
H3_2 O7_2 1_555 1_555
C9_2 O7_2 1_555 1_555
H5_2 C9_2 1_555 1_555
H6_2 C9_2 1_555 1_555
H7_2 C10_2 1_555 1_555
H8_2 C10_2 1_555 1_555
Ni3_2 O3_2 1_555 1_555
Ni5_2 O4_2 1_555 1_555
C9_2 C10_2 1_555 1_555
Ni3_2 O16_2 1_555 1_555
O5_2 C8_2 1_555 1_555
O6_2 C8_2 1_555 1_555
H2_2 C7_2 1_555 1_555
O8_2 H4_2 1_555 1_555
Ni7_2 O5_2 1_555 1_555
O9_2 Ni2_2 1_555 1_555
H9_2 O9_2 1_555 1_555
O10_2 H10_2 1_555 1_555
C11_2 O9_2 1_555 1_555
H11_2 C11_2 1_555 1_555
H12_2 C11_2 1_555 1_555
C12_2 O10_2 1_555 1_555
H13_2 C12_2 1_555 1_555
H14_2 C12_2 1_555 1_555
O11_2 Ni2_2 1_555 1_555
O14_2 Ni2_2 1_555 1_555
Ni2_2 O13_2 1_555 1_555
C11_2 C12_2 1_555 1_555
Ni1_3 O1_3 1_555 1_555
Ni2_3 O1_3 1_555 1_555
O1_3 C1_3 1_555 1_555
O2_3 Ni1_3 1_555 1_555
O3_3 C1_3 1_555 1_555
O4_3 C5_3 1_555 1_555
C1_3 C3_3 1_555 1_555
C2_3 O2_3 1_555 1_555
C3_3 C2_3 1_555 1_555
C4_3 C3_3 1_555 1_555
H1_3 C4_3 1_555 1_555
C5_3 C4_3 1_555 1_555
C6_3 C5_3 1_555 1_555
O7_3 Ni1_3 1_555 1_555
H3_3 O7_3 1_555 1_555
C9_3 O7_3 1_555 1_555
H5_3 C9_3 1_555 1_555
H6_3 C9_3 1_555 1_555
H7_3 C10_3 1_555 1_555
H8_3 C10_3 1_555 1_555
O9_3 Ni2_3 1_555 1_555
H9_3 O9_3 1_555 1_555
O10_3 H10_3 1_555 1_555
C11_3 O9_3 1_555 1_555
H11_3 C11_3 1_555 1_555
H12_3 C11_3 1_555 1_555
C12_3 O10_3 1_555 1_555
H13_3 C12_3 1_555 1_555
H14_3 C12_3 1_555 1_555
Ni3_3 O3_3 1_555 1_555
Ni5_3 O4_3 1_555 1_555
O11_3 Ni2_3 1_555 1_555
O13_3 Ni1_3 1_555 1_555
O14_3 Ni2_3 1_555 1_555
O15_3 Ni1_3 1_555 1_555
O16_3 Ni2_3 1_555 1_555
Ni2_3 O13_3 1_555 1_555
C9_3 C10_3 1_555 1_555
C11_3 C12_3 1_555 1_555
Ni3_3 O11_3 1_555 1_555
Ni3_3 O16_3 1_555 1_555
O5_3 C8_3 1_555 1_555
O6_3 C8_3 1_555 1_555
H2_3 C7_3 1_555 1_555
O8_3 H4_3 1_555 1_555
Ni7_3 O5_3 1_555 1_555
Ni3_3 O1_4 1_555 1_555
Ni2_4 O1_4 1_555 1_555
O1_4 C1_4 1_555 1_555
O3_4 C1_4 1_555 1_555
O4_4 C5_4 1_555 1_555
O5_4 C8_4 1_555 1_555
O6_4 C8_4 1_555 1_555
C1_4 C3_4 1_555 1_555
C2_4 O11_3 1_555 1_555
C3_4 C2_4 1_555 1_555
C4_4 C3_4 1_555 1_555
H1_4 C4_4 1_555 1_555
C5_4 C4_4 1_555 1_555
C6_4 C5_4 1_555 1_555
C7_4 C2_4 1_555 1_555
H2_4 C7_4 1_555 1_555
C8_4 C6_4 1_555 1_555
O7_4 Ni3_3 1_555 1_555
H3_4 O7_4 1_555 1_555
O8_4 H4_4 1_555 1_555
C9_4 O7_4 1_555 1_555
H5_4 C9_4 1_555 1_555
H6_4 C9_4 1_555 1_555
C10_4 O8_4 1_555 1_555
H7_4 C10_4 1_555 1_555
H8_4 C10_4 1_555 1_555
O9_4 Ni2_4 1_555 1_555
H9_4 O9_4 1_555 1_555
O10_4 H10_4 1_555 1_555
C11_4 O9_4 1_555 1_555
H11_4 C11_4 1_555 1_555
H12_4 C11_4 1_555 1_555
C12_4 O10_4 1_555 1_555
H13_4 C12_4 1_555 1_555
H14_4 C12_4 1_555 1_555
Ni3_4 O3_4 1_555 1_555
Ni5_4 O4_4 1_555 1_555
Ni8_2 O5_4 1_555 1_555
Ni8_4 O4_4 1_555 1_555
O11_4 Ni2_4 1_555 1_555
O13_4 Ni3_3 1_555 1_555
O14_4 Ni2_4 1_555 1_555
O16_4 Ni2_4 1_555 1_555
Ni2_4 O13_4 1_555 1_555
O6_4 Ni8_4 1_555 1_555
C6_4 C7_4 1_555 1_555
C9_4 C10_4 1_555 1_555
C11_4 C12_4 1_555 1_555
Ni3_4 O11_4 1_555 1_555
Ni3_4 O16_4 1_555 1_555
O1_5 C1_5 1_555 1_555
O3_5 C1_5 1_555 1_555
O4_5 C5_5 1_555 1_555
O5_5 C8_5 1_555 1_555
O6_5 C8_5 1_555 1_555
C1_5 C3_5 1_555 1_555
C2_5 O11 1_555 1_555
C3_5 C2_5 1_555 1_555
C4_5 C3_5 1_555 1_555
H1_5 C4_5 1_555 1_555
C5_5 C4_5 1_555 1_555
C6_5 C5_5 1_555 1_555
C7_5 C2_5 1_555 1_555
H2_5 C7_5 1_555 1_555
C8_5 C6_5 1_555 1_555
O8_5 H4_5 1_555 1_555
C10_5 O8_5 1_555 1_555
H7_5 C10_5 1_555 1_555
H8_5 C10_5 1_555 1_555
Ni3_5 O3_5 1_555 1_555
Ni5_5 O4_5 1_555 1_555
Ni8_3 O5_5 1_555 1_555
Ni8_5 O4_5 1_555 1_555
O6_5 Ni8_5 1_555 1_555
C6_5 C7_5 1_555 1_555
Ni3_5 O11_5 1_555 1_555
O7_5 Ni3 1_555 1_555
H3_5 O7_5 1_555 1_555
C9_5 O7_5 1_555 1_555
H5_5 C9_5 1_555 1_555
H6_5 C9_5 1_555 1_555
O9_5 Ni2_5 1_555 1_555
H9_5 O9_5 1_555 1_555
O10_5 H10_5 1_555 1_555
C11_5 O9_5 1_555 1_555
H11_5 C11_5 1_555 1_555
H12_5 C11_5 1_555 1_555
C12_5 O10_5 1_555 1_555
H13_5 C12_5 1_555 1_555
H14_5 C12_5 1_555 1_555
O13_5 Ni3 1_555 1_555
O14_5 Ni2_5 1_555 1_555
O16_5 Ni2_5 1_555 1_555
Ni2_5 O13_5 1_555 1_555
C11_5 C12_5 1_555 1_555
O7_6 Ni3_2 1_555 1_555
H3_6 O7_6 1_555 1_555
C9_6 O7_6 1_555 1_555
H5_6 C9_6 1_555 1_555
H6_6 C9_6 1_555 1_555
O9_6 Ni2_6 1_555 1_555
H9_6 O9_6 1_555 1_555
O10_6 H10_6 1_555 1_555
C11_6 O9_6 1_555 1_555
H11_6 C11_6 1_555 1_555
H12_6 C11_6 1_555 1_555
C12_6 O10_6 1_555 1_555
H13_6 C12_6 1_555 1_555
H14_6 C12_6 1_555 1_555
O13_6 Ni3_2 1_555 1_555
O14_6 Ni2_6 1_555 1_555
O16_6 Ni2_6 1_555 1_555
Ni2_6 O13_6 1_555 1_555
C11_6 C12_6 1_555 1_555
O1_6 C1_6 1_555 1_555
O3_6 C1_6 1_555 1_555
O4_6 C5_6 1_555 1_555
O5_6 C8_6 1_555 1_555
O6_6 C8_6 1_555 1_555
C1_6 C3_6 1_555 1_555
C2_6 O11_2 1_555 1_555
C3_6 C2_6 1_555 1_555
C4_6 C3_6 1_555 1_555
H1_6 C4_6 1_555 1_555
C5_6 C4_6 1_555 1_555
C6_6 C5_6 1_555 1_555
C7_6 C2_6 1_555 1_555
H2_6 C7_6 1_555 1_555
C8_6 C6_6 1_555 1_555
O8_6 H4_6 1_555 1_555
C10_6 O8_6 1_555 1_555
H7_6 C10_6 1_555 1_555
H8_6 C10_6 1_555 1_555
Ni3_6 O3_6 1_555 1_555
Ni5 O6_6 1_555 1_555
Ni5_6 O4_6 1_555 1_555
Ni8 O5_6 1_555 1_555
Ni8_6 O4_6 1_555 1_555
O6_6 Ni8_6 1_555 1_555
C6_6 C7_6 1_555 1_555
Ni3_6 O11_6 1_555 1_555
C12_7 O10_7 1_555 1_555
H13_7 C12_7 1_555 1_555
H14_7 C12_7 1_555 1_555
Ni6_2 O1_7 1_555 1_555
O1_7 C1_7 1_555 1_555
O12_2 C1_7 1_555 1_555
O4_7 C5_7 1_555 1_555
C1_7 C3_7 1_555 1_555
C4_7 C3_7 1_555 1_555
H1_7 C4_7 1_555 1_555
C5_7 C4_7 1_555 1_555
O9_7 Ni6_2 1_555 1_555
H9_7 O9_7 1_555 1_555
Ni7_3 O4_7 1_555 1_555
O14_7 Ni6_2 1_555 1_555
H11_7 C11_7 1_555 1_555
H12_7 C11_7 1_555 1_555
O5_7 C8_7 1_555 1_555
O6_7 C8_7 1_555 1_555
C2_7 O11_6 1_555 1_555
C7_7 C2_7 1_555 1_555
H2_7 C7_7 1_555 1_555
C8_7 C6_7 1_555 1_555
O7_7 Ni3_6 1_555 1_555
H3_7 O7_7 1_555 1_555
O8_7 H4_7 1_555 1_555
C9_7 O7_7 1_555 1_555
H5_7 C9_7 1_555 1_555
H6_7 C9_7 1_555 1_555
C10_7 O8_7 1_555 1_555
H7_7 C10_7 1_555 1_555
H8_7 C10_7 1_555 1_555
Ni5_5 O6_7 1_555 1_555
Ni8_5 O5_7 1_555 1_555
O13_7 Ni3_6 1_555 1_555
C6_7 C7_7 1_555 1_555
C9_7 C10_7 1_555 1_555
O10_8 H10_8 1_555 1_555
H11_8 C11_8 1_555 1_555
H12_8 C11_8 1_555 1_555
C12_8 O10_8 1_555 1_555
H13_8 C12_8 1_555 1_555
H14_8 C12_8 1_555 1_555
C11_8 C12_8 1_555 1_555
Ni3_4 O1_8 1_555 1_555
Ni6_3 O1_8 1_555 1_555
O1_8 C1_8 1_555 1_555
O12_3 C1_8 1_555 1_555
O4_8 C5_8 1_555 1_555
O5_8 C8_8 1_555 1_555
O6_8 C8_8 1_555 1_555
C1_8 C3_8 1_555 1_555
C2_8 O11_4 1_555 1_555
C3_8 C2_8 1_555 1_555
C4_8 C3_8 1_555 1_555
H1_8 C4_8 1_555 1_555
C5_8 C4_8 1_555 1_555
C6_8 C5_8 1_555 1_555
C7_8 C2_8 1_555 1_555
H2_8 C7_8 1_555 1_555
C8_8 C6_8 1_555 1_555
O7_8 Ni3_4 1_555 1_555
H3_8 O7_8 1_555 1_555
O8_8 H4_8 1_555 1_555
C9_8 O7_8 1_555 1_555
H5_8 C9_8 1_555 1_555
H6_8 C9_8 1_555 1_555
C10_8 O8_8 1_555 1_555
H7_8 C10_8 1_555 1_555
H8_8 C10_8 1_555 1_555
O9_8 Ni6_3 1_555 1_555
H9_8 O9_8 1_555 1_555
Ni5_6 O6_8 1_555 1_555
Ni4 O4_8 1_555 1_555
Ni8_6 O5_8 1_555 1_555
Ni7 O4_8 1_555 1_555
O13_8 Ni3_4 1_555 1_555
O14_8 Ni6_3 1_555 1_555
Ni6_3 O13_8 1_555 1_555
O6_8 Ni7 1_555 1_555
C6_8 C7_8 1_555 1_555
C9_8 C10_8 1_555 1_555
H11_9 C11_9 1_555 1_555
H12_9 C11_9 1_555 1_555
O5_9 C8_9 1_555 1_555
O6_9 C8_9 1_555 1_555
C2_9 O11_5 1_555 1_555
C7_9 C2_9 1_555 1_555
H2_9 C7_9 1_555 1_555
C8_9 C6_9 1_555 1_555
O7_9 Ni3_5 1_555 1_555
H3_9 O7_9 1_555 1_555
O8_9 H4_9 1_555 1_555
C9_9 O7_9 1_555 1_555
H5_9 C9_9 1_555 1_555
H6_9 C9_9 1_555 1_555
C10_9 O8_9 1_555 1_555
H7_9 C10_9 1_555 1_555
H8_9 C10_9 1_555 1_555
Ni5_4 O6_9 1_555 1_555
Ni8_4 O5_9 1_555 1_555
O13_9 Ni3_5 1_555 1_555
C6_9 C7_9 1_555 1_555
C9_9 C10_9 1_555 1_555
C12_9 O10_9 1_555 1_555
H13_9 C12_9 1_555 1_555
H14_9 C12_9 1_555 1_555
Ni6 O1_9 1_555 1_555
O1_9 C1_9 1_555 1_555
O12 C1_9 1_555 1_555
O4_9 C5_9 1_555 1_555
C1_9 C3_9 1_555 1_555
C4_9 C3_9 1_555 1_555
H1_9 C4_9 1_555 1_555
C5_9 C4_9 1_555 1_555
O9_9 Ni6 1_555 1_555
H9_9 O9_9 1_555 1_555
Ni7_2 O4_9 1_555 1_555
O14_9 Ni6 1_555 1_555
O14_3 C8_10 1_555 1_555
O15_3 C8_10 1_555 1_555
H2_10 C7_10 1_555 1_555
O8_10 H4_10 1_555 1_555
Ni4_2 O1_10 1_555 1_555
O1_10 C1_10 1_555 1_555
O2_4 Ni4_2 1_555 1_555
O3_7 C1_10 1_555 1_555
O13_8 C5_10 1_555 1_555
C1_10 C3_10 1_555 1_555
C2_10 O2_4 1_555 1_555
C3_10 C2_10 1_555 1_555
C4_10 C3_10 1_555 1_555
H1_10 C4_10 1_555 1_555
C5_10 C4_10 1_555 1_555
C6_10 C5_10 1_555 1_555
O7_10 Ni4_2 1_555 1_555
H3_10 O7_10 1_555 1_555
C9_10 O7_10 1_555 1_555
H5_10 C9_10 1_555 1_555
H6_10 C9_10 1_555 1_555
H7_10 C10_10 1_555 1_555
H8_10 C10_10 1_555 1_555
Ni5_4 O3_7 1_555 1_555
C9_10 C10_10 1_555 1_555
O9_10 Ni7_2 1_555 1_555
H9_10 O9_10 1_555 1_555
O10_10 H10_10 1_555 1_555
C11_10 O9_10 1_555 1_555
H11_10 C11_10 1_555 1_555
H12_10 C11_10 1_555 1_555
C12_10 O10_10 1_555 1_555
H13_10 C12_10 1_555 1_555
H14_10 C12_10 1_555 1_555
O11_7 Ni7_2 1_555 1_555
C11_10 C12_10 1_555 1_555
O9_11 Ni7_3 1_555 1_555
H9_11 O9_11 1_555 1_555
O10_11 H10_11 1_555 1_555
C11_11 O9_11 1_555 1_555
H11_11 C11_11 1_555 1_555
H12_11 C11_11 1_555 1_555
C12_11 O10_11 1_555 1_555
H13_11 C12_11 1_555 1_555
H14_11 C12_11 1_555 1_555
O11_8 Ni7_3 1_555 1_555
C11_11 C12_11 1_555 1_555
O14 C8_11 1_555 1_555
O15 C8_11 1_555 1_555
H2_11 C7_11 1_555 1_555
O8_11 H4_11 1_555 1_555
Ni4_3 O1_11 1_555 1_555
O1_11 C1_11 1_555 1_555
O2_5 Ni4_3 1_555 1_555
O3_8 C1_11 1_555 1_555
O13_9 C5_11 1_555 1_555
C1_11 C3_11 1_555 1_555
C2_11 O2_5 1_555 1_555
C3_11 C2_11 1_555 1_555
C4_11 C3_11 1_555 1_555
H1_11 C4_11 1_555 1_555
C5_11 C4_11 1_555 1_555
C6_11 C5_11 1_555 1_555
O7_11 Ni4_3 1_555 1_555
H3_11 O7_11 1_555 1_555
C9_11 O7_11 1_555 1_555
H5_11 C9_11 1_555 1_555
H6_11 C9_11 1_555 1_555
H7_11 C10_11 1_555 1_555
H8_11 C10_11 1_555 1_555
Ni5_5 O3_8 1_555 1_555
C9_11 C10_11 1_555 1_555
O14_2 C8_12 1_555 1_555
O15_2 C8_12 1_555 1_555
H2_12 C7_12 1_555 1_555
O8_12 H4_12 1_555 1_555
Ni4 O1_12 1_555 1_555
Ni7 O1_12 1_555 1_555
O1_12 C1_12 1_555 1_555
O2_6 Ni4 1_555 1_555
O3_9 C1_12 1_555 1_555
O13_7 C5_12 1_555 1_555
C1_12 C3_12 1_555 1_555
C2_12 O2_6 1_555 1_555
C3_12 C2_12 1_555 1_555
C4_12 C3_12 1_555 1_555
H1_12 C4_12 1_555 1_555
C5_12 C4_12 1_555 1_555
C6_12 C5_12 1_555 1_555
O7_12 Ni4 1_555 1_555
H3_12 O7_12 1_555 1_555
C9_12 O7_12 1_555 1_555
H5_12 C9_12 1_555 1_555
H6_12 C9_12 1_555 1_555
H7_12 C10_12 1_555 1_555
H8_12 C10_12 1_555 1_555
O9_12 Ni7 1_555 1_555
H9_12 O9_12 1_555 1_555
O10_12 H10_12 1_555 1_555
C11_12 O9_12 1_555 1_555
H11_12 C11_12 1_555 1_555
H12_12 C11_12 1_555 1_555
C12_12 O10_12 1_555 1_555
H13_12 C12_12 1_555 1_555
H14_12 C12_12 1_555 1_555
Ni5_6 O3_9 1_555 1_555
O11_9 Ni7 1_555 1_555
C9_12 C10_12 1_555 1_555
C11_12 C12_12 1_555 1_555
Ni5_6 O11_9 1_555 1_555
Ni5_6 O1_13 1_555 1_555
Ni8_6 O1_13 1_555 1_555
O1_13 C1_13 1_555 1_555
O3_10 C1_13 1_555 1_555
O13_5 C5_13 1_555 1_555
O14_9 C8_13 1_555 1_555
O16_5 C8_13 1_555 1_555
C1_13 C3_13 1_555 1_555
C2_13 O11_9 1_555 1_555
C3_13 C2_13 1_555 1_555
C4_13 C3_13 1_555 1_555
H1_13 C4_13 1_555 1_555
C5_13 C4_13 1_555 1_555
C6_13 C5_13 1_555 1_555
C7_13 C2_13 1_555 1_555
H2_13 C7_13 1_555 1_555
C8_13 C6_13 1_555 1_555
O7_13 Ni5_6 1_555 1_555
H3_13 O7_13 1_555 1_555
O8_13 H4_13 1_555 1_555
C9_13 O7_13 1_555 1_555
H5_13 C9_13 1_555 1_555
H6_13 C9_13 1_555 1_555
C10_13 O8_13 1_555 1_555
H7_13 C10_13 1_555 1_555
H8_13 C10_13 1_555 1_555
O9_13 Ni8_6 1_555 1_555
H9_13 O9_13 1_555 1_555
O10_13 H10_13 1_555 1_555
C11_13 O9_13 1_555 1_555
H11_13 C11_13 1_555 1_555
H12_13 C11_13 1_555 1_555
C12_13 O10_13 1_555 1_555
H13_13 C12_13 1_555 1_555
H14_13 C12_13 1_555 1_555
Ni5 O3_10 1_555 1_555
O11_10 Ni8_6 1_555 1_555
C6_13 C7_13 1_555 1_555
C9_13 C10_13 1_555 1_555
C11_13 C12_13 1_555 1_555
Ni5 O11_10 1_555 1_555
O7_14 Ni5_4 1_555 1_555
H3_14 O7_14 1_555 1_555
C9_14 O7_14 1_555 1_555
H5_14 C9_14 1_555 1_555
H6_14 C9_14 1_555 1_555
O9_14 Ni8_4 1_555 1_555
H9_14 O9_14 1_555 1_555
O10_14 H10_14 1_555 1_555
C11_14 O9_14 1_555 1_555
H11_14 C11_14 1_555 1_555
H12_14 C11_14 1_555 1_555
C12_14 O10_14 1_555 1_555
H13_14 C12_14 1_555 1_555
H14_14 C12_14 1_555 1_555
C11_14 C12_14 1_555 1_555
O1_14 C1_14 1_555 1_555
O3_11 C1_14 1_555 1_555
O13_6 C5_14 1_555 1_555
O14_7 C8_14 1_555 1_555
O16_6 C8_14 1_555 1_555
C1_14 C3_14 1_555 1_555
C2_14 O11_7 1_555 1_555
C3_14 C2_14 1_555 1_555
C4_14 C3_14 1_555 1_555
H1_14 C4_14 1_555 1_555
C5_14 C4_14 1_555 1_555
C6_14 C5_14 1_555 1_555
C7_14 C2_14 1_555 1_555
H2_14 C7_14 1_555 1_555
C8_14 C6_14 1_555 1_555
O8_14 H4_14 1_555 1_555
C10_14 O8_14 1_555 1_555
H7_14 C10_14 1_555 1_555
H8_14 C10_14 1_555 1_555
Ni5_2 O3_11 1_555 1_555
C6_14 C7_14 1_555 1_555
Ni5_2 O11_11 1_555 1_555
O1_15 C1_15 1_555 1_555
O3_12 C1_15 1_555 1_555
O13_4 C5_15 1_555 1_555
O14_8 C8_15 1_555 1_555
O16_4 C8_15 1_555 1_555
C1_15 C3_15 1_555 1_555
C2_15 O11_8 1_555 1_555
C3_15 C2_15 1_555 1_555
C4_15 C3_15 1_555 1_555
H1_15 C4_15 1_555 1_555
C5_15 C4_15 1_555 1_555
C6_15 C5_15 1_555 1_555
C7_15 C2_15 1_555 1_555
H2_15 C7_15 1_555 1_555
C8_15 C6_15 1_555 1_555
O8_15 H4_15 1_555 1_555
C10_15 O8_15 1_555 1_555
H7_15 C10_15 1_555 1_555
H8_15 C10_15 1_555 1_555
Ni5_3 O3_12 1_555 1_555
C6_15 C7_15 1_555 1_555
Ni5_3 O11_12 1_555 1_555
O7_15 Ni5_5 1_555 1_555
H3_15 O7_15 1_555 1_555
C9_15 O7_15 1_555 1_555
H5_15 C9_15 1_555 1_555
H6_15 C9_15 1_555 1_555
O9_15 Ni8_5 1_555 1_555
H9_15 O9_15 1_555 1_555
O10_15 H10_15 1_555 1_555
C11_15 O9_15 1_555 1_555
H11_15 C11_15 1_555 1_555
H12_15 C11_15 1_555 1_555
C12_15 O10_15 1_555 1_555
H13_15 C12_15 1_555 1_555
H14_15 C12_15 1_555 1_555
C11_15 C12_15 1_555 1_555
O14_6 C8_16 1_555 1_555
O16_2 C8_16 1_555 1_555
C2_16 O11_12 1_555 1_555
C7_16 C2_16 1_555 1_555
H2_16 C7_16 1_555 1_555
C8_16 C6_16 1_555 1_555
O7_16 Ni5_3 1_555 1_555
H3_16 O7_16 1_555 1_555
O8_16 H4_16 1_555 1_555
C9_16 O7_16 1_555 1_555
H5_16 C9_16 1_555 1_555
H6_16 C9_16 1_555 1_555
C10_16 O8_16 1_555 1_555
H7_16 C10_16 1_555 1_555
H8_16 C10_16 1_555 1_555
C6_16 C7_16 1_555 1_555
C9_16 C10_16 1_555 1_555
H11_16 C11_16 1_555 1_555
H12_16 C11_16 1_555 1_555
Ni8_3 O1_16 1_555 1_555
O1_16 C1_16 1_555 1_555
O12_5 C1_16 1_555 1_555
O13_2 C5_16 1_555 1_555
C1_16 C3_16 1_555 1_555
C4_16 C3_16 1_555 1_555
H1_16 C4_16 1_555 1_555
C5_16 C4_16 1_555 1_555
O9_16 Ni8_3 1_555 1_555
H9_16 O9_16 1_555 1_555
C12_16 O10_16 1_555 1_555
H13_16 C12_16 1_555 1_555
H14_16 C12_16 1_555 1_555
Ni5 O1_17 1_555 1_555
Ni8 O1_17 1_555 1_555
O1_17 C1_17 1_555 1_555
O12_6 C1_17 1_555 1_555
O13_3 C5_17 1_555 1_555
O14_4 C8_17 1_555 1_555
O16_3 C8_17 1_555 1_555
C1_17 C3_17 1_555 1_555
C2_17 O11_10 1_555 1_555
C3_17 C2_17 1_555 1_555
C4_17 C3_17 1_555 1_555
H1_17 C4_17 1_555 1_555
C5_17 C4_17 1_555 1_555
C6_17 C5_17 1_555 1_555
C7_17 C2_17 1_555 1_555
H2_17 C7_17 1_555 1_555
C8_17 C6_17 1_555 1_555
O7_17 Ni5 1_555 1_555
H3_17 O7_17 1_555 1_555
O8_17 H4_17 1_555 1_555
C9_17 O7_17 1_555 1_555
H5_17 C9_17 1_555 1_555
H6_17 C9_17 1_555 1_555
C10_17 O8_17 1_555 1_555
H7_17 C10_17 1_555 1_555
H8_17 C10_17 1_555 1_555
O9_17 Ni8 1_555 1_555
H9_17 O9_17 1_555 1_555
C6_17 C7_17 1_555 1_555
C9_17 C10_17 1_555 1_555
O10_17 H10_17 1_555 1_555
H11_17 C11_17 1_555 1_555
H12_17 C11_17 1_555 1_555
C12_17 O10_17 1_555 1_555
H13_17 C12_17 1_555 1_555
H14_17 C12_17 1_555 1_555
C11_17 C12_17 1_555 1_555
Ni8_2 O1_18 1_555 1_555
O1_18 C1_18 1_555 1_555
O12_4 C1_18 1_555 1_555
O13 C5_18 1_555 1_555
C1_18 C3_18 1_555 1_555
C4_18 C3_18 1_555 1_555
H1_18 C4_18 1_555 1_555
C5_18 C4_18 1_555 1_555
O9_18 Ni8_2 1_555 1_555
H9_18 O9_18 1_555 1_555
C12_18 O10_18 1_555 1_555
H13_18 C12_18 1_555 1_555
H14_18 C12_18 1_555 1_555
O14_5 C8_18 1_555 1_555
O16 C8_18 1_555 1_555
C2_18 O11_11 1_555 1_555
C7_18 C2_18 1_555 1_555
H2_18 C7_18 1_555 1_555
C8_18 C6_18 1_555 1_555
O7_18 Ni5_2 1_555 1_555
H3_18 O7_18 1_555 1_555
O8_18 H4_18 1_555 1_555
C9_18 O7_18 1_555 1_555
H5_18 C9_18 1_555 1_555
H6_18 C9_18 1_555 1_555
C10_18 O8_18 1_555 1_555
H7_18 C10_18 1_555 1_555
H8_18 C10_18 1_555 1_555
C6_18 C7_18 1_555 1_555
C9_18 C10_18 1_555 1_555
H11_18 C11_18 1_555 1_555
H12_18 C11_18 1_555 1_555

#END
