
###############################################################################
#
# This file contains modified crystal structure data generated from the
# MOF subset of the Cambridge Structural Database (CSD) v543 
# hosted by the Cambridge Crystallographic Data Centre (CCDC).
#
# This work is licensed under the Creative Commons
# Attribution-NonCommercial-ShareAlike 4.0 International License.
# To view a copy of this license, visit
# http://creativecommons.org/licenses/by-nc-sa/4.0/
# or send a letter to
# Creative Commons, PO Box 1866, Mountain View, CA 94042, USA.
#
# CIF created using the CSD Python API on 29 September 2022
# The structure has been converted into the P1 space group
# The structure has a 3D framework
# The original CSD entry ZOMNUM is in the monoclinic crystal system
# The original CSD entry ZOMNUM is in a Sohncke space group
# The framework has been calculated to contain at least 10.0% void space
# The void calculation uses a probe of radius 1.32A, grid spacing 0.4
#
###############################################################################

data_ZOMNUM
_chemical_formula_moiety         '(C28 H36 Cr6 N8 O8 Zn3)n'
_symmetry_cell_setting           triclinic
_symmetry_space_group_name_H-M   'P 1'
_symmetry_Int_Tables_number      1
_space_group_name_Hall           'P 1'
loop_
_symmetry_equiv_pos_site_id
_symmetry_equiv_pos_as_xyz
1 x,y,z
_cell_length_a                   13.85(3)
_cell_length_b                   12.77(2)
_cell_length_c                   6.939(14)
_cell_angle_alpha                90
_cell_angle_beta                 91.45(3)
_cell_angle_gamma                90
_cell_volume                     1226.87
loop_
_atom_site_label
_atom_site_type_symbol
_atom_site_fract_x
_atom_site_fract_y
_atom_site_fract_z
N5 N 0.1074(4) 0.0074(4) 0.4720(8)
Zn1 Zn 0.0000 0.88497(4) 0.5000
Cr1 Cr -0.0000 0.80964(11) 0.0000
C8 C 0.0528(5) 0.6592(5) 0.5376(10)
H10 H 0.0544 0.6550 0.6772
H11 H 0.0861 0.5984 0.4880
C9 C 0.1968(5) 0.7710(6) 0.5776(11)
H12 H 0.1855 0.7837 0.7130
H13 H 0.2273 0.8330 0.5261
C10 C 0.2649(5) 0.6802(5) 0.5610(9)
C11 C 0.3026(7) 0.6287(7) 0.7184(11)
H14 H 0.2873 0.6513 0.8414
C12 C 0.3638(6) 0.5427(7) 0.6974(11)
H15 H 0.3857 0.5081 0.8082
C13 C 0.3548(7) 0.5547(7) 0.3766(11)
H16 H 0.3691 0.5286 0.2554
C14 C 0.2939(7) 0.6428(8) 0.3866(11)
H17 H 0.2731 0.6759 0.2736
N3 N 0.1026(4) 0.7555(4) 0.4763(8)
H18 H 0.1149 0.7479 0.3488
N4 N 0.3926(4) 0.5074(4) 0.5280(8)
O4 O 0.0944(5) 0.7345(5) 0.0477(7)
Zn4 Zn 0.5000 0.38497(4) 0.5000
O5 O 0.0225(3) 0.8833(4) 0.8102(5)
Cr1_2 Cr 0.0000 0.80964(11) 1.0000
N6 N 0.8926(4) 0.0074(4) 0.5280(8)
Zn1_2 Zn 1.0000 0.88497(4) 0.5000
Cr1_3 Cr 1.0000 0.80964(11) 0.0000
C1 C 0.9472(5) 0.6592(5) 0.4624(10)
H1 H 0.9456 0.6550 0.3228
H2 H 0.9139 0.5984 0.5120
C2 C 0.8032(5) 0.7710(6) 0.4224(11)
H3 H 0.8145 0.7837 0.2870
H4 H 0.7727 0.8330 0.4739
C3 C 0.7351(5) 0.6802(5) 0.4390(9)
C4 C 0.6974(7) 0.6287(7) 0.2816(11)
H5 H 0.7127 0.6513 0.1586
C5 C 0.6362(6) 0.5427(7) 0.3026(11)
H6 H 0.6143 0.5081 0.1918
C6 C 0.6452(7) 0.5547(7) 0.6234(11)
H7 H 0.6309 0.5286 0.7446
C7 C 0.7061(7) 0.6428(8) 0.6134(11)
H8 H 0.7269 0.6759 0.7264
N1 N 0.8974(4) 0.7555(4) 0.5237(8)
H9 H 0.8851 0.7479 0.6512
N2 N 0.6074(4) 0.5074(4) 0.4720(8)
O1 O 0.9775(3) 0.8833(4) 0.1898(5)
Cr1_4 Cr 1.0000 0.80964(11) 1.0000
O2 O 0.9056(5) 0.7345(5) 0.9523(7)
Cr1_5 Cr 0.5000 0.30964(11) 0.0000
C1_2 C 0.4472(5) 0.1592(5) 0.4624(10)
H1_2 H 0.4456 0.1550 0.3228
H2_2 H 0.4139 0.0984 0.5120
C2_2 C 0.3032(5) 0.2710(6) 0.4224(11)
H3_2 H 0.3145 0.2837 0.2870
H4_2 H 0.2727 0.3330 0.4739
C3_2 C 0.2351(5) 0.1802(5) 0.4390(9)
C4_2 C 0.1974(7) 0.1287(7) 0.2816(11)
H5_2 H 0.2127 0.1513 0.1586
C5_2 C 0.1362(6) 0.0427(7) 0.3026(11)
H6_2 H 0.1143 0.0081 0.1918
C6_2 C 0.1452(7) 0.0547(7) 0.6234(11)
H7_2 H 0.1309 0.0286 0.7446
C7_2 C 0.2061(7) 0.1428(8) 0.6134(11)
H8_2 H 0.2269 0.1759 0.7264
N1_2 N 0.3974(4) 0.2555(4) 0.5237(8)
H9_2 H 0.3851 0.2479 0.6512
O1_2 O 0.4775(3) 0.3833(4) 0.1898(5)
C8_2 C 0.5528(5) 0.1592(5) 0.5376(10)
H10_2 H 0.5544 0.1550 0.6772
H11_2 H 0.5861 0.0984 0.4880
C9_2 C 0.6968(5) 0.2710(6) 0.5776(11)
H12_2 H 0.6855 0.2837 0.7130
H13_2 H 0.7273 0.3330 0.5261
C10_2 C 0.7649(5) 0.1802(5) 0.5610(9)
C11_2 C 0.8026(7) 0.1287(7) 0.7184(11)
H14_2 H 0.7873 0.1513 0.8414
C12_2 C 0.8638(6) 0.0427(7) 0.6974(11)
H15_2 H 0.8857 0.0081 0.8082
C13_2 C 0.8548(7) 0.0547(7) 0.3766(11)
H16_2 H 0.8691 0.0286 0.2554
C14_2 C 0.7939(7) 0.1428(8) 0.3866(11)
H17_2 H 0.7731 0.1759 0.2736
N3_2 N 0.6026(4) 0.2555(4) 0.4763(8)
H18_2 H 0.6149 0.2479 0.3488
O4_2 O 0.5944(5) 0.2345(5) 0.0477(7)
O5_2 O 0.5225(3) 0.3833(4) 0.8102(5)
Cr1_6 Cr 0.5000 0.30964(11) 1.0000
O2_2 O 0.4056(5) 0.2345(5) 0.9523(7)
loop_
_geom_bond_atom_site_label_1
_geom_bond_atom_site_label_2
_geom_bond_site_symmetry_1
_geom_bond_site_symmetry_2
H10 C8 1_555 1_555
H11 C8 1_555 1_555
C9 H12 1_555 1_555
H13 C9 1_555 1_555
C10 C9 1_555 1_555
C11 C10 1_555 1_555
H14 C11 1_555 1_555
C12 C11 1_555 1_555
H15 C12 1_555 1_555
C13 H16 1_555 1_555
C14 C10 1_555 1_555
H17 C14 1_555 1_555
N3 Zn1 1_555 1_555
H18 N3 1_555 1_555
N4 C12 1_555 1_555
O4 Cr1 1_555 1_555
Zn4 N4 1_555 1_555
O5 Zn1 1_555 1_555
C8 N3 1_555 1_555
C9 N3 1_555 1_555
C13 C14 1_555 1_555
C13 N4 1_555 1_555
O5 Cr1_2 1_555 1_555
Zn1_2 N1 1_555 1_555
Cr1_3 O1 1_555 1_555
C1 H1 1_555 1_555
H2 C1 1_555 1_555
C2 H3 1_555 1_555
H4 C2 1_555 1_555
C3 C2 1_555 1_555
C4 C3 1_555 1_555
H5 C4 1_555 1_555
C5 C4 1_555 1_555
H6 C5 1_555 1_555
C6 H7 1_555 1_555
C7 C3 1_555 1_555
H8 C7 1_555 1_555
N1 C1 1_555 1_555
H9 N1 1_555 1_555
N2 C5 1_555 1_555
O1 Zn1_2 1_555 1_555
Zn4 N2 1_555 1_555
C2 N1 1_555 1_555
C6 C7 1_555 1_555
C6 N2 1_555 1_555
O2 Cr1_4 1_555 1_555
Zn4 N1_2 1_555 1_555
Cr1_5 O1_2 1_555 1_555
C1_2 H1_2 1_555 1_555
H2_2 C1_2 1_555 1_555
C2_2 H3_2 1_555 1_555
H4_2 C2_2 1_555 1_555
C3_2 C2_2 1_555 1_555
C4_2 C3_2 1_555 1_555
H5_2 C4_2 1_555 1_555
C5_2 C4_2 1_555 1_555
H6_2 C5_2 1_555 1_555
C6_2 H7_2 1_555 1_555
C7_2 C3_2 1_555 1_555
H8_2 C7_2 1_555 1_555
N1_2 C1_2 1_555 1_555
H9_2 N1_2 1_555 1_555
N5 C5_2 1_555 1_555
O1_2 Zn4 1_555 1_555
C8_2 C1_2 1_555 1_555
H10_2 C8_2 1_555 1_555
H11_2 C8_2 1_555 1_555
C9_2 H12_2 1_555 1_555
H13_2 C9_2 1_555 1_555
C10_2 C9_2 1_555 1_555
C11_2 C10_2 1_555 1_555
H14_2 C11_2 1_555 1_555
C12_2 C11_2 1_555 1_555
H15_2 C12_2 1_555 1_555
C13_2 H16_2 1_555 1_555
C14_2 C10_2 1_555 1_555
H17_2 C14_2 1_555 1_555
N3_2 Zn4 1_555 1_555
H18_2 N3_2 1_555 1_555
N6 C12_2 1_555 1_555
O4_2 Cr1_5 1_555 1_555
O5_2 Zn4 1_555 1_555
C2_2 N1_2 1_555 1_555
C6_2 C7_2 1_555 1_555
C6_2 N5 1_555 1_555
C8_2 N3_2 1_555 1_555
C9_2 N3_2 1_555 1_555
C13_2 C14_2 1_555 1_555
C13_2 N6 1_555 1_555
O2_2 Cr1_6 1_555 1_555
O5_2 Cr1_6 1_555 1_555

#END
