
###############################################################################
#
# This file contains modified crystal structure data generated from the
# MOF subset of the Cambridge Structural Database (CSD) v543 
# hosted by the Cambridge Crystallographic Data Centre (CCDC).
#
# This work is licensed under the Creative Commons
# Attribution-NonCommercial-ShareAlike 4.0 International License.
# To view a copy of this license, visit
# http://creativecommons.org/licenses/by-nc-sa/4.0/
# or send a letter to
# Creative Commons, PO Box 1866, Mountain View, CA 94042, USA.
#
# CIF created using the CSD Python API on 29 September 2022
# The structure has been converted into the P1 space group
# The structure has a 3D framework
# The original CSD entry ZOMNOG is in the monoclinic crystal system
# The original CSD entry ZOMNOG is in a Sohncke space group
# The framework has been calculated to contain at least 10.0% void space
# The void calculation uses a probe of radius 1.32A, grid spacing 0.4
#
###############################################################################

data_ZOMNOG
_chemical_formula_moiety         '(C28 H36 N8 O8 S6 Zn2)n'
_symmetry_cell_setting           triclinic
_symmetry_space_group_name_H-M   'P 1'
_symmetry_Int_Tables_number      1
_space_group_name_Hall           'P 1'
loop_
_symmetry_equiv_pos_site_id
_symmetry_equiv_pos_as_xyz
1 x,y,z
_cell_length_a                   13.783(9)
_cell_length_b                   12.697(9)
_cell_length_c                   6.743(5)
_cell_angle_alpha                90
_cell_angle_beta                 90.759(14)
_cell_angle_gamma                90
_cell_volume                     1179.94
loop_
_atom_site_label
_atom_site_type_symbol
_atom_site_fract_x
_atom_site_fract_y
_atom_site_fract_z
Zn1 Zn 0.0000 0.56225(4) 0.5000
O2 O 0.0850(4) 0.6942(4) 0.0416(7)
S1 S 0.0000 0.62847(14) 0.0000
N5 N 0.1064(4) 0.4396(4) 0.4763(8)
N6 N 0.1022(4) 0.6907(4) 0.4741(8)
O5 O 0.0192(2) 0.5605(5) 0.8278(5)
S1_2 S -0.0000 0.62847(14) 1.0000
Zn1_2 Zn 1.0000 0.56225(4) 0.5000
C1 C 0.5520(4) 0.2864(4) 0.5378(10)
H1 H 0.5856 0.3478 0.4873
H2 H 0.5529 0.2902 0.6815
C2 C 0.6978(4) 0.1747(5) 0.5701(11)
H3 H 0.7284 0.1137 0.5111
H4 H 0.6883 0.1595 0.7094
C3 C 0.8043(6) 0.3147(7) 0.7163(12)
H5 H 0.7907 0.2893 0.8422
C4 C 0.8659(6) 0.4029(7) 0.6934(12)
H6 H 0.8880 0.4368 0.8075
C5 C 0.8549(6) 0.3934(7) 0.3650(11)
H7 H 0.8709 0.4191 0.2406
C6 C 0.7918(8) 0.3085(8) 0.3752(11)
H8 H 0.7671 0.2792 0.2586
C7 C 0.7652(4) 0.2674(5) 0.5531(10)
N1 N 0.8936(4) 0.4396(4) 0.5237(8)
N2 N 0.6022(4) 0.1907(4) 0.4741(8)
H9 H 0.5780 0.1476 0.3883
O1 O 0.9808(2) 0.5605(5) 0.1722(5)
S1_3 S 1.0000 0.62847(14) 0.0000
C8 C 0.4480(4) 0.2864(4) 0.4622(10)
H10 H 0.4144 0.3478 0.5127
H11 H 0.4471 0.2902 0.3185
C9 C 0.3022(4) 0.1747(5) 0.4299(11)
H12 H 0.2716 0.1137 0.4889
H13 H 0.3117 0.1595 0.2906
C10 C 0.1957(6) 0.3147(7) 0.2837(12)
H14 H 0.2093 0.2893 0.1578
C11 C 0.1341(6) 0.4029(7) 0.3066(12)
H15 H 0.1120 0.4368 0.1925
C12 C 0.1451(6) 0.3934(7) 0.6350(11)
H16 H 0.1291 0.4191 0.7594
C13 C 0.2082(8) 0.3085(8) 0.6248(11)
H17 H 0.2329 0.2792 0.7414
C14 C 0.2348(4) 0.2674(5) 0.4469(10)
N4 N 0.3978(4) 0.1907(4) 0.5259(8)
H18 H 0.4220 0.1476 0.6117
Zn4 Zn 0.5000 0.06225(4) 0.5000
N7 N 0.8978(4) 0.6907(4) 0.5259(8)
S1_4 S 1.0000 0.62847(14) 1.0000
O4 O 0.9150(4) 0.6942(4) 0.9584(7)
O1_2 O 0.4808(2) 0.0605(5) 0.1722(5)
O2_2 O 0.5850(4) 0.1942(4) 0.0416(7)
S1_5 S 0.5000 0.12847(14) 0.0000
O5_2 O 0.5192(2) 0.0605(5) 0.8278(5)
S1_6 S 0.5000 0.12847(14) 1.0000
O4_2 O 0.4150(4) 0.1942(4) 0.9584(7)
C1_2 C 0.0520(4) 0.7864(4) 0.5378(10)
H1_2 H 0.0856 0.8478 0.4873
H2_2 H 0.0529 0.7902 0.6815
C2_2 C 0.1978(4) 0.6747(5) 0.5701(11)
H3_2 H 0.2284 0.6137 0.5111
H4_2 H 0.1883 0.6595 0.7094
C3_2 C 0.3043(6) 0.8147(7) 0.7163(12)
H5_2 H 0.2907 0.7893 0.8422
C4_2 C 0.3659(6) 0.9029(7) 0.6934(12)
H6_2 H 0.3880 0.9368 0.8075
C5_2 C 0.3549(6) 0.8934(7) 0.3650(11)
H7_2 H 0.3709 0.9191 0.2406
C6_2 C 0.2918(8) 0.8085(8) 0.3752(11)
H8_2 H 0.2671 0.7792 0.2586
C7_2 C 0.2652(4) 0.7674(5) 0.5531(10)
N1_2 N 0.3936(4) 0.9396(4) 0.5237(8)
H9_2 H 0.0780 0.6476 0.3883
N5_2 N 0.6064(4) 0.9396(4) 0.4763(8)
C8_2 C 0.9480(4) 0.7864(4) 0.4622(10)
H10_2 H 0.9144 0.8478 0.5127
H11_2 H 0.9471 0.7902 0.3185
C9_2 C 0.8022(4) 0.6747(5) 0.4299(11)
H12_2 H 0.7716 0.6137 0.4889
H13_2 H 0.8117 0.6595 0.2906
C10_2 C 0.6957(6) 0.8147(7) 0.2837(12)
H14_2 H 0.7093 0.7893 0.1578
C11_2 C 0.6341(6) 0.9029(7) 0.3066(12)
H15_2 H 0.6120 0.9368 0.1925
C12_2 C 0.6451(6) 0.8934(7) 0.6350(11)
H16_2 H 0.6291 0.9191 0.7594
C13_2 C 0.7082(8) 0.8085(8) 0.6248(11)
H17_2 H 0.7329 0.7792 0.7414
C14_2 C 0.7348(4) 0.7674(5) 0.4469(10)
H18_2 H 0.9220 0.6476 0.6117
loop_
_geom_bond_atom_site_label_1
_geom_bond_atom_site_label_2
_geom_bond_site_symmetry_1
_geom_bond_site_symmetry_2
O2 S1 1_555 1_555
N5 Zn1 1_555 1_555
N6 Zn1 1_555 1_555
O5 Zn1 1_555 1_555
O5 S1_2 1_555 1_555
Zn1_2 N1 1_555 1_555
C1 H1 1_555 1_555
H2 C1 1_555 1_555
C2 H3 1_555 1_555
H4 C2 1_555 1_555
C3 H5 1_555 1_555
C4 C3 1_555 1_555
H6 C4 1_555 1_555
C5 H7 1_555 1_555
C6 C5 1_555 1_555
H8 C6 1_555 1_555
C7 C2 1_555 1_555
N1 C4 1_555 1_555
N2 C1 1_555 1_555
H9 N2 1_555 1_555
O1 Zn1_2 1_555 1_555
S1_3 O1 1_555 1_555
C8 C1 1_555 1_555
H10 C8 1_555 1_555
H11 C8 1_555 1_555
C9 H12 1_555 1_555
H13 C9 1_555 1_555
C10 H14 1_555 1_555
C11 C10 1_555 1_555
H15 C11 1_555 1_555
C12 H16 1_555 1_555
C13 C12 1_555 1_555
H17 C13 1_555 1_555
C14 C9 1_555 1_555
N5 C11 1_555 1_555
N4 C8 1_555 1_555
H18 N4 1_555 1_555
Zn4 N2 1_555 1_555
N7 Zn1_2 1_555 1_555
C2 N2 1_555 1_555
C3 C7 1_555 1_555
C5 N1 1_555 1_555
C6 C7 1_555 1_555
C9 N4 1_555 1_555
C10 C14 1_555 1_555
C12 N5 1_555 1_555
C13 C14 1_555 1_555
N4 Zn4 1_555 1_555
O4 S1_4 1_555 1_555
O1_2 Zn4 1_555 1_555
O2_2 S1_5 1_555 1_555
S1_5 O1_2 1_555 1_555
O5_2 Zn4 1_555 1_555
O5_2 S1_6 1_555 1_555
O4_2 S1_6 1_555 1_555
C1_2 H1_2 1_555 1_555
H2_2 C1_2 1_555 1_555
C2_2 H3_2 1_555 1_555
H4_2 C2_2 1_555 1_555
C3_2 H5_2 1_555 1_555
C4_2 C3_2 1_555 1_555
H6_2 C4_2 1_555 1_555
C5_2 H7_2 1_555 1_555
C6_2 C5_2 1_555 1_555
H8_2 C6_2 1_555 1_555
C7_2 C2_2 1_555 1_555
N1_2 C4_2 1_555 1_555
N6 C1_2 1_555 1_555
H9_2 N6 1_555 1_555
C2_2 N6 1_555 1_555
C3_2 C7_2 1_555 1_555
C5_2 N1_2 1_555 1_555
C6_2 C7_2 1_555 1_555
H10_2 C8_2 1_555 1_555
H11_2 C8_2 1_555 1_555
C9_2 H12_2 1_555 1_555
H13_2 C9_2 1_555 1_555
C10_2 H14_2 1_555 1_555
C11_2 C10_2 1_555 1_555
H15_2 C11_2 1_555 1_555
C12_2 H16_2 1_555 1_555
C13_2 C12_2 1_555 1_555
H17_2 C13_2 1_555 1_555
C14_2 C9_2 1_555 1_555
N5_2 C11_2 1_555 1_555
N7 C8_2 1_555 1_555
H18_2 N7 1_555 1_555
C9_2 N7 1_555 1_555
C10_2 C14_2 1_555 1_555
C12_2 N5_2 1_555 1_555
C13_2 C14_2 1_555 1_555

#END
