
###############################################################################
#
# This file contains modified crystal structure data generated from the
# MOF subset of the Cambridge Structural Database (CSD) v543 
# hosted by the Cambridge Crystallographic Data Centre (CCDC).
#
# This work is licensed under the Creative Commons
# Attribution-NonCommercial-ShareAlike 4.0 International License.
# To view a copy of this license, visit
# http://creativecommons.org/licenses/by-nc-sa/4.0/
# or send a letter to
# Creative Commons, PO Box 1866, Mountain View, CA 94042, USA.
#
# CIF created using the CSD Python API on 29 September 2022
# The structure has been converted into the P1 space group
# The structure has a 3D framework
# The original CSD entry ZOMNIA is in the monoclinic crystal system
# The original CSD entry ZOMNIA is in a Sohncke space group
# The framework has been calculated to contain at least 10.0% void space
# The void calculation uses a probe of radius 1.32A, grid spacing 0.4
#
###############################################################################

data_ZOMNIA
_chemical_formula_moiety         '(C28 H34 Mo3 N6 O8 Zn5)n'
_symmetry_cell_setting           triclinic
_symmetry_space_group_name_H-M   'P 1'
_symmetry_Int_Tables_number      1
_space_group_name_Hall           'P 1'
loop_
_symmetry_equiv_pos_site_id
_symmetry_equiv_pos_as_xyz
1 x,y,z
_cell_length_a                   13.971(19)
_cell_length_b                   12.841(19)
_cell_length_c                   7.137(11)
_cell_angle_alpha                90
_cell_angle_beta                 90.74(5)
_cell_angle_gamma                90
_cell_volume                     1280.28
loop_
_atom_site_label
_atom_site_type_symbol
_atom_site_fract_x
_atom_site_fract_y
_atom_site_fract_z
Zn2 Zn 0.0000 0.42832(13) 0.0000
Zn2_2 Zn -0.0000 0.42832(13) 1.0000
Mo1 Mo -0.0000 0.50868(7) 0.5000
C2 C 0.1446(14) 0.2656(16) 0.127(2)
H2 H 0.1332 0.2947 0.2440
C3 C 0.2055(19) 0.1726(17) 0.115(3)
H3 H 0.2234 0.1358 0.2217
H7 H 0.4194 0.2103 0.0335
N2 N 0.3989(10) 0.0617(8) 0.0152(17)
H9 H 0.4226 0.0168 0.0921
O1 O 0.0172(9) 0.4304(7) 0.2992(12)
O2 O 0.0976(13) 0.5900(12) 0.5420(19)
C8 C 0.8633(14) 0.2655(17) 0.179(2)
H10 H 0.8862 0.2974 0.2874
C11 C 0.8043(18) 0.1830(16) 0.208(3)
H13 H 0.7925 0.1575 0.3275
C12 C 0.7649(14) 0.1417(14) 0.058(3)
C13 C 0.6978(14) 0.0433(15) 0.074(3)
H15 H 0.6898 0.0261 0.2050
C14 C 0.5497(12) 0.1518(13) 0.027(2)
H17 H 0.5541 0.1633 0.1612
N3 N 0.8937(10) 0.3080(10) 0.0206(17)
Zn2_3 Zn 1.0000 0.42832(13) 0.0000
C1 C 0.1367(14) 0.2655(17) 0.821(2)
H1 H 0.1138 0.2974 0.7126
C4 C 0.1957(18) 0.1830(16) 0.792(3)
H4 H 0.2075 0.1575 0.6725
C5 C 0.2351(14) 0.1417(14) 0.942(3)
C6 C 0.3022(14) 0.0433(15) 0.926(3)
H6 H 0.3102 0.0261 0.7950
C7 C 0.4503(12) 0.1518(13) 0.973(2)
H8 H 0.4459 0.1633 0.8388
N1 N 0.1063(10) 0.3080(10) 0.9794(17)
C9 C 0.8554(14) 0.2656(16) 0.873(2)
H11 H 0.8668 0.2947 0.7560
C10 C 0.7945(19) 0.1726(17) 0.885(3)
H12 H 0.7766 0.1358 0.7783
H16 H 0.5806 0.2103 0.9665
N4 N 0.6011(10) 0.0617(8) 0.9848(17)
H18 H 0.5774 0.0168 0.9079
Zn2_4 Zn 1.0000 0.42832(13) 1.0000
N7 N 0.1011(10) 0.5617(8) 0.9848(17)
H14 H 0.7281 0.9844 0.0135
Zn3 Zn 0.5000 0.92832(13) 0.0000
H5 H 0.2719 0.9844 0.9865
Zn3_2 Zn 0.5000 0.92832(13) 1.0000
Mo1_2 Mo 1.0000 0.50868(7) 0.5000
O4 O 0.9024(13) 0.5900(12) 0.4580(19)
N6 N 0.8989(10) 0.5617(8) 0.0152(17)
O5 O 0.9828(9) 0.4304(7) 0.7008(12)
C8_2 C 0.3633(14) 0.7655(17) 0.179(2)
H10_2 H 0.3862 0.7974 0.2874
C11_2 C 0.3043(18) 0.6830(16) 0.208(3)
H13_2 H 0.2925 0.6575 0.3275
C12_2 C 0.2649(14) 0.6417(14) 0.058(3)
C13_2 C 0.1978(14) 0.5433(15) 0.074(3)
H14_2 H 0.2281 0.4844 0.0135
H15_2 H 0.1898 0.5261 0.2050
C14_2 C 0.0497(12) 0.6518(13) 0.027(2)
H17_2 H 0.0541 0.6633 0.1612
N3_2 N 0.3937(10) 0.8080(10) 0.0206(17)
C9_2 C 0.3554(14) 0.7656(16) 0.873(2)
H11_2 H 0.3668 0.7947 0.7560
C10_2 C 0.2945(19) 0.6726(17) 0.885(3)
H12_2 H 0.2766 0.6358 0.7783
H16_2 H 0.0806 0.7103 0.9665
H18_2 H 0.0774 0.5168 0.9079
Mo1_3 Mo 0.5000 0.00868(7) 0.5000
O2_2 O 0.5976(13) 0.0900(12) 0.5420(19)
O4_2 O 0.4024(13) 0.0900(12) 0.4580(19)
C2_2 C 0.6446(14) 0.7656(16) 0.127(2)
H2_2 H 0.6332 0.7947 0.2440
C3_2 C 0.7055(19) 0.6726(17) 0.115(3)
H3_2 H 0.7234 0.6358 0.2217
H7_2 H 0.9194 0.7103 0.0335
H9_2 H 0.9226 0.5168 0.0921
O1_2 O 0.5172(9) 0.9304(7) 0.2992(12)
O5_2 O 0.4828(9) 0.9304(7) 0.7008(12)
C1_2 C 0.6367(14) 0.7655(17) 0.821(2)
H1_2 H 0.6138 0.7974 0.7126
C4_2 C 0.6957(18) 0.6830(16) 0.792(3)
H4_2 H 0.7075 0.6575 0.6725
C5_2 C 0.7351(14) 0.6417(14) 0.942(3)
C6_2 C 0.8022(14) 0.5433(15) 0.926(3)
H5_2 H 0.7719 0.4844 0.9865
H6_2 H 0.8102 0.5261 0.7950
C7_2 C 0.9503(12) 0.6518(13) 0.973(2)
H8_2 H 0.9459 0.6633 0.8388
N1_2 N 0.6063(10) 0.8080(10) 0.9794(17)
loop_
_geom_bond_atom_site_label_1
_geom_bond_atom_site_label_2
_geom_bond_site_symmetry_1
_geom_bond_site_symmetry_2
Mo1 O1 1_555 1_555
C2 H2 1_555 1_555
C3 C2 1_555 1_555
H3 C3 1_555 1_555
H9 N2 1_555 1_555
O1 Zn2 1_555 1_555
O2 Mo1 1_555 1_555
C8 H10 1_555 1_555
C11 C8 1_555 1_555
H13 C11 1_555 1_555
C13 C12 1_555 1_555
H15 C13 1_555 1_555
H17 C14 1_555 1_555
N3 C8 1_555 1_555
Zn2_3 N3 1_555 1_555
C11 C12 1_555 1_555
Zn2_2 N1 1_555 1_555
C1 H1 1_555 1_555
C4 C1 1_555 1_555
H4 C4 1_555 1_555
C6 C5 1_555 1_555
H6 C6 1_555 1_555
H8 C7 1_555 1_555
N1 C1 1_555 1_555
C9 H11 1_555 1_555
C10 C9 1_555 1_555
H12 C10 1_555 1_555
H18 N4 1_555 1_555
N7 Zn2_2 1_555 1_555
C4 C5 1_555 1_555
O4 Mo1_2 1_555 1_555
N6 Zn2_3 1_555 1_555
O5 Mo1_2 1_555 1_555
O5 Zn2_4 1_555 1_555
C8_2 H10_2 1_555 1_555
C11_2 C8_2 1_555 1_555
H13_2 C11_2 1_555 1_555
C13_2 C12_2 1_555 1_555
H14_2 C13_2 1_555 1_555
H15_2 C13_2 1_555 1_555
H17_2 C14_2 1_555 1_555
N3_2 C8_2 1_555 1_555
Zn3 N3_2 1_555 1_555
C11_2 C12_2 1_555 1_555
C9_2 H11_2 1_555 1_555
C10_2 C9_2 1_555 1_555
H12_2 C10_2 1_555 1_555
H18_2 N7 1_555 1_555
O2_2 Mo1_3 1_555 1_555
O4_2 Mo1_3 1_555 1_555
C2_2 H2_2 1_555 1_555
C3_2 C2_2 1_555 1_555
H3_2 C3_2 1_555 1_555
H9_2 N6 1_555 1_555
O1_2 Zn3 1_555 1_555
Zn3_2 N1_2 1_555 1_555
C1_2 H1_2 1_555 1_555
C4_2 C1_2 1_555 1_555
H4_2 C4_2 1_555 1_555
C6_2 C5_2 1_555 1_555
H5_2 C6_2 1_555 1_555
H6_2 C6_2 1_555 1_555
H8_2 C7_2 1_555 1_555
N1_2 C1_2 1_555 1_555
O5_2 Zn3_2 1_555 1_555
C4_2 C5_2 1_555 1_555

#END
