
###############################################################################
#
# This file contains modified crystal structure data generated from the
# MOF subset of the Cambridge Structural Database (CSD) v543 
# hosted by the Cambridge Crystallographic Data Centre (CCDC).
#
# This work is licensed under the Creative Commons
# Attribution-NonCommercial-ShareAlike 4.0 International License.
# To view a copy of this license, visit
# http://creativecommons.org/licenses/by-nc-sa/4.0/
# or send a letter to
# Creative Commons, PO Box 1866, Mountain View, CA 94042, USA.
#
# CIF created using the CSD Python API on 29 September 2022
# The structure has been converted into the P1 space group
# The structure has a 3D framework
# The original CSD entry ZOMWUV is in the hexagonal crystal system
# The original CSD entry ZOMWUV is in a Sohncke space group
# The framework has been calculated to contain at least 10.0% void space
# The void calculation uses a probe of radius 1.32A, grid spacing 0.4
#
###############################################################################

data_ZOMWUV
_chemical_formula_moiety         '(C240 H300 Cd10 N48 O12)n'
_symmetry_cell_setting           triclinic
_symmetry_space_group_name_H-M   'P 1'
_symmetry_Int_Tables_number      1
_space_group_name_Hall           'P 1'
loop_
_symmetry_equiv_pos_site_id
_symmetry_equiv_pos_as_xyz
1 x,y,z
_cell_length_a                   12.2175(3)
_cell_length_b                   12.2175(3)
_cell_length_c                   51.450(3)
_cell_angle_alpha                90
_cell_angle_beta                 90
_cell_angle_gamma                120
_cell_volume                     6650.9
loop_
_atom_site_label
_atom_site_type_symbol
_atom_site_fract_x
_atom_site_fract_y
_atom_site_fract_z
Cd1 Cd 0.14759(2) 0.0000 0.0000
N1 N 0.1592(3) 0.5197(3) 0.07164(6)
C1 C 0.1757(3) 0.4355(3) 0.05642(6)
C2 C 0.1315(3) 0.2284(3) 0.04292(6)
C3 C 0.2734(4) 0.4885(3) 0.03815(7)
H1 H 0.3220 0.5761 0.0372
C4 C 0.1581(4) 0.6720(4) 0.11087(7)
H2 H 0.2392 0.6921 0.1059
C5 C 0.1047(3) 0.3048(3) 0.05836(6)
H3 H 0.0384 0.2681 0.0702
C6 C 0.0538(4) 0.5638(4) 0.10172(8)
C7 C 0.3012(4) 0.4174(3) 0.02146(6)
N2 N 0.0602(3) 0.4735(3) 0.08530(7)
C8 C 0.2283(3) 0.2810(3) 0.02368(6)
O1 O 0.2515(2) 0.2096(2) 0.00907(4)
N4 N 0.0283(3) 0.7300(4) 0.13514(6)
C9 C 0.0629(4) 0.0882(3) 0.04922(6)
H4 H 0.1247 0.0679 0.0560
H5 H 0.0035 0.0737 0.0631
C11 C 0.1392(4) 0.7491(4) 0.12737(7)
H7 H 0.2105 0.8207 0.1336
C12 C 0.4064(4) 0.4806(4) 0.00072(9)
C16 C 0.4727(6) 0.6236(4) 0.00256(13)
H13 H 0.4111 0.6505 0.0020
H15 H 0.5187 0.6507 0.0186
C17 C 0.5065(4) 0.4414(5) 0.00493(10)
H16 H 0.5467 0.4722 0.0215
H18 H 0.4668 0.3509 0.0046
Cd3 Cd 0.0000 0.85241(2) 0.1667
C14 C 0.0570(5) 0.9265(4) 0.87304(7)
H9 H 0.0674 0.8763 0.8599
H10 H 0.0053 0.8727 0.8868
H11 H 0.1383 0.9874 0.8798
N5 N 0.1592(5) 0.6395(4) 0.76169(6)
C21 C 0.1757(5) 0.7402(4) 0.77691(6)
C22 C 0.1315(5) 0.9031(4) 0.79041(6)
C23 C 0.2734(6) 0.7849(5) 0.79518(7)
H26 H 0.3220 0.7459 0.7961
C24 C 0.1581(7) 0.4861(6) 0.72246(7)
H27 H 0.2392 0.5471 0.7274
C25 C 0.1047(5) 0.7999(4) 0.77497(6)
H28 H 0.0384 0.7703 0.7631
C26 C 0.0538(7) 0.4900(6) 0.73161(8)
C27 C 0.3012(6) 0.8838(5) 0.81187(6)
N6 N 0.0602(5) 0.5867(4) 0.74803(7)
C28 C 0.2283(5) 0.9473(4) 0.80965(6)
N8 N 0.0283(6) 0.2983(5) 0.69819(6)
C29 C 0.0629(6) 0.9747(5) 0.78411(6)
H30 H 0.0035 0.9298 0.7702
C31 C 0.1392(7) 0.3901(6) 0.70596(7)
H32 H 0.2105 0.3898 0.6997
C32 C 0.4064(7) 0.9258(6) 0.83261(9)
C36 C 0.4727(8) 0.8491(7) 0.83077(13)
H38 H 0.4111 0.7606 0.8313
H39 H 0.5302 0.8700 0.8451
H40 H 0.5187 0.8680 0.8147
C38 C 0.3483(9) 0.9057(7) 0.85951(8)
H44 H 0.3084 0.9558 0.8614
H45 H 0.4132 0.9303 0.8724
H46 H 0.2865 0.8180 0.8617
Cd2 Cd 0.00000(3) 0.14759(2) 0.6667
C14_2 C 0.1305(3) 0.0570(5) 0.70638(7)
H9_2 H 0.1911 0.0674 0.6933
H10_2 H 0.1326 0.0053 0.7202
H11_2 H 0.1509 0.1383 0.7132
N5_2 N 0.5197(3) 0.1592(5) 0.59503(6)
C21_2 C 0.4355(3) 0.1757(5) 0.61025(6)
C22_2 C 0.2284(3) 0.1315(5) 0.62375(6)
C23_2 C 0.4885(3) 0.2734(6) 0.62852(7)
H26_2 H 0.5761 0.3220 0.6295
C24_2 C 0.6720(4) 0.1581(7) 0.55580(7)
H27_2 H 0.6921 0.2392 0.5608
C25_2 C 0.3048(3) 0.1047(5) 0.60831(6)
H28_2 H 0.2681 0.0384 0.5965
C26_2 C 0.5638(4) 0.0538(7) 0.56495(8)
C27_2 C 0.4174(3) 0.3012(6) 0.64521(6)
N6_2 N 0.4735(3) 0.0602(5) 0.58137(7)
C28_2 C 0.2810(3) 0.2283(5) 0.64299(6)
O2 O 0.2096(2) 0.2515(4) 0.65760(4)
N8_2 N 0.7300(4) 0.0283(6) 0.53153(6)
C29_2 C 0.0882(3) 0.0629(6) 0.61745(6)
H29 H 0.0679 0.1247 0.6107
H30_2 H 0.0737 0.0035 0.6036
C31_2 C 0.7491(4) 0.1392(7) 0.53930(7)
H32_2 H 0.8207 0.2105 0.5331
C32_2 C 0.4806(4) 0.4064(7) 0.66595(9)
C36_2 C 0.6236(4) 0.4727(8) 0.66411(13)
H38_2 H 0.6505 0.4111 0.6647
H39_2 H 0.6602 0.5302 0.6785
H40_2 H 0.6507 0.5187 0.6481
C37 C 0.4414(5) 0.5065(8) 0.66174(10)
H41 H 0.4722 0.5467 0.6452
H42 H 0.4766 0.5687 0.6753
H43 H 0.3509 0.4668 0.6621
C38_2 C 0.4426(5) 0.3483(9) 0.69285(8)
H44_2 H 0.3526 0.3084 0.6948
H45_2 H 0.4829 0.4132 0.7058
H46_2 H 0.4685 0.2865 0.6951
Cd2_2 Cd 0.85241(2) 0.00000(3) 0.5000
C10 C 0.0931(3) 0.9708(3) 0.51353(7)
H6 H 0.0472 0.8789 0.5111
C13 C 0.0719(4) 0.3762(5) 0.62625(9)
H8 H 0.1520 0.3939 0.6315
C15 C 0.0633(4) 0.4599(5) 0.60999(9)
H12 H 0.1359 0.5325 0.6045
H23 H 0.1960 0.9612 0.5448
C20 C 0.2999(5) 0.9686(5) 0.51324(13)
H24 H 0.2569 0.8776 0.5111
H25 H 0.3774 0.9945 0.5228
N7 N 0.0045(4) 0.9974(3) 0.47189(4)
C39 C 0.2126(6) 0.9955(5) 0.47179(11)
H47 H 0.1689 0.9054 0.4684
O2_2 O 0.9581(3) 0.2096(2) 0.49093(4)
H29_2 H 0.9432 0.0679 0.4440
C37_2 C 0.9349(6) 0.4414(5) 0.49507(10)
H41_2 H 0.9255 0.4722 0.4785
H42_2 H 0.9079 0.4766 0.5086
H43_2 H 0.8841 0.3509 0.4954
N3 N 0.0045(4) 0.0071(3) 0.36144(4)
C10_2 C 0.1223(4) 0.0931(3) 0.34686(7)
H6_2 H 0.1683 0.0472 0.3444
C13_2 C 0.6957(6) 0.0719(4) 0.45958(9)
H8_2 H 0.7581 0.1520 0.4648
C15_2 C 0.6034(6) 0.0633(4) 0.44332(9)
H12_2 H 0.6034 0.1359 0.4378
C19 C 0.2126(6) 0.2171(4) 0.36154(11)
H22 H 0.1689 0.2635 0.3649
H23_2 H 0.2348 0.1960 0.3781
C20_2 C 0.3313(7) 0.2999(5) 0.34657(13)
H24_2 H 0.3793 0.2569 0.3444
H25_2 H 0.3829 0.3774 0.3561
N7_2 N 0.0071(5) 0.0045(4) 0.30522(4)
C30 C 0.0931(5) 0.1223(4) 0.31980(7)
H31 H 0.0472 0.1683 0.3222
C33 C 0.0719(8) 0.6957(6) 0.20708(9)
H33 H 0.1520 0.7581 0.2018
C35 C 0.0633(8) 0.6034(6) 0.22334(9)
H37 H 0.1359 0.6034 0.2288
C39_2 C 0.2171(8) 0.2126(6) 0.30512(11)
H47_2 H 0.2635 0.1689 0.3017
H48 H 0.1960 0.2348 0.2885
C40 C 0.2999(9) 0.3313(7) 0.32009(13)
H49 H 0.2569 0.3793 0.3222
H50 H 0.3774 0.3829 0.3105
O1_2 O 0.2096(2) 0.9581(3) 0.17574(4)
H4_2 H 0.0679 0.9432 0.2227
C17_2 C 0.4414(5) 0.9349(6) 0.17160(10)
H16_2 H 0.4722 0.9255 0.1882
H17 H 0.4766 0.9079 0.1581
H18_2 H 0.3509 0.8841 0.1713
N3_2 N 0.9974(3) 0.0045(4) 0.19478(4)
C19_2 C 0.9955(5) 0.2126(6) 0.19488(11)
H22_2 H 0.9054 0.1689 0.1983
C30_2 C 0.9708(3) 0.0931(5) 0.15314(7)
H31_2 H 0.8789 0.0472 0.1556
C33_2 C 0.3762(5) 0.0719(8) 0.04042(9)
H33_2 H 0.3939 0.1520 0.0352
C35_2 C 0.4599(5) 0.0633(8) 0.05668(9)
H37_2 H 0.5325 0.1359 0.0622
H48_2 H 0.9612 0.1960 0.1219
C40_2 C 0.9686(5) 0.2999(9) 0.15343(13)
H49_2 H 0.8776 0.2569 0.1556
H50_2 H 0.9945 0.3774 0.1439
Cd1_2 Cd 0.14759(2) 0.0000 1.0000
H14 H 0.5302 0.6602 0.9882
H17_2 H 0.5687 0.4766 0.9914
C18 C 0.3483(5) 0.4426(5) 0.97382(8)
H19 H 0.3084 0.3526 0.9719
H20 H 0.4132 0.4829 0.9609
H21 H 0.2865 0.4685 0.9716
C34 C 0.0570(5) 0.1305(3) 0.96029(7)
H34 H 0.0674 0.1911 0.9734
H35 H 0.0053 0.1326 0.9465
H36 H 0.1383 0.1509 0.9535
N9 N 0.2983(5) 0.0283(3) 0.96847(6)
N1_2 N 0.6395(4) 0.1592(3) 0.90497(6)
C1_2 C 0.7402(4) 0.1757(3) 0.88975(6)
C2_2 C 0.9031(4) 0.1315(3) 0.87625(6)
C3_2 C 0.7849(5) 0.2734(4) 0.87148(7)
H1_2 H 0.7459 0.3220 0.8705
C4_2 C 0.4861(6) 0.1581(4) 0.94420(7)
H2_2 H 0.5471 0.2392 0.9392
C5_2 C 0.7999(4) 0.1047(3) 0.89169(6)
H3_2 H 0.7703 0.0384 0.9035
C6_2 C 0.4900(6) 0.0538(4) 0.93505(8)
C7_2 C 0.8838(5) 0.3012(4) 0.85479(6)
N2_2 N 0.5867(4) 0.0602(3) 0.91863(7)
C8_2 C 0.9473(4) 0.2283(3) 0.85701(6)
C9_2 C 0.9747(5) 0.0629(4) 0.88255(6)
H5_2 H 0.9298 0.0035 0.8964
C11_2 C 0.3901(6) 0.1392(4) 0.96070(7)
H7_2 H 0.3898 0.2105 0.9669
C12_2 C 0.9258(6) 0.4064(4) 0.83405(9)
C16_2 C 0.8491(7) 0.4727(6) 0.83589(13)
H13_2 H 0.7606 0.4111 0.8353
H14_2 H 0.8700 0.5302 0.8215
H15_2 H 0.8680 0.5187 0.8519
C18_2 C 0.9057(7) 0.3483(5) 0.80715(8)
H19_2 H 0.9558 0.3084 0.8052
H20_2 H 0.9303 0.4132 0.7942
H21_2 H 0.8180 0.2865 0.8049
C34_2 C 0.9265(6) 0.0570(5) 0.79362(7)
H34_2 H 0.8763 0.0674 0.8067
H35_2 H 0.8727 0.0053 0.7798
H36_2 H 0.9874 0.1383 0.7868
Cd1_3 Cd 0.14759(2) 1.0000 0.0000
H42_3 H 0.0921 0.5234 0.0086
N10 N 0.2700(4) 0.9717(3) 0.03153(6)
C10_3 C 0.9069(3) 0.0292(3) 0.01353(7)
H6_3 H 0.9528 0.1211 0.0111
C13_3 C 0.9281(4) 0.6238(5) 0.12625(9)
H8_3 H 0.8480 0.6061 0.1315
C15_3 C 0.9367(4) 0.5401(5) 0.10999(9)
H12_3 H 0.8641 0.4675 0.1045
H23_3 H 0.8040 0.0388 0.0448
C20_3 C 0.7001(5) 0.0314(5) 0.01324(13)
H24_3 H 0.7431 0.1224 0.0111
H25_3 H 0.6226 0.0055 0.0228
Cd3_2 Cd 1.0000 0.85241(2) 0.1667
C14_3 C 0.9430(5) 0.0735(4) 0.37304(7)
H9_3 H 0.9326 0.1237 0.3599
H10_3 H 0.9947 0.1273 0.3868
H11_3 H 0.8617 0.0126 0.3798
N5_3 N 0.8408(5) 0.3605(4) 0.26169(6)
C21_3 C 0.8243(5) 0.2598(4) 0.27691(6)
C22_3 C 0.8685(5) 0.0969(4) 0.29041(6)
C23_3 C 0.7266(6) 0.2151(5) 0.29518(7)
H26_3 H 0.6780 0.2541 0.2961
C24_3 C 0.8419(7) 0.5139(6) 0.22246(7)
H27_3 H 0.7608 0.4529 0.2274
C25_3 C 0.8953(5) 0.2001(4) 0.27497(6)
H28_3 H 0.9616 0.2297 0.2631
C26_3 C 0.9462(7) 0.5100(6) 0.23161(8)
C27_3 C 0.6988(6) 0.1162(5) 0.31187(6)
N6_3 N 0.9398(5) 0.4133(4) 0.24803(7)
C28_3 C 0.7717(5) 0.0527(4) 0.30965(6)
N8_3 N 0.9717(6) 0.7017(5) 0.19819(6)
C29_3 C 0.9371(6) 0.0253(5) 0.28411(6)
H30_3 H 0.9965 0.0702 0.2702
C31_3 C 0.8608(7) 0.6099(6) 0.20596(7)
H32_3 H 0.7895 0.6102 0.1997
C32_3 C 0.5936(7) 0.0742(6) 0.33261(9)
C36_3 C 0.5273(8) 0.1509(7) 0.33077(13)
H38_3 H 0.5889 0.2394 0.3313
H39_3 H 0.4698 0.1300 0.3451
H40_3 H 0.4813 0.1320 0.3147
C38_3 C 0.6517(9) 0.0943(7) 0.35951(8)
H44_3 H 0.6916 0.0442 0.3614
H45_3 H 0.5868 0.0697 0.3724
H46_3 H 0.7135 0.1820 0.3617
C14_4 C 0.8695(3) 0.9430(5) 0.20638(7)
H9_4 H 0.8089 0.9326 0.1933
H10_4 H 0.8674 0.9947 0.2202
H11_4 H 0.8491 0.8617 0.2132
N5_4 N 0.4803(3) 0.8408(5) 0.09503(6)
C21_4 C 0.5645(3) 0.8243(5) 0.11025(6)
C22_4 C 0.7716(3) 0.8685(5) 0.12375(6)
C23_4 C 0.5115(3) 0.7266(6) 0.12852(7)
H26_4 H 0.4239 0.6780 0.1295
C24_4 C 0.3280(4) 0.8419(7) 0.05580(7)
H27_4 H 0.3079 0.7608 0.0608
C25_4 C 0.6952(3) 0.8953(5) 0.10831(6)
H28_4 H 0.7319 0.9616 0.0965
C26_4 C 0.4362(4) 0.9462(7) 0.06495(8)
C27_4 C 0.5826(3) 0.6988(6) 0.14521(6)
N6_4 N 0.5265(3) 0.9398(5) 0.08137(7)
C28_4 C 0.7190(3) 0.7717(5) 0.14299(6)
O2_3 O 0.7904(2) 0.7485(4) 0.15760(4)
C29_4 C 0.9118(3) 0.9371(6) 0.11745(6)
H29_3 H 0.9321 0.8753 0.1107
H30_4 H 0.9263 0.9965 0.1036
C31_4 C 0.2509(4) 0.8608(7) 0.03930(7)
H32_4 H 0.1793 0.7895 0.0331
C32_4 C 0.5194(4) 0.5936(7) 0.16595(9)
C36_4 C 0.3764(4) 0.5273(8) 0.16411(13)
H38_4 H 0.3495 0.5889 0.1647
H39_4 H 0.3398 0.4698 0.1785
H40_4 H 0.3493 0.4813 0.1481
C37_3 C 0.5586(5) 0.4935(8) 0.16174(10)
H41_3 H 0.5278 0.4533 0.1452
H42_4 H 0.5234 0.4313 0.1753
H43_3 H 0.6491 0.5332 0.1621
C38_4 C 0.5574(5) 0.6517(9) 0.19285(8)
H44_4 H 0.6474 0.6916 0.1948
H45_4 H 0.5171 0.5868 0.2058
H46_4 H 0.5315 0.7135 0.1951
Cd1_4 Cd 0.14759(2) 1.0000 1.0000
O2_4 O 0.0419(3) 0.7904(2) 0.99093(4)
H29_4 H 0.0568 0.9321 0.9440
C37_4 C 0.0651(6) 0.5586(5) 0.99507(10)
H41_4 H 0.0745 0.5278 0.9785
H43_4 H 0.1159 0.6491 0.9954
N3_3 N 0.9955(4) 0.9929(3) 0.86144(4)
C10_4 C 0.8777(4) 0.9069(3) 0.84686(7)
H6_4 H 0.8317 0.9528 0.8444
C13_4 C 0.3043(6) 0.9281(4) 0.95958(9)
H8_4 H 0.2419 0.8480 0.9648
C15_4 C 0.3966(6) 0.9367(4) 0.94332(9)
H12_4 H 0.3966 0.8641 0.9378
C19_3 C 0.7874(6) 0.7829(4) 0.86154(11)
H22_3 H 0.8311 0.7365 0.8649
H23_4 H 0.7652 0.8040 0.8781
C20_4 C 0.6687(7) 0.7001(5) 0.84657(13)
H24_4 H 0.6207 0.7431 0.8444
H25_4 H 0.6171 0.6226 0.8561
N7_3 N 0.9929(5) 0.9955(4) 0.80522(4)
C30_3 C 0.9069(5) 0.8777(4) 0.81980(7)
H31_3 H 0.9528 0.8317 0.8222
C33_3 C 0.9281(8) 0.3043(6) 0.70708(9)
H33_3 H 0.8480 0.2419 0.7018
C35_3 C 0.9367(8) 0.3966(6) 0.72334(9)
H37_3 H 0.8641 0.3966 0.7288
C39_3 C 0.7829(8) 0.7874(6) 0.80512(11)
H47_3 H 0.7365 0.8311 0.8017
H48_3 H 0.8040 0.7652 0.7885
C40_3 C 0.7001(9) 0.6687(7) 0.82009(13)
H49_3 H 0.7431 0.6207 0.8222
H50_3 H 0.6226 0.6171 0.8105
Cd2_3 Cd 1.00000(3) 0.14759(2) 0.6667
N3_4 N 0.0026(3) 0.9955(4) 0.69478(4)
C19_4 C 0.0045(5) 0.7874(6) 0.69488(11)
H22_4 H 0.0946 0.8311 0.6983
C30_4 C 0.0292(3) 0.9069(5) 0.65314(7)
H31_4 H 0.1211 0.9528 0.6556
C33_4 C 0.6238(5) 0.9281(8) 0.54042(9)
H33_4 H 0.6061 0.8480 0.5352
C35_4 C 0.5401(5) 0.9367(8) 0.55668(9)
H37_4 H 0.4675 0.8641 0.5622
H48_4 H 0.0388 0.8040 0.6219
C40_4 C 0.0314(5) 0.7001(9) 0.65343(13)
H49_4 H 0.1224 0.7431 0.6556
H50_4 H 0.0055 0.6226 0.6439
Cd2_4 Cd 0.85241(2) 1.00000(3) 0.5000
O1_3 O 0.7904(2) 0.0419(3) 0.67574(4)
H4_3 H 0.9321 0.0568 0.7227
C17_3 C 0.5586(5) 0.0651(6) 0.67160(10)
H16_3 H 0.5278 0.0745 0.6882
H17_3 H 0.5234 0.0921 0.6581
H18_3 H 0.6491 0.1159 0.6713
N9_2 N 0.9717(3) 0.2700(6) 0.63514(6)
N1_3 N 0.8408(3) 0.4803(3) 0.57164(6)
C1_3 C 0.8243(3) 0.5645(3) 0.55642(6)
C2_3 C 0.8685(3) 0.7716(3) 0.54292(6)
C3_3 C 0.7266(4) 0.5115(3) 0.53815(7)
H1_3 H 0.6780 0.4239 0.5372
C4_3 C 0.8419(4) 0.3280(4) 0.61087(7)
H2_3 H 0.7608 0.3079 0.6059
C5_3 C 0.8953(3) 0.6952(3) 0.55836(6)
H3_3 H 0.9616 0.7319 0.5702
C6_3 C 0.9462(4) 0.4362(4) 0.60172(8)
C7_3 C 0.6988(4) 0.5826(3) 0.52146(6)
N2_3 N 0.9398(3) 0.5265(3) 0.58530(7)
C8_3 C 0.7717(3) 0.7190(3) 0.52368(6)
O1_4 O 0.7485(2) 0.7904(2) 0.50907(4)
C9_3 C 0.9371(4) 0.9118(3) 0.54922(6)
H4_4 H 0.8753 0.9321 0.5560
H5_3 H 0.9965 0.9263 0.5631
C11_3 C 0.8608(4) 0.2509(4) 0.62737(7)
H7_3 H 0.7895 0.1793 0.6336
C12_3 C 0.5936(4) 0.5194(4) 0.50072(9)
C16_3 C 0.5273(6) 0.3764(4) 0.50256(13)
H13_3 H 0.5889 0.3495 0.5020
H14_3 H 0.4698 0.3398 0.4882
H15_3 H 0.4813 0.3493 0.5186
C17_4 C 0.4935(4) 0.5586(5) 0.50493(10)
H16_4 H 0.4533 0.5278 0.5215
H17_4 H 0.4313 0.5234 0.4914
H18_4 H 0.5332 0.6491 0.5046
C18_3 C 0.6517(5) 0.5574(5) 0.47382(8)
H19_3 H 0.6916 0.6474 0.4719
H20_3 H 0.5868 0.5171 0.4609
H21_3 H 0.7135 0.5315 0.4716
C34_3 C 0.9430(5) 0.8695(3) 0.46029(7)
H34_3 H 0.9326 0.8089 0.4734
H35_3 H 0.9947 0.8674 0.4465
H36_3 H 0.8617 0.8491 0.4535
N9_3 N 0.7017(5) 0.9717(3) 0.46847(6)
N1_4 N 0.3605(4) 0.8408(3) 0.40497(6)
C1_4 C 0.2598(4) 0.8243(3) 0.38975(6)
C2_4 C 0.0969(4) 0.8685(3) 0.37625(6)
C3_4 C 0.2151(5) 0.7266(4) 0.37148(7)
H1_4 H 0.2541 0.6780 0.3705
C4_4 C 0.5139(6) 0.8419(4) 0.44420(7)
H2_4 H 0.4529 0.7608 0.4392
C5_4 C 0.2001(4) 0.8953(3) 0.39169(6)
H3_4 H 0.2297 0.9616 0.4035
C6_4 C 0.5100(6) 0.9462(4) 0.43505(8)
C7_4 C 0.1162(5) 0.6988(4) 0.35479(6)
N2_4 N 0.4133(4) 0.9398(3) 0.41863(7)
C8_4 C 0.0527(4) 0.7717(3) 0.35701(6)
C9_4 C 0.0253(5) 0.9371(4) 0.38255(6)
H5_4 H 0.0702 0.9965 0.3964
C11_4 C 0.6099(6) 0.8608(4) 0.46070(7)
H7_4 H 0.6102 0.7895 0.4669
C12_4 C 0.0742(6) 0.5936(4) 0.33405(9)
C16_4 C 0.1509(7) 0.5273(6) 0.33589(13)
H13_4 H 0.2394 0.5889 0.3353
H14_4 H 0.1300 0.4698 0.3215
H15_4 H 0.1320 0.4813 0.3519
C18_4 C 0.0943(7) 0.6517(5) 0.30715(8)
H19_4 H 0.0442 0.6916 0.3052
H20_4 H 0.0697 0.5868 0.2942
H21_4 H 0.1820 0.7135 0.3049
C34_4 C 0.0735(6) 0.9430(5) 0.29362(7)
H34_4 H 0.1237 0.9326 0.3067
H35_4 H 0.1273 0.9947 0.2798
H36_4 H 0.0126 0.8617 0.2868
N7_4 N 0.9955(4) 0.0026(3) 0.97189(4)
C39_4 C 0.7874(6) 0.0045(5) 0.97179(11)
H47_4 H 0.8311 0.0946 0.9684
N3_5 N 0.9929(3) 0.9974(3) 0.02811(4)
C14_5 C 0.9265(4) 0.8695(3) 0.03971(7)
H9_5 H 0.8763 0.8089 0.0266
H10_5 H 0.8727 0.8674 0.0535
H11_5 H 0.9874 0.8491 0.0465
C19_5 C 0.7829(4) 0.9955(5) 0.02821(11)
H22_5 H 0.7365 0.9054 0.0316
H39_5 H 0.8700 0.3398 0.0118
C38_5 C 0.9057(7) 0.5574(5) 0.02618(8)
H44_5 H 0.9558 0.6474 0.0281
H45_5 H 0.9303 0.5171 0.0391
H46_5 H 0.8180 0.5315 0.0284
N5_5 N 0.6395(4) 0.4803(3) 0.92836(6)
C21_5 C 0.7402(4) 0.5645(3) 0.94358(6)
C22_5 C 0.9031(4) 0.7716(3) 0.95708(6)
C23_5 C 0.7849(5) 0.5115(3) 0.96185(7)
H26_5 H 0.7459 0.4239 0.9628
C24_5 C 0.4861(6) 0.3280(4) 0.88913(7)
H27_5 H 0.5471 0.3079 0.8941
C25_5 C 0.7999(4) 0.6952(3) 0.94164(6)
H28_5 H 0.7703 0.7319 0.9298
C26_5 C 0.4900(6) 0.4362(4) 0.89828(8)
C27_5 C 0.8838(5) 0.5826(3) 0.97854(6)
N6_5 N 0.5867(4) 0.5265(3) 0.91470(7)
C28_5 C 0.9473(4) 0.7190(3) 0.97632(6)
N8_4 N 0.2983(5) 0.2700(4) 0.86486(6)
C29_5 C 0.9747(5) 0.9118(3) 0.95078(6)
H30_5 H 0.9298 0.9263 0.9369
C30_5 C 0.8777(4) 0.9708(3) 0.98647(7)
H31_5 H 0.8317 0.8789 0.9889
C31_5 C 0.3901(6) 0.2509(4) 0.87263(7)
H32_5 H 0.3898 0.1793 0.8664
C32_5 C 0.9258(6) 0.5194(4) 0.99928(9)
C33_5 C 0.3043(6) 0.3762(5) 0.87375(9)
H33_5 H 0.2419 0.3939 0.8685
C35_5 C 0.3966(6) 0.4599(5) 0.89001(9)
H37_5 H 0.3966 0.5325 0.8955
C36_5 C 0.8491(7) 0.3764(4) 0.99744(13)
H38_5 H 0.7606 0.3495 0.9980
H40_5 H 0.8680 0.3493 0.9814
H48_5 H 0.7652 0.9612 0.9552
C40_5 C 0.6687(7) 0.9686(5) 0.98676(13)
H49_5 H 0.6207 0.8776 0.9889
H50_5 H 0.6171 0.9945 0.9772
Cd2_5 Cd 0.14759(2) 0.14759(2) 0.8333
O1_5 O 0.0419(3) 0.2515(2) 0.84240(4)
H4_5 H 0.0568 0.1247 0.8893
C17_5 C 0.0651(6) 0.5065(4) 0.83826(10)
H16_5 H 0.0745 0.5467 0.8548
H17_5 H 0.0921 0.5687 0.8247
H18_5 H 0.1159 0.4668 0.8379
O2_5 O 0.2515(4) 0.0419(3) 0.82426(4)
H29_5 H 0.1247 0.0568 0.7773
C37_5 C 0.5065(8) 0.0651(6) 0.82840(10)
H41_5 H 0.5467 0.0745 0.8118
H42_5 H 0.5687 0.0921 0.8419
H43_5 H 0.4668 0.1159 0.8287
N9_4 N 0.2700(6) 0.2983(5) 0.80181(6)
N1_5 N 0.4803(3) 0.6395(4) 0.73831(6)
C1_5 C 0.5645(3) 0.7402(4) 0.72309(6)
C2_5 C 0.7716(3) 0.9031(4) 0.70959(6)
C3_5 C 0.5115(3) 0.7849(5) 0.70482(7)
H1_5 H 0.4239 0.7459 0.7039
C4_5 C 0.3280(4) 0.4861(6) 0.77754(7)
H2_5 H 0.3079 0.5471 0.7726
C5_5 C 0.6952(3) 0.7999(4) 0.72503(6)
H3_5 H 0.7319 0.7703 0.7369
C6_5 C 0.4362(4) 0.4900(6) 0.76839(8)
C7_5 C 0.5826(3) 0.8838(5) 0.68813(6)
N2_5 N 0.5265(3) 0.5867(4) 0.75197(7)
C8_5 C 0.7190(3) 0.9473(4) 0.69035(6)
C9_5 C 0.9118(3) 0.9747(5) 0.71589(6)
H5_5 H 0.9263 0.9298 0.7298
C10_5 C 0.9708(3) 0.8777(4) 0.68020(7)
H6_5 H 0.8789 0.8317 0.6778
C11_5 C 0.2509(4) 0.3901(6) 0.79404(7)
H7_5 H 0.1793 0.3898 0.8003
C12_5 C 0.5194(4) 0.9258(6) 0.66739(9)
C13_5 C 0.3762(5) 0.3043(6) 0.79292(9)
H8_5 H 0.3939 0.2419 0.7982
C15_5 C 0.4599(5) 0.3966(6) 0.77666(9)
H12_5 H 0.5325 0.3966 0.7712
C16_5 C 0.3764(4) 0.8491(7) 0.66923(13)
H13_5 H 0.3495 0.7606 0.6687
H14_5 H 0.3398 0.8700 0.6549
H15_5 H 0.3493 0.8680 0.6853
C18_5 C 0.5574(5) 0.9057(7) 0.64049(8)
H19_5 H 0.6474 0.9558 0.6386
H20_5 H 0.5171 0.9303 0.6276
H21_5 H 0.5315 0.8180 0.6383
H23_5 H 0.9612 0.7652 0.7115
C20_5 C 0.9686(5) 0.6687(7) 0.67991(13)
H24_5 H 0.8776 0.6207 0.6778
H25_5 H 0.9945 0.6171 0.6895
N7_5 N 0.9974(3) 0.9929(5) 0.63856(4)
C34_5 C 0.8695(3) 0.9265(6) 0.62696(7)
H34_5 H 0.8089 0.8763 0.6401
H35_5 H 0.8674 0.8727 0.6132
H36_5 H 0.8491 0.9874 0.6202
C39_5 C 0.9955(5) 0.7829(8) 0.63846(11)
H47_5 H 0.9054 0.7365 0.6351
N3_6 N 0.0071(3) 0.0026(3) 0.52811(4)
C14_6 C 0.0735(4) 0.1305(3) 0.53971(7)
H9_6 H 0.1237 0.1911 0.5266
H10_6 H 0.1273 0.1326 0.5535
H11_6 H 0.0126 0.1509 0.5465
C19_6 C 0.2171(4) 0.0045(5) 0.52821(11)
H22_6 H 0.2635 0.0946 0.5316
N5_6 N 0.3605(4) 0.5197(3) 0.42836(6)
C21_6 C 0.2598(4) 0.4355(3) 0.44358(6)
C22_6 C 0.0969(4) 0.2284(3) 0.45708(6)
C23_6 C 0.2151(5) 0.4885(3) 0.46185(7)
H26_6 H 0.2541 0.5761 0.4628
C24_6 C 0.5139(6) 0.6720(4) 0.38913(7)
H27_6 H 0.4529 0.6921 0.3941
C25_6 C 0.2001(4) 0.3048(3) 0.44164(6)
H28_6 H 0.2297 0.2681 0.4298
C26_6 C 0.5100(6) 0.5638(4) 0.39828(8)
C27_6 C 0.1162(5) 0.4174(3) 0.47854(6)
N6_6 N 0.4133(4) 0.4735(3) 0.41470(7)
C28_6 C 0.0527(4) 0.2810(3) 0.47632(6)
N8_5 N 0.7017(5) 0.7300(4) 0.36486(6)
C29_6 C 0.0253(5) 0.0882(3) 0.45078(6)
H30_6 H 0.0702 0.0737 0.4369
C30_6 C 0.1223(4) 0.0292(3) 0.48647(7)
H31_6 H 0.1683 0.1211 0.4889
C31_6 C 0.6099(6) 0.7491(4) 0.37263(7)
H32_6 H 0.6102 0.8207 0.3664
C32_6 C 0.0742(6) 0.4806(4) 0.49928(9)
C33_6 C 0.6957(6) 0.6238(5) 0.37375(9)
H33_6 H 0.7581 0.6061 0.3685
C35_6 C 0.6034(6) 0.5401(5) 0.39001(9)
H37_6 H 0.6034 0.4675 0.3955
C36_6 C 0.1509(7) 0.6236(4) 0.49744(13)
H38_6 H 0.2394 0.6505 0.4980
H39_6 H 0.1300 0.6602 0.5118
H40_6 H 0.1320 0.6507 0.4814
C38_6 C 0.0943(7) 0.4426(5) 0.52618(8)
H44_6 H 0.0442 0.3526 0.5281
H45_6 H 0.0697 0.4829 0.5391
H46_6 H 0.1820 0.4685 0.5284
H48_6 H 0.2348 0.0388 0.4552
C40_6 C 0.3313(7) 0.0314(5) 0.48676(13)
H49_6 H 0.3793 0.1224 0.4889
H50_6 H 0.3829 0.0055 0.4772
Cd2_6 Cd 0.85241(2) 0.85241(2) 0.3333
O1_6 O 0.9581(3) 0.7485(2) 0.34240(4)
H4_6 H 0.9432 0.8753 0.3893
C17_6 C 0.9349(6) 0.4935(4) 0.33826(10)
H16_6 H 0.9255 0.4533 0.3548
H17_6 H 0.9079 0.4313 0.3247
H18_6 H 0.8841 0.5332 0.3379
O2_6 O 0.7485(4) 0.9581(3) 0.32426(4)
H29_6 H 0.8753 0.9432 0.2773
C37_6 C 0.4935(8) 0.9349(6) 0.32840(10)
H41_6 H 0.4533 0.9255 0.3118
H42_6 H 0.4313 0.9079 0.3419
H43_6 H 0.5332 0.8841 0.3287
N9_5 N 0.7300(6) 0.7017(5) 0.30181(6)
N1_6 N 0.5197(3) 0.3605(4) 0.23831(6)
C1_6 C 0.4355(3) 0.2598(4) 0.22309(6)
C2_6 C 0.2284(3) 0.0969(4) 0.20959(6)
C3_6 C 0.4885(3) 0.2151(5) 0.20482(7)
H1_6 H 0.5761 0.2541 0.2039
C4_6 C 0.6720(4) 0.5139(6) 0.27754(7)
H2_6 H 0.6921 0.4529 0.2726
C5_6 C 0.3048(3) 0.2001(4) 0.22503(6)
H3_6 H 0.2681 0.2297 0.2369
C6_6 C 0.5638(4) 0.5100(6) 0.26839(8)
C7_6 C 0.4174(3) 0.1162(5) 0.18813(6)
N2_6 N 0.4735(3) 0.4133(4) 0.25197(7)
C8_6 C 0.2810(3) 0.0527(4) 0.19035(6)
C9_6 C 0.0882(3) 0.0253(5) 0.21589(6)
H5_6 H 0.0737 0.0702 0.2298
C10_6 C 0.0292(3) 0.1223(4) 0.18020(7)
H6_6 H 0.1211 0.1683 0.1778
C11_6 C 0.7491(4) 0.6099(6) 0.29404(7)
H7_6 H 0.8207 0.6102 0.3003
C12_6 C 0.4806(4) 0.0742(6) 0.16739(9)
C13_6 C 0.6238(5) 0.6957(6) 0.29292(9)
H8_6 H 0.6061 0.7581 0.2982
C15_6 C 0.5401(5) 0.6034(6) 0.27666(9)
H12_6 H 0.4675 0.6034 0.2712
C16_6 C 0.6236(4) 0.1509(7) 0.16923(13)
H13_6 H 0.6505 0.2394 0.1687
H14_6 H 0.6602 0.1300 0.1549
H15_6 H 0.6507 0.1320 0.1853
C18_6 C 0.4426(5) 0.0943(7) 0.14049(8)
H19_6 H 0.3526 0.0442 0.1386
H20_6 H 0.4829 0.0697 0.1276
H21_6 H 0.4685 0.1820 0.1383
H23_6 H 0.0388 0.2348 0.2115
C20_6 C 0.0314(5) 0.3313(7) 0.17991(13)
H24_6 H 0.1224 0.3793 0.1778
H25_6 H 0.0055 0.3829 0.1895
N7_6 N 0.0026(3) 0.0071(5) 0.13856(4)
C34_6 C 0.1305(3) 0.0735(6) 0.12696(7)
H34_6 H 0.1911 0.1237 0.1401
H35_6 H 0.1326 0.1273 0.1132
H36_6 H 0.1509 0.0126 0.1202
C39_6 C 0.0045(5) 0.2171(8) 0.13846(11)
H47_6 H 0.0946 0.2635 0.1351
loop_
_geom_bond_atom_site_label_1
_geom_bond_atom_site_label_2
_geom_bond_site_symmetry_1
_geom_bond_site_symmetry_2
N1 C1 1_555 1_555
C1 C3 1_555 1_555
C2 C5 1_555 1_555
C3 H1 1_555 1_555
C4 H2 1_555 1_555
C5 C1 1_555 1_555
H3 C5 1_555 1_555
C6 C4 1_555 1_555
C7 C3 1_555 1_555
N2 N1 1_555 1_555
C8 C2 1_555 1_555
O1 Cd1 1_555 1_555
N4 C11 1_555 1_555
C9 C2 1_555 1_555
H4 C9 1_555 1_555
H5 C9 1_555 1_555
C11 C4 1_555 1_555
H7 C11 1_555 1_555
C12 C7 1_555 1_555
C16 C12 1_555 1_555
H13 C16 1_555 1_555
H15 C16 1_555 1_555
C17 C12 1_555 1_555
H16 C17 1_555 1_555
H18 C17 1_555 1_555
Cd3 N4 1_555 1_555
C6 N2 1_555 1_555
C7 C8 1_555 1_555
C8 O1 1_555 1_555
H9 C14 1_555 1_555
H10 C14 1_555 1_555
H11 C14 1_555 1_555
N5 C21 1_555 1_555
C21 C23 1_555 1_555
C22 C25 1_555 1_555
C23 H26 1_555 1_555
C24 H27 1_555 1_555
C25 C21 1_555 1_555
H28 C25 1_555 1_555
C26 C24 1_555 1_555
C27 C23 1_555 1_555
N6 N5 1_555 1_555
C28 C22 1_555 1_555
N8 C31 1_555 1_555
C29 C22 1_555 1_555
H30 C29 1_555 1_555
C31 C24 1_555 1_555
H32 C31 1_555 1_555
C32 C27 1_555 1_555
C36 C32 1_555 1_555
H38 C36 1_555 1_555
H39 C36 1_555 1_555
H40 C36 1_555 1_555
C38 C32 1_555 1_555
H44 C38 1_555 1_555
H45 C38 1_555 1_555
H46 C38 1_555 1_555
Cd2 N8 1_555 1_555
C26 N6 1_555 1_555
C27 C28 1_555 1_555
H9_2 C14_2 1_555 1_555
H10_2 C14_2 1_555 1_555
H11_2 C14_2 1_555 1_555
N5_2 C21_2 1_555 1_555
C21_2 C23_2 1_555 1_555
C22_2 C25_2 1_555 1_555
C23_2 H26_2 1_555 1_555
C24_2 H27_2 1_555 1_555
C25_2 C21_2 1_555 1_555
H28_2 C25_2 1_555 1_555
C26_2 C24_2 1_555 1_555
C27_2 C23_2 1_555 1_555
N6_2 N5_2 1_555 1_555
C28_2 C22_2 1_555 1_555
O2 Cd2 1_555 1_555
N8_2 C31_2 1_555 1_555
C29_2 C22_2 1_555 1_555
H29 C29_2 1_555 1_555
H30_2 C29_2 1_555 1_555
C31_2 C24_2 1_555 1_555
H32_2 C31_2 1_555 1_555
C32_2 C27_2 1_555 1_555
C36_2 C32_2 1_555 1_555
H38_2 C36_2 1_555 1_555
H39_2 C36_2 1_555 1_555
H40_2 C36_2 1_555 1_555
C37 C32_2 1_555 1_555
H41 C37 1_555 1_555
H42 C37 1_555 1_555
H43 C37 1_555 1_555
C38_2 C32_2 1_555 1_555
H44_2 C38_2 1_555 1_555
H45_2 C38_2 1_555 1_555
H46_2 C38_2 1_555 1_555
Cd2_2 N8_2 1_555 1_555
C26_2 N6_2 1_555 1_555
C27_2 C28_2 1_555 1_555
C28_2 O2 1_555 1_555
H6 C10 1_555 1_555
H8 C13 1_555 1_555
H12 C15 1_555 1_555
H24 C20 1_555 1_555
H25 C20 1_555 1_555
H47 C39 1_555 1_555
C13 C15 1_555 1_555
O2_2 Cd2_2 1_555 1_555
H41_2 C37_2 1_555 1_555
H42_2 C37_2 1_555 1_555
H43_2 C37_2 1_555 1_555
C10_2 N3 1_555 1_555
H6_2 C10_2 1_555 1_555
H8_2 C13_2 1_555 1_555
H12_2 C15_2 1_555 1_555
C19 C10_2 1_555 1_555
H22 C19 1_555 1_555
H23_2 C19 1_555 1_555
C20_2 C19 1_555 1_555
H24_2 C20_2 1_555 1_555
H25_2 C20_2 1_555 1_555
C30 C10_2 1_555 1_555
H31 C30 1_555 1_555
H33 C33 1_555 1_555
H37 C35 1_555 1_555
C39_2 C30 1_555 1_555
H47_2 C39_2 1_555 1_555
H48 C39_2 1_555 1_555
C40 C20_2 1_555 1_555
H49 C40 1_555 1_555
H50 C40 1_555 1_555
C13_2 C15_2 1_555 1_555
N7_2 C30 1_555 1_555
C33 C35 1_555 1_555
C39_2 C40 1_555 1_555
O1_2 Cd3 1_555 1_555
H16_2 C17_2 1_555 1_555
H17 C17_2 1_555 1_555
H18_2 C17_2 1_555 1_555
H22_2 C19_2 1_555 1_555
H31_2 C30_2 1_555 1_555
H33_2 C33_2 1_555 1_555
H37_2 C35_2 1_555 1_555
H49_2 C40_2 1_555 1_555
H50_2 C40_2 1_555 1_555
C33_2 C35_2 1_555 1_555
H19 C18 1_555 1_555
H20 C18 1_555 1_555
H21 C18 1_555 1_555
H34 C34 1_555 1_555
H35 C34 1_555 1_555
H36 C34 1_555 1_555
N9 Cd1_2 1_555 1_555
N1_2 C1_2 1_555 1_555
C1_2 C3_2 1_555 1_555
C2_2 C5_2 1_555 1_555
C3_2 H1_2 1_555 1_555
C4_2 H2_2 1_555 1_555
C5_2 C1_2 1_555 1_555
H3_2 C5_2 1_555 1_555
C6_2 C4_2 1_555 1_555
C7_2 C3_2 1_555 1_555
N2_2 N1_2 1_555 1_555
C8_2 C2_2 1_555 1_555
N9 C11_2 1_555 1_555
C9_2 C2_2 1_555 1_555
H5_2 C9_2 1_555 1_555
C11_2 C4_2 1_555 1_555
H7_2 C11_2 1_555 1_555
C12_2 C7_2 1_555 1_555
C16_2 C12_2 1_555 1_555
H13_2 C16_2 1_555 1_555
H14_2 C16_2 1_555 1_555
H15_2 C16_2 1_555 1_555
C18_2 C12_2 1_555 1_555
H19_2 C18_2 1_555 1_555
H20_2 C18_2 1_555 1_555
H21_2 C18_2 1_555 1_555
H34_2 C34_2 1_555 1_555
H35_2 C34_2 1_555 1_555
H36_2 C34_2 1_555 1_555
C6_2 N2_2 1_555 1_555
C7_2 C8_2 1_555 1_555
N10 Cd1_3 1_555 1_555
H6_3 C10_3 1_555 1_555
H8_3 C13_3 1_555 1_555
H12_3 C15_3 1_555 1_555
H24_3 C20_3 1_555 1_555
H25_3 C20_3 1_555 1_555
C13_3 C15_3 1_555 1_555
H9_3 C14_3 1_555 1_555
H10_3 C14_3 1_555 1_555
H11_3 C14_3 1_555 1_555
N5_3 C21_3 1_555 1_555
C21_3 C23_3 1_555 1_555
C22_3 C25_3 1_555 1_555
C23_3 H26_3 1_555 1_555
C24_3 H27_3 1_555 1_555
C25_3 C21_3 1_555 1_555
H28_3 C25_3 1_555 1_555
C26_3 C24_3 1_555 1_555
C27_3 C23_3 1_555 1_555
N6_3 N5_3 1_555 1_555
C28_3 C22_3 1_555 1_555
N8_3 C31_3 1_555 1_555
C29_3 C22_3 1_555 1_555
H30_3 C29_3 1_555 1_555
C31_3 C24_3 1_555 1_555
H32_3 C31_3 1_555 1_555
C32_3 C27_3 1_555 1_555
C36_3 C32_3 1_555 1_555
H38_3 C36_3 1_555 1_555
H39_3 C36_3 1_555 1_555
H40_3 C36_3 1_555 1_555
C38_3 C32_3 1_555 1_555
H44_3 C38_3 1_555 1_555
H45_3 C38_3 1_555 1_555
H46_3 C38_3 1_555 1_555
Cd3_2 N8_3 1_555 1_555
C26_3 N6_3 1_555 1_555
C27_3 C28_3 1_555 1_555
H9_4 C14_4 1_555 1_555
H10_4 C14_4 1_555 1_555
H11_4 C14_4 1_555 1_555
N5_4 C21_4 1_555 1_555
C21_4 C23_4 1_555 1_555
C22_4 C25_4 1_555 1_555
C23_4 H26_4 1_555 1_555
C24_4 H27_4 1_555 1_555
C25_4 C21_4 1_555 1_555
H28_4 C25_4 1_555 1_555
C26_4 C24_4 1_555 1_555
C27_4 C23_4 1_555 1_555
N6_4 N5_4 1_555 1_555
C28_4 C22_4 1_555 1_555
O2_3 Cd3_2 1_555 1_555
N10 C31_4 1_555 1_555
C29_4 C22_4 1_555 1_555
H29_3 C29_4 1_555 1_555
H30_4 C29_4 1_555 1_555
C31_4 C24_4 1_555 1_555
H32_4 C31_4 1_555 1_555
C32_4 C27_4 1_555 1_555
C36_4 C32_4 1_555 1_555
H38_4 C36_4 1_555 1_555
H39_4 C36_4 1_555 1_555
H40_4 C36_4 1_555 1_555
C37_3 C32_4 1_555 1_555
H41_3 C37_3 1_555 1_555
H42_4 C37_3 1_555 1_555
H43_3 C37_3 1_555 1_555
C38_4 C32_4 1_555 1_555
H44_4 C38_4 1_555 1_555
H45_4 C38_4 1_555 1_555
H46_4 C38_4 1_555 1_555
C26_4 N6_4 1_555 1_555
C27_4 C28_4 1_555 1_555
C28_4 O2_3 1_555 1_555
O2_4 Cd1_4 1_555 1_555
H41_4 C37_4 1_555 1_555
H43_4 C37_4 1_555 1_555
C10_4 N3_3 1_555 1_555
H6_4 C10_4 1_555 1_555
H8_4 C13_4 1_555 1_555
H12_4 C15_4 1_555 1_555
C19_3 C10_4 1_555 1_555
H22_3 C19_3 1_555 1_555
H23_4 C19_3 1_555 1_555
C20_4 C19_3 1_555 1_555
H24_4 C20_4 1_555 1_555
H25_4 C20_4 1_555 1_555
C30_3 C10_4 1_555 1_555
H31_3 C30_3 1_555 1_555
H33_3 C33_3 1_555 1_555
H37_3 C35_3 1_555 1_555
C39_3 C30_3 1_555 1_555
H47_3 C39_3 1_555 1_555
H48_3 C39_3 1_555 1_555
C40_3 C20_4 1_555 1_555
H49_3 C40_3 1_555 1_555
H50_3 C40_3 1_555 1_555
C13_4 C15_4 1_555 1_555
N7_3 C30_3 1_555 1_555
C33_3 C35_3 1_555 1_555
C39_3 C40_3 1_555 1_555
H22_4 C19_4 1_555 1_555
H31_4 C30_4 1_555 1_555
H33_4 C33_4 1_555 1_555
H37_4 C35_4 1_555 1_555
H49_4 C40_4 1_555 1_555
H50_4 C40_4 1_555 1_555
C33_4 C35_4 1_555 1_555
O1_3 Cd2_3 1_555 1_555
H16_3 C17_3 1_555 1_555
H17_3 C17_3 1_555 1_555
H18_3 C17_3 1_555 1_555
N9_2 Cd2_3 1_555 1_555
N1_3 C1_3 1_555 1_555
C1_3 C3_3 1_555 1_555
C2_3 C5_3 1_555 1_555
C3_3 H1_3 1_555 1_555
C4_3 H2_3 1_555 1_555
C5_3 C1_3 1_555 1_555
H3_3 C5_3 1_555 1_555
C6_3 C4_3 1_555 1_555
C7_3 C3_3 1_555 1_555
N2_3 N1_3 1_555 1_555
C8_3 C2_3 1_555 1_555
O1_4 Cd2_4 1_555 1_555
N9_2 C11_3 1_555 1_555
C9_3 C2_3 1_555 1_555
H4_4 C9_3 1_555 1_555
H5_3 C9_3 1_555 1_555
C11_3 C4_3 1_555 1_555
H7_3 C11_3 1_555 1_555
C12_3 C7_3 1_555 1_555
C16_3 C12_3 1_555 1_555
H13_3 C16_3 1_555 1_555
H14_3 C16_3 1_555 1_555
H15_3 C16_3 1_555 1_555
C17_4 C12_3 1_555 1_555
H16_4 C17_4 1_555 1_555
H17_4 C17_4 1_555 1_555
H18_4 C17_4 1_555 1_555
C18_3 C12_3 1_555 1_555
H19_3 C18_3 1_555 1_555
H20_3 C18_3 1_555 1_555
H21_3 C18_3 1_555 1_555
H34_3 C34_3 1_555 1_555
H35_3 C34_3 1_555 1_555
H36_3 C34_3 1_555 1_555
N9_3 Cd2_4 1_555 1_555
C6_3 N2_3 1_555 1_555
C7_3 C8_3 1_555 1_555
C8_3 O1_4 1_555 1_555
N1_4 C1_4 1_555 1_555
C1_4 C3_4 1_555 1_555
C2_4 C5_4 1_555 1_555
C3_4 H1_4 1_555 1_555
C4_4 H2_4 1_555 1_555
C5_4 C1_4 1_555 1_555
H3_4 C5_4 1_555 1_555
C6_4 C4_4 1_555 1_555
C7_4 C3_4 1_555 1_555
N2_4 N1_4 1_555 1_555
C8_4 C2_4 1_555 1_555
N9_3 C11_4 1_555 1_555
C9_4 C2_4 1_555 1_555
H5_4 C9_4 1_555 1_555
C11_4 C4_4 1_555 1_555
H7_4 C11_4 1_555 1_555
C12_4 C7_4 1_555 1_555
C16_4 C12_4 1_555 1_555
H13_4 C16_4 1_555 1_555
H14_4 C16_4 1_555 1_555
H15_4 C16_4 1_555 1_555
C18_4 C12_4 1_555 1_555
H19_4 C18_4 1_555 1_555
H20_4 C18_4 1_555 1_555
H21_4 C18_4 1_555 1_555
H34_4 C34_4 1_555 1_555
H35_4 C34_4 1_555 1_555
H36_4 C34_4 1_555 1_555
C6_4 N2_4 1_555 1_555
C7_4 C8_4 1_555 1_555
H47_4 C39_4 1_555 1_555
C14_5 N3_5 1_555 1_555
H9_5 C14_5 1_555 1_555
H10_5 C14_5 1_555 1_555
H11_5 C14_5 1_555 1_555
H22_5 C19_5 1_555 1_555
H44_5 C38_5 1_555 1_555
H45_5 C38_5 1_555 1_555
H46_5 C38_5 1_555 1_555
N5_5 C21_5 1_555 1_555
C21_5 C23_5 1_555 1_555
C22_5 C25_5 1_555 1_555
C23_5 H26_5 1_555 1_555
C24_5 H27_5 1_555 1_555
C25_5 C21_5 1_555 1_555
H28_5 C25_5 1_555 1_555
C26_5 C24_5 1_555 1_555
C27_5 C23_5 1_555 1_555
N6_5 N5_5 1_555 1_555
C28_5 C22_5 1_555 1_555
N8_4 C31_5 1_555 1_555
C29_5 C22_5 1_555 1_555
H30_5 C29_5 1_555 1_555
H31_5 C30_5 1_555 1_555
C31_5 C24_5 1_555 1_555
H32_5 C31_5 1_555 1_555
C32_5 C27_5 1_555 1_555
C33_5 N8_4 1_555 1_555
H33_5 C33_5 1_555 1_555
C35_5 C26_5 1_555 1_555
H37_5 C35_5 1_555 1_555
C36_5 C32_5 1_555 1_555
H38_5 C36_5 1_555 1_555
H40_5 C36_5 1_555 1_555
H49_5 C40_5 1_555 1_555
H50_5 C40_5 1_555 1_555
Cd2_5 N8_4 1_555 1_555
C26_5 N6_5 1_555 1_555
C27_5 C28_5 1_555 1_555
C33_5 C35_5 1_555 1_555
O1_5 Cd2_5 1_555 1_555
H16_5 C17_5 1_555 1_555
H17_5 C17_5 1_555 1_555
H18_5 C17_5 1_555 1_555
O2_5 Cd2_5 1_555 1_555
H41_5 C37_5 1_555 1_555
H42_5 C37_5 1_555 1_555
H43_5 C37_5 1_555 1_555
N9_4 Cd2_5 1_555 1_555
N1_5 C1_5 1_555 1_555
C1_5 C3_5 1_555 1_555
C2_5 C5_5 1_555 1_555
C3_5 H1_5 1_555 1_555
C4_5 H2_5 1_555 1_555
C5_5 C1_5 1_555 1_555
H3_5 C5_5 1_555 1_555
C6_5 C4_5 1_555 1_555
C7_5 C3_5 1_555 1_555
N2_5 N1_5 1_555 1_555
C8_5 C2_5 1_555 1_555
N9_4 C11_5 1_555 1_555
C9_5 C2_5 1_555 1_555
H5_5 C9_5 1_555 1_555
H6_5 C10_5 1_555 1_555
C11_5 C4_5 1_555 1_555
H7_5 C11_5 1_555 1_555
C12_5 C7_5 1_555 1_555
C13_5 N9_4 1_555 1_555
H8_5 C13_5 1_555 1_555
C15_5 C6_5 1_555 1_555
H12_5 C15_5 1_555 1_555
C16_5 C12_5 1_555 1_555
H13_5 C16_5 1_555 1_555
H14_5 C16_5 1_555 1_555
H15_5 C16_5 1_555 1_555
C18_5 C12_5 1_555 1_555
H19_5 C18_5 1_555 1_555
H20_5 C18_5 1_555 1_555
H21_5 C18_5 1_555 1_555
H24_5 C20_5 1_555 1_555
H25_5 C20_5 1_555 1_555
C34_5 N7_5 1_555 1_555
H34_5 C34_5 1_555 1_555
H35_5 C34_5 1_555 1_555
H36_5 C34_5 1_555 1_555
H47_5 C39_5 1_555 1_555
C6_5 N2_5 1_555 1_555
C7_5 C8_5 1_555 1_555
C13_5 C15_5 1_555 1_555
C14_6 N3_6 1_555 1_555
H9_6 C14_6 1_555 1_555
H10_6 C14_6 1_555 1_555
H11_6 C14_6 1_555 1_555
H22_6 C19_6 1_555 1_555
N5_6 C21_6 1_555 1_555
C21_6 C23_6 1_555 1_555
C22_6 C25_6 1_555 1_555
C23_6 H26_6 1_555 1_555
C24_6 H27_6 1_555 1_555
C25_6 C21_6 1_555 1_555
H28_6 C25_6 1_555 1_555
C26_6 C24_6 1_555 1_555
C27_6 C23_6 1_555 1_555
N6_6 N5_6 1_555 1_555
C28_6 C22_6 1_555 1_555
N8_5 C31_6 1_555 1_555
C29_6 C22_6 1_555 1_555
H30_6 C29_6 1_555 1_555
H31_6 C30_6 1_555 1_555
C31_6 C24_6 1_555 1_555
H32_6 C31_6 1_555 1_555
C32_6 C27_6 1_555 1_555
C33_6 N8_5 1_555 1_555
H33_6 C33_6 1_555 1_555
C35_6 C26_6 1_555 1_555
H37_6 C35_6 1_555 1_555
C36_6 C32_6 1_555 1_555
H38_6 C36_6 1_555 1_555
H39_6 C36_6 1_555 1_555
H40_6 C36_6 1_555 1_555
C38_6 C32_6 1_555 1_555
H44_6 C38_6 1_555 1_555
H45_6 C38_6 1_555 1_555
H46_6 C38_6 1_555 1_555
H49_6 C40_6 1_555 1_555
H50_6 C40_6 1_555 1_555
Cd2_6 N8_5 1_555 1_555
C26_6 N6_6 1_555 1_555
C27_6 C28_6 1_555 1_555
C33_6 C35_6 1_555 1_555
O1_6 Cd2_6 1_555 1_555
H16_6 C17_6 1_555 1_555
H17_6 C17_6 1_555 1_555
H18_6 C17_6 1_555 1_555
O2_6 Cd2_6 1_555 1_555
H41_6 C37_6 1_555 1_555
H42_6 C37_6 1_555 1_555
H43_6 C37_6 1_555 1_555
N9_5 Cd2_6 1_555 1_555
N1_6 C1_6 1_555 1_555
C1_6 C3_6 1_555 1_555
C2_6 C5_6 1_555 1_555
C3_6 H1_6 1_555 1_555
C4_6 H2_6 1_555 1_555
C5_6 C1_6 1_555 1_555
H3_6 C5_6 1_555 1_555
C6_6 C4_6 1_555 1_555
C7_6 C3_6 1_555 1_555
N2_6 N1_6 1_555 1_555
C8_6 C2_6 1_555 1_555
N9_5 C11_6 1_555 1_555
C9_6 C2_6 1_555 1_555
H5_6 C9_6 1_555 1_555
H6_6 C10_6 1_555 1_555
C11_6 C4_6 1_555 1_555
H7_6 C11_6 1_555 1_555
C12_6 C7_6 1_555 1_555
C13_6 N9_5 1_555 1_555
H8_6 C13_6 1_555 1_555
C15_6 C6_6 1_555 1_555
H12_6 C15_6 1_555 1_555
C16_6 C12_6 1_555 1_555
H13_6 C16_6 1_555 1_555
H14_6 C16_6 1_555 1_555
H15_6 C16_6 1_555 1_555
C18_6 C12_6 1_555 1_555
H19_6 C18_6 1_555 1_555
H20_6 C18_6 1_555 1_555
H21_6 C18_6 1_555 1_555
H24_6 C20_6 1_555 1_555
H25_6 C20_6 1_555 1_555
C34_6 N7_6 1_555 1_555
H34_6 C34_6 1_555 1_555
H35_6 C34_6 1_555 1_555
H36_6 C34_6 1_555 1_555
H47_6 C39_6 1_555 1_555
C6_6 N2_6 1_555 1_555
C7_6 C8_6 1_555 1_555
C13_6 C15_6 1_555 1_555

#END
