
###############################################################################
#
# This file contains modified crystal structure data generated from the
# MOF subset of the Cambridge Structural Database (CSD) v543 
# hosted by the Cambridge Crystallographic Data Centre (CCDC).
#
# This work is licensed under the Creative Commons
# Attribution-NonCommercial-ShareAlike 4.0 International License.
# To view a copy of this license, visit
# http://creativecommons.org/licenses/by-nc-sa/4.0/
# or send a letter to
# Creative Commons, PO Box 1866, Mountain View, CA 94042, USA.
#
# CIF created using the CSD Python API on 29 September 2022
# The structure has been converted into the P1 space group
# The structure has a 3D framework
# The original CSD entry ZONBAH is in the monoclinic crystal system
# The framework has been calculated to contain at least 10.0% void space
# The void calculation uses a probe of radius 1.32A, grid spacing 0.4
# H atom positions have been added when not included in the experimental data
#
###############################################################################

data_ZONBAH
_chemical_formula_moiety         '(C72 H32 O29 Zr5)n'
_symmetry_cell_setting           triclinic
_symmetry_space_group_name_H-M   'P 1'
_symmetry_Int_Tables_number      1
_space_group_name_Hall           'P 1'
loop_
_symmetry_equiv_pos_site_id
_symmetry_equiv_pos_as_xyz
1 x,y,z
_cell_length_a                   24.4243(10)
_cell_length_b                   11.1795(10)
_cell_length_c                   7.8022(10)
_cell_angle_alpha                90
_cell_angle_beta                 103.861(2)
_cell_angle_gamma                90
_cell_volume                     2068.36
loop_
_atom_site_label
_atom_site_type_symbol
_atom_site_fract_x
_atom_site_fract_y
_atom_site_fract_z
_atom_site_U_iso_or_equiv
_atom_site_thermal_displace_type
C5 C 0.0000 0.2488 0.2500 0.0800 Uiso
C6 C 0.0000 0.7834 0.2500 0.0800 Uiso
C7 C 0.0000 0.6540 0.2500 0.0800 Uiso
C8 C -0.0000 0.3968 0.2500 0.0800 Uiso
C9 C 0.0465 0.5891 0.2185 0.0800 Uiso
C10 C 0.0435 0.4593 0.2019 0.0800 Uiso
O6 O 0.0432 0.1864 0.2221 0.0800 Uiso
O7 O 0.0363 0.7996 0.1580 0.0800 Uiso
Zr4 Zr 0.0555 0.9830 0.1665 0.0800 Uiso
Zr6 Zr 0.0555 0.0170 0.6665 0.0800 Uiso
O16 O 0.1360 0.0704 0.2537 0.0800 Uiso
H3 H 0.0751856 0.411056 0.151981 . .
H4 H 0.0844435 0.636245 0.206717 . .
O10 O 0.0302 0.0207 0.8944 0.0800 Uiso
O11 O 0.1148 0.9135 0.0151 0.0800 Uiso
O12 O 0.0302 0.9793 0.3944 0.0800 Uiso
O1 O 0.9568 0.1864 0.2779 0.0800 Uiso
O3 O 0.9698 0.0207 0.6056 0.0800 Uiso
O4 O 0.9637 0.7996 0.3420 0.0800 Uiso
C5_2 C 1.0000 0.2488 0.2500 0.0800 Uiso
C6_2 C 1.0000 0.7834 0.2500 0.0800 Uiso
C7_2 C 1.0000 0.6540 0.2500 0.0800 Uiso
C8_2 C 1.0000 0.3968 0.2500 0.0800 Uiso
C11 C 0.9535 0.5891 0.2815 0.0800 Uiso
C12 C 0.9565 0.4593 0.2981 0.0800 Uiso
Zr3 Zr 0.9445 0.9830 0.3335 0.0800 Uiso
Zr8 Zr 0.9445 0.0170 0.8335 0.0800 Uiso
O17 O 0.8640 0.0704 0.2463 0.0800 Uiso
H5 H 0.915556 0.636245 0.293283 . .
H6 H 0.924814 0.411056 0.348019 . .
O2 O 0.8852 0.9135 0.4849 0.0800 Uiso
O5 O 0.8640 0.9296 0.7463 0.0800 Uiso
C1 C 0.8490 0.9005 0.5880 0.0800 Uiso
C2 C 0.8019 0.8276 0.5232 0.0800 Uiso
C3 C 0.7859 0.7606 0.3754 0.0800 Uiso
C4 C 0.7613 0.8178 0.6409 0.0800 Uiso
O8 O 0.6148 0.5865 0.5151 0.0800 Uiso
C13 C 0.6510 0.5995 0.4120 0.0800 Uiso
C14 C 0.6981 0.6724 0.4768 0.0800 Uiso
C15 C 0.7141 0.7394 0.6246 0.0800 Uiso
C16 C 0.7387 0.6822 0.3591 0.0800 Uiso
O9 O 0.6360 0.5704 0.2537 0.0800 Uiso
Zr9 Zr 0.5555 0.4830 0.1665 0.0800 Uiso
Zr10 Zr 0.5555 0.5170 0.6665 0.0800 Uiso
O13 O 0.9698 0.9793 0.1056 0.0800 Uiso
H1 H 0.808476 0.766236 0.271052 . .
H2 H 0.768967 0.878539 0.753253 . .
H7 H 0.731033 0.621461 0.246747 . .
H8 H 0.691524 0.733764 0.728948 . .
C3_2 C 0.2141 0.7606 0.1246 0.0800 Uiso
C13_2 C 0.3490 0.5995 0.0880 0.0800 Uiso
C14_2 C 0.3019 0.6724 0.0232 0.0800 Uiso
C16_2 C 0.2613 0.6822 0.1409 0.0800 Uiso
O9_2 O 0.3640 0.5704 0.2463 0.0800 Uiso
Zr9_2 Zr 0.4445 0.4830 0.3335 0.0800 Uiso
H1_2 H 0.191524 0.766236 0.228948 . .
H7_2 H 0.268967 0.621461 0.253253 . .
O5_2 O 0.1360 0.9296 0.7537 0.0800 Uiso
C1_2 C 0.1510 0.9005 0.9120 0.0800 Uiso
C2_2 C 0.1981 0.8276 0.9768 0.0800 Uiso
C4_2 C 0.2387 0.8178 0.8591 0.0800 Uiso
O8_2 O 0.3852 0.5865 0.9849 0.0800 Uiso
C15_2 C 0.2859 0.7394 0.8754 0.0800 Uiso
Zr10_2 Zr 0.4445 0.5170 0.8335 0.0800 Uiso
H2_2 H 0.231033 0.878539 0.746747 . .
H8_2 H 0.308476 0.733764 0.771052 . .
O4_2 O 0.4637 0.2996 0.3420 0.0800 Uiso
C6_3 C 0.5000 0.2834 0.2500 0.0800 Uiso
C7_3 C 0.5000 0.1540 0.2500 0.0800 Uiso
C9_2 C 0.5465 0.0891 0.2185 0.0800 Uiso
O7_2 O 0.5363 0.2996 0.1580 0.0800 Uiso
C11_2 C 0.4535 0.0891 0.2815 0.0800 Uiso
H4_2 H 0.584444 0.136245 0.206717 . .
H5_2 H 0.415556 0.136245 0.293283 . .
O1_2 O 0.4568 0.6864 0.2779 0.0800 Uiso
O2_2 O 0.3852 0.4135 0.4849 0.0800 Uiso
O3_2 O 0.4698 0.5207 0.6056 0.0800 Uiso
O5_3 O 0.3640 0.4296 0.7463 0.0800 Uiso
C1_3 C 0.3490 0.4005 0.5880 0.0800 Uiso
C2_3 C 0.3019 0.3276 0.5232 0.0800 Uiso
C3_3 C 0.2859 0.2606 0.3754 0.0800 Uiso
C4_3 C 0.2613 0.3178 0.6409 0.0800 Uiso
C5_3 C 0.5000 0.7488 0.2500 0.0800 Uiso
C8_3 C 0.5000 0.8968 0.2500 0.0800 Uiso
C10_2 C 0.5435 0.9593 0.2019 0.0800 Uiso
O6_2 O 0.5432 0.6864 0.2221 0.0800 Uiso
C12_2 C 0.4565 0.9593 0.2981 0.0800 Uiso
O8_3 O 0.1148 0.0865 0.5151 0.0800 Uiso
C13_3 C 0.1510 0.0995 0.4120 0.0800 Uiso
C14_3 C 0.1981 0.1724 0.4768 0.0800 Uiso
C15_3 C 0.2141 0.2394 0.6246 0.0800 Uiso
C16_3 C 0.2387 0.1822 0.3591 0.0800 Uiso
O11_2 O 0.6148 0.4135 0.0151 0.0800 Uiso
O12_2 O 0.5302 0.4793 0.3944 0.0800 Uiso
O13_2 O 0.4698 0.4793 0.1056 0.0800 Uiso
H1_3 H 0.308476 0.266236 0.271052 . .
H2_3 H 0.268967 0.378539 0.753253 . .
H3_2 H 0.575186 0.911056 0.151981 . .
H6_2 H 0.424814 0.911056 0.348019 . .
H7_3 H 0.231033 0.121461 0.246747 . .
H8_3 H 0.191524 0.233764 0.728948 . .
O10_2 O 0.5302 0.5207 0.8944 0.0800 Uiso
C3_4 C 0.7141 0.2606 0.1246 0.0800 Uiso
C13_4 C 0.8490 0.0995 0.0880 0.0800 Uiso
C14_4 C 0.8019 0.1724 0.0232 0.0800 Uiso
C16_4 C 0.7613 0.1822 0.1409 0.0800 Uiso
H1_4 H 0.691524 0.266236 0.228948 . .
H7_4 H 0.768967 0.121461 0.253253 . .
O5_4 O 0.6360 0.4296 0.7537 0.0800 Uiso
C1_4 C 0.6510 0.4005 0.9120 0.0800 Uiso
C2_4 C 0.6981 0.3276 0.9768 0.0800 Uiso
C4_4 C 0.7387 0.3178 0.8591 0.0800 Uiso
O8_4 O 0.8852 0.0865 0.9849 0.0800 Uiso
C15_4 C 0.7859 0.2394 0.8754 0.0800 Uiso
H2_4 H 0.731033 0.378539 0.746747 . .
H8_4 H 0.808476 0.233764 0.771052 . .
O14 O 0.0363 0.2004 0.6580 0.0800 Uiso
O1_3 O 0.0432 0.8136 0.7221 0.0800 Uiso
C5_4 C 0.0000 0.7512 0.7500 0.0800 Uiso
C6_4 C 0.0000 0.2166 0.7500 0.0800 Uiso
C7_4 C 0.0000 0.3460 0.7500 0.0800 Uiso
C8_4 C 0.0000 0.6032 0.7500 0.0800 Uiso
C11_3 C 0.0465 0.4109 0.7185 0.0800 Uiso
C12_3 C 0.0435 0.5407 0.7019 0.0800 Uiso
H5_3 H 0.0844435 0.363755 0.706717 . .
H6_3 H 0.0751856 0.588944 0.651981 . .
O15 O 0.9637 0.2004 0.8420 0.0800 Uiso
C5_5 C 1.0000 0.7512 0.7500 0.0800 Uiso
C6_5 C 1.0000 0.2166 0.7500 0.0800 Uiso
C7_5 C 1.0000 0.3460 0.7500 0.0800 Uiso
C8_5 C 1.0000 0.6032 0.7500 0.0800 Uiso
C9_3 C 0.9535 0.4109 0.7815 0.0800 Uiso
C10_3 C 0.9565 0.5407 0.7981 0.0800 Uiso
O6_3 O 0.9568 0.8136 0.7779 0.0800 Uiso
H3_3 H 0.924814 0.588944 0.848019 . .
H4_3 H 0.915556 0.363755 0.793283 . .
O1_4 O 0.5432 0.3136 0.7221 0.0800 Uiso
C5_6 C 0.5000 0.2512 0.7500 0.0800 Uiso
C8_6 C 0.5000 0.1032 0.7500 0.0800 Uiso
C10_4 C 0.4565 0.0407 0.7981 0.0800 Uiso
O6_4 O 0.4568 0.3136 0.7779 0.0800 Uiso
C12_4 C 0.5435 0.0407 0.7019 0.0800 Uiso
O14_2 O 0.5363 0.7004 0.6580 0.0800 Uiso
O15_2 O 0.4637 0.7004 0.8420 0.0800 Uiso
H3_4 H 0.424814 0.0889437 0.848019 . .
H6_4 H 0.575186 0.0889437 0.651981 . .
C6_6 C 0.5000 0.7166 0.7500 0.0800 Uiso
C7_6 C 0.5000 0.8460 0.7500 0.0800 Uiso
C9_4 C 0.4535 0.9109 0.7815 0.0800 Uiso
C11_4 C 0.5465 0.9109 0.7185 0.0800 Uiso
H4_4 H 0.415556 0.863755 0.793283 . .
H5_4 H 0.584444 0.863755 0.706717 . .
loop_
_geom_bond_atom_site_label_1
_geom_bond_atom_site_label_2
_geom_bond_site_symmetry_1
_geom_bond_site_symmetry_2
C5 C8 1_555 1_555
C6 C7 1_555 1_555
C7 C9 1_555 1_555
C8 C10 1_555 1_555
C9 C10 1_555 1_555
O6 C5 1_555 1_555
O7 C6 1_555 1_555
Zr4 O7 1_555 1_555
C10 H3 1_555 1_555
C9 H4 1_555 1_555
Zr6 O10 1_555 1_555
O11 Zr4 1_555 1_555
Zr4 O12 1_555 1_555
O1 C5_2 1_555 1_555
O4 C6_2 1_555 1_555
C5_2 C8_2 1_555 1_555
C6_2 C7_2 1_555 1_555
C11 C7_2 1_555 1_555
C12 C8_2 1_555 1_555
Zr3 O4 1_555 1_555
Zr8 O3 1_555 1_555
C11 C12 1_555 1_555
C11 H5 1_555 1_555
C12 H6 1_555 1_555
O2 Zr3 1_555 1_555
O5 C1 1_555 1_555
C1 O2 1_555 1_555
C2 C1 1_555 1_555
C3 C2 1_555 1_555
C4 C2 1_555 1_555
O8 C13 1_555 1_555
C13 C14 1_555 1_555
C14 C15 1_555 1_555
C15 C4 1_555 1_555
C16 C3 1_555 1_555
O9 C13 1_555 1_555
Zr9 O9 1_555 1_555
Zr10 O8 1_555 1_555
O13 Zr3 1_555 1_555
C14 C16 1_555 1_555
C3 H1 1_555 1_555
C4 H2 1_555 1_555
C16 H7 1_555 1_555
C15 H8 1_555 1_555
C13_2 C14_2 1_555 1_555
C16_2 C3_2 1_555 1_555
O9_2 C13_2 1_555 1_555
Zr9_2 O9_2 1_555 1_555
C14_2 C16_2 1_555 1_555
C3_2 H1_2 1_555 1_555
C16_2 H7_2 1_555 1_555
O5_2 C1_2 1_555 1_555
C2_2 C1_2 1_555 1_555
C4_2 C2_2 1_555 1_555
C15_2 C4_2 1_555 1_555
Zr10_2 O8_2 1_555 1_555
C4_2 H2_2 1_555 1_555
C15_2 H8_2 1_555 1_555
O4_2 C6_3 1_555 1_555
C6_3 C7_3 1_555 1_555
C7_3 C9_2 1_555 1_555
O7_2 C6_3 1_555 1_555
C11_2 C7_3 1_555 1_555
Zr9_2 O4_2 1_555 1_555
Zr9 O7_2 1_555 1_555
Zr9_2 Zr9 1_555 1_555
C9_2 H4_2 1_555 1_555
C11_2 H5_2 1_555 1_555
Zr9_2 O1_2 1_555 1_555
O1_2 C5_3 1_555 1_555
O2_2 Zr9_2 1_555 1_555
O3_2 Zr9_2 1_555 1_555
O5_3 C1_3 1_555 1_555
C1_3 O2_2 1_555 1_555
C2_3 C1_3 1_555 1_555
C3_3 C2_3 1_555 1_555
C4_3 C2_3 1_555 1_555
C5_3 C8_3 1_555 1_555
C8_3 C10_2 1_555 1_555
O6_2 C5_3 1_555 1_555
C12_2 C8_3 1_555 1_555
O8_3 C13_3 1_555 1_555
C13_3 C14_3 1_555 1_555
C14_3 C15_3 1_555 1_555
C15_3 C4_3 1_555 1_555
C16_3 C3_3 1_555 1_555
O16 C13_3 1_555 1_555
Zr10 Zr9_2 1_555 1_555
Zr10_2 O3_2 1_555 1_555
Zr6 O8_3 1_555 1_555
O11_2 Zr9 1_555 1_555
O12_2 Zr9_2 1_555 1_555
O13_2 Zr9_2 1_555 1_555
O3_2 Zr10 1_555 1_555
O5_3 Zr10_2 1_555 1_555
O6_2 Zr9 1_555 1_555
C14_3 C16_3 1_555 1_555
Zr9 O12_2 1_555 1_555
Zr9 O13_2 1_555 1_555
Zr10 Zr10_2 1_555 1_555
Zr10 O12_2 1_555 1_555
C3_3 H1_3 1_555 1_555
C4_3 H2_3 1_555 1_555
C10_2 H3_2 1_555 1_555
C12_2 H6_2 1_555 1_555
C16_3 H7_3 1_555 1_555
C15_3 H8_3 1_555 1_555
Zr10 O10_2 1_555 1_555
O10_2 Zr10_2 1_555 1_555
C13_4 C14_4 1_555 1_555
C16_4 C3_4 1_555 1_555
O17 C13_4 1_555 1_555
C14_4 C16_4 1_555 1_555
C3_4 H1_4 1_555 1_555
C16_4 H7_4 1_555 1_555
O5_4 C1_4 1_555 1_555
C2_4 C1_4 1_555 1_555
C4_4 C2_4 1_555 1_555
C15_4 C4_4 1_555 1_555
Zr8 O8_4 1_555 1_555
O5_4 Zr10 1_555 1_555
C4_4 H2_4 1_555 1_555
C15_4 H8_4 1_555 1_555
O14 Zr6 1_555 1_555
O1_3 C5_4 1_555 1_555
O14 C6_4 1_555 1_555
C5_4 C8_4 1_555 1_555
C6_4 C7_4 1_555 1_555
C11_3 C7_4 1_555 1_555
C12_3 C8_4 1_555 1_555
C11_3 C12_3 1_555 1_555
C11_3 H5_3 1_555 1_555
C12_3 H6_3 1_555 1_555
O15 Zr8 1_555 1_555
C5_5 C8_5 1_555 1_555
C6_5 C7_5 1_555 1_555
C7_5 C9_3 1_555 1_555
C8_5 C10_3 1_555 1_555
C9_3 C10_3 1_555 1_555
O6_3 C5_5 1_555 1_555
O15 C6_5 1_555 1_555
C10_3 H3_3 1_555 1_555
C9_3 H4_3 1_555 1_555
Zr10 O1_4 1_555 1_555
O1_4 C5_6 1_555 1_555
C5_6 C8_6 1_555 1_555
C8_6 C10_4 1_555 1_555
O6_4 C5_6 1_555 1_555
C12_4 C8_6 1_555 1_555
O14_2 Zr10 1_555 1_555
O15_2 Zr10_2 1_555 1_555
O6_4 Zr10_2 1_555 1_555
C10_4 H3_4 1_555 1_555
C12_4 H6_4 1_555 1_555
O14_2 C6_6 1_555 1_555
C6_6 C7_6 1_555 1_555
C7_6 C9_4 1_555 1_555
O15_2 C6_6 1_555 1_555
C11_4 C7_6 1_555 1_555
C9_4 H4_4 1_555 1_555
C11_4 H5_4 1_555 1_555

#END
