
###############################################################################
#
# This file contains modified crystal structure data generated from the
# MOF subset of the Cambridge Structural Database (CSD) v543 
# hosted by the Cambridge Crystallographic Data Centre (CCDC).
#
# This work is licensed under the Creative Commons
# Attribution-NonCommercial-ShareAlike 4.0 International License.
# To view a copy of this license, visit
# http://creativecommons.org/licenses/by-nc-sa/4.0/
# or send a letter to
# Creative Commons, PO Box 1866, Mountain View, CA 94042, USA.
#
# CIF created using the CSD Python API on 29 September 2022
# The structure has been converted into the P1 space group
# The structure has a 3D framework
# The original CSD entry ZOPGUJ is in the monoclinic crystal system
# The framework has been calculated to contain at least 10.0% void space
# The void calculation uses a probe of radius 1.32A, grid spacing 0.4
#
###############################################################################

data_ZOPGUJ
_chemical_formula_moiety         '(C152 H112 N8 Ni8 O46)n'
_symmetry_cell_setting           triclinic
_symmetry_space_group_name_H-M   'P 1'
_symmetry_Int_Tables_number      1
_space_group_name_Hall           'P 1'
loop_
_symmetry_equiv_pos_site_id
_symmetry_equiv_pos_as_xyz
1 x,y,z
_cell_length_a                   19.978(8)
_cell_length_b                   10.945(3)
_cell_length_c                   21.970(5)
_cell_angle_alpha                90
_cell_angle_beta                 93.146(10)
_cell_angle_gamma                90
_cell_volume                     4796.7
loop_
_atom_site_label
_atom_site_type_symbol
_atom_site_fract_x
_atom_site_fract_y
_atom_site_fract_z
Ni1 Ni 0.00606(2) 0.24853(3) 0.33035(2)
O5 O 0.00771(10) 0.13822(18) 0.40846(8)
H1 H 0.005719 0.169360 0.443757
O6 O 0.000000 0.3529(2) 0.250000
H3 H 0.031700 0.399604 0.240360
O7 O 0.08217(8) 0.16056(16) 0.19869(7)
O8 O 0.06308(9) 0.11300(16) 0.29585(7)
H17 H 0.029391 0.100630 0.089943
C20 C 0.09195(11) 0.0993(2) 0.24684(10)
H21 H 0.191512 0.054210 0.172428
O13 O 0.05123(8) 0.37000(17) 0.12280(7)
N3 N 0.09524(10) 0.33642(19) 0.36296(8)
O9 O 0.40620(10) 0.02488(19) 0.79634(8)
O10 O 0.44877(8) 0.13000(17) 0.87720(7)
H28 H 0.407464 0.016508 0.972286
C38 C 0.40805(12) 0.0553(2) 0.85181(11)
Ni6 Ni 0.50606(2) 0.25147(3) 0.83035(2)
N2 N 0.40476(10) 0.83642(19) 0.13704(8)
C21 C 0.14451(13) 0.9088(2) 0.29157(11)
H18 H 0.113828 0.912324 0.321858
C22 C 0.19058(14) 0.8133(3) 0.29131(13)
H19 H 0.189783 0.751900 0.320541
C23 C 0.23766(13) 0.8102(2) 0.24720(12)
H20 H 0.268581 0.746701 0.247279
C24 C 0.23935(12) 0.9009(2) 0.20277(10)
C25 C 0.19163(11) 0.9943(2) 0.20247(10)
C26 C 0.14400(11) 0.9989(2) 0.24691(10)
C27 C 0.29174(11) 0.8956(2) 0.15730(10)
C28 C 0.35517(11) 0.8504(2) 0.17508(10)
H22 H 0.363488 0.828793 0.215731
C29 C 0.39255(11) 0.8678(2) 0.07843(10)
H23 H 0.426735 0.858371 0.051734
C30 C 0.33106(12) 0.9140(2) 0.05556(10)
C31 C 0.28040(12) 0.9291(2) 0.09635(10)
H24 H 0.239171 0.961467 0.082864
Ni4 Ni 0.49394(2) 0.74853(3) 0.16965(2)
O1 O 0.91783(8) 0.16056(16) 0.30131(7)
O2 O 0.93692(9) 0.11300(16) 0.20415(7)
O3 O 0.59380(10) 0.02488(19) 0.70366(8)
O4 O 0.55123(8) 0.13000(17) 0.62280(7)
H2 H 0.970609 0.100630 0.410057
O6_2 O 1.000000 0.3529(2) 0.250000
C1 C 0.90805(11) 0.0993(2) 0.25316(10)
H7 H 0.808488 0.054210 0.327572
H14 H 0.592536 0.016508 0.527714
C19 C 0.59195(12) 0.0553(2) 0.64819(11)
H15 H 0.968300 0.399604 0.259640
Ni2 Ni 0.99394(2) 0.24853(3) 0.16965(2)
O11 O 0.99229(10) 0.13822(18) 0.09154(8)
H16 H 0.994281 0.169360 0.056243
Ni5 Ni 0.49394(2) 0.25147(3) 0.66965(2)
O12 O 0.94877(8) 0.37000(17) 0.37720(7)
N4 N 0.90476(10) 0.33642(19) 0.13704(8)
N1 N 0.59524(10) 0.83642(19) 0.36296(8)
C2 C 0.85549(13) 0.9088(2) 0.20843(11)
H4 H 0.886172 0.912324 0.178142
C3 C 0.80942(14) 0.8133(3) 0.20869(13)
H5 H 0.810217 0.751900 0.179459
C4 C 0.76234(13) 0.8102(2) 0.25280(12)
H6 H 0.731419 0.746701 0.252721
C5 C 0.76065(12) 0.9009(2) 0.29723(10)
C6 C 0.80837(11) 0.9943(2) 0.29753(10)
C7 C 0.85600(11) 0.9989(2) 0.25309(10)
C8 C 0.70826(11) 0.8956(2) 0.34270(10)
C9 C 0.64483(11) 0.8504(2) 0.32492(10)
H8 H 0.636512 0.828793 0.284269
C10 C 0.60745(11) 0.8678(2) 0.42157(10)
H9 H 0.573265 0.858371 0.448266
C11 C 0.66894(12) 0.9140(2) 0.44444(10)
C12 C 0.71960(12) 0.9291(2) 0.40365(10)
H10 H 0.760829 0.961467 0.417136
C13 C 0.68123(12) 0.9355(2) 0.51105(10)
C14 C 0.74203(12) 0.8977(2) 0.54005(11)
H11 H 0.775383 0.865500 0.516859
C15 C 0.75323(13) 0.9074(3) 0.60256(12)
H12 H 0.793829 0.882031 0.621108
C16 C 0.70359(13) 0.9553(2) 0.63760(11)
H13 H 0.710417 0.959251 0.679766
C17 C 0.64346(12) 0.9975(2) 0.60959(10)
C18 C 0.63241(12) 0.9879(2) 0.54640(10)
Ni3 Ni 0.50606(2) 0.74853(3) 0.33035(2)
Ni6_2 Ni 0.00606(2) 0.75147(3) 0.83035(2)
O1_2 O 0.41783(8) 0.66056(16) 0.30131(7)
O2_2 O 0.43692(9) 0.61300(16) 0.20415(7)
O3_2 O 0.09380(10) 0.52488(19) 0.70366(8)
O4_2 O 0.05123(8) 0.63000(17) 0.62280(7)
O5_2 O 0.50771(10) 0.63822(18) 0.40846(8)
H1_2 H 0.505719 0.669360 0.443757
H2_2 H 0.470609 0.600630 0.410057
O6_3 O 0.500000 0.8529(2) 0.250000
H3_2 H 0.531700 0.899604 0.240360
C1_2 C 0.40805(11) 0.5993(2) 0.25316(10)
C2_2 C 0.35549(13) 0.4088(2) 0.20843(11)
H4_2 H 0.386172 0.412324 0.178142
C3_2 C 0.30942(14) 0.3133(3) 0.20869(13)
H5_2 H 0.310217 0.251900 0.179459
C4_2 C 0.26234(13) 0.3102(2) 0.25280(12)
H6_2 H 0.231419 0.246701 0.252721
C5_2 C 0.26065(12) 0.4009(2) 0.29723(10)
C6_2 C 0.30837(11) 0.4943(2) 0.29753(10)
H7_2 H 0.308488 0.554210 0.327572
C7_2 C 0.35600(11) 0.4989(2) 0.25309(10)
C8_2 C 0.20826(11) 0.3956(2) 0.34270(10)
C9_2 C 0.14483(11) 0.3504(2) 0.32492(10)
H8_2 H 0.136512 0.328793 0.284269
C10_2 C 0.10745(11) 0.3678(2) 0.42157(10)
H9_2 H 0.073265 0.358371 0.448266
C11_2 C 0.16894(12) 0.4140(2) 0.44444(10)
C12_2 C 0.21960(12) 0.4291(2) 0.40365(10)
H10_2 H 0.260829 0.461467 0.417136
C13_2 C 0.18123(12) 0.4355(2) 0.51105(10)
C14_2 C 0.24203(12) 0.3977(2) 0.54005(11)
H11_2 H 0.275383 0.365500 0.516859
C15_2 C 0.25323(13) 0.4074(3) 0.60256(12)
H12_2 H 0.293829 0.382031 0.621108
C16_2 C 0.20359(13) 0.4553(2) 0.63760(11)
H13_2 H 0.210417 0.459251 0.679766
C17_2 C 0.14346(12) 0.4975(2) 0.60959(10)
C18_2 C 0.13241(12) 0.4879(2) 0.54640(10)
H14_2 H 0.092536 0.516508 0.527714
C19_2 C 0.09195(12) 0.5553(2) 0.64819(11)
H15_2 H 0.468300 0.899604 0.259640
O7_2 O 0.58217(8) 0.66056(16) 0.19869(7)
O8_2 O 0.56308(9) 0.61300(16) 0.29585(7)
O11_2 O 0.49229(10) 0.63822(18) 0.09154(8)
H16_2 H 0.494281 0.669360 0.056243
H17_2 H 0.529391 0.600630 0.089943
C20_2 C 0.59195(11) 0.5993(2) 0.24684(10)
C21_2 C 0.64451(13) 0.4088(2) 0.29157(11)
H18_2 H 0.613828 0.412324 0.321858
C22_2 C 0.69058(14) 0.3133(3) 0.29131(13)
H19_2 H 0.689783 0.251900 0.320541
C23_2 C 0.73766(13) 0.3102(2) 0.24720(12)
H20_2 H 0.768581 0.246701 0.247279
C24_2 C 0.73935(12) 0.4009(2) 0.20277(10)
C25_2 C 0.69163(11) 0.4943(2) 0.20247(10)
H21_2 H 0.691512 0.554210 0.172428
C26_2 C 0.64400(11) 0.4989(2) 0.24691(10)
C27_2 C 0.79174(11) 0.3956(2) 0.15730(10)
C28_2 C 0.85517(11) 0.3504(2) 0.17508(10)
H22_2 H 0.863488 0.328793 0.215731
C29_2 C 0.89255(11) 0.3678(2) 0.07843(10)
H23_2 H 0.926735 0.358371 0.051734
C30_2 C 0.83106(12) 0.4140(2) 0.05556(10)
C31_2 C 0.78040(12) 0.4291(2) 0.09635(10)
H24_2 H 0.739171 0.461467 0.082864
O12_2 O 0.44877(8) 0.87000(17) 0.37720(7)
O13_2 O 0.55123(8) 0.87000(17) 0.12280(7)
O9_2 O 0.90620(10) 0.52488(19) 0.79634(8)
O10_2 O 0.94877(8) 0.63000(17) 0.87720(7)
C32 C 0.81877(12) 0.4355(2) 0.98895(10)
C33 C 0.75797(12) 0.3977(2) 0.95995(11)
H25 H 0.724617 0.365500 0.983141
C34 C 0.74677(13) 0.4074(3) 0.89744(12)
H26 H 0.706171 0.382031 0.878892
C35 C 0.79641(13) 0.4553(2) 0.86240(11)
H27 H 0.789583 0.459251 0.820234
C36 C 0.85654(12) 0.4975(2) 0.89041(10)
C37 C 0.86759(12) 0.4879(2) 0.95360(10)
H28_2 H 0.907464 0.516508 0.972286
C38_2 C 0.90805(12) 0.5553(2) 0.85181(11)
Ni5_2 Ni 0.99394(2) 0.75147(3) 0.66965(2)
N1_2 N 0.40476(10) 0.16358(19) 0.63704(8)
C2_3 C 0.14451(13) 0.0912(2) 0.79157(11)
H4_3 H 0.113828 0.087676 0.821858
C3_3 C 0.19058(14) 0.1867(3) 0.79131(13)
H5_3 H 0.189783 0.248100 0.820541
C4_3 C 0.23766(13) 0.1898(2) 0.74720(12)
H6_3 H 0.268581 0.253299 0.747279
C5_3 C 0.23935(12) 0.0991(2) 0.70277(10)
C6_3 C 0.19163(11) 0.0057(2) 0.70247(10)
C7_3 C 0.14400(11) 0.0011(2) 0.74691(10)
C8_3 C 0.29174(11) 0.1044(2) 0.65730(10)
C9_3 C 0.35517(11) 0.1496(2) 0.67508(10)
H8_3 H 0.363488 0.171207 0.715731
C10_3 C 0.39255(11) 0.1322(2) 0.57843(10)
H9_3 H 0.426735 0.141629 0.551734
C11_3 C 0.33106(12) 0.0860(2) 0.55556(10)
C12_3 C 0.28040(12) 0.0709(2) 0.59635(10)
H10_3 H 0.239171 0.038533 0.582864
C13_3 C 0.31877(12) 0.0645(2) 0.48895(10)
C14_3 C 0.25797(12) 0.1023(2) 0.45995(11)
H11_3 H 0.224617 0.134500 0.483141
C15_3 C 0.24677(13) 0.0926(3) 0.39744(12)
H12_3 H 0.206171 0.117969 0.378892
C16_3 C 0.29641(13) 0.0447(2) 0.36240(11)
H13_3 H 0.289583 0.040749 0.320234
C17_3 C 0.35654(12) 0.0025(2) 0.39041(10)
C18_3 C 0.36759(12) 0.0121(2) 0.45360(10)
O1_3 O 0.08217(8) 0.83944(16) 0.69869(7)
O2_3 O 0.06308(9) 0.88700(16) 0.79585(7)
O3_3 O 0.40620(10) 0.97512(19) 0.29634(8)
H2_3 H 0.029391 0.899370 0.589943
O6_4 O 0.000000 0.6471(2) 0.750000
C1_3 C 0.09195(11) 0.9007(2) 0.74684(10)
H7_3 H 0.191512 0.945790 0.672428
H14_3 H 0.407464 0.983492 0.472286
C19_3 C 0.40805(12) 0.9447(2) 0.35181(11)
H15_3 H 0.031700 0.600396 0.740360
O11_3 O 0.00771(10) 0.86178(18) 0.90846(8)
H16_3 H 0.005719 0.830640 0.943757
N4_2 N 0.09524(10) 0.66358(19) 0.86296(8)
N2_2 N 0.59524(10) 0.16358(19) 0.86296(8)
C21_3 C 0.85549(13) 0.0912(2) 0.70843(11)
H18_3 H 0.886172 0.087676 0.678142
C22_3 C 0.80942(14) 0.1867(3) 0.70869(13)
H19_3 H 0.810217 0.248100 0.679459
C23_3 C 0.76234(13) 0.1898(2) 0.75280(12)
H20_3 H 0.731419 0.253299 0.752721
C24_3 C 0.76065(12) 0.0991(2) 0.79723(10)
C25_3 C 0.80837(11) 0.0057(2) 0.79753(10)
C26_3 C 0.85600(11) 0.0011(2) 0.75309(10)
C27_3 C 0.70826(11) 0.1044(2) 0.84270(10)
C28_3 C 0.64483(11) 0.1496(2) 0.82492(10)
H22_3 H 0.636512 0.171207 0.784269
C29_3 C 0.60745(11) 0.1322(2) 0.92157(10)
H23_3 H 0.573265 0.141629 0.948266
C30_3 C 0.66894(12) 0.0860(2) 0.94444(10)
C31_3 C 0.71960(12) 0.0709(2) 0.90365(10)
H24_3 H 0.760829 0.038533 0.917136
O9_3 O 0.59380(10) 0.97512(19) 0.20366(8)
H28_3 H 0.592536 0.983492 0.027714
C38_3 C 0.59195(12) 0.9447(2) 0.14819(11)
O5_3 O 0.99229(10) 0.86178(18) 0.59154(8)
H1_3 H 0.994281 0.830640 0.556243
O6_5 O 1.000000 0.6471(2) 0.750000
H3_3 H 0.968300 0.600396 0.759640
O7_3 O 0.91783(8) 0.83944(16) 0.80131(7)
O8_3 O 0.93692(9) 0.88700(16) 0.70415(7)
H17_3 H 0.970609 0.899370 0.910057
C20_3 C 0.90805(11) 0.9007(2) 0.75316(10)
H21_3 H 0.808488 0.945790 0.827572
N3_2 N 0.90476(10) 0.66358(19) 0.63704(8)
O9_4 O 0.09380(10) 0.47512(19) 0.20366(8)
C32_2 C 0.18123(12) 0.5645(2) 0.01105(10)
C33_2 C 0.24203(12) 0.6023(2) 0.04005(11)
H25_2 H 0.275383 0.634500 0.016859
C34_2 C 0.25323(13) 0.5926(3) 0.10256(12)
H26_2 H 0.293829 0.617969 0.121108
C35_2 C 0.20359(13) 0.5447(2) 0.13760(11)
H27_2 H 0.210417 0.540749 0.179766
C36_2 C 0.14346(12) 0.5025(2) 0.10959(10)
C37_2 C 0.13241(12) 0.5121(2) 0.04640(10)
H28_4 H 0.092536 0.483492 0.027714
C38_4 C 0.09195(12) 0.4447(2) 0.14819(11)
O1_4 O 0.58217(8) 0.33944(16) 0.69869(7)
O2_4 O 0.56308(9) 0.38700(16) 0.79585(7)
O3_4 O 0.90620(10) 0.47512(19) 0.29634(8)
O5_4 O 0.49229(10) 0.36178(18) 0.59154(8)
H1_4 H 0.494281 0.330640 0.556243
H2_4 H 0.529391 0.399370 0.589943
O6_6 O 0.500000 0.1471(2) 0.750000
H3_4 H 0.468300 0.100396 0.759640
C1_4 C 0.59195(11) 0.4007(2) 0.74684(10)
C2_4 C 0.64451(13) 0.5912(2) 0.79157(11)
H4_4 H 0.613828 0.587676 0.821858
C3_4 C 0.69058(14) 0.6867(3) 0.79131(13)
H5_4 H 0.689783 0.748100 0.820541
C4_4 C 0.73766(13) 0.6898(2) 0.74720(12)
H6_4 H 0.768581 0.753299 0.747279
C5_4 C 0.73935(12) 0.5991(2) 0.70277(10)
C6_4 C 0.69163(11) 0.5057(2) 0.70247(10)
H7_4 H 0.691512 0.445790 0.672428
C7_4 C 0.64400(11) 0.5011(2) 0.74691(10)
C8_4 C 0.79174(11) 0.6044(2) 0.65730(10)
C9_4 C 0.85517(11) 0.6496(2) 0.67508(10)
H8_4 H 0.863488 0.671207 0.715731
C10_4 C 0.89255(11) 0.6322(2) 0.57843(10)
H9_4 H 0.926735 0.641629 0.551734
C11_4 C 0.83106(12) 0.5860(2) 0.55556(10)
C12_4 C 0.78040(12) 0.5709(2) 0.59635(10)
H10_4 H 0.739171 0.538533 0.582864
C13_4 C 0.81877(12) 0.5645(2) 0.48895(10)
C14_4 C 0.75797(12) 0.6023(2) 0.45995(11)
H11_4 H 0.724617 0.634500 0.483141
C15_4 C 0.74677(13) 0.5926(3) 0.39744(12)
H12_4 H 0.706171 0.617969 0.378892
C16_4 C 0.79641(13) 0.5447(2) 0.36240(11)
H13_4 H 0.789583 0.540749 0.320234
C17_4 C 0.85654(12) 0.5025(2) 0.39041(10)
C18_4 C 0.86759(12) 0.5121(2) 0.45360(10)
H14_4 H 0.907464 0.483492 0.472286
C19_4 C 0.90805(12) 0.4447(2) 0.35181(11)
H15_4 H 0.531700 0.100396 0.740360
O7_4 O 0.41783(8) 0.33944(16) 0.80131(7)
O8_4 O 0.43692(9) 0.38700(16) 0.70415(7)
O11_4 O 0.50771(10) 0.36178(18) 0.90846(8)
H16_4 H 0.505719 0.330640 0.943757
H17_4 H 0.470609 0.399370 0.910057
C20_4 C 0.40805(11) 0.4007(2) 0.75316(10)
C21_4 C 0.35549(13) 0.5912(2) 0.70843(11)
H18_4 H 0.386172 0.587676 0.678142
C22_4 C 0.30942(14) 0.6867(3) 0.70869(13)
H19_4 H 0.310217 0.748100 0.679459
C23_4 C 0.26234(13) 0.6898(2) 0.75280(12)
H20_4 H 0.231419 0.753299 0.752721
C24_4 C 0.26065(12) 0.5991(2) 0.79723(10)
C25_4 C 0.30837(11) 0.5057(2) 0.79753(10)
H21_4 H 0.308488 0.445790 0.827572
C26_4 C 0.35600(11) 0.5011(2) 0.75309(10)
C27_4 C 0.20826(11) 0.6044(2) 0.84270(10)
C28_4 C 0.14483(11) 0.6496(2) 0.82492(10)
H22_4 H 0.136512 0.671207 0.784269
C29_4 C 0.10745(11) 0.6322(2) 0.92157(10)
H23_4 H 0.073265 0.641629 0.948266
C30_4 C 0.16894(12) 0.5860(2) 0.94444(10)
C31_4 C 0.21960(12) 0.5709(2) 0.90365(10)
H24_4 H 0.260829 0.538533 0.917136
C32_3 C 0.31877(12) 0.9355(2) 0.98895(10)
C33_3 C 0.25797(12) 0.8977(2) 0.95995(11)
H25_3 H 0.224617 0.865500 0.983141
C34_3 C 0.24677(13) 0.9074(3) 0.89744(12)
H26_3 H 0.206171 0.882031 0.878892
C35_3 C 0.29641(13) 0.9553(2) 0.86240(11)
H27_3 H 0.289583 0.959251 0.820234
C36_3 C 0.35654(12) 0.9975(2) 0.89041(10)
C37_3 C 0.36759(12) 0.9879(2) 0.95360(10)
C32_4 C 0.68123(12) 0.0645(2) 0.01105(10)
C33_4 C 0.74203(12) 0.1023(2) 0.04005(11)
H25_4 H 0.775383 0.134500 0.016859
C34_4 C 0.75323(13) 0.0926(3) 0.10256(12)
H26_4 H 0.793829 0.117969 0.121108
C35_4 C 0.70359(13) 0.0447(2) 0.13760(11)
H27_4 H 0.710417 0.040749 0.179766
C36_4 C 0.64346(12) 0.0025(2) 0.10959(10)
C37_4 C 0.63241(12) 0.0121(2) 0.04640(10)
loop_
_geom_bond_atom_site_label_1
_geom_bond_atom_site_label_2
_geom_bond_site_symmetry_1
_geom_bond_site_symmetry_2
O5 Ni1 1_555 1_555
H1 O5 1_555 1_555
O6 Ni1 1_555 1_555
H3 O6 1_555 1_555
O8 Ni1 1_555 1_555
C20 O7 1_555 1_555
N3 Ni1 1_555 1_555
O8 C20 1_555 1_555
O9 C38 1_555 1_555
O10 C38 1_555 1_555
Ni6 O10 1_555 1_555
N2 C28 1_555 1_555
C21 H18 1_555 1_555
C22 C21 1_555 1_555
H19 C22 1_555 1_555
C23 C22 1_555 1_555
H20 C23 1_555 1_555
C24 C23 1_555 1_555
C25 C24 1_555 1_555
C27 C24 1_555 1_555
C28 C27 1_555 1_555
H22 C28 1_555 1_555
C29 N2 1_555 1_555
H23 C29 1_555 1_555
C30 C29 1_555 1_555
C31 C27 1_555 1_555
H24 C31 1_555 1_555
Ni4 N2 1_555 1_555
C21 C26 1_555 1_555
C25 C26 1_555 1_555
C30 C31 1_555 1_555
O1 C1 1_555 1_555
O2 C1 1_555 1_555
O3 C19 1_555 1_555
O4 C19 1_555 1_555
H15 O6_2 1_555 1_555
Ni2 O2 1_555 1_555
O11 Ni2 1_555 1_555
H16 O11 1_555 1_555
Ni5 O4 1_555 1_555
N4 Ni2 1_555 1_555
O6_2 Ni2 1_555 1_555
N1 C9 1_555 1_555
C2 H4 1_555 1_555
C3 C2 1_555 1_555
H5 C3 1_555 1_555
C4 C3 1_555 1_555
H6 C4 1_555 1_555
C5 C4 1_555 1_555
C6 C5 1_555 1_555
C7 C2 1_555 1_555
C8 C5 1_555 1_555
C9 C8 1_555 1_555
H8 C9 1_555 1_555
C10 N1 1_555 1_555
H9 C10 1_555 1_555
C11 C10 1_555 1_555
C12 C8 1_555 1_555
H10 C12 1_555 1_555
C13 C11 1_555 1_555
C14 C13 1_555 1_555
H11 C14 1_555 1_555
C15 C14 1_555 1_555
H12 C15 1_555 1_555
C16 C15 1_555 1_555
H13 C16 1_555 1_555
C17 C16 1_555 1_555
C18 C13 1_555 1_555
Ni3 N1 1_555 1_555
C6 C7 1_555 1_555
C11 C12 1_555 1_555
C17 C18 1_555 1_555
Ni3 O1_2 1_555 1_555
O1_2 C1_2 1_555 1_555
O2_2 C1_2 1_555 1_555
O3_2 C19_2 1_555 1_555
O4_2 C19_2 1_555 1_555
O5_2 Ni3 1_555 1_555
H1_2 O5_2 1_555 1_555
H2_2 O5_2 1_555 1_555
O6_3 Ni3 1_555 1_555
H3_2 O6_3 1_555 1_555
N3 C9_2 1_555 1_555
C1_2 C7_2 1_555 1_555
C2_2 H4_2 1_555 1_555
C3_2 C2_2 1_555 1_555
H5_2 C3_2 1_555 1_555
C4_2 C3_2 1_555 1_555
H6_2 C4_2 1_555 1_555
C5_2 C4_2 1_555 1_555
C6_2 C5_2 1_555 1_555
H7_2 C6_2 1_555 1_555
C7_2 C2_2 1_555 1_555
C8_2 C5_2 1_555 1_555
C9_2 C8_2 1_555 1_555
H8_2 C9_2 1_555 1_555
C10_2 N3 1_555 1_555
H9_2 C10_2 1_555 1_555
C11_2 C10_2 1_555 1_555
C12_2 C8_2 1_555 1_555
H10_2 C12_2 1_555 1_555
C13_2 C11_2 1_555 1_555
C14_2 C13_2 1_555 1_555
H11_2 C14_2 1_555 1_555
C15_2 C14_2 1_555 1_555
H12_2 C15_2 1_555 1_555
C16_2 C15_2 1_555 1_555
H13_2 C16_2 1_555 1_555
C17_2 C16_2 1_555 1_555
C18_2 C13_2 1_555 1_555
H14_2 C18_2 1_555 1_555
C19_2 C17_2 1_555 1_555
H15_2 O6_3 1_555 1_555
Ni4 O2_2 1_555 1_555
O7_2 Ni4 1_555 1_555
O8_2 Ni3 1_555 1_555
O11_2 Ni4 1_555 1_555
H16_2 O11_2 1_555 1_555
H17_2 O11_2 1_555 1_555
N4 C28_2 1_555 1_555
C20_2 O7_2 1_555 1_555
C21_2 H18_2 1_555 1_555
C22_2 C21_2 1_555 1_555
H19_2 C22_2 1_555 1_555
C23_2 C22_2 1_555 1_555
H20_2 C23_2 1_555 1_555
C24_2 C23_2 1_555 1_555
C25_2 C24_2 1_555 1_555
H21_2 C25_2 1_555 1_555
C26_2 C20_2 1_555 1_555
C27_2 C24_2 1_555 1_555
C28_2 C27_2 1_555 1_555
H22_2 C28_2 1_555 1_555
C29_2 N4 1_555 1_555
H23_2 C29_2 1_555 1_555
C30_2 C29_2 1_555 1_555
C31_2 C27_2 1_555 1_555
H24_2 C31_2 1_555 1_555
O12_2 Ni3 1_555 1_555
O13_2 Ni4 1_555 1_555
O6_3 Ni4 1_555 1_555
C6_2 C7_2 1_555 1_555
C11_2 C12_2 1_555 1_555
C17_2 C18_2 1_555 1_555
O8_2 C20_2 1_555 1_555
C21_2 C26_2 1_555 1_555
C25_2 C26_2 1_555 1_555
C30_2 C31_2 1_555 1_555
O9_2 C38_2 1_555 1_555
O10_2 C38_2 1_555 1_555
C33 C32 1_555 1_555
H25 C33 1_555 1_555
C34 C33 1_555 1_555
H26 C34 1_555 1_555
C35 C34 1_555 1_555
H27 C35 1_555 1_555
C36 C35 1_555 1_555
C37 C32 1_555 1_555
H28_2 C37 1_555 1_555
C38_2 C36 1_555 1_555
C36 C37 1_555 1_555
N1_2 C9_3 1_555 1_555
C2_3 H4_3 1_555 1_555
C3_3 C2_3 1_555 1_555
H5_3 C3_3 1_555 1_555
C4_3 C3_3 1_555 1_555
H6_3 C4_3 1_555 1_555
C5_3 C4_3 1_555 1_555
C6_3 C5_3 1_555 1_555
C7_3 C2_3 1_555 1_555
C8_3 C5_3 1_555 1_555
C9_3 C8_3 1_555 1_555
H8_3 C9_3 1_555 1_555
C10_3 N1_2 1_555 1_555
H9_3 C10_3 1_555 1_555
C11_3 C10_3 1_555 1_555
C12_3 C8_3 1_555 1_555
H10_3 C12_3 1_555 1_555
C13_3 C11_3 1_555 1_555
C14_3 C13_3 1_555 1_555
H11_3 C14_3 1_555 1_555
C15_3 C14_3 1_555 1_555
H12_3 C15_3 1_555 1_555
C16_3 C15_3 1_555 1_555
H13_3 C16_3 1_555 1_555
C17_3 C16_3 1_555 1_555
C18_3 C13_3 1_555 1_555
Ni5 N1_2 1_555 1_555
C6_3 C7_3 1_555 1_555
C11_3 C12_3 1_555 1_555
C17_3 C18_3 1_555 1_555
O1_3 C1_3 1_555 1_555
O2_3 C1_3 1_555 1_555
O3_3 C19_3 1_555 1_555
O12_2 C19_3 1_555 1_555
H15_3 O6_4 1_555 1_555
Ni6_2 O2_3 1_555 1_555
O11_3 Ni6_2 1_555 1_555
H16_3 O11_3 1_555 1_555
N4_2 Ni6_2 1_555 1_555
O6_4 Ni6_2 1_555 1_555
N2_2 C28_3 1_555 1_555
C21_3 H18_3 1_555 1_555
C22_3 C21_3 1_555 1_555
H19_3 C22_3 1_555 1_555
C23_3 C22_3 1_555 1_555
H20_3 C23_3 1_555 1_555
C24_3 C23_3 1_555 1_555
C25_3 C24_3 1_555 1_555
C27_3 C24_3 1_555 1_555
C28_3 C27_3 1_555 1_555
H22_3 C28_3 1_555 1_555
C29_3 N2_2 1_555 1_555
H23_3 C29_3 1_555 1_555
C30_3 C29_3 1_555 1_555
C31_3 C27_3 1_555 1_555
H24_3 C31_3 1_555 1_555
Ni6 N2_2 1_555 1_555
C21_3 C26_3 1_555 1_555
C25_3 C26_3 1_555 1_555
C30_3 C31_3 1_555 1_555
O9_3 C38_3 1_555 1_555
O13_2 C38_3 1_555 1_555
O5_3 Ni5_2 1_555 1_555
H1_3 O5_3 1_555 1_555
O6_5 Ni5_2 1_555 1_555
H3_3 O6_5 1_555 1_555
O8_3 Ni5_2 1_555 1_555
C20_3 O7_3 1_555 1_555
N3_2 Ni5_2 1_555 1_555
O8_3 C20_3 1_555 1_555
O9_4 C38_4 1_555 1_555
O13 C38_4 1_555 1_555
C33_2 C32_2 1_555 1_555
H25_2 C33_2 1_555 1_555
C34_2 C33_2 1_555 1_555
H26_2 C34_2 1_555 1_555
C35_2 C34_2 1_555 1_555
H27_2 C35_2 1_555 1_555
C36_2 C35_2 1_555 1_555
C37_2 C32_2 1_555 1_555
H28_4 C37_2 1_555 1_555
C38_4 C36_2 1_555 1_555
C36_2 C37_2 1_555 1_555
Ni5 O1_4 1_555 1_555
O1_4 C1_4 1_555 1_555
O2_4 C1_4 1_555 1_555
O3_4 C19_4 1_555 1_555
O12 C19_4 1_555 1_555
O5_4 Ni5 1_555 1_555
H1_4 O5_4 1_555 1_555
H2_4 O5_4 1_555 1_555
O6_6 Ni5 1_555 1_555
H3_4 O6_6 1_555 1_555
N3_2 C9_4 1_555 1_555
C1_4 C7_4 1_555 1_555
C2_4 H4_4 1_555 1_555
C3_4 C2_4 1_555 1_555
H5_4 C3_4 1_555 1_555
C4_4 C3_4 1_555 1_555
H6_4 C4_4 1_555 1_555
C5_4 C4_4 1_555 1_555
C6_4 C5_4 1_555 1_555
H7_4 C6_4 1_555 1_555
C7_4 C2_4 1_555 1_555
C8_4 C5_4 1_555 1_555
C9_4 C8_4 1_555 1_555
H8_4 C9_4 1_555 1_555
C10_4 N3_2 1_555 1_555
H9_4 C10_4 1_555 1_555
C11_4 C10_4 1_555 1_555
C12_4 C8_4 1_555 1_555
H10_4 C12_4 1_555 1_555
C13_4 C11_4 1_555 1_555
C14_4 C13_4 1_555 1_555
H11_4 C14_4 1_555 1_555
C15_4 C14_4 1_555 1_555
H12_4 C15_4 1_555 1_555
C16_4 C15_4 1_555 1_555
H13_4 C16_4 1_555 1_555
C17_4 C16_4 1_555 1_555
C18_4 C13_4 1_555 1_555
H14_4 C18_4 1_555 1_555
C19_4 C17_4 1_555 1_555
H15_4 O6_6 1_555 1_555
Ni6 O2_4 1_555 1_555
O7_4 Ni6 1_555 1_555
O8_4 Ni5 1_555 1_555
O11_4 Ni6 1_555 1_555
H16_4 O11_4 1_555 1_555
H17_4 O11_4 1_555 1_555
N4_2 C28_4 1_555 1_555
C20_4 O7_4 1_555 1_555
C21_4 H18_4 1_555 1_555
C22_4 C21_4 1_555 1_555
H19_4 C22_4 1_555 1_555
C23_4 C22_4 1_555 1_555
H20_4 C23_4 1_555 1_555
C24_4 C23_4 1_555 1_555
C25_4 C24_4 1_555 1_555
H21_4 C25_4 1_555 1_555
C26_4 C20_4 1_555 1_555
C27_4 C24_4 1_555 1_555
C28_4 C27_4 1_555 1_555
H22_4 C28_4 1_555 1_555
C29_4 N4_2 1_555 1_555
H23_4 C29_4 1_555 1_555
C30_4 C29_4 1_555 1_555
C31_4 C27_4 1_555 1_555
H24_4 C31_4 1_555 1_555
O6_6 Ni6 1_555 1_555
C6_4 C7_4 1_555 1_555
C11_4 C12_4 1_555 1_555
C17_4 C18_4 1_555 1_555
O8_4 C20_4 1_555 1_555
C21_4 C26_4 1_555 1_555
C25_4 C26_4 1_555 1_555
C30_4 C31_4 1_555 1_555
C33_3 C32_3 1_555 1_555
H25_3 C33_3 1_555 1_555
C34_3 C33_3 1_555 1_555
H26_3 C34_3 1_555 1_555
C35_3 C34_3 1_555 1_555
H27_3 C35_3 1_555 1_555
C36_3 C35_3 1_555 1_555
C37_3 C32_3 1_555 1_555
C36_3 C37_3 1_555 1_555
C33_4 C32_4 1_555 1_555
H25_4 C33_4 1_555 1_555
C34_4 C33_4 1_555 1_555
H26_4 C34_4 1_555 1_555
C35_4 C34_4 1_555 1_555
H27_4 C35_4 1_555 1_555
C36_4 C35_4 1_555 1_555
C37_4 C32_4 1_555 1_555
C36_4 C37_4 1_555 1_555

#END
