
###############################################################################
#
# This file contains modified crystal structure data generated from the
# MOF subset of the Cambridge Structural Database (CSD) v543 
# hosted by the Cambridge Crystallographic Data Centre (CCDC).
#
# This work is licensed under the Creative Commons
# Attribution-NonCommercial-ShareAlike 4.0 International License.
# To view a copy of this license, visit
# http://creativecommons.org/licenses/by-nc-sa/4.0/
# or send a letter to
# Creative Commons, PO Box 1866, Mountain View, CA 94042, USA.
#
# CIF created using the CSD Python API on 29 September 2022
# The structure has been converted into the P1 space group
# The structure has a 3D framework
# The original CSD entry ZOPGOD is in the monoclinic crystal system
# The framework has been calculated to contain at least 10.0% void space
# The void calculation uses a probe of radius 1.32A, grid spacing 0.4
#
###############################################################################

data_ZOPGOD
_chemical_formula_moiety         '(C152 H112 Co8 N8 O46)n'
_symmetry_cell_setting           triclinic
_symmetry_space_group_name_H-M   'P 1'
_symmetry_Int_Tables_number      1
_space_group_name_Hall           'P 1'
loop_
_symmetry_equiv_pos_site_id
_symmetry_equiv_pos_as_xyz
1 x,y,z
_cell_length_a                   20.097(5)
_cell_length_b                   11.002(4)
_cell_length_c                   22.123(6)
_cell_angle_alpha                90
_cell_angle_beta                 92.750(7)
_cell_angle_gamma                90
_cell_volume                     4885.92
loop_
_atom_site_label
_atom_site_type_symbol
_atom_site_fract_x
_atom_site_fract_y
_atom_site_fract_z
Co5 Co 0.00534(2) 0.75319(3) 0.83141(2)
Co1 Co 0.49466(2) 0.74681(3) 0.16859(2)
O1 O 0.58300(8) 0.65827(16) 0.19883(7)
O2 O 0.56381(8) 0.61222(15) 0.29570(7)
O5 O 0.49336(10) 0.63749(18) 0.08848(8)
H1 H 0.493441 0.682819 0.057352
H2 H 0.470631 0.575539 0.092832
O6 O 0.500000 0.85551(19) 0.250000
H3 H 0.468360 0.904026 0.256960
N1 N 0.90374(8) 0.33751(17) 0.13575(7)
C1 C 0.59287(10) 0.59754(19) 0.24690(9)
C2 C 0.64454(10) 0.4978(2) 0.24707(9)
C3 C 0.69189(10) 0.4937(2) 0.20259(9)
H4 H 0.691724 0.553296 0.172784
C4 C 0.73935(10) 0.4008(2) 0.20265(9)
C5 C 0.73784(12) 0.3098(2) 0.24689(11)
H5 H 0.768662 0.246758 0.246796
C6 C 0.69077(13) 0.3128(2) 0.29094(11)
H6 H 0.689888 0.251558 0.319875
C7 C 0.64492(11) 0.4078(2) 0.29158(10)
H7 H 0.614404 0.411225 0.321833
C8 C 0.79143(10) 0.39546(19) 0.15682(9)
C9 C 0.85465(10) 0.3513(2) 0.17413(9)
H8 H 0.863168 0.330421 0.214495
C10 C 0.89127(10) 0.3682(2) 0.07736(9)
H9 H 0.925130 0.358779 0.050523
C11 C 0.82972(10) 0.41363(19) 0.05511(9)
C12 C 0.77950(10) 0.4280(2) 0.09616(9)
H10 H 0.738236 0.459057 0.083134
H15 H 0.531640 0.904026 0.243040
Co2 Co 0.50534(2) 0.74681(3) 0.33141(2)
O7 O 0.41700(8) 0.65827(16) 0.30117(7)
O8 O 0.43619(8) 0.61222(15) 0.20430(7)
O9 O 0.05279(8) 0.62950(16) 0.62223(7)
O10 O 0.09483(9) 0.52580(18) 0.70291(7)
O11 O 0.50664(10) 0.63749(18) 0.41152(8)
H16 H 0.506559 0.682819 0.442648
H17 H 0.529369 0.575539 0.407168
N2 N 0.09626(8) 0.33751(17) 0.36425(7)
C20 C 0.40713(10) 0.59754(19) 0.25310(9)
C21 C 0.35546(10) 0.4978(2) 0.25293(9)
C22 C 0.30811(10) 0.4937(2) 0.29741(9)
H18 H 0.308276 0.553296 0.327216
C23 C 0.26065(10) 0.4008(2) 0.29735(9)
C24 C 0.26216(12) 0.3098(2) 0.25311(11)
H19 H 0.231338 0.246758 0.253204
C25 C 0.30923(13) 0.3128(2) 0.20906(11)
H20 H 0.310112 0.251558 0.180125
C26 C 0.35508(11) 0.4078(2) 0.20842(10)
H21 H 0.385596 0.411225 0.178167
C27 C 0.20857(10) 0.39546(19) 0.34318(9)
C28 C 0.14535(10) 0.3513(2) 0.32587(9)
H22 H 0.136832 0.330421 0.285505
C29 C 0.10873(10) 0.3682(2) 0.42264(9)
H23 H 0.074870 0.358779 0.449477
C30 C 0.17028(10) 0.41363(19) 0.44489(9)
C31 C 0.22050(10) 0.4280(2) 0.40384(9)
H24 H 0.261764 0.459057 0.416866
C32 C 0.18249(10) 0.4354(2) 0.51115(9)
C33 C 0.24287(11) 0.3974(2) 0.53974(10)
H25 H 0.275939 0.364735 0.516617
C34 C 0.25397(11) 0.4077(2) 0.60206(11)
H26 H 0.294292 0.382523 0.620309
C35 C 0.20462(11) 0.4558(2) 0.63704(10)
H27 H 0.211334 0.460131 0.678872
C36 C 0.14485(10) 0.4977(2) 0.60929(9)
C37 C 0.13405(10) 0.4880(2) 0.54632(9)
H28 H 0.094545 0.516615 0.527879
C38 C 0.09332(10) 0.5553(2) 0.64774(9)
Co3 Co 0.99466(2) 0.24681(3) 0.16859(2)
Co4 Co 0.00534(2) 0.24681(3) 0.33141(2)
O12 O 0.55279(8) 0.87050(16) 0.12223(7)
O13 O 0.44721(8) 0.87050(16) 0.37777(7)
N3 N 0.40374(8) 0.83751(17) 0.13575(7)
N4 N 0.59626(8) 0.83751(17) 0.36425(7)
O3 O 0.94721(8) 0.62950(16) 0.87777(7)
O4 O 0.90517(9) 0.52580(18) 0.79709(7)
C13 C 0.81751(10) 0.4354(2) 0.98885(9)
C14 C 0.75713(11) 0.3974(2) 0.96026(10)
H11 H 0.724061 0.364735 0.983383
C15 C 0.74603(11) 0.4077(2) 0.89794(11)
H12 H 0.705708 0.382523 0.879691
C16 C 0.79538(11) 0.4558(2) 0.86296(10)
H13 H 0.788666 0.460131 0.821128
C17 C 0.85515(10) 0.4977(2) 0.89071(9)
C18 C 0.86595(10) 0.4880(2) 0.95368(9)
H14 H 0.905455 0.516615 0.972121
C19 C 0.90668(10) 0.5553(2) 0.85226(9)
Co6 Co 0.99466(2) 0.75319(3) 0.66859(2)
O1_2 O 0.08300(8) 0.15827(16) 0.19883(7)
O2_2 O 0.06381(8) 0.11222(15) 0.29570(7)
O6_2 O 0.000000 0.35551(19) 0.250000
C1_2 C 0.09287(10) 0.09754(19) 0.24690(9)
H4_2 H 0.191724 0.053296 0.172784
H15_2 H 0.031640 0.404026 0.243040
O11_2 O 0.00664(10) 0.13749(18) 0.41152(8)
H16_2 H 0.006559 0.182819 0.442648
H17_2 H 0.029369 0.075539 0.407168
O12_2 O 0.05279(8) 0.37050(16) 0.12223(7)
O3_2 O 0.44721(8) 0.12950(16) 0.87777(7)
O4_2 O 0.40517(9) 0.02580(18) 0.79709(7)
H14_2 H 0.405455 0.016615 0.972121
C19_2 C 0.40668(10) 0.0553(2) 0.85226(9)
Co5_2 Co 0.50534(2) 0.25319(3) 0.83141(2)
C2_2 C 0.14454(10) 0.9978(2) 0.24707(9)
C3_2 C 0.19189(10) 0.9937(2) 0.20259(9)
C4_2 C 0.23935(10) 0.9008(2) 0.20265(9)
C5_2 C 0.23784(12) 0.8098(2) 0.24689(11)
H5_2 H 0.268662 0.746758 0.246796
C6_2 C 0.19077(13) 0.8128(2) 0.29094(11)
H6_2 H 0.189888 0.751558 0.319875
C7_2 C 0.14492(11) 0.9078(2) 0.29158(10)
H7_2 H 0.114404 0.911225 0.321833
C8_2 C 0.29143(10) 0.89546(19) 0.15682(9)
C9_2 C 0.35465(10) 0.8513(2) 0.17413(9)
H8_2 H 0.363168 0.830421 0.214495
C10_2 C 0.39127(10) 0.8682(2) 0.07736(9)
H9_2 H 0.425130 0.858779 0.050523
C11_2 C 0.32972(10) 0.91363(19) 0.05511(9)
C12_2 C 0.27950(10) 0.9280(2) 0.09616(9)
H10_2 H 0.238236 0.959057 0.083134
O5_2 O 0.99336(10) 0.13749(18) 0.08848(8)
H1_2 H 0.993441 0.182819 0.057352
H2_2 H 0.970631 0.075539 0.092832
O6_3 O 1.000000 0.35551(19) 0.250000
H3_2 H 0.968360 0.404026 0.256960
O7_2 O 0.91700(8) 0.15827(16) 0.30117(7)
O8_2 O 0.93619(8) 0.11222(15) 0.20430(7)
O9_2 O 0.55279(8) 0.12950(16) 0.62223(7)
O10_2 O 0.59483(9) 0.02580(18) 0.70291(7)
C20_2 C 0.90713(10) 0.09754(19) 0.25310(9)
H18_2 H 0.808276 0.053296 0.327216
H28_2 H 0.594545 0.016615 0.527879
C38_2 C 0.59332(10) 0.0553(2) 0.64774(9)
Co6_2 Co 0.49466(2) 0.25319(3) 0.66859(2)
O13_2 O 0.94721(8) 0.37050(16) 0.37777(7)
C21_2 C 0.85546(10) 0.9978(2) 0.25293(9)
C22_2 C 0.80811(10) 0.9937(2) 0.29741(9)
C23_2 C 0.76065(10) 0.9008(2) 0.29735(9)
C24_2 C 0.76216(12) 0.8098(2) 0.25311(11)
H19_2 H 0.731338 0.746758 0.253204
C25_2 C 0.80923(13) 0.8128(2) 0.20906(11)
H20_2 H 0.810112 0.751558 0.180125
C26_2 C 0.85508(11) 0.9078(2) 0.20842(10)
H21_2 H 0.885596 0.911225 0.178167
C27_2 C 0.70857(10) 0.89546(19) 0.34318(9)
C28_2 C 0.64535(10) 0.8513(2) 0.32587(9)
H22_2 H 0.636832 0.830421 0.285505
C29_2 C 0.60873(10) 0.8682(2) 0.42264(9)
H23_2 H 0.574870 0.858779 0.449477
C30_2 C 0.67028(10) 0.91363(19) 0.44489(9)
C31_2 C 0.72050(10) 0.9280(2) 0.40384(9)
H24_2 H 0.761764 0.959057 0.416866
C32_2 C 0.68249(10) 0.9354(2) 0.51115(9)
C33_2 C 0.74287(11) 0.8974(2) 0.53974(10)
H25_2 H 0.775939 0.864735 0.516617
C34_2 C 0.75397(11) 0.9077(2) 0.60206(11)
H26_2 H 0.794292 0.882523 0.620309
C35_2 C 0.70462(11) 0.9558(2) 0.63704(10)
H27_2 H 0.711334 0.960131 0.678872
C36_2 C 0.64485(10) 0.9977(2) 0.60929(9)
C37_2 C 0.63405(10) 0.9880(2) 0.54632(9)
O4_3 O 0.09483(9) 0.47420(18) 0.20291(7)
C13_2 C 0.18249(10) 0.5646(2) 0.01115(9)
C14_2 C 0.24287(11) 0.6026(2) 0.03974(10)
H11_2 H 0.275939 0.635265 0.016617
C15_2 C 0.25397(11) 0.5923(2) 0.10206(11)
H12_2 H 0.294292 0.617477 0.120309
C16_2 C 0.20462(11) 0.5442(2) 0.13704(10)
H13_2 H 0.211334 0.539869 0.178872
C17_2 C 0.14485(10) 0.5023(2) 0.10929(9)
C18_2 C 0.13405(10) 0.5120(2) 0.04632(9)
H14_3 H 0.094545 0.483385 0.027879
C19_3 C 0.09332(10) 0.4447(2) 0.14774(9)
O1_3 O 0.41700(8) 0.34173(16) 0.80117(7)
O2_3 O 0.43619(8) 0.38778(15) 0.70430(7)
O5_3 O 0.50664(10) 0.36251(18) 0.91152(8)
H1_3 H 0.506559 0.317181 0.942648
H2_3 H 0.529369 0.424461 0.907168
O6_4 O 0.500000 0.14449(19) 0.750000
H3_3 H 0.531640 0.095974 0.743040
N1_2 N 0.09626(8) 0.66249(17) 0.86425(7)
C1_3 C 0.40713(10) 0.40246(19) 0.75310(9)
C2_3 C 0.35546(10) 0.5022(2) 0.75293(9)
C3_3 C 0.30811(10) 0.5063(2) 0.79741(9)
H4_3 H 0.308276 0.446704 0.827216
C4_3 C 0.26065(10) 0.5992(2) 0.79735(9)
C5_3 C 0.26216(12) 0.6902(2) 0.75311(11)
H5_3 H 0.231338 0.753242 0.753204
C6_3 C 0.30923(13) 0.6872(2) 0.70906(11)
H6_3 H 0.310112 0.748442 0.680125
C7_3 C 0.35508(11) 0.5922(2) 0.70842(10)
H7_3 H 0.385596 0.588775 0.678167
C8_3 C 0.20857(10) 0.60454(19) 0.84318(9)
C9_3 C 0.14535(10) 0.6487(2) 0.82587(9)
H8_3 H 0.136832 0.669579 0.785505
C10_3 C 0.10873(10) 0.6318(2) 0.92264(9)
H9_3 H 0.074870 0.641221 0.949477
C11_3 C 0.17028(10) 0.58637(19) 0.94489(9)
C12_3 C 0.22050(10) 0.5720(2) 0.90384(9)
H10_3 H 0.261764 0.540943 0.916866
H15_3 H 0.468360 0.095974 0.756960
O7_3 O 0.58300(8) 0.34173(16) 0.69883(7)
O8_3 O 0.56381(8) 0.38778(15) 0.79570(7)
O10_3 O 0.90517(9) 0.47420(18) 0.29709(7)
O11_3 O 0.49336(10) 0.36251(18) 0.58848(8)
H16_3 H 0.493441 0.317181 0.557352
H17_3 H 0.470631 0.424461 0.592832
N2_2 N 0.90374(8) 0.66249(17) 0.63575(7)
C20_3 C 0.59287(10) 0.40246(19) 0.74690(9)
C21_3 C 0.64454(10) 0.5022(2) 0.74707(9)
C22_3 C 0.69189(10) 0.5063(2) 0.70259(9)
H18_3 H 0.691724 0.446704 0.672784
C23_3 C 0.73935(10) 0.5992(2) 0.70265(9)
C24_3 C 0.73784(12) 0.6902(2) 0.74689(11)
H19_3 H 0.768662 0.753242 0.746796
C25_3 C 0.69077(13) 0.6872(2) 0.79094(11)
H20_3 H 0.689888 0.748442 0.819875
C26_3 C 0.64492(11) 0.5922(2) 0.79158(10)
H21_3 H 0.614404 0.588775 0.821833
C27_3 C 0.79143(10) 0.60454(19) 0.65682(9)
C28_3 C 0.85465(10) 0.6487(2) 0.67413(9)
H22_3 H 0.863168 0.669579 0.714495
C29_3 C 0.89127(10) 0.6318(2) 0.57736(9)
H23_3 H 0.925130 0.641221 0.550523
C30_3 C 0.82972(10) 0.58637(19) 0.55511(9)
C31_3 C 0.77950(10) 0.5720(2) 0.59616(9)
H24_3 H 0.738236 0.540943 0.583134
C32_3 C 0.81751(10) 0.5646(2) 0.48885(9)
C33_3 C 0.75713(11) 0.6026(2) 0.46026(10)
H25_3 H 0.724061 0.635265 0.483383
C34_3 C 0.74603(11) 0.5923(2) 0.39794(11)
H26_3 H 0.705708 0.617477 0.379691
C35_3 C 0.79538(11) 0.5442(2) 0.36296(10)
H27_3 H 0.788666 0.539869 0.321128
C36_3 C 0.85515(10) 0.5023(2) 0.39071(9)
C37_3 C 0.86595(10) 0.5120(2) 0.45368(9)
H28_3 H 0.905455 0.483385 0.472121
C38_3 C 0.90668(10) 0.4447(2) 0.35226(9)
N3_2 N 0.59626(8) 0.16249(17) 0.86425(7)
N4_2 N 0.40374(8) 0.16249(17) 0.63575(7)
C21_4 C 0.14454(10) 0.0022(2) 0.74707(9)
C22_4 C 0.19189(10) 0.0063(2) 0.70259(9)
C23_4 C 0.23935(10) 0.0992(2) 0.70265(9)
C24_4 C 0.23784(12) 0.1902(2) 0.74689(11)
H19_4 H 0.268662 0.253242 0.746796
C25_4 C 0.19077(13) 0.1872(2) 0.79094(11)
H20_4 H 0.189888 0.248442 0.819875
C26_4 C 0.14492(11) 0.0922(2) 0.79158(10)
H21_4 H 0.114404 0.088775 0.821833
C27_4 C 0.29143(10) 0.10454(19) 0.65682(9)
C28_4 C 0.35465(10) 0.1487(2) 0.67413(9)
H22_4 H 0.363168 0.169579 0.714495
C29_4 C 0.39127(10) 0.1318(2) 0.57736(9)
H23_4 H 0.425130 0.141221 0.550523
C30_4 C 0.32972(10) 0.08637(19) 0.55511(9)
C31_4 C 0.27950(10) 0.0720(2) 0.59616(9)
H24_4 H 0.238236 0.040943 0.583134
C32_4 C 0.31751(10) 0.0646(2) 0.48885(9)
C33_4 C 0.25713(11) 0.1026(2) 0.46026(10)
H25_4 H 0.224061 0.135265 0.483383
C34_4 C 0.24603(11) 0.0923(2) 0.39794(11)
H26_4 H 0.205708 0.117477 0.379691
C35_4 C 0.29538(11) 0.0442(2) 0.36296(10)
H27_4 H 0.288666 0.039869 0.321128
C36_4 C 0.35515(10) 0.0023(2) 0.39071(9)
C37_4 C 0.36595(10) 0.0120(2) 0.45368(9)
O5_4 O 0.00664(10) 0.86251(18) 0.91152(8)
H1_4 H 0.006559 0.817181 0.942648
H2_4 H 0.029369 0.924461 0.907168
O6_5 O -0.000000 0.64449(19) 0.750000
H3_4 H 0.031640 0.595974 0.743040
O7_4 O 0.08300(8) 0.84173(16) 0.69883(7)
O8_4 O 0.06381(8) 0.88778(15) 0.79570(7)
O10_4 O 0.40517(9) 0.97420(18) 0.29709(7)
C20_4 C 0.09287(10) 0.90246(19) 0.74690(9)
H18_4 H 0.191724 0.946704 0.672784
H28_4 H 0.405455 0.983385 0.472121
C38_4 C 0.40668(10) 0.9447(2) 0.35226(9)
C2_4 C 0.85546(10) 0.0022(2) 0.75293(9)
C3_4 C 0.80811(10) 0.0063(2) 0.79741(9)
C4_4 C 0.76065(10) 0.0992(2) 0.79735(9)
C5_4 C 0.76216(12) 0.1902(2) 0.75311(11)
H5_4 H 0.731338 0.253242 0.753204
C6_4 C 0.80923(13) 0.1872(2) 0.70906(11)
H6_4 H 0.810112 0.248442 0.680125
C7_4 C 0.85508(11) 0.0922(2) 0.70842(10)
H7_4 H 0.885596 0.088775 0.678167
C8_4 C 0.70857(10) 0.10454(19) 0.84318(9)
C9_4 C 0.64535(10) 0.1487(2) 0.82587(9)
H8_4 H 0.636832 0.169579 0.785505
C10_4 C 0.60873(10) 0.1318(2) 0.92264(9)
H9_4 H 0.574870 0.141221 0.949477
C11_4 C 0.67028(10) 0.08637(19) 0.94489(9)
C12_4 C 0.72050(10) 0.0720(2) 0.90384(9)
H10_4 H 0.761764 0.040943 0.916866
O4_4 O 0.59483(9) 0.97420(18) 0.20291(7)
H14_4 H 0.594545 0.983385 0.027879
C19_4 C 0.59332(10) 0.9447(2) 0.14774(9)
O1_4 O 0.91700(8) 0.84173(16) 0.80117(7)
O2_4 O 0.93619(8) 0.88778(15) 0.70430(7)
O6_6 O 1.000000 0.64449(19) 0.750000
C1_4 C 0.90713(10) 0.90246(19) 0.75310(9)
H4_4 H 0.808276 0.946704 0.827216
H15_4 H 0.968360 0.595974 0.756960
O11_4 O 0.99336(10) 0.86251(18) 0.58848(8)
H16_4 H 0.993441 0.817181 0.557352
H17_4 H 0.970631 0.924461 0.592832
C13_3 C 0.31751(10) 0.9354(2) 0.98885(9)
C14_3 C 0.25713(11) 0.8974(2) 0.96026(10)
H11_3 H 0.224061 0.864735 0.983383
C15_3 C 0.24603(11) 0.9077(2) 0.89794(11)
H12_3 H 0.205708 0.882523 0.879691
C16_3 C 0.29538(11) 0.9558(2) 0.86296(10)
H13_3 H 0.288666 0.960131 0.821128
C17_3 C 0.35515(10) 0.9977(2) 0.89071(9)
C18_3 C 0.36595(10) 0.9880(2) 0.95368(9)
C13_4 C 0.68249(10) 0.0646(2) 0.01115(9)
C14_4 C 0.74287(11) 0.1026(2) 0.03974(10)
H11_4 H 0.775939 0.135265 0.016617
C15_4 C 0.75397(11) 0.0923(2) 0.10206(11)
H12_4 H 0.794292 0.117477 0.120309
C16_4 C 0.70462(11) 0.0442(2) 0.13704(10)
H13_4 H 0.711334 0.039869 0.178872
C17_4 C 0.64485(10) 0.0023(2) 0.10929(9)
C18_4 C 0.63405(10) 0.0120(2) 0.04632(9)
loop_
_geom_bond_atom_site_label_1
_geom_bond_atom_site_label_2
_geom_bond_site_symmetry_1
_geom_bond_site_symmetry_2
Co1 O1 1_555 1_555
O1 C1 1_555 1_555
O2 C1 1_555 1_555
O5 Co1 1_555 1_555
H1 O5 1_555 1_555
H2 O5 1_555 1_555
O6 Co1 1_555 1_555
H3 O6 1_555 1_555
N1 C9 1_555 1_555
C1 C2 1_555 1_555
C2 C3 1_555 1_555
C3 H4 1_555 1_555
C4 C3 1_555 1_555
C5 C4 1_555 1_555
H5 C5 1_555 1_555
C6 C5 1_555 1_555
H6 C6 1_555 1_555
C7 C2 1_555 1_555
H7 C7 1_555 1_555
C8 C4 1_555 1_555
C9 C8 1_555 1_555
H8 C9 1_555 1_555
C10 N1 1_555 1_555
H9 C10 1_555 1_555
C11 C10 1_555 1_555
C12 C8 1_555 1_555
H10 C12 1_555 1_555
H15 O6 1_555 1_555
Co2 O2 1_555 1_555
O7 Co2 1_555 1_555
O8 Co1 1_555 1_555
O9 C38 1_555 1_555
O10 C38 1_555 1_555
O11 Co2 1_555 1_555
H16 O11 1_555 1_555
H17 O11 1_555 1_555
N2 C28 1_555 1_555
C20 O7 1_555 1_555
C21 C20 1_555 1_555
C22 C21 1_555 1_555
H18 C22 1_555 1_555
C23 C22 1_555 1_555
C24 C23 1_555 1_555
H19 C24 1_555 1_555
C25 C24 1_555 1_555
H20 C25 1_555 1_555
C26 C21 1_555 1_555
H21 C26 1_555 1_555
C27 C23 1_555 1_555
C28 C27 1_555 1_555
H22 C28 1_555 1_555
C29 N2 1_555 1_555
H23 C29 1_555 1_555
C30 C29 1_555 1_555
C31 C27 1_555 1_555
H24 C31 1_555 1_555
C32 C30 1_555 1_555
C33 C32 1_555 1_555
H25 C33 1_555 1_555
C34 C33 1_555 1_555
H26 C34 1_555 1_555
C35 C34 1_555 1_555
H27 C35 1_555 1_555
C36 C35 1_555 1_555
C37 C32 1_555 1_555
H28 C37 1_555 1_555
C38 C36 1_555 1_555
Co3 N1 1_555 1_555
Co4 N2 1_555 1_555
O12 Co1 1_555 1_555
O13 Co2 1_555 1_555
N3 Co1 1_555 1_555
N4 Co2 1_555 1_555
O6 Co2 1_555 1_555
C6 C7 1_555 1_555
C11 C12 1_555 1_555
O8 C20 1_555 1_555
C25 C26 1_555 1_555
C30 C31 1_555 1_555
C36 C37 1_555 1_555
O3 C19 1_555 1_555
O4 C19 1_555 1_555
C14 C13 1_555 1_555
H11 C14 1_555 1_555
C15 C14 1_555 1_555
H12 C15 1_555 1_555
C16 C15 1_555 1_555
H13 C16 1_555 1_555
C17 C16 1_555 1_555
C18 C13 1_555 1_555
H14 C18 1_555 1_555
C19 C17 1_555 1_555
C17 C18 1_555 1_555
O1_2 C1_2 1_555 1_555
O2_2 C1_2 1_555 1_555
H15_2 O6_2 1_555 1_555
Co4 O2_2 1_555 1_555
O11_2 Co4 1_555 1_555
H16_2 O11_2 1_555 1_555
H17_2 O11_2 1_555 1_555
O6_2 Co4 1_555 1_555
O3_2 C19_2 1_555 1_555
O4_2 C19_2 1_555 1_555
Co5_2 O3_2 1_555 1_555
N3 C9_2 1_555 1_555
C2_2 C3_2 1_555 1_555
C4_2 C3_2 1_555 1_555
C5_2 C4_2 1_555 1_555
H5_2 C5_2 1_555 1_555
C6_2 C5_2 1_555 1_555
H6_2 C6_2 1_555 1_555
C7_2 C2_2 1_555 1_555
H7_2 C7_2 1_555 1_555
C8_2 C4_2 1_555 1_555
C9_2 C8_2 1_555 1_555
H8_2 C9_2 1_555 1_555
C10_2 N3 1_555 1_555
H9_2 C10_2 1_555 1_555
C11_2 C10_2 1_555 1_555
C12_2 C8_2 1_555 1_555
H10_2 C12_2 1_555 1_555
C6_2 C7_2 1_555 1_555
C11_2 C12_2 1_555 1_555
O5_2 Co3 1_555 1_555
H1_2 O5_2 1_555 1_555
H2_2 O5_2 1_555 1_555
O6_3 Co3 1_555 1_555
H3_2 O6_3 1_555 1_555
O8_2 Co3 1_555 1_555
O9_2 C38_2 1_555 1_555
O10_2 C38_2 1_555 1_555
C20_2 O7_2 1_555 1_555
Co6_2 O9_2 1_555 1_555
O8_2 C20_2 1_555 1_555
N4 C28_2 1_555 1_555
C22_2 C21_2 1_555 1_555
C23_2 C22_2 1_555 1_555
C24_2 C23_2 1_555 1_555
H19_2 C24_2 1_555 1_555
C25_2 C24_2 1_555 1_555
H20_2 C25_2 1_555 1_555
C26_2 C21_2 1_555 1_555
H21_2 C26_2 1_555 1_555
C27_2 C23_2 1_555 1_555
C28_2 C27_2 1_555 1_555
H22_2 C28_2 1_555 1_555
C29_2 N4 1_555 1_555
H23_2 C29_2 1_555 1_555
C30_2 C29_2 1_555 1_555
C31_2 C27_2 1_555 1_555
H24_2 C31_2 1_555 1_555
C32_2 C30_2 1_555 1_555
C33_2 C32_2 1_555 1_555
H25_2 C33_2 1_555 1_555
C34_2 C33_2 1_555 1_555
H26_2 C34_2 1_555 1_555
C35_2 C34_2 1_555 1_555
H27_2 C35_2 1_555 1_555
C36_2 C35_2 1_555 1_555
C37_2 C32_2 1_555 1_555
C25_2 C26_2 1_555 1_555
C30_2 C31_2 1_555 1_555
C36_2 C37_2 1_555 1_555
O12_2 C19_3 1_555 1_555
O4_3 C19_3 1_555 1_555
C14_2 C13_2 1_555 1_555
H11_2 C14_2 1_555 1_555
C15_2 C14_2 1_555 1_555
H12_2 C15_2 1_555 1_555
C16_2 C15_2 1_555 1_555
H13_2 C16_2 1_555 1_555
C17_2 C16_2 1_555 1_555
C18_2 C13_2 1_555 1_555
H14_3 C18_2 1_555 1_555
C19_3 C17_2 1_555 1_555
C17_2 C18_2 1_555 1_555
Co5_2 O1_3 1_555 1_555
O1_3 C1_3 1_555 1_555
O2_3 C1_3 1_555 1_555
O5_3 Co5_2 1_555 1_555
H1_3 O5_3 1_555 1_555
H2_3 O5_3 1_555 1_555
O6_4 Co5_2 1_555 1_555
H3_3 O6_4 1_555 1_555
N1_2 C9_3 1_555 1_555
C1_3 C2_3 1_555 1_555
C2_3 C3_3 1_555 1_555
C3_3 H4_3 1_555 1_555
C4_3 C3_3 1_555 1_555
C5_3 C4_3 1_555 1_555
H5_3 C5_3 1_555 1_555
C6_3 C5_3 1_555 1_555
H6_3 C6_3 1_555 1_555
C7_3 C2_3 1_555 1_555
H7_3 C7_3 1_555 1_555
C8_3 C4_3 1_555 1_555
C9_3 C8_3 1_555 1_555
H8_3 C9_3 1_555 1_555
C10_3 N1_2 1_555 1_555
H9_3 C10_3 1_555 1_555
C11_3 C10_3 1_555 1_555
C12_3 C8_3 1_555 1_555
H10_3 C12_3 1_555 1_555
H15_3 O6_4 1_555 1_555
Co6_2 O2_3 1_555 1_555
O7_3 Co6_2 1_555 1_555
O8_3 Co5_2 1_555 1_555
O13_2 C38_3 1_555 1_555
O10_3 C38_3 1_555 1_555
O11_3 Co6_2 1_555 1_555
H16_3 O11_3 1_555 1_555
H17_3 O11_3 1_555 1_555
N2_2 C28_3 1_555 1_555
C20_3 O7_3 1_555 1_555
C21_3 C20_3 1_555 1_555
C22_3 C21_3 1_555 1_555
H18_3 C22_3 1_555 1_555
C23_3 C22_3 1_555 1_555
C24_3 C23_3 1_555 1_555
H19_3 C24_3 1_555 1_555
C25_3 C24_3 1_555 1_555
H20_3 C25_3 1_555 1_555
C26_3 C21_3 1_555 1_555
H21_3 C26_3 1_555 1_555
C27_3 C23_3 1_555 1_555
C28_3 C27_3 1_555 1_555
H22_3 C28_3 1_555 1_555
C29_3 N2_2 1_555 1_555
H23_3 C29_3 1_555 1_555
C30_3 C29_3 1_555 1_555
C31_3 C27_3 1_555 1_555
H24_3 C31_3 1_555 1_555
C32_3 C30_3 1_555 1_555
C33_3 C32_3 1_555 1_555
H25_3 C33_3 1_555 1_555
C34_3 C33_3 1_555 1_555
H26_3 C34_3 1_555 1_555
C35_3 C34_3 1_555 1_555
H27_3 C35_3 1_555 1_555
C36_3 C35_3 1_555 1_555
C37_3 C32_3 1_555 1_555
H28_3 C37_3 1_555 1_555
C38_3 C36_3 1_555 1_555
Co5 N1_2 1_555 1_555
Co6 N2_2 1_555 1_555
N3_2 Co5_2 1_555 1_555
N4_2 Co6_2 1_555 1_555
O6_4 Co6_2 1_555 1_555
C6_3 C7_3 1_555 1_555
C11_3 C12_3 1_555 1_555
O8_3 C20_3 1_555 1_555
C25_3 C26_3 1_555 1_555
C30_3 C31_3 1_555 1_555
C36_3 C37_3 1_555 1_555
N4_2 C28_4 1_555 1_555
C22_4 C21_4 1_555 1_555
C23_4 C22_4 1_555 1_555
C24_4 C23_4 1_555 1_555
H19_4 C24_4 1_555 1_555
C25_4 C24_4 1_555 1_555
H20_4 C25_4 1_555 1_555
C26_4 C21_4 1_555 1_555
H21_4 C26_4 1_555 1_555
C27_4 C23_4 1_555 1_555
C28_4 C27_4 1_555 1_555
H22_4 C28_4 1_555 1_555
C29_4 N4_2 1_555 1_555
H23_4 C29_4 1_555 1_555
C30_4 C29_4 1_555 1_555
C31_4 C27_4 1_555 1_555
H24_4 C31_4 1_555 1_555
C32_4 C30_4 1_555 1_555
C33_4 C32_4 1_555 1_555
H25_4 C33_4 1_555 1_555
C34_4 C33_4 1_555 1_555
H26_4 C34_4 1_555 1_555
C35_4 C34_4 1_555 1_555
H27_4 C35_4 1_555 1_555
C36_4 C35_4 1_555 1_555
C37_4 C32_4 1_555 1_555
C25_4 C26_4 1_555 1_555
C30_4 C31_4 1_555 1_555
C36_4 C37_4 1_555 1_555
O5_4 Co5 1_555 1_555
H1_4 O5_4 1_555 1_555
H2_4 O5_4 1_555 1_555
O6_5 Co5 1_555 1_555
H3_4 O6_5 1_555 1_555
O8_4 Co5 1_555 1_555
O13 C38_4 1_555 1_555
O10_4 C38_4 1_555 1_555
C20_4 O7_4 1_555 1_555
O8_4 C20_4 1_555 1_555
N3_2 C9_4 1_555 1_555
C2_4 C3_4 1_555 1_555
C4_4 C3_4 1_555 1_555
C5_4 C4_4 1_555 1_555
H5_4 C5_4 1_555 1_555
C6_4 C5_4 1_555 1_555
H6_4 C6_4 1_555 1_555
C7_4 C2_4 1_555 1_555
H7_4 C7_4 1_555 1_555
C8_4 C4_4 1_555 1_555
C9_4 C8_4 1_555 1_555
H8_4 C9_4 1_555 1_555
C10_4 N3_2 1_555 1_555
H9_4 C10_4 1_555 1_555
C11_4 C10_4 1_555 1_555
C12_4 C8_4 1_555 1_555
H10_4 C12_4 1_555 1_555
C6_4 C7_4 1_555 1_555
C11_4 C12_4 1_555 1_555
O12 C19_4 1_555 1_555
O4_4 C19_4 1_555 1_555
O1_4 C1_4 1_555 1_555
O2_4 C1_4 1_555 1_555
H15_4 O6_6 1_555 1_555
Co6 O2_4 1_555 1_555
O11_4 Co6 1_555 1_555
H16_4 O11_4 1_555 1_555
H17_4 O11_4 1_555 1_555
O6_6 Co6 1_555 1_555
C14_3 C13_3 1_555 1_555
H11_3 C14_3 1_555 1_555
C15_3 C14_3 1_555 1_555
H12_3 C15_3 1_555 1_555
C16_3 C15_3 1_555 1_555
H13_3 C16_3 1_555 1_555
C17_3 C16_3 1_555 1_555
C18_3 C13_3 1_555 1_555
C17_3 C18_3 1_555 1_555
C14_4 C13_4 1_555 1_555
H11_4 C14_4 1_555 1_555
C15_4 C14_4 1_555 1_555
H12_4 C15_4 1_555 1_555
C16_4 C15_4 1_555 1_555
H13_4 C16_4 1_555 1_555
C17_4 C16_4 1_555 1_555
C18_4 C13_4 1_555 1_555
C17_4 C18_4 1_555 1_555

#END
