
###############################################################################
#
# This file contains modified crystal structure data generated from the
# MOF subset of the Cambridge Structural Database (CSD) v543 
# hosted by the Cambridge Crystallographic Data Centre (CCDC).
#
# This work is licensed under the Creative Commons
# Attribution-NonCommercial-ShareAlike 4.0 International License.
# To view a copy of this license, visit
# http://creativecommons.org/licenses/by-nc-sa/4.0/
# or send a letter to
# Creative Commons, PO Box 1866, Mountain View, CA 94042, USA.
#
# CIF created using the CSD Python API on 29 September 2022
# The structure has been converted into the P1 space group
# The structure has a 3D framework
# The original CSD entry ZOPTOQ is in the cubic crystal system
# The original CSD entry ZOPTOQ is in a Sohncke space group
# The framework has been calculated to contain at least 10.0% void space
# The void calculation uses a probe of radius 1.32A, grid spacing 0.4
# The framework is charged, counterions have been retained in the structure
#
###############################################################################

data_ZOPTOQ
_chemical_formula_moiety         '(C192 H192 Cu8 N118 O48 8-)n'
_symmetry_cell_setting           triclinic
_symmetry_space_group_name_H-M   'P 1'
_symmetry_Int_Tables_number      1
_space_group_name_Hall           'P 1'
loop_
_symmetry_equiv_pos_site_id
_symmetry_equiv_pos_as_xyz
1 x,y,z
_cell_length_a                   20.262(2)
_cell_length_b                   20.262(2)
_cell_length_c                   20.262(2)
_cell_angle_alpha                90
_cell_angle_beta                 90
_cell_angle_gamma                90
_cell_volume                     8318.54
loop_
_atom_site_label
_atom_site_type_symbol
_atom_site_fract_x
_atom_site_fract_y
_atom_site_fract_z
Cu1 Cu 0.625000 0.09101(2) 0.15899(2)
O1 O 0.38892(14) 0.17666(12) 0.29580(13)
O2 O 0.35704(14) 0.14765(12) 0.19530(13)
N1 N 0.43018(12) 0.29705(12) 0.25626(12)
N2 N 0.50839(13) 0.32815(12) 0.32279(13)
N3 N 0.46586(13) 0.38088(13) 0.31487(14)
N4 N 0.56866(14) 0.16716(14) 0.13753(15)
N5 N 0.53597(15) 0.26879(14) 0.12303(15)
H1 H 0.537437 0.310621 0.115988
C1 C 0.38784(16) 0.25888(16) 0.21112(16)
H2 H 0.344442 0.280244 0.211295
C2 C 0.48636(15) 0.27916(15) 0.28709(16)
H3 H 0.506452 0.238049 0.283485
C3 C 0.42000(16) 0.36036(15) 0.27479(16)
H4 H 0.384673 0.386032 0.260678
C4 C 0.41342(17) 0.26233(17) 0.14057(16)
H5 H 0.383060 0.239247 0.111631
H6 H 0.415137 0.308098 0.126626
C5 C 0.48049(17) 0.23247(17) 0.13421(16)
C6 C 0.50155(18) 0.16944(18) 0.14347(18)
H7 H 0.474482 0.133478 0.152460
C7 C 0.5875(2) 0.22809(18) 0.1250(2)
H8 H 0.631022 0.240967 0.118289
C8 C 0.37751(16) 0.18758(16) 0.23742(18)
N7 N 0.67721(13) 0.00839(13) 0.17185(12)
N9 N 0.86247(15) 0.06866(14) 0.33284(14)
N10 N 0.87697(15) 0.03597(15) 0.23121(14)
H9 H 0.884012 0.037437 0.189379
H11 H 0.716515 0.006452 0.261951
C14 C 0.85653(18) 0.00155(18) 0.33056(18)
C15 C 0.8750(2) 0.0875(2) 0.27191(18)
H16 H 0.881711 0.131022 0.259033
Cu2 Cu 0.84101(2) 0.125000 0.40899(2)
Cu3 Cu 0.59101(2) 0.34101(2) 0.375000
N11 N 0.57279(13) 0.07815(12) 0.24161(13)
N12 N 0.68134(14) 0.11247(15) 0.08284(14)
Cu1_2 Cu 0.375000 0.59101(2) 0.34101(2)
O1_2 O 0.61108(14) 0.67666(12) 0.20420(13)
O2_2 O 0.64296(14) 0.64765(12) 0.30470(13)
N1_2 N 0.56982(12) 0.79705(12) 0.24374(12)
N2_2 N 0.49161(13) 0.82815(12) 0.17721(13)
N3_2 N 0.53414(13) 0.88088(13) 0.18513(14)
N4_2 N 0.43134(14) 0.66716(14) 0.36247(15)
N5_2 N 0.46403(15) 0.76879(14) 0.37697(15)
H1_2 H 0.462563 0.810621 0.384012
C1_2 C 0.61216(16) 0.75888(16) 0.28888(16)
H2_2 H 0.655558 0.780244 0.288705
C2_2 C 0.51364(15) 0.77916(15) 0.21291(16)
H3_2 H 0.493548 0.738049 0.216515
C3_2 C 0.58000(16) 0.86036(15) 0.22521(16)
H4_2 H 0.615327 0.886032 0.239322
C4_2 C 0.58658(17) 0.76233(17) 0.35943(16)
H5_2 H 0.616940 0.739247 0.388369
H6_2 H 0.584863 0.808098 0.373374
C5_2 C 0.51951(17) 0.73247(17) 0.36579(16)
C6_2 C 0.49845(18) 0.66944(18) 0.35653(18)
H7_2 H 0.525518 0.633478 0.347540
C7_2 C 0.4125(2) 0.72809(18) 0.3750(2)
H8_2 H 0.368978 0.740967 0.381711
C8_2 C 0.62249(16) 0.68758(16) 0.26258(18)
O3 O 0.29580(13) 0.38892(14) 0.17666(12)
O4 O 0.19530(13) 0.35704(14) 0.14765(12)
N6 N 0.25626(12) 0.43018(12) 0.29705(12)
N7_2 N 0.32279(13) 0.50839(13) 0.32815(12)
N8 N 0.31487(14) 0.46586(13) 0.38088(13)
N9_2 N 0.13753(15) 0.56866(14) 0.16716(14)
N10_2 N 0.12303(15) 0.53597(15) 0.26879(14)
H9_2 H 0.115988 0.537437 0.310621
C9 C 0.21112(16) 0.38784(16) 0.25888(16)
H10 H 0.211295 0.344442 0.280244
C10 C 0.28709(16) 0.48636(15) 0.27916(15)
H11_2 H 0.283485 0.506452 0.238049
C11 C 0.27479(16) 0.42000(16) 0.36036(15)
H12 H 0.260678 0.384673 0.386032
C12 C 0.14057(16) 0.41342(17) 0.26233(17)
H13 H 0.111631 0.383060 0.239247
H14 H 0.126626 0.415137 0.308098
C13 C 0.13421(16) 0.48049(17) 0.23247(17)
C14_2 C 0.14347(18) 0.50155(18) 0.16944(18)
H15 H 0.152460 0.474482 0.133478
C15_2 C 0.1250(2) 0.5875(2) 0.22809(18)
H16_2 H 0.118289 0.631022 0.240967
C16 C 0.23742(18) 0.37751(16) 0.18758(16)
Cu2_2 Cu 0.15899(2) 0.625000 0.09101(2)
Cu3_2 Cu 0.40899(2) 0.84101(2) 0.125000
N11_2 N 0.42721(13) 0.57815(12) 0.25839(13)
N12_2 N 0.31866(14) 0.61247(15) 0.41716(14)
Cu1_3 Cu 0.125000 0.40899(2) 0.84101(2)
N2_3 N 0.00839(13) 0.17185(12) 0.67721(13)
N4_3 N 0.06866(14) 0.33284(14) 0.86247(15)
N5_3 N 0.03597(15) 0.23121(14) 0.87697(15)
H1_3 H 0.037437 0.189379 0.884012
H3_3 H 0.006452 0.261951 0.716515
C6_3 C 0.00155(18) 0.33056(18) 0.85653(18)
C7_3 C 0.0875(2) 0.27191(18) 0.8750(2)
H8_3 H 0.131022 0.259033 0.881711
O3_2 O 0.20420(13) 0.61108(14) 0.67666(12)
O4_2 O 0.30470(13) 0.64296(14) 0.64765(12)
N6_2 N 0.24374(12) 0.56982(12) 0.79705(12)
N7_3 N 0.17721(13) 0.49161(13) 0.82815(12)
N8_2 N 0.18513(14) 0.53414(13) 0.88088(13)
N9_3 N 0.36247(15) 0.43134(14) 0.66716(14)
N10_3 N 0.37697(15) 0.46403(15) 0.76879(14)
H9_3 H 0.384012 0.462563 0.810621
C9_2 C 0.28888(16) 0.61216(16) 0.75888(16)
H10_2 H 0.288705 0.655558 0.780244
C10_2 C 0.21291(16) 0.51364(15) 0.77916(15)
H11_3 H 0.216515 0.493548 0.738049
C11_2 C 0.22521(16) 0.58000(16) 0.86036(15)
H12_2 H 0.239322 0.615327 0.886032
C12_2 C 0.35943(16) 0.58658(17) 0.76233(17)
H13_2 H 0.388369 0.616940 0.739247
H14_2 H 0.373374 0.584863 0.808098
C13_2 C 0.36579(16) 0.51951(17) 0.73247(17)
C14_3 C 0.35653(18) 0.49845(18) 0.66944(18)
H15_2 H 0.347540 0.525518 0.633478
C15_3 C 0.3750(2) 0.4125(2) 0.72809(18)
H16_3 H 0.381711 0.368978 0.740967
C16_2 C 0.26258(18) 0.62249(16) 0.68758(16)
Cu2_3 Cu 0.34101(2) 0.375000 0.59101(2)
Cu3_3 Cu 0.09101(2) 0.15899(2) 0.625000
N11_3 N 0.07279(13) 0.42185(12) 0.75839(13)
N12_3 N 0.18134(14) 0.38753(15) 0.91716(14)
N7_4 N 0.17185(12) 0.67721(13) 0.00839(13)
N9_4 N 0.33284(14) 0.86247(15) 0.06866(14)
N10_4 N 0.23121(14) 0.87697(15) 0.03597(15)
H9_4 H 0.189379 0.884012 0.037437
H11_4 H 0.261951 0.716515 0.006452
C14_4 C 0.33056(18) 0.85653(18) 0.00155(18)
C15_4 C 0.27191(18) 0.8750(2) 0.0875(2)
H16_4 H 0.259033 0.881711 0.131022
N11_4 N 0.24161(13) 0.57279(13) 0.07815(12)
N12_4 N 0.08284(14) 0.68134(14) 0.11247(15)
O3_3 O 0.17666(12) 0.29580(13) 0.38892(14)
O4_3 O 0.14765(12) 0.19530(13) 0.35704(14)
N6_3 N 0.29705(12) 0.25626(12) 0.43018(12)
N7_5 N 0.32815(12) 0.32279(13) 0.50839(13)
N8_3 N 0.38088(13) 0.31487(14) 0.46586(13)
N9_5 N 0.16716(14) 0.13753(15) 0.56866(14)
N10_5 N 0.26879(14) 0.12303(15) 0.53597(15)
H9_5 H 0.310621 0.115988 0.537437
C9_3 C 0.25888(16) 0.21112(16) 0.38784(16)
H10_3 H 0.280244 0.211295 0.344442
C10_3 C 0.27916(15) 0.28709(16) 0.48636(15)
H11_5 H 0.238049 0.283485 0.506452
C11_3 C 0.36036(15) 0.27479(16) 0.42000(16)
H12_3 H 0.386032 0.260678 0.384673
C12_3 C 0.26233(17) 0.14057(16) 0.41342(17)
H13_3 H 0.239247 0.111631 0.383060
H14_3 H 0.308098 0.126626 0.415137
C13_3 C 0.23247(17) 0.13421(16) 0.48049(17)
C14_5 C 0.16944(18) 0.14347(18) 0.50155(18)
H15_3 H 0.133478 0.152460 0.474482
C15_5 C 0.22809(18) 0.1250(2) 0.5875(2)
H16_5 H 0.240967 0.118289 0.631022
C16_3 C 0.18758(16) 0.23742(18) 0.37751(16)
N11_5 N 0.25839(13) 0.42721(13) 0.57815(12)
N12_5 N 0.41716(14) 0.31866(14) 0.61247(15)
O3_4 O 0.67666(12) 0.20420(13) 0.61108(14)
O4_4 O 0.64765(12) 0.30470(13) 0.64296(14)
N6_4 N 0.79705(12) 0.24374(12) 0.56982(12)
N7_6 N 0.82815(12) 0.17721(13) 0.49161(13)
N8_4 N 0.88088(13) 0.18513(14) 0.53414(13)
N9_6 N 0.66716(14) 0.36247(15) 0.43134(14)
N10_6 N 0.76879(14) 0.37697(15) 0.46403(15)
H9_6 H 0.810621 0.384012 0.462563
C9_4 C 0.75888(16) 0.28888(16) 0.61216(16)
H10_4 H 0.780244 0.288705 0.655558
C10_4 C 0.77916(15) 0.21291(16) 0.51364(15)
H11_6 H 0.738049 0.216515 0.493548
C11_4 C 0.86036(15) 0.22521(16) 0.58000(16)
H12_4 H 0.886032 0.239322 0.615327
C12_4 C 0.76233(17) 0.35943(16) 0.58658(17)
H13_4 H 0.739247 0.388369 0.616940
H14_4 H 0.808098 0.373374 0.584863
C13_4 C 0.73247(17) 0.36579(16) 0.51951(17)
C14_6 C 0.66944(18) 0.35653(18) 0.49845(18)
H15_4 H 0.633478 0.347540 0.525518
C15_6 C 0.72809(18) 0.3750(2) 0.4125(2)
H16_6 H 0.740967 0.381711 0.368978
C16_4 C 0.68758(16) 0.26258(18) 0.62249(16)
N11_6 N 0.75839(13) 0.07279(13) 0.42185(12)
N12_6 N 0.91716(14) 0.18134(14) 0.38753(15)
N11_7 N 0.07815(12) 0.24161(13) 0.57279(13)
N12_7 N 0.11247(15) 0.08284(14) 0.68134(14)
N11_8 N 0.57815(12) 0.25839(13) 0.42721(13)
N12_8 N 0.61247(15) 0.41716(14) 0.31866(14)
N11_9 N 0.42185(12) 0.75839(13) 0.07279(13)
N12_9 N 0.38753(15) 0.91716(14) 0.18134(14)
O1_3 O 0.42666(12) 0.13892(14) 0.45420(13)
O2_3 O 0.39765(12) 0.10704(14) 0.55470(13)
N1_3 N 0.54705(12) 0.18018(12) 0.49374(12)
N3_3 N 0.63088(13) 0.21586(13) 0.43513(14)
N5_4 N 0.51879(14) 0.28597(15) 0.62697(15)
H1_4 H 0.560621 0.287437 0.634012
C1_3 C 0.50888(16) 0.13784(16) 0.53888(16)
H2_3 H 0.530244 0.094442 0.538705
C2_3 C 0.52916(15) 0.23636(15) 0.46291(16)
H3_4 H 0.488049 0.256452 0.466515
C3_3 C 0.61036(15) 0.17000(16) 0.47521(16)
H4_3 H 0.636032 0.134673 0.489322
C4_3 C 0.51233(17) 0.16342(17) 0.60943(16)
H5_3 H 0.489247 0.133060 0.638369
H6_3 H 0.558098 0.165137 0.623374
C5_3 C 0.48247(17) 0.23049(17) 0.61579(16)
C6_4 C 0.41944(18) 0.25155(18) 0.60653(18)
H7_3 H 0.383478 0.224482 0.597540
C7_4 C 0.47809(18) 0.3375(2) 0.6250(2)
H8_4 H 0.490967 0.381022 0.631711
C8_3 C 0.43758(16) 0.12751(16) 0.51258(18)
O3_5 O 0.13892(14) 0.45420(13) 0.42666(12)
O4_5 O 0.10704(14) 0.55470(13) 0.39765(12)
N6_5 N 0.18018(12) 0.49374(12) 0.54705(12)
N8_5 N 0.21586(13) 0.43513(14) 0.63088(13)
N10_7 N 0.28597(15) 0.62697(15) 0.51879(14)
H9_7 H 0.287437 0.634012 0.560621
C9_5 C 0.13784(16) 0.53888(16) 0.50888(16)
H10_5 H 0.094442 0.538705 0.530244
C10_5 C 0.23636(15) 0.46291(16) 0.52916(15)
H11_7 H 0.256452 0.466515 0.488049
C11_5 C 0.17000(16) 0.47521(16) 0.61036(15)
H12_5 H 0.134673 0.489322 0.636032
C12_5 C 0.16342(17) 0.60943(16) 0.51233(17)
H13_5 H 0.133060 0.638369 0.489247
H14_5 H 0.165137 0.623374 0.558098
C13_5 C 0.23049(17) 0.61579(16) 0.48247(17)
C14_7 C 0.25155(18) 0.60653(18) 0.41944(18)
H15_5 H 0.224482 0.597540 0.383478
C15_7 C 0.3375(2) 0.6250(2) 0.47809(18)
H16_7 H 0.381022 0.631711 0.490967
C16_5 C 0.12751(16) 0.51258(18) 0.43758(16)
O2_4 O 0.10235(12) 0.89296(14) 0.05470(13)
H5_4 H 0.010753 0.866940 0.138369
C5_4 C 0.01753(17) 0.76951(17) 0.11579(16)
C6_5 C 0.08056(18) 0.74845(18) 0.10653(18)
H7_4 H 0.116522 0.775518 0.097540
C7_5 C 0.02191(18) 0.6625(2) 0.1250(2)
H8_5 H 0.009033 0.618978 0.131711
C8_4 C 0.06242(16) 0.87249(16) 0.01258(18)
N6_6 N 0.31982(12) 0.50626(12) 0.04705(12)
N8_6 N 0.28414(13) 0.56487(14) 0.13088(13)
N10_8 N 0.21403(15) 0.37303(15) 0.01879(14)
H9_8 H 0.212563 0.365988 0.060621
C9_6 C 0.36216(16) 0.46112(16) 0.00888(16)
H10_6 H 0.405558 0.461295 0.030244
C10_6 C 0.26364(15) 0.53709(16) 0.02916(15)
C11_6 C 0.33000(16) 0.52479(16) 0.11036(15)
H12_6 H 0.365327 0.510678 0.136032
C12_6 C 0.33658(17) 0.39057(16) 0.01233(17)
H14_6 H 0.334863 0.376626 0.058098
O1_4 O 0.07334(12) 0.86108(14) 0.95420(13)
H3_5 H 0.011951 0.743548 0.966515
O3_6 O 0.36108(14) 0.54580(13) 0.92666(12)
O4_6 O 0.39296(14) 0.44530(13) 0.89765(12)
H11_8 H 0.243548 0.533485 0.988049
H13_6 H 0.366940 0.361631 0.989247
C13_6 C 0.26951(17) 0.38421(16) 0.98247(17)
C14_8 C 0.24845(18) 0.39347(18) 0.91944(18)
H15_6 H 0.275518 0.402460 0.883478
C15_8 C 0.1625(2) 0.3750(2) 0.97809(18)
H16_8 H 0.118978 0.368289 0.990967
C16_6 C 0.37249(16) 0.48742(18) 0.93758(16)
N1_4 N 0.04705(12) 0.31982(12) 0.50626(12)
N3_4 N 0.13088(13) 0.28414(13) 0.56487(14)
N5_5 N 0.01879(14) 0.21403(15) 0.37303(15)
H1_5 H 0.060621 0.212563 0.365988
C1_4 C 0.00888(16) 0.36216(16) 0.46112(16)
H2_4 H 0.030244 0.405558 0.461295
C2_4 C 0.02916(15) 0.26364(15) 0.53709(16)
C3_4 C 0.11036(15) 0.33000(16) 0.52479(16)
H4_4 H 0.136032 0.365327 0.510678
C4_4 C 0.01233(17) 0.33658(17) 0.39057(16)
H6_4 H 0.058098 0.334863 0.376626
O1_5 O 0.92666(12) 0.36108(14) 0.54580(13)
O2_5 O 0.89765(12) 0.39296(14) 0.44530(13)
H3_6 H 0.988049 0.243548 0.533485
H5_5 H 0.989247 0.366940 0.361631
C5_5 C 0.98247(17) 0.26951(17) 0.38421(16)
C6_6 C 0.91944(18) 0.24845(18) 0.39347(18)
H7_5 H 0.883478 0.275518 0.402460
C7_6 C 0.97809(18) 0.1625(2) 0.3750(2)
H8_6 H 0.990967 0.118978 0.368289
C8_5 C 0.93758(16) 0.37249(16) 0.48742(18)
O3_7 O 0.63892(14) 0.04580(13) 0.57334(12)
N6_7 N 0.68018(12) 0.00626(12) 0.45295(12)
N8_7 N 0.71586(13) 0.06487(14) 0.36912(13)
C10_7 C 0.73636(15) 0.03709(16) 0.47084(15)
H11_9 H 0.756452 0.033485 0.511951
C11_7 C 0.67000(16) 0.02479(16) 0.38964(15)
H12_7 H 0.634673 0.010678 0.363968
O4_7 O 0.89296(14) 0.05470(13) 0.10235(12)
H13_7 H 0.866940 0.138369 0.010753
C13_7 C 0.76951(17) 0.11579(16) 0.01753(17)
C14_9 C 0.74845(18) 0.10653(18) 0.08056(18)
H15_7 H 0.775518 0.097540 0.116522
C15_9 C 0.6625(2) 0.1250(2) 0.02191(18)
H16_9 H 0.618978 0.131711 0.009033
C16_7 C 0.87249(16) 0.01258(18) 0.06242(16)
O1_6 O 0.57334(12) 0.63892(14) 0.04580(13)
N1_5 N 0.45295(12) 0.68018(12) 0.00626(12)
N3_5 N 0.36912(13) 0.71586(13) 0.06487(14)
C2_5 C 0.47084(15) 0.73636(15) 0.03709(16)
H3_7 H 0.511951 0.756452 0.033485
C3_5 C 0.38964(15) 0.67000(16) 0.02479(16)
H4_5 H 0.363968 0.634673 0.010678
O3_8 O 0.86108(14) 0.95420(13) 0.07334(12)
H11_10 H 0.743548 0.966515 0.011951
O4_8 O 0.05470(13) 0.10235(12) 0.89296(14)
H13_8 H 0.138369 0.010753 0.866940
C13_8 C 0.11579(16) 0.01753(17) 0.76951(17)
C14_10 C 0.10653(18) 0.08056(18) 0.74845(18)
H15_8 H 0.097540 0.116522 0.775518
C15_10 C 0.1250(2) 0.02191(18) 0.6625(2)
H16_10 H 0.131711 0.009033 0.618978
C16_8 C 0.01258(18) 0.06242(16) 0.87249(16)
O3_9 O 0.95420(13) 0.07334(12) 0.86108(14)
H11_11 H 0.966515 0.011951 0.743548
O3_10 O 0.04580(13) 0.57334(12) 0.63892(14)
N6_8 N 0.00626(12) 0.45295(12) 0.68018(12)
N8_8 N 0.06487(14) 0.36912(13) 0.71586(13)
C10_8 C 0.03709(16) 0.47084(15) 0.73636(15)
H11_12 H 0.033485 0.511951 0.756452
C11_8 C 0.02479(16) 0.38964(15) 0.67000(16)
H12_8 H 0.010678 0.363968 0.634673
N6_9 N 0.50626(12) 0.04705(12) 0.31982(12)
N8_9 N 0.56487(14) 0.13088(13) 0.28414(13)
N10_9 N 0.37303(15) 0.01879(14) 0.21403(15)
H9_9 H 0.365988 0.060621 0.212563
C9_7 C 0.46112(16) 0.00888(16) 0.36216(16)
H10_7 H 0.461295 0.030244 0.405558
C10_9 C 0.53709(16) 0.02916(15) 0.26364(15)
C11_9 C 0.52479(16) 0.11036(15) 0.33000(16)
H12_9 H 0.510678 0.136032 0.365327
C12_7 C 0.39057(16) 0.01233(17) 0.33658(17)
H14_7 H 0.376626 0.058098 0.334863
O3_11 O 0.54580(13) 0.92666(12) 0.36108(14)
O4_9 O 0.44530(13) 0.89765(12) 0.39296(14)
H11_13 H 0.533485 0.988049 0.243548
H13_9 H 0.361631 0.989247 0.366940
C13_9 C 0.38421(16) 0.98247(17) 0.26951(17)
C14_11 C 0.39347(18) 0.91944(18) 0.24845(18)
H15_9 H 0.402460 0.883478 0.275518
C15_11 C 0.3750(2) 0.97809(18) 0.1625(2)
H16_11 H 0.368289 0.990967 0.118978
C16_9 C 0.48742(18) 0.93758(16) 0.37249(16)
O3_12 O 0.45420(13) 0.42666(12) 0.13892(14)
O4_10 O 0.55470(13) 0.39765(12) 0.10704(14)
N6_10 N 0.49374(12) 0.54705(12) 0.18018(12)
N8_10 N 0.43513(14) 0.63088(13) 0.21586(13)
N10_10 N 0.62697(15) 0.51879(14) 0.28597(15)
H9_10 H 0.634012 0.560621 0.287437
C9_8 C 0.53888(16) 0.50888(16) 0.13784(16)
H10_8 H 0.538705 0.530244 0.094442
C10_10 C 0.46291(16) 0.52916(15) 0.23636(15)
H11_14 H 0.466515 0.488049 0.256452
C11_10 C 0.47521(16) 0.61036(15) 0.17000(16)
H12_10 H 0.489322 0.636032 0.134673
C12_8 C 0.60943(16) 0.51233(17) 0.16342(17)
H13_10 H 0.638369 0.489247 0.133060
H14_8 H 0.623374 0.558098 0.165137
C13_10 C 0.61579(16) 0.48247(17) 0.23049(17)
C14_12 C 0.60653(18) 0.41944(18) 0.25155(18)
H15_10 H 0.597540 0.383478 0.224482
C15_12 C 0.6250(2) 0.47809(18) 0.3375(2)
H16_12 H 0.631711 0.490967 0.381022
C16_10 C 0.51258(18) 0.43758(16) 0.12751(16)
O3_13 O 0.70420(13) 0.88892(14) 0.32334(12)
O4_11 O 0.80470(13) 0.85704(14) 0.35235(12)
N6_11 N 0.74374(12) 0.93018(12) 0.20295(12)
N8_11 N 0.68513(14) 0.96586(13) 0.11912(13)
C9_9 C 0.78888(16) 0.88784(16) 0.24112(16)
H10_9 H 0.788705 0.844442 0.219756
C10_11 C 0.71291(16) 0.98636(15) 0.22084(15)
C11_11 C 0.72521(16) 0.92000(16) 0.13964(15)
H12_11 H 0.739322 0.884673 0.113968
C12_9 C 0.85943(16) 0.91342(17) 0.23767(17)
H13_11 H 0.888369 0.883060 0.260753
H14_9 H 0.873374 0.915137 0.191902
C13_11 C 0.86579(16) 0.98049(17) 0.26753(17)
H15_11 H 0.847540 0.974482 0.366522
C16_11 C 0.76258(18) 0.87751(16) 0.31242(16)
O1_7 O 0.11108(14) 0.82334(12) 0.79580(13)
O2_6 O 0.14296(14) 0.85235(12) 0.69530(13)
N1_6 N 0.06982(12) 0.70295(12) 0.75626(12)
N3_6 N 0.03414(13) 0.61912(13) 0.81487(14)
C1_5 C 0.11216(16) 0.74112(16) 0.71112(16)
H2_5 H 0.155558 0.719756 0.711295
C2_6 C 0.01364(15) 0.72084(15) 0.78709(16)
C3_6 C 0.08000(16) 0.63964(15) 0.77479(16)
H4_6 H 0.115327 0.613968 0.760678
C4_5 C 0.08658(17) 0.73767(17) 0.64057(16)
H5_6 H 0.116940 0.760753 0.611631
H6_5 H 0.084863 0.691902 0.626626
C5_6 C 0.01951(17) 0.76753(17) 0.63421(16)
H7_6 H 0.025518 0.866522 0.652460
C8_6 C 0.12249(16) 0.81242(16) 0.73742(18)
O3_14 O 0.79580(13) 0.11108(14) 0.82334(12)
O4_12 O 0.69530(13) 0.14296(14) 0.85235(12)
N6_12 N 0.75626(12) 0.06982(12) 0.70295(12)
N8_12 N 0.81487(14) 0.03414(13) 0.61912(13)
C9_10 C 0.71112(16) 0.11216(16) 0.74112(16)
H10_10 H 0.711295 0.155558 0.719756
C10_12 C 0.78709(16) 0.01364(15) 0.72084(15)
C11_12 C 0.77479(16) 0.08000(16) 0.63964(15)
H12_12 H 0.760678 0.115327 0.613968
C12_10 C 0.64057(16) 0.08658(17) 0.73767(17)
H13_12 H 0.611631 0.116940 0.760753
H14_10 H 0.626626 0.084863 0.691902
C13_12 C 0.63421(16) 0.01951(17) 0.76753(17)
H15_12 H 0.652460 0.025518 0.866522
C16_12 C 0.73742(18) 0.12249(16) 0.81242(16)
Cu1_4 Cu 0.875000 0.90899(2) 0.65899(2)
N2_4 N 0.99161(13) 0.67185(12) 0.82279(13)
N4_4 N 0.93134(14) 0.83284(14) 0.63753(15)
N5_6 N 0.96403(15) 0.73121(14) 0.62303(15)
H1_6 H 0.962563 0.689379 0.615988
H3_8 H 0.993548 0.761951 0.783485
C6_7 C 0.99845(18) 0.83056(18) 0.64347(18)
C7_7 C 0.9125(2) 0.77191(18) 0.6250(2)
H8_7 H 0.868978 0.759033 0.618289
N7_7 N 0.82279(13) 0.99161(13) 0.67185(12)
N9_7 N 0.63753(15) 0.93134(14) 0.83284(14)
N10_11 N 0.62303(15) 0.96403(15) 0.73121(14)
H9_11 H 0.615988 0.962563 0.689379
H11_15 H 0.783485 0.993548 0.761951
C14_13 C 0.64347(18) 0.99845(18) 0.83056(18)
C15_13 C 0.6250(2) 0.9125(2) 0.77191(18)
H16_13 H 0.618289 0.868978 0.759033
Cu2_4 Cu 0.65899(2) 0.875000 0.90899(2)
Cu3_4 Cu 0.90899(2) 0.65899(2) 0.875000
N11_10 N 0.92721(13) 0.92185(12) 0.74161(13)
N12_10 N 0.81866(14) 0.88753(15) 0.58284(14)
N7_8 N 0.67185(12) 0.82279(13) 0.99161(13)
N9_8 N 0.83284(14) 0.63753(15) 0.93134(14)
N10_12 N 0.73121(14) 0.62303(15) 0.96403(15)
H9_12 H 0.689379 0.615988 0.962563
H11_16 H 0.761951 0.783485 0.993548
C14_14 C 0.83056(18) 0.64347(18) 0.99845(18)
C15_14 C 0.77191(18) 0.6250(2) 0.9125(2)
H16_14 H 0.759033 0.618289 0.868978
N11_11 N 0.74161(13) 0.92721(13) 0.92185(12)
N12_11 N 0.58284(14) 0.81866(14) 0.88753(15)
N11_12 N 0.92185(12) 0.74161(13) 0.92721(13)
N12_12 N 0.88753(15) 0.58284(14) 0.81866(14)
N1_7 N 0.95295(12) 0.81982(12) 0.99374(12)
N3_7 N 0.86912(13) 0.78414(13) 0.93513(14)
C2_7 C 0.97084(15) 0.76364(15) 0.96291(16)
C3_7 C 0.88964(15) 0.83000(16) 0.97521(16)
H4_7 H 0.863968 0.865327 0.989322
O4_13 O 0.60704(14) 0.94530(13) 0.60235(12)
N10_13 N 0.78597(15) 0.87303(15) 0.48121(14)
H9_13 H 0.787437 0.865988 0.439379
C9_11 C 0.63784(16) 0.96112(16) 0.49112(16)
H10_11 H 0.594442 0.961295 0.469756
C12_11 C 0.66342(17) 0.89057(16) 0.48767(17)
H13_13 H 0.633060 0.861631 0.510753
H14_11 H 0.665137 0.876626 0.441902
C13_13 C 0.73049(17) 0.88421(16) 0.51753(17)
C14_15 C 0.75155(18) 0.89347(18) 0.58056(18)
H15_13 H 0.724482 0.902460 0.616522
C15_15 C 0.8375(2) 0.8750(2) 0.52191(18)
H16_15 H 0.881022 0.868289 0.509033
C16_13 C 0.62751(16) 0.98742(18) 0.56242(16)
O2_7 O 0.60235(12) 0.60704(14) 0.94530(13)
N5_7 N 0.48121(14) 0.78597(15) 0.87303(15)
H1_7 H 0.439379 0.787437 0.865988
C1_6 C 0.49112(16) 0.63784(16) 0.96112(16)
H2_6 H 0.469756 0.594442 0.961295
C4_6 C 0.48767(17) 0.66342(17) 0.89057(16)
H5_7 H 0.510753 0.633060 0.861631
H6_6 H 0.441902 0.665137 0.876626
C5_7 C 0.51753(17) 0.73049(17) 0.88421(16)
C6_8 C 0.58056(18) 0.75155(18) 0.89347(18)
H7_7 H 0.616522 0.724482 0.902460
C7_8 C 0.52191(18) 0.8375(2) 0.8750(2)
H8_8 H 0.509033 0.881022 0.868289
C8_7 C 0.56242(16) 0.62751(16) 0.98742(18)
N6_13 N 0.81982(12) 0.99374(12) 0.95295(12)
N8_13 N 0.78414(13) 0.93513(14) 0.86912(13)
C10_13 C 0.76364(15) 0.96291(16) 0.97084(15)
C11_13 C 0.83000(16) 0.97521(16) 0.88964(15)
H12_13 H 0.865327 0.989322 0.863968
N6_14 N 0.99374(12) 0.95295(12) 0.81982(12)
N8_14 N 0.93513(14) 0.86912(13) 0.78414(13)
C10_14 C 0.96291(16) 0.97084(15) 0.76364(15)
C11_14 C 0.97521(16) 0.88964(15) 0.83000(16)
H12_14 H 0.989322 0.863968 0.865327
O4_14 O 0.94530(13) 0.60235(12) 0.60704(14)
N10_14 N 0.87303(15) 0.48121(14) 0.78597(15)
H9_14 H 0.865988 0.439379 0.787437
C9_12 C 0.96112(16) 0.49112(16) 0.63784(16)
H10_12 H 0.961295 0.469756 0.594442
C12_12 C 0.89057(16) 0.48767(17) 0.66342(17)
H13_14 H 0.861631 0.510753 0.633060
H14_12 H 0.876626 0.441902 0.665137
C13_14 C 0.88421(16) 0.51753(17) 0.73049(17)
C14_16 C 0.89347(18) 0.58056(18) 0.75155(18)
H15_14 H 0.902460 0.616522 0.724482
C15_16 C 0.8750(2) 0.52191(18) 0.8375(2)
H16_16 H 0.868289 0.509033 0.881022
C16_14 C 0.98742(18) 0.56242(16) 0.62751(16)
O1_8 O 0.88892(14) 0.32334(12) 0.70420(13)
O2_8 O 0.85704(14) 0.35235(12) 0.80470(13)
N1_8 N 0.93018(12) 0.20295(12) 0.74374(12)
N3_8 N 0.96586(13) 0.11912(13) 0.68513(14)
C1_7 C 0.88784(16) 0.24112(16) 0.78888(16)
H2_7 H 0.844442 0.219756 0.788705
C2_8 C 0.98636(15) 0.22084(15) 0.71291(16)
C3_8 C 0.92000(16) 0.13964(15) 0.72521(16)
H4_8 H 0.884673 0.113968 0.739322
C4_7 C 0.91342(17) 0.23767(17) 0.85943(16)
H5_8 H 0.883060 0.260753 0.888369
H6_7 H 0.915137 0.191902 0.873374
C5_8 C 0.98049(17) 0.26753(17) 0.86579(16)
H7_8 H 0.974482 0.366522 0.847540
C8_8 C 0.87751(16) 0.31242(16) 0.76258(18)
O3_15 O 0.32334(12) 0.70420(13) 0.88892(14)
O4_15 O 0.35235(12) 0.80470(13) 0.85704(14)
N6_15 N 0.20295(12) 0.74374(12) 0.93018(12)
N8_15 N 0.11912(13) 0.68513(14) 0.96586(13)
C9_13 C 0.24112(16) 0.78888(16) 0.88784(16)
H10_13 H 0.219756 0.788705 0.844442
C10_15 C 0.22084(15) 0.71291(16) 0.98636(15)
C11_15 C 0.13964(15) 0.72521(16) 0.92000(16)
H12_15 H 0.113968 0.739322 0.884673
C12_13 C 0.23767(17) 0.85943(16) 0.91342(17)
H13_15 H 0.260753 0.888369 0.883060
H14_13 H 0.191902 0.873374 0.915137
C13_15 C 0.26753(17) 0.86579(16) 0.98049(17)
H15_15 H 0.366522 0.847540 0.974482
C16_15 C 0.31242(16) 0.76258(18) 0.87751(16)
O3_16 O 0.82334(12) 0.79580(13) 0.11108(14)
O4_16 O 0.85235(12) 0.69530(13) 0.14296(14)
N6_16 N 0.70295(12) 0.75626(12) 0.06982(12)
N8_16 N 0.61912(13) 0.81487(14) 0.03414(13)
C9_14 C 0.74112(16) 0.71112(16) 0.11216(16)
H10_14 H 0.719756 0.711295 0.155558
C10_16 C 0.72084(15) 0.78709(16) 0.01364(15)
C11_16 C 0.63964(15) 0.77479(16) 0.08000(16)
H12_16 H 0.613968 0.760678 0.115327
C12_14 C 0.73767(17) 0.64057(16) 0.08658(17)
H13_16 H 0.760753 0.611631 0.116940
H14_14 H 0.691902 0.626626 0.084863
C13_16 C 0.76753(17) 0.63421(16) 0.01951(17)
H15_16 H 0.866522 0.652460 0.025518
C16_16 C 0.81242(16) 0.73742(18) 0.12249(16)
N5_8 N 0.98121(14) 0.71403(15) 0.12697(15)
H1_8 H 0.939379 0.712563 0.134012
C1_8 C 0.99112(16) 0.86216(16) 0.03888(16)
H2_8 H 0.969756 0.905558 0.038705
C4_8 C 0.98767(17) 0.83658(17) 0.10943(16)
H6_8 H 0.941902 0.834863 0.123374
N10_15 N 0.71403(15) 0.12697(15) 0.98121(14)
H9_15 H 0.712563 0.134012 0.939379
C9_15 C 0.86216(16) 0.03888(16) 0.99112(16)
H10_15 H 0.905558 0.038705 0.969756
C12_15 C 0.83658(17) 0.10943(16) 0.98767(17)
H14_15 H 0.834863 0.123374 0.941902
N10_16 N 0.12697(15) 0.98121(14) 0.71403(15)
H9_16 H 0.134012 0.939379 0.712563
C9_16 C 0.03888(16) 0.99112(16) 0.86216(16)
H10_16 H 0.038705 0.969756 0.905558
C12_16 C 0.10943(16) 0.98767(17) 0.83658(17)
H14_16 H 0.123374 0.941902 0.834863
loop_
_geom_bond_atom_site_label_1
_geom_bond_atom_site_label_2
_geom_bond_site_symmetry_1
_geom_bond_site_symmetry_2
Cu1 N4 1_555 1_555
O1 C8 1_555 1_555
O2 C8 1_555 1_555
N1 C1 1_555 1_555
N2 N3 1_555 1_555
N3 C3 1_555 1_555
N4 C6 1_555 1_555
N5 H1 1_555 1_555
C1 H2 1_555 1_555
C2 N1 1_555 1_555
H3 C2 1_555 1_555
C3 N1 1_555 1_555
H4 C3 1_555 1_555
C4 C1 1_555 1_555
H5 C4 1_555 1_555
H6 C4 1_555 1_555
C5 N5 1_555 1_555
C6 C5 1_555 1_555
H7 C6 1_555 1_555
C7 N4 1_555 1_555
H8 C7 1_555 1_555
C8 C1 1_555 1_555
N7 Cu1 1_555 1_555
N9 C14 1_555 1_555
N10 H9 1_555 1_555
C15 N9 1_555 1_555
H16 C15 1_555 1_555
Cu2 N9 1_555 1_555
Cu3 N2 1_555 1_555
N11 Cu1 1_555 1_555
N12 Cu1 1_555 1_555
N2 C2 1_555 1_555
N5 C7 1_555 1_555
C4 C5 1_555 1_555
N10 C15 1_555 1_555
Cu1_2 N4_2 1_555 1_555
O1_2 C8_2 1_555 1_555
O2_2 C8_2 1_555 1_555
N1_2 C1_2 1_555 1_555
N2_2 N3_2 1_555 1_555
N3_2 C3_2 1_555 1_555
N4_2 C6_2 1_555 1_555
N5_2 H1_2 1_555 1_555
C1_2 H2_2 1_555 1_555
C2_2 N1_2 1_555 1_555
H3_2 C2_2 1_555 1_555
C3_2 N1_2 1_555 1_555
H4_2 C3_2 1_555 1_555
C4_2 C1_2 1_555 1_555
H5_2 C4_2 1_555 1_555
H6_2 C4_2 1_555 1_555
C5_2 N5_2 1_555 1_555
C6_2 C5_2 1_555 1_555
H7_2 C6_2 1_555 1_555
C7_2 N4_2 1_555 1_555
H8_2 C7_2 1_555 1_555
C8_2 C1_2 1_555 1_555
O3 C16 1_555 1_555
O4 C16 1_555 1_555
N6 C9 1_555 1_555
N7_2 Cu1_2 1_555 1_555
N8 N7_2 1_555 1_555
N9_2 C14_2 1_555 1_555
N10_2 H9_2 1_555 1_555
C9 H10 1_555 1_555
C10 N6 1_555 1_555
H11_2 C10 1_555 1_555
C11 N6 1_555 1_555
H12 C11 1_555 1_555
C12 C9 1_555 1_555
H13 C12 1_555 1_555
H14 C12 1_555 1_555
C13 N10_2 1_555 1_555
C14_2 C13 1_555 1_555
H15 C14_2 1_555 1_555
C15_2 N9_2 1_555 1_555
H16_2 C15_2 1_555 1_555
C16 C9 1_555 1_555
Cu2_2 N9_2 1_555 1_555
Cu3_2 N2_2 1_555 1_555
N11_2 Cu1_2 1_555 1_555
N12_2 Cu1_2 1_555 1_555
N2_2 C2_2 1_555 1_555
N5_2 C7_2 1_555 1_555
C4_2 C5_2 1_555 1_555
N7_2 C10 1_555 1_555
N8 C11 1_555 1_555
N10_2 C15_2 1_555 1_555
C12 C13 1_555 1_555
Cu1_3 N4_3 1_555 1_555
N4_3 C6_3 1_555 1_555
N5_3 H1_3 1_555 1_555
C7_3 N4_3 1_555 1_555
H8_3 C7_3 1_555 1_555
O3_2 C16_2 1_555 1_555
O4_2 C16_2 1_555 1_555
N6_2 C9_2 1_555 1_555
N7_3 Cu1_3 1_555 1_555
N8_2 N7_3 1_555 1_555
N9_3 C14_3 1_555 1_555
N10_3 H9_3 1_555 1_555
C9_2 H10_2 1_555 1_555
C10_2 N6_2 1_555 1_555
H11_3 C10_2 1_555 1_555
C11_2 N6_2 1_555 1_555
H12_2 C11_2 1_555 1_555
C12_2 C9_2 1_555 1_555
H13_2 C12_2 1_555 1_555
H14_2 C12_2 1_555 1_555
C13_2 N10_3 1_555 1_555
C14_3 C13_2 1_555 1_555
H15_2 C14_3 1_555 1_555
C15_3 N9_3 1_555 1_555
H16_3 C15_3 1_555 1_555
C16_2 C9_2 1_555 1_555
Cu2_3 N9_3 1_555 1_555
Cu3_3 N2_3 1_555 1_555
N11_3 Cu1_3 1_555 1_555
N12_3 Cu1_3 1_555 1_555
N5_3 C7_3 1_555 1_555
N7_3 C10_2 1_555 1_555
N8_2 C11_2 1_555 1_555
N10_3 C15_3 1_555 1_555
C12_2 C13_2 1_555 1_555
N7_4 Cu2_2 1_555 1_555
N9_4 C14_4 1_555 1_555
N10_4 H9_4 1_555 1_555
C15_4 N9_4 1_555 1_555
H16_4 C15_4 1_555 1_555
Cu3_2 N9_4 1_555 1_555
N11_4 Cu2_2 1_555 1_555
N12_4 Cu2_2 1_555 1_555
N10_4 C15_4 1_555 1_555
O3_3 C16_3 1_555 1_555
O4_3 C16_3 1_555 1_555
N6_3 C9_3 1_555 1_555
N7_5 Cu2_3 1_555 1_555
N8_3 N7_5 1_555 1_555
N9_5 C14_5 1_555 1_555
N10_5 H9_5 1_555 1_555
C9_3 H10_3 1_555 1_555
C10_3 N6_3 1_555 1_555
H11_5 C10_3 1_555 1_555
C11_3 N6_3 1_555 1_555
H12_3 C11_3 1_555 1_555
C12_3 C9_3 1_555 1_555
H13_3 C12_3 1_555 1_555
H14_3 C12_3 1_555 1_555
C13_3 N10_5 1_555 1_555
C14_5 C13_3 1_555 1_555
H15_3 C14_5 1_555 1_555
C15_5 N9_5 1_555 1_555
H16_5 C15_5 1_555 1_555
C16_3 C9_3 1_555 1_555
Cu3_3 N9_5 1_555 1_555
N11_5 Cu2_3 1_555 1_555
N12_5 Cu2_3 1_555 1_555
N7_5 C10_3 1_555 1_555
N8_3 C11_3 1_555 1_555
N10_5 C15_5 1_555 1_555
C12_3 C13_3 1_555 1_555
O3_4 C16_4 1_555 1_555
O4_4 C16_4 1_555 1_555
N6_4 C9_4 1_555 1_555
N7_6 Cu2 1_555 1_555
N8_4 N7_6 1_555 1_555
N9_6 C14_6 1_555 1_555
N10_6 H9_6 1_555 1_555
C9_4 H10_4 1_555 1_555
C10_4 N6_4 1_555 1_555
H11_6 C10_4 1_555 1_555
C11_4 N6_4 1_555 1_555
H12_4 C11_4 1_555 1_555
C12_4 C9_4 1_555 1_555
H13_4 C12_4 1_555 1_555
H14_4 C12_4 1_555 1_555
C13_4 N10_6 1_555 1_555
C14_6 C13_4 1_555 1_555
H15_4 C14_6 1_555 1_555
C15_6 N9_6 1_555 1_555
H16_6 C15_6 1_555 1_555
C16_4 C9_4 1_555 1_555
Cu3 N9_6 1_555 1_555
N11_6 Cu2 1_555 1_555
N12_6 Cu2 1_555 1_555
N7_6 C10_4 1_555 1_555
N8_4 C11_4 1_555 1_555
N10_6 C15_6 1_555 1_555
C12_4 C13_4 1_555 1_555
N11_7 Cu3_3 1_555 1_555
N12_7 Cu3_3 1_555 1_555
N11_8 Cu3 1_555 1_555
N12_8 Cu3 1_555 1_555
N11_9 Cu3_2 1_555 1_555
N12_9 Cu3_2 1_555 1_555
O1_3 C8_3 1_555 1_555
O2_3 C8_3 1_555 1_555
N1_3 C1_3 1_555 1_555
N11_8 N3_3 1_555 1_555
N3_3 C3_3 1_555 1_555
N12_5 C6_4 1_555 1_555
N5_4 H1_4 1_555 1_555
C1_3 H2_3 1_555 1_555
C2_3 N1_3 1_555 1_555
H3_4 C2_3 1_555 1_555
C3_3 N1_3 1_555 1_555
H4_3 C3_3 1_555 1_555
C4_3 C1_3 1_555 1_555
H5_3 C4_3 1_555 1_555
H6_3 C4_3 1_555 1_555
C5_3 N5_4 1_555 1_555
C6_4 C5_3 1_555 1_555
H7_3 C6_4 1_555 1_555
C7_4 N12_5 1_555 1_555
H8_4 C7_4 1_555 1_555
C8_3 C1_3 1_555 1_555
O3_5 C16_5 1_555 1_555
O4_5 C16_5 1_555 1_555
N6_5 C9_5 1_555 1_555
N8_5 N11_5 1_555 1_555
N12_2 C14_7 1_555 1_555
N10_7 H9_7 1_555 1_555
C9_5 H10_5 1_555 1_555
C10_5 N6_5 1_555 1_555
H11_7 C10_5 1_555 1_555
C11_5 N6_5 1_555 1_555
H12_5 C11_5 1_555 1_555
C12_5 C9_5 1_555 1_555
H13_5 C12_5 1_555 1_555
H14_5 C12_5 1_555 1_555
C13_5 N10_7 1_555 1_555
C14_7 C13_5 1_555 1_555
H15_5 C14_7 1_555 1_555
C15_7 N12_2 1_555 1_555
H16_7 C15_7 1_555 1_555
C16_5 C9_5 1_555 1_555
N11_8 C2_3 1_555 1_555
N5_4 C7_4 1_555 1_555
C4_3 C5_3 1_555 1_555
N11_5 C10_5 1_555 1_555
N8_5 C11_5 1_555 1_555
N10_7 C15_7 1_555 1_555
C12_5 C13_5 1_555 1_555
O2_4 C8_4 1_555 1_555
N12_4 C6_5 1_555 1_555
C6_5 C5_4 1_555 1_555
H7_4 C6_5 1_555 1_555
C7_5 N12_4 1_555 1_555
H8_5 C7_5 1_555 1_555
N6_6 C9_6 1_555 1_555
N8_6 N11_4 1_555 1_555
N10_8 H9_8 1_555 1_555
C9_6 H10_6 1_555 1_555
C10_6 N6_6 1_555 1_555
C11_6 N6_6 1_555 1_555
H12_6 C11_6 1_555 1_555
C12_6 C9_6 1_555 1_555
H14_6 C12_6 1_555 1_555
N11_4 C10_6 1_555 1_555
N8_6 C11_6 1_555 1_555
O3_6 C16_6 1_555 1_555
O4_6 C16_6 1_555 1_555
N12_3 C14_8 1_555 1_555
C14_8 C13_6 1_555 1_555
H15_6 C14_8 1_555 1_555
C15_8 N12_3 1_555 1_555
H16_8 C15_8 1_555 1_555
N1_4 C1_4 1_555 1_555
N11_7 N3_4 1_555 1_555
N3_4 C3_4 1_555 1_555
N5_5 H1_5 1_555 1_555
C1_4 H2_4 1_555 1_555
C2_4 N1_4 1_555 1_555
C3_4 N1_4 1_555 1_555
H4_4 C3_4 1_555 1_555
C4_4 C1_4 1_555 1_555
H6_4 C4_4 1_555 1_555
N11_7 C2_4 1_555 1_555
O1_5 C8_5 1_555 1_555
O2_5 C8_5 1_555 1_555
N12_6 C6_6 1_555 1_555
C6_6 C5_5 1_555 1_555
H7_5 C6_6 1_555 1_555
C7_6 N12_6 1_555 1_555
H8_6 C7_6 1_555 1_555
N8_7 N11_6 1_555 1_555
C10_7 N6_7 1_555 1_555
H11_9 C10_7 1_555 1_555
C11_7 N6_7 1_555 1_555
H12_7 C11_7 1_555 1_555
N11_6 C10_7 1_555 1_555
N8_7 C11_7 1_555 1_555
O4_7 C16_7 1_555 1_555
N12 C14_9 1_555 1_555
C14_9 C13_7 1_555 1_555
H15_7 C14_9 1_555 1_555
C15_9 N12 1_555 1_555
H16_9 C15_9 1_555 1_555
N11_9 N3_5 1_555 1_555
N3_5 C3_5 1_555 1_555
C2_5 N1_5 1_555 1_555
H3_7 C2_5 1_555 1_555
C3_5 N1_5 1_555 1_555
H4_5 C3_5 1_555 1_555
N11_9 C2_5 1_555 1_555
O4_8 C16_8 1_555 1_555
N12_7 C14_10 1_555 1_555
C14_10 C13_8 1_555 1_555
H15_8 C14_10 1_555 1_555
C15_10 N12_7 1_555 1_555
H16_10 C15_10 1_555 1_555
N8_8 N11_3 1_555 1_555
C10_8 N6_8 1_555 1_555
H11_12 C10_8 1_555 1_555
C11_8 N6_8 1_555 1_555
H12_8 C11_8 1_555 1_555
N11_3 C10_8 1_555 1_555
N8_8 C11_8 1_555 1_555
N6_9 C9_7 1_555 1_555
N8_9 N11 1_555 1_555
N10_9 H9_9 1_555 1_555
C9_7 H10_7 1_555 1_555
C10_9 N6_9 1_555 1_555
C11_9 N6_9 1_555 1_555
H12_9 C11_9 1_555 1_555
C12_7 C9_7 1_555 1_555
H14_7 C12_7 1_555 1_555
N11 C10_9 1_555 1_555
N8_9 C11_9 1_555 1_555
O3_11 C16_9 1_555 1_555
O4_9 C16_9 1_555 1_555
N12_9 C14_11 1_555 1_555
C14_11 C13_9 1_555 1_555
H15_9 C14_11 1_555 1_555
C15_11 N12_9 1_555 1_555
H16_11 C15_11 1_555 1_555
O3_12 C16_10 1_555 1_555
O4_10 C16_10 1_555 1_555
N6_10 C9_8 1_555 1_555
N8_10 N11_2 1_555 1_555
N12_8 C14_12 1_555 1_555
N10_10 H9_10 1_555 1_555
C9_8 H10_8 1_555 1_555
C10_10 N6_10 1_555 1_555
H11_14 C10_10 1_555 1_555
C11_10 N6_10 1_555 1_555
H12_10 C11_10 1_555 1_555
C12_8 C9_8 1_555 1_555
H13_10 C12_8 1_555 1_555
H14_8 C12_8 1_555 1_555
C13_10 N10_10 1_555 1_555
C14_12 C13_10 1_555 1_555
H15_10 C14_12 1_555 1_555
C15_12 N12_8 1_555 1_555
H16_12 C15_12 1_555 1_555
C16_10 C9_8 1_555 1_555
N11_2 C10_10 1_555 1_555
N8_10 C11_10 1_555 1_555
N10_10 C15_12 1_555 1_555
C12_8 C13_10 1_555 1_555
O3_13 C16_11 1_555 1_555
O4_11 C16_11 1_555 1_555
N6_11 C9_9 1_555 1_555
C9_9 H10_9 1_555 1_555
C10_11 N6_11 1_555 1_555
C11_11 N6_11 1_555 1_555
H12_11 C11_11 1_555 1_555
C12_9 C9_9 1_555 1_555
H13_11 C12_9 1_555 1_555
H14_9 C12_9 1_555 1_555
C16_11 C9_9 1_555 1_555
N8_11 C11_11 1_555 1_555
C12_9 C13_11 1_555 1_555
O1_7 C8_6 1_555 1_555
O2_6 C8_6 1_555 1_555
N1_6 C1_5 1_555 1_555
N3_6 C3_6 1_555 1_555
C1_5 H2_5 1_555 1_555
C2_6 N1_6 1_555 1_555
C3_6 N1_6 1_555 1_555
H4_6 C3_6 1_555 1_555
C4_5 C1_5 1_555 1_555
H5_6 C4_5 1_555 1_555
H6_5 C4_5 1_555 1_555
C8_6 C1_5 1_555 1_555
C4_5 C5_6 1_555 1_555
O3_14 C16_12 1_555 1_555
O4_12 C16_12 1_555 1_555
N6_12 C9_10 1_555 1_555
C9_10 H10_10 1_555 1_555
C10_12 N6_12 1_555 1_555
C11_12 N6_12 1_555 1_555
H12_12 C11_12 1_555 1_555
C12_10 C9_10 1_555 1_555
H13_12 C12_10 1_555 1_555
H14_10 C12_10 1_555 1_555
C16_12 C9_10 1_555 1_555
N8_12 C11_12 1_555 1_555
C12_10 C13_12 1_555 1_555
Cu1_4 N4_4 1_555 1_555
N4_4 C6_7 1_555 1_555
N5_6 H1_6 1_555 1_555
C7_7 N4_4 1_555 1_555
H8_7 C7_7 1_555 1_555
N7_7 Cu1_4 1_555 1_555
N9_7 C14_13 1_555 1_555
N10_11 H9_11 1_555 1_555
C15_13 N9_7 1_555 1_555
H16_13 C15_13 1_555 1_555
Cu2_4 N9_7 1_555 1_555
Cu3_4 N2_4 1_555 1_555
N11_10 Cu1_4 1_555 1_555
N12_10 Cu1_4 1_555 1_555
N5_6 C7_7 1_555 1_555
N10_11 C15_13 1_555 1_555
N7_8 Cu2_4 1_555 1_555
N9_8 C14_14 1_555 1_555
N10_12 H9_12 1_555 1_555
C15_14 N9_8 1_555 1_555
H16_14 C15_14 1_555 1_555
Cu3_4 N9_8 1_555 1_555
N11_11 Cu2_4 1_555 1_555
N12_11 Cu2_4 1_555 1_555
N10_12 C15_14 1_555 1_555
N11_12 Cu3_4 1_555 1_555
N12_12 Cu3_4 1_555 1_555
N11_12 N3_7 1_555 1_555
N3_7 C3_7 1_555 1_555
C2_7 N1_7 1_555 1_555
C3_7 N1_7 1_555 1_555
H4_7 C3_7 1_555 1_555
N11_12 C2_7 1_555 1_555
O4_13 C16_13 1_555 1_555
N12_10 C14_15 1_555 1_555
N10_13 H9_13 1_555 1_555
C9_11 H10_11 1_555 1_555
C12_11 C9_11 1_555 1_555
H13_13 C12_11 1_555 1_555
H14_11 C12_11 1_555 1_555
C13_13 N10_13 1_555 1_555
C14_15 C13_13 1_555 1_555
H15_13 C14_15 1_555 1_555
C15_15 N12_10 1_555 1_555
H16_15 C15_15 1_555 1_555
C16_13 C9_11 1_555 1_555
N10_13 C15_15 1_555 1_555
C12_11 C13_13 1_555 1_555
O2_7 C8_7 1_555 1_555
N12_11 C6_8 1_555 1_555
N5_7 H1_7 1_555 1_555
C1_6 H2_6 1_555 1_555
C4_6 C1_6 1_555 1_555
H5_7 C4_6 1_555 1_555
H6_6 C4_6 1_555 1_555
C5_7 N5_7 1_555 1_555
C6_8 C5_7 1_555 1_555
H7_7 C6_8 1_555 1_555
C7_8 N12_11 1_555 1_555
H8_8 C7_8 1_555 1_555
C8_7 C1_6 1_555 1_555
N8_13 N11_11 1_555 1_555
C10_13 N6_13 1_555 1_555
C11_13 N6_13 1_555 1_555
H12_13 C11_13 1_555 1_555
N5_7 C7_8 1_555 1_555
C4_6 C5_7 1_555 1_555
N11_11 C10_13 1_555 1_555
N8_13 C11_13 1_555 1_555
N8_14 N11_10 1_555 1_555
C10_14 N6_14 1_555 1_555
C11_14 N6_14 1_555 1_555
H12_14 C11_14 1_555 1_555
N11_10 C10_14 1_555 1_555
N8_14 C11_14 1_555 1_555
O4_14 C16_14 1_555 1_555
N12_12 C14_16 1_555 1_555
N10_14 H9_14 1_555 1_555
C9_12 H10_12 1_555 1_555
C12_12 C9_12 1_555 1_555
H13_14 C12_12 1_555 1_555
H14_12 C12_12 1_555 1_555
C13_14 N10_14 1_555 1_555
C14_16 C13_14 1_555 1_555
H15_14 C14_16 1_555 1_555
C15_16 N12_12 1_555 1_555
H16_16 C15_16 1_555 1_555
C16_14 C9_12 1_555 1_555
N10_14 C15_16 1_555 1_555
C12_12 C13_14 1_555 1_555
O1_8 C8_8 1_555 1_555
O2_8 C8_8 1_555 1_555
N1_8 C1_7 1_555 1_555
N3_8 C3_8 1_555 1_555
C1_7 H2_7 1_555 1_555
C2_8 N1_8 1_555 1_555
C3_8 N1_8 1_555 1_555
H4_8 C3_8 1_555 1_555
C4_7 C1_7 1_555 1_555
H5_8 C4_7 1_555 1_555
H6_7 C4_7 1_555 1_555
C8_8 C1_7 1_555 1_555
C4_7 C5_8 1_555 1_555
O3_15 C16_15 1_555 1_555
O4_15 C16_15 1_555 1_555
N6_15 C9_13 1_555 1_555
C9_13 H10_13 1_555 1_555
C10_15 N6_15 1_555 1_555
C11_15 N6_15 1_555 1_555
H12_15 C11_15 1_555 1_555
C12_13 C9_13 1_555 1_555
H13_15 C12_13 1_555 1_555
H14_13 C12_13 1_555 1_555
C16_15 C9_13 1_555 1_555
N8_15 C11_15 1_555 1_555
C12_13 C13_15 1_555 1_555
O3_16 C16_16 1_555 1_555
O4_16 C16_16 1_555 1_555
N6_16 C9_14 1_555 1_555
C9_14 H10_14 1_555 1_555
C10_16 N6_16 1_555 1_555
C11_16 N6_16 1_555 1_555
H12_16 C11_16 1_555 1_555
C12_14 C9_14 1_555 1_555
H13_16 C12_14 1_555 1_555
H14_14 C12_14 1_555 1_555
C16_16 C9_14 1_555 1_555
N8_16 C11_16 1_555 1_555
C12_14 C13_16 1_555 1_555
N5_8 H1_8 1_555 1_555
C1_8 H2_8 1_555 1_555
C4_8 C1_8 1_555 1_555
H6_8 C4_8 1_555 1_555
N10_15 H9_15 1_555 1_555
C9_15 H10_15 1_555 1_555
C12_15 C9_15 1_555 1_555
H14_15 C12_15 1_555 1_555
N10_16 H9_16 1_555 1_555
C9_16 H10_16 1_555 1_555
C12_16 C9_16 1_555 1_555
H14_16 C12_16 1_555 1_555

#END
