
###############################################################################
#
# This file contains modified crystal structure data generated from the
# MOF subset of the Cambridge Structural Database (CSD) v543 
# hosted by the Cambridge Crystallographic Data Centre (CCDC).
#
# This work is licensed under the Creative Commons
# Attribution-NonCommercial-ShareAlike 4.0 International License.
# To view a copy of this license, visit
# http://creativecommons.org/licenses/by-nc-sa/4.0/
# or send a letter to
# Creative Commons, PO Box 1866, Mountain View, CA 94042, USA.
#
# CIF created using the CSD Python API on 29 September 2022
# The structure has been converted into the P1 space group
# The structure has a 3D framework
# The original CSD entry ZOTTIN is in the orthorhombic crystal system
# The framework has been calculated to contain at least 10.0% void space
# The void calculation uses a probe of radius 1.32A, grid spacing 0.4
#
###############################################################################

data_ZOTTIN
_chemical_formula_moiety         '(C448 H288 Cd16 N128 O64)n'
_symmetry_cell_setting           triclinic
_symmetry_space_group_name_H-M   'P 1'
_symmetry_Int_Tables_number      1
_space_group_name_Hall           'P 1'
loop_
_symmetry_equiv_pos_site_id
_symmetry_equiv_pos_as_xyz
1 x,y,z
_cell_length_a                   16.5421(15)
_cell_length_b                   23.4933(16)
_cell_length_c                   40.781(2)
_cell_angle_alpha                90
_cell_angle_beta                 90
_cell_angle_gamma                90
_cell_volume                     15848.7
loop_
_atom_site_label
_atom_site_type_symbol
_atom_site_fract_x
_atom_site_fract_y
_atom_site_fract_z
C1 C 0.2932(2) 0.30915(17) 0.12169(8)
C2 C 0.24505(19) 0.28580(13) 0.15048(7)
C3 C 0.2697(2) 0.23656(16) 0.16596(10)
H1 H 0.3177 0.2179 0.1589
C4 C 0.2252(2) 0.21402(15) 0.19164(10)
H2 H 0.2418 0.1799 0.2021
C5 C 0.15627(19) 0.24217(13) 0.20172(7)
C6 C 0.13215(19) 0.29232(15) 0.18729(9)
H3 H 0.0855 0.3120 0.1948
C7 C 0.1778(2) 0.31347(14) 0.16141(8)
H4 H 0.1617 0.3479 0.1511
C8 C 0.03486(18) 0.19328(13) 0.22495(8)
H5 H 0.0041 0.1932 0.2053
C9 C 0.13047(16) 0.20830(11) 0.26040(7)
C10 C 0.20447(17) 0.22652(12) 0.27717(7)
C11 C 0.2504(3) 0.27283(16) 0.26793(10)
H6 H 0.2357 0.2952 0.2495
C12 C 0.3184(3) 0.2860(2) 0.28618(14)
H7 H 0.3522 0.3169 0.2800
C13 C 0.3361(3) 0.2543(2) 0.31312(13)
H8 H 0.3822 0.2631 0.3261
C14 C 0.2869(2) 0.20929(17) 0.32146(9)
H9 H 0.2997 0.1877 0.3405
Cd1 Cd 0.3750 0.3750 0.072699(6)
N1 N 0.07226(14) 0.17977(9) 0.27498(6)
N2 N 0.01165(15) 0.16963(11) 0.25251(6)
N3 N 0.10873(15) 0.21789(10) 0.22823(6)
N4 N 0.22198(14) 0.19473(10) 0.30396(6)
O1 O 0.27669(16) 0.35726(11) 0.11152(6)
O2 O 0.3481(2) 0.27996(14) 0.10958(8)
C15 C 0.4568(2) 0.44085(17) 0.12169(8)
C16 C 0.50495(19) 0.46420(13) 0.15048(7)
C17 C 0.4803(2) 0.51344(16) 0.16596(10)
H10 H 0.4323 0.5321 0.1589
C18 C 0.5248(2) 0.53598(15) 0.19164(10)
H11 H 0.5082 0.5701 0.2021
C19 C 0.59373(19) 0.50783(13) 0.20172(7)
C20 C 0.61785(19) 0.45768(15) 0.18729(9)
H12 H 0.6645 0.4380 0.1948
C21 C 0.5722(2) 0.43653(14) 0.16141(8)
H13 H 0.5883 0.4021 0.1511
C22 C 0.71514(18) 0.55672(13) 0.22495(8)
H14 H 0.7459 0.5568 0.2053
C23 C 0.61953(16) 0.54170(11) 0.26040(7)
C24 C 0.54553(17) 0.52348(12) 0.27717(7)
C25 C 0.4996(3) 0.47717(16) 0.26793(10)
H15 H 0.5143 0.4548 0.2495
C26 C 0.4316(3) 0.4640(2) 0.28618(14)
H16 H 0.3978 0.4331 0.2800
C27 C 0.4139(3) 0.4957(2) 0.31312(13)
H17 H 0.3678 0.4869 0.3261
C28 C 0.4631(2) 0.54071(17) 0.32146(9)
H18 H 0.4503 0.5623 0.3405
N5 N 0.67774(14) 0.57023(9) 0.27498(6)
N6 N 0.73835(15) 0.58037(11) 0.25251(6)
N7 N 0.64127(15) 0.53211(10) 0.22823(6)
N8 N 0.52802(14) 0.55527(10) 0.30396(6)
O3 O 0.47331(16) 0.39274(11) 0.11152(6)
O4 O 0.4019(2) 0.47004(14) 0.10958(8)
Cd2 Cd 0.6250 0.6250 0.322699(6)
Cd3 Cd 0.1250 0.1250 0.322699(6)
N9 N 0.42774(14) 0.42977(9) 0.02498(6)
N10 N 0.32226(14) 0.32023(9) 0.02498(6)
N11 N 0.27802(14) 0.44473(10) 0.05396(6)
N12 N 0.47198(14) 0.30527(10) 0.05396(6)
C4_2 C 0.0248(2) 0.03598(15) 0.19164(10)
H2_2 H 0.0082 0.0701 0.2021
C5_2 C 0.09373(19) 0.00783(13) 0.20172(7)
C8_2 C 0.21514(18) 0.05672(13) 0.22495(8)
H5_2 H 0.2459 0.0568 0.2053
C9_2 C 0.11953(16) 0.04170(11) 0.26040(7)
C10_2 C 0.04553(17) 0.02348(12) 0.27717(7)
N1_2 N 0.17774(14) 0.07023(9) 0.27498(6)
N2_2 N 0.23835(15) 0.08037(11) 0.25251(6)
N3_2 N 0.14127(15) 0.03211(10) 0.22823(6)
N4_2 N 0.02802(14) 0.05527(10) 0.30396(6)
C1_2 C 0.9568(2) 0.94085(17) 0.12169(8)
C11_2 C 0.9996(3) 0.97717(16) 0.26793(10)
C12_2 C 0.9316(3) 0.9640(2) 0.28618(14)
H7_2 H 0.8978 0.9331 0.2800
C13_2 C 0.9139(3) 0.9957(2) 0.31312(13)
H8_2 H 0.8678 0.9869 0.3261
Cd1_2 Cd 0.8750 0.8750 0.072699(6)
O1_2 O 0.97331(16) 0.89274(11) 0.11152(6)
O2_2 O 0.9019(2) 0.97004(14) 0.10958(8)
C15_2 C 0.7932(2) 0.80915(17) 0.12169(8)
C16_2 C 0.74505(19) 0.78580(13) 0.15048(7)
C17_2 C 0.7697(2) 0.73656(16) 0.16596(10)
H10_2 H 0.8177 0.7179 0.1589
C18_2 C 0.7252(2) 0.71402(15) 0.19164(10)
H11_2 H 0.7418 0.6799 0.2021
C19_2 C 0.65627(19) 0.74217(13) 0.20172(7)
C20_2 C 0.63215(19) 0.79232(15) 0.18729(9)
H12_2 H 0.5855 0.8120 0.1948
C21_2 C 0.6778(2) 0.81347(14) 0.16141(8)
H13_2 H 0.6617 0.8479 0.1511
C22_2 C 0.53486(18) 0.69328(13) 0.22495(8)
H14_2 H 0.5041 0.6932 0.2053
C23_2 C 0.63047(16) 0.70830(11) 0.26040(7)
C24_2 C 0.70447(17) 0.72652(12) 0.27717(7)
C25_2 C 0.7504(3) 0.77283(16) 0.26793(10)
H15_2 H 0.7357 0.7952 0.2495
C26_2 C 0.8184(3) 0.7860(2) 0.28618(14)
H16_2 H 0.8522 0.8169 0.2800
C27_2 C 0.8361(3) 0.7543(2) 0.31312(13)
H17_2 H 0.8822 0.7631 0.3261
C28_2 C 0.7869(2) 0.70929(17) 0.32146(9)
H18_2 H 0.7997 0.6877 0.3405
N5_2 N 0.57226(14) 0.67977(9) 0.27498(6)
N6_2 N 0.51165(15) 0.66963(11) 0.25251(6)
N7_2 N 0.60873(15) 0.71789(10) 0.22823(6)
N8_2 N 0.72198(14) 0.69473(10) 0.30396(6)
O3_2 O 0.77669(16) 0.85726(11) 0.11152(6)
O4_2 O 0.8481(2) 0.77996(14) 0.10958(8)
N9_2 N 0.82226(14) 0.82023(9) 0.02498(6)
N10_2 N 0.92774(14) 0.92977(9) 0.02498(6)
N11_2 N 0.97198(14) 0.80527(10) 0.05396(6)
N12_2 N 0.77802(14) 0.94473(10) 0.05396(6)
C17_3 C 0.4803(2) 0.01344(16) 0.66596(10)
H10_3 H 0.4323 0.0321 0.6589
C18_3 C 0.5248(2) 0.03598(15) 0.69164(10)
H11_3 H 0.5082 0.0701 0.7021
C19_3 C 0.59373(19) 0.00783(13) 0.70172(7)
C22_3 C 0.71514(18) 0.05672(13) 0.72495(8)
H14_3 H 0.7459 0.0568 0.7053
C23_3 C 0.61953(16) 0.04170(11) 0.76040(7)
C24_3 C 0.54553(17) 0.02348(12) 0.77717(7)
C28_3 C 0.4631(2) 0.04071(17) 0.82146(9)
H18_3 H 0.4503 0.0623 0.8405
N5_3 N 0.67774(14) 0.07023(9) 0.77498(6)
N6_3 N 0.73835(15) 0.08037(11) 0.75251(6)
N7_3 N 0.64127(15) 0.03211(10) 0.72823(6)
N8_3 N 0.52802(14) 0.05527(10) 0.80396(6)
Cd2_2 Cd 0.6250 0.1250 0.822699(6)
C1_3 C 0.2932(2) 0.80915(17) 0.62169(8)
C2_2 C 0.24505(19) 0.78580(13) 0.65048(7)
C3_2 C 0.2697(2) 0.73656(16) 0.66596(10)
H1_2 H 0.3177 0.7179 0.6589
C4_3 C 0.2252(2) 0.71402(15) 0.69164(10)
H2_3 H 0.2418 0.6799 0.7021
C5_3 C 0.15627(19) 0.74217(13) 0.70172(7)
C6_2 C 0.13215(19) 0.79232(15) 0.68729(9)
H3_2 H 0.0855 0.8120 0.6948
C7_2 C 0.1778(2) 0.81347(14) 0.66141(8)
H4_2 H 0.1617 0.8479 0.6511
C8_3 C 0.03486(18) 0.69328(13) 0.72495(8)
H5_3 H 0.0041 0.6932 0.7053
C9_3 C 0.13047(16) 0.70830(11) 0.76040(7)
C10_3 C 0.20447(17) 0.72652(12) 0.77717(7)
C11_3 C 0.2504(3) 0.77283(16) 0.76793(10)
H6_2 H 0.2357 0.7952 0.7495
C12_3 C 0.3184(3) 0.7860(2) 0.78618(14)
H7_3 H 0.3522 0.8169 0.7800
C13_3 C 0.3361(3) 0.7543(2) 0.81312(13)
H8_3 H 0.3822 0.7631 0.8261
C14_2 C 0.2869(2) 0.70929(17) 0.82146(9)
H9_2 H 0.2997 0.6877 0.8405
Cd1_3 Cd 0.3750 0.8750 0.572699(6)
N1_3 N 0.07226(14) 0.67977(9) 0.77498(6)
N2_3 N 0.01165(15) 0.66963(11) 0.75251(6)
N3_3 N 0.10873(15) 0.71789(10) 0.72823(6)
N4_3 N 0.22198(14) 0.69473(10) 0.80396(6)
O1_3 O 0.27669(16) 0.85726(11) 0.61152(6)
O2_3 O 0.3481(2) 0.77996(14) 0.60958(8)
C15_3 C 0.4568(2) 0.94085(17) 0.62169(8)
C16_3 C 0.50495(19) 0.96420(13) 0.65048(7)
C20_3 C 0.61785(19) 0.95768(15) 0.68729(9)
H12_3 H 0.6645 0.9380 0.6948
C21_3 C 0.5722(2) 0.93653(14) 0.66141(8)
H13_3 H 0.5883 0.9021 0.6511
C25_3 C 0.4996(3) 0.97717(16) 0.76793(10)
H15_3 H 0.5143 0.9548 0.7495
C26_3 C 0.4316(3) 0.9640(2) 0.78618(14)
H16_3 H 0.3978 0.9331 0.7800
C27_3 C 0.4139(3) 0.9957(2) 0.81312(13)
H17_3 H 0.3678 0.9869 0.8261
O3_3 O 0.47331(16) 0.89274(11) 0.61152(6)
O4_3 O 0.4019(2) 0.97004(14) 0.60958(8)
Cd3_2 Cd 0.1250 0.6250 0.822699(6)
N9_3 N 0.42774(14) 0.92977(9) 0.52498(6)
N10_3 N 0.32226(14) 0.82023(9) 0.52498(6)
N11_3 N 0.27802(14) 0.94473(10) 0.55396(6)
N12_3 N 0.47198(14) 0.80527(10) 0.55396(6)
C2_3 C 0.00495(19) 0.46420(13) 0.65048(7)
C4_4 C 0.0248(2) 0.53598(15) 0.69164(10)
H2_4 H 0.0082 0.5701 0.7021
C5_4 C 0.09373(19) 0.50783(13) 0.70172(7)
C6_3 C 0.11785(19) 0.45768(15) 0.68729(9)
H3_3 H 0.1645 0.4380 0.6948
C7_3 C 0.0722(2) 0.43653(14) 0.66141(8)
H4_3 H 0.0883 0.4021 0.6511
C8_4 C 0.21514(18) 0.55672(13) 0.72495(8)
H5_4 H 0.2459 0.5568 0.7053
C9_4 C 0.11953(16) 0.54170(11) 0.76040(7)
C10_4 C 0.04553(17) 0.52348(12) 0.77717(7)
H6_3 H 0.0143 0.4548 0.7495
N1_4 N 0.17774(14) 0.57023(9) 0.77498(6)
N2_4 N 0.23835(15) 0.58037(11) 0.75251(6)
N3_4 N 0.14127(15) 0.53211(10) 0.72823(6)
N4_4 N 0.02802(14) 0.55527(10) 0.80396(6)
C1_4 C 0.9568(2) 0.44085(17) 0.62169(8)
C3_3 C 0.9803(2) 0.51344(16) 0.66596(10)
H1_3 H 0.9323 0.5321 0.6589
C11_4 C 0.9996(3) 0.47717(16) 0.76793(10)
C12_4 C 0.9316(3) 0.4640(2) 0.78618(14)
H7_4 H 0.8978 0.4331 0.7800
C13_4 C 0.9139(3) 0.4957(2) 0.81312(13)
H8_4 H 0.8678 0.4869 0.8261
C14_3 C 0.9631(2) 0.54071(17) 0.82146(9)
H9_3 H 0.9503 0.5623 0.8405
Cd1_4 Cd 0.8750 0.3750 0.572699(6)
O1_4 O 0.97331(16) 0.39274(11) 0.61152(6)
O2_4 O 0.9019(2) 0.47004(14) 0.60958(8)
C15_4 C 0.7932(2) 0.30915(17) 0.62169(8)
C16_4 C 0.74505(19) 0.28580(13) 0.65048(7)
C17_4 C 0.7697(2) 0.23656(16) 0.66596(10)
H10_4 H 0.8177 0.2179 0.6589
C18_4 C 0.7252(2) 0.21402(15) 0.69164(10)
H11_4 H 0.7418 0.1799 0.7021
C19_4 C 0.65627(19) 0.24217(13) 0.70172(7)
C20_4 C 0.63215(19) 0.29232(15) 0.68729(9)
H12_4 H 0.5855 0.3120 0.6948
C21_4 C 0.6778(2) 0.31347(14) 0.66141(8)
H13_4 H 0.6617 0.3479 0.6511
C22_4 C 0.53486(18) 0.19328(13) 0.72495(8)
H14_4 H 0.5041 0.1932 0.7053
C23_4 C 0.63047(16) 0.20830(11) 0.76040(7)
C24_4 C 0.70447(17) 0.22652(12) 0.77717(7)
C25_4 C 0.7504(3) 0.27283(16) 0.76793(10)
H15_4 H 0.7357 0.2952 0.7495
C26_4 C 0.8184(3) 0.2860(2) 0.78618(14)
H16_4 H 0.8522 0.3169 0.7800
C27_4 C 0.8361(3) 0.2543(2) 0.81312(13)
H17_4 H 0.8822 0.2631 0.8261
C28_4 C 0.7869(2) 0.20929(17) 0.82146(9)
H18_4 H 0.7997 0.1877 0.8405
N5_4 N 0.57226(14) 0.17977(9) 0.77498(6)
N6_4 N 0.51165(15) 0.16963(11) 0.75251(6)
N7_4 N 0.60873(15) 0.21789(10) 0.72823(6)
N8_4 N 0.72198(14) 0.19473(10) 0.80396(6)
O3_4 O 0.77669(16) 0.35726(11) 0.61152(6)
O4_4 O 0.8481(2) 0.27996(14) 0.60958(8)
N9_4 N 0.82226(14) 0.32023(9) 0.52498(6)
N10_4 N 0.92774(14) 0.42977(9) 0.52498(6)
N11_4 N 0.97198(14) 0.30527(10) 0.55396(6)
N12_4 N 0.77802(14) 0.44473(10) 0.55396(6)
C11_5 C 0.7496(3) 0.02283(16) 0.01793(10)
C12_5 C 0.6816(3) 0.0360(2) 0.03618(14)
H7_5 H 0.6478 0.0669 0.0300
C13_5 C 0.6639(3) 0.0043(2) 0.06312(13)
H8_5 H 0.6178 0.0131 0.0761
C23_5 C 0.38047(16) 0.29170(11) 0.01040(7)
C24_5 C 0.45447(17) 0.27348(12) 0.02717(7)
C25_5 C 0.5004(3) 0.22717(16) 0.01793(10)
C26_5 C 0.5684(3) 0.2140(2) 0.03618(14)
H16_5 H 0.6022 0.1831 0.0300
C27_5 C 0.5861(3) 0.2457(2) 0.06312(13)
H17_5 H 0.6322 0.2369 0.0761
C28_5 C 0.5369(2) 0.29071(17) 0.07146(9)
H18_5 H 0.5497 0.3123 0.0905
N6_5 N 0.26165(15) 0.33037(11) 0.00251(6)
C1_5 C 0.7068(2) 0.05915(17) 0.87169(8)
C2_4 C 0.75495(19) 0.03580(13) 0.90048(7)
C6_4 C 0.86785(19) 0.04232(15) 0.93729(9)
H3_4 H 0.9145 0.0620 0.9448
C7_4 C 0.8222(2) 0.06347(14) 0.91141(8)
H4_4 H 0.8383 0.0979 0.9011
H6_4 H 0.7643 0.0452 0.9995
O1_5 O 0.72331(16) 0.10726(11) 0.86152(6)
O2_5 O 0.6519(2) 0.02996(14) 0.85958(8)
C15_5 C 0.5432(2) 0.19085(17) 0.87169(8)
C16_5 C 0.49505(19) 0.21420(13) 0.90048(7)
C17_5 C 0.5197(2) 0.26344(16) 0.91596(10)
H10_5 H 0.5677 0.2821 0.9089
C18_5 C 0.4752(2) 0.28598(15) 0.94164(10)
H11_5 H 0.4918 0.3201 0.9521
C19_5 C 0.40627(19) 0.25783(13) 0.95172(7)
C20_5 C 0.38215(19) 0.20768(15) 0.93729(9)
H12_5 H 0.3355 0.1880 0.9448
C21_5 C 0.4278(2) 0.18653(14) 0.91141(8)
H13_5 H 0.4117 0.1521 0.9011
C22_5 C 0.28486(18) 0.30672(13) 0.97495(8)
H14_5 H 0.2541 0.3068 0.9553
H15_5 H 0.4857 0.2048 0.9995
N7_5 N 0.35873(15) 0.28211(10) 0.97823(6)
O3_5 O 0.52669(16) 0.14274(11) 0.86152(6)
O4_5 O 0.5981(2) 0.22004(14) 0.85958(8)
C9_5 C 0.86953(16) 0.95830(11) 0.01040(7)
C10_5 C 0.79553(17) 0.97652(12) 0.02717(7)
C14_4 C 0.7131(2) 0.95929(17) 0.07146(9)
H9_4 H 0.7003 0.9377 0.0905
N2_5 N 0.98835(15) 0.91963(11) 0.00251(6)
C11_6 C 0.0004(3) 0.72717(16) 0.01793(10)
C12_6 C 0.0684(3) 0.7140(2) 0.03618(14)
H7_6 H 0.1022 0.6831 0.0300
C13_6 C 0.0861(3) 0.7457(2) 0.06312(13)
H8_6 H 0.1322 0.7369 0.0761
C14_5 C 0.0369(2) 0.79071(17) 0.07146(9)
H9_5 H 0.0497 0.8123 0.0905
C23_6 C 0.36953(16) 0.45830(11) 0.01040(7)
C24_6 C 0.29553(17) 0.47652(12) 0.02717(7)
C25_6 C 0.2496(3) 0.52283(16) 0.01793(10)
C26_6 C 0.1816(3) 0.5360(2) 0.03618(14)
H16_6 H 0.1478 0.5669 0.0300
C27_6 C 0.1639(3) 0.5043(2) 0.06312(13)
H17_6 H 0.1178 0.5131 0.0761
C28_6 C 0.2131(2) 0.45929(17) 0.07146(9)
H18_6 H 0.2003 0.4377 0.0905
N6_6 N 0.48835(15) 0.41963(11) 0.00251(6)
C1_6 C 0.0432(2) 0.69085(17) 0.87169(8)
C3_4 C 0.0197(2) 0.76344(16) 0.91596(10)
H1_4 H 0.0677 0.7821 0.9089
O1_6 O 0.02669(16) 0.64274(11) 0.86152(6)
O2_6 O 0.0981(2) 0.72004(14) 0.85958(8)
C15_6 C 0.2068(2) 0.55915(17) 0.87169(8)
C16_6 C 0.25495(19) 0.53580(13) 0.90048(7)
C17_6 C 0.2303(2) 0.48656(16) 0.91596(10)
H10_6 H 0.1823 0.4679 0.9089
C18_6 C 0.2748(2) 0.46402(15) 0.94164(10)
H11_6 H 0.2582 0.4299 0.9521
C19_6 C 0.34373(19) 0.49217(13) 0.95172(7)
C20_6 C 0.36785(19) 0.54232(15) 0.93729(9)
H12_6 H 0.4145 0.5620 0.9448
C21_6 C 0.3222(2) 0.56347(14) 0.91141(8)
H13_6 H 0.3383 0.5979 0.9011
C22_6 C 0.46514(18) 0.44328(13) 0.97495(8)
H14_6 H 0.4959 0.4432 0.9553
H15_6 H 0.2643 0.5452 0.9995
N7_6 N 0.39127(15) 0.46789(10) 0.97823(6)
O3_6 O 0.22331(16) 0.60726(11) 0.86152(6)
O4_6 O 0.1519(2) 0.52996(14) 0.85958(8)
C9_6 C 0.88047(16) 0.79170(11) 0.01040(7)
C10_6 C 0.95447(17) 0.77348(12) 0.02717(7)
N2_6 N 0.76165(15) 0.83037(11) 0.00251(6)
C1_7 C 0.7068(2) 0.55915(17) 0.37169(8)
C2_5 C 0.75495(19) 0.53580(13) 0.40048(7)
C3_5 C 0.7303(2) 0.48656(16) 0.41596(10)
H1_5 H 0.6823 0.4679 0.4089
C4_5 C 0.7748(2) 0.46402(15) 0.44164(10)
H2_5 H 0.7582 0.4299 0.4521
C5_5 C 0.84373(19) 0.49217(13) 0.45172(7)
C6_5 C 0.86785(19) 0.54232(15) 0.43729(9)
H3_5 H 0.9145 0.5620 0.4448
C7_5 C 0.8222(2) 0.56347(14) 0.41141(8)
H4_5 H 0.8383 0.5979 0.4011
C8_5 C 0.96514(18) 0.44328(13) 0.47495(8)
H5_5 H 0.9959 0.4432 0.4553
C9_7 C 0.86953(16) 0.45830(11) 0.51040(7)
C10_7 C 0.79553(17) 0.47652(12) 0.52717(7)
C11_7 C 0.7496(3) 0.52283(16) 0.51793(10)
H6_5 H 0.7643 0.5452 0.4995
C12_7 C 0.6816(3) 0.5360(2) 0.53618(14)
H7_7 H 0.6478 0.5669 0.5300
C13_7 C 0.6639(3) 0.5043(2) 0.56312(13)
H8_7 H 0.6178 0.5131 0.5761
C14_6 C 0.7131(2) 0.45929(17) 0.57146(9)
H9_6 H 0.7003 0.4377 0.5905
N2_7 N 0.98835(15) 0.41963(11) 0.50251(6)
N3_5 N 0.89127(15) 0.46789(10) 0.47823(6)
O1_7 O 0.72331(16) 0.60726(11) 0.36152(6)
O2_7 O 0.6519(2) 0.52996(14) 0.35958(8)
C15_7 C 0.5432(2) 0.69085(17) 0.37169(8)
C16_7 C 0.49505(19) 0.71420(13) 0.40048(7)
C17_7 C 0.5197(2) 0.76344(16) 0.41596(10)
H10_7 H 0.5677 0.7821 0.4089
C18_7 C 0.4752(2) 0.78598(15) 0.44164(10)
H11_7 H 0.4918 0.8201 0.4521
C19_7 C 0.40627(19) 0.75783(13) 0.45172(7)
C20_7 C 0.38215(19) 0.70768(15) 0.43729(9)
H12_7 H 0.3355 0.6880 0.4448
C21_7 C 0.4278(2) 0.68653(14) 0.41141(8)
H13_7 H 0.4117 0.6521 0.4011
C22_7 C 0.28486(18) 0.80672(13) 0.47495(8)
H14_7 H 0.2541 0.8068 0.4553
C23_7 C 0.38047(16) 0.79170(11) 0.51040(7)
C24_7 C 0.45447(17) 0.77348(12) 0.52717(7)
C25_7 C 0.5004(3) 0.72717(16) 0.51793(10)
H15_7 H 0.4857 0.7048 0.4995
C26_7 C 0.5684(3) 0.7140(2) 0.53618(14)
H16_7 H 0.6022 0.6831 0.5300
C27_7 C 0.5861(3) 0.7457(2) 0.56312(13)
H17_7 H 0.6322 0.7369 0.5761
C28_7 C 0.5369(2) 0.79071(17) 0.57146(9)
H18_7 H 0.5497 0.8123 0.5905
N6_7 N 0.26165(15) 0.83037(11) 0.50251(6)
N7_7 N 0.35873(15) 0.78211(10) 0.47823(6)
O3_7 O 0.52669(16) 0.64274(11) 0.36152(6)
O4_7 O 0.5981(2) 0.72004(14) 0.35958(8)
C1_8 C 0.0432(2) 0.19085(17) 0.37169(8)
C3_6 C 0.0197(2) 0.26344(16) 0.41596(10)
H1_6 H 0.0677 0.2821 0.4089
C11_8 C 0.0004(3) 0.22717(16) 0.51793(10)
C12_8 C 0.0684(3) 0.2140(2) 0.53618(14)
H7_8 H 0.1022 0.1831 0.5300
C13_8 C 0.0861(3) 0.2457(2) 0.56312(13)
H8_8 H 0.1322 0.2369 0.5761
C14_7 C 0.0369(2) 0.29071(17) 0.57146(9)
H9_7 H 0.0497 0.3123 0.5905
O1_8 O 0.02669(16) 0.14274(11) 0.36152(6)
O2_8 O 0.0981(2) 0.22004(14) 0.35958(8)
C15_8 C 0.2068(2) 0.05915(17) 0.37169(8)
C16_8 C 0.25495(19) 0.03580(13) 0.40048(7)
C20_8 C 0.36785(19) 0.04232(15) 0.43729(9)
H12_8 H 0.4145 0.0620 0.4448
C21_8 C 0.3222(2) 0.06347(14) 0.41141(8)
H13_8 H 0.3383 0.0979 0.4011
C25_8 C 0.2496(3) 0.02283(16) 0.51793(10)
H15_8 H 0.2643 0.0452 0.4995
C26_8 C 0.1816(3) 0.0360(2) 0.53618(14)
H16_8 H 0.1478 0.0669 0.5300
C27_8 C 0.1639(3) 0.0043(2) 0.56312(13)
H17_8 H 0.1178 0.0131 0.5761
O3_8 O 0.22331(16) 0.10726(11) 0.36152(6)
O4_8 O 0.1519(2) 0.02996(14) 0.35958(8)
C17_8 C 0.2303(2) 0.98656(16) 0.41596(10)
H10_8 H 0.1823 0.9679 0.4089
C18_8 C 0.2748(2) 0.96402(15) 0.44164(10)
H11_8 H 0.2582 0.9299 0.4521
C19_8 C 0.34373(19) 0.99217(13) 0.45172(7)
C22_8 C 0.46514(18) 0.94328(13) 0.47495(8)
H14_8 H 0.4959 0.9432 0.4553
C23_8 C 0.36953(16) 0.95830(11) 0.51040(7)
C24_8 C 0.29553(17) 0.97652(12) 0.52717(7)
C28_8 C 0.2131(2) 0.95929(17) 0.57146(9)
H18_8 H 0.2003 0.9377 0.5905
N6_8 N 0.48835(15) 0.91963(11) 0.50251(6)
N7_8 N 0.39127(15) 0.96789(10) 0.47823(6)
C2_6 C 0.99505(19) 0.21420(13) 0.40048(7)
C4_6 C 0.9752(2) 0.28598(15) 0.44164(10)
H2_6 H 0.9918 0.3201 0.4521
C5_6 C 0.90627(19) 0.25783(13) 0.45172(7)
C6_6 C 0.88215(19) 0.20768(15) 0.43729(9)
H3_6 H 0.8355 0.1880 0.4448
C7_6 C 0.9278(2) 0.18653(14) 0.41141(8)
H4_6 H 0.9117 0.1521 0.4011
C8_6 C 0.78486(18) 0.30672(13) 0.47495(8)
H5_6 H 0.7541 0.3068 0.4553
C9_8 C 0.88047(16) 0.29170(11) 0.51040(7)
C10_8 C 0.95447(17) 0.27348(12) 0.52717(7)
H6_6 H 0.9857 0.2048 0.4995
N2_8 N 0.76165(15) 0.33037(11) 0.50251(6)
N3_6 N 0.85873(15) 0.28211(10) 0.47823(6)
C2_7 C 0.00495(19) 0.96420(13) 0.15048(7)
C6_7 C 0.11785(19) 0.95768(15) 0.18729(9)
H3_7 H 0.1645 0.9380 0.1948
C7_7 C 0.0722(2) 0.93653(14) 0.16141(8)
H4_7 H 0.0883 0.9021 0.1511
H6_7 H 0.0143 0.9548 0.2495
C3_7 C 0.9803(2) 0.01344(16) 0.16596(10)
H1_7 H 0.9323 0.0321 0.1589
C14_8 C 0.9631(2) 0.04071(17) 0.32146(9)
H9_8 H 0.9503 0.0623 0.3405
C3_8 C 0.2697(2) 0.01344(16) 0.08404(10)
H1_8 H 0.3177 0.0321 0.0911
C4_7 C 0.2252(2) 0.03598(15) 0.05836(10)
H2_7 H 0.2418 0.0701 0.0479
C5_7 C 0.15627(19) 0.00783(13) 0.04828(7)
C8_7 C 0.03486(18) 0.05672(13) 0.02505(8)
H5_7 H 0.0041 0.0568 0.0447
N3_7 N 0.10873(15) 0.03211(10) 0.02177(6)
C9_9 C 0.13047(16) 0.04170(11) 0.98960(7)
C10_9 C 0.20447(17) 0.02348(12) 0.97283(7)
C14_9 C 0.2869(2) 0.04071(17) 0.92854(9)
H9_9 H 0.2997 0.0623 0.9095
N1_5 N 0.07226(14) 0.07023(9) 0.97502(6)
N2_9 N 0.01165(15) 0.08037(11) 0.99749(6)
N4_5 N 0.22198(14) 0.05527(10) 0.94604(6)
Cd3_3 Cd 0.1250 0.1250 0.927301(6)
C1_9 C 0.2932(2) 0.94085(17) 0.12831(8)
C2_8 C 0.24505(19) 0.96420(13) 0.09952(7)
C6_8 C 0.13215(19) 0.95768(15) 0.06271(9)
H3_8 H 0.0855 0.9380 0.0552
C7_8 C 0.1778(2) 0.93653(14) 0.08859(8)
H4_8 H 0.1617 0.9021 0.0989
H6_8 H 0.2357 0.9548 0.0005
Cd1_5 Cd 0.3750 0.8750 0.177301(6)
O1_9 O 0.27669(16) 0.89274(11) 0.13848(6)
O2_9 O 0.3481(2) 0.97004(14) 0.14042(8)
C15_9 C 0.4568(2) 0.80915(17) 0.12831(8)
C16_9 C 0.50495(19) 0.78580(13) 0.09952(7)
C17_9 C 0.4803(2) 0.73656(16) 0.08404(10)
H10_9 H 0.4323 0.7179 0.0911
C18_9 C 0.5248(2) 0.71402(15) 0.05836(10)
H11_9 H 0.5082 0.6799 0.0479
C19_9 C 0.59373(19) 0.74217(13) 0.04828(7)
C20_9 C 0.61785(19) 0.79232(15) 0.06271(9)
H12_9 H 0.6645 0.8120 0.0552
C21_9 C 0.5722(2) 0.81347(14) 0.08859(8)
H13_9 H 0.5883 0.8479 0.0989
C22_9 C 0.71514(18) 0.69328(13) 0.02505(8)
H14_9 H 0.7459 0.6932 0.0447
H15_9 H 0.5143 0.7952 0.0005
N7_9 N 0.64127(15) 0.71789(10) 0.02177(6)
O3_9 O 0.47331(16) 0.85726(11) 0.13848(6)
O4_9 O 0.4019(2) 0.77996(14) 0.14042(8)
N9_5 N 0.42774(14) 0.82023(9) 0.22502(6)
N10_5 N 0.32226(14) 0.92977(9) 0.22502(6)
N11_5 N 0.27802(14) 0.80527(10) 0.19604(6)
N12_5 N 0.47198(14) 0.94473(10) 0.19604(6)
C11_9 C 0.2504(3) 0.97717(16) 0.98207(10)
C12_9 C 0.3184(3) 0.9640(2) 0.96382(14)
H7_9 H 0.3522 0.9331 0.9700
C13_9 C 0.3361(3) 0.9957(2) 0.93688(13)
H8_9 H 0.3822 0.9869 0.9239
C23_9 C 0.61953(16) 0.70830(11) 0.98960(7)
C24_9 C 0.54553(17) 0.72652(12) 0.97283(7)
C25_9 C 0.4996(3) 0.77283(16) 0.98207(10)
C26_9 C 0.4316(3) 0.7860(2) 0.96382(14)
H16_9 H 0.3978 0.8169 0.9700
C27_9 C 0.4139(3) 0.7543(2) 0.93688(13)
H17_9 H 0.3678 0.7631 0.9239
C28_9 C 0.4631(2) 0.70929(17) 0.92854(9)
H18_9 H 0.4503 0.6877 0.9095
N5_5 N 0.67774(14) 0.67977(9) 0.97502(6)
N6_9 N 0.73835(15) 0.66963(11) 0.99749(6)
N8_5 N 0.52802(14) 0.69473(10) 0.94604(6)
Cd2_3 Cd 0.6250 0.6250 0.927301(6)
C9_10 C 0.11953(16) 0.20830(11) 0.98960(7)
C10_10 C 0.04553(17) 0.22652(12) 0.97283(7)
N1_6 N 0.17774(14) 0.17977(9) 0.97502(6)
N2_10 N 0.23835(15) 0.16963(11) 0.99749(6)
N4_6 N 0.02802(14) 0.19473(10) 0.94604(6)
C1_10 C 0.9568(2) 0.30915(17) 0.12831(8)
C3_9 C 0.9803(2) 0.23656(16) 0.08404(10)
H1_9 H 0.9323 0.2179 0.0911
Cd1_6 Cd 0.8750 0.3750 0.177301(6)
O1_10 O 0.97331(16) 0.35726(11) 0.13848(6)
O2_10 O 0.9019(2) 0.27996(14) 0.14042(8)
C15_10 C 0.7932(2) 0.44085(17) 0.12831(8)
C16_10 C 0.74505(19) 0.46420(13) 0.09952(7)
C17_10 C 0.7697(2) 0.51344(16) 0.08404(10)
H10_10 H 0.8177 0.5321 0.0911
C18_10 C 0.7252(2) 0.53598(15) 0.05836(10)
H11_10 H 0.7418 0.5701 0.0479
C19_10 C 0.65627(19) 0.50783(13) 0.04828(7)
C20_10 C 0.63215(19) 0.45768(15) 0.06271(9)
H12_10 H 0.5855 0.4380 0.0552
C21_10 C 0.6778(2) 0.43653(14) 0.08859(8)
H13_10 H 0.6617 0.4021 0.0989
C22_10 C 0.53486(18) 0.55672(13) 0.02505(8)
H14_10 H 0.5041 0.5568 0.0447
H15_10 H 0.7357 0.4548 0.0005
N7_10 N 0.60873(15) 0.53211(10) 0.02177(6)
O3_10 O 0.77669(16) 0.39274(11) 0.13848(6)
O4_10 O 0.8481(2) 0.47004(14) 0.14042(8)
N9_6 N 0.82226(14) 0.42977(9) 0.22502(6)
N10_6 N 0.92774(14) 0.32023(9) 0.22502(6)
N11_6 N 0.97198(14) 0.44473(10) 0.19604(6)
N12_6 N 0.77802(14) 0.30527(10) 0.19604(6)
C11_10 C 0.9996(3) 0.27283(16) 0.98207(10)
C12_10 C 0.9316(3) 0.2860(2) 0.96382(14)
H7_10 H 0.8978 0.3169 0.9700
C13_10 C 0.9139(3) 0.2543(2) 0.93688(13)
H8_10 H 0.8678 0.2631 0.9239
C14_10 C 0.9631(2) 0.20929(17) 0.92854(9)
H9_10 H 0.9503 0.1877 0.9095
C23_10 C 0.63047(16) 0.54170(11) 0.98960(7)
C24_10 C 0.70447(17) 0.52348(12) 0.97283(7)
C25_10 C 0.7504(3) 0.47717(16) 0.98207(10)
C26_10 C 0.8184(3) 0.4640(2) 0.96382(14)
H16_10 H 0.8522 0.4331 0.9700
C27_10 C 0.8361(3) 0.4957(2) 0.93688(13)
H17_10 H 0.8822 0.4869 0.9239
C28_10 C 0.7869(2) 0.54071(17) 0.92854(9)
H18_10 H 0.7997 0.5623 0.9095
N5_6 N 0.57226(14) 0.57023(9) 0.97502(6)
N6_10 N 0.51165(15) 0.58037(11) 0.99749(6)
N8_6 N 0.72198(14) 0.55527(10) 0.94604(6)
C1_11 C 0.2932(2) 0.44085(17) 0.62831(8)
C2_9 C 0.24505(19) 0.46420(13) 0.59952(7)
C3_10 C 0.2697(2) 0.51344(16) 0.58404(10)
H1_10 H 0.3177 0.5321 0.5911
C4_8 C 0.2252(2) 0.53598(15) 0.55836(10)
H2_8 H 0.2418 0.5701 0.5479
C5_8 C 0.15627(19) 0.50783(13) 0.54828(7)
C6_9 C 0.13215(19) 0.45768(15) 0.56271(9)
H3_9 H 0.0855 0.4380 0.5552
C7_9 C 0.1778(2) 0.43653(14) 0.58859(8)
H4_9 H 0.1617 0.4021 0.5989
C8_8 C 0.03486(18) 0.55672(13) 0.52505(8)
H5_8 H 0.0041 0.5568 0.5447
C9_11 C 0.13047(16) 0.54170(11) 0.48960(7)
C10_11 C 0.20447(17) 0.52348(12) 0.47283(7)
C11_11 C 0.2504(3) 0.47717(16) 0.48207(10)
H6_9 H 0.2357 0.4548 0.5005
C12_11 C 0.3184(3) 0.4640(2) 0.46382(14)
H7_11 H 0.3522 0.4331 0.4700
C13_11 C 0.3361(3) 0.4957(2) 0.43688(13)
H8_11 H 0.3822 0.4869 0.4239
C14_11 C 0.2869(2) 0.54071(17) 0.42854(9)
H9_11 H 0.2997 0.5623 0.4095
Cd1_7 Cd 0.3750 0.3750 0.677301(6)
N1_7 N 0.07226(14) 0.57023(9) 0.47502(6)
N2_11 N 0.01165(15) 0.58037(11) 0.49749(6)
N3_8 N 0.10873(15) 0.53211(10) 0.52177(6)
N4_7 N 0.22198(14) 0.55527(10) 0.44604(6)
O1_11 O 0.27669(16) 0.39274(11) 0.63848(6)
O2_11 O 0.3481(2) 0.47004(14) 0.64042(8)
C15_11 C 0.4568(2) 0.30915(17) 0.62831(8)
C16_11 C 0.50495(19) 0.28580(13) 0.59952(7)
C17_11 C 0.4803(2) 0.23656(16) 0.58404(10)
H10_11 H 0.4323 0.2179 0.5911
C18_11 C 0.5248(2) 0.21402(15) 0.55836(10)
H11_11 H 0.5082 0.1799 0.5479
C19_11 C 0.59373(19) 0.24217(13) 0.54828(7)
C20_11 C 0.61785(19) 0.29232(15) 0.56271(9)
H12_11 H 0.6645 0.3120 0.5552
C21_11 C 0.5722(2) 0.31347(14) 0.58859(8)
H13_11 H 0.5883 0.3479 0.5989
C22_11 C 0.71514(18) 0.19328(13) 0.52505(8)
H14_11 H 0.7459 0.1932 0.5447
C23_11 C 0.61953(16) 0.20830(11) 0.48960(7)
C24_11 C 0.54553(17) 0.22652(12) 0.47283(7)
C25_11 C 0.4996(3) 0.27283(16) 0.48207(10)
H15_11 H 0.5143 0.2952 0.5005
C26_11 C 0.4316(3) 0.2860(2) 0.46382(14)
H16_11 H 0.3978 0.3169 0.4700
C27_11 C 0.4139(3) 0.2543(2) 0.43688(13)
H17_11 H 0.3678 0.2631 0.4239
C28_11 C 0.4631(2) 0.20929(17) 0.42854(9)
H18_11 H 0.4503 0.1877 0.4095
N5_7 N 0.67774(14) 0.17977(9) 0.47502(6)
N6_11 N 0.73835(15) 0.16963(11) 0.49749(6)
N7_11 N 0.64127(15) 0.21789(10) 0.52177(6)
N8_7 N 0.52802(14) 0.19473(10) 0.44604(6)
O3_11 O 0.47331(16) 0.35726(11) 0.63848(6)
O4_11 O 0.4019(2) 0.27996(14) 0.64042(8)
Cd2_4 Cd 0.6250 0.1250 0.427301(6)
Cd3_4 Cd 0.1250 0.6250 0.427301(6)
N9_7 N 0.42774(14) 0.32023(9) 0.72502(6)
N10_7 N 0.32226(14) 0.42977(9) 0.72502(6)
N11_7 N 0.27802(14) 0.30527(10) 0.69604(6)
N12_7 N 0.47198(14) 0.44473(10) 0.69604(6)
C2_10 C 0.00495(19) 0.78580(13) 0.59952(7)
C4_9 C 0.0248(2) 0.71402(15) 0.55836(10)
H2_9 H 0.0082 0.6799 0.5479
C5_9 C 0.09373(19) 0.74217(13) 0.54828(7)
C6_10 C 0.11785(19) 0.79232(15) 0.56271(9)
H3_10 H 0.1645 0.8120 0.5552
C7_10 C 0.0722(2) 0.81347(14) 0.58859(8)
H4_10 H 0.0883 0.8479 0.5989
C8_9 C 0.21514(18) 0.69328(13) 0.52505(8)
H5_9 H 0.2459 0.6932 0.5447
C9_12 C 0.11953(16) 0.70830(11) 0.48960(7)
C10_12 C 0.04553(17) 0.72652(12) 0.47283(7)
H6_10 H 0.0143 0.7952 0.5005
N1_8 N 0.17774(14) 0.67977(9) 0.47502(6)
N2_12 N 0.23835(15) 0.66963(11) 0.49749(6)
N3_9 N 0.14127(15) 0.71789(10) 0.52177(6)
N4_8 N 0.02802(14) 0.69473(10) 0.44604(6)
C17_12 C 0.7697(2) 0.01344(16) 0.58404(10)
H10_12 H 0.8177 0.0321 0.5911
C18_12 C 0.7252(2) 0.03598(15) 0.55836(10)
H11_12 H 0.7418 0.0701 0.5479
C19_12 C 0.65627(19) 0.00783(13) 0.54828(7)
C22_12 C 0.53486(18) 0.05672(13) 0.52505(8)
H14_12 H 0.5041 0.0568 0.5447
C23_12 C 0.63047(16) 0.04170(11) 0.48960(7)
C24_12 C 0.70447(17) 0.02348(12) 0.47283(7)
C28_12 C 0.7869(2) 0.04071(17) 0.42854(9)
H18_12 H 0.7997 0.0623 0.4095
N5_8 N 0.57226(14) 0.07023(9) 0.47502(6)
N6_12 N 0.51165(15) 0.08037(11) 0.49749(6)
N7_12 N 0.60873(15) 0.03211(10) 0.52177(6)
N8_8 N 0.72198(14) 0.05527(10) 0.44604(6)
C1_12 C 0.9568(2) 0.80915(17) 0.62831(8)
C3_11 C 0.9803(2) 0.73656(16) 0.58404(10)
H1_11 H 0.9323 0.7179 0.5911
C11_12 C 0.9996(3) 0.77283(16) 0.48207(10)
C12_12 C 0.9316(3) 0.7860(2) 0.46382(14)
H7_12 H 0.8978 0.8169 0.4700
C13_12 C 0.9139(3) 0.7543(2) 0.43688(13)
H8_12 H 0.8678 0.7631 0.4239
C14_12 C 0.9631(2) 0.70929(17) 0.42854(9)
H9_12 H 0.9503 0.6877 0.4095
Cd1_8 Cd 0.8750 0.8750 0.677301(6)
O1_12 O 0.97331(16) 0.85726(11) 0.63848(6)
O2_12 O 0.9019(2) 0.77996(14) 0.64042(8)
C15_12 C 0.7932(2) 0.94085(17) 0.62831(8)
C16_12 C 0.74505(19) 0.96420(13) 0.59952(7)
C20_12 C 0.63215(19) 0.95768(15) 0.56271(9)
H12_12 H 0.5855 0.9380 0.5552
C21_12 C 0.6778(2) 0.93653(14) 0.58859(8)
H13_12 H 0.6617 0.9021 0.5989
C25_12 C 0.7504(3) 0.97717(16) 0.48207(10)
H15_12 H 0.7357 0.9548 0.5005
C26_12 C 0.8184(3) 0.9640(2) 0.46382(14)
H16_12 H 0.8522 0.9331 0.4700
C27_12 C 0.8361(3) 0.9957(2) 0.43688(13)
H17_12 H 0.8822 0.9869 0.4239
O3_12 O 0.77669(16) 0.89274(11) 0.63848(6)
O4_12 O 0.8481(2) 0.97004(14) 0.64042(8)
N9_8 N 0.82226(14) 0.92977(9) 0.72502(6)
N10_8 N 0.92774(14) 0.82023(9) 0.72502(6)
N11_8 N 0.97198(14) 0.94473(10) 0.69604(6)
N12_8 N 0.77802(14) 0.80527(10) 0.69604(6)
C1_13 C 0.7068(2) 0.69085(17) 0.87831(8)
C2_11 C 0.75495(19) 0.71420(13) 0.84952(7)
C3_12 C 0.7303(2) 0.76344(16) 0.83404(10)
H1_12 H 0.6823 0.7821 0.8411
C4_10 C 0.7748(2) 0.78598(15) 0.80836(10)
H2_10 H 0.7582 0.8201 0.7979
C5_10 C 0.84373(19) 0.75783(13) 0.79828(7)
C6_11 C 0.86785(19) 0.70768(15) 0.81271(9)
H3_11 H 0.9145 0.6880 0.8052
C7_11 C 0.8222(2) 0.68653(14) 0.83859(8)
H4_11 H 0.8383 0.6521 0.8489
C8_10 C 0.96514(18) 0.80672(13) 0.77505(8)
H5_10 H 0.9959 0.8068 0.7947
C9_13 C 0.86953(16) 0.79170(11) 0.73960(7)
C10_13 C 0.79553(17) 0.77348(12) 0.72283(7)
C11_13 C 0.7496(3) 0.72717(16) 0.73207(10)
H6_11 H 0.7643 0.7048 0.7505
C12_13 C 0.6816(3) 0.7140(2) 0.71382(14)
H7_13 H 0.6478 0.6831 0.7200
C13_13 C 0.6639(3) 0.7457(2) 0.68688(13)
H8_13 H 0.6178 0.7369 0.6739
C14_13 C 0.7131(2) 0.79071(17) 0.67854(9)
H9_13 H 0.7003 0.8123 0.6595
N2_13 N 0.98835(15) 0.83037(11) 0.74749(6)
N3_10 N 0.89127(15) 0.78211(10) 0.77177(6)
O1_13 O 0.72331(16) 0.64274(11) 0.88848(6)
O2_13 O 0.6519(2) 0.72004(14) 0.89042(8)
C15_13 C 0.5432(2) 0.55915(17) 0.87831(8)
C16_13 C 0.49505(19) 0.53580(13) 0.84952(7)
C17_13 C 0.5197(2) 0.48656(16) 0.83404(10)
H10_13 H 0.5677 0.4679 0.8411
C18_13 C 0.4752(2) 0.46402(15) 0.80836(10)
H11_13 H 0.4918 0.4299 0.7979
C19_13 C 0.40627(19) 0.49217(13) 0.79828(7)
C20_13 C 0.38215(19) 0.54232(15) 0.81271(9)
H12_13 H 0.3355 0.5620 0.8052
C21_13 C 0.4278(2) 0.56347(14) 0.83859(8)
H13_13 H 0.4117 0.5979 0.8489
C22_13 C 0.28486(18) 0.44328(13) 0.77505(8)
H14_13 H 0.2541 0.4432 0.7947
C23_13 C 0.38047(16) 0.45830(11) 0.73960(7)
C24_13 C 0.45447(17) 0.47652(12) 0.72283(7)
C25_13 C 0.5004(3) 0.52283(16) 0.73207(10)
H15_13 H 0.4857 0.5452 0.7505
C26_13 C 0.5684(3) 0.5360(2) 0.71382(14)
H16_13 H 0.6022 0.5669 0.7200
C27_13 C 0.5861(3) 0.5043(2) 0.68688(13)
H17_13 H 0.6322 0.5131 0.6739
C28_13 C 0.5369(2) 0.45929(17) 0.67854(9)
H18_13 H 0.5497 0.4377 0.6595
N6_13 N 0.26165(15) 0.41963(11) 0.74749(6)
N7_13 N 0.35873(15) 0.46789(10) 0.77177(6)
O3_13 O 0.52669(16) 0.60726(11) 0.88848(6)
O4_13 O 0.5981(2) 0.52996(14) 0.89042(8)
C1_14 C 0.0432(2) 0.05915(17) 0.87831(8)
C11_14 C 0.0004(3) 0.02283(16) 0.73207(10)
C12_14 C 0.0684(3) 0.0360(2) 0.71382(14)
H7_14 H 0.1022 0.0669 0.7200
C13_14 C 0.0861(3) 0.0043(2) 0.68688(13)
H8_14 H 0.1322 0.0131 0.6739
O1_14 O 0.02669(16) 0.10726(11) 0.88848(6)
O2_14 O 0.0981(2) 0.02996(14) 0.89042(8)
C15_14 C 0.2068(2) 0.19085(17) 0.87831(8)
C16_14 C 0.25495(19) 0.21420(13) 0.84952(7)
C17_14 C 0.2303(2) 0.26344(16) 0.83404(10)
H10_14 H 0.1823 0.2821 0.8411
C18_14 C 0.2748(2) 0.28598(15) 0.80836(10)
H11_14 H 0.2582 0.3201 0.7979
C19_14 C 0.34373(19) 0.25783(13) 0.79828(7)
C20_14 C 0.36785(19) 0.20768(15) 0.81271(9)
H12_14 H 0.4145 0.1880 0.8052
C21_14 C 0.3222(2) 0.18653(14) 0.83859(8)
H13_14 H 0.3383 0.1521 0.8489
C22_14 C 0.46514(18) 0.30672(13) 0.77505(8)
H14_14 H 0.4959 0.3068 0.7947
C23_14 C 0.36953(16) 0.29170(11) 0.73960(7)
C24_14 C 0.29553(17) 0.27348(12) 0.72283(7)
C25_14 C 0.2496(3) 0.22717(16) 0.73207(10)
H15_14 H 0.2643 0.2048 0.7505
C26_14 C 0.1816(3) 0.2140(2) 0.71382(14)
H16_14 H 0.1478 0.1831 0.7200
C27_14 C 0.1639(3) 0.2457(2) 0.68688(13)
H17_14 H 0.1178 0.2369 0.6739
C28_14 C 0.2131(2) 0.29071(17) 0.67854(9)
H18_14 H 0.2003 0.3123 0.6595
N6_14 N 0.48835(15) 0.33037(11) 0.74749(6)
N7_14 N 0.39127(15) 0.28211(10) 0.77177(6)
O3_14 O 0.22331(16) 0.14274(11) 0.88848(6)
O4_14 O 0.1519(2) 0.22004(14) 0.89042(8)
C4_11 C 0.9752(2) 0.96402(15) 0.80836(10)
H2_11 H 0.9918 0.9299 0.7979
C5_11 C 0.90627(19) 0.99217(13) 0.79828(7)
C8_11 C 0.78486(18) 0.94328(13) 0.77505(8)
H5_11 H 0.7541 0.9432 0.7947
C9_14 C 0.88047(16) 0.95830(11) 0.73960(7)
C10_14 C 0.95447(17) 0.97652(12) 0.72283(7)
N2_14 N 0.76165(15) 0.91963(11) 0.74749(6)
N3_11 N 0.85873(15) 0.96789(10) 0.77177(6)
C1_15 C 0.7068(2) 0.19085(17) 0.37831(8)
C2_12 C 0.75495(19) 0.21420(13) 0.34952(7)
C3_13 C 0.7303(2) 0.26344(16) 0.33404(10)
H1_13 H 0.6823 0.2821 0.3411
C4_12 C 0.7748(2) 0.28598(15) 0.30836(10)
H2_12 H 0.7582 0.3201 0.2979
C5_12 C 0.84373(19) 0.25783(13) 0.29828(7)
C6_12 C 0.86785(19) 0.20768(15) 0.31271(9)
H3_12 H 0.9145 0.1880 0.3052
C7_12 C 0.8222(2) 0.18653(14) 0.33859(8)
H4_12 H 0.8383 0.1521 0.3489
C8_12 C 0.96514(18) 0.30672(13) 0.27505(8)
H5_12 H 0.9959 0.3068 0.2947
C9_15 C 0.86953(16) 0.29170(11) 0.23960(7)
C10_15 C 0.79553(17) 0.27348(12) 0.22283(7)
C11_15 C 0.7496(3) 0.22717(16) 0.23207(10)
H6_12 H 0.7643 0.2048 0.2505
C12_15 C 0.6816(3) 0.2140(2) 0.21382(14)
H7_15 H 0.6478 0.1831 0.2200
C13_15 C 0.6639(3) 0.2457(2) 0.18688(13)
H8_15 H 0.6178 0.2369 0.1739
C14_14 C 0.7131(2) 0.29071(17) 0.17854(9)
H9_14 H 0.7003 0.3123 0.1595
N2_15 N 0.98835(15) 0.33037(11) 0.24749(6)
N3_12 N 0.89127(15) 0.28211(10) 0.27177(6)
O1_15 O 0.72331(16) 0.14274(11) 0.38848(6)
O2_15 O 0.6519(2) 0.22004(14) 0.39042(8)
C15_15 C 0.5432(2) 0.05915(17) 0.37831(8)
C16_15 C 0.49505(19) 0.03580(13) 0.34952(7)
C20_15 C 0.38215(19) 0.04232(15) 0.31271(9)
H12_15 H 0.3355 0.0620 0.3052
C21_15 C 0.4278(2) 0.06347(14) 0.33859(8)
H13_15 H 0.4117 0.0979 0.3489
C25_15 C 0.5004(3) 0.02283(16) 0.23207(10)
H15_15 H 0.4857 0.0452 0.2505
C26_15 C 0.5684(3) 0.0360(2) 0.21382(14)
H16_15 H 0.6022 0.0669 0.2200
C27_15 C 0.5861(3) 0.0043(2) 0.18688(13)
H17_15 H 0.6322 0.0131 0.1739
O3_15 O 0.52669(16) 0.10726(11) 0.38848(6)
O4_15 O 0.5981(2) 0.02996(14) 0.39042(8)
C17_15 C 0.5197(2) 0.98656(16) 0.33404(10)
H10_15 H 0.5677 0.9679 0.3411
C18_15 C 0.4752(2) 0.96402(15) 0.30836(10)
H11_15 H 0.4918 0.9299 0.2979
C19_15 C 0.40627(19) 0.99217(13) 0.29828(7)
C22_15 C 0.28486(18) 0.94328(13) 0.27505(8)
H14_15 H 0.2541 0.9432 0.2947
C23_15 C 0.38047(16) 0.95830(11) 0.23960(7)
C24_15 C 0.45447(17) 0.97652(12) 0.22283(7)
C28_15 C 0.5369(2) 0.95929(17) 0.17854(9)
H18_15 H 0.5497 0.9377 0.1595
N6_15 N 0.26165(15) 0.91963(11) 0.24749(6)
N7_15 N 0.35873(15) 0.96789(10) 0.27177(6)
C1_16 C 0.0432(2) 0.55915(17) 0.37831(8)
C3_14 C 0.0197(2) 0.48656(16) 0.33404(10)
H1_14 H 0.0677 0.4679 0.3411
C11_16 C 0.0004(3) 0.52283(16) 0.23207(10)
C12_16 C 0.0684(3) 0.5360(2) 0.21382(14)
H7_16 H 0.1022 0.5669 0.2200
C13_16 C 0.0861(3) 0.5043(2) 0.18688(13)
H8_16 H 0.1322 0.5131 0.1739
C14_15 C 0.0369(2) 0.45929(17) 0.17854(9)
H9_15 H 0.0497 0.4377 0.1595
O1_16 O 0.02669(16) 0.60726(11) 0.38848(6)
O2_16 O 0.0981(2) 0.52996(14) 0.39042(8)
C15_16 C 0.2068(2) 0.69085(17) 0.37831(8)
C16_16 C 0.25495(19) 0.71420(13) 0.34952(7)
C17_16 C 0.2303(2) 0.76344(16) 0.33404(10)
H10_16 H 0.1823 0.7821 0.3411
C18_16 C 0.2748(2) 0.78598(15) 0.30836(10)
H11_16 H 0.2582 0.8201 0.2979
C19_16 C 0.34373(19) 0.75783(13) 0.29828(7)
C20_16 C 0.36785(19) 0.70768(15) 0.31271(9)
H12_16 H 0.4145 0.6880 0.3052
C21_16 C 0.3222(2) 0.68653(14) 0.33859(8)
H13_16 H 0.3383 0.6521 0.3489
C22_16 C 0.46514(18) 0.80672(13) 0.27505(8)
H14_16 H 0.4959 0.8068 0.2947
C23_16 C 0.36953(16) 0.79170(11) 0.23960(7)
C24_16 C 0.29553(17) 0.77348(12) 0.22283(7)
C25_16 C 0.2496(3) 0.72717(16) 0.23207(10)
H15_16 H 0.2643 0.7048 0.2505
C26_16 C 0.1816(3) 0.7140(2) 0.21382(14)
H16_16 H 0.1478 0.6831 0.2200
C27_16 C 0.1639(3) 0.7457(2) 0.18688(13)
H17_16 H 0.1178 0.7369 0.1739
C28_16 C 0.2131(2) 0.79071(17) 0.17854(9)
H18_16 H 0.2003 0.8123 0.1595
N6_16 N 0.48835(15) 0.83037(11) 0.24749(6)
N7_16 N 0.39127(15) 0.78211(10) 0.27177(6)
O3_16 O 0.22331(16) 0.64274(11) 0.38848(6)
O4_16 O 0.1519(2) 0.72004(14) 0.39042(8)
C2_13 C 0.99505(19) 0.53580(13) 0.34952(7)
C4_13 C 0.9752(2) 0.46402(15) 0.30836(10)
H2_13 H 0.9918 0.4299 0.2979
C5_13 C 0.90627(19) 0.49217(13) 0.29828(7)
C6_13 C 0.88215(19) 0.54232(15) 0.31271(9)
H3_13 H 0.8355 0.5620 0.3052
C7_13 C 0.9278(2) 0.56347(14) 0.33859(8)
H4_13 H 0.9117 0.5979 0.3489
C8_13 C 0.78486(18) 0.44328(13) 0.27505(8)
H5_13 H 0.7541 0.4432 0.2947
C9_16 C 0.88047(16) 0.45830(11) 0.23960(7)
C10_16 C 0.95447(17) 0.47652(12) 0.22283(7)
H6_13 H 0.9857 0.5452 0.2505
N2_16 N 0.76165(15) 0.41963(11) 0.24749(6)
N3_13 N 0.85873(15) 0.46789(10) 0.27177(6)
C2_14 C 0.00495(19) 0.28580(13) 0.09952(7)
C4_14 C 0.0248(2) 0.21402(15) 0.05836(10)
H2_14 H 0.0082 0.1799 0.0479
C5_14 C 0.09373(19) 0.24217(13) 0.04828(7)
C6_14 C 0.11785(19) 0.29232(15) 0.06271(9)
H3_14 H 0.1645 0.3120 0.0552
C7_14 C 0.0722(2) 0.31347(14) 0.08859(8)
H4_14 H 0.0883 0.3479 0.0989
C8_14 C 0.21514(18) 0.19328(13) 0.02505(8)
H5_14 H 0.2459 0.1932 0.0447
H6_14 H 0.0143 0.2952 0.0005
N3_14 N 0.14127(15) 0.21789(10) 0.02177(6)
C3_15 C 0.0197(2) 0.98656(16) 0.83404(10)
H1_15 H 0.0677 0.9679 0.8411
C14_16 C 0.0369(2) 0.95929(17) 0.67854(9)
H9_16 H 0.0497 0.9377 0.6595
C2_15 C 0.99505(19) 0.03580(13) 0.84952(7)
C6_15 C 0.88215(19) 0.04232(15) 0.81271(9)
H3_15 H 0.8355 0.0620 0.8052
C7_15 C 0.9278(2) 0.06347(14) 0.83859(8)
H4_15 H 0.9117 0.0979 0.8489
H6_15 H 0.9857 0.0452 0.7505
C3_16 C 0.7303(2) 0.98656(16) 0.91596(10)
H1_16 H 0.6823 0.9679 0.9089
C4_15 C 0.7748(2) 0.96402(15) 0.94164(10)
H2_15 H 0.7582 0.9299 0.9521
C5_15 C 0.84373(19) 0.99217(13) 0.95172(7)
C8_15 C 0.96514(18) 0.94328(13) 0.97495(8)
H5_15 H 0.9959 0.9432 0.9553
N3_15 N 0.89127(15) 0.96789(10) 0.97823(6)
C2_16 C 0.99505(19) 0.71420(13) 0.90048(7)
C4_16 C 0.9752(2) 0.78598(15) 0.94164(10)
H2_16 H 0.9918 0.8201 0.9521
C5_16 C 0.90627(19) 0.75783(13) 0.95172(7)
C6_16 C 0.88215(19) 0.70768(15) 0.93729(9)
H3_16 H 0.8355 0.6880 0.9448
C7_16 C 0.9278(2) 0.68653(14) 0.91141(8)
H4_16 H 0.9117 0.6521 0.9011
C8_16 C 0.78486(18) 0.80672(13) 0.97495(8)
H5_16 H 0.7541 0.8068 0.9553
H6_16 H 0.9857 0.7048 0.9995
N3_16 N 0.85873(15) 0.78211(10) 0.97823(6)
loop_
_geom_bond_atom_site_label_1
_geom_bond_atom_site_label_2
_geom_bond_site_symmetry_1
_geom_bond_site_symmetry_2
C1 C2 1_555 1_555
C2 C3 1_555 1_555
C3 H1 1_555 1_555
C4 C3 1_555 1_555
H2 C4 1_555 1_555
C5 C4 1_555 1_555
C6 C5 1_555 1_555
H3 C6 1_555 1_555
C7 C2 1_555 1_555
H4 C7 1_555 1_555
C8 H5 1_555 1_555
C9 C10 1_555 1_555
C10 C11 1_555 1_555
C11 H6 1_555 1_555
C12 C11 1_555 1_555
H7 C12 1_555 1_555
C13 C12 1_555 1_555
H8 C13 1_555 1_555
C14 C13 1_555 1_555
H9 C14 1_555 1_555
Cd1 O1 1_555 1_555
N1 C9 1_555 1_555
N2 C8 1_555 1_555
N3 C5 1_555 1_555
N4 C10 1_555 1_555
O1 C1 1_555 1_555
O2 C1 1_555 1_555
C15 C16 1_555 1_555
C16 C17 1_555 1_555
C17 H10 1_555 1_555
C18 C17 1_555 1_555
H11 C18 1_555 1_555
C19 C18 1_555 1_555
C20 C19 1_555 1_555
H12 C20 1_555 1_555
C21 C16 1_555 1_555
H13 C21 1_555 1_555
C22 H14 1_555 1_555
C23 C24 1_555 1_555
C24 C25 1_555 1_555
C25 H15 1_555 1_555
C26 C25 1_555 1_555
H16 C26 1_555 1_555
C27 C26 1_555 1_555
H17 C27 1_555 1_555
C28 C27 1_555 1_555
H18 C28 1_555 1_555
N5 C23 1_555 1_555
N6 C22 1_555 1_555
N7 C19 1_555 1_555
N8 C24 1_555 1_555
O3 Cd1 1_555 1_555
O4 Cd1 1_555 1_555
Cd2 N5 1_555 1_555
Cd3 N1 1_555 1_555
N9 Cd1 1_555 1_555
N10 Cd1 1_555 1_555
N11 Cd1 1_555 1_555
N12 Cd1 1_555 1_555
C6 C7 1_555 1_555
C8 N3 1_555 1_555
C9 N3 1_555 1_555
C14 N4 1_555 1_555
Cd1 O2 1_555 1_555
N1 N2 1_555 1_555
N4 Cd3 1_555 1_555
C15 O3 1_555 1_555
C15 O4 1_555 1_555
C20 C21 1_555 1_555
C22 N7 1_555 1_555
C23 N7 1_555 1_555
C28 N8 1_555 1_555
N5 N6 1_555 1_555
N8 Cd2 1_555 1_555
H2_2 C4_2 1_555 1_555
C5_2 C4_2 1_555 1_555
C8_2 H5_2 1_555 1_555
C9_2 C10_2 1_555 1_555
N1_2 C9_2 1_555 1_555
N2_2 C8_2 1_555 1_555
N3_2 C5_2 1_555 1_555
N4_2 C10_2 1_555 1_555
Cd3 N1_2 1_555 1_555
C8_2 N3_2 1_555 1_555
C9_2 N3_2 1_555 1_555
N1_2 N2_2 1_555 1_555
N4_2 Cd3 1_555 1_555
C12_2 C11_2 1_555 1_555
H7_2 C12_2 1_555 1_555
C13_2 C12_2 1_555 1_555
H8_2 C13_2 1_555 1_555
Cd1_2 O1_2 1_555 1_555
O1_2 C1_2 1_555 1_555
O2_2 C1_2 1_555 1_555
C15_2 C16_2 1_555 1_555
C16_2 C17_2 1_555 1_555
C17_2 H10_2 1_555 1_555
C18_2 C17_2 1_555 1_555
H11_2 C18_2 1_555 1_555
C19_2 C18_2 1_555 1_555
C20_2 C19_2 1_555 1_555
H12_2 C20_2 1_555 1_555
C21_2 C16_2 1_555 1_555
H13_2 C21_2 1_555 1_555
C22_2 H14_2 1_555 1_555
C23_2 C24_2 1_555 1_555
C24_2 C25_2 1_555 1_555
C25_2 H15_2 1_555 1_555
C26_2 C25_2 1_555 1_555
H16_2 C26_2 1_555 1_555
C27_2 C26_2 1_555 1_555
H17_2 C27_2 1_555 1_555
C28_2 C27_2 1_555 1_555
H18_2 C28_2 1_555 1_555
N5_2 C23_2 1_555 1_555
N6_2 C22_2 1_555 1_555
N7_2 C19_2 1_555 1_555
N8_2 C24_2 1_555 1_555
O3_2 Cd1_2 1_555 1_555
O4_2 Cd1_2 1_555 1_555
Cd2 N5_2 1_555 1_555
N9_2 Cd1_2 1_555 1_555
N10_2 Cd1_2 1_555 1_555
N11_2 Cd1_2 1_555 1_555
N12_2 Cd1_2 1_555 1_555
Cd1_2 O2_2 1_555 1_555
C15_2 O3_2 1_555 1_555
C15_2 O4_2 1_555 1_555
C20_2 C21_2 1_555 1_555
C22_2 N7_2 1_555 1_555
C23_2 N7_2 1_555 1_555
C28_2 N8_2 1_555 1_555
N5_2 N6_2 1_555 1_555
N8_2 Cd2 1_555 1_555
C17_3 H10_3 1_555 1_555
C18_3 C17_3 1_555 1_555
H11_3 C18_3 1_555 1_555
C19_3 C18_3 1_555 1_555
C22_3 H14_3 1_555 1_555
C23_3 C24_3 1_555 1_555
H18_3 C28_3 1_555 1_555
N5_3 C23_3 1_555 1_555
N6_3 C22_3 1_555 1_555
N7_3 C19_3 1_555 1_555
N8_3 C24_3 1_555 1_555
Cd2_2 N5_3 1_555 1_555
C22_3 N7_3 1_555 1_555
C23_3 N7_3 1_555 1_555
C28_3 N8_3 1_555 1_555
N5_3 N6_3 1_555 1_555
N8_3 Cd2_2 1_555 1_555
C1_3 C2_2 1_555 1_555
C2_2 C3_2 1_555 1_555
C3_2 H1_2 1_555 1_555
C4_3 C3_2 1_555 1_555
H2_3 C4_3 1_555 1_555
C5_3 C4_3 1_555 1_555
C6_2 C5_3 1_555 1_555
H3_2 C6_2 1_555 1_555
C7_2 C2_2 1_555 1_555
H4_2 C7_2 1_555 1_555
C8_3 H5_3 1_555 1_555
C9_3 C10_3 1_555 1_555
C10_3 C11_3 1_555 1_555
C11_3 H6_2 1_555 1_555
C12_3 C11_3 1_555 1_555
H7_3 C12_3 1_555 1_555
C13_3 C12_3 1_555 1_555
H8_3 C13_3 1_555 1_555
C14_2 C13_3 1_555 1_555
H9_2 C14_2 1_555 1_555
Cd1_3 O1_3 1_555 1_555
N1_3 C9_3 1_555 1_555
N2_3 C8_3 1_555 1_555
N3_3 C5_3 1_555 1_555
N4_3 C10_3 1_555 1_555
O1_3 C1_3 1_555 1_555
O2_3 C1_3 1_555 1_555
C15_3 C16_3 1_555 1_555
H12_3 C20_3 1_555 1_555
C21_3 C16_3 1_555 1_555
H13_3 C21_3 1_555 1_555
C25_3 H15_3 1_555 1_555
C26_3 C25_3 1_555 1_555
H16_3 C26_3 1_555 1_555
C27_3 C26_3 1_555 1_555
H17_3 C27_3 1_555 1_555
O3_3 Cd1_3 1_555 1_555
O4_3 Cd1_3 1_555 1_555
Cd3_2 N1_3 1_555 1_555
N9_3 Cd1_3 1_555 1_555
N10_3 Cd1_3 1_555 1_555
N11_3 Cd1_3 1_555 1_555
N12_3 Cd1_3 1_555 1_555
C6_2 C7_2 1_555 1_555
C8_3 N3_3 1_555 1_555
C9_3 N3_3 1_555 1_555
C14_2 N4_3 1_555 1_555
Cd1_3 O2_3 1_555 1_555
N1_3 N2_3 1_555 1_555
N4_3 Cd3_2 1_555 1_555
C15_3 O3_3 1_555 1_555
C15_3 O4_3 1_555 1_555
C20_3 C21_3 1_555 1_555
H2_4 C4_4 1_555 1_555
C5_4 C4_4 1_555 1_555
C6_3 C5_4 1_555 1_555
H3_3 C6_3 1_555 1_555
C7_3 C2_3 1_555 1_555
H4_3 C7_3 1_555 1_555
C8_4 H5_4 1_555 1_555
C9_4 C10_4 1_555 1_555
N1_4 C9_4 1_555 1_555
N2_4 C8_4 1_555 1_555
N3_4 C5_4 1_555 1_555
N4_4 C10_4 1_555 1_555
Cd3_2 N1_4 1_555 1_555
C6_3 C7_3 1_555 1_555
C8_4 N3_4 1_555 1_555
C9_4 N3_4 1_555 1_555
N1_4 N2_4 1_555 1_555
N4_4 Cd3_2 1_555 1_555
C3_3 H1_3 1_555 1_555
C12_4 C11_4 1_555 1_555
H7_4 C12_4 1_555 1_555
C13_4 C12_4 1_555 1_555
H8_4 C13_4 1_555 1_555
C14_3 C13_4 1_555 1_555
H9_3 C14_3 1_555 1_555
Cd1_4 O1_4 1_555 1_555
O1_4 C1_4 1_555 1_555
O2_4 C1_4 1_555 1_555
C15_4 C16_4 1_555 1_555
C16_4 C17_4 1_555 1_555
C17_4 H10_4 1_555 1_555
C18_4 C17_4 1_555 1_555
H11_4 C18_4 1_555 1_555
C19_4 C18_4 1_555 1_555
C20_4 C19_4 1_555 1_555
H12_4 C20_4 1_555 1_555
C21_4 C16_4 1_555 1_555
H13_4 C21_4 1_555 1_555
C22_4 H14_4 1_555 1_555
C23_4 C24_4 1_555 1_555
C24_4 C25_4 1_555 1_555
C25_4 H15_4 1_555 1_555
C26_4 C25_4 1_555 1_555
H16_4 C26_4 1_555 1_555
C27_4 C26_4 1_555 1_555
H17_4 C27_4 1_555 1_555
C28_4 C27_4 1_555 1_555
H18_4 C28_4 1_555 1_555
N5_4 C23_4 1_555 1_555
N6_4 C22_4 1_555 1_555
N7_4 C19_4 1_555 1_555
N8_4 C24_4 1_555 1_555
O3_4 Cd1_4 1_555 1_555
O4_4 Cd1_4 1_555 1_555
Cd2_2 N5_4 1_555 1_555
N9_4 Cd1_4 1_555 1_555
N10_4 Cd1_4 1_555 1_555
N11_4 Cd1_4 1_555 1_555
N12_4 Cd1_4 1_555 1_555
Cd1_4 O2_4 1_555 1_555
C15_4 O3_4 1_555 1_555
C15_4 O4_4 1_555 1_555
C20_4 C21_4 1_555 1_555
C22_4 N7_4 1_555 1_555
C23_4 N7_4 1_555 1_555
C28_4 N8_4 1_555 1_555
N5_4 N6_4 1_555 1_555
N8_4 Cd2_2 1_555 1_555
C12_5 C11_5 1_555 1_555
H7_5 C12_5 1_555 1_555
C13_5 C12_5 1_555 1_555
H8_5 C13_5 1_555 1_555
C23_5 C24_5 1_555 1_555
C24_5 C25_5 1_555 1_555
C26_5 C25_5 1_555 1_555
H16_5 C26_5 1_555 1_555
C27_5 C26_5 1_555 1_555
H17_5 C27_5 1_555 1_555
C28_5 C27_5 1_555 1_555
H18_5 C28_5 1_555 1_555
N10 C23_5 1_555 1_555
N12 C24_5 1_555 1_555
C28_5 N12 1_555 1_555
N10 N6_5 1_555 1_555
C1_5 C2_4 1_555 1_555
H3_4 C6_4 1_555 1_555
C7_4 C2_4 1_555 1_555
H4_4 C7_4 1_555 1_555
Cd2_2 O1_5 1_555 1_555
O1_5 C1_5 1_555 1_555
O2_5 C1_5 1_555 1_555
C15_5 C16_5 1_555 1_555
C16_5 C17_5 1_555 1_555
C17_5 H10_5 1_555 1_555
C18_5 C17_5 1_555 1_555
H11_5 C18_5 1_555 1_555
C19_5 C18_5 1_555 1_555
C20_5 C19_5 1_555 1_555
H12_5 C20_5 1_555 1_555
C21_5 C16_5 1_555 1_555
H13_5 C21_5 1_555 1_555
C22_5 H14_5 1_555 1_555
N7_5 C19_5 1_555 1_555
O3_5 Cd2_2 1_555 1_555
O4_5 Cd2_2 1_555 1_555
C6_4 C7_4 1_555 1_555
Cd2_2 O2_5 1_555 1_555
C15_5 O3_5 1_555 1_555
C15_5 O4_5 1_555 1_555
C20_5 C21_5 1_555 1_555
C22_5 N7_5 1_555 1_555
C9_5 C10_5 1_555 1_555
H9_4 C14_4 1_555 1_555
N10_2 C9_5 1_555 1_555
N12_2 C10_5 1_555 1_555
C14_4 N12_2 1_555 1_555
N10_2 N2_5 1_555 1_555
C12_6 C11_6 1_555 1_555
H7_6 C12_6 1_555 1_555
C13_6 C12_6 1_555 1_555
H8_6 C13_6 1_555 1_555
C14_5 C13_6 1_555 1_555
H9_5 C14_5 1_555 1_555
C23_6 C24_6 1_555 1_555
C24_6 C25_6 1_555 1_555
C26_6 C25_6 1_555 1_555
H16_6 C26_6 1_555 1_555
C27_6 C26_6 1_555 1_555
H17_6 C27_6 1_555 1_555
C28_6 C27_6 1_555 1_555
H18_6 C28_6 1_555 1_555
N9 C23_6 1_555 1_555
N11 C24_6 1_555 1_555
C28_6 N11 1_555 1_555
N9 N6_6 1_555 1_555
C3_4 H1_4 1_555 1_555
Cd3_2 O1_6 1_555 1_555
O1_6 C1_6 1_555 1_555
O2_6 C1_6 1_555 1_555
C15_6 C16_6 1_555 1_555
C16_6 C17_6 1_555 1_555
C17_6 H10_6 1_555 1_555
C18_6 C17_6 1_555 1_555
H11_6 C18_6 1_555 1_555
C19_6 C18_6 1_555 1_555
C20_6 C19_6 1_555 1_555
H12_6 C20_6 1_555 1_555
C21_6 C16_6 1_555 1_555
H13_6 C21_6 1_555 1_555
C22_6 H14_6 1_555 1_555
N7_6 C19_6 1_555 1_555
O3_6 Cd3_2 1_555 1_555
O4_6 Cd3_2 1_555 1_555
Cd3_2 O2_6 1_555 1_555
C15_6 O3_6 1_555 1_555
C15_6 O4_6 1_555 1_555
C20_6 C21_6 1_555 1_555
C22_6 N7_6 1_555 1_555
C9_6 C10_6 1_555 1_555
N9_2 C9_6 1_555 1_555
N11_2 C10_6 1_555 1_555
N9_2 N2_6 1_555 1_555
C1_7 C2_5 1_555 1_555
C2_5 C3_5 1_555 1_555
C3_5 H1_5 1_555 1_555
C4_5 C3_5 1_555 1_555
H2_5 C4_5 1_555 1_555
C5_5 C4_5 1_555 1_555
C6_5 C5_5 1_555 1_555
H3_5 C6_5 1_555 1_555
C7_5 C2_5 1_555 1_555
H4_5 C7_5 1_555 1_555
C8_5 H5_5 1_555 1_555
C9_7 C10_7 1_555 1_555
C10_7 C11_7 1_555 1_555
C11_7 H6_5 1_555 1_555
C12_7 C11_7 1_555 1_555
H7_7 C12_7 1_555 1_555
C13_7 C12_7 1_555 1_555
H8_7 C13_7 1_555 1_555
C14_6 C13_7 1_555 1_555
H9_6 C14_6 1_555 1_555
Cd2 O1_7 1_555 1_555
N10_4 C9_7 1_555 1_555
N2_7 C8_5 1_555 1_555
N3_5 C5_5 1_555 1_555
N12_4 C10_7 1_555 1_555
O1_7 C1_7 1_555 1_555
O2_7 C1_7 1_555 1_555
C15_7 C16_7 1_555 1_555
C16_7 C17_7 1_555 1_555
C17_7 H10_7 1_555 1_555
C18_7 C17_7 1_555 1_555
H11_7 C18_7 1_555 1_555
C19_7 C18_7 1_555 1_555
C20_7 C19_7 1_555 1_555
H12_7 C20_7 1_555 1_555
C21_7 C16_7 1_555 1_555
H13_7 C21_7 1_555 1_555
C22_7 H14_7 1_555 1_555
C23_7 C24_7 1_555 1_555
C24_7 C25_7 1_555 1_555
C25_7 H15_7 1_555 1_555
C26_7 C25_7 1_555 1_555
H16_7 C26_7 1_555 1_555
C27_7 C26_7 1_555 1_555
H17_7 C27_7 1_555 1_555
C28_7 C27_7 1_555 1_555
H18_7 C28_7 1_555 1_555
N10_3 C23_7 1_555 1_555
N6_7 C22_7 1_555 1_555
N7_7 C19_7 1_555 1_555
N12_3 C24_7 1_555 1_555
O3_7 Cd2 1_555 1_555
O4_7 Cd2 1_555 1_555
C6_5 C7_5 1_555 1_555
C8_5 N3_5 1_555 1_555
C9_7 N3_5 1_555 1_555
C14_6 N12_4 1_555 1_555
Cd2 O2_7 1_555 1_555
N10_4 N2_7 1_555 1_555
C15_7 O3_7 1_555 1_555
C15_7 O4_7 1_555 1_555
C20_7 C21_7 1_555 1_555
C22_7 N7_7 1_555 1_555
C23_7 N7_7 1_555 1_555
C28_7 N12_3 1_555 1_555
N10_3 N6_7 1_555 1_555
C3_6 H1_6 1_555 1_555
C12_8 C11_8 1_555 1_555
H7_8 C12_8 1_555 1_555
C13_8 C12_8 1_555 1_555
H8_8 C13_8 1_555 1_555
C14_7 C13_8 1_555 1_555
H9_7 C14_7 1_555 1_555
Cd3 O1_8 1_555 1_555
O1_8 C1_8 1_555 1_555
O2_8 C1_8 1_555 1_555
C15_8 C16_8 1_555 1_555
H12_8 C20_8 1_555 1_555
C21_8 C16_8 1_555 1_555
H13_8 C21_8 1_555 1_555
C25_8 H15_8 1_555 1_555
C26_8 C25_8 1_555 1_555
H16_8 C26_8 1_555 1_555
C27_8 C26_8 1_555 1_555
H17_8 C27_8 1_555 1_555
O3_8 Cd3 1_555 1_555
O4_8 Cd3 1_555 1_555
Cd3 O2_8 1_555 1_555
C15_8 O3_8 1_555 1_555
C15_8 O4_8 1_555 1_555
C20_8 C21_8 1_555 1_555
C17_8 H10_8 1_555 1_555
C18_8 C17_8 1_555 1_555
H11_8 C18_8 1_555 1_555
C19_8 C18_8 1_555 1_555
C22_8 H14_8 1_555 1_555
C23_8 C24_8 1_555 1_555
H18_8 C28_8 1_555 1_555
N9_3 C23_8 1_555 1_555
N6_8 C22_8 1_555 1_555
N7_8 C19_8 1_555 1_555
N11_3 C24_8 1_555 1_555
C22_8 N7_8 1_555 1_555
C23_8 N7_8 1_555 1_555
C28_8 N11_3 1_555 1_555
N9_3 N6_8 1_555 1_555
H2_6 C4_6 1_555 1_555
C5_6 C4_6 1_555 1_555
C6_6 C5_6 1_555 1_555
H3_6 C6_6 1_555 1_555
C7_6 C2_6 1_555 1_555
H4_6 C7_6 1_555 1_555
C8_6 H5_6 1_555 1_555
C9_8 C10_8 1_555 1_555
N9_4 C9_8 1_555 1_555
N2_8 C8_6 1_555 1_555
N3_6 C5_6 1_555 1_555
N11_4 C10_8 1_555 1_555
C6_6 C7_6 1_555 1_555
C8_6 N3_6 1_555 1_555
C9_8 N3_6 1_555 1_555
N9_4 N2_8 1_555 1_555
H3_7 C6_7 1_555 1_555
C7_7 C2_7 1_555 1_555
H4_7 C7_7 1_555 1_555
C6_7 C7_7 1_555 1_555
C3_7 H1_7 1_555 1_555
H9_8 C14_8 1_555 1_555
C3_8 H1_8 1_555 1_555
C4_7 C3_8 1_555 1_555
H2_7 C4_7 1_555 1_555
C5_7 C4_7 1_555 1_555
C8_7 H5_7 1_555 1_555
N3_7 C5_7 1_555 1_555
C8_7 N3_7 1_555 1_555
C9_9 C10_9 1_555 1_555
H9_9 C14_9 1_555 1_555
N1_5 C9_9 1_555 1_555
N4_5 C10_9 1_555 1_555
Cd3_3 N1_5 1_555 1_555
C14_9 N4_5 1_555 1_555
N1_5 N2_9 1_555 1_555
N4_5 Cd3_3 1_555 1_555
C1_9 C2_8 1_555 1_555
H3_8 C6_8 1_555 1_555
C7_8 C2_8 1_555 1_555
H4_8 C7_8 1_555 1_555
Cd1_5 O1_9 1_555 1_555
O1_9 C1_9 1_555 1_555
O2_9 C1_9 1_555 1_555
C15_9 C16_9 1_555 1_555
C16_9 C17_9 1_555 1_555
C17_9 H10_9 1_555 1_555
C18_9 C17_9 1_555 1_555
H11_9 C18_9 1_555 1_555
C19_9 C18_9 1_555 1_555
C20_9 C19_9 1_555 1_555
H12_9 C20_9 1_555 1_555
C21_9 C16_9 1_555 1_555
H13_9 C21_9 1_555 1_555
C22_9 H14_9 1_555 1_555
N7_9 C19_9 1_555 1_555
O3_9 Cd1_5 1_555 1_555
O4_9 Cd1_5 1_555 1_555
N9_5 Cd1_5 1_555 1_555
N10_5 Cd1_5 1_555 1_555
N11_5 Cd1_5 1_555 1_555
N12_5 Cd1_5 1_555 1_555
C6_8 C7_8 1_555 1_555
Cd1_5 O2_9 1_555 1_555
C15_9 O3_9 1_555 1_555
C15_9 O4_9 1_555 1_555
C20_9 C21_9 1_555 1_555
C22_9 N7_9 1_555 1_555
C12_9 C11_9 1_555 1_555
H7_9 C12_9 1_555 1_555
C13_9 C12_9 1_555 1_555
H8_9 C13_9 1_555 1_555
C23_9 C24_9 1_555 1_555
C24_9 C25_9 1_555 1_555
C26_9 C25_9 1_555 1_555
H16_9 C26_9 1_555 1_555
C27_9 C26_9 1_555 1_555
H17_9 C27_9 1_555 1_555
C28_9 C27_9 1_555 1_555
H18_9 C28_9 1_555 1_555
N5_5 C23_9 1_555 1_555
N8_5 C24_9 1_555 1_555
Cd2_3 N5_5 1_555 1_555
C28_9 N8_5 1_555 1_555
N5_5 N6_9 1_555 1_555
N8_5 Cd2_3 1_555 1_555
C9_10 C10_10 1_555 1_555
N1_6 C9_10 1_555 1_555
N4_6 C10_10 1_555 1_555
Cd3_3 N1_6 1_555 1_555
N1_6 N2_10 1_555 1_555
N4_6 Cd3_3 1_555 1_555
C3_9 H1_9 1_555 1_555
Cd1_6 O1_10 1_555 1_555
O1_10 C1_10 1_555 1_555
O2_10 C1_10 1_555 1_555
C15_10 C16_10 1_555 1_555
C16_10 C17_10 1_555 1_555
C17_10 H10_10 1_555 1_555
C18_10 C17_10 1_555 1_555
H11_10 C18_10 1_555 1_555
C19_10 C18_10 1_555 1_555
C20_10 C19_10 1_555 1_555
H12_10 C20_10 1_555 1_555
C21_10 C16_10 1_555 1_555
H13_10 C21_10 1_555 1_555
C22_10 H14_10 1_555 1_555
N7_10 C19_10 1_555 1_555
O3_10 Cd1_6 1_555 1_555
O4_10 Cd1_6 1_555 1_555
N9_6 Cd1_6 1_555 1_555
N10_6 Cd1_6 1_555 1_555
N11_6 Cd1_6 1_555 1_555
N12_6 Cd1_6 1_555 1_555
Cd1_6 O2_10 1_555 1_555
C15_10 O3_10 1_555 1_555
C15_10 O4_10 1_555 1_555
C20_10 C21_10 1_555 1_555
C22_10 N7_10 1_555 1_555
C12_10 C11_10 1_555 1_555
H7_10 C12_10 1_555 1_555
C13_10 C12_10 1_555 1_555
H8_10 C13_10 1_555 1_555
C14_10 C13_10 1_555 1_555
H9_10 C14_10 1_555 1_555
C23_10 C24_10 1_555 1_555
C24_10 C25_10 1_555 1_555
C26_10 C25_10 1_555 1_555
H16_10 C26_10 1_555 1_555
C27_10 C26_10 1_555 1_555
H17_10 C27_10 1_555 1_555
C28_10 C27_10 1_555 1_555
H18_10 C28_10 1_555 1_555
N5_6 C23_10 1_555 1_555
N8_6 C24_10 1_555 1_555
Cd2_3 N5_6 1_555 1_555
C28_10 N8_6 1_555 1_555
N5_6 N6_10 1_555 1_555
N8_6 Cd2_3 1_555 1_555
C1_11 C2_9 1_555 1_555
C2_9 C3_10 1_555 1_555
C3_10 H1_10 1_555 1_555
C4_8 C3_10 1_555 1_555
H2_8 C4_8 1_555 1_555
C5_8 C4_8 1_555 1_555
C6_9 C5_8 1_555 1_555
H3_9 C6_9 1_555 1_555
C7_9 C2_9 1_555 1_555
H4_9 C7_9 1_555 1_555
C8_8 H5_8 1_555 1_555
C9_11 C10_11 1_555 1_555
C10_11 C11_11 1_555 1_555
C11_11 H6_9 1_555 1_555
C12_11 C11_11 1_555 1_555
H7_11 C12_11 1_555 1_555
C13_11 C12_11 1_555 1_555
H8_11 C13_11 1_555 1_555
C14_11 C13_11 1_555 1_555
H9_11 C14_11 1_555 1_555
Cd1_7 O1_11 1_555 1_555
N1_7 C9_11 1_555 1_555
N2_11 C8_8 1_555 1_555
N3_8 C5_8 1_555 1_555
N4_7 C10_11 1_555 1_555
O1_11 C1_11 1_555 1_555
O2_11 C1_11 1_555 1_555
C15_11 C16_11 1_555 1_555
C16_11 C17_11 1_555 1_555
C17_11 H10_11 1_555 1_555
C18_11 C17_11 1_555 1_555
H11_11 C18_11 1_555 1_555
C19_11 C18_11 1_555 1_555
C20_11 C19_11 1_555 1_555
H12_11 C20_11 1_555 1_555
C21_11 C16_11 1_555 1_555
H13_11 C21_11 1_555 1_555
C22_11 H14_11 1_555 1_555
C23_11 C24_11 1_555 1_555
C24_11 C25_11 1_555 1_555
C25_11 H15_11 1_555 1_555
C26_11 C25_11 1_555 1_555
H16_11 C26_11 1_555 1_555
C27_11 C26_11 1_555 1_555
H17_11 C27_11 1_555 1_555
C28_11 C27_11 1_555 1_555
H18_11 C28_11 1_555 1_555
N5_7 C23_11 1_555 1_555
N6_11 C22_11 1_555 1_555
N7_11 C19_11 1_555 1_555
N8_7 C24_11 1_555 1_555
O3_11 Cd1_7 1_555 1_555
O4_11 Cd1_7 1_555 1_555
Cd2_4 N5_7 1_555 1_555
Cd3_4 N1_7 1_555 1_555
N9_7 Cd1_7 1_555 1_555
N10_7 Cd1_7 1_555 1_555
N11_7 Cd1_7 1_555 1_555
N12_7 Cd1_7 1_555 1_555
C6_9 C7_9 1_555 1_555
C8_8 N3_8 1_555 1_555
C9_11 N3_8 1_555 1_555
C14_11 N4_7 1_555 1_555
Cd1_7 O2_11 1_555 1_555
N1_7 N2_11 1_555 1_555
N4_7 Cd3_4 1_555 1_555
C15_11 O3_11 1_555 1_555
C15_11 O4_11 1_555 1_555
C20_11 C21_11 1_555 1_555
C22_11 N7_11 1_555 1_555
C23_11 N7_11 1_555 1_555
C28_11 N8_7 1_555 1_555
N5_7 N6_11 1_555 1_555
N8_7 Cd2_4 1_555 1_555
H2_9 C4_9 1_555 1_555
C5_9 C4_9 1_555 1_555
C6_10 C5_9 1_555 1_555
H3_10 C6_10 1_555 1_555
C7_10 C2_10 1_555 1_555
H4_10 C7_10 1_555 1_555
C8_9 H5_9 1_555 1_555
C9_12 C10_12 1_555 1_555
N1_8 C9_12 1_555 1_555
N2_12 C8_9 1_555 1_555
N3_9 C5_9 1_555 1_555
N4_8 C10_12 1_555 1_555
Cd3_4 N1_8 1_555 1_555
C6_10 C7_10 1_555 1_555
C8_9 N3_9 1_555 1_555
C9_12 N3_9 1_555 1_555
N1_8 N2_12 1_555 1_555
N4_8 Cd3_4 1_555 1_555
C17_12 H10_12 1_555 1_555
C18_12 C17_12 1_555 1_555
H11_12 C18_12 1_555 1_555
C19_12 C18_12 1_555 1_555
C22_12 H14_12 1_555 1_555
C23_12 C24_12 1_555 1_555
H18_12 C28_12 1_555 1_555
N5_8 C23_12 1_555 1_555
N6_12 C22_12 1_555 1_555
N7_12 C19_12 1_555 1_555
N8_8 C24_12 1_555 1_555
Cd2_4 N5_8 1_555 1_555
C22_12 N7_12 1_555 1_555
C23_12 N7_12 1_555 1_555
C28_12 N8_8 1_555 1_555
N5_8 N6_12 1_555 1_555
N8_8 Cd2_4 1_555 1_555
C3_11 H1_11 1_555 1_555
C12_12 C11_12 1_555 1_555
H7_12 C12_12 1_555 1_555
C13_12 C12_12 1_555 1_555
H8_12 C13_12 1_555 1_555
C14_12 C13_12 1_555 1_555
H9_12 C14_12 1_555 1_555
Cd1_8 O1_12 1_555 1_555
O1_12 C1_12 1_555 1_555
O2_12 C1_12 1_555 1_555
C15_12 C16_12 1_555 1_555
H12_12 C20_12 1_555 1_555
C21_12 C16_12 1_555 1_555
H13_12 C21_12 1_555 1_555
C25_12 H15_12 1_555 1_555
C26_12 C25_12 1_555 1_555
H16_12 C26_12 1_555 1_555
C27_12 C26_12 1_555 1_555
H17_12 C27_12 1_555 1_555
O3_12 Cd1_8 1_555 1_555
O4_12 Cd1_8 1_555 1_555
N9_8 Cd1_8 1_555 1_555
N10_8 Cd1_8 1_555 1_555
N11_8 Cd1_8 1_555 1_555
N12_8 Cd1_8 1_555 1_555
Cd1_8 O2_12 1_555 1_555
C15_12 O3_12 1_555 1_555
C15_12 O4_12 1_555 1_555
C20_12 C21_12 1_555 1_555
C1_13 C2_11 1_555 1_555
C2_11 C3_12 1_555 1_555
C3_12 H1_12 1_555 1_555
C4_10 C3_12 1_555 1_555
H2_10 C4_10 1_555 1_555
C5_10 C4_10 1_555 1_555
C6_11 C5_10 1_555 1_555
H3_11 C6_11 1_555 1_555
C7_11 C2_11 1_555 1_555
H4_11 C7_11 1_555 1_555
C8_10 H5_10 1_555 1_555
C9_13 C10_13 1_555 1_555
C10_13 C11_13 1_555 1_555
C11_13 H6_11 1_555 1_555
C12_13 C11_13 1_555 1_555
H7_13 C12_13 1_555 1_555
C13_13 C12_13 1_555 1_555
H8_13 C13_13 1_555 1_555
C14_13 C13_13 1_555 1_555
H9_13 C14_13 1_555 1_555
Cd2_3 O1_13 1_555 1_555
N10_8 C9_13 1_555 1_555
N2_13 C8_10 1_555 1_555
N3_10 C5_10 1_555 1_555
N12_8 C10_13 1_555 1_555
O1_13 C1_13 1_555 1_555
O2_13 C1_13 1_555 1_555
C15_13 C16_13 1_555 1_555
C16_13 C17_13 1_555 1_555
C17_13 H10_13 1_555 1_555
C18_13 C17_13 1_555 1_555
H11_13 C18_13 1_555 1_555
C19_13 C18_13 1_555 1_555
C20_13 C19_13 1_555 1_555
H12_13 C20_13 1_555 1_555
C21_13 C16_13 1_555 1_555
H13_13 C21_13 1_555 1_555
C22_13 H14_13 1_555 1_555
C23_13 C24_13 1_555 1_555
C24_13 C25_13 1_555 1_555
C25_13 H15_13 1_555 1_555
C26_13 C25_13 1_555 1_555
H16_13 C26_13 1_555 1_555
C27_13 C26_13 1_555 1_555
H17_13 C27_13 1_555 1_555
C28_13 C27_13 1_555 1_555
H18_13 C28_13 1_555 1_555
N10_7 C23_13 1_555 1_555
N6_13 C22_13 1_555 1_555
N7_13 C19_13 1_555 1_555
N12_7 C24_13 1_555 1_555
O3_13 Cd2_3 1_555 1_555
O4_13 Cd2_3 1_555 1_555
C6_11 C7_11 1_555 1_555
C8_10 N3_10 1_555 1_555
C9_13 N3_10 1_555 1_555
C14_13 N12_8 1_555 1_555
Cd2_3 O2_13 1_555 1_555
N10_8 N2_13 1_555 1_555
C15_13 O3_13 1_555 1_555
C15_13 O4_13 1_555 1_555
C20_13 C21_13 1_555 1_555
C22_13 N7_13 1_555 1_555
C23_13 N7_13 1_555 1_555
C28_13 N12_7 1_555 1_555
N10_7 N6_13 1_555 1_555
C12_14 C11_14 1_555 1_555
H7_14 C12_14 1_555 1_555
C13_14 C12_14 1_555 1_555
H8_14 C13_14 1_555 1_555
Cd3_3 O1_14 1_555 1_555
O1_14 C1_14 1_555 1_555
O2_14 C1_14 1_555 1_555
C15_14 C16_14 1_555 1_555
C16_14 C17_14 1_555 1_555
C17_14 H10_14 1_555 1_555
C18_14 C17_14 1_555 1_555
H11_14 C18_14 1_555 1_555
C19_14 C18_14 1_555 1_555
C20_14 C19_14 1_555 1_555
H12_14 C20_14 1_555 1_555
C21_14 C16_14 1_555 1_555
H13_14 C21_14 1_555 1_555
C22_14 H14_14 1_555 1_555
C23_14 C24_14 1_555 1_555
C24_14 C25_14 1_555 1_555
C25_14 H15_14 1_555 1_555
C26_14 C25_14 1_555 1_555
H16_14 C26_14 1_555 1_555
C27_14 C26_14 1_555 1_555
H17_14 C27_14 1_555 1_555
C28_14 C27_14 1_555 1_555
H18_14 C28_14 1_555 1_555
N9_7 C23_14 1_555 1_555
N6_14 C22_14 1_555 1_555
N7_14 C19_14 1_555 1_555
N11_7 C24_14 1_555 1_555
O3_14 Cd3_3 1_555 1_555
O4_14 Cd3_3 1_555 1_555
Cd3_3 O2_14 1_555 1_555
C15_14 O3_14 1_555 1_555
C15_14 O4_14 1_555 1_555
C20_14 C21_14 1_555 1_555
C22_14 N7_14 1_555 1_555
C23_14 N7_14 1_555 1_555
C28_14 N11_7 1_555 1_555
N9_7 N6_14 1_555 1_555
H2_11 C4_11 1_555 1_555
C5_11 C4_11 1_555 1_555
C8_11 H5_11 1_555 1_555
C9_14 C10_14 1_555 1_555
N9_8 C9_14 1_555 1_555
N2_14 C8_11 1_555 1_555
N3_11 C5_11 1_555 1_555
N11_8 C10_14 1_555 1_555
C8_11 N3_11 1_555 1_555
C9_14 N3_11 1_555 1_555
N9_8 N2_14 1_555 1_555
C1_15 C2_12 1_555 1_555
C2_12 C3_13 1_555 1_555
C3_13 H1_13 1_555 1_555
C4_12 C3_13 1_555 1_555
H2_12 C4_12 1_555 1_555
C5_12 C4_12 1_555 1_555
C6_12 C5_12 1_555 1_555
H3_12 C6_12 1_555 1_555
C7_12 C2_12 1_555 1_555
H4_12 C7_12 1_555 1_555
C8_12 H5_12 1_555 1_555
C9_15 C10_15 1_555 1_555
C10_15 C11_15 1_555 1_555
C11_15 H6_12 1_555 1_555
C12_15 C11_15 1_555 1_555
H7_15 C12_15 1_555 1_555
C13_15 C12_15 1_555 1_555
H8_15 C13_15 1_555 1_555
C14_14 C13_15 1_555 1_555
H9_14 C14_14 1_555 1_555
Cd2_4 O1_15 1_555 1_555
N10_6 C9_15 1_555 1_555
N2_15 C8_12 1_555 1_555
N3_12 C5_12 1_555 1_555
N12_6 C10_15 1_555 1_555
O1_15 C1_15 1_555 1_555
O2_15 C1_15 1_555 1_555
C15_15 C16_15 1_555 1_555
H12_15 C20_15 1_555 1_555
C21_15 C16_15 1_555 1_555
H13_15 C21_15 1_555 1_555
C25_15 H15_15 1_555 1_555
C26_15 C25_15 1_555 1_555
H16_15 C26_15 1_555 1_555
C27_15 C26_15 1_555 1_555
H17_15 C27_15 1_555 1_555
O3_15 Cd2_4 1_555 1_555
O4_15 Cd2_4 1_555 1_555
C6_12 C7_12 1_555 1_555
C8_12 N3_12 1_555 1_555
C9_15 N3_12 1_555 1_555
C14_14 N12_6 1_555 1_555
Cd2_4 O2_15 1_555 1_555
N10_6 N2_15 1_555 1_555
C15_15 O3_15 1_555 1_555
C15_15 O4_15 1_555 1_555
C20_15 C21_15 1_555 1_555
C17_15 H10_15 1_555 1_555
C18_15 C17_15 1_555 1_555
H11_15 C18_15 1_555 1_555
C19_15 C18_15 1_555 1_555
C22_15 H14_15 1_555 1_555
C23_15 C24_15 1_555 1_555
H18_15 C28_15 1_555 1_555
N10_5 C23_15 1_555 1_555
N6_15 C22_15 1_555 1_555
N7_15 C19_15 1_555 1_555
N12_5 C24_15 1_555 1_555
C22_15 N7_15 1_555 1_555
C23_15 N7_15 1_555 1_555
C28_15 N12_5 1_555 1_555
N10_5 N6_15 1_555 1_555
C3_14 H1_14 1_555 1_555
C12_16 C11_16 1_555 1_555
H7_16 C12_16 1_555 1_555
C13_16 C12_16 1_555 1_555
H8_16 C13_16 1_555 1_555
C14_15 C13_16 1_555 1_555
H9_15 C14_15 1_555 1_555
Cd3_4 O1_16 1_555 1_555
O1_16 C1_16 1_555 1_555
O2_16 C1_16 1_555 1_555
C15_16 C16_16 1_555 1_555
C16_16 C17_16 1_555 1_555
C17_16 H10_16 1_555 1_555
C18_16 C17_16 1_555 1_555
H11_16 C18_16 1_555 1_555
C19_16 C18_16 1_555 1_555
C20_16 C19_16 1_555 1_555
H12_16 C20_16 1_555 1_555
C21_16 C16_16 1_555 1_555
H13_16 C21_16 1_555 1_555
C22_16 H14_16 1_555 1_555
C23_16 C24_16 1_555 1_555
C24_16 C25_16 1_555 1_555
C25_16 H15_16 1_555 1_555
C26_16 C25_16 1_555 1_555
H16_16 C26_16 1_555 1_555
C27_16 C26_16 1_555 1_555
H17_16 C27_16 1_555 1_555
C28_16 C27_16 1_555 1_555
H18_16 C28_16 1_555 1_555
N9_5 C23_16 1_555 1_555
N6_16 C22_16 1_555 1_555
N7_16 C19_16 1_555 1_555
N11_5 C24_16 1_555 1_555
O3_16 Cd3_4 1_555 1_555
O4_16 Cd3_4 1_555 1_555
Cd3_4 O2_16 1_555 1_555
C15_16 O3_16 1_555 1_555
C15_16 O4_16 1_555 1_555
C20_16 C21_16 1_555 1_555
C22_16 N7_16 1_555 1_555
C23_16 N7_16 1_555 1_555
C28_16 N11_5 1_555 1_555
N9_5 N6_16 1_555 1_555
H2_13 C4_13 1_555 1_555
C5_13 C4_13 1_555 1_555
C6_13 C5_13 1_555 1_555
H3_13 C6_13 1_555 1_555
C7_13 C2_13 1_555 1_555
H4_13 C7_13 1_555 1_555
C8_13 H5_13 1_555 1_555
C9_16 C10_16 1_555 1_555
N9_6 C9_16 1_555 1_555
N2_16 C8_13 1_555 1_555
N3_13 C5_13 1_555 1_555
N11_6 C10_16 1_555 1_555
C6_13 C7_13 1_555 1_555
C8_13 N3_13 1_555 1_555
C9_16 N3_13 1_555 1_555
N9_6 N2_16 1_555 1_555
H2_14 C4_14 1_555 1_555
C5_14 C4_14 1_555 1_555
C6_14 C5_14 1_555 1_555
H3_14 C6_14 1_555 1_555
C7_14 C2_14 1_555 1_555
H4_14 C7_14 1_555 1_555
C8_14 H5_14 1_555 1_555
N3_14 C5_14 1_555 1_555
C6_14 C7_14 1_555 1_555
C8_14 N3_14 1_555 1_555
C3_15 H1_15 1_555 1_555
H9_16 C14_16 1_555 1_555
H3_15 C6_15 1_555 1_555
C7_15 C2_15 1_555 1_555
H4_15 C7_15 1_555 1_555
C6_15 C7_15 1_555 1_555
C3_16 H1_16 1_555 1_555
C4_15 C3_16 1_555 1_555
H2_15 C4_15 1_555 1_555
C5_15 C4_15 1_555 1_555
C8_15 H5_15 1_555 1_555
N3_15 C5_15 1_555 1_555
C8_15 N3_15 1_555 1_555
H2_16 C4_16 1_555 1_555
C5_16 C4_16 1_555 1_555
C6_16 C5_16 1_555 1_555
H3_16 C6_16 1_555 1_555
C7_16 C2_16 1_555 1_555
H4_16 C7_16 1_555 1_555
C8_16 H5_16 1_555 1_555
N3_16 C5_16 1_555 1_555
C6_16 C7_16 1_555 1_555
C8_16 N3_16 1_555 1_555

#END
