
###############################################################################
#
# This file contains modified crystal structure data generated from the
# MOF subset of the Cambridge Structural Database (CSD) v543 
# hosted by the Cambridge Crystallographic Data Centre (CCDC).
#
# This work is licensed under the Creative Commons
# Attribution-NonCommercial-ShareAlike 4.0 International License.
# To view a copy of this license, visit
# http://creativecommons.org/licenses/by-nc-sa/4.0/
# or send a letter to
# Creative Commons, PO Box 1866, Mountain View, CA 94042, USA.
#
# CIF created using the CSD Python API on 29 September 2022
# The structure has been converted into the P1 space group
# The structure has a 3D framework
# The original CSD entry ZOXFEZ is in the orthorhombic crystal system
# The framework has been calculated to contain at least 10.0% void space
# The void calculation uses a probe of radius 1.32A, grid spacing 0.4
# The framework is charged, counterions have been retained in the structure
#
###############################################################################

data_ZOXFEZ
_chemical_formula_moiety         '(C120 H96 Cd7 Cl8 N48 O32 6+)n'
_symmetry_cell_setting           triclinic
_symmetry_space_group_name_H-M   'P 1'
_symmetry_Int_Tables_number      1
_space_group_name_Hall           'P 1'
loop_
_symmetry_equiv_pos_site_id
_symmetry_equiv_pos_as_xyz
1 x,y,z
_cell_length_a                   17.573(7)
_cell_length_b                   16.528(7)
_cell_length_c                   17.595(8)
_cell_angle_alpha                90
_cell_angle_beta                 90
_cell_angle_gamma                90
_cell_volume                     5110.41
loop_
_atom_site_label
_atom_site_type_symbol
_atom_site_fract_x
_atom_site_fract_y
_atom_site_fract_z
Cd3 Cd -0.0000 0.5000 -0.0000
Cd1 Cd -0.0000 0.0000 0.5000
Cd3_2 Cd -0.0000 0.5000 1.0000
N16 N 0.0728(3) 0.1043(3) 0.4488(3)
Cd1_2 Cd -0.0000 1.0000 0.5000
N1 N 0.3346(3) 0.6655(3) 0.3879(3)
N2 N 0.1658(3) 0.5893(3) 0.1794(3)
N3 N 0.1101(3) 0.8255(3) 0.3354(3)
C1 C 0.2670(3) 0.6789(4) 0.3443(3)
C2 C 0.1589(4) 0.7576(4) 0.3169(3)
C3 C 0.2231(4) 0.7446(4) 0.3605(3)
H1 H 0.2359 0.7796 0.3998
N4 N 0.0492(3) 0.9171(3) 0.4020(3)
C4 C 0.0925(3) 0.8528(4) 0.4046(3)
H2 H 0.1091 0.8289 0.4494
C5 C 0.1846(4) 0.6417(4) 0.2414(3)
C6 C 0.1394(4) 0.7080(4) 0.2569(4)
H3 H 0.0967 0.7190 0.2274
C7 C 0.2497(4) 0.6268(4) 0.2837(4)
H4 H 0.2811 0.5832 0.2722
C8 C 0.1035(4) 0.5919(4) 0.1367(3)
H5 H 0.0644 0.6289 0.1442
C9 C 0.3644(4) 0.5939(3) 0.4084(3)
H6 H 0.3438 0.5439 0.3959
C10 C 0.0772(5) 0.8772(5) 0.2843(4)
H7 H 0.0801 0.8743 0.2316
C11 C 0.3828(4) 0.7248(4) 0.4155(4)
H8 H 0.3772 0.7804 0.4098
C12 C 0.0393(4) 0.9333(4) 0.3258(4)
H9 H 0.0111 0.9760 0.3060
C13 C 0.2089(5) 0.5266(6) 0.1509(5)
H10 H 0.2560 0.5093 0.1686
N5 N 0.1026(3) 0.5370(3) 0.0830(3)
C14 C 0.1694(5) 0.4957(5) 0.0930(5)
H11 H 0.1851 0.4520 0.0635
N6 N 0.4272(3) 0.6043(3) 0.4488(3)
C15 C 0.4388(4) 0.6866(4) 0.4518(4)
H12 H 0.4796 0.7118 0.4756
Cd5 Cd 0.5000 0.5000 0.5000
N14 N 0.1026(3) 0.9630(3) 0.5830(3)
Cd3_3 Cd 1.0000 0.5000 -0.0000
Cd1_3 Cd 1.0000 0.0000 0.5000
N7 N 0.6654(3) 0.3345(3) 0.6121(3)
N8 N 0.8342(3) 0.4107(3) 0.8206(3)
N9 N 0.8899(3) 0.1745(3) 0.6646(3)
C16 C 0.7330(3) 0.3211(4) 0.6557(3)
C17 C 0.8411(4) 0.2424(4) 0.6831(3)
C18 C 0.7769(4) 0.2554(4) 0.6395(3)
H13 H 0.7641 0.2204 0.6002
N10 N 0.9508(3) 0.0829(3) 0.5980(3)
C19 C 0.9075(3) 0.1472(4) 0.5954(3)
H14 H 0.8909 0.1711 0.5506
C20 C 0.8154(4) 0.3583(4) 0.7586(3)
C21 C 0.8606(4) 0.2920(4) 0.7431(4)
H15 H 0.9033 0.2810 0.7726
C22 C 0.7503(4) 0.3732(4) 0.7163(4)
H16 H 0.7189 0.4168 0.7278
C23 C 0.8965(4) 0.4081(4) 0.8633(3)
H17 H 0.9356 0.3711 0.8558
C24 C 0.6356(4) 0.4061(3) 0.5916(3)
H18 H 0.6562 0.4561 0.6041
C25 C 0.9228(5) 0.1228(5) 0.7157(4)
H19 H 0.9199 0.1257 0.7684
C26 C 0.6172(4) 0.2752(4) 0.5845(4)
H20 H 0.6228 0.2196 0.5902
C27 C 0.9607(4) 0.0667(4) 0.6742(4)
H21 H 0.9889 0.0240 0.6940
C28 C 0.7911(5) 0.4734(6) 0.8491(5)
H22 H 0.7440 0.4907 0.8314
N11 N 0.8974(3) 0.4630(3) 0.9170(3)
C29 C 0.8306(5) 0.5043(5) 0.9070(5)
H23 H 0.8149 0.5480 0.9365
N12 N 0.5728(3) 0.3957(3) 0.5512(3)
C30 C 0.5612(4) 0.3134(4) 0.5482(4)
H24 H 0.5204 0.2882 0.5244
Cd3_4 Cd 1.0000 0.5000 1.0000
N13 N 0.8974(3) 0.0370(3) 0.4170(3)
Cd1_4 Cd 1.0000 1.0000 0.5000
N15 N 0.9272(3) 0.8957(3) 0.5512(3)
Cd1_5 Cd 0.5000 0.0000 -0.0000
N14_2 N 0.3974(3) 0.0370(3) 0.0830(3)
N15_2 N 0.5728(3) 0.1043(3) 0.0512(3)
Cd1_6 Cd 0.5000 0.0000 1.0000
N1_2 N 0.1654(3) 0.3345(3) 0.8879(3)
N2_2 N 0.3342(3) 0.4107(3) 0.6794(3)
N3_2 N 0.3899(3) 0.1745(3) 0.8354(3)
C1_2 C 0.2330(3) 0.3211(4) 0.8443(3)
C2_2 C 0.3411(4) 0.2424(4) 0.8169(3)
C3_2 C 0.2769(4) 0.2554(4) 0.8605(3)
H1_2 H 0.2641 0.2204 0.8998
N4_2 N 0.4508(3) 0.0829(3) 0.9020(3)
C4_2 C 0.4075(3) 0.1472(4) 0.9046(3)
H2_2 H 0.3909 0.1711 0.9494
C5_2 C 0.3154(4) 0.3583(4) 0.7414(3)
C6_2 C 0.3606(4) 0.2920(4) 0.7569(4)
H3_2 H 0.4033 0.2810 0.7274
C7_2 C 0.2503(4) 0.3732(4) 0.7837(4)
H4_2 H 0.2189 0.4168 0.7722
C8_2 C 0.3965(4) 0.4081(4) 0.6367(3)
H5_2 H 0.4356 0.3711 0.6442
C9_2 C 0.1356(4) 0.4061(3) 0.9084(3)
H6_2 H 0.1562 0.4561 0.8959
C10_2 C 0.4228(5) 0.1228(5) 0.7843(4)
H7_2 H 0.4199 0.1257 0.7316
C11_2 C 0.1172(4) 0.2752(4) 0.9155(4)
H8_2 H 0.1228 0.2196 0.9098
C12_2 C 0.4607(4) 0.0667(4) 0.8258(4)
H9_2 H 0.4889 0.0240 0.8060
C13_2 C 0.2911(5) 0.4734(6) 0.6509(5)
H10_2 H 0.2440 0.4907 0.6686
N5_2 N 0.3974(3) 0.4630(3) 0.5830(3)
C14_2 C 0.3306(5) 0.5043(5) 0.5930(5)
H11_2 H 0.3149 0.5480 0.5635
N6_2 N 0.0728(3) 0.3957(3) 0.9488(3)
C15_2 C 0.0612(4) 0.3134(4) 0.9518(4)
H12_2 H 0.0204 0.2882 0.9756
Cd1_7 Cd 0.5000 1.0000 -0.0000
N7_2 N 0.8346(3) 0.6655(3) 0.1121(3)
N8_2 N 0.6658(3) 0.5893(3) 0.3206(3)
N9_2 N 0.6101(3) 0.8255(3) 0.1646(3)
C16_2 C 0.7670(3) 0.6789(4) 0.1557(3)
C17_2 C 0.6589(4) 0.7576(4) 0.1831(3)
C18_2 C 0.7231(4) 0.7446(4) 0.1395(3)
H13_2 H 0.7359 0.7796 0.1002
N10_2 N 0.5492(3) 0.9171(3) 0.0980(3)
C19_2 C 0.5925(3) 0.8528(4) 0.0954(3)
H14_2 H 0.6091 0.8289 0.0506
C20_2 C 0.6846(4) 0.6417(4) 0.2586(3)
C21_2 C 0.6394(4) 0.7080(4) 0.2431(4)
H15_2 H 0.5967 0.7190 0.2726
C22_2 C 0.7497(4) 0.6268(4) 0.2163(4)
H16_2 H 0.7811 0.5832 0.2278
C23_2 C 0.6035(4) 0.5919(4) 0.3633(3)
H17_2 H 0.5644 0.6289 0.3558
C24_2 C 0.8644(4) 0.5939(3) 0.0916(3)
H18_2 H 0.8438 0.5439 0.1041
C25_2 C 0.5772(5) 0.8772(5) 0.2157(4)
H19_2 H 0.5801 0.8743 0.2684
C26_2 C 0.8828(4) 0.7248(4) 0.0845(4)
H20_2 H 0.8772 0.7804 0.0902
C27_2 C 0.5393(4) 0.9333(4) 0.1742(4)
H21_2 H 0.5111 0.9760 0.1940
C28_2 C 0.7089(5) 0.5266(6) 0.3491(5)
H22_2 H 0.7560 0.5093 0.3314
N11_2 N 0.6026(3) 0.5370(3) 0.4170(3)
C29_2 C 0.6694(5) 0.4957(5) 0.4070(5)
H23_2 H 0.6851 0.4520 0.4365
N12_2 N 0.9272(3) 0.6043(3) 0.0512(3)
C30_2 C 0.9388(4) 0.6866(4) 0.0482(4)
H24_2 H 0.9796 0.7118 0.0244
Cd1_8 Cd 0.5000 1.0000 1.0000
N13_2 N 0.6026(3) 0.9630(3) 0.9170(3)
N16_2 N 0.4272(3) 0.8957(3) 0.9488(3)
C29_3 C 0.1694(5) 0.0043(5) 0.5930(5)
H23_3 H 0.1851 0.0480 0.5635
N7_3 N 0.3346(3) 0.8345(3) 0.8879(3)
N8_3 N 0.1658(3) 0.9107(3) 0.6794(3)
N9_3 N 0.1101(3) 0.6745(3) 0.8354(3)
C16_3 C 0.2670(3) 0.8211(4) 0.8443(3)
C17_3 C 0.1589(4) 0.7424(4) 0.8169(3)
C18_3 C 0.2231(4) 0.7554(4) 0.8605(3)
H13_3 H 0.2359 0.7204 0.8998
N10_3 N 0.0492(3) 0.5829(3) 0.9020(3)
C19_3 C 0.0925(3) 0.6472(4) 0.9046(3)
H14_3 H 0.1091 0.6711 0.9494
C20_3 C 0.1846(4) 0.8583(4) 0.7414(3)
C21_3 C 0.1394(4) 0.7920(4) 0.7569(4)
H15_3 H 0.0967 0.7810 0.7274
C22_3 C 0.2497(4) 0.8732(4) 0.7837(4)
H16_3 H 0.2811 0.9168 0.7722
C23_3 C 0.1035(4) 0.9081(4) 0.6367(3)
H17_3 H 0.0644 0.8711 0.6442
C24_3 C 0.3644(4) 0.9061(3) 0.9084(3)
H18_3 H 0.3438 0.9561 0.8959
C25_3 C 0.0772(5) 0.6228(5) 0.7843(4)
H19_3 H 0.0801 0.6257 0.7316
C26_3 C 0.3828(4) 0.7752(4) 0.9155(4)
H20_3 H 0.3772 0.7196 0.9098
C27_3 C 0.0393(4) 0.5667(4) 0.8258(4)
H21_3 H 0.0111 0.5240 0.8060
C28_3 C 0.2089(5) 0.9734(6) 0.6509(5)
H22_3 H 0.2560 0.9907 0.6686
C30_3 C 0.4388(4) 0.8134(4) 0.9518(4)
H24_3 H 0.4796 0.7882 0.9756
N1_3 N 0.6654(3) 0.1655(3) 0.1121(3)
N2_3 N 0.8342(3) 0.0893(3) 0.3206(3)
N3_3 N 0.8899(3) 0.3255(3) 0.1646(3)
C1_3 C 0.7330(3) 0.1789(4) 0.1557(3)
C2_3 C 0.8411(4) 0.2576(4) 0.1831(3)
C3_3 C 0.7769(4) 0.2446(4) 0.1395(3)
H1_3 H 0.7641 0.2796 0.1002
N4_3 N 0.9508(3) 0.4171(3) 0.0980(3)
C4_3 C 0.9075(3) 0.3528(4) 0.0954(3)
H2_3 H 0.8909 0.3289 0.0506
C5_3 C 0.8154(4) 0.1417(4) 0.2586(3)
C6_3 C 0.8606(4) 0.2080(4) 0.2431(4)
H3_3 H 0.9033 0.2190 0.2726
C7_3 C 0.7503(4) 0.1268(4) 0.2163(4)
H4_3 H 0.7189 0.0832 0.2278
C8_3 C 0.8965(4) 0.0919(4) 0.3633(3)
H5_3 H 0.9356 0.1289 0.3558
C9_3 C 0.6356(4) 0.0939(3) 0.0916(3)
H6_3 H 0.6562 0.0439 0.1041
C10_3 C 0.9228(5) 0.3772(5) 0.2157(4)
H7_3 H 0.9199 0.3743 0.2684
C11_3 C 0.6172(4) 0.2248(4) 0.0845(4)
H8_3 H 0.6228 0.2804 0.0902
C12_3 C 0.9607(4) 0.4333(4) 0.1742(4)
H9_3 H 0.9889 0.4760 0.1940
C13_3 C 0.7911(5) 0.0266(6) 0.3491(5)
H10_3 H 0.7440 0.0093 0.3314
C15_3 C 0.5612(4) 0.1866(4) 0.0482(4)
H12_3 H 0.5204 0.2118 0.0244
C14_3 C 0.8306(5) 0.9957(5) 0.4070(5)
H11_3 H 0.8149 0.9520 0.4365
C14_4 C 0.6694(5) 0.0043(5) 0.9070(5)
H11_4 H 0.6851 0.0480 0.9365
N1_4 N 0.8346(3) 0.8345(3) 0.6121(3)
N2_4 N 0.6658(3) 0.9107(3) 0.8206(3)
N3_4 N 0.6101(3) 0.6745(3) 0.6646(3)
C1_4 C 0.7670(3) 0.8211(4) 0.6557(3)
C2_4 C 0.6589(4) 0.7424(4) 0.6831(3)
C3_4 C 0.7231(4) 0.7554(4) 0.6395(3)
H1_4 H 0.7359 0.7204 0.6002
N4_4 N 0.5492(3) 0.5829(3) 0.5980(3)
C4_4 C 0.5925(3) 0.6472(4) 0.5954(3)
H2_4 H 0.6091 0.6711 0.5506
C5_4 C 0.6846(4) 0.8583(4) 0.7586(3)
C6_4 C 0.6394(4) 0.7920(4) 0.7431(4)
H3_4 H 0.5967 0.7810 0.7726
C7_4 C 0.7497(4) 0.8732(4) 0.7163(4)
H4_4 H 0.7811 0.9168 0.7278
C8_4 C 0.6035(4) 0.9081(4) 0.8633(3)
H5_4 H 0.5644 0.8711 0.8558
C9_4 C 0.8644(4) 0.9061(3) 0.5916(3)
H6_4 H 0.8438 0.9561 0.6041
C10_4 C 0.5772(5) 0.6228(5) 0.7157(4)
H7_4 H 0.5801 0.6257 0.7684
C11_4 C 0.8828(4) 0.7752(4) 0.5845(4)
H8_4 H 0.8772 0.7196 0.5902
C12_4 C 0.5393(4) 0.5667(4) 0.6742(4)
H9_4 H 0.5111 0.5240 0.6940
C13_4 C 0.7089(5) 0.9734(6) 0.8491(5)
H10_4 H 0.7560 0.9907 0.8314
C15_4 C 0.9388(4) 0.8134(4) 0.5482(4)
H12_4 H 0.9796 0.7882 0.5244
N7_4 N 0.1654(3) 0.1655(3) 0.3879(3)
N8_4 N 0.3342(3) 0.0893(3) 0.1794(3)
N9_4 N 0.3899(3) 0.3255(3) 0.3354(3)
C16_4 C 0.2330(3) 0.1789(4) 0.3443(3)
C17_4 C 0.3411(4) 0.2576(4) 0.3169(3)
C18_4 C 0.2769(4) 0.2446(4) 0.3605(3)
H13_4 H 0.2641 0.2796 0.3998
N10_4 N 0.4508(3) 0.4171(3) 0.4020(3)
C19_4 C 0.4075(3) 0.3528(4) 0.4046(3)
H14_4 H 0.3909 0.3289 0.4494
C20_4 C 0.3154(4) 0.1417(4) 0.2414(3)
C21_4 C 0.3606(4) 0.2080(4) 0.2569(4)
H15_4 H 0.4033 0.2190 0.2274
C22_4 C 0.2503(4) 0.1268(4) 0.2837(4)
H16_4 H 0.2189 0.0832 0.2722
C23_4 C 0.3965(4) 0.0919(4) 0.1367(3)
H17_4 H 0.4356 0.1289 0.1442
C24_4 C 0.1356(4) 0.0939(3) 0.4084(3)
H18_4 H 0.1562 0.0439 0.3959
C25_4 C 0.4228(5) 0.3772(5) 0.2843(4)
H19_4 H 0.4199 0.3743 0.2316
C26_4 C 0.1172(4) 0.2248(4) 0.4155(4)
H20_4 H 0.1228 0.2804 0.4098
C27_4 C 0.4607(4) 0.4333(4) 0.3258(4)
H21_4 H 0.4889 0.4760 0.3060
C28_4 C 0.2911(5) 0.0266(6) 0.1509(5)
H22_4 H 0.2440 0.0093 0.1686
C30_4 C 0.0612(4) 0.1866(4) 0.4518(4)
H24_4 H 0.0204 0.2118 0.4756
C29_4 C 0.3306(5) 0.9957(5) 0.0930(5)
H23_4 H 0.3149 0.9520 0.0635
Cl1 Cl 0.1353(5) 0.6628(6) 0.5475(4)
O1 O 0.0846(9) 0.6624(10) 0.4846(7)
O2 O 0.2099(7) 0.6461(11) 0.5138(9)
O3 O 0.1390(12) 0.7428(8) 0.5765(11)
O4 O 0.1263(12) 0.6006(10) 0.6012(9)
Cl1_2 Cl 0.3647(5) 0.3372(6) 0.0475(4)
O2_2 O 0.2901(7) 0.3539(11) 0.0138(9)
O3_2 O 0.3610(12) 0.2572(8) 0.0765(11)
O4_2 O 0.3737(12) 0.3994(10) 0.1012(9)
O1_2 O 0.4154(9) 0.3376(10) 0.9846(7)
O1_3 O 0.9154(9) 0.1624(10) 0.0154(7)
Cl1_3 Cl 0.8647(5) 0.1628(6) 0.9525(4)
O2_3 O 0.7901(7) 0.1461(11) 0.9862(9)
O3_3 O 0.8610(12) 0.2428(8) 0.9235(11)
O4_3 O 0.8737(12) 0.1006(10) 0.8988(9)
Cl1_4 Cl 0.6353(5) 0.8372(6) 0.4525(4)
O1_4 O 0.5846(9) 0.8376(10) 0.5154(7)
O2_4 O 0.7099(7) 0.8539(11) 0.4862(9)
O3_4 O 0.6390(12) 0.7572(8) 0.4235(11)
O4_4 O 0.6263(12) 0.8994(10) 0.3988(9)
Cl1_5 Cl 0.8647(5) 0.3372(6) 0.4525(4)
O1_5 O 0.9154(9) 0.3376(10) 0.5154(7)
O2_5 O 0.7901(7) 0.3539(11) 0.4862(9)
O3_5 O 0.8610(12) 0.2572(8) 0.4235(11)
O4_5 O 0.8737(12) 0.3994(10) 0.3988(9)
O1_6 O 0.5846(9) 0.6624(10) 0.0154(7)
Cl1_6 Cl 0.6353(5) 0.6628(6) 0.9525(4)
O2_6 O 0.7099(7) 0.6461(11) 0.9862(9)
O3_6 O 0.6390(12) 0.7428(8) 0.9235(11)
O4_6 O 0.6263(12) 0.6006(10) 0.8988(9)
Cl1_7 Cl 0.1353(5) 0.8372(6) 0.0475(4)
O2_7 O 0.2099(7) 0.8539(11) 0.0138(9)
O3_7 O 0.1390(12) 0.7572(8) 0.0765(11)
O4_7 O 0.1263(12) 0.8994(10) 0.1012(9)
O1_7 O 0.0846(9) 0.8376(10) 0.9846(7)
Cl1_8 Cl 0.3647(5) 0.1628(6) 0.5475(4)
O1_8 O 0.4154(9) 0.1624(10) 0.4846(7)
O2_8 O 0.2901(7) 0.1461(11) 0.5138(9)
O3_8 O 0.3610(12) 0.2428(8) 0.5765(11)
O4_8 O 0.3737(12) 0.1006(10) 0.6012(9)
loop_
_geom_bond_atom_site_label_1
_geom_bond_atom_site_label_2
_geom_bond_site_symmetry_1
_geom_bond_site_symmetry_2
N16 Cd1 1_555 1_555
Cd1_2 N4 1_555 1_555
N1 C1 1_555 1_555
N2 C5 1_555 1_555
N3 C2 1_555 1_555
C1 C3 1_555 1_555
C2 C3 1_555 1_555
C3 H1 1_555 1_555
N4 C4 1_555 1_555
C4 N3 1_555 1_555
H2 C4 1_555 1_555
C5 C6 1_555 1_555
C6 C2 1_555 1_555
H3 C6 1_555 1_555
C7 C1 1_555 1_555
H4 C7 1_555 1_555
C8 N2 1_555 1_555
H5 C8 1_555 1_555
C9 N1 1_555 1_555
H6 C9 1_555 1_555
C10 N3 1_555 1_555
H7 C10 1_555 1_555
C11 N1 1_555 1_555
H8 C11 1_555 1_555
C12 N4 1_555 1_555
H9 C12 1_555 1_555
C13 N2 1_555 1_555
H10 C13 1_555 1_555
N5 C8 1_555 1_555
C14 C13 1_555 1_555
H11 C14 1_555 1_555
N6 C9 1_555 1_555
C15 C11 1_555 1_555
H12 C15 1_555 1_555
Cd3 N5 1_555 1_555
Cd5 N6 1_555 1_555
N14 Cd1_2 1_555 1_555
C5 C7 1_555 1_555
C10 C12 1_555 1_555
N5 C14 1_555 1_555
N6 C15 1_555 1_555
N7 C16 1_555 1_555
N8 C20 1_555 1_555
N9 C17 1_555 1_555
C16 C18 1_555 1_555
C17 C18 1_555 1_555
C18 H13 1_555 1_555
N10 Cd1_3 1_555 1_555
C19 N9 1_555 1_555
H14 C19 1_555 1_555
C20 C21 1_555 1_555
C21 C17 1_555 1_555
H15 C21 1_555 1_555
C22 C16 1_555 1_555
H16 C22 1_555 1_555
C23 N8 1_555 1_555
H17 C23 1_555 1_555
C24 N7 1_555 1_555
H18 C24 1_555 1_555
C25 N9 1_555 1_555
H19 C25 1_555 1_555
C26 N7 1_555 1_555
H20 C26 1_555 1_555
C27 N10 1_555 1_555
H21 C27 1_555 1_555
C28 N8 1_555 1_555
H22 C28 1_555 1_555
N11 C23 1_555 1_555
C29 C28 1_555 1_555
H23 C29 1_555 1_555
N12 C24 1_555 1_555
C30 C26 1_555 1_555
H24 C30 1_555 1_555
Cd3_4 N11 1_555 1_555
Cd5 N12 1_555 1_555
N13 Cd1_3 1_555 1_555
N10 C19 1_555 1_555
C20 C22 1_555 1_555
C25 C27 1_555 1_555
N11 C29 1_555 1_555
N12 C30 1_555 1_555
N15 Cd1_4 1_555 1_555
N14_2 Cd1_5 1_555 1_555
N15_2 Cd1_5 1_555 1_555
Cd1_6 N4_2 1_555 1_555
N1_2 C1_2 1_555 1_555
N2_2 C5_2 1_555 1_555
N3_2 C2_2 1_555 1_555
C1_2 C3_2 1_555 1_555
C2_2 C3_2 1_555 1_555
C3_2 H1_2 1_555 1_555
N4_2 C4_2 1_555 1_555
C4_2 N3_2 1_555 1_555
H2_2 C4_2 1_555 1_555
C5_2 C6_2 1_555 1_555
C6_2 C2_2 1_555 1_555
H3_2 C6_2 1_555 1_555
C7_2 C1_2 1_555 1_555
H4_2 C7_2 1_555 1_555
C8_2 N2_2 1_555 1_555
H5_2 C8_2 1_555 1_555
C9_2 N1_2 1_555 1_555
H6_2 C9_2 1_555 1_555
C10_2 N3_2 1_555 1_555
H7_2 C10_2 1_555 1_555
C11_2 N1_2 1_555 1_555
H8_2 C11_2 1_555 1_555
C12_2 N4_2 1_555 1_555
H9_2 C12_2 1_555 1_555
C13_2 N2_2 1_555 1_555
H10_2 C13_2 1_555 1_555
N5_2 C8_2 1_555 1_555
C14_2 C13_2 1_555 1_555
H11_2 C14_2 1_555 1_555
N6_2 C9_2 1_555 1_555
C15_2 C11_2 1_555 1_555
H12_2 C15_2 1_555 1_555
Cd5 N5_2 1_555 1_555
Cd3_2 N6_2 1_555 1_555
C5_2 C7_2 1_555 1_555
C10_2 C12_2 1_555 1_555
N5_2 C14_2 1_555 1_555
N6_2 C15_2 1_555 1_555
N7_2 C16_2 1_555 1_555
N8_2 C20_2 1_555 1_555
N9_2 C17_2 1_555 1_555
C16_2 C18_2 1_555 1_555
C17_2 C18_2 1_555 1_555
C18_2 H13_2 1_555 1_555
N10_2 Cd1_7 1_555 1_555
C19_2 N9_2 1_555 1_555
H14_2 C19_2 1_555 1_555
C20_2 C21_2 1_555 1_555
C21_2 C17_2 1_555 1_555
H15_2 C21_2 1_555 1_555
C22_2 C16_2 1_555 1_555
H16_2 C22_2 1_555 1_555
C23_2 N8_2 1_555 1_555
H17_2 C23_2 1_555 1_555
C24_2 N7_2 1_555 1_555
H18_2 C24_2 1_555 1_555
C25_2 N9_2 1_555 1_555
H19_2 C25_2 1_555 1_555
C26_2 N7_2 1_555 1_555
H20_2 C26_2 1_555 1_555
C27_2 N10_2 1_555 1_555
H21_2 C27_2 1_555 1_555
C28_2 N8_2 1_555 1_555
H22_2 C28_2 1_555 1_555
N11_2 C23_2 1_555 1_555
C29_2 C28_2 1_555 1_555
H23_2 C29_2 1_555 1_555
N12_2 C24_2 1_555 1_555
C30_2 C26_2 1_555 1_555
H24_2 C30_2 1_555 1_555
Cd5 N11_2 1_555 1_555
Cd3_3 N12_2 1_555 1_555
N10_2 C19_2 1_555 1_555
C20_2 C22_2 1_555 1_555
C25_2 C27_2 1_555 1_555
N11_2 C29_2 1_555 1_555
N12_2 C30_2 1_555 1_555
N13_2 Cd1_8 1_555 1_555
N16_2 Cd1_8 1_555 1_555
H23_3 C29_3 1_555 1_555
N7_3 C16_3 1_555 1_555
N8_3 C20_3 1_555 1_555
N9_3 C17_3 1_555 1_555
C16_3 C18_3 1_555 1_555
C17_3 C18_3 1_555 1_555
C18_3 H13_3 1_555 1_555
N10_3 Cd3_2 1_555 1_555
C19_3 N9_3 1_555 1_555
H14_3 C19_3 1_555 1_555
C20_3 C21_3 1_555 1_555
C21_3 C17_3 1_555 1_555
H15_3 C21_3 1_555 1_555
C22_3 C16_3 1_555 1_555
H16_3 C22_3 1_555 1_555
C23_3 N8_3 1_555 1_555
H17_3 C23_3 1_555 1_555
C24_3 N7_3 1_555 1_555
H18_3 C24_3 1_555 1_555
C25_3 N9_3 1_555 1_555
H19_3 C25_3 1_555 1_555
C26_3 N7_3 1_555 1_555
H20_3 C26_3 1_555 1_555
C27_3 N10_3 1_555 1_555
H21_3 C27_3 1_555 1_555
C28_3 N8_3 1_555 1_555
H22_3 C28_3 1_555 1_555
N14 C23_3 1_555 1_555
N16_2 C24_3 1_555 1_555
C30_3 C26_3 1_555 1_555
H24_3 C30_3 1_555 1_555
N10_3 C19_3 1_555 1_555
C20_3 C22_3 1_555 1_555
C25_3 C27_3 1_555 1_555
N16_2 C30_3 1_555 1_555
Cd3_3 N4_3 1_555 1_555
N1_3 C1_3 1_555 1_555
N2_3 C5_3 1_555 1_555
N3_3 C2_3 1_555 1_555
C1_3 C3_3 1_555 1_555
C2_3 C3_3 1_555 1_555
C3_3 H1_3 1_555 1_555
N4_3 C4_3 1_555 1_555
C4_3 N3_3 1_555 1_555
H2_3 C4_3 1_555 1_555
C5_3 C6_3 1_555 1_555
C6_3 C2_3 1_555 1_555
H3_3 C6_3 1_555 1_555
C7_3 C1_3 1_555 1_555
H4_3 C7_3 1_555 1_555
C8_3 N2_3 1_555 1_555
H5_3 C8_3 1_555 1_555
C9_3 N1_3 1_555 1_555
H6_3 C9_3 1_555 1_555
C10_3 N3_3 1_555 1_555
H7_3 C10_3 1_555 1_555
C11_3 N1_3 1_555 1_555
H8_3 C11_3 1_555 1_555
C12_3 N4_3 1_555 1_555
H9_3 C12_3 1_555 1_555
C13_3 N2_3 1_555 1_555
H10_3 C13_3 1_555 1_555
N13 C8_3 1_555 1_555
N15_2 C9_3 1_555 1_555
C15_3 C11_3 1_555 1_555
H12_3 C15_3 1_555 1_555
C5_3 C7_3 1_555 1_555
C10_3 C12_3 1_555 1_555
N15_2 C15_3 1_555 1_555
H11_3 C14_3 1_555 1_555
H11_4 C14_4 1_555 1_555
Cd5 N4_4 1_555 1_555
N1_4 C1_4 1_555 1_555
N2_4 C5_4 1_555 1_555
N3_4 C2_4 1_555 1_555
C1_4 C3_4 1_555 1_555
C2_4 C3_4 1_555 1_555
C3_4 H1_4 1_555 1_555
N4_4 C4_4 1_555 1_555
C4_4 N3_4 1_555 1_555
H2_4 C4_4 1_555 1_555
C5_4 C6_4 1_555 1_555
C6_4 C2_4 1_555 1_555
H3_4 C6_4 1_555 1_555
C7_4 C1_4 1_555 1_555
H4_4 C7_4 1_555 1_555
C8_4 N2_4 1_555 1_555
H5_4 C8_4 1_555 1_555
C9_4 N1_4 1_555 1_555
H6_4 C9_4 1_555 1_555
C10_4 N3_4 1_555 1_555
H7_4 C10_4 1_555 1_555
C11_4 N1_4 1_555 1_555
H8_4 C11_4 1_555 1_555
C12_4 N4_4 1_555 1_555
H9_4 C12_4 1_555 1_555
C13_4 N2_4 1_555 1_555
H10_4 C13_4 1_555 1_555
N13_2 C8_4 1_555 1_555
N15 C9_4 1_555 1_555
C15_4 C11_4 1_555 1_555
H12_4 C15_4 1_555 1_555
N7_4 C16_4 1_555 1_555
N8_4 C20_4 1_555 1_555
N9_4 C17_4 1_555 1_555
C16_4 C18_4 1_555 1_555
C17_4 C18_4 1_555 1_555
C18_4 H13_4 1_555 1_555
N10_4 Cd5 1_555 1_555
C19_4 N9_4 1_555 1_555
H14_4 C19_4 1_555 1_555
C20_4 C21_4 1_555 1_555
C21_4 C17_4 1_555 1_555
H15_4 C21_4 1_555 1_555
C22_4 C16_4 1_555 1_555
H16_4 C22_4 1_555 1_555
C23_4 N8_4 1_555 1_555
H17_4 C23_4 1_555 1_555
C24_4 N7_4 1_555 1_555
H18_4 C24_4 1_555 1_555
C25_4 N9_4 1_555 1_555
H19_4 C25_4 1_555 1_555
C26_4 N7_4 1_555 1_555
H20_4 C26_4 1_555 1_555
C27_4 N10_4 1_555 1_555
H21_4 C27_4 1_555 1_555
C28_4 N8_4 1_555 1_555
H22_4 C28_4 1_555 1_555
N14_2 C23_4 1_555 1_555
N16 C24_4 1_555 1_555
C30_4 C26_4 1_555 1_555
H24_4 C30_4 1_555 1_555
C5_4 C7_4 1_555 1_555
C10_4 C12_4 1_555 1_555
N15 C15_4 1_555 1_555
N10_4 C19_4 1_555 1_555
C20_4 C22_4 1_555 1_555
C25_4 C27_4 1_555 1_555
N16 C30_4 1_555 1_555
H23_4 C29_4 1_555 1_555
Cl1 O1 1_555 1_555
O2 Cl1 1_555 1_555
O3 Cl1 1_555 1_555
O4 Cl1 1_555 1_555
O2_2 Cl1_2 1_555 1_555
O3_2 Cl1_2 1_555 1_555
O4_2 Cl1_2 1_555 1_555
O2_3 Cl1_3 1_555 1_555
O3_3 Cl1_3 1_555 1_555
O4_3 Cl1_3 1_555 1_555
Cl1_4 O1_4 1_555 1_555
O2_4 Cl1_4 1_555 1_555
O3_4 Cl1_4 1_555 1_555
O4_4 Cl1_4 1_555 1_555
Cl1_5 O1_5 1_555 1_555
O2_5 Cl1_5 1_555 1_555
O3_5 Cl1_5 1_555 1_555
O4_5 Cl1_5 1_555 1_555
O2_6 Cl1_6 1_555 1_555
O3_6 Cl1_6 1_555 1_555
O4_6 Cl1_6 1_555 1_555
O2_7 Cl1_7 1_555 1_555
O3_7 Cl1_7 1_555 1_555
O4_7 Cl1_7 1_555 1_555
Cl1_8 O1_8 1_555 1_555
O2_8 Cl1_8 1_555 1_555
O3_8 Cl1_8 1_555 1_555
O4_8 Cl1_8 1_555 1_555

#END
