
###############################################################################
#
# This file contains modified crystal structure data generated from the
# MOF subset of the Cambridge Structural Database (CSD) v543 
# hosted by the Cambridge Crystallographic Data Centre (CCDC).
#
# This work is licensed under the Creative Commons
# Attribution-NonCommercial-ShareAlike 4.0 International License.
# To view a copy of this license, visit
# http://creativecommons.org/licenses/by-nc-sa/4.0/
# or send a letter to
# Creative Commons, PO Box 1866, Mountain View, CA 94042, USA.
#
# CIF created using the CSD Python API on 29 September 2022
# The structure has been converted into the P1 space group
# The structure has a 3D framework
# The original CSD entry ZOXGUQ is in the monoclinic crystal system
# The framework has been calculated to contain at least 10.0% void space
# The void calculation uses a probe of radius 1.32A, grid spacing 0.4
#
###############################################################################

data_ZOXGUQ
_chemical_formula_moiety         '(C272 H248 N48 Ni16 O104)n'
_symmetry_cell_setting           triclinic
_symmetry_space_group_name_H-M   'P 1'
_symmetry_Int_Tables_number      1
_space_group_name_Hall           'P 1'
loop_
_symmetry_equiv_pos_site_id
_symmetry_equiv_pos_as_xyz
1 x,y,z
_cell_length_a                   22.1280(9)
_cell_length_b                   14.5817(4)
_cell_length_c                   28.0830(12)
_cell_angle_alpha                90
_cell_angle_beta                 116.316(5)
_cell_angle_gamma                90
_cell_volume                     8122.27
loop_
_atom_site_label
_atom_site_type_symbol
_atom_site_fract_x
_atom_site_fract_y
_atom_site_fract_z
N5 N 0.06775(18) 0.2010(2) 0.10108(14)
N6 N 0.15109(17) 0.1755(2) 0.18056(14)
C27 C 0.0330(2) 0.2264(3) 0.04618(17)
C28 C 0.0613(2) 0.2121(3) 0.01208(18)
H20 H 0.1040 0.1861 0.0245
C30 C 0.0393(2) 0.1740(3) 0.13335(19)
C31 C 0.0909(2) 0.1583(3) 0.1814(2)
C32 C 0.1348(2) 0.2002(3) 0.13100(18)
H23 H 0.1661 0.2152 0.1184
H27 H 0.090(2) 0.144(3) 0.2132(18)
Ni8 Ni 0.24600(3) 0.17160(3) 0.24428(2)
O5 O 0.21609(14) 0.57218(17) 0.65146(12)
O6 O 0.15278(14) 0.5113(2) 0.57211(12)
C7 C 0.0469(2) 0.6064(3) 0.67937(18)
H10 H 0.0505 0.6336 0.7105
C8 C 0.1037(2) 0.5967(3) 0.67088(17)
H11 H 0.1455 0.6163 0.6966
C9 C 0.0985(2) 0.5577(2) 0.62402(16)
C10 C 0.0362(2) 0.5272(3) 0.58622(17)
H12 H 0.0326 0.5005 0.5550
C14 C 0.1599(2) 0.5464(3) 0.61464(17)
H17 H 0.0001 0.3270 0.8612
C29 C 0.0262(2) 0.2363(3) 0.95925(17)
H21 H 0.0450 0.2260 0.9360
Ni10 Ni 0.21898(3) 0.49423(4) 0.53941(2)
Ni1 Ni 0.74600(3) 0.32840(3) 0.74428(2)
Ni2 Ni 0.78102(3) 0.50577(4) 0.46059(2)
O1 O 0.82688(17) 0.33501(18) 0.66539(13)
O2 O 0.77692(15) 0.41707(18) 0.70439(12)
O3 O 0.78698(14) 0.73962(18) 0.71597(12)
O4 O 0.83571(16) 0.82498(18) 0.67718(13)
O7 O 0.86478(14) 0.55038(19) 0.52755(12)
O8 O 0.91188(17) 0.4119(2) 0.54990(15)
O9 O 0.79111(17) 0.3693(2) 0.48638(14)
H1 H 0.780(3) 0.325(2) 0.4663(17)
O10 O 0.69973(15) 0.4647(2) 0.38990(12)
H2 H 0.6784 0.4171 0.3948
H3 H 0.7131 0.4489 0.3657
O11 O 0.76211(19) 0.6428(2) 0.42998(16)
O12 O 0.78105(14) 0.21600(17) 0.71604(11)
H4 H 0.7479 0.1786 0.6971
H5 H 0.7996 0.2344 0.6957
O13 O 0.71159(14) 0.44105(17) 0.77243(12)
H6 H 0.7438 0.4945 0.7945
H7 H 0.6957 0.4230 0.7946
N1 N 0.72033(18) 0.5309(3) 0.49717(15)
N2 N 0.63179(18) 0.5319(2) 0.51353(16)
N3 N 0.84241(17) 0.3294(2) 0.80790(14)
N4 N 0.92720(18) 0.3007(2) 0.88616(14)
C1 C 0.8436(2) 0.4968(2) 0.67377(17)
C2 C 0.8206(2) 0.5794(3) 0.68421(16)
H8 H 0.7861 0.5795 0.6946
C3 C 0.8488(2) 0.6624(3) 0.67924(16)
C4 C 0.9013(2) 0.6609(3) 0.66444(17)
H9 H 0.9208 0.7158 0.6615
C5 C 0.9248(2) 0.5793(3) 0.65409(16)
C6 C 0.9840(2) 0.5755(2) 0.64129(17)
C11 C 0.9786(2) 0.5363(3) 0.59477(16)
C12 C 0.8133(2) 0.4096(3) 0.68119(17)
C13 C 0.8222(2) 0.7493(3) 0.69168(16)
C15 C 0.9130(2) 0.4963(3) 0.55419(18)
C16 C 0.6841(3) 0.5690(4) 0.5567(2)
H13 H 0.6832 0.5911 0.5874
C17 C 0.7378(3) 0.5672(4) 0.5457(2)
C18 C 0.6566(2) 0.5095(3) 0.4792(2)
H14 H 0.6314 0.4820 0.4465
C19 C 0.5138(2) 0.4992(3) 0.45684(19)
H15 H 0.5233 0.4985 0.4277
C20 C 0.5647(2) 0.5166(3) 0.50659(18)
C21 C 0.5515(2) 0.5175(3) 0.55036(19)
H16 H 0.5859 0.5291 0.5841
C22 C 0.9544(2) 0.3239(3) 0.85273(18)
C23 C 0.9026(2) 0.3414(3) 0.80522(18)
H18 H 0.9067 0.3590 0.7750
C24 C 0.8597(2) 0.3052(3) 0.85739(18)
H19 H 0.8291 0.2928 0.8709
C25 C 0.9633(2) 0.2756(3) 0.94103(17)
C26 C 0.9347(2) 0.2929(3) 0.97493(19)
C34 C 0.8949(2) 0.4984(3) 0.65821(17)
H24 H 0.895(2) 0.331(3) 0.9609(19)
H26 H 0.9117(19) 0.450(2) 0.6498(15)
H28 H 0.8328(10) 0.374(3) 0.5043(16)
H29 H 0.727(2) 0.636(5) 0.4012(17)
H30 H 0.746(4) 0.677(4) 0.445(3)
H31 H 0.774(3) 0.585(3) 0.562(2)
N7 N 0.27967(18) 0.4691(3) 0.50283(15)
N8 N 0.36821(18) 0.4681(2) 0.48647(16)
C35 C 0.3159(3) 0.4310(4) 0.4433(2)
H32 H 0.3168 0.4089 0.4126
C36 C 0.2622(3) 0.4328(4) 0.4543(2)
C37 C 0.3434(2) 0.4905(3) 0.5208(2)
H33 H 0.3686 0.5180 0.5535
C38 C 0.4862(2) 0.5008(3) 0.54316(19)
H34 H 0.4767 0.5015 0.5723
C39 C 0.4353(2) 0.4834(3) 0.49341(18)
C40 C 0.4485(2) 0.4825(3) 0.44964(19)
H35 H 0.4141 0.4709 0.4159
H36 H 0.226(3) 0.415(3) 0.438(2)
Ni3 Ni 0.25400(3) 0.67160(3) 0.25572(2)
O14 O 0.17312(17) 0.66499(18) 0.33461(13)
O15 O 0.22308(15) 0.58293(18) 0.29561(12)
O16 O 0.21302(14) 0.26038(18) 0.28403(12)
O17 O 0.16429(16) 0.17502(18) 0.32282(13)
O20 O 0.13522(14) 0.44962(19) 0.47245(12)
O21 O 0.08812(17) 0.5881(2) 0.45010(15)
O22 O 0.20889(17) 0.6307(2) 0.51362(14)
H37 H 0.220(3) 0.675(2) 0.5337(17)
O23 O 0.30027(15) 0.5353(2) 0.61010(12)
H38 H 0.3216 0.5829 0.6052
H39 H 0.2869 0.5511 0.6343
O24 O 0.23789(19) 0.3572(2) 0.57002(16)
O25 O 0.21895(14) 0.78400(17) 0.28396(11)
H40 H 0.2521 0.8214 0.3029
H41 H 0.2004 0.7656 0.3043
O26 O 0.28841(14) 0.55895(17) 0.22757(12)
H42 H 0.2562 0.5055 0.2055
H43 H 0.3043 0.5770 0.2054
N9 N 0.15759(17) 0.6706(2) 0.19210(14)
N10 N 0.07280(18) 0.6993(2) 0.11384(14)
C41 C 0.1564(2) 0.5032(2) 0.32623(17)
C42 C 0.1794(2) 0.4206(3) 0.31579(16)
H44 H 0.2139 0.4205 0.3054
C43 C 0.1512(2) 0.3376(3) 0.32076(16)
C44 C 0.0987(2) 0.3391(3) 0.33556(17)
H45 H 0.0792 0.2842 0.3385
C45 C 0.0752(2) 0.4207(3) 0.34591(16)
C46 C 0.0160(2) 0.4245(2) 0.35871(17)
C51 C 0.0214(2) 0.4637(3) 0.40523(16)
C52 C 0.1867(2) 0.5904(3) 0.31881(17)
C53 C 0.1778(2) 0.2507(3) 0.30832(16)
C55 C 0.0870(2) 0.5037(3) 0.44581(18)
C56 C 0.0456(2) 0.6761(3) 0.14727(18)
C57 C 0.0974(2) 0.6586(3) 0.19478(18)
H50 H 0.0933 0.6410 0.2250
C58 C 0.1403(2) 0.6948(3) 0.14261(18)
H51 H 0.1709 0.7072 0.1291
C59 C 0.0367(2) 0.7244(3) 0.05897(17)
C60 C 0.0653(2) 0.7071(3) 0.02507(19)
C68 C 0.1051(2) 0.5016(3) 0.34179(17)
H56 H 0.105(2) 0.669(3) 0.0391(19)
H58 H 0.0883(19) 0.550(2) 0.3502(15)
H60 H 0.1672(10) 0.626(3) 0.4957(16)
H61 H 0.273(2) 0.364(5) 0.5988(17)
H62 H 0.254(4) 0.323(4) 0.555(3)
Ni6 Ni 0.75400(3) 0.82840(3) 0.75572(2)
O27 O 0.71302(14) 0.23962(18) 0.78403(12)
O28 O 0.28698(14) 0.76038(18) 0.21597(12)
O30 O 0.84722(14) 0.4887(2) 0.42789(12)
N13 N 0.34891(17) 0.6755(2) 0.31944(14)
N14 N 0.65109(17) 0.3245(2) 0.68056(14)
O18 O 0.78391(14) 0.42782(17) 0.34854(12)
C47 C 0.9531(2) 0.3936(3) 0.32063(18)
H46 H 0.9495 0.3664 0.2895
C48 C 0.8963(2) 0.4033(3) 0.32912(17)
H47 H 0.8545 0.3837 0.3034
C49 C 0.9015(2) 0.4423(2) 0.37598(16)
C50 C 0.9638(2) 0.4728(3) 0.41378(17)
H48 H 0.9674 0.4995 0.4450
C54 C 0.8401(2) 0.4536(3) 0.38536(17)
H49 H 0.9999 0.6730 0.1388
C63 C 0.9738(2) 0.7637(3) 0.04075(17)
H53 H 0.9550 0.7740 0.0640
N11 N 0.93225(18) 0.7990(2) 0.89892(14)
N12 N 0.84891(17) 0.8245(2) 0.81944(14)
C61 C 0.9670(2) 0.7736(3) 0.95382(17)
C62 C 0.9387(2) 0.7879(3) 0.98792(18)
H52 H 0.8960 0.8139 0.9755
C64 C 0.9607(2) 0.8260(3) 0.86665(19)
C65 C 0.9091(2) 0.8417(3) 0.8186(2)
C66 C 0.8652(2) 0.7998(3) 0.86900(18)
H55 H 0.8339 0.7848 0.8816
H59 H 0.910(2) 0.856(3) 0.7868(18)
O14_2 O 0.32688(17) 0.16499(18) 0.16539(13)
O15_2 O 0.27692(15) 0.08293(18) 0.20439(12)
O21_2 O 0.41188(17) 0.0881(2) 0.04990(15)
O25_2 O 0.28105(14) 0.28400(17) 0.21604(11)
H40_2 H 0.2479 0.3214 0.1971
H41_2 H 0.2996 0.2656 0.1957
O26_2 O 0.21159(14) 0.05895(17) 0.27243(12)
H42_2 H 0.2438 0.0055 0.2945
H43_2 H 0.1957 0.0770 0.2946
N9_2 N 0.34241(17) 0.1706(2) 0.30790(14)
N10_2 N 0.42720(18) 0.1993(2) 0.38616(14)
N11_2 N 0.56775(18) 0.2990(2) 0.60108(14)
C41_2 C 0.3436(2) 0.0032(2) 0.17377(17)
C52_2 C 0.3133(2) 0.0904(3) 0.18119(17)
C55_2 C 0.4130(2) 0.0037(3) 0.05419(18)
C56_2 C 0.4544(2) 0.1761(3) 0.35273(18)
H49_2 H 0.5001 0.1730 0.3612
C57_2 C 0.4026(2) 0.1586(3) 0.30522(18)
H50_2 H 0.4067 0.1410 0.2750
C58_2 C 0.3597(2) 0.1948(3) 0.35739(18)
H51_2 H 0.3291 0.2072 0.3709
C59_2 C 0.4633(2) 0.2244(3) 0.44103(17)
C60_2 C 0.4347(2) 0.2071(3) 0.47493(19)
C61_2 C 0.5330(2) 0.2736(3) 0.54618(17)
C62_2 C 0.5613(2) 0.2879(3) 0.51208(18)
H52_2 H 0.6040 0.3139 0.5245
C63_2 C 0.5262(2) 0.2637(3) 0.45925(17)
H53_2 H 0.5450 0.2740 0.4360
C64_2 C 0.5393(2) 0.3260(3) 0.63335(19)
H54 H 0.4936 0.3323 0.6239
C65_2 C 0.5909(2) 0.3417(3) 0.6814(2)
C66_2 C 0.6348(2) 0.2998(3) 0.63100(18)
H55_2 H 0.6661 0.2848 0.6184
C67 C 0.4701(2) 0.2323(3) 0.52836(19)
C68_2 C 0.3949(2) 0.0016(3) 0.15821(17)
H56_2 H 0.395(2) 0.169(3) 0.4609(19)
H57 H 0.449(2) 0.214(3) 0.5482(18)
H58_2 H 0.4117(19) 0.050(2) 0.1498(15)
H59_2 H 0.590(2) 0.356(3) 0.7132(18)
H60_2 H 0.3328(10) 0.126(3) 0.0043(16)
Ni9 Ni 0.71898(3) 0.00577(4) 0.03941(2)
H33_2 H 0.1314 0.0180 0.9465
C38_2 C 0.0138(2) 0.0008(3) 0.95684(19)
H34_2 H 0.0233 0.0015 0.9277
O22_2 O 0.29111(17) 0.1307(2) 0.98638(14)
H37_2 H 0.280(3) 0.175(2) 0.9663(17)
O23_2 O 0.19973(15) 0.0353(2) 0.88990(12)
H38_2 H 0.1784 0.0829 0.8948
H39_2 H 0.2131 0.0511 0.8657
O29 O 0.34722(14) 0.0113(2) 0.92789(12)
N8_2 N 0.13179(18) 0.9681(2) 0.01353(16)
C35_2 C 0.1841(3) 0.9310(4) 0.0567(2)
H32_2 H 0.1832 0.9089 0.0874
C36_2 C 0.2378(3) 0.9328(4) 0.0457(2)
C39_2 C 0.0647(2) 0.9834(3) 0.00659(18)
C40_2 C 0.0515(2) 0.9825(3) 0.05036(19)
H35_2 H 0.0859 0.9709 0.0841
H36_2 H 0.274(3) 0.915(3) 0.062(2)
O17_2 O 0.33571(16) 0.67502(18) 0.17718(13)
O18_2 O 0.71609(14) 0.92782(17) 0.15146(12)
O19 O 0.65278(14) 0.9887(2) 0.07211(12)
O20_2 O 0.36478(14) 0.94962(19) 0.02755(12)
C42_2 C 0.3206(2) 0.9206(3) 0.18421(16)
H44_2 H 0.2861 0.9205 0.1946
C43_2 C 0.3488(2) 0.8376(3) 0.17924(16)
C44_2 C 0.4013(2) 0.8391(3) 0.16444(17)
H45_2 H 0.4208 0.7842 0.1615
C45_2 C 0.4248(2) 0.9207(3) 0.15409(16)
C46_2 C 0.4840(2) 0.9245(2) 0.14129(17)
C47_2 C 0.5469(2) 0.8936(3) 0.17937(18)
H46_2 H 0.5505 0.8664 0.2105
C48_2 C 0.6037(2) 0.9033(3) 0.17088(17)
H47_2 H 0.6455 0.8837 0.1966
C49_2 C 0.5985(2) 0.9423(2) 0.12402(16)
C50_2 C 0.5362(2) 0.9728(3) 0.08622(17)
H48_2 H 0.5326 0.9995 0.0550
C51_2 C 0.4786(2) 0.9637(3) 0.09477(16)
C53_2 C 0.3222(2) 0.7507(3) 0.19168(16)
C54_2 C 0.6599(2) 0.9536(3) 0.11464(17)
N7_2 N 0.22033(18) 0.9691(3) 0.99717(15)
C37_2 C 0.1566(2) 0.9905(3) 0.9792(2)
Ni4 Ni 0.28102(3) 0.99423(4) 0.96059(2)
O24_2 O 0.26211(19) 0.8572(2) 0.92998(16)
H61_2 H 0.227(2) 0.864(5) 0.9012(17)
H62_2 H 0.246(4) 0.823(4) 0.945(3)
O11_2 O 0.73789(19) 0.1428(2) 0.07002(16)
N1_2 N 0.77967(18) 0.0309(3) 0.00283(15)
C18_2 C 0.8434(2) 0.0095(3) 0.0208(2)
H29_2 H 0.773(2) 0.136(5) 0.0988(17)
H30_2 H 0.754(4) 0.177(4) 0.055(3)
O4_2 O 0.66429(16) 0.32498(18) 0.82282(13)
O5_2 O 0.28391(14) 0.07218(17) 0.84854(12)
O7_2 O 0.63522(14) 0.05038(19) 0.97245(12)
N2_2 N 0.86821(18) 0.0319(2) 0.98647(16)
C2_2 C 0.6794(2) 0.0794(3) 0.81579(16)
H8_2 H 0.7139 0.0795 0.8054
C3_2 C 0.6512(2) 0.1624(3) 0.82076(16)
C4_2 C 0.5987(2) 0.1609(3) 0.83556(17)
H9_2 H 0.5792 0.2158 0.8385
C5_2 C 0.5752(2) 0.0793(3) 0.84591(16)
C6_2 C 0.5160(2) 0.0755(2) 0.85871(17)
C7_2 C 0.4531(2) 0.1064(3) 0.82063(18)
H10_2 H 0.4495 0.1336 0.7895
C8_2 C 0.3963(2) 0.0967(3) 0.82912(17)
H11_2 H 0.3545 0.1163 0.8034
C9_2 C 0.4015(2) 0.0577(2) 0.87598(16)
C10_2 C 0.4638(2) 0.0272(3) 0.91378(17)
H12_2 H 0.4674 0.0005 0.9450
C11_2 C 0.5214(2) 0.0363(3) 0.90523(16)
C13_2 C 0.6778(2) 0.2493(3) 0.80832(16)
C14_2 C 0.3401(2) 0.0464(3) 0.88536(17)
C16_2 C 0.8159(3) 0.0690(4) 0.9433(2)
H13_2 H 0.8168 0.0911 0.9126
C17_2 C 0.7622(3) 0.0672(4) 0.9543(2)
C20_2 C 0.9353(2) 0.0166(3) 0.99341(18)
C21_2 C 0.9485(2) 0.0175(3) 0.94964(19)
H16_2 H 0.9141 0.0291 0.9159
H31_2 H 0.726(3) 0.085(3) 0.938(2)
O9_2 O 0.70889(17) 0.8693(2) 0.01362(14)
H1_2 H 0.720(3) 0.825(2) 0.0337(17)
O10_2 O 0.80027(15) 0.9647(2) 0.11010(12)
H2_2 H 0.8216 0.9171 0.1052
H3_2 H 0.7869 0.9489 0.1343
H14_2 H 0.8686 0.9820 0.0535
C19_2 C 0.9862(2) 0.9992(3) 0.04316(19)
H15_2 H 0.9767 0.9985 0.0723
O1_2 O 0.67312(17) 0.83501(18) 0.83461(13)
O2_2 O 0.72308(15) 0.91707(18) 0.79561(12)
O8_2 O 0.58812(17) 0.9119(2) 0.95010(15)
O12_2 O 0.71895(14) 0.71600(17) 0.78396(11)
H4_2 H 0.7521 0.6786 0.8029
H5_2 H 0.7004 0.7344 0.8043
O13_2 O 0.78841(14) 0.94105(17) 0.72757(12)
H6_2 H 0.7562 0.9945 0.7055
H7_2 H 0.8043 0.9230 0.7054
N3_2 N 0.65759(17) 0.8294(2) 0.69210(14)
N4_2 N 0.57280(18) 0.8007(2) 0.61384(14)
N5_2 N 0.43225(18) 0.7010(2) 0.39892(14)
C1_2 C 0.6564(2) 0.9968(2) 0.82623(17)
C12_2 C 0.6867(2) 0.9096(3) 0.81881(17)
C15_2 C 0.5870(2) 0.9963(3) 0.94581(18)
C22_2 C 0.5456(2) 0.8239(3) 0.64727(18)
H17_2 H 0.4999 0.8270 0.6388
C23_2 C 0.5974(2) 0.8414(3) 0.69478(18)
H18_2 H 0.5933 0.8590 0.7250
C24_2 C 0.6403(2) 0.8052(3) 0.64261(18)
H19_2 H 0.6709 0.7928 0.6291
C25_2 C 0.5367(2) 0.7756(3) 0.55897(17)
C26_2 C 0.5653(2) 0.7929(3) 0.52507(19)
C27_2 C 0.4670(2) 0.7264(3) 0.45382(17)
C28_2 C 0.4387(2) 0.7121(3) 0.48792(18)
H20_2 H 0.3960 0.6861 0.4755
C29_2 C 0.4738(2) 0.7363(3) 0.54075(17)
H21_2 H 0.4550 0.7260 0.5640
C30_2 C 0.4607(2) 0.6740(3) 0.36665(19)
H22 H 0.5064 0.6677 0.3761
C31_2 C 0.4091(2) 0.6583(3) 0.3186(2)
C32_2 C 0.3652(2) 0.7002(3) 0.36900(18)
H23_2 H 0.3339 0.7152 0.3816
C33 C 0.5299(2) 0.7677(3) 0.47164(19)
C34_2 C 0.6051(2) 0.9984(3) 0.84179(17)
H24_2 H 0.605(2) 0.831(3) 0.5391(19)
H25 H 0.551(2) 0.786(3) 0.4518(18)
H26_2 H 0.5883(19) 0.950(2) 0.8502(15)
H27_2 H 0.410(2) 0.644(3) 0.2868(18)
H28_2 H 0.6672(10) 0.874(3) 0.9957(16)
H22_2 H 0.9936 0.1677 0.1239
C33_2 C 0.9701(2) 0.2677(3) 0.02836(19)
H25_2 H 0.949(2) 0.286(3) 0.0482(18)
H54_2 H 0.0064 0.8323 0.8761
C67_2 C 0.0299(2) 0.7323(3) 0.97164(19)
H57_2 H 0.051(2) 0.714(3) 0.9518(18)
O18_3 O 0.21609(14) 0.42782(17) 0.15146(12)
O19_2 O 0.15278(14) 0.4887(2) 0.07211(12)
N11_3 N 0.06775(18) 0.7990(2) 0.60108(14)
N12_2 N 0.15109(17) 0.8245(2) 0.68056(14)
C47_3 C 0.0469(2) 0.3936(3) 0.17937(18)
H46_3 H 0.0505 0.3664 0.2105
C48_3 C 0.1037(2) 0.4033(3) 0.17088(17)
H47_3 H 0.1455 0.3837 0.1966
C49_3 C 0.0985(2) 0.4423(2) 0.12402(16)
C50_3 C 0.0362(2) 0.4728(3) 0.08622(17)
H48_3 H 0.0326 0.4995 0.0550
C54_3 C 0.1599(2) 0.4536(3) 0.11464(17)
H49_3 H 0.0001 0.6730 0.3612
C61_3 C 0.0330(2) 0.7736(3) 0.54618(17)
C62_3 C 0.0613(2) 0.7879(3) 0.51208(18)
H52_3 H 0.1040 0.8139 0.5245
C63_3 C 0.0262(2) 0.7637(3) 0.45925(17)
H53_3 H 0.0450 0.7740 0.4360
C64_3 C 0.0393(2) 0.8260(3) 0.63335(19)
C65_3 C 0.0909(2) 0.8417(3) 0.6814(2)
C66_3 C 0.1348(2) 0.7998(3) 0.63100(18)
H55_3 H 0.1661 0.7848 0.6184
H59_3 H 0.090(2) 0.856(3) 0.7132(18)
Ni5 Ni 0.24600(3) 0.82840(3) 0.74428(2)
Ni9_2 Ni 0.21898(3) 0.50577(4) 0.03941(2)
O9_3 O 0.20889(17) 0.3693(2) 0.01362(14)
H1_3 H 0.220(3) 0.325(2) 0.0337(17)
O10_3 O 0.30027(15) 0.4647(2) 0.11010(12)
H2_3 H 0.3216 0.4171 0.1052
H3_3 H 0.2869 0.4489 0.1343
O11_3 O 0.23789(19) 0.6428(2) 0.07002(16)
N1_3 N 0.27967(18) 0.5309(3) 0.00283(15)
C18_3 C 0.3434(2) 0.5095(3) 0.0208(2)
H14_3 H 0.3686 0.4820 0.0535
C19_3 C 0.4862(2) 0.4992(3) 0.04316(19)
H15_3 H 0.4767 0.4985 0.0723
H29_3 H 0.273(2) 0.636(5) 0.0988(17)
H30_3 H 0.254(4) 0.677(4) 0.055(3)
N8_3 N 0.63179(18) 0.4681(2) 0.01353(16)
C35_3 C 0.6841(3) 0.4310(4) 0.0567(2)
H32_3 H 0.6832 0.4089 0.0874
C36_3 C 0.7378(3) 0.4328(4) 0.0457(2)
C39_3 C 0.5647(2) 0.4834(3) 0.00659(18)
C40_3 C 0.5515(2) 0.4825(3) 0.05036(19)
H35_3 H 0.5859 0.4709 0.0841
H36_3 H 0.774(3) 0.415(3) 0.062(2)
Ni3_2 Ni 0.74600(3) 0.67160(3) 0.24428(2)
O14_3 O 0.82688(17) 0.66499(18) 0.16539(13)
O15_3 O 0.77692(15) 0.58293(18) 0.20439(12)
O16_2 O 0.78698(14) 0.26038(18) 0.21597(12)
O17_3 O 0.83571(16) 0.17502(18) 0.17718(13)
O20_3 O 0.86478(14) 0.44962(19) 0.02755(12)
O21_3 O 0.91188(17) 0.5881(2) 0.04990(15)
O25_3 O 0.78105(14) 0.78400(17) 0.21604(11)
H40_3 H 0.7479 0.8214 0.1971
H41_3 H 0.7996 0.7656 0.1957
O26_3 O 0.71159(14) 0.55895(17) 0.27243(12)
H42_3 H 0.7438 0.5055 0.2945
H43_3 H 0.6957 0.5770 0.2946
N9_3 N 0.84241(17) 0.6706(2) 0.30790(14)
N10_3 N 0.92720(18) 0.6993(2) 0.38616(14)
C41_3 C 0.8436(2) 0.5032(2) 0.17377(17)
C42_3 C 0.8206(2) 0.4206(3) 0.18421(16)
H44_3 H 0.7861 0.4205 0.1946
C43_3 C 0.8488(2) 0.3376(3) 0.17924(16)
C44_3 C 0.9013(2) 0.3391(3) 0.16444(17)
H45_3 H 0.9208 0.2842 0.1615
C45_3 C 0.9248(2) 0.4207(3) 0.15409(16)
C46_3 C 0.9840(2) 0.4245(2) 0.14129(17)
C51_3 C 0.9786(2) 0.4637(3) 0.09477(16)
C52_3 C 0.8133(2) 0.5904(3) 0.18119(17)
C53_3 C 0.8222(2) 0.2507(3) 0.19168(16)
C55_3 C 0.9130(2) 0.5037(3) 0.05419(18)
C56_3 C 0.9544(2) 0.6761(3) 0.35273(18)
C57_3 C 0.9026(2) 0.6586(3) 0.30522(18)
H50_3 H 0.9067 0.6410 0.2750
C58_3 C 0.8597(2) 0.6948(3) 0.35739(18)
H51_3 H 0.8291 0.7072 0.3709
C59_3 C 0.9633(2) 0.7244(3) 0.44103(17)
C60_3 C 0.9347(2) 0.7071(3) 0.47493(19)
H54_3 H 0.9936 0.8323 0.6239
C67_3 C 0.9701(2) 0.7323(3) 0.52836(19)
C68_3 C 0.8949(2) 0.5016(3) 0.15821(17)
H56_3 H 0.895(2) 0.669(3) 0.4609(19)
H57_3 H 0.949(2) 0.714(3) 0.5482(18)
H58_3 H 0.9117(19) 0.550(2) 0.1498(15)
H60_3 H 0.8328(10) 0.626(3) 0.0043(16)
Ni7 Ni 0.75400(3) 0.17160(3) 0.25572(2)
O28_2 O 0.71302(14) 0.76038(18) 0.28403(12)
N13_2 N 0.65109(17) 0.6755(2) 0.18056(14)
Ni1_2 Ni 0.25400(3) 0.32840(3) 0.75572(2)
O1_3 O 0.17312(17) 0.33501(18) 0.83461(13)
O2_3 O 0.22308(15) 0.41707(18) 0.79561(12)
O3_2 O 0.21302(14) 0.73962(18) 0.78403(12)
O4_3 O 0.16429(16) 0.82498(18) 0.82282(13)
O7_3 O 0.13522(14) 0.55038(19) 0.97245(12)
O8_3 O 0.08812(17) 0.4119(2) 0.95010(15)
O12_3 O 0.21895(14) 0.21600(17) 0.78396(11)
H4_3 H 0.2521 0.1786 0.8029
H5_3 H 0.2004 0.2344 0.8043
O13_3 O 0.28841(14) 0.44105(17) 0.72757(12)
H6_3 H 0.2562 0.4945 0.7055
H7_3 H 0.3043 0.4230 0.7054
N2_3 N 0.36821(18) 0.5319(2) 0.98647(16)
N3_3 N 0.15759(17) 0.3294(2) 0.69210(14)
N4_3 N 0.07280(18) 0.3007(2) 0.61384(14)
C1_3 C 0.1564(2) 0.4968(2) 0.82623(17)
C2_3 C 0.1794(2) 0.5794(3) 0.81579(16)
H8_3 H 0.2139 0.5795 0.8054
C3_3 C 0.1512(2) 0.6624(3) 0.82076(16)
C4_3 C 0.0987(2) 0.6609(3) 0.83556(17)
H9_3 H 0.0792 0.7158 0.8385
C5_3 C 0.0752(2) 0.5793(3) 0.84591(16)
C6_3 C 0.0160(2) 0.5755(2) 0.85871(17)
C11_3 C 0.0214(2) 0.5363(3) 0.90523(16)
C12_3 C 0.1867(2) 0.4096(3) 0.81881(17)
C13_3 C 0.1778(2) 0.7493(3) 0.80832(16)
C15_3 C 0.0870(2) 0.4963(3) 0.94581(18)
C16_3 C 0.3159(3) 0.5690(4) 0.9433(2)
H13_3 H 0.3168 0.5911 0.9126
C17_3 C 0.2622(3) 0.5672(4) 0.9543(2)
C20_3 C 0.4353(2) 0.5166(3) 0.99341(18)
C21_3 C 0.4485(2) 0.5175(3) 0.94964(19)
H16_3 H 0.4141 0.5291 0.9159
C22_3 C 0.0456(2) 0.3239(3) 0.64727(18)
C23_3 C 0.0974(2) 0.3414(3) 0.69478(18)
H18_3 H 0.0933 0.3590 0.7250
C24_3 C 0.1403(2) 0.3052(3) 0.64261(18)
H19_3 H 0.1709 0.2928 0.6291
C25_3 C 0.0367(2) 0.2756(3) 0.55897(17)
C26_3 C 0.0653(2) 0.2929(3) 0.52507(19)
H22_3 H 0.0064 0.1677 0.3761
C33_3 C 0.0299(2) 0.2677(3) 0.47164(19)
C34_3 C 0.1051(2) 0.4984(3) 0.84179(17)
H24_3 H 0.105(2) 0.331(3) 0.5391(19)
H25_3 H 0.051(2) 0.286(3) 0.4518(18)
H26_3 H 0.0883(19) 0.450(2) 0.8502(15)
H28_3 H 0.1672(10) 0.374(3) 0.9957(16)
H31_3 H 0.226(3) 0.585(3) 0.938(2)
N7_3 N 0.72033(18) 0.4691(3) 0.99717(15)
C37_3 C 0.6566(2) 0.4905(3) 0.9792(2)
H33_3 H 0.6314 0.5180 0.9465
C38_3 C 0.5138(2) 0.5008(3) 0.95684(19)
H34_3 H 0.5233 0.5015 0.9277
Ni4_2 Ni 0.78102(3) 0.49423(4) 0.96059(2)
O22_3 O 0.79111(17) 0.6307(2) 0.98638(14)
H37_3 H 0.780(3) 0.675(2) 0.9663(17)
O23_3 O 0.69973(15) 0.5353(2) 0.88990(12)
H38_3 H 0.6784 0.5829 0.8948
H39_3 H 0.7131 0.5511 0.8657
O24_3 O 0.76211(19) 0.3572(2) 0.92998(16)
H61_3 H 0.727(2) 0.364(5) 0.9012(17)
H62_3 H 0.746(4) 0.323(4) 0.945(3)
O27_2 O 0.28698(14) 0.23962(18) 0.71597(12)
O29_2 O 0.84722(14) 0.5113(2) 0.92789(12)
N14_2 N 0.34891(17) 0.3245(2) 0.81944(14)
O5_3 O 0.78391(14) 0.57218(17) 0.84854(12)
N5_3 N 0.93225(18) 0.2010(2) 0.39892(14)
N6_2 N 0.84891(17) 0.1755(2) 0.31944(14)
C7_3 C 0.9531(2) 0.6064(3) 0.82063(18)
H10_3 H 0.9495 0.6336 0.7895
C8_3 C 0.8963(2) 0.5967(3) 0.82912(17)
H11_3 H 0.8545 0.6163 0.8034
C9_3 C 0.9015(2) 0.5577(2) 0.87598(16)
C10_3 C 0.9638(2) 0.5272(3) 0.91378(17)
H12_3 H 0.9674 0.5005 0.9450
C14_3 C 0.8401(2) 0.5464(3) 0.88536(17)
H17_3 H 0.9999 0.3270 0.6388
C27_3 C 0.9670(2) 0.2264(3) 0.45382(17)
C28_3 C 0.9387(2) 0.2121(3) 0.48792(18)
H20_3 H 0.8960 0.1861 0.4755
C29_3 C 0.9738(2) 0.2363(3) 0.54075(17)
H21_3 H 0.9550 0.2260 0.5640
C30_3 C 0.9607(2) 0.1740(3) 0.36665(19)
C31_3 C 0.9091(2) 0.1583(3) 0.3186(2)
C32_3 C 0.8652(2) 0.2002(3) 0.36900(18)
H23_3 H 0.8339 0.2152 0.3816
H27_3 H 0.910(2) 0.144(3) 0.2868(18)
Ni2_2 Ni 0.28102(3) 0.00577(4) 0.46059(2)
O4_4 O 0.33571(16) 0.32498(18) 0.67718(13)
O5_4 O 0.71609(14) 0.07218(17) 0.65146(12)
O6_2 O 0.65278(14) 0.0113(2) 0.57211(12)
O7_4 O 0.36478(14) 0.05038(19) 0.52755(12)
O11_4 O 0.26211(19) 0.1428(2) 0.42998(16)
N1_4 N 0.22033(18) 0.0309(3) 0.49717(15)
N2_4 N 0.13179(18) 0.0319(2) 0.51353(16)
C2_4 C 0.3206(2) 0.0794(3) 0.68421(16)
H8_4 H 0.2861 0.0795 0.6946
C3_4 C 0.3488(2) 0.1624(3) 0.67924(16)
C4_4 C 0.4013(2) 0.1609(3) 0.66444(17)
H9_4 H 0.4208 0.2158 0.6615
C5_4 C 0.4248(2) 0.0793(3) 0.65409(16)
C6_4 C 0.4840(2) 0.0755(2) 0.64129(17)
C7_4 C 0.5469(2) 0.1064(3) 0.67937(18)
H10_4 H 0.5505 0.1336 0.7105
C8_4 C 0.6037(2) 0.0967(3) 0.67088(17)
H11_4 H 0.6455 0.1163 0.6966
C9_4 C 0.5985(2) 0.0577(2) 0.62402(16)
C10_4 C 0.5362(2) 0.0272(3) 0.58622(17)
H12_4 H 0.5326 0.0005 0.5550
C11_4 C 0.4786(2) 0.0363(3) 0.59477(16)
C13_4 C 0.3222(2) 0.2493(3) 0.69168(16)
C14_4 C 0.6599(2) 0.0464(3) 0.61464(17)
C16_4 C 0.1841(3) 0.0690(4) 0.5567(2)
H13_4 H 0.1832 0.0911 0.5874
C17_4 C 0.2378(3) 0.0672(4) 0.5457(2)
C18_4 C 0.1566(2) 0.0095(3) 0.4792(2)
C20_4 C 0.0647(2) 0.0166(3) 0.50659(18)
C21_4 C 0.0515(2) 0.0175(3) 0.55036(19)
H16_4 H 0.0859 0.0291 0.5841
H29_4 H 0.227(2) 0.136(5) 0.4012(17)
H30_4 H 0.246(4) 0.177(4) 0.445(3)
H31_4 H 0.274(3) 0.085(3) 0.562(2)
N5_4 N 0.56775(18) 0.7010(2) 0.10108(14)
C27_4 C 0.5330(2) 0.7264(3) 0.04618(17)
C28_4 C 0.5613(2) 0.7121(3) 0.01208(18)
H20_4 H 0.6040 0.6861 0.0245
C30_4 C 0.5393(2) 0.6740(3) 0.13335(19)
H22_4 H 0.4936 0.6677 0.1239
C31_4 C 0.5909(2) 0.6583(3) 0.1814(2)
C32_4 C 0.6348(2) 0.7002(3) 0.13100(18)
H23_4 H 0.6661 0.7152 0.1184
C33_4 C 0.4701(2) 0.7677(3) 0.02836(19)
H25_4 H 0.449(2) 0.786(3) 0.0482(18)
H27_4 H 0.590(2) 0.644(3) 0.2132(18)
O1_4 O 0.32688(17) 0.83501(18) 0.66539(13)
O2_4 O 0.27692(15) 0.91707(18) 0.70439(12)
O8_4 O 0.41188(17) 0.9119(2) 0.54990(15)
O9_4 O 0.29111(17) 0.8693(2) 0.48638(14)
H1_4 H 0.280(3) 0.825(2) 0.4663(17)
O10_4 O 0.19973(15) 0.9647(2) 0.38990(12)
H2_4 H 0.1784 0.9171 0.3948
H3_4 H 0.2131 0.9489 0.3657
O12_4 O 0.28105(14) 0.71600(17) 0.71604(11)
H4_4 H 0.2479 0.6786 0.6971
H5_4 H 0.2996 0.7344 0.6957
O13_4 O 0.21159(14) 0.94105(17) 0.77243(12)
H6_4 H 0.2438 0.9945 0.7945
H7_4 H 0.1957 0.9230 0.7946
N3_4 N 0.34241(17) 0.8294(2) 0.80790(14)
N4_4 N 0.42720(18) 0.8007(2) 0.88616(14)
C1_4 C 0.3436(2) 0.9968(2) 0.67377(17)
C12_4 C 0.3133(2) 0.9096(3) 0.68119(17)
C15_4 C 0.4130(2) 0.9963(3) 0.55419(18)
H14_4 H 0.1314 0.9820 0.4465
C19_4 C 0.0138(2) 0.9992(3) 0.45684(19)
H15_4 H 0.0233 0.9985 0.4277
C22_4 C 0.4544(2) 0.8239(3) 0.85273(18)
H17_4 H 0.5001 0.8270 0.8612
C23_4 C 0.4026(2) 0.8414(3) 0.80522(18)
H18_4 H 0.4067 0.8590 0.7750
C24_4 C 0.3597(2) 0.8052(3) 0.85739(18)
H19_4 H 0.3291 0.7928 0.8709
C25_4 C 0.4633(2) 0.7756(3) 0.94103(17)
C26_4 C 0.4347(2) 0.7929(3) 0.97493(19)
C29_4 C 0.5262(2) 0.7363(3) 0.95925(17)
H21_4 H 0.5450 0.7260 0.9360
C34_4 C 0.3949(2) 0.9984(3) 0.65821(17)
H24_4 H 0.395(2) 0.831(3) 0.9609(19)
H26_4 H 0.4117(19) 0.950(2) 0.6498(15)
H28_4 H 0.3328(10) 0.874(3) 0.5043(16)
Ni10_2 Ni 0.71898(3) 0.99423(4) 0.53941(2)
O30_2 O 0.34722(14) 0.9887(2) 0.42789(12)
H33_4 H 0.8686 0.0180 0.5535
C38_4 C 0.9862(2) 0.0008(3) 0.54316(19)
H34_4 H 0.9767 0.0015 0.5723
O14_4 O 0.67312(17) 0.16499(18) 0.33461(13)
O15_4 O 0.72308(15) 0.08293(18) 0.29561(12)
O21_4 O 0.58812(17) 0.0881(2) 0.45010(15)
O22_4 O 0.70889(17) 0.1307(2) 0.51362(14)
H37_4 H 0.720(3) 0.175(2) 0.5337(17)
O23_4 O 0.80027(15) 0.0353(2) 0.61010(12)
H38_4 H 0.8216 0.0829 0.6052
H39_4 H 0.7869 0.0511 0.6343
O25_4 O 0.71895(14) 0.28400(17) 0.28396(11)
H40_4 H 0.7521 0.3214 0.3029
H41_4 H 0.7004 0.2656 0.3043
O26_4 O 0.78841(14) 0.05895(17) 0.22757(12)
H42_4 H 0.7562 0.0055 0.2055
H43_4 H 0.8043 0.0770 0.2054
N9_4 N 0.65759(17) 0.1706(2) 0.19210(14)
N10_4 N 0.57280(18) 0.1993(2) 0.11384(14)
C41_4 C 0.6564(2) 0.0032(2) 0.32623(17)
C52_4 C 0.6867(2) 0.0904(3) 0.31881(17)
C55_4 C 0.5870(2) 0.0037(3) 0.44581(18)
C56_4 C 0.5456(2) 0.1761(3) 0.14727(18)
H49_4 H 0.4999 0.1730 0.1388
C57_4 C 0.5974(2) 0.1586(3) 0.19478(18)
H50_4 H 0.5933 0.1410 0.2250
C58_4 C 0.6403(2) 0.1948(3) 0.14261(18)
H51_4 H 0.6709 0.2072 0.1291
C59_4 C 0.5367(2) 0.2244(3) 0.05897(17)
C60_4 C 0.5653(2) 0.2071(3) 0.02507(19)
C63_4 C 0.4738(2) 0.2637(3) 0.04075(17)
H53_4 H 0.4550 0.2740 0.0640
C68_4 C 0.6051(2) 0.0016(3) 0.34179(17)
H56_4 H 0.605(2) 0.169(3) 0.0391(19)
H58_4 H 0.5883(19) 0.050(2) 0.3502(15)
H60_4 H 0.6672(10) 0.126(3) 0.4957(16)
N11_4 N 0.43225(18) 0.2990(2) 0.89892(14)
C61_4 C 0.4670(2) 0.2736(3) 0.95382(17)
C62_4 C 0.4387(2) 0.2879(3) 0.98792(18)
H52_4 H 0.3960 0.3139 0.9755
C64_4 C 0.4607(2) 0.3260(3) 0.86665(19)
H54_4 H 0.5064 0.3323 0.8761
C65_4 C 0.4091(2) 0.3417(3) 0.8186(2)
C66_4 C 0.3652(2) 0.2998(3) 0.86900(18)
H55_4 H 0.3339 0.2848 0.8816
C67_4 C 0.5299(2) 0.2323(3) 0.97164(19)
H57_4 H 0.551(2) 0.214(3) 0.9518(18)
H59_4 H 0.410(2) 0.356(3) 0.7868(18)
N7_4 N 0.77967(18) 0.9691(3) 0.50283(15)
N8_4 N 0.86821(18) 0.9681(2) 0.48647(16)
C35_4 C 0.8159(3) 0.9310(4) 0.4433(2)
H32_4 H 0.8168 0.9089 0.4126
C36_4 C 0.7622(3) 0.9328(4) 0.4543(2)
C37_4 C 0.8434(2) 0.9905(3) 0.5208(2)
C39_4 C 0.9353(2) 0.9834(3) 0.49341(18)
C40_4 C 0.9485(2) 0.9825(3) 0.44964(19)
H35_4 H 0.9141 0.9709 0.4159
H36_4 H 0.726(3) 0.915(3) 0.438(2)
O17_4 O 0.66429(16) 0.67502(18) 0.32282(13)
O18_4 O 0.28391(14) 0.92782(17) 0.34854(12)
O20_4 O 0.63522(14) 0.94962(19) 0.47245(12)
O24_4 O 0.73789(19) 0.8572(2) 0.57002(16)
C42_4 C 0.6794(2) 0.9206(3) 0.31579(16)
H44_4 H 0.7139 0.9205 0.3054
C43_4 C 0.6512(2) 0.8376(3) 0.32076(16)
C44_4 C 0.5987(2) 0.8391(3) 0.33556(17)
H45_4 H 0.5792 0.7842 0.3385
C45_4 C 0.5752(2) 0.9207(3) 0.34591(16)
C46_4 C 0.5160(2) 0.9245(2) 0.35871(17)
C47_4 C 0.4531(2) 0.8936(3) 0.32063(18)
H46_4 H 0.4495 0.8664 0.2895
C48_4 C 0.3963(2) 0.9033(3) 0.32912(17)
H47_4 H 0.3545 0.8837 0.3034
C49_4 C 0.4015(2) 0.9423(2) 0.37598(16)
C50_4 C 0.4638(2) 0.9728(3) 0.41378(17)
H48_4 H 0.4674 0.9995 0.4450
C51_4 C 0.5214(2) 0.9637(3) 0.40523(16)
C53_4 C 0.6778(2) 0.7507(3) 0.30832(16)
C54_4 C 0.3401(2) 0.9536(3) 0.38536(17)
H61_4 H 0.773(2) 0.864(5) 0.5988(17)
H62_4 H 0.754(4) 0.823(4) 0.555(3)
loop_
_geom_bond_atom_site_label_1
_geom_bond_atom_site_label_2
_geom_bond_site_symmetry_1
_geom_bond_site_symmetry_2
N5 C27 1_555 1_555
N6 C31 1_555 1_555
C27 C28 1_555 1_555
C28 H20 1_555 1_555
C30 N5 1_555 1_555
C31 C30 1_555 1_555
C32 N5 1_555 1_555
H23 C32 1_555 1_555
H27 C31 1_555 1_555
Ni8 N6 1_555 1_555
N6 C32 1_555 1_555
O5 C14 1_555 1_555
O6 C14 1_555 1_555
H10 C7 1_555 1_555
C8 C7 1_555 1_555
H11 C8 1_555 1_555
C9 C8 1_555 1_555
C10 C9 1_555 1_555
H12 C10 1_555 1_555
C14 C9 1_555 1_555
H21 C29 1_555 1_555
Ni10 O6 1_555 1_555
Ni1 O2 1_555 1_555
Ni2 O7 1_555 1_555
O1 C12 1_555 1_555
O2 C12 1_555 1_555
O3 C13 1_555 1_555
O4 C13 1_555 1_555
O7 C15 1_555 1_555
O8 C15 1_555 1_555
O9 Ni2 1_555 1_555
H1 O9 1_555 1_555
O10 Ni2 1_555 1_555
H2 O10 1_555 1_555
H3 O10 1_555 1_555
O11 Ni2 1_555 1_555
O12 Ni1 1_555 1_555
H4 O12 1_555 1_555
H5 O12 1_555 1_555
O13 Ni1 1_555 1_555
H6 O13 1_555 1_555
H7 O13 1_555 1_555
N1 Ni2 1_555 1_555
N2 C16 1_555 1_555
N3 Ni1 1_555 1_555
N4 C22 1_555 1_555
C1 C2 1_555 1_555
C2 H8 1_555 1_555
C3 C2 1_555 1_555
C4 C3 1_555 1_555
H9 C4 1_555 1_555
C5 C4 1_555 1_555
C6 C5 1_555 1_555
C11 C6 1_555 1_555
C12 C1 1_555 1_555
C13 C3 1_555 1_555
C15 C11 1_555 1_555
C16 H13 1_555 1_555
C17 N1 1_555 1_555
C18 N1 1_555 1_555
H14 C18 1_555 1_555
C19 H15 1_555 1_555
C20 N2 1_555 1_555
C21 C20 1_555 1_555
H16 C21 1_555 1_555
C23 N3 1_555 1_555
H18 C23 1_555 1_555
C24 N3 1_555 1_555
H19 C24 1_555 1_555
C25 N4 1_555 1_555
C26 C25 1_555 1_555
C34 C1 1_555 1_555
H24 C26 1_555 1_555
H26 C34 1_555 1_555
H28 O9 1_555 1_555
H29 O11 1_555 1_555
H30 O11 1_555 1_555
H31 C17 1_555 1_555
N7 C36 1_555 1_555
N8 C35 1_555 1_555
C35 H32 1_555 1_555
C36 C35 1_555 1_555
C37 N7 1_555 1_555
H33 C37 1_555 1_555
C38 C21 1_555 1_555
H34 C38 1_555 1_555
C39 N8 1_555 1_555
C40 C19 1_555 1_555
H35 C40 1_555 1_555
H36 C36 1_555 1_555
Ni3 O15 1_555 1_555
Ni10 N7 1_555 1_555
O14 C52 1_555 1_555
O15 C52 1_555 1_555
O16 C53 1_555 1_555
O17 C53 1_555 1_555
O20 Ni10 1_555 1_555
O21 C55 1_555 1_555
O22 Ni10 1_555 1_555
H37 O22 1_555 1_555
O23 Ni10 1_555 1_555
H38 O23 1_555 1_555
H39 O23 1_555 1_555
O24 Ni10 1_555 1_555
O25 Ni3 1_555 1_555
H40 O25 1_555 1_555
H41 O25 1_555 1_555
O26 Ni3 1_555 1_555
H42 O26 1_555 1_555
H43 O26 1_555 1_555
N9 Ni3 1_555 1_555
N10 C56 1_555 1_555
C41 C42 1_555 1_555
C42 H44 1_555 1_555
C43 C42 1_555 1_555
C44 C43 1_555 1_555
H45 C44 1_555 1_555
C45 C44 1_555 1_555
C46 C45 1_555 1_555
C51 C46 1_555 1_555
C52 C41 1_555 1_555
C53 C43 1_555 1_555
C55 O20 1_555 1_555
C57 N9 1_555 1_555
H50 C57 1_555 1_555
C58 N9 1_555 1_555
H51 C58 1_555 1_555
C59 N10 1_555 1_555
C60 C59 1_555 1_555
C68 C41 1_555 1_555
H56 C60 1_555 1_555
H58 C68 1_555 1_555
H60 O22 1_555 1_555
H61 O24 1_555 1_555
H62 O24 1_555 1_555
Ni6 O3 1_555 1_555
Ni8 O16 1_555 1_555
O27 Ni1 1_555 1_555
O28 Ni3 1_555 1_555
O30 Ni2 1_555 1_555
N13 Ni3 1_555 1_555
N14 Ni1 1_555 1_555
N2 C18 1_555 1_555
N4 C24 1_555 1_555
C5 C34 1_555 1_555
C16 C17 1_555 1_555
C19 C20 1_555 1_555
C22 C23 1_555 1_555
N8 C37 1_555 1_555
C38 C39 1_555 1_555
C39 C40 1_555 1_555
N10 C58 1_555 1_555
C45 C68 1_555 1_555
C51 C55 1_555 1_555
C56 C57 1_555 1_555
O18 C54 1_555 1_555
O30 C54 1_555 1_555
H46 C47 1_555 1_555
C48 C47 1_555 1_555
H47 C48 1_555 1_555
C49 C48 1_555 1_555
C50 C49 1_555 1_555
H48 C50 1_555 1_555
C54 C49 1_555 1_555
H53 C63 1_555 1_555
N11 C61 1_555 1_555
N12 C65 1_555 1_555
C61 C62 1_555 1_555
C62 H52 1_555 1_555
C64 N11 1_555 1_555
C65 C64 1_555 1_555
C66 N11 1_555 1_555
H55 C66 1_555 1_555
H59 C65 1_555 1_555
Ni6 N12 1_555 1_555
N12 C66 1_555 1_555
Ni8 O15_2 1_555 1_555
O14_2 C52_2 1_555 1_555
O15_2 C52_2 1_555 1_555
O21_2 C55_2 1_555 1_555
O25_2 Ni8 1_555 1_555
H40_2 O25_2 1_555 1_555
H41_2 O25_2 1_555 1_555
O26_2 Ni8 1_555 1_555
H42_2 O26_2 1_555 1_555
H43_2 O26_2 1_555 1_555
N9_2 Ni8 1_555 1_555
N10_2 C56_2 1_555 1_555
N11_2 C61_2 1_555 1_555
N14 C65_2 1_555 1_555
C52_2 C41_2 1_555 1_555
C56_2 H49_2 1_555 1_555
C57_2 N9_2 1_555 1_555
H50_2 C57_2 1_555 1_555
C58_2 N9_2 1_555 1_555
H51_2 C58_2 1_555 1_555
C59_2 N10_2 1_555 1_555
C60_2 C59_2 1_555 1_555
C61_2 C62_2 1_555 1_555
C62_2 H52_2 1_555 1_555
C63_2 C59_2 1_555 1_555
H53_2 C63_2 1_555 1_555
C64_2 N11_2 1_555 1_555
H54 C64_2 1_555 1_555
C65_2 C64_2 1_555 1_555
C66_2 N11_2 1_555 1_555
H55_2 C66_2 1_555 1_555
C67 C60_2 1_555 1_555
C68_2 C41_2 1_555 1_555
H56_2 C60_2 1_555 1_555
H57 C67 1_555 1_555
H58_2 C68_2 1_555 1_555
H59_2 C65_2 1_555 1_555
N10_2 C58_2 1_555 1_555
N14 C66_2 1_555 1_555
C56_2 C57_2 1_555 1_555
C61_2 C67 1_555 1_555
C62_2 C63_2 1_555 1_555
H34_2 C38_2 1_555 1_555
H37_2 O22_2 1_555 1_555
H38_2 O23_2 1_555 1_555
H39_2 O23_2 1_555 1_555
N8_2 C35_2 1_555 1_555
C35_2 H32_2 1_555 1_555
C36_2 C35_2 1_555 1_555
C39_2 N8_2 1_555 1_555
H35_2 C40_2 1_555 1_555
H36_2 C36_2 1_555 1_555
O28 C53_2 1_555 1_555
O17_2 C53_2 1_555 1_555
O18_2 C54_2 1_555 1_555
O19 C54_2 1_555 1_555
C42_2 H44_2 1_555 1_555
C43_2 C42_2 1_555 1_555
C44_2 C43_2 1_555 1_555
H45_2 C44_2 1_555 1_555
C45_2 C44_2 1_555 1_555
C46_2 C45_2 1_555 1_555
C47_2 C46_2 1_555 1_555
H46_2 C47_2 1_555 1_555
C48_2 C47_2 1_555 1_555
H47_2 C48_2 1_555 1_555
C49_2 C48_2 1_555 1_555
C50_2 C49_2 1_555 1_555
H48_2 C50_2 1_555 1_555
C51_2 C46_2 1_555 1_555
C53_2 C43_2 1_555 1_555
C54_2 C49_2 1_555 1_555
C39_2 C40_2 1_555 1_555
C50_2 C51_2 1_555 1_555
C37_2 N7_2 1_555 1_555
Ni4 N7_2 1_555 1_555
O24_2 Ni4 1_555 1_555
H61_2 O24_2 1_555 1_555
H62_2 O24_2 1_555 1_555
O11_2 Ni9 1_555 1_555
N1_2 Ni9 1_555 1_555
C18_2 N1_2 1_555 1_555
H29_2 O11_2 1_555 1_555
H30_2 O11_2 1_555 1_555
O27 C13_2 1_555 1_555
O4_2 C13_2 1_555 1_555
O5_2 C14_2 1_555 1_555
O29 C14_2 1_555 1_555
N2_2 C16_2 1_555 1_555
C2_2 H8_2 1_555 1_555
C3_2 C2_2 1_555 1_555
C4_2 C3_2 1_555 1_555
H9_2 C4_2 1_555 1_555
C5_2 C4_2 1_555 1_555
C6_2 C5_2 1_555 1_555
C7_2 C6_2 1_555 1_555
H10_2 C7_2 1_555 1_555
C8_2 C7_2 1_555 1_555
H11_2 C8_2 1_555 1_555
C9_2 C8_2 1_555 1_555
C10_2 C9_2 1_555 1_555
H12_2 C10_2 1_555 1_555
C11_2 C6_2 1_555 1_555
C13_2 C3_2 1_555 1_555
C14_2 C9_2 1_555 1_555
C16_2 H13_2 1_555 1_555
C20_2 N2_2 1_555 1_555
C21_2 C20_2 1_555 1_555
H16_2 C21_2 1_555 1_555
H31_2 C17_2 1_555 1_555
C10_2 C11_2 1_555 1_555
C16_2 C17_2 1_555 1_555
H1_2 O9_2 1_555 1_555
H2_2 O10_2 1_555 1_555
H3_2 O10_2 1_555 1_555
C19_2 H15_2 1_555 1_555
Ni6 O2_2 1_555 1_555
O1_2 C12_2 1_555 1_555
O2_2 C12_2 1_555 1_555
O8_2 C15_2 1_555 1_555
O12_2 Ni6 1_555 1_555
H4_2 O12_2 1_555 1_555
H5_2 O12_2 1_555 1_555
O13_2 Ni6 1_555 1_555
H6_2 O13_2 1_555 1_555
H7_2 O13_2 1_555 1_555
N3_2 Ni6 1_555 1_555
N4_2 C22_2 1_555 1_555
N5_2 C27_2 1_555 1_555
N13 C31_2 1_555 1_555
C12_2 C1_2 1_555 1_555
C22_2 H17_2 1_555 1_555
C23_2 N3_2 1_555 1_555
H18_2 C23_2 1_555 1_555
C24_2 N3_2 1_555 1_555
H19_2 C24_2 1_555 1_555
C25_2 N4_2 1_555 1_555
C26_2 C25_2 1_555 1_555
C27_2 C28_2 1_555 1_555
C28_2 H20_2 1_555 1_555
C29_2 C25_2 1_555 1_555
H21_2 C29_2 1_555 1_555
C30_2 N5_2 1_555 1_555
H22 C30_2 1_555 1_555
C31_2 C30_2 1_555 1_555
C32_2 N5_2 1_555 1_555
H23_2 C32_2 1_555 1_555
C33 C26_2 1_555 1_555
C34_2 C1_2 1_555 1_555
H24_2 C26_2 1_555 1_555
H25 C33 1_555 1_555
H26_2 C34_2 1_555 1_555
H27_2 C31_2 1_555 1_555
N4_2 C24_2 1_555 1_555
N13 C32_2 1_555 1_555
C22_2 C23_2 1_555 1_555
C27_2 C33 1_555 1_555
C28_2 C29_2 1_555 1_555
H25_2 C33_2 1_555 1_555
H57_2 C67_2 1_555 1_555
O18_3 C54_3 1_555 1_555
O19_2 C54_3 1_555 1_555
N11_3 C61_3 1_555 1_555
N12_2 C65_3 1_555 1_555
H46_3 C47_3 1_555 1_555
C48_3 C47_3 1_555 1_555
H47_3 C48_3 1_555 1_555
C49_3 C48_3 1_555 1_555
C50_3 C49_3 1_555 1_555
H48_3 C50_3 1_555 1_555
C54_3 C49_3 1_555 1_555
C61_3 C62_3 1_555 1_555
C62_3 H52_3 1_555 1_555
H53_3 C63_3 1_555 1_555
C64_3 N11_3 1_555 1_555
C65_3 C64_3 1_555 1_555
C66_3 N11_3 1_555 1_555
H55_3 C66_3 1_555 1_555
H59_3 C65_3 1_555 1_555
Ni5 N12_2 1_555 1_555
Ni9_2 O19_2 1_555 1_555
N12_2 C66_3 1_555 1_555
C62_3 C63_3 1_555 1_555
O9_3 Ni9_2 1_555 1_555
H1_3 O9_3 1_555 1_555
O10_3 Ni9_2 1_555 1_555
H2_3 O10_3 1_555 1_555
H3_3 O10_3 1_555 1_555
O11_3 Ni9_2 1_555 1_555
N1_3 Ni9_2 1_555 1_555
C18_3 N1_3 1_555 1_555
H14_3 C18_3 1_555 1_555
C19_3 H15_3 1_555 1_555
H29_3 O11_3 1_555 1_555
H30_3 O11_3 1_555 1_555
N8_3 C35_3 1_555 1_555
C35_3 H32_3 1_555 1_555
C36_3 C35_3 1_555 1_555
C39_3 N8_3 1_555 1_555
C40_3 C19_3 1_555 1_555
H35_3 C40_3 1_555 1_555
H36_3 C36_3 1_555 1_555
Ni3_2 O15_3 1_555 1_555
O14_3 C52_3 1_555 1_555
O15_3 C52_3 1_555 1_555
O16_2 C53_3 1_555 1_555
O17_3 C53_3 1_555 1_555
O21_3 C55_3 1_555 1_555
O25_3 Ni3_2 1_555 1_555
H40_3 O25_3 1_555 1_555
H41_3 O25_3 1_555 1_555
O26_3 Ni3_2 1_555 1_555
H42_3 O26_3 1_555 1_555
H43_3 O26_3 1_555 1_555
N9_3 Ni3_2 1_555 1_555
N10_3 C56_3 1_555 1_555
C41_3 C42_3 1_555 1_555
C42_3 H44_3 1_555 1_555
C43_3 C42_3 1_555 1_555
C44_3 C43_3 1_555 1_555
H45_3 C44_3 1_555 1_555
C45_3 C44_3 1_555 1_555
C46_3 C45_3 1_555 1_555
C51_3 C46_3 1_555 1_555
C52_3 C41_3 1_555 1_555
C53_3 C43_3 1_555 1_555
C55_3 O20_3 1_555 1_555
C57_3 N9_3 1_555 1_555
H50_3 C57_3 1_555 1_555
C58_3 N9_3 1_555 1_555
H51_3 C58_3 1_555 1_555
C59_3 N10_3 1_555 1_555
C60_3 C59_3 1_555 1_555
C67_3 C60_3 1_555 1_555
C68_3 C41_3 1_555 1_555
H56_3 C60_3 1_555 1_555
H57_3 C67_3 1_555 1_555
H58_3 C68_3 1_555 1_555
Ni7 O16_2 1_555 1_555
O28_2 Ni3_2 1_555 1_555
N13_2 Ni3_2 1_555 1_555
C39_3 C40_3 1_555 1_555
N10_3 C58_3 1_555 1_555
C45_3 C68_3 1_555 1_555
C51_3 C55_3 1_555 1_555
C56_3 C57_3 1_555 1_555
Ni1_2 O2_3 1_555 1_555
O1_3 C12_3 1_555 1_555
O2_3 C12_3 1_555 1_555
O3_2 C13_3 1_555 1_555
O4_3 C13_3 1_555 1_555
O7_3 C15_3 1_555 1_555
O8_3 C15_3 1_555 1_555
O12_3 Ni1_2 1_555 1_555
H4_3 O12_3 1_555 1_555
H5_3 O12_3 1_555 1_555
O13_3 Ni1_2 1_555 1_555
H6_3 O13_3 1_555 1_555
H7_3 O13_3 1_555 1_555
N2_3 C16_3 1_555 1_555
N3_3 Ni1_2 1_555 1_555
N4_3 C22_3 1_555 1_555
C1_3 C2_3 1_555 1_555
C2_3 H8_3 1_555 1_555
C3_3 C2_3 1_555 1_555
C4_3 C3_3 1_555 1_555
H9_3 C4_3 1_555 1_555
C5_3 C4_3 1_555 1_555
C6_3 C5_3 1_555 1_555
C11_3 C6_3 1_555 1_555
C12_3 C1_3 1_555 1_555
C13_3 C3_3 1_555 1_555
C15_3 C11_3 1_555 1_555
C16_3 H13_3 1_555 1_555
C20_3 N2_3 1_555 1_555
C21_3 C20_3 1_555 1_555
H16_3 C21_3 1_555 1_555
C23_3 N3_3 1_555 1_555
H18_3 C23_3 1_555 1_555
C24_3 N3_3 1_555 1_555
H19_3 C24_3 1_555 1_555
C25_3 N4_3 1_555 1_555
C26_3 C25_3 1_555 1_555
C33_3 C26_3 1_555 1_555
C34_3 C1_3 1_555 1_555
H24_3 C26_3 1_555 1_555
H25_3 C33_3 1_555 1_555
H26_3 C34_3 1_555 1_555
H31_3 C17_3 1_555 1_555
C37_3 N7_3 1_555 1_555
H33_3 C37_3 1_555 1_555
C38_3 C21_3 1_555 1_555
H34_3 C38_3 1_555 1_555
Ni4_2 N7_3 1_555 1_555
O22_3 Ni4_2 1_555 1_555
H37_3 O22_3 1_555 1_555
O23_3 Ni4_2 1_555 1_555
H38_3 O23_3 1_555 1_555
H39_3 O23_3 1_555 1_555
O24_3 Ni4_2 1_555 1_555
H61_3 O24_3 1_555 1_555
H62_3 O24_3 1_555 1_555
Ni5 O3_2 1_555 1_555
O27_2 Ni1_2 1_555 1_555
O29_2 Ni4_2 1_555 1_555
N14_2 Ni1_2 1_555 1_555
N4_3 C24_3 1_555 1_555
C5_3 C34_3 1_555 1_555
C16_3 C17_3 1_555 1_555
C22_3 C23_3 1_555 1_555
O5_3 C14_3 1_555 1_555
O29_2 C14_3 1_555 1_555
N5_3 C27_3 1_555 1_555
N6_2 C31_3 1_555 1_555
H10_3 C7_3 1_555 1_555
C8_3 C7_3 1_555 1_555
H11_3 C8_3 1_555 1_555
C9_3 C8_3 1_555 1_555
C10_3 C9_3 1_555 1_555
H12_3 C10_3 1_555 1_555
C14_3 C9_3 1_555 1_555
C27_3 C28_3 1_555 1_555
C28_3 H20_3 1_555 1_555
H21_3 C29_3 1_555 1_555
C30_3 N5_3 1_555 1_555
C31_3 C30_3 1_555 1_555
C32_3 N5_3 1_555 1_555
H23_3 C32_3 1_555 1_555
H27_3 C31_3 1_555 1_555
Ni7 N6_2 1_555 1_555
N6_2 C32_3 1_555 1_555
C28_3 C29_3 1_555 1_555
Ni2_2 O7_4 1_555 1_555
O27_2 C13_4 1_555 1_555
O4_4 C13_4 1_555 1_555
O5_4 C14_4 1_555 1_555
O6_2 C14_4 1_555 1_555
O11_4 Ni2_2 1_555 1_555
N1_4 Ni2_2 1_555 1_555
N2_4 C16_4 1_555 1_555
C2_4 H8_4 1_555 1_555
C3_4 C2_4 1_555 1_555
C4_4 C3_4 1_555 1_555
H9_4 C4_4 1_555 1_555
C5_4 C4_4 1_555 1_555
C6_4 C5_4 1_555 1_555
C7_4 C6_4 1_555 1_555
H10_4 C7_4 1_555 1_555
C8_4 C7_4 1_555 1_555
H11_4 C8_4 1_555 1_555
C9_4 C8_4 1_555 1_555
C10_4 C9_4 1_555 1_555
H12_4 C10_4 1_555 1_555
C11_4 C6_4 1_555 1_555
C13_4 C3_4 1_555 1_555
C14_4 C9_4 1_555 1_555
C16_4 H13_4 1_555 1_555
C17_4 N1_4 1_555 1_555
C18_4 N1_4 1_555 1_555
C20_4 N2_4 1_555 1_555
C21_4 C20_4 1_555 1_555
H16_4 C21_4 1_555 1_555
H29_4 O11_4 1_555 1_555
H30_4 O11_4 1_555 1_555
H31_4 C17_4 1_555 1_555
N2_4 C18_4 1_555 1_555
C10_4 C11_4 1_555 1_555
C16_4 C17_4 1_555 1_555
N5_4 C27_4 1_555 1_555
N13_2 C31_4 1_555 1_555
C27_4 C28_4 1_555 1_555
C28_4 H20_4 1_555 1_555
C30_4 N5_4 1_555 1_555
H22_4 C30_4 1_555 1_555
C31_4 C30_4 1_555 1_555
C32_4 N5_4 1_555 1_555
H23_4 C32_4 1_555 1_555
H25_4 C33_4 1_555 1_555
H27_4 C31_4 1_555 1_555
N13_2 C32_4 1_555 1_555
C27_4 C33_4 1_555 1_555
Ni5 O2_4 1_555 1_555
O1_4 C12_4 1_555 1_555
O2_4 C12_4 1_555 1_555
O8_4 C15_4 1_555 1_555
H1_4 O9_4 1_555 1_555
H2_4 O10_4 1_555 1_555
H3_4 O10_4 1_555 1_555
O12_4 Ni5 1_555 1_555
H4_4 O12_4 1_555 1_555
H5_4 O12_4 1_555 1_555
O13_4 Ni5 1_555 1_555
H6_4 O13_4 1_555 1_555
H7_4 O13_4 1_555 1_555
N3_4 Ni5 1_555 1_555
N4_4 C22_4 1_555 1_555
C12_4 C1_4 1_555 1_555
C19_4 H15_4 1_555 1_555
C22_4 H17_4 1_555 1_555
C23_4 N3_4 1_555 1_555
H18_4 C23_4 1_555 1_555
C24_4 N3_4 1_555 1_555
H19_4 C24_4 1_555 1_555
C25_4 N4_4 1_555 1_555
C26_4 C25_4 1_555 1_555
C29_4 C25_4 1_555 1_555
H21_4 C29_4 1_555 1_555
C34_4 C1_4 1_555 1_555
H24_4 C26_4 1_555 1_555
H26_4 C34_4 1_555 1_555
H28_4 O9_4 1_555 1_555
N4_4 C24_4 1_555 1_555
C22_4 C23_4 1_555 1_555
H34_4 C38_4 1_555 1_555
Ni7 O15_4 1_555 1_555
O14_4 C52_4 1_555 1_555
O15_4 C52_4 1_555 1_555
O21_4 C55_4 1_555 1_555
H37_4 O22_4 1_555 1_555
H38_4 O23_4 1_555 1_555
H39_4 O23_4 1_555 1_555
O25_4 Ni7 1_555 1_555
H40_4 O25_4 1_555 1_555
H41_4 O25_4 1_555 1_555
O26_4 Ni7 1_555 1_555
H42_4 O26_4 1_555 1_555
H43_4 O26_4 1_555 1_555
N9_4 Ni7 1_555 1_555
N10_4 C56_4 1_555 1_555
C52_4 C41_4 1_555 1_555
C56_4 H49_4 1_555 1_555
C57_4 N9_4 1_555 1_555
H50_4 C57_4 1_555 1_555
C58_4 N9_4 1_555 1_555
H51_4 C58_4 1_555 1_555
C59_4 N10_4 1_555 1_555
C60_4 C59_4 1_555 1_555
C63_4 C59_4 1_555 1_555
H53_4 C63_4 1_555 1_555
C68_4 C41_4 1_555 1_555
H56_4 C60_4 1_555 1_555
H58_4 C68_4 1_555 1_555
H60_4 O22_4 1_555 1_555
N10_4 C58_4 1_555 1_555
C56_4 C57_4 1_555 1_555
N11_4 C61_4 1_555 1_555
N14_2 C65_4 1_555 1_555
C61_4 C62_4 1_555 1_555
C62_4 H52_4 1_555 1_555
C64_4 N11_4 1_555 1_555
H54_4 C64_4 1_555 1_555
C65_4 C64_4 1_555 1_555
C66_4 N11_4 1_555 1_555
H55_4 C66_4 1_555 1_555
H57_4 C67_4 1_555 1_555
H59_4 C65_4 1_555 1_555
N14_2 C66_4 1_555 1_555
C61_4 C67_4 1_555 1_555
N7_4 C36_4 1_555 1_555
N8_4 C35_4 1_555 1_555
C35_4 H32_4 1_555 1_555
C36_4 C35_4 1_555 1_555
C37_4 N7_4 1_555 1_555
C39_4 N8_4 1_555 1_555
H35_4 C40_4 1_555 1_555
H36_4 C36_4 1_555 1_555
Ni10_2 N7_4 1_555 1_555
O28_2 C53_4 1_555 1_555
O17_4 C53_4 1_555 1_555
O18_4 C54_4 1_555 1_555
O30_2 C54_4 1_555 1_555
O20_4 Ni10_2 1_555 1_555
O24_4 Ni10_2 1_555 1_555
C42_4 H44_4 1_555 1_555
C43_4 C42_4 1_555 1_555
C44_4 C43_4 1_555 1_555
H45_4 C44_4 1_555 1_555
C45_4 C44_4 1_555 1_555
C46_4 C45_4 1_555 1_555
C47_4 C46_4 1_555 1_555
H46_4 C47_4 1_555 1_555
C48_4 C47_4 1_555 1_555
H47_4 C48_4 1_555 1_555
C49_4 C48_4 1_555 1_555
C50_4 C49_4 1_555 1_555
H48_4 C50_4 1_555 1_555
C51_4 C46_4 1_555 1_555
C53_4 C43_4 1_555 1_555
C54_4 C49_4 1_555 1_555
H61_4 O24_4 1_555 1_555
H62_4 O24_4 1_555 1_555
N8_4 C37_4 1_555 1_555
C39_4 C40_4 1_555 1_555
C50_4 C51_4 1_555 1_555

#END
