
###############################################################################
#
# This file contains modified crystal structure data generated from the
# MOF subset of the Cambridge Structural Database (CSD) v543 
# hosted by the Cambridge Crystallographic Data Centre (CCDC).
#
# This work is licensed under the Creative Commons
# Attribution-NonCommercial-ShareAlike 4.0 International License.
# To view a copy of this license, visit
# http://creativecommons.org/licenses/by-nc-sa/4.0/
# or send a letter to
# Creative Commons, PO Box 1866, Mountain View, CA 94042, USA.
#
# CIF created using the CSD Python API on 29 September 2022
# The structure has been converted into the P1 space group
# The structure has a 3D framework
# The original CSD entry ZOXTOX is in the monoclinic crystal system
# The framework has been calculated to contain at least 10.0% void space
# The void calculation uses a probe of radius 1.32A, grid spacing 0.4
#
###############################################################################

data_ZOXTOX
_chemical_formula_moiety         '(C96 H88 N32 O80 Yb8 Zn8)n'
_symmetry_cell_setting           triclinic
_symmetry_space_group_name_H-M   'P 1'
_symmetry_Int_Tables_number      1
_space_group_name_Hall           'P 1'
loop_
_symmetry_equiv_pos_site_id
_symmetry_equiv_pos_as_xyz
1 x,y,z
_cell_length_a                   24.1744(13)
_cell_length_b                   9.1789(5)
_cell_length_c                   18.9734(10)
_cell_angle_alpha                90
_cell_angle_beta                 114.0500(10)
_cell_angle_gamma                90
_cell_volume                     3844.61
loop_
_atom_site_label
_atom_site_type_symbol
_atom_site_fract_x
_atom_site_fract_y
_atom_site_fract_z
Zn3 Zn 0.787405(19) 0.00868(5) 0.66325(2)
Yb1 Yb 0.542120(6) 0.693092(16) 0.495871(9)
Zn1 Zn 0.712595(19) 0.49132(5) 0.33675(2)
O1 O 0.61579(15) 0.6496(3) 0.4596(2)
O2 O 0.66533(15) 0.6360(3) 0.38426(19)
O3 O 0.54675(11) 0.4330(3) 0.49615(15)
O4 O 0.53977(14) 0.1968(3) 0.4806(2)
O5 O 0.60706(13) 0.8756(3) 0.55526(17)
O6 O 0.69424(13) 0.9804(3) 0.57288(16)
O7 O 0.57670(12) 0.6293(3) 0.62139(16)
O8 O 0.62069(13) 0.5411(3) 0.73975(17)
O9 O 0.51907(15) 0.9074(3) 0.41891(18)
H1 H 0.5435 0.9734 0.4430
H2 H 0.4836 0.9343 0.4097
O10 O 0.48243(14) 0.6311(3) 0.37021(17)
H3 H 0.4620 0.5570 0.3701
H4 H 0.5040 0.6129 0.3461
N1 N 0.68517(15) 0.3504(4) 0.40524(19)
N2 N 0.64286(18) 0.1830(4) 0.4495(2)
H5 H 0.6340 0.0968 0.4625
N3 N 0.75706(15) 0.8301(4) 0.70335(19)
N4 N 0.72864(15) 0.6618(4) 0.76654(19)
C1 C 0.64129(17) 0.5787(4) 0.4240(2)
C2 C 0.64540(16) 0.4172(4) 0.4304(2)
C3 C 0.61803(19) 0.3130(4) 0.4578(2)
C4 C 0.56592(18) 0.3155(4) 0.4793(2)
C5 C 0.6831(2) 0.2088(4) 0.4183(3)
C6 C 0.7187(2) 0.0932(6) 0.4006(3)
H6 H 0.7573 0.1317 0.4069
H7 H 0.6971 0.0608 0.3484
H8 H 0.7245 0.0127 0.4352
C7 C 0.66376(17) 0.8894(4) 0.5913(2)
C8 C 0.69667(17) 0.8012(4) 0.6613(2)
C9 C 0.67933(17) 0.6960(4) 0.7009(2)
C10 C 0.62204(17) 0.6186(4) 0.6866(2)
C11 C 0.77447(17) 0.7429(4) 0.7654(2)
C12 C 0.8370(2) 0.7411(7) 0.8265(3)
H9 H 0.8654 0.7313 0.8032
H10 H 0.8414 0.6604 0.8606
H11 H 0.8446 0.8304 0.8553
Yb2 Yb 0.457880(6) 0.306908(16) 0.504129(9)
Zn2 Zn 0.712595(19) 0.50868(5) 0.83675(2)
O11 O 0.45325(11) 0.5670(3) 0.50385(15)
O12 O 0.46023(14) 0.8032(3) 0.5194(2)
O13 O 0.80576(13) 0.5196(3) 0.42712(16)
O14 O 0.62069(13) 0.4589(3) 0.23975(17)
N5 N 0.74294(15) 0.6699(4) 0.29665(19)
N6 N 0.72864(15) 0.3382(4) 0.26654(19)
Zn3_2 Zn 0.212595(19) 0.00868(5) 0.83675(2)
Yb1_2 Yb 0.457880(6) 0.693092(16) 0.004129(9)
Zn1_2 Zn 0.287405(19) 0.49132(5) 0.16325(2)
O1_2 O 0.38421(15) 0.6496(3) 0.0404(2)
O2_2 O 0.33467(15) 0.6360(3) 0.11574(19)
O3_2 O 0.45325(11) 0.4330(3) 0.00385(15)
O4_2 O 0.46023(14) 0.1968(3) 0.0194(2)
O9_2 O 0.48093(15) 0.9074(3) 0.08109(18)
H1_2 H 0.4565 0.9734 0.0570
H2_2 H 0.5164 0.9343 0.0903
O10_2 O 0.51757(14) 0.6311(3) 0.12979(17)
H3_2 H 0.5380 0.5570 0.1299
H4_2 H 0.4960 0.6129 0.1539
N1_2 N 0.31483(15) 0.3504(4) 0.09476(19)
N2_2 N 0.35714(18) 0.1830(4) 0.0505(2)
H5_2 H 0.3660 0.0968 0.0375
C1_2 C 0.35871(17) 0.5787(4) 0.0760(2)
C2_2 C 0.35460(16) 0.4172(4) 0.0696(2)
C3_2 C 0.38197(19) 0.3130(4) 0.0422(2)
C4_2 C 0.43408(18) 0.3155(4) 0.0207(2)
C5_2 C 0.3169(2) 0.2088(4) 0.0817(3)
C6_2 C 0.2813(2) 0.0932(6) 0.0994(3)
H6_2 H 0.2427 0.1317 0.0931
H7_2 H 0.3029 0.0608 0.1516
H8_2 H 0.2755 0.0127 0.0648
O13_2 O 0.19424(13) 0.5196(3) 0.07288(16)
O14_2 O 0.37931(13) 0.4589(3) 0.26025(17)
N5_2 N 0.25706(15) 0.6699(4) 0.20335(19)
N6_2 N 0.27136(15) 0.3382(4) 0.23346(19)
O5_2 O 0.39294(13) 0.8756(3) 0.94474(17)
O6_2 O 0.30576(13) 0.9804(3) 0.92712(16)
O7_2 O 0.42330(12) 0.6293(3) 0.87861(16)
O8_2 O 0.37931(13) 0.5411(3) 0.76025(17)
N3_2 N 0.24294(15) 0.8301(4) 0.79665(19)
N4_2 N 0.27136(15) 0.6618(4) 0.73346(19)
C7_2 C 0.33624(17) 0.8894(4) 0.9087(2)
C8_2 C 0.30333(17) 0.8012(4) 0.8387(2)
C9_2 C 0.32067(17) 0.6960(4) 0.7991(2)
C10_2 C 0.37796(17) 0.6186(4) 0.8134(2)
C11_2 C 0.22553(17) 0.7429(4) 0.7346(2)
C12_2 C 0.1630(2) 0.7411(7) 0.6735(3)
H9_2 H 0.1346 0.7313 0.6968
H10_2 H 0.1586 0.6604 0.6394
H11_2 H 0.1554 0.8304 0.6447
Yb2_2 Yb 0.542120(6) 0.306908(16) 0.995871(9)
Zn2_2 Zn 0.287405(19) 0.50868(5) 0.66325(2)
O11_2 O 0.54675(11) 0.5670(3) 0.99615(15)
O12_2 O 0.53977(14) 0.8032(3) 0.9806(2)
Yb1_3 Yb 0.042120(6) 0.193092(16) 0.495871(9)
O1_3 O 0.11579(15) 0.1496(3) 0.4596(2)
O2_3 O 0.16533(15) 0.1360(3) 0.38426(19)
O5_3 O 0.10706(13) 0.3756(3) 0.55526(17)
O6_3 O 0.19424(13) 0.4804(3) 0.57288(16)
O7_3 O 0.07670(12) 0.1293(3) 0.62139(16)
O8_3 O 0.12069(13) 0.0411(3) 0.73975(17)
O9_3 O 0.01907(15) 0.4074(3) 0.41891(18)
H1_3 H 0.0435 0.4734 0.4430
H4_3 H 0.0040 0.1129 0.3461
N3_3 N 0.25706(15) 0.3301(4) 0.70335(19)
N4_3 N 0.22864(15) 0.1618(4) 0.76654(19)
C1_3 C 0.14129(17) 0.0787(4) 0.4240(2)
C7_3 C 0.16376(17) 0.3894(4) 0.5913(2)
C8_3 C 0.19667(17) 0.3012(4) 0.6613(2)
C9_3 C 0.17933(17) 0.1960(4) 0.7009(2)
C10_3 C 0.12204(17) 0.1186(4) 0.6866(2)
C11_3 C 0.27447(17) 0.2429(4) 0.7654(2)
C12_3 C 0.3370(2) 0.2411(7) 0.8265(3)
H9_3 H 0.3654 0.2313 0.8032
H10_3 H 0.3414 0.1604 0.8606
H11_3 H 0.3446 0.3304 0.8553
O13_3 O 0.30576(13) 0.0196(3) 0.42712(16)
N5_3 N 0.24294(15) 0.1699(4) 0.29665(19)
Zn1_3 Zn 0.212595(19) 0.99132(5) 0.33675(2)
O3_3 O 0.04675(11) 0.9330(3) 0.49615(15)
O4_3 O 0.03977(14) 0.6968(3) 0.4806(2)
N1_3 N 0.18517(15) 0.8504(4) 0.40524(19)
N2_3 N 0.14286(18) 0.6830(4) 0.4495(2)
H5_3 H 0.1340 0.5968 0.4625
C2_3 C 0.14540(16) 0.9172(4) 0.4304(2)
C3_3 C 0.11803(19) 0.8130(4) 0.4578(2)
C4_3 C 0.06592(18) 0.8155(4) 0.4793(2)
C5_3 C 0.1831(2) 0.7088(4) 0.4183(3)
C6_3 C 0.2187(2) 0.5932(6) 0.4006(3)
H6_3 H 0.2573 0.6317 0.4069
H7_3 H 0.1971 0.5608 0.3484
H8_3 H 0.2245 0.5127 0.4352
O14_3 O 0.12069(13) 0.9589(3) 0.23975(17)
N6_3 N 0.22864(15) 0.8382(4) 0.26654(19)
H2_3 H 0.9836 0.4343 0.4097
O10_3 O 0.98243(14) 0.1311(3) 0.37021(17)
H3_3 H 0.9620 0.0570 0.3701
O11_3 O 0.95325(11) 0.0670(3) 0.50385(15)
O12_3 O 0.96023(14) 0.3032(3) 0.5194(2)
Yb2_3 Yb 0.957880(6) 0.806908(16) 0.504129(9)
O11_4 O 0.04675(11) 0.0670(3) 0.99615(15)
O12_4 O 0.03977(14) 0.3032(3) 0.9806(2)
Yb2_4 Yb 0.042120(6) 0.806908(16) 0.995871(9)
Yb1_4 Yb 0.957880(6) 0.193092(16) 0.004129(9)
O1_4 O 0.88421(15) 0.1496(3) 0.0404(2)
O2_4 O 0.83467(15) 0.1360(3) 0.11574(19)
O9_4 O 0.98093(15) 0.4074(3) 0.08109(18)
H1_4 H 0.9565 0.4734 0.0570
H4_4 H 0.9960 0.1129 0.1539
C1_4 C 0.85871(17) 0.0787(4) 0.0760(2)
O13_4 O 0.69424(13) 0.0196(3) 0.07288(16)
N5_4 N 0.75706(15) 0.1699(4) 0.20335(19)
O5_4 O 0.89294(13) 0.3756(3) 0.94474(17)
O6_4 O 0.80576(13) 0.4804(3) 0.92712(16)
O7_4 O 0.92330(12) 0.1293(3) 0.87861(16)
O8_4 O 0.87931(13) 0.0411(3) 0.76025(17)
N3_4 N 0.74294(15) 0.3301(4) 0.79665(19)
N4_4 N 0.77136(15) 0.1618(4) 0.73346(19)
C7_4 C 0.83624(17) 0.3894(4) 0.9087(2)
C8_4 C 0.80333(17) 0.3012(4) 0.8387(2)
C9_4 C 0.82067(17) 0.1960(4) 0.7991(2)
C10_4 C 0.87796(17) 0.1186(4) 0.8134(2)
C11_4 C 0.72553(17) 0.2429(4) 0.7346(2)
C12_4 C 0.6630(2) 0.2411(7) 0.6735(3)
H9_4 H 0.6346 0.2313 0.6968
H10_4 H 0.6586 0.1604 0.6394
H11_4 H 0.6554 0.3304 0.6447
Zn1_4 Zn 0.787405(19) 0.99132(5) 0.16325(2)
O3_4 O 0.95325(11) 0.9330(3) 0.00385(15)
O4_4 O 0.96023(14) 0.6968(3) 0.0194(2)
N1_4 N 0.81483(15) 0.8504(4) 0.09476(19)
N2_4 N 0.85714(18) 0.6830(4) 0.0505(2)
H5_4 H 0.8660 0.5968 0.0375
C2_4 C 0.85460(16) 0.9172(4) 0.0696(2)
C3_4 C 0.88197(19) 0.8130(4) 0.0422(2)
C4_4 C 0.93408(18) 0.8155(4) 0.0207(2)
C5_4 C 0.8169(2) 0.7088(4) 0.0817(3)
C6_4 C 0.7813(2) 0.5932(6) 0.0994(3)
H6_4 H 0.7427 0.6317 0.0931
H7_4 H 0.8029 0.5608 0.1516
H8_4 H 0.7755 0.5127 0.0648
O14_4 O 0.87931(13) 0.9589(3) 0.26025(17)
N6_4 N 0.77136(15) 0.8382(4) 0.23346(19)
O1_5 O 0.38421(15) 0.3504(3) 0.5404(2)
O2_5 O 0.33467(15) 0.3640(3) 0.61574(19)
O5_5 O 0.39294(13) 0.1244(3) 0.44474(17)
O7_5 O 0.42330(12) 0.3707(3) 0.37861(16)
O9_5 O 0.48093(15) 0.0926(3) 0.58109(18)
H1_5 H 0.4565 0.0266 0.5570
H2_4 H 0.5164 0.0657 0.5903
O10_4 O 0.51757(14) 0.3689(3) 0.62979(17)
H3_4 H 0.5380 0.4430 0.6299
H4_5 H 0.4960 0.3871 0.6539
N1_5 N 0.31483(15) 0.6496(4) 0.59476(19)
N2_5 N 0.35714(18) 0.8170(4) 0.5505(2)
H5_5 H 0.3660 0.9032 0.5375
C1_5 C 0.35871(17) 0.4213(4) 0.5760(2)
C2_5 C 0.35460(16) 0.5828(4) 0.5696(2)
C3_5 C 0.38197(19) 0.6870(4) 0.5422(2)
C4_5 C 0.43408(18) 0.6845(4) 0.5207(2)
C5_5 C 0.3169(2) 0.7912(4) 0.5817(3)
C6_5 C 0.2813(2) 0.9068(6) 0.5994(3)
H6_5 H 0.2427 0.8683 0.5931
H7_5 H 0.3029 0.9392 0.6516
H8_5 H 0.2755 0.9873 0.5648
C7_5 C 0.33624(17) 0.1106(4) 0.4087(2)
C8_5 C 0.30333(17) 0.1988(4) 0.3387(2)
C9_5 C 0.32067(17) 0.3040(4) 0.2991(2)
C10_5 C 0.37796(17) 0.3814(4) 0.3134(2)
C11_5 C 0.22553(17) 0.2571(4) 0.2346(2)
C12_5 C 0.1630(2) 0.2589(7) 0.1735(3)
H9_5 H 0.1346 0.2687 0.1968
H10_5 H 0.1586 0.3396 0.1394
H11_5 H 0.1554 0.1696 0.1447
O5_6 O 0.60706(13) 0.1244(3) 0.05526(17)
O7_6 O 0.57670(12) 0.3707(3) 0.12139(16)
C7_6 C 0.66376(17) 0.1106(4) 0.0913(2)
C8_6 C 0.69667(17) 0.1988(4) 0.1613(2)
C9_6 C 0.67933(17) 0.3040(4) 0.2009(2)
C10_6 C 0.62204(17) 0.3814(4) 0.1866(2)
C11_6 C 0.77447(17) 0.2571(4) 0.2654(2)
C12_6 C 0.8370(2) 0.2589(7) 0.3265(3)
H9_6 H 0.8654 0.2687 0.3032
H10_6 H 0.8414 0.3396 0.3606
H11_6 H 0.8446 0.1696 0.3553
O1_6 O 0.61579(15) 0.3504(3) 0.9596(2)
O2_6 O 0.66533(15) 0.3640(3) 0.88426(19)
O9_6 O 0.51907(15) 0.0926(3) 0.91891(18)
H1_6 H 0.5435 0.0266 0.9430
H2_5 H 0.4836 0.0657 0.9097
O10_5 O 0.48243(14) 0.3689(3) 0.87021(17)
H3_5 H 0.4620 0.4430 0.8701
H4_6 H 0.5040 0.3871 0.8461
N1_6 N 0.68517(15) 0.6496(4) 0.90524(19)
N2_6 N 0.64286(18) 0.8170(4) 0.9495(2)
H5_6 H 0.6340 0.9032 0.9625
C1_6 C 0.64129(17) 0.4213(4) 0.9240(2)
C2_6 C 0.64540(16) 0.5828(4) 0.9304(2)
C3_6 C 0.61803(19) 0.6870(4) 0.9578(2)
C4_6 C 0.56592(18) 0.6845(4) 0.9793(2)
C5_6 C 0.6831(2) 0.7912(4) 0.9183(3)
C6_6 C 0.7187(2) 0.9068(6) 0.9006(3)
H6_6 H 0.7573 0.8683 0.9069
H7_6 H 0.6971 0.9392 0.8484
H8_6 H 0.7245 0.9873 0.9352
H2_6 H 0.0164 0.5657 0.5903
O10_6 O 0.01757(14) 0.8689(3) 0.62979(17)
H3_6 H 0.0380 0.9430 0.6299
N1_7 N 0.81483(15) 0.1496(4) 0.59476(19)
N2_7 N 0.85714(18) 0.3170(4) 0.5505(2)
H5_7 H 0.8660 0.4032 0.5375
C2_7 C 0.85460(16) 0.0828(4) 0.5696(2)
C3_7 C 0.88197(19) 0.1870(4) 0.5422(2)
C4_7 C 0.93408(18) 0.1845(4) 0.5207(2)
C5_7 C 0.8169(2) 0.2912(4) 0.5817(3)
C6_7 C 0.7813(2) 0.4068(6) 0.5994(3)
H6_7 H 0.7427 0.3683 0.5931
H7_7 H 0.8029 0.4392 0.6516
H8_7 H 0.7755 0.4873 0.5648
O1_7 O 0.88421(15) 0.8504(3) 0.5404(2)
O2_7 O 0.83467(15) 0.8640(3) 0.61574(19)
O5_7 O 0.89294(13) 0.6244(3) 0.44474(17)
O7_7 O 0.92330(12) 0.8707(3) 0.37861(16)
O9_7 O 0.98093(15) 0.5926(3) 0.58109(18)
H1_7 H 0.9565 0.5266 0.5570
H4_7 H 0.9960 0.8871 0.6539
C1_7 C 0.85871(17) 0.9213(4) 0.5760(2)
C7_7 C 0.83624(17) 0.6106(4) 0.4087(2)
C8_7 C 0.80333(17) 0.6988(4) 0.3387(2)
C9_7 C 0.82067(17) 0.8040(4) 0.2991(2)
C10_7 C 0.87796(17) 0.8814(4) 0.3134(2)
C11_7 C 0.72553(17) 0.7571(4) 0.2346(2)
C12_7 C 0.6630(2) 0.7589(7) 0.1735(3)
H9_7 H 0.6346 0.7687 0.1968
H10_7 H 0.6586 0.8396 0.1394
H11_7 H 0.6554 0.6696 0.1447
N1_8 N 0.18517(15) 0.1496(4) 0.90524(19)
N2_8 N 0.14286(18) 0.3170(4) 0.9495(2)
H5_8 H 0.1340 0.4032 0.9625
C2_8 C 0.14540(16) 0.0828(4) 0.9304(2)
C3_8 C 0.11803(19) 0.1870(4) 0.9578(2)
C4_8 C 0.06592(18) 0.1845(4) 0.9793(2)
C5_8 C 0.1831(2) 0.2912(4) 0.9183(3)
C6_8 C 0.2187(2) 0.4068(6) 0.9006(3)
H6_8 H 0.2573 0.3683 0.9069
H7_8 H 0.1971 0.4392 0.8484
H8_8 H 0.2245 0.4873 0.9352
O5_8 O 0.10706(13) 0.6244(3) 0.05526(17)
O7_8 O 0.07670(12) 0.8707(3) 0.12139(16)
C7_8 C 0.16376(17) 0.6106(4) 0.0913(2)
C8_8 C 0.19667(17) 0.6988(4) 0.1613(2)
C9_8 C 0.17933(17) 0.8040(4) 0.2009(2)
C10_8 C 0.12204(17) 0.8814(4) 0.1866(2)
C11_8 C 0.27447(17) 0.7571(4) 0.2654(2)
C12_8 C 0.3370(2) 0.7589(7) 0.3265(3)
H9_8 H 0.3654 0.7687 0.3032
H10_8 H 0.3414 0.8396 0.3606
H11_8 H 0.3446 0.6696 0.3553
O1_8 O 0.11579(15) 0.8504(3) 0.9596(2)
O2_8 O 0.16533(15) 0.8640(3) 0.88426(19)
O9_8 O 0.01907(15) 0.5926(3) 0.91891(18)
H1_8 H 0.0435 0.5266 0.9430
H4_8 H 0.0040 0.8871 0.8461
C1_8 C 0.14129(17) 0.9213(4) 0.9240(2)
H2_7 H 0.0164 0.4343 0.0903
O10_7 O 0.01757(14) 0.1311(3) 0.12979(17)
H3_7 H 0.0380 0.0570 0.1299
H2_8 H 0.9836 0.5657 0.9097
O10_8 O 0.98243(14) 0.8689(3) 0.87021(17)
H3_8 H 0.9620 0.9430 0.8701
loop_
_geom_bond_atom_site_label_1
_geom_bond_atom_site_label_2
_geom_bond_site_symmetry_1
_geom_bond_site_symmetry_2
Yb1 O1 1_555 1_555
Zn1 O2 1_555 1_555
O1 C1 1_555 1_555
O2 C1 1_555 1_555
O3 Yb1 1_555 1_555
O4 C4 1_555 1_555
O5 Yb1 1_555 1_555
O6 C7 1_555 1_555
O7 Yb1 1_555 1_555
O8 C10 1_555 1_555
O9 Yb1 1_555 1_555
H1 O9 1_555 1_555
H2 O9 1_555 1_555
O10 Yb1 1_555 1_555
H3 O10 1_555 1_555
H4 O10 1_555 1_555
N1 Zn1 1_555 1_555
N2 H5 1_555 1_555
N3 C8 1_555 1_555
N4 C9 1_555 1_555
C1 C2 1_555 1_555
C2 N1 1_555 1_555
C3 N2 1_555 1_555
C4 O3 1_555 1_555
C5 N1 1_555 1_555
C6 C5 1_555 1_555
H6 C6 1_555 1_555
H7 C6 1_555 1_555
H8 C6 1_555 1_555
C7 O5 1_555 1_555
C8 C7 1_555 1_555
C9 C8 1_555 1_555
C10 O7 1_555 1_555
C11 N3 1_555 1_555
C12 C11 1_555 1_555
H9 C12 1_555 1_555
H10 C12 1_555 1_555
H11 C12 1_555 1_555
Yb2 O3 1_555 1_555
Zn2 O8 1_555 1_555
O11 Yb1 1_555 1_555
O12 Yb1 1_555 1_555
O13 Zn1 1_555 1_555
O14 Zn1 1_555 1_555
N5 Zn1 1_555 1_555
N6 Zn1 1_555 1_555
O4 Yb2 1_555 1_555
N2 C5 1_555 1_555
N4 C11 1_555 1_555
N4 Zn2 1_555 1_555
C2 C3 1_555 1_555
C3 C4 1_555 1_555
C9 C10 1_555 1_555
Yb2 O11 1_555 1_555
Yb1_2 O1_2 1_555 1_555
Zn1_2 O2_2 1_555 1_555
O1_2 C1_2 1_555 1_555
O2_2 C1_2 1_555 1_555
O3_2 Yb1_2 1_555 1_555
O4_2 C4_2 1_555 1_555
O9_2 Yb1_2 1_555 1_555
H1_2 O9_2 1_555 1_555
H2_2 O9_2 1_555 1_555
O10_2 Yb1_2 1_555 1_555
H3_2 O10_2 1_555 1_555
H4_2 O10_2 1_555 1_555
N1_2 Zn1_2 1_555 1_555
N2_2 H5_2 1_555 1_555
C1_2 C2_2 1_555 1_555
C2_2 N1_2 1_555 1_555
C3_2 N2_2 1_555 1_555
C4_2 O3_2 1_555 1_555
C5_2 N1_2 1_555 1_555
C6_2 C5_2 1_555 1_555
H6_2 C6_2 1_555 1_555
H7_2 C6_2 1_555 1_555
H8_2 C6_2 1_555 1_555
O13_2 Zn1_2 1_555 1_555
O14_2 Zn1_2 1_555 1_555
N5_2 Zn1_2 1_555 1_555
N6_2 Zn1_2 1_555 1_555
N2_2 C5_2 1_555 1_555
C2_2 C3_2 1_555 1_555
C3_2 C4_2 1_555 1_555
O6_2 C7_2 1_555 1_555
O8_2 C10_2 1_555 1_555
N3_2 C8_2 1_555 1_555
N4_2 C9_2 1_555 1_555
C7_2 O5_2 1_555 1_555
C8_2 C7_2 1_555 1_555
C9_2 C8_2 1_555 1_555
C10_2 O7_2 1_555 1_555
C11_2 N3_2 1_555 1_555
C12_2 C11_2 1_555 1_555
H9_2 C12_2 1_555 1_555
H10_2 C12_2 1_555 1_555
H11_2 C12_2 1_555 1_555
Zn2_2 O8_2 1_555 1_555
N4_2 C11_2 1_555 1_555
N4_2 Zn2_2 1_555 1_555
C9_2 C10_2 1_555 1_555
Yb2_2 O11_2 1_555 1_555
Yb1_3 O1_3 1_555 1_555
O1_3 C1_3 1_555 1_555
O2_3 C1_3 1_555 1_555
O5_3 Yb1_3 1_555 1_555
O6_3 C7_3 1_555 1_555
O7_3 Yb1_3 1_555 1_555
O8_3 C10_3 1_555 1_555
O9_3 Yb1_3 1_555 1_555
H1_3 O9_3 1_555 1_555
N3_3 C8_3 1_555 1_555
N4_3 C9_3 1_555 1_555
C7_3 O5_3 1_555 1_555
C8_3 C7_3 1_555 1_555
C9_3 C8_3 1_555 1_555
C10_3 O7_3 1_555 1_555
C11_3 N3_3 1_555 1_555
C12_3 C11_3 1_555 1_555
H9_3 C12_3 1_555 1_555
H10_3 C12_3 1_555 1_555
H11_3 C12_3 1_555 1_555
Zn3_2 O8_3 1_555 1_555
Zn2_2 O6_3 1_555 1_555
N3_3 Zn2_2 1_555 1_555
N4_3 C11_3 1_555 1_555
N4_3 Zn3_2 1_555 1_555
C9_3 C10_3 1_555 1_555
O4_3 C4_3 1_555 1_555
N1_3 Zn1_3 1_555 1_555
N2_3 H5_3 1_555 1_555
C2_3 N1_3 1_555 1_555
C3_3 N2_3 1_555 1_555
C4_3 O3_3 1_555 1_555
C5_3 N1_3 1_555 1_555
C6_3 C5_3 1_555 1_555
H6_3 C6_3 1_555 1_555
H7_3 C6_3 1_555 1_555
H8_3 C6_3 1_555 1_555
O14_3 Zn1_3 1_555 1_555
N6_3 Zn1_3 1_555 1_555
N2_3 C5_3 1_555 1_555
C2_3 C3_3 1_555 1_555
C3_3 C4_3 1_555 1_555
H3_3 O10_3 1_555 1_555
Yb1_4 O1_4 1_555 1_555
O1_4 C1_4 1_555 1_555
O2_4 C1_4 1_555 1_555
O9_4 Yb1_4 1_555 1_555
H1_4 O9_4 1_555 1_555
O6_4 C7_4 1_555 1_555
O8_4 C10_4 1_555 1_555
N3_4 C8_4 1_555 1_555
N4_4 C9_4 1_555 1_555
C7_4 O5_4 1_555 1_555
C8_4 C7_4 1_555 1_555
C9_4 C8_4 1_555 1_555
C10_4 O7_4 1_555 1_555
C11_4 N3_4 1_555 1_555
C12_4 C11_4 1_555 1_555
H9_4 C12_4 1_555 1_555
H10_4 C12_4 1_555 1_555
H11_4 C12_4 1_555 1_555
Zn3 O8_4 1_555 1_555
Zn2 O6_4 1_555 1_555
N3_4 Zn2 1_555 1_555
N4_4 C11_4 1_555 1_555
N4_4 Zn3 1_555 1_555
C9_4 C10_4 1_555 1_555
O4_4 C4_4 1_555 1_555
N1_4 Zn1_4 1_555 1_555
N2_4 H5_4 1_555 1_555
C2_4 N1_4 1_555 1_555
C3_4 N2_4 1_555 1_555
C4_4 O3_4 1_555 1_555
C5_4 N1_4 1_555 1_555
C6_4 C5_4 1_555 1_555
H6_4 C6_4 1_555 1_555
H7_4 C6_4 1_555 1_555
H8_4 C6_4 1_555 1_555
O14_4 Zn1_4 1_555 1_555
N6_4 Zn1_4 1_555 1_555
N2_4 C5_4 1_555 1_555
C2_4 C3_4 1_555 1_555
C3_4 C4_4 1_555 1_555
Yb2 O1_5 1_555 1_555
Zn2_2 O2_5 1_555 1_555
O1_5 C1_5 1_555 1_555
O2_5 C1_5 1_555 1_555
O12 C4_5 1_555 1_555
O5_5 Yb2 1_555 1_555
O13_3 C7_5 1_555 1_555
O7_5 Yb2 1_555 1_555
O14_2 C10_5 1_555 1_555
O9_5 Yb2 1_555 1_555
H1_5 O9_5 1_555 1_555
H2_4 O9_5 1_555 1_555
O10_4 Yb2 1_555 1_555
H3_4 O10_4 1_555 1_555
H4_5 O10_4 1_555 1_555
N1_5 Zn2_2 1_555 1_555
N2_5 H5_5 1_555 1_555
N5_3 C8_5 1_555 1_555
N6_2 C9_5 1_555 1_555
C1_5 C2_5 1_555 1_555
C2_5 N1_5 1_555 1_555
C3_5 N2_5 1_555 1_555
C4_5 O11 1_555 1_555
C5_5 N1_5 1_555 1_555
C6_5 C5_5 1_555 1_555
H6_5 C6_5 1_555 1_555
H7_5 C6_5 1_555 1_555
H8_5 C6_5 1_555 1_555
C7_5 O5_5 1_555 1_555
C8_5 C7_5 1_555 1_555
C9_5 C8_5 1_555 1_555
C10_5 O7_5 1_555 1_555
C11_5 N5_3 1_555 1_555
C12_5 C11_5 1_555 1_555
H9_5 C12_5 1_555 1_555
H10_5 C12_5 1_555 1_555
H11_5 C12_5 1_555 1_555
N2_5 C5_5 1_555 1_555
N6_2 C11_5 1_555 1_555
C2_5 C3_5 1_555 1_555
C3_5 C4_5 1_555 1_555
C9_5 C10_5 1_555 1_555
O13_4 C7_6 1_555 1_555
O14 C10_6 1_555 1_555
N5_4 C8_6 1_555 1_555
N6 C9_6 1_555 1_555
C7_6 O5_6 1_555 1_555
C8_6 C7_6 1_555 1_555
C9_6 C8_6 1_555 1_555
C10_6 O7_6 1_555 1_555
C11_6 N5_4 1_555 1_555
C12_6 C11_6 1_555 1_555
H9_6 C12_6 1_555 1_555
H10_6 C12_6 1_555 1_555
H11_6 C12_6 1_555 1_555
N6 C11_6 1_555 1_555
C9_6 C10_6 1_555 1_555
Yb2_2 O1_6 1_555 1_555
Zn2 O2_6 1_555 1_555
O1_6 C1_6 1_555 1_555
O2_6 C1_6 1_555 1_555
O12_2 C4_6 1_555 1_555
O9_6 Yb2_2 1_555 1_555
H1_6 O9_6 1_555 1_555
H2_5 O9_6 1_555 1_555
O10_5 Yb2_2 1_555 1_555
H3_5 O10_5 1_555 1_555
H4_6 O10_5 1_555 1_555
N1_6 Zn2 1_555 1_555
N2_6 H5_6 1_555 1_555
C1_6 C2_6 1_555 1_555
C2_6 N1_6 1_555 1_555
C3_6 N2_6 1_555 1_555
C4_6 O11_2 1_555 1_555
C5_6 N1_6 1_555 1_555
C6_6 C5_6 1_555 1_555
H6_6 C6_6 1_555 1_555
H7_6 C6_6 1_555 1_555
H8_6 C6_6 1_555 1_555
N2_6 C5_6 1_555 1_555
C2_6 C3_6 1_555 1_555
C3_6 C4_6 1_555 1_555
H3_6 O10_6 1_555 1_555
O12_3 C4_7 1_555 1_555
N1_7 Zn3 1_555 1_555
N2_7 H5_7 1_555 1_555
C2_7 N1_7 1_555 1_555
C3_7 N2_7 1_555 1_555
C4_7 O11_3 1_555 1_555
C5_7 N1_7 1_555 1_555
C6_7 C5_7 1_555 1_555
H6_7 C6_7 1_555 1_555
H7_7 C6_7 1_555 1_555
H8_7 C6_7 1_555 1_555
N2_7 C5_7 1_555 1_555
C2_7 C3_7 1_555 1_555
C3_7 C4_7 1_555 1_555
Yb2_3 O1_7 1_555 1_555
O1_7 C1_7 1_555 1_555
O2_7 C1_7 1_555 1_555
O5_7 Yb2_3 1_555 1_555
O13 C7_7 1_555 1_555
O7_7 Yb2_3 1_555 1_555
O14_4 C10_7 1_555 1_555
O9_7 Yb2_3 1_555 1_555
H1_7 O9_7 1_555 1_555
N5 C8_7 1_555 1_555
N6_4 C9_7 1_555 1_555
C7_7 O5_7 1_555 1_555
C8_7 C7_7 1_555 1_555
C9_7 C8_7 1_555 1_555
C10_7 O7_7 1_555 1_555
C11_7 N5 1_555 1_555
C12_7 C11_7 1_555 1_555
H9_7 C12_7 1_555 1_555
H10_7 C12_7 1_555 1_555
H11_7 C12_7 1_555 1_555
N6_4 C11_7 1_555 1_555
C9_7 C10_7 1_555 1_555
O12_4 C4_8 1_555 1_555
N1_8 Zn3_2 1_555 1_555
N2_8 H5_8 1_555 1_555
C2_8 N1_8 1_555 1_555
C3_8 N2_8 1_555 1_555
C4_8 O11_4 1_555 1_555
C5_8 N1_8 1_555 1_555
C6_8 C5_8 1_555 1_555
H6_8 C6_8 1_555 1_555
H7_8 C6_8 1_555 1_555
H8_8 C6_8 1_555 1_555
N2_8 C5_8 1_555 1_555
C2_8 C3_8 1_555 1_555
C3_8 C4_8 1_555 1_555
O13_2 C7_8 1_555 1_555
O14_3 C10_8 1_555 1_555
N5_2 C8_8 1_555 1_555
N6_3 C9_8 1_555 1_555
C7_8 O5_8 1_555 1_555
C8_8 C7_8 1_555 1_555
C9_8 C8_8 1_555 1_555
C10_8 O7_8 1_555 1_555
C11_8 N5_2 1_555 1_555
C12_8 C11_8 1_555 1_555
H9_8 C12_8 1_555 1_555
H10_8 C12_8 1_555 1_555
H11_8 C12_8 1_555 1_555
N6_3 C11_8 1_555 1_555
C9_8 C10_8 1_555 1_555
Yb2_4 O1_8 1_555 1_555
O1_8 C1_8 1_555 1_555
O2_8 C1_8 1_555 1_555
O9_8 Yb2_4 1_555 1_555
H1_8 O9_8 1_555 1_555
H3_7 O10_7 1_555 1_555
H3_8 O10_8 1_555 1_555

#END
