
###############################################################################
#
# This file contains modified crystal structure data generated from the
# MOF subset of the Cambridge Structural Database (CSD) v543 
# hosted by the Cambridge Crystallographic Data Centre (CCDC).
#
# This work is licensed under the Creative Commons
# Attribution-NonCommercial-ShareAlike 4.0 International License.
# To view a copy of this license, visit
# http://creativecommons.org/licenses/by-nc-sa/4.0/
# or send a letter to
# Creative Commons, PO Box 1866, Mountain View, CA 94042, USA.
#
# CIF created using the CSD Python API on 29 September 2022
# The structure has been converted into the P1 space group
# The structure has a 3D framework
# The original CSD entry ZOXTIR is in the monoclinic crystal system
# The framework has been calculated to contain at least 10.0% void space
# The void calculation uses a probe of radius 1.32A, grid spacing 0.4
#
###############################################################################

data_ZOXTIR
_chemical_formula_moiety         '(C96 H88 Er8 N32 O80 Zn8)n'
_symmetry_cell_setting           triclinic
_symmetry_space_group_name_H-M   'P 1'
_symmetry_Int_Tables_number      1
_space_group_name_Hall           'P 1'
loop_
_symmetry_equiv_pos_site_id
_symmetry_equiv_pos_as_xyz
1 x,y,z
_cell_length_a                   24.2346(14)
_cell_length_b                   9.1735(5)
_cell_length_c                   19.0739(11)
_cell_angle_alpha                90
_cell_angle_beta                 114.153(1)
_cell_angle_gamma                90
_cell_volume                     3869.21
loop_
_atom_site_label
_atom_site_type_symbol
_atom_site_fract_x
_atom_site_fract_y
_atom_site_fract_z
Zn3 Zn 0.78780(2) 0.01080(5) 0.66404(3)
Er1 Er 0.541852(8) 0.694238(18) 0.494915(10)
Zn1 Zn 0.71220(2) 0.48920(5) 0.33596(3)
O1 O 0.61502(17) 0.6492(4) 0.4571(2)
O2 O 0.66433(17) 0.6349(4) 0.3819(2)
O3 O 0.54712(13) 0.4332(3) 0.49581(16)
O4 O 0.54105(15) 0.1964(3) 0.4821(2)
O5 O 0.60784(14) 0.8765(3) 0.55409(19)
O6 O 0.69542(15) 0.9819(3) 0.57354(18)
O7 O 0.57664(15) 0.6323(4) 0.62112(18)
O8 O 0.62062(15) 0.5433(4) 0.73918(19)
O9 O 0.51820(17) 0.9106(4) 0.4181(2)
H1 H 0.5426 0.9766 0.4422
H2 H 0.4827 0.9375 0.4089
O10 O 0.48147(16) 0.6314(4) 0.36850(19)
H3 H 0.4610 0.5574 0.3684
H4 H 0.5031 0.6132 0.3444
N1 N 0.68474(17) 0.3488(4) 0.4046(2)
N2 N 0.6432(2) 0.1827(4) 0.4502(3)
H5 H 0.6347 0.0970 0.4639
N3 N 0.75692(17) 0.8328(4) 0.7039(2)
N4 N 0.72836(17) 0.6649(4) 0.7669(2)
C1 C 0.6406(2) 0.5776(5) 0.4217(3)
C2 C 0.64509(19) 0.4168(5) 0.4294(2)
C3 C 0.6182(2) 0.3131(4) 0.4576(3)
C4 C 0.5662(2) 0.3153(4) 0.4795(2)
C5 C 0.6831(2) 0.2073(5) 0.4184(3)
C6 C 0.7187(3) 0.0908(6) 0.4019(3)
H6 H 0.7574 0.1287 0.4083
H7 H 0.6973 0.0575 0.3500
H8 H 0.7243 0.0108 0.4366
C7 C 0.6645(2) 0.8914(4) 0.5914(2)
C8 C 0.6969(2) 0.8038(4) 0.6616(2)
C9 C 0.6791(2) 0.6989(4) 0.7007(2)
C10 C 0.62214(19) 0.6210(4) 0.6863(2)
C11 C 0.77405(19) 0.7463(5) 0.7661(2)
C12 C 0.8365(2) 0.7445(8) 0.8273(3)
H9 H 0.8645 0.7208 0.8053
H10 H 0.8391 0.6728 0.8652
H11 H 0.8461 0.8388 0.8511
Er2 Er 0.458148(8) 0.305762(18) 0.505085(10)
Zn2 Zn 0.71220(2) 0.51080(5) 0.83596(3)
O11 O 0.45288(13) 0.5668(3) 0.50419(16)
O12 O 0.45895(15) 0.8036(3) 0.5179(2)
O13 O 0.80458(15) 0.5181(3) 0.42646(18)
O14 O 0.62062(15) 0.4567(4) 0.23918(19)
N5 N 0.74308(17) 0.6672(4) 0.2961(2)
N6 N 0.72836(17) 0.3351(4) 0.2669(2)
Zn3_2 Zn 0.21220(2) 0.01080(5) 0.83596(3)
Er1_2 Er 0.458148(8) 0.694238(18) 0.005085(10)
Zn1_2 Zn 0.28780(2) 0.48920(5) 0.16404(3)
O1_2 O 0.38498(17) 0.6492(4) 0.0429(2)
O2_2 O 0.33567(17) 0.6349(4) 0.1181(2)
O3_2 O 0.45288(13) 0.4332(3) 0.00419(16)
O4_2 O 0.45895(15) 0.1964(3) 0.0179(2)
O9_2 O 0.48180(17) 0.9106(4) 0.0819(2)
H1_2 H 0.4574 0.9766 0.0578
H2_2 H 0.5173 0.9375 0.0911
O10_2 O 0.51853(16) 0.6314(4) 0.13150(19)
H3_2 H 0.5390 0.5574 0.1316
H4_2 H 0.4969 0.6132 0.1556
N1_2 N 0.31526(17) 0.3488(4) 0.0954(2)
N2_2 N 0.3568(2) 0.1827(4) 0.0498(3)
H5_2 H 0.3653 0.0970 0.0361
C1_2 C 0.3594(2) 0.5776(5) 0.0783(3)
C2_2 C 0.35491(19) 0.4168(5) 0.0706(2)
C3_2 C 0.3818(2) 0.3131(4) 0.0424(3)
C4_2 C 0.4338(2) 0.3153(4) 0.0205(2)
C5_2 C 0.3169(2) 0.2073(5) 0.0816(3)
C6_2 C 0.2813(3) 0.0908(6) 0.0981(3)
H6_2 H 0.2426 0.1287 0.0917
H7_2 H 0.3027 0.0575 0.1500
H8_2 H 0.2757 0.0108 0.0634
O13_2 O 0.19542(15) 0.5181(3) 0.07354(18)
O14_2 O 0.37938(15) 0.4567(4) 0.26082(19)
N5_2 N 0.25692(17) 0.6672(4) 0.2039(2)
N6_2 N 0.27164(17) 0.3351(4) 0.2331(2)
O5_2 O 0.39216(14) 0.8765(3) 0.94591(19)
O6_2 O 0.30458(15) 0.9819(3) 0.92646(18)
O7_2 O 0.42336(15) 0.6323(4) 0.87888(18)
O8_2 O 0.37938(15) 0.5433(4) 0.76082(19)
N3_2 N 0.24308(17) 0.8328(4) 0.7961(2)
N4_2 N 0.27164(17) 0.6649(4) 0.7331(2)
C7_2 C 0.3355(2) 0.8914(4) 0.9086(2)
C8_2 C 0.3031(2) 0.8038(4) 0.8384(2)
C9_2 C 0.3209(2) 0.6989(4) 0.7993(2)
C10_2 C 0.37786(19) 0.6210(4) 0.8137(2)
C11_2 C 0.22595(19) 0.7463(5) 0.7339(2)
C12_2 C 0.1635(2) 0.7445(8) 0.6727(3)
H9_2 H 0.1355 0.7208 0.6947
H10_2 H 0.1609 0.6728 0.6348
H11_2 H 0.1539 0.8388 0.6489
Er2_2 Er 0.541852(8) 0.305762(18) 0.994915(10)
Zn2_2 Zn 0.28780(2) 0.51080(5) 0.66404(3)
O11_2 O 0.54712(13) 0.5668(3) 0.99581(16)
O12_2 O 0.54105(15) 0.8036(3) 0.9821(2)
Er1_3 Er 0.041852(8) 0.194238(18) 0.494915(10)
O1_3 O 0.11502(17) 0.1492(4) 0.4571(2)
O2_3 O 0.16433(17) 0.1349(4) 0.3819(2)
O5_3 O 0.10784(14) 0.3765(3) 0.55409(19)
O6_3 O 0.19542(15) 0.4819(3) 0.57354(18)
O7_3 O 0.07664(15) 0.1323(4) 0.62112(18)
O8_3 O 0.12062(15) 0.0433(4) 0.73918(19)
O9_3 O 0.01820(17) 0.4106(4) 0.4181(2)
H1_3 H 0.0426 0.4766 0.4422
H4_3 H 0.0031 0.1132 0.3444
N3_3 N 0.25692(17) 0.3328(4) 0.7039(2)
N4_3 N 0.22836(17) 0.1649(4) 0.7669(2)
C1_3 C 0.1406(2) 0.0776(5) 0.4217(3)
C7_3 C 0.1645(2) 0.3914(4) 0.5914(2)
C8_3 C 0.1969(2) 0.3038(4) 0.6616(2)
C9_3 C 0.1791(2) 0.1989(4) 0.7007(2)
C10_3 C 0.12214(19) 0.1210(4) 0.6863(2)
C11_3 C 0.27405(19) 0.2463(5) 0.7661(2)
C12_3 C 0.3365(2) 0.2445(8) 0.8273(3)
H9_3 H 0.3645 0.2208 0.8053
H10_3 H 0.3391 0.1728 0.8652
H11_3 H 0.3461 0.3388 0.8511
O13_3 O 0.30458(15) 0.0181(3) 0.42646(18)
N5_3 N 0.24308(17) 0.1672(4) 0.2961(2)
Zn1_3 Zn 0.21220(2) 0.98920(5) 0.33596(3)
O3_3 O 0.04712(13) 0.9332(3) 0.49581(16)
O4_3 O 0.04105(15) 0.6964(3) 0.4821(2)
N1_3 N 0.18474(17) 0.8488(4) 0.4046(2)
N2_3 N 0.1432(2) 0.6827(4) 0.4502(3)
H5_3 H 0.1347 0.5970 0.4639
C2_3 C 0.14509(19) 0.9168(5) 0.4294(2)
C3_3 C 0.1182(2) 0.8131(4) 0.4576(3)
C4_3 C 0.0662(2) 0.8153(4) 0.4795(2)
C5_3 C 0.1831(2) 0.7073(5) 0.4184(3)
C6_3 C 0.2187(3) 0.5908(6) 0.4019(3)
H6_3 H 0.2574 0.6287 0.4083
H7_3 H 0.1973 0.5575 0.3500
H8_3 H 0.2243 0.5108 0.4366
O14_3 O 0.12062(15) 0.9567(4) 0.23918(19)
N6_3 N 0.22836(17) 0.8351(4) 0.2669(2)
H2_3 H 0.9827 0.4375 0.4089
O10_3 O 0.98147(16) 0.1314(4) 0.36850(19)
H3_3 H 0.9610 0.0574 0.3684
O11_3 O 0.95288(13) 0.0668(3) 0.50419(16)
O12_3 O 0.95895(15) 0.3036(3) 0.5179(2)
Er2_3 Er 0.958148(8) 0.805762(18) 0.505085(10)
O11_4 O 0.04712(13) 0.0668(3) 0.99581(16)
O12_4 O 0.04105(15) 0.3036(3) 0.9821(2)
Er2_4 Er 0.041852(8) 0.805762(18) 0.994915(10)
Er1_4 Er 0.958148(8) 0.194238(18) 0.005085(10)
O1_4 O 0.88498(17) 0.1492(4) 0.0429(2)
O2_4 O 0.83567(17) 0.1349(4) 0.1181(2)
O9_4 O 0.98180(17) 0.4106(4) 0.0819(2)
H1_4 H 0.9574 0.4766 0.0578
H4_4 H 0.9969 0.1132 0.1556
C1_4 C 0.8594(2) 0.0776(5) 0.0783(3)
O13_4 O 0.69542(15) 0.0181(3) 0.07354(18)
N5_4 N 0.75692(17) 0.1672(4) 0.2039(2)
O5_4 O 0.89216(14) 0.3765(3) 0.94591(19)
O6_4 O 0.80458(15) 0.4819(3) 0.92646(18)
O7_4 O 0.92336(15) 0.1323(4) 0.87888(18)
O8_4 O 0.87938(15) 0.0433(4) 0.76082(19)
N3_4 N 0.74308(17) 0.3328(4) 0.7961(2)
N4_4 N 0.77164(17) 0.1649(4) 0.7331(2)
C7_4 C 0.8355(2) 0.3914(4) 0.9086(2)
C8_4 C 0.8031(2) 0.3038(4) 0.8384(2)
C9_4 C 0.8209(2) 0.1989(4) 0.7993(2)
C10_4 C 0.87786(19) 0.1210(4) 0.8137(2)
C11_4 C 0.72595(19) 0.2463(5) 0.7339(2)
C12_4 C 0.6635(2) 0.2445(8) 0.6727(3)
H9_4 H 0.6355 0.2208 0.6947
H10_4 H 0.6609 0.1728 0.6348
H11_4 H 0.6539 0.3388 0.6489
Zn1_4 Zn 0.78780(2) 0.98920(5) 0.16404(3)
O3_4 O 0.95288(13) 0.9332(3) 0.00419(16)
O4_4 O 0.95895(15) 0.6964(3) 0.0179(2)
N1_4 N 0.81526(17) 0.8488(4) 0.0954(2)
N2_4 N 0.8568(2) 0.6827(4) 0.0498(3)
H5_4 H 0.8653 0.5970 0.0361
C2_4 C 0.85491(19) 0.9168(5) 0.0706(2)
C3_4 C 0.8818(2) 0.8131(4) 0.0424(3)
C4_4 C 0.9338(2) 0.8153(4) 0.0205(2)
C5_4 C 0.8169(2) 0.7073(5) 0.0816(3)
C6_4 C 0.7813(3) 0.5908(6) 0.0981(3)
H6_4 H 0.7426 0.6287 0.0917
H7_4 H 0.8027 0.5575 0.1500
H8_4 H 0.7757 0.5108 0.0634
O14_4 O 0.87938(15) 0.9567(4) 0.26082(19)
N6_4 N 0.77164(17) 0.8351(4) 0.2331(2)
O1_5 O 0.38498(17) 0.3508(4) 0.5429(2)
O2_5 O 0.33567(17) 0.3651(4) 0.6181(2)
O5_5 O 0.39216(14) 0.1235(3) 0.44591(19)
O7_5 O 0.42336(15) 0.3677(4) 0.37888(18)
O9_5 O 0.48180(17) 0.0894(4) 0.5819(2)
H1_5 H 0.4574 0.0234 0.5578
H2_4 H 0.5173 0.0625 0.5911
O10_4 O 0.51853(16) 0.3686(4) 0.63150(19)
H3_4 H 0.5390 0.4426 0.6316
H4_5 H 0.4969 0.3868 0.6556
N1_5 N 0.31526(17) 0.6512(4) 0.5954(2)
N2_5 N 0.3568(2) 0.8173(4) 0.5498(3)
H5_5 H 0.3653 0.9030 0.5361
C1_5 C 0.3594(2) 0.4224(5) 0.5783(3)
C2_5 C 0.35491(19) 0.5832(5) 0.5706(2)
C3_5 C 0.3818(2) 0.6869(4) 0.5424(3)
C4_5 C 0.4338(2) 0.6847(4) 0.5205(2)
C5_5 C 0.3169(2) 0.7927(5) 0.5816(3)
C6_5 C 0.2813(3) 0.9092(6) 0.5981(3)
H6_5 H 0.2426 0.8713 0.5917
H7_5 H 0.3027 0.9425 0.6500
H8_5 H 0.2757 0.9892 0.5634
C7_5 C 0.3355(2) 0.1086(4) 0.4086(2)
C8_5 C 0.3031(2) 0.1962(4) 0.3384(2)
C9_5 C 0.3209(2) 0.3011(4) 0.2993(2)
C10_5 C 0.37786(19) 0.3790(4) 0.3137(2)
C11_5 C 0.22595(19) 0.2537(5) 0.2339(2)
C12_5 C 0.1635(2) 0.2555(8) 0.1727(3)
H9_5 H 0.1355 0.2792 0.1947
H10_5 H 0.1609 0.3272 0.1348
H11_5 H 0.1539 0.1612 0.1489
O5_6 O 0.60784(14) 0.1235(3) 0.05409(19)
O7_6 O 0.57664(15) 0.3677(4) 0.12112(18)
C7_6 C 0.6645(2) 0.1086(4) 0.0914(2)
C8_6 C 0.6969(2) 0.1962(4) 0.1616(2)
C9_6 C 0.6791(2) 0.3011(4) 0.2007(2)
C10_6 C 0.62214(19) 0.3790(4) 0.1863(2)
C11_6 C 0.77405(19) 0.2537(5) 0.2661(2)
C12_6 C 0.8365(2) 0.2555(8) 0.3273(3)
H9_6 H 0.8645 0.2792 0.3053
H10_6 H 0.8391 0.3272 0.3652
H11_6 H 0.8461 0.1612 0.3511
O1_6 O 0.61502(17) 0.3508(4) 0.9571(2)
O2_6 O 0.66433(17) 0.3651(4) 0.8819(2)
O9_6 O 0.51820(17) 0.0894(4) 0.9181(2)
H1_6 H 0.5426 0.0234 0.9422
H2_5 H 0.4827 0.0625 0.9089
O10_5 O 0.48147(16) 0.3686(4) 0.86850(19)
H3_5 H 0.4610 0.4426 0.8684
H4_6 H 0.5031 0.3868 0.8444
N1_6 N 0.68474(17) 0.6512(4) 0.9046(2)
N2_6 N 0.6432(2) 0.8173(4) 0.9502(3)
H5_6 H 0.6347 0.9030 0.9639
C1_6 C 0.6406(2) 0.4224(5) 0.9217(3)
C2_6 C 0.64509(19) 0.5832(5) 0.9294(2)
C3_6 C 0.6182(2) 0.6869(4) 0.9576(3)
C4_6 C 0.5662(2) 0.6847(4) 0.9795(2)
C5_6 C 0.6831(2) 0.7927(5) 0.9184(3)
C6_6 C 0.7187(3) 0.9092(6) 0.9019(3)
H6_6 H 0.7574 0.8713 0.9083
H7_6 H 0.6973 0.9425 0.8500
H8_6 H 0.7243 0.9892 0.9366
H2_6 H 0.0173 0.5625 0.5911
O10_6 O 0.01853(16) 0.8686(4) 0.63150(19)
H3_6 H 0.0390 0.9426 0.6316
N1_7 N 0.81526(17) 0.1512(4) 0.5954(2)
N2_7 N 0.8568(2) 0.3173(4) 0.5498(3)
H5_7 H 0.8653 0.4030 0.5361
C2_7 C 0.85491(19) 0.0832(5) 0.5706(2)
C3_7 C 0.8818(2) 0.1869(4) 0.5424(3)
C4_7 C 0.9338(2) 0.1847(4) 0.5205(2)
C5_7 C 0.8169(2) 0.2927(5) 0.5816(3)
C6_7 C 0.7813(3) 0.4092(6) 0.5981(3)
H6_7 H 0.7426 0.3713 0.5917
H7_7 H 0.8027 0.4425 0.6500
H8_7 H 0.7757 0.4892 0.5634
O1_7 O 0.88498(17) 0.8508(4) 0.5429(2)
O2_7 O 0.83567(17) 0.8651(4) 0.6181(2)
O5_7 O 0.89216(14) 0.6235(3) 0.44591(19)
O7_7 O 0.92336(15) 0.8677(4) 0.37888(18)
O9_7 O 0.98180(17) 0.5894(4) 0.5819(2)
H1_7 H 0.9574 0.5234 0.5578
H4_7 H 0.9969 0.8868 0.6556
C1_7 C 0.8594(2) 0.9224(5) 0.5783(3)
C7_7 C 0.8355(2) 0.6086(4) 0.4086(2)
C8_7 C 0.8031(2) 0.6962(4) 0.3384(2)
C9_7 C 0.8209(2) 0.8011(4) 0.2993(2)
C10_7 C 0.87786(19) 0.8790(4) 0.3137(2)
C11_7 C 0.72595(19) 0.7537(5) 0.2339(2)
C12_7 C 0.6635(2) 0.7555(8) 0.1727(3)
H9_7 H 0.6355 0.7792 0.1947
H10_7 H 0.6609 0.8272 0.1348
H11_7 H 0.6539 0.6612 0.1489
N1_8 N 0.18474(17) 0.1512(4) 0.9046(2)
N2_8 N 0.1432(2) 0.3173(4) 0.9502(3)
H5_8 H 0.1347 0.4030 0.9639
C2_8 C 0.14509(19) 0.0832(5) 0.9294(2)
C3_8 C 0.1182(2) 0.1869(4) 0.9576(3)
C4_8 C 0.0662(2) 0.1847(4) 0.9795(2)
C5_8 C 0.1831(2) 0.2927(5) 0.9184(3)
C6_8 C 0.2187(3) 0.4092(6) 0.9019(3)
H6_8 H 0.2574 0.3713 0.9083
H7_8 H 0.1973 0.4425 0.8500
H8_8 H 0.2243 0.4892 0.9366
O5_8 O 0.10784(14) 0.6235(3) 0.05409(19)
O7_8 O 0.07664(15) 0.8677(4) 0.12112(18)
C7_8 C 0.1645(2) 0.6086(4) 0.0914(2)
C8_8 C 0.1969(2) 0.6962(4) 0.1616(2)
C9_8 C 0.1791(2) 0.8011(4) 0.2007(2)
C10_8 C 0.12214(19) 0.8790(4) 0.1863(2)
C11_8 C 0.27405(19) 0.7537(5) 0.2661(2)
C12_8 C 0.3365(2) 0.7555(8) 0.3273(3)
H9_8 H 0.3645 0.7792 0.3053
H10_8 H 0.3391 0.8272 0.3652
H11_8 H 0.3461 0.6612 0.3511
O1_8 O 0.11502(17) 0.8508(4) 0.9571(2)
O2_8 O 0.16433(17) 0.8651(4) 0.8819(2)
O9_8 O 0.01820(17) 0.5894(4) 0.9181(2)
H1_8 H 0.0426 0.5234 0.9422
H4_8 H 0.0031 0.8868 0.8444
C1_8 C 0.1406(2) 0.9224(5) 0.9217(3)
H2_7 H 0.0173 0.4375 0.0911
O10_7 O 0.01853(16) 0.1314(4) 0.13150(19)
H3_7 H 0.0390 0.0574 0.1316
H2_8 H 0.9827 0.5625 0.9089
O10_8 O 0.98147(16) 0.8686(4) 0.86850(19)
H3_8 H 0.9610 0.9426 0.8684
loop_
_geom_bond_atom_site_label_1
_geom_bond_atom_site_label_2
_geom_bond_site_symmetry_1
_geom_bond_site_symmetry_2
Er1 O1 1_555 1_555
Zn1 O2 1_555 1_555
O1 C1 1_555 1_555
O2 C1 1_555 1_555
O3 Er1 1_555 1_555
O4 C4 1_555 1_555
O5 Er1 1_555 1_555
O6 C7 1_555 1_555
O7 Er1 1_555 1_555
O8 C10 1_555 1_555
O9 Er1 1_555 1_555
H1 O9 1_555 1_555
H2 O9 1_555 1_555
O10 Er1 1_555 1_555
H3 O10 1_555 1_555
H4 O10 1_555 1_555
N1 Zn1 1_555 1_555
N2 H5 1_555 1_555
N3 C8 1_555 1_555
N4 C9 1_555 1_555
C1 C2 1_555 1_555
C2 N1 1_555 1_555
C3 N2 1_555 1_555
C4 O3 1_555 1_555
C5 N1 1_555 1_555
C6 C5 1_555 1_555
H6 C6 1_555 1_555
H7 C6 1_555 1_555
H8 C6 1_555 1_555
C7 O5 1_555 1_555
C8 C7 1_555 1_555
C9 C8 1_555 1_555
C10 O7 1_555 1_555
C11 N3 1_555 1_555
C12 C11 1_555 1_555
H9 C12 1_555 1_555
H10 C12 1_555 1_555
H11 C12 1_555 1_555
Er2 O3 1_555 1_555
Zn2 O8 1_555 1_555
O11 Er1 1_555 1_555
O12 Er1 1_555 1_555
O13 Zn1 1_555 1_555
O14 Zn1 1_555 1_555
N5 Zn1 1_555 1_555
N6 Zn1 1_555 1_555
O4 Er2 1_555 1_555
N2 C5 1_555 1_555
N4 C11 1_555 1_555
N4 Zn2 1_555 1_555
C2 C3 1_555 1_555
C3 C4 1_555 1_555
C9 C10 1_555 1_555
Er2 O11 1_555 1_555
Er1_2 O1_2 1_555 1_555
Zn1_2 O2_2 1_555 1_555
O1_2 C1_2 1_555 1_555
O2_2 C1_2 1_555 1_555
O3_2 Er1_2 1_555 1_555
O4_2 C4_2 1_555 1_555
O9_2 Er1_2 1_555 1_555
H1_2 O9_2 1_555 1_555
H2_2 O9_2 1_555 1_555
O10_2 Er1_2 1_555 1_555
H3_2 O10_2 1_555 1_555
H4_2 O10_2 1_555 1_555
N1_2 Zn1_2 1_555 1_555
N2_2 H5_2 1_555 1_555
C1_2 C2_2 1_555 1_555
C2_2 N1_2 1_555 1_555
C3_2 N2_2 1_555 1_555
C4_2 O3_2 1_555 1_555
C5_2 N1_2 1_555 1_555
C6_2 C5_2 1_555 1_555
H6_2 C6_2 1_555 1_555
H7_2 C6_2 1_555 1_555
H8_2 C6_2 1_555 1_555
O13_2 Zn1_2 1_555 1_555
O14_2 Zn1_2 1_555 1_555
N5_2 Zn1_2 1_555 1_555
N6_2 Zn1_2 1_555 1_555
N2_2 C5_2 1_555 1_555
C2_2 C3_2 1_555 1_555
C3_2 C4_2 1_555 1_555
O6_2 C7_2 1_555 1_555
O8_2 C10_2 1_555 1_555
N3_2 C8_2 1_555 1_555
N4_2 C9_2 1_555 1_555
C7_2 O5_2 1_555 1_555
C8_2 C7_2 1_555 1_555
C9_2 C8_2 1_555 1_555
C10_2 O7_2 1_555 1_555
C11_2 N3_2 1_555 1_555
C12_2 C11_2 1_555 1_555
H9_2 C12_2 1_555 1_555
H10_2 C12_2 1_555 1_555
H11_2 C12_2 1_555 1_555
Zn2_2 O8_2 1_555 1_555
N4_2 C11_2 1_555 1_555
N4_2 Zn2_2 1_555 1_555
C9_2 C10_2 1_555 1_555
Er2_2 O11_2 1_555 1_555
Er1_3 O1_3 1_555 1_555
O1_3 C1_3 1_555 1_555
O2_3 C1_3 1_555 1_555
O5_3 Er1_3 1_555 1_555
O6_3 C7_3 1_555 1_555
O7_3 Er1_3 1_555 1_555
O8_3 C10_3 1_555 1_555
O9_3 Er1_3 1_555 1_555
H1_3 O9_3 1_555 1_555
N3_3 C8_3 1_555 1_555
N4_3 C9_3 1_555 1_555
C7_3 O5_3 1_555 1_555
C8_3 C7_3 1_555 1_555
C9_3 C8_3 1_555 1_555
C10_3 O7_3 1_555 1_555
C11_3 N3_3 1_555 1_555
C12_3 C11_3 1_555 1_555
H9_3 C12_3 1_555 1_555
H10_3 C12_3 1_555 1_555
H11_3 C12_3 1_555 1_555
Zn3_2 O8_3 1_555 1_555
Zn2_2 O6_3 1_555 1_555
N3_3 Zn2_2 1_555 1_555
N4_3 C11_3 1_555 1_555
N4_3 Zn3_2 1_555 1_555
C9_3 C10_3 1_555 1_555
O4_3 C4_3 1_555 1_555
N1_3 Zn1_3 1_555 1_555
N2_3 H5_3 1_555 1_555
C2_3 N1_3 1_555 1_555
C3_3 N2_3 1_555 1_555
C4_3 O3_3 1_555 1_555
C5_3 N1_3 1_555 1_555
C6_3 C5_3 1_555 1_555
H6_3 C6_3 1_555 1_555
H7_3 C6_3 1_555 1_555
H8_3 C6_3 1_555 1_555
O14_3 Zn1_3 1_555 1_555
N6_3 Zn1_3 1_555 1_555
N2_3 C5_3 1_555 1_555
C2_3 C3_3 1_555 1_555
C3_3 C4_3 1_555 1_555
H3_3 O10_3 1_555 1_555
Er1_4 O1_4 1_555 1_555
O1_4 C1_4 1_555 1_555
O2_4 C1_4 1_555 1_555
O9_4 Er1_4 1_555 1_555
H1_4 O9_4 1_555 1_555
O6_4 C7_4 1_555 1_555
O8_4 C10_4 1_555 1_555
N3_4 C8_4 1_555 1_555
N4_4 C9_4 1_555 1_555
C7_4 O5_4 1_555 1_555
C8_4 C7_4 1_555 1_555
C9_4 C8_4 1_555 1_555
C10_4 O7_4 1_555 1_555
C11_4 N3_4 1_555 1_555
C12_4 C11_4 1_555 1_555
H9_4 C12_4 1_555 1_555
H10_4 C12_4 1_555 1_555
H11_4 C12_4 1_555 1_555
Zn3 O8_4 1_555 1_555
Zn2 O6_4 1_555 1_555
N3_4 Zn2 1_555 1_555
N4_4 C11_4 1_555 1_555
N4_4 Zn3 1_555 1_555
C9_4 C10_4 1_555 1_555
O4_4 C4_4 1_555 1_555
N1_4 Zn1_4 1_555 1_555
N2_4 H5_4 1_555 1_555
C2_4 N1_4 1_555 1_555
C3_4 N2_4 1_555 1_555
C4_4 O3_4 1_555 1_555
C5_4 N1_4 1_555 1_555
C6_4 C5_4 1_555 1_555
H6_4 C6_4 1_555 1_555
H7_4 C6_4 1_555 1_555
H8_4 C6_4 1_555 1_555
O14_4 Zn1_4 1_555 1_555
N6_4 Zn1_4 1_555 1_555
N2_4 C5_4 1_555 1_555
C2_4 C3_4 1_555 1_555
C3_4 C4_4 1_555 1_555
Er2 O1_5 1_555 1_555
Zn2_2 O2_5 1_555 1_555
O1_5 C1_5 1_555 1_555
O2_5 C1_5 1_555 1_555
O12 C4_5 1_555 1_555
O5_5 Er2 1_555 1_555
O13_3 C7_5 1_555 1_555
O7_5 Er2 1_555 1_555
O14_2 C10_5 1_555 1_555
O9_5 Er2 1_555 1_555
H1_5 O9_5 1_555 1_555
H2_4 O9_5 1_555 1_555
O10_4 Er2 1_555 1_555
H3_4 O10_4 1_555 1_555
H4_5 O10_4 1_555 1_555
N1_5 Zn2_2 1_555 1_555
N2_5 H5_5 1_555 1_555
N5_3 C8_5 1_555 1_555
N6_2 C9_5 1_555 1_555
C1_5 C2_5 1_555 1_555
C2_5 N1_5 1_555 1_555
C3_5 N2_5 1_555 1_555
C4_5 O11 1_555 1_555
C5_5 N1_5 1_555 1_555
C6_5 C5_5 1_555 1_555
H6_5 C6_5 1_555 1_555
H7_5 C6_5 1_555 1_555
H8_5 C6_5 1_555 1_555
C7_5 O5_5 1_555 1_555
C8_5 C7_5 1_555 1_555
C9_5 C8_5 1_555 1_555
C10_5 O7_5 1_555 1_555
C11_5 N5_3 1_555 1_555
C12_5 C11_5 1_555 1_555
H9_5 C12_5 1_555 1_555
H10_5 C12_5 1_555 1_555
H11_5 C12_5 1_555 1_555
N2_5 C5_5 1_555 1_555
N6_2 C11_5 1_555 1_555
C2_5 C3_5 1_555 1_555
C3_5 C4_5 1_555 1_555
C9_5 C10_5 1_555 1_555
O13_4 C7_6 1_555 1_555
O14 C10_6 1_555 1_555
N5_4 C8_6 1_555 1_555
N6 C9_6 1_555 1_555
C7_6 O5_6 1_555 1_555
C8_6 C7_6 1_555 1_555
C9_6 C8_6 1_555 1_555
C10_6 O7_6 1_555 1_555
C11_6 N5_4 1_555 1_555
C12_6 C11_6 1_555 1_555
H9_6 C12_6 1_555 1_555
H10_6 C12_6 1_555 1_555
H11_6 C12_6 1_555 1_555
N6 C11_6 1_555 1_555
C9_6 C10_6 1_555 1_555
Er2_2 O1_6 1_555 1_555
Zn2 O2_6 1_555 1_555
O1_6 C1_6 1_555 1_555
O2_6 C1_6 1_555 1_555
O12_2 C4_6 1_555 1_555
O9_6 Er2_2 1_555 1_555
H1_6 O9_6 1_555 1_555
H2_5 O9_6 1_555 1_555
O10_5 Er2_2 1_555 1_555
H3_5 O10_5 1_555 1_555
H4_6 O10_5 1_555 1_555
N1_6 Zn2 1_555 1_555
N2_6 H5_6 1_555 1_555
C1_6 C2_6 1_555 1_555
C2_6 N1_6 1_555 1_555
C3_6 N2_6 1_555 1_555
C4_6 O11_2 1_555 1_555
C5_6 N1_6 1_555 1_555
C6_6 C5_6 1_555 1_555
H6_6 C6_6 1_555 1_555
H7_6 C6_6 1_555 1_555
H8_6 C6_6 1_555 1_555
N2_6 C5_6 1_555 1_555
C2_6 C3_6 1_555 1_555
C3_6 C4_6 1_555 1_555
H3_6 O10_6 1_555 1_555
O12_3 C4_7 1_555 1_555
N1_7 Zn3 1_555 1_555
N2_7 H5_7 1_555 1_555
C2_7 N1_7 1_555 1_555
C3_7 N2_7 1_555 1_555
C4_7 O11_3 1_555 1_555
C5_7 N1_7 1_555 1_555
C6_7 C5_7 1_555 1_555
H6_7 C6_7 1_555 1_555
H7_7 C6_7 1_555 1_555
H8_7 C6_7 1_555 1_555
N2_7 C5_7 1_555 1_555
C2_7 C3_7 1_555 1_555
C3_7 C4_7 1_555 1_555
Er2_3 O1_7 1_555 1_555
O1_7 C1_7 1_555 1_555
O2_7 C1_7 1_555 1_555
O5_7 Er2_3 1_555 1_555
O13 C7_7 1_555 1_555
O7_7 Er2_3 1_555 1_555
O14_4 C10_7 1_555 1_555
O9_7 Er2_3 1_555 1_555
H1_7 O9_7 1_555 1_555
N5 C8_7 1_555 1_555
N6_4 C9_7 1_555 1_555
C7_7 O5_7 1_555 1_555
C8_7 C7_7 1_555 1_555
C9_7 C8_7 1_555 1_555
C10_7 O7_7 1_555 1_555
C11_7 N5 1_555 1_555
C12_7 C11_7 1_555 1_555
H9_7 C12_7 1_555 1_555
H10_7 C12_7 1_555 1_555
H11_7 C12_7 1_555 1_555
N6_4 C11_7 1_555 1_555
C9_7 C10_7 1_555 1_555
O12_4 C4_8 1_555 1_555
N1_8 Zn3_2 1_555 1_555
N2_8 H5_8 1_555 1_555
C2_8 N1_8 1_555 1_555
C3_8 N2_8 1_555 1_555
C4_8 O11_4 1_555 1_555
C5_8 N1_8 1_555 1_555
C6_8 C5_8 1_555 1_555
H6_8 C6_8 1_555 1_555
H7_8 C6_8 1_555 1_555
H8_8 C6_8 1_555 1_555
N2_8 C5_8 1_555 1_555
C2_8 C3_8 1_555 1_555
C3_8 C4_8 1_555 1_555
O13_2 C7_8 1_555 1_555
O14_3 C10_8 1_555 1_555
N5_2 C8_8 1_555 1_555
N6_3 C9_8 1_555 1_555
C7_8 O5_8 1_555 1_555
C8_8 C7_8 1_555 1_555
C9_8 C8_8 1_555 1_555
C10_8 O7_8 1_555 1_555
C11_8 N5_2 1_555 1_555
C12_8 C11_8 1_555 1_555
H9_8 C12_8 1_555 1_555
H10_8 C12_8 1_555 1_555
H11_8 C12_8 1_555 1_555
N6_3 C11_8 1_555 1_555
C9_8 C10_8 1_555 1_555
Er2_4 O1_8 1_555 1_555
O1_8 C1_8 1_555 1_555
O2_8 C1_8 1_555 1_555
O9_8 Er2_4 1_555 1_555
H1_8 O9_8 1_555 1_555
H3_7 O10_7 1_555 1_555
H3_8 O10_8 1_555 1_555

#END
