
###############################################################################
#
# This file contains modified crystal structure data generated from the
# MOF subset of the Cambridge Structural Database (CSD) v543 
# hosted by the Cambridge Crystallographic Data Centre (CCDC).
#
# This work is licensed under the Creative Commons
# Attribution-NonCommercial-ShareAlike 4.0 International License.
# To view a copy of this license, visit
# http://creativecommons.org/licenses/by-nc-sa/4.0/
# or send a letter to
# Creative Commons, PO Box 1866, Mountain View, CA 94042, USA.
#
# CIF created using the CSD Python API on 29 September 2022
# The structure has been converted into the P1 space group
# The structure has a 3D framework
# The original CSD entry ZOXTEN is in the monoclinic crystal system
# The framework has been calculated to contain at least 10.0% void space
# The void calculation uses a probe of radius 1.32A, grid spacing 0.4
#
###############################################################################

data_ZOXTEN
_chemical_formula_moiety         '(C96 H88 Ho8 N32 O80 Zn8)n'
_symmetry_cell_setting           triclinic
_symmetry_space_group_name_H-M   'P 1'
_symmetry_Int_Tables_number      1
_space_group_name_Hall           'P 1'
loop_
_symmetry_equiv_pos_site_id
_symmetry_equiv_pos_as_xyz
1 x,y,z
_cell_length_a                   24.1912(11)
_cell_length_b                   9.1774(4)
_cell_length_c                   19.0096(9)
_cell_angle_alpha                90
_cell_angle_beta                 113.911(1)
_cell_angle_gamma                90
_cell_volume                     3858.16
loop_
_atom_site_label
_atom_site_type_symbol
_atom_site_fract_x
_atom_site_fract_y
_atom_site_fract_z
Zn3 Zn 0.78783(3) 0.01165(6) 0.66468(3)
Ho1 Ho 0.541601(9) 0.69446(2) 0.494865(12)
Zn1 Zn 0.71217(3) 0.48835(6) 0.33532(3)
O1 O 0.6145(2) 0.6490(5) 0.4555(3)
O2 O 0.6643(2) 0.6340(4) 0.3811(3)
O3 O 0.54703(15) 0.4333(4) 0.4953(2)
O4 O 0.54174(18) 0.1979(4) 0.4826(3)
O5 O 0.60861(17) 0.8760(4) 0.5539(2)
O6 O 0.69579(18) 0.9830(4) 0.5740(2)
O7 O 0.57757(17) 0.6319(5) 0.6217(2)
O8 O 0.62098(17) 0.5437(5) 0.7385(2)
O9 O 0.51910(19) 0.9116(4) 0.4186(2)
H1 H 0.5435 0.9776 0.4427
H2 H 0.4837 0.9385 0.4094
O10 O 0.48040(18) 0.6316(4) 0.3692(2)
H3 H 0.4600 0.5575 0.3691
H4 H 0.5020 0.6134 0.3451
N1 N 0.6848(2) 0.3501(5) 0.4042(3)
N2 N 0.6440(2) 0.1837(5) 0.4506(3)
H5 H 0.6358 0.0978 0.4646
N3 N 0.75685(19) 0.8347(5) 0.7039(3)
N4 N 0.7284(2) 0.6659(5) 0.7667(3)
C1 C 0.6400(2) 0.5785(6) 0.4207(3)
C2 C 0.6447(2) 0.4171(6) 0.4290(3)
C3 C 0.6181(3) 0.3144(6) 0.4572(3)
C4 C 0.5669(2) 0.3168(5) 0.4801(3)
C5 C 0.6839(3) 0.2096(6) 0.4192(3)
C6 C 0.7198(3) 0.0934(7) 0.4033(4)
H6 H 0.7584 0.1317 0.4094
H7 H 0.6987 0.0588 0.3516
H8 H 0.7256 0.0142 0.4386
C7 C 0.6652(2) 0.8914(5) 0.5920(3)
C8 C 0.6968(2) 0.8046(5) 0.6615(3)
C9 C 0.6791(2) 0.7006(5) 0.7002(3)
C10 C 0.6224(2) 0.6219(5) 0.6858(3)
C11 C 0.7738(2) 0.7482(6) 0.7654(3)
C12 C 0.8363(3) 0.7464(9) 0.8269(4)
H9 H 0.8634 0.7923 0.8082
H10 H 0.8488 0.6475 0.8410
H11 H 0.8370 0.7983 0.8711
Ho2 Ho 0.458399(9) 0.30554(2) 0.505135(12)
Zn2 Zn 0.71217(3) 0.51165(6) 0.83532(3)
O11 O 0.45297(15) 0.5667(4) 0.5047(2)
O12 O 0.45826(18) 0.8021(4) 0.5174(3)
O13 O 0.80421(18) 0.5170(4) 0.4260(2)
O14 O 0.62098(17) 0.4563(5) 0.2385(2)
N5 N 0.74315(19) 0.6653(5) 0.2961(3)
N6 N 0.7284(2) 0.3341(5) 0.2667(3)
Zn3_2 Zn 0.21217(3) 0.01165(6) 0.83532(3)
Ho1_2 Ho 0.458399(9) 0.69446(2) 0.005135(12)
Zn1_2 Zn 0.28783(3) 0.48835(6) 0.16468(3)
O1_2 O 0.3855(2) 0.6490(5) 0.0445(3)
O2_2 O 0.3357(2) 0.6340(4) 0.1189(3)
O3_2 O 0.45297(15) 0.4333(4) 0.0047(2)
O4_2 O 0.45826(18) 0.1979(4) 0.0174(3)
O9_2 O 0.48090(19) 0.9116(4) 0.0814(2)
H1_2 H 0.4565 0.9776 0.0573
H2_2 H 0.5163 0.9385 0.0906
O10_2 O 0.51960(18) 0.6316(4) 0.1308(2)
H3_2 H 0.5400 0.5575 0.1309
H4_2 H 0.4980 0.6134 0.1549
N1_2 N 0.3152(2) 0.3501(5) 0.0958(3)
N2_2 N 0.3560(2) 0.1837(5) 0.0494(3)
H5_2 H 0.3642 0.0978 0.0354
C1_2 C 0.3600(2) 0.5785(6) 0.0793(3)
C2_2 C 0.3553(2) 0.4171(6) 0.0710(3)
C3_2 C 0.3819(3) 0.3144(6) 0.0428(3)
C4_2 C 0.4331(2) 0.3168(5) 0.0199(3)
C5_2 C 0.3161(3) 0.2096(6) 0.0808(3)
C6_2 C 0.2802(3) 0.0934(7) 0.0967(4)
H6_2 H 0.2416 0.1317 0.0906
H7_2 H 0.3013 0.0588 0.1484
H8_2 H 0.2744 0.0142 0.0614
O13_2 O 0.19579(18) 0.5170(4) 0.0740(2)
O14_2 O 0.37902(17) 0.4563(5) 0.2615(2)
N5_2 N 0.25685(19) 0.6653(5) 0.2039(3)
N6_2 N 0.2716(2) 0.3341(5) 0.2333(3)
O5_2 O 0.39139(17) 0.8760(4) 0.9461(2)
O6_2 O 0.30421(18) 0.9830(4) 0.9260(2)
O7_2 O 0.42243(17) 0.6319(5) 0.8783(2)
O8_2 O 0.37902(17) 0.5437(5) 0.7615(2)
N3_2 N 0.24315(19) 0.8347(5) 0.7961(3)
N4_2 N 0.2716(2) 0.6659(5) 0.7333(3)
C7_2 C 0.3348(2) 0.8914(5) 0.9080(3)
C8_2 C 0.3032(2) 0.8046(5) 0.8385(3)
C9_2 C 0.3209(2) 0.7006(5) 0.7998(3)
C10_2 C 0.3776(2) 0.6219(5) 0.8142(3)
C11_2 C 0.2262(2) 0.7482(6) 0.7346(3)
C12_2 C 0.1637(3) 0.7464(9) 0.6731(4)
H9_2 H 0.1366 0.7923 0.6918
H10_2 H 0.1512 0.6475 0.6590
H11_2 H 0.1630 0.7983 0.6289
Ho2_2 Ho 0.541601(9) 0.30554(2) 0.994865(12)
Zn2_2 Zn 0.28783(3) 0.51165(6) 0.66468(3)
O11_2 O 0.54703(15) 0.5667(4) 0.9953(2)
O12_2 O 0.54174(18) 0.8021(4) 0.9826(3)
Ho1_3 Ho 0.041601(9) 0.19446(2) 0.494865(12)
O1_3 O 0.1145(2) 0.1490(5) 0.4555(3)
O2_3 O 0.1643(2) 0.1340(4) 0.3811(3)
O5_3 O 0.10861(17) 0.3760(4) 0.5539(2)
O6_3 O 0.19579(18) 0.4830(4) 0.5740(2)
O7_3 O 0.07757(17) 0.1319(5) 0.6217(2)
O8_3 O 0.12098(17) 0.0437(5) 0.7385(2)
O9_3 O 0.01910(19) 0.4116(4) 0.4186(2)
H1_3 H 0.0435 0.4776 0.4427
H4_3 H 0.0020 0.1134 0.3451
N3_3 N 0.25685(19) 0.3347(5) 0.7039(3)
N4_3 N 0.2284(2) 0.1659(5) 0.7667(3)
C1_3 C 0.1400(2) 0.0785(6) 0.4207(3)
C7_3 C 0.1652(2) 0.3914(5) 0.5920(3)
C8_3 C 0.1968(2) 0.3046(5) 0.6615(3)
C9_3 C 0.1791(2) 0.2006(5) 0.7002(3)
C10_3 C 0.1224(2) 0.1219(5) 0.6858(3)
C11_3 C 0.2738(2) 0.2482(6) 0.7654(3)
C12_3 C 0.3363(3) 0.2464(9) 0.8269(4)
H9_3 H 0.3634 0.2923 0.8082
H10_3 H 0.3488 0.1475 0.8410
H11_3 H 0.3370 0.2983 0.8711
O13_3 O 0.30421(18) 0.0170(4) 0.4260(2)
N5_3 N 0.24315(19) 0.1653(5) 0.2961(3)
Zn1_3 Zn 0.21217(3) 0.98835(6) 0.33532(3)
O3_3 O 0.04703(15) 0.9333(4) 0.4953(2)
O4_3 O 0.04174(18) 0.6979(4) 0.4826(3)
N1_3 N 0.1848(2) 0.8501(5) 0.4042(3)
N2_3 N 0.1440(2) 0.6837(5) 0.4506(3)
H5_3 H 0.1358 0.5978 0.4646
C2_3 C 0.1447(2) 0.9171(6) 0.4290(3)
C3_3 C 0.1181(3) 0.8144(6) 0.4572(3)
C4_3 C 0.0669(2) 0.8168(5) 0.4801(3)
C5_3 C 0.1839(3) 0.7096(6) 0.4192(3)
C6_3 C 0.2198(3) 0.5934(7) 0.4033(4)
H6_3 H 0.2584 0.6317 0.4094
H7_3 H 0.1987 0.5588 0.3516
H8_3 H 0.2256 0.5142 0.4386
O14_3 O 0.12098(17) 0.9563(5) 0.2385(2)
N6_3 N 0.2284(2) 0.8341(5) 0.2667(3)
H2_3 H 0.9837 0.4385 0.4094
O10_3 O 0.98040(18) 0.1316(4) 0.3692(2)
H3_3 H 0.9600 0.0575 0.3691
O11_3 O 0.95297(15) 0.0667(4) 0.5047(2)
O12_3 O 0.95826(18) 0.3021(4) 0.5174(3)
Ho2_3 Ho 0.958399(9) 0.80554(2) 0.505135(12)
O11_4 O 0.04703(15) 0.0667(4) 0.9953(2)
O12_4 O 0.04174(18) 0.3021(4) 0.9826(3)
Ho2_4 Ho 0.041601(9) 0.80554(2) 0.994865(12)
Ho1_4 Ho 0.958399(9) 0.19446(2) 0.005135(12)
O1_4 O 0.8855(2) 0.1490(5) 0.0445(3)
O2_4 O 0.8357(2) 0.1340(4) 0.1189(3)
O9_4 O 0.98090(19) 0.4116(4) 0.0814(2)
H1_4 H 0.9565 0.4776 0.0573
H4_4 H 0.9980 0.1134 0.1549
C1_4 C 0.8600(2) 0.0785(6) 0.0793(3)
O13_4 O 0.69579(18) 0.0170(4) 0.0740(2)
N5_4 N 0.75685(19) 0.1653(5) 0.2039(3)
O5_4 O 0.89139(17) 0.3760(4) 0.9461(2)
O6_4 O 0.80421(18) 0.4830(4) 0.9260(2)
O7_4 O 0.92243(17) 0.1319(5) 0.8783(2)
O8_4 O 0.87902(17) 0.0437(5) 0.7615(2)
N3_4 N 0.74315(19) 0.3347(5) 0.7961(3)
N4_4 N 0.7716(2) 0.1659(5) 0.7333(3)
C7_4 C 0.8348(2) 0.3914(5) 0.9080(3)
C8_4 C 0.8032(2) 0.3046(5) 0.8385(3)
C9_4 C 0.8209(2) 0.2006(5) 0.7998(3)
C10_4 C 0.8776(2) 0.1219(5) 0.8142(3)
C11_4 C 0.7262(2) 0.2482(6) 0.7346(3)
C12_4 C 0.6637(3) 0.2464(9) 0.6731(4)
H9_4 H 0.6366 0.2923 0.6918
H10_4 H 0.6512 0.1475 0.6590
H11_4 H 0.6630 0.2983 0.6289
Zn1_4 Zn 0.78783(3) 0.98835(6) 0.16468(3)
O3_4 O 0.95297(15) 0.9333(4) 0.0047(2)
O4_4 O 0.95826(18) 0.6979(4) 0.0174(3)
N1_4 N 0.8152(2) 0.8501(5) 0.0958(3)
N2_4 N 0.8560(2) 0.6837(5) 0.0494(3)
H5_4 H 0.8642 0.5978 0.0354
C2_4 C 0.8553(2) 0.9171(6) 0.0710(3)
C3_4 C 0.8819(3) 0.8144(6) 0.0428(3)
C4_4 C 0.9331(2) 0.8168(5) 0.0199(3)
C5_4 C 0.8161(3) 0.7096(6) 0.0808(3)
C6_4 C 0.7802(3) 0.5934(7) 0.0967(4)
H6_4 H 0.7416 0.6317 0.0906
H7_4 H 0.8013 0.5588 0.1484
H8_4 H 0.7744 0.5142 0.0614
O14_4 O 0.87902(17) 0.9563(5) 0.2615(2)
N6_4 N 0.7716(2) 0.8341(5) 0.2333(3)
O1_5 O 0.3855(2) 0.3510(5) 0.5445(3)
O2_5 O 0.3357(2) 0.3660(4) 0.6189(3)
O5_5 O 0.39139(17) 0.1240(4) 0.4461(2)
O7_5 O 0.42243(17) 0.3681(5) 0.3783(2)
O9_5 O 0.48090(19) 0.0884(4) 0.5814(2)
H1_5 H 0.4565 0.0224 0.5573
H2_4 H 0.5163 0.0615 0.5906
O10_4 O 0.51960(18) 0.3684(4) 0.6308(2)
H3_4 H 0.5400 0.4425 0.6309
H4_5 H 0.4980 0.3866 0.6549
N1_5 N 0.3152(2) 0.6499(5) 0.5958(3)
N2_5 N 0.3560(2) 0.8163(5) 0.5494(3)
H5_5 H 0.3642 0.9022 0.5354
C1_5 C 0.3600(2) 0.4215(6) 0.5793(3)
C2_5 C 0.3553(2) 0.5829(6) 0.5710(3)
C3_5 C 0.3819(3) 0.6856(6) 0.5428(3)
C4_5 C 0.4331(2) 0.6832(5) 0.5199(3)
C5_5 C 0.3161(3) 0.7904(6) 0.5808(3)
C6_5 C 0.2802(3) 0.9066(7) 0.5967(4)
H6_5 H 0.2416 0.8683 0.5906
H7_5 H 0.3013 0.9412 0.6484
H8_5 H 0.2744 0.9858 0.5614
C7_5 C 0.3348(2) 0.1086(5) 0.4080(3)
C8_5 C 0.3032(2) 0.1954(5) 0.3385(3)
C9_5 C 0.3209(2) 0.2994(5) 0.2998(3)
C10_5 C 0.3776(2) 0.3781(5) 0.3142(3)
C11_5 C 0.2262(2) 0.2518(6) 0.2346(3)
C12_5 C 0.1637(3) 0.2536(9) 0.1731(4)
H9_5 H 0.1366 0.2077 0.1918
H10_5 H 0.1512 0.3525 0.1590
H11_5 H 0.1630 0.2017 0.1289
O5_6 O 0.60861(17) 0.1240(4) 0.0539(2)
O7_6 O 0.57757(17) 0.3681(5) 0.1217(2)
C7_6 C 0.6652(2) 0.1086(5) 0.0920(3)
C8_6 C 0.6968(2) 0.1954(5) 0.1615(3)
C9_6 C 0.6791(2) 0.2994(5) 0.2002(3)
C10_6 C 0.6224(2) 0.3781(5) 0.1858(3)
C11_6 C 0.7738(2) 0.2518(6) 0.2654(3)
C12_6 C 0.8363(3) 0.2536(9) 0.3269(4)
H9_6 H 0.8634 0.2077 0.3082
H10_6 H 0.8488 0.3525 0.3410
H11_6 H 0.8370 0.2017 0.3711
O1_6 O 0.6145(2) 0.3510(5) 0.9555(3)
O2_6 O 0.6643(2) 0.3660(4) 0.8811(3)
O9_6 O 0.51910(19) 0.0884(4) 0.9186(2)
H1_6 H 0.5435 0.0224 0.9427
H2_5 H 0.4837 0.0615 0.9094
O10_5 O 0.48040(18) 0.3684(4) 0.8692(2)
H3_5 H 0.4600 0.4425 0.8691
H4_6 H 0.5020 0.3866 0.8451
N1_6 N 0.6848(2) 0.6499(5) 0.9042(3)
N2_6 N 0.6440(2) 0.8163(5) 0.9506(3)
H5_6 H 0.6358 0.9022 0.9646
C1_6 C 0.6400(2) 0.4215(6) 0.9207(3)
C2_6 C 0.6447(2) 0.5829(6) 0.9290(3)
C3_6 C 0.6181(3) 0.6856(6) 0.9572(3)
C4_6 C 0.5669(2) 0.6832(5) 0.9801(3)
C5_6 C 0.6839(3) 0.7904(6) 0.9192(3)
C6_6 C 0.7198(3) 0.9066(7) 0.9033(4)
H6_6 H 0.7584 0.8683 0.9094
H7_6 H 0.6987 0.9412 0.8516
H8_6 H 0.7256 0.9858 0.9386
H2_6 H 0.0163 0.5615 0.5906
O10_6 O 0.01960(18) 0.8684(4) 0.6308(2)
H3_6 H 0.0400 0.9425 0.6309
N1_7 N 0.8152(2) 0.1499(5) 0.5958(3)
N2_7 N 0.8560(2) 0.3163(5) 0.5494(3)
H5_7 H 0.8642 0.4022 0.5354
C2_7 C 0.8553(2) 0.0829(6) 0.5710(3)
C3_7 C 0.8819(3) 0.1856(6) 0.5428(3)
C4_7 C 0.9331(2) 0.1832(5) 0.5199(3)
C5_7 C 0.8161(3) 0.2904(6) 0.5808(3)
C6_7 C 0.7802(3) 0.4066(7) 0.5967(4)
H6_7 H 0.7416 0.3683 0.5906
H7_7 H 0.8013 0.4412 0.6484
H8_7 H 0.7744 0.4858 0.5614
O1_7 O 0.8855(2) 0.8510(5) 0.5445(3)
O2_7 O 0.8357(2) 0.8660(4) 0.6189(3)
O5_7 O 0.89139(17) 0.6240(4) 0.4461(2)
O7_7 O 0.92243(17) 0.8681(5) 0.3783(2)
O9_7 O 0.98090(19) 0.5884(4) 0.5814(2)
H1_7 H 0.9565 0.5224 0.5573
H4_7 H 0.9980 0.8866 0.6549
C1_7 C 0.8600(2) 0.9215(6) 0.5793(3)
C7_7 C 0.8348(2) 0.6086(5) 0.4080(3)
C8_7 C 0.8032(2) 0.6954(5) 0.3385(3)
C9_7 C 0.8209(2) 0.7994(5) 0.2998(3)
C10_7 C 0.8776(2) 0.8781(5) 0.3142(3)
C11_7 C 0.7262(2) 0.7518(6) 0.2346(3)
C12_7 C 0.6637(3) 0.7536(9) 0.1731(4)
H9_7 H 0.6366 0.7077 0.1918
H10_7 H 0.6512 0.8525 0.1590
H11_7 H 0.6630 0.7017 0.1289
N1_8 N 0.1848(2) 0.1499(5) 0.9042(3)
N2_8 N 0.1440(2) 0.3163(5) 0.9506(3)
H5_8 H 0.1358 0.4022 0.9646
C2_8 C 0.1447(2) 0.0829(6) 0.9290(3)
C3_8 C 0.1181(3) 0.1856(6) 0.9572(3)
C4_8 C 0.0669(2) 0.1832(5) 0.9801(3)
C5_8 C 0.1839(3) 0.2904(6) 0.9192(3)
C6_8 C 0.2198(3) 0.4066(7) 0.9033(4)
H6_8 H 0.2584 0.3683 0.9094
H7_8 H 0.1987 0.4412 0.8516
H8_8 H 0.2256 0.4858 0.9386
O5_8 O 0.10861(17) 0.6240(4) 0.0539(2)
O7_8 O 0.07757(17) 0.8681(5) 0.1217(2)
C7_8 C 0.1652(2) 0.6086(5) 0.0920(3)
C8_8 C 0.1968(2) 0.6954(5) 0.1615(3)
C9_8 C 0.1791(2) 0.7994(5) 0.2002(3)
C10_8 C 0.1224(2) 0.8781(5) 0.1858(3)
C11_8 C 0.2738(2) 0.7518(6) 0.2654(3)
C12_8 C 0.3363(3) 0.7536(9) 0.3269(4)
H9_8 H 0.3634 0.7077 0.3082
H10_8 H 0.3488 0.8525 0.3410
H11_8 H 0.3370 0.7017 0.3711
O1_8 O 0.1145(2) 0.8510(5) 0.9555(3)
O2_8 O 0.1643(2) 0.8660(4) 0.8811(3)
O9_8 O 0.01910(19) 0.5884(4) 0.9186(2)
H1_8 H 0.0435 0.5224 0.9427
H4_8 H 0.0020 0.8866 0.8451
C1_8 C 0.1400(2) 0.9215(6) 0.9207(3)
H2_7 H 0.0163 0.4385 0.0906
O10_7 O 0.01960(18) 0.1316(4) 0.1308(2)
H3_7 H 0.0400 0.0575 0.1309
H2_8 H 0.9837 0.5615 0.9094
O10_8 O 0.98040(18) 0.8684(4) 0.8692(2)
H3_8 H 0.9600 0.9425 0.8691
loop_
_geom_bond_atom_site_label_1
_geom_bond_atom_site_label_2
_geom_bond_site_symmetry_1
_geom_bond_site_symmetry_2
Ho1 O1 1_555 1_555
Zn1 O2 1_555 1_555
O1 C1 1_555 1_555
O2 C1 1_555 1_555
O3 Ho1 1_555 1_555
O4 C4 1_555 1_555
O5 Ho1 1_555 1_555
O6 C7 1_555 1_555
O7 Ho1 1_555 1_555
O8 C10 1_555 1_555
O9 Ho1 1_555 1_555
H1 O9 1_555 1_555
H2 O9 1_555 1_555
O10 Ho1 1_555 1_555
H3 O10 1_555 1_555
H4 O10 1_555 1_555
N1 Zn1 1_555 1_555
N2 H5 1_555 1_555
N3 C8 1_555 1_555
N4 C9 1_555 1_555
C1 C2 1_555 1_555
C2 N1 1_555 1_555
C3 N2 1_555 1_555
C4 O3 1_555 1_555
C5 N1 1_555 1_555
C6 C5 1_555 1_555
H6 C6 1_555 1_555
H7 C6 1_555 1_555
H8 C6 1_555 1_555
C7 O5 1_555 1_555
C8 C7 1_555 1_555
C9 C8 1_555 1_555
C10 O7 1_555 1_555
C11 N3 1_555 1_555
C12 C11 1_555 1_555
H9 C12 1_555 1_555
H10 C12 1_555 1_555
H11 C12 1_555 1_555
Ho2 O3 1_555 1_555
Zn2 O8 1_555 1_555
O11 Ho1 1_555 1_555
O12 Ho1 1_555 1_555
O13 Zn1 1_555 1_555
O14 Zn1 1_555 1_555
N5 Zn1 1_555 1_555
N6 Zn1 1_555 1_555
O4 Ho2 1_555 1_555
N2 C5 1_555 1_555
N4 C11 1_555 1_555
N4 Zn2 1_555 1_555
C2 C3 1_555 1_555
C3 C4 1_555 1_555
C9 C10 1_555 1_555
Ho2 O11 1_555 1_555
Ho1_2 O1_2 1_555 1_555
Zn1_2 O2_2 1_555 1_555
O1_2 C1_2 1_555 1_555
O2_2 C1_2 1_555 1_555
O3_2 Ho1_2 1_555 1_555
O4_2 C4_2 1_555 1_555
O9_2 Ho1_2 1_555 1_555
H1_2 O9_2 1_555 1_555
H2_2 O9_2 1_555 1_555
O10_2 Ho1_2 1_555 1_555
H3_2 O10_2 1_555 1_555
H4_2 O10_2 1_555 1_555
N1_2 Zn1_2 1_555 1_555
N2_2 H5_2 1_555 1_555
C1_2 C2_2 1_555 1_555
C2_2 N1_2 1_555 1_555
C3_2 N2_2 1_555 1_555
C4_2 O3_2 1_555 1_555
C5_2 N1_2 1_555 1_555
C6_2 C5_2 1_555 1_555
H6_2 C6_2 1_555 1_555
H7_2 C6_2 1_555 1_555
H8_2 C6_2 1_555 1_555
O13_2 Zn1_2 1_555 1_555
O14_2 Zn1_2 1_555 1_555
N5_2 Zn1_2 1_555 1_555
N6_2 Zn1_2 1_555 1_555
N2_2 C5_2 1_555 1_555
C2_2 C3_2 1_555 1_555
C3_2 C4_2 1_555 1_555
O6_2 C7_2 1_555 1_555
O8_2 C10_2 1_555 1_555
N3_2 C8_2 1_555 1_555
N4_2 C9_2 1_555 1_555
C7_2 O5_2 1_555 1_555
C8_2 C7_2 1_555 1_555
C9_2 C8_2 1_555 1_555
C10_2 O7_2 1_555 1_555
C11_2 N3_2 1_555 1_555
C12_2 C11_2 1_555 1_555
H9_2 C12_2 1_555 1_555
H10_2 C12_2 1_555 1_555
H11_2 C12_2 1_555 1_555
Zn2_2 O8_2 1_555 1_555
N4_2 C11_2 1_555 1_555
N4_2 Zn2_2 1_555 1_555
C9_2 C10_2 1_555 1_555
Ho2_2 O11_2 1_555 1_555
Ho1_3 O1_3 1_555 1_555
O1_3 C1_3 1_555 1_555
O2_3 C1_3 1_555 1_555
O5_3 Ho1_3 1_555 1_555
O6_3 C7_3 1_555 1_555
O7_3 Ho1_3 1_555 1_555
O8_3 C10_3 1_555 1_555
O9_3 Ho1_3 1_555 1_555
H1_3 O9_3 1_555 1_555
N3_3 C8_3 1_555 1_555
N4_3 C9_3 1_555 1_555
C7_3 O5_3 1_555 1_555
C8_3 C7_3 1_555 1_555
C9_3 C8_3 1_555 1_555
C10_3 O7_3 1_555 1_555
C11_3 N3_3 1_555 1_555
C12_3 C11_3 1_555 1_555
H9_3 C12_3 1_555 1_555
H10_3 C12_3 1_555 1_555
H11_3 C12_3 1_555 1_555
Zn3_2 O8_3 1_555 1_555
Zn2_2 O6_3 1_555 1_555
N3_3 Zn2_2 1_555 1_555
N4_3 C11_3 1_555 1_555
N4_3 Zn3_2 1_555 1_555
C9_3 C10_3 1_555 1_555
O4_3 C4_3 1_555 1_555
N1_3 Zn1_3 1_555 1_555
N2_3 H5_3 1_555 1_555
C2_3 N1_3 1_555 1_555
C3_3 N2_3 1_555 1_555
C4_3 O3_3 1_555 1_555
C5_3 N1_3 1_555 1_555
C6_3 C5_3 1_555 1_555
H6_3 C6_3 1_555 1_555
H7_3 C6_3 1_555 1_555
H8_3 C6_3 1_555 1_555
O14_3 Zn1_3 1_555 1_555
N6_3 Zn1_3 1_555 1_555
N2_3 C5_3 1_555 1_555
C2_3 C3_3 1_555 1_555
C3_3 C4_3 1_555 1_555
H3_3 O10_3 1_555 1_555
Ho1_4 O1_4 1_555 1_555
O1_4 C1_4 1_555 1_555
O2_4 C1_4 1_555 1_555
O9_4 Ho1_4 1_555 1_555
H1_4 O9_4 1_555 1_555
O6_4 C7_4 1_555 1_555
O8_4 C10_4 1_555 1_555
N3_4 C8_4 1_555 1_555
N4_4 C9_4 1_555 1_555
C7_4 O5_4 1_555 1_555
C8_4 C7_4 1_555 1_555
C9_4 C8_4 1_555 1_555
C10_4 O7_4 1_555 1_555
C11_4 N3_4 1_555 1_555
C12_4 C11_4 1_555 1_555
H9_4 C12_4 1_555 1_555
H10_4 C12_4 1_555 1_555
H11_4 C12_4 1_555 1_555
Zn3 O8_4 1_555 1_555
Zn2 O6_4 1_555 1_555
N3_4 Zn2 1_555 1_555
N4_4 C11_4 1_555 1_555
N4_4 Zn3 1_555 1_555
C9_4 C10_4 1_555 1_555
O4_4 C4_4 1_555 1_555
N1_4 Zn1_4 1_555 1_555
N2_4 H5_4 1_555 1_555
C2_4 N1_4 1_555 1_555
C3_4 N2_4 1_555 1_555
C4_4 O3_4 1_555 1_555
C5_4 N1_4 1_555 1_555
C6_4 C5_4 1_555 1_555
H6_4 C6_4 1_555 1_555
H7_4 C6_4 1_555 1_555
H8_4 C6_4 1_555 1_555
O14_4 Zn1_4 1_555 1_555
N6_4 Zn1_4 1_555 1_555
N2_4 C5_4 1_555 1_555
C2_4 C3_4 1_555 1_555
C3_4 C4_4 1_555 1_555
Ho2 O1_5 1_555 1_555
Zn2_2 O2_5 1_555 1_555
O1_5 C1_5 1_555 1_555
O2_5 C1_5 1_555 1_555
O12 C4_5 1_555 1_555
O5_5 Ho2 1_555 1_555
O13_3 C7_5 1_555 1_555
O7_5 Ho2 1_555 1_555
O14_2 C10_5 1_555 1_555
O9_5 Ho2 1_555 1_555
H1_5 O9_5 1_555 1_555
H2_4 O9_5 1_555 1_555
O10_4 Ho2 1_555 1_555
H3_4 O10_4 1_555 1_555
H4_5 O10_4 1_555 1_555
N1_5 Zn2_2 1_555 1_555
N2_5 H5_5 1_555 1_555
N5_3 C8_5 1_555 1_555
N6_2 C9_5 1_555 1_555
C1_5 C2_5 1_555 1_555
C2_5 N1_5 1_555 1_555
C3_5 N2_5 1_555 1_555
C4_5 O11 1_555 1_555
C5_5 N1_5 1_555 1_555
C6_5 C5_5 1_555 1_555
H6_5 C6_5 1_555 1_555
H7_5 C6_5 1_555 1_555
H8_5 C6_5 1_555 1_555
C7_5 O5_5 1_555 1_555
C8_5 C7_5 1_555 1_555
C9_5 C8_5 1_555 1_555
C10_5 O7_5 1_555 1_555
C11_5 N5_3 1_555 1_555
C12_5 C11_5 1_555 1_555
H9_5 C12_5 1_555 1_555
H10_5 C12_5 1_555 1_555
H11_5 C12_5 1_555 1_555
N2_5 C5_5 1_555 1_555
N6_2 C11_5 1_555 1_555
C2_5 C3_5 1_555 1_555
C3_5 C4_5 1_555 1_555
C9_5 C10_5 1_555 1_555
O13_4 C7_6 1_555 1_555
O14 C10_6 1_555 1_555
N5_4 C8_6 1_555 1_555
N6 C9_6 1_555 1_555
C7_6 O5_6 1_555 1_555
C8_6 C7_6 1_555 1_555
C9_6 C8_6 1_555 1_555
C10_6 O7_6 1_555 1_555
C11_6 N5_4 1_555 1_555
C12_6 C11_6 1_555 1_555
H9_6 C12_6 1_555 1_555
H10_6 C12_6 1_555 1_555
H11_6 C12_6 1_555 1_555
N6 C11_6 1_555 1_555
C9_6 C10_6 1_555 1_555
Ho2_2 O1_6 1_555 1_555
Zn2 O2_6 1_555 1_555
O1_6 C1_6 1_555 1_555
O2_6 C1_6 1_555 1_555
O12_2 C4_6 1_555 1_555
O9_6 Ho2_2 1_555 1_555
H1_6 O9_6 1_555 1_555
H2_5 O9_6 1_555 1_555
O10_5 Ho2_2 1_555 1_555
H3_5 O10_5 1_555 1_555
H4_6 O10_5 1_555 1_555
N1_6 Zn2 1_555 1_555
N2_6 H5_6 1_555 1_555
C1_6 C2_6 1_555 1_555
C2_6 N1_6 1_555 1_555
C3_6 N2_6 1_555 1_555
C4_6 O11_2 1_555 1_555
C5_6 N1_6 1_555 1_555
C6_6 C5_6 1_555 1_555
H6_6 C6_6 1_555 1_555
H7_6 C6_6 1_555 1_555
H8_6 C6_6 1_555 1_555
N2_6 C5_6 1_555 1_555
C2_6 C3_6 1_555 1_555
C3_6 C4_6 1_555 1_555
H3_6 O10_6 1_555 1_555
O12_3 C4_7 1_555 1_555
N1_7 Zn3 1_555 1_555
N2_7 H5_7 1_555 1_555
C2_7 N1_7 1_555 1_555
C3_7 N2_7 1_555 1_555
C4_7 O11_3 1_555 1_555
C5_7 N1_7 1_555 1_555
C6_7 C5_7 1_555 1_555
H6_7 C6_7 1_555 1_555
H7_7 C6_7 1_555 1_555
H8_7 C6_7 1_555 1_555
N2_7 C5_7 1_555 1_555
C2_7 C3_7 1_555 1_555
C3_7 C4_7 1_555 1_555
Ho2_3 O1_7 1_555 1_555
O1_7 C1_7 1_555 1_555
O2_7 C1_7 1_555 1_555
O5_7 Ho2_3 1_555 1_555
O13 C7_7 1_555 1_555
O7_7 Ho2_3 1_555 1_555
O14_4 C10_7 1_555 1_555
O9_7 Ho2_3 1_555 1_555
H1_7 O9_7 1_555 1_555
N5 C8_7 1_555 1_555
N6_4 C9_7 1_555 1_555
C7_7 O5_7 1_555 1_555
C8_7 C7_7 1_555 1_555
C9_7 C8_7 1_555 1_555
C10_7 O7_7 1_555 1_555
C11_7 N5 1_555 1_555
C12_7 C11_7 1_555 1_555
H9_7 C12_7 1_555 1_555
H10_7 C12_7 1_555 1_555
H11_7 C12_7 1_555 1_555
N6_4 C11_7 1_555 1_555
C9_7 C10_7 1_555 1_555
O12_4 C4_8 1_555 1_555
N1_8 Zn3_2 1_555 1_555
N2_8 H5_8 1_555 1_555
C2_8 N1_8 1_555 1_555
C3_8 N2_8 1_555 1_555
C4_8 O11_4 1_555 1_555
C5_8 N1_8 1_555 1_555
C6_8 C5_8 1_555 1_555
H6_8 C6_8 1_555 1_555
H7_8 C6_8 1_555 1_555
H8_8 C6_8 1_555 1_555
N2_8 C5_8 1_555 1_555
C2_8 C3_8 1_555 1_555
C3_8 C4_8 1_555 1_555
O13_2 C7_8 1_555 1_555
O14_3 C10_8 1_555 1_555
N5_2 C8_8 1_555 1_555
N6_3 C9_8 1_555 1_555
C7_8 O5_8 1_555 1_555
C8_8 C7_8 1_555 1_555
C9_8 C8_8 1_555 1_555
C10_8 O7_8 1_555 1_555
C11_8 N5_2 1_555 1_555
C12_8 C11_8 1_555 1_555
H9_8 C12_8 1_555 1_555
H10_8 C12_8 1_555 1_555
H11_8 C12_8 1_555 1_555
N6_3 C11_8 1_555 1_555
C9_8 C10_8 1_555 1_555
Ho2_4 O1_8 1_555 1_555
O1_8 C1_8 1_555 1_555
O2_8 C1_8 1_555 1_555
O9_8 Ho2_4 1_555 1_555
H1_8 O9_8 1_555 1_555
H3_7 O10_7 1_555 1_555
H3_8 O10_8 1_555 1_555

#END
