
###############################################################################
#
# This file contains modified crystal structure data generated from the
# MOF subset of the Cambridge Structural Database (CSD) v543 
# hosted by the Cambridge Crystallographic Data Centre (CCDC).
#
# This work is licensed under the Creative Commons
# Attribution-NonCommercial-ShareAlike 4.0 International License.
# To view a copy of this license, visit
# http://creativecommons.org/licenses/by-nc-sa/4.0/
# or send a letter to
# Creative Commons, PO Box 1866, Mountain View, CA 94042, USA.
#
# CIF created using the CSD Python API on 29 September 2022
# The structure has been converted into the P1 space group
# The structure has a 3D framework
# The original CSD entry ZOXTUD is in the monoclinic crystal system
# The framework has been calculated to contain at least 10.0% void space
# The void calculation uses a probe of radius 1.32A, grid spacing 0.4
#
###############################################################################

data_ZOXTUD
_chemical_formula_moiety         '(C96 H88 Co8 N32 O80 Tb8)n'
_symmetry_cell_setting           triclinic
_symmetry_space_group_name_H-M   'P 1'
_symmetry_Int_Tables_number      1
_space_group_name_Hall           'P 1'
loop_
_symmetry_equiv_pos_site_id
_symmetry_equiv_pos_as_xyz
1 x,y,z
_cell_length_a                   24.339(3)
_cell_length_b                   9.1443(12)
_cell_length_c                   19.064(2)
_cell_angle_alpha                90
_cell_angle_beta                 114.6550(10)
_cell_angle_gamma                90
_cell_volume                     3856.14
loop_
_atom_site_label
_atom_site_type_symbol
_atom_site_fract_x
_atom_site_fract_y
_atom_site_fract_z
Co3 Co 0.78858(4) 0.01210(10) 0.66317(5)
Tb1 Tb 0.542350(13) 0.69517(3) 0.494230(18)
Co1 Co 0.71142(4) 0.48790(10) 0.33683(5)
O1 O 0.6152(2) 0.6456(6) 0.4548(3)
O2 O 0.6675(2) 0.6302(5) 0.3842(3)
O3 O 0.54759(19) 0.4316(5) 0.4953(3)
O4 O 0.5411(2) 0.1940(5) 0.4820(3)
O5 O 0.6104(2) 0.8773(5) 0.5537(3)
O6 O 0.6981(2) 0.9804(5) 0.5748(3)
O7 O 0.5784(2) 0.6336(6) 0.6225(3)
O8 O 0.62324(19) 0.5428(5) 0.7413(3)
O9 O 0.5182(2) 0.9141(5) 0.4161(3)
H1 H 0.5426 0.9802 0.4402
H2 H 0.4828 0.9411 0.4069
O10 O 0.4798(2) 0.6318(5) 0.3653(3)
H3 H 0.4594 0.5577 0.3652
H4 H 0.5014 0.6136 0.3411
N1 N 0.6836(2) 0.3433(6) 0.4038(3)
N2 N 0.6414(3) 0.1777(6) 0.4481(4)
H5 H 0.6318 0.0914 0.4601
N3 N 0.7583(2) 0.8367(6) 0.7071(3)
N4 N 0.7299(2) 0.6683(6) 0.7702(3)
C1 C 0.6416(3) 0.5731(7) 0.4223(4)
C2 C 0.6445(3) 0.4120(7) 0.4291(4)
C3 C 0.6175(3) 0.3092(7) 0.4570(4)
C4 C 0.5668(3) 0.3139(8) 0.4796(4)
C5 C 0.6814(3) 0.2018(8) 0.4182(4)
C6 C 0.7162(4) 0.0843(9) 0.4020(5)
H6 H 0.7564 0.1182 0.4139
H7 H 0.6967 0.0579 0.3485
H8 H 0.7180 0.0005 0.4333
C7 C 0.6665(3) 0.8921(7) 0.5929(4)
C8 C 0.6986(3) 0.8064(7) 0.6642(4)
C9 C 0.6804(3) 0.7006(7) 0.7030(4)
C10 C 0.6245(3) 0.6225(7) 0.6879(4)
C11 C 0.7749(3) 0.7517(8) 0.7694(4)
C12 C 0.8367(4) 0.7505(11) 0.8331(5)
H9 H 0.8510 0.8491 0.8455
H10 H 0.8634 0.6970 0.8171
H11 H 0.8356 0.7046 0.8778
Tb2 Tb 0.457650(13) 0.30483(3) 0.505770(18)
Co2 Co 0.71142(4) 0.51210(10) 0.83683(5)
O11 O 0.45241(19) 0.5684(5) 0.5047(3)
O12 O 0.4589(2) 0.8060(5) 0.5180(3)
O13 O 0.8019(2) 0.5196(5) 0.4252(3)
O14 O 0.62324(19) 0.4572(5) 0.2413(3)
N5 N 0.7417(2) 0.6633(6) 0.2929(3)
N6 N 0.7299(2) 0.3317(6) 0.2702(3)
Co3_2 Co 0.21142(4) 0.01210(10) 0.83683(5)
Tb1_2 Tb 0.457650(13) 0.69517(3) 0.005770(18)
Co1_2 Co 0.28858(4) 0.48790(10) 0.16317(5)
O1_2 O 0.3848(2) 0.6456(6) 0.0452(3)
O2_2 O 0.3325(2) 0.6302(5) 0.1158(3)
O3_2 O 0.45241(19) 0.4316(5) 0.0047(3)
O4_2 O 0.4589(2) 0.1940(5) 0.0180(3)
O9_2 O 0.4818(2) 0.9141(5) 0.0839(3)
H1_2 H 0.4574 0.9802 0.0598
H2_2 H 0.5172 0.9411 0.0931
O10_2 O 0.5202(2) 0.6318(5) 0.1347(3)
H3_2 H 0.5406 0.5577 0.1348
H4_2 H 0.4986 0.6136 0.1589
N1_2 N 0.3164(2) 0.3433(6) 0.0962(3)
N2_2 N 0.3586(3) 0.1777(6) 0.0519(4)
H5_2 H 0.3682 0.0914 0.0399
C1_2 C 0.3584(3) 0.5731(7) 0.0777(4)
C2_2 C 0.3555(3) 0.4120(7) 0.0709(4)
C3_2 C 0.3825(3) 0.3092(7) 0.0430(4)
C4_2 C 0.4332(3) 0.3139(8) 0.0204(4)
C5_2 C 0.3186(3) 0.2018(8) 0.0818(4)
C6_2 C 0.2838(4) 0.0843(9) 0.0980(5)
H6_2 H 0.2436 0.1182 0.0861
H7_2 H 0.3033 0.0579 0.1515
H8_2 H 0.2820 0.0005 0.0667
O13_2 O 0.1981(2) 0.5196(5) 0.0748(3)
O14_2 O 0.37676(19) 0.4572(5) 0.2587(3)
N5_2 N 0.2583(2) 0.6633(6) 0.2071(3)
N6_2 N 0.2701(2) 0.3317(6) 0.2298(3)
O5_2 O 0.3896(2) 0.8773(5) 0.9463(3)
O6_2 O 0.3019(2) 0.9804(5) 0.9252(3)
O7_2 O 0.4216(2) 0.6336(6) 0.8775(3)
O8_2 O 0.37676(19) 0.5428(5) 0.7587(3)
N3_2 N 0.2417(2) 0.8367(6) 0.7929(3)
N4_2 N 0.2701(2) 0.6683(6) 0.7298(3)
C7_2 C 0.3335(3) 0.8921(7) 0.9071(4)
C8_2 C 0.3014(3) 0.8064(7) 0.8358(4)
C9_2 C 0.3196(3) 0.7006(7) 0.7970(4)
C10_2 C 0.3755(3) 0.6225(7) 0.8121(4)
C11_2 C 0.2251(3) 0.7517(8) 0.7306(4)
C12_2 C 0.1633(4) 0.7505(11) 0.6669(5)
H9_2 H 0.1490 0.8491 0.6545
H10_2 H 0.1366 0.6970 0.6829
H11_2 H 0.1644 0.7046 0.6222
Tb2_2 Tb 0.542350(13) 0.30483(3) 0.994230(18)
Co2_2 Co 0.28858(4) 0.51210(10) 0.66317(5)
O11_2 O 0.54759(19) 0.5684(5) 0.9953(3)
O12_2 O 0.5411(2) 0.8060(5) 0.9820(3)
Tb1_3 Tb 0.042350(13) 0.19517(3) 0.494230(18)
O1_3 O 0.1152(2) 0.1456(6) 0.4548(3)
O2_3 O 0.1675(2) 0.1302(5) 0.3842(3)
O5_3 O 0.1104(2) 0.3773(5) 0.5537(3)
O6_3 O 0.1981(2) 0.4804(5) 0.5748(3)
O7_3 O 0.0784(2) 0.1336(6) 0.6225(3)
O8_3 O 0.12324(19) 0.0428(5) 0.7413(3)
O9_3 O 0.0182(2) 0.4141(5) 0.4161(3)
H1_3 H 0.0426 0.4802 0.4402
H4_3 H 0.0014 0.1136 0.3411
N3_3 N 0.2583(2) 0.3367(6) 0.7071(3)
N4_3 N 0.2299(2) 0.1683(6) 0.7702(3)
C1_3 C 0.1416(3) 0.0731(7) 0.4223(4)
C7_3 C 0.1665(3) 0.3921(7) 0.5929(4)
C8_3 C 0.1986(3) 0.3064(7) 0.6642(4)
C9_3 C 0.1804(3) 0.2006(7) 0.7030(4)
C10_3 C 0.1245(3) 0.1225(7) 0.6879(4)
C11_3 C 0.2749(3) 0.2517(8) 0.7694(4)
C12_3 C 0.3367(4) 0.2505(11) 0.8331(5)
H9_3 H 0.3510 0.3491 0.8455
H10_3 H 0.3634 0.1970 0.8171
H11_3 H 0.3356 0.2046 0.8778
O13_3 O 0.3019(2) 0.0196(5) 0.4252(3)
N5_3 N 0.2417(2) 0.1633(6) 0.2929(3)
Co1_3 Co 0.21142(4) 0.98790(10) 0.33683(5)
O3_3 O 0.04759(19) 0.9316(5) 0.4953(3)
O4_3 O 0.0411(2) 0.6940(5) 0.4820(3)
N1_3 N 0.1836(2) 0.8433(6) 0.4038(3)
N2_3 N 0.1414(3) 0.6777(6) 0.4481(4)
H5_3 H 0.1318 0.5914 0.4601
C2_3 C 0.1445(3) 0.9120(7) 0.4291(4)
C3_3 C 0.1175(3) 0.8092(7) 0.4570(4)
C4_3 C 0.0668(3) 0.8139(8) 0.4796(4)
C5_3 C 0.1814(3) 0.7018(8) 0.4182(4)
C6_3 C 0.2162(4) 0.5843(9) 0.4020(5)
H6_3 H 0.2564 0.6182 0.4139
H7_3 H 0.1967 0.5579 0.3485
H8_3 H 0.2180 0.5005 0.4333
O14_3 O 0.12324(19) 0.9572(5) 0.2413(3)
N6_3 N 0.2299(2) 0.8317(6) 0.2702(3)
H2_3 H 0.9828 0.4411 0.4069
O10_3 O 0.9798(2) 0.1318(5) 0.3653(3)
H3_3 H 0.9594 0.0577 0.3652
O11_3 O 0.95241(19) 0.0684(5) 0.5047(3)
O12_3 O 0.9589(2) 0.3060(5) 0.5180(3)
Tb2_3 Tb 0.957650(13) 0.80483(3) 0.505770(18)
O11_4 O 0.04759(19) 0.0684(5) 0.9953(3)
O12_4 O 0.0411(2) 0.3060(5) 0.9820(3)
Tb2_4 Tb 0.042350(13) 0.80483(3) 0.994230(18)
Tb1_4 Tb 0.957650(13) 0.19517(3) 0.005770(18)
O1_4 O 0.8848(2) 0.1456(6) 0.0452(3)
O2_4 O 0.8325(2) 0.1302(5) 0.1158(3)
O9_4 O 0.9818(2) 0.4141(5) 0.0839(3)
H1_4 H 0.9574 0.4802 0.0598
H4_4 H 0.9986 0.1136 0.1589
C1_4 C 0.8584(3) 0.0731(7) 0.0777(4)
O13_4 O 0.6981(2) 0.0196(5) 0.0748(3)
N5_4 N 0.7583(2) 0.1633(6) 0.2071(3)
O5_4 O 0.8896(2) 0.3773(5) 0.9463(3)
O6_4 O 0.8019(2) 0.4804(5) 0.9252(3)
O7_4 O 0.9216(2) 0.1336(6) 0.8775(3)
O8_4 O 0.87676(19) 0.0428(5) 0.7587(3)
N3_4 N 0.7417(2) 0.3367(6) 0.7929(3)
N4_4 N 0.7701(2) 0.1683(6) 0.7298(3)
C7_4 C 0.8335(3) 0.3921(7) 0.9071(4)
C8_4 C 0.8014(3) 0.3064(7) 0.8358(4)
C9_4 C 0.8196(3) 0.2006(7) 0.7970(4)
C10_4 C 0.8755(3) 0.1225(7) 0.8121(4)
C11_4 C 0.7251(3) 0.2517(8) 0.7306(4)
C12_4 C 0.6633(4) 0.2505(11) 0.6669(5)
H9_4 H 0.6490 0.3491 0.6545
H10_4 H 0.6366 0.1970 0.6829
H11_4 H 0.6644 0.2046 0.6222
Co1_4 Co 0.78858(4) 0.98790(10) 0.16317(5)
O3_4 O 0.95241(19) 0.9316(5) 0.0047(3)
O4_4 O 0.9589(2) 0.6940(5) 0.0180(3)
N1_4 N 0.8164(2) 0.8433(6) 0.0962(3)
N2_4 N 0.8586(3) 0.6777(6) 0.0519(4)
H5_4 H 0.8682 0.5914 0.0399
C2_4 C 0.8555(3) 0.9120(7) 0.0709(4)
C3_4 C 0.8825(3) 0.8092(7) 0.0430(4)
C4_4 C 0.9332(3) 0.8139(8) 0.0204(4)
C5_4 C 0.8186(3) 0.7018(8) 0.0818(4)
C6_4 C 0.7838(4) 0.5843(9) 0.0980(5)
H6_4 H 0.7436 0.6182 0.0861
H7_4 H 0.8033 0.5579 0.1515
H8_4 H 0.7820 0.5005 0.0667
O14_4 O 0.87676(19) 0.9572(5) 0.2587(3)
N6_4 N 0.7701(2) 0.8317(6) 0.2298(3)
O1_5 O 0.3848(2) 0.3544(6) 0.5452(3)
O2_5 O 0.3325(2) 0.3698(5) 0.6158(3)
O5_5 O 0.3896(2) 0.1227(5) 0.4463(3)
O7_5 O 0.4216(2) 0.3664(6) 0.3775(3)
O9_5 O 0.4818(2) 0.0859(5) 0.5839(3)
H1_5 H 0.4574 0.0198 0.5598
H2_4 H 0.5172 0.0589 0.5931
O10_4 O 0.5202(2) 0.3682(5) 0.6347(3)
H3_4 H 0.5406 0.4423 0.6348
H4_5 H 0.4986 0.3864 0.6589
N1_5 N 0.3164(2) 0.6567(6) 0.5962(3)
N2_5 N 0.3586(3) 0.8223(6) 0.5519(4)
H5_5 H 0.3682 0.9086 0.5399
C1_5 C 0.3584(3) 0.4269(7) 0.5777(4)
C2_5 C 0.3555(3) 0.5880(7) 0.5709(4)
C3_5 C 0.3825(3) 0.6908(7) 0.5430(4)
C4_5 C 0.4332(3) 0.6861(8) 0.5204(4)
C5_5 C 0.3186(3) 0.7982(8) 0.5818(4)
C6_5 C 0.2838(4) 0.9157(9) 0.5980(5)
H6_5 H 0.2436 0.8818 0.5861
H7_5 H 0.3033 0.9421 0.6515
H8_5 H 0.2820 0.9995 0.5667
C7_5 C 0.3335(3) 0.1079(7) 0.4071(4)
C8_5 C 0.3014(3) 0.1936(7) 0.3358(4)
C9_5 C 0.3196(3) 0.2994(7) 0.2970(4)
C10_5 C 0.3755(3) 0.3775(7) 0.3121(4)
C11_5 C 0.2251(3) 0.2483(8) 0.2306(4)
C12_5 C 0.1633(4) 0.2495(11) 0.1669(5)
H9_5 H 0.1490 0.1509 0.1545
H10_5 H 0.1366 0.3030 0.1829
H11_5 H 0.1644 0.2954 0.1222
O5_6 O 0.6104(2) 0.1227(5) 0.0537(3)
O7_6 O 0.5784(2) 0.3664(6) 0.1225(3)
C7_6 C 0.6665(3) 0.1079(7) 0.0929(4)
C8_6 C 0.6986(3) 0.1936(7) 0.1642(4)
C9_6 C 0.6804(3) 0.2994(7) 0.2030(4)
C10_6 C 0.6245(3) 0.3775(7) 0.1879(4)
C11_6 C 0.7749(3) 0.2483(8) 0.2694(4)
C12_6 C 0.8367(4) 0.2495(11) 0.3331(5)
H9_6 H 0.8510 0.1509 0.3455
H10_6 H 0.8634 0.3030 0.3171
H11_6 H 0.8356 0.2954 0.3778
O1_6 O 0.6152(2) 0.3544(6) 0.9548(3)
O2_6 O 0.6675(2) 0.3698(5) 0.8842(3)
O9_6 O 0.5182(2) 0.0859(5) 0.9161(3)
H1_6 H 0.5426 0.0198 0.9402
H2_5 H 0.4828 0.0589 0.9069
O10_5 O 0.4798(2) 0.3682(5) 0.8653(3)
H3_5 H 0.4594 0.4423 0.8652
H4_6 H 0.5014 0.3864 0.8411
N1_6 N 0.6836(2) 0.6567(6) 0.9038(3)
N2_6 N 0.6414(3) 0.8223(6) 0.9481(4)
H5_6 H 0.6318 0.9086 0.9601
C1_6 C 0.6416(3) 0.4269(7) 0.9223(4)
C2_6 C 0.6445(3) 0.5880(7) 0.9291(4)
C3_6 C 0.6175(3) 0.6908(7) 0.9570(4)
C4_6 C 0.5668(3) 0.6861(8) 0.9796(4)
C5_6 C 0.6814(3) 0.7982(8) 0.9182(4)
C6_6 C 0.7162(4) 0.9157(9) 0.9020(5)
H6_6 H 0.7564 0.8818 0.9139
H7_6 H 0.6967 0.9421 0.8485
H8_6 H 0.7180 0.9995 0.9333
H2_6 H 0.0172 0.5589 0.5931
O10_6 O 0.0202(2) 0.8682(5) 0.6347(3)
H3_6 H 0.0406 0.9423 0.6348
N1_7 N 0.8164(2) 0.1567(6) 0.5962(3)
N2_7 N 0.8586(3) 0.3223(6) 0.5519(4)
H5_7 H 0.8682 0.4086 0.5399
C2_7 C 0.8555(3) 0.0880(7) 0.5709(4)
C3_7 C 0.8825(3) 0.1908(7) 0.5430(4)
C4_7 C 0.9332(3) 0.1861(8) 0.5204(4)
C5_7 C 0.8186(3) 0.2982(8) 0.5818(4)
C6_7 C 0.7838(4) 0.4157(9) 0.5980(5)
H6_7 H 0.7436 0.3818 0.5861
H7_7 H 0.8033 0.4421 0.6515
H8_7 H 0.7820 0.4995 0.5667
O1_7 O 0.8848(2) 0.8544(6) 0.5452(3)
O2_7 O 0.8325(2) 0.8698(5) 0.6158(3)
O5_7 O 0.8896(2) 0.6227(5) 0.4463(3)
O7_7 O 0.9216(2) 0.8664(6) 0.3775(3)
O9_7 O 0.9818(2) 0.5859(5) 0.5839(3)
H1_7 H 0.9574 0.5198 0.5598
H4_7 H 0.9986 0.8864 0.6589
C1_7 C 0.8584(3) 0.9269(7) 0.5777(4)
C7_7 C 0.8335(3) 0.6079(7) 0.4071(4)
C8_7 C 0.8014(3) 0.6936(7) 0.3358(4)
C9_7 C 0.8196(3) 0.7994(7) 0.2970(4)
C10_7 C 0.8755(3) 0.8775(7) 0.3121(4)
C11_7 C 0.7251(3) 0.7483(8) 0.2306(4)
C12_7 C 0.6633(4) 0.7495(11) 0.1669(5)
H9_7 H 0.6490 0.6509 0.1545
H10_7 H 0.6366 0.8030 0.1829
H11_7 H 0.6644 0.7954 0.1222
N1_8 N 0.1836(2) 0.1567(6) 0.9038(3)
N2_8 N 0.1414(3) 0.3223(6) 0.9481(4)
H5_8 H 0.1318 0.4086 0.9601
C2_8 C 0.1445(3) 0.0880(7) 0.9291(4)
C3_8 C 0.1175(3) 0.1908(7) 0.9570(4)
C4_8 C 0.0668(3) 0.1861(8) 0.9796(4)
C5_8 C 0.1814(3) 0.2982(8) 0.9182(4)
C6_8 C 0.2162(4) 0.4157(9) 0.9020(5)
H6_8 H 0.2564 0.3818 0.9139
H7_8 H 0.1967 0.4421 0.8485
H8_8 H 0.2180 0.4995 0.9333
O5_8 O 0.1104(2) 0.6227(5) 0.0537(3)
O7_8 O 0.0784(2) 0.8664(6) 0.1225(3)
C7_8 C 0.1665(3) 0.6079(7) 0.0929(4)
C8_8 C 0.1986(3) 0.6936(7) 0.1642(4)
C9_8 C 0.1804(3) 0.7994(7) 0.2030(4)
C10_8 C 0.1245(3) 0.8775(7) 0.1879(4)
C11_8 C 0.2749(3) 0.7483(8) 0.2694(4)
C12_8 C 0.3367(4) 0.7495(11) 0.3331(5)
H9_8 H 0.3510 0.6509 0.3455
H10_8 H 0.3634 0.8030 0.3171
H11_8 H 0.3356 0.7954 0.3778
O1_8 O 0.1152(2) 0.8544(6) 0.9548(3)
O2_8 O 0.1675(2) 0.8698(5) 0.8842(3)
O9_8 O 0.0182(2) 0.5859(5) 0.9161(3)
H1_8 H 0.0426 0.5198 0.9402
H4_8 H 0.0014 0.8864 0.8411
C1_8 C 0.1416(3) 0.9269(7) 0.9223(4)
H2_7 H 0.0172 0.4411 0.0931
O10_7 O 0.0202(2) 0.1318(5) 0.1347(3)
H3_7 H 0.0406 0.0577 0.1348
H2_8 H 0.9828 0.5589 0.9069
O10_8 O 0.9798(2) 0.8682(5) 0.8653(3)
H3_8 H 0.9594 0.9423 0.8652
loop_
_geom_bond_atom_site_label_1
_geom_bond_atom_site_label_2
_geom_bond_site_symmetry_1
_geom_bond_site_symmetry_2
Tb1 O1 1_555 1_555
Co1 O2 1_555 1_555
O1 C1 1_555 1_555
O2 C1 1_555 1_555
O3 Tb1 1_555 1_555
O4 C4 1_555 1_555
O5 Tb1 1_555 1_555
O6 C7 1_555 1_555
O7 Tb1 1_555 1_555
O8 C10 1_555 1_555
O9 Tb1 1_555 1_555
H1 O9 1_555 1_555
H2 O9 1_555 1_555
O10 Tb1 1_555 1_555
H3 O10 1_555 1_555
H4 O10 1_555 1_555
N1 Co1 1_555 1_555
N2 H5 1_555 1_555
N3 C8 1_555 1_555
N4 C9 1_555 1_555
C1 C2 1_555 1_555
C2 N1 1_555 1_555
C3 N2 1_555 1_555
C4 O3 1_555 1_555
C5 N1 1_555 1_555
C6 C5 1_555 1_555
H6 C6 1_555 1_555
H7 C6 1_555 1_555
H8 C6 1_555 1_555
C7 O5 1_555 1_555
C8 C7 1_555 1_555
C9 C8 1_555 1_555
C10 O7 1_555 1_555
C11 N3 1_555 1_555
C12 C11 1_555 1_555
H9 C12 1_555 1_555
H10 C12 1_555 1_555
H11 C12 1_555 1_555
Tb2 O3 1_555 1_555
Co2 O8 1_555 1_555
O11 Tb1 1_555 1_555
O12 Tb1 1_555 1_555
O13 Co1 1_555 1_555
O14 Co1 1_555 1_555
N5 Co1 1_555 1_555
N6 Co1 1_555 1_555
O4 Tb2 1_555 1_555
N2 C5 1_555 1_555
N4 C11 1_555 1_555
N4 Co2 1_555 1_555
C2 C3 1_555 1_555
C3 C4 1_555 1_555
C9 C10 1_555 1_555
Tb2 O11 1_555 1_555
Tb1_2 O1_2 1_555 1_555
Co1_2 O2_2 1_555 1_555
O1_2 C1_2 1_555 1_555
O2_2 C1_2 1_555 1_555
O3_2 Tb1_2 1_555 1_555
O4_2 C4_2 1_555 1_555
O9_2 Tb1_2 1_555 1_555
H1_2 O9_2 1_555 1_555
H2_2 O9_2 1_555 1_555
O10_2 Tb1_2 1_555 1_555
H3_2 O10_2 1_555 1_555
H4_2 O10_2 1_555 1_555
N1_2 Co1_2 1_555 1_555
N2_2 H5_2 1_555 1_555
C1_2 C2_2 1_555 1_555
C2_2 N1_2 1_555 1_555
C3_2 N2_2 1_555 1_555
C4_2 O3_2 1_555 1_555
C5_2 N1_2 1_555 1_555
C6_2 C5_2 1_555 1_555
H6_2 C6_2 1_555 1_555
H7_2 C6_2 1_555 1_555
H8_2 C6_2 1_555 1_555
O13_2 Co1_2 1_555 1_555
O14_2 Co1_2 1_555 1_555
N5_2 Co1_2 1_555 1_555
N6_2 Co1_2 1_555 1_555
N2_2 C5_2 1_555 1_555
C2_2 C3_2 1_555 1_555
C3_2 C4_2 1_555 1_555
O6_2 C7_2 1_555 1_555
O8_2 C10_2 1_555 1_555
N3_2 C8_2 1_555 1_555
N4_2 C9_2 1_555 1_555
C7_2 O5_2 1_555 1_555
C8_2 C7_2 1_555 1_555
C9_2 C8_2 1_555 1_555
C10_2 O7_2 1_555 1_555
C11_2 N3_2 1_555 1_555
C12_2 C11_2 1_555 1_555
H9_2 C12_2 1_555 1_555
H10_2 C12_2 1_555 1_555
H11_2 C12_2 1_555 1_555
Co2_2 O8_2 1_555 1_555
N4_2 C11_2 1_555 1_555
N4_2 Co2_2 1_555 1_555
C9_2 C10_2 1_555 1_555
Tb2_2 O11_2 1_555 1_555
Tb1_3 O1_3 1_555 1_555
O1_3 C1_3 1_555 1_555
O2_3 C1_3 1_555 1_555
O5_3 Tb1_3 1_555 1_555
O6_3 C7_3 1_555 1_555
O7_3 Tb1_3 1_555 1_555
O8_3 C10_3 1_555 1_555
O9_3 Tb1_3 1_555 1_555
H1_3 O9_3 1_555 1_555
N3_3 C8_3 1_555 1_555
N4_3 C9_3 1_555 1_555
C7_3 O5_3 1_555 1_555
C8_3 C7_3 1_555 1_555
C9_3 C8_3 1_555 1_555
C10_3 O7_3 1_555 1_555
C11_3 N3_3 1_555 1_555
C12_3 C11_3 1_555 1_555
H9_3 C12_3 1_555 1_555
H10_3 C12_3 1_555 1_555
H11_3 C12_3 1_555 1_555
Co3_2 O8_3 1_555 1_555
Co2_2 O6_3 1_555 1_555
N3_3 Co2_2 1_555 1_555
N4_3 C11_3 1_555 1_555
N4_3 Co3_2 1_555 1_555
C9_3 C10_3 1_555 1_555
O4_3 C4_3 1_555 1_555
N1_3 Co1_3 1_555 1_555
N2_3 H5_3 1_555 1_555
C2_3 N1_3 1_555 1_555
C3_3 N2_3 1_555 1_555
C4_3 O3_3 1_555 1_555
C5_3 N1_3 1_555 1_555
C6_3 C5_3 1_555 1_555
H6_3 C6_3 1_555 1_555
H7_3 C6_3 1_555 1_555
H8_3 C6_3 1_555 1_555
O14_3 Co1_3 1_555 1_555
N6_3 Co1_3 1_555 1_555
N2_3 C5_3 1_555 1_555
C2_3 C3_3 1_555 1_555
C3_3 C4_3 1_555 1_555
H3_3 O10_3 1_555 1_555
Tb1_4 O1_4 1_555 1_555
O1_4 C1_4 1_555 1_555
O2_4 C1_4 1_555 1_555
O9_4 Tb1_4 1_555 1_555
H1_4 O9_4 1_555 1_555
O6_4 C7_4 1_555 1_555
O8_4 C10_4 1_555 1_555
N3_4 C8_4 1_555 1_555
N4_4 C9_4 1_555 1_555
C7_4 O5_4 1_555 1_555
C8_4 C7_4 1_555 1_555
C9_4 C8_4 1_555 1_555
C10_4 O7_4 1_555 1_555
C11_4 N3_4 1_555 1_555
C12_4 C11_4 1_555 1_555
H9_4 C12_4 1_555 1_555
H10_4 C12_4 1_555 1_555
H11_4 C12_4 1_555 1_555
Co3 O8_4 1_555 1_555
Co2 O6_4 1_555 1_555
N3_4 Co2 1_555 1_555
N4_4 C11_4 1_555 1_555
N4_4 Co3 1_555 1_555
C9_4 C10_4 1_555 1_555
O4_4 C4_4 1_555 1_555
N1_4 Co1_4 1_555 1_555
N2_4 H5_4 1_555 1_555
C2_4 N1_4 1_555 1_555
C3_4 N2_4 1_555 1_555
C4_4 O3_4 1_555 1_555
C5_4 N1_4 1_555 1_555
C6_4 C5_4 1_555 1_555
H6_4 C6_4 1_555 1_555
H7_4 C6_4 1_555 1_555
H8_4 C6_4 1_555 1_555
O14_4 Co1_4 1_555 1_555
N6_4 Co1_4 1_555 1_555
N2_4 C5_4 1_555 1_555
C2_4 C3_4 1_555 1_555
C3_4 C4_4 1_555 1_555
Tb2 O1_5 1_555 1_555
Co2_2 O2_5 1_555 1_555
O1_5 C1_5 1_555 1_555
O2_5 C1_5 1_555 1_555
O12 C4_5 1_555 1_555
O5_5 Tb2 1_555 1_555
O13_3 C7_5 1_555 1_555
O7_5 Tb2 1_555 1_555
O14_2 C10_5 1_555 1_555
O9_5 Tb2 1_555 1_555
H1_5 O9_5 1_555 1_555
H2_4 O9_5 1_555 1_555
O10_4 Tb2 1_555 1_555
H3_4 O10_4 1_555 1_555
H4_5 O10_4 1_555 1_555
N1_5 Co2_2 1_555 1_555
N2_5 H5_5 1_555 1_555
N5_3 C8_5 1_555 1_555
N6_2 C9_5 1_555 1_555
C1_5 C2_5 1_555 1_555
C2_5 N1_5 1_555 1_555
C3_5 N2_5 1_555 1_555
C4_5 O11 1_555 1_555
C5_5 N1_5 1_555 1_555
C6_5 C5_5 1_555 1_555
H6_5 C6_5 1_555 1_555
H7_5 C6_5 1_555 1_555
H8_5 C6_5 1_555 1_555
C7_5 O5_5 1_555 1_555
C8_5 C7_5 1_555 1_555
C9_5 C8_5 1_555 1_555
C10_5 O7_5 1_555 1_555
C11_5 N5_3 1_555 1_555
C12_5 C11_5 1_555 1_555
H9_5 C12_5 1_555 1_555
H10_5 C12_5 1_555 1_555
H11_5 C12_5 1_555 1_555
N2_5 C5_5 1_555 1_555
N6_2 C11_5 1_555 1_555
C2_5 C3_5 1_555 1_555
C3_5 C4_5 1_555 1_555
C9_5 C10_5 1_555 1_555
O13_4 C7_6 1_555 1_555
O14 C10_6 1_555 1_555
N5_4 C8_6 1_555 1_555
N6 C9_6 1_555 1_555
C7_6 O5_6 1_555 1_555
C8_6 C7_6 1_555 1_555
C9_6 C8_6 1_555 1_555
C10_6 O7_6 1_555 1_555
C11_6 N5_4 1_555 1_555
C12_6 C11_6 1_555 1_555
H9_6 C12_6 1_555 1_555
H10_6 C12_6 1_555 1_555
H11_6 C12_6 1_555 1_555
N6 C11_6 1_555 1_555
C9_6 C10_6 1_555 1_555
Tb2_2 O1_6 1_555 1_555
Co2 O2_6 1_555 1_555
O1_6 C1_6 1_555 1_555
O2_6 C1_6 1_555 1_555
O12_2 C4_6 1_555 1_555
O9_6 Tb2_2 1_555 1_555
H1_6 O9_6 1_555 1_555
H2_5 O9_6 1_555 1_555
O10_5 Tb2_2 1_555 1_555
H3_5 O10_5 1_555 1_555
H4_6 O10_5 1_555 1_555
N1_6 Co2 1_555 1_555
N2_6 H5_6 1_555 1_555
C1_6 C2_6 1_555 1_555
C2_6 N1_6 1_555 1_555
C3_6 N2_6 1_555 1_555
C4_6 O11_2 1_555 1_555
C5_6 N1_6 1_555 1_555
C6_6 C5_6 1_555 1_555
H6_6 C6_6 1_555 1_555
H7_6 C6_6 1_555 1_555
H8_6 C6_6 1_555 1_555
N2_6 C5_6 1_555 1_555
C2_6 C3_6 1_555 1_555
C3_6 C4_6 1_555 1_555
H3_6 O10_6 1_555 1_555
O12_3 C4_7 1_555 1_555
N1_7 Co3 1_555 1_555
N2_7 H5_7 1_555 1_555
C2_7 N1_7 1_555 1_555
C3_7 N2_7 1_555 1_555
C4_7 O11_3 1_555 1_555
C5_7 N1_7 1_555 1_555
C6_7 C5_7 1_555 1_555
H6_7 C6_7 1_555 1_555
H7_7 C6_7 1_555 1_555
H8_7 C6_7 1_555 1_555
N2_7 C5_7 1_555 1_555
C2_7 C3_7 1_555 1_555
C3_7 C4_7 1_555 1_555
Tb2_3 O1_7 1_555 1_555
O1_7 C1_7 1_555 1_555
O2_7 C1_7 1_555 1_555
O5_7 Tb2_3 1_555 1_555
O13 C7_7 1_555 1_555
O7_7 Tb2_3 1_555 1_555
O14_4 C10_7 1_555 1_555
O9_7 Tb2_3 1_555 1_555
H1_7 O9_7 1_555 1_555
N5 C8_7 1_555 1_555
N6_4 C9_7 1_555 1_555
C7_7 O5_7 1_555 1_555
C8_7 C7_7 1_555 1_555
C9_7 C8_7 1_555 1_555
C10_7 O7_7 1_555 1_555
C11_7 N5 1_555 1_555
C12_7 C11_7 1_555 1_555
H9_7 C12_7 1_555 1_555
H10_7 C12_7 1_555 1_555
H11_7 C12_7 1_555 1_555
N6_4 C11_7 1_555 1_555
C9_7 C10_7 1_555 1_555
O12_4 C4_8 1_555 1_555
N1_8 Co3_2 1_555 1_555
N2_8 H5_8 1_555 1_555
C2_8 N1_8 1_555 1_555
C3_8 N2_8 1_555 1_555
C4_8 O11_4 1_555 1_555
C5_8 N1_8 1_555 1_555
C6_8 C5_8 1_555 1_555
H6_8 C6_8 1_555 1_555
H7_8 C6_8 1_555 1_555
H8_8 C6_8 1_555 1_555
N2_8 C5_8 1_555 1_555
C2_8 C3_8 1_555 1_555
C3_8 C4_8 1_555 1_555
O13_2 C7_8 1_555 1_555
O14_3 C10_8 1_555 1_555
N5_2 C8_8 1_555 1_555
N6_3 C9_8 1_555 1_555
C7_8 O5_8 1_555 1_555
C8_8 C7_8 1_555 1_555
C9_8 C8_8 1_555 1_555
C10_8 O7_8 1_555 1_555
C11_8 N5_2 1_555 1_555
C12_8 C11_8 1_555 1_555
H9_8 C12_8 1_555 1_555
H10_8 C12_8 1_555 1_555
H11_8 C12_8 1_555 1_555
N6_3 C11_8 1_555 1_555
C9_8 C10_8 1_555 1_555
Tb2_4 O1_8 1_555 1_555
O1_8 C1_8 1_555 1_555
O2_8 C1_8 1_555 1_555
O9_8 Tb2_4 1_555 1_555
H1_8 O9_8 1_555 1_555
H3_7 O10_7 1_555 1_555
H3_8 O10_8 1_555 1_555

#END
