
###############################################################################
#
# This file contains modified crystal structure data generated from the
# MOF subset of the Cambridge Structural Database (CSD) v543 
# hosted by the Cambridge Crystallographic Data Centre (CCDC).
#
# This work is licensed under the Creative Commons
# Attribution-NonCommercial-ShareAlike 4.0 International License.
# To view a copy of this license, visit
# http://creativecommons.org/licenses/by-nc-sa/4.0/
# or send a letter to
# Creative Commons, PO Box 1866, Mountain View, CA 94042, USA.
#
# CIF created using the CSD Python API on 29 September 2022
# The structure has been converted into the P1 space group
# The structure has a 3D framework
# The original CSD entry ZOXVEP is in the monoclinic crystal system
# The framework has been calculated to contain at least 10.0% void space
# The void calculation uses a probe of radius 1.32A, grid spacing 0.4
#
###############################################################################

data_ZOXVEP
_chemical_formula_moiety         '(C96 H88 Co8 Dy8 N32 O80)n'
_symmetry_cell_setting           triclinic
_symmetry_space_group_name_H-M   'P 1'
_symmetry_Int_Tables_number      1
_space_group_name_Hall           'P 1'
loop_
_symmetry_equiv_pos_site_id
_symmetry_equiv_pos_as_xyz
1 x,y,z
_cell_length_a                   24.3237(17)
_cell_length_b                   9.1523(6)
_cell_length_c                   19.0813(13)
_cell_angle_alpha                90
_cell_angle_beta                 114.6250(10)
_cell_angle_gamma                90
_cell_volume                     3861.51
loop_
_atom_site_label
_atom_site_type_symbol
_atom_site_fract_x
_atom_site_fract_y
_atom_site_fract_z
Co3 Co 0.78865(4) 0.01190(10) 0.66312(5)
Dy1 Dy 0.542466(12) 0.69471(3) 0.494620(16)
Co1 Co 0.71135(4) 0.48810(10) 0.33688(5)
O1 O 0.6155(3) 0.6465(6) 0.4559(4)
O2 O 0.6672(2) 0.6305(6) 0.3847(3)
O3 O 0.5471(2) 0.4319(5) 0.4951(3)
O4 O 0.5402(2) 0.1945(5) 0.4815(3)
O5 O 0.6103(2) 0.8767(6) 0.5539(3)
O6 O 0.6981(2) 0.9799(5) 0.5749(3)
O7 O 0.5784(2) 0.6328(6) 0.6224(3)
O8 O 0.6229(2) 0.5434(6) 0.7408(3)
O9 O 0.5175(3) 0.9121(6) 0.4164(3)
H1 H 0.5417 0.9792 0.4400
H2 H 0.4820 0.9381 0.4073
O10 O 0.4803(2) 0.6300(6) 0.3665(3)
H3 H 0.4598 0.5559 0.3661
H4 H 0.5020 0.6112 0.3430
N1 N 0.6833(3) 0.3430(7) 0.4039(3)
N2 N 0.6417(3) 0.1776(6) 0.4491(4)
H5 H 0.6329 0.0917 0.4625
N3 N 0.7582(2) 0.8363(6) 0.7074(3)
N4 N 0.7300(3) 0.6670(6) 0.7694(3)
C1 C 0.6417(3) 0.5739(7) 0.4225(4)
C2 C 0.6446(3) 0.4117(7) 0.4289(4)
C3 C 0.6169(3) 0.3092(8) 0.4565(4)
C4 C 0.5658(3) 0.3127(7) 0.4794(4)
C5 C 0.6814(3) 0.2021(8) 0.4180(4)
C6 C 0.7161(4) 0.0856(10) 0.4013(6)
H6 H 0.7574 0.1159 0.4180
H7 H 0.6989 0.0668 0.3469
C7 C 0.6669(3) 0.8908(7) 0.5928(4)
C8 C 0.6984(3) 0.8050(7) 0.6637(4)
C9 C 0.6809(3) 0.7003(7) 0.7032(4)
C10 C 0.6243(3) 0.6218(8) 0.6877(4)
C11 C 0.7746(3) 0.7518(9) 0.7696(4)
C12 C 0.8369(4) 0.7522(13) 0.8327(5)
H9 H 0.8659 0.7578 0.8109
H10 H 0.8432 0.6641 0.8623
H11 H 0.8415 0.8351 0.8656
Dy2 Dy 0.457534(12) 0.30529(3) 0.505380(16)
Co2 Co 0.71135(4) 0.51190(10) 0.83688(5)
O11 O 0.4529(2) 0.5681(5) 0.5049(3)
O12 O 0.4598(2) 0.8055(5) 0.5185(3)
O13 O 0.8019(2) 0.5201(5) 0.4251(3)
O14 O 0.6229(2) 0.4566(6) 0.2408(3)
N5 N 0.7418(2) 0.6637(6) 0.2926(3)
N6 N 0.7300(3) 0.3330(6) 0.2694(3)
Co3_2 Co 0.21135(4) 0.01190(10) 0.83688(5)
Dy1_2 Dy 0.457534(12) 0.69471(3) 0.005380(16)
Co1_2 Co 0.28865(4) 0.48810(10) 0.16312(5)
O1_2 O 0.3845(3) 0.6465(6) 0.0441(4)
O2_2 O 0.3328(2) 0.6305(6) 0.1153(3)
O3_2 O 0.4529(2) 0.4319(5) 0.0049(3)
O4_2 O 0.4598(2) 0.1945(5) 0.0185(3)
O9_2 O 0.4825(3) 0.9121(6) 0.0836(3)
H1_2 H 0.4583 0.9792 0.0600
H2_2 H 0.5180 0.9381 0.0927
O10_2 O 0.5197(2) 0.6300(6) 0.1335(3)
H3_2 H 0.5402 0.5559 0.1339
H4_2 H 0.4980 0.6112 0.1570
N1_2 N 0.3167(3) 0.3430(7) 0.0961(3)
N2_2 N 0.3583(3) 0.1776(6) 0.0509(4)
H5_2 H 0.3671 0.0917 0.0375
C1_2 C 0.3583(3) 0.5739(7) 0.0775(4)
C2_2 C 0.3554(3) 0.4117(7) 0.0711(4)
C3_2 C 0.3831(3) 0.3092(8) 0.0435(4)
C4_2 C 0.4342(3) 0.3127(7) 0.0206(4)
C5_2 C 0.3186(3) 0.2021(8) 0.0820(4)
C6_2 C 0.2839(4) 0.0856(10) 0.0987(6)
H6_2 H 0.2426 0.1159 0.0820
H7_2 H 0.3011 0.0668 0.1531
O13_2 O 0.1981(2) 0.5201(5) 0.0749(3)
O14_2 O 0.3771(2) 0.4566(6) 0.2592(3)
N5_2 N 0.2582(2) 0.6637(6) 0.2074(3)
N6_2 N 0.2700(3) 0.3330(6) 0.2306(3)
O5_2 O 0.3897(2) 0.8767(6) 0.9461(3)
O6_2 O 0.3019(2) 0.9799(5) 0.9251(3)
O7_2 O 0.4216(2) 0.6328(6) 0.8776(3)
O8_2 O 0.3771(2) 0.5434(6) 0.7592(3)
N3_2 N 0.2418(2) 0.8363(6) 0.7926(3)
N4_2 N 0.2700(3) 0.6670(6) 0.7306(3)
C7_2 C 0.3331(3) 0.8908(7) 0.9072(4)
C8_2 C 0.3016(3) 0.8050(7) 0.8363(4)
C9_2 C 0.3191(3) 0.7003(7) 0.7968(4)
C10_2 C 0.3757(3) 0.6218(8) 0.8123(4)
C11_2 C 0.2254(3) 0.7518(9) 0.7304(4)
C12_2 C 0.1631(4) 0.7522(13) 0.6673(5)
H9_2 H 0.1341 0.7578 0.6891
H10_2 H 0.1568 0.6641 0.6377
H11_2 H 0.1585 0.8351 0.6344
Dy2_2 Dy 0.542466(12) 0.30529(3) 0.994620(16)
Co2_2 Co 0.28865(4) 0.51190(10) 0.66312(5)
O11_2 O 0.5471(2) 0.5681(5) 0.9951(3)
O12_2 O 0.5402(2) 0.8055(5) 0.9815(3)
Dy1_3 Dy 0.042466(12) 0.19471(3) 0.494620(16)
O1_3 O 0.1155(3) 0.1465(6) 0.4559(4)
O2_3 O 0.1672(2) 0.1305(6) 0.3847(3)
O5_3 O 0.1103(2) 0.3767(6) 0.5539(3)
O6_3 O 0.1981(2) 0.4799(5) 0.5749(3)
O7_3 O 0.0784(2) 0.1328(6) 0.6224(3)
O8_3 O 0.1229(2) 0.0434(6) 0.7408(3)
O9_3 O 0.0175(3) 0.4121(6) 0.4164(3)
H1_3 H 0.0417 0.4792 0.4400
H4_3 H 0.0020 0.1112 0.3430
N3_3 N 0.2582(2) 0.3363(6) 0.7074(3)
N4_3 N 0.2300(3) 0.1670(6) 0.7694(3)
C1_3 C 0.1417(3) 0.0739(7) 0.4225(4)
C7_3 C 0.1669(3) 0.3908(7) 0.5928(4)
C8_3 C 0.1984(3) 0.3050(7) 0.6637(4)
C9_3 C 0.1809(3) 0.2003(7) 0.7032(4)
C10_3 C 0.1243(3) 0.1218(8) 0.6877(4)
C11_3 C 0.2746(3) 0.2518(9) 0.7696(4)
C12_3 C 0.3369(4) 0.2522(13) 0.8327(5)
H9_3 H 0.3659 0.2578 0.8109
H10_3 H 0.3432 0.1641 0.8623
H11_3 H 0.3415 0.3351 0.8656
O13_3 O 0.3019(2) 0.0201(5) 0.4251(3)
N5_3 N 0.2418(2) 0.1637(6) 0.2926(3)
Co1_3 Co 0.21135(4) 0.98810(10) 0.33688(5)
O3_3 O 0.0471(2) 0.9319(5) 0.4951(3)
O4_3 O 0.0402(2) 0.6945(5) 0.4815(3)
N1_3 N 0.1833(3) 0.8430(7) 0.4039(3)
N2_3 N 0.1417(3) 0.6776(6) 0.4491(4)
H5_3 H 0.1329 0.5917 0.4625
C2_3 C 0.1446(3) 0.9117(7) 0.4289(4)
C3_3 C 0.1169(3) 0.8092(8) 0.4565(4)
C4_3 C 0.0658(3) 0.8127(7) 0.4794(4)
C5_3 C 0.1814(3) 0.7021(8) 0.4180(4)
C6_3 C 0.2161(4) 0.5856(10) 0.4013(6)
H6_3 H 0.2574 0.6159 0.4180
H7_3 H 0.1989 0.5668 0.3469
H8 H 0.2145 0.4982 0.4282
O14_3 O 0.1229(2) 0.9566(6) 0.2408(3)
N6_3 N 0.2300(3) 0.8330(6) 0.2694(3)
H2_3 H 0.9820 0.4381 0.4073
O10_3 O 0.9803(2) 0.1300(6) 0.3665(3)
H3_3 H 0.9598 0.0559 0.3661
O11_3 O 0.9529(2) 0.0681(5) 0.5049(3)
O12_3 O 0.9598(2) 0.3055(5) 0.5185(3)
Dy2_3 Dy 0.957534(12) 0.80529(3) 0.505380(16)
O11_4 O 0.0471(2) 0.0681(5) 0.9951(3)
O12_4 O 0.0402(2) 0.3055(5) 0.9815(3)
Dy2_4 Dy 0.042466(12) 0.80529(3) 0.994620(16)
Dy1_4 Dy 0.957534(12) 0.19471(3) 0.005380(16)
O1_4 O 0.8845(3) 0.1465(6) 0.0441(4)
O2_4 O 0.8328(2) 0.1305(6) 0.1153(3)
O9_4 O 0.9825(3) 0.4121(6) 0.0836(3)
H1_4 H 0.9583 0.4792 0.0600
H4_4 H 0.9980 0.1112 0.1570
C1_4 C 0.8583(3) 0.0739(7) 0.0775(4)
O13_4 O 0.6981(2) 0.0201(5) 0.0749(3)
N5_4 N 0.7582(2) 0.1637(6) 0.2074(3)
O5_4 O 0.8897(2) 0.3767(6) 0.9461(3)
O6_4 O 0.8019(2) 0.4799(5) 0.9251(3)
O7_4 O 0.9216(2) 0.1328(6) 0.8776(3)
O8_4 O 0.8771(2) 0.0434(6) 0.7592(3)
N3_4 N 0.7418(2) 0.3363(6) 0.7926(3)
N4_4 N 0.7700(3) 0.1670(6) 0.7306(3)
C7_4 C 0.8331(3) 0.3908(7) 0.9072(4)
C8_4 C 0.8016(3) 0.3050(7) 0.8363(4)
C9_4 C 0.8191(3) 0.2003(7) 0.7968(4)
C10_4 C 0.8757(3) 0.1218(8) 0.8123(4)
C11_4 C 0.7254(3) 0.2518(9) 0.7304(4)
C12_4 C 0.6631(4) 0.2522(13) 0.6673(5)
H9_4 H 0.6341 0.2578 0.6891
H10_4 H 0.6568 0.1641 0.6377
H11_4 H 0.6585 0.3351 0.6344
Co1_4 Co 0.78865(4) 0.98810(10) 0.16312(5)
O3_4 O 0.9529(2) 0.9319(5) 0.0049(3)
O4_4 O 0.9598(2) 0.6945(5) 0.0185(3)
N1_4 N 0.8167(3) 0.8430(7) 0.0961(3)
N2_4 N 0.8583(3) 0.6776(6) 0.0509(4)
H5_4 H 0.8671 0.5917 0.0375
C2_4 C 0.8554(3) 0.9117(7) 0.0711(4)
C3_4 C 0.8831(3) 0.8092(8) 0.0435(4)
C4_4 C 0.9342(3) 0.8127(7) 0.0206(4)
C5_4 C 0.8186(3) 0.7021(8) 0.0820(4)
C6_4 C 0.7839(4) 0.5856(10) 0.0987(6)
H6_4 H 0.7426 0.6159 0.0820
H7_4 H 0.8011 0.5668 0.1531
H8_2 H 0.7855 0.4982 0.0718
O14_4 O 0.8771(2) 0.9566(6) 0.2592(3)
N6_4 N 0.7700(3) 0.8330(6) 0.2306(3)
O1_5 O 0.3845(3) 0.3535(6) 0.5441(4)
O2_5 O 0.3328(2) 0.3695(6) 0.6153(3)
O5_5 O 0.3897(2) 0.1233(6) 0.4461(3)
O7_5 O 0.4216(2) 0.3672(6) 0.3776(3)
O9_5 O 0.4825(3) 0.0879(6) 0.5836(3)
H1_5 H 0.4583 0.0208 0.5600
H2_4 H 0.5180 0.0619 0.5927
O10_4 O 0.5197(2) 0.3700(6) 0.6335(3)
H3_4 H 0.5402 0.4441 0.6339
H4_5 H 0.4980 0.3888 0.6570
N1_5 N 0.3167(3) 0.6570(7) 0.5961(3)
N2_5 N 0.3583(3) 0.8224(6) 0.5509(4)
H5_5 H 0.3671 0.9083 0.5375
C1_5 C 0.3583(3) 0.4261(7) 0.5775(4)
C2_5 C 0.3554(3) 0.5883(7) 0.5711(4)
C3_5 C 0.3831(3) 0.6908(8) 0.5435(4)
C4_5 C 0.4342(3) 0.6873(7) 0.5206(4)
C5_5 C 0.3186(3) 0.7979(8) 0.5820(4)
C6_5 C 0.2839(4) 0.9144(10) 0.5987(6)
H6_5 H 0.2426 0.8841 0.5820
H7_5 H 0.3011 0.9332 0.6531
C7_5 C 0.3331(3) 0.1092(7) 0.4072(4)
C8_5 C 0.3016(3) 0.1950(7) 0.3363(4)
C9_5 C 0.3191(3) 0.2997(7) 0.2968(4)
C10_5 C 0.3757(3) 0.3782(8) 0.3123(4)
C11_5 C 0.2254(3) 0.2482(9) 0.2304(4)
C12_5 C 0.1631(4) 0.2478(13) 0.1673(5)
H9_5 H 0.1341 0.2422 0.1891
H10_5 H 0.1568 0.3359 0.1377
H11_5 H 0.1585 0.1649 0.1344
O5_6 O 0.6103(2) 0.1233(6) 0.0539(3)
O7_6 O 0.5784(2) 0.3672(6) 0.1224(3)
C7_6 C 0.6669(3) 0.1092(7) 0.0928(4)
C8_6 C 0.6984(3) 0.1950(7) 0.1637(4)
C9_6 C 0.6809(3) 0.2997(7) 0.2032(4)
C10_6 C 0.6243(3) 0.3782(8) 0.1877(4)
C11_6 C 0.7746(3) 0.2482(9) 0.2696(4)
C12_6 C 0.8369(4) 0.2478(13) 0.3327(5)
H9_6 H 0.8659 0.2422 0.3109
H10_6 H 0.8432 0.3359 0.3623
H11_6 H 0.8415 0.1649 0.3656
O1_6 O 0.6155(3) 0.3535(6) 0.9559(4)
O2_6 O 0.6672(2) 0.3695(6) 0.8847(3)
O9_6 O 0.5175(3) 0.0879(6) 0.9164(3)
H1_6 H 0.5417 0.0208 0.9400
H2_5 H 0.4820 0.0619 0.9073
O10_5 O 0.4803(2) 0.3700(6) 0.8665(3)
H3_5 H 0.4598 0.4441 0.8661
H4_6 H 0.5020 0.3888 0.8430
N1_6 N 0.6833(3) 0.6570(7) 0.9039(3)
N2_6 N 0.6417(3) 0.8224(6) 0.9491(4)
H5_6 H 0.6329 0.9083 0.9625
C1_6 C 0.6417(3) 0.4261(7) 0.9225(4)
C2_6 C 0.6446(3) 0.5883(7) 0.9289(4)
C3_6 C 0.6169(3) 0.6908(8) 0.9565(4)
C4_6 C 0.5658(3) 0.6873(7) 0.9794(4)
C5_6 C 0.6814(3) 0.7979(8) 0.9180(4)
C6_6 C 0.7161(4) 0.9144(10) 0.9013(6)
H6_6 H 0.7574 0.8841 0.9180
H7_6 H 0.6989 0.9332 0.8469
H2_6 H 0.0180 0.5619 0.5927
O10_6 O 0.0197(2) 0.8700(6) 0.6335(3)
H3_6 H 0.0402 0.9441 0.6339
N1_7 N 0.8167(3) 0.1570(7) 0.5961(3)
N2_7 N 0.8583(3) 0.3224(6) 0.5509(4)
H5_7 H 0.8671 0.4083 0.5375
C2_7 C 0.8554(3) 0.0883(7) 0.5711(4)
C3_7 C 0.8831(3) 0.1908(8) 0.5435(4)
C4_7 C 0.9342(3) 0.1873(7) 0.5206(4)
C5_7 C 0.8186(3) 0.2979(8) 0.5820(4)
C6_7 C 0.7839(4) 0.4144(10) 0.5987(6)
H6_7 H 0.7426 0.3841 0.5820
H7_7 H 0.8011 0.4332 0.6531
H8_3 H 0.7855 0.5018 0.5718
O1_7 O 0.8845(3) 0.8535(6) 0.5441(4)
O2_7 O 0.8328(2) 0.8695(6) 0.6153(3)
O5_7 O 0.8897(2) 0.6233(6) 0.4461(3)
O7_7 O 0.9216(2) 0.8672(6) 0.3776(3)
O9_7 O 0.9825(3) 0.5879(6) 0.5836(3)
H1_7 H 0.9583 0.5208 0.5600
H4_7 H 0.9980 0.8888 0.6570
C1_7 C 0.8583(3) 0.9261(7) 0.5775(4)
C7_7 C 0.8331(3) 0.6092(7) 0.4072(4)
C8_7 C 0.8016(3) 0.6950(7) 0.3363(4)
C9_7 C 0.8191(3) 0.7997(7) 0.2968(4)
C10_7 C 0.8757(3) 0.8782(8) 0.3123(4)
C11_7 C 0.7254(3) 0.7482(9) 0.2304(4)
C12_7 C 0.6631(4) 0.7478(13) 0.1673(5)
H9_7 H 0.6341 0.7422 0.1891
H10_7 H 0.6568 0.8359 0.1377
H11_7 H 0.6585 0.6649 0.1344
N1_8 N 0.1833(3) 0.1570(7) 0.9039(3)
N2_8 N 0.1417(3) 0.3224(6) 0.9491(4)
H5_8 H 0.1329 0.4083 0.9625
C2_8 C 0.1446(3) 0.0883(7) 0.9289(4)
C3_8 C 0.1169(3) 0.1908(8) 0.9565(4)
C4_8 C 0.0658(3) 0.1873(7) 0.9794(4)
C5_8 C 0.1814(3) 0.2979(8) 0.9180(4)
C6_8 C 0.2161(4) 0.4144(10) 0.9013(6)
H6_8 H 0.2574 0.3841 0.9180
H7_8 H 0.1989 0.4332 0.8469
H8_4 H 0.2145 0.5018 0.9282
O5_8 O 0.1103(2) 0.6233(6) 0.0539(3)
O7_8 O 0.0784(2) 0.8672(6) 0.1224(3)
C7_8 C 0.1669(3) 0.6092(7) 0.0928(4)
C8_8 C 0.1984(3) 0.6950(7) 0.1637(4)
C9_8 C 0.1809(3) 0.7997(7) 0.2032(4)
C10_8 C 0.1243(3) 0.8782(8) 0.1877(4)
C11_8 C 0.2746(3) 0.7482(9) 0.2696(4)
C12_8 C 0.3369(4) 0.7478(13) 0.3327(5)
H9_8 H 0.3659 0.7422 0.3109
H10_8 H 0.3432 0.8359 0.3623
H11_8 H 0.3415 0.6649 0.3656
O1_8 O 0.1155(3) 0.8535(6) 0.9559(4)
O2_8 O 0.1672(2) 0.8695(6) 0.8847(3)
O9_8 O 0.0175(3) 0.5879(6) 0.9164(3)
H1_8 H 0.0417 0.5208 0.9400
H4_8 H 0.0020 0.8888 0.8430
C1_8 C 0.1417(3) 0.9261(7) 0.9225(4)
H8_5 H 0.7145 0.9982 0.4282
H8_6 H 0.2855 0.9982 0.0718
H2_7 H 0.0180 0.4381 0.0927
O10_7 O 0.0197(2) 0.1300(6) 0.1335(3)
H3_7 H 0.0402 0.0559 0.1339
H8_7 H 0.2855 0.0018 0.5718
H8_8 H 0.7145 0.0018 0.9282
H2_8 H 0.9820 0.5619 0.9073
O10_8 O 0.9803(2) 0.8700(6) 0.8665(3)
H3_8 H 0.9598 0.9441 0.8661
loop_
_geom_bond_atom_site_label_1
_geom_bond_atom_site_label_2
_geom_bond_site_symmetry_1
_geom_bond_site_symmetry_2
Dy1 O1 1_555 1_555
Co1 O2 1_555 1_555
O1 C1 1_555 1_555
O2 C1 1_555 1_555
O3 Dy1 1_555 1_555
O4 C4 1_555 1_555
O5 Dy1 1_555 1_555
O6 C7 1_555 1_555
O7 Dy1 1_555 1_555
O8 C10 1_555 1_555
O9 Dy1 1_555 1_555
H1 O9 1_555 1_555
H2 O9 1_555 1_555
O10 Dy1 1_555 1_555
H3 O10 1_555 1_555
H4 O10 1_555 1_555
N1 Co1 1_555 1_555
N2 H5 1_555 1_555
N3 C8 1_555 1_555
N4 C9 1_555 1_555
C1 C2 1_555 1_555
C2 N1 1_555 1_555
C3 N2 1_555 1_555
C4 O3 1_555 1_555
C5 N1 1_555 1_555
C6 C5 1_555 1_555
H6 C6 1_555 1_555
H7 C6 1_555 1_555
C7 O5 1_555 1_555
C8 C7 1_555 1_555
C9 C8 1_555 1_555
C10 O7 1_555 1_555
C11 N3 1_555 1_555
C12 C11 1_555 1_555
H9 C12 1_555 1_555
H10 C12 1_555 1_555
H11 C12 1_555 1_555
Dy2 O3 1_555 1_555
Co2 O8 1_555 1_555
O11 Dy1 1_555 1_555
O12 Dy1 1_555 1_555
O13 Co1 1_555 1_555
O14 Co1 1_555 1_555
N5 Co1 1_555 1_555
N6 Co1 1_555 1_555
O4 Dy2 1_555 1_555
N2 C5 1_555 1_555
N4 C11 1_555 1_555
N4 Co2 1_555 1_555
C2 C3 1_555 1_555
C3 C4 1_555 1_555
C9 C10 1_555 1_555
Dy2 O11 1_555 1_555
Dy1_2 O1_2 1_555 1_555
Co1_2 O2_2 1_555 1_555
O1_2 C1_2 1_555 1_555
O2_2 C1_2 1_555 1_555
O3_2 Dy1_2 1_555 1_555
O4_2 C4_2 1_555 1_555
O9_2 Dy1_2 1_555 1_555
H1_2 O9_2 1_555 1_555
H2_2 O9_2 1_555 1_555
O10_2 Dy1_2 1_555 1_555
H3_2 O10_2 1_555 1_555
H4_2 O10_2 1_555 1_555
N1_2 Co1_2 1_555 1_555
N2_2 H5_2 1_555 1_555
C1_2 C2_2 1_555 1_555
C2_2 N1_2 1_555 1_555
C3_2 N2_2 1_555 1_555
C4_2 O3_2 1_555 1_555
C5_2 N1_2 1_555 1_555
C6_2 C5_2 1_555 1_555
H6_2 C6_2 1_555 1_555
H7_2 C6_2 1_555 1_555
O13_2 Co1_2 1_555 1_555
O14_2 Co1_2 1_555 1_555
N5_2 Co1_2 1_555 1_555
N6_2 Co1_2 1_555 1_555
N2_2 C5_2 1_555 1_555
C2_2 C3_2 1_555 1_555
C3_2 C4_2 1_555 1_555
O6_2 C7_2 1_555 1_555
O8_2 C10_2 1_555 1_555
N3_2 C8_2 1_555 1_555
N4_2 C9_2 1_555 1_555
C7_2 O5_2 1_555 1_555
C8_2 C7_2 1_555 1_555
C9_2 C8_2 1_555 1_555
C10_2 O7_2 1_555 1_555
C11_2 N3_2 1_555 1_555
C12_2 C11_2 1_555 1_555
H9_2 C12_2 1_555 1_555
H10_2 C12_2 1_555 1_555
H11_2 C12_2 1_555 1_555
Co2_2 O8_2 1_555 1_555
N4_2 C11_2 1_555 1_555
N4_2 Co2_2 1_555 1_555
C9_2 C10_2 1_555 1_555
Dy2_2 O11_2 1_555 1_555
Dy1_3 O1_3 1_555 1_555
O1_3 C1_3 1_555 1_555
O2_3 C1_3 1_555 1_555
O5_3 Dy1_3 1_555 1_555
O6_3 C7_3 1_555 1_555
O7_3 Dy1_3 1_555 1_555
O8_3 C10_3 1_555 1_555
O9_3 Dy1_3 1_555 1_555
H1_3 O9_3 1_555 1_555
N3_3 C8_3 1_555 1_555
N4_3 C9_3 1_555 1_555
C7_3 O5_3 1_555 1_555
C8_3 C7_3 1_555 1_555
C9_3 C8_3 1_555 1_555
C10_3 O7_3 1_555 1_555
C11_3 N3_3 1_555 1_555
C12_3 C11_3 1_555 1_555
H9_3 C12_3 1_555 1_555
H10_3 C12_3 1_555 1_555
H11_3 C12_3 1_555 1_555
Co3_2 O8_3 1_555 1_555
Co2_2 O6_3 1_555 1_555
N3_3 Co2_2 1_555 1_555
N4_3 C11_3 1_555 1_555
N4_3 Co3_2 1_555 1_555
C9_3 C10_3 1_555 1_555
O4_3 C4_3 1_555 1_555
N1_3 Co1_3 1_555 1_555
N2_3 H5_3 1_555 1_555
C2_3 N1_3 1_555 1_555
C3_3 N2_3 1_555 1_555
C4_3 O3_3 1_555 1_555
C5_3 N1_3 1_555 1_555
C6_3 C5_3 1_555 1_555
H6_3 C6_3 1_555 1_555
H7_3 C6_3 1_555 1_555
H8 C6_3 1_555 1_555
O14_3 Co1_3 1_555 1_555
N6_3 Co1_3 1_555 1_555
N2_3 C5_3 1_555 1_555
C2_3 C3_3 1_555 1_555
C3_3 C4_3 1_555 1_555
H3_3 O10_3 1_555 1_555
Dy1_4 O1_4 1_555 1_555
O1_4 C1_4 1_555 1_555
O2_4 C1_4 1_555 1_555
O9_4 Dy1_4 1_555 1_555
H1_4 O9_4 1_555 1_555
O6_4 C7_4 1_555 1_555
O8_4 C10_4 1_555 1_555
N3_4 C8_4 1_555 1_555
N4_4 C9_4 1_555 1_555
C7_4 O5_4 1_555 1_555
C8_4 C7_4 1_555 1_555
C9_4 C8_4 1_555 1_555
C10_4 O7_4 1_555 1_555
C11_4 N3_4 1_555 1_555
C12_4 C11_4 1_555 1_555
H9_4 C12_4 1_555 1_555
H10_4 C12_4 1_555 1_555
H11_4 C12_4 1_555 1_555
Co3 O8_4 1_555 1_555
Co2 O6_4 1_555 1_555
N3_4 Co2 1_555 1_555
N4_4 C11_4 1_555 1_555
N4_4 Co3 1_555 1_555
C9_4 C10_4 1_555 1_555
O4_4 C4_4 1_555 1_555
N1_4 Co1_4 1_555 1_555
N2_4 H5_4 1_555 1_555
C2_4 N1_4 1_555 1_555
C3_4 N2_4 1_555 1_555
C4_4 O3_4 1_555 1_555
C5_4 N1_4 1_555 1_555
C6_4 C5_4 1_555 1_555
H6_4 C6_4 1_555 1_555
H7_4 C6_4 1_555 1_555
H8_2 C6_4 1_555 1_555
O14_4 Co1_4 1_555 1_555
N6_4 Co1_4 1_555 1_555
N2_4 C5_4 1_555 1_555
C2_4 C3_4 1_555 1_555
C3_4 C4_4 1_555 1_555
Dy2 O1_5 1_555 1_555
Co2_2 O2_5 1_555 1_555
O1_5 C1_5 1_555 1_555
O2_5 C1_5 1_555 1_555
O12 C4_5 1_555 1_555
O5_5 Dy2 1_555 1_555
O13_3 C7_5 1_555 1_555
O7_5 Dy2 1_555 1_555
O14_2 C10_5 1_555 1_555
O9_5 Dy2 1_555 1_555
H1_5 O9_5 1_555 1_555
H2_4 O9_5 1_555 1_555
O10_4 Dy2 1_555 1_555
H3_4 O10_4 1_555 1_555
H4_5 O10_4 1_555 1_555
N1_5 Co2_2 1_555 1_555
N2_5 H5_5 1_555 1_555
N5_3 C8_5 1_555 1_555
N6_2 C9_5 1_555 1_555
C1_5 C2_5 1_555 1_555
C2_5 N1_5 1_555 1_555
C3_5 N2_5 1_555 1_555
C4_5 O11 1_555 1_555
C5_5 N1_5 1_555 1_555
C6_5 C5_5 1_555 1_555
H6_5 C6_5 1_555 1_555
H7_5 C6_5 1_555 1_555
C7_5 O5_5 1_555 1_555
C8_5 C7_5 1_555 1_555
C9_5 C8_5 1_555 1_555
C10_5 O7_5 1_555 1_555
C11_5 N5_3 1_555 1_555
C12_5 C11_5 1_555 1_555
H9_5 C12_5 1_555 1_555
H10_5 C12_5 1_555 1_555
H11_5 C12_5 1_555 1_555
N2_5 C5_5 1_555 1_555
N6_2 C11_5 1_555 1_555
C2_5 C3_5 1_555 1_555
C3_5 C4_5 1_555 1_555
C9_5 C10_5 1_555 1_555
O13_4 C7_6 1_555 1_555
O14 C10_6 1_555 1_555
N5_4 C8_6 1_555 1_555
N6 C9_6 1_555 1_555
C7_6 O5_6 1_555 1_555
C8_6 C7_6 1_555 1_555
C9_6 C8_6 1_555 1_555
C10_6 O7_6 1_555 1_555
C11_6 N5_4 1_555 1_555
C12_6 C11_6 1_555 1_555
H9_6 C12_6 1_555 1_555
H10_6 C12_6 1_555 1_555
H11_6 C12_6 1_555 1_555
N6 C11_6 1_555 1_555
C9_6 C10_6 1_555 1_555
Dy2_2 O1_6 1_555 1_555
Co2 O2_6 1_555 1_555
O1_6 C1_6 1_555 1_555
O2_6 C1_6 1_555 1_555
O12_2 C4_6 1_555 1_555
O9_6 Dy2_2 1_555 1_555
H1_6 O9_6 1_555 1_555
H2_5 O9_6 1_555 1_555
O10_5 Dy2_2 1_555 1_555
H3_5 O10_5 1_555 1_555
H4_6 O10_5 1_555 1_555
N1_6 Co2 1_555 1_555
N2_6 H5_6 1_555 1_555
C1_6 C2_6 1_555 1_555
C2_6 N1_6 1_555 1_555
C3_6 N2_6 1_555 1_555
C4_6 O11_2 1_555 1_555
C5_6 N1_6 1_555 1_555
C6_6 C5_6 1_555 1_555
H6_6 C6_6 1_555 1_555
H7_6 C6_6 1_555 1_555
N2_6 C5_6 1_555 1_555
C2_6 C3_6 1_555 1_555
C3_6 C4_6 1_555 1_555
H3_6 O10_6 1_555 1_555
O12_3 C4_7 1_555 1_555
N1_7 Co3 1_555 1_555
N2_7 H5_7 1_555 1_555
C2_7 N1_7 1_555 1_555
C3_7 N2_7 1_555 1_555
C4_7 O11_3 1_555 1_555
C5_7 N1_7 1_555 1_555
C6_7 C5_7 1_555 1_555
H6_7 C6_7 1_555 1_555
H7_7 C6_7 1_555 1_555
H8_3 C6_7 1_555 1_555
N2_7 C5_7 1_555 1_555
C2_7 C3_7 1_555 1_555
C3_7 C4_7 1_555 1_555
Dy2_3 O1_7 1_555 1_555
O1_7 C1_7 1_555 1_555
O2_7 C1_7 1_555 1_555
O5_7 Dy2_3 1_555 1_555
O13 C7_7 1_555 1_555
O7_7 Dy2_3 1_555 1_555
O14_4 C10_7 1_555 1_555
O9_7 Dy2_3 1_555 1_555
H1_7 O9_7 1_555 1_555
N5 C8_7 1_555 1_555
N6_4 C9_7 1_555 1_555
C7_7 O5_7 1_555 1_555
C8_7 C7_7 1_555 1_555
C9_7 C8_7 1_555 1_555
C10_7 O7_7 1_555 1_555
C11_7 N5 1_555 1_555
C12_7 C11_7 1_555 1_555
H9_7 C12_7 1_555 1_555
H10_7 C12_7 1_555 1_555
H11_7 C12_7 1_555 1_555
N6_4 C11_7 1_555 1_555
C9_7 C10_7 1_555 1_555
O12_4 C4_8 1_555 1_555
N1_8 Co3_2 1_555 1_555
N2_8 H5_8 1_555 1_555
C2_8 N1_8 1_555 1_555
C3_8 N2_8 1_555 1_555
C4_8 O11_4 1_555 1_555
C5_8 N1_8 1_555 1_555
C6_8 C5_8 1_555 1_555
H6_8 C6_8 1_555 1_555
H7_8 C6_8 1_555 1_555
H8_4 C6_8 1_555 1_555
N2_8 C5_8 1_555 1_555
C2_8 C3_8 1_555 1_555
C3_8 C4_8 1_555 1_555
O13_2 C7_8 1_555 1_555
O14_3 C10_8 1_555 1_555
N5_2 C8_8 1_555 1_555
N6_3 C9_8 1_555 1_555
C7_8 O5_8 1_555 1_555
C8_8 C7_8 1_555 1_555
C9_8 C8_8 1_555 1_555
C10_8 O7_8 1_555 1_555
C11_8 N5_2 1_555 1_555
C12_8 C11_8 1_555 1_555
H9_8 C12_8 1_555 1_555
H10_8 C12_8 1_555 1_555
H11_8 C12_8 1_555 1_555
N6_3 C11_8 1_555 1_555
C9_8 C10_8 1_555 1_555
Dy2_4 O1_8 1_555 1_555
O1_8 C1_8 1_555 1_555
O2_8 C1_8 1_555 1_555
O9_8 Dy2_4 1_555 1_555
H1_8 O9_8 1_555 1_555
H3_7 O10_7 1_555 1_555
H3_8 O10_8 1_555 1_555

#END
