
###############################################################################
#
# This file contains modified crystal structure data generated from the
# MOF subset of the Cambridge Structural Database (CSD) v543 
# hosted by the Cambridge Crystallographic Data Centre (CCDC).
#
# This work is licensed under the Creative Commons
# Attribution-NonCommercial-ShareAlike 4.0 International License.
# To view a copy of this license, visit
# http://creativecommons.org/licenses/by-nc-sa/4.0/
# or send a letter to
# Creative Commons, PO Box 1866, Mountain View, CA 94042, USA.
#
# CIF created using the CSD Python API on 29 September 2022
# The structure has been converted into the P1 space group
# The structure has a 3D framework
# The original CSD entry ZOXZIV is in the orthorhombic crystal system
# The framework has been calculated to contain at least 10.0% void space
# The void calculation uses a probe of radius 1.32A, grid spacing 0.4
#
###############################################################################

data_ZOXZIV
_chemical_formula_moiety         '(C64 H64 Cu17 F44 N54 Nb12 O12)n'
_symmetry_cell_setting           triclinic
_symmetry_space_group_name_H-M   'P 1'
_symmetry_Int_Tables_number      1
_space_group_name_Hall           'P 1'
loop_
_symmetry_equiv_pos_site_id
_symmetry_equiv_pos_as_xyz
1 x,y,z
_cell_length_a                   14.547(1)
_cell_length_b                   16.135(2)
_cell_length_c                   13.803(2)
_cell_angle_alpha                90
_cell_angle_beta                 90
_cell_angle_gamma                90
_cell_volume                     3239.78
loop_
_atom_site_label
_atom_site_type_symbol
_atom_site_fract_x
_atom_site_fract_y
_atom_site_fract_z
Cu1 Cu 0.5000 0.00000 0.2500
Cu2 Cu 0.0000 0.00000 0.2500
N1 N 0.3599(5) 0.00000 0.2500
N3 N 0.5000 -0.00000 0.3990(6)
N4 N 0.0000 0.00000 0.3995(6)
C1 C 0.3124(5) 0.0668(4) 0.2758(5)
C3 C 0.5278(5) 0.0663(4) 0.4504(6)
F11 F 0.5000 0.1406(3) 0.2500
C5 C 0.2170(6) 0.0662(4) 0.2748(6)
N5 N 0.1687(5) 0.00000 0.2500
O3 O 0.0000 0.1207(3) 0.2500
N6 N 0.0000 0.00000 0.6005(6)
Cu5 Cu 0.0000 0.00000 0.7500
N7 N 0.0000 0.00000 0.1005(6)
H9 H 0.185 0.115 0.293
H10 H 0.344 0.116 0.295
N8 N 0.6401(5) 0.00000 0.2500
C11 C 0.5278(5) 0.0663(4) 0.5496(6)
N9 N 0.5000 0.00000 0.6010(6)
Cu6 Cu 0.5000 0.00000 0.7500
H12 H 0.550 0.111 0.584
H13 H 0.550 0.111 0.416
N10 N 0.5000 -0.00000 0.1010(6)
Nb1 Nb 0.0000 0.76923(5) 0.2500
Cu1_2 Cu 0.5000 1.00000 0.2500
Cu2_2 Cu 0.0000 1.00000 0.2500
F3 F 0.0000 0.6406(3) 0.2500
O1 O 0.0000 0.8793(3) 0.2500
N1_2 N 0.3599(5) 1.00000 0.2500
N3_2 N 0.5000 1.00000 0.3990(6)
N4_2 N 0.0000 1.00000 0.3995(6)
H1 H 0.344 0.884 0.205
H3 H 0.450 0.889 0.416
F4 F 0.0374(3) 0.7566(2) 0.3821(3)
F5 F 0.1255(3) 0.7558(2) 0.2102(4)
Cu3 Cu 0.5000 0.50000 0.2500
O2 O 0.5000 0.6207(3) 0.2500
Nb2 Nb 0.5000 0.73077(5) 0.2500
F6 F 0.5374(3) 0.7434(2) 0.1179(3)
F7 F 0.4626(3) 0.7434(2) 0.3821(3)
F8 F 0.6255(3) 0.7442(2) 0.2898(4)
F9 F 0.3745(3) 0.7442(2) 0.2102(4)
F10 F 0.5000 0.8594(3) 0.2500
Cu4 Cu 0.0000 0.50000 0.2500
N5_2 N 0.1687(5) 1.00000 0.2500
N6_2 N 0.0000 1.00000 0.6005(6)
Cu5_2 Cu 0.0000 1.00000 0.7500
C7 C 0.0489(5) 0.9442(4) 0.5511(6)
C8 C 0.0489(5) 0.9442(4) 0.4489(6)
H5 H 0.079 0.907 0.419
H6 H 0.079 0.907 0.581
N7_2 N 0.0000 1.00000 0.1005(6)
C9 C 0.2170(6) 0.9338(4) 0.2252(6)
C10 C 0.3124(5) 0.9332(4) 0.2242(5)
H8 H 0.185 0.885 0.207
N8_2 N 0.6401(5) 1.00000 0.2500
N9_2 N 0.5000 1.00000 0.6010(6)
Cu6_2 Cu 0.5000 1.00000 0.7500
C12 C 0.4722(5) 0.9337(4) 0.5496(6)
C13 C 0.4722(5) 0.9337(4) 0.4504(6)
H11 H 0.450 0.889 0.584
N10_2 N 0.5000 1.00000 0.1010(6)
Cu2_3 Cu 1.0000 0.00000 0.2500
N2 N 0.8313(5) 0.00000 0.2500
N4_3 N 1.0000 0.00000 0.3995(6)
C4 C 0.9511(5) 0.0558(4) 0.4489(6)
H4 H 0.921 0.093 0.419
O3_2 O 1.0000 0.1207(3) 0.2500
C6 C 0.9511(5) 0.0558(4) 0.5511(6)
N6_3 N 1.0000 0.00000 0.6005(6)
Cu5_3 Cu 1.0000 0.00000 0.7500
H7 H 0.921 0.093 0.581
N7_3 N 1.0000 0.00000 0.1005(6)
C15 C 0.6876(5) 0.0668(4) 0.2242(5)
C16 C 0.7830(6) 0.0662(4) 0.2252(6)
H14 H 0.815 0.115 0.207
H15 H 0.656 0.116 0.205
Nb1_2 Nb 1.0000 0.76923(5) 0.2500
Cu2_4 Cu 1.0000 1.00000 0.2500
F1 F 0.9626(3) 0.7566(2) 0.1179(3)
F2 F 0.8745(3) 0.7558(2) 0.2898(4)
F3_2 F 1.0000 0.6406(3) 0.2500
O1_2 O 1.0000 0.8793(3) 0.2500
N2_2 N 0.8313(5) 1.00000 0.2500
N4_4 N 1.0000 1.00000 0.3995(6)
C2 C 0.7830(6) 0.9338(4) 0.2748(6)
H2 H 0.815 0.885 0.293
Cu4_2 Cu 1.0000 0.50000 0.2500
N6_4 N 1.0000 1.00000 0.6005(6)
Cu5_4 Cu 1.0000 1.00000 0.7500
N7_4 N 1.0000 1.00000 0.1005(6)
C14 C 0.6876(5) 0.9332(4) 0.2758(5)
H16 H 0.656 0.884 0.295
Nb1_3 Nb 0.0000 0.23077(5) 0.2500
F1_2 F 0.0374(3) 0.2434(2) 0.1179(3)
F2_2 F 0.1255(3) 0.2442(2) 0.2898(4)
F3_3 F 0.0000 0.3594(3) 0.2500
Nb1_4 Nb 1.0000 0.23077(5) 0.2500
F3_4 F 1.0000 0.3594(3) 0.2500
F4_2 F 0.9626(3) 0.2434(2) 0.3821(3)
F5_2 F 0.8745(3) 0.2442(2) 0.2102(4)
O2_2 O 0.5000 0.3793(3) 0.2500
Nb2_2 Nb 0.5000 0.26923(5) 0.2500
F6_2 F 0.4626(3) 0.2566(2) 0.1179(3)
F7_2 F 0.5374(3) 0.2566(2) 0.3821(3)
F8_2 F 0.3745(3) 0.2558(2) 0.2898(4)
F9_2 F 0.6255(3) 0.2558(2) 0.2102(4)
H3_2 H 0.450 0.111 0.084
C8_2 C 0.0489(5) 0.0558(4) 0.0511(6)
H5_2 H 0.079 0.093 0.081
C13_2 C 0.4722(5) 0.0663(4) 0.0496(6)
N6_5 N 0.0000 -0.00000 0.8995(6)
C7_2 C 0.0489(5) 0.0558(4) 0.9489(6)
H6_2 H 0.079 0.093 0.919
N9_3 N 0.5000 0.00000 0.8990(6)
C12_2 C 0.4722(5) 0.0663(4) 0.9504(6)
H11_2 H 0.450 0.111 0.916
C3_2 C 0.5278(5) 0.9337(4) 0.0496(6)
H13_2 H 0.550 0.889 0.084
N6_6 N 0.0000 1.00000 0.8995(6)
C11_2 C 0.5278(5) 0.9337(4) 0.9504(6)
N9_4 N 0.5000 1.00000 0.8990(6)
H12_2 H 0.550 0.889 0.916
N6_7 N 1.0000 -0.00000 0.8995(6)
C4_2 C 0.9511(5) 0.9442(4) 0.0511(6)
H4_2 H 0.921 0.907 0.081
C6_2 C 0.9511(5) 0.9442(4) 0.9489(6)
N6_8 N 1.0000 1.00000 0.8995(6)
H7_2 H 0.921 0.907 0.919
N3_3 N 0.0000 0.50000 0.3990(6)
C3_3 C 0.0278(5) 0.5663(4) 0.4504(6)
N8_3 N 0.1401(5) 0.50000 0.2500
C11_3 C 0.0278(5) 0.5663(4) 0.5496(6)
N9_5 N 0.0000 0.50000 0.6010(6)
Cu6_3 Cu 0.0000 0.50000 0.7500
H12_3 H 0.050 0.611 0.584
H13_3 H 0.050 0.611 0.416
N10_3 N 0.0000 0.50000 0.1010(6)
N1_3 N 0.8599(5) 0.50000 0.2500
N2_3 N 0.3313(5) 0.50000 0.2500
N3_4 N 1.0000 0.50000 0.3990(6)
N4_5 N 0.5000 0.50000 0.3995(6)
C1_2 C 0.8124(5) 0.5668(4) 0.2758(5)
C2_2 C 0.2830(6) 0.4338(4) 0.2748(6)
C4_3 C 0.4511(5) 0.5558(4) 0.4489(6)
H1_2 H 0.844 0.384 0.205
H2_2 H 0.315 0.385 0.293
H3_3 H 0.950 0.389 0.416
H4_3 H 0.421 0.593 0.419
C5_2 C 0.7170(6) 0.5662(4) 0.2748(6)
N5_3 N 0.6687(5) 0.50000 0.2500
C6_3 C 0.4511(5) 0.5558(4) 0.5511(6)
N6_9 N 0.5000 0.50000 0.6005(6)
Cu5_5 Cu 0.5000 0.50000 0.7500
C7_3 C 0.5489(5) 0.4442(4) 0.5511(6)
C8_3 C 0.5489(5) 0.4442(4) 0.4489(6)
H5_3 H 0.579 0.407 0.419
H6_3 H 0.579 0.407 0.581
H7_3 H 0.421 0.593 0.581
N7_5 N 0.5000 0.50000 0.1005(6)
C9_2 C 0.7170(6) 0.4338(4) 0.2252(6)
C10_2 C 0.8124(5) 0.4332(4) 0.2242(5)
H8_2 H 0.685 0.385 0.207
H9_2 H 0.685 0.615 0.293
H10_2 H 0.844 0.616 0.295
N9_6 N 1.0000 0.50000 0.6010(6)
Cu6_4 Cu 1.0000 0.50000 0.7500
C12_3 C 0.9722(5) 0.4337(4) 0.5496(6)
C13_3 C 0.9722(5) 0.4337(4) 0.4504(6)
H11_3 H 0.950 0.389 0.584
N10_4 N 1.0000 0.50000 0.1010(6)
C14_2 C 0.1876(5) 0.4332(4) 0.2758(5)
C15_2 C 0.1876(5) 0.5668(4) 0.2242(5)
C16_2 C 0.2830(6) 0.5662(4) 0.2252(6)
H14_2 H 0.315 0.615 0.207
H15_2 H 0.156 0.616 0.205
H16_2 H 0.156 0.384 0.295
C3_4 C 0.0278(5) 0.4337(4) 0.0496(6)
H13_4 H 0.050 0.389 0.084
C11_4 C 0.0278(5) 0.4337(4) 0.9504(6)
N9_7 N 0.0000 0.50000 0.8990(6)
H12_4 H 0.050 0.389 0.916
C4_4 C 0.4511(5) 0.4442(4) 0.0511(6)
H3_4 H 0.950 0.611 0.084
H4_4 H 0.421 0.407 0.081
C8_4 C 0.5489(5) 0.5558(4) 0.0511(6)
H5_4 H 0.579 0.593 0.081
C13_4 C 0.9722(5) 0.5663(4) 0.0496(6)
C6_4 C 0.4511(5) 0.4442(4) 0.9489(6)
N6_10 N 0.5000 0.50000 0.8995(6)
C7_4 C 0.5489(5) 0.5558(4) 0.9489(6)
H6_4 H 0.579 0.593 0.919
H7_4 H 0.421 0.407 0.919
N9_8 N 1.0000 0.50000 0.8990(6)
C12_4 C 0.9722(5) 0.5663(4) 0.9504(6)
H11_4 H 0.950 0.611 0.916
Nb1_5 Nb 0.0000 0.23077(5) 0.7500
F1_3 F 0.0374(3) 0.2434(2) 0.8821(3)
F2_3 F 0.1255(3) 0.2442(2) 0.7102(4)
F3_5 F 0.0000 0.3594(3) 0.7500
O1_3 O 0.0000 0.1207(3) 0.7500
N2_4 N 0.1687(5) 0.00000 0.7500
C2_3 C 0.2170(6) 0.0662(4) 0.7252(6)
H2_3 H 0.185 0.115 0.707
C14_3 C 0.3124(5) 0.0668(4) 0.7242(5)
N11 N 0.3599(5) 0.00000 0.7500
H16_3 H 0.344 0.116 0.705
N2_5 N 0.1687(5) 1.00000 0.7500
O3_3 O 0.0000 0.8793(3) 0.7500
N11_2 N 0.3599(5) 1.00000 0.7500
C15_3 C 0.3124(5) 0.9332(4) 0.7758(5)
C16_3 C 0.2170(6) 0.9338(4) 0.7748(6)
H14_3 H 0.185 0.885 0.793
H15_3 H 0.344 0.884 0.795
Nb1_6 Nb 1.0000 0.23077(5) 0.7500
F3_6 F 1.0000 0.3594(3) 0.7500
O1_4 O 1.0000 0.1207(3) 0.7500
N1_4 N 0.6401(5) 0.00000 0.7500
H1_3 H 0.656 0.116 0.795
F4_3 F 0.9626(3) 0.2434(2) 0.6179(3)
F5_3 F 0.8745(3) 0.2442(2) 0.7898(4)
O2_3 O 0.5000 0.3793(3) 0.7500
Nb2_3 Nb 0.5000 0.26923(5) 0.7500
F6_3 F 0.4626(3) 0.2566(2) 0.8821(3)
F7_3 F 0.5374(3) 0.2566(2) 0.6179(3)
F8_3 F 0.3745(3) 0.2558(2) 0.7102(4)
F9_3 F 0.6255(3) 0.2558(2) 0.7898(4)
F10_2 F 0.5000 0.1406(3) 0.7500
N5_4 N 0.8313(5) 0.00000 0.7500
C9_3 C 0.7830(6) 0.0662(4) 0.7748(6)
C10_3 C 0.6876(5) 0.0668(4) 0.7758(5)
H8_3 H 0.815 0.115 0.793
N1_5 N 0.6401(5) 1.00000 0.7500
C1_3 C 0.6876(5) 0.9332(4) 0.7242(5)
F11_2 F 0.5000 0.8594(3) 0.7500
C5_3 C 0.7830(6) 0.9338(4) 0.7252(6)
N5_5 N 0.8313(5) 1.00000 0.7500
O3_4 O 1.0000 0.8793(3) 0.7500
H9_3 H 0.815 0.885 0.707
H10_3 H 0.656 0.884 0.705
Nb1_7 Nb 0.0000 0.76923(5) 0.7500
F3_7 F 0.0000 0.6406(3) 0.7500
F4_4 F 0.0374(3) 0.7566(2) 0.6179(3)
F5_4 F 0.1255(3) 0.7558(2) 0.7898(4)
O2_4 O 0.5000 0.6207(3) 0.7500
Nb2_4 Nb 0.5000 0.73077(5) 0.7500
F6_4 F 0.5374(3) 0.7434(2) 0.8821(3)
F7_4 F 0.4626(3) 0.7434(2) 0.6179(3)
F8_4 F 0.6255(3) 0.7442(2) 0.7102(4)
F9_4 F 0.3745(3) 0.7442(2) 0.7898(4)
Nb1_8 Nb 1.0000 0.76923(5) 0.7500
F1_4 F 0.9626(3) 0.7566(2) 0.8821(3)
F2_4 F 0.8745(3) 0.7558(2) 0.7102(4)
F3_8 F 1.0000 0.6406(3) 0.7500
N1_6 N 0.1401(5) 0.50000 0.7500
N2_6 N 0.6687(5) 0.50000 0.7500
C1_4 C 0.1876(5) 0.4332(4) 0.7242(5)
C2_4 C 0.7170(6) 0.5662(4) 0.7252(6)
H1_4 H 0.156 0.616 0.795
H2_4 H 0.685 0.615 0.707
C5_4 C 0.2830(6) 0.4338(4) 0.7252(6)
N5_6 N 0.3313(5) 0.50000 0.7500
C9_4 C 0.2830(6) 0.5662(4) 0.7748(6)
C10_4 C 0.1876(5) 0.5668(4) 0.7758(5)
H8_4 H 0.315 0.615 0.793
H9_4 H 0.315 0.385 0.707
H10_4 H 0.156 0.384 0.705
C14_4 C 0.8124(5) 0.5668(4) 0.7242(5)
N11_3 N 0.8599(5) 0.50000 0.7500
C15_4 C 0.8124(5) 0.4332(4) 0.7758(5)
C16_4 C 0.7170(6) 0.4338(4) 0.7748(6)
H14_4 H 0.685 0.385 0.793
H15_4 H 0.844 0.384 0.795
H16_4 H 0.844 0.616 0.705
loop_
_geom_bond_atom_site_label_1
_geom_bond_atom_site_label_2
_geom_bond_site_symmetry_1
_geom_bond_site_symmetry_2
Cu1 N1 1_555 1_555
N1 C1 1_555 1_555
N3 Cu1 1_555 1_555
N4 Cu2 1_555 1_555
C1 C5 1_555 1_555
C3 N3 1_555 1_555
F11 Cu1 1_555 1_555
C5 N5 1_555 1_555
N5 Cu2 1_555 1_555
O3 Cu2 1_555 1_555
Cu5 N6 1_555 1_555
N7 Cu2 1_555 1_555
H9 C5 1_555 1_555
H10 C1 1_555 1_555
N8 Cu1 1_555 1_555
C11 C3 1_555 1_555
N9 C11 1_555 1_555
Cu6 N9 1_555 1_555
H12 C11 1_555 1_555
H13 C3 1_555 1_555
N10 Cu1 1_555 1_555
Cu1_2 N1_2 1_555 1_555
Cu2_2 O1 1_555 1_555
F3 Nb1 1_555 1_555
O1 Nb1 1_555 1_555
N3_2 Cu1_2 1_555 1_555
N4_2 Cu2_2 1_555 1_555
H1 C10 1_555 1_555
H3 C13 1_555 1_555
F4 Nb1 1_555 1_555
F5 Nb1 1_555 1_555
Cu3 O2 1_555 1_555
O2 Nb2 1_555 1_555
Nb2 F6 1_555 1_555
F7 Nb2 1_555 1_555
F8 Nb2 1_555 1_555
F9 Nb2 1_555 1_555
F10 Cu1_2 1_555 1_555
Cu4 F3 1_555 1_555
N5_2 Cu2_2 1_555 1_555
Cu5_2 N6_2 1_555 1_555
C7 N6_2 1_555 1_555
C8 N4_2 1_555 1_555
H5 C8 1_555 1_555
H6 C7 1_555 1_555
N7_2 Cu2_2 1_555 1_555
C9 N5_2 1_555 1_555
C10 N1_2 1_555 1_555
H8 C9 1_555 1_555
N8_2 Cu1_2 1_555 1_555
Cu6_2 N9_2 1_555 1_555
C12 N9_2 1_555 1_555
C13 N3_2 1_555 1_555
H11 C12 1_555 1_555
N10_2 Cu1_2 1_555 1_555
Nb2 F10 1_555 1_555
C7 C8 1_555 1_555
C9 C10 1_555 1_555
C12 C13 1_555 1_555
N2 Cu2_3 1_555 1_555
N4_3 Cu2_3 1_555 1_555
C4 N4_3 1_555 1_555
H4 C4 1_555 1_555
O3_2 Cu2_3 1_555 1_555
C6 C4 1_555 1_555
N6_3 C6 1_555 1_555
Cu5_3 N6_3 1_555 1_555
H7 C6 1_555 1_555
N7_3 Cu2_3 1_555 1_555
C15 N8 1_555 1_555
C16 N2 1_555 1_555
H14 C16 1_555 1_555
H15 C15 1_555 1_555
C15 C16 1_555 1_555
Nb1_2 F1 1_555 1_555
Cu2_4 O1_2 1_555 1_555
F2 Nb1_2 1_555 1_555
F3_2 Nb1_2 1_555 1_555
O1_2 Nb1_2 1_555 1_555
N2_2 Cu2_4 1_555 1_555
N4_4 Cu2_4 1_555 1_555
C2 N2_2 1_555 1_555
H2 C2 1_555 1_555
Cu4_2 F3_2 1_555 1_555
Cu5_4 N6_4 1_555 1_555
N7_4 Cu2_4 1_555 1_555
C14 C2 1_555 1_555
N8_2 C14 1_555 1_555
H16 C14 1_555 1_555
Nb1_3 F1_2 1_555 1_555
F2_2 Nb1_3 1_555 1_555
F3_3 Nb1_3 1_555 1_555
O3 Nb1_3 1_555 1_555
Cu4 F3_3 1_555 1_555
F3_4 Nb1_4 1_555 1_555
O3_2 Nb1_4 1_555 1_555
F4_2 Nb1_4 1_555 1_555
F5_2 Nb1_4 1_555 1_555
Cu3 O2_2 1_555 1_555
O2_2 Nb2_2 1_555 1_555
Nb2_2 F6_2 1_555 1_555
F7_2 Nb2_2 1_555 1_555
F8_2 Nb2_2 1_555 1_555
F9_2 Nb2_2 1_555 1_555
Cu4_2 F3_4 1_555 1_555
Nb2_2 F11 1_555 1_555
H3_2 C13_2 1_555 1_555
C8_2 N7 1_555 1_555
H5_2 C8_2 1_555 1_555
C13_2 N10 1_555 1_555
Cu5 N6_5 1_555 1_555
C7_2 N6_5 1_555 1_555
H6_2 C7_2 1_555 1_555
Cu6 N9_3 1_555 1_555
C12_2 N9_3 1_555 1_555
H11_2 C12_2 1_555 1_555
C3_2 N10_2 1_555 1_555
H13_2 C3_2 1_555 1_555
Cu5_2 N6_6 1_555 1_555
N9_4 C11_2 1_555 1_555
Cu6_2 N9_4 1_555 1_555
H12_2 C11_2 1_555 1_555
Cu5_3 N6_7 1_555 1_555
C4_2 N7_4 1_555 1_555
H4_2 C4_2 1_555 1_555
N6_8 C6_2 1_555 1_555
Cu5_4 N6_8 1_555 1_555
H7_2 C6_2 1_555 1_555
N3_3 Cu4 1_555 1_555
C3_3 N3_3 1_555 1_555
N8_3 Cu4 1_555 1_555
C11_3 C3_3 1_555 1_555
N9_5 C11_3 1_555 1_555
Cu6_3 N9_5 1_555 1_555
H12_3 C11_3 1_555 1_555
H13_3 C3_3 1_555 1_555
N10_3 Cu4 1_555 1_555
Cu4_2 N1_3 1_555 1_555
N1_3 C1_2 1_555 1_555
N2_3 Cu3 1_555 1_555
N3_4 Cu4_2 1_555 1_555
N4_5 Cu3 1_555 1_555
C1_2 C5_2 1_555 1_555
C2_2 N2_3 1_555 1_555
C4_3 N4_5 1_555 1_555
H1_2 C10_2 1_555 1_555
H2_2 C2_2 1_555 1_555
H3_3 C13_3 1_555 1_555
H4_3 C4_3 1_555 1_555
C5_2 N5_3 1_555 1_555
N5_3 Cu3 1_555 1_555
C6_3 C4_3 1_555 1_555
N6_9 C6_3 1_555 1_555
Cu5_5 N6_9 1_555 1_555
C7_3 N6_9 1_555 1_555
C8_3 N4_5 1_555 1_555
H5_3 C8_3 1_555 1_555
H6_3 C7_3 1_555 1_555
H7_3 C6_3 1_555 1_555
N7_5 Cu3 1_555 1_555
C9_2 N5_3 1_555 1_555
C10_2 N1_3 1_555 1_555
H8_2 C9_2 1_555 1_555
H9_2 C5_2 1_555 1_555
H10_2 C1_2 1_555 1_555
Cu6_4 N9_6 1_555 1_555
C12_3 N9_6 1_555 1_555
C13_3 N3_4 1_555 1_555
H11_3 C12_3 1_555 1_555
N10_4 Cu4_2 1_555 1_555
C14_2 C2_2 1_555 1_555
N8_3 C14_2 1_555 1_555
C15_2 N8_3 1_555 1_555
C16_2 N2_3 1_555 1_555
H14_2 C16_2 1_555 1_555
H15_2 C15_2 1_555 1_555
H16_2 C14_2 1_555 1_555
C7_3 C8_3 1_555 1_555
C9_2 C10_2 1_555 1_555
C12_3 C13_3 1_555 1_555
C15_2 C16_2 1_555 1_555
C3_4 N10_3 1_555 1_555
H13_4 C3_4 1_555 1_555
N9_7 C11_4 1_555 1_555
Cu6_3 N9_7 1_555 1_555
H12_4 C11_4 1_555 1_555
C4_4 N7_5 1_555 1_555
H3_4 C13_4 1_555 1_555
H4_4 C4_4 1_555 1_555
C8_4 N7_5 1_555 1_555
H5_4 C8_4 1_555 1_555
C13_4 N10_4 1_555 1_555
N6_10 C6_4 1_555 1_555
Cu5_5 N6_10 1_555 1_555
C7_4 N6_10 1_555 1_555
H6_4 C7_4 1_555 1_555
H7_4 C6_4 1_555 1_555
Cu6_4 N9_8 1_555 1_555
C12_4 N9_8 1_555 1_555
H11_4 C12_4 1_555 1_555
Nb1_5 F1_3 1_555 1_555
Cu5 O1_3 1_555 1_555
F2_3 Nb1_5 1_555 1_555
F3_5 Nb1_5 1_555 1_555
O1_3 Nb1_5 1_555 1_555
N2_4 Cu5 1_555 1_555
C2_3 N2_4 1_555 1_555
H2_3 C2_3 1_555 1_555
Cu6_3 F3_5 1_555 1_555
C14_3 C2_3 1_555 1_555
N11 C14_3 1_555 1_555
Cu6 N11 1_555 1_555
H16_3 C14_3 1_555 1_555
N2_5 Cu5_2 1_555 1_555
O3_3 Cu5_2 1_555 1_555
Cu6_2 N11_2 1_555 1_555
C15_3 N11_2 1_555 1_555
C16_3 N2_5 1_555 1_555
H14_3 C16_3 1_555 1_555
H15_3 C15_3 1_555 1_555
C15_3 C16_3 1_555 1_555
Cu6 N1_4 1_555 1_555
Cu5_3 O1_4 1_555 1_555
F3_6 Nb1_6 1_555 1_555
O1_4 Nb1_6 1_555 1_555
H1_3 C10_3 1_555 1_555
F4_3 Nb1_6 1_555 1_555
F5_3 Nb1_6 1_555 1_555
Cu5_5 O2_3 1_555 1_555
O2_3 Nb2_3 1_555 1_555
Nb2_3 F6_3 1_555 1_555
F7_3 Nb2_3 1_555 1_555
F8_3 Nb2_3 1_555 1_555
F9_3 Nb2_3 1_555 1_555
F10_2 Cu6 1_555 1_555
Cu6_4 F3_6 1_555 1_555
N5_4 Cu5_3 1_555 1_555
C9_3 N5_4 1_555 1_555
C10_3 N1_4 1_555 1_555
H8_3 C9_3 1_555 1_555
Nb2_3 F10_2 1_555 1_555
C9_3 C10_3 1_555 1_555
Cu6_2 N1_5 1_555 1_555
N1_5 C1_3 1_555 1_555
C1_3 C5_3 1_555 1_555
F11_2 Cu6_2 1_555 1_555
C5_3 N5_5 1_555 1_555
N5_5 Cu5_4 1_555 1_555
O3_4 Cu5_4 1_555 1_555
H9_3 C5_3 1_555 1_555
H10_3 C1_3 1_555 1_555
F3_7 Nb1_7 1_555 1_555
O3_3 Nb1_7 1_555 1_555
F4_4 Nb1_7 1_555 1_555
F5_4 Nb1_7 1_555 1_555
Cu5_5 O2_4 1_555 1_555
O2_4 Nb2_4 1_555 1_555
Nb2_4 F6_4 1_555 1_555
F7_4 Nb2_4 1_555 1_555
F8_4 Nb2_4 1_555 1_555
F9_4 Nb2_4 1_555 1_555
Cu6_3 F3_7 1_555 1_555
Nb2_4 F11_2 1_555 1_555
Nb1_8 F1_4 1_555 1_555
F2_4 Nb1_8 1_555 1_555
F3_8 Nb1_8 1_555 1_555
O3_4 Nb1_8 1_555 1_555
Cu6_4 F3_8 1_555 1_555
Cu6_3 N1_6 1_555 1_555
N1_6 C1_4 1_555 1_555
N2_6 Cu5_5 1_555 1_555
C1_4 C5_4 1_555 1_555
C2_4 N2_6 1_555 1_555
H1_4 C10_4 1_555 1_555
H2_4 C2_4 1_555 1_555
C5_4 N5_6 1_555 1_555
N5_6 Cu5_5 1_555 1_555
C9_4 N5_6 1_555 1_555
C10_4 N1_6 1_555 1_555
H8_4 C9_4 1_555 1_555
H9_4 C5_4 1_555 1_555
H10_4 C1_4 1_555 1_555
C14_4 C2_4 1_555 1_555
N11_3 C14_4 1_555 1_555
Cu6_4 N11_3 1_555 1_555
C15_4 N11_3 1_555 1_555
C16_4 N2_6 1_555 1_555
H14_4 C16_4 1_555 1_555
H15_4 C15_4 1_555 1_555
H16_4 C14_4 1_555 1_555
C9_4 C10_4 1_555 1_555
C15_4 C16_4 1_555 1_555

#END
