
###############################################################################
#
# This file contains modified crystal structure data generated from the
# MOF subset of the Cambridge Structural Database (CSD) v543 
# hosted by the Cambridge Crystallographic Data Centre (CCDC).
#
# This work is licensed under the Creative Commons
# Attribution-NonCommercial-ShareAlike 4.0 International License.
# To view a copy of this license, visit
# http://creativecommons.org/licenses/by-nc-sa/4.0/
# or send a letter to
# Creative Commons, PO Box 1866, Mountain View, CA 94042, USA.
#
# CIF created using the CSD Python API on 29 September 2022
# The structure has been converted into the P1 space group
# The structure has a 3D framework
# The original CSD entry ZOYFOL is in the tetragonal crystal system
# The framework has been calculated to contain at least 10.0% void space
# The void calculation uses a probe of radius 1.32A, grid spacing 0.4
# H atom positions have been added when not included in the experimental data
# Generated hydrogen atom positions removed from atoms on special positions
#
###############################################################################

data_ZOYFOL
_chemical_formula_moiety         '(C256 H320 N20 O122 Zr26)n'
_symmetry_cell_setting           triclinic
_symmetry_space_group_name_H-M   'P 1'
_symmetry_Int_Tables_number      1
_space_group_name_Hall           'P 1'
loop_
_symmetry_equiv_pos_site_id
_symmetry_equiv_pos_as_xyz
1 x,y,z
_cell_length_a                   15.1821(7)
_cell_length_b                   15.1821(7)
_cell_length_c                   60.416(6)
_cell_angle_alpha                90
_cell_angle_beta                 90
_cell_angle_gamma                90
_cell_volume                     13925.7
loop_
_atom_site_label
_atom_site_type_symbol
_atom_site_fract_x
_atom_site_fract_y
_atom_site_fract_z
Zr2 Zr -0.000000 0.250000 0.33420(2)
O3 O -0.000000 0.1525(5) 0.35753(11)
O14 O -0.000000 0.1155(5) 0.39745(12)
Zr7 Zr 0.11618(5) 0.13382(5) 0.375000
Zr12 Zr -0.000000 0.250000 0.41580(2)
O19 O 0.0870(4) 0.3395(4) 0.31541(9)
O20 O 0.0870(4) 0.1605(4) 0.31541(9)
O22 O -0.000000 0.3475(5) 0.35753(11)
O27 O 0.1345(5) 0.250000 0.35255(12)
Zr5 Zr 0.11618(5) 0.36618(5) 0.375000
O26 O -0.000000 0.3845(5) 0.39745(12)
Zr1 Zr 0.88382(5) 0.13382(5) 0.375000
Zr2_2 Zr 1.000000 0.250000 0.33420(2)
O1 O 0.8460(5) 0.0804(4) 0.34167(10)
O2 O 0.9130(4) 0.1605(4) 0.31541(9)
O3_2 O 1.000000 0.1525(5) 0.35753(11)
O4 O 0.8655(5) 0.250000 0.35255(12)
C1 C 0.8660(6) 0.0972(6) 0.32184(13)
C2 C 0.8303(7) 0.0345(6) 0.30535(14)
C3 C 0.8596(7) 0.0355(6) 0.28367(15)
H1 H 0.897409 0.080038 0.279029
O6 O 0.6540(5) 0.0804(4) 0.15833(10)
O7 O 0.5870(4) 0.1605(4) 0.18459(9)
C9 C 0.6340(6) 0.0972(6) 0.17816(13)
C10 C 0.6697(7) 0.0345(6) 0.19465(14)
C11 C 0.6404(7) 0.0355(6) 0.21633(15)
H5 H 0.602591 0.080038 0.220971
O14_2 O 1.000000 0.1155(5) 0.39745(12)
O15 O 0.7381(5) 0.1453(7) 0.37362(11)
Zr4 Zr 0.61618(5) 0.13382(5) 0.125000
Zr6 Zr 0.88382(5) 0.36618(5) 0.375000
Zr11 Zr 0.500000 0.250000 0.16580(2)
Zr12_2 Zr 1.000000 0.250000 0.41580(2)
O17 O 0.8304(4) 0.0960(5) 0.40833(10)
O21 O 0.9130(4) 0.3395(4) 0.31541(9)
O22_2 O 1.000000 0.3475(5) 0.35753(11)
O24 O 0.9025(5) 0.250000 0.39247(11)
O5 O 0.8953(7) 0.9881(5) 0.37638(11)
C4 C 0.8335(8) 0.9710(7) 0.26872(16)
H2 H 0.854131 0.972711 0.254237
C5 C 0.7781(7) 0.9056(6) 0.27506(14)
C6 C 0.7478(9) 0.9039(7) 0.29649(16)
H3 H 0.710691 0.858742 0.301075
C7 C 0.7727(8) 0.9702(7) 0.31153(16)
H4 H 0.749614 0.970084 0.325787
C8 C 0.7613(8) 0.8275(6) 0.26118(14)
N1 N 0.7711(8) 0.750000 0.27208(17)
C12 C 0.6665(8) 0.9710(7) 0.23128(16)
H6 H 0.645869 0.972711 0.245763
C13 C 0.7219(7) 0.9056(6) 0.22494(14)
C14 C 0.7522(9) 0.9039(7) 0.20351(16)
H7 H 0.789309 0.858742 0.198925
C15 C 0.7273(8) 0.9702(7) 0.18847(16)
H8 H 0.750386 0.970084 0.174213
C16 C 0.7387(8) 0.8275(6) 0.23882(14)
N2 N 0.7289(8) 0.750000 0.22792(17)
O8 O 0.6540(5) 0.4196(4) 0.15833(10)
O9 O 0.5870(4) 0.3395(4) 0.18459(9)
C17 C 0.6340(6) 0.4028(6) 0.17816(13)
C18 C 0.6697(7) 0.4655(6) 0.19465(14)
C19 C 0.6404(7) 0.4645(6) 0.21633(15)
H9 H 0.602591 0.419962 0.220971
C20 C 0.6665(8) 0.5290(7) 0.23128(16)
H10 H 0.645869 0.527289 0.245763
C21 C 0.7219(7) 0.5944(6) 0.22494(14)
C22 C 0.7522(9) 0.5961(7) 0.20351(16)
H11 H 0.789309 0.641258 0.198925
C23 C 0.7273(8) 0.5298(7) 0.18847(16)
H12 H 0.750386 0.529916 0.174213
C24 C 0.7387(8) 0.6725(6) 0.23882(14)
O10 O 0.8460(5) 0.4196(4) 0.34167(10)
C25 C 0.8660(6) 0.4028(6) 0.32184(13)
C26 C 0.8303(7) 0.4655(6) 0.30535(14)
C27 C 0.8596(7) 0.4645(6) 0.28367(15)
H13 H 0.897409 0.419962 0.279029
C28 C 0.8335(8) 0.5290(7) 0.26872(16)
H14 H 0.854131 0.527289 0.254237
C29 C 0.7781(7) 0.5944(6) 0.27506(14)
C30 C 0.7478(9) 0.5961(7) 0.29649(16)
H15 H 0.710691 0.641258 0.301075
C31 C 0.7727(8) 0.5298(7) 0.31153(16)
H16 H 0.749614 0.529916 0.325787
C32 C 0.7613(8) 0.6725(6) 0.26118(14)
O13 O 0.8953(7) 0.5119(5) 0.37638(11)
O16 O 0.7381(5) 0.3547(7) 0.37362(11)
Zr8 Zr 0.61618(5) 0.36618(5) 0.125000
O18 O 0.8304(4) 0.4040(5) 0.40833(10)
O26_2 O 1.000000 0.3845(5) 0.39745(12)
Zr9 Zr -0.000000 0.750000 0.58420(2)
O23 O -0.000000 0.6525(5) 0.64247(11)
O25 O -0.000000 0.6155(5) 0.60255(12)
Zr1_2 Zr 0.11618(5) 0.63382(5) 0.625000
O1_2 O 0.1696(4) 0.5960(5) 0.59167(10)
O2_2 O 0.0895(4) 0.6630(4) 0.56541(9)
O3_3 O 0.0975(5) 0.750000 0.60753(11)
O5_2 O 0.2619(5) 0.6453(7) 0.62638(11)
C1_2 C 0.1528(6) 0.6160(6) 0.57184(13)
C2_2 C 0.2155(6) 0.5803(7) 0.55535(14)
C3_2 C 0.2145(6) 0.6096(7) 0.53367(15)
H1_2 H 0.169962 0.647409 0.529029
C4_2 C 0.2790(7) 0.5835(8) 0.51872(16)
H2_2 H 0.277289 0.604131 0.504237
C5_2 C 0.3444(6) 0.5281(7) 0.52506(14)
C6_2 C 0.3461(7) 0.4978(9) 0.54649(16)
H3_2 H 0.391258 0.460691 0.551075
C7_2 C 0.2798(7) 0.5227(8) 0.56153(16)
H4_2 H 0.279916 0.499614 0.575787
C8_2 C 0.4225(6) 0.5113(8) 0.51118(14)
N1_2 N 0.500000 0.5211(8) 0.52208(17)
O6_2 O 0.1696(4) 0.4040(5) 0.40833(10)
O7_2 O 0.0895(4) 0.3370(4) 0.43459(9)
C9_2 C 0.1528(6) 0.3840(6) 0.42816(13)
C10_2 C 0.2155(6) 0.4197(7) 0.44465(14)
C11_2 C 0.2145(6) 0.3904(7) 0.46633(15)
H5_2 H 0.169962 0.352591 0.470971
C12_2 C 0.2790(7) 0.4165(8) 0.48128(16)
H6_2 H 0.277289 0.395869 0.495763
C13_2 C 0.3444(6) 0.4719(7) 0.47494(14)
C14_2 C 0.3461(7) 0.5022(9) 0.45351(16)
H7_2 H 0.391258 0.539309 0.448925
C15_2 C 0.2798(7) 0.4773(8) 0.43847(16)
H8_2 H 0.279916 0.500386 0.424213
C16_2 C 0.4225(6) 0.4887(8) 0.48882(14)
N2_2 N 0.500000 0.4789(8) 0.47792(17)
O9_2 O 0.9105(4) 0.3370(4) 0.43459(9)
C17_2 C 0.8472(6) 0.3840(6) 0.42816(13)
C18_2 C 0.7845(6) 0.4197(7) 0.44465(14)
C19_2 C 0.7855(6) 0.3904(7) 0.46633(15)
H9_2 H 0.830038 0.352591 0.470971
C20_2 C 0.7210(7) 0.4165(8) 0.48128(16)
H10_2 H 0.722711 0.395869 0.495763
C21_2 C 0.6556(6) 0.4719(7) 0.47494(14)
C22_2 C 0.6539(7) 0.5022(9) 0.45351(16)
H11_2 H 0.608742 0.539309 0.448925
C23_2 C 0.7202(7) 0.4773(8) 0.43847(16)
H12_2 H 0.720084 0.500386 0.424213
C24_2 C 0.5775(6) 0.4887(8) 0.48882(14)
O10_2 O 0.8304(4) 0.5960(5) 0.59167(10)
O11 O 0.9105(4) 0.6630(4) 0.56541(9)
C25_2 C 0.8472(6) 0.6160(6) 0.57184(13)
C26_2 C 0.7845(6) 0.5803(7) 0.55535(14)
C27_2 C 0.7855(6) 0.6096(7) 0.53367(15)
H13_2 H 0.830038 0.647409 0.529029
C28_2 C 0.7210(7) 0.5835(8) 0.51872(16)
H14_2 H 0.722711 0.604131 0.504237
C29_2 C 0.6556(6) 0.5281(7) 0.52506(14)
C30_2 C 0.6539(7) 0.4978(9) 0.54649(16)
H15_2 H 0.608742 0.460691 0.551075
C31_2 C 0.7202(7) 0.5227(8) 0.56153(16)
H16_2 H 0.720084 0.499614 0.575787
C32_2 C 0.5775(6) 0.5113(8) 0.51118(14)
Zr3 Zr 0.88382(5) 0.63382(5) 0.625000
O12 O 0.9025(5) 0.750000 0.60753(11)
O13_2 O 0.7381(5) 0.6453(7) 0.62638(11)
O14_3 O 0.1345(5) 0.750000 0.64745(12)
O15_2 O 0.1047(7) 0.4881(5) 0.62362(11)
O16_2 O 0.8953(7) 0.4881(5) 0.62362(11)
Zr5_2 Zr 0.88382(5) 0.86618(5) 0.625000
Zr7_2 Zr 0.11618(5) 0.86618(5) 0.625000
Zr9_2 Zr 1.000000 0.750000 0.58420(2)
Zr12_3 Zr 0.000000 0.750000 0.66580(2)
O17_2 O 0.1540(5) 0.5804(4) 0.65833(10)
O18_2 O 0.8460(5) 0.5804(4) 0.65833(10)
O20_2 O 0.0895(4) 0.8370(4) 0.56541(9)
O23_2 O 1.000000 0.6525(5) 0.64247(11)
O25_2 O 1.000000 0.6155(5) 0.60255(12)
O26_3 O 0.8655(5) 0.750000 0.64745(12)
O27_2 O 0.000000 0.8845(5) 0.60255(12)
Zr12_4 Zr 1.000000 0.750000 0.66580(2)
O19_2 O 0.9105(4) 0.8370(4) 0.56541(9)
O27_3 O 1.000000 0.8845(5) 0.60255(12)
O5_3 O 0.6047(7) 0.0119(5) 0.87638(11)
C4_3 C 0.6665(8) 0.0290(7) 0.76872(16)
H2_3 H 0.645869 0.027289 0.754237
C5_3 C 0.7219(7) 0.0944(6) 0.77506(14)
C6_3 C 0.7522(9) 0.0961(7) 0.79649(16)
H3_3 H 0.789309 0.141258 0.801075
C7_3 C 0.7273(8) 0.0298(7) 0.81153(16)
H4_3 H 0.750386 0.029916 0.825787
C8_3 C 0.7387(8) 0.1725(6) 0.76118(14)
N1_3 N 0.7289(8) 0.250000 0.77208(17)
C12_3 C 0.8335(8) 0.0290(7) 0.73128(16)
H6_3 H 0.854131 0.027289 0.745763
C13_3 C 0.7781(7) 0.0944(6) 0.72494(14)
C14_3 C 0.7478(9) 0.0961(7) 0.70351(16)
H7_3 H 0.710691 0.141258 0.698925
C15_3 C 0.7727(8) 0.0298(7) 0.68847(16)
H8_3 H 0.749614 0.029916 0.674213
C16_3 C 0.7613(8) 0.1725(6) 0.73882(14)
N2_3 N 0.7711(8) 0.250000 0.72792(17)
O9_3 O 0.9130(4) 0.6605(4) 0.68459(9)
C17_3 C 0.8660(6) 0.5972(6) 0.67816(13)
C18_3 C 0.8303(7) 0.5345(6) 0.69465(14)
C19_3 C 0.8596(7) 0.5355(6) 0.71633(15)
H9_3 H 0.897409 0.580038 0.720971
C20_3 C 0.8335(8) 0.4710(7) 0.73128(16)
H10_3 H 0.854131 0.472711 0.745763
C21_3 C 0.7781(7) 0.4056(6) 0.72494(14)
C22_3 C 0.7478(9) 0.4039(7) 0.70351(16)
H11_3 H 0.710691 0.358742 0.698925
C23_3 C 0.7727(8) 0.4702(7) 0.68847(16)
H12_3 H 0.749614 0.470084 0.674213
C24_3 C 0.7613(8) 0.3275(6) 0.73882(14)
O10_3 O 0.6540(5) 0.5804(4) 0.84167(10)
O11_2 O 0.5870(4) 0.6605(4) 0.81541(9)
C25_3 C 0.6340(6) 0.5972(6) 0.82184(13)
C26_3 C 0.6697(7) 0.5345(6) 0.80535(14)
C27_3 C 0.6404(7) 0.5355(6) 0.78367(15)
H13_3 H 0.602591 0.580038 0.779029
C28_3 C 0.6665(8) 0.4710(7) 0.76872(16)
H14_3 H 0.645869 0.472711 0.754237
C29_3 C 0.7219(7) 0.4056(6) 0.77506(14)
C30_3 C 0.7522(9) 0.4039(7) 0.79649(16)
H15_3 H 0.789309 0.358742 0.801075
C31_3 C 0.7273(8) 0.4702(7) 0.81153(16)
H16_3 H 0.750386 0.470084 0.825787
C32_3 C 0.7387(8) 0.3275(6) 0.76118(14)
Zr3_2 Zr 0.61618(5) 0.63382(5) 0.875000
O12_2 O 0.500000 0.6525(5) 0.85753(11)
O13_3 O 0.6047(7) 0.4881(5) 0.87638(11)
O16_3 O 0.7619(5) 0.6453(7) 0.87362(11)
Zr5_3 Zr 0.38382(5) 0.63382(5) 0.875000
Zr9_3 Zr 0.500000 0.750000 0.83420(2)
O18_3 O 0.6696(4) 0.5960(5) 0.90833(10)
O23_3 O 0.5975(5) 0.750000 0.89247(11)
O25_3 O 0.6345(5) 0.750000 0.85255(12)
O26_4 O 0.500000 0.6155(5) 0.89745(12)
Zr1_3 Zr 0.61618(5) 0.86618(5) 0.875000
O1_3 O 0.6540(5) 0.9196(4) 0.84167(10)
O2_3 O 0.5870(4) 0.8395(4) 0.81541(9)
O3_4 O 0.500000 0.8475(5) 0.85753(11)
C1_3 C 0.6340(6) 0.9028(6) 0.82184(13)
C2_3 C 0.6697(7) 0.9655(6) 0.80535(14)
C3_3 C 0.6404(7) 0.9645(6) 0.78367(15)
H1_3 H 0.602591 0.919962 0.779029
O6_3 O 0.8460(5) 0.9196(4) 0.65833(10)
O7_3 O 0.9130(4) 0.8395(4) 0.68459(9)
C9_3 C 0.8660(6) 0.9028(6) 0.67816(13)
C10_3 C 0.8303(7) 0.9655(6) 0.69465(14)
C11_3 C 0.8596(7) 0.9645(6) 0.71633(15)
H5_3 H 0.897409 0.919962 0.720971
O14_4 O 0.500000 0.8845(5) 0.89745(12)
O15_3 O 0.7619(5) 0.8547(7) 0.87362(11)
Zr7_3 Zr 0.38382(5) 0.86618(5) 0.875000
Zr12_5 Zr 0.500000 0.750000 0.91580(2)
O17_3 O 0.6696(4) 0.9040(5) 0.90833(10)
O19_3 O 0.4130(4) 0.6605(4) 0.81541(9)
O20_3 O 0.4130(4) 0.8395(4) 0.81541(9)
O27_4 O 0.3655(5) 0.750000 0.85255(12)
Zr1_4 Zr 0.38382(5) 0.36618(5) 0.125000
Zr2_3 Zr 0.500000 0.250000 0.08420(2)
O1_4 O 0.3304(4) 0.4040(5) 0.09167(10)
O2_4 O 0.4105(4) 0.3370(4) 0.06541(9)
O3_5 O 0.4025(5) 0.250000 0.10753(11)
O4_2 O 0.500000 0.3845(5) 0.10255(12)
O5_4 O 0.2381(5) 0.3547(7) 0.12638(11)
C1_4 C 0.3472(6) 0.3840(6) 0.07184(13)
C2_4 C 0.2845(6) 0.4197(7) 0.05535(14)
C3_4 C 0.2855(6) 0.3904(7) 0.03367(15)
H1_4 H 0.330038 0.352591 0.029029
C4_4 C 0.2210(7) 0.4165(8) 0.01872(16)
H2_4 H 0.222711 0.395869 0.004237
C5_4 C 0.1556(6) 0.4719(7) 0.02506(14)
C6_4 C 0.1539(7) 0.5022(9) 0.04649(16)
H3_4 H 0.108742 0.539309 0.051075
C7_4 C 0.2202(7) 0.4773(8) 0.06153(16)
H4_4 H 0.220084 0.500386 0.075787
C8_4 C 0.0775(6) 0.4887(8) 0.01118(14)
N1_4 N -0.000000 0.4789(8) 0.02208(17)
O14_5 O 0.3655(5) 0.250000 0.14745(12)
O15_4 O 0.3953(7) 0.5119(5) 0.12362(11)
Zr7_4 Zr 0.38382(5) 0.13382(5) 0.125000
O17_4 O 0.3460(5) 0.4196(4) 0.15833(10)
O19_4 O 0.5895(4) 0.1630(4) 0.06541(9)
O20_4 O 0.4105(4) 0.1630(4) 0.06541(9)
O21_2 O 0.5895(4) 0.3370(4) 0.06541(9)
O22_3 O 0.5975(5) 0.250000 0.10753(11)
O24_2 O 0.500000 0.3475(5) 0.14247(11)
O27_5 O 0.500000 0.1155(5) 0.10255(12)
O6_4 O 0.3304(4) 0.5960(5) 0.90833(10)
O7_4 O 0.4105(4) 0.6630(4) 0.93459(9)
C9_4 C 0.3472(6) 0.6160(6) 0.92816(13)
C10_4 C 0.2845(6) 0.5803(7) 0.94465(14)
C11_4 C 0.2855(6) 0.6096(7) 0.96633(15)
H5_4 H 0.330038 0.647409 0.970971
C12_4 C 0.2210(7) 0.5835(8) 0.98128(16)
H6_4 H 0.222711 0.604131 0.995763
C13_4 C 0.1556(6) 0.5281(7) 0.97494(14)
C14_4 C 0.1539(7) 0.4978(9) 0.95351(16)
H7_4 H 0.108742 0.460691 0.948925
C15_4 C 0.2202(7) 0.5227(8) 0.93847(16)
H8_4 H 0.220084 0.499614 0.924213
C16_4 C 0.0775(6) 0.5113(8) 0.98882(14)
N2_4 N 0.000000 0.5211(8) 0.97792(17)
N1_5 N 1.000000 0.4789(8) 0.02208(17)
O10_4 O 0.6696(4) 0.4040(5) 0.09167(10)
C25_4 C 0.6528(6) 0.3840(6) 0.07184(13)
C26_4 C 0.7155(6) 0.4197(7) 0.05535(14)
C27_4 C 0.7145(6) 0.3904(7) 0.03367(15)
H13_4 H 0.669962 0.352591 0.029029
C28_4 C 0.7790(7) 0.4165(8) 0.01872(16)
H14_4 H 0.777289 0.395869 0.004237
C29_4 C 0.8444(6) 0.4719(7) 0.02506(14)
C30_4 C 0.8461(7) 0.5022(9) 0.04649(16)
H15_4 H 0.891258 0.539309 0.051075
C31_4 C 0.7798(7) 0.4773(8) 0.06153(16)
H16_4 H 0.779916 0.500386 0.075787
C32_4 C 0.9225(6) 0.4887(8) 0.01118(14)
O13_4 O 0.7619(5) 0.3547(7) 0.12638(11)
O16_4 O 0.6047(7) 0.5119(5) 0.12362(11)
O26_5 O 0.6345(5) 0.250000 0.14745(12)
N2_5 N 1.000000 0.5211(8) 0.97792(17)
O9_4 O 0.5895(4) 0.6630(4) 0.93459(9)
C17_4 C 0.6528(6) 0.6160(6) 0.92816(13)
C18_4 C 0.7155(6) 0.5803(7) 0.94465(14)
C19_4 C 0.7145(6) 0.6096(7) 0.96633(15)
H9_4 H 0.669962 0.647409 0.970971
C20_4 C 0.7790(7) 0.5835(8) 0.98128(16)
H10_4 H 0.777289 0.604131 0.995763
C21_4 C 0.8444(6) 0.5281(7) 0.97494(14)
C22_4 C 0.8461(7) 0.4978(9) 0.95351(16)
H11_4 H 0.891258 0.460691 0.948925
C23_4 C 0.7798(7) 0.5227(8) 0.93847(16)
H12_4 H 0.779916 0.499614 0.924213
C24_4 C 0.9225(6) 0.5113(8) 0.98882(14)
O3_6 O -0.000000 0.8475(5) 0.64247(11)
O19_5 O 0.0870(4) 0.6605(4) 0.68459(9)
O20_5 O 0.0870(4) 0.8395(4) 0.68459(9)
O5_5 O 0.8953(7) 0.0119(5) 0.62362(11)
O3_7 O 1.000000 0.8475(5) 0.64247(11)
O15_5 O 0.7381(5) 0.8547(7) 0.62638(11)
O17_5 O 0.8304(4) 0.9040(5) 0.59167(10)
O3_8 O 0.4025(5) 0.750000 0.89247(11)
O5_6 O 0.2381(5) 0.6453(7) 0.87362(11)
O15_6 O 0.3953(7) 0.4881(5) 0.87638(11)
O17_6 O 0.3460(5) 0.5804(4) 0.84167(10)
O19_6 O 0.5895(4) 0.8370(4) 0.93459(9)
O20_6 O 0.4105(4) 0.8370(4) 0.93459(9)
O3_9 O 0.500000 0.1525(5) 0.14247(11)
O15_7 O 0.7619(5) 0.1453(7) 0.12638(11)
O17_7 O 0.6696(4) 0.0960(5) 0.09167(10)
O19_7 O 0.4130(4) 0.3395(4) 0.18459(9)
O20_7 O 0.4130(4) 0.1605(4) 0.18459(9)
O5_7 O 0.6047(7) 0.9881(5) 0.12362(11)
O3_10 O 0.0975(5) 0.250000 0.39247(11)
O5_8 O 0.2619(5) 0.3547(7) 0.37362(11)
O15_8 O 0.1047(7) 0.5119(5) 0.37638(11)
O17_8 O 0.1540(5) 0.4196(4) 0.34167(10)
O20_8 O 0.0895(4) 0.1630(4) 0.43459(9)
O19_8 O 0.9105(4) 0.1630(4) 0.43459(9)
C1_5 C 0.3660(6) 0.5972(6) 0.82184(13)
C2_5 C 0.3303(7) 0.5345(6) 0.80535(14)
C3_5 C 0.3596(7) 0.5355(6) 0.78367(15)
H1_5 H 0.397409 0.580038 0.779029
C4_5 C 0.3335(8) 0.4710(7) 0.76872(16)
H2_5 H 0.354131 0.472711 0.754237
C5_5 C 0.2781(7) 0.4056(6) 0.77506(14)
C6_5 C 0.2478(9) 0.4039(7) 0.79649(16)
H3_5 H 0.210691 0.358742 0.801075
C7_5 C 0.2727(8) 0.4702(7) 0.81153(16)
H4_5 H 0.249614 0.470084 0.825787
C8_5 C 0.2613(8) 0.3275(6) 0.76118(14)
N1_6 N 0.2711(8) 0.250000 0.77208(17)
C9_5 C 0.1340(6) 0.5972(6) 0.67816(13)
C10_5 C 0.1697(7) 0.5345(6) 0.69465(14)
C11_5 C 0.1404(7) 0.5355(6) 0.71633(15)
H5_5 H 0.102591 0.580038 0.720971
C12_5 C 0.1665(8) 0.4710(7) 0.73128(16)
H6_5 H 0.145869 0.472711 0.745763
C13_5 C 0.2219(7) 0.4056(6) 0.72494(14)
C14_5 C 0.2522(9) 0.4039(7) 0.70351(16)
H7_5 H 0.289309 0.358742 0.698925
C15_5 C 0.2273(8) 0.4702(7) 0.68847(16)
H8_5 H 0.250386 0.470084 0.674213
C16_5 C 0.2387(8) 0.3275(6) 0.73882(14)
N2_6 N 0.2289(8) 0.250000 0.72792(17)
C20_5 C 0.1665(8) 0.0290(7) 0.73128(16)
H10_5 H 0.145869 0.027289 0.745763
C21_5 C 0.2219(7) 0.0944(6) 0.72494(14)
C22_5 C 0.2522(9) 0.0961(7) 0.70351(16)
H11_5 H 0.289309 0.141258 0.698925
C23_5 C 0.2273(8) 0.0298(7) 0.68847(16)
H12_5 H 0.250386 0.029916 0.674213
C24_5 C 0.2387(8) 0.1725(6) 0.73882(14)
C28_5 C 0.3335(8) 0.0290(7) 0.76872(16)
H14_5 H 0.354131 0.027289 0.754237
C29_5 C 0.2781(7) 0.0944(6) 0.77506(14)
C30_5 C 0.2478(9) 0.0961(7) 0.79649(16)
H15_5 H 0.210691 0.141258 0.801075
C31_5 C 0.2727(8) 0.0298(7) 0.81153(16)
H16_5 H 0.249614 0.029916 0.825787
C32_5 C 0.2613(8) 0.1725(6) 0.76118(14)
O13_5 O 0.3953(7) 0.0119(5) 0.87638(11)
O8_2 O 0.1540(5) 0.9196(4) 0.65833(10)
C17_5 C 0.1340(6) 0.9028(6) 0.67816(13)
C18_5 C 0.1697(7) 0.9655(6) 0.69465(14)
C19_5 C 0.1404(7) 0.9645(6) 0.71633(15)
H9_5 H 0.102591 0.919962 0.720971
O10_5 O 0.3460(5) 0.9196(4) 0.84167(10)
C25_5 C 0.3660(6) 0.9028(6) 0.82184(13)
C26_5 C 0.3303(7) 0.9655(6) 0.80535(14)
C27_5 C 0.3596(7) 0.9645(6) 0.78367(15)
H13_5 H 0.397409 0.919962 0.779029
O16_5 O 0.2381(5) 0.8547(7) 0.87362(11)
O18_4 O 0.3304(4) 0.9040(5) 0.90833(10)
N1_7 N -0.000000 0.0211(8) 0.02208(17)
O10_6 O 0.3304(4) 0.0960(5) 0.09167(10)
C25_6 C 0.3472(6) 0.1160(6) 0.07184(13)
C26_6 C 0.2845(6) 0.0803(7) 0.05535(14)
C27_6 C 0.2855(6) 0.1096(7) 0.03367(15)
H13_6 H 0.330038 0.147409 0.029029
C28_6 C 0.2210(7) 0.0835(8) 0.01872(16)
H14_6 H 0.222711 0.104131 0.004237
C29_6 C 0.1556(6) 0.0281(7) 0.02506(14)
C31_6 C 0.2202(7) 0.0227(8) 0.06153(16)
C32_6 C 0.0775(6) 0.0113(8) 0.01118(14)
O13_6 O 0.2381(5) 0.1453(7) 0.12638(11)
O18_5 O 0.3460(5) 0.0804(4) 0.15833(10)
C22_6 C 0.1539(7) 0.0022(9) 0.95351(16)
H11_6 H 0.108742 0.039309 0.948925
H12_6 H 0.220084 0.000386 0.924213
C30_6 C 0.1539(7) 0.9978(9) 0.04649(16)
H15_6 H 0.108742 0.960691 0.051075
H16_6 H 0.220084 0.999614 0.075787
O16_6 O 0.3953(7) 0.9881(5) 0.12362(11)
N2_7 N -0.000000 0.9789(8) 0.97792(17)
C17_6 C 0.3472(6) 0.8840(6) 0.92816(13)
C18_6 C 0.2845(6) 0.9197(7) 0.94465(14)
C19_6 C 0.2855(6) 0.8904(7) 0.96633(15)
H9_6 H 0.330038 0.852591 0.970971
C20_6 C 0.2210(7) 0.9165(8) 0.98128(16)
H10_6 H 0.222711 0.895869 0.995763
C21_6 C 0.1556(6) 0.9719(7) 0.97494(14)
C23_6 C 0.2202(7) 0.9773(8) 0.93847(16)
C24_6 C 0.0775(6) 0.9887(8) 0.98882(14)
C1_6 C 0.6528(6) 0.1160(6) 0.07184(13)
C2_6 C 0.7155(6) 0.0803(7) 0.05535(14)
C3_6 C 0.7145(6) 0.1096(7) 0.03367(15)
H1_6 H 0.669962 0.147409 0.029029
C4_6 C 0.7790(7) 0.0835(8) 0.01872(16)
H2_6 H 0.777289 0.104131 0.004237
C5_6 C 0.8444(6) 0.0281(7) 0.02506(14)
C7_6 C 0.7798(7) 0.0227(8) 0.06153(16)
C8_6 C 0.9225(6) 0.0113(8) 0.01118(14)
N1_8 N 1.000000 0.0211(8) 0.02208(17)
C14_6 C 0.8461(7) 0.0022(9) 0.95351(16)
H7_6 H 0.891258 0.039309 0.948925
H8_6 H 0.779916 0.000386 0.924213
C6_6 C 0.8461(7) 0.9978(9) 0.04649(16)
H3_6 H 0.891258 0.960691 0.051075
H4_6 H 0.779916 0.999614 0.075787
C9_6 C 0.6528(6) 0.8840(6) 0.92816(13)
C10_6 C 0.7155(6) 0.9197(7) 0.94465(14)
C11_6 C 0.7145(6) 0.8904(7) 0.96633(15)
H5_6 H 0.669962 0.852591 0.970971
C12_6 C 0.7790(7) 0.9165(8) 0.98128(16)
H6_6 H 0.777289 0.895869 0.995763
C13_6 C 0.8444(6) 0.9719(7) 0.97494(14)
C15_6 C 0.7798(7) 0.9773(8) 0.93847(16)
C16_6 C 0.9225(6) 0.9887(8) 0.98882(14)
N2_8 N 1.000000 0.9789(8) 0.97792(17)
C17_7 C 0.3660(6) 0.0972(6) 0.17816(13)
C18_7 C 0.3303(7) 0.0345(6) 0.19465(14)
C19_7 C 0.3596(7) 0.0355(6) 0.21633(15)
H9_7 H 0.397409 0.080038 0.220971
O10_7 O 0.1540(5) 0.0804(4) 0.34167(10)
C25_7 C 0.1340(6) 0.0972(6) 0.32184(13)
C26_7 C 0.1697(7) 0.0345(6) 0.30535(14)
C27_7 C 0.1404(7) 0.0355(6) 0.28367(15)
H13_7 H 0.102591 0.080038 0.279029
O16_7 O 0.2619(5) 0.1453(7) 0.37362(11)
O18_6 O 0.1696(4) 0.0960(5) 0.40833(10)
C1_7 C 0.1340(6) 0.4028(6) 0.32184(13)
C2_7 C 0.1697(7) 0.4655(6) 0.30535(14)
C3_7 C 0.1404(7) 0.4645(6) 0.28367(15)
H1_7 H 0.102591 0.419962 0.279029
C4_7 C 0.1665(8) 0.5290(7) 0.26872(16)
H2_7 H 0.145869 0.527289 0.254237
C5_7 C 0.2219(7) 0.5944(6) 0.27506(14)
C6_7 C 0.2522(9) 0.5961(7) 0.29649(16)
H3_7 H 0.289309 0.641258 0.301075
C7_7 C 0.2273(8) 0.5298(7) 0.31153(16)
H4_7 H 0.250386 0.529916 0.325787
C8_7 C 0.2387(8) 0.6725(6) 0.26118(14)
N1_9 N 0.2289(8) 0.750000 0.27208(17)
C9_7 C 0.3660(6) 0.4028(6) 0.17816(13)
C10_7 C 0.3303(7) 0.4655(6) 0.19465(14)
C11_7 C 0.3596(7) 0.4645(6) 0.21633(15)
H5_7 H 0.397409 0.419962 0.220971
C12_7 C 0.3335(8) 0.5290(7) 0.23128(16)
H6_7 H 0.354131 0.527289 0.245763
C13_7 C 0.2781(7) 0.5944(6) 0.22494(14)
C14_7 C 0.2478(9) 0.5961(7) 0.20351(16)
H7_7 H 0.210691 0.641258 0.198925
C15_7 C 0.2727(8) 0.5298(7) 0.18847(16)
H8_7 H 0.249614 0.529916 0.174213
C16_7 C 0.2613(8) 0.6725(6) 0.23882(14)
N2_9 N 0.2711(8) 0.750000 0.22792(17)
C20_7 C 0.3335(8) 0.9710(7) 0.23128(16)
H10_7 H 0.354131 0.972711 0.245763
C21_7 C 0.2781(7) 0.9056(6) 0.22494(14)
C22_7 C 0.2478(9) 0.9039(7) 0.20351(16)
H11_7 H 0.210691 0.858742 0.198925
C23_7 C 0.2727(8) 0.9702(7) 0.18847(16)
H12_7 H 0.249614 0.970084 0.174213
C24_7 C 0.2613(8) 0.8275(6) 0.23882(14)
C28_7 C 0.1665(8) 0.9710(7) 0.26872(16)
H14_7 H 0.145869 0.972711 0.254237
C29_7 C 0.2219(7) 0.9056(6) 0.27506(14)
C30_7 C 0.2522(9) 0.9039(7) 0.29649(16)
H15_7 H 0.289309 0.858742 0.301075
C31_7 C 0.2273(8) 0.9702(7) 0.31153(16)
H16_7 H 0.250386 0.970084 0.325787
C32_7 C 0.2387(8) 0.8275(6) 0.26118(14)
O13_7 O 0.1047(7) 0.9881(5) 0.37638(11)
C6_8 C 0.6539(7) 0.0022(9) 0.54649(16)
H3_8 H 0.608742 0.039309 0.551075
H4_8 H 0.720084 0.000386 0.575787
C9_8 C 0.8472(6) 0.1160(6) 0.42816(13)
C10_8 C 0.7845(6) 0.0803(7) 0.44465(14)
C11_8 C 0.7855(6) 0.1096(7) 0.46633(15)
H5_8 H 0.830038 0.147409 0.470971
C12_8 C 0.7210(7) 0.0835(8) 0.48128(16)
H6_8 H 0.722711 0.104131 0.495763
C13_8 C 0.6556(6) 0.0281(7) 0.47494(14)
C15_8 C 0.7202(7) 0.0227(8) 0.43847(16)
C16_8 C 0.5775(6) 0.0113(8) 0.48882(14)
N2_10 N 0.500000 0.0211(8) 0.47792(17)
C17_8 C 0.1528(6) 0.1160(6) 0.42816(13)
C18_8 C 0.2155(6) 0.0803(7) 0.44465(14)
C19_8 C 0.2145(6) 0.1096(7) 0.46633(15)
H9_8 H 0.169962 0.147409 0.470971
C20_8 C 0.2790(7) 0.0835(8) 0.48128(16)
H10_8 H 0.277289 0.104131 0.495763
C21_8 C 0.3444(6) 0.0281(7) 0.47494(14)
C23_8 C 0.2798(7) 0.0227(8) 0.43847(16)
C24_8 C 0.4225(6) 0.0113(8) 0.48882(14)
C30_8 C 0.3461(7) 0.0022(9) 0.54649(16)
H15_8 H 0.391258 0.039309 0.551075
H16_8 H 0.279916 0.000386 0.575787
O16_8 O 0.1047(7) 0.0119(5) 0.62362(11)
C1_8 C 0.8472(6) 0.8840(6) 0.57184(13)
C2_8 C 0.7845(6) 0.9197(7) 0.55535(14)
C3_8 C 0.7855(6) 0.8904(7) 0.53367(15)
H1_8 H 0.830038 0.852591 0.529029
C4_8 C 0.7210(7) 0.9165(8) 0.51872(16)
H2_8 H 0.722711 0.895869 0.504237
C5_8 C 0.6556(6) 0.9719(7) 0.52506(14)
C7_8 C 0.7202(7) 0.9773(8) 0.56153(16)
C8_8 C 0.5775(6) 0.9887(8) 0.51118(14)
N1_10 N 0.500000 0.9789(8) 0.52208(17)
C14_8 C 0.6539(7) 0.9978(9) 0.45351(16)
H7_8 H 0.608742 0.960691 0.448925
H8_8 H 0.720084 0.999614 0.424213
C22_8 C 0.3461(7) 0.9978(9) 0.45351(16)
H11_8 H 0.391258 0.960691 0.448925
H12_8 H 0.279916 0.999614 0.424213
O10_8 O 0.1696(4) 0.9040(5) 0.59167(10)
C25_8 C 0.1528(6) 0.8840(6) 0.57184(13)
C26_8 C 0.2155(6) 0.9197(7) 0.55535(14)
C27_8 C 0.2145(6) 0.8904(7) 0.53367(15)
H13_8 H 0.169962 0.852591 0.529029
C28_8 C 0.2790(7) 0.9165(8) 0.51872(16)
H14_8 H 0.277289 0.895869 0.504237
C29_8 C 0.3444(6) 0.9719(7) 0.52506(14)
C31_8 C 0.2798(7) 0.9773(8) 0.56153(16)
C32_8 C 0.4225(6) 0.9887(8) 0.51118(14)
O13_8 O 0.2619(5) 0.8547(7) 0.62638(11)
loop_
_geom_bond_atom_site_label_1
_geom_bond_atom_site_label_2
_geom_bond_site_symmetry_1
_geom_bond_site_symmetry_2
Zr7 O3 1_555 1_555
Zr12 O14 1_555 1_555
O19 Zr2 1_555 1_555
O20 Zr2 1_555 1_555
O22 Zr2 1_555 1_555
O27 Zr2 1_555 1_555
Zr2 O3 1_555 1_555
O14 Zr7 1_555 1_555
Zr7 O27 1_555 1_555
Zr5 O22 1_555 1_555
Zr5 O26 1_555 1_555
Zr1 O1 1_555 1_555
Zr2_2 O2 1_555 1_555
O1 C1 1_555 1_555
O2 C1 1_555 1_555
O3_2 Zr1 1_555 1_555
O4 Zr1 1_555 1_555
C1 C2 1_555 1_555
C2 C3 1_555 1_555
C3 H1 1_555 1_555
O6 C9 1_555 1_555
O7 C9 1_555 1_555
C9 C10 1_555 1_555
C10 C11 1_555 1_555
C11 H5 1_555 1_555
O14_2 Zr1 1_555 1_555
O15 Zr1 1_555 1_555
Zr4 O6 1_555 1_555
Zr6 O4 1_555 1_555
Zr11 O7 1_555 1_555
Zr12_2 O14_2 1_555 1_555
O17 Zr1 1_555 1_555
O21 Zr2_2 1_555 1_555
O22_2 Zr2_2 1_555 1_555
O24 Zr1 1_555 1_555
Zr2_2 O3_2 1_555 1_555
Zr2_2 O4 1_555 1_555
Zr6 O22_2 1_555 1_555
Zr6 O24 1_555 1_555
Zr12_2 O24 1_555 1_555
H2 C4 1_555 1_555
C5 C4 1_555 1_555
C6 C5 1_555 1_555
H3 C6 1_555 1_555
H4 C7 1_555 1_555
C8 C5 1_555 1_555
N1 C8 1_555 1_555
H6 C12 1_555 1_555
C13 C12 1_555 1_555
C14 C13 1_555 1_555
H7 C14 1_555 1_555
H8 C15 1_555 1_555
C16 C8 1_555 1_555
N2 C16 1_555 1_555
O8 C17 1_555 1_555
O9 C17 1_555 1_555
C17 C18 1_555 1_555
C18 C19 1_555 1_555
C19 H9 1_555 1_555
C20 C19 1_555 1_555
H10 C20 1_555 1_555
C21 C20 1_555 1_555
C22 C21 1_555 1_555
H11 C22 1_555 1_555
C23 C18 1_555 1_555
H12 C23 1_555 1_555
C24 N2 1_555 1_555
O10 C25 1_555 1_555
O21 C25 1_555 1_555
C25 C26 1_555 1_555
C26 C27 1_555 1_555
C27 H13 1_555 1_555
C28 C27 1_555 1_555
H14 C28 1_555 1_555
C29 C28 1_555 1_555
C30 C29 1_555 1_555
H15 C30 1_555 1_555
C31 C26 1_555 1_555
H16 C31 1_555 1_555
C32 N1 1_555 1_555
Zr6 O10 1_555 1_555
O13 Zr6 1_555 1_555
O16 Zr6 1_555 1_555
Zr8 O8 1_555 1_555
Zr11 O9 1_555 1_555
O18 Zr6 1_555 1_555
O26_2 Zr6 1_555 1_555
C6 C7 1_555 1_555
C13 C16 1_555 1_555
C14 C15 1_555 1_555
C21 C24 1_555 1_555
C22 C23 1_555 1_555
C24 C32 1_555 1_555
C29 C32 1_555 1_555
C30 C31 1_555 1_555
Zr9 O25 1_555 1_555
Zr1_2 O1_2 1_555 1_555
Zr9 O2_2 1_555 1_555
O1_2 C1_2 1_555 1_555
O2_2 C1_2 1_555 1_555
O3_3 Zr1_2 1_555 1_555
O25 Zr1_2 1_555 1_555
O5_2 Zr1_2 1_555 1_555
C1_2 C2_2 1_555 1_555
C2_2 C3_2 1_555 1_555
C3_2 H1_2 1_555 1_555
C4_2 C3_2 1_555 1_555
H2_2 C4_2 1_555 1_555
C5_2 C4_2 1_555 1_555
C6_2 C5_2 1_555 1_555
H3_2 C6_2 1_555 1_555
C7_2 C2_2 1_555 1_555
H4_2 C7_2 1_555 1_555
C8_2 C5_2 1_555 1_555
N1_2 C8_2 1_555 1_555
O6_2 C9_2 1_555 1_555
O7_2 C9_2 1_555 1_555
C9_2 C10_2 1_555 1_555
C10_2 C11_2 1_555 1_555
C11_2 H5_2 1_555 1_555
C12_2 C11_2 1_555 1_555
H6_2 C12_2 1_555 1_555
C13_2 C12_2 1_555 1_555
C14_2 C13_2 1_555 1_555
H7_2 C14_2 1_555 1_555
C15_2 C10_2 1_555 1_555
H8_2 C15_2 1_555 1_555
C16_2 C8_2 1_555 1_555
N2_2 C16_2 1_555 1_555
O18 C17_2 1_555 1_555
O9_2 C17_2 1_555 1_555
C17_2 C18_2 1_555 1_555
C18_2 C19_2 1_555 1_555
C19_2 H9_2 1_555 1_555
C20_2 C19_2 1_555 1_555
H10_2 C20_2 1_555 1_555
C21_2 C20_2 1_555 1_555
C22_2 C21_2 1_555 1_555
H11_2 C22_2 1_555 1_555
C23_2 C18_2 1_555 1_555
H12_2 C23_2 1_555 1_555
C24_2 N2_2 1_555 1_555
O10_2 C25_2 1_555 1_555
O11 C25_2 1_555 1_555
C25_2 C26_2 1_555 1_555
C26_2 C27_2 1_555 1_555
C27_2 H13_2 1_555 1_555
C28_2 C27_2 1_555 1_555
H14_2 C28_2 1_555 1_555
C29_2 C28_2 1_555 1_555
C30_2 C29_2 1_555 1_555
H15_2 C30_2 1_555 1_555
C31_2 C26_2 1_555 1_555
H16_2 C31_2 1_555 1_555
C32_2 N1_2 1_555 1_555
Zr3 O10_2 1_555 1_555
O12 Zr3 1_555 1_555
O13_2 Zr3 1_555 1_555
O14_3 Zr1_2 1_555 1_555
O15_2 Zr1_2 1_555 1_555
O16_2 Zr3 1_555 1_555
Zr5 O6_2 1_555 1_555
Zr5_2 O12 1_555 1_555
Zr7_2 O3_3 1_555 1_555
Zr9_2 O11 1_555 1_555
Zr12_2 O9_2 1_555 1_555
Zr12 O7_2 1_555 1_555
Zr12_3 O14_3 1_555 1_555
O17_2 Zr1_2 1_555 1_555
O18_2 Zr3 1_555 1_555
O20_2 Zr9 1_555 1_555
O23_2 Zr3 1_555 1_555
O23 Zr1_2 1_555 1_555
O25_2 Zr3 1_555 1_555
O26_3 Zr3 1_555 1_555
O27_2 Zr9 1_555 1_555
Zr9 O3_3 1_555 1_555
C6_2 C7_2 1_555 1_555
C13_2 C16_2 1_555 1_555
C14_2 C15_2 1_555 1_555
C21_2 C24_2 1_555 1_555
C22_2 C23_2 1_555 1_555
C24_2 C32_2 1_555 1_555
C29_2 C32_2 1_555 1_555
C30_2 C31_2 1_555 1_555
O12 Zr9_2 1_555 1_555
O14_3 Zr7_2 1_555 1_555
Zr5_2 O26_3 1_555 1_555
Zr7_2 O27_2 1_555 1_555
Zr9_2 O25_2 1_555 1_555
Zr12_3 O23 1_555 1_555
O19_2 Zr9_2 1_555 1_555
O27_3 Zr9_2 1_555 1_555
Zr12_4 O23_2 1_555 1_555
H2_3 C4_3 1_555 1_555
C5_3 C4_3 1_555 1_555
C6_3 C5_3 1_555 1_555
H3_3 C6_3 1_555 1_555
H4_3 C7_3 1_555 1_555
C8_3 C5_3 1_555 1_555
N1_3 C8_3 1_555 1_555
H6_3 C12_3 1_555 1_555
C13_3 C12_3 1_555 1_555
C14_3 C13_3 1_555 1_555
H7_3 C14_3 1_555 1_555
H8_3 C15_3 1_555 1_555
C16_3 C8_3 1_555 1_555
N2_3 C16_3 1_555 1_555
O18_2 C17_3 1_555 1_555
O9_3 C17_3 1_555 1_555
C17_3 C18_3 1_555 1_555
C18_3 C19_3 1_555 1_555
C19_3 H9_3 1_555 1_555
C20_3 C19_3 1_555 1_555
H10_3 C20_3 1_555 1_555
C21_3 C20_3 1_555 1_555
C22_3 C21_3 1_555 1_555
H11_3 C22_3 1_555 1_555
C23_3 C18_3 1_555 1_555
H12_3 C23_3 1_555 1_555
C24_3 N2_3 1_555 1_555
O10_3 C25_3 1_555 1_555
O11_2 C25_3 1_555 1_555
C25_3 C26_3 1_555 1_555
C26_3 C27_3 1_555 1_555
C27_3 H13_3 1_555 1_555
C28_3 C27_3 1_555 1_555
H14_3 C28_3 1_555 1_555
C29_3 C28_3 1_555 1_555
C30_3 C29_3 1_555 1_555
H15_3 C30_3 1_555 1_555
C31_3 C26_3 1_555 1_555
H16_3 C31_3 1_555 1_555
C32_3 N1_3 1_555 1_555
Zr3_2 O10_3 1_555 1_555
O12_2 Zr3_2 1_555 1_555
O13_3 Zr3_2 1_555 1_555
O16_3 Zr3_2 1_555 1_555
Zr5_3 O12_2 1_555 1_555
Zr9_3 O11_2 1_555 1_555
Zr12_4 O9_3 1_555 1_555
O18_3 Zr3_2 1_555 1_555
O23_3 Zr3_2 1_555 1_555
O25_3 Zr3_2 1_555 1_555
O26_4 Zr3_2 1_555 1_555
C6_3 C7_3 1_555 1_555
C13_3 C16_3 1_555 1_555
C14_3 C15_3 1_555 1_555
C21_3 C24_3 1_555 1_555
C22_3 C23_3 1_555 1_555
C24_3 C32_3 1_555 1_555
C29_3 C32_3 1_555 1_555
C30_3 C31_3 1_555 1_555
O12_2 Zr9_3 1_555 1_555
Zr5_3 O26_4 1_555 1_555
Zr9_3 O25_3 1_555 1_555
Zr1_3 O1_3 1_555 1_555
Zr9_3 O2_3 1_555 1_555
O1_3 C1_3 1_555 1_555
O2_3 C1_3 1_555 1_555
O3_4 Zr1_3 1_555 1_555
O25_3 Zr1_3 1_555 1_555
C1_3 C2_3 1_555 1_555
C2_3 C3_3 1_555 1_555
C3_3 H1_3 1_555 1_555
O6_3 C9_3 1_555 1_555
O7_3 C9_3 1_555 1_555
C9_3 C10_3 1_555 1_555
C10_3 C11_3 1_555 1_555
C11_3 H5_3 1_555 1_555
O14_4 Zr1_3 1_555 1_555
O15_3 Zr1_3 1_555 1_555
Zr5_2 O6_3 1_555 1_555
Zr7_3 O3_4 1_555 1_555
Zr12_4 O7_3 1_555 1_555
Zr12_5 O14_4 1_555 1_555
O17_3 Zr1_3 1_555 1_555
O19_3 Zr9_3 1_555 1_555
O20_3 Zr9_3 1_555 1_555
O23_3 Zr1_3 1_555 1_555
O27_4 Zr9_3 1_555 1_555
Zr9_3 O3_4 1_555 1_555
O14_4 Zr7_3 1_555 1_555
Zr7_3 O27_4 1_555 1_555
Zr12_5 O23_3 1_555 1_555
Zr1_4 O1_4 1_555 1_555
Zr2_3 O2_4 1_555 1_555
O1_4 C1_4 1_555 1_555
O2_4 C1_4 1_555 1_555
O3_5 Zr1_4 1_555 1_555
O4_2 Zr1_4 1_555 1_555
O5_4 Zr1_4 1_555 1_555
C1_4 C2_4 1_555 1_555
C2_4 C3_4 1_555 1_555
C3_4 H1_4 1_555 1_555
C4_4 C3_4 1_555 1_555
H2_4 C4_4 1_555 1_555
C5_4 C4_4 1_555 1_555
C6_4 C5_4 1_555 1_555
H3_4 C6_4 1_555 1_555
C7_4 C2_4 1_555 1_555
H4_4 C7_4 1_555 1_555
C8_4 C5_4 1_555 1_555
N1_4 C8_4 1_555 1_555
O14_5 Zr1_4 1_555 1_555
O15_4 Zr1_4 1_555 1_555
Zr8 O4_2 1_555 1_555
Zr7_4 O3_5 1_555 1_555
Zr11 O14_5 1_555 1_555
O17_4 Zr1_4 1_555 1_555
O19_4 Zr2_3 1_555 1_555
O20_4 Zr2_3 1_555 1_555
O21_2 Zr2_3 1_555 1_555
O22_3 Zr2_3 1_555 1_555
O24_2 Zr1_4 1_555 1_555
O27_5 Zr2_3 1_555 1_555
Zr2_3 O3_5 1_555 1_555
Zr2_3 O4_2 1_555 1_555
C6_4 C7_4 1_555 1_555
O14_5 Zr7_4 1_555 1_555
Zr8 O22_3 1_555 1_555
Zr8 O24_2 1_555 1_555
Zr7_4 O27_5 1_555 1_555
Zr11 O24_2 1_555 1_555
O6_4 C9_4 1_555 1_555
O7_4 C9_4 1_555 1_555
C9_4 C10_4 1_555 1_555
C10_4 C11_4 1_555 1_555
C11_4 H5_4 1_555 1_555
C12_4 C11_4 1_555 1_555
H6_4 C12_4 1_555 1_555
C13_4 C12_4 1_555 1_555
C14_4 C13_4 1_555 1_555
H7_4 C14_4 1_555 1_555
C15_4 C10_4 1_555 1_555
H8_4 C15_4 1_555 1_555
N2_4 C16_4 1_555 1_555
Zr5_3 O6_4 1_555 1_555
Zr12_5 O7_4 1_555 1_555
C13_4 C16_4 1_555 1_555
C14_4 C15_4 1_555 1_555
O10_4 C25_4 1_555 1_555
O21_2 C25_4 1_555 1_555
C25_4 C26_4 1_555 1_555
C26_4 C27_4 1_555 1_555
C27_4 H13_4 1_555 1_555
C28_4 C27_4 1_555 1_555
H14_4 C28_4 1_555 1_555
C29_4 C28_4 1_555 1_555
C30_4 C29_4 1_555 1_555
H15_4 C30_4 1_555 1_555
C31_4 C26_4 1_555 1_555
H16_4 C31_4 1_555 1_555
C32_4 N1_5 1_555 1_555
Zr8 O10_4 1_555 1_555
O13_4 Zr8 1_555 1_555
O16_4 Zr8 1_555 1_555
Zr4 O22_3 1_555 1_555
O26_5 Zr8 1_555 1_555
C29_4 C32_4 1_555 1_555
C30_4 C31_4 1_555 1_555
Zr4 O26_5 1_555 1_555
O18_3 C17_4 1_555 1_555
O9_4 C17_4 1_555 1_555
C17_4 C18_4 1_555 1_555
C18_4 C19_4 1_555 1_555
C19_4 H9_4 1_555 1_555
C20_4 C19_4 1_555 1_555
H10_4 C20_4 1_555 1_555
C21_4 C20_4 1_555 1_555
C22_4 C21_4 1_555 1_555
H11_4 C22_4 1_555 1_555
C23_4 C18_4 1_555 1_555
H12_4 C23_4 1_555 1_555
C24_4 N2_5 1_555 1_555
Zr12_5 O9_4 1_555 1_555
C21_4 C24_4 1_555 1_555
C22_4 C23_4 1_555 1_555
Zr7_2 O3_6 1_555 1_555
O19_5 Zr12_3 1_555 1_555
O20_5 Zr12_3 1_555 1_555
Zr12_3 O3_6 1_555 1_555
Zr12_4 O26_3 1_555 1_555
O3_7 Zr5_2 1_555 1_555
O27_3 Zr5_2 1_555 1_555
O15_5 Zr5_2 1_555 1_555
O17_5 Zr5_2 1_555 1_555
Zr12_4 O3_7 1_555 1_555
O3_8 Zr5_3 1_555 1_555
O5_6 Zr5_3 1_555 1_555
O27_4 Zr5_3 1_555 1_555
O15_6 Zr5_3 1_555 1_555
Zr7_3 O3_8 1_555 1_555
O17_6 Zr5_3 1_555 1_555
O19_6 Zr12_5 1_555 1_555
O20_6 Zr12_5 1_555 1_555
Zr12_5 O3_8 1_555 1_555
Zr12_5 O26_4 1_555 1_555
O3_9 Zr4 1_555 1_555
O27_5 Zr4 1_555 1_555
O15_7 Zr4 1_555 1_555
Zr7_4 O3_9 1_555 1_555
O17_7 Zr4 1_555 1_555
O19_7 Zr11 1_555 1_555
O20_7 Zr11 1_555 1_555
Zr11 O3_9 1_555 1_555
Zr11 O26_5 1_555 1_555
Zr12 O26 1_555 1_555
O3_10 Zr5 1_555 1_555
O5_8 Zr5 1_555 1_555
O27 Zr5 1_555 1_555
O15_8 Zr5 1_555 1_555
Zr7 O3_10 1_555 1_555
O17_8 Zr5 1_555 1_555
O20_8 Zr12 1_555 1_555
Zr12 O3_10 1_555 1_555
Zr12_2 O26_2 1_555 1_555
O19_8 Zr12_2 1_555 1_555
O17_6 C1_5 1_555 1_555
O19_3 C1_5 1_555 1_555
C1_5 C2_5 1_555 1_555
C2_5 C3_5 1_555 1_555
C3_5 H1_5 1_555 1_555
C4_5 C3_5 1_555 1_555
H2_5 C4_5 1_555 1_555
C5_5 C4_5 1_555 1_555
C6_5 C5_5 1_555 1_555
H3_5 C6_5 1_555 1_555
C7_5 C2_5 1_555 1_555
H4_5 C7_5 1_555 1_555
C8_5 C5_5 1_555 1_555
N1_6 C8_5 1_555 1_555
O17_2 C9_5 1_555 1_555
O19_5 C9_5 1_555 1_555
C9_5 C10_5 1_555 1_555
C10_5 C11_5 1_555 1_555
C11_5 H5_5 1_555 1_555
C12_5 C11_5 1_555 1_555
H6_5 C12_5 1_555 1_555
C13_5 C12_5 1_555 1_555
C14_5 C13_5 1_555 1_555
H7_5 C14_5 1_555 1_555
C15_5 C10_5 1_555 1_555
H8_5 C15_5 1_555 1_555
C16_5 C8_5 1_555 1_555
N2_6 C16_5 1_555 1_555
H10_5 C20_5 1_555 1_555
C21_5 C20_5 1_555 1_555
C22_5 C21_5 1_555 1_555
H11_5 C22_5 1_555 1_555
H12_5 C23_5 1_555 1_555
C24_5 N2_6 1_555 1_555
H14_5 C28_5 1_555 1_555
C29_5 C28_5 1_555 1_555
C30_5 C29_5 1_555 1_555
H15_5 C30_5 1_555 1_555
H16_5 C31_5 1_555 1_555
C32_5 N1_6 1_555 1_555
C6_5 C7_5 1_555 1_555
C13_5 C16_5 1_555 1_555
C14_5 C15_5 1_555 1_555
C21_5 C24_5 1_555 1_555
C22_5 C23_5 1_555 1_555
C24_5 C32_5 1_555 1_555
C29_5 C32_5 1_555 1_555
C30_5 C31_5 1_555 1_555
O8_2 C17_5 1_555 1_555
O20_5 C17_5 1_555 1_555
C17_5 C18_5 1_555 1_555
C18_5 C19_5 1_555 1_555
C19_5 H9_5 1_555 1_555
O10_5 C25_5 1_555 1_555
O20_3 C25_5 1_555 1_555
C25_5 C26_5 1_555 1_555
C26_5 C27_5 1_555 1_555
C27_5 H13_5 1_555 1_555
Zr7_3 O10_5 1_555 1_555
O16_5 Zr7_3 1_555 1_555
Zr7_2 O8_2 1_555 1_555
O18_4 Zr7_3 1_555 1_555
O10_6 C25_6 1_555 1_555
O20_4 C25_6 1_555 1_555
C25_6 C26_6 1_555 1_555
C26_6 C27_6 1_555 1_555
C27_6 H13_6 1_555 1_555
C28_6 C27_6 1_555 1_555
H14_6 C28_6 1_555 1_555
C29_6 C28_6 1_555 1_555
C31_6 C26_6 1_555 1_555
C32_6 N1_7 1_555 1_555
Zr7_4 O10_6 1_555 1_555
O13_6 Zr7_4 1_555 1_555
O18_5 Zr7_4 1_555 1_555
C29_6 C32_6 1_555 1_555
H11_6 C22_6 1_555 1_555
H15_6 C30_6 1_555 1_555
O18_4 C17_6 1_555 1_555
O20_6 C17_6 1_555 1_555
C17_6 C18_6 1_555 1_555
C18_6 C19_6 1_555 1_555
C19_6 H9_6 1_555 1_555
C20_6 C19_6 1_555 1_555
H10_6 C20_6 1_555 1_555
C21_6 C20_6 1_555 1_555
C23_6 C18_6 1_555 1_555
C24_6 N2_7 1_555 1_555
C21_6 C24_6 1_555 1_555
O17_7 C1_6 1_555 1_555
O19_4 C1_6 1_555 1_555
C1_6 C2_6 1_555 1_555
C2_6 C3_6 1_555 1_555
C3_6 H1_6 1_555 1_555
C4_6 C3_6 1_555 1_555
H2_6 C4_6 1_555 1_555
C5_6 C4_6 1_555 1_555
C7_6 C2_6 1_555 1_555
C8_6 C5_6 1_555 1_555
N1_8 C8_6 1_555 1_555
H7_6 C14_6 1_555 1_555
H3_6 C6_6 1_555 1_555
O17_3 C9_6 1_555 1_555
O19_6 C9_6 1_555 1_555
C9_6 C10_6 1_555 1_555
C10_6 C11_6 1_555 1_555
C11_6 H5_6 1_555 1_555
C12_6 C11_6 1_555 1_555
H6_6 C12_6 1_555 1_555
C13_6 C12_6 1_555 1_555
C15_6 C10_6 1_555 1_555
N2_8 C16_6 1_555 1_555
C13_6 C16_6 1_555 1_555
O18_5 C17_7 1_555 1_555
O20_7 C17_7 1_555 1_555
C17_7 C18_7 1_555 1_555
C18_7 C19_7 1_555 1_555
C19_7 H9_7 1_555 1_555
O10_7 C25_7 1_555 1_555
O20 C25_7 1_555 1_555
C25_7 C26_7 1_555 1_555
C26_7 C27_7 1_555 1_555
C27_7 H13_7 1_555 1_555
Zr7 O10_7 1_555 1_555
O16_7 Zr7 1_555 1_555
O18_6 Zr7 1_555 1_555
O17_8 C1_7 1_555 1_555
O19 C1_7 1_555 1_555
C1_7 C2_7 1_555 1_555
C2_7 C3_7 1_555 1_555
C3_7 H1_7 1_555 1_555
C4_7 C3_7 1_555 1_555
H2_7 C4_7 1_555 1_555
C5_7 C4_7 1_555 1_555
C6_7 C5_7 1_555 1_555
H3_7 C6_7 1_555 1_555
C7_7 C2_7 1_555 1_555
H4_7 C7_7 1_555 1_555
C8_7 C5_7 1_555 1_555
N1_9 C8_7 1_555 1_555
O17_4 C9_7 1_555 1_555
O19_7 C9_7 1_555 1_555
C9_7 C10_7 1_555 1_555
C10_7 C11_7 1_555 1_555
C11_7 H5_7 1_555 1_555
C12_7 C11_7 1_555 1_555
H6_7 C12_7 1_555 1_555
C13_7 C12_7 1_555 1_555
C14_7 C13_7 1_555 1_555
H7_7 C14_7 1_555 1_555
C15_7 C10_7 1_555 1_555
H8_7 C15_7 1_555 1_555
C16_7 C8_7 1_555 1_555
N2_9 C16_7 1_555 1_555
H10_7 C20_7 1_555 1_555
C21_7 C20_7 1_555 1_555
C22_7 C21_7 1_555 1_555
H11_7 C22_7 1_555 1_555
H12_7 C23_7 1_555 1_555
C24_7 N2_9 1_555 1_555
H14_7 C28_7 1_555 1_555
C29_7 C28_7 1_555 1_555
C30_7 C29_7 1_555 1_555
H15_7 C30_7 1_555 1_555
H16_7 C31_7 1_555 1_555
C32_7 N1_9 1_555 1_555
C6_7 C7_7 1_555 1_555
C13_7 C16_7 1_555 1_555
C14_7 C15_7 1_555 1_555
C21_7 C24_7 1_555 1_555
C22_7 C23_7 1_555 1_555
C24_7 C32_7 1_555 1_555
C29_7 C32_7 1_555 1_555
C30_7 C31_7 1_555 1_555
H3_8 C6_8 1_555 1_555
O17 C9_8 1_555 1_555
O19_8 C9_8 1_555 1_555
C9_8 C10_8 1_555 1_555
C10_8 C11_8 1_555 1_555
C11_8 H5_8 1_555 1_555
C12_8 C11_8 1_555 1_555
H6_8 C12_8 1_555 1_555
C13_8 C12_8 1_555 1_555
C15_8 C10_8 1_555 1_555
N2_10 C16_8 1_555 1_555
O18_6 C17_8 1_555 1_555
O20_8 C17_8 1_555 1_555
C17_8 C18_8 1_555 1_555
C18_8 C19_8 1_555 1_555
C19_8 H9_8 1_555 1_555
C20_8 C19_8 1_555 1_555
H10_8 C20_8 1_555 1_555
C21_8 C20_8 1_555 1_555
C23_8 C18_8 1_555 1_555
C24_8 N2_10 1_555 1_555
H15_8 C30_8 1_555 1_555
C13_8 C16_8 1_555 1_555
C21_8 C24_8 1_555 1_555
O17_5 C1_8 1_555 1_555
O19_2 C1_8 1_555 1_555
C1_8 C2_8 1_555 1_555
C2_8 C3_8 1_555 1_555
C3_8 H1_8 1_555 1_555
C4_8 C3_8 1_555 1_555
H2_8 C4_8 1_555 1_555
C5_8 C4_8 1_555 1_555
C7_8 C2_8 1_555 1_555
C8_8 C5_8 1_555 1_555
N1_10 C8_8 1_555 1_555
H7_8 C14_8 1_555 1_555
H11_8 C22_8 1_555 1_555
O10_8 C25_8 1_555 1_555
O20_2 C25_8 1_555 1_555
C25_8 C26_8 1_555 1_555
C26_8 C27_8 1_555 1_555
C27_8 H13_8 1_555 1_555
C28_8 C27_8 1_555 1_555
H14_8 C28_8 1_555 1_555
C29_8 C28_8 1_555 1_555
C31_8 C26_8 1_555 1_555
C32_8 N1_10 1_555 1_555
Zr7_2 O10_8 1_555 1_555
O13_8 Zr7_2 1_555 1_555
C29_8 C32_8 1_555 1_555

#END
