
###############################################################################
#
# This file contains modified crystal structure data generated from the
# MOF subset of the Cambridge Structural Database (CSD) v543 
# hosted by the Cambridge Crystallographic Data Centre (CCDC).
#
# This work is licensed under the Creative Commons
# Attribution-NonCommercial-ShareAlike 4.0 International License.
# To view a copy of this license, visit
# http://creativecommons.org/licenses/by-nc-sa/4.0/
# or send a letter to
# Creative Commons, PO Box 1866, Mountain View, CA 94042, USA.
#
# CIF created using the CSD Python API on 29 September 2022
# The structure has been converted into the P1 space group
# The structure has a 3D framework
# The original CSD entry ZOYKAB is in the tetragonal crystal system
# The original CSD entry ZOYKAB is in a Sohncke space group
# The framework has been calculated to contain at least 10.0% void space
# The void calculation uses a probe of radius 1.32A, grid spacing 0.4
# H atom positions have been added when not included in the experimental data
#
###############################################################################

data_ZOYKAB
_chemical_formula_moiety         '(C64 H40 Mn8 O35)n'
_symmetry_cell_setting           triclinic
_symmetry_space_group_name_H-M   'P 1'
_symmetry_Int_Tables_number      1
_space_group_name_Hall           'P 1'
loop_
_symmetry_equiv_pos_site_id
_symmetry_equiv_pos_as_xyz
1 x,y,z
_cell_length_a                   13.0721(4)
_cell_length_b                   13.0721(4)
_cell_length_c                   11.1466(5)
_cell_angle_alpha                90
_cell_angle_beta                 90
_cell_angle_gamma                90
_cell_volume                     1904.73
loop_
_atom_site_label
_atom_site_type_symbol
_atom_site_fract_x
_atom_site_fract_y
_atom_site_fract_z
C12 C 0.0180(6) 0.3107(6) 0.0785(7)
C13 C 0.0864(6) 0.2621(6) 0.0028(7)
C14 C 0.1190(7) 0.1629(7) 0.0268(10)
C15 C 0.0833(8) 0.1155(9) 0.1286(11)
H7 H 0.1089 0.0514 0.1487
C16 C 0.0106(7) 0.1598(7) 0.2021(9)
O7 O 0.1685(6) 0.2553(5) 0.8157(7)
O8 O 0.1283(4) 0.4086(4) 0.8859(5)
C4 C 0.1317(6) 0.3134(7) 0.8925(7)
H6 H 0.1639 0.1295 0.9753
Mn4 Mn 0.24177(8) 0.51143(8) 0.81134(9)
Mn8 Mn 0.24817(9) 0.28036(9) 0.65987(11)
Mn1 Mn 0.75823(8) 0.48857(8) 0.31134(9)
Mn2 Mn 0.75183(9) 0.71964(9) 0.15987(11)
O1 O 0.6433(5) 0.5945(5) 0.3486(6)
O2 O 0.5910(4) 0.7298(4) 0.2403(5)
O3 O 0.3710(5) 0.3651(4) 0.5145(5)
O4 O 0.2561(5) 0.4449(4) 0.6262(5)
O5 O 0.8680(6) 0.2568(6) 0.3441(7)
O6 O 0.8773(5) 0.3986(5) 0.2359(6)
O9 O 0.8870(8) 0.7037(8) 0.0439(12)
C1 C 0.5752(5) 0.6606(5) 0.3186(7)
C2 C 0.3267(6) 0.4463(6) 0.5460(7)
C3 C 0.9026(6) 0.3091(7) 0.2599(7)
C5 C 0.3536(6) 0.5467(6) 0.4888(7)
C6 C 0.4456(6) 0.5568(6) 0.4304(6)
H1 H 0.4889 0.5007 0.4230
C7 C 0.4742(6) 0.6523(6) 0.3817(7)
C8 C 0.4106(6) 0.7350(6) 0.3942(8)
H2 H 0.4295 0.7980 0.3623
C9 C 0.3182(9) 0.7252(7) 0.4543(10)
H3 H 0.2759 0.7819 0.4631
C10 C 0.2880(7) 0.6315(7) 0.5015(8)
H4 H 0.2237 0.6246 0.5424
C11 C 0.9801(6) 0.2601(6) 0.1789(7)
H5 H 0.9973 0.3774 0.0622
H8 H 0.9826 0.1235 0.2659
Mn5 Mn 0.51143(8) 0.75823(8) 0.06134(9)
Mn6 Mn 0.48857(8) 0.24177(8) 0.56134(9)
Mn9 Mn 0.71964(9) 0.24817(9) 0.40987(11)
O10 O 0.7298(4) 0.4090(4) 0.4903(5)
O11 O 0.6349(4) 0.3710(5) 0.2645(5)
O12 O 0.7439(5) 0.5551(4) 0.1262(5)
O13 O 0.7432(6) 0.8680(6) 0.0941(7)
O14 O 0.8315(6) 0.7447(5) 0.3157(7)
O15 O 0.8717(4) 0.5914(4) 0.3859(5)
H10 H 0.949974 0.712015 0.0927567
O3_2 O 0.6290(5) 0.6349(4) 0.0145(5)
C2_2 C 0.6733(6) 0.5537(6) 0.0460(7)
C10_2 C 0.7120(7) 0.3685(7) 0.0015(8)
H4_2 H 0.7763 0.3754 0.0424
O1_2 O 0.3567(5) 0.4055(5) 0.8486(6)
O2_2 O 0.4090(4) 0.2702(4) 0.7403(5)
O5_2 O 0.1320(6) 0.7432(6) 0.8441(7)
O6_2 O 0.1227(5) 0.6014(5) 0.7359(6)
O9_2 O 0.1130(8) 0.2963(8) 0.5439(12)
C1_2 C 0.4248(5) 0.3394(5) 0.8186(7)
C3_2 C 0.0974(6) 0.6909(7) 0.7599(7)
C5_2 C 0.6464(6) 0.4533(6) 0.9888(7)
C6_2 C 0.5544(6) 0.4432(6) 0.9304(6)
H1_2 H 0.5111 0.4993 0.9230
C7_2 C 0.5258(6) 0.3477(6) 0.8817(7)
C8_2 C 0.5894(6) 0.2650(6) 0.8942(8)
H2_2 H 0.5705 0.2020 0.8623
C9_2 C 0.6818(9) 0.2748(7) 0.9543(10)
H3_2 H 0.7241 0.2181 0.9631
C11_2 C 0.0199(6) 0.7399(6) 0.6789(7)
H5_2 H 0.0027 0.6226 0.5622
H8_2 H 0.0174 0.8765 0.7659
Mn9_2 Mn 0.28036(9) 0.75183(9) 0.90987(11)
O10_2 O 0.2702(4) 0.5910(4) 0.9903(5)
O11_2 O 0.3651(4) 0.6290(5) 0.7645(5)
O13_2 O 0.2568(6) 0.1320(6) 0.5941(7)
H9 H 0.114785 0.243013 0.480445
H10_2 H 0.0500261 0.287985 0.592757
C4_2 C 0.8683(6) 0.6866(7) 0.3925(7)
C12_2 C 0.9820(6) 0.6893(6) 0.5785(7)
C13_2 C 0.9136(6) 0.7379(6) 0.5028(7)
C14_2 C 0.8810(7) 0.8371(7) 0.5268(10)
H6_2 H 0.8361 0.8705 0.4753
C15_2 C 0.9167(8) 0.8845(9) 0.6286(11)
H7_2 H 0.8911 0.9486 0.6487
C16_2 C 0.9894(7) 0.8402(7) 0.7021(9)
O7_2 O 0.7447(5) 0.1685(6) 0.5657(7)
O8_2 O 0.5914(4) 0.1283(4) 0.6359(5)
C4_3 C 0.6866(7) 0.1317(6) 0.6425(7)
C12_3 C 0.6893(6) 0.0180(6) 0.8285(7)
C13_3 C 0.7379(6) 0.0864(6) 0.7528(7)
C14_3 C 0.8371(7) 0.1190(7) 0.7768(10)
H6_3 H 0.8705 0.1639 0.7253
C15_3 C 0.8845(9) 0.0833(8) 0.8786(11)
H7_3 H 0.9486 0.1089 0.8987
C16_3 C 0.8402(7) 0.0106(7) 0.9521(9)
O1_3 O 0.4055(5) 0.6433(5) 0.0986(6)
O4_2 O 0.5551(4) 0.2561(5) 0.3762(5)
C1_3 C 0.3394(5) 0.5752(5) 0.0686(7)
C2_3 C 0.5537(6) 0.3267(6) 0.2960(7)
C3_3 C 0.6909(7) 0.9026(6) 0.0099(7)
C5_3 C 0.4533(6) 0.3536(6) 0.2388(7)
C6_3 C 0.4432(6) 0.4456(6) 0.1804(6)
H1_3 H 0.4993 0.4889 0.1730
C7_3 C 0.3477(6) 0.4742(6) 0.1317(7)
C8_3 C 0.2650(6) 0.4106(6) 0.1442(8)
H2_3 H 0.2020 0.4295 0.1123
C9_3 C 0.2748(7) 0.3182(9) 0.2043(10)
H3_3 H 0.2181 0.2759 0.2131
C10_3 C 0.3685(7) 0.2880(7) 0.2515(8)
H4_3 H 0.3754 0.2237 0.2924
H8_3 H 0.8765 0.9826 0.0159
O14_2 O 0.2553(5) 0.8315(6) 0.0657(7)
O15_2 O 0.4086(4) 0.8717(4) 0.1359(5)
O6_3 O 0.6014(5) 0.8773(5) 0.9859(6)
O9_3 O 0.2963(8) 0.8870(8) 0.7939(12)
C11_3 C 0.7399(6) 0.9801(6) 0.9289(7)
H5_3 H 0.6226 0.9973 0.8122
O12_2 O 0.4449(4) 0.7439(5) 0.8762(5)
H9_2 H 0.243013 0.885215 0.730445
H10_3 H 0.287985 0.949974 0.842757
O1_4 O 0.5945(5) 0.3567(5) 0.5986(6)
O6_4 O 0.3986(5) 0.1227(5) 0.4859(6)
O9_4 O 0.7037(8) 0.1130(8) 0.2939(12)
C1_4 C 0.6606(5) 0.4248(5) 0.5686(7)
C2_4 C 0.4463(6) 0.6733(6) 0.7960(7)
C3_4 C 0.3091(7) 0.0974(6) 0.5099(7)
C5_4 C 0.5467(6) 0.6464(6) 0.7388(7)
C6_4 C 0.5568(6) 0.5544(6) 0.6804(6)
H1_4 H 0.5007 0.5111 0.6730
C7_4 C 0.6523(6) 0.5258(6) 0.6317(7)
C8_4 C 0.7350(6) 0.5894(6) 0.6442(8)
H2_4 H 0.7980 0.5705 0.6123
C9_4 C 0.7252(7) 0.6818(9) 0.7043(10)
H3_4 H 0.7819 0.7241 0.7131
C10_4 C 0.6315(7) 0.7120(7) 0.7515(8)
H4_4 H 0.6246 0.7763 0.7924
C11_4 C 0.2601(6) 0.0199(6) 0.4289(7)
H5_4 H 0.3774 0.0027 0.3122
H8_4 H 0.1235 0.0174 0.5159
H9_3 H 0.756987 0.114785 0.230445
H10_4 H 0.712015 0.0500261 0.342757
C4_4 C 0.3134(7) 0.8683(6) 0.1425(7)
C12_4 C 0.3107(6) 0.9820(6) 0.3285(7)
C13_4 C 0.2621(6) 0.9136(6) 0.2528(7)
C14_4 C 0.1629(7) 0.8810(7) 0.2768(10)
H6_4 H 0.1295 0.8361 0.2253
C15_4 C 0.1155(9) 0.9167(8) 0.3786(11)
H7_4 H 0.0514 0.8911 0.3987
C16_4 C 0.1598(7) 0.9894(7) 0.4521(9)
H9_4 H 0.885215 0.756987 0.980445
loop_
_geom_bond_atom_site_label_1
_geom_bond_atom_site_label_2
_geom_bond_site_symmetry_1
_geom_bond_site_symmetry_2
C13 C12 1_555 1_555
C14 C13 1_555 1_555
C15 C14 1_555 1_555
H7 C15 1_555 1_555
C15 C16 1_555 1_555
O7 C4 1_555 1_555
O8 C4 1_555 1_555
Mn4 O8 1_555 1_555
Mn8 O7 1_555 1_555
Mn1 O1 1_555 1_555
Mn2 O2 1_555 1_555
O1 C1 1_555 1_555
O2 C1 1_555 1_555
O3 C2 1_555 1_555
O4 C2 1_555 1_555
O5 C3 1_555 1_555
O6 Mn1 1_555 1_555
O9 Mn2 1_555 1_555
C1 C7 1_555 1_555
C2 C5 1_555 1_555
C3 O6 1_555 1_555
C5 C6 1_555 1_555
C6 H1 1_555 1_555
C7 C6 1_555 1_555
C8 C7 1_555 1_555
H2 C8 1_555 1_555
C9 C8 1_555 1_555
H3 C9 1_555 1_555
C10 C5 1_555 1_555
H4 C10 1_555 1_555
C11 C3 1_555 1_555
Mn4 O4 1_555 1_555
Mn5 O2 1_555 1_555
Mn6 O3 1_555 1_555
Mn8 O4 1_555 1_555
Mn9 O5 1_555 1_555
O10 Mn1 1_555 1_555
O11 Mn1 1_555 1_555
O12 Mn1 1_555 1_555
O13 Mn2 1_555 1_555
O14 Mn2 1_555 1_555
O15 Mn1 1_555 1_555
Mn2 O12 1_555 1_555
C9 C10 1_555 1_555
Mn9 O10 1_555 1_555
O9 H10 1_555 1_555
O3_2 C2_2 1_555 1_555
O12 C2_2 1_555 1_555
H4_2 C10_2 1_555 1_555
Mn5 O3_2 1_555 1_555
Mn4 O1_2 1_555 1_555
Mn8 O2_2 1_555 1_555
O1_2 C1_2 1_555 1_555
O2_2 C1_2 1_555 1_555
O5_2 C3_2 1_555 1_555
O6_2 Mn4 1_555 1_555
O9_2 Mn8 1_555 1_555
C1_2 C7_2 1_555 1_555
C3_2 O6_2 1_555 1_555
C5_2 C6_2 1_555 1_555
C6_2 H1_2 1_555 1_555
C7_2 C6_2 1_555 1_555
C8_2 C7_2 1_555 1_555
H2_2 C8_2 1_555 1_555
C9_2 C8_2 1_555 1_555
H3_2 C9_2 1_555 1_555
C11_2 C3_2 1_555 1_555
Mn6 O2_2 1_555 1_555
Mn9_2 O5_2 1_555 1_555
O10_2 Mn4 1_555 1_555
O11_2 Mn4 1_555 1_555
O13_2 Mn8 1_555 1_555
Mn9_2 O10_2 1_555 1_555
O9_2 H9 1_555 1_555
O9_2 H10_2 1_555 1_555
O14 C4_2 1_555 1_555
O15 C4_2 1_555 1_555
C4_2 C13_2 1_555 1_555
C13_2 C12_2 1_555 1_555
C14_2 C13_2 1_555 1_555
H6_2 C14_2 1_555 1_555
C15_2 C14_2 1_555 1_555
H7_2 C15_2 1_555 1_555
C15_2 C16_2 1_555 1_555
O7_2 C4_3 1_555 1_555
O8_2 C4_3 1_555 1_555
C4_3 C13_3 1_555 1_555
C13_3 C12_3 1_555 1_555
C14_3 C13_3 1_555 1_555
H6_3 C14_3 1_555 1_555
C15_3 C14_3 1_555 1_555
H7_3 C15_3 1_555 1_555
Mn6 O8_2 1_555 1_555
Mn9 O7_2 1_555 1_555
C15_3 C16_3 1_555 1_555
Mn5 O1_3 1_555 1_555
O1_3 C1_3 1_555 1_555
O11 C2_3 1_555 1_555
O4_2 C2_3 1_555 1_555
O13 C3_3 1_555 1_555
C1_3 C7_3 1_555 1_555
C2_3 C5_3 1_555 1_555
C5_3 C6_3 1_555 1_555
C6_3 H1_3 1_555 1_555
C7_3 C6_3 1_555 1_555
C8_3 C7_3 1_555 1_555
H2_3 C8_3 1_555 1_555
C9_3 C8_3 1_555 1_555
H3_3 C9_3 1_555 1_555
C10_3 C5_3 1_555 1_555
H4_3 C10_3 1_555 1_555
Mn6 O4_2 1_555 1_555
Mn9 O4_2 1_555 1_555
O15_2 Mn5 1_555 1_555
C9_3 C10_3 1_555 1_555
O9_3 Mn9_2 1_555 1_555
Mn9_2 O12_2 1_555 1_555
O9_3 H9_2 1_555 1_555
O9_3 H10_3 1_555 1_555
Mn6 O1_4 1_555 1_555
O1_4 C1_4 1_555 1_555
O10 C1_4 1_555 1_555
O11_2 C2_4 1_555 1_555
O12_2 C2_4 1_555 1_555
O13_2 C3_4 1_555 1_555
O6_4 Mn6 1_555 1_555
O9_4 Mn9 1_555 1_555
C1_4 C7_4 1_555 1_555
C2_4 C5_4 1_555 1_555
C3_4 O6_4 1_555 1_555
C5_4 C6_4 1_555 1_555
C6_4 H1_4 1_555 1_555
C7_4 C6_4 1_555 1_555
C8_4 C7_4 1_555 1_555
H2_4 C8_4 1_555 1_555
C9_4 C8_4 1_555 1_555
H3_4 C9_4 1_555 1_555
C10_4 C5_4 1_555 1_555
H4_4 C10_4 1_555 1_555
C11_4 C3_4 1_555 1_555
C9_4 C10_4 1_555 1_555
O9_4 H9_3 1_555 1_555
O9_4 H10_4 1_555 1_555
O14_2 C4_4 1_555 1_555
O15_2 C4_4 1_555 1_555
C4_4 C13_4 1_555 1_555
C13_4 C12_4 1_555 1_555
C14_4 C13_4 1_555 1_555
H6_4 C14_4 1_555 1_555
C15_4 C14_4 1_555 1_555
H7_4 C15_4 1_555 1_555
C15_4 C16_4 1_555 1_555

#END
