
###############################################################################
#
# This file contains modified crystal structure data generated from the
# MOF subset of the Cambridge Structural Database (CSD) v543 
# hosted by the Cambridge Crystallographic Data Centre (CCDC).
#
# This work is licensed under the Creative Commons
# Attribution-NonCommercial-ShareAlike 4.0 International License.
# To view a copy of this license, visit
# http://creativecommons.org/licenses/by-nc-sa/4.0/
# or send a letter to
# Creative Commons, PO Box 1866, Mountain View, CA 94042, USA.
#
# CIF created using the CSD Python API on 29 September 2022
# The structure has been converted into the P1 space group
# The structure has a 3D framework
# The original CSD entry ZOYZAQ is in the monoclinic crystal system
# The framework has been calculated to contain at least 10.0% void space
# The void calculation uses a probe of radius 1.32A, grid spacing 0.4
#
###############################################################################

data_ZOYZAQ
_chemical_formula_moiety         '(C120 H200 Ag16 N56)n'
_symmetry_cell_setting           triclinic
_symmetry_space_group_name_H-M   'P 1'
_symmetry_Int_Tables_number      1
_space_group_name_Hall           'P 1'
loop_
_symmetry_equiv_pos_site_id
_symmetry_equiv_pos_as_xyz
1 x,y,z
_cell_length_a                   11.243(2)
_cell_length_b                   18.664(4)
_cell_length_c                   21.085(4)
_cell_angle_alpha                90
_cell_angle_beta                 97.99(3)
_cell_angle_gamma                90
_cell_volume                     4381.51
loop_
_atom_site_label
_atom_site_type_symbol
_atom_site_fract_x
_atom_site_fract_y
_atom_site_fract_z
Ag9 Ag 0.119164(18) 0.231217(11) 0.432639(10)
Ag1 Ag 0.443140(18) 0.115758(11) 0.171472(10)
Ag2 Ag 0.504758(18) 0.278728(11) 0.238909(10)
Ag3 Ag 0.596717(18) 0.123232(11) 0.316633(10)
N1 N 0.6319(2) 0.16900(12) 0.16206(11)
N2 N 0.6300(2) 0.24146(12) 0.17710(11)
N3 N 0.7769(2) 0.22436(12) 0.11882(11)
N4 N 0.5185(2) 0.51304(12) 0.27928(11)
N5 N 0.4513(2) 0.51632(12) 0.21946(11)
N6 N 0.4959(2) 0.40263(13) 0.24062(11)
N7 N 0.8483(2) 0.23421(12) 0.45409(11)
N8 N 0.9215(2) 0.22582(12) 0.40695(11)
N9 N 0.7387(2) 0.18773(12) 0.36756(11)
N10 N 0.3889(2) 0.23650(12) 0.30404(11)
N11 N 0.3959(2) 0.16345(13) 0.31681(12)
N12 N 0.2495(2) 0.20958(13) 0.36484(11)
N13 N 0.1887(2) 0.27200(12) 0.53083(11)
N14 N 0.1138(2) 0.28535(12) 0.57654(11)
N15 N 0.2959(2) 0.32589(12) 0.61457(11)
C1 C 0.7210(2) 0.16156(15) 0.12739(13)
C2 C 0.7586(3) 0.09328(16) 0.09913(15)
H1 H 0.8471 0.0896 0.1083
H2 H 0.7369 0.0959 0.0520
C3 C 0.7048(3) 0.02559(16) 0.12255(17)
H4 H 0.6174 0.0263 0.1103
H5 H 0.7235 0.0228 0.1693
C4 C 0.7172(2) 0.27229(15) 0.15023(13)
C5 C 0.7466(3) 0.35036(15) 0.15584(14)
H6 H 0.6897 0.3740 0.1810
H7 H 0.7355 0.3719 0.1125
C6 C 0.8744(3) 0.36499(18) 0.18768(17)
H8 H 0.8895 0.4167 0.1883
H9 H 0.9314 0.3409 0.1636
H10 H 0.8845 0.3467 0.2317
C7 C 0.5429(2) 0.44455(14) 0.29039(13)
C8 C 0.6119(3) 0.41587(16) 0.35064(14)
H11 H 0.5605 0.3817 0.3704
H12 H 0.6317 0.4559 0.3811
C9 C 0.7278(3) 0.37807(17) 0.34005(16)
H13 H 0.7665 0.3579 0.3807
H14 H 0.7821 0.4126 0.3239
H15 H 0.7094 0.3394 0.3087
C10 C 0.4404(2) 0.44982(15) 0.19779(13)
C11 C 0.3745(3) 0.42969(18) 0.13353(15)
H16 H 0.4332 0.4129 0.1059
H17 H 0.3343 0.4728 0.1133
C12 C 0.2808(4) 0.37131(19) 0.1371(2)
H18 H 0.2379 0.3621 0.0942
H19 H 0.2235 0.3870 0.1653
H20 H 0.3206 0.3273 0.1542
C13 C 0.7401(2) 0.21095(15) 0.42861(13)
C14 C 0.6348(3) 0.20828(18) 0.46336(15)
H21 H 0.5648 0.2296 0.4362
H22 H 0.6514 0.2375 0.5028
C15 C 0.6039(3) 0.1322(2) 0.48136(16)
H23 H 0.5400 0.1335 0.5086
H24 H 0.6753 0.1092 0.5047
H25 H 0.5764 0.1048 0.4424
C16 C 0.8527(2) 0.19797(14) 0.35662(13)
C17 C 0.8959(3) 0.17860(17) 0.29507(13)
H26 H 0.9786 0.1970 0.2955
H27 H 0.8440 0.2022 0.2593
C18 C 0.8954(3) 0.09818(19) 0.28334(16)
H28 H 0.9160 0.0886 0.2405
H29 H 0.8153 0.0789 0.2865
H30 H 0.9545 0.0752 0.3155
C19 C 0.3010(2) 0.26166(15) 0.33359(13)
C20 C 0.2639(3) 0.33854(15) 0.33209(15)
H31 H 0.3195 0.3667 0.3093
H32 H 0.2706 0.3568 0.3765
C21 C 0.1355(3) 0.34994(18) 0.29912(19)
H33 H 0.1169 0.4013 0.2978
H34 H 0.0795 0.3247 0.3230
H35 H 0.1278 0.3311 0.2553
C22 C 0.3114(2) 0.14984(16) 0.35274(14)
C23 C 0.2852(3) 0.07590(17) 0.37448(17)
H36 H 0.3503 0.0435 0.3651
H37 H 0.2095 0.0591 0.3492
C24 C 0.2734(4) 0.0699(2) 0.44518(19)
H38 H 0.2558 0.0201 0.4554
H39 H 0.2080 0.1009 0.4550
H40 H 0.3488 0.0848 0.4708
C25 C 0.2958(2) 0.29685(15) 0.55579(13)
C26 C 0.4041(3) 0.29304(17) 0.52272(14)
H41 H 0.3854 0.2638 0.4834
H42 H 0.4695 0.2688 0.5510
C27 C 0.4474(3) 0.36676(19) 0.50475(15)
H43 H 0.5212 0.3616 0.4853
H44 H 0.4634 0.3965 0.5433
H45 H 0.3853 0.3895 0.4741
C28 C 0.1812(2) 0.31762(15) 0.62513(13)
C29 C 0.1353(2) 0.34322(16) 0.68411(13)
H46 H 0.1838 0.3215 0.7220
H47 H 0.0512 0.3271 0.6833
C30 C 0.1402(3) 0.42486(17) 0.69054(16)
H48 H 0.1120 0.4390 0.7306
H49 H 0.0887 0.4466 0.6543
H50 H 0.2231 0.4412 0.6908
Ag6 Ag 0.556860(18) 0.615758(11) 0.328528(10)
Ag7 Ag 0.443140(18) 0.384242(11) 0.671472(10)
Ag8 Ag 0.403283(18) 0.623232(11) 0.183367(10)
Ag10 Ag 0.919732(18) 0.265653(11) 0.556946(10)
Ag11 Ag 0.919732(18) 0.234347(11) 0.056946(10)
N17 N 0.4815(2) 0.01304(12) 0.22072(11)
N18 N 0.5487(2) 0.01632(12) 0.28054(11)
N21 N 0.2959(2) 0.17411(12) 0.11457(11)
N16 N 0.7769(2) 0.27564(12) 0.61882(11)
N19 N 0.1517(2) 0.73421(12) 0.04591(11)
N20 N 0.0785(2) 0.72582(12) 0.09305(11)
Ag5 Ag 0.080268(18) 0.765653(11) 0.943054(10)
N16_2 N 0.2231(2) 0.77564(12) 0.88118(11)
Ag2_2 Ag 0.495242(18) 0.778728(11) 0.261091(10)
Ag4 Ag 0.880836(18) 0.731217(11) 0.067361(10)
N1_2 N 0.3681(2) 0.66900(12) 0.33794(11)
N2_2 N 0.3700(2) 0.74146(12) 0.32290(11)
N3_2 N 0.2231(2) 0.72436(12) 0.38118(11)
N6_2 N 0.5041(2) 0.90263(13) 0.25938(11)
N9_2 N 0.2613(2) 0.68773(12) 0.13244(11)
N10_2 N 0.6111(2) 0.73650(12) 0.19596(11)
N11_2 N 0.6041(2) 0.66345(13) 0.18319(12)
N12_2 N 0.7505(2) 0.70958(13) 0.13516(11)
C1_2 C 0.2790(2) 0.66156(15) 0.37261(13)
C2_2 C 0.2414(3) 0.59328(16) 0.40087(15)
H1_2 H 0.1529 0.5896 0.3917
H2_2 H 0.2631 0.5959 0.4480
C3_2 C 0.2952(3) 0.52559(16) 0.37745(17)
H3 H 0.2615 0.4838 0.3968
H4_2 H 0.3826 0.5263 0.3897
H5_2 H 0.2765 0.5228 0.3307
C4_2 C 0.2828(2) 0.77229(15) 0.34977(13)
C5_2 C 0.2534(3) 0.85036(15) 0.34416(14)
H6_2 H 0.3103 0.8740 0.3190
H7_2 H 0.2645 0.8719 0.3875
C6_2 C 0.1256(3) 0.86499(18) 0.31232(17)
H8_2 H 0.1105 0.9167 0.3117
H9_2 H 0.0686 0.8409 0.3364
H10_2 H 0.1155 0.8467 0.2683
C7_2 C 0.4571(2) 0.94455(14) 0.20961(13)
C8_2 C 0.3881(3) 0.91587(16) 0.14936(14)
H11_2 H 0.4395 0.8817 0.1296
H12_2 H 0.3683 0.9559 0.1189
C9_2 C 0.2722(3) 0.87807(17) 0.15995(16)
H13_2 H 0.2335 0.8579 0.1193
H14_2 H 0.2179 0.9126 0.1761
H15_2 H 0.2906 0.8394 0.1913
C10_2 C 0.5596(2) 0.94982(15) 0.30221(13)
C11_2 C 0.6255(3) 0.92969(18) 0.36647(15)
H16_2 H 0.5668 0.9129 0.3941
H17_2 H 0.6657 0.9728 0.3867
C12_2 C 0.7192(4) 0.87131(19) 0.3629(2)
H18_2 H 0.7621 0.8621 0.4058
H19_2 H 0.7765 0.8870 0.3347
H20_2 H 0.6794 0.8273 0.3458
C13_2 C 0.2599(2) 0.71095(15) 0.07139(13)
C14_2 C 0.3652(3) 0.70828(18) 0.03664(15)
H21_2 H 0.4352 0.7296 0.0638
C15_2 C 0.3961(3) 0.6322(2) 0.01864(16)
H25_2 H 0.4236 0.6048 0.0576
C16_2 C 0.1473(2) 0.69797(14) 0.14338(13)
C17_2 C 0.1041(3) 0.67860(17) 0.20493(13)
H26_2 H 0.0214 0.6970 0.2045
H27_2 H 0.1560 0.7022 0.2407
C18_2 C 0.1046(3) 0.59818(19) 0.21666(16)
H28_2 H 0.0840 0.5886 0.2595
H29_2 H 0.1847 0.5789 0.2135
H30_2 H 0.0455 0.5752 0.1845
C19_2 C 0.6990(2) 0.76166(15) 0.16641(13)
C20_2 C 0.7361(3) 0.83854(15) 0.16791(15)
H31_2 H 0.6805 0.8667 0.1907
H32_2 H 0.7294 0.8568 0.1235
C21_2 C 0.8645(3) 0.84994(18) 0.20088(19)
H33_2 H 0.8831 0.9013 0.2022
H34_2 H 0.9205 0.8247 0.1770
H35_2 H 0.8722 0.8311 0.2447
C22_2 C 0.6886(2) 0.64984(16) 0.14726(14)
C23_2 C 0.7148(3) 0.57590(17) 0.12552(17)
H36_2 H 0.6497 0.5435 0.1349
H37_2 H 0.7905 0.5591 0.1508
C24_2 C 0.7266(4) 0.5699(2) 0.05482(19)
H38_2 H 0.7442 0.5201 0.0446
H39_2 H 0.7920 0.6009 0.0450
H40_2 H 0.6512 0.5848 0.0292
H41_2 H 0.6146 0.7638 0.0166
H43_2 H 0.4788 0.8616 0.0147
H45_2 H 0.6147 0.8895 0.0259
Ag11_2 Ag 0.080268(18) 0.734347(11) 0.443054(10)
N21_2 N 0.7041(2) 0.67411(12) 0.38543(11)
N13_2 N 0.8113(2) 0.77200(12) 0.96917(11)
N14_2 N 0.8862(2) 0.78535(12) 0.92346(11)
N15_2 N 0.7041(2) 0.82589(12) 0.88543(11)
H22_2 H 0.3486 0.7375 0.9972
H23_2 H 0.4600 0.6335 0.9914
H24_2 H 0.3247 0.6092 0.9953
C25_2 C 0.7042(2) 0.79685(15) 0.94421(13)
C26_2 C 0.5959(3) 0.79304(17) 0.97728(14)
H42_2 H 0.5305 0.7688 0.9490
C27_2 C 0.5526(3) 0.86676(19) 0.99525(15)
H44_2 H 0.5366 0.8965 0.9567
C28_2 C 0.8188(2) 0.81762(15) 0.87487(13)
C29_2 C 0.8647(2) 0.84322(16) 0.81589(13)
H46_2 H 0.8162 0.8215 0.7780
H47_2 H 0.9488 0.8271 0.8167
C30_2 C 0.8598(3) 0.92486(17) 0.80946(16)
H48_2 H 0.8880 0.9390 0.7694
H49_2 H 0.9113 0.9466 0.8457
H50_2 H 0.7769 0.9412 0.8092
Ag7_2 Ag 0.556860(18) 0.884242(11) 0.828528(10)
N19_2 N 0.1517(2) 0.76579(12) 0.54591(11)
N20_2 N 0.0785(2) 0.77418(12) 0.59305(11)
Ag2_3 Ag 0.495242(18) 0.721272(11) 0.761091(10)
Ag3_2 Ag 0.403283(18) 0.876768(11) 0.683367(10)
Ag4_2 Ag 0.880836(18) 0.768783(11) 0.567361(10)
N1_3 N 0.3681(2) 0.83100(12) 0.83794(11)
N2_3 N 0.3700(2) 0.75854(12) 0.82290(11)
N4_2 N 0.4815(2) 0.48696(12) 0.72072(11)
N5_2 N 0.5487(2) 0.48368(12) 0.78054(11)
N6_3 N 0.5041(2) 0.59737(13) 0.75938(11)
N9_3 N 0.2613(2) 0.81227(12) 0.63244(11)
N10_3 N 0.6111(2) 0.76350(12) 0.69596(11)
N11_3 N 0.6041(2) 0.83655(13) 0.68319(12)
N12_3 N 0.7505(2) 0.79042(13) 0.63516(11)
N13_3 N 0.8113(2) 0.72800(12) 0.46917(11)
N14_3 N 0.8862(2) 0.71465(12) 0.42346(11)
C1_3 C 0.2790(2) 0.83844(15) 0.87261(13)
C2_3 C 0.2414(3) 0.90672(16) 0.90087(15)
H1_3 H 0.1529 0.9104 0.8917
H2_3 H 0.2631 0.9041 0.9480
C3_3 C 0.2952(3) 0.97441(16) 0.87745(17)
H4_3 H 0.3826 0.9737 0.8897
H5_3 H 0.2765 0.9772 0.8307
C4_3 C 0.2828(2) 0.72771(15) 0.84977(13)
C5_3 C 0.2534(3) 0.64964(15) 0.84416(14)
H6_3 H 0.3103 0.6260 0.8190
H7_3 H 0.2645 0.6281 0.8875
C6_3 C 0.1256(3) 0.63501(18) 0.81232(17)
H8_3 H 0.1105 0.5833 0.8117
H9_3 H 0.0686 0.6591 0.8364
H10_3 H 0.1155 0.6533 0.7683
C7_3 C 0.4571(2) 0.55545(14) 0.70961(13)
C8_3 C 0.3881(3) 0.58413(16) 0.64936(14)
H11_3 H 0.4395 0.6183 0.6296
H12_3 H 0.3683 0.5441 0.6189
C9_3 C 0.2722(3) 0.62193(17) 0.65995(16)
H13_3 H 0.2335 0.6421 0.6193
H14_3 H 0.2179 0.5874 0.6761
H15_3 H 0.2906 0.6606 0.6913
C10_3 C 0.5596(2) 0.55018(15) 0.80221(13)
C11_3 C 0.6255(3) 0.57031(18) 0.86647(15)
H16_3 H 0.5668 0.5871 0.8941
H17_3 H 0.6657 0.5272 0.8867
C12_3 C 0.7192(4) 0.62869(19) 0.8629(2)
H18_3 H 0.7621 0.6379 0.9058
H19_3 H 0.7765 0.6130 0.8347
H20_3 H 0.6794 0.6727 0.8458
C13_3 C 0.2599(2) 0.78905(15) 0.57139(13)
C14_3 C 0.3652(3) 0.79172(18) 0.53664(15)
H21_3 H 0.4352 0.7704 0.5638
H22_3 H 0.3486 0.7625 0.4972
C15_3 C 0.3961(3) 0.8678(2) 0.51864(16)
H23_3 H 0.4600 0.8665 0.4914
H24_3 H 0.3247 0.8908 0.4953
H25_3 H 0.4236 0.8952 0.5576
C16_3 C 0.1473(2) 0.80203(14) 0.64338(13)
C17_3 C 0.1041(3) 0.82140(17) 0.70493(13)
H26_3 H 0.0214 0.8030 0.7045
H27_3 H 0.1560 0.7978 0.7407
C18_3 C 0.1046(3) 0.90182(19) 0.71666(16)
H28_3 H 0.0840 0.9114 0.7595
H29_3 H 0.1847 0.9211 0.7135
H30_3 H 0.0455 0.9248 0.6845
C19_3 C 0.6990(2) 0.73834(15) 0.66641(13)
C20_3 C 0.7361(3) 0.66146(15) 0.66791(15)
H31_3 H 0.6805 0.6333 0.6907
H32_3 H 0.7294 0.6432 0.6235
C21_3 C 0.8645(3) 0.65006(18) 0.70088(19)
H33_3 H 0.8831 0.5987 0.7022
H34_3 H 0.9205 0.6753 0.6770
H35_3 H 0.8722 0.6689 0.7447
C22_3 C 0.6886(2) 0.85016(16) 0.64726(14)
C23_3 C 0.7148(3) 0.92410(17) 0.62552(17)
H36_3 H 0.6497 0.9565 0.6349
H37_3 H 0.7905 0.9409 0.6508
C24_3 C 0.7266(4) 0.9301(2) 0.55482(19)
H38_3 H 0.7442 0.9799 0.5446
H39_3 H 0.7920 0.8991 0.5450
H40_3 H 0.6512 0.9152 0.5292
C25_3 C 0.7042(2) 0.70315(15) 0.44421(13)
C26_3 C 0.5959(3) 0.70696(17) 0.47728(14)
H41_3 H 0.6146 0.7362 0.5166
H42_3 H 0.5305 0.7312 0.4490
C27_3 C 0.5526(3) 0.63324(19) 0.49525(15)
H43_3 H 0.4788 0.6384 0.5147
H44_3 H 0.5366 0.6035 0.4567
H45_3 H 0.6147 0.6105 0.5259
C28_3 C 0.8188(2) 0.68238(15) 0.37487(13)
C29_3 C 0.8647(2) 0.65678(16) 0.31589(13)
H46_3 H 0.8162 0.6785 0.2780
H47_3 H 0.9488 0.6729 0.3167
C30_3 C 0.8598(3) 0.57514(17) 0.30946(16)
H48_3 H 0.8880 0.5610 0.2694
H49_3 H 0.9113 0.5534 0.3457
H50_3 H 0.7769 0.5588 0.3092
Ag8_2 Ag 0.596717(18) 0.376768(11) 0.816633(10)
N17_2 N 0.5185(2) 0.98696(12) 0.77928(11)
N18_2 N 0.4513(2) 0.98368(12) 0.71946(11)
Ag9_2 Ag 0.119164(18) 0.268783(11) 0.932639(10)
N13_4 N 0.1887(2) 0.22800(12) 0.03083(11)
N14_4 N 0.1138(2) 0.21465(12) 0.07654(11)
H22_4 H 0.6514 0.2625 0.0028
H23_4 H 0.5400 0.3665 0.0086
H24_4 H 0.6753 0.3908 0.0047
C25_4 C 0.2958(2) 0.20315(15) 0.05579(13)
C26_4 C 0.4041(3) 0.20696(17) 0.02272(14)
H42_4 H 0.4695 0.2312 0.0510
C27_4 C 0.4474(3) 0.13324(19) 0.00475(15)
H44_4 H 0.4634 0.1035 0.0433
C28_4 C 0.1812(2) 0.18238(15) 0.12513(13)
C29_4 C 0.1353(2) 0.15678(16) 0.18411(13)
H46_4 H 0.1838 0.1785 0.2220
H47_4 H 0.0512 0.1729 0.1833
C30_4 C 0.1402(3) 0.07514(17) 0.19054(16)
H48_4 H 0.1120 0.0610 0.2306
H49_4 H 0.0887 0.0534 0.1543
H50_4 H 0.2231 0.0588 0.1908
Ag2_4 Ag 0.504758(18) 0.221272(11) 0.738909(10)
N1_4 N 0.6319(2) 0.33100(12) 0.66206(11)
N2_4 N 0.6300(2) 0.25854(12) 0.67710(11)
N6_4 N 0.4959(2) 0.09737(13) 0.74062(11)
N7_2 N 0.8483(2) 0.26579(12) 0.95409(11)
N8_2 N 0.9215(2) 0.27418(12) 0.90695(11)
N9_4 N 0.7387(2) 0.31227(12) 0.86756(11)
N10_4 N 0.3889(2) 0.26350(12) 0.80404(11)
N11_4 N 0.3959(2) 0.33655(13) 0.81681(12)
N12_4 N 0.2495(2) 0.29042(13) 0.86484(11)
C1_4 C 0.7210(2) 0.33844(15) 0.62739(13)
C2_4 C 0.7586(3) 0.40672(16) 0.59913(15)
H1_4 H 0.8471 0.4104 0.6083
H2_4 H 0.7369 0.4041 0.5520
C3_4 C 0.7048(3) 0.47441(16) 0.62255(17)
H3_2 H 0.7385 0.5162 0.6032
H4_4 H 0.6174 0.4737 0.6103
H5_4 H 0.7235 0.4772 0.6693
C4_4 C 0.7172(2) 0.22771(15) 0.65023(13)
C5_4 C 0.7466(3) 0.14964(15) 0.65584(14)
H6_4 H 0.6897 0.1260 0.6810
H7_4 H 0.7355 0.1281 0.6125
C6_4 C 0.8744(3) 0.13501(18) 0.68768(17)
H8_4 H 0.8895 0.0833 0.6883
H9_4 H 0.9314 0.1591 0.6636
H10_4 H 0.8845 0.1533 0.7317
C7_4 C 0.5429(2) 0.05545(14) 0.79039(13)
C8_4 C 0.6119(3) 0.08413(16) 0.85064(14)
H11_4 H 0.5605 0.1183 0.8704
H12_4 H 0.6317 0.0441 0.8811
C9_4 C 0.7278(3) 0.12193(17) 0.84005(16)
H13_4 H 0.7665 0.1421 0.8807
H14_4 H 0.7821 0.0874 0.8239
H15_4 H 0.7094 0.1606 0.8087
C10_4 C 0.4404(2) 0.05018(15) 0.69779(13)
C11_4 C 0.3745(3) 0.07031(18) 0.63353(15)
H16_4 H 0.4332 0.0871 0.6059
H17_4 H 0.3343 0.0272 0.6133
C12_4 C 0.2808(4) 0.12869(19) 0.6371(2)
H18_4 H 0.2379 0.1379 0.5942
H19_4 H 0.2235 0.1130 0.6653
H20_4 H 0.3206 0.1727 0.6542
C13_4 C 0.7401(2) 0.28905(15) 0.92861(13)
C14_4 C 0.6348(3) 0.29172(18) 0.96336(15)
H21_4 H 0.5648 0.2704 0.9362
C15_4 C 0.6039(3) 0.3678(2) 0.98136(16)
H25_4 H 0.5764 0.3952 0.9424
C16_4 C 0.8527(2) 0.30203(14) 0.85662(13)
C17_4 C 0.8959(3) 0.32140(17) 0.79507(13)
H26_4 H 0.9786 0.3030 0.7955
H27_4 H 0.8440 0.2978 0.7593
C18_4 C 0.8954(3) 0.40182(19) 0.78334(16)
H28_4 H 0.9160 0.4114 0.7405
H29_4 H 0.8153 0.4211 0.7865
H30_4 H 0.9545 0.4248 0.8155
C19_4 C 0.3010(2) 0.23834(15) 0.83359(13)
C20_4 C 0.2639(3) 0.16146(15) 0.83209(15)
H31_4 H 0.3195 0.1333 0.8093
H32_4 H 0.2706 0.1432 0.8765
C21_4 C 0.1355(3) 0.15006(18) 0.79912(19)
H33_4 H 0.1169 0.0987 0.7978
H34_4 H 0.0795 0.1753 0.8230
H35_4 H 0.1278 0.1689 0.7553
C22_4 C 0.3114(2) 0.35016(16) 0.85274(14)
C23_4 C 0.2852(3) 0.42410(17) 0.87448(17)
H36_4 H 0.3503 0.4565 0.8651
H37_4 H 0.2095 0.4409 0.8492
C24_4 C 0.2734(4) 0.4301(2) 0.94518(19)
H38_4 H 0.2558 0.4799 0.9554
H39_4 H 0.2080 0.3991 0.9550
H40_4 H 0.3488 0.4152 0.9708
H41_4 H 0.3854 0.2362 0.9834
H43_4 H 0.5212 0.1384 0.9853
H45_4 H 0.3853 0.1105 0.9741
H3_3 H 0.7385 0.9838 0.1032
H3_4 H 0.2615 0.0162 0.8968
loop_
_geom_bond_atom_site_label_1
_geom_bond_atom_site_label_2
_geom_bond_site_symmetry_1
_geom_bond_site_symmetry_2
Ag1 N1 1_555 1_555
Ag2 N2 1_555 1_555
Ag3 N9 1_555 1_555
Ag9 N12 1_555 1_555
N1 N2 1_555 1_555
N2 C4 1_555 1_555
N3 C1 1_555 1_555
N4 N5 1_555 1_555
N5 C10 1_555 1_555
N6 Ag2 1_555 1_555
N7 N8 1_555 1_555
N8 C16 1_555 1_555
N9 C13 1_555 1_555
N10 Ag2 1_555 1_555
N11 Ag3 1_555 1_555
N12 C19 1_555 1_555
N13 Ag9 1_555 1_555
N14 N13 1_555 1_555
N15 C25 1_555 1_555
C1 N1 1_555 1_555
C2 C1 1_555 1_555
H1 C2 1_555 1_555
H2 C2 1_555 1_555
C3 C2 1_555 1_555
H4 C3 1_555 1_555
H5 C3 1_555 1_555
C4 N3 1_555 1_555
C5 C4 1_555 1_555
H6 C5 1_555 1_555
H7 C5 1_555 1_555
C6 C5 1_555 1_555
H8 C6 1_555 1_555
H9 C6 1_555 1_555
H10 C6 1_555 1_555
C7 N4 1_555 1_555
C8 C7 1_555 1_555
H11 C8 1_555 1_555
H12 C8 1_555 1_555
C9 C8 1_555 1_555
H13 C9 1_555 1_555
H14 C9 1_555 1_555
H15 C9 1_555 1_555
C10 N6 1_555 1_555
C11 C10 1_555 1_555
H16 C11 1_555 1_555
H17 C11 1_555 1_555
C12 C11 1_555 1_555
H18 C12 1_555 1_555
H19 C12 1_555 1_555
H20 C12 1_555 1_555
C13 N7 1_555 1_555
C14 C13 1_555 1_555
H21 C14 1_555 1_555
H22 C14 1_555 1_555
C15 C14 1_555 1_555
H23 C15 1_555 1_555
H24 C15 1_555 1_555
H25 C15 1_555 1_555
C16 N9 1_555 1_555
C17 C16 1_555 1_555
H26 C17 1_555 1_555
H27 C17 1_555 1_555
C18 C17 1_555 1_555
H28 C18 1_555 1_555
H29 C18 1_555 1_555
H30 C18 1_555 1_555
C19 N10 1_555 1_555
C20 C19 1_555 1_555
H31 C20 1_555 1_555
H32 C20 1_555 1_555
C21 C20 1_555 1_555
H33 C21 1_555 1_555
H34 C21 1_555 1_555
H35 C21 1_555 1_555
C22 N11 1_555 1_555
C23 C22 1_555 1_555
H36 C23 1_555 1_555
H37 C23 1_555 1_555
C24 C23 1_555 1_555
H38 C24 1_555 1_555
H39 C24 1_555 1_555
H40 C24 1_555 1_555
C25 N13 1_555 1_555
C26 C25 1_555 1_555
H41 C26 1_555 1_555
H42 C26 1_555 1_555
C27 C26 1_555 1_555
H43 C27 1_555 1_555
H44 C27 1_555 1_555
H45 C27 1_555 1_555
C28 N14 1_555 1_555
C29 C28 1_555 1_555
H46 C29 1_555 1_555
H47 C29 1_555 1_555
C30 C29 1_555 1_555
H48 C30 1_555 1_555
H49 C30 1_555 1_555
H50 C30 1_555 1_555
Ag6 N4 1_555 1_555
Ag7 N15 1_555 1_555
Ag8 N5 1_555 1_555
Ag10 N7 1_555 1_555
Ag11 N3 1_555 1_555
N17 Ag1 1_555 1_555
N18 Ag3 1_555 1_555
N21 Ag1 1_555 1_555
N6 C7 1_555 1_555
N10 N11 1_555 1_555
N12 C22 1_555 1_555
N15 C28 1_555 1_555
N17 N18 1_555 1_555
N16 Ag10 1_555 1_555
N19 N20 1_555 1_555
N16_2 Ag5 1_555 1_555
Ag6 N1_2 1_555 1_555
Ag2_2 N2_2 1_555 1_555
Ag8 N9_2 1_555 1_555
Ag4 N12_2 1_555 1_555
N1_2 N2_2 1_555 1_555
N2_2 C4_2 1_555 1_555
N3_2 C1_2 1_555 1_555
N6_2 Ag2_2 1_555 1_555
N20 C16_2 1_555 1_555
N9_2 C13_2 1_555 1_555
N10_2 Ag2_2 1_555 1_555
N11_2 Ag8 1_555 1_555
N12_2 C19_2 1_555 1_555
C1_2 N1_2 1_555 1_555
C2_2 C1_2 1_555 1_555
H1_2 C2_2 1_555 1_555
H2_2 C2_2 1_555 1_555
C3_2 C2_2 1_555 1_555
H3 C3_2 1_555 1_555
H4_2 C3_2 1_555 1_555
H5_2 C3_2 1_555 1_555
C4_2 N3_2 1_555 1_555
C5_2 C4_2 1_555 1_555
H6_2 C5_2 1_555 1_555
H7_2 C5_2 1_555 1_555
C6_2 C5_2 1_555 1_555
H8_2 C6_2 1_555 1_555
H9_2 C6_2 1_555 1_555
H10_2 C6_2 1_555 1_555
C8_2 C7_2 1_555 1_555
H11_2 C8_2 1_555 1_555
H12_2 C8_2 1_555 1_555
C9_2 C8_2 1_555 1_555
H13_2 C9_2 1_555 1_555
H14_2 C9_2 1_555 1_555
H15_2 C9_2 1_555 1_555
C10_2 N6_2 1_555 1_555
C11_2 C10_2 1_555 1_555
H16_2 C11_2 1_555 1_555
H17_2 C11_2 1_555 1_555
C12_2 C11_2 1_555 1_555
H18_2 C12_2 1_555 1_555
H19_2 C12_2 1_555 1_555
H20_2 C12_2 1_555 1_555
C13_2 N19 1_555 1_555
C14_2 C13_2 1_555 1_555
H21_2 C14_2 1_555 1_555
C15_2 C14_2 1_555 1_555
H25_2 C15_2 1_555 1_555
C16_2 N9_2 1_555 1_555
C17_2 C16_2 1_555 1_555
H26_2 C17_2 1_555 1_555
H27_2 C17_2 1_555 1_555
C18_2 C17_2 1_555 1_555
H28_2 C18_2 1_555 1_555
H29_2 C18_2 1_555 1_555
H30_2 C18_2 1_555 1_555
C19_2 N10_2 1_555 1_555
C20_2 C19_2 1_555 1_555
H31_2 C20_2 1_555 1_555
H32_2 C20_2 1_555 1_555
C21_2 C20_2 1_555 1_555
H33_2 C21_2 1_555 1_555
H34_2 C21_2 1_555 1_555
H35_2 C21_2 1_555 1_555
C22_2 N11_2 1_555 1_555
C23_2 C22_2 1_555 1_555
H36_2 C23_2 1_555 1_555
H37_2 C23_2 1_555 1_555
C24_2 C23_2 1_555 1_555
H38_2 C24_2 1_555 1_555
H39_2 C24_2 1_555 1_555
H40_2 C24_2 1_555 1_555
Ag11_2 N3_2 1_555 1_555
N21_2 Ag6 1_555 1_555
N6_2 C7_2 1_555 1_555
N10_2 N11_2 1_555 1_555
N12_2 C22_2 1_555 1_555
N14_2 N13_2 1_555 1_555
N15_2 C25_2 1_555 1_555
C25_2 N13_2 1_555 1_555
C26_2 C25_2 1_555 1_555
H42_2 C26_2 1_555 1_555
C27_2 C26_2 1_555 1_555
H44_2 C27_2 1_555 1_555
C28_2 N14_2 1_555 1_555
C29_2 C28_2 1_555 1_555
H46_2 C29_2 1_555 1_555
H47_2 C29_2 1_555 1_555
C30_2 C29_2 1_555 1_555
H48_2 C30_2 1_555 1_555
H49_2 C30_2 1_555 1_555
H50_2 C30_2 1_555 1_555
Ag7_2 N15_2 1_555 1_555
N15_2 C28_2 1_555 1_555
N19_2 Ag11_2 1_555 1_555
N19_2 N20_2 1_555 1_555
Ag7_2 N1_3 1_555 1_555
Ag2_3 N2_3 1_555 1_555
Ag3_2 N9_3 1_555 1_555
Ag4_2 N12_3 1_555 1_555
N1_3 N2_3 1_555 1_555
N2_3 C4_3 1_555 1_555
N16_2 C1_3 1_555 1_555
N4_2 N5_2 1_555 1_555
N5_2 C10_3 1_555 1_555
N6_3 Ag2_3 1_555 1_555
N20_2 C16_3 1_555 1_555
N9_3 C13_3 1_555 1_555
N10_3 Ag2_3 1_555 1_555
N11_3 Ag3_2 1_555 1_555
N12_3 C19_3 1_555 1_555
N13_3 Ag4_2 1_555 1_555
N14_3 N13_3 1_555 1_555
N21_2 C25_3 1_555 1_555
C1_3 N1_3 1_555 1_555
C2_3 C1_3 1_555 1_555
H1_3 C2_3 1_555 1_555
H2_3 C2_3 1_555 1_555
C3_3 C2_3 1_555 1_555
H4_3 C3_3 1_555 1_555
H5_3 C3_3 1_555 1_555
C4_3 N16_2 1_555 1_555
C5_3 C4_3 1_555 1_555
H6_3 C5_3 1_555 1_555
H7_3 C5_3 1_555 1_555
C6_3 C5_3 1_555 1_555
H8_3 C6_3 1_555 1_555
H9_3 C6_3 1_555 1_555
H10_3 C6_3 1_555 1_555
C7_3 N4_2 1_555 1_555
C8_3 C7_3 1_555 1_555
H11_3 C8_3 1_555 1_555
H12_3 C8_3 1_555 1_555
C9_3 C8_3 1_555 1_555
H13_3 C9_3 1_555 1_555
H14_3 C9_3 1_555 1_555
H15_3 C9_3 1_555 1_555
C10_3 N6_3 1_555 1_555
C11_3 C10_3 1_555 1_555
H16_3 C11_3 1_555 1_555
H17_3 C11_3 1_555 1_555
C12_3 C11_3 1_555 1_555
H18_3 C12_3 1_555 1_555
H19_3 C12_3 1_555 1_555
H20_3 C12_3 1_555 1_555
C13_3 N19_2 1_555 1_555
C14_3 C13_3 1_555 1_555
H21_3 C14_3 1_555 1_555
H22_3 C14_3 1_555 1_555
C15_3 C14_3 1_555 1_555
H23_3 C15_3 1_555 1_555
H24_3 C15_3 1_555 1_555
H25_3 C15_3 1_555 1_555
C16_3 N9_3 1_555 1_555
C17_3 C16_3 1_555 1_555
H26_3 C17_3 1_555 1_555
H27_3 C17_3 1_555 1_555
C18_3 C17_3 1_555 1_555
H28_3 C18_3 1_555 1_555
H29_3 C18_3 1_555 1_555
H30_3 C18_3 1_555 1_555
C19_3 N10_3 1_555 1_555
C20_3 C19_3 1_555 1_555
H31_3 C20_3 1_555 1_555
H32_3 C20_3 1_555 1_555
C21_3 C20_3 1_555 1_555
H33_3 C21_3 1_555 1_555
H34_3 C21_3 1_555 1_555
H35_3 C21_3 1_555 1_555
C22_3 N11_3 1_555 1_555
C23_3 C22_3 1_555 1_555
H36_3 C23_3 1_555 1_555
H37_3 C23_3 1_555 1_555
C24_3 C23_3 1_555 1_555
H38_3 C24_3 1_555 1_555
H39_3 C24_3 1_555 1_555
H40_3 C24_3 1_555 1_555
C25_3 N13_3 1_555 1_555
C26_3 C25_3 1_555 1_555
H41_3 C26_3 1_555 1_555
H42_3 C26_3 1_555 1_555
C27_3 C26_3 1_555 1_555
H43_3 C27_3 1_555 1_555
H44_3 C27_3 1_555 1_555
H45_3 C27_3 1_555 1_555
C28_3 N14_3 1_555 1_555
C29_3 C28_3 1_555 1_555
H46_3 C29_3 1_555 1_555
H47_3 C29_3 1_555 1_555
C30_3 C29_3 1_555 1_555
H48_3 C30_3 1_555 1_555
H49_3 C30_3 1_555 1_555
H50_3 C30_3 1_555 1_555
Ag7 N4_2 1_555 1_555
Ag8_2 N5_2 1_555 1_555
N17_2 Ag7_2 1_555 1_555
N18_2 Ag3_2 1_555 1_555
N6_3 C7_3 1_555 1_555
N10_3 N11_3 1_555 1_555
N12_3 C22_3 1_555 1_555
N21_2 C28_3 1_555 1_555
N17_2 N18_2 1_555 1_555
N14_4 N13_4 1_555 1_555
N21 C25_4 1_555 1_555
C25_4 N13_4 1_555 1_555
C26_4 C25_4 1_555 1_555
H42_4 C26_4 1_555 1_555
C27_4 C26_4 1_555 1_555
H44_4 C27_4 1_555 1_555
C28_4 N14_4 1_555 1_555
C29_4 C28_4 1_555 1_555
H46_4 C29_4 1_555 1_555
H47_4 C29_4 1_555 1_555
C30_4 C29_4 1_555 1_555
H48_4 C30_4 1_555 1_555
H49_4 C30_4 1_555 1_555
H50_4 C30_4 1_555 1_555
N21 C28_4 1_555 1_555
Ag7 N1_4 1_555 1_555
Ag2_4 N2_4 1_555 1_555
Ag8_2 N9_4 1_555 1_555
Ag9_2 N12_4 1_555 1_555
N1_4 N2_4 1_555 1_555
N2_4 C4_4 1_555 1_555
N16 C1_4 1_555 1_555
N6_4 Ag2_4 1_555 1_555
N7_2 N8_2 1_555 1_555
N8_2 C16_4 1_555 1_555
N9_4 C13_4 1_555 1_555
N10_4 Ag2_4 1_555 1_555
N11_4 Ag8_2 1_555 1_555
N12_4 C19_4 1_555 1_555
C1_4 N1_4 1_555 1_555
C2_4 C1_4 1_555 1_555
H1_4 C2_4 1_555 1_555
H2_4 C2_4 1_555 1_555
C3_4 C2_4 1_555 1_555
H3_2 C3_4 1_555 1_555
H4_4 C3_4 1_555 1_555
H5_4 C3_4 1_555 1_555
C4_4 N16 1_555 1_555
C5_4 C4_4 1_555 1_555
H6_4 C5_4 1_555 1_555
H7_4 C5_4 1_555 1_555
C6_4 C5_4 1_555 1_555
H8_4 C6_4 1_555 1_555
H9_4 C6_4 1_555 1_555
H10_4 C6_4 1_555 1_555
C8_4 C7_4 1_555 1_555
H11_4 C8_4 1_555 1_555
H12_4 C8_4 1_555 1_555
C9_4 C8_4 1_555 1_555
H13_4 C9_4 1_555 1_555
H14_4 C9_4 1_555 1_555
H15_4 C9_4 1_555 1_555
C10_4 N6_4 1_555 1_555
C11_4 C10_4 1_555 1_555
H16_4 C11_4 1_555 1_555
H17_4 C11_4 1_555 1_555
C12_4 C11_4 1_555 1_555
H18_4 C12_4 1_555 1_555
H19_4 C12_4 1_555 1_555
H20_4 C12_4 1_555 1_555
C13_4 N7_2 1_555 1_555
C14_4 C13_4 1_555 1_555
H21_4 C14_4 1_555 1_555
C15_4 C14_4 1_555 1_555
H25_4 C15_4 1_555 1_555
C16_4 N9_4 1_555 1_555
C17_4 C16_4 1_555 1_555
H26_4 C17_4 1_555 1_555
H27_4 C17_4 1_555 1_555
C18_4 C17_4 1_555 1_555
H28_4 C18_4 1_555 1_555
H29_4 C18_4 1_555 1_555
H30_4 C18_4 1_555 1_555
C19_4 N10_4 1_555 1_555
C20_4 C19_4 1_555 1_555
H31_4 C20_4 1_555 1_555
H32_4 C20_4 1_555 1_555
C21_4 C20_4 1_555 1_555
H33_4 C21_4 1_555 1_555
H34_4 C21_4 1_555 1_555
H35_4 C21_4 1_555 1_555
C22_4 N11_4 1_555 1_555
C23_4 C22_4 1_555 1_555
H36_4 C23_4 1_555 1_555
H37_4 C23_4 1_555 1_555
C24_4 C23_4 1_555 1_555
H38_4 C24_4 1_555 1_555
H39_4 C24_4 1_555 1_555
H40_4 C24_4 1_555 1_555
N6_4 C7_4 1_555 1_555
N10_4 N11_4 1_555 1_555
N12_4 C22_4 1_555 1_555

#END
