
###############################################################################
#
# This file contains modified crystal structure data generated from the
# MOF subset of the Cambridge Structural Database (CSD) v543 
# hosted by the Cambridge Crystallographic Data Centre (CCDC).
#
# This work is licensed under the Creative Commons
# Attribution-NonCommercial-ShareAlike 4.0 International License.
# To view a copy of this license, visit
# http://creativecommons.org/licenses/by-nc-sa/4.0/
# or send a letter to
# Creative Commons, PO Box 1866, Mountain View, CA 94042, USA.
#
# CIF created using the CSD Python API on 29 September 2022
# The structure has been converted into the P1 space group
# The structure has a 3D framework
# The original CSD entry ZOZBEX is in the monoclinic crystal system
# The framework has been calculated to contain at least 10.0% void space
# The void calculation uses a probe of radius 1.32A, grid spacing 0.4
#
###############################################################################

data_ZOZBEX
_chemical_formula_moiety         '(C256 H450 Ag28 N96)n'
_symmetry_cell_setting           triclinic
_symmetry_space_group_name_H-M   'P 1'
_symmetry_Int_Tables_number      1
_space_group_name_Hall           'P 1'
loop_
_symmetry_equiv_pos_site_id
_symmetry_equiv_pos_as_xyz
1 x,y,z
_cell_length_a                   21.8059(6)
_cell_length_b                   20.5551(5)
_cell_length_c                   22.2812(5)
_cell_angle_alpha                90
_cell_angle_beta                 115.8920(10)
_cell_angle_gamma                90
_cell_volume                     8984.43
loop_
_atom_site_label
_atom_site_type_symbol
_atom_site_fract_x
_atom_site_fract_y
_atom_site_fract_z
N6 N 0.0407(2) 0.0026(2) 0.2659(2)
C11 C 0.1402(4) 0.0383(4) 0.2130(4)
H16 H 0.1192 0.0727 0.2283
H17 H 0.1533 0.0560 0.1794
H18 H 0.1808 0.0217 0.2509
H20 H 0.0513 0.0068 0.0842
H21 H 0.0063 0.0341 0.1193
C16 C 0.0255(4) 0.0321(4) 0.3929(4)
H26 H 0.0625 0.0112 0.4311
H28 H 0.0448 0.0626 0.3719
Ag1 Ag 0.058208(18) 0.809852(19) 0.192221(16)
Ag2 Ag 0.080253(19) 0.64071(2) 0.210900(16)
Ag5 Ag 0.26125(2) 0.73308(2) 0.490532(19)
Ag6 Ag 0.080269(18) 0.35388(2) 0.345046(16)
Ag7 Ag 0.280701(17) 0.26672(2) 0.648876(16)
Ag8 Ag 0.363047(17) 0.21322(2) 0.542736(15)
N1 N 0.07871(18) 0.7529(2) 0.11953(16)
N2 N 0.09873(17) 0.68759(18) 0.13501(15)
N3 N 0.10501(18) 0.7147(2) 0.04094(15)
N4 N 0.05315(18) 0.90050(19) 0.24180(17)
N5 N 0.02459(18) 0.9007(2) 0.28582(17)
N7 N 0.10537(17) 0.73444(19) 0.29297(16)
N8 N 0.06548(17) 0.71964(19) 0.32664(16)
N9 N 0.17379(19) 0.7244(2) 0.40120(17)
N10 N 0.4363(2) 0.7286(2) 0.67736(19)
N11 N 0.4405(2) 0.7912(2) 0.66005(18)
N12 N 0.3505(2) 0.7443(2) 0.57897(18)
N13 N 0.07419(16) 0.56246(19) 0.27276(16)
N14 N 0.01096(17) 0.5551(2) 0.27386(16)
N15 N 0.07318(17) 0.4665(2) 0.31922(16)
N16 N 0.23871(19) 0.2975(2) 0.53843(17)
N17 N 0.25355(19) 0.2538(2) 0.49944(17)
N18 N 0.16355(19) 0.31170(19) 0.43468(16)
N19 N 0.11730(17) 0.2996(2) 0.71152(18)
N20 N 0.09697(18) 0.2406(2) 0.67832(19)
N21 N 0.19680(17) 0.2680(2) 0.68115(17)
N22 N 0.38247(17) 0.2224(2) 0.68978(15)
N23 N 0.41200(17) 0.1969(2) 0.65167(15)
N24 N 0.48479(17) 0.1845(2) 0.75795(15)
C1 C 0.0834(2) 0.7663(2) 0.0641(2)
C2 C 0.0636(3) 0.8324(3) 0.0308(3)
H1 H 0.0635 0.8571 0.0694
C4 C 0.1201(5) 0.8652(4) 0.0266(6)
H5 H 0.1600 0.8633 0.0700
H6 H 0.1079 0.9108 0.0140
C5 C 0.1126(2) 0.6668(2) 0.08451(18)
C6 C 0.1345(2) 0.5990(3) 0.0803(2)
H8 H 0.1519 0.5983 0.0456
C7 C 0.1933(3) 0.5771(4) 0.1468(3)
H9 H 0.2319 0.6070 0.1587
H10 H 0.2076 0.5330 0.1419
H11 H 0.1779 0.5776 0.1820
C8 C 0.0758(3) 0.5519(3) 0.0587(3)
H12 H 0.0627 0.5456 0.0951
H13 H 0.0895 0.5101 0.0472
H14 H 0.0369 0.5694 0.0196
C9 C 0.0621(3) 0.9606(3) 0.2301(2)
C10 C 0.0888(3) 0.9825(3) 0.1821(2)
H15 H 0.1148 0.9450 0.1759
C12 C 0.0325(4) 0.9967(4) 0.1158(3)
H19 H 0.0025 0.9588 0.1000
C13 C 0.0164(3) 0.9627(3) 0.2962(2)
C17 C 0.1681(2) 0.7381(3) 0.3380(2)
C18 C 0.2256(2) 0.7539(4) 0.3206(3)
H29 H 0.2041 0.7456 0.2714
C19 C 0.2433(4) 0.8185(4) 0.3233(5)
H30 H 0.2043 0.8434 0.2915
H31 H 0.2817 0.8230 0.3120
H32 H 0.2564 0.8352 0.3685
C20 C 0.2820(3) 0.7032(4) 0.3455(3)
H33 H 0.3057 0.7047 0.3944
H34 H 0.3145 0.7123 0.3271
H35 H 0.2623 0.6599 0.3313
C21 C 0.1092(2) 0.7136(2) 0.3900(2)
C22 C 0.0840(3) 0.6958(4) 0.4417(3)
H36 H 0.0340 0.6894 0.4139
C23 C 0.0862(5) 0.7497(5) 0.4856(3)
H37 H 0.1336 0.7580 0.5175
H38 H 0.0595 0.7384 0.5098
H39 H 0.0670 0.7888 0.4587
C24 C 0.1068(4) 0.6308(4) 0.4696(3)
H40 H 0.1031 0.6010 0.4339
H41 H 0.0781 0.6150 0.4903
H42 H 0.1543 0.6329 0.5033
C25 C 0.3822(2) 0.7015(3) 0.6290(2)
C26 C 0.3592(3) 0.6337(3) 0.6326(3)
H43 H 0.3972 0.6115 0.6706
C27 C 0.3449(5) 0.5951(4) 0.5712(4)
H44 H 0.3098 0.6171 0.5324
H45 H 0.3290 0.5516 0.5756
H46 H 0.3867 0.5913 0.5652
C28 C 0.2974(4) 0.6338(5) 0.6478(4)
H47 H 0.3044 0.6658 0.6829
H48 H 0.2917 0.5905 0.6630
H49 H 0.2565 0.6453 0.6074
C29 C 0.3874(2) 0.8003(3) 0.5982(2)
C30 C 0.3762(3) 0.8580(3) 0.5555(2)
H50 H 0.3258 0.8632 0.5293
C31 C 0.4055(4) 0.8474(3) 0.5055(3)
H51 H 0.4551 0.8432 0.5293
H52 H 0.3939 0.8845 0.4749
H53 H 0.3862 0.8075 0.4801
C32 C 0.4028(4) 0.9201(4) 0.5944(3)
H54 H 0.3739 0.9325 0.6160
H55 H 0.4021 0.9549 0.5639
H56 H 0.4496 0.9134 0.6284
C33 C 0.1094(2) 0.5101(2) 0.30021(19)
C34 C 0.1810(2) 0.5016(3) 0.3090(3)
H57 H 0.1919 0.5407 0.2888
C35 C 0.1909(3) 0.4436(3) 0.2738(4)
H58 H 0.2041 0.4061 0.3040
H59 H 0.2268 0.4527 0.2597
H60 H 0.1482 0.4338 0.2345
C36 C 0.2286(3) 0.5034(6) 0.3831(3)
H61 H 0.2141 0.5378 0.4045
H62 H 0.2752 0.5121 0.3894
H63 H 0.2272 0.4613 0.4032
C37 C 0.01365(19) 0.4993(3) 0.30278(19)
C41 C 0.1848(2) 0.3294(3) 0.4987(2)
C42 C 0.1499(3) 0.3793(3) 0.5250(3)
H71 H 0.1712 0.3734 0.5745
C43 C 0.1654(4) 0.4465(3) 0.5138(3)
H72 H 0.2144 0.4545 0.5390
H73 H 0.1401 0.4767 0.5287
H74 H 0.1520 0.4532 0.4661
C44 C 0.0763(3) 0.3668(4) 0.5022(3)
H75 H 0.0499 0.3955 0.4646
H76 H 0.0640 0.3754 0.5389
H77 H 0.0662 0.3213 0.4881
C45 C 0.2072(2) 0.2638(2) 0.4375(2)
C46 C 0.2035(3) 0.2227(3) 0.3808(2)
H78 H 0.2423 0.1913 0.3996
C47 C 0.2140(4) 0.2627(4) 0.3283(3)
H79 H 0.1832 0.3002 0.3155
H80 H 0.2044 0.2357 0.2889
H81 H 0.2613 0.2780 0.3467
C48 C 0.1395(4) 0.1831(3) 0.3517(4)
H82 H 0.1389 0.1531 0.3857
H83 H 0.1377 0.1582 0.3135
H84 H 0.0998 0.2120 0.3370
C49 C 0.1760(2) 0.3123(2) 0.7120(2)
C50 C 0.2172(3) 0.3704(3) 0.7517(3)
H85 H 0.1834 0.4004 0.7564
C51 C 0.2643(4) 0.3504(5) 0.8209(4)
H86 H 0.2398 0.3506 0.8487
H87 H 0.3026 0.3810 0.8393
H88 H 0.2816 0.3066 0.8201
C52 C 0.2505(4) 0.4097(4) 0.7156(4)
H89 H 0.2431 0.3876 0.6740
H90 H 0.2995 0.4134 0.7442
H91 H 0.2302 0.4532 0.7054
C53 C 0.1456(2) 0.2231(3) 0.6612(2)
C54 C 0.1418(3) 0.1625(3) 0.6241(3)
H92 H 0.1035 0.1374 0.6261
C55 C 0.2050(4) 0.1194(4) 0.6603(4)
H93 H 0.2461 0.1440 0.6673
H94 H 0.2016 0.0808 0.6331
H95 H 0.2076 0.1058 0.7035
C56 C 0.1223(4) 0.1701(4) 0.5518(3)
H96 H 0.0801 0.1955 0.5311
H97 H 0.1150 0.1270 0.5308
H98 H 0.1588 0.1926 0.5458
C57 C 0.4276(2) 0.2143(3) 0.75282(19)
C58 C 0.4157(3) 0.2392(3) 0.8112(2)
H99 H 0.3780 0.2712 0.7886
C59 C 0.3818(3) 0.1902(4) 0.8352(3)
H100 H 0.3430 0.1714 0.7970
H101 H 0.3657 0.2110 0.8653
H102 H 0.4143 0.1556 0.8592
C60 C 0.4681(4) 0.2799(3) 0.8574(3)
H103 H 0.4985 0.2539 0.8958
H104 H 0.4474 0.3146 0.8727
H105 H 0.4942 0.2992 0.8356
C61 C 0.47154(19) 0.1738(2) 0.69321(18)
C62 C 0.5214(2) 0.1404(3) 0.6732(2)
H106 H 0.5605 0.1262 0.7156
C63 C 0.4919(4) 0.0804(4) 0.6343(3)
H107 H 0.4711 0.0542 0.6573
H108 H 0.5280 0.0552 0.6301
H109 H 0.4570 0.0921 0.5898
C64 C 0.5501(3) 0.1875(4) 0.6405(3)
H110 H 0.5157 0.1966 0.5950
H111 H 0.5906 0.1685 0.6389
H112 H 0.5627 0.2280 0.6661
Ag9 Ag 0.022887(17) 0.18826(2) 0.701054(17)
Ag10 Ag 0.043874(18) 0.35165(2) 0.737841(18)
Ag11 Ag 0.456126(18) 0.85165(2) 0.762159(18)
Ag12 Ag 0.580269(18) 0.14612(2) 0.845046(16)
N25 N 0.39499(18) 0.2147(2) 0.45906(15)
H7 H 0.1306 0.8439 0.9929
Ag13 Ag 0.136953(17) 0.71322(2) 0.957264(15)
Ag3 Ag 0.977113(17) 0.81174(2) 0.298946(17)
Ag4 Ag 0.956126(18) 0.64835(2) 0.262159(18)
C14 C 0.9858(3) 0.9824(4) 0.3443(3)
H22 H 0.9872 0.9426 0.3707
C15 C 0.9116(4) 0.9993(6) 0.3047(4)
H24 H 0.8892 1.0000 0.3344
H25 H 0.8898 0.9666 0.2698
C38 C 0.9555(2) 0.4708(3) 0.3137(2)
H64 H 0.9676 0.4249 0.3294
C39 C 0.9469(2) 0.5095(3) 0.3694(2)
H65 H 0.9919 0.5176 0.4063
H66 H 0.9191 0.4842 0.3857
H67 H 0.9244 0.5511 0.3514
C40 C 0.8891(3) 0.4694(3) 0.2492(3)
H68 H 0.8820 0.5119 0.2271
H69 H 0.8509 0.4599 0.2598
H70 H 0.8920 0.4357 0.2195
N26 N 0.9405(2) 0.7088(2) 0.16005(18)
N27 N 0.88270(17) 0.7004(2) 0.28848(18)
N28 N 0.90303(18) 0.7594(2) 0.32168(19)
N29 N 0.98479(17) 0.3155(2) 0.25795(15)
Ag1_2 Ag 0.441792(18) 0.309852(19) 0.307779(16)
Ag2_2 Ag 0.419747(19) 0.14071(2) 0.289100(16)
Ag3_2 Ag 0.522887(17) 0.31174(2) 0.201054(17)
Ag4_2 Ag 0.543874(18) 0.14835(2) 0.237841(18)
Ag5_2 Ag 0.23875(2) 0.23308(2) 0.009468(19)
N1_2 N 0.42129(18) 0.2529(2) 0.38047(16)
N2_2 N 0.40127(17) 0.18759(18) 0.36499(15)
N4_2 N 0.44685(18) 0.40050(19) 0.25820(17)
N5_2 N 0.47541(18) 0.4007(2) 0.21418(17)
N6_2 N 0.4593(2) 0.5026(2) 0.2341(2)
N7_2 N 0.39463(17) 0.23444(19) 0.20703(16)
N8_2 N 0.43452(17) 0.21964(19) 0.17336(16)
N9_2 N 0.32621(19) 0.2244(2) 0.09880(17)
N13_2 N 0.42581(16) 0.06246(19) 0.22724(16)
N14_2 N 0.48904(17) 0.0551(2) 0.22614(16)
C1_2 C 0.4166(2) 0.2663(2) 0.4359(2)
C2_2 C 0.4364(3) 0.3324(3) 0.4692(3)
H1_2 H 0.4365 0.3571 0.4306
C3 C 0.5011(5) 0.3382(5) 0.5099(7)
H2 H 0.5178 0.3804 0.5026
H3 H 0.5267 0.3032 0.5014
H4 H 0.5073 0.3355 0.5561
C4_2 C 0.3799(5) 0.3652(4) 0.4734(6)
H5_2 H 0.3400 0.3633 0.4300
H6_2 H 0.3921 0.4108 0.4860
H7_2 H 0.3694 0.3439 0.5071
C5_2 C 0.3874(2) 0.1668(2) 0.41549(18)
C6_2 C 0.3655(2) 0.0990(3) 0.4197(2)
H8_2 H 0.3481 0.0983 0.4544
C7_2 C 0.3067(3) 0.0771(4) 0.3532(3)
H9_2 H 0.2681 0.1070 0.3413
H10_2 H 0.2924 0.0330 0.3581
H11_2 H 0.3221 0.0776 0.3180
C8_2 C 0.4242(3) 0.0519(3) 0.4413(3)
H12_2 H 0.4373 0.0456 0.4049
H13_2 H 0.4105 0.0101 0.4528
H14_2 H 0.4631 0.0694 0.4804
C9_2 C 0.4379(3) 0.4606(3) 0.2699(2)
C10_2 C 0.4112(3) 0.4825(3) 0.3179(2)
H15_2 H 0.3852 0.4450 0.3241
C11_2 C 0.3598(4) 0.5383(4) 0.2870(4)
H16_2 H 0.3808 0.5727 0.2717
H17_2 H 0.3467 0.5560 0.3206
H18_2 H 0.3192 0.5217 0.2491
C12_2 C 0.4675(4) 0.4967(4) 0.3842(3)
H19_2 H 0.4975 0.4588 0.4000
H20_2 H 0.4487 0.5068 0.4158
H21_2 H 0.4937 0.5341 0.3807
C13_2 C 0.4836(3) 0.4627(3) 0.2038(2)
C14_2 C 0.5142(3) 0.4824(4) 0.1557(3)
H22_2 H 0.5128 0.4426 0.1293
C15_2 C 0.5884(4) 0.4993(6) 0.1953(4)
H23 H 0.5923 0.5422 0.2158
H24_2 H 0.6108 0.5000 0.1656
H25_2 H 0.6102 0.4666 0.2302
C16_2 C 0.4745(4) 0.5321(4) 0.1071(4)
H26_2 H 0.4375 0.5112 0.0689
H27 H 0.5041 0.5557 0.0920
H28_2 H 0.4552 0.5626 0.1281
C17_2 C 0.3319(2) 0.2381(3) 0.1620(2)
C18_2 C 0.2744(2) 0.2539(4) 0.1794(3)
H29_2 H 0.2959 0.2456 0.2286
C19_2 C 0.2567(4) 0.3185(4) 0.1767(5)
H30_2 H 0.2957 0.3434 0.2085
H31_2 H 0.2183 0.3230 0.1880
H32_2 H 0.2436 0.3352 0.1315
C20_2 C 0.2180(3) 0.2032(4) 0.1545(3)
H33_2 H 0.1943 0.2047 0.1056
H34_2 H 0.1855 0.2123 0.1729
H35_2 H 0.2377 0.1599 0.1687
C21_2 C 0.3908(2) 0.2136(2) 0.1100(2)
C22_2 C 0.4160(3) 0.1958(4) 0.0583(3)
H36_2 H 0.4660 0.1894 0.0861
C23_2 C 0.4138(5) 0.2497(5) 0.0144(3)
H39_2 H 0.4330 0.2888 0.0413
C24_2 C 0.3932(4) 0.1308(4) 0.0304(3)
H40_2 H 0.3969 0.1010 0.0661
H41_2 H 0.4219 0.1150 0.0097
H52_2 H 0.1061 0.3845 0.0251
H53_2 H 0.1138 0.3075 0.0199
C33_2 C 0.3906(2) 0.0101(2) 0.19979(19)
C34_2 C 0.3190(2) 0.0016(3) 0.1910(3)
H57_2 H 0.3081 0.0407 0.2112
C36_2 C 0.2714(3) 0.0034(6) 0.1169(3)
H61_2 H 0.2859 0.0378 0.0955
H62_2 H 0.2248 0.0121 0.1106
C39_2 C 0.5531(2) 0.0095(3) 0.1306(2)
H65_2 H 0.5081 0.0176 0.0937
H67_2 H 0.5756 0.0511 0.1486
H68_2 H 0.6180 0.0119 0.2729
N26_2 N 0.5595(2) 0.2088(2) 0.33995(18)
N27_2 N 0.61730(17) 0.2004(2) 0.21152(18)
N28_2 N 0.59697(18) 0.2594(2) 0.17832(19)
N10_2 N 0.0637(2) 0.2286(2) 0.82264(19)
N11_2 N 0.0595(2) 0.2912(2) 0.83995(18)
N12_2 N 0.1495(2) 0.2443(2) 0.92103(18)
H37_2 H 0.3664 0.2580 0.9825
H38_2 H 0.4405 0.2384 0.9902
H42_2 H 0.3457 0.1329 0.9967
C25_2 C 0.1178(2) 0.2015(3) 0.8710(2)
C26_2 C 0.1408(3) 0.1337(3) 0.8674(3)
H43_2 H 0.1028 0.1115 0.8294
C27_2 C 0.1551(5) 0.0951(4) 0.9288(4)
H44_2 H 0.1902 0.1171 0.9676
H45_2 H 0.1710 0.0516 0.9244
H46_2 H 0.1133 0.0913 0.9348
C28_2 C 0.2026(4) 0.1338(5) 0.8522(4)
H47_2 H 0.1956 0.1658 0.8171
H48_2 H 0.2083 0.0905 0.8370
H49_2 H 0.2435 0.1453 0.8926
C29_2 C 0.1126(2) 0.3003(3) 0.9018(2)
C30_2 C 0.1238(3) 0.3580(3) 0.9445(2)
H50_2 H 0.1742 0.3632 0.9707
C31_2 C 0.0945(4) 0.3474(3) 0.9945(3)
H51_2 H 0.0449 0.3432 0.9707
C32_2 C 0.0972(4) 0.4201(4) 0.9056(3)
H54_2 H 0.1261 0.4325 0.8840
H55_2 H 0.0979 0.4549 0.9361
H56_2 H 0.0504 0.4134 0.8716
Ag6_2 Ag 0.419731(18) 0.85388(2) 0.154954(16)
N15_2 N 0.42682(17) 0.9665(2) 0.18078(16)
N17_2 N 0.24645(19) 0.7538(2) 0.00056(17)
N18_2 N 0.33645(19) 0.81170(19) 0.06532(16)
C35_2 C 0.3091(3) 0.9436(3) 0.2262(4)
H58_2 H 0.2959 0.9061 0.1960
H59_2 H 0.2732 0.9527 0.2403
H60_2 H 0.3518 0.9338 0.2655
H63_2 H 0.2728 0.9613 0.0968
C37_2 C 0.48635(19) 0.9993(3) 0.19722(19)
C38_2 C 0.5445(2) 0.9708(3) 0.1863(2)
H64_2 H 0.5324 0.9249 0.1706
H66_2 H 0.5809 0.9842 0.1143
C40_2 C 0.6109(3) 0.9694(3) 0.2508(3)
H69_2 H 0.6491 0.9599 0.2402
H70_2 H 0.6080 0.9357 0.2805
C41_2 C 0.3152(2) 0.8294(3) 0.0013(2)
H74_2 H 0.3480 0.9532 0.0339
H75_2 H 0.4501 0.8955 0.0354
H77_2 H 0.4338 0.8213 0.0119
C45_2 C 0.2928(2) 0.7638(2) 0.0625(2)
C46_2 C 0.2965(3) 0.7227(3) 0.1192(2)
H78_2 H 0.2577 0.6913 0.1004
C47_2 C 0.2860(4) 0.7627(4) 0.1717(3)
H79_2 H 0.3168 0.8002 0.1845
H80_2 H 0.2956 0.7357 0.2111
H81_2 H 0.2387 0.7780 0.1533
C48_2 C 0.3605(4) 0.6831(3) 0.1483(4)
H82_2 H 0.3611 0.6531 0.1143
H83_2 H 0.3623 0.6582 0.1865
H84_2 H 0.4002 0.7120 0.1630
N29_2 N 0.51521(17) 0.8155(2) 0.24205(15)
Ag7_2 Ag 0.219299(17) 0.76672(2) 0.851124(16)
N16_2 N 0.26129(19) 0.7975(2) 0.96157(17)
N19_2 N 0.38270(17) 0.7996(2) 0.78848(18)
N20_2 N 0.40303(18) 0.7406(2) 0.82168(19)
N21_2 N 0.30320(17) 0.7680(2) 0.81885(17)
N22_2 N 0.11753(17) 0.7224(2) 0.81022(15)
N23_2 N 0.08800(17) 0.6969(2) 0.84833(15)
N24_2 N 0.01521(17) 0.6845(2) 0.74205(15)
C42_2 C 0.3501(3) 0.8793(3) 0.9750(3)
H71_2 H 0.3288 0.8734 0.9255
C43_2 C 0.3346(4) 0.9465(3) 0.9862(3)
H72_2 H 0.2856 0.9545 0.9610
H73_2 H 0.3599 0.9767 0.9713
C44_2 C 0.4237(3) 0.8668(4) 0.9978(3)
H76_2 H 0.4360 0.8754 0.9611
C49_2 C 0.3240(2) 0.8123(2) 0.7880(2)
C50_2 C 0.2828(3) 0.8704(3) 0.7483(3)
H85_2 H 0.3166 0.9004 0.7436
C51_2 C 0.2357(4) 0.8504(5) 0.6791(4)
H86_2 H 0.2602 0.8506 0.6513
H87_2 H 0.1974 0.8810 0.6607
H88_2 H 0.2184 0.8066 0.6799
C52_2 C 0.2495(4) 0.9097(4) 0.7844(4)
H89_2 H 0.2569 0.8876 0.8260
H90_2 H 0.2005 0.9134 0.7558
H91_2 H 0.2698 0.9532 0.7946
C53_2 C 0.3544(2) 0.7231(3) 0.8388(2)
C54_2 C 0.3582(3) 0.6625(3) 0.8759(3)
H92_2 H 0.3965 0.6374 0.8739
C55_2 C 0.2950(4) 0.6194(4) 0.8397(4)
H93_2 H 0.2539 0.6440 0.8327
H94_2 H 0.2984 0.5808 0.8669
H95_2 H 0.2924 0.6058 0.7965
C56_2 C 0.3777(4) 0.6701(4) 0.9482(3)
H96_2 H 0.4199 0.6955 0.9689
H97_2 H 0.3850 0.6270 0.9692
H98_2 H 0.3412 0.6926 0.9542
C57_2 C 0.0724(2) 0.7143(3) 0.74718(19)
C58_2 C 0.0843(3) 0.7392(3) 0.6888(2)
H99_2 H 0.1220 0.7712 0.7114
C59_2 C 0.1182(3) 0.6902(4) 0.6648(3)
H100_2 H 0.1570 0.6714 0.7030
H101_2 H 0.1343 0.7110 0.6347
H102_2 H 0.0857 0.6556 0.6408
C60_2 C 0.0319(4) 0.7799(3) 0.6426(3)
H103_2 H 0.0015 0.7539 0.6042
H104_2 H 0.0526 0.8146 0.6273
H105_2 H 0.0058 0.7992 0.6644
C61_2 C 0.02846(19) 0.6738(2) 0.80679(18)
C63_2 C 0.0081(4) 0.5804(4) 0.8657(3)
H107_2 H 0.0289 0.5542 0.8427
H109_2 H 0.0430 0.5921 0.9102
Ag9_2 Ag 0.477113(17) 0.68826(2) 0.798946(17)
C62_2 C 0.9786(2) 0.6404(3) 0.8268(2)
H106_2 H 0.9395 0.6262 0.7844
H108_2 H 0.9720 0.5552 0.8699
C64_2 C 0.9499(3) 0.6875(4) 0.8595(3)
H110_2 H 0.9843 0.6966 0.9050
H111_2 H 0.9094 0.6685 0.8611
H112_2 H 0.9373 0.7280 0.8339
Ag12_2 Ag 0.919731(18) 0.64612(2) 0.654954(16)
C14_3 C 0.0142(3) 0.0176(4) 0.6557(3)
H22_3 H 0.0128 0.0574 0.6293
C15_3 C 0.0884(4) 0.0007(6) 0.6953(4)
H24_3 H 0.1108 0.0000 0.6656
H25_3 H 0.1102 0.0334 0.7302
C38_3 C 0.0445(2) 0.5292(3) 0.6863(2)
H64_3 H 0.0324 0.5751 0.6706
C39_3 C 0.0531(2) 0.4905(3) 0.6306(2)
H65_3 H 0.0081 0.4824 0.5937
H66_3 H 0.0809 0.5158 0.6143
H67_3 H 0.0756 0.4489 0.6486
C40_3 C 0.1109(3) 0.5306(3) 0.7508(3)
H68_3 H 0.1180 0.4881 0.7729
H69_3 H 0.1491 0.5401 0.7402
H70_3 H 0.1080 0.5643 0.7805
H7_3 H 0.8694 0.1561 0.0071
Ag13_2 Ag 0.863047(17) 0.28678(2) 0.042736(15)
Ag1_3 Ag 0.941792(18) 0.190148(19) 0.807779(16)
Ag2_3 Ag 0.919747(19) 0.35929(2) 0.789100(16)
Ag5_3 Ag 0.73875(2) 0.26692(2) 0.509468(19)
Ag7_3 Ag 0.719299(17) 0.73328(2) 0.351124(16)
Ag8_2 Ag 0.636953(17) 0.78678(2) 0.457264(15)
N1_3 N 0.92129(18) 0.2471(2) 0.88047(16)
N2_3 N 0.90127(17) 0.31241(18) 0.86499(15)
N3_2 N 0.89499(18) 0.2853(2) 0.95906(15)
N4_3 N 0.94685(18) 0.09950(19) 0.75820(17)
N5_3 N 0.97541(18) 0.0993(2) 0.71418(17)
N7_3 N 0.89463(17) 0.26556(19) 0.70703(16)
N8_3 N 0.93452(17) 0.28036(19) 0.67336(16)
N9_3 N 0.82621(19) 0.2756(2) 0.59880(17)
N10_3 N 0.5637(2) 0.2714(2) 0.32264(19)
N12_3 N 0.6495(2) 0.2557(2) 0.42103(18)
N13_3 N 0.92581(16) 0.43754(19) 0.72724(16)
N14_3 N 0.98904(17) 0.4449(2) 0.72614(16)
N15_3 N 0.92682(17) 0.5335(2) 0.68078(16)
N16_3 N 0.76129(19) 0.7025(2) 0.46157(17)
N17_3 N 0.74645(19) 0.7462(2) 0.50056(17)
N18_3 N 0.83645(19) 0.68830(19) 0.56532(16)
N21_3 N 0.80320(17) 0.7320(2) 0.31885(17)
N22_3 N 0.61753(17) 0.7776(2) 0.31022(15)
N23_3 N 0.58800(17) 0.8031(2) 0.34833(15)
C1_3 C 0.9166(2) 0.2337(2) 0.9359(2)
C2_3 C 0.9364(3) 0.1676(3) 0.9692(3)
H1_3 H 0.9365 0.1429 0.9306
C4_3 C 0.8799(5) 0.1348(4) 0.9734(6)
H5_3 H 0.8400 0.1367 0.9300
H6_3 H 0.8921 0.0892 0.9860
C5_3 C 0.8874(2) 0.3332(2) 0.91549(18)
C6_3 C 0.8655(2) 0.4010(3) 0.9197(2)
H8_3 H 0.8481 0.4017 0.9544
C7_3 C 0.8067(3) 0.4229(4) 0.8532(3)
H9_3 H 0.7681 0.3930 0.8413
H10_3 H 0.7924 0.4670 0.8581
H11_3 H 0.8221 0.4224 0.8180
C8_3 C 0.9242(3) 0.4481(3) 0.9413(3)
H12_3 H 0.9373 0.4544 0.9049
H13_3 H 0.9105 0.4899 0.9528
H14_3 H 0.9631 0.4306 0.9804
C9_3 C 0.9379(3) 0.0394(3) 0.7699(2)
C10_3 C 0.9112(3) 0.0175(3) 0.8179(2)
H15_3 H 0.8852 0.0550 0.8241
C12_3 C 0.9675(4) 0.0033(4) 0.8842(3)
H19_3 H 0.9975 0.0412 0.9000
C13_3 C 0.9836(3) 0.0373(3) 0.7038(2)
C17_3 C 0.8319(2) 0.2619(3) 0.6620(2)
C18_3 C 0.7744(2) 0.2461(4) 0.6794(3)
H29_3 H 0.7959 0.2544 0.7286
C19_3 C 0.7567(4) 0.1815(4) 0.6767(5)
H30_3 H 0.7957 0.1566 0.7085
H31_3 H 0.7183 0.1770 0.6880
H32_3 H 0.7436 0.1648 0.6315
C20_3 C 0.7180(3) 0.2968(4) 0.6545(3)
H33_3 H 0.6943 0.2953 0.6056
H34_3 H 0.6855 0.2877 0.6729
H35_3 H 0.7377 0.3401 0.6687
C21_3 C 0.8908(2) 0.2864(2) 0.6100(2)
C22_3 C 0.9160(3) 0.3042(4) 0.5583(3)
H36_3 H 0.9660 0.3106 0.5861
C23_3 C 0.9138(5) 0.2503(5) 0.5144(3)
H37_3 H 0.8664 0.2420 0.4825
H38_3 H 0.9405 0.2616 0.4902
H39_3 H 0.9330 0.2112 0.5413
C24_3 C 0.8932(4) 0.3692(4) 0.5304(3)
H40_3 H 0.8969 0.3990 0.5661
H41_3 H 0.9219 0.3850 0.5097
H42_3 H 0.8457 0.3671 0.4967
C25_3 C 0.6178(2) 0.2985(3) 0.3710(2)
C26_3 C 0.6408(3) 0.3663(3) 0.3674(3)
H43_3 H 0.6028 0.3885 0.3294
C27_3 C 0.6551(5) 0.4049(4) 0.4288(4)
H44_3 H 0.6902 0.3829 0.4676
H45_3 H 0.6710 0.4484 0.4244
H46_3 H 0.6133 0.4087 0.4348
C28_3 C 0.7026(4) 0.3662(5) 0.3522(4)
H47_3 H 0.6956 0.3342 0.3171
H48_3 H 0.7083 0.4095 0.3370
H49_3 H 0.7435 0.3547 0.3926
C29_3 C 0.6126(2) 0.1997(3) 0.4018(2)
C30_3 C 0.6238(3) 0.1420(3) 0.4445(2)
H50_3 H 0.6742 0.1368 0.4707
C31_3 C 0.5945(4) 0.1526(3) 0.4945(3)
H51_3 H 0.5449 0.1568 0.4707
H52_3 H 0.6061 0.1155 0.5251
H53_3 H 0.6138 0.1925 0.5199
C32_3 C 0.5972(4) 0.0799(4) 0.4056(3)
H54_3 H 0.6261 0.0675 0.3840
H55_3 H 0.5979 0.0451 0.4361
H56_3 H 0.5504 0.0866 0.3716
C33_3 C 0.8906(2) 0.4899(2) 0.69979(19)
C34_3 C 0.8190(2) 0.4984(3) 0.6910(3)
H57_3 H 0.8081 0.4593 0.7112
C35_3 C 0.8091(3) 0.5564(3) 0.7262(4)
H58_3 H 0.7959 0.5939 0.6960
H59_3 H 0.7732 0.5473 0.7403
H60_3 H 0.8518 0.5662 0.7655
C36_3 C 0.7714(3) 0.4966(6) 0.6169(3)
H61_3 H 0.7859 0.4622 0.5955
H62_3 H 0.7248 0.4879 0.6106
H63_3 H 0.7728 0.5387 0.5968
C37_3 C 0.98635(19) 0.5007(3) 0.69722(19)
C41_3 C 0.8152(2) 0.6706(3) 0.5013(2)
C42_3 C 0.8501(3) 0.6207(3) 0.4750(3)
H71_3 H 0.8288 0.6266 0.4255
C43_3 C 0.8346(4) 0.5535(3) 0.4862(3)
H72_3 H 0.7856 0.5455 0.4610
H73_3 H 0.8599 0.5233 0.4713
H74_3 H 0.8480 0.5468 0.5339
C44_3 C 0.9237(3) 0.6332(4) 0.4978(3)
H75_3 H 0.9501 0.6045 0.5354
H76_3 H 0.9360 0.6246 0.4611
H77_3 H 0.9338 0.6787 0.5119
C45_3 C 0.7928(2) 0.7362(2) 0.5625(2)
C46_3 C 0.7965(3) 0.7773(3) 0.6192(2)
H78_3 H 0.7577 0.8087 0.6004
C47_3 C 0.7860(4) 0.7373(4) 0.6717(3)
H79_3 H 0.8168 0.6998 0.6845
H80_3 H 0.7956 0.7643 0.7111
H81_3 H 0.7387 0.7220 0.6533
C48_3 C 0.8605(4) 0.8169(3) 0.6483(4)
H82_3 H 0.8611 0.8469 0.6143
H83_3 H 0.8623 0.8418 0.6865
H84_3 H 0.9002 0.7880 0.6630
C49_3 C 0.8240(2) 0.6877(2) 0.2880(2)
C50_3 C 0.7828(3) 0.6296(3) 0.2483(3)
H85_3 H 0.8166 0.5996 0.2436
C51_3 C 0.7357(4) 0.6496(5) 0.1791(4)
H86_3 H 0.7602 0.6494 0.1513
H87_3 H 0.6974 0.6190 0.1607
H88_3 H 0.7184 0.6934 0.1799
C52_3 C 0.7495(4) 0.5903(4) 0.2844(4)
H89_3 H 0.7569 0.6124 0.3260
H90_3 H 0.7005 0.5866 0.2558
H91_3 H 0.7698 0.5468 0.2946
C53_3 C 0.8544(2) 0.7769(3) 0.3388(2)
C54_3 C 0.8582(3) 0.8375(3) 0.3759(3)
H92_3 H 0.8965 0.8626 0.3739
C55_3 C 0.7950(4) 0.8806(4) 0.3397(4)
H93_3 H 0.7539 0.8560 0.3327
H94_3 H 0.7984 0.9192 0.3669
H95_3 H 0.7924 0.8942 0.2965
C56_3 C 0.8777(4) 0.8299(4) 0.4482(3)
H96_3 H 0.9199 0.8045 0.4689
H97_3 H 0.8850 0.8730 0.4692
H98_3 H 0.8412 0.8074 0.4542
C57_3 C 0.5724(2) 0.7857(3) 0.24718(19)
C58_3 C 0.5843(3) 0.7608(3) 0.1888(2)
H99_3 H 0.6220 0.7288 0.2114
C59_3 C 0.6182(3) 0.8098(4) 0.1648(3)
H100_3 H 0.6570 0.8286 0.2030
H101_3 H 0.6343 0.7890 0.1347
H102_3 H 0.5857 0.8444 0.1408
C60_3 C 0.5319(4) 0.7201(3) 0.1426(3)
H103_3 H 0.5015 0.7461 0.1042
H104_3 H 0.5526 0.6854 0.1273
H105_3 H 0.5058 0.7008 0.1644
C61_3 C 0.52846(19) 0.8262(2) 0.30679(18)
C62_3 C 0.4786(2) 0.8596(3) 0.3268(2)
H106_3 H 0.4395 0.8738 0.2844
C63_3 C 0.5081(4) 0.9196(4) 0.3657(3)
H107_3 H 0.5289 0.9458 0.3427
H108_3 H 0.4720 0.9448 0.3699
H109_3 H 0.5430 0.9079 0.4102
C64_3 C 0.4499(3) 0.8125(4) 0.3595(3)
H110_3 H 0.4843 0.8034 0.4050
H111_3 H 0.4094 0.8315 0.3611
H112_3 H 0.4373 0.7720 0.3339
N25_2 N 0.60501(18) 0.7853(2) 0.54094(15)
C62_4 C 0.0214(2) 0.3596(3) 0.1732(2)
H106_4 H 0.0605 0.3738 0.2156
H108_4 H 0.0280 0.4448 0.1301
C64_4 C 0.0501(3) 0.3125(4) 0.1405(3)
H110_4 H 0.0157 0.3034 0.0950
H111_4 H 0.0906 0.3315 0.1389
H112_4 H 0.0627 0.2720 0.1661
Ag7_4 Ag 0.780701(17) 0.23328(2) 0.148876(16)
N16_4 N 0.73871(19) 0.2025(2) 0.03843(17)
N21_4 N 0.69680(17) 0.2320(2) 0.18115(17)
N22_4 N 0.88247(17) 0.2776(2) 0.18978(15)
N23_4 N 0.91200(17) 0.3031(2) 0.15167(15)
C42_4 C 0.6499(3) 0.1207(3) 0.0250(3)
H71_4 H 0.6712 0.1266 0.0745
C43_4 C 0.6654(4) 0.0535(3) 0.0138(3)
H72_4 H 0.7144 0.0455 0.0390
H73_4 H 0.6401 0.0233 0.0287
C44_4 C 0.5763(3) 0.1332(4) 0.0022(3)
H76_4 H 0.5640 0.1246 0.0389
C49_4 C 0.6760(2) 0.1877(2) 0.2120(2)
C50_4 C 0.7172(3) 0.1296(3) 0.2517(3)
H85_4 H 0.6834 0.0996 0.2564
C51_4 C 0.7643(4) 0.1496(5) 0.3209(4)
H86_4 H 0.7398 0.1494 0.3487
H87_4 H 0.8026 0.1190 0.3393
H88_4 H 0.7816 0.1934 0.3201
C52_4 C 0.7505(4) 0.0903(4) 0.2156(4)
H89_4 H 0.7431 0.1124 0.1740
H90_4 H 0.7995 0.0866 0.2442
H91_4 H 0.7302 0.0468 0.2054
C53_4 C 0.6456(2) 0.2769(3) 0.1612(2)
C54_4 C 0.6418(3) 0.3375(3) 0.1241(3)
H92_4 H 0.6035 0.3626 0.1261
C55_4 C 0.7050(4) 0.3806(4) 0.1603(4)
H93_4 H 0.7461 0.3560 0.1673
H94_4 H 0.7016 0.4192 0.1331
H95_4 H 0.7076 0.3942 0.2035
C56_4 C 0.6223(4) 0.3299(4) 0.0518(3)
H96_4 H 0.5801 0.3045 0.0311
H97_4 H 0.6150 0.3730 0.0308
H98_4 H 0.6588 0.3074 0.0458
C57_4 C 0.9276(2) 0.2857(3) 0.25282(19)
C58_4 C 0.9157(3) 0.2608(3) 0.3112(2)
H99_4 H 0.8780 0.2288 0.2886
C59_4 C 0.8818(3) 0.3098(4) 0.3352(3)
H100_4 H 0.8430 0.3286 0.2970
H101_4 H 0.8657 0.2890 0.3653
H102_4 H 0.9143 0.3444 0.3592
C60_4 C 0.9681(4) 0.2201(3) 0.3574(3)
H103_4 H 0.9985 0.2461 0.3958
H104_4 H 0.9474 0.1854 0.3727
H105_4 H 0.9942 0.2008 0.3356
C61_4 C 0.97154(19) 0.3262(2) 0.19321(18)
C63_4 C 0.9919(4) 0.4196(4) 0.1343(3)
H107_4 H 0.9711 0.4458 0.1573
H109_4 H 0.9570 0.4079 0.0898
N15_4 N 0.57318(17) 0.0335(2) 0.81922(16)
N17_4 N 0.75355(19) 0.2462(2) 0.99944(17)
N18_4 N 0.66355(19) 0.18830(19) 0.93468(16)
C35_4 C 0.6909(3) 0.0564(3) 0.7738(4)
H58_4 H 0.7041 0.0939 0.8040
H59_4 H 0.7268 0.0473 0.7597
H60_4 H 0.6482 0.0662 0.7345
H63_4 H 0.7272 0.0387 0.9032
C37_4 C 0.51365(19) 0.0007(3) 0.80278(19)
C38_4 C 0.4555(2) 0.0292(3) 0.8137(2)
H64_4 H 0.4676 0.0751 0.8294
H66_4 H 0.4191 0.0158 0.8857
C40_4 C 0.3891(3) 0.0306(3) 0.7492(3)
H69_4 H 0.3509 0.0401 0.7598
H70_4 H 0.3920 0.0643 0.7195
C41_4 C 0.6848(2) 0.1706(3) 0.9987(2)
H74_4 H 0.6520 0.0468 0.9661
H75_4 H 0.5499 0.1045 0.9646
H77_4 H 0.5662 0.1787 0.9881
C45_4 C 0.7072(2) 0.2362(2) 0.9375(2)
C46_4 C 0.7035(3) 0.2773(3) 0.8808(2)
H78_4 H 0.7423 0.3087 0.8996
C47_4 C 0.7140(4) 0.2373(4) 0.8283(3)
H79_4 H 0.6832 0.1998 0.8155
H80_4 H 0.7044 0.2643 0.7889
H81_4 H 0.7613 0.2220 0.8467
C48_4 C 0.6395(4) 0.3169(3) 0.8517(4)
H82_4 H 0.6389 0.3469 0.8857
H83_4 H 0.6377 0.3418 0.8135
H84_4 H 0.5998 0.2880 0.8370
N10_4 N 0.9363(2) 0.7714(2) 0.17736(19)
N12_4 N 0.8505(2) 0.7557(2) 0.07897(18)
H37_4 H 0.6336 0.7420 0.0175
H38_4 H 0.5595 0.7616 0.0098
H42_4 H 0.6543 0.8671 0.0033
C25_4 C 0.8822(2) 0.7985(3) 0.1290(2)
C26_4 C 0.8592(3) 0.8663(3) 0.1326(3)
H43_4 H 0.8972 0.8885 0.1706
C27_4 C 0.8449(5) 0.9049(4) 0.0712(4)
H44_4 H 0.8098 0.8829 0.0324
H45_4 H 0.8290 0.9484 0.0756
H46_4 H 0.8867 0.9087 0.0652
C28_4 C 0.7974(4) 0.8662(5) 0.1478(4)
H47_4 H 0.8044 0.8342 0.1829
H48_4 H 0.7917 0.9095 0.1630
H49_4 H 0.7565 0.8547 0.1074
C29_4 C 0.8874(2) 0.6997(3) 0.0982(2)
C30_4 C 0.8762(3) 0.6420(3) 0.0555(2)
H50_4 H 0.8258 0.6368 0.0293
C31_4 C 0.9055(4) 0.6526(3) 0.0055(3)
H51_4 H 0.9551 0.6568 0.0293
C32_4 C 0.9028(4) 0.5799(4) 0.0944(3)
H54_4 H 0.8739 0.5675 0.1160
H55_4 H 0.9021 0.5451 0.0639
H56_4 H 0.9496 0.5866 0.1284
Ag1_4 Ag 0.558208(18) 0.690148(19) 0.692221(16)
Ag2_4 Ag 0.580253(19) 0.85929(2) 0.710900(16)
Ag5_4 Ag 0.76125(2) 0.76692(2) 0.990532(19)
N1_4 N 0.57871(18) 0.7471(2) 0.61953(16)
N2_4 N 0.59873(17) 0.81241(18) 0.63501(15)
N4_4 N 0.55315(18) 0.59950(19) 0.74180(17)
N5_4 N 0.52459(18) 0.5993(2) 0.78582(17)
N6_3 N 0.5407(2) 0.4974(2) 0.7659(2)
N7_4 N 0.60537(17) 0.76556(19) 0.79297(16)
N8_4 N 0.56548(17) 0.78036(19) 0.82664(16)
N9_4 N 0.67379(19) 0.7756(2) 0.90120(17)
N13_4 N 0.57419(16) 0.93754(19) 0.77276(16)
N14_4 N 0.51096(17) 0.9449(2) 0.77386(16)
C1_4 C 0.5834(2) 0.7337(2) 0.5641(2)
C2_4 C 0.5636(3) 0.6676(3) 0.5308(3)
H1_4 H 0.5635 0.6429 0.5694
C3_2 C 0.4989(5) 0.6618(5) 0.4901(7)
H2_2 H 0.4822 0.6196 0.4974
H3_2 H 0.4733 0.6968 0.4986
H4_2 H 0.4927 0.6645 0.4439
C4_4 C 0.6201(5) 0.6348(4) 0.5266(6)
H5_4 H 0.6600 0.6367 0.5700
H6_4 H 0.6079 0.5892 0.5140
H7_4 H 0.6306 0.6561 0.4929
C5_4 C 0.6126(2) 0.8332(2) 0.58451(18)
C6_4 C 0.6345(2) 0.9010(3) 0.5803(2)
H8_4 H 0.6519 0.9017 0.5456
C7_4 C 0.6933(3) 0.9229(4) 0.6468(3)
H9_4 H 0.7319 0.8930 0.6587
H10_4 H 0.7076 0.9670 0.6419
H11_4 H 0.6779 0.9224 0.6820
C8_4 C 0.5758(3) 0.9481(3) 0.5587(3)
H12_4 H 0.5627 0.9544 0.5951
H13_4 H 0.5895 0.9899 0.5472
H14_4 H 0.5369 0.9306 0.5196
C9_4 C 0.5621(3) 0.5394(3) 0.7301(2)
C10_4 C 0.5888(3) 0.5175(3) 0.6821(2)
H15_4 H 0.6148 0.5550 0.6759
C11_3 C 0.6402(4) 0.4617(4) 0.7130(4)
H16_3 H 0.6192 0.4273 0.7283
H17_3 H 0.6533 0.4440 0.6794
H18_3 H 0.6808 0.4783 0.7509
C12_4 C 0.5325(4) 0.5033(4) 0.6158(3)
H19_4 H 0.5025 0.5412 0.6000
H20_3 H 0.5513 0.4932 0.5842
H21_3 H 0.5063 0.4659 0.6193
C13_4 C 0.5164(3) 0.5373(3) 0.7962(2)
C14_4 C 0.4858(3) 0.5176(4) 0.8443(3)
H22_4 H 0.4872 0.5574 0.8707
C15_4 C 0.4116(4) 0.5007(6) 0.8047(4)
H23_2 H 0.4077 0.4578 0.7842
H24_4 H 0.3892 0.5000 0.8344
H25_4 H 0.3898 0.5334 0.7698
C16_3 C 0.5255(4) 0.4679(4) 0.8929(4)
H26_3 H 0.5625 0.4888 0.9311
H27_2 H 0.4959 0.4443 0.9080
H28_3 H 0.5448 0.4374 0.8719
C17_4 C 0.6681(2) 0.7619(3) 0.8380(2)
C18_4 C 0.7256(2) 0.7461(4) 0.8206(3)
H29_4 H 0.7041 0.7544 0.7714
C19_4 C 0.7433(4) 0.6815(4) 0.8233(5)
H30_4 H 0.7043 0.6566 0.7915
H31_4 H 0.7817 0.6770 0.8120
H32_4 H 0.7564 0.6648 0.8685
C20_4 C 0.7820(3) 0.7968(4) 0.8455(3)
H33_4 H 0.8057 0.7953 0.8944
H34_4 H 0.8145 0.7877 0.8271
H35_4 H 0.7623 0.8401 0.8313
C21_4 C 0.6092(2) 0.7864(2) 0.8900(2)
C22_4 C 0.5840(3) 0.8042(4) 0.9417(3)
H36_4 H 0.5340 0.8106 0.9139
C23_4 C 0.5862(5) 0.7503(5) 0.9856(3)
H39_4 H 0.5670 0.7112 0.9587
C24_4 C 0.6068(4) 0.8692(4) 0.9696(3)
H40_4 H 0.6031 0.8990 0.9339
H41_4 H 0.5781 0.8850 0.9903
H52_4 H 0.8939 0.6155 0.9749
H53_4 H 0.8862 0.6925 0.9801
C33_4 C 0.6094(2) 0.9899(2) 0.80021(19)
C34_4 C 0.6810(2) 0.9984(3) 0.8090(3)
H57_4 H 0.6919 0.9593 0.7888
C36_4 C 0.7286(3) 0.9966(6) 0.8831(3)
H61_4 H 0.7141 0.9622 0.9045
H62_4 H 0.7752 0.9879 0.8894
C39_4 C 0.4469(2) 0.9905(3) 0.8694(2)
H65_4 H 0.4919 0.9824 0.9063
H67_4 H 0.4244 0.9489 0.8514
H68_4 H 0.3820 0.9881 0.7271
H23_3 H 0.9077 0.0422 0.2842
H24_5 H 0.8892 -0.0000 0.3344
H27_3 H 0.9959 0.0557 0.4080
C3_3 C 0.9989(5) 0.8382(5) 0.9901(7)
H2_3 H 0.9822 0.8804 0.9974
H3_3 H 0.9733 0.8032 0.9986
H4_3 H 0.9927 0.8355 0.9439
C3_4 C 0.0011(5) 0.1618(5) 0.0099(7)
H2_4 H 0.0178 0.1196 0.0026
H3_4 H 0.0267 0.1968 0.0014
H4_4 H 0.0073 0.1645 0.0561
H23_4 H 0.0923 0.9578 0.7158
H24_6 H 0.1108 1.0000 0.6656
H27_4 H 0.0041 0.9443 0.5920
N6_4 N 0.9593(2) 0.9974(2) 0.7341(2)
C11_4 C 0.8598(4) 0.9617(4) 0.7870(4)
H16_4 H 0.8808 0.9273 0.7717
H17_4 H 0.8467 0.9440 0.8206
H18_4 H 0.8192 0.9783 0.7491
H20_4 H 0.9487 0.9932 0.9158
H21_4 H 0.9937 0.9659 0.8807
C16_4 C 0.9745(4) 0.9679(4) 0.6071(4)
H26_4 H 0.9375 0.9888 0.5689
H28_4 H 0.9552 0.9374 0.6281
loop_
_geom_bond_atom_site_label_1
_geom_bond_atom_site_label_2
_geom_bond_site_symmetry_1
_geom_bond_site_symmetry_2
H16 C11 1_555 1_555
H17 C11 1_555 1_555
H18 C11 1_555 1_555
H26 C16 1_555 1_555
H28 C16 1_555 1_555
Ag1 N1 1_555 1_555
Ag2 N2 1_555 1_555
Ag5 N9 1_555 1_555
Ag6 N15 1_555 1_555
Ag7 N16 1_555 1_555
Ag8 N17 1_555 1_555
N1 N2 1_555 1_555
N2 C5 1_555 1_555
N3 C1 1_555 1_555
N4 Ag1 1_555 1_555
N5 N4 1_555 1_555
N7 Ag1 1_555 1_555
N8 N7 1_555 1_555
N9 C17 1_555 1_555
N10 N11 1_555 1_555
N11 C29 1_555 1_555
N12 Ag5 1_555 1_555
N13 Ag2 1_555 1_555
N14 N13 1_555 1_555
N15 C33 1_555 1_555
N16 N17 1_555 1_555
N17 C45 1_555 1_555
N18 Ag6 1_555 1_555
N19 N20 1_555 1_555
N20 C53 1_555 1_555
N21 Ag7 1_555 1_555
N22 Ag7 1_555 1_555
N23 Ag8 1_555 1_555
N24 C57 1_555 1_555
C1 N1 1_555 1_555
C2 C1 1_555 1_555
H1 C2 1_555 1_555
C4 C2 1_555 1_555
H5 C4 1_555 1_555
H6 C4 1_555 1_555
C5 N3 1_555 1_555
C6 C5 1_555 1_555
H8 C6 1_555 1_555
C7 C6 1_555 1_555
H9 C7 1_555 1_555
H10 C7 1_555 1_555
H11 C7 1_555 1_555
C8 C6 1_555 1_555
H12 C8 1_555 1_555
H13 C8 1_555 1_555
H14 C8 1_555 1_555
C9 N4 1_555 1_555
C10 C9 1_555 1_555
H15 C10 1_555 1_555
C12 C10 1_555 1_555
H19 C12 1_555 1_555
C13 N5 1_555 1_555
C17 N7 1_555 1_555
C18 C17 1_555 1_555
H29 C18 1_555 1_555
C19 C18 1_555 1_555
H30 C19 1_555 1_555
H31 C19 1_555 1_555
H32 C19 1_555 1_555
C20 C18 1_555 1_555
H33 C20 1_555 1_555
H34 C20 1_555 1_555
H35 C20 1_555 1_555
C21 N8 1_555 1_555
C22 C21 1_555 1_555
H36 C22 1_555 1_555
C23 C22 1_555 1_555
H37 C23 1_555 1_555
H38 C23 1_555 1_555
H39 C23 1_555 1_555
C24 C22 1_555 1_555
H40 C24 1_555 1_555
H41 C24 1_555 1_555
H42 C24 1_555 1_555
C25 N10 1_555 1_555
C26 C25 1_555 1_555
H43 C26 1_555 1_555
C27 C26 1_555 1_555
H44 C27 1_555 1_555
H45 C27 1_555 1_555
H46 C27 1_555 1_555
C28 C26 1_555 1_555
H47 C28 1_555 1_555
H48 C28 1_555 1_555
H49 C28 1_555 1_555
C29 N12 1_555 1_555
C30 C29 1_555 1_555
H50 C30 1_555 1_555
C31 C30 1_555 1_555
H51 C31 1_555 1_555
H52 C31 1_555 1_555
H53 C31 1_555 1_555
C32 C30 1_555 1_555
H54 C32 1_555 1_555
H55 C32 1_555 1_555
H56 C32 1_555 1_555
C33 N13 1_555 1_555
C34 C33 1_555 1_555
H57 C34 1_555 1_555
C35 C34 1_555 1_555
H58 C35 1_555 1_555
H59 C35 1_555 1_555
H60 C35 1_555 1_555
C36 C34 1_555 1_555
H61 C36 1_555 1_555
H62 C36 1_555 1_555
H63 C36 1_555 1_555
C37 N14 1_555 1_555
C41 N16 1_555 1_555
C42 C41 1_555 1_555
H71 C42 1_555 1_555
C43 C42 1_555 1_555
H72 C43 1_555 1_555
H73 C43 1_555 1_555
H74 C43 1_555 1_555
C44 C42 1_555 1_555
H75 C44 1_555 1_555
H76 C44 1_555 1_555
H77 C44 1_555 1_555
C45 N18 1_555 1_555
C46 C45 1_555 1_555
H78 C46 1_555 1_555
C47 C46 1_555 1_555
H79 C47 1_555 1_555
H80 C47 1_555 1_555
H81 C47 1_555 1_555
C48 C46 1_555 1_555
H82 C48 1_555 1_555
H83 C48 1_555 1_555
H84 C48 1_555 1_555
C49 N19 1_555 1_555
C50 C49 1_555 1_555
H85 C50 1_555 1_555
C51 C50 1_555 1_555
H86 C51 1_555 1_555
H87 C51 1_555 1_555
H88 C51 1_555 1_555
C52 C50 1_555 1_555
H89 C52 1_555 1_555
H90 C52 1_555 1_555
H91 C52 1_555 1_555
C53 N21 1_555 1_555
C54 C53 1_555 1_555
H92 C54 1_555 1_555
C55 C54 1_555 1_555
H93 C55 1_555 1_555
H94 C55 1_555 1_555
H95 C55 1_555 1_555
C56 C54 1_555 1_555
H96 C56 1_555 1_555
H97 C56 1_555 1_555
H98 C56 1_555 1_555
C57 N22 1_555 1_555
C58 C57 1_555 1_555
H99 C58 1_555 1_555
C59 C58 1_555 1_555
H100 C59 1_555 1_555
H101 C59 1_555 1_555
H102 C59 1_555 1_555
C60 C58 1_555 1_555
H103 C60 1_555 1_555
H104 C60 1_555 1_555
H105 C60 1_555 1_555
C61 N23 1_555 1_555
C62 C61 1_555 1_555
H106 C62 1_555 1_555
C63 C62 1_555 1_555
H107 C63 1_555 1_555
H108 C63 1_555 1_555
H109 C63 1_555 1_555
C64 C62 1_555 1_555
H110 C64 1_555 1_555
H111 C64 1_555 1_555
H112 C64 1_555 1_555
Ag9 N20 1_555 1_555
Ag10 N19 1_555 1_555
Ag11 N11 1_555 1_555
Ag12 N24 1_555 1_555
N25 Ag8 1_555 1_555
Ag2 N7 1_555 1_555
N9 C21 1_555 1_555
N12 C25 1_555 1_555
N15 C37 1_555 1_555
N18 C41 1_555 1_555
N21 C49 1_555 1_555
N22 N23 1_555 1_555
N24 C61 1_555 1_555
H22 C14 1_555 1_555
C15 C14 1_555 1_555
H24 C15 1_555 1_555
H25 C15 1_555 1_555
H64 C38 1_555 1_555
C39 C38 1_555 1_555
H65 C39 1_555 1_555
H66 C39 1_555 1_555
H67 C39 1_555 1_555
C40 C38 1_555 1_555
H68 C40 1_555 1_555
H69 C40 1_555 1_555
H70 C40 1_555 1_555
N26 Ag4 1_555 1_555
N27 Ag4 1_555 1_555
N28 Ag3 1_555 1_555
N27 N28 1_555 1_555
Ag1_2 N1_2 1_555 1_555
Ag2_2 N2_2 1_555 1_555
Ag3_2 N5_2 1_555 1_555
Ag4_2 N14_2 1_555 1_555
Ag5_2 N9_2 1_555 1_555
N1_2 N2_2 1_555 1_555
N2_2 C5_2 1_555 1_555
N25 C1_2 1_555 1_555
N4_2 Ag1_2 1_555 1_555
N5_2 N4_2 1_555 1_555
N6_2 C9_2 1_555 1_555
N7_2 Ag1_2 1_555 1_555
N8_2 N7_2 1_555 1_555
N9_2 C17_2 1_555 1_555
N13_2 Ag2_2 1_555 1_555
N14_2 N13_2 1_555 1_555
C1_2 N1_2 1_555 1_555
C2_2 C1_2 1_555 1_555
H1_2 C2_2 1_555 1_555
C3 C2_2 1_555 1_555
H2 C3 1_555 1_555
H3 C3 1_555 1_555
H4 C3 1_555 1_555
C4_2 C2_2 1_555 1_555
H5_2 C4_2 1_555 1_555
H6_2 C4_2 1_555 1_555
H7_2 C4_2 1_555 1_555
C5_2 N25 1_555 1_555
C6_2 C5_2 1_555 1_555
H8_2 C6_2 1_555 1_555
C7_2 C6_2 1_555 1_555
H9_2 C7_2 1_555 1_555
H10_2 C7_2 1_555 1_555
H11_2 C7_2 1_555 1_555
C8_2 C6_2 1_555 1_555
H12_2 C8_2 1_555 1_555
H13_2 C8_2 1_555 1_555
H14_2 C8_2 1_555 1_555
C9_2 N4_2 1_555 1_555
C10_2 C9_2 1_555 1_555
H15_2 C10_2 1_555 1_555
C11_2 C10_2 1_555 1_555
H16_2 C11_2 1_555 1_555
H17_2 C11_2 1_555 1_555
H18_2 C11_2 1_555 1_555
C12_2 C10_2 1_555 1_555
H19_2 C12_2 1_555 1_555
H20_2 C12_2 1_555 1_555
H21_2 C12_2 1_555 1_555
C13_2 N5_2 1_555 1_555
C14_2 C13_2 1_555 1_555
H22_2 C14_2 1_555 1_555
C15_2 C14_2 1_555 1_555
H23 C15_2 1_555 1_555
H24_2 C15_2 1_555 1_555
H25_2 C15_2 1_555 1_555
C16_2 C14_2 1_555 1_555
H26_2 C16_2 1_555 1_555
H27 C16_2 1_555 1_555
H28_2 C16_2 1_555 1_555
C17_2 N7_2 1_555 1_555
C18_2 C17_2 1_555 1_555
H29_2 C18_2 1_555 1_555
C19_2 C18_2 1_555 1_555
H30_2 C19_2 1_555 1_555
H31_2 C19_2 1_555 1_555
H32_2 C19_2 1_555 1_555
C20_2 C18_2 1_555 1_555
H33_2 C20_2 1_555 1_555
H34_2 C20_2 1_555 1_555
H35_2 C20_2 1_555 1_555
C21_2 N8_2 1_555 1_555
C22_2 C21_2 1_555 1_555
H36_2 C22_2 1_555 1_555
C23_2 C22_2 1_555 1_555
H39_2 C23_2 1_555 1_555
C24_2 C22_2 1_555 1_555
H40_2 C24_2 1_555 1_555
H41_2 C24_2 1_555 1_555
C33_2 N13_2 1_555 1_555
C34_2 C33_2 1_555 1_555
H57_2 C34_2 1_555 1_555
C36_2 C34_2 1_555 1_555
H61_2 C36_2 1_555 1_555
H62_2 C36_2 1_555 1_555
H65_2 C39_2 1_555 1_555
H67_2 C39_2 1_555 1_555
N26_2 Ag4_2 1_555 1_555
N27_2 Ag4_2 1_555 1_555
N28_2 Ag3_2 1_555 1_555
Ag2_2 N7_2 1_555 1_555
N6_2 C13_2 1_555 1_555
N9_2 C21_2 1_555 1_555
N27_2 N28_2 1_555 1_555
N10_2 N11_2 1_555 1_555
N11_2 C29_2 1_555 1_555
C25_2 N10_2 1_555 1_555
C26_2 C25_2 1_555 1_555
H43_2 C26_2 1_555 1_555
C27_2 C26_2 1_555 1_555
H44_2 C27_2 1_555 1_555
H45_2 C27_2 1_555 1_555
H46_2 C27_2 1_555 1_555
C28_2 C26_2 1_555 1_555
H47_2 C28_2 1_555 1_555
H48_2 C28_2 1_555 1_555
H49_2 C28_2 1_555 1_555
C29_2 N12_2 1_555 1_555
C30_2 C29_2 1_555 1_555
H50_2 C30_2 1_555 1_555
C31_2 C30_2 1_555 1_555
H51_2 C31_2 1_555 1_555
C32_2 C30_2 1_555 1_555
H54_2 C32_2 1_555 1_555
H55_2 C32_2 1_555 1_555
H56_2 C32_2 1_555 1_555
Ag10 N11_2 1_555 1_555
N12_2 C25_2 1_555 1_555
Ag6_2 N15_2 1_555 1_555
N17_2 C45_2 1_555 1_555
N18_2 Ag6_2 1_555 1_555
H58_2 C35_2 1_555 1_555
H59_2 C35_2 1_555 1_555
H60_2 C35_2 1_555 1_555
C38_2 C37_2 1_555 1_555
H64_2 C38_2 1_555 1_555
C40_2 C38_2 1_555 1_555
H69_2 C40_2 1_555 1_555
H70_2 C40_2 1_555 1_555
C45_2 N18_2 1_555 1_555
C46_2 C45_2 1_555 1_555
H78_2 C46_2 1_555 1_555
C47_2 C46_2 1_555 1_555
H79_2 C47_2 1_555 1_555
H80_2 C47_2 1_555 1_555
H81_2 C47_2 1_555 1_555
C48_2 C46_2 1_555 1_555
H82_2 C48_2 1_555 1_555
H83_2 C48_2 1_555 1_555
H84_2 C48_2 1_555 1_555
N29_2 Ag6_2 1_555 1_555
N15_2 C37_2 1_555 1_555
N18_2 C41_2 1_555 1_555
Ag7_2 N16_2 1_555 1_555
N19_2 N20_2 1_555 1_555
N20_2 C53_2 1_555 1_555
N21_2 Ag7_2 1_555 1_555
N22_2 Ag7_2 1_555 1_555
N23_2 Ag13 1_555 1_555
N24_2 C57_2 1_555 1_555
H71_2 C42_2 1_555 1_555
C43_2 C42_2 1_555 1_555
H72_2 C43_2 1_555 1_555
H73_2 C43_2 1_555 1_555
C44_2 C42_2 1_555 1_555
H76_2 C44_2 1_555 1_555
C49_2 N19_2 1_555 1_555
C50_2 C49_2 1_555 1_555
H85_2 C50_2 1_555 1_555
C51_2 C50_2 1_555 1_555
H86_2 C51_2 1_555 1_555
H87_2 C51_2 1_555 1_555
H88_2 C51_2 1_555 1_555
C52_2 C50_2 1_555 1_555
H89_2 C52_2 1_555 1_555
H90_2 C52_2 1_555 1_555
H91_2 C52_2 1_555 1_555
C53_2 N21_2 1_555 1_555
C54_2 C53_2 1_555 1_555
H92_2 C54_2 1_555 1_555
C55_2 C54_2 1_555 1_555
H93_2 C55_2 1_555 1_555
H94_2 C55_2 1_555 1_555
H95_2 C55_2 1_555 1_555
C56_2 C54_2 1_555 1_555
H96_2 C56_2 1_555 1_555
H97_2 C56_2 1_555 1_555
H98_2 C56_2 1_555 1_555
C57_2 N22_2 1_555 1_555
C58_2 C57_2 1_555 1_555
H99_2 C58_2 1_555 1_555
C59_2 C58_2 1_555 1_555
H100_2 C59_2 1_555 1_555
H101_2 C59_2 1_555 1_555
H102_2 C59_2 1_555 1_555
C60_2 C58_2 1_555 1_555
H103_2 C60_2 1_555 1_555
H104_2 C60_2 1_555 1_555
H105_2 C60_2 1_555 1_555
C61_2 N23_2 1_555 1_555
H107_2 C63_2 1_555 1_555
H109_2 C63_2 1_555 1_555
Ag9_2 N20_2 1_555 1_555
Ag11 N19_2 1_555 1_555
N21_2 C49_2 1_555 1_555
N22_2 N23_2 1_555 1_555
N24_2 C61_2 1_555 1_555
H106_2 C62_2 1_555 1_555
C64_2 C62_2 1_555 1_555
H110_2 C64_2 1_555 1_555
H111_2 C64_2 1_555 1_555
H112_2 C64_2 1_555 1_555
H22_3 C14_3 1_555 1_555
C15_3 C14_3 1_555 1_555
H24_3 C15_3 1_555 1_555
H25_3 C15_3 1_555 1_555
H64_3 C38_3 1_555 1_555
C39_3 C38_3 1_555 1_555
H65_3 C39_3 1_555 1_555
H66_3 C39_3 1_555 1_555
H67_3 C39_3 1_555 1_555
C40_3 C38_3 1_555 1_555
H68_3 C40_3 1_555 1_555
H69_3 C40_3 1_555 1_555
H70_3 C40_3 1_555 1_555
Ag1_3 N1_3 1_555 1_555
Ag2_3 N2_3 1_555 1_555
Ag5_3 N9_3 1_555 1_555
Ag12_2 N15_3 1_555 1_555
Ag7_3 N16_3 1_555 1_555
Ag8_2 N17_3 1_555 1_555
N1_3 N2_3 1_555 1_555
N2_3 C5_3 1_555 1_555
N3_2 C1_3 1_555 1_555
N4_3 Ag1_3 1_555 1_555
N5_3 N4_3 1_555 1_555
N7_3 Ag1_3 1_555 1_555
N8_3 N7_3 1_555 1_555
N9_3 C17_3 1_555 1_555
N10_3 N26_2 1_555 1_555
N26_2 C29_3 1_555 1_555
N12_3 Ag5_3 1_555 1_555
N13_3 Ag2_3 1_555 1_555
N14_3 N13_3 1_555 1_555
N15_3 C33_3 1_555 1_555
N16_3 N17_3 1_555 1_555
N17_3 C45_3 1_555 1_555
N18_3 Ag12_2 1_555 1_555
N28 C53_3 1_555 1_555
N21_3 Ag7_3 1_555 1_555
N22_3 Ag7_3 1_555 1_555
N23_3 Ag8_2 1_555 1_555
N29_2 C57_3 1_555 1_555
C1_3 N1_3 1_555 1_555
C2_3 C1_3 1_555 1_555
H1_3 C2_3 1_555 1_555
C4_3 C2_3 1_555 1_555
H5_3 C4_3 1_555 1_555
H6_3 C4_3 1_555 1_555
C5_3 N3_2 1_555 1_555
C6_3 C5_3 1_555 1_555
H8_3 C6_3 1_555 1_555
C7_3 C6_3 1_555 1_555
H9_3 C7_3 1_555 1_555
H10_3 C7_3 1_555 1_555
H11_3 C7_3 1_555 1_555
C8_3 C6_3 1_555 1_555
H12_3 C8_3 1_555 1_555
H13_3 C8_3 1_555 1_555
H14_3 C8_3 1_555 1_555
C9_3 N4_3 1_555 1_555
C10_3 C9_3 1_555 1_555
H15_3 C10_3 1_555 1_555
C12_3 C10_3 1_555 1_555
H19_3 C12_3 1_555 1_555
C13_3 N5_3 1_555 1_555
C17_3 N7_3 1_555 1_555
C18_3 C17_3 1_555 1_555
H29_3 C18_3 1_555 1_555
C19_3 C18_3 1_555 1_555
H30_3 C19_3 1_555 1_555
H31_3 C19_3 1_555 1_555
H32_3 C19_3 1_555 1_555
C20_3 C18_3 1_555 1_555
H33_3 C20_3 1_555 1_555
H34_3 C20_3 1_555 1_555
H35_3 C20_3 1_555 1_555
C21_3 N8_3 1_555 1_555
C22_3 C21_3 1_555 1_555
H36_3 C22_3 1_555 1_555
C23_3 C22_3 1_555 1_555
H37_3 C23_3 1_555 1_555
H38_3 C23_3 1_555 1_555
H39_3 C23_3 1_555 1_555
C24_3 C22_3 1_555 1_555
H40_3 C24_3 1_555 1_555
H41_3 C24_3 1_555 1_555
H42_3 C24_3 1_555 1_555
C25_3 N10_3 1_555 1_555
C26_3 C25_3 1_555 1_555
H43_3 C26_3 1_555 1_555
C27_3 C26_3 1_555 1_555
H44_3 C27_3 1_555 1_555
H45_3 C27_3 1_555 1_555
H46_3 C27_3 1_555 1_555
C28_3 C26_3 1_555 1_555
H47_3 C28_3 1_555 1_555
H48_3 C28_3 1_555 1_555
H49_3 C28_3 1_555 1_555
C29_3 N12_3 1_555 1_555
C30_3 C29_3 1_555 1_555
H50_3 C30_3 1_555 1_555
C31_3 C30_3 1_555 1_555
H51_3 C31_3 1_555 1_555
H52_3 C31_3 1_555 1_555
H53_3 C31_3 1_555 1_555
C32_3 C30_3 1_555 1_555
H54_3 C32_3 1_555 1_555
H55_3 C32_3 1_555 1_555
H56_3 C32_3 1_555 1_555
C33_3 N13_3 1_555 1_555
C34_3 C33_3 1_555 1_555
H57_3 C34_3 1_555 1_555
C35_3 C34_3 1_555 1_555
H58_3 C35_3 1_555 1_555
H59_3 C35_3 1_555 1_555
H60_3 C35_3 1_555 1_555
C36_3 C34_3 1_555 1_555
H61_3 C36_3 1_555 1_555
H62_3 C36_3 1_555 1_555
H63_3 C36_3 1_555 1_555
C37_3 N14_3 1_555 1_555
C41_3 N16_3 1_555 1_555
C42_3 C41_3 1_555 1_555
H71_3 C42_3 1_555 1_555
C43_3 C42_3 1_555 1_555
H72_3 C43_3 1_555 1_555
H73_3 C43_3 1_555 1_555
H74_3 C43_3 1_555 1_555
C44_3 C42_3 1_555 1_555
H75_3 C44_3 1_555 1_555
H76_3 C44_3 1_555 1_555
H77_3 C44_3 1_555 1_555
C45_3 N18_3 1_555 1_555
C46_3 C45_3 1_555 1_555
H78_3 C46_3 1_555 1_555
C47_3 C46_3 1_555 1_555
H79_3 C47_3 1_555 1_555
H80_3 C47_3 1_555 1_555
H81_3 C47_3 1_555 1_555
C48_3 C46_3 1_555 1_555
H82_3 C48_3 1_555 1_555
H83_3 C48_3 1_555 1_555
H84_3 C48_3 1_555 1_555
C49_3 N27 1_555 1_555
C50_3 C49_3 1_555 1_555
H85_3 C50_3 1_555 1_555
C51_3 C50_3 1_555 1_555
H86_3 C51_3 1_555 1_555
H87_3 C51_3 1_555 1_555
H88_3 C51_3 1_555 1_555
C52_3 C50_3 1_555 1_555
H89_3 C52_3 1_555 1_555
H90_3 C52_3 1_555 1_555
H91_3 C52_3 1_555 1_555
C53_3 N21_3 1_555 1_555
C54_3 C53_3 1_555 1_555
H92_3 C54_3 1_555 1_555
C55_3 C54_3 1_555 1_555
H93_3 C55_3 1_555 1_555
H94_3 C55_3 1_555 1_555
H95_3 C55_3 1_555 1_555
C56_3 C54_3 1_555 1_555
H96_3 C56_3 1_555 1_555
H97_3 C56_3 1_555 1_555
H98_3 C56_3 1_555 1_555
C57_3 N22_3 1_555 1_555
C58_3 C57_3 1_555 1_555
H99_3 C58_3 1_555 1_555
C59_3 C58_3 1_555 1_555
H100_3 C59_3 1_555 1_555
H101_3 C59_3 1_555 1_555
H102_3 C59_3 1_555 1_555
C60_3 C58_3 1_555 1_555
H103_3 C60_3 1_555 1_555
H104_3 C60_3 1_555 1_555
H105_3 C60_3 1_555 1_555
C61_3 N23_3 1_555 1_555
C62_3 C61_3 1_555 1_555
H106_3 C62_3 1_555 1_555
C63_3 C62_3 1_555 1_555
H107_3 C63_3 1_555 1_555
H108_3 C63_3 1_555 1_555
H109_3 C63_3 1_555 1_555
C64_3 C62_3 1_555 1_555
H110_3 C64_3 1_555 1_555
H111_3 C64_3 1_555 1_555
H112_3 C64_3 1_555 1_555
N25_2 Ag8_2 1_555 1_555
Ag2_3 N7_3 1_555 1_555
N9_3 C21_3 1_555 1_555
N12_3 C25_3 1_555 1_555
N15_3 C37_3 1_555 1_555
N18_3 C41_3 1_555 1_555
N21_3 C49_3 1_555 1_555
N22_3 N23_3 1_555 1_555
N29_2 C61_3 1_555 1_555
H106_4 C62_4 1_555 1_555
C64_4 C62_4 1_555 1_555
H110_4 C64_4 1_555 1_555
H111_4 C64_4 1_555 1_555
H112_4 C64_4 1_555 1_555
Ag7_4 N16_4 1_555 1_555
N28_2 C53_4 1_555 1_555
N21_4 Ag7_4 1_555 1_555
N22_4 Ag7_4 1_555 1_555
N23_4 Ag13_2 1_555 1_555
N29 C57_4 1_555 1_555
H71_4 C42_4 1_555 1_555
C43_4 C42_4 1_555 1_555
H72_4 C43_4 1_555 1_555
H73_4 C43_4 1_555 1_555
C44_4 C42_4 1_555 1_555
H76_4 C44_4 1_555 1_555
C49_4 N27_2 1_555 1_555
C50_4 C49_4 1_555 1_555
H85_4 C50_4 1_555 1_555
C51_4 C50_4 1_555 1_555
H86_4 C51_4 1_555 1_555
H87_4 C51_4 1_555 1_555
H88_4 C51_4 1_555 1_555
C52_4 C50_4 1_555 1_555
H89_4 C52_4 1_555 1_555
H90_4 C52_4 1_555 1_555
H91_4 C52_4 1_555 1_555
C53_4 N21_4 1_555 1_555
C54_4 C53_4 1_555 1_555
H92_4 C54_4 1_555 1_555
C55_4 C54_4 1_555 1_555
H93_4 C55_4 1_555 1_555
H94_4 C55_4 1_555 1_555
H95_4 C55_4 1_555 1_555
C56_4 C54_4 1_555 1_555
H96_4 C56_4 1_555 1_555
H97_4 C56_4 1_555 1_555
H98_4 C56_4 1_555 1_555
C57_4 N22_4 1_555 1_555
C58_4 C57_4 1_555 1_555
H99_4 C58_4 1_555 1_555
C59_4 C58_4 1_555 1_555
H100_4 C59_4 1_555 1_555
H101_4 C59_4 1_555 1_555
H102_4 C59_4 1_555 1_555
C60_4 C58_4 1_555 1_555
H103_4 C60_4 1_555 1_555
H104_4 C60_4 1_555 1_555
H105_4 C60_4 1_555 1_555
C61_4 N23_4 1_555 1_555
H107_4 C63_4 1_555 1_555
H109_4 C63_4 1_555 1_555
N21_4 C49_4 1_555 1_555
N22_4 N23_4 1_555 1_555
N29 C61_4 1_555 1_555
Ag12 N15_4 1_555 1_555
N17_4 C45_4 1_555 1_555
N18_4 Ag12 1_555 1_555
H58_4 C35_4 1_555 1_555
H59_4 C35_4 1_555 1_555
H60_4 C35_4 1_555 1_555
C38_4 C37_4 1_555 1_555
H64_4 C38_4 1_555 1_555
C40_4 C38_4 1_555 1_555
H69_4 C40_4 1_555 1_555
H70_4 C40_4 1_555 1_555
C45_4 N18_4 1_555 1_555
C46_4 C45_4 1_555 1_555
H78_4 C46_4 1_555 1_555
C47_4 C46_4 1_555 1_555
H79_4 C47_4 1_555 1_555
H80_4 C47_4 1_555 1_555
H81_4 C47_4 1_555 1_555
C48_4 C46_4 1_555 1_555
H82_4 C48_4 1_555 1_555
H83_4 C48_4 1_555 1_555
H84_4 C48_4 1_555 1_555
N15_4 C37_4 1_555 1_555
N18_4 C41_4 1_555 1_555
N10_4 N26 1_555 1_555
N26 C29_4 1_555 1_555
C25_4 N10_4 1_555 1_555
C26_4 C25_4 1_555 1_555
H43_4 C26_4 1_555 1_555
C27_4 C26_4 1_555 1_555
H44_4 C27_4 1_555 1_555
H45_4 C27_4 1_555 1_555
H46_4 C27_4 1_555 1_555
C28_4 C26_4 1_555 1_555
H47_4 C28_4 1_555 1_555
H48_4 C28_4 1_555 1_555
H49_4 C28_4 1_555 1_555
C29_4 N12_4 1_555 1_555
C30_4 C29_4 1_555 1_555
H50_4 C30_4 1_555 1_555
C31_4 C30_4 1_555 1_555
H51_4 C31_4 1_555 1_555
C32_4 C30_4 1_555 1_555
H54_4 C32_4 1_555 1_555
H55_4 C32_4 1_555 1_555
H56_4 C32_4 1_555 1_555
N12_4 C25_4 1_555 1_555
Ag1_4 N1_4 1_555 1_555
Ag2_4 N2_4 1_555 1_555
Ag9_2 N5_4 1_555 1_555
Ag11 N14_4 1_555 1_555
Ag5_4 N9_4 1_555 1_555
N1_4 N2_4 1_555 1_555
N2_4 C5_4 1_555 1_555
N25_2 C1_4 1_555 1_555
N4_4 Ag1_4 1_555 1_555
N5_4 N4_4 1_555 1_555
N6_3 C9_4 1_555 1_555
N7_4 Ag1_4 1_555 1_555
N8_4 N7_4 1_555 1_555
N9_4 C17_4 1_555 1_555
N13_4 Ag2_4 1_555 1_555
N14_4 N13_4 1_555 1_555
C1_4 N1_4 1_555 1_555
C2_4 C1_4 1_555 1_555
H1_4 C2_4 1_555 1_555
C3_2 C2_4 1_555 1_555
H2_2 C3_2 1_555 1_555
H3_2 C3_2 1_555 1_555
H4_2 C3_2 1_555 1_555
C4_4 C2_4 1_555 1_555
H5_4 C4_4 1_555 1_555
H6_4 C4_4 1_555 1_555
H7_4 C4_4 1_555 1_555
C5_4 N25_2 1_555 1_555
C6_4 C5_4 1_555 1_555
H8_4 C6_4 1_555 1_555
C7_4 C6_4 1_555 1_555
H9_4 C7_4 1_555 1_555
H10_4 C7_4 1_555 1_555
H11_4 C7_4 1_555 1_555
C8_4 C6_4 1_555 1_555
H12_4 C8_4 1_555 1_555
H13_4 C8_4 1_555 1_555
H14_4 C8_4 1_555 1_555
C9_4 N4_4 1_555 1_555
C10_4 C9_4 1_555 1_555
H15_4 C10_4 1_555 1_555
C11_3 C10_4 1_555 1_555
H16_3 C11_3 1_555 1_555
H17_3 C11_3 1_555 1_555
H18_3 C11_3 1_555 1_555
C12_4 C10_4 1_555 1_555
H19_4 C12_4 1_555 1_555
H20_3 C12_4 1_555 1_555
H21_3 C12_4 1_555 1_555
C13_4 N5_4 1_555 1_555
C14_4 C13_4 1_555 1_555
H22_4 C14_4 1_555 1_555
C15_4 C14_4 1_555 1_555
H23_2 C15_4 1_555 1_555
H24_4 C15_4 1_555 1_555
H25_4 C15_4 1_555 1_555
C16_3 C14_4 1_555 1_555
H26_3 C16_3 1_555 1_555
H27_2 C16_3 1_555 1_555
H28_3 C16_3 1_555 1_555
C17_4 N7_4 1_555 1_555
C18_4 C17_4 1_555 1_555
H29_4 C18_4 1_555 1_555
C19_4 C18_4 1_555 1_555
H30_4 C19_4 1_555 1_555
H31_4 C19_4 1_555 1_555
H32_4 C19_4 1_555 1_555
C20_4 C18_4 1_555 1_555
H33_4 C20_4 1_555 1_555
H34_4 C20_4 1_555 1_555
H35_4 C20_4 1_555 1_555
C21_4 N8_4 1_555 1_555
C22_4 C21_4 1_555 1_555
H36_4 C22_4 1_555 1_555
C23_4 C22_4 1_555 1_555
H39_4 C23_4 1_555 1_555
C24_4 C22_4 1_555 1_555
H40_4 C24_4 1_555 1_555
H41_4 C24_4 1_555 1_555
C33_4 N13_4 1_555 1_555
C34_4 C33_4 1_555 1_555
H57_4 C34_4 1_555 1_555
C36_4 C34_4 1_555 1_555
H61_4 C36_4 1_555 1_555
H62_4 C36_4 1_555 1_555
H65_4 C39_4 1_555 1_555
H67_4 C39_4 1_555 1_555
Ag2_4 N7_4 1_555 1_555
N6_3 C13_4 1_555 1_555
N9_4 C21_4 1_555 1_555
H2_3 C3_3 1_555 1_555
H3_3 C3_3 1_555 1_555
H4_3 C3_3 1_555 1_555
H2_4 C3_4 1_555 1_555
H3_4 C3_4 1_555 1_555
H4_4 C3_4 1_555 1_555
H16_4 C11_4 1_555 1_555
H17_4 C11_4 1_555 1_555
H18_4 C11_4 1_555 1_555
H26_4 C16_4 1_555 1_555
H28_4 C16_4 1_555 1_555

#END
