
###############################################################################
#
# This file contains modified crystal structure data generated from the
# MOF subset of the Cambridge Structural Database (CSD) v543 
# hosted by the Cambridge Crystallographic Data Centre (CCDC).
#
# This work is licensed under the Creative Commons
# Attribution-NonCommercial-ShareAlike 4.0 International License.
# To view a copy of this license, visit
# http://creativecommons.org/licenses/by-nc-sa/4.0/
# or send a letter to
# Creative Commons, PO Box 1866, Mountain View, CA 94042, USA.
#
# CIF created using the CSD Python API on 29 September 2022
# The structure has been converted into the P1 space group
# The structure has a 3D framework
# The original CSD entry ZOZBAT is in the cubic crystal system
# The framework has been calculated to contain at least 10.0% void space
# The void calculation uses a probe of radius 1.32A, grid spacing 0.4
#
###############################################################################

data_ZOZBAT
_chemical_formula_moiety         '(C120 H180 Ag9 N60)n'
_symmetry_cell_setting           triclinic
_symmetry_space_group_name_H-M   'P 1'
_symmetry_Int_Tables_number      1
_space_group_name_Hall           'P 1'
loop_
_symmetry_equiv_pos_site_id
_symmetry_equiv_pos_as_xyz
1 x,y,z
_cell_length_a                   16.332(2)
_cell_length_b                   16.332
_cell_length_c                   16.332
_cell_angle_alpha                90
_cell_angle_beta                 90
_cell_angle_gamma                90
_cell_volume                     4356.3
loop_
_atom_site_label
_atom_site_type_symbol
_atom_site_fract_x
_atom_site_fract_y
_atom_site_fract_z
Ag1 Ag -0.0000 0.61770(3) 0.5000
N1 N 0.0000 0.5427(3) 0.6156(3)
N2 N -0.0000 0.5000 0.7453(4)
C1 C 0.0000 0.5652(3) 0.6941(3)
C2 C -0.0000 0.6526(3) 0.7212(3)
H1 H 0.0000 0.6876 0.6710
N3 N 0.0000 0.4573(3) 0.6156(3)
C4 C 0.0000 0.4348(3) 0.6941(3)
C5 C -0.0000 0.3474(3) 0.7212(3)
H5 H 0.0000 0.3124 0.6710
C6 C 0.0777(3) 0.3271(3) 0.7701(3)
H6 H 0.0769 0.2691 0.7858
H7 H 0.0798 0.3611 0.8195
H8 H 0.1261 0.3379 0.7363
C8 C 0.0777(3) 0.6729(3) 0.7701(3)
H12 H 0.0769 0.7309 0.7858
H13 H 0.0798 0.6389 0.8195
H14 H 0.1261 0.6621 0.7363
Ag2 Ag -0.0000 0.38230(3) 0.5000
Ag3 Ag 0.0000 0.5000 0.88230(3)
N4 N 0.0000 0.5427(3) 0.3844(3)
N5 N 0.0000 0.7547(4) 0.5000
Ag1_2 Ag 1.0000 0.61770(3) 0.5000
N1_2 N 1.0000 0.5427(3) 0.6156(3)
N2_2 N 1.0000 0.5000 0.7453(4)
C1_2 C 1.0000 0.5652(3) 0.6941(3)
C2_2 C 1.0000 0.6526(3) 0.7212(3)
H1_2 H 1.0000 0.6876 0.6710
C3 C 0.9223(3) 0.6729(3) 0.7701(3)
H2 H 0.9231 0.7309 0.7858
H3 H 0.9202 0.6389 0.8195
H4 H 0.8739 0.6621 0.7363
N3_2 N 1.0000 0.4573(3) 0.6156(3)
C4_2 C 1.0000 0.4348(3) 0.6941(3)
C5_2 C 1.0000 0.3474(3) 0.7212(3)
H5_2 H 1.0000 0.3124 0.6710
C7 C 0.9223(3) 0.3271(3) 0.7701(3)
H9 H 0.9231 0.2691 0.7858
H10 H 0.9202 0.3611 0.8195
H11 H 0.8739 0.3379 0.7363
Ag2_2 Ag 1.0000 0.38230(3) 0.5000
Ag3_2 Ag 1.0000 0.5000 0.88230(3)
N4_2 N 1.0000 0.5427(3) 0.3844(3)
N5_2 N 1.0000 0.7547(4) 0.5000
N4_3 N -0.0000 0.4573(3) 0.3844(3)
N5_3 N 0.0000 0.2453(4) 0.5000
N4_4 N 1.0000 0.4573(3) 0.3844(3)
N5_4 N 1.0000 0.2453(4) 0.5000
N2_3 N 0.0000 0.5000 0.2547(4)
C1_3 C 0.0000 0.5652(3) 0.3059(3)
C2_3 C 0.0000 0.6526(3) 0.2788(3)
H1_3 H 0.0000 0.6876 0.3290
C3_2 C 0.0777(3) 0.6729(3) 0.2299(3)
H2_2 H 0.0769 0.7309 0.2142
H3_2 H 0.0798 0.6389 0.1805
H4_2 H 0.1261 0.6621 0.2637
C4_3 C 0.0000 0.4348(3) 0.3059(3)
C5_3 C 0.0000 0.3474(3) 0.2788(3)
H5_3 H 0.0000 0.3124 0.3290
C7_2 C 0.0777(3) 0.3271(3) 0.2299(3)
H9_2 H 0.0769 0.2691 0.2142
H10_2 H 0.0798 0.3611 0.1805
H11_2 H 0.1261 0.3379 0.2637
Ag3_3 Ag 0.0000 0.5000 0.11770(3)
N2_4 N 1.0000 0.5000 0.2547(4)
C1_4 C 1.0000 0.5652(3) 0.3059(3)
C2_4 C 1.0000 0.6526(3) 0.2788(3)
H1_4 H 1.0000 0.6876 0.3290
C4_4 C 1.0000 0.4348(3) 0.3059(3)
C5_4 C 1.0000 0.3474(3) 0.2788(3)
H5_4 H 1.0000 0.3124 0.3290
C6_2 C 0.9223(3) 0.3271(3) 0.2299(3)
H6_2 H 0.9231 0.2691 0.2142
H7_2 H 0.9202 0.3611 0.1805
H8_2 H 0.8739 0.3379 0.2637
C8_2 C 0.9223(3) 0.6729(3) 0.2299(3)
H12_2 H 0.9231 0.7309 0.2142
H13_2 H 0.9202 0.6389 0.1805
H14_2 H 0.8739 0.6621 0.2637
Ag3_4 Ag 1.0000 0.5000 0.11770(3)
Ag1_3 Ag 0.5000 -0.0000 0.61770(3)
N1_3 N 0.6156(3) -0.0000 0.5427(3)
N2_5 N 0.7453(4) -0.0000 0.5000
C1_5 C 0.6941(3) 0.0000 0.5652(3)
C2_5 C 0.7212(3) -0.0000 0.6526(3)
H1_5 H 0.6710 0.0000 0.6876
N3_3 N 0.6156(3) -0.0000 0.4573(3)
C4_5 C 0.6941(3) 0.0000 0.4348(3)
C5_5 C 0.7212(3) -0.0000 0.3474(3)
H5_5 H 0.6710 0.0000 0.3124
C6_3 C 0.7701(3) 0.0777(3) 0.3271(3)
H6_3 H 0.7858 0.0769 0.2691
H7_3 H 0.8195 0.0798 0.3611
H8_3 H 0.7363 0.1261 0.3379
C8_3 C 0.7701(3) 0.0777(3) 0.6729(3)
H12_3 H 0.7858 0.0769 0.7309
H13_3 H 0.8195 0.0798 0.6389
H14_3 H 0.7363 0.1261 0.6621
Ag2_3 Ag 0.5000 -0.0000 0.38230(3)
Ag3_5 Ag 0.88230(3) 0.0000 0.5000
N4_5 N 0.3844(3) 0.0000 0.5427(3)
N5_5 N 0.5000 -0.0000 0.7547(4)
Ag1_4 Ag 0.5000 1.0000 0.61770(3)
N1_4 N 0.6156(3) 1.0000 0.5427(3)
N2_6 N 0.7453(4) 1.0000 0.5000
C1_6 C 0.6941(3) 1.0000 0.5652(3)
C2_6 C 0.7212(3) 1.0000 0.6526(3)
H1_6 H 0.6710 1.0000 0.6876
C3_3 C 0.7701(3) 0.9223(3) 0.6729(3)
H2_3 H 0.7858 0.9231 0.7309
H3_3 H 0.8195 0.9202 0.6389
H4_3 H 0.7363 0.8739 0.6621
N3_4 N 0.6156(3) 1.0000 0.4573(3)
C4_6 C 0.6941(3) 1.0000 0.4348(3)
C5_6 C 0.7212(3) 1.0000 0.3474(3)
H5_6 H 0.6710 1.0000 0.3124
C7_3 C 0.7701(3) 0.9223(3) 0.3271(3)
H9_3 H 0.7858 0.9231 0.2691
H10_3 H 0.8195 0.9202 0.3611
H11_3 H 0.7363 0.8739 0.3379
Ag2_4 Ag 0.5000 1.0000 0.38230(3)
Ag3_6 Ag 0.88230(3) 1.0000 0.5000
N4_6 N 0.3844(3) 1.0000 0.5427(3)
N5_6 N 0.5000 1.0000 0.7547(4)
N4_7 N 0.3844(3) -0.0000 0.4573(3)
N5_7 N 0.5000 0.0000 0.2453(4)
N4_8 N 0.3844(3) 1.0000 0.4573(3)
N5_8 N 0.5000 1.0000 0.2453(4)
N2_7 N 0.2547(4) 0.0000 0.5000
C1_7 C 0.3059(3) 0.0000 0.5652(3)
C2_7 C 0.2788(3) 0.0000 0.6526(3)
H1_7 H 0.3290 -0.0000 0.6876
C3_4 C 0.2299(3) 0.0777(3) 0.6729(3)
H2_4 H 0.2142 0.0769 0.7309
H3_4 H 0.1805 0.0798 0.6389
H4_4 H 0.2637 0.1261 0.6621
C4_7 C 0.3059(3) 0.0000 0.4348(3)
C5_7 C 0.2788(3) 0.0000 0.3474(3)
H5_7 H 0.3290 0.0000 0.3124
C7_4 C 0.2299(3) 0.0777(3) 0.3271(3)
H9_4 H 0.2142 0.0769 0.2691
H10_4 H 0.1805 0.0798 0.3611
H11_4 H 0.2637 0.1261 0.3379
Ag3_7 Ag 0.11770(3) 0.0000 0.5000
N2_8 N 0.2547(4) 1.0000 0.5000
C1_8 C 0.3059(3) 1.0000 0.5652(3)
C2_8 C 0.2788(3) 1.0000 0.6526(3)
H1_8 H 0.3290 1.0000 0.6876
C4_8 C 0.3059(3) 1.0000 0.4348(3)
C5_8 C 0.2788(3) 1.0000 0.3474(3)
H5_8 H 0.3290 1.0000 0.3124
C6_4 C 0.2299(3) 0.9223(3) 0.3271(3)
H6_4 H 0.2142 0.9231 0.2691
H7_4 H 0.1805 0.9202 0.3611
H8_4 H 0.2637 0.8739 0.3379
C8_4 C 0.2299(3) 0.9223(3) 0.6729(3)
H12_4 H 0.2142 0.9231 0.7309
H13_4 H 0.1805 0.9202 0.6389
H14_4 H 0.2637 0.8739 0.6621
Ag3_8 Ag 0.11770(3) 1.0000 0.5000
Ag1_5 Ag 0.61770(3) 0.5000 -0.0000
N1_5 N 0.5427(3) 0.6156(3) -0.0000
N2_9 N 0.5000 0.7453(4) -0.0000
C1_9 C 0.5652(3) 0.6941(3) 0.0000
C2_9 C 0.6526(3) 0.7212(3) -0.0000
H1_9 H 0.6876 0.6710 0.0000
N3_5 N 0.4573(3) 0.6156(3) -0.0000
C4_9 C 0.4348(3) 0.6941(3) 0.0000
C5_9 C 0.3474(3) 0.7212(3) -0.0000
H5_9 H 0.3124 0.6710 0.0000
C6_5 C 0.3271(3) 0.7701(3) 0.0777(3)
H6_5 H 0.2691 0.7858 0.0769
H7_5 H 0.3611 0.8195 0.0798
H8_5 H 0.3379 0.7363 0.1261
C8_5 C 0.6729(3) 0.7701(3) 0.0777(3)
H12_5 H 0.7309 0.7858 0.0769
H13_5 H 0.6389 0.8195 0.0798
H14_5 H 0.6621 0.7363 0.1261
Ag2_5 Ag 0.38230(3) 0.5000 -0.0000
Ag3_9 Ag 0.5000 0.88230(3) 0.0000
N4_9 N 0.5427(3) 0.3844(3) 0.0000
N5_9 N 0.7547(4) 0.5000 -0.0000
Ag1_6 Ag 0.61770(3) 0.5000 1.0000
N1_6 N 0.5427(3) 0.6156(3) 1.0000
N2_10 N 0.5000 0.7453(4) 1.0000
C1_10 C 0.5652(3) 0.6941(3) 1.0000
C2_10 C 0.6526(3) 0.7212(3) 1.0000
H1_10 H 0.6876 0.6710 1.0000
C3_5 C 0.6729(3) 0.7701(3) 0.9223(3)
H2_5 H 0.7309 0.7858 0.9231
H3_5 H 0.6389 0.8195 0.9202
H4_5 H 0.6621 0.7363 0.8739
N3_6 N 0.4573(3) 0.6156(3) 1.0000
C4_10 C 0.4348(3) 0.6941(3) 1.0000
C5_10 C 0.3474(3) 0.7212(3) 1.0000
H5_10 H 0.3124 0.6710 1.0000
C7_5 C 0.3271(3) 0.7701(3) 0.9223(3)
H9_5 H 0.2691 0.7858 0.9231
H10_5 H 0.3611 0.8195 0.9202
H11_5 H 0.3379 0.7363 0.8739
Ag2_6 Ag 0.38230(3) 0.5000 1.0000
Ag3_10 Ag 0.5000 0.88230(3) 1.0000
N4_10 N 0.5427(3) 0.3844(3) 1.0000
N5_10 N 0.7547(4) 0.5000 1.0000
N4_11 N 0.4573(3) 0.3844(3) -0.0000
N5_11 N 0.2453(4) 0.5000 0.0000
N4_12 N 0.4573(3) 0.3844(3) 1.0000
N5_12 N 0.2453(4) 0.5000 1.0000
N2_11 N 0.5000 0.2547(4) 0.0000
C1_11 C 0.5652(3) 0.3059(3) 0.0000
C2_11 C 0.6526(3) 0.2788(3) 0.0000
H1_11 H 0.6876 0.3290 -0.0000
C3_6 C 0.6729(3) 0.2299(3) 0.0777(3)
H2_6 H 0.7309 0.2142 0.0769
H3_6 H 0.6389 0.1805 0.0798
H4_6 H 0.6621 0.2637 0.1261
C4_11 C 0.4348(3) 0.3059(3) 0.0000
C5_11 C 0.3474(3) 0.2788(3) 0.0000
H5_11 H 0.3124 0.3290 0.0000
C7_6 C 0.3271(3) 0.2299(3) 0.0777(3)
H9_6 H 0.2691 0.2142 0.0769
H10_6 H 0.3611 0.1805 0.0798
H11_6 H 0.3379 0.2637 0.1261
Ag3_11 Ag 0.5000 0.11770(3) 0.0000
N2_12 N 0.5000 0.2547(4) 1.0000
C1_12 C 0.5652(3) 0.3059(3) 1.0000
C2_12 C 0.6526(3) 0.2788(3) 1.0000
H1_12 H 0.6876 0.3290 1.0000
C4_12 C 0.4348(3) 0.3059(3) 1.0000
C5_12 C 0.3474(3) 0.2788(3) 1.0000
H5_12 H 0.3124 0.3290 1.0000
C6_6 C 0.3271(3) 0.2299(3) 0.9223(3)
H6_6 H 0.2691 0.2142 0.9231
H7_6 H 0.3611 0.1805 0.9202
H8_6 H 0.3379 0.2637 0.8739
C8_6 C 0.6729(3) 0.2299(3) 0.9223(3)
H12_6 H 0.7309 0.2142 0.9231
H13_6 H 0.6389 0.1805 0.9202
H14_6 H 0.6621 0.2637 0.8739
Ag3_12 Ag 0.5000 0.11770(3) 1.0000
N1_7 N 0.5000 0.0427(3) 0.1156(3)
C1_13 C 0.5000 0.0652(3) 0.1941(3)
C2_13 C 0.5000 0.1526(3) 0.2212(3)
H1_13 H 0.5000 0.1876 0.1710
C3_7 C 0.4223(3) 0.1729(3) 0.2701(3)
H2_7 H 0.4231 0.2309 0.2858
H3_7 H 0.4202 0.1389 0.3195
H4_7 H 0.3739 0.1621 0.2363
C8_7 C 0.5777(3) 0.1729(3) 0.2701(3)
H12_7 H 0.5769 0.2309 0.2858
H13_7 H 0.5798 0.1389 0.3195
H14_7 H 0.6261 0.1621 0.2363
N4_13 N 0.5000 0.0427(3) 0.8844(3)
N3_7 N 0.5000 0.9573(3) 0.1156(3)
C4_13 C 0.5000 0.9348(3) 0.1941(3)
C5_13 C 0.5000 0.8474(3) 0.2212(3)
H5_13 H 0.5000 0.8124 0.1710
C6_7 C 0.5777(3) 0.8271(3) 0.2701(3)
H6_7 H 0.5769 0.7691 0.2858
H7_7 H 0.5798 0.8611 0.3195
H8_7 H 0.6261 0.8379 0.2363
C7_7 C 0.4223(3) 0.8271(3) 0.2701(3)
H9_7 H 0.4231 0.7691 0.2858
H10_7 H 0.4202 0.8611 0.3195
H11_7 H 0.3739 0.8379 0.2363
N4_14 N 0.5000 0.9573(3) 0.8844(3)
C1_14 C 0.5000 0.0652(3) 0.8059(3)
C2_14 C 0.5000 0.1526(3) 0.7788(3)
H1_14 H 0.5000 0.1876 0.8290
C3_8 C 0.5777(3) 0.1729(3) 0.7299(3)
H2_8 H 0.5769 0.2309 0.7142
H3_8 H 0.5798 0.1389 0.6805
H4_8 H 0.6261 0.1621 0.7637
C8_8 C 0.4223(3) 0.1729(3) 0.7299(3)
H12_8 H 0.4231 0.2309 0.7142
H13_8 H 0.4202 0.1389 0.6805
H14_8 H 0.3739 0.1621 0.7637
C4_14 C 0.5000 0.9348(3) 0.8059(3)
C5_14 C 0.5000 0.8474(3) 0.7788(3)
H5_14 H 0.5000 0.8124 0.8290
C6_8 C 0.4223(3) 0.8271(3) 0.7299(3)
H6_8 H 0.4231 0.7691 0.7142
H7_8 H 0.4202 0.8611 0.6805
H8_8 H 0.3739 0.8379 0.7637
C7_8 C 0.5777(3) 0.8271(3) 0.7299(3)
H9_8 H 0.5769 0.7691 0.7142
H10_8 H 0.5798 0.8611 0.6805
H11_8 H 0.6261 0.8379 0.7637
N1_8 N 0.1156(3) 0.5000 0.0427(3)
C1_15 C 0.1941(3) 0.5000 0.0652(3)
C2_15 C 0.2212(3) 0.5000 0.1526(3)
H1_15 H 0.1710 0.5000 0.1876
C3_9 C 0.2701(3) 0.4223(3) 0.1729(3)
H2_9 H 0.2858 0.4231 0.2309
H3_9 H 0.3195 0.4202 0.1389
H4_9 H 0.2363 0.3739 0.1621
C8_9 C 0.2701(3) 0.5777(3) 0.1729(3)
H12_9 H 0.2858 0.5769 0.2309
H13_9 H 0.3195 0.5798 0.1389
H14_9 H 0.2363 0.6261 0.1621
N3_8 N 0.1156(3) 0.5000 0.9573(3)
C4_15 C 0.1941(3) 0.5000 0.9348(3)
C5_15 C 0.2212(3) 0.5000 0.8474(3)
H5_15 H 0.1710 0.5000 0.8124
C6_9 C 0.2701(3) 0.5777(3) 0.8271(3)
H6_9 H 0.2858 0.5769 0.7691
H7_9 H 0.3195 0.5798 0.8611
H8_9 H 0.2363 0.6261 0.8379
C7_9 C 0.2701(3) 0.4223(3) 0.8271(3)
H9_9 H 0.2858 0.4231 0.7691
H10_9 H 0.3195 0.4202 0.8611
H11_9 H 0.2363 0.3739 0.8379
N4_15 N 0.8844(3) 0.5000 0.0427(3)
N4_16 N 0.8844(3) 0.5000 0.9573(3)
C1_16 C 0.8059(3) 0.5000 0.0652(3)
C2_16 C 0.7788(3) 0.5000 0.1526(3)
H1_16 H 0.8290 0.5000 0.1876
C3_10 C 0.7299(3) 0.5777(3) 0.1729(3)
H2_10 H 0.7142 0.5769 0.2309
H3_10 H 0.6805 0.5798 0.1389
H4_10 H 0.7637 0.6261 0.1621
C8_10 C 0.7299(3) 0.4223(3) 0.1729(3)
H12_10 H 0.7142 0.4231 0.2309
H13_10 H 0.6805 0.4202 0.1389
H14_10 H 0.7637 0.3739 0.1621
C4_16 C 0.8059(3) 0.5000 0.9348(3)
C5_16 C 0.7788(3) 0.5000 0.8474(3)
H5_16 H 0.8290 0.5000 0.8124
C6_10 C 0.7299(3) 0.4223(3) 0.8271(3)
H6_10 H 0.7142 0.4231 0.7691
H7_10 H 0.6805 0.4202 0.8611
H8_10 H 0.7637 0.3739 0.8379
C7_10 C 0.7299(3) 0.5777(3) 0.8271(3)
H9_10 H 0.7142 0.5769 0.7691
H10_10 H 0.6805 0.5798 0.8611
H11_10 H 0.7637 0.6261 0.8379
N1_9 N 0.0427(3) 0.1156(3) 0.5000
C1_17 C 0.0652(3) 0.1941(3) 0.5000
C2_17 C 0.1526(3) 0.2212(3) 0.5000
H1_17 H 0.1876 0.1710 0.5000
C3_11 C 0.1729(3) 0.2701(3) 0.4223(3)
H2_11 H 0.2309 0.2858 0.4231
H3_11 H 0.1389 0.3195 0.4202
H4_11 H 0.1621 0.2363 0.3739
C8_11 C 0.1729(3) 0.2701(3) 0.5777(3)
H12_11 H 0.2309 0.2858 0.5769
H13_11 H 0.1389 0.3195 0.5798
H14_11 H 0.1621 0.2363 0.6261
N4_17 N 0.0427(3) 0.8844(3) 0.5000
N3_9 N 0.9573(3) 0.1156(3) 0.5000
C4_17 C 0.9348(3) 0.1941(3) 0.5000
C5_17 C 0.8474(3) 0.2212(3) 0.5000
H5_17 H 0.8124 0.1710 0.5000
C6_11 C 0.8271(3) 0.2701(3) 0.5777(3)
H6_11 H 0.7691 0.2858 0.5769
H7_11 H 0.8611 0.3195 0.5798
H8_11 H 0.8379 0.2363 0.6261
C7_11 C 0.8271(3) 0.2701(3) 0.4223(3)
H9_11 H 0.7691 0.2858 0.4231
H10_11 H 0.8611 0.3195 0.4202
H11_11 H 0.8379 0.2363 0.3739
N4_18 N 0.9573(3) 0.8844(3) 0.5000
C1_18 C 0.0652(3) 0.8059(3) 0.5000
C2_18 C 0.1526(3) 0.7788(3) 0.5000
H1_18 H 0.1876 0.8290 0.5000
C3_12 C 0.1729(3) 0.7299(3) 0.5777(3)
H2_12 H 0.2309 0.7142 0.5769
H3_12 H 0.1389 0.6805 0.5798
H4_12 H 0.1621 0.7637 0.6261
C8_12 C 0.1729(3) 0.7299(3) 0.4223(3)
H12_12 H 0.2309 0.7142 0.4231
H13_12 H 0.1389 0.6805 0.4202
H14_12 H 0.1621 0.7637 0.3739
C4_18 C 0.9348(3) 0.8059(3) 0.5000
C5_18 C 0.8474(3) 0.7788(3) 0.5000
H5_18 H 0.8124 0.8290 0.5000
C6_12 C 0.8271(3) 0.7299(3) 0.4223(3)
H6_12 H 0.7691 0.7142 0.4231
H7_12 H 0.8611 0.6805 0.4202
H8_12 H 0.8379 0.7637 0.3739
C7_12 C 0.8271(3) 0.7299(3) 0.5777(3)
H9_12 H 0.7691 0.7142 0.5769
H10_12 H 0.8611 0.6805 0.5798
H11_12 H 0.8379 0.7637 0.6261
loop_
_geom_bond_atom_site_label_1
_geom_bond_atom_site_label_2
_geom_bond_site_symmetry_1
_geom_bond_site_symmetry_2
Ag1 N1 1_555 1_555
N1 C1 1_555 1_555
N2 C1 1_555 1_555
C1 C2 1_555 1_555
C2 H1 1_555 1_555
N3 N1 1_555 1_555
C4 N2 1_555 1_555
C5 C4 1_555 1_555
H5 C5 1_555 1_555
C6 C5 1_555 1_555
H6 C6 1_555 1_555
H7 C6 1_555 1_555
H8 C6 1_555 1_555
C8 C2 1_555 1_555
H12 C8 1_555 1_555
H13 C8 1_555 1_555
H14 C8 1_555 1_555
Ag2 N3 1_555 1_555
Ag3 N2 1_555 1_555
N4 Ag1 1_555 1_555
N5 Ag1 1_555 1_555
N3 C4 1_555 1_555
Ag1_2 N1_2 1_555 1_555
N1_2 C1_2 1_555 1_555
N2_2 C1_2 1_555 1_555
C1_2 C2_2 1_555 1_555
C2_2 H1_2 1_555 1_555
C3 C2_2 1_555 1_555
H2 C3 1_555 1_555
H3 C3 1_555 1_555
H4 C3 1_555 1_555
N3_2 N1_2 1_555 1_555
C4_2 N2_2 1_555 1_555
C5_2 C4_2 1_555 1_555
H5_2 C5_2 1_555 1_555
C7 C5_2 1_555 1_555
H9 C7 1_555 1_555
H10 C7 1_555 1_555
H11 C7 1_555 1_555
Ag2_2 N3_2 1_555 1_555
Ag3_2 N2_2 1_555 1_555
N4_2 Ag1_2 1_555 1_555
N5_2 Ag1_2 1_555 1_555
N3_2 C4_2 1_555 1_555
N4_3 Ag2 1_555 1_555
N5_3 Ag2 1_555 1_555
N4_4 Ag2_2 1_555 1_555
N5_4 Ag2_2 1_555 1_555
N4 C1_3 1_555 1_555
N2_3 C1_3 1_555 1_555
C1_3 C2_3 1_555 1_555
C2_3 H1_3 1_555 1_555
C3_2 C2_3 1_555 1_555
H2_2 C3_2 1_555 1_555
H3_2 C3_2 1_555 1_555
H4_2 C3_2 1_555 1_555
N4_3 N4 1_555 1_555
C4_3 N2_3 1_555 1_555
C5_3 C4_3 1_555 1_555
H5_3 C5_3 1_555 1_555
C7_2 C5_3 1_555 1_555
H9_2 C7_2 1_555 1_555
H10_2 C7_2 1_555 1_555
H11_2 C7_2 1_555 1_555
Ag3_3 N2_3 1_555 1_555
N4_3 C4_3 1_555 1_555
N4_2 C1_4 1_555 1_555
N2_4 C1_4 1_555 1_555
C1_4 C2_4 1_555 1_555
C2_4 H1_4 1_555 1_555
N4_4 N4_2 1_555 1_555
C4_4 N2_4 1_555 1_555
C5_4 C4_4 1_555 1_555
H5_4 C5_4 1_555 1_555
C6_2 C5_4 1_555 1_555
H6_2 C6_2 1_555 1_555
H7_2 C6_2 1_555 1_555
H8_2 C6_2 1_555 1_555
C8_2 C2_4 1_555 1_555
H12_2 C8_2 1_555 1_555
H13_2 C8_2 1_555 1_555
H14_2 C8_2 1_555 1_555
Ag3_4 N2_4 1_555 1_555
N4_4 C4_4 1_555 1_555
Ag1_3 N1_3 1_555 1_555
N1_3 C1_5 1_555 1_555
N2_5 C1_5 1_555 1_555
C1_5 C2_5 1_555 1_555
C2_5 H1_5 1_555 1_555
N3_3 N1_3 1_555 1_555
C4_5 N2_5 1_555 1_555
C5_5 C4_5 1_555 1_555
H5_5 C5_5 1_555 1_555
C6_3 C5_5 1_555 1_555
H6_3 C6_3 1_555 1_555
H7_3 C6_3 1_555 1_555
H8_3 C6_3 1_555 1_555
C8_3 C2_5 1_555 1_555
H12_3 C8_3 1_555 1_555
H13_3 C8_3 1_555 1_555
H14_3 C8_3 1_555 1_555
Ag2_3 N3_3 1_555 1_555
Ag3_5 N2_5 1_555 1_555
N4_5 Ag1_3 1_555 1_555
N5_5 Ag1_3 1_555 1_555
N3_3 C4_5 1_555 1_555
Ag1_4 N1_4 1_555 1_555
N1_4 C1_6 1_555 1_555
N2_6 C1_6 1_555 1_555
C1_6 C2_6 1_555 1_555
C2_6 H1_6 1_555 1_555
C3_3 C2_6 1_555 1_555
H2_3 C3_3 1_555 1_555
H3_3 C3_3 1_555 1_555
H4_3 C3_3 1_555 1_555
N3_4 N1_4 1_555 1_555
C4_6 N2_6 1_555 1_555
C5_6 C4_6 1_555 1_555
H5_6 C5_6 1_555 1_555
C7_3 C5_6 1_555 1_555
H9_3 C7_3 1_555 1_555
H10_3 C7_3 1_555 1_555
H11_3 C7_3 1_555 1_555
Ag2_4 N3_4 1_555 1_555
Ag3_6 N2_6 1_555 1_555
N4_6 Ag1_4 1_555 1_555
N5_6 Ag1_4 1_555 1_555
N3_4 C4_6 1_555 1_555
N4_7 Ag2_3 1_555 1_555
N5_7 Ag2_3 1_555 1_555
N4_8 Ag2_4 1_555 1_555
N5_8 Ag2_4 1_555 1_555
N4_5 C1_7 1_555 1_555
N2_7 C1_7 1_555 1_555
C1_7 C2_7 1_555 1_555
C2_7 H1_7 1_555 1_555
C3_4 C2_7 1_555 1_555
H2_4 C3_4 1_555 1_555
H3_4 C3_4 1_555 1_555
H4_4 C3_4 1_555 1_555
N4_7 N4_5 1_555 1_555
C4_7 N2_7 1_555 1_555
C5_7 C4_7 1_555 1_555
H5_7 C5_7 1_555 1_555
C7_4 C5_7 1_555 1_555
H9_4 C7_4 1_555 1_555
H10_4 C7_4 1_555 1_555
H11_4 C7_4 1_555 1_555
Ag3_7 N2_7 1_555 1_555
N4_7 C4_7 1_555 1_555
N4_6 C1_8 1_555 1_555
N2_8 C1_8 1_555 1_555
C1_8 C2_8 1_555 1_555
C2_8 H1_8 1_555 1_555
N4_8 N4_6 1_555 1_555
C4_8 N2_8 1_555 1_555
C5_8 C4_8 1_555 1_555
H5_8 C5_8 1_555 1_555
C6_4 C5_8 1_555 1_555
H6_4 C6_4 1_555 1_555
H7_4 C6_4 1_555 1_555
H8_4 C6_4 1_555 1_555
C8_4 C2_8 1_555 1_555
H12_4 C8_4 1_555 1_555
H13_4 C8_4 1_555 1_555
H14_4 C8_4 1_555 1_555
Ag3_8 N2_8 1_555 1_555
N4_8 C4_8 1_555 1_555
Ag1_5 N1_5 1_555 1_555
N1_5 C1_9 1_555 1_555
N2_9 C1_9 1_555 1_555
C1_9 C2_9 1_555 1_555
C2_9 H1_9 1_555 1_555
N3_5 N1_5 1_555 1_555
C4_9 N2_9 1_555 1_555
C5_9 C4_9 1_555 1_555
H5_9 C5_9 1_555 1_555
C6_5 C5_9 1_555 1_555
H6_5 C6_5 1_555 1_555
H7_5 C6_5 1_555 1_555
H8_5 C6_5 1_555 1_555
C8_5 C2_9 1_555 1_555
H12_5 C8_5 1_555 1_555
H13_5 C8_5 1_555 1_555
H14_5 C8_5 1_555 1_555
Ag2_5 N3_5 1_555 1_555
Ag3_9 N2_9 1_555 1_555
N4_9 Ag1_5 1_555 1_555
N5_9 Ag1_5 1_555 1_555
N3_5 C4_9 1_555 1_555
Ag1_6 N1_6 1_555 1_555
N1_6 C1_10 1_555 1_555
N2_10 C1_10 1_555 1_555
C1_10 C2_10 1_555 1_555
C2_10 H1_10 1_555 1_555
C3_5 C2_10 1_555 1_555
H2_5 C3_5 1_555 1_555
H3_5 C3_5 1_555 1_555
H4_5 C3_5 1_555 1_555
N3_6 N1_6 1_555 1_555
C4_10 N2_10 1_555 1_555
C5_10 C4_10 1_555 1_555
H5_10 C5_10 1_555 1_555
C7_5 C5_10 1_555 1_555
H9_5 C7_5 1_555 1_555
H10_5 C7_5 1_555 1_555
H11_5 C7_5 1_555 1_555
Ag2_6 N3_6 1_555 1_555
Ag3_10 N2_10 1_555 1_555
N4_10 Ag1_6 1_555 1_555
N5_10 Ag1_6 1_555 1_555
N3_6 C4_10 1_555 1_555
N4_11 Ag2_5 1_555 1_555
N5_11 Ag2_5 1_555 1_555
N4_12 Ag2_6 1_555 1_555
N5_12 Ag2_6 1_555 1_555
N4_9 C1_11 1_555 1_555
N2_11 C1_11 1_555 1_555
C1_11 C2_11 1_555 1_555
C2_11 H1_11 1_555 1_555
C3_6 C2_11 1_555 1_555
H2_6 C3_6 1_555 1_555
H3_6 C3_6 1_555 1_555
H4_6 C3_6 1_555 1_555
N4_11 N4_9 1_555 1_555
C4_11 N2_11 1_555 1_555
C5_11 C4_11 1_555 1_555
H5_11 C5_11 1_555 1_555
C7_6 C5_11 1_555 1_555
H9_6 C7_6 1_555 1_555
H10_6 C7_6 1_555 1_555
H11_6 C7_6 1_555 1_555
Ag3_11 N2_11 1_555 1_555
N4_11 C4_11 1_555 1_555
N4_10 C1_12 1_555 1_555
N2_12 C1_12 1_555 1_555
C1_12 C2_12 1_555 1_555
C2_12 H1_12 1_555 1_555
N4_12 N4_10 1_555 1_555
C4_12 N2_12 1_555 1_555
C5_12 C4_12 1_555 1_555
H5_12 C5_12 1_555 1_555
C6_6 C5_12 1_555 1_555
H6_6 C6_6 1_555 1_555
H7_6 C6_6 1_555 1_555
H8_6 C6_6 1_555 1_555
C8_6 C2_12 1_555 1_555
H12_6 C8_6 1_555 1_555
H13_6 C8_6 1_555 1_555
H14_6 C8_6 1_555 1_555
Ag3_12 N2_12 1_555 1_555
N4_12 C4_12 1_555 1_555
Ag3_11 N1_7 1_555 1_555
N1_7 C1_13 1_555 1_555
N5_7 C1_13 1_555 1_555
C1_13 C2_13 1_555 1_555
C2_13 H1_13 1_555 1_555
C3_7 C2_13 1_555 1_555
H2_7 C3_7 1_555 1_555
H3_7 C3_7 1_555 1_555
H4_7 C3_7 1_555 1_555
C8_7 C2_13 1_555 1_555
H12_7 C8_7 1_555 1_555
H13_7 C8_7 1_555 1_555
H14_7 C8_7 1_555 1_555
N4_13 Ag3_12 1_555 1_555
C4_13 N5_8 1_555 1_555
C5_13 C4_13 1_555 1_555
H5_13 C5_13 1_555 1_555
C6_7 C5_13 1_555 1_555
H6_7 C6_7 1_555 1_555
H7_7 C6_7 1_555 1_555
H8_7 C6_7 1_555 1_555
C7_7 C5_13 1_555 1_555
H9_7 C7_7 1_555 1_555
H10_7 C7_7 1_555 1_555
H11_7 C7_7 1_555 1_555
Ag3_9 N3_7 1_555 1_555
N3_7 C4_13 1_555 1_555
N4_14 Ag3_10 1_555 1_555
N4_13 C1_14 1_555 1_555
N5_5 C1_14 1_555 1_555
C1_14 C2_14 1_555 1_555
C2_14 H1_14 1_555 1_555
C3_8 C2_14 1_555 1_555
H2_8 C3_8 1_555 1_555
H3_8 C3_8 1_555 1_555
H4_8 C3_8 1_555 1_555
C8_8 C2_14 1_555 1_555
H12_8 C8_8 1_555 1_555
H13_8 C8_8 1_555 1_555
H14_8 C8_8 1_555 1_555
C4_14 N5_6 1_555 1_555
C5_14 C4_14 1_555 1_555
H5_14 C5_14 1_555 1_555
C6_8 C5_14 1_555 1_555
H6_8 C6_8 1_555 1_555
H7_8 C6_8 1_555 1_555
H8_8 C6_8 1_555 1_555
C7_8 C5_14 1_555 1_555
H9_8 C7_8 1_555 1_555
H10_8 C7_8 1_555 1_555
H11_8 C7_8 1_555 1_555
N4_14 C4_14 1_555 1_555
Ag3_3 N1_8 1_555 1_555
N1_8 C1_15 1_555 1_555
N5_11 C1_15 1_555 1_555
C1_15 C2_15 1_555 1_555
C2_15 H1_15 1_555 1_555
C3_9 C2_15 1_555 1_555
H2_9 C3_9 1_555 1_555
H3_9 C3_9 1_555 1_555
H4_9 C3_9 1_555 1_555
C8_9 C2_15 1_555 1_555
H12_9 C8_9 1_555 1_555
H13_9 C8_9 1_555 1_555
H14_9 C8_9 1_555 1_555
C4_15 N5_12 1_555 1_555
C5_15 C4_15 1_555 1_555
H5_15 C5_15 1_555 1_555
C6_9 C5_15 1_555 1_555
H6_9 C6_9 1_555 1_555
H7_9 C6_9 1_555 1_555
H8_9 C6_9 1_555 1_555
C7_9 C5_15 1_555 1_555
H9_9 C7_9 1_555 1_555
H10_9 C7_9 1_555 1_555
H11_9 C7_9 1_555 1_555
Ag3 N3_8 1_555 1_555
N3_8 C4_15 1_555 1_555
N4_15 Ag3_4 1_555 1_555
N4_16 Ag3_2 1_555 1_555
N4_15 C1_16 1_555 1_555
N5_9 C1_16 1_555 1_555
C1_16 C2_16 1_555 1_555
C2_16 H1_16 1_555 1_555
C3_10 C2_16 1_555 1_555
H2_10 C3_10 1_555 1_555
H3_10 C3_10 1_555 1_555
H4_10 C3_10 1_555 1_555
C8_10 C2_16 1_555 1_555
H12_10 C8_10 1_555 1_555
H13_10 C8_10 1_555 1_555
H14_10 C8_10 1_555 1_555
C4_16 N5_10 1_555 1_555
C5_16 C4_16 1_555 1_555
H5_16 C5_16 1_555 1_555
C6_10 C5_16 1_555 1_555
H6_10 C6_10 1_555 1_555
H7_10 C6_10 1_555 1_555
H8_10 C6_10 1_555 1_555
C7_10 C5_16 1_555 1_555
H9_10 C7_10 1_555 1_555
H10_10 C7_10 1_555 1_555
H11_10 C7_10 1_555 1_555
N4_16 C4_16 1_555 1_555
Ag3_7 N1_9 1_555 1_555
N1_9 C1_17 1_555 1_555
N5_3 C1_17 1_555 1_555
C1_17 C2_17 1_555 1_555
C2_17 H1_17 1_555 1_555
C3_11 C2_17 1_555 1_555
H2_11 C3_11 1_555 1_555
H3_11 C3_11 1_555 1_555
H4_11 C3_11 1_555 1_555
C8_11 C2_17 1_555 1_555
H12_11 C8_11 1_555 1_555
H13_11 C8_11 1_555 1_555
H14_11 C8_11 1_555 1_555
N4_17 Ag3_8 1_555 1_555
C4_17 N5_4 1_555 1_555
C5_17 C4_17 1_555 1_555
H5_17 C5_17 1_555 1_555
C6_11 C5_17 1_555 1_555
H6_11 C6_11 1_555 1_555
H7_11 C6_11 1_555 1_555
H8_11 C6_11 1_555 1_555
C7_11 C5_17 1_555 1_555
H9_11 C7_11 1_555 1_555
H10_11 C7_11 1_555 1_555
H11_11 C7_11 1_555 1_555
Ag3_5 N3_9 1_555 1_555
N3_9 C4_17 1_555 1_555
N4_18 Ag3_6 1_555 1_555
N4_17 C1_18 1_555 1_555
N5 C1_18 1_555 1_555
C1_18 C2_18 1_555 1_555
C2_18 H1_18 1_555 1_555
C3_12 C2_18 1_555 1_555
H2_12 C3_12 1_555 1_555
H3_12 C3_12 1_555 1_555
H4_12 C3_12 1_555 1_555
C8_12 C2_18 1_555 1_555
H12_12 C8_12 1_555 1_555
H13_12 C8_12 1_555 1_555
H14_12 C8_12 1_555 1_555
C4_18 N5_2 1_555 1_555
C5_18 C4_18 1_555 1_555
H5_18 C5_18 1_555 1_555
C6_12 C5_18 1_555 1_555
H6_12 C6_12 1_555 1_555
H7_12 C6_12 1_555 1_555
H8_12 C6_12 1_555 1_555
C7_12 C5_18 1_555 1_555
H9_12 C7_12 1_555 1_555
H10_12 C7_12 1_555 1_555
H11_12 C7_12 1_555 1_555
N4_18 C4_18 1_555 1_555

#END
