
###############################################################################
#
# This file contains modified crystal structure data generated from the
# MOF subset of the Cambridge Structural Database (CSD) v543 
# hosted by the Cambridge Crystallographic Data Centre (CCDC).
#
# This work is licensed under the Creative Commons
# Attribution-NonCommercial-ShareAlike 4.0 International License.
# To view a copy of this license, visit
# http://creativecommons.org/licenses/by-nc-sa/4.0/
# or send a letter to
# Creative Commons, PO Box 1866, Mountain View, CA 94042, USA.
#
# CIF created using the CSD Python API on 29 September 2022
# The structure has been converted into the P1 space group
# The structure has a 3D framework
# The original CSD entry ZOZHON is in the orthorhombic crystal system
# The framework has been calculated to contain at least 10.0% void space
# The void calculation uses a probe of radius 1.32A, grid spacing 0.4
#
###############################################################################

data_ZOZHON
_chemical_formula_moiety         '(C576 H288 Co16 N96 O192 Pr16)n'
_symmetry_cell_setting           triclinic
_symmetry_space_group_name_H-M   'P 1'
_symmetry_Int_Tables_number      1
_space_group_name_Hall           'P 1'
loop_
_symmetry_equiv_pos_site_id
_symmetry_equiv_pos_as_xyz
1 x,y,z
_cell_length_a                   23.316(5)
_cell_length_b                   28.011(6)
_cell_length_c                   36.079(7)
_cell_angle_alpha                90
_cell_angle_beta                 90
_cell_angle_gamma                90
_cell_volume                     23563.4
loop_
_atom_site_label
_atom_site_type_symbol
_atom_site_fract_x
_atom_site_fract_y
_atom_site_fract_z
Pr1 Pr 0.898376(9) 0.1250 0.1250
Co1 Co 0.6250 0.35740(2) 0.1250
O1 O 0.80900(12) 0.16687(9) 0.10009(8)
O2 O 0.83164(14) 0.18695(11) 0.15779(8)
O3 O 0.75033(18) 0.32028(18) 0.29450(10)
O4 O 0.67843(17) 0.36933(12) 0.31201(9)
O5 O 0.83431(18) 0.53170(16) 0.10511(15)
O6 O 0.7657(3) 0.57019(16) 0.13513(13)
N1 N 0.68206(13) 0.30733(10) 0.12180(7)
N2 N 0.64359(12) 0.35555(9) 0.17735(8)
N3 N 0.67980(13) 0.40881(10) 0.12030(8)
C1 C 0.69934(17) 0.28449(12) 0.09088(9)
C2 C 0.73809(17) 0.24715(14) 0.09209(10)
C3 C 0.75981(17) 0.23266(13) 0.12613(9)
C4 C 0.74250(15) 0.25633(11) 0.15810(9)
C5 C 0.70388(14) 0.29379(11) 0.15503(9)
C6 C 0.68400(14) 0.32263(10) 0.18632(9)
C7 C 0.70518(17) 0.31858(13) 0.22204(10)
C8 C 0.68331(16) 0.34848(14) 0.24933(10)
C9 C 0.64074(19) 0.38110(14) 0.24011(12)
C10 C 0.62247(17) 0.38429(14) 0.20401(11)
C11 C 0.80299(16) 0.19254(12) 0.12843(10)
C12 C 0.7063(2) 0.34531(17) 0.28885(11)
C13 C 0.73677(16) 0.40475(14) 0.11608(14)
C14 C 0.77212(18) 0.44451(18) 0.11492(16)
C15 C 0.7484(2) 0.48953(16) 0.11923(13)
C16 C 0.6897(2) 0.49394(14) 0.12322(11)
C17 C 0.65593(17) 0.45297(12) 0.12328(10)
C18 C 0.7858(3) 0.53404(19) 0.12043(15)
H1 H 0.6800 0.2968 0.0703
H2 H 0.7562 0.2339 0.0732
H3 H 0.7359 0.2975 0.2276
H4 H 0.7569 0.2470 0.1817
H5 H 0.6249 0.4019 0.2580
H6 H 0.5942 0.4031 0.1941
H7 H 0.7515 0.3715 0.1178
H8 H 0.8102 0.4382 0.1157
H9 H 0.6692 0.5211 0.1256
O7 O 0.41569(18) 0.53170(16) 0.14489(15)
O8 O 0.4843(3) 0.57019(16) 0.11487(13)
N4 N 0.57020(13) 0.40881(10) 0.12970(8)
C19 C 0.51323(16) 0.40475(14) 0.13392(14)
C20 C 0.47788(18) 0.44451(18) 0.13508(16)
C21 C 0.5016(2) 0.48953(16) 0.13077(13)
C22 C 0.5603(2) 0.49394(14) 0.12678(11)
C23 C 0.59407(17) 0.45297(12) 0.12672(10)
C24 C 0.4642(3) 0.53404(19) 0.12957(15)
H10 H 0.4985 0.3715 0.1322
H11 H 0.4398 0.4382 0.1343
H12 H 0.5808 0.5211 0.1244
O9 O 0.80900(12) 0.08313(9) 0.14991(8)
O10 O 0.83164(14) 0.06305(11) 0.09221(8)
C26 C 0.73809(17) 0.00285(14) 0.15791(10)
C27 C 0.75981(17) 0.01734(13) 0.12387(9)
C35 C 0.80299(16) 0.05746(12) 0.12157(10)
H14 H 0.7562 0.0161 0.1768
H16 H 0.7569 0.0030 0.0683
Pr3 Pr 0.851624(9) 0.6250 0.1250
Pr4 Pr 0.398376(9) 0.6250 0.1250
Pr5 Pr 0.648376(9) 0.3750 0.3750
O13 O 0.92843(17) 0.11933(12) 0.18799(9)
O14 O 0.92843(17) 0.13067(12) 0.06201(9)
O15 O 0.91569(18) 0.21830(16) 0.10511(15)
O16 O 0.91569(18) 0.03170(16) 0.14489(15)
O17 O 0.9843(3) 0.17981(16) 0.13513(13)
O18 O 0.9843(3) 0.07019(16) 0.11487(13)
N7 N 0.56794(13) 0.30733(10) 0.12820(7)
N8 N 0.60641(12) 0.35555(9) 0.07265(8)
N5 N 0.68206(13) 0.94267(10) 0.12820(7)
N6 N 0.64359(12) 0.89445(9) 0.07265(8)
C25 C 0.69934(17) 0.96551(12) 0.15912(9)
C28 C 0.74250(15) 0.99367(11) 0.09190(9)
C29 C 0.70388(14) 0.95621(11) 0.09497(9)
C30 C 0.68400(14) 0.92737(10) 0.06368(9)
C31 C 0.70518(17) 0.93142(13) 0.02796(10)
C32 C 0.68331(16) 0.90152(14) 0.00067(10)
C33 C 0.64074(19) 0.86890(14) 0.00989(12)
C34 C 0.62247(17) 0.86571(14) 0.04599(11)
H13 H 0.6800 0.9532 0.1797
H15 H 0.7359 0.9525 0.0224
H18 H 0.5942 0.8469 0.0559
Co2 Co 0.6250 0.89260(2) 0.1250
O11 O 0.75033(18) 0.92972(18) 0.95550(10)
O12 O 0.67843(17) 0.88067(12) 0.93799(9)
C36 C 0.7063(2) 0.90469(17) 0.96115(11)
H17 H 0.6249 0.8481 0.9920
Pr2 Pr 0.648376(9) 0.8750 0.8750
Pr1_2 Pr 0.351624(9) 0.6250 0.6250
Co1_2 Co 0.6250 0.39260(2) 0.6250
O1_2 O 0.44100(12) 0.58313(9) 0.60009(8)
O2_2 O 0.41836(14) 0.56305(11) 0.65779(8)
O3_2 O 0.49967(18) 0.42972(18) 0.79450(10)
O4_2 O 0.57157(17) 0.38067(12) 0.81201(9)
O5_2 O 0.41569(18) 0.21830(16) 0.60511(15)
O6_2 O 0.4843(3) 0.17981(16) 0.63513(13)
N1_2 N 0.56794(13) 0.44267(10) 0.62180(7)
N2_2 N 0.60641(12) 0.39445(9) 0.67735(8)
N3_2 N 0.57020(13) 0.34119(10) 0.62030(8)
C1_2 C 0.55066(17) 0.46551(12) 0.59088(9)
C2_2 C 0.51191(17) 0.50285(14) 0.59209(10)
C3_2 C 0.49019(17) 0.51734(13) 0.62613(9)
C4_2 C 0.50750(15) 0.49367(11) 0.65810(9)
C5_2 C 0.54612(14) 0.45621(11) 0.65503(9)
C6_2 C 0.56600(14) 0.42737(10) 0.68632(9)
C7_2 C 0.54482(17) 0.43142(13) 0.72204(10)
C8_2 C 0.56669(16) 0.40152(14) 0.74933(10)
C9_2 C 0.60926(19) 0.36890(14) 0.74011(12)
C10_2 C 0.62753(17) 0.36571(14) 0.70401(11)
C11_2 C 0.44701(16) 0.55746(12) 0.62843(10)
C12_2 C 0.5437(2) 0.40469(17) 0.78885(11)
C13_2 C 0.51323(16) 0.34525(14) 0.61608(14)
C14_2 C 0.47788(18) 0.30549(18) 0.61492(16)
C15_2 C 0.5016(2) 0.26047(16) 0.61923(13)
C16_2 C 0.5603(2) 0.25606(14) 0.62322(11)
C17_2 C 0.59407(17) 0.29703(12) 0.62328(10)
C18_2 C 0.4642(3) 0.21596(19) 0.62043(15)
H1_2 H 0.5700 0.4532 0.5703
H2_2 H 0.4938 0.5161 0.5732
H3_2 H 0.5141 0.4525 0.7276
H4_2 H 0.4931 0.5030 0.6817
H5_2 H 0.6251 0.3481 0.7580
H6_2 H 0.6558 0.3469 0.6941
H7_2 H 0.4985 0.3785 0.6178
H8_2 H 0.4398 0.3118 0.6157
H9_2 H 0.5808 0.2289 0.6256
O7_2 O 0.83431(18) 0.21830(16) 0.64489(15)
O8_2 O 0.7657(3) 0.17981(16) 0.61487(13)
N4_2 N 0.67980(13) 0.34119(10) 0.62970(8)
C19_2 C 0.73677(16) 0.34525(14) 0.63392(14)
C20_2 C 0.77212(18) 0.30549(18) 0.63508(16)
C21_2 C 0.7484(2) 0.26047(16) 0.63077(13)
C22_2 C 0.6897(2) 0.25606(14) 0.62678(11)
C23_2 C 0.65593(17) 0.29703(12) 0.62672(10)
C24_2 C 0.7858(3) 0.21596(19) 0.62957(15)
H10_2 H 0.7515 0.3785 0.6322
H11_2 H 0.8102 0.3118 0.6343
H12_2 H 0.6692 0.2289 0.6244
O9_2 O 0.44100(12) 0.66687(9) 0.64991(8)
O10_2 O 0.41836(14) 0.68695(11) 0.59221(8)
O11_2 O 0.49967(18) 0.82028(18) 0.45550(10)
O12_2 O 0.57157(17) 0.86933(12) 0.43799(9)
N5_2 N 0.56794(13) 0.80733(10) 0.62820(7)
N6_2 N 0.60641(12) 0.85555(9) 0.57265(8)
C25_2 C 0.55066(17) 0.78449(12) 0.65912(9)
C26_2 C 0.51191(17) 0.74715(14) 0.65791(10)
C27_2 C 0.49019(17) 0.73266(13) 0.62387(9)
C28_2 C 0.50750(15) 0.75633(11) 0.59190(9)
C29_2 C 0.54612(14) 0.79379(11) 0.59497(9)
C30_2 C 0.56600(14) 0.82263(10) 0.56368(9)
C31_2 C 0.54482(17) 0.81858(13) 0.52796(10)
C32_2 C 0.56669(16) 0.84848(14) 0.50067(10)
C33_2 C 0.60926(19) 0.88110(14) 0.50989(12)
C34_2 C 0.62753(17) 0.88429(14) 0.54599(11)
C35_2 C 0.44701(16) 0.69254(12) 0.62157(10)
C36_2 C 0.5437(2) 0.84531(17) 0.46115(11)
H13_2 H 0.5700 0.7968 0.6797
H14_2 H 0.4938 0.7339 0.6768
H15_2 H 0.5141 0.7975 0.5224
H16_2 H 0.4931 0.7470 0.5683
H17_2 H 0.6251 0.9019 0.4920
H18_2 H 0.6558 0.9031 0.5559
Pr2_2 Pr 0.601624(9) 0.8750 0.3750
Pr3_2 Pr 0.398376(9) 0.1250 0.6250
Pr4_2 Pr 0.851624(9) 0.1250 0.6250
Pr5_2 Pr 0.601624(9) 0.3750 0.8750
Co2_2 Co 0.6250 0.85740(2) 0.6250
O13_2 O 0.32157(17) 0.63067(12) 0.68799(9)
O14_2 O 0.32157(17) 0.61933(12) 0.56201(9)
O15_2 O 0.33431(18) 0.53170(16) 0.60511(15)
O16_2 O 0.33431(18) 0.71830(16) 0.64489(15)
O17_2 O 0.2657(3) 0.57019(16) 0.63513(13)
O18_2 O 0.2657(3) 0.67981(16) 0.61487(13)
N7_2 N 0.68206(13) 0.44267(10) 0.62820(7)
N8_2 N 0.64359(12) 0.39445(9) 0.57265(8)
O5_3 O 0.83431(18) 0.71830(16) 0.14489(15)
O6_3 O 0.7657(3) 0.67981(16) 0.11487(13)
N3_3 N 0.67980(13) 0.84119(10) 0.12970(8)
C13_3 C 0.73677(16) 0.84525(14) 0.13392(14)
C14_3 C 0.77212(18) 0.80549(18) 0.13508(16)
C15_3 C 0.7484(2) 0.76047(16) 0.13077(13)
C16_3 C 0.6897(2) 0.75606(14) 0.12678(11)
C17_3 C 0.65593(17) 0.79703(12) 0.12672(10)
C18_3 C 0.7858(3) 0.71596(19) 0.12957(15)
H7_3 H 0.7515 0.8785 0.1322
H8_3 H 0.8102 0.8118 0.1343
H9_3 H 0.6692 0.7289 0.1244
O7_3 O 0.41569(18) 0.71830(16) 0.10511(15)
O8_3 O 0.4843(3) 0.67981(16) 0.13513(13)
N4_3 N 0.57020(13) 0.84119(10) 0.12030(8)
C19_3 C 0.51323(16) 0.84525(14) 0.11608(14)
C20_3 C 0.47788(18) 0.80549(18) 0.11492(16)
C21_3 C 0.5016(2) 0.76047(16) 0.11923(13)
C22_3 C 0.5603(2) 0.75606(14) 0.12322(11)
C23_3 C 0.59407(17) 0.79703(12) 0.12328(10)
C24_3 C 0.4642(3) 0.71596(19) 0.12043(15)
H10_3 H 0.4985 0.8785 0.1178
H11_3 H 0.4398 0.8118 0.1157
H12_3 H 0.5808 0.7289 0.1256
N7_3 N 0.56794(13) 0.94267(10) 0.12180(7)
N8_3 N 0.60641(12) 0.89445(9) 0.17735(8)
Pr1_3 Pr 0.351624(9) 0.1250 0.1250
O1_3 O 0.44100(12) 0.16687(9) 0.14991(8)
O2_3 O 0.41836(14) 0.18695(11) 0.09221(8)
C1_3 C 0.55066(17) 0.28449(12) 0.15912(9)
C2_3 C 0.51191(17) 0.24715(14) 0.15791(10)
C3_3 C 0.49019(17) 0.23266(13) 0.12387(9)
C4_3 C 0.50750(15) 0.25633(11) 0.09190(9)
C5_3 C 0.54612(14) 0.29379(11) 0.09497(9)
C6_3 C 0.56600(14) 0.32263(10) 0.06368(9)
C7_3 C 0.54482(17) 0.31858(13) 0.02796(10)
C8_3 C 0.56669(16) 0.34848(14) 0.00067(10)
C9_3 C 0.60926(19) 0.38110(14) 0.00989(12)
C10_3 C 0.62753(17) 0.38429(14) 0.04599(11)
C11_3 C 0.44701(16) 0.19254(12) 0.12157(10)
H1_3 H 0.5700 0.2968 0.1797
H2_3 H 0.4938 0.2339 0.1768
H3_3 H 0.5141 0.2975 0.0224
H4_3 H 0.4931 0.2470 0.0683
H6_3 H 0.6558 0.4031 0.0559
O9_3 O 0.44100(12) 0.08313(9) 0.10009(8)
O10_3 O 0.41836(14) 0.06305(11) 0.15779(8)
C26_3 C 0.51191(17) 0.00285(14) 0.09209(10)
C27_3 C 0.49019(17) 0.01734(13) 0.12613(9)
C35_3 C 0.44701(16) 0.05746(12) 0.12843(10)
H14_3 H 0.4938 0.0161 0.0732
H16_3 H 0.4931 0.0030 0.1817
O13_3 O 0.32157(17) 0.11933(12) 0.06201(9)
O14_3 O 0.32157(17) 0.13067(12) 0.18799(9)
O15_3 O 0.33431(18) 0.21830(16) 0.14489(15)
O16_3 O 0.33431(18) 0.03170(16) 0.10511(15)
O17_3 O 0.2657(3) 0.17981(16) 0.11487(13)
O18_3 O 0.2657(3) 0.07019(16) 0.13513(13)
O3_3 O 0.49967(18) 0.32028(18) 0.95550(10)
O4_3 O 0.57157(17) 0.36933(12) 0.93799(9)
C12_3 C 0.5437(2) 0.34531(17) 0.96115(11)
H5_3 H 0.6251 0.4019 0.9920
O11_3 O 0.49967(18) 0.92972(18) 0.29450(10)
O12_3 O 0.57157(17) 0.88067(12) 0.31201(9)
C25_3 C 0.55066(17) 0.96551(12) 0.09088(9)
C28_3 C 0.50750(15) 0.99367(11) 0.15810(9)
C29_3 C 0.54612(14) 0.95621(11) 0.15503(9)
C30_3 C 0.56600(14) 0.92737(10) 0.18632(9)
C31_3 C 0.54482(17) 0.93142(13) 0.22204(10)
C32_3 C 0.56669(16) 0.90152(14) 0.24933(10)
C33_3 C 0.60926(19) 0.86890(14) 0.24011(12)
C34_3 C 0.62753(17) 0.86571(14) 0.20401(11)
C36_3 C 0.5437(2) 0.90469(17) 0.28885(11)
H13_3 H 0.5700 0.9532 0.0703
H15_3 H 0.5141 0.9525 0.2276
H17_3 H 0.6251 0.8481 0.2580
H18_3 H 0.6558 0.8469 0.1941
O5_4 O 0.83431(18) 0.03170(16) 0.60511(15)
O6_4 O 0.7657(3) 0.07019(16) 0.63513(13)
C18_4 C 0.7858(3) 0.03404(19) 0.62043(15)
H9_4 H 0.6692 0.0211 0.6256
O7_4 O 0.41569(18) 0.03170(16) 0.64489(15)
O8_4 O 0.4843(3) 0.07019(16) 0.61487(13)
C24_4 C 0.4642(3) 0.03404(19) 0.62957(15)
H12_4 H 0.5808 0.0211 0.6244
Pr1_4 Pr 0.898376(9) 0.6250 0.6250
O1_4 O 0.80900(12) 0.66687(9) 0.60009(8)
O2_4 O 0.83164(14) 0.68695(11) 0.65779(8)
O3_4 O 0.75033(18) 0.82028(18) 0.79450(10)
O4_4 O 0.67843(17) 0.86933(12) 0.81201(9)
N1_3 N 0.68206(13) 0.80733(10) 0.62180(7)
N2_3 N 0.64359(12) 0.85555(9) 0.67735(8)
N3_4 N 0.67980(13) 0.90881(10) 0.62030(8)
C1_4 C 0.69934(17) 0.78449(12) 0.59088(9)
C2_4 C 0.73809(17) 0.74715(14) 0.59209(10)
C3_4 C 0.75981(17) 0.73266(13) 0.62613(9)
C4_4 C 0.74250(15) 0.75633(11) 0.65810(9)
C5_4 C 0.70388(14) 0.79379(11) 0.65503(9)
C6_4 C 0.68400(14) 0.82263(10) 0.68632(9)
C7_4 C 0.70518(17) 0.81858(13) 0.72204(10)
C8_4 C 0.68331(16) 0.84848(14) 0.74933(10)
C9_4 C 0.64074(19) 0.88110(14) 0.74011(12)
C10_4 C 0.62247(17) 0.88429(14) 0.70401(11)
C11_4 C 0.80299(16) 0.69254(12) 0.62843(10)
C12_4 C 0.7063(2) 0.84531(17) 0.78885(11)
C13_4 C 0.73677(16) 0.90475(14) 0.61608(14)
C14_4 C 0.77212(18) 0.94451(18) 0.61492(16)
C15_4 C 0.7484(2) 0.98953(16) 0.61923(13)
C16_4 C 0.6897(2) 0.99394(14) 0.62322(11)
C17_4 C 0.65593(17) 0.95297(12) 0.62328(10)
H1_4 H 0.6800 0.7968 0.5703
H2_4 H 0.7562 0.7339 0.5732
H3_4 H 0.7359 0.7975 0.7276
H4_4 H 0.7569 0.7470 0.6817
H5_4 H 0.6249 0.9019 0.7580
H6_4 H 0.5942 0.9031 0.6941
H7_4 H 0.7515 0.8715 0.6178
H8_4 H 0.8102 0.9382 0.6157
N4_4 N 0.57020(13) 0.90881(10) 0.62970(8)
C19_4 C 0.51323(16) 0.90475(14) 0.63392(14)
C20_4 C 0.47788(18) 0.94451(18) 0.63508(16)
C21_4 C 0.5016(2) 0.98953(16) 0.63077(13)
C22_4 C 0.5603(2) 0.99394(14) 0.62678(11)
C23_4 C 0.59407(17) 0.95297(12) 0.62672(10)
H10_4 H 0.4985 0.8715 0.6322
H11_4 H 0.4398 0.9382 0.6343
O9_4 O 0.80900(12) 0.58313(9) 0.64991(8)
O10_4 O 0.83164(14) 0.56305(11) 0.59221(8)
O11_4 O 0.75033(18) 0.42972(18) 0.45550(10)
O12_4 O 0.67843(17) 0.38067(12) 0.43799(9)
C25_4 C 0.69934(17) 0.46551(12) 0.65912(9)
C26_4 C 0.73809(17) 0.50285(14) 0.65791(10)
C27_4 C 0.75981(17) 0.51734(13) 0.62387(9)
C28_4 C 0.74250(15) 0.49367(11) 0.59190(9)
C29_4 C 0.70388(14) 0.45621(11) 0.59497(9)
C30_4 C 0.68400(14) 0.42737(10) 0.56368(9)
C31_4 C 0.70518(17) 0.43142(13) 0.52796(10)
C32_4 C 0.68331(16) 0.40152(14) 0.50067(10)
C33_4 C 0.64074(19) 0.36890(14) 0.50989(12)
C34_4 C 0.62247(17) 0.36571(14) 0.54599(11)
C35_4 C 0.80299(16) 0.55746(12) 0.62157(10)
C36_4 C 0.7063(2) 0.40469(17) 0.46115(11)
H13_4 H 0.6800 0.4532 0.6797
H14_4 H 0.7562 0.5161 0.6768
H15_4 H 0.7359 0.4525 0.5224
H16_4 H 0.7569 0.5030 0.5683
H17_4 H 0.6249 0.3481 0.4920
H18_4 H 0.5942 0.3469 0.5559
O13_4 O 0.92843(17) 0.61933(12) 0.68799(9)
O14_4 O 0.92843(17) 0.63067(12) 0.56201(9)
O15_4 O 0.91569(18) 0.71830(16) 0.60511(15)
O16_4 O 0.91569(18) 0.53170(16) 0.64489(15)
O17_4 O 0.9843(3) 0.67981(16) 0.63513(13)
O18_4 O 0.9843(3) 0.57019(16) 0.61487(13)
Co1_3 Co 0.1250 0.35740(2) 0.6250
O1_5 O 0.30900(12) 0.16687(9) 0.60009(8)
O2_5 O 0.33164(14) 0.18695(11) 0.65779(8)
O3_5 O 0.25033(18) 0.32028(18) 0.79450(10)
O4_5 O 0.17843(17) 0.36933(12) 0.81201(9)
N1_4 N 0.18206(13) 0.30733(10) 0.62180(7)
N2_4 N 0.14359(12) 0.35555(9) 0.67735(8)
N3_5 N 0.17980(13) 0.40881(10) 0.62030(8)
C1_5 C 0.19934(17) 0.28449(12) 0.59088(9)
C2_5 C 0.23809(17) 0.24715(14) 0.59209(10)
C3_5 C 0.25981(17) 0.23266(13) 0.62613(9)
C4_5 C 0.24250(15) 0.25633(11) 0.65810(9)
C5_5 C 0.20388(14) 0.29379(11) 0.65503(9)
C6_5 C 0.18400(14) 0.32263(10) 0.68632(9)
C7_5 C 0.20518(17) 0.31858(13) 0.72204(10)
C8_5 C 0.18331(16) 0.34848(14) 0.74933(10)
C9_5 C 0.14074(19) 0.38110(14) 0.74011(12)
C10_5 C 0.12247(17) 0.38429(14) 0.70401(11)
C11_5 C 0.30299(16) 0.19254(12) 0.62843(10)
C12_5 C 0.2063(2) 0.34531(17) 0.78885(11)
C13_5 C 0.23677(16) 0.40475(14) 0.61608(14)
C14_5 C 0.27212(18) 0.44451(18) 0.61492(16)
C15_5 C 0.2484(2) 0.48953(16) 0.61923(13)
C16_5 C 0.1897(2) 0.49394(14) 0.62322(11)
C17_5 C 0.15593(17) 0.45297(12) 0.62328(10)
C18_5 C 0.2858(3) 0.53404(19) 0.62043(15)
H1_5 H 0.1800 0.2968 0.5703
H2_5 H 0.2562 0.2339 0.5732
H3_5 H 0.2359 0.2975 0.7276
H4_5 H 0.2569 0.2470 0.6817
H5_5 H 0.1249 0.4019 0.7580
H6_5 H 0.0942 0.4031 0.6941
H7_5 H 0.2515 0.3715 0.6178
H8_5 H 0.3102 0.4382 0.6157
H9_5 H 0.1692 0.5211 0.6256
N4_5 N 0.07020(13) 0.40881(10) 0.62970(8)
C19_5 C 0.01323(16) 0.40475(14) 0.63392(14)
C21_5 C 0.0016(2) 0.48953(16) 0.63077(13)
C22_5 C 0.0603(2) 0.49394(14) 0.62678(11)
C23_5 C 0.09407(17) 0.45297(12) 0.62672(10)
H12_5 H 0.0808 0.5211 0.6244
O9_5 O 0.30900(12) 0.08313(9) 0.64991(8)
O10_5 O 0.33164(14) 0.06305(11) 0.59221(8)
C26_5 C 0.23809(17) 0.00285(14) 0.65791(10)
C27_5 C 0.25981(17) 0.01734(13) 0.62387(9)
C35_5 C 0.30299(16) 0.05746(12) 0.62157(10)
H14_5 H 0.2562 0.0161 0.6768
H16_5 H 0.2569 0.0030 0.5683
Pr5_3 Pr 0.148376(9) 0.3750 0.8750
O13_5 O 0.42843(17) 0.11933(12) 0.68799(9)
O14_5 O 0.42843(17) 0.13067(12) 0.56201(9)
N7_4 N 0.06794(13) 0.30733(10) 0.62820(7)
N8_4 N 0.10641(12) 0.35555(9) 0.57265(8)
O11_5 O 0.25033(18) 0.92972(18) 0.45550(10)
O12_5 O 0.17843(17) 0.88067(12) 0.43799(9)
N5_3 N 0.18206(13) 0.94267(10) 0.62820(7)
N6_3 N 0.14359(12) 0.89445(9) 0.57265(8)
C25_5 C 0.19934(17) 0.96551(12) 0.65912(9)
C28_5 C 0.24250(15) 0.99367(11) 0.59190(9)
C29_5 C 0.20388(14) 0.95621(11) 0.59497(9)
C30_5 C 0.18400(14) 0.92737(10) 0.56368(9)
C31_5 C 0.20518(17) 0.93142(13) 0.52796(10)
C32_5 C 0.18331(16) 0.90152(14) 0.50067(10)
C33_5 C 0.14074(19) 0.86890(14) 0.50989(12)
C34_5 C 0.12247(17) 0.86571(14) 0.54599(11)
C36_5 C 0.2063(2) 0.90469(17) 0.46115(11)
H13_5 H 0.1800 0.9532 0.6797
H15_5 H 0.2359 0.9525 0.5224
H17_5 H 0.1249 0.8481 0.4920
H18_5 H 0.0942 0.8469 0.5559
Pr2_3 Pr 0.148376(9) 0.8750 0.3750
Co2_3 Co 0.1250 0.89260(2) 0.6250
C20_5 C 0.97788(18) 0.44451(18) 0.63508(16)
C24_5 C 0.9642(3) 0.53404(19) 0.62957(15)
H10_5 H 0.9985 0.3715 0.6322
H11_5 H 0.9398 0.4382 0.6343
Co1_4 Co 0.1250 0.39260(2) 0.1250
O4_6 O 0.07157(17) 0.38067(12) 0.31201(9)
N1_5 N 0.06794(13) 0.44267(10) 0.12180(7)
N2_5 N 0.10641(12) 0.39445(9) 0.17735(8)
N3_6 N 0.07020(13) 0.34119(10) 0.12030(8)
C1_6 C 0.05066(17) 0.46551(12) 0.09088(9)
C2_6 C 0.01191(17) 0.50285(14) 0.09209(10)
C4_6 C 0.00750(15) 0.49367(11) 0.15810(9)
C5_6 C 0.04612(14) 0.45621(11) 0.15503(9)
C6_6 C 0.06600(14) 0.42737(10) 0.18632(9)
C7_6 C 0.04482(17) 0.43142(13) 0.22204(10)
C8_6 C 0.06669(16) 0.40152(14) 0.24933(10)
C9_6 C 0.10926(19) 0.36890(14) 0.24011(12)
C10_6 C 0.12753(17) 0.36571(14) 0.20401(11)
C12_6 C 0.0437(2) 0.40469(17) 0.28885(11)
C13_6 C 0.01323(16) 0.34525(14) 0.11608(14)
C15_6 C 0.0016(2) 0.26047(16) 0.11923(13)
C16_6 C 0.0603(2) 0.25606(14) 0.12322(11)
C17_6 C 0.09407(17) 0.29703(12) 0.12328(10)
H1_6 H 0.0700 0.4532 0.0703
H3_6 H 0.0141 0.4525 0.2276
H5_6 H 0.1251 0.3481 0.2580
H6_6 H 0.1558 0.3469 0.1941
H9_6 H 0.0808 0.2289 0.1256
N4_6 N 0.17980(13) 0.34119(10) 0.12970(8)
C19_6 C 0.23677(16) 0.34525(14) 0.13392(14)
C20_6 C 0.27212(18) 0.30549(18) 0.13508(16)
C21_6 C 0.2484(2) 0.26047(16) 0.13077(13)
C22_6 C 0.1897(2) 0.25606(14) 0.12678(11)
C23_6 C 0.15593(17) 0.29703(12) 0.12672(10)
C24_6 C 0.2858(3) 0.21596(19) 0.12957(15)
H10_6 H 0.2515 0.3785 0.1322
H11_6 H 0.3102 0.3118 0.1343
H12_6 H 0.1692 0.2289 0.1244
N5_4 N 0.06794(13) 0.80733(10) 0.12820(7)
N6_4 N 0.10641(12) 0.85555(9) 0.07265(8)
C25_6 C 0.05066(17) 0.78449(12) 0.15912(9)
C26_6 C 0.01191(17) 0.74715(14) 0.15791(10)
C28_6 C 0.00750(15) 0.75633(11) 0.09190(9)
C29_6 C 0.04612(14) 0.79379(11) 0.09497(9)
C30_6 C 0.06600(14) 0.82263(10) 0.06368(9)
C31_6 C 0.04482(17) 0.81858(13) 0.02796(10)
C32_6 C 0.06669(16) 0.84848(14) 0.00067(10)
C33_6 C 0.10926(19) 0.88110(14) 0.00989(12)
C34_6 C 0.12753(17) 0.88429(14) 0.04599(11)
H13_6 H 0.0700 0.7968 0.1797
H15_6 H 0.0141 0.7975 0.0224
H18_6 H 0.1558 0.9031 0.0559
Pr5_4 Pr 0.101624(9) 0.3750 0.3750
Co2_4 Co 0.1250 0.85740(2) 0.1250
N7_5 N 0.18206(13) 0.44267(10) 0.12820(7)
N8_5 N 0.14359(12) 0.39445(9) 0.07265(8)
O12_6 O 0.07157(17) 0.86933(12) 0.93799(9)
C36_6 C 0.0437(2) 0.84531(17) 0.96115(11)
H17_6 H 0.1251 0.9019 0.9920
Pr2_4 Pr 0.101624(9) 0.8750 0.8750
O1_6 O 0.94100(12) 0.58313(9) 0.10009(8)
O2_6 O 0.91836(14) 0.56305(11) 0.15779(8)
O3_6 O 0.99967(18) 0.42972(18) 0.29450(10)
C3_6 C 0.99019(17) 0.51734(13) 0.12613(9)
C11_6 C 0.94701(16) 0.55746(12) 0.12843(10)
C14_6 C 0.97788(18) 0.30549(18) 0.11492(16)
C18_6 C 0.9642(3) 0.21596(19) 0.12043(15)
H2_6 H 0.9938 0.5161 0.0732
H4_6 H 0.9931 0.5030 0.1817
H7_6 H 0.9985 0.3785 0.1178
H8_6 H 0.9398 0.3118 0.1157
O9_6 O 0.94100(12) 0.66687(9) 0.14991(8)
O10_6 O 0.91836(14) 0.68695(11) 0.09221(8)
C27_6 C 0.99019(17) 0.73266(13) 0.12387(9)
C35_6 C 0.94701(16) 0.69254(12) 0.12157(10)
H14_6 H 0.9938 0.7339 0.1768
H16_6 H 0.9931 0.7470 0.0683
O13_6 O 0.82157(17) 0.63067(12) 0.18799(9)
O14_6 O 0.82157(17) 0.61933(12) 0.06201(9)
N3_7 N 0.17980(13) 0.84119(10) 0.62970(8)
C13_7 C 0.23677(16) 0.84525(14) 0.63392(14)
C14_7 C 0.27212(18) 0.80549(18) 0.63508(16)
C15_7 C 0.2484(2) 0.76047(16) 0.63077(13)
C16_7 C 0.1897(2) 0.75606(14) 0.62678(11)
C17_7 C 0.15593(17) 0.79703(12) 0.62672(10)
C18_7 C 0.2858(3) 0.71596(19) 0.62957(15)
H7_7 H 0.2515 0.8785 0.6322
H8_7 H 0.3102 0.8118 0.6343
H9_7 H 0.1692 0.7289 0.6244
N4_7 N 0.07020(13) 0.84119(10) 0.62030(8)
C19_7 C 0.01323(16) 0.84525(14) 0.61608(14)
C21_7 C 0.0016(2) 0.76047(16) 0.61923(13)
C22_7 C 0.0603(2) 0.75606(14) 0.62322(11)
C23_7 C 0.09407(17) 0.79703(12) 0.62328(10)
H12_7 H 0.0808 0.7289 0.6256
N7_6 N 0.06794(13) 0.94267(10) 0.62180(7)
N8_6 N 0.10641(12) 0.89445(9) 0.67735(8)
C20_7 C 0.97788(18) 0.80549(18) 0.61492(16)
C24_7 C 0.9642(3) 0.71596(19) 0.62043(15)
H10_7 H 0.9985 0.8785 0.6178
H11_7 H 0.9398 0.8118 0.6157
O4_7 O 0.07157(17) 0.36933(12) 0.43799(9)
C1_7 C 0.05066(17) 0.28449(12) 0.65912(9)
C2_7 C 0.01191(17) 0.24715(14) 0.65791(10)
C4_7 C 0.00750(15) 0.25633(11) 0.59190(9)
C5_7 C 0.04612(14) 0.29379(11) 0.59497(9)
C6_7 C 0.06600(14) 0.32263(10) 0.56368(9)
C7_7 C 0.04482(17) 0.31858(13) 0.52796(10)
C8_7 C 0.06669(16) 0.34848(14) 0.50067(10)
C9_7 C 0.10926(19) 0.38110(14) 0.50989(12)
C10_7 C 0.12753(17) 0.38429(14) 0.54599(11)
C12_7 C 0.0437(2) 0.34531(17) 0.46115(11)
H1_7 H 0.0700 0.2968 0.6797
H3_7 H 0.0141 0.2975 0.5224
H5_7 H 0.1251 0.4019 0.4920
H6_7 H 0.1558 0.4031 0.5559
C26_7 C 0.01191(17) 0.00285(14) 0.59209(10)
O12_7 O 0.07157(17) 0.88067(12) 0.81201(9)
C25_7 C 0.05066(17) 0.96551(12) 0.59088(9)
C28_7 C 0.00750(15) 0.99367(11) 0.65810(9)
C29_7 C 0.04612(14) 0.95621(11) 0.65503(9)
C30_7 C 0.06600(14) 0.92737(10) 0.68632(9)
C31_7 C 0.04482(17) 0.93142(13) 0.72204(10)
C32_7 C 0.06669(16) 0.90152(14) 0.74933(10)
C33_7 C 0.10926(19) 0.86890(14) 0.74011(12)
C34_7 C 0.12753(17) 0.86571(14) 0.70401(11)
C36_7 C 0.0437(2) 0.90469(17) 0.78885(11)
H13_7 H 0.0700 0.9532 0.5703
H15_7 H 0.0141 0.9525 0.7276
H17_7 H 0.1251 0.8481 0.7580
H18_7 H 0.1558 0.8469 0.6941
O1_7 O 0.94100(12) 0.16687(9) 0.64991(8)
O2_7 O 0.91836(14) 0.18695(11) 0.59221(8)
O3_7 O 0.99967(18) 0.32028(18) 0.45550(10)
C3_7 C 0.99019(17) 0.23266(13) 0.62387(9)
C11_7 C 0.94701(16) 0.19254(12) 0.62157(10)
H2_7 H 0.9938 0.2339 0.6768
H4_7 H 0.9931 0.2470 0.5683
O9_7 O 0.94100(12) 0.08313(9) 0.60009(8)
O10_7 O 0.91836(14) 0.06305(11) 0.65779(8)
C27_7 C 0.99019(17) 0.01734(13) 0.62613(9)
C35_7 C 0.94701(16) 0.05746(12) 0.62843(10)
H14_7 H 0.9938 0.0161 0.5732
H16_7 H 0.9931 0.0030 0.6817
O13_7 O 0.82157(17) 0.11933(12) 0.56201(9)
O14_7 O 0.82157(17) 0.13067(12) 0.68799(9)
O11_6 O 0.99967(18) 0.92972(18) 0.79450(10)
C18_8 C 0.2858(3) 0.03404(19) 0.12043(15)
H9_8 H 0.1692 0.0211 0.1256
H12_8 H 0.0808 0.0211 0.1244
O1_8 O 0.30900(12) 0.66687(9) 0.10009(8)
O2_8 O 0.33164(14) 0.68695(11) 0.15779(8)
O3_8 O 0.25033(18) 0.82028(18) 0.29450(10)
O4_8 O 0.17843(17) 0.86933(12) 0.31201(9)
N1_6 N 0.18206(13) 0.80733(10) 0.12180(7)
N2_6 N 0.14359(12) 0.85555(9) 0.17735(8)
N3_8 N 0.17980(13) 0.90881(10) 0.12030(8)
C1_8 C 0.19934(17) 0.78449(12) 0.09088(9)
C2_8 C 0.23809(17) 0.74715(14) 0.09209(10)
C3_8 C 0.25981(17) 0.73266(13) 0.12613(9)
C4_8 C 0.24250(15) 0.75633(11) 0.15810(9)
C5_8 C 0.20388(14) 0.79379(11) 0.15503(9)
C6_8 C 0.18400(14) 0.82263(10) 0.18632(9)
C7_8 C 0.20518(17) 0.81858(13) 0.22204(10)
C8_8 C 0.18331(16) 0.84848(14) 0.24933(10)
C9_8 C 0.14074(19) 0.88110(14) 0.24011(12)
C10_8 C 0.12247(17) 0.88429(14) 0.20401(11)
C11_8 C 0.30299(16) 0.69254(12) 0.12843(10)
C12_8 C 0.2063(2) 0.84531(17) 0.28885(11)
C13_8 C 0.23677(16) 0.90475(14) 0.11608(14)
C14_8 C 0.27212(18) 0.94451(18) 0.11492(16)
C15_8 C 0.2484(2) 0.98953(16) 0.11923(13)
C16_8 C 0.1897(2) 0.99394(14) 0.12322(11)
C17_8 C 0.15593(17) 0.95297(12) 0.12328(10)
H1_8 H 0.1800 0.7968 0.0703
H2_8 H 0.2562 0.7339 0.0732
H3_8 H 0.2359 0.7975 0.2276
H4_8 H 0.2569 0.7470 0.1817
H5_8 H 0.1249 0.9019 0.2580
H6_8 H 0.0942 0.9031 0.1941
H7_8 H 0.2515 0.8715 0.1178
H8_8 H 0.3102 0.9382 0.1157
N4_8 N 0.07020(13) 0.90881(10) 0.12970(8)
C19_8 C 0.01323(16) 0.90475(14) 0.13392(14)
C21_8 C 0.0016(2) 0.98953(16) 0.13077(13)
C22_8 C 0.0603(2) 0.99394(14) 0.12678(11)
C23_8 C 0.09407(17) 0.95297(12) 0.12672(10)
O9_8 O 0.30900(12) 0.58313(9) 0.14991(8)
O10_8 O 0.33164(14) 0.56305(11) 0.09221(8)
C25_8 C 0.19934(17) 0.46551(12) 0.15912(9)
C26_8 C 0.23809(17) 0.50285(14) 0.15791(10)
C27_8 C 0.25981(17) 0.51734(13) 0.12387(9)
C28_8 C 0.24250(15) 0.49367(11) 0.09190(9)
C29_8 C 0.20388(14) 0.45621(11) 0.09497(9)
C30_8 C 0.18400(14) 0.42737(10) 0.06368(9)
C31_8 C 0.20518(17) 0.43142(13) 0.02796(10)
C32_8 C 0.18331(16) 0.40152(14) 0.00067(10)
C33_8 C 0.14074(19) 0.36890(14) 0.00989(12)
C34_8 C 0.12247(17) 0.36571(14) 0.04599(11)
C35_8 C 0.30299(16) 0.55746(12) 0.12157(10)
H13_8 H 0.1800 0.4532 0.1797
H14_8 H 0.2562 0.5161 0.1768
H15_8 H 0.2359 0.4525 0.0224
H16_8 H 0.2569 0.5030 0.0683
H18_8 H 0.0942 0.3469 0.0559
O13_8 O 0.42843(17) 0.61933(12) 0.18799(9)
O14_8 O 0.42843(17) 0.63067(12) 0.06201(9)
O11_7 O 0.25033(18) 0.42972(18) 0.95550(10)
O12_8 O 0.17843(17) 0.38067(12) 0.93799(9)
C36_8 C 0.2063(2) 0.40469(17) 0.96115(11)
H17_8 H 0.1249 0.3481 0.9920
C24_8 C 0.9642(3) 0.03404(19) 0.12957(15)
C20_8 C 0.97788(18) 0.94451(18) 0.13508(16)
H10_8 H 0.9985 0.8715 0.1322
H11_8 H 0.9398 0.9382 0.1343
O11_8 O 0.24967(18) 0.07028(18) 0.04450(10)
C36_9 C 0.2937(2) 0.09531(17) 0.03885(11)
H17_9 H 0.3751 0.1519 0.0080
N5_5 N 0.31794(13) 0.05733(10) 0.87180(7)
N6_5 N 0.35641(12) 0.10555(9) 0.92735(8)
C25_9 C 0.30066(17) 0.03449(12) 0.84088(9)
C28_9 C 0.25750(15) 0.00633(11) 0.90810(9)
C29_9 C 0.29612(14) 0.04379(11) 0.90503(9)
C30_9 C 0.31600(14) 0.07263(10) 0.93632(9)
C31_9 C 0.29482(17) 0.06858(13) 0.97204(10)
C32_9 C 0.31669(16) 0.09848(14) 0.99933(10)
C33_9 C 0.35926(19) 0.13110(14) 0.99011(12)
C34_9 C 0.37753(17) 0.13429(14) 0.95401(11)
H13_9 H 0.3200 0.0468 0.8203
H15_9 H 0.2641 0.0475 0.9776
H18_9 H 0.4058 0.1531 0.9441
Co2_5 Co 0.3750 0.10740(2) 0.8750
Co1_5 Co 0.3750 0.64260(2) 0.8750
O1_9 O 0.19100(12) 0.83313(9) 0.89991(8)
O2_9 O 0.16836(14) 0.81305(11) 0.84221(8)
O3_9 O 0.24967(18) 0.67972(18) 0.70550(10)
O5_5 O 0.16569(18) 0.46830(16) 0.89489(15)
O6_5 O 0.2343(3) 0.42981(16) 0.86487(13)
N1_7 N 0.31794(13) 0.69267(10) 0.87820(7)
N2_7 N 0.35641(12) 0.64445(9) 0.82265(8)
N3_9 N 0.32020(13) 0.59119(10) 0.87970(8)
C1_9 C 0.30066(17) 0.71551(12) 0.90912(9)
C2_9 C 0.26191(17) 0.75285(14) 0.90791(10)
C3_9 C 0.24019(17) 0.76734(13) 0.87387(9)
C4_9 C 0.25750(15) 0.74367(11) 0.84190(9)
C5_9 C 0.29612(14) 0.70621(11) 0.84497(9)
C6_9 C 0.31600(14) 0.67737(10) 0.81368(9)
C7_9 C 0.29482(17) 0.68142(13) 0.77796(10)
C8_9 C 0.31669(16) 0.65152(14) 0.75067(10)
C9_9 C 0.35926(19) 0.61890(14) 0.75989(12)
C10_9 C 0.37753(17) 0.61571(14) 0.79599(11)
C11_9 C 0.19701(16) 0.80746(12) 0.87157(10)
C12_9 C 0.2937(2) 0.65469(17) 0.71115(11)
C13_9 C 0.26323(16) 0.59525(14) 0.88392(14)
C14_9 C 0.22788(18) 0.55549(18) 0.88508(16)
C15_9 C 0.2516(2) 0.51047(16) 0.88077(13)
C16_9 C 0.3103(2) 0.50606(14) 0.87678(11)
C17_9 C 0.34407(17) 0.54703(12) 0.87672(10)
C18_9 C 0.2142(3) 0.46596(19) 0.87957(15)
H1_9 H 0.3200 0.7032 0.9297
H2_9 H 0.2438 0.7661 0.9268
H3_9 H 0.2641 0.7025 0.7724
H4_9 H 0.2431 0.7530 0.8183
H5_9 H 0.3751 0.5981 0.7420
H6_9 H 0.4058 0.5969 0.8059
H7_9 H 0.2485 0.6285 0.8822
H8_9 H 0.1898 0.5618 0.8843
H9_9 H 0.3308 0.4789 0.8744
O7_5 O 0.58431(18) 0.46830(16) 0.85511(15)
O8_5 O 0.5157(3) 0.42981(16) 0.88513(13)
N4_9 N 0.42980(13) 0.59119(10) 0.87030(8)
C19_9 C 0.48677(16) 0.59525(14) 0.86608(14)
C20_9 C 0.52212(18) 0.55549(18) 0.86492(16)
C21_9 C 0.4984(2) 0.51047(16) 0.86923(13)
C22_9 C 0.4397(2) 0.50606(14) 0.87322(11)
C23_9 C 0.40593(17) 0.54703(12) 0.87328(10)
C24_9 C 0.5358(3) 0.46596(19) 0.87043(15)
H10_9 H 0.5015 0.6285 0.8678
H11_9 H 0.5602 0.5618 0.8657
H12_9 H 0.4192 0.4789 0.8756
O9_9 O 0.19100(12) 0.91687(9) 0.85009(8)
O10_9 O 0.16836(14) 0.93695(11) 0.90779(8)
C26_9 C 0.26191(17) 0.99715(14) 0.84209(10)
C27_9 C 0.24019(17) 0.98266(13) 0.87613(9)
C35_9 C 0.19701(16) 0.94254(12) 0.87843(10)
H14_9 H 0.2438 0.9839 0.8232
H16_9 H 0.2431 0.9970 0.9317
O15_5 O 0.08431(18) 0.78170(16) 0.89489(15)
O16_5 O 0.08431(18) 0.96830(16) 0.85511(15)
O17_5 O 0.0157(3) 0.82019(16) 0.86487(13)
O18_5 O 0.0157(3) 0.92981(16) 0.88513(13)
N7_7 N 0.43206(13) 0.69267(10) 0.87180(7)
N8_7 N 0.39359(12) 0.64445(9) 0.92735(8)
Co1_6 Co 0.3750 0.60740(2) 0.3750
O1_10 O 0.55900(12) 0.41687(9) 0.39991(8)
O2_10 O 0.58164(14) 0.43695(11) 0.34221(8)
O3_10 O 0.50033(18) 0.57028(18) 0.20550(10)
O5_6 O 0.58431(18) 0.78170(16) 0.39489(15)
O6_6 O 0.5157(3) 0.82019(16) 0.36487(13)
N1_8 N 0.43206(13) 0.55733(10) 0.37820(7)
N2_8 N 0.39359(12) 0.60555(9) 0.32265(8)
N3_10 N 0.42980(13) 0.65881(10) 0.37970(8)
C1_10 C 0.44934(17) 0.53449(12) 0.40912(9)
C2_10 C 0.48809(17) 0.49715(14) 0.40791(10)
C3_10 C 0.50981(17) 0.48266(13) 0.37387(9)
C4_10 C 0.49250(15) 0.50633(11) 0.34190(9)
C5_10 C 0.45388(14) 0.54379(11) 0.34497(9)
C6_10 C 0.43400(14) 0.57263(10) 0.31368(9)
C7_10 C 0.45518(17) 0.56858(13) 0.27796(10)
C8_10 C 0.43331(16) 0.59848(14) 0.25067(10)
C9_10 C 0.39074(19) 0.63110(14) 0.25989(12)
C10_10 C 0.37247(17) 0.63429(14) 0.29599(11)
C11_10 C 0.55299(16) 0.44254(12) 0.37157(10)
C12_10 C 0.4563(2) 0.59531(17) 0.21115(11)
C13_10 C 0.48677(16) 0.65475(14) 0.38392(14)
C14_10 C 0.52212(18) 0.69451(18) 0.38508(16)
C15_10 C 0.4984(2) 0.73953(16) 0.38077(13)
C16_10 C 0.4397(2) 0.74394(14) 0.37678(11)
C17_10 C 0.40593(17) 0.70297(12) 0.37672(10)
C18_10 C 0.5358(3) 0.78404(19) 0.37957(15)
H1_10 H 0.4300 0.5468 0.4297
H2_10 H 0.5062 0.4839 0.4268
H3_10 H 0.4859 0.5475 0.2724
H4_10 H 0.5069 0.4970 0.3183
H5_10 H 0.3749 0.6519 0.2420
H6_10 H 0.3442 0.6531 0.3059
H7_10 H 0.5015 0.6215 0.3822
H8_10 H 0.5602 0.6882 0.3843
H9_10 H 0.4192 0.7711 0.3744
O7_6 O 0.16569(18) 0.78170(16) 0.35511(15)
O8_6 O 0.2343(3) 0.82019(16) 0.38513(13)
N4_10 N 0.32020(13) 0.65881(10) 0.37030(8)
C19_10 C 0.26323(16) 0.65475(14) 0.36608(14)
C20_10 C 0.22788(18) 0.69451(18) 0.36492(16)
C21_10 C 0.2516(2) 0.73953(16) 0.36923(13)
C22_10 C 0.3103(2) 0.74394(14) 0.37322(11)
C23_10 C 0.34407(17) 0.70297(12) 0.37328(10)
C24_10 C 0.2142(3) 0.78404(19) 0.37043(15)
H10_10 H 0.2485 0.6215 0.3678
H11_10 H 0.1898 0.6882 0.3657
H12_10 H 0.3308 0.7711 0.3756
O9_10 O 0.55900(12) 0.33313(9) 0.35009(8)
O10_10 O 0.58164(14) 0.31305(11) 0.40779(8)
O11_9 O 0.50033(18) 0.17972(18) 0.54450(10)
N5_6 N 0.43206(13) 0.19267(10) 0.37180(7)
N6_6 N 0.39359(12) 0.14445(9) 0.42735(8)
C25_10 C 0.44934(17) 0.21551(12) 0.34088(9)
C26_10 C 0.48809(17) 0.25285(14) 0.34209(10)
C27_10 C 0.50981(17) 0.26734(13) 0.37613(9)
C28_10 C 0.49250(15) 0.24367(11) 0.40810(9)
C29_10 C 0.45388(14) 0.20621(11) 0.40503(9)
C30_10 C 0.43400(14) 0.17737(10) 0.43632(9)
C31_10 C 0.45518(17) 0.18142(13) 0.47204(10)
C32_10 C 0.43331(16) 0.15152(14) 0.49933(10)
C33_10 C 0.39074(19) 0.11890(14) 0.49011(12)
C34_10 C 0.37247(17) 0.11571(14) 0.45401(11)
C35_10 C 0.55299(16) 0.30746(12) 0.37843(10)
C36_10 C 0.4563(2) 0.15469(17) 0.53885(11)
H13_10 H 0.4300 0.2032 0.3203
H14_10 H 0.5062 0.2661 0.3232
H15_10 H 0.4859 0.2025 0.4776
H16_10 H 0.5069 0.2530 0.4317
H17_10 H 0.3749 0.0981 0.5080
H18_10 H 0.3442 0.0969 0.4441
Co2_6 Co 0.3750 0.14260(2) 0.3750
O15_6 O 0.66569(18) 0.46830(16) 0.39489(15)
O16_6 O 0.66569(18) 0.28170(16) 0.35511(15)
O17_6 O 0.7343(3) 0.42981(16) 0.36487(13)
O18_6 O 0.7343(3) 0.32019(16) 0.38513(13)
N7_8 N 0.31794(13) 0.55733(10) 0.37180(7)
N8_8 N 0.35641(12) 0.60555(9) 0.42735(8)
O5_7 O 0.16569(18) 0.28170(16) 0.85511(15)
O6_7 O 0.2343(3) 0.32019(16) 0.88513(13)
N3_11 N 0.32020(13) 0.15881(10) 0.87030(8)
C13_11 C 0.26323(16) 0.15475(14) 0.86608(14)
C14_11 C 0.22788(18) 0.19451(18) 0.86492(16)
C15_11 C 0.2516(2) 0.23953(16) 0.86923(13)
C16_11 C 0.3103(2) 0.24394(14) 0.87322(11)
C17_11 C 0.34407(17) 0.20297(12) 0.87328(10)
C18_11 C 0.2142(3) 0.28404(19) 0.87043(15)
H7_11 H 0.2485 0.1215 0.8678
H8_11 H 0.1898 0.1882 0.8657
H9_11 H 0.3308 0.2711 0.8756
O7_7 O 0.58431(18) 0.28170(16) 0.89489(15)
O8_7 O 0.5157(3) 0.32019(16) 0.86487(13)
N4_11 N 0.42980(13) 0.15881(10) 0.87970(8)
C19_11 C 0.48677(16) 0.15475(14) 0.88392(14)
C20_11 C 0.52212(18) 0.19451(18) 0.88508(16)
C21_11 C 0.4984(2) 0.23953(16) 0.88077(13)
C22_11 C 0.4397(2) 0.24394(14) 0.87678(11)
C23_11 C 0.40593(17) 0.20297(12) 0.87672(10)
C24_11 C 0.5358(3) 0.28404(19) 0.87957(15)
H10_11 H 0.5015 0.1215 0.8822
H11_11 H 0.5602 0.1882 0.8843
H12_11 H 0.4192 0.2711 0.8744
N7_9 N 0.43206(13) 0.05733(10) 0.87820(7)
N8_9 N 0.39359(12) 0.10555(9) 0.82265(8)
O11_10 O 0.50033(18) 0.07028(18) 0.70550(10)
C25_11 C 0.44934(17) 0.03449(12) 0.90912(9)
C28_11 C 0.49250(15) 0.00633(11) 0.84190(9)
C29_11 C 0.45388(14) 0.04379(11) 0.84497(9)
C30_11 C 0.43400(14) 0.07263(10) 0.81368(9)
C31_11 C 0.45518(17) 0.06858(13) 0.77796(10)
C32_11 C 0.43331(16) 0.09848(14) 0.75067(10)
C33_11 C 0.39074(19) 0.13110(14) 0.75989(12)
C34_11 C 0.37247(17) 0.13429(14) 0.79599(11)
C36_11 C 0.4563(2) 0.09531(17) 0.71115(11)
H13_11 H 0.4300 0.0468 0.9297
H15_11 H 0.4859 0.0475 0.7724
H17_11 H 0.3749 0.1519 0.7420
H18_11 H 0.3442 0.1531 0.8059
O3_11 O 0.50033(18) 0.67972(18) 0.04450(10)
C12_11 C 0.4563(2) 0.65469(17) 0.03885(11)
H5_11 H 0.3749 0.5981 0.0080
O1_11 O 0.55900(12) 0.83313(9) 0.85009(8)
O2_11 O 0.58164(14) 0.81305(11) 0.90779(8)
C1_11 C 0.44934(17) 0.71551(12) 0.84088(9)
C2_11 C 0.48809(17) 0.75285(14) 0.84209(10)
C3_11 C 0.50981(17) 0.76734(13) 0.87613(9)
C4_11 C 0.49250(15) 0.74367(11) 0.90810(9)
C5_11 C 0.45388(14) 0.70621(11) 0.90503(9)
C6_11 C 0.43400(14) 0.67737(10) 0.93632(9)
C7_11 C 0.45518(17) 0.68142(13) 0.97204(10)
C8_11 C 0.43331(16) 0.65152(14) 0.99933(10)
C9_11 C 0.39074(19) 0.61890(14) 0.99011(12)
C10_11 C 0.37247(17) 0.61571(14) 0.95401(11)
C11_11 C 0.55299(16) 0.80746(12) 0.87843(10)
H1_11 H 0.4300 0.7032 0.8203
H2_11 H 0.5062 0.7661 0.8232
H3_11 H 0.4859 0.7025 0.9776
H4_11 H 0.5069 0.7530 0.9317
H6_11 H 0.3442 0.5969 0.9441
O9_11 O 0.55900(12) 0.91687(9) 0.89991(8)
O10_11 O 0.58164(14) 0.93695(11) 0.84221(8)
C26_11 C 0.48809(17) 0.99715(14) 0.90791(10)
C27_11 C 0.50981(17) 0.98266(13) 0.87387(9)
C35_11 C 0.55299(16) 0.94254(12) 0.87157(10)
H14_11 H 0.5062 0.9839 0.9268
H16_11 H 0.5069 0.9970 0.8183
O15_7 O 0.66569(18) 0.78170(16) 0.85511(15)
O16_7 O 0.66569(18) 0.96830(16) 0.89489(15)
O17_7 O 0.7343(3) 0.82019(16) 0.88513(13)
O18_7 O 0.7343(3) 0.92981(16) 0.86487(13)
O1_12 O 0.19100(12) 0.33313(9) 0.39991(8)
O2_12 O 0.16836(14) 0.31305(11) 0.34221(8)
O3_12 O 0.24967(18) 0.17972(18) 0.20550(10)
N1_9 N 0.31794(13) 0.19267(10) 0.37820(7)
N2_9 N 0.35641(12) 0.14445(9) 0.32265(8)
N3_12 N 0.32020(13) 0.09119(10) 0.37970(8)
C1_12 C 0.30066(17) 0.21551(12) 0.40912(9)
C2_12 C 0.26191(17) 0.25285(14) 0.40791(10)
C3_12 C 0.24019(17) 0.26734(13) 0.37387(9)
C4_12 C 0.25750(15) 0.24367(11) 0.34190(9)
C5_12 C 0.29612(14) 0.20621(11) 0.34497(9)
C6_12 C 0.31600(14) 0.17737(10) 0.31368(9)
C7_12 C 0.29482(17) 0.18142(13) 0.27796(10)
C8_12 C 0.31669(16) 0.15152(14) 0.25067(10)
C9_12 C 0.35926(19) 0.11890(14) 0.25989(12)
C10_12 C 0.37753(17) 0.11571(14) 0.29599(11)
C11_12 C 0.19701(16) 0.30746(12) 0.37157(10)
C12_12 C 0.2937(2) 0.15469(17) 0.21115(11)
C13_12 C 0.26323(16) 0.09525(14) 0.38392(14)
C14_12 C 0.22788(18) 0.05549(18) 0.38508(16)
C15_12 C 0.2516(2) 0.01047(16) 0.38077(13)
C16_12 C 0.3103(2) 0.00606(14) 0.37678(11)
C17_12 C 0.34407(17) 0.04703(12) 0.37672(10)
H1_12 H 0.3200 0.2032 0.4297
H2_12 H 0.2438 0.2661 0.4268
H3_12 H 0.2641 0.2025 0.2724
H4_12 H 0.2431 0.2530 0.3183
H5_12 H 0.3751 0.0981 0.2420
H6_12 H 0.4058 0.0969 0.3059
H7_12 H 0.2485 0.1285 0.3822
H8_12 H 0.1898 0.0618 0.3843
N4_12 N 0.42980(13) 0.09119(10) 0.37030(8)
C19_12 C 0.48677(16) 0.09525(14) 0.36608(14)
C20_12 C 0.52212(18) 0.05549(18) 0.36492(16)
C21_12 C 0.4984(2) 0.01047(16) 0.36923(13)
C22_12 C 0.4397(2) 0.00606(14) 0.37322(11)
C23_12 C 0.40593(17) 0.04703(12) 0.37328(10)
H10_12 H 0.5015 0.1285 0.3678
H11_12 H 0.5602 0.0618 0.3657
O9_12 O 0.19100(12) 0.41687(9) 0.35009(8)
O10_12 O 0.16836(14) 0.43695(11) 0.40779(8)
O11_11 O 0.24967(18) 0.57028(18) 0.54450(10)
C25_12 C 0.30066(17) 0.53449(12) 0.34088(9)
C26_12 C 0.26191(17) 0.49715(14) 0.34209(10)
C27_12 C 0.24019(17) 0.48266(13) 0.37613(9)
C28_12 C 0.25750(15) 0.50633(11) 0.40810(9)
C29_12 C 0.29612(14) 0.54379(11) 0.40503(9)
C30_12 C 0.31600(14) 0.57263(10) 0.43632(9)
C31_12 C 0.29482(17) 0.56858(13) 0.47204(10)
C32_12 C 0.31669(16) 0.59848(14) 0.49933(10)
C33_12 C 0.35926(19) 0.63110(14) 0.49011(12)
C34_12 C 0.37753(17) 0.63429(14) 0.45401(11)
C35_12 C 0.19701(16) 0.44254(12) 0.37843(10)
C36_12 C 0.2937(2) 0.59531(17) 0.53885(11)
H13_12 H 0.3200 0.5468 0.3203
H14_12 H 0.2438 0.4839 0.3232
H15_12 H 0.2641 0.5475 0.4776
H16_12 H 0.2431 0.4970 0.4317
H17_12 H 0.3751 0.6519 0.5080
H18_12 H 0.4058 0.6531 0.4441
O15_8 O 0.08431(18) 0.28170(16) 0.39489(15)
O16_8 O 0.08431(18) 0.46830(16) 0.35511(15)
O17_8 O 0.0157(3) 0.32019(16) 0.36487(13)
O18_8 O 0.0157(3) 0.42981(16) 0.38513(13)
O5_8 O 0.16569(18) 0.96830(16) 0.39489(15)
O6_8 O 0.2343(3) 0.92981(16) 0.36487(13)
C18_12 C 0.2142(3) 0.96596(19) 0.37957(15)
H9_12 H 0.3308 0.9789 0.3744
O7_8 O 0.58431(18) 0.96830(16) 0.35511(15)
O8_8 O 0.5157(3) 0.92981(16) 0.38513(13)
C24_12 C 0.5358(3) 0.96596(19) 0.37043(15)
H12_12 H 0.4192 0.9789 0.3756
C20_13 C 0.02212(18) 0.55549(18) 0.36492(16)
C24_13 C 0.0358(3) 0.46596(19) 0.37043(15)
H10_13 H 0.0015 0.6285 0.3678
H11_13 H 0.0602 0.5618 0.3657
O11_12 O 0.74967(18) 0.07028(18) 0.54450(10)
N5_7 N 0.81794(13) 0.05733(10) 0.37180(7)
N6_7 N 0.85641(12) 0.10555(9) 0.42735(8)
C25_13 C 0.80066(17) 0.03449(12) 0.34088(9)
C28_13 C 0.75750(15) 0.00633(11) 0.40810(9)
C29_13 C 0.79612(14) 0.04379(11) 0.40503(9)
C30_13 C 0.81600(14) 0.07263(10) 0.43632(9)
C31_13 C 0.79482(17) 0.06858(13) 0.47204(10)
C32_13 C 0.81669(16) 0.09848(14) 0.49933(10)
C33_13 C 0.85926(19) 0.13110(14) 0.49011(12)
C34_13 C 0.87753(17) 0.13429(14) 0.45401(11)
C36_13 C 0.7937(2) 0.09531(17) 0.53885(11)
H13_13 H 0.8200 0.0468 0.3203
H15_13 H 0.7641 0.0475 0.4776
H17_13 H 0.8751 0.1519 0.5080
H18_13 H 0.9058 0.1531 0.4441
Co2_7 Co 0.8750 0.10740(2) 0.3750
Co1_7 Co 0.8750 0.64260(2) 0.3750
O1_13 O 0.69100(12) 0.83313(9) 0.39991(8)
O2_13 O 0.66836(14) 0.81305(11) 0.34221(8)
O3_13 O 0.74967(18) 0.67972(18) 0.20550(10)
N1_10 N 0.81794(13) 0.69267(10) 0.37820(7)
N2_10 N 0.85641(12) 0.64445(9) 0.32265(8)
N3_13 N 0.82020(13) 0.59119(10) 0.37970(8)
C1_13 C 0.80066(17) 0.71551(12) 0.40912(9)
C2_13 C 0.76191(17) 0.75285(14) 0.40791(10)
C3_13 C 0.74019(17) 0.76734(13) 0.37387(9)
C4_13 C 0.75750(15) 0.74367(11) 0.34190(9)
C5_13 C 0.79612(14) 0.70621(11) 0.34497(9)
C6_13 C 0.81600(14) 0.67737(10) 0.31368(9)
C7_13 C 0.79482(17) 0.68142(13) 0.27796(10)
C8_13 C 0.81669(16) 0.65152(14) 0.25067(10)
C9_13 C 0.85926(19) 0.61890(14) 0.25989(12)
C10_13 C 0.87753(17) 0.61571(14) 0.29599(11)
C11_13 C 0.69701(16) 0.80746(12) 0.37157(10)
C12_13 C 0.7937(2) 0.65469(17) 0.21115(11)
C13_13 C 0.76323(16) 0.59525(14) 0.38392(14)
C14_13 C 0.72788(18) 0.55549(18) 0.38508(16)
C15_13 C 0.7516(2) 0.51047(16) 0.38077(13)
C16_13 C 0.8103(2) 0.50606(14) 0.37678(11)
C17_13 C 0.84407(17) 0.54703(12) 0.37672(10)
C18_13 C 0.7142(3) 0.46596(19) 0.37957(15)
H1_13 H 0.8200 0.7032 0.4297
H2_13 H 0.7438 0.7661 0.4268
H3_13 H 0.7641 0.7025 0.2724
H4_13 H 0.7431 0.7530 0.3183
H5_13 H 0.8751 0.5981 0.2420
H6_13 H 0.9058 0.5969 0.3059
H7_13 H 0.7485 0.6285 0.3822
H8_13 H 0.6898 0.5618 0.3843
H9_13 H 0.8308 0.4789 0.3744
N4_13 N 0.92980(13) 0.59119(10) 0.37030(8)
C19_13 C 0.98677(16) 0.59525(14) 0.36608(14)
C21_13 C 0.9984(2) 0.51047(16) 0.36923(13)
C22_13 C 0.9397(2) 0.50606(14) 0.37322(11)
C23_13 C 0.90593(17) 0.54703(12) 0.37328(10)
H12_13 H 0.9192 0.4789 0.3756
O9_13 O 0.69100(12) 0.91687(9) 0.35009(8)
O10_13 O 0.66836(14) 0.93695(11) 0.40779(8)
C26_13 C 0.76191(17) 0.99715(14) 0.34209(10)
C27_13 C 0.74019(17) 0.98266(13) 0.37613(9)
C35_13 C 0.69701(16) 0.94254(12) 0.37843(10)
H14_13 H 0.7438 0.9839 0.3232
H16_13 H 0.7431 0.9970 0.4317
N7_10 N 0.93206(13) 0.69267(10) 0.37180(7)
N8_10 N 0.89359(12) 0.64445(9) 0.42735(8)
O1_14 O 0.05900(12) 0.41687(9) 0.89991(8)
O2_14 O 0.08164(14) 0.43695(11) 0.84221(8)
O3_14 O 0.00033(18) 0.57028(18) 0.70550(10)
C3_14 C 0.00981(17) 0.48266(13) 0.87387(9)
C11_14 C 0.05299(16) 0.44254(12) 0.87157(10)
C14_14 C 0.02212(18) 0.69451(18) 0.88508(16)
C18_14 C 0.0358(3) 0.78404(19) 0.87957(15)
H2_14 H 0.0062 0.4839 0.9268
H4_14 H 0.0069 0.4970 0.8183
H7_14 H 0.0015 0.6215 0.8822
H8_14 H 0.0602 0.6882 0.8843
O9_14 O 0.05900(12) 0.33313(9) 0.85009(8)
O10_14 O 0.08164(14) 0.31305(11) 0.90779(8)
C27_14 C 0.00981(17) 0.26734(13) 0.87613(9)
C35_14 C 0.05299(16) 0.30746(12) 0.87843(10)
H14_14 H 0.0062 0.2661 0.8232
H16_14 H 0.0069 0.2530 0.9317
C36_14 C 0.9563(2) 0.15469(17) 0.03885(11)
H17_14 H 0.8749 0.0981 0.0080
Co1_8 Co 0.8750 0.60740(2) 0.8750
N1_11 N 0.93206(13) 0.55733(10) 0.87820(7)
N2_11 N 0.89359(12) 0.60555(9) 0.82265(8)
N3_14 N 0.92980(13) 0.65881(10) 0.87970(8)
C1_14 C 0.94934(17) 0.53449(12) 0.90912(9)
C2_14 C 0.98809(17) 0.49715(14) 0.90791(10)
C4_14 C 0.99250(15) 0.50633(11) 0.84190(9)
C5_14 C 0.95388(14) 0.54379(11) 0.84497(9)
C6_14 C 0.93400(14) 0.57263(10) 0.81368(9)
C7_14 C 0.95518(17) 0.56858(13) 0.77796(10)
C8_14 C 0.93331(16) 0.59848(14) 0.75067(10)
C9_14 C 0.89074(19) 0.63110(14) 0.75989(12)
C10_14 C 0.87247(17) 0.63429(14) 0.79599(11)
C12_14 C 0.9563(2) 0.59531(17) 0.71115(11)
C13_14 C 0.98677(16) 0.65475(14) 0.88392(14)
C15_14 C 0.9984(2) 0.73953(16) 0.88077(13)
C16_14 C 0.9397(2) 0.74394(14) 0.87678(11)
C17_14 C 0.90593(17) 0.70297(12) 0.87672(10)
H1_14 H 0.9300 0.5468 0.9297
H3_14 H 0.9859 0.5475 0.7724
H5_14 H 0.8749 0.6519 0.7420
H6_14 H 0.8442 0.6531 0.8059
H9_14 H 0.9192 0.7711 0.8744
N4_14 N 0.82020(13) 0.65881(10) 0.87030(8)
C19_14 C 0.76323(16) 0.65475(14) 0.86608(14)
C20_14 C 0.72788(18) 0.69451(18) 0.86492(16)
C21_14 C 0.7516(2) 0.73953(16) 0.86923(13)
C22_14 C 0.8103(2) 0.74394(14) 0.87322(11)
C23_14 C 0.84407(17) 0.70297(12) 0.87328(10)
C24_14 C 0.7142(3) 0.78404(19) 0.87043(15)
H10_14 H 0.7485 0.6215 0.8678
H11_14 H 0.6898 0.6882 0.8657
H12_14 H 0.8308 0.7711 0.8756
N5_8 N 0.93206(13) 0.19267(10) 0.87180(7)
N6_8 N 0.89359(12) 0.14445(9) 0.92735(8)
C25_14 C 0.94934(17) 0.21551(12) 0.84088(9)
C26_14 C 0.98809(17) 0.25285(14) 0.84209(10)
C28_14 C 0.99250(15) 0.24367(11) 0.90810(9)
C29_14 C 0.95388(14) 0.20621(11) 0.90503(9)
C30_14 C 0.93400(14) 0.17737(10) 0.93632(9)
C31_14 C 0.95518(17) 0.18142(13) 0.97204(10)
C32_14 C 0.93331(16) 0.15152(14) 0.99933(10)
C33_14 C 0.89074(19) 0.11890(14) 0.99011(12)
C34_14 C 0.87247(17) 0.11571(14) 0.95401(11)
H13_14 H 0.9300 0.2032 0.8203
H15_14 H 0.9859 0.2025 0.9776
H18_14 H 0.8442 0.0969 0.9441
Co2_8 Co 0.8750 0.14260(2) 0.8750
N7_11 N 0.81794(13) 0.55733(10) 0.87180(7)
N8_11 N 0.85641(12) 0.60555(9) 0.92735(8)
C20_15 C 0.02212(18) 0.19451(18) 0.38508(16)
C24_15 C 0.0358(3) 0.28404(19) 0.37957(15)
H10_15 H 0.0015 0.1215 0.3822
H11_15 H 0.0602 0.1882 0.3843
N3_15 N 0.82020(13) 0.15881(10) 0.37030(8)
C13_15 C 0.76323(16) 0.15475(14) 0.36608(14)
C14_15 C 0.72788(18) 0.19451(18) 0.36492(16)
C15_15 C 0.7516(2) 0.23953(16) 0.36923(13)
C16_15 C 0.8103(2) 0.24394(14) 0.37322(11)
C17_15 C 0.84407(17) 0.20297(12) 0.37328(10)
C18_15 C 0.7142(3) 0.28404(19) 0.37043(15)
H7_15 H 0.7485 0.1215 0.3678
H8_15 H 0.6898 0.1882 0.3657
H9_15 H 0.8308 0.2711 0.3756
N4_15 N 0.92980(13) 0.15881(10) 0.37970(8)
C19_15 C 0.98677(16) 0.15475(14) 0.38392(14)
C21_15 C 0.9984(2) 0.23953(16) 0.38077(13)
C22_15 C 0.9397(2) 0.24394(14) 0.37678(11)
C23_15 C 0.90593(17) 0.20297(12) 0.37672(10)
H12_15 H 0.9192 0.2711 0.3744
N7_12 N 0.93206(13) 0.05733(10) 0.37820(7)
N8_12 N 0.89359(12) 0.10555(9) 0.32265(8)
O11_13 O 0.00033(18) 0.07028(18) 0.20550(10)
O1_15 O 0.05900(12) 0.83313(9) 0.35009(8)
O2_15 O 0.08164(14) 0.81305(11) 0.40779(8)
O3_15 O 0.00033(18) 0.67972(18) 0.54450(10)
C3_15 C 0.00981(17) 0.76734(13) 0.37613(9)
C11_15 C 0.05299(16) 0.80746(12) 0.37843(10)
H2_15 H 0.0062 0.7661 0.3232
H4_15 H 0.0069 0.7530 0.4317
O9_15 O 0.05900(12) 0.91687(9) 0.39991(8)
O10_15 O 0.08164(14) 0.93695(11) 0.34221(8)
C27_15 C 0.00981(17) 0.98266(13) 0.37387(9)
C35_15 C 0.05299(16) 0.94254(12) 0.37157(10)
H14_15 H 0.0062 0.9839 0.4268
H16_15 H 0.0069 0.9970 0.3183
C25_15 C 0.94934(17) 0.03449(12) 0.40912(9)
C28_15 C 0.99250(15) 0.00633(11) 0.34190(9)
C29_15 C 0.95388(14) 0.04379(11) 0.34497(9)
C30_15 C 0.93400(14) 0.07263(10) 0.31368(9)
C31_15 C 0.95518(17) 0.06858(13) 0.27796(10)
C32_15 C 0.93331(16) 0.09848(14) 0.25067(10)
C33_15 C 0.89074(19) 0.13110(14) 0.25989(12)
C34_15 C 0.87247(17) 0.13429(14) 0.29599(11)
C36_15 C 0.9563(2) 0.09531(17) 0.21115(11)
H13_15 H 0.9300 0.0468 0.4297
H15_15 H 0.9859 0.0475 0.2724
H17_15 H 0.8749 0.1519 0.2420
H18_15 H 0.8442 0.1531 0.3059
C1_15 C 0.94934(17) 0.71551(12) 0.34088(9)
C2_15 C 0.98809(17) 0.75285(14) 0.34209(10)
C4_15 C 0.99250(15) 0.74367(11) 0.40810(9)
C5_15 C 0.95388(14) 0.70621(11) 0.40503(9)
C6_15 C 0.93400(14) 0.67737(10) 0.43632(9)
C7_15 C 0.95518(17) 0.68142(13) 0.47204(10)
C8_15 C 0.93331(16) 0.65152(14) 0.49933(10)
C9_15 C 0.89074(19) 0.61890(14) 0.49011(12)
C10_15 C 0.87247(17) 0.61571(14) 0.45401(11)
C12_15 C 0.9563(2) 0.65469(17) 0.53885(11)
H1_15 H 0.9300 0.7032 0.3203
H3_15 H 0.9859 0.7025 0.4776
H5_15 H 0.8749 0.5981 0.5080
H6_15 H 0.8442 0.5969 0.4441
C26_15 C 0.98809(17) 0.99715(14) 0.40791(10)
C20_16 C 0.02212(18) 0.05549(18) 0.86492(16)
H10_16 H 0.0015 0.1285 0.8678
H11_16 H 0.0602 0.0618 0.8657
C24_16 C 0.0358(3) 0.96596(19) 0.87043(15)
O11_14 O 0.74967(18) 0.57028(18) 0.04450(10)
C36_16 C 0.7937(2) 0.59531(17) 0.03885(11)
H17_16 H 0.8751 0.6519 0.0080
O1_16 O 0.69100(12) 0.33313(9) 0.89991(8)
O2_16 O 0.66836(14) 0.31305(11) 0.84221(8)
O3_16 O 0.74967(18) 0.17972(18) 0.70550(10)
N1_12 N 0.81794(13) 0.19267(10) 0.87820(7)
N2_12 N 0.85641(12) 0.14445(9) 0.82265(8)
N3_16 N 0.82020(13) 0.09119(10) 0.87970(8)
C1_16 C 0.80066(17) 0.21551(12) 0.90912(9)
C2_16 C 0.76191(17) 0.25285(14) 0.90791(10)
C3_16 C 0.74019(17) 0.26734(13) 0.87387(9)
C4_16 C 0.75750(15) 0.24367(11) 0.84190(9)
C5_16 C 0.79612(14) 0.20621(11) 0.84497(9)
C6_16 C 0.81600(14) 0.17737(10) 0.81368(9)
C7_16 C 0.79482(17) 0.18142(13) 0.77796(10)
C8_16 C 0.81669(16) 0.15152(14) 0.75067(10)
C9_16 C 0.85926(19) 0.11890(14) 0.75989(12)
C10_16 C 0.87753(17) 0.11571(14) 0.79599(11)
C11_16 C 0.69701(16) 0.30746(12) 0.87157(10)
C12_16 C 0.7937(2) 0.15469(17) 0.71115(11)
C13_16 C 0.76323(16) 0.09525(14) 0.88392(14)
C14_16 C 0.72788(18) 0.05549(18) 0.88508(16)
C15_16 C 0.7516(2) 0.01047(16) 0.88077(13)
C16_16 C 0.8103(2) 0.00606(14) 0.87678(11)
C17_16 C 0.84407(17) 0.04703(12) 0.87672(10)
H1_16 H 0.8200 0.2032 0.9297
H2_16 H 0.7438 0.2661 0.9268
H3_16 H 0.7641 0.2025 0.7724
H4_16 H 0.7431 0.2530 0.8183
H5_16 H 0.8751 0.0981 0.7420
H6_16 H 0.9058 0.0969 0.8059
H7_16 H 0.7485 0.1285 0.8822
H8_16 H 0.6898 0.0618 0.8843
N4_16 N 0.92980(13) 0.09119(10) 0.87030(8)
C19_16 C 0.98677(16) 0.09525(14) 0.86608(14)
C21_16 C 0.9984(2) 0.01047(16) 0.86923(13)
C22_16 C 0.9397(2) 0.00606(14) 0.87322(11)
C23_16 C 0.90593(17) 0.04703(12) 0.87328(10)
O9_16 O 0.69100(12) 0.41687(9) 0.85009(8)
O10_16 O 0.66836(14) 0.43695(11) 0.90779(8)
C25_16 C 0.80066(17) 0.53449(12) 0.84088(9)
C26_16 C 0.76191(17) 0.49715(14) 0.84209(10)
C27_16 C 0.74019(17) 0.48266(13) 0.87613(9)
C28_16 C 0.75750(15) 0.50633(11) 0.90810(9)
C29_16 C 0.79612(14) 0.54379(11) 0.90503(9)
C30_16 C 0.81600(14) 0.57263(10) 0.93632(9)
C31_16 C 0.79482(17) 0.56858(13) 0.97204(10)
C32_16 C 0.81669(16) 0.59848(14) 0.99933(10)
C33_16 C 0.85926(19) 0.63110(14) 0.99011(12)
C34_16 C 0.87753(17) 0.63429(14) 0.95401(11)
C35_16 C 0.69701(16) 0.44254(12) 0.87843(10)
H13_16 H 0.8200 0.5468 0.8203
H14_16 H 0.7438 0.4839 0.8232
H15_16 H 0.7641 0.5475 0.9776
H16_16 H 0.7431 0.4970 0.9317
H18_16 H 0.9058 0.6531 0.9441
C18_16 C 0.7142(3) 0.96596(19) 0.87957(15)
H9_16 H 0.8308 0.9789 0.8744
H12_16 H 0.9192 0.9789 0.8756
O11_15 O 0.99967(18) 0.82028(18) 0.95550(10)
O11_16 O 0.00033(18) 0.17972(18) 0.04450(10)
loop_
_geom_bond_atom_site_label_1
_geom_bond_atom_site_label_2
_geom_bond_site_symmetry_1
_geom_bond_site_symmetry_2
Pr1 O1 1_555 1_555
Co1 N1 1_555 1_555
O1 C11 1_555 1_555
O2 Pr1 1_555 1_555
O3 C12 1_555 1_555
O4 C12 1_555 1_555
O5 C18 1_555 1_555
O6 C18 1_555 1_555
N1 C1 1_555 1_555
N2 Co1 1_555 1_555
N3 Co1 1_555 1_555
C1 C2 1_555 1_555
C2 C3 1_555 1_555
C3 C4 1_555 1_555
C4 C5 1_555 1_555
C5 N1 1_555 1_555
C6 N2 1_555 1_555
C7 C6 1_555 1_555
C8 C7 1_555 1_555
C9 C8 1_555 1_555
C10 N2 1_555 1_555
C11 O2 1_555 1_555
C12 C8 1_555 1_555
C13 N3 1_555 1_555
C14 C13 1_555 1_555
C15 C14 1_555 1_555
C16 C15 1_555 1_555
C17 N3 1_555 1_555
C18 C15 1_555 1_555
H1 C1 1_555 1_555
H2 C2 1_555 1_555
H3 C7 1_555 1_555
H4 C4 1_555 1_555
H5 C9 1_555 1_555
H6 C10 1_555 1_555
H7 C13 1_555 1_555
H8 C14 1_555 1_555
H9 C16 1_555 1_555
O7 C24 1_555 1_555
O8 C24 1_555 1_555
N4 Co1 1_555 1_555
C19 N4 1_555 1_555
C20 C19 1_555 1_555
C21 C20 1_555 1_555
C22 C21 1_555 1_555
C23 C17 1_555 1_555
C24 C21 1_555 1_555
H10 C19 1_555 1_555
H11 C20 1_555 1_555
H12 C22 1_555 1_555
O9 Pr1 1_555 1_555
O10 Pr1 1_555 1_555
C26 C27 1_555 1_555
C35 O9 1_555 1_555
H14 C26 1_555 1_555
Pr3 O5 1_555 1_555
Pr4 O7 1_555 1_555
Pr5 O4 1_555 1_555
O13 Pr1 1_555 1_555
O14 Pr1 1_555 1_555
O15 Pr1 1_555 1_555
O16 Pr1 1_555 1_555
O17 Pr1 1_555 1_555
O18 Pr1 1_555 1_555
N7 Co1 1_555 1_555
N8 Co1 1_555 1_555
O6 Pr3 1_555 1_555
C3 C11 1_555 1_555
C5 C6 1_555 1_555
C9 C10 1_555 1_555
C16 C17 1_555 1_555
O8 Pr4 1_555 1_555
N4 C23 1_555 1_555
C22 C23 1_555 1_555
O10 C35 1_555 1_555
C27 C35 1_555 1_555
N5 C25 1_555 1_555
N6 C30 1_555 1_555
C28 C29 1_555 1_555
C29 N5 1_555 1_555
C30 C29 1_555 1_555
C31 C30 1_555 1_555
C32 C31 1_555 1_555
C33 C32 1_555 1_555
C34 N6 1_555 1_555
H13 C25 1_555 1_555
H15 C31 1_555 1_555
H18 C34 1_555 1_555
Co2 N5 1_555 1_555
N6 Co2 1_555 1_555
C33 C34 1_555 1_555
O11 C36 1_555 1_555
O12 C36 1_555 1_555
Pr2 O12 1_555 1_555
Pr1_2 O1_2 1_555 1_555
Co1_2 N1_2 1_555 1_555
O1_2 C11_2 1_555 1_555
O2_2 Pr1_2 1_555 1_555
O3_2 C12_2 1_555 1_555
O4_2 C12_2 1_555 1_555
O5_2 C18_2 1_555 1_555
O6_2 C18_2 1_555 1_555
N1_2 C1_2 1_555 1_555
N2_2 Co1_2 1_555 1_555
N3_2 Co1_2 1_555 1_555
C1_2 C2_2 1_555 1_555
C2_2 C3_2 1_555 1_555
C3_2 C4_2 1_555 1_555
C4_2 C5_2 1_555 1_555
C5_2 N1_2 1_555 1_555
C6_2 N2_2 1_555 1_555
C7_2 C6_2 1_555 1_555
C8_2 C7_2 1_555 1_555
C9_2 C8_2 1_555 1_555
C10_2 N2_2 1_555 1_555
C11_2 O2_2 1_555 1_555
C12_2 C8_2 1_555 1_555
C13_2 N3_2 1_555 1_555
C14_2 C13_2 1_555 1_555
C15_2 C14_2 1_555 1_555
C16_2 C15_2 1_555 1_555
C17_2 N3_2 1_555 1_555
C18_2 C15_2 1_555 1_555
H1_2 C1_2 1_555 1_555
H2_2 C2_2 1_555 1_555
H3_2 C7_2 1_555 1_555
H4_2 C4_2 1_555 1_555
H5_2 C9_2 1_555 1_555
H6_2 C10_2 1_555 1_555
H7_2 C13_2 1_555 1_555
H8_2 C14_2 1_555 1_555
H9_2 C16_2 1_555 1_555
O7_2 C24_2 1_555 1_555
O8_2 C24_2 1_555 1_555
N4_2 Co1_2 1_555 1_555
C19_2 N4_2 1_555 1_555
C20_2 C19_2 1_555 1_555
C21_2 C20_2 1_555 1_555
C22_2 C21_2 1_555 1_555
C23_2 C17_2 1_555 1_555
C24_2 C21_2 1_555 1_555
H10_2 C19_2 1_555 1_555
H11_2 C20_2 1_555 1_555
H12_2 C22_2 1_555 1_555
O9_2 Pr1_2 1_555 1_555
O10_2 Pr1_2 1_555 1_555
O11_2 C36_2 1_555 1_555
O12_2 C36_2 1_555 1_555
N5_2 C25_2 1_555 1_555
N6_2 C30_2 1_555 1_555
C25_2 C26_2 1_555 1_555
C26_2 C27_2 1_555 1_555
C27_2 C28_2 1_555 1_555
C28_2 C29_2 1_555 1_555
C29_2 N5_2 1_555 1_555
C30_2 C29_2 1_555 1_555
C31_2 C30_2 1_555 1_555
C32_2 C31_2 1_555 1_555
C33_2 C32_2 1_555 1_555
C34_2 N6_2 1_555 1_555
C35_2 O9_2 1_555 1_555
C36_2 C32_2 1_555 1_555
H13_2 C25_2 1_555 1_555
H14_2 C26_2 1_555 1_555
H15_2 C31_2 1_555 1_555
H16_2 C28_2 1_555 1_555
H17_2 C33_2 1_555 1_555
H18_2 C34_2 1_555 1_555
Pr2_2 O12_2 1_555 1_555
Pr3_2 O5_2 1_555 1_555
Pr4_2 O7_2 1_555 1_555
Pr5_2 O4_2 1_555 1_555
Co2_2 N5_2 1_555 1_555
O13_2 Pr1_2 1_555 1_555
O14_2 Pr1_2 1_555 1_555
O15_2 Pr1_2 1_555 1_555
O16_2 Pr1_2 1_555 1_555
O17_2 Pr1_2 1_555 1_555
O18_2 Pr1_2 1_555 1_555
N7_2 Co1_2 1_555 1_555
N8_2 Co1_2 1_555 1_555
O6_2 Pr3_2 1_555 1_555
C3_2 C11_2 1_555 1_555
C5_2 C6_2 1_555 1_555
C9_2 C10_2 1_555 1_555
C16_2 C17_2 1_555 1_555
O8_2 Pr4_2 1_555 1_555
N4_2 C23_2 1_555 1_555
C22_2 C23_2 1_555 1_555
O10_2 C35_2 1_555 1_555
N6_2 Co2_2 1_555 1_555
C27_2 C35_2 1_555 1_555
C33_2 C34_2 1_555 1_555
O5_3 C18_3 1_555 1_555
O6_3 C18_3 1_555 1_555
N3_3 Co2 1_555 1_555
C13_3 N3_3 1_555 1_555
C14_3 C13_3 1_555 1_555
C15_3 C14_3 1_555 1_555
C16_3 C15_3 1_555 1_555
C17_3 N3_3 1_555 1_555
C18_3 C15_3 1_555 1_555
H7_3 C13_3 1_555 1_555
H8_3 C14_3 1_555 1_555
H9_3 C16_3 1_555 1_555
O7_3 C24_3 1_555 1_555
O8_3 C24_3 1_555 1_555
N4_3 Co2 1_555 1_555
C19_3 N4_3 1_555 1_555
C20_3 C19_3 1_555 1_555
C21_3 C20_3 1_555 1_555
C22_3 C21_3 1_555 1_555
C23_3 C17_3 1_555 1_555
C24_3 C21_3 1_555 1_555
H10_3 C19_3 1_555 1_555
H11_3 C20_3 1_555 1_555
H12_3 C22_3 1_555 1_555
Pr3 O5_3 1_555 1_555
Pr4 O7_3 1_555 1_555
N7_3 Co2 1_555 1_555
N8_3 Co2 1_555 1_555
O6_3 Pr3 1_555 1_555
C16_3 C17_3 1_555 1_555
O8_3 Pr4 1_555 1_555
N4_3 C23_3 1_555 1_555
C22_3 C23_3 1_555 1_555
Pr1_3 O1_3 1_555 1_555
O1_3 C11_3 1_555 1_555
O2_3 Pr1_3 1_555 1_555
N7 C1_3 1_555 1_555
C1_3 C2_3 1_555 1_555
C2_3 C3_3 1_555 1_555
C3_3 C4_3 1_555 1_555
C4_3 C5_3 1_555 1_555
C5_3 N7 1_555 1_555
C6_3 N8 1_555 1_555
C7_3 C6_3 1_555 1_555
C8_3 C7_3 1_555 1_555
C9_3 C8_3 1_555 1_555
C10_3 N8 1_555 1_555
C11_3 O2_3 1_555 1_555
H1_3 C1_3 1_555 1_555
H2_3 C2_3 1_555 1_555
H3_3 C7_3 1_555 1_555
H4_3 C4_3 1_555 1_555
H6_3 C10_3 1_555 1_555
O9_3 Pr1_3 1_555 1_555
O10_3 Pr1_3 1_555 1_555
C26_3 C27_3 1_555 1_555
C35_3 O9_3 1_555 1_555
H14_3 C26_3 1_555 1_555
O13_3 Pr1_3 1_555 1_555
O14_3 Pr1_3 1_555 1_555
O15_3 Pr1_3 1_555 1_555
O16_3 Pr1_3 1_555 1_555
O17_3 Pr1_3 1_555 1_555
O18_3 Pr1_3 1_555 1_555
C3_3 C11_3 1_555 1_555
C5_3 C6_3 1_555 1_555
C9_3 C10_3 1_555 1_555
O10_3 C35_3 1_555 1_555
C27_3 C35_3 1_555 1_555
O3_3 C12_3 1_555 1_555
O4_3 C12_3 1_555 1_555
Pr5_2 O4_3 1_555 1_555
O11_3 C36_3 1_555 1_555
O12_3 C36_3 1_555 1_555
N7_3 C25_3 1_555 1_555
N8_3 C30_3 1_555 1_555
C28_3 C29_3 1_555 1_555
C29_3 N7_3 1_555 1_555
C30_3 C29_3 1_555 1_555
C31_3 C30_3 1_555 1_555
C32_3 C31_3 1_555 1_555
C33_3 C32_3 1_555 1_555
C34_3 N8_3 1_555 1_555
C36_3 C32_3 1_555 1_555
H13_3 C25_3 1_555 1_555
H15_3 C31_3 1_555 1_555
H17_3 C33_3 1_555 1_555
H18_3 C34_3 1_555 1_555
Pr2_2 O12_3 1_555 1_555
C33_3 C34_3 1_555 1_555
O5_4 C18_4 1_555 1_555
O6_4 C18_4 1_555 1_555
O7_4 C24_4 1_555 1_555
O8_4 C24_4 1_555 1_555
Pr4_2 O5_4 1_555 1_555
Pr3_2 O7_4 1_555 1_555
O6_4 Pr4_2 1_555 1_555
O8_4 Pr3_2 1_555 1_555
Pr1_4 O1_4 1_555 1_555
Co2_2 N1_3 1_555 1_555
O1_4 C11_4 1_555 1_555
O2_4 Pr1_4 1_555 1_555
O3_4 C12_4 1_555 1_555
O4_4 C12_4 1_555 1_555
N1_3 C1_4 1_555 1_555
N2_3 Co2_2 1_555 1_555
N3_4 Co2_2 1_555 1_555
C1_4 C2_4 1_555 1_555
C2_4 C3_4 1_555 1_555
C3_4 C4_4 1_555 1_555
C4_4 C5_4 1_555 1_555
C5_4 N1_3 1_555 1_555
C6_4 N2_3 1_555 1_555
C7_4 C6_4 1_555 1_555
C8_4 C7_4 1_555 1_555
C9_4 C8_4 1_555 1_555
C10_4 N2_3 1_555 1_555
C11_4 O2_4 1_555 1_555
C12_4 C8_4 1_555 1_555
C13_4 N3_4 1_555 1_555
C14_4 C13_4 1_555 1_555
C15_4 C14_4 1_555 1_555
C16_4 C15_4 1_555 1_555
C17_4 N3_4 1_555 1_555
H1_4 C1_4 1_555 1_555
H2_4 C2_4 1_555 1_555
H3_4 C7_4 1_555 1_555
H4_4 C4_4 1_555 1_555
H5_4 C9_4 1_555 1_555
H6_4 C10_4 1_555 1_555
H7_4 C13_4 1_555 1_555
H8_4 C14_4 1_555 1_555
N4_4 Co2_2 1_555 1_555
C19_4 N4_4 1_555 1_555
C20_4 C19_4 1_555 1_555
C21_4 C20_4 1_555 1_555
C22_4 C21_4 1_555 1_555
C23_4 C17_4 1_555 1_555
H10_4 C19_4 1_555 1_555
H11_4 C20_4 1_555 1_555
O9_4 Pr1_4 1_555 1_555
O10_4 Pr1_4 1_555 1_555
O11_4 C36_4 1_555 1_555
O12_4 C36_4 1_555 1_555
N7_2 C25_4 1_555 1_555
N8_2 C30_4 1_555 1_555
C25_4 C26_4 1_555 1_555
C26_4 C27_4 1_555 1_555
C27_4 C28_4 1_555 1_555
C28_4 C29_4 1_555 1_555
C29_4 N7_2 1_555 1_555
C30_4 C29_4 1_555 1_555
C31_4 C30_4 1_555 1_555
C32_4 C31_4 1_555 1_555
C33_4 C32_4 1_555 1_555
C34_4 N8_2 1_555 1_555
C35_4 O9_4 1_555 1_555
C36_4 C32_4 1_555 1_555
H13_4 C25_4 1_555 1_555
H14_4 C26_4 1_555 1_555
H15_4 C31_4 1_555 1_555
H16_4 C28_4 1_555 1_555
H17_4 C33_4 1_555 1_555
H18_4 C34_4 1_555 1_555
Pr5 O12_4 1_555 1_555
Pr2 O4_4 1_555 1_555
O13_4 Pr1_4 1_555 1_555
O14_4 Pr1_4 1_555 1_555
O15_4 Pr1_4 1_555 1_555
O16_4 Pr1_4 1_555 1_555
O17_4 Pr1_4 1_555 1_555
O18_4 Pr1_4 1_555 1_555
C3_4 C11_4 1_555 1_555
C5_4 C6_4 1_555 1_555
C9_4 C10_4 1_555 1_555
C16_4 C17_4 1_555 1_555
N4_4 C23_4 1_555 1_555
C22_4 C23_4 1_555 1_555
O10_4 C35_4 1_555 1_555
C27_4 C35_4 1_555 1_555
C33_4 C34_4 1_555 1_555
Pr3_2 O1_5 1_555 1_555
Co1_3 N1_4 1_555 1_555
O1_5 C11_5 1_555 1_555
O2_5 Pr3_2 1_555 1_555
O3_5 C12_5 1_555 1_555
O4_5 C12_5 1_555 1_555
O15_2 C18_5 1_555 1_555
O17_2 C18_5 1_555 1_555
N1_4 C1_5 1_555 1_555
N2_4 Co1_3 1_555 1_555
N3_5 Co1_3 1_555 1_555
C1_5 C2_5 1_555 1_555
C2_5 C3_5 1_555 1_555
C3_5 C4_5 1_555 1_555
C4_5 C5_5 1_555 1_555
C5_5 N1_4 1_555 1_555
C6_5 N2_4 1_555 1_555
C7_5 C6_5 1_555 1_555
C8_5 C7_5 1_555 1_555
C9_5 C8_5 1_555 1_555
C10_5 N2_4 1_555 1_555
C11_5 O2_5 1_555 1_555
C12_5 C8_5 1_555 1_555
C13_5 N3_5 1_555 1_555
C14_5 C13_5 1_555 1_555
C15_5 C14_5 1_555 1_555
C16_5 C15_5 1_555 1_555
C17_5 N3_5 1_555 1_555
C18_5 C15_5 1_555 1_555
H1_5 C1_5 1_555 1_555
H2_5 C2_5 1_555 1_555
H3_5 C7_5 1_555 1_555
H4_5 C4_5 1_555 1_555
H5_5 C9_5 1_555 1_555
H6_5 C10_5 1_555 1_555
H7_5 C13_5 1_555 1_555
H8_5 C14_5 1_555 1_555
H9_5 C16_5 1_555 1_555
N4_5 Co1_3 1_555 1_555
C19_5 N4_5 1_555 1_555
C22_5 C21_5 1_555 1_555
C23_5 C17_5 1_555 1_555
H12_5 C22_5 1_555 1_555
O9_5 Pr3_2 1_555 1_555
O10_5 Pr3_2 1_555 1_555
C26_5 C27_5 1_555 1_555
C35_5 O9_5 1_555 1_555
H14_5 C26_5 1_555 1_555
Pr5_3 O4_5 1_555 1_555
O13_5 Pr3_2 1_555 1_555
O14_5 Pr3_2 1_555 1_555
N7_4 Co1_3 1_555 1_555
N8_4 Co1_3 1_555 1_555
C3_5 C11_5 1_555 1_555
C5_5 C6_5 1_555 1_555
C9_5 C10_5 1_555 1_555
C16_5 C17_5 1_555 1_555
N4_5 C23_5 1_555 1_555
C22_5 C23_5 1_555 1_555
O10_5 C35_5 1_555 1_555
C27_5 C35_5 1_555 1_555
O11_5 C36_5 1_555 1_555
O12_5 C36_5 1_555 1_555
N5_3 C25_5 1_555 1_555
N6_3 C30_5 1_555 1_555
C28_5 C29_5 1_555 1_555
C29_5 N5_3 1_555 1_555
C30_5 C29_5 1_555 1_555
C31_5 C30_5 1_555 1_555
C32_5 C31_5 1_555 1_555
C33_5 C32_5 1_555 1_555
C34_5 N6_3 1_555 1_555
C36_5 C32_5 1_555 1_555
H13_5 C25_5 1_555 1_555
H15_5 C31_5 1_555 1_555
H17_5 C33_5 1_555 1_555
H18_5 C34_5 1_555 1_555
Pr2_3 O12_5 1_555 1_555
Co2_3 N5_3 1_555 1_555
N6_3 Co2_3 1_555 1_555
C33_5 C34_5 1_555 1_555
O16_4 C24_5 1_555 1_555
O18_4 C24_5 1_555 1_555
H11_5 C20_5 1_555 1_555
Co1_4 N1_5 1_555 1_555
O4_6 C12_6 1_555 1_555
N1_5 C1_6 1_555 1_555
N2_5 Co1_4 1_555 1_555
N3_6 Co1_4 1_555 1_555
C1_6 C2_6 1_555 1_555
C4_6 C5_6 1_555 1_555
C5_6 N1_5 1_555 1_555
C6_6 N2_5 1_555 1_555
C7_6 C6_6 1_555 1_555
C8_6 C7_6 1_555 1_555
C9_6 C8_6 1_555 1_555
C10_6 N2_5 1_555 1_555
C12_6 C8_6 1_555 1_555
C13_6 N3_6 1_555 1_555
C16_6 C15_6 1_555 1_555
C17_6 N3_6 1_555 1_555
H1_6 C1_6 1_555 1_555
H3_6 C7_6 1_555 1_555
H5_6 C9_6 1_555 1_555
H6_6 C10_6 1_555 1_555
H9_6 C16_6 1_555 1_555
O15_3 C24_6 1_555 1_555
O17_3 C24_6 1_555 1_555
N4_6 Co1_4 1_555 1_555
C19_6 N4_6 1_555 1_555
C20_6 C19_6 1_555 1_555
C21_6 C20_6 1_555 1_555
C22_6 C21_6 1_555 1_555
C23_6 C17_6 1_555 1_555
C24_6 C21_6 1_555 1_555
H10_6 C19_6 1_555 1_555
H11_6 C20_6 1_555 1_555
H12_6 C22_6 1_555 1_555
N5_4 C25_6 1_555 1_555
N6_4 C30_6 1_555 1_555
C25_6 C26_6 1_555 1_555
C28_6 C29_6 1_555 1_555
C29_6 N5_4 1_555 1_555
C30_6 C29_6 1_555 1_555
C31_6 C30_6 1_555 1_555
C32_6 C31_6 1_555 1_555
C33_6 C32_6 1_555 1_555
C34_6 N6_4 1_555 1_555
H13_6 C25_6 1_555 1_555
H15_6 C31_6 1_555 1_555
H18_6 C34_6 1_555 1_555
Pr5_4 O4_6 1_555 1_555
Co2_4 N5_4 1_555 1_555
N7_5 Co1_4 1_555 1_555
N8_5 Co1_4 1_555 1_555
C5_6 C6_6 1_555 1_555
C9_6 C10_6 1_555 1_555
C16_6 C17_6 1_555 1_555
N4_6 C23_6 1_555 1_555
C22_6 C23_6 1_555 1_555
N6_4 Co2_4 1_555 1_555
C33_6 C34_6 1_555 1_555
O12_6 C36_6 1_555 1_555
Pr2_4 O12_6 1_555 1_555
Pr3 O1_6 1_555 1_555
O1_6 C11_6 1_555 1_555
O2_6 Pr3 1_555 1_555
O15 C18_6 1_555 1_555
O17 C18_6 1_555 1_555
C11_6 O2_6 1_555 1_555
H8_6 C14_6 1_555 1_555
O9_6 Pr3 1_555 1_555
O10_6 Pr3 1_555 1_555
C35_6 O9_6 1_555 1_555
O13_6 Pr3 1_555 1_555
O14_6 Pr3 1_555 1_555
C3_6 C11_6 1_555 1_555
O10_6 C35_6 1_555 1_555
C27_6 C35_6 1_555 1_555
O16_2 C18_7 1_555 1_555
O18_2 C18_7 1_555 1_555
N3_7 Co2_3 1_555 1_555
C13_7 N3_7 1_555 1_555
C14_7 C13_7 1_555 1_555
C15_7 C14_7 1_555 1_555
C16_7 C15_7 1_555 1_555
C17_7 N3_7 1_555 1_555
C18_7 C15_7 1_555 1_555
H7_7 C13_7 1_555 1_555
H8_7 C14_7 1_555 1_555
H9_7 C16_7 1_555 1_555
N4_7 Co2_3 1_555 1_555
C19_7 N4_7 1_555 1_555
C22_7 C21_7 1_555 1_555
C23_7 C17_7 1_555 1_555
H12_7 C22_7 1_555 1_555
N7_6 Co2_3 1_555 1_555
N8_6 Co2_3 1_555 1_555
C16_7 C17_7 1_555 1_555
N4_7 C23_7 1_555 1_555
C22_7 C23_7 1_555 1_555
O15_4 C24_7 1_555 1_555
O17_4 C24_7 1_555 1_555
H11_7 C20_7 1_555 1_555
O4_7 C12_7 1_555 1_555
N7_4 C1_7 1_555 1_555
C1_7 C2_7 1_555 1_555
C4_7 C5_7 1_555 1_555
C5_7 N7_4 1_555 1_555
C6_7 N8_4 1_555 1_555
C7_7 C6_7 1_555 1_555
C8_7 C7_7 1_555 1_555
C9_7 C8_7 1_555 1_555
C10_7 N8_4 1_555 1_555
C12_7 C8_7 1_555 1_555
H1_7 C1_7 1_555 1_555
H3_7 C7_7 1_555 1_555
H5_7 C9_7 1_555 1_555
H6_7 C10_7 1_555 1_555
Pr5_4 O4_7 1_555 1_555
C5_7 C6_7 1_555 1_555
C9_7 C10_7 1_555 1_555
O12_7 C36_7 1_555 1_555
N7_6 C25_7 1_555 1_555
N8_6 C30_7 1_555 1_555
C28_7 C29_7 1_555 1_555
C29_7 N7_6 1_555 1_555
C30_7 C29_7 1_555 1_555
C31_7 C30_7 1_555 1_555
C32_7 C31_7 1_555 1_555
C33_7 C32_7 1_555 1_555
C34_7 N8_6 1_555 1_555
C36_7 C32_7 1_555 1_555
H13_7 C25_7 1_555 1_555
H15_7 C31_7 1_555 1_555
H17_7 C33_7 1_555 1_555
H18_7 C34_7 1_555 1_555
Pr2_4 O12_7 1_555 1_555
C33_7 C34_7 1_555 1_555
Pr4_2 O1_7 1_555 1_555
O1_7 C11_7 1_555 1_555
O2_7 Pr4_2 1_555 1_555
C11_7 O2_7 1_555 1_555
O9_7 Pr4_2 1_555 1_555
O10_7 Pr4_2 1_555 1_555
C35_7 O9_7 1_555 1_555
O13_7 Pr4_2 1_555 1_555
O14_7 Pr4_2 1_555 1_555
C3_7 C11_7 1_555 1_555
O10_7 C35_7 1_555 1_555
C27_7 C35_7 1_555 1_555
O16_3 C18_8 1_555 1_555
O18_3 C18_8 1_555 1_555
Pr4 O1_8 1_555 1_555
Co2_4 N1_6 1_555 1_555
O1_8 C11_8 1_555 1_555
O2_8 Pr4 1_555 1_555
O3_8 C12_8 1_555 1_555
O4_8 C12_8 1_555 1_555
N1_6 C1_8 1_555 1_555
N2_6 Co2_4 1_555 1_555
N3_8 Co2_4 1_555 1_555
C1_8 C2_8 1_555 1_555
C2_8 C3_8 1_555 1_555
C3_8 C4_8 1_555 1_555
C4_8 C5_8 1_555 1_555
C5_8 N1_6 1_555 1_555
C6_8 N2_6 1_555 1_555
C7_8 C6_8 1_555 1_555
C8_8 C7_8 1_555 1_555
C9_8 C8_8 1_555 1_555
C10_8 N2_6 1_555 1_555
C11_8 O2_8 1_555 1_555
C12_8 C8_8 1_555 1_555
C13_8 N3_8 1_555 1_555
C14_8 C13_8 1_555 1_555
C15_8 C14_8 1_555 1_555
C16_8 C15_8 1_555 1_555
C17_8 N3_8 1_555 1_555
H1_8 C1_8 1_555 1_555
H2_8 C2_8 1_555 1_555
H3_8 C7_8 1_555 1_555
H4_8 C4_8 1_555 1_555
H5_8 C9_8 1_555 1_555
H6_8 C10_8 1_555 1_555
H7_8 C13_8 1_555 1_555
H8_8 C14_8 1_555 1_555
N4_8 Co2_4 1_555 1_555
C19_8 N4_8 1_555 1_555
C22_8 C21_8 1_555 1_555
C23_8 C17_8 1_555 1_555
O9_8 Pr4 1_555 1_555
O10_8 Pr4 1_555 1_555
N7_5 C25_8 1_555 1_555
N8_5 C30_8 1_555 1_555
C25_8 C26_8 1_555 1_555
C26_8 C27_8 1_555 1_555
C27_8 C28_8 1_555 1_555
C28_8 C29_8 1_555 1_555
C29_8 N7_5 1_555 1_555
C30_8 C29_8 1_555 1_555
C31_8 C30_8 1_555 1_555
C32_8 C31_8 1_555 1_555
C33_8 C32_8 1_555 1_555
C34_8 N8_5 1_555 1_555
C35_8 O9_8 1_555 1_555
H13_8 C25_8 1_555 1_555
H14_8 C26_8 1_555 1_555
H15_8 C31_8 1_555 1_555
H16_8 C28_8 1_555 1_555
H18_8 C34_8 1_555 1_555
Pr2_3 O4_8 1_555 1_555
O13_8 Pr4 1_555 1_555
O14_8 Pr4 1_555 1_555
C3_8 C11_8 1_555 1_555
C5_8 C6_8 1_555 1_555
C9_8 C10_8 1_555 1_555
C16_8 C17_8 1_555 1_555
N4_8 C23_8 1_555 1_555
C22_8 C23_8 1_555 1_555
O10_8 C35_8 1_555 1_555
C27_8 C35_8 1_555 1_555
C33_8 C34_8 1_555 1_555
O11_7 C36_8 1_555 1_555
O12_8 C36_8 1_555 1_555
Pr5_3 O12_8 1_555 1_555
O16 C24_8 1_555 1_555
O18 C24_8 1_555 1_555
H11_8 C20_8 1_555 1_555
O11_8 C36_9 1_555 1_555
O13_3 C36_9 1_555 1_555
N5_5 C25_9 1_555 1_555
N6_5 C30_9 1_555 1_555
C28_9 C29_9 1_555 1_555
C29_9 N5_5 1_555 1_555
C30_9 C29_9 1_555 1_555
C31_9 C30_9 1_555 1_555
C32_9 C31_9 1_555 1_555
C33_9 C32_9 1_555 1_555
C34_9 N6_5 1_555 1_555
H13_9 C25_9 1_555 1_555
H15_9 C31_9 1_555 1_555
H18_9 C34_9 1_555 1_555
Co2_5 N5_5 1_555 1_555
N6_5 Co2_5 1_555 1_555
C33_9 C34_9 1_555 1_555
Pr2_4 O1_9 1_555 1_555
Co1_5 N1_7 1_555 1_555
O1_9 C11_9 1_555 1_555
O2_9 Pr2_4 1_555 1_555
O3_9 C12_9 1_555 1_555
O13_2 C12_9 1_555 1_555
O5_5 C18_9 1_555 1_555
O6_5 C18_9 1_555 1_555
N1_7 C1_9 1_555 1_555
N2_7 Co1_5 1_555 1_555
N3_9 Co1_5 1_555 1_555
C1_9 C2_9 1_555 1_555
C2_9 C3_9 1_555 1_555
C3_9 C4_9 1_555 1_555
C4_9 C5_9 1_555 1_555
C5_9 N1_7 1_555 1_555
C6_9 N2_7 1_555 1_555
C7_9 C6_9 1_555 1_555
C8_9 C7_9 1_555 1_555
C9_9 C8_9 1_555 1_555
C10_9 N2_7 1_555 1_555
C11_9 O2_9 1_555 1_555
C12_9 C8_9 1_555 1_555
C13_9 N3_9 1_555 1_555
C14_9 C13_9 1_555 1_555
C15_9 C14_9 1_555 1_555
C16_9 C15_9 1_555 1_555
C17_9 N3_9 1_555 1_555
C18_9 C15_9 1_555 1_555
H1_9 C1_9 1_555 1_555
H2_9 C2_9 1_555 1_555
H3_9 C7_9 1_555 1_555
H4_9 C4_9 1_555 1_555
H5_9 C9_9 1_555 1_555
H6_9 C10_9 1_555 1_555
H7_9 C13_9 1_555 1_555
H8_9 C14_9 1_555 1_555
H9_9 C16_9 1_555 1_555
O7_5 C24_9 1_555 1_555
O8_5 C24_9 1_555 1_555
N4_9 Co1_5 1_555 1_555
C19_9 N4_9 1_555 1_555
C20_9 C19_9 1_555 1_555
C21_9 C20_9 1_555 1_555
C22_9 C21_9 1_555 1_555
C23_9 C17_9 1_555 1_555
C24_9 C21_9 1_555 1_555
H10_9 C19_9 1_555 1_555
H11_9 C20_9 1_555 1_555
H12_9 C22_9 1_555 1_555
O9_9 Pr2_4 1_555 1_555
O10_9 Pr2_4 1_555 1_555
C26_9 C27_9 1_555 1_555
C35_9 O9_9 1_555 1_555
H14_9 C26_9 1_555 1_555
Pr5_3 O5_5 1_555 1_555
Pr5_2 O7_5 1_555 1_555
O15_5 Pr2_4 1_555 1_555
O16_5 Pr2_4 1_555 1_555
O17_5 Pr2_4 1_555 1_555
O18_5 Pr2_4 1_555 1_555
N7_7 Co1_5 1_555 1_555
N8_7 Co1_5 1_555 1_555
O6_5 Pr5_3 1_555 1_555
C3_9 C11_9 1_555 1_555
C5_9 C6_9 1_555 1_555
C9_9 C10_9 1_555 1_555
C16_9 C17_9 1_555 1_555
O8_5 Pr5_2 1_555 1_555
N4_9 C23_9 1_555 1_555
C22_9 C23_9 1_555 1_555
O10_9 C35_9 1_555 1_555
C27_9 C35_9 1_555 1_555
Pr5 O1_10 1_555 1_555
Co1_6 N1_8 1_555 1_555
O1_10 C11_10 1_555 1_555
O2_10 Pr5 1_555 1_555
O3_10 C12_10 1_555 1_555
O13_8 C12_10 1_555 1_555
O5_6 C18_10 1_555 1_555
O6_6 C18_10 1_555 1_555
N1_8 C1_10 1_555 1_555
N2_8 Co1_6 1_555 1_555
N3_10 Co1_6 1_555 1_555
C1_10 C2_10 1_555 1_555
C2_10 C3_10 1_555 1_555
C3_10 C4_10 1_555 1_555
C4_10 C5_10 1_555 1_555
C5_10 N1_8 1_555 1_555
C6_10 N2_8 1_555 1_555
C7_10 C6_10 1_555 1_555
C8_10 C7_10 1_555 1_555
C9_10 C8_10 1_555 1_555
C10_10 N2_8 1_555 1_555
C11_10 O2_10 1_555 1_555
C12_10 C8_10 1_555 1_555
C13_10 N3_10 1_555 1_555
C14_10 C13_10 1_555 1_555
C15_10 C14_10 1_555 1_555
C16_10 C15_10 1_555 1_555
C17_10 N3_10 1_555 1_555
C18_10 C15_10 1_555 1_555
H1_10 C1_10 1_555 1_555
H2_10 C2_10 1_555 1_555
H3_10 C7_10 1_555 1_555
H4_10 C4_10 1_555 1_555
H5_10 C9_10 1_555 1_555
H6_10 C10_10 1_555 1_555
H7_10 C13_10 1_555 1_555
H8_10 C14_10 1_555 1_555
H9_10 C16_10 1_555 1_555
O7_6 C24_10 1_555 1_555
O8_6 C24_10 1_555 1_555
N4_10 Co1_6 1_555 1_555
C19_10 N4_10 1_555 1_555
C20_10 C19_10 1_555 1_555
C21_10 C20_10 1_555 1_555
C22_10 C21_10 1_555 1_555
C23_10 C17_10 1_555 1_555
C24_10 C21_10 1_555 1_555
H10_10 C19_10 1_555 1_555
H11_10 C20_10 1_555 1_555
H12_10 C22_10 1_555 1_555
O9_10 Pr5 1_555 1_555
O10_10 Pr5 1_555 1_555
O11_9 C36_10 1_555 1_555
O14_5 C36_10 1_555 1_555
N5_6 C25_10 1_555 1_555
N6_6 C30_10 1_555 1_555
C25_10 C26_10 1_555 1_555
C26_10 C27_10 1_555 1_555
C27_10 C28_10 1_555 1_555
C28_10 C29_10 1_555 1_555
C29_10 N5_6 1_555 1_555
C30_10 C29_10 1_555 1_555
C31_10 C30_10 1_555 1_555
C32_10 C31_10 1_555 1_555
C33_10 C32_10 1_555 1_555
C34_10 N6_6 1_555 1_555
C35_10 O9_10 1_555 1_555
C36_10 C32_10 1_555 1_555
H13_10 C25_10 1_555 1_555
H14_10 C26_10 1_555 1_555
H15_10 C31_10 1_555 1_555
H16_10 C28_10 1_555 1_555
H17_10 C33_10 1_555 1_555
H18_10 C34_10 1_555 1_555
Pr2_2 O5_6 1_555 1_555
Pr2_3 O7_6 1_555 1_555
Co2_6 N5_6 1_555 1_555
O15_6 Pr5 1_555 1_555
O16_6 Pr5 1_555 1_555
O17_6 Pr5 1_555 1_555
O18_6 Pr5 1_555 1_555
N7_8 Co1_6 1_555 1_555
N8_8 Co1_6 1_555 1_555
O6_6 Pr2_2 1_555 1_555
C3_10 C11_10 1_555 1_555
C5_10 C6_10 1_555 1_555
C9_10 C10_10 1_555 1_555
C16_10 C17_10 1_555 1_555
O8_6 Pr2_3 1_555 1_555
N4_10 C23_10 1_555 1_555
C22_10 C23_10 1_555 1_555
O10_10 C35_10 1_555 1_555
N6_6 Co2_6 1_555 1_555
C27_10 C35_10 1_555 1_555
C33_10 C34_10 1_555 1_555
O5_7 C18_11 1_555 1_555
O6_7 C18_11 1_555 1_555
N3_11 Co2_5 1_555 1_555
C13_11 N3_11 1_555 1_555
C14_11 C13_11 1_555 1_555
C15_11 C14_11 1_555 1_555
C16_11 C15_11 1_555 1_555
C17_11 N3_11 1_555 1_555
C18_11 C15_11 1_555 1_555
H7_11 C13_11 1_555 1_555
H8_11 C14_11 1_555 1_555
H9_11 C16_11 1_555 1_555
O7_7 C24_11 1_555 1_555
O8_7 C24_11 1_555 1_555
N4_11 Co2_5 1_555 1_555
C19_11 N4_11 1_555 1_555
C20_11 C19_11 1_555 1_555
C21_11 C20_11 1_555 1_555
C22_11 C21_11 1_555 1_555
C23_11 C17_11 1_555 1_555
C24_11 C21_11 1_555 1_555
H10_11 C19_11 1_555 1_555
H11_11 C20_11 1_555 1_555
H12_11 C22_11 1_555 1_555
Pr5_3 O5_7 1_555 1_555
Pr5_2 O7_7 1_555 1_555
N7_9 Co2_5 1_555 1_555
N8_9 Co2_5 1_555 1_555
O6_7 Pr5_3 1_555 1_555
C16_11 C17_11 1_555 1_555
O8_7 Pr5_2 1_555 1_555
N4_11 C23_11 1_555 1_555
C22_11 C23_11 1_555 1_555
O11_10 C36_11 1_555 1_555
O13_5 C36_11 1_555 1_555
N7_9 C25_11 1_555 1_555
N8_9 C30_11 1_555 1_555
C28_11 C29_11 1_555 1_555
C29_11 N7_9 1_555 1_555
C30_11 C29_11 1_555 1_555
C31_11 C30_11 1_555 1_555
C32_11 C31_11 1_555 1_555
C33_11 C32_11 1_555 1_555
C34_11 N8_9 1_555 1_555
C36_11 C32_11 1_555 1_555
H13_11 C25_11 1_555 1_555
H15_11 C31_11 1_555 1_555
H17_11 C33_11 1_555 1_555
H18_11 C34_11 1_555 1_555
C33_11 C34_11 1_555 1_555
O3_11 C12_11 1_555 1_555
O14_8 C12_11 1_555 1_555
Pr2 O1_11 1_555 1_555
O1_11 C11_11 1_555 1_555
O2_11 Pr2 1_555 1_555
N7_7 C1_11 1_555 1_555
C1_11 C2_11 1_555 1_555
C2_11 C3_11 1_555 1_555
C3_11 C4_11 1_555 1_555
C4_11 C5_11 1_555 1_555
C5_11 N7_7 1_555 1_555
C6_11 N8_7 1_555 1_555
C7_11 C6_11 1_555 1_555
C8_11 C7_11 1_555 1_555
C9_11 C8_11 1_555 1_555
C10_11 N8_7 1_555 1_555
C11_11 O2_11 1_555 1_555
H1_11 C1_11 1_555 1_555
H2_11 C2_11 1_555 1_555
H3_11 C7_11 1_555 1_555
H4_11 C4_11 1_555 1_555
H6_11 C10_11 1_555 1_555
O9_11 Pr2 1_555 1_555
O10_11 Pr2 1_555 1_555
C26_11 C27_11 1_555 1_555
C35_11 O9_11 1_555 1_555
H14_11 C26_11 1_555 1_555
O15_7 Pr2 1_555 1_555
O16_7 Pr2 1_555 1_555
O17_7 Pr2 1_555 1_555
O18_7 Pr2 1_555 1_555
C3_11 C11_11 1_555 1_555
C5_11 C6_11 1_555 1_555
C9_11 C10_11 1_555 1_555
O10_11 C35_11 1_555 1_555
C27_11 C35_11 1_555 1_555
Pr5_4 O1_12 1_555 1_555
Co2_6 N1_9 1_555 1_555
O1_12 C11_12 1_555 1_555
O2_12 Pr5_4 1_555 1_555
O3_12 C12_12 1_555 1_555
O14_3 C12_12 1_555 1_555
N1_9 C1_12 1_555 1_555
N2_9 Co2_6 1_555 1_555
N3_12 Co2_6 1_555 1_555
C1_12 C2_12 1_555 1_555
C2_12 C3_12 1_555 1_555
C3_12 C4_12 1_555 1_555
C4_12 C5_12 1_555 1_555
C5_12 N1_9 1_555 1_555
C6_12 N2_9 1_555 1_555
C7_12 C6_12 1_555 1_555
C8_12 C7_12 1_555 1_555
C9_12 C8_12 1_555 1_555
C10_12 N2_9 1_555 1_555
C11_12 O2_12 1_555 1_555
C12_12 C8_12 1_555 1_555
C13_12 N3_12 1_555 1_555
C14_12 C13_12 1_555 1_555
C15_12 C14_12 1_555 1_555
C16_12 C15_12 1_555 1_555
C17_12 N3_12 1_555 1_555
H1_12 C1_12 1_555 1_555
H2_12 C2_12 1_555 1_555
H3_12 C7_12 1_555 1_555
H4_12 C4_12 1_555 1_555
H5_12 C9_12 1_555 1_555
H6_12 C10_12 1_555 1_555
H7_12 C13_12 1_555 1_555
H8_12 C14_12 1_555 1_555
N4_12 Co2_6 1_555 1_555
C19_12 N4_12 1_555 1_555
C20_12 C19_12 1_555 1_555
C21_12 C20_12 1_555 1_555
C22_12 C21_12 1_555 1_555
C23_12 C17_12 1_555 1_555
H10_12 C19_12 1_555 1_555
H11_12 C20_12 1_555 1_555
O9_12 Pr5_4 1_555 1_555
O10_12 Pr5_4 1_555 1_555
O11_11 C36_12 1_555 1_555
O14_2 C36_12 1_555 1_555
N7_8 C25_12 1_555 1_555
N8_8 C30_12 1_555 1_555
C25_12 C26_12 1_555 1_555
C26_12 C27_12 1_555 1_555
C27_12 C28_12 1_555 1_555
C28_12 C29_12 1_555 1_555
C29_12 N7_8 1_555 1_555
C30_12 C29_12 1_555 1_555
C31_12 C30_12 1_555 1_555
C32_12 C31_12 1_555 1_555
C33_12 C32_12 1_555 1_555
C34_12 N8_8 1_555 1_555
C35_12 O9_12 1_555 1_555
C36_12 C32_12 1_555 1_555
H13_12 C25_12 1_555 1_555
H14_12 C26_12 1_555 1_555
H15_12 C31_12 1_555 1_555
H16_12 C28_12 1_555 1_555
H17_12 C33_12 1_555 1_555
H18_12 C34_12 1_555 1_555
O15_8 Pr5_4 1_555 1_555
O16_8 Pr5_4 1_555 1_555
O17_8 Pr5_4 1_555 1_555
O18_8 Pr5_4 1_555 1_555
C3_12 C11_12 1_555 1_555
C5_12 C6_12 1_555 1_555
C9_12 C10_12 1_555 1_555
C16_12 C17_12 1_555 1_555
N4_12 C23_12 1_555 1_555
C22_12 C23_12 1_555 1_555
O10_12 C35_12 1_555 1_555
C27_12 C35_12 1_555 1_555
C33_12 C34_12 1_555 1_555
O5_8 C18_12 1_555 1_555
O6_8 C18_12 1_555 1_555
O7_8 C24_12 1_555 1_555
O8_8 C24_12 1_555 1_555
Pr2_3 O5_8 1_555 1_555
Pr2_2 O7_8 1_555 1_555
O6_8 Pr2_3 1_555 1_555
O8_8 Pr2_2 1_555 1_555
O16_8 C24_13 1_555 1_555
O18_8 C24_13 1_555 1_555
H11_13 C20_13 1_555 1_555
O11_12 C36_13 1_555 1_555
O13_7 C36_13 1_555 1_555
N5_7 C25_13 1_555 1_555
N6_7 C30_13 1_555 1_555
C28_13 C29_13 1_555 1_555
C29_13 N5_7 1_555 1_555
C30_13 C29_13 1_555 1_555
C31_13 C30_13 1_555 1_555
C32_13 C31_13 1_555 1_555
C33_13 C32_13 1_555 1_555
C34_13 N6_7 1_555 1_555
C36_13 C32_13 1_555 1_555
H13_13 C25_13 1_555 1_555
H15_13 C31_13 1_555 1_555
H17_13 C33_13 1_555 1_555
H18_13 C34_13 1_555 1_555
Co2_7 N5_7 1_555 1_555
N6_7 Co2_7 1_555 1_555
C33_13 C34_13 1_555 1_555
Pr2_2 O1_13 1_555 1_555
Co1_7 N1_10 1_555 1_555
O1_13 C11_13 1_555 1_555
O2_13 Pr2_2 1_555 1_555
O3_13 C12_13 1_555 1_555
O13_6 C12_13 1_555 1_555
O15_6 C18_13 1_555 1_555
O17_6 C18_13 1_555 1_555
N1_10 C1_13 1_555 1_555
N2_10 Co1_7 1_555 1_555
N3_13 Co1_7 1_555 1_555
C1_13 C2_13 1_555 1_555
C2_13 C3_13 1_555 1_555
C3_13 C4_13 1_555 1_555
C4_13 C5_13 1_555 1_555
C5_13 N1_10 1_555 1_555
C6_13 N2_10 1_555 1_555
C7_13 C6_13 1_555 1_555
C8_13 C7_13 1_555 1_555
C9_13 C8_13 1_555 1_555
C10_13 N2_10 1_555 1_555
C11_13 O2_13 1_555 1_555
C12_13 C8_13 1_555 1_555
C13_13 N3_13 1_555 1_555
C14_13 C13_13 1_555 1_555
C15_13 C14_13 1_555 1_555
C16_13 C15_13 1_555 1_555
C17_13 N3_13 1_555 1_555
C18_13 C15_13 1_555 1_555
H1_13 C1_13 1_555 1_555
H2_13 C2_13 1_555 1_555
H3_13 C7_13 1_555 1_555
H4_13 C4_13 1_555 1_555
H5_13 C9_13 1_555 1_555
H6_13 C10_13 1_555 1_555
H7_13 C13_13 1_555 1_555
H8_13 C14_13 1_555 1_555
H9_13 C16_13 1_555 1_555
N4_13 Co1_7 1_555 1_555
C19_13 N4_13 1_555 1_555
C22_13 C21_13 1_555 1_555
C23_13 C17_13 1_555 1_555
H12_13 C22_13 1_555 1_555
O9_13 Pr2_2 1_555 1_555
O10_13 Pr2_2 1_555 1_555
C26_13 C27_13 1_555 1_555
C35_13 O9_13 1_555 1_555
H14_13 C26_13 1_555 1_555
N7_10 Co1_7 1_555 1_555
N8_10 Co1_7 1_555 1_555
C3_13 C11_13 1_555 1_555
C5_13 C6_13 1_555 1_555
C9_13 C10_13 1_555 1_555
C16_13 C17_13 1_555 1_555
N4_13 C23_13 1_555 1_555
C22_13 C23_13 1_555 1_555
O10_13 C35_13 1_555 1_555
C27_13 C35_13 1_555 1_555
Pr5_3 O1_14 1_555 1_555
O1_14 C11_14 1_555 1_555
O2_14 Pr5_3 1_555 1_555
O15_5 C18_14 1_555 1_555
O17_5 C18_14 1_555 1_555
C11_14 O2_14 1_555 1_555
H8_14 C14_14 1_555 1_555
O9_14 Pr5_3 1_555 1_555
O10_14 Pr5_3 1_555 1_555
C35_14 O9_14 1_555 1_555
C3_14 C11_14 1_555 1_555
O10_14 C35_14 1_555 1_555
C27_14 C35_14 1_555 1_555
O14 C36_14 1_555 1_555
Co1_8 N1_11 1_555 1_555
O13_4 C12_14 1_555 1_555
N1_11 C1_14 1_555 1_555
N2_11 Co1_8 1_555 1_555
N3_14 Co1_8 1_555 1_555
C1_14 C2_14 1_555 1_555
C4_14 C5_14 1_555 1_555
C5_14 N1_11 1_555 1_555
C6_14 N2_11 1_555 1_555
C7_14 C6_14 1_555 1_555
C8_14 C7_14 1_555 1_555
C9_14 C8_14 1_555 1_555
C10_14 N2_11 1_555 1_555
C12_14 C8_14 1_555 1_555
C13_14 N3_14 1_555 1_555
C16_14 C15_14 1_555 1_555
C17_14 N3_14 1_555 1_555
H1_14 C1_14 1_555 1_555
H3_14 C7_14 1_555 1_555
H5_14 C9_14 1_555 1_555
H6_14 C10_14 1_555 1_555
H9_14 C16_14 1_555 1_555
O15_7 C24_14 1_555 1_555
O17_7 C24_14 1_555 1_555
N4_14 Co1_8 1_555 1_555
C19_14 N4_14 1_555 1_555
C20_14 C19_14 1_555 1_555
C21_14 C20_14 1_555 1_555
C22_14 C21_14 1_555 1_555
C23_14 C17_14 1_555 1_555
C24_14 C21_14 1_555 1_555
H10_14 C19_14 1_555 1_555
H11_14 C20_14 1_555 1_555
H12_14 C22_14 1_555 1_555
N5_8 C25_14 1_555 1_555
N6_8 C30_14 1_555 1_555
C25_14 C26_14 1_555 1_555
C28_14 C29_14 1_555 1_555
C29_14 N5_8 1_555 1_555
C30_14 C29_14 1_555 1_555
C31_14 C30_14 1_555 1_555
C32_14 C31_14 1_555 1_555
C33_14 C32_14 1_555 1_555
C34_14 N6_8 1_555 1_555
H13_14 C25_14 1_555 1_555
H15_14 C31_14 1_555 1_555
H18_14 C34_14 1_555 1_555
Co2_8 N5_8 1_555 1_555
N7_11 Co1_8 1_555 1_555
N8_11 Co1_8 1_555 1_555
C5_14 C6_14 1_555 1_555
C9_14 C10_14 1_555 1_555
C16_14 C17_14 1_555 1_555
N4_14 C23_14 1_555 1_555
C22_14 C23_14 1_555 1_555
N6_8 Co2_8 1_555 1_555
C33_14 C34_14 1_555 1_555
O15_8 C24_15 1_555 1_555
O17_8 C24_15 1_555 1_555
H11_15 C20_15 1_555 1_555
O16_6 C18_15 1_555 1_555
O18_6 C18_15 1_555 1_555
N3_15 Co2_7 1_555 1_555
C13_15 N3_15 1_555 1_555
C14_15 C13_15 1_555 1_555
C15_15 C14_15 1_555 1_555
C16_15 C15_15 1_555 1_555
C17_15 N3_15 1_555 1_555
C18_15 C15_15 1_555 1_555
H7_15 C13_15 1_555 1_555
H8_15 C14_15 1_555 1_555
H9_15 C16_15 1_555 1_555
N4_15 Co2_7 1_555 1_555
C19_15 N4_15 1_555 1_555
C22_15 C21_15 1_555 1_555
C23_15 C17_15 1_555 1_555
H12_15 C22_15 1_555 1_555
N7_12 Co2_7 1_555 1_555
N8_12 Co2_7 1_555 1_555
C16_15 C17_15 1_555 1_555
N4_15 C23_15 1_555 1_555
C22_15 C23_15 1_555 1_555
Pr2_3 O1_15 1_555 1_555
O1_15 C11_15 1_555 1_555
O2_15 Pr2_3 1_555 1_555
C11_15 O2_15 1_555 1_555
O9_15 Pr2_3 1_555 1_555
O10_15 Pr2_3 1_555 1_555
C35_15 O9_15 1_555 1_555
C3_15 C11_15 1_555 1_555
O10_15 C35_15 1_555 1_555
C27_15 C35_15 1_555 1_555
O13 C36_15 1_555 1_555
N7_12 C25_15 1_555 1_555
N8_12 C30_15 1_555 1_555
C28_15 C29_15 1_555 1_555
C29_15 N7_12 1_555 1_555
C30_15 C29_15 1_555 1_555
C31_15 C30_15 1_555 1_555
C32_15 C31_15 1_555 1_555
C33_15 C32_15 1_555 1_555
C34_15 N8_12 1_555 1_555
C36_15 C32_15 1_555 1_555
H13_15 C25_15 1_555 1_555
H15_15 C31_15 1_555 1_555
H17_15 C33_15 1_555 1_555
H18_15 C34_15 1_555 1_555
C33_15 C34_15 1_555 1_555
O14_4 C12_15 1_555 1_555
N7_10 C1_15 1_555 1_555
C1_15 C2_15 1_555 1_555
C4_15 C5_15 1_555 1_555
C5_15 N7_10 1_555 1_555
C6_15 N8_10 1_555 1_555
C7_15 C6_15 1_555 1_555
C8_15 C7_15 1_555 1_555
C9_15 C8_15 1_555 1_555
C10_15 N8_10 1_555 1_555
C12_15 C8_15 1_555 1_555
H1_15 C1_15 1_555 1_555
H3_15 C7_15 1_555 1_555
H5_15 C9_15 1_555 1_555
H6_15 C10_15 1_555 1_555
C5_15 C6_15 1_555 1_555
C9_15 C10_15 1_555 1_555
H11_16 C20_16 1_555 1_555
O16_5 C24_16 1_555 1_555
O18_5 C24_16 1_555 1_555
O11_14 C36_16 1_555 1_555
O14_6 C36_16 1_555 1_555
Pr5_2 O1_16 1_555 1_555
Co2_8 N1_12 1_555 1_555
O1_16 C11_16 1_555 1_555
O2_16 Pr5_2 1_555 1_555
O3_16 C12_16 1_555 1_555
O14_7 C12_16 1_555 1_555
N1_12 C1_16 1_555 1_555
N2_12 Co2_8 1_555 1_555
N3_16 Co2_8 1_555 1_555
C1_16 C2_16 1_555 1_555
C2_16 C3_16 1_555 1_555
C3_16 C4_16 1_555 1_555
C4_16 C5_16 1_555 1_555
C5_16 N1_12 1_555 1_555
C6_16 N2_12 1_555 1_555
C7_16 C6_16 1_555 1_555
C8_16 C7_16 1_555 1_555
C9_16 C8_16 1_555 1_555
C10_16 N2_12 1_555 1_555
C11_16 O2_16 1_555 1_555
C12_16 C8_16 1_555 1_555
C13_16 N3_16 1_555 1_555
C14_16 C13_16 1_555 1_555
C15_16 C14_16 1_555 1_555
C16_16 C15_16 1_555 1_555
C17_16 N3_16 1_555 1_555
H1_16 C1_16 1_555 1_555
H2_16 C2_16 1_555 1_555
H3_16 C7_16 1_555 1_555
H4_16 C4_16 1_555 1_555
H5_16 C9_16 1_555 1_555
H6_16 C10_16 1_555 1_555
H7_16 C13_16 1_555 1_555
H8_16 C14_16 1_555 1_555
N4_16 Co2_8 1_555 1_555
C19_16 N4_16 1_555 1_555
C22_16 C21_16 1_555 1_555
C23_16 C17_16 1_555 1_555
O9_16 Pr5_2 1_555 1_555
O10_16 Pr5_2 1_555 1_555
N7_11 C25_16 1_555 1_555
N8_11 C30_16 1_555 1_555
C25_16 C26_16 1_555 1_555
C26_16 C27_16 1_555 1_555
C27_16 C28_16 1_555 1_555
C28_16 C29_16 1_555 1_555
C29_16 N7_11 1_555 1_555
C30_16 C29_16 1_555 1_555
C31_16 C30_16 1_555 1_555
C32_16 C31_16 1_555 1_555
C33_16 C32_16 1_555 1_555
C34_16 N8_11 1_555 1_555
C35_16 O9_16 1_555 1_555
H13_16 C25_16 1_555 1_555
H14_16 C26_16 1_555 1_555
H15_16 C31_16 1_555 1_555
H16_16 C28_16 1_555 1_555
H18_16 C34_16 1_555 1_555
C3_16 C11_16 1_555 1_555
C5_16 C6_16 1_555 1_555
C9_16 C10_16 1_555 1_555
C16_16 C17_16 1_555 1_555
N4_16 C23_16 1_555 1_555
C22_16 C23_16 1_555 1_555
O10_16 C35_16 1_555 1_555
C27_16 C35_16 1_555 1_555
C33_16 C34_16 1_555 1_555
O16_7 C18_16 1_555 1_555
O18_7 C18_16 1_555 1_555

#END
