
###############################################################################
#
# This file contains modified crystal structure data generated from the
# MOF subset of the Cambridge Structural Database (CSD) v543 
# hosted by the Cambridge Crystallographic Data Centre (CCDC).
#
# This work is licensed under the Creative Commons
# Attribution-NonCommercial-ShareAlike 4.0 International License.
# To view a copy of this license, visit
# http://creativecommons.org/licenses/by-nc-sa/4.0/
# or send a letter to
# Creative Commons, PO Box 1866, Mountain View, CA 94042, USA.
#
# CIF created using the CSD Python API on 29 September 2022
# The structure has been converted into the P1 space group
# The structure has a 3D framework
# The original CSD entry ZOZHIH is in the orthorhombic crystal system
# The framework has been calculated to contain at least 10.0% void space
# The void calculation uses a probe of radius 1.32A, grid spacing 0.4
#
###############################################################################

data_ZOZHIH
_chemical_formula_moiety         '(C576 H288 Ce16 Co16 N96 O192)n'
_symmetry_cell_setting           triclinic
_symmetry_space_group_name_H-M   'P 1'
_symmetry_Int_Tables_number      1
_space_group_name_Hall           'P 1'
loop_
_symmetry_equiv_pos_site_id
_symmetry_equiv_pos_as_xyz
1 x,y,z
_cell_length_a                   23.420(7)
_cell_length_b                   28.043(8)
_cell_length_c                   36.241(10)
_cell_angle_alpha                90
_cell_angle_beta                 90
_cell_angle_gamma                90
_cell_volume                     23801.9
loop_
_atom_site_label
_atom_site_type_symbol
_atom_site_fract_x
_atom_site_fract_y
_atom_site_fract_z
Ce1 Ce 0.352123(18) 0.6250 0.1250
Co1 Co 0.6250 0.39217(3) 0.1250
O1 O 0.44179(17) 0.58246(15) 0.10074(11)
O2 O 0.41979(19) 0.56238(16) 0.15804(12)
O3 O 0.5011(3) 0.4275(3) 0.29381(14)
O4 O 0.5732(2) 0.38061(17) 0.31159(11)
O5 O 0.4158(2) 0.21833(17) 0.10670(15)
O6 O 0.4851(3) 0.17943(18) 0.13509(15)
N1 N 0.56830(19) 0.44218(15) 0.12182(13)
N2 N 0.6076(2) 0.39385(16) 0.17708(13)
N3 N 0.57032(19) 0.34120(17) 0.12041(13)
C1 C 0.5510(3) 0.4649(2) 0.09137(16)
C2 C 0.5117(3) 0.5017(3) 0.09249(17)
C3 C 0.4902(3) 0.51608(19) 0.12621(17)
C4 C 0.5080(3) 0.4927(2) 0.15799(16)
C5 C 0.5464(3) 0.45525(19) 0.15500(15)
C6 C 0.5665(3) 0.42648(19) 0.18610(15)
C7 C 0.5458(3) 0.4305(3) 0.22173(16)
C8 C 0.5679(3) 0.4012(3) 0.24883(17)
C9 C 0.6104(3) 0.3685(3) 0.23978(17)
C10 C 0.6288(3) 0.36555(19) 0.20347(16)
C11 C 0.4475(3) 0.55668(19) 0.12869(16)
C12 C 0.5450(3) 0.4038(3) 0.28836(18)
C13 C 0.5135(3) 0.3447(2) 0.11682(17)
C14 C 0.4785(3) 0.3053(3) 0.11585(18)
C15 C 0.5020(3) 0.2602(2) 0.11925(17)
C16 C 0.5610(3) 0.2558(2) 0.12307(19)
C17 C 0.5939(3) 0.29675(19) 0.12297(17)
C18 C 0.4650(3) 0.2159(3) 0.12083(19)
H1 H 0.5643 0.4529 0.0667
H2 H 0.4965 0.5181 0.0683
H3 H 0.4920 0.5030 0.1827
H4 H 0.5169 0.4530 0.2275
H5 H 0.6266 0.3486 0.2582
H6 H 0.6572 0.3428 0.1972
H7 H 0.4968 0.3755 0.1149
H8 H 0.4384 0.3090 0.1129
H9 H 0.5782 0.2253 0.1257
O7 O 0.8342(2) 0.21833(17) 0.14330(15)
O8 O 0.7649(3) 0.17943(18) 0.11491(15)
N4 N 0.67968(19) 0.34120(17) 0.12959(13)
C19 C 0.7365(3) 0.3447(2) 0.13318(17)
C20 C 0.7715(3) 0.3053(3) 0.13415(18)
C21 C 0.7480(3) 0.2602(2) 0.13075(17)
C22 C 0.6890(3) 0.2558(2) 0.12693(19)
C23 C 0.6561(3) 0.29675(19) 0.12703(17)
C24 C 0.7850(3) 0.2159(3) 0.12917(19)
H10 H 0.7532 0.3755 0.1351
H11 H 0.8116 0.3090 0.1371
H12 H 0.6718 0.2253 0.1243
O9 O 0.44179(17) 0.66754(15) 0.14926(11)
O10 O 0.41979(19) 0.68762(16) 0.09196(12)
N5 N 0.56830(19) 0.80782(15) 0.12818(13)
N6 N 0.6076(2) 0.85615(16) 0.07292(13)
C25 C 0.5510(3) 0.7851(2) 0.15863(16)
C26 C 0.5117(3) 0.7483(3) 0.15751(17)
C27 C 0.4902(3) 0.73392(19) 0.12379(17)
C28 C 0.5080(3) 0.7573(2) 0.09201(16)
C29 C 0.5464(3) 0.79475(19) 0.09500(15)
C30 C 0.5665(3) 0.82352(19) 0.06390(15)
C31 C 0.5458(3) 0.8195(3) 0.02827(16)
C32 C 0.5679(3) 0.8488(3) 0.00117(17)
C33 C 0.6104(3) 0.8815(3) 0.01022(17)
C34 C 0.6288(3) 0.88445(19) 0.04653(16)
C35 C 0.4475(3) 0.69332(19) 0.12131(16)
H13 H 0.5643 0.7971 0.1833
H14 H 0.4965 0.7319 0.1817
H15 H 0.4920 0.7470 0.0673
H16 H 0.5169 0.7970 0.0225
H18 H 0.6572 0.9072 0.0528
Ce2 Ce 0.602123(18) 0.3750 0.3750
Ce4 Ce 0.397877(18) 0.1250 0.1250
Ce5 Ce 0.852123(18) 0.1250 0.1250
Co2 Co 0.6250 0.85783(3) 0.1250
O13 O 0.3232(2) 0.61939(17) 0.06159(11)
O14 O 0.3232(2) 0.63061(17) 0.18841(11)
O15 O 0.3342(2) 0.53167(17) 0.10670(15)
O16 O 0.3342(2) 0.71833(17) 0.14330(15)
O17 O 0.2649(3) 0.57057(18) 0.13509(15)
O18 O 0.2649(3) 0.67943(18) 0.11491(15)
N7 N 0.68170(19) 0.44218(15) 0.12818(13)
N8 N 0.6424(2) 0.39385(16) 0.07292(13)
O11 O 0.5011(3) 0.8225(3) 0.95619(14)
O12 O 0.5732(2) 0.86939(17) 0.93841(11)
C36 C 0.5450(3) 0.8462(3) 0.96164(18)
H17 H 0.6266 0.9014 0.9918
Ce3 Ce 0.602123(18) 0.8750 0.8750
Ce1_2 Ce 0.897877(18) 0.1250 0.6250
Co1_2 Co 0.6250 0.35783(3) 0.6250
O1_2 O 0.80821(17) 0.16754(15) 0.60074(11)
O2_2 O 0.83021(19) 0.18762(16) 0.65804(12)
O3_2 O 0.7489(3) 0.3225(3) 0.79381(14)
O4_2 O 0.6768(2) 0.36939(17) 0.81159(11)
O5_2 O 0.8342(2) 0.53167(17) 0.60670(15)
O6_2 O 0.7649(3) 0.57057(18) 0.63509(15)
N1_2 N 0.68170(19) 0.30782(15) 0.62182(13)
N2_2 N 0.6424(2) 0.35615(16) 0.67708(13)
N3_2 N 0.67968(19) 0.40880(17) 0.62041(13)
C1_2 C 0.6990(3) 0.2851(2) 0.59137(16)
C2_2 C 0.7383(3) 0.2483(3) 0.59249(17)
C3_2 C 0.7598(3) 0.23392(19) 0.62621(17)
C4_2 C 0.7420(3) 0.2573(2) 0.65799(16)
C5_2 C 0.7036(3) 0.29475(19) 0.65500(15)
C6_2 C 0.6835(3) 0.32352(19) 0.68610(15)
C7_2 C 0.7042(3) 0.3195(3) 0.72173(16)
C8_2 C 0.6821(3) 0.3488(3) 0.74883(17)
C9_2 C 0.6396(3) 0.3815(3) 0.73978(17)
C10_2 C 0.6212(3) 0.38445(19) 0.70347(16)
C11_2 C 0.8025(3) 0.19332(19) 0.62869(16)
C12_2 C 0.7050(3) 0.3462(3) 0.78836(18)
C13_2 C 0.7365(3) 0.4053(2) 0.61682(17)
C14_2 C 0.7715(3) 0.4447(3) 0.61585(18)
C15_2 C 0.7480(3) 0.4898(2) 0.61925(17)
C16_2 C 0.6890(3) 0.4942(2) 0.62307(19)
C17_2 C 0.6561(3) 0.45325(19) 0.62297(17)
C18_2 C 0.7850(3) 0.5341(3) 0.62083(19)
H1_2 H 0.6857 0.2971 0.5667
H2_2 H 0.7535 0.2319 0.5683
H3_2 H 0.7580 0.2470 0.6827
H4_2 H 0.7331 0.2970 0.7275
H5_2 H 0.6234 0.4014 0.7582
H6_2 H 0.5928 0.4072 0.6972
H7_2 H 0.7532 0.3745 0.6149
H8_2 H 0.8116 0.4410 0.6129
H9_2 H 0.6718 0.5247 0.6257
O7_2 O 0.4158(2) 0.53167(17) 0.64330(15)
O8_2 O 0.4851(3) 0.57057(18) 0.61491(15)
N4_2 N 0.57032(19) 0.40880(17) 0.62959(13)
C19_2 C 0.5135(3) 0.4053(2) 0.63318(17)
C20_2 C 0.4785(3) 0.4447(3) 0.63415(18)
C21_2 C 0.5020(3) 0.4898(2) 0.63075(17)
C22_2 C 0.5610(3) 0.4942(2) 0.62693(19)
C23_2 C 0.5939(3) 0.45325(19) 0.62703(17)
C24_2 C 0.4650(3) 0.5341(3) 0.62917(19)
H10_2 H 0.4968 0.3745 0.6351
H11_2 H 0.4384 0.4410 0.6371
H12_2 H 0.5782 0.5247 0.6243
O9_2 O 0.80821(17) 0.08246(15) 0.64926(11)
O10_2 O 0.83021(19) 0.06238(16) 0.59196(12)
C26_2 C 0.7383(3) 0.0017(3) 0.65751(17)
C27_2 C 0.7598(3) 0.01608(19) 0.62379(17)
C35_2 C 0.8025(3) 0.05668(19) 0.62131(16)
H14_2 H 0.7535 0.0181 0.6817
H15_2 H 0.7580 0.0030 0.5673
Ce2_2 Ce 0.647877(18) 0.3750 0.8750
Ce4_2 Ce 0.852123(18) 0.6250 0.6250
Ce5_2 Ce 0.397877(18) 0.6250 0.6250
O13_2 O 0.9268(2) 0.13061(17) 0.56159(11)
O14_2 O 0.9268(2) 0.11939(17) 0.68841(11)
O15_2 O 0.9158(2) 0.21833(17) 0.60670(15)
O16_2 O 0.9158(2) 0.03167(17) 0.64330(15)
O17_2 O 0.9851(3) 0.17943(18) 0.63509(15)
O18_2 O 0.9851(3) 0.07057(18) 0.61491(15)
N7_2 N 0.56830(19) 0.30782(15) 0.62818(13)
N8_2 N 0.6076(2) 0.35615(16) 0.57292(13)
O11_2 O 0.7489(3) 0.9275(3) 0.45619(14)
O12_2 O 0.6768(2) 0.88061(17) 0.43841(11)
N5_2 N 0.68170(19) 0.94218(15) 0.62818(13)
N6_2 N 0.6424(2) 0.89385(16) 0.57292(13)
C25_2 C 0.6990(3) 0.9649(2) 0.65863(16)
C28_2 C 0.7420(3) 0.9927(2) 0.59201(16)
C29_2 C 0.7036(3) 0.95525(19) 0.59500(15)
C30_2 C 0.6835(3) 0.92648(19) 0.56390(15)
C31_2 C 0.7042(3) 0.9305(3) 0.52827(16)
C32_2 C 0.6821(3) 0.9012(3) 0.50117(17)
C33_2 C 0.6396(3) 0.8685(3) 0.51022(17)
C34_2 C 0.6212(3) 0.86555(19) 0.54653(16)
C36_2 C 0.7050(3) 0.9038(3) 0.46164(18)
H13_2 H 0.6857 0.9529 0.6833
H16_2 H 0.7331 0.9530 0.5225
H17_2 H 0.6234 0.8486 0.4918
H18_2 H 0.5928 0.8428 0.5528
Ce3_2 Ce 0.647877(18) 0.8750 0.3750
Co2_2 Co 0.6250 0.89217(3) 0.6250
O5_3 O 0.4158(2) 0.03167(17) 0.14330(15)
O6_3 O 0.4851(3) 0.07057(18) 0.11491(15)
C18_3 C 0.4650(3) 0.0341(3) 0.12917(19)
H9_3 H 0.5782 0.0247 0.1243
O7_3 O 0.8342(2) 0.03167(17) 0.10670(15)
O8_3 O 0.7649(3) 0.07057(18) 0.13509(15)
C24_3 C 0.7850(3) 0.0341(3) 0.12083(19)
H12_3 H 0.6718 0.0247 0.1257
N3_3 N 0.57032(19) 0.90880(17) 0.12959(13)
C13_3 C 0.5135(3) 0.9053(2) 0.13318(17)
C14_3 C 0.4785(3) 0.9447(3) 0.13415(18)
C15_3 C 0.5020(3) 0.9898(2) 0.13075(17)
C16_3 C 0.5610(3) 0.9942(2) 0.12693(19)
C17_3 C 0.5939(3) 0.95325(19) 0.12703(17)
H7_3 H 0.4968 0.8745 0.1351
H8_3 H 0.4384 0.9410 0.1371
N4_3 N 0.67968(19) 0.90880(17) 0.12041(13)
C19_3 C 0.7365(3) 0.9053(2) 0.11682(17)
C20_3 C 0.7715(3) 0.9447(3) 0.11585(18)
C21_3 C 0.7480(3) 0.9898(2) 0.11925(17)
C22_3 C 0.6890(3) 0.9942(2) 0.12307(19)
C23_3 C 0.6561(3) 0.95325(19) 0.12297(17)
H10_3 H 0.7532 0.8745 0.1149
H11_3 H 0.8116 0.9410 0.1129
N7_3 N 0.68170(19) 0.80782(15) 0.12182(13)
N8_3 N 0.6424(2) 0.85615(16) 0.17708(13)
Ce1_3 Ce 0.897877(18) 0.6250 0.1250
O1_3 O 0.80821(17) 0.58246(15) 0.14926(11)
O2_3 O 0.83021(19) 0.56238(16) 0.09196(12)
C1_3 C 0.6990(3) 0.4649(2) 0.15863(16)
C2_3 C 0.7383(3) 0.5017(3) 0.15751(17)
C3_3 C 0.7598(3) 0.51608(19) 0.12379(17)
C4_3 C 0.7420(3) 0.4927(2) 0.09201(16)
C5_3 C 0.7036(3) 0.45525(19) 0.09500(15)
C6_3 C 0.6835(3) 0.42648(19) 0.06390(15)
C7_3 C 0.7042(3) 0.4305(3) 0.02827(16)
C8_3 C 0.6821(3) 0.4012(3) 0.00117(17)
C9_3 C 0.6396(3) 0.3685(3) 0.01022(17)
C10_3 C 0.6212(3) 0.36555(19) 0.04653(16)
C11_3 C 0.8025(3) 0.55668(19) 0.12131(16)
H1_3 H 0.6857 0.4529 0.1833
H2_3 H 0.7535 0.5181 0.1817
H3_3 H 0.7580 0.5030 0.0673
H4_3 H 0.7331 0.4530 0.0225
H6_3 H 0.5928 0.3428 0.0528
O9_3 O 0.80821(17) 0.66754(15) 0.10074(11)
O10_3 O 0.83021(19) 0.68762(16) 0.15804(12)
O11_3 O 0.7489(3) 0.8225(3) 0.29381(14)
O12_3 O 0.6768(2) 0.86939(17) 0.31159(11)
C25_3 C 0.6990(3) 0.7851(2) 0.09137(16)
C26_3 C 0.7383(3) 0.7483(3) 0.09249(17)
C27_3 C 0.7598(3) 0.73392(19) 0.12621(17)
C28_3 C 0.7420(3) 0.7573(2) 0.15799(16)
C29_3 C 0.7036(3) 0.79475(19) 0.15500(15)
C30_3 C 0.6835(3) 0.82352(19) 0.18610(15)
C31_3 C 0.7042(3) 0.8195(3) 0.22173(16)
C32_3 C 0.6821(3) 0.8488(3) 0.24883(17)
C33_3 C 0.6396(3) 0.8815(3) 0.23978(17)
C34_3 C 0.6212(3) 0.88445(19) 0.20347(16)
C35_3 C 0.8025(3) 0.69332(19) 0.12869(16)
C36_3 C 0.7050(3) 0.8462(3) 0.28836(18)
H13_3 H 0.6857 0.7971 0.0667
H14_3 H 0.7535 0.7319 0.0683
H15_3 H 0.7580 0.7470 0.1827
H16_3 H 0.7331 0.7970 0.2275
H17_3 H 0.6234 0.9014 0.2582
H18_3 H 0.5928 0.9072 0.1972
O13_3 O 0.9268(2) 0.61939(17) 0.18841(11)
O14_3 O 0.9268(2) 0.63061(17) 0.06159(11)
O15_3 O 0.9158(2) 0.53167(17) 0.14330(15)
O16_3 O 0.9158(2) 0.71833(17) 0.10670(15)
O17_3 O 0.9851(3) 0.57057(18) 0.11491(15)
O18_3 O 0.9851(3) 0.67943(18) 0.13509(15)
O3_3 O 0.7489(3) 0.4275(3) 0.95619(14)
O4_3 O 0.6768(2) 0.38061(17) 0.93841(11)
C12_3 C 0.7050(3) 0.4038(3) 0.96164(18)
H5_3 H 0.6234 0.3486 0.9918
Ce1_4 Ce 0.352123(18) 0.1250 0.6250
O1_4 O 0.44179(17) 0.08246(15) 0.60074(11)
O2_4 O 0.41979(19) 0.06238(16) 0.65804(12)
C2_4 C 0.5117(3) 0.0017(3) 0.59249(17)
C3_4 C 0.4902(3) 0.01608(19) 0.62621(17)
C11_4 C 0.4475(3) 0.05668(19) 0.62869(16)
H2_4 H 0.4965 0.0181 0.5683
H3_4 H 0.4920 0.0030 0.6827
O9_4 O 0.44179(17) 0.16754(15) 0.64926(11)
O10_4 O 0.41979(19) 0.18762(16) 0.59196(12)
O11_4 O 0.5011(3) 0.3225(3) 0.45619(14)
O12_4 O 0.5732(2) 0.36939(17) 0.43841(11)
C25_4 C 0.5510(3) 0.2851(2) 0.65863(16)
C26_4 C 0.5117(3) 0.2483(3) 0.65751(17)
C27_4 C 0.4902(3) 0.23392(19) 0.62379(17)
C28_4 C 0.5080(3) 0.2573(2) 0.59201(16)
C29_4 C 0.5464(3) 0.29475(19) 0.59500(15)
C30_4 C 0.5665(3) 0.32352(19) 0.56390(15)
C31_4 C 0.5458(3) 0.3195(3) 0.52827(16)
C32_4 C 0.5679(3) 0.3488(3) 0.50117(17)
C33_4 C 0.6104(3) 0.3815(3) 0.51022(17)
C34_4 C 0.6288(3) 0.38445(19) 0.54653(16)
C35_4 C 0.4475(3) 0.19332(19) 0.62131(16)
C36_4 C 0.5450(3) 0.3462(3) 0.46164(18)
H13_4 H 0.5643 0.2971 0.6833
H14_4 H 0.4965 0.2319 0.6817
H15_4 H 0.4920 0.2470 0.5673
H16_4 H 0.5169 0.2970 0.5225
H17_4 H 0.6266 0.4014 0.4918
H18_4 H 0.6572 0.4072 0.5528
O13_4 O 0.3232(2) 0.11939(17) 0.56159(11)
O14_4 O 0.3232(2) 0.13061(17) 0.68841(11)
O15_4 O 0.3342(2) 0.03167(17) 0.60670(15)
O16_4 O 0.3342(2) 0.21833(17) 0.64330(15)
O17_4 O 0.2649(3) 0.07057(18) 0.63509(15)
O18_4 O 0.2649(3) 0.17943(18) 0.61491(15)
O3_4 O 0.5011(3) 0.9275(3) 0.79381(14)
O4_4 O 0.5732(2) 0.88061(17) 0.81159(11)
O5_4 O 0.4158(2) 0.71833(17) 0.60670(15)
O6_4 O 0.4851(3) 0.67943(18) 0.63509(15)
N1_3 N 0.56830(19) 0.94218(15) 0.62182(13)
N2_3 N 0.6076(2) 0.89385(16) 0.67708(13)
N3_4 N 0.57032(19) 0.84120(17) 0.62041(13)
C1_4 C 0.5510(3) 0.9649(2) 0.59137(16)
C4_4 C 0.5080(3) 0.9927(2) 0.65799(16)
C5_4 C 0.5464(3) 0.95525(19) 0.65500(15)
C6_4 C 0.5665(3) 0.92648(19) 0.68610(15)
C7_4 C 0.5458(3) 0.9305(3) 0.72173(16)
C8_4 C 0.5679(3) 0.9012(3) 0.74883(17)
C9_4 C 0.6104(3) 0.8685(3) 0.73978(17)
C10_4 C 0.6288(3) 0.86555(19) 0.70347(16)
C12_4 C 0.5450(3) 0.9038(3) 0.78836(18)
C13_4 C 0.5135(3) 0.8447(2) 0.61682(17)
C14_4 C 0.4785(3) 0.8053(3) 0.61585(18)
C15_4 C 0.5020(3) 0.7602(2) 0.61925(17)
C16_4 C 0.5610(3) 0.7558(2) 0.62307(19)
C17_4 C 0.5939(3) 0.79675(19) 0.62297(17)
C18_4 C 0.4650(3) 0.7159(3) 0.62083(19)
H1_4 H 0.5643 0.9529 0.5667
H4_4 H 0.5169 0.9530 0.7275
H5_4 H 0.6266 0.8486 0.7582
H6_4 H 0.6572 0.8428 0.6972
H7_4 H 0.4968 0.8755 0.6149
H8_4 H 0.4384 0.8090 0.6129
H9_4 H 0.5782 0.7253 0.6257
O7_4 O 0.8342(2) 0.71833(17) 0.64330(15)
O8_4 O 0.7649(3) 0.67943(18) 0.61491(15)
N4_4 N 0.67968(19) 0.84120(17) 0.62959(13)
C19_4 C 0.7365(3) 0.8447(2) 0.63318(17)
C20_4 C 0.7715(3) 0.8053(3) 0.63415(18)
C21_4 C 0.7480(3) 0.7602(2) 0.63075(17)
C22_4 C 0.6890(3) 0.7558(2) 0.62693(19)
C23_4 C 0.6561(3) 0.79675(19) 0.62703(17)
C24_4 C 0.7850(3) 0.7159(3) 0.62917(19)
H10_4 H 0.7532 0.8755 0.6351
H11_4 H 0.8116 0.8090 0.6371
H12_4 H 0.6718 0.7253 0.6243
Co1_3 Co 0.1250 0.39217(3) 0.6250
O3_5 O 0.0011(3) 0.4275(3) 0.79381(14)
O4_5 O 0.0732(2) 0.38061(17) 0.81159(11)
N1_4 N 0.06830(19) 0.44218(15) 0.62182(13)
N2_4 N 0.1076(2) 0.39385(16) 0.67708(13)
N3_5 N 0.07032(19) 0.34120(17) 0.62041(13)
C1_5 C 0.0510(3) 0.4649(2) 0.59137(16)
C2_5 C 0.0117(3) 0.5017(3) 0.59249(17)
C4_5 C 0.0080(3) 0.4927(2) 0.65799(16)
C5_5 C 0.0464(3) 0.45525(19) 0.65500(15)
C6_5 C 0.0665(3) 0.42648(19) 0.68610(15)
C7_5 C 0.0458(3) 0.4305(3) 0.72173(16)
C8_5 C 0.0679(3) 0.4012(3) 0.74883(17)
C9_5 C 0.1104(3) 0.3685(3) 0.73978(17)
C10_5 C 0.1288(3) 0.36555(19) 0.70347(16)
C12_5 C 0.0450(3) 0.4038(3) 0.78836(18)
C13_5 C 0.0135(3) 0.3447(2) 0.61682(17)
C15_5 C 0.0020(3) 0.2602(2) 0.61925(17)
C16_5 C 0.0610(3) 0.2558(2) 0.62307(19)
C17_5 C 0.0939(3) 0.29675(19) 0.62297(17)
H1_5 H 0.0643 0.4529 0.5667
H4_5 H 0.0169 0.4530 0.7275
H5_5 H 0.1266 0.3486 0.7582
H6_5 H 0.1572 0.3428 0.6972
H9_5 H 0.0782 0.2253 0.6257
N4_5 N 0.17968(19) 0.34120(17) 0.62959(13)
C19_5 C 0.2365(3) 0.3447(2) 0.63318(17)
C20_5 C 0.2715(3) 0.3053(3) 0.63415(18)
C21_5 C 0.2480(3) 0.2602(2) 0.63075(17)
C22_5 C 0.1890(3) 0.2558(2) 0.62693(19)
C23_5 C 0.1561(3) 0.29675(19) 0.62703(17)
C24_5 C 0.2850(3) 0.2159(3) 0.62917(19)
H10_5 H 0.2532 0.3755 0.6351
H11_5 H 0.3116 0.3090 0.6371
H12_5 H 0.1718 0.2253 0.6243
O11_5 O 0.0011(3) 0.8225(3) 0.45619(14)
O12_5 O 0.0732(2) 0.86939(17) 0.43841(11)
N5_3 N 0.06830(19) 0.80782(15) 0.62818(13)
N6_3 N 0.1076(2) 0.85615(16) 0.57292(13)
C25_5 C 0.0510(3) 0.7851(2) 0.65863(16)
C26_5 C 0.0117(3) 0.7483(3) 0.65751(17)
C28_5 C 0.0080(3) 0.7573(2) 0.59201(16)
C29_5 C 0.0464(3) 0.79475(19) 0.59500(15)
C30_5 C 0.0665(3) 0.82352(19) 0.56390(15)
C31_5 C 0.0458(3) 0.8195(3) 0.52827(16)
C32_5 C 0.0679(3) 0.8488(3) 0.50117(17)
C33_5 C 0.1104(3) 0.8815(3) 0.51022(17)
C34_5 C 0.1288(3) 0.88445(19) 0.54653(16)
C36_5 C 0.0450(3) 0.8462(3) 0.46164(18)
H13_5 H 0.0643 0.7971 0.6833
H16_5 H 0.0169 0.7970 0.5225
H17_5 H 0.1266 0.9014 0.4918
H18_5 H 0.1572 0.9072 0.5528
Ce2_3 Ce 0.102123(18) 0.3750 0.8750
Ce3_3 Ce 0.102123(18) 0.8750 0.3750
Co2_3 Co 0.1250 0.85783(3) 0.6250
N7_4 N 0.18170(19) 0.44218(15) 0.62818(13)
N8_4 N 0.1424(2) 0.39385(16) 0.57292(13)
O1_5 O 0.94179(17) 0.58246(15) 0.60074(11)
O2_5 O 0.91979(19) 0.56238(16) 0.65804(12)
C3_5 C 0.9902(3) 0.51608(19) 0.62621(17)
C11_5 C 0.9475(3) 0.55668(19) 0.62869(16)
C14_5 C 0.9785(3) 0.3053(3) 0.61585(18)
C18_5 C 0.9650(3) 0.2159(3) 0.62083(19)
H2_5 H 0.9965 0.5181 0.5683
H3_5 H 0.9920 0.5030 0.6827
H7_5 H 0.9968 0.3755 0.6149
H8_5 H 0.9384 0.3090 0.6129
O9_5 O 0.94179(17) 0.66754(15) 0.64926(11)
O10_5 O 0.91979(19) 0.68762(16) 0.59196(12)
C27_5 C 0.9902(3) 0.73392(19) 0.62379(17)
C35_5 C 0.9475(3) 0.69332(19) 0.62131(16)
H14_5 H 0.9965 0.7319 0.6817
H15_5 H 0.9920 0.7470 0.5673
O13_5 O 0.8232(2) 0.61939(17) 0.56159(11)
O14_5 O 0.8232(2) 0.63061(17) 0.68841(11)
Co1_4 Co 0.1250 0.35783(3) 0.1250
O1_6 O 0.30821(17) 0.16754(15) 0.10074(11)
O2_6 O 0.33021(19) 0.18762(16) 0.15804(12)
O3_6 O 0.2489(3) 0.3225(3) 0.29381(14)
O4_6 O 0.1768(2) 0.36939(17) 0.31159(11)
N1_5 N 0.18170(19) 0.30782(15) 0.12182(13)
N2_5 N 0.1424(2) 0.35615(16) 0.17708(13)
N3_6 N 0.17968(19) 0.40880(17) 0.12041(13)
C1_6 C 0.1990(3) 0.2851(2) 0.09137(16)
C2_6 C 0.2383(3) 0.2483(3) 0.09249(17)
C3_6 C 0.2598(3) 0.23392(19) 0.12621(17)
C4_6 C 0.2420(3) 0.2573(2) 0.15799(16)
C5_6 C 0.2036(3) 0.29475(19) 0.15500(15)
C6_6 C 0.1835(3) 0.32352(19) 0.18610(15)
C7_6 C 0.2042(3) 0.3195(3) 0.22173(16)
C8_6 C 0.1821(3) 0.3488(3) 0.24883(17)
C9_6 C 0.1396(3) 0.3815(3) 0.23978(17)
C10_6 C 0.1212(3) 0.38445(19) 0.20347(16)
C11_6 C 0.3025(3) 0.19332(19) 0.12869(16)
C12_6 C 0.2050(3) 0.3462(3) 0.28836(18)
C13_6 C 0.2365(3) 0.4053(2) 0.11682(17)
C14_6 C 0.2715(3) 0.4447(3) 0.11585(18)
C15_6 C 0.2480(3) 0.4898(2) 0.11925(17)
C16_6 C 0.1890(3) 0.4942(2) 0.12307(19)
C17_6 C 0.1561(3) 0.45325(19) 0.12297(17)
C18_6 C 0.2850(3) 0.5341(3) 0.12083(19)
H1_6 H 0.1857 0.2971 0.0667
H2_6 H 0.2535 0.2319 0.0683
H3_6 H 0.2580 0.2470 0.1827
H4_6 H 0.2331 0.2970 0.2275
H5_6 H 0.1234 0.4014 0.2582
H6_6 H 0.0928 0.4072 0.1972
H7_6 H 0.2532 0.3745 0.1149
H8_6 H 0.3116 0.4410 0.1129
H9_6 H 0.1718 0.5247 0.1257
N4_6 N 0.07032(19) 0.40880(17) 0.12959(13)
C19_6 C 0.0135(3) 0.4053(2) 0.13318(17)
C21_6 C 0.0020(3) 0.4898(2) 0.13075(17)
C22_6 C 0.0610(3) 0.4942(2) 0.12693(19)
C23_6 C 0.0939(3) 0.45325(19) 0.12703(17)
H12_6 H 0.0782 0.5247 0.1243
O9_6 O 0.30821(17) 0.08246(15) 0.14926(11)
O10_6 O 0.33021(19) 0.06238(16) 0.09196(12)
C26_6 C 0.2383(3) 0.0017(3) 0.15751(17)
C27_6 C 0.2598(3) 0.01608(19) 0.12379(17)
C35_6 C 0.3025(3) 0.05668(19) 0.12131(16)
H14_6 H 0.2535 0.0181 0.1817
H15_6 H 0.2580 0.0030 0.0673
Ce2_4 Ce 0.147877(18) 0.3750 0.3750
O13_6 O 0.4268(2) 0.13061(17) 0.06159(11)
O14_6 O 0.4268(2) 0.11939(17) 0.18841(11)
N7_5 N 0.06830(19) 0.30782(15) 0.12818(13)
N8_5 N 0.1076(2) 0.35615(16) 0.07292(13)
N5_4 N 0.18170(19) 0.94218(15) 0.12818(13)
N6_4 N 0.1424(2) 0.89385(16) 0.07292(13)
C25_6 C 0.1990(3) 0.9649(2) 0.15863(16)
C28_6 C 0.2420(3) 0.9927(2) 0.09201(16)
C29_6 C 0.2036(3) 0.95525(19) 0.09500(15)
C30_6 C 0.1835(3) 0.92648(19) 0.06390(15)
C31_6 C 0.2042(3) 0.9305(3) 0.02827(16)
C32_6 C 0.1821(3) 0.9012(3) 0.00117(17)
C33_6 C 0.1396(3) 0.8685(3) 0.01022(17)
C34_6 C 0.1212(3) 0.86555(19) 0.04653(16)
H13_6 H 0.1857 0.9529 0.1833
H16_6 H 0.2331 0.9530 0.0225
H18_6 H 0.0928 0.8428 0.0528
Co2_4 Co 0.1250 0.89217(3) 0.1250
O11_6 O 0.2489(3) 0.9275(3) 0.95619(14)
O12_6 O 0.1768(2) 0.88061(17) 0.93841(11)
C36_6 C 0.2050(3) 0.9038(3) 0.96164(18)
H17_6 H 0.1234 0.8486 0.9918
Ce3_4 Ce 0.147877(18) 0.8750 0.8750
C20_6 C 0.9785(3) 0.4447(3) 0.13415(18)
C24_6 C 0.9650(3) 0.5341(3) 0.12917(19)
H10_6 H 0.9968 0.3745 0.1351
H11_6 H 0.9384 0.4410 0.1371
H9_7 H 0.0782 0.0247 0.6243
C24_7 C 0.2850(3) 0.0341(3) 0.62083(19)
H12_7 H 0.1718 0.0247 0.6257
N3_7 N 0.07032(19) 0.90880(17) 0.62959(13)
C13_7 C 0.0135(3) 0.9053(2) 0.63318(17)
C15_7 C 0.0020(3) 0.9898(2) 0.63075(17)
C16_7 C 0.0610(3) 0.9942(2) 0.62693(19)
C17_7 C 0.0939(3) 0.95325(19) 0.62703(17)
N4_7 N 0.17968(19) 0.90880(17) 0.62041(13)
C19_7 C 0.2365(3) 0.9053(2) 0.61682(17)
C20_7 C 0.2715(3) 0.9447(3) 0.61585(18)
C21_7 C 0.2480(3) 0.9898(2) 0.61925(17)
C22_7 C 0.1890(3) 0.9942(2) 0.62307(19)
C23_7 C 0.1561(3) 0.95325(19) 0.62297(17)
H10_7 H 0.2532 0.8745 0.6149
H11_7 H 0.3116 0.9410 0.6129
N7_6 N 0.18170(19) 0.80782(15) 0.62182(13)
N8_6 N 0.1424(2) 0.85615(16) 0.67708(13)
C18_7 C 0.9650(3) 0.0341(3) 0.62917(19)
C14_7 C 0.9785(3) 0.9447(3) 0.63415(18)
H7_7 H 0.9968 0.8745 0.6351
H8_7 H 0.9384 0.9410 0.6371
O1_7 O 0.30821(17) 0.58246(15) 0.64926(11)
O2_7 O 0.33021(19) 0.56238(16) 0.59196(12)
O3_7 O 0.2489(3) 0.4275(3) 0.45619(14)
O4_7 O 0.1768(2) 0.38061(17) 0.43841(11)
C1_7 C 0.1990(3) 0.4649(2) 0.65863(16)
C2_7 C 0.2383(3) 0.5017(3) 0.65751(17)
C3_7 C 0.2598(3) 0.51608(19) 0.62379(17)
C4_7 C 0.2420(3) 0.4927(2) 0.59201(16)
C5_7 C 0.2036(3) 0.45525(19) 0.59500(15)
C6_7 C 0.1835(3) 0.42648(19) 0.56390(15)
C7_7 C 0.2042(3) 0.4305(3) 0.52827(16)
C8_7 C 0.1821(3) 0.4012(3) 0.50117(17)
C9_7 C 0.1396(3) 0.3685(3) 0.51022(17)
C10_7 C 0.1212(3) 0.36555(19) 0.54653(16)
C11_7 C 0.3025(3) 0.55668(19) 0.62131(16)
C12_7 C 0.2050(3) 0.4038(3) 0.46164(18)
H1_7 H 0.1857 0.4529 0.6833
H2_7 H 0.2535 0.5181 0.6817
H3_7 H 0.2580 0.5030 0.5673
H4_7 H 0.2331 0.4530 0.5225
H5_7 H 0.1234 0.3486 0.4918
H6_7 H 0.0928 0.3428 0.5528
O9_7 O 0.30821(17) 0.66754(15) 0.60074(11)
O10_7 O 0.33021(19) 0.68762(16) 0.65804(12)
O11_7 O 0.2489(3) 0.8225(3) 0.79381(14)
O12_7 O 0.1768(2) 0.86939(17) 0.81159(11)
C25_7 C 0.1990(3) 0.7851(2) 0.59137(16)
C26_7 C 0.2383(3) 0.7483(3) 0.59249(17)
C27_7 C 0.2598(3) 0.73392(19) 0.62621(17)
C28_7 C 0.2420(3) 0.7573(2) 0.65799(16)
C29_7 C 0.2036(3) 0.79475(19) 0.65500(15)
C30_7 C 0.1835(3) 0.82352(19) 0.68610(15)
C31_7 C 0.2042(3) 0.8195(3) 0.72173(16)
C32_7 C 0.1821(3) 0.8488(3) 0.74883(17)
C33_7 C 0.1396(3) 0.8815(3) 0.73978(17)
C34_7 C 0.1212(3) 0.88445(19) 0.70347(16)
C35_7 C 0.3025(3) 0.69332(19) 0.62869(16)
C36_7 C 0.2050(3) 0.8462(3) 0.78836(18)
H13_7 H 0.1857 0.7971 0.5667
H14_7 H 0.2535 0.7319 0.5683
H15_7 H 0.2580 0.7470 0.6827
H16_7 H 0.2331 0.7970 0.7275
H17_7 H 0.1234 0.9014 0.7582
H18_7 H 0.0928 0.9072 0.6972
O13_7 O 0.4268(2) 0.61939(17) 0.68841(11)
O14_7 O 0.4268(2) 0.63061(17) 0.56159(11)
C2_8 C 0.0117(3) 0.0017(3) 0.09249(17)
C25_8 C 0.0510(3) 0.2851(2) 0.15863(16)
C26_8 C 0.0117(3) 0.2483(3) 0.15751(17)
C28_8 C 0.0080(3) 0.2573(2) 0.09201(16)
C29_8 C 0.0464(3) 0.29475(19) 0.09500(15)
C30_8 C 0.0665(3) 0.32352(19) 0.06390(15)
C31_8 C 0.0458(3) 0.3195(3) 0.02827(16)
C32_8 C 0.0679(3) 0.3488(3) 0.00117(17)
C33_8 C 0.1104(3) 0.3815(3) 0.01022(17)
C34_8 C 0.1288(3) 0.38445(19) 0.04653(16)
H13_8 H 0.0643 0.2971 0.1833
H16_8 H 0.0169 0.2970 0.0225
H18_8 H 0.1572 0.4072 0.0528
O11_8 O 0.0011(3) 0.3225(3) 0.95619(14)
O12_8 O 0.0732(2) 0.36939(17) 0.93841(11)
C36_8 C 0.0450(3) 0.3462(3) 0.96164(18)
H17_8 H 0.1266 0.4014 0.9918
O3_8 O 0.0011(3) 0.9275(3) 0.29381(14)
O4_8 O 0.0732(2) 0.88061(17) 0.31159(11)
N1_6 N 0.06830(19) 0.94218(15) 0.12182(13)
N2_6 N 0.1076(2) 0.89385(16) 0.17708(13)
N3_8 N 0.07032(19) 0.84120(17) 0.12041(13)
C1_8 C 0.0510(3) 0.9649(2) 0.09137(16)
C4_8 C 0.0080(3) 0.9927(2) 0.15799(16)
C5_8 C 0.0464(3) 0.95525(19) 0.15500(15)
C6_8 C 0.0665(3) 0.92648(19) 0.18610(15)
C7_8 C 0.0458(3) 0.9305(3) 0.22173(16)
C8_8 C 0.0679(3) 0.9012(3) 0.24883(17)
C9_8 C 0.1104(3) 0.8685(3) 0.23978(17)
C10_8 C 0.1288(3) 0.86555(19) 0.20347(16)
C12_8 C 0.0450(3) 0.9038(3) 0.28836(18)
C13_8 C 0.0135(3) 0.8447(2) 0.11682(17)
C15_8 C 0.0020(3) 0.7602(2) 0.11925(17)
C16_8 C 0.0610(3) 0.7558(2) 0.12307(19)
C17_8 C 0.0939(3) 0.79675(19) 0.12297(17)
H1_8 H 0.0643 0.9529 0.0667
H4_8 H 0.0169 0.9530 0.2275
H5_8 H 0.1266 0.8486 0.2582
H6_8 H 0.1572 0.8428 0.1972
H9_8 H 0.0782 0.7253 0.1257
N4_8 N 0.17968(19) 0.84120(17) 0.12959(13)
C19_8 C 0.2365(3) 0.8447(2) 0.13318(17)
C20_8 C 0.2715(3) 0.8053(3) 0.13415(18)
C21_8 C 0.2480(3) 0.7602(2) 0.13075(17)
C22_8 C 0.1890(3) 0.7558(2) 0.12693(19)
C23_8 C 0.1561(3) 0.79675(19) 0.12703(17)
C24_8 C 0.2850(3) 0.7159(3) 0.12917(19)
H10_8 H 0.2532 0.8755 0.1351
H11_8 H 0.3116 0.8090 0.1371
H12_8 H 0.1718 0.7253 0.1243
O1_8 O 0.94179(17) 0.08246(15) 0.10074(11)
O2_8 O 0.91979(19) 0.06238(16) 0.15804(12)
C3_8 C 0.9902(3) 0.01608(19) 0.12621(17)
C11_8 C 0.9475(3) 0.05668(19) 0.12869(16)
H2_8 H 0.9965 0.0181 0.0683
H3_8 H 0.9920 0.0030 0.1827
O9_8 O 0.94179(17) 0.16754(15) 0.14926(11)
O10_8 O 0.91979(19) 0.18762(16) 0.09196(12)
C27_8 C 0.9902(3) 0.23392(19) 0.12379(17)
C35_8 C 0.9475(3) 0.19332(19) 0.12131(16)
H14_8 H 0.9965 0.2319 0.1817
H15_8 H 0.9920 0.2470 0.0673
O13_8 O 0.8232(2) 0.11939(17) 0.06159(11)
O14_8 O 0.8232(2) 0.13061(17) 0.18841(11)
C14_8 C 0.9785(3) 0.8053(3) 0.11585(18)
C18_8 C 0.9650(3) 0.7159(3) 0.12083(19)
H7_8 H 0.9968 0.8755 0.1149
H8_8 H 0.9384 0.8090 0.1129
O11_9 O 0.4989(3) 0.1775(3) 0.04381(14)
C36_9 C 0.4550(3) 0.1538(3) 0.03836(18)
H17_9 H 0.3734 0.0986 0.0082
Co1_5 Co 0.3750 0.60783(3) 0.8750
O1_9 O 0.55821(17) 0.41754(15) 0.89926(11)
O2_9 O 0.58021(19) 0.43762(16) 0.84196(12)
O3_9 O 0.4989(3) 0.5725(3) 0.70619(14)
O5_5 O 0.5842(2) 0.78167(17) 0.89330(15)
O6_5 O 0.5149(3) 0.82057(18) 0.86491(15)
N1_7 N 0.43170(19) 0.55782(15) 0.87818(13)
N2_7 N 0.3924(2) 0.60615(16) 0.82292(13)
N3_9 N 0.42968(19) 0.65880(17) 0.87959(13)
C1_9 C 0.4490(3) 0.5351(2) 0.90863(16)
C2_9 C 0.4883(3) 0.4983(3) 0.90751(17)
C3_9 C 0.5098(3) 0.48392(19) 0.87379(17)
C4_9 C 0.4920(3) 0.5073(2) 0.84201(16)
C5_9 C 0.4536(3) 0.54475(19) 0.84500(15)
C6_9 C 0.4335(3) 0.57352(19) 0.81390(15)
C7_9 C 0.4542(3) 0.5695(3) 0.77827(16)
C8_9 C 0.4321(3) 0.5988(3) 0.75117(17)
C9_9 C 0.3896(3) 0.6315(3) 0.76022(17)
C10_9 C 0.3712(3) 0.63445(19) 0.79653(16)
C11_9 C 0.5525(3) 0.44332(19) 0.87131(16)
C12_9 C 0.4550(3) 0.5962(3) 0.71164(18)
C13_9 C 0.4865(3) 0.6553(2) 0.88318(17)
C14_9 C 0.5215(3) 0.6947(3) 0.88415(18)
C15_9 C 0.4980(3) 0.7398(2) 0.88075(17)
C16_9 C 0.4390(3) 0.7442(2) 0.87693(19)
C17_9 C 0.4061(3) 0.70325(19) 0.87703(17)
C18_9 C 0.5350(3) 0.7841(3) 0.87917(19)
H1_9 H 0.4357 0.5471 0.9333
H2_9 H 0.5035 0.4819 0.9317
H3_9 H 0.5080 0.4970 0.8173
H4_9 H 0.4831 0.5470 0.7725
H5_9 H 0.3734 0.6514 0.7418
H6_9 H 0.3428 0.6572 0.8028
H7_9 H 0.5032 0.6245 0.8851
H8_9 H 0.5616 0.6910 0.8871
H9_9 H 0.4218 0.7747 0.8743
O7_5 O 0.1658(2) 0.78167(17) 0.85670(15)
O8_5 O 0.2351(3) 0.82057(18) 0.88509(15)
N4_9 N 0.32032(19) 0.65880(17) 0.87041(13)
C19_9 C 0.2635(3) 0.6553(2) 0.86682(17)
C20_9 C 0.2285(3) 0.6947(3) 0.86585(18)
C21_9 C 0.2520(3) 0.7398(2) 0.86925(17)
C22_9 C 0.3110(3) 0.7442(2) 0.87307(19)
C23_9 C 0.3439(3) 0.70325(19) 0.87297(17)
C24_9 C 0.2150(3) 0.7841(3) 0.87083(19)
H10_9 H 0.2468 0.6245 0.8649
H11_9 H 0.1884 0.6910 0.8629
H12_9 H 0.3282 0.7747 0.8757
O9_9 O 0.55821(17) 0.33246(15) 0.85074(11)
O10_9 O 0.58021(19) 0.31238(16) 0.90804(12)
N5_5 N 0.43170(19) 0.19218(15) 0.87182(13)
N6_5 N 0.3924(2) 0.14385(16) 0.92708(13)
C25_9 C 0.4490(3) 0.2149(2) 0.84137(16)
C26_9 C 0.4883(3) 0.2517(3) 0.84249(17)
C27_9 C 0.5098(3) 0.26608(19) 0.87621(17)
C28_9 C 0.4920(3) 0.2427(2) 0.90799(16)
C29_9 C 0.4536(3) 0.20525(19) 0.90500(15)
C30_9 C 0.4335(3) 0.17648(19) 0.93610(15)
C31_9 C 0.4542(3) 0.1805(3) 0.97173(16)
C32_9 C 0.4321(3) 0.1512(3) 0.99883(17)
C33_9 C 0.3896(3) 0.1185(3) 0.98978(17)
C34_9 C 0.3712(3) 0.11555(19) 0.95347(16)
C35_9 C 0.5525(3) 0.30668(19) 0.87869(16)
H13_9 H 0.4357 0.2029 0.8167
H14_9 H 0.5035 0.2681 0.8183
H15_9 H 0.5080 0.2530 0.9327
H16_9 H 0.4831 0.2030 0.9775
H18_9 H 0.3428 0.0928 0.9472
Co2_5 Co 0.3750 0.14217(3) 0.8750
O15_5 O 0.6658(2) 0.46833(17) 0.89330(15)
O16_5 O 0.6658(2) 0.28167(17) 0.85670(15)
O17_5 O 0.7351(3) 0.42943(18) 0.86491(15)
O18_5 O 0.7351(3) 0.32057(18) 0.88509(15)
N7_7 N 0.31830(19) 0.55782(15) 0.87182(13)
N8_7 N 0.3576(2) 0.60615(16) 0.92708(13)
O11_10 O 0.2511(3) 0.0725(3) 0.54381(14)
N5_6 N 0.31830(19) 0.05782(15) 0.37182(13)
N6_6 N 0.3576(2) 0.10615(16) 0.42708(13)
C25_10 C 0.3010(3) 0.0351(2) 0.34137(16)
C28_10 C 0.2580(3) 0.0073(2) 0.40799(16)
C29_10 C 0.2964(3) 0.04475(19) 0.40500(15)
C30_10 C 0.3165(3) 0.07352(19) 0.43610(15)
C31_10 C 0.2958(3) 0.0695(3) 0.47173(16)
C32_10 C 0.3179(3) 0.0988(3) 0.49883(17)
C33_10 C 0.3604(3) 0.1315(3) 0.48978(17)
C34_10 C 0.3788(3) 0.13445(19) 0.45347(16)
C36_10 C 0.2950(3) 0.0962(3) 0.53836(18)
H13_10 H 0.3143 0.0471 0.3167
H16_10 H 0.2669 0.0470 0.4775
H17_10 H 0.3766 0.1514 0.5082
H18_10 H 0.4072 0.1572 0.4472
Co2_6 Co 0.3750 0.10783(3) 0.3750
Co1_6 Co 0.3750 0.64217(3) 0.3750
O1_10 O 0.19179(17) 0.83246(15) 0.39926(11)
O2_10 O 0.16979(19) 0.81238(16) 0.34196(12)
O3_10 O 0.2511(3) 0.6775(3) 0.20619(14)
O5_6 O 0.1658(2) 0.46833(17) 0.39330(15)
O6_6 O 0.2351(3) 0.42943(18) 0.36491(15)
N1_8 N 0.31830(19) 0.69218(15) 0.37818(13)
N2_8 N 0.3576(2) 0.64385(16) 0.32292(13)
N3_10 N 0.32032(19) 0.59120(17) 0.37959(13)
C1_10 C 0.3010(3) 0.7149(2) 0.40863(16)
C2_10 C 0.2617(3) 0.7517(3) 0.40751(17)
C3_10 C 0.2402(3) 0.76608(19) 0.37379(17)
C4_10 C 0.2580(3) 0.7427(2) 0.34201(16)
C5_10 C 0.2964(3) 0.70525(19) 0.34500(15)
C6_10 C 0.3165(3) 0.67648(19) 0.31390(15)
C7_10 C 0.2958(3) 0.6805(3) 0.27827(16)
C8_10 C 0.3179(3) 0.6512(3) 0.25117(17)
C9_10 C 0.3604(3) 0.6185(3) 0.26022(17)
C10_10 C 0.3788(3) 0.61555(19) 0.29653(16)
C11_10 C 0.1975(3) 0.80668(19) 0.37131(16)
C12_10 C 0.2950(3) 0.6538(3) 0.21164(18)
C13_10 C 0.2635(3) 0.5947(2) 0.38318(17)
C14_10 C 0.2285(3) 0.5553(3) 0.38415(18)
C15_10 C 0.2520(3) 0.5102(2) 0.38075(17)
C16_10 C 0.3110(3) 0.5058(2) 0.37693(19)
C17_10 C 0.3439(3) 0.54675(19) 0.37703(17)
C18_10 C 0.2150(3) 0.4659(3) 0.37917(19)
H1_10 H 0.3143 0.7029 0.4333
H2_10 H 0.2465 0.7681 0.4317
H3_10 H 0.2420 0.7530 0.3173
H4_10 H 0.2669 0.7030 0.2725
H5_10 H 0.3766 0.5986 0.2418
H6_10 H 0.4072 0.5928 0.3028
H7_10 H 0.2468 0.6255 0.3851
H8_10 H 0.1884 0.5590 0.3871
H9_10 H 0.3282 0.4753 0.3743
O7_6 O 0.5842(2) 0.46833(17) 0.35670(15)
O8_6 O 0.5149(3) 0.42943(18) 0.38509(15)
N4_10 N 0.42968(19) 0.59120(17) 0.37041(13)
C19_10 C 0.4865(3) 0.5947(2) 0.36682(17)
C20_10 C 0.5215(3) 0.5553(3) 0.36585(18)
C21_10 C 0.4980(3) 0.5102(2) 0.36925(17)
C22_10 C 0.4390(3) 0.5058(2) 0.37307(19)
C23_10 C 0.4061(3) 0.54675(19) 0.37297(17)
C24_10 C 0.5350(3) 0.4659(3) 0.37083(19)
H10_10 H 0.5032 0.6255 0.3649
H11_10 H 0.5616 0.5590 0.3629
H12_10 H 0.4218 0.4753 0.3757
O9_10 O 0.19179(17) 0.91754(15) 0.35074(11)
O10_10 O 0.16979(19) 0.93762(16) 0.40804(12)
C26_10 C 0.2617(3) 0.9983(3) 0.34249(17)
C27_10 C 0.2402(3) 0.98392(19) 0.37621(17)
C35_10 C 0.1975(3) 0.94332(19) 0.37869(16)
H14_10 H 0.2465 0.9819 0.3183
H15_10 H 0.2420 0.9970 0.4327
O15_6 O 0.0842(2) 0.78167(17) 0.39330(15)
O16_6 O 0.0842(2) 0.96833(17) 0.35670(15)
O17_6 O 0.0149(3) 0.82057(18) 0.36491(15)
O18_6 O 0.0149(3) 0.92943(18) 0.38509(15)
N7_8 N 0.43170(19) 0.69218(15) 0.37182(13)
N8_8 N 0.3924(2) 0.64385(16) 0.42708(13)
N3_11 N 0.42968(19) 0.09120(17) 0.87041(13)
C13_11 C 0.4865(3) 0.0947(2) 0.86682(17)
C14_11 C 0.5215(3) 0.0553(3) 0.86585(18)
C15_11 C 0.4980(3) 0.0102(2) 0.86925(17)
C16_11 C 0.4390(3) 0.0058(2) 0.87307(19)
C17_11 C 0.4061(3) 0.04675(19) 0.87297(17)
H7_11 H 0.5032 0.1255 0.8649
H8_11 H 0.5616 0.0590 0.8629
N4_11 N 0.32032(19) 0.09120(17) 0.87959(13)
C19_11 C 0.2635(3) 0.0947(2) 0.88318(17)
C20_11 C 0.2285(3) 0.0553(3) 0.88415(18)
C21_11 C 0.2520(3) 0.0102(2) 0.88075(17)
C22_11 C 0.3110(3) 0.0058(2) 0.87693(19)
C23_11 C 0.3439(3) 0.04675(19) 0.87703(17)
H10_11 H 0.2468 0.1255 0.8851
H11_11 H 0.1884 0.0590 0.8871
N7_9 N 0.31830(19) 0.19218(15) 0.87818(13)
N8_9 N 0.3576(2) 0.14385(16) 0.82292(13)
O5_7 O 0.5842(2) 0.96833(17) 0.85670(15)
O6_7 O 0.5149(3) 0.92943(18) 0.88509(15)
C18_11 C 0.5350(3) 0.9659(3) 0.87083(19)
H9_11 H 0.4218 0.9753 0.8757
O7_7 O 0.1658(2) 0.96833(17) 0.89330(15)
O8_7 O 0.2351(3) 0.92943(18) 0.86491(15)
C24_11 C 0.2150(3) 0.9659(3) 0.87917(19)
H12_11 H 0.3282 0.9753 0.8743
O3_11 O 0.2511(3) 0.5725(3) 0.04381(14)
C12_11 C 0.2950(3) 0.5962(3) 0.03836(18)
H5_11 H 0.3766 0.6514 0.0082
O1_11 O 0.19179(17) 0.41754(15) 0.85074(11)
O2_11 O 0.16979(19) 0.43762(16) 0.90804(12)
C1_11 C 0.3010(3) 0.5351(2) 0.84137(16)
C2_11 C 0.2617(3) 0.4983(3) 0.84249(17)
C3_11 C 0.2402(3) 0.48392(19) 0.87621(17)
C4_11 C 0.2580(3) 0.5073(2) 0.90799(16)
C5_11 C 0.2964(3) 0.54475(19) 0.90500(15)
C6_11 C 0.3165(3) 0.57352(19) 0.93610(15)
C7_11 C 0.2958(3) 0.5695(3) 0.97173(16)
C8_11 C 0.3179(3) 0.5988(3) 0.99883(17)
C9_11 C 0.3604(3) 0.6315(3) 0.98978(17)
C10_11 C 0.3788(3) 0.63445(19) 0.95347(16)
C11_11 C 0.1975(3) 0.44332(19) 0.87869(16)
H1_11 H 0.3143 0.5471 0.8167
H2_11 H 0.2465 0.4819 0.8183
H3_11 H 0.2420 0.4970 0.9327
H4_11 H 0.2669 0.5470 0.9775
H6_11 H 0.4072 0.6572 0.9472
O9_11 O 0.19179(17) 0.33246(15) 0.89926(11)
O10_11 O 0.16979(19) 0.31238(16) 0.84196(12)
O11_11 O 0.2511(3) 0.1775(3) 0.70619(14)
C25_11 C 0.3010(3) 0.2149(2) 0.90863(16)
C26_11 C 0.2617(3) 0.2517(3) 0.90751(17)
C27_11 C 0.2402(3) 0.26608(19) 0.87379(17)
C28_11 C 0.2580(3) 0.2427(2) 0.84201(16)
C29_11 C 0.2964(3) 0.20525(19) 0.84500(15)
C30_11 C 0.3165(3) 0.17648(19) 0.81390(15)
C31_11 C 0.2958(3) 0.1805(3) 0.77827(16)
C32_11 C 0.3179(3) 0.1512(3) 0.75117(17)
C33_11 C 0.3604(3) 0.1185(3) 0.76022(17)
C34_11 C 0.3788(3) 0.11555(19) 0.79653(16)
C35_11 C 0.1975(3) 0.30668(19) 0.87131(16)
C36_11 C 0.2950(3) 0.1538(3) 0.71164(18)
H13_11 H 0.3143 0.2029 0.9333
H14_11 H 0.2465 0.2681 0.9317
H15_11 H 0.2420 0.2530 0.8173
H16_11 H 0.2669 0.2030 0.7725
H17_11 H 0.3766 0.0986 0.7418
H18_11 H 0.4072 0.0928 0.8028
O15_7 O 0.0842(2) 0.46833(17) 0.85670(15)
O16_7 O 0.0842(2) 0.28167(17) 0.89330(15)
O17_7 O 0.0149(3) 0.42943(18) 0.88509(15)
O18_7 O 0.0149(3) 0.32057(18) 0.86491(15)
O3_12 O 0.4989(3) 0.0725(3) 0.20619(14)
O5_8 O 0.5842(2) 0.28167(17) 0.39330(15)
O6_8 O 0.5149(3) 0.32057(18) 0.36491(15)
N1_9 N 0.43170(19) 0.05782(15) 0.37818(13)
N2_9 N 0.3924(2) 0.10615(16) 0.32292(13)
N3_12 N 0.42968(19) 0.15880(17) 0.37959(13)
C1_12 C 0.4490(3) 0.0351(2) 0.40863(16)
C4_12 C 0.4920(3) 0.0073(2) 0.34201(16)
C5_12 C 0.4536(3) 0.04475(19) 0.34500(15)
C6_12 C 0.4335(3) 0.07352(19) 0.31390(15)
C7_12 C 0.4542(3) 0.0695(3) 0.27827(16)
C8_12 C 0.4321(3) 0.0988(3) 0.25117(17)
C9_12 C 0.3896(3) 0.1315(3) 0.26022(17)
C10_12 C 0.3712(3) 0.13445(19) 0.29653(16)
C12_12 C 0.4550(3) 0.0962(3) 0.21164(18)
C13_12 C 0.4865(3) 0.1553(2) 0.38318(17)
C14_12 C 0.5215(3) 0.1947(3) 0.38415(18)
C15_12 C 0.4980(3) 0.2398(2) 0.38075(17)
C16_12 C 0.4390(3) 0.2442(2) 0.37693(19)
C17_12 C 0.4061(3) 0.20325(19) 0.37703(17)
C18_12 C 0.5350(3) 0.2841(3) 0.37917(19)
H1_12 H 0.4357 0.0471 0.4333
H4_12 H 0.4831 0.0470 0.2725
H5_12 H 0.3734 0.1514 0.2418
H6_12 H 0.3428 0.1572 0.3028
H7_12 H 0.5032 0.1245 0.3851
H8_12 H 0.5616 0.1910 0.3871
H9_12 H 0.4218 0.2747 0.3743
O7_8 O 0.1658(2) 0.28167(17) 0.35670(15)
O8_8 O 0.2351(3) 0.32057(18) 0.38509(15)
N4_12 N 0.32032(19) 0.15880(17) 0.37041(13)
C19_12 C 0.2635(3) 0.1553(2) 0.36682(17)
C20_12 C 0.2285(3) 0.1947(3) 0.36585(18)
C21_12 C 0.2520(3) 0.2398(2) 0.36925(17)
C22_12 C 0.3110(3) 0.2442(2) 0.37307(19)
C23_12 C 0.3439(3) 0.20325(19) 0.37297(17)
C24_12 C 0.2150(3) 0.2841(3) 0.37083(19)
H10_12 H 0.2468 0.1245 0.3649
H11_12 H 0.1884 0.1910 0.3629
H12_12 H 0.3282 0.2747 0.3757
O1_12 O 0.55821(17) 0.91754(15) 0.39926(11)
O2_12 O 0.58021(19) 0.93762(16) 0.34196(12)
C2_12 C 0.4883(3) 0.9983(3) 0.40751(17)
C3_12 C 0.5098(3) 0.98392(19) 0.37379(17)
C11_12 C 0.5525(3) 0.94332(19) 0.37131(16)
H2_12 H 0.5035 0.9819 0.4317
H3_12 H 0.5080 0.9970 0.3173
O9_12 O 0.55821(17) 0.83246(15) 0.35074(11)
O10_12 O 0.58021(19) 0.81238(16) 0.40804(12)
O11_12 O 0.4989(3) 0.6775(3) 0.54381(14)
C25_12 C 0.4490(3) 0.7149(2) 0.34137(16)
C26_12 C 0.4883(3) 0.7517(3) 0.34249(17)
C27_12 C 0.5098(3) 0.76608(19) 0.37621(17)
C28_12 C 0.4920(3) 0.7427(2) 0.40799(16)
C29_12 C 0.4536(3) 0.70525(19) 0.40500(15)
C30_12 C 0.4335(3) 0.67648(19) 0.43610(15)
C31_12 C 0.4542(3) 0.6805(3) 0.47173(16)
C32_12 C 0.4321(3) 0.6512(3) 0.49883(17)
C33_12 C 0.3896(3) 0.6185(3) 0.48978(17)
C34_12 C 0.3712(3) 0.61555(19) 0.45347(16)
C35_12 C 0.5525(3) 0.80668(19) 0.37869(16)
C36_12 C 0.4550(3) 0.6538(3) 0.53836(18)
H13_12 H 0.4357 0.7029 0.3167
H14_12 H 0.5035 0.7681 0.3183
H15_12 H 0.5080 0.7530 0.4327
H16_12 H 0.4831 0.7030 0.4775
H17_12 H 0.3734 0.5986 0.5082
H18_12 H 0.3428 0.5928 0.4472
O15_8 O 0.6658(2) 0.96833(17) 0.39330(15)
O16_8 O 0.6658(2) 0.78167(17) 0.35670(15)
O17_8 O 0.7351(3) 0.92943(18) 0.36491(15)
O18_8 O 0.7351(3) 0.82057(18) 0.38509(15)
O1_13 O 0.05821(17) 0.41754(15) 0.39926(11)
O2_13 O 0.08021(19) 0.43762(16) 0.34196(12)
C3_13 C 0.0098(3) 0.48392(19) 0.37379(17)
C11_13 C 0.0525(3) 0.44332(19) 0.37131(16)
C14_13 C 0.0215(3) 0.6947(3) 0.38415(18)
C18_13 C 0.0350(3) 0.7841(3) 0.37917(19)
H2_13 H 0.0035 0.4819 0.4317
H3_13 H 0.0080 0.4970 0.3173
H7_13 H 0.0032 0.6245 0.3851
H8_13 H 0.0616 0.6910 0.3871
O9_13 O 0.05821(17) 0.33246(15) 0.35074(11)
O10_13 O 0.08021(19) 0.31238(16) 0.40804(12)
C27_13 C 0.0098(3) 0.26608(19) 0.37621(17)
C35_13 C 0.0525(3) 0.30668(19) 0.37869(16)
H14_13 H 0.0035 0.2681 0.3183
H15_13 H 0.0080 0.2530 0.4327
Co1_7 Co 0.8750 0.60783(3) 0.3750
O3_13 O 0.9989(3) 0.5725(3) 0.20619(14)
N1_10 N 0.93170(19) 0.55782(15) 0.37818(13)
N2_10 N 0.8924(2) 0.60615(16) 0.32292(13)
N3_13 N 0.92968(19) 0.65880(17) 0.37959(13)
C1_13 C 0.9490(3) 0.5351(2) 0.40863(16)
C2_13 C 0.9883(3) 0.4983(3) 0.40751(17)
C4_13 C 0.9920(3) 0.5073(2) 0.34201(16)
C5_13 C 0.9536(3) 0.54475(19) 0.34500(15)
C6_13 C 0.9335(3) 0.57352(19) 0.31390(15)
C7_13 C 0.9542(3) 0.5695(3) 0.27827(16)
C8_13 C 0.9321(3) 0.5988(3) 0.25117(17)
C9_13 C 0.8896(3) 0.6315(3) 0.26022(17)
C10_13 C 0.8712(3) 0.63445(19) 0.29653(16)
C12_13 C 0.9550(3) 0.5962(3) 0.21164(18)
C13_13 C 0.9865(3) 0.6553(2) 0.38318(17)
C15_13 C 0.9980(3) 0.7398(2) 0.38075(17)
C16_13 C 0.9390(3) 0.7442(2) 0.37693(19)
C17_13 C 0.9061(3) 0.70325(19) 0.37703(17)
H1_13 H 0.9357 0.5471 0.4333
H4_13 H 0.9831 0.5470 0.2725
H5_13 H 0.8734 0.6514 0.2418
H6_13 H 0.8428 0.6572 0.3028
H9_13 H 0.9218 0.7747 0.3743
N4_13 N 0.82032(19) 0.65880(17) 0.37041(13)
C19_13 C 0.7635(3) 0.6553(2) 0.36682(17)
C20_13 C 0.7285(3) 0.6947(3) 0.36585(18)
C21_13 C 0.7520(3) 0.7398(2) 0.36925(17)
C22_13 C 0.8110(3) 0.7442(2) 0.37307(19)
C23_13 C 0.8439(3) 0.70325(19) 0.37297(17)
C24_13 C 0.7150(3) 0.7841(3) 0.37083(19)
H10_13 H 0.7468 0.6245 0.3649
H11_13 H 0.6884 0.6910 0.3629
H12_13 H 0.8282 0.7747 0.3757
O11_13 O 0.9989(3) 0.1775(3) 0.54381(14)
N5_7 N 0.93170(19) 0.19218(15) 0.37182(13)
N6_7 N 0.8924(2) 0.14385(16) 0.42708(13)
C25_13 C 0.9490(3) 0.2149(2) 0.34137(16)
C26_13 C 0.9883(3) 0.2517(3) 0.34249(17)
C28_13 C 0.9920(3) 0.2427(2) 0.40799(16)
C29_13 C 0.9536(3) 0.20525(19) 0.40500(15)
C30_13 C 0.9335(3) 0.17648(19) 0.43610(15)
C31_13 C 0.9542(3) 0.1805(3) 0.47173(16)
C32_13 C 0.9321(3) 0.1512(3) 0.49883(17)
C33_13 C 0.8896(3) 0.1185(3) 0.48978(17)
C34_13 C 0.8712(3) 0.11555(19) 0.45347(16)
C36_13 C 0.9550(3) 0.1538(3) 0.53836(18)
H13_13 H 0.9357 0.2029 0.3167
H16_13 H 0.9831 0.2030 0.4775
H17_13 H 0.8734 0.0986 0.5082
H18_13 H 0.8428 0.0928 0.4472
Co2_7 Co 0.8750 0.14217(3) 0.3750
N7_10 N 0.81830(19) 0.55782(15) 0.37182(13)
N8_10 N 0.8576(2) 0.60615(16) 0.42708(13)
C20_14 C 0.0215(3) 0.5553(3) 0.86585(18)
C24_14 C 0.0350(3) 0.4659(3) 0.87083(19)
H10_14 H 0.0032 0.6255 0.8649
H11_14 H 0.0616 0.5590 0.8629
O11_14 O 0.7511(3) 0.0725(3) 0.04381(14)
C36_14 C 0.7950(3) 0.0962(3) 0.03836(18)
H17_14 H 0.8766 0.1514 0.0082
N5_8 N 0.81830(19) 0.05782(15) 0.87182(13)
N6_8 N 0.8576(2) 0.10615(16) 0.92708(13)
C25_14 C 0.8010(3) 0.0351(2) 0.84137(16)
C28_14 C 0.7580(3) 0.0073(2) 0.90799(16)
C29_14 C 0.7964(3) 0.04475(19) 0.90500(15)
C30_14 C 0.8165(3) 0.07352(19) 0.93610(15)
C31_14 C 0.7958(3) 0.0695(3) 0.97173(16)
C32_14 C 0.8179(3) 0.0988(3) 0.99883(17)
C33_14 C 0.8604(3) 0.1315(3) 0.98978(17)
C34_14 C 0.8788(3) 0.13445(19) 0.95347(16)
H13_14 H 0.8143 0.0471 0.8167
H16_14 H 0.7669 0.0470 0.9775
H18_14 H 0.9072 0.1572 0.9472
Co2_8 Co 0.8750 0.10783(3) 0.8750
Co1_8 Co 0.8750 0.64217(3) 0.8750
O1_14 O 0.69179(17) 0.83246(15) 0.89926(11)
O2_14 O 0.66979(19) 0.81238(16) 0.84196(12)
O3_14 O 0.7511(3) 0.6775(3) 0.70619(14)
N1_11 N 0.81830(19) 0.69218(15) 0.87818(13)
N2_11 N 0.8576(2) 0.64385(16) 0.82292(13)
N3_14 N 0.82032(19) 0.59120(17) 0.87959(13)
C1_14 C 0.8010(3) 0.7149(2) 0.90863(16)
C2_14 C 0.7617(3) 0.7517(3) 0.90751(17)
C3_14 C 0.7402(3) 0.76608(19) 0.87379(17)
C4_14 C 0.7580(3) 0.7427(2) 0.84201(16)
C5_14 C 0.7964(3) 0.70525(19) 0.84500(15)
C6_14 C 0.8165(3) 0.67648(19) 0.81390(15)
C7_14 C 0.7958(3) 0.6805(3) 0.77827(16)
C8_14 C 0.8179(3) 0.6512(3) 0.75117(17)
C9_14 C 0.8604(3) 0.6185(3) 0.76022(17)
C10_14 C 0.8788(3) 0.61555(19) 0.79653(16)
C11_14 C 0.6975(3) 0.80668(19) 0.87131(16)
C12_14 C 0.7950(3) 0.6538(3) 0.71164(18)
C13_14 C 0.7635(3) 0.5947(2) 0.88318(17)
C14_14 C 0.7285(3) 0.5553(3) 0.88415(18)
C15_14 C 0.7520(3) 0.5102(2) 0.88075(17)
C16_14 C 0.8110(3) 0.5058(2) 0.87693(19)
C17_14 C 0.8439(3) 0.54675(19) 0.87703(17)
C18_14 C 0.7150(3) 0.4659(3) 0.87917(19)
H1_14 H 0.8143 0.7029 0.9333
H2_14 H 0.7465 0.7681 0.9317
H3_14 H 0.7420 0.7530 0.8173
H4_14 H 0.7669 0.7030 0.7725
H5_14 H 0.8766 0.5986 0.7418
H6_14 H 0.9072 0.5928 0.8028
H7_14 H 0.7468 0.6255 0.8851
H8_14 H 0.6884 0.5590 0.8871
H9_14 H 0.8282 0.4753 0.8743
N4_14 N 0.92968(19) 0.59120(17) 0.87041(13)
C19_14 C 0.9865(3) 0.5947(2) 0.86682(17)
C21_14 C 0.9980(3) 0.5102(2) 0.86925(17)
C22_14 C 0.9390(3) 0.5058(2) 0.87307(19)
C23_14 C 0.9061(3) 0.54675(19) 0.87297(17)
H12_14 H 0.9218 0.4753 0.8757
O9_14 O 0.69179(17) 0.91754(15) 0.85074(11)
O10_14 O 0.66979(19) 0.93762(16) 0.90804(12)
C26_14 C 0.7617(3) 0.9983(3) 0.84249(17)
C27_14 C 0.7402(3) 0.98392(19) 0.87621(17)
C35_14 C 0.6975(3) 0.94332(19) 0.87869(16)
H14_14 H 0.7465 0.9819 0.8183
H15_14 H 0.7420 0.9970 0.9327
N7_11 N 0.93170(19) 0.69218(15) 0.87182(13)
N8_11 N 0.8924(2) 0.64385(16) 0.92708(13)
C14_15 C 0.0215(3) 0.0553(3) 0.36585(18)
H7_15 H 0.0032 0.1255 0.3649
H8_15 H 0.0616 0.0590 0.3629
C18_15 C 0.0350(3) 0.9659(3) 0.37083(19)
N3_15 N 0.92968(19) 0.09120(17) 0.37041(13)
C13_15 C 0.9865(3) 0.0947(2) 0.36682(17)
C15_15 C 0.9980(3) 0.0102(2) 0.36925(17)
C16_15 C 0.9390(3) 0.0058(2) 0.37307(19)
C17_15 C 0.9061(3) 0.04675(19) 0.37297(17)
N4_15 N 0.82032(19) 0.09120(17) 0.37959(13)
C19_15 C 0.7635(3) 0.0947(2) 0.38318(17)
C20_15 C 0.7285(3) 0.0553(3) 0.38415(18)
C21_15 C 0.7520(3) 0.0102(2) 0.38075(17)
C22_15 C 0.8110(3) 0.0058(2) 0.37693(19)
C23_15 C 0.8439(3) 0.04675(19) 0.37703(17)
H10_15 H 0.7468 0.1255 0.3851
H11_15 H 0.6884 0.0590 0.3871
N7_12 N 0.81830(19) 0.19218(15) 0.37818(13)
N8_12 N 0.8576(2) 0.14385(16) 0.32292(13)
H9_15 H 0.9218 0.9753 0.3757
C24_15 C 0.7150(3) 0.9659(3) 0.37917(19)
H12_15 H 0.8282 0.9753 0.3743
O1_15 O 0.69179(17) 0.41754(15) 0.35074(11)
O2_15 O 0.66979(19) 0.43762(16) 0.40804(12)
O3_15 O 0.7511(3) 0.5725(3) 0.54381(14)
C1_15 C 0.8010(3) 0.5351(2) 0.34137(16)
C2_15 C 0.7617(3) 0.4983(3) 0.34249(17)
C3_15 C 0.7402(3) 0.48392(19) 0.37621(17)
C4_15 C 0.7580(3) 0.5073(2) 0.40799(16)
C5_15 C 0.7964(3) 0.54475(19) 0.40500(15)
C6_15 C 0.8165(3) 0.57352(19) 0.43610(15)
C7_15 C 0.7958(3) 0.5695(3) 0.47173(16)
C8_15 C 0.8179(3) 0.5988(3) 0.49883(17)
C9_15 C 0.8604(3) 0.6315(3) 0.48978(17)
C10_15 C 0.8788(3) 0.63445(19) 0.45347(16)
C11_15 C 0.6975(3) 0.44332(19) 0.37869(16)
C12_15 C 0.7950(3) 0.5962(3) 0.53836(18)
H1_15 H 0.8143 0.5471 0.3167
H2_15 H 0.7465 0.4819 0.3183
H3_15 H 0.7420 0.4970 0.4327
H4_15 H 0.7669 0.5470 0.4775
H5_15 H 0.8766 0.6514 0.5082
H6_15 H 0.9072 0.6572 0.4472
O9_15 O 0.69179(17) 0.33246(15) 0.39926(11)
O10_15 O 0.66979(19) 0.31238(16) 0.34196(12)
O11_15 O 0.7511(3) 0.1775(3) 0.20619(14)
C25_15 C 0.8010(3) 0.2149(2) 0.40863(16)
C26_15 C 0.7617(3) 0.2517(3) 0.40751(17)
C27_15 C 0.7402(3) 0.26608(19) 0.37379(17)
C28_15 C 0.7580(3) 0.2427(2) 0.34201(16)
C29_15 C 0.7964(3) 0.20525(19) 0.34500(15)
C30_15 C 0.8165(3) 0.17648(19) 0.31390(15)
C31_15 C 0.7958(3) 0.1805(3) 0.27827(16)
C32_15 C 0.8179(3) 0.1512(3) 0.25117(17)
C33_15 C 0.8604(3) 0.1185(3) 0.26022(17)
C34_15 C 0.8788(3) 0.11555(19) 0.29653(16)
C35_15 C 0.6975(3) 0.30668(19) 0.37131(16)
C36_15 C 0.7950(3) 0.1538(3) 0.21164(18)
H13_15 H 0.8143 0.2029 0.4333
H14_15 H 0.7465 0.2681 0.4317
H15_15 H 0.7420 0.2530 0.3173
H16_15 H 0.7669 0.2030 0.2725
H17_15 H 0.8766 0.0986 0.2418
H18_15 H 0.9072 0.0928 0.3028
C14_16 C 0.0215(3) 0.1947(3) 0.88415(18)
C18_16 C 0.0350(3) 0.2841(3) 0.87917(19)
H7_16 H 0.0032 0.1245 0.8851
H8_16 H 0.0616 0.1910 0.8871
O1_16 O 0.05821(17) 0.91754(15) 0.89926(11)
O2_16 O 0.08021(19) 0.93762(16) 0.84196(12)
C3_16 C 0.0098(3) 0.98392(19) 0.87379(17)
C11_16 C 0.0525(3) 0.94332(19) 0.87131(16)
H2_16 H 0.0035 0.9819 0.9317
H3_16 H 0.0080 0.9970 0.8173
O9_16 O 0.05821(17) 0.83246(15) 0.85074(11)
O10_16 O 0.08021(19) 0.81238(16) 0.90804(12)
C27_16 C 0.0098(3) 0.76608(19) 0.87621(17)
C35_16 C 0.0525(3) 0.80668(19) 0.87869(16)
H14_16 H 0.0035 0.7681 0.8183
H15_16 H 0.0080 0.7530 0.9327
O3_16 O 0.9989(3) 0.0725(3) 0.70619(14)
N1_12 N 0.93170(19) 0.05782(15) 0.87818(13)
N2_12 N 0.8924(2) 0.10615(16) 0.82292(13)
N3_16 N 0.92968(19) 0.15880(17) 0.87959(13)
C1_16 C 0.9490(3) 0.0351(2) 0.90863(16)
C4_16 C 0.9920(3) 0.0073(2) 0.84201(16)
C5_16 C 0.9536(3) 0.04475(19) 0.84500(15)
C6_16 C 0.9335(3) 0.07352(19) 0.81390(15)
C7_16 C 0.9542(3) 0.0695(3) 0.77827(16)
C8_16 C 0.9321(3) 0.0988(3) 0.75117(17)
C9_16 C 0.8896(3) 0.1315(3) 0.76022(17)
C10_16 C 0.8712(3) 0.13445(19) 0.79653(16)
C12_16 C 0.9550(3) 0.0962(3) 0.71164(18)
C13_16 C 0.9865(3) 0.1553(2) 0.88318(17)
C15_16 C 0.9980(3) 0.2398(2) 0.88075(17)
C16_16 C 0.9390(3) 0.2442(2) 0.87693(19)
C17_16 C 0.9061(3) 0.20325(19) 0.87703(17)
H1_16 H 0.9357 0.0471 0.9333
H4_16 H 0.9831 0.0470 0.7725
H5_16 H 0.8734 0.1514 0.7418
H6_16 H 0.8428 0.1572 0.8028
H9_16 H 0.9218 0.2747 0.8743
N4_16 N 0.82032(19) 0.15880(17) 0.87041(13)
C19_16 C 0.7635(3) 0.1553(2) 0.86682(17)
C20_16 C 0.7285(3) 0.1947(3) 0.86585(18)
C21_16 C 0.7520(3) 0.2398(2) 0.86925(17)
C22_16 C 0.8110(3) 0.2442(2) 0.87307(19)
C23_16 C 0.8439(3) 0.20325(19) 0.87297(17)
C24_16 C 0.7150(3) 0.2841(3) 0.87083(19)
H10_16 H 0.7468 0.1245 0.8649
H11_16 H 0.6884 0.1910 0.8629
H12_16 H 0.8282 0.2747 0.8757
O11_16 O 0.9989(3) 0.6775(3) 0.04381(14)
C36_16 C 0.9550(3) 0.6538(3) 0.03836(18)
H17_16 H 0.8734 0.5986 0.0082
C2_16 C 0.9883(3) 0.9983(3) 0.90751(17)
C25_16 C 0.9490(3) 0.7149(2) 0.84137(16)
C26_16 C 0.9883(3) 0.7517(3) 0.84249(17)
C28_16 C 0.9920(3) 0.7427(2) 0.90799(16)
C29_16 C 0.9536(3) 0.70525(19) 0.90500(15)
C30_16 C 0.9335(3) 0.67648(19) 0.93610(15)
C31_16 C 0.9542(3) 0.6805(3) 0.97173(16)
C32_16 C 0.9321(3) 0.6512(3) 0.99883(17)
C33_16 C 0.8896(3) 0.6185(3) 0.98978(17)
C34_16 C 0.8712(3) 0.61555(19) 0.95347(16)
H13_16 H 0.9357 0.7029 0.8167
H16_16 H 0.9831 0.7030 0.9775
H18_16 H 0.8428 0.5928 0.9472
loop_
_geom_bond_atom_site_label_1
_geom_bond_atom_site_label_2
_geom_bond_site_symmetry_1
_geom_bond_site_symmetry_2
Ce1 O1 1_555 1_555
Co1 N1 1_555 1_555
O1 C11 1_555 1_555
O2 Ce1 1_555 1_555
O3 C12 1_555 1_555
O4 C12 1_555 1_555
O5 C18 1_555 1_555
O6 C18 1_555 1_555
N1 C1 1_555 1_555
N2 Co1 1_555 1_555
N3 Co1 1_555 1_555
C1 C2 1_555 1_555
C2 C3 1_555 1_555
C3 C4 1_555 1_555
C4 C5 1_555 1_555
C5 N1 1_555 1_555
C6 N2 1_555 1_555
C7 C6 1_555 1_555
C8 C7 1_555 1_555
C9 C8 1_555 1_555
C10 N2 1_555 1_555
C11 O2 1_555 1_555
C12 C8 1_555 1_555
C13 N3 1_555 1_555
C14 C13 1_555 1_555
C15 C14 1_555 1_555
C16 C15 1_555 1_555
C17 N3 1_555 1_555
C18 C15 1_555 1_555
H1 C1 1_555 1_555
H2 C2 1_555 1_555
H3 C4 1_555 1_555
H4 C7 1_555 1_555
H5 C9 1_555 1_555
H6 C10 1_555 1_555
H7 C13 1_555 1_555
H8 C14 1_555 1_555
H9 C16 1_555 1_555
O7 C24 1_555 1_555
O8 C24 1_555 1_555
N4 Co1 1_555 1_555
C19 N4 1_555 1_555
C20 C19 1_555 1_555
C21 C20 1_555 1_555
C22 C21 1_555 1_555
C23 C17 1_555 1_555
C24 C21 1_555 1_555
H10 C19 1_555 1_555
H11 C20 1_555 1_555
H12 C22 1_555 1_555
O9 Ce1 1_555 1_555
O10 Ce1 1_555 1_555
N5 C25 1_555 1_555
N6 C30 1_555 1_555
C25 C26 1_555 1_555
C26 C27 1_555 1_555
C27 C28 1_555 1_555
C28 C29 1_555 1_555
C29 N5 1_555 1_555
C30 C29 1_555 1_555
C31 C30 1_555 1_555
C32 C31 1_555 1_555
C33 C32 1_555 1_555
C34 N6 1_555 1_555
C35 O9 1_555 1_555
H13 C25 1_555 1_555
H14 C26 1_555 1_555
H15 C28 1_555 1_555
H16 C31 1_555 1_555
H18 C34 1_555 1_555
Ce2 O4 1_555 1_555
Ce4 O5 1_555 1_555
Ce5 O7 1_555 1_555
Co2 N5 1_555 1_555
O13 Ce1 1_555 1_555
O14 Ce1 1_555 1_555
O15 Ce1 1_555 1_555
O16 Ce1 1_555 1_555
O17 Ce1 1_555 1_555
O18 Ce1 1_555 1_555
N7 Co1 1_555 1_555
N8 Co1 1_555 1_555
O6 Ce4 1_555 1_555
C3 C11 1_555 1_555
C5 C6 1_555 1_555
C9 C10 1_555 1_555
C16 C17 1_555 1_555
O8 Ce5 1_555 1_555
N4 C23 1_555 1_555
C22 C23 1_555 1_555
O10 C35 1_555 1_555
N6 Co2 1_555 1_555
C27 C35 1_555 1_555
C33 C34 1_555 1_555
O11 C36 1_555 1_555
O12 C36 1_555 1_555
Ce3 O12 1_555 1_555
Ce1_2 O1_2 1_555 1_555
Co1_2 N1_2 1_555 1_555
O1_2 C11_2 1_555 1_555
O2_2 Ce1_2 1_555 1_555
O3_2 C12_2 1_555 1_555
O4_2 C12_2 1_555 1_555
O5_2 C18_2 1_555 1_555
O6_2 C18_2 1_555 1_555
N1_2 C1_2 1_555 1_555
N2_2 Co1_2 1_555 1_555
N3_2 Co1_2 1_555 1_555
C1_2 C2_2 1_555 1_555
C2_2 C3_2 1_555 1_555
C3_2 C4_2 1_555 1_555
C4_2 C5_2 1_555 1_555
C5_2 N1_2 1_555 1_555
C6_2 N2_2 1_555 1_555
C7_2 C6_2 1_555 1_555
C8_2 C7_2 1_555 1_555
C9_2 C8_2 1_555 1_555
C10_2 N2_2 1_555 1_555
C11_2 O2_2 1_555 1_555
C12_2 C8_2 1_555 1_555
C13_2 N3_2 1_555 1_555
C14_2 C13_2 1_555 1_555
C15_2 C14_2 1_555 1_555
C16_2 C15_2 1_555 1_555
C17_2 N3_2 1_555 1_555
C18_2 C15_2 1_555 1_555
H1_2 C1_2 1_555 1_555
H2_2 C2_2 1_555 1_555
H3_2 C4_2 1_555 1_555
H4_2 C7_2 1_555 1_555
H5_2 C9_2 1_555 1_555
H6_2 C10_2 1_555 1_555
H7_2 C13_2 1_555 1_555
H8_2 C14_2 1_555 1_555
H9_2 C16_2 1_555 1_555
O7_2 C24_2 1_555 1_555
O8_2 C24_2 1_555 1_555
N4_2 Co1_2 1_555 1_555
C19_2 N4_2 1_555 1_555
C20_2 C19_2 1_555 1_555
C21_2 C20_2 1_555 1_555
C22_2 C21_2 1_555 1_555
C23_2 C17_2 1_555 1_555
C24_2 C21_2 1_555 1_555
H10_2 C19_2 1_555 1_555
H11_2 C20_2 1_555 1_555
H12_2 C22_2 1_555 1_555
O9_2 Ce1_2 1_555 1_555
O10_2 Ce1_2 1_555 1_555
C26_2 C27_2 1_555 1_555
C35_2 O9_2 1_555 1_555
H14_2 C26_2 1_555 1_555
Ce2_2 O4_2 1_555 1_555
Ce4_2 O5_2 1_555 1_555
Ce5_2 O7_2 1_555 1_555
O13_2 Ce1_2 1_555 1_555
O14_2 Ce1_2 1_555 1_555
O15_2 Ce1_2 1_555 1_555
O16_2 Ce1_2 1_555 1_555
O17_2 Ce1_2 1_555 1_555
O18_2 Ce1_2 1_555 1_555
N7_2 Co1_2 1_555 1_555
N8_2 Co1_2 1_555 1_555
O6_2 Ce4_2 1_555 1_555
C3_2 C11_2 1_555 1_555
C5_2 C6_2 1_555 1_555
C9_2 C10_2 1_555 1_555
C16_2 C17_2 1_555 1_555
O8_2 Ce5_2 1_555 1_555
N4_2 C23_2 1_555 1_555
C22_2 C23_2 1_555 1_555
O10_2 C35_2 1_555 1_555
C27_2 C35_2 1_555 1_555
O11_2 C36_2 1_555 1_555
O12_2 C36_2 1_555 1_555
N5_2 C25_2 1_555 1_555
N6_2 C30_2 1_555 1_555
C28_2 C29_2 1_555 1_555
C29_2 N5_2 1_555 1_555
C30_2 C29_2 1_555 1_555
C31_2 C30_2 1_555 1_555
C32_2 C31_2 1_555 1_555
C33_2 C32_2 1_555 1_555
C34_2 N6_2 1_555 1_555
C36_2 C32_2 1_555 1_555
H13_2 C25_2 1_555 1_555
H16_2 C31_2 1_555 1_555
H17_2 C33_2 1_555 1_555
H18_2 C34_2 1_555 1_555
Ce3_2 O12_2 1_555 1_555
Co2_2 N5_2 1_555 1_555
N6_2 Co2_2 1_555 1_555
C33_2 C34_2 1_555 1_555
O5_3 C18_3 1_555 1_555
O6_3 C18_3 1_555 1_555
O7_3 C24_3 1_555 1_555
O8_3 C24_3 1_555 1_555
Ce4 O5_3 1_555 1_555
Ce5 O7_3 1_555 1_555
O6_3 Ce4 1_555 1_555
O8_3 Ce5 1_555 1_555
N3_3 Co2 1_555 1_555
C13_3 N3_3 1_555 1_555
C14_3 C13_3 1_555 1_555
C15_3 C14_3 1_555 1_555
C16_3 C15_3 1_555 1_555
C17_3 N3_3 1_555 1_555
H7_3 C13_3 1_555 1_555
H8_3 C14_3 1_555 1_555
N4_3 Co2 1_555 1_555
C19_3 N4_3 1_555 1_555
C20_3 C19_3 1_555 1_555
C21_3 C20_3 1_555 1_555
C22_3 C21_3 1_555 1_555
C23_3 C17_3 1_555 1_555
H10_3 C19_3 1_555 1_555
H11_3 C20_3 1_555 1_555
N7_3 Co2 1_555 1_555
N8_3 Co2 1_555 1_555
C16_3 C17_3 1_555 1_555
N4_3 C23_3 1_555 1_555
C22_3 C23_3 1_555 1_555
Ce1_3 O1_3 1_555 1_555
O1_3 C11_3 1_555 1_555
O2_3 Ce1_3 1_555 1_555
N7 C1_3 1_555 1_555
C1_3 C2_3 1_555 1_555
C2_3 C3_3 1_555 1_555
C3_3 C4_3 1_555 1_555
C4_3 C5_3 1_555 1_555
C5_3 N7 1_555 1_555
C6_3 N8 1_555 1_555
C7_3 C6_3 1_555 1_555
C8_3 C7_3 1_555 1_555
C9_3 C8_3 1_555 1_555
C10_3 N8 1_555 1_555
C11_3 O2_3 1_555 1_555
H1_3 C1_3 1_555 1_555
H2_3 C2_3 1_555 1_555
H3_3 C4_3 1_555 1_555
H4_3 C7_3 1_555 1_555
H6_3 C10_3 1_555 1_555
O9_3 Ce1_3 1_555 1_555
O10_3 Ce1_3 1_555 1_555
O11_3 C36_3 1_555 1_555
O12_3 C36_3 1_555 1_555
N7_3 C25_3 1_555 1_555
N8_3 C30_3 1_555 1_555
C25_3 C26_3 1_555 1_555
C26_3 C27_3 1_555 1_555
C27_3 C28_3 1_555 1_555
C28_3 C29_3 1_555 1_555
C29_3 N7_3 1_555 1_555
C30_3 C29_3 1_555 1_555
C31_3 C30_3 1_555 1_555
C32_3 C31_3 1_555 1_555
C33_3 C32_3 1_555 1_555
C34_3 N8_3 1_555 1_555
C35_3 O9_3 1_555 1_555
C36_3 C32_3 1_555 1_555
H13_3 C25_3 1_555 1_555
H14_3 C26_3 1_555 1_555
H15_3 C28_3 1_555 1_555
H16_3 C31_3 1_555 1_555
H17_3 C33_3 1_555 1_555
H18_3 C34_3 1_555 1_555
Ce3_2 O12_3 1_555 1_555
O13_3 Ce1_3 1_555 1_555
O14_3 Ce1_3 1_555 1_555
O15_3 Ce1_3 1_555 1_555
O16_3 Ce1_3 1_555 1_555
O17_3 Ce1_3 1_555 1_555
O18_3 Ce1_3 1_555 1_555
C3_3 C11_3 1_555 1_555
C5_3 C6_3 1_555 1_555
C9_3 C10_3 1_555 1_555
O10_3 C35_3 1_555 1_555
C27_3 C35_3 1_555 1_555
C33_3 C34_3 1_555 1_555
O3_3 C12_3 1_555 1_555
O4_3 C12_3 1_555 1_555
Ce2_2 O4_3 1_555 1_555
Ce1_4 O1_4 1_555 1_555
O1_4 C11_4 1_555 1_555
O2_4 Ce1_4 1_555 1_555
C2_4 C3_4 1_555 1_555
C11_4 O2_4 1_555 1_555
H2_4 C2_4 1_555 1_555
O9_4 Ce1_4 1_555 1_555
O10_4 Ce1_4 1_555 1_555
O11_4 C36_4 1_555 1_555
O12_4 C36_4 1_555 1_555
N7_2 C25_4 1_555 1_555
N8_2 C30_4 1_555 1_555
C25_4 C26_4 1_555 1_555
C26_4 C27_4 1_555 1_555
C27_4 C28_4 1_555 1_555
C28_4 C29_4 1_555 1_555
C29_4 N7_2 1_555 1_555
C30_4 C29_4 1_555 1_555
C31_4 C30_4 1_555 1_555
C32_4 C31_4 1_555 1_555
C33_4 C32_4 1_555 1_555
C34_4 N8_2 1_555 1_555
C35_4 O9_4 1_555 1_555
C36_4 C32_4 1_555 1_555
H13_4 C25_4 1_555 1_555
H14_4 C26_4 1_555 1_555
H15_4 C28_4 1_555 1_555
H16_4 C31_4 1_555 1_555
H17_4 C33_4 1_555 1_555
H18_4 C34_4 1_555 1_555
Ce2 O12_4 1_555 1_555
O13_4 Ce1_4 1_555 1_555
O14_4 Ce1_4 1_555 1_555
O15_4 Ce1_4 1_555 1_555
O16_4 Ce1_4 1_555 1_555
O17_4 Ce1_4 1_555 1_555
O18_4 Ce1_4 1_555 1_555
C3_4 C11_4 1_555 1_555
O10_4 C35_4 1_555 1_555
C27_4 C35_4 1_555 1_555
C33_4 C34_4 1_555 1_555
Co2_2 N1_3 1_555 1_555
O3_4 C12_4 1_555 1_555
O4_4 C12_4 1_555 1_555
O5_4 C18_4 1_555 1_555
O6_4 C18_4 1_555 1_555
N1_3 C1_4 1_555 1_555
N2_3 Co2_2 1_555 1_555
N3_4 Co2_2 1_555 1_555
C4_4 C5_4 1_555 1_555
C5_4 N1_3 1_555 1_555
C6_4 N2_3 1_555 1_555
C7_4 C6_4 1_555 1_555
C8_4 C7_4 1_555 1_555
C9_4 C8_4 1_555 1_555
C10_4 N2_3 1_555 1_555
C12_4 C8_4 1_555 1_555
C13_4 N3_4 1_555 1_555
C14_4 C13_4 1_555 1_555
C15_4 C14_4 1_555 1_555
C16_4 C15_4 1_555 1_555
C17_4 N3_4 1_555 1_555
C18_4 C15_4 1_555 1_555
H1_4 C1_4 1_555 1_555
H4_4 C7_4 1_555 1_555
H5_4 C9_4 1_555 1_555
H6_4 C10_4 1_555 1_555
H7_4 C13_4 1_555 1_555
H8_4 C14_4 1_555 1_555
H9_4 C16_4 1_555 1_555
O7_4 C24_4 1_555 1_555
O8_4 C24_4 1_555 1_555
N4_4 Co2_2 1_555 1_555
C19_4 N4_4 1_555 1_555
C20_4 C19_4 1_555 1_555
C21_4 C20_4 1_555 1_555
C22_4 C21_4 1_555 1_555
C23_4 C17_4 1_555 1_555
C24_4 C21_4 1_555 1_555
H10_4 C19_4 1_555 1_555
H11_4 C20_4 1_555 1_555
H12_4 C22_4 1_555 1_555
Ce3 O4_4 1_555 1_555
Ce5_2 O5_4 1_555 1_555
Ce4_2 O7_4 1_555 1_555
O6_4 Ce5_2 1_555 1_555
C5_4 C6_4 1_555 1_555
C9_4 C10_4 1_555 1_555
C16_4 C17_4 1_555 1_555
O8_4 Ce4_2 1_555 1_555
N4_4 C23_4 1_555 1_555
C22_4 C23_4 1_555 1_555
Co1_3 N1_4 1_555 1_555
O3_5 C12_5 1_555 1_555
O4_5 C12_5 1_555 1_555
N1_4 C1_5 1_555 1_555
N2_4 Co1_3 1_555 1_555
N3_5 Co1_3 1_555 1_555
C1_5 C2_5 1_555 1_555
C4_5 C5_5 1_555 1_555
C5_5 N1_4 1_555 1_555
C6_5 N2_4 1_555 1_555
C7_5 C6_5 1_555 1_555
C8_5 C7_5 1_555 1_555
C9_5 C8_5 1_555 1_555
C10_5 N2_4 1_555 1_555
C12_5 C8_5 1_555 1_555
C13_5 N3_5 1_555 1_555
C16_5 C15_5 1_555 1_555
C17_5 N3_5 1_555 1_555
H1_5 C1_5 1_555 1_555
H4_5 C7_5 1_555 1_555
H5_5 C9_5 1_555 1_555
H6_5 C10_5 1_555 1_555
H9_5 C16_5 1_555 1_555
O16_4 C24_5 1_555 1_555
O18_4 C24_5 1_555 1_555
N4_5 Co1_3 1_555 1_555
C19_5 N4_5 1_555 1_555
C20_5 C19_5 1_555 1_555
C21_5 C20_5 1_555 1_555
C22_5 C21_5 1_555 1_555
C23_5 C17_5 1_555 1_555
C24_5 C21_5 1_555 1_555
H10_5 C19_5 1_555 1_555
H11_5 C20_5 1_555 1_555
H12_5 C22_5 1_555 1_555
O11_5 C36_5 1_555 1_555
O12_5 C36_5 1_555 1_555
N5_3 C25_5 1_555 1_555
N6_3 C30_5 1_555 1_555
C25_5 C26_5 1_555 1_555
C28_5 C29_5 1_555 1_555
C29_5 N5_3 1_555 1_555
C30_5 C29_5 1_555 1_555
C31_5 C30_5 1_555 1_555
C32_5 C31_5 1_555 1_555
C33_5 C32_5 1_555 1_555
C34_5 N6_3 1_555 1_555
C36_5 C32_5 1_555 1_555
H13_5 C25_5 1_555 1_555
H16_5 C31_5 1_555 1_555
H17_5 C33_5 1_555 1_555
H18_5 C34_5 1_555 1_555
Ce2_3 O4_5 1_555 1_555
Ce3_3 O12_5 1_555 1_555
Co2_3 N5_3 1_555 1_555
N7_4 Co1_3 1_555 1_555
N8_4 Co1_3 1_555 1_555
C5_5 C6_5 1_555 1_555
C9_5 C10_5 1_555 1_555
C16_5 C17_5 1_555 1_555
N4_5 C23_5 1_555 1_555
C22_5 C23_5 1_555 1_555
N6_3 Co2_3 1_555 1_555
C33_5 C34_5 1_555 1_555
Ce4_2 O1_5 1_555 1_555
O1_5 C11_5 1_555 1_555
O2_5 Ce4_2 1_555 1_555
O15_2 C18_5 1_555 1_555
O17_2 C18_5 1_555 1_555
C11_5 O2_5 1_555 1_555
H8_5 C14_5 1_555 1_555
O9_5 Ce4_2 1_555 1_555
O10_5 Ce4_2 1_555 1_555
C35_5 O9_5 1_555 1_555
O13_5 Ce4_2 1_555 1_555
O14_5 Ce4_2 1_555 1_555
C3_5 C11_5 1_555 1_555
O10_5 C35_5 1_555 1_555
C27_5 C35_5 1_555 1_555
Ce4 O1_6 1_555 1_555
Co1_4 N1_5 1_555 1_555
O1_6 C11_6 1_555 1_555
O2_6 Ce4 1_555 1_555
O3_6 C12_6 1_555 1_555
O4_6 C12_6 1_555 1_555
O15 C18_6 1_555 1_555
O17 C18_6 1_555 1_555
N1_5 C1_6 1_555 1_555
N2_5 Co1_4 1_555 1_555
N3_6 Co1_4 1_555 1_555
C1_6 C2_6 1_555 1_555
C2_6 C3_6 1_555 1_555
C3_6 C4_6 1_555 1_555
C4_6 C5_6 1_555 1_555
C5_6 N1_5 1_555 1_555
C6_6 N2_5 1_555 1_555
C7_6 C6_6 1_555 1_555
C8_6 C7_6 1_555 1_555
C9_6 C8_6 1_555 1_555
C10_6 N2_5 1_555 1_555
C11_6 O2_6 1_555 1_555
C12_6 C8_6 1_555 1_555
C13_6 N3_6 1_555 1_555
C14_6 C13_6 1_555 1_555
C15_6 C14_6 1_555 1_555
C16_6 C15_6 1_555 1_555
C17_6 N3_6 1_555 1_555
C18_6 C15_6 1_555 1_555
H1_6 C1_6 1_555 1_555
H2_6 C2_6 1_555 1_555
H3_6 C4_6 1_555 1_555
H4_6 C7_6 1_555 1_555
H5_6 C9_6 1_555 1_555
H6_6 C10_6 1_555 1_555
H7_6 C13_6 1_555 1_555
H8_6 C14_6 1_555 1_555
H9_6 C16_6 1_555 1_555
N4_6 Co1_4 1_555 1_555
C19_6 N4_6 1_555 1_555
C22_6 C21_6 1_555 1_555
C23_6 C17_6 1_555 1_555
H12_6 C22_6 1_555 1_555
O9_6 Ce4 1_555 1_555
O10_6 Ce4 1_555 1_555
C26_6 C27_6 1_555 1_555
C35_6 O9_6 1_555 1_555
H14_6 C26_6 1_555 1_555
Ce2_4 O4_6 1_555 1_555
O13_6 Ce4 1_555 1_555
O14_6 Ce4 1_555 1_555
N7_5 Co1_4 1_555 1_555
N8_5 Co1_4 1_555 1_555
C3_6 C11_6 1_555 1_555
C5_6 C6_6 1_555 1_555
C9_6 C10_6 1_555 1_555
C16_6 C17_6 1_555 1_555
N4_6 C23_6 1_555 1_555
C22_6 C23_6 1_555 1_555
O10_6 C35_6 1_555 1_555
C27_6 C35_6 1_555 1_555
N5_4 C25_6 1_555 1_555
N6_4 C30_6 1_555 1_555
C28_6 C29_6 1_555 1_555
C29_6 N5_4 1_555 1_555
C30_6 C29_6 1_555 1_555
C31_6 C30_6 1_555 1_555
C32_6 C31_6 1_555 1_555
C33_6 C32_6 1_555 1_555
C34_6 N6_4 1_555 1_555
H13_6 C25_6 1_555 1_555
H16_6 C31_6 1_555 1_555
H18_6 C34_6 1_555 1_555
Co2_4 N5_4 1_555 1_555
N6_4 Co2_4 1_555 1_555
C33_6 C34_6 1_555 1_555
O11_6 C36_6 1_555 1_555
O12_6 C36_6 1_555 1_555
Ce3_4 O12_6 1_555 1_555
O15_3 C24_6 1_555 1_555
O17_3 C24_6 1_555 1_555
H11_6 C20_6 1_555 1_555
O15_4 C24_7 1_555 1_555
O17_4 C24_7 1_555 1_555
N3_7 Co2_3 1_555 1_555
C13_7 N3_7 1_555 1_555
C16_7 C15_7 1_555 1_555
C17_7 N3_7 1_555 1_555
N4_7 Co2_3 1_555 1_555
C19_7 N4_7 1_555 1_555
C20_7 C19_7 1_555 1_555
C21_7 C20_7 1_555 1_555
C22_7 C21_7 1_555 1_555
C23_7 C17_7 1_555 1_555
H10_7 C19_7 1_555 1_555
H11_7 C20_7 1_555 1_555
N7_6 Co2_3 1_555 1_555
N8_6 Co2_3 1_555 1_555
C16_7 C17_7 1_555 1_555
N4_7 C23_7 1_555 1_555
C22_7 C23_7 1_555 1_555
O16_2 C18_7 1_555 1_555
O18_2 C18_7 1_555 1_555
H8_7 C14_7 1_555 1_555
Ce5_2 O1_7 1_555 1_555
O1_7 C11_7 1_555 1_555
O2_7 Ce5_2 1_555 1_555
O3_7 C12_7 1_555 1_555
O4_7 C12_7 1_555 1_555
N7_4 C1_7 1_555 1_555
C1_7 C2_7 1_555 1_555
C2_7 C3_7 1_555 1_555
C3_7 C4_7 1_555 1_555
C4_7 C5_7 1_555 1_555
C5_7 N7_4 1_555 1_555
C6_7 N8_4 1_555 1_555
C7_7 C6_7 1_555 1_555
C8_7 C7_7 1_555 1_555
C9_7 C8_7 1_555 1_555
C10_7 N8_4 1_555 1_555
C11_7 O2_7 1_555 1_555
C12_7 C8_7 1_555 1_555
H1_7 C1_7 1_555 1_555
H2_7 C2_7 1_555 1_555
H3_7 C4_7 1_555 1_555
H4_7 C7_7 1_555 1_555
H5_7 C9_7 1_555 1_555
H6_7 C10_7 1_555 1_555
O9_7 Ce5_2 1_555 1_555
O10_7 Ce5_2 1_555 1_555
O11_7 C36_7 1_555 1_555
O12_7 C36_7 1_555 1_555
N7_6 C25_7 1_555 1_555
N8_6 C30_7 1_555 1_555
C25_7 C26_7 1_555 1_555
C26_7 C27_7 1_555 1_555
C27_7 C28_7 1_555 1_555
C28_7 C29_7 1_555 1_555
C29_7 N7_6 1_555 1_555
C30_7 C29_7 1_555 1_555
C31_7 C30_7 1_555 1_555
C32_7 C31_7 1_555 1_555
C33_7 C32_7 1_555 1_555
C34_7 N8_6 1_555 1_555
C35_7 O9_7 1_555 1_555
C36_7 C32_7 1_555 1_555
H13_7 C25_7 1_555 1_555
H14_7 C26_7 1_555 1_555
H15_7 C28_7 1_555 1_555
H16_7 C31_7 1_555 1_555
H17_7 C33_7 1_555 1_555
H18_7 C34_7 1_555 1_555
Ce2_4 O4_7 1_555 1_555
Ce3_4 O12_7 1_555 1_555
O13_7 Ce5_2 1_555 1_555
O14_7 Ce5_2 1_555 1_555
C3_7 C11_7 1_555 1_555
C5_7 C6_7 1_555 1_555
C9_7 C10_7 1_555 1_555
O10_7 C35_7 1_555 1_555
C27_7 C35_7 1_555 1_555
C33_7 C34_7 1_555 1_555
N7_5 C25_8 1_555 1_555
N8_5 C30_8 1_555 1_555
C25_8 C26_8 1_555 1_555
C28_8 C29_8 1_555 1_555
C29_8 N7_5 1_555 1_555
C30_8 C29_8 1_555 1_555
C31_8 C30_8 1_555 1_555
C32_8 C31_8 1_555 1_555
C33_8 C32_8 1_555 1_555
C34_8 N8_5 1_555 1_555
H13_8 C25_8 1_555 1_555
H16_8 C31_8 1_555 1_555
H18_8 C34_8 1_555 1_555
C33_8 C34_8 1_555 1_555
O11_8 C36_8 1_555 1_555
O12_8 C36_8 1_555 1_555
Ce2_3 O12_8 1_555 1_555
Co2_4 N1_6 1_555 1_555
O3_8 C12_8 1_555 1_555
O4_8 C12_8 1_555 1_555
N1_6 C1_8 1_555 1_555
N2_6 Co2_4 1_555 1_555
N3_8 Co2_4 1_555 1_555
C4_8 C5_8 1_555 1_555
C5_8 N1_6 1_555 1_555
C6_8 N2_6 1_555 1_555
C7_8 C6_8 1_555 1_555
C8_8 C7_8 1_555 1_555
C9_8 C8_8 1_555 1_555
C10_8 N2_6 1_555 1_555
C12_8 C8_8 1_555 1_555
C13_8 N3_8 1_555 1_555
C16_8 C15_8 1_555 1_555
C17_8 N3_8 1_555 1_555
H1_8 C1_8 1_555 1_555
H4_8 C7_8 1_555 1_555
H5_8 C9_8 1_555 1_555
H6_8 C10_8 1_555 1_555
H9_8 C16_8 1_555 1_555
O16 C24_8 1_555 1_555
O18 C24_8 1_555 1_555
N4_8 Co2_4 1_555 1_555
C19_8 N4_8 1_555 1_555
C20_8 C19_8 1_555 1_555
C21_8 C20_8 1_555 1_555
C22_8 C21_8 1_555 1_555
C23_8 C17_8 1_555 1_555
C24_8 C21_8 1_555 1_555
H10_8 C19_8 1_555 1_555
H11_8 C20_8 1_555 1_555
H12_8 C22_8 1_555 1_555
Ce3_3 O4_8 1_555 1_555
C5_8 C6_8 1_555 1_555
C9_8 C10_8 1_555 1_555
C16_8 C17_8 1_555 1_555
N4_8 C23_8 1_555 1_555
C22_8 C23_8 1_555 1_555
Ce5 O1_8 1_555 1_555
O1_8 C11_8 1_555 1_555
O2_8 Ce5 1_555 1_555
C11_8 O2_8 1_555 1_555
O9_8 Ce5 1_555 1_555
O10_8 Ce5 1_555 1_555
C35_8 O9_8 1_555 1_555
O13_8 Ce5 1_555 1_555
O14_8 Ce5 1_555 1_555
C3_8 C11_8 1_555 1_555
O10_8 C35_8 1_555 1_555
C27_8 C35_8 1_555 1_555
O16_3 C18_8 1_555 1_555
O18_3 C18_8 1_555 1_555
H8_8 C14_8 1_555 1_555
O11_9 C36_9 1_555 1_555
O13_6 C36_9 1_555 1_555
Ce2_2 O1_9 1_555 1_555
Co1_5 N1_7 1_555 1_555
O1_9 C11_9 1_555 1_555
O2_9 Ce2_2 1_555 1_555
O3_9 C12_9 1_555 1_555
O13_7 C12_9 1_555 1_555
O5_5 C18_9 1_555 1_555
O6_5 C18_9 1_555 1_555
N1_7 C1_9 1_555 1_555
N2_7 Co1_5 1_555 1_555
N3_9 Co1_5 1_555 1_555
C1_9 C2_9 1_555 1_555
C2_9 C3_9 1_555 1_555
C3_9 C4_9 1_555 1_555
C4_9 C5_9 1_555 1_555
C5_9 N1_7 1_555 1_555
C6_9 N2_7 1_555 1_555
C7_9 C6_9 1_555 1_555
C8_9 C7_9 1_555 1_555
C9_9 C8_9 1_555 1_555
C10_9 N2_7 1_555 1_555
C11_9 O2_9 1_555 1_555
C12_9 C8_9 1_555 1_555
C13_9 N3_9 1_555 1_555
C14_9 C13_9 1_555 1_555
C15_9 C14_9 1_555 1_555
C16_9 C15_9 1_555 1_555
C17_9 N3_9 1_555 1_555
C18_9 C15_9 1_555 1_555
H1_9 C1_9 1_555 1_555
H2_9 C2_9 1_555 1_555
H3_9 C4_9 1_555 1_555
H4_9 C7_9 1_555 1_555
H5_9 C9_9 1_555 1_555
H6_9 C10_9 1_555 1_555
H7_9 C13_9 1_555 1_555
H8_9 C14_9 1_555 1_555
H9_9 C16_9 1_555 1_555
O7_5 C24_9 1_555 1_555
O8_5 C24_9 1_555 1_555
N4_9 Co1_5 1_555 1_555
C19_9 N4_9 1_555 1_555
C20_9 C19_9 1_555 1_555
C21_9 C20_9 1_555 1_555
C22_9 C21_9 1_555 1_555
C23_9 C17_9 1_555 1_555
C24_9 C21_9 1_555 1_555
H10_9 C19_9 1_555 1_555
H11_9 C20_9 1_555 1_555
H12_9 C22_9 1_555 1_555
O9_9 Ce2_2 1_555 1_555
O10_9 Ce2_2 1_555 1_555
N5_5 C25_9 1_555 1_555
N6_5 C30_9 1_555 1_555
C25_9 C26_9 1_555 1_555
C26_9 C27_9 1_555 1_555
C27_9 C28_9 1_555 1_555
C28_9 C29_9 1_555 1_555
C29_9 N5_5 1_555 1_555
C30_9 C29_9 1_555 1_555
C31_9 C30_9 1_555 1_555
C32_9 C31_9 1_555 1_555
C33_9 C32_9 1_555 1_555
C34_9 N6_5 1_555 1_555
C35_9 O9_9 1_555 1_555
H13_9 C25_9 1_555 1_555
H14_9 C26_9 1_555 1_555
H15_9 C28_9 1_555 1_555
H16_9 C31_9 1_555 1_555
H18_9 C34_9 1_555 1_555
Ce3 O5_5 1_555 1_555
Ce3_4 O7_5 1_555 1_555
Co2_5 N5_5 1_555 1_555
O15_5 Ce2_2 1_555 1_555
O16_5 Ce2_2 1_555 1_555
O17_5 Ce2_2 1_555 1_555
O18_5 Ce2_2 1_555 1_555
N7_7 Co1_5 1_555 1_555
N8_7 Co1_5 1_555 1_555
O6_5 Ce3 1_555 1_555
C3_9 C11_9 1_555 1_555
C5_9 C6_9 1_555 1_555
C9_9 C10_9 1_555 1_555
C16_9 C17_9 1_555 1_555
O8_5 Ce3_4 1_555 1_555
N4_9 C23_9 1_555 1_555
C22_9 C23_9 1_555 1_555
O10_9 C35_9 1_555 1_555
N6_5 Co2_5 1_555 1_555
C27_9 C35_9 1_555 1_555
C33_9 C34_9 1_555 1_555
O11_10 C36_10 1_555 1_555
O13_4 C36_10 1_555 1_555
N5_6 C25_10 1_555 1_555
N6_6 C30_10 1_555 1_555
C28_10 C29_10 1_555 1_555
C29_10 N5_6 1_555 1_555
C30_10 C29_10 1_555 1_555
C31_10 C30_10 1_555 1_555
C32_10 C31_10 1_555 1_555
C33_10 C32_10 1_555 1_555
C34_10 N6_6 1_555 1_555
C36_10 C32_10 1_555 1_555
H13_10 C25_10 1_555 1_555
H16_10 C31_10 1_555 1_555
H17_10 C33_10 1_555 1_555
H18_10 C34_10 1_555 1_555
Co2_6 N5_6 1_555 1_555
N6_6 Co2_6 1_555 1_555
C33_10 C34_10 1_555 1_555
Ce3_3 O1_10 1_555 1_555
Co1_6 N1_8 1_555 1_555
O1_10 C11_10 1_555 1_555
O2_10 Ce3_3 1_555 1_555
O3_10 C12_10 1_555 1_555
O14 C12_10 1_555 1_555
O5_6 C18_10 1_555 1_555
O6_6 C18_10 1_555 1_555
N1_8 C1_10 1_555 1_555
N2_8 Co1_6 1_555 1_555
N3_10 Co1_6 1_555 1_555
C1_10 C2_10 1_555 1_555
C2_10 C3_10 1_555 1_555
C3_10 C4_10 1_555 1_555
C4_10 C5_10 1_555 1_555
C5_10 N1_8 1_555 1_555
C6_10 N2_8 1_555 1_555
C7_10 C6_10 1_555 1_555
C8_10 C7_10 1_555 1_555
C9_10 C8_10 1_555 1_555
C10_10 N2_8 1_555 1_555
C11_10 O2_10 1_555 1_555
C12_10 C8_10 1_555 1_555
C13_10 N3_10 1_555 1_555
C14_10 C13_10 1_555 1_555
C15_10 C14_10 1_555 1_555
C16_10 C15_10 1_555 1_555
C17_10 N3_10 1_555 1_555
C18_10 C15_10 1_555 1_555
H1_10 C1_10 1_555 1_555
H2_10 C2_10 1_555 1_555
H3_10 C4_10 1_555 1_555
H4_10 C7_10 1_555 1_555
H5_10 C9_10 1_555 1_555
H6_10 C10_10 1_555 1_555
H7_10 C13_10 1_555 1_555
H8_10 C14_10 1_555 1_555
H9_10 C16_10 1_555 1_555
O7_6 C24_10 1_555 1_555
O8_6 C24_10 1_555 1_555
N4_10 Co1_6 1_555 1_555
C19_10 N4_10 1_555 1_555
C20_10 C19_10 1_555 1_555
C21_10 C20_10 1_555 1_555
C22_10 C21_10 1_555 1_555
C23_10 C17_10 1_555 1_555
C24_10 C21_10 1_555 1_555
H10_10 C19_10 1_555 1_555
H11_10 C20_10 1_555 1_555
H12_10 C22_10 1_555 1_555
O9_10 Ce3_3 1_555 1_555
O10_10 Ce3_3 1_555 1_555
C26_10 C27_10 1_555 1_555
C35_10 O9_10 1_555 1_555
H14_10 C26_10 1_555 1_555
Ce2_4 O5_6 1_555 1_555
Ce2 O7_6 1_555 1_555
O15_6 Ce3_3 1_555 1_555
O16_6 Ce3_3 1_555 1_555
O17_6 Ce3_3 1_555 1_555
O18_6 Ce3_3 1_555 1_555
N7_8 Co1_6 1_555 1_555
N8_8 Co1_6 1_555 1_555
O6_6 Ce2_4 1_555 1_555
C3_10 C11_10 1_555 1_555
C5_10 C6_10 1_555 1_555
C9_10 C10_10 1_555 1_555
C16_10 C17_10 1_555 1_555
O8_6 Ce2 1_555 1_555
N4_10 C23_10 1_555 1_555
C22_10 C23_10 1_555 1_555
O10_10 C35_10 1_555 1_555
C27_10 C35_10 1_555 1_555
N3_11 Co2_5 1_555 1_555
C13_11 N3_11 1_555 1_555
C14_11 C13_11 1_555 1_555
C15_11 C14_11 1_555 1_555
C16_11 C15_11 1_555 1_555
C17_11 N3_11 1_555 1_555
H7_11 C13_11 1_555 1_555
H8_11 C14_11 1_555 1_555
N4_11 Co2_5 1_555 1_555
C19_11 N4_11 1_555 1_555
C20_11 C19_11 1_555 1_555
C21_11 C20_11 1_555 1_555
C22_11 C21_11 1_555 1_555
C23_11 C17_11 1_555 1_555
H10_11 C19_11 1_555 1_555
H11_11 C20_11 1_555 1_555
N7_9 Co2_5 1_555 1_555
N8_9 Co2_5 1_555 1_555
C16_11 C17_11 1_555 1_555
N4_11 C23_11 1_555 1_555
C22_11 C23_11 1_555 1_555
O5_7 C18_11 1_555 1_555
O6_7 C18_11 1_555 1_555
O7_7 C24_11 1_555 1_555
O8_7 C24_11 1_555 1_555
Ce3 O5_7 1_555 1_555
Ce3_4 O7_7 1_555 1_555
O6_7 Ce3 1_555 1_555
O8_7 Ce3_4 1_555 1_555
O3_11 C12_11 1_555 1_555
O13 C12_11 1_555 1_555
Ce2_3 O1_11 1_555 1_555
O1_11 C11_11 1_555 1_555
O2_11 Ce2_3 1_555 1_555
N7_7 C1_11 1_555 1_555
C1_11 C2_11 1_555 1_555
C2_11 C3_11 1_555 1_555
C3_11 C4_11 1_555 1_555
C4_11 C5_11 1_555 1_555
C5_11 N7_7 1_555 1_555
C6_11 N8_7 1_555 1_555
C7_11 C6_11 1_555 1_555
C8_11 C7_11 1_555 1_555
C9_11 C8_11 1_555 1_555
C10_11 N8_7 1_555 1_555
C11_11 O2_11 1_555 1_555
H1_11 C1_11 1_555 1_555
H2_11 C2_11 1_555 1_555
H3_11 C4_11 1_555 1_555
H4_11 C7_11 1_555 1_555
H6_11 C10_11 1_555 1_555
O9_11 Ce2_3 1_555 1_555
O10_11 Ce2_3 1_555 1_555
O11_11 C36_11 1_555 1_555
O14_4 C36_11 1_555 1_555
N7_9 C25_11 1_555 1_555
N8_9 C30_11 1_555 1_555
C25_11 C26_11 1_555 1_555
C26_11 C27_11 1_555 1_555
C27_11 C28_11 1_555 1_555
C28_11 C29_11 1_555 1_555
C29_11 N7_9 1_555 1_555
C30_11 C29_11 1_555 1_555
C31_11 C30_11 1_555 1_555
C32_11 C31_11 1_555 1_555
C33_11 C32_11 1_555 1_555
C34_11 N8_9 1_555 1_555
C35_11 O9_11 1_555 1_555
C36_11 C32_11 1_555 1_555
H13_11 C25_11 1_555 1_555
H14_11 C26_11 1_555 1_555
H15_11 C28_11 1_555 1_555
H16_11 C31_11 1_555 1_555
H17_11 C33_11 1_555 1_555
H18_11 C34_11 1_555 1_555
O15_7 Ce2_3 1_555 1_555
O16_7 Ce2_3 1_555 1_555
O17_7 Ce2_3 1_555 1_555
O18_7 Ce2_3 1_555 1_555
C3_11 C11_11 1_555 1_555
C5_11 C6_11 1_555 1_555
C9_11 C10_11 1_555 1_555
O10_11 C35_11 1_555 1_555
C27_11 C35_11 1_555 1_555
C33_11 C34_11 1_555 1_555
Co2_6 N1_9 1_555 1_555
O3_12 C12_12 1_555 1_555
O14_6 C12_12 1_555 1_555
O5_8 C18_12 1_555 1_555
O6_8 C18_12 1_555 1_555
N1_9 C1_12 1_555 1_555
N2_9 Co2_6 1_555 1_555
N3_12 Co2_6 1_555 1_555
C4_12 C5_12 1_555 1_555
C5_12 N1_9 1_555 1_555
C6_12 N2_9 1_555 1_555
C7_12 C6_12 1_555 1_555
C8_12 C7_12 1_555 1_555
C9_12 C8_12 1_555 1_555
C10_12 N2_9 1_555 1_555
C12_12 C8_12 1_555 1_555
C13_12 N3_12 1_555 1_555
C14_12 C13_12 1_555 1_555
C15_12 C14_12 1_555 1_555
C16_12 C15_12 1_555 1_555
C17_12 N3_12 1_555 1_555
C18_12 C15_12 1_555 1_555
H1_12 C1_12 1_555 1_555
H4_12 C7_12 1_555 1_555
H5_12 C9_12 1_555 1_555
H6_12 C10_12 1_555 1_555
H7_12 C13_12 1_555 1_555
H8_12 C14_12 1_555 1_555
H9_12 C16_12 1_555 1_555
O7_8 C24_12 1_555 1_555
O8_8 C24_12 1_555 1_555
N4_12 Co2_6 1_555 1_555
C19_12 N4_12 1_555 1_555
C20_12 C19_12 1_555 1_555
C21_12 C20_12 1_555 1_555
C22_12 C21_12 1_555 1_555
C23_12 C17_12 1_555 1_555
C24_12 C21_12 1_555 1_555
H10_12 C19_12 1_555 1_555
H11_12 C20_12 1_555 1_555
H12_12 C22_12 1_555 1_555
Ce2 O5_8 1_555 1_555
Ce2_4 O7_8 1_555 1_555
O6_8 Ce2 1_555 1_555
C5_12 C6_12 1_555 1_555
C9_12 C10_12 1_555 1_555
C16_12 C17_12 1_555 1_555
O8_8 Ce2_4 1_555 1_555
N4_12 C23_12 1_555 1_555
C22_12 C23_12 1_555 1_555
Ce3_2 O1_12 1_555 1_555
O1_12 C11_12 1_555 1_555
O2_12 Ce3_2 1_555 1_555
C2_12 C3_12 1_555 1_555
C11_12 O2_12 1_555 1_555
H2_12 C2_12 1_555 1_555
O9_12 Ce3_2 1_555 1_555
O10_12 Ce3_2 1_555 1_555
O11_12 C36_12 1_555 1_555
O14_7 C36_12 1_555 1_555
N7_8 C25_12 1_555 1_555
N8_8 C30_12 1_555 1_555
C25_12 C26_12 1_555 1_555
C26_12 C27_12 1_555 1_555
C27_12 C28_12 1_555 1_555
C28_12 C29_12 1_555 1_555
C29_12 N7_8 1_555 1_555
C30_12 C29_12 1_555 1_555
C31_12 C30_12 1_555 1_555
C32_12 C31_12 1_555 1_555
C33_12 C32_12 1_555 1_555
C34_12 N8_8 1_555 1_555
C35_12 O9_12 1_555 1_555
C36_12 C32_12 1_555 1_555
H13_12 C25_12 1_555 1_555
H14_12 C26_12 1_555 1_555
H15_12 C28_12 1_555 1_555
H16_12 C31_12 1_555 1_555
H17_12 C33_12 1_555 1_555
H18_12 C34_12 1_555 1_555
O15_8 Ce3_2 1_555 1_555
O16_8 Ce3_2 1_555 1_555
O17_8 Ce3_2 1_555 1_555
O18_8 Ce3_2 1_555 1_555
C3_12 C11_12 1_555 1_555
O10_12 C35_12 1_555 1_555
C27_12 C35_12 1_555 1_555
C33_12 C34_12 1_555 1_555
Ce2_4 O1_13 1_555 1_555
O1_13 C11_13 1_555 1_555
O2_13 Ce2_4 1_555 1_555
O15_6 C18_13 1_555 1_555
O17_6 C18_13 1_555 1_555
C11_13 O2_13 1_555 1_555
H8_13 C14_13 1_555 1_555
O9_13 Ce2_4 1_555 1_555
O10_13 Ce2_4 1_555 1_555
C35_13 O9_13 1_555 1_555
C3_13 C11_13 1_555 1_555
O10_13 C35_13 1_555 1_555
C27_13 C35_13 1_555 1_555
Co1_7 N1_10 1_555 1_555
O3_13 C12_13 1_555 1_555
O13_3 C12_13 1_555 1_555
N1_10 C1_13 1_555 1_555
N2_10 Co1_7 1_555 1_555
N3_13 Co1_7 1_555 1_555
C1_13 C2_13 1_555 1_555
C4_13 C5_13 1_555 1_555
C5_13 N1_10 1_555 1_555
C6_13 N2_10 1_555 1_555
C7_13 C6_13 1_555 1_555
C8_13 C7_13 1_555 1_555
C9_13 C8_13 1_555 1_555
C10_13 N2_10 1_555 1_555
C12_13 C8_13 1_555 1_555
C13_13 N3_13 1_555 1_555
C16_13 C15_13 1_555 1_555
C17_13 N3_13 1_555 1_555
H1_13 C1_13 1_555 1_555
H4_13 C7_13 1_555 1_555
H5_13 C9_13 1_555 1_555
H6_13 C10_13 1_555 1_555
H9_13 C16_13 1_555 1_555
O16_8 C24_13 1_555 1_555
O18_8 C24_13 1_555 1_555
N4_13 Co1_7 1_555 1_555
C19_13 N4_13 1_555 1_555
C20_13 C19_13 1_555 1_555
C21_13 C20_13 1_555 1_555
C22_13 C21_13 1_555 1_555
C23_13 C17_13 1_555 1_555
C24_13 C21_13 1_555 1_555
H10_13 C19_13 1_555 1_555
H11_13 C20_13 1_555 1_555
H12_13 C22_13 1_555 1_555
O11_13 C36_13 1_555 1_555
O13_2 C36_13 1_555 1_555
N5_7 C25_13 1_555 1_555
N6_7 C30_13 1_555 1_555
C25_13 C26_13 1_555 1_555
C28_13 C29_13 1_555 1_555
C29_13 N5_7 1_555 1_555
C30_13 C29_13 1_555 1_555
C31_13 C30_13 1_555 1_555
C32_13 C31_13 1_555 1_555
C33_13 C32_13 1_555 1_555
C34_13 N6_7 1_555 1_555
C36_13 C32_13 1_555 1_555
H13_13 C25_13 1_555 1_555
H16_13 C31_13 1_555 1_555
H17_13 C33_13 1_555 1_555
H18_13 C34_13 1_555 1_555
Co2_7 N5_7 1_555 1_555
N7_10 Co1_7 1_555 1_555
N8_10 Co1_7 1_555 1_555
C5_13 C6_13 1_555 1_555
C9_13 C10_13 1_555 1_555
C16_13 C17_13 1_555 1_555
N4_13 C23_13 1_555 1_555
C22_13 C23_13 1_555 1_555
N6_7 Co2_7 1_555 1_555
C33_13 C34_13 1_555 1_555
O15_7 C24_14 1_555 1_555
O17_7 C24_14 1_555 1_555
H11_14 C20_14 1_555 1_555
O11_14 C36_14 1_555 1_555
O13_8 C36_14 1_555 1_555
N5_8 C25_14 1_555 1_555
N6_8 C30_14 1_555 1_555
C28_14 C29_14 1_555 1_555
C29_14 N5_8 1_555 1_555
C30_14 C29_14 1_555 1_555
C31_14 C30_14 1_555 1_555
C32_14 C31_14 1_555 1_555
C33_14 C32_14 1_555 1_555
C34_14 N6_8 1_555 1_555
H13_14 C25_14 1_555 1_555
H16_14 C31_14 1_555 1_555
H18_14 C34_14 1_555 1_555
Co2_8 N5_8 1_555 1_555
N6_8 Co2_8 1_555 1_555
C33_14 C34_14 1_555 1_555
Ce3 O1_14 1_555 1_555
Co1_8 N1_11 1_555 1_555
O1_14 C11_14 1_555 1_555
O2_14 Ce3 1_555 1_555
O3_14 C12_14 1_555 1_555
O14_5 C12_14 1_555 1_555
O15_5 C18_14 1_555 1_555
O17_5 C18_14 1_555 1_555
N1_11 C1_14 1_555 1_555
N2_11 Co1_8 1_555 1_555
N3_14 Co1_8 1_555 1_555
C1_14 C2_14 1_555 1_555
C2_14 C3_14 1_555 1_555
C3_14 C4_14 1_555 1_555
C4_14 C5_14 1_555 1_555
C5_14 N1_11 1_555 1_555
C6_14 N2_11 1_555 1_555
C7_14 C6_14 1_555 1_555
C8_14 C7_14 1_555 1_555
C9_14 C8_14 1_555 1_555
C10_14 N2_11 1_555 1_555
C11_14 O2_14 1_555 1_555
C12_14 C8_14 1_555 1_555
C13_14 N3_14 1_555 1_555
C14_14 C13_14 1_555 1_555
C15_14 C14_14 1_555 1_555
C16_14 C15_14 1_555 1_555
C17_14 N3_14 1_555 1_555
C18_14 C15_14 1_555 1_555
H1_14 C1_14 1_555 1_555
H2_14 C2_14 1_555 1_555
H3_14 C4_14 1_555 1_555
H4_14 C7_14 1_555 1_555
H5_14 C9_14 1_555 1_555
H6_14 C10_14 1_555 1_555
H7_14 C13_14 1_555 1_555
H8_14 C14_14 1_555 1_555
H9_14 C16_14 1_555 1_555
N4_14 Co1_8 1_555 1_555
C19_14 N4_14 1_555 1_555
C22_14 C21_14 1_555 1_555
C23_14 C17_14 1_555 1_555
H12_14 C22_14 1_555 1_555
O9_14 Ce3 1_555 1_555
O10_14 Ce3 1_555 1_555
C26_14 C27_14 1_555 1_555
C35_14 O9_14 1_555 1_555
H14_14 C26_14 1_555 1_555
N7_11 Co1_8 1_555 1_555
N8_11 Co1_8 1_555 1_555
C3_14 C11_14 1_555 1_555
C5_14 C6_14 1_555 1_555
C9_14 C10_14 1_555 1_555
C16_14 C17_14 1_555 1_555
N4_14 C23_14 1_555 1_555
C22_14 C23_14 1_555 1_555
O10_14 C35_14 1_555 1_555
C27_14 C35_14 1_555 1_555
H8_15 C14_15 1_555 1_555
O16_6 C18_15 1_555 1_555
O18_6 C18_15 1_555 1_555
N3_15 Co2_7 1_555 1_555
C13_15 N3_15 1_555 1_555
C16_15 C15_15 1_555 1_555
C17_15 N3_15 1_555 1_555
N4_15 Co2_7 1_555 1_555
C19_15 N4_15 1_555 1_555
C20_15 C19_15 1_555 1_555
C21_15 C20_15 1_555 1_555
C22_15 C21_15 1_555 1_555
C23_15 C17_15 1_555 1_555
H10_15 C19_15 1_555 1_555
H11_15 C20_15 1_555 1_555
N7_12 Co2_7 1_555 1_555
N8_12 Co2_7 1_555 1_555
C16_15 C17_15 1_555 1_555
N4_15 C23_15 1_555 1_555
C22_15 C23_15 1_555 1_555
O15_8 C24_15 1_555 1_555
O17_8 C24_15 1_555 1_555
Ce2 O1_15 1_555 1_555
O1_15 C11_15 1_555 1_555
O2_15 Ce2 1_555 1_555
O3_15 C12_15 1_555 1_555
O13_5 C12_15 1_555 1_555
N7_10 C1_15 1_555 1_555
C1_15 C2_15 1_555 1_555
C2_15 C3_15 1_555 1_555
C3_15 C4_15 1_555 1_555
C4_15 C5_15 1_555 1_555
C5_15 N7_10 1_555 1_555
C6_15 N8_10 1_555 1_555
C7_15 C6_15 1_555 1_555
C8_15 C7_15 1_555 1_555
C9_15 C8_15 1_555 1_555
C10_15 N8_10 1_555 1_555
C11_15 O2_15 1_555 1_555
C12_15 C8_15 1_555 1_555
H1_15 C1_15 1_555 1_555
H2_15 C2_15 1_555 1_555
H3_15 C4_15 1_555 1_555
H4_15 C7_15 1_555 1_555
H5_15 C9_15 1_555 1_555
H6_15 C10_15 1_555 1_555
O9_15 Ce2 1_555 1_555
O10_15 Ce2 1_555 1_555
O11_15 C36_15 1_555 1_555
O14_8 C36_15 1_555 1_555
N7_12 C25_15 1_555 1_555
N8_12 C30_15 1_555 1_555
C25_15 C26_15 1_555 1_555
C26_15 C27_15 1_555 1_555
C27_15 C28_15 1_555 1_555
C28_15 C29_15 1_555 1_555
C29_15 N7_12 1_555 1_555
C30_15 C29_15 1_555 1_555
C31_15 C30_15 1_555 1_555
C32_15 C31_15 1_555 1_555
C33_15 C32_15 1_555 1_555
C34_15 N8_12 1_555 1_555
C35_15 O9_15 1_555 1_555
C36_15 C32_15 1_555 1_555
H13_15 C25_15 1_555 1_555
H14_15 C26_15 1_555 1_555
H15_15 C28_15 1_555 1_555
H16_15 C31_15 1_555 1_555
H17_15 C33_15 1_555 1_555
H18_15 C34_15 1_555 1_555
C3_15 C11_15 1_555 1_555
C5_15 C6_15 1_555 1_555
C9_15 C10_15 1_555 1_555
O10_15 C35_15 1_555 1_555
C27_15 C35_15 1_555 1_555
C33_15 C34_15 1_555 1_555
O16_7 C18_16 1_555 1_555
O18_7 C18_16 1_555 1_555
H8_16 C14_16 1_555 1_555
Ce3_4 O1_16 1_555 1_555
O1_16 C11_16 1_555 1_555
O2_16 Ce3_4 1_555 1_555
C11_16 O2_16 1_555 1_555
O9_16 Ce3_4 1_555 1_555
O10_16 Ce3_4 1_555 1_555
C35_16 O9_16 1_555 1_555
C3_16 C11_16 1_555 1_555
O10_16 C35_16 1_555 1_555
C27_16 C35_16 1_555 1_555
Co2_8 N1_12 1_555 1_555
O3_16 C12_16 1_555 1_555
O14_2 C12_16 1_555 1_555
N1_12 C1_16 1_555 1_555
N2_12 Co2_8 1_555 1_555
N3_16 Co2_8 1_555 1_555
C4_16 C5_16 1_555 1_555
C5_16 N1_12 1_555 1_555
C6_16 N2_12 1_555 1_555
C7_16 C6_16 1_555 1_555
C8_16 C7_16 1_555 1_555
C9_16 C8_16 1_555 1_555
C10_16 N2_12 1_555 1_555
C12_16 C8_16 1_555 1_555
C13_16 N3_16 1_555 1_555
C16_16 C15_16 1_555 1_555
C17_16 N3_16 1_555 1_555
H1_16 C1_16 1_555 1_555
H4_16 C7_16 1_555 1_555
H5_16 C9_16 1_555 1_555
H6_16 C10_16 1_555 1_555
H9_16 C16_16 1_555 1_555
O16_5 C24_16 1_555 1_555
O18_5 C24_16 1_555 1_555
N4_16 Co2_8 1_555 1_555
C19_16 N4_16 1_555 1_555
C20_16 C19_16 1_555 1_555
C21_16 C20_16 1_555 1_555
C22_16 C21_16 1_555 1_555
C23_16 C17_16 1_555 1_555
C24_16 C21_16 1_555 1_555
H10_16 C19_16 1_555 1_555
H11_16 C20_16 1_555 1_555
H12_16 C22_16 1_555 1_555
C5_16 C6_16 1_555 1_555
C9_16 C10_16 1_555 1_555
C16_16 C17_16 1_555 1_555
N4_16 C23_16 1_555 1_555
C22_16 C23_16 1_555 1_555
O11_16 C36_16 1_555 1_555
O14_3 C36_16 1_555 1_555
N7_11 C25_16 1_555 1_555
N8_11 C30_16 1_555 1_555
C25_16 C26_16 1_555 1_555
C28_16 C29_16 1_555 1_555
C29_16 N7_11 1_555 1_555
C30_16 C29_16 1_555 1_555
C31_16 C30_16 1_555 1_555
C32_16 C31_16 1_555 1_555
C33_16 C32_16 1_555 1_555
C34_16 N8_11 1_555 1_555
H13_16 C25_16 1_555 1_555
H16_16 C31_16 1_555 1_555
H18_16 C34_16 1_555 1_555
C33_16 C34_16 1_555 1_555

#END
