
###############################################################################
#
# This file contains modified crystal structure data generated from the
# MOF subset of the Cambridge Structural Database (CSD) v543 
# hosted by the Cambridge Crystallographic Data Centre (CCDC).
#
# This work is licensed under the Creative Commons
# Attribution-NonCommercial-ShareAlike 4.0 International License.
# To view a copy of this license, visit
# http://creativecommons.org/licenses/by-nc-sa/4.0/
# or send a letter to
# Creative Commons, PO Box 1866, Mountain View, CA 94042, USA.
#
# CIF created using the CSD Python API on 29 September 2022
# The structure has been converted into the P1 space group
# The structure has a 3D framework
# The original CSD entry ZOZKAC is in the tetragonal crystal system
# The original CSD entry ZOZKAC is in a Sohncke space group
# The framework has been calculated to contain at least 10.0% void space
# The void calculation uses a probe of radius 1.32A, grid spacing 0.4
# H atom positions have been added when not included in the experimental data
#
###############################################################################

data_ZOZKAC
_chemical_formula_moiety         '(C64 H40 Mn8 O36)n'
_symmetry_cell_setting           triclinic
_symmetry_space_group_name_H-M   'P 1'
_symmetry_Int_Tables_number      1
_space_group_name_Hall           'P 1'
loop_
_symmetry_equiv_pos_site_id
_symmetry_equiv_pos_as_xyz
1 x,y,z
_cell_length_a                   13.0696(3)
_cell_length_b                   13.0696(3)
_cell_length_c                   11.2867(5)
_cell_angle_alpha                90
_cell_angle_beta                 90
_cell_angle_gamma                90
_cell_volume                     1927.93
loop_
_atom_site_label
_atom_site_type_symbol
_atom_site_fract_x
_atom_site_fract_y
_atom_site_fract_z
Mn4 Mn 0.25697(4) 0.01037(4) 0.60474(4)
O3 O 0.0875(2) 0.7721(2) 0.5309(2)
O4 O 0.1403(2) 0.9037(2) 0.6384(3)
C2 C 0.0725(3) 0.8411(3) 0.6091(3)
Mn5 Mn 0.01037(4) 0.74303(4) 0.35474(4)
Mn8 Mn 0.25006(4) 0.78073(4) 0.45790(5)
O11 O 0.9125(2) 0.2279(2) 0.0309(2)
O13 O 0.8597(2) 0.0963(2) 0.1384(3)
O15 O 0.6782(3) 0.2500(3) 0.1161(3)
O16 O 0.6324(2) 0.0948(2) 0.1788(3)
Mn2 Mn 0.74994(4) 0.21927(4) 0.95790(5)
O1 O 0.7601(2) 0.0565(2) 0.9193(2)
O2 O 0.8724(3) 0.1354(2) 0.8073(3)
O9 O 0.6014(4) 0.2029(4) 0.8688(7)
C1 C 0.8276(3) 0.0552(3) 0.8387(3)
Mn6 Mn 0.98963(4) 0.25697(4) 0.85474(4)
O14 O 0.7592(3) 0.3570(3) 0.8722(4)
H9 H 0.558674 0.152739 0.912604
H10 H 0.566115 0.27017 0.867041
Mn1 Mn 0.74303(4) 0.98963(4) 0.10474(4)
O5 O 0.6430(3) 0.7592(3) 0.1222(4)
O6 O 0.6228(2) 0.9049(3) 0.0256(3)
C3 C 0.6026(3) 0.8134(3) 0.0429(4)
H8 H 0.5286 0.6260 0.0516
Mn9 Mn 0.78073(4) 0.74994(4) 0.20790(5)
O10 O 0.8646(2) 0.8724(3) 0.0573(3)
O12 O 0.7721(2) 0.9125(2) 0.2809(2)
O7 O 0.3218(3) 0.7500(3) 0.6161(3)
O8 O 0.3676(2) 0.9052(2) 0.6788(3)
C4 C 0.3649(3) 0.8102(3) 0.6874(4)
C5 C 0.8519(3) 0.9546(3) 0.7816(3)
C6 C 0.9446(3) 0.9433(3) 0.7208(3)
H1 H 0.9890 0.9986 0.7144
C7 C 0.9712(3) 0.8492(3) 0.6696(3)
C8 C 0.9054(4) 0.7680(3) 0.6796(4)
H2 H 0.9226 0.7051 0.6464
C9 C 0.8122(4) 0.7795(4) 0.7398(5)
H3 H 0.7673 0.7246 0.7451
C10 C 0.7866(3) 0.8722(3) 0.7913(4)
H4 H 0.7254 0.8788 0.8325
C11 C 0.5252(3) 0.7608(3) 0.9633(4)
C12 C 0.4825(3) 0.8111(3) 0.8666(4)
H5 H 0.4993 0.8790 0.8513
C13 C 0.4144(3) 0.7590(3) 0.7925(4)
C14 C 0.3888(4) 0.6582(3) 0.8184(4)
H6 H 0.3428 0.6238 0.7698
C15 C 0.4299(4) 0.6086(4) 0.9139(5)
H7 H 0.4117 0.5412 0.9300
C16 C 0.4996(4) 0.6596(4) 0.9872(4)
O5_2 O 0.3570(3) 0.2408(3) 0.6222(4)
O6_2 O 0.3772(2) 0.0951(3) 0.5256(3)
C3_2 C 0.3974(3) 0.1866(3) 0.5429(4)
C4_2 C 0.6351(3) 0.1898(3) 0.1874(4)
C5_2 C 0.1481(3) 0.0454(3) 0.2816(3)
C6_2 C 0.0554(3) 0.0567(3) 0.2208(3)
H1_2 H 0.0110 0.0014 0.2144
C7_2 C 0.0288(3) 0.1508(3) 0.1696(3)
C8_2 C 0.0946(4) 0.2320(3) 0.1796(4)
H2_2 H 0.0774 0.2949 0.1464
C9_2 C 0.1878(4) 0.2205(4) 0.2398(5)
H3_2 H 0.2327 0.2754 0.2451
C10_2 C 0.2134(3) 0.1278(3) 0.2913(4)
H4_2 H 0.2746 0.1212 0.3325
C11_2 C 0.4748(3) 0.2392(3) 0.4633(4)
C12_2 C 0.5175(3) 0.1889(3) 0.3666(4)
H5_2 H 0.5007 0.1210 0.3513
C13_2 C 0.5856(3) 0.2410(3) 0.2925(4)
C14_2 C 0.6112(4) 0.3418(3) 0.3184(4)
H6_2 H 0.6572 0.3762 0.2698
C15_2 C 0.5701(4) 0.3914(4) 0.4139(5)
H7_2 H 0.5883 0.4588 0.4300
C16_2 C 0.5004(4) 0.3404(4) 0.4872(4)
H8_2 H 0.4714 0.3740 0.5516
Mn9_2 Mn 0.21927(4) 0.25006(4) 0.70790(5)
O10_2 O 0.1354(2) 0.1276(3) 0.5573(3)
O12_2 O 0.2279(2) 0.0875(2) 0.7809(2)
O1_2 O 0.2399(2) 0.9435(2) 0.4193(2)
O2_2 O 0.1276(3) 0.8646(2) 0.3073(3)
O9_2 O 0.3986(4) 0.7971(4) 0.3688(7)
C1_2 C 0.1724(3) 0.9448(3) 0.3387(3)
O14_2 O 0.2408(3) 0.6430(3) 0.3722(4)
H9_2 H 0.441326 0.847261 0.412604
H10_2 H 0.433885 0.72983 0.367041
C2_2 C 0.9275(3) 0.1589(3) 0.1091(3)
O4_2 O 0.0963(2) 0.1403(2) 0.8884(3)
C2_3 C 0.1589(3) 0.0725(3) 0.8591(3)
O6_3 O 0.0951(3) 0.6228(2) 0.2756(3)
C3_3 C 0.1866(3) 0.6026(3) 0.2929(4)
C5_3 C 0.0454(3) 0.8519(3) 0.0316(3)
C10_3 C 0.1278(3) 0.7866(3) 0.0413(4)
H4_3 H 0.1212 0.7254 0.0825
C11_3 C 0.2392(3) 0.5252(3) 0.2133(4)
C12_3 C 0.1889(3) 0.4825(3) 0.1166(4)
H5_3 H 0.1210 0.4993 0.1013
C13_3 C 0.2410(3) 0.4144(3) 0.0425(4)
C14_3 C 0.3418(3) 0.3888(4) 0.0684(4)
H6_3 H 0.3762 0.3428 0.0198
C15_3 C 0.3914(4) 0.4299(4) 0.1639(5)
H7_3 H 0.4588 0.4117 0.1800
C16_3 C 0.3404(4) 0.4996(4) 0.2372(4)
H8_3 H 0.3740 0.5286 0.3016
O7_2 O 0.2500(3) 0.3218(3) 0.8661(3)
O8_2 O 0.0948(2) 0.3676(2) 0.9288(3)
C4_3 C 0.1898(3) 0.3649(3) 0.9374(4)
C6_3 C 0.0567(3) 0.9446(3) 0.9708(3)
H1_3 H 0.0014 0.9890 0.9644
C7_3 C 0.1508(3) 0.9712(3) 0.9196(3)
C8_3 C 0.2320(3) 0.9054(4) 0.9296(4)
H2_3 H 0.2949 0.9226 0.8964
C9_3 C 0.2205(4) 0.8122(4) 0.9898(5)
H3_3 H 0.2754 0.7673 0.9951
O1_3 O 0.9435(2) 0.7601(2) 0.1693(2)
O9_3 O 0.7971(4) 0.6014(4) 0.1188(7)
C1_3 C 0.9448(3) 0.8276(3) 0.0887(3)
O13_2 O 0.9037(2) 0.8597(2) 0.3884(3)
O15_2 O 0.7500(3) 0.6782(3) 0.3661(3)
O16_2 O 0.9052(2) 0.6324(2) 0.4288(3)
H9_3 H 0.847261 0.558674 0.162604
H10_3 H 0.72983 0.566115 0.117041
O1_4 O 0.0565(2) 0.2399(2) 0.6693(2)
O9_4 O 0.2029(4) 0.3986(4) 0.6188(7)
C1_4 C 0.0552(3) 0.1724(3) 0.5887(3)
H9_4 H 0.152739 0.441326 0.662604
H10_4 H 0.27017 0.433885 0.617041
O6_4 O 0.9049(3) 0.3772(2) 0.7756(3)
C3_4 C 0.8134(3) 0.3974(3) 0.7929(4)
C4_4 C 0.8102(3) 0.6351(3) 0.4374(4)
C5_4 C 0.9546(3) 0.1481(3) 0.5316(3)
C6_4 C 0.9433(3) 0.0554(3) 0.4708(3)
H1_4 H 0.9986 0.0110 0.4644
C7_4 C 0.8492(3) 0.0288(3) 0.4196(3)
C8_4 C 0.7680(3) 0.0946(4) 0.4296(4)
H2_4 H 0.7051 0.0774 0.3964
C9_4 C 0.7795(4) 0.1878(4) 0.4898(5)
H3_4 H 0.7246 0.2327 0.4951
C10_4 C 0.8722(3) 0.2134(3) 0.5413(4)
H4_4 H 0.8788 0.2746 0.5825
C11_4 C 0.7608(3) 0.4748(3) 0.7133(4)
C12_4 C 0.8111(3) 0.5175(3) 0.6166(4)
H5_4 H 0.8790 0.5007 0.6013
C13_4 C 0.7590(3) 0.5856(3) 0.5425(4)
C14_4 C 0.6582(3) 0.6112(4) 0.5684(4)
H6_4 H 0.6238 0.6572 0.5198
C15_4 C 0.6086(4) 0.5701(4) 0.6639(5)
H7_4 H 0.5412 0.5883 0.6800
C16_4 C 0.6596(4) 0.5004(4) 0.7372(4)
H8_4 H 0.6260 0.4714 0.8016
C2_4 C 0.8411(3) 0.9275(3) 0.3591(3)
loop_
_geom_bond_atom_site_label_1
_geom_bond_atom_site_label_2
_geom_bond_site_symmetry_1
_geom_bond_site_symmetry_2
O3 C2 1_555 1_555
O4 C2 1_555 1_555
Mn5 O3 1_555 1_555
Mn8 O3 1_555 1_555
Mn2 O1 1_555 1_555
O1 C1 1_555 1_555
O2 C1 1_555 1_555
O9 Mn2 1_555 1_555
Mn6 O2 1_555 1_555
O14 Mn2 1_555 1_555
O9 H9 1_555 1_555
O9 H10 1_555 1_555
O5 C3 1_555 1_555
O6 Mn1 1_555 1_555
C3 O6 1_555 1_555
Mn9 O5 1_555 1_555
O10 Mn1 1_555 1_555
O12 Mn1 1_555 1_555
Mn9 O12 1_555 1_555
O7 C4 1_555 1_555
O8 C4 1_555 1_555
C4 C13 1_555 1_555
C5 C6 1_555 1_555
C6 H1 1_555 1_555
C7 C6 1_555 1_555
C8 C7 1_555 1_555
H2 C8 1_555 1_555
C9 C8 1_555 1_555
H3 C9 1_555 1_555
C10 C5 1_555 1_555
H4 C10 1_555 1_555
C12 C11 1_555 1_555
H5 C12 1_555 1_555
C13 C12 1_555 1_555
C14 C13 1_555 1_555
H6 C14 1_555 1_555
C15 C14 1_555 1_555
H7 C15 1_555 1_555
C16 C11 1_555 1_555
Mn8 O7 1_555 1_555
C9 C10 1_555 1_555
C15 C16 1_555 1_555
O5_2 C3_2 1_555 1_555
O6_2 Mn4 1_555 1_555
O15 C4_2 1_555 1_555
O16 C4_2 1_555 1_555
C3_2 O6_2 1_555 1_555
C4_2 C13_2 1_555 1_555
C5_2 C6_2 1_555 1_555
C6_2 H1_2 1_555 1_555
C7_2 C6_2 1_555 1_555
C8_2 C7_2 1_555 1_555
H2_2 C8_2 1_555 1_555
C9_2 C8_2 1_555 1_555
H3_2 C9_2 1_555 1_555
C10_2 C5_2 1_555 1_555
H4_2 C10_2 1_555 1_555
C11_2 C3_2 1_555 1_555
C12_2 C11_2 1_555 1_555
H5_2 C12_2 1_555 1_555
C13_2 C12_2 1_555 1_555
C14_2 C13_2 1_555 1_555
H6_2 C14_2 1_555 1_555
C15_2 C14_2 1_555 1_555
H7_2 C15_2 1_555 1_555
C16_2 C11_2 1_555 1_555
H8_2 C16_2 1_555 1_555
Mn9_2 O5_2 1_555 1_555
O10_2 Mn4 1_555 1_555
O12_2 Mn4 1_555 1_555
C9_2 C10_2 1_555 1_555
C15_2 C16_2 1_555 1_555
Mn9_2 O12_2 1_555 1_555
Mn8 O1_2 1_555 1_555
O1_2 C1_2 1_555 1_555
O2_2 C1_2 1_555 1_555
O9_2 Mn8 1_555 1_555
Mn5 O2_2 1_555 1_555
O14_2 Mn8 1_555 1_555
O9_2 H9_2 1_555 1_555
O9_2 H10_2 1_555 1_555
O11 C2_2 1_555 1_555
O13 C2_2 1_555 1_555
O12_2 C2_3 1_555 1_555
O4_2 C2_3 1_555 1_555
O14_2 C3_3 1_555 1_555
O6_3 Mn5 1_555 1_555
C3_3 O6_3 1_555 1_555
C10_3 C5_3 1_555 1_555
H4_3 C10_3 1_555 1_555
C11_3 C3_3 1_555 1_555
C12_3 C11_3 1_555 1_555
H5_3 C12_3 1_555 1_555
C13_3 C12_3 1_555 1_555
C14_3 C13_3 1_555 1_555
H6_3 C14_3 1_555 1_555
C15_3 C14_3 1_555 1_555
H7_3 C15_3 1_555 1_555
C16_3 C11_3 1_555 1_555
H8_3 C16_3 1_555 1_555
C15_3 C16_3 1_555 1_555
O7_2 C4_3 1_555 1_555
O8_2 C4_3 1_555 1_555
C6_3 H1_3 1_555 1_555
C7_3 C6_3 1_555 1_555
C8_3 C7_3 1_555 1_555
H2_3 C8_3 1_555 1_555
C9_3 C8_3 1_555 1_555
H3_3 C9_3 1_555 1_555
Mn9_2 O7_2 1_555 1_555
Mn9 O1_3 1_555 1_555
O1_3 C1_3 1_555 1_555
O10 C1_3 1_555 1_555
O9_3 Mn9 1_555 1_555
O15_2 Mn9 1_555 1_555
O9_3 H9_3 1_555 1_555
O9_3 H10_3 1_555 1_555
Mn9_2 O1_4 1_555 1_555
O1_4 C1_4 1_555 1_555
O10_2 C1_4 1_555 1_555
O9_4 Mn9_2 1_555 1_555
O9_4 H9_4 1_555 1_555
O9_4 H10_4 1_555 1_555
O14 C3_4 1_555 1_555
O6_4 Mn6 1_555 1_555
O15_2 C4_4 1_555 1_555
O16_2 C4_4 1_555 1_555
C3_4 O6_4 1_555 1_555
C4_4 C13_4 1_555 1_555
C5_4 C6_4 1_555 1_555
C6_4 H1_4 1_555 1_555
C7_4 C6_4 1_555 1_555
C8_4 C7_4 1_555 1_555
H2_4 C8_4 1_555 1_555
C9_4 C8_4 1_555 1_555
H3_4 C9_4 1_555 1_555
C10_4 C5_4 1_555 1_555
H4_4 C10_4 1_555 1_555
C11_4 C3_4 1_555 1_555
C12_4 C11_4 1_555 1_555
H5_4 C12_4 1_555 1_555
C13_4 C12_4 1_555 1_555
C14_4 C13_4 1_555 1_555
H6_4 C14_4 1_555 1_555
C15_4 C14_4 1_555 1_555
H7_4 C15_4 1_555 1_555
C16_4 C11_4 1_555 1_555
H8_4 C16_4 1_555 1_555
C9_4 C10_4 1_555 1_555
C15_4 C16_4 1_555 1_555
O12 C2_4 1_555 1_555
O13_2 C2_4 1_555 1_555

#END
