
###############################################################################
#
# This file contains modified crystal structure data generated from the
# MOF subset of the Cambridge Structural Database (CSD) v543 
# hosted by the Cambridge Crystallographic Data Centre (CCDC).
#
# This work is licensed under the Creative Commons
# Attribution-NonCommercial-ShareAlike 4.0 International License.
# To view a copy of this license, visit
# http://creativecommons.org/licenses/by-nc-sa/4.0/
# or send a letter to
# Creative Commons, PO Box 1866, Mountain View, CA 94042, USA.
#
# CIF created using the CSD Python API on 29 September 2022
# The structure has been converted into the P1 space group
# The structure has a 3D framework
# The original CSD entry ZOZKEG is in the monoclinic crystal system
# The framework has been calculated to contain at least 10.0% void space
# The void calculation uses a probe of radius 1.32A, grid spacing 0.4
# H atom positions have been added when not included in the experimental data
#
###############################################################################

data_ZOZKEG
_chemical_formula_moiety         '(C288 H204 Mn16 N4 O124 S20)n'
_symmetry_cell_setting           triclinic
_symmetry_space_group_name_H-M   'P 1'
_symmetry_Int_Tables_number      1
_space_group_name_Hall           'P 1'
loop_
_symmetry_equiv_pos_site_id
_symmetry_equiv_pos_as_xyz
1 x,y,z
_cell_length_a                   23.604(8)
_cell_length_b                   41.954(12)
_cell_length_c                   11.675(4)
_cell_angle_alpha                90
_cell_angle_beta                 116.908(4)
_cell_angle_gamma                90
_cell_volume                     10309.8
loop_
_atom_site_label
_atom_site_type_symbol
_atom_site_fract_x
_atom_site_fract_y
_atom_site_fract_z
N1 N 0.3325(5) 0.1733(5) 0.0017(11)
H1 H 0.3565 0.1598 0.0650
H4 H 0.4036 0.2008 0.0455
C2 C 0.2872(6) 0.1830(6) 0.0360(14)
H6 H 0.2669 0.1647 0.0506
H8 H 0.3066 0.1955 0.1132
H2 H 0.3109 0.1609 0.9325
C1 C 0.3756(6) 0.1883(7) 0.9732(12)
H3 H 0.3998 0.1727 0.9539
H5 H 0.3538 0.2019 0.9002
H7 H 0.2561 0.1957 0.9683
N1_2 N 0.3325(5) 0.8267(5) 0.5017(11)
H1_2 H 0.3565 0.8402 0.5650
H2_2 H 0.3109 0.8391 0.4325
C1_2 C 0.3756(6) 0.8117(7) 0.4732(12)
H3_2 H 0.3998 0.8273 0.4539
H4_2 H 0.4036 0.7992 0.5455
H5_2 H 0.3538 0.7981 0.4002
C2_2 C 0.2872(6) 0.8170(6) 0.5360(14)
H6_2 H 0.2669 0.8353 0.5506
H7_2 H 0.2561 0.8043 0.4683
H8_2 H 0.3066 0.8045 0.6132
N1_3 N 0.8325(5) 0.6733(5) 0.0017(11)
H1_3 H 0.8565 0.6598 0.0650
H4_3 H 0.9036 0.7008 0.0455
C2_3 C 0.7872(6) 0.6830(6) 0.0360(14)
H6_3 H 0.7669 0.6647 0.0506
H8_3 H 0.8066 0.6955 0.1132
H2_3 H 0.8109 0.6609 0.9325
C1_3 C 0.8756(6) 0.6883(7) 0.9732(12)
H3_3 H 0.8998 0.6727 0.9539
H5_3 H 0.8538 0.7019 0.9002
H7_3 H 0.7561 0.6957 0.9683
N1_4 N 0.8325(5) 0.3267(5) 0.5017(11)
H1_4 H 0.8565 0.3402 0.5650
H2_4 H 0.8109 0.3391 0.4325
C1_4 C 0.8756(6) 0.3117(7) 0.4732(12)
H3_4 H 0.8998 0.3273 0.4539
H4_4 H 0.9036 0.2992 0.5455
H5_4 H 0.8538 0.2981 0.4002
C2_4 C 0.7872(6) 0.3170(6) 0.5360(14)
H6_4 H 0.7669 0.3353 0.5506
H7_4 H 0.7561 0.3043 0.4683
H8_4 H 0.8066 0.3045 0.6132
S1 S 0.00800(10) 0.27882(5) 0.3754(2)
O12 O 0.2031(5) 0.2131(3) 0.1747(9)
H9 H 0.2191 0.2040 0.1340
O22 O 0.0528(3) 0.29984(14) 0.4753(6)
C4 C 0.1446(8) 0.2150(6) 0.1074(18)
C8 C 0.0134(3) 0.21665(15) 0.6444(6)
H12 H 0.0407 0.2117 0.7295
C9 C 0.0287(3) 0.24049(18) 0.5822(7)
H13 H 0.0656 0.2523 0.6272
C11 C 0.0467(4) 0.2336(3) 0.1172(9)
H14 H 0.0233 0.2248 0.0361
C12 C 0.0173(4) 0.2473(3) 0.1818(10)
C13 C 0.0513(3) 0.26030(17) 0.3016(7)
C14 C 0.1151(4) 0.2601(3) 0.3645(9)
H16 H 0.1375 0.2686 0.4466
C15 C 0.1457(4) 0.2464(3) 0.2984(9)
H17 H 0.1898 0.2460 0.3375
C16 C 0.1120(4) 0.2332(2) 0.1748(9)
C19 C 0.0436(4) 0.01612(15) 0.8998(6)
H18 H 0.0701 0.0093 0.9829
C20 C 0.0120(3) 0.04378(17) 0.8804(6)
H19 H 0.0168 0.0560 0.9507
O11 O 0.1194(4) 0.2099(3) 0.9965(10)
S2 S 0.07260(8) 0.95947(4) 0.82010(18)
O23 O 0.1211(2) 0.95741(12) 0.9493(6)
O24 O 0.0886(2) 0.95416(12) 0.7153(5)
C23 C 0.0367(3) 0.99823(15) 0.7982(6)
C26 C 0.0025(3) 0.92505(17) 0.9058(7)
H23 H 0.0324 0.9316 0.9870
C27 C 0.0083(3) 0.93351(14) 0.7993(6)
Mn3 Mn 0.82158(5) 0.171620(13) 0.01443(9)
Mn4 Mn 0.73149(5) 0.14606(2) 0.18611(8)
S5 S 0.70589(11) 0.35254(4) 0.1299(2)
O9 O 0.8131(2) 0.20395(11) 0.1473(4)
O10 O 0.7361(3) 0.19512(10) 0.2004(5)
O29 O 0.7558(3) 0.37083(15) 0.1101(9)
O30 O 0.6871(4) 0.36214(14) 0.2256(5)
C60 C 0.7703(3) 0.21253(15) 0.1740(6)
H42 H 0.5800 0.3397 0.0583
C67 C 0.7300(3) 0.31243(15) 0.1546(7)
C68 C 0.7183(3) 0.25937(16) 0.2178(7)
H46 H 0.7010 0.2455 0.2556
C69 C 0.7034(4) 0.29209(17) 0.2076(8)
H47 H 0.6755 0.2998 0.2372
C70 C 0.7732(4) 0.30122(17) 0.1161(8)
H48 H 0.7921 0.3153 0.0822
C71 C 0.7887(4) 0.26997(17) 0.1266(7)
H49 H 0.8196 0.2629 0.1039
C72 C 0.7582(3) 0.24825(14) 0.1718(6)
O33 O 0.8113(2) 0.13180(9) 0.1382(4)
O34 O 0.7021(3) 0.10030(10) 0.2075(4)
O38 O 0.9758(2) 0.15407(14) 0.0255(4)
O39 O 0.9211(2) 0.16889(10) 0.1309(4)
Mn1 Mn 0.82281(6) 0.122883(14) 0.51320(10)
Mn2 Mn 0.91077(4) 0.14929(2) 0.83268(7)
S3 S 0.57270(7) 0.04146(3) 0.71001(17)
S4 S 0.45295(12) 0.14949(5) 0.3683(2)
O1 O 0.8843(3) 0.16315(12) 0.5838(5)
O2 O 0.9728(3) 0.16830(13) 0.7589(5)
O3 O 0.8968(3) 0.09082(12) 0.6144(4)
O4 O 0.9397(3) 0.10152(11) 0.8246(5)
O5 O 0.8054(2) 0.12824(10) 0.6801(4)
O6 O 0.83195(19) 0.13349(8) 0.8851(4)
O7 O 0.7231(2) 0.16946(10) 0.9065(5)
O8 O 0.6660(2) 0.14580(11) 0.9923(4)
O17 O 0.3722(3) 0.30364(11) 0.2963(5)
O18 O 0.3263(2) 0.28765(10) 0.4117(5)
O19 O 0.4758(2) 0.34593(14) 0.5255(4)
O20 O 0.4211(2) 0.33111(10) 0.6309(4)
O21 O 0.9489(3) 0.29129(14) 0.2774(6)
O25 O 0.5576(2) 0.04800(11) 0.8133(6)
O26 O 0.5234(2) 0.04326(12) 0.5788(5)
O27 O 0.4072(3) 0.12713(12) 0.3691(7)
O28 O 0.4771(4) 0.14700(18) 0.2730(6)
O31 O 0.7434(3) 0.15641(13) 0.4072(5)
C3 C 0.9349(4) 0.17564(14) 0.6362(8)
C5 C 0.9359(3) 0.22960(17) 0.3869(7)
H10 H 0.9105 0.2332 0.2998
C6 C 0.9198(3) 0.20678(15) 0.4496(6)
H11 H 0.8826 0.1952 0.4044
C7 C 0.9574(3) 0.20014(13) 0.5797(5)
C10 C 0.9900(3) 0.24729(16) 0.4533(6)
H15 H 0.9731 0.2478 0.1439
C18 C 0.9333(3) 0.08492(15) 0.7321(6)
C21 C 0.9715(3) 0.05463(14) 0.7554(6)
C22 C 0.9980(4) 0.00779(16) 0.6740(7)
C24 C 0.9671(5) 0.03548(17) 0.6564(7)
H21 H 0.9413 0.0421 0.5727
C31 C 0.4700(3) 0.33999(14) 0.6248(6)
C32 C 0.7955(3) 0.12293(12) 0.7758(5)
C34 C 0.6798(3) 0.07518(13) 0.8464(6)
H26 H 0.6747 0.0688 0.9175
C35 C 0.7324(3) 0.09327(13) 0.8646(6)
H27 H 0.7630 0.0986 0.9468
C36 C 0.7385(3) 0.10337(12) 0.7552(5)
C37 C 0.6923(3) 0.09539(14) 0.6348(6)
H28 H 0.6956 0.1027 0.5629
C38 C 0.6412(3) 0.07677(14) 0.6186(6)
H29 H 0.6109 0.0711 0.5366
C39 C 0.6352(3) 0.06659(12) 0.7261(6)
C42 C 0.6082(3) 0.00393(13) 0.7355(6)
H32 H 0.6519 0.0069 0.9289
C46 C 0.6724(3) 0.15718(15) 0.9000(7)
C47 C 0.3584(3) 0.28297(14) 0.3535(6)
C48 C 0.4448(4) 0.21296(18) 0.3069(7)
H34 H 0.4756 0.2090 0.2796
C49 C 0.4233(4) 0.24251(16) 0.3059(7)
H35 H 0.4404 0.2593 0.2795
C50 C 0.3759(3) 0.24909(13) 0.3430(6)
C51 C 0.3508(3) 0.22461(16) 0.3840(7)
H36 H 0.3199 0.2286 0.4107
C52 C 0.3729(4) 0.19347(16) 0.3845(7)
H37 H 0.3554 0.1764 0.4084
C53 C 0.4200(4) 0.18850(16) 0.3498(7)
C54 C 0.5628(4) 0.14105(19) 0.7485(8)
H38 H 0.5595 0.1330 0.8195
C55 C 0.5102(4) 0.1382(2) 0.6248(9)
H39 H 0.4725 0.1287 0.6136
C56 C 0.5170(4) 0.15005(16) 0.5236(8)
C57 C 0.5753(4) 0.1644(3) 0.5423(9)
H40 H 0.5810 0.1720 0.4734
C58 C 0.6220(4) 0.1667(2) 0.6650(8)
H41 H 0.6595 0.1770 0.6791
C59 C 0.6170(3) 0.15509(15) 0.7650(7)
C61 C 0.5813(4) 0.34254(18) 0.9805(7)
C62 C 0.5272(4) 0.33868(17) 0.8669(6)
H43 H 0.4893 0.3330 0.8677
C63 C 0.5290(3) 0.34331(12) 0.7503(6)
C64 C 0.5862(4) 0.3524(2) 0.7532(9)
H44 H 0.5883 0.3564 0.6769
C65 C 0.6394(4) 0.3554(2) 0.8680(9)
H45 H 0.6779 0.3610 0.8694
C66 C 0.6365(3) 0.35045(14) 0.9789(7)
Mn6 Mn 0.41077(4) 0.35071(2) 0.33268(7)
Mn8 Mn 0.32158(5) 0.328380(13) 0.51443(9)
O32 O 0.8386(2) 0.12714(12) 0.3433(4)
O35 O 0.7543(3) 0.08736(11) 0.4169(4)
O36 O 0.8722(3) 0.19636(11) 0.7963(5)
O37 O 0.8263(2) 0.21235(10) 0.9117(5)
H50 H 0.752833 0.16911 0.346103
H51 H 0.703529 0.144185 0.359015
Mn5 Mn 0.82281(6) 0.877117(14) 0.01320(10)
O13 O 0.8386(2) 0.87286(12) 0.8433(4)
O14 O 0.8113(2) 0.86820(9) 0.6382(4)
O15 O 0.7021(3) 0.89970(10) 0.7075(4)
O16 O 0.7543(3) 0.91264(11) 0.9169(4)
C17 C 0.8501(3) 0.87815(13) 0.7515(5)
H20 H 0.9935 0.9953 0.6044
C25 C 0.9509(3) 0.90648(17) 0.8909(6)
H22 H 0.9460 0.9002 0.9624
C28 C 0.9658(3) 0.92454(14) 0.6767(6)
H24 H 0.9713 0.9306 0.6058
C29 C 0.9150(3) 0.90624(13) 0.6634(5)
H25 H 0.8857 0.8998 0.5816
C30 C 0.9058(3) 0.89712(13) 0.7664(5)
C33 C 0.7135(4) 0.91727(13) 0.8039(6)
C40 C 0.6334(4) 0.95580(13) 0.6526(7)
H30 H 0.6278 0.9427 0.5840
C41 C 0.6001(3) 0.98483(15) 0.6307(6)
H31 H 0.5731 0.9913 0.5474
C43 C 0.6473(3) 0.99422(14) 0.8598(6)
C44 C 0.6801(3) 0.96518(14) 0.8815(6)
H33 H 0.7053 0.9582 0.9650
C45 C 0.6745(3) 0.94690(13) 0.7774(5)
Mn7 Mn 0.82158(5) 0.828380(13) 0.51443(9)
Mn9 Mn 0.73149(5) 0.85394(2) 0.68611(8)
C17_2 C 0.8501(3) 0.12185(13) 0.2515(5)
H20_2 H 0.9935 0.0047 0.1044
C25_2 C 0.9509(3) 0.09352(17) 0.3909(6)
H22_2 H 0.9460 0.0998 0.4624
C28_2 C 0.9658(3) 0.07546(14) 0.1767(6)
H24_2 H 0.9713 0.0694 0.1058
C29_2 C 0.9150(3) 0.09376(13) 0.1634(5)
H25_2 H 0.8857 0.1002 0.0816
C30_2 C 0.9058(3) 0.10288(13) 0.2664(5)
C33_2 C 0.7135(4) 0.08273(13) 0.3039(6)
C40_2 C 0.6334(4) 0.04420(13) 0.1526(7)
H30_2 H 0.6278 0.0573 0.0840
C41_2 C 0.6001(3) 0.01517(15) 0.1307(6)
H31_2 H 0.5731 0.0087 0.0474
C43_2 C 0.6473(3) 0.00578(14) 0.3598(6)
C44_2 C 0.6801(3) 0.03482(14) 0.3815(6)
H33_2 H 0.7053 0.0418 0.4650
C45_2 C 0.6745(3) 0.05310(13) 0.2774(5)
Mn2_2 Mn 0.91077(4) 0.85071(2) 0.33268(7)
S3_2 S 0.57270(7) 0.95854(3) 0.21001(17)
S5_2 S 0.70589(11) 0.64746(4) 0.6299(2)
O1_2 O 0.8843(3) 0.83685(12) 0.0838(5)
O2_2 O 0.9728(3) 0.83170(13) 0.2589(5)
O3_2 O 0.8968(3) 0.90918(12) 0.1144(4)
O4_2 O 0.9397(3) 0.89848(11) 0.3246(5)
O5_2 O 0.8054(2) 0.87176(10) 0.1801(4)
O6_2 O 0.83195(19) 0.86651(8) 0.3851(4)
O7_2 O 0.7231(2) 0.83054(10) 0.4065(5)
O8_2 O 0.6660(2) 0.85420(11) 0.4923(4)
O9_2 O 0.8131(2) 0.79605(11) 0.6473(4)
O10_2 O 0.7361(3) 0.80488(10) 0.7004(5)
O19_2 O 0.4758(2) 0.65407(14) 0.0255(4)
O20_2 O 0.4211(2) 0.66889(10) 0.1309(4)
O25_2 O 0.5576(2) 0.95200(11) 0.3133(6)
O26_2 O 0.5234(2) 0.95674(12) 0.0788(5)
O29_2 O 0.7558(3) 0.62917(15) 0.6101(9)
O30_2 O 0.6871(4) 0.63786(14) 0.7256(5)
C3_2 C 0.9349(4) 0.82436(14) 0.1362(8)
C7_2 C 0.9574(3) 0.79986(13) 0.0797(5)
C18_2 C 0.9333(3) 0.91508(15) 0.2321(6)
C21_2 C 0.9715(3) 0.94537(14) 0.2554(6)
C22_2 C 0.9980(4) 0.99221(16) 0.1740(7)
C24_2 C 0.9671(5) 0.96452(17) 0.1564(7)
H21_2 H 0.9413 0.9579 0.0727
C31_2 C 0.4700(3) 0.66001(14) 0.1248(6)
C32_2 C 0.7955(3) 0.87707(12) 0.2758(5)
C34_2 C 0.6798(3) 0.92482(13) 0.3464(6)
H26_2 H 0.6747 0.9312 0.4175
C35_2 C 0.7324(3) 0.90673(13) 0.3646(6)
H27_2 H 0.7630 0.9014 0.4468
C36_2 C 0.7385(3) 0.89663(12) 0.2552(5)
C37_2 C 0.6923(3) 0.90461(14) 0.1348(6)
H28_2 H 0.6956 0.8973 0.0629
C38_2 C 0.6412(3) 0.92323(14) 0.1186(6)
H29_2 H 0.6109 0.9289 0.0366
C39_2 C 0.6352(3) 0.93341(12) 0.2261(6)
C42_2 C 0.6082(3) 0.99607(13) 0.2355(6)
H32_2 H 0.6519 0.9931 0.4289
C46_2 C 0.6724(3) 0.84282(15) 0.4000(7)
C54_2 C 0.5628(4) 0.85895(19) 0.2485(8)
H38_2 H 0.5595 0.8670 0.3195
C55_2 C 0.5102(4) 0.8618(2) 0.1248(9)
H39_2 H 0.4725 0.8713 0.1136
C56_2 C 0.5170(4) 0.84995(16) 0.0236(8)
C57_2 C 0.5753(4) 0.8356(3) 0.0423(9)
C58_2 C 0.6220(4) 0.8333(2) 0.1650(8)
H41_2 H 0.6595 0.8230 0.1791
C59_2 C 0.6170(3) 0.84491(15) 0.2650(7)
C60_2 C 0.7703(3) 0.78747(15) 0.6740(6)
C61_2 C 0.5813(4) 0.65746(18) 0.4805(7)
H42_2 H 0.5800 0.6603 0.5583
C62_2 C 0.5272(4) 0.66132(17) 0.3669(6)
H43_2 H 0.4893 0.6670 0.3677
C63_2 C 0.5290(3) 0.65669(12) 0.2503(6)
C64_2 C 0.5862(4) 0.6476(2) 0.2532(9)
H44_2 H 0.5883 0.6436 0.1769
C65_2 C 0.6394(4) 0.6446(2) 0.3680(9)
H45_2 H 0.6779 0.6390 0.3694
C66_2 C 0.6365(3) 0.64955(14) 0.4789(7)
C67_2 C 0.7300(3) 0.68757(15) 0.6546(7)
C68_2 C 0.7183(3) 0.74063(16) 0.7178(7)
H46_2 H 0.7010 0.7545 0.7556
C69_2 C 0.7034(4) 0.70791(17) 0.7076(8)
H47_2 H 0.6755 0.7002 0.7372
C70_2 C 0.7732(4) 0.69878(17) 0.6161(8)
H48_2 H 0.7921 0.6847 0.5822
C71_2 C 0.7887(4) 0.73003(17) 0.6266(7)
H49_2 H 0.8196 0.7371 0.6039
C72_2 C 0.7582(3) 0.75175(14) 0.6718(6)
Mn8_2 Mn 0.32158(5) 0.671620(13) 0.01443(9)
O36_2 O 0.8722(3) 0.80364(11) 0.2963(5)
O37_2 O 0.8263(2) 0.78765(10) 0.4117(5)
O38_2 O 0.9758(2) 0.84593(14) 0.5255(4)
O39_2 O 0.9211(2) 0.83111(10) 0.6309(4)
S4_2 S 0.45295(12) 0.85051(5) 0.8683(2)
O17_2 O 0.3722(3) 0.69636(11) 0.7963(5)
O18_2 O 0.3263(2) 0.71235(10) 0.9117(5)
O21_2 O 0.9489(3) 0.70871(14) 0.7774(6)
O27_2 O 0.4072(3) 0.87287(12) 0.8691(7)
O28_2 O 0.4771(4) 0.85300(18) 0.7730(6)
O31_2 O 0.7434(3) 0.84359(13) 0.9072(5)
C5_2 C 0.9359(3) 0.77040(17) 0.8869(7)
H10_2 H 0.9105 0.7668 0.7998
C6_2 C 0.9198(3) 0.79322(15) 0.9496(6)
H11_2 H 0.8826 0.8048 0.9044
C10_2 C 0.9900(3) 0.75271(16) 0.9533(6)
H15_2 H 0.9731 0.7522 0.6439
C47_2 C 0.3584(3) 0.71703(14) 0.8535(6)
C48_2 C 0.4448(4) 0.78704(18) 0.8069(7)
H34_2 H 0.4756 0.7910 0.7796
C49_2 C 0.4233(4) 0.75749(16) 0.8059(7)
H35_2 H 0.4404 0.7407 0.7795
C50_2 C 0.3759(3) 0.75091(13) 0.8430(6)
C51_2 C 0.3508(3) 0.77539(16) 0.8840(7)
H36_2 H 0.3199 0.7714 0.9107
C52_2 C 0.3729(4) 0.80653(16) 0.8845(7)
H37_2 H 0.3554 0.8236 0.9084
C53_2 C 0.4200(4) 0.81150(16) 0.8498(7)
H40_2 H 0.5810 0.8280 0.9734
Mn6_2 Mn 0.41077(4) 0.64929(2) 0.83268(7)
H50_2 H 0.752833 0.83089 0.846103
H51_2 H 0.703529 0.855815 0.859015
Mn4_2 Mn 0.23149(5) 0.64606(2) 0.18611(8)
S5_3 S 0.20589(11) 0.85254(4) 0.1299(2)
O9_3 O 0.3131(2) 0.70395(11) 0.1473(4)
O10_3 O 0.2361(3) 0.69512(10) 0.2004(5)
O29_3 O 0.2558(3) 0.87083(15) 0.1101(9)
O30_3 O 0.1871(4) 0.86214(14) 0.2256(5)
C60_3 C 0.2703(3) 0.71253(15) 0.1740(6)
H42_3 H 0.0800 0.8397 0.0583
C67_3 C 0.2300(3) 0.81243(15) 0.1546(7)
C68_3 C 0.2183(3) 0.75937(16) 0.2178(7)
H46_3 H 0.2010 0.7455 0.2556
C69_3 C 0.2034(4) 0.79209(17) 0.2076(8)
H47_3 H 0.1755 0.7998 0.2372
C70_3 C 0.2732(4) 0.80122(17) 0.1161(8)
H48_3 H 0.2921 0.8153 0.0822
C71_3 C 0.2887(4) 0.76997(17) 0.1266(7)
H49_3 H 0.3196 0.7629 0.1039
C72_3 C 0.2582(3) 0.74825(14) 0.1718(6)
Mn5_2 Mn 0.32281(6) 0.377117(14) 0.01320(10)
O33_2 O 0.3113(2) 0.63180(9) 0.1382(4)
O34_2 O 0.2021(3) 0.60030(10) 0.2075(4)
Mn1_2 Mn 0.32281(6) 0.622883(14) 0.51320(10)
S1_2 S 0.50800(10) 0.77882(5) 0.3754(2)
S2_2 S 0.57260(8) 0.45947(4) 0.82010(18)
S3_3 S 0.07270(7) 0.54146(3) 0.71001(17)
O1_3 O 0.3843(3) 0.66315(12) 0.5838(5)
O2_3 O 0.4728(3) 0.66830(13) 0.7589(5)
O3_3 O 0.3968(3) 0.59082(12) 0.6144(4)
O4_3 O 0.4397(3) 0.60152(11) 0.8246(5)
O5_3 O 0.3054(2) 0.62824(10) 0.6801(4)
O6_3 O 0.33195(19) 0.63349(8) 0.8851(4)
O7_3 O 0.2231(2) 0.66946(10) 0.9065(5)
O8_3 O 0.1660(2) 0.64580(11) 0.9923(4)
O12_2 O 0.7031(5) 0.7131(3) 0.1747(9)
H9_2 H 0.7191 0.7040 0.1340
O13_2 O 0.3386(2) 0.37286(12) 0.8433(4)
O14_2 O 0.3113(2) 0.36820(9) 0.6382(4)
O15_2 O 0.2021(3) 0.39970(10) 0.7075(4)
O16_2 O 0.2543(3) 0.41264(11) 0.9169(4)
O21_3 O 0.4489(3) 0.79129(14) 0.2774(6)
O22_2 O 0.5528(3) 0.79984(14) 0.4753(6)
O23_2 O 0.6211(2) 0.45741(12) 0.9493(6)
O24_2 O 0.5886(2) 0.45416(12) 0.7153(5)
O25_3 O 0.0576(2) 0.54800(11) 0.8133(6)
O26_3 O 0.0234(2) 0.54326(12) 0.5788(5)
O31_3 O 0.2434(3) 0.65641(13) 0.4072(5)
C3_3 C 0.4349(4) 0.67564(14) 0.6362(8)
C4_2 C 0.6446(8) 0.7150(6) 0.1074(18)
C5_3 C 0.4359(3) 0.72960(17) 0.3869(7)
H10_3 H 0.4105 0.7332 0.2998
C6_3 C 0.4198(3) 0.70678(15) 0.4496(6)
H11_3 H 0.3826 0.6952 0.4044
C7_3 C 0.4574(3) 0.70014(13) 0.5797(5)
C8_2 C 0.5134(3) 0.71665(15) 0.6444(6)
H12_2 H 0.5407 0.7117 0.7295
C9_2 C 0.5287(3) 0.74049(18) 0.5822(7)
H13_2 H 0.5656 0.7523 0.6272
C10_3 C 0.4900(3) 0.74729(16) 0.4533(6)
C11_2 C 0.5467(4) 0.7336(3) 0.1172(9)
H14_2 H 0.5233 0.7248 0.0361
C12_2 C 0.5173(4) 0.7473(3) 0.1818(10)
H15_3 H 0.4731 0.7478 0.1439
C13_2 C 0.5513(3) 0.76030(17) 0.3016(7)
C14_2 C 0.6151(4) 0.7601(3) 0.3645(9)
H16_2 H 0.6375 0.7686 0.4466
C15_2 C 0.6457(4) 0.7464(3) 0.2984(9)
H17_2 H 0.6898 0.7460 0.3375
C16_2 C 0.6120(4) 0.7332(2) 0.1748(9)
C17_3 C 0.3501(3) 0.37815(13) 0.7515(5)
C18_3 C 0.4333(3) 0.58492(15) 0.7321(6)
C19_2 C 0.5436(4) 0.51612(15) 0.8998(6)
H18_2 H 0.5701 0.5093 0.9829
C20_2 C 0.5120(3) 0.54378(17) 0.8804(6)
H19_2 H 0.5168 0.5560 0.9507
C21_3 C 0.4715(3) 0.55463(14) 0.7554(6)
C22_3 C 0.4980(4) 0.50779(16) 0.6740(7)
H20_3 H 0.4935 0.4953 0.6044
C23_2 C 0.5367(3) 0.49823(15) 0.7982(6)
C24_3 C 0.4671(5) 0.53548(17) 0.6564(7)
H21_3 H 0.4413 0.5421 0.5727
C25_3 C 0.4509(3) 0.40648(17) 0.8909(6)
H22_3 H 0.4460 0.4002 0.9624
C26_2 C 0.5025(3) 0.42505(17) 0.9058(7)
H23_2 H 0.5324 0.4316 0.9870
C27_2 C 0.5083(3) 0.43351(14) 0.7993(6)
C28_3 C 0.4658(3) 0.42454(14) 0.6767(6)
H24_3 H 0.4713 0.4306 0.6058
C29_3 C 0.4150(3) 0.40624(13) 0.6634(5)
H25_3 H 0.3857 0.3998 0.5816
C30_3 C 0.4058(3) 0.39712(13) 0.7664(5)
C32_3 C 0.2955(3) 0.62293(12) 0.7758(5)
C33_3 C 0.2135(4) 0.41727(13) 0.8039(6)
C34_3 C 0.1798(3) 0.57518(13) 0.8464(6)
H26_3 H 0.1747 0.5688 0.9175
C35_3 C 0.2324(3) 0.59327(13) 0.8646(6)
H27_3 H 0.2630 0.5986 0.9468
C36_3 C 0.2385(3) 0.60337(12) 0.7552(5)
C37_3 C 0.1923(3) 0.59539(14) 0.6348(6)
H28_3 H 0.1956 0.6027 0.5629
C38_3 C 0.1412(3) 0.57677(14) 0.6186(6)
H29_3 H 0.1109 0.5711 0.5366
C39_3 C 0.1352(3) 0.56659(12) 0.7261(6)
C40_3 C 0.1334(4) 0.45580(13) 0.6526(7)
H30_3 H 0.1278 0.4427 0.5840
C41_3 C 0.1001(3) 0.48483(15) 0.6307(6)
H31_3 H 0.0731 0.4913 0.5474
C42_3 C 0.1082(3) 0.50393(13) 0.7355(6)
C43_3 C 0.1473(3) 0.49422(14) 0.8598(6)
H32_3 H 0.1519 0.5069 0.9289
C44_3 C 0.1801(3) 0.46518(14) 0.8815(6)
H33_3 H 0.2053 0.4582 0.9650
C45_3 C 0.1745(3) 0.44690(13) 0.7774(5)
C46_3 C 0.1724(3) 0.65718(15) 0.9000(7)
C54_3 C 0.0628(4) 0.64105(19) 0.7485(8)
H38_3 H 0.0595 0.6330 0.8195
C55_3 C 0.0102(4) 0.6382(2) 0.6248(9)
C56_3 C 0.0170(4) 0.65005(16) 0.5236(8)
C57_3 C 0.0753(4) 0.6644(3) 0.5423(9)
H40_3 H 0.0810 0.6720 0.4734
C58_3 C 0.1220(4) 0.6667(2) 0.6650(8)
H41_3 H 0.1595 0.6770 0.6791
C59_3 C 0.1170(3) 0.65509(15) 0.7650(7)
C61_3 C 0.0813(4) 0.84254(18) 0.9805(7)
C62_3 C 0.0272(4) 0.83868(17) 0.8669(6)
C63_3 C 0.0290(3) 0.84331(12) 0.7503(6)
C64_3 C 0.0862(4) 0.8524(2) 0.7532(9)
H44_3 H 0.0883 0.8564 0.6769
C65_3 C 0.1394(4) 0.8554(2) 0.8680(9)
H45_3 H 0.1779 0.8610 0.8694
C66_3 C 0.1365(3) 0.85045(14) 0.9789(7)
Mn9_2 Mn 0.23149(5) 0.35394(2) 0.68611(8)
O32_2 O 0.3386(2) 0.62714(12) 0.3433(4)
O35_2 O 0.2543(3) 0.58736(11) 0.4169(4)
H50_3 H 0.252833 0.66911 0.346103
H51_3 H 0.203529 0.644185 0.359015
S4_3 S 0.95295(12) 0.64949(5) 0.3683(2)
O27_3 O 0.9072(3) 0.62713(12) 0.3691(7)
O28_3 O 0.9771(4) 0.64700(18) 0.2730(6)
C31_3 C 0.9700(3) 0.83999(14) 0.6248(6)
C47_3 C 0.8584(3) 0.78297(14) 0.3535(6)
C48_3 C 0.9448(4) 0.71296(18) 0.3069(7)
H34_3 H 0.9756 0.7090 0.2796
C49_3 C 0.9233(4) 0.74251(16) 0.3059(7)
H35_3 H 0.9404 0.7593 0.2795
C50_3 C 0.8759(3) 0.74909(13) 0.3430(6)
C51_3 C 0.8508(3) 0.72461(16) 0.3840(7)
H36_3 H 0.8199 0.7286 0.4107
C52_3 C 0.8729(4) 0.69347(16) 0.3845(7)
H37_3 H 0.8554 0.6764 0.4084
C53_3 C 0.9200(4) 0.68850(16) 0.3498(7)
H39_3 H 0.9725 0.6287 0.6136
H43_3 H 0.9893 0.8330 0.8677
S2_3 S 0.57260(8) 0.54053(4) 0.32010(18)
S3_4 S 0.07270(7) 0.45854(3) 0.21001(17)
S5_4 S 0.20589(11) 0.14746(4) 0.6299(2)
O1_4 O 0.3843(3) 0.33685(12) 0.0838(5)
O2_4 O 0.4728(3) 0.33170(13) 0.2589(5)
O3_4 O 0.3968(3) 0.40918(12) 0.1144(4)
O4_4 O 0.4397(3) 0.39848(11) 0.3246(5)
O5_4 O 0.3054(2) 0.37176(10) 0.1801(4)
O6_4 O 0.33195(19) 0.36651(8) 0.3851(4)
O7_4 O 0.2231(2) 0.33054(10) 0.4065(5)
O8_4 O 0.1660(2) 0.35420(11) 0.4923(4)
O9_4 O 0.3131(2) 0.29605(11) 0.6473(4)
O10_4 O 0.2361(3) 0.30488(10) 0.7004(5)
O23_3 O 0.6211(2) 0.54259(12) 0.4493(6)
O24_3 O 0.5886(2) 0.54584(12) 0.2153(5)
O25_4 O 0.0576(2) 0.45200(11) 0.3133(6)
O26_4 O 0.0234(2) 0.45674(12) 0.0788(5)
O29_4 O 0.2558(3) 0.12917(15) 0.6101(9)
O30_4 O 0.1871(4) 0.13786(14) 0.7256(5)
C3_4 C 0.4349(4) 0.32436(14) 0.1362(8)
C7_4 C 0.4574(3) 0.29986(13) 0.0797(5)
C8_3 C 0.5134(3) 0.28335(15) 0.1444(6)
H12_3 H 0.5407 0.2883 0.2295
C9_3 C 0.5287(3) 0.25951(18) 0.0822(7)
H13_3 H 0.5656 0.2477 0.1272
C17_4 C 0.3501(3) 0.62185(13) 0.2515(5)
C18_4 C 0.4333(3) 0.41508(15) 0.2321(6)
C19_3 C 0.5436(4) 0.48388(15) 0.3998(6)
H18_3 H 0.5701 0.4907 0.4829
C20_3 C 0.5120(3) 0.45622(17) 0.3804(6)
H19_3 H 0.5168 0.4440 0.4507
C21_4 C 0.4715(3) 0.44537(14) 0.2554(6)
C22_4 C 0.4980(4) 0.49221(16) 0.1740(7)
H20_4 H 0.4935 0.5047 0.1044
C23_3 C 0.5367(3) 0.50177(15) 0.2982(6)
C24_4 C 0.4671(5) 0.46452(17) 0.1564(7)
H21_4 H 0.4413 0.4579 0.0727
C25_4 C 0.4509(3) 0.59352(17) 0.3909(6)
H22_4 H 0.4460 0.5998 0.4624
C26_3 C 0.5025(3) 0.57495(17) 0.4058(7)
H23_3 H 0.5324 0.5684 0.4870
C27_3 C 0.5083(3) 0.56649(14) 0.2993(6)
C28_4 C 0.4658(3) 0.57546(14) 0.1767(6)
H24_4 H 0.4713 0.5694 0.1058
C29_4 C 0.4150(3) 0.59376(13) 0.1634(5)
H25_4 H 0.3857 0.6002 0.0816
C30_4 C 0.4058(3) 0.60288(13) 0.2664(5)
C32_4 C 0.2955(3) 0.37707(12) 0.2758(5)
C33_4 C 0.2135(4) 0.58273(13) 0.3039(6)
C34_4 C 0.1798(3) 0.42482(13) 0.3464(6)
H26_4 H 0.1747 0.4312 0.4175
C35_4 C 0.2324(3) 0.40673(13) 0.3646(6)
H27_4 H 0.2630 0.4014 0.4468
C36_4 C 0.2385(3) 0.39663(12) 0.2552(5)
C37_4 C 0.1923(3) 0.40461(14) 0.1348(6)
H28_4 H 0.1956 0.3973 0.0629
C38_4 C 0.1412(3) 0.42323(14) 0.1186(6)
H29_4 H 0.1109 0.4289 0.0366
C39_4 C 0.1352(3) 0.43341(12) 0.2261(6)
C40_4 C 0.1334(4) 0.54420(13) 0.1526(7)
H30_4 H 0.1278 0.5573 0.0840
C41_4 C 0.1001(3) 0.51517(15) 0.1307(6)
H31_4 H 0.0731 0.5087 0.0474
C42_4 C 0.1082(3) 0.49607(13) 0.2355(6)
C43_4 C 0.1473(3) 0.50578(14) 0.3598(6)
H32_4 H 0.1519 0.4931 0.4289
C44_4 C 0.1801(3) 0.53482(14) 0.3815(6)
H33_4 H 0.2053 0.5418 0.4650
C45_4 C 0.1745(3) 0.55310(13) 0.2774(5)
C46_4 C 0.1724(3) 0.34282(15) 0.4000(7)
C54_4 C 0.0628(4) 0.35895(19) 0.2485(8)
H38_4 H 0.0595 0.3670 0.3195
C55_4 C 0.0102(4) 0.3618(2) 0.1248(9)
C56_4 C 0.0170(4) 0.34995(16) 0.0236(8)
C57_4 C 0.0753(4) 0.3356(3) 0.0423(9)
C58_4 C 0.1220(4) 0.3333(2) 0.1650(8)
H41_4 H 0.1595 0.3230 0.1791
C59_4 C 0.1170(3) 0.34491(15) 0.2650(7)
C60_4 C 0.2703(3) 0.28747(15) 0.6740(6)
C61_4 C 0.0813(4) 0.15746(18) 0.4805(7)
H42_4 H 0.0800 0.1603 0.5583
C62_4 C 0.0272(4) 0.16132(17) 0.3669(6)
C63_4 C 0.0290(3) 0.15669(12) 0.2503(6)
C64_4 C 0.0862(4) 0.1476(2) 0.2532(9)
H44_4 H 0.0883 0.1436 0.1769
C65_4 C 0.1394(4) 0.1446(2) 0.3680(9)
H45_4 H 0.1779 0.1390 0.3694
C66_4 C 0.1365(3) 0.14955(14) 0.4789(7)
C67_4 C 0.2300(3) 0.18757(15) 0.6546(7)
C68_4 C 0.2183(3) 0.24063(16) 0.7178(7)
H46_4 H 0.2010 0.2545 0.7556
C69_4 C 0.2034(4) 0.20791(17) 0.7076(8)
H47_4 H 0.1755 0.2002 0.7372
C70_4 C 0.2732(4) 0.19878(17) 0.6161(8)
H48_4 H 0.2921 0.1847 0.5822
C71_4 C 0.2887(4) 0.23003(17) 0.6266(7)
H49_4 H 0.3196 0.2371 0.6039
C72_4 C 0.2582(3) 0.25175(14) 0.6718(6)
S1_3 S 0.50800(10) 0.22118(5) 0.8754(2)
O11_2 O 0.6194(4) 0.2901(3) 0.4965(10)
O12_3 O 0.7031(5) 0.2869(3) 0.6747(9)
H9_3 H 0.7191 0.2960 0.6340
O21_4 O 0.4489(3) 0.20871(14) 0.7774(6)
O22_3 O 0.5528(3) 0.20016(14) 0.9753(6)
O31_4 O 0.2434(3) 0.34359(13) 0.9072(5)
C4_3 C 0.6446(8) 0.2850(6) 0.6074(18)
C5_4 C 0.4359(3) 0.27040(17) 0.8869(7)
H10_4 H 0.4105 0.2668 0.7998
C6_4 C 0.4198(3) 0.29322(15) 0.9496(6)
H11_4 H 0.3826 0.3048 0.9044
C10_4 C 0.4900(3) 0.25271(16) 0.9533(6)
C11_3 C 0.5467(4) 0.2664(3) 0.6172(9)
H14_3 H 0.5233 0.2752 0.5361
C12_3 C 0.5173(4) 0.2527(3) 0.6818(10)
H15_4 H 0.4731 0.2522 0.6439
C13_3 C 0.5513(3) 0.23970(17) 0.8016(7)
C14_3 C 0.6151(4) 0.2399(3) 0.8645(9)
H16_3 H 0.6375 0.2314 0.9466
C15_3 C 0.6457(4) 0.2536(3) 0.7984(9)
H17_3 H 0.6898 0.2540 0.8375
C16_3 C 0.6120(4) 0.2668(2) 0.6748(9)
H40_4 H 0.0810 0.3280 0.9734
H50_4 H 0.252833 0.33089 0.846103
H51_4 H 0.203529 0.355815 0.859015
C31_4 C 0.9700(3) 0.16001(14) 0.1248(6)
H39_4 H 0.9725 0.3713 0.1136
H43_4 H 0.9893 0.1670 0.3677
S4_4 S 0.95295(12) 0.35051(5) 0.8683(2)
O27_4 O 0.9072(3) 0.37287(12) 0.8691(7)
O28_4 O 0.9771(4) 0.35300(18) 0.7730(6)
C47_4 C 0.8584(3) 0.21703(14) 0.8535(6)
C48_4 C 0.9448(4) 0.28704(18) 0.8069(7)
H34_4 H 0.9756 0.2910 0.7796
C49_4 C 0.9233(4) 0.25749(16) 0.8059(7)
H35_4 H 0.9404 0.2407 0.7795
C50_4 C 0.8759(3) 0.25091(13) 0.8430(6)
C51_4 C 0.8508(3) 0.27539(16) 0.8840(7)
H36_4 H 0.8199 0.2714 0.9107
C52_4 C 0.8729(4) 0.30653(16) 0.8845(7)
H37_4 H 0.8554 0.3236 0.9084
C53_4 C 0.9200(4) 0.31150(16) 0.8498(7)
S2_4 S 0.07260(8) 0.04053(4) 0.32010(18)
O23_4 O 0.1211(2) 0.04259(12) 0.4493(6)
O24_4 O 0.0886(2) 0.04584(12) 0.2153(5)
C23_4 C 0.0367(3) 0.00177(15) 0.2982(6)
C26_4 C 0.0025(3) 0.07495(17) 0.4058(7)
H23_4 H 0.0324 0.0684 0.4870
C27_4 C 0.0083(3) 0.06649(14) 0.2993(6)
C8_4 C 0.0134(3) 0.78335(15) 0.1444(6)
H12_4 H 0.0407 0.7883 0.2295
C9_4 C 0.0287(3) 0.75951(18) 0.0822(7)
H13_4 H 0.0656 0.7477 0.1272
C19_4 C 0.0436(4) 0.98388(15) 0.3998(6)
H18_4 H 0.0701 0.9907 0.4829
C20_4 C 0.0120(3) 0.95622(17) 0.3804(6)
H19_4 H 0.0168 0.9440 0.4507
S1_4 S 0.00800(10) 0.72118(5) 0.8754(2)
O11_3 O 0.1194(4) 0.7901(3) 0.4965(10)
O12_4 O 0.2031(5) 0.7869(3) 0.6747(9)
H9_4 H 0.2191 0.7960 0.6340
O22_4 O 0.0528(3) 0.70016(14) 0.9753(6)
C4_4 C 0.1446(8) 0.7850(6) 0.6074(18)
C11_4 C 0.0467(4) 0.7664(3) 0.6172(9)
H14_4 H 0.0233 0.7752 0.5361
C12_4 C 0.0173(4) 0.7527(3) 0.6818(10)
C13_4 C 0.0513(3) 0.73970(17) 0.8016(7)
C14_4 C 0.1151(4) 0.7399(3) 0.8645(9)
H16_4 H 0.1375 0.7314 0.9466
C15_4 C 0.1457(4) 0.7536(3) 0.7984(9)
H17_4 H 0.1898 0.7540 0.8375
C16_4 C 0.1120(4) 0.7668(2) 0.6748(9)
O11_4 O 0.6194(4) 0.7099(3) 0.9965(10)
loop_
_geom_bond_atom_site_label_1
_geom_bond_atom_site_label_2
_geom_bond_site_symmetry_1
_geom_bond_site_symmetry_2
N1 H1 1_555 1_555
C2 N1 1_555 1_555
H6 C2 1_555 1_555
H8 C2 1_555 1_555
H3 C1 1_555 1_555
H5 C1 1_555 1_555
N1_2 H1_2 1_555 1_555
H2_2 N1_2 1_555 1_555
C1_2 N1_2 1_555 1_555
H3_2 C1_2 1_555 1_555
H4_2 C1_2 1_555 1_555
H5_2 C1_2 1_555 1_555
C2_2 N1_2 1_555 1_555
H6_2 C2_2 1_555 1_555
H7_2 C2_2 1_555 1_555
H8_2 C2_2 1_555 1_555
N1_3 H1_3 1_555 1_555
C2_3 N1_3 1_555 1_555
H6_3 C2_3 1_555 1_555
H8_3 C2_3 1_555 1_555
H3_3 C1_3 1_555 1_555
H5_3 C1_3 1_555 1_555
N1_4 H1_4 1_555 1_555
H2_4 N1_4 1_555 1_555
C1_4 N1_4 1_555 1_555
H3_4 C1_4 1_555 1_555
H4_4 C1_4 1_555 1_555
H5_4 C1_4 1_555 1_555
C2_4 N1_4 1_555 1_555
H6_4 C2_4 1_555 1_555
H7_4 C2_4 1_555 1_555
H8_4 C2_4 1_555 1_555
O12 H9 1_555 1_555
O22 S1 1_555 1_555
C4 O12 1_555 1_555
H12 C8 1_555 1_555
C9 C8 1_555 1_555
H13 C9 1_555 1_555
C11 H14 1_555 1_555
C12 C11 1_555 1_555
C13 S1 1_555 1_555
C14 C13 1_555 1_555
H16 C14 1_555 1_555
C15 C14 1_555 1_555
H17 C15 1_555 1_555
C16 C4 1_555 1_555
C19 H18 1_555 1_555
C20 C19 1_555 1_555
H19 C20 1_555 1_555
C11 C16 1_555 1_555
C12 C13 1_555 1_555
C15 C16 1_555 1_555
S2 O23 1_555 1_555
O24 S2 1_555 1_555
C23 S2 1_555 1_555
H23 C26 1_555 1_555
C27 S2 1_555 1_555
C26 C27 1_555 1_555
S5 O29 1_555 1_555
O9 Mn3 1_555 1_555
O10 Mn4 1_555 1_555
O30 S5 1_555 1_555
C60 O9 1_555 1_555
C67 S5 1_555 1_555
C68 H46 1_555 1_555
C69 C67 1_555 1_555
H47 C69 1_555 1_555
C70 C67 1_555 1_555
H48 C70 1_555 1_555
C71 C70 1_555 1_555
H49 C71 1_555 1_555
C72 C60 1_555 1_555
O33 Mn3 1_555 1_555
O34 Mn4 1_555 1_555
O39 Mn3 1_555 1_555
Mn4 O33 1_555 1_555
O10 C60 1_555 1_555
C68 C69 1_555 1_555
C68 C72 1_555 1_555
C71 C72 1_555 1_555
Mn1 O1 1_555 1_555
Mn2 O2 1_555 1_555
S3 O25 1_555 1_555
S4 O27 1_555 1_555
O1 C3 1_555 1_555
O2 C3 1_555 1_555
O3 Mn1 1_555 1_555
O4 Mn2 1_555 1_555
O5 Mn1 1_555 1_555
O6 Mn2 1_555 1_555
O8 C46 1_555 1_555
O17 C47 1_555 1_555
O18 C47 1_555 1_555
O19 C31 1_555 1_555
O20 C31 1_555 1_555
O26 S3 1_555 1_555
O28 S4 1_555 1_555
O31 Mn1 1_555 1_555
C3 C7 1_555 1_555
C5 H10 1_555 1_555
C6 C5 1_555 1_555
H11 C6 1_555 1_555
C7 C6 1_555 1_555
C18 O3 1_555 1_555
C21 C18 1_555 1_555
C24 C21 1_555 1_555
H21 C24 1_555 1_555
C31 C63 1_555 1_555
C32 O5 1_555 1_555
C34 H26 1_555 1_555
C35 C34 1_555 1_555
H27 C35 1_555 1_555
C36 C32 1_555 1_555
C37 C36 1_555 1_555
H28 C37 1_555 1_555
C38 C37 1_555 1_555
H29 C38 1_555 1_555
C39 S3 1_555 1_555
C42 S3 1_555 1_555
C46 O7 1_555 1_555
C47 C50 1_555 1_555
C48 H34 1_555 1_555
C49 C48 1_555 1_555
H35 C49 1_555 1_555
C50 C49 1_555 1_555
C51 C50 1_555 1_555
H36 C51 1_555 1_555
C52 C51 1_555 1_555
H37 C52 1_555 1_555
C53 S4 1_555 1_555
C54 H38 1_555 1_555
C55 C54 1_555 1_555
H39 C55 1_555 1_555
C56 S4 1_555 1_555
C57 C56 1_555 1_555
H40 C57 1_555 1_555
C58 C57 1_555 1_555
H41 C58 1_555 1_555
C59 C46 1_555 1_555
C62 C61 1_555 1_555
H43 C62 1_555 1_555
C63 C62 1_555 1_555
C64 C63 1_555 1_555
H44 C64 1_555 1_555
C65 C64 1_555 1_555
H45 C65 1_555 1_555
Mn6 O17 1_555 1_555
Mn8 O18 1_555 1_555
O32 Mn1 1_555 1_555
O35 Mn1 1_555 1_555
O36 Mn2 1_555 1_555
Mn2 O5 1_555 1_555
O4 C18 1_555 1_555
O6 C32 1_555 1_555
O19 Mn6 1_555 1_555
O20 Mn8 1_555 1_555
C5 C10 1_555 1_555
C22 C24 1_555 1_555
C34 C39 1_555 1_555
C35 C36 1_555 1_555
C38 C39 1_555 1_555
C48 C53 1_555 1_555
C52 C53 1_555 1_555
C54 C59 1_555 1_555
C55 C56 1_555 1_555
C58 C59 1_555 1_555
C61 C66 1_555 1_555
C65 C66 1_555 1_555
O31 H50 1_555 1_555
O31 H51 1_555 1_555
O13 C17 1_555 1_555
O14 C17 1_555 1_555
O15 C33 1_555 1_555
O16 C33 1_555 1_555
C17 C30 1_555 1_555
C25 H22 1_555 1_555
H24 C28 1_555 1_555
C29 C28 1_555 1_555
H25 C29 1_555 1_555
C30 C25 1_555 1_555
C33 C45 1_555 1_555
C40 H30 1_555 1_555
C41 C40 1_555 1_555
H31 C41 1_555 1_555
C44 C43 1_555 1_555
H33 C44 1_555 1_555
C45 C40 1_555 1_555
Mn7 O14 1_555 1_555
Mn9 O14 1_555 1_555
O15 Mn9 1_555 1_555
C29 C30 1_555 1_555
C44 C45 1_555 1_555
O32 C17_2 1_555 1_555
O33 C17_2 1_555 1_555
O34 C33_2 1_555 1_555
O35 C33_2 1_555 1_555
C17_2 C30_2 1_555 1_555
C25_2 H22_2 1_555 1_555
H24_2 C28_2 1_555 1_555
C29_2 C28_2 1_555 1_555
H25_2 C29_2 1_555 1_555
C30_2 C25_2 1_555 1_555
C33_2 C45_2 1_555 1_555
C40_2 H30_2 1_555 1_555
C41_2 C40_2 1_555 1_555
H31_2 C41_2 1_555 1_555
C44_2 C43_2 1_555 1_555
H33_2 C44_2 1_555 1_555
C45_2 C40_2 1_555 1_555
C29_2 C30_2 1_555 1_555
C44_2 C45_2 1_555 1_555
Mn5 O1_2 1_555 1_555
Mn2_2 O2_2 1_555 1_555
Mn7 O6_2 1_555 1_555
Mn9 O8_2 1_555 1_555
S3_2 O25_2 1_555 1_555
S5_2 O29_2 1_555 1_555
O1_2 C3_2 1_555 1_555
O2_2 C3_2 1_555 1_555
O3_2 Mn5 1_555 1_555
O4_2 Mn2_2 1_555 1_555
O5_2 Mn5 1_555 1_555
O6_2 Mn2_2 1_555 1_555
O7_2 Mn7 1_555 1_555
O8_2 C46_2 1_555 1_555
O9_2 Mn7 1_555 1_555
O10_2 Mn9 1_555 1_555
O19_2 C31_2 1_555 1_555
O20_2 C31_2 1_555 1_555
O26_2 S3_2 1_555 1_555
O30_2 S5_2 1_555 1_555
C3_2 C7_2 1_555 1_555
C18_2 O3_2 1_555 1_555
C21_2 C18_2 1_555 1_555
C24_2 C21_2 1_555 1_555
H21_2 C24_2 1_555 1_555
C31_2 C63_2 1_555 1_555
C32_2 O5_2 1_555 1_555
C34_2 H26_2 1_555 1_555
C35_2 C34_2 1_555 1_555
H27_2 C35_2 1_555 1_555
C36_2 C32_2 1_555 1_555
C37_2 C36_2 1_555 1_555
H28_2 C37_2 1_555 1_555
C38_2 C37_2 1_555 1_555
H29_2 C38_2 1_555 1_555
C39_2 S3_2 1_555 1_555
C42_2 S3_2 1_555 1_555
C46_2 O7_2 1_555 1_555
C54_2 H38_2 1_555 1_555
C55_2 C54_2 1_555 1_555
H39_2 C55_2 1_555 1_555
C57_2 C56_2 1_555 1_555
C58_2 C57_2 1_555 1_555
H41_2 C58_2 1_555 1_555
C59_2 C46_2 1_555 1_555
C60_2 O9_2 1_555 1_555
C61_2 H42_2 1_555 1_555
C62_2 C61_2 1_555 1_555
H43_2 C62_2 1_555 1_555
C63_2 C62_2 1_555 1_555
C64_2 C63_2 1_555 1_555
H44_2 C64_2 1_555 1_555
C65_2 C64_2 1_555 1_555
H45_2 C65_2 1_555 1_555
C66_2 S5_2 1_555 1_555
C67_2 S5_2 1_555 1_555
C68_2 H46_2 1_555 1_555
C69_2 C67_2 1_555 1_555
H47_2 C69_2 1_555 1_555
C70_2 C67_2 1_555 1_555
H48_2 C70_2 1_555 1_555
C71_2 C70_2 1_555 1_555
H49_2 C71_2 1_555 1_555
C72_2 C60_2 1_555 1_555
O36_2 Mn2_2 1_555 1_555
O37_2 Mn7 1_555 1_555
O38_2 Mn2_2 1_555 1_555
O39_2 Mn7 1_555 1_555
Mn2_2 O5_2 1_555 1_555
O4_2 C18_2 1_555 1_555
O6_2 C32_2 1_555 1_555
O10_2 C60_2 1_555 1_555
O20_2 Mn8_2 1_555 1_555
C22_2 C24_2 1_555 1_555
C34_2 C39_2 1_555 1_555
C35_2 C36_2 1_555 1_555
C38_2 C39_2 1_555 1_555
C54_2 C59_2 1_555 1_555
C55_2 C56_2 1_555 1_555
C58_2 C59_2 1_555 1_555
C61_2 C66_2 1_555 1_555
C65_2 C66_2 1_555 1_555
C68_2 C69_2 1_555 1_555
C68_2 C72_2 1_555 1_555
C71_2 C72_2 1_555 1_555
S4_2 O27_2 1_555 1_555
O17_2 C47_2 1_555 1_555
O18_2 C47_2 1_555 1_555
O28_2 S4_2 1_555 1_555
C5_2 H10_2 1_555 1_555
C6_2 C5_2 1_555 1_555
H11_2 C6_2 1_555 1_555
C47_2 C50_2 1_555 1_555
C48_2 H34_2 1_555 1_555
C49_2 C48_2 1_555 1_555
H35_2 C49_2 1_555 1_555
C50_2 C49_2 1_555 1_555
C51_2 C50_2 1_555 1_555
H36_2 C51_2 1_555 1_555
C52_2 C51_2 1_555 1_555
H37_2 C52_2 1_555 1_555
C53_2 S4_2 1_555 1_555
Mn6_2 O17_2 1_555 1_555
C5_2 C10_2 1_555 1_555
C48_2 C53_2 1_555 1_555
C52_2 C53_2 1_555 1_555
O31_2 H50_2 1_555 1_555
O31_2 H51_2 1_555 1_555
S5_3 O29_3 1_555 1_555
O9_3 Mn8_2 1_555 1_555
O10_3 Mn4_2 1_555 1_555
O30_3 S5_3 1_555 1_555
C60_3 O9_3 1_555 1_555
C67_3 S5_3 1_555 1_555
C68_3 H46_3 1_555 1_555
C69_3 C67_3 1_555 1_555
H47_3 C69_3 1_555 1_555
C70_3 C67_3 1_555 1_555
H48_3 C70_3 1_555 1_555
C71_3 C70_3 1_555 1_555
H49_3 C71_3 1_555 1_555
C72_3 C60_3 1_555 1_555
O33_2 Mn8_2 1_555 1_555
O34_2 Mn4_2 1_555 1_555
Mn4_2 O33_2 1_555 1_555
O10_3 C60_3 1_555 1_555
C68_3 C69_3 1_555 1_555
C68_3 C72_3 1_555 1_555
C71_3 C72_3 1_555 1_555
Mn1_2 O1_3 1_555 1_555
Mn6_2 O2_3 1_555 1_555
S1_2 O21_3 1_555 1_555
S2_2 O23_2 1_555 1_555
S3_3 O25_3 1_555 1_555
O1_3 C3_3 1_555 1_555
O2_3 C3_3 1_555 1_555
O3_3 Mn1_2 1_555 1_555
O4_3 Mn6_2 1_555 1_555
O5_3 Mn1_2 1_555 1_555
O6_3 Mn6_2 1_555 1_555
O8_3 C46_3 1_555 1_555
O12_2 H9_2 1_555 1_555
O13_2 C17_3 1_555 1_555
O14_2 C17_3 1_555 1_555
O15_2 C33_3 1_555 1_555
O16_2 C33_3 1_555 1_555
O22_2 S1_2 1_555 1_555
O24_2 S2_2 1_555 1_555
O26_3 S3_3 1_555 1_555
O31_3 Mn1_2 1_555 1_555
C3_3 C7_3 1_555 1_555
C4_2 O12_2 1_555 1_555
C5_3 H10_3 1_555 1_555
C6_3 C5_3 1_555 1_555
H11_3 C6_3 1_555 1_555
C7_3 C6_3 1_555 1_555
C8_2 C7_3 1_555 1_555
H12_2 C8_2 1_555 1_555
C9_2 C8_2 1_555 1_555
H13_2 C9_2 1_555 1_555
C10_3 S1_2 1_555 1_555
C11_2 H14_2 1_555 1_555
C12_2 C11_2 1_555 1_555
H15_3 C12_2 1_555 1_555
C13_2 S1_2 1_555 1_555
C14_2 C13_2 1_555 1_555
H16_2 C14_2 1_555 1_555
C15_2 C14_2 1_555 1_555
H17_2 C15_2 1_555 1_555
C16_2 C4_2 1_555 1_555
C17_3 C30_3 1_555 1_555
C18_3 O3_3 1_555 1_555
C19_2 H18_2 1_555 1_555
C20_2 C19_2 1_555 1_555
H19_2 C20_2 1_555 1_555
C21_3 C18_3 1_555 1_555
C22_3 H20_3 1_555 1_555
C23_2 S2_2 1_555 1_555
C24_3 C21_3 1_555 1_555
H21_3 C24_3 1_555 1_555
C25_3 H22_3 1_555 1_555
C26_2 C25_3 1_555 1_555
H23_2 C26_2 1_555 1_555
C27_2 S2_2 1_555 1_555
C28_3 C27_2 1_555 1_555
H24_3 C28_3 1_555 1_555
C29_3 C28_3 1_555 1_555
H25_3 C29_3 1_555 1_555
C30_3 C25_3 1_555 1_555
C32_3 O5_3 1_555 1_555
C33_3 C45_3 1_555 1_555
C34_3 H26_3 1_555 1_555
C35_3 C34_3 1_555 1_555
H27_3 C35_3 1_555 1_555
C36_3 C32_3 1_555 1_555
C37_3 C36_3 1_555 1_555
H28_3 C37_3 1_555 1_555
C38_3 C37_3 1_555 1_555
H29_3 C38_3 1_555 1_555
C39_3 S3_3 1_555 1_555
C40_3 H30_3 1_555 1_555
C41_3 C40_3 1_555 1_555
H31_3 C41_3 1_555 1_555
C42_3 S3_3 1_555 1_555
C43_3 C42_3 1_555 1_555
H32_3 C43_3 1_555 1_555
C44_3 C43_3 1_555 1_555
H33_3 C44_3 1_555 1_555
C45_3 C40_3 1_555 1_555
C46_3 O7_3 1_555 1_555
C54_3 H38_3 1_555 1_555
C55_3 C54_3 1_555 1_555
C57_3 C56_3 1_555 1_555
H40_3 C57_3 1_555 1_555
C58_3 C57_3 1_555 1_555
H41_3 C58_3 1_555 1_555
C59_3 C46_3 1_555 1_555
C62_3 C61_3 1_555 1_555
C63_3 C62_3 1_555 1_555
C64_3 C63_3 1_555 1_555
H44_3 C64_3 1_555 1_555
C65_3 C64_3 1_555 1_555
H45_3 C65_3 1_555 1_555
Mn8 O14_2 1_555 1_555
Mn9_2 O14_2 1_555 1_555
O32_2 Mn1_2 1_555 1_555
O35_2 Mn1_2 1_555 1_555
Mn6_2 O5_3 1_555 1_555
O4_3 C18_3 1_555 1_555
O6_3 C32_3 1_555 1_555
O15_2 Mn9_2 1_555 1_555
C5_3 C10_3 1_555 1_555
C9_2 C10_3 1_555 1_555
C11_2 C16_2 1_555 1_555
C12_2 C13_2 1_555 1_555
C15_2 C16_2 1_555 1_555
C19_2 C23_2 1_555 1_555
C20_2 C21_3 1_555 1_555
C22_3 C23_2 1_555 1_555
C22_3 C24_3 1_555 1_555
C26_2 C27_2 1_555 1_555
C29_3 C30_3 1_555 1_555
C34_3 C39_3 1_555 1_555
C35_3 C36_3 1_555 1_555
C38_3 C39_3 1_555 1_555
C41_3 C42_3 1_555 1_555
C44_3 C45_3 1_555 1_555
C54_3 C59_3 1_555 1_555
C55_3 C56_3 1_555 1_555
C58_3 C59_3 1_555 1_555
C61_3 C66_3 1_555 1_555
C65_3 C66_3 1_555 1_555
O31_3 H50_3 1_555 1_555
O31_3 H51_3 1_555 1_555
S4_3 O27_3 1_555 1_555
O36_2 C47_3 1_555 1_555
O37_2 C47_3 1_555 1_555
O38_2 C31_3 1_555 1_555
O39_2 C31_3 1_555 1_555
O28_3 S4_3 1_555 1_555
C47_3 C50_3 1_555 1_555
C48_3 H34_3 1_555 1_555
C49_3 C48_3 1_555 1_555
H35_3 C49_3 1_555 1_555
C50_3 C49_3 1_555 1_555
C51_3 C50_3 1_555 1_555
H36_3 C51_3 1_555 1_555
C52_3 C51_3 1_555 1_555
H37_3 C52_3 1_555 1_555
C53_3 S4_3 1_555 1_555
C48_3 C53_3 1_555 1_555
C52_3 C53_3 1_555 1_555
Mn5_2 O1_4 1_555 1_555
Mn6 O2_4 1_555 1_555
Mn8 O6_4 1_555 1_555
Mn9_2 O8_4 1_555 1_555
S2_3 O23_3 1_555 1_555
S3_4 O25_4 1_555 1_555
S5_4 O29_4 1_555 1_555
O1_4 C3_4 1_555 1_555
O2_4 C3_4 1_555 1_555
O3_4 Mn5_2 1_555 1_555
O4_4 Mn6 1_555 1_555
O5_4 Mn5_2 1_555 1_555
O6_4 Mn6 1_555 1_555
O7_4 Mn8 1_555 1_555
O8_4 C46_4 1_555 1_555
O9_4 Mn8 1_555 1_555
O10_4 Mn9_2 1_555 1_555
O32_2 C17_4 1_555 1_555
O33_2 C17_4 1_555 1_555
O34_2 C33_4 1_555 1_555
O35_2 C33_4 1_555 1_555
O24_3 S2_3 1_555 1_555
O26_4 S3_4 1_555 1_555
O30_4 S5_4 1_555 1_555
C3_4 C7_4 1_555 1_555
C8_3 C7_4 1_555 1_555
H12_3 C8_3 1_555 1_555
C9_3 C8_3 1_555 1_555
H13_3 C9_3 1_555 1_555
C17_4 C30_4 1_555 1_555
C18_4 O3_4 1_555 1_555
C19_3 H18_3 1_555 1_555
C20_3 C19_3 1_555 1_555
H19_3 C20_3 1_555 1_555
C21_4 C18_4 1_555 1_555
C22_4 H20_4 1_555 1_555
C23_3 S2_3 1_555 1_555
C24_4 C21_4 1_555 1_555
H21_4 C24_4 1_555 1_555
C25_4 H22_4 1_555 1_555
C26_3 C25_4 1_555 1_555
H23_3 C26_3 1_555 1_555
C27_3 S2_3 1_555 1_555
C28_4 C27_3 1_555 1_555
H24_4 C28_4 1_555 1_555
C29_4 C28_4 1_555 1_555
H25_4 C29_4 1_555 1_555
C30_4 C25_4 1_555 1_555
C32_4 O5_4 1_555 1_555
C33_4 C45_4 1_555 1_555
C34_4 H26_4 1_555 1_555
C35_4 C34_4 1_555 1_555
H27_4 C35_4 1_555 1_555
C36_4 C32_4 1_555 1_555
C37_4 C36_4 1_555 1_555
H28_4 C37_4 1_555 1_555
C38_4 C37_4 1_555 1_555
H29_4 C38_4 1_555 1_555
C39_4 S3_4 1_555 1_555
C40_4 H30_4 1_555 1_555
C41_4 C40_4 1_555 1_555
H31_4 C41_4 1_555 1_555
C42_4 S3_4 1_555 1_555
C43_4 C42_4 1_555 1_555
H32_4 C43_4 1_555 1_555
C44_4 C43_4 1_555 1_555
H33_4 C44_4 1_555 1_555
C45_4 C40_4 1_555 1_555
C46_4 O7_4 1_555 1_555
C54_4 H38_4 1_555 1_555
C55_4 C54_4 1_555 1_555
C57_4 C56_4 1_555 1_555
C58_4 C57_4 1_555 1_555
H41_4 C58_4 1_555 1_555
C59_4 C46_4 1_555 1_555
C60_4 O9_4 1_555 1_555
C61_4 H42_4 1_555 1_555
C62_4 C61_4 1_555 1_555
C63_4 C62_4 1_555 1_555
C64_4 C63_4 1_555 1_555
H44_4 C64_4 1_555 1_555
C65_4 C64_4 1_555 1_555
H45_4 C65_4 1_555 1_555
C66_4 S5_4 1_555 1_555
C67_4 S5_4 1_555 1_555
C68_4 H46_4 1_555 1_555
C69_4 C67_4 1_555 1_555
H47_4 C69_4 1_555 1_555
C70_4 C67_4 1_555 1_555
H48_4 C70_4 1_555 1_555
C71_4 C70_4 1_555 1_555
H49_4 C71_4 1_555 1_555
C72_4 C60_4 1_555 1_555
Mn6 O5_4 1_555 1_555
O4_4 C18_4 1_555 1_555
O6_4 C32_4 1_555 1_555
O10_4 C60_4 1_555 1_555
C19_3 C23_3 1_555 1_555
C20_3 C21_4 1_555 1_555
C22_4 C23_3 1_555 1_555
C22_4 C24_4 1_555 1_555
C26_3 C27_3 1_555 1_555
C29_4 C30_4 1_555 1_555
C34_4 C39_4 1_555 1_555
C35_4 C36_4 1_555 1_555
C38_4 C39_4 1_555 1_555
C41_4 C42_4 1_555 1_555
C44_4 C45_4 1_555 1_555
C54_4 C59_4 1_555 1_555
C55_4 C56_4 1_555 1_555
C58_4 C59_4 1_555 1_555
C61_4 C66_4 1_555 1_555
C65_4 C66_4 1_555 1_555
C68_4 C69_4 1_555 1_555
C68_4 C72_4 1_555 1_555
C71_4 C72_4 1_555 1_555
S1_3 O21_4 1_555 1_555
O11_2 C4_3 1_555 1_555
O12_3 H9_3 1_555 1_555
O22_3 S1_3 1_555 1_555
C4_3 O12_3 1_555 1_555
C5_4 H10_4 1_555 1_555
C6_4 C5_4 1_555 1_555
H11_4 C6_4 1_555 1_555
C10_4 S1_3 1_555 1_555
C11_3 H14_3 1_555 1_555
C12_3 C11_3 1_555 1_555
H15_4 C12_3 1_555 1_555
C13_3 S1_3 1_555 1_555
C14_3 C13_3 1_555 1_555
H16_3 C14_3 1_555 1_555
C15_3 C14_3 1_555 1_555
H17_3 C15_3 1_555 1_555
C16_3 C4_3 1_555 1_555
C5_4 C10_4 1_555 1_555
C11_3 C16_3 1_555 1_555
C12_3 C13_3 1_555 1_555
C15_3 C16_3 1_555 1_555
O31_4 H50_4 1_555 1_555
O31_4 H51_4 1_555 1_555
O38 C31_4 1_555 1_555
O39 C31_4 1_555 1_555
S4_4 O27_4 1_555 1_555
O36 C47_4 1_555 1_555
O37 C47_4 1_555 1_555
O28_4 S4_4 1_555 1_555
C47_4 C50_4 1_555 1_555
C48_4 H34_4 1_555 1_555
C49_4 C48_4 1_555 1_555
H35_4 C49_4 1_555 1_555
C50_4 C49_4 1_555 1_555
C51_4 C50_4 1_555 1_555
H36_4 C51_4 1_555 1_555
C52_4 C51_4 1_555 1_555
H37_4 C52_4 1_555 1_555
C53_4 S4_4 1_555 1_555
C48_4 C53_4 1_555 1_555
C52_4 C53_4 1_555 1_555
S2_4 O23_4 1_555 1_555
O24_4 S2_4 1_555 1_555
C23_4 S2_4 1_555 1_555
H23_4 C26_4 1_555 1_555
C27_4 S2_4 1_555 1_555
C26_4 C27_4 1_555 1_555
H12_4 C8_4 1_555 1_555
C9_4 C8_4 1_555 1_555
H13_4 C9_4 1_555 1_555
C19_4 H18_4 1_555 1_555
C20_4 C19_4 1_555 1_555
H19_4 C20_4 1_555 1_555
O11_3 C4_4 1_555 1_555
O12_4 H9_4 1_555 1_555
O22_4 S1_4 1_555 1_555
C4_4 O12_4 1_555 1_555
C11_4 H14_4 1_555 1_555
C12_4 C11_4 1_555 1_555
C13_4 S1_4 1_555 1_555
C14_4 C13_4 1_555 1_555
H16_4 C14_4 1_555 1_555
C15_4 C14_4 1_555 1_555
H17_4 C15_4 1_555 1_555
C16_4 C4_4 1_555 1_555
C11_4 C16_4 1_555 1_555
C12_4 C13_4 1_555 1_555
C15_4 C16_4 1_555 1_555

#END
