
###############################################################################
#
# This file contains modified crystal structure data generated from the
# MOF subset of the Cambridge Structural Database (CSD) v543 
# hosted by the Cambridge Crystallographic Data Centre (CCDC).
#
# This work is licensed under the Creative Commons
# Attribution-NonCommercial-ShareAlike 4.0 International License.
# To view a copy of this license, visit
# http://creativecommons.org/licenses/by-nc-sa/4.0/
# or send a letter to
# Creative Commons, PO Box 1866, Mountain View, CA 94042, USA.
#
# CIF created using the CSD Python API on 29 September 2022
# The structure has been converted into the P1 space group
# The structure has a 3D framework
# The original CSD entry ZOZPUB is in the monoclinic crystal system
# The framework has been calculated to contain at least 10.0% void space
# The void calculation uses a probe of radius 1.32A, grid spacing 0.4
# The framework is charged, counterions have been retained in the structure
#
###############################################################################

data_ZOZPUB
_chemical_formula_moiety         '(C160 H154 Co15 N48 O50)n'
_symmetry_cell_setting           triclinic
_symmetry_space_group_name_H-M   'P 1'
_symmetry_Int_Tables_number      1
_space_group_name_Hall           'P 1'
loop_
_symmetry_equiv_pos_site_id
_symmetry_equiv_pos_as_xyz
1 x,y,z
_cell_length_a                   14.4430(7)
_cell_length_b                   22.1987(13)
_cell_length_c                   17.7628(12)
_cell_angle_alpha                90
_cell_angle_beta                 103.975(6)
_cell_angle_gamma                90
_cell_volume                     5526.47
loop_
_atom_site_label
_atom_site_type_symbol
_atom_site_fract_x
_atom_site_fract_y
_atom_site_fract_z
C3 C 0.1383(5) 0.0111(3) 0.0863(4)
H1 H 0.1822 0.0414 0.0844
C10 C 0.0555(5) 0.0261(3) 0.1030(4)
H8 H 0.0418 0.0662 0.1109
O1 O 0.3673(4) 0.8769(2) 0.1382(3)
O2 O 0.3485(3) 0.9703(2) 0.1720(3)
C1 C 0.1607(5) 0.9525(3) 0.0716(3)
C2 C 0.3319(4) 0.9301(3) 0.1273(4)
C5 C 0.0111(5) 0.9223(3) 0.0952(4)
C7 C 0.2535(5) 0.9368(3) 0.0536(4)
H4 H 0.2709 0.9681 0.0215
H5 H 0.2466 0.8994 0.0246
C9 C 0.0945(5) 0.9085(3) 0.0766(4)
H7 H 0.1074 0.8686 0.0669
C6 C 0.8807(5) 0.0467(3) 0.1606(4)
H3 H 0.9247 0.0774 0.1771
N3 N 0.7944(5) 0.0497(3) 0.1685(4)
N1 N 0.9025(4) 0.9972(2) 0.1275(3)
C4 C 0.9896(4) 0.9806(3) 0.1087(3)
H2 H 0.9682 0.8918 0.0987
C8 C 0.8207(5) 0.9652(4) 0.1129(5)
H6 H 0.8117 0.9277 0.0889
N2 N 0.7566(5) 0.9950(3) 0.1377(4)
O1_2 O 0.1327(4) 0.3769(2) 0.3618(3)
O2_2 O 0.1515(3) 0.4703(2) 0.3280(3)
C1_2 C 0.3393(5) 0.4525(3) 0.4284(3)
C2_2 C 0.1681(4) 0.4301(3) 0.3727(4)
N1_2 N 0.5975(4) 0.4972(2) 0.3725(3)
C3_2 C 0.3617(5) 0.5111(3) 0.4137(4)
H1_2 H 0.3178 0.5414 0.4156
C4_2 C 0.5104(4) 0.4806(3) 0.3913(3)
C5_2 C 0.4889(5) 0.4223(3) 0.4048(4)
H2_2 H 0.5318 0.3918 0.4013
C6_2 C 0.6193(5) 0.5467(3) 0.3394(4)
H3_2 H 0.5753 0.5774 0.3229
C7_2 C 0.2465(5) 0.4368(3) 0.4464(4)
H4_2 H 0.2291 0.4681 0.4785
H5_2 H 0.2534 0.3994 0.4754
C8_2 C 0.6793(5) 0.4652(4) 0.3871(5)
H6_2 H 0.6883 0.4277 0.4111
N2_2 N 0.7434(5) 0.4950(3) 0.3623(4)
C9_2 C 0.4055(5) 0.4085(3) 0.4234(4)
H7_2 H 0.3926 0.3686 0.4331
C10_2 C 0.4445(5) 0.5261(3) 0.3970(4)
H8_2 H 0.4582 0.5662 0.3891
N3_2 N 0.7056(5) 0.5497(3) 0.3315(4)
N1_3 N 0.0975(4) 0.0028(2) 0.8725(3)
C4_3 C 0.0104(4) 0.0194(3) 0.8913(3)
H2_3 H 0.0318 0.1082 0.9013
C8_3 C 0.1793(5) 0.0348(4) 0.8871(5)
H6_3 H 0.1883 0.0723 0.9111
N2_3 N 0.2434(5) 0.0050(3) 0.8623(4)
C6_3 C 0.1193(5) 0.9533(3) 0.8394(4)
H3_3 H 0.0753 0.9226 0.8229
N3_3 N 0.2056(5) 0.9503(3) 0.8315(4)
O1_3 O 0.6327(4) 0.1231(2) 0.8618(3)
O2_3 O 0.6515(3) 0.0297(2) 0.8280(3)
C1_3 C 0.8393(5) 0.0475(3) 0.9284(3)
C2_3 C 0.6681(4) 0.0699(3) 0.8727(4)
C5_3 C 0.9889(5) 0.0777(3) 0.9048(4)
C7_3 C 0.7465(5) 0.0632(3) 0.9464(4)
H4_3 H 0.7291 0.0319 0.9785
H5_3 H 0.7534 0.1006 0.9754
C9_3 C 0.9055(5) 0.0915(3) 0.9234(4)
H7_3 H 0.8926 0.1314 0.9331
C3_3 C 0.8617(5) 0.9889(3) 0.9137(4)
H1_3 H 0.8178 0.9586 0.9156
C10_3 C 0.9445(5) 0.9739(3) 0.8970(4)
H8_3 H 0.9582 0.9338 0.8891
O1_4 O 0.8673(4) 0.6231(2) 0.6382(3)
O2_4 O 0.8485(3) 0.5297(2) 0.6720(3)
C1_4 C 0.6607(5) 0.5475(3) 0.5716(3)
C2_4 C 0.8319(4) 0.5699(3) 0.6273(4)
N1_4 N 0.4025(4) 0.5028(2) 0.6275(3)
C3_4 C 0.6383(5) 0.4889(3) 0.5863(4)
H1_4 H 0.6822 0.4586 0.5844
C4_4 C 0.4896(4) 0.5194(3) 0.6087(3)
C5_4 C 0.5111(5) 0.5777(3) 0.5952(4)
H2_4 H 0.4682 0.6082 0.5987
C6_4 C 0.3807(5) 0.4533(3) 0.6606(4)
H3_4 H 0.4247 0.4226 0.6771
C7_4 C 0.7535(5) 0.5632(3) 0.5536(4)
H4_4 H 0.7709 0.5319 0.5215
H5_4 H 0.7466 0.6006 0.5246
C8_4 C 0.3207(5) 0.5348(4) 0.6129(5)
H6_4 H 0.3117 0.5723 0.5889
N2_4 N 0.2566(5) 0.5050(3) 0.6377(4)
C9_4 C 0.5945(5) 0.5915(3) 0.5766(4)
H7_4 H 0.6074 0.6314 0.5669
C10_4 C 0.5555(5) 0.4739(3) 0.6030(4)
H8_4 H 0.5418 0.4338 0.6109
N3_4 N 0.2944(5) 0.4503(3) 0.6685(4)
O5 O 0.0801(2) 0.30938(14) 0.91883(19)
O7 O 0.1159(2) 0.35863(15) 0.8198(2)
C24 C 0.0081(3) 0.2333(2) 0.7753(3)
C28 C 0.1094(3) 0.2514(2) 0.8171(3)
H19 H 0.1368 0.2215 0.8561
H20 H 0.1493 0.2544 0.7806
C30 C 0.1026(3) 0.3122(2) 0.8552(3)
H28 H 0.0255 0.2371 0.6674
Co12 Co 0.04385(4) 0.44033(3) 0.81916(3)
Co1 Co 0.5000 0.0000 0.5000
Co2 Co 0.54385(4) 0.05967(3) 0.31916(3)
Co3 Co 0.49907(4) 0.13654(3) 0.47250(3)
Co4 Co 0.45128(4) 0.10379(3) 0.64844(3)
O3 O 0.55517(19) 0.05981(13) 0.43399(17)
O4 O 0.43944(18) 0.07577(13) 0.53794(16)
O6 O 0.3762(2) 0.18351(14) 0.61115(19)
N4 N 0.5837(2) 0.14556(16) 0.6439(2)
N5 N 0.7278(2) 0.18116(16) 0.6629(2)
O8 O 0.4289(2) 0.20934(14) 0.50730(18)
N6 N 0.7688(2) 0.35393(16) 0.7708(2)
C11 C 0.2372(3) 0.0710(2) 0.6456(3)
H9 H 0.2150 0.1104 0.6369
N7 N 0.1819(2) 0.02264(17) 0.6516(2)
N8 N 0.9096(2) 0.39496(17) 0.8053(2)
C12 C 0.4963(3) 0.30436(19) 0.6371(3)
C13 C 0.8236(3) 0.20136(19) 0.7012(3)
N9 N 0.6060(2) 0.15112(16) 0.5742(2)
C14 C 0.4000(3) 0.2215(2) 0.5661(3)
C15 C 0.6639(3) 0.32535(19) 0.6467(3)
H10 H 0.7152 0.3283 0.6238
C16 C 0.5739(3) 0.3099(2) 0.6024(3)
H11 H 0.5648 0.3032 0.5495
N11 N 0.8905(2) 0.36680(16) 0.8688(2)
C19 C 0.0817(3) 0.0221(2) 0.6517(3)
N12 N 0.3251(2) 0.05464(17) 0.6537(2)
C20 C 0.6761(3) 0.3363(2) 0.7253(3)
C21 C 0.8477(3) 0.2062(2) 0.7802(3)
H12 H 0.8026 0.1993 0.8088
C22 C 0.6018(3) 0.3298(2) 0.7605(3)
H13 H 0.6112 0.3365 0.8135
C25 C 0.3981(3) 0.2873(2) 0.5895(3)
H15 H 0.3808 0.3125 0.5436
H16 H 0.3512 0.2932 0.6198
C26 C 0.8359(3) 0.3866(2) 0.7469(3)
H17 H 0.8304 0.4008 0.6967
C27 C 0.6582(3) 0.1644(2) 0.6963(3)
H18 H 0.6621 0.1660 0.7493
C29 C 0.8061(3) 0.3427(2) 0.8471(3)
H21 H 0.7759 0.3210 0.8792
C31 C 0.9407(3) 0.2217(2) 0.8171(3)
H22 H 0.9581 0.2244 0.8710
C33 C 0.0464(3) 0.0648(2) 0.6921(3)
H24 H 0.0854 0.0955 0.7175
C34 C 0.5117(3) 0.3131(2) 0.7156(3)
H25 H 0.4616 0.3078 0.7395
C35 C 0.6920(3) 0.1731(2) 0.5862(3)
H26 H 0.7237 0.1819 0.5477
C37 C 0.9811(3) 0.2294(3) 0.6965(3)
C40 C 0.8873(3) 0.2137(3) 0.6585(3)
H32 H 0.8690 0.2119 0.6046
O12 O 0.4667(2) 0.13029(17) 0.7627(2)
H33 H 0.5190 0.1135 0.7945
H34 H 0.4172 0.1191 0.7833
O13 O 0.5250(3) 0.0621(2) 0.1995(2)
H35 H 0.5361 0.0270 0.1624
H36 H 0.5021 0.0988 0.1615
H37 H 0.3800(9) 0.074(2) 0.521(3)
H38 H 0.6140(9) 0.062(3) 0.454(3)
C62 C 0.0704(3) 0.0256(2) 0.3834(3)
H54 H 0.1099 0.0561 0.4089
H60 H 0.2192 0.0261 0.3135
Co14 Co 0.99907(4) 0.36346(3) 0.97250(3)
O28 O 0.5801(2) 0.19062(14) 0.41883(19)
O30 O 0.6159(2) 0.14137(15) 0.3198(2)
O31 O 0.62983(18) 0.00804(13) 0.59084(17)
N23 N 0.4096(2) 0.10504(17) 0.3053(2)
N25 N 0.6717(2) 0.00759(16) 0.3349(2)
N27 N 0.3905(2) 0.13320(16) 0.3688(2)
O33 O 0.53424(19) 0.02477(14) 0.69431(17)
Co1_2 Co 0.5000 1.0000 0.5000
N10 N 0.3283(2) 0.99241(16) 0.6651(2)
C23 C 0.2420(3) 0.9745(2) 0.6635(3)
H14 H 0.2242 0.9349 0.6696
C39 C 0.0238(3) 0.9759(2) 0.6124(3)
H31 H 0.0480 0.9470 0.5843
O11 O 0.46576(19) 0.97523(14) 0.30569(17)
H39 H 0.429(3) 0.974(2) 0.2610(13)
O20 O 0.2623(2) 0.96867(18) 0.4739(2)
O21 O 0.37017(18) 0.99196(13) 0.40916(17)
C47 C 0.1074(3) 0.9828(2) 0.3422(3)
C48 C 0.2861(3) 0.9823(2) 0.4129(3)
C66 C 0.0497(3) 0.9383(2) 0.3049(3)
H58 H 0.0741 0.9095 0.2769
C68 C 0.2109(3) 0.9876(2) 0.3368(3)
H61 H 0.2226 0.9564 0.3020
Co11 Co 0.45615(4) 0.94033(3) 0.68084(3)
Co16 Co 0.54872(4) 0.89621(3) 0.35156(3)
O25 O 0.44483(19) 0.94019(13) 0.56601(17)
O26 O 0.56056(18) 0.92423(13) 0.46206(16)
O9 O 0.7377(2) 0.03133(18) 0.5261(2)
C17 C 0.8926(3) 0.0172(2) 0.6578(3)
C18 C 0.7139(3) 0.0177(2) 0.5871(3)
C36 C 0.9503(3) 0.0617(2) 0.6951(3)
H27 H 0.9259 0.0905 0.7231
C38 C 0.7891(3) 0.0124(2) 0.6632(3)
H30 H 0.7774 0.0436 0.6980
C53 C 0.7580(3) 0.0255(2) 0.3365(3)
H45 H 0.7758 0.0651 0.3304
C69 C 0.9762(3) 0.0241(2) 0.3876(3)
H62 H 0.9520 0.0530 0.4157
H70 H 0.571(3) 0.026(2) 0.7390(13)
C32 C 0.9296(3) 0.9744(2) 0.6166(3)
H23 H 0.8901 0.9439 0.5911
H29 H 0.7808 0.9739 0.6865
Co6 Co 0.50093(4) 0.86346(3) 0.52750(3)
O17 O 0.6238(2) 0.81649(14) 0.38885(19)
N13 N 0.4163(2) 0.85444(16) 0.3561(2)
N14 N 0.2722(2) 0.81884(16) 0.3371(2)
O19 O 0.5711(2) 0.79066(14) 0.49270(18)
N15 N 0.2312(2) 0.64607(16) 0.2292(2)
C41 C 0.7628(3) 0.9290(2) 0.3544(3)
H40 H 0.7850 0.8896 0.3631
N16 N 0.8181(2) 0.97736(17) 0.3484(2)
N17 N 0.0904(2) 0.60504(17) 0.1947(2)
C42 C 0.5037(3) 0.69564(19) 0.3629(3)
C43 C 0.1764(3) 0.79864(19) 0.2988(3)
N18 N 0.3940(2) 0.84888(16) 0.4258(2)
C44 C 0.6000(3) 0.7785(2) 0.4339(3)
C45 C 0.3361(3) 0.67465(19) 0.3533(3)
H41 H 0.2848 0.6717 0.3762
C46 C 0.4261(3) 0.6901(2) 0.3976(3)
H42 H 0.4352 0.6968 0.4505
N20 N 0.1095(2) 0.63320(16) 0.1312(2)
C49 C 0.9183(3) 0.9779(2) 0.3483(3)
N21 N 0.6749(2) 0.94536(17) 0.3463(2)
C50 C 0.3239(3) 0.6637(2) 0.2747(3)
C51 C 0.1523(3) 0.7938(2) 0.2198(3)
H43 H 0.1974 0.8007 0.1912
C52 C 0.3982(3) 0.6702(2) 0.2395(3)
H44 H 0.3888 0.6635 0.1865
C55 C 0.6019(3) 0.7127(2) 0.4105(3)
H46 H 0.6192 0.6875 0.4564
H47 H 0.6488 0.7068 0.3802
C56 C 0.1641(3) 0.6134(2) 0.2531(3)
H48 H 0.1696 0.5992 0.3033
C57 C 0.3418(3) 0.8356(2) 0.3037(3)
H49 H 0.3379 0.8340 0.2507
C59 C 0.1939(3) 0.6573(2) 0.1529(3)
H52 H 0.2241 0.6790 0.1208
C61 C 0.0593(3) 0.7783(2) 0.1829(3)
H53 H 0.0419 0.7756 0.1290
C63 C 0.9536(3) 0.9352(2) 0.3079(3)
H55 H 0.9146 0.9045 0.2825
C64 C 0.4883(3) 0.6869(2) 0.2844(3)
H56 H 0.5384 0.6922 0.2605
C65 C 0.3080(3) 0.8269(2) 0.4138(3)
H57 H 0.2763 0.8181 0.4523
C67 C 0.0189(3) 0.7706(3) 0.3035(3)
C70 C 0.1127(3) 0.7863(3) 0.3415(3)
H63 H 0.1310 0.7881 0.3954
O23 O 0.5333(2) 0.86971(17) 0.2373(2)
H64 H 0.4810 0.8865 0.2055
H65 H 0.5828 0.8809 0.2167
O24 O 0.4750(3) 0.9379(2) 0.8005(2)
H66 H 0.4639 0.9730 0.8376
H67 H 0.4979 0.9012 0.8385
H68 H 0.6200(9) 0.926(2) 0.479(3)
H69 H 0.3860(9) 0.938(3) 0.546(3)
Co13 Co 0.00093(4) 0.63654(3) 0.02750(3)
O27 O 0.4199(2) 0.80938(14) 0.58117(19)
O29 O 0.3841(2) 0.85863(15) 0.6802(2)
N22 N 0.5904(2) 0.89496(17) 0.6947(2)
N26 N 0.6095(2) 0.86680(16) 0.6312(2)
O16 O 0.9199(2) 0.69062(14) 0.08117(19)
O18 O 0.8841(2) 0.64137(15) 0.1802(2)
C54 C 0.9919(3) 0.7667(2) 0.2247(3)
C58 C 0.8906(3) 0.7486(2) 0.1829(3)
H50 H 0.8632 0.7785 0.1439
H51 H 0.8507 0.7456 0.2194
C60 C 0.8974(3) 0.6878(2) 0.1448(3)
H59 H 0.9745 0.7629 0.3326
Co10 Co 0.95615(4) 0.55967(3) 0.18084(3)
N13_2 N 0.0837(2) 0.35444(16) 0.1439(2)
N14_2 N 0.2278(2) 0.31884(16) 0.1629(2)
N15_2 N 0.2688(2) 0.14607(16) 0.2708(2)
C43_2 C 0.3236(3) 0.29864(19) 0.2012(3)
N18_2 N 0.1060(2) 0.34888(16) 0.0742(2)
C45_2 C 0.1639(3) 0.17465(19) 0.1467(3)
H41_2 H 0.2152 0.1717 0.1238
C46_2 C 0.0739(3) 0.1901(2) 0.1024(3)
H42_2 H 0.0648 0.1968 0.0495
C50_2 C 0.1761(3) 0.1637(2) 0.2253(3)
C51_2 C 0.3477(3) 0.2938(2) 0.2802(3)
H43_2 H 0.3026 0.3007 0.3088
C52_2 C 0.1018(3) 0.1702(2) 0.2605(3)
H44_2 H 0.1112 0.1635 0.3135
C54_2 C 0.5081(3) 0.2667(2) 0.2753(3)
C56_2 C 0.3359(3) 0.1134(2) 0.2469(3)
H48_2 H 0.3304 0.0992 0.1967
C57_2 C 0.1582(3) 0.3356(2) 0.1963(3)
H49_2 H 0.1621 0.3340 0.2493
C58_2 C 0.6094(3) 0.2486(2) 0.3171(3)
H50_2 H 0.6368 0.2785 0.3561
H51_2 H 0.6493 0.2456 0.2806
C59_2 C 0.3061(3) 0.1573(2) 0.3471(3)
H52_2 H 0.2759 0.1790 0.3792
C60_2 C 0.6026(3) 0.1878(2) 0.3552(3)
C61_2 C 0.4407(3) 0.2783(2) 0.3171(3)
H53_2 H 0.4581 0.2756 0.3710
C64_2 C 0.0117(3) 0.1869(2) 0.2156(3)
C65_2 C 0.1920(3) 0.3269(2) 0.0862(3)
H57_2 H 0.2237 0.3181 0.0477
C67_2 C 0.4811(3) 0.2706(3) 0.1965(3)
H59_2 H 0.5255 0.2629 0.1674
C70_2 C 0.3873(3) 0.2863(3) 0.1585(3)
H63_2 H 0.3690 0.2881 0.1046
H64_2 H 0.0190 0.3865 0.2945
Co8 Co 0.0000 0.5000 0.0000
O32 O 0.03424(19) 0.47523(14) 0.19431(17)
O14 O 0.05517(19) 0.44019(13) 0.93399(17)
O24_2 O 0.0250(3) 0.4379(2) 0.6995(2)
H66_2 H 0.0361 0.4730 0.6624
H67_2 H 0.0021 0.4012 0.6615
H69_2 H 0.1140(9) 0.438(3) 0.954(3)
Co8_2 Co -0.0000 0.5000 1.0000
Co15 Co 0.04872(4) 0.60379(3) 0.85156(3)
N24 N 0.1717(2) 0.49241(16) 0.8349(2)
H39_2 H 0.071(3) 0.474(2) 0.2390(13)
Co7 Co 0.95128(4) 0.39621(3) 0.14844(3)
O15 O 0.93944(18) 0.42423(13) 0.03794(16)
O17_2 O 0.8762(2) 0.31649(14) 0.11115(19)
O19_2 O 0.9289(2) 0.29066(14) 0.00730(18)
O20_2 O 0.2377(2) 0.46867(18) 0.0261(2)
O21_2 O 0.12983(18) 0.49196(13) 0.09084(17)
C41_2 C 0.7372(3) 0.4290(2) 0.1456(3)
H40_2 H 0.7150 0.3896 0.1369
N16_2 N 0.6819(2) 0.47736(17) 0.1516(2)
C42_2 C 0.9963(3) 0.19564(19) 0.1371(3)
C44_2 C 0.9000(3) 0.2785(2) 0.0661(3)
N19 N 0.8283(2) 0.50759(16) 0.1651(2)
C47_2 C 0.3926(3) 0.4828(2) 0.1578(3)
C48_2 C 0.2139(3) 0.4823(2) 0.0871(3)
C49_2 C 0.5817(3) 0.4779(2) 0.1517(3)
N21_2 N 0.8251(2) 0.44536(17) 0.1537(2)
C53_2 C 0.7420(3) 0.5255(2) 0.1635(3)
H45_2 H 0.7242 0.5651 0.1696
C55_2 C 0.8981(3) 0.2127(2) 0.0895(3)
H46_2 H 0.8808 0.1875 0.0436
H47_2 H 0.8512 0.2068 0.1198
C62_2 C 0.4296(3) 0.5256(2) 0.1166(3)
H54_2 H 0.3901 0.5561 0.0911
C63_2 C 0.5464(3) 0.4352(2) 0.1921(3)
H55_2 H 0.5854 0.4045 0.2175
H56_2 H 0.9616 0.1922 0.2395
C66_2 C 0.4503(3) 0.4383(2) 0.1951(3)
H58_2 H 0.4259 0.4095 0.2231
C68_2 C 0.2891(3) 0.4876(2) 0.1632(3)
H60_2 H 0.2808 0.5261 0.1865
H61_2 H 0.2774 0.4564 0.1980
C69_2 C 0.5238(3) 0.5241(2) 0.1124(3)
H62_2 H 0.5480 0.5530 0.0843
O23_2 O 0.9667(2) 0.36971(17) 0.2627(2)
H65_2 H 0.9172 0.3809 0.2833
H68_2 H 0.8800(9) 0.426(2) 0.021(3)
Co8_3 Co 1.0000 0.5000 0.0000
O4_2 O 0.06056(18) 0.57577(13) 0.96206(16)
O6_2 O 0.1238(2) 0.68351(14) 0.88885(19)
O8_2 O 0.0711(2) 0.70934(14) 0.99270(18)
O9_2 O 0.7623(2) 0.53133(18) 0.9739(2)
O10 O 0.87017(18) 0.50804(13) 0.90916(17)
C11_2 C 0.2628(3) 0.5710(2) 0.8544(3)
H9_2 H 0.2850 0.6104 0.8631
N7_2 N 0.3181(2) 0.52264(17) 0.8484(2)
C12_2 C 0.0037(3) 0.80436(19) 0.8629(3)
C14_2 C 0.1000(3) 0.7215(2) 0.9339(3)
C17_2 C 0.6074(3) 0.5172(2) 0.8422(3)
C18_2 C 0.7861(3) 0.5177(2) 0.9129(3)
C19_2 C 0.4183(3) 0.5221(2) 0.8483(3)
N12_2 N 0.1749(2) 0.55464(17) 0.8463(2)
C23_2 C 0.2580(3) 0.4745(2) 0.8365(3)
H14_2 H 0.2758 0.4349 0.8304
C25_2 C 0.1019(3) 0.7873(2) 0.9105(3)
H15_2 H 0.1192 0.8125 0.9564
H16_2 H 0.1488 0.7932 0.8802
C32_2 C 0.5704(3) 0.4744(2) 0.8834(3)
H23_2 H 0.6099 0.4439 0.9089
C33_2 C 0.4536(3) 0.5648(2) 0.8079(3)
H24_2 H 0.4146 0.5955 0.7825
H25_2 H 0.0384 0.8078 0.7605
C36_2 C 0.5497(3) 0.5617(2) 0.8049(3)
H27_2 H 0.5741 0.5905 0.7769
C38_2 C 0.7109(3) 0.5124(2) 0.8368(3)
H29_2 H 0.7192 0.4739 0.8135
H30_2 H 0.7226 0.5436 0.8020
C39_2 C 0.4762(3) 0.4759(2) 0.8876(3)
H31_2 H 0.4520 0.4470 0.9157
O12_2 O 0.0333(2) 0.63029(17) 0.7373(2)
H34_2 H 0.0828 0.6191 0.7167
H37_2 H 0.1200(9) 0.574(2) 0.979(3)
O22 O 0.96576(19) 0.52477(14) 0.80569(17)
H70_2 H 0.929(3) 0.526(2) 0.7610(13)
Co8_4 Co 1.0000 0.5000 1.0000
O3_2 O 0.94483(19) 0.55981(13) 0.06601(17)
O13_2 O 0.9750(3) 0.5621(2) 0.3005(2)
H35_2 H 0.9639 0.5270 0.3376
H36_2 H 0.9979 0.5988 0.3385
H38_2 H 0.8860(9) 0.562(3) 0.046(3)
N4_2 N 0.9163(2) 0.64556(16) 0.8561(2)
N5_2 N 0.7722(2) 0.68116(16) 0.8371(2)
N6_2 N 0.7312(2) 0.85393(16) 0.7292(2)
C13_2 C 0.6764(3) 0.70136(19) 0.7988(3)
N9_2 N 0.8940(2) 0.65112(16) 0.9258(2)
C15_2 C 0.8361(3) 0.82535(19) 0.8533(3)
H10_2 H 0.7848 0.8283 0.8762
C16_2 C 0.9261(3) 0.8099(2) 0.8976(3)
H11_2 H 0.9352 0.8032 0.9505
C20_2 C 0.8239(3) 0.8363(2) 0.7747(3)
C21_2 C 0.6523(3) 0.7062(2) 0.7198(3)
H12_2 H 0.6974 0.6993 0.6912
C22_2 C 0.8982(3) 0.8298(2) 0.7395(3)
H13_2 H 0.8888 0.8365 0.6865
C24_2 C 0.4919(3) 0.7333(2) 0.7247(3)
C26_2 C 0.6641(3) 0.8866(2) 0.7531(3)
H17_2 H 0.6696 0.9008 0.8033
C27_2 C 0.8418(3) 0.6644(2) 0.8037(3)
H18_2 H 0.8379 0.6660 0.7507
C28_2 C 0.3906(3) 0.7514(2) 0.6829(3)
H19_2 H 0.3632 0.7215 0.6439
H20_2 H 0.3507 0.7544 0.7194
C29_2 C 0.6939(3) 0.8427(2) 0.6529(3)
H21_2 H 0.7241 0.8210 0.6208
C30_2 C 0.3974(3) 0.8122(2) 0.6448(3)
C31_2 C 0.5593(3) 0.7217(2) 0.6829(3)
H22_2 H 0.5419 0.7244 0.6290
C34_2 C 0.9883(3) 0.8131(2) 0.7844(3)
C35_2 C 0.8080(3) 0.6731(2) 0.9138(3)
H26_2 H 0.7763 0.6819 0.9523
C37_2 C 0.5189(3) 0.7294(3) 0.8035(3)
H28_2 H 0.4745 0.7371 0.8326
C40_2 C 0.6127(3) 0.7137(3) 0.8415(3)
H32_2 H 0.6310 0.7119 0.8954
H33_2 H 0.9810 0.6135 0.7055
loop_
_geom_bond_atom_site_label_1
_geom_bond_atom_site_label_2
_geom_bond_site_symmetry_1
_geom_bond_site_symmetry_2
C3 H1 1_555 1_555
C10 C3 1_555 1_555
H8 C10 1_555 1_555
O1 C2 1_555 1_555
O2 C2 1_555 1_555
C2 C7 1_555 1_555
C7 C1 1_555 1_555
H4 C7 1_555 1_555
H5 C7 1_555 1_555
C9 C1 1_555 1_555
H7 C9 1_555 1_555
C5 C9 1_555 1_555
H3 C6 1_555 1_555
N3 C6 1_555 1_555
N1 C4 1_555 1_555
C8 N1 1_555 1_555
H6 C8 1_555 1_555
N2 C8 1_555 1_555
O1_2 C2_2 1_555 1_555
O2_2 C2_2 1_555 1_555
C1_2 C3_2 1_555 1_555
C2_2 C7_2 1_555 1_555
N1_2 C4_2 1_555 1_555
C3_2 H1_2 1_555 1_555
C4_2 C5_2 1_555 1_555
C5_2 H2_2 1_555 1_555
C6_2 N1_2 1_555 1_555
H3_2 C6_2 1_555 1_555
C7_2 C1_2 1_555 1_555
H4_2 C7_2 1_555 1_555
H5_2 C7_2 1_555 1_555
C8_2 N1_2 1_555 1_555
H6_2 C8_2 1_555 1_555
N2_2 C8_2 1_555 1_555
C9_2 C1_2 1_555 1_555
H7_2 C9_2 1_555 1_555
C10_2 C3_2 1_555 1_555
H8_2 C10_2 1_555 1_555
N3_2 C6_2 1_555 1_555
C4_2 C10_2 1_555 1_555
C5_2 C9_2 1_555 1_555
N2_2 N3_2 1_555 1_555
N1_3 C4_3 1_555 1_555
C8_3 N1_3 1_555 1_555
H6_3 C8_3 1_555 1_555
N2_3 C8_3 1_555 1_555
H3_3 C6_3 1_555 1_555
N3_3 C6_3 1_555 1_555
O1_3 C2_3 1_555 1_555
O2_3 C2_3 1_555 1_555
C2_3 C7_3 1_555 1_555
C7_3 C1_3 1_555 1_555
H4_3 C7_3 1_555 1_555
H5_3 C7_3 1_555 1_555
C9_3 C1_3 1_555 1_555
H7_3 C9_3 1_555 1_555
C5_3 C9_3 1_555 1_555
C3_3 H1_3 1_555 1_555
C10_3 C3_3 1_555 1_555
H8_3 C10_3 1_555 1_555
O1_4 C2_4 1_555 1_555
O2_4 C2_4 1_555 1_555
C1_4 C3_4 1_555 1_555
C2_4 C7_4 1_555 1_555
N1_4 C4_4 1_555 1_555
C3_4 H1_4 1_555 1_555
C4_4 C5_4 1_555 1_555
C5_4 H2_4 1_555 1_555
C6_4 N1_4 1_555 1_555
H3_4 C6_4 1_555 1_555
C7_4 C1_4 1_555 1_555
H4_4 C7_4 1_555 1_555
H5_4 C7_4 1_555 1_555
C8_4 N1_4 1_555 1_555
H6_4 C8_4 1_555 1_555
N2_4 C8_4 1_555 1_555
C9_4 C1_4 1_555 1_555
H7_4 C9_4 1_555 1_555
C10_4 C3_4 1_555 1_555
H8_4 C10_4 1_555 1_555
N3_4 C6_4 1_555 1_555
C4_4 C10_4 1_555 1_555
C5_4 C9_4 1_555 1_555
N2_4 N3_4 1_555 1_555
O5 C30 1_555 1_555
O7 C30 1_555 1_555
C24 C28 1_555 1_555
C28 H19 1_555 1_555
H20 C28 1_555 1_555
C30 C28 1_555 1_555
Co12 O7 1_555 1_555
Co1 O3 1_555 1_555
Co2 O3 1_555 1_555
Co3 O3 1_555 1_555
Co4 O4 1_555 1_555
O3 H38 1_555 1_555
O4 Co1 1_555 1_555
O6 Co4 1_555 1_555
N4 Co4 1_555 1_555
N5 C13 1_555 1_555
O8 Co3 1_555 1_555
N6 C20 1_555 1_555
C11 H9 1_555 1_555
N7 C11 1_555 1_555
N8 N11 1_555 1_555
C12 C16 1_555 1_555
C13 C21 1_555 1_555
N9 Co3 1_555 1_555
C14 O6 1_555 1_555
C15 H10 1_555 1_555
C16 C15 1_555 1_555
H11 C16 1_555 1_555
N11 C29 1_555 1_555
C19 N7 1_555 1_555
N12 Co4 1_555 1_555
C20 C15 1_555 1_555
C21 H12 1_555 1_555
C22 C20 1_555 1_555
H13 C22 1_555 1_555
C25 C12 1_555 1_555
H15 C25 1_555 1_555
H16 C25 1_555 1_555
C26 N6 1_555 1_555
H17 C26 1_555 1_555
C27 N4 1_555 1_555
H18 C27 1_555 1_555
C29 N6 1_555 1_555
H21 C29 1_555 1_555
C31 C21 1_555 1_555
H22 C31 1_555 1_555
C33 C19 1_555 1_555
H24 C33 1_555 1_555
C34 C12 1_555 1_555
H25 C34 1_555 1_555
C35 N5 1_555 1_555
H26 C35 1_555 1_555
C40 C13 1_555 1_555
H32 C40 1_555 1_555
O12 Co4 1_555 1_555
H33 O12 1_555 1_555
H34 O12 1_555 1_555
O13 Co2 1_555 1_555
H35 O13 1_555 1_555
H36 O13 1_555 1_555
H37 O4 1_555 1_555
C62 H54 1_555 1_555
O28 Co3 1_555 1_555
O30 Co2 1_555 1_555
O31 Co1 1_555 1_555
N23 Co2 1_555 1_555
N25 Co2 1_555 1_555
N27 Co3 1_555 1_555
O33 Co4 1_555 1_555
Co3 O4 1_555 1_555
N4 N9 1_555 1_555
N5 C27 1_555 1_555
O8 C14 1_555 1_555
C11 N12 1_555 1_555
N8 C26 1_555 1_555
N9 C35 1_555 1_555
C14 C25 1_555 1_555
N11 Co14 1_555 1_555
C22 C34 1_555 1_555
C37 C40 1_555 1_555
N23 N27 1_555 1_555
H14 C23 1_555 1_555
H31 C39 1_555 1_555
H39 O11 1_555 1_555
O20 C48 1_555 1_555
O21 Co1_2 1_555 1_555
C48 O21 1_555 1_555
C66 C47 1_555 1_555
H58 C66 1_555 1_555
C68 C47 1_555 1_555
H61 C68 1_555 1_555
Co11 N10 1_555 1_555
Co16 O11 1_555 1_555
O25 Co1_2 1_555 1_555
O26 Co1_2 1_555 1_555
N10 C23 1_555 1_555
C48 C68 1_555 1_555
Co11 O25 1_555 1_555
Co16 O26 1_555 1_555
O9 C18 1_555 1_555
O31 C18 1_555 1_555
C18 C38 1_555 1_555
C36 C17 1_555 1_555
H27 C36 1_555 1_555
C38 C17 1_555 1_555
H30 C38 1_555 1_555
H45 C53 1_555 1_555
H62 C69 1_555 1_555
H70 O33 1_555 1_555
N25 C53 1_555 1_555
C32 H23 1_555 1_555
Co6 O25 1_555 1_555
O25 H69 1_555 1_555
O26 Co6 1_555 1_555
O17 Co16 1_555 1_555
N13 Co16 1_555 1_555
N14 C43 1_555 1_555
O19 Co6 1_555 1_555
N15 C50 1_555 1_555
C41 H40 1_555 1_555
N16 C41 1_555 1_555
N17 N20 1_555 1_555
C42 C46 1_555 1_555
C43 C51 1_555 1_555
N18 Co6 1_555 1_555
C44 O17 1_555 1_555
C45 H41 1_555 1_555
C46 C45 1_555 1_555
H42 C46 1_555 1_555
N20 C59 1_555 1_555
C49 N16 1_555 1_555
N21 Co16 1_555 1_555
C50 C45 1_555 1_555
C51 H43 1_555 1_555
C52 C50 1_555 1_555
H44 C52 1_555 1_555
C55 C42 1_555 1_555
H46 C55 1_555 1_555
H47 C55 1_555 1_555
C56 N15 1_555 1_555
H48 C56 1_555 1_555
C57 N13 1_555 1_555
H49 C57 1_555 1_555
C59 N15 1_555 1_555
H52 C59 1_555 1_555
C61 C51 1_555 1_555
H53 C61 1_555 1_555
C63 C49 1_555 1_555
H55 C63 1_555 1_555
C64 C42 1_555 1_555
H56 C64 1_555 1_555
C65 N14 1_555 1_555
H57 C65 1_555 1_555
C70 C43 1_555 1_555
H63 C70 1_555 1_555
O23 Co16 1_555 1_555
H64 O23 1_555 1_555
H65 O23 1_555 1_555
O24 Co11 1_555 1_555
H66 O24 1_555 1_555
H67 O24 1_555 1_555
H68 O26 1_555 1_555
O27 Co6 1_555 1_555
O29 Co11 1_555 1_555
N22 Co11 1_555 1_555
N26 Co6 1_555 1_555
N13 N18 1_555 1_555
N14 C57 1_555 1_555
O19 C44 1_555 1_555
C41 N21 1_555 1_555
N17 C56 1_555 1_555
N18 C65 1_555 1_555
C44 C55 1_555 1_555
N20 Co13 1_555 1_555
C52 C64 1_555 1_555
C67 C70 1_555 1_555
N22 N26 1_555 1_555
O16 C60 1_555 1_555
O18 C60 1_555 1_555
C54 C58 1_555 1_555
C58 H50 1_555 1_555
H51 C58 1_555 1_555
C60 C58 1_555 1_555
Co10 O18 1_555 1_555
O28 C60_2 1_555 1_555
N14_2 C43_2 1_555 1_555
O30 C60_2 1_555 1_555
N15_2 C50_2 1_555 1_555
C43_2 C51_2 1_555 1_555
C45_2 H41_2 1_555 1_555
C46_2 C45_2 1_555 1_555
H42_2 C46_2 1_555 1_555
N27 C59_2 1_555 1_555
C50_2 C45_2 1_555 1_555
C51_2 H43_2 1_555 1_555
C52_2 C50_2 1_555 1_555
H44_2 C52_2 1_555 1_555
C54_2 C58_2 1_555 1_555
C56_2 N15_2 1_555 1_555
H48_2 C56_2 1_555 1_555
C57_2 N13_2 1_555 1_555
H49_2 C57_2 1_555 1_555
C58_2 H50_2 1_555 1_555
H51_2 C58_2 1_555 1_555
C59_2 N15_2 1_555 1_555
H52_2 C59_2 1_555 1_555
C60_2 C58_2 1_555 1_555
C61_2 C51_2 1_555 1_555
H53_2 C61_2 1_555 1_555
C65_2 N14_2 1_555 1_555
H57_2 C65_2 1_555 1_555
C67_2 C54_2 1_555 1_555
H59_2 C67_2 1_555 1_555
C70_2 C43_2 1_555 1_555
H63_2 C70_2 1_555 1_555
N13_2 N18_2 1_555 1_555
N14_2 C57_2 1_555 1_555
N23 C56_2 1_555 1_555
N18_2 C65_2 1_555 1_555
C52_2 C64_2 1_555 1_555
C54_2 C61_2 1_555 1_555
C67_2 C70_2 1_555 1_555
Co12 O14 1_555 1_555
O14 H69_2 1_555 1_555
O24_2 Co12 1_555 1_555
H66_2 O24_2 1_555 1_555
H67_2 O24_2 1_555 1_555
N24 Co12 1_555 1_555
O14 Co8_2 1_555 1_555
H39_2 O32 1_555 1_555
Co7 O15 1_555 1_555
O17_2 Co7 1_555 1_555
O20_2 C48_2 1_555 1_555
O21_2 Co8 1_555 1_555
C41_2 H40_2 1_555 1_555
N16_2 C41_2 1_555 1_555
C44_2 O17_2 1_555 1_555
N19 N21_2 1_555 1_555
C47_2 C62_2 1_555 1_555
C48_2 O21_2 1_555 1_555
C49_2 N16_2 1_555 1_555
N21_2 Co7 1_555 1_555
C53_2 N16_2 1_555 1_555
H45_2 C53_2 1_555 1_555
C55_2 C42_2 1_555 1_555
H46_2 C55_2 1_555 1_555
H47_2 C55_2 1_555 1_555
C62_2 H54_2 1_555 1_555
C63_2 C49_2 1_555 1_555
H55_2 C63_2 1_555 1_555
C66_2 C47_2 1_555 1_555
H58_2 C66_2 1_555 1_555
C68_2 C47_2 1_555 1_555
H60_2 C68_2 1_555 1_555
H61_2 C68_2 1_555 1_555
C69_2 C49_2 1_555 1_555
H62_2 C69_2 1_555 1_555
O23_2 Co7 1_555 1_555
H65_2 O23_2 1_555 1_555
H68_2 O15 1_555 1_555
Co10 N19 1_555 1_555
O15 Co8_3 1_555 1_555
O19_2 C44_2 1_555 1_555
C41_2 N21_2 1_555 1_555
C44_2 C55_2 1_555 1_555
N19 C53_2 1_555 1_555
C48_2 C68_2 1_555 1_555
C62_2 C69_2 1_555 1_555
C63_2 C66_2 1_555 1_555
Co15 O4_2 1_555 1_555
O4_2 Co8_2 1_555 1_555
O6_2 Co15 1_555 1_555
O9_2 C18_2 1_555 1_555
O10 C18_2 1_555 1_555
C11_2 H9_2 1_555 1_555
N7_2 C11_2 1_555 1_555
C14_2 O6_2 1_555 1_555
N24 N12_2 1_555 1_555
C17_2 C32_2 1_555 1_555
C18_2 C38_2 1_555 1_555
C19_2 N7_2 1_555 1_555
N12_2 Co15 1_555 1_555
C23_2 N7_2 1_555 1_555
H14_2 C23_2 1_555 1_555
C25_2 C12_2 1_555 1_555
H15_2 C25_2 1_555 1_555
H16_2 C25_2 1_555 1_555
C32_2 H23_2 1_555 1_555
C33_2 C19_2 1_555 1_555
H24_2 C33_2 1_555 1_555
C36_2 C17_2 1_555 1_555
H27_2 C36_2 1_555 1_555
C38_2 C17_2 1_555 1_555
H29_2 C38_2 1_555 1_555
H30_2 C38_2 1_555 1_555
C39_2 C19_2 1_555 1_555
H31_2 C39_2 1_555 1_555
O12_2 Co15 1_555 1_555
H34_2 O12_2 1_555 1_555
H37_2 O4_2 1_555 1_555
H70_2 O22 1_555 1_555
Co8_4 O10 1_555 1_555
O8_2 C14_2 1_555 1_555
C11_2 N12_2 1_555 1_555
C14_2 C25_2 1_555 1_555
N24 C23_2 1_555 1_555
C32_2 C39_2 1_555 1_555
C33_2 C36_2 1_555 1_555
Co8_3 O3_2 1_555 1_555
Co10 O3_2 1_555 1_555
O3_2 H38_2 1_555 1_555
O13_2 Co10 1_555 1_555
H35_2 O13_2 1_555 1_555
H36_2 O13_2 1_555 1_555
O27 C30_2 1_555 1_555
N5_2 C13_2 1_555 1_555
O29 C30_2 1_555 1_555
N6_2 C20_2 1_555 1_555
C13_2 C21_2 1_555 1_555
C15_2 H10_2 1_555 1_555
C16_2 C15_2 1_555 1_555
H11_2 C16_2 1_555 1_555
N26 C29_2 1_555 1_555
C20_2 C15_2 1_555 1_555
C21_2 H12_2 1_555 1_555
C22_2 C20_2 1_555 1_555
H13_2 C22_2 1_555 1_555
C24_2 C28_2 1_555 1_555
C26_2 N6_2 1_555 1_555
H17_2 C26_2 1_555 1_555
C27_2 N4_2 1_555 1_555
H18_2 C27_2 1_555 1_555
C28_2 H19_2 1_555 1_555
H20_2 C28_2 1_555 1_555
C29_2 N6_2 1_555 1_555
H21_2 C29_2 1_555 1_555
C30_2 C28_2 1_555 1_555
C31_2 C21_2 1_555 1_555
H22_2 C31_2 1_555 1_555
C35_2 N5_2 1_555 1_555
H26_2 C35_2 1_555 1_555
C37_2 C24_2 1_555 1_555
H28_2 C37_2 1_555 1_555
C40_2 C13_2 1_555 1_555
H32_2 C40_2 1_555 1_555
N4_2 N9_2 1_555 1_555
N5_2 C27_2 1_555 1_555
N22 C26_2 1_555 1_555
N9_2 C35_2 1_555 1_555
C22_2 C34_2 1_555 1_555
C24_2 C31_2 1_555 1_555
C37_2 C40_2 1_555 1_555

#END
