
###############################################################################
#
# This file contains modified crystal structure data generated from the
# MOF subset of the Cambridge Structural Database (CSD) v543 
# hosted by the Cambridge Crystallographic Data Centre (CCDC).
#
# This work is licensed under the Creative Commons
# Attribution-NonCommercial-ShareAlike 4.0 International License.
# To view a copy of this license, visit
# http://creativecommons.org/licenses/by-nc-sa/4.0/
# or send a letter to
# Creative Commons, PO Box 1866, Mountain View, CA 94042, USA.
#
# CIF created using the CSD Python API on 29 September 2022
# The structure has been converted into the P1 space group
# The structure has a 3D framework
# The original CSD entry ZOZQOX is in the orthorhombic crystal system
# The framework has been calculated to contain at least 10.0% void space
# The void calculation uses a probe of radius 1.32A, grid spacing 0.4
# The framework is charged, counterions have been retained in the structure
# H atom positions have been added when not included in the experimental data
#
###############################################################################

data_ZOZQOX
_chemical_formula_moiety         '(C88 H88 Cd8 N8 O48)n'
_symmetry_cell_setting           triclinic
_symmetry_space_group_name_H-M   'P 1'
_symmetry_Int_Tables_number      1
_space_group_name_Hall           'P 1'
loop_
_symmetry_equiv_pos_site_id
_symmetry_equiv_pos_as_xyz
1 x,y,z
_cell_length_a                   12.5634(3)
_cell_length_b                   16.1618(3)
_cell_length_c                   17.1222(3)
_cell_angle_alpha                90
_cell_angle_beta                 90
_cell_angle_gamma                90
_cell_volume                     3476.61
loop_
_atom_site_label
_atom_site_type_symbol
_atom_site_fract_x
_atom_site_fract_y
_atom_site_fract_z
H1 H 0.7313 0.4523 0.0131
H2 H 0.7049 0.3613 0.0383
N1 N 0.6321(5) 0.3951(3) 0.9396(3)
C1 C 0.7208(7) 0.3967(4) 0.9948(5)
H3 H 0.7842 0.3777 0.9693
C2 C 0.6131(8) 0.3117(5) 0.9102(5)
H4 H 0.5546 0.3126 0.8742
H5 H 0.6757 0.2920 0.8841
H6 H 0.5964 0.2756 0.9531
H10 H 0.64923 0.432914 0.89397
H11 H 0.565422 0.415588 0.966922
N1_2 N 0.8679(5) 0.1049(3) 0.4396(3)
C1_2 C 0.7792(7) 0.1033(4) 0.4948(5)
H1_2 H 0.7687 0.0477 0.5131
H2_2 H 0.7951 0.1387 0.5383
H3_2 H 0.7158 0.1223 0.4693
C2_2 C 0.8869(8) 0.1883(5) 0.4102(5)
H4_2 H 0.9454 0.1874 0.3742
H5_2 H 0.8243 0.2080 0.3841
H6_2 H 0.9036 0.2244 0.4531
H10_2 H 0.85077 0.0670858 0.39397
H11_2 H 0.934578 0.0844124 0.466922
N1_3 N 0.3679(5) 0.3951(3) 0.5604(3)
C1_3 C 0.2792(7) 0.3967(4) 0.5052(5)
H1_3 H 0.2687 0.4523 0.4869
H2_3 H 0.2951 0.3613 0.4617
H3_3 H 0.2158 0.3777 0.5307
C2_3 C 0.3869(8) 0.3117(5) 0.5898(5)
H4_3 H 0.4454 0.3126 0.6258
H5_3 H 0.3243 0.2920 0.6159
H6_3 H 0.4036 0.2756 0.5469
H10_3 H 0.35077 0.432914 0.60603
H11_3 H 0.434578 0.415588 0.533078
N1_4 N 0.1321(5) 0.1049(3) 0.0604(3)
C1_4 C 0.2208(7) 0.1033(4) 0.0052(5)
H3_4 H 0.2842 0.1223 0.0307
C2_4 C 0.1131(8) 0.1883(5) 0.0898(5)
H4_4 H 0.0546 0.1874 0.1258
H5_4 H 0.1757 0.2080 0.1159
H6_4 H 0.0964 0.2244 0.0469
H10_4 H 0.14923 0.0670858 0.10603
H11_4 H 0.065422 0.0844124 0.0330785
H1_4 H 0.2313 0.0477 0.9869
H2_4 H 0.2049 0.1387 0.9617
N1_5 N 0.3679(5) 0.6049(3) 0.0604(3)
C1_5 C 0.2792(7) 0.6033(4) 0.0052(5)
H3_5 H 0.2158 0.6223 0.0307
C2_5 C 0.3869(8) 0.6883(5) 0.0898(5)
H4_5 H 0.4454 0.6874 0.1258
H5_5 H 0.3243 0.7080 0.1159
H6_5 H 0.4036 0.7244 0.0469
H10_5 H 0.35077 0.567086 0.10603
H11_5 H 0.434578 0.584412 0.0330785
H1_5 H 0.2687 0.5477 0.9869
H2_5 H 0.2951 0.6387 0.9617
N1_6 N 0.1321(5) 0.8951(3) 0.5604(3)
C1_6 C 0.2208(7) 0.8967(4) 0.5052(5)
H1_6 H 0.2313 0.9523 0.4869
H2_6 H 0.2049 0.8613 0.4617
H3_6 H 0.2842 0.8777 0.5307
C2_6 C 0.1131(8) 0.8117(5) 0.5898(5)
H4_6 H 0.0546 0.8126 0.6258
H5_6 H 0.1757 0.7920 0.6159
H6_6 H 0.0964 0.7756 0.5469
H10_6 H 0.14923 0.932914 0.60603
H11_6 H 0.065422 0.915588 0.533078
N1_7 N 0.6321(5) 0.6049(3) 0.4396(3)
C1_7 C 0.7208(7) 0.6033(4) 0.4948(5)
H1_7 H 0.7313 0.5477 0.5131
H2_7 H 0.7049 0.6387 0.5383
H3_7 H 0.7842 0.6223 0.4693
C2_7 C 0.6131(8) 0.6883(5) 0.4102(5)
H4_7 H 0.5546 0.6874 0.3742
H5_7 H 0.6757 0.7080 0.3841
H6_7 H 0.5964 0.7244 0.4531
H10_7 H 0.64923 0.567086 0.39397
H11_7 H 0.565422 0.584412 0.466922
H1_8 H 0.7687 0.9523 0.0131
H2_8 H 0.7951 0.8613 0.0383
N1_8 N 0.8679(5) 0.8951(3) 0.9396(3)
C1_8 C 0.7792(7) 0.8967(4) 0.9948(5)
H3_8 H 0.7158 0.8777 0.9693
C2_8 C 0.8869(8) 0.8117(5) 0.9102(5)
H4_8 H 0.9454 0.8126 0.8742
H5_8 H 0.8243 0.7920 0.8841
H6_8 H 0.9036 0.7756 0.9531
H10_8 H 0.85077 0.932914 0.89397
H11_8 H 0.934578 0.915588 0.966922
Cd3 Cd 0.05926(2) 0.14297(2) 0.66625(2)
O7 O 0.0753(2) 0.23116(18) 0.86021(17)
O9 O 0.0981(2) 0.07480(16) 0.78891(16)
Cd1 Cd 0.94074(2) 0.14297(2) 0.83375(2)
O1 O 0.9247(2) 0.23116(18) 0.63979(17)
O2 O 0.5463(2) 0.41212(19) 0.46383(16)
O3 O 0.5981(2) 0.57480(16) 0.71109(16)
O4 O 0.8705(2) 0.24891(16) 0.76501(15)
O5 O 0.6446(3) 0.5051(2) 0.81636(17)
O6 O 0.6756(3) 0.3258(2) 0.43371(16)
C3 C 0.7442(3) 0.3829(2) 0.7176(2)
H7 H 0.7664 0.3834 0.7694
C4 C 0.7846(4) 0.3237(2) 0.6659(2)
C5 C 0.6273(3) 0.3718(2) 0.4823(2)
C6 C 0.8667(3) 0.2626(2) 0.6930(2)
C7 C 0.6700(3) 0.4417(2) 0.6912(2)
C8 C 0.6349(3) 0.5103(2) 0.7433(2)
C9 C 0.6324(3) 0.4386(2) 0.6148(2)
H8 H 0.5823 0.4769 0.5977
C10 C 0.7475(4) 0.3218(2) 0.5890(2)
H9 H 0.7748 0.2829 0.5543
C11 C 0.6704(3) 0.3772(2) 0.5637(2)
Cd2 Cd 0.55926(2) 0.35703(2) 0.33375(2)
Cd4 Cd 0.44074(2) 0.64297(2) 0.66625(2)
Cd5 Cd 0.55926(2) 0.64297(2) 0.83375(2)
O8 O 0.9537(2) 0.08788(19) 0.96383(16)
O10 O 0.9019(2) 0.07480(16) 0.71109(16)
O11 O 0.8554(3) 0.0051(2) 0.81636(17)
O12 O 0.8244(3) 0.1742(2) 0.93371(16)
Cd4_2 Cd 0.05926(2) 0.85703(2) 0.16625(2)
O1_2 O 0.5753(2) 0.26884(18) 0.13979(17)
O4_2 O 0.6295(2) 0.25109(16) 0.26501(15)
C3_2 C 0.7558(3) 0.1171(2) 0.2176(2)
H7_2 H 0.7336 0.1166 0.2694
C4_2 C 0.7154(4) 0.1763(2) 0.1659(2)
C6_2 C 0.6333(3) 0.2374(2) 0.1930(2)
C7_2 C 0.8300(3) 0.0583(2) 0.1912(2)
C9_2 C 0.8676(3) 0.0614(2) 0.1148(2)
H8_2 H 0.9177 0.0231 0.0977
C10_2 C 0.7525(4) 0.1782(2) 0.0890(2)
H9_2 H 0.7252 0.2171 0.0543
C11_2 C 0.8296(3) 0.1228(2) 0.0637(2)
Cd3_2 Cd 0.44074(2) 0.35703(2) 0.16625(2)
O7_2 O 0.4247(2) 0.26884(18) 0.36021(17)
O9_2 O 0.4019(2) 0.42520(16) 0.28891(16)
O10_2 O 0.5981(2) 0.42520(16) 0.21109(16)
O11_2 O 0.6446(3) 0.4949(2) 0.31636(17)
C5_2 C 0.8727(3) 0.1282(2) 0.9823(2)
O3_2 O 0.9019(2) 0.92520(16) 0.21109(16)
O5_2 O 0.8554(3) 0.9949(2) 0.31636(17)
C8_2 C 0.8651(3) 0.9897(2) 0.2433(2)
Cd5_2 Cd 0.94074(2) 0.85703(2) 0.33375(2)
O2_2 O 0.4537(2) 0.41212(19) 0.03617(16)
O6_2 O 0.3244(3) 0.3258(2) 0.06629(16)
C5_3 C 0.3727(3) 0.3718(2) 0.0177(2)
O3_3 O 0.4019(2) 0.57480(16) 0.78891(16)
O4_3 O 0.1295(2) 0.24891(16) 0.73499(15)
O5_3 O 0.3554(3) 0.5051(2) 0.68364(17)
C3_3 C 0.2558(3) 0.3829(2) 0.7824(2)
H7_3 H 0.2336 0.3834 0.7306
C4_3 C 0.2154(4) 0.3237(2) 0.8341(2)
C6_3 C 0.1333(3) 0.2626(2) 0.8070(2)
C7_3 C 0.3300(3) 0.4417(2) 0.8088(2)
C8_3 C 0.3651(3) 0.5103(2) 0.7567(2)
C9_3 C 0.3676(3) 0.4386(2) 0.8852(2)
H8_3 H 0.4177 0.4769 0.9023
C10_3 C 0.2525(4) 0.3218(2) 0.9110(2)
H9_3 H 0.2252 0.2829 0.9457
C11_3 C 0.3296(3) 0.3772(2) 0.9363(2)
O8_2 O 0.0463(2) 0.08788(19) 0.53617(16)
O11_3 O 0.1446(3) 0.0051(2) 0.68364(17)
O12_2 O 0.1756(3) 0.1742(2) 0.56629(16)
O4_4 O 0.3705(2) 0.25109(16) 0.23499(15)
C3_4 C 0.2442(3) 0.1171(2) 0.2824(2)
H7_4 H 0.2664 0.1166 0.2306
C4_4 C 0.2846(4) 0.1763(2) 0.3341(2)
C5_4 C 0.1273(3) 0.1282(2) 0.5177(2)
C6_4 C 0.3667(3) 0.2374(2) 0.3070(2)
C7_4 C 0.1700(3) 0.0583(2) 0.3088(2)
C9_4 C 0.1324(3) 0.0614(2) 0.3852(2)
H8_4 H 0.0823 0.0231 0.4023
C10_4 C 0.2475(4) 0.1782(2) 0.4110(2)
H9_4 H 0.2748 0.2171 0.4457
C11_4 C 0.1704(3) 0.1228(2) 0.4363(2)
O11_4 O 0.3554(3) 0.4949(2) 0.18364(17)
O3_4 O 0.0981(2) 0.92520(16) 0.28891(16)
O5_4 O 0.1446(3) 0.9949(2) 0.18364(17)
C8_4 C 0.1349(3) 0.9897(2) 0.2567(2)
O1_3 O 0.0753(2) 0.76884(18) 0.36021(17)
O2_3 O 0.4537(2) 0.58788(19) 0.53617(16)
O4_5 O 0.1295(2) 0.75109(16) 0.23499(15)
O6_3 O 0.3244(3) 0.6742(2) 0.56629(16)
C3_5 C 0.2558(3) 0.6171(2) 0.2824(2)
H7_5 H 0.2336 0.6166 0.2306
C4_5 C 0.2154(4) 0.6763(2) 0.3341(2)
C5_5 C 0.3727(3) 0.6282(2) 0.5177(2)
C6_5 C 0.1333(3) 0.7374(2) 0.3070(2)
C7_5 C 0.3300(3) 0.5583(2) 0.3088(2)
C8_5 C 0.3651(3) 0.4897(2) 0.2567(2)
C9_5 C 0.3676(3) 0.5614(2) 0.3852(2)
H8_5 H 0.4177 0.5231 0.4023
C10_5 C 0.2525(4) 0.6782(2) 0.4110(2)
H9_5 H 0.2252 0.7171 0.4457
C11_5 C 0.3296(3) 0.6228(2) 0.4363(2)
O8_3 O 0.0463(2) 0.91212(19) 0.03617(16)
O12_3 O 0.1756(3) 0.8258(2) 0.06629(16)
O7_3 O 0.9247(2) 0.76884(18) 0.13979(17)
C8_6 C 0.1349(3) 0.0103(2) 0.7567(2)
C5_6 C 0.1273(3) 0.8718(2) 0.0177(2)
O1_4 O 0.4247(2) 0.73116(18) 0.86021(17)
O4_6 O 0.3705(2) 0.74891(16) 0.73499(15)
C3_6 C 0.2442(3) 0.8829(2) 0.7824(2)
H7_6 H 0.2664 0.8834 0.7306
C4_6 C 0.2846(4) 0.8237(2) 0.8341(2)
C6_6 C 0.3667(3) 0.7626(2) 0.8070(2)
C7_6 C 0.1700(3) 0.9417(2) 0.8088(2)
C9_6 C 0.1324(3) 0.9386(2) 0.8852(2)
H8_6 H 0.0823 0.9769 0.9023
C10_6 C 0.2475(4) 0.8218(2) 0.9110(2)
H9_6 H 0.2748 0.7829 0.9457
C11_6 C 0.1704(3) 0.8772(2) 0.9363(2)
O7_4 O 0.5753(2) 0.73116(18) 0.63979(17)
O4_7 O 0.8705(2) 0.75109(16) 0.26501(15)
C3_7 C 0.7442(3) 0.6171(2) 0.2176(2)
H7_7 H 0.7664 0.6166 0.2694
C4_7 C 0.7846(4) 0.6763(2) 0.1659(2)
C6_7 C 0.8667(3) 0.7374(2) 0.1930(2)
C7_7 C 0.6700(3) 0.5583(2) 0.1912(2)
C8_7 C 0.6349(3) 0.4897(2) 0.2433(2)
C9_7 C 0.6324(3) 0.5614(2) 0.1148(2)
H8_7 H 0.5823 0.5231 0.0977
C10_7 C 0.7475(4) 0.6782(2) 0.0890(2)
H9_7 H 0.7748 0.7171 0.0543
C11_7 C 0.6704(3) 0.6228(2) 0.0637(2)
O8_4 O 0.9537(2) 0.91212(19) 0.46383(16)
O12_4 O 0.8244(3) 0.8258(2) 0.43371(16)
O2_4 O 0.5463(2) 0.58788(19) 0.96383(16)
O6_4 O 0.6756(3) 0.6742(2) 0.93371(16)
C5_7 C 0.6273(3) 0.6282(2) 0.9823(2)
C8_8 C 0.8651(3) 0.0103(2) 0.7433(2)
O4_8 O 0.6295(2) 0.74891(16) 0.76501(15)
C3_8 C 0.7558(3) 0.8829(2) 0.7176(2)
H7_8 H 0.7336 0.8834 0.7694
C4_8 C 0.7154(4) 0.8237(2) 0.6659(2)
C5_8 C 0.8727(3) 0.8718(2) 0.4823(2)
C6_8 C 0.6333(3) 0.7626(2) 0.6930(2)
C7_8 C 0.8300(3) 0.9417(2) 0.6912(2)
C9_8 C 0.8676(3) 0.9386(2) 0.6148(2)
H8_8 H 0.9177 0.9769 0.5977
C10_8 C 0.7525(4) 0.8218(2) 0.5890(2)
H9_8 H 0.7252 0.7829 0.5543
C11_8 C 0.8296(3) 0.8772(2) 0.5637(2)
loop_
_geom_bond_atom_site_label_1
_geom_bond_atom_site_label_2
_geom_bond_site_symmetry_1
_geom_bond_site_symmetry_2
N1 C1 1_555 1_555
H3 C1 1_555 1_555
C2 N1 1_555 1_555
H4 C2 1_555 1_555
H5 C2 1_555 1_555
H6 C2 1_555 1_555
N1 H10 1_555 1_555
N1 H11 1_555 1_555
N1_2 C1_2 1_555 1_555
C1_2 H1_2 1_555 1_555
H2_2 C1_2 1_555 1_555
H3_2 C1_2 1_555 1_555
C2_2 N1_2 1_555 1_555
H4_2 C2_2 1_555 1_555
H5_2 C2_2 1_555 1_555
H6_2 C2_2 1_555 1_555
N1_2 H10_2 1_555 1_555
N1_2 H11_2 1_555 1_555
N1_3 C1_3 1_555 1_555
C1_3 H1_3 1_555 1_555
H2_3 C1_3 1_555 1_555
H3_3 C1_3 1_555 1_555
C2_3 N1_3 1_555 1_555
H4_3 C2_3 1_555 1_555
H5_3 C2_3 1_555 1_555
H6_3 C2_3 1_555 1_555
N1_3 H10_3 1_555 1_555
N1_3 H11_3 1_555 1_555
N1_4 C1_4 1_555 1_555
H3_4 C1_4 1_555 1_555
C2_4 N1_4 1_555 1_555
H4_4 C2_4 1_555 1_555
H5_4 C2_4 1_555 1_555
H6_4 C2_4 1_555 1_555
N1_4 H10_4 1_555 1_555
N1_4 H11_4 1_555 1_555
N1_5 C1_5 1_555 1_555
H3_5 C1_5 1_555 1_555
C2_5 N1_5 1_555 1_555
H4_5 C2_5 1_555 1_555
H5_5 C2_5 1_555 1_555
H6_5 C2_5 1_555 1_555
N1_5 H10_5 1_555 1_555
N1_5 H11_5 1_555 1_555
N1_6 C1_6 1_555 1_555
C1_6 H1_6 1_555 1_555
H2_6 C1_6 1_555 1_555
H3_6 C1_6 1_555 1_555
C2_6 N1_6 1_555 1_555
H4_6 C2_6 1_555 1_555
H5_6 C2_6 1_555 1_555
H6_6 C2_6 1_555 1_555
N1_6 H10_6 1_555 1_555
N1_6 H11_6 1_555 1_555
N1_7 C1_7 1_555 1_555
C1_7 H1_7 1_555 1_555
H2_7 C1_7 1_555 1_555
H3_7 C1_7 1_555 1_555
C2_7 N1_7 1_555 1_555
H4_7 C2_7 1_555 1_555
H5_7 C2_7 1_555 1_555
H6_7 C2_7 1_555 1_555
N1_7 H10_7 1_555 1_555
N1_7 H11_7 1_555 1_555
N1_8 C1_8 1_555 1_555
H3_8 C1_8 1_555 1_555
C2_8 N1_8 1_555 1_555
H4_8 C2_8 1_555 1_555
H5_8 C2_8 1_555 1_555
H6_8 C2_8 1_555 1_555
N1_8 H10_8 1_555 1_555
N1_8 H11_8 1_555 1_555
Cd3 O9 1_555 1_555
Cd1 O4 1_555 1_555
O1 C6 1_555 1_555
O2 C5 1_555 1_555
O3 C8 1_555 1_555
O4 C6 1_555 1_555
O5 C8 1_555 1_555
O6 C5 1_555 1_555
C3 H7 1_555 1_555
C4 C3 1_555 1_555
C5 C11 1_555 1_555
C6 C4 1_555 1_555
C7 C3 1_555 1_555
C8 C7 1_555 1_555
C9 C7 1_555 1_555
H8 C9 1_555 1_555
C10 C4 1_555 1_555
H9 C10 1_555 1_555
C11 C9 1_555 1_555
Cd2 O2 1_555 1_555
Cd4 O3 1_555 1_555
Cd5 O3 1_555 1_555
O8 Cd1 1_555 1_555
O10 Cd1 1_555 1_555
O11 Cd1 1_555 1_555
O12 Cd1 1_555 1_555
O5 Cd5 1_555 1_555
O6 Cd2 1_555 1_555
C10 C11 1_555 1_555
Cd2 O4_2 1_555 1_555
O1_2 C6_2 1_555 1_555
O4_2 C6_2 1_555 1_555
C3_2 H7_2 1_555 1_555
C4_2 C3_2 1_555 1_555
C6_2 C4_2 1_555 1_555
C7_2 C3_2 1_555 1_555
C9_2 C7_2 1_555 1_555
H8_2 C9_2 1_555 1_555
C10_2 C4_2 1_555 1_555
H9_2 C10_2 1_555 1_555
C11_2 C9_2 1_555 1_555
Cd3_2 O1_2 1_555 1_555
O7_2 Cd2 1_555 1_555
O9_2 Cd2 1_555 1_555
O10_2 Cd2 1_555 1_555
O11_2 Cd2 1_555 1_555
C10_2 C11_2 1_555 1_555
Cd3_2 O9_2 1_555 1_555
Cd3_2 O10_2 1_555 1_555
O8 C5_2 1_555 1_555
O12 C5_2 1_555 1_555
O3_2 C8_2 1_555 1_555
O5_2 C8_2 1_555 1_555
Cd5_2 O3_2 1_555 1_555
O5_2 Cd5_2 1_555 1_555
O2_2 C5_3 1_555 1_555
O6_2 C5_3 1_555 1_555
Cd3_2 O2_2 1_555 1_555
O6_2 Cd3_2 1_555 1_555
Cd3 O4_3 1_555 1_555
O7 C6_3 1_555 1_555
O3_3 C8_3 1_555 1_555
O4_3 C6_3 1_555 1_555
O5_3 C8_3 1_555 1_555
C3_3 H7_3 1_555 1_555
C4_3 C3_3 1_555 1_555
C6_3 C4_3 1_555 1_555
C7_3 C3_3 1_555 1_555
C8_3 C7_3 1_555 1_555
C9_3 C7_3 1_555 1_555
H8_3 C9_3 1_555 1_555
C10_3 C4_3 1_555 1_555
H9_3 C10_3 1_555 1_555
C11_3 C9_3 1_555 1_555
Cd5 O3_3 1_555 1_555
Cd4 O3_3 1_555 1_555
O8_2 Cd3 1_555 1_555
O11_3 Cd3 1_555 1_555
O12_2 Cd3 1_555 1_555
O5_3 Cd4 1_555 1_555
C10_3 C11_3 1_555 1_555
Cd3_2 O4_4 1_555 1_555
O7_2 C6_4 1_555 1_555
O8_2 C5_4 1_555 1_555
O4_4 C6_4 1_555 1_555
O12_2 C5_4 1_555 1_555
C3_4 H7_4 1_555 1_555
C4_4 C3_4 1_555 1_555
C5_4 C11_4 1_555 1_555
C6_4 C4_4 1_555 1_555
C7_4 C3_4 1_555 1_555
C9_4 C7_4 1_555 1_555
H8_4 C9_4 1_555 1_555
C10_4 C4_4 1_555 1_555
H9_4 C10_4 1_555 1_555
C11_4 C9_4 1_555 1_555
O11_4 Cd3_2 1_555 1_555
C10_4 C11_4 1_555 1_555
O3_4 C8_4 1_555 1_555
O5_4 C8_4 1_555 1_555
Cd4_2 O3_4 1_555 1_555
O5_4 Cd4_2 1_555 1_555
Cd4_2 O4_5 1_555 1_555
O1_3 C6_5 1_555 1_555
O2_3 C5_5 1_555 1_555
O9_2 C8_5 1_555 1_555
O4_5 C6_5 1_555 1_555
O11_4 C8_5 1_555 1_555
O6_3 C5_5 1_555 1_555
C3_5 H7_5 1_555 1_555
C4_5 C3_5 1_555 1_555
C5_5 C11_5 1_555 1_555
C6_5 C4_5 1_555 1_555
C7_5 C3_5 1_555 1_555
C8_5 C7_5 1_555 1_555
C9_5 C7_5 1_555 1_555
H8_5 C9_5 1_555 1_555
C10_5 C4_5 1_555 1_555
H9_5 C10_5 1_555 1_555
C11_5 C9_5 1_555 1_555
Cd4 O2_3 1_555 1_555
O8_3 Cd4_2 1_555 1_555
O12_3 Cd4_2 1_555 1_555
O6_3 Cd4 1_555 1_555
C10_5 C11_5 1_555 1_555
O9 C8_6 1_555 1_555
O11_3 C8_6 1_555 1_555
O8_3 C5_6 1_555 1_555
O12_3 C5_6 1_555 1_555
Cd4 O4_6 1_555 1_555
O1_4 C6_6 1_555 1_555
O4_6 C6_6 1_555 1_555
C3_6 H7_6 1_555 1_555
C4_6 C3_6 1_555 1_555
C6_6 C4_6 1_555 1_555
C7_6 C3_6 1_555 1_555
C9_6 C7_6 1_555 1_555
H8_6 C9_6 1_555 1_555
C10_6 C4_6 1_555 1_555
H9_6 C10_6 1_555 1_555
C11_6 C9_6 1_555 1_555
Cd5 O1_4 1_555 1_555
O7_4 Cd4 1_555 1_555
C10_6 C11_6 1_555 1_555
Cd5_2 O4_7 1_555 1_555
O7_3 C6_7 1_555 1_555
O10_2 C8_7 1_555 1_555
O4_7 C6_7 1_555 1_555
O11_2 C8_7 1_555 1_555
C3_7 H7_7 1_555 1_555
C4_7 C3_7 1_555 1_555
C6_7 C4_7 1_555 1_555
C7_7 C3_7 1_555 1_555
C8_7 C7_7 1_555 1_555
C9_7 C7_7 1_555 1_555
H8_7 C9_7 1_555 1_555
C10_7 C4_7 1_555 1_555
H9_7 C10_7 1_555 1_555
C11_7 C9_7 1_555 1_555
O8_4 Cd5_2 1_555 1_555
O12_4 Cd5_2 1_555 1_555
C10_7 C11_7 1_555 1_555
O2_4 C5_7 1_555 1_555
O6_4 C5_7 1_555 1_555
Cd5 O2_4 1_555 1_555
O6_4 Cd5 1_555 1_555
O10 C8_8 1_555 1_555
O11 C8_8 1_555 1_555
Cd5 O4_8 1_555 1_555
O7_4 C6_8 1_555 1_555
O8_4 C5_8 1_555 1_555
O4_8 C6_8 1_555 1_555
O12_4 C5_8 1_555 1_555
C3_8 H7_8 1_555 1_555
C4_8 C3_8 1_555 1_555
C5_8 C11_8 1_555 1_555
C6_8 C4_8 1_555 1_555
C7_8 C3_8 1_555 1_555
C9_8 C7_8 1_555 1_555
H8_8 C9_8 1_555 1_555
C10_8 C4_8 1_555 1_555
H9_8 C10_8 1_555 1_555
C11_8 C9_8 1_555 1_555
C10_8 C11_8 1_555 1_555

#END
