
###############################################################################
#
# This file contains modified crystal structure data generated from the
# MOF subset of the Cambridge Structural Database (CSD) v543 
# hosted by the Cambridge Crystallographic Data Centre (CCDC).
#
# This work is licensed under the Creative Commons
# Attribution-NonCommercial-ShareAlike 4.0 International License.
# To view a copy of this license, visit
# http://creativecommons.org/licenses/by-nc-sa/4.0/
# or send a letter to
# Creative Commons, PO Box 1866, Mountain View, CA 94042, USA.
#
# CIF created using the CSD Python API on 29 September 2022
# The structure has been converted into the P1 space group
# The structure has a 3D framework
# The original CSD entry ZOZQUD is in the monoclinic crystal system
# The framework has been calculated to contain at least 10.0% void space
# The void calculation uses a probe of radius 1.32A, grid spacing 0.4
# The framework is charged, counterions have been retained in the structure
# H atom positions have been added when not included in the experimental data
#
###############################################################################

data_ZOZQUD
_chemical_formula_moiety         '(C108 H96 Cd18 O96 8-)n'
_symmetry_cell_setting           triclinic
_symmetry_space_group_name_H-M   'P 1'
_symmetry_Int_Tables_number      1
_space_group_name_Hall           'P 1'
loop_
_symmetry_equiv_pos_site_id
_symmetry_equiv_pos_as_xyz
1 x,y,z
_cell_length_a                   20.1064(5)
_cell_length_b                   14.0180(4)
_cell_length_c                   18.9293(5)
_cell_angle_alpha                90
_cell_angle_beta                 118.072(2)
_cell_angle_gamma                90
_cell_volume                     4707.6
loop_
_atom_site_label
_atom_site_type_symbol
_atom_site_fract_x
_atom_site_fract_y
_atom_site_fract_z
Cd4 Cd 0.67245(7) 0.24621(17) 0.11415(9)
Cd7 Cd 0.17254(7) 0.26446(11) 0.05929(9)
Cd16 Cd 0.49112(15) 0.1054(2) 0.04958(16)
O26 O 0.6558(8) 0.236(2) 0.2388(11)
O27 O 0.5609(18) 0.248(3) 0.121(2)
O30 O 0.7797(7) 0.2611(14) 0.0986(8)
O31 O 0.8030(7) 0.2344(12) 0.2214(7)
O35 O 0.6809(4) 0.4187(5) 0.1151(3)
O37 O 0.6923(14) 0.069(2) 0.1177(15)
Cd1 Cd 0.17254(7) 0.23554(11) 0.55929(9)
Cd3 Cd 0.49160(17) 0.1091(3) 0.54519(18)
Cd5 Cd 0.49112(15) 0.3946(2) 0.54958(16)
O1 O 0.3022(8) 0.2509(18) 0.5806(10)
O2 O 0.2801(7) 0.2492(17) 0.6805(8)
O3 O 0.3728(19) 0.370(3) 0.509(2)
O4 O 0.4799(17) 0.211(2) 0.9533(18)
O5 O 0.6040(13) 0.2621(18) 0.9787(14)
O6 O 0.502(3) 0.476(4) 0.663(3)
O7 O 0.6558(8) 0.264(2) 0.7388(11)
O8 O 0.5609(18) 0.252(3) 0.621(2)
O9 O 0.1047(8) 0.2222(18) 0.6278(10)
O11 O 0.1568(8) 0.2333(17) 0.9134(8)
O12 O 0.0638(8) 0.2774(12) 0.9360(9)
O20 O 0.3662(14) 0.1265(9) 0.5078(5)
O21 O 0.1554(15) 0.403(2) 0.5576(16)
O22 O 0.0006(13) 0.0293(16) 0.3442(12)
C1 C 0.3237(9) 0.2585(13) 0.6532(10)
C2 C 0.5100(4) 0.2530(7) 0.8444(4)
C3 C 0.4331(4) 0.2521(10) 0.7919(5)
H1 H 0.3987 0.2485 0.8118
C4 C 0.4075(4) 0.2567(11) 0.7098(5)
C5 C 0.4588(6) 0.2621(9) 0.6802(5)
H2 H 0.4417 0.2651 0.6252
C6 C 0.5358(6) 0.2629(11) 0.7326(6)
C7 C 0.5613(4) 0.2584(10) 0.8147(6)
H3 H 0.6128 0.2589 0.8498
C8 C 0.5406(13) 0.226(2) 0.9384(14)
C9 C 0.5906(10) 0.2609(15) 0.6995(10)
C10 C 0.0388(10) 0.2159(17) 0.6052(11)
C11 C 0.0609(4) 0.2346(6) 0.7468(4)
H4 H 0.1122 0.2307 0.7628
C12 C 0.0361(5) 0.2461(8) 0.8036(4)
C16 C 0.0089(5) 0.2291(9) 0.6660(4)
C18 C 0.0915(12) 0.2552(18) 0.8900(14)
C23 C 0.3229(4) 0.0788(4) 0.4349(3)
C24 C 0.291(2) 0.1299(9) 0.3591(5)
H11 H 0.2367 0.1258 0.3341
H12 H 0.3083 0.1019 0.3247
H13 H 0.3058 0.1956 0.3686
O23 O 0.4201(15) 0.512(2) 0.4603(16)
C25 C 0.3476(14) 0.513(2) 0.4199(16)
C26 C 0.318(3) 0.430(4) 0.441(3)
H14 H 0.2772 0.4508 0.4524
C27 C 0.281(4) 0.360(5) 0.360(4)
H15 H 0.3213 0.3336 0.3520
H16 H 0.2482 0.3965 0.3139
H17 H 0.2534 0.3091 0.3679
O24 O 0.3077(14) 0.569(2) 0.3823(15)
Cd12 Cd 0.32755(7) 0.74621(17) 0.38585(9)
Cd14 Cd 0.67245(7) 0.25379(17) 0.61415(9)
Cd15 Cd 0.50888(15) 0.6054(2) 0.45042(16)
O25 O 0.4799(17) 0.289(2) 0.4533(18)
O28 O 0.1568(8) 0.2667(17) 0.4134(8)
O29 O 0.0638(8) 0.2226(12) 0.4360(9)
O32 O 0.0787(3) 0.0127(6) 0.5402(3)
O33 O 0.1906(3) 0.0744(5) 0.5700(3)
O34 O 0.5703(3) 0.0213(9) 0.5310(3)
O36 O 0.5799(15) 0.488(2) 0.5397(16)
H18 H 0.487856 0.432604 0.695216
H19 H 0.554848 0.497638 0.695887
H20 H 0.0513527 0.0399033 0.348889
H22 H 0.162177 0.431521 0.513391
H23 H 0.1038 0.41708 0.549254
H24 H 0.273434 0.0553856 0.439496
O18 O 0.4297(3) 0.9787(9) 0.4690(3)
O19 O 0.3191(4) 0.9187(5) 0.3849(3)
C22 C 0.35716(17) 0.9899(3) 0.42893(11)
Cd8 Cd 0.00809(8) 0.89248(11) 0.55554(8)
Cd10 Cd 0.50840(17) 0.8909(3) 0.45481(18)
Cd2 Cd 0.99191(8) 0.10752(11) 0.44446(8)
O10 O 0.9870(8) 0.2051(15) 0.5343(8)
O13 O 0.7797(7) 0.2389(14) 0.5986(8)
O14 O 0.8030(7) 0.2656(12) 0.7214(7)
O17 O 0.8633(4) 0.1303(8) 0.3566(5)
C13 C 0.9594(5) 0.2520(9) 0.7796(6)
H5 H 0.9429 0.2596 0.8176
C14 C 0.9075(4) 0.2464(10) 0.6988(7)
C15 C 0.9322(4) 0.2350(11) 0.6420(5)
H6 H 0.8974 0.2313 0.5880
C17 C 0.8245(9) 0.2435(14) 0.6732(12)
C20 C 0.8125(3) 0.0781(4) 0.3735(3)
H7 H 0.7733 0.0541 0.3220
C21 C 0.7734(5) 0.1263(12) 0.4115(5)
H8 H 0.8092 0.1607 0.4576
H9 H 0.7481 0.0799 0.4277
H10 H 0.7371 0.1700 0.3742
Cd9 Cd 0.99191(8) 0.39248(11) 0.94446(8)
O15 O 0.9213(3) 0.9873(6) 0.4598(3)
O16 O 0.8094(3) 0.9256(5) 0.4300(3)
C19 C 0.8484(2) 0.9944(3) 0.42238(12)
Cd6 Cd 0.82746(7) 0.76446(11) 0.44071(9)
H21 H 0.992694 0.959972 0.348067
Cd2_2 Cd 0.00809(8) 0.60752(11) 0.05554(8)
O15_2 O 0.0787(3) 0.4873(6) 0.0402(3)
O16_2 O 0.1906(3) 0.4256(5) 0.0700(3)
O17_2 O 0.1367(4) 0.6303(8) 0.1434(5)
C19_2 C 0.1516(2) 0.4944(3) 0.07762(12)
C20_2 C 0.1875(3) 0.5781(4) 0.1265(3)
H7_2 H 0.2267 0.5541 0.1780
C21_2 C 0.2266(5) 0.6263(12) 0.0885(5)
H8_2 H 0.1908 0.6607 0.0424
H9_2 H 0.2519 0.5799 0.0723
H10_2 H 0.2629 0.6700 0.1258
H21_2 H 0.00730627 0.459972 0.151933
O10_2 O 0.0130(8) 0.7051(15) 0.9657(8)
O13_2 O 0.2203(7) 0.7389(14) 0.9014(8)
O14_2 O 0.1970(7) 0.7656(12) 0.7786(7)
C13_2 C 0.0406(5) 0.7520(9) 0.7204(6)
H5_2 H 0.0571 0.7596 0.6824
C14_2 C 0.0925(4) 0.7464(10) 0.8012(7)
C15_2 C 0.0678(4) 0.7350(11) 0.8580(5)
H6_2 H 0.1026 0.7313 0.9120
C17_2 C 0.1755(9) 0.7435(14) 0.8268(12)
Cd13 Cd 0.32755(7) 0.75379(17) 0.88585(9)
O23_2 O 0.5799(15) 0.012(2) 0.0397(16)
C25_2 C 0.6524(14) 0.013(2) 0.0801(16)
O18_2 O 0.5703(3) 0.4787(9) 0.0310(3)
O22_2 O 0.9994(13) 0.5293(16) 0.1558(12)
C22_2 C 0.64284(17) 0.4899(3) 0.07107(11)
C23_2 C 0.6771(4) 0.5788(4) 0.0651(3)
C24_2 C 0.709(2) 0.6299(9) 0.1409(5)
H11_2 H 0.7633 0.6258 0.1659
H12_2 H 0.6917 0.6019 0.1753
H13_2 H 0.6942 0.6956 0.1314
C26_2 C 0.682(3) 0.930(4) 0.059(3)
H14_2 H 0.7228 0.9508 0.0476
C27_2 C 0.719(4) 0.860(5) 0.140(4)
H15_2 H 0.6787 0.8336 0.1480
H16_2 H 0.7518 0.8965 0.1861
H17_2 H 0.7466 0.8091 0.1321
Cd10_2 Cd 0.49160(17) 0.3909(3) 0.04519(18)
O25_2 O 0.5201(17) 0.789(2) 0.0467(18)
O28_2 O 0.8432(8) 0.7667(17) 0.0866(8)
O29_2 O 0.9362(8) 0.7226(12) 0.0640(9)
H20_2 H 0.948647 0.539903 0.151111
H24_2 H 0.726566 0.555386 0.0605042
Cd1_2 Cd 0.82746(7) 0.73554(11) 0.94071(9)
Cd3_2 Cd 0.50840(17) 0.6091(3) 0.95481(18)
Cd5_2 Cd 0.50888(15) 0.8946(2) 0.95042(16)
O1_2 O 0.6978(8) 0.7509(18) 0.9194(10)
O2_2 O 0.7199(7) 0.7492(17) 0.8195(8)
O3_2 O 0.6272(19) 0.870(3) 0.991(2)
O4_2 O 0.5201(17) 0.711(2) 0.5467(18)
O5_2 O 0.3960(13) 0.7621(18) 0.5213(14)
O6_2 O 0.498(3) 0.976(4) 0.837(3)
O7_2 O 0.3442(8) 0.764(2) 0.7612(11)
O8_2 O 0.4391(18) 0.752(3) 0.879(2)
O9_2 O 0.8953(8) 0.7222(18) 0.8722(10)
O11_2 O 0.8432(8) 0.7333(17) 0.5866(8)
O12_2 O 0.9362(8) 0.7774(12) 0.5640(9)
O20_2 O 0.6338(14) 0.6265(9) 0.9922(5)
O21_2 O 0.8446(15) 0.903(2) 0.9424(16)
C1_2 C 0.6763(9) 0.7585(13) 0.8468(10)
C2_2 C 0.4900(4) 0.7530(7) 0.6556(4)
C3_2 C 0.5669(4) 0.7521(10) 0.7081(5)
H1_2 H 0.6013 0.7485 0.6882
C4_2 C 0.5925(4) 0.7567(11) 0.7902(5)
C5_2 C 0.5412(6) 0.7621(9) 0.8198(5)
H2_2 H 0.5583 0.7651 0.8748
C6_2 C 0.4642(6) 0.7629(11) 0.7674(6)
C7_2 C 0.4387(4) 0.7584(10) 0.6853(6)
H3_2 H 0.3872 0.7589 0.6502
C8_2 C 0.4594(13) 0.726(2) 0.5616(14)
C9_2 C 0.4094(10) 0.7609(15) 0.8005(10)
C10_2 C 0.9612(10) 0.7159(17) 0.8948(11)
C11_2 C 0.9391(4) 0.7346(6) 0.7532(4)
H4_2 H 0.8878 0.7307 0.7372
C12_2 C 0.9639(5) 0.7461(8) 0.6964(4)
C16_2 C 0.9911(5) 0.7291(9) 0.8340(4)
C18_2 C 0.9085(12) 0.7552(18) 0.6100(14)
O26_2 O 0.3442(8) 0.736(2) 0.2612(11)
O27_2 O 0.4391(18) 0.748(3) 0.379(2)
O30_2 O 0.2203(7) 0.7611(14) 0.4014(8)
O31_2 O 0.1970(7) 0.7344(12) 0.2786(7)
O32_2 O 0.9213(3) 0.5127(6) 0.9598(3)
O33_2 O 0.8094(3) 0.5744(5) 0.9300(3)
O34_2 O 0.4297(3) 0.5213(9) 0.9690(3)
O36_2 O 0.4201(15) 0.988(2) 0.9603(16)
H18_2 H 0.512144 0.932604 0.804784
H19_2 H 0.445152 0.997638 0.804113
H22_2 H 0.837823 0.931521 0.986609
H23_2 H 0.8962 0.91708 0.950746
C19_3 C 0.1516(2) 0.0056(3) 0.57762(12)
H21_3 H 0.00730627 0.0400279 0.651933
O10_3 O 0.0130(8) 0.7949(15) 0.4657(8)
O17_3 O 0.1367(4) 0.8697(8) 0.6434(5)
C13_3 C 0.0406(5) 0.7480(9) 0.2204(6)
H5_3 H 0.0571 0.7404 0.1824
C14_3 C 0.0925(4) 0.7536(10) 0.3012(7)
C15_3 C 0.0678(4) 0.7650(11) 0.3580(5)
H6_3 H 0.1026 0.7687 0.4120
C17_3 C 0.1755(9) 0.7565(14) 0.3268(12)
C20_3 C 0.1875(3) 0.9219(4) 0.6265(3)
H7_3 H 0.2267 0.9459 0.6780
C21_3 C 0.2266(5) 0.8737(12) 0.5885(5)
H8_3 H 0.1908 0.8393 0.5424
H9_3 H 0.2519 0.9201 0.5723
H10_3 H 0.2629 0.8300 0.6258
O19_2 O 0.6809(4) 0.0813(5) 0.6151(3)
C22_3 C 0.64284(17) 0.0101(3) 0.57107(11)
O1_3 O 0.6978(8) 0.7491(18) 0.4194(10)
O2_3 O 0.7199(7) 0.7508(17) 0.3195(8)
O3_3 O 0.6272(19) 0.630(3) 0.491(2)
O5_3 O 0.3960(13) 0.7379(18) 0.0213(14)
O6_3 O 0.498(3) 0.524(4) 0.337(3)
O9_3 O 0.8953(8) 0.7778(18) 0.3722(10)
O20_3 O 0.6338(14) 0.8735(9) 0.4922(5)
O21_3 O 0.8446(15) 0.597(2) 0.4424(16)
O22_3 O 0.9994(13) 0.9707(16) 0.6558(12)
C1_3 C 0.6763(9) 0.7415(13) 0.3468(10)
C2_3 C 0.4900(4) 0.7470(7) 0.1556(4)
C3_3 C 0.5669(4) 0.7479(10) 0.2081(5)
H1_3 H 0.6013 0.7515 0.1882
C4_3 C 0.5925(4) 0.7433(11) 0.2902(5)
C5_3 C 0.5412(6) 0.7379(9) 0.3198(5)
H2_3 H 0.5583 0.7349 0.3748
C6_3 C 0.4642(6) 0.7371(11) 0.2674(6)
C7_3 C 0.4387(4) 0.7416(10) 0.1853(6)
H3_3 H 0.3872 0.7411 0.1502
C8_3 C 0.4594(13) 0.774(2) 0.0616(14)
C9_3 C 0.4094(10) 0.7391(15) 0.3005(10)
C10_3 C 0.9612(10) 0.7841(17) 0.3948(11)
C11_3 C 0.9391(4) 0.7654(6) 0.2532(4)
H4_3 H 0.8878 0.7693 0.2372
C12_3 C 0.9639(5) 0.7539(8) 0.1964(4)
C16_3 C 0.9911(5) 0.7709(9) 0.3340(4)
C18_3 C 0.9085(12) 0.7448(18) 0.1100(14)
C23_3 C 0.6771(4) 0.9212(4) 0.5651(3)
C24_3 C 0.709(2) 0.8701(9) 0.6409(5)
H11_3 H 0.7633 0.8742 0.6659
H12_3 H 0.6917 0.8981 0.6753
H13_3 H 0.6942 0.8044 0.6314
C25_3 C 0.6524(14) 0.487(2) 0.5801(16)
C26_3 C 0.682(3) 0.570(4) 0.559(3)
H14_3 H 0.7228 0.5492 0.5476
C27_3 C 0.719(4) 0.640(5) 0.640(4)
H15_3 H 0.6787 0.6664 0.6480
H16_3 H 0.7518 0.6035 0.6861
H17_3 H 0.7466 0.6909 0.6321
O24_2 O 0.6923(14) 0.431(2) 0.6177(15)
H18_3 H 0.512144 0.567396 0.304784
H19_3 H 0.445152 0.502362 0.304113
H20_3 H 0.948647 0.960097 0.651111
H22_3 H 0.837823 0.568479 0.486609
H23_3 H 0.8962 0.58292 0.450746
H24_3 H 0.726566 0.944614 0.560504
O35_2 O 0.3191(4) 0.5813(5) 0.8849(3)
O37_2 O 0.3077(14) 0.931(2) 0.8823(15)
O1_4 O 0.3022(8) 0.2491(18) 0.0806(10)
O2_4 O 0.2801(7) 0.2508(17) 0.1805(8)
O3_4 O 0.3728(19) 0.130(3) 0.009(2)
O5_4 O 0.6040(13) 0.2379(18) 0.4787(14)
O6_4 O 0.502(3) 0.024(4) 0.163(3)
O9_4 O 0.1047(8) 0.2778(18) 0.1278(10)
O20_4 O 0.3662(14) 0.3735(9) 0.0078(5)
O21_4 O 0.1554(15) 0.097(2) 0.0576(16)
C1_4 C 0.3237(9) 0.2415(13) 0.1532(10)
C2_4 C 0.5100(4) 0.2470(7) 0.3444(4)
C3_4 C 0.4331(4) 0.2479(10) 0.2919(5)
H1_4 H 0.3987 0.2515 0.3118
C4_4 C 0.4075(4) 0.2433(11) 0.2098(5)
C5_4 C 0.4588(6) 0.2379(9) 0.1802(5)
H2_4 H 0.4417 0.2349 0.1252
C6_4 C 0.5358(6) 0.2371(11) 0.2326(6)
C7_4 C 0.5613(4) 0.2416(10) 0.3147(6)
H3_4 H 0.6128 0.2411 0.3498
C8_4 C 0.5406(13) 0.274(2) 0.4384(14)
C9_4 C 0.5906(10) 0.2391(15) 0.1995(10)
C10_4 C 0.0388(10) 0.2841(17) 0.1052(11)
C11_4 C 0.0609(4) 0.2654(6) 0.2468(4)
H4_4 H 0.1122 0.2693 0.2628
C12_4 C 0.0361(5) 0.2539(8) 0.3036(4)
C16_4 C 0.0089(5) 0.2709(9) 0.1660(4)
C18_4 C 0.0915(12) 0.2448(18) 0.3900(14)
H18_4 H 0.487856 0.0673957 0.195216
H19_4 H 0.554848 0.00236187 0.195887
H22_4 H 0.162177 0.0684789 0.0133908
H23_4 H 0.1038 0.0829201 0.0492536
O22_4 O 0.0006(13) 0.4707(16) 0.8442(12)
C22_4 C 0.35716(17) 0.5101(3) 0.92893(11)
C23_4 C 0.3229(4) 0.4212(4) 0.9349(3)
C24_4 C 0.291(2) 0.3701(9) 0.8591(5)
H11_4 H 0.2367 0.3742 0.8341
H12_4 H 0.3083 0.3981 0.8247
H13_4 H 0.3058 0.3044 0.8686
C26_4 C 0.318(3) 0.070(4) 0.941(3)
H14_4 H 0.2772 0.0492 0.9524
C27_4 C 0.281(4) 0.140(5) 0.860(4)
H15_4 H 0.3213 0.1664 0.8520
H16_4 H 0.2482 0.1035 0.8139
H17_4 H 0.2534 0.1909 0.8679
H20_4 H 0.0513527 0.460097 0.848889
H24_4 H 0.273434 0.444614 0.939496
C25_4 C 0.3476(14) 0.987(2) 0.9199(16)
O10_4 O 0.9870(8) 0.2949(15) 0.0343(8)
C13_4 C 0.9594(5) 0.2480(9) 0.2796(6)
H5_4 H 0.9429 0.2404 0.3176
C14_4 C 0.9075(4) 0.2536(10) 0.1988(7)
C15_4 C 0.9322(4) 0.2650(11) 0.1420(5)
H6_4 H 0.8974 0.2687 0.0880
C17_4 C 0.8245(9) 0.2565(14) 0.1732(12)
O17_4 O 0.8633(4) 0.3697(8) 0.8566(5)
C19_4 C 0.8484(2) 0.5056(3) 0.92238(12)
C20_4 C 0.8125(3) 0.4219(4) 0.8735(3)
H7_4 H 0.7733 0.4459 0.8220
C21_4 C 0.7734(5) 0.3737(12) 0.9115(5)
H8_4 H 0.8092 0.3393 0.9576
H9_4 H 0.7481 0.4201 0.9277
H10_4 H 0.7371 0.3300 0.8742
H21_4 H 0.992694 0.540028 0.848067
loop_
_geom_bond_atom_site_label_1
_geom_bond_atom_site_label_2
_geom_bond_site_symmetry_1
_geom_bond_site_symmetry_2
O26 Cd4 1_555 1_555
O27 Cd4 1_555 1_555
O30 Cd4 1_555 1_555
O31 Cd4 1_555 1_555
O35 Cd4 1_555 1_555
O37 Cd4 1_555 1_555
Cd16 O27 1_555 1_555
Cd1 O1 1_555 1_555
Cd3 O8 1_555 1_555
Cd5 O3 1_555 1_555
O1 C1 1_555 1_555
O2 Cd1 1_555 1_555
O3 C26 1_555 1_555
O4 C8 1_555 1_555
O5 C8 1_555 1_555
O6 Cd5 1_555 1_555
O7 C9 1_555 1_555
O8 Cd5 1_555 1_555
O9 Cd1 1_555 1_555
O11 C18 1_555 1_555
O12 C18 1_555 1_555
O20 Cd3 1_555 1_555
O21 Cd1 1_555 1_555
C1 O2 1_555 1_555
C2 C3 1_555 1_555
C3 H1 1_555 1_555
C4 C1 1_555 1_555
C5 C4 1_555 1_555
H2 C5 1_555 1_555
C6 C5 1_555 1_555
C7 C2 1_555 1_555
H3 C7 1_555 1_555
C8 C2 1_555 1_555
C9 O8 1_555 1_555
C10 O9 1_555 1_555
C11 H4 1_555 1_555
C12 C11 1_555 1_555
C16 C10 1_555 1_555
C18 C12 1_555 1_555
C23 O20 1_555 1_555
C24 C23 1_555 1_555
H11 C24 1_555 1_555
H12 C24 1_555 1_555
H13 C24 1_555 1_555
O23 Cd5 1_555 1_555
C25 O23 1_555 1_555
C26 C25 1_555 1_555
H14 C26 1_555 1_555
C27 C26 1_555 1_555
H15 C27 1_555 1_555
H16 C27 1_555 1_555
H17 C27 1_555 1_555
O24 C25 1_555 1_555
Cd12 O24 1_555 1_555
Cd14 O7 1_555 1_555
Cd15 O23 1_555 1_555
O25 Cd5 1_555 1_555
O28 Cd1 1_555 1_555
O29 Cd1 1_555 1_555
O33 Cd1 1_555 1_555
O34 Cd3 1_555 1_555
O36 Cd5 1_555 1_555
O8 Cd14 1_555 1_555
C3 C4 1_555 1_555
C6 C7 1_555 1_555
C6 C9 1_555 1_555
C11 C16 1_555 1_555
Cd15 O36 1_555 1_555
O6 H18 1_555 1_555
O6 H19 1_555 1_555
O22 H20 1_555 1_555
O21 H22 1_555 1_555
O21 H23 1_555 1_555
C23 H24 1_555 1_555
O19 C22 1_555 1_555
C22 O18 1_555 1_555
Cd10 O18 1_555 1_555
Cd12 O19 1_555 1_555
Cd2 O10 1_555 1_555
O13 C17 1_555 1_555
O14 C17 1_555 1_555
O17 Cd2 1_555 1_555
H5 C13 1_555 1_555
C14 C13 1_555 1_555
C15 C14 1_555 1_555
H6 C15 1_555 1_555
C17 C14 1_555 1_555
C20 O17 1_555 1_555
H7 C20 1_555 1_555
C21 C20 1_555 1_555
H8 C21 1_555 1_555
H9 C21 1_555 1_555
H10 C21 1_555 1_555
Cd14 O13 1_555 1_555
O14 Cd14 1_555 1_555
O16 C19 1_555 1_555
C19 O15 1_555 1_555
Cd6 O16 1_555 1_555
O15_2 Cd2_2 1_555 1_555
O16_2 C19_2 1_555 1_555
O17_2 Cd2_2 1_555 1_555
C19_2 O15_2 1_555 1_555
C20_2 O17_2 1_555 1_555
H7_2 C20_2 1_555 1_555
C21_2 C20_2 1_555 1_555
H8_2 C21_2 1_555 1_555
H9_2 C21_2 1_555 1_555
H10_2 C21_2 1_555 1_555
Cd7 O16_2 1_555 1_555
C19_2 C20_2 1_555 1_555
O13_2 C17_2 1_555 1_555
O14_2 C17_2 1_555 1_555
H5_2 C13_2 1_555 1_555
C14_2 C13_2 1_555 1_555
C15_2 C14_2 1_555 1_555
H6_2 C15_2 1_555 1_555
C17_2 C14_2 1_555 1_555
Cd13 O13_2 1_555 1_555
O14_2 Cd13 1_555 1_555
C25_2 O23_2 1_555 1_555
O37 C25_2 1_555 1_555
Cd16 O23_2 1_555 1_555
O35 C22_2 1_555 1_555
C22_2 O18_2 1_555 1_555
C24_2 C23_2 1_555 1_555
H11_2 C24_2 1_555 1_555
H12_2 C24_2 1_555 1_555
H13_2 C24_2 1_555 1_555
H14_2 C26_2 1_555 1_555
C27_2 C26_2 1_555 1_555
H15_2 C27_2 1_555 1_555
H16_2 C27_2 1_555 1_555
H17_2 C27_2 1_555 1_555
Cd10_2 O18_2 1_555 1_555
C22_2 C23_2 1_555 1_555
O22_2 H20_2 1_555 1_555
C23_2 H24_2 1_555 1_555
Cd1_2 O1_2 1_555 1_555
Cd3_2 O8_2 1_555 1_555
Cd12 O5_2 1_555 1_555
Cd5_2 O3_2 1_555 1_555
O1_2 C1_2 1_555 1_555
O2_2 Cd1_2 1_555 1_555
O4_2 C8_2 1_555 1_555
O5_2 C8_2 1_555 1_555
O6_2 Cd5_2 1_555 1_555
O7_2 C9_2 1_555 1_555
O8_2 Cd5_2 1_555 1_555
O9_2 Cd1_2 1_555 1_555
O11_2 C18_2 1_555 1_555
O12_2 C18_2 1_555 1_555
O20_2 Cd3_2 1_555 1_555
O21_2 Cd1_2 1_555 1_555
C1_2 O2_2 1_555 1_555
C2_2 C3_2 1_555 1_555
C3_2 H1_2 1_555 1_555
C4_2 C1_2 1_555 1_555
C5_2 C4_2 1_555 1_555
H2_2 C5_2 1_555 1_555
C6_2 C5_2 1_555 1_555
C7_2 C2_2 1_555 1_555
H3_2 C7_2 1_555 1_555
C8_2 C2_2 1_555 1_555
C9_2 O8_2 1_555 1_555
C10_2 O9_2 1_555 1_555
C11_2 H4_2 1_555 1_555
C12_2 C11_2 1_555 1_555
C16_2 C10_2 1_555 1_555
C18_2 C12_2 1_555 1_555
Cd6 O11_2 1_555 1_555
Cd13 O7_2 1_555 1_555
Cd15 O4_2 1_555 1_555
O26_2 Cd12 1_555 1_555
O27_2 Cd12 1_555 1_555
O30_2 Cd12 1_555 1_555
O31_2 Cd12 1_555 1_555
O33_2 Cd1_2 1_555 1_555
O34_2 Cd3_2 1_555 1_555
O36_2 Cd5_2 1_555 1_555
O8_2 Cd13 1_555 1_555
O12_2 Cd6 1_555 1_555
C3_2 C4_2 1_555 1_555
C6_2 C7_2 1_555 1_555
C6_2 C9_2 1_555 1_555
C11_2 C16_2 1_555 1_555
Cd9 O32_2 1_555 1_555
Cd15 O27_2 1_555 1_555
O6_2 H18_2 1_555 1_555
O6_2 H19_2 1_555 1_555
O21_2 H22_2 1_555 1_555
O21_2 H23_2 1_555 1_555
O33 C19_3 1_555 1_555
C19_3 O32 1_555 1_555
Cd8 O10_3 1_555 1_555
O30_2 C17_3 1_555 1_555
O31_2 C17_3 1_555 1_555
O17_3 Cd8 1_555 1_555
H5_3 C13_3 1_555 1_555
C14_3 C13_3 1_555 1_555
C15_3 C14_3 1_555 1_555
H6_3 C15_3 1_555 1_555
C17_3 C14_3 1_555 1_555
C20_3 O17_3 1_555 1_555
H7_3 C20_3 1_555 1_555
C21_3 C20_3 1_555 1_555
H8_3 C21_3 1_555 1_555
H9_3 C21_3 1_555 1_555
H10_3 C21_3 1_555 1_555
O19_2 C22_3 1_555 1_555
C22_3 O34 1_555 1_555
Cd14 O19_2 1_555 1_555
Cd6 O1_3 1_555 1_555
Cd10 O27_2 1_555 1_555
Cd15 O3_3 1_555 1_555
O1_3 C1_3 1_555 1_555
O2_3 Cd6 1_555 1_555
O3_3 C26_3 1_555 1_555
O25_2 C8_3 1_555 1_555
O5_3 C8_3 1_555 1_555
O6_3 Cd15 1_555 1_555
O26_2 C9_3 1_555 1_555
O9_3 Cd6 1_555 1_555
O28_2 C18_3 1_555 1_555
O29_2 C18_3 1_555 1_555
O20_3 Cd10 1_555 1_555
O21_3 Cd6 1_555 1_555
C1_3 O2_3 1_555 1_555
C2_3 C3_3 1_555 1_555
C3_3 H1_3 1_555 1_555
C4_3 C1_3 1_555 1_555
C5_3 C4_3 1_555 1_555
H2_3 C5_3 1_555 1_555
C6_3 C5_3 1_555 1_555
C7_3 C2_3 1_555 1_555
H3_3 C7_3 1_555 1_555
C8_3 C2_3 1_555 1_555
C9_3 O27_2 1_555 1_555
C10_3 O9_3 1_555 1_555
C11_3 H4_3 1_555 1_555
C12_3 C11_3 1_555 1_555
C16_3 C10_3 1_555 1_555
C18_3 C12_3 1_555 1_555
C23_3 O20_3 1_555 1_555
C24_3 C23_3 1_555 1_555
H11_3 C24_3 1_555 1_555
H12_3 C24_3 1_555 1_555
H13_3 C24_3 1_555 1_555
C25_3 O36 1_555 1_555
C26_3 C25_3 1_555 1_555
H14_3 C26_3 1_555 1_555
C27_3 C26_3 1_555 1_555
H15_3 C27_3 1_555 1_555
H16_3 C27_3 1_555 1_555
H17_3 C27_3 1_555 1_555
O24_2 C25_3 1_555 1_555
Cd14 O24_2 1_555 1_555
C3_3 C4_3 1_555 1_555
C6_3 C7_3 1_555 1_555
C6_3 C9_3 1_555 1_555
C11_3 C16_3 1_555 1_555
O6_3 H18_3 1_555 1_555
O6_3 H19_3 1_555 1_555
O22_3 H20_3 1_555 1_555
O21_3 H22_3 1_555 1_555
O21_3 H23_3 1_555 1_555
C23_3 H24_3 1_555 1_555
O35_2 Cd13 1_555 1_555
O37_2 Cd13 1_555 1_555
Cd7 O1_4 1_555 1_555
Cd10_2 O27 1_555 1_555
Cd14 O5_4 1_555 1_555
Cd16 O3_4 1_555 1_555
O1_4 C1_4 1_555 1_555
O2_4 Cd7 1_555 1_555
O25 C8_4 1_555 1_555
O5_4 C8_4 1_555 1_555
O6_4 Cd16 1_555 1_555
O26 C9_4 1_555 1_555
O9_4 Cd7 1_555 1_555
O28 C18_4 1_555 1_555
O29 C18_4 1_555 1_555
O20_4 Cd10_2 1_555 1_555
O21_4 Cd7 1_555 1_555
C1_4 O2_4 1_555 1_555
C2_4 C3_4 1_555 1_555
C3_4 H1_4 1_555 1_555
C4_4 C1_4 1_555 1_555
C5_4 C4_4 1_555 1_555
H2_4 C5_4 1_555 1_555
C6_4 C5_4 1_555 1_555
C7_4 C2_4 1_555 1_555
H3_4 C7_4 1_555 1_555
C8_4 C2_4 1_555 1_555
C9_4 O27 1_555 1_555
C10_4 O9_4 1_555 1_555
C11_4 H4_4 1_555 1_555
C12_4 C11_4 1_555 1_555
C16_4 C10_4 1_555 1_555
C18_4 C12_4 1_555 1_555
C3_4 C4_4 1_555 1_555
C6_4 C7_4 1_555 1_555
C6_4 C9_4 1_555 1_555
C11_4 C16_4 1_555 1_555
O6_4 H18_4 1_555 1_555
O6_4 H19_4 1_555 1_555
O21_4 H22_4 1_555 1_555
O21_4 H23_4 1_555 1_555
O35_2 C22_4 1_555 1_555
C22_4 O34_2 1_555 1_555
C24_4 C23_4 1_555 1_555
H11_4 C24_4 1_555 1_555
H12_4 C24_4 1_555 1_555
H13_4 C24_4 1_555 1_555
H14_4 C26_4 1_555 1_555
C27_4 C26_4 1_555 1_555
H15_4 C27_4 1_555 1_555
H16_4 C27_4 1_555 1_555
H17_4 C27_4 1_555 1_555
C22_4 C23_4 1_555 1_555
O22_4 H20_4 1_555 1_555
C23_4 H24_4 1_555 1_555
C25_4 O36_2 1_555 1_555
O37_2 C25_4 1_555 1_555
O30 C17_4 1_555 1_555
O31 C17_4 1_555 1_555
H5_4 C13_4 1_555 1_555
C14_4 C13_4 1_555 1_555
C15_4 C14_4 1_555 1_555
H6_4 C15_4 1_555 1_555
C17_4 C14_4 1_555 1_555
O33_2 C19_4 1_555 1_555
O17_4 Cd9 1_555 1_555
C19_4 O32_2 1_555 1_555
C20_4 O17_4 1_555 1_555
H7_4 C20_4 1_555 1_555
C21_4 C20_4 1_555 1_555
H8_4 C21_4 1_555 1_555
H9_4 C21_4 1_555 1_555
H10_4 C21_4 1_555 1_555
C19_4 C20_4 1_555 1_555

#END
