
###############################################################################
#
# This file contains modified crystal structure data generated from the
# MOF subset of the Cambridge Structural Database (CSD) v543 
# hosted by the Cambridge Crystallographic Data Centre (CCDC).
#
# This work is licensed under the Creative Commons
# Attribution-NonCommercial-ShareAlike 4.0 International License.
# To view a copy of this license, visit
# http://creativecommons.org/licenses/by-nc-sa/4.0/
# or send a letter to
# Creative Commons, PO Box 1866, Mountain View, CA 94042, USA.
#
# CIF created using the CSD Python API on 29 September 2022
# The structure has been converted into the P1 space group
# The structure has a 3D framework
# The original CSD entry ZOZROY is in the monoclinic crystal system
# The framework has been calculated to contain at least 10.0% void space
# The void calculation uses a probe of radius 1.32A, grid spacing 0.4
#
###############################################################################

data_ZOZROY
_chemical_formula_moiety         '(C44 H44 Mn2 N4 O24)n'
_symmetry_cell_setting           triclinic
_symmetry_space_group_name_H-M   'P 1'
_symmetry_Int_Tables_number      1
_space_group_name_Hall           'P 1'
loop_
_symmetry_equiv_pos_site_id
_symmetry_equiv_pos_as_xyz
1 x,y,z
_cell_length_a                   9.4648(3)
_cell_length_b                   16.2782(6)
_cell_length_c                   11.5458(4)
_cell_angle_alpha                90
_cell_angle_beta                 97.104(2)
_cell_angle_gamma                90
_cell_volume                     1765.2
loop_
_atom_site_label
_atom_site_type_symbol
_atom_site_fract_x
_atom_site_fract_y
_atom_site_fract_z
Mn4 Mn 0.13605(5) 0.07964(3) 0.45273(5)
O1 O 0.5809(5) 0.3326(3) 0.0498(4)
O2 O 0.8093(6) 0.3069(4) 0.0934(6)
O3 O 0.9572(4) 0.0672(3) 0.3469(3)
O4 O 0.8023(4) 0.0201(3) 0.4598(4)
C1 C 0.6465(6) 0.2242(4) 0.1816(5)
C2 C 0.7522(5) 0.1741(3) 0.2365(5)
H1 H 0.8457 0.1808 0.2210
C3 C 0.7204(5) 0.1138(3) 0.3144(5)
C4 C 0.5802(5) 0.1050(3) 0.3368(5)
H2 H 0.5579 0.0647 0.3887
C5 C 0.4730(5) 0.1551(3) 0.2832(5)
C6 C 0.5070(6) 0.2146(3) 0.2051(5)
H3 H 0.4358 0.2482 0.1681
C7 C 0.6848(6) 0.2919(4) 0.1020(6)
C8 C 0.8354(5) 0.0629(3) 0.3781(4)
C9 C 0.3241(5) 0.1479(3) 0.3129(5)
O5 O 0.2375(5) 0.2028(3) 0.2875(5)
O6 O 0.2962(4) 0.0813(2) 0.3642(4)
O8 O 0.6977(4) 0.5201(3) 0.0402(4)
Mn1 Mn 0.63605(5) 0.42036(3) 0.95273(5)
O7 O 0.4572(4) 0.4328(3) 0.8469(3)
O9 O 0.7962(4) 0.4187(2) 0.8642(4)
Mn2 Mn 0.86395(5) 0.92036(3) 0.54727(5)
C5_2 C 0.0270(5) 0.6551(3) 0.2168(5)
H3_2 H 0.0642 0.7482 0.3319
C9_2 C 0.1759(5) 0.6479(3) 0.1871(5)
O5_2 O 0.2625(5) 0.7028(3) 0.2125(5)
O6_2 O 0.2038(4) 0.5813(2) 0.1358(4)
Mn3 Mn 0.36395(5) 0.57964(3) 0.04727(5)
O7_2 O 0.0428(4) 0.9328(3) 0.6531(3)
O1_2 O 0.9191(5) 0.8326(3) 0.4502(4)
O2_2 O 0.6907(6) 0.8069(4) 0.4066(6)
O3_2 O 0.5428(4) 0.5672(3) 0.1531(3)
C1_2 C 0.8535(6) 0.7242(4) 0.3184(5)
C2_2 C 0.7478(5) 0.6741(3) 0.2635(5)
H1_2 H 0.6543 0.6808 0.2790
C3_2 C 0.7796(5) 0.6138(3) 0.1856(5)
C4_2 C 0.9198(5) 0.6050(3) 0.1632(5)
H2_2 H 0.9421 0.5647 0.1113
C6_2 C 0.9930(6) 0.7146(3) 0.2949(5)
C7_2 C 0.8152(6) 0.7919(4) 0.3980(6)
C8_2 C 0.6646(5) 0.5629(3) 0.1219(4)
O9_2 O 0.7038(4) 0.9187(2) 0.6358(4)
O1_3 O 0.4191(5) 0.6674(3) 0.9502(4)
O2_3 O 0.1907(6) 0.6931(4) 0.9066(6)
O4_2 O 0.1977(4) 0.9799(3) 0.5402(4)
C1_3 C 0.3535(6) 0.7758(4) 0.8184(5)
C2_3 C 0.2478(5) 0.8259(3) 0.7635(5)
H1_3 H 0.1543 0.8192 0.7790
C3_3 C 0.2796(5) 0.8862(3) 0.6856(5)
C4_3 C 0.4198(5) 0.8950(3) 0.6632(5)
H2_3 H 0.4421 0.9353 0.6113
C5_3 C 0.5270(5) 0.8449(3) 0.7168(5)
C6_3 C 0.4930(6) 0.7854(3) 0.7949(5)
H3_3 H 0.5642 0.7518 0.8319
C7_3 C 0.3152(6) 0.7081(4) 0.8980(6)
C8_3 C 0.1646(5) 0.9371(3) 0.6219(4)
C9_3 C 0.6759(5) 0.8521(3) 0.6871(5)
O5_3 O 0.7625(5) 0.7972(3) 0.7125(5)
O8_2 O 0.3023(4) 0.4799(3) 0.9598(4)
O1_4 O 0.0809(5) 0.1674(3) 0.5498(4)
O2_4 O 0.3093(6) 0.1931(4) 0.5934(6)
C1_4 C 0.1465(6) 0.2758(4) 0.6816(5)
C2_4 C 0.2522(5) 0.3259(3) 0.7365(5)
H1_4 H 0.3457 0.3192 0.7210
C3_4 C 0.2204(5) 0.3862(3) 0.8144(5)
C4_4 C 0.0802(5) 0.3950(3) 0.8368(5)
H2_4 H 0.0579 0.4353 0.8887
C6_4 C 0.0070(6) 0.2854(3) 0.7051(5)
C7_4 C 0.1848(6) 0.2081(4) 0.6020(6)
C8_4 C 0.3354(5) 0.4371(3) 0.8781(4)
C5_4 C 0.9730(5) 0.3449(3) 0.7832(5)
H3_4 H 0.9358 0.2518 0.6681
C9_4 C 0.8241(5) 0.3521(3) 0.8129(5)
O5_4 O 0.7375(5) 0.2972(3) 0.7875(5)
C10 C 0.3603(19) 0.8862(8) 0.3186(16)
H4 H 0.4071 0.9386 0.3268
H5 H 0.4105 0.8476 0.3714
H6 H 0.2643 0.8918 0.3362
C11 C 0.4782(17) 0.8636(11) 0.1492(19)
H7 H 0.4761 0.8215 0.0908
H8 H 0.5609 0.8565 0.2054
H9 H 0.4816 0.9165 0.1130
N1 N 0.3589(19) 0.8582(7) 0.2038(12)
H10 H 0.3333 0.8056 0.2028
H11 H 0.2901 0.8852 0.1600
C10_2 C 0.1397(19) 0.3862(8) 0.1814(16)
H4_2 H 0.0929 0.4386 0.1732
H5_2 H 0.0895 0.3476 0.1286
H6_2 H 0.2357 0.3918 0.1638
C11_2 C 0.0218(17) 0.3636(11) 0.3508(19)
H7_2 H 0.0239 0.3215 0.4092
H9_2 H 0.0184 0.4165 0.3870
N1_2 N 0.1411(19) 0.3582(7) 0.2962(12)
H10_2 H 0.1667 0.3056 0.2972
H11_2 H 0.2099 0.3852 0.3400
H8_2 H 0.9391 0.3565 0.2946
C10_3 C 0.6397(19) 0.1138(8) 0.6814(16)
H4_3 H 0.5929 0.0614 0.6732
H5_3 H 0.5895 0.1524 0.6286
H6_3 H 0.7357 0.1082 0.6638
C11_3 C 0.5218(17) 0.1364(11) 0.8508(19)
H7_3 H 0.5239 0.1785 0.9092
H8_3 H 0.4391 0.1435 0.7946
H9_3 H 0.5184 0.0835 0.8870
N1_3 N 0.6411(19) 0.1418(7) 0.7962(12)
H10_3 H 0.6667 0.1944 0.7972
H11_3 H 0.7099 0.1148 0.8400
H8_4 H 0.0609 0.6435 0.7054
C10_4 C 0.8603(19) 0.6138(8) 0.8186(16)
H4_4 H 0.9071 0.5614 0.8268
H5_4 H 0.9105 0.6524 0.8714
H6_4 H 0.7643 0.6082 0.8362
C11_4 C 0.9782(17) 0.6364(11) 0.6492(19)
H7_4 H 0.9761 0.6785 0.5908
H9_4 H 0.9816 0.5835 0.6130
N1_4 N 0.8589(19) 0.6418(7) 0.7038(12)
H10_4 H 0.8333 0.6944 0.7028
H11_4 H 0.7901 0.6148 0.6600
loop_
_geom_bond_atom_site_label_1
_geom_bond_atom_site_label_2
_geom_bond_site_symmetry_1
_geom_bond_site_symmetry_2
O1 C7 1_555 1_555
O2 C7 1_555 1_555
O3 C8 1_555 1_555
O4 C8 1_555 1_555
C1 C2 1_555 1_555
C2 H1 1_555 1_555
C3 C2 1_555 1_555
C4 C3 1_555 1_555
H2 C4 1_555 1_555
C5 C4 1_555 1_555
C6 C1 1_555 1_555
H3 C6 1_555 1_555
C7 C1 1_555 1_555
C8 C3 1_555 1_555
C9 C5 1_555 1_555
O5 C9 1_555 1_555
O6 C9 1_555 1_555
Mn4 O6 1_555 1_555
C5 C6 1_555 1_555
O7 Mn1 1_555 1_555
O9 Mn1 1_555 1_555
C9_2 C5_2 1_555 1_555
O5_2 C9_2 1_555 1_555
O6_2 C9_2 1_555 1_555
Mn3 O6_2 1_555 1_555
Mn2 O1_2 1_555 1_555
O1_2 C7_2 1_555 1_555
O2_2 C7_2 1_555 1_555
O3_2 C8_2 1_555 1_555
O8 C8_2 1_555 1_555
C1_2 C2_2 1_555 1_555
C2_2 H1_2 1_555 1_555
C3_2 C2_2 1_555 1_555
C4_2 C3_2 1_555 1_555
H2_2 C4_2 1_555 1_555
C6_2 C1_2 1_555 1_555
C7_2 C1_2 1_555 1_555
C8_2 C3_2 1_555 1_555
Mn3 O3_2 1_555 1_555
O9_2 Mn2 1_555 1_555
O1_3 C7_3 1_555 1_555
O2_3 C7_3 1_555 1_555
O7_2 C8_3 1_555 1_555
O4_2 C8_3 1_555 1_555
C1_3 C2_3 1_555 1_555
C2_3 H1_3 1_555 1_555
C3_3 C2_3 1_555 1_555
C4_3 C3_3 1_555 1_555
H2_3 C4_3 1_555 1_555
C5_3 C4_3 1_555 1_555
C6_3 C1_3 1_555 1_555
H3_3 C6_3 1_555 1_555
C7_3 C1_3 1_555 1_555
C8_3 C3_3 1_555 1_555
C9_3 C5_3 1_555 1_555
O5_3 C9_3 1_555 1_555
O9_2 C9_3 1_555 1_555
C5_3 C6_3 1_555 1_555
Mn4 O1_4 1_555 1_555
O1_4 C7_4 1_555 1_555
O2_4 C7_4 1_555 1_555
O7 C8_4 1_555 1_555
O8_2 C8_4 1_555 1_555
C1_4 C2_4 1_555 1_555
C2_4 H1_4 1_555 1_555
C3_4 C2_4 1_555 1_555
C4_4 C3_4 1_555 1_555
H2_4 C4_4 1_555 1_555
C6_4 C1_4 1_555 1_555
C7_4 C1_4 1_555 1_555
C8_4 C3_4 1_555 1_555
C9_4 C5_4 1_555 1_555
O5_4 C9_4 1_555 1_555
O9 C9_4 1_555 1_555
C10 H4 1_555 1_555
H5 C10 1_555 1_555
H6 C10 1_555 1_555
C11 H7 1_555 1_555
H8 C11 1_555 1_555
H9 C11 1_555 1_555
N1 C10 1_555 1_555
H10 N1 1_555 1_555
H11 N1 1_555 1_555
C11 N1 1_555 1_555
C10_2 H4_2 1_555 1_555
H5_2 C10_2 1_555 1_555
H6_2 C10_2 1_555 1_555
C11_2 H7_2 1_555 1_555
H9_2 C11_2 1_555 1_555
N1_2 C10_2 1_555 1_555
H10_2 N1_2 1_555 1_555
H11_2 N1_2 1_555 1_555
C11_2 N1_2 1_555 1_555
C10_3 H4_3 1_555 1_555
H5_3 C10_3 1_555 1_555
H6_3 C10_3 1_555 1_555
C11_3 H7_3 1_555 1_555
H8_3 C11_3 1_555 1_555
H9_3 C11_3 1_555 1_555
N1_3 C10_3 1_555 1_555
H10_3 N1_3 1_555 1_555
H11_3 N1_3 1_555 1_555
C11_3 N1_3 1_555 1_555
C10_4 H4_4 1_555 1_555
H5_4 C10_4 1_555 1_555
H6_4 C10_4 1_555 1_555
C11_4 H7_4 1_555 1_555
H9_4 C11_4 1_555 1_555
N1_4 C10_4 1_555 1_555
H10_4 N1_4 1_555 1_555
H11_4 N1_4 1_555 1_555
C11_4 N1_4 1_555 1_555

#END
