
###############################################################################
#
# This file contains modified crystal structure data generated from the
# MOF subset of the Cambridge Structural Database (CSD) v543 
# hosted by the Cambridge Crystallographic Data Centre (CCDC).
#
# This work is licensed under the Creative Commons
# Attribution-NonCommercial-ShareAlike 4.0 International License.
# To view a copy of this license, visit
# http://creativecommons.org/licenses/by-nc-sa/4.0/
# or send a letter to
# Creative Commons, PO Box 1866, Mountain View, CA 94042, USA.
#
# CIF created using the CSD Python API on 29 September 2022
# The structure has been converted into the P1 space group
# The structure has a 3D framework
# The original CSD entry ZOZSAL is in the monoclinic crystal system
# The framework has been calculated to contain at least 10.0% void space
# The void calculation uses a probe of radius 1.32A, grid spacing 0.4
# The framework is charged, counterions have been retained in the structure
#
###############################################################################

data_ZOZSAL
_chemical_formula_moiety         '(C368 H304 N24 O204 Zn40 8-)n'
_symmetry_cell_setting           triclinic
_symmetry_space_group_name_H-M   'P 1'
_symmetry_Int_Tables_number      1
_space_group_name_Hall           'P 1'
loop_
_symmetry_equiv_pos_site_id
_symmetry_equiv_pos_as_xyz
1 x,y,z
_cell_length_a                   30.2857(13)
_cell_length_b                   16.9980(7)
_cell_length_c                   28.4898(12)
_cell_angle_alpha                90
_cell_angle_beta                 95.403(2)
_cell_angle_gamma                90
_cell_volume                     14601.3
loop_
_atom_site_label
_atom_site_type_symbol
_atom_site_fract_x
_atom_site_fract_y
_atom_site_fract_z
N1 N 0.3326(14) 0.205(2) 0.7128(13)
H1 H 0.3308 0.2063 0.7438
H2 H 0.3449 0.1592 0.7062
C1 C 0.3623(14) 0.267(3) 0.701(2)
H3 H 0.3908 0.2604 0.7183
H4 H 0.3656 0.2658 0.6677
H5 H 0.3502 0.3174 0.7087
C2 C 0.2877(13) 0.207(3) 0.6894(19)
H6 H 0.2712 0.1628 0.6999
H7 H 0.2734 0.2548 0.6969
H8 H 0.2888 0.2032 0.6559
N1_2 N 0.6674(14) 0.205(2) 0.7872(13)
H1_2 H 0.6692 0.2063 0.7562
H2_2 H 0.6551 0.1592 0.7938
C1_2 C 0.6377(14) 0.267(3) 0.799(2)
H3_2 H 0.6092 0.2604 0.7817
H4_2 H 0.6344 0.2658 0.8323
H5_2 H 0.6498 0.3174 0.7913
C2_2 C 0.7123(13) 0.207(3) 0.8106(19)
H6_2 H 0.7288 0.1628 0.8001
H7_2 H 0.7266 0.2548 0.8031
H8_2 H 0.7112 0.2032 0.8441
N1_3 N 0.8326(14) 0.705(2) 0.7128(13)
H1_3 H 0.8308 0.7063 0.7438
H2_3 H 0.8449 0.6592 0.7062
C1_3 C 0.8623(14) 0.767(3) 0.701(2)
H3_3 H 0.8908 0.7604 0.7183
H4_3 H 0.8656 0.7658 0.6677
H5_3 H 0.8502 0.8174 0.7087
C2_3 C 0.7877(13) 0.707(3) 0.6894(19)
H6_3 H 0.7712 0.6628 0.6999
H7_3 H 0.7734 0.7548 0.6969
H8_3 H 0.7888 0.7032 0.6559
N1_4 N 0.1674(14) 0.705(2) 0.7872(13)
H1_4 H 0.1692 0.7063 0.7562
H2_4 H 0.1551 0.6592 0.7938
C1_4 C 0.1377(14) 0.767(3) 0.799(2)
H3_4 H 0.1092 0.7604 0.7817
H4_4 H 0.1344 0.7658 0.8323
H5_4 H 0.1498 0.8174 0.7913
C2_4 C 0.2123(13) 0.707(3) 0.8106(19)
H6_4 H 0.2288 0.6628 0.8001
H7_4 H 0.2266 0.7548 0.8031
H8_4 H 0.2112 0.7032 0.8441
N1_5 N 0.6674(14) 0.795(2) 0.2872(13)
H1_5 H 0.6692 0.7937 0.2562
H2_5 H 0.6551 0.8408 0.2938
C1_5 C 0.6377(14) 0.733(3) 0.299(2)
H3_5 H 0.6092 0.7396 0.2817
H4_5 H 0.6344 0.7342 0.3323
H5_5 H 0.6498 0.6826 0.2913
C2_5 C 0.7123(13) 0.793(3) 0.3106(19)
H6_5 H 0.7288 0.8372 0.3001
H7_5 H 0.7266 0.7452 0.3031
H8_5 H 0.7112 0.7968 0.3441
N1_6 N 0.3326(14) 0.795(2) 0.2128(13)
H1_6 H 0.3308 0.7937 0.2438
H2_6 H 0.3449 0.8408 0.2062
C1_6 C 0.3623(14) 0.733(3) 0.201(2)
H3_6 H 0.3908 0.7396 0.2183
H4_6 H 0.3656 0.7342 0.1677
H5_6 H 0.3502 0.6826 0.2087
C2_6 C 0.2877(13) 0.793(3) 0.1894(19)
H6_6 H 0.2712 0.8372 0.1999
H7_6 H 0.2734 0.7452 0.1969
H8_6 H 0.2888 0.7968 0.1559
N1_7 N 0.1674(14) 0.295(2) 0.2872(13)
H1_7 H 0.1692 0.2937 0.2562
H2_7 H 0.1551 0.3408 0.2938
C1_7 C 0.1377(14) 0.233(3) 0.299(2)
H3_7 H 0.1092 0.2396 0.2817
H4_7 H 0.1344 0.2342 0.3323
H5_7 H 0.1498 0.1826 0.2913
C2_7 C 0.2123(13) 0.293(3) 0.3106(19)
H6_7 H 0.2288 0.3372 0.3001
H7_7 H 0.2266 0.2452 0.3031
H8_7 H 0.2112 0.2968 0.3441
N1_8 N 0.8326(14) 0.295(2) 0.2128(13)
H1_8 H 0.8308 0.2937 0.2438
H2_8 H 0.8449 0.3408 0.2062
C1_8 C 0.8623(14) 0.233(3) 0.201(2)
H3_8 H 0.8908 0.2396 0.2183
H4_8 H 0.8656 0.2342 0.1677
H5_8 H 0.8502 0.1826 0.2087
C2_8 C 0.7877(13) 0.293(3) 0.1894(19)
H6_8 H 0.7712 0.3372 0.1999
H7_8 H 0.7734 0.2452 0.1969
H8_8 H 0.7888 0.2968 0.1559
O11 O 0.3780(6) 0.0909(8) 0.9315(6)
O12 O 0.4156(5) 0.0759(8) 0.8713(7)
C19 C 0.3879(6) 0.0526(9) 0.8966(6)
Zn12 Zn 0.43025(5) 0.17515(9) 0.91941(6)
H28 H 0.4005 0.6296 0.0072
H29 H 0.3986 0.5374 0.0083
Zn15 Zn 0.22601(5) 0.82534(8) 0.00850(5)
O28 O 0.2373(4) 0.6270(8) 0.0396(4)
O39 O 0.3134(4) 0.7282(6) 0.0439(4)
Zn1 Zn 0.32428(5) 0.68323(8) 0.73077(6)
Zn2 Zn 0.35866(5) 0.86491(9) 0.69438(5)
Zn3 Zn 0.52112(5) 0.35971(8) 0.59206(5)
Zn4 Zn 0.43025(5) 0.82485(9) 0.41941(6)
Zn5 Zn 0.27399(5) 0.67466(8) 0.99150(5)
O1 O 0.3638(5) 0.6740(8) 0.6811(4)
O2 O 0.3762(4) 0.7934(7) 0.6489(4)
O3 O 0.4977(4) 0.4644(5) 0.5804(4)
O4 O 0.4698(6) 0.4593(8) 0.6480(4)
O5 O 0.4241(4) 0.7678(7) 0.4811(4)
O6 O 0.4485(6) 0.6520(10) 0.4633(6)
O7 O 0.3817(3) 0.8529(7) 0.7600(3)
O8 O 0.3425(4) 0.7530(6) 0.7849(4)
O9 O 0.2959(4) 0.7575(8) 0.9479(5)
O10 O 0.2627(4) 0.8730(8) 0.9604(4)
O13 O 0.5658(4) 0.3503(7) 0.6429(4)
O14 O 0.6092(3) 0.2485(6) 0.6233(4)
O15 O 0.6306(5) 0.5754(7) 0.7243(6)
O16 O 0.7005(4) 0.5789(6) 0.7531(5)
O17 O 0.7952(3) 0.3588(6) 0.7070(5)
O18 O 0.7680(3) 0.2381(5) 0.7063(4)
O19 O 0.4721(4) 0.2885(7) 0.5875(6)
O20 O 0.5106(3) 0.1842(7) 0.6086(5)
O23 O 0.2795(3) 0.1575(7) 0.5557(4)
O24 O 0.3134(4) 0.2718(6) 0.5439(4)
O25 O 0.4774(7) 0.8950(14) 0.4717(8)
O26 O 0.3170(4) 0.5922(8) 0.9790(5)
N2 N 0.5093(9) 0.8919(18) 0.5459(8)
N3 N 0.3803(6) 0.5824(19) 0.9449(8)
C3 C 0.4051(5) 0.6777(9) 0.6159(5)
C4 C 0.4095(5) 0.7110(7) 0.5729(5)
H9 H 0.3963 0.7592 0.5649
C5 C 0.4340(5) 0.6715(8) 0.5413(5)
C6 C 0.4554(5) 0.6012(8) 0.5535(5)
H10 H 0.4715 0.5757 0.5318
C7 C 0.4529(5) 0.5684(8) 0.5983(5)
C8 C 0.4275(5) 0.6072(9) 0.6290(5)
H11 H 0.4253 0.5864 0.6589
C9 C 0.3796(5) 0.7156(9) 0.6526(5)
C10 C 0.4370(6) 0.7016(9) 0.4929(6)
C11 C 0.4753(5) 0.4914(8) 0.6110(5)
C12 C 0.3209(5) 0.8672(9) 0.9084(5)
C13 C 0.3379(5) 0.9424(9) 0.9157(5)
H12 H 0.3305 0.9714 0.9415
C14 C 0.3654(5) 0.9743(8) 0.8858(5)
C15 C 0.3739(5) 0.9342(8) 0.8450(5)
H13 H 0.3918 0.9568 0.8239
C16 C 0.3556(5) 0.8607(8) 0.8359(4)
C17 C 0.3288(5) 0.8276(8) 0.8671(5)
H14 H 0.3160 0.7786 0.8606
C18 C 0.2915(5) 0.8281(9) 0.9417(5)
C20 C 0.3599(5) 0.8191(9) 0.7896(5)
C21 C 0.6415(5) 0.3479(7) 0.6727(5)
C22 C 0.6374(5) 0.4247(8) 0.6908(5)
H15 H 0.6100 0.4498 0.6868
C23 C 0.6724(5) 0.4627(8) 0.7140(5)
C24 C 0.7144(5) 0.4258(7) 0.7190(5)
H16 H 0.7390 0.4524 0.7333
C25 C 0.7190(5) 0.3478(7) 0.7022(5)
C26 C 0.6826(4) 0.3104(7) 0.6788(5)
H17 H 0.6856 0.2599 0.6671
C27 C 0.6028(5) 0.3115(7) 0.6444(5)
C28 C 0.6668(5) 0.5454(8) 0.7325(5)
C29 C 0.7638(5) 0.3120(8) 0.7063(6)
C30 C 0.4325(5) 0.1763(8) 0.6042(6)
C31 C 0.4313(5) 0.1052(8) 0.6270(5)
H18 H 0.4578 0.0829 0.6398
C32 C 0.3922(4) 0.0659(8) 0.6315(5)
C33 C 0.3538(5) 0.0992(8) 0.6102(5)
H19 H 0.3268 0.0737 0.6123
C34 C 0.3545(5) 0.1700(9) 0.5856(5)
C35 C 0.3935(5) 0.2086(8) 0.5836(6)
H20 H 0.3940 0.2570 0.5684
C36 C 0.4756(5) 0.2180(10) 0.5993(6)
C38 C 0.3119(5) 0.2023(9) 0.5604(5)
C39 C 0.4743(8) 0.9081(18) 0.5131(8)
C40 C 0.5033(15) 0.901(3) 0.5957(8)
H21 H 0.5303 0.8880 0.6143
H22 H 0.4956 0.9550 0.6017
H23 H 0.4799 0.8673 0.6039
C41 C 0.5453(11) 0.843(3) 0.5325(12)
H24 H 0.5671 0.8367 0.5589
H25 H 0.5338 0.7920 0.5228
H26 H 0.5586 0.8670 0.5068
C42 C 0.3351(6) 0.585(2) 0.9430(6)
C43 C 0.4064(6) 0.582(3) 0.9904(10)
H27 H 0.4374 0.5801 0.9858
C44 C 0.4024(11) 0.583(3) 0.9018(11)
H30 H 0.4339 0.5803 0.9096
H31 H 0.3929 0.5379 0.8830
H32 H 0.3950 0.6300 0.8845
C45 C 0.3160(15) 0.592(3) 0.8905(16)
H33 H 0.2864 0.6130 0.8889
H34 H 0.3156 0.5415 0.8759
H35 H 0.3343 0.6273 0.8742
C46 C 0.4361(14) 0.946(3) 0.5320(16)
H36 H 0.4290 0.9939 0.5149
H37 H 0.4433 0.9581 0.5647
H38 H 0.4110 0.9113 0.5285
Zn6 Zn 0.67572(5) 0.68323(8) 0.76923(6)
Zn7 Zn 0.82428(5) 0.18323(8) 0.73077(6)
Zn9 Zn 0.85866(5) 0.36491(9) 0.69438(5)
Zn10 Zn 0.47888(5) 0.64029(8) 0.40794(5)
Zn11 Zn 0.56975(5) 0.17515(9) 0.58059(6)
Zn13 Zn 0.22601(5) 0.17466(8) 0.50850(5)
Zn14 Zn 0.27399(5) 0.32534(8) 0.49150(5)
O27 O 0.5515(6) 0.3480(10) 0.5367(6)
O29 O 0.3780(6) 0.9091(8) 0.4315(6)
O30 O 0.4156(5) 0.9241(8) 0.3713(7)
O31 O 0.3908(3) 0.7515(6) 0.3767(4)
O32 O 0.3694(5) 0.5754(7) 0.7757(6)
O33 O 0.2995(4) 0.5789(6) 0.7469(5)
O34 O 0.2952(3) 0.8588(6) 0.7070(5)
O35 O 0.2680(3) 0.7381(5) 0.7063(4)
O36 O 0.4894(3) 0.8158(7) 0.3914(5)
O37 O 0.3522(4) 0.9633(6) 0.6607(5)
O38 O 0.2205(3) 0.6575(7) 0.9443(4)
O21 O 0.4233(5) 0.9608(8) 0.6748(6)
C37 C 0.3900(6) 0.9923(9) 0.6588(6)
O11_2 O 0.6220(6) 0.0909(8) 0.5685(6)
O12_2 O 0.5844(5) 0.0759(8) 0.6287(7)
C19_2 C 0.6121(6) 0.0526(9) 0.6034(6)
Zn4_2 Zn 0.56975(5) 0.82485(9) 0.08059(6)
O5_2 O 0.5759(4) 0.7678(7) 0.0189(4)
O6_2 O 0.5515(6) 0.6520(10) 0.0367(6)
O25_2 O 0.5226(7) 0.8950(14) 0.0283(8)
C10_2 C 0.5630(6) 0.7016(9) 0.0071(6)
Zn10_2 Zn 0.52112(5) 0.64029(8) 0.09206(5)
Zn14_2 Zn 0.72601(5) 0.32534(8) 0.00850(5)
O29_2 O 0.6220(6) 0.9091(8) 0.0685(6)
O30_2 O 0.5844(5) 0.9241(8) 0.1287(7)
O31_2 O 0.6092(3) 0.7515(6) 0.1233(4)
O36_2 O 0.5106(3) 0.8158(7) 0.1086(5)
Zn2_2 Zn 0.64134(5) 0.86491(9) 0.80562(5)
Zn3_2 Zn 0.47888(5) 0.35971(8) 0.90794(5)
Zn5_2 Zn 0.72601(5) 0.67466(8) 0.50850(5)
O1_2 O 0.6362(5) 0.6740(8) 0.8189(4)
O2_2 O 0.6238(4) 0.7934(7) 0.8511(4)
O3_2 O 0.5023(4) 0.4644(5) 0.9196(4)
O4_2 O 0.5302(6) 0.4593(8) 0.8520(4)
O7_2 O 0.6183(3) 0.8529(7) 0.7400(3)
O8_2 O 0.6575(4) 0.7530(6) 0.7151(4)
O9_2 O 0.7041(4) 0.7575(8) 0.5521(5)
O10_2 O 0.7373(4) 0.8730(8) 0.5396(4)
O13_2 O 0.4342(4) 0.3503(7) 0.8571(4)
O14_2 O 0.3908(3) 0.2485(6) 0.8767(4)
O17_2 O 0.2048(3) 0.3588(6) 0.7930(5)
O18_2 O 0.2320(3) 0.2381(5) 0.7937(4)
O19_2 O 0.5279(4) 0.2885(7) 0.9125(6)
O20_2 O 0.4894(3) 0.1842(7) 0.8914(5)
O23_2 O 0.7205(3) 0.1575(7) 0.9443(4)
O24_2 O 0.6866(4) 0.2718(6) 0.9561(4)
O26_2 O 0.6830(4) 0.5922(8) 0.5210(5)
N2_2 N 0.4907(9) 0.8919(18) 0.9541(8)
N3_2 N 0.6197(6) 0.5824(19) 0.5551(8)
C3_2 C 0.5949(5) 0.6777(9) 0.8841(5)
C4_2 C 0.5905(5) 0.7110(7) 0.9271(5)
H9_2 H 0.6037 0.7592 0.9351
C5_2 C 0.5660(5) 0.6715(8) 0.9587(5)
C6_2 C 0.5446(5) 0.6012(8) 0.9465(5)
H10_2 H 0.5285 0.5757 0.9682
C7_2 C 0.5471(5) 0.5684(8) 0.9017(5)
C8_2 C 0.5725(5) 0.6072(9) 0.8710(5)
H11_2 H 0.5747 0.5864 0.8411
C9_2 C 0.6204(5) 0.7156(9) 0.8474(5)
C11_2 C 0.5247(5) 0.4914(8) 0.8890(5)
C12_2 C 0.6791(5) 0.8672(9) 0.5916(5)
C13_2 C 0.6621(5) 0.9424(9) 0.5843(5)
H12_2 H 0.6695 0.9714 0.5585
C14_2 C 0.6346(5) 0.9743(8) 0.6142(5)
C15_2 C 0.6261(5) 0.9342(8) 0.6550(5)
H13_2 H 0.6082 0.9568 0.6761
C16_2 C 0.6444(5) 0.8607(8) 0.6641(4)
C17_2 C 0.6712(5) 0.8276(8) 0.6329(5)
H14_2 H 0.6840 0.7786 0.6394
C18_2 C 0.7085(5) 0.8281(9) 0.5583(5)
C20_2 C 0.6401(5) 0.8191(9) 0.7104(5)
C21_2 C 0.3585(5) 0.3479(7) 0.8273(5)
C22_2 C 0.3626(5) 0.4247(8) 0.8092(5)
H15_2 H 0.3900 0.4498 0.8132
C23_2 C 0.3276(5) 0.4627(8) 0.7860(5)
C24_2 C 0.2856(5) 0.4258(7) 0.7810(5)
H16_2 H 0.2610 0.4524 0.7667
C25_2 C 0.2810(5) 0.3478(7) 0.7978(5)
C26_2 C 0.3174(4) 0.3104(7) 0.8212(5)
H17_2 H 0.3144 0.2599 0.8329
C27_2 C 0.3972(5) 0.3115(7) 0.8556(5)
C28_2 C 0.3332(5) 0.5454(8) 0.7675(5)
C29_2 C 0.2362(5) 0.3120(8) 0.7937(6)
C30_2 C 0.5675(5) 0.1763(8) 0.8958(6)
C31_2 C 0.5687(5) 0.1052(8) 0.8730(5)
H18_2 H 0.5422 0.0829 0.8602
C32_2 C 0.6078(4) 0.0659(8) 0.8685(5)
C33_2 C 0.6462(5) 0.0992(8) 0.8898(5)
H19_2 H 0.6732 0.0737 0.8877
C34_2 C 0.6455(5) 0.1700(9) 0.9144(5)
C35_2 C 0.6065(5) 0.2086(8) 0.9164(6)
H20_2 H 0.6060 0.2570 0.9316
C36_2 C 0.5244(5) 0.2180(10) 0.9007(6)
C38_2 C 0.6881(5) 0.2023(9) 0.9396(5)
C39_2 C 0.5257(8) 0.9081(18) 0.9869(8)
C40_2 C 0.4967(15) 0.901(3) 0.9043(8)
H21_2 H 0.4697 0.8880 0.8857
H22_2 H 0.5044 0.9550 0.8983
H23_2 H 0.5201 0.8673 0.8961
C41_2 C 0.4547(11) 0.843(3) 0.9675(12)
H24_2 H 0.4329 0.8367 0.9411
H25_2 H 0.4662 0.7920 0.9772
H26_2 H 0.4414 0.8670 0.9932
C42_2 C 0.6649(6) 0.585(2) 0.5570(6)
C43_2 C 0.5936(6) 0.582(3) 0.5096(10)
H27_2 H 0.5626 0.5801 0.5142
H28_2 H 0.5995 0.6296 0.4928
H29_2 H 0.6014 0.5374 0.4917
C44_2 C 0.5976(11) 0.583(3) 0.5982(11)
H30_2 H 0.5661 0.5803 0.5904
H31_2 H 0.6071 0.5379 0.6170
H32_2 H 0.6050 0.6300 0.6155
C45_2 C 0.6840(15) 0.592(3) 0.6095(16)
H33_2 H 0.7136 0.6130 0.6111
H34_2 H 0.6844 0.5415 0.6241
H35_2 H 0.6657 0.6273 0.6258
C46_2 C 0.5639(14) 0.946(3) 0.9680(16)
H36_2 H 0.5710 0.9939 0.9851
H37_2 H 0.5567 0.9581 0.9353
H38_2 H 0.5890 0.9113 0.9715
Zn7_2 Zn 0.17572(5) 0.18323(8) 0.76923(6)
Zn9_2 Zn 0.14134(5) 0.36491(9) 0.80562(5)
Zn13_2 Zn 0.77399(5) 0.17466(8) 0.99150(5)
Zn15_2 Zn 0.77399(5) 0.82534(8) 0.49150(5)
O27_2 O 0.4485(6) 0.3480(10) 0.9633(6)
O28_2 O 0.7627(4) 0.6270(8) 0.4604(4)
O34_2 O 0.7048(3) 0.8588(6) 0.7930(5)
O35_2 O 0.7320(3) 0.7381(5) 0.7937(4)
O37_2 O 0.6478(4) 0.9633(6) 0.8393(5)
O38_2 O 0.7795(3) 0.6575(7) 0.5557(4)
O39_2 O 0.6866(4) 0.7282(6) 0.4561(4)
O21_2 O 0.5767(5) 0.9608(8) 0.8252(6)
C37_2 C 0.6100(6) 0.9923(9) 0.8412(6)
O15_2 O 0.1306(5) 0.0754(7) 0.7243(6)
O16_2 O 0.2005(4) 0.0789(6) 0.7531(5)
N2_3 N 0.0093(9) 0.3919(18) 0.5459(8)
C28_3 C 0.1668(5) 0.0454(8) 0.7325(5)
C40_3 C 0.0033(15) 0.401(3) 0.5957(8)
H21_3 H 0.0303 0.3880 0.6143
C41_3 C 0.0453(11) 0.343(3) 0.5325(12)
H24_3 H 0.0671 0.3367 0.5589
H25_3 H 0.0338 0.2920 0.5228
H26_3 H 0.0586 0.3670 0.5068
Zn3_3 Zn 0.02112(5) 0.85971(8) 0.59206(5)
O13_3 O 0.0658(4) 0.8503(7) 0.6429(4)
O14_3 O 0.1092(3) 0.7485(6) 0.6233(4)
O20_3 O 0.0106(3) 0.6842(7) 0.6086(5)
C21_3 C 0.1415(5) 0.8479(7) 0.6727(5)
C22_3 C 0.1374(5) 0.9247(8) 0.6908(5)
H15_3 H 0.1100 0.9498 0.6868
C23_3 C 0.1724(5) 0.9627(8) 0.7140(5)
C24_3 C 0.2144(5) 0.9258(7) 0.7190(5)
H16_3 H 0.2390 0.9524 0.7333
C25_3 C 0.2190(5) 0.8478(7) 0.7022(5)
C26_3 C 0.1826(4) 0.8104(7) 0.6788(5)
H17_3 H 0.1856 0.7599 0.6671
C27_3 C 0.1028(5) 0.8115(7) 0.6444(5)
C29_3 C 0.2638(5) 0.8120(8) 0.7063(6)
Zn11_2 Zn 0.06975(5) 0.67515(9) 0.58059(6)
O27_3 O 0.0515(6) 0.8480(10) 0.5367(6)
H28_3 H 0.9005 0.1296 0.0072
H29_3 H 0.8986 0.0374 0.0083
O28_3 O 0.7373(4) 0.1270(8) 0.0396(4)
O39_3 O 0.8134(4) 0.2282(6) 0.0439(4)
Zn4_3 Zn 0.93025(5) 0.32485(9) 0.41941(6)
O1_3 O 0.8638(5) 0.1740(8) 0.6811(4)
O2_3 O 0.8762(4) 0.2934(7) 0.6489(4)
O5_3 O 0.9241(4) 0.2678(7) 0.4811(4)
O6_3 O 0.9485(6) 0.1520(10) 0.4633(6)
O7_3 O 0.8817(3) 0.3529(7) 0.7600(3)
O8_3 O 0.8425(4) 0.2530(6) 0.7849(4)
O9_3 O 0.7959(4) 0.2575(8) 0.9479(5)
O10_3 O 0.7627(4) 0.3730(8) 0.9604(4)
O11_3 O 0.8780(6) 0.5909(8) 0.9315(6)
O12_3 O 0.9156(5) 0.5759(8) 0.8713(7)
O25_3 O 0.9774(7) 0.3950(14) 0.4717(8)
O26_3 O 0.8170(4) 0.0922(8) 0.9790(5)
N3_3 N 0.8803(6) 0.0824(19) 0.9449(8)
C3_3 C 0.9051(5) 0.1777(9) 0.6159(5)
C4_3 C 0.9095(5) 0.2110(7) 0.5729(5)
H9_3 H 0.8963 0.2592 0.5649
C5_3 C 0.9340(5) 0.1715(8) 0.5413(5)
C6_3 C 0.9554(5) 0.1012(8) 0.5535(5)
H10_3 H 0.9715 0.0757 0.5318
C7_3 C 0.9529(5) 0.0684(8) 0.5983(5)
C8_3 C 0.9275(5) 0.1072(9) 0.6290(5)
H11_3 H 0.9253 0.0864 0.6589
C9_3 C 0.8796(5) 0.2156(9) 0.6526(5)
C10_3 C 0.9370(6) 0.2016(9) 0.4929(6)
C12_3 C 0.8209(5) 0.3672(9) 0.9084(5)
C13_3 C 0.8379(5) 0.4424(9) 0.9157(5)
H12_3 H 0.8305 0.4714 0.9415
C14_3 C 0.8654(5) 0.4743(8) 0.8858(5)
C15_3 C 0.8739(5) 0.4342(8) 0.8450(5)
H13_3 H 0.8918 0.4568 0.8239
C16_3 C 0.8556(5) 0.3607(8) 0.8359(4)
C17_3 C 0.8288(5) 0.3276(8) 0.8671(5)
H14_3 H 0.8160 0.2786 0.8606
C18_3 C 0.7915(5) 0.3281(9) 0.9417(5)
C19_3 C 0.8879(6) 0.5526(9) 0.8966(6)
C20_3 C 0.8599(5) 0.3191(9) 0.7896(5)
C39_3 C 0.9743(8) 0.4081(18) 0.5131(8)
H22_3 H 0.9956 0.4550 0.6017
H23_3 H 0.9799 0.3673 0.6039
C42_3 C 0.8351(6) 0.085(2) 0.9430(6)
C43_3 C 0.9064(6) 0.082(3) 0.9904(10)
H27_3 H 0.9374 0.0801 0.9858
C44_3 C 0.9024(11) 0.083(3) 0.9018(11)
H30_3 H 0.9339 0.0803 0.9096
H31_3 H 0.8929 0.0379 0.8830
H32_3 H 0.8950 0.1300 0.8845
C45_3 C 0.8160(15) 0.092(3) 0.8905(16)
H33_3 H 0.7864 0.1130 0.8889
H34_3 H 0.8156 0.0415 0.8759
H35_3 H 0.8343 0.1273 0.8742
C46_3 C 0.9361(14) 0.446(3) 0.5320(16)
H36_3 H 0.9290 0.4939 0.5149
H37_3 H 0.9433 0.4581 0.5647
H38_3 H 0.9110 0.4113 0.5285
Zn10_3 Zn 0.97888(5) 0.14029(8) 0.40794(5)
Zn12_2 Zn 0.93025(5) 0.67515(9) 0.91941(6)
O29_3 O 0.8780(6) 0.4091(8) 0.4315(6)
O30_3 O 0.9156(5) 0.4241(8) 0.3713(7)
O31_3 O 0.8908(3) 0.2515(6) 0.3767(4)
O32_2 O 0.8694(5) 0.0754(7) 0.7757(6)
O33_2 O 0.7995(4) 0.0789(6) 0.7469(5)
O36_3 O 0.9894(3) 0.3158(7) 0.3914(5)
O37_3 O 0.8522(4) 0.4633(6) 0.6607(5)
O3_3 O 0.9977(4) 0.9644(5) 0.5804(4)
O4_3 O 0.9698(6) 0.9593(8) 0.6480(4)
O19_3 O 0.9721(4) 0.7885(7) 0.5875(6)
O21_3 O 0.9233(5) 0.4608(8) 0.6748(6)
O24_3 O 0.8134(4) 0.7718(6) 0.5439(4)
C11_3 C 0.9753(5) 0.9914(8) 0.6110(5)
C30_3 C 0.9325(5) 0.6763(8) 0.6042(6)
C31_3 C 0.9313(5) 0.6052(8) 0.6270(5)
H18_3 H 0.9578 0.5829 0.6398
C32_3 C 0.8922(4) 0.5659(8) 0.6315(5)
C33_3 C 0.8538(5) 0.5992(8) 0.6102(5)
H19_3 H 0.8268 0.5737 0.6123
C34_3 C 0.8545(5) 0.6700(9) 0.5856(5)
C35_3 C 0.8935(5) 0.7086(8) 0.5836(6)
H20_3 H 0.8940 0.7570 0.5684
C36_3 C 0.9756(5) 0.7180(10) 0.5993(6)
C37_3 C 0.8900(6) 0.4923(9) 0.6588(6)
C38_3 C 0.8119(5) 0.7023(9) 0.5604(5)
Zn4_4 Zn 0.06975(5) 0.32485(9) 0.08059(6)
O5_4 O 0.0759(4) 0.2678(7) 0.0189(4)
O6_4 O 0.0515(6) 0.1520(10) 0.0367(6)
O25_4 O 0.0226(7) 0.3950(14) 0.0283(8)
C10_4 C 0.0630(6) 0.2016(9) 0.0071(6)
Zn10_4 Zn 0.02112(5) 0.14029(8) 0.09206(5)
O29_4 O 0.1220(6) 0.4091(8) 0.0685(6)
O30_4 O 0.0844(5) 0.4241(8) 0.1287(7)
O31_4 O 0.1092(3) 0.2515(6) 0.1233(4)
O36_4 O 0.0106(3) 0.3158(7) 0.1086(5)
O1_4 O 0.1362(5) 0.1740(8) 0.8189(4)
O2_4 O 0.1238(4) 0.2934(7) 0.8511(4)
O7_4 O 0.1183(3) 0.3529(7) 0.7400(3)
O8_4 O 0.1575(4) 0.2530(6) 0.7151(4)
O9_4 O 0.2041(4) 0.2575(8) 0.5521(5)
O10_4 O 0.2373(4) 0.3730(8) 0.5396(4)
O11_4 O 0.1220(6) 0.5909(8) 0.5685(6)
O12_4 O 0.0844(5) 0.5759(8) 0.6287(7)
O26_4 O 0.1830(4) 0.0922(8) 0.5210(5)
N3_4 N 0.1197(6) 0.0824(19) 0.5551(8)
C3_4 C 0.0949(5) 0.1777(9) 0.8841(5)
C4_4 C 0.0905(5) 0.2110(7) 0.9271(5)
H9_4 H 0.1037 0.2592 0.9351
C5_4 C 0.0660(5) 0.1715(8) 0.9587(5)
C6_4 C 0.0446(5) 0.1012(8) 0.9465(5)
H10_4 H 0.0285 0.0757 0.9682
C7_4 C 0.0471(5) 0.0684(8) 0.9017(5)
C8_4 C 0.0725(5) 0.1072(9) 0.8710(5)
H11_4 H 0.0747 0.0864 0.8411
C9_4 C 0.1204(5) 0.2156(9) 0.8474(5)
C12_4 C 0.1791(5) 0.3672(9) 0.5916(5)
C13_4 C 0.1621(5) 0.4424(9) 0.5843(5)
H12_4 H 0.1695 0.4714 0.5585
C14_4 C 0.1346(5) 0.4743(8) 0.6142(5)
C15_4 C 0.1261(5) 0.4342(8) 0.6550(5)
H13_4 H 0.1082 0.4568 0.6761
C16_4 C 0.1444(5) 0.3607(8) 0.6641(4)
C17_4 C 0.1712(5) 0.3276(8) 0.6329(5)
H14_4 H 0.1840 0.2786 0.6394
C18_4 C 0.2085(5) 0.3281(9) 0.5583(5)
C19_4 C 0.1121(6) 0.5526(9) 0.6034(6)
C20_4 C 0.1401(5) 0.3191(9) 0.7104(5)
C39_4 C 0.0257(8) 0.4081(18) 0.9869(8)
H22_4 H 0.0044 0.4550 0.8983
H23_4 H 0.0201 0.3673 0.8961
C42_4 C 0.1649(6) 0.085(2) 0.5570(6)
C43_4 C 0.0936(6) 0.082(3) 0.5096(10)
H27_4 H 0.0626 0.0801 0.5142
H28_4 H 0.0995 0.1296 0.4928
H29_4 H 0.1014 0.0374 0.4917
C44_4 C 0.0976(11) 0.083(3) 0.5982(11)
H30_4 H 0.0661 0.0803 0.5904
H31_4 H 0.1071 0.0379 0.6170
H32_4 H 0.1050 0.1300 0.6155
C45_4 C 0.1840(15) 0.092(3) 0.6095(16)
H33_4 H 0.2136 0.1130 0.6111
H34_4 H 0.1844 0.0415 0.6241
H35_4 H 0.1657 0.1273 0.6258
C46_4 C 0.0639(14) 0.446(3) 0.9680(16)
H36_4 H 0.0710 0.4939 0.9851
H37_4 H 0.0567 0.4581 0.9353
H38_4 H 0.0890 0.4113 0.9715
O28_4 O 0.2627(4) 0.1270(8) 0.4604(4)
O37_4 O 0.1478(4) 0.4633(6) 0.8393(5)
O39_4 O 0.1866(4) 0.2282(6) 0.4561(4)
O3_4 O 0.0023(4) 0.9644(5) 0.9196(4)
O4_4 O 0.0302(6) 0.9593(8) 0.8520(4)
O19_4 O 0.0279(4) 0.7885(7) 0.9125(6)
O21_4 O 0.0767(5) 0.4608(8) 0.8252(6)
O24_4 O 0.1866(4) 0.7718(6) 0.9561(4)
C11_4 C 0.0247(5) 0.9914(8) 0.8890(5)
C30_4 C 0.0675(5) 0.6763(8) 0.8958(6)
C31_4 C 0.0687(5) 0.6052(8) 0.8730(5)
H18_4 H 0.0422 0.5829 0.8602
C32_4 C 0.1078(4) 0.5659(8) 0.8685(5)
C33_4 C 0.1462(5) 0.5992(8) 0.8898(5)
H19_4 H 0.1732 0.5737 0.8877
C34_4 C 0.1455(5) 0.6700(9) 0.9144(5)
C35_4 C 0.1065(5) 0.7086(8) 0.9164(6)
H20_4 H 0.1060 0.7570 0.9316
C36_4 C 0.0244(5) 0.7180(10) 0.9007(6)
C37_4 C 0.1100(6) 0.4923(9) 0.8412(6)
C38_4 C 0.1881(5) 0.7023(9) 0.9396(5)
N2_4 N 0.9907(9) 0.3919(18) 0.9541(8)
C28_4 C 0.8332(5) 0.0454(8) 0.7675(5)
C40_4 C 0.9967(15) 0.401(3) 0.9043(8)
H21_4 H 0.9697 0.3880 0.8857
C41_4 C 0.9547(11) 0.343(3) 0.9675(12)
H24_4 H 0.9329 0.3367 0.9411
H25_4 H 0.9662 0.2920 0.9772
H26_4 H 0.9414 0.3670 0.9932
Zn3_4 Zn 0.97888(5) 0.85971(8) 0.90794(5)
O13_4 O 0.9342(4) 0.8503(7) 0.8571(4)
O14_4 O 0.8908(3) 0.7485(6) 0.8767(4)
O20_4 O 0.9894(3) 0.6842(7) 0.8914(5)
C21_4 C 0.8585(5) 0.8479(7) 0.8273(5)
C22_4 C 0.8626(5) 0.9247(8) 0.8092(5)
H15_4 H 0.8900 0.9498 0.8132
C23_4 C 0.8276(5) 0.9627(8) 0.7860(5)
C24_4 C 0.7856(5) 0.9258(7) 0.7810(5)
H16_4 H 0.7610 0.9524 0.7667
C25_4 C 0.7810(5) 0.8478(7) 0.7978(5)
C26_4 C 0.8174(4) 0.8104(7) 0.8212(5)
H17_4 H 0.8144 0.7599 0.8329
C27_4 C 0.8972(5) 0.8115(7) 0.8556(5)
C29_4 C 0.7362(5) 0.8120(8) 0.7937(6)
O27_4 O 0.9485(6) 0.8480(10) 0.9633(6)
O21_5 O 0.5767(5) 0.0392(8) 0.3252(6)
O22 O 0.6478(4) 0.0367(6) 0.3393(5)
C37_5 C 0.6100(6) 0.0077(9) 0.3412(6)
Zn8 Zn 0.64134(5) 0.13509(9) 0.30562(5)
Zn1_2 Zn 0.67572(5) 0.31677(8) 0.26923(6)
O1_5 O 0.6362(5) 0.3260(8) 0.3189(4)
O2_5 O 0.6238(4) 0.2066(7) 0.3511(4)
O3_5 O 0.5023(4) 0.5356(5) 0.4196(4)
O4_5 O 0.5302(6) 0.5407(8) 0.3520(4)
O5_5 O 0.5759(4) 0.2322(7) 0.5189(4)
O7_5 O 0.6183(3) 0.1471(7) 0.2400(3)
O8_5 O 0.6575(4) 0.2470(6) 0.2151(4)
O9_5 O 0.7041(4) 0.2425(8) 0.0521(5)
O13_5 O 0.4342(4) 0.6497(7) 0.3571(4)
O15_3 O 0.3694(5) 0.4246(7) 0.2757(6)
O16_3 O 0.2995(4) 0.4211(6) 0.2469(5)
O17_3 O 0.2048(3) 0.6412(6) 0.2930(5)
O18_3 O 0.2320(3) 0.7619(5) 0.2937(4)
O19_5 O 0.5279(4) 0.7115(7) 0.4125(6)
O23_3 O 0.7205(3) 0.8425(7) 0.4443(4)
O25_5 O 0.5226(7) 0.1050(14) 0.5283(8)
O26_5 O 0.6830(4) 0.4078(8) 0.0210(5)
N2_5 N 0.4907(9) 0.1081(18) 0.4541(8)
N3_5 N 0.6197(6) 0.4176(19) 0.0551(8)
C3_5 C 0.5949(5) 0.3223(9) 0.3841(5)
C4_5 C 0.5905(5) 0.2890(7) 0.4271(5)
H9_5 H 0.6037 0.2408 0.4351
C5_5 C 0.5660(5) 0.3285(8) 0.4587(5)
C6_5 C 0.5446(5) 0.3988(8) 0.4465(5)
H10_5 H 0.5285 0.4243 0.4682
C7_5 C 0.5471(5) 0.4316(8) 0.4017(5)
C8_5 C 0.5725(5) 0.3928(9) 0.3710(5)
H11_5 H 0.5747 0.4136 0.3411
C9_5 C 0.6204(5) 0.2844(9) 0.3474(5)
C10_5 C 0.5630(6) 0.2984(9) 0.5071(6)
C11_5 C 0.5247(5) 0.5086(8) 0.3890(5)
C12_5 C 0.6791(5) 0.1328(9) 0.0916(5)
C13_5 C 0.6621(5) 0.0576(9) 0.0843(5)
H12_5 H 0.6695 0.0286 0.0585
C14_5 C 0.6346(5) 0.0257(8) 0.1142(5)
C15_5 C 0.6261(5) 0.0658(8) 0.1550(5)
H13_5 H 0.6082 0.0432 0.1761
C16_5 C 0.6444(5) 0.1393(8) 0.1641(4)
C17_5 C 0.6712(5) 0.1724(8) 0.1329(5)
H14_5 H 0.6840 0.2214 0.1394
C18_5 C 0.7085(5) 0.1719(9) 0.0583(5)
C20_5 C 0.6401(5) 0.1809(9) 0.2104(5)
C21_5 C 0.3585(5) 0.6521(7) 0.3273(5)
C22_5 C 0.3626(5) 0.5753(8) 0.3092(5)
H15_5 H 0.3900 0.5502 0.3132
C23_5 C 0.3276(5) 0.5373(8) 0.2860(5)
C24_5 C 0.2856(5) 0.5742(7) 0.2810(5)
H16_5 H 0.2610 0.5476 0.2667
C25_5 C 0.2810(5) 0.6522(7) 0.2978(5)
C26_5 C 0.3174(4) 0.6896(7) 0.3212(5)
H17_5 H 0.3144 0.7401 0.3329
C27_5 C 0.3972(5) 0.6885(7) 0.3556(5)
C28_5 C 0.3332(5) 0.4546(8) 0.2675(5)
C29_5 C 0.2362(5) 0.6880(8) 0.2937(6)
C30_5 C 0.5675(5) 0.8237(8) 0.3958(6)
C31_5 C 0.5687(5) 0.8948(8) 0.3730(5)
H18_5 H 0.5422 0.9171 0.3602
C32_5 C 0.6078(4) 0.9341(8) 0.3685(5)
C33_5 C 0.6462(5) 0.9008(8) 0.3898(5)
H19_5 H 0.6732 0.9263 0.3877
C34_5 C 0.6455(5) 0.8300(9) 0.4144(5)
C35_5 C 0.6065(5) 0.7914(8) 0.4164(6)
H20_5 H 0.6060 0.7430 0.4316
C36_5 C 0.5244(5) 0.7820(10) 0.4007(6)
C38_5 C 0.6881(5) 0.7977(9) 0.4396(5)
C39_5 C 0.5257(8) 0.0919(18) 0.4869(8)
C40_5 C 0.4967(15) 0.099(3) 0.4043(8)
H21_5 H 0.4697 0.1120 0.3857
H22_5 H 0.5044 0.0450 0.3983
H23_5 H 0.5201 0.1327 0.3961
C41_5 C 0.4547(11) 0.157(3) 0.4675(12)
H24_5 H 0.4329 0.1633 0.4411
H25_5 H 0.4662 0.2080 0.4772
H26_5 H 0.4414 0.1330 0.4932
C42_5 C 0.6649(6) 0.415(2) 0.0570(6)
C43_5 C 0.5936(6) 0.418(3) 0.0096(10)
H27_5 H 0.5626 0.4199 0.0142
C44_5 C 0.5976(11) 0.417(3) 0.0982(11)
H30_5 H 0.5661 0.4197 0.0904
H31_5 H 0.6071 0.4621 0.1170
H32_5 H 0.6050 0.3700 0.1155
C45_5 C 0.6840(15) 0.408(3) 0.1095(16)
H33_5 H 0.7136 0.3870 0.1111
H34_5 H 0.6844 0.4585 0.1241
H35_5 H 0.6657 0.3727 0.1258
C46_5 C 0.5639(14) 0.054(3) 0.4680(16)
H36_5 H 0.5710 0.0061 0.4851
H37_5 H 0.5567 0.0419 0.4353
H38_5 H 0.5890 0.0887 0.4715
Zn6_2 Zn 0.32428(5) 0.31677(8) 0.23077(6)
Zn7_3 Zn 0.17572(5) 0.81677(8) 0.26923(6)
Zn9_3 Zn 0.14134(5) 0.63509(9) 0.30562(5)
O32_3 O 0.6306(5) 0.4246(7) 0.2243(6)
O33_3 O 0.7005(4) 0.4211(6) 0.2531(5)
O34_3 O 0.7048(3) 0.1412(6) 0.2930(5)
O35_3 O 0.7320(3) 0.2619(5) 0.2937(4)
O38_3 O 0.7795(3) 0.3425(7) 0.0557(4)
H28_5 H 0.5995 0.3704 0.9928
H29_5 H 0.6014 0.4626 0.9917
C19_5 C 0.6121(6) 0.9474(9) 0.1034(6)
O21_6 O 0.4233(5) 0.0392(8) 0.1748(6)
O22_2 O 0.3522(4) 0.0367(6) 0.1607(5)
C37_6 C 0.3900(6) 0.0077(9) 0.1588(6)
Zn8_2 Zn 0.35866(5) 0.13509(9) 0.19438(5)
O1_6 O 0.3638(5) 0.3260(8) 0.1811(4)
O2_6 O 0.3762(4) 0.2066(7) 0.1489(4)
O3_6 O 0.4977(4) 0.5356(5) 0.0804(4)
O4_6 O 0.4698(6) 0.5407(8) 0.1480(4)
O7_6 O 0.3817(3) 0.1471(7) 0.2600(3)
O8_6 O 0.3425(4) 0.2470(6) 0.2849(4)
O9_6 O 0.2959(4) 0.2425(8) 0.4479(5)
O13_6 O 0.5658(4) 0.6497(7) 0.1429(4)
O17_4 O 0.7952(3) 0.6412(6) 0.2070(5)
O18_4 O 0.7680(3) 0.7619(5) 0.2063(4)
O19_6 O 0.4721(4) 0.7115(7) 0.0875(6)
O23_4 O 0.2795(3) 0.8425(7) 0.0557(4)
O26_6 O 0.3170(4) 0.4078(8) 0.4790(5)
N2_6 N 0.5093(9) 0.1081(18) 0.0459(8)
N3_6 N 0.3803(6) 0.4176(19) 0.4449(8)
C3_6 C 0.4051(5) 0.3223(9) 0.1159(5)
C4_6 C 0.4095(5) 0.2890(7) 0.0729(5)
H9_6 H 0.3963 0.2408 0.0649
C5_6 C 0.4340(5) 0.3285(8) 0.0413(5)
C6_6 C 0.4554(5) 0.3988(8) 0.0535(5)
H10_6 H 0.4715 0.4243 0.0318
C7_6 C 0.4529(5) 0.4316(8) 0.0983(5)
C8_6 C 0.4275(5) 0.3928(9) 0.1290(5)
H11_6 H 0.4253 0.4136 0.1589
C9_6 C 0.3796(5) 0.2844(9) 0.1526(5)
C11_6 C 0.4753(5) 0.5086(8) 0.1110(5)
C12_6 C 0.3209(5) 0.1328(9) 0.4084(5)
C13_6 C 0.3379(5) 0.0576(9) 0.4157(5)
H12_6 H 0.3305 0.0286 0.4415
C14_6 C 0.3654(5) 0.0257(8) 0.3858(5)
C15_6 C 0.3739(5) 0.0658(8) 0.3450(5)
H13_6 H 0.3918 0.0432 0.3239
C16_6 C 0.3556(5) 0.1393(8) 0.3359(4)
C17_6 C 0.3288(5) 0.1724(8) 0.3671(5)
H14_6 H 0.3160 0.2214 0.3606
C18_6 C 0.2915(5) 0.1719(9) 0.4417(5)
C20_6 C 0.3599(5) 0.1809(9) 0.2896(5)
C21_6 C 0.6415(5) 0.6521(7) 0.1727(5)
C22_6 C 0.6374(5) 0.5753(8) 0.1908(5)
H15_6 H 0.6100 0.5502 0.1868
C23_6 C 0.6724(5) 0.5373(8) 0.2140(5)
C24_6 C 0.7144(5) 0.5742(7) 0.2190(5)
H16_6 H 0.7390 0.5476 0.2333
C25_6 C 0.7190(5) 0.6522(7) 0.2022(5)
C26_6 C 0.6826(4) 0.6896(7) 0.1788(5)
H17_6 H 0.6856 0.7401 0.1671
C27_6 C 0.6028(5) 0.6885(7) 0.1444(5)
C28_6 C 0.6668(5) 0.4546(8) 0.2325(5)
C29_6 C 0.7638(5) 0.6880(8) 0.2063(6)
C30_6 C 0.4325(5) 0.8237(8) 0.1042(6)
C31_6 C 0.4313(5) 0.8948(8) 0.1270(5)
H18_6 H 0.4578 0.9171 0.1398
C32_6 C 0.3922(4) 0.9341(8) 0.1315(5)
C33_6 C 0.3538(5) 0.9008(8) 0.1102(5)
H19_6 H 0.3268 0.9263 0.1123
C34_6 C 0.3545(5) 0.8300(9) 0.0856(5)
C35_6 C 0.3935(5) 0.7914(8) 0.0836(6)
H20_6 H 0.3940 0.7430 0.0684
C36_6 C 0.4756(5) 0.7820(10) 0.0993(6)
C38_6 C 0.3119(5) 0.7977(9) 0.0604(5)
C39_6 C 0.4743(8) 0.0919(18) 0.0131(8)
C40_6 C 0.5033(15) 0.099(3) 0.0957(8)
H21_6 H 0.5303 0.1120 0.1143
H22_6 H 0.4956 0.0450 0.1017
H23_6 H 0.4799 0.1327 0.1039
C41_6 C 0.5453(11) 0.157(3) 0.0325(12)
H24_6 H 0.5671 0.1633 0.0589
H25_6 H 0.5338 0.2080 0.0228
H26_6 H 0.5586 0.1330 0.0068
C42_6 C 0.3351(6) 0.415(2) 0.4430(6)
C43_6 C 0.4064(6) 0.418(3) 0.4904(10)
H27_6 H 0.4374 0.4199 0.4858
H28_6 H 0.4005 0.3704 0.5072
H29_6 H 0.3986 0.4626 0.5083
C44_6 C 0.4024(11) 0.417(3) 0.4018(11)
H30_6 H 0.4339 0.4197 0.4096
H31_6 H 0.3929 0.4621 0.3830
H32_6 H 0.3950 0.3700 0.3845
C45_6 C 0.3160(15) 0.408(3) 0.3905(16)
H33_6 H 0.2864 0.3870 0.3889
H34_6 H 0.3156 0.4585 0.3759
H35_6 H 0.3343 0.3727 0.3742
C46_6 C 0.4361(14) 0.054(3) 0.0320(16)
H36_6 H 0.4290 0.0061 0.0149
H37_6 H 0.4433 0.0419 0.0647
H38_6 H 0.4110 0.0887 0.0285
Zn7_4 Zn 0.82428(5) 0.81677(8) 0.23077(6)
Zn9_4 Zn 0.85866(5) 0.63509(9) 0.19438(5)
O34_4 O 0.2952(3) 0.1412(6) 0.2070(5)
O35_4 O 0.2680(3) 0.2619(5) 0.2063(4)
O38_4 O 0.2205(3) 0.3425(7) 0.4443(4)
O5_6 O 0.4241(4) 0.2322(7) 0.9811(4)
O25_6 O 0.4774(7) 0.1050(14) 0.9717(8)
C10_6 C 0.4370(6) 0.2984(9) 0.9929(6)
C19_6 C 0.3879(6) 0.9474(9) 0.3966(6)
O3_7 O 0.0023(4) 0.0356(5) 0.4196(4)
O4_7 O 0.0302(6) 0.0407(8) 0.3520(4)
O19_7 O 0.0279(4) 0.2115(7) 0.4125(6)
O21_7 O 0.0767(5) 0.5392(8) 0.3252(6)
O22_3 O 0.1478(4) 0.5367(6) 0.3393(5)
C11_7 C 0.0247(5) 0.0086(8) 0.3890(5)
C30_7 C 0.0675(5) 0.3237(8) 0.3958(6)
C31_7 C 0.0687(5) 0.3948(8) 0.3730(5)
H18_7 H 0.0422 0.4171 0.3602
C32_7 C 0.1078(4) 0.4341(8) 0.3685(5)
C33_7 C 0.1462(5) 0.4008(8) 0.3898(5)
H19_7 H 0.1732 0.4263 0.3877
C34_7 C 0.1455(5) 0.3300(9) 0.4144(5)
C35_7 C 0.1065(5) 0.2914(8) 0.4164(6)
H20_7 H 0.1060 0.2430 0.4316
C36_7 C 0.0244(5) 0.2820(10) 0.4007(6)
C37_7 C 0.1100(6) 0.5077(9) 0.3412(6)
C38_7 C 0.1881(5) 0.2977(9) 0.4396(5)
O1_7 O 0.1362(5) 0.8260(8) 0.3189(4)
O2_7 O 0.1238(4) 0.7066(7) 0.3511(4)
O5_7 O 0.0759(4) 0.7322(7) 0.5189(4)
O7_7 O 0.1183(3) 0.6471(7) 0.2400(3)
O8_7 O 0.1575(4) 0.7470(6) 0.2151(4)
O9_7 O 0.2041(4) 0.7425(8) 0.0521(5)
O25_7 O 0.0226(7) 0.6050(14) 0.5283(8)
O26_7 O 0.1830(4) 0.9078(8) 0.0210(5)
N3_7 N 0.1197(6) 0.9176(19) 0.0551(8)
C3_7 C 0.0949(5) 0.8223(9) 0.3841(5)
C4_7 C 0.0905(5) 0.7890(7) 0.4271(5)
H9_7 H 0.1037 0.7408 0.4351
C5_7 C 0.0660(5) 0.8285(8) 0.4587(5)
C6_7 C 0.0446(5) 0.8988(8) 0.4465(5)
H10_7 H 0.0285 0.9243 0.4682
C7_7 C 0.0471(5) 0.9316(8) 0.4017(5)
C8_7 C 0.0725(5) 0.8928(9) 0.3710(5)
H11_7 H 0.0747 0.9136 0.3411
C9_7 C 0.1204(5) 0.7844(9) 0.3474(5)
C10_7 C 0.0630(6) 0.7984(9) 0.5071(6)
C12_7 C 0.1791(5) 0.6328(9) 0.0916(5)
C13_7 C 0.1621(5) 0.5576(9) 0.0843(5)
H12_7 H 0.1695 0.5286 0.0585
C14_7 C 0.1346(5) 0.5257(8) 0.1142(5)
C15_7 C 0.1261(5) 0.5658(8) 0.1550(5)
H13_7 H 0.1082 0.5432 0.1761
C16_7 C 0.1444(5) 0.6393(8) 0.1641(4)
C17_7 C 0.1712(5) 0.6724(8) 0.1329(5)
H14_7 H 0.1840 0.7214 0.1394
C18_7 C 0.2085(5) 0.6719(9) 0.0583(5)
C19_7 C 0.1121(6) 0.4474(9) 0.1034(6)
C20_7 C 0.1401(5) 0.6809(9) 0.2104(5)
C39_7 C 0.0257(8) 0.5919(18) 0.4869(8)
H22_7 H 0.0044 0.5450 0.3983
H23_7 H 0.0201 0.6327 0.3961
C42_7 C 0.1649(6) 0.915(2) 0.0570(6)
C43_7 C 0.0936(6) 0.918(3) 0.0096(10)
H27_7 H 0.0626 0.9199 0.0142
C44_7 C 0.0976(11) 0.917(3) 0.0982(11)
H30_7 H 0.0661 0.9197 0.0904
H31_7 H 0.1071 0.9621 0.1170
H32_7 H 0.1050 0.8700 0.1155
C45_7 C 0.1840(15) 0.908(3) 0.1095(16)
H33_7 H 0.2136 0.8870 0.1111
H34_7 H 0.1844 0.9585 0.1241
H35_7 H 0.1657 0.8727 0.1258
C46_7 C 0.0639(14) 0.554(3) 0.4680(16)
H36_7 H 0.0710 0.5061 0.4851
H37_7 H 0.0567 0.5419 0.4353
H38_7 H 0.0890 0.5887 0.4715
O32_4 O 0.1306(5) 0.9246(7) 0.2243(6)
O33_4 O 0.2005(4) 0.9211(6) 0.2531(5)
H28_7 H 0.0995 0.8704 0.9928
H29_7 H 0.1014 0.9626 0.9917
O13_7 O 0.9342(4) 0.1497(7) 0.3571(4)
C21_7 C 0.8585(5) 0.1521(7) 0.3273(5)
C22_7 C 0.8626(5) 0.0753(8) 0.3092(5)
H15_7 H 0.8900 0.0502 0.3132
C23_7 C 0.8276(5) 0.0373(8) 0.2860(5)
C24_7 C 0.7856(5) 0.0742(7) 0.2810(5)
H16_7 H 0.7610 0.0476 0.2667
C25_7 C 0.7810(5) 0.1522(7) 0.2978(5)
C26_7 C 0.8174(4) 0.1896(7) 0.3212(5)
H17_7 H 0.8144 0.2401 0.3329
C27_7 C 0.8972(5) 0.1885(7) 0.3556(5)
C29_7 C 0.7362(5) 0.1880(8) 0.2937(6)
O15_4 O 0.8694(5) 0.9246(7) 0.2757(6)
O16_4 O 0.7995(4) 0.9211(6) 0.2469(5)
N2_7 N 0.9907(9) 0.6081(18) 0.4541(8)
C28_7 C 0.8332(5) 0.9546(8) 0.2675(5)
C40_7 C 0.9967(15) 0.599(3) 0.4043(8)
H21_7 H 0.9697 0.6120 0.3857
C41_7 C 0.9547(11) 0.657(3) 0.4675(12)
H24_7 H 0.9329 0.6633 0.4411
H25_7 H 0.9662 0.7080 0.4772
H26_7 H 0.9414 0.6330 0.4932
O13_8 O 0.0658(4) 0.1497(7) 0.1429(4)
C21_8 C 0.1415(5) 0.1521(7) 0.1727(5)
C22_8 C 0.1374(5) 0.0753(8) 0.1908(5)
H15_8 H 0.1100 0.0502 0.1868
C23_8 C 0.1724(5) 0.0373(8) 0.2140(5)
C24_8 C 0.2144(5) 0.0742(7) 0.2190(5)
H16_8 H 0.2390 0.0476 0.2333
C25_8 C 0.2190(5) 0.1522(7) 0.2022(5)
C26_8 C 0.1826(4) 0.1896(7) 0.1788(5)
H17_8 H 0.1856 0.2401 0.1671
C27_8 C 0.1028(5) 0.1885(7) 0.1444(5)
C29_8 C 0.2638(5) 0.1880(8) 0.2063(6)
N2_8 N 0.0093(9) 0.6081(18) 0.0459(8)
C28_8 C 0.1668(5) 0.9546(8) 0.2325(5)
C40_8 C 0.0033(15) 0.599(3) 0.0957(8)
H21_8 H 0.0303 0.6120 0.1143
C41_8 C 0.0453(11) 0.657(3) 0.0325(12)
H24_8 H 0.0671 0.6633 0.0589
H25_8 H 0.0338 0.7080 0.0228
H26_8 H 0.0586 0.6330 0.0068
O3_8 O 0.9977(4) 0.0356(5) 0.0804(4)
O4_8 O 0.9698(6) 0.0407(8) 0.1480(4)
O19_8 O 0.9721(4) 0.2115(7) 0.0875(6)
O21_8 O 0.9233(5) 0.5392(8) 0.1748(6)
O22_4 O 0.8522(4) 0.5367(6) 0.1607(5)
C11_8 C 0.9753(5) 0.0086(8) 0.1110(5)
C30_8 C 0.9325(5) 0.3237(8) 0.1042(6)
C31_8 C 0.9313(5) 0.3948(8) 0.1270(5)
H18_8 H 0.9578 0.4171 0.1398
C32_8 C 0.8922(4) 0.4341(8) 0.1315(5)
C33_8 C 0.8538(5) 0.4008(8) 0.1102(5)
H19_8 H 0.8268 0.4263 0.1123
C34_8 C 0.8545(5) 0.3300(9) 0.0856(5)
C35_8 C 0.8935(5) 0.2914(8) 0.0836(6)
H20_8 H 0.8940 0.2430 0.0684
C36_8 C 0.9756(5) 0.2820(10) 0.0993(6)
C37_8 C 0.8900(6) 0.5077(9) 0.1588(6)
C38_8 C 0.8119(5) 0.2977(9) 0.0604(5)
O1_8 O 0.8638(5) 0.8260(8) 0.1811(4)
O2_8 O 0.8762(4) 0.7066(7) 0.1489(4)
O7_8 O 0.8817(3) 0.6471(7) 0.2600(3)
O8_8 O 0.8425(4) 0.7470(6) 0.2849(4)
O9_8 O 0.7959(4) 0.7425(8) 0.4479(5)
O26_8 O 0.8170(4) 0.9078(8) 0.4790(5)
N3_8 N 0.8803(6) 0.9176(19) 0.4449(8)
C3_8 C 0.9051(5) 0.8223(9) 0.1159(5)
C4_8 C 0.9095(5) 0.7890(7) 0.0729(5)
H9_8 H 0.8963 0.7408 0.0649
C5_8 C 0.9340(5) 0.8285(8) 0.0413(5)
C6_8 C 0.9554(5) 0.8988(8) 0.0535(5)
H10_8 H 0.9715 0.9243 0.0318
C7_8 C 0.9529(5) 0.9316(8) 0.0983(5)
C8_8 C 0.9275(5) 0.8928(9) 0.1290(5)
H11_8 H 0.9253 0.9136 0.1589
C9_8 C 0.8796(5) 0.7844(9) 0.1526(5)
C12_8 C 0.8209(5) 0.6328(9) 0.4084(5)
C13_8 C 0.8379(5) 0.5576(9) 0.4157(5)
H12_8 H 0.8305 0.5286 0.4415
C14_8 C 0.8654(5) 0.5257(8) 0.3858(5)
C15_8 C 0.8739(5) 0.5658(8) 0.3450(5)
H13_8 H 0.8918 0.5432 0.3239
C16_8 C 0.8556(5) 0.6393(8) 0.3359(4)
C17_8 C 0.8288(5) 0.6724(8) 0.3671(5)
H14_8 H 0.8160 0.7214 0.3606
C18_8 C 0.7915(5) 0.6719(9) 0.4417(5)
C19_8 C 0.8879(6) 0.4474(9) 0.3966(6)
C20_8 C 0.8599(5) 0.6809(9) 0.2896(5)
C39_8 C 0.9743(8) 0.5919(18) 0.0131(8)
H22_8 H 0.9956 0.5450 0.1017
H23_8 H 0.9799 0.6327 0.1039
C42_8 C 0.8351(6) 0.915(2) 0.4430(6)
C43_8 C 0.9064(6) 0.918(3) 0.4904(10)
H27_8 H 0.9374 0.9199 0.4858
H28_8 H 0.9005 0.8704 0.5072
H29_8 H 0.8986 0.9626 0.5083
C44_8 C 0.9024(11) 0.917(3) 0.4018(11)
H30_8 H 0.9339 0.9197 0.4096
H31_8 H 0.8929 0.9621 0.3830
H32_8 H 0.8950 0.8700 0.3845
C45_8 C 0.8160(15) 0.908(3) 0.3905(16)
H33_8 H 0.7864 0.8870 0.3889
H34_8 H 0.8156 0.9585 0.3759
H35_8 H 0.8343 0.8727 0.3742
C46_8 C 0.9361(14) 0.554(3) 0.0320(16)
H36_8 H 0.9290 0.5061 0.0149
H37_8 H 0.9433 0.5419 0.0647
H38_8 H 0.9110 0.5887 0.0285
O5_8 O 0.9241(4) 0.7322(7) 0.9811(4)
O25_8 O 0.9774(7) 0.6050(14) 0.9717(8)
C10_8 C 0.9370(6) 0.7984(9) 0.9929(6)
loop_
_geom_bond_atom_site_label_1
_geom_bond_atom_site_label_2
_geom_bond_site_symmetry_1
_geom_bond_site_symmetry_2
N1 H1 1_555 1_555
H2 N1 1_555 1_555
C1 N1 1_555 1_555
H3 C1 1_555 1_555
H4 C1 1_555 1_555
H5 C1 1_555 1_555
C2 N1 1_555 1_555
H6 C2 1_555 1_555
H7 C2 1_555 1_555
H8 C2 1_555 1_555
N1_2 H1_2 1_555 1_555
H2_2 N1_2 1_555 1_555
C1_2 N1_2 1_555 1_555
H3_2 C1_2 1_555 1_555
H4_2 C1_2 1_555 1_555
H5_2 C1_2 1_555 1_555
C2_2 N1_2 1_555 1_555
H6_2 C2_2 1_555 1_555
H7_2 C2_2 1_555 1_555
H8_2 C2_2 1_555 1_555
N1_3 H1_3 1_555 1_555
H2_3 N1_3 1_555 1_555
C1_3 N1_3 1_555 1_555
H3_3 C1_3 1_555 1_555
H4_3 C1_3 1_555 1_555
H5_3 C1_3 1_555 1_555
C2_3 N1_3 1_555 1_555
H6_3 C2_3 1_555 1_555
H7_3 C2_3 1_555 1_555
H8_3 C2_3 1_555 1_555
N1_4 H1_4 1_555 1_555
H2_4 N1_4 1_555 1_555
C1_4 N1_4 1_555 1_555
H3_4 C1_4 1_555 1_555
H4_4 C1_4 1_555 1_555
H5_4 C1_4 1_555 1_555
C2_4 N1_4 1_555 1_555
H6_4 C2_4 1_555 1_555
H7_4 C2_4 1_555 1_555
H8_4 C2_4 1_555 1_555
N1_5 H1_5 1_555 1_555
H2_5 N1_5 1_555 1_555
C1_5 N1_5 1_555 1_555
H3_5 C1_5 1_555 1_555
H4_5 C1_5 1_555 1_555
H5_5 C1_5 1_555 1_555
C2_5 N1_5 1_555 1_555
H6_5 C2_5 1_555 1_555
H7_5 C2_5 1_555 1_555
H8_5 C2_5 1_555 1_555
N1_6 H1_6 1_555 1_555
H2_6 N1_6 1_555 1_555
C1_6 N1_6 1_555 1_555
H3_6 C1_6 1_555 1_555
H4_6 C1_6 1_555 1_555
H5_6 C1_6 1_555 1_555
C2_6 N1_6 1_555 1_555
H6_6 C2_6 1_555 1_555
H7_6 C2_6 1_555 1_555
H8_6 C2_6 1_555 1_555
N1_7 H1_7 1_555 1_555
H2_7 N1_7 1_555 1_555
C1_7 N1_7 1_555 1_555
H3_7 C1_7 1_555 1_555
H4_7 C1_7 1_555 1_555
H5_7 C1_7 1_555 1_555
C2_7 N1_7 1_555 1_555
H6_7 C2_7 1_555 1_555
H7_7 C2_7 1_555 1_555
H8_7 C2_7 1_555 1_555
N1_8 H1_8 1_555 1_555
H2_8 N1_8 1_555 1_555
C1_8 N1_8 1_555 1_555
H3_8 C1_8 1_555 1_555
H4_8 C1_8 1_555 1_555
H5_8 C1_8 1_555 1_555
C2_8 N1_8 1_555 1_555
H6_8 C2_8 1_555 1_555
H7_8 C2_8 1_555 1_555
H8_8 C2_8 1_555 1_555
O11 C19 1_555 1_555
O12 C19 1_555 1_555
Zn12 O11 1_555 1_555
O12 Zn12 1_555 1_555
Zn1 O1 1_555 1_555
Zn2 O2 1_555 1_555
Zn3 O3 1_555 1_555
Zn4 O5 1_555 1_555
Zn5 O9 1_555 1_555
O1 C9 1_555 1_555
O2 C9 1_555 1_555
O3 C11 1_555 1_555
O4 C11 1_555 1_555
O5 C10 1_555 1_555
O6 C10 1_555 1_555
O7 Zn2 1_555 1_555
O8 Zn1 1_555 1_555
O9 C18 1_555 1_555
O10 C18 1_555 1_555
O13 Zn3 1_555 1_555
O14 C27 1_555 1_555
O15 C28 1_555 1_555
O16 C28 1_555 1_555
O17 C29 1_555 1_555
O18 C29 1_555 1_555
O19 Zn3 1_555 1_555
O20 C36 1_555 1_555
O23 C38 1_555 1_555
O24 C38 1_555 1_555
O25 Zn4 1_555 1_555
O26 Zn5 1_555 1_555
N2 C39 1_555 1_555
N3 C42 1_555 1_555
C3 C4 1_555 1_555
C4 H9 1_555 1_555
C5 C4 1_555 1_555
C6 C5 1_555 1_555
H10 C6 1_555 1_555
C7 C6 1_555 1_555
C8 C3 1_555 1_555
H11 C8 1_555 1_555
C9 C3 1_555 1_555
C10 C5 1_555 1_555
C11 C7 1_555 1_555
C12 C13 1_555 1_555
C13 H12 1_555 1_555
C14 C13 1_555 1_555
C15 C14 1_555 1_555
H13 C15 1_555 1_555
C16 C15 1_555 1_555
C17 C12 1_555 1_555
H14 C17 1_555 1_555
C18 C12 1_555 1_555
C20 O7 1_555 1_555
C21 C22 1_555 1_555
C22 H15 1_555 1_555
C23 C22 1_555 1_555
C24 C23 1_555 1_555
H16 C24 1_555 1_555
C25 C24 1_555 1_555
C26 C21 1_555 1_555
H17 C26 1_555 1_555
C27 O13 1_555 1_555
C28 C23 1_555 1_555
C29 C25 1_555 1_555
C30 C31 1_555 1_555
C31 H18 1_555 1_555
C32 C31 1_555 1_555
C33 C32 1_555 1_555
H19 C33 1_555 1_555
C34 C33 1_555 1_555
C35 C30 1_555 1_555
H20 C35 1_555 1_555
C36 O19 1_555 1_555
C38 C34 1_555 1_555
C39 O25 1_555 1_555
C40 N2 1_555 1_555
H21 C40 1_555 1_555
H22 C40 1_555 1_555
H23 C40 1_555 1_555
C41 N2 1_555 1_555
H24 C41 1_555 1_555
H25 C41 1_555 1_555
H26 C41 1_555 1_555
C42 O26 1_555 1_555
C43 N3 1_555 1_555
H27 C43 1_555 1_555
C44 N3 1_555 1_555
H30 C44 1_555 1_555
H31 C44 1_555 1_555
H32 C44 1_555 1_555
C45 C42 1_555 1_555
H33 C45 1_555 1_555
H34 C45 1_555 1_555
H35 C45 1_555 1_555
C46 C39 1_555 1_555
H36 C46 1_555 1_555
H37 C46 1_555 1_555
H38 C46 1_555 1_555
Zn6 O15 1_555 1_555
Zn7 O18 1_555 1_555
Zn9 O17 1_555 1_555
Zn10 O6 1_555 1_555
Zn11 O14 1_555 1_555
Zn13 O23 1_555 1_555
Zn14 O24 1_555 1_555
O27 Zn3 1_555 1_555
O29 Zn4 1_555 1_555
O30 Zn4 1_555 1_555
O31 Zn4 1_555 1_555
O32 Zn1 1_555 1_555
O33 Zn1 1_555 1_555
O34 Zn2 1_555 1_555
O35 Zn1 1_555 1_555
O36 Zn4 1_555 1_555
O37 Zn2 1_555 1_555
O38 Zn5 1_555 1_555
O8 C20 1_555 1_555
O16 Zn6 1_555 1_555
O20 Zn11 1_555 1_555
C7 C8 1_555 1_555
C16 C17 1_555 1_555
C16 C20 1_555 1_555
C21 C27 1_555 1_555
C25 C26 1_555 1_555
C30 C36 1_555 1_555
C34 C35 1_555 1_555
O21 C37 1_555 1_555
O37 C37 1_555 1_555
O11_2 C19_2 1_555 1_555
O12_2 C19_2 1_555 1_555
Zn11 O11_2 1_555 1_555
O12_2 Zn11 1_555 1_555
Zn4_2 O5_2 1_555 1_555
O5_2 C10_2 1_555 1_555
O6_2 C10_2 1_555 1_555
O25_2 Zn4_2 1_555 1_555
Zn10_2 O6_2 1_555 1_555
O29_2 Zn4_2 1_555 1_555
O30_2 Zn4_2 1_555 1_555
O31_2 Zn4_2 1_555 1_555
O36_2 Zn4_2 1_555 1_555
Zn6 O1_2 1_555 1_555
Zn2_2 O2_2 1_555 1_555
Zn3_2 O3_2 1_555 1_555
Zn5_2 O9_2 1_555 1_555
O1_2 C9_2 1_555 1_555
O2_2 C9_2 1_555 1_555
O3_2 C11_2 1_555 1_555
O4_2 C11_2 1_555 1_555
O7_2 Zn2_2 1_555 1_555
O8_2 Zn6 1_555 1_555
O9_2 C18_2 1_555 1_555
O10_2 C18_2 1_555 1_555
O13_2 Zn3_2 1_555 1_555
O14_2 C27_2 1_555 1_555
O32 C28_2 1_555 1_555
O33 C28_2 1_555 1_555
O17_2 C29_2 1_555 1_555
O18_2 C29_2 1_555 1_555
O19_2 Zn3_2 1_555 1_555
O20_2 C36_2 1_555 1_555
O23_2 C38_2 1_555 1_555
O24_2 C38_2 1_555 1_555
O26_2 Zn5_2 1_555 1_555
N2_2 C39_2 1_555 1_555
N3_2 C42_2 1_555 1_555
C3_2 C4_2 1_555 1_555
C4_2 H9_2 1_555 1_555
C5_2 C4_2 1_555 1_555
C6_2 C5_2 1_555 1_555
H10_2 C6_2 1_555 1_555
C7_2 C6_2 1_555 1_555
C8_2 C3_2 1_555 1_555
H11_2 C8_2 1_555 1_555
C9_2 C3_2 1_555 1_555
C11_2 C7_2 1_555 1_555
C12_2 C13_2 1_555 1_555
C13_2 H12_2 1_555 1_555
C14_2 C13_2 1_555 1_555
C15_2 C14_2 1_555 1_555
H13_2 C15_2 1_555 1_555
C16_2 C15_2 1_555 1_555
C17_2 C12_2 1_555 1_555
H14_2 C17_2 1_555 1_555
C18_2 C12_2 1_555 1_555
C20_2 O7_2 1_555 1_555
C21_2 C22_2 1_555 1_555
C22_2 H15_2 1_555 1_555
C23_2 C22_2 1_555 1_555
C24_2 C23_2 1_555 1_555
H16_2 C24_2 1_555 1_555
C25_2 C24_2 1_555 1_555
C26_2 C21_2 1_555 1_555
H17_2 C26_2 1_555 1_555
C27_2 O13_2 1_555 1_555
C28_2 C23_2 1_555 1_555
C29_2 C25_2 1_555 1_555
C30_2 C31_2 1_555 1_555
C31_2 H18_2 1_555 1_555
C32_2 C31_2 1_555 1_555
C33_2 C32_2 1_555 1_555
H19_2 C33_2 1_555 1_555
C34_2 C33_2 1_555 1_555
C35_2 C30_2 1_555 1_555
H20_2 C35_2 1_555 1_555
C36_2 O19_2 1_555 1_555
C38_2 C34_2 1_555 1_555
C40_2 N2_2 1_555 1_555
H21_2 C40_2 1_555 1_555
H22_2 C40_2 1_555 1_555
H23_2 C40_2 1_555 1_555
C41_2 N2_2 1_555 1_555
H24_2 C41_2 1_555 1_555
H25_2 C41_2 1_555 1_555
H26_2 C41_2 1_555 1_555
C42_2 O26_2 1_555 1_555
C43_2 N3_2 1_555 1_555
H27_2 C43_2 1_555 1_555
H28_2 C43_2 1_555 1_555
H29_2 C43_2 1_555 1_555
C44_2 N3_2 1_555 1_555
H30_2 C44_2 1_555 1_555
H31_2 C44_2 1_555 1_555
H32_2 C44_2 1_555 1_555
C45_2 C42_2 1_555 1_555
H33_2 C45_2 1_555 1_555
H34_2 C45_2 1_555 1_555
H35_2 C45_2 1_555 1_555
C46_2 C39_2 1_555 1_555
H36_2 C46_2 1_555 1_555
H37_2 C46_2 1_555 1_555
H38_2 C46_2 1_555 1_555
Zn7_2 O18_2 1_555 1_555
Zn9_2 O17_2 1_555 1_555
Zn12 O14_2 1_555 1_555
Zn13_2 O23_2 1_555 1_555
Zn15_2 O10_2 1_555 1_555
O27_2 Zn3_2 1_555 1_555
O28_2 Zn5_2 1_555 1_555
O34_2 Zn2_2 1_555 1_555
O35_2 Zn6 1_555 1_555
O37_2 Zn2_2 1_555 1_555
O38_2 Zn5_2 1_555 1_555
O39_2 Zn5_2 1_555 1_555
O8_2 C20_2 1_555 1_555
O20_2 Zn12 1_555 1_555
C7_2 C8_2 1_555 1_555
C16_2 C17_2 1_555 1_555
C16_2 C20_2 1_555 1_555
C21_2 C27_2 1_555 1_555
C25_2 C26_2 1_555 1_555
C30_2 C36_2 1_555 1_555
C34_2 C35_2 1_555 1_555
O21_2 C37_2 1_555 1_555
O37_2 C37_2 1_555 1_555
O15_2 C28_3 1_555 1_555
O16_2 C28_3 1_555 1_555
C40_3 N2_3 1_555 1_555
H21_3 C40_3 1_555 1_555
C41_3 N2_3 1_555 1_555
H24_3 C41_3 1_555 1_555
H25_3 C41_3 1_555 1_555
H26_3 C41_3 1_555 1_555
Zn7_2 O15_2 1_555 1_555
O16_2 Zn7_2 1_555 1_555
O13_3 Zn3_3 1_555 1_555
O14_3 C27_3 1_555 1_555
O34 C29_3 1_555 1_555
O35 C29_3 1_555 1_555
C21_3 C22_3 1_555 1_555
C22_3 H15_3 1_555 1_555
C23_3 C22_3 1_555 1_555
C24_3 C23_3 1_555 1_555
H16_3 C24_3 1_555 1_555
C25_3 C24_3 1_555 1_555
C26_3 C21_3 1_555 1_555
H17_3 C26_3 1_555 1_555
C27_3 O13_3 1_555 1_555
C29_3 C25_3 1_555 1_555
Zn11_2 O14_3 1_555 1_555
O27_3 Zn3_3 1_555 1_555
O20_3 Zn11_2 1_555 1_555
C21_3 C27_3 1_555 1_555
C25_3 C26_3 1_555 1_555
Zn7 O1_3 1_555 1_555
Zn9 O2_3 1_555 1_555
Zn4_3 O5_3 1_555 1_555
Zn13_2 O9_3 1_555 1_555
O1_3 C9_3 1_555 1_555
O2_3 C9_3 1_555 1_555
O5_3 C10_3 1_555 1_555
O6_3 C10_3 1_555 1_555
O7_3 Zn9 1_555 1_555
O8_3 Zn7 1_555 1_555
O9_3 C18_3 1_555 1_555
O10_3 C18_3 1_555 1_555
O11_3 C19_3 1_555 1_555
O12_3 C19_3 1_555 1_555
O25_3 Zn4_3 1_555 1_555
O26_3 Zn13_2 1_555 1_555
N3_3 C42_3 1_555 1_555
C3_3 C4_3 1_555 1_555
C4_3 H9_3 1_555 1_555
C5_3 C4_3 1_555 1_555
C6_3 C5_3 1_555 1_555
H10_3 C6_3 1_555 1_555
C7_3 C6_3 1_555 1_555
C8_3 C3_3 1_555 1_555
H11_3 C8_3 1_555 1_555
C9_3 C3_3 1_555 1_555
C10_3 C5_3 1_555 1_555
C12_3 C13_3 1_555 1_555
C13_3 H12_3 1_555 1_555
C14_3 C13_3 1_555 1_555
C15_3 C14_3 1_555 1_555
H13_3 C15_3 1_555 1_555
C16_3 C15_3 1_555 1_555
C17_3 C12_3 1_555 1_555
H14_3 C17_3 1_555 1_555
C18_3 C12_3 1_555 1_555
C19_3 C14_3 1_555 1_555
C20_3 O7_3 1_555 1_555
C39_3 O25_3 1_555 1_555
C42_3 O26_3 1_555 1_555
C43_3 N3_3 1_555 1_555
H27_3 C43_3 1_555 1_555
C44_3 N3_3 1_555 1_555
H30_3 C44_3 1_555 1_555
H31_3 C44_3 1_555 1_555
H32_3 C44_3 1_555 1_555
C45_3 C42_3 1_555 1_555
H33_3 C45_3 1_555 1_555
H34_3 C45_3 1_555 1_555
H35_3 C45_3 1_555 1_555
C46_3 C39_3 1_555 1_555
H36_3 C46_3 1_555 1_555
H37_3 C46_3 1_555 1_555
H38_3 C46_3 1_555 1_555
Zn10_3 O6_3 1_555 1_555
Zn12_2 O11_3 1_555 1_555
O29_3 Zn4_3 1_555 1_555
O30_3 Zn4_3 1_555 1_555
O31_3 Zn4_3 1_555 1_555
O32_2 Zn7 1_555 1_555
O33_2 Zn7 1_555 1_555
O36_3 Zn4_3 1_555 1_555
O37_3 Zn9 1_555 1_555
O8_3 C20_3 1_555 1_555
O12_3 Zn12_2 1_555 1_555
C7_3 C8_3 1_555 1_555
C16_3 C17_3 1_555 1_555
C16_3 C20_3 1_555 1_555
O3_3 C11_3 1_555 1_555
O4_3 C11_3 1_555 1_555
O21_3 C37_3 1_555 1_555
O37_3 C37_3 1_555 1_555
O38_2 C38_3 1_555 1_555
O24_3 C38_3 1_555 1_555
C30_3 C31_3 1_555 1_555
C31_3 H18_3 1_555 1_555
C32_3 C31_3 1_555 1_555
C33_3 C32_3 1_555 1_555
H19_3 C33_3 1_555 1_555
C34_3 C33_3 1_555 1_555
C35_3 C30_3 1_555 1_555
H20_3 C35_3 1_555 1_555
C36_3 O19_3 1_555 1_555
C37_3 C32_3 1_555 1_555
C38_3 C34_3 1_555 1_555
Zn15_2 O24_3 1_555 1_555
C30_3 C36_3 1_555 1_555
C34_3 C35_3 1_555 1_555
Zn4_4 O5_4 1_555 1_555
O5_4 C10_4 1_555 1_555
O6_4 C10_4 1_555 1_555
O25_4 Zn4_4 1_555 1_555
Zn10_4 O6_4 1_555 1_555
O29_4 Zn4_4 1_555 1_555
O30_4 Zn4_4 1_555 1_555
O31_4 Zn4_4 1_555 1_555
O36_4 Zn4_4 1_555 1_555
Zn7_2 O1_4 1_555 1_555
Zn9_2 O2_4 1_555 1_555
Zn13 O9_4 1_555 1_555
O1_4 C9_4 1_555 1_555
O2_4 C9_4 1_555 1_555
O7_4 Zn9_2 1_555 1_555
O8_4 Zn7_2 1_555 1_555
O9_4 C18_4 1_555 1_555
O10_4 C18_4 1_555 1_555
O11_4 C19_4 1_555 1_555
O12_4 C19_4 1_555 1_555
O26_4 Zn13 1_555 1_555
N3_4 C42_4 1_555 1_555
C3_4 C4_4 1_555 1_555
C4_4 H9_4 1_555 1_555
C5_4 C4_4 1_555 1_555
C6_4 C5_4 1_555 1_555
H10_4 C6_4 1_555 1_555
C7_4 C6_4 1_555 1_555
C8_4 C3_4 1_555 1_555
H11_4 C8_4 1_555 1_555
C9_4 C3_4 1_555 1_555
C12_4 C13_4 1_555 1_555
C13_4 H12_4 1_555 1_555
C14_4 C13_4 1_555 1_555
C15_4 C14_4 1_555 1_555
H13_4 C15_4 1_555 1_555
C16_4 C15_4 1_555 1_555
C17_4 C12_4 1_555 1_555
H14_4 C17_4 1_555 1_555
C18_4 C12_4 1_555 1_555
C19_4 C14_4 1_555 1_555
C20_4 O7_4 1_555 1_555
C42_4 O26_4 1_555 1_555
C43_4 N3_4 1_555 1_555
H27_4 C43_4 1_555 1_555
H28_4 C43_4 1_555 1_555
H29_4 C43_4 1_555 1_555
C44_4 N3_4 1_555 1_555
H30_4 C44_4 1_555 1_555
H31_4 C44_4 1_555 1_555
H32_4 C44_4 1_555 1_555
C45_4 C42_4 1_555 1_555
H33_4 C45_4 1_555 1_555
H34_4 C45_4 1_555 1_555
H35_4 C45_4 1_555 1_555
C46_4 C39_4 1_555 1_555
H36_4 C46_4 1_555 1_555
H37_4 C46_4 1_555 1_555
H38_4 C46_4 1_555 1_555
Zn11_2 O11_4 1_555 1_555
Zn14 O10_4 1_555 1_555
O28_4 Zn13 1_555 1_555
O37_4 Zn9_2 1_555 1_555
O39_4 Zn13 1_555 1_555
O8_4 C20_4 1_555 1_555
O12_4 Zn11_2 1_555 1_555
C7_4 C8_4 1_555 1_555
C16_4 C17_4 1_555 1_555
C16_4 C20_4 1_555 1_555
O3_4 C11_4 1_555 1_555
O4_4 C11_4 1_555 1_555
O21_4 C37_4 1_555 1_555
O37_4 C37_4 1_555 1_555
O38 C38_4 1_555 1_555
O24_4 C38_4 1_555 1_555
C30_4 C31_4 1_555 1_555
C31_4 H18_4 1_555 1_555
C32_4 C31_4 1_555 1_555
C33_4 C32_4 1_555 1_555
H19_4 C33_4 1_555 1_555
C34_4 C33_4 1_555 1_555
C35_4 C30_4 1_555 1_555
H20_4 C35_4 1_555 1_555
C36_4 O19_4 1_555 1_555
C37_4 C32_4 1_555 1_555
C38_4 C34_4 1_555 1_555
C30_4 C36_4 1_555 1_555
C34_4 C35_4 1_555 1_555
O32_2 C28_4 1_555 1_555
O33_2 C28_4 1_555 1_555
C40_4 N2_4 1_555 1_555
H21_4 C40_4 1_555 1_555
C41_4 N2_4 1_555 1_555
H24_4 C41_4 1_555 1_555
H25_4 C41_4 1_555 1_555
H26_4 C41_4 1_555 1_555
O13_4 Zn3_4 1_555 1_555
O14_4 C27_4 1_555 1_555
O34_2 C29_4 1_555 1_555
O35_2 C29_4 1_555 1_555
C21_4 C22_4 1_555 1_555
C22_4 H15_4 1_555 1_555
C23_4 C22_4 1_555 1_555
C24_4 C23_4 1_555 1_555
H16_4 C24_4 1_555 1_555
C25_4 C24_4 1_555 1_555
C26_4 C21_4 1_555 1_555
H17_4 C26_4 1_555 1_555
C27_4 O13_4 1_555 1_555
C29_4 C25_4 1_555 1_555
Zn12_2 O14_4 1_555 1_555
O27_4 Zn3_4 1_555 1_555
O20_4 Zn12_2 1_555 1_555
C21_4 C27_4 1_555 1_555
C25_4 C26_4 1_555 1_555
O21_5 C37_5 1_555 1_555
O22 C37_5 1_555 1_555
Zn8 O22 1_555 1_555
Zn1_2 O1_5 1_555 1_555
Zn8 O2_5 1_555 1_555
Zn10 O3_5 1_555 1_555
Zn11 O5_5 1_555 1_555
Zn14_2 O9_5 1_555 1_555
O1_5 C9_5 1_555 1_555
O2_5 C9_5 1_555 1_555
O3_5 C11_5 1_555 1_555
O4_5 C11_5 1_555 1_555
O5_5 C10_5 1_555 1_555
O27 C10_5 1_555 1_555
O7_5 Zn8 1_555 1_555
O8_5 Zn1_2 1_555 1_555
O9_5 C18_5 1_555 1_555
O28_3 C18_5 1_555 1_555
O13_5 Zn10 1_555 1_555
O31 C27_5 1_555 1_555
O15_3 C28_5 1_555 1_555
O16_3 C28_5 1_555 1_555
O17_3 C29_5 1_555 1_555
O18_3 C29_5 1_555 1_555
O19_5 Zn10 1_555 1_555
O36 C36_5 1_555 1_555
O23_3 C38_5 1_555 1_555
O39_2 C38_5 1_555 1_555
O25_5 Zn11 1_555 1_555
O26_5 Zn14_2 1_555 1_555
N2_5 C39_5 1_555 1_555
N3_5 C42_5 1_555 1_555
C3_5 C4_5 1_555 1_555
C4_5 H9_5 1_555 1_555
C5_5 C4_5 1_555 1_555
C6_5 C5_5 1_555 1_555
H10_5 C6_5 1_555 1_555
C7_5 C6_5 1_555 1_555
C8_5 C3_5 1_555 1_555
H11_5 C8_5 1_555 1_555
C9_5 C3_5 1_555 1_555
C10_5 C5_5 1_555 1_555
C11_5 C7_5 1_555 1_555
C12_5 C13_5 1_555 1_555
C13_5 H12_5 1_555 1_555
C14_5 C13_5 1_555 1_555
C15_5 C14_5 1_555 1_555
H13_5 C15_5 1_555 1_555
C16_5 C15_5 1_555 1_555
C17_5 C12_5 1_555 1_555
H14_5 C17_5 1_555 1_555
C18_5 C12_5 1_555 1_555
C20_5 O7_5 1_555 1_555
C21_5 C22_5 1_555 1_555
C22_5 H15_5 1_555 1_555
C23_5 C22_5 1_555 1_555
C24_5 C23_5 1_555 1_555
H16_5 C24_5 1_555 1_555
C25_5 C24_5 1_555 1_555
C26_5 C21_5 1_555 1_555
H17_5 C26_5 1_555 1_555
C27_5 O13_5 1_555 1_555
C28_5 C23_5 1_555 1_555
C29_5 C25_5 1_555 1_555
C30_5 C31_5 1_555 1_555
C31_5 H18_5 1_555 1_555
C32_5 C31_5 1_555 1_555
C33_5 C32_5 1_555 1_555
H19_5 C33_5 1_555 1_555
C34_5 C33_5 1_555 1_555
C35_5 C30_5 1_555 1_555
H20_5 C35_5 1_555 1_555
C36_5 O19_5 1_555 1_555
C38_5 C34_5 1_555 1_555
C39_5 O25_5 1_555 1_555
C40_5 N2_5 1_555 1_555
H21_5 C40_5 1_555 1_555
H22_5 C40_5 1_555 1_555
H23_5 C40_5 1_555 1_555
C41_5 N2_5 1_555 1_555
H24_5 C41_5 1_555 1_555
H25_5 C41_5 1_555 1_555
H26_5 C41_5 1_555 1_555
C42_5 O26_5 1_555 1_555
C43_5 N3_5 1_555 1_555
H27_5 C43_5 1_555 1_555
C44_5 N3_5 1_555 1_555
H30_5 C44_5 1_555 1_555
H31_5 C44_5 1_555 1_555
H32_5 C44_5 1_555 1_555
C45_5 C42_5 1_555 1_555
H33_5 C45_5 1_555 1_555
H34_5 C45_5 1_555 1_555
H35_5 C45_5 1_555 1_555
C46_5 C39_5 1_555 1_555
H36_5 C46_5 1_555 1_555
H37_5 C46_5 1_555 1_555
H38_5 C46_5 1_555 1_555
Zn6_2 O15_3 1_555 1_555
Zn7_3 O18_3 1_555 1_555
Zn9_3 O17_3 1_555 1_555
Zn15_2 O23_3 1_555 1_555
O32_3 Zn1_2 1_555 1_555
O33_3 Zn1_2 1_555 1_555
O34_3 Zn8 1_555 1_555
O35_3 Zn1_2 1_555 1_555
O38_3 Zn14_2 1_555 1_555
O8_5 C20_5 1_555 1_555
O16_3 Zn6_2 1_555 1_555
C7_5 C8_5 1_555 1_555
C16_5 C17_5 1_555 1_555
C16_5 C20_5 1_555 1_555
C21_5 C27_5 1_555 1_555
C25_5 C26_5 1_555 1_555
C30_5 C36_5 1_555 1_555
C34_5 C35_5 1_555 1_555
O29_2 C19_5 1_555 1_555
O30_2 C19_5 1_555 1_555
O21_6 C37_6 1_555 1_555
O22_2 C37_6 1_555 1_555
Zn8_2 O22_2 1_555 1_555
Zn6_2 O1_6 1_555 1_555
Zn8_2 O2_6 1_555 1_555
Zn10_2 O3_6 1_555 1_555
Zn14 O9_6 1_555 1_555
O1_6 C9_6 1_555 1_555
O2_6 C9_6 1_555 1_555
O3_6 C11_6 1_555 1_555
O4_6 C11_6 1_555 1_555
O7_6 Zn8_2 1_555 1_555
O8_6 Zn6_2 1_555 1_555
O9_6 C18_6 1_555 1_555
O28_4 C18_6 1_555 1_555
O13_6 Zn10_2 1_555 1_555
O31_2 C27_6 1_555 1_555
O32_3 C28_6 1_555 1_555
O33_3 C28_6 1_555 1_555
O17_4 C29_6 1_555 1_555
O18_4 C29_6 1_555 1_555
O19_6 Zn10_2 1_555 1_555
O36_2 C36_6 1_555 1_555
O23_4 C38_6 1_555 1_555
O39 C38_6 1_555 1_555
O26_6 Zn14 1_555 1_555
N2_6 C39_6 1_555 1_555
N3_6 C42_6 1_555 1_555
C3_6 C4_6 1_555 1_555
C4_6 H9_6 1_555 1_555
C5_6 C4_6 1_555 1_555
C6_6 C5_6 1_555 1_555
H10_6 C6_6 1_555 1_555
C7_6 C6_6 1_555 1_555
C8_6 C3_6 1_555 1_555
H11_6 C8_6 1_555 1_555
C9_6 C3_6 1_555 1_555
C11_6 C7_6 1_555 1_555
C12_6 C13_6 1_555 1_555
C13_6 H12_6 1_555 1_555
C14_6 C13_6 1_555 1_555
C15_6 C14_6 1_555 1_555
H13_6 C15_6 1_555 1_555
C16_6 C15_6 1_555 1_555
C17_6 C12_6 1_555 1_555
H14_6 C17_6 1_555 1_555
C18_6 C12_6 1_555 1_555
C20_6 O7_6 1_555 1_555
C21_6 C22_6 1_555 1_555
C22_6 H15_6 1_555 1_555
C23_6 C22_6 1_555 1_555
C24_6 C23_6 1_555 1_555
H16_6 C24_6 1_555 1_555
C25_6 C24_6 1_555 1_555
C26_6 C21_6 1_555 1_555
H17_6 C26_6 1_555 1_555
C27_6 O13_6 1_555 1_555
C28_6 C23_6 1_555 1_555
C29_6 C25_6 1_555 1_555
C30_6 C31_6 1_555 1_555
C31_6 H18_6 1_555 1_555
C32_6 C31_6 1_555 1_555
C33_6 C32_6 1_555 1_555
H19_6 C33_6 1_555 1_555
C34_6 C33_6 1_555 1_555
C35_6 C30_6 1_555 1_555
H20_6 C35_6 1_555 1_555
C36_6 O19_6 1_555 1_555
C38_6 C34_6 1_555 1_555
C40_6 N2_6 1_555 1_555
H21_6 C40_6 1_555 1_555
H22_6 C40_6 1_555 1_555
H23_6 C40_6 1_555 1_555
C41_6 N2_6 1_555 1_555
H24_6 C41_6 1_555 1_555
H25_6 C41_6 1_555 1_555
H26_6 C41_6 1_555 1_555
C42_6 O26_6 1_555 1_555
C43_6 N3_6 1_555 1_555
H27_6 C43_6 1_555 1_555
H28_6 C43_6 1_555 1_555
H29_6 C43_6 1_555 1_555
C44_6 N3_6 1_555 1_555
H30_6 C44_6 1_555 1_555
H31_6 C44_6 1_555 1_555
H32_6 C44_6 1_555 1_555
C45_6 C42_6 1_555 1_555
H33_6 C45_6 1_555 1_555
H34_6 C45_6 1_555 1_555
H35_6 C45_6 1_555 1_555
C46_6 C39_6 1_555 1_555
H36_6 C46_6 1_555 1_555
H37_6 C46_6 1_555 1_555
H38_6 C46_6 1_555 1_555
Zn7_4 O18_4 1_555 1_555
Zn9_4 O17_4 1_555 1_555
Zn15 O23_4 1_555 1_555
O34_4 Zn8_2 1_555 1_555
O35_4 Zn6_2 1_555 1_555
O38_4 Zn14 1_555 1_555
O8_6 C20_6 1_555 1_555
C7_6 C8_6 1_555 1_555
C16_6 C17_6 1_555 1_555
C16_6 C20_6 1_555 1_555
C21_6 C27_6 1_555 1_555
C25_6 C26_6 1_555 1_555
C30_6 C36_6 1_555 1_555
C34_6 C35_6 1_555 1_555
Zn12 O5_6 1_555 1_555
O5_6 C10_6 1_555 1_555
O27_2 C10_6 1_555 1_555
O25_6 Zn12 1_555 1_555
O29 C19_6 1_555 1_555
O30 C19_6 1_555 1_555
O3_7 C11_7 1_555 1_555
O4_7 C11_7 1_555 1_555
O21_7 C37_7 1_555 1_555
O22_3 C37_7 1_555 1_555
O38_4 C38_7 1_555 1_555
O39_4 C38_7 1_555 1_555
C30_7 C31_7 1_555 1_555
C31_7 H18_7 1_555 1_555
C32_7 C31_7 1_555 1_555
C33_7 C32_7 1_555 1_555
H19_7 C33_7 1_555 1_555
C34_7 C33_7 1_555 1_555
C35_7 C30_7 1_555 1_555
H20_7 C35_7 1_555 1_555
C36_7 O19_7 1_555 1_555
C37_7 C32_7 1_555 1_555
C38_7 C34_7 1_555 1_555
Zn9_3 O22_3 1_555 1_555
C30_7 C36_7 1_555 1_555
C34_7 C35_7 1_555 1_555
Zn7_3 O1_7 1_555 1_555
Zn9_3 O2_7 1_555 1_555
Zn11_2 O5_7 1_555 1_555
Zn15 O9_7 1_555 1_555
O1_7 C9_7 1_555 1_555
O2_7 C9_7 1_555 1_555
O5_7 C10_7 1_555 1_555
O27_3 C10_7 1_555 1_555
O7_7 Zn9_3 1_555 1_555
O8_7 Zn7_3 1_555 1_555
O9_7 C18_7 1_555 1_555
O28 C18_7 1_555 1_555
O29_4 C19_7 1_555 1_555
O30_4 C19_7 1_555 1_555
O25_7 Zn11_2 1_555 1_555
O26_7 Zn15 1_555 1_555
N3_7 C42_7 1_555 1_555
C3_7 C4_7 1_555 1_555
C4_7 H9_7 1_555 1_555
C5_7 C4_7 1_555 1_555
C6_7 C5_7 1_555 1_555
H10_7 C6_7 1_555 1_555
C7_7 C6_7 1_555 1_555
C8_7 C3_7 1_555 1_555
H11_7 C8_7 1_555 1_555
C9_7 C3_7 1_555 1_555
C10_7 C5_7 1_555 1_555
C12_7 C13_7 1_555 1_555
C13_7 H12_7 1_555 1_555
C14_7 C13_7 1_555 1_555
C15_7 C14_7 1_555 1_555
H13_7 C15_7 1_555 1_555
C16_7 C15_7 1_555 1_555
C17_7 C12_7 1_555 1_555
H14_7 C17_7 1_555 1_555
C18_7 C12_7 1_555 1_555
C19_7 C14_7 1_555 1_555
C20_7 O7_7 1_555 1_555
C39_7 O25_7 1_555 1_555
C42_7 O26_7 1_555 1_555
C43_7 N3_7 1_555 1_555
H27_7 C43_7 1_555 1_555
C44_7 N3_7 1_555 1_555
H30_7 C44_7 1_555 1_555
H31_7 C44_7 1_555 1_555
H32_7 C44_7 1_555 1_555
C45_7 C42_7 1_555 1_555
H33_7 C45_7 1_555 1_555
H34_7 C45_7 1_555 1_555
H35_7 C45_7 1_555 1_555
C46_7 C39_7 1_555 1_555
H36_7 C46_7 1_555 1_555
H37_7 C46_7 1_555 1_555
H38_7 C46_7 1_555 1_555
O32_4 Zn7_3 1_555 1_555
O33_4 Zn7_3 1_555 1_555
O8_7 C20_7 1_555 1_555
C7_7 C8_7 1_555 1_555
C16_7 C17_7 1_555 1_555
C16_7 C20_7 1_555 1_555
O13_7 Zn10_3 1_555 1_555
O31_3 C27_7 1_555 1_555
O34_3 C29_7 1_555 1_555
O35_3 C29_7 1_555 1_555
C21_7 C22_7 1_555 1_555
C22_7 H15_7 1_555 1_555
C23_7 C22_7 1_555 1_555
C24_7 C23_7 1_555 1_555
H16_7 C24_7 1_555 1_555
C25_7 C24_7 1_555 1_555
C26_7 C21_7 1_555 1_555
H17_7 C26_7 1_555 1_555
C27_7 O13_7 1_555 1_555
C29_7 C25_7 1_555 1_555
C21_7 C27_7 1_555 1_555
C25_7 C26_7 1_555 1_555
O15_4 C28_7 1_555 1_555
O16_4 C28_7 1_555 1_555
C40_7 N2_7 1_555 1_555
H21_7 C40_7 1_555 1_555
C41_7 N2_7 1_555 1_555
H24_7 C41_7 1_555 1_555
H25_7 C41_7 1_555 1_555
H26_7 C41_7 1_555 1_555
Zn7_4 O15_4 1_555 1_555
O16_4 Zn7_4 1_555 1_555
O13_8 Zn10_4 1_555 1_555
O31_4 C27_8 1_555 1_555
O34_4 C29_8 1_555 1_555
O35_4 C29_8 1_555 1_555
C21_8 C22_8 1_555 1_555
C22_8 H15_8 1_555 1_555
C23_8 C22_8 1_555 1_555
C24_8 C23_8 1_555 1_555
H16_8 C24_8 1_555 1_555
C25_8 C24_8 1_555 1_555
C26_8 C21_8 1_555 1_555
H17_8 C26_8 1_555 1_555
C27_8 O13_8 1_555 1_555
C29_8 C25_8 1_555 1_555
C21_8 C27_8 1_555 1_555
C25_8 C26_8 1_555 1_555
O32_4 C28_8 1_555 1_555
O33_4 C28_8 1_555 1_555
C40_8 N2_8 1_555 1_555
H21_8 C40_8 1_555 1_555
C41_8 N2_8 1_555 1_555
H24_8 C41_8 1_555 1_555
H25_8 C41_8 1_555 1_555
H26_8 C41_8 1_555 1_555
O3_8 C11_8 1_555 1_555
O4_8 C11_8 1_555 1_555
O21_8 C37_8 1_555 1_555
O22_4 C37_8 1_555 1_555
O38_3 C38_8 1_555 1_555
O39_3 C38_8 1_555 1_555
C30_8 C31_8 1_555 1_555
C31_8 H18_8 1_555 1_555
C32_8 C31_8 1_555 1_555
C33_8 C32_8 1_555 1_555
H19_8 C33_8 1_555 1_555
C34_8 C33_8 1_555 1_555
C35_8 C30_8 1_555 1_555
H20_8 C35_8 1_555 1_555
C36_8 O19_8 1_555 1_555
C37_8 C32_8 1_555 1_555
C38_8 C34_8 1_555 1_555
Zn9_4 O22_4 1_555 1_555
C30_8 C36_8 1_555 1_555
C34_8 C35_8 1_555 1_555
Zn7_4 O1_8 1_555 1_555
Zn9_4 O2_8 1_555 1_555
Zn15_2 O9_8 1_555 1_555
O1_8 C9_8 1_555 1_555
O2_8 C9_8 1_555 1_555
O7_8 Zn9_4 1_555 1_555
O8_8 Zn7_4 1_555 1_555
O9_8 C18_8 1_555 1_555
O28_2 C18_8 1_555 1_555
O29_3 C19_8 1_555 1_555
O30_3 C19_8 1_555 1_555
O26_8 Zn15_2 1_555 1_555
N3_8 C42_8 1_555 1_555
C3_8 C4_8 1_555 1_555
C4_8 H9_8 1_555 1_555
C5_8 C4_8 1_555 1_555
C6_8 C5_8 1_555 1_555
H10_8 C6_8 1_555 1_555
C7_8 C6_8 1_555 1_555
C8_8 C3_8 1_555 1_555
H11_8 C8_8 1_555 1_555
C9_8 C3_8 1_555 1_555
C12_8 C13_8 1_555 1_555
C13_8 H12_8 1_555 1_555
C14_8 C13_8 1_555 1_555
C15_8 C14_8 1_555 1_555
H13_8 C15_8 1_555 1_555
C16_8 C15_8 1_555 1_555
C17_8 C12_8 1_555 1_555
H14_8 C17_8 1_555 1_555
C18_8 C12_8 1_555 1_555
C19_8 C14_8 1_555 1_555
C20_8 O7_8 1_555 1_555
C42_8 O26_8 1_555 1_555
C43_8 N3_8 1_555 1_555
H27_8 C43_8 1_555 1_555
H28_8 C43_8 1_555 1_555
H29_8 C43_8 1_555 1_555
C44_8 N3_8 1_555 1_555
H30_8 C44_8 1_555 1_555
H31_8 C44_8 1_555 1_555
H32_8 C44_8 1_555 1_555
C45_8 C42_8 1_555 1_555
H33_8 C45_8 1_555 1_555
H34_8 C45_8 1_555 1_555
H35_8 C45_8 1_555 1_555
C46_8 C39_8 1_555 1_555
H36_8 C46_8 1_555 1_555
H37_8 C46_8 1_555 1_555
H38_8 C46_8 1_555 1_555
O8_8 C20_8 1_555 1_555
C7_8 C8_8 1_555 1_555
C16_8 C17_8 1_555 1_555
C16_8 C20_8 1_555 1_555
Zn12_2 O5_8 1_555 1_555
O5_8 C10_8 1_555 1_555
O27_4 C10_8 1_555 1_555
O25_8 Zn12_2 1_555 1_555

#END
