
###############################################################################
#
# This file contains modified crystal structure data generated from the
# MOF subset of the Cambridge Structural Database (CSD) v543 
# hosted by the Cambridge Crystallographic Data Centre (CCDC).
#
# This work is licensed under the Creative Commons
# Attribution-NonCommercial-ShareAlike 4.0 International License.
# To view a copy of this license, visit
# http://creativecommons.org/licenses/by-nc-sa/4.0/
# or send a letter to
# Creative Commons, PO Box 1866, Mountain View, CA 94042, USA.
#
# CIF created using the CSD Python API on 29 September 2022
# The structure has been converted into the P1 space group
# The structure has a 3D framework
# The original CSD entry ZOZSEO is in the orthorhombic crystal system
# The framework has been calculated to contain at least 10.0% void space
# The void calculation uses a probe of radius 1.32A, grid spacing 0.4
#
###############################################################################

data_ZOZSEO
_chemical_formula_moiety         '(C112 H72 N32 Ni6 O16)n'
_symmetry_cell_setting           triclinic
_symmetry_space_group_name_H-M   'P 1'
_symmetry_Int_Tables_number      1
_space_group_name_Hall           'P 1'
loop_
_symmetry_equiv_pos_site_id
_symmetry_equiv_pos_as_xyz
1 x,y,z
_cell_length_a                   21.156(11)
_cell_length_b                   8.726(5)
_cell_length_c                   15.847(9)
_cell_angle_alpha                90
_cell_angle_beta                 90
_cell_angle_gamma                90
_cell_volume                     2925.47
loop_
_atom_site_label
_atom_site_type_symbol
_atom_site_fract_x
_atom_site_fract_y
_atom_site_fract_z
Ni3 Ni 0.0000 0.73025(5) 0.7500
C3 C 0.92207(12) 0.9260(3) 0.01044(16)
H1 H 0.9555 0.8610 0.0234
C9 C 0.88838(12) 0.9961(3) 0.07468(16)
H4 H 0.8997 0.9794 0.1306
O3 O 0.01647(9) 0.7755(2) 0.62413(12)
O4 O 0.07086(8) 0.9037(2) 0.71937(11)
C15 C 0.05861(11) 0.8741(3) 0.64248(15)
C16 C 0.09398(11) 0.9524(3) 0.57358(15)
C17 C 0.07793(12) 0.9260(3) 0.48956(16)
H10 H 0.0445 0.8610 0.4766
C23 C 0.11162(12) 0.9961(3) 0.42532(16)
H13 H 0.1003 0.9794 0.3694
N1 N 0.07052(10) 0.5716(3) 0.76522(14)
N2 N 0.24672(11) 0.2437(2) 0.89091(14)
N3 N 0.26565(12) 0.2290(3) 0.75014(13)
C4 C 0.33765(11) 0.0914(3) 0.94447(16)
C5 C 0.29899(11) 0.1623(3) 0.87805(16)
C6 C 0.22822(12) 0.2813(3) 0.81125(17)
C8 C 0.17293(12) 0.3770(3) 0.79479(17)
N4 N 0.31079(10) 0.1533(3) 0.79499(14)
H3 H 0.3425 0.1061 0.7731
C11 C 0.15720(14) 0.4220(4) 0.71356(18)
H6 H 0.1807 0.3883 0.6676
C12 C 0.10579(14) 0.5182(3) 0.70208(18)
H7 H 0.0954 0.5471 0.6473
C13 C 0.13562(14) 0.4300(4) 0.86053(19)
H8 H 0.1443 0.4008 0.9158
C14 C 0.08556(14) 0.5263(4) 0.84353(18)
H9 H 0.0611 0.5613 0.8884
Ni1 Ni 0.5000 0.73025(5) 0.2500
N1_2 N 0.57052(10) 0.5716(3) 0.23478(14)
N2_2 N 0.74672(11) 0.2437(2) 0.10909(14)
N3_2 N 0.76565(12) 0.2290(3) 0.24986(13)
C4_2 C 0.83765(11) 0.0914(3) 0.05553(16)
C5_2 C 0.79899(11) 0.1623(3) 0.12195(16)
C6_2 C 0.72822(12) 0.2813(3) 0.18875(17)
C8_2 C 0.67293(12) 0.3770(3) 0.20521(17)
N4_2 N 0.81079(10) 0.1533(3) 0.20501(14)
H3_2 H 0.8425 0.1061 0.2269
C11_2 C 0.65720(14) 0.4220(4) 0.28644(18)
H6_2 H 0.6807 0.3883 0.3324
C12_2 C 0.60579(14) 0.5182(3) 0.29792(18)
H7_2 H 0.5954 0.5471 0.3527
C13_2 C 0.63562(14) 0.4300(4) 0.13947(19)
H8_2 H 0.6443 0.4008 0.0842
C14_2 C 0.58556(14) 0.5263(4) 0.15647(18)
H9_2 H 0.5611 0.5613 0.1116
N5 N 0.42948(10) 0.5716(3) 0.26522(14)
N6 N 0.25328(11) 0.2437(2) 0.39091(14)
N7 N 0.23435(12) 0.2290(3) 0.25014(13)
C18 C 0.16235(11) 0.0914(3) 0.44447(16)
C19 C 0.20101(11) 0.1623(3) 0.37805(16)
C20 C 0.27178(12) 0.2813(3) 0.31125(17)
C21 C 0.14422(15) 0.0484(4) 0.59256(18)
H11 H 0.1549 0.0670 0.6486
C22 C 0.32707(12) 0.3770(3) 0.29479(17)
N8 N 0.18921(10) 0.1533(3) 0.29499(14)
H12 H 0.1575 0.1061 0.2731
C24 C 0.17865(15) 0.1169(4) 0.52820(19)
H14 H 0.2127 0.1800 0.5412
C25 C 0.34280(14) 0.4220(4) 0.21356(18)
H15 H 0.3193 0.3883 0.1676
C26 C 0.39421(14) 0.5182(3) 0.20208(18)
H16 H 0.4046 0.5471 0.1473
C27 C 0.36438(14) 0.4300(4) 0.36053(19)
H17 H 0.3557 0.4008 0.4158
C28 C 0.41444(14) 0.5263(4) 0.34353(18)
H18 H 0.4389 0.5613 0.3884
O5 O 0.48353(9) 0.7755(2) 0.12413(12)
O6 O 0.51647(9) 0.7755(2) 0.37587(12)
O7 O 0.42914(8) 0.9037(2) 0.21937(11)
O8 O 0.57086(8) 0.9037(2) 0.28063(11)
C1 C 0.44139(11) 0.8741(3) 0.14248(15)
C2 C 0.40602(11) 0.9524(3) 0.07358(15)
C15_2 C 0.55861(11) 0.8741(3) 0.35752(15)
C16_2 C 0.59398(11) 0.9524(3) 0.42642(15)
C17_2 C 0.57793(12) 0.9260(3) 0.51044(16)
H10_2 H 0.5445 0.8610 0.5234
C23_2 C 0.61162(12) 0.9961(3) 0.57468(16)
H13_2 H 0.6003 0.9794 0.6306
C7 C 0.85578(15) 0.0484(4) 0.90744(18)
H2 H 0.8451 0.0670 0.8514
C10 C 0.82135(15) 0.1169(4) 0.97180(19)
H5 H 0.7873 0.1800 0.9588
O1 O 0.98353(9) 0.7755(2) 0.87587(12)
O2 O 0.92914(8) 0.9037(2) 0.78063(11)
C1_2 C 0.94139(11) 0.8741(3) 0.85752(15)
C2_2 C 0.90602(11) 0.9524(3) 0.92642(15)
Ni3_2 Ni 1.0000 0.73025(5) 0.7500
N5_2 N 0.92948(10) 0.5716(3) 0.73478(14)
N6_2 N 0.75328(11) 0.2437(2) 0.60909(14)
N7_2 N 0.73435(12) 0.2290(3) 0.74986(13)
C18_2 C 0.66235(11) 0.0914(3) 0.55553(16)
C19_2 C 0.70101(11) 0.1623(3) 0.62195(16)
C20_2 C 0.77178(12) 0.2813(3) 0.68875(17)
C21_2 C 0.64422(15) 0.0484(4) 0.40744(18)
H11_2 H 0.6549 0.0670 0.3514
C22_2 C 0.82707(12) 0.3770(3) 0.70521(17)
N8_2 N 0.68921(10) 0.1533(3) 0.70501(14)
H12_2 H 0.6575 0.1061 0.7269
C24_2 C 0.67865(15) 0.1169(4) 0.47180(19)
H14_2 H 0.7127 0.1800 0.4588
C25_2 C 0.84280(14) 0.4220(4) 0.78644(18)
H15_2 H 0.8193 0.3883 0.8324
C26_2 C 0.89421(14) 0.5182(3) 0.79792(18)
H16_2 H 0.9046 0.5471 0.8527
C27_2 C 0.86438(14) 0.4300(4) 0.63947(19)
H17_2 H 0.8557 0.4008 0.5842
C28_2 C 0.91444(14) 0.5263(4) 0.65647(18)
H18_2 H 0.9389 0.5613 0.6116
O3_2 O 0.48353(9) 0.2245(2) 0.62413(12)
O4_2 O 0.42914(8) 0.0963(2) 0.71937(11)
C15_3 C 0.44139(11) 0.1259(3) 0.64248(15)
C16_3 C 0.40602(11) 0.0476(3) 0.57358(15)
C17_3 C 0.42207(12) 0.0740(3) 0.48956(16)
H10_3 H 0.4555 0.1390 0.4766
C23_3 C 0.38838(12) 0.0039(3) 0.42532(16)
H13_3 H 0.3997 0.0206 0.3694
Ni2 Ni 0.5000 0.26975(5) 0.7500
O1_2 O 0.51647(9) 0.2245(2) 0.87587(12)
O2_2 O 0.57086(8) 0.0963(2) 0.78063(11)
C1_3 C 0.55861(11) 0.1259(3) 0.85752(15)
C2_3 C 0.59398(11) 0.0476(3) 0.92642(15)
N1_3 N 0.42948(10) 0.4284(3) 0.76522(14)
N2_3 N 0.25328(11) 0.7563(2) 0.89091(14)
N3_3 N 0.23435(12) 0.7710(3) 0.75014(13)
C4_3 C 0.16235(11) 0.9086(3) 0.94447(16)
C5_3 C 0.20101(11) 0.8377(3) 0.87805(16)
C6_3 C 0.27178(12) 0.7187(3) 0.81125(17)
C8_3 C 0.32707(12) 0.6230(3) 0.79479(17)
N4_3 N 0.18921(10) 0.8467(3) 0.79499(14)
H3_3 H 0.1575 0.8939 0.7731
C11_3 C 0.34280(14) 0.5780(4) 0.71356(18)
H6_3 H 0.3193 0.6117 0.6676
C12_3 C 0.39421(14) 0.4818(3) 0.70208(18)
H7_3 H 0.4046 0.4529 0.6473
C13_3 C 0.36438(14) 0.5700(4) 0.86053(19)
H8_3 H 0.3557 0.5992 0.9158
C14_3 C 0.41444(14) 0.4737(4) 0.84353(18)
H9_3 H 0.4389 0.4387 0.8884
N5_3 N 0.57052(10) 0.4284(3) 0.73478(14)
N6_3 N 0.74672(11) 0.7563(2) 0.60909(14)
N7_3 N 0.76565(12) 0.7710(3) 0.74986(13)
C18_3 C 0.83765(11) 0.9086(3) 0.55553(16)
C19_3 C 0.79899(11) 0.8377(3) 0.62195(16)
C20_3 C 0.72822(12) 0.7187(3) 0.68875(17)
C21_3 C 0.85578(15) 0.9516(4) 0.40744(18)
H11_3 H 0.8451 0.9330 0.3514
C22_3 C 0.67293(12) 0.6230(3) 0.70521(17)
N8_3 N 0.81079(10) 0.8467(3) 0.70501(14)
H12_3 H 0.8425 0.8939 0.7269
C24_3 C 0.82135(15) 0.8831(4) 0.47180(19)
H14_3 H 0.7873 0.8200 0.4588
C25_3 C 0.65720(14) 0.5780(4) 0.78644(18)
H15_3 H 0.6807 0.6117 0.8324
C26_3 C 0.60579(14) 0.4818(3) 0.79792(18)
H16_3 H 0.5954 0.4529 0.8527
C27_3 C 0.63562(14) 0.5700(4) 0.63947(19)
H17_3 H 0.6443 0.5992 0.5842
C28_3 C 0.58556(14) 0.4737(4) 0.65647(18)
H18_3 H 0.5611 0.4387 0.6116
Ni1_2 Ni -0.0000 0.26975(5) 0.2500
N5_4 N 0.07052(10) 0.4284(3) 0.26522(14)
N6_4 N 0.24672(11) 0.7563(2) 0.39091(14)
N7_4 N 0.26565(12) 0.7710(3) 0.25014(13)
C18_4 C 0.33765(11) 0.9086(3) 0.44447(16)
C19_4 C 0.29899(11) 0.8377(3) 0.37805(16)
C20_4 C 0.22822(12) 0.7187(3) 0.31125(17)
C21_4 C 0.35578(15) 0.9516(4) 0.59256(18)
H11_4 H 0.3451 0.9330 0.6486
C22_4 C 0.17293(12) 0.6230(3) 0.29479(17)
N8_4 N 0.31079(10) 0.8467(3) 0.29499(14)
H12_4 H 0.3425 0.8939 0.2731
C24_4 C 0.32135(15) 0.8831(4) 0.52820(19)
H14_4 H 0.2873 0.8200 0.5412
C25_4 C 0.15720(14) 0.5780(4) 0.21356(18)
H15_4 H 0.1807 0.6117 0.1676
C26_4 C 0.10579(14) 0.4818(3) 0.20208(18)
H16_4 H 0.0954 0.4529 0.1473
C27_4 C 0.13562(14) 0.5700(4) 0.36053(19)
H17_4 H 0.1443 0.5992 0.4158
C28_4 C 0.08556(14) 0.4737(4) 0.34353(18)
H18_4 H 0.0611 0.4387 0.3884
O5_2 O 0.01647(9) 0.2245(2) 0.12413(12)
O7_2 O 0.07086(8) 0.0963(2) 0.21937(11)
C1_4 C 0.05861(11) 0.1259(3) 0.14248(15)
C2_4 C 0.09398(11) 0.0476(3) 0.07358(15)
C3_2 C 0.57793(12) 0.0740(3) 0.01044(16)
H1_2 H 0.5445 0.1390 0.0234
C9_2 C 0.61162(12) 0.0039(3) 0.07468(16)
H4_2 H 0.6003 0.0206 0.1306
Ni1_3 Ni 1.0000 0.26975(5) 0.2500
N1_4 N 0.92948(10) 0.4284(3) 0.23478(14)
N2_4 N 0.75328(11) 0.7563(2) 0.10909(14)
N3_4 N 0.73435(12) 0.7710(3) 0.24986(13)
C4_4 C 0.66235(11) 0.9086(3) 0.05553(16)
C5_4 C 0.70101(11) 0.8377(3) 0.12195(16)
C6_4 C 0.77178(12) 0.7187(3) 0.18875(17)
C8_4 C 0.82707(12) 0.6230(3) 0.20521(17)
N4_4 N 0.68921(10) 0.8467(3) 0.20501(14)
H3_4 H 0.6575 0.8939 0.2269
C11_4 C 0.84280(14) 0.5780(4) 0.28644(18)
H6_4 H 0.8193 0.6117 0.3324
C12_4 C 0.89421(14) 0.4818(3) 0.29792(18)
H7_4 H 0.9046 0.4529 0.3527
C13_4 C 0.86438(14) 0.5700(4) 0.13947(19)
H8_4 H 0.8557 0.5992 0.0842
C14_4 C 0.91444(14) 0.4737(4) 0.15647(18)
H9_4 H 0.9389 0.4387 0.1116
O6_2 O 0.98353(9) 0.2245(2) 0.37587(12)
O8_2 O 0.92914(8) 0.0963(2) 0.28063(11)
C3_3 C 0.07793(12) 0.0740(3) 0.98956(16)
H1_3 H 0.0445 0.1390 0.9766
C9_3 C 0.11162(12) 0.0039(3) 0.92532(16)
H4_3 H 0.1003 0.0206 0.8694
C15_4 C 0.94139(11) 0.1259(3) 0.35752(15)
C16_4 C 0.90602(11) 0.0476(3) 0.42642(15)
C17_4 C 0.92207(12) 0.0740(3) 0.51044(16)
H10_4 H 0.9555 0.1390 0.5234
C23_4 C 0.88838(12) 0.0039(3) 0.57468(16)
H13_4 H 0.8997 0.0206 0.6306
C7_2 C 0.64422(15) 0.9516(4) 0.90744(18)
H2_2 H 0.6549 0.9330 0.8514
C10_2 C 0.67865(15) 0.8831(4) 0.97180(19)
H5_2 H 0.7127 0.8200 0.9588
C7_3 C 0.14422(15) 0.9516(4) 0.09256(18)
H2_3 H 0.1549 0.9330 0.1486
C10_3 C 0.17865(15) 0.8831(4) 0.02820(19)
H5_3 H 0.2127 0.8200 0.0412
C7_4 C 0.35578(15) 0.0484(4) 0.09256(18)
H2_4 H 0.3451 0.0670 0.1486
C10_4 C 0.32135(15) 0.1169(4) 0.02820(19)
H5_4 H 0.2873 0.1800 0.0412
C3_4 C 0.42207(12) 0.9260(3) 0.98956(16)
H1_4 H 0.4555 0.8610 0.9766
C9_4 C 0.38838(12) 0.9961(3) 0.92532(16)
H4_4 H 0.3997 0.9794 0.8694
loop_
_geom_bond_atom_site_label_1
_geom_bond_atom_site_label_2
_geom_bond_site_symmetry_1
_geom_bond_site_symmetry_2
C3 H1 1_555 1_555
C9 C3 1_555 1_555
H4 C9 1_555 1_555
O3 C15 1_555 1_555
O4 C15 1_555 1_555
C15 C16 1_555 1_555
C16 C17 1_555 1_555
C17 H10 1_555 1_555
C23 C17 1_555 1_555
H13 C23 1_555 1_555
Ni3 O3 1_555 1_555
O4 Ni3 1_555 1_555
Ni3 N1 1_555 1_555
N1 C12 1_555 1_555
N2 C5 1_555 1_555
N3 C6 1_555 1_555
C4 C5 1_555 1_555
C5 N4 1_555 1_555
C6 N2 1_555 1_555
C8 C6 1_555 1_555
N4 N3 1_555 1_555
H3 N4 1_555 1_555
C11 C8 1_555 1_555
H6 C11 1_555 1_555
C12 C11 1_555 1_555
H7 C12 1_555 1_555
C13 C8 1_555 1_555
H8 C13 1_555 1_555
C14 N1 1_555 1_555
H9 C14 1_555 1_555
C13 C14 1_555 1_555
Ni1 N1_2 1_555 1_555
N1_2 C12_2 1_555 1_555
N2_2 C5_2 1_555 1_555
N3_2 C6_2 1_555 1_555
C4_2 C5_2 1_555 1_555
C5_2 N4_2 1_555 1_555
C6_2 N2_2 1_555 1_555
C8_2 C6_2 1_555 1_555
N4_2 N3_2 1_555 1_555
H3_2 N4_2 1_555 1_555
C11_2 C8_2 1_555 1_555
H6_2 C11_2 1_555 1_555
C12_2 C11_2 1_555 1_555
H7_2 C12_2 1_555 1_555
C13_2 C8_2 1_555 1_555
H8_2 C13_2 1_555 1_555
C14_2 N1_2 1_555 1_555
H9_2 C14_2 1_555 1_555
N5 Ni1 1_555 1_555
N6 C19 1_555 1_555
N7 C20 1_555 1_555
C18 C19 1_555 1_555
C19 N8 1_555 1_555
C20 N6 1_555 1_555
H11 C21 1_555 1_555
C22 C20 1_555 1_555
N8 N7 1_555 1_555
H12 N8 1_555 1_555
C24 C18 1_555 1_555
H14 C24 1_555 1_555
C25 C22 1_555 1_555
H15 C25 1_555 1_555
C26 N5 1_555 1_555
H16 C26 1_555 1_555
C27 C22 1_555 1_555
H17 C27 1_555 1_555
C28 N5 1_555 1_555
H18 C28 1_555 1_555
O5 Ni1 1_555 1_555
O6 Ni1 1_555 1_555
O7 Ni1 1_555 1_555
O8 Ni1 1_555 1_555
C13_2 C14_2 1_555 1_555
C21 C24 1_555 1_555
C25 C26 1_555 1_555
C27 C28 1_555 1_555
O5 C1 1_555 1_555
O7 C1 1_555 1_555
C1 C2 1_555 1_555
O6 C15_2 1_555 1_555
O8 C15_2 1_555 1_555
C15_2 C16_2 1_555 1_555
C16_2 C17_2 1_555 1_555
C17_2 H10_2 1_555 1_555
C23_2 C17_2 1_555 1_555
H13_2 C23_2 1_555 1_555
H2 C7 1_555 1_555
H5 C10 1_555 1_555
C7 C10 1_555 1_555
O1 C1_2 1_555 1_555
O2 C1_2 1_555 1_555
C1_2 C2_2 1_555 1_555
Ni3_2 O1 1_555 1_555
O2 Ni3_2 1_555 1_555
N5_2 Ni3_2 1_555 1_555
N6_2 C19_2 1_555 1_555
N7_2 C20_2 1_555 1_555
C18_2 C19_2 1_555 1_555
C19_2 N8_2 1_555 1_555
C20_2 N6_2 1_555 1_555
H11_2 C21_2 1_555 1_555
C22_2 C20_2 1_555 1_555
N8_2 N7_2 1_555 1_555
H12_2 N8_2 1_555 1_555
C24_2 C18_2 1_555 1_555
H14_2 C24_2 1_555 1_555
C25_2 C22_2 1_555 1_555
H15_2 C25_2 1_555 1_555
C26_2 N5_2 1_555 1_555
H16_2 C26_2 1_555 1_555
C27_2 C22_2 1_555 1_555
H17_2 C27_2 1_555 1_555
C28_2 N5_2 1_555 1_555
H18_2 C28_2 1_555 1_555
C21_2 C24_2 1_555 1_555
C25_2 C26_2 1_555 1_555
C27_2 C28_2 1_555 1_555
O3_2 C15_3 1_555 1_555
O4_2 C15_3 1_555 1_555
C15_3 C16_3 1_555 1_555
C16_3 C17_3 1_555 1_555
C17_3 H10_3 1_555 1_555
C23_3 C17_3 1_555 1_555
H13_3 C23_3 1_555 1_555
Ni2 O3_2 1_555 1_555
O4_2 Ni2 1_555 1_555
O1_2 C1_3 1_555 1_555
O2_2 C1_3 1_555 1_555
C1_3 C2_3 1_555 1_555
Ni2 O1_2 1_555 1_555
O2_2 Ni2 1_555 1_555
Ni2 N1_3 1_555 1_555
N1_3 C12_3 1_555 1_555
N2_3 C5_3 1_555 1_555
N3_3 C6_3 1_555 1_555
C4_3 C5_3 1_555 1_555
C5_3 N4_3 1_555 1_555
C6_3 N2_3 1_555 1_555
C8_3 C6_3 1_555 1_555
N4_3 N3_3 1_555 1_555
H3_3 N4_3 1_555 1_555
C11_3 C8_3 1_555 1_555
H6_3 C11_3 1_555 1_555
C12_3 C11_3 1_555 1_555
H7_3 C12_3 1_555 1_555
C13_3 C8_3 1_555 1_555
H8_3 C13_3 1_555 1_555
C14_3 N1_3 1_555 1_555
H9_3 C14_3 1_555 1_555
N5_3 Ni2 1_555 1_555
N6_3 C19_3 1_555 1_555
N7_3 C20_3 1_555 1_555
C18_3 C19_3 1_555 1_555
C19_3 N8_3 1_555 1_555
C20_3 N6_3 1_555 1_555
H11_3 C21_3 1_555 1_555
C22_3 C20_3 1_555 1_555
N8_3 N7_3 1_555 1_555
H12_3 N8_3 1_555 1_555
C24_3 C18_3 1_555 1_555
H14_3 C24_3 1_555 1_555
C25_3 C22_3 1_555 1_555
H15_3 C25_3 1_555 1_555
C26_3 N5_3 1_555 1_555
H16_3 C26_3 1_555 1_555
C27_3 C22_3 1_555 1_555
H17_3 C27_3 1_555 1_555
C28_3 N5_3 1_555 1_555
H18_3 C28_3 1_555 1_555
C13_3 C14_3 1_555 1_555
C21_3 C24_3 1_555 1_555
C25_3 C26_3 1_555 1_555
C27_3 C28_3 1_555 1_555
N5_4 Ni1_2 1_555 1_555
N6_4 C19_4 1_555 1_555
N7_4 C20_4 1_555 1_555
C18_4 C19_4 1_555 1_555
C19_4 N8_4 1_555 1_555
C20_4 N6_4 1_555 1_555
H11_4 C21_4 1_555 1_555
C22_4 C20_4 1_555 1_555
N8_4 N7_4 1_555 1_555
H12_4 N8_4 1_555 1_555
C24_4 C18_4 1_555 1_555
H14_4 C24_4 1_555 1_555
C25_4 C22_4 1_555 1_555
H15_4 C25_4 1_555 1_555
C26_4 N5_4 1_555 1_555
H16_4 C26_4 1_555 1_555
C27_4 C22_4 1_555 1_555
H17_4 C27_4 1_555 1_555
C28_4 N5_4 1_555 1_555
H18_4 C28_4 1_555 1_555
O5_2 Ni1_2 1_555 1_555
O7_2 Ni1_2 1_555 1_555
C21_4 C24_4 1_555 1_555
C25_4 C26_4 1_555 1_555
C27_4 C28_4 1_555 1_555
O5_2 C1_4 1_555 1_555
O7_2 C1_4 1_555 1_555
C1_4 C2_4 1_555 1_555
C3_2 H1_2 1_555 1_555
C9_2 C3_2 1_555 1_555
H4_2 C9_2 1_555 1_555
Ni1_3 N1_4 1_555 1_555
N1_4 C12_4 1_555 1_555
N2_4 C5_4 1_555 1_555
N3_4 C6_4 1_555 1_555
C4_4 C5_4 1_555 1_555
C5_4 N4_4 1_555 1_555
C6_4 N2_4 1_555 1_555
C8_4 C6_4 1_555 1_555
N4_4 N3_4 1_555 1_555
H3_4 N4_4 1_555 1_555
C11_4 C8_4 1_555 1_555
H6_4 C11_4 1_555 1_555
C12_4 C11_4 1_555 1_555
H7_4 C12_4 1_555 1_555
C13_4 C8_4 1_555 1_555
H8_4 C13_4 1_555 1_555
C14_4 N1_4 1_555 1_555
H9_4 C14_4 1_555 1_555
O6_2 Ni1_3 1_555 1_555
O8_2 Ni1_3 1_555 1_555
C13_4 C14_4 1_555 1_555
C3_3 H1_3 1_555 1_555
C9_3 C3_3 1_555 1_555
H4_3 C9_3 1_555 1_555
O6_2 C15_4 1_555 1_555
O8_2 C15_4 1_555 1_555
C15_4 C16_4 1_555 1_555
C16_4 C17_4 1_555 1_555
C17_4 H10_4 1_555 1_555
C23_4 C17_4 1_555 1_555
H13_4 C23_4 1_555 1_555
H2_2 C7_2 1_555 1_555
H5_2 C10_2 1_555 1_555
C7_2 C10_2 1_555 1_555
H2_3 C7_3 1_555 1_555
H5_3 C10_3 1_555 1_555
C7_3 C10_3 1_555 1_555
H2_4 C7_4 1_555 1_555
H5_4 C10_4 1_555 1_555
C7_4 C10_4 1_555 1_555
C3_4 H1_4 1_555 1_555
C9_4 C3_4 1_555 1_555
H4_4 C9_4 1_555 1_555

#END
