
###############################################################################
#
# This file contains modified crystal structure data generated from the
# MOF subset of the Cambridge Structural Database (CSD) v543 
# hosted by the Cambridge Crystallographic Data Centre (CCDC).
#
# This work is licensed under the Creative Commons
# Attribution-NonCommercial-ShareAlike 4.0 International License.
# To view a copy of this license, visit
# http://creativecommons.org/licenses/by-nc-sa/4.0/
# or send a letter to
# Creative Commons, PO Box 1866, Mountain View, CA 94042, USA.
#
# CIF created using the CSD Python API on 29 September 2022
# The structure has been converted into the P1 space group
# The structure has a 3D framework
# The original CSD entry ZOZYAR is in the monoclinic crystal system
# The framework has been calculated to contain at least 10.0% void space
# The void calculation uses a probe of radius 1.32A, grid spacing 0.4
#
###############################################################################

data_ZOZYAR
_chemical_formula_moiety         '(C288 H192 I48 N96 Zn24)n'
_symmetry_cell_setting           triclinic
_symmetry_space_group_name_H-M   'P 1'
_symmetry_Int_Tables_number      1
_space_group_name_Hall           'P 1'
loop_
_symmetry_equiv_pos_site_id
_symmetry_equiv_pos_as_xyz
1 x,y,z
_cell_length_a                   35.209(4)
_cell_length_b                   15.0585(8)
_cell_length_c                   30.5473(16)
_cell_angle_alpha                90
_cell_angle_beta                 101.977(6)
_cell_angle_gamma                90
_cell_volume                     15843.4
loop_
_atom_site_label
_atom_site_type_symbol
_atom_site_fract_x
_atom_site_fract_y
_atom_site_fract_z
C1 C 0.1268(5) 0.1385(10) 0.1801(5)
H1 H 0.1263 0.1923 0.1949
C2 C 0.1550(6) 0.1294(10) 0.1544(5)
H2 H 0.1730 0.1736 0.1526
C3 C 0.1542(5) 0.0505(9) 0.1320(4)
C4 C 0.1790(5) 0.0368(10) 0.1013(4)
C6 C 0.2260(5) 0.0872(9) 0.0671(4)
C7 C 0.2613(5) 0.1477(10) 0.0667(4)
C8 C 0.2780(6) 0.1488(11) 0.0321(5)
H3 H 0.2682 0.1136 0.0073
C9 C 0.3105(6) 0.2028(11) 0.0321(5)
H4 H 0.3245 0.1972 0.0096
C10 C 0.4219(6) 0.2035(10) 0.1041(5)
H5 H 0.4053 0.1697 0.0828
C11 C 0.4531(6) 0.1602(11) 0.1322(5)
H6 H 0.4569 0.0994 0.1298
C12 C 0.4783(5) 0.2109(8) 0.1636(4)
C13 C 0.5098(5) 0.1689(9) 0.1963(4)
C14 C 0.5445(6) 0.0480(10) 0.2216(5)
C15 C 0.5539(5) 0.1786(9) 0.2601(4)
C16 C 0.5748(5) 0.2288(9) 0.3001(4)
C17 C 0.5738(5) 0.3207(10) 0.3029(5)
H7 H 0.5581 0.3534 0.2803
C18 C 0.5959(5) 0.3632(10) 0.3390(5)
H8 H 0.5961 0.4249 0.3397
C19 C 0.6159(5) 0.2319(10) 0.3722(5)
H9 H 0.6304 0.2007 0.3963
C20 C 0.5936(5) 0.1813(10) 0.3360(4)
H10 H 0.5921 0.1197 0.3370
C44 C 0.4699(6) 0.2998(11) 0.1662(5)
H27 H 0.4858 0.3354 0.1873
C45 C 0.4388(6) 0.3362(12) 0.1386(5)
H28 H 0.4338 0.3961 0.1421
C46 C 0.3015(6) 0.2642(11) 0.0975(5)
H29 H 0.3085 0.3067 0.1198
C47 C 0.2729(6) 0.2101(10) 0.1004(5)
H30 H 0.2606 0.2133 0.1245
I1 I 0.08973(7) 0.06723(11) 0.30467(5)
I4 I 0.35069(5) 0.48911(7) 0.09933(4)
N1 N 0.1007(5) 0.0784(8) 0.1859(4)
N3 N 0.2224(4) 0.0226(8) 0.0375(4)
N4 N 0.2082(4) 0.0976(8) 0.0996(4)
N5 N 0.3211(4) 0.2623(8) 0.0647(4)
N6 N 0.4146(4) 0.2908(8) 0.1062(4)
N7 N 0.5174(4) 0.0828(8) 0.1912(4)
N8 N 0.5660(4) 0.0931(8) 0.2578(4)
N9 N 0.5275(4) 0.2194(8) 0.2311(4)
N10 N 0.6174(4) 0.3178(8) 0.3737(3)
Zn1 Zn 0.05970(9) 0.09746(13) 0.22322(8)
Zn2 Zn 0.36763(6) 0.34465(11) 0.06405(6)
N27 N 0.0523(5) 0.2346(10) 0.2181(4)
Zn9 Zn 0.66056(7) 0.37999(11) 0.42041(5)
C62 C 0.0445(5) 0.0839(10) 0.7133(4)
C63 C 0.0257(6) 0.1366(11) 0.6799(5)
H39 H 0.0105 0.1107 0.6546
C64 C 0.0285(7) 0.2278(12) 0.6824(6)
H40 H 0.0143 0.2631 0.6599
C65 C 0.0719(6) 0.2150(12) 0.7503(6)
H41 H 0.0878 0.2424 0.7747
C66 C 0.0700(7) 0.1244(13) 0.7495(6)
H42 H 0.0850 0.0905 0.7721
I3 I 0.38219(4) 0.33582(8) 0.98627(4)
N24 N 0.0523(5) 0.2654(10) 0.7181(4)
Zn7 Zn 0.05970(9) 0.40254(13) 0.72322(8)
H15 H 0.7704 0.6187 0.9885
H16 H 0.8234 0.7088 0.9826
C37 C 0.6610(6) 0.2447(10) 0.9959(5)
C38 C 0.7070(5) 0.2804(9) 0.9565(4)
H21 H 0.7210 0.2643 0.9351
C39 C 0.7163(5) 0.3602(10) 0.9805(4)
H22 H 0.7356 0.3982 0.9750
C50 C 0.1522(6) 0.7634(10) 0.9768(5)
H32 H 0.1300 0.7288 0.9738
C51 C 0.1092(8) 0.6763(15) 0.8181(7)
H33 H 0.1132 0.6156 0.8156
C52 C 0.0868(7) 0.7181(14) 0.7805(7)
H34 H 0.0759 0.6870 0.7546
C53 C 0.0822(5) 0.8059(9) 0.7843(4)
C54 C 0.0599(6) 0.8543(10) 0.7462(5)
C55 C 0.0422(5) 0.9852(9) 0.7112(4)
C56 C 0.0143(5) 0.8612(9) 0.6807(4)
C67 C 0.0982(6) 0.8467(12) 0.8232(5)
H43 H 0.0945 0.9072 0.8265
C68 C 0.1195(6) 0.8000(10) 0.8571(5)
H44 H 0.1311 0.8306 0.8829
C69 C 0.2090(6) 0.7888(10) 0.9559(5)
H45 H 0.2270 0.7737 0.9387
C70 C 0.2165(6) 0.8637(11) 0.9874(5)
H46 H 0.2394 0.8961 0.9903
I8 I 0.89626(5) 0.80952(9) 0.96376(4)
I9 I 0.62969(5) 0.00518(7) 0.96238(4)
I10 I 0.71223(4) 0.09838(8) 0.87417(4)
I11 I 0.22299(5) 0.61822(9) 0.86974(4)
I12 I 0.13148(6) 0.52261(8) 0.94006(4)
N17 N 0.6791(4) 0.2284(8) 0.9637(4)
N18 N 0.1771(4) 0.7442(7) 0.9521(3)
N19 N 0.1250(4) 0.7127(8) 0.8560(4)
N20 N 0.0651(5) 0.9420(8) 0.7453(4)
N21 N 0.0181(5) 0.9499(8) 0.6781(4)
N22 N 0.0346(4) 0.8096(7) 0.7140(3)
Zn5 Zn 0.66056(7) 0.12001(11) 0.92041(5)
Zn6 Zn 0.16403(7) 0.64463(12) 0.90453(6)
N25 N 0.6174(4) 0.1822(8) 0.8737(3)
C57 C 0.9860(5) 0.8159(10) 0.6464(5)
C58 C 0.9767(6) 0.7271(11) 0.6515(5)
H35 H 0.9904 0.6930 0.6749
C59 C 0.9475(6) 0.6930(11) 0.6216(5)
H36 H 0.9407 0.6347 0.6266
C60 C 0.9366(6) 0.8172(10) 0.5794(5)
H37 H 0.9238 0.8465 0.5537
C61 C 0.9644(5) 0.8624(10) 0.6086(4)
H38 H 0.9693 0.9220 0.6040
N23 N 0.9267(4) 0.7324(8) 0.5855(4)
Zn8 Zn 0.88133(7) 0.67253(12) 0.54092(6)
C28 C 0.7036(5) 0.0370(9) 0.5406(4)
C35 C 0.6941(5) 0.1210(9) 0.5137(4)
C36 C 0.6688(5) 0.1805(10) 0.5221(5)
H19 H 0.6563 0.1715 0.5458
C37_2 C 0.6610(6) 0.2553(10) 0.4959(5)
H20 H 0.6423 0.2951 0.5014
C38_2 C 0.7070(5) 0.2196(9) 0.4565(4)
H21_2 H 0.7210 0.2357 0.4351
C39_2 C 0.7163(5) 0.1398(10) 0.4805(4)
H22_2 H 0.7356 0.1018 0.4750
I9_2 I 0.62969(5) 0.49482(7) 0.46238(4)
I10_2 I 0.71223(4) 0.40162(8) 0.37417(4)
N13 N 0.6834(4) 0.0233(7) 0.5711(3)
N17_2 N 0.6791(4) 0.2716(8) 0.4637(4)
C1_2 C 0.1268(5) 0.3615(10) 0.6801(5)
H1_2 H 0.1263 0.3077 0.6949
C2_2 C 0.1550(6) 0.3706(10) 0.6544(5)
H2_2 H 0.1730 0.3264 0.6526
C3_2 C 0.1542(5) 0.4495(9) 0.6320(4)
C4_2 C 0.1790(5) 0.4632(10) 0.6013(4)
C5 C 0.1941(6) 0.5381(10) 0.5427(5)
C6_2 C 0.2260(5) 0.4128(9) 0.5671(4)
C7_2 C 0.2613(5) 0.3523(10) 0.5667(4)
C8_2 C 0.2780(6) 0.3512(11) 0.5321(5)
H3_2 H 0.2682 0.3864 0.5073
C9_2 C 0.3105(6) 0.2972(11) 0.5321(5)
H4_2 H 0.3245 0.3028 0.5096
C10_2 C 0.4219(6) 0.2965(10) 0.6041(5)
H5_2 H 0.4053 0.3303 0.5828
C11_2 C 0.4531(6) 0.3398(11) 0.6322(5)
H6_2 H 0.4569 0.4006 0.6298
C12_2 C 0.4783(5) 0.2891(8) 0.6636(4)
C13_2 C 0.5098(5) 0.3311(9) 0.6963(4)
C14_2 C 0.5445(6) 0.4520(10) 0.7216(5)
C15_2 C 0.5539(5) 0.3214(9) 0.7601(4)
C16_2 C 0.5748(5) 0.2712(9) 0.8001(4)
C17_2 C 0.5738(5) 0.1793(10) 0.8029(5)
H7_2 H 0.5581 0.1466 0.7803
C18_2 C 0.5959(5) 0.1368(10) 0.8390(5)
H8_2 H 0.5961 0.0751 0.8397
C19_2 C 0.6159(5) 0.2681(10) 0.8722(5)
H9_2 H 0.6304 0.2993 0.8963
C20_2 C 0.5936(5) 0.3187(10) 0.8360(4)
H10_2 H 0.5921 0.3803 0.8370
C21 C 0.5561(6) 0.5478(11) 0.7215(5)
C22 C 0.5307(6) 0.6094(11) 0.6959(5)
H11 H 0.5075 0.5903 0.6780
C23 C 0.5401(6) 0.6945(12) 0.6975(5)
H12 H 0.5245 0.7330 0.6778
C24 C 0.6548(6) 0.8511(11) 0.6914(5)
H13 H 0.6628 0.8122 0.7152
C25 C 0.6821(6) 0.8691(10) 0.6635(5)
H14 H 0.7071 0.8459 0.6691
C26 C 0.6678(5) 0.9249(9) 0.6270(4)
C27 C 0.6921(5) 0.9472(10) 0.5951(4)
C29 C 0.7392(5) 0.9132(10) 0.5587(5)
C30 C 0.7713(5) 0.8551(10) 0.5543(5)
C31 C 0.7835(6) 0.8498(11) 0.5133(5)
H15_2 H 0.7704 0.8813 0.4885
C32 C 0.8158(5) 0.7960(10) 0.5099(5)
H16_2 H 0.8234 0.7912 0.4826
C33 C 0.8253(7) 0.7580(12) 0.5847(6)
H17 H 0.8403 0.7306 0.6097
C34 C 0.7907(6) 0.8068(11) 0.5880(6)
H18 H 0.7817 0.8044 0.6146
C40 C 0.6315(5) 0.9593(10) 0.6237(5)
H23 H 0.6220 0.9984 0.6004
C41 C 0.6085(6) 0.9388(10) 0.6529(5)
H24 H 0.5840 0.9643 0.6491
C42 C 0.5965(6) 0.6707(11) 0.7515(5)
H25 H 0.6195 0.6910 0.7693
C43 C 0.5875(6) 0.5802(11) 0.7506(5)
H26 H 0.6033 0.5417 0.7702
C44_2 C 0.4699(6) 0.2002(11) 0.6662(5)
H27_2 H 0.4858 0.1646 0.6873
C45_2 C 0.4388(6) 0.1638(12) 0.6386(5)
H28_2 H 0.4338 0.1039 0.6421
C46_2 C 0.3015(6) 0.2358(11) 0.5975(5)
H29_2 H 0.3085 0.1933 0.6198
C47_2 C 0.2729(6) 0.2899(10) 0.6004(5)
H30_2 H 0.2606 0.2867 0.6245
C48 C 0.1912(5) 0.6157(9) 0.5109(4)
C49 C 0.1572(6) 0.6671(10) 0.5076(5)
H31 H 0.1391 0.6552 0.5251
C50_2 C 0.1522(6) 0.7366(10) 0.4768(5)
H32_2 H 0.1300 0.7712 0.4738
C51_2 C 0.1092(8) 0.8237(15) 0.3181(7)
H33_2 H 0.1132 0.8844 0.3156
C52_2 C 0.0868(7) 0.7819(14) 0.2805(7)
H34_2 H 0.0759 0.8130 0.2546
C53_2 C 0.0822(5) 0.6941(9) 0.2843(4)
C54_2 C 0.0599(6) 0.6457(10) 0.2462(5)
C55_2 C 0.0422(5) 0.5148(9) 0.2112(4)
C56_2 C 0.0143(5) 0.6388(9) 0.1807(4)
C62_2 C 0.0445(5) 0.4161(10) 0.2133(4)
C63_2 C 0.0257(6) 0.3634(11) 0.1799(5)
H39_2 H 0.0105 0.3893 0.1546
C64_2 C 0.0285(7) 0.2722(12) 0.1824(6)
H40_2 H 0.0143 0.2369 0.1599
C65_2 C 0.0719(6) 0.2850(12) 0.2503(6)
H41_2 H 0.0878 0.2576 0.2747
C66_2 C 0.0700(7) 0.3756(13) 0.2495(6)
H42_2 H 0.0850 0.4095 0.2721
C67_2 C 0.0982(6) 0.6533(12) 0.3232(5)
H43_2 H 0.0945 0.5928 0.3265
C68_2 C 0.1195(6) 0.7000(10) 0.3571(5)
H44_2 H 0.1311 0.6694 0.3829
C69_2 C 0.2090(6) 0.7112(10) 0.4559(5)
H45_2 H 0.2270 0.7263 0.4387
C70_2 C 0.2165(6) 0.6363(11) 0.4874(5)
H46_2 H 0.2394 0.6039 0.4903
C71 C 0.1288(6) 0.5157(11) 0.6394(5)
H47 H 0.1295 0.5707 0.6257
C72 C 0.1036(6) 0.5021(10) 0.6657(5)
H48 H 0.0874 0.5485 0.6705
I1_2 I 0.08973(7) 0.43277(11) 0.80467(5)
I3_2 I 0.38219(4) 0.16418(8) 0.48627(4)
I4_2 I 0.35069(5) 0.01089(7) 0.59933(4)
I5 I 0.52671(5) 0.95996(8) 0.71092(4)
I6 I 0.63281(5) 0.88363(8) 0.80928(4)
I7 I 0.86811(5) 0.52663(8) 0.57722(4)
I8_2 I 0.89626(5) 0.69048(9) 0.46376(4)
I11_2 I 0.22299(5) 0.88178(9) 0.36974(4)
I12_2 I 0.13148(6) 0.97739(8) 0.44006(4)
N1_2 N 0.1007(5) 0.4216(8) 0.6859(4)
N2 N 0.1721(4) 0.5342(8) 0.5726(4)
N3_2 N 0.2224(4) 0.4774(8) 0.5375(4)
N4_2 N 0.2082(4) 0.4024(8) 0.5996(4)
N5_2 N 0.3211(4) 0.2377(8) 0.5647(4)
N6_2 N 0.4146(4) 0.2092(8) 0.6062(4)
N7_2 N 0.5174(4) 0.4172(8) 0.6912(4)
N8_2 N 0.5660(4) 0.4069(8) 0.7578(4)
N9_2 N 0.5275(4) 0.2806(8) 0.7311(4)
N11 N 0.5715(4) 0.7295(8) 0.7264(4)
N12 N 0.6202(4) 0.8840(8) 0.6865(4)
N14 N 0.7310(4) 0.9823(8) 0.5305(4)
N15 N 0.7206(4) 0.8928(8) 0.5904(4)
N16 N 0.8352(4) 0.7530(8) 0.5450(4)
N18_2 N 0.1771(4) 0.7558(7) 0.4521(3)
N19_2 N 0.1250(4) 0.7873(8) 0.3560(4)
N20_2 N 0.0651(5) 0.5580(8) 0.2453(4)
N21_2 N 0.0181(5) 0.5501(8) 0.1781(4)
N22_2 N 0.0346(4) 0.6904(7) 0.2140(3)
Zn2_2 Zn 0.36763(6) 0.15535(11) 0.56405(6)
Zn3 Zn 0.58695(7) 0.86173(11) 0.73391(6)
Zn6_2 Zn 0.16403(7) 0.85537(12) 0.40453(6)
C5_2 C 0.1941(6) 0.9619(10) 0.0427(5)
C21_2 C 0.5561(6) 0.9522(11) 0.2215(5)
C22_2 C 0.5307(6) 0.8906(11) 0.1959(5)
H11_2 H 0.5075 0.9097 0.1780
C23_2 C 0.5401(6) 0.8055(12) 0.1975(5)
H12_2 H 0.5245 0.7670 0.1778
C24_2 C 0.6548(6) 0.6489(11) 0.1914(5)
H13_2 H 0.6628 0.6878 0.2152
C25_2 C 0.6821(6) 0.6309(10) 0.1635(5)
H14_2 H 0.7071 0.6541 0.1691
C26_2 C 0.6678(5) 0.5751(9) 0.1270(4)
C27_2 C 0.6921(5) 0.5528(10) 0.0951(4)
C28_2 C 0.7036(5) 0.4630(9) 0.0406(4)
C29_2 C 0.7392(5) 0.5868(10) 0.0587(5)
C30_2 C 0.7713(5) 0.6449(10) 0.0543(5)
C31_2 C 0.7835(6) 0.6502(11) 0.0133(5)
C32_2 C 0.8158(5) 0.7040(10) 0.0099(5)
C33_2 C 0.8253(7) 0.7420(12) 0.0847(6)
H17_2 H 0.8403 0.7694 0.1097
C34_2 C 0.7907(6) 0.6932(11) 0.0880(6)
H18_2 H 0.7817 0.6956 0.1146
C35_2 C 0.6941(5) 0.3790(9) 0.0137(4)
C36_2 C 0.6688(5) 0.3195(10) 0.0221(5)
H19_2 H 0.6563 0.3285 0.0458
H20_2 H 0.6423 0.2049 0.0014
C40_2 C 0.6315(5) 0.5407(10) 0.1237(5)
H23_2 H 0.6220 0.5016 0.1004
C41_2 C 0.6085(6) 0.5612(10) 0.1529(5)
H24_2 H 0.5840 0.5357 0.1491
C42_2 C 0.5965(6) 0.8293(11) 0.2515(5)
H25_2 H 0.6195 0.8090 0.2693
C43_2 C 0.5875(6) 0.9198(11) 0.2506(5)
H26_2 H 0.6033 0.9583 0.2702
C48_2 C 0.1912(5) 0.8843(9) 0.0109(4)
C49_2 C 0.1572(6) 0.8329(10) 0.0076(5)
H31_2 H 0.1391 0.8448 0.0251
C71_2 C 0.1288(6) 0.9843(11) 0.1394(5)
H47_2 H 0.1295 0.9293 0.1257
C72_2 C 0.1036(6) 0.9979(10) 0.1657(5)
H48_2 H 0.0874 0.9515 0.1705
I5_2 I 0.52671(5) 0.54004(8) 0.21092(4)
I6_2 I 0.63281(5) 0.61637(8) 0.30928(4)
I7_2 I 0.86811(5) 0.97337(8) 0.07722(4)
N2_2 N 0.1721(4) 0.9658(8) 0.0726(4)
N11_2 N 0.5715(4) 0.7705(8) 0.2264(4)
N12_2 N 0.6202(4) 0.6160(8) 0.1865(4)
N13_2 N 0.6834(4) 0.4767(7) 0.0711(3)
N14_2 N 0.7310(4) 0.5177(8) 0.0305(4)
N15_2 N 0.7206(4) 0.6072(8) 0.0904(4)
N16_2 N 0.8352(4) 0.7470(8) 0.0450(4)
Zn3_2 Zn 0.58695(7) 0.63827(11) 0.23391(6)
Zn4 Zn 0.88133(7) 0.82747(12) 0.04092(6)
N26 N 0.9267(4) 0.7676(8) 0.0855(4)
C57_2 C 0.9860(5) 0.6841(10) 0.1464(5)
C58_2 C 0.9767(6) 0.7729(11) 0.1515(5)
H35_2 H 0.9904 0.8070 0.1749
C59_2 C 0.9475(6) 0.8070(11) 0.1216(5)
H36_2 H 0.9407 0.8653 0.1266
C60_2 C 0.9366(6) 0.6828(10) 0.0794(5)
H37_2 H 0.9238 0.6535 0.0537
C61_2 C 0.9644(5) 0.6376(10) 0.1086(4)
H38_2 H 0.9693 0.5780 0.1040
I2 I 0.99945(7) 0.47891(11) 0.67758(8)
I2_2 I 0.99945(7) 0.02109(11) 0.17758(8)
C57_3 C 0.0140(5) 0.3159(10) 0.8536(5)
C58_3 C 0.0233(6) 0.2271(11) 0.8485(5)
H35_3 H 0.0096 0.1930 0.8251
C59_3 C 0.0525(6) 0.1930(11) 0.8784(5)
H36_3 H 0.0593 0.1347 0.8734
C60_3 C 0.0634(6) 0.3172(10) 0.9206(5)
H37_3 H 0.0762 0.3465 0.9463
C61_3 C 0.0356(5) 0.3624(10) 0.8914(4)
H38_3 H 0.0307 0.4220 0.8960
I2_3 I 0.00055(7) 0.52109(11) 0.32242(8)
N23_2 N 0.0733(4) 0.2324(8) 0.9145(4)
Zn8_2 Zn 0.11867(7) 0.17253(12) 0.95908(6)
C5_3 C 0.8059(6) 0.0381(10) 0.9573(5)
C21_3 C 0.4439(6) 0.0478(11) 0.7785(5)
C22_3 C 0.4693(6) 0.1094(11) 0.8041(5)
H11_3 H 0.4925 0.0903 0.8220
C23_3 C 0.4599(6) 0.1945(12) 0.8025(5)
H12_3 H 0.4755 0.2330 0.8222
C24_3 C 0.3452(6) 0.3511(11) 0.8086(5)
H13_3 H 0.3372 0.3122 0.7848
C25_3 C 0.3179(6) 0.3691(10) 0.8365(5)
H14_3 H 0.2929 0.3459 0.8309
C26_3 C 0.3322(5) 0.4249(9) 0.8730(4)
C27_3 C 0.3079(5) 0.4472(10) 0.9049(4)
C28_3 C 0.2964(5) 0.5370(9) 0.9594(4)
C29_3 C 0.2608(5) 0.4132(10) 0.9413(5)
C30_3 C 0.2287(5) 0.3551(10) 0.9457(5)
C31_3 C 0.2165(6) 0.3498(11) 0.9867(5)
C32_3 C 0.1842(5) 0.2960(10) 0.9901(5)
C33_3 C 0.1747(7) 0.2580(12) 0.9153(6)
H17_3 H 0.1597 0.2306 0.8903
C34_3 C 0.2093(6) 0.3068(11) 0.9120(6)
H18_3 H 0.2183 0.3044 0.8854
C35_3 C 0.3059(5) 0.6210(9) 0.9863(4)
C36_3 C 0.3312(5) 0.6805(10) 0.9779(5)
H19_3 H 0.3437 0.6715 0.9542
H20_3 H 0.3577 0.7951 0.9986
C40_3 C 0.3685(5) 0.4593(10) 0.8763(5)
H23_3 H 0.3780 0.4984 0.8996
C41_3 C 0.3915(6) 0.4388(10) 0.8471(5)
H24_3 H 0.4160 0.4643 0.8509
C42_3 C 0.4035(6) 0.1707(11) 0.7485(5)
H25_3 H 0.3805 0.1910 0.7307
C43_3 C 0.4125(6) 0.0802(11) 0.7494(5)
H26_3 H 0.3967 0.0417 0.7298
C48_3 C 0.8088(5) 0.1157(9) 0.9891(4)
C49_3 C 0.8428(6) 0.1671(10) 0.9924(5)
H31_3 H 0.8609 0.1552 0.9749
C71_3 C 0.8712(6) 0.0157(11) 0.8606(5)
H47_3 H 0.8705 0.0707 0.8743
C72_3 C 0.8964(6) 0.0021(10) 0.8343(5)
H48_3 H 0.9126 0.0485 0.8295
I5_3 I 0.47329(5) 0.45996(8) 0.78908(4)
I6_3 I 0.36719(5) 0.38363(8) 0.69072(4)
I7_3 I 0.13189(5) 0.02663(8) 0.92278(4)
N2_3 N 0.8279(4) 0.0342(8) 0.9274(4)
N11_3 N 0.4285(4) 0.2295(8) 0.7736(4)
N12_3 N 0.3798(4) 0.3840(8) 0.8135(4)
N13_3 N 0.3166(4) 0.5233(7) 0.9289(3)
N14_3 N 0.2690(4) 0.4823(8) 0.9695(4)
N15_3 N 0.2794(4) 0.3928(8) 0.9096(4)
N16_3 N 0.1648(4) 0.2530(8) 0.9550(4)
Zn3_3 Zn 0.41305(7) 0.36173(11) 0.76609(6)
C1_3 C 0.8732(5) 0.6385(10) 0.3199(5)
H1_3 H 0.8737 0.6923 0.3051
C2_3 C 0.8450(6) 0.6294(10) 0.3456(5)
H2_3 H 0.8270 0.6736 0.3474
C3_3 C 0.8458(5) 0.5505(9) 0.3680(4)
C4_3 C 0.8210(5) 0.5368(10) 0.3987(4)
C5_4 C 0.8059(6) 0.4619(10) 0.4573(5)
C6_3 C 0.7740(5) 0.5872(9) 0.4329(4)
C7_3 C 0.7387(5) 0.6477(10) 0.4333(4)
C8_3 C 0.7220(6) 0.6488(11) 0.4679(5)
H3_3 H 0.7318 0.6136 0.4927
C9_3 C 0.6895(6) 0.7028(11) 0.4679(5)
H4_3 H 0.6755 0.6972 0.4904
C10_3 C 0.5781(6) 0.7035(10) 0.3959(5)
H5_3 H 0.5947 0.6697 0.4172
C11_3 C 0.5469(6) 0.6602(11) 0.3678(5)
H6_3 H 0.5431 0.5994 0.3702
C12_3 C 0.5217(5) 0.7109(8) 0.3364(4)
C13_3 C 0.4902(5) 0.6689(9) 0.3037(4)
C14_3 C 0.4555(6) 0.5480(10) 0.2784(5)
C15_3 C 0.4461(5) 0.6786(9) 0.2399(4)
C16_3 C 0.4252(5) 0.7288(9) 0.1999(4)
C17_3 C 0.4262(5) 0.8207(10) 0.1971(5)
H7_3 H 0.4419 0.8534 0.2197
C18_3 C 0.4041(5) 0.8632(10) 0.1610(5)
H8_3 H 0.4039 0.9249 0.1603
C19_3 C 0.3841(5) 0.7319(10) 0.1278(5)
H9_3 H 0.3696 0.7007 0.1037
C20_3 C 0.4064(5) 0.6813(10) 0.1640(4)
H10_3 H 0.4079 0.6197 0.1630
C21_4 C 0.4439(6) 0.4522(11) 0.2785(5)
C22_4 C 0.4693(6) 0.3906(11) 0.3041(5)
H11_4 H 0.4925 0.4097 0.3220
C23_4 C 0.4599(6) 0.3055(12) 0.3025(5)
H12_4 H 0.4755 0.2670 0.3222
C24_4 C 0.3452(6) 0.1489(11) 0.3086(5)
H13_4 H 0.3372 0.1878 0.2848
C25_4 C 0.3179(6) 0.1309(10) 0.3365(5)
H14_4 H 0.2929 0.1541 0.3309
C26_4 C 0.3322(5) 0.0751(9) 0.3730(4)
C27_4 C 0.3079(5) 0.0528(10) 0.4049(4)
C29_4 C 0.2608(5) 0.0868(10) 0.4413(5)
C30_4 C 0.2287(5) 0.1449(10) 0.4457(5)
C31_4 C 0.2165(6) 0.1502(11) 0.4867(5)
H15_3 H 0.2296 0.1187 0.5115
C32_4 C 0.1842(5) 0.2040(10) 0.4901(5)
H16_3 H 0.1766 0.2088 0.5174
C33_4 C 0.1747(7) 0.2420(12) 0.4153(6)
H17_4 H 0.1597 0.2694 0.3903
C34_4 C 0.2093(6) 0.1932(11) 0.4120(6)
H18_4 H 0.2183 0.1956 0.3854
C40_4 C 0.3685(5) 0.0407(10) 0.3763(5)
H23_4 H 0.3780 0.0016 0.3996
C41_4 C 0.3915(6) 0.0612(10) 0.3471(5)
H24_4 H 0.4160 0.0357 0.3509
C42_4 C 0.4035(6) 0.3293(11) 0.2485(5)
H25_4 H 0.3805 0.3090 0.2307
C43_4 C 0.4125(6) 0.4198(11) 0.2494(5)
H26_4 H 0.3967 0.4583 0.2298
C44_3 C 0.5301(6) 0.7998(11) 0.3338(5)
H27_3 H 0.5142 0.8354 0.3127
C45_3 C 0.5612(6) 0.8362(12) 0.3614(5)
H28_3 H 0.5662 0.8961 0.3579
C46_3 C 0.6985(6) 0.7642(11) 0.4025(5)
H29_3 H 0.6915 0.8067 0.3802
C47_3 C 0.7271(6) 0.7101(10) 0.3996(5)
H30_3 H 0.7394 0.7133 0.3755
C48_4 C 0.8088(5) 0.3843(9) 0.4891(4)
C49_4 C 0.8428(6) 0.3329(10) 0.4924(5)
H31_4 H 0.8609 0.3448 0.4749
C50_3 C 0.8478(6) 0.2634(10) 0.5232(5)
H32_3 H 0.8700 0.2288 0.5262
C51_3 C 0.8908(8) 0.1763(15) 0.6819(7)
H33_3 H 0.8868 0.1156 0.6844
C52_3 C 0.9132(7) 0.2181(14) 0.7195(7)
H34_3 H 0.9241 0.1870 0.7454
C53_3 C 0.9178(5) 0.3059(9) 0.7157(4)
C54_3 C 0.9401(6) 0.3543(10) 0.7538(5)
C55_3 C 0.9578(5) 0.4852(9) 0.7888(4)
C56_3 C 0.9857(5) 0.3612(9) 0.8193(4)
C62_3 C 0.9555(5) 0.5839(10) 0.7867(4)
C63_3 C 0.9743(6) 0.6366(11) 0.8201(5)
H39_3 H 0.9895 0.6107 0.8454
C64_3 C 0.9715(7) 0.7278(12) 0.8176(6)
H40_3 H 0.9857 0.7631 0.8401
C65_3 C 0.9281(6) 0.7150(12) 0.7497(6)
H41_3 H 0.9122 0.7424 0.7253
C66_3 C 0.9300(7) 0.6244(13) 0.7505(6)
H42_3 H 0.9150 0.5905 0.7279
C67_3 C 0.9018(6) 0.3467(12) 0.6768(5)
H43_3 H 0.9055 0.4072 0.6735
C68_3 C 0.8805(6) 0.3000(10) 0.6429(5)
H44_3 H 0.8689 0.3306 0.6171
C69_3 C 0.7910(6) 0.2888(10) 0.5441(5)
H45_3 H 0.7730 0.2737 0.5613
C70_3 C 0.7835(6) 0.3637(11) 0.5126(5)
H46_3 H 0.7606 0.3961 0.5097
C71_4 C 0.8712(6) 0.4843(11) 0.3606(5)
H47_4 H 0.8705 0.4293 0.3743
C72_4 C 0.8964(6) 0.4979(10) 0.3343(5)
H48_4 H 0.9126 0.4515 0.3295
I1_3 I 0.91027(7) 0.56723(11) 0.19533(5)
I3_3 I 0.61781(4) 0.83582(8) 0.51373(4)
I4_3 I 0.64931(5) 0.98911(7) 0.40067(4)
I5_4 I 0.47329(5) 0.04004(8) 0.28908(4)
I6_4 I 0.36719(5) 0.11637(8) 0.19072(4)
I7_4 I 0.13189(5) 0.47337(8) 0.42278(4)
I8_3 I 0.10374(5) 0.30952(9) 0.53624(4)
I11_3 I 0.77701(5) 0.11822(9) 0.63026(4)
I12_3 I 0.86852(6) 0.02261(8) 0.55994(4)
N1_3 N 0.8993(5) 0.5784(8) 0.3141(4)
N2_4 N 0.8279(4) 0.4658(8) 0.4274(4)
N3_3 N 0.7776(4) 0.5226(8) 0.4625(4)
N4_3 N 0.7918(4) 0.5976(8) 0.4004(4)
N5_3 N 0.6789(4) 0.7623(8) 0.4353(4)
N6_3 N 0.5854(4) 0.7908(8) 0.3938(4)
N7_3 N 0.4826(4) 0.5828(8) 0.3088(4)
N8_3 N 0.4340(4) 0.5931(8) 0.2422(4)
N9_3 N 0.4725(4) 0.7194(8) 0.2689(4)
N10_2 N 0.3826(4) 0.8178(8) 0.1263(3)
N11_4 N 0.4285(4) 0.2705(8) 0.2736(4)
N12_4 N 0.3798(4) 0.1160(8) 0.3135(4)
N14_4 N 0.2690(4) 0.0177(8) 0.4695(4)
N15_4 N 0.2794(4) 0.1072(8) 0.4096(4)
N16_4 N 0.1648(4) 0.2470(8) 0.4550(4)
N18_3 N 0.8229(4) 0.2442(7) 0.5479(3)
N19_3 N 0.8750(4) 0.2127(8) 0.6440(4)
N20_3 N 0.9349(5) 0.4420(8) 0.7547(4)
N21_3 N 0.9819(5) 0.4499(8) 0.8219(4)
N22_3 N 0.9654(4) 0.3096(7) 0.7860(3)
N24_2 N 0.9477(5) 0.7654(10) 0.7819(4)
Zn1_2 Zn 0.94030(9) 0.59746(13) 0.27678(8)
Zn2_3 Zn 0.63237(6) 0.84465(11) 0.43595(6)
Zn3_4 Zn 0.41305(7) 0.13827(11) 0.26609(6)
Zn4_2 Zn 0.11867(7) 0.32747(12) 0.45908(6)
Zn6_3 Zn 0.83597(7) 0.14463(12) 0.59547(6)
N26_2 N 0.0733(4) 0.2676(8) 0.4145(4)
N27_2 N 0.9477(5) 0.7346(10) 0.2819(4)
Zn7_2 Zn 0.94030(9) 0.90254(13) 0.77678(8)
Zn9_2 Zn 0.33944(7) 0.87999(11) 0.07959(5)
C28_4 C 0.2964(5) 0.9630(9) 0.4594(4)
C35_4 C 0.3059(5) 0.8790(9) 0.4863(4)
C36_4 C 0.3312(5) 0.8195(10) 0.4779(5)
H19_4 H 0.3437 0.8285 0.4542
C37_3 C 0.3390(6) 0.7447(10) 0.5041(5)
H20_4 H 0.3577 0.7049 0.4986
C38_3 C 0.2930(5) 0.7804(9) 0.5435(4)
H21_3 H 0.2790 0.7643 0.5649
C39_3 C 0.2837(5) 0.8602(10) 0.5195(4)
H22_3 H 0.2644 0.8982 0.5250
I9_3 I 0.37031(5) 0.50518(7) 0.53762(4)
I10_3 I 0.28777(4) 0.59838(8) 0.62583(4)
N13_4 N 0.3166(4) 0.9767(7) 0.4289(3)
N17_3 N 0.3209(4) 0.7284(8) 0.5363(4)
Zn5_2 Zn 0.33944(7) 0.62001(11) 0.57959(5)
N25_2 N 0.3826(4) 0.6822(8) 0.6263(3)
C57_4 C 0.0140(5) 0.1841(10) 0.3536(5)
C58_4 C 0.0233(6) 0.2729(11) 0.3485(5)
H35_4 H 0.0096 0.3070 0.3251
C59_4 C 0.0525(6) 0.3070(11) 0.3784(5)
H36_4 H 0.0593 0.3653 0.3734
C60_4 C 0.0634(6) 0.1828(10) 0.4206(5)
H37_4 H 0.0762 0.1535 0.4463
C61_4 C 0.0356(5) 0.1376(10) 0.3914(4)
H38_4 H 0.0307 0.0780 0.3960
H15_4 H 0.2296 0.3813 0.0115
H16_4 H 0.1766 0.2912 0.0174
C37_4 C 0.3390(6) 0.7553(10) 0.0041(5)
C38_4 C 0.2930(5) 0.7196(9) 0.0435(4)
H21_4 H 0.2790 0.7357 0.0649
C39_4 C 0.2837(5) 0.6398(10) 0.0195(4)
H22_4 H 0.2644 0.6018 0.0250
C50_4 C 0.8478(6) 0.2366(10) 0.0232(5)
H32_4 H 0.8700 0.2712 0.0262
C51_4 C 0.8908(8) 0.3237(15) 0.1819(7)
H33_4 H 0.8868 0.3844 0.1844
C52_4 C 0.9132(7) 0.2819(14) 0.2195(7)
H34_4 H 0.9241 0.3130 0.2454
C53_4 C 0.9178(5) 0.1941(9) 0.2157(4)
C54_4 C 0.9401(6) 0.1457(10) 0.2538(5)
C55_4 C 0.9578(5) 0.0148(9) 0.2888(4)
C56_4 C 0.9857(5) 0.1388(9) 0.3193(4)
C67_4 C 0.9018(6) 0.1533(12) 0.1768(5)
H43_4 H 0.9055 0.0928 0.1735
C68_4 C 0.8805(6) 0.2000(10) 0.1429(5)
H44_4 H 0.8689 0.1694 0.1171
C69_4 C 0.7910(6) 0.2112(10) 0.0441(5)
H45_4 H 0.7730 0.2263 0.0613
C70_4 C 0.7835(6) 0.1363(11) 0.0126(5)
H46_4 H 0.7606 0.1039 0.0097
I8_4 I 0.10374(5) 0.19048(9) 0.03624(4)
I9_4 I 0.37031(5) 0.99482(7) 0.03762(4)
I10_4 I 0.28777(4) 0.90162(8) 0.12583(4)
I11_4 I 0.77701(5) 0.38178(9) 0.13026(4)
I12_4 I 0.86852(6) 0.47739(8) 0.05994(4)
N17_4 N 0.3209(4) 0.7716(8) 0.0363(4)
N18_4 N 0.8229(4) 0.2558(7) 0.0479(3)
N19_4 N 0.8750(4) 0.2873(8) 0.1440(4)
N20_4 N 0.9349(5) 0.0580(8) 0.2547(4)
N21_4 N 0.9819(5) 0.0501(8) 0.3219(4)
N22_4 N 0.9654(4) 0.1904(7) 0.2860(3)
Zn6_4 Zn 0.83597(7) 0.35537(12) 0.09547(6)
C62_4 C 0.9555(5) 0.9161(10) 0.2867(4)
C63_4 C 0.9743(6) 0.8634(11) 0.3201(5)
H39_4 H 0.9895 0.8893 0.3454
C64_4 C 0.9715(7) 0.7722(12) 0.3176(6)
H40_4 H 0.9857 0.7369 0.3401
C65_4 C 0.9281(6) 0.7850(12) 0.2497(6)
H41_4 H 0.9122 0.7576 0.2253
C66_4 C 0.9300(7) 0.8756(13) 0.2505(6)
H42_4 H 0.9150 0.9095 0.2279
I3_4 I 0.61781(4) 0.66418(8) 0.01373(4)
C1_4 C 0.8732(5) 0.8615(10) 0.8199(5)
H1_4 H 0.8737 0.8077 0.8051
C2_4 C 0.8450(6) 0.8706(10) 0.8456(5)
H2_4 H 0.8270 0.8264 0.8474
C3_4 C 0.8458(5) 0.9495(9) 0.8680(4)
C4_4 C 0.8210(5) 0.9632(10) 0.8987(4)
C6_4 C 0.7740(5) 0.9128(9) 0.9329(4)
C7_4 C 0.7387(5) 0.8523(10) 0.9333(4)
C8_4 C 0.7220(6) 0.8512(11) 0.9679(5)
H3_4 H 0.7318 0.8864 0.9927
C9_4 C 0.6895(6) 0.7972(11) 0.9679(5)
H4_4 H 0.6755 0.8028 0.9904
C10_4 C 0.5781(6) 0.7965(10) 0.8959(5)
H5_4 H 0.5947 0.8303 0.9172
C11_4 C 0.5469(6) 0.8398(11) 0.8678(5)
H6_4 H 0.5431 0.9006 0.8702
C12_4 C 0.5217(5) 0.7891(8) 0.8364(4)
C13_4 C 0.4902(5) 0.8311(9) 0.8037(4)
C14_4 C 0.4555(6) 0.9520(10) 0.7784(5)
C15_4 C 0.4461(5) 0.8214(9) 0.7399(4)
C16_4 C 0.4252(5) 0.7712(9) 0.6999(4)
C17_4 C 0.4262(5) 0.6793(10) 0.6971(5)
H7_4 H 0.4419 0.6466 0.7197
C18_4 C 0.4041(5) 0.6368(10) 0.6610(5)
H8_4 H 0.4039 0.5751 0.6603
C19_4 C 0.3841(5) 0.7681(10) 0.6278(5)
H9_4 H 0.3696 0.7993 0.6037
C20_4 C 0.4064(5) 0.8187(10) 0.6640(4)
H10_4 H 0.4079 0.8803 0.6630
C44_4 C 0.5301(6) 0.7002(11) 0.8338(5)
H27_4 H 0.5142 0.6646 0.8127
C45_4 C 0.5612(6) 0.6638(12) 0.8614(5)
H28_4 H 0.5662 0.6039 0.8579
C46_4 C 0.6985(6) 0.7358(11) 0.9025(5)
H29_4 H 0.6915 0.6933 0.8802
C47_4 C 0.7271(6) 0.7899(10) 0.8996(5)
H30_4 H 0.7394 0.7867 0.8755
I1_4 I 0.91027(7) 0.93277(11) 0.69533(5)
I4_4 I 0.64931(5) 0.51089(7) 0.90067(4)
N1_4 N 0.8993(5) 0.9216(8) 0.8141(4)
N3_4 N 0.7776(4) 0.9774(8) 0.9625(4)
N4_4 N 0.7918(4) 0.9024(8) 0.9004(4)
N5_4 N 0.6789(4) 0.7377(8) 0.9353(4)
N6_4 N 0.5854(4) 0.7092(8) 0.8938(4)
N7_4 N 0.4826(4) 0.9172(8) 0.8088(4)
N8_4 N 0.4340(4) 0.9069(8) 0.7422(4)
N9_4 N 0.4725(4) 0.7806(8) 0.7689(4)
Zn2_4 Zn 0.63237(6) 0.65535(11) 0.93595(6)
I2_4 I 0.00055(7) 0.97891(11) 0.82242(8)
loop_
_geom_bond_atom_site_label_1
_geom_bond_atom_site_label_2
_geom_bond_site_symmetry_1
_geom_bond_site_symmetry_2
C1 H1 1_555 1_555
C2 C1 1_555 1_555
H2 C2 1_555 1_555
C3 C2 1_555 1_555
C4 C3 1_555 1_555
C6 C7 1_555 1_555
C7 C8 1_555 1_555
C8 H3 1_555 1_555
C9 C8 1_555 1_555
H4 C9 1_555 1_555
C10 H5 1_555 1_555
C11 C10 1_555 1_555
H6 C11 1_555 1_555
C12 C11 1_555 1_555
C13 C12 1_555 1_555
C15 C16 1_555 1_555
C16 C17 1_555 1_555
C17 H7 1_555 1_555
C18 C17 1_555 1_555
H8 C18 1_555 1_555
C19 H9 1_555 1_555
C20 C16 1_555 1_555
H10 C20 1_555 1_555
C44 C12 1_555 1_555
H27 C44 1_555 1_555
C45 C44 1_555 1_555
H28 C45 1_555 1_555
C46 H29 1_555 1_555
C47 C7 1_555 1_555
H30 C47 1_555 1_555
I1 Zn1 1_555 1_555
I4 Zn2 1_555 1_555
N1 C1 1_555 1_555
N4 C4 1_555 1_555
N5 C9 1_555 1_555
N6 C10 1_555 1_555
N7 C13 1_555 1_555
N8 C14 1_555 1_555
N9 C13 1_555 1_555
N10 C18 1_555 1_555
Zn1 N1 1_555 1_555
Zn2 N5 1_555 1_555
N27 Zn1 1_555 1_555
Zn9 N10 1_555 1_555
C6 N3 1_555 1_555
C6 N4 1_555 1_555
C14 N7 1_555 1_555
C15 N8 1_555 1_555
C15 N9 1_555 1_555
C19 C20 1_555 1_555
C19 N10 1_555 1_555
C45 N6 1_555 1_555
C46 C47 1_555 1_555
C46 N5 1_555 1_555
N6 Zn2 1_555 1_555
C62 C63 1_555 1_555
C63 H39 1_555 1_555
C64 C63 1_555 1_555
H40 C64 1_555 1_555
C65 H41 1_555 1_555
C66 C62 1_555 1_555
H42 C66 1_555 1_555
N24 C64 1_555 1_555
Zn7 N24 1_555 1_555
C65 C66 1_555 1_555
C65 N24 1_555 1_555
C38 H21 1_555 1_555
H22 C39 1_555 1_555
H32 C50 1_555 1_555
C51 H33 1_555 1_555
C52 C51 1_555 1_555
H34 C52 1_555 1_555
C53 C52 1_555 1_555
C54 C53 1_555 1_555
C67 C53 1_555 1_555
H43 C67 1_555 1_555
C68 C67 1_555 1_555
H44 C68 1_555 1_555
C69 H45 1_555 1_555
H46 C70 1_555 1_555
I9 Zn5 1_555 1_555
I10 Zn5 1_555 1_555
I11 Zn6 1_555 1_555
I12 Zn6 1_555 1_555
N17 C37 1_555 1_555
N18 C50 1_555 1_555
N19 C51 1_555 1_555
N20 C54 1_555 1_555
N21 C55 1_555 1_555
N22 C54 1_555 1_555
Zn5 N17 1_555 1_555
Zn6 N18 1_555 1_555
N25 Zn5 1_555 1_555
C38 C39 1_555 1_555
C38 N17 1_555 1_555
C55 N20 1_555 1_555
C56 N21 1_555 1_555
C56 N22 1_555 1_555
C68 N19 1_555 1_555
C69 C70 1_555 1_555
C69 N18 1_555 1_555
N19 Zn6 1_555 1_555
C57 C58 1_555 1_555
C58 H35 1_555 1_555
C59 C58 1_555 1_555
H36 C59 1_555 1_555
C60 H37 1_555 1_555
C61 C57 1_555 1_555
H38 C61 1_555 1_555
N23 C59 1_555 1_555
Zn8 N23 1_555 1_555
C60 C61 1_555 1_555
C60 N23 1_555 1_555
C28 C35 1_555 1_555
C35 C36 1_555 1_555
C36 H19 1_555 1_555
C37_2 C36 1_555 1_555
H20 C37_2 1_555 1_555
C38_2 H21_2 1_555 1_555
C39_2 C35 1_555 1_555
H22_2 C39_2 1_555 1_555
I9_2 Zn9 1_555 1_555
I10_2 Zn9 1_555 1_555
N17_2 C37_2 1_555 1_555
Zn9 N17_2 1_555 1_555
C28 N13 1_555 1_555
C38_2 C39_2 1_555 1_555
C38_2 N17_2 1_555 1_555
C1_2 H1_2 1_555 1_555
C2_2 C1_2 1_555 1_555
H2_2 C2_2 1_555 1_555
C3_2 C2_2 1_555 1_555
C4_2 C3_2 1_555 1_555
C5 C48 1_555 1_555
C6_2 C7_2 1_555 1_555
C7_2 C8_2 1_555 1_555
C8_2 H3_2 1_555 1_555
C9_2 C8_2 1_555 1_555
H4_2 C9_2 1_555 1_555
C10_2 H5_2 1_555 1_555
C11_2 C10_2 1_555 1_555
H6_2 C11_2 1_555 1_555
C12_2 C11_2 1_555 1_555
C13_2 C12_2 1_555 1_555
C14_2 C21 1_555 1_555
C15_2 C16_2 1_555 1_555
C16_2 C17_2 1_555 1_555
C17_2 H7_2 1_555 1_555
C18_2 C17_2 1_555 1_555
H8_2 C18_2 1_555 1_555
C19_2 H9_2 1_555 1_555
C20_2 C16_2 1_555 1_555
H10_2 C20_2 1_555 1_555
C21 C22 1_555 1_555
C22 H11 1_555 1_555
C23 C22 1_555 1_555
H12 C23 1_555 1_555
C24 H13 1_555 1_555
C25 C24 1_555 1_555
H14 C25 1_555 1_555
C26 C25 1_555 1_555
C27 C26 1_555 1_555
C29 C30 1_555 1_555
C30 C31 1_555 1_555
C31 H15_2 1_555 1_555
C32 C31 1_555 1_555
H16_2 C32 1_555 1_555
C33 H17 1_555 1_555
C34 C30 1_555 1_555
H18 C34 1_555 1_555
C40 C26 1_555 1_555
H23 C40 1_555 1_555
C41 C40 1_555 1_555
H24 C41 1_555 1_555
C42 H25 1_555 1_555
C43 C21 1_555 1_555
H26 C43 1_555 1_555
C44_2 C12_2 1_555 1_555
H27_2 C44_2 1_555 1_555
C45_2 C44_2 1_555 1_555
H28_2 C45_2 1_555 1_555
C46_2 H29_2 1_555 1_555
C47_2 C7_2 1_555 1_555
H30_2 C47_2 1_555 1_555
C48 C49 1_555 1_555
C49 H31 1_555 1_555
C50_2 C49 1_555 1_555
H32_2 C50_2 1_555 1_555
C51_2 H33_2 1_555 1_555
C52_2 C51_2 1_555 1_555
H34_2 C52_2 1_555 1_555
C53_2 C52_2 1_555 1_555
C54_2 C53_2 1_555 1_555
C55_2 C62_2 1_555 1_555
C62_2 C63_2 1_555 1_555
C63_2 H39_2 1_555 1_555
C64_2 C63_2 1_555 1_555
H40_2 C64_2 1_555 1_555
C65_2 H41_2 1_555 1_555
C66_2 C62_2 1_555 1_555
H42_2 C66_2 1_555 1_555
C67_2 C53_2 1_555 1_555
H43_2 C67_2 1_555 1_555
C68_2 C67_2 1_555 1_555
H44_2 C68_2 1_555 1_555
C69_2 H45_2 1_555 1_555
C70_2 C48 1_555 1_555
H46_2 C70_2 1_555 1_555
C71 C3_2 1_555 1_555
H47 C71 1_555 1_555
C72 C71 1_555 1_555
H48 C72 1_555 1_555
I1_2 Zn7 1_555 1_555
I3_2 Zn2_2 1_555 1_555
I4_2 Zn2_2 1_555 1_555
I5 Zn3 1_555 1_555
I6 Zn3 1_555 1_555
I7 Zn8 1_555 1_555
I8_2 Zn8 1_555 1_555
I11_2 Zn6_2 1_555 1_555
I12_2 Zn6_2 1_555 1_555
N1_2 C1_2 1_555 1_555
N2 C4_2 1_555 1_555
N3_2 C5 1_555 1_555
N4_2 C4_2 1_555 1_555
N5_2 C9_2 1_555 1_555
N6_2 C10_2 1_555 1_555
N7_2 C13_2 1_555 1_555
N8_2 C14_2 1_555 1_555
N9_2 C13_2 1_555 1_555
N25 C18_2 1_555 1_555
N11 C23 1_555 1_555
N12 C24 1_555 1_555
N15 C27 1_555 1_555
N16 C32 1_555 1_555
N18_2 C50_2 1_555 1_555
N19_2 C51_2 1_555 1_555
N20_2 C54_2 1_555 1_555
N21_2 C55_2 1_555 1_555
N22_2 C54_2 1_555 1_555
N27 C64_2 1_555 1_555
Zn7 N1_2 1_555 1_555
Zn2_2 N5_2 1_555 1_555
Zn3 N11 1_555 1_555
Zn8 N16 1_555 1_555
Zn6_2 N18_2 1_555 1_555
C5 N2 1_555 1_555
C6_2 N3_2 1_555 1_555
C6_2 N4_2 1_555 1_555
C14_2 N7_2 1_555 1_555
C15_2 N8_2 1_555 1_555
C15_2 N9_2 1_555 1_555
C19_2 C20_2 1_555 1_555
C19_2 N25 1_555 1_555
C29 N14 1_555 1_555
C29 N15 1_555 1_555
C33 C34 1_555 1_555
C33 N16 1_555 1_555
C41 N12 1_555 1_555
C42 C43 1_555 1_555
C42 N11 1_555 1_555
C45_2 N6_2 1_555 1_555
C46_2 C47_2 1_555 1_555
C46_2 N5_2 1_555 1_555
C55_2 N20_2 1_555 1_555
C56_2 N21_2 1_555 1_555
C56_2 N22_2 1_555 1_555
C65_2 C66_2 1_555 1_555
C65_2 N27 1_555 1_555
C68_2 N19_2 1_555 1_555
C69_2 C70_2 1_555 1_555
C69_2 N18_2 1_555 1_555
C72 N1_2 1_555 1_555
N6_2 Zn2_2 1_555 1_555
N12 Zn3 1_555 1_555
N19_2 Zn6_2 1_555 1_555
C5_2 C48_2 1_555 1_555
C21_2 C22_2 1_555 1_555
C22_2 H11_2 1_555 1_555
C23_2 C22_2 1_555 1_555
H12_2 C23_2 1_555 1_555
C24_2 H13_2 1_555 1_555
C25_2 C24_2 1_555 1_555
H14_2 C25_2 1_555 1_555
C26_2 C25_2 1_555 1_555
C27_2 C26_2 1_555 1_555
C28_2 C35_2 1_555 1_555
C29_2 C30_2 1_555 1_555
C30_2 C31_2 1_555 1_555
C32_2 C31_2 1_555 1_555
C33_2 H17_2 1_555 1_555
C34_2 C30_2 1_555 1_555
H18_2 C34_2 1_555 1_555
C35_2 C36_2 1_555 1_555
C36_2 H19_2 1_555 1_555
C40_2 C26_2 1_555 1_555
H23_2 C40_2 1_555 1_555
C41_2 C40_2 1_555 1_555
H24_2 C41_2 1_555 1_555
C42_2 H25_2 1_555 1_555
C43_2 C21_2 1_555 1_555
H26_2 C43_2 1_555 1_555
C48_2 C49_2 1_555 1_555
C49_2 H31_2 1_555 1_555
H47_2 C71_2 1_555 1_555
C72_2 C71_2 1_555 1_555
H48_2 C72_2 1_555 1_555
I5_2 Zn3_2 1_555 1_555
I6_2 Zn3_2 1_555 1_555
I7_2 Zn4 1_555 1_555
N11_2 C23_2 1_555 1_555
N12_2 C24_2 1_555 1_555
N13_2 C27_2 1_555 1_555
N14_2 C28_2 1_555 1_555
N15_2 C27_2 1_555 1_555
N16_2 C32_2 1_555 1_555
Zn3_2 N11_2 1_555 1_555
Zn4 N16_2 1_555 1_555
N26 Zn4 1_555 1_555
C5_2 N2_2 1_555 1_555
C28_2 N13_2 1_555 1_555
C29_2 N14_2 1_555 1_555
C29_2 N15_2 1_555 1_555
C33_2 C34_2 1_555 1_555
C33_2 N16_2 1_555 1_555
C41_2 N12_2 1_555 1_555
C42_2 C43_2 1_555 1_555
C42_2 N11_2 1_555 1_555
N12_2 Zn3_2 1_555 1_555
C57_2 C58_2 1_555 1_555
C58_2 H35_2 1_555 1_555
C59_2 C58_2 1_555 1_555
H36_2 C59_2 1_555 1_555
C60_2 H37_2 1_555 1_555
C61_2 C57_2 1_555 1_555
H38_2 C61_2 1_555 1_555
N26 C59_2 1_555 1_555
C60_2 C61_2 1_555 1_555
C60_2 N26 1_555 1_555
C57_3 C58_3 1_555 1_555
C58_3 H35_3 1_555 1_555
C59_3 C58_3 1_555 1_555
H36_3 C59_3 1_555 1_555
C60_3 H37_3 1_555 1_555
C61_3 C57_3 1_555 1_555
H38_3 C61_3 1_555 1_555
N23_2 C59_3 1_555 1_555
Zn8_2 N23_2 1_555 1_555
C60_3 C61_3 1_555 1_555
C60_3 N23_2 1_555 1_555
C5_3 C48_3 1_555 1_555
C21_3 C22_3 1_555 1_555
C22_3 H11_3 1_555 1_555
C23_3 C22_3 1_555 1_555
H12_3 C23_3 1_555 1_555
C24_3 H13_3 1_555 1_555
C25_3 C24_3 1_555 1_555
H14_3 C25_3 1_555 1_555
C26_3 C25_3 1_555 1_555
C27_3 C26_3 1_555 1_555
C28_3 C35_3 1_555 1_555
C29_3 C30_3 1_555 1_555
C30_3 C31_3 1_555 1_555
C32_3 C31_3 1_555 1_555
C33_3 H17_3 1_555 1_555
C34_3 C30_3 1_555 1_555
H18_3 C34_3 1_555 1_555
C35_3 C36_3 1_555 1_555
C36_3 H19_3 1_555 1_555
C40_3 C26_3 1_555 1_555
H23_3 C40_3 1_555 1_555
C41_3 C40_3 1_555 1_555
H24_3 C41_3 1_555 1_555
C42_3 H25_3 1_555 1_555
C43_3 C21_3 1_555 1_555
H26_3 C43_3 1_555 1_555
C48_3 C49_3 1_555 1_555
C49_3 H31_3 1_555 1_555
H47_3 C71_3 1_555 1_555
C72_3 C71_3 1_555 1_555
H48_3 C72_3 1_555 1_555
I5_3 Zn3_3 1_555 1_555
I6_3 Zn3_3 1_555 1_555
I7_3 Zn8_2 1_555 1_555
N11_3 C23_3 1_555 1_555
N12_3 C24_3 1_555 1_555
N13_3 C27_3 1_555 1_555
N14_3 C28_3 1_555 1_555
N15_3 C27_3 1_555 1_555
N16_3 C32_3 1_555 1_555
Zn3_3 N11_3 1_555 1_555
Zn8_2 N16_3 1_555 1_555
C5_3 N2_3 1_555 1_555
C28_3 N13_3 1_555 1_555
C29_3 N14_3 1_555 1_555
C29_3 N15_3 1_555 1_555
C33_3 C34_3 1_555 1_555
C33_3 N16_3 1_555 1_555
C41_3 N12_3 1_555 1_555
C42_3 C43_3 1_555 1_555
C42_3 N11_3 1_555 1_555
N12_3 Zn3_3 1_555 1_555
C1_3 H1_3 1_555 1_555
C2_3 C1_3 1_555 1_555
H2_3 C2_3 1_555 1_555
C3_3 C2_3 1_555 1_555
C4_3 C3_3 1_555 1_555
C5_4 C48_4 1_555 1_555
C6_3 C7_3 1_555 1_555
C7_3 C8_3 1_555 1_555
C8_3 H3_3 1_555 1_555
C9_3 C8_3 1_555 1_555
H4_3 C9_3 1_555 1_555
C10_3 H5_3 1_555 1_555
C11_3 C10_3 1_555 1_555
H6_3 C11_3 1_555 1_555
C12_3 C11_3 1_555 1_555
C13_3 C12_3 1_555 1_555
C14_3 C21_4 1_555 1_555
C15_3 C16_3 1_555 1_555
C16_3 C17_3 1_555 1_555
C17_3 H7_3 1_555 1_555
C18_3 C17_3 1_555 1_555
H8_3 C18_3 1_555 1_555
C19_3 H9_3 1_555 1_555
C20_3 C16_3 1_555 1_555
H10_3 C20_3 1_555 1_555
C21_4 C22_4 1_555 1_555
C22_4 H11_4 1_555 1_555
C23_4 C22_4 1_555 1_555
H12_4 C23_4 1_555 1_555
C24_4 H13_4 1_555 1_555
C25_4 C24_4 1_555 1_555
H14_4 C25_4 1_555 1_555
C26_4 C25_4 1_555 1_555
C27_4 C26_4 1_555 1_555
C29_4 C30_4 1_555 1_555
C30_4 C31_4 1_555 1_555
C31_4 H15_3 1_555 1_555
C32_4 C31_4 1_555 1_555
H16_3 C32_4 1_555 1_555
C33_4 H17_4 1_555 1_555
C34_4 C30_4 1_555 1_555
H18_4 C34_4 1_555 1_555
C40_4 C26_4 1_555 1_555
H23_4 C40_4 1_555 1_555
C41_4 C40_4 1_555 1_555
H24_4 C41_4 1_555 1_555
C42_4 H25_4 1_555 1_555
C43_4 C21_4 1_555 1_555
H26_4 C43_4 1_555 1_555
C44_3 C12_3 1_555 1_555
H27_3 C44_3 1_555 1_555
C45_3 C44_3 1_555 1_555
H28_3 C45_3 1_555 1_555
C46_3 H29_3 1_555 1_555
C47_3 C7_3 1_555 1_555
H30_3 C47_3 1_555 1_555
C48_4 C49_4 1_555 1_555
C49_4 H31_4 1_555 1_555
C50_3 C49_4 1_555 1_555
H32_3 C50_3 1_555 1_555
C51_3 H33_3 1_555 1_555
C52_3 C51_3 1_555 1_555
H34_3 C52_3 1_555 1_555
C53_3 C52_3 1_555 1_555
C54_3 C53_3 1_555 1_555
C55_3 C62_3 1_555 1_555
C62_3 C63_3 1_555 1_555
C63_3 H39_3 1_555 1_555
C64_3 C63_3 1_555 1_555
H40_3 C64_3 1_555 1_555
C65_3 H41_3 1_555 1_555
C66_3 C62_3 1_555 1_555
H42_3 C66_3 1_555 1_555
C67_3 C53_3 1_555 1_555
H43_3 C67_3 1_555 1_555
C68_3 C67_3 1_555 1_555
H44_3 C68_3 1_555 1_555
C69_3 H45_3 1_555 1_555
C70_3 C48_4 1_555 1_555
H46_3 C70_3 1_555 1_555
C71_4 C3_3 1_555 1_555
H47_4 C71_4 1_555 1_555
C72_4 C71_4 1_555 1_555
H48_4 C72_4 1_555 1_555
I1_3 Zn1_2 1_555 1_555
I3_3 Zn2_3 1_555 1_555
I4_3 Zn2_3 1_555 1_555
I5_4 Zn3_4 1_555 1_555
I6_4 Zn3_4 1_555 1_555
I7_4 Zn4_2 1_555 1_555
I8_3 Zn4_2 1_555 1_555
I11_3 Zn6_3 1_555 1_555
I12_3 Zn6_3 1_555 1_555
N1_3 C1_3 1_555 1_555
N2_4 C4_3 1_555 1_555
N3_3 C5_4 1_555 1_555
N4_3 C4_3 1_555 1_555
N5_3 C9_3 1_555 1_555
N6_3 C10_3 1_555 1_555
N7_3 C13_3 1_555 1_555
N8_3 C14_3 1_555 1_555
N9_3 C13_3 1_555 1_555
N10_2 C18_3 1_555 1_555
N11_4 C23_4 1_555 1_555
N12_4 C24_4 1_555 1_555
N15_4 C27_4 1_555 1_555
N16_4 C32_4 1_555 1_555
N18_3 C50_3 1_555 1_555
N19_3 C51_3 1_555 1_555
N20_3 C54_3 1_555 1_555
N21_3 C55_3 1_555 1_555
N22_3 C54_3 1_555 1_555
N24_2 C64_3 1_555 1_555
Zn1_2 N1_3 1_555 1_555
Zn2_3 N5_3 1_555 1_555
Zn3_4 N11_4 1_555 1_555
Zn4_2 N16_4 1_555 1_555
Zn6_3 N18_3 1_555 1_555
N26_2 Zn4_2 1_555 1_555
N27_2 Zn1_2 1_555 1_555
Zn7_2 N24_2 1_555 1_555
Zn9_2 N10_2 1_555 1_555
C5_4 N2_4 1_555 1_555
C6_3 N3_3 1_555 1_555
C6_3 N4_3 1_555 1_555
C14_3 N7_3 1_555 1_555
C15_3 N8_3 1_555 1_555
C15_3 N9_3 1_555 1_555
C19_3 C20_3 1_555 1_555
C19_3 N10_2 1_555 1_555
C29_4 N14_4 1_555 1_555
C29_4 N15_4 1_555 1_555
C33_4 C34_4 1_555 1_555
C33_4 N16_4 1_555 1_555
C41_4 N12_4 1_555 1_555
C42_4 C43_4 1_555 1_555
C42_4 N11_4 1_555 1_555
C45_3 N6_3 1_555 1_555
C46_3 C47_3 1_555 1_555
C46_3 N5_3 1_555 1_555
C55_3 N20_3 1_555 1_555
C56_3 N21_3 1_555 1_555
C56_3 N22_3 1_555 1_555
C65_3 C66_3 1_555 1_555
C65_3 N24_2 1_555 1_555
C68_3 N19_3 1_555 1_555
C69_3 C70_3 1_555 1_555
C69_3 N18_3 1_555 1_555
C72_4 N1_3 1_555 1_555
N6_3 Zn2_3 1_555 1_555
N12_4 Zn3_4 1_555 1_555
N19_3 Zn6_3 1_555 1_555
C28_4 C35_4 1_555 1_555
C35_4 C36_4 1_555 1_555
C36_4 H19_4 1_555 1_555
C37_3 C36_4 1_555 1_555
H20_4 C37_3 1_555 1_555
C38_3 H21_3 1_555 1_555
C39_3 C35_4 1_555 1_555
H22_3 C39_3 1_555 1_555
I9_3 Zn5_2 1_555 1_555
I10_3 Zn5_2 1_555 1_555
N17_3 C37_3 1_555 1_555
Zn5_2 N17_3 1_555 1_555
N25_2 Zn5_2 1_555 1_555
C28_4 N13_4 1_555 1_555
C38_3 C39_3 1_555 1_555
C38_3 N17_3 1_555 1_555
C57_4 C58_4 1_555 1_555
C58_4 H35_4 1_555 1_555
C59_4 C58_4 1_555 1_555
H36_4 C59_4 1_555 1_555
C60_4 H37_4 1_555 1_555
C61_4 C57_4 1_555 1_555
H38_4 C61_4 1_555 1_555
N26_2 C59_4 1_555 1_555
C60_4 C61_4 1_555 1_555
C60_4 N26_2 1_555 1_555
C38_4 H21_4 1_555 1_555
H22_4 C39_4 1_555 1_555
H32_4 C50_4 1_555 1_555
C51_4 H33_4 1_555 1_555
C52_4 C51_4 1_555 1_555
H34_4 C52_4 1_555 1_555
C53_4 C52_4 1_555 1_555
C54_4 C53_4 1_555 1_555
C67_4 C53_4 1_555 1_555
H43_4 C67_4 1_555 1_555
C68_4 C67_4 1_555 1_555
H44_4 C68_4 1_555 1_555
C69_4 H45_4 1_555 1_555
H46_4 C70_4 1_555 1_555
I9_4 Zn9_2 1_555 1_555
I10_4 Zn9_2 1_555 1_555
I11_4 Zn6_4 1_555 1_555
I12_4 Zn6_4 1_555 1_555
N17_4 C37_4 1_555 1_555
N18_4 C50_4 1_555 1_555
N19_4 C51_4 1_555 1_555
N20_4 C54_4 1_555 1_555
N21_4 C55_4 1_555 1_555
N22_4 C54_4 1_555 1_555
Zn9_2 N17_4 1_555 1_555
Zn6_4 N18_4 1_555 1_555
C38_4 C39_4 1_555 1_555
C38_4 N17_4 1_555 1_555
C55_4 N20_4 1_555 1_555
C56_4 N21_4 1_555 1_555
C56_4 N22_4 1_555 1_555
C68_4 N19_4 1_555 1_555
C69_4 C70_4 1_555 1_555
C69_4 N18_4 1_555 1_555
N19_4 Zn6_4 1_555 1_555
C62_4 C63_4 1_555 1_555
C63_4 H39_4 1_555 1_555
C64_4 C63_4 1_555 1_555
H40_4 C64_4 1_555 1_555
C65_4 H41_4 1_555 1_555
C66_4 C62_4 1_555 1_555
H42_4 C66_4 1_555 1_555
N27_2 C64_4 1_555 1_555
C65_4 C66_4 1_555 1_555
C65_4 N27_2 1_555 1_555
C1_4 H1_4 1_555 1_555
C2_4 C1_4 1_555 1_555
H2_4 C2_4 1_555 1_555
C3_4 C2_4 1_555 1_555
C4_4 C3_4 1_555 1_555
C6_4 C7_4 1_555 1_555
C7_4 C8_4 1_555 1_555
C8_4 H3_4 1_555 1_555
C9_4 C8_4 1_555 1_555
H4_4 C9_4 1_555 1_555
C10_4 H5_4 1_555 1_555
C11_4 C10_4 1_555 1_555
H6_4 C11_4 1_555 1_555
C12_4 C11_4 1_555 1_555
C13_4 C12_4 1_555 1_555
C15_4 C16_4 1_555 1_555
C16_4 C17_4 1_555 1_555
C17_4 H7_4 1_555 1_555
C18_4 C17_4 1_555 1_555
H8_4 C18_4 1_555 1_555
C19_4 H9_4 1_555 1_555
C20_4 C16_4 1_555 1_555
H10_4 C20_4 1_555 1_555
C44_4 C12_4 1_555 1_555
H27_4 C44_4 1_555 1_555
C45_4 C44_4 1_555 1_555
H28_4 C45_4 1_555 1_555
C46_4 H29_4 1_555 1_555
C47_4 C7_4 1_555 1_555
H30_4 C47_4 1_555 1_555
I1_4 Zn7_2 1_555 1_555
I4_4 Zn2_4 1_555 1_555
N1_4 C1_4 1_555 1_555
N4_4 C4_4 1_555 1_555
N5_4 C9_4 1_555 1_555
N6_4 C10_4 1_555 1_555
N7_4 C13_4 1_555 1_555
N8_4 C14_4 1_555 1_555
N9_4 C13_4 1_555 1_555
N25_2 C18_4 1_555 1_555
Zn7_2 N1_4 1_555 1_555
Zn2_4 N5_4 1_555 1_555
C6_4 N3_4 1_555 1_555
C6_4 N4_4 1_555 1_555
C14_4 N7_4 1_555 1_555
C15_4 N8_4 1_555 1_555
C15_4 N9_4 1_555 1_555
C19_4 C20_4 1_555 1_555
C19_4 N25_2 1_555 1_555
C45_4 N6_4 1_555 1_555
C46_4 C47_4 1_555 1_555
C46_4 N5_4 1_555 1_555
N6_4 Zn2_4 1_555 1_555

#END
