
###############################################################################
#
# This file contains modified crystal structure data generated from the
# MOF subset of the Cambridge Structural Database (CSD) v543 
# hosted by the Cambridge Crystallographic Data Centre (CCDC).
#
# This work is licensed under the Creative Commons
# Attribution-NonCommercial-ShareAlike 4.0 International License.
# To view a copy of this license, visit
# http://creativecommons.org/licenses/by-nc-sa/4.0/
# or send a letter to
# Creative Commons, PO Box 1866, Mountain View, CA 94042, USA.
#
# CIF created using the CSD Python API on 29 September 2022
# The structure has been converted into the P1 space group
# The structure has a 3D framework
# The original CSD entry ZUBFIN is in the orthorhombic crystal system
# The framework has been calculated to contain at least 10.0% void space
# The void calculation uses a probe of radius 1.32A, grid spacing 0.4
# H atom positions have been added when not included in the experimental data
#
###############################################################################

data_ZUBFIN
_chemical_formula_moiety         '(C864 H528 N190 O192 Zn48)n'
_symmetry_cell_setting           triclinic
_symmetry_space_group_name_H-M   'P 1'
_symmetry_Int_Tables_number      1
_space_group_name_Hall           'P 1'
loop_
_symmetry_equiv_pos_site_id
_symmetry_equiv_pos_as_xyz
1 x,y,z
_cell_length_a                   11.43260(10)
_cell_length_b                   40.4457(8)
_cell_length_c                   63.8998(10)
_cell_angle_alpha                90
_cell_angle_beta                 90
_cell_angle_gamma                90
_cell_volume                     29547.2
loop_
_atom_site_label
_atom_site_type_symbol
_atom_site_fract_x
_atom_site_fract_y
_atom_site_fract_z
O1 O 0.1913(5) 0.31684(11) 0.76559(7)
O2 O 0.0244(5) 0.30633(12) 0.75031(8)
O4 O 0.0725(4) 0.38480(13) 0.66446(8)
N3 N 0.1900(4) 0.48035(11) 0.55510(7)
N4 N 0.3469(3) 0.50495(11) 0.54282(6)
C1 C 0.1258(6) 0.31856(14) 0.75044(11)
C2 C 0.1647(5) 0.33670(13) 0.73062(9)
C3 C 0.2754(5) 0.35021(12) 0.73034(8)
H1 H 0.3249 0.3478 0.7422
C4 C 0.3157(4) 0.36754(11) 0.71277(7)
C5 C 0.2427(5) 0.37123(13) 0.69557(8)
H2 H 0.2693 0.3829 0.6836
C6 C 0.1299(4) 0.35778(14) 0.69597(9)
C7 C 0.0908(5) 0.34059(15) 0.71341(10)
H3 H 0.0142 0.3315 0.7136
C8 C 0.0496(5) 0.3634(2) 0.67775(12)
H8 H 0.0040 0.4950 0.5335
C16 C 0.0699(4) 0.47431(13) 0.56018(8)
C17 C 0.0435(5) 0.45948(14) 0.57929(9)
H9 H 0.1035 0.4526 0.5886
C18 C 0.2851(4) 0.46082(14) 0.56098(9)
H10 H 0.2832 0.4409 0.5688
C19 C 0.3804(5) 0.47619(14) 0.55320(8)
H11 H 0.4586 0.4685 0.5546
C20 C 0.2317(4) 0.50654(13) 0.54421(8)
H12 H 0.1849 0.5236 0.5384
O7 O 0.5587(5) 0.43316(11) 0.76559(7)
O8 O 0.7256(5) 0.44367(12) 0.75031(8)
O9 O 0.7939(4) 0.40362(17) 0.67690(8)
O10 O 0.6775(4) 0.36520(13) 0.66446(8)
C29 C 0.6242(6) 0.43144(14) 0.75044(11)
C30 C 0.5853(5) 0.41330(13) 0.73062(9)
C31 C 0.4746(5) 0.39979(12) 0.73034(8)
H17 H 0.4251 0.4022 0.7422
C32 C 0.4343(4) 0.38246(11) 0.71277(7)
C33 C 0.5073(5) 0.37877(13) 0.69557(8)
H18 H 0.4807 0.3671 0.6836
C34 C 0.6201(4) 0.39222(14) 0.69597(9)
C35 C 0.6592(5) 0.40941(15) 0.71341(10)
H19 H 0.7358 0.4185 0.7136
C36 C 0.7004(5) 0.3866(2) 0.67775(12)
N15 N 0.1900(4) 0.76965(11) 0.69490(7)
N16 N 0.3469(3) 0.74505(11) 0.70718(6)
H45 H 0.0040 0.7550 0.7165
C86 C 0.0699(4) 0.77569(13) 0.68982(8)
C87 C 0.0435(5) 0.79052(14) 0.67071(9)
H46 H 0.1035 0.7974 0.6614
C88 C 0.2851(4) 0.78918(14) 0.68902(9)
H47 H 0.2832 0.8091 0.6812
C89 C 0.3804(5) 0.77381(14) 0.69680(8)
H48 H 0.4586 0.7815 0.6954
C90 C 0.2317(4) 0.74346(13) 0.70579(8)
H49 H 0.1849 0.7264 0.7116
Zn7 Zn 0.45642(5) 0.54002(2) 0.53145(2)
Zn9 Zn 0.45642(5) 0.70998(2) 0.71855(2)
Zn13 Zn 0.04358(5) 0.29002(2) 0.78145(2)
Zn14 Zn 0.70642(5) 0.45998(2) 0.78145(2)
Zn15 Zn 0.8750 0.3750 0.65340(2)
O3 O 0.9561(4) 0.34638(17) 0.67690(8)
O5 O 0.5099(4) 0.54320(10) 0.57662(6)
O6 O 0.4964(4) 0.57749(10) 0.54954(5)
N1 N 0.8781(5) 0.41302(14) 0.63276(8)
N2 N 0.8927(4) 0.44279(14) 0.60404(8)
N5 N 0.7787(4) 0.49190(11) 0.53875(7)
N6 N 0.6127(4) 0.51541(11) 0.52973(6)
C9 C 0.7972(7) 0.4371(2) 0.63348(12)
H4 H 0.7450 0.4408 0.6448
C10 C 0.8008(8) 0.4554(2) 0.61568(12)
H5 H 0.7506 0.4732 0.6120
C11 C 0.9347(6) 0.41678(17) 0.61486(9)
H6 H 0.9968 0.4030 0.6102
C12 C 0.9260(5) 0.45508(15) 0.58420(9)
C13 C 0.8379(5) 0.46470(14) 0.57063(9)
H7 H 0.7580 0.4609 0.5740
C14 C 0.8692(4) 0.48008(14) 0.55203(8)
C15 C 0.9841(4) 0.48481(13) 0.54645(8)
C21 C 0.7788(4) 0.49374(13) 0.51707(8)
H13 H 0.8385 0.4864 0.5078
C22 C 0.6765(4) 0.50514(14) 0.54559(8)
H14 H 0.6541 0.5068 0.5599
C23 C 0.6761(4) 0.50824(13) 0.51181(8)
H15 H 0.6513 0.5128 0.4979
C24 C 0.5231(5) 0.57075(13) 0.56839(8)
C25 C 0.6250 0.6250 0.56972(11)
C26 C 0.5762(5) 0.59861(12) 0.58068(7)
C27 C 0.5787(5) 0.59835(12) 0.60227(7)
H16 H 0.5486 0.5798 0.6096
C28 C 0.6250 0.6250 0.61339(10)
O11 O 0.7401(4) 0.70680(10) 0.57662(6)
O12 O 0.7536(4) 0.67251(10) 0.54954(5)
C37 C 0.7269(5) 0.67925(13) 0.56839(8)
C38 C 0.6738(5) 0.65139(12) 0.58068(7)
C39 C 0.6713(5) 0.65165(12) 0.60227(7)
H20 H 0.7014 0.6702 0.6096
O13 O 0.5099(4) 0.70680(10) 0.67338(6)
O14 O 0.4964(4) 0.67251(10) 0.70046(5)
C40 C 0.5231(5) 0.67925(13) 0.68161(8)
C41 C 0.6250 0.6250 0.68028(11)
C42 C 0.5762(5) 0.65139(12) 0.66932(7)
C43 C 0.5787(5) 0.65165(12) 0.64773(7)
H21 H 0.5486 0.6702 0.6404
C44 C 0.6250 0.6250 0.63661(10)
O15 O 0.7401(4) 0.54320(10) 0.67338(6)
O16 O 0.7536(4) 0.57749(10) 0.70046(5)
C45 C 0.7269(5) 0.57075(13) 0.68161(8)
C46 C 0.6738(5) 0.59861(12) 0.66932(7)
C47 C 0.6713(5) 0.59835(12) 0.64773(7)
H22 H 0.7014 0.5798 0.6404
Zn3 Zn 0.79358(5) 0.70998(2) 0.53145(2)
Zn4 Zn 0.3750 0.8750 0.65340(2)
O17 O 0.0587(5) 0.93316(11) 0.76559(7)
O18 O 0.2256(5) 0.94367(12) 0.75031(8)
O19 O 0.2939(4) 0.90362(17) 0.67690(8)
O20 O 0.1775(4) 0.86520(13) 0.66446(8)
N7 N 0.3719(5) 0.83698(14) 0.63276(8)
N8 N 0.3573(4) 0.80721(14) 0.60404(8)
N9 N 0.0600(4) 0.76965(11) 0.55510(7)
N11 N 0.4713(4) 0.75810(11) 0.53875(7)
N12 N 0.6373(4) 0.73459(11) 0.52973(6)
C48 C 0.1242(6) 0.93144(14) 0.75044(11)
C49 C 0.0853(5) 0.91330(13) 0.73062(9)
C52 C 0.0073(5) 0.87877(13) 0.69557(8)
C53 C 0.1201(4) 0.89222(14) 0.69597(9)
C54 C 0.1592(5) 0.90941(15) 0.71341(10)
H25 H 0.2358 0.9185 0.7136
C55 C 0.2004(5) 0.8866(2) 0.67775(12)
C56 C 0.4528(7) 0.8129(2) 0.63348(12)
H26 H 0.5050 0.8092 0.6448
C57 C 0.4492(8) 0.7946(2) 0.61568(12)
H27 H 0.4994 0.7768 0.6120
C58 C 0.3153(6) 0.83322(17) 0.61486(9)
H28 H 0.2532 0.8470 0.6102
C59 C 0.3240(5) 0.79492(15) 0.58420(9)
C60 C 0.4121(5) 0.78530(14) 0.57063(9)
H29 H 0.4920 0.7891 0.5740
C61 C 0.3808(4) 0.76992(14) 0.55203(8)
C62 C 0.2659(4) 0.76519(13) 0.54645(8)
H30 H 0.2460 0.7550 0.5335
C63 C 0.1801(4) 0.77569(13) 0.56018(8)
C64 C 0.2065(5) 0.79052(14) 0.57929(9)
H31 H 0.1465 0.7974 0.5886
C67 C 0.0183(4) 0.74346(13) 0.54421(8)
H34 H 0.0651 0.7264 0.5384
C68 C 0.4712(4) 0.75626(13) 0.51707(8)
H35 H 0.4115 0.7636 0.5078
C69 C 0.5735(4) 0.74486(14) 0.54559(8)
H36 H 0.5959 0.7432 0.5599
C70 C 0.5739(4) 0.74176(13) 0.51181(8)
H37 H 0.5987 0.7372 0.4979
N13 N 0.8781(5) 0.83698(14) 0.61724(8)
N14 N 0.8927(4) 0.80721(14) 0.64596(8)
N17 N 0.7787(4) 0.75810(11) 0.71125(7)
N18 N 0.6127(4) 0.73459(11) 0.72027(6)
C79 C 0.7972(7) 0.8129(2) 0.61652(12)
H41 H 0.7450 0.8092 0.6052
C80 C 0.8008(8) 0.7946(2) 0.63432(12)
H42 H 0.7506 0.7768 0.6380
C81 C 0.9347(6) 0.83322(17) 0.63514(9)
H43 H 0.9968 0.8470 0.6398
C82 C 0.9260(5) 0.79492(15) 0.66580(9)
C83 C 0.8379(5) 0.78530(14) 0.67937(9)
H44 H 0.7580 0.7891 0.6760
C84 C 0.8692(4) 0.76992(14) 0.69797(8)
C85 C 0.9841(4) 0.76519(13) 0.70355(8)
C91 C 0.7788(4) 0.75626(13) 0.73293(8)
H50 H 0.8385 0.7636 0.7422
C92 C 0.6765(4) 0.74486(14) 0.70441(8)
H51 H 0.6541 0.7432 0.6901
C93 C 0.6761(4) 0.74176(13) 0.73819(8)
H52 H 0.6513 0.7372 0.7521
Zn6 Zn 0.79358(5) 0.54002(2) 0.71855(2)
N19 N 0.3719(5) 0.41302(14) 0.61724(8)
N20 N 0.3573(4) 0.44279(14) 0.64596(8)
N21 N 0.0600(4) 0.48035(11) 0.69490(7)
N23 N 0.4713(4) 0.49190(11) 0.71125(7)
N24 N 0.6373(4) 0.51541(11) 0.72027(6)
C94 C 0.4528(7) 0.4371(2) 0.61652(12)
H53 H 0.5050 0.4408 0.6052
C95 C 0.4492(8) 0.4554(2) 0.63432(12)
H54 H 0.4994 0.4732 0.6380
C96 C 0.3153(6) 0.41678(17) 0.63514(9)
H55 H 0.2532 0.4030 0.6398
C97 C 0.3240(5) 0.45508(15) 0.66580(9)
C98 C 0.4121(5) 0.46470(14) 0.67937(9)
H56 H 0.4920 0.4609 0.6760
C99 C 0.3808(4) 0.48008(14) 0.69797(8)
C100 C 0.2659(4) 0.48481(13) 0.70355(8)
H57 H 0.2460 0.4950 0.7165
C101 C 0.1801(4) 0.47431(13) 0.68982(8)
C102 C 0.2065(5) 0.45948(14) 0.67071(9)
H58 H 0.1465 0.4526 0.6614
C105 C 0.0183(4) 0.50654(13) 0.70579(8)
H61 H 0.0651 0.5236 0.7116
C106 C 0.4712(4) 0.49374(13) 0.73293(8)
H62 H 0.4115 0.4864 0.7422
C107 C 0.5735(4) 0.50514(14) 0.70441(8)
H63 H 0.5959 0.5068 0.6901
C108 C 0.5739(4) 0.50824(13) 0.73819(8)
H64 H 0.5987 0.5128 0.7521
Zn12 Zn 0.20642(5) 0.95998(2) 0.78145(2)
Zn17 Zn 0.8750 0.8750 0.59660(2)
Zn18 Zn 0.3750 0.3750 0.59660(2)
O25 O 0.9413(5) 0.68316(11) 0.51559(7)
O26 O 0.9413(5) 0.56684(11) 0.73441(7)
O27 O 0.3087(5) 0.68316(11) 0.73441(7)
O28 O 0.3087(5) 0.56684(11) 0.51559(7)
O29 O 0.7744(5) 0.69367(12) 0.50031(8)
O30 O 0.7744(5) 0.55633(12) 0.74969(8)
O31 O 0.4756(5) 0.69367(12) 0.74969(8)
O32 O 0.4756(5) 0.55633(12) 0.50031(8)
O33 O 0.4561(4) 0.84638(17) 0.67690(8)
O35 O 0.5725(4) 0.88480(13) 0.66446(8)
N25 N 0.3781(5) 0.91302(14) 0.63276(8)
N26 N 0.8719(5) 0.33698(14) 0.63276(8)
N28 N 0.9031(3) 0.74505(11) 0.54282(6)
N30 N 0.9031(3) 0.50495(11) 0.70718(6)
H65 H 0.625 0.625 0.552678
H66 H 0.625 0.625 0.697322
C50 C 0.9746(5) 0.89979(12) 0.73034(8)
H23 H 0.9251 0.9022 0.7422
C51 C 0.9343(4) 0.88246(11) 0.71277(7)
H24 H 0.9807 0.8671 0.6836
C65 C 0.9649(4) 0.78918(14) 0.56098(9)
H32 H 0.9668 0.8091 0.5688
C66 C 0.8696(5) 0.77381(14) 0.55320(8)
H33 H 0.7914 0.7815 0.5546
O21 O 0.6913(5) 0.81684(11) 0.76559(7)
O22 O 0.5244(5) 0.80633(12) 0.75031(8)
C71 C 0.6258(6) 0.81856(14) 0.75044(11)
C72 C 0.6647(5) 0.83670(13) 0.73062(9)
C73 C 0.7754(5) 0.85021(12) 0.73034(8)
H38 H 0.8249 0.8478 0.7422
C74 C 0.8157(4) 0.86754(11) 0.71277(7)
C75 C 0.7427(5) 0.87123(13) 0.69557(8)
H39 H 0.7693 0.8829 0.6836
C76 C 0.6299(4) 0.85778(14) 0.69597(9)
C77 C 0.5908(5) 0.84059(15) 0.71341(10)
H40 H 0.5142 0.8315 0.7136
C78 C 0.5496(5) 0.8634(2) 0.67775(12)
C103 C 0.9649(4) 0.46082(14) 0.68902(9)
H59 H 0.9668 0.4409 0.6812
C104 C 0.8696(5) 0.47619(14) 0.69680(8)
H60 H 0.7914 0.4685 0.6954
Zn11 Zn 0.54358(5) 0.79002(2) 0.78145(2)
O1_2 O 0.1913(5) 0.93316(11) 0.48441(7)
O2_2 O 0.0244(5) 0.94367(12) 0.49969(8)
O4_2 O 0.0725(4) 0.86520(13) 0.58554(8)
C1_2 C 0.1258(6) 0.93144(14) 0.49956(11)
C2_2 C 0.1647(5) 0.91330(13) 0.51938(9)
C3_2 C 0.2754(5) 0.89979(12) 0.51966(8)
H1_2 H 0.3249 0.9022 0.5078
C4_2 C 0.3157(4) 0.88246(11) 0.53723(7)
C5_2 C 0.2427(5) 0.87877(13) 0.55443(8)
H2_2 H 0.2693 0.8671 0.5664
C6_2 C 0.1299(4) 0.89222(14) 0.55403(9)
C7_2 C 0.0908(5) 0.90941(15) 0.53659(10)
H3_2 H 0.0142 0.9185 0.5364
C8_2 C 0.0496(5) 0.8866(2) 0.57225(12)
O7_2 O 0.5587(5) 0.81684(11) 0.48441(7)
O8_2 O 0.7256(5) 0.80633(12) 0.49969(8)
O9_2 O 0.7939(4) 0.84638(17) 0.57310(8)
O10_2 O 0.6775(4) 0.88480(13) 0.58554(8)
C29_2 C 0.6242(6) 0.81856(14) 0.49956(11)
C30_2 C 0.5853(5) 0.83670(13) 0.51938(9)
C31_2 C 0.4746(5) 0.85021(12) 0.51966(8)
H17_2 H 0.4251 0.8478 0.5078
C32_2 C 0.4343(4) 0.86754(11) 0.53723(7)
C33_2 C 0.5073(5) 0.87123(13) 0.55443(8)
H18_2 H 0.4807 0.8829 0.5664
C34_2 C 0.6201(4) 0.85778(14) 0.55403(9)
C35_2 C 0.6592(5) 0.84059(15) 0.53659(10)
H19_2 H 0.7358 0.8315 0.5364
C36_2 C 0.7004(5) 0.8634(2) 0.57225(12)
Zn13_2 Zn 0.04358(5) 0.95998(2) 0.46855(2)
Zn14_2 Zn 0.70642(5) 0.79002(2) 0.46855(2)
O3_2 O 0.9561(4) 0.90362(17) 0.57310(8)
O17_2 O 0.0587(5) 0.31684(11) 0.48441(7)
O18_2 O 0.2256(5) 0.30633(12) 0.49969(8)
O19_2 O 0.2939(4) 0.34638(17) 0.57310(8)
O20_2 O 0.1775(4) 0.38480(13) 0.58554(8)
C48_2 C 0.1242(6) 0.31856(14) 0.49956(11)
C49_2 C 0.0853(5) 0.33670(13) 0.51938(9)
C52_2 C 0.0073(5) 0.37123(13) 0.55443(8)
C53_2 C 0.1201(4) 0.35778(14) 0.55403(9)
C54_2 C 0.1592(5) 0.34059(15) 0.53659(10)
H25_2 H 0.2358 0.3315 0.5364
C55_2 C 0.2004(5) 0.3634(2) 0.57225(12)
Zn12_2 Zn 0.20642(5) 0.29002(2) 0.46855(2)
O33_2 O 0.4561(4) 0.40362(17) 0.57310(8)
O35_2 O 0.5725(4) 0.36520(13) 0.58554(8)
N25_2 N 0.3781(5) 0.33698(14) 0.61724(8)
N26_2 N 0.8719(5) 0.91302(14) 0.61724(8)
C50_2 C 0.9746(5) 0.35021(12) 0.51966(8)
H23_2 H 0.9251 0.3478 0.5078
C51_2 C 0.9343(4) 0.36754(11) 0.53723(7)
H24_2 H 0.9807 0.3829 0.5664
O21_2 O 0.6913(5) 0.43316(11) 0.48441(7)
O22_2 O 0.5244(5) 0.44367(12) 0.49969(8)
C71_2 C 0.6258(6) 0.43144(14) 0.49956(11)
C72_2 C 0.6647(5) 0.41330(13) 0.51938(9)
C73_2 C 0.7754(5) 0.39979(12) 0.51966(8)
H38_2 H 0.8249 0.4022 0.5078
C74_2 C 0.8157(4) 0.38246(11) 0.53723(7)
C75_2 C 0.7427(5) 0.37877(13) 0.55443(8)
H39_2 H 0.7693 0.3671 0.5664
C76_2 C 0.6299(4) 0.39222(14) 0.55403(9)
C77_2 C 0.5908(5) 0.40941(15) 0.53659(10)
H40_2 H 0.5142 0.4185 0.5364
C78_2 C 0.5496(5) 0.3866(2) 0.57225(12)
Zn11_2 Zn 0.54358(5) 0.45998(2) 0.46855(2)
N4_2 N 0.3469(3) 0.00495(11) 0.04282(6)
C20_2 C 0.2317(4) 0.00654(13) 0.04421(8)
H12_2 H 0.1849 0.0236 0.0384
N15_2 N 0.1900(4) 0.26965(11) 0.19490(7)
N16_2 N 0.3469(3) 0.24505(11) 0.20718(6)
H45_2 H 0.0040 0.2550 0.2165
C86_2 C 0.0699(4) 0.27569(13) 0.18982(8)
C87_2 C 0.0435(5) 0.29052(14) 0.17071(9)
H46_2 H 0.1035 0.2974 0.1614
C88_2 C 0.2851(4) 0.28918(14) 0.18902(9)
H47_2 H 0.2832 0.3091 0.1812
C89_2 C 0.3804(5) 0.27381(14) 0.19680(8)
H48_2 H 0.4586 0.2815 0.1954
C90_2 C 0.2317(4) 0.24346(13) 0.20579(8)
H49_2 H 0.1849 0.2264 0.2116
Zn7_2 Zn 0.45642(5) 0.04002(2) 0.03145(2)
Zn9_2 Zn 0.45642(5) 0.20998(2) 0.21855(2)
O1_3 O 0.1913(5) 0.81684(11) 0.26559(7)
O2_3 O 0.0244(5) 0.80633(12) 0.25031(8)
O4_3 O 0.0725(4) 0.88480(13) 0.16446(8)
N3_2 N 0.1900(4) 0.98035(11) 0.05510(7)
C1_3 C 0.1258(6) 0.81856(14) 0.25044(11)
C2_3 C 0.1647(5) 0.83670(13) 0.23062(9)
C3_3 C 0.2754(5) 0.85021(12) 0.23034(8)
H1_3 H 0.3249 0.8478 0.2422
C4_3 C 0.3157(4) 0.86754(11) 0.21277(7)
C5_3 C 0.2427(5) 0.87123(13) 0.19557(8)
H2_3 H 0.2693 0.8829 0.1836
C6_3 C 0.1299(4) 0.85778(14) 0.19597(9)
C7_3 C 0.0908(5) 0.84059(15) 0.21341(10)
H3_3 H 0.0142 0.8315 0.2136
C8_3 C 0.0496(5) 0.8634(2) 0.17775(12)
H8_2 H 0.0040 0.9950 0.0335
C16_2 C 0.0699(4) 0.97431(13) 0.06018(8)
C17_2 C 0.0435(5) 0.95948(14) 0.07929(9)
H9_2 H 0.1035 0.9526 0.0886
C18_2 C 0.2851(4) 0.96082(14) 0.06098(9)
H10_2 H 0.2832 0.9409 0.0688
C19_2 C 0.3804(5) 0.97619(14) 0.05320(8)
H11_2 H 0.4586 0.9685 0.0546
O7_3 O 0.5587(5) 0.93316(11) 0.26559(7)
O8_3 O 0.7256(5) 0.94367(12) 0.25031(8)
O9_3 O 0.7939(4) 0.90362(17) 0.17690(8)
O10_3 O 0.6775(4) 0.86520(13) 0.16446(8)
C29_3 C 0.6242(6) 0.93144(14) 0.25044(11)
C30_3 C 0.5853(5) 0.91330(13) 0.23062(9)
C31_3 C 0.4746(5) 0.89979(12) 0.23034(8)
H17_3 H 0.4251 0.9022 0.2422
C32_3 C 0.4343(4) 0.88246(11) 0.21277(7)
C33_3 C 0.5073(5) 0.87877(13) 0.19557(8)
H18_3 H 0.4807 0.8671 0.1836
C34_3 C 0.6201(4) 0.89222(14) 0.19597(9)
C35_3 C 0.6592(5) 0.90941(15) 0.21341(10)
H19_3 H 0.7358 0.9185 0.2136
C36_3 C 0.7004(5) 0.8866(2) 0.17775(12)
Zn13_3 Zn 0.04358(5) 0.79002(2) 0.28145(2)
Zn14_3 Zn 0.70642(5) 0.95998(2) 0.28145(2)
Zn15_2 Zn 0.8750 0.8750 0.15340(2)
O5_2 O 0.5099(4) 0.04320(10) 0.07662(6)
O6_2 O 0.4964(4) 0.07749(10) 0.04954(5)
N6_2 N 0.6127(4) 0.01541(11) 0.02973(6)
C22_2 C 0.6765(4) 0.00514(14) 0.04559(8)
H14_2 H 0.6541 0.0068 0.0599
C23_2 C 0.6761(4) 0.00824(13) 0.01181(8)
C24_2 C 0.5231(5) 0.07075(13) 0.06839(8)
C25_2 C 0.6250 0.1250 0.06972(11)
C26_2 C 0.5762(5) 0.09861(12) 0.08068(7)
C27_2 C 0.5787(5) 0.09835(12) 0.10227(7)
H16_2 H 0.5486 0.0798 0.1096
C28_2 C 0.6250 0.1250 0.11339(10)
O11_2 O 0.7401(4) 0.20680(10) 0.07662(6)
O12_2 O 0.7536(4) 0.17251(10) 0.04954(5)
C37_2 C 0.7269(5) 0.17925(13) 0.06839(8)
C38_2 C 0.6738(5) 0.15139(12) 0.08068(7)
C39_2 C 0.6713(5) 0.15165(12) 0.10227(7)
H20_2 H 0.7014 0.1702 0.1096
O13_2 O 0.5099(4) 0.20680(10) 0.17338(6)
O14_2 O 0.4964(4) 0.17251(10) 0.20046(5)
C40_2 C 0.5231(5) 0.17925(13) 0.18161(8)
C41_2 C 0.6250 0.1250 0.18028(11)
C42_2 C 0.5762(5) 0.15139(12) 0.16932(7)
C43_2 C 0.5787(5) 0.15165(12) 0.14773(7)
H21_2 H 0.5486 0.1702 0.1404
C44_2 C 0.6250 0.1250 0.13661(10)
O15_2 O 0.7401(4) 0.04320(10) 0.17338(6)
O16_2 O 0.7536(4) 0.07749(10) 0.20046(5)
C45_2 C 0.7269(5) 0.07075(13) 0.18161(8)
C46_2 C 0.6738(5) 0.09861(12) 0.16932(7)
C47_2 C 0.6713(5) 0.09835(12) 0.14773(7)
H22_2 H 0.7014 0.0798 0.1404
Zn3_2 Zn 0.79358(5) 0.20998(2) 0.03145(2)
Zn4_2 Zn 0.3750 0.3750 0.15340(2)
O17_3 O 0.0587(5) 0.43316(11) 0.26559(7)
O18_3 O 0.2256(5) 0.44367(12) 0.25031(8)
O19_3 O 0.2939(4) 0.40362(17) 0.17690(8)
O20_3 O 0.1775(4) 0.36520(13) 0.16446(8)
N7_2 N 0.3719(5) 0.33698(14) 0.13276(8)
N8_2 N 0.3573(4) 0.30721(14) 0.10404(8)
N9_2 N 0.0600(4) 0.26965(11) 0.05510(7)
N11_2 N 0.4713(4) 0.25810(11) 0.03875(7)
N12_2 N 0.6373(4) 0.23459(11) 0.02973(6)
C48_3 C 0.1242(6) 0.43144(14) 0.25044(11)
C49_3 C 0.0853(5) 0.41330(13) 0.23062(9)
C52_3 C 0.0073(5) 0.37877(13) 0.19557(8)
C53_3 C 0.1201(4) 0.39222(14) 0.19597(9)
C54_3 C 0.1592(5) 0.40941(15) 0.21341(10)
H25_3 H 0.2358 0.4185 0.2136
C55_3 C 0.2004(5) 0.3866(2) 0.17775(12)
C56_2 C 0.4528(7) 0.3129(2) 0.13348(12)
H26_2 H 0.5050 0.3092 0.1448
C57_2 C 0.4492(8) 0.2946(2) 0.11568(12)
H27_2 H 0.4994 0.2768 0.1120
C58_2 C 0.3153(6) 0.33322(17) 0.11486(9)
H28_2 H 0.2532 0.3470 0.1102
C59_2 C 0.3240(5) 0.29492(15) 0.08420(9)
C60_2 C 0.4121(5) 0.28530(14) 0.07063(9)
H29_2 H 0.4920 0.2891 0.0740
C61_2 C 0.3808(4) 0.26992(14) 0.05203(8)
C62_2 C 0.2659(4) 0.26519(13) 0.04645(8)
H30_2 H 0.2460 0.2550 0.0335
C63_2 C 0.1801(4) 0.27569(13) 0.06018(8)
C64_2 C 0.2065(5) 0.29052(14) 0.07929(9)
H31_2 H 0.1465 0.2974 0.0886
C67_2 C 0.0183(4) 0.24346(13) 0.04421(8)
H34_2 H 0.0651 0.2264 0.0384
C68_2 C 0.4712(4) 0.25626(13) 0.01707(8)
H35_2 H 0.4115 0.2636 0.0078
C69_2 C 0.5735(4) 0.24486(14) 0.04559(8)
H36_2 H 0.5959 0.2432 0.0599
C70_2 C 0.5739(4) 0.24176(13) 0.01181(8)
N13_2 N 0.8781(5) 0.33698(14) 0.11724(8)
N14_2 N 0.8927(4) 0.30721(14) 0.14596(8)
N17_2 N 0.7787(4) 0.25810(11) 0.21125(7)
N18_2 N 0.6127(4) 0.23459(11) 0.22027(6)
C79_2 C 0.7972(7) 0.3129(2) 0.11652(12)
H41_2 H 0.7450 0.3092 0.1052
C80_2 C 0.8008(8) 0.2946(2) 0.13432(12)
H42_2 H 0.7506 0.2768 0.1380
C81_2 C 0.9347(6) 0.33322(17) 0.13514(9)
H43_2 H 0.9968 0.3470 0.1398
C82_2 C 0.9260(5) 0.29492(15) 0.16580(9)
C83_2 C 0.8379(5) 0.28530(14) 0.17937(9)
H44_2 H 0.7580 0.2891 0.1760
C84_2 C 0.8692(4) 0.26992(14) 0.19797(8)
C85_2 C 0.9841(4) 0.26519(13) 0.20355(8)
C91_2 C 0.7788(4) 0.25626(13) 0.23293(8)
H50_2 H 0.8385 0.2636 0.2422
C92_2 C 0.6765(4) 0.24486(14) 0.20441(8)
H51_2 H 0.6541 0.2432 0.1901
C93_2 C 0.6761(4) 0.24176(13) 0.23819(8)
H52_2 H 0.6513 0.2372 0.2521
Zn6_2 Zn 0.79358(5) 0.04002(2) 0.21855(2)
N24_2 N 0.6373(4) 0.01541(11) 0.22027(6)
C105_2 C 0.0183(4) 0.00654(13) 0.20579(8)
H61_2 H 0.0651 0.0236 0.2116
C107_2 C 0.5735(4) 0.00514(14) 0.20441(8)
H63_2 H 0.5959 0.0068 0.1901
C108_2 C 0.5739(4) 0.00824(13) 0.23819(8)
H64_2 H 0.5987 0.0128 0.2521
Zn12_3 Zn 0.20642(5) 0.45998(2) 0.28145(2)
Zn17_2 Zn 0.8750 0.3750 0.09660(2)
O25_2 O 0.9413(5) 0.18316(11) 0.01559(7)
O26_2 O 0.9413(5) 0.06684(11) 0.23441(7)
O27_2 O 0.3087(5) 0.18316(11) 0.23441(7)
O28_2 O 0.3087(5) 0.06684(11) 0.01559(7)
O29_2 O 0.7744(5) 0.19367(12) 0.00031(8)
O30_2 O 0.7744(5) 0.05633(12) 0.24969(8)
O31_2 O 0.4756(5) 0.19367(12) 0.24969(8)
O32_2 O 0.4756(5) 0.05633(12) 0.00031(8)
O33_3 O 0.4561(4) 0.34638(17) 0.17690(8)
O35_3 O 0.5725(4) 0.38480(13) 0.16446(8)
N25_3 N 0.3781(5) 0.41302(14) 0.13276(8)
N28_2 N 0.9031(3) 0.24505(11) 0.04282(6)
N30_2 N 0.9031(3) 0.00495(11) 0.20718(6)
H65_2 H 0.625 0.125 0.0526777
H66_2 H 0.625 0.125 0.197322
O3_3 O 0.9561(4) 0.84638(17) 0.17690(8)
N1_2 N 0.8781(5) 0.91302(14) 0.13276(8)
N2_2 N 0.8927(4) 0.94279(14) 0.10404(8)
N5_2 N 0.7787(4) 0.99190(11) 0.03875(7)
C9_2 C 0.7972(7) 0.9371(2) 0.13348(12)
H4_2 H 0.7450 0.9408 0.1448
C10_2 C 0.8008(8) 0.9554(2) 0.11568(12)
H5_2 H 0.7506 0.9732 0.1120
C11_2 C 0.9347(6) 0.91678(17) 0.11486(9)
H6_2 H 0.9968 0.9030 0.1102
C12_2 C 0.9260(5) 0.95508(15) 0.08420(9)
C13_2 C 0.8379(5) 0.96470(14) 0.07063(9)
H7_2 H 0.7580 0.9609 0.0740
C14_2 C 0.8692(4) 0.98008(14) 0.05203(8)
C15_2 C 0.9841(4) 0.98481(13) 0.04645(8)
C21_2 C 0.7788(4) 0.99374(13) 0.01707(8)
H13_2 H 0.8385 0.9864 0.0078
N19_2 N 0.3719(5) 0.91302(14) 0.11724(8)
N20_2 N 0.3573(4) 0.94279(14) 0.14596(8)
N21_2 N 0.0600(4) 0.98035(11) 0.19490(7)
N23_2 N 0.4713(4) 0.99190(11) 0.21125(7)
C94_2 C 0.4528(7) 0.9371(2) 0.11652(12)
H53_2 H 0.5050 0.9408 0.1052
C95_2 C 0.4492(8) 0.9554(2) 0.13432(12)
H54_2 H 0.4994 0.9732 0.1380
C96_2 C 0.3153(6) 0.91678(17) 0.13514(9)
H55_2 H 0.2532 0.9030 0.1398
C97_2 C 0.3240(5) 0.95508(15) 0.16580(9)
C98_2 C 0.4121(5) 0.96470(14) 0.17937(9)
H56_2 H 0.4920 0.9609 0.1760
C99_2 C 0.3808(4) 0.98008(14) 0.19797(8)
C100_2 C 0.2659(4) 0.98481(13) 0.20355(8)
H57_2 H 0.2460 0.9950 0.2165
C101_2 C 0.1801(4) 0.97431(13) 0.18982(8)
C102_2 C 0.2065(5) 0.95948(14) 0.17071(9)
H58_2 H 0.1465 0.9526 0.1614
C106_2 C 0.4712(4) 0.99374(13) 0.23293(8)
H62_2 H 0.4115 0.9864 0.2422
Zn18_2 Zn 0.3750 0.8750 0.09660(2)
N26_3 N 0.8719(5) 0.83698(14) 0.13276(8)
C50_3 C 0.9746(5) 0.39979(12) 0.23034(8)
H23_3 H 0.9251 0.4022 0.2422
C51_3 C 0.9343(4) 0.38246(11) 0.21277(7)
H24_3 H 0.9807 0.3671 0.1836
C65_2 C 0.9649(4) 0.28918(14) 0.06098(9)
H32_2 H 0.9668 0.3091 0.0688
C66_2 C 0.8696(5) 0.27381(14) 0.05320(8)
H33_2 H 0.7914 0.2815 0.0546
O21_3 O 0.6913(5) 0.31684(11) 0.26559(7)
O22_3 O 0.5244(5) 0.30633(12) 0.25031(8)
C71_3 C 0.6258(6) 0.31856(14) 0.25044(11)
C72_3 C 0.6647(5) 0.33670(13) 0.23062(9)
C73_3 C 0.7754(5) 0.35021(12) 0.23034(8)
H38_3 H 0.8249 0.3478 0.2422
C74_3 C 0.8157(4) 0.36754(11) 0.21277(7)
C75_3 C 0.7427(5) 0.37123(13) 0.19557(8)
H39_3 H 0.7693 0.3829 0.1836
C76_3 C 0.6299(4) 0.35778(14) 0.19597(9)
C77_3 C 0.5908(5) 0.34059(15) 0.21341(10)
H40_3 H 0.5142 0.3315 0.2136
C78_3 C 0.5496(5) 0.3634(2) 0.17775(12)
Zn11_3 Zn 0.54358(5) 0.29002(2) 0.28145(2)
C103_2 C 0.9649(4) 0.96082(14) 0.18902(9)
H59_2 H 0.9668 0.9409 0.1812
C104_2 C 0.8696(5) 0.97619(14) 0.19680(8)
H60_2 H 0.7914 0.9685 0.1954
O4_4 O 0.0725(4) 0.36520(13) 0.08554(8)
C2_4 C 0.1647(5) 0.41330(13) 0.01938(9)
C3_4 C 0.2754(5) 0.39979(12) 0.01966(8)
H1_4 H 0.3249 0.4022 0.0078
C4_4 C 0.3157(4) 0.38246(11) 0.03723(7)
C5_4 C 0.2427(5) 0.37877(13) 0.05443(8)
H2_4 H 0.2693 0.3671 0.0664
C6_4 C 0.1299(4) 0.39222(14) 0.05403(9)
C7_4 C 0.0908(5) 0.40941(15) 0.03659(10)
H3_4 H 0.0142 0.4185 0.0364
C8_4 C 0.0496(5) 0.3866(2) 0.07225(12)
O9_4 O 0.7939(4) 0.34638(17) 0.07310(8)
O10_4 O 0.6775(4) 0.38480(13) 0.08554(8)
C30_4 C 0.5853(5) 0.33670(13) 0.01938(9)
C31_4 C 0.4746(5) 0.35021(12) 0.01966(8)
H17_4 H 0.4251 0.3478 0.0078
C32_4 C 0.4343(4) 0.36754(11) 0.03723(7)
C33_4 C 0.5073(5) 0.37123(13) 0.05443(8)
H18_4 H 0.4807 0.3829 0.0664
C34_4 C 0.6201(4) 0.35778(14) 0.05403(9)
C35_4 C 0.6592(5) 0.34059(15) 0.03659(10)
H19_4 H 0.7358 0.3315 0.0364
C36_4 C 0.7004(5) 0.3634(2) 0.07225(12)
O1_4 O 0.1913(5) 0.43316(11) 0.98441(7)
O2_4 O 0.0244(5) 0.44367(12) 0.99969(8)
C1_4 C 0.1258(6) 0.43144(14) 0.99956(11)
O7_4 O 0.5587(5) 0.31684(11) 0.98441(7)
O8_4 O 0.7256(5) 0.30633(12) 0.99969(8)
C29_4 C 0.6242(6) 0.31856(14) 0.99956(11)
Zn13_4 Zn 0.04358(5) 0.45998(2) 0.96855(2)
Zn14_4 Zn 0.70642(5) 0.29002(2) 0.96855(2)
O3_4 O 0.9561(4) 0.40362(17) 0.07310(8)
N26_4 N 0.8719(5) 0.41302(14) 0.11724(8)
O19_4 O 0.2939(4) 0.84638(17) 0.07310(8)
O20_4 O 0.1775(4) 0.88480(13) 0.08554(8)
C49_4 C 0.0853(5) 0.83670(13) 0.01938(9)
C52_4 C 0.0073(5) 0.87123(13) 0.05443(8)
C53_4 C 0.1201(4) 0.85778(14) 0.05403(9)
C54_4 C 0.1592(5) 0.84059(15) 0.03659(10)
H25_4 H 0.2358 0.8315 0.0364
C55_4 C 0.2004(5) 0.8634(2) 0.07225(12)
O33_4 O 0.4561(4) 0.90362(17) 0.07310(8)
O35_4 O 0.5725(4) 0.86520(13) 0.08554(8)
N25_4 N 0.3781(5) 0.83698(14) 0.11724(8)
O17_4 O 0.0587(5) 0.81684(11) 0.98441(7)
O18_4 O 0.2256(5) 0.80633(12) 0.99969(8)
C48_4 C 0.1242(6) 0.81856(14) 0.99956(11)
Zn12_4 Zn 0.20642(5) 0.79002(2) 0.96855(2)
C50_4 C 0.9746(5) 0.85021(12) 0.01966(8)
H23_4 H 0.9251 0.8478 0.0078
C51_4 C 0.9343(4) 0.86754(11) 0.03723(7)
H24_4 H 0.9807 0.8829 0.0664
C72_4 C 0.6647(5) 0.91330(13) 0.01938(9)
C73_4 C 0.7754(5) 0.89979(12) 0.01966(8)
H38_4 H 0.8249 0.9022 0.0078
C74_4 C 0.8157(4) 0.88246(11) 0.03723(7)
C75_4 C 0.7427(5) 0.87877(13) 0.05443(8)
H39_4 H 0.7693 0.8671 0.0664
C76_4 C 0.6299(4) 0.89222(14) 0.05403(9)
C77_4 C 0.5908(5) 0.90941(15) 0.03659(10)
H40_4 H 0.5142 0.9185 0.0364
C78_4 C 0.5496(5) 0.8866(2) 0.07225(12)
O21_4 O 0.6913(5) 0.93316(11) 0.98441(7)
O22_4 O 0.5244(5) 0.94367(12) 0.99969(8)
C71_4 C 0.6258(6) 0.93144(14) 0.99956(11)
Zn11_4 Zn 0.54358(5) 0.95998(2) 0.96855(2)
O5_3 O 0.0099(4) 0.54320(10) 0.07662(6)
N2_3 N 0.3927(4) 0.44279(14) 0.10404(8)
N3_3 N 0.6900(4) 0.48035(11) 0.05510(7)
N4_3 N 0.8469(3) 0.50495(11) 0.04282(6)
N5_3 N 0.2787(4) 0.49190(11) 0.03875(7)
N6_3 N 0.1127(4) 0.51541(11) 0.02973(6)
C9_3 C 0.2972(7) 0.4371(2) 0.13348(12)
H4_3 H 0.2450 0.4408 0.1448
C10_3 C 0.3008(8) 0.4554(2) 0.11568(12)
H5_3 H 0.2506 0.4732 0.1120
C11_3 C 0.4347(6) 0.41678(17) 0.11486(9)
H6_3 H 0.4968 0.4030 0.1102
C12_3 C 0.4260(5) 0.45508(15) 0.08420(9)
C13_3 C 0.3379(5) 0.46470(14) 0.07063(9)
H7_3 H 0.2580 0.4609 0.0740
C14_3 C 0.3692(4) 0.48008(14) 0.05203(8)
C15_3 C 0.4841(4) 0.48481(13) 0.04645(8)
H8_3 H 0.5040 0.4950 0.0335
C16_3 C 0.5699(4) 0.47431(13) 0.06018(8)
C17_3 C 0.5435(5) 0.45948(14) 0.07929(9)
H9_3 H 0.6035 0.4526 0.0886
C18_3 C 0.7851(4) 0.46082(14) 0.06098(9)
H10_3 H 0.7832 0.4409 0.0688
C19_3 C 0.8804(5) 0.47619(14) 0.05320(8)
H11_3 H 0.9586 0.4685 0.0546
C20_3 C 0.7317(4) 0.50654(13) 0.04421(8)
H12_3 H 0.6849 0.5236 0.0384
C21_3 C 0.2788(4) 0.49374(13) 0.01707(8)
H13_3 H 0.3385 0.4864 0.0078
C22_3 C 0.1765(4) 0.50514(14) 0.04559(8)
H14_3 H 0.1541 0.5068 0.0599
C23_3 C 0.1761(4) 0.50824(13) 0.01181(8)
C24_3 C 0.0231(5) 0.57075(13) 0.06839(8)
C25_3 C 0.1250 0.6250 0.06972(11)
C26_3 C 0.0762(5) 0.59861(12) 0.08068(7)
C27_3 C 0.0787(5) 0.59835(12) 0.10227(7)
H16_3 H 0.0486 0.5798 0.1096
C28_3 C 0.1250 0.6250 0.11339(10)
O11_3 O 0.2401(4) 0.70680(10) 0.07662(6)
O12_3 O 0.2536(4) 0.67251(10) 0.04954(5)
C37_3 C 0.2269(5) 0.67925(13) 0.06839(8)
C38_3 C 0.1738(5) 0.65139(12) 0.08068(7)
C39_3 C 0.1713(5) 0.65165(12) 0.10227(7)
H20_3 H 0.2014 0.6702 0.1096
O13_3 O 0.0099(4) 0.70680(10) 0.17338(6)
C40_3 C 0.0231(5) 0.67925(13) 0.18161(8)
C41_3 C 0.1250 0.6250 0.18028(11)
C42_3 C 0.0762(5) 0.65139(12) 0.16932(7)
C43_3 C 0.0787(5) 0.65165(12) 0.14773(7)
H21_3 H 0.0486 0.6702 0.1404
C44_3 C 0.1250 0.6250 0.13661(10)
O15_3 O 0.2401(4) 0.54320(10) 0.17338(6)
O16_3 O 0.2536(4) 0.57749(10) 0.20046(5)
C45_3 C 0.2269(5) 0.57075(13) 0.18161(8)
C46_3 C 0.1738(5) 0.59861(12) 0.16932(7)
C47_3 C 0.1713(5) 0.59835(12) 0.14773(7)
H22_3 H 0.2014 0.5798 0.1404
Zn3_3 Zn 0.29358(5) 0.70998(2) 0.03145(2)
N12_3 N 0.1373(4) 0.73459(11) 0.02973(6)
H26_3 H 0.0050 0.8092 0.1448
C69_3 C 0.0735(4) 0.74486(14) 0.04559(8)
H36_3 H 0.0959 0.7432 0.0599
C70_3 C 0.0739(4) 0.74176(13) 0.01181(8)
N14_3 N 0.3927(4) 0.80721(14) 0.14596(8)
N15_3 N 0.6900(4) 0.76965(11) 0.19490(7)
N16_3 N 0.8469(3) 0.74505(11) 0.20718(6)
N17_3 N 0.2787(4) 0.75810(11) 0.21125(7)
N18_3 N 0.1127(4) 0.73459(11) 0.22027(6)
C79_3 C 0.2972(7) 0.8129(2) 0.11652(12)
H41_3 H 0.2450 0.8092 0.1052
C80_3 C 0.3008(8) 0.7946(2) 0.13432(12)
H42_3 H 0.2506 0.7768 0.1380
C81_3 C 0.4347(6) 0.83322(17) 0.13514(9)
H43_3 H 0.4968 0.8470 0.1398
C82_3 C 0.4260(5) 0.79492(15) 0.16580(9)
C83_3 C 0.3379(5) 0.78530(14) 0.17937(9)
H44_3 H 0.2580 0.7891 0.1760
C84_3 C 0.3692(4) 0.76992(14) 0.19797(8)
C85_3 C 0.4841(4) 0.76519(13) 0.20355(8)
H45_3 H 0.5040 0.7550 0.2165
C86_3 C 0.5699(4) 0.77569(13) 0.18982(8)
C87_3 C 0.5435(5) 0.79052(14) 0.17071(9)
H46_3 H 0.6035 0.7974 0.1614
C88_3 C 0.7851(4) 0.78918(14) 0.18902(9)
H47_3 H 0.7832 0.8091 0.1812
C89_3 C 0.8804(5) 0.77381(14) 0.19680(8)
H48_3 H 0.9586 0.7815 0.1954
C90_3 C 0.7317(4) 0.74346(13) 0.20579(8)
H49_3 H 0.6849 0.7264 0.2116
C91_3 C 0.2788(4) 0.75626(13) 0.23293(8)
H50_3 H 0.3385 0.7636 0.2422
C92_3 C 0.1765(4) 0.74486(14) 0.20441(8)
H51_3 H 0.1541 0.7432 0.1901
C93_3 C 0.1761(4) 0.74176(13) 0.23819(8)
H52_3 H 0.1513 0.7372 0.2521
Zn6_3 Zn 0.29358(5) 0.54002(2) 0.21855(2)
N24_3 N 0.1373(4) 0.51541(11) 0.22027(6)
H53_3 H 0.0050 0.4408 0.1052
C107_3 C 0.0735(4) 0.50514(14) 0.20441(8)
H63_3 H 0.0959 0.5068 0.1901
C108_3 C 0.0739(4) 0.50824(13) 0.23819(8)
H64_3 H 0.0987 0.5128 0.2521
Zn7_3 Zn 0.95642(5) 0.54002(2) 0.03145(2)
Zn9_3 Zn 0.95642(5) 0.70998(2) 0.21855(2)
O25_3 O 0.4413(5) 0.68316(11) 0.01559(7)
O26_3 O 0.4413(5) 0.56684(11) 0.23441(7)
O29_3 O 0.2744(5) 0.69367(12) 0.00031(8)
O30_3 O 0.2744(5) 0.55633(12) 0.24969(8)
N28_3 N 0.4031(3) 0.74505(11) 0.04282(6)
N30_3 N 0.4031(3) 0.50495(11) 0.20718(6)
H65_3 H 0.125 0.625 0.0526777
H66_3 H 0.125 0.625 0.197322
H15_2 H 0.1513 0.5128 0.9979
H37_2 H 0.0987 0.7372 0.9979
O6_3 O 0.9964(4) 0.57749(10) 0.04954(5)
O14_3 O 0.9964(4) 0.67251(10) 0.20046(5)
N8_3 N 0.8573(4) 0.80721(14) 0.10404(8)
N9_3 N 0.5600(4) 0.76965(11) 0.05510(7)
N11_3 N 0.9713(4) 0.75810(11) 0.03875(7)
C56_3 C 0.9528(7) 0.8129(2) 0.13348(12)
C57_3 C 0.9492(8) 0.7946(2) 0.11568(12)
H27_3 H 0.9994 0.7768 0.1120
C58_3 C 0.8153(6) 0.83322(17) 0.11486(9)
H28_3 H 0.7532 0.8470 0.1102
C59_3 C 0.8240(5) 0.79492(15) 0.08420(9)
C60_3 C 0.9121(5) 0.78530(14) 0.07063(9)
H29_3 H 0.9920 0.7891 0.0740
C61_3 C 0.8808(4) 0.76992(14) 0.05203(8)
C62_3 C 0.7659(4) 0.76519(13) 0.04645(8)
H30_3 H 0.7460 0.7550 0.0335
C63_3 C 0.6801(4) 0.77569(13) 0.06018(8)
C64_3 C 0.7065(5) 0.79052(14) 0.07929(9)
H31_3 H 0.6465 0.7974 0.0886
C65_3 C 0.4649(4) 0.78918(14) 0.06098(9)
H32_3 H 0.4668 0.8091 0.0688
C66_3 C 0.3696(5) 0.77381(14) 0.05320(8)
H33_3 H 0.2914 0.7815 0.0546
C67_3 C 0.5183(4) 0.74346(13) 0.04421(8)
H34_3 H 0.5651 0.7264 0.0384
C68_3 C 0.9712(4) 0.75626(13) 0.01707(8)
H35_3 H 0.9115 0.7636 0.0078
N20_3 N 0.8573(4) 0.44279(14) 0.14596(8)
N21_3 N 0.5600(4) 0.48035(11) 0.19490(7)
N23_3 N 0.9713(4) 0.49190(11) 0.21125(7)
C94_3 C 0.9528(7) 0.4371(2) 0.11652(12)
C95_3 C 0.9492(8) 0.4554(2) 0.13432(12)
H54_3 H 0.9994 0.4732 0.1380
C96_3 C 0.8153(6) 0.41678(17) 0.13514(9)
H55_3 H 0.7532 0.4030 0.1398
C97_3 C 0.8240(5) 0.45508(15) 0.16580(9)
C98_3 C 0.9121(5) 0.46470(14) 0.17937(9)
H56_3 H 0.9920 0.4609 0.1760
C99_3 C 0.8808(4) 0.48008(14) 0.19797(8)
C100_3 C 0.7659(4) 0.48481(13) 0.20355(8)
H57_3 H 0.7460 0.4950 0.2165
C101_3 C 0.6801(4) 0.47431(13) 0.18982(8)
C102_3 C 0.7065(5) 0.45948(14) 0.17071(9)
H58_3 H 0.6465 0.4526 0.1614
C103_3 C 0.4649(4) 0.46082(14) 0.18902(9)
H59_3 H 0.4668 0.4409 0.1812
C104_3 C 0.3696(5) 0.47619(14) 0.19680(8)
H60_3 H 0.2914 0.4685 0.1954
C105_3 C 0.5183(4) 0.50654(13) 0.20579(8)
H61_3 H 0.5651 0.5236 0.2116
C106_3 C 0.9712(4) 0.49374(13) 0.23293(8)
H62_3 H 0.9115 0.4864 0.2422
O27_3 O 0.8087(5) 0.68316(11) 0.23441(7)
O28_3 O 0.8087(5) 0.56684(11) 0.01559(7)
O31_3 O 0.9756(5) 0.69367(12) 0.24969(8)
O32_3 O 0.9756(5) 0.55633(12) 0.00031(8)
O5_4 O 0.0099(4) 0.04320(10) 0.57662(6)
N4_4 N 0.8469(3) 0.00495(11) 0.54282(6)
N6_4 N 0.1127(4) 0.01541(11) 0.52973(6)
C20_4 C 0.7317(4) 0.00654(13) 0.54421(8)
H12_4 H 0.6849 0.0236 0.5384
C22_4 C 0.1765(4) 0.00514(14) 0.54559(8)
H14_4 H 0.1541 0.0068 0.5599
C23_4 C 0.1761(4) 0.00824(13) 0.51181(8)
H15_3 H 0.1513 0.0128 0.4979
C24_4 C 0.0231(5) 0.07075(13) 0.56839(8)
C25_4 C 0.1250 0.1250 0.56972(11)
C26_4 C 0.0762(5) 0.09861(12) 0.58068(7)
C27_4 C 0.0787(5) 0.09835(12) 0.60227(7)
H16_4 H 0.0486 0.0798 0.6096
C28_4 C 0.1250 0.1250 0.61339(10)
O11_4 O 0.2401(4) 0.20680(10) 0.57662(6)
O12_4 O 0.2536(4) 0.17251(10) 0.54954(5)
C37_4 C 0.2269(5) 0.17925(13) 0.56839(8)
C38_4 C 0.1738(5) 0.15139(12) 0.58068(7)
C39_4 C 0.1713(5) 0.15165(12) 0.60227(7)
H20_4 H 0.2014 0.1702 0.6096
O13_4 O 0.0099(4) 0.20680(10) 0.67338(6)
C40_4 C 0.0231(5) 0.17925(13) 0.68161(8)
C41_4 C 0.1250 0.1250 0.68028(11)
C42_4 C 0.0762(5) 0.15139(12) 0.66932(7)
C43_4 C 0.0787(5) 0.15165(12) 0.64773(7)
H21_4 H 0.0486 0.1702 0.6404
C44_4 C 0.1250 0.1250 0.63661(10)
O15_4 O 0.2401(4) 0.04320(10) 0.67338(6)
O16_4 O 0.2536(4) 0.07749(10) 0.70046(5)
C45_4 C 0.2269(5) 0.07075(13) 0.68161(8)
C46_4 C 0.1738(5) 0.09861(12) 0.66932(7)
C47_4 C 0.1713(5) 0.09835(12) 0.64773(7)
H22_4 H 0.2014 0.0798 0.6404
Zn3_4 Zn 0.29358(5) 0.20998(2) 0.53145(2)
N12_4 N 0.1373(4) 0.23459(11) 0.52973(6)
H26_4 H 0.0050 0.3092 0.6448
C69_4 C 0.0735(4) 0.24486(14) 0.54559(8)
H36_4 H 0.0959 0.2432 0.5599
C70_4 C 0.0739(4) 0.24176(13) 0.51181(8)
H37_3 H 0.0987 0.2372 0.4979
N14_4 N 0.3927(4) 0.30721(14) 0.64596(8)
N15_4 N 0.6900(4) 0.26965(11) 0.69490(7)
N16_4 N 0.8469(3) 0.24505(11) 0.70718(6)
N17_4 N 0.2787(4) 0.25810(11) 0.71125(7)
N18_4 N 0.1127(4) 0.23459(11) 0.72027(6)
C79_4 C 0.2972(7) 0.3129(2) 0.61652(12)
H41_4 H 0.2450 0.3092 0.6052
C80_4 C 0.3008(8) 0.2946(2) 0.63432(12)
H42_4 H 0.2506 0.2768 0.6380
C81_4 C 0.4347(6) 0.33322(17) 0.63514(9)
H43_4 H 0.4968 0.3470 0.6398
C82_4 C 0.4260(5) 0.29492(15) 0.66580(9)
C83_4 C 0.3379(5) 0.28530(14) 0.67937(9)
H44_4 H 0.2580 0.2891 0.6760
C84_4 C 0.3692(4) 0.26992(14) 0.69797(8)
C85_4 C 0.4841(4) 0.26519(13) 0.70355(8)
H45_4 H 0.5040 0.2550 0.7165
C86_4 C 0.5699(4) 0.27569(13) 0.68982(8)
C87_4 C 0.5435(5) 0.29052(14) 0.67071(9)
H46_4 H 0.6035 0.2974 0.6614
C88_4 C 0.7851(4) 0.28918(14) 0.68902(9)
H47_4 H 0.7832 0.3091 0.6812
C89_4 C 0.8804(5) 0.27381(14) 0.69680(8)
H48_4 H 0.9586 0.2815 0.6954
C90_4 C 0.7317(4) 0.24346(13) 0.70579(8)
H49_4 H 0.6849 0.2264 0.7116
C91_4 C 0.2788(4) 0.25626(13) 0.73293(8)
H50_4 H 0.3385 0.2636 0.7422
C92_4 C 0.1765(4) 0.24486(14) 0.70441(8)
H51_4 H 0.1541 0.2432 0.6901
C93_4 C 0.1761(4) 0.24176(13) 0.73819(8)
H52_4 H 0.1513 0.2372 0.7521
Zn6_4 Zn 0.29358(5) 0.04002(2) 0.71855(2)
N24_4 N 0.1373(4) 0.01541(11) 0.72027(6)
C107_4 C 0.0735(4) 0.00514(14) 0.70441(8)
H63_4 H 0.0959 0.0068 0.6901
C108_4 C 0.0739(4) 0.00824(13) 0.73819(8)
H64_4 H 0.0987 0.0128 0.7521
Zn7_4 Zn 0.95642(5) 0.04002(2) 0.53145(2)
Zn9_4 Zn 0.95642(5) 0.20998(2) 0.71855(2)
O25_4 O 0.4413(5) 0.18316(11) 0.51559(7)
O26_4 O 0.4413(5) 0.06684(11) 0.73441(7)
O29_4 O 0.2744(5) 0.19367(12) 0.50031(8)
O30_4 O 0.2744(5) 0.05633(12) 0.74969(8)
N28_4 N 0.4031(3) 0.24505(11) 0.54282(6)
N30_4 N 0.4031(3) 0.00495(11) 0.70718(6)
H65_4 H 0.125 0.125 0.552678
H66_4 H 0.125 0.125 0.697322
N2_4 N 0.3927(4) 0.94279(14) 0.60404(8)
N3_4 N 0.6900(4) 0.98035(11) 0.55510(7)
N5_4 N 0.2787(4) 0.99190(11) 0.53875(7)
C9_4 C 0.2972(7) 0.9371(2) 0.63348(12)
H4_4 H 0.2450 0.9408 0.6448
C10_4 C 0.3008(8) 0.9554(2) 0.61568(12)
H5_4 H 0.2506 0.9732 0.6120
C11_4 C 0.4347(6) 0.91678(17) 0.61486(9)
H6_4 H 0.4968 0.9030 0.6102
C12_4 C 0.4260(5) 0.95508(15) 0.58420(9)
C13_4 C 0.3379(5) 0.96470(14) 0.57063(9)
H7_4 H 0.2580 0.9609 0.5740
C14_4 C 0.3692(4) 0.98008(14) 0.55203(8)
C15_4 C 0.4841(4) 0.98481(13) 0.54645(8)
H8_4 H 0.5040 0.9950 0.5335
C16_4 C 0.5699(4) 0.97431(13) 0.56018(8)
C17_4 C 0.5435(5) 0.95948(14) 0.57929(9)
H9_4 H 0.6035 0.9526 0.5886
C18_4 C 0.7851(4) 0.96082(14) 0.56098(9)
H10_4 H 0.7832 0.9409 0.5688
C19_4 C 0.8804(5) 0.97619(14) 0.55320(8)
H11_4 H 0.9586 0.9685 0.5546
C21_4 C 0.2788(4) 0.99374(13) 0.51707(8)
H13_4 H 0.3385 0.9864 0.5078
H53_4 H 0.0050 0.9408 0.6052
O6_4 O 0.9964(4) 0.07749(10) 0.54954(5)
O14_4 O 0.9964(4) 0.17251(10) 0.70046(5)
N8_4 N 0.8573(4) 0.30721(14) 0.60404(8)
N9_4 N 0.5600(4) 0.26965(11) 0.55510(7)
N11_4 N 0.9713(4) 0.25810(11) 0.53875(7)
C56_4 C 0.9528(7) 0.3129(2) 0.63348(12)
C57_4 C 0.9492(8) 0.2946(2) 0.61568(12)
H27_4 H 0.9994 0.2768 0.6120
C58_4 C 0.8153(6) 0.33322(17) 0.61486(9)
H28_4 H 0.7532 0.3470 0.6102
C59_4 C 0.8240(5) 0.29492(15) 0.58420(9)
C60_4 C 0.9121(5) 0.28530(14) 0.57063(9)
H29_4 H 0.9920 0.2891 0.5740
C61_4 C 0.8808(4) 0.26992(14) 0.55203(8)
C62_4 C 0.7659(4) 0.26519(13) 0.54645(8)
H30_4 H 0.7460 0.2550 0.5335
C63_4 C 0.6801(4) 0.27569(13) 0.56018(8)
C64_4 C 0.7065(5) 0.29052(14) 0.57929(9)
H31_4 H 0.6465 0.2974 0.5886
C65_4 C 0.4649(4) 0.28918(14) 0.56098(9)
H32_4 H 0.4668 0.3091 0.5688
C66_4 C 0.3696(5) 0.27381(14) 0.55320(8)
H33_4 H 0.2914 0.2815 0.5546
C67_4 C 0.5183(4) 0.24346(13) 0.54421(8)
H34_4 H 0.5651 0.2264 0.5384
C68_4 C 0.9712(4) 0.25626(13) 0.51707(8)
H35_4 H 0.9115 0.2636 0.5078
C105_4 C 0.5183(4) 0.00654(13) 0.70579(8)
H61_4 H 0.5651 0.0236 0.7116
O27_4 O 0.8087(5) 0.18316(11) 0.73441(7)
O28_4 O 0.8087(5) 0.06684(11) 0.51559(7)
O31_4 O 0.9756(5) 0.19367(12) 0.74969(8)
O32_4 O 0.9756(5) 0.05633(12) 0.50031(8)
N20_4 N 0.8573(4) 0.94279(14) 0.64596(8)
N21_4 N 0.5600(4) 0.98035(11) 0.69490(7)
N23_4 N 0.9713(4) 0.99190(11) 0.71125(7)
C94_4 C 0.9528(7) 0.9371(2) 0.61652(12)
C95_4 C 0.9492(8) 0.9554(2) 0.63432(12)
H54_4 H 0.9994 0.9732 0.6380
C96_4 C 0.8153(6) 0.91678(17) 0.63514(9)
H55_4 H 0.7532 0.9030 0.6398
C97_4 C 0.8240(5) 0.95508(15) 0.66580(9)
C98_4 C 0.9121(5) 0.96470(14) 0.67937(9)
H56_4 H 0.9920 0.9609 0.6760
C99_4 C 0.8808(4) 0.98008(14) 0.69797(8)
C100_4 C 0.7659(4) 0.98481(13) 0.70355(8)
H57_4 H 0.7460 0.9950 0.7165
C101_4 C 0.6801(4) 0.97431(13) 0.68982(8)
C102_4 C 0.7065(5) 0.95948(14) 0.67071(9)
H58_4 H 0.6465 0.9526 0.6614
C103_4 C 0.4649(4) 0.96082(14) 0.68902(9)
H59_4 H 0.4668 0.9409 0.6812
C104_4 C 0.3696(5) 0.97619(14) 0.69680(8)
H60_4 H 0.2914 0.9685 0.6954
C106_4 C 0.9712(4) 0.99374(13) 0.73293(8)
H62_4 H 0.9115 0.9864 0.7422
N10 N 0.0969(3) 0.25495(11) 0.45718(6)
C50_5 C 0.0254(5) 0.10021(12) 0.26966(8)
H23_5 H 0.0749 0.0978 0.2578
C51_5 C 0.0657(4) 0.11754(11) 0.28723(7)
H24_5 H 0.0193 0.1329 0.3164
C65_5 C 0.0351(4) 0.21082(14) 0.43902(9)
H32_5 H 0.0332 0.1909 0.4312
C66_5 C 0.1304(5) 0.22619(14) 0.44680(8)
H33_5 H 0.2086 0.2185 0.4454
O23 O 0.5439(4) 0.15362(17) 0.32310(8)
O24 O 0.4275(4) 0.11520(13) 0.33554(8)
C71_5 C 0.3742(6) 0.18144(14) 0.24956(11)
C72_5 C 0.3353(5) 0.16330(13) 0.26938(9)
C73_5 C 0.2246(5) 0.14979(12) 0.26966(8)
H38_5 H 0.1751 0.1522 0.2578
C74_5 C 0.1843(4) 0.13246(11) 0.28723(7)
C75_5 C 0.2573(5) 0.12877(13) 0.30443(8)
H39_5 H 0.2307 0.1171 0.3164
C76_5 C 0.3701(4) 0.14222(14) 0.30403(9)
C77_5 C 0.4092(5) 0.15941(15) 0.28659(10)
H40_5 H 0.4858 0.1685 0.2864
C78_5 C 0.4504(5) 0.1366(2) 0.32225(12)
N22 N 0.0969(3) 0.49505(11) 0.29282(6)
C103_5 C 0.0351(4) 0.53918(14) 0.31098(9)
H59_5 H 0.0332 0.5591 0.3188
C104_5 C 0.1304(5) 0.52381(14) 0.30320(8)
H60_5 H 0.2086 0.5315 0.3046
Zn16 Zn 0.6250 0.1250 0.34660(2)
Zn2 Zn 0.1250 0.6250 0.34660(2)
O3_5 O 0.0439(4) 0.65362(17) 0.32310(8)
O5_5 O 0.4901(4) 0.45680(10) 0.42338(6)
O6_5 O 0.5036(4) 0.42251(10) 0.45046(5)
N1_3 N 0.1219(5) 0.58698(14) 0.36724(8)
N2_5 N 0.1073(4) 0.55721(14) 0.39596(8)
N5_5 N 0.2213(4) 0.50810(11) 0.46125(7)
N6_5 N 0.3873(4) 0.48459(11) 0.47027(6)
C9_5 C 0.2028(7) 0.5629(2) 0.36652(12)
H4_5 H 0.2550 0.5592 0.3552
C10_5 C 0.1992(8) 0.5446(2) 0.38432(12)
H5_5 H 0.2494 0.5268 0.3880
C11_5 C 0.0653(6) 0.58322(17) 0.38514(9)
H6_5 H 0.0032 0.5970 0.3898
C12_5 C 0.0740(5) 0.54492(15) 0.41580(9)
C13_5 C 0.1621(5) 0.53530(14) 0.42937(9)
H7_5 H 0.2420 0.5391 0.4260
C14_5 C 0.1308(4) 0.51992(14) 0.44797(8)
C15_5 C 0.0159(4) 0.51519(13) 0.45355(8)
C21_5 C 0.2212(4) 0.50626(13) 0.48293(8)
H13_5 H 0.1615 0.5136 0.4922
C22_5 C 0.3235(4) 0.49486(14) 0.45441(8)
H14_5 H 0.3459 0.4932 0.4401
C23_5 C 0.3239(4) 0.49176(13) 0.48819(8)
H15_4 H 0.3487 0.4872 0.5021
C24_5 C 0.4769(5) 0.42925(13) 0.43161(8)
C25_5 C 0.3750 0.3750 0.43028(11)
C26_5 C 0.4238(5) 0.40139(12) 0.41932(7)
C27_5 C 0.4213(5) 0.40165(12) 0.39773(7)
H16_5 H 0.4514 0.4202 0.3904
C28_5 C 0.3750 0.3750 0.38661(10)
O11_5 O 0.2599(4) 0.29320(10) 0.42338(6)
O12_5 O 0.2464(4) 0.32749(10) 0.45046(5)
C37_5 C 0.2731(5) 0.32075(13) 0.43161(8)
C38_5 C 0.3262(5) 0.34861(12) 0.41932(7)
C39_5 C 0.3287(5) 0.34835(12) 0.39773(7)
H20_5 H 0.2986 0.3298 0.3904
O13_5 O 0.4901(4) 0.29320(10) 0.32662(6)
O14_5 O 0.5036(4) 0.32749(10) 0.29954(5)
C40_5 C 0.4769(5) 0.32075(13) 0.31839(8)
C41_5 C 0.3750 0.3750 0.31972(11)
C42_5 C 0.4238(5) 0.34861(12) 0.33068(7)
C43_5 C 0.4213(5) 0.34835(12) 0.35227(7)
H21_5 H 0.4514 0.3298 0.3596
C44_5 C 0.3750 0.3750 0.36339(10)
O15_5 O 0.2599(4) 0.45680(10) 0.32662(6)
O16_5 O 0.2464(4) 0.42251(10) 0.29954(5)
C45_5 C 0.2731(5) 0.42925(13) 0.31839(8)
C46_5 C 0.3262(5) 0.40139(12) 0.33068(7)
C47_5 C 0.3287(5) 0.40165(12) 0.35227(7)
H22_5 H 0.2986 0.4202 0.3596
O19_5 O 0.7061(4) 0.09638(17) 0.32310(8)
O20_5 O 0.8225(4) 0.13480(13) 0.33554(8)
N7_3 N 0.6281(5) 0.16302(14) 0.36724(8)
N8_5 N 0.6427(4) 0.19279(14) 0.39596(8)
N9_5 N 0.9400(4) 0.23035(11) 0.44490(7)
N11_5 N 0.5287(4) 0.24190(11) 0.46125(7)
N12_5 N 0.3627(4) 0.26541(11) 0.47027(6)
C48_5 C 0.8758(6) 0.06856(14) 0.24956(11)
C49_5 C 0.9147(5) 0.08670(13) 0.26938(9)
C52_5 C 0.9927(5) 0.12123(13) 0.30443(8)
C53_5 C 0.8799(4) 0.10778(14) 0.30403(9)
C54_5 C 0.8408(5) 0.09059(15) 0.28659(10)
H25_5 H 0.7642 0.0815 0.2864
C55_5 C 0.7996(5) 0.1134(2) 0.32225(12)
C56_5 C 0.5472(7) 0.1871(2) 0.36652(12)
H26_5 H 0.4950 0.1908 0.3552
C57_5 C 0.5508(8) 0.2054(2) 0.38432(12)
H27_5 H 0.5006 0.2232 0.3880
C58_5 C 0.6847(6) 0.16678(17) 0.38514(9)
H28_5 H 0.7468 0.1530 0.3898
C59_5 C 0.6760(5) 0.20508(15) 0.41580(9)
C60_5 C 0.5879(5) 0.21470(14) 0.42937(9)
H29_5 H 0.5080 0.2109 0.4260
C61_5 C 0.6192(4) 0.23008(14) 0.44797(8)
C62_5 C 0.7341(4) 0.23481(13) 0.45355(8)
H30_5 H 0.7540 0.2450 0.4665
C63_5 C 0.8199(4) 0.22431(13) 0.43982(8)
C64_5 C 0.7935(5) 0.20948(14) 0.42071(9)
H31_5 H 0.8535 0.2026 0.4114
C67_5 C 0.9817(4) 0.25654(13) 0.45579(8)
H34_5 H 0.9349 0.2736 0.4616
C68_5 C 0.5288(4) 0.24374(13) 0.48293(8)
H35_5 H 0.5885 0.2364 0.4922
C69_5 C 0.4265(4) 0.25514(14) 0.45441(8)
H36_5 H 0.4041 0.2568 0.4401
C70_5 C 0.4261(4) 0.25824(13) 0.48819(8)
H37_4 H 0.4013 0.2628 0.5021
N13_3 N 0.1219(5) 0.16302(14) 0.38276(8)
N14_5 N 0.1073(4) 0.19279(14) 0.35404(8)
N17_5 N 0.2213(4) 0.24190(11) 0.28875(7)
N18_5 N 0.3873(4) 0.26541(11) 0.27973(6)
C79_5 C 0.2028(7) 0.1871(2) 0.38348(12)
H41_5 H 0.2550 0.1908 0.3948
C80_5 C 0.1992(8) 0.2054(2) 0.36568(12)
H42_5 H 0.2494 0.2232 0.3620
C81_5 C 0.0653(6) 0.16678(17) 0.36486(9)
H43_5 H 0.0032 0.1530 0.3602
C82_5 C 0.0740(5) 0.20508(15) 0.33420(9)
C83_5 C 0.1621(5) 0.21470(14) 0.32063(9)
H44_5 H 0.2420 0.2109 0.3240
C84_5 C 0.1308(4) 0.23008(14) 0.30203(8)
C85_5 C 0.0159(4) 0.23481(13) 0.29645(8)
C91_5 C 0.2212(4) 0.24374(13) 0.26707(8)
H50_5 H 0.1615 0.2364 0.2578
C92_5 C 0.3235(4) 0.25514(14) 0.29559(8)
H51_5 H 0.3459 0.2568 0.3099
C93_5 C 0.3239(4) 0.25824(13) 0.26181(8)
H52_5 H 0.3487 0.2628 0.2479
N19_3 N 0.6281(5) 0.58698(14) 0.38276(8)
N20_5 N 0.6427(4) 0.55721(14) 0.35404(8)
N21_5 N 0.9400(4) 0.51965(11) 0.30510(7)
N23_5 N 0.5287(4) 0.50810(11) 0.28875(7)
N24_5 N 0.3627(4) 0.48459(11) 0.27973(6)
C94_5 C 0.5472(7) 0.5629(2) 0.38348(12)
H53_5 H 0.4950 0.5592 0.3948
C95_5 C 0.5508(8) 0.5446(2) 0.36568(12)
H54_5 H 0.5006 0.5268 0.3620
C96_5 C 0.6847(6) 0.58322(17) 0.36486(9)
H55_5 H 0.7468 0.5970 0.3602
C97_5 C 0.6760(5) 0.54492(15) 0.33420(9)
C98_5 C 0.5879(5) 0.53530(14) 0.32063(9)
H56_5 H 0.5080 0.5391 0.3240
C99_5 C 0.6192(4) 0.51992(14) 0.30203(8)
C100_5 C 0.7341(4) 0.51519(13) 0.29645(8)
H57_5 H 0.7540 0.5050 0.2835
C101_5 C 0.8199(4) 0.52569(13) 0.31018(8)
C102_5 C 0.7935(5) 0.54052(14) 0.32929(9)
H58_5 H 0.8535 0.5474 0.3386
C105_5 C 0.9817(4) 0.49346(13) 0.29421(8)
H61_5 H 0.9349 0.4764 0.2884
C106_5 C 0.5288(4) 0.50626(13) 0.26707(8)
H62_5 H 0.5885 0.5136 0.2578
C107_5 C 0.4265(4) 0.49486(14) 0.29559(8)
H63_5 H 0.4041 0.4932 0.3099
C108_5 C 0.4261(4) 0.49176(13) 0.26181(8)
H64_5 H 0.4013 0.4872 0.2479
Zn17_3 Zn 0.1250 0.1250 0.40340(2)
Zn18_3 Zn 0.6250 0.6250 0.40340(2)
O34 O 0.2061(4) 0.59638(17) 0.32310(8)
O36 O 0.3225(4) 0.63480(13) 0.33554(8)
N25_5 N 0.6219(5) 0.08698(14) 0.36724(8)
N26_5 N 0.1281(5) 0.66302(14) 0.36724(8)
N27 N 0.6531(3) 0.49505(11) 0.45718(6)
N29 N 0.6531(3) 0.25495(11) 0.29282(6)
H65_5 H 0.375 0.375 0.447322
H66_5 H 0.375 0.375 0.302678
O4_5 O 0.9275(4) 0.61520(13) 0.33554(8)
N3_5 N 0.8100(4) 0.51965(11) 0.44490(7)
C1_5 C 0.8742(6) 0.68144(14) 0.24956(11)
C2_5 C 0.8353(5) 0.66330(13) 0.26938(9)
C3_5 C 0.7246(5) 0.64979(12) 0.26966(8)
H1_5 H 0.6751 0.6522 0.2578
C4_5 C 0.6843(4) 0.63246(11) 0.28723(7)
C5_5 C 0.7573(5) 0.62877(13) 0.30443(8)
H2_5 H 0.7307 0.6171 0.3164
C6_5 C 0.8701(4) 0.64222(14) 0.30403(9)
C7_5 C 0.9092(5) 0.65941(15) 0.28659(10)
H3_5 H 0.9858 0.6685 0.2864
C8_5 C 0.9504(5) 0.6366(2) 0.32225(12)
H8_5 H 0.9960 0.5050 0.4665
C16_5 C 0.9301(4) 0.52569(13) 0.43982(8)
C17_5 C 0.9565(5) 0.54052(14) 0.42071(9)
H9_5 H 0.8965 0.5474 0.4114
C18_5 C 0.7149(4) 0.53918(14) 0.43902(9)
H10_5 H 0.7168 0.5591 0.4312
C19_5 C 0.6196(5) 0.52381(14) 0.44680(8)
H11_5 H 0.5414 0.5315 0.4454
C20_5 C 0.7683(4) 0.49346(13) 0.45579(8)
H12_5 H 0.8151 0.4764 0.4616
C29_5 C 0.3758(6) 0.56856(14) 0.24956(11)
C30_5 C 0.4147(5) 0.58670(13) 0.26938(9)
C31_5 C 0.5254(5) 0.60021(12) 0.26966(8)
H17_5 H 0.5749 0.5978 0.2578
C32_5 C 0.5657(4) 0.61754(11) 0.28723(7)
C33_5 C 0.4927(5) 0.62123(13) 0.30443(8)
H18_5 H 0.5193 0.6329 0.3164
C34_5 C 0.3799(4) 0.60778(14) 0.30403(9)
C35_5 C 0.3408(5) 0.59059(15) 0.28659(10)
H19_5 H 0.2642 0.5815 0.2864
C36_5 C 0.2996(5) 0.6134(2) 0.32225(12)
N15_5 N 0.8100(4) 0.23035(11) 0.30510(7)
H45_5 H 0.9960 0.2450 0.2835
C86_5 C 0.9301(4) 0.22431(13) 0.31018(8)
C87_5 C 0.9565(5) 0.20948(14) 0.32929(9)
H46_5 H 0.8965 0.2026 0.3386
C88_5 C 0.7149(4) 0.21082(14) 0.31098(9)
H47_5 H 0.7168 0.1909 0.3188
C89_5 C 0.6196(5) 0.22619(14) 0.30320(8)
H48_5 H 0.5414 0.2185 0.3046
C90_5 C 0.7683(4) 0.25654(13) 0.29421(8)
H49_5 H 0.8151 0.2736 0.2884
C50_6 C 0.0254(5) 0.64979(12) 0.48034(8)
H23_6 H 0.0749 0.6522 0.4922
C51_6 C 0.0657(4) 0.63246(11) 0.46277(7)
H24_6 H 0.0193 0.6171 0.4336
O23_2 O 0.5439(4) 0.59638(17) 0.42690(8)
O24_2 O 0.4275(4) 0.63480(13) 0.41446(8)
C71_6 C 0.3742(6) 0.56856(14) 0.50044(11)
C72_6 C 0.3353(5) 0.58670(13) 0.48062(9)
C73_6 C 0.2246(5) 0.60021(12) 0.48034(8)
H38_6 H 0.1751 0.5978 0.4922
C74_6 C 0.1843(4) 0.61754(11) 0.46277(7)
C75_6 C 0.2573(5) 0.62123(13) 0.44557(8)
H39_6 H 0.2307 0.6329 0.4336
C76_6 C 0.3701(4) 0.60778(14) 0.44597(9)
C77_6 C 0.4092(5) 0.59059(15) 0.46341(10)
H40_6 H 0.4858 0.5815 0.4636
C78_6 C 0.4504(5) 0.6134(2) 0.42775(12)
O3_6 O 0.0439(4) 0.09638(17) 0.42690(8)
O19_6 O 0.7061(4) 0.65362(17) 0.42690(8)
O20_6 O 0.8225(4) 0.61520(13) 0.41446(8)
C48_6 C 0.8758(6) 0.68144(14) 0.50044(11)
C49_6 C 0.9147(5) 0.66330(13) 0.48062(9)
C52_6 C 0.9927(5) 0.62877(13) 0.44557(8)
C53_6 C 0.8799(4) 0.64222(14) 0.44597(9)
C54_6 C 0.8408(5) 0.65941(15) 0.46341(10)
H25_6 H 0.7642 0.6685 0.4636
C55_6 C 0.7996(5) 0.6366(2) 0.42775(12)
O34_2 O 0.2061(4) 0.15362(17) 0.42690(8)
O36_2 O 0.3225(4) 0.11520(13) 0.41446(8)
N25_6 N 0.6219(5) 0.66302(14) 0.38276(8)
N26_6 N 0.1281(5) 0.08698(14) 0.38276(8)
O4_6 O 0.9275(4) 0.13480(13) 0.41446(8)
C1_6 C 0.8742(6) 0.06856(14) 0.50044(11)
C2_6 C 0.8353(5) 0.08670(13) 0.48062(9)
C3_6 C 0.7246(5) 0.10021(12) 0.48034(8)
H1_6 H 0.6751 0.0978 0.4922
C4_6 C 0.6843(4) 0.11754(11) 0.46277(7)
C5_6 C 0.7573(5) 0.12123(13) 0.44557(8)
H2_6 H 0.7307 0.1329 0.4336
C6_6 C 0.8701(4) 0.10778(14) 0.44597(9)
C7_6 C 0.9092(5) 0.09059(15) 0.46341(10)
H3_6 H 0.9858 0.0815 0.4636
C8_6 C 0.9504(5) 0.1134(2) 0.42775(12)
C29_6 C 0.3758(6) 0.18144(14) 0.50044(11)
C30_6 C 0.4147(5) 0.16330(13) 0.48062(9)
C31_6 C 0.5254(5) 0.14979(12) 0.48034(8)
H17_6 H 0.5749 0.1522 0.4922
C32_6 C 0.5657(4) 0.13246(11) 0.46277(7)
C33_6 C 0.4927(5) 0.12877(13) 0.44557(8)
H18_6 H 0.5193 0.1171 0.4336
C34_6 C 0.3799(4) 0.14222(14) 0.44597(9)
C35_6 C 0.3408(5) 0.15941(15) 0.46341(10)
H19_6 H 0.2642 0.1685 0.4636
C36_6 C 0.2996(5) 0.1366(2) 0.42775(12)
C103_6 C 0.0351(4) 0.03918(14) 0.81098(9)
H59_6 H 0.0332 0.0591 0.8188
C104_6 C 0.1304(5) 0.02381(14) 0.80320(8)
H60_6 H 0.2086 0.0315 0.8046
N10_2 N 0.0969(3) 0.75495(11) 0.95718(6)
C50_7 C 0.0254(5) 0.60021(12) 0.76966(8)
H23_7 H 0.0749 0.5978 0.7578
C51_7 C 0.0657(4) 0.61754(11) 0.78723(7)
H24_7 H 0.0193 0.6329 0.8164
C65_6 C 0.0351(4) 0.71082(14) 0.93902(9)
H32_6 H 0.0332 0.6909 0.9312
C66_6 C 0.1304(5) 0.72619(14) 0.94680(8)
H33_6 H 0.2086 0.7185 0.9454
O23_3 O 0.5439(4) 0.65362(17) 0.82310(8)
O24_3 O 0.4275(4) 0.61520(13) 0.83554(8)
C71_7 C 0.3742(6) 0.68144(14) 0.74956(11)
C72_7 C 0.3353(5) 0.66330(13) 0.76938(9)
C73_7 C 0.2246(5) 0.64979(12) 0.76966(8)
H38_7 H 0.1751 0.6522 0.7578
C74_7 C 0.1843(4) 0.63246(11) 0.78723(7)
C75_7 C 0.2573(5) 0.62877(13) 0.80443(8)
H39_7 H 0.2307 0.6171 0.8164
C76_7 C 0.3701(4) 0.64222(14) 0.80403(9)
C77_7 C 0.4092(5) 0.65941(15) 0.78659(10)
H40_7 H 0.4858 0.6685 0.7864
C78_7 C 0.4504(5) 0.6366(2) 0.82225(12)
N22_2 N 0.0969(3) 0.99505(11) 0.79282(6)
Zn16_2 Zn 0.6250 0.6250 0.84660(2)
Zn2_2 Zn 0.1250 0.1250 0.84660(2)
O3_7 O 0.0439(4) 0.15362(17) 0.82310(8)
N1_4 N 0.1219(5) 0.08698(14) 0.86724(8)
N2_6 N 0.1073(4) 0.05721(14) 0.89596(8)
N5_6 N 0.2213(4) 0.00810(11) 0.96125(7)
C9_6 C 0.2028(7) 0.0629(2) 0.86652(12)
H4_6 H 0.2550 0.0592 0.8552
C10_6 C 0.1992(8) 0.0446(2) 0.88432(12)
H5_6 H 0.2494 0.0268 0.8880
C11_6 C 0.0653(6) 0.08322(17) 0.88514(9)
H6_6 H 0.0032 0.0970 0.8898
C12_6 C 0.0740(5) 0.04492(15) 0.91580(9)
C13_6 C 0.1621(5) 0.03530(14) 0.92937(9)
H7_6 H 0.2420 0.0391 0.9260
C14_6 C 0.1308(4) 0.01992(14) 0.94797(8)
C15_6 C 0.0159(4) 0.01519(13) 0.95355(8)
C21_6 C 0.2212(4) 0.00626(13) 0.98293(8)
H13_6 H 0.1615 0.0136 0.9922
N19_4 N 0.6281(5) 0.08698(14) 0.88276(8)
N20_6 N 0.6427(4) 0.05721(14) 0.85404(8)
N21_6 N 0.9400(4) 0.01965(11) 0.80510(7)
N23_6 N 0.5287(4) 0.00810(11) 0.78875(7)
C94_6 C 0.5472(7) 0.0629(2) 0.88348(12)
H53_6 H 0.4950 0.0592 0.8948
C95_6 C 0.5508(8) 0.0446(2) 0.86568(12)
H54_6 H 0.5006 0.0268 0.8620
C96_6 C 0.6847(6) 0.08322(17) 0.86486(9)
H55_6 H 0.7468 0.0970 0.8602
C97_6 C 0.6760(5) 0.04492(15) 0.83420(9)
C98_6 C 0.5879(5) 0.03530(14) 0.82063(9)
H56_6 H 0.5080 0.0391 0.8240
C99_6 C 0.6192(4) 0.01992(14) 0.80203(8)
C100_6 C 0.7341(4) 0.01519(13) 0.79645(8)
H57_6 H 0.7540 0.0050 0.7835
C101_6 C 0.8199(4) 0.02569(13) 0.81018(8)
C102_6 C 0.7935(5) 0.04052(14) 0.82929(9)
H58_6 H 0.8535 0.0474 0.8386
C106_6 C 0.5288(4) 0.00626(13) 0.76707(8)
H62_6 H 0.5885 0.0136 0.7578
Zn18_4 Zn 0.6250 0.1250 0.90340(2)
O34_3 O 0.2061(4) 0.09638(17) 0.82310(8)
O36_3 O 0.3225(4) 0.13480(13) 0.83554(8)
N26_7 N 0.1281(5) 0.16302(14) 0.86724(8)
O5_6 O 0.4901(4) 0.95680(10) 0.92338(6)
O6_6 O 0.5036(4) 0.92251(10) 0.95046(5)
N6_6 N 0.3873(4) 0.98459(11) 0.97027(6)
C22_6 C 0.3235(4) 0.99486(14) 0.95441(8)
H14_6 H 0.3459 0.9932 0.9401
C23_6 C 0.3239(4) 0.99176(13) 0.98819(8)
C24_6 C 0.4769(5) 0.92925(13) 0.93161(8)
C25_6 C 0.3750 0.8750 0.93028(11)
C26_6 C 0.4238(5) 0.90139(12) 0.91932(7)
C27_6 C 0.4213(5) 0.90165(12) 0.89773(7)
H16_6 H 0.4514 0.9202 0.8904
C28_6 C 0.3750 0.8750 0.88661(10)
O11_6 O 0.2599(4) 0.79320(10) 0.92338(6)
O12_6 O 0.2464(4) 0.82749(10) 0.95046(5)
C37_6 C 0.2731(5) 0.82075(13) 0.93161(8)
C38_6 C 0.3262(5) 0.84861(12) 0.91932(7)
C39_6 C 0.3287(5) 0.84835(12) 0.89773(7)
H20_6 H 0.2986 0.8298 0.8904
O13_6 O 0.4901(4) 0.79320(10) 0.82662(6)
O14_6 O 0.5036(4) 0.82749(10) 0.79954(5)
C40_6 C 0.4769(5) 0.82075(13) 0.81839(8)
C41_6 C 0.3750 0.8750 0.81972(11)
C42_6 C 0.4238(5) 0.84861(12) 0.83068(7)
C43_6 C 0.4213(5) 0.84835(12) 0.85227(7)
H21_6 H 0.4514 0.8298 0.8596
C44_6 C 0.3750 0.8750 0.86339(10)
O15_6 O 0.2599(4) 0.95680(10) 0.82662(6)
O16_6 O 0.2464(4) 0.92251(10) 0.79954(5)
C45_6 C 0.2731(5) 0.92925(13) 0.81839(8)
C46_6 C 0.3262(5) 0.90139(12) 0.83068(7)
C47_6 C 0.3287(5) 0.90165(12) 0.85227(7)
H22_6 H 0.2986 0.9202 0.8596
O19_7 O 0.7061(4) 0.59638(17) 0.82310(8)
O20_7 O 0.8225(4) 0.63480(13) 0.83554(8)
N7_4 N 0.6281(5) 0.66302(14) 0.86724(8)
N8_6 N 0.6427(4) 0.69279(14) 0.89596(8)
N9_6 N 0.9400(4) 0.73035(11) 0.94490(7)
N11_6 N 0.5287(4) 0.74190(11) 0.96125(7)
N12_6 N 0.3627(4) 0.76541(11) 0.97027(6)
C48_7 C 0.8758(6) 0.56856(14) 0.74956(11)
C49_7 C 0.9147(5) 0.58670(13) 0.76938(9)
C52_7 C 0.9927(5) 0.62123(13) 0.80443(8)
C53_7 C 0.8799(4) 0.60778(14) 0.80403(9)
C54_7 C 0.8408(5) 0.59059(15) 0.78659(10)
H25_7 H 0.7642 0.5815 0.7864
C55_7 C 0.7996(5) 0.6134(2) 0.82225(12)
C56_6 C 0.5472(7) 0.6871(2) 0.86652(12)
H26_6 H 0.4950 0.6908 0.8552
C57_6 C 0.5508(8) 0.7054(2) 0.88432(12)
H27_6 H 0.5006 0.7232 0.8880
C58_6 C 0.6847(6) 0.66678(17) 0.88514(9)
H28_6 H 0.7468 0.6530 0.8898
C59_6 C 0.6760(5) 0.70508(15) 0.91580(9)
C60_6 C 0.5879(5) 0.71470(14) 0.92937(9)
H29_6 H 0.5080 0.7109 0.9260
C61_6 C 0.6192(4) 0.73008(14) 0.94797(8)
C62_6 C 0.7341(4) 0.73481(13) 0.95355(8)
H30_6 H 0.7540 0.7450 0.9665
C63_6 C 0.8199(4) 0.72431(13) 0.93982(8)
C64_6 C 0.7935(5) 0.70948(14) 0.92071(9)
H31_6 H 0.8535 0.7026 0.9114
C67_6 C 0.9817(4) 0.75654(13) 0.95579(8)
H34_6 H 0.9349 0.7736 0.9616
C68_6 C 0.5288(4) 0.74374(13) 0.98293(8)
H35_6 H 0.5885 0.7364 0.9922
C69_6 C 0.4265(4) 0.75514(14) 0.95441(8)
H36_6 H 0.4041 0.7568 0.9401
C70_6 C 0.4261(4) 0.75824(13) 0.98819(8)
N13_4 N 0.1219(5) 0.66302(14) 0.88276(8)
N14_6 N 0.1073(4) 0.69279(14) 0.85404(8)
N17_6 N 0.2213(4) 0.74190(11) 0.78875(7)
N18_6 N 0.3873(4) 0.76541(11) 0.77973(6)
C79_6 C 0.2028(7) 0.6871(2) 0.88348(12)
H41_6 H 0.2550 0.6908 0.8948
C80_6 C 0.1992(8) 0.7054(2) 0.86568(12)
H42_6 H 0.2494 0.7232 0.8620
C81_6 C 0.0653(6) 0.66678(17) 0.86486(9)
H43_6 H 0.0032 0.6530 0.8602
C82_6 C 0.0740(5) 0.70508(15) 0.83420(9)
C83_6 C 0.1621(5) 0.71470(14) 0.82063(9)
H44_6 H 0.2420 0.7109 0.8240
C84_6 C 0.1308(4) 0.73008(14) 0.80203(8)
C85_6 C 0.0159(4) 0.73481(13) 0.79645(8)
C91_6 C 0.2212(4) 0.74374(13) 0.76707(8)
H50_6 H 0.1615 0.7364 0.7578
C92_6 C 0.3235(4) 0.75514(14) 0.79559(8)
H51_6 H 0.3459 0.7568 0.8099
C93_6 C 0.3239(4) 0.75824(13) 0.76181(8)
H52_6 H 0.3487 0.7628 0.7479
N24_6 N 0.3627(4) 0.98459(11) 0.77973(6)
C105_6 C 0.9817(4) 0.99346(13) 0.79421(8)
H61_6 H 0.9349 0.9764 0.7884
C107_6 C 0.4265(4) 0.99486(14) 0.79559(8)
H63_6 H 0.4041 0.9932 0.8099
C108_6 C 0.4261(4) 0.99176(13) 0.76181(8)
H64_6 H 0.4013 0.9872 0.7479
Zn17_4 Zn 0.1250 0.6250 0.90340(2)
N25_7 N 0.6219(5) 0.58698(14) 0.86724(8)
N27_2 N 0.6531(3) 0.99505(11) 0.95718(6)
N29_2 N 0.6531(3) 0.75495(11) 0.79282(6)
H65_6 H 0.375 0.875 0.947322
H66_6 H 0.375 0.875 0.802678
O4_7 O 0.9275(4) 0.11520(13) 0.83554(8)
N3_6 N 0.8100(4) 0.01965(11) 0.94490(7)
C1_7 C 0.8742(6) 0.18144(14) 0.74956(11)
C2_7 C 0.8353(5) 0.16330(13) 0.76938(9)
C3_7 C 0.7246(5) 0.14979(12) 0.76966(8)
H1_7 H 0.6751 0.1522 0.7578
C4_7 C 0.6843(4) 0.13246(11) 0.78723(7)
C5_7 C 0.7573(5) 0.12877(13) 0.80443(8)
H2_7 H 0.7307 0.1171 0.8164
C6_7 C 0.8701(4) 0.14222(14) 0.80403(9)
C7_7 C 0.9092(5) 0.15941(15) 0.78659(10)
H3_7 H 0.9858 0.1685 0.7864
C8_7 C 0.9504(5) 0.1366(2) 0.82225(12)
H8_6 H 0.9960 0.0050 0.9665
C16_6 C 0.9301(4) 0.02569(13) 0.93982(8)
C17_6 C 0.9565(5) 0.04052(14) 0.92071(9)
H9_6 H 0.8965 0.0474 0.9114
C18_6 C 0.7149(4) 0.03918(14) 0.93902(9)
H10_6 H 0.7168 0.0591 0.9312
C19_6 C 0.6196(5) 0.02381(14) 0.94680(8)
H11_6 H 0.5414 0.0315 0.9454
C29_7 C 0.3758(6) 0.06856(14) 0.74956(11)
C30_7 C 0.4147(5) 0.08670(13) 0.76938(9)
C31_7 C 0.5254(5) 0.10021(12) 0.76966(8)
H17_7 H 0.5749 0.0978 0.7578
C32_7 C 0.5657(4) 0.11754(11) 0.78723(7)
C33_7 C 0.4927(5) 0.12123(13) 0.80443(8)
H18_7 H 0.5193 0.1329 0.8164
C34_7 C 0.3799(4) 0.10778(14) 0.80403(9)
C35_7 C 0.3408(5) 0.09059(15) 0.78659(10)
H19_7 H 0.2642 0.0815 0.7864
C36_7 C 0.2996(5) 0.1134(2) 0.82225(12)
C20_6 C 0.7683(4) 0.99346(13) 0.95579(8)
H12_6 H 0.8151 0.9764 0.9616
N15_6 N 0.8100(4) 0.73035(11) 0.80510(7)
H45_6 H 0.9960 0.7450 0.7835
C86_6 C 0.9301(4) 0.72431(13) 0.81018(8)
C87_6 C 0.9565(5) 0.70948(14) 0.82929(9)
H46_6 H 0.8965 0.7026 0.8386
C88_6 C 0.7149(4) 0.71082(14) 0.81098(9)
H47_6 H 0.7168 0.6909 0.8188
C89_6 C 0.6196(5) 0.72619(14) 0.80320(8)
H48_6 H 0.5414 0.7185 0.8046
C90_6 C 0.7683(4) 0.75654(13) 0.79421(8)
H49_6 H 0.8151 0.7736 0.7884
C71_8 C 0.3742(6) 0.06856(14) 0.00044(11)
C50_8 C 0.0254(5) 0.14979(12) 0.98034(8)
H23_8 H 0.0749 0.1522 0.9922
C51_8 C 0.0657(4) 0.13246(11) 0.96277(7)
H24_8 H 0.0193 0.1171 0.9336
O23_4 O 0.5439(4) 0.09638(17) 0.92690(8)
O24_4 O 0.4275(4) 0.13480(13) 0.91446(8)
C72_8 C 0.3353(5) 0.08670(13) 0.98062(9)
C73_8 C 0.2246(5) 0.10021(12) 0.98034(8)
H38_8 H 0.1751 0.0978 0.9922
C74_8 C 0.1843(4) 0.11754(11) 0.96277(7)
C75_8 C 0.2573(5) 0.12123(13) 0.94557(8)
H39_8 H 0.2307 0.1329 0.9336
C76_8 C 0.3701(4) 0.10778(14) 0.94597(9)
C77_8 C 0.4092(5) 0.09059(15) 0.96341(10)
H40_8 H 0.4858 0.0815 0.9636
C78_8 C 0.4504(5) 0.1134(2) 0.92775(12)
C48_8 C 0.8758(6) 0.18144(14) 0.00044(11)
O19_8 O 0.7061(4) 0.15362(17) 0.92690(8)
O20_8 O 0.8225(4) 0.11520(13) 0.91446(8)
C49_8 C 0.9147(5) 0.16330(13) 0.98062(9)
C52_8 C 0.9927(5) 0.12877(13) 0.94557(8)
C53_8 C 0.8799(4) 0.14222(14) 0.94597(9)
C54_8 C 0.8408(5) 0.15941(15) 0.96341(10)
H25_8 H 0.7642 0.1685 0.9636
C55_8 C 0.7996(5) 0.1366(2) 0.92775(12)
N25_8 N 0.6219(5) 0.16302(14) 0.88276(8)
O3_8 O 0.0439(4) 0.59638(17) 0.92690(8)
O34_4 O 0.2061(4) 0.65362(17) 0.92690(8)
O36_4 O 0.3225(4) 0.61520(13) 0.91446(8)
N26_8 N 0.1281(5) 0.58698(14) 0.88276(8)
C1_8 C 0.8742(6) 0.56856(14) 0.00044(11)
C29_8 C 0.3758(6) 0.68144(14) 0.00044(11)
O4_8 O 0.9275(4) 0.63480(13) 0.91446(8)
C2_8 C 0.8353(5) 0.58670(13) 0.98062(9)
C3_8 C 0.7246(5) 0.60021(12) 0.98034(8)
H1_8 H 0.6751 0.5978 0.9922
C4_8 C 0.6843(4) 0.61754(11) 0.96277(7)
C5_8 C 0.7573(5) 0.62123(13) 0.94557(8)
H2_8 H 0.7307 0.6329 0.9336
C6_8 C 0.8701(4) 0.60778(14) 0.94597(9)
C7_8 C 0.9092(5) 0.59059(15) 0.96341(10)
H3_8 H 0.9858 0.5815 0.9636
C8_8 C 0.9504(5) 0.6134(2) 0.92775(12)
C30_8 C 0.4147(5) 0.66330(13) 0.98062(9)
C31_8 C 0.5254(5) 0.64979(12) 0.98034(8)
H17_8 H 0.5749 0.6522 0.9922
C32_8 C 0.5657(4) 0.63246(11) 0.96277(7)
C33_8 C 0.4927(5) 0.62877(13) 0.94557(8)
H18_8 H 0.5193 0.6171 0.9336
C34_8 C 0.3799(4) 0.64222(14) 0.94597(9)
C35_8 C 0.3408(5) 0.65941(15) 0.96341(10)
H19_8 H 0.2642 0.6685 0.9636
C36_8 C 0.2996(5) 0.6366(2) 0.92775(12)
O6_7 O 0.0036(4) 0.42251(10) 0.95046(5)
O14_7 O 0.0036(4) 0.32749(10) 0.79954(5)
N8_7 N 0.1427(4) 0.19279(14) 0.89596(8)
N9_7 N 0.4400(4) 0.23035(11) 0.94490(7)
N10_3 N 0.5969(3) 0.25495(11) 0.95718(6)
N11_7 N 0.0287(4) 0.24190(11) 0.96125(7)
C56_7 C 0.0472(7) 0.1871(2) 0.86652(12)
C57_7 C 0.0508(8) 0.2054(2) 0.88432(12)
H27_7 H 0.0006 0.2232 0.8880
C58_7 C 0.1847(6) 0.16678(17) 0.88514(9)
H28_7 H 0.2468 0.1530 0.8898
C59_7 C 0.1760(5) 0.20508(15) 0.91580(9)
C60_7 C 0.0879(5) 0.21470(14) 0.92937(9)
H29_7 H 0.0080 0.2109 0.9260
C61_7 C 0.1192(4) 0.23008(14) 0.94797(8)
C62_7 C 0.2341(4) 0.23481(13) 0.95355(8)
H30_7 H 0.2540 0.2450 0.9665
C63_7 C 0.3199(4) 0.22431(13) 0.93982(8)
C64_7 C 0.2935(5) 0.20948(14) 0.92071(9)
H31_7 H 0.3535 0.2026 0.9114
C65_7 C 0.5351(4) 0.21082(14) 0.93902(9)
H32_7 H 0.5332 0.1909 0.9312
C66_7 C 0.6304(5) 0.22619(14) 0.94680(8)
H33_7 H 0.7086 0.2185 0.9454
C67_7 C 0.4817(4) 0.25654(13) 0.95579(8)
H34_7 H 0.4349 0.2736 0.9616
C68_7 C 0.0288(4) 0.24374(13) 0.98293(8)
H35_7 H 0.0885 0.2364 0.9922
N20_7 N 0.1427(4) 0.55721(14) 0.85404(8)
N21_7 N 0.4400(4) 0.51965(11) 0.80510(7)
N22_3 N 0.5969(3) 0.49505(11) 0.79282(6)
N23_7 N 0.0287(4) 0.50810(11) 0.78875(7)
C94_7 C 0.0472(7) 0.5629(2) 0.88348(12)
C95_7 C 0.0508(8) 0.5446(2) 0.86568(12)
H54_7 H 0.0006 0.5268 0.8620
C96_7 C 0.1847(6) 0.58322(17) 0.86486(9)
H55_7 H 0.2468 0.5970 0.8602
C97_7 C 0.1760(5) 0.54492(15) 0.83420(9)
C98_7 C 0.0879(5) 0.53530(14) 0.82063(9)
H56_7 H 0.0080 0.5391 0.8240
C99_7 C 0.1192(4) 0.51992(14) 0.80203(8)
C100_7 C 0.2341(4) 0.51519(13) 0.79645(8)
H57_7 H 0.2540 0.5050 0.7835
C101_7 C 0.3199(4) 0.52569(13) 0.81018(8)
C102_7 C 0.2935(5) 0.54052(14) 0.82929(9)
H58_7 H 0.3535 0.5474 0.8386
C103_7 C 0.5351(4) 0.53918(14) 0.81098(9)
H59_7 H 0.5332 0.5591 0.8188
C104_7 C 0.6304(5) 0.52381(14) 0.80320(8)
H60_7 H 0.7086 0.5315 0.8046
C105_7 C 0.4817(4) 0.49346(13) 0.79421(8)
H61_7 H 0.4349 0.4764 0.7884
C106_7 C 0.0288(4) 0.50626(13) 0.76707(8)
H62_7 H 0.0885 0.5136 0.7578
N27_3 N 0.1531(3) 0.49505(11) 0.95718(6)
N29_3 N 0.1531(3) 0.25495(11) 0.79282(6)
H15_5 H 0.8487 0.4872 0.0021
H37_5 H 0.9013 0.2628 0.0021
O5_7 O 0.9901(4) 0.45680(10) 0.92338(6)
N2_7 N 0.6073(4) 0.55721(14) 0.89596(8)
N3_7 N 0.3100(4) 0.51965(11) 0.94490(7)
N5_7 N 0.7213(4) 0.50810(11) 0.96125(7)
N6_7 N 0.8873(4) 0.48459(11) 0.97027(6)
C9_7 C 0.7028(7) 0.5629(2) 0.86652(12)
H4_7 H 0.7550 0.5592 0.8552
C10_7 C 0.6992(8) 0.5446(2) 0.88432(12)
H5_7 H 0.7494 0.5268 0.8880
C11_7 C 0.5653(6) 0.58322(17) 0.88514(9)
H6_7 H 0.5032 0.5970 0.8898
C12_7 C 0.5740(5) 0.54492(15) 0.91580(9)
C13_7 C 0.6621(5) 0.53530(14) 0.92937(9)
H7_7 H 0.7420 0.5391 0.9260
C14_7 C 0.6308(4) 0.51992(14) 0.94797(8)
C15_7 C 0.5159(4) 0.51519(13) 0.95355(8)
H8_7 H 0.4960 0.5050 0.9665
C16_7 C 0.4301(4) 0.52569(13) 0.93982(8)
C17_7 C 0.4565(5) 0.54052(14) 0.92071(9)
H9_7 H 0.3965 0.5474 0.9114
C18_7 C 0.2149(4) 0.53918(14) 0.93902(9)
H10_7 H 0.2168 0.5591 0.9312
C19_7 C 0.1196(5) 0.52381(14) 0.94680(8)
H11_7 H 0.0414 0.5315 0.9454
C20_7 C 0.2683(4) 0.49346(13) 0.95579(8)
H12_7 H 0.3151 0.4764 0.9616
C21_7 C 0.7212(4) 0.50626(13) 0.98293(8)
H13_7 H 0.6615 0.5136 0.9922
C22_7 C 0.8235(4) 0.49486(14) 0.95441(8)
H14_7 H 0.8459 0.4932 0.9401
C23_7 C 0.8239(4) 0.49176(13) 0.98819(8)
C24_7 C 0.9769(5) 0.42925(13) 0.93161(8)
C25_7 C 0.8750 0.3750 0.93028(11)
C26_7 C 0.9238(5) 0.40139(12) 0.91932(7)
C27_7 C 0.9213(5) 0.40165(12) 0.89773(7)
H16_7 H 0.9514 0.4202 0.8904
C28_7 C 0.8750 0.3750 0.88661(10)
O11_7 O 0.7599(4) 0.29320(10) 0.92338(6)
O12_7 O 0.7464(4) 0.32749(10) 0.95046(5)
C37_7 C 0.7731(5) 0.32075(13) 0.93161(8)
C38_7 C 0.8262(5) 0.34861(12) 0.91932(7)
C39_7 C 0.8287(5) 0.34835(12) 0.89773(7)
H20_7 H 0.7986 0.3298 0.8904
O13_7 O 0.9901(4) 0.29320(10) 0.82662(6)
C40_7 C 0.9769(5) 0.32075(13) 0.81839(8)
C41_7 C 0.8750 0.3750 0.81972(11)
C42_7 C 0.9238(5) 0.34861(12) 0.83068(7)
C43_7 C 0.9213(5) 0.34835(12) 0.85227(7)
H21_7 H 0.9514 0.3298 0.8596
C44_7 C 0.8750 0.3750 0.86339(10)
O15_7 O 0.7599(4) 0.45680(10) 0.82662(6)
O16_7 O 0.7464(4) 0.42251(10) 0.79954(5)
C45_7 C 0.7731(5) 0.42925(13) 0.81839(8)
C46_7 C 0.8262(5) 0.40139(12) 0.83068(7)
C47_7 C 0.8287(5) 0.40165(12) 0.85227(7)
H22_7 H 0.7986 0.4202 0.8596
N12_7 N 0.8627(4) 0.26541(11) 0.97027(6)
H26_7 H 0.9950 0.1908 0.8552
C69_7 C 0.9265(4) 0.25514(14) 0.95441(8)
H36_7 H 0.9041 0.2568 0.9401
C70_7 C 0.9261(4) 0.25824(13) 0.98819(8)
N14_7 N 0.6073(4) 0.19279(14) 0.85404(8)
N15_7 N 0.3100(4) 0.23035(11) 0.80510(7)
N17_7 N 0.7213(4) 0.24190(11) 0.78875(7)
N18_7 N 0.8873(4) 0.26541(11) 0.77973(6)
C79_7 C 0.7028(7) 0.1871(2) 0.88348(12)
H41_7 H 0.7550 0.1908 0.8948
C80_7 C 0.6992(8) 0.2054(2) 0.86568(12)
H42_7 H 0.7494 0.2232 0.8620
C81_7 C 0.5653(6) 0.16678(17) 0.86486(9)
H43_7 H 0.5032 0.1530 0.8602
C82_7 C 0.5740(5) 0.20508(15) 0.83420(9)
C83_7 C 0.6621(5) 0.21470(14) 0.82063(9)
H44_7 H 0.7420 0.2109 0.8240
C84_7 C 0.6308(4) 0.23008(14) 0.80203(8)
C85_7 C 0.5159(4) 0.23481(13) 0.79645(8)
H45_7 H 0.4960 0.2450 0.7835
C86_7 C 0.4301(4) 0.22431(13) 0.81018(8)
C87_7 C 0.4565(5) 0.20948(14) 0.82929(9)
H46_7 H 0.3965 0.2026 0.8386
C88_7 C 0.2149(4) 0.21082(14) 0.81098(9)
H47_7 H 0.2168 0.1909 0.8188
C89_7 C 0.1196(5) 0.22619(14) 0.80320(8)
H48_7 H 0.0414 0.2185 0.8046
C90_7 C 0.2683(4) 0.25654(13) 0.79421(8)
H49_7 H 0.3151 0.2736 0.7884
C91_7 C 0.7212(4) 0.24374(13) 0.76707(8)
H50_7 H 0.6615 0.2364 0.7578
C92_7 C 0.8235(4) 0.25514(14) 0.79559(8)
H51_7 H 0.8459 0.2568 0.8099
C93_7 C 0.8239(4) 0.25824(13) 0.76181(8)
H52_7 H 0.8487 0.2628 0.7479
N24_7 N 0.8627(4) 0.48459(11) 0.77973(6)
H53_7 H 0.9950 0.5592 0.8948
C107_7 C 0.9265(4) 0.49486(14) 0.79559(8)
H63_7 H 0.9041 0.4932 0.8099
C108_7 C 0.9261(4) 0.49176(13) 0.76181(8)
H64_7 H 0.9013 0.4872 0.7479
H65_7 H 0.875 0.375 0.947322
H66_7 H 0.875 0.375 0.802678
N20_8 N 0.1427(4) 0.05721(14) 0.35404(8)
N21_8 N 0.4400(4) 0.01965(11) 0.30510(7)
N23_8 N 0.0287(4) 0.00810(11) 0.28875(7)
C94_8 C 0.0472(7) 0.0629(2) 0.38348(12)
C95_8 C 0.0508(8) 0.0446(2) 0.36568(12)
H54_8 H 0.0006 0.0268 0.3620
C96_8 C 0.1847(6) 0.08322(17) 0.36486(9)
H55_8 H 0.2468 0.0970 0.3602
C97_8 C 0.1760(5) 0.04492(15) 0.33420(9)
C98_8 C 0.0879(5) 0.03530(14) 0.32063(9)
H56_8 H 0.0080 0.0391 0.3240
C99_8 C 0.1192(4) 0.01992(14) 0.30203(8)
C100_8 C 0.2341(4) 0.01519(13) 0.29645(8)
H57_8 H 0.2540 0.0050 0.2835
C101_8 C 0.3199(4) 0.02569(13) 0.31018(8)
C102_8 C 0.2935(5) 0.04052(14) 0.32929(9)
H58_8 H 0.3535 0.0474 0.3386
C103_8 C 0.5351(4) 0.03918(14) 0.31098(9)
H59_8 H 0.5332 0.0591 0.3188
C104_8 C 0.6304(5) 0.02381(14) 0.30320(8)
H60_8 H 0.7086 0.0315 0.3046
C106_8 C 0.0288(4) 0.00626(13) 0.26707(8)
H62_8 H 0.0885 0.0136 0.2578
O6_8 O 0.0036(4) 0.92251(10) 0.45046(5)
O14_8 O 0.0036(4) 0.82749(10) 0.29954(5)
N8_8 N 0.1427(4) 0.69279(14) 0.39596(8)
N9_8 N 0.4400(4) 0.73035(11) 0.44490(7)
N10_4 N 0.5969(3) 0.75495(11) 0.45718(6)
N11_8 N 0.0287(4) 0.74190(11) 0.46125(7)
C56_8 C 0.0472(7) 0.6871(2) 0.36652(12)
C57_8 C 0.0508(8) 0.7054(2) 0.38432(12)
H27_8 H 0.0006 0.7232 0.3880
C58_8 C 0.1847(6) 0.66678(17) 0.38514(9)
H28_8 H 0.2468 0.6530 0.3898
C59_8 C 0.1760(5) 0.70508(15) 0.41580(9)
C60_8 C 0.0879(5) 0.71470(14) 0.42937(9)
H29_8 H 0.0080 0.7109 0.4260
C61_8 C 0.1192(4) 0.73008(14) 0.44797(8)
C62_8 C 0.2341(4) 0.73481(13) 0.45355(8)
H30_8 H 0.2540 0.7450 0.4665
C63_8 C 0.3199(4) 0.72431(13) 0.43982(8)
C64_8 C 0.2935(5) 0.70948(14) 0.42071(9)
H31_8 H 0.3535 0.7026 0.4114
C65_8 C 0.5351(4) 0.71082(14) 0.43902(9)
H32_8 H 0.5332 0.6909 0.4312
C66_8 C 0.6304(5) 0.72619(14) 0.44680(8)
H33_8 H 0.7086 0.7185 0.4454
C67_8 C 0.4817(4) 0.75654(13) 0.45579(8)
H34_8 H 0.4349 0.7736 0.4616
C68_8 C 0.0288(4) 0.74374(13) 0.48293(8)
H35_8 H 0.0885 0.7364 0.4922
N22_4 N 0.5969(3) 0.99505(11) 0.29282(6)
C105_8 C 0.4817(4) 0.99346(13) 0.29421(8)
H61_8 H 0.4349 0.9764 0.2884
N27_4 N 0.1531(3) 0.99505(11) 0.45718(6)
N29_4 N 0.1531(3) 0.75495(11) 0.29282(6)
N2_8 N 0.6073(4) 0.05721(14) 0.39596(8)
N3_8 N 0.3100(4) 0.01965(11) 0.44490(7)
N5_8 N 0.7213(4) 0.00810(11) 0.46125(7)
C9_8 C 0.7028(7) 0.0629(2) 0.36652(12)
H4_8 H 0.7550 0.0592 0.3552
C10_8 C 0.6992(8) 0.0446(2) 0.38432(12)
H5_8 H 0.7494 0.0268 0.3880
C11_8 C 0.5653(6) 0.08322(17) 0.38514(9)
H6_8 H 0.5032 0.0970 0.3898
C12_8 C 0.5740(5) 0.04492(15) 0.41580(9)
C13_8 C 0.6621(5) 0.03530(14) 0.42937(9)
H7_8 H 0.7420 0.0391 0.4260
C14_8 C 0.6308(4) 0.01992(14) 0.44797(8)
C15_8 C 0.5159(4) 0.01519(13) 0.45355(8)
H8_8 H 0.4960 0.0050 0.4665
C16_8 C 0.4301(4) 0.02569(13) 0.43982(8)
C17_8 C 0.4565(5) 0.04052(14) 0.42071(9)
H9_8 H 0.3965 0.0474 0.4114
C18_8 C 0.2149(4) 0.03918(14) 0.43902(9)
H10_8 H 0.2168 0.0591 0.4312
C19_8 C 0.1196(5) 0.02381(14) 0.44680(8)
H11_8 H 0.0414 0.0315 0.4454
C21_8 C 0.7212(4) 0.00626(13) 0.48293(8)
H13_8 H 0.6615 0.0136 0.4922
H53_8 H 0.9950 0.0592 0.3948
O5_8 O 0.9901(4) 0.95680(10) 0.42338(6)
N6_8 N 0.8873(4) 0.98459(11) 0.47027(6)
C20_8 C 0.2683(4) 0.99346(13) 0.45579(8)
H12_8 H 0.3151 0.9764 0.4616
C22_8 C 0.8235(4) 0.99486(14) 0.45441(8)
H14_8 H 0.8459 0.9932 0.4401
C23_8 C 0.8239(4) 0.99176(13) 0.48819(8)
H15_6 H 0.8487 0.9872 0.5021
C24_8 C 0.9769(5) 0.92925(13) 0.43161(8)
C25_8 C 0.8750 0.8750 0.43028(11)
C26_8 C 0.9238(5) 0.90139(12) 0.41932(7)
C27_8 C 0.9213(5) 0.90165(12) 0.39773(7)
H16_8 H 0.9514 0.9202 0.3904
C28_8 C 0.8750 0.8750 0.38661(10)
O11_8 O 0.7599(4) 0.79320(10) 0.42338(6)
O12_8 O 0.7464(4) 0.82749(10) 0.45046(5)
C37_8 C 0.7731(5) 0.82075(13) 0.43161(8)
C38_8 C 0.8262(5) 0.84861(12) 0.41932(7)
C39_8 C 0.8287(5) 0.84835(12) 0.39773(7)
H20_8 H 0.7986 0.8298 0.3904
O13_8 O 0.9901(4) 0.79320(10) 0.32662(6)
C40_8 C 0.9769(5) 0.82075(13) 0.31839(8)
C41_8 C 0.8750 0.8750 0.31972(11)
C42_8 C 0.9238(5) 0.84861(12) 0.33068(7)
C43_8 C 0.9213(5) 0.84835(12) 0.35227(7)
H21_8 H 0.9514 0.8298 0.3596
C44_8 C 0.8750 0.8750 0.36339(10)
O15_8 O 0.7599(4) 0.95680(10) 0.32662(6)
O16_8 O 0.7464(4) 0.92251(10) 0.29954(5)
C45_8 C 0.7731(5) 0.92925(13) 0.31839(8)
C46_8 C 0.8262(5) 0.90139(12) 0.33068(7)
C47_8 C 0.8287(5) 0.90165(12) 0.35227(7)
H22_8 H 0.7986 0.9202 0.3596
N12_8 N 0.8627(4) 0.76541(11) 0.47027(6)
H26_8 H 0.9950 0.6908 0.3552
C69_8 C 0.9265(4) 0.75514(14) 0.45441(8)
H36_8 H 0.9041 0.7568 0.4401
C70_8 C 0.9261(4) 0.75824(13) 0.48819(8)
H37_6 H 0.9013 0.7628 0.5021
N14_8 N 0.6073(4) 0.69279(14) 0.35404(8)
N15_8 N 0.3100(4) 0.73035(11) 0.30510(7)
N17_8 N 0.7213(4) 0.74190(11) 0.28875(7)
N18_8 N 0.8873(4) 0.76541(11) 0.27973(6)
C79_8 C 0.7028(7) 0.6871(2) 0.38348(12)
H41_8 H 0.7550 0.6908 0.3948
C80_8 C 0.6992(8) 0.7054(2) 0.36568(12)
H42_8 H 0.7494 0.7232 0.3620
C81_8 C 0.5653(6) 0.66678(17) 0.36486(9)
H43_8 H 0.5032 0.6530 0.3602
C82_8 C 0.5740(5) 0.70508(15) 0.33420(9)
C83_8 C 0.6621(5) 0.71470(14) 0.32063(9)
H44_8 H 0.7420 0.7109 0.3240
C84_8 C 0.6308(4) 0.73008(14) 0.30203(8)
C85_8 C 0.5159(4) 0.73481(13) 0.29645(8)
H45_8 H 0.4960 0.7450 0.2835
C86_8 C 0.4301(4) 0.72431(13) 0.31018(8)
C87_8 C 0.4565(5) 0.70948(14) 0.32929(9)
H46_8 H 0.3965 0.7026 0.3386
C88_8 C 0.2149(4) 0.71082(14) 0.31098(9)
H47_8 H 0.2168 0.6909 0.3188
C89_8 C 0.1196(5) 0.72619(14) 0.30320(8)
H48_8 H 0.0414 0.7185 0.3046
C90_8 C 0.2683(4) 0.75654(13) 0.29421(8)
H49_8 H 0.3151 0.7736 0.2884
C91_8 C 0.7212(4) 0.74374(13) 0.26707(8)
H50_8 H 0.6615 0.7364 0.2578
C92_8 C 0.8235(4) 0.75514(14) 0.29559(8)
H51_8 H 0.8459 0.7568 0.3099
C93_8 C 0.8239(4) 0.75824(13) 0.26181(8)
H52_8 H 0.8487 0.7628 0.2479
N24_8 N 0.8627(4) 0.98459(11) 0.27973(6)
C107_8 C 0.9265(4) 0.99486(14) 0.29559(8)
H63_8 H 0.9041 0.9932 0.3099
C108_8 C 0.9261(4) 0.99176(13) 0.26181(8)
H64_8 H 0.9013 0.9872 0.2479
H65_8 H 0.875 0.875 0.447322
H66_8 H 0.875 0.875 0.302678
H15_7 H 0.6513 0.0128 0.9979
H37_7 H 0.5987 0.2372 0.9979
H15_8 H 0.3487 0.9872 0.0021
H37_8 H 0.4013 0.7628 0.0021
loop_
_geom_bond_atom_site_label_1
_geom_bond_atom_site_label_2
_geom_bond_site_symmetry_1
_geom_bond_site_symmetry_2
O1 C1 1_555 1_555
O2 C1 1_555 1_555
N3 C16 1_555 1_555
N4 C19 1_555 1_555
C1 C2 1_555 1_555
C2 C3 1_555 1_555
C3 H1 1_555 1_555
C4 C3 1_555 1_555
C5 C4 1_555 1_555
H2 C5 1_555 1_555
C6 C5 1_555 1_555
C7 C2 1_555 1_555
H3 C7 1_555 1_555
C8 O4 1_555 1_555
H9 C17 1_555 1_555
C18 N3 1_555 1_555
H10 C18 1_555 1_555
C19 C18 1_555 1_555
H11 C19 1_555 1_555
C20 N3 1_555 1_555
H12 C20 1_555 1_555
O7 C29 1_555 1_555
O8 C29 1_555 1_555
O9 C36 1_555 1_555
O10 C36 1_555 1_555
C29 C30 1_555 1_555
C30 C31 1_555 1_555
C31 H17 1_555 1_555
C32 C4 1_555 1_555
C33 C32 1_555 1_555
H18 C33 1_555 1_555
C34 C33 1_555 1_555
C35 C30 1_555 1_555
H19 C35 1_555 1_555
C36 C34 1_555 1_555
N15 C86 1_555 1_555
N16 C89 1_555 1_555
H46 C87 1_555 1_555
C88 N15 1_555 1_555
H47 C88 1_555 1_555
C89 C88 1_555 1_555
H48 C89 1_555 1_555
C90 N15 1_555 1_555
H49 C90 1_555 1_555
Zn7 N4 1_555 1_555
Zn9 N16 1_555 1_555
Zn13 O1 1_555 1_555
Zn14 O7 1_555 1_555
Zn15 O9 1_555 1_555
O2 Zn13 1_555 1_555
N4 C20 1_555 1_555
C6 C7 1_555 1_555
C6 C8 1_555 1_555
C16 C17 1_555 1_555
O8 Zn14 1_555 1_555
O10 Zn15 1_555 1_555
C31 C32 1_555 1_555
C34 C35 1_555 1_555
N16 C90 1_555 1_555
C86 C87 1_555 1_555
Zn7 O6 1_555 1_555
Zn15 O3 1_555 1_555
O5 C24 1_555 1_555
O6 C24 1_555 1_555
N1 Zn15 1_555 1_555
N2 C10 1_555 1_555
N5 C14 1_555 1_555
N6 Zn7 1_555 1_555
C9 N1 1_555 1_555
H4 C9 1_555 1_555
C10 C9 1_555 1_555
H5 C10 1_555 1_555
C11 N1 1_555 1_555
H6 C11 1_555 1_555
C12 N2 1_555 1_555
C13 C12 1_555 1_555
H7 C13 1_555 1_555
C14 C13 1_555 1_555
C15 C14 1_555 1_555
C21 N5 1_555 1_555
H13 C21 1_555 1_555
C22 N5 1_555 1_555
H14 C22 1_555 1_555
C23 N6 1_555 1_555
H15 C23 1_555 1_555
C24 C26 1_555 1_555
C25 C26 1_555 1_555
C26 C27 1_555 1_555
C27 H16 1_555 1_555
C28 C27 1_555 1_555
O11 C37 1_555 1_555
O12 C37 1_555 1_555
C37 C38 1_555 1_555
C38 C25 1_555 1_555
C39 C28 1_555 1_555
H20 C39 1_555 1_555
O13 C40 1_555 1_555
O14 C40 1_555 1_555
C40 C42 1_555 1_555
C41 C42 1_555 1_555
C42 C43 1_555 1_555
C43 H21 1_555 1_555
C44 C28 1_555 1_555
O15 C45 1_555 1_555
O16 C45 1_555 1_555
C45 C46 1_555 1_555
C46 C41 1_555 1_555
C47 C44 1_555 1_555
H22 C47 1_555 1_555
Zn3 O12 1_555 1_555
Zn4 O19 1_555 1_555
O17 C48 1_555 1_555
O18 C48 1_555 1_555
O19 C55 1_555 1_555
O20 Zn4 1_555 1_555
N7 Zn4 1_555 1_555
N8 C57 1_555 1_555
N9 C63 1_555 1_555
N11 C61 1_555 1_555
N12 Zn3 1_555 1_555
C48 C49 1_555 1_555
C53 C52 1_555 1_555
C54 C49 1_555 1_555
H25 C54 1_555 1_555
C55 O20 1_555 1_555
C56 N7 1_555 1_555
H26 C56 1_555 1_555
C57 C56 1_555 1_555
H27 C57 1_555 1_555
C58 N7 1_555 1_555
H28 C58 1_555 1_555
C59 N8 1_555 1_555
C60 C59 1_555 1_555
H29 C60 1_555 1_555
C61 C60 1_555 1_555
C62 C61 1_555 1_555
H30 C62 1_555 1_555
C63 C62 1_555 1_555
C64 C59 1_555 1_555
H31 C64 1_555 1_555
C67 N9 1_555 1_555
H34 C67 1_555 1_555
C68 N11 1_555 1_555
H35 C68 1_555 1_555
C69 N11 1_555 1_555
H36 C69 1_555 1_555
C70 N12 1_555 1_555
H37 C70 1_555 1_555
Zn9 O14 1_555 1_555
N13 C79 1_555 1_555
N14 C80 1_555 1_555
N17 C84 1_555 1_555
N18 Zn9 1_555 1_555
C79 H41 1_555 1_555
C80 C79 1_555 1_555
H42 C80 1_555 1_555
C81 N13 1_555 1_555
H43 C81 1_555 1_555
C82 N14 1_555 1_555
C83 C82 1_555 1_555
H44 C83 1_555 1_555
C84 C83 1_555 1_555
C85 C84 1_555 1_555
C91 N17 1_555 1_555
H50 C91 1_555 1_555
C92 N17 1_555 1_555
H51 C92 1_555 1_555
C93 N18 1_555 1_555
H52 C93 1_555 1_555
Zn6 O16 1_555 1_555
N19 C94 1_555 1_555
N20 C95 1_555 1_555
N21 C101 1_555 1_555
N23 C99 1_555 1_555
N24 Zn6 1_555 1_555
C94 H53 1_555 1_555
C95 C94 1_555 1_555
H54 C95 1_555 1_555
C96 N19 1_555 1_555
H55 C96 1_555 1_555
C97 N20 1_555 1_555
C98 C97 1_555 1_555
H56 C98 1_555 1_555
C99 C98 1_555 1_555
C100 C99 1_555 1_555
H57 C100 1_555 1_555
C101 C100 1_555 1_555
C102 C97 1_555 1_555
H58 C102 1_555 1_555
C105 N21 1_555 1_555
H61 C105 1_555 1_555
C106 N23 1_555 1_555
H62 C106 1_555 1_555
C107 N23 1_555 1_555
H63 C107 1_555 1_555
C108 N24 1_555 1_555
H64 C108 1_555 1_555
Zn12 O17 1_555 1_555
Zn17 N13 1_555 1_555
Zn18 N19 1_555 1_555
O25 Zn3 1_555 1_555
O26 Zn6 1_555 1_555
O27 Zn9 1_555 1_555
O28 Zn7 1_555 1_555
O29 Zn3 1_555 1_555
O30 Zn6 1_555 1_555
O31 Zn9 1_555 1_555
O32 Zn7 1_555 1_555
O33 Zn4 1_555 1_555
O35 Zn4 1_555 1_555
N25 Zn4 1_555 1_555
N26 Zn15 1_555 1_555
N28 Zn3 1_555 1_555
N30 Zn6 1_555 1_555
N2 C11 1_555 1_555
N6 C22 1_555 1_555
C21 C23 1_555 1_555
C38 C39 1_555 1_555
C43 C44 1_555 1_555
C46 C47 1_555 1_555
O18 Zn12 1_555 1_555
N8 C58 1_555 1_555
N12 C69 1_555 1_555
C53 C54 1_555 1_555
C53 C55 1_555 1_555
C63 C64 1_555 1_555
C68 C70 1_555 1_555
N14 C81 1_555 1_555
N18 C92 1_555 1_555
C91 C93 1_555 1_555
N20 C96 1_555 1_555
N24 C107 1_555 1_555
C101 C102 1_555 1_555
C106 C108 1_555 1_555
C25 H65 1_555 1_555
C41 H66 1_555 1_555
N28 C66 1_555 1_555
C50 H23 1_555 1_555
C51 C50 1_555 1_555
H32 C65 1_555 1_555
C66 C65 1_555 1_555
H33 C66 1_555 1_555
O21 C71 1_555 1_555
O22 C71 1_555 1_555
O33 C78 1_555 1_555
O35 C78 1_555 1_555
C71 C72 1_555 1_555
C72 C73 1_555 1_555
C73 H38 1_555 1_555
C74 C51 1_555 1_555
C75 C74 1_555 1_555
H39 C75 1_555 1_555
C76 C75 1_555 1_555
C77 C72 1_555 1_555
H40 C77 1_555 1_555
C78 C76 1_555 1_555
N30 C104 1_555 1_555
H59 C103 1_555 1_555
C104 C103 1_555 1_555
H60 C104 1_555 1_555
Zn11 O21 1_555 1_555
O22 Zn11 1_555 1_555
C73 C74 1_555 1_555
C76 C77 1_555 1_555
O1_2 C1_2 1_555 1_555
O2_2 C1_2 1_555 1_555
C1_2 C2_2 1_555 1_555
C2_2 C3_2 1_555 1_555
C3_2 H1_2 1_555 1_555
C4_2 C3_2 1_555 1_555
C5_2 C4_2 1_555 1_555
H2_2 C5_2 1_555 1_555
C6_2 C5_2 1_555 1_555
C7_2 C2_2 1_555 1_555
H3_2 C7_2 1_555 1_555
C8_2 O4_2 1_555 1_555
O7_2 C29_2 1_555 1_555
O8_2 C29_2 1_555 1_555
O9_2 C36_2 1_555 1_555
O10_2 C36_2 1_555 1_555
C29_2 C30_2 1_555 1_555
C30_2 C31_2 1_555 1_555
C31_2 H17_2 1_555 1_555
C32_2 C4_2 1_555 1_555
C33_2 C32_2 1_555 1_555
H18_2 C33_2 1_555 1_555
C34_2 C33_2 1_555 1_555
C35_2 C30_2 1_555 1_555
H19_2 C35_2 1_555 1_555
C36_2 C34_2 1_555 1_555
Zn13_2 O1_2 1_555 1_555
Zn14_2 O7_2 1_555 1_555
Zn17 O9_2 1_555 1_555
O2_2 Zn13_2 1_555 1_555
C6_2 C7_2 1_555 1_555
C6_2 C8_2 1_555 1_555
O8_2 Zn14_2 1_555 1_555
O10_2 Zn17 1_555 1_555
C31_2 C32_2 1_555 1_555
C34_2 C35_2 1_555 1_555
Zn17 O3_2 1_555 1_555
Zn18 O19_2 1_555 1_555
O17_2 C48_2 1_555 1_555
O18_2 C48_2 1_555 1_555
O19_2 C55_2 1_555 1_555
O20_2 Zn18 1_555 1_555
C48_2 C49_2 1_555 1_555
C53_2 C52_2 1_555 1_555
C54_2 C49_2 1_555 1_555
H25_2 C54_2 1_555 1_555
C55_2 O20_2 1_555 1_555
Zn12_2 O17_2 1_555 1_555
O33_2 Zn18 1_555 1_555
O35_2 Zn18 1_555 1_555
N25_2 Zn18 1_555 1_555
N26_2 Zn17 1_555 1_555
O18_2 Zn12_2 1_555 1_555
C53_2 C54_2 1_555 1_555
C53_2 C55_2 1_555 1_555
C50_2 H23_2 1_555 1_555
C51_2 C50_2 1_555 1_555
O21_2 C71_2 1_555 1_555
O22_2 C71_2 1_555 1_555
O33_2 C78_2 1_555 1_555
O35_2 C78_2 1_555 1_555
C71_2 C72_2 1_555 1_555
C72_2 C73_2 1_555 1_555
C73_2 H38_2 1_555 1_555
C74_2 C51_2 1_555 1_555
C75_2 C74_2 1_555 1_555
H39_2 C75_2 1_555 1_555
C76_2 C75_2 1_555 1_555
C77_2 C72_2 1_555 1_555
H40_2 C77_2 1_555 1_555
C78_2 C76_2 1_555 1_555
Zn11_2 O21_2 1_555 1_555
O22_2 Zn11_2 1_555 1_555
C73_2 C74_2 1_555 1_555
C76_2 C77_2 1_555 1_555
H12_2 C20_2 1_555 1_555
N15_2 C86_2 1_555 1_555
N16_2 C89_2 1_555 1_555
H46_2 C87_2 1_555 1_555
C88_2 N15_2 1_555 1_555
H47_2 C88_2 1_555 1_555
C89_2 C88_2 1_555 1_555
H48_2 C89_2 1_555 1_555
C90_2 N15_2 1_555 1_555
H49_2 C90_2 1_555 1_555
Zn7_2 N4_2 1_555 1_555
Zn9_2 N16_2 1_555 1_555
N4_2 C20_2 1_555 1_555
N16_2 C90_2 1_555 1_555
C86_2 C87_2 1_555 1_555
O1_3 C1_3 1_555 1_555
O2_3 C1_3 1_555 1_555
N3_2 C16_2 1_555 1_555
C1_3 C2_3 1_555 1_555
C2_3 C3_3 1_555 1_555
C3_3 H1_3 1_555 1_555
C4_3 C3_3 1_555 1_555
C5_3 C4_3 1_555 1_555
H2_3 C5_3 1_555 1_555
C6_3 C5_3 1_555 1_555
C7_3 C2_3 1_555 1_555
H3_3 C7_3 1_555 1_555
C8_3 O4_3 1_555 1_555
H9_2 C17_2 1_555 1_555
C18_2 N3_2 1_555 1_555
H10_2 C18_2 1_555 1_555
C19_2 C18_2 1_555 1_555
H11_2 C19_2 1_555 1_555
O7_3 C29_3 1_555 1_555
O8_3 C29_3 1_555 1_555
O9_3 C36_3 1_555 1_555
O10_3 C36_3 1_555 1_555
C29_3 C30_3 1_555 1_555
C30_3 C31_3 1_555 1_555
C31_3 H17_3 1_555 1_555
C32_3 C4_3 1_555 1_555
C33_3 C32_3 1_555 1_555
H18_3 C33_3 1_555 1_555
C34_3 C33_3 1_555 1_555
C35_3 C30_3 1_555 1_555
H19_3 C35_3 1_555 1_555
C36_3 C34_3 1_555 1_555
Zn13_3 O1_3 1_555 1_555
Zn14_3 O7_3 1_555 1_555
Zn15_2 O9_3 1_555 1_555
O2_3 Zn13_3 1_555 1_555
C6_3 C7_3 1_555 1_555
C6_3 C8_3 1_555 1_555
C16_2 C17_2 1_555 1_555
O8_3 Zn14_3 1_555 1_555
O10_3 Zn15_2 1_555 1_555
C31_3 C32_3 1_555 1_555
C34_3 C35_3 1_555 1_555
Zn7_2 O6_2 1_555 1_555
O5_2 C24_2 1_555 1_555
O6_2 C24_2 1_555 1_555
N6_2 Zn7_2 1_555 1_555
H14_2 C22_2 1_555 1_555
C23_2 N6_2 1_555 1_555
C24_2 C26_2 1_555 1_555
C25_2 C26_2 1_555 1_555
C26_2 C27_2 1_555 1_555
C27_2 H16_2 1_555 1_555
C28_2 C27_2 1_555 1_555
O11_2 C37_2 1_555 1_555
O12_2 C37_2 1_555 1_555
C37_2 C38_2 1_555 1_555
C38_2 C25_2 1_555 1_555
C39_2 C28_2 1_555 1_555
H20_2 C39_2 1_555 1_555
O13_2 C40_2 1_555 1_555
O14_2 C40_2 1_555 1_555
C40_2 C42_2 1_555 1_555
C41_2 C42_2 1_555 1_555
C42_2 C43_2 1_555 1_555
C43_2 H21_2 1_555 1_555
C44_2 C28_2 1_555 1_555
O15_2 C45_2 1_555 1_555
O16_2 C45_2 1_555 1_555
C45_2 C46_2 1_555 1_555
C46_2 C41_2 1_555 1_555
C47_2 C44_2 1_555 1_555
H22_2 C47_2 1_555 1_555
Zn3_2 O12_2 1_555 1_555
Zn4_2 O19_3 1_555 1_555
O17_3 C48_3 1_555 1_555
O18_3 C48_3 1_555 1_555
O19_3 C55_3 1_555 1_555
O20_3 Zn4_2 1_555 1_555
N7_2 Zn4_2 1_555 1_555
N8_2 C57_2 1_555 1_555
N9_2 C63_2 1_555 1_555
N11_2 C61_2 1_555 1_555
N12_2 Zn3_2 1_555 1_555
C48_3 C49_3 1_555 1_555
C53_3 C52_3 1_555 1_555
C54_3 C49_3 1_555 1_555
H25_3 C54_3 1_555 1_555
C55_3 O20_3 1_555 1_555
C56_2 N7_2 1_555 1_555
H26_2 C56_2 1_555 1_555
C57_2 C56_2 1_555 1_555
H27_2 C57_2 1_555 1_555
C58_2 N7_2 1_555 1_555
H28_2 C58_2 1_555 1_555
C59_2 N8_2 1_555 1_555
C60_2 C59_2 1_555 1_555
H29_2 C60_2 1_555 1_555
C61_2 C60_2 1_555 1_555
C62_2 C61_2 1_555 1_555
H30_2 C62_2 1_555 1_555
C63_2 C62_2 1_555 1_555
C64_2 C59_2 1_555 1_555
H31_2 C64_2 1_555 1_555
C67_2 N9_2 1_555 1_555
H34_2 C67_2 1_555 1_555
C68_2 N11_2 1_555 1_555
H35_2 C68_2 1_555 1_555
C69_2 N11_2 1_555 1_555
H36_2 C69_2 1_555 1_555
C70_2 N12_2 1_555 1_555
Zn9_2 O14_2 1_555 1_555
N13_2 C79_2 1_555 1_555
N14_2 C80_2 1_555 1_555
N17_2 C84_2 1_555 1_555
N18_2 Zn9_2 1_555 1_555
C79_2 H41_2 1_555 1_555
C80_2 C79_2 1_555 1_555
H42_2 C80_2 1_555 1_555
C81_2 N13_2 1_555 1_555
H43_2 C81_2 1_555 1_555
C82_2 N14_2 1_555 1_555
C83_2 C82_2 1_555 1_555
H44_2 C83_2 1_555 1_555
C84_2 C83_2 1_555 1_555
C85_2 C84_2 1_555 1_555
C91_2 N17_2 1_555 1_555
H50_2 C91_2 1_555 1_555
C92_2 N17_2 1_555 1_555
H51_2 C92_2 1_555 1_555
C93_2 N18_2 1_555 1_555
H52_2 C93_2 1_555 1_555
Zn6_2 O16_2 1_555 1_555
N24_2 Zn6_2 1_555 1_555
H61_2 C105_2 1_555 1_555
H63_2 C107_2 1_555 1_555
C108_2 N24_2 1_555 1_555
H64_2 C108_2 1_555 1_555
Zn12_3 O17_3 1_555 1_555
Zn17_2 N13_2 1_555 1_555
O25_2 Zn3_2 1_555 1_555
O26_2 Zn6_2 1_555 1_555
O27_2 Zn9_2 1_555 1_555
O28_2 Zn7_2 1_555 1_555
O29_2 Zn3_2 1_555 1_555
O30_2 Zn6_2 1_555 1_555
O31_2 Zn9_2 1_555 1_555
O32_2 Zn7_2 1_555 1_555
O33_3 Zn4_2 1_555 1_555
O35_3 Zn4_2 1_555 1_555
N25_3 Zn4_2 1_555 1_555
N28_2 Zn3_2 1_555 1_555
N30_2 Zn6_2 1_555 1_555
N6_2 C22_2 1_555 1_555
C38_2 C39_2 1_555 1_555
C43_2 C44_2 1_555 1_555
C46_2 C47_2 1_555 1_555
O18_3 Zn12_3 1_555 1_555
N8_2 C58_2 1_555 1_555
N12_2 C69_2 1_555 1_555
C53_3 C54_3 1_555 1_555
C53_3 C55_3 1_555 1_555
C63_2 C64_2 1_555 1_555
C68_2 C70_2 1_555 1_555
N14_2 C81_2 1_555 1_555
N18_2 C92_2 1_555 1_555
C91_2 C93_2 1_555 1_555
N24_2 C107_2 1_555 1_555
C25_2 H65_2 1_555 1_555
C41_2 H66_2 1_555 1_555
Zn15_2 O3_3 1_555 1_555
N1_2 Zn15_2 1_555 1_555
N2_2 C10_2 1_555 1_555
N5_2 C14_2 1_555 1_555
C9_2 N1_2 1_555 1_555
H4_2 C9_2 1_555 1_555
C10_2 C9_2 1_555 1_555
H5_2 C10_2 1_555 1_555
C11_2 N1_2 1_555 1_555
H6_2 C11_2 1_555 1_555
C12_2 N2_2 1_555 1_555
C13_2 C12_2 1_555 1_555
H7_2 C13_2 1_555 1_555
C14_2 C13_2 1_555 1_555
C15_2 C14_2 1_555 1_555
C21_2 N5_2 1_555 1_555
H13_2 C21_2 1_555 1_555
N19_2 C94_2 1_555 1_555
N20_2 C95_2 1_555 1_555
N21_2 C101_2 1_555 1_555
N23_2 C99_2 1_555 1_555
C94_2 H53_2 1_555 1_555
C95_2 C94_2 1_555 1_555
H54_2 C95_2 1_555 1_555
C96_2 N19_2 1_555 1_555
H55_2 C96_2 1_555 1_555
C97_2 N20_2 1_555 1_555
C98_2 C97_2 1_555 1_555
H56_2 C98_2 1_555 1_555
C99_2 C98_2 1_555 1_555
C100_2 C99_2 1_555 1_555
H57_2 C100_2 1_555 1_555
C101_2 C100_2 1_555 1_555
C102_2 C97_2 1_555 1_555
H58_2 C102_2 1_555 1_555
C106_2 N23_2 1_555 1_555
H62_2 C106_2 1_555 1_555
Zn18_2 N19_2 1_555 1_555
N26_3 Zn15_2 1_555 1_555
N2_2 C11_2 1_555 1_555
N20_2 C96_2 1_555 1_555
C101_2 C102_2 1_555 1_555
N28_2 C66_2 1_555 1_555
C50_3 H23_3 1_555 1_555
C51_3 C50_3 1_555 1_555
H32_2 C65_2 1_555 1_555
C66_2 C65_2 1_555 1_555
H33_2 C66_2 1_555 1_555
O21_3 C71_3 1_555 1_555
O22_3 C71_3 1_555 1_555
O33_3 C78_3 1_555 1_555
O35_3 C78_3 1_555 1_555
C71_3 C72_3 1_555 1_555
C72_3 C73_3 1_555 1_555
C73_3 H38_3 1_555 1_555
C74_3 C51_3 1_555 1_555
C75_3 C74_3 1_555 1_555
H39_3 C75_3 1_555 1_555
C76_3 C75_3 1_555 1_555
C77_3 C72_3 1_555 1_555
H40_3 C77_3 1_555 1_555
C78_3 C76_3 1_555 1_555
Zn11_3 O21_3 1_555 1_555
O22_3 Zn11_3 1_555 1_555
C73_3 C74_3 1_555 1_555
C76_3 C77_3 1_555 1_555
H59_2 C103_2 1_555 1_555
C104_2 C103_2 1_555 1_555
H60_2 C104_2 1_555 1_555
C2_4 C3_4 1_555 1_555
C3_4 H1_4 1_555 1_555
C4_4 C3_4 1_555 1_555
C5_4 C4_4 1_555 1_555
H2_4 C5_4 1_555 1_555
C6_4 C5_4 1_555 1_555
C7_4 C2_4 1_555 1_555
H3_4 C7_4 1_555 1_555
C8_4 O4_4 1_555 1_555
O9_4 C36_4 1_555 1_555
O10_4 C36_4 1_555 1_555
C30_4 C31_4 1_555 1_555
C31_4 H17_4 1_555 1_555
C32_4 C4_4 1_555 1_555
C33_4 C32_4 1_555 1_555
H18_4 C33_4 1_555 1_555
C34_4 C33_4 1_555 1_555
C35_4 C30_4 1_555 1_555
H19_4 C35_4 1_555 1_555
C36_4 C34_4 1_555 1_555
Zn17_2 O9_4 1_555 1_555
C6_4 C7_4 1_555 1_555
C6_4 C8_4 1_555 1_555
O10_4 Zn17_2 1_555 1_555
C31_4 C32_4 1_555 1_555
C34_4 C35_4 1_555 1_555
O1_4 C1_4 1_555 1_555
O2_4 C1_4 1_555 1_555
O7_4 C29_4 1_555 1_555
O8_4 C29_4 1_555 1_555
Zn13_4 O1_4 1_555 1_555
Zn14_4 O7_4 1_555 1_555
O2_4 Zn13_4 1_555 1_555
O8_4 Zn14_4 1_555 1_555
Zn17_2 O3_4 1_555 1_555
N26_4 Zn17_2 1_555 1_555
Zn18_2 O19_4 1_555 1_555
O19_4 C55_4 1_555 1_555
O20_4 Zn18_2 1_555 1_555
C53_4 C52_4 1_555 1_555
C54_4 C49_4 1_555 1_555
H25_4 C54_4 1_555 1_555
C55_4 O20_4 1_555 1_555
O33_4 Zn18_2 1_555 1_555
O35_4 Zn18_2 1_555 1_555
N25_4 Zn18_2 1_555 1_555
C53_4 C54_4 1_555 1_555
C53_4 C55_4 1_555 1_555
O17_4 C48_4 1_555 1_555
O18_4 C48_4 1_555 1_555
Zn12_4 O17_4 1_555 1_555
O18_4 Zn12_4 1_555 1_555
C50_4 H23_4 1_555 1_555
C51_4 C50_4 1_555 1_555
O33_4 C78_4 1_555 1_555
O35_4 C78_4 1_555 1_555
C72_4 C73_4 1_555 1_555
C73_4 H38_4 1_555 1_555
C74_4 C51_4 1_555 1_555
C75_4 C74_4 1_555 1_555
H39_4 C75_4 1_555 1_555
C76_4 C75_4 1_555 1_555
C77_4 C72_4 1_555 1_555
H40_4 C77_4 1_555 1_555
C78_4 C76_4 1_555 1_555
C73_4 C74_4 1_555 1_555
C76_4 C77_4 1_555 1_555
O21_4 C71_4 1_555 1_555
O22_4 C71_4 1_555 1_555
Zn11_4 O21_4 1_555 1_555
O22_4 Zn11_4 1_555 1_555
O5_3 C24_3 1_555 1_555
N2_3 C10_3 1_555 1_555
N3_3 C16_3 1_555 1_555
N4_3 C19_3 1_555 1_555
N5_3 C14_3 1_555 1_555
C9_3 N25_3 1_555 1_555
H4_3 C9_3 1_555 1_555
C10_3 C9_3 1_555 1_555
H5_3 C10_3 1_555 1_555
C11_3 N25_3 1_555 1_555
H6_3 C11_3 1_555 1_555
C12_3 N2_3 1_555 1_555
C13_3 C12_3 1_555 1_555
H7_3 C13_3 1_555 1_555
C14_3 C13_3 1_555 1_555
C15_3 C14_3 1_555 1_555
H8_3 C15_3 1_555 1_555
C16_3 C15_3 1_555 1_555
C17_3 C12_3 1_555 1_555
H9_3 C17_3 1_555 1_555
C18_3 N3_3 1_555 1_555
H10_3 C18_3 1_555 1_555
C19_3 C18_3 1_555 1_555
H11_3 C19_3 1_555 1_555
C20_3 N3_3 1_555 1_555
H12_3 C20_3 1_555 1_555
C21_3 N5_3 1_555 1_555
H13_3 C21_3 1_555 1_555
C22_3 N5_3 1_555 1_555
H14_3 C22_3 1_555 1_555
C23_3 N6_3 1_555 1_555
C24_3 C26_3 1_555 1_555
C25_3 C26_3 1_555 1_555
C26_3 C27_3 1_555 1_555
C27_3 H16_3 1_555 1_555
C28_3 C27_3 1_555 1_555
O11_3 C37_3 1_555 1_555
O12_3 C37_3 1_555 1_555
C37_3 C38_3 1_555 1_555
C38_3 C25_3 1_555 1_555
C39_3 C28_3 1_555 1_555
H20_3 C39_3 1_555 1_555
O13_3 C40_3 1_555 1_555
C40_3 C42_3 1_555 1_555
C41_3 C42_3 1_555 1_555
C42_3 C43_3 1_555 1_555
C43_3 H21_3 1_555 1_555
C44_3 C28_3 1_555 1_555
O15_3 C45_3 1_555 1_555
O16_3 C45_3 1_555 1_555
C45_3 C46_3 1_555 1_555
C46_3 C41_3 1_555 1_555
C47_3 C44_3 1_555 1_555
H22_3 C47_3 1_555 1_555
Zn3_3 O12_3 1_555 1_555
N12_3 Zn3_3 1_555 1_555
H36_3 C69_3 1_555 1_555
C70_3 N12_3 1_555 1_555
N25_4 C79_3 1_555 1_555
N14_3 C80_3 1_555 1_555
N15_3 C86_3 1_555 1_555
N16_3 C89_3 1_555 1_555
N17_3 C84_3 1_555 1_555
C79_3 H41_3 1_555 1_555
C80_3 C79_3 1_555 1_555
H42_3 C80_3 1_555 1_555
C81_3 N25_4 1_555 1_555
H43_3 C81_3 1_555 1_555
C82_3 N14_3 1_555 1_555
C83_3 C82_3 1_555 1_555
H44_3 C83_3 1_555 1_555
C84_3 C83_3 1_555 1_555
C85_3 C84_3 1_555 1_555
H45_3 C85_3 1_555 1_555
C86_3 C85_3 1_555 1_555
C87_3 C82_3 1_555 1_555
H46_3 C87_3 1_555 1_555
C88_3 N15_3 1_555 1_555
H47_3 C88_3 1_555 1_555
C89_3 C88_3 1_555 1_555
H48_3 C89_3 1_555 1_555
C90_3 N15_3 1_555 1_555
H49_3 C90_3 1_555 1_555
C91_3 N17_3 1_555 1_555
H50_3 C91_3 1_555 1_555
C92_3 N17_3 1_555 1_555
H51_3 C92_3 1_555 1_555
C93_3 N18_3 1_555 1_555
H52_3 C93_3 1_555 1_555
Zn6_3 O16_3 1_555 1_555
N24_3 Zn6_3 1_555 1_555
H63_3 C107_3 1_555 1_555
C108_3 N24_3 1_555 1_555
H64_3 C108_3 1_555 1_555
Zn7_3 N4_3 1_555 1_555
Zn9_3 N16_3 1_555 1_555
O25_3 Zn3_3 1_555 1_555
O26_3 Zn6_3 1_555 1_555
O29_3 Zn3_3 1_555 1_555
O30_3 Zn6_3 1_555 1_555
N28_3 Zn3_3 1_555 1_555
N30_3 Zn6_3 1_555 1_555
N2_3 C11_3 1_555 1_555
N4_3 C20_3 1_555 1_555
N6_3 C22_3 1_555 1_555
C16_3 C17_3 1_555 1_555
C21_3 C23_3 1_555 1_555
C38_3 C39_3 1_555 1_555
C43_3 C44_3 1_555 1_555
C46_3 C47_3 1_555 1_555
N12_3 C69_3 1_555 1_555
N14_3 C81_3 1_555 1_555
N16_3 C90_3 1_555 1_555
N18_3 C92_3 1_555 1_555
C86_3 C87_3 1_555 1_555
C91_3 C93_3 1_555 1_555
N24_3 C107_3 1_555 1_555
C25_3 H65_3 1_555 1_555
C41_3 H66_3 1_555 1_555
Zn7_3 O6_3 1_555 1_555
N8_3 C57_3 1_555 1_555
N9_3 C63_3 1_555 1_555
N28_3 C66_3 1_555 1_555
N11_3 C61_3 1_555 1_555
C56_3 N26_3 1_555 1_555
C57_3 C56_3 1_555 1_555
H27_3 C57_3 1_555 1_555
C58_3 N26_3 1_555 1_555
H28_3 C58_3 1_555 1_555
C59_3 N8_3 1_555 1_555
C60_3 C59_3 1_555 1_555
H29_3 C60_3 1_555 1_555
C61_3 C60_3 1_555 1_555
C62_3 C61_3 1_555 1_555
H30_3 C62_3 1_555 1_555
C63_3 C62_3 1_555 1_555
C64_3 C59_3 1_555 1_555
H31_3 C64_3 1_555 1_555
C65_3 N9_3 1_555 1_555
H32_3 C65_3 1_555 1_555
C66_3 C65_3 1_555 1_555
H33_3 C66_3 1_555 1_555
C67_3 N9_3 1_555 1_555
H34_3 C67_3 1_555 1_555
C68_3 N11_3 1_555 1_555
H35_3 C68_3 1_555 1_555
Zn9_3 O14_3 1_555 1_555
N26_4 C94_3 1_555 1_555
N20_3 C95_3 1_555 1_555
N21_3 C101_3 1_555 1_555
N30_3 C104_3 1_555 1_555
N23_3 C99_3 1_555 1_555
C95_3 C94_3 1_555 1_555
H54_3 C95_3 1_555 1_555
C96_3 N26_4 1_555 1_555
H55_3 C96_3 1_555 1_555
C97_3 N20_3 1_555 1_555
C98_3 C97_3 1_555 1_555
H56_3 C98_3 1_555 1_555
C99_3 C98_3 1_555 1_555
C100_3 C99_3 1_555 1_555
H57_3 C100_3 1_555 1_555
C101_3 C100_3 1_555 1_555
C102_3 C97_3 1_555 1_555
H58_3 C102_3 1_555 1_555
C103_3 N21_3 1_555 1_555
H59_3 C103_3 1_555 1_555
C104_3 C103_3 1_555 1_555
H60_3 C104_3 1_555 1_555
C105_3 N21_3 1_555 1_555
H61_3 C105_3 1_555 1_555
C106_3 N23_3 1_555 1_555
H62_3 C106_3 1_555 1_555
O27_3 Zn9_3 1_555 1_555
O28_3 Zn7_3 1_555 1_555
O31_3 Zn9_3 1_555 1_555
O32_3 Zn7_3 1_555 1_555
N8_3 C58_3 1_555 1_555
N28_3 C67_3 1_555 1_555
C63_3 C64_3 1_555 1_555
N20_3 C96_3 1_555 1_555
N30_3 C105_3 1_555 1_555
C101_3 C102_3 1_555 1_555
O5_4 C24_4 1_555 1_555
H12_4 C20_4 1_555 1_555
H14_4 C22_4 1_555 1_555
C23_4 N6_4 1_555 1_555
H15_3 C23_4 1_555 1_555
C24_4 C26_4 1_555 1_555
C25_4 C26_4 1_555 1_555
C26_4 C27_4 1_555 1_555
C27_4 H16_4 1_555 1_555
C28_4 C27_4 1_555 1_555
O11_4 C37_4 1_555 1_555
O12_4 C37_4 1_555 1_555
C37_4 C38_4 1_555 1_555
C38_4 C25_4 1_555 1_555
C39_4 C28_4 1_555 1_555
H20_4 C39_4 1_555 1_555
O13_4 C40_4 1_555 1_555
C40_4 C42_4 1_555 1_555
C41_4 C42_4 1_555 1_555
C42_4 C43_4 1_555 1_555
C43_4 H21_4 1_555 1_555
C44_4 C28_4 1_555 1_555
O15_4 C45_4 1_555 1_555
O16_4 C45_4 1_555 1_555
C45_4 C46_4 1_555 1_555
C46_4 C41_4 1_555 1_555
C47_4 C44_4 1_555 1_555
H22_4 C47_4 1_555 1_555
Zn3_4 O12_4 1_555 1_555
N12_4 Zn3_4 1_555 1_555
H36_4 C69_4 1_555 1_555
C70_4 N12_4 1_555 1_555
H37_3 C70_4 1_555 1_555
N25_2 C79_4 1_555 1_555
N14_4 C80_4 1_555 1_555
N15_4 C86_4 1_555 1_555
N16_4 C89_4 1_555 1_555
N17_4 C84_4 1_555 1_555
C79_4 H41_4 1_555 1_555
C80_4 C79_4 1_555 1_555
H42_4 C80_4 1_555 1_555
C81_4 N25_2 1_555 1_555
H43_4 C81_4 1_555 1_555
C82_4 N14_4 1_555 1_555
C83_4 C82_4 1_555 1_555
H44_4 C83_4 1_555 1_555
C84_4 C83_4 1_555 1_555
C85_4 C84_4 1_555 1_555
H45_4 C85_4 1_555 1_555
C86_4 C85_4 1_555 1_555
C87_4 C82_4 1_555 1_555
H46_4 C87_4 1_555 1_555
C88_4 N15_4 1_555 1_555
H47_4 C88_4 1_555 1_555
C89_4 C88_4 1_555 1_555
H48_4 C89_4 1_555 1_555
C90_4 N15_4 1_555 1_555
H49_4 C90_4 1_555 1_555
C91_4 N17_4 1_555 1_555
H50_4 C91_4 1_555 1_555
C92_4 N17_4 1_555 1_555
H51_4 C92_4 1_555 1_555
C93_4 N18_4 1_555 1_555
H52_4 C93_4 1_555 1_555
Zn6_4 O16_4 1_555 1_555
N24_4 Zn6_4 1_555 1_555
H63_4 C107_4 1_555 1_555
C108_4 N24_4 1_555 1_555
H64_4 C108_4 1_555 1_555
Zn7_4 N4_4 1_555 1_555
Zn9_4 N16_4 1_555 1_555
O25_4 Zn3_4 1_555 1_555
O26_4 Zn6_4 1_555 1_555
O29_4 Zn3_4 1_555 1_555
O30_4 Zn6_4 1_555 1_555
N28_4 Zn3_4 1_555 1_555
N30_4 Zn6_4 1_555 1_555
N4_4 C20_4 1_555 1_555
N6_4 C22_4 1_555 1_555
C38_4 C39_4 1_555 1_555
C43_4 C44_4 1_555 1_555
C46_4 C47_4 1_555 1_555
N12_4 C69_4 1_555 1_555
N14_4 C81_4 1_555 1_555
N16_4 C90_4 1_555 1_555
N18_4 C92_4 1_555 1_555
C86_4 C87_4 1_555 1_555
C91_4 C93_4 1_555 1_555
N24_4 C107_4 1_555 1_555
C25_4 H65_4 1_555 1_555
C41_4 H66_4 1_555 1_555
N2_4 C10_4 1_555 1_555
N3_4 C16_4 1_555 1_555
N5_4 C14_4 1_555 1_555
C9_4 N25 1_555 1_555
H4_4 C9_4 1_555 1_555
C10_4 C9_4 1_555 1_555
H5_4 C10_4 1_555 1_555
C11_4 N25 1_555 1_555
H6_4 C11_4 1_555 1_555
C12_4 N2_4 1_555 1_555
C13_4 C12_4 1_555 1_555
H7_4 C13_4 1_555 1_555
C14_4 C13_4 1_555 1_555
C15_4 C14_4 1_555 1_555
H8_4 C15_4 1_555 1_555
C16_4 C15_4 1_555 1_555
C17_4 C12_4 1_555 1_555
H9_4 C17_4 1_555 1_555
C18_4 N3_4 1_555 1_555
H10_4 C18_4 1_555 1_555
C19_4 C18_4 1_555 1_555
H11_4 C19_4 1_555 1_555
C21_4 N5_4 1_555 1_555
H13_4 C21_4 1_555 1_555
N2_4 C11_4 1_555 1_555
C16_4 C17_4 1_555 1_555
Zn7_4 O6_4 1_555 1_555
N8_4 C57_4 1_555 1_555
N9_4 C63_4 1_555 1_555
N28_4 C66_4 1_555 1_555
N11_4 C61_4 1_555 1_555
C56_4 N26 1_555 1_555
C57_4 C56_4 1_555 1_555
H27_4 C57_4 1_555 1_555
C58_4 N26 1_555 1_555
H28_4 C58_4 1_555 1_555
C59_4 N8_4 1_555 1_555
C60_4 C59_4 1_555 1_555
H29_4 C60_4 1_555 1_555
C61_4 C60_4 1_555 1_555
C62_4 C61_4 1_555 1_555
H30_4 C62_4 1_555 1_555
C63_4 C62_4 1_555 1_555
C64_4 C59_4 1_555 1_555
H31_4 C64_4 1_555 1_555
C65_4 N9_4 1_555 1_555
H32_4 C65_4 1_555 1_555
C66_4 C65_4 1_555 1_555
H33_4 C66_4 1_555 1_555
C67_4 N9_4 1_555 1_555
H34_4 C67_4 1_555 1_555
C68_4 N11_4 1_555 1_555
H35_4 C68_4 1_555 1_555
Zn9_4 O14_4 1_555 1_555
H61_4 C105_4 1_555 1_555
O27_4 Zn9_4 1_555 1_555
O28_4 Zn7_4 1_555 1_555
O31_4 Zn9_4 1_555 1_555
O32_4 Zn7_4 1_555 1_555
N8_4 C58_4 1_555 1_555
N28_4 C67_4 1_555 1_555
C63_4 C64_4 1_555 1_555
N30_4 C105_4 1_555 1_555
N26_2 C94_4 1_555 1_555
N20_4 C95_4 1_555 1_555
N21_4 C101_4 1_555 1_555
N23_4 C99_4 1_555 1_555
C95_4 C94_4 1_555 1_555
H54_4 C95_4 1_555 1_555
C96_4 N26_2 1_555 1_555
H55_4 C96_4 1_555 1_555
C97_4 N20_4 1_555 1_555
C98_4 C97_4 1_555 1_555
H56_4 C98_4 1_555 1_555
C99_4 C98_4 1_555 1_555
C100_4 C99_4 1_555 1_555
H57_4 C100_4 1_555 1_555
C101_4 C100_4 1_555 1_555
C102_4 C97_4 1_555 1_555
H58_4 C102_4 1_555 1_555
C103_4 N21_4 1_555 1_555
H59_4 C103_4 1_555 1_555
C104_4 C103_4 1_555 1_555
H60_4 C104_4 1_555 1_555
C106_4 N23_4 1_555 1_555
H62_4 C106_4 1_555 1_555
N20_4 C96_4 1_555 1_555
C101_4 C102_4 1_555 1_555
N10 C66_5 1_555 1_555
C50_5 H23_5 1_555 1_555
C51_5 C50_5 1_555 1_555
H32_5 C65_5 1_555 1_555
C66_5 C65_5 1_555 1_555
H33_5 C66_5 1_555 1_555
O27_2 C71_5 1_555 1_555
O31_2 C71_5 1_555 1_555
O23 C78_5 1_555 1_555
O24 C78_5 1_555 1_555
C71_5 C72_5 1_555 1_555
C72_5 C73_5 1_555 1_555
C73_5 H38_5 1_555 1_555
C74_5 C51_5 1_555 1_555
C75_5 C74_5 1_555 1_555
H39_5 C75_5 1_555 1_555
C76_5 C75_5 1_555 1_555
C77_5 C72_5 1_555 1_555
H40_5 C77_5 1_555 1_555
C78_5 C76_5 1_555 1_555
N22 C104_5 1_555 1_555
H59_5 C103_5 1_555 1_555
C104_5 C103_5 1_555 1_555
H60_5 C104_5 1_555 1_555
Zn12_2 N10 1_555 1_555
Zn12_3 N22 1_555 1_555
Zn16 O23 1_555 1_555
O24 Zn16 1_555 1_555
C73_5 C74_5 1_555 1_555
C76_5 C77_5 1_555 1_555
Zn11_2 O6_5 1_555 1_555
Zn2 O3_5 1_555 1_555
O5_5 C24_5 1_555 1_555
O6_5 C24_5 1_555 1_555
N1_3 Zn2 1_555 1_555
N2_5 C10_5 1_555 1_555
N5_5 C14_5 1_555 1_555
N6_5 Zn11_2 1_555 1_555
C9_5 N1_3 1_555 1_555
H4_5 C9_5 1_555 1_555
C10_5 C9_5 1_555 1_555
H5_5 C10_5 1_555 1_555
C11_5 N1_3 1_555 1_555
H6_5 C11_5 1_555 1_555
C12_5 N2_5 1_555 1_555
C13_5 C12_5 1_555 1_555
H7_5 C13_5 1_555 1_555
C14_5 C13_5 1_555 1_555
C15_5 C14_5 1_555 1_555
C21_5 N5_5 1_555 1_555
H13_5 C21_5 1_555 1_555
C22_5 N5_5 1_555 1_555
H14_5 C22_5 1_555 1_555
C23_5 N6_5 1_555 1_555
H15_4 C23_5 1_555 1_555
C24_5 C26_5 1_555 1_555
C25_5 C26_5 1_555 1_555
C26_5 C27_5 1_555 1_555
C27_5 H16_5 1_555 1_555
C28_5 C27_5 1_555 1_555
O11_5 C37_5 1_555 1_555
O12_5 C37_5 1_555 1_555
C37_5 C38_5 1_555 1_555
C38_5 C25_5 1_555 1_555
C39_5 C28_5 1_555 1_555
H20_5 C39_5 1_555 1_555
O13_5 C40_5 1_555 1_555
O14_5 C40_5 1_555 1_555
C40_5 C42_5 1_555 1_555
C41_5 C42_5 1_555 1_555
C42_5 C43_5 1_555 1_555
C43_5 H21_5 1_555 1_555
C44_5 C28_5 1_555 1_555
O15_5 C45_5 1_555 1_555
O16_5 C45_5 1_555 1_555
C45_5 C46_5 1_555 1_555
C46_5 C41_5 1_555 1_555
C47_5 C44_5 1_555 1_555
H22_5 C47_5 1_555 1_555
Zn12_2 O12_5 1_555 1_555
Zn16 O19_5 1_555 1_555
O26_2 C48_5 1_555 1_555
O30_2 C48_5 1_555 1_555
O19_5 C55_5 1_555 1_555
O20_5 Zn16 1_555 1_555
N7_3 Zn16 1_555 1_555
N8_5 C57_5 1_555 1_555
N9_5 C63_5 1_555 1_555
N11_5 C61_5 1_555 1_555
N12_5 Zn12_2 1_555 1_555
C48_5 C49_5 1_555 1_555
C53_5 C52_5 1_555 1_555
C54_5 C49_5 1_555 1_555
H25_5 C54_5 1_555 1_555
C55_5 O20_5 1_555 1_555
C56_5 N7_3 1_555 1_555
H26_5 C56_5 1_555 1_555
C57_5 C56_5 1_555 1_555
H27_5 C57_5 1_555 1_555
C58_5 N7_3 1_555 1_555
H28_5 C58_5 1_555 1_555
C59_5 N8_5 1_555 1_555
C60_5 C59_5 1_555 1_555
H29_5 C60_5 1_555 1_555
C61_5 C60_5 1_555 1_555
C62_5 C61_5 1_555 1_555
H30_5 C62_5 1_555 1_555
C63_5 C62_5 1_555 1_555
C64_5 C59_5 1_555 1_555
H31_5 C64_5 1_555 1_555
C67_5 N9_5 1_555 1_555
H34_5 C67_5 1_555 1_555
C68_5 N11_5 1_555 1_555
H35_5 C68_5 1_555 1_555
C69_5 N11_5 1_555 1_555
H36_5 C69_5 1_555 1_555
C70_5 N12_5 1_555 1_555
H37_4 C70_5 1_555 1_555
Zn11_3 O14_5 1_555 1_555
N13_3 C79_5 1_555 1_555
N14_5 C80_5 1_555 1_555
N17_5 C84_5 1_555 1_555
N18_5 Zn11_3 1_555 1_555
C79_5 H41_5 1_555 1_555
C80_5 C79_5 1_555 1_555
H42_5 C80_5 1_555 1_555
C81_5 N13_3 1_555 1_555
H43_5 C81_5 1_555 1_555
C82_5 N14_5 1_555 1_555
C83_5 C82_5 1_555 1_555
H44_5 C83_5 1_555 1_555
C84_5 C83_5 1_555 1_555
C85_5 C84_5 1_555 1_555
C91_5 N17_5 1_555 1_555
H50_5 C91_5 1_555 1_555
C92_5 N17_5 1_555 1_555
H51_5 C92_5 1_555 1_555
C93_5 N18_5 1_555 1_555
H52_5 C93_5 1_555 1_555
Zn12_3 O16_5 1_555 1_555
N19_3 C94_5 1_555 1_555
N20_5 C95_5 1_555 1_555
N21_5 C101_5 1_555 1_555
N23_5 C99_5 1_555 1_555
N24_5 Zn12_3 1_555 1_555
C94_5 H53_5 1_555 1_555
C95_5 C94_5 1_555 1_555
H54_5 C95_5 1_555 1_555
C96_5 N19_3 1_555 1_555
H55_5 C96_5 1_555 1_555
C97_5 N20_5 1_555 1_555
C98_5 C97_5 1_555 1_555
H56_5 C98_5 1_555 1_555
C99_5 C98_5 1_555 1_555
C100_5 C99_5 1_555 1_555
H57_5 C100_5 1_555 1_555
C101_5 C100_5 1_555 1_555
C102_5 C97_5 1_555 1_555
H58_5 C102_5 1_555 1_555
C105_5 N21_5 1_555 1_555
H61_5 C105_5 1_555 1_555
C106_5 N23_5 1_555 1_555
H62_5 C106_5 1_555 1_555
C107_5 N23_5 1_555 1_555
H63_5 C107_5 1_555 1_555
C108_5 N24_5 1_555 1_555
H64_5 C108_5 1_555 1_555
Zn17_3 N13_3 1_555 1_555
Zn18_3 N19_3 1_555 1_555
O34 Zn2 1_555 1_555
O36 Zn2 1_555 1_555
N25_5 Zn16 1_555 1_555
N26_5 Zn2 1_555 1_555
N27 Zn11_2 1_555 1_555
N29 Zn11_3 1_555 1_555
N2_5 C11_5 1_555 1_555
N6_5 C22_5 1_555 1_555
C21_5 C23_5 1_555 1_555
C38_5 C39_5 1_555 1_555
C43_5 C44_5 1_555 1_555
C46_5 C47_5 1_555 1_555
N8_5 C58_5 1_555 1_555
N12_5 C69_5 1_555 1_555
C53_5 C54_5 1_555 1_555
C53_5 C55_5 1_555 1_555
C63_5 C64_5 1_555 1_555
C68_5 C70_5 1_555 1_555
N14_5 C81_5 1_555 1_555
N18_5 C92_5 1_555 1_555
C91_5 C93_5 1_555 1_555
N20_5 C96_5 1_555 1_555
N24_5 C107_5 1_555 1_555
C101_5 C102_5 1_555 1_555
C106_5 C108_5 1_555 1_555
C25_5 H65_5 1_555 1_555
C41_5 H66_5 1_555 1_555
O27_3 C1_5 1_555 1_555
O31_3 C1_5 1_555 1_555
N3_5 C16_5 1_555 1_555
N27 C19_5 1_555 1_555
C1_5 C2_5 1_555 1_555
C2_5 C3_5 1_555 1_555
C3_5 H1_5 1_555 1_555
C4_5 C3_5 1_555 1_555
C5_5 C4_5 1_555 1_555
H2_5 C5_5 1_555 1_555
C6_5 C5_5 1_555 1_555
C7_5 C2_5 1_555 1_555
H3_5 C7_5 1_555 1_555
C8_5 O4_5 1_555 1_555
H9_5 C17_5 1_555 1_555
C18_5 N3_5 1_555 1_555
H10_5 C18_5 1_555 1_555
C19_5 C18_5 1_555 1_555
H11_5 C19_5 1_555 1_555
C20_5 N3_5 1_555 1_555
H12_5 C20_5 1_555 1_555
O26_3 C29_5 1_555 1_555
O30_3 C29_5 1_555 1_555
O34 C36_5 1_555 1_555
O36 C36_5 1_555 1_555
C29_5 C30_5 1_555 1_555
C30_5 C31_5 1_555 1_555
C31_5 H17_5 1_555 1_555
C32_5 C4_5 1_555 1_555
C33_5 C32_5 1_555 1_555
H18_5 C33_5 1_555 1_555
C34_5 C33_5 1_555 1_555
C35_5 C30_5 1_555 1_555
H19_5 C35_5 1_555 1_555
C36_5 C34_5 1_555 1_555
N15_5 C86_5 1_555 1_555
N29 C89_5 1_555 1_555
H46_5 C87_5 1_555 1_555
C88_5 N15_5 1_555 1_555
H47_5 C88_5 1_555 1_555
C89_5 C88_5 1_555 1_555
H48_5 C89_5 1_555 1_555
C90_5 N15_5 1_555 1_555
H49_5 C90_5 1_555 1_555
N27 C20_5 1_555 1_555
C6_5 C7_5 1_555 1_555
C6_5 C8_5 1_555 1_555
C16_5 C17_5 1_555 1_555
C31_5 C32_5 1_555 1_555
C34_5 C35_5 1_555 1_555
N29 C90_5 1_555 1_555
C86_5 C87_5 1_555 1_555
C50_6 H23_6 1_555 1_555
C51_6 C50_6 1_555 1_555
O28 C71_6 1_555 1_555
O32 C71_6 1_555 1_555
O23_2 C78_6 1_555 1_555
O24_2 C78_6 1_555 1_555
C71_6 C72_6 1_555 1_555
C72_6 C73_6 1_555 1_555
C73_6 H38_6 1_555 1_555
C74_6 C51_6 1_555 1_555
C75_6 C74_6 1_555 1_555
H39_6 C75_6 1_555 1_555
C76_6 C75_6 1_555 1_555
C77_6 C72_6 1_555 1_555
H40_6 C77_6 1_555 1_555
C78_6 C76_6 1_555 1_555
Zn18_3 O23_2 1_555 1_555
O24_2 Zn18_3 1_555 1_555
C73_6 C74_6 1_555 1_555
C76_6 C77_6 1_555 1_555
Zn17_3 O3_6 1_555 1_555
Zn18_3 O19_6 1_555 1_555
O25 C48_6 1_555 1_555
O29 C48_6 1_555 1_555
O19_6 C55_6 1_555 1_555
O20_6 Zn18_3 1_555 1_555
C48_6 C49_6 1_555 1_555
C53_6 C52_6 1_555 1_555
C54_6 C49_6 1_555 1_555
H25_6 C54_6 1_555 1_555
C55_6 O20_6 1_555 1_555
O34_2 Zn17_3 1_555 1_555
O36_2 Zn17_3 1_555 1_555
N25_6 Zn18_3 1_555 1_555
N26_6 Zn17_3 1_555 1_555
C53_6 C54_6 1_555 1_555
C53_6 C55_6 1_555 1_555
O28_4 C1_6 1_555 1_555
O32_4 C1_6 1_555 1_555
C1_6 C2_6 1_555 1_555
C2_6 C3_6 1_555 1_555
C3_6 H1_6 1_555 1_555
C4_6 C3_6 1_555 1_555
C5_6 C4_6 1_555 1_555
H2_6 C5_6 1_555 1_555
C6_6 C5_6 1_555 1_555
C7_6 C2_6 1_555 1_555
H3_6 C7_6 1_555 1_555
C8_6 O4_6 1_555 1_555
O25_4 C29_6 1_555 1_555
O29_4 C29_6 1_555 1_555
O34_2 C36_6 1_555 1_555
O36_2 C36_6 1_555 1_555
C29_6 C30_6 1_555 1_555
C30_6 C31_6 1_555 1_555
C31_6 H17_6 1_555 1_555
C32_6 C4_6 1_555 1_555
C33_6 C32_6 1_555 1_555
H18_6 C33_6 1_555 1_555
C34_6 C33_6 1_555 1_555
C35_6 C30_6 1_555 1_555
H19_6 C35_6 1_555 1_555
C36_6 C34_6 1_555 1_555
C6_6 C7_6 1_555 1_555
C6_6 C8_6 1_555 1_555
C31_6 C32_6 1_555 1_555
C34_6 C35_6 1_555 1_555
H59_6 C103_6 1_555 1_555
C104_6 C103_6 1_555 1_555
H60_6 C104_6 1_555 1_555
N10_2 C66_6 1_555 1_555
C50_7 H23_7 1_555 1_555
C51_7 C50_7 1_555 1_555
H32_6 C65_6 1_555 1_555
C66_6 C65_6 1_555 1_555
H33_6 C66_6 1_555 1_555
O27 C71_7 1_555 1_555
O31 C71_7 1_555 1_555
O23_3 C78_7 1_555 1_555
O24_3 C78_7 1_555 1_555
C71_7 C72_7 1_555 1_555
C72_7 C73_7 1_555 1_555
C73_7 H38_7 1_555 1_555
C74_7 C51_7 1_555 1_555
C75_7 C74_7 1_555 1_555
H39_7 C75_7 1_555 1_555
C76_7 C75_7 1_555 1_555
C77_7 C72_7 1_555 1_555
H40_7 C77_7 1_555 1_555
C78_7 C76_7 1_555 1_555
Zn12_4 N10_2 1_555 1_555
Zn12 N22_2 1_555 1_555
Zn16_2 O23_3 1_555 1_555
O24_3 Zn16_2 1_555 1_555
C73_7 C74_7 1_555 1_555
C76_7 C77_7 1_555 1_555
Zn2_2 O3_7 1_555 1_555
N1_4 Zn2_2 1_555 1_555
N2_6 C10_6 1_555 1_555
N5_6 C14_6 1_555 1_555
C9_6 N1_4 1_555 1_555
H4_6 C9_6 1_555 1_555
C10_6 C9_6 1_555 1_555
H5_6 C10_6 1_555 1_555
C11_6 N1_4 1_555 1_555
H6_6 C11_6 1_555 1_555
C12_6 N2_6 1_555 1_555
C13_6 C12_6 1_555 1_555
H7_6 C13_6 1_555 1_555
C14_6 C13_6 1_555 1_555
C15_6 C14_6 1_555 1_555
C21_6 N5_6 1_555 1_555
H13_6 C21_6 1_555 1_555
N19_4 C94_6 1_555 1_555
N20_6 C95_6 1_555 1_555
N21_6 C101_6 1_555 1_555
N23_6 C99_6 1_555 1_555
C94_6 H53_6 1_555 1_555
C95_6 C94_6 1_555 1_555
H54_6 C95_6 1_555 1_555
C96_6 N19_4 1_555 1_555
H55_6 C96_6 1_555 1_555
C97_6 N20_6 1_555 1_555
C98_6 C97_6 1_555 1_555
H56_6 C98_6 1_555 1_555
C99_6 C98_6 1_555 1_555
C100_6 C99_6 1_555 1_555
H57_6 C100_6 1_555 1_555
C101_6 C100_6 1_555 1_555
C102_6 C97_6 1_555 1_555
H58_6 C102_6 1_555 1_555
C106_6 N23_6 1_555 1_555
H62_6 C106_6 1_555 1_555
Zn18_4 N19_4 1_555 1_555
O34_3 Zn2_2 1_555 1_555
O36_3 Zn2_2 1_555 1_555
N26_7 Zn2_2 1_555 1_555
N2_6 C11_6 1_555 1_555
N20_6 C96_6 1_555 1_555
C101_6 C102_6 1_555 1_555
Zn11_4 O6_6 1_555 1_555
O5_6 C24_6 1_555 1_555
O6_6 C24_6 1_555 1_555
N6_6 Zn11_4 1_555 1_555
H14_6 C22_6 1_555 1_555
C23_6 N6_6 1_555 1_555
C24_6 C26_6 1_555 1_555
C25_6 C26_6 1_555 1_555
C26_6 C27_6 1_555 1_555
C27_6 H16_6 1_555 1_555
C28_6 C27_6 1_555 1_555
O11_6 C37_6 1_555 1_555
O12_6 C37_6 1_555 1_555
C37_6 C38_6 1_555 1_555
C38_6 C25_6 1_555 1_555
C39_6 C28_6 1_555 1_555
H20_6 C39_6 1_555 1_555
O13_6 C40_6 1_555 1_555
O14_6 C40_6 1_555 1_555
C40_6 C42_6 1_555 1_555
C41_6 C42_6 1_555 1_555
C42_6 C43_6 1_555 1_555
C43_6 H21_6 1_555 1_555
C44_6 C28_6 1_555 1_555
O15_6 C45_6 1_555 1_555
O16_6 C45_6 1_555 1_555
C45_6 C46_6 1_555 1_555
C46_6 C41_6 1_555 1_555
C47_6 C44_6 1_555 1_555
H22_6 C47_6 1_555 1_555
Zn12_4 O12_6 1_555 1_555
Zn16_2 O19_7 1_555 1_555
O26 C48_7 1_555 1_555
O30 C48_7 1_555 1_555
O19_7 C55_7 1_555 1_555
O20_7 Zn16_2 1_555 1_555
N7_4 Zn16_2 1_555 1_555
N8_6 C57_6 1_555 1_555
N9_6 C63_6 1_555 1_555
N11_6 C61_6 1_555 1_555
N12_6 Zn12_4 1_555 1_555
C48_7 C49_7 1_555 1_555
C53_7 C52_7 1_555 1_555
C54_7 C49_7 1_555 1_555
H25_7 C54_7 1_555 1_555
C55_7 O20_7 1_555 1_555
C56_6 N7_4 1_555 1_555
H26_6 C56_6 1_555 1_555
C57_6 C56_6 1_555 1_555
H27_6 C57_6 1_555 1_555
C58_6 N7_4 1_555 1_555
H28_6 C58_6 1_555 1_555
C59_6 N8_6 1_555 1_555
C60_6 C59_6 1_555 1_555
H29_6 C60_6 1_555 1_555
C61_6 C60_6 1_555 1_555
C62_6 C61_6 1_555 1_555
H30_6 C62_6 1_555 1_555
C63_6 C62_6 1_555 1_555
C64_6 C59_6 1_555 1_555
H31_6 C64_6 1_555 1_555
C67_6 N9_6 1_555 1_555
H34_6 C67_6 1_555 1_555
C68_6 N11_6 1_555 1_555
H35_6 C68_6 1_555 1_555
C69_6 N11_6 1_555 1_555
H36_6 C69_6 1_555 1_555
C70_6 N12_6 1_555 1_555
Zn11 O14_6 1_555 1_555
N13_4 C79_6 1_555 1_555
N14_6 C80_6 1_555 1_555
N17_6 C84_6 1_555 1_555
N18_6 Zn11 1_555 1_555
C79_6 H41_6 1_555 1_555
C80_6 C79_6 1_555 1_555
H42_6 C80_6 1_555 1_555
C81_6 N13_4 1_555 1_555
H43_6 C81_6 1_555 1_555
C82_6 N14_6 1_555 1_555
C83_6 C82_6 1_555 1_555
H44_6 C83_6 1_555 1_555
C84_6 C83_6 1_555 1_555
C85_6 C84_6 1_555 1_555
C91_6 N17_6 1_555 1_555
H50_6 C91_6 1_555 1_555
C92_6 N17_6 1_555 1_555
H51_6 C92_6 1_555 1_555
C93_6 N18_6 1_555 1_555
H52_6 C93_6 1_555 1_555
Zn12 O16_6 1_555 1_555
N24_6 Zn12 1_555 1_555
H61_6 C105_6 1_555 1_555
H63_6 C107_6 1_555 1_555
C108_6 N24_6 1_555 1_555
H64_6 C108_6 1_555 1_555
Zn17_4 N13_4 1_555 1_555
N25_7 Zn16_2 1_555 1_555
N27_2 Zn11_4 1_555 1_555
N29_2 Zn11 1_555 1_555
N6_6 C22_6 1_555 1_555
C38_6 C39_6 1_555 1_555
C43_6 C44_6 1_555 1_555
C46_6 C47_6 1_555 1_555
N8_6 C58_6 1_555 1_555
N12_6 C69_6 1_555 1_555
C53_7 C54_7 1_555 1_555
C53_7 C55_7 1_555 1_555
C63_6 C64_6 1_555 1_555
C68_6 C70_6 1_555 1_555
N14_6 C81_6 1_555 1_555
N18_6 C92_6 1_555 1_555
C91_6 C93_6 1_555 1_555
N24_6 C107_6 1_555 1_555
C25_6 H65_6 1_555 1_555
C41_6 H66_6 1_555 1_555
O27_4 C1_7 1_555 1_555
O31_4 C1_7 1_555 1_555
N3_6 C16_6 1_555 1_555
C1_7 C2_7 1_555 1_555
C2_7 C3_7 1_555 1_555
C3_7 H1_7 1_555 1_555
C4_7 C3_7 1_555 1_555
C5_7 C4_7 1_555 1_555
H2_7 C5_7 1_555 1_555
C6_7 C5_7 1_555 1_555
C7_7 C2_7 1_555 1_555
H3_7 C7_7 1_555 1_555
C8_7 O4_7 1_555 1_555
H9_6 C17_6 1_555 1_555
C18_6 N3_6 1_555 1_555
H10_6 C18_6 1_555 1_555
C19_6 C18_6 1_555 1_555
H11_6 C19_6 1_555 1_555
O26_4 C29_7 1_555 1_555
O30_4 C29_7 1_555 1_555
O34_3 C36_7 1_555 1_555
O36_3 C36_7 1_555 1_555
C29_7 C30_7 1_555 1_555
C30_7 C31_7 1_555 1_555
C31_7 H17_7 1_555 1_555
C32_7 C4_7 1_555 1_555
C33_7 C32_7 1_555 1_555
H18_7 C33_7 1_555 1_555
C34_7 C33_7 1_555 1_555
C35_7 C30_7 1_555 1_555
H19_7 C35_7 1_555 1_555
C36_7 C34_7 1_555 1_555
C6_7 C7_7 1_555 1_555
C6_7 C8_7 1_555 1_555
C16_6 C17_6 1_555 1_555
C31_7 C32_7 1_555 1_555
C34_7 C35_7 1_555 1_555
H12_6 C20_6 1_555 1_555
N15_6 C86_6 1_555 1_555
N29_2 C89_6 1_555 1_555
H46_6 C87_6 1_555 1_555
C88_6 N15_6 1_555 1_555
H47_6 C88_6 1_555 1_555
C89_6 C88_6 1_555 1_555
H48_6 C89_6 1_555 1_555
C90_6 N15_6 1_555 1_555
H49_6 C90_6 1_555 1_555
N27_2 C20_6 1_555 1_555
N29_2 C90_6 1_555 1_555
C86_6 C87_6 1_555 1_555
O28_2 C71_8 1_555 1_555
O32_2 C71_8 1_555 1_555
C50_8 H23_8 1_555 1_555
C51_8 C50_8 1_555 1_555
O23_4 C78_8 1_555 1_555
O24_4 C78_8 1_555 1_555
C72_8 C73_8 1_555 1_555
C73_8 H38_8 1_555 1_555
C74_8 C51_8 1_555 1_555
C75_8 C74_8 1_555 1_555
H39_8 C75_8 1_555 1_555
C76_8 C75_8 1_555 1_555
C77_8 C72_8 1_555 1_555
H40_8 C77_8 1_555 1_555
C78_8 C76_8 1_555 1_555
Zn18_4 O23_4 1_555 1_555
O24_4 Zn18_4 1_555 1_555
C73_8 C74_8 1_555 1_555
C76_8 C77_8 1_555 1_555
O25_2 C48_8 1_555 1_555
O29_2 C48_8 1_555 1_555
Zn18_4 O19_8 1_555 1_555
O19_8 C55_8 1_555 1_555
O20_8 Zn18_4 1_555 1_555
C53_8 C52_8 1_555 1_555
C54_8 C49_8 1_555 1_555
H25_8 C54_8 1_555 1_555
C55_8 O20_8 1_555 1_555
N25_8 Zn18_4 1_555 1_555
C53_8 C54_8 1_555 1_555
C53_8 C55_8 1_555 1_555
Zn17_4 O3_8 1_555 1_555
O34_4 Zn17_4 1_555 1_555
O36_4 Zn17_4 1_555 1_555
N26_8 Zn17_4 1_555 1_555
O28_3 C1_8 1_555 1_555
O32_3 C1_8 1_555 1_555
O25_3 C29_8 1_555 1_555
O29_3 C29_8 1_555 1_555
C2_8 C3_8 1_555 1_555
C3_8 H1_8 1_555 1_555
C4_8 C3_8 1_555 1_555
C5_8 C4_8 1_555 1_555
H2_8 C5_8 1_555 1_555
C6_8 C5_8 1_555 1_555
C7_8 C2_8 1_555 1_555
H3_8 C7_8 1_555 1_555
C8_8 O4_8 1_555 1_555
O34_4 C36_8 1_555 1_555
O36_4 C36_8 1_555 1_555
C30_8 C31_8 1_555 1_555
C31_8 H17_8 1_555 1_555
C32_8 C4_8 1_555 1_555
C33_8 C32_8 1_555 1_555
H18_8 C33_8 1_555 1_555
C34_8 C33_8 1_555 1_555
C35_8 C30_8 1_555 1_555
H19_8 C35_8 1_555 1_555
C36_8 C34_8 1_555 1_555
C6_8 C7_8 1_555 1_555
C6_8 C8_8 1_555 1_555
C31_8 C32_8 1_555 1_555
C34_8 C35_8 1_555 1_555
Zn13_4 O6_7 1_555 1_555
N8_7 C57_7 1_555 1_555
N9_7 C63_7 1_555 1_555
N10_3 C66_7 1_555 1_555
N11_7 C61_7 1_555 1_555
C56_7 N26_7 1_555 1_555
C57_7 C56_7 1_555 1_555
H27_7 C57_7 1_555 1_555
C58_7 N26_7 1_555 1_555
H28_7 C58_7 1_555 1_555
C59_7 N8_7 1_555 1_555
C60_7 C59_7 1_555 1_555
H29_7 C60_7 1_555 1_555
C61_7 C60_7 1_555 1_555
C62_7 C61_7 1_555 1_555
H30_7 C62_7 1_555 1_555
C63_7 C62_7 1_555 1_555
C64_7 C59_7 1_555 1_555
H31_7 C64_7 1_555 1_555
C65_7 N9_7 1_555 1_555
H32_7 C65_7 1_555 1_555
C66_7 C65_7 1_555 1_555
H33_7 C66_7 1_555 1_555
C67_7 N9_7 1_555 1_555
H34_7 C67_7 1_555 1_555
C68_7 N11_7 1_555 1_555
H35_7 C68_7 1_555 1_555
Zn13 O14_7 1_555 1_555
N26_8 C94_7 1_555 1_555
N20_7 C95_7 1_555 1_555
N21_7 C101_7 1_555 1_555
N22_3 C104_7 1_555 1_555
N23_7 C99_7 1_555 1_555
C95_7 C94_7 1_555 1_555
H54_7 C95_7 1_555 1_555
C96_7 N26_8 1_555 1_555
H55_7 C96_7 1_555 1_555
C97_7 N20_7 1_555 1_555
C98_7 C97_7 1_555 1_555
H56_7 C98_7 1_555 1_555
C99_7 C98_7 1_555 1_555
C100_7 C99_7 1_555 1_555
H57_7 C100_7 1_555 1_555
C101_7 C100_7 1_555 1_555
C102_7 C97_7 1_555 1_555
H58_7 C102_7 1_555 1_555
C103_7 N21_7 1_555 1_555
H59_7 C103_7 1_555 1_555
C104_7 C103_7 1_555 1_555
H60_7 C104_7 1_555 1_555
C105_7 N21_7 1_555 1_555
H61_7 C105_7 1_555 1_555
C106_7 N23_7 1_555 1_555
H62_7 C106_7 1_555 1_555
Zn14_4 N10_3 1_555 1_555
Zn14 N22_3 1_555 1_555
N27_3 Zn13_4 1_555 1_555
N29_3 Zn13 1_555 1_555
N8_7 C58_7 1_555 1_555
N10_3 C67_7 1_555 1_555
C63_7 C64_7 1_555 1_555
N20_7 C96_7 1_555 1_555
N22_3 C105_7 1_555 1_555
C101_7 C102_7 1_555 1_555
O5_7 C24_7 1_555 1_555
N2_7 C10_7 1_555 1_555
N3_7 C16_7 1_555 1_555
N27_3 C19_7 1_555 1_555
N5_7 C14_7 1_555 1_555
C9_7 N25_7 1_555 1_555
H4_7 C9_7 1_555 1_555
C10_7 C9_7 1_555 1_555
H5_7 C10_7 1_555 1_555
C11_7 N25_7 1_555 1_555
H6_7 C11_7 1_555 1_555
C12_7 N2_7 1_555 1_555
C13_7 C12_7 1_555 1_555
H7_7 C13_7 1_555 1_555
C14_7 C13_7 1_555 1_555
C15_7 C14_7 1_555 1_555
H8_7 C15_7 1_555 1_555
C16_7 C15_7 1_555 1_555
C17_7 C12_7 1_555 1_555
H9_7 C17_7 1_555 1_555
C18_7 N3_7 1_555 1_555
H10_7 C18_7 1_555 1_555
C19_7 C18_7 1_555 1_555
H11_7 C19_7 1_555 1_555
C20_7 N3_7 1_555 1_555
H12_7 C20_7 1_555 1_555
C21_7 N5_7 1_555 1_555
H13_7 C21_7 1_555 1_555
C22_7 N5_7 1_555 1_555
H14_7 C22_7 1_555 1_555
C23_7 N6_7 1_555 1_555
C24_7 C26_7 1_555 1_555
C25_7 C26_7 1_555 1_555
C26_7 C27_7 1_555 1_555
C27_7 H16_7 1_555 1_555
C28_7 C27_7 1_555 1_555
O11_7 C37_7 1_555 1_555
O12_7 C37_7 1_555 1_555
C37_7 C38_7 1_555 1_555
C38_7 C25_7 1_555 1_555
C39_7 C28_7 1_555 1_555
H20_7 C39_7 1_555 1_555
O13_7 C40_7 1_555 1_555
C40_7 C42_7 1_555 1_555
C41_7 C42_7 1_555 1_555
C42_7 C43_7 1_555 1_555
C43_7 H21_7 1_555 1_555
C44_7 C28_7 1_555 1_555
O15_7 C45_7 1_555 1_555
O16_7 C45_7 1_555 1_555
C45_7 C46_7 1_555 1_555
C46_7 C41_7 1_555 1_555
C47_7 C44_7 1_555 1_555
H22_7 C47_7 1_555 1_555
Zn14_4 O12_7 1_555 1_555
N12_7 Zn14_4 1_555 1_555
H36_7 C69_7 1_555 1_555
C70_7 N12_7 1_555 1_555
N25_8 C79_7 1_555 1_555
N14_7 C80_7 1_555 1_555
N15_7 C86_7 1_555 1_555
N29_3 C89_7 1_555 1_555
N17_7 C84_7 1_555 1_555
C79_7 H41_7 1_555 1_555
C80_7 C79_7 1_555 1_555
H42_7 C80_7 1_555 1_555
C81_7 N25_8 1_555 1_555
H43_7 C81_7 1_555 1_555
C82_7 N14_7 1_555 1_555
C83_7 C82_7 1_555 1_555
H44_7 C83_7 1_555 1_555
C84_7 C83_7 1_555 1_555
C85_7 C84_7 1_555 1_555
H45_7 C85_7 1_555 1_555
C86_7 C85_7 1_555 1_555
C87_7 C82_7 1_555 1_555
H46_7 C87_7 1_555 1_555
C88_7 N15_7 1_555 1_555
H47_7 C88_7 1_555 1_555
C89_7 C88_7 1_555 1_555
H48_7 C89_7 1_555 1_555
C90_7 N15_7 1_555 1_555
H49_7 C90_7 1_555 1_555
C91_7 N17_7 1_555 1_555
H50_7 C91_7 1_555 1_555
C92_7 N17_7 1_555 1_555
H51_7 C92_7 1_555 1_555
C93_7 N18_7 1_555 1_555
H52_7 C93_7 1_555 1_555
Zn14 O16_7 1_555 1_555
N24_7 Zn14 1_555 1_555
H63_7 C107_7 1_555 1_555
C108_7 N24_7 1_555 1_555
H64_7 C108_7 1_555 1_555
N2_7 C11_7 1_555 1_555
N27_3 C20_7 1_555 1_555
N6_7 C22_7 1_555 1_555
C16_7 C17_7 1_555 1_555
C21_7 C23_7 1_555 1_555
C38_7 C39_7 1_555 1_555
C43_7 C44_7 1_555 1_555
C46_7 C47_7 1_555 1_555
N12_7 C69_7 1_555 1_555
N14_7 C81_7 1_555 1_555
N29_3 C90_7 1_555 1_555
N18_7 C92_7 1_555 1_555
C86_7 C87_7 1_555 1_555
C91_7 C93_7 1_555 1_555
N24_7 C107_7 1_555 1_555
C25_7 H65_7 1_555 1_555
C41_7 H66_7 1_555 1_555
N26_6 C94_8 1_555 1_555
N20_8 C95_8 1_555 1_555
N21_8 C101_8 1_555 1_555
N23_8 C99_8 1_555 1_555
C95_8 C94_8 1_555 1_555
H54_8 C95_8 1_555 1_555
C96_8 N26_6 1_555 1_555
H55_8 C96_8 1_555 1_555
C97_8 N20_8 1_555 1_555
C98_8 C97_8 1_555 1_555
H56_8 C98_8 1_555 1_555
C99_8 C98_8 1_555 1_555
C100_8 C99_8 1_555 1_555
H57_8 C100_8 1_555 1_555
C101_8 C100_8 1_555 1_555
C102_8 C97_8 1_555 1_555
H58_8 C102_8 1_555 1_555
C103_8 N21_8 1_555 1_555
H59_8 C103_8 1_555 1_555
C104_8 C103_8 1_555 1_555
H60_8 C104_8 1_555 1_555
C106_8 N23_8 1_555 1_555
H62_8 C106_8 1_555 1_555
N20_8 C96_8 1_555 1_555
C101_8 C102_8 1_555 1_555
Zn13_2 O6_8 1_555 1_555
N8_8 C57_8 1_555 1_555
N9_8 C63_8 1_555 1_555
N10_4 C66_8 1_555 1_555
N11_8 C61_8 1_555 1_555
C56_8 N26_5 1_555 1_555
C57_8 C56_8 1_555 1_555
H27_8 C57_8 1_555 1_555
C58_8 N26_5 1_555 1_555
H28_8 C58_8 1_555 1_555
C59_8 N8_8 1_555 1_555
C60_8 C59_8 1_555 1_555
H29_8 C60_8 1_555 1_555
C61_8 C60_8 1_555 1_555
C62_8 C61_8 1_555 1_555
H30_8 C62_8 1_555 1_555
C63_8 C62_8 1_555 1_555
C64_8 C59_8 1_555 1_555
H31_8 C64_8 1_555 1_555
C65_8 N9_8 1_555 1_555
H32_8 C65_8 1_555 1_555
C66_8 C65_8 1_555 1_555
H33_8 C66_8 1_555 1_555
C67_8 N9_8 1_555 1_555
H34_8 C67_8 1_555 1_555
C68_8 N11_8 1_555 1_555
H35_8 C68_8 1_555 1_555
Zn13_3 O14_8 1_555 1_555
H61_8 C105_8 1_555 1_555
Zn14_2 N10_4 1_555 1_555
Zn14_3 N22_4 1_555 1_555
N27_4 Zn13_2 1_555 1_555
N29_4 Zn13_3 1_555 1_555
N8_8 C58_8 1_555 1_555
N10_4 C67_8 1_555 1_555
C63_8 C64_8 1_555 1_555
N22_4 C105_8 1_555 1_555
N2_8 C10_8 1_555 1_555
N3_8 C16_8 1_555 1_555
N5_8 C14_8 1_555 1_555
C9_8 N25_5 1_555 1_555
H4_8 C9_8 1_555 1_555
C10_8 C9_8 1_555 1_555
H5_8 C10_8 1_555 1_555
C11_8 N25_5 1_555 1_555
H6_8 C11_8 1_555 1_555
C12_8 N2_8 1_555 1_555
C13_8 C12_8 1_555 1_555
H7_8 C13_8 1_555 1_555
C14_8 C13_8 1_555 1_555
C15_8 C14_8 1_555 1_555
H8_8 C15_8 1_555 1_555
C16_8 C15_8 1_555 1_555
C17_8 C12_8 1_555 1_555
H9_8 C17_8 1_555 1_555
C18_8 N3_8 1_555 1_555
H10_8 C18_8 1_555 1_555
C19_8 C18_8 1_555 1_555
H11_8 C19_8 1_555 1_555
C21_8 N5_8 1_555 1_555
H13_8 C21_8 1_555 1_555
N2_8 C11_8 1_555 1_555
C16_8 C17_8 1_555 1_555
O5_8 C24_8 1_555 1_555
H12_8 C20_8 1_555 1_555
H14_8 C22_8 1_555 1_555
C23_8 N6_8 1_555 1_555
H15_6 C23_8 1_555 1_555
C24_8 C26_8 1_555 1_555
C25_8 C26_8 1_555 1_555
C26_8 C27_8 1_555 1_555
C27_8 H16_8 1_555 1_555
C28_8 C27_8 1_555 1_555
O11_8 C37_8 1_555 1_555
O12_8 C37_8 1_555 1_555
C37_8 C38_8 1_555 1_555
C38_8 C25_8 1_555 1_555
C39_8 C28_8 1_555 1_555
H20_8 C39_8 1_555 1_555
O13_8 C40_8 1_555 1_555
C40_8 C42_8 1_555 1_555
C41_8 C42_8 1_555 1_555
C42_8 C43_8 1_555 1_555
C43_8 H21_8 1_555 1_555
C44_8 C28_8 1_555 1_555
O15_8 C45_8 1_555 1_555
O16_8 C45_8 1_555 1_555
C45_8 C46_8 1_555 1_555
C46_8 C41_8 1_555 1_555
C47_8 C44_8 1_555 1_555
H22_8 C47_8 1_555 1_555
Zn14_2 O12_8 1_555 1_555
N12_8 Zn14_2 1_555 1_555
H36_8 C69_8 1_555 1_555
C70_8 N12_8 1_555 1_555
H37_6 C70_8 1_555 1_555
N25_6 C79_8 1_555 1_555
N14_8 C80_8 1_555 1_555
N15_8 C86_8 1_555 1_555
N29_4 C89_8 1_555 1_555
N17_8 C84_8 1_555 1_555
C79_8 H41_8 1_555 1_555
C80_8 C79_8 1_555 1_555
H42_8 C80_8 1_555 1_555
C81_8 N25_6 1_555 1_555
H43_8 C81_8 1_555 1_555
C82_8 N14_8 1_555 1_555
C83_8 C82_8 1_555 1_555
H44_8 C83_8 1_555 1_555
C84_8 C83_8 1_555 1_555
C85_8 C84_8 1_555 1_555
H45_8 C85_8 1_555 1_555
C86_8 C85_8 1_555 1_555
C87_8 C82_8 1_555 1_555
H46_8 C87_8 1_555 1_555
C88_8 N15_8 1_555 1_555
H47_8 C88_8 1_555 1_555
C89_8 C88_8 1_555 1_555
H48_8 C89_8 1_555 1_555
C90_8 N15_8 1_555 1_555
H49_8 C90_8 1_555 1_555
C91_8 N17_8 1_555 1_555
H50_8 C91_8 1_555 1_555
C92_8 N17_8 1_555 1_555
H51_8 C92_8 1_555 1_555
C93_8 N18_8 1_555 1_555
H52_8 C93_8 1_555 1_555
Zn14_3 O16_8 1_555 1_555
N24_8 Zn14_3 1_555 1_555
H63_8 C107_8 1_555 1_555
C108_8 N24_8 1_555 1_555
H64_8 C108_8 1_555 1_555
N27_4 C20_8 1_555 1_555
N6_8 C22_8 1_555 1_555
C38_8 C39_8 1_555 1_555
C43_8 C44_8 1_555 1_555
C46_8 C47_8 1_555 1_555
N12_8 C69_8 1_555 1_555
N14_8 C81_8 1_555 1_555
N29_4 C90_8 1_555 1_555
N18_8 C92_8 1_555 1_555
C86_8 C87_8 1_555 1_555
C91_8 C93_8 1_555 1_555
N24_8 C107_8 1_555 1_555
C25_8 H65_8 1_555 1_555
C41_8 H66_8 1_555 1_555

#END
