
###############################################################################
#
# This file contains modified crystal structure data generated from the
# MOF subset of the Cambridge Structural Database (CSD) v543 
# hosted by the Cambridge Crystallographic Data Centre (CCDC).
#
# This work is licensed under the Creative Commons
# Attribution-NonCommercial-ShareAlike 4.0 International License.
# To view a copy of this license, visit
# http://creativecommons.org/licenses/by-nc-sa/4.0/
# or send a letter to
# Creative Commons, PO Box 1866, Mountain View, CA 94042, USA.
#
# CIF created using the CSD Python API on 29 September 2022
# The structure has been converted into the P1 space group
# The structure has a 3D framework
# The original CSD entry ZUBKEO is in the triclinic crystal system
# The framework has been calculated to contain at least 10.0% void space
# The void calculation uses a probe of radius 1.32A, grid spacing 0.4
#
###############################################################################

data_ZUBKEO
_chemical_formula_moiety         '(C16 H8 Cu2 O8)n'
_symmetry_cell_setting           triclinic
_symmetry_space_group_name_H-M   'P 1'
_symmetry_Int_Tables_number      1
_space_group_name_Hall           'P 1'
loop_
_symmetry_equiv_pos_site_id
_symmetry_equiv_pos_as_xyz
1 x,y,z
_cell_length_a                   5.2502
_cell_length_b                   9.66899
_cell_length_c                   10.76792
_cell_angle_alpha                90.291
_cell_angle_beta                 91.059
_cell_angle_gamma                92.413
_cell_volume                     546.037
loop_
_atom_site_label
_atom_site_type_symbol
_atom_site_fract_x
_atom_site_fract_y
_atom_site_fract_z
_atom_site_U_iso_or_equiv
_atom_site_thermal_displace_type
O10 O 0.1152 0.3776 0.5023 0.0250 Uiso
O7 O 0.3211 0.5536 0.3292 0.0250 Uiso
C13 C 0.5017 0.4969 0.1285 0.0250 Uiso
C14 C 0.5051 0.4947 0.2663 0.0250 Uiso
C15 C 0.6978 0.4347 0.053 0.0250 Uiso
H7 H 0.8345 0.3897 0.0922 0.0250 Uiso
O8 O 0.692 0.4351 0.3082 0.0250 Uiso
C16 C 0.3037 0.5621 0.0749 0.0250 Uiso
H8 H 0.1670 0.6038 0.1289 0.0250 Uiso
Cu5 Cu 0.7082 0.4348 0.4882 0.0250 Uiso
Cu8 Cu 0.2918 0.5652 0.5118 0.0250 Uiso
O1 O 0.4901 0.2663 0.4723 0.0250 Uiso
O3 O 0.6789 0.4464 0.6708 0.0250 Uiso
O4 O 0.308 0.5649 0.6918 0.0250 Uiso
C2 C 0.118 0.13 0.4932 0.0250 Uiso
C3 C 0.2499 0.2679 0.488 0.0250 Uiso
C4 C 0.2193 0.01 0.4256 0.0250 Uiso
C5 C 0.3022 0.5653 0.947 0.0250 Uiso
C6 C 0.4983 0.5031 0.8715 0.0250 Uiso
C7 C 0.4949 0.5053 0.7337 0.0250 Uiso
C8 C 0.6963 0.4379 0.9251 0.0250 Uiso
H2 H 0.3743 0.0193 0.3752 0.0250 Uiso
H3 H 0.1655 0.6103 0.9078 0.0250 Uiso
H4 H 0.8330 0.3962 0.8711 0.0250 Uiso
O12 O 0.8848 0.6224 0.4977 0.0250 Uiso
C12 C 0.1007 0.8799 0.4317 0.0250 Uiso
H6 H 0.1685 0.7954 0.3841 0.0250 Uiso
C1 C 0.8993 0.1201 0.5683 0.0250 Uiso
H1 H 0.8315 0.2046 0.6159 0.0250 Uiso
O5 O 0.5099 0.7337 0.5277 0.0250 Uiso
C9 C 0.882 0.87 0.5068 0.0250 Uiso
C10 C 0.7501 0.7321 0.512 0.0250 Uiso
C11 C 0.7807 0.99 0.5744 0.0250 Uiso
H5 H 0.6257 0.9807 0.6248 0.0250 Uiso
loop_
_geom_bond_atom_site_label_1
_geom_bond_atom_site_label_2
_geom_bond_site_symmetry_1
_geom_bond_site_symmetry_2
O7 C14 1_555 1_555
C13 C14 1_555 1_555
C14 O8 1_555 1_555
H7 C15 1_555 1_555
O8 Cu5 1_555 1_555
H8 C16 1_555 1_555
Cu5 Cu8 1_555 1_555
Cu8 O7 1_555 1_555
C13 C15 1_555 1_555
C13 C16 1_555 1_555
Cu5 O1 1_555 1_555
O1 C3 1_555 1_555
O10 C3 1_555 1_555
O3 Cu5 1_555 1_555
O4 C7 1_555 1_555
C2 C3 1_555 1_555
C4 C2 1_555 1_555
C5 C6 1_555 1_555
C6 C7 1_555 1_555
C7 O3 1_555 1_555
C8 C6 1_555 1_555
H2 C4 1_555 1_555
H3 C5 1_555 1_555
H4 C8 1_555 1_555
O12 Cu5 1_555 1_555
O10 Cu8 1_555 1_555
O4 Cu8 1_555 1_555
H6 C12 1_555 1_555
H1 C1 1_555 1_555
O5 C10 1_555 1_555
O12 C10 1_555 1_555
C9 C10 1_555 1_555
H5 C11 1_555 1_555
Cu8 O5 1_555 1_555
C9 C11 1_555 1_555

#END
